data_functionalizedCrystal
_audit_creation_method	'EQeq! by Chris Wilmer'
_symmetry_space_group_name_H-M	'P1'
_symmetry_Int_Tables_number	1
_symmetry_cell_setting	triclinic
loop_
_symmetry_equiv_pos_as_xyz
  x,y,z
_cell_length_a	10.4361
_cell_length_b	11.2002
_cell_length_c	11.7349
_cell_angle_alpha	93.473
_cell_angle_beta	110.054
_cell_angle_gamma	106.436
loop_
_atom_site_label
_atom_site_type_symbol
_atom_site_fract_x
_atom_site_fract_y
_atom_site_fract_z
_atom_site_charge
Mof_Eu	Eu	0.10745	0.53458	0.68375	2.233
Mof_O 	O 	0.1912	0.7072	0.8616	-0.416
Mof_O 	O 	0.3407	0.7062	0.7694	-0.447
Mof_O 	O 	0.1551	0.5189	0.5028	-0.634
Mof_O 	O 	0.1244	0.4596	0.31	-0.481
Mof_O 	O 	0.0079	0.3155	0.6021	-0.576
Mof_O 	O 	0.9262	0.283	0.3979	-0.522
Mof_O 	O 	0.021	0.178	0.149	-0.327
Mof_H 	H 	0.0746	0.2428	0.1974	0.255
Mof_C 	C 	0.31	0.7576	0.8494	0.33
Mof_C 	C 	0.4098	0.8838	0.9271	-0.072
Mof_C 	C 	0.3702	0.9434	0.0068	-0.078
Mof_H 	H 	0.2812	0.905	0.0117	0.095
Mof_C 	C 	0.5414	0.9387	0.9174	0.117
Mof_C 	C 	0.2031	0.4905	0.4201	0.448
Mof_C 	C 	0.3554	0.4959	0.4605	-0.15
Mof_C 	C 	0.3981	0.4225	0.3902	0.115
Mof_C 	C 	0.4548	0.5697	0.5672	-0.043
Mof_H 	H 	0.4253	0.6175	0.6146	0.048
Mof_C 	C 	0.9714	0.2492	0.5003	0.519
Mof_C 	C 	0.985	0.1213	0.4966	-0.157
Mof_C 	C 	0.0095	0.0691	0.6035	-0.033
Mof_H 	H 	0.0151	0.1157	0.6744	0.058
Mof_C 	C 	0.9743	0.0493	0.3909	0.111
Mof_C 	C 	0.973	0.421	0.906	0.114
Mof_H 	H 	0.9059	0.4631	0.8812	0.007
Mof_C 	C 	0.071	0.286	0.988	0.04
Mof_C 	C 	0.132	0.337	0.907	0.011
Mof_H 	H 	0.2028	0.3145	0.8881	-0.002
Mof_C 	C 	0.063	0.168	0.044	0.029
Mof_H 	H 	0.9936	0.0953	0.9825	0.046
Mof_H 	H 	0.1564	0.155	0.0701	0.044
Mof_N 	N 	0.585	0.876	0.849	-0.105
Mof_N 	N 	0.304	0.341	0.288	-0.117
Mof_N 	N 	0.966	0.096	0.277	-0.081
Mof_N 	N 	0.0745	0.4252	0.8579	-0.262
Mof_N 	N 	0.979	0.347	0.994	-0.118
Mof_Eu	Eu	0.89255	0.46542	0.31625	2.234
Mof_O 	O 	0.8088	0.2928	0.1384	-0.415
Mof_O 	O 	0.6593	0.2938	0.2306	-0.447
Mof_O 	O 	0.8449	0.4811	0.4972	-0.634
Mof_O 	O 	0.8756	0.5404	0.69	-0.481
Mof_O 	O 	0.9921	0.6845	0.3979	-0.576
Mof_O 	O 	0.0738	0.717	0.6021	-0.522
Mof_O 	O 	0.979	0.822	0.851	-0.327
Mof_H 	H 	0.9254	0.7572	0.8026	0.255
Mof_C 	C 	0.69	0.2424	0.1506	0.33
Mof_C 	C 	0.5902	0.1162	0.0729	-0.072
Mof_C 	C 	0.6298	0.0566	0.9932	-0.078
Mof_H 	H 	0.7188	0.095	0.9883	0.095
Mof_C 	C 	0.4586	0.0613	0.0826	0.117
Mof_C 	C 	0.7969	0.5095	0.5799	0.448
Mof_C 	C 	0.6446	0.5041	0.5395	-0.15
Mof_C 	C 	0.6019	0.5775	0.6098	0.115
Mof_C 	C 	0.5452	0.4303	0.4328	-0.043
Mof_H 	H 	0.5747	0.3825	0.3854	0.048
Mof_C 	C 	0.0286	0.7508	0.4997	0.519
Mof_C 	C 	0.015	0.8787	0.5034	-0.157
Mof_C 	C 	0.9905	0.9309	0.3965	-0.033
Mof_H 	H 	0.9849	0.8843	0.3256	0.058
Mof_C 	C 	0.0257	0.9507	0.6091	0.111
Mof_C 	C 	0.027	0.579	0.094	0.114
Mof_H 	H 	0.0941	0.5369	0.1188	0.007
Mof_C 	C 	0.929	0.714	0.012	0.04
Mof_C 	C 	0.868	0.663	0.093	0.011
Mof_H 	H 	0.7972	0.6855	0.1119	-0.002
Mof_C 	C 	0.937	0.832	0.956	0.029
Mof_H 	H 	0.0064	0.9047	0.0175	0.046
Mof_H 	H 	0.8436	0.845	0.9299	0.044
Mof_N 	N 	0.415	0.124	0.151	-0.105
Mof_N 	N 	0.696	0.659	0.712	-0.117
Mof_N 	N 	0.034	0.904	0.723	-0.081
Mof_N 	N 	0.9255	0.5748	0.1421	-0.262
Mof_N 	N 	0.021	0.653	0.006	-0.118
_end
