data_functionalizedCrystal
_audit_creation_method	'EQeq! by Chris Wilmer'
_symmetry_space_group_name_H-M	'P1'
_symmetry_Int_Tables_number	1
_symmetry_cell_setting	triclinic
loop_
_symmetry_equiv_pos_as_xyz
  x,y,z
_cell_length_a	25.0275
_cell_length_b	25.0275
_cell_length_c	25.0275
_cell_angle_alpha	109.471
_cell_angle_beta	109.471
_cell_angle_gamma	109.471
loop_
_atom_site_label
_atom_site_type_symbol
_atom_site_fract_x
_atom_site_fract_y
_atom_site_fract_z
_atom_site_charge
Mof_Fe	Fe	0.17554	-3.76822e-17	0.51914	0.659
Mof_Fe	Fe	0.51914	0	0.17554	0.659
Mof_Fe	Fe	0.6564	0.48086	0.48086	0.7
Mof_Fe	Fe	1.88411e-17	0.17554	0.51914	0.659
Mof_Fe	Fe	0.48086	0.48086	0.6564	0.7
Mof_Fe	Fe	0.17554	0.51914	-0	0.659
Mof_Fe	Fe	0.82446	0.3436	0.82446	0.701
Mof_Fe	Fe	0.82446	0.82446	0.3436	0.701
Mof_Fe	Fe	0.51914	0.17554	-0	0.658
Mof_Fe	Fe	3.76822e-17	0.51914	0.17554	0.658
Mof_Fe	Fe	0.3436	0.82446	0.82446	0.701
Mof_Fe	Fe	0.48086	0.6564	0.48086	0.699
Mof_Cu	Cu	0.575	0.25659	0.72977	0.811
Mof_Cu	Cu	0.27023	0.84523	0.52682	0.812
Mof_Cu	Cu	0.72977	0.25659	0.575	0.811
Mof_Cu	Cu	0.47318	0.74341	0.31841	0.81
Mof_Cu	Cu	0.68159	0.15477	0.425	0.811
Mof_Cu	Cu	0.74341	0.31841	0.47318	0.81
Mof_Cu	Cu	0.84523	0.52682	0.27023	0.812
Mof_Cu	Cu	0.72977	0.575	0.25659	0.811
Mof_Cu	Cu	0.52682	0.27023	0.84523	0.812
Mof_Cu	Cu	0.25659	0.72977	0.575	0.811
Mof_Cu	Cu	0.31841	0.74341	0.47318	0.81
Mof_Cu	Cu	0.68159	0.425	0.15477	0.811
Mof_Cu	Cu	0.425	0.15477	0.68159	0.811
Mof_Cu	Cu	0.84523	0.27023	0.52682	0.812
Mof_Cu	Cu	0.52682	0.84523	0.27023	0.812
Mof_Cu	Cu	0.27023	0.52682	0.84523	0.812
Mof_Cu	Cu	0.425	0.68159	0.15477	0.811
Mof_Cu	Cu	0.25659	0.575	0.72977	0.811
Mof_Cu	Cu	0.31841	0.47318	0.74341	0.81
Mof_Cu	Cu	0.47318	0.31841	0.74341	0.81
Mof_Cu	Cu	0.74341	0.47318	0.31841	0.81
Mof_Cu	Cu	0.15477	0.425	0.68159	0.811
Mof_Cu	Cu	0.15477	0.68159	0.425	0.811
Mof_Cu	Cu	0.575	0.72977	0.25659	0.811
Mof_P 	P 	0.55021	0.93844	0.27259	0.014
Mof_P 	P 	0.72741	0.66585	0.27762	-0.006
Mof_P 	P 	0.72238	0.38823	0.44979	-0.007
Mof_P 	P 	0.06156	0.61177	0.33415	-0.009
Mof_P 	P 	0.27259	0.55021	0.93844	0.014
Mof_P 	P 	0.27259	0.93844	0.55021	0.014
Mof_P 	P 	0.61177	0.06156	0.33415	-0.009
Mof_P 	P 	0.44979	0.72238	0.38823	-0.007
Mof_P 	P 	0.66585	0.27762	0.72741	-0.006
Mof_P 	P 	0.38823	0.44979	0.72238	-0.007
Mof_P 	P 	0.33415	0.61177	0.06156	-0.009
Mof_P 	P 	0.33415	0.06156	0.61177	-0.009
Mof_P 	P 	0.06156	0.33415	0.61177	-0.009
Mof_P 	P 	0.27762	0.66585	0.72741	-0.006
Mof_P 	P 	0.72741	0.27762	0.66585	-0.006
Mof_P 	P 	0.61177	0.33415	0.06156	-0.009
Mof_P 	P 	0.93844	0.55021	0.27259	0.014
Mof_P 	P 	0.55021	0.27259	0.93844	0.014
Mof_P 	P 	0.38823	0.72238	0.44979	-0.007
Mof_P 	P 	0.72238	0.44979	0.38823	-0.007
Mof_P 	P 	0.93844	0.27259	0.55021	0.014
Mof_P 	P 	0.66585	0.72741	0.27762	-0.006
Mof_P 	P 	0.27762	0.72741	0.66585	-0.006
Mof_P 	P 	0.44979	0.38823	0.72238	-0.007
Mof_H 	H 	0.3489	0.0593	0.7824	0.324
Mof_H 	H 	0.6013	0.6733	0.518	0.046
Mof_H 	H 	0.1512	0.5701	0.9209	0.058
Mof_H 	H 	0.0593	0.3489	0.7824	0.324
Mof_H 	H 	0.4328	0.703	0.7662	0.338
Mof_H 	H 	0.7488	0.3708	0.0984	0.309
Mof_H 	H 	0.4321	0.9462	0.8565	0.044
Mof_H 	H 	0.1435	0.5756	0.0897	0.03
Mof_H 	H 	0.3508	0.4299	0.5811	0.056
Mof_H 	H 	0.6666	0.2338	0.9368	0.316
Mof_H 	H 	0.4511	0.8624	0.5491	0.344
Mof_H 	H 	0.4509	0.902	0.3133	0.314
Mof_H 	H 	0.7662	0.703	0.4328	0.338
Mof_H 	H 	0.2582	0.0772	0.4962	0.041
Mof_H 	H 	0.928	0.3267	0.8447	0.051
Mof_H 	H 	0.4509	0.3133	0.902	0.314
Mof_H 	H 	0.3267	0.928	0.8447	0.051
Mof_H 	H 	0.9103	0.0538	0.4859	0.031
Mof_H 	H 	0.2303	0.0791	0.6492	0.053
Mof_H 	H 	0.3469	0.0626	0.4817	0.314
Mof_H 	H 	0.1553	0.0833	0.482	0.037
Mof_H 	H 	0.9462	0.8565	0.4321	0.044
Mof_H 	H 	0.7298	0.0632	0.297	0.315
Mof_H 	H 	0.0632	0.7298	0.297	0.315
Mof_H 	H 	0.0897	0.5756	0.1435	0.03
Mof_H 	H 	0.7157	0.6531	0.1348	0.329
Mof_H 	H 	0.5672	0.2702	0.3334	0.329
Mof_H 	H 	0.518	0.6733	0.6013	0.046
Mof_H 	H 	0.9209	0.5701	0.1512	0.058
Mof_H 	H 	0.0791	0.6492	0.2303	0.053
Mof_H 	H 	0.3267	0.8447	0.928	0.051
Mof_H 	H 	0.8488	0.7697	0.4189	0.059
Mof_H 	H 	0.2702	0.3334	0.5672	0.329
Mof_H 	H 	0.4335	0.7104	0.6511	0.346
Mof_H 	H 	0.7276	0.6292	0.378	0.327
Mof_H 	H 	0.622	0.3496	0.2512	0.321
Mof_H 	H 	0.819	0.7418	0.238	0.046
Mof_H 	H 	0.1512	0.9209	0.5701	0.058
Mof_H 	H 	0.3133	0.902	0.4509	0.314
Mof_H 	H 	0.181	0.9228	0.419	0.047
Mof_H 	H 	0.9368	0.2338	0.6666	0.316
Mof_H 	H 	0.902	0.3133	0.4509	0.314
Mof_H 	H 	0.3469	0.4817	0.0626	0.314
Mof_H 	H 	0.8652	0.5809	0.5183	0.345
Mof_H 	H 	0.0791	0.2303	0.6492	0.053
Mof_H 	H 	0.0833	0.482	0.1553	0.037
Mof_H 	H 	0.4859	0.9103	0.0538	0.031
Mof_H 	H 	0.3334	0.5672	0.2702	0.329
Mof_H 	H 	0.0626	0.3469	0.4817	0.314
Mof_H 	H 	0.581	0.5038	0.762	0.046
Mof_H 	H 	0.5162	0.5737	0.9245	0.35
Mof_H 	H 	0.9103	0.4859	0.0538	0.031
Mof_H 	H 	0.482	0.0833	0.1553	0.037
Mof_H 	H 	0.8565	0.4321	0.9462	0.044
Mof_H 	H 	0.297	0.7298	0.0632	0.315
Mof_H 	H 	0.1435	0.0897	0.5756	0.03
Mof_H 	H 	0.9407	0.2896	0.7231	0.327
Mof_H 	H 	0.2303	0.6492	0.0791	0.053
Mof_H 	H 	0.4962	0.2582	0.0772	0.041
Mof_H 	H 	0.9374	0.4191	0.2843	0.317
Mof_H 	H 	0.9167	0.3987	0.072	0.042
Mof_H 	H 	0.2582	0.4962	0.0772	0.041
Mof_H 	H 	0.7276	0.378	0.6292	0.327
Mof_H 	H 	0.2702	0.5672	0.3334	0.329
Mof_H 	H 	0.0772	0.2582	0.4962	0.041
Mof_H 	H 	0.4263	0.9425	0.3508	0.32
Mof_H 	H 	0.9167	0.072	0.3987	0.042
Mof_H 	H 	0.5038	0.762	0.581	0.046
Mof_H 	H 	0.9368	0.6666	0.2338	0.316
Mof_H 	H 	0.2176	0.2769	0.5665	0.339
Mof_H 	H 	0.482	0.1553	0.0833	0.037
Mof_H 	H 	0.3708	0.0984	0.7488	0.309
Mof_H 	H 	0.5917	0.0755	0.6492	0.326
Mof_H 	H 	0.2843	0.9374	0.4191	0.317
Mof_H 	H 	0.4083	0.0575	0.4838	0.315
Mof_H 	H 	0.072	0.9167	0.3987	0.042
Mof_H 	H 	0.9228	0.419	0.181	0.047
Mof_H 	H 	0.622	0.2512	0.3496	0.321
Mof_H 	H 	0.5141	0.5679	0.4244	0.034
Mof_H 	H 	0.378	0.6292	0.7276	0.327
Mof_H 	H 	0.8624	0.5491	0.4511	0.344
Mof_H 	H 	0.7157	0.1348	0.6531	0.329
Mof_H 	H 	0.419	0.9228	0.181	0.047
Mof_H 	H 	0.5917	0.6492	0.0755	0.326
Mof_H 	H 	0.0632	0.297	0.7298	0.315
Mof_H 	H 	0.0833	0.1553	0.482	0.037
Mof_H 	H 	0.9016	0.2724	0.6504	0.305
Mof_H 	H 	0.7298	0.297	0.0632	0.315
Mof_H 	H 	0.9228	0.181	0.419	0.047
Mof_H 	H 	0.4244	0.5679	0.5141	0.034
Mof_H 	H 	0.7662	0.4328	0.703	0.338
Mof_H 	H 	0.2338	0.9368	0.6666	0.316
Mof_H 	H 	0.928	0.8447	0.3267	0.051
Mof_H 	H 	0.3708	0.7488	0.0984	0.309
Mof_H 	H 	0.2896	0.9407	0.7231	0.327
Mof_H 	H 	0.9209	0.1512	0.5701	0.058
Mof_H 	H 	0.2896	0.7231	0.9407	0.327
Mof_H 	H 	0.902	0.4509	0.3133	0.314
Mof_H 	H 	0.6013	0.518	0.6733	0.046
Mof_H 	H 	0.2338	0.6666	0.9368	0.316
Mof_H 	H 	0.4838	0.0575	0.4083	0.315
Mof_H 	H 	0.2769	0.2176	0.5665	0.339
Mof_H 	H 	0.9425	0.4263	0.3508	0.32
Mof_H 	H 	0.2769	0.5665	0.2176	0.339
Mof_H 	H 	0.9245	0.5737	0.5162	0.35
Mof_H 	H 	0.6733	0.518	0.6013	0.046
Mof_H 	H 	0.4189	0.7697	0.8488	0.059
Mof_H 	H 	0.0593	0.7824	0.3489	0.324
Mof_H 	H 	0.4838	0.4083	0.0575	0.315
Mof_H 	H 	0.819	0.238	0.7418	0.046
Mof_H 	H 	0.5756	0.1435	0.0897	0.03
Mof_H 	H 	0.703	0.4328	0.7662	0.338
Mof_H 	H 	0.6531	0.1348	0.7157	0.329
Mof_H 	H 	0.5491	0.4511	0.8624	0.344
Mof_H 	H 	0.7488	0.0984	0.3708	0.309
Mof_H 	H 	0.5183	0.8652	0.5809	0.345
Mof_H 	H 	0.0984	0.7488	0.3708	0.309
Mof_H 	H 	0.1348	0.7157	0.6531	0.329
Mof_H 	H 	0.6492	0.0791	0.2303	0.053
Mof_H 	H 	0.1376	0.6867	0.5887	0.328
Mof_H 	H 	0.9016	0.6504	0.2724	0.305
Mof_H 	H 	0.3508	0.5811	0.4299	0.056
Mof_H 	H 	0.3489	0.7824	0.0593	0.324
Mof_H 	H 	0.3508	0.4263	0.9425	0.32
Mof_H 	H 	0.6292	0.7276	0.378	0.327
Mof_H 	H 	0.4817	0.3469	0.0626	0.314
Mof_H 	H 	0.5489	0.098	0.4113	0.318
Mof_H 	H 	0.5887	0.6867	0.1376	0.328
Mof_H 	H 	0.2724	0.9016	0.6504	0.305
Mof_H 	H 	0.9374	0.2843	0.4191	0.317
Mof_H 	H 	0.5809	0.8652	0.5183	0.345
Mof_H 	H 	0.4263	0.3508	0.9425	0.32
Mof_H 	H 	0.7824	0.3489	0.0593	0.324
Mof_H 	H 	0.5756	0.0897	0.1435	0.03
Mof_H 	H 	0.7104	0.6511	0.4335	0.346
Mof_H 	H 	0.5491	0.8624	0.4511	0.344
Mof_H 	H 	0.8652	0.5183	0.5809	0.345
Mof_H 	H 	0.6511	0.7104	0.4335	0.346
Mof_H 	H 	0.3334	0.2702	0.5672	0.329
Mof_H 	H 	0.6504	0.9016	0.2724	0.305
Mof_H 	H 	0.4328	0.7662	0.703	0.338
Mof_H 	H 	0.1348	0.6531	0.7157	0.329
Mof_H 	H 	0.8488	0.4189	0.7697	0.059
Mof_H 	H 	0.0755	0.6492	0.5917	0.326
Mof_H 	H 	0.4321	0.8565	0.9462	0.044
Mof_H 	H 	0.6511	0.4335	0.7104	0.346
Mof_H 	H 	0.7418	0.819	0.238	0.046
Mof_H 	H 	0.7231	0.9407	0.2896	0.327
Mof_H 	H 	0.8447	0.3267	0.928	0.051
Mof_H 	H 	0.5679	0.5141	0.4244	0.034
Mof_H 	H 	0.098	0.5489	0.4113	0.318
Mof_H 	H 	0.4113	0.5489	0.098	0.318
Mof_H 	H 	0.4244	0.5141	0.5679	0.034
Mof_H 	H 	0.6867	0.5887	0.1376	0.328
Mof_H 	H 	0.0984	0.3708	0.7488	0.309
Mof_H 	H 	0.4962	0.0772	0.2582	0.041
Mof_H 	H 	0.9462	0.4321	0.8565	0.044
Mof_H 	H 	0.6492	0.5917	0.0755	0.326
Mof_H 	H 	0.5038	0.581	0.762	0.046
Mof_H 	H 	0.9407	0.7231	0.2896	0.327
Mof_H 	H 	0.0575	0.4838	0.4083	0.315
Mof_H 	H 	0.4817	0.0626	0.3469	0.314
Mof_H 	H 	0.5665	0.2176	0.2769	0.339
Mof_H 	H 	0.3508	0.9425	0.4263	0.32
Mof_H 	H 	0.3496	0.622	0.2512	0.321
Mof_H 	H 	0.5887	0.1376	0.6867	0.328
Mof_H 	H 	0.0575	0.4083	0.4838	0.315
Mof_H 	H 	0.5811	0.3508	0.4299	0.056
Mof_H 	H 	0.7697	0.4189	0.8488	0.059
Mof_H 	H 	0.098	0.4113	0.5489	0.318
Mof_H 	H 	0.6531	0.7157	0.1348	0.329
Mof_H 	H 	0.5665	0.2769	0.2176	0.339
Mof_H 	H 	0.762	0.5038	0.581	0.046
Mof_H 	H 	0.5183	0.5809	0.8652	0.345
Mof_H 	H 	0.9425	0.3508	0.4263	0.32
Mof_H 	H 	0.238	0.819	0.7418	0.046
Mof_H 	H 	0.181	0.419	0.9228	0.047
Mof_H 	H 	0.297	0.0632	0.7298	0.315
Mof_H 	H 	0.7104	0.4335	0.6511	0.346
Mof_H 	H 	0.6492	0.2303	0.0791	0.053
Mof_H 	H 	0.5811	0.4299	0.3508	0.056
Mof_H 	H 	0.4189	0.8488	0.7697	0.059
Mof_H 	H 	0.5162	0.9245	0.5737	0.35
Mof_H 	H 	0.0626	0.4817	0.3469	0.314
Mof_H 	H 	0.6867	0.1376	0.5887	0.328
Mof_H 	H 	0.7231	0.2896	0.9407	0.327
Mof_H 	H 	0.1376	0.5887	0.6867	0.328
Mof_H 	H 	0.419	0.181	0.9228	0.047
Mof_H 	H 	0.4859	0.0538	0.9103	0.031
Mof_H 	H 	0.5701	0.1512	0.9209	0.058
Mof_H 	H 	0.5809	0.5183	0.8652	0.345
Mof_H 	H 	0.581	0.762	0.5038	0.046
Mof_H 	H 	0.1553	0.482	0.0833	0.037
Mof_H 	H 	0.5679	0.4244	0.5141	0.034
Mof_H 	H 	0.6292	0.378	0.7276	0.327
Mof_H 	H 	0.0538	0.9103	0.4859	0.031
Mof_H 	H 	0.0755	0.5917	0.6492	0.326
Mof_H 	H 	0.0772	0.4962	0.2582	0.041
Mof_H 	H 	0.762	0.581	0.5038	0.046
Mof_H 	H 	0.9245	0.5162	0.5737	0.35
Mof_H 	H 	0.5489	0.4113	0.098	0.318
Mof_H 	H 	0.2843	0.4191	0.9374	0.317
Mof_H 	H 	0.6666	0.9368	0.2338	0.316
Mof_H 	H 	0.2512	0.3496	0.622	0.321
Mof_H 	H 	0.7824	0.0593	0.3489	0.324
Mof_H 	H 	0.2512	0.622	0.3496	0.321
Mof_H 	H 	0.2724	0.6504	0.9016	0.305
Mof_H 	H 	0.4191	0.2843	0.9374	0.317
Mof_H 	H 	0.7697	0.8488	0.4189	0.059
Mof_H 	H 	0.0897	0.1435	0.5756	0.03
Mof_H 	H 	0.8565	0.9462	0.4321	0.044
Mof_H 	H 	0.4191	0.9374	0.2843	0.317
Mof_H 	H 	0.0538	0.4859	0.9103	0.031
Mof_H 	H 	0.4511	0.5491	0.8624	0.344
Mof_H 	H 	0.3987	0.072	0.9167	0.042
Mof_H 	H 	0.8447	0.928	0.3267	0.051
Mof_H 	H 	0.6504	0.2724	0.9016	0.305
Mof_H 	H 	0.4299	0.5811	0.3508	0.056
Mof_H 	H 	0.3496	0.2512	0.622	0.321
Mof_H 	H 	0.4299	0.3508	0.5811	0.056
Mof_H 	H 	0.5672	0.3334	0.2702	0.329
Mof_H 	H 	0.3133	0.4509	0.902	0.314
Mof_H 	H 	0.7418	0.238	0.819	0.046
Mof_H 	H 	0.5701	0.9209	0.1512	0.058
Mof_H 	H 	0.4335	0.6511	0.7104	0.346
Mof_H 	H 	0.238	0.7418	0.819	0.046
Mof_H 	H 	0.4113	0.098	0.5489	0.318
Mof_H 	H 	0.5141	0.4244	0.5679	0.034
Mof_H 	H 	0.378	0.7276	0.6292	0.327
Mof_H 	H 	0.703	0.7662	0.4328	0.338
Mof_H 	H 	0.6492	0.0755	0.5917	0.326
Mof_H 	H 	0.2176	0.5665	0.2769	0.339
Mof_H 	H 	0.4083	0.4838	0.0575	0.315
Mof_H 	H 	0.6733	0.6013	0.518	0.046
Mof_H 	H 	0.072	0.3987	0.9167	0.042
Mof_H 	H 	0.518	0.6013	0.6733	0.046
Mof_H 	H 	0.8624	0.4511	0.5491	0.344
Mof_H 	H 	0.5737	0.9245	0.5162	0.35
Mof_H 	H 	0.5737	0.5162	0.9245	0.35
Mof_H 	H 	0.3987	0.9167	0.072	0.042
Mof_C 	C 	0.3838	0.0599	0.5061	-1.03
Mof_C 	C 	0.9149	0.0913	0.4836	-0.08
Mof_C 	C 	0.3923	0.8236	0.9087	-0.084
Mof_C 	C 	0.717	0.5539	0.4757	-0.151
Mof_C 	C 	0.3923	0.9087	0.8236	-0.084
Mof_C 	C 	0.8614	0.4425	0.4425	-0.211
Mof_C 	C 	0.3336	0.8168	0.8992	-0.145
Mof_C 	C 	0.5656	0.6664	0.4832	-0.148
Mof_C 	C 	0.3363	0.0606	0.7423	-1.012
Mof_C 	C 	0.292	0.292	0.682	-0.161
Mof_C 	C 	0.0851	0.5687	0.1764	-0.086
Mof_C 	C 	0.1223	0.6162	0.6761	-1.066
Mof_C 	C 	0.6817	0.2757	0.9394	-0.986
Mof_C 	C 	0.5061	0.0599	0.3838	-1.03
Mof_C 	C 	0.6398	0.1518	0.6398	0.56
Mof_C 	C 	0.8482	0.488	0.488	0.582
Mof_C 	C 	0.4425	0.4425	0.8614	-0.211
Mof_C 	C 	0.3239	0.4462	0.9401	-1.004
Mof_C 	C 	0.6849	0.418	0.4935	-0.083
Mof_C 	C 	0.5539	0.4757	0.717	-0.151
Mof_C 	C 	0.488	0.8482	0.488	0.582
Mof_C 	C 	0.283	0.7587	0.8369	-0.15
Mof_C 	C 	0.3856	0.8545	0.7747	-0.155
Mof_C 	C 	0.418	0.4935	0.6849	-0.083
Mof_C 	C 	0.7243	0.6637	0.406	-1.07
Mof_C 	C 	0.0755	0.582	0.2669	-0.082
Mof_C 	C 	0.0755	0.2669	0.582	-0.082
Mof_C 	C 	0.9245	0.5065	0.1914	-0.076
Mof_C 	C 	0.3602	0.512	-0	0.522
Mof_C 	C 	0.5538	0.4939	0.8777	-1.108
Mof_C 	C 	0.1631	0.9218	0.4461	-0.143
Mof_C 	C 	0.4313	0.5164	0.6077	-0.086
Mof_C 	C 	0.5811	0.5811	0.1386	-0.213
Mof_C 	C 	0.1455	0.9202	0.5311	-0.149
Mof_C 	C 	0.5538	0.8777	0.4939	-1.108
Mof_C 	C 	0.8369	0.283	0.7587	-0.15
Mof_C 	C 	0.4461	0.9218	0.1631	-0.143
Mof_C 	C 	0.0913	0.9149	0.4836	-0.08
Mof_C 	C 	-9.42055e-18	0.512	0.3602	0.522
Mof_C 	C 	0.1914	0.9245	0.5065	-0.076
Mof_C 	C 	0.4189	0.5575	-0	-0.217
Mof_C 	C 	0.9218	0.4461	0.1631	-0.143
Mof_C 	C 	0.0606	0.7423	0.3363	-1.012
Mof_C 	C 	0.4462	0.9401	0.3239	-1.004
Mof_C 	C 	0.4939	0.8777	0.5538	-1.108
Mof_C 	C 	0.708	0	0.39	-0.165
Mof_C 	C 	0.5065	0.9245	0.1914	-0.076
Mof_C 	C 	0.6109	0.2253	0.0798	-0.154
Mof_C 	C 	0.39	0.708	-0	-0.165
Mof_C 	C 	0.3602	0	0.512	0.522
Mof_C 	C 	0.6897	0.3247	-0	0.506
Mof_C 	C 	0.1914	0.5065	0.9245	-0.076
Mof_C 	C 	0.2757	0.6817	0.9394	-0.986
Mof_C 	C 	0.6162	0.6761	0.1223	-1.066
Mof_C 	C 	-1.88411e-17	0.3247	0.6897	0.506
Mof_C 	C 	0.3151	0.7331	0.8086	-0.083
Mof_C 	C 	0.5575	0	0.4189	-0.217
Mof_C 	C 	0.594	0.2577	0.3183	-1.053
Mof_C 	C 	0.1832	0.0824	0.5168	-0.145
Mof_C 	C 	0.5687	0.0851	0.1764	-0.086
Mof_C 	C 	0.6817	0.9394	0.2757	-0.986
Mof_C 	C 	0.8545	0.3856	0.7747	-0.155
Mof_C 	C 	0.0798	0.6109	0.2253	-0.154
Mof_C 	C 	0.2253	0.0798	0.6109	-0.154
Mof_C 	C 	0.5164	0.4313	0.6077	-0.086
Mof_C 	C 	-5.65233e-17	0.4189	0.5575	-0.217
Mof_C 	C 	0.9087	0.3923	0.8236	-0.084
Mof_C 	C 	0.3363	0.7423	0.0606	-1.012
Mof_C 	C 	0.8086	0.3151	0.7331	-0.083
Mof_C 	C 	0.488	0.488	0.8482	0.582
Mof_C 	C 	0.283	0.8369	0.7587	-0.15
Mof_C 	C 	0.5311	0.9202	0.1455	-0.149
Mof_C 	C 	0.8168	0.8992	0.3336	-0.145
Mof_C 	C 	0.61	0.318	0.61	-0.164
Mof_C 	C 	0.8168	0.3336	0.8992	-0.145
Mof_C 	C 	0.5575	0.4189	-0	-0.217
Mof_C 	C 	0.6162	0.1223	0.6761	-1.066
Mof_C 	C 	0.3183	0.594	0.2577	-1.053
Mof_C 	C 	0.9202	0.1455	0.5311	-0.149
Mof_C 	C 	0.6897	0	0.3247	0.506
Mof_C 	C 	0.4836	0.9149	0.0913	-0.08
Mof_C 	C 	0.2413	0.0782	0.5243	-0.15
Mof_C 	C 	0.7747	0.3856	0.8545	-0.155
Mof_C 	C 	0.3336	0.8992	0.8168	-0.145
Mof_C 	C 	0.4344	0.9176	0.1008	-0.141
Mof_C 	C 	0.406	0.6637	0.7243	-1.07
Mof_C 	C 	0.708	0.39	-0	-0.165
Mof_C 	C 	0.5811	0.1386	0.5811	-0.213
Mof_C 	C 	0.4313	0.6077	0.5164	-0.086
Mof_C 	C 	0.635	0.3103	0.3103	0.546
Mof_C 	C 	0.6664	0.4832	0.5656	-0.148
Mof_C 	C 	0.6637	0.7243	0.406	-1.07
Mof_C 	C 	0.0606	0.3363	0.7423	-1.012
Mof_C 	C 	0.1223	0.6761	0.6162	-1.066
Mof_C 	C 	0.0851	0.1764	0.5687	-0.086
Mof_C 	C 	0.0824	0.1832	0.5168	-0.145
Mof_C 	C 	0.5243	0.2413	0.0782	-0.15
Mof_C 	C 	0.2669	0.582	0.0755	-0.082
Mof_C 	C 	0.9245	0.1914	0.5065	-0.076
Mof_C 	C 	0.7423	0.3363	0.0606	-1.012
Mof_C 	C 	-1.88411e-17	0.3602	0.512	0.522
Mof_C 	C 	0.6144	0.3891	0.4689	-0.157
Mof_C 	C 	0.5061	0.3838	0.0599	-1.03
Mof_C 	C 	0.6077	0.5164	0.4313	-0.086
Mof_C 	C 	0.8992	0.8168	0.3336	-0.145
Mof_C 	C 	0.6761	0.6162	0.1223	-1.066
Mof_C 	C 	0.5065	0.1914	0.9245	-0.076
Mof_C 	C 	0.3838	0.5061	0.0599	-1.03
Mof_C 	C 	0.582	0.0755	0.2669	-0.082
Mof_C 	C 	0.5539	0.717	0.4757	-0.151
Mof_C 	C 	0.406	0.7243	0.6637	-1.07
Mof_C 	C 	0.3247	0.6897	-0	0.506
Mof_C 	C 	0.6753	0.6753	0.365	0.555
Mof_C 	C 	0.6109	0.0798	0.2253	-0.154
Mof_C 	C 	0.1764	0.5687	0.0851	-0.086
Mof_C 	C 	-9.42055e-18	0.6897	0.3247	0.506
Mof_C 	C 	0.4757	0.717	0.5539	-0.151
Mof_C 	C 	0.6753	0.365	0.6753	0.555
Mof_C 	C 	0.318	0.61	0.61	-0.164
Mof_C 	C 	-2.82616e-17	0.5575	0.4189	-0.217
Mof_C 	C 	0.4757	0.5539	0.717	-0.151
Mof_C 	C 	0.4935	0.6849	0.418	-0.083
Mof_C 	C 	0.2669	0.0755	0.582	-0.082
Mof_C 	C 	0.6849	0.4935	0.418	-0.083
Mof_C 	C 	0.2757	0.9394	0.6817	-0.986
Mof_C 	C 	0.8236	0.9087	0.3923	-0.084
Mof_C 	C 	0.1764	0.0851	0.5687	-0.086
Mof_C 	C 	0.6077	0.4313	0.5164	-0.086
Mof_C 	C 	0.0782	0.2413	0.5243	-0.15
Mof_C 	C 	0.5243	0.0782	0.2413	-0.15
Mof_C 	C 	0.1386	0.5811	0.5811	-0.213
Mof_C 	C 	0.8086	0.7331	0.3151	-0.083
Mof_C 	C 	0.1008	0.9176	0.4344	-0.141
Mof_C 	C 	0.4689	0.6144	0.3891	-0.157
Mof_C 	C 	0.0913	0.4836	0.9149	-0.08
Mof_C 	C 	0.292	0.682	0.292	-0.161
Mof_C 	C 	0.7331	0.3151	0.8086	-0.083
Mof_C 	C 	0.4189	-3.76822e-17	0.5575	-0.217
Mof_C 	C 	0.3103	0.3103	0.635	0.546
Mof_C 	C 	0.0824	0.5168	0.1832	-0.145
Mof_C 	C 	0.4939	0.5538	0.8777	-1.108
Mof_C 	C 	0.1455	0.5311	0.9202	-0.149
Mof_C 	C 	0.9394	0.2757	0.6817	-0.986
Mof_C 	C 	0.3151	0.8086	0.7331	-0.083
Mof_C 	C 	0.4832	0.5656	0.6664	-0.148
Mof_C 	C 	9.42055e-18	0.708	0.39	-0.165
Mof_C 	C 	0.7587	0.8369	0.283	-0.15
Mof_C 	C 	0.6637	0.406	0.7243	-1.07
Mof_C 	C 	0.512	0.3602	-0	0.522
Mof_C 	C 	0.5164	0.6077	0.4313	-0.086
Mof_C 	C 	0.5168	0.0824	0.1832	-0.145
Mof_C 	C 	0.3183	0.2577	0.594	-1.053
Mof_C 	C 	0.7331	0.8086	0.3151	-0.083
Mof_C 	C 	0.7587	0.283	0.8369	-0.15
Mof_C 	C 	0.61	0.61	0.318	-0.164
Mof_C 	C 	0.2577	0.594	0.3183	-1.053
Mof_C 	C 	0.5311	0.1455	0.9202	-0.149
Mof_C 	C 	0.1008	0.4344	0.9176	-0.141
Mof_C 	C 	0.0782	0.5243	0.2413	-0.15
Mof_C 	C 	0.0599	0.5061	0.3838	-1.03
Mof_C 	C 	0.6144	0.4689	0.3891	-0.157
Mof_C 	C 	0.2577	0.3183	0.594	-1.053
Mof_C 	C 	0.6398	0.6398	0.1518	0.56
Mof_C 	C 	0.1631	0.4461	0.9218	-0.143
Mof_C 	C 	0.3239	0.9401	0.4462	-1.004
Mof_C 	C 	0.7423	0.0606	0.3363	-1.012
Mof_C 	C 	0.9202	0.5311	0.1455	-0.149
Mof_C 	C 	0.3103	0.635	0.3103	0.546
Mof_C 	C 	0.4836	0.0913	0.9149	-0.08
Mof_C 	C 	0.7243	0.406	0.6637	-1.07
Mof_C 	C 	0.4832	0.6664	0.5656	-0.148
Mof_C 	C 	0.5687	0.1764	0.0851	-0.086
Mof_C 	C 	0.717	0.4757	0.5539	-0.151
Mof_C 	C 	0.1518	0.6398	0.6398	0.56
Mof_C 	C 	0.4461	0.1631	0.9218	-0.143
Mof_C 	C 	0.0599	0.3838	0.5061	-1.03
Mof_C 	C 	0.3891	0.4689	0.6144	-0.157
Mof_C 	C 	0.9401	0.4462	0.3239	-1.004
Mof_C 	C 	0.365	0.6753	0.6753	0.555
Mof_C 	C 	0.8777	0.5538	0.4939	-1.108
Mof_C 	C 	0.682	0.292	0.292	-0.161
Mof_C 	C 	0.512	-3.76822e-17	0.3602	0.522
Mof_C 	C 	0.9087	0.8236	0.3923	-0.084
Mof_C 	C 	0.4344	0.1008	0.9176	-0.141
Mof_C 	C 	0.5656	0.4832	0.6664	-0.148
Mof_C 	C 	0.4935	0.418	0.6849	-0.083
Mof_C 	C 	0.8992	0.3336	0.8168	-0.145
Mof_C 	C 	0.2413	0.5243	0.0782	-0.15
Mof_C 	C 	0.3247	0	0.6897	0.506
Mof_C 	C 	0.4462	0.3239	0.9401	-1.004
Mof_C 	C 	0.9149	0.4836	0.0913	-0.08
Mof_C 	C 	0.9401	0.3239	0.4462	-1.004
Mof_C 	C 	0.8777	0.4939	0.5538	-1.108
Mof_C 	C 	0.4425	0.8614	0.4425	-0.211
Mof_C 	C 	0.582	0.2669	0.0755	-0.082
Mof_C 	C 	0.9176	0.4344	0.1008	-0.141
Mof_C 	C 	0.3856	0.7747	0.8545	-0.155
Mof_C 	C 	0.8236	0.3923	0.9087	-0.084
Mof_C 	C 	0.594	0.3183	0.2577	-1.053
Mof_C 	C 	0.6664	0.5656	0.4832	-0.148
Mof_C 	C 	0.418	0.6849	0.4935	-0.083
Mof_C 	C 	0.6761	0.1223	0.6162	-1.066
Mof_C 	C 	0.7747	0.8545	0.3856	-0.155
Mof_C 	C 	0.1832	0.5168	0.0824	-0.145
Mof_C 	C 	0.4689	0.3891	0.6144	-0.157
Mof_C 	C 	0.2253	0.6109	0.0798	-0.154
Mof_C 	C 	0.39	0	0.708	-0.165
Mof_C 	C 	0.8369	0.7587	0.283	-0.15
Mof_C 	C 	0.5168	0.1832	0.0824	-0.145
Mof_C 	C 	0.9394	0.6817	0.2757	-0.986
Mof_C 	C 	1.88411e-17	0.39	0.708	-0.165
Mof_C 	C 	0.0798	0.2253	0.6109	-0.154
Mof_C 	C 	0.9218	0.1631	0.4461	-0.143
Mof_C 	C 	0.8545	0.7747	0.3856	-0.155
Mof_C 	C 	0.9176	0.1008	0.4344	-0.141
Mof_C 	C 	0.3891	0.6144	0.4689	-0.157
Mof_Br	Br	0.23356	0.46954	0.6446	-0.724
Mof_Br	Br	0.23598	0.76644	0.41104	-0.722
Mof_Br	Br	0.58896	0.3554	0.82494	-0.718
Mof_Br	Br	0.3554	0.82494	0.58896	-0.718
Mof_Br	Br	0.23356	0.6446	0.46954	-0.724
Mof_Br	Br	0.82494	0.58896	0.3554	-0.718
Mof_Br	Br	0.46954	0.6446	0.23356	-0.724
Mof_Br	Br	0.58896	0.82494	0.3554	-0.718
Mof_Br	Br	0.76644	0.23598	0.41104	-0.722
Mof_Br	Br	0.17506	0.76402	0.53046	-0.724
Mof_Br	Br	0.76402	0.53046	0.17506	-0.724
Mof_Br	Br	0.76402	0.17506	0.53046	-0.724
Mof_Br	Br	0.53046	0.17506	0.76402	-0.724
Mof_Br	Br	0.53046	0.76402	0.17506	-0.724
Mof_Br	Br	0.82494	0.3554	0.58896	-0.718
Mof_Br	Br	0.6446	0.46954	0.23356	-0.724
Mof_Br	Br	0.17506	0.53046	0.76402	-0.724
Mof_Br	Br	0.6446	0.23356	0.46954	-0.724
Mof_Br	Br	0.41104	0.23598	0.76644	-0.722
Mof_Br	Br	0.46954	0.23356	0.6446	-0.724
Mof_Br	Br	0.76644	0.41104	0.23598	-0.722
Mof_Br	Br	0.3554	0.58896	0.82494	-0.718
Mof_Br	Br	0.23598	0.41104	0.76644	-0.722
Mof_Br	Br	0.41104	0.76644	0.23598	-0.722
Mof_N 	N 	0.69811	0.32482	0.69811	-0.211
Mof_N 	N 	0.31682	0	0.54018	-0.219
Mof_N 	N 	0.68318	0.22336	0.68318	-0.214
Mof_N 	N 	0.69811	0.69811	0.32482	-0.211
Mof_N 	N 	0.22336	0.68318	0.68318	-0.214
Mof_N 	N 	0.30189	0.62671	-0	-0.215
Mof_N 	N 	0.37329	0.37329	0.67518	-0.21
Mof_N 	N 	1.88411e-17	0.30189	0.62671	-0.215
Mof_N 	N 	0.62671	-1.88411e-17	0.30189	-0.215
Mof_N 	N 	0.77664	0.45982	0.45982	-0.217
Mof_N 	N 	0.62671	0.30189	-0	-0.215
Mof_N 	N 	0.30189	0	0.62671	-0.215
Mof_N 	N 	0.45982	0.77664	0.45982	-0.217
Mof_N 	N 	5.65233e-17	0.31682	0.54018	-0.219
Mof_N 	N 	0.32482	0.69811	0.69811	-0.211
Mof_N 	N 	0.31682	0.54018	-0	-0.219
Mof_N 	N 	0.45982	0.45982	0.77664	-0.217
Mof_N 	N 	4.71027e-17	0.54018	0.31682	-0.219
Mof_N 	N 	0.68318	0.68318	0.22336	-0.214
Mof_N 	N 	0.67518	0.37329	0.37329	-0.21
Mof_N 	N 	0.37329	0.67518	0.37329	-0.21
Mof_N 	N 	0.54018	0.31682	-0	-0.219
Mof_N 	N 	0.54018	0	0.31682	-0.219
Mof_N 	N 	-0	0.62671	0.30189	-0.215
_end
