data_functionalizedCrystal
_audit_creation_method	'EQeq! by Chris Wilmer'
_symmetry_space_group_name_H-M	'P1'
_symmetry_Int_Tables_number	1
_symmetry_cell_setting	triclinic
loop_
_symmetry_equiv_pos_as_xyz
  x,y,z
_cell_length_a	13.2563
_cell_length_b	13.2563
_cell_length_c	27.5616
_cell_angle_alpha	90
_cell_angle_beta	90
_cell_angle_gamma	90
loop_
_atom_site_label
_atom_site_type_symbol
_atom_site_fract_x
_atom_site_fract_y
_atom_site_fract_z
_atom_site_charge
Mof_C 	C 	0.1533	0.7266	0.20143	-0.017
Mof_C 	C 	0.0905	0.6673	0.23092	-0.072
Mof_C 	C 	0.1681	0.5897	0.14494	-0.02
Mof_C 	C 	0.1078	0.5311	0.17453	-0.067
Mof_H 	H 	0.0932	0.4637	0.1651	0.04
Mof_H 	H 	0.1945	0.5623	0.1157	0.031
Mof_H 	H 	0.1703	0.7929	0.2116	0.027
Mof_H 	H 	0.0634	0.6947	0.26	0.051
Mof_C 	C 	0.2063	0.8281	0.09584	-0.115
Mof_C 	C 	0.3549	0.7451	0.12216	-0.007
Mof_C 	C 	0.4088	0.8033	0.08865	-0.023
Mof_H 	H 	0.4801	0.7961	0.0877	0.013
Mof_C 	C 	0.2653	0.8819	0.06299	0.068
Mof_H 	H 	0.2339	0.9308	0.0429	-0.017
Mof_H 	H 	0.3898	0.6993	0.1427	0.025
Mof_H 	H 	0.136	0.8407	0.0984	0.063
Mof_C 	C 	0.8467	0.2734	0.20143	-0.024
Mof_C 	C 	0.9095	0.3327	0.23092	-0.067
Mof_C 	C 	0.8319	0.4103	0.14494	-0.028
Mof_C 	C 	0.8922	0.4689	0.17453	-0.059
Mof_H 	H 	0.9068	0.5363	0.1651	0.038
Mof_H 	H 	0.8055	0.4377	0.1157	0.032
Mof_H 	H 	0.8297	0.2071	0.2116	0.029
Mof_H 	H 	0.9366	0.3053	0.26	0.047
Mof_C 	C 	0.7937	0.1719	0.09584	-0.113
Mof_C 	C 	0.6451	0.2549	0.12216	-0.007
Mof_C 	C 	0.5912	0.1967	0.08865	-0.022
Mof_H 	H 	0.5199	0.2039	0.0877	0.013
Mof_C 	C 	0.7347	0.1181	0.06299	0.066
Mof_H 	H 	0.7661	0.0692	0.0429	-0.016
Mof_H 	H 	0.6102	0.3007	0.1427	0.026
Mof_H 	H 	0.864	0.1593	0.0984	0.062
Mof_C 	C 	0.7734	0.6533	0.70143	-0.017
Mof_C 	C 	0.8327	0.5905	0.73092	-0.073
Mof_C 	C 	0.9103	0.6681	0.64494	-0.018
Mof_C 	C 	0.9689	0.6078	0.67453	-0.075
Mof_H 	H 	0.0363	0.5932	0.6651	0.044
Mof_H 	H 	0.9377	0.6945	0.6157	0.027
Mof_H 	H 	0.7071	0.6703	0.7116	0.027
Mof_H 	H 	0.8053	0.5634	0.76	0.05
Mof_C 	C 	0.6719	0.7063	0.59584	-0.111
Mof_C 	C 	0.7549	0.8549	0.62216	-0.009
Mof_C 	C 	0.6967	0.9088	0.58865	-0.023
Mof_H 	H 	0.7039	0.9801	0.5877	0.011
Mof_C 	C 	0.6181	0.7653	0.56299	0.068
Mof_H 	H 	0.5692	0.7339	0.5429	-0.013
Mof_H 	H 	0.8007	0.8898	0.6427	0.025
Mof_H 	H 	0.6593	0.636	0.5984	0.062
Mof_C 	C 	0.2266	0.3467	0.70143	-0.025
Mof_C 	C 	0.1673	0.4095	0.73092	-0.066
Mof_C 	C 	0.0897	0.3319	0.64494	-0.032
Mof_C 	C 	0.0311	0.3922	0.67453	-0.052
Mof_H 	H 	0.9637	0.4068	0.6651	0.033
Mof_H 	H 	0.0623	0.3055	0.6157	0.035
Mof_H 	H 	0.2929	0.3297	0.7116	0.03
Mof_H 	H 	0.1947	0.4366	0.76	0.048
Mof_C 	C 	0.3281	0.2937	0.59584	-0.111
Mof_C 	C 	0.2451	0.1451	0.62216	-0.011
Mof_C 	C 	0.3033	0.0912	0.58865	-0.022
Mof_H 	H 	0.2961	0.0199	0.5877	0.015
Mof_C 	C 	0.3819	0.2347	0.56299	0.067
Mof_H 	H 	0.4308	0.2661	0.5429	-0.012
Mof_H 	H 	0.1993	0.1102	0.6427	0.027
Mof_H 	H 	0.3407	0.364	0.5984	0.062
Mof_C 	C 	0.8467	0.7266	0.29857	-0.024
Mof_C 	C 	0.9095	0.6673	0.26908	-0.067
Mof_C 	C 	0.8319	0.5897	0.35506	-0.028
Mof_C 	C 	0.8922	0.5311	0.32547	-0.059
Mof_H 	H 	0.9068	0.4637	0.3349	0.038
Mof_H 	H 	0.8055	0.5623	0.3843	0.032
Mof_H 	H 	0.8297	0.7929	0.2884	0.029
Mof_H 	H 	0.9366	0.6947	0.24	0.047
Mof_C 	C 	0.7937	0.8281	0.40416	-0.112
Mof_C 	C 	0.6451	0.7451	0.37784	-0.01
Mof_C 	C 	0.5912	0.8033	0.41135	-0.023
Mof_H 	H 	0.5199	0.7961	0.4123	0.013
Mof_C 	C 	0.7347	0.8819	0.43701	0.068
Mof_H 	H 	0.7661	0.9308	0.4571	-0.014
Mof_H 	H 	0.6102	0.6993	0.3573	0.026
Mof_H 	H 	0.864	0.8407	0.4016	0.061
Mof_C 	C 	0.1533	0.2734	0.29857	-0.018
Mof_C 	C 	0.0905	0.3327	0.26908	-0.072
Mof_C 	C 	0.1681	0.4103	0.35506	-0.021
Mof_C 	C 	0.1078	0.4689	0.32547	-0.068
Mof_H 	H 	0.0932	0.5363	0.3349	0.039
Mof_H 	H 	0.1945	0.4377	0.3843	0.03
Mof_H 	H 	0.1703	0.2071	0.2884	0.028
Mof_H 	H 	0.0634	0.3053	0.24	0.051
Mof_C 	C 	0.2063	0.1719	0.40416	-0.11
Mof_C 	C 	0.3549	0.2549	0.37784	-0.01
Mof_C 	C 	0.4088	0.1967	0.41135	-0.022
Mof_H 	H 	0.4801	0.2039	0.4123	0.013
Mof_C 	C 	0.2653	0.1181	0.43701	0.067
Mof_H 	H 	0.2339	0.0692	0.4571	-0.011
Mof_H 	H 	0.3898	0.3007	0.3573	0.026
Mof_H 	H 	0.136	0.1593	0.4016	0.063
Mof_C 	C 	0.2266	0.6533	0.79857	-0.025
Mof_C 	C 	0.1673	0.5905	0.76908	-0.066
Mof_C 	C 	0.0897	0.6681	0.85506	-0.031
Mof_C 	C 	0.0311	0.6078	0.82547	-0.052
Mof_H 	H 	0.9637	0.5932	0.8349	0.033
Mof_H 	H 	0.0623	0.6945	0.8843	0.037
Mof_H 	H 	0.2929	0.6703	0.7884	0.03
Mof_H 	H 	0.1947	0.5634	0.74	0.048
Mof_C 	C 	0.3281	0.7063	0.90416	-0.106
Mof_C 	C 	0.2451	0.8549	0.87784	-0.012
Mof_C 	C 	0.3033	0.9088	0.91135	-0.026
Mof_H 	H 	0.2961	0.9801	0.9123	0.015
Mof_C 	C 	0.3819	0.7653	0.93701	0.071
Mof_H 	H 	0.4308	0.7339	0.9571	-0.005
Mof_H 	H 	0.1993	0.8898	0.8573	0.027
Mof_H 	H 	0.3407	0.636	0.9016	0.063
Mof_C 	C 	0.7734	0.3467	0.79857	-0.018
Mof_C 	C 	0.8327	0.4095	0.76908	-0.073
Mof_C 	C 	0.9103	0.3319	0.85506	-0.018
Mof_C 	C 	0.9689	0.3922	0.82547	-0.074
Mof_H 	H 	0.0363	0.4068	0.8349	0.044
Mof_H 	H 	0.9377	0.3055	0.8843	0.029
Mof_H 	H 	0.7071	0.3297	0.7884	0.027
Mof_H 	H 	0.8053	0.4366	0.74	0.05
Mof_C 	C 	0.6719	0.2937	0.90416	-0.106
Mof_C 	C 	0.7549	0.1451	0.87784	-0.013
Mof_C 	C 	0.6967	0.0912	0.91135	-0.026
Mof_H 	H 	0.7039	0.0199	0.9123	0.019
Mof_C 	C 	0.6181	0.2347	0.93701	0.071
Mof_H 	H 	0.5692	0.2661	0.9571	-0.005
Mof_H 	H 	0.8007	0.1102	0.8573	0.028
Mof_H 	H 	0.6593	0.364	0.9016	0.063
Mof_C 	C 	0.8467	0.2734	0.79857	-0.025
Mof_C 	C 	0.9095	0.3327	0.76908	-0.066
Mof_C 	C 	0.8319	0.4103	0.85506	-0.028
Mof_C 	C 	0.8922	0.4689	0.82547	-0.059
Mof_H 	H 	0.9068	0.5363	0.8349	0.038
Mof_H 	H 	0.8055	0.4377	0.8843	0.034
Mof_H 	H 	0.8297	0.2071	0.7884	0.03
Mof_H 	H 	0.9366	0.3053	0.74	0.047
Mof_C 	C 	0.7937	0.1719	0.90416	-0.105
Mof_C 	C 	0.6451	0.2549	0.87784	-0.013
Mof_C 	C 	0.5912	0.1967	0.91135	-0.026
Mof_H 	H 	0.5199	0.2039	0.9123	0.017
Mof_C 	C 	0.7347	0.1181	0.93701	0.07
Mof_H 	H 	0.7661	0.0692	0.9571	-0.005
Mof_H 	H 	0.6102	0.3007	0.8573	0.027
Mof_H 	H 	0.864	0.1593	0.9016	0.062
Mof_C 	C 	0.1533	0.7266	0.79857	-0.018
Mof_C 	C 	0.0905	0.6673	0.76908	-0.072
Mof_C 	C 	0.1681	0.5897	0.85506	-0.021
Mof_C 	C 	0.1078	0.5311	0.82547	-0.067
Mof_H 	H 	0.0932	0.4637	0.8349	0.04
Mof_H 	H 	0.1945	0.5623	0.8843	0.032
Mof_H 	H 	0.1703	0.7929	0.7884	0.028
Mof_H 	H 	0.0634	0.6947	0.74	0.051
Mof_C 	C 	0.2063	0.8281	0.90416	-0.107
Mof_C 	C 	0.3549	0.7451	0.87784	-0.013
Mof_C 	C 	0.4088	0.8033	0.91135	-0.026
Mof_H 	H 	0.4801	0.7961	0.9123	0.017
Mof_C 	C 	0.2653	0.8819	0.93701	0.071
Mof_H 	H 	0.2339	0.9308	0.9571	-0.006
Mof_H 	H 	0.3898	0.6993	0.8573	0.027
Mof_H 	H 	0.136	0.8407	0.9016	0.063
Mof_C 	C 	0.2266	0.3467	0.29857	-0.025
Mof_C 	C 	0.1673	0.4095	0.26908	-0.066
Mof_C 	C 	0.0897	0.3319	0.35506	-0.032
Mof_C 	C 	0.0311	0.3922	0.32547	-0.052
Mof_H 	H 	0.9637	0.4068	0.3349	0.033
Mof_H 	H 	0.0623	0.3055	0.3843	0.035
Mof_H 	H 	0.2929	0.3297	0.2884	0.03
Mof_H 	H 	0.1947	0.4366	0.24	0.048
Mof_C 	C 	0.3281	0.2937	0.40416	-0.111
Mof_C 	C 	0.2451	0.1451	0.37784	-0.011
Mof_C 	C 	0.3033	0.0912	0.41135	-0.022
Mof_H 	H 	0.2961	0.0199	0.4123	0.015
Mof_C 	C 	0.3819	0.2347	0.43701	0.067
Mof_H 	H 	0.4308	0.2661	0.4571	-0.012
Mof_H 	H 	0.1993	0.1102	0.3573	0.028
Mof_H 	H 	0.3407	0.364	0.4016	0.062
Mof_C 	C 	0.7734	0.6533	0.29857	-0.017
Mof_C 	C 	0.8327	0.5905	0.26908	-0.073
Mof_C 	C 	0.9103	0.6681	0.35506	-0.018
Mof_C 	C 	0.9689	0.6078	0.32547	-0.075
Mof_H 	H 	0.0363	0.5932	0.3349	0.044
Mof_H 	H 	0.9377	0.6945	0.3843	0.027
Mof_H 	H 	0.7071	0.6703	0.2884	0.027
Mof_H 	H 	0.8053	0.5634	0.24	0.05
Mof_C 	C 	0.6719	0.7063	0.40416	-0.111
Mof_C 	C 	0.7549	0.8549	0.37784	-0.009
Mof_C 	C 	0.6967	0.9088	0.41135	-0.023
Mof_H 	H 	0.7039	0.9801	0.4123	0.011
Mof_C 	C 	0.6181	0.7653	0.43701	0.068
Mof_H 	H 	0.5692	0.7339	0.4571	-0.013
Mof_H 	H 	0.8007	0.8898	0.3573	0.025
Mof_H 	H 	0.6593	0.636	0.4016	0.062
Mof_C 	C 	0.1533	0.2734	0.70143	-0.018
Mof_C 	C 	0.0905	0.3327	0.73092	-0.072
Mof_C 	C 	0.1681	0.4103	0.64494	-0.021
Mof_C 	C 	0.1078	0.4689	0.67453	-0.068
Mof_H 	H 	0.0932	0.5363	0.6651	0.039
Mof_H 	H 	0.1945	0.4377	0.6157	0.03
Mof_H 	H 	0.1703	0.2071	0.7116	0.028
Mof_H 	H 	0.0634	0.3053	0.76	0.051
Mof_C 	C 	0.2063	0.1719	0.59584	-0.11
Mof_C 	C 	0.3549	0.2549	0.62216	-0.01
Mof_C 	C 	0.4088	0.1967	0.58865	-0.022
Mof_H 	H 	0.4801	0.2039	0.5877	0.013
Mof_C 	C 	0.2653	0.1181	0.56299	0.067
Mof_H 	H 	0.2339	0.0692	0.5429	-0.011
Mof_H 	H 	0.3898	0.3007	0.6427	0.026
Mof_H 	H 	0.136	0.1593	0.5984	0.063
Mof_C 	C 	0.8467	0.7266	0.70143	-0.024
Mof_C 	C 	0.9095	0.6673	0.73092	-0.067
Mof_C 	C 	0.8319	0.5897	0.64494	-0.028
Mof_C 	C 	0.8922	0.5311	0.67453	-0.059
Mof_H 	H 	0.9068	0.4637	0.6651	0.038
Mof_H 	H 	0.8055	0.5623	0.6157	0.032
Mof_H 	H 	0.8297	0.7929	0.7116	0.029
Mof_H 	H 	0.9366	0.6947	0.76	0.047
Mof_C 	C 	0.7937	0.8281	0.59584	-0.112
Mof_C 	C 	0.6451	0.7451	0.62216	-0.01
Mof_C 	C 	0.5912	0.8033	0.58865	-0.023
Mof_H 	H 	0.5199	0.7961	0.5877	0.013
Mof_C 	C 	0.7347	0.8819	0.56299	0.068
Mof_H 	H 	0.7661	0.9308	0.5429	-0.014
Mof_H 	H 	0.6102	0.6993	0.6427	0.026
Mof_H 	H 	0.864	0.8407	0.5984	0.061
Mof_C 	C 	0.7734	0.3467	0.20143	-0.017
Mof_C 	C 	0.8327	0.4095	0.23092	-0.073
Mof_C 	C 	0.9103	0.3319	0.14494	-0.018
Mof_C 	C 	0.9689	0.3922	0.17453	-0.074
Mof_H 	H 	0.0363	0.4068	0.1651	0.044
Mof_H 	H 	0.9377	0.3055	0.1157	0.027
Mof_H 	H 	0.7071	0.3297	0.2116	0.027
Mof_H 	H 	0.8053	0.4366	0.26	0.05
Mof_C 	C 	0.6719	0.2937	0.09584	-0.114
Mof_C 	C 	0.7549	0.1451	0.12216	-0.008
Mof_C 	C 	0.6967	0.0912	0.08865	-0.023
Mof_H 	H 	0.7039	0.0199	0.0877	0.015
Mof_C 	C 	0.6181	0.2347	0.06299	0.067
Mof_H 	H 	0.5692	0.2661	0.0429	-0.017
Mof_H 	H 	0.8007	0.1102	0.1427	0.026
Mof_H 	H 	0.6593	0.364	0.0984	0.062
Mof_C 	C 	0.2266	0.6533	0.20143	-0.025
Mof_C 	C 	0.1673	0.5905	0.23092	-0.066
Mof_C 	C 	0.0897	0.6681	0.14494	-0.032
Mof_C 	C 	0.0311	0.6078	0.17453	-0.052
Mof_H 	H 	0.9637	0.5932	0.1651	0.033
Mof_H 	H 	0.0623	0.6945	0.1157	0.035
Mof_H 	H 	0.2929	0.6703	0.2116	0.03
Mof_H 	H 	0.1947	0.5634	0.26	0.048
Mof_C 	C 	0.3281	0.7063	0.09584	-0.114
Mof_C 	C 	0.2451	0.8549	0.12216	-0.007
Mof_C 	C 	0.3033	0.9088	0.08865	-0.023
Mof_H 	H 	0.2961	0.9801	0.0877	0.011
Mof_C 	C 	0.3819	0.7653	0.06299	0.067
Mof_H 	H 	0.4308	0.7339	0.0429	-0.017
Mof_H 	H 	0.1993	0.8898	0.1427	0.025
Mof_H 	H 	0.3407	0.636	0.0984	0.062
Mof_C 	C 	-3.26309e-33	0.5	0.25	-0.113
Mof_C 	C 	-1.50012e-32	0.5	0.75	-0.113
Mof_C 	C 	0.06778	0.56778	0.21761	0.087
Mof_C 	C 	0.2537	0.7537	0.12558	0.05
Mof_C 	C 	0.19079	0.69079	0.15814	-0.009
Mof_N 	N 	0.36674	0.86674	0.05872	-0.231
Mof_C 	C 	0.93222	0.43222	0.21761	0.088
Mof_C 	C 	0.7463	0.2463	0.12558	0.051
Mof_C 	C 	0.80921	0.30921	0.15814	-0.012
Mof_N 	N 	0.63326	0.13326	0.05872	-0.23
Mof_C 	C 	0.06778	0.43222	0.71761	0.087
Mof_C 	C 	0.2537	0.2463	0.62558	0.05
Mof_C 	C 	0.19079	0.30921	0.65814	-0.009
Mof_N 	N 	0.36674	0.13326	0.55872	-0.229
Mof_C 	C 	0.93222	0.56778	0.28239	0.089
Mof_C 	C 	0.7463	0.7537	0.37442	0.051
Mof_C 	C 	0.80921	0.69079	0.34186	-0.012
Mof_N 	N 	0.63326	0.86674	0.44128	-0.229
Mof_C 	C 	0.06778	0.43222	0.28239	0.087
Mof_C 	C 	0.2537	0.2463	0.37442	0.05
Mof_C 	C 	0.19079	0.30921	0.34186	-0.009
Mof_N 	N 	0.36674	0.13326	0.44128	-0.229
Mof_C 	C 	0.93222	0.43222	0.78239	0.088
Mof_C 	C 	0.7463	0.2463	0.87442	0.052
Mof_C 	C 	0.80921	0.30921	0.84186	-0.011
Mof_N 	N 	0.63326	0.13326	0.94128	-0.222
Mof_C 	C 	0.06778	0.56778	0.78239	0.087
Mof_C 	C 	0.2537	0.7537	0.87442	0.051
Mof_C 	C 	0.19079	0.69079	0.84186	-0.009
Mof_N 	N 	0.36674	0.86674	0.94128	-0.222
Mof_C 	C 	0.93222	0.56778	0.71761	0.089
Mof_C 	C 	0.7463	0.7537	0.62558	0.051
Mof_C 	C 	0.80921	0.69079	0.65814	-0.012
Mof_N 	N 	0.63326	0.86674	0.55872	-0.229
Mof_Cu	Cu	0.43382	0.93382	-0	0.785
Mof_Cu	Cu	0.56618	0.06618	-0	0.786
Mof_Cu	Cu	0.43382	0.06618	0.5	0.792
Mof_Cu	Cu	0.56618	0.93382	0.5	0.79
Mof_I 	I 	0.37581	0.12419	-0	-0.477
Mof_I 	I 	0.62419	0.87581	-0	-0.482
Mof_I 	I 	0.62419	0.12419	0.5	-0.455
Mof_I 	I 	0.37581	0.87581	0.5	-0.459
Mof_C 	C 	0.6533	0.2266	0.70143	-0.025
Mof_C 	C 	0.5905	0.1673	0.73092	-0.066
Mof_C 	C 	0.6681	0.0897	0.64494	-0.032
Mof_C 	C 	0.6078	0.0311	0.67453	-0.052
Mof_H 	H 	0.5932	0.9637	0.6651	0.033
Mof_H 	H 	0.6945	0.0623	0.6157	0.035
Mof_H 	H 	0.6703	0.2929	0.7116	0.03
Mof_H 	H 	0.5634	0.1947	0.76	0.048
Mof_C 	C 	0.7063	0.3281	0.59584	-0.111
Mof_C 	C 	0.8549	0.2451	0.62216	-0.009
Mof_C 	C 	0.9088	0.3033	0.58865	-0.023
Mof_H 	H 	0.9801	0.2961	0.5877	0.011
Mof_C 	C 	0.7653	0.3819	0.56299	0.068
Mof_H 	H 	0.7339	0.4308	0.5429	-0.013
Mof_H 	H 	0.8898	0.1993	0.6427	0.026
Mof_H 	H 	0.636	0.3407	0.5984	0.062
Mof_C 	C 	0.3467	0.7734	0.70143	-0.017
Mof_C 	C 	0.4095	0.8327	0.73092	-0.073
Mof_C 	C 	0.3319	0.9103	0.64494	-0.018
Mof_C 	C 	0.3922	0.9689	0.67453	-0.075
Mof_H 	H 	0.4068	0.0363	0.6651	0.044
Mof_H 	H 	0.3055	0.9377	0.6157	0.027
Mof_H 	H 	0.3297	0.7071	0.7116	0.027
Mof_H 	H 	0.4366	0.8053	0.76	0.05
Mof_C 	C 	0.2937	0.6719	0.59584	-0.111
Mof_C 	C 	0.1451	0.7549	0.62216	-0.01
Mof_C 	C 	0.0912	0.6967	0.58865	-0.023
Mof_H 	H 	0.0199	0.7039	0.5877	0.015
Mof_C 	C 	0.2347	0.6181	0.56299	0.067
Mof_H 	H 	0.2661	0.5692	0.5429	-0.012
Mof_H 	H 	0.1102	0.8007	0.6427	0.027
Mof_H 	H 	0.364	0.6593	0.5984	0.062
Mof_C 	C 	0.2734	0.1533	0.20143	-0.018
Mof_C 	C 	0.3327	0.0905	0.23092	-0.072
Mof_C 	C 	0.4103	0.1681	0.14494	-0.021
Mof_C 	C 	0.4689	0.1078	0.17453	-0.068
Mof_H 	H 	0.5363	0.0932	0.1651	0.039
Mof_H 	H 	0.4377	0.1945	0.1157	0.03
Mof_H 	H 	0.2071	0.1703	0.2116	0.028
Mof_H 	H 	0.3053	0.0634	0.26	0.051
Mof_C 	C 	0.1719	0.2063	0.09584	-0.113
Mof_C 	C 	0.2549	0.3549	0.12216	-0.007
Mof_C 	C 	0.1967	0.4088	0.08865	-0.022
Mof_H 	H 	0.2039	0.4801	0.0877	0.013
Mof_C 	C 	0.1181	0.2653	0.06299	0.066
Mof_H 	H 	0.0692	0.2339	0.0429	-0.015
Mof_H 	H 	0.3007	0.3898	0.1427	0.025
Mof_H 	H 	0.1593	0.136	0.0984	0.063
Mof_C 	C 	0.7266	0.8467	0.20143	-0.024
Mof_C 	C 	0.6673	0.9095	0.23092	-0.067
Mof_C 	C 	0.5897	0.8319	0.14494	-0.028
Mof_C 	C 	0.5311	0.8922	0.17453	-0.059
Mof_H 	H 	0.4637	0.9068	0.1651	0.038
Mof_H 	H 	0.5623	0.8055	0.1157	0.032
Mof_H 	H 	0.7929	0.8297	0.2116	0.029
Mof_H 	H 	0.6947	0.9366	0.26	0.047
Mof_C 	C 	0.8281	0.7937	0.09584	-0.115
Mof_C 	C 	0.7451	0.6451	0.12216	-0.007
Mof_C 	C 	0.8033	0.5912	0.08865	-0.023
Mof_H 	H 	0.7961	0.5199	0.0877	0.013
Mof_C 	C 	0.8819	0.7347	0.06299	0.068
Mof_H 	H 	0.9308	0.7661	0.0429	-0.018
Mof_H 	H 	0.6993	0.6102	0.1427	0.025
Mof_H 	H 	0.8407	0.864	0.0984	0.062
Mof_C 	C 	0.3467	0.2266	0.79857	-0.025
Mof_C 	C 	0.4095	0.1673	0.76908	-0.066
Mof_C 	C 	0.3319	0.0897	0.85506	-0.031
Mof_C 	C 	0.3922	0.0311	0.82547	-0.052
Mof_H 	H 	0.4068	0.9637	0.8349	0.033
Mof_H 	H 	0.3055	0.0623	0.8843	0.037
Mof_H 	H 	0.3297	0.2929	0.7884	0.03
Mof_H 	H 	0.4366	0.1947	0.74	0.048
Mof_C 	C 	0.2937	0.3281	0.90416	-0.105
Mof_C 	C 	0.1451	0.2451	0.87784	-0.013
Mof_C 	C 	0.0912	0.3033	0.91135	-0.026
Mof_H 	H 	0.0199	0.2961	0.9123	0.019
Mof_C 	C 	0.2347	0.3819	0.93701	0.07
Mof_H 	H 	0.2661	0.4308	0.9571	-0.005
Mof_H 	H 	0.1102	0.1993	0.8573	0.028
Mof_H 	H 	0.364	0.3407	0.9016	0.062
Mof_C 	C 	0.6533	0.7734	0.79857	-0.018
Mof_C 	C 	0.5905	0.8327	0.76908	-0.073
Mof_C 	C 	0.6681	0.9103	0.85506	-0.018
Mof_C 	C 	0.6078	0.9689	0.82547	-0.074
Mof_H 	H 	0.5932	0.0363	0.8349	0.044
Mof_H 	H 	0.6945	0.9377	0.8843	0.029
Mof_H 	H 	0.6703	0.7071	0.7884	0.027
Mof_H 	H 	0.5634	0.8053	0.74	0.05
Mof_C 	C 	0.7063	0.6719	0.90416	-0.106
Mof_C 	C 	0.8549	0.7549	0.87784	-0.012
Mof_C 	C 	0.9088	0.6967	0.91135	-0.026
Mof_H 	H 	0.9801	0.7039	0.9123	0.015
Mof_C 	C 	0.7653	0.6181	0.93701	0.071
Mof_H 	H 	0.7339	0.5692	0.9571	-0.005
Mof_H 	H 	0.8898	0.8007	0.8573	0.026
Mof_H 	H 	0.636	0.6593	0.9016	0.063
Mof_C 	C 	0.7266	0.1533	0.29857	-0.018
Mof_C 	C 	0.6673	0.0905	0.26908	-0.073
Mof_C 	C 	0.5897	0.1681	0.35506	-0.021
Mof_C 	C 	0.5311	0.1078	0.32547	-0.068
Mof_H 	H 	0.4637	0.0932	0.3349	0.039
Mof_H 	H 	0.5623	0.1945	0.3843	0.03
Mof_H 	H 	0.7929	0.1703	0.2884	0.027
Mof_H 	H 	0.6947	0.0634	0.24	0.051
Mof_C 	C 	0.8281	0.2063	0.40416	-0.112
Mof_C 	C 	0.7451	0.3549	0.37784	-0.01
Mof_C 	C 	0.8033	0.4088	0.41135	-0.023
Mof_H 	H 	0.7961	0.4801	0.4123	0.013
Mof_C 	C 	0.8819	0.2653	0.43701	0.068
Mof_H 	H 	0.9308	0.2339	0.4571	-0.013
Mof_H 	H 	0.6993	0.3898	0.3573	0.026
Mof_H 	H 	0.8407	0.136	0.4016	0.063
Mof_C 	C 	0.2734	0.8467	0.29857	-0.024
Mof_C 	C 	0.3327	0.9095	0.26908	-0.067
Mof_C 	C 	0.4103	0.8319	0.35506	-0.028
Mof_C 	C 	0.4689	0.8922	0.32547	-0.059
Mof_H 	H 	0.5363	0.9068	0.3349	0.038
Mof_H 	H 	0.4377	0.8055	0.3843	0.032
Mof_H 	H 	0.2071	0.8297	0.2884	0.03
Mof_H 	H 	0.3053	0.9366	0.24	0.047
Mof_C 	C 	0.1719	0.7937	0.40416	-0.11
Mof_C 	C 	0.2549	0.6451	0.37784	-0.01
Mof_C 	C 	0.1967	0.5912	0.41135	-0.023
Mof_H 	H 	0.2039	0.5199	0.4123	0.013
Mof_C 	C 	0.1181	0.7347	0.43701	0.067
Mof_H 	H 	0.0692	0.7661	0.4571	-0.012
Mof_H 	H 	0.3007	0.6102	0.3573	0.027
Mof_H 	H 	0.1593	0.864	0.4016	0.062
Mof_C 	C 	0.3467	0.7734	0.29857	-0.017
Mof_C 	C 	0.4095	0.8327	0.26908	-0.073
Mof_C 	C 	0.3319	0.9103	0.35506	-0.018
Mof_C 	C 	0.3922	0.9689	0.32547	-0.075
Mof_H 	H 	0.4068	0.0363	0.3349	0.044
Mof_H 	H 	0.3055	0.9377	0.3843	0.027
Mof_H 	H 	0.3297	0.7071	0.2884	0.027
Mof_H 	H 	0.4366	0.8053	0.24	0.05
Mof_C 	C 	0.2937	0.6719	0.40416	-0.111
Mof_C 	C 	0.1451	0.7549	0.37784	-0.01
Mof_C 	C 	0.0912	0.6967	0.41135	-0.023
Mof_H 	H 	0.0199	0.7039	0.4123	0.015
Mof_C 	C 	0.2347	0.6181	0.43701	0.067
Mof_H 	H 	0.2661	0.5692	0.4571	-0.012
Mof_H 	H 	0.1102	0.8007	0.3573	0.027
Mof_H 	H 	0.364	0.6593	0.4016	0.062
Mof_C 	C 	0.6533	0.2266	0.29857	-0.025
Mof_C 	C 	0.5905	0.1673	0.26908	-0.066
Mof_C 	C 	0.6681	0.0897	0.35506	-0.032
Mof_C 	C 	0.6078	0.0311	0.32547	-0.052
Mof_H 	H 	0.5932	0.9637	0.3349	0.033
Mof_H 	H 	0.6945	0.0623	0.3843	0.035
Mof_H 	H 	0.6703	0.2929	0.2884	0.03
Mof_H 	H 	0.5634	0.1947	0.24	0.048
Mof_C 	C 	0.7063	0.3281	0.40416	-0.111
Mof_C 	C 	0.8549	0.2451	0.37784	-0.009
Mof_C 	C 	0.9088	0.3033	0.41135	-0.023
Mof_H 	H 	0.9801	0.2961	0.4123	0.011
Mof_C 	C 	0.7653	0.3819	0.43701	0.068
Mof_H 	H 	0.7339	0.4308	0.4571	-0.013
Mof_H 	H 	0.8898	0.1993	0.3573	0.026
Mof_H 	H 	0.636	0.3407	0.4016	0.062
Mof_C 	C 	0.7266	0.8467	0.79857	-0.024
Mof_C 	C 	0.6673	0.9095	0.76908	-0.067
Mof_C 	C 	0.5897	0.8319	0.85506	-0.028
Mof_C 	C 	0.5311	0.8922	0.82547	-0.059
Mof_H 	H 	0.4637	0.9068	0.8349	0.038
Mof_H 	H 	0.5623	0.8055	0.8843	0.034
Mof_H 	H 	0.7929	0.8297	0.7884	0.029
Mof_H 	H 	0.6947	0.9366	0.74	0.047
Mof_C 	C 	0.8281	0.7937	0.90416	-0.107
Mof_C 	C 	0.7451	0.6451	0.87784	-0.013
Mof_C 	C 	0.8033	0.5912	0.91135	-0.026
Mof_H 	H 	0.7961	0.5199	0.9123	0.017
Mof_C 	C 	0.8819	0.7347	0.93701	0.072
Mof_H 	H 	0.9308	0.7661	0.9571	-0.007
Mof_H 	H 	0.6993	0.6102	0.8573	0.027
Mof_H 	H 	0.8407	0.864	0.9016	0.062
Mof_C 	C 	0.2734	0.1533	0.79857	-0.018
Mof_C 	C 	0.3327	0.0905	0.76908	-0.072
Mof_C 	C 	0.4103	0.1681	0.85506	-0.021
Mof_C 	C 	0.4689	0.1078	0.82547	-0.067
Mof_H 	H 	0.5363	0.0932	0.8349	0.04
Mof_H 	H 	0.4377	0.1945	0.8843	0.032
Mof_H 	H 	0.2071	0.1703	0.7884	0.028
Mof_H 	H 	0.3053	0.0634	0.74	0.051
Mof_C 	C 	0.1719	0.2063	0.90416	-0.105
Mof_C 	C 	0.2549	0.3549	0.87784	-0.013
Mof_C 	C 	0.1967	0.4088	0.91135	-0.026
Mof_H 	H 	0.2039	0.4801	0.9123	0.017
Mof_C 	C 	0.1181	0.2653	0.93701	0.07
Mof_H 	H 	0.0692	0.2339	0.9571	-0.004
Mof_H 	H 	0.3007	0.3898	0.8573	0.027
Mof_H 	H 	0.1593	0.136	0.9016	0.063
Mof_C 	C 	0.6533	0.7734	0.20143	-0.017
Mof_C 	C 	0.5905	0.8327	0.23092	-0.073
Mof_C 	C 	0.6681	0.9103	0.14494	-0.018
Mof_C 	C 	0.6078	0.9689	0.17453	-0.074
Mof_H 	H 	0.5932	0.0363	0.1651	0.044
Mof_H 	H 	0.6945	0.9377	0.1157	0.027
Mof_H 	H 	0.6703	0.7071	0.2116	0.027
Mof_H 	H 	0.5634	0.8053	0.26	0.05
Mof_C 	C 	0.7063	0.6719	0.09584	-0.115
Mof_C 	C 	0.8549	0.7549	0.12216	-0.007
Mof_C 	C 	0.9088	0.6967	0.08865	-0.023
Mof_H 	H 	0.9801	0.7039	0.0877	0.011
Mof_C 	C 	0.7653	0.6181	0.06299	0.067
Mof_H 	H 	0.7339	0.5692	0.0429	-0.017
Mof_H 	H 	0.8898	0.8007	0.1427	0.024
Mof_H 	H 	0.636	0.6593	0.0984	0.062
Mof_C 	C 	0.3467	0.2266	0.20143	-0.025
Mof_C 	C 	0.4095	0.1673	0.23092	-0.066
Mof_C 	C 	0.3319	0.0897	0.14494	-0.032
Mof_C 	C 	0.3922	0.0311	0.17453	-0.052
Mof_H 	H 	0.4068	0.9637	0.1651	0.033
Mof_H 	H 	0.3055	0.0623	0.1157	0.035
Mof_H 	H 	0.3297	0.2929	0.2116	0.03
Mof_H 	H 	0.4366	0.1947	0.26	0.048
Mof_C 	C 	0.2937	0.3281	0.09584	-0.114
Mof_C 	C 	0.1451	0.2451	0.12216	-0.008
Mof_C 	C 	0.0912	0.3033	0.08865	-0.022
Mof_H 	H 	0.0199	0.2961	0.0877	0.015
Mof_C 	C 	0.2347	0.3819	0.06299	0.067
Mof_H 	H 	0.2661	0.4308	0.0429	-0.017
Mof_H 	H 	0.1102	0.1993	0.1427	0.027
Mof_H 	H 	0.364	0.3407	0.0984	0.062
Mof_C 	C 	0.2734	0.8467	0.70143	-0.024
Mof_C 	C 	0.3327	0.9095	0.73092	-0.067
Mof_C 	C 	0.4103	0.8319	0.64494	-0.029
Mof_C 	C 	0.4689	0.8922	0.67453	-0.059
Mof_H 	H 	0.5363	0.9068	0.6651	0.038
Mof_H 	H 	0.4377	0.8055	0.6157	0.032
Mof_H 	H 	0.2071	0.8297	0.7116	0.029
Mof_H 	H 	0.3053	0.9366	0.76	0.047
Mof_C 	C 	0.1719	0.7937	0.59584	-0.11
Mof_C 	C 	0.2549	0.6451	0.62216	-0.01
Mof_C 	C 	0.1967	0.5912	0.58865	-0.023
Mof_H 	H 	0.2039	0.5199	0.5877	0.013
Mof_C 	C 	0.1181	0.7347	0.56299	0.067
Mof_H 	H 	0.0692	0.7661	0.5429	-0.012
Mof_H 	H 	0.3007	0.6102	0.6427	0.026
Mof_H 	H 	0.1593	0.864	0.5984	0.061
Mof_C 	C 	0.7266	0.1533	0.70143	-0.018
Mof_C 	C 	0.6673	0.0905	0.73092	-0.073
Mof_C 	C 	0.5897	0.1681	0.64494	-0.021
Mof_C 	C 	0.5311	0.1078	0.67453	-0.068
Mof_H 	H 	0.4637	0.0932	0.6651	0.039
Mof_H 	H 	0.5623	0.1945	0.6157	0.03
Mof_H 	H 	0.7929	0.1703	0.7116	0.027
Mof_H 	H 	0.6947	0.0634	0.76	0.051
Mof_C 	C 	0.8281	0.2063	0.59584	-0.112
Mof_C 	C 	0.7451	0.3549	0.62216	-0.01
Mof_C 	C 	0.8033	0.4088	0.58865	-0.023
Mof_H 	H 	0.7961	0.4801	0.5877	0.013
Mof_C 	C 	0.8819	0.2653	0.56299	0.068
Mof_H 	H 	0.9308	0.2339	0.5429	-0.013
Mof_H 	H 	0.6993	0.3898	0.6427	0.026
Mof_H 	H 	0.8407	0.136	0.5984	0.063
Mof_C 	C 	0.5	0	0.25	-0.113
Mof_C 	C 	0.5	0	0.75	-0.113
Mof_C 	C 	0.43222	0.06778	0.21761	0.087
Mof_C 	C 	0.2463	0.2537	0.12558	0.05
Mof_C 	C 	0.30921	0.19079	0.15814	-0.009
Mof_N 	N 	0.13326	0.36674	0.05872	-0.23
Mof_C 	C 	0.56778	0.93222	0.21761	0.088
Mof_C 	C 	0.7537	0.7463	0.12558	0.051
Mof_C 	C 	0.69079	0.80921	0.15814	-0.012
Mof_N 	N 	0.86674	0.63326	0.05872	-0.231
Mof_C 	C 	0.56778	0.06778	0.28239	0.087
Mof_C 	C 	0.7537	0.2537	0.37442	0.05
Mof_C 	C 	0.69079	0.19079	0.34186	-0.009
Mof_N 	N 	0.86674	0.36674	0.44128	-0.229
Mof_C 	C 	0.43222	0.93222	0.28239	0.088
Mof_C 	C 	0.2463	0.7463	0.37442	0.051
Mof_C 	C 	0.30921	0.80921	0.34186	-0.012
Mof_N 	N 	0.13326	0.63326	0.44128	-0.229
Mof_C 	C 	0.56778	0.93222	0.78239	0.088
Mof_C 	C 	0.7537	0.7463	0.87442	0.052
Mof_C 	C 	0.69079	0.80921	0.84186	-0.012
Mof_N 	N 	0.86674	0.63326	0.94128	-0.222
Mof_C 	C 	0.43222	0.06778	0.78239	0.087
Mof_C 	C 	0.2463	0.2537	0.87442	0.051
Mof_C 	C 	0.30921	0.19079	0.84186	-0.009
Mof_N 	N 	0.13326	0.36674	0.94128	-0.222
Mof_C 	C 	0.43222	0.93222	0.71761	0.088
Mof_C 	C 	0.2463	0.7463	0.62558	0.051
Mof_C 	C 	0.30921	0.80921	0.65814	-0.012
Mof_N 	N 	0.13326	0.63326	0.55872	-0.229
Mof_C 	C 	0.56778	0.06778	0.71761	0.087
Mof_C 	C 	0.7537	0.2537	0.62558	0.05
Mof_C 	C 	0.69079	0.19079	0.65814	-0.009
Mof_N 	N 	0.86674	0.36674	0.55872	-0.229
Mof_Cu	Cu	0.06618	0.43382	-0	0.786
Mof_Cu	Cu	0.93382	0.56618	-0	0.785
Mof_Cu	Cu	0.93382	0.43382	0.5	0.79
Mof_Cu	Cu	0.06618	0.56618	0.5	0.792
Mof_I 	I 	0.12419	0.37581	0.5	-0.455
Mof_I 	I 	0.87581	0.37581	-0	-0.482
Mof_I 	I 	0.12419	0.62419	-0	-0.477
Mof_I 	I 	0.87581	0.62419	0.5	-0.46
_end
