data_functionalizedCrystal
_audit_creation_method	'EQeq! by Chris Wilmer'
_symmetry_space_group_name_H-M	'P1'
_symmetry_Int_Tables_number	1
_symmetry_cell_setting	triclinic
loop_
_symmetry_equiv_pos_as_xyz
  x,y,z
_cell_length_a	18.74
_cell_length_b	18.74
_cell_length_c	9.439
_cell_angle_alpha	90
_cell_angle_beta	90
_cell_angle_gamma	90
loop_
_atom_site_label
_atom_site_type_symbol
_atom_site_fract_x
_atom_site_fract_y
_atom_site_fract_z
_atom_site_charge
Mof_Al	Al	0.0661	0.55131	0.335	8.148
Mof_O 	O 	0.0602	0.6278	0.2396	-2.475
Mof_O 	O 	0.0803	0.5745	0.5058	-2.438
Mof_O 	O 	0.137	0.5002	0.2824	-2.504
Mof_O 	O 	0.9871	0.5051	0.3198	-2.574
Mof_P 	P 	0.0675	0.6661	0.0924	1.873
Mof_Al	Al	0.95474	0.66417	0.8429	6.729
Mof_O 	O 	0.9992	0.6544	0.006	-2.195
Mof_O 	O 	0.0097	0.6306	0.7091	-2.188
Mof_O 	O 	0.8735	0.6214	0.8445	-2.11
Mof_O 	O 	0.9361	0.7524	0.8086	-2.059
Mof_P 	P 	0.1663	0.451	0.1596	1.739
Mof_Al	Al	0.1656	0.566	0.9167	8.024
Mof_O 	O 	0.156	0.4873	0.0114	-2.5
Mof_O 	O 	0.1332	0.6365	0.0096	-2.567
Mof_O 	O 	0.1234	0.5599	0.7569	-2.423
Mof_O 	O 	0.08	0.747	0.1255	-2.355
Mof_P 	P 	0.05544	0.5651	0.6639	1.917
Mof_Al	Al	0.4339	0.94869	0.335	8.178
Mof_O 	O 	0.4398	0.8722	0.2396	-2.478
Mof_O 	O 	0.4197	0.9255	0.5058	-2.445
Mof_O 	O 	0.363	0.9998	0.2824	-2.504
Mof_O 	O 	0.5129	0.9949	0.3198	-2.579
Mof_P 	P 	0.4325	0.8339	0.0924	1.892
Mof_Al	Al	0.54526	0.83583	0.8429	6.78
Mof_O 	O 	0.5008	0.8456	0.006	-2.226
Mof_O 	O 	0.4903	0.8694	0.7091	-2.201
Mof_O 	O 	0.6265	0.8786	0.8445	-2.119
Mof_O 	O 	0.5639	0.7476	0.8086	-2.073
Mof_P 	P 	0.3337	0.049	0.1596	1.729
Mof_Al	Al	0.3344	0.934	0.9167	7.874
Mof_O 	O 	0.344	0.0127	0.0114	-2.468
Mof_O 	O 	0.3668	0.8635	0.0096	-2.525
Mof_O 	O 	0.3766	0.9401	0.7569	-2.396
Mof_O 	O 	0.42	0.753	0.1255	-2.373
Mof_P 	P 	0.44456	0.9349	0.6639	1.909
Mof_Al	Al	0.94869	0.0661	0.335	8.03
Mof_O 	O 	0.8722	0.0602	0.2396	-2.447
Mof_O 	O 	0.9255	0.0803	0.5058	-2.41
Mof_O 	O 	0.9998	0.137	0.2824	-2.478
Mof_O 	O 	0.9949	0.9871	0.3198	-2.516
Mof_P 	P 	0.8339	0.0675	0.0924	1.853
Mof_Al	Al	0.83583	0.95474	0.8429	6.718
Mof_O 	O 	0.8456	0.9992	0.006	-2.175
Mof_O 	O 	0.8694	0.0097	0.7091	-2.184
Mof_O 	O 	0.8786	0.8735	0.8445	-2.103
Mof_O 	O 	0.7476	0.9361	0.8086	-2.056
Mof_P 	P 	0.049	0.1663	0.1596	1.727
Mof_Al	Al	0.934	0.1656	0.9167	7.887
Mof_O 	O 	0.0127	0.156	0.0114	-2.467
Mof_O 	O 	0.8635	0.1332	0.0096	-2.527
Mof_O 	O 	0.9401	0.1234	0.7569	-2.394
Mof_O 	O 	0.753	0.08	0.1255	-2.351
Mof_P 	P 	0.9349	0.05544	0.6639	1.878
Mof_Al	Al	0.55131	0.4339	0.335	8.194
Mof_O 	O 	0.6278	0.4398	0.2396	-2.486
Mof_O 	O 	0.5745	0.4197	0.5058	-2.45
Mof_O 	O 	0.5002	0.363	0.2824	-2.515
Mof_O 	O 	0.5051	0.5129	0.3198	-2.593
Mof_P 	P 	0.6661	0.4325	0.0924	1.902
Mof_Al	Al	0.66417	0.54526	0.8429	6.816
Mof_O 	O 	0.6544	0.5008	0.006	-2.243
Mof_O 	O 	0.6306	0.4903	0.7091	-2.21
Mof_O 	O 	0.6214	0.6265	0.8445	-2.127
Mof_O 	O 	0.7524	0.5639	0.8086	-2.08
Mof_P 	P 	0.451	0.3337	0.1596	1.741
Mof_Al	Al	0.566	0.3344	0.9167	7.973
Mof_O 	O 	0.4873	0.344	0.0114	-2.486
Mof_O 	O 	0.6365	0.3668	0.0096	-2.557
Mof_O 	O 	0.5599	0.3766	0.7569	-2.416
Mof_O 	O 	0.747	0.42	0.1255	-2.385
Mof_P 	P 	0.5651	0.44456	0.6639	1.923
Mof_Al	Al	0.9339	0.44869	0.665	8.147
Mof_O 	O 	0.9398	0.3722	0.7604	-2.476
Mof_O 	O 	0.9197	0.4255	0.4942	-2.439
Mof_O 	O 	0.863	0.4998	0.7176	-2.505
Mof_O 	O 	0.0129	0.4949	0.6802	-2.575
Mof_P 	P 	0.9325	0.3339	0.9076	1.872
Mof_Al	Al	0.04526	0.33583	0.1571	6.729
Mof_O 	O 	0.0008	0.3456	0.994	-2.195
Mof_O 	O 	0.9903	0.3694	0.2909	-2.188
Mof_O 	O 	0.1265	0.3786	0.1555	-2.11
Mof_O 	O 	0.0639	0.2476	0.1914	-2.059
Mof_P 	P 	0.8337	0.549	0.8404	1.739
Mof_Al	Al	0.8344	0.434	0.0833	8.024
Mof_O 	O 	0.844	0.5127	0.9886	-2.5
Mof_O 	O 	0.8668	0.3635	0.9904	-2.567
Mof_O 	O 	0.8766	0.4401	0.2431	-2.423
Mof_O 	O 	0.92	0.253	0.8745	-2.355
Mof_P 	P 	0.94456	0.4349	0.3361	1.917
Mof_Al	Al	0.5661	0.05131	0.665	8.178
Mof_O 	O 	0.5602	0.1278	0.7604	-2.478
Mof_O 	O 	0.5803	0.0745	0.4942	-2.445
Mof_O 	O 	0.637	0.0002	0.7176	-2.504
Mof_O 	O 	0.4871	0.0051	0.6802	-2.579
Mof_P 	P 	0.5675	0.1661	0.9076	1.892
Mof_Al	Al	0.45474	0.16417	0.1571	6.78
Mof_O 	O 	0.4992	0.1544	0.994	-2.226
Mof_O 	O 	0.5097	0.1306	0.2909	-2.201
Mof_O 	O 	0.3735	0.1214	0.1555	-2.119
Mof_O 	O 	0.4361	0.2524	0.1914	-2.073
Mof_P 	P 	0.6663	0.951	0.8404	1.729
Mof_Al	Al	0.6656	0.066	0.0833	7.874
Mof_O 	O 	0.656	0.9873	0.9886	-2.468
Mof_O 	O 	0.6332	0.1365	0.9904	-2.525
Mof_O 	O 	0.6234	0.0599	0.2431	-2.396
Mof_O 	O 	0.58	0.247	0.8745	-2.373
Mof_P 	P 	0.55544	0.0651	0.3361	1.909
Mof_Al	Al	0.05131	0.9339	0.665	8.03
Mof_O 	O 	0.1278	0.9398	0.7604	-2.447
Mof_O 	O 	0.0745	0.9197	0.4942	-2.41
Mof_O 	O 	0.0002	0.863	0.7176	-2.478
Mof_O 	O 	0.0051	0.0129	0.6802	-2.516
Mof_P 	P 	0.1661	0.9325	0.9076	1.853
Mof_Al	Al	0.16417	0.04526	0.1571	6.718
Mof_O 	O 	0.1544	0.0008	0.994	-2.175
Mof_O 	O 	0.1306	0.9903	0.2909	-2.184
Mof_O 	O 	0.1214	0.1265	0.1555	-2.103
Mof_O 	O 	0.2524	0.0639	0.1914	-2.056
Mof_P 	P 	0.951	0.8337	0.8404	1.727
Mof_Al	Al	0.066	0.8344	0.0833	7.887
Mof_O 	O 	0.9873	0.844	0.9886	-2.467
Mof_O 	O 	0.1365	0.8668	0.9904	-2.527
Mof_O 	O 	0.0599	0.8766	0.2431	-2.394
Mof_O 	O 	0.247	0.92	0.8745	-2.351
Mof_P 	P 	0.0651	0.94456	0.3361	1.878
Mof_Al	Al	0.44869	0.5661	0.665	8.194
Mof_O 	O 	0.3722	0.5602	0.7604	-2.486
Mof_O 	O 	0.4255	0.5803	0.4942	-2.45
Mof_O 	O 	0.4998	0.637	0.7176	-2.515
Mof_O 	O 	0.4949	0.4871	0.6802	-2.593
Mof_P 	P 	0.3339	0.5675	0.9076	1.902
Mof_Al	Al	0.33583	0.45474	0.1571	6.816
Mof_O 	O 	0.3456	0.4992	0.994	-2.243
Mof_O 	O 	0.3694	0.5097	0.2909	-2.21
Mof_O 	O 	0.3786	0.3735	0.1555	-2.127
Mof_O 	O 	0.2476	0.4361	0.1914	-2.08
Mof_P 	P 	0.549	0.6663	0.8404	1.741
Mof_Al	Al	0.434	0.6656	0.0833	7.973
Mof_O 	O 	0.5127	0.656	0.9886	-2.486
Mof_O 	O 	0.3635	0.6332	0.9904	-2.557
Mof_O 	O 	0.4401	0.6234	0.2431	-2.416
Mof_O 	O 	0.253	0.58	0.8745	-2.385
Mof_P 	P 	0.4349	0.55544	0.3361	1.923
_end
