data_functionalizedCrystal
_audit_creation_method	'EQeq! by Chris Wilmer'
_symmetry_space_group_name_H-M	'P1'
_symmetry_Int_Tables_number	1
_symmetry_cell_setting	triclinic
loop_
_symmetry_equiv_pos_as_xyz
  x,y,z
_cell_length_a	7.7022
_cell_length_b	9.9152
_cell_length_c	15.8202
_cell_angle_alpha	90
_cell_angle_beta	110.305
_cell_angle_gamma	90
loop_
_atom_site_label
_atom_site_type_symbol
_atom_site_fract_x
_atom_site_fract_y
_atom_site_fract_z
_atom_site_charge
Mof_Nd	Nd	0.78478	0.04391	0.63998	2.462
Mof_O 	O 	0.0604	0.9486	0.61264	-0.477
Mof_O 	O 	0.2232	0.9391	0.52051	-0.475
Mof_O 	O 	0.981	0.2372	0.64538	-0.604
Mof_O 	O 	0.0323	0.4232	0.72825	-0.649
Mof_O 	O 	0.6573	0.8375	0.57152	-0.656
Mof_O 	O 	0.4584	0.8045	0.4327	-0.665
Mof_N 	N 	0.7182	0.4459	0.4112	-0.208
Mof_C 	C 	0.9637	0.3632	0.6551	0.568
Mof_C 	C 	0.8529	0.441	0.573	-0.316
Mof_C 	C 	0.8174	0.3857	0.4881	0.181
Mof_H 	H 	0.8662	0.301	0.4846	-0.034
Mof_C 	C 	0.6446	0.5673	0.4178	0.184
Mof_H 	H 	0.5709	0.6097	0.3652	-0.061
Mof_C 	C 	0.7824	0.5694	0.5782	0.238
Mof_H 	H 	0.8079	0.6123	0.6335	-0.079
Mof_C 	C 	0.6734	0.6315	0.4988	-0.315
Mof_C 	C 	0.5905	0.7686	0.5016	0.623
Mof_C 	C 	0.0821	0.9682	0.5387	0.274
Mof_Nd	Nd	0.21522	0.54391	0.86002	2.471
Mof_O 	O 	0.9396	0.4486	0.88736	-0.475
Mof_O 	O 	0.7768	0.4391	0.97949	-0.475
Mof_O 	O 	0.019	0.7372	0.85462	-0.6
Mof_O 	O 	0.9677	0.9232	0.77175	-0.634
Mof_O 	O 	0.3427	0.3375	0.92848	-0.657
Mof_O 	O 	0.5416	0.3045	0.0673	-0.661
Mof_N 	N 	0.2818	0.9459	0.0888	-0.209
Mof_C 	C 	0.0363	0.8632	0.8449	0.551
Mof_C 	C 	0.1471	0.941	0.927	-0.297
Mof_C 	C 	0.1826	0.8857	0.0119	0.166
Mof_H 	H 	0.1338	0.801	0.0154	-0.029
Mof_C 	C 	0.3554	0.0673	0.0822	0.186
Mof_H 	H 	0.4291	0.1097	0.1348	-0.061
Mof_C 	C 	0.2176	0.0694	0.9218	0.214
Mof_H 	H 	0.1921	0.1123	0.8665	-0.072
Mof_C 	C 	0.3266	0.1315	0.0012	-0.296
Mof_C 	C 	0.4095	0.2686	0.9984	0.609
Mof_C 	C 	0.9179	0.4682	0.9613	0.276
Mof_Nd	Nd	0.21522	0.95609	0.36002	2.463
Mof_O 	O 	0.9396	0.0514	0.38736	-0.476
Mof_O 	O 	0.7768	0.0609	0.47949	-0.474
Mof_O 	O 	0.019	0.7628	0.35462	-0.603
Mof_O 	O 	0.9677	0.5768	0.27175	-0.649
Mof_O 	O 	0.3427	0.1625	0.42848	-0.656
Mof_O 	O 	0.5416	0.1955	0.5673	-0.665
Mof_N 	N 	0.2818	0.5541	0.5888	-0.208
Mof_C 	C 	0.0363	0.6368	0.3449	0.568
Mof_C 	C 	0.1471	0.559	0.427	-0.316
Mof_C 	C 	0.1826	0.6143	0.5119	0.181
Mof_H 	H 	0.1338	0.699	0.5154	-0.034
Mof_C 	C 	0.3554	0.4327	0.5822	0.184
Mof_H 	H 	0.4291	0.3903	0.6348	-0.061
Mof_C 	C 	0.2176	0.4306	0.4218	0.238
Mof_H 	H 	0.1921	0.3877	0.3665	-0.079
Mof_C 	C 	0.3266	0.3685	0.5012	-0.315
Mof_C 	C 	0.4095	0.2314	0.4984	0.623
Mof_C 	C 	0.9179	0.0318	0.4613	0.274
Mof_Nd	Nd	0.78478	0.45609	0.13998	2.471
Mof_O 	O 	0.0604	0.5514	0.11264	-0.475
Mof_O 	O 	0.2232	0.5609	0.02051	-0.475
Mof_O 	O 	0.981	0.2628	0.14538	-0.6
Mof_O 	O 	0.0323	0.0768	0.22825	-0.634
Mof_O 	O 	0.6573	0.6625	0.07152	-0.657
Mof_O 	O 	0.4584	0.6955	0.9327	-0.661
Mof_N 	N 	0.7182	0.0541	0.9112	-0.209
Mof_C 	C 	0.9637	0.1368	0.1551	0.551
Mof_C 	C 	0.8529	0.059	0.073	-0.297
Mof_C 	C 	0.8174	0.1143	0.9881	0.166
Mof_H 	H 	0.8662	0.199	0.9846	-0.029
Mof_C 	C 	0.6446	0.9327	0.9178	0.186
Mof_H 	H 	0.5709	0.8903	0.8652	-0.061
Mof_C 	C 	0.7824	0.9306	0.0782	0.214
Mof_H 	H 	0.8079	0.8877	0.1335	-0.072
Mof_C 	C 	0.6734	0.8685	0.9988	-0.296
Mof_C 	C 	0.5905	0.7314	0.0016	0.609
Mof_C 	C 	0.0821	0.5318	0.0387	0.276
_end
