data_functionalizedCrystal
_audit_creation_method	'EQeq! by Chris Wilmer'
_symmetry_space_group_name_H-M	'P1'
_symmetry_Int_Tables_number	1
_symmetry_cell_setting	triclinic
loop_
_symmetry_equiv_pos_as_xyz
  x,y,z
_cell_length_a	10.316
_cell_length_b	26.096
_cell_length_c	27.889
_cell_angle_alpha	90
_cell_angle_beta	93.78
_cell_angle_gamma	90
loop_
_atom_site_label
_atom_site_type_symbol
_atom_site_fract_x
_atom_site_fract_y
_atom_site_fract_z
_atom_site_charge
Mof_C 	C 	0.6916	0.23837	0.56686	0.391
Mof_C 	C 	0.5615	0.23512	0.53805	-0.111
Mof_C 	C 	0.449	0.23582	0.56169	0.053
Mof_H 	H 	0.4532	0.2343	0.5954	0.045
Mof_C 	C 	0.3302	0.23866	0.53638	-0.114
Mof_C 	C 	0.3238	0.237	0.48736	0.019
Mof_H 	H 	0.2423	0.2379	0.4702	0.04
Mof_C 	C 	0.4382	0.2339	0.46178	-0.053
Mof_C 	C 	0.5555	0.2338	0.48882	0.019
Mof_H 	H 	0.6331	0.2327	0.473	0.038
Mof_C 	C 	0.2076	0.24317	0.56328	0.389
Mof_C 	C 	0.4326	0.2335	0.40852	0.106
Mof_C 	C 	0.3321	0.2563	0.381	-0.153
Mof_H 	H 	0.2658	0.273	0.3965	0.085
Mof_C 	C 	0.3263	0.2552	0.3317	0.08
Mof_H 	H 	0.2563	0.271	0.3141	0.022
Mof_C 	C 	0.4221	0.2311	0.30737	-0.146
Mof_C 	C 	0.5236	0.2095	0.3347	0.08
Mof_H 	H 	0.5933	0.195	0.3194	0.022
Mof_C 	C 	0.5244	0.2089	0.3845	-0.154
Mof_H 	H 	0.5907	0.191	0.4021	0.088
Mof_C 	C 	0.4188	0.2302	0.2537	0.399
Mof_C 	C 	0.9444	0.3965	0.5564	0.71
Mof_C 	C 	0.9359	0.4429	0.524	-1.073
Mof_H 	H 	0.8473	0.4556	0.5215	0.336
Mof_H 	H 	0.9616	0.4336	0.4923	0.339
Mof_H 	H 	0.9934	0.4695	0.5374	0.334
Mof_C 	C 	0.2416	0.35767	0.69099	0.375
Mof_C 	C 	0.3648	0.38504	0.70301	-0.109
Mof_C 	C 	0.48	0.36201	0.69177	0.04
Mof_H 	H 	0.48	0.3285	0.6793	0.046
Mof_C 	C 	0.5966	0.38932	0.69922	-0.102
Mof_C 	C 	0.5961	0.43732	0.72015	0.01
Mof_H 	H 	0.6752	0.4548	0.7259	0.043
Mof_C 	C 	0.4825	0.46052	0.7329	-0.046
Mof_C 	C 	0.3657	0.43415	0.72238	0.012
Mof_H 	H 	0.2866	0.4499	0.7285	0.041
Mof_C 	C 	0.7172	0.36382	0.68335	0.368
Mof_C 	C 	0.484	0.51203	0.75317	0.091
Mof_C 	C 	0.5903	0.53	0.7818	-0.137
Mof_H 	H 	0.6639	0.5092	0.7876	0.083
Mof_C 	C 	0.5874	0.5788	0.8019	0.065
Mof_H 	H 	0.6587	0.59	0.8219	0.027
Mof_C 	C 	0.4838	0.61073	0.79336	-0.132
Mof_C 	C 	0.3804	0.5938	0.7649	0.072
Mof_H 	H 	0.3077	0.6152	0.7591	0.025
Mof_C 	C 	0.381	0.5464	0.7447	-0.142
Mof_H 	H 	0.3093	0.5364	0.7243	0.081
Mof_C 	C 	0.4862	0.66425	0.81442	0.373
Mof_O 	O 	0.9663	0.29017	0.63349	-0.936
Mof_O 	O 	0.7876	0.25198	0.54321	-0.485
Mof_O 	O 	0.6923	0.23041	0.61069	-0.471
Mof_O 	O 	0.2189	0.23664	0.60716	-0.469
Mof_O 	O 	0.104	0.25442	0.53831	-0.483
Mof_O 	O 	0.324	0.25164	0.23129	-0.47
Mof_O 	O 	0.5116	0.2106	0.23539	-0.463
Mof_O 	O 	0.1364	0.38278	0.68729	-0.472
Mof_O 	O 	0.2501	0.30901	0.68551	-0.471
Mof_O 	O 	0.7075	0.32153	0.66388	-0.464
Mof_O 	O 	0.8241	0.38851	0.69155	-0.461
Mof_O 	O 	0.5846	0.67914	0.83884	-0.458
Mof_O 	O 	0.3843	0.69181	0.80522	-0.468
Mof_O 	O 	0.9588	0.40381	0.59969	-0.591
Mof_O 	O 	0.9404	0.35356	0.53615	-0.586
Mof_Zn	Zn	0.11818	0.25819	0.66561	1.22
Mof_Zn	Zn	0.82389	0.25304	0.66105	1.22
Mof_Zn	Zn	0.96788	0.35923	0.65913	1.22
Mof_Zn	Zn	0.9522	0.28501	0.56565	1.222
Mof_C 	C 	0.8084	0.73837	0.93314	0.39
Mof_C 	C 	0.9385	0.73512	0.96195	-0.111
Mof_C 	C 	0.051	0.73582	0.93831	0.05
Mof_H 	H 	0.0468	0.7343	0.9046	0.044
Mof_C 	C 	0.1698	0.73866	0.96362	-0.114
Mof_C 	C 	0.1762	0.737	0.01264	0.017
Mof_H 	H 	0.2577	0.7379	0.0298	0.039
Mof_C 	C 	0.0618	0.7339	0.03822	-0.055
Mof_C 	C 	0.9445	0.7338	0.01118	0.019
Mof_H 	H 	0.8669	0.7327	0.027	0.039
Mof_C 	C 	0.2924	0.74317	0.93672	0.389
Mof_C 	C 	0.0674	0.7335	0.09148	0.104
Mof_C 	C 	0.1679	0.7563	0.119	-0.153
Mof_H 	H 	0.2342	0.773	0.1035	0.084
Mof_C 	C 	0.1737	0.7552	0.1683	0.08
Mof_H 	H 	0.2437	0.771	0.1859	0.022
Mof_C 	C 	0.0779	0.7311	0.19263	-0.147
Mof_C 	C 	0.9764	0.7095	0.1653	0.081
Mof_H 	H 	0.9067	0.695	0.1806	0.022
Mof_C 	C 	0.9756	0.7089	0.1155	-0.153
Mof_H 	H 	0.9093	0.691	0.0979	0.088
Mof_C 	C 	0.0812	0.7302	0.2463	0.397
Mof_C 	C 	0.5556	0.8965	0.9436	0.709
Mof_C 	C 	0.5641	0.9429	0.976	-1.071
Mof_H 	H 	0.6527	0.9556	0.9785	0.335
Mof_H 	H 	0.5384	0.9336	0.0077	0.338
Mof_H 	H 	0.5066	0.9695	0.9626	0.333
Mof_C 	C 	0.2584	0.85767	0.80901	0.375
Mof_C 	C 	0.1352	0.88504	0.79699	-0.109
Mof_C 	C 	0.02	0.86201	0.80823	0.039
Mof_H 	H 	0.02	0.8285	0.8207	0.046
Mof_C 	C 	0.9034	0.88932	0.80078	-0.102
Mof_C 	C 	0.9039	0.93732	0.77985	0.01
Mof_H 	H 	0.8248	0.9548	0.7741	0.043
Mof_C 	C 	0.0175	0.96052	0.7671	-0.046
Mof_C 	C 	0.1343	0.93415	0.77762	0.012
Mof_H 	H 	0.2134	0.9499	0.7715	0.041
Mof_C 	C 	0.7828	0.86382	0.81665	0.367
Mof_C 	C 	0.016	0.01203	0.74683	0.091
Mof_C 	C 	0.9097	0.03	0.7182	-0.138
Mof_H 	H 	0.8361	0.0092	0.7124	0.083
Mof_C 	C 	0.9126	0.0788	0.6981	0.064
Mof_H 	H 	0.8413	0.09	0.6781	0.027
Mof_C 	C 	0.0162	0.11073	0.70664	-0.13
Mof_C 	C 	0.1196	0.0938	0.7351	0.071
Mof_H 	H 	0.1923	0.1152	0.7409	0.025
Mof_C 	C 	0.119	0.0464	0.7553	-0.141
Mof_H 	H 	0.1907	0.0364	0.7757	0.081
Mof_C 	C 	0.0138	0.16425	0.68558	0.374
Mof_O 	O 	0.5337	0.79017	0.86651	-0.936
Mof_O 	O 	0.7124	0.75198	0.95679	-0.485
Mof_O 	O 	0.8077	0.73041	0.88931	-0.471
Mof_O 	O 	0.2811	0.73664	0.89284	-0.469
Mof_O 	O 	0.396	0.75442	0.96169	-0.483
Mof_O 	O 	0.176	0.75164	0.26871	-0.47
Mof_O 	O 	0.9884	0.7106	0.26461	-0.462
Mof_O 	O 	0.3636	0.88278	0.81271	-0.473
Mof_O 	O 	0.2499	0.80901	0.81449	-0.471
Mof_O 	O 	0.7925	0.82153	0.83612	-0.463
Mof_O 	O 	0.6759	0.88851	0.80845	-0.46
Mof_O 	O 	0.9154	0.17914	0.66116	-0.459
Mof_O 	O 	0.1157	0.19181	0.69478	-0.468
Mof_O 	O 	0.5412	0.90381	0.90031	-0.591
Mof_O 	O 	0.5596	0.85356	0.96385	-0.585
Mof_Zn	Zn	0.38182	0.75819	0.83439	1.22
Mof_Zn	Zn	0.67611	0.75304	0.83895	1.22
Mof_Zn	Zn	0.53212	0.85923	0.84087	1.22
Mof_Zn	Zn	0.5478	0.78501	0.93435	1.222
Mof_C 	C 	0.3084	0.76163	0.43314	0.39
Mof_C 	C 	0.4385	0.76488	0.46195	-0.112
Mof_C 	C 	0.551	0.76418	0.43831	0.052
Mof_H 	H 	0.5468	0.7657	0.4046	0.044
Mof_C 	C 	0.6698	0.76134	0.46362	-0.115
Mof_C 	C 	0.6762	0.763	0.51264	0.018
Mof_H 	H 	0.7577	0.7621	0.5298	0.039
Mof_C 	C 	0.5618	0.7661	0.53822	-0.054
Mof_C 	C 	0.4445	0.7662	0.51118	0.019
Mof_H 	H 	0.3669	0.7673	0.527	0.038
Mof_C 	C 	0.7924	0.75683	0.43672	0.389
Mof_C 	C 	0.5674	0.7665	0.59148	0.106
Mof_C 	C 	0.6679	0.7437	0.619	-0.153
Mof_H 	H 	0.7342	0.727	0.6035	0.085
Mof_C 	C 	0.6737	0.7448	0.6683	0.08
Mof_H 	H 	0.7437	0.729	0.6859	0.022
Mof_C 	C 	0.5779	0.7689	0.69263	-0.146
Mof_C 	C 	0.4764	0.7905	0.6653	0.08
Mof_H 	H 	0.4067	0.805	0.6806	0.022
Mof_C 	C 	0.4756	0.7911	0.6155	-0.154
Mof_H 	H 	0.4093	0.809	0.5979	0.088
Mof_C 	C 	0.5812	0.7698	0.7463	0.399
Mof_C 	C 	0.0556	0.6035	0.4436	0.71
Mof_C 	C 	0.0641	0.5571	0.476	-1.073
Mof_H 	H 	0.1527	0.5444	0.4785	0.336
Mof_H 	H 	0.0384	0.5664	0.5077	0.339
Mof_H 	H 	0.0066	0.5305	0.4626	0.334
Mof_C 	C 	0.7584	0.64233	0.30901	0.375
Mof_C 	C 	0.6352	0.61496	0.29699	-0.109
Mof_C 	C 	0.52	0.63799	0.30823	0.04
Mof_H 	H 	0.52	0.6715	0.3207	0.046
Mof_C 	C 	0.4034	0.61068	0.30078	-0.102
Mof_C 	C 	0.4039	0.56268	0.27985	0.01
Mof_H 	H 	0.3248	0.5452	0.2741	0.043
Mof_C 	C 	0.5175	0.53948	0.2671	-0.046
Mof_C 	C 	0.6343	0.56585	0.27762	0.012
Mof_H 	H 	0.7134	0.5501	0.2715	0.041
Mof_C 	C 	0.2828	0.63618	0.31665	0.368
Mof_C 	C 	0.516	0.48797	0.24683	0.091
Mof_C 	C 	0.4097	0.47	0.2182	-0.137
Mof_H 	H 	0.3361	0.4908	0.2124	0.083
Mof_C 	C 	0.4126	0.4212	0.1981	0.065
Mof_H 	H 	0.3413	0.41	0.1781	0.027
Mof_C 	C 	0.5162	0.38927	0.20664	-0.132
Mof_C 	C 	0.6196	0.4062	0.2351	0.072
Mof_H 	H 	0.6923	0.3848	0.2409	0.025
Mof_C 	C 	0.619	0.4536	0.2553	-0.142
Mof_H 	H 	0.6907	0.4636	0.2757	0.081
Mof_C 	C 	0.5138	0.33575	0.18558	0.373
Mof_O 	O 	0.0337	0.70983	0.36651	-0.936
Mof_O 	O 	0.2124	0.74802	0.45679	-0.485
Mof_O 	O 	0.3077	0.76959	0.38931	-0.471
Mof_O 	O 	0.7811	0.76336	0.39284	-0.469
Mof_O 	O 	0.896	0.74558	0.46169	-0.483
Mof_O 	O 	0.676	0.74836	0.76871	-0.47
Mof_O 	O 	0.4884	0.7894	0.76461	-0.463
Mof_O 	O 	0.8636	0.61722	0.31271	-0.472
Mof_O 	O 	0.7499	0.69099	0.31449	-0.471
Mof_O 	O 	0.2925	0.67847	0.33612	-0.464
Mof_O 	O 	0.1759	0.61149	0.30845	-0.461
Mof_O 	O 	0.4154	0.32086	0.16116	-0.458
Mof_O 	O 	0.6157	0.30819	0.19478	-0.468
Mof_O 	O 	0.0412	0.59619	0.40031	-0.591
Mof_O 	O 	0.0596	0.64644	0.46385	-0.586
Mof_Zn	Zn	0.88182	0.74181	0.33439	1.22
Mof_Zn	Zn	0.17611	0.74696	0.33895	1.22
Mof_Zn	Zn	0.03212	0.64077	0.34087	1.22
Mof_Zn	Zn	0.0478	0.71499	0.43435	1.222
Mof_C 	C 	0.1916	0.26163	0.06686	0.39
Mof_C 	C 	0.0615	0.26488	0.03805	-0.111
Mof_C 	C 	0.949	0.26418	0.06169	0.05
Mof_H 	H 	0.9532	0.2657	0.0954	0.044
Mof_C 	C 	0.8302	0.26134	0.03638	-0.114
Mof_C 	C 	0.8238	0.263	0.98736	0.017
Mof_H 	H 	0.7423	0.2621	0.9702	0.039
Mof_C 	C 	0.9382	0.2661	0.96178	-0.055
Mof_C 	C 	0.0555	0.2662	0.98882	0.019
Mof_H 	H 	0.1331	0.2673	0.973	0.039
Mof_C 	C 	0.7076	0.25683	0.06328	0.389
Mof_C 	C 	0.9326	0.2665	0.90852	0.104
Mof_C 	C 	0.8321	0.2437	0.881	-0.153
Mof_H 	H 	0.7658	0.227	0.8965	0.084
Mof_C 	C 	0.8263	0.2448	0.8317	0.08
Mof_H 	H 	0.7563	0.229	0.8141	0.022
Mof_C 	C 	0.9221	0.2689	0.80737	-0.147
Mof_C 	C 	0.0236	0.2905	0.8347	0.081
Mof_H 	H 	0.0933	0.305	0.8194	0.022
Mof_C 	C 	0.0244	0.2911	0.8845	-0.153
Mof_H 	H 	0.0907	0.309	0.9021	0.088
Mof_C 	C 	0.9188	0.2698	0.7537	0.397
Mof_C 	C 	0.4444	0.1035	0.0564	0.709
Mof_C 	C 	0.4359	0.0571	0.024	-1.071
Mof_H 	H 	0.3473	0.0444	0.0215	0.335
Mof_H 	H 	0.4616	0.0664	0.9923	0.338
Mof_H 	H 	0.4934	0.0305	0.0374	0.333
Mof_C 	C 	0.7416	0.14233	0.19099	0.375
Mof_C 	C 	0.8648	0.11496	0.20301	-0.109
Mof_C 	C 	0.98	0.13799	0.19177	0.039
Mof_H 	H 	0.98	0.1715	0.1793	0.046
Mof_C 	C 	0.0966	0.11068	0.19922	-0.102
Mof_C 	C 	0.0961	0.06268	0.22015	0.01
Mof_H 	H 	0.1752	0.0452	0.2259	0.043
Mof_C 	C 	0.9825	0.03948	0.2329	-0.046
Mof_C 	C 	0.8657	0.06585	0.22238	0.012
Mof_H 	H 	0.7866	0.0501	0.2285	0.041
Mof_C 	C 	0.2172	0.13618	0.18335	0.367
Mof_C 	C 	0.984	0.98797	0.25317	0.091
Mof_C 	C 	0.0903	0.97	0.2818	-0.138
Mof_H 	H 	0.1639	0.9908	0.2876	0.083
Mof_C 	C 	0.0874	0.9212	0.3019	0.064
Mof_H 	H 	0.1587	0.91	0.3219	0.027
Mof_C 	C 	0.9838	0.88927	0.29336	-0.13
Mof_C 	C 	0.8804	0.9062	0.2649	0.071
Mof_H 	H 	0.8077	0.8848	0.2591	0.025
Mof_C 	C 	0.881	0.9536	0.2447	-0.141
Mof_H 	H 	0.8093	0.9636	0.2243	0.081
Mof_C 	C 	0.9862	0.83575	0.31442	0.374
Mof_O 	O 	0.4663	0.20983	0.13349	-0.936
Mof_O 	O 	0.2876	0.24802	0.04321	-0.485
Mof_O 	O 	0.1923	0.26959	0.11069	-0.471
Mof_O 	O 	0.7189	0.26336	0.10716	-0.469
Mof_O 	O 	0.604	0.24558	0.03831	-0.483
Mof_O 	O 	0.824	0.24836	0.73129	-0.47
Mof_O 	O 	0.0116	0.2894	0.73539	-0.462
Mof_O 	O 	0.6364	0.11722	0.18729	-0.473
Mof_O 	O 	0.7501	0.19099	0.18551	-0.471
Mof_O 	O 	0.2075	0.17847	0.16388	-0.463
Mof_O 	O 	0.3241	0.11149	0.19155	-0.46
Mof_O 	O 	0.0846	0.82086	0.33884	-0.459
Mof_O 	O 	0.8843	0.80819	0.30522	-0.468
Mof_O 	O 	0.4588	0.09619	0.09969	-0.591
Mof_O 	O 	0.4404	0.14644	0.03615	-0.585
Mof_Zn	Zn	0.61818	0.24181	0.16561	1.22
Mof_Zn	Zn	0.32389	0.24696	0.16105	1.22
Mof_Zn	Zn	0.46788	0.14077	0.15913	1.22
Mof_Zn	Zn	0.4522	0.21499	0.06565	1.222
_end
