data_functionalizedCrystal
_audit_creation_method	'EQeq! by Chris Wilmer'
_symmetry_space_group_name_H-M	'P1'
_symmetry_Int_Tables_number	1
_symmetry_cell_setting	triclinic
loop_
_symmetry_equiv_pos_as_xyz
  x,y,z
_cell_length_a	27.09
_cell_length_b	38.276
_cell_length_c	19.107
_cell_angle_alpha	90
_cell_angle_beta	90
_cell_angle_gamma	90
loop_
_atom_site_label
_atom_site_type_symbol
_atom_site_fract_x
_atom_site_fract_y
_atom_site_fract_z
_atom_site_charge
Mof_O 	O 	0.4078	0.38308	0.1472	-0.243
Mof_N 	N 	0.44646	0.44708	0.3021	-0.217
Mof_C 	C 	0.3143	0.30066	0.0801	-0.032
Mof_H 	H 	0.286	0.3012	0.1078	0.022
Mof_O 	O 	0.66551	0.62922	0.4041	-0.251
Mof_C 	C 	0.353	0.3225	0.0987	0.092
Mof_N 	N 	0.444	0.42373	0.3563	-0.067
Mof_N 	N 	0.4112	0.40021	0.343	-0.05
Mof_C 	C 	0.3561	0.27858	0.9869	0.095
Mof_H 	H 	0.3577	0.2635	0.9489	-0.016
Mof_N 	N 	0.3917	0.40796	0.2807	-0.06
Mof_C 	C 	0.3965	0.29964	0.0012	-0.136
Mof_H 	H 	0.4244	0.2986	0.973	0.091
Mof_N 	N 	0.3461	0.34317	0.159	-0.25
Mof_H 	H 	0.3218	0.3375	0.1857	0.129
Mof_N 	N 	0.3145	0.27911	0.0262	-0.251
Mof_N 	N 	0.5589	0.52519	0.3062	-0.23
Mof_N 	N 	0.6008	0.59258	0.4264	-0.255
Mof_H 	H 	0.5783	0.5881	0.457	0.127
Mof_N 	N 	0.65068	0.66594	0.5244	-0.058
Mof_C 	C 	0.395	0.322	0.0572	-0.053
Mof_H 	H 	0.4216	0.3365	0.0672	0.07
Mof_N 	N 	0.6642	0.66921	0.5925	-0.052
Mof_C 	C 	0.3731	0.37058	0.1791	0.279
Mof_N 	N 	0.69647	0.69456	0.5949	-0.068
Mof_C 	C 	0.354	0.38557	0.248	-0.225
Mof_H 	H 	0.3244	0.3991	0.2393	0.102
Mof_H 	H 	0.3455	0.3666	0.2795	0.112
Mof_N 	N 	0.70351	0.7079	0.5301	-0.221
Mof_C 	C 	0.4138	0.43663	0.2559	0.1
Mof_H 	H 	0.4072	0.4473	0.2132	-0.008
Mof_C 	C 	0.5937	0.52672	0.257	0.019
Mof_H 	H 	0.5904	0.5126	0.2177	-0.008
Mof_C 	C 	0.6345	0.5481	0.2616	-0.031
Mof_H 	H 	0.6588	0.5472	0.2273	0.041
Mof_C 	C 	0.6392	0.5708	0.3168	-0.114
Mof_H 	H 	0.6659	0.586	0.3197	0.093
Mof_C 	C 	0.5643	0.54687	0.3611	-0.05
Mof_H 	H 	0.5408	0.5461	0.3965	0.011
Mof_C 	C 	0.6034	0.57051	0.3678	0.118
Mof_C 	C 	0.6304	0.62007	0.4386	0.276
Mof_C 	C 	0.6139	0.64068	0.5042	-0.219
Mof_H 	H 	0.583	0.6526	0.4945	0.102
Mof_H 	H 	0.6082	0.6245	0.5426	0.115
Mof_C 	C 	0.6747	0.68991	0.4873	0.088
Mof_H 	H 	0.6717	0.6934	0.4394	-0.006
Mof_O 	O 	0.0922	0.61692	0.6472	-0.25
Mof_N 	N 	0.05354	0.55292	0.8021	-0.222
Mof_C 	C 	0.1857	0.69934	0.5801	-0.051
Mof_H 	H 	0.214	0.6988	0.6078	0.027
Mof_O 	O 	0.83449	0.37078	0.9041	-0.255
Mof_C 	C 	0.147	0.6775	0.5987	0.121
Mof_N 	N 	0.056	0.57627	0.8563	-0.07
Mof_N 	N 	0.0888	0.59979	0.843	-0.05
Mof_C 	C 	0.1439	0.72142	0.4869	0.002
Mof_H 	H 	0.1423	0.7365	0.4489	0.009
Mof_N 	N 	0.1083	0.59204	0.7807	-0.06
Mof_C 	C 	0.1035	0.70036	0.5012	-0.02
Mof_H 	H 	0.0756	0.7014	0.473	0.031
Mof_N 	N 	0.1539	0.65683	0.659	-0.256
Mof_H 	H 	0.1782	0.6625	0.6857	0.13
Mof_N 	N 	0.1855	0.72089	0.5262	-0.225
Mof_N 	N 	0.9411	0.47481	0.8062	-0.22
Mof_N 	N 	0.8992	0.40742	0.9264	-0.262
Mof_H 	H 	0.9217	0.4119	0.957	0.138
Mof_N 	N 	0.84932	0.33406	0.0244	-0.063
Mof_C 	C 	0.105	0.678	0.5572	-0.12
Mof_H 	H 	0.0784	0.6635	0.5672	0.091
Mof_N 	N 	0.8358	0.33079	0.0925	-0.053
Mof_C 	C 	0.1269	0.62942	0.6791	0.281
Mof_N 	N 	0.80353	0.30544	0.0949	-0.068
Mof_C 	C 	0.146	0.61443	0.748	-0.228
Mof_H 	H 	0.1756	0.6009	0.7393	0.104
Mof_H 	H 	0.1545	0.6334	0.7795	0.113
Mof_N 	N 	0.79649	0.2921	0.0301	-0.234
Mof_C 	C 	0.0862	0.56337	0.7559	0.098
Mof_H 	H 	0.0928	0.5527	0.7132	-0.009
Mof_C 	C 	0.9063	0.47328	0.757	0.02
Mof_H 	H 	0.9096	0.4874	0.7177	-0.001
Mof_C 	C 	0.8655	0.4519	0.7616	-0.025
Mof_H 	H 	0.8412	0.4528	0.7273	0.043
Mof_C 	C 	0.8608	0.4292	0.8168	-0.117
Mof_H 	H 	0.8341	0.414	0.8197	0.096
Mof_C 	C 	0.9357	0.45313	0.8611	-0.05
Mof_H 	H 	0.9592	0.4539	0.8965	0.024
Mof_C 	C 	0.8966	0.42949	0.8678	0.127
Mof_C 	C 	0.8696	0.37993	0.9386	0.307
Mof_C 	C 	0.8861	0.35932	0.0042	-0.282
Mof_H 	H 	0.917	0.3474	0.9945	0.138
Mof_H 	H 	0.8918	0.3755	0.0426	0.131
Mof_C 	C 	0.8253	0.31009	0.9873	0.122
Mof_H 	H 	0.8283	0.3066	0.9394	-0.012
Mof_O 	O 	0.5922	0.88308	0.3528	-0.243
Mof_N 	N 	0.55354	0.94708	0.1979	-0.218
Mof_C 	C 	0.6857	0.80066	0.4199	-0.051
Mof_H 	H 	0.714	0.8012	0.3922	0.028
Mof_O 	O 	0.33449	0.12922	0.0959	-0.248
Mof_C 	C 	0.647	0.8225	0.4013	0.123
Mof_N 	N 	0.556	0.92373	0.1437	-0.07
Mof_N 	N 	0.5888	0.90021	0.157	-0.052
Mof_C 	C 	0.6439	0.77858	0.5131	0.004
Mof_H 	H 	0.6423	0.7635	0.5511	0.012
Mof_N 	N 	0.6083	0.90796	0.2193	-0.06
Mof_C 	C 	0.6035	0.79964	0.4988	-0.019
Mof_H 	H 	0.5756	0.7986	0.527	0.038
Mof_N 	N 	0.6539	0.84317	0.341	-0.256
Mof_H 	H 	0.6782	0.8375	0.3143	0.13
Mof_N 	N 	0.6855	0.77911	0.4738	-0.224
Mof_N 	N 	0.4411	0.02519	0.1938	-0.23
Mof_N 	N 	0.3992	0.09258	0.0736	-0.249
Mof_H 	H 	0.4217	0.0881	0.043	0.122
Mof_N 	N 	0.34932	0.16594	0.9756	-0.051
Mof_C 	C 	0.605	0.822	0.4428	-0.118
Mof_H 	H 	0.5784	0.8365	0.4328	0.096
Mof_N 	N 	0.3358	0.16921	0.9075	-0.05
Mof_C 	C 	0.6269	0.87058	0.3209	0.281
Mof_N 	N 	0.30353	0.19456	0.9051	-0.067
Mof_C 	C 	0.646	0.88557	0.252	-0.226
Mof_H 	H 	0.6756	0.8991	0.2607	0.102
Mof_H 	H 	0.6545	0.8666	0.2205	0.112
Mof_N 	N 	0.29649	0.2079	0.9699	-0.206
Mof_C 	C 	0.5862	0.93663	0.2441	0.1
Mof_H 	H 	0.5928	0.9473	0.2868	-0.007
Mof_C 	C 	0.4063	0.02672	0.243	0.02
Mof_H 	H 	0.4096	0.0126	0.2823	-0.007
Mof_C 	C 	0.3655	0.0481	0.2384	-0.033
Mof_H 	H 	0.3412	0.0472	0.2727	0.042
Mof_C 	C 	0.3608	0.0708	0.1832	-0.112
Mof_H 	H 	0.3341	0.086	0.1803	0.091
Mof_C 	C 	0.4357	0.04687	0.1389	-0.049
Mof_H 	H 	0.4592	0.0461	0.1035	0.009
Mof_C 	C 	0.3966	0.07051	0.1322	0.114
Mof_C 	C 	0.3696	0.12007	0.0614	0.25
Mof_C 	C 	0.3861	0.14068	0.9958	-0.161
Mof_H 	H 	0.417	0.1526	0.0055	0.074
Mof_H 	H 	0.3918	0.1245	0.9574	0.103
Mof_C 	C 	0.3253	0.18991	0.0127	0.054
Mof_H 	H 	0.3283	0.1934	0.0606	0.002
Mof_O 	O 	0.9078	0.11692	0.8528	-0.235
Mof_N 	N 	0.94646	0.05292	0.6979	-0.209
Mof_C 	C 	0.8143	0.19934	0.9199	-0.068
Mof_H 	H 	0.786	0.1988	0.8922	0.035
Mof_O 	O 	0.16551	0.87078	0.5959	-0.251
Mof_C 	C 	0.853	0.1775	0.9013	0.157
Mof_N 	N 	0.944	0.07627	0.6437	-0.06
Mof_N 	N 	0.9112	0.09979	0.657	-0.047
Mof_C 	C 	0.8561	0.22142	0.0131	-0.085
Mof_H 	H 	0.8577	0.2365	0.0511	0.041
Mof_N 	N 	0.8917	0.09204	0.7193	-0.058
Mof_C 	C 	0.8965	0.20036	0.9988	0.1
Mof_H 	H 	0.9244	0.2014	0.027	-0.008
Mof_N 	N 	0.8461	0.15683	0.841	-0.261
Mof_H 	H 	0.8218	0.1625	0.8143	0.133
Mof_N 	N 	0.8145	0.22089	0.9738	-0.196
Mof_N 	N 	0.0589	0.97481	0.6938	-0.234
Mof_N 	N 	0.1008	0.90742	0.5736	-0.254
Mof_H 	H 	0.0783	0.9119	0.543	0.123
Mof_N 	N 	0.15068	0.83406	0.4756	-0.059
Mof_C 	C 	0.895	0.178	0.9428	-0.182
Mof_H 	H 	0.9216	0.1635	0.9328	0.128
Mof_N 	N 	0.1642	0.83079	0.4075	-0.054
Mof_C 	C 	0.8731	0.12942	0.8209	0.284
Mof_N 	N 	0.19647	0.80544	0.4051	-0.069
Mof_C 	C 	0.854	0.11443	0.752	-0.225
Mof_H 	H 	0.8244	0.1009	0.7607	0.104
Mof_H 	H 	0.8455	0.1334	0.7205	0.114
Mof_N 	N 	0.20351	0.7921	0.4699	-0.222
Mof_C 	C 	0.9138	0.06337	0.7441	0.103
Mof_H 	H 	0.9072	0.0527	0.7868	-0.002
Mof_C 	C 	0.0937	0.97328	0.743	0.02
Mof_H 	H 	0.0904	0.9874	0.7823	-0.009
Mof_C 	C 	0.1345	0.9519	0.7384	-0.033
Mof_H 	H 	0.1588	0.9528	0.7727	0.044
Mof_C 	C 	0.1392	0.9292	0.6832	-0.112
Mof_H 	H 	0.1659	0.914	0.6803	0.092
Mof_C 	C 	0.0643	0.95313	0.6389	-0.05
Mof_H 	H 	0.0408	0.9539	0.6035	0.002
Mof_C 	C 	0.1034	0.92949	0.6322	0.114
Mof_C 	C 	0.1304	0.87993	0.5614	0.273
Mof_C 	C 	0.1139	0.85932	0.4958	-0.215
Mof_H 	H 	0.083	0.8474	0.5055	0.096
Mof_H 	H 	0.1082	0.8755	0.4574	0.112
Mof_C 	C 	0.1747	0.81009	0.5127	0.087
Mof_H 	H 	0.1717	0.8066	0.5606	-0.007
Mof_O 	O 	0.0922	0.11692	0.8528	-0.249
Mof_N 	N 	0.05354	0.05292	0.6979	-0.222
Mof_C 	C 	0.1857	0.19934	0.9199	-0.069
Mof_H 	H 	0.214	0.1988	0.8922	0.034
Mof_O 	O 	0.83449	0.87078	0.5959	-0.251
Mof_C 	C 	0.147	0.1775	0.9013	0.153
Mof_N 	N 	0.056	0.07627	0.6437	-0.073
Mof_N 	N 	0.0888	0.09979	0.657	-0.052
Mof_C 	C 	0.1439	0.22142	0.0131	-0.088
Mof_H 	H 	0.1423	0.2365	0.0511	0.037
Mof_N 	N 	0.1083	0.09204	0.7193	-0.06
Mof_C 	C 	0.1035	0.20036	0.9988	0.097
Mof_H 	H 	0.0756	0.2014	0.027	-0.021
Mof_N 	N 	0.1539	0.15683	0.841	-0.262
Mof_H 	H 	0.1782	0.1625	0.8143	0.131
Mof_N 	N 	0.1855	0.22089	0.9738	-0.196
Mof_N 	N 	0.9411	0.97481	0.6938	-0.22
Mof_N 	N 	0.8992	0.90742	0.5736	-0.256
Mof_H 	H 	0.9217	0.9119	0.543	0.133
Mof_N 	N 	0.84932	0.83406	0.4756	-0.056
Mof_C 	C 	0.105	0.178	0.9428	-0.185
Mof_H 	H 	0.0784	0.1635	0.9328	0.117
Mof_N 	N 	0.8358	0.83079	0.4075	-0.051
Mof_C 	C 	0.1269	0.12942	0.8209	0.283
Mof_N 	N 	0.80353	0.80544	0.4051	-0.067
Mof_C 	C 	0.146	0.11443	0.752	-0.228
Mof_H 	H 	0.1756	0.1009	0.7607	0.104
Mof_H 	H 	0.1545	0.1334	0.7205	0.112
Mof_N 	N 	0.79649	0.7921	0.4699	-0.221
Mof_C 	C 	0.0862	0.06337	0.7441	0.098
Mof_H 	H 	0.0928	0.0527	0.7868	-0.008
Mof_C 	C 	0.9063	0.97328	0.743	0.021
Mof_H 	H 	0.9096	0.9874	0.7823	-0
Mof_C 	C 	0.8655	0.9519	0.7384	-0.027
Mof_H 	H 	0.8412	0.9528	0.7727	0.044
Mof_C 	C 	0.8608	0.9292	0.6832	-0.115
Mof_H 	H 	0.8341	0.914	0.6803	0.095
Mof_C 	C 	0.9357	0.95313	0.6389	-0.049
Mof_H 	H 	0.9592	0.9539	0.6035	0.022
Mof_C 	C 	0.8966	0.92949	0.6322	0.123
Mof_C 	C 	0.8696	0.87993	0.5614	0.281
Mof_C 	C 	0.8861	0.85932	0.4958	-0.224
Mof_H 	H 	0.917	0.8474	0.5055	0.11
Mof_H 	H 	0.8918	0.8755	0.4574	0.119
Mof_C 	C 	0.8253	0.81009	0.5127	0.088
Mof_H 	H 	0.8283	0.8066	0.5606	-0.004
Mof_O 	O 	0.4078	0.88308	0.3528	-0.243
Mof_N 	N 	0.44646	0.94708	0.1979	-0.218
Mof_C 	C 	0.3143	0.80066	0.4199	-0.051
Mof_H 	H 	0.286	0.8012	0.3922	0.027
Mof_O 	O 	0.66551	0.12922	0.0959	-0.248
Mof_C 	C 	0.353	0.8225	0.4013	0.123
Mof_N 	N 	0.444	0.92373	0.1437	-0.07
Mof_N 	N 	0.4112	0.90021	0.157	-0.052
Mof_C 	C 	0.3561	0.77858	0.5131	0.004
Mof_H 	H 	0.3577	0.7635	0.5511	0.011
Mof_N 	N 	0.3917	0.90796	0.2193	-0.06
Mof_C 	C 	0.3965	0.79964	0.4988	-0.019
Mof_H 	H 	0.4244	0.7986	0.527	0.038
Mof_N 	N 	0.3461	0.84317	0.341	-0.256
Mof_H 	H 	0.3218	0.8375	0.3143	0.13
Mof_N 	N 	0.3145	0.77911	0.4738	-0.224
Mof_N 	N 	0.5589	0.02519	0.1938	-0.23
Mof_N 	N 	0.6008	0.09258	0.0736	-0.249
Mof_H 	H 	0.5783	0.0881	0.043	0.122
Mof_N 	N 	0.65068	0.16594	0.9756	-0.051
Mof_C 	C 	0.395	0.822	0.4428	-0.118
Mof_H 	H 	0.4216	0.8365	0.4328	0.096
Mof_N 	N 	0.6642	0.16921	0.9075	-0.05
Mof_C 	C 	0.3731	0.87058	0.3209	0.281
Mof_N 	N 	0.69647	0.19456	0.9051	-0.066
Mof_C 	C 	0.354	0.88557	0.252	-0.226
Mof_H 	H 	0.3244	0.8991	0.2607	0.102
Mof_H 	H 	0.3455	0.8666	0.2205	0.112
Mof_N 	N 	0.70351	0.2079	0.9699	-0.206
Mof_C 	C 	0.4138	0.93663	0.2441	0.1
Mof_H 	H 	0.4072	0.9473	0.2868	-0.007
Mof_C 	C 	0.5937	0.02672	0.243	0.02
Mof_H 	H 	0.5904	0.0126	0.2823	-0.007
Mof_C 	C 	0.6345	0.0481	0.2384	-0.033
Mof_H 	H 	0.6588	0.0472	0.2727	0.043
Mof_C 	C 	0.6392	0.0708	0.1832	-0.112
Mof_H 	H 	0.6659	0.086	0.1803	0.092
Mof_C 	C 	0.5643	0.04687	0.1389	-0.049
Mof_H 	H 	0.5408	0.0461	0.1035	0.009
Mof_C 	C 	0.6034	0.07051	0.1322	0.115
Mof_C 	C 	0.6304	0.12007	0.0614	0.25
Mof_C 	C 	0.6139	0.14068	0.9958	-0.161
Mof_H 	H 	0.583	0.1526	0.0055	0.074
Mof_H 	H 	0.6082	0.1245	0.9574	0.103
Mof_C 	C 	0.6747	0.18991	0.0127	0.054
Mof_H 	H 	0.6717	0.1934	0.0606	0.002
Mof_O 	O 	0.9078	0.61692	0.6472	-0.236
Mof_N 	N 	0.94646	0.55292	0.8021	-0.209
Mof_C 	C 	0.8143	0.69934	0.5801	-0.05
Mof_H 	H 	0.786	0.6988	0.6078	0.028
Mof_O 	O 	0.16551	0.37078	0.9041	-0.255
Mof_C 	C 	0.853	0.6775	0.5987	0.125
Mof_N 	N 	0.944	0.57627	0.8563	-0.057
Mof_N 	N 	0.9112	0.59979	0.843	-0.045
Mof_C 	C 	0.8561	0.72142	0.4869	0.006
Mof_H 	H 	0.8577	0.7365	0.4489	0.013
Mof_N 	N 	0.8917	0.59204	0.7807	-0.058
Mof_C 	C 	0.8965	0.70036	0.5012	-0.017
Mof_H 	H 	0.9244	0.7014	0.473	0.044
Mof_N 	N 	0.8461	0.65683	0.659	-0.255
Mof_H 	H 	0.8218	0.6625	0.6857	0.131
Mof_N 	N 	0.8145	0.72089	0.5262	-0.224
Mof_N 	N 	0.0589	0.47481	0.8062	-0.233
Mof_N 	N 	0.1008	0.40742	0.9264	-0.259
Mof_H 	H 	0.0783	0.4119	0.957	0.128
Mof_N 	N 	0.15068	0.33406	0.0244	-0.066
Mof_C 	C 	0.895	0.678	0.5572	-0.117
Mof_H 	H 	0.9216	0.6635	0.5672	0.102
Mof_N 	N 	0.1642	0.33079	0.0925	-0.056
Mof_C 	C 	0.8731	0.62942	0.6791	0.282
Mof_N 	N 	0.19647	0.30544	0.0949	-0.07
Mof_C 	C 	0.854	0.61443	0.748	-0.224
Mof_H 	H 	0.8244	0.6009	0.7393	0.103
Mof_H 	H 	0.8455	0.6334	0.7795	0.114
Mof_N 	N 	0.20351	0.2921	0.0301	-0.235
Mof_C 	C 	0.9138	0.56337	0.7559	0.103
Mof_H 	H 	0.9072	0.5527	0.7132	-0.003
Mof_C 	C 	0.0937	0.47328	0.757	0.019
Mof_H 	H 	0.0904	0.4874	0.7177	-0.01
Mof_C 	C 	0.1345	0.4519	0.7616	-0.032
Mof_H 	H 	0.1588	0.4528	0.7273	0.042
Mof_C 	C 	0.1392	0.4292	0.8168	-0.115
Mof_H 	H 	0.1659	0.414	0.8197	0.093
Mof_C 	C 	0.0643	0.45313	0.8611	-0.051
Mof_H 	H 	0.0408	0.4539	0.8965	0.005
Mof_C 	C 	0.1034	0.42949	0.8678	0.118
Mof_C 	C 	0.1304	0.37993	0.9386	0.299
Mof_C 	C 	0.1139	0.35932	0.0042	-0.273
Mof_H 	H 	0.083	0.3474	0.9945	0.124
Mof_H 	H 	0.1082	0.3755	0.0426	0.124
Mof_C 	C 	0.1747	0.31009	0.9873	0.121
Mof_H 	H 	0.1717	0.3066	0.9394	-0.015
Mof_O 	O 	0.5922	0.38308	0.1472	-0.244
Mof_N 	N 	0.55354	0.44708	0.3021	-0.218
Mof_C 	C 	0.6857	0.30066	0.0801	-0.034
Mof_H 	H 	0.714	0.3012	0.1078	0.021
Mof_O 	O 	0.33449	0.62922	0.4041	-0.253
Mof_C 	C 	0.647	0.3225	0.0987	0.092
Mof_N 	N 	0.556	0.42373	0.3563	-0.067
Mof_N 	N 	0.5888	0.40021	0.343	-0.05
Mof_C 	C 	0.6439	0.27858	0.9869	0.095
Mof_H 	H 	0.6423	0.2635	0.9489	-0.016
Mof_N 	N 	0.6083	0.40796	0.2807	-0.06
Mof_C 	C 	0.6035	0.29964	0.0012	-0.136
Mof_H 	H 	0.5756	0.2986	0.973	0.091
Mof_N 	N 	0.6539	0.34317	0.159	-0.25
Mof_H 	H 	0.6782	0.3375	0.1857	0.129
Mof_N 	N 	0.6855	0.27911	0.0262	-0.25
Mof_N 	N 	0.4411	0.52519	0.3062	-0.23
Mof_N 	N 	0.3992	0.59258	0.4264	-0.255
Mof_H 	H 	0.4217	0.5881	0.457	0.127
Mof_N 	N 	0.34932	0.66594	0.5244	-0.058
Mof_C 	C 	0.605	0.322	0.0572	-0.053
Mof_H 	H 	0.5784	0.3365	0.0672	0.07
Mof_N 	N 	0.3358	0.66921	0.5925	-0.052
Mof_C 	C 	0.6269	0.37058	0.1791	0.279
Mof_N 	N 	0.30353	0.69456	0.5949	-0.068
Mof_C 	C 	0.646	0.38557	0.248	-0.225
Mof_H 	H 	0.6756	0.3991	0.2393	0.102
Mof_H 	H 	0.6545	0.3666	0.2795	0.112
Mof_N 	N 	0.29649	0.7079	0.5301	-0.221
Mof_C 	C 	0.5862	0.43663	0.2559	0.1
Mof_H 	H 	0.5928	0.4473	0.2132	-0.008
Mof_C 	C 	0.4063	0.52672	0.257	0.019
Mof_H 	H 	0.4096	0.5126	0.2177	-0.008
Mof_C 	C 	0.3655	0.5481	0.2616	-0.031
Mof_H 	H 	0.3412	0.5472	0.2273	0.041
Mof_C 	C 	0.3608	0.5708	0.3168	-0.114
Mof_H 	H 	0.3341	0.586	0.3197	0.092
Mof_C 	C 	0.4357	0.54687	0.3611	-0.05
Mof_H 	H 	0.4592	0.5461	0.3965	0.011
Mof_C 	C 	0.3966	0.57051	0.3678	0.118
Mof_C 	C 	0.3696	0.62007	0.4386	0.276
Mof_C 	C 	0.3861	0.64068	0.5042	-0.219
Mof_H 	H 	0.417	0.6526	0.4945	0.102
Mof_H 	H 	0.3918	0.6245	0.5426	0.115
Mof_C 	C 	0.3253	0.68991	0.4873	0.087
Mof_H 	H 	0.3283	0.6934	0.4394	-0.006
Mof_Co	Co	0.5	0.48789	0.30238	1.076
Mof_Co	Co	7.21852e-33	0.51211	0.80238	1.063
Mof_Co	Co	0.5	0.98789	0.19762	1.076
Mof_Co	Co	1.84486e-33	0.01211	0.69762	1.063
Mof_Co	Co	0.75	0.75	0.5	1.077
Mof_Co	Co	0.25	0.25	-0	1.069
Mof_Co	Co	0.75	0.25	-0	1.07
Mof_Co	Co	0.25	0.75	0.5	1.077
Mof_O 	O 	0.9078	0.88308	0.1472	-0.237
Mof_N 	N 	0.94646	0.94708	0.3021	-0.209
Mof_C 	C 	0.8143	0.80066	0.0801	-0.033
Mof_H 	H 	0.786	0.8012	0.1078	0.021
Mof_O 	O 	0.16551	0.12922	0.4041	-0.252
Mof_C 	C 	0.853	0.8225	0.0987	0.093
Mof_N 	N 	0.944	0.92373	0.3563	-0.06
Mof_N 	N 	0.9112	0.90021	0.343	-0.047
Mof_C 	C 	0.8561	0.77858	0.9869	0.096
Mof_H 	H 	0.8577	0.7635	0.9489	-0.014
Mof_N 	N 	0.8917	0.90796	0.2807	-0.059
Mof_C 	C 	0.8965	0.79964	0.0012	-0.134
Mof_H 	H 	0.9244	0.7986	0.973	0.097
Mof_N 	N 	0.8461	0.84317	0.159	-0.249
Mof_H 	H 	0.8218	0.8375	0.1857	0.129
Mof_N 	N 	0.8145	0.77911	0.0262	-0.25
Mof_N 	N 	0.0589	0.02519	0.3062	-0.235
Mof_N 	N 	0.1008	0.09258	0.4264	-0.254
Mof_H 	H 	0.0783	0.0881	0.457	0.123
Mof_N 	N 	0.15068	0.16594	0.5244	-0.059
Mof_C 	C 	0.895	0.822	0.0572	-0.051
Mof_H 	H 	0.9216	0.8365	0.0672	0.075
Mof_N 	N 	0.1642	0.16921	0.5925	-0.053
Mof_C 	C 	0.8731	0.87058	0.1791	0.279
Mof_N 	N 	0.19647	0.19456	0.5949	-0.068
Mof_C 	C 	0.854	0.88557	0.248	-0.223
Mof_H 	H 	0.8244	0.8991	0.2393	0.102
Mof_H 	H 	0.8455	0.8666	0.2795	0.113
Mof_N 	N 	0.20351	0.2079	0.5301	-0.222
Mof_C 	C 	0.9138	0.93663	0.2559	0.103
Mof_H 	H 	0.9072	0.9473	0.2132	-0.005
Mof_C 	C 	0.0937	0.02672	0.257	0.019
Mof_H 	H 	0.0904	0.0126	0.2177	-0.012
Mof_C 	C 	0.1345	0.0481	0.2616	-0.034
Mof_H 	H 	0.1588	0.0472	0.2273	0.04
Mof_C 	C 	0.1392	0.0708	0.3168	-0.113
Mof_H 	H 	0.1659	0.086	0.3197	0.091
Mof_C 	C 	0.0643	0.04687	0.3611	-0.05
Mof_H 	H 	0.0408	0.0461	0.3965	0.002
Mof_C 	C 	0.1034	0.07051	0.3678	0.113
Mof_C 	C 	0.1304	0.12007	0.4386	0.272
Mof_C 	C 	0.1139	0.14068	0.5042	-0.215
Mof_H 	H 	0.083	0.1526	0.4945	0.095
Mof_H 	H 	0.1082	0.1245	0.5426	0.112
Mof_C 	C 	0.1747	0.18991	0.4873	0.087
Mof_H 	H 	0.1717	0.1934	0.4394	-0.008
Mof_O 	O 	0.5922	0.11692	0.6472	-0.243
Mof_N 	N 	0.55354	0.05292	0.8021	-0.217
Mof_C 	C 	0.6857	0.19934	0.5801	-0.051
Mof_H 	H 	0.714	0.1988	0.6078	0.028
Mof_O 	O 	0.33449	0.87078	0.9041	-0.256
Mof_C 	C 	0.647	0.1775	0.5987	0.124
Mof_N 	N 	0.556	0.07627	0.8563	-0.064
Mof_N 	N 	0.5888	0.09979	0.843	-0.048
Mof_C 	C 	0.6439	0.22142	0.4869	0.004
Mof_H 	H 	0.6423	0.2365	0.4489	0.011
Mof_N 	N 	0.6083	0.09204	0.7807	-0.059
Mof_C 	C 	0.6035	0.20036	0.5012	-0.018
Mof_H 	H 	0.5756	0.2014	0.473	0.038
Mof_N 	N 	0.6539	0.15683	0.659	-0.256
Mof_H 	H 	0.6782	0.1625	0.6857	0.131
Mof_N 	N 	0.6855	0.22089	0.5262	-0.224
Mof_N 	N 	0.4411	0.97481	0.8062	-0.229
Mof_N 	N 	0.3992	0.90742	0.9264	-0.261
Mof_H 	H 	0.4217	0.9119	0.957	0.133
Mof_N 	N 	0.34932	0.83406	0.0244	-0.064
Mof_C 	C 	0.605	0.178	0.5572	-0.118
Mof_H 	H 	0.5784	0.1635	0.5672	0.096
Mof_N 	N 	0.3358	0.83079	0.0925	-0.055
Mof_C 	C 	0.6269	0.12942	0.6791	0.282
Mof_N 	N 	0.30353	0.80544	0.0949	-0.069
Mof_C 	C 	0.646	0.11443	0.748	-0.226
Mof_H 	H 	0.6756	0.1009	0.7393	0.104
Mof_H 	H 	0.6545	0.1334	0.7795	0.114
Mof_N 	N 	0.29649	0.7921	0.0301	-0.235
Mof_C 	C 	0.5862	0.06337	0.7559	0.101
Mof_H 	H 	0.5928	0.0527	0.7132	-0.007
Mof_C 	C 	0.4063	0.97328	0.757	0.019
Mof_H 	H 	0.4096	0.9874	0.7177	-0.006
Mof_C 	C 	0.3655	0.9519	0.7616	-0.029
Mof_H 	H 	0.3412	0.9528	0.7273	0.042
Mof_C 	C 	0.3608	0.9292	0.8168	-0.116
Mof_H 	H 	0.3341	0.914	0.8197	0.094
Mof_C 	C 	0.4357	0.95313	0.8611	-0.051
Mof_H 	H 	0.4592	0.9539	0.8965	0.014
Mof_C 	C 	0.3966	0.92949	0.8678	0.122
Mof_C 	C 	0.3696	0.87993	0.9386	0.303
Mof_C 	C 	0.3861	0.85932	0.0042	-0.278
Mof_H 	H 	0.417	0.8474	0.9945	0.131
Mof_H 	H 	0.3918	0.8755	0.0426	0.127
Mof_C 	C 	0.3253	0.81009	0.9873	0.122
Mof_H 	H 	0.3283	0.8066	0.9394	-0.013
Mof_O 	O 	0.0922	0.38308	0.3528	-0.25
Mof_N 	N 	0.05354	0.44708	0.1979	-0.223
Mof_C 	C 	0.1857	0.30066	0.4199	-0.051
Mof_H 	H 	0.214	0.3012	0.3922	0.027
Mof_O 	O 	0.83449	0.62922	0.0959	-0.248
Mof_C 	C 	0.147	0.3225	0.4013	0.121
Mof_N 	N 	0.056	0.42373	0.1437	-0.076
Mof_N 	N 	0.0888	0.40021	0.157	-0.054
Mof_C 	C 	0.1439	0.27858	0.5131	0.002
Mof_H 	H 	0.1423	0.2635	0.5511	0.01
Mof_N 	N 	0.1083	0.40796	0.2193	-0.06
Mof_C 	C 	0.1035	0.29964	0.4988	-0.021
Mof_H 	H 	0.0756	0.2986	0.527	0.032
Mof_N 	N 	0.1539	0.34317	0.341	-0.256
Mof_H 	H 	0.1782	0.3375	0.3143	0.129
Mof_N 	N 	0.1855	0.27911	0.4738	-0.225
Mof_N 	N 	0.9411	0.52519	0.1938	-0.221
Mof_N 	N 	0.8992	0.59258	0.0736	-0.25
Mof_H 	H 	0.9217	0.5881	0.043	0.127
Mof_N 	N 	0.84932	0.66594	0.9756	-0.05
Mof_C 	C 	0.105	0.322	0.4428	-0.12
Mof_H 	H 	0.0784	0.3365	0.4328	0.09
Mof_N 	N 	0.8358	0.66921	0.9075	-0.049
Mof_C 	C 	0.1269	0.37058	0.3209	0.28
Mof_N 	N 	0.80353	0.69456	0.9051	-0.066
Mof_C 	C 	0.146	0.38557	0.252	-0.227
Mof_H 	H 	0.1756	0.3991	0.2607	0.103
Mof_H 	H 	0.1545	0.3666	0.2205	0.111
Mof_N 	N 	0.79649	0.7079	0.9699	-0.206
Mof_C 	C 	0.0862	0.43663	0.2441	0.097
Mof_H 	H 	0.0928	0.4473	0.2868	-0.009
Mof_C 	C 	0.9063	0.52672	0.243	0.021
Mof_H 	H 	0.9096	0.5126	0.2823	-0.002
Mof_C 	C 	0.8655	0.5481	0.2384	-0.029
Mof_H 	H 	0.8412	0.5472	0.2727	0.043
Mof_C 	C 	0.8608	0.5708	0.1832	-0.113
Mof_H 	H 	0.8341	0.586	0.1803	0.093
Mof_C 	C 	0.9357	0.54687	0.1389	-0.049
Mof_H 	H 	0.9592	0.5461	0.1035	0.019
Mof_C 	C 	0.8966	0.57051	0.1322	0.119
Mof_C 	C 	0.8696	0.62007	0.0614	0.254
Mof_C 	C 	0.8861	0.64068	0.9958	-0.165
Mof_H 	H 	0.917	0.6526	0.0055	0.082
Mof_H 	H 	0.8918	0.6245	0.9574	0.107
Mof_C 	C 	0.8253	0.68991	0.0127	0.054
Mof_H 	H 	0.8283	0.6934	0.0606	0.004
Mof_O 	O 	0.4078	0.61692	0.8528	-0.242
Mof_N 	N 	0.44646	0.55292	0.6979	-0.218
Mof_C 	C 	0.3143	0.69934	0.9199	-0.068
Mof_H 	H 	0.286	0.6988	0.8922	0.035
Mof_O 	O 	0.66551	0.37078	0.5959	-0.251
Mof_C 	C 	0.353	0.6775	0.9013	0.155
Mof_N 	N 	0.444	0.57627	0.6437	-0.067
Mof_N 	N 	0.4112	0.59979	0.657	-0.05
Mof_C 	C 	0.3561	0.72142	0.0131	-0.087
Mof_H 	H 	0.3577	0.7365	0.0511	0.039
Mof_N 	N 	0.3917	0.59204	0.7193	-0.059
Mof_C 	C 	0.3965	0.70036	0.9988	0.1
Mof_H 	H 	0.4244	0.7014	0.027	-0.015
Mof_N 	N 	0.3461	0.65683	0.841	-0.262
Mof_H 	H 	0.3218	0.6625	0.8143	0.132
Mof_N 	N 	0.3145	0.72089	0.9738	-0.196
Mof_N 	N 	0.5589	0.47481	0.6938	-0.229
Mof_N 	N 	0.6008	0.40742	0.5736	-0.255
Mof_H 	H 	0.5783	0.4119	0.543	0.128
Mof_N 	N 	0.65068	0.33406	0.4756	-0.058
Mof_C 	C 	0.395	0.678	0.9428	-0.184
Mof_H 	H 	0.4216	0.6635	0.9328	0.122
Mof_N 	N 	0.6642	0.33079	0.4075	-0.052
Mof_C 	C 	0.3731	0.62942	0.8209	0.283
Mof_N 	N 	0.69647	0.30544	0.4051	-0.068
Mof_C 	C 	0.354	0.61443	0.752	-0.227
Mof_H 	H 	0.3244	0.6009	0.7607	0.104
Mof_H 	H 	0.3455	0.6334	0.7205	0.113
Mof_N 	N 	0.70351	0.2921	0.4699	-0.221
Mof_C 	C 	0.4138	0.56337	0.7441	0.1
Mof_H 	H 	0.4072	0.5527	0.7868	-0.005
Mof_C 	C 	0.5937	0.47328	0.743	0.02
Mof_H 	H 	0.5904	0.4874	0.7823	-0.005
Mof_C 	C 	0.6345	0.4519	0.7384	-0.03
Mof_H 	H 	0.6588	0.4528	0.7727	0.044
Mof_C 	C 	0.6392	0.4292	0.6832	-0.113
Mof_H 	H 	0.6659	0.414	0.6803	0.094
Mof_C 	C 	0.5643	0.45313	0.6389	-0.049
Mof_H 	H 	0.5408	0.4539	0.6035	0.011
Mof_C 	C 	0.6034	0.42949	0.6322	0.119
Mof_C 	C 	0.6304	0.37993	0.5614	0.276
Mof_C 	C 	0.6139	0.35932	0.4958	-0.219
Mof_H 	H 	0.583	0.3474	0.5055	0.103
Mof_H 	H 	0.6082	0.3755	0.4574	0.115
Mof_C 	C 	0.6747	0.31009	0.5127	0.088
Mof_H 	H 	0.6717	0.3066	0.5606	-0.005
Mof_O 	O 	0.5922	0.61692	0.8528	-0.242
Mof_N 	N 	0.55354	0.55292	0.6979	-0.218
Mof_C 	C 	0.6857	0.69934	0.9199	-0.068
Mof_H 	H 	0.714	0.6988	0.8922	0.035
Mof_O 	O 	0.33449	0.37078	0.5959	-0.252
Mof_C 	C 	0.647	0.6775	0.9013	0.155
Mof_N 	N 	0.556	0.57627	0.6437	-0.067
Mof_N 	N 	0.5888	0.59979	0.657	-0.05
Mof_C 	C 	0.6439	0.72142	0.0131	-0.087
Mof_H 	H 	0.6423	0.7365	0.0511	0.039
Mof_N 	N 	0.6083	0.59204	0.7193	-0.059
Mof_C 	C 	0.6035	0.70036	0.9988	0.1
Mof_H 	H 	0.5756	0.7014	0.027	-0.015
Mof_N 	N 	0.6539	0.65683	0.841	-0.262
Mof_H 	H 	0.6782	0.6625	0.8143	0.132
Mof_N 	N 	0.6855	0.72089	0.9738	-0.196
Mof_N 	N 	0.4411	0.47481	0.6938	-0.229
Mof_N 	N 	0.3992	0.40742	0.5736	-0.255
Mof_H 	H 	0.4217	0.4119	0.543	0.128
Mof_N 	N 	0.34932	0.33406	0.4756	-0.058
Mof_C 	C 	0.605	0.678	0.9428	-0.185
Mof_H 	H 	0.5784	0.6635	0.9328	0.122
Mof_N 	N 	0.3358	0.33079	0.4075	-0.052
Mof_C 	C 	0.6269	0.62942	0.8209	0.284
Mof_N 	N 	0.30353	0.30544	0.4051	-0.068
Mof_C 	C 	0.646	0.61443	0.752	-0.227
Mof_H 	H 	0.6756	0.6009	0.7607	0.104
Mof_H 	H 	0.6545	0.6334	0.7205	0.113
Mof_N 	N 	0.29649	0.2921	0.4699	-0.221
Mof_C 	C 	0.5862	0.56337	0.7441	0.1
Mof_H 	H 	0.5928	0.5527	0.7868	-0.005
Mof_C 	C 	0.4063	0.47328	0.743	0.02
Mof_H 	H 	0.4096	0.4874	0.7823	-0.005
Mof_C 	C 	0.3655	0.4519	0.7384	-0.03
Mof_H 	H 	0.3412	0.4528	0.7727	0.044
Mof_C 	C 	0.3608	0.4292	0.6832	-0.113
Mof_H 	H 	0.3341	0.414	0.6803	0.093
Mof_C 	C 	0.4357	0.45313	0.6389	-0.049
Mof_H 	H 	0.4592	0.4539	0.6035	0.011
Mof_C 	C 	0.3966	0.42949	0.6322	0.118
Mof_C 	C 	0.3696	0.37993	0.5614	0.276
Mof_C 	C 	0.3861	0.35932	0.4958	-0.219
Mof_H 	H 	0.417	0.3474	0.5055	0.103
Mof_H 	H 	0.3918	0.3755	0.4574	0.115
Mof_C 	C 	0.3253	0.31009	0.5127	0.087
Mof_H 	H 	0.3283	0.3066	0.5606	-0.006
Mof_O 	O 	0.9078	0.38308	0.3528	-0.236
Mof_N 	N 	0.94646	0.44708	0.1979	-0.21
Mof_C 	C 	0.8143	0.30066	0.4199	-0.05
Mof_H 	H 	0.786	0.3012	0.3922	0.028
Mof_O 	O 	0.16551	0.62922	0.0959	-0.248
Mof_C 	C 	0.853	0.3225	0.4013	0.125
Mof_N 	N 	0.944	0.42373	0.1437	-0.062
Mof_N 	N 	0.9112	0.40021	0.157	-0.049
Mof_C 	C 	0.8561	0.27858	0.5131	0.006
Mof_H 	H 	0.8577	0.2635	0.5511	0.014
Mof_N 	N 	0.8917	0.40796	0.2193	-0.059
Mof_C 	C 	0.8965	0.29964	0.4988	-0.017
Mof_H 	H 	0.9244	0.2986	0.527	0.045
Mof_N 	N 	0.8461	0.34317	0.341	-0.255
Mof_H 	H 	0.8218	0.3375	0.3143	0.131
Mof_N 	N 	0.8145	0.27911	0.4738	-0.224
Mof_N 	N 	0.0589	0.52519	0.1938	-0.235
Mof_N 	N 	0.1008	0.59258	0.0736	-0.248
Mof_H 	H 	0.0783	0.5881	0.043	0.117
Mof_N 	N 	0.15068	0.66594	0.9756	-0.053
Mof_C 	C 	0.895	0.322	0.4428	-0.117
Mof_H 	H 	0.9216	0.3365	0.4328	0.102
Mof_N 	N 	0.1642	0.66921	0.9075	-0.051
Mof_C 	C 	0.8731	0.37058	0.3209	0.281
Mof_N 	N 	0.19647	0.69456	0.9051	-0.067
Mof_C 	C 	0.854	0.38557	0.252	-0.224
Mof_H 	H 	0.8244	0.3991	0.2607	0.102
Mof_H 	H 	0.8455	0.3666	0.2205	0.113
Mof_N 	N 	0.20351	0.7079	0.9699	-0.206
Mof_C 	C 	0.9138	0.43663	0.2441	0.102
Mof_H 	H 	0.9072	0.4473	0.2868	-0.003
Mof_C 	C 	0.0937	0.52672	0.243	0.02
Mof_H 	H 	0.0904	0.5126	0.2823	-0.011
Mof_C 	C 	0.1345	0.5481	0.2384	-0.036
Mof_H 	H 	0.1588	0.5472	0.2727	0.042
Mof_C 	C 	0.1392	0.5708	0.1832	-0.111
Mof_H 	H 	0.1659	0.586	0.1803	0.09
Mof_C 	C 	0.0643	0.54687	0.1389	-0.049
Mof_H 	H 	0.0408	0.5461	0.1035	0
Mof_C 	C 	0.1034	0.57051	0.1322	0.11
Mof_C 	C 	0.1304	0.62007	0.0614	0.246
Mof_C 	C 	0.1139	0.64068	0.9958	-0.157
Mof_H 	H 	0.083	0.6526	0.0055	0.067
Mof_H 	H 	0.1082	0.6245	0.9574	0.1
Mof_C 	C 	0.1747	0.68991	0.0127	0.053
Mof_H 	H 	0.1717	0.6934	0.0606	0.001
Mof_O 	O 	0.4078	0.11692	0.6472	-0.243
Mof_N 	N 	0.44646	0.05292	0.8021	-0.217
Mof_C 	C 	0.3143	0.19934	0.5801	-0.051
Mof_H 	H 	0.286	0.1988	0.6078	0.028
Mof_O 	O 	0.66551	0.87078	0.9041	-0.255
Mof_C 	C 	0.353	0.1775	0.5987	0.123
Mof_N 	N 	0.444	0.07627	0.8563	-0.064
Mof_N 	N 	0.4112	0.09979	0.843	-0.048
Mof_C 	C 	0.3561	0.22142	0.4869	0.004
Mof_H 	H 	0.3577	0.2365	0.4489	0.011
Mof_N 	N 	0.3917	0.09204	0.7807	-0.059
Mof_C 	C 	0.3965	0.20036	0.5012	-0.019
Mof_H 	H 	0.4244	0.2014	0.473	0.038
Mof_N 	N 	0.3461	0.15683	0.659	-0.256
Mof_H 	H 	0.3218	0.1625	0.6857	0.131
Mof_N 	N 	0.3145	0.22089	0.5262	-0.224
Mof_N 	N 	0.5589	0.97481	0.8062	-0.229
Mof_N 	N 	0.6008	0.90742	0.9264	-0.261
Mof_H 	H 	0.5783	0.9119	0.957	0.133
Mof_N 	N 	0.65068	0.83406	0.0244	-0.064
Mof_C 	C 	0.395	0.178	0.5572	-0.118
Mof_H 	H 	0.4216	0.1635	0.5672	0.096
Mof_N 	N 	0.6642	0.83079	0.0925	-0.054
Mof_C 	C 	0.3731	0.12942	0.6791	0.281
Mof_N 	N 	0.69647	0.80544	0.0949	-0.069
Mof_C 	C 	0.354	0.11443	0.748	-0.226
Mof_H 	H 	0.3244	0.1009	0.7393	0.103
Mof_H 	H 	0.3455	0.1334	0.7795	0.113
Mof_N 	N 	0.70351	0.7921	0.0301	-0.235
Mof_C 	C 	0.4138	0.06337	0.7559	0.101
Mof_H 	H 	0.4072	0.0527	0.7132	-0.007
Mof_C 	C 	0.5937	0.97328	0.757	0.019
Mof_H 	H 	0.5904	0.9874	0.7177	-0.006
Mof_C 	C 	0.6345	0.9519	0.7616	-0.029
Mof_H 	H 	0.6588	0.9528	0.7273	0.042
Mof_C 	C 	0.6392	0.9292	0.8168	-0.116
Mof_H 	H 	0.6659	0.914	0.8197	0.095
Mof_C 	C 	0.5643	0.95313	0.8611	-0.051
Mof_H 	H 	0.5408	0.9539	0.8965	0.014
Mof_C 	C 	0.6034	0.92949	0.8678	0.122
Mof_C 	C 	0.6304	0.87993	0.9386	0.303
Mof_C 	C 	0.6139	0.85932	0.0042	-0.278
Mof_H 	H 	0.583	0.8474	0.9945	0.131
Mof_H 	H 	0.6082	0.8755	0.0426	0.128
Mof_C 	C 	0.6747	0.81009	0.9873	0.122
Mof_H 	H 	0.6717	0.8066	0.9394	-0.013
Mof_O 	O 	0.0922	0.88308	0.1472	-0.251
Mof_N 	N 	0.05354	0.94708	0.3021	-0.223
Mof_C 	C 	0.1857	0.80066	0.0801	-0.034
Mof_H 	H 	0.214	0.8012	0.1078	0.021
Mof_O 	O 	0.83449	0.12922	0.4041	-0.252
Mof_C 	C 	0.147	0.8225	0.0987	0.09
Mof_N 	N 	0.056	0.92373	0.3563	-0.073
Mof_N 	N 	0.0888	0.90021	0.343	-0.052
Mof_C 	C 	0.1439	0.77858	0.9869	0.093
Mof_H 	H 	0.1423	0.7635	0.9489	-0.018
Mof_N 	N 	0.1083	0.90796	0.2807	-0.06
Mof_C 	C 	0.1035	0.79964	0.0012	-0.138
Mof_H 	H 	0.0756	0.7986	0.973	0.085
Mof_N 	N 	0.1539	0.84317	0.159	-0.251
Mof_H 	H 	0.1782	0.8375	0.1857	0.128
Mof_N 	N 	0.1855	0.77911	0.0262	-0.251
Mof_N 	N 	0.9411	0.02519	0.3062	-0.221
Mof_N 	N 	0.8992	0.09258	0.4264	-0.256
Mof_H 	H 	0.9217	0.0881	0.457	0.133
Mof_N 	N 	0.84932	0.16594	0.5244	-0.056
Mof_C 	C 	0.105	0.822	0.0572	-0.054
Mof_H 	H 	0.0784	0.8365	0.0672	0.065
Mof_N 	N 	0.8358	0.16921	0.5925	-0.051
Mof_C 	C 	0.1269	0.87058	0.1791	0.278
Mof_N 	N 	0.80353	0.19456	0.5949	-0.067
Mof_C 	C 	0.146	0.88557	0.248	-0.226
Mof_H 	H 	0.1756	0.8991	0.2393	0.102
Mof_H 	H 	0.1545	0.8666	0.2795	0.111
Mof_N 	N 	0.79649	0.2079	0.5301	-0.221
Mof_C 	C 	0.0862	0.93663	0.2559	0.098
Mof_H 	H 	0.0928	0.9473	0.2132	-0.01
Mof_C 	C 	0.9063	0.02672	0.257	0.02
Mof_H 	H 	0.9096	0.0126	0.2177	-0.003
Mof_C 	C 	0.8655	0.0481	0.2616	-0.028
Mof_H 	H 	0.8412	0.0472	0.2273	0.041
Mof_C 	C 	0.8608	0.0708	0.3168	-0.116
Mof_H 	H 	0.8341	0.086	0.3197	0.094
Mof_C 	C 	0.9357	0.04687	0.3611	-0.05
Mof_H 	H 	0.9592	0.0461	0.3965	0.022
Mof_C 	C 	0.8966	0.07051	0.3678	0.123
Mof_C 	C 	0.8696	0.12007	0.4386	0.28
Mof_C 	C 	0.8861	0.14068	0.5042	-0.224
Mof_H 	H 	0.917	0.1526	0.4945	0.11
Mof_H 	H 	0.8918	0.1245	0.5426	0.119
Mof_C 	C 	0.8253	0.18991	0.4873	0.088
Mof_H 	H 	0.8283	0.1934	0.4394	-0.005
Mof_Co	Co	1.09929e-32	0.98789	0.30238	1.062
Mof_Co	Co	0.5	0.01211	0.80238	1.078
Mof_Co	Co	-3.29986e-33	0.48789	0.19762	1.061
Mof_Co	Co	0.5	0.51211	0.69762	1.077
Mof_Co	Co	0.25	0.75	-0	1.069
Mof_Co	Co	0.75	0.25	0.5	1.077
Mof_Co	Co	0.25	0.25	0.5	1.077
Mof_Co	Co	0.75	0.75	-0	1.07
_end
