data_functionalizedCrystal
_audit_creation_method	'EQeq! by Chris Wilmer'
_symmetry_space_group_name_H-M	'P1'
_symmetry_Int_Tables_number	1
_symmetry_cell_setting	triclinic
loop_
_symmetry_equiv_pos_as_xyz
  x,y,z
_cell_length_a	23.7151
_cell_length_b	23.7151
_cell_length_c	23.7151
_cell_angle_alpha	109.471
_cell_angle_beta	109.471
_cell_angle_gamma	109.471
loop_
_atom_site_label
_atom_site_type_symbol
_atom_site_fract_x
_atom_site_fract_y
_atom_site_fract_z
_atom_site_charge
Mof_Co	Co	0.44512	0.55914	0.00426	1.187
Mof_Co	Co	0.55488	0.44086	0.99574	1.182
Mof_Co	Co	0.44512	0.44085	0.88598	1.184
Mof_Co	Co	0.55488	0.55915	0.11402	1.185
Mof_Co	Co	0.88598	0.44512	0.44086	1.184
Mof_Co	Co	0.11402	0.55488	0.55914	1.185
Mof_Co	Co	0.00427	0.44513	0.55915	1.187
Mof_Co	Co	0.99573	0.55487	0.44085	1.182
Mof_Co	Co	0.44086	0.99574	0.55488	1.182
Mof_Co	Co	0.55914	0.00426	0.44512	1.187
Mof_Co	Co	0.55914	0.11402	0.55487	1.185
Mof_Co	Co	0.44086	0.88598	0.44513	1.184
Mof_Co	Co	0.5	0.66879	0.16879	1.174
Mof_Co	Co	0.5	0.33121	0.83121	1.174
Mof_Co	Co	0.83121	0.5	0.33121	1.174
Mof_Co	Co	0.16879	0.5	0.66879	1.174
Mof_Co	Co	0.33121	0.83121	0.5	1.174
Mof_Co	Co	0.66879	0.16879	0.5	1.174
Mof_H 	H 	0.5062	0.888	0.9068	0.065
Mof_H 	H 	0.5402	0.8173	0.9403	0.074
Mof_H 	H 	0.5122	0.7253	0.9589	0.022
Mof_H 	H 	0.5145	0.8371	0.1296	0.023
Mof_H 	H 	0.5437	0.9307	0.1128	0.075
Mof_H 	H 	0.9812	0.5994	0.0932	0.063
Mof_H 	H 	0.877	0.5999	0.0597	0.072
Mof_H 	H 	0.7664	0.5533	0.0411	0.02
Mof_H 	H 	0.7075	0.3849	0.8704	0.021
Mof_H 	H 	0.8179	0.4309	0.8872	0.077
Mof_H 	H 	0.0188	0.112	0.6182	0.063
Mof_H 	H 	0.123	0.1827	0.7229	0.074
Mof_H 	H 	0.2336	0.2747	0.7869	0.021
Mof_H 	H 	0.2925	0.1629	0.6774	0.023
Mof_H 	H 	0.1821	0.0693	0.613	0.079
Mof_H 	H 	0.4938	0.4006	0.3818	0.064
Mof_H 	H 	0.4598	0.4001	0.2771	0.074
Mof_H 	H 	0.4878	0.4467	0.2131	0.022
Mof_H 	H 	0.4855	0.6151	0.3226	0.022
Mof_H 	H 	0.4563	0.5691	0.387	0.077
Mof_H 	H 	0.6182	0.0188	0.112	0.063
Mof_H 	H 	0.7229	0.123	0.1827	0.074
Mof_H 	H 	0.7869	0.2336	0.2747	0.021
Mof_H 	H 	0.6774	0.2925	0.1629	0.023
Mof_H 	H 	0.613	0.1821	0.0693	0.079
Mof_H 	H 	0.3818	0.4938	0.4006	0.064
Mof_H 	H 	0.2771	0.4598	0.4001	0.074
Mof_H 	H 	0.2131	0.4878	0.4467	0.022
Mof_H 	H 	0.3226	0.4855	0.6151	0.022
Mof_H 	H 	0.387	0.4563	0.5691	0.077
Mof_H 	H 	0.9068	0.5062	0.888	0.065
Mof_H 	H 	0.9403	0.5402	0.8173	0.074
Mof_H 	H 	0.9589	0.5122	0.7253	0.022
Mof_H 	H 	0.1296	0.5145	0.8371	0.023
Mof_H 	H 	0.1128	0.5437	0.9307	0.075
Mof_H 	H 	0.0932	0.9812	0.5994	0.063
Mof_H 	H 	0.0597	0.877	0.5999	0.072
Mof_H 	H 	0.0411	0.7664	0.5533	0.02
Mof_H 	H 	0.8704	0.7075	0.3849	0.021
Mof_H 	H 	0.8872	0.8179	0.4309	0.077
Mof_H 	H 	0.5994	0.0932	0.9812	0.063
Mof_H 	H 	0.5999	0.0597	0.877	0.072
Mof_H 	H 	0.5533	0.0411	0.7664	0.02
Mof_H 	H 	0.3849	0.8704	0.7075	0.021
Mof_H 	H 	0.4309	0.8872	0.8179	0.077
Mof_H 	H 	0.888	0.9068	0.5062	0.065
Mof_H 	H 	0.8173	0.9403	0.5402	0.074
Mof_H 	H 	0.7253	0.9589	0.5122	0.022
Mof_H 	H 	0.8371	0.1296	0.5145	0.023
Mof_H 	H 	0.9307	0.1128	0.5437	0.075
Mof_H 	H 	0.4006	0.3818	0.4938	0.064
Mof_H 	H 	0.4001	0.2771	0.4598	0.074
Mof_H 	H 	0.4467	0.2131	0.4878	0.022
Mof_H 	H 	0.6151	0.3226	0.4855	0.022
Mof_H 	H 	0.5691	0.387	0.4563	0.077
Mof_H 	H 	0.112	0.6182	0.0188	0.063
Mof_H 	H 	0.1827	0.7229	0.123	0.074
Mof_H 	H 	0.2747	0.7869	0.2336	0.021
Mof_H 	H 	0.1629	0.6774	0.2925	0.023
Mof_H 	H 	0.0693	0.613	0.1821	0.079
Mof_H 	H 	0.4938	0.112	0.0932	0.062
Mof_H 	H 	0.4598	0.1827	0.0597	0.073
Mof_H 	H 	0.4878	0.2747	0.0411	0.02
Mof_H 	H 	0.4855	0.1629	0.8704	0.022
Mof_H 	H 	0.4563	0.0693	0.8872	0.079
Mof_H 	H 	0.0188	0.4006	0.9068	0.065
Mof_H 	H 	0.123	0.4001	0.9403	0.075
Mof_H 	H 	0.2336	0.4467	0.9589	0.023
Mof_H 	H 	0.2925	0.6151	0.1296	0.024
Mof_H 	H 	0.1821	0.5691	0.1128	0.077
Mof_H 	H 	0.9812	0.888	0.3818	0.064
Mof_H 	H 	0.877	0.8173	0.2771	0.073
Mof_H 	H 	0.7664	0.7253	0.2131	0.021
Mof_H 	H 	0.7075	0.8371	0.3226	0.022
Mof_H 	H 	0.8179	0.9307	0.387	0.075
Mof_H 	H 	0.5062	0.5994	0.6182	0.063
Mof_H 	H 	0.5402	0.5999	0.7229	0.073
Mof_H 	H 	0.5122	0.5533	0.7869	0.02
Mof_H 	H 	0.5145	0.3849	0.6774	0.023
Mof_H 	H 	0.5437	0.4309	0.613	0.077
Mof_H 	H 	0.3818	0.9812	0.888	0.064
Mof_H 	H 	0.2771	0.877	0.8173	0.073
Mof_H 	H 	0.2131	0.7664	0.7253	0.021
Mof_H 	H 	0.3226	0.7075	0.8371	0.022
Mof_H 	H 	0.387	0.8179	0.9307	0.075
Mof_H 	H 	0.6182	0.5062	0.5994	0.063
Mof_H 	H 	0.7229	0.5402	0.5999	0.073
Mof_H 	H 	0.7869	0.5122	0.5533	0.02
Mof_H 	H 	0.6774	0.5145	0.3849	0.023
Mof_H 	H 	0.613	0.5437	0.4309	0.077
Mof_H 	H 	0.0932	0.4938	0.112	0.062
Mof_H 	H 	0.0597	0.4598	0.1827	0.073
Mof_H 	H 	0.0411	0.4878	0.2747	0.02
Mof_H 	H 	0.8704	0.4855	0.1629	0.022
Mof_H 	H 	0.8872	0.4563	0.0693	0.079
Mof_H 	H 	0.9068	0.0188	0.4006	0.065
Mof_H 	H 	0.9403	0.123	0.4001	0.075
Mof_H 	H 	0.9589	0.2336	0.4467	0.023
Mof_H 	H 	0.1296	0.2925	0.6151	0.024
Mof_H 	H 	0.1128	0.1821	0.5691	0.077
Mof_H 	H 	0.4006	0.9068	0.0188	0.065
Mof_H 	H 	0.4001	0.9403	0.123	0.075
Mof_H 	H 	0.4467	0.9589	0.2336	0.023
Mof_H 	H 	0.6151	0.1296	0.2925	0.024
Mof_H 	H 	0.5691	0.1128	0.1821	0.077
Mof_H 	H 	0.112	0.0932	0.4938	0.062
Mof_H 	H 	0.1827	0.0597	0.4598	0.073
Mof_H 	H 	0.2747	0.0411	0.4878	0.02
Mof_H 	H 	0.1629	0.8704	0.4855	0.022
Mof_H 	H 	0.0693	0.8872	0.4563	0.079
Mof_H 	H 	0.5994	0.6182	0.5062	0.063
Mof_H 	H 	0.5999	0.7229	0.5402	0.073
Mof_H 	H 	0.5533	0.7869	0.5122	0.02
Mof_H 	H 	0.3849	0.6774	0.5145	0.023
Mof_H 	H 	0.4309	0.613	0.5437	0.077
Mof_H 	H 	0.888	0.3818	0.9812	0.064
Mof_H 	H 	0.8173	0.2771	0.877	0.073
Mof_H 	H 	0.7253	0.2131	0.7664	0.021
Mof_H 	H 	0.8371	0.3226	0.7075	0.022
Mof_H 	H 	0.9307	0.387	0.8179	0.075
Mof_C 	C 	0.53455	0.93299	0.94404	-0.102
Mof_C 	C 	0.56152	0.94361	0.01229	0.028
Mof_C 	C 	0.54439	0.88472	0.02423	0.06
Mof_C 	C 	0.53525	0.82162	0.97855	-0.131
Mof_C 	C 	0.51929	0.76688	0.99005	0.046
Mof_C 	C 	0.5136	0.77332	0.04832	-0.128
Mof_C 	C 	0.52081	0.83376	0.09221	0.057
Mof_C 	C 	0.53732	0.88965	0.08155	-0.127
Mof_C 	C 	0.49884	0.71422	0.06232	0.395
Mof_C 	C 	0.98895	0.59051	0.05596	-0.096
Mof_C 	C 	0.93132	0.54923	0.98771	0.026
Mof_C 	C 	0.86049	0.52016	0.97577	0.046
Mof_C 	C 	0.84307	0.5567	0.02145	-0.118
Mof_C 	C 	0.77683	0.52924	0.00995	0.066
Mof_C 	C 	0.725	0.46528	0.95168	-0.148
Mof_C 	C 	0.74155	0.4286	0.90779	0.062
Mof_C 	C 	0.8081	0.45577	0.91845	-0.128
Mof_C 	C 	0.6519	0.43652	0.93768	0.4
Mof_C 	C 	0.01105	0.06701	0.60156	-0.086
Mof_C 	C 	0.06868	0.05639	0.61791	0.035
Mof_C 	C 	0.13951	0.11528	0.65967	0.053
Mof_C 	C 	0.15693	0.17838	0.71363	-0.124
Mof_C 	C 	0.22317	0.23312	0.75241	0.056
Mof_C 	C 	0.275	0.22668	0.74028	-0.138
Mof_C 	C 	0.25845	0.16624	0.68705	0.06
Mof_C 	C 	0.1919	0.11035	0.64767	-0.127
Mof_C 	C 	0.3481	0.28578	0.78462	0.398
Mof_C 	C 	0.46545	0.40949	0.39844	-0.095
Mof_C 	C 	0.43848	0.45077	0.38209	0.03
Mof_C 	C 	0.45561	0.47984	0.34033	0.053
Mof_C 	C 	0.46475	0.4433	0.28637	-0.124
Mof_C 	C 	0.48071	0.47076	0.24759	0.056
Mof_C 	C 	0.4864	0.53472	0.25972	-0.137
Mof_C 	C 	0.47919	0.5714	0.31295	0.06
Mof_C 	C 	0.46268	0.54423	0.35233	-0.127
Mof_C 	C 	0.50116	0.56348	0.21538	0.398
Mof_C 	C 	0.60156	0.01105	0.06701	-0.086
Mof_C 	C 	0.61791	0.06868	0.05639	0.035
Mof_C 	C 	0.65967	0.13951	0.11528	0.053
Mof_C 	C 	0.71363	0.15693	0.17838	-0.124
Mof_C 	C 	0.75241	0.22317	0.23312	0.056
Mof_C 	C 	0.74028	0.275	0.22668	-0.138
Mof_C 	C 	0.68705	0.25845	0.16624	0.06
Mof_C 	C 	0.64767	0.1919	0.11035	-0.127
Mof_C 	C 	0.78462	0.3481	0.28578	0.398
Mof_C 	C 	0.39844	0.46545	0.40949	-0.095
Mof_C 	C 	0.38209	0.43848	0.45077	0.03
Mof_C 	C 	0.34033	0.45561	0.47984	0.053
Mof_C 	C 	0.28637	0.46475	0.4433	-0.124
Mof_C 	C 	0.24759	0.48071	0.47076	0.056
Mof_C 	C 	0.25972	0.4864	0.53472	-0.137
Mof_C 	C 	0.31295	0.47919	0.5714	0.06
Mof_C 	C 	0.35233	0.46268	0.54423	-0.127
Mof_C 	C 	0.21538	0.50116	0.56348	0.398
Mof_C 	C 	0.94404	0.53455	0.93299	-0.102
Mof_C 	C 	0.01229	0.56152	0.94361	0.028
Mof_C 	C 	0.02423	0.54439	0.88472	0.06
Mof_C 	C 	0.97855	0.53525	0.82162	-0.131
Mof_C 	C 	0.99005	0.51929	0.76688	0.046
Mof_C 	C 	0.04832	0.5136	0.77332	-0.128
Mof_C 	C 	0.09221	0.52081	0.83376	0.057
Mof_C 	C 	0.08155	0.53732	0.88965	-0.127
Mof_C 	C 	0.06232	0.49884	0.71422	0.395
Mof_C 	C 	0.05596	0.98895	0.59051	-0.096
Mof_C 	C 	0.98771	0.93132	0.54923	0.026
Mof_C 	C 	0.97577	0.86049	0.52016	0.046
Mof_C 	C 	0.02145	0.84307	0.5567	-0.118
Mof_C 	C 	0.00995	0.77683	0.52924	0.066
Mof_C 	C 	0.95168	0.725	0.46528	-0.148
Mof_C 	C 	0.90779	0.74155	0.4286	0.062
Mof_C 	C 	0.91845	0.8081	0.45577	-0.128
Mof_C 	C 	0.93768	0.6519	0.43652	0.4
Mof_C 	C 	0.59051	0.05596	0.98895	-0.096
Mof_C 	C 	0.54923	0.98771	0.93132	0.026
Mof_C 	C 	0.52016	0.97577	0.86049	0.046
Mof_C 	C 	0.5567	0.02145	0.84307	-0.118
Mof_C 	C 	0.52924	0.00995	0.77683	0.066
Mof_C 	C 	0.46528	0.95168	0.725	-0.148
Mof_C 	C 	0.4286	0.90779	0.74155	0.062
Mof_C 	C 	0.45577	0.91845	0.8081	-0.128
Mof_C 	C 	0.43652	0.93768	0.6519	0.4
Mof_C 	C 	0.93299	0.94404	0.53455	-0.102
Mof_C 	C 	0.94361	0.01229	0.56152	0.028
Mof_C 	C 	0.88472	0.02423	0.54439	0.06
Mof_C 	C 	0.82162	0.97855	0.53525	-0.131
Mof_C 	C 	0.76688	0.99005	0.51929	0.046
Mof_C 	C 	0.77332	0.04832	0.5136	-0.128
Mof_C 	C 	0.83376	0.09221	0.52081	0.057
Mof_C 	C 	0.88965	0.08155	0.53732	-0.127
Mof_C 	C 	0.71422	0.06232	0.49884	0.395
Mof_C 	C 	0.40949	0.39844	0.46545	-0.095
Mof_C 	C 	0.45077	0.38209	0.43848	0.03
Mof_C 	C 	0.47984	0.34033	0.45561	0.053
Mof_C 	C 	0.4433	0.28637	0.46475	-0.124
Mof_C 	C 	0.47076	0.24759	0.48071	0.056
Mof_C 	C 	0.53472	0.25972	0.4864	-0.137
Mof_C 	C 	0.5714	0.31295	0.47919	0.06
Mof_C 	C 	0.54423	0.35233	0.46268	-0.127
Mof_C 	C 	0.56348	0.21538	0.50116	0.398
Mof_C 	C 	0.06701	0.60156	0.01105	-0.086
Mof_C 	C 	0.05639	0.61791	0.06868	0.035
Mof_C 	C 	0.11528	0.65967	0.13951	0.053
Mof_C 	C 	0.17838	0.71363	0.15693	-0.124
Mof_C 	C 	0.23312	0.75241	0.22317	0.056
Mof_C 	C 	0.22668	0.74028	0.275	-0.138
Mof_C 	C 	0.16624	0.68705	0.25845	0.06
Mof_C 	C 	0.11035	0.64767	0.1919	-0.127
Mof_C 	C 	0.28578	0.78462	0.3481	0.398
Mof_C 	C 	0.46545	0.06701	0.05596	-0.087
Mof_C 	C 	0.43848	0.05639	0.98771	0.032
Mof_C 	C 	0.45561	0.11528	0.97577	0.046
Mof_C 	C 	0.46475	0.17838	0.02145	-0.117
Mof_C 	C 	0.48071	0.23312	0.00995	0.066
Mof_C 	C 	0.4864	0.22668	0.95168	-0.148
Mof_C 	C 	0.47919	0.16624	0.90779	0.063
Mof_C 	C 	0.46268	0.11035	0.91845	-0.127
Mof_C 	C 	0.50116	0.28578	0.93768	0.4
Mof_C 	C 	0.01105	0.40949	0.94404	-0.093
Mof_C 	C 	0.06868	0.45077	0.01229	0.034
Mof_C 	C 	0.13951	0.47984	0.02423	0.061
Mof_C 	C 	0.15693	0.4433	0.97855	-0.13
Mof_C 	C 	0.22317	0.47076	0.99005	0.046
Mof_C 	C 	0.275	0.53472	0.04832	-0.128
Mof_C 	C 	0.25845	0.5714	0.09221	0.057
Mof_C 	C 	0.1919	0.54423	0.08155	-0.127
Mof_C 	C 	0.3481	0.56348	0.06232	0.395
Mof_C 	C 	0.98895	0.93299	0.39844	-0.103
Mof_C 	C 	0.93132	0.94361	0.38209	0.025
Mof_C 	C 	0.86049	0.88472	0.34033	0.053
Mof_C 	C 	0.84307	0.82162	0.28637	-0.124
Mof_C 	C 	0.77683	0.76688	0.24759	0.056
Mof_C 	C 	0.725	0.77332	0.25972	-0.138
Mof_C 	C 	0.74155	0.83376	0.31295	0.059
Mof_C 	C 	0.8081	0.88965	0.35233	-0.128
Mof_C 	C 	0.6519	0.71422	0.21538	0.398
Mof_C 	C 	0.53455	0.59051	0.60156	-0.095
Mof_C 	C 	0.56152	0.54923	0.61791	0.029
Mof_C 	C 	0.54439	0.52016	0.65967	0.053
Mof_C 	C 	0.53525	0.5567	0.71363	-0.125
Mof_C 	C 	0.51929	0.52924	0.75241	0.056
Mof_C 	C 	0.5136	0.46528	0.74028	-0.138
Mof_C 	C 	0.52081	0.4286	0.68705	0.06
Mof_C 	C 	0.53732	0.45577	0.64767	-0.127
Mof_C 	C 	0.49884	0.43652	0.78462	0.398
Mof_C 	C 	0.39844	0.98895	0.93299	-0.103
Mof_C 	C 	0.38209	0.93132	0.94361	0.025
Mof_C 	C 	0.34033	0.86049	0.88472	0.053
Mof_C 	C 	0.28637	0.84307	0.82162	-0.124
Mof_C 	C 	0.24759	0.77683	0.76688	0.056
Mof_C 	C 	0.25972	0.725	0.77332	-0.138
Mof_C 	C 	0.31295	0.74155	0.83376	0.059
Mof_C 	C 	0.35233	0.8081	0.88965	-0.128
Mof_C 	C 	0.21538	0.6519	0.71422	0.398
Mof_C 	C 	0.60156	0.53455	0.59051	-0.095
Mof_C 	C 	0.61791	0.56152	0.54923	0.029
Mof_C 	C 	0.65967	0.54439	0.52016	0.053
Mof_C 	C 	0.71363	0.53525	0.5567	-0.125
Mof_C 	C 	0.75241	0.51929	0.52924	0.056
Mof_C 	C 	0.74028	0.5136	0.46528	-0.138
Mof_C 	C 	0.68705	0.52081	0.4286	0.06
Mof_C 	C 	0.64767	0.53732	0.45577	-0.127
Mof_C 	C 	0.78462	0.49884	0.43652	0.398
Mof_C 	C 	0.05596	0.46545	0.06701	-0.087
Mof_C 	C 	0.98771	0.43848	0.05639	0.032
Mof_C 	C 	0.97577	0.45561	0.11528	0.046
Mof_C 	C 	0.02145	0.46475	0.17838	-0.117
Mof_C 	C 	0.00995	0.48071	0.23312	0.066
Mof_C 	C 	0.95168	0.4864	0.22668	-0.148
Mof_C 	C 	0.90779	0.47919	0.16624	0.063
Mof_C 	C 	0.91845	0.46268	0.11035	-0.127
Mof_C 	C 	0.93768	0.50116	0.28578	0.4
Mof_C 	C 	0.94404	0.01105	0.40949	-0.093
Mof_C 	C 	0.01229	0.06868	0.45077	0.034
Mof_C 	C 	0.02423	0.13951	0.47984	0.061
Mof_C 	C 	0.97855	0.15693	0.4433	-0.13
Mof_C 	C 	0.99005	0.22317	0.47076	0.046
Mof_C 	C 	0.04832	0.275	0.53472	-0.128
Mof_C 	C 	0.09221	0.25845	0.5714	0.057
Mof_C 	C 	0.08155	0.1919	0.54423	-0.127
Mof_C 	C 	0.06232	0.3481	0.56348	0.395
Mof_C 	C 	0.40949	0.94404	0.01105	-0.093
Mof_C 	C 	0.45077	0.01229	0.06868	0.034
Mof_C 	C 	0.47984	0.02423	0.13951	0.061
Mof_C 	C 	0.4433	0.97855	0.15693	-0.13
Mof_C 	C 	0.47076	0.99005	0.22317	0.046
Mof_C 	C 	0.53472	0.04832	0.275	-0.128
Mof_C 	C 	0.5714	0.09221	0.25845	0.057
Mof_C 	C 	0.54423	0.08155	0.1919	-0.127
Mof_C 	C 	0.56348	0.06232	0.3481	0.395
Mof_C 	C 	0.06701	0.05596	0.46545	-0.087
Mof_C 	C 	0.05639	0.98771	0.43848	0.032
Mof_C 	C 	0.11528	0.97577	0.45561	0.046
Mof_C 	C 	0.17838	0.02145	0.46475	-0.117
Mof_C 	C 	0.23312	0.00995	0.48071	0.066
Mof_C 	C 	0.22668	0.95168	0.4864	-0.148
Mof_C 	C 	0.16624	0.90779	0.47919	0.063
Mof_C 	C 	0.11035	0.91845	0.46268	-0.127
Mof_C 	C 	0.28578	0.93768	0.50116	0.4
Mof_C 	C 	0.59051	0.60156	0.53455	-0.095
Mof_C 	C 	0.54923	0.61791	0.56152	0.029
Mof_C 	C 	0.52016	0.65967	0.54439	0.053
Mof_C 	C 	0.5567	0.71363	0.53525	-0.125
Mof_C 	C 	0.52924	0.75241	0.51929	0.056
Mof_C 	C 	0.46528	0.74028	0.5136	-0.138
Mof_C 	C 	0.4286	0.68705	0.52081	0.06
Mof_C 	C 	0.45577	0.64767	0.53732	-0.127
Mof_C 	C 	0.43652	0.78462	0.49884	0.398
Mof_C 	C 	0.93299	0.39844	0.98895	-0.103
Mof_C 	C 	0.94361	0.38209	0.93132	0.025
Mof_C 	C 	0.88472	0.34033	0.86049	0.053
Mof_C 	C 	0.82162	0.28637	0.84307	-0.124
Mof_C 	C 	0.76688	0.24759	0.77683	0.056
Mof_C 	C 	0.77332	0.25972	0.725	-0.138
Mof_C 	C 	0.83376	0.31295	0.74155	0.059
Mof_C 	C 	0.88965	0.35233	0.8081	-0.128
Mof_C 	C 	0.71422	0.21538	0.6519	0.398
Mof_O 	O 	0.50004	0.72459	0.11715	-0.441
Mof_O 	O 	0.48193	0.65593	0.01448	-0.436
Mof_O 	O 	0.60744	0.38289	0.88285	-0.443
Mof_O 	O 	0.64145	0.46745	0.98552	-0.444
Mof_O 	O 	0.39256	0.27541	0.77545	-0.442
Mof_O 	O 	0.35855	0.34407	0.826	-0.44
Mof_O 	O 	0.49996	0.61711	0.22455	-0.442
Mof_O 	O 	0.51807	0.53255	0.174	-0.439
Mof_O 	O 	0.77545	0.39256	0.27541	-0.442
Mof_O 	O 	0.826	0.35855	0.34407	-0.44
Mof_O 	O 	0.22455	0.49996	0.61711	-0.442
Mof_O 	O 	0.174	0.51807	0.53255	-0.439
Mof_O 	O 	0.11715	0.50004	0.72459	-0.441
Mof_O 	O 	0.01448	0.48193	0.65593	-0.436
Mof_O 	O 	0.88285	0.60744	0.38289	-0.443
Mof_O 	O 	0.98552	0.64145	0.46745	-0.444
Mof_O 	O 	0.38289	0.88285	0.60744	-0.443
Mof_O 	O 	0.46745	0.98552	0.64145	-0.444
Mof_O 	O 	0.72459	0.11715	0.50004	-0.441
Mof_O 	O 	0.65593	0.01448	0.48193	-0.436
Mof_O 	O 	0.61711	0.22455	0.49996	-0.442
Mof_O 	O 	0.53255	0.174	0.51807	-0.439
Mof_O 	O 	0.27541	0.77545	0.39256	-0.442
Mof_O 	O 	0.34407	0.826	0.35855	-0.44
Mof_O 	O 	0.49996	0.27541	0.88285	-0.443
Mof_O 	O 	0.51807	0.34407	0.98552	-0.444
Mof_O 	O 	0.39256	0.61711	0.11715	-0.441
Mof_O 	O 	0.35855	0.53255	0.01448	-0.436
Mof_O 	O 	0.60744	0.72459	0.22455	-0.442
Mof_O 	O 	0.64145	0.65593	0.174	-0.439
Mof_O 	O 	0.50004	0.38289	0.77545	-0.442
Mof_O 	O 	0.48193	0.46745	0.826	-0.441
Mof_O 	O 	0.22455	0.60744	0.72459	-0.442
Mof_O 	O 	0.174	0.64145	0.65593	-0.439
Mof_O 	O 	0.77545	0.50004	0.38289	-0.442
Mof_O 	O 	0.826	0.48193	0.46745	-0.441
Mof_O 	O 	0.88285	0.49996	0.27541	-0.443
Mof_O 	O 	0.98552	0.51807	0.34407	-0.444
Mof_O 	O 	0.11715	0.39256	0.61711	-0.441
Mof_O 	O 	0.01448	0.35855	0.53255	-0.436
Mof_O 	O 	0.61711	0.11715	0.39256	-0.441
Mof_O 	O 	0.53255	0.01448	0.35855	-0.436
Mof_O 	O 	0.27541	0.88285	0.49996	-0.443
Mof_O 	O 	0.34407	0.98552	0.51807	-0.444
Mof_O 	O 	0.38289	0.77545	0.50004	-0.442
Mof_O 	O 	0.46745	0.826	0.48193	-0.441
Mof_O 	O 	0.72459	0.22455	0.60744	-0.442
Mof_O 	O 	0.65593	0.174	0.64145	-0.439
Mof_O 	O 	0.5	0.58965	0.08965	-0.728
Mof_O 	O 	0.5	0.41035	0.91035	-0.729
Mof_O 	O 	0.91035	0.5	0.41035	-0.729
Mof_O 	O 	0.08965	0.5	0.58965	-0.728
Mof_O 	O 	0.41035	0.91035	0.5	-0.729
Mof_O 	O 	0.58965	0.08965	0.5	-0.728
Mof_O 	O 	0.39889	0.5	0.89889	-0.462
Mof_O 	O 	0.60111	0.5	0.10111	-0.455
Mof_O 	O 	0.89889	0.39889	0.5	-0.462
Mof_O 	O 	0.10111	0.60111	0.5	-0.455
Mof_O 	O 	0.5	0.10111	0.60111	-0.455
Mof_O 	O 	0.5	0.89889	0.39889	-0.462
Mof_O 	O 	0.5	0.5	-0	-0.62
Mof_O 	O 	-5.53635e-17	0.5	0.5	-0.62
Mof_O 	O 	0.5	0	0.5	-0.62
_end
