data_functionalizedCrystal
_audit_creation_method	'EQeq! by Chris Wilmer'
_symmetry_space_group_name_H-M	'P1'
_symmetry_Int_Tables_number	1
_symmetry_cell_setting	triclinic
loop_
_symmetry_equiv_pos_as_xyz
  x,y,z
_cell_length_a	9.8918
_cell_length_b	23.57
_cell_length_c	15.3668
_cell_angle_alpha	90
_cell_angle_beta	90
_cell_angle_gamma	90
loop_
_atom_site_label
_atom_site_type_symbol
_atom_site_fract_x
_atom_site_fract_y
_atom_site_fract_z
_atom_site_charge
Mof_Fe	Fe	0.29528	0.56928	0.13681	1.045
Mof_Fe	Fe	0.49071	0.5	0.27423	0.971
Mof_Fe	Fe	0.70472	0.93072	0.63681	1.061
Mof_Fe	Fe	0.70472	0.06928	0.63681	1.044
Mof_Fe	Fe	0.50929	3.52291e-33	0.77423	0.941
Mof_Fe	Fe	0.29528	0.43072	0.13681	1.046
Mof_H 	H 	0.6129	0.7969	0.0716	0.044
Mof_H 	H 	0.0864	0.2475	0.4093	0.085
Mof_H 	H 	0.9136	0.2525	0.9093	0.051
Mof_H 	H 	0.1317	0.6749	0.319	0.033
Mof_H 	H 	0.1317	0.3251	0.319	0.033
Mof_H 	H 	0.0045	0.2101	0.5375	0.054
Mof_H 	H 	0.9136	0.7475	0.9093	0.051
Mof_H 	H 	0.5676	0.8745	0.9813	0.059
Mof_H 	H 	0.5921	0.302	0.0798	0.07
Mof_H 	H 	0.8426	0.4267	0.1633	0.064
Mof_H 	H 	0.4324	0.3745	0.4813	0.026
Mof_H 	H 	0.6129	0.2031	0.0716	0.042
Mof_H 	H 	0.4324	0.6255	0.4813	0.026
Mof_H 	H 	0.4079	0.198	0.5798	0.051
Mof_H 	H 	0.1574	0.9267	0.6633	0.062
Mof_H 	H 	0.3871	0.2969	0.5716	0.083
Mof_H 	H 	0.5676	0.1255	0.9813	0.053
Mof_H 	H 	0.8683	0.1749	0.819	0.052
Mof_H 	H 	0.9955	0.2899	0.0375	0.075
Mof_H 	H 	0.1574	0.0733	0.6633	0.052
Mof_H 	H 	0.8426	0.5733	0.1633	0.064
Mof_H 	H 	0.0045	0.7899	0.5375	0.055
Mof_H 	H 	0.5921	0.698	0.0798	0.071
Mof_H 	H 	0.3871	0.7031	0.5716	0.083
Mof_H 	H 	0.0864	0.7525	0.4093	0.086
Mof_H 	H 	0.9955	0.7101	0.0375	0.076
Mof_H 	H 	0.4079	0.802	0.5798	0.053
Mof_H 	H 	0.8683	0.8251	0.819	0.054
Mof_C 	C 	0.82937	0.60872	0.135	0.009
Mof_C 	C 	0.92016	0.31005	0.0601	-0.05
Mof_C 	C 	0.79057	0.7122	0.05178	0.05
Mof_C 	C 	0.20943	0.2122	0.55178	-0.027
Mof_C 	C 	0.92016	0.68995	0.0601	-0.05
Mof_C 	C 	0.3622	0.65126	0.46666	0.07
Mof_C 	C 	0.23252	0.73517	0.499	0.085
Mof_C 	C 	0.28635	0.35713	0.39162	-0.142
Mof_C 	C 	0.93947	0.36181	0.1016	-0.044
Mof_C 	C 	0.30015	0.13105	0.627	-0.102
Mof_C 	C 	0.76748	0.76483	0.999	-0.035
Mof_C 	C 	0.4203	0.90239	0.6571	0.404
Mof_C 	C 	0.17063	0.10872	0.635	0.03
Mof_C 	C 	0.3259	0.40061	0.3265	0.415
Mof_C 	C 	0.66473	0.19741	0.02034	0.012
Mof_C 	C 	0.71365	0.85713	0.89162	-0.081
Mof_C 	C 	0.20943	0.7878	0.55178	-0.024
Mof_C 	C 	0.76748	0.23517	0.999	-0.037
Mof_C 	C 	0.8434	0.77328	0.9239	-0.05
Mof_C 	C 	0.1835	0.31937	0.37027	0.07
Mof_C 	C 	0.1835	0.68063	0.37027	0.07
Mof_C 	C 	0.33527	0.69741	0.52034	-0.129
Mof_C 	C 	0.3277	0.5	0.8798	-0.075
Mof_C 	C 	0.8165	0.81937	0.87027	0.002
Mof_C 	C 	0.69985	0.36895	0.127	-0.076
Mof_C 	C 	0.07984	0.81005	0.5601	-0.012
Mof_C 	C 	0.6723	-1.76146e-33	0.3798	-0.076
Mof_C 	C 	0.31944	0.18277	0.58536	0.006
Mof_C 	C 	0.71365	0.14287	0.89162	-0.085
Mof_C 	C 	0.79057	0.2878	0.05178	0.05
Mof_C 	C 	0.5797	0.59761	0.1571	0.399
Mof_C 	C 	0.07984	0.18995	0.5601	-0.009
Mof_C 	C 	0.23252	0.26483	0.499	0.086
Mof_C 	C 	0.06053	0.13819	0.6016	-0.071
Mof_C 	C 	0.33527	0.30259	0.52034	-0.13
Mof_C 	C 	0.66473	0.80259	0.02034	0.013
Mof_C 	C 	0.8165	0.18063	0.87027	0.002
Mof_C 	C 	0.3259	0.59939	0.3265	0.415
Mof_C 	C 	0.68056	0.31723	0.08536	-0.036
Mof_C 	C 	0.5797	0.40239	0.1571	0.399
Mof_C 	C 	0.17063	0.89128	0.635	0.026
Mof_C 	C 	0.31944	0.81723	0.58536	0.003
Mof_C 	C 	0.8434	0.22672	0.9239	-0.052
Mof_C 	C 	0.9236	0.11325	0.612	0.305
Mof_C 	C 	0.6865	0	0.4732	0.391
Mof_C 	C 	0.1566	0.27328	0.4239	-0.129
Mof_C 	C 	0.69985	0.63105	0.127	-0.075
Mof_C 	C 	0.1566	0.72672	0.4239	-0.128
Mof_C 	C 	0.82937	0.39128	0.135	0.009
Mof_C 	C 	0.6378	0.84874	0.96666	-0.039
Mof_C 	C 	0.68056	0.68277	0.08536	-0.036
Mof_C 	C 	0.6741	0.90061	0.8265	0.391
Mof_C 	C 	0.0764	0.38675	0.112	0.298
Mof_C 	C 	0.9236	0.88675	0.612	0.302
Mof_C 	C 	0.06053	0.86181	0.6016	-0.064
Mof_C 	C 	0.6378	0.15126	0.96666	-0.039
Mof_C 	C 	0.4203	0.09761	0.6571	0.405
Mof_C 	C 	0.3622	0.34874	0.46666	0.07
Mof_C 	C 	0.28635	0.64287	0.39162	-0.141
Mof_C 	C 	0.0764	0.61325	0.112	0.297
Mof_C 	C 	0.6741	0.09939	0.8265	0.392
Mof_C 	C 	0.93947	0.63819	0.1016	-0.044
Mof_C 	C 	0.3135	0.5	0.9732	0.356
Mof_C 	C 	0.30015	0.86895	0.627	-0.095
Mof_O 	O 	0.646	0	0.6828	-0.576
Mof_O 	O 	0.18039	0.35875	0.09243	-0.298
Mof_O 	O 	0.08852	0.43716	0.1382	-0.327
Mof_O 	O 	0.2712	0.3956	0.25197	-0.393
Mof_O 	O 	0.3084	0.5464	0.01239	-0.357
Mof_O 	O 	0.08852	0.56284	0.1382	-0.327
Mof_O 	O 	0.59382	0.93936	0.84746	-0.379
Mof_O 	O 	0.2712	0.6044	0.25197	-0.393
Mof_O 	O 	0.60175	0.44115	0.21099	-0.392
Mof_O 	O 	0.91148	0.93716	0.6382	-0.323
Mof_O 	O 	0.354	0.5	0.1828	-0.564
Mof_O 	O 	0.53125	0.88966	0.6237	-0.389
Mof_O 	O 	0.81961	0.85875	0.59243	-0.303
Mof_O 	O 	0.60175	0.55885	0.21099	-0.392
Mof_O 	O 	0.7288	0.1044	0.75197	-0.389
Mof_O 	O 	0.46875	0.38966	0.1237	-0.387
Mof_O 	O 	0.40618	0.43936	0.34746	-0.397
Mof_O 	O 	0.81961	0.14125	0.59243	-0.304
Mof_O 	O 	0.3084	0.4536	0.01239	-0.357
Mof_O 	O 	0.18039	0.64125	0.09243	-0.297
Mof_O 	O 	0.40618	0.56064	0.34746	-0.397
Mof_O 	O 	0.59382	0.06064	0.84746	-0.395
Mof_O 	O 	0.6916	0.9536	0.51239	-0.366
Mof_O 	O 	0.46875	0.61034	0.1237	-0.386
Mof_O 	O 	0.91148	0.06284	0.6382	-0.337
Mof_O 	O 	0.53125	0.11034	0.6237	-0.391
Mof_O 	O 	0.6916	0.0464	0.51239	-0.385
Mof_O 	O 	0.39825	0.05885	0.71099	-0.396
Mof_O 	O 	0.39825	0.94115	0.71099	-0.381
Mof_O 	O 	0.7288	0.8956	0.75197	-0.387
_end
