data_functionalizedCrystal
_audit_creation_method	'EQeq! by Chris Wilmer'
_symmetry_space_group_name_H-M	'P1'
_symmetry_Int_Tables_number	1
_symmetry_cell_setting	triclinic
loop_
_symmetry_equiv_pos_as_xyz
  x,y,z
_cell_length_a	25.2913
_cell_length_b	33.509
_cell_length_c	18.681
_cell_angle_alpha	90
_cell_angle_beta	90
_cell_angle_gamma	90
loop_
_atom_site_label
_atom_site_type_symbol
_atom_site_fract_x
_atom_site_fract_y
_atom_site_fract_z
_atom_site_charge
Mof_C 	C 	0.88156	0.60497	0.10593	-0.081
Mof_C 	C 	0.86122	0.64185	0.08524	0.032
Mof_H 	H 	0.8774	0.6653	0.1005	0.057
Mof_C 	C 	0.81775	0.64353	0.04275	-0.083
Mof_C 	C 	0.79311	0.60892	0.01929	-0.01
Mof_H 	H 	0.7636	0.6104	0.9897	0.052
Mof_C 	C 	0.81304	0.57174	0.0405	-0.004
Mof_C 	C 	0.85727	0.57007	0.08446	-0.015
Mof_H 	H 	0.8705	0.5455	0.0994	0.057
Mof_C 	C 	0.92783	0.60366	0.15667	0.375
Mof_C 	C 	0.79379	0.68296	0.02236	0.362
Mof_C 	C 	0.78604	0.53401	0.01973	0.027
Mof_C 	C 	0.73153	0.53356	0.01976	-0.009
Mof_H 	H 	0.713	0.5563	0.0334	0.048
Mof_C 	C 	0.17347	0.23252	0.18565	-0.09
Mof_C 	C 	0.12458	0.21365	0.18553	-0.011
Mof_H 	H 	0.1081	0.207	0.1427	0.051
Mof_C 	C 	0.20142	0.24074	0.11566	0.38
Mof_Cu	Cu	0.21121	0.23194	0.96484	0.904
Mof_O 	O 	0.94497	0.57076	0.17648	-0.395
Mof_O 	O 	0.94527	0.63645	0.17711	-0.396
Mof_O 	O 	0.75195	0.68359	0.98768	-0.411
Mof_O 	O 	0.81663	0.71399	0.04748	-0.396
Mof_O 	O 	0.17892	0.22875	0.06085	-0.415
Mof_O 	O 	0.24435	0.25858	0.11894	-0.415
Mof_C 	C 	0.38156	0.10497	0.10593	-0.09
Mof_C 	C 	0.36122	0.14185	0.08524	0.034
Mof_H 	H 	0.3774	0.1653	0.1005	0.051
Mof_C 	C 	0.31775	0.14353	0.04275	-0.089
Mof_C 	C 	0.29311	0.10892	0.01929	-0.008
Mof_H 	H 	0.2636	0.1104	0.9897	0.048
Mof_C 	C 	0.31304	0.07174	0.0405	-0.008
Mof_C 	C 	0.35727	0.07007	0.08446	-0.012
Mof_H 	H 	0.3705	0.0455	0.0994	0.053
Mof_C 	C 	0.42783	0.10366	0.15667	0.38
Mof_C 	C 	0.29379	0.18296	0.02236	0.363
Mof_C 	C 	0.28604	0.03401	0.01973	0.026
Mof_C 	C 	0.23153	0.03356	0.01976	-0.009
Mof_H 	H 	0.213	0.0563	0.0334	0.046
Mof_C 	C 	0.67347	0.73252	0.18565	-0.082
Mof_C 	C 	0.62458	0.71365	0.18553	-0.02
Mof_H 	H 	0.6081	0.707	0.1427	0.058
Mof_C 	C 	0.70142	0.74074	0.11566	0.377
Mof_Cu	Cu	0.71121	0.73194	0.96484	0.905
Mof_O 	O 	0.44497	0.07076	0.17648	-0.412
Mof_O 	O 	0.44527	0.13645	0.17711	-0.414
Mof_O 	O 	0.25195	0.18359	0.98768	-0.414
Mof_O 	O 	0.31663	0.21399	0.04748	-0.399
Mof_O 	O 	0.67892	0.72875	0.06085	-0.412
Mof_O 	O 	0.74435	0.75858	0.11894	-0.413
Mof_C 	C 	0.11844	0.39503	0.60593	-0.094
Mof_C 	C 	0.13878	0.35815	0.58524	0.033
Mof_H 	H 	0.1226	0.3347	0.6005	0.048
Mof_C 	C 	0.18225	0.35647	0.54275	-0.087
Mof_C 	C 	0.20689	0.39108	0.51929	-0.017
Mof_H 	H 	0.2364	0.3896	0.4897	0.054
Mof_C 	C 	0.18696	0.42826	0.5405	-0.007
Mof_C 	C 	0.14273	0.42993	0.58446	-0.012
Mof_H 	H 	0.1295	0.4545	0.5994	0.05
Mof_C 	C 	0.07217	0.39634	0.65667	0.38
Mof_C 	C 	0.20621	0.31704	0.52236	0.357
Mof_C 	C 	0.21396	0.46599	0.51973	0.027
Mof_C 	C 	0.26847	0.46644	0.51976	-0.011
Mof_H 	H 	0.287	0.4437	0.5334	0.048
Mof_C 	C 	0.82653	0.76748	0.68565	-0.085
Mof_C 	C 	0.87542	0.78635	0.68553	-0.011
Mof_H 	H 	0.8919	0.793	0.6427	0.06
Mof_C 	C 	0.79858	0.75926	0.61566	0.379
Mof_Cu	Cu	0.78879	0.76806	0.46484	0.907
Mof_O 	O 	0.05503	0.42924	0.67648	-0.422
Mof_O 	O 	0.05473	0.36355	0.67711	-0.423
Mof_O 	O 	0.24805	0.31641	0.48768	-0.409
Mof_O 	O 	0.18337	0.28601	0.54748	-0.401
Mof_O 	O 	0.82108	0.77125	0.56085	-0.411
Mof_O 	O 	0.75565	0.74142	0.61894	-0.414
Mof_C 	C 	0.61844	0.89503	0.60593	-0.088
Mof_C 	C 	0.63878	0.85815	0.58524	0.03
Mof_H 	H 	0.6226	0.8347	0.6005	0.053
Mof_C 	C 	0.68225	0.85647	0.54275	-0.082
Mof_C 	C 	0.70689	0.89108	0.51929	-0.02
Mof_H 	H 	0.7364	0.8896	0.4897	0.057
Mof_C 	C 	0.68696	0.92826	0.5405	-0.003
Mof_C 	C 	0.64273	0.92993	0.58446	-0.015
Mof_H 	H 	0.6295	0.9545	0.5994	0.054
Mof_C 	C 	0.57217	0.89634	0.65667	0.379
Mof_C 	C 	0.70621	0.81704	0.52236	0.356
Mof_C 	C 	0.71396	0.96599	0.51973	0.024
Mof_C 	C 	0.76847	0.96644	0.51976	-0.011
Mof_H 	H 	0.787	0.9437	0.5334	0.051
Mof_C 	C 	0.32653	0.26748	0.68565	-0.085
Mof_C 	C 	0.37542	0.28635	0.68553	-0.018
Mof_H 	H 	0.3919	0.293	0.6427	0.057
Mof_C 	C 	0.29858	0.25926	0.61566	0.378
Mof_Cu	Cu	0.28879	0.26806	0.46484	0.906
Mof_O 	O 	0.55503	0.92924	0.67648	-0.413
Mof_O 	O 	0.55473	0.86355	0.67711	-0.414
Mof_O 	O 	0.74805	0.81641	0.48768	-0.406
Mof_O 	O 	0.68337	0.78601	0.54748	-0.398
Mof_O 	O 	0.32108	0.27125	0.56085	-0.414
Mof_O 	O 	0.25565	0.24142	0.61894	-0.416
Mof_C 	C 	0.11844	0.60497	0.39407	-0.094
Mof_C 	C 	0.13878	0.64185	0.41476	0.033
Mof_H 	H 	0.1226	0.6653	0.3995	0.049
Mof_C 	C 	0.18225	0.64353	0.45725	-0.087
Mof_C 	C 	0.20689	0.60892	0.48071	-0.017
Mof_H 	H 	0.2364	0.6104	0.5103	0.054
Mof_C 	C 	0.18696	0.57174	0.4595	-0.007
Mof_C 	C 	0.14273	0.57007	0.41554	-0.012
Mof_H 	H 	0.1295	0.5455	0.4006	0.05
Mof_C 	C 	0.07217	0.60366	0.34333	0.38
Mof_C 	C 	0.20621	0.68296	0.47764	0.357
Mof_C 	C 	0.21396	0.53401	0.48027	0.027
Mof_C 	C 	0.26847	0.53356	0.48024	-0.011
Mof_H 	H 	0.287	0.5563	0.4666	0.048
Mof_C 	C 	0.82653	0.23252	0.31435	-0.085
Mof_C 	C 	0.87542	0.21365	0.31447	-0.011
Mof_H 	H 	0.8919	0.207	0.3573	0.06
Mof_C 	C 	0.79858	0.24074	0.38434	0.379
Mof_Cu	Cu	0.78879	0.23194	0.53516	0.907
Mof_O 	O 	0.05503	0.57076	0.32352	-0.421
Mof_O 	O 	0.05473	0.63645	0.32289	-0.422
Mof_O 	O 	0.24805	0.68359	0.51232	-0.409
Mof_O 	O 	0.18337	0.71399	0.45252	-0.401
Mof_O 	O 	0.82108	0.22875	0.43915	-0.411
Mof_O 	O 	0.75565	0.25858	0.38106	-0.414
Mof_C 	C 	0.61844	0.10497	0.39407	-0.087
Mof_C 	C 	0.63878	0.14185	0.41476	0.03
Mof_H 	H 	0.6226	0.1653	0.3995	0.053
Mof_C 	C 	0.68225	0.14353	0.45725	-0.082
Mof_C 	C 	0.70689	0.10892	0.48071	-0.02
Mof_H 	H 	0.7364	0.1104	0.5103	0.057
Mof_C 	C 	0.68696	0.07174	0.4595	-0.002
Mof_C 	C 	0.64273	0.07007	0.41554	-0.015
Mof_H 	H 	0.6295	0.0455	0.4006	0.055
Mof_C 	C 	0.57217	0.10366	0.34333	0.379
Mof_C 	C 	0.70621	0.18296	0.47764	0.356
Mof_C 	C 	0.71396	0.03401	0.48027	0.026
Mof_C 	C 	0.76847	0.03356	0.48024	-0.008
Mof_H 	H 	0.787	0.0563	0.4666	0.05
Mof_C 	C 	0.32653	0.73252	0.31435	-0.085
Mof_C 	C 	0.37542	0.71365	0.31447	-0.019
Mof_H 	H 	0.3919	0.707	0.3573	0.057
Mof_C 	C 	0.29858	0.74074	0.38434	0.378
Mof_Cu	Cu	0.28879	0.73194	0.53516	0.906
Mof_O 	O 	0.55503	0.07076	0.32352	-0.412
Mof_O 	O 	0.55473	0.13645	0.32289	-0.413
Mof_O 	O 	0.74805	0.18359	0.51232	-0.406
Mof_O 	O 	0.68337	0.21399	0.45252	-0.398
Mof_O 	O 	0.32108	0.72875	0.43915	-0.414
Mof_O 	O 	0.25565	0.75858	0.38106	-0.416
Mof_C 	C 	0.88156	0.39503	0.89407	-0.077
Mof_C 	C 	0.86122	0.35815	0.91476	0.022
Mof_H 	H 	0.8774	0.3347	0.8995	0.059
Mof_C 	C 	0.81775	0.35647	0.95725	-0.072
Mof_C 	C 	0.79311	0.39108	0.98071	-0.032
Mof_H 	H 	0.7636	0.3896	0.0103	0.064
Mof_C 	C 	0.81304	0.42826	0.9595	0.005
Mof_C 	C 	0.85727	0.42993	0.91554	-0.023
Mof_H 	H 	0.8705	0.4545	0.9006	0.059
Mof_C 	C 	0.92783	0.39634	0.84333	0.373
Mof_C 	C 	0.79379	0.31704	0.97764	0.349
Mof_C 	C 	0.78604	0.46599	0.98027	0.021
Mof_C 	C 	0.73153	0.46644	0.98024	-0.011
Mof_H 	H 	0.713	0.4437	0.9666	0.047
Mof_C 	C 	0.17347	0.76748	0.81435	-0.092
Mof_C 	C 	0.12458	0.78635	0.81447	-0.01
Mof_H 	H 	0.1081	0.793	0.8573	0.05
Mof_C 	C 	0.20142	0.75926	0.88434	0.38
Mof_Cu	Cu	0.21121	0.76806	0.03516	0.906
Mof_O 	O 	0.94497	0.42924	0.82352	-0.395
Mof_O 	O 	0.94527	0.36355	0.82289	-0.396
Mof_O 	O 	0.75195	0.31641	0.01232	-0.403
Mof_O 	O 	0.81663	0.28601	0.95252	-0.395
Mof_O 	O 	0.17892	0.77125	0.93915	-0.419
Mof_O 	O 	0.24435	0.74142	0.88106	-0.416
Mof_C 	C 	0.38156	0.89503	0.89407	-0.086
Mof_C 	C 	0.36122	0.85815	0.91476	0.026
Mof_H 	H 	0.3774	0.8347	0.8995	0.054
Mof_C 	C 	0.31775	0.85647	0.95725	-0.078
Mof_C 	C 	0.29311	0.89108	0.98071	-0.03
Mof_H 	H 	0.2636	0.8896	0.0103	0.061
Mof_C 	C 	0.31304	0.92826	0.9595	0.001
Mof_C 	C 	0.35727	0.92993	0.91554	-0.019
Mof_H 	H 	0.3705	0.9545	0.9006	0.054
Mof_C 	C 	0.42783	0.89634	0.84333	0.378
Mof_C 	C 	0.29379	0.81704	0.97764	0.351
Mof_C 	C 	0.28604	0.96599	0.98027	0.017
Mof_C 	C 	0.23153	0.96644	0.98024	-0.014
Mof_H 	H 	0.213	0.9437	0.9666	0.045
Mof_C 	C 	0.67347	0.26748	0.81435	-0.083
Mof_C 	C 	0.62458	0.28635	0.81447	-0.019
Mof_H 	H 	0.6081	0.293	0.8573	0.057
Mof_C 	C 	0.70142	0.25926	0.88434	0.378
Mof_Cu	Cu	0.71121	0.26806	0.03516	0.907
Mof_O 	O 	0.44497	0.92924	0.82352	-0.413
Mof_O 	O 	0.44527	0.86355	0.82289	-0.414
Mof_O 	O 	0.25195	0.81641	0.01232	-0.405
Mof_O 	O 	0.31663	0.78601	0.95252	-0.398
Mof_O 	O 	0.67892	0.27125	0.93915	-0.415
Mof_O 	O 	0.74435	0.24142	0.88106	-0.414
Mof_C 	C 	0.11844	0.39503	0.89407	-0.091
Mof_C 	C 	0.13878	0.35815	0.91476	0.028
Mof_H 	H 	0.1226	0.3347	0.8995	0.05
Mof_C 	C 	0.18225	0.35647	0.95725	-0.08
Mof_C 	C 	0.20689	0.39108	0.98071	-0.029
Mof_H 	H 	0.2364	0.3896	0.0103	0.061
Mof_C 	C 	0.18696	0.42826	0.9595	-0.001
Mof_C 	C 	0.14273	0.42993	0.91554	-0.017
Mof_H 	H 	0.1295	0.4545	0.9006	0.051
Mof_C 	C 	0.07217	0.39634	0.84333	0.379
Mof_C 	C 	0.20621	0.31704	0.97764	0.351
Mof_C 	C 	0.21396	0.46599	0.98027	0.021
Mof_C 	C 	0.26847	0.46644	0.98024	-0.012
Mof_H 	H 	0.287	0.4437	0.9666	0.047
Mof_C 	C 	0.82653	0.76748	0.81435	-0.086
Mof_C 	C 	0.87542	0.78635	0.81447	-0.011
Mof_H 	H 	0.8919	0.793	0.8573	0.059
Mof_C 	C 	0.79858	0.75926	0.88434	0.379
Mof_Cu	Cu	0.78879	0.76806	0.03516	0.908
Mof_O 	O 	0.05503	0.42924	0.82352	-0.422
Mof_O 	O 	0.05473	0.36355	0.82289	-0.422
Mof_O 	O 	0.24805	0.31641	0.01232	-0.404
Mof_O 	O 	0.18337	0.28601	0.95252	-0.401
Mof_O 	O 	0.82108	0.77125	0.93915	-0.413
Mof_O 	O 	0.75565	0.74142	0.88106	-0.415
Mof_C 	C 	0.61844	0.89503	0.89407	-0.085
Mof_C 	C 	0.63878	0.85815	0.91476	0.025
Mof_H 	H 	0.6226	0.8347	0.8995	0.054
Mof_C 	C 	0.68225	0.85647	0.95725	-0.076
Mof_C 	C 	0.70689	0.89108	0.98071	-0.031
Mof_H 	H 	0.7364	0.8896	0.0103	0.064
Mof_C 	C 	0.68696	0.92826	0.9595	0.003
Mof_C 	C 	0.64273	0.92993	0.91554	-0.02
Mof_H 	H 	0.6295	0.9545	0.9006	0.055
Mof_C 	C 	0.57217	0.89634	0.84333	0.378
Mof_C 	C 	0.70621	0.81704	0.97764	0.35
Mof_C 	C 	0.71396	0.96599	0.98027	0.018
Mof_C 	C 	0.76847	0.96644	0.98024	-0.012
Mof_H 	H 	0.787	0.9437	0.9666	0.05
Mof_C 	C 	0.32653	0.26748	0.81435	-0.085
Mof_C 	C 	0.37542	0.28635	0.81447	-0.018
Mof_H 	H 	0.3919	0.293	0.8573	0.057
Mof_C 	C 	0.29858	0.25926	0.88434	0.379
Mof_Cu	Cu	0.28879	0.26806	0.03516	0.907
Mof_O 	O 	0.55503	0.92924	0.82352	-0.413
Mof_O 	O 	0.55473	0.86355	0.82289	-0.413
Mof_O 	O 	0.74805	0.81641	0.01232	-0.402
Mof_O 	O 	0.68337	0.78601	0.95252	-0.398
Mof_O 	O 	0.32108	0.27125	0.93915	-0.416
Mof_O 	O 	0.25565	0.24142	0.88106	-0.416
Mof_C 	C 	0.88156	0.60497	0.39407	-0.08
Mof_C 	C 	0.86122	0.64185	0.41476	0.027
Mof_H 	H 	0.8774	0.6653	0.3995	0.057
Mof_C 	C 	0.81775	0.64353	0.45725	-0.079
Mof_C 	C 	0.79311	0.60892	0.48071	-0.021
Mof_H 	H 	0.7636	0.6104	0.5103	0.057
Mof_C 	C 	0.81304	0.57174	0.4595	-0.001
Mof_C 	C 	0.85727	0.57007	0.41554	-0.018
Mof_H 	H 	0.8705	0.5455	0.4006	0.058
Mof_C 	C 	0.92783	0.60366	0.34333	0.374
Mof_C 	C 	0.79379	0.68296	0.47764	0.356
Mof_C 	C 	0.78604	0.53401	0.48027	0.027
Mof_C 	C 	0.73153	0.53356	0.48024	-0.01
Mof_H 	H 	0.713	0.5563	0.4666	0.048
Mof_C 	C 	0.17347	0.23252	0.31435	-0.091
Mof_C 	C 	0.12458	0.21365	0.31447	-0.011
Mof_H 	H 	0.1081	0.207	0.3573	0.051
Mof_C 	C 	0.20142	0.24074	0.38434	0.38
Mof_Cu	Cu	0.21121	0.23194	0.53516	0.905
Mof_O 	O 	0.94497	0.57076	0.32352	-0.395
Mof_O 	O 	0.94527	0.63645	0.32289	-0.396
Mof_O 	O 	0.75195	0.68359	0.51232	-0.407
Mof_O 	O 	0.81663	0.71399	0.45252	-0.395
Mof_O 	O 	0.17892	0.22875	0.43915	-0.417
Mof_O 	O 	0.24435	0.25858	0.38106	-0.416
Mof_C 	C 	0.38156	0.10497	0.39407	-0.088
Mof_C 	C 	0.36122	0.14185	0.41476	0.031
Mof_H 	H 	0.3774	0.1653	0.3995	0.052
Mof_C 	C 	0.31775	0.14353	0.45725	-0.084
Mof_C 	C 	0.29311	0.10892	0.48071	-0.018
Mof_H 	H 	0.2636	0.1104	0.5103	0.054
Mof_C 	C 	0.31304	0.07174	0.4595	-0.004
Mof_C 	C 	0.35727	0.07007	0.41554	-0.015
Mof_H 	H 	0.3705	0.0455	0.4006	0.054
Mof_C 	C 	0.42783	0.10366	0.34333	0.379
Mof_C 	C 	0.29379	0.18296	0.47764	0.357
Mof_C 	C 	0.28604	0.03401	0.48027	0.025
Mof_C 	C 	0.23153	0.03356	0.48024	-0.01
Mof_H 	H 	0.213	0.0563	0.4666	0.046
Mof_C 	C 	0.67347	0.73252	0.31435	-0.083
Mof_C 	C 	0.62458	0.71365	0.31447	-0.02
Mof_H 	H 	0.6081	0.707	0.3573	0.058
Mof_C 	C 	0.70142	0.74074	0.38434	0.377
Mof_Cu	Cu	0.71121	0.73194	0.53516	0.906
Mof_O 	O 	0.44497	0.07076	0.32352	-0.412
Mof_O 	O 	0.44527	0.13645	0.32289	-0.414
Mof_O 	O 	0.25195	0.18359	0.51232	-0.409
Mof_O 	O 	0.31663	0.21399	0.45252	-0.399
Mof_O 	O 	0.67892	0.72875	0.43915	-0.414
Mof_O 	O 	0.74435	0.75858	0.38106	-0.413
Mof_C 	C 	0.88156	0.39503	0.60593	-0.08
Mof_C 	C 	0.86122	0.35815	0.58524	0.027
Mof_H 	H 	0.8774	0.3347	0.6005	0.057
Mof_C 	C 	0.81775	0.35647	0.54275	-0.078
Mof_C 	C 	0.79311	0.39108	0.51929	-0.021
Mof_H 	H 	0.7636	0.3896	0.4897	0.057
Mof_C 	C 	0.81304	0.42826	0.5405	-0.001
Mof_C 	C 	0.85727	0.42993	0.58446	-0.018
Mof_H 	H 	0.8705	0.4545	0.5994	0.058
Mof_C 	C 	0.92783	0.39634	0.65667	0.374
Mof_C 	C 	0.79379	0.31704	0.52236	0.356
Mof_C 	C 	0.78604	0.46599	0.51973	0.027
Mof_C 	C 	0.73153	0.46644	0.51976	-0.01
Mof_H 	H 	0.713	0.4437	0.5334	0.048
Mof_C 	C 	0.17347	0.76748	0.68565	-0.091
Mof_C 	C 	0.12458	0.78635	0.68553	-0.011
Mof_H 	H 	0.1081	0.793	0.6427	0.051
Mof_C 	C 	0.20142	0.75926	0.61566	0.38
Mof_Cu	Cu	0.21121	0.76806	0.46484	0.905
Mof_O 	O 	0.94497	0.42924	0.67648	-0.395
Mof_O 	O 	0.94527	0.36355	0.67711	-0.396
Mof_O 	O 	0.75195	0.31641	0.48768	-0.407
Mof_O 	O 	0.81663	0.28601	0.54748	-0.395
Mof_O 	O 	0.17892	0.77125	0.56085	-0.417
Mof_O 	O 	0.24435	0.74142	0.61894	-0.416
Mof_C 	C 	0.38156	0.89503	0.60593	-0.089
Mof_C 	C 	0.36122	0.85815	0.58524	0.031
Mof_H 	H 	0.3774	0.8347	0.6005	0.052
Mof_C 	C 	0.31775	0.85647	0.54275	-0.084
Mof_C 	C 	0.29311	0.89108	0.51929	-0.019
Mof_H 	H 	0.2636	0.8896	0.4897	0.054
Mof_C 	C 	0.31304	0.92826	0.5405	-0.005
Mof_C 	C 	0.35727	0.92993	0.58446	-0.015
Mof_H 	H 	0.3705	0.9545	0.5994	0.053
Mof_C 	C 	0.42783	0.89634	0.65667	0.379
Mof_C 	C 	0.29379	0.81704	0.52236	0.357
Mof_C 	C 	0.28604	0.96599	0.51973	0.024
Mof_C 	C 	0.23153	0.96644	0.51976	-0.013
Mof_H 	H 	0.213	0.9437	0.5334	0.046
Mof_C 	C 	0.67347	0.26748	0.68565	-0.083
Mof_C 	C 	0.62458	0.28635	0.68553	-0.02
Mof_H 	H 	0.6081	0.293	0.6427	0.058
Mof_C 	C 	0.70142	0.25926	0.61566	0.377
Mof_Cu	Cu	0.71121	0.26806	0.46484	0.906
Mof_O 	O 	0.44497	0.92924	0.67648	-0.413
Mof_O 	O 	0.44527	0.86355	0.67711	-0.414
Mof_O 	O 	0.25195	0.81641	0.48768	-0.409
Mof_O 	O 	0.31663	0.78601	0.54748	-0.399
Mof_O 	O 	0.67892	0.27125	0.56085	-0.414
Mof_O 	O 	0.74435	0.24142	0.61894	-0.413
Mof_C 	C 	0.11844	0.60497	0.10593	-0.096
Mof_C 	C 	0.13878	0.64185	0.08524	0.037
Mof_H 	H 	0.1226	0.6653	0.1005	0.047
Mof_C 	C 	0.18225	0.64353	0.04275	-0.092
Mof_C 	C 	0.20689	0.60892	0.01929	-0.007
Mof_H 	H 	0.2364	0.6104	0.9897	0.048
Mof_C 	C 	0.18696	0.57174	0.0405	-0.011
Mof_C 	C 	0.14273	0.57007	0.08446	-0.01
Mof_H 	H 	0.1295	0.5455	0.0994	0.05
Mof_C 	C 	0.07217	0.60366	0.15667	0.381
Mof_C 	C 	0.20621	0.68296	0.02236	0.364
Mof_C 	C 	0.21396	0.53401	0.01973	0.027
Mof_C 	C 	0.26847	0.53356	0.01976	-0.01
Mof_H 	H 	0.287	0.5563	0.0334	0.049
Mof_C 	C 	0.82653	0.23252	0.18565	-0.084
Mof_C 	C 	0.87542	0.21365	0.18553	-0.011
Mof_H 	H 	0.8919	0.207	0.1427	0.061
Mof_C 	C 	0.79858	0.24074	0.11566	0.379
Mof_Cu	Cu	0.78879	0.23194	0.96484	0.906
Mof_O 	O 	0.05503	0.57076	0.17648	-0.421
Mof_O 	O 	0.05473	0.63645	0.17711	-0.422
Mof_O 	O 	0.24805	0.68359	0.98768	-0.413
Mof_O 	O 	0.18337	0.71399	0.04748	-0.402
Mof_O 	O 	0.82108	0.22875	0.06085	-0.409
Mof_O 	O 	0.75565	0.25858	0.11894	-0.413
Mof_C 	C 	0.61844	0.10497	0.10593	-0.089
Mof_C 	C 	0.63878	0.14185	0.08524	0.033
Mof_H 	H 	0.6226	0.1653	0.1005	0.052
Mof_C 	C 	0.68225	0.14353	0.04275	-0.087
Mof_C 	C 	0.70689	0.10892	0.01929	-0.01
Mof_H 	H 	0.7364	0.1104	0.9897	0.051
Mof_C 	C 	0.68696	0.07174	0.0405	-0.006
Mof_C 	C 	0.64273	0.07007	0.08446	-0.013
Mof_H 	H 	0.6295	0.0455	0.0994	0.054
Mof_C 	C 	0.57217	0.10366	0.15667	0.38
Mof_C 	C 	0.70621	0.18296	0.02236	0.362
Mof_C 	C 	0.71396	0.03401	0.01973	0.026
Mof_C 	C 	0.76847	0.03356	0.01976	-0.007
Mof_H 	H 	0.787	0.0563	0.0334	0.051
Mof_C 	C 	0.32653	0.73252	0.18565	-0.084
Mof_C 	C 	0.37542	0.71365	0.18553	-0.019
Mof_H 	H 	0.3919	0.707	0.1427	0.058
Mof_C 	C 	0.29858	0.74074	0.11566	0.378
Mof_Cu	Cu	0.28879	0.73194	0.96484	0.905
Mof_O 	O 	0.55503	0.07076	0.17648	-0.412
Mof_O 	O 	0.55473	0.13645	0.17711	-0.413
Mof_O 	O 	0.74805	0.18359	0.98768	-0.411
Mof_O 	O 	0.68337	0.21399	0.04748	-0.399
Mof_O 	O 	0.32108	0.72875	0.06085	-0.412
Mof_O 	O 	0.25565	0.75858	0.11894	-0.415
Mof_C 	C 	0.81356	0.5	-0	-0.083
Mof_H 	H 	0.8503	0.5	-0	0.071
Mof_N 	N 	0.70437	0.5	-0	-0.092
Mof_C 	C 	0.31356	0	-0	-0.081
Mof_H 	H 	0.3503	0	-0	0.068
Mof_N 	N 	0.20437	0	-0	-0.093
Mof_C 	C 	0.18644	0.5	0.5	-0.091
Mof_H 	H 	0.1497	0.5	0.5	0.066
Mof_N 	N 	0.29563	0.5	0.5	-0.094
Mof_C 	C 	0.68644	0	0.5	-0.086
Mof_H 	H 	0.6497	0	0.5	0.068
Mof_N 	N 	0.79563	0	0.5	-0.089
Mof_C 	C 	0.18644	0.5	-0	-0.085
Mof_H 	H 	0.1497	0.5	-0	0.065
Mof_N 	N 	0.29563	0.5	-0	-0.092
Mof_C 	C 	0.68644	0	-0	-0.08
Mof_H 	H 	0.6497	0	-0	0.068
Mof_N 	N 	0.79563	0	-0	-0.088
Mof_C 	C 	0.81356	0.5	0.5	-0.089
Mof_H 	H 	0.8503	0.5	0.5	0.072
Mof_N 	N 	0.70437	0.5	0.5	-0.094
Mof_C 	C 	0.31356	0	0.5	-0.087
Mof_H 	H 	0.3503	0	0.5	0.068
Mof_N 	N 	0.20437	0	0.5	-0.095
Mof_C 	C 	0.19697	0.24233	0.25	0.033
Mof_H 	H 	0.2292	0.2558	0.25	0.051
Mof_C 	C 	0.10098	0.20501	0.25	-0.016
Mof_C 	C 	0.0494	0.18164	0.25	0.044
Mof_C 	C 	0.04955	0.14027	0.25	-0.036
Mof_H 	H 	0.0815	0.1265	0.25	0.055
Mof_C 	C 	0.69697	0.74233	0.25	0.027
Mof_H 	H 	0.7292	0.7558	0.25	0.054
Mof_C 	C 	0.60098	0.70501	0.25	-0.001
Mof_C 	C 	0.5494	0.68164	0.25	0.026
Mof_C 	C 	0.54955	0.64027	0.25	-0.02
Mof_H 	H 	0.5815	0.6265	0.25	0.053
Mof_C 	C 	0.80303	0.75767	0.75	0.032
Mof_H 	H 	0.7708	0.7442	0.75	0.052
Mof_C 	C 	0.89902	0.79499	0.75	-0.011
Mof_C 	C 	0.9506	0.81836	0.75	0.069
Mof_C 	C 	0.95045	0.85973	0.75	-0
Mof_H 	H 	0.9185	0.8735	0.75	0.052
Mof_C 	C 	0.30303	0.25767	0.75	0.03
Mof_H 	H 	0.2708	0.2442	0.75	0.051
Mof_C 	C 	0.39902	0.29499	0.75	-0.003
Mof_C 	C 	0.4506	0.31836	0.75	0.026
Mof_C 	C 	0.45045	0.35973	0.75	-0.02
Mof_H 	H 	0.4185	0.3735	0.75	0.053
Mof_C 	C 	0.80303	0.24233	0.25	0.031
Mof_H 	H 	0.7708	0.2558	0.25	0.052
Mof_C 	C 	0.89902	0.20501	0.25	-0.01
Mof_C 	C 	0.9506	0.18164	0.25	0.07
Mof_C 	C 	0.95045	0.14027	0.25	0
Mof_H 	H 	0.9185	0.1265	0.25	0.053
Mof_C 	C 	0.30303	0.74233	0.25	0.029
Mof_H 	H 	0.2708	0.7558	0.25	0.051
Mof_C 	C 	0.39902	0.70501	0.25	-0.002
Mof_C 	C 	0.4506	0.68164	0.25	0.026
Mof_C 	C 	0.45045	0.64027	0.25	-0.02
Mof_H 	H 	0.4185	0.6265	0.25	0.053
Mof_C 	C 	0.19697	0.75767	0.75	0.034
Mof_H 	H 	0.2292	0.7442	0.75	0.05
Mof_C 	C 	0.10098	0.79499	0.75	-0.017
Mof_C 	C 	0.0494	0.81836	0.75	0.044
Mof_C 	C 	0.04955	0.85973	0.75	-0.037
Mof_H 	H 	0.0815	0.8735	0.75	0.054
Mof_C 	C 	0.69697	0.25767	0.75	0.028
Mof_H 	H 	0.7292	0.2442	0.75	0.054
Mof_C 	C 	0.60098	0.29499	0.75	-0.002
Mof_C 	C 	0.5494	0.31836	0.75	0.026
Mof_C 	C 	0.54955	0.35973	0.75	-0.02
Mof_H 	H 	0.5815	0.3735	0.75	0.053
Mof_C 	C 	-4.09107e-33	0.20116	0.25	-0.147
Mof_H 	H 	-9.02117e-34	0.2289	0.25	0.08
Mof_N 	N 	-4.09107e-33	0.11835	0.25	-0.107
Mof_Cu	Cu	-7.28002e-33	0.56407	0.25	0.891
Mof_Cu	Cu	-7.28002e-33	0.6432	0.25	0.893
Mof_C 	C 	0.5	0.70116	0.25	-0.088
Mof_H 	H 	0.5	0.7289	0.25	0.071
Mof_N 	N 	0.5	0.61835	0.25	-0.089
Mof_Cu	Cu	0.5	0.06407	0.25	0.906
Mof_Cu	Cu	0.5	0.1432	0.25	0.909
Mof_C 	C 	-4.30083e-33	0.79884	0.75	-0.148
Mof_H 	H 	-1.70566e-32	0.7711	0.75	0.079
Mof_N 	N 	-4.30083e-33	0.88165	0.75	-0.107
Mof_Cu	Cu	-4.30083e-33	0.43593	0.75	0.89
Mof_Cu	Cu	-4.30083e-33	0.3568	0.75	0.893
Mof_C 	C 	0.5	0.29884	0.75	-0.088
Mof_H 	H 	0.5	0.2711	0.75	0.071
Mof_N 	N 	0.5	0.38165	0.75	-0.089
Mof_Cu	Cu	0.5	0.93593	0.75	0.906
Mof_Cu	Cu	0.5	0.8568	0.75	0.909
_end
