data_functionalizedCrystal
_audit_creation_method	'EQeq! by Chris Wilmer'
_symmetry_space_group_name_H-M	'P1'
_symmetry_Int_Tables_number	1
_symmetry_cell_setting	triclinic
loop_
_symmetry_equiv_pos_as_xyz
  x,y,z
_cell_length_a	34.628
_cell_length_b	18.2216
_cell_length_c	23.1357
_cell_angle_alpha	90
_cell_angle_beta	118.404
_cell_angle_gamma	90
loop_
_atom_site_label
_atom_site_type_symbol
_atom_site_fract_x
_atom_site_fract_y
_atom_site_fract_z
_atom_site_charge
Mof_Cd	Cd	0.71	0.10581	0.80913	0.527
Mof_Cd	Cd	0.3214	0.38197	0.324	0.462
Mof_Cd	Cd	0.32262	0.44934	0.46342	0.424
Mof_C 	C 	0.6211	0.1091	0.7459	0.452
Mof_C 	C 	0.5713	0.1046	0.7178	-0.161
Mof_C 	C 	0.5506	0.1615	0.6811	0.144
Mof_H 	H 	0.5678	0.2005	0.6807	0.009
Mof_C 	C 	0.5066	0.1684	0.6439	-0.091
Mof_H 	H 	0.4937	0.2101	0.6189	0.086
Mof_C 	C 	0.481	0.1064	0.6458	0.104
Mof_C 	C 	0.5014	0.0506	0.682	-0.188
Mof_H 	H 	0.4853	0.0105	0.6836	0.099
Mof_C 	C 	0.5464	0.0491	0.7181	0.11
Mof_H 	H 	0.5599	0.008	0.7436	0.011
Mof_C 	C 	0.433	0.1126	0.6116	0.029
Mof_C 	C 	0.2854	0.291	0.4104	0.294
Mof_C 	C 	0.3028	0.2311	0.461	-0.008
Mof_C 	C 	0.3478	0.2202	0.4991	-0.113
Mof_H 	H 	0.3669	0.2493	0.4911	0.089
Mof_C 	C 	0.3652	0.1688	0.5477	0.136
Mof_C 	C 	0.3358	0.1276	0.5612	-0.111
Mof_H 	H 	0.3465	0.0942	0.5958	0.105
Mof_C 	C 	0.291	0.1373	0.5227	-0.001
Mof_C 	C 	0.2744	0.1879	0.4734	-0.046
Mof_H 	H 	0.2441	0.1935	0.4482	0.08
Mof_C 	C 	0.2605	0.092	0.5393	0.291
Mof_C 	C 	0.0959	0.9125	0.0638	0.347
Mof_C 	C 	0.048	0.9025	0.015	-0.142
Mof_C 	C 	0.023	0.8447	0.0246	0.06
Mof_H 	H 	0.0362	0.8151	0.0617	0.027
Mof_C 	C 	0.9815	0.8336	0.9809	-0.132
Mof_H 	H 	0.9661	0.7941	0.9854	0.085
Mof_C 	C 	0.9617	0.8802	0.9298	0.059
Mof_C 	C 	0.9849	0.9363	0.9216	-0.145
Mof_H 	H 	0.9715	0.9674	0.8856	0.088
Mof_C 	C 	0.0269	0.9459	0.9657	0.089
Mof_H 	H 	0.0417	0.9859	0.9607	0.011
Mof_C 	C 	0.9143	0.8757	0.8869	0.102
Mof_C 	C 	0.7575	0.9794	0.814	0.29
Mof_C 	C 	0.7795	0.9078	0.8142	-0.015
Mof_C 	C 	0.7527	0.8467	0.7842	-0.043
Mof_H 	H 	0.7223	0.8514	0.7622	0.083
Mof_C 	C 	0.7724	0.7784	0.7879	-0.006
Mof_C 	C 	0.8184	0.7721	0.8193	-0.115
Mof_H 	H 	0.8314	0.7269	0.8208	0.112
Mof_C 	C 	0.8443	0.8322	0.8479	0.137
Mof_C 	C 	0.8241	0.9004	0.8442	-0.113
Mof_H 	H 	0.8416	0.9414	0.8627	0.089
Mof_C 	C 	0.7437	0.7126	0.7556	0.299
Mof_N 	N 	0.4106	0.1604	0.5879	-0.172
Mof_N 	N 	0.8889	0.8246	0.8884	-0.084
Mof_O 	O 	0.6461	0.1129	0.702	-0.184
Mof_O 	O 	0.6352	0.0436	0.7822	-0.225
Mof_O 	O 	0.24502	0.2933	0.3736	-0.268
Mof_O 	O 	0.31396	0.3358	0.411	-0.291
Mof_O 	O 	0.275	0.0556	0.5915	-0.263
Mof_O 	O 	0.22069	0.0954	0.4977	-0.279
Mof_O 	O 	0.1192	0.9559	0.0592	-0.327
Mof_O 	O 	0.1101	0.8749	0.1197	-0.284
Mof_O 	O 	0.71806	0.9878	0.7794	-0.252
Mof_O 	O 	0.78253	0.0311	0.8499	-0.305
Mof_O 	O 	0.7607	0.6533	0.7556	-0.28
Mof_O 	O 	0.7029	0.7224	0.7281	-0.273
Mof_C 	C 	0.4261	0.132	0.8082	-0.025
Mof_C 	C 	0.4422	0.1512	0.8814	-0.097
Mof_C 	C 	0.4876	0.1549	0.9177	-0.001
Mof_C 	C 	0.4845	0.1553	0.6152	-0.082
Mof_C 	C 	0.4997	0.141	0.6747	-0.009
Mof_C 	C 	0.4524	0.13	0.781	-0.049
Mof_C 	C 	0.4359	0.1689	0.5746	0.089
Mof_H 	H 	0.4235	0.1594	0.899	0.087
Mof_H 	H 	0.4992	0.1572	0.5367	0.034
Mof_H 	H 	0.4805	0.1369	0.6922	0.024
Mof_H 	H 	0.4414	0.1226	0.7362	0.069
Mof_N 	N 	0.3951	0.3376	0.8607	-0.106
Mof_O 	O 	0.3584	0.1542	0.7541	-0.03
Mof_O 	O 	0.3574	0.1507	0.7235	-0.319
Mof_Cd	Cd	0.21	0.60581	0.80913	0.529
Mof_Cd	Cd	0.8214	0.88197	0.324	0.463
Mof_Cd	Cd	0.82262	0.94934	0.46342	0.424
Mof_C 	C 	0.1211	0.6091	0.7459	0.452
Mof_C 	C 	0.0713	0.6046	0.7178	-0.161
Mof_C 	C 	0.0506	0.6615	0.6811	0.145
Mof_H 	H 	0.0678	0.7005	0.6807	0.009
Mof_C 	C 	0.0066	0.6684	0.6439	-0.091
Mof_H 	H 	0.9937	0.7101	0.6189	0.086
Mof_C 	C 	0.981	0.6064	0.6458	0.105
Mof_C 	C 	0.0014	0.5506	0.682	-0.189
Mof_H 	H 	0.9853	0.5105	0.6836	0.099
Mof_C 	C 	0.0464	0.5491	0.7181	0.11
Mof_H 	H 	0.0599	0.508	0.7436	0.01
Mof_C 	C 	0.933	0.6126	0.6116	0.028
Mof_C 	C 	0.7854	0.791	0.4104	0.294
Mof_C 	C 	0.8028	0.7311	0.461	-0.008
Mof_C 	C 	0.8478	0.7202	0.4991	-0.113
Mof_H 	H 	0.8669	0.7493	0.4911	0.089
Mof_C 	C 	0.8652	0.6688	0.5477	0.136
Mof_C 	C 	0.8358	0.6276	0.5612	-0.111
Mof_H 	H 	0.8465	0.5942	0.5958	0.105
Mof_C 	C 	0.791	0.6373	0.5227	-0.001
Mof_C 	C 	0.7744	0.6879	0.4734	-0.046
Mof_H 	H 	0.7441	0.6935	0.4482	0.08
Mof_C 	C 	0.7605	0.592	0.5393	0.291
Mof_C 	C 	0.5959	0.4125	0.0638	0.348
Mof_C 	C 	0.548	0.4025	0.015	-0.143
Mof_C 	C 	0.523	0.3447	0.0246	0.062
Mof_H 	H 	0.5362	0.3151	0.0617	0.026
Mof_C 	C 	0.4815	0.3336	0.9809	-0.134
Mof_H 	H 	0.4661	0.2941	0.9854	0.086
Mof_C 	C 	0.4617	0.3802	0.9298	0.06
Mof_C 	C 	0.4849	0.4363	0.9216	-0.147
Mof_H 	H 	0.4715	0.4674	0.8856	0.088
Mof_C 	C 	0.5269	0.4459	0.9657	0.091
Mof_H 	H 	0.5417	0.4859	0.9607	0.011
Mof_C 	C 	0.4143	0.3757	0.8869	0.102
Mof_C 	C 	0.2575	0.4794	0.814	0.29
Mof_C 	C 	0.2795	0.4078	0.8142	-0.015
Mof_C 	C 	0.2527	0.3467	0.7842	-0.043
Mof_H 	H 	0.2223	0.3514	0.7622	0.083
Mof_C 	C 	0.2724	0.2784	0.7879	-0.006
Mof_C 	C 	0.3184	0.2721	0.8193	-0.115
Mof_H 	H 	0.3314	0.2269	0.8208	0.112
Mof_C 	C 	0.3443	0.3322	0.8479	0.137
Mof_C 	C 	0.3241	0.4004	0.8442	-0.113
Mof_H 	H 	0.3416	0.4414	0.8627	0.089
Mof_C 	C 	0.2437	0.2126	0.7556	0.299
Mof_N 	N 	0.9106	0.6604	0.5879	-0.172
Mof_N 	N 	0.3889	0.3246	0.8884	-0.084
Mof_O 	O 	0.1461	0.6129	0.702	-0.184
Mof_O 	O 	0.1352	0.5436	0.7822	-0.225
Mof_O 	O 	0.74502	0.7933	0.3736	-0.268
Mof_O 	O 	0.81396	0.8358	0.411	-0.291
Mof_O 	O 	0.775	0.5556	0.5915	-0.263
Mof_O 	O 	0.72069	0.5954	0.4977	-0.279
Mof_O 	O 	0.6192	0.4559	0.0592	-0.327
Mof_O 	O 	0.6101	0.3749	0.1197	-0.285
Mof_O 	O 	0.21806	0.4878	0.7794	-0.252
Mof_O 	O 	0.28253	0.5311	0.8499	-0.305
Mof_O 	O 	0.2607	0.1533	0.7556	-0.28
Mof_O 	O 	0.2029	0.2224	0.7281	-0.273
Mof_C 	C 	0.9261	0.632	0.8082	-0.025
Mof_C 	C 	0.9422	0.6512	0.8814	-0.097
Mof_C 	C 	0.9876	0.6549	0.9177	-0
Mof_C 	C 	0.9845	0.6553	0.6152	-0.082
Mof_C 	C 	0.9997	0.641	0.6747	-0.009
Mof_C 	C 	0.9524	0.63	0.781	-0.048
Mof_C 	C 	0.9359	0.6689	0.5746	0.09
Mof_H 	H 	0.9235	0.6594	0.899	0.087
Mof_H 	H 	0.9992	0.6572	0.5367	0.034
Mof_H 	H 	0.9805	0.6369	0.6922	0.024
Mof_H 	H 	0.9414	0.6226	0.7362	0.069
Mof_N 	N 	0.8951	0.8376	0.8607	-0.106
Mof_O 	O 	0.8584	0.6542	0.7541	-0.03
Mof_O 	O 	0.8574	0.6507	0.7235	-0.319
Mof_Cd	Cd	0.29	0.10581	0.69087	0.528
Mof_Cd	Cd	0.6786	0.38197	0.176	0.463
Mof_Cd	Cd	0.67738	0.44934	0.03658	0.424
Mof_C 	C 	0.3789	0.1091	0.7541	0.452
Mof_C 	C 	0.4287	0.1046	0.7822	-0.161
Mof_C 	C 	0.4494	0.1615	0.8189	0.144
Mof_H 	H 	0.4322	0.2005	0.8193	0.009
Mof_C 	C 	0.4934	0.1684	0.8561	-0.091
Mof_H 	H 	0.5063	0.2101	0.8811	0.086
Mof_C 	C 	0.519	0.1064	0.8542	0.104
Mof_C 	C 	0.4986	0.0506	0.818	-0.188
Mof_H 	H 	0.5147	0.0105	0.8164	0.099
Mof_C 	C 	0.4536	0.0491	0.7819	0.11
Mof_H 	H 	0.4401	0.008	0.7564	0.011
Mof_C 	C 	0.567	0.1126	0.8884	0.028
Mof_C 	C 	0.7146	0.291	0.0896	0.294
Mof_C 	C 	0.6972	0.2311	0.039	-0.008
Mof_C 	C 	0.6522	0.2202	0.0009	-0.113
Mof_H 	H 	0.6331	0.2493	0.0089	0.089
Mof_C 	C 	0.6348	0.1688	0.9523	0.136
Mof_C 	C 	0.6642	0.1276	0.9388	-0.111
Mof_H 	H 	0.6535	0.0942	0.9042	0.104
Mof_C 	C 	0.709	0.1373	0.9773	-0.001
Mof_C 	C 	0.7256	0.1879	0.0266	-0.046
Mof_H 	H 	0.7559	0.1935	0.0518	0.08
Mof_C 	C 	0.7395	0.092	0.9607	0.291
Mof_C 	C 	0.9041	0.9125	0.4362	0.348
Mof_C 	C 	0.952	0.9025	0.485	-0.143
Mof_C 	C 	0.977	0.8447	0.4754	0.062
Mof_H 	H 	0.9638	0.8151	0.4383	0.026
Mof_C 	C 	0.0185	0.8336	0.5191	-0.133
Mof_H 	H 	0.0339	0.7941	0.5146	0.086
Mof_C 	C 	0.0383	0.8802	0.5702	0.06
Mof_C 	C 	0.0151	0.9363	0.5784	-0.147
Mof_H 	H 	0.0285	0.9674	0.6144	0.088
Mof_C 	C 	0.9731	0.9459	0.5343	0.091
Mof_H 	H 	0.9583	0.9859	0.5393	0.011
Mof_C 	C 	0.0857	0.8757	0.6131	0.102
Mof_C 	C 	0.2425	0.9794	0.686	0.29
Mof_C 	C 	0.2205	0.9078	0.6858	-0.015
Mof_C 	C 	0.2473	0.8467	0.7158	-0.043
Mof_H 	H 	0.2777	0.8514	0.7378	0.083
Mof_C 	C 	0.2276	0.7784	0.7121	-0.006
Mof_C 	C 	0.1816	0.7721	0.6807	-0.115
Mof_H 	H 	0.1686	0.7269	0.6792	0.112
Mof_C 	C 	0.1557	0.8322	0.6521	0.137
Mof_C 	C 	0.1759	0.9004	0.6558	-0.113
Mof_H 	H 	0.1584	0.9414	0.6373	0.089
Mof_C 	C 	0.2563	0.7126	0.7444	0.299
Mof_N 	N 	0.5894	0.1604	0.9121	-0.172
Mof_N 	N 	0.1111	0.8246	0.6116	-0.084
Mof_O 	O 	0.3539	0.1129	0.798	-0.184
Mof_O 	O 	0.3648	0.0436	0.7178	-0.225
Mof_O 	O 	0.75498	0.2933	0.1264	-0.268
Mof_O 	O 	0.68604	0.3358	0.089	-0.291
Mof_O 	O 	0.725	0.0556	0.9085	-0.263
Mof_O 	O 	0.77931	0.0954	0.0023	-0.279
Mof_O 	O 	0.8808	0.9559	0.4408	-0.327
Mof_O 	O 	0.8899	0.8749	0.3803	-0.285
Mof_O 	O 	0.28194	0.9878	0.7206	-0.252
Mof_O 	O 	0.21747	0.0311	0.6501	-0.305
Mof_O 	O 	0.2393	0.6533	0.7444	-0.28
Mof_O 	O 	0.2971	0.7224	0.7719	-0.273
Mof_C 	C 	0.5739	0.132	0.6918	-0.025
Mof_C 	C 	0.5578	0.1512	0.6186	-0.097
Mof_C 	C 	0.5124	0.1549	0.5823	-0.001
Mof_C 	C 	0.5155	0.1553	0.8848	-0.082
Mof_C 	C 	0.5003	0.141	0.8253	-0.009
Mof_C 	C 	0.5476	0.13	0.719	-0.049
Mof_C 	C 	0.5641	0.1689	0.9254	0.089
Mof_H 	H 	0.5765	0.1594	0.601	0.087
Mof_H 	H 	0.5008	0.1572	0.9633	0.034
Mof_H 	H 	0.5195	0.1369	0.8078	0.024
Mof_H 	H 	0.5586	0.1226	0.7638	0.069
Mof_N 	N 	0.6049	0.3376	0.6393	-0.106
Mof_O 	O 	0.6416	0.1542	0.7459	-0.03
Mof_O 	O 	0.6426	0.1507	0.7765	-0.319
Mof_Cd	Cd	0.79	0.60581	0.69087	0.529
Mof_Cd	Cd	0.1786	0.88197	0.176	0.463
Mof_Cd	Cd	0.17738	0.94934	0.03658	0.424
Mof_C 	C 	0.8789	0.6091	0.7541	0.451
Mof_C 	C 	0.9287	0.6046	0.7822	-0.161
Mof_C 	C 	0.9494	0.6615	0.8189	0.143
Mof_H 	H 	0.9322	0.7005	0.8193	0.009
Mof_C 	C 	0.9934	0.6684	0.8561	-0.091
Mof_H 	H 	0.0063	0.7101	0.8811	0.086
Mof_C 	C 	0.019	0.6064	0.8542	0.102
Mof_C 	C 	0.9986	0.5506	0.818	-0.186
Mof_H 	H 	0.0147	0.5105	0.8164	0.098
Mof_C 	C 	0.9536	0.5491	0.7819	0.108
Mof_H 	H 	0.9401	0.508	0.7564	0.011
Mof_C 	C 	0.067	0.6126	0.8884	0.029
Mof_C 	C 	0.2146	0.791	0.0896	0.294
Mof_C 	C 	0.1972	0.7311	0.039	-0.008
Mof_C 	C 	0.1522	0.7202	0.0009	-0.113
Mof_H 	H 	0.1331	0.7493	0.0089	0.089
Mof_C 	C 	0.1348	0.6688	0.9523	0.136
Mof_C 	C 	0.1642	0.6276	0.9388	-0.111
Mof_H 	H 	0.1535	0.5942	0.9042	0.105
Mof_C 	C 	0.209	0.6373	0.9773	-0.001
Mof_C 	C 	0.2256	0.6879	0.0266	-0.046
Mof_H 	H 	0.2559	0.6935	0.0518	0.08
Mof_C 	C 	0.2395	0.592	0.9607	0.291
Mof_C 	C 	0.4041	0.4125	0.4362	0.348
Mof_C 	C 	0.452	0.4025	0.485	-0.143
Mof_C 	C 	0.477	0.3447	0.4754	0.062
Mof_H 	H 	0.4638	0.3151	0.4383	0.026
Mof_C 	C 	0.5185	0.3336	0.5191	-0.133
Mof_H 	H 	0.5339	0.2941	0.5146	0.086
Mof_C 	C 	0.5383	0.3802	0.5702	0.06
Mof_C 	C 	0.5151	0.4363	0.5784	-0.147
Mof_H 	H 	0.5285	0.4674	0.6144	0.088
Mof_C 	C 	0.4731	0.4459	0.5343	0.09
Mof_H 	H 	0.4583	0.4859	0.5393	0.011
Mof_C 	C 	0.5857	0.3757	0.6131	0.102
Mof_C 	C 	0.7425	0.4794	0.686	0.29
Mof_C 	C 	0.7205	0.4078	0.6858	-0.015
Mof_C 	C 	0.7473	0.3467	0.7158	-0.043
Mof_H 	H 	0.7777	0.3514	0.7378	0.083
Mof_C 	C 	0.7276	0.2784	0.7121	-0.006
Mof_C 	C 	0.6816	0.2721	0.6807	-0.115
Mof_H 	H 	0.6686	0.2269	0.6792	0.112
Mof_C 	C 	0.6557	0.3322	0.6521	0.137
Mof_C 	C 	0.6759	0.4004	0.6558	-0.113
Mof_H 	H 	0.6584	0.4414	0.6373	0.089
Mof_C 	C 	0.7563	0.2126	0.7444	0.299
Mof_N 	N 	0.0894	0.6604	0.9121	-0.172
Mof_N 	N 	0.6111	0.3246	0.6116	-0.084
Mof_O 	O 	0.8539	0.6129	0.798	-0.184
Mof_O 	O 	0.8648	0.5436	0.7178	-0.225
Mof_O 	O 	0.25498	0.7933	0.1264	-0.268
Mof_O 	O 	0.18604	0.8358	0.089	-0.291
Mof_O 	O 	0.225	0.5556	0.9085	-0.263
Mof_O 	O 	0.27931	0.5954	0.0023	-0.279
Mof_O 	O 	0.3808	0.4559	0.4408	-0.327
Mof_O 	O 	0.3899	0.3749	0.3803	-0.285
Mof_O 	O 	0.78194	0.4878	0.7206	-0.252
Mof_O 	O 	0.71747	0.5311	0.6501	-0.305
Mof_O 	O 	0.7393	0.1533	0.7444	-0.28
Mof_O 	O 	0.7971	0.2224	0.7719	-0.273
Mof_C 	C 	0.0739	0.632	0.6918	-0.025
Mof_C 	C 	0.0578	0.6512	0.6186	-0.097
Mof_C 	C 	0.0124	0.6549	0.5823	-0
Mof_C 	C 	0.0155	0.6553	0.8848	-0.081
Mof_C 	C 	0.0003	0.641	0.8253	-0.008
Mof_C 	C 	0.0476	0.63	0.719	-0.049
Mof_C 	C 	0.0641	0.6689	0.9254	0.089
Mof_H 	H 	0.0765	0.6594	0.601	0.087
Mof_H 	H 	0.0008	0.6572	0.9633	0.034
Mof_H 	H 	0.0195	0.6369	0.8078	0.024
Mof_H 	H 	0.0586	0.6226	0.7638	0.069
Mof_N 	N 	0.1049	0.8376	0.6393	-0.106
Mof_O 	O 	0.1416	0.6542	0.7459	-0.03
Mof_O 	O 	0.1426	0.6507	0.7765	-0.319
Mof_Cd	Cd	0.29	0.89419	0.19087	0.528
Mof_Cd	Cd	0.6786	0.61803	0.676	0.463
Mof_Cd	Cd	0.67738	0.55066	0.53658	0.424
Mof_C 	C 	0.3789	0.8909	0.2541	0.452
Mof_C 	C 	0.4287	0.8954	0.2822	-0.161
Mof_C 	C 	0.4494	0.8385	0.3189	0.144
Mof_H 	H 	0.4322	0.7995	0.3193	0.009
Mof_C 	C 	0.4934	0.8316	0.3561	-0.091
Mof_H 	H 	0.5063	0.7899	0.3811	0.086
Mof_C 	C 	0.519	0.8936	0.3542	0.104
Mof_C 	C 	0.4986	0.9494	0.318	-0.188
Mof_H 	H 	0.5147	0.9895	0.3164	0.099
Mof_C 	C 	0.4536	0.9509	0.2819	0.11
Mof_H 	H 	0.4401	0.992	0.2564	0.011
Mof_C 	C 	0.567	0.8874	0.3884	0.029
Mof_C 	C 	0.7146	0.709	0.5896	0.294
Mof_C 	C 	0.6972	0.7689	0.539	-0.008
Mof_C 	C 	0.6522	0.7798	0.5009	-0.113
Mof_H 	H 	0.6331	0.7507	0.5089	0.089
Mof_C 	C 	0.6348	0.8312	0.4523	0.136
Mof_C 	C 	0.6642	0.8724	0.4388	-0.111
Mof_H 	H 	0.6535	0.9058	0.4042	0.105
Mof_C 	C 	0.709	0.8627	0.4773	-0.001
Mof_C 	C 	0.7256	0.8121	0.5266	-0.046
Mof_H 	H 	0.7559	0.8065	0.5518	0.08
Mof_C 	C 	0.7395	0.908	0.4607	0.291
Mof_C 	C 	0.9041	0.0875	0.9362	0.347
Mof_C 	C 	0.952	0.0975	0.985	-0.142
Mof_C 	C 	0.977	0.1553	0.9754	0.06
Mof_H 	H 	0.9638	0.1849	0.9383	0.027
Mof_C 	C 	0.0185	0.1664	0.0191	-0.132
Mof_H 	H 	0.0339	0.2059	0.0146	0.085
Mof_C 	C 	0.0383	0.1198	0.0702	0.059
Mof_C 	C 	0.0151	0.0637	0.0784	-0.145
Mof_H 	H 	0.0285	0.0326	0.1144	0.088
Mof_C 	C 	0.9731	0.0541	0.0343	0.089
Mof_H 	H 	0.9583	0.0141	0.0393	0.011
Mof_C 	C 	0.0857	0.1243	0.1131	0.102
Mof_C 	C 	0.2425	0.0206	0.186	0.29
Mof_C 	C 	0.2205	0.0922	0.1858	-0.015
Mof_C 	C 	0.2473	0.1533	0.2158	-0.043
Mof_H 	H 	0.2777	0.1486	0.2378	0.083
Mof_C 	C 	0.2276	0.2216	0.2121	-0.006
Mof_C 	C 	0.1816	0.2279	0.1807	-0.115
Mof_H 	H 	0.1686	0.2731	0.1792	0.112
Mof_C 	C 	0.1557	0.1678	0.1521	0.137
Mof_C 	C 	0.1759	0.0996	0.1558	-0.113
Mof_H 	H 	0.1584	0.0586	0.1373	0.089
Mof_C 	C 	0.2563	0.2874	0.2444	0.299
Mof_N 	N 	0.5894	0.8396	0.4121	-0.172
Mof_N 	N 	0.1111	0.1754	0.1116	-0.084
Mof_O 	O 	0.3539	0.8871	0.298	-0.184
Mof_O 	O 	0.3648	0.9564	0.2178	-0.225
Mof_O 	O 	0.75498	0.7067	0.6264	-0.268
Mof_O 	O 	0.68604	0.6642	0.589	-0.291
Mof_O 	O 	0.725	0.9444	0.4085	-0.263
Mof_O 	O 	0.77931	0.9046	0.5023	-0.279
Mof_O 	O 	0.8808	0.0441	0.9408	-0.327
Mof_O 	O 	0.8899	0.1251	0.8803	-0.284
Mof_O 	O 	0.28194	0.0122	0.2206	-0.252
Mof_O 	O 	0.21747	0.9689	0.1501	-0.305
Mof_O 	O 	0.2393	0.3467	0.2444	-0.28
Mof_O 	O 	0.2971	0.2776	0.2719	-0.273
Mof_C 	C 	0.5739	0.868	0.1918	-0.025
Mof_C 	C 	0.5578	0.8488	0.1186	-0.097
Mof_C 	C 	0.5124	0.8451	0.0823	-0.001
Mof_C 	C 	0.5155	0.8447	0.3848	-0.082
Mof_C 	C 	0.5003	0.859	0.3253	-0.009
Mof_C 	C 	0.5476	0.87	0.219	-0.049
Mof_C 	C 	0.5641	0.8311	0.4254	0.089
Mof_H 	H 	0.5765	0.8406	0.101	0.087
Mof_H 	H 	0.5008	0.8428	0.4633	0.034
Mof_H 	H 	0.5195	0.8631	0.3078	0.024
Mof_H 	H 	0.5586	0.8774	0.2638	0.069
Mof_N 	N 	0.6049	0.6624	0.1393	-0.106
Mof_O 	O 	0.6416	0.8458	0.2459	-0.03
Mof_O 	O 	0.6426	0.8493	0.2765	-0.319
Mof_Cd	Cd	0.79	0.39419	0.19087	0.529
Mof_Cd	Cd	0.1786	0.11803	0.676	0.463
Mof_Cd	Cd	0.17738	0.05066	0.53658	0.424
Mof_C 	C 	0.8789	0.3909	0.2541	0.452
Mof_C 	C 	0.9287	0.3954	0.2822	-0.161
Mof_C 	C 	0.9494	0.3385	0.3189	0.145
Mof_H 	H 	0.9322	0.2995	0.3193	0.009
Mof_C 	C 	0.9934	0.3316	0.3561	-0.091
Mof_H 	H 	0.0063	0.2899	0.3811	0.086
Mof_C 	C 	0.019	0.3936	0.3542	0.105
Mof_C 	C 	0.9986	0.4494	0.318	-0.189
Mof_H 	H 	0.0147	0.4895	0.3164	0.099
Mof_C 	C 	0.9536	0.4509	0.2819	0.11
Mof_H 	H 	0.9401	0.492	0.2564	0.01
Mof_C 	C 	0.067	0.3874	0.3884	0.028
Mof_C 	C 	0.2146	0.209	0.5896	0.294
Mof_C 	C 	0.1972	0.2689	0.539	-0.008
Mof_C 	C 	0.1522	0.2798	0.5009	-0.113
Mof_H 	H 	0.1331	0.2507	0.5089	0.089
Mof_C 	C 	0.1348	0.3312	0.4523	0.136
Mof_C 	C 	0.1642	0.3724	0.4388	-0.111
Mof_H 	H 	0.1535	0.4058	0.4042	0.105
Mof_C 	C 	0.209	0.3627	0.4773	-0.001
Mof_C 	C 	0.2256	0.3121	0.5266	-0.046
Mof_H 	H 	0.2559	0.3065	0.5518	0.08
Mof_C 	C 	0.2395	0.408	0.4607	0.291
Mof_C 	C 	0.4041	0.5875	0.9362	0.348
Mof_C 	C 	0.452	0.5975	0.985	-0.143
Mof_C 	C 	0.477	0.6553	0.9754	0.062
Mof_H 	H 	0.4638	0.6849	0.9383	0.026
Mof_C 	C 	0.5185	0.6664	0.0191	-0.134
Mof_H 	H 	0.5339	0.7059	0.0146	0.086
Mof_C 	C 	0.5383	0.6198	0.0702	0.06
Mof_C 	C 	0.5151	0.5637	0.0784	-0.147
Mof_H 	H 	0.5285	0.5326	0.1144	0.088
Mof_C 	C 	0.4731	0.5541	0.0343	0.091
Mof_H 	H 	0.4583	0.5141	0.0393	0.011
Mof_C 	C 	0.5857	0.6243	0.1131	0.102
Mof_C 	C 	0.7425	0.5206	0.186	0.29
Mof_C 	C 	0.7205	0.5922	0.1858	-0.015
Mof_C 	C 	0.7473	0.6533	0.2158	-0.043
Mof_H 	H 	0.7777	0.6486	0.2378	0.083
Mof_C 	C 	0.7276	0.7216	0.2121	-0.006
Mof_C 	C 	0.6816	0.7279	0.1807	-0.115
Mof_H 	H 	0.6686	0.7731	0.1792	0.112
Mof_C 	C 	0.6557	0.6678	0.1521	0.137
Mof_C 	C 	0.6759	0.5996	0.1558	-0.113
Mof_H 	H 	0.6584	0.5586	0.1373	0.089
Mof_C 	C 	0.7563	0.7874	0.2444	0.299
Mof_N 	N 	0.0894	0.3396	0.4121	-0.172
Mof_N 	N 	0.6111	0.6754	0.1116	-0.084
Mof_O 	O 	0.8539	0.3871	0.298	-0.184
Mof_O 	O 	0.8648	0.4564	0.2178	-0.225
Mof_O 	O 	0.25498	0.2067	0.6264	-0.268
Mof_O 	O 	0.18604	0.1642	0.589	-0.291
Mof_O 	O 	0.225	0.4444	0.4085	-0.263
Mof_O 	O 	0.27931	0.4046	0.5023	-0.279
Mof_O 	O 	0.3808	0.5441	0.9408	-0.327
Mof_O 	O 	0.3899	0.6251	0.8803	-0.285
Mof_O 	O 	0.78194	0.5122	0.2206	-0.252
Mof_O 	O 	0.71747	0.4689	0.1501	-0.305
Mof_O 	O 	0.7393	0.8467	0.2444	-0.28
Mof_O 	O 	0.7971	0.7776	0.2719	-0.273
Mof_C 	C 	0.0739	0.368	0.1918	-0.025
Mof_C 	C 	0.0578	0.3488	0.1186	-0.097
Mof_C 	C 	0.0124	0.3451	0.0823	-0
Mof_C 	C 	0.0155	0.3447	0.3848	-0.082
Mof_C 	C 	0.0003	0.359	0.3253	-0.009
Mof_C 	C 	0.0476	0.37	0.219	-0.048
Mof_C 	C 	0.0641	0.3311	0.4254	0.09
Mof_H 	H 	0.0765	0.3406	0.101	0.087
Mof_H 	H 	0.0008	0.3428	0.4633	0.034
Mof_H 	H 	0.0195	0.3631	0.3078	0.024
Mof_H 	H 	0.0586	0.3774	0.2638	0.069
Mof_N 	N 	0.1049	0.1624	0.1393	-0.106
Mof_O 	O 	0.1416	0.3458	0.2459	-0.03
Mof_O 	O 	0.1426	0.3493	0.2765	-0.319
Mof_Cd	Cd	0.71	0.89419	0.30913	0.528
Mof_Cd	Cd	0.3214	0.61803	0.824	0.463
Mof_Cd	Cd	0.32262	0.55066	0.96342	0.424
Mof_C 	C 	0.6211	0.8909	0.2459	0.452
Mof_C 	C 	0.5713	0.8954	0.2178	-0.161
Mof_C 	C 	0.5506	0.8385	0.1811	0.144
Mof_H 	H 	0.5678	0.7995	0.1807	0.009
Mof_C 	C 	0.5066	0.8316	0.1439	-0.091
Mof_H 	H 	0.4937	0.7899	0.1189	0.086
Mof_C 	C 	0.481	0.8936	0.1458	0.104
Mof_C 	C 	0.5014	0.9494	0.182	-0.188
Mof_H 	H 	0.4853	0.9895	0.1836	0.099
Mof_C 	C 	0.5464	0.9509	0.2181	0.11
Mof_H 	H 	0.5599	0.992	0.2436	0.011
Mof_C 	C 	0.433	0.8874	0.1116	0.028
Mof_C 	C 	0.2854	0.709	0.9104	0.294
Mof_C 	C 	0.3028	0.7689	0.961	-0.008
Mof_C 	C 	0.3478	0.7798	0.9991	-0.113
Mof_H 	H 	0.3669	0.7507	0.9911	0.089
Mof_C 	C 	0.3652	0.8312	0.0477	0.136
Mof_C 	C 	0.3358	0.8724	0.0612	-0.111
Mof_H 	H 	0.3465	0.9058	0.0958	0.104
Mof_C 	C 	0.291	0.8627	0.0227	-0.001
Mof_C 	C 	0.2744	0.8121	0.9734	-0.046
Mof_H 	H 	0.2441	0.8065	0.9482	0.08
Mof_C 	C 	0.2605	0.908	0.0393	0.291
Mof_C 	C 	0.0959	0.0875	0.5638	0.348
Mof_C 	C 	0.048	0.0975	0.515	-0.143
Mof_C 	C 	0.023	0.1553	0.5246	0.062
Mof_H 	H 	0.0362	0.1849	0.5617	0.026
Mof_C 	C 	0.9815	0.1664	0.4809	-0.133
Mof_H 	H 	0.9661	0.2059	0.4854	0.086
Mof_C 	C 	0.9617	0.1198	0.4298	0.06
Mof_C 	C 	0.9849	0.0637	0.4216	-0.147
Mof_H 	H 	0.9715	0.0326	0.3856	0.088
Mof_C 	C 	0.0269	0.0541	0.4657	0.091
Mof_H 	H 	0.0417	0.0141	0.4607	0.011
Mof_C 	C 	0.9143	0.1243	0.3869	0.102
Mof_C 	C 	0.7575	0.0206	0.314	0.29
Mof_C 	C 	0.7795	0.0922	0.3142	-0.015
Mof_C 	C 	0.7527	0.1533	0.2842	-0.043
Mof_H 	H 	0.7223	0.1486	0.2622	0.083
Mof_C 	C 	0.7724	0.2216	0.2879	-0.006
Mof_C 	C 	0.8184	0.2279	0.3193	-0.115
Mof_H 	H 	0.8314	0.2731	0.3208	0.112
Mof_C 	C 	0.8443	0.1678	0.3479	0.137
Mof_C 	C 	0.8241	0.0996	0.3442	-0.113
Mof_H 	H 	0.8416	0.0586	0.3627	0.089
Mof_C 	C 	0.7437	0.2874	0.2556	0.299
Mof_N 	N 	0.4106	0.8396	0.0879	-0.172
Mof_N 	N 	0.8889	0.1754	0.3884	-0.084
Mof_O 	O 	0.6461	0.8871	0.202	-0.184
Mof_O 	O 	0.6352	0.9564	0.2822	-0.225
Mof_O 	O 	0.24502	0.7067	0.8736	-0.268
Mof_O 	O 	0.31396	0.6642	0.911	-0.291
Mof_O 	O 	0.275	0.9444	0.0915	-0.263
Mof_O 	O 	0.22069	0.9046	0.9977	-0.279
Mof_O 	O 	0.1192	0.0441	0.5592	-0.327
Mof_O 	O 	0.1101	0.1251	0.6197	-0.285
Mof_O 	O 	0.71806	0.0122	0.2794	-0.252
Mof_O 	O 	0.78253	0.9689	0.3499	-0.305
Mof_O 	O 	0.7607	0.3467	0.2556	-0.28
Mof_O 	O 	0.7029	0.2776	0.2281	-0.273
Mof_C 	C 	0.4261	0.868	0.3082	-0.025
Mof_C 	C 	0.4422	0.8488	0.3814	-0.097
Mof_C 	C 	0.4876	0.8451	0.4177	-0.001
Mof_C 	C 	0.4845	0.8447	0.1152	-0.082
Mof_C 	C 	0.4997	0.859	0.1747	-0.009
Mof_C 	C 	0.4524	0.87	0.281	-0.049
Mof_C 	C 	0.4359	0.8311	0.0746	0.089
Mof_H 	H 	0.4235	0.8406	0.399	0.087
Mof_H 	H 	0.4992	0.8428	0.0367	0.034
Mof_H 	H 	0.4805	0.8631	0.1922	0.024
Mof_H 	H 	0.4414	0.8774	0.2362	0.069
Mof_N 	N 	0.3951	0.6624	0.3607	-0.106
Mof_O 	O 	0.3584	0.8458	0.2541	-0.03
Mof_O 	O 	0.3574	0.8493	0.2235	-0.319
Mof_Cd	Cd	0.21	0.39419	0.30913	0.529
Mof_Cd	Cd	0.8214	0.11803	0.824	0.463
Mof_Cd	Cd	0.82262	0.05066	0.96342	0.424
Mof_C 	C 	0.1211	0.3909	0.2459	0.451
Mof_C 	C 	0.0713	0.3954	0.2178	-0.161
Mof_C 	C 	0.0506	0.3385	0.1811	0.143
Mof_H 	H 	0.0678	0.2995	0.1807	0.009
Mof_C 	C 	0.0066	0.3316	0.1439	-0.091
Mof_H 	H 	0.9937	0.2899	0.1189	0.086
Mof_C 	C 	0.981	0.3936	0.1458	0.102
Mof_C 	C 	0.0014	0.4494	0.182	-0.186
Mof_H 	H 	0.9853	0.4895	0.1836	0.098
Mof_C 	C 	0.0464	0.4509	0.2181	0.108
Mof_H 	H 	0.0599	0.492	0.2436	0.011
Mof_C 	C 	0.933	0.3874	0.1116	0.029
Mof_C 	C 	0.7854	0.209	0.9104	0.294
Mof_C 	C 	0.8028	0.2689	0.961	-0.008
Mof_C 	C 	0.8478	0.2798	0.9991	-0.113
Mof_H 	H 	0.8669	0.2507	0.9911	0.089
Mof_C 	C 	0.8652	0.3312	0.0477	0.136
Mof_C 	C 	0.8358	0.3724	0.0612	-0.111
Mof_H 	H 	0.8465	0.4058	0.0958	0.105
Mof_C 	C 	0.791	0.3627	0.0227	-0.001
Mof_C 	C 	0.7744	0.3121	0.9734	-0.046
Mof_H 	H 	0.7441	0.3065	0.9482	0.08
Mof_C 	C 	0.7605	0.408	0.0393	0.291
Mof_C 	C 	0.5959	0.5875	0.5638	0.348
Mof_C 	C 	0.548	0.5975	0.515	-0.143
Mof_C 	C 	0.523	0.6553	0.5246	0.062
Mof_H 	H 	0.5362	0.6849	0.5617	0.026
Mof_C 	C 	0.4815	0.6664	0.4809	-0.133
Mof_H 	H 	0.4661	0.7059	0.4854	0.086
Mof_C 	C 	0.4617	0.6198	0.4298	0.06
Mof_C 	C 	0.4849	0.5637	0.4216	-0.147
Mof_H 	H 	0.4715	0.5326	0.3856	0.088
Mof_C 	C 	0.5269	0.5541	0.4657	0.09
Mof_H 	H 	0.5417	0.5141	0.4607	0.011
Mof_C 	C 	0.4143	0.6243	0.3869	0.102
Mof_C 	C 	0.2575	0.5206	0.314	0.29
Mof_C 	C 	0.2795	0.5922	0.3142	-0.015
Mof_C 	C 	0.2527	0.6533	0.2842	-0.043
Mof_H 	H 	0.2223	0.6486	0.2622	0.083
Mof_C 	C 	0.2724	0.7216	0.2879	-0.006
Mof_C 	C 	0.3184	0.7279	0.3193	-0.115
Mof_H 	H 	0.3314	0.7731	0.3208	0.112
Mof_C 	C 	0.3443	0.6678	0.3479	0.137
Mof_C 	C 	0.3241	0.5996	0.3442	-0.113
Mof_H 	H 	0.3416	0.5586	0.3627	0.089
Mof_C 	C 	0.2437	0.7874	0.2556	0.299
Mof_N 	N 	0.9106	0.3396	0.0879	-0.172
Mof_N 	N 	0.3889	0.6754	0.3884	-0.084
Mof_O 	O 	0.1461	0.3871	0.202	-0.184
Mof_O 	O 	0.1352	0.4564	0.2822	-0.225
Mof_O 	O 	0.74502	0.2067	0.8736	-0.268
Mof_O 	O 	0.81396	0.1642	0.911	-0.291
Mof_O 	O 	0.775	0.4444	0.0915	-0.263
Mof_O 	O 	0.72069	0.4046	0.9977	-0.279
Mof_O 	O 	0.6192	0.5441	0.5592	-0.327
Mof_O 	O 	0.6101	0.6251	0.6197	-0.285
Mof_O 	O 	0.21806	0.5122	0.2794	-0.252
Mof_O 	O 	0.28253	0.4689	0.3499	-0.305
Mof_O 	O 	0.2607	0.8467	0.2556	-0.28
Mof_O 	O 	0.2029	0.7776	0.2281	-0.273
Mof_C 	C 	0.9261	0.368	0.3082	-0.025
Mof_C 	C 	0.9422	0.3488	0.3814	-0.097
Mof_C 	C 	0.9876	0.3451	0.4177	-0
Mof_C 	C 	0.9845	0.3447	0.1152	-0.081
Mof_C 	C 	0.9997	0.359	0.1747	-0.008
Mof_C 	C 	0.9524	0.37	0.281	-0.049
Mof_C 	C 	0.9359	0.3311	0.0746	0.089
Mof_H 	H 	0.9235	0.3406	0.399	0.087
Mof_H 	H 	0.9992	0.3428	0.0367	0.034
Mof_H 	H 	0.9805	0.3631	0.1922	0.024
Mof_H 	H 	0.9414	0.3774	0.2362	0.069
Mof_N 	N 	0.8951	0.1624	0.3607	-0.106
Mof_O 	O 	0.8584	0.3458	0.2541	-0.03
Mof_O 	O 	0.8574	0.3493	0.2235	-0.319
_end
