data_functionalizedCrystal
_audit_creation_method	'EQeq! by Chris Wilmer'
_symmetry_space_group_name_H-M	'P1'
_symmetry_Int_Tables_number	1
_symmetry_cell_setting	triclinic
loop_
_symmetry_equiv_pos_as_xyz
  x,y,z
_cell_length_a	16.2387
_cell_length_b	18.6701
_cell_length_c	21.6565
_cell_angle_alpha	90
_cell_angle_beta	106.138
_cell_angle_gamma	90
loop_
_atom_site_label
_atom_site_type_symbol
_atom_site_fract_x
_atom_site_fract_y
_atom_site_fract_z
_atom_site_charge
Mof_C 	C 	0.5978	0.0667	0.27381	0.404
Mof_C 	C 	0.681	0.0939	0.31488	-0.189
Mof_C 	C 	0.7569	0.0618	0.31252	0.137
Mof_H 	H 	0.7549	0.021	0.2876	-0.001
Mof_C 	C 	0.8348	0.0889	0.34621	-0.229
Mof_H 	H 	0.8848	0.0659	0.3441	0.116
Mof_C 	C 	0.8404	0.15031	0.38344	0.198
Mof_C 	C 	0.7648	0.18052	0.3885	-0.233
Mof_H 	H 	0.7667	0.2199	0.4151	0.117
Mof_C 	C 	0.6866	0.1527	0.35436	0.135
Mof_H 	H 	0.6365	0.1742	0.3581	-0.003
Mof_C 	C 	0.9911	0.1691	0.38692	0.18
Mof_C 	C 	0.9831	0.1841	0.32403	-0.203
Mof_H 	H 	0.9319	0.2027	0.2983	0.109
Mof_C 	C 	0.0507	0.172	0.2984	0.084
Mof_H 	H 	0.0439	0.1818	0.2552	0.003
Mof_C 	C 	0.1275	0.1459	0.33511	-0.124
Mof_C 	C 	0.1354	0.1352	0.39898	0.089
Mof_H 	H 	0.1879	0.1204	0.4258	-0.002
Mof_C 	C 	0.0684	0.1455	0.42424	-0.208
Mof_H 	H 	0.0754	0.1363	0.4676	0.107
Mof_C 	C 	0.198	0.1277	0.30697	0.169
Mof_C 	C 	0.1838	0.108	0.24473	-0.22
Mof_H 	H 	0.1284	0.1092	0.2174	0.108
Mof_C 	C 	0.2502	0.0861	0.22134	0.137
Mof_H 	H 	0.2373	0.0722	0.1785	-0.017
Mof_C 	C 	0.3463	0.1094	0.31401	0.125
Mof_H 	H 	0.4031	0.1128	0.3385	-0.014
Mof_C 	C 	0.2826	0.1316	0.34128	-0.209
Mof_H 	H 	0.2975	0.1492	0.3831	0.105
Mof_C 	C 	0.9338	0.22987	0.46573	0.199
Mof_C 	C 	0.9835	0.29012	0.46495	-0.229
Mof_H 	H 	0.0094	0.2964	0.432	0.122
Mof_C 	C 	0.9945	0.34055	0.51287	0.134
Mof_H 	H 	0.0286	0.3804	0.5125	0.003
Mof_C 	C 	0.95517	0.33267	0.56188	-0.19
Mof_C 	C 	0.9073	0.27151	0.56234	0.139
Mof_H 	H 	0.8817	0.2648	0.5954	-0.003
Mof_C 	C 	0.8966	0.22082	0.51528	-0.238
Mof_H 	H 	0.8643	0.1801	0.5166	0.117
Mof_C 	C 	0.9616	0.39048	0.61006	0.402
Mof_C 	C 	0.847	0.56244	0.60946	0.388
Mof_C 	C 	0.76671	0.59862	0.5719	-0.178
Mof_C 	C 	0.767	0.6661	0.5464	0.122
Mof_H 	H 	0.8191	0.6889	0.5501	0.001
Mof_C 	C 	0.6916	0.7008	0.51535	-0.218
Mof_H 	H 	0.6932	0.7471	0.4999	0.108
Mof_C 	C 	0.6132	0.66626	0.50725	0.184
Mof_C 	C 	0.613	0.5977	0.53154	-0.216
Mof_H 	H 	0.5612	0.5736	0.5257	0.11
Mof_C 	C 	0.6881	0.5648	0.56417	0.12
Mof_H 	H 	0.6864	0.5193	0.5813	0
Mof_C 	C 	0.4622	0.6836	0.50066	0.147
Mof_C 	C 	0.4695	0.689	0.56537	-0.169
Mof_H 	H 	0.5191	0.7077	0.5932	0.096
Mof_C 	C 	0.4029	0.6666	0.58872	0.045
Mof_H 	H 	0.4092	0.6692	0.6327	0.015
Mof_C 	C 	0.3271	0.64041	0.54865	-0.085
Mof_C 	C 	0.3194	0.6386	0.48277	0.039
Mof_H 	H 	0.2683	0.623	0.4545	0.022
Mof_C 	C 	0.3862	0.6596	0.45889	-0.164
Mof_H 	H 	0.3802	0.6577	0.4149	0.091
Mof_C 	C 	0.2573	0.61448	0.57452	0.131
Mof_C 	C 	0.2484	0.6373	0.63306	-0.185
Mof_H 	H 	0.2881	0.6692	0.6577	0.096
Mof_C 	C 	0.1819	0.61348	0.65536	0.107
Mof_H 	H 	0.1776	0.6305	0.6947	-0.008
Mof_C 	C 	0.1977	0.5648	0.54266	-0.183
Mof_H 	H 	0.2013	0.546	0.5037	0.102
Mof_C 	C 	0.1333	0.54283	0.56789	0.113
Mof_H 	H 	0.0944	0.5091	0.5451	-0
Mof_C 	C 	0.5244	0.7485	0.42507	0.197
Mof_C 	C 	0.5714	0.7419	0.38121	-0.237
Mof_H 	H 	0.6105	0.7047	0.3854	0.116
Mof_C 	C 	0.561	0.78981	0.33126	0.137
Mof_H 	H 	0.594	0.7845	0.3026	-0.005
Mof_C 	C 	0.5029	0.84548	0.32264	-0.192
Mof_C 	C 	0.4555	0.8511	0.36662	0.139
Mof_H 	H 	0.4155	0.8878	0.362	-0.002
Mof_C 	C 	0.466	0.8042	0.41662	-0.233
Mof_H 	H 	0.4333	0.8097	0.4454	0.117
Mof_C 	C 	0.4931	0.89797	0.26964	0.403
Mof_Co	Co	0.02315	0.53723	0.65882	1.153
Mof_Co	Co	0.92695	0.45554	0.72033	1.154
Mof_N 	N 	0.3303	0.08377	0.25541	-0.256
Mof_N 	N 	0.12314	0.56698	0.62309	-0.245
Mof_N 	N 	0.92114	0.18015	0.41445	-0.201
Mof_N 	N 	0.53435	0.70052	0.47727	-0.194
Mof_O 	O 	0.92621	0.37984	0.65436	-0.448
Mof_O 	O 	0.99981	0.44712	0.60294	-0.454
Mof_O 	O 	0.52965	0.08808	0.28488	-0.436
Mof_O 	O 	0.60095	0.02472	0.22946	-0.471
Mof_O 	O 	0.84016	0.51123	0.64525	-0.449
Mof_O 	O 	0.91773	0.58561	0.60332	-0.444
Mof_O 	O 	0.44484	0.95086	0.26959	-0.461
Mof_O 	O 	0.53389	0.88734	0.22878	-0.441
Mof_C 	C 	0.0978	0.4333	0.77381	0.403
Mof_C 	C 	0.181	0.4061	0.81488	-0.19
Mof_C 	C 	0.2569	0.4382	0.81252	0.136
Mof_H 	H 	0.2549	0.479	0.7876	-0.002
Mof_C 	C 	0.3348	0.4111	0.84621	-0.23
Mof_H 	H 	0.3848	0.4341	0.8441	0.115
Mof_C 	C 	0.3404	0.34969	0.88344	0.197
Mof_C 	C 	0.2648	0.31948	0.8885	-0.234
Mof_H 	H 	0.2667	0.2801	0.9151	0.117
Mof_C 	C 	0.1866	0.3473	0.85436	0.135
Mof_H 	H 	0.1365	0.3258	0.8581	-0.003
Mof_C 	C 	0.4911	0.3309	0.88692	0.18
Mof_C 	C 	0.4831	0.3159	0.82403	-0.205
Mof_H 	H 	0.4319	0.2973	0.7983	0.109
Mof_C 	C 	0.5507	0.328	0.7984	0.086
Mof_H 	H 	0.5439	0.3182	0.7552	0.003
Mof_C 	C 	0.6275	0.3541	0.83511	-0.125
Mof_C 	C 	0.6354	0.3648	0.89898	0.089
Mof_H 	H 	0.6879	0.3796	0.9258	-0.002
Mof_C 	C 	0.5684	0.3545	0.92424	-0.208
Mof_H 	H 	0.5754	0.3637	0.9676	0.107
Mof_C 	C 	0.698	0.3723	0.80697	0.169
Mof_C 	C 	0.6838	0.392	0.74473	-0.22
Mof_H 	H 	0.6284	0.3908	0.7174	0.108
Mof_C 	C 	0.7502	0.4139	0.72134	0.137
Mof_H 	H 	0.7373	0.4278	0.6785	-0.017
Mof_C 	C 	0.8463	0.3906	0.81401	0.125
Mof_H 	H 	0.9031	0.3872	0.8385	-0.014
Mof_C 	C 	0.7826	0.3684	0.84128	-0.209
Mof_H 	H 	0.7975	0.3508	0.8831	0.105
Mof_C 	C 	0.4338	0.27013	0.96573	0.199
Mof_C 	C 	0.4835	0.20988	0.96495	-0.231
Mof_H 	H 	0.5094	0.2036	0.932	0.123
Mof_C 	C 	0.4945	0.15945	0.01287	0.134
Mof_H 	H 	0.5286	0.1196	0.0125	0.003
Mof_C 	C 	0.45517	0.16733	0.06188	-0.19
Mof_C 	C 	0.4073	0.22849	0.06234	0.14
Mof_H 	H 	0.3817	0.2352	0.0954	-0.003
Mof_C 	C 	0.3966	0.27918	0.01528	-0.239
Mof_H 	H 	0.3643	0.3199	0.0166	0.117
Mof_C 	C 	0.4616	0.10952	0.11006	0.402
Mof_C 	C 	0.347	0.93756	0.10946	0.389
Mof_C 	C 	0.26671	0.90138	0.0719	-0.178
Mof_C 	C 	0.267	0.8339	0.0464	0.123
Mof_H 	H 	0.3191	0.8111	0.0501	0.001
Mof_C 	C 	0.1916	0.7992	0.01535	-0.22
Mof_H 	H 	0.1932	0.7529	0.9999	0.11
Mof_C 	C 	0.1132	0.83374	0.00725	0.183
Mof_C 	C 	0.113	0.9023	0.03154	-0.216
Mof_H 	H 	0.0612	0.9264	0.0257	0.11
Mof_C 	C 	0.1881	0.9352	0.06417	0.12
Mof_H 	H 	0.1864	0.9807	0.0813	0
Mof_C 	C 	0.9622	0.8164	0.00066	0.147
Mof_C 	C 	0.9695	0.811	0.06537	-0.168
Mof_H 	H 	0.0191	0.7923	0.0932	0.095
Mof_C 	C 	0.9029	0.8334	0.08872	0.044
Mof_H 	H 	0.9092	0.8308	0.1327	0.015
Mof_C 	C 	0.8271	0.85959	0.04865	-0.084
Mof_C 	C 	0.8194	0.8614	0.98277	0.038
Mof_H 	H 	0.7683	0.877	0.9545	0.022
Mof_C 	C 	0.8862	0.8404	0.95889	-0.165
Mof_H 	H 	0.8802	0.8423	0.9149	0.091
Mof_C 	C 	0.7573	0.88552	0.07452	0.131
Mof_C 	C 	0.7484	0.8627	0.13306	-0.184
Mof_H 	H 	0.7881	0.8308	0.1577	0.096
Mof_C 	C 	0.6819	0.88652	0.15536	0.107
Mof_H 	H 	0.6776	0.8695	0.1947	-0.008
Mof_C 	C 	0.6977	0.9352	0.04266	-0.182
Mof_H 	H 	0.7013	0.954	0.0037	0.102
Mof_C 	C 	0.6333	0.95717	0.06789	0.112
Mof_H 	H 	0.5944	0.9909	0.0451	-0
Mof_C 	C 	0.0244	0.7515	0.92507	0.198
Mof_C 	C 	0.0714	0.7581	0.88121	-0.236
Mof_H 	H 	0.1105	0.7953	0.8854	0.116
Mof_C 	C 	0.061	0.71019	0.83126	0.136
Mof_H 	H 	0.094	0.7155	0.8026	-0.005
Mof_C 	C 	0.0029	0.65452	0.82264	-0.189
Mof_C 	C 	0.9555	0.6489	0.86662	0.137
Mof_H 	H 	0.9155	0.6122	0.862	-0.001
Mof_C 	C 	0.966	0.6958	0.91662	-0.234
Mof_H 	H 	0.9333	0.6903	0.9454	0.117
Mof_C 	C 	0.9931	0.60203	0.76964	0.401
Mof_Co	Co	0.52315	0.96277	0.15882	1.153
Mof_Co	Co	0.42695	0.04446	0.22033	1.154
Mof_N 	N 	0.8303	0.41623	0.75541	-0.256
Mof_N 	N 	0.62314	0.93302	0.12309	-0.245
Mof_N 	N 	0.42114	0.31985	0.91445	-0.201
Mof_N 	N 	0.03435	0.79948	0.97727	-0.193
Mof_O 	O 	0.42621	0.12016	0.15436	-0.448
Mof_O 	O 	0.49981	0.05288	0.10294	-0.453
Mof_O 	O 	0.02965	0.41192	0.78488	-0.436
Mof_O 	O 	0.10095	0.47528	0.72946	-0.471
Mof_O 	O 	0.34016	0.98877	0.14525	-0.448
Mof_O 	O 	0.41773	0.91439	0.10332	-0.444
Mof_O 	O 	0.94484	0.54914	0.76959	-0.461
Mof_O 	O 	0.03389	0.61266	0.72878	-0.44
Mof_C 	C 	0.9022	0.5667	0.22619	0.403
Mof_C 	C 	0.819	0.5939	0.18512	-0.19
Mof_C 	C 	0.7431	0.5618	0.18748	0.136
Mof_H 	H 	0.7451	0.521	0.2124	-0.002
Mof_C 	C 	0.6652	0.5889	0.15379	-0.23
Mof_H 	H 	0.6152	0.5659	0.1559	0.115
Mof_C 	C 	0.6596	0.65031	0.11656	0.197
Mof_C 	C 	0.7352	0.68052	0.1115	-0.234
Mof_H 	H 	0.7333	0.7199	0.0849	0.117
Mof_C 	C 	0.8134	0.6527	0.14564	0.135
Mof_H 	H 	0.8635	0.6742	0.1419	-0.003
Mof_C 	C 	0.5089	0.6691	0.11308	0.18
Mof_C 	C 	0.5169	0.6841	0.17597	-0.205
Mof_H 	H 	0.5681	0.7027	0.2017	0.109
Mof_C 	C 	0.4493	0.672	0.2016	0.086
Mof_H 	H 	0.4561	0.6818	0.2448	0.003
Mof_C 	C 	0.3725	0.6459	0.16489	-0.125
Mof_C 	C 	0.3646	0.6352	0.10102	0.089
Mof_H 	H 	0.3121	0.6204	0.0742	-0.002
Mof_C 	C 	0.4316	0.6455	0.07576	-0.208
Mof_H 	H 	0.4246	0.6363	0.0324	0.107
Mof_C 	C 	0.302	0.6277	0.19303	0.169
Mof_C 	C 	0.3162	0.608	0.25527	-0.22
Mof_H 	H 	0.3716	0.6092	0.2826	0.108
Mof_C 	C 	0.2498	0.5861	0.27866	0.137
Mof_H 	H 	0.2627	0.5722	0.3215	-0.017
Mof_C 	C 	0.1537	0.6094	0.18599	0.125
Mof_H 	H 	0.0969	0.6128	0.1615	-0.014
Mof_C 	C 	0.2174	0.6316	0.15872	-0.209
Mof_H 	H 	0.2025	0.6492	0.1169	0.105
Mof_C 	C 	0.5662	0.72987	0.03427	0.199
Mof_C 	C 	0.5165	0.79012	0.03505	-0.231
Mof_H 	H 	0.4906	0.7964	0.068	0.123
Mof_C 	C 	0.5055	0.84055	0.98713	0.134
Mof_H 	H 	0.4714	0.8804	0.9875	0.003
Mof_C 	C 	0.54483	0.83267	0.93812	-0.19
Mof_C 	C 	0.5927	0.77151	0.93766	0.14
Mof_H 	H 	0.6183	0.7648	0.9046	-0.003
Mof_C 	C 	0.6034	0.72082	0.98472	-0.239
Mof_H 	H 	0.6357	0.6801	0.9834	0.117
Mof_C 	C 	0.5384	0.89048	0.88994	0.402
Mof_C 	C 	0.653	0.06244	0.89054	0.389
Mof_C 	C 	0.73329	0.09862	0.9281	-0.178
Mof_C 	C 	0.733	0.1661	0.9536	0.123
Mof_H 	H 	0.6809	0.1889	0.9499	0.001
Mof_C 	C 	0.8084	0.2008	0.98465	-0.22
Mof_H 	H 	0.8068	0.2471	0.0001	0.11
Mof_C 	C 	0.8868	0.16626	0.99275	0.183
Mof_C 	C 	0.887	0.0977	0.96846	-0.216
Mof_H 	H 	0.9388	0.0736	0.9743	0.11
Mof_C 	C 	0.8119	0.0648	0.93583	0.12
Mof_H 	H 	0.8136	0.0193	0.9187	0
Mof_C 	C 	0.0378	0.1836	0.99934	0.147
Mof_C 	C 	0.0305	0.189	0.93463	-0.168
Mof_H 	H 	0.9809	0.2077	0.9068	0.095
Mof_C 	C 	0.0971	0.1666	0.91128	0.044
Mof_H 	H 	0.0908	0.1692	0.8673	0.015
Mof_C 	C 	0.1729	0.14041	0.95135	-0.084
Mof_C 	C 	0.1806	0.1386	0.01723	0.038
Mof_H 	H 	0.2317	0.123	0.0455	0.022
Mof_C 	C 	0.1138	0.1596	0.04111	-0.165
Mof_H 	H 	0.1198	0.1577	0.0851	0.091
Mof_C 	C 	0.2427	0.11448	0.92548	0.131
Mof_C 	C 	0.2516	0.1373	0.86694	-0.184
Mof_H 	H 	0.2119	0.1692	0.8423	0.096
Mof_C 	C 	0.3181	0.11348	0.84464	0.107
Mof_H 	H 	0.3224	0.1305	0.8053	-0.008
Mof_C 	C 	0.3023	0.0648	0.95734	-0.182
Mof_H 	H 	0.2987	0.046	0.9963	0.102
Mof_C 	C 	0.3667	0.04283	0.93211	0.112
Mof_H 	H 	0.4056	0.0091	0.9549	-0
Mof_C 	C 	0.9756	0.2485	0.07493	0.198
Mof_C 	C 	0.9286	0.2419	0.11879	-0.236
Mof_H 	H 	0.8895	0.2047	0.1146	0.116
Mof_C 	C 	0.939	0.28981	0.16874	0.136
Mof_H 	H 	0.906	0.2845	0.1974	-0.005
Mof_C 	C 	0.9971	0.34548	0.17736	-0.189
Mof_C 	C 	0.0445	0.3511	0.13338	0.137
Mof_H 	H 	0.0845	0.3878	0.138	-0.001
Mof_C 	C 	0.034	0.3042	0.08338	-0.234
Mof_H 	H 	0.0667	0.3097	0.0546	0.117
Mof_C 	C 	0.0069	0.39797	0.23036	0.401
Mof_Co	Co	0.47685	0.03723	0.84118	1.153
Mof_Co	Co	0.57305	0.95554	0.77967	1.154
Mof_N 	N 	0.1697	0.58377	0.24459	-0.256
Mof_N 	N 	0.37686	0.06698	0.87691	-0.245
Mof_N 	N 	0.57886	0.68015	0.08555	-0.201
Mof_N 	N 	0.96565	0.20052	0.02273	-0.193
Mof_O 	O 	0.57379	0.87984	0.84564	-0.448
Mof_O 	O 	0.50019	0.94712	0.89706	-0.453
Mof_O 	O 	0.97035	0.58808	0.21512	-0.436
Mof_O 	O 	0.89905	0.52472	0.27054	-0.471
Mof_O 	O 	0.65984	0.01123	0.85475	-0.448
Mof_O 	O 	0.58227	0.08561	0.89668	-0.444
Mof_O 	O 	0.05516	0.45086	0.23041	-0.461
Mof_O 	O 	0.96611	0.38734	0.27122	-0.44
Mof_C 	C 	0.4022	0.9333	0.72619	0.403
Mof_C 	C 	0.319	0.9061	0.68512	-0.19
Mof_C 	C 	0.2431	0.9382	0.68748	0.136
Mof_H 	H 	0.2451	0.979	0.7124	-0.002
Mof_C 	C 	0.1652	0.9111	0.65379	-0.23
Mof_H 	H 	0.1152	0.9341	0.6559	0.115
Mof_C 	C 	0.1596	0.84969	0.61656	0.197
Mof_C 	C 	0.2352	0.81948	0.6115	-0.234
Mof_H 	H 	0.2333	0.7801	0.5849	0.117
Mof_C 	C 	0.3134	0.8473	0.64564	0.135
Mof_H 	H 	0.3635	0.8258	0.6419	-0.003
Mof_C 	C 	0.0089	0.8309	0.61308	0.18
Mof_C 	C 	0.0169	0.8159	0.67597	-0.203
Mof_H 	H 	0.0681	0.7973	0.7017	0.109
Mof_C 	C 	0.9493	0.828	0.7016	0.084
Mof_H 	H 	0.9561	0.8182	0.7448	0.003
Mof_C 	C 	0.8725	0.8541	0.66489	-0.124
Mof_C 	C 	0.8646	0.8648	0.60102	0.089
Mof_H 	H 	0.8121	0.8796	0.5742	-0.002
Mof_C 	C 	0.9316	0.8545	0.57576	-0.208
Mof_H 	H 	0.9246	0.8637	0.5324	0.107
Mof_C 	C 	0.802	0.8723	0.69303	0.169
Mof_C 	C 	0.8162	0.892	0.75527	-0.22
Mof_H 	H 	0.8716	0.8908	0.7826	0.108
Mof_C 	C 	0.7498	0.9139	0.77866	0.137
Mof_H 	H 	0.7627	0.9278	0.8215	-0.017
Mof_C 	C 	0.6537	0.8906	0.68599	0.125
Mof_H 	H 	0.5969	0.8872	0.6615	-0.014
Mof_C 	C 	0.7174	0.8684	0.65872	-0.209
Mof_H 	H 	0.7025	0.8508	0.6169	0.105
Mof_C 	C 	0.0662	0.77013	0.53427	0.199
Mof_C 	C 	0.0165	0.70988	0.53505	-0.229
Mof_H 	H 	0.9906	0.7036	0.568	0.122
Mof_C 	C 	0.0055	0.65945	0.48713	0.134
Mof_H 	H 	0.9714	0.6196	0.4875	0.003
Mof_C 	C 	0.04483	0.66733	0.43812	-0.19
Mof_C 	C 	0.0927	0.72849	0.43766	0.139
Mof_H 	H 	0.1183	0.7352	0.4046	-0.003
Mof_C 	C 	0.1034	0.77918	0.48472	-0.238
Mof_H 	H 	0.1357	0.8199	0.4834	0.117
Mof_C 	C 	0.0384	0.60952	0.38994	0.402
Mof_C 	C 	0.153	0.43756	0.39054	0.388
Mof_C 	C 	0.23329	0.40138	0.4281	-0.178
Mof_C 	C 	0.233	0.3339	0.4536	0.122
Mof_H 	H 	0.1809	0.3111	0.4499	0.001
Mof_C 	C 	0.3084	0.2992	0.48465	-0.218
Mof_H 	H 	0.3068	0.2529	0.5001	0.108
Mof_C 	C 	0.3868	0.33374	0.49275	0.184
Mof_C 	C 	0.387	0.4023	0.46846	-0.216
Mof_H 	H 	0.4388	0.4264	0.4743	0.11
Mof_C 	C 	0.3119	0.4352	0.43583	0.12
Mof_H 	H 	0.3136	0.4807	0.4187	0
Mof_C 	C 	0.5378	0.3164	0.49934	0.147
Mof_C 	C 	0.5305	0.311	0.43463	-0.169
Mof_H 	H 	0.4809	0.2923	0.4068	0.096
Mof_C 	C 	0.5971	0.3334	0.41128	0.045
Mof_H 	H 	0.5908	0.3308	0.3673	0.015
Mof_C 	C 	0.6729	0.35959	0.45135	-0.085
Mof_C 	C 	0.6806	0.3614	0.51723	0.039
Mof_H 	H 	0.7317	0.377	0.5455	0.022
Mof_C 	C 	0.6138	0.3404	0.54111	-0.164
Mof_H 	H 	0.6198	0.3423	0.5851	0.091
Mof_C 	C 	0.7427	0.38552	0.42548	0.131
Mof_C 	C 	0.7516	0.3627	0.36694	-0.185
Mof_H 	H 	0.7119	0.3308	0.3423	0.096
Mof_C 	C 	0.8181	0.38652	0.34464	0.107
Mof_H 	H 	0.8224	0.3695	0.3053	-0.008
Mof_C 	C 	0.8023	0.4352	0.45734	-0.183
Mof_H 	H 	0.7987	0.454	0.4963	0.102
Mof_C 	C 	0.8667	0.45717	0.43211	0.113
Mof_H 	H 	0.9056	0.4909	0.4549	-0
Mof_C 	C 	0.4756	0.2515	0.57493	0.197
Mof_C 	C 	0.4286	0.2581	0.61879	-0.237
Mof_H 	H 	0.3895	0.2953	0.6146	0.116
Mof_C 	C 	0.439	0.21019	0.66874	0.137
Mof_H 	H 	0.406	0.2155	0.6974	-0.005
Mof_C 	C 	0.4971	0.15452	0.67736	-0.192
Mof_C 	C 	0.5445	0.1489	0.63338	0.139
Mof_H 	H 	0.5845	0.1122	0.638	-0.002
Mof_C 	C 	0.534	0.1958	0.58338	-0.233
Mof_H 	H 	0.5667	0.1903	0.5546	0.117
Mof_C 	C 	0.5069	0.10203	0.73036	0.403
Mof_Co	Co	0.97685	0.46277	0.34118	1.153
Mof_Co	Co	0.07305	0.54446	0.27967	1.154
Mof_N 	N 	0.6697	0.91623	0.74459	-0.256
Mof_N 	N 	0.87686	0.43302	0.37691	-0.245
Mof_N 	N 	0.07886	0.81985	0.58555	-0.201
Mof_N 	N 	0.46565	0.29948	0.52273	-0.194
Mof_O 	O 	0.07379	0.62016	0.34564	-0.448
Mof_O 	O 	0.00019	0.55288	0.39706	-0.454
Mof_O 	O 	0.47035	0.91192	0.71512	-0.436
Mof_O 	O 	0.39905	0.97528	0.77054	-0.471
Mof_O 	O 	0.15984	0.48877	0.35475	-0.449
Mof_O 	O 	0.08227	0.41439	0.39668	-0.444
Mof_O 	O 	0.55516	0.04914	0.73041	-0.461
Mof_O 	O 	0.46611	0.11266	0.77122	-0.441
_end
