data_functionalizedCrystal
_audit_creation_method	'EQeq! by Chris Wilmer'
_symmetry_space_group_name_H-M	'P1'
_symmetry_Int_Tables_number	1
_symmetry_cell_setting	triclinic
loop_
_symmetry_equiv_pos_as_xyz
  x,y,z
_cell_length_a	25.7675
_cell_length_b	16.8891
_cell_length_c	13.2819
_cell_angle_alpha	90
_cell_angle_beta	104.73
_cell_angle_gamma	90
loop_
_atom_site_label
_atom_site_type_symbol
_atom_site_fract_x
_atom_site_fract_y
_atom_site_fract_z
_atom_site_charge
Mof_Mn	Mn	0.63443	0.07291	0.85667	0.849
Mof_Mn	Mn	0.67287	0.99562	0.61595	0.951
Mof_O 	O 	0.0702	0.508	0.8902	-0.378
Mof_O 	O 	0.0992	0.4431	0.0398	-0.367
Mof_O 	O 	0.8633	0.4722	0.7553	-0.451
Mof_O 	O 	0.8621	0.3632	0.6598	-0.283
Mof_O 	O 	0.8844	0.2929	0.0717	-0.315
Mof_O 	O 	0.8475	0.387	0.9746	-0.455
Mof_O 	O 	0.7088	0.1201	0.849	-0.401
Mof_O 	O 	0.711	0.0997	0.6846	-0.38
Mof_O 	O 	0.8792	0.1607	0.5956	-0.082
Mof_O 	O 	0.9437	0.2013	0.7028	-0.07
Mof_O 	O 	0.9567	0.1409	0.9295	-0.068
Mof_O 	O 	0.0178	0.1857	0.061	-0.078
Mof_O 	O 	0.6957	0.0264	0.4687	-0.725
Mof_N 	N 	0.9842	0.1956	0.9726	-0.009
Mof_N 	N 	0.9	0.1784	0.6852	-0.002
Mof_C 	C 	0.0667	0.4543	0.9539	0.377
Mof_C 	C 	0.0183	0.4002	0.9215	-0.079
Mof_C 	C 	0.9732	0.425	0.8512	0.036
Mof_H 	H 	0.9717	0.4761	0.8246	0.036
Mof_C 	C 	0.9292	0.3748	0.8184	-0.097
Mof_C 	C 	0.9311	0.2974	0.8584	0.03
Mof_C 	C 	0.9784	0.2738	0.9305	0.082
Mof_C 	C 	0.0213	0.3245	0.963	-0.034
Mof_H 	H 	0.0519	0.3082	0.0123	0.09
Mof_C 	C 	0.8803	0.4041	0.7375	0.349
Mof_C 	C 	0.8806	0.2481	0.8335	0.048
Mof_C 	C 	0.8652	0.1963	0.7508	0.074
Mof_C 	C 	0.8177	0.1573	0.7316	-0.027
Mof_H 	H 	0.8078	0.1231	0.675	0.082
Mof_C 	C 	0.7836	0.1686	0.7972	-0.091
Mof_C 	C 	0.7975	0.2185	0.8776	0.061
Mof_H 	H 	0.7747	0.2256	0.9211	0.03
Mof_C 	C 	0.8453	0.2597	0.8968	-0.126
Mof_C 	C 	0.8602	0.3161	0.9882	0.411
Mof_C 	C 	0.7301	0.1254	0.7753	0.388
Mof_H 	H 	0.6773	0.061	0.4289	0.351
Mof_H 	H 	0.6991	0.9849	0.4353	0.276
Mof_Mn	Mn	0.13443	0.57291	0.85667	0.848
Mof_Mn	Mn	0.17287	0.49562	0.61595	0.951
Mof_O 	O 	0.5702	0.008	0.8902	-0.376
Mof_O 	O 	0.5992	0.9431	0.0398	-0.365
Mof_O 	O 	0.3633	0.9722	0.7553	-0.451
Mof_O 	O 	0.3621	0.8632	0.6598	-0.283
Mof_O 	O 	0.3844	0.7929	0.0717	-0.313
Mof_O 	O 	0.3475	0.887	0.9746	-0.455
Mof_O 	O 	0.2088	0.6201	0.849	-0.402
Mof_O 	O 	0.211	0.5997	0.6846	-0.381
Mof_O 	O 	0.3792	0.6607	0.5956	-0.083
Mof_O 	O 	0.4437	0.7013	0.7028	-0.07
Mof_O 	O 	0.4567	0.6409	0.9295	-0.068
Mof_O 	O 	0.5178	0.6857	0.061	-0.077
Mof_O 	O 	0.1957	0.5264	0.4687	-0.725
Mof_N 	N 	0.4842	0.6956	0.9726	-0.009
Mof_N 	N 	0.4	0.6784	0.6852	-0.002
Mof_C 	C 	0.5667	0.9543	0.9539	0.374
Mof_C 	C 	0.5183	0.9002	0.9215	-0.076
Mof_C 	C 	0.4732	0.925	0.8512	0.035
Mof_H 	H 	0.4717	0.9761	0.8246	0.036
Mof_C 	C 	0.4292	0.8748	0.8184	-0.097
Mof_C 	C 	0.4311	0.7974	0.8584	0.03
Mof_C 	C 	0.4784	0.7738	0.9305	0.083
Mof_C 	C 	0.5213	0.8245	0.963	-0.039
Mof_H 	H 	0.5519	0.8082	0.0123	0.092
Mof_C 	C 	0.3803	0.9041	0.7375	0.348
Mof_C 	C 	0.3806	0.7481	0.8335	0.048
Mof_C 	C 	0.3652	0.6963	0.7508	0.074
Mof_C 	C 	0.3177	0.6573	0.7316	-0.027
Mof_H 	H 	0.3078	0.6231	0.675	0.082
Mof_C 	C 	0.2836	0.6686	0.7972	-0.091
Mof_C 	C 	0.2975	0.7185	0.8776	0.061
Mof_H 	H 	0.2747	0.7256	0.9211	0.03
Mof_C 	C 	0.3453	0.7597	0.8968	-0.126
Mof_C 	C 	0.3602	0.8161	0.9882	0.409
Mof_C 	C 	0.2301	0.6254	0.7753	0.388
Mof_H 	H 	0.1773	0.561	0.4289	0.351
Mof_H 	H 	0.1991	0.4849	0.4353	0.275
Mof_Mn	Mn	0.36557	0.07291	0.64333	0.849
Mof_Mn	Mn	0.32713	0.99562	0.88405	0.95
Mof_O 	O 	0.9298	0.508	0.6098	-0.378
Mof_O 	O 	0.9008	0.4431	0.4602	-0.367
Mof_O 	O 	0.1367	0.4722	0.7447	-0.451
Mof_O 	O 	0.1379	0.3632	0.8402	-0.283
Mof_O 	O 	0.1156	0.2929	0.4283	-0.314
Mof_O 	O 	0.1525	0.387	0.5254	-0.455
Mof_O 	O 	0.2912	0.1201	0.651	-0.401
Mof_O 	O 	0.289	0.0997	0.8154	-0.38
Mof_O 	O 	0.1208	0.1607	0.9044	-0.082
Mof_O 	O 	0.0563	0.2013	0.7972	-0.07
Mof_O 	O 	0.0433	0.1409	0.5705	-0.068
Mof_O 	O 	0.9822	0.1857	0.439	-0.078
Mof_O 	O 	0.3043	0.0264	0.0313	-0.727
Mof_N 	N 	0.0158	0.1956	0.5274	-0.009
Mof_N 	N 	0.1	0.1784	0.8148	-0.002
Mof_C 	C 	0.9333	0.4543	0.5461	0.377
Mof_C 	C 	0.9817	0.4002	0.5785	-0.078
Mof_C 	C 	0.0268	0.425	0.6488	0.036
Mof_H 	H 	0.0283	0.4761	0.6754	0.036
Mof_C 	C 	0.0708	0.3748	0.6816	-0.097
Mof_C 	C 	0.0689	0.2974	0.6416	0.03
Mof_C 	C 	0.0216	0.2738	0.5695	0.082
Mof_C 	C 	0.9787	0.3245	0.537	-0.036
Mof_H 	H 	0.9481	0.3082	0.4877	0.09
Mof_C 	C 	0.1197	0.4041	0.7625	0.348
Mof_C 	C 	0.1194	0.2481	0.6665	0.048
Mof_C 	C 	0.1348	0.1963	0.7492	0.074
Mof_C 	C 	0.1823	0.1573	0.7684	-0.027
Mof_H 	H 	0.1922	0.1231	0.825	0.082
Mof_C 	C 	0.2164	0.1686	0.7028	-0.091
Mof_C 	C 	0.2025	0.2185	0.6224	0.061
Mof_H 	H 	0.2253	0.2256	0.5789	0.03
Mof_C 	C 	0.1547	0.2597	0.6032	-0.126
Mof_C 	C 	0.1398	0.3161	0.5118	0.41
Mof_C 	C 	0.2699	0.1254	0.7247	0.388
Mof_H 	H 	0.3227	0.061	0.0711	0.352
Mof_H 	H 	0.3009	0.9849	0.0647	0.277
Mof_Mn	Mn	0.86557	0.57291	0.64333	0.848
Mof_Mn	Mn	0.82713	0.49562	0.88405	0.951
Mof_O 	O 	0.4298	0.008	0.6098	-0.378
Mof_O 	O 	0.4008	0.9431	0.4602	-0.366
Mof_O 	O 	0.6367	0.9722	0.7447	-0.452
Mof_O 	O 	0.6379	0.8632	0.8402	-0.283
Mof_O 	O 	0.6156	0.7929	0.4283	-0.314
Mof_O 	O 	0.6525	0.887	0.5254	-0.455
Mof_O 	O 	0.7912	0.6201	0.651	-0.401
Mof_O 	O 	0.789	0.5997	0.8154	-0.381
Mof_O 	O 	0.6208	0.6607	0.9044	-0.083
Mof_O 	O 	0.5563	0.7013	0.7972	-0.07
Mof_O 	O 	0.5433	0.6409	0.5705	-0.068
Mof_O 	O 	0.4822	0.6857	0.439	-0.077
Mof_O 	O 	0.8043	0.5264	0.0313	-0.725
Mof_N 	N 	0.5158	0.6956	0.5274	-0.009
Mof_N 	N 	0.6	0.6784	0.8148	-0.002
Mof_C 	C 	0.4333	0.9543	0.5461	0.377
Mof_C 	C 	0.4817	0.9002	0.5785	-0.078
Mof_C 	C 	0.5268	0.925	0.6488	0.036
Mof_H 	H 	0.5283	0.9761	0.6754	0.036
Mof_C 	C 	0.5708	0.8748	0.6816	-0.097
Mof_C 	C 	0.5689	0.7974	0.6416	0.03
Mof_C 	C 	0.5216	0.7738	0.5695	0.082
Mof_C 	C 	0.4787	0.8245	0.537	-0.036
Mof_H 	H 	0.4481	0.8082	0.4877	0.09
Mof_C 	C 	0.6197	0.9041	0.7625	0.348
Mof_C 	C 	0.6194	0.7481	0.6665	0.048
Mof_C 	C 	0.6348	0.6963	0.7492	0.074
Mof_C 	C 	0.6823	0.6573	0.7684	-0.027
Mof_H 	H 	0.6922	0.6231	0.825	0.082
Mof_C 	C 	0.7164	0.6686	0.7028	-0.091
Mof_C 	C 	0.7025	0.7185	0.6224	0.061
Mof_H 	H 	0.7253	0.7256	0.5789	0.03
Mof_C 	C 	0.6547	0.7597	0.6032	-0.126
Mof_C 	C 	0.6398	0.8161	0.5118	0.41
Mof_C 	C 	0.7699	0.6254	0.7247	0.388
Mof_H 	H 	0.8227	0.561	0.0711	0.351
Mof_H 	H 	0.8009	0.4849	0.0647	0.275
Mof_Mn	Mn	0.36557	0.92709	0.14333	0.849
Mof_Mn	Mn	0.32713	0.00438	0.38405	0.951
Mof_O 	O 	0.9298	0.492	0.1098	-0.378
Mof_O 	O 	0.9008	0.5569	0.9602	-0.367
Mof_O 	O 	0.1367	0.5278	0.2447	-0.451
Mof_O 	O 	0.1379	0.6368	0.3402	-0.283
Mof_O 	O 	0.1156	0.7071	0.9283	-0.315
Mof_O 	O 	0.1525	0.613	0.0254	-0.455
Mof_O 	O 	0.2912	0.8799	0.151	-0.401
Mof_O 	O 	0.289	0.9003	0.3154	-0.38
Mof_O 	O 	0.1208	0.8393	0.4044	-0.082
Mof_O 	O 	0.0563	0.7987	0.2972	-0.07
Mof_O 	O 	0.0433	0.8591	0.0705	-0.068
Mof_O 	O 	0.9822	0.8143	0.939	-0.078
Mof_O 	O 	0.3043	0.9736	0.5313	-0.725
Mof_N 	N 	0.0158	0.8044	0.0274	-0.009
Mof_N 	N 	0.1	0.8216	0.3148	-0.002
Mof_C 	C 	0.9333	0.5457	0.0461	0.377
Mof_C 	C 	0.9817	0.5998	0.0785	-0.079
Mof_C 	C 	0.0268	0.575	0.1488	0.036
Mof_H 	H 	0.0283	0.5239	0.1754	0.036
Mof_C 	C 	0.0708	0.6252	0.1816	-0.097
Mof_C 	C 	0.0689	0.7026	0.1416	0.03
Mof_C 	C 	0.0216	0.7262	0.0695	0.082
Mof_C 	C 	0.9787	0.6755	0.037	-0.034
Mof_H 	H 	0.9481	0.6918	0.9877	0.09
Mof_C 	C 	0.1197	0.5959	0.2625	0.349
Mof_C 	C 	0.1194	0.7519	0.1665	0.048
Mof_C 	C 	0.1348	0.8037	0.2492	0.074
Mof_C 	C 	0.1823	0.8427	0.2684	-0.027
Mof_H 	H 	0.1922	0.8769	0.325	0.082
Mof_C 	C 	0.2164	0.8314	0.2028	-0.091
Mof_C 	C 	0.2025	0.7815	0.1224	0.061
Mof_H 	H 	0.2253	0.7744	0.0789	0.03
Mof_C 	C 	0.1547	0.7403	0.1032	-0.126
Mof_C 	C 	0.1398	0.6839	0.0118	0.411
Mof_C 	C 	0.2699	0.8746	0.2247	0.388
Mof_H 	H 	0.3227	0.939	0.5711	0.351
Mof_H 	H 	0.3009	0.0151	0.5647	0.276
Mof_Mn	Mn	0.86557	0.42709	0.14333	0.848
Mof_Mn	Mn	0.82713	0.50438	0.38405	0.951
Mof_O 	O 	0.4298	0.992	0.1098	-0.376
Mof_O 	O 	0.4008	0.0569	0.9602	-0.365
Mof_O 	O 	0.6367	0.0278	0.2447	-0.451
Mof_O 	O 	0.6379	0.1368	0.3402	-0.283
Mof_O 	O 	0.6156	0.2071	0.9283	-0.313
Mof_O 	O 	0.6525	0.113	0.0254	-0.455
Mof_O 	O 	0.7912	0.3799	0.151	-0.402
Mof_O 	O 	0.789	0.4003	0.3154	-0.381
Mof_O 	O 	0.6208	0.3393	0.4044	-0.083
Mof_O 	O 	0.5563	0.2987	0.2972	-0.07
Mof_O 	O 	0.5433	0.3591	0.0705	-0.068
Mof_O 	O 	0.4822	0.3143	0.939	-0.077
Mof_O 	O 	0.8043	0.4736	0.5313	-0.725
Mof_N 	N 	0.5158	0.3044	0.0274	-0.009
Mof_N 	N 	0.6	0.3216	0.3148	-0.002
Mof_C 	C 	0.4333	0.0457	0.0461	0.374
Mof_C 	C 	0.4817	0.0998	0.0785	-0.076
Mof_C 	C 	0.5268	0.075	0.1488	0.035
Mof_H 	H 	0.5283	0.0239	0.1754	0.036
Mof_C 	C 	0.5708	0.1252	0.1816	-0.097
Mof_C 	C 	0.5689	0.2026	0.1416	0.03
Mof_C 	C 	0.5216	0.2262	0.0695	0.083
Mof_C 	C 	0.4787	0.1755	0.037	-0.039
Mof_H 	H 	0.4481	0.1918	0.9877	0.092
Mof_C 	C 	0.6197	0.0959	0.2625	0.348
Mof_C 	C 	0.6194	0.2519	0.1665	0.048
Mof_C 	C 	0.6348	0.3037	0.2492	0.074
Mof_C 	C 	0.6823	0.3427	0.2684	-0.027
Mof_H 	H 	0.6922	0.3769	0.325	0.082
Mof_C 	C 	0.7164	0.3314	0.2028	-0.091
Mof_C 	C 	0.7025	0.2815	0.1224	0.061
Mof_H 	H 	0.7253	0.2744	0.0789	0.03
Mof_C 	C 	0.6547	0.2403	0.1032	-0.126
Mof_C 	C 	0.6398	0.1839	0.0118	0.409
Mof_C 	C 	0.7699	0.3746	0.2247	0.388
Mof_H 	H 	0.8227	0.439	0.5711	0.351
Mof_H 	H 	0.8009	0.5151	0.5647	0.275
Mof_Mn	Mn	0.63443	0.92709	0.35667	0.849
Mof_Mn	Mn	0.67287	0.00438	0.11595	0.95
Mof_O 	O 	0.0702	0.492	0.3902	-0.378
Mof_O 	O 	0.0992	0.5569	0.5398	-0.367
Mof_O 	O 	0.8633	0.5278	0.2553	-0.451
Mof_O 	O 	0.8621	0.6368	0.1598	-0.283
Mof_O 	O 	0.8844	0.7071	0.5717	-0.314
Mof_O 	O 	0.8475	0.613	0.4746	-0.455
Mof_O 	O 	0.7088	0.8799	0.349	-0.401
Mof_O 	O 	0.711	0.9003	0.1846	-0.38
Mof_O 	O 	0.8792	0.8393	0.0956	-0.082
Mof_O 	O 	0.9437	0.7987	0.2028	-0.07
Mof_O 	O 	0.9567	0.8591	0.4295	-0.068
Mof_O 	O 	0.0178	0.8143	0.561	-0.078
Mof_O 	O 	0.6957	0.9736	0.9687	-0.727
Mof_N 	N 	0.9842	0.8044	0.4726	-0.009
Mof_N 	N 	0.9	0.8216	0.1852	-0.002
Mof_C 	C 	0.0667	0.5457	0.4539	0.377
Mof_C 	C 	0.0183	0.5998	0.4215	-0.078
Mof_C 	C 	0.9732	0.575	0.3512	0.036
Mof_H 	H 	0.9717	0.5239	0.3246	0.036
Mof_C 	C 	0.9292	0.6252	0.3184	-0.097
Mof_C 	C 	0.9311	0.7026	0.3584	0.03
Mof_C 	C 	0.9784	0.7262	0.4305	0.082
Mof_C 	C 	0.0213	0.6755	0.463	-0.036
Mof_H 	H 	0.0519	0.6918	0.5123	0.09
Mof_C 	C 	0.8803	0.5959	0.2375	0.348
Mof_C 	C 	0.8806	0.7519	0.3335	0.048
Mof_C 	C 	0.8652	0.8037	0.2508	0.074
Mof_C 	C 	0.8177	0.8427	0.2316	-0.027
Mof_H 	H 	0.8078	0.8769	0.175	0.082
Mof_C 	C 	0.7836	0.8314	0.2972	-0.091
Mof_C 	C 	0.7975	0.7815	0.3776	0.061
Mof_H 	H 	0.7747	0.7744	0.4211	0.03
Mof_C 	C 	0.8453	0.7403	0.3968	-0.126
Mof_C 	C 	0.8602	0.6839	0.4882	0.41
Mof_C 	C 	0.7301	0.8746	0.2753	0.388
Mof_H 	H 	0.6773	0.939	0.9289	0.352
Mof_H 	H 	0.6991	0.0151	0.9353	0.277
Mof_Mn	Mn	0.13443	0.42709	0.35667	0.848
Mof_Mn	Mn	0.17287	0.50438	0.11595	0.951
Mof_O 	O 	0.5702	0.992	0.3902	-0.378
Mof_O 	O 	0.5992	0.0569	0.5398	-0.366
Mof_O 	O 	0.3633	0.0278	0.2553	-0.452
Mof_O 	O 	0.3621	0.1368	0.1598	-0.283
Mof_O 	O 	0.3844	0.2071	0.5717	-0.314
Mof_O 	O 	0.3475	0.113	0.4746	-0.455
Mof_O 	O 	0.2088	0.3799	0.349	-0.401
Mof_O 	O 	0.211	0.4003	0.1846	-0.381
Mof_O 	O 	0.3792	0.3393	0.0956	-0.083
Mof_O 	O 	0.4437	0.2987	0.2028	-0.07
Mof_O 	O 	0.4567	0.3591	0.4295	-0.068
Mof_O 	O 	0.5178	0.3143	0.561	-0.077
Mof_O 	O 	0.1957	0.4736	0.9687	-0.725
Mof_N 	N 	0.4842	0.3044	0.4726	-0.009
Mof_N 	N 	0.4	0.3216	0.1852	-0.002
Mof_C 	C 	0.5667	0.0457	0.4539	0.377
Mof_C 	C 	0.5183	0.0998	0.4215	-0.078
Mof_C 	C 	0.4732	0.075	0.3512	0.036
Mof_H 	H 	0.4717	0.0239	0.3246	0.036
Mof_C 	C 	0.4292	0.1252	0.3184	-0.097
Mof_C 	C 	0.4311	0.2026	0.3584	0.03
Mof_C 	C 	0.4784	0.2262	0.4305	0.082
Mof_C 	C 	0.5213	0.1755	0.463	-0.036
Mof_H 	H 	0.5519	0.1918	0.5123	0.09
Mof_C 	C 	0.3803	0.0959	0.2375	0.348
Mof_C 	C 	0.3806	0.2519	0.3335	0.048
Mof_C 	C 	0.3652	0.3037	0.2508	0.074
Mof_C 	C 	0.3177	0.3427	0.2316	-0.027
Mof_H 	H 	0.3078	0.3769	0.175	0.082
Mof_C 	C 	0.2836	0.3314	0.2972	-0.091
Mof_C 	C 	0.2975	0.2815	0.3776	0.061
Mof_H 	H 	0.2747	0.2744	0.4211	0.03
Mof_C 	C 	0.3453	0.2403	0.3968	-0.126
Mof_C 	C 	0.3602	0.1839	0.4882	0.41
Mof_C 	C 	0.2301	0.3746	0.2753	0.388
Mof_H 	H 	0.1773	0.439	0.9289	0.351
Mof_H 	H 	0.1991	0.5151	0.9353	0.275
_end
