data_functionalizedCrystal
_audit_creation_method	'EQeq! by Chris Wilmer'
_symmetry_space_group_name_H-M	'P1'
_symmetry_Int_Tables_number	1
_symmetry_cell_setting	triclinic
loop_
_symmetry_equiv_pos_as_xyz
  x,y,z
_cell_length_a	39.9
_cell_length_b	9.9925
_cell_length_c	28.728
_cell_angle_alpha	90
_cell_angle_beta	133.799
_cell_angle_gamma	90
loop_
_atom_site_label
_atom_site_type_symbol
_atom_site_fract_x
_atom_site_fract_y
_atom_site_fract_z
_atom_site_charge
Mof_Cu	Cu	0.42533	0.85743	0.08497	0.92
Mof_Cu	Cu	0.40646	0.894	0.23489	0.921
Mof_O 	O 	0.58113	0.0153	0.46103	-0.368
Mof_O 	O 	0.509	0.901	0.34235	-0.406
Mof_O 	O 	0.4234	0.4698	0.87176	-0.234
Mof_O 	O 	0.43026	0.7087	0.13496	-0.38
Mof_O 	O 	0.41504	0.8503	0.17727	-0.404
Mof_O 	O 	0.45191	0.0413	0.27271	-0.382
Mof_O 	O 	0.34234	0.5366	0.1583	-0.255
Mof_N 	N 	0.43642	0.3013	0.93588	-0.238
Mof_H 	H 	0.4445	0.2854	0.9727	0.155
Mof_N 	N 	0.41397	0.0887	0.81165	-0.182
Mof_C 	C 	0.55602	0.1206	0.43357	0.288
Mof_C 	C 	0.526	0.1397	0.3606	-0.002
Mof_O 	O 	0.557	0.2103	0.46367	-0.261
Mof_C 	C 	0.49361	0.0186	0.32262	0.304
Mof_N 	N 	0.43092	0.716	0.03032	-0.187
Mof_C 	C 	0.45857	0.6094	0.05828	0.062
Mof_H 	H 	0.4783	0.5984	0.1035	0.003
Mof_C 	C 	0.46013	0.5139	0.02505	-0.09
Mof_H 	H 	0.4805	0.4395	0.0471	0.071
Mof_C 	C 	0.43169	0.528	0.95934	0.004
Mof_C 	C 	0.42986	0.4309	0.91786	0.211
Mof_C 	C 	0.43171	0.1889	0.90215	0.133
Mof_C 	C 	0.40283	0.6395	0.92962	-0.085
Mof_H 	H 	0.3831	0.6535	0.8846	0.074
Mof_C 	C 	0.40337	0.7296	0.96667	0.052
Mof_H 	H 	0.3832	0.8047	0.9459	0.02
Mof_N 	N 	0.1445	0.6596	0.97687	-0.181
Mof_C 	C 	0.16425	0.7818	0.99324	0.017
Mof_H 	H 	0.1454	0.859	0.979	0.025
Mof_C 	C 	0.21054	0.7969	0.0297	-0.02
Mof_H 	H 	0.2236	0.884	0.0402	0.042
Mof_C 	C 	0.23832	0.6861	0.0513	-0.111
Mof_H 	H 	0.2706	0.6959	0.0767	0.088
Mof_C 	C 	0.2186	0.5592	0.03571	0.131
Mof_C 	C 	0.17108	0.5515	0.99744	-0.046
Mof_H 	H 	0.1569	0.4657	0.9854	0.067
Mof_N 	N 	0.248	0.4482	0.06106	-0.236
Mof_H 	H 	0.2774	0.4641	0.083	0.154
Mof_C 	C 	0.42038	0.7321	0.16735	0.299
Mof_N 	N 	0.34755	0.0358	0.17194	-0.186
Mof_C 	C 	0.35014	0.141	0.1463	0.063
Mof_H 	H 	0.3776	0.1522	0.1547	0.004
Mof_C 	C 	0.31534	0.235	0.10809	-0.087
Mof_H 	H 	0.3188	0.3076	0.0903	0.069
Mof_C 	C 	0.27565	0.222	0.09616	0.005
Mof_C 	C 	0.23558	0.3182	0.05509	0.213
Mof_O 	O 	0.19567	0.2796	0.01995	-0.235
Mof_C 	C 	0.27243	0.1134	0.1233	-0.085
Mof_H 	H 	0.2455	0.1011	0.116	0.074
Mof_C 	C 	0.30871	0.0243	0.1607	0.053
Mof_H 	H 	0.3064	0.9512	0.1794	0.018
Mof_C 	C 	0.49827	0.2697	0.33688	-0.373
Mof_H 	H 	0.4773	0.266	0.3436	0.147
Mof_H 	H 	0.4801	0.2812	0.2908	0.132
Mof_H 	H 	0.5196	0.3453	0.361	0.138
Mof_C 	C 	0.55954	0.1465	0.35108	-0.395
Mof_H 	H 	0.5828	0.2161	0.3791	0.145
Mof_H 	H 	0.542	0.1678	0.306	0.144
Mof_H 	H 	0.575	0.0599	0.3622	0.125
Mof_C 	C 	0.41882	0.9669	0.8359	0.017
Mof_H 	H 	0.4136	0.8893	0.8124	0.025
Mof_C 	C 	0.43111	0.9521	0.8935	-0.016
Mof_H 	H 	0.4347	0.8651	0.9098	0.042
Mof_C 	C 	0.43832	0.0635	0.928	-0.115
Mof_H 	H 	0.4476	0.0544	0.9685	0.09
Mof_C 	C 	0.42019	0.1979	0.84429	-0.051
Mof_H 	H 	0.4166	0.2839	0.8272	0.07
Mof_O 	O 	0.36724	0.7357	0.2044	-0.366
Mof_C 	C 	0.37071	0.6294	0.18312	0.283
Mof_C 	C 	0.41418	0.6116	0.19405	-0
Mof_C 	C 	0.41145	0.4811	0.16362	-0.376
Mof_H 	H 	0.3845	0.4841	0.1169	0.147
Mof_H 	H 	0.4082	0.4055	0.182	0.139
Mof_H 	H 	0.4398	0.4702	0.1725	0.134
Mof_C 	C 	0.45658	0.6056	0.26772	-0.39
Mof_H 	H 	0.4845	0.5834	0.2765	0.142
Mof_H 	H 	0.4514	0.5369	0.2865	0.144
Mof_H 	H 	0.4608	0.6927	0.2868	0.124
Mof_Cu	Cu	0.92533	0.35743	0.08497	0.922
Mof_Cu	Cu	0.90646	0.394	0.23489	0.923
Mof_O 	O 	0.08113	0.5153	0.46103	-0.367
Mof_O 	O 	0.009	0.401	0.34235	-0.404
Mof_O 	O 	0.9234	0.9698	0.87176	-0.234
Mof_O 	O 	0.93026	0.2087	0.13496	-0.379
Mof_O 	O 	0.91504	0.3503	0.17727	-0.402
Mof_O 	O 	0.95191	0.5413	0.27271	-0.381
Mof_O 	O 	0.84234	0.0366	0.1583	-0.254
Mof_N 	N 	0.93642	0.8013	0.93588	-0.237
Mof_H 	H 	0.9445	0.7854	0.9727	0.156
Mof_N 	N 	0.91397	0.5887	0.81165	-0.181
Mof_C 	C 	0.05602	0.6206	0.43357	0.288
Mof_C 	C 	0.026	0.6397	0.3606	-0.001
Mof_O 	O 	0.057	0.7103	0.46367	-0.26
Mof_C 	C 	0.99361	0.5186	0.32262	0.304
Mof_N 	N 	0.93092	0.216	0.03032	-0.185
Mof_C 	C 	0.95857	0.1094	0.05828	0.061
Mof_H 	H 	0.9783	0.0984	0.1035	0.005
Mof_C 	C 	0.96013	0.0139	0.02505	-0.083
Mof_H 	H 	0.9805	0.9395	0.0471	0.069
Mof_C 	C 	0.93169	0.028	0.95934	-0.001
Mof_C 	C 	0.92986	0.9309	0.91786	0.213
Mof_C 	C 	0.93171	0.6889	0.90215	0.133
Mof_C 	C 	0.90283	0.1395	0.92962	-0.082
Mof_H 	H 	0.8831	0.1535	0.8846	0.073
Mof_C 	C 	0.90337	0.2296	0.96667	0.049
Mof_H 	H 	0.8832	0.3047	0.9459	0.02
Mof_N 	N 	0.6445	0.1596	0.97687	-0.18
Mof_C 	C 	0.66425	0.2818	0.99324	0.013
Mof_H 	H 	0.6454	0.359	0.979	0.026
Mof_C 	C 	0.71054	0.2969	0.0297	-0.016
Mof_H 	H 	0.7236	0.384	0.0402	0.041
Mof_C 	C 	0.73832	0.1861	0.0513	-0.114
Mof_H 	H 	0.7706	0.1959	0.0767	0.089
Mof_C 	C 	0.7186	0.0592	0.03571	0.135
Mof_C 	C 	0.67108	0.0515	0.99744	-0.053
Mof_H 	H 	0.6569	0.9657	0.9854	0.07
Mof_N 	N 	0.748	0.9482	0.06106	-0.237
Mof_H 	H 	0.7774	0.9641	0.083	0.154
Mof_C 	C 	0.92038	0.2321	0.16735	0.299
Mof_N 	N 	0.84755	0.5358	0.17194	-0.186
Mof_C 	C 	0.85014	0.641	0.1463	0.062
Mof_H 	H 	0.8776	0.6522	0.1547	0.004
Mof_C 	C 	0.81534	0.735	0.10809	-0.086
Mof_H 	H 	0.8188	0.8076	0.0903	0.068
Mof_C 	C 	0.77565	0.722	0.09616	0.004
Mof_C 	C 	0.73558	0.8182	0.05509	0.214
Mof_O 	O 	0.69567	0.7796	0.01995	-0.235
Mof_C 	C 	0.77243	0.6134	0.1233	-0.083
Mof_H 	H 	0.7455	0.6011	0.116	0.073
Mof_C 	C 	0.80871	0.5243	0.1607	0.05
Mof_H 	H 	0.8064	0.4512	0.1794	0.02
Mof_C 	C 	0.99827	0.7697	0.33688	-0.373
Mof_H 	H 	0.9773	0.766	0.3436	0.147
Mof_H 	H 	0.9801	0.7812	0.2908	0.132
Mof_H 	H 	0.0196	0.8453	0.361	0.138
Mof_C 	C 	0.05954	0.6465	0.35108	-0.394
Mof_H 	H 	0.0828	0.7161	0.3791	0.145
Mof_H 	H 	0.042	0.6678	0.306	0.144
Mof_H 	H 	0.075	0.5599	0.3622	0.124
Mof_C 	C 	0.91882	0.4669	0.8359	0.016
Mof_H 	H 	0.9136	0.3893	0.8124	0.025
Mof_C 	C 	0.93111	0.4521	0.8935	-0.018
Mof_H 	H 	0.9347	0.3651	0.9098	0.042
Mof_C 	C 	0.93832	0.5635	0.928	-0.114
Mof_H 	H 	0.9476	0.5544	0.9685	0.09
Mof_C 	C 	0.92019	0.6979	0.84429	-0.051
Mof_H 	H 	0.9166	0.7839	0.8272	0.07
Mof_O 	O 	0.86724	0.2357	0.2044	-0.366
Mof_C 	C 	0.87071	0.1294	0.18312	0.283
Mof_C 	C 	0.91418	0.1116	0.19405	0
Mof_C 	C 	0.91145	0.9811	0.16362	-0.376
Mof_H 	H 	0.8845	0.9841	0.1169	0.147
Mof_H 	H 	0.9082	0.9055	0.182	0.139
Mof_H 	H 	0.9398	0.9702	0.1725	0.134
Mof_C 	C 	0.95658	0.1056	0.26772	-0.39
Mof_H 	H 	0.9845	0.0834	0.2765	0.142
Mof_H 	H 	0.9514	0.0369	0.2865	0.144
Mof_H 	H 	0.9608	0.1927	0.2868	0.124
Mof_Cu	Cu	0.57467	0.85743	0.41503	0.921
Mof_Cu	Cu	0.59354	0.894	0.26511	0.922
Mof_O 	O 	0.41887	0.0153	0.03897	-0.367
Mof_O 	O 	0.491	0.901	0.15765	-0.405
Mof_O 	O 	0.5766	0.4698	0.62824	-0.233
Mof_O 	O 	0.56974	0.7087	0.36504	-0.379
Mof_O 	O 	0.58496	0.8503	0.32273	-0.403
Mof_O 	O 	0.54809	0.0413	0.22729	-0.381
Mof_O 	O 	0.65766	0.5366	0.3417	-0.254
Mof_N 	N 	0.56358	0.3013	0.56412	-0.237
Mof_H 	H 	0.5555	0.2854	0.5273	0.156
Mof_N 	N 	0.58603	0.0887	0.68835	-0.181
Mof_C 	C 	0.44398	0.1206	0.06643	0.288
Mof_C 	C 	0.474	0.1397	0.1394	-0.001
Mof_O 	O 	0.443	0.2103	0.03633	-0.26
Mof_C 	C 	0.50639	0.0186	0.17738	0.306
Mof_N 	N 	0.56908	0.716	0.46968	-0.186
Mof_C 	C 	0.54143	0.6094	0.44172	0.063
Mof_H 	H 	0.5217	0.5984	0.3965	0.004
Mof_C 	C 	0.53987	0.5139	0.47495	-0.088
Mof_H 	H 	0.5195	0.4395	0.4529	0.071
Mof_C 	C 	0.56831	0.528	0.54066	0.003
Mof_C 	C 	0.57014	0.4309	0.58214	0.211
Mof_C 	C 	0.56829	0.1889	0.59785	0.133
Mof_C 	C 	0.59717	0.6395	0.57038	-0.085
Mof_H 	H 	0.6169	0.6535	0.6154	0.074
Mof_C 	C 	0.59663	0.7296	0.53333	0.052
Mof_H 	H 	0.6168	0.8047	0.5541	0.02
Mof_N 	N 	0.8555	0.6596	0.52313	-0.181
Mof_C 	C 	0.83575	0.7818	0.50676	0.015
Mof_H 	H 	0.8546	0.859	0.521	0.025
Mof_C 	C 	0.78946	0.7969	0.4703	-0.018
Mof_H 	H 	0.7764	0.884	0.4598	0.042
Mof_C 	C 	0.76168	0.6861	0.4487	-0.112
Mof_H 	H 	0.7294	0.6959	0.4233	0.088
Mof_C 	C 	0.7814	0.5592	0.46429	0.132
Mof_C 	C 	0.82892	0.5515	0.50256	-0.047
Mof_H 	H 	0.8431	0.4657	0.5146	0.067
Mof_N 	N 	0.752	0.4482	0.43894	-0.237
Mof_H 	H 	0.7226	0.4641	0.417	0.154
Mof_C 	C 	0.57962	0.7321	0.33265	0.299
Mof_N 	N 	0.65245	0.0358	0.32806	-0.186
Mof_C 	C 	0.64986	0.141	0.3537	0.062
Mof_H 	H 	0.6224	0.1522	0.3453	0.004
Mof_C 	C 	0.68466	0.235	0.39191	-0.087
Mof_H 	H 	0.6812	0.3076	0.4097	0.069
Mof_C 	C 	0.72435	0.222	0.40384	0.005
Mof_C 	C 	0.76442	0.3182	0.44491	0.213
Mof_O 	O 	0.80433	0.2796	0.48005	-0.235
Mof_C 	C 	0.72757	0.1134	0.3767	-0.085
Mof_H 	H 	0.7545	0.1011	0.384	0.074
Mof_C 	C 	0.69129	0.0243	0.3393	0.053
Mof_H 	H 	0.6936	0.9512	0.3206	0.019
Mof_C 	C 	0.50173	0.2697	0.16312	-0.373
Mof_H 	H 	0.5227	0.266	0.1564	0.147
Mof_H 	H 	0.5199	0.2812	0.2092	0.132
Mof_H 	H 	0.4804	0.3453	0.139	0.138
Mof_C 	C 	0.44046	0.1465	0.14892	-0.395
Mof_H 	H 	0.4172	0.2161	0.1209	0.145
Mof_H 	H 	0.458	0.1678	0.194	0.144
Mof_H 	H 	0.425	0.0599	0.1378	0.125
Mof_C 	C 	0.58118	0.9669	0.6641	0.017
Mof_H 	H 	0.5864	0.8893	0.6876	0.025
Mof_C 	C 	0.56889	0.9521	0.6065	-0.018
Mof_H 	H 	0.5653	0.8651	0.5902	0.042
Mof_C 	C 	0.56168	0.0635	0.572	-0.114
Mof_H 	H 	0.5524	0.0544	0.5315	0.09
Mof_C 	C 	0.57981	0.1979	0.65571	-0.051
Mof_H 	H 	0.5834	0.2839	0.6728	0.07
Mof_O 	O 	0.63276	0.7357	0.2956	-0.366
Mof_C 	C 	0.62929	0.6294	0.31688	0.283
Mof_C 	C 	0.58582	0.6116	0.30595	-0
Mof_C 	C 	0.58855	0.4811	0.33638	-0.376
Mof_H 	H 	0.6155	0.4841	0.3831	0.147
Mof_H 	H 	0.5918	0.4055	0.318	0.139
Mof_H 	H 	0.5602	0.4702	0.3275	0.134
Mof_C 	C 	0.54342	0.6056	0.23228	-0.39
Mof_H 	H 	0.5155	0.5834	0.2235	0.142
Mof_H 	H 	0.5486	0.5369	0.2135	0.144
Mof_H 	H 	0.5392	0.6927	0.2132	0.124
Mof_Cu	Cu	0.07467	0.35743	0.41503	0.922
Mof_Cu	Cu	0.09354	0.394	0.26511	0.923
Mof_O 	O 	0.91887	0.5153	0.03897	-0.367
Mof_O 	O 	0.991	0.401	0.15765	-0.403
Mof_O 	O 	0.0766	0.9698	0.62824	-0.233
Mof_O 	O 	0.06974	0.2087	0.36504	-0.379
Mof_O 	O 	0.08496	0.3503	0.32273	-0.402
Mof_O 	O 	0.04809	0.5413	0.22729	-0.381
Mof_O 	O 	0.15766	0.0366	0.3417	-0.255
Mof_N 	N 	0.06358	0.8013	0.56412	-0.237
Mof_H 	H 	0.0555	0.7854	0.5273	0.156
Mof_N 	N 	0.08603	0.5887	0.68835	-0.181
Mof_C 	C 	0.94398	0.6206	0.06643	0.288
Mof_C 	C 	0.974	0.6397	0.1394	0.001
Mof_O 	O 	0.943	0.7103	0.03633	-0.26
Mof_C 	C 	0.00639	0.5186	0.17738	0.303
Mof_N 	N 	0.06908	0.216	0.46968	-0.186
Mof_C 	C 	0.04143	0.1094	0.44172	0.063
Mof_H 	H 	0.0217	0.0984	0.3965	0.004
Mof_C 	C 	0.03987	0.0139	0.47495	-0.089
Mof_H 	H 	0.0195	0.9395	0.4529	0.071
Mof_C 	C 	0.06831	0.028	0.54066	0.003
Mof_C 	C 	0.07014	0.9309	0.58214	0.212
Mof_C 	C 	0.06829	0.6889	0.59785	0.133
Mof_C 	C 	0.09717	0.1395	0.57038	-0.085
Mof_H 	H 	0.1169	0.1535	0.6154	0.073
Mof_C 	C 	0.09663	0.2296	0.53333	0.052
Mof_H 	H 	0.1168	0.3047	0.5541	0.02
Mof_N 	N 	0.3555	0.1596	0.52313	-0.18
Mof_C 	C 	0.33575	0.2818	0.50676	0.015
Mof_H 	H 	0.3546	0.359	0.521	0.025
Mof_C 	C 	0.28946	0.2969	0.4703	-0.018
Mof_H 	H 	0.2764	0.384	0.4598	0.042
Mof_C 	C 	0.26168	0.1861	0.4487	-0.112
Mof_H 	H 	0.2294	0.1959	0.4233	0.088
Mof_C 	C 	0.2814	0.0592	0.46429	0.131
Mof_C 	C 	0.32892	0.0515	0.50256	-0.049
Mof_H 	H 	0.3431	0.9657	0.5146	0.069
Mof_N 	N 	0.252	0.9482	0.43894	-0.236
Mof_H 	H 	0.2226	0.9641	0.417	0.154
Mof_C 	C 	0.07962	0.2321	0.33265	0.299
Mof_N 	N 	0.15245	0.5358	0.32806	-0.186
Mof_C 	C 	0.14986	0.641	0.3537	0.062
Mof_H 	H 	0.1224	0.6522	0.3453	0.004
Mof_C 	C 	0.18466	0.735	0.39191	-0.086
Mof_H 	H 	0.1812	0.8076	0.4097	0.069
Mof_C 	C 	0.22435	0.722	0.40384	0.004
Mof_C 	C 	0.26442	0.8182	0.44491	0.213
Mof_O 	O 	0.30433	0.7796	0.48005	-0.235
Mof_C 	C 	0.22757	0.6134	0.3767	-0.083
Mof_H 	H 	0.2545	0.6011	0.384	0.073
Mof_C 	C 	0.19129	0.5243	0.3393	0.05
Mof_H 	H 	0.1936	0.4512	0.3206	0.02
Mof_C 	C 	0.00173	0.7697	0.16312	-0.375
Mof_H 	H 	0.0227	0.766	0.1564	0.147
Mof_H 	H 	0.0199	0.7812	0.2092	0.133
Mof_H 	H 	0.9804	0.8453	0.139	0.139
Mof_C 	C 	0.94046	0.6465	0.14892	-0.395
Mof_H 	H 	0.9172	0.7161	0.1209	0.145
Mof_H 	H 	0.958	0.6678	0.194	0.144
Mof_H 	H 	0.925	0.5599	0.1378	0.125
Mof_C 	C 	0.08118	0.4669	0.6641	0.016
Mof_H 	H 	0.0864	0.3893	0.6876	0.025
Mof_C 	C 	0.06889	0.4521	0.6065	-0.018
Mof_H 	H 	0.0653	0.3651	0.5902	0.042
Mof_C 	C 	0.06168	0.5635	0.572	-0.114
Mof_H 	H 	0.0524	0.5544	0.5315	0.09
Mof_C 	C 	0.07981	0.6979	0.65571	-0.051
Mof_H 	H 	0.0834	0.7839	0.6728	0.07
Mof_O 	O 	0.13276	0.2357	0.2956	-0.366
Mof_C 	C 	0.12929	0.1294	0.31688	0.283
Mof_C 	C 	0.08582	0.1116	0.30595	-0.001
Mof_C 	C 	0.08855	0.9811	0.33638	-0.375
Mof_H 	H 	0.1155	0.9841	0.3831	0.147
Mof_H 	H 	0.0918	0.9055	0.318	0.139
Mof_H 	H 	0.0602	0.9702	0.3275	0.134
Mof_C 	C 	0.04342	0.1056	0.23228	-0.39
Mof_H 	H 	0.0155	0.0834	0.2235	0.141
Mof_H 	H 	0.0486	0.0369	0.2135	0.144
Mof_H 	H 	0.0392	0.1927	0.2132	0.124
Mof_Cu	Cu	0.57467	0.14257	0.91503	0.921
Mof_Cu	Cu	0.59354	0.106	0.76511	0.922
Mof_O 	O 	0.41887	0.9847	0.53897	-0.367
Mof_O 	O 	0.491	0.099	0.65765	-0.405
Mof_O 	O 	0.5766	0.5302	0.12824	-0.233
Mof_O 	O 	0.56974	0.2913	0.86504	-0.379
Mof_O 	O 	0.58496	0.1497	0.82273	-0.403
Mof_O 	O 	0.54809	0.9587	0.72729	-0.381
Mof_O 	O 	0.65766	0.4634	0.8417	-0.254
Mof_N 	N 	0.56358	0.6987	0.06412	-0.237
Mof_H 	H 	0.5555	0.7146	0.0273	0.156
Mof_N 	N 	0.58603	0.9113	0.18835	-0.181
Mof_C 	C 	0.44398	0.8794	0.56643	0.289
Mof_C 	C 	0.474	0.8603	0.6394	-0.001
Mof_O 	O 	0.443	0.7897	0.53633	-0.26
Mof_C 	C 	0.50639	0.9814	0.67738	0.305
Mof_N 	N 	0.56908	0.284	0.96968	-0.186
Mof_C 	C 	0.54143	0.3906	0.94172	0.063
Mof_H 	H 	0.5217	0.4016	0.8965	0.004
Mof_C 	C 	0.53987	0.4861	0.97495	-0.089
Mof_H 	H 	0.5195	0.5605	0.9529	0.071
Mof_C 	C 	0.56831	0.472	0.04066	0.004
Mof_C 	C 	0.57014	0.5691	0.08214	0.211
Mof_C 	C 	0.56829	0.8111	0.09785	0.133
Mof_C 	C 	0.59717	0.3605	0.07038	-0.085
Mof_H 	H 	0.6169	0.3465	0.1154	0.074
Mof_C 	C 	0.59663	0.2704	0.03333	0.052
Mof_H 	H 	0.6168	0.1953	0.0541	0.02
Mof_N 	N 	0.8555	0.3404	0.02313	-0.181
Mof_C 	C 	0.83575	0.2182	0.00676	0.017
Mof_H 	H 	0.8546	0.141	0.021	0.025
Mof_C 	C 	0.78946	0.2031	0.9703	-0.02
Mof_H 	H 	0.7764	0.116	0.9598	0.042
Mof_C 	C 	0.76168	0.3139	0.9487	-0.111
Mof_H 	H 	0.7294	0.3041	0.9233	0.088
Mof_C 	C 	0.7814	0.4408	0.96429	0.131
Mof_C 	C 	0.82892	0.4485	0.00256	-0.046
Mof_H 	H 	0.8431	0.5343	0.0146	0.067
Mof_N 	N 	0.752	0.5518	0.93894	-0.236
Mof_H 	H 	0.7226	0.5359	0.917	0.154
Mof_C 	C 	0.57962	0.2679	0.83265	0.299
Mof_N 	N 	0.65245	0.9642	0.82806	-0.186
Mof_C 	C 	0.64986	0.859	0.8537	0.063
Mof_H 	H 	0.6224	0.8478	0.8453	0.004
Mof_C 	C 	0.68466	0.765	0.89191	-0.087
Mof_H 	H 	0.6812	0.6924	0.9097	0.069
Mof_C 	C 	0.72435	0.778	0.90384	0.005
Mof_C 	C 	0.76442	0.6818	0.94491	0.213
Mof_O 	O 	0.80433	0.7204	0.98005	-0.235
Mof_C 	C 	0.72757	0.8866	0.8767	-0.085
Mof_H 	H 	0.7545	0.8989	0.884	0.074
Mof_C 	C 	0.69129	0.9757	0.8393	0.053
Mof_H 	H 	0.6936	0.0488	0.8206	0.018
Mof_C 	C 	0.50173	0.7303	0.66312	-0.373
Mof_H 	H 	0.5227	0.734	0.6564	0.147
Mof_H 	H 	0.5199	0.7188	0.7092	0.132
Mof_H 	H 	0.4804	0.6547	0.639	0.138
Mof_C 	C 	0.44046	0.8535	0.64892	-0.395
Mof_H 	H 	0.4172	0.7839	0.6209	0.145
Mof_H 	H 	0.458	0.8322	0.694	0.144
Mof_H 	H 	0.425	0.9401	0.6378	0.125
Mof_C 	C 	0.58118	0.0331	0.1641	0.017
Mof_H 	H 	0.5864	0.1107	0.1876	0.025
Mof_C 	C 	0.56889	0.0479	0.1065	-0.016
Mof_H 	H 	0.5653	0.1349	0.0902	0.042
Mof_C 	C 	0.56168	0.9365	0.072	-0.115
Mof_H 	H 	0.5524	0.9456	0.0315	0.09
Mof_C 	C 	0.57981	0.8021	0.15571	-0.051
Mof_H 	H 	0.5834	0.7161	0.1728	0.07
Mof_O 	O 	0.63276	0.2643	0.7956	-0.366
Mof_C 	C 	0.62929	0.3706	0.81688	0.283
Mof_C 	C 	0.58582	0.3884	0.80595	-0
Mof_C 	C 	0.58855	0.5189	0.83638	-0.376
Mof_H 	H 	0.6155	0.5159	0.8831	0.147
Mof_H 	H 	0.5918	0.5945	0.818	0.139
Mof_H 	H 	0.5602	0.5298	0.8275	0.134
Mof_C 	C 	0.54342	0.3944	0.73228	-0.39
Mof_H 	H 	0.5155	0.4166	0.7235	0.142
Mof_H 	H 	0.5486	0.4631	0.7135	0.144
Mof_H 	H 	0.5392	0.3073	0.7132	0.124
Mof_Cu	Cu	0.07467	0.64257	0.91503	0.922
Mof_Cu	Cu	0.09354	0.606	0.76511	0.923
Mof_O 	O 	0.91887	0.4847	0.53897	-0.367
Mof_O 	O 	0.991	0.599	0.65765	-0.404
Mof_O 	O 	0.0766	0.0302	0.12824	-0.234
Mof_O 	O 	0.06974	0.7913	0.86504	-0.379
Mof_O 	O 	0.08496	0.6497	0.82273	-0.402
Mof_O 	O 	0.04809	0.4587	0.72729	-0.381
Mof_O 	O 	0.15766	0.9634	0.8417	-0.254
Mof_N 	N 	0.06358	0.1987	0.06412	-0.237
Mof_H 	H 	0.0555	0.2146	0.0273	0.156
Mof_N 	N 	0.08603	0.4113	0.18835	-0.181
Mof_C 	C 	0.94398	0.3794	0.56643	0.288
Mof_C 	C 	0.974	0.3603	0.6394	-0.001
Mof_O 	O 	0.943	0.2897	0.53633	-0.26
Mof_C 	C 	0.00639	0.4814	0.67738	0.304
Mof_N 	N 	0.06908	0.784	0.96968	-0.185
Mof_C 	C 	0.04143	0.8906	0.94172	0.061
Mof_H 	H 	0.0217	0.9016	0.8965	0.005
Mof_C 	C 	0.03987	0.9861	0.97495	-0.083
Mof_H 	H 	0.0195	0.0605	0.9529	0.069
Mof_C 	C 	0.06831	0.972	0.04066	-0.001
Mof_C 	C 	0.07014	0.0691	0.08214	0.213
Mof_C 	C 	0.06829	0.3111	0.09785	0.133
Mof_C 	C 	0.09717	0.8605	0.07038	-0.082
Mof_H 	H 	0.1169	0.8465	0.1154	0.073
Mof_C 	C 	0.09663	0.7704	0.03333	0.049
Mof_H 	H 	0.1168	0.6953	0.0541	0.02
Mof_N 	N 	0.3555	0.8404	0.02313	-0.18
Mof_C 	C 	0.33575	0.7182	0.00676	0.013
Mof_H 	H 	0.3546	0.641	0.021	0.026
Mof_C 	C 	0.28946	0.7031	0.9703	-0.016
Mof_H 	H 	0.2764	0.616	0.9598	0.041
Mof_C 	C 	0.26168	0.8139	0.9487	-0.114
Mof_H 	H 	0.2294	0.8041	0.9233	0.089
Mof_C 	C 	0.2814	0.9408	0.96429	0.135
Mof_C 	C 	0.32892	0.9485	0.00256	-0.053
Mof_H 	H 	0.3431	0.0343	0.0146	0.07
Mof_N 	N 	0.252	0.0518	0.93894	-0.237
Mof_H 	H 	0.2226	0.0359	0.917	0.154
Mof_C 	C 	0.07962	0.7679	0.83265	0.299
Mof_N 	N 	0.15245	0.4642	0.82806	-0.186
Mof_C 	C 	0.14986	0.359	0.8537	0.062
Mof_H 	H 	0.1224	0.3478	0.8453	0.004
Mof_C 	C 	0.18466	0.265	0.89191	-0.086
Mof_H 	H 	0.1812	0.1924	0.9097	0.068
Mof_C 	C 	0.22435	0.278	0.90384	0.004
Mof_C 	C 	0.26442	0.1818	0.94491	0.214
Mof_O 	O 	0.30433	0.2204	0.98005	-0.235
Mof_C 	C 	0.22757	0.3866	0.8767	-0.083
Mof_H 	H 	0.2545	0.3989	0.884	0.073
Mof_C 	C 	0.19129	0.4757	0.8393	0.05
Mof_H 	H 	0.1936	0.5488	0.8206	0.02
Mof_C 	C 	0.00173	0.2303	0.66312	-0.373
Mof_H 	H 	0.0227	0.234	0.6564	0.147
Mof_H 	H 	0.0199	0.2188	0.7092	0.132
Mof_H 	H 	0.9804	0.1547	0.639	0.138
Mof_C 	C 	0.94046	0.3535	0.64892	-0.394
Mof_H 	H 	0.9172	0.2839	0.6209	0.145
Mof_H 	H 	0.958	0.3322	0.694	0.144
Mof_H 	H 	0.925	0.4401	0.6378	0.124
Mof_C 	C 	0.08118	0.5331	0.1641	0.016
Mof_H 	H 	0.0864	0.6107	0.1876	0.025
Mof_C 	C 	0.06889	0.5479	0.1065	-0.018
Mof_H 	H 	0.0653	0.6349	0.0902	0.042
Mof_C 	C 	0.06168	0.4365	0.072	-0.114
Mof_H 	H 	0.0524	0.4456	0.0315	0.09
Mof_C 	C 	0.07981	0.3021	0.15571	-0.051
Mof_H 	H 	0.0834	0.2161	0.1728	0.07
Mof_O 	O 	0.13276	0.7643	0.7956	-0.366
Mof_C 	C 	0.12929	0.8706	0.81688	0.283
Mof_C 	C 	0.08582	0.8884	0.80595	0
Mof_C 	C 	0.08855	0.0189	0.83638	-0.376
Mof_H 	H 	0.1155	0.0159	0.8831	0.147
Mof_H 	H 	0.0918	0.0945	0.818	0.139
Mof_H 	H 	0.0602	0.0298	0.8275	0.134
Mof_C 	C 	0.04342	0.8944	0.73228	-0.39
Mof_H 	H 	0.0155	0.9166	0.7235	0.142
Mof_H 	H 	0.0486	0.9631	0.7135	0.144
Mof_H 	H 	0.0392	0.8073	0.7132	0.124
Mof_Cu	Cu	0.42533	0.14257	0.58497	0.921
Mof_Cu	Cu	0.40646	0.106	0.73489	0.922
Mof_O 	O 	0.58113	0.9847	0.96103	-0.367
Mof_O 	O 	0.509	0.099	0.84235	-0.405
Mof_O 	O 	0.4234	0.5302	0.37176	-0.233
Mof_O 	O 	0.43026	0.2913	0.63496	-0.379
Mof_O 	O 	0.41504	0.1497	0.67727	-0.403
Mof_O 	O 	0.45191	0.9587	0.77271	-0.381
Mof_O 	O 	0.34234	0.4634	0.6583	-0.254
Mof_N 	N 	0.43642	0.6987	0.43588	-0.237
Mof_H 	H 	0.4445	0.7146	0.4727	0.156
Mof_N 	N 	0.41397	0.9113	0.31165	-0.181
Mof_C 	C 	0.55602	0.8794	0.93357	0.288
Mof_C 	C 	0.526	0.8603	0.8606	-0.001
Mof_O 	O 	0.557	0.7897	0.96367	-0.26
Mof_C 	C 	0.49361	0.9814	0.82262	0.306
Mof_N 	N 	0.43092	0.284	0.53032	-0.186
Mof_C 	C 	0.45857	0.3906	0.55828	0.063
Mof_H 	H 	0.4783	0.4016	0.6035	0.004
Mof_C 	C 	0.46013	0.4861	0.52505	-0.088
Mof_H 	H 	0.4805	0.5605	0.5471	0.071
Mof_C 	C 	0.43169	0.472	0.45934	0.003
Mof_C 	C 	0.42986	0.5691	0.41786	0.211
Mof_C 	C 	0.43171	0.8111	0.40215	0.133
Mof_C 	C 	0.40283	0.3605	0.42962	-0.085
Mof_H 	H 	0.3831	0.3465	0.3846	0.074
Mof_C 	C 	0.40337	0.2704	0.46667	0.052
Mof_H 	H 	0.3832	0.1953	0.4459	0.02
Mof_N 	N 	0.1445	0.3404	0.47687	-0.181
Mof_C 	C 	0.16425	0.2182	0.49324	0.015
Mof_H 	H 	0.1454	0.141	0.479	0.025
Mof_C 	C 	0.21054	0.2031	0.5297	-0.018
Mof_H 	H 	0.2236	0.116	0.5402	0.042
Mof_C 	C 	0.23832	0.3139	0.5513	-0.112
Mof_H 	H 	0.2706	0.3041	0.5767	0.088
Mof_C 	C 	0.2186	0.4408	0.53571	0.132
Mof_C 	C 	0.17108	0.4485	0.49744	-0.047
Mof_H 	H 	0.1569	0.5343	0.4854	0.067
Mof_N 	N 	0.248	0.5518	0.56106	-0.237
Mof_H 	H 	0.2774	0.5359	0.583	0.154
Mof_C 	C 	0.42038	0.2679	0.66735	0.299
Mof_N 	N 	0.34755	0.9642	0.67194	-0.186
Mof_C 	C 	0.35014	0.859	0.6463	0.062
Mof_H 	H 	0.3776	0.8478	0.6547	0.004
Mof_C 	C 	0.31534	0.765	0.60809	-0.087
Mof_H 	H 	0.3188	0.6924	0.5903	0.069
Mof_C 	C 	0.27565	0.778	0.59616	0.005
Mof_C 	C 	0.23558	0.6818	0.55509	0.213
Mof_O 	O 	0.19567	0.7204	0.51995	-0.235
Mof_C 	C 	0.27243	0.8866	0.6233	-0.085
Mof_H 	H 	0.2455	0.8989	0.616	0.074
Mof_C 	C 	0.30871	0.9757	0.6607	0.053
Mof_H 	H 	0.3064	0.0488	0.6794	0.019
Mof_C 	C 	0.49827	0.7303	0.83688	-0.373
Mof_H 	H 	0.4773	0.734	0.8436	0.147
Mof_H 	H 	0.4801	0.7188	0.7908	0.132
Mof_H 	H 	0.5196	0.6547	0.861	0.138
Mof_C 	C 	0.55954	0.8535	0.85108	-0.395
Mof_H 	H 	0.5828	0.7839	0.8791	0.145
Mof_H 	H 	0.542	0.8322	0.806	0.144
Mof_H 	H 	0.575	0.9401	0.8622	0.125
Mof_C 	C 	0.41882	0.0331	0.3359	0.017
Mof_H 	H 	0.4136	0.1107	0.3124	0.025
Mof_C 	C 	0.43111	0.0479	0.3935	-0.018
Mof_H 	H 	0.4347	0.1349	0.4098	0.042
Mof_C 	C 	0.43832	0.9365	0.428	-0.114
Mof_H 	H 	0.4476	0.9456	0.4685	0.09
Mof_C 	C 	0.42019	0.8021	0.34429	-0.051
Mof_H 	H 	0.4166	0.7161	0.3272	0.07
Mof_O 	O 	0.36724	0.2643	0.7044	-0.366
Mof_C 	C 	0.37071	0.3706	0.68312	0.283
Mof_C 	C 	0.41418	0.3884	0.69405	-0
Mof_C 	C 	0.41145	0.5189	0.66362	-0.376
Mof_H 	H 	0.3845	0.5159	0.6169	0.147
Mof_H 	H 	0.4082	0.5945	0.682	0.139
Mof_H 	H 	0.4398	0.5298	0.6725	0.134
Mof_C 	C 	0.45658	0.3944	0.76772	-0.39
Mof_H 	H 	0.4845	0.4166	0.7765	0.142
Mof_H 	H 	0.4514	0.4631	0.7865	0.144
Mof_H 	H 	0.4608	0.3073	0.7868	0.124
Mof_Cu	Cu	0.92533	0.64257	0.58497	0.922
Mof_Cu	Cu	0.90646	0.606	0.73489	0.923
Mof_O 	O 	0.08113	0.4847	0.96103	-0.367
Mof_O 	O 	0.009	0.599	0.84235	-0.403
Mof_O 	O 	0.9234	0.0302	0.37176	-0.233
Mof_O 	O 	0.93026	0.7913	0.63496	-0.379
Mof_O 	O 	0.91504	0.6497	0.67727	-0.402
Mof_O 	O 	0.95191	0.4587	0.77271	-0.381
Mof_O 	O 	0.84234	0.9634	0.6583	-0.255
Mof_N 	N 	0.93642	0.1987	0.43588	-0.237
Mof_H 	H 	0.9445	0.2146	0.4727	0.156
Mof_N 	N 	0.91397	0.4113	0.31165	-0.181
Mof_C 	C 	0.05602	0.3794	0.93357	0.288
Mof_C 	C 	0.026	0.3603	0.8606	0.001
Mof_O 	O 	0.057	0.2897	0.96367	-0.26
Mof_C 	C 	0.99361	0.4814	0.82262	0.303
Mof_N 	N 	0.93092	0.784	0.53032	-0.186
Mof_C 	C 	0.95857	0.8906	0.55828	0.063
Mof_H 	H 	0.9783	0.9016	0.6035	0.004
Mof_C 	C 	0.96013	0.9861	0.52505	-0.089
Mof_H 	H 	0.9805	0.0605	0.5471	0.071
Mof_C 	C 	0.93169	0.972	0.45934	0.003
Mof_C 	C 	0.92986	0.0691	0.41786	0.212
Mof_C 	C 	0.93171	0.3111	0.40215	0.133
Mof_C 	C 	0.90283	0.8605	0.42962	-0.085
Mof_H 	H 	0.8831	0.8465	0.3846	0.073
Mof_C 	C 	0.90337	0.7704	0.46667	0.052
Mof_H 	H 	0.8832	0.6953	0.4459	0.02
Mof_N 	N 	0.6445	0.8404	0.47687	-0.18
Mof_C 	C 	0.66425	0.7182	0.49324	0.015
Mof_H 	H 	0.6454	0.641	0.479	0.025
Mof_C 	C 	0.71054	0.7031	0.5297	-0.018
Mof_H 	H 	0.7236	0.616	0.5402	0.042
Mof_C 	C 	0.73832	0.8139	0.5513	-0.112
Mof_H 	H 	0.7706	0.8041	0.5767	0.088
Mof_C 	C 	0.7186	0.9408	0.53571	0.131
Mof_C 	C 	0.67108	0.9485	0.49744	-0.049
Mof_H 	H 	0.6569	0.0343	0.4854	0.069
Mof_N 	N 	0.748	0.0518	0.56106	-0.236
Mof_H 	H 	0.7774	0.0359	0.583	0.154
Mof_C 	C 	0.92038	0.7679	0.66735	0.299
Mof_N 	N 	0.84755	0.4642	0.67194	-0.186
Mof_C 	C 	0.85014	0.359	0.6463	0.062
Mof_H 	H 	0.8776	0.3478	0.6547	0.004
Mof_C 	C 	0.81534	0.265	0.60809	-0.086
Mof_H 	H 	0.8188	0.1924	0.5903	0.069
Mof_C 	C 	0.77565	0.278	0.59616	0.004
Mof_C 	C 	0.73558	0.1818	0.55509	0.213
Mof_O 	O 	0.69567	0.2204	0.51995	-0.235
Mof_C 	C 	0.77243	0.3866	0.6233	-0.083
Mof_H 	H 	0.7455	0.3989	0.616	0.073
Mof_C 	C 	0.80871	0.4757	0.6607	0.05
Mof_H 	H 	0.8064	0.5488	0.6794	0.02
Mof_C 	C 	0.99827	0.2303	0.83688	-0.375
Mof_H 	H 	0.9773	0.234	0.8436	0.147
Mof_H 	H 	0.9801	0.2188	0.7908	0.133
Mof_H 	H 	0.0196	0.1547	0.861	0.139
Mof_C 	C 	0.05954	0.3535	0.85108	-0.395
Mof_H 	H 	0.0828	0.2839	0.8791	0.145
Mof_H 	H 	0.042	0.3322	0.806	0.144
Mof_H 	H 	0.075	0.4401	0.8622	0.125
Mof_C 	C 	0.91882	0.5331	0.3359	0.016
Mof_H 	H 	0.9136	0.6107	0.3124	0.025
Mof_C 	C 	0.93111	0.5479	0.3935	-0.018
Mof_H 	H 	0.9347	0.6349	0.4098	0.042
Mof_C 	C 	0.93832	0.4365	0.428	-0.114
Mof_H 	H 	0.9476	0.4456	0.4685	0.09
Mof_C 	C 	0.92019	0.3021	0.34429	-0.051
Mof_H 	H 	0.9166	0.2161	0.3272	0.07
Mof_O 	O 	0.86724	0.7643	0.7044	-0.366
Mof_C 	C 	0.87071	0.8706	0.68312	0.283
Mof_C 	C 	0.91418	0.8884	0.69405	-0.001
Mof_C 	C 	0.91145	0.0189	0.66362	-0.375
Mof_H 	H 	0.8845	0.0159	0.6169	0.147
Mof_H 	H 	0.9082	0.0945	0.682	0.139
Mof_H 	H 	0.9398	0.0298	0.6725	0.134
Mof_C 	C 	0.95658	0.8944	0.76772	-0.39
Mof_H 	H 	0.9845	0.9166	0.7765	0.141
Mof_H 	H 	0.9514	0.9631	0.7865	0.144
Mof_H 	H 	0.9608	0.8073	0.7868	0.124
_end
