data_functionalizedCrystal
_audit_creation_method	'EQeq! by Chris Wilmer'
_symmetry_space_group_name_H-M	'P1'
_symmetry_Int_Tables_number	1
_symmetry_cell_setting	triclinic
loop_
_symmetry_equiv_pos_as_xyz
  x,y,z
_cell_length_a	5.006
_cell_length_b	11.052
_cell_length_c	12.8251
_cell_angle_alpha	91.6839
_cell_angle_beta	101.254
_cell_angle_gamma	81.3402
loop_
_atom_site_label
_atom_site_type_symbol
_atom_site_fract_x
_atom_site_fract_y
_atom_site_fract_z
_atom_site_charge
Mof_Cu	Cu	0.826	0.30453	0.22675	0.899
Mof_Cu	Cu	0.59925	0.80453	0.77325	0.913
Mof_H 	H 	0.5946	0.5104	0.8722	0.055
Mof_H 	H 	0.8305	0.3746	0.0012	0.013
Mof_H 	H 	0.334	0.4945	0.1936	0.032
Mof_H 	H 	0.0741	0.6291	0.068	0.078
Mof_H 	H 	0.0143	0.9601	0.4874	0.002
Mof_H 	H 	0.7965	0.0694	0.338	0.077
Mof_H 	H 	0.3253	0.3024	0.3898	0.032
Mof_H 	H 	0.5547	0.2014	0.5438	0.064
Mof_H 	H 	0.7224	0.0104	0.1278	0.03
Mof_H 	H 	0.8293	0.8746	0.9988	0.034
Mof_H 	H 	0.1404	0.9945	0.8064	0.06
Mof_H 	H 	0.0061	0.1291	0.932	0.054
Mof_H 	H 	0.5269	0.4601	0.5126	0.092
Mof_H 	H 	0.4585	0.5694	0.662	0.019
Mof_H 	H 	0.9355	0.8024	0.6102	-0.015
Mof_H 	H 	0.0109	0.7014	0.4562	0.145
Mof_C 	C 	0.13818	0.6728	0.86856	0.369
Mof_C 	C 	0.30408	0.587	0.95436	-0.045
Mof_C 	C 	0.53648	0.5084	0.93656	-0.045
Mof_C 	C 	0.67915	0.4279	0.0151	0.027
Mof_C 	C 	0.38585	0.4978	0.1281	0.035
Mof_C 	C 	0.2291	0.5794	0.053	-0.058
Mof_C 	C 	0.46253	0.9988	0.63426	0.236
Mof_C 	C 	0.30902	0.0681	0.53424	-0.033
Mof_C 	C 	0.07992	0.0297	0.46984	0.112
Mof_C 	C 	0.95097	0.0957	0.37974	-0.116
Mof_C 	C 	0.26189	0.2336	0.41038	0.033
Mof_C 	C 	0.4018	0.173	0.503	-0.044
Mof_C 	C 	0.26962	0.1728	0.13144	0.345
Mof_C 	C 	0.34972	0.087	0.04564	-0.097
Mof_C 	C 	0.59992	0.0084	0.06344	0.026
Mof_C 	C 	0.66405	0.9279	0.9849	-0.037
Mof_C 	C 	0.25775	0.9978	0.8719	-0.05
Mof_C 	C 	0.1761	0.0794	0.947	0.051
Mof_C 	C 	0.82827	0.4988	0.36574	0.213
Mof_C 	C 	0.77478	0.5681	0.46576	0.049
Mof_C 	C 	0.61008	0.5297	0.53016	-0.117
Mof_C 	C 	0.57123	0.5957	0.62026	0.075
Mof_C 	C 	0.85151	0.7336	0.58962	0.104
Mof_C 	C 	0.8988	0.673	0.497	-0.204
Mof_N 	N 	0.61003	0.4227	0.11086	-0.2
Mof_N 	N 	0.03695	0.1964	0.3489	-0.14
Mof_N 	N 	0.49917	0.9227	0.88914	-0.175
Mof_N 	N 	0.68805	0.6964	0.6511	-0.214
Mof_O 	O 	0.88973	0.7099	0.87806	-0.424
Mof_O 	O 	0.24827	0.7012	0.79494	-0.355
Mof_O 	O 	0.35508	0.9095	0.65836	-0.352
Mof_O 	O 	0.68256	0.0305	0.68232	-0.246
Mof_O 	O 	0.01167	0.2099	0.12194	-0.364
Mof_O 	O 	0.45333	0.2012	0.20506	-0.36
Mof_O 	O 	0.69672	0.4095	0.34164	-0.354
Mof_O 	O 	0.00024	0.5305	0.31768	-0.229
_end
