data_functionalizedCrystal
_audit_creation_method	'EQeq! by Chris Wilmer'
_symmetry_space_group_name_H-M	'P1'
_symmetry_Int_Tables_number	1
_symmetry_cell_setting	triclinic
loop_
_symmetry_equiv_pos_as_xyz
  x,y,z
_cell_length_a	9.551
_cell_length_b	9.979
_cell_length_c	10
_cell_angle_alpha	107.67
_cell_angle_beta	97.92
_cell_angle_gamma	114.91
loop_
_atom_site_label
_atom_site_type_symbol
_atom_site_fract_x
_atom_site_fract_y
_atom_site_fract_z
_atom_site_charge
Mof_Co	Co	0.6856	0.2066	0.1567	1.194
Mof_Co	Co	0.8638	0.033	0.6126	1.184
Mof_P 	P 	0.8251	0.5993	0.27	0.514
Mof_P 	P 	0.8442	0.0292	0.3063	0.477
Mof_P 	P 	0.6631	0.9695	0.8385	0.527
Mof_O 	O 	0.6588	0.1094	0.9492	-0.435
Mof_O 	O 	0.823	0.1592	0.2757	-0.393
Mof_O 	O 	0.829	0.4413	0.2108	-0.364
Mof_O 	O 	0.5092	0.8108	0.7966	-0.401
Mof_O 	O 	0.7505	0.9646	0.4038	-0.379
Mof_O 	O 	0.9935	0.736	0.3018	-0.387
Mof_O 	O 	0.6938	0.9996	0.7032	-0.389
Mof_O 	O 	0.0262	0.0931	0.3742	-0.387
Mof_O 	O 	0.6957	0.6044	0.168	-0.19
Mof_O 	O 	0.781	0.6156	0.4197	-0.195
Mof_O 	O 	0.7809	0.8822	0.1513	-0.178
Mof_O 	O 	0.8131	0.9546	0.9083	-0.196
Mof_Co	Co	0.3144	0.7934	0.8433	1.193
Mof_Co	Co	0.1362	0.967	0.3874	1.183
Mof_P 	P 	0.1749	0.4007	0.73	0.513
Mof_P 	P 	0.1558	0.9708	0.6937	0.476
Mof_P 	P 	0.3369	0.0305	0.1615	0.527
Mof_O 	O 	0.3412	0.8906	0.0508	-0.435
Mof_O 	O 	0.177	0.8408	0.7243	-0.393
Mof_O 	O 	0.171	0.5587	0.7892	-0.364
Mof_O 	O 	0.4908	0.1892	0.2034	-0.401
Mof_O 	O 	0.2495	0.0354	0.5962	-0.379
Mof_O 	O 	0.0065	0.264	0.6982	-0.387
Mof_O 	O 	0.3062	0.0004	0.2968	-0.389
Mof_O 	O 	0.9738	0.9069	0.6258	-0.387
Mof_O 	O 	0.3043	0.3956	0.832	-0.19
Mof_O 	O 	0.219	0.3844	0.5803	-0.195
Mof_O 	O 	0.2191	0.1178	0.8487	-0.178
Mof_O 	O 	0.1869	0.0454	0.0917	-0.196
_end
