data_functionalizedCrystal
_audit_creation_method	'EQeq! by Chris Wilmer'
_symmetry_space_group_name_H-M	'P1'
_symmetry_Int_Tables_number	1
_symmetry_cell_setting	triclinic
loop_
_symmetry_equiv_pos_as_xyz
  x,y,z
_cell_length_a	18.7119
_cell_length_b	18.7119
_cell_length_c	9.3991
_cell_angle_alpha	90
_cell_angle_beta	90
_cell_angle_gamma	90
loop_
_atom_site_label
_atom_site_type_symbol
_atom_site_fract_x
_atom_site_fract_y
_atom_site_fract_z
_atom_site_charge
Mof_Si	Si	0.66733	0.43493	0.59263	11.451
Mof_Si	Si	0.83241	0.55072	0.34042	11.158
Mof_P 	P 	0.05259	0.5617	0.16585	2.878
Mof_Al	Al	0.6646	0.54488	0.33858	12.118
Mof_Al	Al	0.83449	0.43375	0.5917	11.63
Mof_Al	Al	0.93016	0.44186	0.15934	10.446
Mof_O 	O 	0.65868	0.50071	0.50739	-6.129
Mof_O 	O 	0.74802	0.42037	0.62086	-5.8
Mof_O 	O 	0.63561	0.36951	0.52128	-5.81
Mof_O 	O 	0.63462	0.44221	0.74275	-5.52
Mof_O 	O 	0.75242	0.56204	0.30635	-5.739
Mof_O 	O 	0.00651	0.62645	0.2064	-3.764
Mof_O 	O 	0.87003	0.61837	0.34592	-5.781
Mof_O 	O 	0.84068	0.51982	0.48882	-5.495
Mof_O 	O 	0.85918	0.49824	0.22132	-5.329
Mof_O 	O 	0.11797	0.56803	0.25217	-3.687
Mof_O 	O 	0.07864	0.5798	0.00746	-3.379
Mof_O 	O 	0.01487	0.49539	0.17445	-3.248
Mof_Si	Si	0.83267	0.06507	0.59263	11.327
Mof_Si	Si	0.66759	0.94928	0.34042	11.166
Mof_P 	P 	0.44741	0.9383	0.16585	2.888
Mof_Al	Al	0.8354	0.95512	0.33858	12.057
Mof_Al	Al	0.66551	0.06625	0.5917	11.601
Mof_Al	Al	0.56984	0.05814	0.15934	10.68
Mof_O 	O 	0.84132	0.99929	0.50739	-6.068
Mof_O 	O 	0.75198	0.07963	0.62086	-5.77
Mof_O 	O 	0.86439	0.13049	0.52128	-5.753
Mof_O 	O 	0.86538	0.05779	0.74275	-5.457
Mof_O 	O 	0.74758	0.93796	0.30635	-5.727
Mof_O 	O 	0.49349	0.87355	0.2064	-3.796
Mof_O 	O 	0.62997	0.88163	0.34592	-5.802
Mof_O 	O 	0.65932	0.98018	0.48882	-5.49
Mof_O 	O 	0.64082	0.00176	0.22132	-5.369
Mof_O 	O 	0.38203	0.93197	0.25217	-3.691
Mof_O 	O 	0.42136	0.9202	0.00746	-3.466
Mof_O 	O 	0.48513	0.00461	0.17445	-3.291
Mof_Si	Si	0.06507	0.66733	0.59263	11.357
Mof_Si	Si	0.94928	0.83241	0.34042	11.124
Mof_P 	P 	0.9383	0.05259	0.16585	2.835
Mof_Al	Al	0.95512	0.6646	0.33858	12.035
Mof_Al	Al	0.06625	0.83449	0.5917	11.535
Mof_Al	Al	0.05814	0.93016	0.15934	10.428
Mof_O 	O 	0.99929	0.65868	0.50739	-6.078
Mof_O 	O 	0.07963	0.74802	0.62086	-5.76
Mof_O 	O 	0.13049	0.63561	0.52128	-5.777
Mof_O 	O 	0.05779	0.63462	0.74275	-5.467
Mof_O 	O 	0.93796	0.75242	0.30635	-5.712
Mof_O 	O 	0.87355	0.00651	0.2064	-3.771
Mof_O 	O 	0.88163	0.87003	0.34592	-5.775
Mof_O 	O 	0.98018	0.84068	0.48882	-5.458
Mof_O 	O 	0.00176	0.85918	0.22132	-5.316
Mof_O 	O 	0.93197	0.11797	0.25217	-3.667
Mof_O 	O 	0.9202	0.07864	0.00746	-3.388
Mof_O 	O 	0.00461	0.01487	0.17445	-3.199
Mof_Si	Si	0.43493	0.83267	0.59263	11.457
Mof_Si	Si	0.55072	0.66759	0.34042	11.21
Mof_P 	P 	0.5617	0.44741	0.16585	2.904
Mof_Al	Al	0.54488	0.8354	0.33858	12.118
Mof_Al	Al	0.43375	0.66551	0.5917	11.667
Mof_Al	Al	0.44186	0.56984	0.15934	10.62
Mof_O 	O 	0.50071	0.84132	0.50739	-6.131
Mof_O 	O 	0.42037	0.75198	0.62086	-5.81
Mof_O 	O 	0.36951	0.86439	0.52128	-5.799
Mof_O 	O 	0.44221	0.86538	0.74275	-5.532
Mof_O 	O 	0.56204	0.74758	0.30635	-5.751
Mof_O 	O 	0.62645	0.49349	0.2064	-3.795
Mof_O 	O 	0.61837	0.62997	0.34592	-5.812
Mof_O 	O 	0.51982	0.65932	0.48882	-5.518
Mof_O 	O 	0.49824	0.64082	0.22132	-5.374
Mof_O 	O 	0.56803	0.38203	0.25217	-3.703
Mof_O 	O 	0.5798	0.42136	0.00746	-3.438
Mof_O 	O 	0.49539	0.48513	0.17445	-3.3
Mof_Si	Si	0.33267	0.56507	0.40737	11.452
Mof_Si	Si	0.16759	0.44928	0.65958	11.159
Mof_P 	P 	0.94741	0.4383	0.83415	2.879
Mof_Al	Al	0.3354	0.45512	0.66142	12.119
Mof_Al	Al	0.16551	0.56625	0.4083	11.63
Mof_Al	Al	0.06984	0.55814	0.84066	10.446
Mof_O 	O 	0.34132	0.49929	0.49261	-6.129
Mof_O 	O 	0.25198	0.57963	0.37914	-5.8
Mof_O 	O 	0.36439	0.63049	0.47872	-5.81
Mof_O 	O 	0.36538	0.55779	0.25725	-5.52
Mof_O 	O 	0.24758	0.43796	0.69365	-5.739
Mof_O 	O 	0.99349	0.37355	0.7936	-3.764
Mof_O 	O 	0.12997	0.38163	0.65408	-5.781
Mof_O 	O 	0.15932	0.48018	0.51118	-5.495
Mof_O 	O 	0.14082	0.50176	0.77868	-5.329
Mof_O 	O 	0.88203	0.43197	0.74783	-3.687
Mof_O 	O 	0.92136	0.4202	0.99254	-3.379
Mof_O 	O 	0.98513	0.50461	0.82555	-3.248
Mof_Si	Si	0.16733	0.93493	0.40737	11.327
Mof_Si	Si	0.33241	0.05072	0.65958	11.166
Mof_P 	P 	0.55259	0.0617	0.83415	2.888
Mof_Al	Al	0.1646	0.04488	0.66142	12.057
Mof_Al	Al	0.33449	0.93375	0.4083	11.601
Mof_Al	Al	0.43016	0.94186	0.84066	10.68
Mof_O 	O 	0.15868	0.00071	0.49261	-6.068
Mof_O 	O 	0.24802	0.92037	0.37914	-5.77
Mof_O 	O 	0.13561	0.86951	0.47872	-5.753
Mof_O 	O 	0.13462	0.94221	0.25725	-5.457
Mof_O 	O 	0.25242	0.06204	0.69365	-5.727
Mof_O 	O 	0.50651	0.12645	0.7936	-3.796
Mof_O 	O 	0.37003	0.11837	0.65408	-5.802
Mof_O 	O 	0.34068	0.01982	0.51118	-5.49
Mof_O 	O 	0.35918	0.99824	0.77868	-5.369
Mof_O 	O 	0.61797	0.06803	0.74783	-3.691
Mof_O 	O 	0.57864	0.0798	0.99254	-3.466
Mof_O 	O 	0.51487	0.99539	0.82555	-3.291
Mof_Si	Si	0.93493	0.33267	0.40737	11.357
Mof_Si	Si	0.05072	0.16759	0.65958	11.124
Mof_P 	P 	0.0617	0.94741	0.83415	2.835
Mof_Al	Al	0.04488	0.3354	0.66142	12.035
Mof_Al	Al	0.93375	0.16551	0.4083	11.535
Mof_Al	Al	0.94186	0.06984	0.84066	10.428
Mof_O 	O 	0.00071	0.34132	0.49261	-6.078
Mof_O 	O 	0.92037	0.25198	0.37914	-5.76
Mof_O 	O 	0.86951	0.36439	0.47872	-5.777
Mof_O 	O 	0.94221	0.36538	0.25725	-5.467
Mof_O 	O 	0.06204	0.24758	0.69365	-5.712
Mof_O 	O 	0.12645	0.99349	0.7936	-3.771
Mof_O 	O 	0.11837	0.12997	0.65408	-5.775
Mof_O 	O 	0.01982	0.15932	0.51118	-5.458
Mof_O 	O 	0.99824	0.14082	0.77868	-5.316
Mof_O 	O 	0.06803	0.88203	0.74783	-3.667
Mof_O 	O 	0.0798	0.92136	0.99254	-3.388
Mof_O 	O 	0.99539	0.98513	0.82555	-3.199
Mof_Si	Si	0.56507	0.16733	0.40737	11.457
Mof_Si	Si	0.44928	0.33241	0.65958	11.21
Mof_P 	P 	0.4383	0.55259	0.83415	2.904
Mof_Al	Al	0.45512	0.1646	0.66142	12.118
Mof_Al	Al	0.56625	0.33449	0.4083	11.667
Mof_Al	Al	0.55814	0.43016	0.84066	10.62
Mof_O 	O 	0.49929	0.15868	0.49261	-6.131
Mof_O 	O 	0.57963	0.24802	0.37914	-5.81
Mof_O 	O 	0.63049	0.13561	0.47872	-5.799
Mof_O 	O 	0.55779	0.13462	0.25725	-5.532
Mof_O 	O 	0.43796	0.25242	0.69365	-5.751
Mof_O 	O 	0.37355	0.50651	0.7936	-3.795
Mof_O 	O 	0.38163	0.37003	0.65408	-5.812
Mof_O 	O 	0.48018	0.34068	0.51118	-5.518
Mof_O 	O 	0.50176	0.35918	0.77868	-5.374
Mof_O 	O 	0.43197	0.61797	0.74783	-3.703
Mof_O 	O 	0.4202	0.57864	0.99254	-3.438
Mof_O 	O 	0.50461	0.51487	0.82555	-3.3
_end
