data_functionalizedCrystal
_audit_creation_method	'EQeq! by Chris Wilmer'
_symmetry_space_group_name_H-M	'P1'
_symmetry_Int_Tables_number	1
_symmetry_cell_setting	triclinic
loop_
_symmetry_equiv_pos_as_xyz
  x,y,z
_cell_length_a	17.158
_cell_length_b	21.591
_cell_length_c	25.308
_cell_angle_alpha	90
_cell_angle_beta	90
_cell_angle_gamma	90
loop_
_atom_site_label
_atom_site_type_symbol
_atom_site_fract_x
_atom_site_fract_y
_atom_site_fract_z
_atom_site_charge
Mof_Zn	Zn	0.495	0.665	0.6131	1.234
Mof_Zn	Zn	0.005	0.335	0.1131	1.234
Mof_Zn	Zn	0.495	0.835	0.6131	1.234
Mof_Zn	Zn	0.005	0.165	0.1131	1.234
Mof_Zn	Zn	0.3832	0.75	0.6829	1.219
Mof_Zn	Zn	0.1168	0.25	0.1829	1.219
Mof_H 	H 	0.9658	0.4349	0.0333	0.286
Mof_H 	H 	0.3905	0.6286	0.8122	0.025
Mof_H 	H 	0.4013	0.5623	0.8837	0.07
Mof_H 	H 	0.572	0.4681	0.8085	0.067
Mof_H 	H 	0.556	0.5322	0.7355	0.033
Mof_H 	H 	0.3824	0.4592	0.9179	0.062
Mof_H 	H 	0.5205	0.3741	0.0251	0.058
Mof_H 	H 	0.6164	0.464	0.9011	0.062
Mof_H 	H 	0.2964	0.3934	0.9449	0.071
Mof_H 	H 	0.1846	0.3632	0.9889	0.025
Mof_H 	H 	0.3068	0.3618	0.1254	0.025
Mof_H 	H 	0.4177	0.3945	0.0797	0.072
Mof_H 	H 	0.6419	0.3267	0.0221	0.072
Mof_H 	H 	0.7741	0.3155	0.0607	0.02
Mof_H 	H 	0.826	0.4835	0.008	0.008
Mof_H 	H 	0.7042	0.494	0.9708	0.084
Mof_H 	H 	0.5342	0.5651	0.5333	0.286
Mof_H 	H 	0.1095	0.3714	0.3122	0.024
Mof_H 	H 	0.0987	0.4377	0.3837	0.07
Mof_H 	H 	0.928	0.5319	0.3085	0.068
Mof_H 	H 	0.944	0.4678	0.2355	0.032
Mof_H 	H 	0.1176	0.5408	0.4179	0.061
Mof_H 	H 	0.9795	0.6259	0.5251	0.058
Mof_H 	H 	0.8836	0.536	0.4011	0.062
Mof_H 	H 	0.2036	0.6066	0.4449	0.073
Mof_H 	H 	0.3154	0.6368	0.4889	0.022
Mof_H 	H 	0.1932	0.6382	0.6254	0.024
Mof_H 	H 	0.0823	0.6055	0.5797	0.073
Mof_H 	H 	0.8581	0.6733	0.5221	0.072
Mof_H 	H 	0.7259	0.6845	0.5607	0.02
Mof_H 	H 	0.674	0.5165	0.508	0.008
Mof_H 	H 	0.7958	0.506	0.4708	0.084
Mof_H 	H 	0.9658	0.0651	0.0333	0.287
Mof_H 	H 	0.3905	0.8714	0.8122	0.024
Mof_H 	H 	0.4013	0.9377	0.8837	0.07
Mof_H 	H 	0.572	0.0319	0.8085	0.068
Mof_H 	H 	0.556	0.9678	0.7355	0.032
Mof_H 	H 	0.3824	0.0408	0.9179	0.062
Mof_H 	H 	0.5205	0.1259	0.0251	0.058
Mof_H 	H 	0.6164	0.036	0.9011	0.062
Mof_H 	H 	0.2964	0.1066	0.9449	0.071
Mof_H 	H 	0.1846	0.1368	0.9889	0.025
Mof_H 	H 	0.3068	0.1382	0.1254	0.025
Mof_H 	H 	0.4177	0.1055	0.0797	0.072
Mof_H 	H 	0.6419	0.1733	0.0221	0.072
Mof_H 	H 	0.7741	0.1845	0.0607	0.02
Mof_H 	H 	0.826	0.0165	0.008	0.008
Mof_H 	H 	0.7042	0.006	0.9708	0.084
Mof_H 	H 	0.5342	0.9349	0.5333	0.286
Mof_H 	H 	0.1095	0.1286	0.3122	0.025
Mof_H 	H 	0.0987	0.0623	0.3837	0.069
Mof_H 	H 	0.928	0.9681	0.3085	0.065
Mof_H 	H 	0.944	0.0322	0.2355	0.034
Mof_H 	H 	0.1176	0.9592	0.4179	0.063
Mof_H 	H 	0.9795	0.8741	0.5251	0.059
Mof_H 	H 	0.8836	0.964	0.4011	0.063
Mof_H 	H 	0.2036	0.8934	0.4449	0.073
Mof_H 	H 	0.3154	0.8632	0.4889	0.022
Mof_H 	H 	0.1932	0.8618	0.6254	0.025
Mof_H 	H 	0.0823	0.8945	0.5797	0.073
Mof_H 	H 	0.8581	0.8267	0.5221	0.071
Mof_H 	H 	0.7259	0.8155	0.5607	0.02
Mof_H 	H 	0.674	0.9835	0.508	0.008
Mof_H 	H 	0.7958	0.994	0.4708	0.083
Mof_C 	C 	0.4628	0.6316	0.7218	0.383
Mof_C 	C 	0.4728	0.5872	0.7681	-0.119
Mof_C 	C 	0.4273	0.5958	0.8114	0.048
Mof_C 	C 	0.4347	0.5567	0.8542	-0.115
Mof_C 	C 	0.4882	0.5105	0.8555	0.046
Mof_C 	C 	0.5349	0.5008	0.8094	-0.107
Mof_C 	C 	0.5258	0.5389	0.7665	0.044
Mof_C 	C 	0.4989	0.4701	0.9032	0.03
Mof_C 	C 	0.4327	0.4491	0.9309	-0.091
Mof_C 	C 	0.4394	0.4139	0.9768	0.028
Mof_C 	C 	0.5146	0.3992	0.9945	-0.087
Mof_C 	C 	0.5806	0.4202	0.9685	0.023
Mof_C 	C 	0.5716	0.4532	0.9212	-0.091
Mof_C 	C 	0.3673	0.393	0.0061	0.056
Mof_C 	C 	0.2991	0.386	0.9819	-0.121
Mof_C 	C 	0.2319	0.3684	0.008	0.055
Mof_C 	C 	0.2334	0.3585	0.061	-0.133
Mof_C 	C 	0.3045	0.368	0.0883	0.048
Mof_C 	C 	0.3707	0.3864	0.0612	-0.118
Mof_C 	C 	0.1621	0.3383	0.0916	0.402
Mof_C 	C 	0.6616	0.4077	0.9889	0.068
Mof_C 	C 	0.6796	0.3583	0.017	-0.13
Mof_C 	C 	0.7602	0.3515	0.0413	0.077
Mof_C 	C 	0.8108	0.3979	0.0345	-0.189
Mof_C 	C 	0.7901	0.4501	0.01	0.096
Mof_C 	C 	0.7174	0.4561	0.9877	-0.144
Mof_C 	C 	0.8938	0.3938	0.0612	0.554
Mof_C 	C 	0.0372	0.3684	0.2218	0.384
Mof_C 	C 	0.0272	0.4128	0.2681	-0.121
Mof_C 	C 	0.0727	0.4042	0.3114	0.049
Mof_C 	C 	0.0653	0.4433	0.3542	-0.116
Mof_C 	C 	0.0118	0.4895	0.3555	0.046
Mof_C 	C 	0.9651	0.4992	0.3094	-0.107
Mof_C 	C 	0.9742	0.4611	0.2665	0.046
Mof_C 	C 	0.0011	0.5299	0.4032	0.029
Mof_C 	C 	0.0673	0.5509	0.4309	-0.09
Mof_C 	C 	0.0606	0.5861	0.4768	0.025
Mof_C 	C 	0.9854	0.6008	0.4945	-0.086
Mof_C 	C 	0.9194	0.5798	0.4685	0.022
Mof_C 	C 	0.9284	0.5468	0.4212	-0.09
Mof_C 	C 	0.1327	0.607	0.5061	0.06
Mof_C 	C 	0.2009	0.614	0.4819	-0.128
Mof_C 	C 	0.2681	0.6316	0.508	0.061
Mof_C 	C 	0.2666	0.6415	0.561	-0.136
Mof_C 	C 	0.1955	0.632	0.5883	0.051
Mof_C 	C 	0.1293	0.6136	0.5612	-0.121
Mof_C 	C 	0.3379	0.6617	0.5916	0.403
Mof_C 	C 	0.8384	0.5923	0.4889	0.069
Mof_C 	C 	0.8204	0.6417	0.517	-0.131
Mof_C 	C 	0.7398	0.6485	0.5413	0.077
Mof_C 	C 	0.6892	0.6021	0.5345	-0.189
Mof_C 	C 	0.7099	0.5499	0.51	0.095
Mof_C 	C 	0.7826	0.5439	0.4877	-0.142
Mof_C 	C 	0.6062	0.6062	0.5612	0.554
Mof_C 	C 	0.4628	0.8684	0.7218	0.383
Mof_C 	C 	0.4728	0.9128	0.7681	-0.119
Mof_C 	C 	0.4273	0.9042	0.8114	0.048
Mof_C 	C 	0.4347	0.9433	0.8542	-0.115
Mof_C 	C 	0.4882	0.9895	0.8555	0.046
Mof_C 	C 	0.5349	0.9992	0.8094	-0.108
Mof_C 	C 	0.5258	0.9611	0.7665	0.044
Mof_C 	C 	0.4989	0.0299	0.9032	0.03
Mof_C 	C 	0.4327	0.0509	0.9309	-0.091
Mof_C 	C 	0.4394	0.0861	0.9768	0.027
Mof_C 	C 	0.5146	0.1008	0.9945	-0.087
Mof_C 	C 	0.5806	0.0798	0.9685	0.023
Mof_C 	C 	0.5716	0.0468	0.9212	-0.091
Mof_C 	C 	0.3673	0.107	0.0061	0.056
Mof_C 	C 	0.2991	0.114	0.9819	-0.121
Mof_C 	C 	0.2319	0.1316	0.008	0.055
Mof_C 	C 	0.2334	0.1415	0.061	-0.133
Mof_C 	C 	0.3045	0.132	0.0883	0.048
Mof_C 	C 	0.3707	0.1136	0.0612	-0.118
Mof_C 	C 	0.1621	0.1617	0.0916	0.402
Mof_C 	C 	0.6616	0.0923	0.9889	0.068
Mof_C 	C 	0.6796	0.1417	0.017	-0.13
Mof_C 	C 	0.7602	0.1485	0.0413	0.077
Mof_C 	C 	0.8108	0.1021	0.0345	-0.189
Mof_C 	C 	0.7901	0.0499	0.01	0.096
Mof_C 	C 	0.7174	0.0439	0.9877	-0.143
Mof_C 	C 	0.8938	0.1062	0.0612	0.554
Mof_C 	C 	0.0372	0.1316	0.2218	0.383
Mof_C 	C 	0.0272	0.0872	0.2681	-0.12
Mof_C 	C 	0.0727	0.0958	0.3114	0.046
Mof_C 	C 	0.0653	0.0567	0.3542	-0.112
Mof_C 	C 	0.0118	0.0105	0.3555	0.04
Mof_C 	C 	0.9651	0.0008	0.3094	-0.101
Mof_C 	C 	0.9742	0.0389	0.2665	0.043
Mof_C 	C 	0.0011	0.9701	0.4032	0.035
Mof_C 	C 	0.0673	0.9491	0.4309	-0.093
Mof_C 	C 	0.0606	0.9139	0.4768	0.029
Mof_C 	C 	0.9854	0.8992	0.4945	-0.089
Mof_C 	C 	0.9194	0.9202	0.4685	0.025
Mof_C 	C 	0.9284	0.9532	0.4212	-0.095
Mof_C 	C 	0.1327	0.893	0.5061	0.059
Mof_C 	C 	0.2009	0.886	0.4819	-0.126
Mof_C 	C 	0.2681	0.8684	0.508	0.061
Mof_C 	C 	0.2666	0.8585	0.561	-0.136
Mof_C 	C 	0.1955	0.868	0.5883	0.051
Mof_C 	C 	0.1293	0.8864	0.5612	-0.12
Mof_C 	C 	0.3379	0.8383	0.5916	0.403
Mof_C 	C 	0.8384	0.9077	0.4889	0.067
Mof_C 	C 	0.8204	0.8583	0.517	-0.13
Mof_C 	C 	0.7398	0.8515	0.5413	0.076
Mof_C 	C 	0.6892	0.8979	0.5345	-0.188
Mof_C 	C 	0.7099	0.9501	0.51	0.094
Mof_C 	C 	0.7826	0.9561	0.4877	-0.141
Mof_C 	C 	0.6062	0.8938	0.5612	0.554
Mof_O 	O 	0.4276	0.6812	0.73	-0.46
Mof_O 	O 	0.4943	0.6146	0.6781	-0.454
Mof_O 	O 	0.0971	0.3475	0.0691	-0.489
Mof_O 	O 	0.1709	0.3176	0.1364	-0.488
Mof_O 	O 	0.9068	0.3444	0.0782	-0.556
Mof_O 	O 	0.9389	0.4361	0.061	-0.614
Mof_O 	O 	0.0724	0.3188	0.23	-0.46
Mof_O 	O 	0.0057	0.3854	0.1781	-0.455
Mof_O 	O 	0.4029	0.6525	0.5691	-0.489
Mof_O 	O 	0.3291	0.6824	0.6364	-0.488
Mof_O 	O 	0.5932	0.6556	0.5782	-0.557
Mof_O 	O 	0.5611	0.5639	0.561	-0.614
Mof_O 	O 	0.4276	0.8188	0.73	-0.46
Mof_O 	O 	0.4943	0.8854	0.6781	-0.454
Mof_O 	O 	0.0971	0.1525	0.0691	-0.49
Mof_O 	O 	0.1709	0.1824	0.1364	-0.488
Mof_O 	O 	0.9068	0.1556	0.0782	-0.556
Mof_O 	O 	0.9389	0.0639	0.061	-0.613
Mof_O 	O 	0.0724	0.1812	0.23	-0.46
Mof_O 	O 	0.0057	0.1146	0.1781	-0.455
Mof_O 	O 	0.4029	0.8475	0.5691	-0.489
Mof_O 	O 	0.3291	0.8176	0.6364	-0.488
Mof_O 	O 	0.5932	0.8444	0.5782	-0.557
Mof_O 	O 	0.5611	0.9361	0.561	-0.614
Mof_O 	O 	0.4868	0.75	0.6415	-0.668
Mof_O 	O 	0.0132	0.25	0.1415	-0.668
Mof_Zn	Zn	0.505	0.165	0.3869	1.234
Mof_Zn	Zn	0.995	0.835	0.8869	1.234
Mof_Zn	Zn	0.505	0.335	0.3869	1.234
Mof_Zn	Zn	0.995	0.665	0.8869	1.234
Mof_Zn	Zn	0.6168	0.25	0.3171	1.219
Mof_Zn	Zn	0.8832	0.75	0.8171	1.219
Mof_H 	H 	0.0342	0.9349	0.9667	0.287
Mof_H 	H 	0.6095	0.1286	0.1878	0.024
Mof_H 	H 	0.5987	0.0623	0.1163	0.07
Mof_H 	H 	0.428	0.9681	0.1915	0.068
Mof_H 	H 	0.444	0.0322	0.2645	0.032
Mof_H 	H 	0.6176	0.9592	0.0821	0.062
Mof_H 	H 	0.4795	0.8741	0.9749	0.058
Mof_H 	H 	0.3836	0.964	0.0989	0.062
Mof_H 	H 	0.7036	0.8934	0.0551	0.071
Mof_H 	H 	0.8154	0.8632	0.0111	0.025
Mof_H 	H 	0.6932	0.8618	0.8746	0.025
Mof_H 	H 	0.5823	0.8945	0.9203	0.072
Mof_H 	H 	0.3581	0.8267	0.9779	0.072
Mof_H 	H 	0.2259	0.8155	0.9393	0.02
Mof_H 	H 	0.174	0.9835	0.992	0.008
Mof_H 	H 	0.2958	0.994	0.0292	0.084
Mof_H 	H 	0.4658	0.0651	0.4667	0.286
Mof_H 	H 	0.8905	0.8714	0.6878	0.025
Mof_H 	H 	0.9013	0.9377	0.6163	0.069
Mof_H 	H 	0.072	0.0319	0.6915	0.065
Mof_H 	H 	0.056	0.9678	0.7645	0.034
Mof_H 	H 	0.8824	0.0408	0.5821	0.063
Mof_H 	H 	0.0205	0.1259	0.4749	0.059
Mof_H 	H 	0.1164	0.036	0.5989	0.063
Mof_H 	H 	0.7964	0.1066	0.5551	0.073
Mof_H 	H 	0.6846	0.1368	0.5111	0.022
Mof_H 	H 	0.8068	0.1382	0.3746	0.025
Mof_H 	H 	0.9177	0.1055	0.4203	0.073
Mof_H 	H 	0.1419	0.1733	0.4779	0.071
Mof_H 	H 	0.2741	0.1845	0.4393	0.02
Mof_H 	H 	0.326	0.0165	0.492	0.008
Mof_H 	H 	0.2042	0.006	0.5292	0.083
Mof_H 	H 	0.0342	0.5651	0.9667	0.286
Mof_H 	H 	0.6095	0.3714	0.1878	0.025
Mof_H 	H 	0.5987	0.4377	0.1163	0.07
Mof_H 	H 	0.428	0.5319	0.1915	0.067
Mof_H 	H 	0.444	0.4678	0.2645	0.033
Mof_H 	H 	0.6176	0.5408	0.0821	0.062
Mof_H 	H 	0.4795	0.6259	0.9749	0.058
Mof_H 	H 	0.3836	0.536	0.0989	0.062
Mof_H 	H 	0.7036	0.6066	0.0551	0.071
Mof_H 	H 	0.8154	0.6368	0.0111	0.025
Mof_H 	H 	0.6932	0.6382	0.8746	0.025
Mof_H 	H 	0.5823	0.6055	0.9203	0.072
Mof_H 	H 	0.3581	0.6733	0.9779	0.072
Mof_H 	H 	0.2259	0.6845	0.9393	0.02
Mof_H 	H 	0.174	0.5165	0.992	0.008
Mof_H 	H 	0.2958	0.506	0.0292	0.084
Mof_H 	H 	0.4658	0.4349	0.4667	0.286
Mof_H 	H 	0.8905	0.6286	0.6878	0.024
Mof_H 	H 	0.9013	0.5623	0.6163	0.07
Mof_H 	H 	0.072	0.4681	0.6915	0.068
Mof_H 	H 	0.056	0.5322	0.7645	0.032
Mof_H 	H 	0.8824	0.4592	0.5821	0.061
Mof_H 	H 	0.0205	0.3741	0.4749	0.058
Mof_H 	H 	0.1164	0.464	0.5989	0.062
Mof_H 	H 	0.7964	0.3934	0.5551	0.073
Mof_H 	H 	0.6846	0.3632	0.5111	0.022
Mof_H 	H 	0.8068	0.3618	0.3746	0.024
Mof_H 	H 	0.9177	0.3945	0.4203	0.073
Mof_H 	H 	0.1419	0.3267	0.4779	0.072
Mof_H 	H 	0.2741	0.3155	0.4393	0.02
Mof_H 	H 	0.326	0.4835	0.492	0.008
Mof_H 	H 	0.2042	0.494	0.5292	0.084
Mof_C 	C 	0.5372	0.1316	0.2782	0.383
Mof_C 	C 	0.5272	0.0872	0.2319	-0.119
Mof_C 	C 	0.5727	0.0958	0.1886	0.048
Mof_C 	C 	0.5653	0.0567	0.1458	-0.115
Mof_C 	C 	0.5118	0.0105	0.1445	0.046
Mof_C 	C 	0.4651	0.0008	0.1906	-0.108
Mof_C 	C 	0.4742	0.0389	0.2335	0.044
Mof_C 	C 	0.5011	0.9701	0.0968	0.03
Mof_C 	C 	0.5673	0.9491	0.0691	-0.091
Mof_C 	C 	0.5606	0.9139	0.0232	0.027
Mof_C 	C 	0.4854	0.8992	0.0055	-0.087
Mof_C 	C 	0.4194	0.9202	0.0315	0.023
Mof_C 	C 	0.4284	0.9532	0.0788	-0.091
Mof_C 	C 	0.6327	0.893	0.9939	0.056
Mof_C 	C 	0.7009	0.886	0.0181	-0.121
Mof_C 	C 	0.7681	0.8684	0.992	0.055
Mof_C 	C 	0.7666	0.8585	0.939	-0.133
Mof_C 	C 	0.6955	0.868	0.9117	0.048
Mof_C 	C 	0.6293	0.8864	0.9388	-0.118
Mof_C 	C 	0.8379	0.8383	0.9084	0.402
Mof_C 	C 	0.3384	0.9077	0.0111	0.068
Mof_C 	C 	0.3204	0.8583	0.983	-0.13
Mof_C 	C 	0.2398	0.8515	0.9587	0.077
Mof_C 	C 	0.1892	0.8979	0.9655	-0.189
Mof_C 	C 	0.2099	0.9501	0.99	0.096
Mof_C 	C 	0.2826	0.9561	0.0123	-0.143
Mof_C 	C 	0.1062	0.8938	0.9388	0.554
Mof_C 	C 	0.9628	0.8684	0.7782	0.383
Mof_C 	C 	0.9728	0.9128	0.7319	-0.12
Mof_C 	C 	0.9273	0.9042	0.6886	0.046
Mof_C 	C 	0.9347	0.9433	0.6458	-0.112
Mof_C 	C 	0.9882	0.9895	0.6445	0.04
Mof_C 	C 	0.0349	0.9992	0.6906	-0.101
Mof_C 	C 	0.0258	0.9611	0.7335	0.043
Mof_C 	C 	0.9989	0.0299	0.5968	0.035
Mof_C 	C 	0.9327	0.0509	0.5691	-0.093
Mof_C 	C 	0.9394	0.0861	0.5232	0.029
Mof_C 	C 	0.0146	0.1008	0.5055	-0.089
Mof_C 	C 	0.0806	0.0798	0.5315	0.025
Mof_C 	C 	0.0716	0.0468	0.5788	-0.095
Mof_C 	C 	0.8673	0.107	0.4939	0.059
Mof_C 	C 	0.7991	0.114	0.5181	-0.126
Mof_C 	C 	0.7319	0.1316	0.492	0.061
Mof_C 	C 	0.7334	0.1415	0.439	-0.136
Mof_C 	C 	0.8045	0.132	0.4117	0.051
Mof_C 	C 	0.8707	0.1136	0.4388	-0.12
Mof_C 	C 	0.6621	0.1617	0.4084	0.403
Mof_C 	C 	0.1616	0.0923	0.5111	0.067
Mof_C 	C 	0.1796	0.1417	0.483	-0.13
Mof_C 	C 	0.2602	0.1485	0.4587	0.076
Mof_C 	C 	0.3108	0.1021	0.4655	-0.188
Mof_C 	C 	0.2901	0.0499	0.49	0.094
Mof_C 	C 	0.2174	0.0439	0.5123	-0.141
Mof_C 	C 	0.3938	0.1062	0.4388	0.554
Mof_C 	C 	0.5372	0.3684	0.2782	0.383
Mof_C 	C 	0.5272	0.4128	0.2319	-0.119
Mof_C 	C 	0.5727	0.4042	0.1886	0.048
Mof_C 	C 	0.5653	0.4433	0.1458	-0.115
Mof_C 	C 	0.5118	0.4895	0.1445	0.046
Mof_C 	C 	0.4651	0.4992	0.1906	-0.107
Mof_C 	C 	0.4742	0.4611	0.2335	0.044
Mof_C 	C 	0.5011	0.5299	0.0968	0.03
Mof_C 	C 	0.5673	0.5509	0.0691	-0.091
Mof_C 	C 	0.5606	0.5861	0.0232	0.028
Mof_C 	C 	0.4854	0.6008	0.0055	-0.087
Mof_C 	C 	0.4194	0.5798	0.0315	0.023
Mof_C 	C 	0.4284	0.5468	0.0788	-0.091
Mof_C 	C 	0.6327	0.607	0.9939	0.056
Mof_C 	C 	0.7009	0.614	0.0181	-0.121
Mof_C 	C 	0.7681	0.6316	0.992	0.055
Mof_C 	C 	0.7666	0.6415	0.939	-0.133
Mof_C 	C 	0.6955	0.632	0.9117	0.048
Mof_C 	C 	0.6293	0.6136	0.9388	-0.118
Mof_C 	C 	0.8379	0.6617	0.9084	0.402
Mof_C 	C 	0.3384	0.5923	0.0111	0.068
Mof_C 	C 	0.3204	0.6417	0.983	-0.13
Mof_C 	C 	0.2398	0.6485	0.9587	0.077
Mof_C 	C 	0.1892	0.6021	0.9655	-0.189
Mof_C 	C 	0.2099	0.5499	0.99	0.096
Mof_C 	C 	0.2826	0.5439	0.0123	-0.144
Mof_C 	C 	0.1062	0.6062	0.9388	0.554
Mof_C 	C 	0.9628	0.6316	0.7782	0.384
Mof_C 	C 	0.9728	0.5872	0.7319	-0.121
Mof_C 	C 	0.9273	0.5958	0.6886	0.049
Mof_C 	C 	0.9347	0.5567	0.6458	-0.116
Mof_C 	C 	0.9882	0.5105	0.6445	0.046
Mof_C 	C 	0.0349	0.5008	0.6906	-0.107
Mof_C 	C 	0.0258	0.5389	0.7335	0.046
Mof_C 	C 	0.9989	0.4701	0.5968	0.029
Mof_C 	C 	0.9327	0.4491	0.5691	-0.09
Mof_C 	C 	0.9394	0.4139	0.5232	0.025
Mof_C 	C 	0.0146	0.3992	0.5055	-0.086
Mof_C 	C 	0.0806	0.4202	0.5315	0.022
Mof_C 	C 	0.0716	0.4532	0.5788	-0.09
Mof_C 	C 	0.8673	0.393	0.4939	0.06
Mof_C 	C 	0.7991	0.386	0.5181	-0.128
Mof_C 	C 	0.7319	0.3684	0.492	0.061
Mof_C 	C 	0.7334	0.3585	0.439	-0.136
Mof_C 	C 	0.8045	0.368	0.4117	0.051
Mof_C 	C 	0.8707	0.3864	0.4388	-0.121
Mof_C 	C 	0.6621	0.3383	0.4084	0.403
Mof_C 	C 	0.1616	0.4077	0.5111	0.069
Mof_C 	C 	0.1796	0.3583	0.483	-0.131
Mof_C 	C 	0.2602	0.3515	0.4587	0.077
Mof_C 	C 	0.3108	0.3979	0.4655	-0.189
Mof_C 	C 	0.2901	0.4501	0.49	0.095
Mof_C 	C 	0.2174	0.4561	0.5123	-0.142
Mof_C 	C 	0.3938	0.3938	0.4388	0.554
Mof_O 	O 	0.5724	0.1812	0.27	-0.46
Mof_O 	O 	0.5057	0.1146	0.3219	-0.454
Mof_O 	O 	0.9029	0.8475	0.9309	-0.49
Mof_O 	O 	0.8291	0.8176	0.8636	-0.488
Mof_O 	O 	0.0932	0.8444	0.9218	-0.556
Mof_O 	O 	0.0611	0.9361	0.939	-0.613
Mof_O 	O 	0.9276	0.8188	0.77	-0.46
Mof_O 	O 	0.9943	0.8854	0.8219	-0.455
Mof_O 	O 	0.5971	0.1525	0.4309	-0.489
Mof_O 	O 	0.6709	0.1824	0.3636	-0.488
Mof_O 	O 	0.4068	0.1556	0.4218	-0.557
Mof_O 	O 	0.4389	0.0639	0.439	-0.614
Mof_O 	O 	0.5724	0.3188	0.27	-0.46
Mof_O 	O 	0.5057	0.3854	0.3219	-0.454
Mof_O 	O 	0.9029	0.6525	0.9309	-0.489
Mof_O 	O 	0.8291	0.6824	0.8636	-0.488
Mof_O 	O 	0.0932	0.6556	0.9218	-0.556
Mof_O 	O 	0.0611	0.5639	0.939	-0.614
Mof_O 	O 	0.9276	0.6812	0.77	-0.46
Mof_O 	O 	0.9943	0.6146	0.8219	-0.455
Mof_O 	O 	0.5971	0.3475	0.4309	-0.489
Mof_O 	O 	0.6709	0.3176	0.3636	-0.488
Mof_O 	O 	0.4068	0.3444	0.4218	-0.557
Mof_O 	O 	0.4389	0.4361	0.439	-0.614
Mof_O 	O 	0.5132	0.25	0.3585	-0.668
Mof_O 	O 	0.9868	0.75	0.8585	-0.668
_end
