data_functionalizedCrystal
_audit_creation_method	'EQeq! by Chris Wilmer'
_symmetry_space_group_name_H-M	'P1'
_symmetry_Int_Tables_number	1
_symmetry_cell_setting	triclinic
loop_
_symmetry_equiv_pos_as_xyz
  x,y,z
_cell_length_a	26.323
_cell_length_b	14.696
_cell_length_c	26.63
_cell_angle_alpha	90
_cell_angle_beta	157.747
_cell_angle_gamma	90
loop_
_atom_site_label
_atom_site_type_symbol
_atom_site_fract_x
_atom_site_fract_y
_atom_site_fract_z
_atom_site_charge
Mof_Co	Co	0.40553	0.45311	0.47665	1.155
Mof_O 	O 	0.2813	0.4031	0.3118	-0.416
Mof_O 	O 	0.1373	0.4517	0.2378	-0.313
Mof_O 	O 	0.5838	0.4219	0.6122	-0.448
Mof_O 	O 	0.6491	0.4618	0.7484	-0.312
Mof_N 	N 	0.3729	0.3714	0.5072	-0.253
Mof_N 	N 	0.0695	0.2265	0.9621	-0.103
Mof_N 	N 	0.1096	0.0805	0.0115	-0.251
Mof_C 	C 	0.1622	0.4182	0.219	0.293
Mof_C 	C 	0.0499	0.3956	0.0804	-0.032
Mof_C 	C 	0.9185	0.417	0.9733	-0.026
Mof_H 	H 	0.9004	0.4413	0.9883	0.064
Mof_C 	C 	0.8144	0.4023	0.8445	-0.039
Mof_C 	C 	0.6733	0.4318	0.7283	0.305
Mof_C 	C 	0.8431	0.3666	0.8242	-0.08
Mof_H 	H 	0.7732	0.3565	0.7378	0.069
Mof_C 	C 	0.9729	0.3452	0.9283	0.075
Mof_C 	C 	0.0753	0.3612	0.0569	-0.079
Mof_H 	H 	0.1634	0.3479	0.1285	0.081
Mof_C 	C 	0.0041	0.3156	0.9044	-0.126
Mof_H 	H 	0.9215	0.3132	0.8096	0.075
Mof_H 	H 	0.0622	0.3604	0.9419	0.083
Mof_C 	C 	0.1758	0.2036	0.0293	-0.018
Mof_H 	H 	0.2221	0.2417	0.0499	0.04
Mof_C 	C 	0.1995	0.1148	0.0596	0.012
Mof_H 	H 	0.2676	0.0812	0.1067	0.023
Mof_C 	C 	0.0328	0.1518	0.9529	0.098
Mof_H 	H 	0.9619	0.1494	0.9108	-0.001
Mof_C 	C 	0.316	0.29	0.4504	0.096
Mof_H 	H 	0.3089	0.2649	0.4119	-0.007
Mof_C 	C 	0.267	0.2411	0.4458	-0.142
Mof_H 	H 	0.2273	0.1847	0.404	0.088
Mof_C 	C 	0.2766	0.2752	0.5026	0.068
Mof_C 	C 	0.3395	0.3572	0.5649	-0.144
Mof_H 	H 	0.3511	0.3825	0.6072	0.083
Mof_C 	C 	0.3858	0.4027	0.5658	0.091
Mof_H 	H 	0.4285	0.4584	0.6095	-0.009
Mof_Co	Co	0.09447	0.95311	0.02335	1.152
Mof_O 	O 	0.2187	0.9031	0.1882	-0.417
Mof_O 	O 	0.3627	0.9517	0.2622	-0.315
Mof_O 	O 	0.9162	0.9219	0.8878	-0.448
Mof_O 	O 	0.8509	0.9618	0.7516	-0.313
Mof_N 	N 	0.1271	0.8714	0.9928	-0.249
Mof_N 	N 	0.4305	0.7265	0.5379	-0.101
Mof_N 	N 	0.3904	0.5805	0.4885	-0.249
Mof_C 	C 	0.3378	0.9182	0.281	0.292
Mof_C 	C 	0.4501	0.8956	0.4196	-0.028
Mof_C 	C 	0.5815	0.917	0.5267	-0.028
Mof_H 	H 	0.5996	0.9413	0.5117	0.065
Mof_C 	C 	0.6856	0.9023	0.6555	-0.036
Mof_C 	C 	0.8267	0.9318	0.7717	0.304
Mof_C 	C 	0.6569	0.8666	0.6758	-0.086
Mof_H 	H 	0.7268	0.8565	0.7622	0.071
Mof_C 	C 	0.5271	0.8452	0.5717	0.086
Mof_C 	C 	0.4247	0.8612	0.4431	-0.085
Mof_H 	H 	0.3366	0.8479	0.3715	0.083
Mof_C 	C 	0.4959	0.8156	0.5956	-0.143
Mof_H 	H 	0.5785	0.8132	0.6904	0.081
Mof_H 	H 	0.4378	0.8604	0.5581	0.085
Mof_C 	C 	0.3242	0.7036	0.4707	-0.017
Mof_H 	H 	0.2779	0.7417	0.4501	0.04
Mof_C 	C 	0.3005	0.6148	0.4404	0.012
Mof_H 	H 	0.2324	0.5812	0.3933	0.023
Mof_C 	C 	0.4672	0.6518	0.5471	0.09
Mof_H 	H 	0.5381	0.6494	0.5892	0.004
Mof_C 	C 	0.184	0.79	0.0496	0.097
Mof_H 	H 	0.1911	0.7649	0.0881	-0.008
Mof_C 	C 	0.233	0.7411	0.0542	-0.16
Mof_H 	H 	0.2727	0.6847	0.096	0.095
Mof_C 	C 	0.2234	0.7752	0.9974	0.095
Mof_C 	C 	0.1605	0.8572	0.9351	-0.158
Mof_H 	H 	0.1489	0.8825	0.8928	0.091
Mof_C 	C 	0.1142	0.9027	0.9342	0.101
Mof_H 	H 	0.0715	0.9584	0.8905	-0.009
Mof_Co	Co	0.09447	0.04689	0.52335	1.153
Mof_O 	O 	0.2187	0.0969	0.6882	-0.418
Mof_O 	O 	0.3627	0.0483	0.7622	-0.316
Mof_O 	O 	0.9162	0.0781	0.3878	-0.447
Mof_O 	O 	0.8509	0.0382	0.2516	-0.309
Mof_N 	N 	0.1271	0.1286	0.4928	-0.254
Mof_N 	N 	0.4305	0.2735	0.0379	-0.101
Mof_N 	N 	0.3904	0.4195	0.9885	-0.249
Mof_C 	C 	0.3378	0.0818	0.781	0.293
Mof_C 	C 	0.4501	0.1044	0.9196	-0.034
Mof_C 	C 	0.5815	0.083	0.0267	-0.021
Mof_H 	H 	0.5996	0.0587	0.0117	0.065
Mof_C 	C 	0.6856	0.0977	0.1555	-0.036
Mof_C 	C 	0.8267	0.0682	0.2717	0.305
Mof_C 	C 	0.6569	0.1334	0.1758	-0.086
Mof_H 	H 	0.7268	0.1435	0.2622	0.072
Mof_C 	C 	0.5271	0.1548	0.0717	0.089
Mof_C 	C 	0.4247	0.1388	0.9431	-0.088
Mof_H 	H 	0.3366	0.1521	0.8715	0.083
Mof_C 	C 	0.4959	0.1844	0.0956	-0.144
Mof_H 	H 	0.5785	0.1868	0.1904	0.082
Mof_H 	H 	0.4378	0.1396	0.0581	0.086
Mof_C 	C 	0.3242	0.2964	0.9707	-0.018
Mof_H 	H 	0.2779	0.2583	0.9501	0.04
Mof_C 	C 	0.3005	0.3852	0.9404	0.012
Mof_H 	H 	0.2324	0.4188	0.8933	0.024
Mof_C 	C 	0.4672	0.3482	0.0471	0.09
Mof_H 	H 	0.5381	0.3506	0.0892	0.004
Mof_C 	C 	0.184	0.21	0.5496	0.095
Mof_H 	H 	0.1911	0.2351	0.5881	-0.007
Mof_C 	C 	0.233	0.2589	0.5542	-0.142
Mof_H 	H 	0.2727	0.3153	0.596	0.088
Mof_C 	C 	0.2234	0.2248	0.4974	0.068
Mof_C 	C 	0.1605	0.1428	0.4351	-0.145
Mof_H 	H 	0.1489	0.1175	0.3928	0.083
Mof_C 	C 	0.1142	0.0973	0.4342	0.09
Mof_H 	H 	0.0715	0.0416	0.3905	-0.01
Mof_Co	Co	0.40553	0.54689	0.97665	1.155
Mof_O 	O 	0.2813	0.5969	0.8118	-0.416
Mof_O 	O 	0.1373	0.5483	0.7378	-0.312
Mof_O 	O 	0.5838	0.5781	0.1122	-0.449
Mof_O 	O 	0.6491	0.5382	0.2484	-0.312
Mof_N 	N 	0.3729	0.6286	0.0072	-0.252
Mof_N 	N 	0.0695	0.7735	0.4621	-0.102
Mof_N 	N 	0.1096	0.9195	0.5115	-0.249
Mof_C 	C 	0.1622	0.5818	0.719	0.291
Mof_C 	C 	0.0499	0.6044	0.5804	-0.026
Mof_C 	C 	0.9185	0.583	0.4733	-0.031
Mof_H 	H 	0.9004	0.5587	0.4883	0.065
Mof_C 	C 	0.8144	0.5977	0.3445	-0.035
Mof_C 	C 	0.6733	0.5682	0.2283	0.304
Mof_C 	C 	0.8431	0.6334	0.3242	-0.087
Mof_H 	H 	0.7732	0.6435	0.2378	0.071
Mof_C 	C 	0.9729	0.6548	0.4283	0.085
Mof_C 	C 	0.0753	0.6388	0.5569	-0.086
Mof_H 	H 	0.1634	0.6521	0.6285	0.083
Mof_C 	C 	0.0041	0.6844	0.4044	-0.143
Mof_H 	H 	0.9215	0.6868	0.3096	0.082
Mof_H 	H 	0.0622	0.6396	0.4419	0.085
Mof_C 	C 	0.1758	0.7964	0.5293	-0.017
Mof_H 	H 	0.2221	0.7583	0.5499	0.04
Mof_C 	C 	0.1995	0.8852	0.5596	0.012
Mof_H 	H 	0.2676	0.9188	0.6067	0.024
Mof_C 	C 	0.0328	0.8482	0.4529	0.092
Mof_H 	H 	0.9619	0.8506	0.4108	0.001
Mof_C 	C 	0.316	0.71	0.9504	0.09
Mof_H 	H 	0.3089	0.7351	0.9119	-0.004
Mof_C 	C 	0.267	0.7589	0.9458	-0.122
Mof_H 	H 	0.2273	0.8153	0.904	0.083
Mof_C 	C 	0.2766	0.7248	0.0026	0.043
Mof_C 	C 	0.3395	0.6428	0.0649	-0.129
Mof_H 	H 	0.3511	0.6175	0.1072	0.078
Mof_C 	C 	0.3858	0.5973	0.0658	0.082
Mof_H 	H 	0.4285	0.5416	0.1095	-0.006
Mof_Co	Co	0.90553	0.95311	0.47665	1.153
Mof_O 	O 	0.7813	0.9031	0.3118	-0.418
Mof_O 	O 	0.6373	0.9517	0.2378	-0.316
Mof_O 	O 	0.0838	0.9219	0.6122	-0.447
Mof_O 	O 	0.1491	0.9618	0.7484	-0.309
Mof_N 	N 	0.8729	0.8714	0.5072	-0.254
Mof_N 	N 	0.5695	0.7265	0.9621	-0.101
Mof_N 	N 	0.6096	0.5805	0.0115	-0.249
Mof_C 	C 	0.6622	0.9182	0.219	0.293
Mof_C 	C 	0.5499	0.8956	0.0804	-0.034
Mof_C 	C 	0.4185	0.917	0.9733	-0.021
Mof_H 	H 	0.4004	0.9413	0.9883	0.065
Mof_C 	C 	0.3144	0.9023	0.8445	-0.036
Mof_C 	C 	0.1733	0.9318	0.7283	0.305
Mof_C 	C 	0.3431	0.8666	0.8242	-0.086
Mof_H 	H 	0.2732	0.8565	0.7378	0.072
Mof_C 	C 	0.4729	0.8452	0.9283	0.089
Mof_C 	C 	0.5753	0.8612	0.0569	-0.088
Mof_H 	H 	0.6634	0.8479	0.1285	0.083
Mof_C 	C 	0.5041	0.8156	0.9044	-0.144
Mof_H 	H 	0.4215	0.8132	0.8096	0.082
Mof_H 	H 	0.5622	0.8604	0.9419	0.086
Mof_C 	C 	0.6758	0.7036	0.0293	-0.018
Mof_H 	H 	0.7221	0.7417	0.0499	0.04
Mof_C 	C 	0.6995	0.6148	0.0596	0.012
Mof_H 	H 	0.7676	0.5812	0.1067	0.024
Mof_C 	C 	0.5328	0.6518	0.9529	0.09
Mof_H 	H 	0.4619	0.6494	0.9108	0.004
Mof_C 	C 	0.816	0.79	0.4504	0.095
Mof_H 	H 	0.8089	0.7649	0.4119	-0.007
Mof_C 	C 	0.767	0.7411	0.4458	-0.142
Mof_H 	H 	0.7273	0.6847	0.404	0.088
Mof_C 	C 	0.7766	0.7752	0.5026	0.068
Mof_C 	C 	0.8395	0.8572	0.5649	-0.145
Mof_H 	H 	0.8511	0.8825	0.6072	0.083
Mof_C 	C 	0.8858	0.9027	0.5658	0.09
Mof_H 	H 	0.9285	0.9584	0.6095	-0.01
Mof_Co	Co	0.59447	0.45311	0.02335	1.155
Mof_O 	O 	0.7187	0.4031	0.1882	-0.416
Mof_O 	O 	0.8627	0.4517	0.2622	-0.312
Mof_O 	O 	0.4162	0.4219	0.8878	-0.449
Mof_O 	O 	0.3509	0.4618	0.7516	-0.312
Mof_N 	N 	0.6271	0.3714	0.9928	-0.252
Mof_N 	N 	0.9305	0.2265	0.5379	-0.102
Mof_N 	N 	0.8904	0.0805	0.4885	-0.249
Mof_C 	C 	0.8378	0.4182	0.281	0.291
Mof_C 	C 	0.9501	0.3956	0.4196	-0.026
Mof_C 	C 	0.0815	0.417	0.5267	-0.031
Mof_H 	H 	0.0996	0.4413	0.5117	0.065
Mof_C 	C 	0.1856	0.4023	0.6555	-0.035
Mof_C 	C 	0.3267	0.4318	0.7717	0.304
Mof_C 	C 	0.1569	0.3666	0.6758	-0.087
Mof_H 	H 	0.2268	0.3565	0.7622	0.071
Mof_C 	C 	0.0271	0.3452	0.5717	0.085
Mof_C 	C 	0.9247	0.3612	0.4431	-0.086
Mof_H 	H 	0.8366	0.3479	0.3715	0.083
Mof_C 	C 	0.9959	0.3156	0.5956	-0.143
Mof_H 	H 	0.0785	0.3132	0.6904	0.082
Mof_H 	H 	0.9378	0.3604	0.5581	0.085
Mof_C 	C 	0.8242	0.2036	0.4707	-0.017
Mof_H 	H 	0.7779	0.2417	0.4501	0.04
Mof_C 	C 	0.8005	0.1148	0.4404	0.012
Mof_H 	H 	0.7324	0.0812	0.3933	0.024
Mof_C 	C 	0.9672	0.1518	0.5471	0.092
Mof_H 	H 	0.0381	0.1494	0.5892	0.001
Mof_C 	C 	0.684	0.29	0.0496	0.09
Mof_H 	H 	0.6911	0.2649	0.0881	-0.004
Mof_C 	C 	0.733	0.2411	0.0542	-0.122
Mof_H 	H 	0.7727	0.1847	0.096	0.083
Mof_C 	C 	0.7234	0.2752	0.9974	0.043
Mof_C 	C 	0.6605	0.3572	0.9351	-0.129
Mof_H 	H 	0.6489	0.3825	0.8928	0.078
Mof_C 	C 	0.6142	0.4027	0.9342	0.082
Mof_H 	H 	0.5715	0.4584	0.8905	-0.006
Mof_Co	Co	0.59447	0.54689	0.52335	1.154
Mof_O 	O 	0.7187	0.5969	0.6882	-0.417
Mof_O 	O 	0.8627	0.5483	0.7622	-0.314
Mof_O 	O 	0.4162	0.5781	0.3878	-0.449
Mof_O 	O 	0.3509	0.5382	0.2516	-0.312
Mof_N 	N 	0.6271	0.6286	0.4928	-0.253
Mof_N 	N 	0.9305	0.7735	0.0379	-0.103
Mof_N 	N 	0.8904	0.9195	0.9885	-0.251
Mof_C 	C 	0.8378	0.5818	0.781	0.293
Mof_C 	C 	0.9501	0.6044	0.9196	-0.032
Mof_C 	C 	0.0815	0.583	0.0267	-0.026
Mof_H 	H 	0.0996	0.5587	0.0117	0.064
Mof_C 	C 	0.1856	0.5977	0.1555	-0.039
Mof_C 	C 	0.3267	0.5682	0.2717	0.305
Mof_C 	C 	0.1569	0.6334	0.1758	-0.08
Mof_H 	H 	0.2268	0.6435	0.2622	0.069
Mof_C 	C 	0.0271	0.6548	0.0717	0.075
Mof_C 	C 	0.9247	0.6388	0.9431	-0.079
Mof_H 	H 	0.8366	0.6521	0.8715	0.081
Mof_C 	C 	0.9959	0.6844	0.0956	-0.126
Mof_H 	H 	0.0785	0.6868	0.1904	0.075
Mof_H 	H 	0.9378	0.6396	0.0581	0.083
Mof_C 	C 	0.8242	0.7964	0.9707	-0.018
Mof_H 	H 	0.7779	0.7583	0.9501	0.04
Mof_C 	C 	0.8005	0.8852	0.9404	0.012
Mof_H 	H 	0.7324	0.9188	0.8933	0.023
Mof_C 	C 	0.9672	0.8482	0.0471	0.098
Mof_H 	H 	0.0381	0.8506	0.0892	-0.001
Mof_C 	C 	0.684	0.71	0.5496	0.096
Mof_H 	H 	0.6911	0.7351	0.5881	-0.007
Mof_C 	C 	0.733	0.7589	0.5542	-0.142
Mof_H 	H 	0.7727	0.8153	0.596	0.088
Mof_C 	C 	0.7234	0.7248	0.4974	0.068
Mof_C 	C 	0.6605	0.6428	0.4351	-0.144
Mof_H 	H 	0.6489	0.6175	0.3928	0.083
Mof_C 	C 	0.6142	0.5973	0.4342	0.091
Mof_H 	H 	0.5715	0.5416	0.3905	-0.009
Mof_Co	Co	0.90553	0.04689	0.97665	1.152
Mof_O 	O 	0.7813	0.0969	0.8118	-0.417
Mof_O 	O 	0.6373	0.0483	0.7378	-0.315
Mof_O 	O 	0.0838	0.0781	0.1122	-0.448
Mof_O 	O 	0.1491	0.0382	0.2484	-0.313
Mof_N 	N 	0.8729	0.1286	0.0072	-0.249
Mof_N 	N 	0.5695	0.2735	0.4621	-0.101
Mof_N 	N 	0.6096	0.4195	0.5115	-0.249
Mof_C 	C 	0.6622	0.0818	0.719	0.292
Mof_C 	C 	0.5499	0.1044	0.5804	-0.028
Mof_C 	C 	0.4185	0.083	0.4733	-0.028
Mof_H 	H 	0.4004	0.0587	0.4883	0.065
Mof_C 	C 	0.3144	0.0977	0.3445	-0.036
Mof_C 	C 	0.1733	0.0682	0.2283	0.304
Mof_C 	C 	0.3431	0.1334	0.3242	-0.086
Mof_H 	H 	0.2732	0.1435	0.2378	0.071
Mof_C 	C 	0.4729	0.1548	0.4283	0.086
Mof_C 	C 	0.5753	0.1388	0.5569	-0.085
Mof_H 	H 	0.6634	0.1521	0.6285	0.083
Mof_C 	C 	0.5041	0.1844	0.4044	-0.143
Mof_H 	H 	0.4215	0.1868	0.3096	0.081
Mof_H 	H 	0.5622	0.1396	0.4419	0.085
Mof_C 	C 	0.6758	0.2964	0.5293	-0.017
Mof_H 	H 	0.7221	0.2583	0.5499	0.04
Mof_C 	C 	0.6995	0.3852	0.5596	0.012
Mof_H 	H 	0.7676	0.4188	0.6067	0.023
Mof_C 	C 	0.5328	0.3482	0.4529	0.09
Mof_H 	H 	0.4619	0.3506	0.4108	0.004
Mof_C 	C 	0.816	0.21	0.9504	0.097
Mof_H 	H 	0.8089	0.2351	0.9119	-0.008
Mof_C 	C 	0.767	0.2589	0.9458	-0.16
Mof_H 	H 	0.7273	0.3153	0.904	0.095
Mof_C 	C 	0.7766	0.2248	0.0026	0.095
Mof_C 	C 	0.8395	0.1428	0.0649	-0.158
Mof_H 	H 	0.8511	0.1175	0.1072	0.091
Mof_C 	C 	0.8858	0.0973	0.0658	0.101
Mof_H 	H 	0.9285	0.0416	0.1095	-0.009
_end
