data_functionalizedCrystal
_audit_creation_method	'EQeq! by Chris Wilmer'
_symmetry_space_group_name_H-M	'P1'
_symmetry_Int_Tables_number	1
_symmetry_cell_setting	triclinic
loop_
_symmetry_equiv_pos_as_xyz
  x,y,z
_cell_length_a	12.5255
_cell_length_b	8.1701
_cell_length_c	20.9474
_cell_angle_alpha	90
_cell_angle_beta	96.835
_cell_angle_gamma	90
loop_
_atom_site_label
_atom_site_type_symbol
_atom_site_fract_x
_atom_site_fract_y
_atom_site_fract_z
_atom_site_charge
Mof_C 	C 	0.6653	0.5714	0.8332	0.112
Mof_Cu	Cu	0.99885	0.14147	0.24513	0.86
Mof_N 	N 	0.9031	0.7493	0.8072	-0.268
Mof_N 	N 	0.5946	0.5069	0.8027	-0.263
Mof_C 	C 	0.7502	0.6541	0.8692	-0.136
Mof_C 	C 	0.7387	0.7955	0.0667	0.061
Mof_C 	C 	0.8121	0.9496	0.1654	0.112
Mof_C 	C 	0.8302	0.791	0.9706	-0.068
Mof_H 	H 	0.8894	0.8241	0.9493	0.046
Mof_C 	C 	0.7324	0.8491	0.133	-0.136
Mof_C 	C 	0.6619	0.6489	0.9709	-0.069
Mof_H 	H 	0.6055	0.5837	0.9499	0.048
Mof_N 	N 	0.8807	0.0291	0.1924	-0.269
Mof_N 	N 	0.5731	0.785	0.1946	-0.257
Mof_C 	C 	0.8256	0.8379	0.034	-0.074
Mof_H 	H 	0.883	0.9002	0.0556	0.047
Mof_C 	C 	0.6456	0.8152	0.1661	0.106
Mof_C 	C 	0.6578	0.6973	0.0341	-0.072
Mof_H 	H 	0.5991	0.6634	0.0557	0.048
Mof_C 	C 	0.7479	0.6948	0.9375	0.058
Mof_C 	C 	0.8326	0.7053	0.8352	0.111
Mof_C 	C 	0.8347	0.0714	0.6668	0.114
Mof_Cu	Cu	0.50115	0.64147	0.25487	0.862
Mof_N 	N 	0.5969	0.2493	0.6928	-0.268
Mof_N 	N 	0.9054	0.0069	0.6973	-0.262
Mof_C 	C 	0.7498	0.1541	0.6308	-0.137
Mof_C 	C 	0.7613	0.2955	0.4333	0.059
Mof_C 	C 	0.6879	0.4496	0.3346	0.11
Mof_C 	C 	0.6698	0.291	0.5294	-0.07
Mof_H 	H 	0.6106	0.3241	0.5507	0.046
Mof_C 	C 	0.7676	0.3491	0.367	-0.135
Mof_C 	C 	0.8381	0.1489	0.5291	-0.071
Mof_H 	H 	0.8945	0.0837	0.5501	0.049
Mof_N 	N 	0.6193	0.5291	0.3076	-0.268
Mof_N 	N 	0.9269	0.285	0.3054	-0.257
Mof_C 	C 	0.6744	0.3379	0.466	-0.071
Mof_H 	H 	0.617	0.4002	0.4444	0.047
Mof_C 	C 	0.8544	0.3152	0.3339	0.105
Mof_C 	C 	0.8422	0.1973	0.4659	-0.07
Mof_H 	H 	0.9009	0.1634	0.4443	0.048
Mof_C 	C 	0.7521	0.1948	0.5625	0.06
Mof_C 	C 	0.6674	0.2053	0.6648	0.111
Mof_C 	C 	0.3347	0.4286	0.1668	0.113
Mof_Cu	Cu	0.00115	0.85853	0.75487	0.861
Mof_N 	N 	0.0969	0.2507	0.1928	-0.268
Mof_N 	N 	0.4054	0.4931	0.1973	-0.263
Mof_C 	C 	0.2498	0.3459	0.1308	-0.136
Mof_C 	C 	0.2613	0.2045	0.9333	0.061
Mof_C 	C 	0.1879	0.0504	0.8346	0.112
Mof_C 	C 	0.1698	0.209	0.0294	-0.068
Mof_H 	H 	0.1106	0.1759	0.0507	0.046
Mof_C 	C 	0.2676	0.1509	0.867	-0.136
Mof_C 	C 	0.3381	0.3511	0.0291	-0.069
Mof_H 	H 	0.3945	0.4163	0.0501	0.048
Mof_N 	N 	0.1193	0.9709	0.8076	-0.269
Mof_N 	N 	0.4269	0.215	0.8054	-0.257
Mof_C 	C 	0.1744	0.1621	0.966	-0.074
Mof_H 	H 	0.117	0.0998	0.9444	0.047
Mof_C 	C 	0.3544	0.1848	0.8339	0.106
Mof_C 	C 	0.3422	0.3027	0.9659	-0.072
Mof_H 	H 	0.4009	0.3366	0.9443	0.048
Mof_C 	C 	0.2521	0.3052	0.0625	0.058
Mof_C 	C 	0.1674	0.2947	0.1648	0.111
Mof_C 	C 	0.1653	0.9286	0.3332	0.114
Mof_Cu	Cu	0.49885	0.35853	0.74513	0.862
Mof_N 	N 	0.4031	0.7507	0.3072	-0.268
Mof_N 	N 	0.0946	0.9931	0.3027	-0.262
Mof_C 	C 	0.2502	0.8459	0.3692	-0.137
Mof_C 	C 	0.2387	0.7045	0.5667	0.059
Mof_C 	C 	0.3121	0.5504	0.6654	0.11
Mof_C 	C 	0.3302	0.709	0.4706	-0.07
Mof_H 	H 	0.3894	0.6759	0.4493	0.046
Mof_C 	C 	0.2324	0.6509	0.633	-0.135
Mof_C 	C 	0.1619	0.8511	0.4709	-0.071
Mof_H 	H 	0.1055	0.9163	0.4499	0.049
Mof_N 	N 	0.3807	0.4709	0.6924	-0.268
Mof_N 	N 	0.0731	0.715	0.6946	-0.257
Mof_C 	C 	0.3256	0.6621	0.534	-0.071
Mof_H 	H 	0.383	0.5998	0.5556	0.047
Mof_C 	C 	0.1456	0.6848	0.6661	0.105
Mof_C 	C 	0.1578	0.8027	0.5341	-0.07
Mof_H 	H 	0.0991	0.8366	0.5557	0.048
Mof_C 	C 	0.2479	0.8052	0.4375	0.06
Mof_C 	C 	0.3326	0.7947	0.3352	0.111
_end
