data_functionalizedCrystal
_audit_creation_method	'EQeq! by Chris Wilmer'
_symmetry_space_group_name_H-M	'P1'
_symmetry_Int_Tables_number	1
_symmetry_cell_setting	triclinic
loop_
_symmetry_equiv_pos_as_xyz
  x,y,z
_cell_length_a	10.32
_cell_length_b	10.32
_cell_length_c	14.5
_cell_angle_alpha	90
_cell_angle_beta	90
_cell_angle_gamma	90
loop_
_atom_site_label
_atom_site_type_symbol
_atom_site_fract_x
_atom_site_fract_y
_atom_site_fract_z
_atom_site_charge
Mof_Dy	Dy	0.85213	0.85213	0.875	2.314
Mof_Dy	Dy	0.14787	0.14787	0.375	2.18
Mof_Dy	Dy	0.14787	0.85213	0.125	2.221
Mof_Dy	Dy	0.85213	0.14787	0.625	2.24
Mof_H 	H 	0.9285	0.4411	0.8711	-0.054
Mof_H 	H 	0.0715	0.5589	0.3711	-0.042
Mof_H 	H 	0.5589	0.9285	0.1211	-0.048
Mof_H 	H 	0.4411	0.0715	0.6211	-0.047
Mof_H 	H 	0.0715	0.4411	0.1289	-0.048
Mof_H 	H 	0.9285	0.5589	0.6289	-0.045
Mof_H 	H 	0.4411	0.9285	0.8789	-0.048
Mof_H 	H 	0.5589	0.0715	0.3789	-0.042
Mof_H 	H 	1.02165e-33	0.1029	-0	-0.084
Mof_H 	H 	2.63403e-33	0.8971	0.5	-0.056
Mof_H 	H 	0.8971	0	0.25	-0.055
Mof_H 	H 	0.1029	8.17322e-33	0.75	-0.082
Mof_C 	C 	0.9569	0.3958	0.9227	0.281
Mof_C 	C 	0.9564	0.2609	0.9229	-0.288
Mof_C 	C 	0.913	0.1854	0.8389	0.599
Mof_C 	C 	0.0431	0.6042	0.4227	0.223
Mof_C 	C 	0.0436	0.7391	0.4229	-0.303
Mof_C 	C 	0.087	0.8146	0.3389	0.584
Mof_C 	C 	0.6042	0.9569	0.1727	0.26
Mof_C 	C 	0.7391	0.9564	0.1729	-0.276
Mof_C 	C 	0.8146	0.913	0.0889	0.591
Mof_C 	C 	0.3958	0.0431	0.6727	0.234
Mof_C 	C 	0.2609	0.0436	0.6729	-0.323
Mof_C 	C 	0.1854	0.087	0.5889	0.594
Mof_C 	C 	0.0431	0.3958	0.0773	0.235
Mof_C 	C 	0.0436	0.2609	0.0771	-0.324
Mof_C 	C 	0.087	0.1854	0.1611	0.592
Mof_C 	C 	0.9569	0.6042	0.5773	0.256
Mof_C 	C 	0.9564	0.7391	0.5771	-0.278
Mof_C 	C 	0.913	0.8146	0.6611	0.591
Mof_C 	C 	0.3958	0.9569	0.8273	0.27
Mof_C 	C 	0.2609	0.9564	0.8271	-0.293
Mof_C 	C 	0.1854	0.913	0.9111	0.599
Mof_C 	C 	0.6042	0.0431	0.3273	0.224
Mof_C 	C 	0.7391	0.0436	0.3271	-0.303
Mof_C 	C 	0.8146	0.087	0.4111	0.585
Mof_C 	C 	-0	0.4627	-0	-0.357
Mof_C 	C 	-0	0.6104	-0	0.55
Mof_C 	C 	-2.0433e-33	0.193	-0	0.194
Mof_C 	C 	1.08072e-32	0.5373	0.5	-0.33
Mof_C 	C 	1.08072e-32	0.3896	0.5	0.559
Mof_C 	C 	-5.53919e-33	0.807	0.5	0.201
Mof_C 	C 	0.5373	0	0.25	-0.334
Mof_C 	C 	0.3896	0	0.25	0.554
Mof_C 	C 	0.807	0	0.25	0.195
Mof_C 	C 	0.4627	8.17322e-33	0.75	-0.345
Mof_C 	C 	0.6104	8.17322e-33	0.75	0.563
Mof_C 	C 	0.193	8.17322e-33	0.75	0.209
Mof_O 	O 	0.9048	0.2436	0.7643	-0.594
Mof_O 	O 	0.9291	0.6636	0.9416	-0.569
Mof_O 	O 	0.8904	0.0693	0.8486	-0.629
Mof_O 	O 	0.0952	0.7564	0.2643	-0.595
Mof_O 	O 	0.0709	0.3364	0.4416	-0.593
Mof_O 	O 	0.1096	0.9307	0.3486	-0.59
Mof_O 	O 	0.7564	0.9048	0.0143	-0.598
Mof_O 	O 	0.3364	0.9291	0.1916	-0.567
Mof_O 	O 	0.9307	0.8904	0.0986	-0.58
Mof_O 	O 	0.2436	0.0952	0.5143	-0.598
Mof_O 	O 	0.6636	0.0709	0.6916	-0.603
Mof_O 	O 	0.0693	0.1096	0.5986	-0.636
Mof_O 	O 	0.0952	0.2436	0.2357	-0.599
Mof_O 	O 	0.0709	0.6636	0.0584	-0.602
Mof_O 	O 	0.1096	0.0693	0.1514	-0.638
Mof_O 	O 	0.9048	0.7564	0.7357	-0.593
Mof_O 	O 	0.9291	0.3364	0.5584	-0.57
Mof_O 	O 	0.8904	0.9307	0.6514	-0.582
Mof_O 	O 	0.2436	0.9048	0.9857	-0.58
Mof_O 	O 	0.6636	0.9291	0.8084	-0.576
Mof_O 	O 	0.0693	0.8904	0.9014	-0.62
Mof_O 	O 	0.7564	0.0952	0.4857	-0.597
Mof_O 	O 	0.3364	0.0709	0.3084	-0.593
Mof_O 	O 	0.9307	0.1096	0.4014	-0.591
_end
