data_functionalizedCrystal
_audit_creation_method	'EQeq! by Chris Wilmer'
_symmetry_space_group_name_H-M	'P1'
_symmetry_Int_Tables_number	1
_symmetry_cell_setting	triclinic
loop_
_symmetry_equiv_pos_as_xyz
  x,y,z
_cell_length_a	11.2621
_cell_length_b	7.1374
_cell_length_c	6.5867
_cell_angle_alpha	90
_cell_angle_beta	109.523
_cell_angle_gamma	90
loop_
_atom_site_label
_atom_site_type_symbol
_atom_site_fract_x
_atom_site_fract_y
_atom_site_fract_z
_atom_site_charge
Mof_O 	O 	0.9921	0.8026	0.6643	-0.106
Mof_O 	O 	0.1699	0.7499	0.1143	-0.382
Mof_O 	O 	0.3461	0.6085	0.118	-0.402
Mof_C 	C 	0.235	0.653	0.0336	0.252
Mof_H 	H 	0.1951	0.6096	0.8942	0.014
Mof_O 	O 	0.4921	0.3026	0.6643	-0.327
Mof_O 	O 	0.6699	0.2499	0.1143	-0.347
Mof_O 	O 	0.8461	0.1085	0.118	-0.257
Mof_C 	C 	0.735	0.153	0.0336	0.232
Mof_H 	H 	0.6951	0.1096	0.8942	0.067
Mof_O 	O 	0.0079	0.8026	0.3357	-0.298
Mof_O 	O 	0.8301	0.7499	0.8857	-0.377
Mof_O 	O 	0.6539	0.6085	0.882	-0.446
Mof_C 	C 	0.765	0.653	0.9664	0.748
Mof_H 	H 	0.8049	0.6096	0.1058	-0.252
Mof_O 	O 	0.5079	0.3026	0.3357	-0.367
Mof_O 	O 	0.3301	0.2499	0.8857	-0.419
Mof_O 	O 	0.1539	0.1085	0.882	-0.388
Mof_C 	C 	0.265	0.153	0.9664	0.755
Mof_H 	H 	0.3049	0.1096	0.1058	-0.248
Mof_Y 	Y 	-0	0.9481	-0	0.864
Mof_Y 	Y 	0.5	0.4481	-0	1.244
Mof_C 	C 	1.46284e-33	0.8831	0.5	0.023
Mof_H 	H 	1.46284e-33	0.0134	0.5	0.075
Mof_C 	C 	0.5	0.3831	0.5	0.464
Mof_H 	H 	0.5	0.5134	0.5	-0.122
_end
