data_functionalizedCrystal
_audit_creation_method	'EQeq! by Chris Wilmer'
_symmetry_space_group_name_H-M	'P1'
_symmetry_Int_Tables_number	1
_symmetry_cell_setting	triclinic
loop_
_symmetry_equiv_pos_as_xyz
  x,y,z
_cell_length_a	10.8908
_cell_length_b	11.5537
_cell_length_c	16.7793
_cell_angle_alpha	90
_cell_angle_beta	90
_cell_angle_gamma	90
loop_
_atom_site_label
_atom_site_type_symbol
_atom_site_fract_x
_atom_site_fract_y
_atom_site_fract_z
_atom_site_charge
Mof_Cu	Cu	-3.0874e-32	0.82138	0.86466	0.907
Mof_Cu	Cu	7.81811e-34	0.17862	0.13534	0.894
Mof_Cu	Cu	0.13798	0	-0	0.865
Mof_Cu	Cu	0.86202	0	-0	0.883
Mof_H 	H 	0.3139	0.2934	0.2316	0.024
Mof_H 	H 	0.3139	0.7066	0.7684	0.046
Mof_H 	H 	0.6861	0.7066	0.7684	0.056
Mof_H 	H 	0.6861	0.2934	0.2316	0.033
Mof_H 	H 	-1.81532e-32	0.84	0.997	0.264
Mof_H 	H 	-2.08436e-33	0.16	0.003	0.231
Mof_H 	H 	0.5	0.1094	0.0654	0.006
Mof_H 	H 	0.5	0.8906	0.9346	0.09
Mof_C 	C 	0.2683	0.1567	0.1075	0.402
Mof_C 	C 	0.2683	0.8433	0.8925	0.379
Mof_C 	C 	0.3887	0.1947	0.1432	-0.161
Mof_C 	C 	0.3893	0.2677	0.2093	0.073
Mof_C 	C 	0.3887	0.8053	0.8568	-0.087
Mof_C 	C 	0.3893	0.7323	0.7907	0.048
Mof_C 	C 	0.7317	0.8433	0.8925	0.376
Mof_C 	C 	0.7317	0.1567	0.1075	0.399
Mof_C 	C 	0.6113	0.8053	0.8568	-0.081
Mof_C 	C 	0.6107	0.7323	0.7907	0.047
Mof_C 	C 	0.6113	0.1947	0.1432	-0.155
Mof_C 	C 	0.6107	0.2677	0.2093	0.071
Mof_C 	C 	0.5	0.1589	0.1105	0.08
Mof_C 	C 	0.5	0.303	0.2427	-0.126
Mof_C 	C 	0.5	0.8411	0.8895	0.045
Mof_C 	C 	0.5	0.697	0.7573	-0.085
Mof_S 	S 	0.5	0.39953	0.32572	0.517
Mof_S 	S 	0.5	0.60047	0.67428	0.507
Mof_O 	O 	0.2705	0.0859	0.0517	-0.452
Mof_O 	O 	0.1751	0.797	0.8617	-0.414
Mof_O 	O 	0.2705	0.9141	0.9483	-0.308
Mof_O 	O 	0.1751	0.203	0.1383	-0.454
Mof_O 	O 	0.3893	0.3784	0.3702	-0.34
Mof_O 	O 	0.3893	0.6216	0.6298	-0.324
Mof_O 	O 	0.7295	0.9141	0.9483	-0.299
Mof_O 	O 	0.8249	0.203	0.1383	-0.423
Mof_O 	O 	0.7295	0.0859	0.0517	-0.445
Mof_O 	O 	0.8249	0.797	0.8617	-0.381
Mof_O 	O 	0.6107	0.6216	0.6298	-0.317
Mof_O 	O 	0.6107	0.3784	0.3702	-0.333
Mof_O 	O 	5.58659e-33	0.8984	0.9671	-0.645
Mof_O 	O 	5.63685e-34	0.1016	0.0329	-0.757
Mof_O 	O 	0.5	0.5137	0.2896	-0.352
Mof_O 	O 	0.5	0.4863	0.7104	-0.339
Mof_Cu	Cu	0.5	0.67862	0.36466	0.92
Mof_Cu	Cu	0.5	0.32138	0.63534	0.913
Mof_Cu	Cu	0.36202	0.5	0.5	0.941
Mof_Cu	Cu	0.63798	0.5	0.5	0.942
Mof_H 	H 	0.1861	0.2066	0.7316	0.037
Mof_H 	H 	0.1861	0.7934	0.2684	0.038
Mof_H 	H 	0.8139	0.7934	0.2684	0.031
Mof_H 	H 	0.8139	0.2066	0.7316	0.03
Mof_H 	H 	1.52224e-32	0.3906	0.5654	0.056
Mof_H 	H 	-3.4676e-33	0.6094	0.4346	0.054
Mof_H 	H 	0.5	0.66	0.497	0.267
Mof_H 	H 	0.5	0.34	0.503	0.254
Mof_C 	C 	0.1113	0.3053	0.6432	-0.109
Mof_C 	C 	0.1107	0.2323	0.7093	0.045
Mof_C 	C 	0.1113	0.6947	0.3568	-0.116
Mof_C 	C 	0.1107	0.7677	0.2907	0.078
Mof_C 	C 	0.2317	0.3433	0.6075	0.383
Mof_C 	C 	0.2317	0.6567	0.3925	0.389
Mof_C 	C 	0.8887	0.6947	0.3568	-0.074
Mof_C 	C 	0.8893	0.7677	0.2907	0.13
Mof_C 	C 	0.8887	0.3053	0.6432	-0.066
Mof_C 	C 	0.8893	0.2323	0.7093	0.095
Mof_C 	C 	0.7683	0.6567	0.3925	0.386
Mof_C 	C 	0.7683	0.3433	0.6075	0.38
Mof_C 	C 	-8.42963e-33	0.3411	0.6105	-0.017
Mof_C 	C 	-7.66595e-33	0.197	0.7427	-0.132
Mof_C 	C 	1.42063e-32	0.6589	0.3895	-0.004
Mof_C 	C 	1.48633e-33	0.803	0.2573	-0.174
Mof_S 	S 	4.76989e-33	0.10047	0.82572	0.345
Mof_S 	S 	-1.98231e-33	0.89953	0.17428	0.566
Mof_O 	O 	0.1107	0.1216	0.8702	-0.29
Mof_O 	O 	0.1107	0.8784	0.1298	-0.339
Mof_O 	O 	0.2295	0.4141	0.5517	-0.397
Mof_O 	O 	0.3249	0.703	0.3617	-0.424
Mof_O 	O 	0.2295	0.5859	0.4483	-0.395
Mof_O 	O 	0.3249	0.297	0.6383	-0.436
Mof_O 	O 	0.8893	0.8784	0.1298	-0.294
Mof_O 	O 	0.8893	0.1216	0.8702	-0.246
Mof_O 	O 	0.7705	0.5859	0.4483	-0.376
Mof_O 	O 	0.6751	0.297	0.6383	-0.431
Mof_O 	O 	0.7705	0.4141	0.5517	-0.379
Mof_O 	O 	0.6751	0.703	0.3617	-0.419
Mof_O 	O 	1.65175e-32	0.9863	0.7896	-0.27
Mof_O 	O 	1.21541e-33	0.0137	0.2104	-0.433
Mof_O 	O 	0.5	0.6016	0.4671	-0.713
Mof_O 	O 	0.5	0.3984	0.5329	-0.711
_end
