data_functionalizedCrystal
_audit_creation_method	'EQeq! by Chris Wilmer'
_symmetry_space_group_name_H-M	'P1'
_symmetry_Int_Tables_number	1
_symmetry_cell_setting	triclinic
loop_
_symmetry_equiv_pos_as_xyz
  x,y,z
_cell_length_a	18.0352
_cell_length_b	25.8676
_cell_length_c	18.0584
_cell_angle_alpha	90
_cell_angle_beta	118.861
_cell_angle_gamma	90
loop_
_atom_site_label
_atom_site_type_symbol
_atom_site_fract_x
_atom_site_fract_y
_atom_site_fract_z
_atom_site_charge
Mof_Mn	Mn	0.9269	0.08314	0.80158	0.942
Mof_Mn	Mn	0.89337	4e-05	0.10682	1.028
Mof_Mn	Mn	0.80174	0.0832	0.92708	0.944
Mof_S 	S 	0.53421	0.90386	0.53407	0.265
Mof_S 	S 	0.43971	0.82377	0.7718	0.266
Mof_S 	S 	0.7724	0.82386	0.44001	0.281
Mof_O 	O 	0.91579	0.04786	0.02127	-0.433
Mof_O 	O 	0.02073	0.04811	0.91508	-0.433
Mof_O 	O 	0.8905	0.96758	0.8901	-0.359
Mof_O 	O 	0.6293	0.65311	0.5592	-0.397
Mof_O 	O 	0.2303	0.88629	0.9813	-0.38
Mof_O 	O 	0.7204	0.01703	0.9046	-0.402
Mof_O 	O 	0.8373	0.04624	0.8371	-0.46
Mof_O 	O 	0.5591	0.65322	0.629	-0.394
Mof_O 	O 	0.9819	0.88561	0.2311	-0.37
Mof_O 	O 	0.905	0.01695	0.7211	-0.417
Mof_O 	O 	0.192	0.9482	0.8877	-0.408
Mof_O 	O 	0.8872	0.9483	0.1918	-0.399
Mof_O 	O 	0.7931	0.95812	0.0042	-0.39
Mof_O 	O 	0.0035	0.95819	0.7925	-0.411
Mof_O 	O 	0.5404	0.91909	0.4606	-0.208
Mof_O 	O 	0.461	0.91918	0.54	-0.209
Mof_O 	O 	0.3961	0.8313	0.6812	-0.211
Mof_O 	O 	0.4702	0.77321	0.805	-0.213
Mof_O 	O 	0.6842	0.8297	0.3977	-0.218
Mof_O 	O 	0.8051	0.77263	0.4698	-0.214
Mof_C 	C 	0.8357	0.99622	0.8355	0.369
Mof_C 	C 	0.7611	0.97305	0.7613	-0.098
Mof_C 	C 	0.6999	0.0027	0.6999	0.005
Mof_H 	H 	0.7053	0.0385	0.7051	0.031
Mof_C 	C 	0.6304	0.98249	0.6305	-0.047
Mof_H 	H 	0.5896	0.0038	0.5897	0.074
Mof_C 	C 	0.6238	0.92861	0.6239	-0.001
Mof_C 	C 	0.6856	0.89773	0.6852	-0.072
Mof_H 	H 	0.6813	0.8619	0.6804	0.066
Mof_C 	C 	0.7523	0.91975	0.7521	0.021
Mof_H 	H 	0.7933	0.8986	0.793	0.047
Mof_C 	C 	0.5452	0.83693	0.5452	0.024
Mof_C 	C 	0.5137	0.81048	0.5904	-0.106
Mof_H 	H 	0.4843	0.8282	0.6129	0.099
Mof_C 	C 	0.5257	0.75839	0.6024	0.061
Mof_H 	H 	0.5026	0.7408	0.6313	0.04
Mof_C 	C 	0.5719	0.73137	0.572	-0.142
Mof_C 	C 	0.603	0.75818	0.5262	0.058
Mof_H 	H 	0.6327	0.7405	0.5039	0.041
Mof_C 	C 	0.5903	0.81079	0.5133	-0.103
Mof_H 	H 	0.6122	0.8285	0.4833	0.099
Mof_C 	C 	0.5878	0.67495	0.5875	0.431
Mof_C 	C 	0.7317	0.9736	0.9389	0.417
Mof_C 	C 	0.6576	0.937	0.8957	-0.105
Mof_C 	C 	0.5924	0.9456	0.8141	0.03
Mof_H 	H 	0.5929	0.9756	0.786	0.044
Mof_C 	C 	0.5257	0.9103	0.773	-0.077
Mof_H 	H 	0.4834	0.9167	0.7179	0.081
Mof_C 	C 	0.523	0.867	0.8139	0.003
Mof_C 	C 	0.5865	0.857	0.8944	-0.068
Mof_H 	H 	0.5837	0.827	0.9213	0.073
Mof_C 	C 	0.6576	0.8915	0.9388	0.02
Mof_H 	H 	0.701	0.8841	0.9929	0.049
Mof_C 	C 	0.3758	0.8457	0.8137	0.016
Mof_C 	C 	0.321	0.8846	0.7741	-0.087
Mof_H 	H 	0.315	0.8974	0.7233	0.078
Mof_C 	C 	0.2736	0.9057	0.8083	0.042
Mof_H 	H 	0.2386	0.934	0.783	0.037
Mof_C 	C 	0.2794	0.8837	0.8813	-0.123
Mof_C 	C 	0.3309	0.8438	0.9184	0.046
Mof_H 	H 	0.3338	0.829	0.9667	0.048
Mof_C 	C 	0.381	0.824	0.8846	-0.081
Mof_H 	H 	0.4173	0.7963	0.9105	0.078
Mof_C 	C 	0.2296	0.9079	0.9202	0.431
Mof_C 	C 	0.9196	0.9078	0.2288	0.416
Mof_C 	C 	0.8819	0.8835	0.2797	-0.114
Mof_C 	C 	0.8104	0.9045	0.2735	0.036
Mof_H 	H 	0.7857	0.9328	0.2382	0.04
Mof_C 	C 	0.7733	0.8841	0.3199	-0.081
Mof_H 	H 	0.7221	0.8971	0.3126	0.076
Mof_C 	C 	0.8127	0.8457	0.3747	0.009
Mof_C 	C 	0.8845	0.8242	0.3823	-0.072
Mof_H 	H 	0.9111	0.7974	0.4204	0.074
Mof_C 	C 	0.9193	0.8434	0.3308	0.035
Mof_H 	H 	0.967	0.8281	0.3331	0.053
Mof_C 	C 	0.8141	0.8673	0.523	0.001
Mof_C 	C 	0.7741	0.9103	0.5265	-0.079
Mof_H 	H 	0.719	0.9169	0.4845	0.082
Mof_C 	C 	0.816	0.9451	0.5941	0.037
Mof_H 	H 	0.7879	0.9751	0.5951	0.042
Mof_C 	C 	0.8965	0.9367	0.6587	-0.114
Mof_C 	C 	0.9401	0.892	0.6578	0.026
Mof_H 	H 	0.9947	0.8849	0.7006	0.048
Mof_C 	C 	0.895	0.8573	0.586	-0.069
Mof_H 	H 	0.9218	0.8273	0.5829	0.073
Mof_C 	C 	0.9401	0.9743	0.7321	0.448
Mof_Mn	Mn	0.5731	0.58314	0.69842	0.938
Mof_Mn	Mn	0.60663	0.50004	0.39318	1.044
Mof_Mn	Mn	0.69826	0.5832	0.57292	0.937
Mof_S 	S 	0.96579	0.40386	0.96593	0.279
Mof_S 	S 	0.06029	0.32377	0.7282	0.26
Mof_S 	S 	0.7276	0.32386	0.05999	0.273
Mof_O 	O 	0.58421	0.54786	0.47873	-0.438
Mof_O 	O 	0.47927	0.54811	0.58492	-0.438
Mof_O 	O 	0.6095	0.46758	0.6099	-0.376
Mof_O 	O 	0.8707	0.15311	0.9408	-0.392
Mof_O 	O 	0.2697	0.38629	0.5187	-0.39
Mof_O 	O 	0.7796	0.51703	0.5954	-0.394
Mof_O 	O 	0.6627	0.54624	0.6629	-0.46
Mof_O 	O 	0.9409	0.15322	0.871	-0.39
Mof_O 	O 	0.5181	0.38561	0.2689	-0.383
Mof_O 	O 	0.595	0.51695	0.7789	-0.405
Mof_O 	O 	0.308	0.4482	0.6123	-0.411
Mof_O 	O 	0.6128	0.4483	0.3082	-0.409
Mof_O 	O 	0.7069	0.45812	0.4958	-0.386
Mof_O 	O 	0.4965	0.45819	0.7075	-0.397
Mof_O 	O 	0.9596	0.41909	0.0394	-0.211
Mof_O 	O 	0.039	0.41918	0.96	-0.212
Mof_O 	O 	0.1039	0.3313	0.8188	-0.208
Mof_O 	O 	0.0298	0.27321	0.695	-0.215
Mof_O 	O 	0.8158	0.3297	0.1023	-0.216
Mof_O 	O 	0.6949	0.27263	0.0302	-0.217
Mof_C 	C 	0.6643	0.49622	0.6645	0.375
Mof_C 	C 	0.7389	0.47305	0.7387	-0.135
Mof_C 	C 	0.8001	0.5027	0.8001	0.065
Mof_H 	H 	0.7947	0.5385	0.7949	0.013
Mof_C 	C 	0.8696	0.48249	0.8695	-0.106
Mof_H 	H 	0.9104	0.5038	0.9103	0.104
Mof_C 	C 	0.8762	0.42861	0.8761	0.024
Mof_C 	C 	0.8144	0.39773	0.8148	-0.1
Mof_H 	H 	0.8187	0.3619	0.8196	0.075
Mof_C 	C 	0.7477	0.41975	0.7479	0.051
Mof_H 	H 	0.7067	0.3986	0.707	0.035
Mof_C 	C 	0.9548	0.33693	0.9548	0.003
Mof_C 	C 	0.9863	0.31048	0.9096	-0.072
Mof_H 	H 	0.0157	0.3282	0.8871	0.084
Mof_C 	C 	0.9743	0.25839	0.8976	0.037
Mof_H 	H 	0.9974	0.2408	0.8687	0.051
Mof_C 	C 	0.9281	0.23137	0.928	-0.123
Mof_C 	C 	0.897	0.25818	0.9738	0.034
Mof_H 	H 	0.8673	0.2405	0.9961	0.053
Mof_C 	C 	0.9097	0.31079	0.9867	-0.068
Mof_H 	H 	0.8878	0.3285	0.0167	0.082
Mof_C 	C 	0.9122	0.17495	0.9125	0.425
Mof_C 	C 	0.7683	0.4736	0.5611	0.4
Mof_C 	C 	0.8424	0.437	0.6043	-0.097
Mof_C 	C 	0.9076	0.4456	0.6859	0.017
Mof_H 	H 	0.9071	0.4756	0.714	0.047
Mof_C 	C 	0.9743	0.4103	0.727	-0.058
Mof_H 	H 	0.0166	0.4167	0.7821	0.069
Mof_C 	C 	0.977	0.367	0.6861	0.003
Mof_C 	C 	0.9135	0.357	0.6056	-0.066
Mof_H 	H 	0.9163	0.327	0.5787	0.073
Mof_C 	C 	0.8424	0.3915	0.5612	0.015
Mof_H 	H 	0.799	0.3841	0.5071	0.049
Mof_C 	C 	0.1242	0.3457	0.6863	0.018
Mof_C 	C 	0.179	0.3846	0.7259	-0.091
Mof_H 	H 	0.185	0.3974	0.7767	0.08
Mof_C 	C 	0.2264	0.4057	0.6917	0.045
Mof_H 	H 	0.2614	0.434	0.717	0.035
Mof_C 	C 	0.2206	0.3837	0.6187	-0.128
Mof_C 	C 	0.1691	0.3438	0.5816	0.049
Mof_H 	H 	0.1662	0.329	0.5333	0.043
Mof_C 	C 	0.119	0.324	0.6154	-0.086
Mof_H 	H 	0.0827	0.2963	0.5895	0.077
Mof_C 	C 	0.2704	0.4079	0.5798	0.433
Mof_C 	C 	0.5804	0.4078	0.2712	0.42
Mof_C 	C 	0.6181	0.3835	0.2203	-0.121
Mof_C 	C 	0.6896	0.4045	0.2265	0.041
Mof_H 	H 	0.7143	0.4328	0.2618	0.037
Mof_C 	C 	0.7267	0.3841	0.1801	-0.086
Mof_H 	H 	0.7779	0.3971	0.1874	0.078
Mof_C 	C 	0.6873	0.3457	0.1253	0.012
Mof_C 	C 	0.6155	0.3242	0.1177	-0.078
Mof_H 	H 	0.5889	0.2974	0.0796	0.073
Mof_C 	C 	0.5807	0.3434	0.1692	0.039
Mof_H 	H 	0.533	0.3281	0.1669	0.047
Mof_C 	C 	0.6859	0.3673	0.977	0.001
Mof_C 	C 	0.7259	0.4103	0.9735	-0.058
Mof_H 	H 	0.781	0.4169	0.0155	0.068
Mof_C 	C 	0.684	0.4451	0.9059	0.021
Mof_H 	H 	0.7121	0.4751	0.9049	0.045
Mof_C 	C 	0.6035	0.4367	0.8413	-0.103
Mof_C 	C 	0.5599	0.392	0.8422	0.018
Mof_H 	H 	0.5053	0.3849	0.7994	0.048
Mof_C 	C 	0.605	0.3573	0.914	-0.066
Mof_H 	H 	0.5782	0.3273	0.9171	0.073
Mof_C 	C 	0.5599	0.4743	0.7679	0.422
Mof_Mn	Mn	0.0731	0.91686	0.19842	0.919
Mof_Mn	Mn	0.10663	0.99996	0.89318	1.055
Mof_Mn	Mn	0.19826	0.9168	0.07292	0.92
Mof_S 	S 	0.46579	0.09614	0.46593	0.241
Mof_S 	S 	0.56029	0.17623	0.2282	0.268
Mof_S 	S 	0.2276	0.17614	0.55999	0.282
Mof_O 	O 	0.08421	0.95214	0.97873	-0.421
Mof_O 	O 	0.97927	0.95189	0.08492	-0.414
Mof_O 	O 	0.1095	0.03242	0.1099	-0.381
Mof_O 	O 	0.3707	0.34689	0.4408	-0.398
Mof_O 	O 	0.7697	0.11371	0.0187	-0.396
Mof_O 	O 	0.2796	0.98297	0.0954	-0.379
Mof_O 	O 	0.1627	0.95376	0.1629	-0.454
Mof_O 	O 	0.4409	0.34678	0.371	-0.395
Mof_O 	O 	0.0181	0.11439	0.7689	-0.387
Mof_O 	O 	0.095	0.98305	0.2789	-0.391
Mof_O 	O 	0.808	0.0518	0.1123	-0.413
Mof_O 	O 	0.1128	0.0517	0.8082	-0.413
Mof_O 	O 	0.2069	0.04188	0.9958	-0.364
Mof_O 	O 	0.9965	0.04181	0.2075	-0.375
Mof_O 	O 	0.4596	0.08091	0.5394	-0.205
Mof_O 	O 	0.539	0.08082	0.46	-0.206
Mof_O 	O 	0.6039	0.1687	0.3188	-0.21
Mof_O 	O 	0.5298	0.22679	0.195	-0.215
Mof_O 	O 	0.3158	0.1703	0.6023	-0.218
Mof_O 	O 	0.1949	0.22737	0.5302	-0.216
Mof_C 	C 	0.1643	0.00378	0.1645	0.378
Mof_C 	C 	0.2389	0.02695	0.2387	-0.183
Mof_C 	C 	0.3001	0.9973	0.3001	0.141
Mof_H 	H 	0.2947	0.9615	0.2949	-0.012
Mof_C 	C 	0.3696	0.01751	0.3695	-0.184
Mof_H 	H 	0.4104	0.9962	0.4103	0.134
Mof_C 	C 	0.3762	0.07139	0.3761	0.064
Mof_C 	C 	0.3144	0.10227	0.3148	-0.143
Mof_H 	H 	0.3187	0.1381	0.3196	0.089
Mof_C 	C 	0.2477	0.08025	0.2479	0.094
Mof_H 	H 	0.2067	0.1014	0.207	0.018
Mof_C 	C 	0.4548	0.16307	0.4548	0.033
Mof_C 	C 	0.4863	0.18952	0.4096	-0.113
Mof_H 	H 	0.5157	0.1718	0.3871	0.102
Mof_C 	C 	0.4743	0.24161	0.3976	0.066
Mof_H 	H 	0.4974	0.2592	0.3687	0.038
Mof_C 	C 	0.4281	0.26863	0.428	-0.147
Mof_C 	C 	0.397	0.24182	0.4738	0.063
Mof_H 	H 	0.3673	0.2595	0.4961	0.039
Mof_C 	C 	0.4097	0.18921	0.4867	-0.111
Mof_H 	H 	0.3878	0.1715	0.5167	0.101
Mof_C 	C 	0.4122	0.32505	0.4125	0.432
Mof_C 	C 	0.2683	0.0264	0.0611	0.362
Mof_C 	C 	0.3424	0.063	0.1043	-0.092
Mof_C 	C 	0.4076	0.0544	0.1859	0.017
Mof_H 	H 	0.4071	0.0244	0.214	0.042
Mof_C 	C 	0.4743	0.0897	0.227	-0.071
Mof_H 	H 	0.5166	0.0833	0.2821	0.077
Mof_C 	C 	0.477	0.133	0.1861	-0.004
Mof_C 	C 	0.4135	0.143	0.1056	-0.064
Mof_H 	H 	0.4163	0.173	0.0787	0.067
Mof_C 	C 	0.3424	0.1085	0.0612	0.007
Mof_H 	H 	0.299	0.1159	0.0071	0.044
Mof_C 	C 	0.6242	0.1543	0.1863	0.017
Mof_C 	C 	0.679	0.1154	0.2259	-0.09
Mof_H 	H 	0.685	0.1026	0.2767	0.078
Mof_C 	C 	0.7264	0.0943	0.1917	0.045
Mof_H 	H 	0.7614	0.066	0.217	0.034
Mof_C 	C 	0.7206	0.1163	0.1187	-0.129
Mof_C 	C 	0.6691	0.1562	0.0816	0.048
Mof_H 	H 	0.6662	0.171	0.0333	0.042
Mof_C 	C 	0.619	0.176	0.1154	-0.085
Mof_H 	H 	0.5827	0.2037	0.0895	0.076
Mof_C 	C 	0.7704	0.0921	0.0798	0.434
Mof_C 	C 	0.0804	0.0922	0.7712	0.422
Mof_C 	C 	0.1181	0.1165	0.7203	-0.122
Mof_C 	C 	0.1896	0.0955	0.7265	0.041
Mof_H 	H 	0.2143	0.0672	0.7618	0.037
Mof_C 	C 	0.2267	0.1159	0.6801	-0.085
Mof_H 	H 	0.2779	0.1029	0.6874	0.077
Mof_C 	C 	0.1873	0.1543	0.6253	0.011
Mof_C 	C 	0.1155	0.1758	0.6177	-0.077
Mof_H 	H 	0.0889	0.2026	0.5796	0.073
Mof_C 	C 	0.0807	0.1566	0.6692	0.039
Mof_H 	H 	0.033	0.1719	0.6669	0.046
Mof_C 	C 	0.1859	0.1327	0.477	-0.006
Mof_C 	C 	0.2259	0.0897	0.4735	-0.072
Mof_H 	H 	0.281	0.0831	0.5155	0.077
Mof_C 	C 	0.184	0.0549	0.4059	0.022
Mof_H 	H 	0.2121	0.0249	0.4049	0.041
Mof_C 	C 	0.1035	0.0633	0.3413	-0.099
Mof_C 	C 	0.0599	0.108	0.3422	0.01
Mof_H 	H 	0.0053	0.1151	0.2994	0.043
Mof_C 	C 	0.105	0.1427	0.414	-0.064
Mof_H 	H 	0.0782	0.1727	0.4171	0.066
Mof_C 	C 	0.0599	0.0257	0.2679	0.387
Mof_Mn	Mn	0.4269	0.41686	0.30158	0.935
Mof_Mn	Mn	0.39337	0.49996	0.60682	1.044
Mof_Mn	Mn	0.30174	0.4168	0.42708	0.934
Mof_S 	S 	0.03421	0.59614	0.03407	0.178
Mof_S 	S 	0.93971	0.67623	0.2718	0.277
Mof_S 	S 	0.2724	0.67614	0.94001	0.29
Mof_O 	O 	0.41579	0.45214	0.52127	-0.438
Mof_O 	O 	0.52073	0.45189	0.41508	-0.438
Mof_O 	O 	0.3905	0.53242	0.3901	-0.377
Mof_O 	O 	0.1293	0.84689	0.0592	-0.406
Mof_O 	O 	0.7303	0.61371	0.4813	-0.389
Mof_O 	O 	0.2204	0.48297	0.4046	-0.397
Mof_O 	O 	0.3373	0.45376	0.3371	-0.462
Mof_O 	O 	0.0591	0.84678	0.129	-0.404
Mof_O 	O 	0.4819	0.61439	0.7311	-0.382
Mof_O 	O 	0.405	0.48305	0.2211	-0.408
Mof_O 	O 	0.692	0.5518	0.3877	-0.411
Mof_O 	O 	0.3872	0.5517	0.6918	-0.408
Mof_O 	O 	0.2931	0.54188	0.5042	-0.388
Mof_O 	O 	0.5035	0.54181	0.2925	-0.399
Mof_O 	O 	0.0404	0.58091	0.9606	-0.182
Mof_O 	O 	0.961	0.58082	0.04	-0.182
Mof_O 	O 	0.8961	0.6687	0.1812	-0.212
Mof_O 	O 	0.9702	0.72679	0.305	-0.21
Mof_O 	O 	0.1842	0.6703	0.8977	-0.22
Mof_O 	O 	0.3051	0.72737	0.9698	-0.211
Mof_C 	C 	0.3357	0.50378	0.3355	0.379
Mof_C 	C 	0.2611	0.52695	0.2613	-0.147
Mof_C 	C 	0.1999	0.4973	0.1999	0.078
Mof_H 	H 	0.2053	0.4615	0.2051	0.005
Mof_C 	C 	0.1304	0.51751	0.1305	-0.128
Mof_H 	H 	0.0896	0.4962	0.0897	0.101
Mof_C 	C 	0.1238	0.57139	0.1239	0.048
Mof_C 	C 	0.1856	0.60227	0.1852	-0.124
Mof_H 	H 	0.1813	0.6381	0.1804	0.083
Mof_C 	C 	0.2523	0.58025	0.2521	0.068
Mof_H 	H 	0.2933	0.6014	0.293	0.029
Mof_C 	C 	0.0452	0.66307	0.0452	0.097
Mof_C 	C 	0.0137	0.68952	0.0904	-0.211
Mof_H 	H 	0.9843	0.6718	0.1129	0.148
Mof_C 	C 	0.0257	0.74161	0.1024	0.135
Mof_H 	H 	0.0026	0.7592	0.1313	0.008
Mof_C 	C 	0.0719	0.76863	0.072	-0.198
Mof_C 	C 	0.103	0.74182	0.0262	0.128
Mof_H 	H 	0.1327	0.7595	0.0039	0.012
Mof_C 	C 	0.0903	0.68921	0.0133	-0.204
Mof_H 	H 	0.1122	0.6715	0.9833	0.145
Mof_C 	C 	0.0878	0.82505	0.0875	0.45
Mof_C 	C 	0.2317	0.5264	0.4389	0.405
Mof_C 	C 	0.1576	0.563	0.3957	-0.112
Mof_C 	C 	0.0924	0.5544	0.3141	0.046
Mof_H 	H 	0.0929	0.5244	0.286	0.032
Mof_C 	C 	0.0257	0.5897	0.273	-0.115
Mof_H 	H 	0.9834	0.5833	0.2179	0.102
Mof_C 	C 	0.023	0.633	0.3139	0.001
Mof_C 	C 	0.0865	0.643	0.3944	-0.073
Mof_H 	H 	0.0837	0.673	0.4213	0.068
Mof_C 	C 	0.1576	0.6085	0.4388	0.022
Mof_H 	H 	0.201	0.6159	0.4929	0.045
Mof_C 	C 	0.8758	0.6543	0.3137	0.016
Mof_C 	C 	0.821	0.6154	0.2741	-0.087
Mof_H 	H 	0.815	0.6026	0.2233	0.078
Mof_C 	C 	0.7736	0.5943	0.3083	0.043
Mof_H 	H 	0.7386	0.566	0.283	0.035
Mof_C 	C 	0.7794	0.6163	0.3813	-0.125
Mof_C 	C 	0.8309	0.6562	0.4184	0.047
Mof_H 	H 	0.8338	0.671	0.4667	0.046
Mof_C 	C 	0.881	0.676	0.3846	-0.081
Mof_H 	H 	0.9173	0.7037	0.4105	0.078
Mof_C 	C 	0.7296	0.5921	0.4202	0.433
Mof_C 	C 	0.4196	0.5922	0.7288	0.42
Mof_C 	C 	0.3819	0.6165	0.7797	-0.118
Mof_C 	C 	0.3104	0.5955	0.7735	0.038
Mof_H 	H 	0.2857	0.5672	0.7382	0.038
Mof_C 	C 	0.2733	0.6159	0.8199	-0.082
Mof_H 	H 	0.2221	0.6029	0.8126	0.076
Mof_C 	C 	0.3127	0.6543	0.8747	0.009
Mof_C 	C 	0.3845	0.6758	0.8823	-0.073
Mof_H 	H 	0.4111	0.7026	0.9204	0.075
Mof_C 	C 	0.4193	0.6566	0.8308	0.037
Mof_H 	H 	0.467	0.6719	0.8331	0.05
Mof_C 	C 	0.3141	0.6327	0.023	-0
Mof_C 	C 	0.2741	0.5897	0.0265	-0.116
Mof_H 	H 	0.219	0.5831	0.9845	0.102
Mof_C 	C 	0.316	0.5549	0.0941	0.051
Mof_H 	H 	0.2879	0.5249	0.0951	0.03
Mof_C 	C 	0.3965	0.5633	0.1587	-0.119
Mof_C 	C 	0.4401	0.608	0.1578	0.026
Mof_H 	H 	0.4947	0.6151	0.2006	0.044
Mof_C 	C 	0.395	0.6427	0.086	-0.073
Mof_H 	H 	0.4218	0.6727	0.0829	0.068
Mof_C 	C 	0.4401	0.5257	0.2321	0.427
Mof_Mn	Mn	-0	0	-0	0.934
Mof_Mn	Mn	0.5	0.5	0.5	0.997
_end
