data_functionalizedCrystal
_audit_creation_method	'EQeq! by Chris Wilmer'
_symmetry_space_group_name_H-M	'P1'
_symmetry_Int_Tables_number	1
_symmetry_cell_setting	triclinic
loop_
_symmetry_equiv_pos_as_xyz
  x,y,z
_cell_length_a	12.446
_cell_length_b	28.949
_cell_length_c	5.3971
_cell_angle_alpha	90
_cell_angle_beta	90
_cell_angle_gamma	90
loop_
_atom_site_label
_atom_site_type_symbol
_atom_site_fract_x
_atom_site_fract_y
_atom_site_fract_z
_atom_site_charge
Mof_O 	O 	0.368	0.7075	0.574	-0.581
Mof_H 	H 	0.3388	0.6839	0.5363	0.243
Mof_O 	O 	0.3707	0.7093	0.921	-0.617
Mof_H 	H 	0.3417	0.6858	0.9597	0.254
Mof_O 	O 	0.2524	0.7853	0.418	-0.544
Mof_H 	H 	0.2526	0.8129	0.4183	0.199
Mof_C 	C 	0.48	0.9515	0.538	-0.035
Mof_H 	H 	0.4415	0.9552	0.6956	0.008
Mof_C 	C 	0.418	0.9737	0.376	-0.275
Mof_H 	H 	0.3469	0.9605	0.3825	0.049
Mof_H 	H 	0.4467	0.9679	0.2112	0.112
Mof_C 	C 	0.592	0.9732	0.59	0.138
Mof_H 	H 	0.3601	0.9666	0.4529	0.039
Mof_H 	H 	0.3776	0.9596	0.7387	-0.036
Mof_O 	O 	0.868	0.2075	0.074	-0.581
Mof_H 	H 	0.8388	0.1839	0.0363	0.238
Mof_O 	O 	0.8707	0.2093	0.421	-0.599
Mof_H 	H 	0.8417	0.1858	0.4597	0.26
Mof_O 	O 	0.7524	0.2853	0.918	-0.534
Mof_H 	H 	0.7526	0.3129	0.9183	0.205
Mof_C 	C 	0.98	0.4515	0.038	-0.079
Mof_H 	H 	0.9415	0.4552	0.1956	0.029
Mof_C 	C 	0.918	0.4737	0.876	-0.214
Mof_H 	H 	0.8469	0.4605	0.8825	0.088
Mof_H 	H 	0.9467	0.4679	0.7112	0.097
Mof_C 	C 	0.092	0.4732	0.09	0.152
Mof_H 	H 	0.8601	0.4666	0.9529	-0.017
Mof_H 	H 	0.8776	0.4596	0.2387	-0.036
Mof_O 	O 	0.632	0.7925	0.574	-0.581
Mof_H 	H 	0.6612	0.8161	0.5363	0.243
Mof_O 	O 	0.6293	0.7907	0.921	-0.617
Mof_H 	H 	0.6583	0.8142	0.9597	0.254
Mof_O 	O 	0.7476	0.7147	0.418	-0.545
Mof_H 	H 	0.7474	0.6871	0.4183	0.201
Mof_C 	C 	0.52	0.5485	0.538	-0.035
Mof_H 	H 	0.5585	0.5448	0.6956	0.008
Mof_C 	C 	0.582	0.5263	0.376	-0.275
Mof_H 	H 	0.6531	0.5395	0.3825	0.05
Mof_H 	H 	0.5533	0.5321	0.2112	0.112
Mof_C 	C 	0.408	0.5268	0.59	0.138
Mof_H 	H 	0.6399	0.5334	0.4529	0.038
Mof_H 	H 	0.6224	0.5404	0.7387	-0.035
Mof_O 	O 	0.132	0.2925	0.074	-0.59
Mof_H 	H 	0.1612	0.3161	0.0363	0.238
Mof_O 	O 	0.1293	0.2907	0.421	-0.609
Mof_H 	H 	0.1583	0.3142	0.4597	0.259
Mof_O 	O 	0.2476	0.2147	0.918	-0.533
Mof_H 	H 	0.2474	0.1871	0.9183	0.203
Mof_C 	C 	0.02	0.0485	0.038	0.012
Mof_H 	H 	0.0585	0.0448	0.1956	-0.013
Mof_C 	C 	0.082	0.0263	0.876	-0.328
Mof_H 	H 	0.1531	0.0395	0.8825	0.047
Mof_H 	H 	0.0533	0.0321	0.7112	0.123
Mof_C 	C 	0.908	0.0268	0.09	0.132
Mof_H 	H 	0.1399	0.0334	0.9529	0.058
Mof_H 	H 	0.1224	0.0404	0.2387	-0.035
Mof_O 	O 	0.632	0.2075	0.426	-0.581
Mof_H 	H 	0.6612	0.1839	0.4637	0.243
Mof_O 	O 	0.6293	0.2093	0.079	-0.617
Mof_H 	H 	0.6583	0.1858	0.0403	0.254
Mof_O 	O 	0.7476	0.2853	0.582	-0.545
Mof_H 	H 	0.7474	0.3129	0.5817	0.201
Mof_C 	C 	0.52	0.4515	0.462	-0.035
Mof_H 	H 	0.5585	0.4552	0.3044	0.008
Mof_C 	C 	0.582	0.4737	0.624	-0.275
Mof_H 	H 	0.6531	0.4605	0.6175	0.05
Mof_H 	H 	0.5533	0.4679	0.7888	0.112
Mof_C 	C 	0.408	0.4732	0.41	0.138
Mof_H 	H 	0.6399	0.4666	0.5471	0.038
Mof_H 	H 	0.6224	0.4596	0.2613	-0.035
Mof_O 	O 	0.132	0.7075	0.926	-0.59
Mof_H 	H 	0.1612	0.6839	0.9637	0.238
Mof_O 	O 	0.1293	0.7093	0.579	-0.609
Mof_H 	H 	0.1583	0.6858	0.5403	0.259
Mof_O 	O 	0.2476	0.7853	0.082	-0.533
Mof_H 	H 	0.2474	0.8129	0.0817	0.203
Mof_C 	C 	0.02	0.9515	0.962	0.012
Mof_H 	H 	0.0585	0.9552	0.8044	-0.013
Mof_C 	C 	0.082	0.9737	0.124	-0.328
Mof_H 	H 	0.1531	0.9605	0.1175	0.047
Mof_H 	H 	0.0533	0.9679	0.2888	0.123
Mof_C 	C 	0.908	0.9732	0.91	0.132
Mof_H 	H 	0.1399	0.9666	0.0471	0.058
Mof_H 	H 	0.1224	0.9596	0.7613	-0.035
Mof_O 	O 	0.368	0.2925	0.426	-0.581
Mof_H 	H 	0.3388	0.3161	0.4637	0.243
Mof_O 	O 	0.3707	0.2907	0.079	-0.617
Mof_H 	H 	0.3417	0.3142	0.0403	0.254
Mof_O 	O 	0.2524	0.2147	0.582	-0.544
Mof_H 	H 	0.2526	0.1871	0.5817	0.199
Mof_C 	C 	0.48	0.0485	0.462	-0.035
Mof_H 	H 	0.4415	0.0448	0.3044	0.008
Mof_C 	C 	0.418	0.0263	0.624	-0.275
Mof_H 	H 	0.3469	0.0395	0.6175	0.049
Mof_H 	H 	0.4467	0.0321	0.7888	0.112
Mof_C 	C 	0.592	0.0268	0.41	0.138
Mof_H 	H 	0.3601	0.0334	0.5471	0.039
Mof_H 	H 	0.3776	0.0404	0.2613	-0.036
Mof_O 	O 	0.868	0.7925	0.926	-0.581
Mof_H 	H 	0.8388	0.8161	0.9637	0.238
Mof_O 	O 	0.8707	0.7907	0.579	-0.599
Mof_H 	H 	0.8417	0.8142	0.5403	0.26
Mof_O 	O 	0.7524	0.7147	0.082	-0.534
Mof_H 	H 	0.7526	0.6871	0.0817	0.205
Mof_C 	C 	0.98	0.5485	0.962	-0.079
Mof_H 	H 	0.9415	0.5448	0.8044	0.029
Mof_C 	C 	0.918	0.5263	0.124	-0.214
Mof_H 	H 	0.8469	0.5395	0.1175	0.088
Mof_H 	H 	0.9467	0.5321	0.2888	0.097
Mof_C 	C 	0.092	0.5268	0.91	0.152
Mof_H 	H 	0.8601	0.5334	0.0471	-0.017
Mof_H 	H 	0.8776	0.5404	0.7613	-0.036
Mof_O 	O 	0.632	0.2925	0.426	-0.581
Mof_H 	H 	0.6612	0.3161	0.4637	0.243
Mof_O 	O 	0.6293	0.2907	0.079	-0.617
Mof_H 	H 	0.6583	0.3142	0.0403	0.254
Mof_O 	O 	0.7476	0.2147	0.582	-0.545
Mof_H 	H 	0.7474	0.1871	0.5817	0.201
Mof_C 	C 	0.52	0.0485	0.462	-0.035
Mof_H 	H 	0.5585	0.0448	0.3044	0.008
Mof_C 	C 	0.582	0.0263	0.624	-0.275
Mof_H 	H 	0.6531	0.0395	0.6175	0.05
Mof_H 	H 	0.5533	0.0321	0.7888	0.112
Mof_C 	C 	0.408	0.0268	0.41	0.138
Mof_H 	H 	0.6399	0.0334	0.5471	0.038
Mof_H 	H 	0.6224	0.0404	0.2613	-0.036
Mof_O 	O 	0.132	0.7925	0.926	-0.59
Mof_H 	H 	0.1612	0.8161	0.9637	0.238
Mof_O 	O 	0.1293	0.7907	0.579	-0.609
Mof_H 	H 	0.1583	0.8142	0.5403	0.259
Mof_O 	O 	0.2476	0.7147	0.082	-0.533
Mof_H 	H 	0.2474	0.6871	0.0817	0.203
Mof_C 	C 	0.02	0.5485	0.962	0.013
Mof_H 	H 	0.0585	0.5448	0.8044	-0.013
Mof_C 	C 	0.082	0.5263	0.124	-0.329
Mof_H 	H 	0.1531	0.5395	0.1175	0.045
Mof_H 	H 	0.0533	0.5321	0.2888	0.124
Mof_C 	C 	0.908	0.5268	0.91	0.132
Mof_H 	H 	0.1399	0.5334	0.0471	0.06
Mof_H 	H 	0.1224	0.5404	0.7613	-0.035
Mof_O 	O 	0.368	0.2075	0.426	-0.581
Mof_H 	H 	0.3388	0.1839	0.4637	0.243
Mof_O 	O 	0.3707	0.2093	0.079	-0.617
Mof_H 	H 	0.3417	0.1858	0.0403	0.254
Mof_O 	O 	0.2524	0.2853	0.582	-0.544
Mof_H 	H 	0.2526	0.3129	0.5817	0.199
Mof_C 	C 	0.48	0.4515	0.462	-0.035
Mof_H 	H 	0.4415	0.4552	0.3044	0.008
Mof_C 	C 	0.418	0.4737	0.624	-0.276
Mof_H 	H 	0.3469	0.4605	0.6175	0.049
Mof_H 	H 	0.4467	0.4679	0.7888	0.112
Mof_C 	C 	0.592	0.4732	0.41	0.138
Mof_H 	H 	0.3601	0.4666	0.5471	0.039
Mof_H 	H 	0.3776	0.4596	0.2613	-0.036
Mof_O 	O 	0.868	0.7075	0.926	-0.581
Mof_H 	H 	0.8388	0.6839	0.9637	0.238
Mof_O 	O 	0.8707	0.7093	0.579	-0.599
Mof_H 	H 	0.8417	0.6858	0.5403	0.26
Mof_O 	O 	0.7524	0.7853	0.082	-0.534
Mof_H 	H 	0.7526	0.8129	0.0817	0.205
Mof_C 	C 	0.98	0.9515	0.962	-0.08
Mof_H 	H 	0.9415	0.9552	0.8044	0.029
Mof_C 	C 	0.918	0.9737	0.124	-0.212
Mof_H 	H 	0.8469	0.9605	0.1175	0.089
Mof_H 	H 	0.9467	0.9679	0.2888	0.097
Mof_C 	C 	0.092	0.9732	0.91	0.152
Mof_H 	H 	0.8601	0.9666	0.0471	-0.019
Mof_H 	H 	0.8776	0.9596	0.7613	-0.036
Mof_O 	O 	0.368	0.7925	0.574	-0.581
Mof_H 	H 	0.3388	0.8161	0.5363	0.243
Mof_O 	O 	0.3707	0.7907	0.921	-0.617
Mof_H 	H 	0.3417	0.8142	0.9597	0.254
Mof_O 	O 	0.2524	0.7147	0.418	-0.544
Mof_H 	H 	0.2526	0.6871	0.4183	0.199
Mof_C 	C 	0.48	0.5485	0.538	-0.035
Mof_H 	H 	0.4415	0.5448	0.6956	0.008
Mof_C 	C 	0.418	0.5263	0.376	-0.276
Mof_H 	H 	0.3469	0.5395	0.3825	0.049
Mof_H 	H 	0.4467	0.5321	0.2112	0.112
Mof_C 	C 	0.592	0.5268	0.59	0.138
Mof_H 	H 	0.3601	0.5334	0.4529	0.039
Mof_H 	H 	0.3776	0.5404	0.7387	-0.036
Mof_O 	O 	0.868	0.2925	0.074	-0.581
Mof_H 	H 	0.8388	0.3161	0.0363	0.238
Mof_O 	O 	0.8707	0.2907	0.421	-0.599
Mof_H 	H 	0.8417	0.3142	0.4597	0.26
Mof_O 	O 	0.7524	0.2147	0.918	-0.534
Mof_H 	H 	0.7526	0.1871	0.9183	0.205
Mof_C 	C 	0.98	0.0485	0.038	-0.08
Mof_H 	H 	0.9415	0.0448	0.1956	0.029
Mof_C 	C 	0.918	0.0263	0.876	-0.212
Mof_H 	H 	0.8469	0.0395	0.8825	0.089
Mof_H 	H 	0.9467	0.0321	0.7112	0.097
Mof_C 	C 	0.092	0.0268	0.09	0.152
Mof_H 	H 	0.8601	0.0334	0.9529	-0.019
Mof_H 	H 	0.8776	0.0404	0.2387	-0.036
Mof_O 	O 	0.632	0.7075	0.574	-0.581
Mof_H 	H 	0.6612	0.6839	0.5363	0.243
Mof_O 	O 	0.6293	0.7093	0.921	-0.617
Mof_H 	H 	0.6583	0.6858	0.9597	0.254
Mof_O 	O 	0.7476	0.7853	0.418	-0.545
Mof_H 	H 	0.7474	0.8129	0.4183	0.201
Mof_C 	C 	0.52	0.9515	0.538	-0.035
Mof_H 	H 	0.5585	0.9552	0.6956	0.008
Mof_C 	C 	0.582	0.9737	0.376	-0.275
Mof_H 	H 	0.6531	0.9605	0.3825	0.05
Mof_H 	H 	0.5533	0.9679	0.2112	0.112
Mof_C 	C 	0.408	0.9732	0.59	0.138
Mof_H 	H 	0.6399	0.9666	0.4529	0.038
Mof_H 	H 	0.6224	0.9596	0.7387	-0.036
Mof_O 	O 	0.132	0.2075	0.074	-0.59
Mof_H 	H 	0.1612	0.1839	0.0363	0.238
Mof_O 	O 	0.1293	0.2093	0.421	-0.609
Mof_H 	H 	0.1583	0.1858	0.4597	0.259
Mof_O 	O 	0.2476	0.2853	0.918	-0.533
Mof_H 	H 	0.2474	0.3129	0.9183	0.203
Mof_C 	C 	0.02	0.4515	0.038	0.013
Mof_H 	H 	0.0585	0.4552	0.1956	-0.013
Mof_C 	C 	0.082	0.4737	0.876	-0.329
Mof_H 	H 	0.1531	0.4605	0.8825	0.045
Mof_H 	H 	0.0533	0.4679	0.7112	0.124
Mof_C 	C 	0.908	0.4732	0.09	0.132
Mof_H 	H 	0.1399	0.4666	0.9529	0.06
Mof_H 	H 	0.1224	0.4596	0.2387	-0.035
Mof_Co	Co	0.37561	0.75	0.2454	1.308
Mof_Co	Co	0.87561	0.25	0.7454	1.314
Mof_Co	Co	0.62439	0.75	0.2454	1.308
Mof_Co	Co	0.12439	0.25	0.7454	1.308
Mof_Co	Co	0.62439	0.25	0.7546	1.308
Mof_Co	Co	0.12439	0.75	0.2546	1.308
Mof_Co	Co	0.37561	0.25	0.7546	1.308
Mof_Co	Co	0.87561	0.75	0.2546	1.314
Mof_Co	Co	0.25	0.75	0.75	1.304
Mof_Co	Co	0.75	0.75	0.75	1.303
Mof_Co	Co	0.75	0.25	0.25	1.303
Mof_Co	Co	0.25	0.25	0.25	1.304
Mof_Co	Co	0.5	0.80909	0.7418	1.258
Mof_O 	O 	0.5	0.7946	0.103	-0.482
Mof_H 	H 	0.5	0.8182	0.1796	0.109
Mof_O 	O 	0.5	0.7897	0.386	-0.614
Mof_H 	H 	0.5	0.8131	0.3067	0.309
Mof_O 	O 	0.5	0.8788	0.7347	-0.434
Mof_O 	O 	0.5	0.88	0.33	-0.358
Mof_C 	C 	0.5	0.8992	0.523	0.331
Mof_Co	Co	-2.85225e-33	0.30909	0.2418	1.253
Mof_O 	O 	4.2258e-33	0.2946	0.603	-0.506
Mof_H 	H 	7.59573e-33	0.3182	0.6796	0.115
Mof_O 	O 	-1.80485e-33	0.2897	0.886	-0.606
Mof_H 	H 	-1.93378e-33	0.3131	0.8067	0.302
Mof_O 	O 	-6.92052e-33	0.3788	0.2347	-0.434
Mof_O 	O 	-5.14128e-33	0.38	0.83	-0.351
Mof_C 	C 	-3.71508e-33	0.3992	0.023	0.303
Mof_Co	Co	0.5	0.69091	0.7418	1.258
Mof_O 	O 	0.5	0.7054	0.103	-0.482
Mof_H 	H 	0.5	0.6818	0.1796	0.109
Mof_O 	O 	0.5	0.7103	0.386	-0.614
Mof_H 	H 	0.5	0.6869	0.3067	0.309
Mof_O 	O 	0.5	0.6212	0.7347	-0.434
Mof_O 	O 	0.5	0.62	0.33	-0.358
Mof_C 	C 	0.5	0.6008	0.523	0.331
Mof_Co	Co	-2.85225e-33	0.19091	0.2418	1.253
Mof_O 	O 	-2.26497e-33	0.2054	0.603	-0.506
Mof_H 	H 	-2.14043e-33	0.1818	0.6796	0.115
Mof_O 	O 	-1.80485e-33	0.2103	0.886	-0.606
Mof_H 	H 	-5.17917e-33	0.1869	0.8067	0.302
Mof_O 	O 	-4.29749e-34	0.1212	0.2347	-0.434
Mof_O 	O 	-1.8959e-33	0.12	0.83	-0.351
Mof_C 	C 	-4.69696e-34	0.1008	0.023	0.303
Mof_Co	Co	0.5	0.30909	0.2582	1.258
Mof_O 	O 	0.5	0.2946	0.897	-0.482
Mof_H 	H 	0.5	0.3182	0.8204	0.109
Mof_O 	O 	0.5	0.2897	0.614	-0.614
Mof_H 	H 	0.5	0.3131	0.6933	0.309
Mof_O 	O 	0.5	0.3788	0.2653	-0.434
Mof_O 	O 	0.5	0.38	0.67	-0.358
Mof_C 	C 	0.5	0.3992	0.477	0.331
Mof_Co	Co	7.72353e-33	0.80909	0.7582	1.253
Mof_O 	O 	-2.59991e-33	0.7946	0.397	-0.506
Mof_H 	H 	-1.73287e-32	0.8182	0.3204	0.115
Mof_O 	O 	-3.87138e-33	0.7897	0.114	-0.606
Mof_H 	H 	-1.34786e-32	0.8131	0.1933	0.302
Mof_O 	O 	-8.49187e-33	0.8788	0.7653	-0.434
Mof_O 	O 	9.20122e-33	0.88	0.17	-0.351
Mof_C 	C 	1.5885e-33	0.8992	0.977	0.303
Mof_Co	Co	0.5	0.19091	0.2582	1.258
Mof_O 	O 	0.5	0.2054	0.897	-0.482
Mof_H 	H 	0.5	0.1818	0.8204	0.109
Mof_O 	O 	0.5	0.2103	0.614	-0.614
Mof_H 	H 	0.5	0.1869	0.6933	0.309
Mof_O 	O 	0.5	0.1212	0.2653	-0.434
Mof_O 	O 	0.5	0.12	0.67	-0.358
Mof_C 	C 	0.5	0.1008	0.477	0.331
Mof_Co	Co	7.72353e-33	0.69091	0.7582	1.253
Mof_O 	O 	-1.55815e-32	0.7054	0.397	-0.506
Mof_H 	H 	-4.34715e-33	0.6818	0.3204	0.115
Mof_O 	O 	-3.87138e-33	0.7103	0.114	-0.606
Mof_H 	H 	-2.64602e-32	0.6869	0.1933	0.302
Mof_O 	O 	4.48968e-33	0.6212	0.7653	-0.434
Mof_O 	O 	9.20122e-33	0.62	0.17	-0.351
Mof_C 	C 	1.5885e-33	0.6008	0.977	0.303
_end
