data_functionalizedCrystal
_audit_creation_method	'EQeq! by Chris Wilmer'
_symmetry_space_group_name_H-M	'P1'
_symmetry_Int_Tables_number	1
_symmetry_cell_setting	triclinic
loop_
_symmetry_equiv_pos_as_xyz
  x,y,z
_cell_length_a	7.621
_cell_length_b	9.634
_cell_length_c	10.5
_cell_angle_alpha	106.409
_cell_angle_beta	105.273
_cell_angle_gamma	100.88
loop_
_atom_site_label
_atom_site_type_symbol
_atom_site_fract_x
_atom_site_fract_y
_atom_site_fract_z
_atom_site_charge
Mof_Ho	Ho	0.75333	0.96738	0.54823	1.991
Mof_Ho	Ho	0.24667	0.03262	0.45177	1.991
Mof_H 	H 	0.5379	0.8004	0.0482	0.178
Mof_H 	H 	0.8158	0.4888	0.9638	0.182
Mof_H 	H 	0.5484	0.6228	0.654	0.187
Mof_H 	H 	0.3638	0.876	0.8775	0.194
Mof_H 	H 	0.2614	0.7367	0.7329	0.185
Mof_H 	H 	0.6355	0.6773	0.2159	0.195
Mof_H 	H 	0.7674	0.5684	0.1908	0.185
Mof_H 	H 	0.8504	0.3975	0.7356	0.194
Mof_H 	H 	0.7753	0.4707	0.6201	0.181
Mof_H 	H 	0.4621	0.1996	0.9518	0.178
Mof_H 	H 	0.1842	0.5112	0.0362	0.182
Mof_H 	H 	0.4516	0.3772	0.346	0.187
Mof_H 	H 	0.6362	0.124	0.1225	0.194
Mof_H 	H 	0.7386	0.2633	0.2671	0.185
Mof_H 	H 	0.3645	0.3227	0.7841	0.195
Mof_H 	H 	0.2326	0.4316	0.8092	0.185
Mof_H 	H 	0.1496	0.6025	0.2644	0.194
Mof_H 	H 	0.2247	0.5293	0.3799	0.181
Mof_C 	C 	0.5222	0.7261	0.8448	0.422
Mof_C 	C 	0.5775	0.7342	0.983	-0.482
Mof_C 	C 	0.6885	0.6493	0.0297	0.434
Mof_C 	C 	0.7426	0.5504	0.9335	-0.48
Mof_C 	C 	0.6914	0.5404	0.7943	0.421
Mof_C 	C 	0.5825	0.6285	0.7494	-0.461
Mof_C 	C 	0.3847	0.8114	0.7942	-0.614
Mof_C 	C 	0.4436	0.9091	0.7148	0.587
Mof_C 	C 	0.743	0.6633	0.1823	-0.585
Mof_C 	C 	0.9172	0.7938	0.275	0.497
Mof_C 	C 	0.7399	0.4253	0.6867	-0.604
Mof_C 	C 	0.5754	0.2858	0.6059	0.552
Mof_C 	C 	0.4778	0.2739	0.1552	0.422
Mof_C 	C 	0.4225	0.2658	0.017	-0.482
Mof_C 	C 	0.3115	0.3507	0.9703	0.434
Mof_C 	C 	0.2574	0.4496	0.0665	-0.48
Mof_C 	C 	0.3086	0.4596	0.2057	0.421
Mof_C 	C 	0.4175	0.3715	0.2506	-0.461
Mof_C 	C 	0.6153	0.1886	0.2058	-0.614
Mof_C 	C 	0.5564	0.0909	0.2852	0.587
Mof_C 	C 	0.257	0.3367	0.8177	-0.585
Mof_C 	C 	0.0828	0.2062	0.725	0.497
Mof_C 	C 	0.2601	0.5747	0.3133	-0.604
Mof_C 	C 	0.4246	0.7142	0.3941	0.552
Mof_O 	O 	0.6077	0.9318	0.7084	-0.553
Mof_O 	O 	0.3147	0.9608	0.6554	-0.535
Mof_O 	O 	0.0439	0.8338	0.2277	-0.47
Mof_O 	O 	0.9367	0.8622	0.4041	-0.636
Mof_O 	O 	0.4115	0.2962	0.5585	-0.531
Mof_O 	O 	0.6007	0.155	0.5834	-0.634
Mof_O 	O 	0.3923	0.0682	0.2916	-0.553
Mof_O 	O 	0.6853	0.0392	0.3446	-0.535
Mof_O 	O 	0.9561	0.1662	0.7723	-0.47
Mof_O 	O 	0.0633	0.1378	0.5959	-0.636
Mof_O 	O 	0.5885	0.7038	0.4415	-0.531
Mof_O 	O 	0.3993	0.845	0.4166	-0.634
_end
