data_functionalizedCrystal
_audit_creation_method	'EQeq! by Chris Wilmer'
_symmetry_space_group_name_H-M	'P1'
_symmetry_Int_Tables_number	1
_symmetry_cell_setting	triclinic
loop_
_symmetry_equiv_pos_as_xyz
  x,y,z
_cell_length_a	17.221
_cell_length_b	17.221
_cell_length_c	40.9649
_cell_angle_alpha	90
_cell_angle_beta	90
_cell_angle_gamma	90
loop_
_atom_site_label
_atom_site_type_symbol
_atom_site_fract_x
_atom_site_fract_y
_atom_site_fract_z
_atom_site_charge
Mof_N 	N 	0.9391	0.8102	0.12971	-0.276
Mof_C 	C 	0.8614	0.8162	0.1307	0.163
Mof_H 	H 	0.8352	0.7916	0.1477	-0.053
Mof_C 	C 	0.8187	0.8562	0.1084	-0.307
Mof_H 	H 	0.765	0.8585	0.1104	0.124
Mof_C 	C 	0.8556	0.8935	0.08261	0.279
Mof_C 	C 	0.9355	0.8903	0.0818	-0.344
Mof_H 	H 	0.9625	0.9169	0.0656	0.165
Mof_C 	C 	0.9759	0.8483	0.10486	0.275
Mof_H 	H 	0.0297	0.8457	0.1035	-0.119
Mof_C 	C 	0.8082	0.9395	0.0575	-0.424
Mof_H 	H 	0.7806	0.9806	0.0688	0.143
Mof_H 	H 	0.8437	0.9636	0.0422	0.149
Mof_C 	C 	0.7502	0.8915	0.0386	0.209
Mof_H 	H 	0.7148	0.8666	0.0537	-0.043
Mof_H 	H 	0.7774	0.8511	0.0267	-0.04
Mof_C 	C 	0.7039	0.9405	0.0147	-0.411
Mof_H 	H 	0.6712	0.9759	0.0269	0.138
Mof_H 	H 	0.7397	0.9714	0.0018	0.138
Mof_N 	N 	0.563	0.8064	0.94887	-0.265
Mof_C 	C 	0.6409	0.804	0.9477	0.136
Mof_H 	H 	0.6646	0.7727	0.9321	-0.048
Mof_C 	C 	0.6873	0.8465	0.9689	-0.27
Mof_H 	H 	0.7411	0.843	0.9674	0.112
Mof_C 	C 	0.654	0.8937	0.9921	0.247
Mof_C 	C 	0.5736	0.8951	0.9933	-0.272
Mof_H 	H 	0.5485	0.9266	0.0085	0.112
Mof_C 	C 	0.5304	0.8496	0.972	0.143
Mof_H 	H 	0.4766	0.8493	0.9739	-0.047
Mof_N 	N 	0.4391	0.3102	0.62971	-0.26
Mof_C 	C 	0.3614	0.3162	0.6307	0.138
Mof_H 	H 	0.3352	0.2916	0.6477	-0.048
Mof_C 	C 	0.3187	0.3562	0.6084	-0.264
Mof_H 	H 	0.265	0.3585	0.6104	0.107
Mof_C 	C 	0.3556	0.3935	0.58261	0.221
Mof_C 	C 	0.4355	0.3903	0.5818	-0.251
Mof_H 	H 	0.4625	0.4169	0.5656	0.114
Mof_C 	C 	0.4759	0.3483	0.60486	0.125
Mof_H 	H 	0.5297	0.3457	0.6035	-0.033
Mof_C 	C 	0.3082	0.4395	0.5575	-0.369
Mof_H 	H 	0.2806	0.4806	0.5688	0.126
Mof_H 	H 	0.3437	0.4636	0.5422	0.13
Mof_C 	C 	0.2502	0.3915	0.5386	0.157
Mof_H 	H 	0.2148	0.3666	0.5537	-0.03
Mof_H 	H 	0.2774	0.3511	0.5267	-0.026
Mof_C 	C 	0.2039	0.4405	0.5147	-0.352
Mof_H 	H 	0.1712	0.4759	0.5269	0.117
Mof_H 	H 	0.2397	0.4714	0.5018	0.12
Mof_N 	N 	0.063	0.3064	0.44887	-0.242
Mof_C 	C 	0.1409	0.304	0.4477	0.109
Mof_H 	H 	0.1646	0.2727	0.4321	-0.04
Mof_C 	C 	0.1873	0.3465	0.4689	-0.227
Mof_H 	H 	0.2411	0.343	0.4674	0.095
Mof_C 	C 	0.154	0.3937	0.4921	0.185
Mof_C 	C 	0.0736	0.3951	0.4933	-0.181
Mof_H 	H 	0.0485	0.4266	0.5085	0.063
Mof_C 	C 	0.0304	0.3496	0.472	-0.007
Mof_H 	H 	0.9766	0.3493	0.4739	0.043
Mof_N 	N 	0.5609	0.1898	0.62971	-0.262
Mof_C 	C 	0.6386	0.1838	0.6307	0.145
Mof_H 	H 	0.6648	0.2084	0.6477	-0.047
Mof_C 	C 	0.6813	0.1438	0.6084	-0.276
Mof_H 	H 	0.735	0.1415	0.6104	0.118
Mof_C 	C 	0.6444	0.1065	0.58261	0.237
Mof_C 	C 	0.5645	0.1097	0.5818	-0.262
Mof_H 	H 	0.5375	0.0831	0.5656	0.118
Mof_C 	C 	0.5241	0.1517	0.60486	0.131
Mof_H 	H 	0.4703	0.1543	0.6035	-0.035
Mof_C 	C 	0.6918	0.0605	0.5575	-0.402
Mof_H 	H 	0.7194	0.0194	0.5688	0.139
Mof_H 	H 	0.6563	0.0364	0.5422	0.14
Mof_C 	C 	0.7498	0.1085	0.5386	0.21
Mof_H 	H 	0.7852	0.1334	0.5537	-0.038
Mof_H 	H 	0.7226	0.1489	0.5267	-0.041
Mof_C 	C 	0.7961	0.0595	0.5147	-0.437
Mof_H 	H 	0.8288	0.0241	0.5269	0.151
Mof_H 	H 	0.7603	0.0286	0.5018	0.146
Mof_N 	N 	0.937	0.1936	0.44887	-0.279
Mof_C 	C 	0.8591	0.196	0.4477	0.157
Mof_H 	H 	0.8354	0.2273	0.4321	-0.051
Mof_C 	C 	0.8127	0.1535	0.4689	-0.301
Mof_H 	H 	0.7589	0.157	0.4674	0.121
Mof_C 	C 	0.846	0.1063	0.4921	0.293
Mof_C 	C 	0.9264	0.1049	0.4933	-0.352
Mof_H 	H 	0.9515	0.0734	0.5085	0.157
Mof_C 	C 	0.9696	0.1504	0.472	0.286
Mof_H 	H 	0.0234	0.1507	0.4739	-0.133
Mof_N 	N 	0.0609	0.6898	0.12971	-0.241
Mof_C 	C 	0.1386	0.6838	0.1307	0.118
Mof_H 	H 	0.1648	0.7084	0.1477	-0.041
Mof_C 	C 	0.1813	0.6438	0.1084	-0.232
Mof_H 	H 	0.235	0.6415	0.1104	0.1
Mof_C 	C 	0.1444	0.6065	0.08261	0.178
Mof_C 	C 	0.0645	0.6097	0.0818	-0.168
Mof_H 	H 	0.0375	0.5831	0.0656	0.068
Mof_C 	C 	0.0241	0.6517	0.10486	-0.019
Mof_H 	H 	0.9703	0.6543	0.1035	0.053
Mof_C 	C 	0.1918	0.5605	0.0575	-0.346
Mof_H 	H 	0.2194	0.5194	0.0688	0.122
Mof_H 	H 	0.1563	0.5364	0.0422	0.121
Mof_C 	C 	0.2498	0.6085	0.0386	0.158
Mof_H 	H 	0.2852	0.6334	0.0537	-0.026
Mof_H 	H 	0.2226	0.6489	0.0267	-0.027
Mof_C 	C 	0.2961	0.5595	0.0147	-0.378
Mof_H 	H 	0.3288	0.5241	0.0269	0.129
Mof_H 	H 	0.2603	0.5286	0.0018	0.128
Mof_N 	N 	0.437	0.6936	0.94887	-0.263
Mof_C 	C 	0.3591	0.696	0.9477	0.13
Mof_H 	H 	0.3354	0.7273	0.9321	-0.046
Mof_C 	C 	0.3127	0.6535	0.9689	-0.259
Mof_H 	H 	0.2589	0.657	0.9674	0.105
Mof_C 	C 	0.346	0.6063	0.9921	0.232
Mof_C 	C 	0.4264	0.6049	0.9933	-0.262
Mof_H 	H 	0.4515	0.5734	0.0085	0.108
Mof_C 	C 	0.4696	0.6504	0.972	0.137
Mof_H 	H 	0.5234	0.6507	0.9739	-0.046
Mof_N 	N 	0.9398	0.1891	0.37971	-0.246
Mof_C 	C 	0.9338	0.1114	0.3807	0.145
Mof_H 	H 	0.9584	0.0852	0.3977	-0.034
Mof_C 	C 	0.8938	0.0687	0.3584	-0.26
Mof_H 	H 	0.8915	0.015	0.3604	0.116
Mof_C 	C 	0.8565	0.1056	0.33261	0.226
Mof_C 	C 	0.8597	0.1855	0.3318	-0.251
Mof_H 	H 	0.8331	0.2125	0.3156	0.115
Mof_C 	C 	0.9017	0.2259	0.35486	0.133
Mof_H 	H 	0.9043	0.2797	0.3535	-0.025
Mof_C 	C 	0.8105	0.0582	0.3075	-0.371
Mof_H 	H 	0.7694	0.0306	0.3188	0.129
Mof_H 	H 	0.7864	0.0937	0.2922	0.131
Mof_C 	C 	0.8585	0.0002	0.2886	0.162
Mof_H 	H 	0.8834	0.9648	0.3037	-0.019
Mof_H 	H 	0.8989	0.0274	0.2767	-0.019
Mof_C 	C 	0.8095	0.9539	0.2647	-0.379
Mof_H 	H 	0.7741	0.9212	0.2769	0.13
Mof_H 	H 	0.7786	0.9897	0.2518	0.129
Mof_N 	N 	0.9436	0.813	0.19887	-0.248
Mof_C 	C 	0.946	0.8909	0.1977	0.136
Mof_H 	H 	0.9773	0.9146	0.1821	-0.031
Mof_C 	C 	0.9035	0.9373	0.2189	-0.256
Mof_H 	H 	0.907	0.9911	0.2174	0.114
Mof_C 	C 	0.8563	0.904	0.2421	0.236
Mof_C 	C 	0.8549	0.8236	0.2433	-0.259
Mof_H 	H 	0.8234	0.7985	0.2585	0.111
Mof_C 	C 	0.9004	0.7804	0.222	0.142
Mof_H 	H 	0.9007	0.7266	0.2239	-0.034
Mof_N 	N 	0.4398	0.6891	0.87971	-0.261
Mof_C 	C 	0.4338	0.6114	0.8807	0.141
Mof_H 	H 	0.4584	0.5852	0.8977	-0.047
Mof_C 	C 	0.3938	0.5687	0.8584	-0.269
Mof_H 	H 	0.3915	0.515	0.8604	0.112
Mof_C 	C 	0.3565	0.6056	0.83261	0.228
Mof_C 	C 	0.3597	0.6855	0.8318	-0.256
Mof_H 	H 	0.3331	0.7125	0.8156	0.116
Mof_C 	C 	0.4017	0.7259	0.85486	0.128
Mof_H 	H 	0.4043	0.7797	0.8535	-0.034
Mof_C 	C 	0.3105	0.5582	0.8075	-0.383
Mof_H 	H 	0.2694	0.5306	0.8188	0.131
Mof_H 	H 	0.2864	0.5937	0.7922	0.134
Mof_C 	C 	0.3585	0.5002	0.7886	0.181
Mof_H 	H 	0.3834	0.4648	0.8037	-0.034
Mof_H 	H 	0.3989	0.5274	0.7767	-0.033
Mof_C 	C 	0.3095	0.4539	0.7647	-0.391
Mof_H 	H 	0.2741	0.4212	0.7769	0.131
Mof_H 	H 	0.2786	0.4897	0.7518	0.131
Mof_N 	N 	0.4436	0.313	0.69887	-0.264
Mof_C 	C 	0.446	0.3909	0.6977	0.132
Mof_H 	H 	0.4773	0.4146	0.6821	-0.046
Mof_C 	C 	0.4035	0.4373	0.7189	-0.263
Mof_H 	H 	0.407	0.4911	0.7174	0.108
Mof_C 	C 	0.3563	0.404	0.7421	0.237
Mof_C 	C 	0.3549	0.3236	0.7433	-0.266
Mof_H 	H 	0.3234	0.2985	0.7585	0.109
Mof_C 	C 	0.4004	0.2804	0.722	0.139
Mof_H 	H 	0.4007	0.2266	0.7239	-0.046
Mof_N 	N 	0.5602	0.8109	0.87971	-0.261
Mof_C 	C 	0.5662	0.8886	0.8807	0.141
Mof_H 	H 	0.5416	0.9148	0.8977	-0.047
Mof_C 	C 	0.6062	0.9313	0.8584	-0.27
Mof_H 	H 	0.6085	0.985	0.8604	0.113
Mof_C 	C 	0.6435	0.8944	0.83261	0.229
Mof_C 	C 	0.6403	0.8145	0.8318	-0.257
Mof_H 	H 	0.6669	0.7875	0.8156	0.116
Mof_C 	C 	0.5983	0.7741	0.85486	0.128
Mof_H 	H 	0.5957	0.7203	0.8535	-0.034
Mof_C 	C 	0.6895	0.9418	0.8075	-0.385
Mof_H 	H 	0.7306	0.9694	0.8188	0.133
Mof_H 	H 	0.7136	0.9063	0.7922	0.135
Mof_C 	C 	0.6415	0.9998	0.7886	0.183
Mof_H 	H 	0.6166	0.0352	0.8037	-0.033
Mof_H 	H 	0.6011	0.9726	0.7767	-0.034
Mof_C 	C 	0.6905	0.0461	0.7647	-0.396
Mof_H 	H 	0.7259	0.0788	0.7769	0.136
Mof_H 	H 	0.7214	0.0103	0.7518	0.135
Mof_N 	N 	0.5564	0.187	0.69887	-0.264
Mof_C 	C 	0.554	0.1091	0.6977	0.134
Mof_H 	H 	0.5227	0.0854	0.6821	-0.047
Mof_C 	C 	0.5965	0.0627	0.7189	-0.265
Mof_H 	H 	0.593	0.0089	0.7174	0.109
Mof_C 	C 	0.6437	0.096	0.7421	0.241
Mof_C 	C 	0.6451	0.1764	0.7433	-0.267
Mof_H 	H 	0.6766	0.2015	0.7585	0.111
Mof_C 	C 	0.5996	0.2196	0.722	0.141
Mof_H 	H 	0.5993	0.2734	0.7239	-0.046
Mof_N 	N 	0.0602	0.3109	0.37971	-0.269
Mof_C 	C 	0.0662	0.3886	0.3807	0.136
Mof_H 	H 	0.0416	0.4148	0.3977	-0.058
Mof_C 	C 	0.1062	0.4313	0.3584	-0.278
Mof_H 	H 	0.1085	0.485	0.3604	0.108
Mof_C 	C 	0.1435	0.3944	0.33261	0.231
Mof_C 	C 	0.1403	0.3145	0.3318	-0.26
Mof_H 	H 	0.1669	0.2875	0.3156	0.117
Mof_C 	C 	0.0983	0.2741	0.35486	0.123
Mof_H 	H 	0.0957	0.2203	0.3535	-0.041
Mof_C 	C 	0.1895	0.4418	0.3075	-0.397
Mof_H 	H 	0.2306	0.4694	0.3188	0.136
Mof_H 	H 	0.2136	0.4063	0.2922	0.138
Mof_C 	C 	0.1415	0.4998	0.2886	0.201
Mof_H 	H 	0.1166	0.5352	0.3037	-0.048
Mof_H 	H 	0.1011	0.4726	0.2767	-0.047
Mof_C 	C 	0.1905	0.5461	0.2647	-0.408
Mof_H 	H 	0.2259	0.5788	0.2769	0.136
Mof_H 	H 	0.2214	0.5103	0.2518	0.137
Mof_N 	N 	0.0564	0.687	0.19887	-0.273
Mof_C 	C 	0.054	0.6091	0.1977	0.13
Mof_H 	H 	0.0227	0.5854	0.1821	-0.06
Mof_C 	C 	0.0965	0.5627	0.2189	-0.272
Mof_H 	H 	0.093	0.5089	0.2174	0.103
Mof_C 	C 	0.1437	0.596	0.2421	0.242
Mof_C 	C 	0.1451	0.6764	0.2433	-0.274
Mof_H 	H 	0.1766	0.7015	0.2585	0.109
Mof_C 	C 	0.0996	0.7196	0.222	0.137
Mof_H 	H 	0.0993	0.7734	0.2239	-0.056
Mof_Cu	Cu	1.80869e-32	0.75	0.16412	0.823
Mof_Cu	Cu	0.5	0.25	0.66412	0.847
Mof_Cu	Cu	-4.61802e-33	0.25	0.41412	0.824
Mof_Cu	Cu	0.5	0.75	0.91412	0.847
Mof_N 	N 	0.9369	0.308	0.25561	-0.276
Mof_C 	C 	0.8594	0.3116	0.25379	0.157
Mof_H 	H 	0.8347	0.2836	0.2374	-0.051
Mof_C 	C 	0.8142	0.3544	0.27486	-0.3
Mof_H 	H 	0.7605	0.355	0.2724	0.119
Mof_C 	C 	0.8486	0.3962	0.29958	0.278
Mof_C 	C 	0.9286	0.3925	0.30222	-0.339
Mof_H 	H 	0.9541	0.419	0.3189	0.162
Mof_C 	C 	0.9704	0.3489	0.27978	0.277
Mof_H 	H 	0.0242	0.3479	0.2816	-0.119
Mof_C 	C 	0.7989	0.4431	0.323	-0.412
Mof_H 	H 	0.7651	0.477	0.3105	0.14
Mof_H 	H 	0.8323	0.4755	0.3363	0.145
Mof_C 	C 	0.7491	0.3917	0.3454	0.19
Mof_H 	H 	0.7198	0.355	0.3323	-0.037
Mof_H 	H 	0.7825	0.3624	0.36	-0.036
Mof_C 	C 	0.6938	0.4412	0.36523	-0.396
Mof_H 	H 	0.7234	0.4814	0.3762	0.137
Mof_H 	H 	0.6578	0.4666	0.3505	0.139
Mof_N 	N 	0.562	0.3091	0.43574	-0.259
Mof_C 	C 	0.64	0.3135	0.43757	0.127
Mof_H 	H 	0.6654	0.2871	0.4542	-0.042
Mof_C 	C 	0.6836	0.3562	0.41543	-0.259
Mof_H 	H 	0.7374	0.3578	0.4176	0.108
Mof_C 	C 	0.6483	0.3964	0.39024	0.231
Mof_C 	C 	0.5673	0.3912	0.38875	-0.255
Mof_H 	H 	0.5402	0.4165	0.3722	0.116
Mof_C 	C 	0.5272	0.3482	0.41197	0.137
Mof_H 	H 	0.4733	0.3466	0.4108	-0.037
Mof_N 	N 	0.4369	0.808	0.75561	-0.261
Mof_C 	C 	0.3594	0.8116	0.75379	0.132
Mof_H 	H 	0.3347	0.7836	0.7374	-0.046
Mof_C 	C 	0.3142	0.8544	0.77486	-0.258
Mof_H 	H 	0.2605	0.855	0.7724	0.103
Mof_C 	C 	0.3486	0.8962	0.79958	0.218
Mof_C 	C 	0.4286	0.8925	0.80222	-0.249
Mof_H 	H 	0.4541	0.919	0.8189	0.111
Mof_C 	C 	0.4704	0.8489	0.77978	0.128
Mof_H 	H 	0.5242	0.8479	0.7816	-0.034
Mof_C 	C 	0.2989	0.9431	0.823	-0.356
Mof_H 	H 	0.2651	0.977	0.8105	0.122
Mof_H 	H 	0.3323	0.9755	0.8363	0.123
Mof_C 	C 	0.2491	0.8917	0.8454	0.14
Mof_H 	H 	0.2198	0.855	0.8323	-0.023
Mof_H 	H 	0.2825	0.8624	0.86	-0.022
Mof_C 	C 	0.1938	0.9412	0.86523	-0.341
Mof_H 	H 	0.2234	0.9814	0.8762	0.12
Mof_H 	H 	0.1578	0.9666	0.8505	0.121
Mof_N 	N 	0.062	0.8091	0.93574	-0.236
Mof_C 	C 	0.14	0.8135	0.93757	0.103
Mof_H 	H 	0.1654	0.7871	0.9542	-0.034
Mof_C 	C 	0.1836	0.8562	0.91543	-0.219
Mof_H 	H 	0.2374	0.8578	0.9176	0.092
Mof_C 	C 	0.1483	0.8964	0.89024	0.175
Mof_C 	C 	0.0673	0.8912	0.88875	-0.167
Mof_H 	H 	0.0402	0.9165	0.8722	0.068
Mof_C 	C 	0.0272	0.8482	0.91197	-0.01
Mof_H 	H 	0.9733	0.8466	0.9108	0.05
Mof_N 	N 	0.5631	0.692	0.75561	-0.263
Mof_C 	C 	0.6406	0.6884	0.75379	0.137
Mof_H 	H 	0.6653	0.7164	0.7374	-0.047
Mof_C 	C 	0.6858	0.6456	0.77486	-0.268
Mof_H 	H 	0.7395	0.645	0.7724	0.109
Mof_C 	C 	0.6514	0.6038	0.79958	0.231
Mof_C 	C 	0.5714	0.6075	0.80222	-0.258
Mof_H 	H 	0.5459	0.581	0.8189	0.114
Mof_C 	C 	0.5296	0.6511	0.77978	0.133
Mof_H 	H 	0.4758	0.6521	0.7816	-0.035
Mof_C 	C 	0.7011	0.5569	0.823	-0.384
Mof_H 	H 	0.7349	0.523	0.8105	0.131
Mof_H 	H 	0.6677	0.5245	0.8363	0.13
Mof_C 	C 	0.7509	0.6083	0.8454	0.186
Mof_H 	H 	0.7802	0.645	0.8323	-0.034
Mof_H 	H 	0.7175	0.6376	0.86	-0.037
Mof_C 	C 	0.8062	0.5588	0.86523	-0.415
Mof_H 	H 	0.7766	0.5186	0.8762	0.14
Mof_H 	H 	0.8422	0.5334	0.8505	0.147
Mof_N 	N 	0.938	0.6909	0.93574	-0.273
Mof_C 	C 	0.86	0.6865	0.93757	0.145
Mof_H 	H 	0.8346	0.7129	0.9542	-0.045
Mof_C 	C 	0.8164	0.6438	0.91543	-0.287
Mof_H 	H 	0.7626	0.6422	0.9176	0.115
Mof_C 	C 	0.8517	0.6036	0.89024	0.27
Mof_C 	C 	0.9327	0.6088	0.88875	-0.332
Mof_H 	H 	0.9598	0.5835	0.8722	0.16
Mof_C 	C 	0.9728	0.6518	0.91197	0.279
Mof_H 	H 	0.0267	0.6534	0.9108	-0.12
Mof_N 	N 	0.0631	0.192	0.25561	-0.241
Mof_C 	C 	0.1406	0.1884	0.25379	0.111
Mof_H 	H 	0.1653	0.2164	0.2374	-0.039
Mof_C 	C 	0.1858	0.1456	0.27486	-0.225
Mof_H 	H 	0.2395	0.145	0.2724	0.093
Mof_C 	C 	0.1514	0.1038	0.29958	0.172
Mof_C 	C 	0.0714	0.1075	0.30222	-0.169
Mof_H 	H 	0.0459	0.081	0.3189	0.065
Mof_C 	C 	0.0296	0.1511	0.27978	-0.014
Mof_H 	H 	0.9758	0.1521	0.2816	0.051
Mof_C 	C 	0.2011	0.0569	0.323	-0.328
Mof_H 	H 	0.2349	0.023	0.3105	0.113
Mof_H 	H 	0.1677	0.0245	0.3363	0.109
Mof_C 	C 	0.2509	0.1083	0.3454	0.136
Mof_H 	H 	0.2802	0.145	0.3323	-0.02
Mof_H 	H 	0.2175	0.1376	0.36	-0.023
Mof_C 	C 	0.3062	0.0588	0.36523	-0.361
Mof_H 	H 	0.2766	0.0186	0.3762	0.123
Mof_H 	H 	0.3422	0.0334	0.3505	0.129
Mof_N 	N 	0.438	0.1909	0.43574	-0.257
Mof_C 	C 	0.36	0.1865	0.43757	0.121
Mof_H 	H 	0.3346	0.2129	0.4542	-0.04
Mof_C 	C 	0.3164	0.1438	0.41543	-0.247
Mof_H 	H 	0.2626	0.1422	0.4176	0.1
Mof_C 	C 	0.3517	0.1036	0.39024	0.214
Mof_C 	C 	0.4327	0.1088	0.38875	-0.244
Mof_H 	H 	0.4598	0.0835	0.3722	0.112
Mof_C 	C 	0.4728	0.1518	0.41197	0.132
Mof_H 	H 	0.5267	0.1534	0.4108	-0.035
Mof_N 	N 	0.442	0.1869	0.50561	-0.261
Mof_C 	C 	0.4384	0.1094	0.50379	0.133
Mof_H 	H 	0.4664	0.0847	0.4874	-0.046
Mof_C 	C 	0.3956	0.0642	0.52486	-0.261
Mof_H 	H 	0.395	0.0105	0.5224	0.105
Mof_C 	C 	0.3538	0.0986	0.54958	0.221
Mof_C 	C 	0.3575	0.1786	0.55222	-0.252
Mof_H 	H 	0.331	0.2041	0.5689	0.111
Mof_C 	C 	0.4011	0.2204	0.52978	0.129
Mof_H 	H 	0.4021	0.2742	0.5316	-0.034
Mof_C 	C 	0.3069	0.0489	0.573	-0.364
Mof_H 	H 	0.273	0.0151	0.5605	0.124
Mof_H 	H 	0.2745	0.0823	0.5863	0.123
Mof_C 	C 	0.3583	0.9991	0.5954	0.157
Mof_H 	H 	0.395	0.9698	0.5823	-0.027
Mof_H 	H 	0.3876	0.0325	0.61	-0.028
Mof_C 	C 	0.3088	0.9438	0.61523	-0.374
Mof_H 	H 	0.2686	0.9734	0.6262	0.128
Mof_H 	H 	0.2834	0.9078	0.6005	0.133
Mof_N 	N 	0.4409	0.812	0.68574	-0.258
Mof_C 	C 	0.4365	0.89	0.68757	0.123
Mof_H 	H 	0.4629	0.9154	0.7042	-0.041
Mof_C 	C 	0.3938	0.9336	0.66543	-0.252
Mof_H 	H 	0.3922	0.9874	0.6676	0.103
Mof_C 	C 	0.3536	0.8983	0.64024	0.221
Mof_C 	C 	0.3588	0.8173	0.63875	-0.248
Mof_H 	H 	0.3335	0.7902	0.6222	0.113
Mof_C 	C 	0.4018	0.7772	0.66197	0.134
Mof_H 	H 	0.4034	0.7233	0.6608	-0.036
Mof_N 	N 	0.942	0.6869	0.00561	-0.246
Mof_C 	C 	0.9384	0.6094	0.00379	0.139
Mof_H 	H 	0.9664	0.5847	0.9874	-0.032
Mof_C 	C 	0.8956	0.5642	0.02486	-0.253
Mof_H 	H 	0.895	0.5105	0.0224	0.111
Mof_C 	C 	0.8538	0.5986	0.04958	0.222
Mof_C 	C 	0.8575	0.6786	0.05222	-0.248
Mof_H 	H 	0.831	0.7041	0.0689	0.112
Mof_C 	C 	0.9011	0.7204	0.02978	0.135
Mof_H 	H 	0.9021	0.7742	0.0316	-0.026
Mof_C 	C 	0.8069	0.5489	0.073	-0.356
Mof_H 	H 	0.773	0.5151	0.0605	0.123
Mof_H 	H 	0.7745	0.5823	0.0863	0.123
Mof_C 	C 	0.8583	0.4991	0.0954	0.143
Mof_H 	H 	0.895	0.4698	0.0823	-0.013
Mof_H 	H 	0.8876	0.5325	0.11	-0.015
Mof_C 	C 	0.8088	0.4438	0.11523	-0.364
Mof_H 	H 	0.7686	0.4734	0.1262	0.126
Mof_H 	H 	0.7834	0.4078	0.1005	0.13
Mof_N 	N 	0.9409	0.312	0.18574	-0.242
Mof_C 	C 	0.9365	0.39	0.18757	0.129
Mof_H 	H 	0.9629	0.4154	0.2042	-0.025
Mof_C 	C 	0.8938	0.4336	0.16543	-0.243
Mof_H 	H 	0.8922	0.4874	0.1676	0.11
Mof_C 	C 	0.8536	0.3983	0.14024	0.219
Mof_C 	C 	0.8588	0.3173	0.13875	-0.244
Mof_H 	H 	0.8335	0.2902	0.1222	0.113
Mof_C 	C 	0.9018	0.2772	0.16197	0.138
Mof_H 	H 	0.9034	0.2233	0.1608	-0.027
Mof_N 	N 	0.058	0.8131	0.00561	-0.271
Mof_C 	C 	0.0616	0.8906	0.00379	0.129
Mof_H 	H 	0.0336	0.9153	0.9874	-0.059
Mof_C 	C 	0.1044	0.9358	0.02486	-0.272
Mof_H 	H 	0.105	0.9895	0.0224	0.101
Mof_C 	C 	0.1462	0.9014	0.04958	0.227
Mof_C 	C 	0.1425	0.8214	0.05222	-0.258
Mof_H 	H 	0.169	0.7959	0.0689	0.114
Mof_C 	C 	0.0989	0.7796	0.02978	0.126
Mof_H 	H 	0.0979	0.7258	0.0316	-0.041
Mof_C 	C 	0.1931	0.9511	0.073	-0.382
Mof_H 	H 	0.227	0.9849	0.0605	0.13
Mof_H 	H 	0.2255	0.9177	0.0863	0.13
Mof_C 	C 	0.1417	0.0009	0.0954	0.181
Mof_H 	H 	0.105	0.0302	0.0823	-0.044
Mof_H 	H 	0.1124	0.9675	0.11	-0.043
Mof_C 	C 	0.1912	0.0562	0.11523	-0.391
Mof_H 	H 	0.2314	0.0266	0.1262	0.133
Mof_H 	H 	0.2166	0.0922	0.1005	0.137
Mof_N 	N 	0.0591	0.188	0.18574	-0.267
Mof_C 	C 	0.0635	0.11	0.18757	0.119
Mof_H 	H 	0.0371	0.0846	0.2042	-0.055
Mof_C 	C 	0.1062	0.0664	0.16543	-0.263
Mof_H 	H 	0.1078	0.0126	0.1676	0.098
Mof_C 	C 	0.1464	0.1017	0.14024	0.225
Mof_C 	C 	0.1412	0.1827	0.13875	-0.254
Mof_H 	H 	0.1665	0.2098	0.1222	0.115
Mof_C 	C 	0.0982	0.2228	0.16197	0.13
Mof_H 	H 	0.0966	0.2767	0.1608	-0.042
Mof_N 	N 	0.558	0.3131	0.50561	-0.262
Mof_C 	C 	0.5616	0.3906	0.50379	0.135
Mof_H 	H 	0.5336	0.4153	0.4874	-0.047
Mof_C 	C 	0.6044	0.4358	0.52486	-0.265
Mof_H 	H 	0.605	0.4895	0.5224	0.106
Mof_C 	C 	0.6462	0.4014	0.54958	0.228
Mof_C 	C 	0.6425	0.3214	0.55222	-0.255
Mof_H 	H 	0.669	0.2959	0.5689	0.115
Mof_C 	C 	0.5989	0.2796	0.52978	0.132
Mof_H 	H 	0.5979	0.2258	0.5316	-0.035
Mof_C 	C 	0.6931	0.4511	0.573	-0.375
Mof_H 	H 	0.727	0.4849	0.5605	0.129
Mof_H 	H 	0.7255	0.4177	0.5863	0.131
Mof_C 	C 	0.6417	0.5009	0.5954	0.167
Mof_H 	H 	0.605	0.5302	0.5823	-0.03
Mof_H 	H 	0.6124	0.4675	0.61	-0.031
Mof_C 	C 	0.6912	0.5562	0.61523	-0.381
Mof_H 	H 	0.7314	0.5266	0.6262	0.132
Mof_H 	H 	0.7166	0.5922	0.6005	0.135
Mof_N 	N 	0.5591	0.688	0.68574	-0.258
Mof_C 	C 	0.5635	0.61	0.68757	0.124
Mof_H 	H 	0.5371	0.5846	0.7042	-0.041
Mof_C 	C 	0.6062	0.5664	0.66543	-0.254
Mof_H 	H 	0.6078	0.5126	0.6676	0.104
Mof_C 	C 	0.6464	0.6017	0.64024	0.224
Mof_C 	C 	0.6412	0.6827	0.63875	-0.251
Mof_H 	H 	0.6665	0.7098	0.6222	0.114
Mof_C 	C 	0.5982	0.7228	0.66197	0.135
Mof_H 	H 	0.5966	0.7767	0.6608	-0.036
Mof_Cu	Cu	-6.3392e-33	0.25	0.22114	0.821
Mof_Cu	Cu	0.5	0.75	0.72114	0.845
Mof_Cu	Cu	0.5	0.25	0.47114	0.845
Mof_Cu	Cu	8.66158e-33	0.75	0.97114	0.821
Mof_N 	N 	0.0609	0.1898	0.87029	-0.241
Mof_C 	C 	0.1386	0.1838	0.8693	0.118
Mof_H 	H 	0.1648	0.2084	0.8523	-0.041
Mof_C 	C 	0.1813	0.1438	0.8916	-0.233
Mof_H 	H 	0.235	0.1415	0.8896	0.1
Mof_C 	C 	0.1444	0.1065	0.91739	0.179
Mof_C 	C 	0.0645	0.1097	0.9182	-0.169
Mof_H 	H 	0.0375	0.0831	0.9344	0.068
Mof_C 	C 	0.0241	0.1517	0.89514	-0.018
Mof_H 	H 	0.9703	0.1543	0.8965	0.053
Mof_C 	C 	0.1918	0.0605	0.9425	-0.347
Mof_H 	H 	0.2194	0.0194	0.9312	0.122
Mof_H 	H 	0.1563	0.0364	0.9578	0.121
Mof_C 	C 	0.2498	0.1085	0.9614	0.158
Mof_H 	H 	0.2852	0.1334	0.9463	-0.026
Mof_H 	H 	0.2226	0.1489	0.9733	-0.027
Mof_C 	C 	0.2961	0.0595	0.9853	-0.379
Mof_H 	H 	0.3288	0.0241	0.9731	0.129
Mof_H 	H 	0.2603	0.0286	0.9982	0.128
Mof_N 	N 	0.437	0.1936	0.05113	-0.263
Mof_C 	C 	0.3591	0.196	0.0523	0.13
Mof_H 	H 	0.3354	0.2273	0.0679	-0.046
Mof_C 	C 	0.3127	0.1535	0.0311	-0.259
Mof_H 	H 	0.2589	0.157	0.0326	0.105
Mof_C 	C 	0.346	0.1063	0.0079	0.232
Mof_C 	C 	0.4264	0.1049	0.0067	-0.263
Mof_H 	H 	0.4515	0.0734	0.9915	0.109
Mof_C 	C 	0.4696	0.1504	0.028	0.137
Mof_H 	H 	0.5234	0.1507	0.0261	-0.046
Mof_N 	N 	0.5609	0.6898	0.37029	-0.262
Mof_C 	C 	0.6386	0.6838	0.3693	0.145
Mof_H 	H 	0.6648	0.7084	0.3523	-0.047
Mof_C 	C 	0.6813	0.6438	0.3916	-0.276
Mof_H 	H 	0.735	0.6415	0.3896	0.118
Mof_C 	C 	0.6444	0.6065	0.41739	0.237
Mof_C 	C 	0.5645	0.6097	0.4182	-0.262
Mof_H 	H 	0.5375	0.5831	0.4344	0.118
Mof_C 	C 	0.5241	0.6517	0.39514	0.131
Mof_H 	H 	0.4703	0.6543	0.3965	-0.035
Mof_C 	C 	0.6918	0.5605	0.4425	-0.402
Mof_H 	H 	0.7194	0.5194	0.4312	0.139
Mof_H 	H 	0.6563	0.5364	0.4578	0.14
Mof_C 	C 	0.7498	0.6085	0.4614	0.21
Mof_H 	H 	0.7852	0.6334	0.4463	-0.039
Mof_H 	H 	0.7226	0.6489	0.4733	-0.041
Mof_C 	C 	0.7961	0.5595	0.4853	-0.437
Mof_H 	H 	0.8288	0.5241	0.4731	0.151
Mof_H 	H 	0.7603	0.5286	0.4982	0.146
Mof_N 	N 	0.937	0.6936	0.55113	-0.28
Mof_C 	C 	0.8591	0.696	0.5523	0.157
Mof_H 	H 	0.8354	0.7273	0.5679	-0.051
Mof_C 	C 	0.8127	0.6535	0.5311	-0.302
Mof_H 	H 	0.7589	0.657	0.5326	0.122
Mof_C 	C 	0.846	0.6063	0.5079	0.294
Mof_C 	C 	0.9264	0.6049	0.5067	-0.353
Mof_H 	H 	0.9515	0.5734	0.4915	0.157
Mof_C 	C 	0.9696	0.6504	0.528	0.287
Mof_H 	H 	0.0234	0.6507	0.5261	-0.133
Mof_N 	N 	0.4391	0.8102	0.37029	-0.26
Mof_C 	C 	0.3614	0.8162	0.3693	0.138
Mof_H 	H 	0.3352	0.7916	0.3523	-0.048
Mof_C 	C 	0.3187	0.8562	0.3916	-0.264
Mof_H 	H 	0.265	0.8585	0.3896	0.107
Mof_C 	C 	0.3556	0.8935	0.41739	0.221
Mof_C 	C 	0.4355	0.8903	0.4182	-0.251
Mof_H 	H 	0.4625	0.9169	0.4344	0.114
Mof_C 	C 	0.4759	0.8483	0.39514	0.125
Mof_H 	H 	0.5297	0.8457	0.3965	-0.033
Mof_C 	C 	0.3082	0.9395	0.4425	-0.369
Mof_H 	H 	0.2806	0.9806	0.4312	0.127
Mof_H 	H 	0.3437	0.9636	0.4578	0.13
Mof_C 	C 	0.2502	0.8915	0.4614	0.158
Mof_H 	H 	0.2148	0.8666	0.4463	-0.03
Mof_H 	H 	0.2774	0.8511	0.4733	-0.026
Mof_C 	C 	0.2039	0.9405	0.4853	-0.353
Mof_H 	H 	0.1712	0.9759	0.4731	0.117
Mof_H 	H 	0.2397	0.9714	0.4982	0.12
Mof_N 	N 	0.063	0.8064	0.55113	-0.242
Mof_C 	C 	0.1409	0.804	0.5523	0.109
Mof_H 	H 	0.1646	0.7727	0.5679	-0.04
Mof_C 	C 	0.1873	0.8465	0.5311	-0.227
Mof_H 	H 	0.2411	0.843	0.5326	0.095
Mof_C 	C 	0.154	0.8937	0.5079	0.186
Mof_C 	C 	0.0736	0.8951	0.5067	-0.182
Mof_H 	H 	0.0485	0.9266	0.4915	0.063
Mof_C 	C 	0.0304	0.8496	0.528	-0.006
Mof_H 	H 	0.9766	0.8493	0.5261	0.042
Mof_N 	N 	0.9391	0.3102	0.87029	-0.275
Mof_C 	C 	0.8614	0.3162	0.8693	0.164
Mof_H 	H 	0.8352	0.2916	0.8523	-0.052
Mof_C 	C 	0.8187	0.3562	0.8916	-0.307
Mof_H 	H 	0.765	0.3585	0.8896	0.125
Mof_C 	C 	0.8556	0.3935	0.91739	0.28
Mof_C 	C 	0.9355	0.3903	0.9182	-0.345
Mof_H 	H 	0.9625	0.4169	0.9344	0.165
Mof_C 	C 	0.9759	0.3483	0.89514	0.276
Mof_H 	H 	0.0297	0.3457	0.8965	-0.12
Mof_C 	C 	0.8082	0.4395	0.9425	-0.424
Mof_H 	H 	0.7806	0.4806	0.9312	0.143
Mof_H 	H 	0.8437	0.4636	0.9578	0.149
Mof_C 	C 	0.7502	0.3915	0.9614	0.21
Mof_H 	H 	0.7148	0.3666	0.9463	-0.043
Mof_H 	H 	0.7774	0.3511	0.9733	-0.04
Mof_C 	C 	0.7039	0.4405	0.9853	-0.411
Mof_H 	H 	0.6712	0.4759	0.9731	0.138
Mof_H 	H 	0.7397	0.4714	0.9982	0.138
Mof_N 	N 	0.563	0.3064	0.05113	-0.265
Mof_C 	C 	0.6409	0.304	0.0523	0.136
Mof_H 	H 	0.6646	0.2727	0.0679	-0.048
Mof_C 	C 	0.6873	0.3465	0.0311	-0.27
Mof_H 	H 	0.7411	0.343	0.0326	0.112
Mof_C 	C 	0.654	0.3937	0.0079	0.247
Mof_C 	C 	0.5736	0.3951	0.0067	-0.272
Mof_H 	H 	0.5485	0.4266	0.9915	0.112
Mof_C 	C 	0.5304	0.3496	0.028	0.143
Mof_H 	H 	0.4766	0.3493	0.0261	-0.047
Mof_N 	N 	0.0602	0.8109	0.62029	-0.269
Mof_C 	C 	0.0662	0.8886	0.6193	0.136
Mof_H 	H 	0.0416	0.9148	0.6023	-0.058
Mof_C 	C 	0.1062	0.9313	0.6416	-0.277
Mof_H 	H 	0.1085	0.985	0.6396	0.108
Mof_C 	C 	0.1435	0.8944	0.66739	0.23
Mof_C 	C 	0.1403	0.8145	0.6682	-0.26
Mof_H 	H 	0.1669	0.7875	0.6844	0.117
Mof_C 	C 	0.0983	0.7741	0.64514	0.123
Mof_H 	H 	0.0957	0.7203	0.6465	-0.041
Mof_C 	C 	0.1895	0.9418	0.6925	-0.395
Mof_H 	H 	0.2306	0.9694	0.6812	0.135
Mof_H 	H 	0.2136	0.9063	0.7078	0.138
Mof_C 	C 	0.1415	0.9998	0.7114	0.198
Mof_H 	H 	0.1166	0.0352	0.6963	-0.046
Mof_H 	H 	0.1011	0.9726	0.7233	-0.046
Mof_C 	C 	0.1905	0.0461	0.7353	-0.405
Mof_H 	H 	0.2259	0.0788	0.7231	0.136
Mof_H 	H 	0.2214	0.0103	0.7482	0.136
Mof_N 	N 	0.0564	0.187	0.80113	-0.273
Mof_C 	C 	0.054	0.1091	0.8023	0.13
Mof_H 	H 	0.0227	0.0854	0.8179	-0.06
Mof_C 	C 	0.0965	0.0627	0.7811	-0.271
Mof_H 	H 	0.093	0.0089	0.7826	0.103
Mof_C 	C 	0.1437	0.096	0.7579	0.241
Mof_C 	C 	0.1451	0.1764	0.7567	-0.273
Mof_H 	H 	0.1766	0.2015	0.7415	0.108
Mof_C 	C 	0.0996	0.2196	0.778	0.136
Mof_H 	H 	0.0993	0.2734	0.7761	-0.056
Mof_N 	N 	0.5602	0.3109	0.12029	-0.261
Mof_C 	C 	0.5662	0.3886	0.1193	0.142
Mof_H 	H 	0.5416	0.4148	0.1023	-0.047
Mof_C 	C 	0.6062	0.4313	0.1416	-0.27
Mof_H 	H 	0.6085	0.485	0.1396	0.113
Mof_C 	C 	0.6435	0.3944	0.16739	0.23
Mof_C 	C 	0.6403	0.3145	0.1682	-0.258
Mof_H 	H 	0.6669	0.2875	0.1844	0.117
Mof_C 	C 	0.5983	0.2741	0.14514	0.129
Mof_H 	H 	0.5957	0.2203	0.1465	-0.034
Mof_C 	C 	0.6895	0.4418	0.1925	-0.388
Mof_H 	H 	0.7306	0.4694	0.1812	0.134
Mof_H 	H 	0.7136	0.4063	0.2078	0.136
Mof_C 	C 	0.6415	0.4998	0.2114	0.187
Mof_H 	H 	0.6166	0.5352	0.1963	-0.035
Mof_H 	H 	0.6011	0.4726	0.2233	-0.035
Mof_C 	C 	0.6905	0.5461	0.2353	-0.399
Mof_H 	H 	0.7259	0.5788	0.2231	0.137
Mof_H 	H 	0.7214	0.5103	0.2482	0.135
Mof_N 	N 	0.5564	0.687	0.30113	-0.264
Mof_C 	C 	0.554	0.6091	0.3023	0.134
Mof_H 	H 	0.5227	0.5854	0.3179	-0.047
Mof_C 	C 	0.5965	0.5627	0.2811	-0.266
Mof_H 	H 	0.593	0.5089	0.2826	0.109
Mof_C 	C 	0.6437	0.596	0.2579	0.242
Mof_C 	C 	0.6451	0.6764	0.2567	-0.268
Mof_H 	H 	0.6766	0.7015	0.2415	0.111
Mof_C 	C 	0.5996	0.7196	0.278	0.141
Mof_H 	H 	0.5993	0.7734	0.2761	-0.046
Mof_N 	N 	0.4398	0.1891	0.12029	-0.261
Mof_C 	C 	0.4338	0.1114	0.1193	0.14
Mof_H 	H 	0.4584	0.0852	0.1023	-0.047
Mof_C 	C 	0.3938	0.0687	0.1416	-0.269
Mof_H 	H 	0.3915	0.015	0.1396	0.112
Mof_C 	C 	0.3565	0.1056	0.16739	0.228
Mof_C 	C 	0.3597	0.1855	0.1682	-0.255
Mof_H 	H 	0.3331	0.2125	0.1844	0.116
Mof_C 	C 	0.4017	0.2259	0.14514	0.127
Mof_H 	H 	0.4043	0.2797	0.1465	-0.034
Mof_C 	C 	0.3105	0.0582	0.1925	-0.382
Mof_H 	H 	0.2694	0.0306	0.1812	0.131
Mof_H 	H 	0.2864	0.0937	0.2078	0.134
Mof_C 	C 	0.3585	0.0002	0.2114	0.178
Mof_H 	H 	0.3834	0.9648	0.1963	-0.033
Mof_H 	H 	0.3989	0.0274	0.2233	-0.032
Mof_C 	C 	0.3095	0.9539	0.2353	-0.39
Mof_H 	H 	0.2741	0.9212	0.2231	0.13
Mof_H 	H 	0.2786	0.9897	0.2482	0.131
Mof_N 	N 	0.4436	0.813	0.30113	-0.264
Mof_C 	C 	0.446	0.8909	0.3023	0.132
Mof_H 	H 	0.4773	0.9146	0.3179	-0.046
Mof_C 	C 	0.4035	0.9373	0.2811	-0.263
Mof_H 	H 	0.407	0.9911	0.2826	0.108
Mof_C 	C 	0.3563	0.904	0.2579	0.236
Mof_C 	C 	0.3549	0.8236	0.2567	-0.266
Mof_H 	H 	0.3234	0.7985	0.2415	0.109
Mof_C 	C 	0.4004	0.7804	0.278	0.139
Mof_H 	H 	0.4007	0.7266	0.2761	-0.046
Mof_N 	N 	0.9398	0.6891	0.62029	-0.246
Mof_C 	C 	0.9338	0.6114	0.6193	0.146
Mof_H 	H 	0.9584	0.5852	0.6023	-0.034
Mof_C 	C 	0.8938	0.5687	0.6416	-0.261
Mof_H 	H 	0.8915	0.515	0.6396	0.117
Mof_C 	C 	0.8565	0.6056	0.66739	0.227
Mof_C 	C 	0.8597	0.6855	0.6682	-0.252
Mof_H 	H 	0.8331	0.7125	0.6844	0.115
Mof_C 	C 	0.9017	0.7259	0.64514	0.133
Mof_H 	H 	0.9043	0.7797	0.6465	-0.025
Mof_C 	C 	0.8105	0.5582	0.6925	-0.373
Mof_H 	H 	0.7694	0.5306	0.6812	0.129
Mof_H 	H 	0.7864	0.5937	0.7078	0.132
Mof_C 	C 	0.8585	0.5002	0.7114	0.165
Mof_H 	H 	0.8834	0.4648	0.6963	-0.02
Mof_H 	H 	0.8989	0.5274	0.7233	-0.02
Mof_C 	C 	0.8095	0.4539	0.7353	-0.381
Mof_H 	H 	0.7741	0.4212	0.7231	0.131
Mof_H 	H 	0.7786	0.4897	0.7482	0.129
Mof_N 	N 	0.9436	0.313	0.80113	-0.249
Mof_C 	C 	0.946	0.3909	0.8023	0.136
Mof_H 	H 	0.9773	0.4146	0.8179	-0.031
Mof_C 	C 	0.9035	0.4373	0.7811	-0.257
Mof_H 	H 	0.907	0.4911	0.7826	0.115
Mof_C 	C 	0.8563	0.404	0.7579	0.236
Mof_C 	C 	0.8549	0.3236	0.7567	-0.26
Mof_H 	H 	0.8234	0.2985	0.7415	0.111
Mof_C 	C 	0.9004	0.2804	0.778	0.143
Mof_H 	H 	0.9007	0.2266	0.7761	-0.035
Mof_Cu	Cu	-2.5791e-32	0.25	0.83588	0.823
Mof_Cu	Cu	0.5	0.75	0.33588	0.847
Mof_Cu	Cu	-1.13976e-32	0.75	0.58588	0.823
Mof_Cu	Cu	0.5	0.25	0.08588	0.847
Mof_N 	N 	0.0631	0.692	0.74439	-0.241
Mof_C 	C 	0.1406	0.6884	0.74621	0.111
Mof_H 	H 	0.1653	0.7164	0.7626	-0.039
Mof_C 	C 	0.1858	0.6456	0.72514	-0.225
Mof_H 	H 	0.2395	0.645	0.7276	0.093
Mof_C 	C 	0.1514	0.6038	0.70042	0.172
Mof_C 	C 	0.0714	0.6075	0.69778	-0.168
Mof_H 	H 	0.0459	0.581	0.6811	0.064
Mof_C 	C 	0.0296	0.6511	0.72022	-0.015
Mof_H 	H 	0.9758	0.6521	0.7184	0.052
Mof_C 	C 	0.2011	0.5569	0.677	-0.328
Mof_H 	H 	0.2349	0.523	0.6895	0.113
Mof_H 	H 	0.1677	0.5245	0.6637	0.109
Mof_C 	C 	0.2509	0.6083	0.6546	0.136
Mof_H 	H 	0.2802	0.645	0.6677	-0.02
Mof_H 	H 	0.2175	0.6376	0.64	-0.023
Mof_C 	C 	0.3062	0.5588	0.63477	-0.36
Mof_H 	H 	0.2766	0.5186	0.6238	0.123
Mof_H 	H 	0.3422	0.5334	0.6495	0.129
Mof_N 	N 	0.438	0.6909	0.56426	-0.257
Mof_C 	C 	0.36	0.6865	0.56243	0.121
Mof_H 	H 	0.3346	0.7129	0.5458	-0.04
Mof_C 	C 	0.3164	0.6438	0.58457	-0.247
Mof_H 	H 	0.2626	0.6422	0.5824	0.1
Mof_C 	C 	0.3517	0.6036	0.60976	0.214
Mof_C 	C 	0.4327	0.6088	0.61125	-0.244
Mof_H 	H 	0.4598	0.5835	0.6278	0.112
Mof_C 	C 	0.4728	0.6518	0.58803	0.132
Mof_H 	H 	0.5267	0.6534	0.5892	-0.035
Mof_N 	N 	0.5631	0.192	0.24439	-0.263
Mof_C 	C 	0.6406	0.1884	0.24621	0.137
Mof_H 	H 	0.6653	0.2164	0.2626	-0.047
Mof_C 	C 	0.6858	0.1456	0.22514	-0.267
Mof_H 	H 	0.7395	0.145	0.2276	0.109
Mof_C 	C 	0.6514	0.1038	0.20042	0.231
Mof_C 	C 	0.5714	0.1075	0.19778	-0.258
Mof_H 	H 	0.5459	0.081	0.1811	0.114
Mof_C 	C 	0.5296	0.1511	0.22022	0.133
Mof_H 	H 	0.4758	0.1521	0.2184	-0.035
Mof_C 	C 	0.7011	0.0569	0.177	-0.383
Mof_H 	H 	0.7349	0.023	0.1895	0.131
Mof_H 	H 	0.6677	0.0245	0.1637	0.13
Mof_C 	C 	0.7509	0.1083	0.1546	0.186
Mof_H 	H 	0.7802	0.145	0.1677	-0.034
Mof_H 	H 	0.7175	0.1376	0.14	-0.037
Mof_C 	C 	0.8062	0.0588	0.13477	-0.414
Mof_H 	H 	0.7766	0.0186	0.1238	0.139
Mof_H 	H 	0.8422	0.0334	0.1495	0.147
Mof_N 	N 	0.938	0.1909	0.06426	-0.273
Mof_C 	C 	0.86	0.1865	0.06243	0.145
Mof_H 	H 	0.8346	0.2129	0.0458	-0.045
Mof_C 	C 	0.8164	0.1438	0.08457	-0.287
Mof_H 	H 	0.7626	0.1422	0.0824	0.115
Mof_C 	C 	0.8517	0.1036	0.10976	0.269
Mof_C 	C 	0.9327	0.1088	0.11125	-0.331
Mof_H 	H 	0.9598	0.0835	0.1278	0.16
Mof_C 	C 	0.9728	0.1518	0.08803	0.278
Mof_H 	H 	0.0267	0.1534	0.0892	-0.12
Mof_N 	N 	0.4369	0.308	0.24439	-0.261
Mof_C 	C 	0.3594	0.3116	0.24621	0.132
Mof_H 	H 	0.3347	0.2836	0.2626	-0.046
Mof_C 	C 	0.3142	0.3544	0.22514	-0.258
Mof_H 	H 	0.2605	0.355	0.2276	0.103
Mof_C 	C 	0.3486	0.3962	0.20042	0.218
Mof_C 	C 	0.4286	0.3925	0.19778	-0.249
Mof_H 	H 	0.4541	0.419	0.1811	0.111
Mof_C 	C 	0.4704	0.3489	0.22022	0.129
Mof_H 	H 	0.5242	0.3479	0.2184	-0.034
Mof_C 	C 	0.2989	0.4431	0.177	-0.356
Mof_H 	H 	0.2651	0.477	0.1895	0.122
Mof_H 	H 	0.3323	0.4755	0.1637	0.123
Mof_C 	C 	0.2491	0.3917	0.1546	0.14
Mof_H 	H 	0.2198	0.355	0.1677	-0.023
Mof_H 	H 	0.2825	0.3624	0.14	-0.022
Mof_C 	C 	0.1938	0.4412	0.13477	-0.341
Mof_H 	H 	0.2234	0.4814	0.1238	0.12
Mof_H 	H 	0.1578	0.4666	0.1495	0.121
Mof_N 	N 	0.062	0.3091	0.06426	-0.236
Mof_C 	C 	0.14	0.3135	0.06243	0.102
Mof_H 	H 	0.1654	0.2871	0.0458	-0.034
Mof_C 	C 	0.1836	0.3562	0.08457	-0.219
Mof_H 	H 	0.2374	0.3578	0.0824	0.092
Mof_C 	C 	0.1483	0.3964	0.10976	0.175
Mof_C 	C 	0.0673	0.3912	0.11125	-0.167
Mof_H 	H 	0.0402	0.4165	0.1278	0.068
Mof_C 	C 	0.0272	0.3482	0.08803	-0.011
Mof_H 	H 	0.9733	0.3466	0.0892	0.051
Mof_N 	N 	0.9369	0.808	0.74439	-0.276
Mof_C 	C 	0.8594	0.8116	0.74621	0.157
Mof_H 	H 	0.8347	0.7836	0.7626	-0.051
Mof_C 	C 	0.8142	0.8544	0.72514	-0.299
Mof_H 	H 	0.7605	0.855	0.7276	0.118
Mof_C 	C 	0.8486	0.8962	0.70042	0.277
Mof_C 	C 	0.9286	0.8925	0.69778	-0.338
Mof_H 	H 	0.9541	0.919	0.6811	0.161
Mof_C 	C 	0.9704	0.8489	0.72022	0.276
Mof_H 	H 	0.0242	0.8479	0.7184	-0.118
Mof_C 	C 	0.7989	0.9431	0.677	-0.411
Mof_H 	H 	0.7651	0.977	0.6895	0.14
Mof_H 	H 	0.8323	0.9755	0.6637	0.144
Mof_C 	C 	0.7491	0.8917	0.6546	0.189
Mof_H 	H 	0.7198	0.855	0.6677	-0.037
Mof_H 	H 	0.7825	0.8624	0.64	-0.036
Mof_C 	C 	0.6938	0.9412	0.63477	-0.395
Mof_H 	H 	0.7234	0.9814	0.6238	0.136
Mof_H 	H 	0.6578	0.9666	0.6495	0.139
Mof_N 	N 	0.562	0.8091	0.56426	-0.259
Mof_C 	C 	0.64	0.8135	0.56243	0.127
Mof_H 	H 	0.6654	0.7871	0.5458	-0.042
Mof_C 	C 	0.6836	0.8562	0.58457	-0.259
Mof_H 	H 	0.7374	0.8578	0.5824	0.108
Mof_C 	C 	0.6483	0.8964	0.60976	0.23
Mof_C 	C 	0.5673	0.8912	0.61125	-0.255
Mof_H 	H 	0.5402	0.9165	0.6278	0.115
Mof_C 	C 	0.5272	0.8482	0.58803	0.137
Mof_H 	H 	0.4733	0.8466	0.5892	-0.037
Mof_N 	N 	0.558	0.8131	0.49439	-0.262
Mof_C 	C 	0.5616	0.8906	0.49621	0.135
Mof_H 	H 	0.5336	0.9153	0.5126	-0.047
Mof_C 	C 	0.6044	0.9358	0.47514	-0.264
Mof_H 	H 	0.605	0.9895	0.4776	0.106
Mof_C 	C 	0.6462	0.9014	0.45042	0.227
Mof_C 	C 	0.6425	0.8214	0.44778	-0.255
Mof_H 	H 	0.669	0.7959	0.4311	0.115
Mof_C 	C 	0.5989	0.7796	0.47022	0.132
Mof_H 	H 	0.5979	0.7258	0.4684	-0.034
Mof_C 	C 	0.6931	0.9511	0.427	-0.373
Mof_H 	H 	0.727	0.9849	0.4395	0.129
Mof_H 	H 	0.7255	0.9177	0.4137	0.13
Mof_C 	C 	0.6417	0.0009	0.4046	0.165
Mof_H 	H 	0.605	0.0302	0.4177	-0.03
Mof_H 	H 	0.6124	0.9675	0.39	-0.03
Mof_C 	C 	0.6912	0.0562	0.38477	-0.38
Mof_H 	H 	0.7314	0.0266	0.3738	0.131
Mof_H 	H 	0.7166	0.0922	0.3995	0.135
Mof_N 	N 	0.5591	0.188	0.31426	-0.258
Mof_C 	C 	0.5635	0.11	0.31243	0.124
Mof_H 	H 	0.5371	0.0846	0.2958	-0.041
Mof_C 	C 	0.6062	0.0664	0.33457	-0.254
Mof_H 	H 	0.6078	0.0126	0.3324	0.104
Mof_C 	C 	0.6464	0.1017	0.35976	0.223
Mof_C 	C 	0.6412	0.1827	0.36125	-0.25
Mof_H 	H 	0.6665	0.2098	0.3778	0.114
Mof_C 	C 	0.5982	0.2228	0.33803	0.135
Mof_H 	H 	0.5966	0.2767	0.3392	-0.036
Mof_N 	N 	0.058	0.3131	0.99439	-0.271
Mof_C 	C 	0.0616	0.3906	0.99621	0.129
Mof_H 	H 	0.0336	0.4153	0.0126	-0.059
Mof_C 	C 	0.1044	0.4358	0.97514	-0.272
Mof_H 	H 	0.105	0.4895	0.9776	0.101
Mof_C 	C 	0.1462	0.4014	0.95042	0.227
Mof_C 	C 	0.1425	0.3214	0.94778	-0.258
Mof_H 	H 	0.169	0.2959	0.9311	0.114
Mof_C 	C 	0.0989	0.2796	0.97022	0.126
Mof_H 	H 	0.0979	0.2258	0.9684	-0.041
Mof_C 	C 	0.1931	0.4511	0.927	-0.383
Mof_H 	H 	0.227	0.4849	0.9395	0.13
Mof_H 	H 	0.2255	0.4177	0.9137	0.13
Mof_C 	C 	0.1417	0.5009	0.9046	0.182
Mof_H 	H 	0.105	0.5302	0.9177	-0.044
Mof_H 	H 	0.1124	0.4675	0.89	-0.044
Mof_C 	C 	0.1912	0.5562	0.88477	-0.392
Mof_H 	H 	0.2314	0.5266	0.8738	0.134
Mof_H 	H 	0.2166	0.5922	0.8995	0.138
Mof_N 	N 	0.0591	0.688	0.81426	-0.267
Mof_C 	C 	0.0635	0.61	0.81243	0.119
Mof_H 	H 	0.0371	0.5846	0.7958	-0.055
Mof_C 	C 	0.1062	0.5664	0.83457	-0.263
Mof_H 	H 	0.1078	0.5126	0.8324	0.098
Mof_C 	C 	0.1464	0.6017	0.85976	0.225
Mof_C 	C 	0.1412	0.6827	0.86125	-0.254
Mof_H 	H 	0.1665	0.7098	0.8778	0.115
Mof_C 	C 	0.0982	0.7228	0.83803	0.13
Mof_H 	H 	0.0966	0.7767	0.8392	-0.042
Mof_N 	N 	0.942	0.1869	0.99439	-0.246
Mof_C 	C 	0.9384	0.1094	0.99621	0.138
Mof_H 	H 	0.9664	0.0847	0.0126	-0.032
Mof_C 	C 	0.8956	0.0642	0.97514	-0.252
Mof_H 	H 	0.895	0.0105	0.9776	0.11
Mof_C 	C 	0.8538	0.0986	0.95042	0.221
Mof_C 	C 	0.8575	0.1786	0.94778	-0.248
Mof_H 	H 	0.831	0.2041	0.9311	0.111
Mof_C 	C 	0.9011	0.2204	0.97022	0.135
Mof_H 	H 	0.9021	0.2742	0.9684	-0.026
Mof_C 	C 	0.8069	0.0489	0.927	-0.354
Mof_H 	H 	0.773	0.0151	0.9395	0.122
Mof_H 	H 	0.7745	0.0823	0.9137	0.123
Mof_C 	C 	0.8583	0.9991	0.9046	0.14
Mof_H 	H 	0.895	0.9698	0.9177	-0.012
Mof_H 	H 	0.8876	0.0325	0.89	-0.014
Mof_C 	C 	0.8088	0.9438	0.88477	-0.362
Mof_H 	H 	0.7686	0.9734	0.8738	0.125
Mof_H 	H 	0.7834	0.9078	0.8995	0.129
Mof_N 	N 	0.9409	0.812	0.81426	-0.242
Mof_C 	C 	0.9365	0.89	0.81243	0.129
Mof_H 	H 	0.9629	0.9154	0.7958	-0.025
Mof_C 	C 	0.8938	0.9336	0.83457	-0.242
Mof_H 	H 	0.8922	0.9874	0.8324	0.11
Mof_C 	C 	0.8536	0.8983	0.85976	0.218
Mof_C 	C 	0.8588	0.8173	0.86125	-0.243
Mof_H 	H 	0.8335	0.7902	0.8778	0.112
Mof_C 	C 	0.9018	0.7772	0.83803	0.138
Mof_H 	H 	0.9034	0.7233	0.8392	-0.027
Mof_N 	N 	0.442	0.6869	0.49439	-0.261
Mof_C 	C 	0.4384	0.6094	0.49621	0.133
Mof_H 	H 	0.4664	0.5847	0.5126	-0.046
Mof_C 	C 	0.3956	0.5642	0.47514	-0.261
Mof_H 	H 	0.395	0.5105	0.4776	0.105
Mof_C 	C 	0.3538	0.5986	0.45042	0.222
Mof_C 	C 	0.3575	0.6786	0.44778	-0.252
Mof_H 	H 	0.331	0.7041	0.4311	0.111
Mof_C 	C 	0.4011	0.7204	0.47022	0.129
Mof_H 	H 	0.4021	0.7742	0.4684	-0.034
Mof_C 	C 	0.3069	0.5489	0.427	-0.366
Mof_H 	H 	0.273	0.5151	0.4395	0.124
Mof_H 	H 	0.2745	0.5823	0.4137	0.123
Mof_C 	C 	0.3583	0.4991	0.4046	0.16
Mof_H 	H 	0.395	0.4698	0.4177	-0.028
Mof_H 	H 	0.3876	0.5325	0.39	-0.029
Mof_C 	C 	0.3088	0.4438	0.38477	-0.375
Mof_H 	H 	0.2686	0.4734	0.3738	0.128
Mof_H 	H 	0.2834	0.4078	0.3995	0.133
Mof_N 	N 	0.4409	0.312	0.31426	-0.258
Mof_C 	C 	0.4365	0.39	0.31243	0.123
Mof_H 	H 	0.4629	0.4154	0.2958	-0.041
Mof_C 	C 	0.3938	0.4336	0.33457	-0.252
Mof_H 	H 	0.3922	0.4874	0.3324	0.103
Mof_C 	C 	0.3536	0.3983	0.35976	0.221
Mof_C 	C 	0.3588	0.3173	0.36125	-0.249
Mof_H 	H 	0.3335	0.2902	0.3778	0.113
Mof_C 	C 	0.4018	0.2772	0.33803	0.134
Mof_H 	H 	0.4034	0.2233	0.3392	-0.036
Mof_Cu	Cu	6.94664e-33	0.75	0.77886	0.821
Mof_Cu	Cu	0.5	0.25	0.27886	0.845
Mof_Cu	Cu	0.5	0.75	0.52886	0.845
Mof_Cu	Cu	-7.81541e-34	0.25	0.02886	0.821
_end
