data_functionalizedCrystal
_audit_creation_method	'EQeq! by Chris Wilmer'
_symmetry_space_group_name_H-M	'P1'
_symmetry_Int_Tables_number	1
_symmetry_cell_setting	triclinic
loop_
_symmetry_equiv_pos_as_xyz
  x,y,z
_cell_length_a	11.4955
_cell_length_b	10.6756
_cell_length_c	8.7019
_cell_angle_alpha	58.523
_cell_angle_beta	106.498
_cell_angle_gamma	110.981
loop_
_atom_site_label
_atom_site_type_symbol
_atom_site_fract_x
_atom_site_fract_y
_atom_site_fract_z
_atom_site_charge
Mof_Cd	Cd	0.15569	0.11661	0.97645	0.285
Mof_S 	S 	0.03308	0.88384	0.93426	-0.127
Mof_S 	S 	0.33517	0.03562	0.20534	-0.09
Mof_S 	S 	0.22588	0.35553	0.72429	-0.093
Mof_C 	C 	0.01379	0.95156	0.68108	0.028
Mof_C 	C 	0.10615	0.95977	0.60522	-0.051
Mof_C 	C 	0.90765	0.99179	0.57586	-0.061
Mof_C 	C 	0.52875	0.95391	0.1809	-0.055
Mof_C 	C 	0.40078	0.06132	0.90688	-0.055
Mof_C 	C 	0.42954	0.01523	0.08778	0.034
Mof_C 	C 	0.98663	0.35086	0.55826	-0.055
Mof_C 	C 	0.09804	0.43729	0.59735	0.033
Mof_C 	C 	0.11141	0.58643	0.53909	-0.052
Mof_H 	H 	0.18436	0.93013	0.68276	0.047
Mof_H 	H 	0.83959	0.98574	0.63176	0.039
Mof_H 	H 	0.54994	0.91995	0.31421	0.049
Mof_H 	H 	0.32767	0.1065	0.83826	0.035
Mof_H 	H 	0.97677	0.24095	0.60119	0.041
Mof_H 	H 	0.19352	0.65013	0.5679	0.05
Mof_Cd	Cd	0.84431	0.88339	0.02355	0.284
Mof_S 	S 	0.96692	0.11616	0.06574	-0.128
Mof_S 	S 	0.66483	0.96438	0.79466	-0.091
Mof_S 	S 	0.77412	0.64447	0.27571	-0.094
Mof_C 	C 	0.98621	0.04844	0.31892	0.028
Mof_C 	C 	0.89385	0.04023	0.39478	-0.051
Mof_C 	C 	0.09235	0.00821	0.42414	-0.061
Mof_C 	C 	0.47125	0.04609	0.8191	-0.055
Mof_C 	C 	0.59922	0.93868	0.09312	-0.055
Mof_C 	C 	0.57046	0.98477	0.91222	0.034
Mof_C 	C 	0.01337	0.64914	0.44174	-0.055
Mof_C 	C 	0.90196	0.56271	0.40265	0.033
Mof_C 	C 	0.88859	0.41357	0.46091	-0.052
Mof_H 	H 	0.81564	0.06987	0.31724	0.047
Mof_H 	H 	0.16041	0.01426	0.36824	0.039
Mof_H 	H 	0.45006	0.08005	0.68579	0.049
Mof_H 	H 	0.67233	0.8935	0.16174	0.035
Mof_H 	H 	0.02323	0.75905	0.39881	0.041
Mof_H 	H 	0.80648	0.34987	0.4321	0.05
_end
