data_functionalizedCrystal
_audit_creation_method	'EQeq! by Chris Wilmer'
_symmetry_space_group_name_H-M	'P1'
_symmetry_Int_Tables_number	1
_symmetry_cell_setting	triclinic
loop_
_symmetry_equiv_pos_as_xyz
  x,y,z
_cell_length_a	6.6305
_cell_length_b	16.7832
_cell_length_c	12.7618
_cell_angle_alpha	90
_cell_angle_beta	90
_cell_angle_gamma	90
loop_
_atom_site_label
_atom_site_type_symbol
_atom_site_fract_x
_atom_site_fract_y
_atom_site_fract_z
_atom_site_charge
Mof_O 	O 	0.16783	0.16769	0.84308	-1.469
Mof_C 	C 	0.8083	0.03508	0.9682	0.029
Mof_O 	O 	0.66783	0.66769	0.34308	-1.461
Mof_C 	C 	0.3083	0.53508	0.4682	0.07
Mof_O 	O 	0.83217	0.33231	0.84308	-1.489
Mof_C 	C 	0.1917	0.46492	0.9682	0.059
Mof_O 	O 	0.33217	0.83231	0.34308	-1.459
Mof_C 	C 	0.6917	0.96492	0.4682	0.052
Mof_O 	O 	0.83217	0.66769	0.15692	-1.488
Mof_C 	C 	0.1917	0.53508	0.0318	0.06
Mof_O 	O 	0.33217	0.16769	0.65692	-1.459
Mof_C 	C 	0.6917	0.03508	0.5318	0.052
Mof_O 	O 	0.16783	0.83231	0.15692	-1.468
Mof_C 	C 	0.8083	0.96492	0.0318	0.03
Mof_O 	O 	0.66783	0.33231	0.65692	-1.46
Mof_C 	C 	0.3083	0.46492	0.5318	0.071
Mof_O 	O 	0.83217	0.83231	0.15692	-1.488
Mof_C 	C 	0.1917	0.96492	0.0318	0.06
Mof_O 	O 	0.33217	0.33231	0.65692	-1.459
Mof_C 	C 	0.6917	0.46492	0.5318	0.052
Mof_O 	O 	0.16783	0.66769	0.15692	-1.468
Mof_C 	C 	0.8083	0.53508	0.0318	0.03
Mof_O 	O 	0.66783	0.16769	0.65692	-1.46
Mof_C 	C 	0.3083	0.03508	0.5318	0.071
Mof_O 	O 	0.16783	0.33231	0.84308	-1.468
Mof_C 	C 	0.8083	0.46492	0.9682	0.03
Mof_O 	O 	0.66783	0.83231	0.34308	-1.46
Mof_C 	C 	0.3083	0.96492	0.4682	0.071
Mof_O 	O 	0.83217	0.16769	0.84308	-1.488
Mof_C 	C 	0.1917	0.03508	0.9682	0.06
Mof_O 	O 	0.33217	0.66769	0.34308	-1.459
Mof_C 	C 	0.6917	0.53508	0.4682	0.052
Mof_Al	Al	0.25	0.25	0.75	6.154
Mof_Al	Al	0.75	0.25	0.75	6.072
Mof_Al	Al	0.75	0.75	0.25	6.072
Mof_Al	Al	0.25	0.75	0.25	6.154
Mof_O 	O 	2.27186e-32	0.25	0.685	-2.132
Mof_O 	O 	0.5	0.75	0.185	-2.157
Mof_O 	O 	2.89362e-32	0.75	0.315	-2.132
Mof_O 	O 	0.5	0.25	0.815	-2.157
Mof_C 	C 	6.81527e-33	0.0628	0.9444	-0.23
Mof_C 	C 	6.28125e-33	0.13835	0.8704	1.116
Mof_C 	C 	0.5	0.5628	0.4444	-0.265
Mof_C 	C 	0.5	0.63835	0.3704	1.074
Mof_C 	C 	-1.096e-32	0.4372	0.9444	-0.23
Mof_C 	C 	6.28125e-33	0.36165	0.8704	1.116
Mof_C 	C 	0.5	0.9372	0.4444	-0.265
Mof_C 	C 	0.5	0.86165	0.3704	1.074
Mof_C 	C 	1.59546e-32	0.5628	0.0556	-0.23
Mof_C 	C 	9.3526e-34	0.63835	0.1296	1.116
Mof_C 	C 	0.5	0.0628	0.5556	-0.265
Mof_C 	C 	0.5	0.13835	0.6296	1.074
Mof_C 	C 	-1.82068e-33	0.9372	0.0556	-0.23
Mof_C 	C 	1.87106e-32	0.86165	0.1296	1.116
Mof_C 	C 	0.5	0.4372	0.5556	-0.265
Mof_C 	C 	0.5	0.36165	0.6296	1.074
_end
