data_functionalizedCrystal
_audit_creation_method	'EQeq! by Chris Wilmer'
_symmetry_space_group_name_H-M	'P1'
_symmetry_Int_Tables_number	1
_symmetry_cell_setting	triclinic
loop_
_symmetry_equiv_pos_as_xyz
  x,y,z
_cell_length_a	5.2788
_cell_length_b	15.467
_cell_length_c	8.295
_cell_angle_alpha	90
_cell_angle_beta	92.552
_cell_angle_gamma	90
loop_
_atom_site_label
_atom_site_type_symbol
_atom_site_fract_x
_atom_site_fract_y
_atom_site_fract_z
_atom_site_charge
Mof_N 	N 	0.9074	0.39648	0.5556	-0.216
Mof_N 	N 	0.2627	0.21607	0.8685	-0.219
Mof_C 	C 	0.8562	0.31231	0.583	0.124
Mof_C 	C 	0.2977	0.30112	0.8493	0.055
Mof_H 	H 	0.1882	0.3388	0.899	-0.015
Mof_C 	C 	0.4869	0.33609	0.7601	-0.088
Mof_H 	H 	0.5011	0.3957	0.7497	-0.004
Mof_C 	C 	0.6563	0.28187	0.6857	0
Mof_C 	C 	0.6227	0.1929	0.7065	-0.119
Mof_H 	H 	0.7317	0.1538	0.6601	0.071
Mof_C 	C 	0.4272	0.16378	0.7961	0.05
Mof_H 	H 	0.4072	0.1044	0.8074	-0.004
Mof_N 	N 	0.0926	0.39648	0.4444	-0.248
Mof_N 	N 	0.7373	0.21607	0.1315	-0.241
Mof_C 	C 	0.1438	0.31231	0.417	0.073
Mof_C 	C 	0.7023	0.30112	0.1507	0.045
Mof_H 	H 	0.8118	0.3388	0.101	-0.035
Mof_C 	C 	0.5131	0.33609	0.2399	-0.111
Mof_H 	H 	0.4989	0.3957	0.2503	-0.005
Mof_C 	C 	0.3437	0.28187	0.3143	-0.002
Mof_C 	C 	0.3773	0.1929	0.2935	-0.139
Mof_H 	H 	0.2683	0.1538	0.3399	0.052
Mof_C 	C 	0.5728	0.16378	0.2039	0.034
Mof_H 	H 	0.5928	0.1044	0.1926	-0.023
Mof_N 	N 	0.0926	0.60352	0.4444	-0.248
Mof_N 	N 	0.7373	0.78393	0.1315	-0.24
Mof_C 	C 	0.1438	0.68769	0.417	0.073
Mof_C 	C 	0.7023	0.69888	0.1507	0.045
Mof_H 	H 	0.8118	0.6612	0.101	-0.034
Mof_C 	C 	0.5131	0.66391	0.2399	-0.111
Mof_H 	H 	0.4989	0.6043	0.2503	-0.005
Mof_C 	C 	0.3437	0.71813	0.3143	-0.002
Mof_C 	C 	0.3773	0.8071	0.2935	-0.139
Mof_H 	H 	0.2683	0.8462	0.3399	0.052
Mof_C 	C 	0.5728	0.83622	0.2039	0.034
Mof_H 	H 	0.5928	0.8956	0.1926	-0.022
Mof_N 	N 	0.9074	0.60352	0.5556	-0.217
Mof_N 	N 	0.2627	0.78393	0.8685	-0.219
Mof_C 	C 	0.8562	0.68769	0.583	0.124
Mof_C 	C 	0.2977	0.69888	0.8493	0.055
Mof_H 	H 	0.1882	0.6612	0.899	-0.015
Mof_C 	C 	0.4869	0.66391	0.7601	-0.088
Mof_H 	H 	0.5011	0.6043	0.7497	-0.004
Mof_C 	C 	0.6563	0.71813	0.6857	0
Mof_C 	C 	0.6227	0.8071	0.7065	-0.119
Mof_H 	H 	0.7317	0.8462	0.6601	0.071
Mof_C 	C 	0.4272	0.83622	0.7961	0.049
Mof_H 	H 	0.4072	0.8956	0.8074	-0.002
Mof_Cu	Cu	0.90689	0.5	0.70394	0.826
Mof_N 	N 	0.9734	0.5	0.9318	-0.104
Mof_C 	C 	0.0266	0.5	0.0682	-0.371
Mof_Cu	Cu	0.09311	0.5	0.29606	0.811
Mof_Cu	Cu	4.66373e-33	0.1616	-0	0.79
Mof_N 	N 	-0	0.0376	-0	-0.235
Mof_C 	C 	-3.73099e-32	0.9624	-0	-0.256
Mof_Cu	Cu	-0	0.8384	-0	0.792
Mof_N 	N 	5.2509e-18	0.25823	0.5	-0.163
Mof_N 	N 	5.2509e-18	0.74177	0.5	-0.163
_end
