data_functionalizedCrystal
_audit_creation_method	'EQeq! by Chris Wilmer'
_symmetry_space_group_name_H-M	'P1'
_symmetry_Int_Tables_number	1
_symmetry_cell_setting	triclinic
loop_
_symmetry_equiv_pos_as_xyz
  x,y,z
_cell_length_a	37.133
_cell_length_b	11.5278
_cell_length_c	6.5155
_cell_angle_alpha	90
_cell_angle_beta	109.266
_cell_angle_gamma	90
loop_
_atom_site_label
_atom_site_type_symbol
_atom_site_fract_x
_atom_site_fract_y
_atom_site_fract_z
_atom_site_charge
Mof_Al	Al	0.2209	0.2837	0.571	3.376
Mof_O 	O 	0.1941	0.3948	0.354	-0.921
Mof_O 	O 	0.1359	0.4508	0.091	-0.372
Mof_O 	O 	0.2268	0.1698	0.81	-0.805
Mof_O 	O 	0.1959	0.027	0.919	-0.32
Mof_O 	O 	0.0348	0.1247	0.128	-0.813
Mof_O 	O 	0.0423	0.0939	0.495	-0.909
Mof_O 	O 	0.2295	0.1784	0.382	-1.436
Mof_N 	N 	0.1666	0.248	0.502	-0.444
Mof_C 	C 	0.1585	0.401	0.252	0.49
Mof_C 	C 	0.1417	0.296	0.326	-0.097
Mof_C 	C 	0.1028	0.256	0.265	0.081
Mof_C 	C 	0.0928	0.185	0.41	-0.161
Mof_C 	C 	0.121	0.128	0.581	0.057
Mof_C 	C 	0.1594	0.158	0.621	-0.126
Mof_C 	C 	0.195	0.113	0.798	0.345
Mof_C 	C 	0.0527	0.131	0.336	0.554
Mof_Al	Al	0.7209	0.7837	0.571	3.483
Mof_O 	O 	0.6941	0.8948	0.354	-0.878
Mof_O 	O 	0.6359	0.9508	0.091	-0.282
Mof_O 	O 	0.7268	0.6698	0.81	-0.785
Mof_O 	O 	0.6959	0.527	0.919	-0.196
Mof_O 	O 	0.5348	0.6247	0.128	-1.028
Mof_O 	O 	0.5423	0.5939	0.495	-1.139
Mof_O 	O 	0.7295	0.6784	0.382	-1.424
Mof_N 	N 	0.6666	0.748	0.502	-0.443
Mof_C 	C 	0.6585	0.901	0.252	0.517
Mof_C 	C 	0.6417	0.796	0.326	-0.083
Mof_C 	C 	0.6028	0.756	0.265	0.138
Mof_C 	C 	0.5928	0.685	0.41	-0.192
Mof_C 	C 	0.621	0.628	0.581	0.143
Mof_C 	C 	0.6594	0.658	0.621	-0.099
Mof_C 	C 	0.695	0.613	0.798	0.36
Mof_C 	C 	0.5527	0.631	0.336	0.727
Mof_Al	Al	0.7791	0.2837	0.929	3.725
Mof_O 	O 	0.8059	0.3948	0.146	-1.047
Mof_O 	O 	0.8641	0.4508	0.409	-0.338
Mof_O 	O 	0.7732	0.1698	0.69	-0.879
Mof_O 	O 	0.8041	0.027	0.581	-0.374
Mof_O 	O 	0.9652	0.1247	0.372	-0.847
Mof_O 	O 	0.9577	0.0939	0.005	-0.87
Mof_O 	O 	0.7705	0.1784	0.118	-1.461
Mof_N 	N 	0.8334	0.248	0.998	-0.393
Mof_C 	C 	0.8415	0.401	0.248	0.533
Mof_C 	C 	0.8583	0.296	0.174	-0.219
Mof_C 	C 	0.8972	0.256	0.235	0.177
Mof_C 	C 	0.9072	0.185	0.09	-0.323
Mof_C 	C 	0.879	0.128	0.919	0.199
Mof_C 	C 	0.8406	0.158	0.879	-0.167
Mof_C 	C 	0.805	0.113	0.702	0.378
Mof_C 	C 	0.9473	0.131	0.164	0.58
Mof_Al	Al	0.2791	0.7837	0.929	3.855
Mof_O 	O 	0.3059	0.8948	0.146	-1.01
Mof_O 	O 	0.3641	0.9508	0.409	-0.246
Mof_O 	O 	0.2732	0.6698	0.69	-0.86
Mof_O 	O 	0.3041	0.527	0.581	-0.25
Mof_O 	O 	0.4652	0.6247	0.372	-1.098
Mof_O 	O 	0.4577	0.5939	0.005	-1.108
Mof_O 	O 	0.2705	0.6784	0.118	-1.458
Mof_N 	N 	0.3334	0.748	0.998	-0.384
Mof_C 	C 	0.3415	0.901	0.248	0.562
Mof_C 	C 	0.3583	0.796	0.174	-0.218
Mof_C 	C 	0.3972	0.756	0.235	0.243
Mof_C 	C 	0.4072	0.685	0.09	-0.383
Mof_C 	C 	0.379	0.628	0.919	0.311
Mof_C 	C 	0.3406	0.658	0.879	-0.145
Mof_C 	C 	0.305	0.613	0.702	0.396
Mof_C 	C 	0.4473	0.631	0.164	0.756
Mof_Al	Al	0.7791	0.7163	0.429	3.306
Mof_O 	O 	0.8059	0.6052	0.646	-0.895
Mof_O 	O 	0.8641	0.5492	0.909	-0.265
Mof_O 	O 	0.7732	0.8302	0.19	-0.801
Mof_O 	O 	0.8041	0.973	0.081	-0.184
Mof_O 	O 	0.9652	0.8753	0.872	-0.592
Mof_O 	O 	0.9577	0.9061	0.505	-0.758
Mof_O 	O 	0.7705	0.8216	0.618	-1.332
Mof_N 	N 	0.8334	0.752	0.498	-0.434
Mof_C 	C 	0.8415	0.599	0.748	0.483
Mof_C 	C 	0.8583	0.704	0.674	-0.065
Mof_C 	C 	0.8972	0.744	0.735	0.172
Mof_C 	C 	0.9072	0.815	0.59	-0.164
Mof_C 	C 	0.879	0.872	0.419	0.166
Mof_C 	C 	0.8406	0.842	0.379	-0.088
Mof_C 	C 	0.805	0.887	0.202	0.365
Mof_C 	C 	0.9473	0.869	0.664	0.594
Mof_Al	Al	0.2791	0.2163	0.429	3.193
Mof_O 	O 	0.3059	0.1052	0.646	-0.937
Mof_O 	O 	0.3641	0.0492	0.909	-0.353
Mof_O 	O 	0.2732	0.3302	0.19	-0.823
Mof_O 	O 	0.3041	0.473	0.081	-0.316
Mof_O 	O 	0.4652	0.3753	0.872	-0.93
Mof_O 	O 	0.4577	0.4061	0.505	-1.172
Mof_O 	O 	0.2705	0.3216	0.618	-1.341
Mof_N 	N 	0.3334	0.252	0.498	-0.431
Mof_C 	C 	0.3415	0.099	0.748	0.46
Mof_C 	C 	0.3583	0.204	0.674	-0.091
Mof_C 	C 	0.3972	0.244	0.735	0.142
Mof_C 	C 	0.4072	0.315	0.59	-0.212
Mof_C 	C 	0.379	0.372	0.419	0.094
Mof_C 	C 	0.3406	0.342	0.379	-0.127
Mof_C 	C 	0.305	0.387	0.202	0.351
Mof_C 	C 	0.4473	0.369	0.664	0.711
Mof_Al	Al	0.2209	0.7163	0.071	2.951
Mof_O 	O 	0.1941	0.6052	0.854	-0.766
Mof_O 	O 	0.1359	0.5492	0.591	-0.294
Mof_O 	O 	0.2268	0.8302	0.31	-0.725
Mof_O 	O 	0.1959	0.973	0.419	-0.133
Mof_O 	O 	0.0348	0.8753	0.628	-0.739
Mof_O 	O 	0.0423	0.9061	0.995	-0.597
Mof_O 	O 	0.2295	0.8216	0.882	-1.303
Mof_N 	N 	0.1666	0.752	0.002	-0.486
Mof_C 	C 	0.1585	0.599	0.752	0.442
Mof_C 	C 	0.1417	0.704	0.826	0.057
Mof_C 	C 	0.1028	0.744	0.765	0.084
Mof_C 	C 	0.0928	0.815	0.91	0.002
Mof_C 	C 	0.121	0.872	0.081	0.019
Mof_C 	C 	0.1594	0.842	0.121	-0.045
Mof_C 	C 	0.195	0.887	0.298	0.331
Mof_C 	C 	0.0527	0.869	0.836	0.548
Mof_Al	Al	0.7209	0.2163	0.071	2.804
Mof_O 	O 	0.6941	0.1052	0.854	-0.799
Mof_O 	O 	0.6359	0.0492	0.591	-0.391
Mof_O 	O 	0.7268	0.3302	0.31	-0.742
Mof_O 	O 	0.6959	0.473	0.419	-0.26
Mof_O 	O 	0.5348	0.3753	0.628	-1.098
Mof_O 	O 	0.5423	0.4061	0.995	-0.945
Mof_O 	O 	0.7295	0.3216	0.882	-1.303
Mof_N 	N 	0.6666	0.252	0.002	-0.494
Mof_C 	C 	0.6585	0.099	0.752	0.414
Mof_C 	C 	0.6417	0.204	0.826	0.049
Mof_C 	C 	0.6028	0.244	0.765	0.038
Mof_C 	C 	0.5928	0.315	0.91	-0.005
Mof_C 	C 	0.621	0.372	0.081	-0.089
Mof_C 	C 	0.6594	0.342	0.121	-0.076
Mof_C 	C 	0.695	0.387	0.298	0.313
Mof_C 	C 	0.5527	0.369	0.836	0.655
Mof_Al	Al	-0	0	-0	2.833
Mof_Al	Al	0.5	0.5	-0	4.247
Mof_Al	Al	4.37478e-34	-4.79397e-33	0.5	3.439
Mof_Al	Al	0.5	0.5	0.5	5.017
Mof_O 	O 	-2.69877e-18	0.924	0.25	-1.088
Mof_O 	O 	0.5	0.424	0.25	-1.733
Mof_O 	O 	5.39753e-18	0.076	0.75	-1.208
Mof_O 	O 	0.5	0.576	0.75	-1.605
_end
