data_functionalizedCrystal
_audit_creation_method	'EQeq! by Chris Wilmer'
_symmetry_space_group_name_H-M	'P1'
_symmetry_Int_Tables_number	1
_symmetry_cell_setting	triclinic
loop_
_symmetry_equiv_pos_as_xyz
  x,y,z
_cell_length_a	10.5305
_cell_length_b	13.842
_cell_length_c	14.1361
_cell_angle_alpha	60.6859
_cell_angle_beta	82.6052
_cell_angle_gamma	74.7589
loop_
_atom_site_label
_atom_site_type_symbol
_atom_site_fract_x
_atom_site_fract_y
_atom_site_fract_z
_atom_site_charge
Mof_Co	Co	0.25	0.58283	0.83434	1.147
Mof_Co	Co	0.75	0.41717	0.16566	1.143
Mof_Co	Co	0.5	0.5	-0	1.138
Mof_Co	Co	-0	0.5	-0	1.124
Mof_H 	H 	0.2652	0.7001	0.14	-0.025
Mof_H 	H 	0.1509	0.8234	0.2062	0.145
Mof_H 	H 	0.7019	0.7342	0.753	-0.014
Mof_H 	H 	0.4201	0.8193	0.544	-0.021
Mof_H 	H 	0.8318	0.8828	0.0414	0.128
Mof_H 	H 	0.9444	0.7569	0.9794	0.064
Mof_H 	H 	0.8244	0.8437	0.6142	0.152
Mof_H 	H 	0.5422	0.928	0.402	0.149
Mof_H 	H 	0.8884	0.0943	0.2726	0.152
Mof_H 	H 	0.8189	0.1229	0.1674	0.14
Mof_H 	H 	0.9851	0.9071	0.294	-0.036
Mof_H 	H 	0.0346	0.0036	0.1892	-0.087
Mof_H 	H 	0.7137	0.9646	0.2854	-0.009
Mof_H 	H 	0.6605	0.0768	0.2954	-0.025
Mof_H 	H 	0.2348	0.1599	0.14	0.005
Mof_H 	H 	0.3491	0.9704	0.2062	0.104
Mof_H 	H 	0.7981	0.5128	0.753	-0.01
Mof_H 	H 	0.0799	0.6367	0.544	-0.062
Mof_H 	H 	0.6682	0.0758	0.0414	0.092
Mof_H 	H 	0.5556	0.2637	0.9794	0.1
Mof_H 	H 	0.6756	0.5421	0.6142	0.145
Mof_H 	H 	0.9578	0.67	0.402	0.169
Mof_H 	H 	0.6116	0.6331	0.2726	0.123
Mof_H 	H 	0.6811	0.7097	0.1674	0.114
Mof_H 	H 	0.5149	0.7989	0.294	-0.01
Mof_H 	H 	0.4654	0.8072	0.1892	-0.032
Mof_H 	H 	0.7863	0.75	0.2854	0.007
Mof_H 	H 	0.8395	0.6278	0.2954	-0.006
Mof_H 	H 	0.7348	0.2999	0.86	-0.028
Mof_H 	H 	0.8491	0.1766	0.7938	0.133
Mof_H 	H 	0.2981	0.2658	0.247	-0.015
Mof_H 	H 	0.5799	0.1807	0.456	-0.016
Mof_H 	H 	0.1682	0.1172	0.9586	0.19
Mof_H 	H 	0.0556	0.2431	0.0206	-0.11
Mof_H 	H 	0.1756	0.1563	0.3858	0.136
Mof_H 	H 	0.4578	0.072	0.598	0.146
Mof_H 	H 	0.1116	0.9057	0.7274	0.108
Mof_H 	H 	0.1811	0.8771	0.8326	0.123
Mof_H 	H 	0.0149	0.0929	0.706	0.002
Mof_H 	H 	0.9654	0.9964	0.8108	0.028
Mof_H 	H 	0.2863	0.0354	0.7146	0.014
Mof_H 	H 	0.3395	0.9232	0.7046	-0.003
Mof_H 	H 	0.7652	0.8401	0.86	-0.06
Mof_H 	H 	0.6509	0.0296	0.7938	0.176
Mof_H 	H 	0.2019	0.4872	0.247	-0.018
Mof_H 	H 	0.9201	0.3633	0.456	0.024
Mof_H 	H 	0.3318	0.9242	0.9586	0.227
Mof_H 	H 	0.4444	0.7363	0.0206	-0.148
Mof_H 	H 	0.3244	0.4579	0.3858	0.143
Mof_H 	H 	0.0422	0.33	0.598	0.127
Mof_H 	H 	0.3884	0.3669	0.7274	0.138
Mof_H 	H 	0.3189	0.2903	0.8326	0.15
Mof_H 	H 	0.4851	0.2011	0.706	-0.024
Mof_H 	H 	0.5346	0.1928	0.8108	-0.028
Mof_H 	H 	0.2137	0.25	0.7146	-0.003
Mof_H 	H 	0.1605	0.3722	0.7046	-0.023
Mof_C 	C 	0.1185	0.71784	0.05112	-0.223
Mof_C 	C 	0.9802	0.8669	0.1272	0.35
Mof_C 	C 	0.4741	0.68869	0.75282	0.434
Mof_C 	C 	0.178	0.73724	0.11972	0.178
Mof_C 	C 	0.1102	0.81148	0.15944	-0.356
Mof_C 	C 	0.6956	0.89563	0.49234	0.316
Mof_C 	C 	0.5481	0.76513	0.66274	-0.239
Mof_C 	C 	0.6699	0.77329	0.68242	0.187
Mof_C 	C 	0.1931	0.64579	0.00302	0.336
Mof_C 	C 	0.5019	0.8236	0.5578	0.199
Mof_C 	C 	0.9192	0.84628	0.06104	-0.271
Mof_C 	C 	0.9869	0.77138	0.02324	0.075
Mof_C 	C 	0.7438	0.83793	0.59974	-0.291
Mof_C 	C 	0.5749	0.88894	0.47232	-0.311
Mof_C 	C 	0.8512	0.06194	0.23832	-0.367
Mof_C 	C 	0.9584	0.97291	0.22418	0.295
Mof_C 	C 	0.7368	0.01527	0.30586	0.211
Mof_C 	C 	0.3815	0.23104	0.05112	-0.12
Mof_C 	C 	0.5198	0.0059	0.1272	0.235
Mof_C 	C 	0.0259	0.55849	0.75282	0.363
Mof_C 	C 	0.322	0.14304	0.11972	0.082
Mof_C 	C 	0.3898	0.02908	0.15944	-0.225
Mof_C 	C 	0.8044	0.61203	0.49234	0.324
Mof_C 	C 	0.9519	0.57213	0.66274	-0.211
Mof_C 	C 	0.8301	0.54429	0.68242	0.178
Mof_C 	C 	0.3069	0.35119	0.00302	0.3
Mof_C 	C 	0.9981	0.6186	0.5578	0.262
Mof_C 	C 	0.5808	0.09268	0.06104	-0.168
Mof_C 	C 	0.5131	0.20538	0.02324	-0.055
Mof_C 	C 	0.7562	0.56233	0.59974	-0.287
Mof_C 	C 	0.9251	0.63874	0.47232	-0.336
Mof_C 	C 	0.6488	0.69974	0.23832	-0.292
Mof_C 	C 	0.5416	0.80291	0.22418	0.179
Mof_C 	C 	0.7632	0.67887	0.30586	0.164
Mof_C 	C 	0.8815	0.28216	0.94888	-0.259
Mof_C 	C 	0.0198	0.1331	0.8728	0.298
Mof_C 	C 	0.5259	0.31131	0.24718	0.437
Mof_C 	C 	0.822	0.26276	0.88028	0.201
Mof_C 	C 	0.8898	0.18852	0.84056	-0.262
Mof_C 	C 	0.3044	0.10437	0.50766	0.304
Mof_C 	C 	0.4519	0.23487	0.33726	-0.234
Mof_C 	C 	0.3301	0.22671	0.31758	0.18
Mof_C 	C 	0.8069	0.35421	0.99698	0.504
Mof_C 	C 	0.4981	0.1764	0.4422	0.192
Mof_C 	C 	0.0808	0.15372	0.93896	-0.346
Mof_C 	C 	0.0131	0.22862	0.97676	0.294
Mof_C 	C 	0.2562	0.16207	0.40026	-0.281
Mof_C 	C 	0.4251	0.11106	0.52768	-0.301
Mof_C 	C 	0.1488	0.93806	0.76168	-0.257
Mof_C 	C 	0.0416	0.02709	0.77582	0.103
Mof_C 	C 	0.2632	0.98473	0.69414	0.141
Mof_C 	C 	0.6185	0.76896	0.94888	-0.366
Mof_C 	C 	0.4802	0.9941	0.8728	0.416
Mof_C 	C 	0.9741	0.44151	0.24718	0.504
Mof_C 	C 	0.678	0.85696	0.88028	0.301
Mof_C 	C 	0.6102	0.97092	0.84056	-0.399
Mof_C 	C 	0.1956	0.38797	0.50766	0.296
Mof_C 	C 	0.0481	0.42787	0.33726	-0.26
Mof_C 	C 	0.1699	0.45571	0.31758	0.188
Mof_C 	C 	0.6931	0.64881	0.99698	0.539
Mof_C 	C 	0.0019	0.3814	0.4422	0.129
Mof_C 	C 	0.4192	0.90732	0.93896	-0.452
Mof_C 	C 	0.4869	0.79462	0.97676	0.429
Mof_C 	C 	0.2438	0.43767	0.40026	-0.283
Mof_C 	C 	0.0749	0.36126	0.52768	-0.275
Mof_C 	C 	0.3512	0.30026	0.76168	-0.333
Mof_C 	C 	0.4584	0.19709	0.77582	0.221
Mof_C 	C 	0.2368	0.32113	0.69414	0.191
Mof_O 	O 	0.5273	0.62413	0.84354	-0.444
Mof_O 	O 	0.1301	0.629	0.94188	-0.48
Mof_O 	O 	0.3144	0.60827	0.0181	-0.443
Mof_O 	O 	0.3601	0.69137	0.73206	-0.467
Mof_O 	O 	0.9045	0.94225	0.1587	-0.316
Mof_O 	O 	0.779	0.95452	0.41636	-0.284
Mof_O 	O 	0.9727	0.53233	0.84354	-0.396
Mof_O 	O 	0.3699	0.42912	0.94188	-0.463
Mof_O 	O 	0.1856	0.37363	0.0181	-0.439
Mof_O 	O 	0.1399	0.57657	0.73206	-0.453
Mof_O 	O 	0.5955	0.89905	0.1587	-0.274
Mof_O 	O 	0.721	0.62912	0.41636	-0.279
Mof_O 	O 	0.4727	0.37587	0.15646	-0.469
Mof_O 	O 	0.8699	0.371	0.05812	-0.588
Mof_O 	O 	0.6856	0.39173	0.9819	-0.441
Mof_O 	O 	0.6399	0.30863	0.26794	-0.469
Mof_O 	O 	0.0955	0.05775	0.8413	-0.265
Mof_O 	O 	0.221	0.04548	0.58364	-0.275
Mof_O 	O 	0.0273	0.46767	0.15646	-0.51
Mof_O 	O 	0.6301	0.57088	0.05812	-0.606
Mof_O 	O 	0.8144	0.62637	0.9819	-0.44
Mof_O 	O 	0.8601	0.42343	0.26794	-0.481
Mof_O 	O 	0.4045	0.10095	0.8413	-0.307
Mof_O 	O 	0.279	0.37088	0.58364	-0.28
_end
