data_functionalizedCrystal
_audit_creation_method	'EQeq! by Chris Wilmer'
_symmetry_space_group_name_H-M	'P1'
_symmetry_Int_Tables_number	1
_symmetry_cell_setting	triclinic
loop_
_symmetry_equiv_pos_as_xyz
  x,y,z
_cell_length_a	9.6456
_cell_length_b	23.1871
_cell_length_c	8.7113
_cell_angle_alpha	90
_cell_angle_beta	90
_cell_angle_gamma	90
loop_
_atom_site_label
_atom_site_type_symbol
_atom_site_fract_x
_atom_site_fract_y
_atom_site_fract_z
_atom_site_charge
Mof_Zn	Zn	0.55845	0.54848	0.2208	1.24
Mof_P 	P 	0.56874	0.68551	0.25502	0.464
Mof_H 	H 	0.457	0.7092	0.187	-0.041
Mof_P 	P 	0.78244	0.49615	0.44393	0.443
Mof_H 	H 	0.785	0.4466	0.537	-0.047
Mof_O 	O 	0.6852	0.68717	0.1387	-0.467
Mof_O 	O 	0.5314	0.62452	0.3	-0.438
Mof_O 	O 	0.5933	0.72143	0.3962	-0.454
Mof_O 	O 	0.6346	0.50073	0.385	-0.412
Mof_O 	O 	0.8849	0.48926	0.3149	-0.462
Mof_O 	O 	0.8182	0.54663	0.546	-0.444
Mof_Zn	Zn	0.94155	0.95152	0.2208	1.238
Mof_P 	P 	0.93126	0.81449	0.25502	0.461
Mof_H 	H 	0.043	0.7908	0.187	-0.04
Mof_P 	P 	0.71756	0.00385	0.44393	0.444
Mof_H 	H 	0.715	0.0534	0.537	-0.047
Mof_O 	O 	0.8148	0.81283	0.1387	-0.467
Mof_O 	O 	0.9686	0.87548	0.3	-0.438
Mof_O 	O 	0.9067	0.77857	0.3962	-0.454
Mof_O 	O 	0.8654	0.99927	0.385	-0.413
Mof_O 	O 	0.6151	0.01074	0.3149	-0.462
Mof_O 	O 	0.6818	0.95337	0.546	-0.444
Mof_Zn	Zn	0.44155	0.04848	0.2792	1.239
Mof_P 	P 	0.43126	0.18551	0.24498	0.463
Mof_H 	H 	0.543	0.2092	0.313	-0.04
Mof_P 	P 	0.21756	0.99615	0.05607	0.443
Mof_H 	H 	0.215	0.9466	0.963	-0.046
Mof_O 	O 	0.3148	0.18717	0.3613	-0.465
Mof_O 	O 	0.4686	0.12452	0.2	-0.437
Mof_O 	O 	0.4067	0.22143	0.1038	-0.452
Mof_O 	O 	0.3654	0.00073	0.115	-0.411
Mof_O 	O 	0.1151	0.98926	0.1851	-0.461
Mof_O 	O 	0.1818	0.04663	0.954	-0.446
Mof_Zn	Zn	0.05845	0.45152	0.2792	1.239
Mof_P 	P 	0.06874	0.31449	0.24498	0.463
Mof_H 	H 	0.957	0.2908	0.313	-0.04
Mof_P 	P 	0.28244	0.50385	0.05607	0.445
Mof_H 	H 	0.285	0.5534	0.963	-0.047
Mof_O 	O 	0.1852	0.31283	0.3613	-0.465
Mof_O 	O 	0.0314	0.37548	0.2	-0.437
Mof_O 	O 	0.0933	0.27857	0.1038	-0.451
Mof_O 	O 	0.1346	0.49927	0.115	-0.412
Mof_O 	O 	0.3849	0.51074	0.1851	-0.462
Mof_O 	O 	0.3182	0.45337	0.954	-0.445
Mof_Zn	Zn	0.44155	0.45152	0.7792	1.239
Mof_P 	P 	0.43126	0.31449	0.74498	0.463
Mof_H 	H 	0.543	0.2908	0.813	-0.041
Mof_P 	P 	0.21756	0.50385	0.55607	0.443
Mof_H 	H 	0.215	0.5534	0.463	-0.047
Mof_O 	O 	0.3148	0.31283	0.8613	-0.467
Mof_O 	O 	0.4686	0.37548	0.7	-0.438
Mof_O 	O 	0.4067	0.27857	0.6038	-0.454
Mof_O 	O 	0.3654	0.49927	0.615	-0.412
Mof_O 	O 	0.1151	0.51074	0.6851	-0.462
Mof_O 	O 	0.1818	0.45337	0.454	-0.444
Mof_Zn	Zn	0.05845	0.04848	0.7792	1.238
Mof_P 	P 	0.06874	0.18551	0.74498	0.461
Mof_H 	H 	0.957	0.2092	0.813	-0.04
Mof_P 	P 	0.28244	0.99615	0.55607	0.444
Mof_H 	H 	0.285	0.9466	0.463	-0.047
Mof_O 	O 	0.1852	0.18717	0.8613	-0.467
Mof_O 	O 	0.0314	0.12452	0.7	-0.438
Mof_O 	O 	0.0933	0.22143	0.6038	-0.454
Mof_O 	O 	0.1346	0.00073	0.615	-0.413
Mof_O 	O 	0.3849	0.98926	0.6851	-0.462
Mof_O 	O 	0.3182	0.04663	0.454	-0.444
Mof_Zn	Zn	0.55845	0.95152	0.7208	1.239
Mof_P 	P 	0.56874	0.81449	0.75502	0.463
Mof_H 	H 	0.457	0.7908	0.687	-0.04
Mof_P 	P 	0.78244	0.00385	0.94393	0.443
Mof_H 	H 	0.785	0.0534	0.037	-0.046
Mof_O 	O 	0.6852	0.81283	0.6387	-0.465
Mof_O 	O 	0.5314	0.87548	0.8	-0.437
Mof_O 	O 	0.5933	0.77857	0.8962	-0.452
Mof_O 	O 	0.6346	0.99927	0.885	-0.411
Mof_O 	O 	0.8849	0.01074	0.8149	-0.461
Mof_O 	O 	0.8182	0.95337	0.046	-0.446
Mof_Zn	Zn	0.94155	0.54848	0.7208	1.239
Mof_P 	P 	0.93126	0.68551	0.75502	0.463
Mof_H 	H 	0.043	0.7092	0.687	-0.04
Mof_P 	P 	0.71756	0.49615	0.94393	0.445
Mof_H 	H 	0.715	0.4466	0.037	-0.047
Mof_O 	O 	0.8148	0.68717	0.6387	-0.465
Mof_O 	O 	0.9686	0.62452	0.8	-0.437
Mof_O 	O 	0.9067	0.72143	0.8962	-0.451
Mof_O 	O 	0.8654	0.50073	0.885	-0.412
Mof_O 	O 	0.6151	0.48926	0.8149	-0.462
Mof_O 	O 	0.6818	0.54663	0.046	-0.445
Mof_Zn	Zn	0.75	0.75	0.50939	1.234
Mof_Zn	Zn	0.25	0.25	0.99061	1.232
Mof_Zn	Zn	0.25	0.25	0.49061	1.234
Mof_Zn	Zn	0.75	0.75	0.00939	1.232
_end
