data_functionalizedCrystal
_audit_creation_method	'EQeq! by Chris Wilmer'
_symmetry_space_group_name_H-M	'P1'
_symmetry_Int_Tables_number	1
_symmetry_cell_setting	triclinic
loop_
_symmetry_equiv_pos_as_xyz
  x,y,z
_cell_length_a	10.7621
_cell_length_b	21.2484
_cell_length_c	15.5667
_cell_angle_alpha	90
_cell_angle_beta	102.881
_cell_angle_gamma	90
loop_
_atom_site_label
_atom_site_type_symbol
_atom_site_fract_x
_atom_site_fract_y
_atom_site_fract_z
_atom_site_charge
Mof_C 	C 	0.91827	0.29299	0.01598	0.088
Mof_H 	H 	0.8979	0.2504	0.013	0.043
Mof_C 	C 	0.039	0.37928	0.09123	-0.173
Mof_H 	H 	0.0987	0.3949	0.1391	0.104
Mof_C 	C 	0.8923	0.39635	0.95176	-0.104
Mof_H 	H 	0.8537	0.4235	0.9068	0.091
Mof_C 	C 	0.85999	0.33323	0.94797	-0.058
Mof_C 	C 	0.9828	0.41902	0.02306	0.224
Mof_O 	O 	0.0328	0.2179	0.16309	-0.505
Mof_O 	O 	0.14232	0.30138	0.22665	-0.251
Mof_C 	C 	0.00601	0.31602	0.08771	-0.106
Mof_C 	C 	0.0639	0.27351	0.16419	0.375
Mof_N 	N 	0.02326	0.48334	0.0324	-0.161
Mof_O 	O 	0.76566	0.25101	0.85599	-0.227
Mof_C 	C 	0.7623	0.30985	0.87001	0.365
Mof_O 	O 	0.68839	0.34842	0.82552	-0.483
Mof_C 	C 	0.41827	0.79299	0.01598	0.016
Mof_H 	H 	0.3979	0.7504	0.013	0.053
Mof_C 	C 	0.539	0.87928	0.09123	-0.067
Mof_H 	H 	0.5987	0.8949	0.1391	0.084
Mof_C 	C 	0.3923	0.89635	0.95176	-0.062
Mof_H 	H 	0.3537	0.9235	0.9068	0.064
Mof_C 	C 	0.35999	0.83323	0.94797	-0.072
Mof_C 	C 	0.4828	0.91902	0.02306	0.09
Mof_O 	O 	0.5328	0.7179	0.16309	-0.466
Mof_O 	O 	0.64232	0.80138	0.22665	-0.228
Mof_C 	C 	0.50601	0.81602	0.08771	-0.052
Mof_C 	C 	0.5639	0.77351	0.16419	0.37
Mof_N 	N 	0.52326	0.98334	0.0324	-0.088
Mof_O 	O 	0.26566	0.75101	0.85599	-0.246
Mof_C 	C 	0.2623	0.80985	0.87001	0.365
Mof_O 	O 	0.18839	0.84842	0.82552	-0.507
Mof_C 	C 	0.08173	0.29299	0.48402	-0.064
Mof_H 	H 	0.1021	0.2504	0.487	0.063
Mof_C 	C 	0.961	0.37928	0.40877	0.042
Mof_H 	H 	0.9013	0.3949	0.3609	0.053
Mof_C 	C 	0.1077	0.39635	0.54824	-0.017
Mof_H 	H 	0.1463	0.4235	0.5932	0.046
Mof_C 	C 	0.14001	0.33323	0.55203	-0.075
Mof_C 	C 	0.0172	0.41902	0.47694	-0.05
Mof_O 	O 	0.9672	0.2179	0.33691	-0.43
Mof_O 	O 	0.85768	0.30138	0.27335	-0.219
Mof_C 	C 	0.99399	0.31602	0.41229	-0
Mof_C 	C 	0.9361	0.27351	0.33581	0.364
Mof_N 	N 	0.97674	0.48334	0.4676	-0.017
Mof_O 	O 	0.23434	0.25101	0.64401	-0.247
Mof_C 	C 	0.2377	0.30985	0.62999	0.363
Mof_O 	O 	0.31161	0.34842	0.67448	-0.492
Mof_C 	C 	0.58173	0.79299	0.48402	0.014
Mof_H 	H 	0.6021	0.7504	0.487	0.053
Mof_C 	C 	0.461	0.87928	0.40877	-0.067
Mof_H 	H 	0.4013	0.8949	0.3609	0.075
Mof_C 	C 	0.6077	0.89635	0.54824	-0.063
Mof_H 	H 	0.6463	0.9235	0.5932	0.073
Mof_C 	C 	0.64001	0.83323	0.55203	-0.063
Mof_C 	C 	0.5172	0.91902	0.47694	0.09
Mof_O 	O 	0.4672	0.7179	0.33691	-0.472
Mof_O 	O 	0.35768	0.80138	0.27335	-0.242
Mof_C 	C 	0.49399	0.81602	0.41229	-0.056
Mof_C 	C 	0.4361	0.77351	0.33581	0.37
Mof_N 	N 	0.47674	0.98334	0.4676	-0.091
Mof_O 	O 	0.73434	0.75101	0.64401	-0.229
Mof_C 	C 	0.7377	0.80985	0.62999	0.363
Mof_O 	O 	0.81161	0.84842	0.67448	-0.467
Mof_C 	C 	0.08173	0.70701	0.98402	-0.066
Mof_H 	H 	0.1021	0.7496	0.987	0.064
Mof_C 	C 	0.961	0.62072	0.90877	0.043
Mof_H 	H 	0.9013	0.6051	0.8609	0.052
Mof_C 	C 	0.1077	0.60365	0.04824	-0.016
Mof_H 	H 	0.1463	0.5765	0.0932	0.045
Mof_C 	C 	0.14001	0.66677	0.05203	-0.074
Mof_C 	C 	0.0172	0.58098	0.97694	-0.052
Mof_O 	O 	0.9672	0.7821	0.83691	-0.429
Mof_O 	O 	0.85768	0.69862	0.77335	-0.219
Mof_C 	C 	0.99399	0.68398	0.91229	0.001
Mof_C 	C 	0.9361	0.72649	0.83581	0.364
Mof_N 	N 	0.97674	0.51666	0.9676	-0.017
Mof_O 	O 	0.23434	0.74899	0.14401	-0.247
Mof_C 	C 	0.2377	0.69015	0.12999	0.362
Mof_O 	O 	0.31161	0.65158	0.17448	-0.492
Mof_C 	C 	0.58173	0.20701	0.98402	0.015
Mof_H 	H 	0.6021	0.2496	0.987	0.053
Mof_C 	C 	0.461	0.12072	0.90877	-0.067
Mof_H 	H 	0.4013	0.1051	0.8609	0.074
Mof_C 	C 	0.6077	0.10365	0.04824	-0.063
Mof_H 	H 	0.6463	0.0765	0.0932	0.073
Mof_C 	C 	0.64001	0.16677	0.05203	-0.063
Mof_C 	C 	0.5172	0.08098	0.97694	0.091
Mof_O 	O 	0.4672	0.2821	0.83691	-0.472
Mof_O 	O 	0.35768	0.19862	0.77335	-0.242
Mof_C 	C 	0.49399	0.18398	0.91229	-0.057
Mof_C 	C 	0.4361	0.22649	0.83581	0.37
Mof_N 	N 	0.47674	0.01666	0.9676	-0.091
Mof_O 	O 	0.73434	0.24899	0.14401	-0.229
Mof_C 	C 	0.7377	0.19015	0.12999	0.363
Mof_O 	O 	0.81161	0.15158	0.17448	-0.467
Mof_C 	C 	0.91827	0.70701	0.51598	0.094
Mof_H 	H 	0.8979	0.7496	0.513	0.044
Mof_C 	C 	0.039	0.62072	0.59123	-0.177
Mof_H 	H 	0.0987	0.6051	0.6391	0.105
Mof_C 	C 	0.8923	0.60365	0.45176	-0.107
Mof_H 	H 	0.8537	0.5765	0.4068	0.091
Mof_C 	C 	0.85999	0.66677	0.44797	-0.06
Mof_C 	C 	0.9828	0.58098	0.52306	0.23
Mof_O 	O 	0.0328	0.7821	0.66309	-0.506
Mof_O 	O 	0.14232	0.69862	0.72665	-0.251
Mof_C 	C 	0.00601	0.68398	0.58771	-0.108
Mof_C 	C 	0.0639	0.72649	0.66419	0.375
Mof_N 	N 	0.02326	0.51666	0.5324	-0.163
Mof_O 	O 	0.76566	0.74899	0.35599	-0.228
Mof_C 	C 	0.7623	0.69015	0.37001	0.366
Mof_O 	O 	0.68839	0.65158	0.32552	-0.484
Mof_C 	C 	0.41827	0.20701	0.51598	0.015
Mof_H 	H 	0.3979	0.2496	0.513	0.054
Mof_C 	C 	0.539	0.12072	0.59123	-0.067
Mof_H 	H 	0.5987	0.1051	0.6391	0.084
Mof_C 	C 	0.3923	0.10365	0.45176	-0.062
Mof_H 	H 	0.3537	0.0765	0.4068	0.064
Mof_C 	C 	0.35999	0.16677	0.44797	-0.071
Mof_C 	C 	0.4828	0.08098	0.52306	0.09
Mof_O 	O 	0.5328	0.2821	0.66309	-0.466
Mof_O 	O 	0.64232	0.19862	0.72665	-0.228
Mof_C 	C 	0.50601	0.18398	0.58771	-0.052
Mof_C 	C 	0.5639	0.22649	0.66419	0.37
Mof_N 	N 	0.52326	0.01666	0.5324	-0.088
Mof_O 	O 	0.26566	0.24899	0.35599	-0.245
Mof_C 	C 	0.2623	0.19015	0.37001	0.365
Mof_O 	O 	0.18839	0.15158	0.32552	-0.506
Mof_Mg	Mg	1.65807e-33	0.1486	0.25	1.455
Mof_Mg	Mg	0.5	0.6486	0.25	1.461
Mof_Mg	Mg	-3.27612e-17	0.8514	0.75	1.454
Mof_Mg	Mg	0.5	0.3514	0.75	1.461
_end
