data_functionalizedCrystal
_audit_creation_method	'EQeq! by Chris Wilmer'
_symmetry_space_group_name_H-M	'P1'
_symmetry_Int_Tables_number	1
_symmetry_cell_setting	triclinic
loop_
_symmetry_equiv_pos_as_xyz
  x,y,z
_cell_length_a	26.564
_cell_length_b	26.564
_cell_length_c	5.024
_cell_angle_alpha	90
_cell_angle_beta	90
_cell_angle_gamma	90
loop_
_atom_site_label
_atom_site_type_symbol
_atom_site_fract_x
_atom_site_fract_y
_atom_site_fract_z
_atom_site_charge
Mof_Zn	Zn	0.27318	0.21387	0.9055	1.234
Mof_O 	O 	0.2196	0.2534	0.078	-0.993
Mof_H 	H 	0.1986	0.2645	0.9643	0.387
Mof_N 	N 	0.2571	0.1407	0.894	-0.359
Mof_C 	C 	0.271	0.103	0.044	0.501
Mof_H 	H 	0.2968	0.1049	0.1687	-0.095
Mof_N 	N 	0.2436	0.0608	0.997	-0.359
Mof_C 	C 	0.214	0.1202	0.725	-0.01
Mof_O 	O 	0.2765	0.8341	0.377	-0.471
Mof_C 	C 	0.1843	0.1422	0.531	0.108
Mof_H 	H 	0.1891	0.1757	0.4834	0.011
Mof_O 	O 	0.312	0.8774	0.687	-0.449
Mof_C 	C 	0.1475	0.1137	0.409	-0.145
Mof_C 	C 	0.1173	0.1347	0.214	0.288
Mof_H 	H 	0.1225	0.1682	0.1682	-0.091
Mof_C 	C 	0.0799	0.1082	0.086	-0.383
Mof_H 	H 	0.0599	0.1227	0.9547	0.083
Mof_C 	C 	0.0743	0.0588	0.164	0.245
Mof_H 	H 	0.0496	0.0391	0.0833	-0.076
Mof_C 	C 	0.1044	0.0379	0.358	-0.418
Mof_H 	H 	0.0992	0.0044	0.4044	0.121
Mof_C 	C 	0.1419	0.0643	0.4867	0.237
Mof_C 	C 	0.1714	0.0421	0.681	-0.318
Mof_H 	H 	0.1673	0.0084	0.7253	0.143
Mof_C 	C 	0.207	0.0713	0.808	0.217
Mof_C 	C 	0.2578	0.0131	0.116	0.122
Mof_C 	C 	0.2843	0.9227	0.333	0.497
Mof_C 	C 	0.2803	0.0111	0.364	16.697
Mof_H 	H 	0.2863	0.0409	0.4556	-5.773
Mof_C 	C 	0.2939	0.966	0.477	-15.431
Mof_H 	H 	0.3089	0.9647	0.6439	5.389
Mof_C 	C 	0.2619	0.923	0.086	-12.883
Mof_H 	H 	0.2558	0.8932	0.9941	4.305
Mof_C 	C 	0.249	0.969	0.98	13.864
Mof_H 	H 	0.234	0.9703	0.8125	-4.807
Mof_C 	C 	0.3022	0.8725	0.441	0.171
Mof_O 	O 	0.342	0.869	0.572	-0.08
Mof_C 	C 	0.3076	0.0032	0.167	-16.304
Mof_H 	H 	0.3318	0.0274	0.1274	5.751
Mof_C 	C 	0.3225	0.9573	0.278	14.82
Mof_H 	H 	0.3561	0.9502	0.314	-5.161
Mof_C 	C 	0.2327	0.9293	0.287	13.116
Mof_H 	H 	0.2084	0.9052	0.3257	-4.599
Mof_C 	C 	0.2221	0.9764	0.177	-13.902
Mof_H 	H 	0.1886	0.9839	0.1413	4.861
Mof_Zn	Zn	0.77318	0.71387	0.4055	1.219
Mof_O 	O 	0.7196	0.7534	0.578	-0.804
Mof_H 	H 	0.6986	0.7645	0.4643	0.282
Mof_N 	N 	0.7571	0.6407	0.394	-0.288
Mof_C 	C 	0.771	0.603	0.544	0.1
Mof_H 	H 	0.7968	0.6049	0.6687	0.02
Mof_N 	N 	0.7436	0.5608	0.497	-0.15
Mof_C 	C 	0.714	0.6202	0.225	0.058
Mof_O 	O 	0.7765	0.3341	0.877	-0.566
Mof_C 	C 	0.6843	0.6422	0.031	-0.329
Mof_H 	H 	0.6891	0.6757	0.9834	0.165
Mof_O 	O 	0.812	0.3774	0.187	-0.316
Mof_C 	C 	0.6475	0.6137	0.909	0.174
Mof_C 	C 	0.6173	0.6347	0.714	-0.139
Mof_H 	H 	0.6225	0.6682	0.6682	0.067
Mof_C 	C 	0.5799	0.6082	0.586	0.022
Mof_H 	H 	0.5599	0.6227	0.4547	-0.028
Mof_C 	C 	0.5743	0.5588	0.664	-0.047
Mof_H 	H 	0.5496	0.5391	0.5833	0.03
Mof_C 	C 	0.6044	0.5379	0.858	-0.146
Mof_H 	H 	0.5992	0.5044	0.9044	0.068
Mof_C 	C 	0.6419	0.5643	0.9867	0.108
Mof_C 	C 	0.6714	0.5421	0.181	-0.238
Mof_H 	H 	0.6673	0.5084	0.2253	0.106
Mof_C 	C 	0.707	0.5713	0.308	0.09
Mof_C 	C 	0.7578	0.5131	0.616	0.043
Mof_C 	C 	0.7843	0.4227	0.833	-0.105
Mof_C 	C 	0.7803	0.5111	0.864	4.132
Mof_H 	H 	0.7863	0.5409	0.9556	-1.32
Mof_C 	C 	0.7939	0.466	0.977	-3.388
Mof_H 	H 	0.8089	0.4647	0.1439	1.084
Mof_C 	C 	0.7619	0.423	0.586	-4.306
Mof_H 	H 	0.7558	0.3932	0.4941	1.509
Mof_C 	C 	0.749	0.469	0.48	4.662
Mof_H 	H 	0.734	0.4703	0.3125	-1.635
Mof_C 	C 	0.8022	0.3725	0.941	0.653
Mof_O 	O 	0.842	0.369	0.072	-0.405
Mof_C 	C 	0.8076	0.5032	0.667	-4.264
Mof_H 	H 	0.8318	0.5274	0.6274	1.528
Mof_C 	C 	0.8225	0.4573	0.778	3.676
Mof_H 	H 	0.8561	0.4502	0.814	-1.204
Mof_C 	C 	0.7327	0.4293	0.787	4.326
Mof_H 	H 	0.7084	0.4052	0.8257	-1.504
Mof_C 	C 	0.7221	0.4764	0.677	-4.617
Mof_H 	H 	0.6886	0.4839	0.6413	1.628
Mof_Zn	Zn	0.72682	0.78613	0.9055	1.233
Mof_O 	O 	0.7804	0.7466	0.078	-0.994
Mof_H 	H 	0.8014	0.7355	0.9643	0.386
Mof_N 	N 	0.7429	0.8593	0.894	-0.36
Mof_C 	C 	0.729	0.897	0.044	0.5
Mof_H 	H 	0.7032	0.8951	0.1687	-0.096
Mof_N 	N 	0.7564	0.9392	0.997	-0.36
Mof_C 	C 	0.786	0.8798	0.725	-0.011
Mof_O 	O 	0.7235	0.1659	0.377	-0.472
Mof_C 	C 	0.8157	0.8578	0.531	0.107
Mof_H 	H 	0.8109	0.8243	0.4834	0.01
Mof_O 	O 	0.688	0.1226	0.687	-0.45
Mof_C 	C 	0.8525	0.8863	0.409	-0.146
Mof_C 	C 	0.8827	0.8653	0.214	0.287
Mof_H 	H 	0.8775	0.8318	0.1682	-0.092
Mof_C 	C 	0.9201	0.8918	0.086	-0.384
Mof_H 	H 	0.9401	0.8773	0.9547	0.083
Mof_C 	C 	0.9257	0.9412	0.164	0.245
Mof_H 	H 	0.9504	0.9609	0.0833	-0.076
Mof_C 	C 	0.8956	0.9621	0.358	-0.418
Mof_H 	H 	0.9008	0.9956	0.4044	0.121
Mof_C 	C 	0.8581	0.9357	0.4867	0.237
Mof_C 	C 	0.8286	0.9579	0.681	-0.318
Mof_H 	H 	0.8327	0.9916	0.7253	0.143
Mof_C 	C 	0.793	0.9287	0.808	0.217
Mof_C 	C 	0.7422	0.9869	0.116	0.122
Mof_C 	C 	0.7157	0.0773	0.333	0.497
Mof_C 	C 	0.7197	0.9889	0.364	16.697
Mof_H 	H 	0.7137	0.9591	0.4556	-5.773
Mof_C 	C 	0.7061	0.034	0.477	-15.431
Mof_H 	H 	0.6911	0.0353	0.6439	5.389
Mof_C 	C 	0.7381	0.077	0.086	-12.883
Mof_H 	H 	0.7442	0.1068	0.9941	4.305
Mof_C 	C 	0.751	0.031	0.98	13.864
Mof_H 	H 	0.766	0.0297	0.8125	-4.807
Mof_C 	C 	0.6978	0.1275	0.441	0.171
Mof_O 	O 	0.658	0.131	0.572	-0.08
Mof_C 	C 	0.6924	0.9968	0.167	-16.304
Mof_H 	H 	0.6682	0.9726	0.1274	5.751
Mof_C 	C 	0.6775	0.0427	0.278	14.82
Mof_H 	H 	0.6439	0.0498	0.314	-5.161
Mof_C 	C 	0.7673	0.0707	0.287	13.116
Mof_H 	H 	0.7916	0.0948	0.3257	-4.599
Mof_C 	C 	0.7779	0.0236	0.177	-13.902
Mof_H 	H 	0.8114	0.0161	0.1413	4.861
Mof_Zn	Zn	0.22682	0.28613	0.4055	1.219
Mof_O 	O 	0.2804	0.2466	0.578	-0.804
Mof_H 	H 	0.3014	0.2355	0.4643	0.282
Mof_N 	N 	0.2429	0.3593	0.394	-0.288
Mof_C 	C 	0.229	0.397	0.544	0.1
Mof_H 	H 	0.2032	0.3951	0.6687	0.02
Mof_N 	N 	0.2564	0.4392	0.497	-0.15
Mof_C 	C 	0.286	0.3798	0.225	0.058
Mof_O 	O 	0.2235	0.6659	0.877	-0.566
Mof_C 	C 	0.3157	0.3578	0.031	-0.329
Mof_H 	H 	0.3109	0.3243	0.9834	0.165
Mof_O 	O 	0.188	0.6226	0.187	-0.316
Mof_C 	C 	0.3525	0.3863	0.909	0.174
Mof_C 	C 	0.3827	0.3653	0.714	-0.139
Mof_H 	H 	0.3775	0.3318	0.6682	0.067
Mof_C 	C 	0.4201	0.3918	0.586	0.022
Mof_H 	H 	0.4401	0.3773	0.4547	-0.028
Mof_C 	C 	0.4257	0.4412	0.664	-0.047
Mof_H 	H 	0.4504	0.4609	0.5833	0.03
Mof_C 	C 	0.3956	0.4621	0.858	-0.146
Mof_H 	H 	0.4008	0.4956	0.9044	0.068
Mof_C 	C 	0.3581	0.4357	0.9867	0.108
Mof_C 	C 	0.3286	0.4579	0.181	-0.238
Mof_H 	H 	0.3327	0.4916	0.2253	0.106
Mof_C 	C 	0.293	0.4287	0.308	0.09
Mof_C 	C 	0.2422	0.4869	0.616	0.043
Mof_C 	C 	0.2157	0.5773	0.833	-0.105
Mof_C 	C 	0.2197	0.4889	0.864	4.132
Mof_H 	H 	0.2137	0.4591	0.9556	-1.32
Mof_C 	C 	0.2061	0.534	0.977	-3.388
Mof_H 	H 	0.1911	0.5353	0.1439	1.084
Mof_C 	C 	0.2381	0.577	0.586	-4.306
Mof_H 	H 	0.2442	0.6068	0.4941	1.509
Mof_C 	C 	0.251	0.531	0.48	4.662
Mof_H 	H 	0.266	0.5297	0.3125	-1.635
Mof_C 	C 	0.1978	0.6275	0.941	0.653
Mof_O 	O 	0.158	0.631	0.072	-0.405
Mof_C 	C 	0.1924	0.4968	0.667	-4.264
Mof_H 	H 	0.1682	0.4726	0.6274	1.528
Mof_C 	C 	0.1775	0.5427	0.778	3.676
Mof_H 	H 	0.1439	0.5498	0.814	-1.204
Mof_C 	C 	0.2673	0.5707	0.787	4.326
Mof_H 	H 	0.2916	0.5948	0.8257	-1.504
Mof_C 	C 	0.2779	0.5236	0.677	-4.617
Mof_H 	H 	0.3114	0.5161	0.6413	1.628
Mof_Zn	Zn	0.21387	0.72682	0.0945	1.233
Mof_O 	O 	0.2534	0.7804	0.922	-0.994
Mof_H 	H 	0.2645	0.8014	0.0357	0.386
Mof_N 	N 	0.1407	0.7429	0.106	-0.36
Mof_C 	C 	0.103	0.729	0.956	0.5
Mof_H 	H 	0.1049	0.7032	0.8313	-0.096
Mof_N 	N 	0.0608	0.7564	0.003	-0.36
Mof_C 	C 	0.1202	0.786	0.275	-0.011
Mof_O 	O 	0.8341	0.7235	0.623	-0.472
Mof_C 	C 	0.1422	0.8157	0.469	0.107
Mof_H 	H 	0.1757	0.8109	0.5166	0.01
Mof_O 	O 	0.8774	0.688	0.313	-0.45
Mof_C 	C 	0.1137	0.8525	0.591	-0.146
Mof_C 	C 	0.1347	0.8827	0.786	0.287
Mof_H 	H 	0.1682	0.8775	0.8318	-0.092
Mof_C 	C 	0.1082	0.9201	0.914	-0.384
Mof_H 	H 	0.1227	0.9401	0.0453	0.083
Mof_C 	C 	0.0588	0.9257	0.836	0.245
Mof_H 	H 	0.0391	0.9504	0.9167	-0.076
Mof_C 	C 	0.0379	0.8956	0.642	-0.418
Mof_H 	H 	0.0044	0.9008	0.5956	0.121
Mof_C 	C 	0.0643	0.8581	0.5133	0.237
Mof_C 	C 	0.0421	0.8286	0.319	-0.318
Mof_H 	H 	0.0084	0.8327	0.2747	0.143
Mof_C 	C 	0.0713	0.793	0.192	0.217
Mof_C 	C 	0.0131	0.7422	0.884	0.122
Mof_C 	C 	0.9227	0.7157	0.667	0.497
Mof_C 	C 	0.0111	0.7197	0.636	16.697
Mof_H 	H 	0.0409	0.7137	0.5444	-5.773
Mof_C 	C 	0.966	0.7061	0.523	-15.431
Mof_H 	H 	0.9647	0.6911	0.3561	5.389
Mof_C 	C 	0.923	0.7381	0.914	-12.883
Mof_H 	H 	0.8932	0.7442	0.0059	4.305
Mof_C 	C 	0.969	0.751	0.02	13.864
Mof_H 	H 	0.9703	0.766	0.1875	-4.807
Mof_C 	C 	0.8725	0.6978	0.559	0.171
Mof_O 	O 	0.869	0.658	0.428	-0.08
Mof_C 	C 	0.0032	0.6924	0.833	-16.304
Mof_H 	H 	0.0274	0.6682	0.8726	5.751
Mof_C 	C 	0.9573	0.6775	0.722	14.82
Mof_H 	H 	0.9502	0.6439	0.686	-5.161
Mof_C 	C 	0.9293	0.7673	0.713	13.116
Mof_H 	H 	0.9052	0.7916	0.6743	-4.599
Mof_C 	C 	0.9764	0.7779	0.823	-13.902
Mof_H 	H 	0.9839	0.8114	0.8587	4.861
Mof_Zn	Zn	0.71387	0.22682	0.5945	1.219
Mof_O 	O 	0.7534	0.2804	0.422	-0.804
Mof_H 	H 	0.7645	0.3014	0.5357	0.282
Mof_N 	N 	0.6407	0.2429	0.606	-0.288
Mof_C 	C 	0.603	0.229	0.456	0.1
Mof_H 	H 	0.6049	0.2032	0.3313	0.02
Mof_N 	N 	0.5608	0.2564	0.503	-0.15
Mof_C 	C 	0.6202	0.286	0.775	0.058
Mof_O 	O 	0.3341	0.2235	0.123	-0.566
Mof_C 	C 	0.6422	0.3157	0.969	-0.329
Mof_H 	H 	0.6757	0.3109	0.0166	0.165
Mof_O 	O 	0.3774	0.188	0.813	-0.316
Mof_C 	C 	0.6137	0.3525	0.091	0.174
Mof_C 	C 	0.6347	0.3827	0.286	-0.139
Mof_H 	H 	0.6682	0.3775	0.3318	0.067
Mof_C 	C 	0.6082	0.4201	0.414	0.022
Mof_H 	H 	0.6227	0.4401	0.5453	-0.028
Mof_C 	C 	0.5588	0.4257	0.336	-0.047
Mof_H 	H 	0.5391	0.4504	0.4167	0.03
Mof_C 	C 	0.5379	0.3956	0.142	-0.146
Mof_H 	H 	0.5044	0.4008	0.0956	0.068
Mof_C 	C 	0.5643	0.3581	0.0133	0.108
Mof_C 	C 	0.5421	0.3286	0.819	-0.238
Mof_H 	H 	0.5084	0.3327	0.7747	0.106
Mof_C 	C 	0.5713	0.293	0.692	0.09
Mof_C 	C 	0.5131	0.2422	0.384	0.043
Mof_C 	C 	0.4227	0.2157	0.167	-0.105
Mof_C 	C 	0.5111	0.2197	0.136	4.132
Mof_H 	H 	0.5409	0.2137	0.0444	-1.32
Mof_C 	C 	0.466	0.2061	0.023	-3.388
Mof_H 	H 	0.4647	0.1911	0.8561	1.084
Mof_C 	C 	0.423	0.2381	0.414	-4.306
Mof_H 	H 	0.3932	0.2442	0.5059	1.509
Mof_C 	C 	0.469	0.251	0.52	4.662
Mof_H 	H 	0.4703	0.266	0.6875	-1.635
Mof_C 	C 	0.3725	0.1978	0.059	0.653
Mof_O 	O 	0.369	0.158	0.928	-0.405
Mof_C 	C 	0.5032	0.1924	0.333	-4.264
Mof_H 	H 	0.5274	0.1682	0.3726	1.528
Mof_C 	C 	0.4573	0.1775	0.222	3.676
Mof_H 	H 	0.4502	0.1439	0.186	-1.204
Mof_C 	C 	0.4293	0.2673	0.213	4.326
Mof_H 	H 	0.4052	0.2916	0.1743	-1.504
Mof_C 	C 	0.4764	0.2779	0.323	-4.617
Mof_H 	H 	0.4839	0.3114	0.3587	1.628
Mof_Zn	Zn	0.78613	0.27318	0.0945	1.233
Mof_O 	O 	0.7466	0.2196	0.922	-0.994
Mof_H 	H 	0.7355	0.1986	0.0357	0.386
Mof_N 	N 	0.8593	0.2571	0.106	-0.36
Mof_C 	C 	0.897	0.271	0.956	0.5
Mof_H 	H 	0.8951	0.2968	0.8313	-0.096
Mof_N 	N 	0.9392	0.2436	0.003	-0.36
Mof_C 	C 	0.8798	0.214	0.275	-0.011
Mof_O 	O 	0.1659	0.2765	0.623	-0.472
Mof_C 	C 	0.8578	0.1843	0.469	0.107
Mof_H 	H 	0.8243	0.1891	0.5166	0.01
Mof_O 	O 	0.1226	0.312	0.313	-0.45
Mof_C 	C 	0.8863	0.1475	0.591	-0.146
Mof_C 	C 	0.8653	0.1173	0.786	0.287
Mof_H 	H 	0.8318	0.1225	0.8318	-0.092
Mof_C 	C 	0.8918	0.0799	0.914	-0.384
Mof_H 	H 	0.8773	0.0599	0.0453	0.083
Mof_C 	C 	0.9412	0.0743	0.836	0.245
Mof_H 	H 	0.9609	0.0496	0.9167	-0.076
Mof_C 	C 	0.9621	0.1044	0.642	-0.418
Mof_H 	H 	0.9956	0.0992	0.5956	0.121
Mof_C 	C 	0.9357	0.1419	0.5133	0.237
Mof_C 	C 	0.9579	0.1714	0.319	-0.318
Mof_H 	H 	0.9916	0.1673	0.2747	0.143
Mof_C 	C 	0.9287	0.207	0.192	0.217
Mof_C 	C 	0.9869	0.2578	0.884	0.122
Mof_C 	C 	0.0773	0.2843	0.667	0.497
Mof_C 	C 	0.9889	0.2803	0.636	16.697
Mof_H 	H 	0.9591	0.2863	0.5444	-5.773
Mof_C 	C 	0.034	0.2939	0.523	-15.431
Mof_H 	H 	0.0353	0.3089	0.3561	5.389
Mof_C 	C 	0.077	0.2619	0.914	-12.883
Mof_H 	H 	0.1068	0.2558	0.0059	4.305
Mof_C 	C 	0.031	0.249	0.02	13.864
Mof_H 	H 	0.0297	0.234	0.1875	-4.807
Mof_C 	C 	0.1275	0.3022	0.559	0.171
Mof_O 	O 	0.131	0.342	0.428	-0.08
Mof_C 	C 	0.9968	0.3076	0.833	-16.304
Mof_H 	H 	0.9726	0.3318	0.8726	5.751
Mof_C 	C 	0.0427	0.3225	0.722	14.82
Mof_H 	H 	0.0498	0.3561	0.686	-5.161
Mof_C 	C 	0.0707	0.2327	0.713	13.116
Mof_H 	H 	0.0948	0.2084	0.6743	-4.599
Mof_C 	C 	0.0236	0.2221	0.823	-13.902
Mof_H 	H 	0.0161	0.1886	0.8587	4.861
Mof_Zn	Zn	0.28613	0.77318	0.5945	1.219
Mof_O 	O 	0.2466	0.7196	0.422	-0.804
Mof_H 	H 	0.2355	0.6986	0.5357	0.282
Mof_N 	N 	0.3593	0.7571	0.606	-0.288
Mof_C 	C 	0.397	0.771	0.456	0.1
Mof_H 	H 	0.3951	0.7968	0.3313	0.02
Mof_N 	N 	0.4392	0.7436	0.503	-0.15
Mof_C 	C 	0.3798	0.714	0.775	0.058
Mof_O 	O 	0.6659	0.7765	0.123	-0.566
Mof_C 	C 	0.3578	0.6843	0.969	-0.329
Mof_H 	H 	0.3243	0.6891	0.0166	0.165
Mof_O 	O 	0.6226	0.812	0.813	-0.316
Mof_C 	C 	0.3863	0.6475	0.091	0.174
Mof_C 	C 	0.3653	0.6173	0.286	-0.139
Mof_H 	H 	0.3318	0.6225	0.3318	0.067
Mof_C 	C 	0.3918	0.5799	0.414	0.022
Mof_H 	H 	0.3773	0.5599	0.5453	-0.028
Mof_C 	C 	0.4412	0.5743	0.336	-0.047
Mof_H 	H 	0.4609	0.5496	0.4167	0.03
Mof_C 	C 	0.4621	0.6044	0.142	-0.146
Mof_H 	H 	0.4956	0.5992	0.0956	0.068
Mof_C 	C 	0.4357	0.6419	0.0133	0.108
Mof_C 	C 	0.4579	0.6714	0.819	-0.238
Mof_H 	H 	0.4916	0.6673	0.7747	0.106
Mof_C 	C 	0.4287	0.707	0.692	0.09
Mof_C 	C 	0.4869	0.7578	0.384	0.043
Mof_C 	C 	0.5773	0.7843	0.167	-0.105
Mof_C 	C 	0.4889	0.7803	0.136	4.132
Mof_H 	H 	0.4591	0.7863	0.0444	-1.32
Mof_C 	C 	0.534	0.7939	0.023	-3.388
Mof_H 	H 	0.5353	0.8089	0.8561	1.084
Mof_C 	C 	0.577	0.7619	0.414	-4.306
Mof_H 	H 	0.6068	0.7558	0.5059	1.509
Mof_C 	C 	0.531	0.749	0.52	4.662
Mof_H 	H 	0.5297	0.734	0.6875	-1.635
Mof_C 	C 	0.6275	0.8022	0.059	0.653
Mof_O 	O 	0.631	0.842	0.928	-0.405
Mof_C 	C 	0.4968	0.8076	0.333	-4.264
Mof_H 	H 	0.4726	0.8318	0.3726	1.528
Mof_C 	C 	0.5427	0.8225	0.222	3.676
Mof_H 	H 	0.5498	0.8561	0.186	-1.204
Mof_C 	C 	0.5707	0.7327	0.213	4.326
Mof_H 	H 	0.5948	0.7084	0.1743	-1.504
Mof_C 	C 	0.5236	0.7221	0.323	-4.617
Mof_H 	H 	0.5161	0.6886	0.3587	1.628
_end
