data_functionalizedCrystal
_audit_creation_method	'EQeq! by Chris Wilmer'
_symmetry_space_group_name_H-M	'P1'
_symmetry_Int_Tables_number	1
_symmetry_cell_setting	triclinic
loop_
_symmetry_equiv_pos_as_xyz
  x,y,z
_cell_length_a	24.038
_cell_length_b	23.217
_cell_length_c	15.263
_cell_angle_alpha	90
_cell_angle_beta	115.73
_cell_angle_gamma	90
loop_
_atom_site_label
_atom_site_type_symbol
_atom_site_fract_x
_atom_site_fract_y
_atom_site_fract_z
_atom_site_charge
Mof_C 	C 	0.7387	0.3802	0.2827	0.365
Mof_C 	C 	0.7327	0.4195	0.3602	-0.097
Mof_C 	C 	0.769	0.4676	0.393	0.032
Mof_H 	H 	0.797	0.4778	0.3667	0.04
Mof_C 	C 	0.7646	0.5017	0.4653	-0.103
Mof_C 	C 	0.7211	0.4872	0.5016	0.017
Mof_H 	H 	0.7171	0.5111	0.5492	0.042
Mof_C 	C 	0.6852	0.4396	0.4693	-0.086
Mof_H 	H 	0.6569	0.4301	0.4954	0.057
Mof_C 	C 	0.6893	0.4046	0.3981	0.017
Mof_H 	H 	0.6638	0.3715	0.375	0.036
Mof_C 	C 	0.8012	0.5564	0.4982	0.333
Mof_C 	C 	0.8533	0.7392	0.8302	0.405
Mof_C 	C 	0.9062	0.7662	0.917	-0.165
Mof_C 	C 	0.9645	0.7414	0.9525	0.115
Mof_H 	H 	0.97	0.7061	0.9257	0.016
Mof_C 	C 	0.0146	0.7677	0.0266	-0.174
Mof_C 	C 	0.0048	0.8185	0.0671	0.083
Mof_H 	H 	0.0389	0.8374	0.1168	0.011
Mof_C 	C 	0.9463	0.8417	0.0364	-0.177
Mof_H 	H 	0.9401	0.875	0.0673	0.083
Mof_C 	C 	0.8969	0.816	0.9602	0.108
Mof_H 	H 	0.8567	0.8322	0.9374	0.011
Mof_C 	C 	0.0787	0.7432	0.0557	0.376
Mof_C 	C 	0.6131	0.762	0.3654	0.358
Mof_C 	C 	0.5549	0.7342	0.3033	-0.126
Mof_C 	C 	0.5562	0.6745	0.2539	0.018
Mof_H 	H 	0.5967	0.6617	0.2569	0.04
Mof_C 	C 	0.503	0.6505	0.1815	-0.076
Mof_H 	H 	0.5054	0.6133	0.1574	0.056
Mof_C 	C 	0.5502	0.6775	0.3545	0.013
Mof_H 	H 	0.5848	0.6648	0.417	0.048
Mof_C 	C 	0.9522	0.5868	0.8106	0.106
Mof_H 	H 	0.9655	0.6253	0.8112	-0.007
Mof_C 	C 	0.9955	0.545	0.8641	-0.212
Mof_H 	H 	0.0378	0.555	0.899	0.097
Mof_C 	C 	0.9761	0.4883	0.866	0.207
Mof_C 	C 	0.9157	0.4759	0.8149	-0.233
Mof_H 	H 	0.9008	0.4381	0.8158	0.109
Mof_C 	C 	0.876	0.5187	0.7614	0.121
Mof_H 	H 	0.8339	0.5086	0.7237	-0.009
Mof_C 	C 	0.0209	0.4457	0.9319	-0.309
Mof_H 	H 	0.0524	0.4657	0.9892	0.132
Mof_H 	H 	0.9991	0.4178	0.9551	0.125
Mof_C 	C 	0.0525	0.4136	0.8776	0.073
Mof_H 	H 	0.0212	0.3912	0.8232	0.009
Mof_H 	H 	0.0713	0.4418	0.8499	0.013
Mof_C 	C 	0.1028	0.3725	0.9466	-0.25
Mof_H 	H 	0.0843	0.3444	0.9752	0.115
Mof_H 	H 	0.1347	0.3947	0.0003	0.091
Mof_C 	C 	0.1312	0.3417	0.8904	0.169
Mof_C 	C 	0.1776	0.3679	0.868	-0.177
Mof_H 	H 	0.1924	0.4053	0.8921	0.1
Mof_C 	C 	0.2013	0.3392	0.8116	0.084
Mof_H 	H 	0.2333	0.357	0.8005	0
Mof_C 	C 	0.1357	0.2617	0.7927	0.097
Mof_H 	H 	0.1202	0.2248	0.7665	0.004
Mof_C 	C 	0.1117	0.2885	0.8515	-0.19
Mof_H 	H 	0.0812	0.2692	0.8644	0.1
Mof_Co	Co	0.82369	0.63849	0.68548	1.17
Mof_Co	Co	0.71896	0.73913	0.68669	1.163
Mof_Co	Co	0.85174	0.65537	0.48761	1.151
Mof_N 	N 	0.8923	0.5739	0.7584	-0.239
Mof_N 	N 	0.1802	0.2861	0.7713	-0.224
Mof_O 	O 	0.7497	0.6896	0.5995	-0.566
Mof_O 	O 	0.7745	0.6944	0.4069	-0.577
Mof_O 	O 	0.7691	0.404	0.2399	-0.408
Mof_O 	O 	0.714	0.3333	0.2675	-0.422
Mof_O 	O 	0.791	0.5867	0.5603	-0.447
Mof_O 	O 	0.8376	0.5718	0.4619	-0.446
Mof_O 	O 	0.865	0.6908	0.8037	-0.452
Mof_O 	O 	0.8045	0.7667	0.7905	-0.44
Mof_O 	O 	0.1238	0.7769	0.0897	-0.431
Mof_O 	O 	0.0809	0.6896	0.0395	-0.467
Mof_O 	O 	0.658	0.7302	0.4093	-0.452
Mof_O 	O 	0.61391	0.81796	0.3722	-0.546
Mof_C 	C 	0.2387	0.8802	0.2827	0.362
Mof_C 	C 	0.2327	0.9195	0.3602	-0.093
Mof_C 	C 	0.269	0.9676	0.393	0.021
Mof_H 	H 	0.297	0.9778	0.3667	0.041
Mof_C 	C 	0.2646	0.0017	0.4653	-0.091
Mof_C 	C 	0.2211	0.9872	0.5016	0.001
Mof_H 	H 	0.2171	0.0111	0.5492	0.048
Mof_C 	C 	0.1852	0.9396	0.4693	-0.076
Mof_H 	H 	0.1569	0.9301	0.4954	0.053
Mof_C 	C 	0.1893	0.9046	0.3981	0.009
Mof_H 	H 	0.1638	0.8715	0.375	0.038
Mof_C 	C 	0.3012	0.0564	0.4982	0.33
Mof_C 	C 	0.3533	0.2392	0.8302	0.406
Mof_C 	C 	0.4062	0.2662	0.917	-0.167
Mof_C 	C 	0.4645	0.2414	0.9525	0.118
Mof_H 	H 	0.47	0.2061	0.9257	0.015
Mof_C 	C 	0.5146	0.2677	0.0266	-0.176
Mof_C 	C 	0.5048	0.3185	0.0671	0.089
Mof_H 	H 	0.5389	0.3374	0.1168	0.01
Mof_C 	C 	0.4463	0.3417	0.0364	-0.184
Mof_H 	H 	0.4401	0.375	0.0673	0.085
Mof_C 	C 	0.3969	0.316	0.9602	0.113
Mof_H 	H 	0.3567	0.3322	0.9374	0.009
Mof_C 	C 	0.5787	0.2432	0.0557	0.376
Mof_C 	C 	0.1131	0.262	0.3654	0.358
Mof_C 	C 	0.0549	0.2342	0.3033	-0.125
Mof_C 	C 	0.0562	0.1745	0.2539	0.019
Mof_H 	H 	0.0967	0.1617	0.2569	0.04
Mof_C 	C 	0.003	0.1505	0.1815	-0.079
Mof_H 	H 	0.0054	0.1133	0.1574	0.056
Mof_C 	C 	0.0502	0.1775	0.3545	0.011
Mof_H 	H 	0.0848	0.1648	0.417	0.049
Mof_C 	C 	0.4522	0.0868	0.8106	0.104
Mof_H 	H 	0.4655	0.1253	0.8112	-0.006
Mof_C 	C 	0.4955	0.045	0.8641	-0.207
Mof_H 	H 	0.5378	0.055	0.899	0.096
Mof_C 	C 	0.4761	0.9883	0.866	0.204
Mof_C 	C 	0.4157	0.9759	0.8149	-0.236
Mof_H 	H 	0.4008	0.9381	0.8158	0.11
Mof_C 	C 	0.376	0.0187	0.7614	0.125
Mof_H 	H 	0.3339	0.0086	0.7237	-0.009
Mof_C 	C 	0.5209	0.9457	0.9319	-0.307
Mof_H 	H 	0.5524	0.9657	0.9892	0.13
Mof_H 	H 	0.4991	0.9178	0.9551	0.124
Mof_C 	C 	0.5525	0.9136	0.8776	0.073
Mof_H 	H 	0.5212	0.8912	0.8232	0.01
Mof_H 	H 	0.5713	0.9418	0.8499	0.013
Mof_C 	C 	0.6028	0.8725	0.9466	-0.252
Mof_H 	H 	0.5843	0.8444	0.9752	0.115
Mof_H 	H 	0.6347	0.8947	0.0003	0.092
Mof_C 	C 	0.6312	0.8417	0.8904	0.17
Mof_C 	C 	0.6776	0.8679	0.868	-0.177
Mof_H 	H 	0.6924	0.9053	0.8921	0.099
Mof_C 	C 	0.7013	0.8392	0.8116	0.084
Mof_H 	H 	0.7333	0.857	0.8005	-0
Mof_C 	C 	0.6357	0.7617	0.7927	0.097
Mof_H 	H 	0.6202	0.7248	0.7665	0.004
Mof_C 	C 	0.6117	0.7885	0.8515	-0.19
Mof_H 	H 	0.5812	0.7692	0.8644	0.1
Mof_Co	Co	0.32369	0.13849	0.68548	1.17
Mof_Co	Co	0.21896	0.23913	0.68669	1.163
Mof_Co	Co	0.35174	0.15537	0.48761	1.151
Mof_N 	N 	0.3923	0.0739	0.7584	-0.239
Mof_N 	N 	0.6802	0.7861	0.7713	-0.224
Mof_O 	O 	0.2497	0.1896	0.5995	-0.566
Mof_O 	O 	0.2745	0.1944	0.4069	-0.577
Mof_O 	O 	0.2691	0.904	0.2399	-0.408
Mof_O 	O 	0.214	0.8333	0.2675	-0.422
Mof_O 	O 	0.291	0.0867	0.5603	-0.446
Mof_O 	O 	0.3376	0.0718	0.4619	-0.445
Mof_O 	O 	0.365	0.1908	0.8037	-0.452
Mof_O 	O 	0.3045	0.2667	0.7905	-0.441
Mof_O 	O 	0.6238	0.2769	0.0897	-0.431
Mof_O 	O 	0.5809	0.1896	0.0395	-0.467
Mof_O 	O 	0.158	0.2302	0.4093	-0.452
Mof_O 	O 	0.11391	0.31796	0.3722	-0.546
Mof_C 	C 	0.2613	0.3802	0.2173	0.373
Mof_C 	C 	0.2673	0.4195	0.1398	-0.127
Mof_C 	C 	0.231	0.4676	0.107	0.064
Mof_H 	H 	0.203	0.4778	0.1333	0.028
Mof_C 	C 	0.2354	0.5017	0.0347	-0.155
Mof_C 	C 	0.2789	0.4872	0.9984	0.11
Mof_H 	H 	0.2829	0.5111	0.9508	0.017
Mof_C 	C 	0.3148	0.4396	0.0307	-0.166
Mof_H 	H 	0.3431	0.4301	0.0046	0.076
Mof_C 	C 	0.3107	0.4046	0.1019	0.059
Mof_H 	H 	0.3362	0.3715	0.125	0.02
Mof_C 	C 	0.1988	0.5564	0.0018	0.326
Mof_C 	C 	0.1467	0.7392	0.6698	0.39
Mof_C 	C 	0.0938	0.7662	0.583	-0.128
Mof_C 	C 	0.0355	0.7414	0.5475	0.053
Mof_H 	H 	0.03	0.7061	0.5743	0.03
Mof_C 	C 	0.9854	0.7677	0.4734	-0.119
Mof_C 	C 	0.9952	0.8185	0.4329	0.039
Mof_H 	H 	0.9611	0.8374	0.3832	0.028
Mof_C 	C 	0.0537	0.8417	0.4636	-0.11
Mof_H 	H 	0.0599	0.875	0.4327	0.064
Mof_C 	C 	0.1031	0.816	0.5398	0.042
Mof_H 	H 	0.1433	0.8322	0.5626	0.027
Mof_C 	C 	0.9213	0.7432	0.4443	0.361
Mof_C 	C 	0.3869	0.762	0.1346	0.358
Mof_C 	C 	0.4451	0.7342	0.1967	-0.128
Mof_C 	C 	0.4438	0.6745	0.2461	0.019
Mof_H 	H 	0.4033	0.6617	0.2431	0.04
Mof_C 	C 	0.497	0.6505	0.3185	-0.075
Mof_H 	H 	0.4946	0.6133	0.3426	0.058
Mof_C 	C 	0.4498	0.6775	0.1455	0.012
Mof_H 	H 	0.4152	0.6648	0.083	0.043
Mof_C 	C 	0.0478	0.5868	0.6894	0.104
Mof_H 	H 	0.0345	0.6253	0.6888	-0.009
Mof_C 	C 	0.0045	0.545	0.6359	-0.214
Mof_H 	H 	0.9622	0.555	0.601	0.092
Mof_C 	C 	0.0239	0.4883	0.634	0.204
Mof_C 	C 	0.0843	0.4759	0.6851	-0.233
Mof_H 	H 	0.0992	0.4381	0.6842	0.108
Mof_C 	C 	0.124	0.5187	0.7386	0.121
Mof_H 	H 	0.1661	0.5086	0.7763	-0.007
Mof_C 	C 	0.9791	0.4457	0.5681	-0.311
Mof_H 	H 	0.9476	0.4657	0.5108	0.124
Mof_H 	H 	0.0009	0.4178	0.5449	0.12
Mof_C 	C 	0.9475	0.4136	0.6224	0.09
Mof_H 	H 	0.9788	0.3912	0.6768	0.005
Mof_H 	H 	0.9287	0.4418	0.6501	0.007
Mof_C 	C 	0.8972	0.3725	0.5534	-0.297
Mof_H 	H 	0.9157	0.3444	0.5248	0.121
Mof_H 	H 	0.8653	0.3947	0.4997	0.119
Mof_C 	C 	0.8688	0.3417	0.6096	0.182
Mof_C 	C 	0.8224	0.3679	0.632	-0.187
Mof_H 	H 	0.8076	0.4053	0.6079	0.098
Mof_C 	C 	0.7987	0.3392	0.6884	0.086
Mof_H 	H 	0.7667	0.357	0.6995	-0.003
Mof_C 	C 	0.8643	0.2617	0.7073	0.1
Mof_H 	H 	0.8798	0.2248	0.7335	0.002
Mof_C 	C 	0.8883	0.2885	0.6485	-0.2
Mof_H 	H 	0.9188	0.2692	0.6356	0.101
Mof_Co	Co	0.17631	0.63849	0.81452	1.17
Mof_Co	Co	0.28104	0.73913	0.81331	1.163
Mof_Co	Co	0.14826	0.65537	0.01239	1.145
Mof_N 	N 	0.1077	0.5739	0.7416	-0.238
Mof_N 	N 	0.8198	0.2861	0.7287	-0.226
Mof_O 	O 	0.2503	0.6896	0.9005	-0.558
Mof_O 	O 	0.2255	0.6944	0.0931	-0.581
Mof_O 	O 	0.2309	0.404	0.2601	-0.409
Mof_O 	O 	0.286	0.3333	0.2325	-0.425
Mof_O 	O 	0.209	0.5867	0.9397	-0.431
Mof_O 	O 	0.1624	0.5718	0.0381	-0.45
Mof_O 	O 	0.135	0.6908	0.6963	-0.45
Mof_O 	O 	0.1955	0.7667	0.7095	-0.438
Mof_O 	O 	0.8762	0.7769	0.4103	-0.423
Mof_O 	O 	0.9191	0.6896	0.4605	-0.457
Mof_O 	O 	0.342	0.7302	0.0907	-0.458
Mof_O 	O 	0.38609	0.81796	0.1278	-0.552
Mof_C 	C 	0.7613	0.8802	0.2173	0.371
Mof_C 	C 	0.7673	0.9195	0.1398	-0.12
Mof_C 	C 	0.731	0.9676	0.107	0.053
Mof_H 	H 	0.703	0.9778	0.1333	0.031
Mof_C 	C 	0.7354	0.0017	0.0347	-0.141
Mof_C 	C 	0.7789	0.9872	0.9984	0.089
Mof_H 	H 	0.7829	0.0111	0.9508	0.025
Mof_C 	C 	0.8148	0.9396	0.0307	-0.151
Mof_H 	H 	0.8431	0.9301	0.0046	0.071
Mof_C 	C 	0.8107	0.9046	0.1019	0.049
Mof_H 	H 	0.8362	0.8715	0.125	0.023
Mof_C 	C 	0.6988	0.0564	0.0018	0.322
Mof_C 	C 	0.6467	0.2392	0.6698	0.39
Mof_C 	C 	0.5938	0.2662	0.583	-0.128
Mof_C 	C 	0.5355	0.2414	0.5475	0.054
Mof_H 	H 	0.53	0.2061	0.5743	0.03
Mof_C 	C 	0.4854	0.2677	0.4734	-0.12
Mof_C 	C 	0.4952	0.3185	0.4329	0.038
Mof_H 	H 	0.4611	0.3374	0.3832	0.028
Mof_C 	C 	0.5537	0.3417	0.4636	-0.109
Mof_H 	H 	0.5599	0.375	0.4327	0.064
Mof_C 	C 	0.6031	0.316	0.5398	0.042
Mof_H 	H 	0.6433	0.3322	0.5626	0.027
Mof_C 	C 	0.4213	0.2432	0.4443	0.361
Mof_C 	C 	0.8869	0.262	0.1346	0.357
Mof_C 	C 	0.9451	0.2342	0.1967	-0.127
Mof_C 	C 	0.9438	0.1745	0.2461	0.018
Mof_H 	H 	0.9033	0.1617	0.2431	0.04
Mof_C 	C 	0.997	0.1505	0.3185	-0.073
Mof_H 	H 	0.9946	0.1133	0.3426	0.058
Mof_C 	C 	0.9498	0.1775	0.1455	0.014
Mof_H 	H 	0.9152	0.1648	0.083	0.042
Mof_C 	C 	0.5478	0.0868	0.6894	0.102
Mof_H 	H 	0.5345	0.1253	0.6888	-0.008
Mof_C 	C 	0.5045	0.045	0.6359	-0.209
Mof_H 	H 	0.4622	0.055	0.601	0.091
Mof_C 	C 	0.5239	0.9883	0.634	0.202
Mof_C 	C 	0.5843	0.9759	0.6851	-0.237
Mof_H 	H 	0.5992	0.9381	0.6842	0.109
Mof_C 	C 	0.624	0.0187	0.7386	0.125
Mof_H 	H 	0.6661	0.0086	0.7763	-0.007
Mof_C 	C 	0.4791	0.9457	0.5681	-0.311
Mof_H 	H 	0.4476	0.9657	0.5108	0.123
Mof_H 	H 	0.5009	0.9178	0.5449	0.121
Mof_C 	C 	0.4475	0.9136	0.6224	0.09
Mof_H 	H 	0.4788	0.8912	0.6768	0.005
Mof_H 	H 	0.4287	0.9418	0.6501	0.006
Mof_C 	C 	0.3972	0.8725	0.5534	-0.297
Mof_H 	H 	0.4157	0.8444	0.5248	0.121
Mof_H 	H 	0.3653	0.8947	0.4997	0.119
Mof_C 	C 	0.3688	0.8417	0.6096	0.182
Mof_C 	C 	0.3224	0.8679	0.632	-0.187
Mof_H 	H 	0.3076	0.9053	0.6079	0.098
Mof_C 	C 	0.2987	0.8392	0.6884	0.086
Mof_H 	H 	0.2667	0.857	0.6995	-0.003
Mof_C 	C 	0.3643	0.7617	0.7073	0.1
Mof_H 	H 	0.3798	0.7248	0.7335	0.002
Mof_C 	C 	0.3883	0.7885	0.6485	-0.2
Mof_H 	H 	0.4188	0.7692	0.6356	0.101
Mof_Co	Co	0.67631	0.13849	0.81452	1.17
Mof_Co	Co	0.78104	0.23913	0.81331	1.163
Mof_Co	Co	0.64826	0.15537	0.01239	1.145
Mof_N 	N 	0.6077	0.0739	0.7416	-0.238
Mof_N 	N 	0.3198	0.7861	0.7287	-0.226
Mof_O 	O 	0.7503	0.1896	0.9005	-0.558
Mof_O 	O 	0.7255	0.1944	0.0931	-0.581
Mof_O 	O 	0.7309	0.904	0.2601	-0.409
Mof_O 	O 	0.786	0.8333	0.2325	-0.425
Mof_O 	O 	0.709	0.0867	0.9397	-0.43
Mof_O 	O 	0.6624	0.0718	0.0381	-0.448
Mof_O 	O 	0.635	0.1908	0.6963	-0.45
Mof_O 	O 	0.6955	0.2667	0.7095	-0.438
Mof_O 	O 	0.3762	0.2769	0.4103	-0.423
Mof_O 	O 	0.4191	0.1896	0.4605	-0.457
Mof_O 	O 	0.842	0.2302	0.0907	-0.458
Mof_O 	O 	0.88609	0.31796	0.1278	-0.552
Mof_C 	C 	0.2613	0.6198	0.7173	0.365
Mof_C 	C 	0.2673	0.5805	0.6398	-0.097
Mof_C 	C 	0.231	0.5324	0.607	0.031
Mof_H 	H 	0.203	0.5222	0.6333	0.039
Mof_C 	C 	0.2354	0.4983	0.5347	-0.103
Mof_C 	C 	0.2789	0.5128	0.4984	0.017
Mof_H 	H 	0.2829	0.4889	0.4508	0.042
Mof_C 	C 	0.3148	0.5604	0.5307	-0.086
Mof_H 	H 	0.3431	0.5699	0.5046	0.057
Mof_C 	C 	0.3107	0.5954	0.6019	0.017
Mof_H 	H 	0.3362	0.6285	0.625	0.036
Mof_C 	C 	0.1988	0.4436	0.5018	0.334
Mof_C 	C 	0.1467	0.2608	0.1698	0.375
Mof_C 	C 	0.0938	0.2338	0.083	-0.088
Mof_C 	C 	0.0355	0.2586	0.0475	-0.01
Mof_H 	H 	0.03	0.2939	0.0743	0.045
Mof_C 	C 	0.9854	0.2323	0.9734	-0.062
Mof_C 	C 	0.9952	0.1815	0.9329	-0.013
Mof_H 	H 	0.9611	0.1626	0.8832	0.047
Mof_C 	C 	0.0537	0.1583	0.9636	-0.033
Mof_H 	H 	0.0599	0.125	0.9327	0.043
Mof_C 	C 	0.1031	0.184	0.0398	-0.03
Mof_H 	H 	0.1433	0.1678	0.0626	0.045
Mof_C 	C 	0.9213	0.2568	0.9443	0.345
Mof_C 	C 	0.3869	0.238	0.6346	0.358
Mof_C 	C 	0.4451	0.2658	0.6967	-0.125
Mof_C 	C 	0.4438	0.3255	0.7461	0.019
Mof_H 	H 	0.4033	0.3383	0.7431	0.041
Mof_C 	C 	0.497	0.3495	0.8185	-0.073
Mof_H 	H 	0.4946	0.3867	0.8426	0.061
Mof_C 	C 	0.4498	0.3225	0.6455	0.012
Mof_H 	H 	0.4152	0.3352	0.583	0.049
Mof_C 	C 	0.0478	0.4132	0.1894	0.101
Mof_H 	H 	0.0345	0.3747	0.1888	-0.01
Mof_C 	C 	0.0045	0.455	0.1359	-0.215
Mof_H 	H 	0.9622	0.445	0.101	0.088
Mof_C 	C 	0.0239	0.5117	0.134	0.2
Mof_C 	C 	0.0843	0.5241	0.1851	-0.233
Mof_H 	H 	0.0992	0.5619	0.1842	0.108
Mof_C 	C 	0.124	0.4813	0.2386	0.119
Mof_H 	H 	0.1661	0.4914	0.2763	-0.007
Mof_C 	C 	0.9791	0.5543	0.0681	-0.312
Mof_H 	H 	0.9476	0.5343	0.0108	0.116
Mof_H 	H 	0.0009	0.5822	0.0449	0.116
Mof_C 	C 	0.9475	0.5864	0.1224	0.105
Mof_H 	H 	0.9788	0.6088	0.1768	0.001
Mof_H 	H 	0.9287	0.5582	0.1501	0.001
Mof_C 	C 	0.8972	0.6275	0.0534	-0.342
Mof_H 	H 	0.9157	0.6556	0.0248	0.127
Mof_H 	H 	0.8653	0.6053	0.9997	0.146
Mof_C 	C 	0.8688	0.6583	0.1096	0.194
Mof_C 	C 	0.8224	0.6321	0.132	-0.198
Mof_H 	H 	0.8076	0.5947	0.1079	0.097
Mof_C 	C 	0.7987	0.6608	0.1884	0.089
Mof_H 	H 	0.7667	0.643	0.1995	-0.006
Mof_C 	C 	0.8643	0.7383	0.2073	0.103
Mof_H 	H 	0.8798	0.7752	0.2335	0.001
Mof_C 	C 	0.8883	0.7115	0.1485	-0.21
Mof_H 	H 	0.9188	0.7308	0.1356	0.103
Mof_Co	Co	0.17631	0.36151	0.31452	1.17
Mof_Co	Co	0.28104	0.26087	0.31331	1.163
Mof_Co	Co	0.14826	0.34463	0.51239	1.151
Mof_N 	N 	0.1077	0.4261	0.2416	-0.239
Mof_N 	N 	0.8198	0.7139	0.2287	-0.228
Mof_O 	O 	0.2503	0.3104	0.4005	-0.565
Mof_O 	O 	0.2255	0.3056	0.5931	-0.577
Mof_O 	O 	0.2309	0.596	0.7601	-0.406
Mof_O 	O 	0.286	0.6667	0.7325	-0.422
Mof_O 	O 	0.209	0.4133	0.4397	-0.447
Mof_O 	O 	0.1624	0.4282	0.5381	-0.446
Mof_O 	O 	0.135	0.3092	0.1963	-0.448
Mof_O 	O 	0.1955	0.2333	0.2095	-0.435
Mof_O 	O 	0.8762	0.2231	0.9103	-0.414
Mof_O 	O 	0.9191	0.3104	0.9605	-0.446
Mof_O 	O 	0.342	0.2698	0.5907	-0.452
Mof_O 	O 	0.38609	0.18204	0.6278	-0.546
Mof_C 	C 	0.7613	0.1198	0.7173	0.367
Mof_C 	C 	0.7673	0.0805	0.6398	-0.103
Mof_C 	C 	0.731	0.0324	0.607	0.041
Mof_H 	H 	0.703	0.0222	0.6333	0.037
Mof_C 	C 	0.7354	0.9983	0.5347	-0.115
Mof_C 	C 	0.7789	0.0128	0.4984	0.033
Mof_H 	H 	0.7829	0.9889	0.4508	0.035
Mof_C 	C 	0.8148	0.0604	0.5307	-0.096
Mof_H 	H 	0.8431	0.0699	0.5046	0.061
Mof_C 	C 	0.8107	0.0954	0.6019	0.024
Mof_H 	H 	0.8362	0.1285	0.625	0.034
Mof_C 	C 	0.6988	0.9436	0.5018	0.337
Mof_C 	C 	0.6467	0.7608	0.1698	0.375
Mof_C 	C 	0.5938	0.7338	0.083	-0.09
Mof_C 	C 	0.5355	0.7586	0.0475	-0.007
Mof_H 	H 	0.53	0.7939	0.0743	0.045
Mof_C 	C 	0.4854	0.7323	0.9734	-0.064
Mof_C 	C 	0.4952	0.6815	0.9329	-0.01
Mof_H 	H 	0.4611	0.6626	0.8832	0.046
Mof_C 	C 	0.5537	0.6583	0.9636	-0.036
Mof_H 	H 	0.5599	0.625	0.9327	0.044
Mof_C 	C 	0.6031	0.684	0.0398	-0.027
Mof_H 	H 	0.6433	0.6678	0.0626	0.044
Mof_C 	C 	0.4213	0.7568	0.9443	0.346
Mof_C 	C 	0.8869	0.738	0.6346	0.358
Mof_C 	C 	0.9451	0.7658	0.6967	-0.125
Mof_C 	C 	0.9438	0.8255	0.7461	0.018
Mof_H 	H 	0.9033	0.8383	0.7431	0.041
Mof_C 	C 	0.997	0.8495	0.8185	-0.072
Mof_H 	H 	0.9946	0.8867	0.8426	0.06
Mof_C 	C 	0.9498	0.8225	0.6455	0.013
Mof_H 	H 	0.9152	0.8352	0.583	0.048
Mof_C 	C 	0.5478	0.9132	0.1894	0.101
Mof_H 	H 	0.5345	0.8747	0.1888	-0.01
Mof_C 	C 	0.5045	0.955	0.1359	-0.217
Mof_H 	H 	0.4622	0.945	0.101	0.088
Mof_C 	C 	0.5239	0.0117	0.134	0.205
Mof_C 	C 	0.5843	0.0241	0.1851	-0.232
Mof_H 	H 	0.5992	0.0619	0.1842	0.107
Mof_C 	C 	0.624	0.9813	0.2386	0.116
Mof_H 	H 	0.6661	0.9914	0.2763	-0.007
Mof_C 	C 	0.4791	0.0543	0.0681	-0.319
Mof_H 	H 	0.4476	0.0343	0.0108	0.118
Mof_H 	H 	0.5009	0.0822	0.0449	0.119
Mof_C 	C 	0.4475	0.0864	0.1224	0.109
Mof_H 	H 	0.4788	0.1088	0.1768	-0
Mof_H 	H 	0.4287	0.0582	0.1501	-0
Mof_C 	C 	0.3972	0.1275	0.0534	-0.346
Mof_H 	H 	0.4157	0.1556	0.0248	0.128
Mof_H 	H 	0.3653	0.1053	0.9997	0.148
Mof_C 	C 	0.3688	0.1583	0.1096	0.196
Mof_C 	C 	0.3224	0.1321	0.132	-0.199
Mof_H 	H 	0.3076	0.0947	0.1079	0.098
Mof_C 	C 	0.2987	0.1608	0.1884	0.089
Mof_H 	H 	0.2667	0.143	0.1995	-0.006
Mof_C 	C 	0.3643	0.2383	0.2073	0.103
Mof_H 	H 	0.3798	0.2752	0.2335	0.001
Mof_C 	C 	0.3883	0.2115	0.1485	-0.211
Mof_H 	H 	0.4188	0.2308	0.1356	0.103
Mof_Co	Co	0.67631	0.86151	0.31452	1.17
Mof_Co	Co	0.78104	0.76087	0.31331	1.163
Mof_Co	Co	0.64826	0.84463	0.51239	1.151
Mof_N 	N 	0.6077	0.9261	0.2416	-0.239
Mof_N 	N 	0.3198	0.2139	0.2287	-0.228
Mof_O 	O 	0.7503	0.8104	0.4005	-0.566
Mof_O 	O 	0.7255	0.8056	0.5931	-0.577
Mof_O 	O 	0.7309	0.096	0.7601	-0.406
Mof_O 	O 	0.786	0.1667	0.7325	-0.422
Mof_O 	O 	0.709	0.9133	0.4397	-0.448
Mof_O 	O 	0.6624	0.9282	0.5381	-0.447
Mof_O 	O 	0.635	0.8092	0.1963	-0.448
Mof_O 	O 	0.6955	0.7333	0.2095	-0.435
Mof_O 	O 	0.3762	0.7231	0.9103	-0.414
Mof_O 	O 	0.4191	0.8104	0.9605	-0.447
Mof_O 	O 	0.842	0.7698	0.5907	-0.452
Mof_O 	O 	0.88609	0.68204	0.6278	-0.546
Mof_C 	C 	0.7387	0.6198	0.7827	0.356
Mof_C 	C 	0.7327	0.5805	0.8602	-0.07
Mof_C 	C 	0.769	0.5324	0.893	-0.001
Mof_H 	H 	0.797	0.5222	0.8667	0.05
Mof_C 	C 	0.7646	0.4983	0.9653	-0.052
Mof_C 	C 	0.7211	0.5128	0.0016	-0.072
Mof_H 	H 	0.7171	0.4889	0.0492	0.066
Mof_C 	C 	0.6852	0.5604	0.9693	-0.008
Mof_H 	H 	0.6569	0.5699	0.9954	0.039
Mof_C 	C 	0.6893	0.5954	0.8981	-0.023
Mof_H 	H 	0.6638	0.6285	0.875	0.052
Mof_C 	C 	0.8012	0.4436	0.9982	0.342
Mof_C 	C 	0.8533	0.2608	0.3302	0.391
Mof_C 	C 	0.9062	0.2338	0.417	-0.128
Mof_C 	C 	0.9645	0.2586	0.4525	0.055
Mof_H 	H 	0.97	0.2939	0.4257	0.03
Mof_C 	C 	0.0146	0.2323	0.5266	-0.12
Mof_C 	C 	0.0048	0.1815	0.5671	0.037
Mof_H 	H 	0.0389	0.1626	0.6168	0.029
Mof_C 	C 	0.9463	0.1583	0.5364	-0.108
Mof_H 	H 	0.9401	0.125	0.5673	0.064
Mof_C 	C 	0.8969	0.184	0.4602	0.042
Mof_H 	H 	0.8567	0.1678	0.4374	0.027
Mof_C 	C 	0.0787	0.2568	0.5557	0.361
Mof_C 	C 	0.6131	0.238	0.8654	0.357
Mof_C 	C 	0.5549	0.2658	0.8033	-0.124
Mof_C 	C 	0.5562	0.3255	0.7539	0.018
Mof_H 	H 	0.5967	0.3383	0.7569	0.041
Mof_C 	C 	0.503	0.3495	0.6815	-0.074
Mof_H 	H 	0.5054	0.3867	0.6574	0.059
Mof_C 	C 	0.5502	0.3225	0.8545	0.013
Mof_H 	H 	0.5848	0.3352	0.917	0.054
Mof_C 	C 	0.9522	0.4132	0.3106	0.102
Mof_H 	H 	0.9655	0.3747	0.3112	-0.008
Mof_C 	C 	0.9955	0.455	0.3641	-0.212
Mof_H 	H 	0.0378	0.445	0.399	0.091
Mof_C 	C 	0.9761	0.5117	0.366	0.206
Mof_C 	C 	0.9157	0.5241	0.3149	-0.234
Mof_H 	H 	0.9008	0.5619	0.3158	0.109
Mof_C 	C 	0.876	0.4813	0.2614	0.12
Mof_H 	H 	0.8339	0.4914	0.2237	-0.009
Mof_C 	C 	0.0209	0.5543	0.4319	-0.316
Mof_H 	H 	0.0524	0.5343	0.4892	0.125
Mof_H 	H 	0.9991	0.5822	0.4551	0.123
Mof_C 	C 	0.0525	0.5864	0.3776	0.092
Mof_H 	H 	0.0212	0.6088	0.3232	0.005
Mof_H 	H 	0.0713	0.5582	0.3499	0.006
Mof_C 	C 	0.1028	0.6275	0.4466	-0.298
Mof_H 	H 	0.0843	0.6556	0.4752	0.121
Mof_H 	H 	0.1347	0.6053	0.5003	0.119
Mof_C 	C 	0.1312	0.6583	0.3904	0.182
Mof_C 	C 	0.1776	0.6321	0.368	-0.188
Mof_H 	H 	0.1924	0.5947	0.3921	0.098
Mof_C 	C 	0.2013	0.6608	0.3116	0.086
Mof_H 	H 	0.2333	0.643	0.3005	-0.003
Mof_C 	C 	0.1357	0.7383	0.2927	0.1
Mof_H 	H 	0.1202	0.7752	0.2665	0.002
Mof_C 	C 	0.1117	0.7115	0.3515	-0.2
Mof_H 	H 	0.0812	0.7308	0.3644	0.101
Mof_Co	Co	0.82369	0.36151	0.18548	1.17
Mof_Co	Co	0.71896	0.26087	0.18669	1.163
Mof_Co	Co	0.85174	0.34463	0.98761	1.158
Mof_N 	N 	0.8923	0.4261	0.2584	-0.239
Mof_N 	N 	0.1802	0.7139	0.2713	-0.226
Mof_O 	O 	0.7497	0.3104	0.0995	-0.57
Mof_O 	O 	0.7745	0.3056	0.9069	-0.571
Mof_O 	O 	0.7691	0.596	0.7399	-0.405
Mof_O 	O 	0.714	0.6667	0.7675	-0.418
Mof_O 	O 	0.791	0.4133	0.0603	-0.462
Mof_O 	O 	0.8376	0.4282	0.9619	-0.442
Mof_O 	O 	0.865	0.3092	0.3037	-0.45
Mof_O 	O 	0.8045	0.2333	0.2905	-0.438
Mof_O 	O 	0.1238	0.2231	0.5897	-0.423
Mof_O 	O 	0.0809	0.3104	0.5395	-0.457
Mof_O 	O 	0.658	0.2698	0.9093	-0.443
Mof_O 	O 	0.61391	0.18204	0.8722	-0.539
Mof_C 	C 	0.2387	0.1198	0.7827	0.358
Mof_C 	C 	0.2327	0.0805	0.8602	-0.075
Mof_C 	C 	0.269	0.0324	0.893	0.009
Mof_H 	H 	0.297	0.0222	0.8667	0.048
Mof_C 	C 	0.2646	0.9983	0.9653	-0.063
Mof_C 	C 	0.2211	0.0128	0.0016	-0.06
Mof_H 	H 	0.2171	0.9889	0.0492	0.06
Mof_C 	C 	0.1852	0.0604	0.9693	-0.015
Mof_H 	H 	0.1569	0.0699	0.9954	0.042
Mof_C 	C 	0.1893	0.0954	0.8981	-0.017
Mof_H 	H 	0.1638	0.1285	0.875	0.05
Mof_C 	C 	0.3012	0.9436	0.9982	0.345
Mof_C 	C 	0.3533	0.7608	0.3302	0.391
Mof_C 	C 	0.4062	0.7338	0.417	-0.128
Mof_C 	C 	0.4645	0.7586	0.4525	0.054
Mof_H 	H 	0.47	0.7939	0.4257	0.03
Mof_C 	C 	0.5146	0.7323	0.5266	-0.12
Mof_C 	C 	0.5048	0.6815	0.5671	0.039
Mof_H 	H 	0.5389	0.6626	0.6168	0.028
Mof_C 	C 	0.4463	0.6583	0.5364	-0.109
Mof_H 	H 	0.4401	0.625	0.5673	0.064
Mof_C 	C 	0.3969	0.684	0.4602	0.042
Mof_H 	H 	0.3567	0.6678	0.4374	0.027
Mof_C 	C 	0.5787	0.7568	0.5557	0.361
Mof_C 	C 	0.1131	0.738	0.8654	0.357
Mof_C 	C 	0.0549	0.7658	0.8033	-0.123
Mof_C 	C 	0.0562	0.8255	0.7539	0.018
Mof_H 	H 	0.0967	0.8383	0.7569	0.041
Mof_C 	C 	0.003	0.8495	0.6815	-0.076
Mof_H 	H 	0.0054	0.8867	0.6574	0.058
Mof_C 	C 	0.0502	0.8225	0.8545	0.012
Mof_H 	H 	0.0848	0.8352	0.917	0.054
Mof_C 	C 	0.4522	0.9132	0.3106	0.103
Mof_H 	H 	0.4655	0.8747	0.3112	-0.009
Mof_C 	C 	0.4955	0.955	0.3641	-0.216
Mof_H 	H 	0.5378	0.945	0.399	0.092
Mof_C 	C 	0.4761	0.0117	0.366	0.207
Mof_C 	C 	0.4157	0.0241	0.3149	-0.231
Mof_H 	H 	0.4008	0.0619	0.3158	0.108
Mof_C 	C 	0.376	0.9813	0.2614	0.117
Mof_H 	H 	0.3339	0.9914	0.2237	-0.009
Mof_C 	C 	0.5209	0.0543	0.4319	-0.314
Mof_H 	H 	0.5524	0.0343	0.4892	0.125
Mof_H 	H 	0.4991	0.0822	0.4551	0.122
Mof_C 	C 	0.5525	0.0864	0.3776	0.091
Mof_H 	H 	0.5212	0.1088	0.3232	0.005
Mof_H 	H 	0.5713	0.0582	0.3499	0.007
Mof_C 	C 	0.6028	0.1275	0.4466	-0.297
Mof_H 	H 	0.5843	0.1556	0.4752	0.121
Mof_H 	H 	0.6347	0.1053	0.5003	0.119
Mof_C 	C 	0.6312	0.1583	0.3904	0.182
Mof_C 	C 	0.6776	0.1321	0.368	-0.188
Mof_H 	H 	0.6924	0.0947	0.3921	0.099
Mof_C 	C 	0.7013	0.1608	0.3116	0.086
Mof_H 	H 	0.7333	0.143	0.3005	-0.003
Mof_C 	C 	0.6357	0.2383	0.2927	0.1
Mof_H 	H 	0.6202	0.2752	0.2665	0.003
Mof_C 	C 	0.6117	0.2115	0.3515	-0.2
Mof_H 	H 	0.5812	0.2308	0.3644	0.101
Mof_Co	Co	0.32369	0.86151	0.18548	1.17
Mof_Co	Co	0.21896	0.76087	0.18669	1.163
Mof_Co	Co	0.35174	0.84463	0.98761	1.158
Mof_N 	N 	0.3923	0.9261	0.2584	-0.239
Mof_N 	N 	0.6802	0.2139	0.2713	-0.226
Mof_O 	O 	0.2497	0.8104	0.0995	-0.57
Mof_O 	O 	0.2745	0.8056	0.9069	-0.571
Mof_O 	O 	0.2691	0.096	0.7399	-0.405
Mof_O 	O 	0.214	0.1667	0.7675	-0.419
Mof_O 	O 	0.291	0.9133	0.0603	-0.463
Mof_O 	O 	0.3376	0.9282	0.9619	-0.444
Mof_O 	O 	0.365	0.8092	0.3037	-0.45
Mof_O 	O 	0.3045	0.7333	0.2905	-0.438
Mof_O 	O 	0.6238	0.7231	0.5897	-0.423
Mof_O 	O 	0.5809	0.8104	0.5395	-0.457
Mof_O 	O 	0.158	0.7698	0.9093	-0.443
Mof_O 	O 	0.11391	0.68204	0.8722	-0.539
Mof_C 	C 	0.5	0.7631	0.25	0.065
Mof_H 	H 	0.5	0.804	0.25	0.022
Mof_C 	C 	1.48154e-17	0.2631	0.25	0.063
Mof_H 	H 	1.48154e-17	0.304	0.25	0.022
Mof_C 	C 	0.5	0.2369	0.75	0.065
Mof_H 	H 	0.5	0.196	0.75	0.023
Mof_C 	C 	5.92616e-17	0.7369	0.75	0.064
Mof_H 	H 	5.92616e-17	0.696	0.75	0.023
Mof_Co	Co	0.75	0.75	0.5	1.157
Mof_Co	Co	0.25	0.75	-0	1.148
Mof_Co	Co	0.25	0.25	0.5	1.157
Mof_Co	Co	0.75	0.25	-0	1.148
_end
