data_functionalizedCrystal
_audit_creation_method	'EQeq! by Chris Wilmer'
_symmetry_space_group_name_H-M	'P1'
_symmetry_Int_Tables_number	1
_symmetry_cell_setting	triclinic
loop_
_symmetry_equiv_pos_as_xyz
  x,y,z
_cell_length_a	24.561
_cell_length_b	20.118
_cell_length_c	8.0845
_cell_angle_alpha	90
_cell_angle_beta	106.176
_cell_angle_gamma	90
loop_
_atom_site_label
_atom_site_type_symbol
_atom_site_fract_x
_atom_site_fract_y
_atom_site_fract_z
_atom_site_charge
Mof_Cu	Cu	0.05033	0.41261	0.66673	0.731
Mof_Cu	Cu	0.31566	0.6825	0.22036	0.822
Mof_N 	N 	0.02036	0.33132	0.7077	-0.334
Mof_N 	N 	0.08526	0.4917	0.6382	-0.34
Mof_N 	N 	0.06304	0.55259	0.6655	-0.342
Mof_N 	N 	0.27004	0.6598	0.3924	-0.268
Mof_N 	N 	0.3869	0.6426	0.2563	-0.223
Mof_C 	C 	0.2667	0.7357	0.054	-0.233
Mof_C 	C 	0.074	0.2532	0.5799	-0.729
Mof_H 	H 	0.0858	0.2939	0.5385	0.164
Mof_H 	H 	0.0562	0.2252	0.4839	0.191
Mof_H 	H 	0.1064	0.2308	0.6527	0.212
Mof_C 	C 	0.0331	0.2682	0.6795	0.27
Mof_C 	C 	0.0454	0.1164	0.7369	-0.287
Mof_H 	H 	0.0779	0.1381	0.7281	0.098
Mof_C 	C 	0.0432	0.0473	0.7367	0.115
Mof_H 	H 	0.0749	0.0242	0.7262	-0.056
Mof_C 	C 	0.1656	0.4448	0.5531	-0.746
Mof_H 	H 	0.1987	0.4373	0.6479	0.22
Mof_H 	H 	0.177	0.4543	0.4512	0.231
Mof_H 	H 	0.1422	0.4058	0.5345	0.176
Mof_C 	C 	0.133	0.5024	0.5933	0.253
Mof_C 	C 	0.14239	0.5708	0.5866	-0.297
Mof_C 	C 	0.0969	0.6003	0.6342	0.191
Mof_C 	C 	0.0856	0.6718	0.6628	-0.628
Mof_H 	H 	0.0766	0.695	0.5549	0.168
Mof_H 	H 	0.1186	0.6912	0.7404	0.158
Mof_H 	H 	0.0542	0.675	0.7116	0.112
Mof_C 	C 	0.1872	0.6034	0.5311	0.19
Mof_C 	C 	0.1785	0.6622	0.4399	-0.271
Mof_H 	H 	0.1443	0.6847	0.4233	0.076
Mof_C 	C 	0.2197	0.6881	0.3731	0.109
Mof_H 	H 	0.212	0.7275	0.311	-0.05
Mof_C 	C 	0.2801	0.6048	0.4893	0.1
Mof_H 	H 	0.3157	0.5854	0.5106	-0.046
Mof_C 	C 	0.2412	0.5753	0.5592	-0.246
Mof_H 	H 	0.2507	0.5369	0.6249	0.088
Mof_C 	C 	0.4309	0.6212	0.2605	-0.242
Mof_Cu	Cu	0.94967	0.41261	0.83327	0.748
Mof_Cu	Cu	0.68434	0.6825	0.27964	0.821
Mof_N 	N 	0.97964	0.33132	0.7923	-0.302
Mof_N 	N 	0.91474	0.4917	0.8618	-0.333
Mof_N 	N 	0.93696	0.55259	0.8345	-0.328
Mof_N 	N 	0.72996	0.6598	0.1076	-0.269
Mof_N 	N 	0.6131	0.6426	0.2437	-0.223
Mof_C 	C 	0.7333	0.7357	0.446	-0.234
Mof_C 	C 	0.926	0.2532	0.9201	-0.81
Mof_H 	H 	0.9142	0.2939	0.9615	0.192
Mof_H 	H 	0.9438	0.2252	0.0161	0.233
Mof_H 	H 	0.8936	0.2308	0.8473	0.238
Mof_C 	C 	0.9669	0.2682	0.8205	0.337
Mof_C 	C 	0.9546	0.1164	0.7631	-0.245
Mof_H 	H 	0.9221	0.1381	0.7719	0.089
Mof_C 	C 	0.9568	0.0473	0.7633	0.165
Mof_H 	H 	0.9251	0.0242	0.7738	-0.064
Mof_C 	C 	0.8344	0.4448	0.9469	-0.755
Mof_H 	H 	0.8013	0.4373	0.8521	0.222
Mof_H 	H 	0.823	0.4543	0.0488	0.235
Mof_H 	H 	0.8578	0.4058	0.9655	0.179
Mof_C 	C 	0.867	0.5024	0.9067	0.26
Mof_C 	C 	0.85761	0.5708	0.9134	-0.308
Mof_C 	C 	0.9031	0.6003	0.8658	0.217
Mof_C 	C 	0.9144	0.6718	0.8372	-0.685
Mof_H 	H 	0.9234	0.695	0.9451	0.199
Mof_H 	H 	0.8814	0.6912	0.7596	0.177
Mof_H 	H 	0.9458	0.675	0.7884	0.152
Mof_C 	C 	0.8128	0.6034	0.9689	0.195
Mof_C 	C 	0.8215	0.6622	0.0601	-0.274
Mof_H 	H 	0.8557	0.6847	0.0767	0.077
Mof_C 	C 	0.7803	0.6881	0.1269	0.111
Mof_H 	H 	0.788	0.7275	0.189	-0.051
Mof_C 	C 	0.7199	0.6048	0.0107	0.104
Mof_H 	H 	0.6843	0.5854	0.9894	-0.047
Mof_C 	C 	0.7588	0.5753	0.9408	-0.251
Mof_H 	H 	0.7493	0.5369	0.8751	0.09
Mof_C 	C 	0.5691	0.6212	0.2395	-0.242
Mof_Cu	Cu	0.44967	0.08739	0.33327	0.738
Mof_Cu	Cu	0.18434	0.8175	0.77964	0.821
Mof_N 	N 	0.47964	0.16868	0.2923	-0.313
Mof_N 	N 	0.41474	0.0083	0.3618	-0.338
Mof_N 	N 	0.43696	0.94741	0.3345	-0.339
Mof_N 	N 	0.22996	0.8402	0.6076	-0.268
Mof_N 	N 	0.1131	0.8574	0.7437	-0.222
Mof_C 	C 	0.2333	0.7643	0.946	-0.235
Mof_C 	C 	0.426	0.2468	0.4201	-0.724
Mof_H 	H 	0.4142	0.2061	0.4615	0.165
Mof_H 	H 	0.4438	0.2748	0.5161	0.196
Mof_H 	H 	0.3936	0.2692	0.3473	0.21
Mof_C 	C 	0.4669	0.2318	0.3205	0.266
Mof_C 	C 	0.4546	0.3836	0.2631	-0.303
Mof_H 	H 	0.4221	0.3619	0.2719	0.104
Mof_C 	C 	0.4568	0.4527	0.2633	0.133
Mof_H 	H 	0.4251	0.4758	0.2738	-0.06
Mof_C 	C 	0.3344	0.0552	0.4469	-0.749
Mof_H 	H 	0.3013	0.0627	0.3521	0.221
Mof_H 	H 	0.323	0.0457	0.5488	0.232
Mof_H 	H 	0.3578	0.0942	0.4655	0.177
Mof_C 	C 	0.367	0.9976	0.4067	0.256
Mof_C 	C 	0.35761	0.9292	0.4134	-0.302
Mof_C 	C 	0.4031	0.8997	0.3658	0.204
Mof_C 	C 	0.4144	0.8282	0.3372	-0.655
Mof_H 	H 	0.4234	0.805	0.4451	0.182
Mof_H 	H 	0.3814	0.8088	0.2596	0.167
Mof_H 	H 	0.4458	0.825	0.2884	0.131
Mof_C 	C 	0.3128	0.8966	0.4689	0.193
Mof_C 	C 	0.3215	0.8378	0.5601	-0.273
Mof_H 	H 	0.3557	0.8153	0.5767	0.077
Mof_C 	C 	0.2803	0.8119	0.6269	0.11
Mof_H 	H 	0.288	0.7725	0.689	-0.051
Mof_C 	C 	0.2199	0.8952	0.5107	0.101
Mof_H 	H 	0.1843	0.9146	0.4894	-0.046
Mof_C 	C 	0.2588	0.9247	0.4408	-0.248
Mof_H 	H 	0.2493	0.9631	0.3751	0.089
Mof_C 	C 	0.0691	0.8788	0.7395	-0.253
Mof_Cu	Cu	0.55033	0.08739	0.16673	0.738
Mof_Cu	Cu	0.81566	0.8175	0.72036	0.821
Mof_N 	N 	0.52036	0.16868	0.2077	-0.313
Mof_N 	N 	0.58526	0.0083	0.1382	-0.337
Mof_N 	N 	0.56304	0.94741	0.1655	-0.339
Mof_N 	N 	0.77004	0.8402	0.8924	-0.267
Mof_N 	N 	0.8869	0.8574	0.7563	-0.227
Mof_C 	C 	0.7667	0.7643	0.554	-0.235
Mof_C 	C 	0.574	0.2468	0.0799	-0.721
Mof_H 	H 	0.5858	0.2061	0.0385	0.164
Mof_H 	H 	0.5562	0.2748	0.9839	0.194
Mof_H 	H 	0.6064	0.2692	0.1527	0.209
Mof_C 	C 	0.5331	0.2318	0.1795	0.265
Mof_C 	C 	0.5454	0.3836	0.2369	-0.303
Mof_H 	H 	0.5779	0.3619	0.2281	0.104
Mof_C 	C 	0.5432	0.4527	0.2367	0.133
Mof_H 	H 	0.5749	0.4758	0.2262	-0.06
Mof_C 	C 	0.6656	0.0552	0.0531	-0.743
Mof_H 	H 	0.6987	0.0627	0.1479	0.219
Mof_H 	H 	0.677	0.0457	0.9512	0.23
Mof_H 	H 	0.6422	0.0942	0.0345	0.176
Mof_C 	C 	0.633	0.9976	0.0933	0.254
Mof_C 	C 	0.64239	0.9292	0.0866	-0.301
Mof_C 	C 	0.5969	0.8997	0.1342	0.203
Mof_C 	C 	0.5856	0.8282	0.1628	-0.655
Mof_H 	H 	0.5766	0.805	0.0549	0.182
Mof_H 	H 	0.6186	0.8088	0.2404	0.167
Mof_H 	H 	0.5542	0.825	0.2116	0.131
Mof_C 	C 	0.6872	0.8966	0.0311	0.192
Mof_C 	C 	0.6785	0.8378	0.9399	-0.273
Mof_H 	H 	0.6443	0.8153	0.9233	0.076
Mof_C 	C 	0.7197	0.8119	0.8731	0.109
Mof_H 	H 	0.712	0.7725	0.811	-0.051
Mof_C 	C 	0.7801	0.8952	0.9893	0.097
Mof_H 	H 	0.8157	0.9146	0.0106	-0.043
Mof_C 	C 	0.7412	0.9247	0.0592	-0.244
Mof_H 	H 	0.7507	0.9631	0.1249	0.088
Mof_C 	C 	0.9309	0.8788	0.7605	-0.213
Mof_Cu	Cu	-1.48163e-17	0.55415	0.75	0.693
Mof_Cu	Cu	1.18348e-33	0.91049	0.75	0.813
Mof_N 	N 	1.18348e-33	0.0128	0.75	-0.31
Mof_C 	C 	-1.48163e-17	0.2258	0.75	-0.356
Mof_C 	C 	-1.48163e-17	0.1518	0.75	0.187
Mof_Cu	Cu	0.5	0.94585	0.25	0.713
Mof_Cu	Cu	0.5	0.58951	0.25	0.831
Mof_N 	N 	0.5	0.4872	0.25	-0.285
Mof_C 	C 	0.5	0.2742	0.25	-0.305
Mof_C 	C 	0.5	0.3482	0.25	0.238
Mof_Cu	Cu	0.55033	0.91261	0.66673	0.738
Mof_Cu	Cu	0.81566	0.1825	0.22036	0.821
Mof_N 	N 	0.52036	0.83132	0.7077	-0.313
Mof_N 	N 	0.58526	0.9917	0.6382	-0.338
Mof_N 	N 	0.56304	0.05259	0.6655	-0.339
Mof_N 	N 	0.77004	0.1598	0.3924	-0.268
Mof_N 	N 	0.8869	0.1426	0.2563	-0.227
Mof_C 	C 	0.7667	0.2357	0.054	-0.233
Mof_C 	C 	0.574	0.7532	0.5799	-0.724
Mof_H 	H 	0.5858	0.7939	0.5385	0.164
Mof_H 	H 	0.5562	0.7252	0.4839	0.196
Mof_H 	H 	0.6064	0.7308	0.6527	0.21
Mof_C 	C 	0.5331	0.7682	0.6795	0.266
Mof_C 	C 	0.5454	0.6164	0.7369	-0.303
Mof_H 	H 	0.5779	0.6381	0.7281	0.104
Mof_C 	C 	0.5432	0.5473	0.7367	0.133
Mof_H 	H 	0.5749	0.5242	0.7262	-0.06
Mof_C 	C 	0.6656	0.9448	0.5531	-0.749
Mof_H 	H 	0.6987	0.9373	0.6479	0.221
Mof_H 	H 	0.677	0.9543	0.4512	0.232
Mof_H 	H 	0.6422	0.9058	0.5345	0.177
Mof_C 	C 	0.633	0.0024	0.5933	0.256
Mof_C 	C 	0.64239	0.0708	0.5866	-0.302
Mof_C 	C 	0.5969	0.1003	0.6342	0.204
Mof_C 	C 	0.5856	0.1718	0.6628	-0.655
Mof_H 	H 	0.5766	0.195	0.5549	0.182
Mof_H 	H 	0.6186	0.1912	0.7404	0.167
Mof_H 	H 	0.5542	0.175	0.7116	0.131
Mof_C 	C 	0.6872	0.1034	0.5311	0.193
Mof_C 	C 	0.6785	0.1622	0.4399	-0.273
Mof_H 	H 	0.6443	0.1847	0.4233	0.076
Mof_C 	C 	0.7197	0.1881	0.3731	0.11
Mof_H 	H 	0.712	0.2275	0.311	-0.051
Mof_C 	C 	0.7801	0.1048	0.4893	0.101
Mof_H 	H 	0.8157	0.0854	0.5106	-0.045
Mof_C 	C 	0.7412	0.0753	0.5592	-0.247
Mof_H 	H 	0.7507	0.0369	0.6249	0.089
Mof_C 	C 	0.9309	0.1212	0.2605	-0.213
Mof_Cu	Cu	0.44967	0.91261	0.83327	0.738
Mof_Cu	Cu	0.18434	0.1825	0.27964	0.821
Mof_N 	N 	0.47964	0.83132	0.7923	-0.313
Mof_N 	N 	0.41474	0.9917	0.8618	-0.338
Mof_N 	N 	0.43696	0.05259	0.8345	-0.339
Mof_N 	N 	0.22996	0.1598	0.1076	-0.269
Mof_N 	N 	0.1131	0.1426	0.2437	-0.222
Mof_C 	C 	0.2333	0.2357	0.446	-0.234
Mof_C 	C 	0.426	0.7532	0.9201	-0.725
Mof_H 	H 	0.4142	0.7939	0.9615	0.165
Mof_H 	H 	0.4438	0.7252	0.0161	0.196
Mof_H 	H 	0.3936	0.7308	0.8473	0.21
Mof_C 	C 	0.4669	0.7682	0.8205	0.266
Mof_C 	C 	0.4546	0.6164	0.7631	-0.303
Mof_H 	H 	0.4221	0.6381	0.7719	0.104
Mof_C 	C 	0.4568	0.5473	0.7633	0.133
Mof_H 	H 	0.4251	0.5242	0.7738	-0.06
Mof_C 	C 	0.3344	0.9448	0.9469	-0.749
Mof_H 	H 	0.3013	0.9373	0.8521	0.221
Mof_H 	H 	0.323	0.9543	0.0488	0.232
Mof_H 	H 	0.3578	0.9058	0.9655	0.177
Mof_C 	C 	0.367	0.0024	0.9067	0.256
Mof_C 	C 	0.35761	0.0708	0.9134	-0.302
Mof_C 	C 	0.4031	0.1003	0.8658	0.203
Mof_C 	C 	0.4144	0.1718	0.8372	-0.655
Mof_H 	H 	0.4234	0.195	0.9451	0.182
Mof_H 	H 	0.3814	0.1912	0.7596	0.167
Mof_H 	H 	0.4458	0.175	0.7884	0.131
Mof_C 	C 	0.3128	0.1034	0.9689	0.193
Mof_C 	C 	0.3215	0.1622	0.0601	-0.273
Mof_H 	H 	0.3557	0.1847	0.0767	0.077
Mof_C 	C 	0.2803	0.1881	0.1269	0.11
Mof_H 	H 	0.288	0.2275	0.189	-0.051
Mof_C 	C 	0.2199	0.1048	0.0107	0.105
Mof_H 	H 	0.1843	0.0854	0.9894	-0.048
Mof_C 	C 	0.2588	0.0753	0.9408	-0.25
Mof_H 	H 	0.2493	0.0369	0.8751	0.089
Mof_C 	C 	0.0691	0.1212	0.2395	-0.252
Mof_Cu	Cu	0.94967	0.58739	0.33327	0.749
Mof_Cu	Cu	0.68434	0.3175	0.77964	0.821
Mof_N 	N 	0.97964	0.66868	0.2923	-0.301
Mof_N 	N 	0.91474	0.5083	0.3618	-0.333
Mof_N 	N 	0.93696	0.44741	0.3345	-0.328
Mof_N 	N 	0.72996	0.3402	0.6076	-0.269
Mof_N 	N 	0.6131	0.3574	0.7437	-0.223
Mof_C 	C 	0.7333	0.2643	0.946	-0.236
Mof_C 	C 	0.926	0.7468	0.4201	-0.802
Mof_H 	H 	0.9142	0.7061	0.4615	0.19
Mof_H 	H 	0.9438	0.7748	0.5161	0.229
Mof_H 	H 	0.8936	0.7692	0.3473	0.236
Mof_C 	C 	0.9669	0.7318	0.3205	0.335
Mof_C 	C 	0.9546	0.8836	0.2631	-0.244
Mof_H 	H 	0.9221	0.8619	0.2719	0.089
Mof_C 	C 	0.9568	0.9527	0.2633	0.165
Mof_H 	H 	0.9251	0.9758	0.2738	-0.064
Mof_C 	C 	0.8344	0.5552	0.4469	-0.751
Mof_H 	H 	0.8013	0.5627	0.3521	0.221
Mof_H 	H 	0.823	0.5457	0.5488	0.233
Mof_H 	H 	0.8578	0.5942	0.4655	0.178
Mof_C 	C 	0.867	0.4976	0.4067	0.26
Mof_C 	C 	0.85761	0.4292	0.4134	-0.307
Mof_C 	C 	0.9031	0.3997	0.3658	0.218
Mof_C 	C 	0.9144	0.3282	0.3372	-0.687
Mof_H 	H 	0.9234	0.305	0.4451	0.2
Mof_H 	H 	0.8814	0.3088	0.2596	0.177
Mof_H 	H 	0.9458	0.325	0.2884	0.153
Mof_C 	C 	0.8128	0.3966	0.4689	0.196
Mof_C 	C 	0.8215	0.3378	0.5601	-0.276
Mof_H 	H 	0.8557	0.3153	0.5767	0.077
Mof_C 	C 	0.7803	0.3119	0.6269	0.111
Mof_H 	H 	0.788	0.2725	0.689	-0.052
Mof_C 	C 	0.7199	0.3952	0.5107	0.102
Mof_H 	H 	0.6843	0.4146	0.4894	-0.046
Mof_C 	C 	0.7588	0.4247	0.4408	-0.25
Mof_H 	H 	0.7493	0.4631	0.3751	0.089
Mof_C 	C 	0.5691	0.3788	0.7395	-0.242
Mof_Cu	Cu	0.05033	0.58739	0.16673	0.731
Mof_Cu	Cu	0.31566	0.3175	0.72036	0.821
Mof_N 	N 	0.02036	0.66868	0.2077	-0.334
Mof_N 	N 	0.08526	0.5083	0.1382	-0.34
Mof_N 	N 	0.06304	0.44741	0.1655	-0.342
Mof_N 	N 	0.27004	0.3402	0.8924	-0.267
Mof_N 	N 	0.3869	0.3574	0.7563	-0.223
Mof_C 	C 	0.2667	0.2643	0.554	-0.234
Mof_C 	C 	0.074	0.7468	0.0799	-0.721
Mof_H 	H 	0.0858	0.7061	0.0385	0.162
Mof_H 	H 	0.0562	0.7748	0.9839	0.188
Mof_H 	H 	0.1064	0.7692	0.1527	0.21
Mof_C 	C 	0.0331	0.7318	0.1795	0.268
Mof_C 	C 	0.0454	0.8836	0.2369	-0.286
Mof_H 	H 	0.0779	0.8619	0.2281	0.098
Mof_C 	C 	0.0432	0.9527	0.2367	0.115
Mof_H 	H 	0.0749	0.9758	0.2262	-0.055
Mof_C 	C 	0.1656	0.5552	0.0531	-0.74
Mof_H 	H 	0.1987	0.5627	0.1479	0.218
Mof_H 	H 	0.177	0.5457	0.9512	0.229
Mof_H 	H 	0.1422	0.5942	0.0345	0.174
Mof_C 	C 	0.133	0.4976	0.0933	0.252
Mof_C 	C 	0.14239	0.4292	0.0866	-0.296
Mof_C 	C 	0.0969	0.3997	0.1342	0.192
Mof_C 	C 	0.0856	0.3282	0.1628	-0.629
Mof_H 	H 	0.0766	0.305	0.0549	0.168
Mof_H 	H 	0.1186	0.3088	0.2404	0.159
Mof_H 	H 	0.0542	0.325	0.2116	0.113
Mof_C 	C 	0.1872	0.3966	0.0311	0.19
Mof_C 	C 	0.1785	0.3378	0.9399	-0.272
Mof_H 	H 	0.1443	0.3153	0.9233	0.076
Mof_C 	C 	0.2197	0.3119	0.8731	0.109
Mof_H 	H 	0.212	0.2725	0.811	-0.05
Mof_C 	C 	0.2801	0.3952	0.9893	0.096
Mof_H 	H 	0.3157	0.4146	0.0106	-0.044
Mof_C 	C 	0.2412	0.4247	0.0592	-0.243
Mof_H 	H 	0.2507	0.4631	0.1249	0.087
Mof_C 	C 	0.4309	0.3788	0.7605	-0.242
Mof_Cu	Cu	0.5	0.05415	0.75	0.713
Mof_Cu	Cu	0.5	0.41049	0.75	0.831
Mof_N 	N 	0.5	0.5128	0.75	-0.285
Mof_C 	C 	0.5	0.7258	0.75	-0.306
Mof_C 	C 	0.5	0.6518	0.75	0.238
Mof_Cu	Cu	3.94493e-34	0.44585	0.25	0.693
Mof_Cu	Cu	3.94493e-34	0.08951	0.25	0.814
Mof_N 	N 	3.94493e-34	0.9872	0.25	-0.309
Mof_C 	C 	3.70407e-18	0.7742	0.25	-0.353
Mof_C 	C 	3.94493e-34	0.8482	0.25	0.187
_end
