data_functionalizedCrystal
_audit_creation_method	'EQeq! by Chris Wilmer'
_symmetry_space_group_name_H-M	'P1'
_symmetry_Int_Tables_number	1
_symmetry_cell_setting	triclinic
loop_
_symmetry_equiv_pos_as_xyz
  x,y,z
_cell_length_a	8.9436
_cell_length_b	9.4538
_cell_length_c	19.005
_cell_angle_alpha	95.166
_cell_angle_beta	93.05
_cell_angle_gamma	117.534
loop_
_atom_site_label
_atom_site_type_symbol
_atom_site_fract_x
_atom_site_fract_y
_atom_site_fract_z
_atom_site_charge
Mof_Cd	Cd	0.98362	0.89819	0.82078	0.468
Mof_Cd	Cd	0.01638	0.10181	0.17922	0.412
Mof_Cd	Cd	-0	0	-0	0.44
Mof_H 	H 	0.787	0.1906	0.9622	0.104
Mof_H 	H 	0.9613	0.4317	0.9188	0.056
Mof_H 	H 	0.8309	0.3852	0.8513	0.064
Mof_H 	H 	0.7642	0.4504	0.9923	0.097
Mof_H 	H 	0.5457	0.3777	0.865	0.063
Mof_H 	H 	0.5032	0.4196	0.9406	0.054
Mof_H 	H 	0.491	0.1845	0.9766	0.089
Mof_H 	H 	0.5579	0.1094	0.837	0.052
Mof_H 	H 	0.5291	0.0008	0.8978	0.044
Mof_H 	H 	0.7976	0.5777	0.7215	0.005
Mof_H 	H 	0.6299	0.451	0.6176	0.097
Mof_H 	H 	0.5061	0.6428	0.4874	0.064
Mof_H 	H 	0.6649	0.8705	0.5779	0.103
Mof_H 	H 	0.8301	0.9859	0.6825	0.017
Mof_H 	H 	0.213	0.8094	0.0378	0.088
Mof_H 	H 	0.0387	0.5683	0.0812	0.034
Mof_H 	H 	0.1691	0.6148	0.1487	0.059
Mof_H 	H 	0.2358	0.5496	0.0077	0.081
Mof_H 	H 	0.4543	0.6223	0.135	0.061
Mof_H 	H 	0.4968	0.5804	0.0594	0.042
Mof_H 	H 	0.509	0.8155	0.0234	0.086
Mof_H 	H 	0.4421	0.8906	0.163	0.061
Mof_H 	H 	0.4709	0.9992	0.1022	0.053
Mof_H 	H 	0.2024	0.4223	0.2785	0.004
Mof_H 	H 	0.3701	0.549	0.3824	0.099
Mof_H 	H 	0.4939	0.3572	0.5126	0.06
Mof_H 	H 	0.3351	0.1295	0.4221	0.093
Mof_H 	H 	0.1699	0.0141	0.3175	0.002
Mof_C 	C 	0.846	0.1142	0.8676	0.332
Mof_C 	C 	0.7678	0.1992	0.9119	-0.151
Mof_C 	C 	0.8416	0.3764	0.9016	-0.026
Mof_C 	C 	0.7505	0.4579	0.9415	-0.15
Mof_C 	C 	0.5608	0.3691	0.9151	-0.03
Mof_C 	C 	0.4816	0.1923	0.9256	-0.138
Mof_C 	C 	0.576	0.1113	0.8879	-0.032
Mof_C 	C 	0.8252	0.6343	0.9312	0.341
Mof_C 	C 	0.2976	0.0985	0.8961	0.292
Mof_C 	C 	0.7698	0.6377	0.6922	0.109
Mof_C 	C 	0.6714	0.5613	0.6293	-0.183
Mof_C 	C 	0.6338	0.6476	0.5832	0.138
Mof_C 	C 	0.5303	0.5761	0.5137	-0.091
Mof_C 	C 	0.6919	0.8081	0.6059	-0.189
Mof_C 	C 	0.789	0.8761	0.6695	0.116
Mof_C 	C 	0.154	0.8858	0.1324	0.322
Mof_C 	C 	0.2322	0.8008	0.0881	-0.148
Mof_C 	C 	0.1584	0.6236	0.0984	-0.021
Mof_C 	C 	0.2495	0.5421	0.0585	-0.158
Mof_C 	C 	0.4392	0.6309	0.0849	-0.022
Mof_C 	C 	0.5184	0.8077	0.0744	-0.148
Mof_C 	C 	0.424	0.8887	0.1121	-0.036
Mof_C 	C 	0.1748	0.3657	0.0688	0.34
Mof_C 	C 	0.7024	0.9015	0.1039	0.329
Mof_C 	C 	0.2302	0.3623	0.3078	0.105
Mof_C 	C 	0.3286	0.4387	0.3707	-0.184
Mof_C 	C 	0.3662	0.3524	0.4168	0.134
Mof_C 	C 	0.4697	0.4239	0.4863	-0.089
Mof_C 	C 	0.3081	0.1919	0.3941	-0.191
Mof_C 	C 	0.211	0.1239	0.3305	0.11
Mof_N 	N 	0.8282	0.7951	0.7138	-0.165
Mof_N 	N 	0.1718	0.2049	0.2862	-0.169
Mof_O 	O 	0.8617	0.0024	0.89591	-0.295
Mof_O 	O 	0.8842	0.1436	0.8079	-0.266
Mof_O 	O 	0.2499	0.1229	0.83707	-0.285
Mof_O 	O 	0.1979	0.9865	0.92861	-0.268
Mof_O 	O 	0.8436	0.6671	0.86935	-0.291
Mof_O 	O 	0.8622	0.7326	0.98627	-0.267
Mof_O 	O 	0.1383	0.9976	0.10409	-0.288
Mof_O 	O 	0.1158	0.8564	0.1921	-0.26
Mof_O 	O 	0.7501	0.8771	0.16293	-0.265
Mof_O 	O 	0.8021	0.0135	0.07139	-0.303
Mof_O 	O 	0.1564	0.3329	0.13065	-0.3
Mof_O 	O 	0.1378	0.2674	0.01373	-0.311
_end
