data_functionalizedCrystal
_audit_creation_method	'EQeq! by Chris Wilmer'
_symmetry_space_group_name_H-M	'P1'
_symmetry_Int_Tables_number	1
_symmetry_cell_setting	triclinic
loop_
_symmetry_equiv_pos_as_xyz
  x,y,z
_cell_length_a	37.2651
_cell_length_b	37.2651
_cell_length_c	37.2651
_cell_angle_alpha	109.471
_cell_angle_beta	109.471
_cell_angle_gamma	109.471
loop_
_atom_site_label
_atom_site_type_symbol
_atom_site_fract_x
_atom_site_fract_y
_atom_site_fract_z
_atom_site_charge
Mof_Zn	Zn	0.49007	0.14719	0.00226	1.197
Mof_Zn	Zn	0.75128	0.24002	0.24536	1.191
Mof_Zn	Zn	0.64493	0.48781	0.49774	1.2
Mof_Zn	Zn	0.49466	0.50592	0.25464	1.191
Mof_Zn	Zn	0.85507	0.35281	0.84288	1.202
Mof_Zn	Zn	0.00534	0.25998	0.01126	1.186
Mof_Zn	Zn	0.00993	0.01219	0.65712	1.194
Mof_Zn	Zn	0.74872	0.99408	0.48874	1.195
Mof_Zn	Zn	0.34288	0.85507	0.85281	1.202
Mof_Zn	Zn	0.51126	0.00534	0.75998	1.189
Mof_Zn	Zn	0.15712	0.00993	0.51219	1.197
Mof_Zn	Zn	0.98874	0.74872	0.49408	1.194
Mof_Zn	Zn	0.50226	0.49007	0.64719	1.201
Mof_Zn	Zn	0.74536	0.75128	0.74002	1.192
Mof_Zn	Zn	0.99774	0.64493	0.98781	1.207
Mof_Zn	Zn	0.75464	0.49466	0.00592	1.188
Mof_Zn	Zn	0.48781	0.99774	0.14493	1.204
Mof_Zn	Zn	0.50592	0.75464	0.99466	1.194
Mof_Zn	Zn	0.14719	0.50226	0.99007	1.204
Mof_Zn	Zn	0.24002	0.74536	0.25128	1.192
Mof_Zn	Zn	0.01219	0.15712	0.50993	1.197
Mof_Zn	Zn	0.99408	0.98874	0.24872	1.197
Mof_Zn	Zn	0.35281	0.34288	0.35507	1.201
Mof_Zn	Zn	0.25998	0.51126	0.50534	1.191
Mof_Zn	Zn	0.50993	0.85281	0.99774	1.205
Mof_Zn	Zn	0.24872	0.75998	0.75464	1.191
Mof_Zn	Zn	0.35507	0.51219	0.50226	1.201
Mof_Zn	Zn	0.50534	0.49408	0.74536	1.192
Mof_Zn	Zn	0.14493	0.64719	0.15712	1.2
Mof_Zn	Zn	0.99466	0.74002	0.98874	1.197
Mof_Zn	Zn	0.99007	0.98781	0.34288	1.207
Mof_Zn	Zn	0.25128	0.00592	0.51126	1.188
Mof_Zn	Zn	0.65712	0.14493	0.14719	1.2
Mof_Zn	Zn	0.48874	0.99466	0.24002	1.194
Mof_Zn	Zn	0.84288	0.99007	0.48781	1.205
Mof_Zn	Zn	0.01126	0.25128	0.50592	1.188
Mof_Zn	Zn	0.49774	0.50993	0.35281	1.201
Mof_Zn	Zn	0.25464	0.24872	0.25998	1.191
Mof_Zn	Zn	0.00226	0.35507	0.01219	1.196
Mof_Zn	Zn	0.24536	0.50534	0.99408	1.195
Mof_Zn	Zn	0.51219	0.00226	0.85507	1.199
Mof_Zn	Zn	0.49408	0.24536	0.00534	1.189
Mof_Zn	Zn	0.85281	0.49774	0.00993	1.198
Mof_Zn	Zn	0.75998	0.25464	0.74872	1.191
Mof_Zn	Zn	0.98781	0.84288	0.49007	1.204
Mof_Zn	Zn	0.00592	0.01126	0.75128	1.185
Mof_Zn	Zn	0.64719	0.65712	0.64493	1.201
Mof_Zn	Zn	0.74002	0.48874	0.49466	1.192
Mof_Zn	Zn	0.74119	0.49119	0.25	1.161
Mof_Zn	Zn	0.75881	0.00881	0.75	1.158
Mof_Zn	Zn	0.25	0.75881	0.50881	1.161
Mof_Zn	Zn	0.75	0.74119	0.99119	1.165
Mof_Zn	Zn	0.49119	0.75	0.24119	1.161
Mof_Zn	Zn	0.00881	0.25	0.25881	1.157
Mof_Zn	Zn	0.25881	0.50881	0.75	1.161
Mof_Zn	Zn	0.24119	0.99119	0.25	1.165
Mof_Zn	Zn	0.75	0.24119	0.49119	1.161
Mof_Zn	Zn	0.25	0.25881	0.00881	1.158
Mof_Zn	Zn	0.50881	0.25	0.75881	1.161
Mof_Zn	Zn	0.99119	0.75	0.74119	1.165
Mof_Zn	Zn	-5.70758e-18	0.5	0.16614	1.169
Mof_Zn	Zn	-4.56606e-17	0.5	0.26202	1.196
Mof_Zn	Zn	0.83386	0.83386	0.33386	1.175
Mof_Zn	Zn	0.73798	0.73798	0.23798	1.198
Mof_Zn	Zn	0.66614	0	-0	1.166
Mof_Zn	Zn	0.76202	0	-0	1.191
Mof_Zn	Zn	0.5	0.66614	0.5	1.174
Mof_Zn	Zn	0.5	0.76202	0.5	1.199
Mof_Zn	Zn	-2.28303e-17	0.5	0.83386	1.17
Mof_Zn	Zn	-2.28303e-17	0.5	0.73798	1.193
Mof_Zn	Zn	0.16614	0.16614	0.66614	1.173
Mof_Zn	Zn	0.26202	0.26202	0.76202	1.199
Mof_Zn	Zn	0.33386	0	-0	1.166
Mof_Zn	Zn	0.23798	0	-0	1.19
Mof_Zn	Zn	0.5	0.33386	0.5	1.174
Mof_Zn	Zn	0.5	0.23798	0.5	1.198
Mof_H 	H 	0.6053	0.211	0.1083	-0.027
Mof_H 	H 	0.6119	0.3242	0.1217	0.016
Mof_H 	H 	0.7083	0.3253	0.2138	0.017
Mof_H 	H 	0.7734	0.4062	0.136	0.048
Mof_H 	H 	0.8746	0.4947	0.2205	0.024
Mof_H 	H 	0.6306	0.3458	0.2272	0.049
Mof_H 	H 	0.7173	0.3454	0.1383	0.05
Mof_H 	H 	0.8623	0.5809	0.2236	0.049
Mof_H 	H 	0.7831	0.4896	0.1199	0.016
Mof_H 	H 	0.894	0.4948	0.1202	-0.024
Mof_H 	H 	0.6027	0.497	0.3917	-0.026
Mof_H 	H 	0.7025	0.4902	0.3783	0.018
Mof_H 	H 	0.6115	0.4945	0.2862	0.017
Mof_H 	H 	0.7702	0.6374	0.364	0.049
Mof_H 	H 	0.7742	0.6541	0.2795	0.022
Mof_H 	H 	0.6186	0.4034	0.2728	0.049
Mof_H 	H 	0.7071	0.579	0.3617	0.051
Mof_H 	H 	0.8573	0.6387	0.2764	0.049
Mof_H 	H 	0.8697	0.6632	0.3801	0.018
Mof_H 	H 	0.8746	0.7738	0.3798	-0.023
Mof_H 	H 	0.8973	0.289	0.8943	-0.022
Mof_H 	H 	0.7975	0.1758	0.7877	0.018
Mof_H 	H 	0.8885	0.1747	0.883	0.02
Mof_H 	H 	0.7298	0.0938	0.8672	0.051
Mof_H 	H 	0.7258	0.0053	0.8799	0.019
Mof_H 	H 	0.8814	0.1542	0.7848	0.051
Mof_H 	H 	0.7929	0.1546	0.8719	0.052
Mof_H 	H 	0.6427	0.9191	0.7814	0.053
Mof_H 	H 	0.6303	0.0104	0.7935	0.015
Mof_H 	H 	0.6254	0.0052	0.8992	-0.029
Mof_H 	H 	0.8947	0.003	0.6057	-0.029
Mof_H 	H 	0.8881	0.0098	0.7123	0.017
Mof_H 	H 	0.7917	0.0055	0.617	0.012
Mof_H 	H 	0.7266	0.8626	0.6328	0.048
Mof_H 	H 	0.6254	0.8459	0.6201	0.023
Mof_H 	H 	0.8694	0.0966	0.7152	0.051
Mof_H 	H 	0.7827	0.921	0.6281	0.055
Mof_H 	H 	0.6377	0.8613	0.7186	0.048
Mof_H 	H 	0.7169	0.8368	0.7065	0.018
Mof_H 	H 	0.606	0.7262	0.6008	-0.025
Mof_H 	H 	0.3943	0.8973	0.789	-0.023
Mof_H 	H 	0.2877	0.7975	0.6758	0.018
Mof_H 	H 	0.383	0.8885	0.6747	0.019
Mof_H 	H 	0.3672	0.7298	0.5938	0.049
Mof_H 	H 	0.3799	0.7258	0.5053	0.023
Mof_H 	H 	0.2848	0.8814	0.6542	0.05
Mof_H 	H 	0.3719	0.7929	0.6546	0.051
Mof_H 	H 	0.2814	0.6427	0.4191	0.048
Mof_H 	H 	0.2935	0.6303	0.5104	0.017
Mof_H 	H 	0.3992	0.6254	0.5052	-0.025
Mof_H 	H 	0.1057	0.8947	0.503	-0.025
Mof_H 	H 	0.2123	0.8881	0.5098	0.019
Mof_H 	H 	0.117	0.7917	0.5055	0.016
Mof_H 	H 	0.1328	0.7266	0.3626	0.048
Mof_H 	H 	0.1201	0.6254	0.3459	0.021
Mof_H 	H 	0.2152	0.8694	0.5966	0.05
Mof_H 	H 	0.1281	0.7827	0.421	0.05
Mof_H 	H 	0.2186	0.6377	0.3613	0.048
Mof_H 	H 	0.2065	0.7169	0.3368	0.017
Mof_H 	H 	0.1008	0.606	0.2262	-0.027
Mof_H 	H 	0.6083	0.6053	0.711	-0.025
Mof_H 	H 	0.6217	0.6119	0.8242	0.018
Mof_H 	H 	0.7138	0.7083	0.8253	0.018
Mof_H 	H 	0.636	0.7734	0.9062	0.048
Mof_H 	H 	0.7205	0.8746	0.9947	0.03
Mof_H 	H 	0.7272	0.6306	0.8458	0.05
Mof_H 	H 	0.6383	0.7173	0.8454	0.051
Mof_H 	H 	0.7236	0.8623	0.0809	0.044
Mof_H 	H 	0.6199	0.7831	0.9896	0.02
Mof_H 	H 	0.6202	0.894	0.9948	-0.016
Mof_H 	H 	0.8917	0.6027	0.997	-0.017
Mof_H 	H 	0.8783	0.7025	0.9902	0.022
Mof_H 	H 	0.7862	0.6115	0.9945	0.024
Mof_H 	H 	0.864	0.7702	0.1374	0.05
Mof_H 	H 	0.7795	0.7742	0.1541	0.022
Mof_H 	H 	0.7728	0.6186	0.9034	0.049
Mof_H 	H 	0.8617	0.7071	0.079	0.047
Mof_H 	H 	0.7764	0.8573	0.1387	0.049
Mof_H 	H 	0.8801	0.8697	0.1632	0.018
Mof_H 	H 	0.8798	0.8746	0.2738	-0.023
Mof_H 	H 	0.497	0.8917	0.1027	-0.026
Mof_H 	H 	0.4902	0.8783	0.2025	0.018
Mof_H 	H 	0.4945	0.7862	0.1115	0.015
Mof_H 	H 	0.6374	0.864	0.2702	0.05
Mof_H 	H 	0.6541	0.7795	0.2742	0.022
Mof_H 	H 	0.4034	0.7728	0.1186	0.048
Mof_H 	H 	0.579	0.8617	0.2071	0.051
Mof_H 	H 	0.6387	0.7764	0.3573	0.048
Mof_H 	H 	0.6632	0.8801	0.3697	0.018
Mof_H 	H 	0.7738	0.8798	0.3746	-0.023
Mof_H 	H 	0.211	0.6083	0.1053	-0.028
Mof_H 	H 	0.3242	0.6217	0.1119	0.016
Mof_H 	H 	0.3253	0.7138	0.2083	0.017
Mof_H 	H 	0.4062	0.636	0.2734	0.048
Mof_H 	H 	0.4947	0.7205	0.3746	0.023
Mof_H 	H 	0.3458	0.7272	0.1306	0.048
Mof_H 	H 	0.3454	0.6383	0.2173	0.05
Mof_H 	H 	0.5809	0.7236	0.3623	0.048
Mof_H 	H 	0.4896	0.6199	0.2831	0.016
Mof_H 	H 	0.4948	0.6202	0.394	-0.025
Mof_H 	H 	0.003	0.1057	0.3947	-0.035
Mof_H 	H 	0.0098	0.2123	0.3881	0.014
Mof_H 	H 	0.0055	0.117	0.2917	0.008
Mof_H 	H 	0.8626	0.1328	0.2266	0.047
Mof_H 	H 	0.8459	0.1201	0.1254	0.021
Mof_H 	H 	0.0966	0.2152	0.3694	0.049
Mof_H 	H 	0.921	0.1281	0.2827	0.055
Mof_H 	H 	0.8613	0.2186	0.1377	0.047
Mof_H 	H 	0.8368	0.2065	0.2169	0.017
Mof_H 	H 	0.7262	0.1008	0.106	-0.027
Mof_H 	H 	0.289	0.3943	0.3973	-0.026
Mof_H 	H 	0.1758	0.2877	0.2975	0.016
Mof_H 	H 	0.1747	0.383	0.3885	0.016
Mof_H 	H 	0.0938	0.3672	0.2298	0.049
Mof_H 	H 	0.0053	0.3799	0.2258	0.016
Mof_H 	H 	0.1542	0.2848	0.3814	0.048
Mof_H 	H 	0.1546	0.3719	0.2929	0.05
Mof_H 	H 	0.9191	0.2814	0.1427	0.052
Mof_H 	H 	0.0104	0.2935	0.1303	0.013
Mof_H 	H 	0.0052	0.3992	0.1254	-0.033
Mof_H 	H 	0.3947	0.789	0.8917	-0.024
Mof_H 	H 	0.3881	0.6758	0.8783	0.019
Mof_H 	H 	0.2917	0.6747	0.7862	0.017
Mof_H 	H 	0.2266	0.5938	0.864	0.049
Mof_H 	H 	0.1254	0.5053	0.7795	0.021
Mof_H 	H 	0.3694	0.6542	0.7728	0.049
Mof_H 	H 	0.2827	0.6546	0.8617	0.051
Mof_H 	H 	0.1377	0.4191	0.7764	0.047
Mof_H 	H 	0.2169	0.5104	0.8801	0.018
Mof_H 	H 	0.106	0.5052	0.8798	-0.025
Mof_H 	H 	0.3973	0.503	0.6083	-0.026
Mof_H 	H 	0.2975	0.5098	0.6217	0.017
Mof_H 	H 	0.3885	0.5055	0.7138	0.017
Mof_H 	H 	0.2298	0.3626	0.636	0.048
Mof_H 	H 	0.2258	0.3459	0.7205	0.023
Mof_H 	H 	0.3814	0.5966	0.7272	0.049
Mof_H 	H 	0.2929	0.421	0.6383	0.051
Mof_H 	H 	0.1427	0.3613	0.7236	0.047
Mof_H 	H 	0.1303	0.3368	0.6199	0.016
Mof_H 	H 	0.1254	0.2262	0.6202	-0.026
Mof_H 	H 	0.1027	0.711	0.1057	-0.029
Mof_H 	H 	0.2025	0.8242	0.2123	0.017
Mof_H 	H 	0.1115	0.8253	0.117	0.014
Mof_H 	H 	0.2702	0.9062	0.1328	0.047
Mof_H 	H 	0.2742	0.9947	0.1201	0.028
Mof_H 	H 	0.1186	0.8458	0.2152	0.048
Mof_H 	H 	0.2071	0.8454	0.1281	0.05
Mof_H 	H 	0.3573	0.0809	0.2186	0.042
Mof_H 	H 	0.3697	0.9896	0.2065	0.02
Mof_H 	H 	0.3746	0.9948	0.1008	-0.018
Mof_H 	H 	0.1053	0.997	0.3943	-0.019
Mof_H 	H 	0.1119	0.9902	0.2877	0.019
Mof_H 	H 	0.2083	0.9945	0.383	0.024
Mof_H 	H 	0.2734	0.1374	0.3672	0.049
Mof_H 	H 	0.3746	0.1541	0.3799	0.021
Mof_H 	H 	0.1306	0.9034	0.2848	0.047
Mof_H 	H 	0.2173	0.079	0.3719	0.044
Mof_H 	H 	0.3623	0.1387	0.2814	0.048
Mof_H 	H 	0.2831	0.1632	0.2935	0.015
Mof_H 	H 	0.394	0.2738	0.3992	-0.025
Mof_H 	H 	0.6057	0.1027	0.211	-0.028
Mof_H 	H 	0.7123	0.2025	0.3242	0.018
Mof_H 	H 	0.617	0.1115	0.3253	0.015
Mof_H 	H 	0.6328	0.2702	0.4062	0.048
Mof_H 	H 	0.6201	0.2742	0.4947	0.022
Mof_H 	H 	0.7152	0.1186	0.3458	0.048
Mof_H 	H 	0.6281	0.2071	0.3454	0.05
Mof_H 	H 	0.7186	0.3573	0.5809	0.048
Mof_H 	H 	0.7065	0.3697	0.4896	0.017
Mof_H 	H 	0.6008	0.3746	0.4948	-0.025
Mof_H 	H 	0.8943	0.1053	0.497	-0.025
Mof_H 	H 	0.7877	0.1119	0.4902	0.017
Mof_H 	H 	0.883	0.2083	0.4945	0.018
Mof_H 	H 	0.8672	0.2734	0.6374	0.05
Mof_H 	H 	0.8799	0.3746	0.6541	0.024
Mof_H 	H 	0.7848	0.1306	0.4034	0.049
Mof_H 	H 	0.8719	0.2173	0.579	0.052
Mof_H 	H 	0.7814	0.3623	0.6387	0.048
Mof_H 	H 	0.7935	0.2831	0.6632	0.017
Mof_H 	H 	0.8992	0.394	0.7738	-0.022
Mof_H 	H 	0.3917	0.3947	0.289	-0.026
Mof_H 	H 	0.3783	0.3881	0.1758	0.017
Mof_H 	H 	0.2862	0.2917	0.1747	0.015
Mof_H 	H 	0.364	0.2266	0.0938	0.049
Mof_H 	H 	0.2795	0.1254	0.0053	0.015
Mof_H 	H 	0.2728	0.3694	0.1542	0.048
Mof_H 	H 	0.3617	0.2827	0.1546	0.05
Mof_H 	H 	0.2764	0.1377	0.9191	0.052
Mof_H 	H 	0.3801	0.2169	0.0104	0.014
Mof_H 	H 	0.3798	0.106	0.0052	-0.033
Mof_H 	H 	0.1083	0.3973	0.003	-0.033
Mof_H 	H 	0.1217	0.2975	0.0098	0.014
Mof_H 	H 	0.2138	0.3885	0.0055	0.011
Mof_H 	H 	0.136	0.2298	0.8626	0.047
Mof_H 	H 	0.2205	0.2258	0.8459	0.023
Mof_H 	H 	0.2272	0.3814	0.0966	0.049
Mof_H 	H 	0.1383	0.2929	0.921	0.055
Mof_H 	H 	0.2236	0.1427	0.8613	0.047
Mof_H 	H 	0.1199	0.1303	0.8368	0.015
Mof_H 	H 	0.1202	0.1254	0.7262	-0.027
Mof_H 	H 	0.503	0.1083	0.8973	-0.025
Mof_H 	H 	0.5098	0.1217	0.7975	0.017
Mof_H 	H 	0.5055	0.2138	0.8885	0.019
Mof_H 	H 	0.3626	0.136	0.7298	0.048
Mof_H 	H 	0.3459	0.2205	0.7258	0.023
Mof_H 	H 	0.5966	0.2272	0.8814	0.05
Mof_H 	H 	0.421	0.1383	0.7929	0.05
Mof_H 	H 	0.3613	0.2236	0.6427	0.048
Mof_H 	H 	0.3368	0.1199	0.6303	0.015
Mof_H 	H 	0.2262	0.1202	0.6254	-0.027
Mof_H 	H 	0.789	0.3917	0.8947	-0.023
Mof_H 	H 	0.6758	0.3783	0.8881	0.019
Mof_H 	H 	0.6747	0.2862	0.7917	0.017
Mof_H 	H 	0.5938	0.364	0.7266	0.049
Mof_H 	H 	0.5053	0.2795	0.6254	0.022
Mof_H 	H 	0.6542	0.2728	0.8694	0.05
Mof_H 	H 	0.6546	0.3617	0.7827	0.051
Mof_H 	H 	0.4191	0.2764	0.6377	0.048
Mof_H 	H 	0.5104	0.3801	0.7169	0.017
Mof_H 	H 	0.5052	0.3798	0.606	-0.025
Mof_H 	H 	0.997	0.8943	0.6053	-0.018
Mof_H 	H 	0.9902	0.7877	0.6119	0.021
Mof_H 	H 	0.9945	0.883	0.7083	0.024
Mof_H 	H 	0.1374	0.8672	0.7734	0.05
Mof_H 	H 	0.1541	0.8799	0.8746	0.024
Mof_H 	H 	0.9034	0.7848	0.6306	0.049
Mof_H 	H 	0.079	0.8719	0.7173	0.047
Mof_H 	H 	0.1387	0.7814	0.8623	0.049
Mof_H 	H 	0.1632	0.7935	0.7831	0.017
Mof_H 	H 	0.2738	0.8992	0.894	-0.022
Mof_H 	H 	0.711	0.6057	0.6027	-0.025
Mof_H 	H 	0.8242	0.7123	0.7025	0.019
Mof_H 	H 	0.8253	0.617	0.6115	0.018
Mof_H 	H 	0.9062	0.6328	0.7702	0.048
Mof_H 	H 	0.9947	0.6201	0.7742	0.029
Mof_H 	H 	0.8458	0.7152	0.6186	0.049
Mof_H 	H 	0.8454	0.6281	0.7071	0.051
Mof_H 	H 	0.0809	0.7186	0.8573	0.044
Mof_H 	H 	0.9896	0.7065	0.8697	0.021
Mof_H 	H 	0.9948	0.6008	0.8746	-0.016
Mof_C 	C 	0.6603	0.2634	0.1623	-0.191
Mof_C 	C 	0.6201	0.2422	0.1247	0.124
Mof_C 	C 	0.6233	0.3082	0.1323	0.026
Mof_C 	C 	0.6609	0.3282	0.1689	-0.013
Mof_C 	C 	0.6814	0.3087	0.1867	0.024
Mof_C 	C 	0.6851	0.3778	0.1947	-0.104
Mof_C 	C 	0.6792	0.3998	0.2288	0.068
Mof_C 	C 	0.6815	0.2381	0.1744	0.461
Mof_C 	C 	0.719	0.3991	0.1879	0.07
Mof_C 	C 	0.7608	0.41	0.1544	-0.077
Mof_C 	C 	0.7699	0.4517	0.1876	0.063
Mof_C 	C 	0.8004	0.4918	0.1974	-0.107
Mof_C 	C 	0.8089	0.531	0.2269	0.066
Mof_C 	C 	0.8649	0.4941	0.1932	0.016
Mof_C 	C 	0.6453	0.3763	0.2372	-0.079
Mof_C 	C 	0.7292	0.3761	0.1551	-0.083
Mof_C 	C 	0.8245	0.4906	0.1725	-0.008
Mof_C 	C 	0.8436	0.5766	0.2358	-0.073
Mof_C 	C 	0.8103	0.4908	0.1335	0.022
Mof_C 	C 	0.8908	0.4967	0.1745	-0.167
Mof_C 	C 	0.8768	0.4949	0.1341	0.103
Mof_C 	C 	0.8367	0.493	0.1145	-0.195
Mof_C 	C 	0.6006	0.2621	0.1095	-0.2
Mof_C 	C 	0.5563	0.2379	0.0694	0.475
Mof_C 	C 	0.8226	0.4956	0.073	0.525
Mof_C 	C 	0.9362	0.503	0.1972	0.442
Mof_C 	C 	0.6011	0.498	0.3377	-0.19
Mof_C 	C 	0.6175	0.4954	0.3753	0.123
Mof_C 	C 	0.6759	0.491	0.3677	0.025
Mof_C 	C 	0.6593	0.492	0.3311	-0.013
Mof_C 	C 	0.622	0.4947	0.3133	0.023
Mof_C 	C 	0.6831	0.4904	0.3053	-0.104
Mof_C 	C 	0.671	0.4504	0.2712	0.067
Mof_C 	C 	0.5637	0.5071	0.3256	0.46
Mof_C 	C 	0.7112	0.5311	0.3121	0.07
Mof_C 	C 	0.7556	0.6064	0.3456	-0.077
Mof_C 	C 	0.7641	0.5823	0.3124	0.063
Mof_C 	C 	0.7944	0.603	0.3026	-0.107
Mof_C 	C 	0.8041	0.582	0.2731	0.066
Mof_C 	C 	0.8009	0.6717	0.3068	0.016
Mof_C 	C 	0.6391	0.4081	0.2628	-0.079
Mof_C 	C 	0.721	0.5741	0.3449	-0.083
Mof_C 	C 	0.8181	0.652	0.3275	-0.008
Mof_C 	C 	0.8408	0.6078	0.2642	-0.073
Mof_C 	C 	0.8573	0.6768	0.3665	0.022
Mof_C 	C 	0.8222	0.7163	0.3255	-0.168
Mof_C 	C 	0.8608	0.7427	0.3659	0.103
Mof_C 	C 	0.8785	0.7222	0.3855	-0.193
Mof_C 	C 	0.6526	0.4911	0.3905	-0.198
Mof_C 	C 	0.6685	0.4869	0.4306	0.475
Mof_C 	C 	0.9226	0.7496	0.427	0.525
Mof_C 	C 	0.8058	0.739	0.3028	0.443
Mof_C 	C 	0.8989	0.2366	0.8969	-0.184
Mof_C 	C 	0.8825	0.2578	0.8779	0.12
Mof_C 	C 	0.8241	0.1918	0.8151	0.023
Mof_C 	C 	0.8407	0.1718	0.8327	-0.01
Mof_C 	C 	0.878	0.1913	0.8727	0.021
Mof_C 	C 	0.8169	0.1222	0.8073	-0.105
Mof_C 	C 	0.829	0.1002	0.7794	0.068
Mof_C 	C 	0.9363	0.2619	0.9434	0.457
Mof_C 	C 	0.7888	0.1009	0.8199	0.07
Mof_C 	C 	0.7444	0.09	0.8508	-0.078
Mof_C 	C 	0.7359	0.0483	0.8182	0.067
Mof_C 	C 	0.7056	0.0082	0.8086	-0.122
Mof_C 	C 	0.6959	0.969	0.7779	0.083
Mof_C 	C 	0.6991	0.0059	0.8708	0.024
Mof_C 	C 	0.8609	0.1237	0.769	-0.078
Mof_C 	C 	0.779	0.1239	0.8531	-0.082
Mof_C 	C 	0.6819	0.0094	0.8339	-0.01
Mof_C 	C 	0.6592	0.9234	0.767	-0.076
Mof_C 	C 	0.6427	0.0092	0.8195	0.023
Mof_C 	C 	0.6778	0.0033	0.8941	-0.186
Mof_C 	C 	0.6392	0.0051	0.8819	0.111
Mof_C 	C 	0.6215	0.007	0.8437	-0.2
Mof_C 	C 	0.8474	0.2379	0.8385	-0.194
Mof_C 	C 	0.8315	0.2621	0.8184	0.474
Mof_C 	C 	0.5774	0.0044	0.827	0.527
Mof_C 	C 	0.6942	0.997	0.9332	0.47
Mof_C 	C 	0.8397	0.002	0.6031	-0.205
Mof_C 	C 	0.8799	0.0046	0.6221	0.129
Mof_C 	C 	0.8767	0.009	0.6849	0.026
Mof_C 	C 	0.8391	0.008	0.6673	-0.014
Mof_C 	C 	0.8186	0.0053	0.6273	0.028
Mof_C 	C 	0.8149	0.0096	0.6927	-0.117
Mof_C 	C 	0.8208	0.0496	0.7206	0.071
Mof_C 	C 	0.8185	0.9929	0.5566	0.474
Mof_C 	C 	0.781	0.9689	0.6801	0.086
Mof_C 	C 	0.7392	0.8936	0.6492	-0.074
Mof_C 	C 	0.7301	0.9177	0.6818	0.063
Mof_C 	C 	0.6996	0.897	0.6914	-0.106
Mof_C 	C 	0.6911	0.918	0.7221	0.066
Mof_C 	C 	0.6351	0.8283	0.6292	0.016
Mof_C 	C 	0.8547	0.0919	0.731	-0.08
Mof_C 	C 	0.7708	0.9259	0.6469	-0.087
Mof_C 	C 	0.6755	0.848	0.6661	-0.008
Mof_C 	C 	0.6564	0.8922	0.733	-0.07
Mof_C 	C 	0.6897	0.8232	0.6805	0.022
Mof_C 	C 	0.6092	0.7837	0.6059	-0.168
Mof_C 	C 	0.6232	0.7573	0.6181	0.103
Mof_C 	C 	0.6633	0.7778	0.6563	-0.194
Mof_C 	C 	0.8994	0.0089	0.6615	-0.201
Mof_C 	C 	0.9437	0.0131	0.6816	0.474
Mof_C 	C 	0.6774	0.7504	0.673	0.525
Mof_C 	C 	0.5638	0.761	0.5668	0.443
Mof_C 	C 	0.3969	0.8989	0.7366	-0.186
Mof_C 	C 	0.3779	0.8825	0.7578	0.121
Mof_C 	C 	0.3151	0.8241	0.6918	0.024
Mof_C 	C 	0.3327	0.8407	0.6718	-0.011
Mof_C 	C 	0.3727	0.878	0.6913	0.022
Mof_C 	C 	0.3073	0.8169	0.6222	-0.105
Mof_C 	C 	0.2794	0.829	0.6002	0.068
Mof_C 	C 	0.4434	0.9363	0.7619	0.459
Mof_C 	C 	0.3199	0.7888	0.6009	0.07
Mof_C 	C 	0.3508	0.7444	0.59	-0.077
Mof_C 	C 	0.3182	0.7359	0.5483	0.063
Mof_C 	C 	0.3086	0.7056	0.5082	-0.107
Mof_C 	C 	0.2779	0.6959	0.469	0.066
Mof_C 	C 	0.3708	0.6991	0.5059	0.016
Mof_C 	C 	0.269	0.8609	0.6237	-0.079
Mof_C 	C 	0.3531	0.779	0.6239	-0.083
Mof_C 	C 	0.3339	0.6819	0.5094	-0.008
Mof_C 	C 	0.267	0.6592	0.4234	-0.073
Mof_C 	C 	0.3195	0.6427	0.5092	0.022
Mof_C 	C 	0.3941	0.6778	0.5033	-0.168
Mof_C 	C 	0.3819	0.6392	0.5051	0.103
Mof_C 	C 	0.3437	0.6215	0.507	-0.195
Mof_C 	C 	0.3385	0.8474	0.7379	-0.196
Mof_C 	C 	0.3184	0.8315	0.7621	0.474
Mof_C 	C 	0.327	0.5774	0.5044	0.525
Mof_C 	C 	0.4332	0.6942	0.497	0.443
Mof_C 	C 	0.1031	0.8397	0.502	-0.191
Mof_C 	C 	0.1221	0.8799	0.5046	0.123
Mof_C 	C 	0.1849	0.8767	0.509	0.025
Mof_C 	C 	0.1673	0.8391	0.508	-0.012
Mof_C 	C 	0.1273	0.8186	0.5053	0.024
Mof_C 	C 	0.1927	0.8149	0.5096	-0.104
Mof_C 	C 	0.2206	0.8208	0.5496	0.067
Mof_C 	C 	0.0566	0.8185	0.4929	0.461
Mof_C 	C 	0.1801	0.781	0.4689	0.07
Mof_C 	C 	0.1492	0.7392	0.3936	-0.077
Mof_C 	C 	0.1818	0.7301	0.4177	0.062
Mof_C 	C 	0.1914	0.6996	0.397	-0.107
Mof_C 	C 	0.2221	0.6911	0.418	0.065
Mof_C 	C 	0.1292	0.6351	0.3283	0.017
Mof_C 	C 	0.231	0.8547	0.5919	-0.078
Mof_C 	C 	0.1469	0.7708	0.4259	-0.083
Mof_C 	C 	0.1661	0.6755	0.348	-0.009
Mof_C 	C 	0.233	0.6564	0.3922	-0.073
Mof_C 	C 	0.1805	0.6897	0.3232	0.023
Mof_C 	C 	0.1059	0.6092	0.2837	-0.171
Mof_C 	C 	0.1181	0.6232	0.2573	0.104
Mof_C 	C 	0.1563	0.6633	0.2778	-0.196
Mof_C 	C 	0.1615	0.8994	0.5089	-0.196
Mof_C 	C 	0.1816	0.9437	0.5131	0.474
Mof_C 	C 	0.173	0.6774	0.2504	0.526
Mof_C 	C 	0.0668	0.5638	0.261	0.443
Mof_C 	C 	0.6623	0.6603	0.7634	-0.189
Mof_C 	C 	0.6247	0.6201	0.7422	0.122
Mof_C 	C 	0.6323	0.6233	0.8082	0.024
Mof_C 	C 	0.6689	0.6609	0.8282	-0.012
Mof_C 	C 	0.6867	0.6814	0.8087	0.023
Mof_C 	C 	0.6947	0.6851	0.8778	-0.104
Mof_C 	C 	0.7288	0.6792	0.8998	0.069
Mof_C 	C 	0.6744	0.6815	0.7381	0.46
Mof_C 	C 	0.6879	0.719	0.8991	0.071
Mof_C 	C 	0.6544	0.7608	0.91	-0.074
Mof_C 	C 	0.6876	0.7699	0.9517	0.06
Mof_C 	C 	0.6974	0.8004	0.9918	-0.091
Mof_C 	C 	0.7269	0.8089	0.031	0.049
Mof_C 	C 	0.6932	0.8649	0.9941	0.006
Mof_C 	C 	0.7372	0.6453	0.8763	-0.079
Mof_C 	C 	0.6551	0.7292	0.8761	-0.083
Mof_C 	C 	0.6725	0.8245	0.9906	-0.004
Mof_C 	C 	0.7358	0.8436	0.0766	-0.069
Mof_C 	C 	0.6335	0.8103	0.9908	0.019
Mof_C 	C 	0.6745	0.8908	0.9967	-0.143
Mof_C 	C 	0.6341	0.8768	0.9949	0.091
Mof_C 	C 	0.6145	0.8367	0.993	-0.186
Mof_C 	C 	0.6095	0.6006	0.7621	-0.197
Mof_C 	C 	0.5694	0.5563	0.7379	0.474
Mof_C 	C 	0.573	0.8226	0.9956	0.523
Mof_C 	C 	0.6972	0.9362	0.003	0.41
Mof_C 	C 	0.8377	0.6011	0.998	-0.169
Mof_C 	C 	0.8753	0.6175	0.9954	0.113
Mof_C 	C 	0.8677	0.6759	0.991	0.022
Mof_C 	C 	0.8311	0.6593	0.992	-0.008
Mof_C 	C 	0.8133	0.622	0.9947	0.016
Mof_C 	C 	0.8053	0.6831	0.9904	-0.09
Mof_C 	C 	0.7712	0.671	0.9504	0.065
Mof_C 	C 	0.8256	0.5637	0.0071	0.444
Mof_C 	C 	0.8121	0.7112	0.0311	0.053
Mof_C 	C 	0.8456	0.7556	0.1064	-0.08
Mof_C 	C 	0.8124	0.7641	0.0823	0.063
Mof_C 	C 	0.8026	0.7944	0.103	-0.109
Mof_C 	C 	0.7731	0.8041	0.082	0.066
Mof_C 	C 	0.8068	0.8009	0.1717	0.016
Mof_C 	C 	0.7628	0.6391	0.9081	-0.077
Mof_C 	C 	0.8449	0.721	0.0741	-0.078
Mof_C 	C 	0.8275	0.8181	0.152	-0.007
Mof_C 	C 	0.7642	0.8408	0.1078	-0.076
Mof_C 	C 	0.8665	0.8573	0.1768	0.021
Mof_C 	C 	0.8255	0.8222	0.2163	-0.167
Mof_C 	C 	0.8659	0.8608	0.2427	0.102
Mof_C 	C 	0.8855	0.8785	0.2222	-0.192
Mof_C 	C 	0.8905	0.6526	0.9911	-0.188
Mof_C 	C 	0.9306	0.6685	0.9869	0.473
Mof_C 	C 	0.927	0.9226	0.2496	0.525
Mof_C 	C 	0.8028	0.8058	0.239	0.443
Mof_C 	C 	0.498	0.8377	0.1011	-0.192
Mof_C 	C 	0.4954	0.8753	0.1175	0.124
Mof_C 	C 	0.491	0.8677	0.1759	0.025
Mof_C 	C 	0.492	0.8311	0.1593	-0.013
Mof_C 	C 	0.4947	0.8133	0.122	0.024
Mof_C 	C 	0.4904	0.8053	0.1831	-0.104
Mof_C 	C 	0.4504	0.7712	0.171	0.067
Mof_C 	C 	0.5071	0.8256	0.0637	0.462
Mof_C 	C 	0.5311	0.8121	0.2112	0.07
Mof_C 	C 	0.6064	0.8456	0.2556	-0.077
Mof_C 	C 	0.5823	0.8124	0.2641	0.063
Mof_C 	C 	0.603	0.8026	0.2944	-0.107
Mof_C 	C 	0.582	0.7731	0.3041	0.066
Mof_C 	C 	0.6717	0.8068	0.3009	0.016
Mof_C 	C 	0.4081	0.7628	0.1391	-0.079
Mof_C 	C 	0.5741	0.8449	0.221	-0.082
Mof_C 	C 	0.652	0.8275	0.3181	-0.007
Mof_C 	C 	0.6078	0.7642	0.3408	-0.073
Mof_C 	C 	0.6768	0.8665	0.3573	0.022
Mof_C 	C 	0.7163	0.8255	0.3222	-0.168
Mof_C 	C 	0.7427	0.8659	0.3608	0.102
Mof_C 	C 	0.7222	0.8855	0.3785	-0.193
Mof_C 	C 	0.4911	0.8905	0.1526	-0.198
Mof_C 	C 	0.4869	0.9306	0.1685	0.475
Mof_C 	C 	0.7496	0.927	0.4226	0.525
Mof_C 	C 	0.739	0.8028	0.3058	0.443
Mof_C 	C 	0.2634	0.6623	0.1603	-0.192
Mof_C 	C 	0.2422	0.6247	0.1201	0.125
Mof_C 	C 	0.3082	0.6323	0.1233	0.026
Mof_C 	C 	0.3282	0.6689	0.1609	-0.014
Mof_C 	C 	0.3087	0.6867	0.1814	0.024
Mof_C 	C 	0.3778	0.6947	0.1851	-0.104
Mof_C 	C 	0.3998	0.7288	0.1792	0.067
Mof_C 	C 	0.2381	0.6744	0.1815	0.461
Mof_C 	C 	0.3991	0.6879	0.219	0.07
Mof_C 	C 	0.41	0.6544	0.2608	-0.077
Mof_C 	C 	0.4517	0.6876	0.2699	0.063
Mof_C 	C 	0.4918	0.6974	0.3004	-0.107
Mof_C 	C 	0.531	0.7269	0.3089	0.066
Mof_C 	C 	0.4941	0.6932	0.3649	0.016
Mof_C 	C 	0.3763	0.7372	0.1453	-0.079
Mof_C 	C 	0.3761	0.6551	0.2292	-0.083
Mof_C 	C 	0.4906	0.6725	0.3245	-0.008
Mof_C 	C 	0.5766	0.7358	0.3436	-0.073
Mof_C 	C 	0.4908	0.6335	0.3103	0.022
Mof_C 	C 	0.4967	0.6745	0.3908	-0.168
Mof_C 	C 	0.4949	0.6341	0.3768	0.103
Mof_C 	C 	0.493	0.6145	0.3367	-0.195
Mof_C 	C 	0.2621	0.6095	0.1006	-0.201
Mof_C 	C 	0.2379	0.5694	0.0563	0.476
Mof_C 	C 	0.4956	0.573	0.3226	0.525
Mof_C 	C 	0.503	0.6972	0.4362	0.443
Mof_C 	C 	0.002	0.1031	0.3397	-0.215
Mof_C 	C 	0.0046	0.1221	0.3799	0.136
Mof_C 	C 	0.009	0.1849	0.3767	0.029
Mof_C 	C 	0.008	0.1673	0.3391	-0.018
Mof_C 	C 	0.0053	0.1273	0.3186	0.032
Mof_C 	C 	0.0096	0.1927	0.3149	-0.121
Mof_C 	C 	0.0496	0.2206	0.3208	0.07
Mof_C 	C 	0.9929	0.0566	0.3185	0.48
Mof_C 	C 	0.9689	0.1801	0.281	0.089
Mof_C 	C 	0.8936	0.1492	0.2392	-0.074
Mof_C 	C 	0.9177	0.1818	0.2301	0.062
Mof_C 	C 	0.897	0.1914	0.1996	-0.105
Mof_C 	C 	0.918	0.2221	0.1911	0.066
Mof_C 	C 	0.8283	0.1292	0.1351	0.017
Mof_C 	C 	0.0919	0.231	0.3547	-0.081
Mof_C 	C 	0.9259	0.1469	0.2708	-0.088
Mof_C 	C 	0.848	0.1661	0.1755	-0.01
Mof_C 	C 	0.8922	0.233	0.1564	-0.07
Mof_C 	C 	0.8232	0.1805	0.1897	0.023
Mof_C 	C 	0.7837	0.1059	0.1092	-0.171
Mof_C 	C 	0.7573	0.1181	0.1232	0.104
Mof_C 	C 	0.7778	0.1563	0.1633	-0.196
Mof_C 	C 	0.0089	0.1615	0.3994	-0.208
Mof_C 	C 	0.0131	0.1816	0.4437	0.477
Mof_C 	C 	0.7504	0.173	0.1774	0.526
Mof_C 	C 	0.761	0.0668	0.0638	0.443
Mof_C 	C 	0.2366	0.3969	0.3989	-0.191
Mof_C 	C 	0.2578	0.3779	0.3825	0.124
Mof_C 	C 	0.1918	0.3151	0.3241	0.026
Mof_C 	C 	0.1718	0.3327	0.3407	-0.013
Mof_C 	C 	0.1913	0.3727	0.378	0.024
Mof_C 	C 	0.1222	0.3073	0.3169	-0.105
Mof_C 	C 	0.1002	0.2794	0.329	0.067
Mof_C 	C 	0.2619	0.4434	0.4363	0.461
Mof_C 	C 	0.1009	0.3199	0.2888	0.069
Mof_C 	C 	0.09	0.3508	0.2444	-0.08
Mof_C 	C 	0.0483	0.3182	0.2359	0.066
Mof_C 	C 	0.0082	0.3086	0.2056	-0.125
Mof_C 	C 	0.969	0.2779	0.1959	0.085
Mof_C 	C 	0.0059	0.3708	0.1991	0.027
Mof_C 	C 	0.1237	0.269	0.3609	-0.079
Mof_C 	C 	0.1239	0.3531	0.279	-0.082
Mof_C 	C 	0.0094	0.3339	0.1819	-0.012
Mof_C 	C 	0.9234	0.267	0.1592	-0.078
Mof_C 	C 	0.0092	0.3195	0.1427	0.025
Mof_C 	C 	0.0033	0.3941	0.1778	-0.194
Mof_C 	C 	0.0051	0.3819	0.1392	0.115
Mof_C 	C 	0.007	0.3437	0.1215	-0.204
Mof_C 	C 	0.2379	0.3385	0.3474	-0.199
Mof_C 	C 	0.2621	0.3184	0.3315	0.475
Mof_C 	C 	0.0044	0.327	0.0774	0.528
Mof_C 	C 	0.997	0.4332	0.1942	0.478
Mof_C 	C 	0.3397	0.7366	0.8377	-0.189
Mof_C 	C 	0.3799	0.7578	0.8753	0.122
Mof_C 	C 	0.3767	0.6918	0.8677	0.024
Mof_C 	C 	0.3391	0.6718	0.8311	-0.012
Mof_C 	C 	0.3186	0.6913	0.8133	0.023
Mof_C 	C 	0.3149	0.6222	0.8053	-0.104
Mof_C 	C 	0.3208	0.6002	0.7712	0.068
Mof_C 	C 	0.3185	0.7619	0.8256	0.46
Mof_C 	C 	0.281	0.6009	0.8121	0.07
Mof_C 	C 	0.2392	0.59	0.8456	-0.077
Mof_C 	C 	0.2301	0.5483	0.8124	0.063
Mof_C 	C 	0.1996	0.5082	0.8026	-0.107
Mof_C 	C 	0.1911	0.469	0.7731	0.065
Mof_C 	C 	0.1351	0.5059	0.8068	0.017
Mof_C 	C 	0.3547	0.6237	0.7628	-0.079
Mof_C 	C 	0.2708	0.6239	0.8449	-0.082
Mof_C 	C 	0.1755	0.5094	0.8275	-0.008
Mof_C 	C 	0.1564	0.4234	0.7642	-0.074
Mof_C 	C 	0.1897	0.5092	0.8665	0.022
Mof_C 	C 	0.1092	0.5033	0.8255	-0.17
Mof_C 	C 	0.1232	0.5051	0.8659	0.103
Mof_C 	C 	0.1633	0.507	0.8855	-0.194
Mof_C 	C 	0.3994	0.7379	0.8905	-0.196
Mof_C 	C 	0.4437	0.7621	0.9306	0.474
Mof_C 	C 	0.1774	0.5044	0.927	0.525
Mof_C 	C 	0.0638	0.497	0.8028	0.443
Mof_C 	C 	0.3989	0.502	0.6623	-0.19
Mof_C 	C 	0.3825	0.5046	0.6247	0.123
Mof_C 	C 	0.3241	0.509	0.6323	0.025
Mof_C 	C 	0.3407	0.508	0.6689	-0.013
Mof_C 	C 	0.378	0.5053	0.6867	0.023
Mof_C 	C 	0.3169	0.5096	0.6947	-0.105
Mof_C 	C 	0.329	0.5496	0.7288	0.068
Mof_C 	C 	0.4363	0.4929	0.6744	0.46
Mof_C 	C 	0.2888	0.4689	0.6879	0.07
Mof_C 	C 	0.2444	0.3936	0.6544	-0.077
Mof_C 	C 	0.2359	0.4177	0.6876	0.062
Mof_C 	C 	0.2056	0.397	0.6974	-0.107
Mof_C 	C 	0.1959	0.418	0.7269	0.065
Mof_C 	C 	0.1991	0.3283	0.6932	0.017
Mof_C 	C 	0.3609	0.5919	0.7372	-0.079
Mof_C 	C 	0.279	0.4259	0.6551	-0.083
Mof_C 	C 	0.1819	0.348	0.6725	-0.009
Mof_C 	C 	0.1592	0.3922	0.7358	-0.073
Mof_C 	C 	0.1427	0.3232	0.6335	0.023
Mof_C 	C 	0.1778	0.2837	0.6745	-0.17
Mof_C 	C 	0.1392	0.2573	0.6341	0.104
Mof_C 	C 	0.1215	0.2778	0.6145	-0.197
Mof_C 	C 	0.3474	0.5089	0.6095	-0.198
Mof_C 	C 	0.3315	0.5131	0.5694	0.475
Mof_C 	C 	0.0774	0.2504	0.573	0.526
Mof_C 	C 	0.1942	0.261	0.6972	0.443
Mof_C 	C 	0.1011	0.7634	0.1031	-0.195
Mof_C 	C 	0.1175	0.7422	0.1221	0.125
Mof_C 	C 	0.1759	0.8082	0.1849	0.027
Mof_C 	C 	0.1593	0.8282	0.1673	-0.015
Mof_C 	C 	0.122	0.8087	0.1273	0.025
Mof_C 	C 	0.1831	0.8778	0.1927	-0.103
Mof_C 	C 	0.171	0.8998	0.2206	0.067
Mof_C 	C 	0.0637	0.7381	0.0566	0.463
Mof_C 	C 	0.2112	0.8991	0.1801	0.07
Mof_C 	C 	0.2556	0.91	0.1492	-0.075
Mof_C 	C 	0.2641	0.9517	0.1818	0.058
Mof_C 	C 	0.2944	0.9918	0.1914	-0.089
Mof_C 	C 	0.3041	0.031	0.2221	0.045
Mof_C 	C 	0.3009	0.9941	0.1292	0.006
Mof_C 	C 	0.1391	0.8763	0.231	-0.08
Mof_C 	C 	0.221	0.8761	0.1469	-0.084
Mof_C 	C 	0.3181	0.9906	0.1661	-0.005
Mof_C 	C 	0.3408	0.0766	0.233	-0.069
Mof_C 	C 	0.3573	0.9908	0.1805	0.02
Mof_C 	C 	0.3222	0.9967	0.1059	-0.143
Mof_C 	C 	0.3608	0.9949	0.1181	0.091
Mof_C 	C 	0.3785	0.993	0.1563	-0.187
Mof_C 	C 	0.1526	0.7621	0.1615	-0.201
Mof_C 	C 	0.1685	0.7379	0.1816	0.475
Mof_C 	C 	0.4226	0.9956	0.173	0.523
Mof_C 	C 	0.3058	0.003	0.0668	0.405
Mof_C 	C 	0.1603	0.998	0.3969	-0.17
Mof_C 	C 	0.1201	0.9954	0.3779	0.114
Mof_C 	C 	0.1233	0.991	0.3151	0.023
Mof_C 	C 	0.1609	0.992	0.3327	-0.01
Mof_C 	C 	0.1814	0.9947	0.3727	0.017
Mof_C 	C 	0.1851	0.9904	0.3073	-0.087
Mof_C 	C 	0.1792	0.9504	0.2794	0.064
Mof_C 	C 	0.1815	0.0071	0.4434	0.443
Mof_C 	C 	0.219	0.0311	0.3199	0.05
Mof_C 	C 	0.2608	0.1064	0.3508	-0.081
Mof_C 	C 	0.2699	0.0823	0.3182	0.062
Mof_C 	C 	0.3004	0.103	0.3086	-0.109
Mof_C 	C 	0.3089	0.082	0.2779	0.065
Mof_C 	C 	0.3649	0.1717	0.3708	0.017
Mof_C 	C 	0.1453	0.9081	0.269	-0.077
Mof_C 	C 	0.2292	0.0741	0.3531	-0.078
Mof_C 	C 	0.3245	0.152	0.3339	-0.009
Mof_C 	C 	0.3436	0.1078	0.267	-0.077
Mof_C 	C 	0.3103	0.1768	0.3195	0.023
Mof_C 	C 	0.3908	0.2163	0.3941	-0.17
Mof_C 	C 	0.3768	0.2427	0.3819	0.104
Mof_C 	C 	0.3367	0.2222	0.3437	-0.196
Mof_C 	C 	0.1006	0.9911	0.3385	-0.192
Mof_C 	C 	0.0563	0.9869	0.3184	0.474
Mof_C 	C 	0.3226	0.2496	0.327	0.526
Mof_C 	C 	0.4362	0.239	0.4332	0.443
Mof_C 	C 	0.6031	0.1011	0.2634	-0.193
Mof_C 	C 	0.6221	0.1175	0.2422	0.125
Mof_C 	C 	0.6849	0.1759	0.3082	0.026
Mof_C 	C 	0.6673	0.1593	0.3282	-0.014
Mof_C 	C 	0.6273	0.122	0.3087	0.025
Mof_C 	C 	0.6927	0.1831	0.3778	-0.104
Mof_C 	C 	0.7206	0.171	0.3998	0.067
Mof_C 	C 	0.5566	0.0637	0.2381	0.462
Mof_C 	C 	0.6801	0.2112	0.3991	0.069
Mof_C 	C 	0.6492	0.2556	0.41	-0.077
Mof_C 	C 	0.6818	0.2641	0.4517	0.063
Mof_C 	C 	0.6914	0.2944	0.4918	-0.107
Mof_C 	C 	0.7221	0.3041	0.531	0.065
Mof_C 	C 	0.6292	0.3009	0.4941	0.017
Mof_C 	C 	0.731	0.1391	0.3763	-0.079
Mof_C 	C 	0.6469	0.221	0.3761	-0.083
Mof_C 	C 	0.6661	0.3181	0.4906	-0.008
Mof_C 	C 	0.733	0.3408	0.5766	-0.073
Mof_C 	C 	0.6805	0.3573	0.4908	0.022
Mof_C 	C 	0.6059	0.3222	0.4967	-0.169
Mof_C 	C 	0.6181	0.3608	0.4949	0.103
Mof_C 	C 	0.6563	0.3785	0.493	-0.195
Mof_C 	C 	0.6615	0.1526	0.2621	-0.2
Mof_C 	C 	0.6816	0.1685	0.2379	0.475
Mof_C 	C 	0.673	0.4226	0.4956	0.525
Mof_C 	C 	0.5668	0.3058	0.503	0.443
Mof_C 	C 	0.8969	0.1603	0.498	-0.188
Mof_C 	C 	0.8779	0.1201	0.4954	0.123
Mof_C 	C 	0.8151	0.1233	0.491	0.025
Mof_C 	C 	0.8327	0.1609	0.492	-0.012
Mof_C 	C 	0.8727	0.1814	0.4947	0.023
Mof_C 	C 	0.8073	0.1851	0.4904	-0.105
Mof_C 	C 	0.7794	0.1792	0.4504	0.068
Mof_C 	C 	0.9434	0.1815	0.5071	0.459
Mof_C 	C 	0.8199	0.219	0.5311	0.07
Mof_C 	C 	0.8508	0.2608	0.6064	-0.077
Mof_C 	C 	0.8182	0.2699	0.5823	0.063
Mof_C 	C 	0.8086	0.3004	0.603	-0.107
Mof_C 	C 	0.7779	0.3089	0.582	0.066
Mof_C 	C 	0.8708	0.3649	0.6717	0.015
Mof_C 	C 	0.769	0.1453	0.4081	-0.079
Mof_C 	C 	0.8531	0.2292	0.5741	-0.082
Mof_C 	C 	0.8339	0.3245	0.652	-0.007
Mof_C 	C 	0.767	0.3436	0.6078	-0.073
Mof_C 	C 	0.8195	0.3103	0.6768	0.021
Mof_C 	C 	0.8941	0.3908	0.7163	-0.166
Mof_C 	C 	0.8819	0.3768	0.7427	0.102
Mof_C 	C 	0.8437	0.3367	0.7222	-0.193
Mof_C 	C 	0.8385	0.1006	0.4911	-0.198
Mof_C 	C 	0.8184	0.0563	0.4869	0.476
Mof_C 	C 	0.827	0.3226	0.7496	0.525
Mof_C 	C 	0.9332	0.4362	0.739	0.442
Mof_C 	C 	0.3377	0.3397	0.2366	-0.191
Mof_C 	C 	0.3753	0.3799	0.2578	0.124
Mof_C 	C 	0.3677	0.3767	0.1918	0.026
Mof_C 	C 	0.3311	0.3391	0.1718	-0.014
Mof_C 	C 	0.3133	0.3186	0.1913	0.024
Mof_C 	C 	0.3053	0.3149	0.1222	-0.105
Mof_C 	C 	0.2712	0.3208	0.1002	0.066
Mof_C 	C 	0.3256	0.3185	0.2619	0.461
Mof_C 	C 	0.3121	0.281	0.1009	0.069
Mof_C 	C 	0.3456	0.2392	0.09	-0.08
Mof_C 	C 	0.3124	0.2301	0.0483	0.066
Mof_C 	C 	0.3026	0.1996	0.0082	-0.123
Mof_C 	C 	0.2731	0.1911	0.969	0.083
Mof_C 	C 	0.3068	0.1351	0.0059	0.027
Mof_C 	C 	0.2628	0.3547	0.1237	-0.079
Mof_C 	C 	0.3449	0.2708	0.1239	-0.082
Mof_C 	C 	0.3275	0.1755	0.0094	-0.013
Mof_C 	C 	0.2642	0.1564	0.9234	-0.077
Mof_C 	C 	0.3665	0.1897	0.0092	0.026
Mof_C 	C 	0.3255	0.1092	0.0033	-0.195
Mof_C 	C 	0.3659	0.1232	0.0051	0.115
Mof_C 	C 	0.3855	0.1633	0.007	-0.203
Mof_C 	C 	0.3905	0.3994	0.2379	-0.199
Mof_C 	C 	0.4306	0.4437	0.2621	0.475
Mof_C 	C 	0.427	0.1774	0.0044	0.527
Mof_C 	C 	0.3028	0.0638	0.997	0.477
Mof_C 	C 	0.1623	0.3989	0.002	-0.209
Mof_C 	C 	0.1247	0.3825	0.0046	0.133
Mof_C 	C 	0.1323	0.3241	0.009	0.028
Mof_C 	C 	0.1689	0.3407	0.008	-0.016
Mof_C 	C 	0.1867	0.378	0.0053	0.03
Mof_C 	C 	0.1947	0.3169	0.0096	-0.119
Mof_C 	C 	0.2288	0.329	0.0496	0.07
Mof_C 	C 	0.1744	0.4363	0.9929	0.476
Mof_C 	C 	0.1879	0.2888	0.9689	0.087
Mof_C 	C 	0.1544	0.2444	0.8936	-0.074
Mof_C 	C 	0.1876	0.2359	0.9177	0.062
Mof_C 	C 	0.1974	0.2056	0.897	-0.105
Mof_C 	C 	0.2269	0.1959	0.918	0.065
Mof_C 	C 	0.1932	0.1991	0.8283	0.017
Mof_C 	C 	0.2372	0.3609	0.0919	-0.081
Mof_C 	C 	0.1551	0.279	0.9259	-0.088
Mof_C 	C 	0.1725	0.1819	0.848	-0.01
Mof_C 	C 	0.2358	0.1592	0.8922	-0.071
Mof_C 	C 	0.1335	0.1427	0.8232	0.023
Mof_C 	C 	0.1745	0.1778	0.7837	-0.17
Mof_C 	C 	0.1341	0.1392	0.7573	0.104
Mof_C 	C 	0.1145	0.1215	0.7778	-0.198
Mof_C 	C 	0.1095	0.3474	0.0089	-0.207
Mof_C 	C 	0.0694	0.3315	0.0131	0.477
Mof_C 	C 	0.073	0.0774	0.7504	0.526
Mof_C 	C 	0.1972	0.1942	0.761	0.443
Mof_C 	C 	0.502	0.1623	0.8989	-0.188
Mof_C 	C 	0.5046	0.1247	0.8825	0.122
Mof_C 	C 	0.509	0.1323	0.8241	0.024
Mof_C 	C 	0.508	0.1689	0.8407	-0.012
Mof_C 	C 	0.5053	0.1867	0.878	0.022
Mof_C 	C 	0.5096	0.1947	0.8169	-0.105
Mof_C 	C 	0.5496	0.2288	0.829	0.068
Mof_C 	C 	0.4929	0.1744	0.9363	0.459
Mof_C 	C 	0.4689	0.1879	0.7888	0.07
Mof_C 	C 	0.3936	0.1544	0.7444	-0.077
Mof_C 	C 	0.4177	0.1876	0.7359	0.062
Mof_C 	C 	0.397	0.1974	0.7056	-0.107
Mof_C 	C 	0.418	0.2269	0.6959	0.065
Mof_C 	C 	0.3283	0.1932	0.6991	0.017
Mof_C 	C 	0.5919	0.2372	0.8609	-0.079
Mof_C 	C 	0.4259	0.1551	0.779	-0.083
Mof_C 	C 	0.348	0.1725	0.6819	-0.009
Mof_C 	C 	0.3922	0.2358	0.6592	-0.073
Mof_C 	C 	0.3232	0.1335	0.6427	0.023
Mof_C 	C 	0.2837	0.1745	0.6778	-0.17
Mof_C 	C 	0.2573	0.1341	0.6392	0.104
Mof_C 	C 	0.2778	0.1145	0.6215	-0.197
Mof_C 	C 	0.5089	0.1095	0.8474	-0.198
Mof_C 	C 	0.5131	0.0694	0.8315	0.475
Mof_C 	C 	0.2504	0.073	0.5774	0.526
Mof_C 	C 	0.261	0.1972	0.6942	0.443
Mof_C 	C 	0.7366	0.3377	0.8397	-0.188
Mof_C 	C 	0.7578	0.3753	0.8799	0.121
Mof_C 	C 	0.6918	0.3677	0.8767	0.024
Mof_C 	C 	0.6718	0.3311	0.8391	-0.011
Mof_C 	C 	0.6913	0.3133	0.8186	0.022
Mof_C 	C 	0.6222	0.3053	0.8149	-0.104
Mof_C 	C 	0.6002	0.2712	0.8208	0.068
Mof_C 	C 	0.7619	0.3256	0.8185	0.46
Mof_C 	C 	0.6009	0.3121	0.781	0.07
Mof_C 	C 	0.59	0.3456	0.7392	-0.077
Mof_C 	C 	0.5483	0.3124	0.7301	0.063
Mof_C 	C 	0.5082	0.3026	0.6996	-0.107
Mof_C 	C 	0.469	0.2731	0.6911	0.065
Mof_C 	C 	0.5059	0.3068	0.6351	0.017
Mof_C 	C 	0.6237	0.2628	0.8547	-0.078
Mof_C 	C 	0.6239	0.3449	0.7708	-0.083
Mof_C 	C 	0.5094	0.3275	0.6755	-0.008
Mof_C 	C 	0.4234	0.2642	0.6564	-0.073
Mof_C 	C 	0.5092	0.3665	0.6897	0.022
Mof_C 	C 	0.5033	0.3255	0.6092	-0.169
Mof_C 	C 	0.5051	0.3659	0.6232	0.103
Mof_C 	C 	0.507	0.3855	0.6633	-0.195
Mof_C 	C 	0.7379	0.3905	0.8994	-0.194
Mof_C 	C 	0.7621	0.4306	0.9437	0.473
Mof_C 	C 	0.5044	0.427	0.6774	0.525
Mof_C 	C 	0.497	0.3028	0.5638	0.443
Mof_C 	C 	0.998	0.8969	0.6603	-0.17
Mof_C 	C 	0.9954	0.8779	0.6201	0.113
Mof_C 	C 	0.991	0.8151	0.6233	0.022
Mof_C 	C 	0.992	0.8327	0.6609	-0.008
Mof_C 	C 	0.9947	0.8727	0.6814	0.016
Mof_C 	C 	0.9904	0.8073	0.6851	-0.091
Mof_C 	C 	0.9504	0.7794	0.6792	0.066
Mof_C 	C 	0.0071	0.9434	0.6815	0.445
Mof_C 	C 	0.0311	0.8199	0.719	0.054
Mof_C 	C 	0.1064	0.8508	0.7608	-0.079
Mof_C 	C 	0.0823	0.8182	0.7699	0.063
Mof_C 	C 	0.103	0.8086	0.8004	-0.109
Mof_C 	C 	0.082	0.7779	0.8089	0.066
Mof_C 	C 	0.1717	0.8708	0.8649	0.014
Mof_C 	C 	0.9081	0.769	0.6453	-0.077
Mof_C 	C 	0.0741	0.8531	0.7292	-0.078
Mof_C 	C 	0.152	0.8339	0.8245	-0.006
Mof_C 	C 	0.1078	0.767	0.8436	-0.076
Mof_C 	C 	0.1768	0.8195	0.8103	0.021
Mof_C 	C 	0.2163	0.8941	0.8908	-0.164
Mof_C 	C 	0.2427	0.8819	0.8768	0.101
Mof_C 	C 	0.2222	0.8437	0.8367	-0.192
Mof_C 	C 	0.9911	0.8385	0.6006	-0.189
Mof_C 	C 	0.9869	0.8184	0.5563	0.473
Mof_C 	C 	0.2496	0.827	0.8226	0.525
Mof_C 	C 	0.239	0.9332	0.9362	0.441
Mof_C 	C 	0.7634	0.6031	0.6011	-0.189
Mof_C 	C 	0.7422	0.6221	0.6175	0.122
Mof_C 	C 	0.8082	0.6849	0.6759	0.024
Mof_C 	C 	0.8282	0.6673	0.6593	-0.012
Mof_C 	C 	0.8087	0.6273	0.622	0.023
Mof_C 	C 	0.8778	0.6927	0.6831	-0.104
Mof_C 	C 	0.8998	0.7206	0.671	0.069
Mof_C 	C 	0.7381	0.5566	0.5637	0.46
Mof_C 	C 	0.8991	0.6801	0.7112	0.071
Mof_C 	C 	0.91	0.6492	0.7556	-0.074
Mof_C 	C 	0.9517	0.6818	0.7641	0.059
Mof_C 	C 	0.9918	0.6914	0.7944	-0.091
Mof_C 	C 	0.031	0.7221	0.8041	0.048
Mof_C 	C 	0.9941	0.6292	0.8009	0.005
Mof_C 	C 	0.8763	0.731	0.6391	-0.079
Mof_C 	C 	0.8761	0.6469	0.721	-0.083
Mof_C 	C 	0.9906	0.6661	0.8181	-0.003
Mof_C 	C 	0.0766	0.733	0.8408	-0.069
Mof_C 	C 	0.9908	0.6805	0.8573	0.018
Mof_C 	C 	0.9967	0.6059	0.8222	-0.142
Mof_C 	C 	0.9949	0.6181	0.8608	0.091
Mof_C 	C 	0.993	0.6563	0.8785	-0.185
Mof_C 	C 	0.7621	0.6615	0.6526	-0.197
Mof_C 	C 	0.7379	0.6816	0.6685	0.474
Mof_C 	C 	0.9956	0.673	0.9226	0.523
Mof_C 	C 	0.003	0.5668	0.8058	0.408
Mof_N 	N 	0.7435	0.4437	0.2064	-0.292
Mof_N 	N 	0.7373	0.5371	0.2936	-0.292
Mof_N 	N 	0.7627	0.0563	0.7998	-0.294
Mof_N 	N 	0.7565	0.9629	0.7002	-0.291
Mof_N 	N 	0.2998	0.7627	0.5563	-0.292
Mof_N 	N 	0.2002	0.7565	0.4629	-0.292
Mof_N 	N 	0.7064	0.7435	0.9437	-0.289
Mof_N 	N 	0.7936	0.7373	0.0371	-0.293
Mof_N 	N 	0.5371	0.7936	0.2373	-0.292
Mof_N 	N 	0.4437	0.7064	0.2435	-0.292
Mof_N 	N 	0.9629	0.2002	0.2565	-0.291
Mof_N 	N 	0.0563	0.2998	0.2627	-0.295
Mof_N 	N 	0.2565	0.5563	0.7936	-0.292
Mof_N 	N 	0.2627	0.4629	0.7064	-0.292
Mof_N 	N 	0.2373	0.9437	0.2002	-0.289
Mof_N 	N 	0.2435	0.0371	0.2998	-0.294
Mof_N 	N 	0.7002	0.2373	0.4437	-0.292
Mof_N 	N 	0.7998	0.2435	0.5371	-0.292
Mof_N 	N 	0.2936	0.2565	0.0563	-0.295
Mof_N 	N 	0.2064	0.2627	0.9629	-0.291
Mof_N 	N 	0.4629	0.2064	0.7627	-0.292
Mof_N 	N 	0.5563	0.2936	0.7565	-0.292
Mof_N 	N 	0.0371	0.7998	0.7435	-0.293
Mof_N 	N 	0.9437	0.7002	0.7373	-0.289
Mof_N 	N 	0.6939	0.4439	0.25	-0.289
Mof_N 	N 	0.7879	0.5379	0.25	-0.295
Mof_N 	N 	0.8061	0.0561	0.75	-0.291
Mof_N 	N 	0.7121	0.9621	0.75	-0.293
Mof_N 	N 	0.25	0.8061	0.5561	-0.289
Mof_N 	N 	0.25	0.7121	0.4621	-0.295
Mof_N 	N 	0.75	0.6939	0.9439	-0.287
Mof_N 	N 	0.75	0.7879	0.0379	-0.295
Mof_N 	N 	0.4439	0.75	0.1939	-0.289
Mof_N 	N 	0.5379	0.75	0.2879	-0.295
Mof_N 	N 	0.0561	0.25	0.3061	-0.292
Mof_N 	N 	0.9621	0.25	0.2121	-0.293
Mof_N 	N 	0.3061	0.5561	0.75	-0.289
Mof_N 	N 	0.2121	0.4621	0.75	-0.295
Mof_N 	N 	0.1939	0.9439	0.25	-0.287
Mof_N 	N 	0.2879	0.0379	0.25	-0.296
Mof_N 	N 	0.75	0.1939	0.4439	-0.289
Mof_N 	N 	0.75	0.2879	0.5379	-0.295
Mof_N 	N 	0.25	0.3061	0.0561	-0.292
Mof_N 	N 	0.25	0.2121	0.9621	-0.294
Mof_N 	N 	0.5561	0.25	0.8061	-0.289
Mof_N 	N 	0.4621	0.25	0.7121	-0.295
Mof_N 	N 	0.9439	0.75	0.6939	-0.287
Mof_N 	N 	0.0379	0.75	0.7879	-0.295
Mof_O 	O 	0.5379	0.196	0.0487	-0.608
Mof_O 	O 	0.8461	0.4954	0.0565	-0.606
Mof_O 	O 	0.7156	0.2589	0.2109	-0.538
Mof_O 	O 	0.7887	0.4967	0.0578	-0.592
Mof_O 	O 	0.5418	0.2604	0.0592	-0.564
Mof_O 	O 	0.9472	0.4982	0.2298	-0.55
Mof_O 	O 	0.6624	0.1974	0.1486	-0.575
Mof_O 	O 	0.959	0.5141	0.1801	-0.553
Mof_O 	O 	0.6473	0.4892	0.4513	-0.605
Mof_O 	O 	0.9389	0.7896	0.4435	-0.601
Mof_O 	O 	0.548	0.5047	0.2891	-0.539
Mof_O 	O 	0.9389	0.7309	0.4422	-0.586
Mof_O 	O 	0.7012	0.4826	0.4408	-0.562
Mof_O 	O 	0.7684	0.7174	0.2702	-0.557
Mof_O 	O 	0.5488	0.5138	0.3514	-0.574
Mof_O 	O 	0.834	0.7789	0.3199	-0.558
Mof_O 	O 	0.8527	0.304	0.8419	-0.602
Mof_O 	O 	0.5611	0.0046	0.8507	-0.607
Mof_O 	O 	0.952	0.2411	0.9567	-0.524
Mof_O 	O 	0.5611	0.0033	0.792	-0.593
Mof_O 	O 	0.7988	0.2396	0.7814	-0.562
Mof_O 	O 	0.7316	0.0018	0.949	-0.565
Mof_O 	O 	0.9512	0.3026	0.965	-0.559
Mof_O 	O 	0.666	0.9859	0.9449	-0.553
Mof_O 	O 	0.9621	0.0108	0.6581	-0.6
Mof_O 	O 	0.6539	0.7104	0.6493	-0.604
Mof_O 	O 	0.7844	0.9953	0.5433	-0.536
Mof_O 	O 	0.7113	0.7691	0.708	-0.588
Mof_O 	O 	0.9582	0.0174	0.7186	-0.557
Mof_O 	O 	0.5528	0.7826	0.551	-0.556
Mof_O 	O 	0.8376	0.9862	0.535	-0.571
Mof_O 	O 	0.541	0.7211	0.5551	-0.559
Mof_O 	O 	0.3419	0.8527	0.804	-0.603
Mof_O 	O 	0.3507	0.5611	0.5046	-0.604
Mof_O 	O 	0.4567	0.952	0.7411	-0.532
Mof_O 	O 	0.292	0.5611	0.5033	-0.589
Mof_O 	O 	0.2814	0.7988	0.7396	-0.562
Mof_O 	O 	0.449	0.7316	0.5018	-0.556
Mof_O 	O 	0.465	0.9512	0.8026	-0.566
Mof_O 	O 	0.4449	0.666	0.4859	-0.559
Mof_O 	O 	0.1581	0.9621	0.5108	-0.597
Mof_O 	O 	0.1493	0.6539	0.2104	-0.606
Mof_O 	O 	0.0433	0.7844	0.4953	-0.545
Mof_O 	O 	0.208	0.7113	0.2691	-0.589
Mof_O 	O 	0.2186	0.9582	0.5174	-0.555
Mof_O 	O 	0.051	0.5528	0.2826	-0.56
Mof_O 	O 	0.035	0.8376	0.4862	-0.579
Mof_O 	O 	0.0551	0.541	0.2211	-0.563
Mof_O 	O 	0.5487	0.5379	0.696	-0.604
Mof_O 	O 	0.5565	0.8461	0.9954	-0.599
Mof_O 	O 	0.7109	0.7156	0.7589	-0.537
Mof_O 	O 	0.5578	0.7887	0.9967	-0.584
Mof_O 	O 	0.5592	0.5418	0.7604	-0.562
Mof_O 	O 	0.7298	0.9472	0.9982	-0.531
Mof_O 	O 	0.6486	0.6624	0.6974	-0.574
Mof_O 	O 	0.6801	0.959	0.0141	-0.551
Mof_O 	O 	0.9513	0.6473	0.9892	-0.597
Mof_O 	O 	0.9435	0.9389	0.2896	-0.599
Mof_O 	O 	0.7891	0.548	0.0047	-0.54
Mof_O 	O 	0.9422	0.9389	0.2309	-0.584
Mof_O 	O 	0.9408	0.7012	0.9826	-0.556
Mof_O 	O 	0.7702	0.7684	0.2174	-0.557
Mof_O 	O 	0.8514	0.5488	0.0138	-0.575
Mof_O 	O 	0.8199	0.834	0.2789	-0.558
Mof_O 	O 	0.4892	0.9513	0.1473	-0.603
Mof_O 	O 	0.7896	0.9435	0.4389	-0.601
Mof_O 	O 	0.5047	0.7891	0.048	-0.545
Mof_O 	O 	0.7309	0.9422	0.4389	-0.586
Mof_O 	O 	0.4826	0.9408	0.2012	-0.56
Mof_O 	O 	0.7174	0.7702	0.2684	-0.557
Mof_O 	O 	0.5138	0.8514	0.0488	-0.579
Mof_O 	O 	0.7789	0.8199	0.334	-0.558
Mof_O 	O 	0.196	0.5487	0.0379	-0.612
Mof_O 	O 	0.4954	0.5565	0.3461	-0.604
Mof_O 	O 	0.2589	0.7109	0.2156	-0.539
Mof_O 	O 	0.4967	0.5578	0.2887	-0.589
Mof_O 	O 	0.2604	0.5592	0.0418	-0.568
Mof_O 	O 	0.4982	0.7298	0.4472	-0.556
Mof_O 	O 	0.1974	0.6486	0.1624	-0.575
Mof_O 	O 	0.5141	0.6801	0.459	-0.559
Mof_O 	O 	0.0108	0.1581	0.4621	-0.61
Mof_O 	O 	0.7104	0.1493	0.1539	-0.606
Mof_O 	O 	0.9953	0.0433	0.2844	-0.542
Mof_O 	O 	0.7691	0.208	0.2113	-0.589
Mof_O 	O 	0.0174	0.2186	0.4582	-0.566
Mof_O 	O 	0.7826	0.051	0.0528	-0.562
Mof_O 	O 	0.9862	0.035	0.3376	-0.578
Mof_O 	O 	0.7211	0.0551	0.041	-0.566
Mof_O 	O 	0.304	0.3419	0.3527	-0.605
Mof_O 	O 	0.0046	0.3507	0.0611	-0.611
Mof_O 	O 	0.2411	0.4567	0.452	-0.539
Mof_O 	O 	0.0033	0.292	0.0611	-0.596
Mof_O 	O 	0.2396	0.2814	0.2988	-0.563
Mof_O 	O 	0.0018	0.449	0.2316	-0.575
Mof_O 	O 	0.3026	0.465	0.4512	-0.574
Mof_O 	O 	0.9859	0.4449	0.166	-0.56
Mof_O 	O 	0.4621	0.804	0.9513	-0.601
Mof_O 	O 	0.1539	0.5046	0.9435	-0.602
Mof_O 	O 	0.2844	0.7411	0.7891	-0.539
Mof_O 	O 	0.2113	0.5033	0.9422	-0.586
Mof_O 	O 	0.4582	0.7396	0.9408	-0.56
Mof_O 	O 	0.0528	0.5018	0.7702	-0.56
Mof_O 	O 	0.3376	0.8026	0.8514	-0.572
Mof_O 	O 	0.041	0.4859	0.8199	-0.563
Mof_O 	O 	0.3527	0.5108	0.5487	-0.605
Mof_O 	O 	0.0611	0.2104	0.5565	-0.608
Mof_O 	O 	0.452	0.4953	0.7109	-0.538
Mof_O 	O 	0.0611	0.2691	0.5578	-0.592
Mof_O 	O 	0.2988	0.5174	0.5592	-0.562
Mof_O 	O 	0.2316	0.2826	0.7298	-0.556
Mof_O 	O 	0.4512	0.4862	0.6486	-0.574
Mof_O 	O 	0.166	0.2211	0.6801	-0.561
Mof_O 	O 	0.1473	0.696	0.1581	-0.607
Mof_O 	O 	0.4389	0.9954	0.1493	-0.601
Mof_O 	O 	0.048	0.7589	0.0433	-0.55
Mof_O 	O 	0.4389	0.9967	0.208	-0.585
Mof_O 	O 	0.2012	0.7604	0.2186	-0.562
Mof_O 	O 	0.2684	0.9982	0.051	-0.537
Mof_O 	O 	0.0488	0.6974	0.035	-0.587
Mof_O 	O 	0.334	0.0141	0.0551	-0.56
Mof_O 	O 	0.0379	0.9892	0.3419	-0.606
Mof_O 	O 	0.3461	0.2896	0.3507	-0.605
Mof_O 	O 	0.2156	0.0047	0.4567	-0.541
Mof_O 	O 	0.2887	0.2309	0.292	-0.591
Mof_O 	O 	0.0418	0.9826	0.2814	-0.564
Mof_O 	O 	0.4472	0.2174	0.449	-0.557
Mof_O 	O 	0.1624	0.0138	0.465	-0.577
Mof_O 	O 	0.459	0.2789	0.4449	-0.56
Mof_O 	O 	0.6581	0.1473	0.196	-0.606
Mof_O 	O 	0.6493	0.4389	0.4954	-0.604
Mof_O 	O 	0.5433	0.048	0.2589	-0.546
Mof_O 	O 	0.708	0.4389	0.4967	-0.589
Mof_O 	O 	0.7186	0.2012	0.2604	-0.562
Mof_O 	O 	0.551	0.2684	0.4982	-0.557
Mof_O 	O 	0.535	0.0488	0.1974	-0.582
Mof_O 	O 	0.5551	0.334	0.5141	-0.559
Mof_O 	O 	0.8419	0.0379	0.4892	-0.61
Mof_O 	O 	0.8507	0.3461	0.7896	-0.603
Mof_O 	O 	0.9567	0.2156	0.5047	-0.531
Mof_O 	O 	0.792	0.2887	0.7309	-0.589
Mof_O 	O 	0.7814	0.0418	0.4826	-0.568
Mof_O 	O 	0.949	0.4472	0.7174	-0.55
Mof_O 	O 	0.965	0.1624	0.5138	-0.566
Mof_O 	O 	0.9449	0.459	0.7789	-0.553
Mof_O 	O 	0.4513	0.4621	0.304	-0.605
Mof_O 	O 	0.4435	0.1539	0.0046	-0.609
Mof_O 	O 	0.2891	0.2844	0.2411	-0.54
Mof_O 	O 	0.4422	0.2113	0.0033	-0.593
Mof_O 	O 	0.4408	0.4582	0.2396	-0.563
Mof_O 	O 	0.2702	0.0528	0.0018	-0.579
Mof_O 	O 	0.3514	0.3376	0.3026	-0.574
Mof_O 	O 	0.3199	0.041	0.9859	-0.563
Mof_O 	O 	0.0487	0.3527	0.0108	-0.611
Mof_O 	O 	0.0565	0.0611	0.7104	-0.611
Mof_O 	O 	0.2109	0.452	0.9953	-0.536
Mof_O 	O 	0.0578	0.0611	0.7691	-0.595
Mof_O 	O 	0.0592	0.2988	0.0174	-0.568
Mof_O 	O 	0.2298	0.2316	0.7826	-0.556
Mof_O 	O 	0.1486	0.4512	0.9862	-0.573
Mof_O 	O 	0.1801	0.166	0.7211	-0.561
Mof_O 	O 	0.5108	0.0487	0.8527	-0.606
Mof_O 	O 	0.2104	0.0565	0.5611	-0.609
Mof_O 	O 	0.4953	0.2109	0.952	-0.532
Mof_O 	O 	0.2691	0.0578	0.5611	-0.593
Mof_O 	O 	0.5174	0.0592	0.7988	-0.564
Mof_O 	O 	0.2826	0.2298	0.7316	-0.556
Mof_O 	O 	0.4862	0.1486	0.9512	-0.568
Mof_O 	O 	0.2211	0.1801	0.666	-0.56
Mof_O 	O 	0.804	0.4513	0.9621	-0.596
Mof_O 	O 	0.5046	0.4435	0.6539	-0.604
Mof_O 	O 	0.7411	0.2891	0.7844	-0.539
Mof_O 	O 	0.5033	0.4422	0.7113	-0.589
Mof_O 	O 	0.7396	0.4408	0.9582	-0.555
Mof_O 	O 	0.5018	0.2702	0.5528	-0.557
Mof_O 	O 	0.8026	0.3514	0.8376	-0.572
Mof_O 	O 	0.4859	0.3199	0.541	-0.559
Mof_O 	O 	0.9892	0.8419	0.5379	-0.6
Mof_O 	O 	0.2896	0.8507	0.8461	-0.602
Mof_O 	O 	0.0047	0.9567	0.7156	-0.533
Mof_O 	O 	0.2309	0.792	0.7887	-0.589
Mof_O 	O 	0.9826	0.7814	0.5418	-0.558
Mof_O 	O 	0.2174	0.949	0.9472	-0.545
Mof_O 	O 	0.0138	0.965	0.6624	-0.568
Mof_O 	O 	0.2789	0.9449	0.959	-0.547
Mof_O 	O 	0.696	0.6581	0.6473	-0.604
Mof_O 	O 	0.9954	0.6493	0.9389	-0.597
Mof_O 	O 	0.7589	0.5433	0.548	-0.538
Mof_O 	O 	0.9967	0.708	0.9389	-0.582
Mof_O 	O 	0.7604	0.7186	0.7012	-0.561
Mof_O 	O 	0.9982	0.551	0.7684	-0.535
Mof_O 	O 	0.6974	0.535	0.5488	-0.574
Mof_O 	O 	0.0141	0.5551	0.834	-0.556
_end
