data_functionalizedCrystal
_audit_creation_method	'EQeq! by Chris Wilmer'
_symmetry_space_group_name_H-M	'P1'
_symmetry_Int_Tables_number	1
_symmetry_cell_setting	triclinic
loop_
_symmetry_equiv_pos_as_xyz
  x,y,z
_cell_length_a	13.0245
_cell_length_b	13.0245
_cell_length_c	16.7901
_cell_angle_alpha	111.502
_cell_angle_beta	111.502
_cell_angle_gamma	93.1514
loop_
_atom_site_label
_atom_site_type_symbol
_atom_site_fract_x
_atom_site_fract_y
_atom_site_fract_z
_atom_site_charge
Mof_Y 	Y 	0.62553	0.63341	0.7717	1.655
Mof_Y 	Y 	0.14617	0.13829	0.7717	1.724
Mof_Y 	Y 	0.88341	0.37553	0.2717	1.614
Mof_Y 	Y 	0.38829	0.89617	0.2717	1.618
Mof_Y 	Y 	0.99196	0.99196	0.98392	1.681
Mof_Y 	Y 	0.24196	0.74196	0.48392	1.817
Mof_Y 	Y 	0.75383	0.25383	0.50766	1.684
Mof_Y 	Y 	0.50383	0.50383	0.00766	1.634
Mof_H 	H 	0.8967	0.7323	0.7634	-0.07
Mof_H 	H 	0.0698	0.813	0.6316	-0.109
Mof_H 	H 	0.842	0.52	0.499	-0.053
Mof_H 	H 	0.4681	0.1637	0.282	-0.031
Mof_H 	H 	0.5611	0.3207	0.1446	-0.056
Mof_H 	H 	0.2561	0.1117	0.021	-0.039
Mof_H 	H 	0.8667	0.0311	0.7634	0.046
Mof_H 	H 	0.5618	0.8186	0.6316	-0.013
Mof_H 	H 	0.657	0.979	0.499	0.003
Mof_H 	H 	0.8139	0.1183	0.282	-0.058
Mof_H 	H 	0.5835	0.8239	0.1446	-0.073
Mof_H 	H 	0.7649	0.9093	0.021	-0.043
Mof_H 	H 	0.9823	0.6467	0.2634	-0.024
Mof_H 	H 	0.063	0.8198	0.1316	-0.05
Mof_H 	H 	0.77	0.592	0.999	-0.001
Mof_H 	H 	0.4137	0.2181	0.782	-0.035
Mof_H 	H 	0.5707	0.3111	0.6446	-0.05
Mof_H 	H 	0.3617	0.0061	0.521	-0.025
Mof_H 	H 	0.2811	0.6167	0.2634	-0.023
Mof_H 	H 	0.0686	0.3118	0.1316	-0.023
Mof_H 	H 	0.229	0.407	0.999	0.011
Mof_H 	H 	0.3683	0.5639	0.782	-0.026
Mof_H 	H 	0.0739	0.3335	0.6446	-0.021
Mof_H 	H 	0.1593	0.5149	0.521	-0.014
Mof_C 	C 	0.8533	0.6121	0.6312	-0.344
Mof_C 	C 	0.9113	0.7149	0.7102	0.297
Mof_C 	C 	0.9914	0.7916	0.7096	-0.478
Mof_C 	C 	0.0153	0.7635	0.6314	0.442
Mof_C 	C 	0.9597	0.6635	0.5536	-0.402
Mof_C 	C 	0.8791	0.5875	0.5522	0.269
Mof_C 	C 	0.7712	0.534	0.6328	0.5
Mof_C 	C 	0.0485	0.9023	0.793	0.66
Mof_C 	C 	0.9853	0.6339	0.4672	0.49
Mof_C 	C 	0.3495	0.1293	0.1534	-0.274
Mof_C 	C 	0.453	0.1778	0.2288	0.209
Mof_C 	C 	0.5363	0.2485	0.2264	-0.295
Mof_C 	C 	0.5086	0.2708	0.146	0.224
Mof_C 	C 	0.4073	0.2215	0.0702	-0.298
Mof_C 	C 	0.3252	0.1474	0.0728	0.206
Mof_C 	C 	0.2606	0.0518	0.1568	0.5
Mof_C 	C 	0.6517	0.2953	0.3054	0.573
Mof_C 	C 	0.381	0.2468	0.9862	0.523
Mof_C 	C 	0.7779	0.0191	0.6312	-0.127
Mof_C 	C 	0.7989	0.9953	0.7102	0.013
Mof_C 	C 	0.7182	0.918	0.7096	-0.204
Mof_C 	C 	0.6161	0.8679	0.6314	0.133
Mof_C 	C 	0.5939	0.8901	0.5536	-0.202
Mof_C 	C 	0.6731	0.9647	0.5522	0.065
Mof_C 	C 	0.8616	0.0988	0.6328	0.431
Mof_C 	C 	0.7445	0.8907	0.793	0.522
Mof_C 	C 	0.4819	0.8333	0.4672	0.479
Mof_C 	C 	0.8039	0.0241	0.1534	-0.274
Mof_C 	C 	0.7758	0.051	0.2288	0.281
Mof_C 	C 	0.6901	0.9779	0.2264	-0.4
Mof_C 	C 	0.6374	0.8752	0.146	0.264
Mof_C 	C 	0.6629	0.8487	0.0702	-0.316
Mof_C 	C 	0.7476	0.9254	0.0728	0.179
Mof_C 	C 	0.8962	0.105	0.1568	0.506
Mof_C 	C 	0.6537	0.0101	0.3054	0.67
Mof_C 	C 	0.6052	0.7394	0.9862	0.523
Mof_C 	C 	0.8621	0.6033	0.1312	-0.25
Mof_C 	C 	0.9649	0.6613	0.2102	0.126
Mof_C 	C 	0.0416	0.7414	0.2096	-0.246
Mof_C 	C 	0.0135	0.7653	0.1314	0.263
Mof_C 	C 	0.9135	0.7097	0.0536	-0.323
Mof_C 	C 	0.8375	0.6291	0.0522	0.154
Mof_C 	C 	0.784	0.5212	0.1328	0.46
Mof_C 	C 	0.1523	0.7985	0.293	0.552
Mof_C 	C 	0.8839	0.7353	0.9672	0.528
Mof_C 	C 	0.3793	0.0995	0.6534	-0.285
Mof_C 	C 	0.4278	0.203	0.7288	0.214
Mof_C 	C 	0.4985	0.2863	0.7264	-0.292
Mof_C 	C 	0.5208	0.2586	0.646	0.212
Mof_C 	C 	0.4715	0.1573	0.5702	-0.269
Mof_C 	C 	0.3974	0.0752	0.5728	0.205
Mof_C 	C 	0.3018	0.0106	0.6568	0.555
Mof_C 	C 	0.5453	0.4017	0.8054	0.569
Mof_C 	C 	0.4968	0.131	0.4862	0.498
Mof_C 	C 	0.2691	0.5279	0.1312	-0.243
Mof_C 	C 	0.2453	0.5489	0.2102	0.177
Mof_C 	C 	0.168	0.4682	0.2096	-0.265
Mof_C 	C 	0.1179	0.3661	0.1314	0.195
Mof_C 	C 	0.1401	0.3439	0.0536	-0.252
Mof_C 	C 	0.2147	0.4231	0.0522	0.132
Mof_C 	C 	0.3488	0.6116	0.1328	0.462
Mof_C 	C 	0.1407	0.4945	0.293	0.553
Mof_C 	C 	0.0833	0.2319	0.9672	0.513
Mof_C 	C 	0.2741	0.5539	0.6534	-0.257
Mof_C 	C 	0.301	0.5258	0.7288	0.188
Mof_C 	C 	0.2279	0.4401	0.7264	-0.266
Mof_C 	C 	0.1252	0.3874	0.646	0.173
Mof_C 	C 	0.0987	0.4129	0.5702	-0.2
Mof_C 	C 	0.1754	0.4976	0.5728	0.165
Mof_C 	C 	0.355	0.6462	0.6568	0.505
Mof_C 	C 	0.2601	0.4037	0.8054	0.565
Mof_C 	C 	0.9894	0.3552	0.4862	0.441
Mof_O 	O 	0.7285	0.4349	0.5654	-0.476
Mof_O 	O 	0.7386	0.569	0.699	-0.49
Mof_O 	O 	0.0479	0.9143	0.8688	-0.517
Mof_O 	O 	0.0973	0.9769	0.7806	-0.535
Mof_O 	O 	0.0708	0.6934	0.4752	-0.473
Mof_O 	O 	0.9202	0.5514	0.392	-0.449
Mof_O 	O 	0.1627	0.0227	0.0944	-0.48
Mof_O 	O 	0.2931	0.0255	0.2254	-0.437
Mof_O 	O 	0.7265	0.3369	0.2916	-0.524
Mof_O 	O 	0.6635	0.2901	0.3798	-0.482
Mof_O 	O 	0.3047	0.1785	0.9084	-0.443
Mof_O 	O 	0.4422	0.336	0.9978	-0.48
Mof_O 	O 	0.8369	0.1305	0.5654	-0.459
Mof_O 	O 	0.9604	0.13	0.699	-0.498
Mof_O 	O 	0.8209	0.9545	0.8688	-0.516
Mof_O 	O 	0.6833	0.8037	0.7806	-0.488
Mof_O 	O 	0.4044	0.7818	0.4752	-0.503
Mof_O 	O 	0.4718	0.8406	0.392	-0.442
Mof_O 	O 	0.9317	0.0717	0.0944	-0.51
Mof_O 	O 	0.9323	0.1999	0.2254	-0.468
Mof_O 	O 	0.5651	0.9547	0.2916	-0.577
Mof_O 	O 	0.7163	0.0897	0.3798	-0.506
Mof_O 	O 	0.6037	0.7299	0.9084	-0.444
Mof_O 	O 	0.5556	0.6618	0.9978	-0.481
Mof_O 	O 	0.6849	0.4785	0.0654	-0.468
Mof_O 	O 	0.819	0.4886	0.199	-0.481
Mof_O 	O 	0.1643	0.7979	0.3688	-0.52
Mof_O 	O 	0.2269	0.8473	0.2806	-0.499
Mof_O 	O 	0.9434	0.8208	0.9752	-0.508
Mof_O 	O 	0.8014	0.6702	0.892	-0.451
Mof_O 	O 	0.2727	0.9127	0.5944	-0.551
Mof_O 	O 	0.2755	0.0431	0.7254	-0.463
Mof_O 	O 	0.5869	0.4765	0.7916	-0.528
Mof_O 	O 	0.5401	0.4135	0.8798	-0.473
Mof_O 	O 	0.4285	0.0547	0.4084	-0.422
Mof_O 	O 	0.586	0.1922	0.4978	-0.488
Mof_O 	O 	0.3805	0.5869	0.0654	-0.467
Mof_O 	O 	0.38	0.7104	0.199	-0.476
Mof_O 	O 	0.2045	0.5709	0.3688	-0.52
Mof_O 	O 	0.0537	0.4333	0.2806	-0.468
Mof_O 	O 	0.0318	0.1544	0.9752	-0.453
Mof_O 	O 	0.0906	0.2218	0.892	-0.435
Mof_O 	O 	0.3217	0.6817	0.5944	-0.52
Mof_O 	O 	0.4499	0.6823	0.7254	-0.461
Mof_O 	O 	0.2047	0.3151	0.7916	-0.527
Mof_O 	O 	0.3397	0.4663	0.8798	-0.47
Mof_O 	O 	0.9799	0.3537	0.4084	-0.437
Mof_O 	O 	0.9118	0.3056	0.4978	-0.488
_end
