data_functionalizedCrystal
_audit_creation_method	'EQeq! by Chris Wilmer'
_symmetry_space_group_name_H-M	'P1'
_symmetry_Int_Tables_number	1
_symmetry_cell_setting	triclinic
loop_
_symmetry_equiv_pos_as_xyz
  x,y,z
_cell_length_a	10.92
_cell_length_b	12.842
_cell_length_c	13.279
_cell_angle_alpha	90
_cell_angle_beta	90
_cell_angle_gamma	90
loop_
_atom_site_label
_atom_site_type_symbol
_atom_site_fract_x
_atom_site_fract_y
_atom_site_fract_z
_atom_site_charge
Mof_N 	N 	0.6296	0.3907	0.2109	-0.229
Mof_C 	C 	0.556	0.4432	0.1817	0.128
Mof_C 	C 	0.4712	0.5169	0.1407	-0.238
Mof_H 	H 	0.4714	0.5783	0.1832	0.077
Mof_H 	H 	0.3897	0.4871	0.1435	0.083
Mof_C 	C 	0.497	0.5514	0.0307	-0.036
Mof_H 	H 	0.5741	0.5887	0.0265	0.026
Mof_H 	H 	0.4321	0.596	0.006	0.024
Mof_C 	C 	0.4406	0.489	0.0299	-0.012
Mof_H 	H 	0.4175	0.4163	0.0241	0.003
Mof_H 	H 	0.3739	0.5318	0.0051	0.014
Mof_N 	N 	0.8559	0.2889	0.3904	-0.228
Mof_C 	C 	0.9202	0.3128	0.4526	0.13
Mof_C 	C 	0.0128	0.3526	0.5178	-0.239
Mof_H 	H 	0.0829	0.3062	0.5149	0.083
Mof_H 	H 	0.9819	0.3512	0.5863	0.081
Mof_C 	C 	0.0572	0.4645	0.494	-0.04
Mof_H 	H 	0.0897	0.4685	0.4265	0.028
Mof_H 	H 	0.1207	0.4853	0.5413	0.026
Mof_C 	C 	0.99	0.4675	0.5486	-0.009
Mof_H 	H 	0.0475	0.4887	0.6005	0.014
Mof_H 	H 	0.9076	0.4764	0.5739	0.004
Mof_N 	N 	0.6296	0.1093	0.2891	-0.228
Mof_C 	C 	0.556	0.0568	0.3183	0.129
Mof_C 	C 	0.4712	0.9831	0.3593	-0.237
Mof_H 	H 	0.4714	0.9217	0.3168	0.078
Mof_H 	H 	0.3897	0.0129	0.3565	0.083
Mof_C 	C 	0.497	0.9486	0.4693	-0.036
Mof_H 	H 	0.5741	0.9113	0.4735	0.025
Mof_H 	H 	0.4321	0.904	0.494	0.024
Mof_C 	C 	0.4406	0.011	0.4701	-0.012
Mof_H 	H 	0.4175	0.0837	0.4759	0.003
Mof_H 	H 	0.3739	0.9682	0.4949	0.014
Mof_N 	N 	0.8559	0.2111	0.1096	-0.227
Mof_C 	C 	0.9202	0.1872	0.0474	0.128
Mof_C 	C 	0.0128	0.1474	0.9822	-0.231
Mof_H 	H 	0.0829	0.1938	0.9851	0.081
Mof_H 	H 	0.9819	0.1488	0.9137	0.077
Mof_C 	C 	0.0572	0.0355	0.006	-0.042
Mof_H 	H 	0.0897	0.0315	0.0735	0.028
Mof_H 	H 	0.1207	0.0147	0.9587	0.027
Mof_C 	C 	0.99	0.0325	0.9514	-0.012
Mof_H 	H 	0.0475	0.0113	0.8995	0.015
Mof_H 	H 	0.9076	0.0236	0.9261	0.004
Mof_N 	N 	0.3704	0.6093	0.7891	-0.228
Mof_C 	C 	0.444	0.5568	0.8183	0.129
Mof_C 	C 	0.5288	0.4831	0.8593	-0.237
Mof_H 	H 	0.5286	0.4217	0.8168	0.078
Mof_H 	H 	0.6103	0.5129	0.8565	0.083
Mof_C 	C 	0.503	0.4486	0.9693	-0.036
Mof_H 	H 	0.4259	0.4113	0.9735	0.026
Mof_H 	H 	0.5679	0.404	0.994	0.024
Mof_C 	C 	0.5594	0.511	0.9701	-0.012
Mof_H 	H 	0.5825	0.5837	0.9759	0.003
Mof_H 	H 	0.6261	0.4682	0.9949	0.014
Mof_N 	N 	0.1441	0.7111	0.6096	-0.228
Mof_C 	C 	0.0798	0.6872	0.5474	0.13
Mof_C 	C 	0.9872	0.6474	0.4822	-0.239
Mof_H 	H 	0.9171	0.6938	0.4851	0.083
Mof_H 	H 	0.0181	0.6488	0.4137	0.081
Mof_C 	C 	0.9428	0.5355	0.506	-0.04
Mof_H 	H 	0.9103	0.5315	0.5735	0.028
Mof_H 	H 	0.8793	0.5147	0.4587	0.026
Mof_C 	C 	0.01	0.5325	0.4514	-0.009
Mof_H 	H 	0.9525	0.5113	0.3995	0.014
Mof_H 	H 	0.0924	0.5236	0.4261	0.004
Mof_N 	N 	0.3704	0.8907	0.7109	-0.228
Mof_C 	C 	0.444	0.9432	0.6817	0.129
Mof_C 	C 	0.5288	0.0169	0.6407	-0.237
Mof_H 	H 	0.5286	0.0783	0.6832	0.078
Mof_H 	H 	0.6103	0.9871	0.6435	0.083
Mof_C 	C 	0.503	0.0514	0.5307	-0.036
Mof_H 	H 	0.4259	0.0887	0.5265	0.025
Mof_H 	H 	0.5679	0.096	0.506	0.024
Mof_C 	C 	0.5594	0.989	0.5299	-0.012
Mof_H 	H 	0.5825	0.9163	0.5241	0.003
Mof_H 	H 	0.6261	0.0318	0.5051	0.014
Mof_N 	N 	0.1441	0.7889	0.8904	-0.227
Mof_C 	C 	0.0798	0.8128	0.9526	0.128
Mof_C 	C 	0.9872	0.8526	0.0178	-0.231
Mof_H 	H 	0.9171	0.8062	0.0149	0.081
Mof_H 	H 	0.0181	0.8512	0.0863	0.077
Mof_C 	C 	0.9428	0.9645	0.994	-0.042
Mof_H 	H 	0.9103	0.9685	0.9265	0.028
Mof_H 	H 	0.8793	0.9853	0.0413	0.027
Mof_C 	C 	0.01	0.9675	0.0486	-0.012
Mof_H 	H 	0.9525	0.9887	0.1005	0.015
Mof_H 	H 	0.0924	0.9764	0.0739	0.004
Mof_Ag	Ag	0.74816	0.25	0.25	0.617
Mof_Ag	Ag	0.25184	0.75	0.75	0.617
Mof_N 	N 	0.8704	0.3907	0.7891	-0.227
Mof_C 	C 	0.944	0.4432	0.8183	0.126
Mof_C 	C 	0.0288	0.5169	0.8593	-0.234
Mof_H 	H 	0.0286	0.5783	0.8168	0.077
Mof_H 	H 	0.1103	0.4871	0.8565	0.082
Mof_C 	C 	0.003	0.5514	0.9693	-0.04
Mof_H 	H 	0.9259	0.5887	0.9735	0.024
Mof_H 	H 	0.0679	0.596	0.994	0.026
Mof_C 	C 	0.0594	0.489	0.9701	-0.007
Mof_H 	H 	0.0825	0.4163	0.9759	0.004
Mof_H 	H 	0.1261	0.5318	0.9949	0.013
Mof_N 	N 	0.6441	0.2889	0.6096	-0.228
Mof_C 	C 	0.5798	0.3128	0.5474	0.13
Mof_C 	C 	0.4872	0.3526	0.4822	-0.24
Mof_H 	H 	0.4171	0.3062	0.4851	0.083
Mof_H 	H 	0.5181	0.3512	0.4137	0.081
Mof_C 	C 	0.4428	0.4645	0.506	-0.039
Mof_H 	H 	0.4103	0.4685	0.5735	0.027
Mof_H 	H 	0.3793	0.4853	0.4587	0.026
Mof_C 	C 	0.51	0.4675	0.4514	-0.01
Mof_H 	H 	0.4525	0.4887	0.3995	0.014
Mof_H 	H 	0.5924	0.4764	0.4261	0.004
Mof_N 	N 	0.8704	0.1093	0.7109	-0.228
Mof_C 	C 	0.944	0.0568	0.6817	0.128
Mof_C 	C 	0.0288	0.9831	0.6407	-0.236
Mof_H 	H 	0.0286	0.9217	0.6832	0.077
Mof_H 	H 	0.1103	0.0129	0.6435	0.083
Mof_C 	C 	0.003	0.9486	0.5307	-0.035
Mof_H 	H 	0.9259	0.9113	0.5265	0.025
Mof_H 	H 	0.0679	0.904	0.506	0.024
Mof_C 	C 	0.0594	0.011	0.5299	-0.013
Mof_H 	H 	0.0825	0.0837	0.5241	0.004
Mof_H 	H 	0.1261	0.9682	0.5051	0.014
Mof_N 	N 	0.6441	0.2111	0.8904	-0.228
Mof_C 	C 	0.5798	0.1872	0.9526	0.13
Mof_C 	C 	0.4872	0.1474	0.0178	-0.239
Mof_H 	H 	0.4171	0.1938	0.0149	0.083
Mof_H 	H 	0.5181	0.1488	0.0863	0.081
Mof_C 	C 	0.4428	0.0355	0.994	-0.04
Mof_H 	H 	0.4103	0.0315	0.9265	0.028
Mof_H 	H 	0.3793	0.0147	0.0413	0.026
Mof_C 	C 	0.51	0.0325	0.0486	-0.009
Mof_H 	H 	0.4525	0.0113	0.1005	0.013
Mof_H 	H 	0.5924	0.0236	0.0739	0.004
Mof_N 	N 	0.1296	0.6093	0.2109	-0.227
Mof_C 	C 	0.056	0.5568	0.1817	0.126
Mof_C 	C 	0.9712	0.4831	0.1407	-0.234
Mof_H 	H 	0.9714	0.4217	0.1832	0.077
Mof_H 	H 	0.8897	0.5129	0.1435	0.082
Mof_C 	C 	0.997	0.4486	0.0307	-0.04
Mof_H 	H 	0.0741	0.4113	0.0265	0.024
Mof_H 	H 	0.9321	0.404	0.006	0.026
Mof_C 	C 	0.9406	0.511	0.0299	-0.007
Mof_H 	H 	0.9175	0.5837	0.0241	0.004
Mof_H 	H 	0.8739	0.4682	0.0051	0.013
Mof_N 	N 	0.3559	0.7111	0.3904	-0.228
Mof_C 	C 	0.4202	0.6872	0.4526	0.13
Mof_C 	C 	0.5128	0.6474	0.5178	-0.24
Mof_H 	H 	0.5829	0.6938	0.5149	0.083
Mof_H 	H 	0.4819	0.6488	0.5863	0.081
Mof_C 	C 	0.5572	0.5355	0.494	-0.039
Mof_H 	H 	0.5897	0.5315	0.4265	0.027
Mof_H 	H 	0.6207	0.5147	0.5413	0.026
Mof_C 	C 	0.49	0.5325	0.5486	-0.01
Mof_H 	H 	0.5475	0.5113	0.6005	0.014
Mof_H 	H 	0.4076	0.5236	0.5739	0.004
Mof_N 	N 	0.1296	0.8907	0.2891	-0.228
Mof_C 	C 	0.056	0.9432	0.3183	0.128
Mof_C 	C 	0.9712	0.0169	0.3593	-0.236
Mof_H 	H 	0.9714	0.0783	0.3168	0.077
Mof_H 	H 	0.8897	0.9871	0.3565	0.083
Mof_C 	C 	0.997	0.0514	0.4693	-0.035
Mof_H 	H 	0.0741	0.0887	0.4735	0.025
Mof_H 	H 	0.9321	0.096	0.494	0.024
Mof_C 	C 	0.9406	0.989	0.4701	-0.013
Mof_H 	H 	0.9175	0.9163	0.4759	0.004
Mof_H 	H 	0.8739	0.0318	0.4949	0.014
Mof_N 	N 	0.3559	0.7889	0.1096	-0.228
Mof_C 	C 	0.4202	0.8128	0.0474	0.13
Mof_C 	C 	0.5128	0.8526	0.9822	-0.239
Mof_H 	H 	0.5829	0.8062	0.9851	0.083
Mof_H 	H 	0.4819	0.8512	0.9137	0.081
Mof_C 	C 	0.5572	0.9645	0.006	-0.04
Mof_H 	H 	0.5897	0.9685	0.0735	0.028
Mof_H 	H 	0.6207	0.9853	0.9587	0.026
Mof_C 	C 	0.49	0.9675	0.9514	-0.009
Mof_H 	H 	0.5475	0.9887	0.8995	0.013
Mof_H 	H 	0.4076	0.9764	0.9261	0.004
Mof_Ag	Ag	0.75184	0.25	0.75	0.616
Mof_Ag	Ag	0.24816	0.75	0.25	0.616
_end
