data_functionalizedCrystal
_audit_creation_method	'EQeq! by Chris Wilmer'
_symmetry_space_group_name_H-M	'P1'
_symmetry_Int_Tables_number	1
_symmetry_cell_setting	triclinic
loop_
_symmetry_equiv_pos_as_xyz
  x,y,z
_cell_length_a	35.316
_cell_length_b	14.7247
_cell_length_c	31.766
_cell_angle_alpha	90
_cell_angle_beta	101.906
_cell_angle_gamma	90
loop_
_atom_site_label
_atom_site_type_symbol
_atom_site_fract_x
_atom_site_fract_y
_atom_site_fract_z
_atom_site_charge
Mof_Zn	Zn	0.37555	0.09258	0.43489	1.164
Mof_Zn	Zn	0.58601	0.3798	0.59489	1.162
Mof_Zn	Zn	0.67242	0.84858	0.2719	1.162
Mof_I 	I 	0.35492	0.08869	0.50682	-0.369
Mof_I 	I 	0.39256	0.23665	0.3984	-0.381
Mof_I 	I 	0.62456	0.26466	0.56265	-0.385
Mof_I 	I 	0.52541	0.35057	0.6247	-0.218
Mof_I 	I 	0.62825	0.83335	0.19774	-0.403
Mof_I 	I 	0.73423	0.75683	0.29336	-0.381
Mof_N 	N 	0.5785	0.7236	0.43848	-0.135
Mof_N 	N 	0.52751	0.7727	0.47087	-0.149
Mof_N 	N 	0.54096	0.8511	0.41077	-0.137
Mof_C 	C 	0.55592	0.7163	0.4678	0.094
Mof_C 	C 	0.5208	0.837	0.441	0.096
Mof_C 	C 	0.57035	0.794	0.4116	0.106
Mof_N 	N 	0.57445	0.4869	0.55104	-0.27
Mof_C 	C 	0.6008	0.5126	0.5293	0.073
Mof_H 	H 	0.6239	0.4779	0.5324	-0.015
Mof_C 	C 	0.5966	0.5872	0.5023	-0.118
Mof_H 	H 	0.6166	0.6044	0.488	0.079
Mof_C 	C 	0.56255	0.6362	0.4966	0.049
Mof_C 	C 	0.5344	0.6096	0.5192	-0.111
Mof_H 	H 	0.5109	0.6427	0.5165	0.069
Mof_C 	C 	0.5413	0.5349	0.5454	0.063
Mof_H 	H 	0.5219	0.5161	0.5603	-0.008
Mof_N 	N 	0.42202	0.0067	0.43839	-0.278
Mof_C 	C 	0.4388	0.9975	0.4047	0.079
Mof_H 	H 	0.4273	0.028	0.3788	-0.015
Mof_C 	C 	0.4715	0.9471	0.4047	-0.129
Mof_H 	H 	0.4833	0.9465	0.3804	0.087
Mof_C 	C 	0.4867	0.8975	0.4409	0.059
Mof_C 	C 	0.4694	0.9036	0.4753	-0.136
Mof_H 	H 	0.4791	0.8701	0.5007	0.082
Mof_C 	C 	0.4377	0.9584	0.4728	0.085
Mof_H 	H 	0.4263	0.962	0.4973	-0.009
Mof_N 	N 	0.64059	0.83	0.31857	-0.279
Mof_C 	C 	0.6529	0.7835	0.3549	0.079
Mof_H 	H 	0.678	0.7575	0.3596	-0.012
Mof_C 	C 	0.6317	0.771	0.3855	-0.123
Mof_H 	H 	0.6422	0.738	0.4109	0.087
Mof_C 	C 	0.5946	0.8069	0.3795	0.065
Mof_C 	C 	0.5815	0.8551	0.342	-0.122
Mof_H 	H 	0.5565	0.8818	0.3366	0.084
Mof_C 	C 	0.6049	0.8641	0.3127	0.075
Mof_H 	H 	0.5952	0.8964	0.2868	-0.018
Mof_N 	N 	0.22085	0.9471	0.27377	-0.141
Mof_N 	N 	0.23431	0.8072	0.3117	-0.139
Mof_N 	N 	0.18096	0.8194	0.25253	-0.134
Mof_C 	C 	0.19111	0.9062	0.2487	0.103
Mof_C 	C 	0.24063	0.8952	0.3058	0.091
Mof_C 	C 	0.20419	0.7724	0.2838	0.103
Mof_N 	N 	0.12291	0.0526	0.14435	-0.27
Mof_C 	C 	0.114	0.9684	0.1535	0.076
Mof_H 	H 	0.0919	0.9408	0.1361	-0.008
Mof_C 	C 	0.135	0.9193	0.1867	-0.118
Mof_H 	H 	0.1276	0.859	0.192	0.091
Mof_C 	C 	0.1675	0.959	0.2129	0.055
Mof_C 	C 	0.1761	0.0475	0.2044	-0.123
Mof_H 	H 	0.1972	0.0778	0.2223	0.078
Mof_C 	C 	0.1537	0.0922	0.1694	0.063
Mof_H 	H 	0.1603	0.1524	0.163	-0.008
Mof_N 	N 	0.33301	0.0275	0.39121	-0.271
Mof_C 	C 	0.3156	0.0659	0.3535	0.069
Mof_H 	H 	0.3243	0.1238	0.3463	-0.002
Mof_C 	C 	0.286	0.0249	0.3253	-0.124
Mof_H 	H 	0.2743	0.0543	0.2993	0.09
Mof_C 	C 	0.27344	0.9404	0.3351	0.049
Mof_C 	C 	0.2912	0.8994	0.3736	-0.113
Mof_H 	H 	0.2836	0.8406	0.3809	0.085
Mof_C 	C 	0.3202	0.946	0.4008	0.069
Mof_H 	H 	0.3315	0.9191	0.4276	0.001
Mof_N 	N 	0.18407	0.4871	0.27957	-0.271
Mof_C 	C 	0.2153	0.5218	0.3054	0.076
Mof_H 	H 	0.2334	0.4815	0.3222	-0.012
Mof_C 	C 	0.2224	0.613	0.3087	-0.124
Mof_H 	H 	0.2448	0.635	0.3278	0.081
Mof_C 	C 	0.197	0.6733	0.2843	0.058
Mof_C 	C 	0.1642	0.637	0.2577	-0.116
Mof_H 	H 	0.1458	0.6757	0.2402	0.082
Mof_C 	C 	0.1585	0.5446	0.2569	0.063
Mof_H 	H 	0.1355	0.5207	0.2395	-0.013
Mof_I 	I 	0.5264	0.6498	0.1184	-0.108
Mof_Zn	Zn	0.87555	0.59258	0.43489	1.165
Mof_Zn	Zn	0.08601	0.8798	0.59489	1.163
Mof_Zn	Zn	0.17242	0.34858	0.2719	1.163
Mof_I 	I 	0.85492	0.58869	0.50682	-0.368
Mof_I 	I 	0.89256	0.73665	0.3984	-0.38
Mof_I 	I 	0.12456	0.76466	0.56265	-0.384
Mof_I 	I 	0.02541	0.85057	0.6247	-0.217
Mof_I 	I 	0.12825	0.33335	0.19774	-0.402
Mof_I 	I 	0.23423	0.25683	0.29336	-0.38
Mof_N 	N 	0.0785	0.2236	0.43848	-0.134
Mof_N 	N 	0.02751	0.2727	0.47087	-0.148
Mof_N 	N 	0.04096	0.3511	0.41077	-0.136
Mof_C 	C 	0.05592	0.2163	0.4678	0.095
Mof_C 	C 	0.0208	0.337	0.441	0.097
Mof_C 	C 	0.07035	0.294	0.4116	0.107
Mof_N 	N 	0.07445	0.9869	0.55104	-0.269
Mof_C 	C 	0.1008	0.0126	0.5293	0.074
Mof_H 	H 	0.1239	0.9779	0.5324	-0.014
Mof_C 	C 	0.0966	0.0872	0.5023	-0.118
Mof_H 	H 	0.1166	0.1044	0.488	0.079
Mof_C 	C 	0.06255	0.1362	0.4966	0.049
Mof_C 	C 	0.0344	0.1096	0.5192	-0.111
Mof_H 	H 	0.0109	0.1427	0.5165	0.069
Mof_C 	C 	0.0413	0.0349	0.5454	0.063
Mof_H 	H 	0.0219	0.0161	0.5603	-0.008
Mof_N 	N 	0.92202	0.5067	0.43839	-0.278
Mof_C 	C 	0.9388	0.4975	0.4047	0.079
Mof_H 	H 	0.9273	0.528	0.3788	-0.015
Mof_C 	C 	0.9715	0.4471	0.4047	-0.129
Mof_H 	H 	0.9833	0.4465	0.3804	0.087
Mof_C 	C 	0.9867	0.3975	0.4409	0.059
Mof_C 	C 	0.9694	0.4036	0.4753	-0.136
Mof_H 	H 	0.9791	0.3701	0.5007	0.082
Mof_C 	C 	0.9377	0.4584	0.4728	0.085
Mof_H 	H 	0.9263	0.462	0.4973	-0.009
Mof_N 	N 	0.14059	0.33	0.31857	-0.279
Mof_C 	C 	0.1529	0.2835	0.3549	0.079
Mof_H 	H 	0.178	0.2575	0.3596	-0.012
Mof_C 	C 	0.1317	0.271	0.3855	-0.123
Mof_H 	H 	0.1422	0.238	0.4109	0.087
Mof_C 	C 	0.0946	0.3069	0.3795	0.065
Mof_C 	C 	0.0815	0.3551	0.342	-0.122
Mof_H 	H 	0.0565	0.3818	0.3366	0.084
Mof_C 	C 	0.1049	0.3641	0.3127	0.075
Mof_H 	H 	0.0952	0.3964	0.2868	-0.018
Mof_N 	N 	0.72085	0.4471	0.27377	-0.141
Mof_N 	N 	0.73431	0.3072	0.3117	-0.139
Mof_N 	N 	0.68096	0.3194	0.25253	-0.134
Mof_C 	C 	0.69111	0.4062	0.2487	0.103
Mof_C 	C 	0.74063	0.3952	0.3058	0.091
Mof_C 	C 	0.70419	0.2724	0.2838	0.103
Mof_N 	N 	0.62291	0.5526	0.14435	-0.27
Mof_C 	C 	0.614	0.4684	0.1535	0.075
Mof_H 	H 	0.5919	0.4408	0.1361	-0.008
Mof_C 	C 	0.635	0.4193	0.1867	-0.118
Mof_H 	H 	0.6276	0.359	0.192	0.091
Mof_C 	C 	0.6675	0.459	0.2129	0.055
Mof_C 	C 	0.6761	0.5475	0.2044	-0.122
Mof_H 	H 	0.6972	0.5778	0.2223	0.078
Mof_C 	C 	0.6537	0.5922	0.1694	0.063
Mof_H 	H 	0.6603	0.6524	0.163	-0.008
Mof_N 	N 	0.83301	0.5275	0.39121	-0.271
Mof_C 	C 	0.8156	0.5659	0.3535	0.068
Mof_H 	H 	0.8243	0.6238	0.3463	-0.002
Mof_C 	C 	0.786	0.5249	0.3253	-0.124
Mof_H 	H 	0.7743	0.5543	0.2993	0.09
Mof_C 	C 	0.77344	0.4404	0.3351	0.049
Mof_C 	C 	0.7912	0.3994	0.3736	-0.113
Mof_H 	H 	0.7836	0.3406	0.3809	0.085
Mof_C 	C 	0.8202	0.446	0.4008	0.069
Mof_H 	H 	0.8315	0.4191	0.4276	0.001
Mof_N 	N 	0.68407	0.9871	0.27957	-0.271
Mof_C 	C 	0.7153	0.0218	0.3054	0.076
Mof_H 	H 	0.7334	0.9815	0.3222	-0.012
Mof_C 	C 	0.7224	0.113	0.3087	-0.124
Mof_H 	H 	0.7448	0.135	0.3278	0.081
Mof_C 	C 	0.697	0.1733	0.2843	0.058
Mof_C 	C 	0.6642	0.137	0.2577	-0.116
Mof_H 	H 	0.6458	0.1757	0.2402	0.082
Mof_C 	C 	0.6585	0.0446	0.2569	0.063
Mof_H 	H 	0.6355	0.0207	0.2395	-0.013
Mof_I 	I 	0.0264	0.1498	0.1184	-0.109
Mof_Zn	Zn	0.37555	0.90742	0.93489	1.165
Mof_Zn	Zn	0.58601	0.6202	0.09489	1.163
Mof_Zn	Zn	0.67242	0.15142	0.7719	1.163
Mof_I 	I 	0.35492	0.91131	0.00682	-0.368
Mof_I 	I 	0.39256	0.76335	0.8984	-0.38
Mof_I 	I 	0.62456	0.73534	0.06265	-0.384
Mof_I 	I 	0.52541	0.64943	0.1247	-0.217
Mof_I 	I 	0.62825	0.16665	0.69774	-0.402
Mof_I 	I 	0.73423	0.24317	0.79335	-0.38
Mof_N 	N 	0.5785	0.2764	0.93848	-0.134
Mof_N 	N 	0.52751	0.2273	0.97087	-0.148
Mof_N 	N 	0.54096	0.1489	0.91077	-0.136
Mof_C 	C 	0.55592	0.2837	0.9678	0.095
Mof_C 	C 	0.5208	0.163	0.941	0.097
Mof_C 	C 	0.57035	0.206	0.9116	0.107
Mof_N 	N 	0.57445	0.5131	0.05104	-0.269
Mof_C 	C 	0.6008	0.4874	0.0293	0.074
Mof_H 	H 	0.6239	0.5221	0.0324	-0.014
Mof_C 	C 	0.5966	0.4128	0.0023	-0.118
Mof_H 	H 	0.6166	0.3956	0.988	0.079
Mof_C 	C 	0.56255	0.3638	0.9966	0.049
Mof_C 	C 	0.5344	0.3904	0.0192	-0.111
Mof_H 	H 	0.5109	0.3573	0.0165	0.069
Mof_C 	C 	0.5413	0.4651	0.0454	0.063
Mof_H 	H 	0.5219	0.4839	0.0603	-0.008
Mof_N 	N 	0.42202	0.9933	0.93839	-0.279
Mof_C 	C 	0.4388	0.0025	0.9047	0.08
Mof_H 	H 	0.4273	0.972	0.8788	-0.015
Mof_C 	C 	0.4715	0.0529	0.9047	-0.129
Mof_H 	H 	0.4833	0.0535	0.8804	0.087
Mof_C 	C 	0.4867	0.1025	0.9409	0.059
Mof_C 	C 	0.4694	0.0964	0.9753	-0.136
Mof_H 	H 	0.4791	0.1299	0.0007	0.082
Mof_C 	C 	0.4377	0.0416	0.9728	0.085
Mof_H 	H 	0.4263	0.038	0.9973	-0.009
Mof_N 	N 	0.64059	0.17	0.81857	-0.279
Mof_C 	C 	0.6529	0.2165	0.8549	0.079
Mof_H 	H 	0.678	0.2425	0.8596	-0.012
Mof_C 	C 	0.6317	0.229	0.8855	-0.123
Mof_H 	H 	0.6422	0.262	0.9109	0.087
Mof_C 	C 	0.5946	0.1931	0.8795	0.065
Mof_C 	C 	0.5815	0.1449	0.842	-0.122
Mof_H 	H 	0.5565	0.1182	0.8366	0.084
Mof_C 	C 	0.6049	0.1359	0.8127	0.075
Mof_H 	H 	0.5952	0.1036	0.7868	-0.018
Mof_N 	N 	0.22085	0.0529	0.77377	-0.141
Mof_N 	N 	0.23431	0.1928	0.8117	-0.139
Mof_N 	N 	0.18096	0.1806	0.75253	-0.134
Mof_C 	C 	0.19111	0.0938	0.7487	0.103
Mof_C 	C 	0.24063	0.1048	0.8058	0.091
Mof_C 	C 	0.20419	0.2276	0.7838	0.103
Mof_N 	N 	0.12291	0.9474	0.64435	-0.27
Mof_C 	C 	0.114	0.0316	0.6535	0.075
Mof_H 	H 	0.0919	0.0592	0.6361	-0.008
Mof_C 	C 	0.135	0.0807	0.6867	-0.118
Mof_H 	H 	0.1276	0.141	0.692	0.091
Mof_C 	C 	0.1675	0.041	0.7129	0.055
Mof_C 	C 	0.1761	0.9525	0.7044	-0.122
Mof_H 	H 	0.1972	0.9222	0.7223	0.078
Mof_C 	C 	0.1537	0.9078	0.6694	0.063
Mof_H 	H 	0.1603	0.8476	0.663	-0.008
Mof_N 	N 	0.33301	0.9725	0.89121	-0.271
Mof_C 	C 	0.3156	0.9341	0.8535	0.069
Mof_H 	H 	0.3243	0.8762	0.8463	-0.002
Mof_C 	C 	0.286	0.9751	0.8253	-0.125
Mof_H 	H 	0.2743	0.9457	0.7993	0.091
Mof_C 	C 	0.27344	0.0596	0.8351	0.049
Mof_C 	C 	0.2912	0.1006	0.8736	-0.114
Mof_H 	H 	0.2836	0.1594	0.8809	0.085
Mof_C 	C 	0.3202	0.054	0.9008	0.069
Mof_H 	H 	0.3315	0.0809	0.9276	0.001
Mof_N 	N 	0.18407	0.5129	0.77957	-0.271
Mof_C 	C 	0.2153	0.4782	0.8054	0.076
Mof_H 	H 	0.2334	0.5185	0.8222	-0.012
Mof_C 	C 	0.2224	0.387	0.8087	-0.124
Mof_H 	H 	0.2448	0.365	0.8278	0.081
Mof_C 	C 	0.197	0.3267	0.7843	0.058
Mof_C 	C 	0.1642	0.363	0.7577	-0.116
Mof_H 	H 	0.1458	0.3243	0.7402	0.082
Mof_C 	C 	0.1585	0.4554	0.7569	0.063
Mof_H 	H 	0.1355	0.4793	0.7395	-0.013
Mof_I 	I 	0.5264	0.3502	0.6184	-0.108
Mof_Zn	Zn	0.87555	0.40742	0.93489	1.165
Mof_Zn	Zn	0.08601	0.1202	0.09489	1.163
Mof_Zn	Zn	0.17242	0.65142	0.7719	1.163
Mof_I 	I 	0.85492	0.41131	0.00682	-0.368
Mof_I 	I 	0.89256	0.26335	0.8984	-0.38
Mof_I 	I 	0.12456	0.23534	0.06265	-0.384
Mof_I 	I 	0.02541	0.14943	0.1247	-0.217
Mof_I 	I 	0.12825	0.66665	0.69774	-0.402
Mof_I 	I 	0.23423	0.74317	0.79336	-0.38
Mof_N 	N 	0.0785	0.7764	0.93848	-0.134
Mof_N 	N 	0.02751	0.7273	0.97087	-0.148
Mof_N 	N 	0.04096	0.6489	0.91077	-0.136
Mof_C 	C 	0.05592	0.7837	0.9678	0.095
Mof_C 	C 	0.0208	0.663	0.941	0.097
Mof_C 	C 	0.07035	0.706	0.9116	0.107
Mof_N 	N 	0.07445	0.0131	0.05104	-0.27
Mof_C 	C 	0.1008	0.9874	0.0293	0.074
Mof_H 	H 	0.1239	0.0221	0.0324	-0.014
Mof_C 	C 	0.0966	0.9128	0.0023	-0.117
Mof_H 	H 	0.1166	0.8956	0.988	0.079
Mof_C 	C 	0.06255	0.8638	0.9966	0.048
Mof_C 	C 	0.0344	0.8904	0.0192	-0.111
Mof_H 	H 	0.0109	0.8573	0.0165	0.069
Mof_C 	C 	0.0413	0.9651	0.0454	0.063
Mof_H 	H 	0.0219	0.9839	0.0603	-0.008
Mof_N 	N 	0.92202	0.4933	0.93839	-0.278
Mof_C 	C 	0.9388	0.5025	0.9047	0.079
Mof_H 	H 	0.9273	0.472	0.8788	-0.015
Mof_C 	C 	0.9715	0.5529	0.9047	-0.129
Mof_H 	H 	0.9833	0.5535	0.8804	0.087
Mof_C 	C 	0.9867	0.6025	0.9409	0.059
Mof_C 	C 	0.9694	0.5964	0.9753	-0.137
Mof_H 	H 	0.9791	0.6299	0.0007	0.082
Mof_C 	C 	0.9377	0.5416	0.9728	0.085
Mof_H 	H 	0.9263	0.538	0.9973	-0.009
Mof_N 	N 	0.14059	0.67	0.81857	-0.279
Mof_C 	C 	0.1529	0.7165	0.8549	0.079
Mof_H 	H 	0.178	0.7425	0.8596	-0.012
Mof_C 	C 	0.1317	0.729	0.8855	-0.123
Mof_H 	H 	0.1422	0.762	0.9109	0.087
Mof_C 	C 	0.0946	0.6931	0.8795	0.065
Mof_C 	C 	0.0815	0.6449	0.842	-0.122
Mof_H 	H 	0.0565	0.6182	0.8366	0.084
Mof_C 	C 	0.1049	0.6359	0.8127	0.075
Mof_H 	H 	0.0952	0.6036	0.7868	-0.018
Mof_N 	N 	0.72085	0.5529	0.77377	-0.141
Mof_N 	N 	0.73431	0.6928	0.8117	-0.139
Mof_N 	N 	0.68096	0.6806	0.75253	-0.134
Mof_C 	C 	0.69111	0.5938	0.7487	0.103
Mof_C 	C 	0.74063	0.6048	0.8058	0.091
Mof_C 	C 	0.70419	0.7276	0.7838	0.103
Mof_N 	N 	0.62291	0.4474	0.64435	-0.27
Mof_C 	C 	0.614	0.5316	0.6535	0.075
Mof_H 	H 	0.5919	0.5592	0.6361	-0.008
Mof_C 	C 	0.635	0.5807	0.6867	-0.118
Mof_H 	H 	0.6276	0.641	0.692	0.091
Mof_C 	C 	0.6675	0.541	0.7129	0.055
Mof_C 	C 	0.6761	0.4525	0.7044	-0.122
Mof_H 	H 	0.6972	0.4222	0.7223	0.078
Mof_C 	C 	0.6537	0.4078	0.6694	0.063
Mof_H 	H 	0.6603	0.3476	0.663	-0.008
Mof_N 	N 	0.83301	0.4725	0.89121	-0.271
Mof_C 	C 	0.8156	0.4341	0.8535	0.068
Mof_H 	H 	0.8243	0.3762	0.8463	-0.002
Mof_C 	C 	0.786	0.4751	0.8253	-0.124
Mof_H 	H 	0.7743	0.4457	0.7993	0.09
Mof_C 	C 	0.77344	0.5596	0.8351	0.049
Mof_C 	C 	0.7912	0.6006	0.8736	-0.113
Mof_H 	H 	0.7836	0.6594	0.8809	0.085
Mof_C 	C 	0.8202	0.554	0.9008	0.069
Mof_H 	H 	0.8315	0.5809	0.9276	0.001
Mof_N 	N 	0.68407	0.0129	0.77957	-0.27
Mof_C 	C 	0.7153	0.9782	0.8054	0.076
Mof_H 	H 	0.7334	0.0185	0.8222	-0.012
Mof_C 	C 	0.7224	0.887	0.8087	-0.124
Mof_H 	H 	0.7448	0.865	0.8278	0.081
Mof_C 	C 	0.697	0.8267	0.7843	0.058
Mof_C 	C 	0.6642	0.863	0.7577	-0.116
Mof_H 	H 	0.6458	0.8243	0.7402	0.081
Mof_C 	C 	0.6585	0.9554	0.7569	0.063
Mof_H 	H 	0.6355	0.9793	0.7395	-0.013
Mof_I 	I 	0.0264	0.8502	0.6184	-0.109
Mof_Zn	Zn	0.62445	0.09258	0.06511	1.165
Mof_Zn	Zn	0.41399	0.3798	0.90511	1.163
Mof_Zn	Zn	0.32758	0.84858	0.2281	1.163
Mof_I 	I 	0.64508	0.08869	0.99318	-0.368
Mof_I 	I 	0.60744	0.23665	0.1016	-0.38
Mof_I 	I 	0.37544	0.26466	0.93735	-0.384
Mof_I 	I 	0.47459	0.35057	0.8753	-0.217
Mof_I 	I 	0.37175	0.83335	0.30226	-0.402
Mof_I 	I 	0.26577	0.75683	0.20665	-0.38
Mof_N 	N 	0.4215	0.7236	0.06152	-0.134
Mof_N 	N 	0.47249	0.7727	0.02913	-0.148
Mof_N 	N 	0.45904	0.8511	0.08923	-0.136
Mof_C 	C 	0.44408	0.7163	0.0322	0.095
Mof_C 	C 	0.4792	0.837	0.059	0.097
Mof_C 	C 	0.42965	0.794	0.0884	0.107
Mof_N 	N 	0.42555	0.4869	0.94896	-0.269
Mof_C 	C 	0.3992	0.5126	0.9707	0.074
Mof_H 	H 	0.3761	0.4779	0.9676	-0.014
Mof_C 	C 	0.4034	0.5872	0.9977	-0.118
Mof_H 	H 	0.3834	0.6044	0.012	0.079
Mof_C 	C 	0.43745	0.6362	0.0034	0.049
Mof_C 	C 	0.4656	0.6096	0.9808	-0.111
Mof_H 	H 	0.4891	0.6427	0.9835	0.069
Mof_C 	C 	0.4587	0.5349	0.9546	0.063
Mof_H 	H 	0.4781	0.5161	0.9397	-0.008
Mof_N 	N 	0.57798	0.0067	0.06161	-0.279
Mof_C 	C 	0.5612	0.9975	0.0953	0.08
Mof_H 	H 	0.5727	0.028	0.1212	-0.015
Mof_C 	C 	0.5285	0.9471	0.0953	-0.129
Mof_H 	H 	0.5167	0.9465	0.1196	0.087
Mof_C 	C 	0.5133	0.8975	0.0591	0.059
Mof_C 	C 	0.5306	0.9036	0.0247	-0.136
Mof_H 	H 	0.5209	0.8701	0.9993	0.082
Mof_C 	C 	0.5623	0.9584	0.0272	0.085
Mof_H 	H 	0.5737	0.962	0.0027	-0.009
Mof_N 	N 	0.35941	0.83	0.18143	-0.279
Mof_C 	C 	0.3471	0.7835	0.1451	0.079
Mof_H 	H 	0.322	0.7575	0.1404	-0.012
Mof_C 	C 	0.3683	0.771	0.1145	-0.123
Mof_H 	H 	0.3578	0.738	0.0891	0.087
Mof_C 	C 	0.4054	0.8069	0.1205	0.065
Mof_C 	C 	0.4185	0.8551	0.158	-0.122
Mof_H 	H 	0.4435	0.8818	0.1634	0.084
Mof_C 	C 	0.3951	0.8641	0.1873	0.075
Mof_H 	H 	0.4048	0.8964	0.2132	-0.018
Mof_N 	N 	0.77915	0.9471	0.22623	-0.141
Mof_N 	N 	0.76569	0.8072	0.1883	-0.139
Mof_N 	N 	0.81904	0.8194	0.24747	-0.134
Mof_C 	C 	0.80889	0.9062	0.2513	0.103
Mof_C 	C 	0.75937	0.8952	0.1942	0.091
Mof_C 	C 	0.79581	0.7724	0.2162	0.103
Mof_N 	N 	0.87709	0.0526	0.35565	-0.27
Mof_C 	C 	0.886	0.9684	0.3465	0.075
Mof_H 	H 	0.9081	0.9408	0.3639	-0.008
Mof_C 	C 	0.865	0.9193	0.3133	-0.118
Mof_H 	H 	0.8724	0.859	0.308	0.091
Mof_C 	C 	0.8325	0.959	0.2871	0.055
Mof_C 	C 	0.8239	0.0475	0.2956	-0.122
Mof_H 	H 	0.8028	0.0778	0.2777	0.078
Mof_C 	C 	0.8463	0.0922	0.3306	0.063
Mof_H 	H 	0.8397	0.1524	0.337	-0.008
Mof_N 	N 	0.66699	0.0275	0.10879	-0.271
Mof_C 	C 	0.6844	0.0659	0.1465	0.069
Mof_H 	H 	0.6757	0.1238	0.1537	-0.002
Mof_C 	C 	0.714	0.0249	0.1747	-0.125
Mof_H 	H 	0.7257	0.0543	0.2007	0.091
Mof_C 	C 	0.72656	0.9404	0.1649	0.049
Mof_C 	C 	0.7088	0.8994	0.1264	-0.114
Mof_H 	H 	0.7164	0.8406	0.1191	0.085
Mof_C 	C 	0.6798	0.946	0.0992	0.069
Mof_H 	H 	0.6685	0.9191	0.0724	0.001
Mof_N 	N 	0.81593	0.4871	0.22043	-0.271
Mof_C 	C 	0.7847	0.5218	0.1946	0.076
Mof_H 	H 	0.7666	0.4815	0.1778	-0.012
Mof_C 	C 	0.7776	0.613	0.1913	-0.124
Mof_H 	H 	0.7552	0.635	0.1722	0.081
Mof_C 	C 	0.803	0.6733	0.2157	0.058
Mof_C 	C 	0.8358	0.637	0.2423	-0.116
Mof_H 	H 	0.8542	0.6757	0.2598	0.082
Mof_C 	C 	0.8415	0.5446	0.2431	0.063
Mof_H 	H 	0.8645	0.5207	0.2605	-0.013
Mof_I 	I 	0.4736	0.6498	0.3816	-0.108
Mof_Zn	Zn	0.12445	0.59258	0.06511	1.165
Mof_Zn	Zn	0.91399	0.8798	0.90511	1.163
Mof_Zn	Zn	0.82758	0.34858	0.2281	1.163
Mof_I 	I 	0.14508	0.58869	0.99318	-0.368
Mof_I 	I 	0.10744	0.73665	0.1016	-0.38
Mof_I 	I 	0.87544	0.76466	0.93735	-0.384
Mof_I 	I 	0.97459	0.85057	0.8753	-0.217
Mof_I 	I 	0.87175	0.33335	0.30226	-0.402
Mof_I 	I 	0.76577	0.25683	0.20664	-0.38
Mof_N 	N 	0.9215	0.2236	0.06152	-0.134
Mof_N 	N 	0.97249	0.2727	0.02913	-0.148
Mof_N 	N 	0.95904	0.3511	0.08923	-0.136
Mof_C 	C 	0.94408	0.2163	0.0322	0.095
Mof_C 	C 	0.9792	0.337	0.059	0.097
Mof_C 	C 	0.92965	0.294	0.0884	0.107
Mof_N 	N 	0.92555	0.9869	0.94896	-0.27
Mof_C 	C 	0.8992	0.0126	0.9707	0.074
Mof_H 	H 	0.8761	0.9779	0.9676	-0.014
Mof_C 	C 	0.9034	0.0872	0.9977	-0.117
Mof_H 	H 	0.8834	0.1044	0.012	0.079
Mof_C 	C 	0.93745	0.1362	0.0034	0.048
Mof_C 	C 	0.9656	0.1096	0.9808	-0.111
Mof_H 	H 	0.9891	0.1427	0.9835	0.069
Mof_C 	C 	0.9587	0.0349	0.9546	0.063
Mof_H 	H 	0.9781	0.0161	0.9397	-0.008
Mof_N 	N 	0.07798	0.5067	0.06161	-0.278
Mof_C 	C 	0.0612	0.4975	0.0953	0.079
Mof_H 	H 	0.0727	0.528	0.1212	-0.015
Mof_C 	C 	0.0285	0.4471	0.0953	-0.129
Mof_H 	H 	0.0167	0.4465	0.1196	0.087
Mof_C 	C 	0.0133	0.3975	0.0591	0.059
Mof_C 	C 	0.0306	0.4036	0.0247	-0.137
Mof_H 	H 	0.0209	0.3701	0.9993	0.082
Mof_C 	C 	0.0623	0.4584	0.0272	0.085
Mof_H 	H 	0.0737	0.462	0.0027	-0.009
Mof_N 	N 	0.85941	0.33	0.18143	-0.279
Mof_C 	C 	0.8471	0.2835	0.1451	0.079
Mof_H 	H 	0.822	0.2575	0.1404	-0.012
Mof_C 	C 	0.8683	0.271	0.1145	-0.123
Mof_H 	H 	0.8578	0.238	0.0891	0.087
Mof_C 	C 	0.9054	0.3069	0.1205	0.065
Mof_C 	C 	0.9185	0.3551	0.158	-0.122
Mof_H 	H 	0.9435	0.3818	0.1634	0.084
Mof_C 	C 	0.8951	0.3641	0.1873	0.075
Mof_H 	H 	0.9048	0.3964	0.2132	-0.018
Mof_N 	N 	0.27915	0.4471	0.22623	-0.141
Mof_N 	N 	0.26569	0.3072	0.1883	-0.139
Mof_N 	N 	0.31904	0.3194	0.24747	-0.134
Mof_C 	C 	0.30889	0.4062	0.2513	0.103
Mof_C 	C 	0.25937	0.3952	0.1942	0.091
Mof_C 	C 	0.29581	0.2724	0.2162	0.103
Mof_N 	N 	0.37709	0.5526	0.35565	-0.27
Mof_C 	C 	0.386	0.4684	0.3465	0.075
Mof_H 	H 	0.4081	0.4408	0.3639	-0.008
Mof_C 	C 	0.365	0.4193	0.3133	-0.118
Mof_H 	H 	0.3724	0.359	0.308	0.091
Mof_C 	C 	0.3325	0.459	0.2871	0.055
Mof_C 	C 	0.3239	0.5475	0.2956	-0.122
Mof_H 	H 	0.3028	0.5778	0.2777	0.078
Mof_C 	C 	0.3463	0.5922	0.3306	0.063
Mof_H 	H 	0.3397	0.6524	0.337	-0.008
Mof_N 	N 	0.16699	0.5275	0.10879	-0.271
Mof_C 	C 	0.1844	0.5659	0.1465	0.068
Mof_H 	H 	0.1757	0.6238	0.1537	-0.002
Mof_C 	C 	0.214	0.5249	0.1747	-0.124
Mof_H 	H 	0.2257	0.5543	0.2007	0.09
Mof_C 	C 	0.22656	0.4404	0.1649	0.049
Mof_C 	C 	0.2088	0.3994	0.1264	-0.113
Mof_H 	H 	0.2164	0.3406	0.1191	0.085
Mof_C 	C 	0.1798	0.446	0.0992	0.069
Mof_H 	H 	0.1685	0.4191	0.0724	0.001
Mof_N 	N 	0.31593	0.9871	0.22043	-0.27
Mof_C 	C 	0.2847	0.0218	0.1946	0.076
Mof_H 	H 	0.2666	0.9815	0.1778	-0.012
Mof_C 	C 	0.2776	0.113	0.1913	-0.124
Mof_H 	H 	0.2552	0.135	0.1722	0.081
Mof_C 	C 	0.303	0.1733	0.2157	0.058
Mof_C 	C 	0.3358	0.137	0.2423	-0.116
Mof_H 	H 	0.3542	0.1757	0.2598	0.081
Mof_C 	C 	0.3415	0.0446	0.2431	0.063
Mof_H 	H 	0.3645	0.0207	0.2605	-0.013
Mof_I 	I 	0.9736	0.1498	0.3816	-0.109
Mof_Zn	Zn	0.62445	0.90742	0.56511	1.165
Mof_Zn	Zn	0.41399	0.6202	0.40511	1.163
Mof_Zn	Zn	0.32758	0.15142	0.7281	1.163
Mof_I 	I 	0.64508	0.91131	0.49318	-0.368
Mof_I 	I 	0.60744	0.76335	0.6016	-0.38
Mof_I 	I 	0.37544	0.73534	0.43735	-0.384
Mof_I 	I 	0.47459	0.64943	0.3753	-0.217
Mof_I 	I 	0.37175	0.16665	0.80226	-0.402
Mof_I 	I 	0.26577	0.24317	0.70664	-0.38
Mof_N 	N 	0.4215	0.2764	0.56152	-0.134
Mof_N 	N 	0.47249	0.2273	0.52913	-0.148
Mof_N 	N 	0.45904	0.1489	0.58923	-0.136
Mof_C 	C 	0.44408	0.2837	0.5322	0.095
Mof_C 	C 	0.4792	0.163	0.559	0.097
Mof_C 	C 	0.42965	0.206	0.5884	0.107
Mof_N 	N 	0.42555	0.5131	0.44896	-0.269
Mof_C 	C 	0.3992	0.4874	0.4707	0.074
Mof_H 	H 	0.3761	0.5221	0.4676	-0.014
Mof_C 	C 	0.4034	0.4128	0.4977	-0.118
Mof_H 	H 	0.3834	0.3956	0.512	0.079
Mof_C 	C 	0.43745	0.3638	0.5034	0.049
Mof_C 	C 	0.4656	0.3904	0.4808	-0.111
Mof_H 	H 	0.4891	0.3573	0.4835	0.069
Mof_C 	C 	0.4587	0.4651	0.4546	0.063
Mof_H 	H 	0.4781	0.4839	0.4397	-0.008
Mof_N 	N 	0.57798	0.9933	0.56161	-0.278
Mof_C 	C 	0.5612	0.0025	0.5953	0.079
Mof_H 	H 	0.5727	0.972	0.6212	-0.015
Mof_C 	C 	0.5285	0.0529	0.5953	-0.129
Mof_H 	H 	0.5167	0.0535	0.6196	0.087
Mof_C 	C 	0.5133	0.1025	0.5591	0.059
Mof_C 	C 	0.5306	0.0964	0.5247	-0.136
Mof_H 	H 	0.5209	0.1299	0.4993	0.082
Mof_C 	C 	0.5623	0.0416	0.5272	0.085
Mof_H 	H 	0.5737	0.038	0.5027	-0.009
Mof_N 	N 	0.35941	0.17	0.68143	-0.279
Mof_C 	C 	0.3471	0.2165	0.6451	0.079
Mof_H 	H 	0.322	0.2425	0.6404	-0.012
Mof_C 	C 	0.3683	0.229	0.6145	-0.123
Mof_H 	H 	0.3578	0.262	0.5891	0.087
Mof_C 	C 	0.4054	0.1931	0.6205	0.065
Mof_C 	C 	0.4185	0.1449	0.658	-0.122
Mof_H 	H 	0.4435	0.1182	0.6634	0.084
Mof_C 	C 	0.3951	0.1359	0.6873	0.075
Mof_H 	H 	0.4048	0.1036	0.7132	-0.018
Mof_N 	N 	0.77915	0.0529	0.72623	-0.141
Mof_N 	N 	0.76569	0.1928	0.6883	-0.139
Mof_N 	N 	0.81904	0.1806	0.74747	-0.134
Mof_C 	C 	0.80889	0.0938	0.7513	0.103
Mof_C 	C 	0.75937	0.1048	0.6942	0.091
Mof_C 	C 	0.79581	0.2276	0.7162	0.103
Mof_N 	N 	0.87709	0.9474	0.85565	-0.27
Mof_C 	C 	0.886	0.0316	0.8465	0.076
Mof_H 	H 	0.9081	0.0592	0.8639	-0.008
Mof_C 	C 	0.865	0.0807	0.8133	-0.118
Mof_H 	H 	0.8724	0.141	0.808	0.091
Mof_C 	C 	0.8325	0.041	0.7871	0.055
Mof_C 	C 	0.8239	0.9525	0.7956	-0.123
Mof_H 	H 	0.8028	0.9222	0.7777	0.078
Mof_C 	C 	0.8463	0.9078	0.8306	0.063
Mof_H 	H 	0.8397	0.8476	0.837	-0.008
Mof_N 	N 	0.66699	0.9725	0.60879	-0.271
Mof_C 	C 	0.6844	0.9341	0.6465	0.069
Mof_H 	H 	0.6757	0.8762	0.6537	-0.002
Mof_C 	C 	0.714	0.9751	0.6747	-0.124
Mof_H 	H 	0.7257	0.9457	0.7007	0.09
Mof_C 	C 	0.72656	0.0596	0.6649	0.049
Mof_C 	C 	0.7088	0.1006	0.6264	-0.113
Mof_H 	H 	0.7164	0.1594	0.6191	0.085
Mof_C 	C 	0.6798	0.054	0.5992	0.069
Mof_H 	H 	0.6685	0.0809	0.5724	0.001
Mof_N 	N 	0.81593	0.5129	0.72043	-0.271
Mof_C 	C 	0.7847	0.4782	0.6946	0.076
Mof_H 	H 	0.7666	0.5185	0.6778	-0.012
Mof_C 	C 	0.7776	0.387	0.6913	-0.124
Mof_H 	H 	0.7552	0.365	0.6722	0.081
Mof_C 	C 	0.803	0.3267	0.7157	0.058
Mof_C 	C 	0.8358	0.363	0.7423	-0.116
Mof_H 	H 	0.8542	0.3243	0.7598	0.082
Mof_C 	C 	0.8415	0.4554	0.7431	0.063
Mof_H 	H 	0.8645	0.4793	0.7605	-0.013
Mof_I 	I 	0.4736	0.3502	0.8816	-0.108
Mof_Zn	Zn	0.12445	0.40742	0.56511	1.165
Mof_Zn	Zn	0.91399	0.1202	0.40511	1.163
Mof_Zn	Zn	0.82758	0.65142	0.7281	1.163
Mof_I 	I 	0.14508	0.41131	0.49318	-0.368
Mof_I 	I 	0.10744	0.26335	0.6016	-0.38
Mof_I 	I 	0.87544	0.23534	0.43735	-0.384
Mof_I 	I 	0.97459	0.14943	0.3753	-0.217
Mof_I 	I 	0.87175	0.66665	0.80226	-0.402
Mof_I 	I 	0.76577	0.74317	0.70664	-0.38
Mof_N 	N 	0.9215	0.7764	0.56152	-0.134
Mof_N 	N 	0.97249	0.7273	0.52913	-0.148
Mof_N 	N 	0.95904	0.6489	0.58923	-0.136
Mof_C 	C 	0.94408	0.7837	0.5322	0.095
Mof_C 	C 	0.9792	0.663	0.559	0.097
Mof_C 	C 	0.92965	0.706	0.5884	0.107
Mof_N 	N 	0.92555	0.0131	0.44896	-0.269
Mof_C 	C 	0.8992	0.9874	0.4707	0.074
Mof_H 	H 	0.8761	0.0221	0.4676	-0.014
Mof_C 	C 	0.9034	0.9128	0.4977	-0.118
Mof_H 	H 	0.8834	0.8956	0.512	0.079
Mof_C 	C 	0.93745	0.8638	0.5034	0.049
Mof_C 	C 	0.9656	0.8904	0.4808	-0.111
Mof_H 	H 	0.9891	0.8573	0.4835	0.069
Mof_C 	C 	0.9587	0.9651	0.4546	0.063
Mof_H 	H 	0.9781	0.9839	0.4397	-0.008
Mof_N 	N 	0.07798	0.4933	0.56161	-0.278
Mof_C 	C 	0.0612	0.5025	0.5953	0.079
Mof_H 	H 	0.0727	0.472	0.6212	-0.015
Mof_C 	C 	0.0285	0.5529	0.5953	-0.129
Mof_H 	H 	0.0167	0.5535	0.6196	0.087
Mof_C 	C 	0.0133	0.6025	0.5591	0.059
Mof_C 	C 	0.0306	0.5964	0.5247	-0.136
Mof_H 	H 	0.0209	0.6299	0.4993	0.082
Mof_C 	C 	0.0623	0.5416	0.5272	0.085
Mof_H 	H 	0.0737	0.538	0.5027	-0.009
Mof_N 	N 	0.85941	0.67	0.68143	-0.279
Mof_C 	C 	0.8471	0.7165	0.6451	0.079
Mof_H 	H 	0.822	0.7425	0.6404	-0.012
Mof_C 	C 	0.8683	0.729	0.6145	-0.123
Mof_H 	H 	0.8578	0.762	0.5891	0.087
Mof_C 	C 	0.9054	0.6931	0.6205	0.065
Mof_C 	C 	0.9185	0.6449	0.658	-0.122
Mof_H 	H 	0.9435	0.6182	0.6634	0.084
Mof_C 	C 	0.8951	0.6359	0.6873	0.075
Mof_H 	H 	0.9048	0.6036	0.7132	-0.018
Mof_N 	N 	0.27915	0.5529	0.72623	-0.141
Mof_N 	N 	0.26569	0.6928	0.6883	-0.139
Mof_N 	N 	0.31904	0.6806	0.74747	-0.134
Mof_C 	C 	0.30889	0.5938	0.7513	0.103
Mof_C 	C 	0.25937	0.6048	0.6942	0.091
Mof_C 	C 	0.29581	0.7276	0.7162	0.103
Mof_N 	N 	0.37709	0.4474	0.85565	-0.27
Mof_C 	C 	0.386	0.5316	0.8465	0.075
Mof_H 	H 	0.4081	0.5592	0.8639	-0.008
Mof_C 	C 	0.365	0.5807	0.8133	-0.118
Mof_H 	H 	0.3724	0.641	0.808	0.091
Mof_C 	C 	0.3325	0.541	0.7871	0.055
Mof_C 	C 	0.3239	0.4525	0.7956	-0.122
Mof_H 	H 	0.3028	0.4222	0.7777	0.078
Mof_C 	C 	0.3463	0.4078	0.8306	0.063
Mof_H 	H 	0.3397	0.3476	0.837	-0.008
Mof_N 	N 	0.16699	0.4725	0.60879	-0.271
Mof_C 	C 	0.1844	0.4341	0.6465	0.068
Mof_H 	H 	0.1757	0.3762	0.6537	-0.002
Mof_C 	C 	0.214	0.4751	0.6747	-0.124
Mof_H 	H 	0.2257	0.4457	0.7007	0.09
Mof_C 	C 	0.22656	0.5596	0.6649	0.049
Mof_C 	C 	0.2088	0.6006	0.6264	-0.113
Mof_H 	H 	0.2164	0.6594	0.6191	0.085
Mof_C 	C 	0.1798	0.554	0.5992	0.069
Mof_H 	H 	0.1685	0.5809	0.5724	0.001
Mof_N 	N 	0.31593	0.0129	0.72043	-0.271
Mof_C 	C 	0.2847	0.9782	0.6946	0.076
Mof_H 	H 	0.2666	0.0185	0.6778	-0.012
Mof_C 	C 	0.2776	0.887	0.6913	-0.124
Mof_H 	H 	0.2552	0.865	0.6722	0.081
Mof_C 	C 	0.303	0.8267	0.7157	0.058
Mof_C 	C 	0.3358	0.863	0.7423	-0.116
Mof_H 	H 	0.3542	0.8243	0.7598	0.082
Mof_C 	C 	0.3415	0.9554	0.7431	0.063
Mof_H 	H 	0.3645	0.9793	0.7605	-0.013
Mof_I 	I 	0.9736	0.8502	0.8816	-0.109
_end
