data_functionalizedCrystal
_audit_creation_method	'EQeq! by Chris Wilmer'
_symmetry_space_group_name_H-M	'P1'
_symmetry_Int_Tables_number	1
_symmetry_cell_setting	triclinic
loop_
_symmetry_equiv_pos_as_xyz
  x,y,z
_cell_length_a	16.8306
_cell_length_b	16.8306
_cell_length_c	16.8306
_cell_angle_alpha	90
_cell_angle_beta	90
_cell_angle_gamma	90
loop_
_atom_site_label
_atom_site_type_symbol
_atom_site_fract_x
_atom_site_fract_y
_atom_site_fract_z
_atom_site_charge
Mof_O 	O 	0.97569	0.40691	0.6948	-0.347
Mof_O 	O 	0.47569	0.90691	0.1948	-0.39
Mof_O 	O 	0.02431	0.59309	0.6948	-0.624
Mof_O 	O 	0.52431	0.09309	0.1948	-0.59
Mof_O 	O 	0.02431	0.40691	0.3052	-0.662
Mof_O 	O 	0.52431	0.90691	0.8052	-0.357
Mof_O 	O 	0.97569	0.59309	0.3052	-0.355
Mof_O 	O 	0.47569	0.09309	0.8052	-0.556
Mof_O 	O 	0.6948	0.97569	0.40691	-0.347
Mof_O 	O 	0.1948	0.47569	0.90691	-0.391
Mof_O 	O 	0.6948	0.02431	0.59309	-0.625
Mof_O 	O 	0.1948	0.52431	0.09309	-0.591
Mof_O 	O 	0.3052	0.02431	0.40691	-0.663
Mof_O 	O 	0.8052	0.52431	0.90691	-0.358
Mof_O 	O 	0.3052	0.97569	0.59309	-0.356
Mof_O 	O 	0.8052	0.47569	0.09309	-0.557
Mof_O 	O 	0.40691	0.6948	0.97569	-0.348
Mof_O 	O 	0.90691	0.1948	0.47569	-0.391
Mof_O 	O 	0.59309	0.6948	0.02431	-0.625
Mof_O 	O 	0.09309	0.1948	0.52431	-0.591
Mof_O 	O 	0.40691	0.3052	0.02431	-0.663
Mof_O 	O 	0.90691	0.8052	0.52431	-0.358
Mof_O 	O 	0.59309	0.3052	0.97569	-0.356
Mof_O 	O 	0.09309	0.8052	0.47569	-0.557
Mof_O 	O 	0.40691	0.97569	0.6948	-0.348
Mof_O 	O 	0.90691	0.47569	0.1948	-0.391
Mof_O 	O 	0.59309	0.02431	0.6948	-0.625
Mof_O 	O 	0.09309	0.52431	0.1948	-0.591
Mof_O 	O 	0.40691	0.02431	0.3052	-0.663
Mof_O 	O 	0.90691	0.52431	0.8052	-0.358
Mof_O 	O 	0.59309	0.97569	0.3052	-0.356
Mof_O 	O 	0.09309	0.47569	0.8052	-0.557
Mof_O 	O 	0.97569	0.6948	0.40691	-0.348
Mof_O 	O 	0.47569	0.1948	0.90691	-0.391
Mof_O 	O 	0.02431	0.6948	0.59309	-0.625
Mof_O 	O 	0.52431	0.1948	0.09309	-0.591
Mof_O 	O 	0.02431	0.3052	0.40691	-0.663
Mof_O 	O 	0.52431	0.8052	0.90691	-0.358
Mof_O 	O 	0.97569	0.3052	0.59309	-0.356
Mof_O 	O 	0.47569	0.8052	0.09309	-0.557
Mof_O 	O 	0.6948	0.40691	0.97569	-0.348
Mof_O 	O 	0.1948	0.90691	0.47569	-0.391
Mof_O 	O 	0.6948	0.59309	0.02431	-0.625
Mof_O 	O 	0.1948	0.09309	0.52431	-0.591
Mof_O 	O 	0.3052	0.40691	0.02431	-0.663
Mof_O 	O 	0.8052	0.90691	0.52431	-0.358
Mof_O 	O 	0.3052	0.59309	0.97569	-0.356
Mof_O 	O 	0.8052	0.09309	0.47569	-0.557
Mof_Ga	Ga	-8.71495e-33	0.5	0.5	2.141
Mof_Ga	Ga	0.5	0	-0	0.737
Mof_Ga	Ga	0.5	-5.29483e-33	0.5	2.141
Mof_Ga	Ga	-5.29483e-33	0.5	-0	0.737
Mof_Ga	Ga	0.5	0.5	-0	2.141
Mof_Ga	Ga	-3.42013e-33	-5.29483e-33	0.5	0.737
Mof_Mg	Mg	-2.48278e-33	0.5	0.75	1.453
Mof_Mg	Mg	-1.71006e-33	0.5	0.25	1.451
Mof_Mg	Mg	0.75	-5.29483e-33	0.5	1.453
Mof_Mg	Mg	0.25	-5.29483e-33	0.5	1.451
Mof_Mg	Mg	0.5	0.75	-0	1.453
Mof_Mg	Mg	0.5	0.25	-0	1.451
Mof_Mg	Mg	0.5	-5.29483e-33	0.75	1.453
Mof_Mg	Mg	0.5	-2.64741e-33	0.25	1.451
Mof_Mg	Mg	-3.42013e-33	0.75	0.5	1.453
Mof_Mg	Mg	-3.42013e-33	0.25	0.5	1.451
Mof_Mg	Mg	0.75	0.5	-0	1.453
Mof_Mg	Mg	0.25	0.5	-0	1.451
Mof_P 	P 	0.92977	0.37768	0.62232	0.642
Mof_O 	O 	0.8444	0.35738	0.64262	-0.175
Mof_O 	O 	0.9296	0.44212	0.55788	-0.582
Mof_P 	P 	0.42977	0.87768	0.12232	0.59
Mof_O 	O 	0.3444	0.85738	0.14262	-0.219
Mof_O 	O 	0.4296	0.94212	0.05788	-0.381
Mof_P 	P 	0.07023	0.62232	0.62232	0.654
Mof_O 	O 	0.1556	0.64262	0.64262	-0.21
Mof_O 	O 	0.0704	0.55788	0.55788	-0.799
Mof_P 	P 	0.57023	0.12232	0.12232	0.591
Mof_O 	O 	0.6556	0.14262	0.14262	-0.304
Mof_O 	O 	0.5704	0.05788	0.05788	-0.634
Mof_P 	P 	0.07023	0.37768	0.37768	0.652
Mof_O 	O 	0.1556	0.35738	0.35738	-0.258
Mof_O 	O 	0.0704	0.44212	0.44212	-0.801
Mof_P 	P 	0.57023	0.87768	0.87768	0.587
Mof_O 	O 	0.6556	0.85738	0.85738	-0.045
Mof_O 	O 	0.5704	0.94212	0.94212	-0.094
Mof_P 	P 	0.92977	0.62232	0.37768	0.642
Mof_O 	O 	0.8444	0.64262	0.35738	-0.175
Mof_O 	O 	0.9296	0.55788	0.44212	-0.582
Mof_P 	P 	0.42977	0.12232	0.87768	0.59
Mof_O 	O 	0.3444	0.14262	0.85738	-0.219
Mof_O 	O 	0.4296	0.05788	0.94212	-0.381
Mof_P 	P 	0.62232	0.92977	0.37768	0.642
Mof_O 	O 	0.64262	0.8444	0.35738	-0.175
Mof_O 	O 	0.55788	0.9296	0.44212	-0.582
Mof_P 	P 	0.12232	0.42977	0.87768	0.59
Mof_O 	O 	0.14262	0.3444	0.85738	-0.219
Mof_O 	O 	0.05788	0.4296	0.94212	-0.381
Mof_P 	P 	0.62232	0.07023	0.62232	0.654
Mof_O 	O 	0.64262	0.1556	0.64262	-0.21
Mof_O 	O 	0.55788	0.0704	0.55788	-0.799
Mof_P 	P 	0.12232	0.57023	0.12232	0.591
Mof_O 	O 	0.14262	0.6556	0.14262	-0.304
Mof_O 	O 	0.05788	0.5704	0.05788	-0.634
Mof_P 	P 	0.37768	0.07023	0.37768	0.652
Mof_O 	O 	0.35738	0.1556	0.35738	-0.258
Mof_O 	O 	0.44212	0.0704	0.44212	-0.801
Mof_P 	P 	0.87768	0.57023	0.87768	0.587
Mof_O 	O 	0.85738	0.6556	0.85738	-0.045
Mof_O 	O 	0.94212	0.5704	0.94212	-0.094
Mof_P 	P 	0.37768	0.92977	0.62232	0.642
Mof_O 	O 	0.35738	0.8444	0.64262	-0.175
Mof_O 	O 	0.44212	0.9296	0.55788	-0.582
Mof_P 	P 	0.87768	0.42977	0.12232	0.59
Mof_O 	O 	0.85738	0.3444	0.14262	-0.219
Mof_O 	O 	0.94212	0.4296	0.05788	-0.381
Mof_P 	P 	0.37768	0.62232	0.92977	0.642
Mof_O 	O 	0.35738	0.64262	0.8444	-0.175
Mof_O 	O 	0.44212	0.55788	0.9296	-0.582
Mof_P 	P 	0.87768	0.12232	0.42977	0.59
Mof_O 	O 	0.85738	0.14262	0.3444	-0.219
Mof_O 	O 	0.94212	0.05788	0.4296	-0.381
Mof_P 	P 	0.62232	0.62232	0.07023	0.654
Mof_O 	O 	0.64262	0.64262	0.1556	-0.21
Mof_O 	O 	0.55788	0.55788	0.0704	-0.799
Mof_P 	P 	0.12232	0.12232	0.57023	0.591
Mof_O 	O 	0.14262	0.14262	0.6556	-0.304
Mof_O 	O 	0.05788	0.05788	0.5704	-0.634
Mof_P 	P 	0.37768	0.37768	0.07023	0.652
Mof_O 	O 	0.35738	0.35738	0.1556	-0.258
Mof_O 	O 	0.44212	0.44212	0.0704	-0.801
Mof_P 	P 	0.87768	0.87768	0.57023	0.587
Mof_O 	O 	0.85738	0.85738	0.6556	-0.045
Mof_O 	O 	0.94212	0.94212	0.5704	-0.094
Mof_P 	P 	0.62232	0.37768	0.92977	0.642
Mof_O 	O 	0.64262	0.35738	0.8444	-0.175
Mof_O 	O 	0.55788	0.44212	0.9296	-0.582
Mof_P 	P 	0.12232	0.87768	0.42977	0.59
Mof_O 	O 	0.14262	0.85738	0.3444	-0.219
Mof_O 	O 	0.05788	0.94212	0.4296	-0.381
_end
