data_functionalizedCrystal
_audit_creation_method	'EQeq! by Chris Wilmer'
_symmetry_space_group_name_H-M	'P1'
_symmetry_Int_Tables_number	1
_symmetry_cell_setting	triclinic
loop_
_symmetry_equiv_pos_as_xyz
  x,y,z
_cell_length_a	13.141
_cell_length_b	13.279
_cell_length_c	32.181
_cell_angle_alpha	90
_cell_angle_beta	90
_cell_angle_gamma	90
loop_
_atom_site_label
_atom_site_type_symbol
_atom_site_fract_x
_atom_site_fract_y
_atom_site_fract_z
_atom_site_charge
Mof_Tb	Tb	0.96667	0.19267	0.46612	2.21
Mof_Tb	Tb	0.04849	0.96189	0.73455	1.983
Mof_Tb	Tb	0.03333	0.30733	0.96612	2.21
Mof_Tb	Tb	0.95151	0.53811	0.23455	1.989
Mof_Tb	Tb	0.46667	0.80733	0.03388	2.218
Mof_Tb	Tb	0.54849	0.03811	0.76545	1.998
Mof_Tb	Tb	0.53333	0.69267	0.53388	2.219
Mof_Tb	Tb	0.45151	0.46189	0.26545	1.999
Mof_Tb	Tb	0.03333	0.80733	0.53388	2.21
Mof_Tb	Tb	0.95151	0.03811	0.26545	1.983
Mof_Tb	Tb	0.96667	0.69267	0.03388	2.21
Mof_Tb	Tb	0.04849	0.46189	0.76545	1.989
Mof_Tb	Tb	0.53333	0.19267	0.96612	2.217
Mof_Tb	Tb	0.45151	0.96189	0.23455	1.997
Mof_Tb	Tb	0.46667	0.30733	0.46612	2.218
Mof_Tb	Tb	0.54849	0.53811	0.73455	1.998
Mof_H 	H 	0.2679	0.3336	0.7837	0.154
Mof_H 	H 	0.1727	0.5652	0.5144	0.161
Mof_H 	H 	0.9241	0.2049	0.6091	0.129
Mof_H 	H 	0.3377	0.5564	0.486	-0.031
Mof_H 	H 	0.4343	0.2834	0.7992	-0.035
Mof_H 	H 	0.9427	0.1881	0.6824	-0.031
Mof_H 	H 	0.7321	0.1664	0.2837	0.154
Mof_H 	H 	0.8273	0.9348	0.0144	0.161
Mof_H 	H 	0.0759	0.2951	0.1091	0.13
Mof_H 	H 	0.6623	0.9436	0.986	-0.032
Mof_H 	H 	0.5657	0.2166	0.2992	-0.035
Mof_H 	H 	0.0573	0.3119	0.1824	-0.03
Mof_H 	H 	0.7679	0.6664	0.7163	0.154
Mof_H 	H 	0.6727	0.4348	0.9856	0.161
Mof_H 	H 	0.4241	0.7951	0.8909	0.128
Mof_H 	H 	0.8377	0.4436	0.014	-0.031
Mof_H 	H 	0.9343	0.7166	0.7008	-0.032
Mof_H 	H 	0.4427	0.8119	0.8176	-0.032
Mof_H 	H 	0.2321	0.8336	0.2163	0.154
Mof_H 	H 	0.3273	0.0652	0.4856	0.161
Mof_H 	H 	0.5759	0.7049	0.3909	0.129
Mof_H 	H 	0.1623	0.0564	0.514	-0.031
Mof_H 	H 	0.0657	0.7834	0.2008	-0.033
Mof_H 	H 	0.5573	0.6881	0.3176	-0.032
Mof_H 	H 	0.7321	0.6664	0.2163	0.154
Mof_H 	H 	0.8273	0.4348	0.4856	0.161
Mof_H 	H 	0.0759	0.7951	0.3909	0.129
Mof_H 	H 	0.6623	0.4436	0.514	-0.031
Mof_H 	H 	0.5657	0.7166	0.2008	-0.035
Mof_H 	H 	0.0573	0.8119	0.3176	-0.031
Mof_H 	H 	0.2679	0.8336	0.7163	0.154
Mof_H 	H 	0.1727	0.0652	0.9856	0.161
Mof_H 	H 	0.9241	0.7049	0.8909	0.13
Mof_H 	H 	0.3377	0.0564	0.014	-0.032
Mof_H 	H 	0.4343	0.7834	0.7008	-0.035
Mof_H 	H 	0.9427	0.6881	0.8176	-0.03
Mof_H 	H 	0.2321	0.3336	0.2837	0.154
Mof_H 	H 	0.3273	0.5652	0.0144	0.161
Mof_H 	H 	0.5759	0.2049	0.1091	0.128
Mof_H 	H 	0.1623	0.5564	0.986	-0.031
Mof_H 	H 	0.0657	0.2834	0.2992	-0.032
Mof_H 	H 	0.5573	0.1881	0.1824	-0.032
Mof_H 	H 	0.7679	0.1664	0.7837	0.154
Mof_H 	H 	0.6727	0.9348	0.5144	0.161
Mof_H 	H 	0.4241	0.2951	0.6091	0.129
Mof_H 	H 	0.8377	0.9436	0.486	-0.031
Mof_H 	H 	0.9343	0.2166	0.7992	-0.033
Mof_H 	H 	0.4427	0.3119	0.6824	-0.032
Mof_C 	C 	0.2241	0.2516	0.472	0.443
Mof_C 	C 	0.3049	0.0177	0.7402	0.397
Mof_C 	C 	0.2378	0.1972	0.7612	-0.054
Mof_C 	C 	0.3067	0.1197	0.7589	-0.078
Mof_C 	C 	0.0525	0.9	0.635	0.447
Mof_C 	C 	0.1314	0.2115	0.748	0.457
Mof_C 	C 	0.0494	0.4049	0.5211	0.387
Mof_C 	C 	0.9776	0.0658	0.6024	-0.037
Mof_C 	C 	0.1531	0.4195	0.5016	0.003
Mof_C 	C 	0.9752	0.0576	0.5562	0.469
Mof_C 	C 	0.2202	0.3587	0.483	-0.108
Mof_C 	C 	0.2913	0.5036	0.4878	0.188
Mof_C 	C 	0.3846	0.2434	0.787	0.178
Mof_C 	C 	0.0059	0.0026	0.6336	-0.077
Mof_C 	C 	0.9578	0.1394	0.6626	0.154
Mof_C 	C 	0.7759	0.2484	0.972	0.442
Mof_C 	C 	0.6951	0.4823	0.2402	0.394
Mof_C 	C 	0.7622	0.3028	0.2612	-0.055
Mof_C 	C 	0.6933	0.3803	0.2589	-0.078
Mof_C 	C 	0.9475	0.6	0.135	0.454
Mof_C 	C 	0.8686	0.2885	0.248	0.457
Mof_C 	C 	0.9506	0.0951	0.0211	0.378
Mof_C 	C 	0.0224	0.4342	0.1024	-0.028
Mof_C 	C 	0.8469	0.0805	0.0016	0.002
Mof_C 	C 	0.0248	0.4424	0.0562	0.471
Mof_C 	C 	0.7798	0.1413	0.983	-0.107
Mof_C 	C 	0.7087	0.9964	0.9878	0.193
Mof_C 	C 	0.6154	0.2566	0.287	0.178
Mof_C 	C 	0.9941	0.4974	0.1336	-0.093
Mof_C 	C 	0.0422	0.3606	0.1626	0.156
Mof_C 	C 	0.7241	0.7484	0.028	0.443
Mof_C 	C 	0.8049	0.9823	0.7598	0.401
Mof_C 	C 	0.7378	0.8028	0.7388	-0.054
Mof_C 	C 	0.8067	0.8803	0.7411	-0.078
Mof_C 	C 	0.5525	0.1	0.865	0.451
Mof_C 	C 	0.6314	0.7885	0.752	0.458
Mof_C 	C 	0.5494	0.5951	0.9789	0.385
Mof_C 	C 	0.4776	0.9342	0.8976	-0.037
Mof_C 	C 	0.6531	0.5805	0.9984	0.005
Mof_C 	C 	0.4752	0.9424	0.9438	0.475
Mof_C 	C 	0.7202	0.6413	0.017	-0.11
Mof_C 	C 	0.7913	0.4964	0.0122	0.186
Mof_C 	C 	0.8846	0.7566	0.713	0.179
Mof_C 	C 	0.5059	0.9974	0.8664	-0.08
Mof_C 	C 	0.4578	0.8606	0.8374	0.154
Mof_C 	C 	0.2759	0.7516	0.528	0.443
Mof_C 	C 	0.1951	0.5177	0.2598	0.394
Mof_C 	C 	0.2622	0.6972	0.2388	-0.055
Mof_C 	C 	0.1933	0.6197	0.2411	-0.077
Mof_C 	C 	0.4475	0.4	0.365	0.452
Mof_C 	C 	0.3686	0.7115	0.252	0.458
Mof_C 	C 	0.4506	0.9049	0.4789	0.386
Mof_C 	C 	0.5224	0.5658	0.3976	-0.037
Mof_C 	C 	0.3469	0.9195	0.4984	0.002
Mof_C 	C 	0.5248	0.5576	0.4438	0.475
Mof_C 	C 	0.2798	0.8587	0.517	-0.108
Mof_C 	C 	0.2087	0.0036	0.5122	0.191
Mof_C 	C 	0.1154	0.7434	0.213	0.178
Mof_C 	C 	0.4941	0.5026	0.3664	-0.081
Mof_C 	C 	0.5422	0.6394	0.3374	0.154
Mof_C 	C 	0.7759	0.7484	0.528	0.443
Mof_C 	C 	0.6951	0.9823	0.2598	0.397
Mof_C 	C 	0.7622	0.8028	0.2388	-0.054
Mof_C 	C 	0.6933	0.8803	0.2411	-0.078
Mof_C 	C 	0.9475	0.1	0.365	0.447
Mof_C 	C 	0.8686	0.7885	0.252	0.457
Mof_C 	C 	0.9506	0.5951	0.4789	0.387
Mof_C 	C 	0.0224	0.9342	0.3976	-0.037
Mof_C 	C 	0.8469	0.5805	0.4984	0.003
Mof_C 	C 	0.0248	0.9424	0.4438	0.469
Mof_C 	C 	0.7798	0.6413	0.517	-0.108
Mof_C 	C 	0.7087	0.4964	0.5122	0.188
Mof_C 	C 	0.6154	0.7566	0.213	0.178
Mof_C 	C 	0.9941	0.9974	0.3664	-0.077
Mof_C 	C 	0.0422	0.8606	0.3374	0.154
Mof_C 	C 	0.2241	0.7516	0.028	0.442
Mof_C 	C 	0.3049	0.5177	0.7598	0.394
Mof_C 	C 	0.2378	0.6972	0.7388	-0.055
Mof_C 	C 	0.3067	0.6197	0.7411	-0.078
Mof_C 	C 	0.0525	0.4	0.865	0.454
Mof_C 	C 	0.1314	0.7115	0.752	0.457
Mof_C 	C 	0.0494	0.9049	0.9789	0.378
Mof_C 	C 	0.9776	0.5658	0.8976	-0.028
Mof_C 	C 	0.1531	0.9195	0.9984	0.002
Mof_C 	C 	0.9752	0.5576	0.9438	0.471
Mof_C 	C 	0.2202	0.8587	0.017	-0.107
Mof_C 	C 	0.2913	0.0036	0.0122	0.193
Mof_C 	C 	0.3846	0.7434	0.713	0.178
Mof_C 	C 	0.0059	0.5026	0.8664	-0.093
Mof_C 	C 	0.9578	0.6394	0.8374	0.156
Mof_C 	C 	0.2759	0.2516	0.972	0.443
Mof_C 	C 	0.1951	0.0177	0.2402	0.401
Mof_C 	C 	0.2622	0.1972	0.2612	-0.054
Mof_C 	C 	0.1933	0.1197	0.2589	-0.078
Mof_C 	C 	0.4475	0.9	0.135	0.451
Mof_C 	C 	0.3686	0.2115	0.248	0.458
Mof_C 	C 	0.4506	0.4049	0.0211	0.385
Mof_C 	C 	0.5224	0.0658	0.1024	-0.037
Mof_C 	C 	0.3469	0.4195	0.0016	0.005
Mof_C 	C 	0.5248	0.0576	0.0562	0.475
Mof_C 	C 	0.2798	0.3587	0.983	-0.11
Mof_C 	C 	0.2087	0.5036	0.9878	0.186
Mof_C 	C 	0.1154	0.2434	0.287	0.179
Mof_C 	C 	0.4941	0.0026	0.1336	-0.08
Mof_C 	C 	0.5422	0.1394	0.1626	0.154
Mof_C 	C 	0.7241	0.2484	0.472	0.443
Mof_C 	C 	0.8049	0.4823	0.7402	0.394
Mof_C 	C 	0.7378	0.3028	0.7612	-0.055
Mof_C 	C 	0.8067	0.3803	0.7589	-0.077
Mof_C 	C 	0.5525	0.6	0.635	0.452
Mof_C 	C 	0.6314	0.2885	0.748	0.458
Mof_C 	C 	0.5494	0.0951	0.5211	0.386
Mof_C 	C 	0.4776	0.4342	0.6024	-0.037
Mof_C 	C 	0.6531	0.0805	0.5016	0.002
Mof_C 	C 	0.4752	0.4424	0.5562	0.475
Mof_C 	C 	0.7202	0.1413	0.483	-0.108
Mof_C 	C 	0.7913	0.9964	0.4878	0.191
Mof_C 	C 	0.8846	0.2566	0.787	0.178
Mof_C 	C 	0.5059	0.4974	0.6336	-0.081
Mof_C 	C 	0.4578	0.3606	0.6626	0.154
Mof_N 	N 	0.9928	0.0494	0.6711	-0.243
Mof_N 	N 	0.2913	0.2743	0.7787	-0.215
Mof_N 	N 	0.309	0.4112	0.4744	-0.244
Mof_N 	N 	0.3987	0.1486	0.7757	-0.25
Mof_N 	N 	0.199	0.5114	0.5041	-0.223
Mof_N 	N 	0.9467	0.1518	0.6213	-0.206
Mof_N 	N 	0.0072	0.4506	0.1711	-0.238
Mof_N 	N 	0.7087	0.2257	0.2787	-0.214
Mof_N 	N 	0.691	0.0888	0.9744	-0.246
Mof_N 	N 	0.6013	0.3514	0.2757	-0.25
Mof_N 	N 	0.801	0.9886	0.0041	-0.223
Mof_N 	N 	0.0533	0.3482	0.1213	-0.207
Mof_N 	N 	0.4928	0.9506	0.8289	-0.244
Mof_N 	N 	0.7913	0.7257	0.7213	-0.214
Mof_N 	N 	0.809	0.5888	0.0256	-0.244
Mof_N 	N 	0.8987	0.8514	0.7243	-0.246
Mof_N 	N 	0.699	0.4886	0.9959	-0.222
Mof_N 	N 	0.4467	0.8482	0.8787	-0.206
Mof_N 	N 	0.5072	0.5494	0.3289	-0.244
Mof_N 	N 	0.2087	0.7743	0.2213	-0.214
Mof_N 	N 	0.191	0.9112	0.5256	-0.245
Mof_N 	N 	0.1013	0.6486	0.2243	-0.248
Mof_N 	N 	0.301	0.0114	0.4959	-0.222
Mof_N 	N 	0.5533	0.6518	0.3787	-0.206
Mof_N 	N 	0.0072	0.9506	0.3289	-0.243
Mof_N 	N 	0.7087	0.7257	0.2213	-0.215
Mof_N 	N 	0.691	0.5888	0.5256	-0.244
Mof_N 	N 	0.6013	0.8514	0.2243	-0.25
Mof_N 	N 	0.801	0.4886	0.4959	-0.223
Mof_N 	N 	0.0533	0.8482	0.3787	-0.206
Mof_N 	N 	0.9928	0.5494	0.8289	-0.238
Mof_N 	N 	0.2913	0.7743	0.7213	-0.214
Mof_N 	N 	0.309	0.9112	0.0256	-0.246
Mof_N 	N 	0.3987	0.6486	0.7243	-0.25
Mof_N 	N 	0.199	0.0114	0.9959	-0.223
Mof_N 	N 	0.9467	0.6518	0.8787	-0.207
Mof_N 	N 	0.5072	0.0494	0.1711	-0.244
Mof_N 	N 	0.2087	0.2743	0.2787	-0.214
Mof_N 	N 	0.191	0.4112	0.9744	-0.244
Mof_N 	N 	0.1013	0.1486	0.2757	-0.246
Mof_N 	N 	0.301	0.5114	0.0041	-0.222
Mof_N 	N 	0.5533	0.1518	0.1213	-0.206
Mof_N 	N 	0.4928	0.4506	0.6711	-0.244
Mof_N 	N 	0.7913	0.2257	0.7787	-0.214
Mof_N 	N 	0.809	0.0888	0.4744	-0.245
Mof_N 	N 	0.8987	0.3514	0.7757	-0.248
Mof_N 	N 	0.699	0.9886	0.5041	-0.222
Mof_N 	N 	0.4467	0.3482	0.6213	-0.206
Mof_O 	O 	0.9761	0.9706	0.5414	-0.537
Mof_O 	O 	0.9971	0.3318	0.5102	-0.493
Mof_O 	O 	0.9742	0.1382	0.5364	-0.509
Mof_O 	O 	0.1013	0.3015	0.7444	-0.522
Mof_O 	O 	0.2241	0.9777	0.7258	-0.506
Mof_O 	O 	0.064	0.8495	0.603	-0.557
Mof_O 	O 	0.0817	0.8719	0.6702	-0.475
Mof_O 	O 	0.1455	0.1991	0.4692	-0.521
Mof_O 	O 	0.3122	0.2149	0.4653	-0.517
Mof_O 	O 	0.3904	0.9743	0.7387	-0.49
Mof_O 	O 	0.0744	0.1367	0.7423	-0.517
Mof_O 	O 	0.0257	0.4664	0.5481	-0.296
Mof_O 	O 	0.0239	0.5294	0.0414	-0.54
Mof_O 	O 	0.0029	0.1682	0.0102	-0.485
Mof_O 	O 	0.0258	0.3618	0.0364	-0.507
Mof_O 	O 	0.8987	0.1985	0.2444	-0.523
Mof_O 	O 	0.7759	0.5223	0.2258	-0.505
Mof_O 	O 	0.936	0.6505	0.103	-0.559
Mof_O 	O 	0.9183	0.6281	0.1702	-0.477
Mof_O 	O 	0.8545	0.3009	0.9692	-0.522
Mof_O 	O 	0.6878	0.2851	0.9653	-0.517
Mof_O 	O 	0.6096	0.5257	0.2387	-0.489
Mof_O 	O 	0.9256	0.3633	0.2423	-0.52
Mof_O 	O 	0.9743	0.0336	0.0481	-0.296
Mof_O 	O 	0.4761	0.0294	0.9586	-0.544
Mof_O 	O 	0.4971	0.6682	0.9898	-0.494
Mof_O 	O 	0.4742	0.8618	0.9636	-0.51
Mof_O 	O 	0.6013	0.6985	0.7556	-0.522
Mof_O 	O 	0.7241	0.0223	0.7742	-0.509
Mof_O 	O 	0.564	0.1505	0.897	-0.558
Mof_O 	O 	0.5817	0.1281	0.8298	-0.476
Mof_O 	O 	0.6455	0.8009	0.0308	-0.524
Mof_O 	O 	0.8122	0.7851	0.0347	-0.517
Mof_O 	O 	0.8904	0.0257	0.7613	-0.489
Mof_O 	O 	0.5744	0.8633	0.7577	-0.519
Mof_O 	O 	0.5257	0.5336	0.9519	-0.295
Mof_O 	O 	0.5239	0.4706	0.4586	-0.544
Mof_O 	O 	0.5029	0.8318	0.4898	-0.494
Mof_O 	O 	0.5258	0.6382	0.4636	-0.51
Mof_O 	O 	0.3987	0.8015	0.2556	-0.523
Mof_O 	O 	0.2759	0.4777	0.2742	-0.505
Mof_O 	O 	0.436	0.3495	0.397	-0.558
Mof_O 	O 	0.4183	0.3719	0.3298	-0.476
Mof_O 	O 	0.3545	0.6991	0.5308	-0.523
Mof_O 	O 	0.1878	0.7149	0.5347	-0.517
Mof_O 	O 	0.1096	0.4743	0.2613	-0.485
Mof_O 	O 	0.4256	0.6367	0.2577	-0.519
Mof_O 	O 	0.4743	0.9664	0.4519	-0.296
Mof_O 	O 	0.0239	0.0294	0.4586	-0.537
Mof_O 	O 	0.0029	0.6682	0.4898	-0.493
Mof_O 	O 	0.0258	0.8618	0.4636	-0.509
Mof_O 	O 	0.8987	0.6985	0.2556	-0.522
Mof_O 	O 	0.7759	0.0223	0.2742	-0.506
Mof_O 	O 	0.936	0.1505	0.397	-0.557
Mof_O 	O 	0.9183	0.1281	0.3298	-0.475
Mof_O 	O 	0.8545	0.8009	0.5308	-0.521
Mof_O 	O 	0.6878	0.7851	0.5347	-0.517
Mof_O 	O 	0.6096	0.0257	0.2613	-0.49
Mof_O 	O 	0.9256	0.8633	0.2577	-0.517
Mof_O 	O 	0.9743	0.5336	0.4519	-0.296
Mof_O 	O 	0.9761	0.4706	0.9586	-0.54
Mof_O 	O 	0.9971	0.8318	0.9898	-0.485
Mof_O 	O 	0.9742	0.6382	0.9636	-0.507
Mof_O 	O 	0.1013	0.8015	0.7556	-0.523
Mof_O 	O 	0.2241	0.4777	0.7742	-0.505
Mof_O 	O 	0.064	0.3495	0.897	-0.559
Mof_O 	O 	0.0817	0.3719	0.8298	-0.477
Mof_O 	O 	0.1455	0.6991	0.0308	-0.522
Mof_O 	O 	0.3122	0.7149	0.0347	-0.517
Mof_O 	O 	0.3904	0.4743	0.7613	-0.489
Mof_O 	O 	0.0744	0.6367	0.7577	-0.52
Mof_O 	O 	0.0257	0.9664	0.9519	-0.296
Mof_O 	O 	0.5239	0.9706	0.0414	-0.544
Mof_O 	O 	0.5029	0.3318	0.0102	-0.494
Mof_O 	O 	0.5258	0.1382	0.0364	-0.51
Mof_O 	O 	0.3987	0.3015	0.2444	-0.522
Mof_O 	O 	0.2759	0.9777	0.2258	-0.509
Mof_O 	O 	0.436	0.8495	0.103	-0.558
Mof_O 	O 	0.4183	0.8719	0.1702	-0.476
Mof_O 	O 	0.3545	0.1991	0.9692	-0.524
Mof_O 	O 	0.1878	0.2149	0.9653	-0.517
Mof_O 	O 	0.1096	0.9743	0.2387	-0.489
Mof_O 	O 	0.4256	0.1367	0.2423	-0.519
Mof_O 	O 	0.4743	0.4664	0.0481	-0.295
Mof_O 	O 	0.4761	0.5294	0.5414	-0.544
Mof_O 	O 	0.4971	0.1682	0.5102	-0.494
Mof_O 	O 	0.4742	0.3618	0.5364	-0.51
Mof_O 	O 	0.6013	0.1985	0.7444	-0.523
Mof_O 	O 	0.7241	0.5223	0.7258	-0.505
Mof_O 	O 	0.564	0.6505	0.603	-0.558
Mof_O 	O 	0.5817	0.6281	0.6702	-0.476
Mof_O 	O 	0.6455	0.3009	0.4692	-0.523
Mof_O 	O 	0.8122	0.2851	0.4653	-0.517
Mof_O 	O 	0.8904	0.5257	0.7387	-0.485
Mof_O 	O 	0.5744	0.3633	0.7423	-0.519
Mof_O 	O 	0.5257	0.0336	0.5481	-0.296
_end
