data_functionalizedCrystal
_audit_creation_method	'EQeq! by Chris Wilmer'
_symmetry_space_group_name_H-M	'P1'
_symmetry_Int_Tables_number	1
_symmetry_cell_setting	triclinic
loop_
_symmetry_equiv_pos_as_xyz
  x,y,z
_cell_length_a	20.0157
_cell_length_b	26.8932
_cell_length_c	26.989
_cell_angle_alpha	90
_cell_angle_beta	90
_cell_angle_gamma	90
loop_
_atom_site_label
_atom_site_type_symbol
_atom_site_fract_x
_atom_site_fract_y
_atom_site_fract_z
_atom_site_charge
Mof_Cu	Cu	0.95601	0.46324	0.49986	0.91
Mof_Cu	Cu	0.54399	0.53676	0.99986	0.91
Mof_Cu	Cu	0.04399	0.96324	0.50014	0.908
Mof_Cu	Cu	0.45601	0.03676	0.00014	0.909
Mof_Cu	Cu	0.04399	0.53676	0.50014	0.909
Mof_Cu	Cu	0.45601	0.46324	0.00014	0.909
Mof_Cu	Cu	0.95601	0.03676	0.49986	0.908
Mof_Cu	Cu	0.54399	0.96324	0.99986	0.909
Mof_Cu	Cu	0.05379	0.25	0.23276	0.912
Mof_Cu	Cu	0.96872	0.25	0.30865	0.916
Mof_Cu	Cu	0.44621	0.75	0.73276	0.912
Mof_Cu	Cu	0.53128	0.75	0.80865	0.917
Mof_Cu	Cu	0.94621	0.75	0.76724	0.912
Mof_Cu	Cu	0.03128	0.75	0.69135	0.916
Mof_Cu	Cu	0.55379	0.25	0.26724	0.912
Mof_Cu	Cu	0.46872	0.25	0.19135	0.917
Mof_Cu	Cu	0.44676	0.75	0.26736	0.9
Mof_Cu	Cu	0.53301	0.75	0.19366	0.898
Mof_Cu	Cu	0.05324	0.25	0.76736	0.9
Mof_Cu	Cu	0.96699	0.25	0.69366	0.898
Mof_Cu	Cu	0.55324	0.25	0.73264	0.9
Mof_Cu	Cu	0.46699	0.25	0.80634	0.898
Mof_Cu	Cu	0.94676	0.75	0.23264	0.9
Mof_Cu	Cu	0.03301	0.75	0.30634	0.898
Mof_H 	H 	0.3282	0.4227	0.4842	0.301
Mof_H 	H 	0.0871	0.6288	0.0187	0.287
Mof_H 	H 	0.0781	0.6745	0.1313	0.056
Mof_H 	H 	0.2142	0.5613	0.131	0.058
Mof_H 	H 	0.1454	0.6161	0.2604	0.055
Mof_H 	H 	0.3545	0.4777	0.2245	0.061
Mof_H 	H 	0.1377	0.5201	0.266	0.068
Mof_H 	H 	0.1653	0.3786	0.2736	0.058
Mof_H 	H 	0.0483	0.375	0.3935	0.056
Mof_H 	H 	0.1595	0.498	0.3753	0.059
Mof_H 	H 	0.3553	0.383	0.2402	0.054
Mof_H 	H 	0.2965	0.4449	0.3702	0.078
Mof_H 	H 	0.4384	0.3373	0.3705	0.064
Mof_H 	H 	0.4574	0.6348	0.1107	0.065
Mof_H 	H 	0.3443	0.506	0.1326	0.062
Mof_H 	H 	0.3192	0.6201	0.2228	0.066
Mof_H 	H 	0.1718	0.5773	0.9842	0.301
Mof_H 	H 	0.4129	0.3712	0.5187	0.287
Mof_H 	H 	0.4219	0.3255	0.6313	0.056
Mof_H 	H 	0.2858	0.4387	0.631	0.058
Mof_H 	H 	0.3546	0.3839	0.7604	0.055
Mof_H 	H 	0.1455	0.5223	0.7245	0.061
Mof_H 	H 	0.3623	0.4799	0.766	0.068
Mof_H 	H 	0.3347	0.6214	0.7736	0.057
Mof_H 	H 	0.4517	0.625	0.8935	0.056
Mof_H 	H 	0.3405	0.502	0.8753	0.059
Mof_H 	H 	0.1447	0.617	0.7402	0.054
Mof_H 	H 	0.2035	0.5551	0.8702	0.078
Mof_H 	H 	0.0616	0.6627	0.8705	0.064
Mof_H 	H 	0.0426	0.3652	0.6107	0.065
Mof_H 	H 	0.1557	0.494	0.6326	0.062
Mof_H 	H 	0.1808	0.3799	0.7228	0.066
Mof_H 	H 	0.6718	0.9227	0.5158	0.301
Mof_H 	H 	0.9129	0.1288	0.9813	0.287
Mof_H 	H 	0.9219	0.1745	0.8687	0.055
Mof_H 	H 	0.7858	0.0613	0.869	0.058
Mof_H 	H 	0.8546	0.1161	0.7396	0.055
Mof_H 	H 	0.6455	0.9777	0.7755	0.06
Mof_H 	H 	0.8623	0.0201	0.734	0.068
Mof_H 	H 	0.8347	0.8786	0.7264	0.058
Mof_H 	H 	0.9517	0.875	0.6065	0.056
Mof_H 	H 	0.8405	0.998	0.6247	0.059
Mof_H 	H 	0.6447	0.883	0.7598	0.054
Mof_H 	H 	0.7035	0.9449	0.6298	0.078
Mof_H 	H 	0.5616	0.8373	0.6295	0.064
Mof_H 	H 	0.5426	0.1348	0.8893	0.065
Mof_H 	H 	0.6557	0.006	0.8674	0.062
Mof_H 	H 	0.6808	0.1201	0.7772	0.066
Mof_H 	H 	0.8282	0.0773	0.0158	0.3
Mof_H 	H 	0.5871	0.8712	0.4813	0.287
Mof_H 	H 	0.5781	0.8255	0.3687	0.056
Mof_H 	H 	0.7142	0.9387	0.369	0.058
Mof_H 	H 	0.6454	0.8839	0.2396	0.056
Mof_H 	H 	0.8545	0.0223	0.2755	0.061
Mof_H 	H 	0.6377	0.9799	0.234	0.068
Mof_H 	H 	0.6653	0.1214	0.2264	0.058
Mof_H 	H 	0.5483	0.125	0.1065	0.056
Mof_H 	H 	0.6595	0.002	0.1247	0.059
Mof_H 	H 	0.8553	0.117	0.2598	0.053
Mof_H 	H 	0.7965	0.0551	0.1298	0.078
Mof_H 	H 	0.9384	0.1627	0.1295	0.063
Mof_H 	H 	0.9574	0.8652	0.3893	0.065
Mof_H 	H 	0.8443	0.994	0.3674	0.062
Mof_H 	H 	0.8192	0.8799	0.2772	0.066
Mof_H 	H 	0.6718	0.5773	0.5158	0.301
Mof_H 	H 	0.9129	0.3712	0.9813	0.287
Mof_H 	H 	0.9219	0.3255	0.8687	0.056
Mof_H 	H 	0.7858	0.4387	0.869	0.058
Mof_H 	H 	0.8546	0.3839	0.7396	0.055
Mof_H 	H 	0.6455	0.5223	0.7755	0.061
Mof_H 	H 	0.8623	0.4799	0.734	0.068
Mof_H 	H 	0.8347	0.6214	0.7264	0.058
Mof_H 	H 	0.9517	0.625	0.6065	0.056
Mof_H 	H 	0.8405	0.502	0.6247	0.059
Mof_H 	H 	0.6447	0.617	0.7598	0.054
Mof_H 	H 	0.7035	0.5551	0.6298	0.078
Mof_H 	H 	0.5616	0.6627	0.6295	0.064
Mof_H 	H 	0.5426	0.3652	0.8893	0.065
Mof_H 	H 	0.6557	0.494	0.8674	0.062
Mof_H 	H 	0.6808	0.3799	0.7772	0.066
Mof_H 	H 	0.8282	0.4227	0.0158	0.301
Mof_H 	H 	0.5871	0.6288	0.4813	0.287
Mof_H 	H 	0.5781	0.6745	0.3687	0.056
Mof_H 	H 	0.7142	0.5613	0.369	0.058
Mof_H 	H 	0.6454	0.6161	0.2396	0.055
Mof_H 	H 	0.8545	0.4777	0.2755	0.061
Mof_H 	H 	0.6377	0.5201	0.234	0.068
Mof_H 	H 	0.6653	0.3786	0.2264	0.057
Mof_H 	H 	0.5483	0.375	0.1065	0.056
Mof_H 	H 	0.6595	0.498	0.1247	0.059
Mof_H 	H 	0.8553	0.383	0.2598	0.054
Mof_H 	H 	0.7965	0.4449	0.1298	0.078
Mof_H 	H 	0.9384	0.3373	0.1295	0.064
Mof_H 	H 	0.9574	0.6348	0.3893	0.065
Mof_H 	H 	0.8443	0.506	0.3674	0.062
Mof_H 	H 	0.8192	0.6201	0.2772	0.066
Mof_H 	H 	0.3282	0.0773	0.4842	0.301
Mof_H 	H 	0.0871	0.8712	0.0187	0.287
Mof_H 	H 	0.0781	0.8255	0.1313	0.055
Mof_H 	H 	0.2142	0.9387	0.131	0.058
Mof_H 	H 	0.1454	0.8839	0.2604	0.055
Mof_H 	H 	0.3545	0.0223	0.2245	0.06
Mof_H 	H 	0.1377	0.9799	0.266	0.068
Mof_H 	H 	0.1653	0.1214	0.2736	0.058
Mof_H 	H 	0.0483	0.125	0.3935	0.056
Mof_H 	H 	0.1595	0.002	0.3753	0.059
Mof_H 	H 	0.3553	0.117	0.2402	0.054
Mof_H 	H 	0.2965	0.0551	0.3702	0.078
Mof_H 	H 	0.4384	0.1627	0.3705	0.064
Mof_H 	H 	0.4574	0.8652	0.1107	0.065
Mof_H 	H 	0.3443	0.994	0.1326	0.062
Mof_H 	H 	0.3192	0.8799	0.2228	0.066
Mof_H 	H 	0.1718	0.9227	0.9842	0.3
Mof_H 	H 	0.4129	0.1288	0.5187	0.287
Mof_H 	H 	0.4219	0.1745	0.6313	0.056
Mof_H 	H 	0.2858	0.0613	0.631	0.058
Mof_H 	H 	0.3546	0.1161	0.7604	0.056
Mof_H 	H 	0.1455	0.9777	0.7245	0.061
Mof_H 	H 	0.3623	0.0201	0.766	0.068
Mof_H 	H 	0.3347	0.8786	0.7736	0.058
Mof_H 	H 	0.4517	0.875	0.8935	0.056
Mof_H 	H 	0.3405	0.998	0.8753	0.059
Mof_H 	H 	0.1447	0.883	0.7402	0.053
Mof_H 	H 	0.2035	0.9449	0.8702	0.078
Mof_H 	H 	0.0616	0.8373	0.8705	0.063
Mof_H 	H 	0.0426	0.1348	0.6107	0.065
Mof_H 	H 	0.1557	0.006	0.6326	0.062
Mof_H 	H 	0.1808	0.1201	0.7228	0.066
Mof_C 	C 	0.4297	0.6784	0.1876	0.308
Mof_C 	C 	0.0774	0.3195	0.307	0.355
Mof_C 	C 	0.1042	0.3653	0.3283	-0.086
Mof_C 	C 	0.0586	0.4628	0.432	0.451
Mof_C 	C 	0.4319	0.5451	0.0664	0.353
Mof_C 	C 	0.0593	0.6848	0.2257	0.336
Mof_C 	C 	0.1039	0.6451	0.2015	-0.065
Mof_C 	C 	0.1013	0.6484	0.1476	0.03
Mof_C 	C 	0.1343	0.6117	0.1214	-0.099
Mof_C 	C 	0.1832	0.5814	0.1486	-0.01
Mof_C 	C 	0.1839	0.5822	0.2003	0
Mof_C 	C 	0.1439	0.6151	0.2253	-0.018
Mof_C 	C 	0.2192	0.5401	0.227	0.019
Mof_C 	C 	0.2869	0.5293	0.2161	-0.001
Mof_C 	C 	0.3123	0.4885	0.2366	-0.062
Mof_C 	C 	0.2822	0.4585	0.2757	-0.002
Mof_C 	C 	0.2167	0.4728	0.2857	0.017
Mof_C 	C 	0.1835	0.5129	0.2599	-0.081
Mof_C 	C 	0.1661	0.4442	0.3173	-0.001
Mof_C 	C 	0.1464	0.3924	0.3028	-0.009
Mof_C 	C 	0.0801	0.3922	0.3737	0.034
Mof_C 	C 	0.1442	0.4666	0.3638	-0.014
Mof_C 	C 	0.4396	0.3141	0.2713	0.38
Mof_C 	C 	0.3201	0.4209	0.3006	0.017
Mof_C 	C 	0.3586	0.384	0.2753	-0.017
Mof_C 	C 	0.4023	0.3478	0.2988	-0.098
Mof_C 	C 	0.3215	0.4212	0.3518	-0.043
Mof_C 	C 	0.4057	0.3544	0.3515	0.016
Mof_C 	C 	0.3596	0.3865	0.3748	-0.033
Mof_C 	C 	0.3637	0.3912	0.4344	0.337
Mof_C 	C 	0.1309	0.6096	0.0729	0.326
Mof_C 	C 	0.0977	0.4368	0.3896	-0.087
Mof_C 	C 	0.3965	0.6314	0.1711	-0.047
Mof_C 	C 	0.426	0.6155	0.1286	-0.002
Mof_C 	C 	0.405	0.5662	0.1132	-0.063
Mof_C 	C 	0.3251	0.5607	0.1799	0.024
Mof_C 	C 	0.3553	0.5391	0.1415	-0.039
Mof_C 	C 	0.342	0.6053	0.1957	-0.041
Mof_C 	C 	0.0703	0.3216	0.6876	0.308
Mof_C 	C 	0.4226	0.6805	0.807	0.355
Mof_C 	C 	0.3958	0.6347	0.8283	-0.086
Mof_C 	C 	0.4414	0.5372	0.932	0.451
Mof_C 	C 	0.0681	0.4549	0.5664	0.353
Mof_C 	C 	0.4407	0.3152	0.7257	0.336
Mof_C 	C 	0.3961	0.3549	0.7015	-0.065
Mof_C 	C 	0.3987	0.3516	0.6476	0.03
Mof_C 	C 	0.3657	0.3883	0.6214	-0.099
Mof_C 	C 	0.3168	0.4186	0.6486	-0.01
Mof_C 	C 	0.3161	0.4178	0.7003	0
Mof_C 	C 	0.3561	0.3849	0.7253	-0.018
Mof_C 	C 	0.2808	0.4599	0.727	0.019
Mof_C 	C 	0.2131	0.4707	0.7161	-0.001
Mof_C 	C 	0.1877	0.5115	0.7366	-0.062
Mof_C 	C 	0.2178	0.5415	0.7757	-0.002
Mof_C 	C 	0.2833	0.5272	0.7857	0.017
Mof_C 	C 	0.3165	0.4871	0.7599	-0.081
Mof_C 	C 	0.3339	0.5558	0.8173	-0.001
Mof_C 	C 	0.3536	0.6076	0.8028	-0.008
Mof_C 	C 	0.4199	0.6078	0.8737	0.034
Mof_C 	C 	0.3558	0.5334	0.8638	-0.014
Mof_C 	C 	0.0604	0.6859	0.7713	0.38
Mof_C 	C 	0.1799	0.5791	0.8006	0.017
Mof_C 	C 	0.1414	0.616	0.7753	-0.017
Mof_C 	C 	0.0977	0.6522	0.7988	-0.098
Mof_C 	C 	0.1785	0.5788	0.8518	-0.043
Mof_C 	C 	0.0943	0.6456	0.8515	0.016
Mof_C 	C 	0.1404	0.6135	0.8748	-0.033
Mof_C 	C 	0.1363	0.6088	0.9344	0.337
Mof_C 	C 	0.3691	0.3904	0.5729	0.326
Mof_C 	C 	0.4023	0.5632	0.8896	-0.087
Mof_C 	C 	0.1035	0.3686	0.6711	-0.047
Mof_C 	C 	0.074	0.3845	0.6286	-0.002
Mof_C 	C 	0.095	0.4338	0.6132	-0.063
Mof_C 	C 	0.1749	0.4393	0.6799	0.024
Mof_C 	C 	0.1447	0.4609	0.6415	-0.039
Mof_C 	C 	0.158	0.3947	0.6957	-0.041
Mof_C 	C 	0.5703	0.1784	0.8124	0.308
Mof_C 	C 	0.9226	0.8195	0.693	0.355
Mof_C 	C 	0.8958	0.8653	0.6717	-0.086
Mof_C 	C 	0.9414	0.9628	0.568	0.451
Mof_C 	C 	0.5681	0.0451	0.9336	0.353
Mof_C 	C 	0.9407	0.1848	0.7743	0.336
Mof_C 	C 	0.8961	0.1451	0.7985	-0.065
Mof_C 	C 	0.8987	0.1484	0.8524	0.03
Mof_C 	C 	0.8657	0.1117	0.8786	-0.1
Mof_C 	C 	0.8168	0.0814	0.8514	-0.01
Mof_C 	C 	0.8161	0.0822	0.7997	-0
Mof_C 	C 	0.8561	0.1151	0.7747	-0.018
Mof_C 	C 	0.7808	0.0401	0.773	0.019
Mof_C 	C 	0.7131	0.0293	0.7839	-0.002
Mof_C 	C 	0.6877	0.9885	0.7634	-0.062
Mof_C 	C 	0.7178	0.9585	0.7243	-0.002
Mof_C 	C 	0.7833	0.9728	0.7143	0.017
Mof_C 	C 	0.8165	0.0129	0.7401	-0.082
Mof_C 	C 	0.8339	0.9442	0.6827	-0.002
Mof_C 	C 	0.8536	0.8924	0.6972	-0.008
Mof_C 	C 	0.9199	0.8922	0.6263	0.034
Mof_C 	C 	0.8558	0.9666	0.6362	-0.013
Mof_C 	C 	0.5604	0.8141	0.7287	0.38
Mof_C 	C 	0.6799	0.9209	0.6994	0.018
Mof_C 	C 	0.6414	0.884	0.7247	-0.017
Mof_C 	C 	0.5977	0.8478	0.7012	-0.098
Mof_C 	C 	0.6785	0.9212	0.6482	-0.043
Mof_C 	C 	0.5943	0.8544	0.6485	0.016
Mof_C 	C 	0.6404	0.8865	0.6252	-0.033
Mof_C 	C 	0.6363	0.8912	0.5656	0.337
Mof_C 	C 	0.8691	0.1096	0.9271	0.326
Mof_C 	C 	0.9023	0.9368	0.6104	-0.087
Mof_C 	C 	0.6035	0.1314	0.8289	-0.047
Mof_C 	C 	0.574	0.1155	0.8714	-0.002
Mof_C 	C 	0.595	0.0662	0.8868	-0.063
Mof_C 	C 	0.6749	0.0607	0.8201	0.024
Mof_C 	C 	0.6447	0.0391	0.8585	-0.039
Mof_C 	C 	0.658	0.1053	0.8043	-0.041
Mof_C 	C 	0.9297	0.8216	0.3124	0.308
Mof_C 	C 	0.5774	0.1805	0.193	0.355
Mof_C 	C 	0.6042	0.1347	0.1717	-0.086
Mof_C 	C 	0.5586	0.0372	0.068	0.451
Mof_C 	C 	0.9319	0.9549	0.4336	0.353
Mof_C 	C 	0.5593	0.8152	0.2743	0.336
Mof_C 	C 	0.6039	0.8549	0.2985	-0.064
Mof_C 	C 	0.6013	0.8516	0.3524	0.03
Mof_C 	C 	0.6343	0.8883	0.3786	-0.099
Mof_C 	C 	0.6832	0.9186	0.3514	-0.01
Mof_C 	C 	0.6839	0.9178	0.2997	0.001
Mof_C 	C 	0.6439	0.8849	0.2747	-0.018
Mof_C 	C 	0.7192	0.9599	0.273	0.017
Mof_C 	C 	0.7869	0.9707	0.2839	0.002
Mof_C 	C 	0.8123	0.0115	0.2634	-0.065
Mof_C 	C 	0.7822	0.0415	0.2243	-0
Mof_C 	C 	0.7167	0.0272	0.2143	0.015
Mof_C 	C 	0.6835	0.9871	0.2401	-0.078
Mof_C 	C 	0.6661	0.0558	0.1827	-0.001
Mof_C 	C 	0.6464	0.1076	0.1972	-0.009
Mof_C 	C 	0.5801	0.1078	0.1263	0.034
Mof_C 	C 	0.6442	0.0334	0.1362	-0.014
Mof_C 	C 	0.9396	0.1859	0.2287	0.38
Mof_C 	C 	0.8201	0.0791	0.1994	0.017
Mof_C 	C 	0.8586	0.116	0.2247	-0.017
Mof_C 	C 	0.9023	0.1522	0.2012	-0.098
Mof_C 	C 	0.8215	0.0788	0.1482	-0.042
Mof_C 	C 	0.9057	0.1456	0.1485	0.016
Mof_C 	C 	0.8596	0.1135	0.1252	-0.034
Mof_C 	C 	0.8637	0.1088	0.0656	0.337
Mof_C 	C 	0.6309	0.8904	0.4271	0.326
Mof_C 	C 	0.5977	0.0632	0.1104	-0.087
Mof_C 	C 	0.8965	0.8686	0.3289	-0.048
Mof_C 	C 	0.926	0.8845	0.3714	-0.001
Mof_C 	C 	0.905	0.9338	0.3868	-0.063
Mof_C 	C 	0.8251	0.9393	0.3201	0.023
Mof_C 	C 	0.8553	0.9609	0.3585	-0.038
Mof_C 	C 	0.842	0.8947	0.3043	-0.04
Mof_C 	C 	0.5703	0.3216	0.8124	0.308
Mof_C 	C 	0.9226	0.6805	0.693	0.355
Mof_C 	C 	0.8958	0.6347	0.6717	-0.086
Mof_C 	C 	0.9414	0.5372	0.568	0.451
Mof_C 	C 	0.5681	0.4549	0.9336	0.353
Mof_C 	C 	0.9407	0.3152	0.7743	0.336
Mof_C 	C 	0.8961	0.3549	0.7985	-0.065
Mof_C 	C 	0.8987	0.3516	0.8524	0.03
Mof_C 	C 	0.8657	0.3883	0.8786	-0.099
Mof_C 	C 	0.8168	0.4186	0.8514	-0.01
Mof_C 	C 	0.8161	0.4178	0.7997	0
Mof_C 	C 	0.8561	0.3849	0.7747	-0.018
Mof_C 	C 	0.7808	0.4599	0.773	0.019
Mof_C 	C 	0.7131	0.4707	0.7839	-0.001
Mof_C 	C 	0.6877	0.5115	0.7634	-0.062
Mof_C 	C 	0.7178	0.5415	0.7243	-0.002
Mof_C 	C 	0.7833	0.5272	0.7143	0.017
Mof_C 	C 	0.8165	0.4871	0.7401	-0.081
Mof_C 	C 	0.8339	0.5558	0.6827	-0.001
Mof_C 	C 	0.8536	0.6076	0.6972	-0.009
Mof_C 	C 	0.9199	0.6078	0.6263	0.034
Mof_C 	C 	0.8558	0.5334	0.6362	-0.014
Mof_C 	C 	0.5604	0.6859	0.7287	0.38
Mof_C 	C 	0.6799	0.5791	0.6994	0.017
Mof_C 	C 	0.6414	0.616	0.7247	-0.017
Mof_C 	C 	0.5977	0.6522	0.7012	-0.098
Mof_C 	C 	0.6785	0.5788	0.6482	-0.043
Mof_C 	C 	0.5943	0.6456	0.6485	0.016
Mof_C 	C 	0.6404	0.6135	0.6252	-0.033
Mof_C 	C 	0.6363	0.6088	0.5656	0.337
Mof_C 	C 	0.8691	0.3904	0.9271	0.326
Mof_C 	C 	0.9023	0.5632	0.6104	-0.087
Mof_C 	C 	0.6035	0.3686	0.8289	-0.047
Mof_C 	C 	0.574	0.3845	0.8714	-0.002
Mof_C 	C 	0.595	0.4338	0.8868	-0.063
Mof_C 	C 	0.6749	0.4393	0.8201	0.024
Mof_C 	C 	0.6447	0.4609	0.8585	-0.039
Mof_C 	C 	0.658	0.3947	0.8043	-0.041
Mof_C 	C 	0.9297	0.6784	0.3124	0.308
Mof_C 	C 	0.5774	0.3195	0.193	0.355
Mof_C 	C 	0.6042	0.3653	0.1717	-0.086
Mof_C 	C 	0.5586	0.4628	0.068	0.451
Mof_C 	C 	0.9319	0.5451	0.4336	0.353
Mof_C 	C 	0.5593	0.6848	0.2743	0.336
Mof_C 	C 	0.6039	0.6451	0.2985	-0.065
Mof_C 	C 	0.6013	0.6484	0.3524	0.03
Mof_C 	C 	0.6343	0.6117	0.3786	-0.099
Mof_C 	C 	0.6832	0.5814	0.3514	-0.01
Mof_C 	C 	0.6839	0.5822	0.2997	0
Mof_C 	C 	0.6439	0.6151	0.2747	-0.018
Mof_C 	C 	0.7192	0.5401	0.273	0.019
Mof_C 	C 	0.7869	0.5293	0.2839	-0.001
Mof_C 	C 	0.8123	0.4885	0.2634	-0.062
Mof_C 	C 	0.7822	0.4585	0.2243	-0.002
Mof_C 	C 	0.7167	0.4728	0.2143	0.017
Mof_C 	C 	0.6835	0.5129	0.2401	-0.081
Mof_C 	C 	0.6661	0.4442	0.1827	-0.001
Mof_C 	C 	0.6464	0.3924	0.1972	-0.008
Mof_C 	C 	0.5801	0.3922	0.1263	0.034
Mof_C 	C 	0.6442	0.4666	0.1362	-0.014
Mof_C 	C 	0.9396	0.3141	0.2287	0.38
Mof_C 	C 	0.8201	0.4209	0.1994	0.017
Mof_C 	C 	0.8586	0.384	0.2247	-0.017
Mof_C 	C 	0.9023	0.3478	0.2012	-0.098
Mof_C 	C 	0.8215	0.4212	0.1482	-0.043
Mof_C 	C 	0.9057	0.3544	0.1485	0.016
Mof_C 	C 	0.8596	0.3865	0.1252	-0.033
Mof_C 	C 	0.8637	0.3912	0.0656	0.337
Mof_C 	C 	0.6309	0.6096	0.4271	0.326
Mof_C 	C 	0.5977	0.4368	0.1104	-0.087
Mof_C 	C 	0.8965	0.6314	0.3289	-0.047
Mof_C 	C 	0.926	0.6155	0.3714	-0.002
Mof_C 	C 	0.905	0.5662	0.3868	-0.063
Mof_C 	C 	0.8251	0.5607	0.3201	0.024
Mof_C 	C 	0.8553	0.5391	0.3585	-0.039
Mof_C 	C 	0.842	0.6053	0.3043	-0.041
Mof_C 	C 	0.4297	0.8216	0.1876	0.308
Mof_C 	C 	0.0774	0.1805	0.307	0.355
Mof_C 	C 	0.1042	0.1347	0.3283	-0.086
Mof_C 	C 	0.0586	0.0372	0.432	0.451
Mof_C 	C 	0.4319	0.9549	0.0664	0.353
Mof_C 	C 	0.0593	0.8152	0.2257	0.336
Mof_C 	C 	0.1039	0.8549	0.2015	-0.065
Mof_C 	C 	0.1013	0.8516	0.1476	0.03
Mof_C 	C 	0.1343	0.8883	0.1214	-0.1
Mof_C 	C 	0.1832	0.9186	0.1486	-0.01
Mof_C 	C 	0.1839	0.9178	0.2003	-0
Mof_C 	C 	0.1439	0.8849	0.2253	-0.018
Mof_C 	C 	0.2192	0.9599	0.227	0.019
Mof_C 	C 	0.2869	0.9707	0.2161	-0.002
Mof_C 	C 	0.3123	0.0115	0.2366	-0.062
Mof_C 	C 	0.2822	0.0415	0.2757	-0.002
Mof_C 	C 	0.2167	0.0272	0.2857	0.017
Mof_C 	C 	0.1835	0.9871	0.2599	-0.082
Mof_C 	C 	0.1661	0.0558	0.3173	-0.002
Mof_C 	C 	0.1464	0.1076	0.3028	-0.008
Mof_C 	C 	0.0801	0.1078	0.3737	0.034
Mof_C 	C 	0.1442	0.0334	0.3638	-0.013
Mof_C 	C 	0.4396	0.1859	0.2713	0.38
Mof_C 	C 	0.3201	0.0791	0.3006	0.018
Mof_C 	C 	0.3586	0.116	0.2753	-0.017
Mof_C 	C 	0.4023	0.1522	0.2988	-0.098
Mof_C 	C 	0.3215	0.0788	0.3518	-0.043
Mof_C 	C 	0.4057	0.1456	0.3515	0.016
Mof_C 	C 	0.3596	0.1135	0.3748	-0.033
Mof_C 	C 	0.3637	0.1088	0.4344	0.337
Mof_C 	C 	0.1309	0.8904	0.0729	0.326
Mof_C 	C 	0.0977	0.0632	0.3896	-0.087
Mof_C 	C 	0.3965	0.8686	0.1711	-0.047
Mof_C 	C 	0.426	0.8845	0.1286	-0.002
Mof_C 	C 	0.405	0.9338	0.1132	-0.063
Mof_C 	C 	0.3251	0.9393	0.1799	0.024
Mof_C 	C 	0.3553	0.9609	0.1415	-0.039
Mof_C 	C 	0.342	0.8947	0.1957	-0.041
Mof_C 	C 	0.0703	0.1784	0.6876	0.308
Mof_C 	C 	0.4226	0.8195	0.807	0.355
Mof_C 	C 	0.3958	0.8653	0.8283	-0.086
Mof_C 	C 	0.4414	0.9628	0.932	0.451
Mof_C 	C 	0.0681	0.0451	0.5664	0.353
Mof_C 	C 	0.4407	0.1848	0.7257	0.336
Mof_C 	C 	0.3961	0.1451	0.7015	-0.064
Mof_C 	C 	0.3987	0.1484	0.6476	0.03
Mof_C 	C 	0.3657	0.1117	0.6214	-0.099
Mof_C 	C 	0.3168	0.0814	0.6486	-0.01
Mof_C 	C 	0.3161	0.0822	0.7003	0.001
Mof_C 	C 	0.3561	0.1151	0.7253	-0.018
Mof_C 	C 	0.2808	0.0401	0.727	0.017
Mof_C 	C 	0.2131	0.0293	0.7161	0.002
Mof_C 	C 	0.1877	0.9885	0.7366	-0.065
Mof_C 	C 	0.2178	0.9585	0.7757	-0
Mof_C 	C 	0.2833	0.9728	0.7857	0.015
Mof_C 	C 	0.3165	0.0129	0.7599	-0.078
Mof_C 	C 	0.3339	0.9442	0.8173	-0.001
Mof_C 	C 	0.3536	0.8924	0.8028	-0.009
Mof_C 	C 	0.4199	0.8922	0.8737	0.034
Mof_C 	C 	0.3558	0.9666	0.8638	-0.014
Mof_C 	C 	0.0604	0.8141	0.7713	0.38
Mof_C 	C 	0.1799	0.9209	0.8006	0.017
Mof_C 	C 	0.1414	0.884	0.7753	-0.017
Mof_C 	C 	0.0977	0.8478	0.7988	-0.098
Mof_C 	C 	0.1785	0.9212	0.8518	-0.042
Mof_C 	C 	0.0943	0.8544	0.8515	0.016
Mof_C 	C 	0.1404	0.8865	0.8748	-0.034
Mof_C 	C 	0.1363	0.8912	0.9344	0.337
Mof_C 	C 	0.3691	0.1096	0.5729	0.326
Mof_C 	C 	0.4023	0.9368	0.8896	-0.087
Mof_C 	C 	0.1035	0.1314	0.6711	-0.048
Mof_C 	C 	0.074	0.1155	0.6286	-0.001
Mof_C 	C 	0.095	0.0662	0.6132	-0.063
Mof_C 	C 	0.1749	0.0607	0.6799	0.023
Mof_C 	C 	0.1447	0.0391	0.6415	-0.038
Mof_C 	C 	0.158	0.1053	0.6957	-0.04
Mof_O 	O 	0.4015	0.6965	0.2295	-0.365
Mof_O 	O 	0.4756	0.6981	0.1644	-0.392
Mof_O 	O 	0.0072	0.6992	0.2068	-0.407
Mof_O 	O 	0.0815	0.6974	0.2696	-0.383
Mof_O 	O 	0.0269	0.3008	0.3324	-0.396
Mof_O 	O 	0.1014	0.3022	0.2694	-0.406
Mof_O 	O 	0.423	0.3002	0.2295	-0.416
Mof_O 	O 	0.4924	0.2987	0.2937	-0.4
Mof_O 	O 	0.016	0.4342	0.4494	-0.431
Mof_O 	O 	0.4874	0.5628	0.0511	-0.402
Mof_O 	O 	0.4128	0.5031	0.0518	-0.399
Mof_O 	O 	0.3341	0.4281	0.4538	-0.459
Mof_O 	O 	0.3975	0.3543	0.4529	-0.258
Mof_O 	O 	0.1844	0.5905	0.0456	-0.247
Mof_O 	O 	0.0771	0.6232	0.0484	-0.43
Mof_O 	O 	0.0859	0.4958	0.4475	-0.463
Mof_O 	O 	0.0985	0.3035	0.7295	-0.365
Mof_O 	O 	0.0244	0.3019	0.6644	-0.392
Mof_O 	O 	0.4928	0.3008	0.7068	-0.407
Mof_O 	O 	0.4185	0.3026	0.7696	-0.383
Mof_O 	O 	0.4731	0.6992	0.8324	-0.396
Mof_O 	O 	0.3986	0.6978	0.7694	-0.406
Mof_O 	O 	0.077	0.6998	0.7295	-0.416
Mof_O 	O 	0.0076	0.7013	0.7937	-0.401
Mof_O 	O 	0.484	0.5658	0.9494	-0.431
Mof_O 	O 	0.0126	0.4372	0.5511	-0.402
Mof_O 	O 	0.0872	0.4969	0.5518	-0.399
Mof_O 	O 	0.1659	0.5719	0.9538	-0.459
Mof_O 	O 	0.1025	0.6457	0.9529	-0.258
Mof_O 	O 	0.3156	0.4095	0.5456	-0.247
Mof_O 	O 	0.4229	0.3768	0.5484	-0.43
Mof_O 	O 	0.4141	0.5042	0.9475	-0.463
Mof_O 	O 	0.5985	0.1965	0.7705	-0.365
Mof_O 	O 	0.5244	0.1981	0.8356	-0.392
Mof_O 	O 	0.9928	0.1992	0.7932	-0.408
Mof_O 	O 	0.9185	0.1974	0.7304	-0.383
Mof_O 	O 	0.9731	0.8008	0.6676	-0.396
Mof_O 	O 	0.8986	0.8022	0.7306	-0.406
Mof_O 	O 	0.577	0.8002	0.7705	-0.416
Mof_O 	O 	0.5076	0.7987	0.7063	-0.4
Mof_O 	O 	0.984	0.9342	0.5506	-0.431
Mof_O 	O 	0.5126	0.0628	0.9489	-0.402
Mof_O 	O 	0.5872	0.0031	0.9482	-0.399
Mof_O 	O 	0.6659	0.9281	0.5462	-0.459
Mof_O 	O 	0.6025	0.8543	0.5471	-0.258
Mof_O 	O 	0.8156	0.0905	0.9544	-0.247
Mof_O 	O 	0.9229	0.1232	0.9516	-0.43
Mof_O 	O 	0.9141	0.9958	0.5525	-0.463
Mof_O 	O 	0.9015	0.8035	0.2705	-0.365
Mof_O 	O 	0.9756	0.8019	0.3356	-0.392
Mof_O 	O 	0.5072	0.8008	0.2932	-0.407
Mof_O 	O 	0.5815	0.8026	0.2304	-0.383
Mof_O 	O 	0.5269	0.1992	0.1676	-0.396
Mof_O 	O 	0.6014	0.1978	0.2306	-0.406
Mof_O 	O 	0.923	0.1998	0.2705	-0.416
Mof_O 	O 	0.9924	0.2013	0.2063	-0.401
Mof_O 	O 	0.516	0.0658	0.0506	-0.431
Mof_O 	O 	0.9874	0.9372	0.4489	-0.402
Mof_O 	O 	0.9128	0.9969	0.4482	-0.399
Mof_O 	O 	0.8341	0.0719	0.0462	-0.46
Mof_O 	O 	0.8975	0.1457	0.0471	-0.258
Mof_O 	O 	0.6844	0.9095	0.4544	-0.247
Mof_O 	O 	0.5771	0.8768	0.4516	-0.43
Mof_O 	O 	0.5859	0.0042	0.0525	-0.463
Mof_O 	O 	0.5985	0.3035	0.7705	-0.365
Mof_O 	O 	0.5244	0.3019	0.8356	-0.392
Mof_O 	O 	0.9928	0.3008	0.7932	-0.407
Mof_O 	O 	0.9185	0.3026	0.7304	-0.383
Mof_O 	O 	0.9731	0.6992	0.6676	-0.396
Mof_O 	O 	0.8986	0.6978	0.7306	-0.406
Mof_O 	O 	0.577	0.6998	0.7705	-0.416
Mof_O 	O 	0.5076	0.7013	0.7063	-0.4
Mof_O 	O 	0.984	0.5658	0.5506	-0.431
Mof_O 	O 	0.5126	0.4372	0.9489	-0.402
Mof_O 	O 	0.5872	0.4969	0.9482	-0.399
Mof_O 	O 	0.6659	0.5719	0.5462	-0.459
Mof_O 	O 	0.6025	0.6457	0.5471	-0.258
Mof_O 	O 	0.8156	0.4095	0.9544	-0.247
Mof_O 	O 	0.9229	0.3768	0.9516	-0.43
Mof_O 	O 	0.9141	0.5042	0.5525	-0.463
Mof_O 	O 	0.9015	0.6965	0.2705	-0.365
Mof_O 	O 	0.9756	0.6981	0.3356	-0.392
Mof_O 	O 	0.5072	0.6992	0.2932	-0.407
Mof_O 	O 	0.5815	0.6974	0.2304	-0.383
Mof_O 	O 	0.5269	0.3008	0.1676	-0.396
Mof_O 	O 	0.6014	0.3022	0.2306	-0.406
Mof_O 	O 	0.923	0.3002	0.2705	-0.416
Mof_O 	O 	0.9924	0.2987	0.2063	-0.401
Mof_O 	O 	0.516	0.4342	0.0506	-0.431
Mof_O 	O 	0.9874	0.5628	0.4489	-0.402
Mof_O 	O 	0.9128	0.5031	0.4482	-0.399
Mof_O 	O 	0.8341	0.4281	0.0462	-0.459
Mof_O 	O 	0.8975	0.3543	0.0471	-0.258
Mof_O 	O 	0.6844	0.5905	0.4544	-0.247
Mof_O 	O 	0.5771	0.6232	0.4516	-0.43
Mof_O 	O 	0.5859	0.4958	0.0525	-0.463
Mof_O 	O 	0.4015	0.8035	0.2295	-0.365
Mof_O 	O 	0.4756	0.8019	0.1644	-0.392
Mof_O 	O 	0.0072	0.8008	0.2068	-0.408
Mof_O 	O 	0.0815	0.8026	0.2696	-0.383
Mof_O 	O 	0.0269	0.1992	0.3324	-0.396
Mof_O 	O 	0.1014	0.1978	0.2694	-0.406
Mof_O 	O 	0.423	0.1998	0.2295	-0.416
Mof_O 	O 	0.4924	0.2013	0.2937	-0.4
Mof_O 	O 	0.016	0.0658	0.4494	-0.431
Mof_O 	O 	0.4874	0.9372	0.0511	-0.402
Mof_O 	O 	0.4128	0.9969	0.0518	-0.399
Mof_O 	O 	0.3341	0.0719	0.4538	-0.459
Mof_O 	O 	0.3975	0.1457	0.4529	-0.258
Mof_O 	O 	0.1844	0.9095	0.0456	-0.247
Mof_O 	O 	0.0771	0.8768	0.0484	-0.43
Mof_O 	O 	0.0859	0.0042	0.4475	-0.463
Mof_O 	O 	0.0985	0.1965	0.7295	-0.365
Mof_O 	O 	0.0244	0.1981	0.6644	-0.392
Mof_O 	O 	0.4928	0.1992	0.7068	-0.407
Mof_O 	O 	0.4185	0.1974	0.7696	-0.383
Mof_O 	O 	0.4731	0.8008	0.8324	-0.396
Mof_O 	O 	0.3986	0.8022	0.7694	-0.406
Mof_O 	O 	0.077	0.8002	0.7295	-0.416
Mof_O 	O 	0.0076	0.7987	0.7937	-0.401
Mof_O 	O 	0.484	0.9342	0.9494	-0.431
Mof_O 	O 	0.0126	0.0628	0.5511	-0.402
Mof_O 	O 	0.0872	0.0031	0.5518	-0.399
Mof_O 	O 	0.1659	0.9281	0.9538	-0.46
Mof_O 	O 	0.1025	0.8543	0.9529	-0.258
Mof_O 	O 	0.3156	0.0905	0.5456	-0.247
Mof_O 	O 	0.4229	0.1232	0.5484	-0.43
Mof_O 	O 	0.4141	0.9958	0.9475	-0.463
_end
