data_functionalizedCrystal
_audit_creation_method	'EQeq! by Chris Wilmer'
_symmetry_space_group_name_H-M	'P1'
_symmetry_Int_Tables_number	1
_symmetry_cell_setting	triclinic
loop_
_symmetry_equiv_pos_as_xyz
  x,y,z
_cell_length_a	10.0476
_cell_length_b	14.9869
_cell_length_c	22.2426
_cell_angle_alpha	90
_cell_angle_beta	90
_cell_angle_gamma	107.586
loop_
_atom_site_label
_atom_site_type_symbol
_atom_site_fract_x
_atom_site_fract_y
_atom_site_fract_z
_atom_site_charge
Mof_Er	Er	0.0262	0.49739	0.1414	1.833
Mof_Er	Er	0.41716	0.24684	0.15621	1.887
Mof_Er	Er	0.24157	0.90742	0.01384	1.487
Mof_Er	Er	0.4738	0.00261	0.6414	1.836
Mof_Er	Er	0.08284	0.25316	0.65621	1.886
Mof_Er	Er	0.25843	0.59258	0.51384	1.498
Mof_Er	Er	0.9738	0.50261	0.8586	1.834
Mof_Er	Er	0.58284	0.75316	0.84379	1.888
Mof_Er	Er	0.75843	0.09258	0.98616	1.487
Mof_Er	Er	0.5262	0.99739	0.3586	1.836
Mof_Er	Er	0.91716	0.74684	0.34379	1.886
Mof_Er	Er	0.74157	0.40742	0.48616	1.498
Mof_P 	P 	0.4506	0.15444	0.00861	0.58
Mof_P 	P 	0.0494	0.34556	0.50861	0.575
Mof_P 	P 	0.5494	0.84556	0.99139	0.58
Mof_P 	P 	0.9506	0.65444	0.49139	0.575
Mof_H 	H 	0.3701	0.3173	0.0105	0.109
Mof_H 	H 	0.2542	0.1779	0.9628	0.1
Mof_H 	H 	0.3787	0.2018	0.9171	0.112
Mof_H 	H 	0.5881	0.3421	0.9732	0.147
Mof_H 	H 	0.5332	0.3637	0.9106	0.135
Mof_H 	H 	0.5372	0.4305	0.9653	0.147
Mof_H 	H 	0.1799	0.3101	0.9514	0.147
Mof_H 	H 	0.2861	0.4112	0.9518	0.168
Mof_H 	H 	0.2816	0.3445	0.897	0.168
Mof_H 	H 	0.1299	0.1827	0.5105	0.107
Mof_H 	H 	0.2458	0.3221	0.4628	0.101
Mof_H 	H 	0.1213	0.2982	0.4171	0.111
Mof_H 	H 	0.9119	0.1579	0.4732	0.148
Mof_H 	H 	0.9668	0.1363	0.4106	0.136
Mof_H 	H 	0.9628	0.0695	0.4653	0.148
Mof_H 	H 	0.3201	0.1899	0.4514	0.147
Mof_H 	H 	0.2139	0.0888	0.4518	0.166
Mof_H 	H 	0.2184	0.1555	0.397	0.167
Mof_H 	H 	0.6299	0.6827	0.9895	0.109
Mof_H 	H 	0.7458	0.8221	0.0372	0.1
Mof_H 	H 	0.6213	0.7982	0.0829	0.112
Mof_H 	H 	0.4119	0.6579	0.0268	0.147
Mof_H 	H 	0.4668	0.6363	0.0894	0.135
Mof_H 	H 	0.4628	0.5695	0.0347	0.147
Mof_H 	H 	0.8201	0.6899	0.0486	0.147
Mof_H 	H 	0.7139	0.5888	0.0482	0.168
Mof_H 	H 	0.7184	0.6555	0.103	0.168
Mof_H 	H 	0.8701	0.8173	0.4895	0.107
Mof_H 	H 	0.7542	0.6779	0.5372	0.101
Mof_H 	H 	0.8787	0.7018	0.5829	0.111
Mof_H 	H 	0.0881	0.8421	0.5268	0.148
Mof_H 	H 	0.0332	0.8637	0.5894	0.136
Mof_H 	H 	0.0372	0.9305	0.5347	0.148
Mof_H 	H 	0.6799	0.8101	0.5486	0.147
Mof_H 	H 	0.7861	0.9112	0.5482	0.166
Mof_H 	H 	0.7816	0.8445	0.603	0.167
Mof_C 	C 	0.2184	0.3707	0.1812	0.258
Mof_C 	C 	0.2399	0.3819	0.1125	0.259
Mof_C 	C 	0.9743	0.664	0.2191	0.26
Mof_C 	C 	0.9526	0.5807	0.2636	0.266
Mof_C 	C 	0.7481	0.3304	0.1619	0.25
Mof_C 	C 	0.6981	0.4161	0.1502	0.281
Mof_C 	C 	0.9557	0.448	0.9989	0.262
Mof_C 	C 	0.9904	0.9991	0.0351	0.247
Mof_C 	C 	0.3532	0.2098	0.9584	-0.254
Mof_C 	C 	0.5218	0.3666	0.9534	-0.364
Mof_C 	C 	0.2719	0.3474	0.9398	-0.398
Mof_C 	C 	0.2816	0.1293	0.6812	0.257
Mof_C 	C 	0.2601	0.1181	0.6125	0.259
Mof_C 	C 	0.5257	0.836	0.7191	0.259
Mof_C 	C 	0.5474	0.9193	0.7636	0.266
Mof_C 	C 	0.7519	0.1696	0.6619	0.251
Mof_C 	C 	0.8019	0.0839	0.6502	0.28
Mof_C 	C 	0.5443	0.052	0.4989	0.265
Mof_C 	C 	0.5096	0.5009	0.5351	0.258
Mof_C 	C 	0.1468	0.2902	0.4584	-0.251
Mof_C 	C 	0.9782	0.1334	0.4534	-0.361
Mof_C 	C 	0.2281	0.1526	0.4398	-0.396
Mof_C 	C 	0.7816	0.6293	0.8188	0.258
Mof_C 	C 	0.7601	0.6181	0.8875	0.259
Mof_C 	C 	0.0257	0.336	0.7809	0.26
Mof_C 	C 	0.0474	0.4193	0.7364	0.266
Mof_C 	C 	0.2519	0.6696	0.8381	0.25
Mof_C 	C 	0.3019	0.5839	0.8498	0.281
Mof_C 	C 	0.0443	0.552	0.0011	0.262
Mof_C 	C 	0.0096	0.0009	0.9649	0.247
Mof_C 	C 	0.6468	0.7902	0.0416	-0.254
Mof_C 	C 	0.4782	0.6334	0.0466	-0.364
Mof_C 	C 	0.7281	0.6526	0.0602	-0.398
Mof_C 	C 	0.7184	0.8707	0.3188	0.257
Mof_C 	C 	0.7399	0.8819	0.3875	0.259
Mof_C 	C 	0.4743	0.164	0.2809	0.259
Mof_C 	C 	0.4526	0.0807	0.2364	0.266
Mof_C 	C 	0.2481	0.8304	0.3381	0.251
Mof_C 	C 	0.1981	0.9161	0.3498	0.28
Mof_C 	C 	0.4557	0.948	0.5011	0.265
Mof_C 	C 	0.4904	0.4991	0.4649	0.258
Mof_C 	C 	0.8532	0.7098	0.5416	-0.251
Mof_C 	C 	0.0218	0.8666	0.5466	-0.361
Mof_C 	C 	0.7719	0.8474	0.5602	-0.396
Mof_N 	N 	0.3789	0.3105	0.9702	-0.049
Mof_N 	N 	0.1211	0.1895	0.4702	-0.05
Mof_N 	N 	0.6211	0.6895	0.0298	-0.049
Mof_N 	N 	0.8789	0.8105	0.5298	-0.05
Mof_O 	O 	0.2787	0.3205	0.2084	-0.422
Mof_O 	O 	0.1419	0.4144	0.2039	-0.39
Mof_O 	O 	0.186	0.4353	0.0866	-0.418
Mof_O 	O 	0.3134	0.3351	0.0903	-0.415
Mof_O 	O 	0.9518	0.7366	0.2385	-0.402
Mof_O 	O 	0.0108	0.6507	0.1671	-0.41
Mof_O 	O 	0.92	0.5959	0.317	-0.438
Mof_O 	O 	0.9701	0.5076	0.2444	-0.397
Mof_O 	O 	0.5673	0.4008	0.1524	-0.415
Mof_O 	O 	0.7869	0.4911	0.1396	-0.411
Mof_O 	O 	0.6568	0.2528	0.1673	-0.397
Mof_O 	O 	0.8779	0.345	0.1659	-0.379
Mof_O 	O 	0.9179	0.4091	0.048	-0.372
Mof_O 	O 	0.9295	0.4119	0.9472	-0.434
Mof_O 	O 	0.0669	0.963	0.0644	-0.406
Mof_O 	O 	0.9044	0.0356	0.0549	-0.394
Mof_O 	O 	0.3566	0.0562	0.016	-0.516
Mof_O 	O 	0.5887	0.1609	0.9799	-0.506
Mof_O 	O 	0.4684	0.2104	0.0657	-0.517
Mof_O 	O 	0.2213	0.1795	0.7084	-0.422
Mof_O 	O 	0.3581	0.0856	0.7039	-0.39
Mof_O 	O 	0.314	0.0647	0.5866	-0.418
Mof_O 	O 	0.1866	0.1649	0.5903	-0.416
Mof_O 	O 	0.5482	0.7634	0.7385	-0.401
Mof_O 	O 	0.4892	0.8493	0.6671	-0.408
Mof_O 	O 	0.58	0.9041	0.817	-0.438
Mof_O 	O 	0.5299	0.9924	0.7444	-0.397
Mof_O 	O 	0.9327	0.0992	0.6524	-0.414
Mof_O 	O 	0.7131	0.0089	0.6396	-0.412
Mof_O 	O 	0.8432	0.2472	0.6673	-0.398
Mof_O 	O 	0.6221	0.155	0.6659	-0.382
Mof_O 	O 	0.5821	0.0909	0.548	-0.378
Mof_O 	O 	0.5705	0.0881	0.4472	-0.434
Mof_O 	O 	0.4331	0.537	0.5644	-0.408
Mof_O 	O 	0.5956	0.4644	0.5549	-0.408
Mof_O 	O 	0.1434	0.4438	0.516	-0.518
Mof_O 	O 	0.9113	0.3391	0.4799	-0.503
Mof_O 	O 	0.0316	0.2896	0.5657	-0.518
Mof_O 	O 	0.7213	0.6795	0.7916	-0.422
Mof_O 	O 	0.8581	0.5856	0.7961	-0.39
Mof_O 	O 	0.814	0.5647	0.9134	-0.418
Mof_O 	O 	0.6866	0.6649	0.9097	-0.415
Mof_O 	O 	0.0482	0.2634	0.7615	-0.402
Mof_O 	O 	0.9892	0.3493	0.8329	-0.41
Mof_O 	O 	0.08	0.4041	0.683	-0.438
Mof_O 	O 	0.0299	0.4924	0.7556	-0.397
Mof_O 	O 	0.4327	0.5992	0.8476	-0.415
Mof_O 	O 	0.2131	0.5089	0.8604	-0.411
Mof_O 	O 	0.3432	0.7472	0.8327	-0.397
Mof_O 	O 	0.1221	0.655	0.8341	-0.379
Mof_O 	O 	0.0821	0.5909	0.952	-0.372
Mof_O 	O 	0.0705	0.5881	0.0528	-0.434
Mof_O 	O 	0.9331	0.037	0.9356	-0.406
Mof_O 	O 	0.0956	0.9644	0.9451	-0.394
Mof_O 	O 	0.6434	0.9438	0.984	-0.516
Mof_O 	O 	0.4113	0.8391	0.0201	-0.506
Mof_O 	O 	0.5316	0.7896	0.9343	-0.517
Mof_O 	O 	0.7787	0.8205	0.2916	-0.422
Mof_O 	O 	0.6419	0.9144	0.2961	-0.39
Mof_O 	O 	0.686	0.9353	0.4134	-0.418
Mof_O 	O 	0.8134	0.8351	0.4097	-0.416
Mof_O 	O 	0.4518	0.2366	0.2615	-0.401
Mof_O 	O 	0.5108	0.1507	0.3329	-0.408
Mof_O 	O 	0.42	0.0959	0.183	-0.438
Mof_O 	O 	0.4701	0.0076	0.2556	-0.397
Mof_O 	O 	0.0673	0.9008	0.3476	-0.414
Mof_O 	O 	0.2869	0.9911	0.3604	-0.412
Mof_O 	O 	0.1568	0.7528	0.3327	-0.398
Mof_O 	O 	0.3779	0.845	0.3341	-0.382
Mof_O 	O 	0.4179	0.9091	0.452	-0.378
Mof_O 	O 	0.4295	0.9119	0.5528	-0.434
Mof_O 	O 	0.5669	0.463	0.4356	-0.408
Mof_O 	O 	0.4044	0.5356	0.4451	-0.408
Mof_O 	O 	0.8566	0.5562	0.484	-0.518
Mof_O 	O 	0.0887	0.6609	0.5201	-0.503
Mof_O 	O 	0.9684	0.7104	0.4343	-0.518
_end
