data_functionalizedCrystal
_audit_creation_method	'EQeq! by Chris Wilmer'
_symmetry_space_group_name_H-M	'P1'
_symmetry_Int_Tables_number	1
_symmetry_cell_setting	triclinic
loop_
_symmetry_equiv_pos_as_xyz
  x,y,z
_cell_length_a	17.765
_cell_length_b	17.765
_cell_length_c	7.567
_cell_angle_alpha	90
_cell_angle_beta	90
_cell_angle_gamma	90
loop_
_atom_site_label
_atom_site_type_symbol
_atom_site_fract_x
_atom_site_fract_y
_atom_site_fract_z
_atom_site_charge
Mof_N 	N 	0.5003	0.0922	0.5862	-0.257
Mof_C 	C 	0.5514	0.1468	0.5879	0.114
Mof_H 	H 	0.5869	0.147	0.6782	-0.026
Mof_C 	C 	0.5547	0.2037	0.4617	-0.213
Mof_H 	H 	0.5898	0.2424	0.4703	0.106
Mof_C 	C 	0.5043	0.2009	0.3239	0.175
Mof_C 	C 	0.4502	0.1455	0.3241	-0.213
Mof_H 	H 	0.4158	0.1424	0.2318	0.107
Mof_C 	C 	0.4472	0.0947	0.4615	0.108
Mof_H 	H 	0.407	0.0613	0.4677	-0.035
Mof_N 	N 	0.5126	0.2608	0.1963	-0.11
Mof_N 	N 	0.4901	0.24	0.0479	-0.123
Mof_C 	C 	0.5496	0.408	0.7977	0.141
Mof_H 	H 	0.5824	0.4483	0.8131	-0.029
Mof_C 	C 	0.5535	0.3493	0.914	-0.24
Mof_H 	H 	0.5938	0.3446	0.9917	0.13
Mof_C 	C 	0.4963	0.2979	0.9128	0.212
Mof_C 	C 	0.4431	0.301	0.7821	-0.239
Mof_H 	H 	0.4046	0.2656	0.7767	0.118
Mof_C 	C 	0.4482	0.3574	0.6596	0.135
Mof_H 	H 	0.4129	0.3591	0.5689	-0.034
Mof_N 	N 	0.5018	0.4103	0.665	-0.265
Mof_N 	N 	0.0003	0.5922	0.0862	-0.281
Mof_C 	C 	0.0514	0.6468	0.0879	0.054
Mof_H 	H 	0.0869	0.647	0.1782	-0.013
Mof_C 	C 	0.0547	0.7037	0.9617	-0.149
Mof_H 	H 	0.0898	0.7424	0.9703	0.088
Mof_C 	C 	0.0043	0.7009	0.8239	0.103
Mof_C 	C 	0.9502	0.6455	0.8241	-0.144
Mof_H 	H 	0.9158	0.6424	0.7318	0.097
Mof_C 	C 	0.9472	0.5947	0.9615	0.15
Mof_H 	H 	0.907	0.5613	0.9677	-0.027
Mof_N 	N 	0.0126	0.7608	0.6963	-0.12
Mof_N 	N 	0.9901	0.74	0.5479	-0.098
Mof_C 	C 	0.0496	0.908	0.2977	0.181
Mof_H 	H 	0.0824	0.9483	0.3131	-0.038
Mof_C 	C 	0.0535	0.8493	0.414	-0.344
Mof_H 	H 	0.0938	0.8446	0.4917	0.154
Mof_C 	C 	0.9963	0.7979	0.4128	0.291
Mof_C 	C 	0.9431	0.801	0.2821	-0.304
Mof_H 	H 	0.9046	0.7656	0.2767	0.141
Mof_C 	C 	0.9482	0.8574	0.1596	0.22
Mof_H 	H 	0.9129	0.8591	0.0689	-0.058
Mof_N 	N 	0.0018	0.9103	0.165	-0.303
Mof_N 	N 	0.4997	0.9078	0.5862	-0.242
Mof_C 	C 	0.4486	0.8532	0.5879	0.118
Mof_H 	H 	0.4131	0.853	0.6782	-0.02
Mof_C 	C 	0.4453	0.7963	0.4617	-0.21
Mof_H 	H 	0.4102	0.7576	0.4703	0.106
Mof_C 	C 	0.4957	0.7991	0.3239	0.174
Mof_C 	C 	0.5498	0.8545	0.3241	-0.205
Mof_H 	H 	0.5842	0.8576	0.2318	0.11
Mof_C 	C 	0.5528	0.9053	0.4615	0.111
Mof_H 	H 	0.593	0.9387	0.4677	-0.013
Mof_N 	N 	0.4874	0.7392	0.1963	-0.11
Mof_N 	N 	0.5099	0.76	0.0479	-0.122
Mof_C 	C 	0.4504	0.592	0.7977	0.141
Mof_H 	H 	0.4176	0.5517	0.8131	-0.029
Mof_C 	C 	0.4465	0.6507	0.914	-0.24
Mof_H 	H 	0.4062	0.6554	0.9917	0.13
Mof_C 	C 	0.5037	0.7021	0.9128	0.212
Mof_C 	C 	0.5569	0.699	0.7821	-0.24
Mof_H 	H 	0.5954	0.7344	0.7767	0.12
Mof_C 	C 	0.5518	0.6426	0.6596	0.135
Mof_H 	H 	0.5871	0.6409	0.5689	-0.034
Mof_N 	N 	0.4982	0.5897	0.665	-0.265
Mof_N 	N 	0.9997	0.4078	0.0862	-0.233
Mof_C 	C 	0.9486	0.3532	0.0879	0.108
Mof_H 	H 	0.9131	0.353	0.1782	-0.021
Mof_C 	C 	0.9453	0.2963	0.9617	-0.204
Mof_H 	H 	0.9102	0.2576	0.9703	0.113
Mof_C 	C 	0.9957	0.2991	0.8239	0.238
Mof_C 	C 	0.0498	0.3545	0.8241	-0.278
Mof_H 	H 	0.0842	0.3576	0.7318	0.129
Mof_C 	C 	0.0528	0.4053	0.9615	0.109
Mof_H 	H 	0.093	0.4387	0.9677	-0.023
Mof_N 	N 	0.9874	0.2392	0.6963	-0.088
Mof_N 	N 	0.0099	0.26	0.5479	-0.122
Mof_C 	C 	0.9504	0.092	0.2977	0.078
Mof_H 	H 	0.9176	0.0517	0.3131	-0.019
Mof_C 	C 	0.9465	0.1507	0.414	-0.108
Mof_H 	H 	0.9062	0.1554	0.4917	0.082
Mof_C 	C 	0.0037	0.2021	0.4128	0.08
Mof_C 	C 	0.0569	0.199	0.2821	-0.15
Mof_H 	H 	0.0954	0.2344	0.2767	0.077
Mof_C 	C 	0.0518	0.1426	0.1596	0.023
Mof_H 	H 	0.0871	0.1409	0.0689	-0.012
Mof_N 	N 	0.9982	0.0897	0.165	-0.212
Mof_N 	N 	0.0922	0.4997	0.4138	-0.26
Mof_C 	C 	0.1468	0.4486	0.4121	0.116
Mof_H 	H 	0.147	0.4131	0.3218	-0.032
Mof_C 	C 	0.2037	0.4453	0.5383	-0.216
Mof_H 	H 	0.2424	0.4102	0.5297	0.108
Mof_C 	C 	0.2009	0.4957	0.6761	0.18
Mof_C 	C 	0.1455	0.5498	0.6759	-0.217
Mof_H 	H 	0.1424	0.5842	0.7682	0.114
Mof_C 	C 	0.0947	0.5528	0.5385	0.11
Mof_H 	H 	0.0613	0.593	0.5323	-0.036
Mof_N 	N 	0.2608	0.4874	0.8037	-0.105
Mof_N 	N 	0.24	0.5099	0.9521	-0.097
Mof_C 	C 	0.408	0.4504	0.2023	0.123
Mof_H 	H 	0.4483	0.4176	0.1869	-0.031
Mof_C 	C 	0.3493	0.4465	0.086	-0.218
Mof_H 	H 	0.3446	0.4062	0.0083	0.107
Mof_C 	C 	0.2979	0.5037	0.0872	0.164
Mof_C 	C 	0.301	0.5569	0.2179	-0.216
Mof_H 	H 	0.2656	0.5954	0.2233	0.102
Mof_C 	C 	0.3574	0.5518	0.3404	0.117
Mof_H 	H 	0.3591	0.5871	0.4311	-0.029
Mof_N 	N 	0.4103	0.4982	0.335	-0.259
Mof_N 	N 	0.5922	0.9997	0.9138	-0.222
Mof_C 	C 	0.6468	0.9486	0.9121	0.176
Mof_H 	H 	0.647	0.9131	0.8218	-0.037
Mof_C 	C 	0.7037	0.9453	0.0383	-0.273
Mof_H 	H 	0.7424	0.9102	0.0297	0.128
Mof_C 	C 	0.7009	0.9957	0.1761	0.253
Mof_C 	C 	0.6455	0.0498	0.1759	-0.281
Mof_H 	H 	0.6424	0.0842	0.2682	0.128
Mof_C 	C 	0.5947	0.0528	0.0385	0.072
Mof_H 	H 	0.5613	0.093	0.0323	-0.022
Mof_N 	N 	0.7608	0.9874	0.3037	-0.093
Mof_N 	N 	0.74	0.0099	0.4521	-0.122
Mof_C 	C 	0.908	0.9504	0.7023	0.084
Mof_H 	H 	0.9483	0.9176	0.6869	0.009
Mof_C 	C 	0.8493	0.9465	0.586	-0.105
Mof_H 	H 	0.8446	0.9062	0.5083	0.085
Mof_C 	C 	0.7979	0.0037	0.5872	0.085
Mof_C 	C 	0.801	0.0569	0.7179	-0.147
Mof_H 	H 	0.7656	0.0954	0.7233	0.082
Mof_C 	C 	0.8574	0.0518	0.8404	0.036
Mof_H 	H 	0.8591	0.0871	0.9311	0.003
Mof_N 	N 	0.9103	0.9982	0.835	-0.192
Mof_N 	N 	0.9078	0.5003	0.4138	-0.244
Mof_C 	C 	0.8532	0.5514	0.4121	0.119
Mof_H 	H 	0.853	0.5869	0.3218	-0.025
Mof_C 	C 	0.7963	0.5547	0.5383	-0.213
Mof_H 	H 	0.7576	0.5898	0.5297	0.108
Mof_C 	C 	0.7991	0.5043	0.6761	0.179
Mof_C 	C 	0.8545	0.4502	0.6759	-0.208
Mof_H 	H 	0.8576	0.4158	0.7682	0.116
Mof_C 	C 	0.9053	0.4472	0.5385	0.113
Mof_H 	H 	0.9387	0.407	0.5323	-0.014
Mof_N 	N 	0.7392	0.5126	0.8037	-0.105
Mof_N 	N 	0.76	0.4901	0.9521	-0.097
Mof_C 	C 	0.592	0.5496	0.2023	0.124
Mof_H 	H 	0.5517	0.5824	0.1869	-0.031
Mof_C 	C 	0.6507	0.5535	0.086	-0.219
Mof_H 	H 	0.6554	0.5938	0.0083	0.109
Mof_C 	C 	0.7021	0.4963	0.0872	0.167
Mof_C 	C 	0.699	0.4431	0.2179	-0.218
Mof_H 	H 	0.7344	0.4046	0.2233	0.104
Mof_C 	C 	0.6426	0.4482	0.3404	0.118
Mof_H 	H 	0.6409	0.4129	0.4311	-0.029
Mof_N 	N 	0.5897	0.5018	0.335	-0.26
Mof_N 	N 	0.4078	0.0003	0.9138	-0.269
Mof_C 	C 	0.3532	0.0514	0.9121	0.128
Mof_H 	H 	0.353	0.0869	0.8218	-0.032
Mof_C 	C 	0.2963	0.0547	0.0383	-0.223
Mof_H 	H 	0.2576	0.0898	0.0297	0.099
Mof_C 	C 	0.2991	0.0043	0.1761	0.114
Mof_C 	C 	0.3545	0.9502	0.1759	-0.141
Mof_H 	H 	0.3576	0.9158	0.2682	0.094
Mof_C 	C 	0.4053	0.9472	0.0385	0.112
Mof_H 	H 	0.4387	0.907	0.0323	-0.025
Mof_N 	N 	0.2392	0.0126	0.3037	-0.127
Mof_N 	N 	0.26	0.9901	0.4521	-0.098
Mof_C 	C 	0.092	0.0496	0.7023	0.186
Mof_H 	H 	0.0517	0.0824	0.6869	-0.064
Mof_C 	C 	0.1507	0.0535	0.586	-0.356
Mof_H 	H 	0.1554	0.0938	0.5083	0.155
Mof_C 	C 	0.2021	0.9963	0.5872	0.299
Mof_C 	C 	0.199	0.9431	0.7179	-0.309
Mof_H 	H 	0.2344	0.9046	0.7233	0.145
Mof_C 	C 	0.1426	0.9482	0.8404	0.225
Mof_H 	H 	0.1409	0.9129	0.9311	-0.053
Mof_N 	N 	0.0897	0.0018	0.835	-0.313
Mof_Cu	Cu	0.5	2.64263e-33	0.75	0.835
Mof_Cu	Cu	9.64847e-33	0.5	0.25	0.83
Mof_Cu	Cu	0.5	0.5	0.5	0.857
Mof_Cu	Cu	-0	0	-0	0.809
_end
