data_functionalizedCrystal
_audit_creation_method	'EQeq! by Chris Wilmer'
_symmetry_space_group_name_H-M	'P1'
_symmetry_Int_Tables_number	1
_symmetry_cell_setting	triclinic
loop_
_symmetry_equiv_pos_as_xyz
  x,y,z
_cell_length_a	12.726
_cell_length_b	8.057
_cell_length_c	13.505
_cell_angle_alpha	89.958
_cell_angle_beta	90.123
_cell_angle_gamma	89.928
loop_
_atom_site_label
_atom_site_type_symbol
_atom_site_fract_x
_atom_site_fract_y
_atom_site_fract_z
_atom_site_charge
Mof_Cu	Cu	0.75001	0.25119	0.25004	0.856
Mof_C 	C 	0.849	0.6597	0.0771	-0.187
Mof_H 	H 	0.8123	0.7413	0.0426	0.104
Mof_C 	C 	0.9542	0.6706	0.0866	0.133
Mof_C 	C 	0.9462	0.4161	0.1765	0.123
Mof_H 	H 	0.9816	0.33	0.2082	-0.029
Mof_C 	C 	0.0039	0.5421	0.1383	-0.2
Mof_H 	H 	0.0764	0.5431	0.1465	0.098
Mof_C 	C 	0.7952	0.5275	0.1185	0.097
Mof_H 	H 	0.7229	0.521	0.1093	-0.019
Mof_C 	C 	0.5858	0.8305	0.0515	0.136
Mof_C 	C 	0.6388	0.9594	0.0075	-0.193
Mof_H 	H 	0.6488	0.9614	0.9393	0.096
Mof_C 	C 	0.6773	0.0862	0.0664	0.112
Mof_H 	H 	0.714	0.1717	0.0358	-0.026
Mof_C 	C 	0.5721	0.8376	0.1522	-0.193
Mof_H 	H 	0.5369	0.7528	0.185	0.105
Mof_C 	C 	0.6108	0.9706	0.2043	0.107
Mof_H 	H 	0.5985	0.9752	0.2721	-0.021
Mof_N 	N 	0.8433	0.4086	0.1714	-0.254
Mof_N 	N 	0.6651	0.093	0.1628	-0.254
Mof_C 	C 	0.5449	0.6687	0.4127	0.144
Mof_C 	C 	0.651	0.6592	0.423	-0.193
Mof_H 	H 	0.6872	0.7412	0.4576	0.106
Mof_C 	C 	0.4966	0.5431	0.3624	-0.212
Mof_H 	H 	0.4239	0.5441	0.3548	0.102
Mof_C 	C 	0.5537	0.4167	0.3235	0.13
Mof_H 	H 	0.5182	0.332	0.2908	-0.031
Mof_C 	C 	0.7048	0.528	0.3822	0.101
Mof_H 	H 	0.7771	0.5218	0.3912	-0.02
Mof_N 	N 	0.6564	0.4081	0.3298	-0.254
Mof_N 	N 	0.8346	0.0924	0.3371	-0.255
Mof_C 	C 	0.9139	0.8306	0.4485	0.137
Mof_C 	C 	0.8617	0.9579	0.4922	-0.196
Mof_H 	H 	0.852	0.9587	0.5605	0.097
Mof_C 	C 	0.8228	0.0875	0.4343	0.11
Mof_H 	H 	0.7871	0.1738	0.4652	-0.025
Mof_C 	C 	0.9282	0.8391	0.3472	-0.198
Mof_H 	H 	0.9641	0.7552	0.3142	0.106
Mof_C 	C 	0.8892	0.9715	0.2962	0.116
Mof_H 	H 	0.9017	0.9768	0.2285	-0.025
Mof_C 	C 	0.9496	0.6902	0.5085	-0.062
Mof_H 	H 	0.9473	0.6956	0.5773	0.058
Mof_C 	C 	0.0128	0.812	0.0468	-0.059
Mof_H 	H 	0.0856	0.8063	0.0421	0.058
Mof_C 	C 	0.4872	0.8119	0.4522	-0.064
Mof_H 	H 	0.4143	0.8081	0.4549	0.059
Mof_N 	N 	0.5342	0.9398	0.4824	-0.078
Mof_N 	N 	0.9654	0.9412	0.0188	-0.079
Mof_C 	C 	0.5493	0.6922	0.9921	-0.065
Mof_H 	H 	0.5494	0.7	0.9234	0.059
Mof_N 	N 	0.5168	0.5595	0.0342	-0.078
Mof_N 	N 	0.9837	0.5609	0.4655	-0.079
Mof_Cu	Cu	0.24999	0.74881	0.74996	0.855
Mof_C 	C 	0.151	0.3403	0.9229	-0.188
Mof_H 	H 	0.1877	0.2587	0.9574	0.104
Mof_C 	C 	0.0458	0.3294	0.9134	0.133
Mof_C 	C 	0.0538	0.5839	0.8235	0.123
Mof_H 	H 	0.0184	0.67	0.7918	-0.029
Mof_C 	C 	0.9961	0.4579	0.8617	-0.2
Mof_H 	H 	0.9236	0.4569	0.8535	0.098
Mof_C 	C 	0.2048	0.4725	0.8815	0.097
Mof_H 	H 	0.2771	0.479	0.8907	-0.019
Mof_C 	C 	0.4142	0.1695	0.9485	0.136
Mof_C 	C 	0.3612	0.0406	0.9925	-0.193
Mof_H 	H 	0.3512	0.0386	0.0607	0.096
Mof_C 	C 	0.3227	0.9138	0.9336	0.112
Mof_H 	H 	0.286	0.8283	0.9642	-0.026
Mof_C 	C 	0.4279	0.1624	0.8478	-0.193
Mof_H 	H 	0.4631	0.2472	0.815	0.105
Mof_C 	C 	0.3892	0.0294	0.7957	0.107
Mof_H 	H 	0.4015	0.0248	0.7279	-0.021
Mof_N 	N 	0.1567	0.5914	0.8286	-0.254
Mof_N 	N 	0.3349	0.907	0.8372	-0.254
Mof_C 	C 	0.4551	0.3313	0.5873	0.144
Mof_C 	C 	0.349	0.3408	0.577	-0.193
Mof_H 	H 	0.3128	0.2588	0.5424	0.106
Mof_C 	C 	0.5034	0.4569	0.6376	-0.212
Mof_H 	H 	0.5761	0.4559	0.6452	0.102
Mof_C 	C 	0.4463	0.5833	0.6765	0.13
Mof_H 	H 	0.4818	0.668	0.7092	-0.031
Mof_C 	C 	0.2952	0.472	0.6178	0.101
Mof_H 	H 	0.2229	0.4782	0.6088	-0.02
Mof_N 	N 	0.3436	0.5919	0.6702	-0.254
Mof_N 	N 	0.1654	0.9076	0.6629	-0.255
Mof_C 	C 	0.0861	0.1694	0.5515	0.137
Mof_C 	C 	0.1383	0.0421	0.5078	-0.196
Mof_H 	H 	0.148	0.0413	0.4395	0.097
Mof_C 	C 	0.1772	0.9125	0.5657	0.11
Mof_H 	H 	0.2129	0.8262	0.5348	-0.025
Mof_C 	C 	0.0718	0.1609	0.6528	-0.198
Mof_H 	H 	0.0359	0.2448	0.6858	0.106
Mof_C 	C 	0.1108	0.0285	0.7038	0.116
Mof_H 	H 	0.0983	0.0232	0.7715	-0.025
Mof_C 	C 	0.0504	0.3098	0.4915	-0.062
Mof_H 	H 	0.0527	0.3044	0.4227	0.058
Mof_C 	C 	0.9872	0.188	0.9532	-0.059
Mof_H 	H 	0.9144	0.1937	0.9579	0.058
Mof_C 	C 	0.5128	0.1881	0.5478	-0.064
Mof_H 	H 	0.5857	0.1919	0.5451	0.059
Mof_N 	N 	0.4658	0.0602	0.5176	-0.078
Mof_N 	N 	0.0346	0.0588	0.9812	-0.079
Mof_C 	C 	0.4507	0.3078	0.0079	-0.065
Mof_H 	H 	0.4506	0.3	0.0766	0.059
Mof_N 	N 	0.4832	0.4405	0.9658	-0.078
Mof_N 	N 	0.0163	0.4391	0.5345	-0.079
_end
