data_functionalizedCrystal
_audit_creation_method	'EQeq! by Chris Wilmer'
_symmetry_space_group_name_H-M	'P1'
_symmetry_Int_Tables_number	1
_symmetry_cell_setting	triclinic
loop_
_symmetry_equiv_pos_as_xyz
  x,y,z
_cell_length_a	10.1382
_cell_length_b	12.9139
_cell_length_c	11.7341
_cell_angle_alpha	90
_cell_angle_beta	110.04
_cell_angle_gamma	90
loop_
_atom_site_label
_atom_site_type_symbol
_atom_site_fract_x
_atom_site_fract_y
_atom_site_fract_z
_atom_site_charge
Mof_Cd	Cd	0.78741	0.14601	0.22755	0.463
Mof_O 	O 	0.514	0.1784	0.1981	-0.237
Mof_O 	O 	0.6163	0.0287	0.1942	-0.248
Mof_O 	O 	0.0386	0.151	0.2526	-0.236
Mof_O 	O 	0.9118	0.0118	0.1873	-0.24
Mof_N 	N 	0.2315	0.7476	0.926	-0.113
Mof_N 	N 	0.2126	0.6441	0.9122	-0.032
Mof_N 	N 	0.1872	0.6067	0.0054	-0.028
Mof_N 	N 	0.1883	0.684	0.0823	-0.111
Mof_C 	C 	0.14	0.0136	0.174	-0.035
Mof_C 	C 	0.2649	0.068	0.1926	-0.009
Mof_H 	H 	0.2757	0.1336	0.2273	0.077
Mof_C 	C 	0.3723	0.0264	0.1604	-0.03
Mof_C 	C 	0.3567	0.9281	0.1081	-0.026
Mof_H 	H 	0.4291	0.899	0.0872	0.074
Mof_C 	C 	0.2324	0.874	0.0876	-0.007
Mof_C 	C 	0.1252	0.9166	0.121	-0.029
Mof_H 	H 	0.0426	0.8795	0.1077	0.073
Mof_C 	C 	0.0255	0.0611	0.2076	0.277
Mof_C 	C 	0.5091	0.0836	0.1846	0.29
Mof_C 	C 	0.2157	0.7702	0.0317	0.127
Mof_Cd	Cd	0.21259	0.64601	0.27245	0.463
Mof_O 	O 	0.486	0.6784	0.3019	-0.237
Mof_O 	O 	0.3837	0.5287	0.3058	-0.248
Mof_O 	O 	0.9614	0.651	0.2474	-0.236
Mof_O 	O 	0.0882	0.5118	0.3127	-0.242
Mof_N 	N 	0.7685	0.2476	0.574	-0.114
Mof_N 	N 	0.7874	0.1441	0.5878	-0.033
Mof_N 	N 	0.8128	0.1067	0.4946	-0.028
Mof_N 	N 	0.8117	0.184	0.4177	-0.111
Mof_C 	C 	0.86	0.5136	0.326	-0.037
Mof_C 	C 	0.7351	0.568	0.3074	-0.008
Mof_H 	H 	0.7243	0.6336	0.2727	0.076
Mof_C 	C 	0.6277	0.5264	0.3396	-0.032
Mof_C 	C 	0.6433	0.4281	0.3919	-0.023
Mof_H 	H 	0.5709	0.399	0.4128	0.073
Mof_C 	C 	0.7676	0.374	0.4124	-0.008
Mof_C 	C 	0.8748	0.4166	0.379	-0.027
Mof_H 	H 	0.9574	0.3795	0.3923	0.072
Mof_C 	C 	0.9745	0.5611	0.2924	0.28
Mof_C 	C 	0.4909	0.5836	0.3154	0.291
Mof_C 	C 	0.7843	0.2702	0.4683	0.129
Mof_Cd	Cd	0.21259	0.85399	0.77245	0.463
Mof_O 	O 	0.486	0.8216	0.8019	-0.237
Mof_O 	O 	0.3837	0.9713	0.8058	-0.248
Mof_O 	O 	0.9614	0.849	0.7474	-0.236
Mof_O 	O 	0.0882	0.9882	0.8127	-0.24
Mof_N 	N 	0.7685	0.2524	0.074	-0.113
Mof_N 	N 	0.7874	0.3559	0.0878	-0.032
Mof_N 	N 	0.8128	0.3933	0.9946	-0.028
Mof_N 	N 	0.8117	0.316	0.9177	-0.111
Mof_C 	C 	0.86	0.9864	0.826	-0.035
Mof_C 	C 	0.7351	0.932	0.8074	-0.009
Mof_H 	H 	0.7243	0.8664	0.7727	0.077
Mof_C 	C 	0.6277	0.9736	0.8396	-0.03
Mof_C 	C 	0.6433	0.0719	0.8919	-0.026
Mof_H 	H 	0.5709	0.101	0.9128	0.074
Mof_C 	C 	0.7676	0.126	0.9124	-0.007
Mof_C 	C 	0.8748	0.0834	0.879	-0.029
Mof_H 	H 	0.9574	0.1205	0.8923	0.073
Mof_C 	C 	0.9745	0.9389	0.7924	0.277
Mof_C 	C 	0.4909	0.9164	0.8154	0.29
Mof_C 	C 	0.7843	0.2298	0.9683	0.127
Mof_Cd	Cd	0.78741	0.35399	0.72755	0.463
Mof_O 	O 	0.514	0.3216	0.6981	-0.237
Mof_O 	O 	0.6163	0.4713	0.6942	-0.248
Mof_O 	O 	0.0386	0.349	0.7526	-0.236
Mof_O 	O 	0.9118	0.4882	0.6873	-0.242
Mof_N 	N 	0.2315	0.7524	0.426	-0.114
Mof_N 	N 	0.2126	0.8559	0.4122	-0.033
Mof_N 	N 	0.1872	0.8933	0.5054	-0.028
Mof_N 	N 	0.1883	0.816	0.5823	-0.111
Mof_C 	C 	0.14	0.4864	0.674	-0.037
Mof_C 	C 	0.2649	0.432	0.6926	-0.008
Mof_H 	H 	0.2757	0.3664	0.7273	0.076
Mof_C 	C 	0.3723	0.4736	0.6604	-0.032
Mof_C 	C 	0.3567	0.5719	0.6081	-0.023
Mof_H 	H 	0.4291	0.601	0.5872	0.073
Mof_C 	C 	0.2324	0.626	0.5876	-0.008
Mof_C 	C 	0.1252	0.5834	0.621	-0.027
Mof_H 	H 	0.0426	0.6205	0.6077	0.072
Mof_C 	C 	0.0255	0.4389	0.7076	0.28
Mof_C 	C 	0.5091	0.4164	0.6846	0.291
Mof_C 	C 	0.2157	0.7298	0.5317	0.129
_end
