data_functionalizedCrystal
_audit_creation_method	'EQeq! by Chris Wilmer'
_symmetry_space_group_name_H-M	'P1'
_symmetry_Int_Tables_number	1
_symmetry_cell_setting	triclinic
loop_
_symmetry_equiv_pos_as_xyz
  x,y,z
_cell_length_a	9.8555
_cell_length_b	10.705
_cell_length_c	11.106
_cell_angle_alpha	62.947
_cell_angle_beta	65.653
_cell_angle_gamma	66.647
loop_
_atom_site_label
_atom_site_type_symbol
_atom_site_fract_x
_atom_site_fract_y
_atom_site_fract_z
_atom_site_charge
Mof_Ce	Ce	0.78301	0.5093	0.51034	2.692
Mof_Ce	Ce	0.21699	0.4907	0.48966	2.692
Mof_H 	H 	0.0253	0.1063	0.3322	0.042
Mof_H 	H 	0.1793	0.8727	0.3404	0.006
Mof_H 	H 	0.7851	0.1032	0.9154	0.024
Mof_H 	H 	0.2043	0.1099	0.8886	0.03
Mof_H 	H 	0.3506	0.1799	0.4055	-0.029
Mof_H 	H 	0.5041	0.9458	0.4141	0.007
Mof_H 	H 	0.9747	0.8937	0.6678	0.042
Mof_H 	H 	0.8207	0.1273	0.6596	0.006
Mof_H 	H 	0.2149	0.8968	0.0846	0.024
Mof_H 	H 	0.7957	0.8901	0.1114	0.03
Mof_H 	H 	0.6494	0.8201	0.5945	-0.029
Mof_H 	H 	0.4959	0.0542	0.5859	0.007
Mof_C 	C 	0.9859	0.2646	0.7564	0.522
Mof_C 	C 	0.121	0.0727	0.3525	-0.031
Mof_C 	C 	0.2132	0.9338	0.3567	0.038
Mof_C 	C 	0.3539	0.884	0.3846	-0.195
Mof_C 	C 	0.168	0.1619	0.3776	-0.136
Mof_C 	C 	0.9931	0.1263	0.8822	-0.148
Mof_C 	C 	0.8729	0.061	0.9496	-0.005
Mof_C 	C 	0.1215	0.0652	0.9336	-0.003
Mof_C 	C 	0.3136	0.1162	0.3959	-0.003
Mof_C 	C 	0.4053	0.977	0.4003	0.012
Mof_C 	C 	0.0596	0.3023	0.3918	0.455
Mof_C 	C 	0.5547	0.2709	0.5953	0.582
Mof_C 	C 	0.0141	0.7354	0.2436	0.522
Mof_C 	C 	0.879	0.9273	0.6475	-0.031
Mof_C 	C 	0.7868	0.0662	0.6433	0.038
Mof_C 	C 	0.6461	0.116	0.6154	-0.195
Mof_C 	C 	0.832	0.8381	0.6224	-0.136
Mof_C 	C 	0.0069	0.8737	0.1178	-0.148
Mof_C 	C 	0.1271	0.939	0.0504	-0.005
Mof_C 	C 	0.8785	0.9348	0.0664	-0.003
Mof_C 	C 	0.6864	0.8838	0.6041	-0.003
Mof_C 	C 	0.5947	0.023	0.5997	0.012
Mof_C 	C 	0.9404	0.6977	0.6082	0.455
Mof_C 	C 	0.4453	0.7291	0.4047	0.582
Mof_O 	O 	0.4218	0.306	0.5857	-0.663
Mof_O 	O 	0.6134	0.3565	0.5933	-0.667
Mof_O 	O 	0.9296	0.3401	0.3735	-0.553
Mof_O 	O 	0.0967	0.3771	0.4291	-0.738
Mof_O 	O 	0.8753	0.3081	0.7071	-0.625
Mof_O 	O 	0.0925	0.3252	0.7093	-0.614
Mof_O 	O 	0.5782	0.694	0.4143	-0.663
Mof_O 	O 	0.3866	0.6435	0.4067	-0.667
Mof_O 	O 	0.0704	0.6599	0.6265	-0.553
Mof_O 	O 	0.9033	0.6229	0.5709	-0.738
Mof_O 	O 	0.1247	0.6919	0.2929	-0.625
Mof_O 	O 	0.9075	0.6748	0.2907	-0.614
_end
