data_functionalizedCrystal
_audit_creation_method	'EQeq! by Chris Wilmer'
_symmetry_space_group_name_H-M	'P1'
_symmetry_Int_Tables_number	1
_symmetry_cell_setting	triclinic
loop_
_symmetry_equiv_pos_as_xyz
  x,y,z
_cell_length_a	26.816
_cell_length_b	26.816
_cell_length_c	26.816
_cell_angle_alpha	90
_cell_angle_beta	90
_cell_angle_gamma	90
loop_
_atom_site_label
_atom_site_type_symbol
_atom_site_fract_x
_atom_site_fract_y
_atom_site_fract_z
_atom_site_charge
Mof_H 	H 	0.5934	0.0292	0.3045	0.765
Mof_O 	O 	0.55418	0.05256	0.12751	-0.481
Mof_O 	O 	0.551	0.0508	0.2104	-0.485
Mof_C 	C 	0.57	0.064	0.1702	0.405
Mof_C 	C 	0.7508	0.1777	0.1975	0.015
Mof_C 	C 	0.7624	0.2189	0.1672	-0.085
Mof_H 	H 	0.7426	0.2258	0.1395	0.055
Mof_C 	C 	0.6155	0.0949	0.1749	-0.18
Mof_C 	C 	0.6421	0.1128	0.1338	0.076
Mof_H 	H 	0.6307	0.1063	0.1017	-0.003
Mof_C 	C 	0.6852	0.14	0.1409	-0.153
Mof_H 	H 	0.7018	0.153	0.1133	0.074
Mof_C 	C 	0.7044	0.1486	0.1884	0.074
Mof_C 	C 	0.677	0.1316	0.2288	-0.163
Mof_H 	H 	0.6885	0.138	0.2609	0.083
Mof_C 	C 	0.6327	0.1054	0.2225	0.091
Mof_H 	H 	0.6147	0.0948	0.2502	-0.026
Mof_H 	H 	0.4066	0.9708	0.3045	0.779
Mof_O 	O 	0.44582	0.94744	0.12751	-0.47
Mof_O 	O 	0.449	0.9492	0.2104	-0.474
Mof_C 	C 	0.43	0.936	0.1702	0.404
Mof_C 	C 	0.2492	0.8223	0.1975	0.016
Mof_C 	C 	0.2376	0.7811	0.1672	-0.085
Mof_H 	H 	0.2574	0.7742	0.1395	0.055
Mof_C 	C 	0.3845	0.9051	0.1749	-0.175
Mof_C 	C 	0.3579	0.8872	0.1338	0.075
Mof_H 	H 	0.3693	0.8937	0.1017	0
Mof_C 	C 	0.3148	0.86	0.1409	-0.15
Mof_H 	H 	0.2982	0.847	0.1133	0.074
Mof_C 	C 	0.2956	0.8514	0.1884	0.074
Mof_C 	C 	0.323	0.8684	0.2288	-0.16
Mof_H 	H 	0.3115	0.862	0.2609	0.084
Mof_C 	C 	0.3673	0.8946	0.2225	0.09
Mof_H 	H 	0.3853	0.9052	0.2502	-0.023
Mof_H 	H 	0.4066	0.0292	0.6955	0.765
Mof_O 	O 	0.44582	0.05256	0.87249	-0.479
Mof_O 	O 	0.449	0.0508	0.7896	-0.484
Mof_C 	C 	0.43	0.064	0.8298	0.404
Mof_C 	C 	0.2492	0.1777	0.8025	0.015
Mof_C 	C 	0.2376	0.2189	0.8328	-0.085
Mof_H 	H 	0.2574	0.2258	0.8605	0.057
Mof_C 	C 	0.3845	0.0949	0.8251	-0.179
Mof_C 	C 	0.3579	0.1128	0.8662	0.075
Mof_H 	H 	0.3693	0.1063	0.8983	0.001
Mof_C 	C 	0.3148	0.14	0.8591	-0.152
Mof_H 	H 	0.2982	0.153	0.8867	0.077
Mof_C 	C 	0.2956	0.1486	0.8116	0.074
Mof_C 	C 	0.323	0.1316	0.7712	-0.163
Mof_H 	H 	0.3115	0.138	0.7391	0.083
Mof_C 	C 	0.3673	0.1054	0.7775	0.09
Mof_H 	H 	0.3853	0.0948	0.7498	-0.025
Mof_H 	H 	0.5934	0.9708	0.6955	0.78
Mof_O 	O 	0.55418	0.94744	0.87249	-0.467
Mof_O 	O 	0.551	0.9492	0.7896	-0.474
Mof_C 	C 	0.57	0.936	0.8298	0.403
Mof_C 	C 	0.7508	0.8223	0.8025	0.019
Mof_C 	C 	0.7624	0.7811	0.8328	-0.087
Mof_H 	H 	0.7426	0.7742	0.8605	0.059
Mof_C 	C 	0.6155	0.9051	0.8251	-0.173
Mof_C 	C 	0.6421	0.8872	0.8662	0.074
Mof_H 	H 	0.6307	0.8937	0.8983	0.005
Mof_C 	C 	0.6852	0.86	0.8591	-0.148
Mof_H 	H 	0.7018	0.847	0.8867	0.079
Mof_C 	C 	0.7044	0.8514	0.8116	0.074
Mof_C 	C 	0.677	0.8684	0.7712	-0.159
Mof_H 	H 	0.6885	0.862	0.7391	0.083
Mof_C 	C 	0.6327	0.8946	0.7775	0.09
Mof_H 	H 	0.6147	0.9052	0.7498	-0.023
Mof_H 	H 	0.3045	0.5934	0.0292	0.765
Mof_O 	O 	0.12751	0.55418	0.05256	-0.481
Mof_O 	O 	0.2104	0.551	0.0508	-0.485
Mof_C 	C 	0.1702	0.57	0.064	0.405
Mof_C 	C 	0.1975	0.7508	0.1777	0.015
Mof_C 	C 	0.1672	0.7624	0.2189	-0.085
Mof_H 	H 	0.1395	0.7426	0.2258	0.055
Mof_C 	C 	0.1749	0.6155	0.0949	-0.18
Mof_C 	C 	0.1338	0.6421	0.1128	0.076
Mof_H 	H 	0.1017	0.6307	0.1063	-0.003
Mof_C 	C 	0.1409	0.6852	0.14	-0.153
Mof_H 	H 	0.1133	0.7018	0.153	0.074
Mof_C 	C 	0.1884	0.7044	0.1486	0.074
Mof_C 	C 	0.2288	0.677	0.1316	-0.163
Mof_H 	H 	0.2609	0.6885	0.138	0.083
Mof_C 	C 	0.2225	0.6327	0.1054	0.091
Mof_H 	H 	0.2502	0.6147	0.0948	-0.026
Mof_H 	H 	0.3045	0.4066	0.9708	0.779
Mof_O 	O 	0.12751	0.44582	0.94744	-0.47
Mof_O 	O 	0.2104	0.449	0.9492	-0.474
Mof_C 	C 	0.1702	0.43	0.936	0.404
Mof_C 	C 	0.1975	0.2492	0.8223	0.016
Mof_C 	C 	0.1672	0.2376	0.7811	-0.085
Mof_H 	H 	0.1395	0.2574	0.7742	0.055
Mof_C 	C 	0.1749	0.3845	0.9051	-0.175
Mof_C 	C 	0.1338	0.3579	0.8872	0.075
Mof_H 	H 	0.1017	0.3693	0.8937	0
Mof_C 	C 	0.1409	0.3148	0.86	-0.15
Mof_H 	H 	0.1133	0.2982	0.847	0.074
Mof_C 	C 	0.1884	0.2956	0.8514	0.074
Mof_C 	C 	0.2288	0.323	0.8684	-0.16
Mof_H 	H 	0.2609	0.3115	0.862	0.084
Mof_C 	C 	0.2225	0.3673	0.8946	0.09
Mof_H 	H 	0.2502	0.3853	0.9052	-0.023
Mof_H 	H 	0.6955	0.4066	0.0292	0.765
Mof_O 	O 	0.87249	0.44582	0.05256	-0.479
Mof_O 	O 	0.7896	0.449	0.0508	-0.484
Mof_C 	C 	0.8298	0.43	0.064	0.404
Mof_C 	C 	0.8025	0.2492	0.1777	0.015
Mof_C 	C 	0.8328	0.2376	0.2189	-0.085
Mof_H 	H 	0.8605	0.2574	0.2258	0.057
Mof_C 	C 	0.8251	0.3845	0.0949	-0.179
Mof_C 	C 	0.8662	0.3579	0.1128	0.075
Mof_H 	H 	0.8983	0.3693	0.1063	0.001
Mof_C 	C 	0.8591	0.3148	0.14	-0.152
Mof_H 	H 	0.8867	0.2982	0.153	0.077
Mof_C 	C 	0.8116	0.2956	0.1486	0.074
Mof_C 	C 	0.7712	0.323	0.1316	-0.163
Mof_H 	H 	0.7391	0.3115	0.138	0.083
Mof_C 	C 	0.7775	0.3673	0.1054	0.09
Mof_H 	H 	0.7498	0.3853	0.0948	-0.025
Mof_H 	H 	0.6955	0.5934	0.9708	0.78
Mof_O 	O 	0.87249	0.55418	0.94744	-0.467
Mof_O 	O 	0.7896	0.551	0.9492	-0.474
Mof_C 	C 	0.8298	0.57	0.936	0.403
Mof_C 	C 	0.8025	0.7508	0.8223	0.019
Mof_C 	C 	0.8328	0.7624	0.7811	-0.087
Mof_H 	H 	0.8605	0.7426	0.7742	0.059
Mof_C 	C 	0.8251	0.6155	0.9051	-0.173
Mof_C 	C 	0.8662	0.6421	0.8872	0.074
Mof_H 	H 	0.8983	0.6307	0.8937	0.005
Mof_C 	C 	0.8591	0.6852	0.86	-0.148
Mof_H 	H 	0.8867	0.7018	0.847	0.079
Mof_C 	C 	0.8116	0.7044	0.8514	0.074
Mof_C 	C 	0.7712	0.677	0.8684	-0.159
Mof_H 	H 	0.7391	0.6885	0.862	0.083
Mof_C 	C 	0.7775	0.6327	0.8946	0.09
Mof_H 	H 	0.7498	0.6147	0.9052	-0.023
Mof_H 	H 	0.0292	0.3045	0.5934	0.765
Mof_O 	O 	0.05256	0.12751	0.55418	-0.481
Mof_O 	O 	0.0508	0.2104	0.551	-0.485
Mof_C 	C 	0.064	0.1702	0.57	0.405
Mof_C 	C 	0.1777	0.1975	0.7508	0.015
Mof_C 	C 	0.2189	0.1672	0.7624	-0.085
Mof_H 	H 	0.2258	0.1395	0.7426	0.055
Mof_C 	C 	0.0949	0.1749	0.6155	-0.18
Mof_C 	C 	0.1128	0.1338	0.6421	0.076
Mof_H 	H 	0.1063	0.1017	0.6307	-0.003
Mof_C 	C 	0.14	0.1409	0.6852	-0.153
Mof_H 	H 	0.153	0.1133	0.7018	0.074
Mof_C 	C 	0.1486	0.1884	0.7044	0.074
Mof_C 	C 	0.1316	0.2288	0.677	-0.163
Mof_H 	H 	0.138	0.2609	0.6885	0.083
Mof_C 	C 	0.1054	0.2225	0.6327	0.091
Mof_H 	H 	0.0948	0.2502	0.6147	-0.026
Mof_H 	H 	0.9708	0.3045	0.4066	0.779
Mof_O 	O 	0.94744	0.12751	0.44582	-0.47
Mof_O 	O 	0.9492	0.2104	0.449	-0.474
Mof_C 	C 	0.936	0.1702	0.43	0.404
Mof_C 	C 	0.8223	0.1975	0.2492	0.016
Mof_C 	C 	0.7811	0.1672	0.2376	-0.085
Mof_H 	H 	0.7742	0.1395	0.2574	0.055
Mof_C 	C 	0.9051	0.1749	0.3845	-0.175
Mof_C 	C 	0.8872	0.1338	0.3579	0.075
Mof_H 	H 	0.8937	0.1017	0.3693	0
Mof_C 	C 	0.86	0.1409	0.3148	-0.15
Mof_H 	H 	0.847	0.1133	0.2982	0.074
Mof_C 	C 	0.8514	0.1884	0.2956	0.074
Mof_C 	C 	0.8684	0.2288	0.323	-0.16
Mof_H 	H 	0.862	0.2609	0.3115	0.084
Mof_C 	C 	0.8946	0.2225	0.3673	0.09
Mof_H 	H 	0.9052	0.2502	0.3853	-0.023
Mof_H 	H 	0.0292	0.6955	0.4066	0.765
Mof_O 	O 	0.05256	0.87249	0.44582	-0.479
Mof_O 	O 	0.0508	0.7896	0.449	-0.484
Mof_C 	C 	0.064	0.8298	0.43	0.404
Mof_C 	C 	0.1777	0.8025	0.2492	0.015
Mof_C 	C 	0.2189	0.8328	0.2376	-0.085
Mof_H 	H 	0.2258	0.8605	0.2574	0.057
Mof_C 	C 	0.0949	0.8251	0.3845	-0.179
Mof_C 	C 	0.1128	0.8662	0.3579	0.075
Mof_H 	H 	0.1063	0.8983	0.3693	0.001
Mof_C 	C 	0.14	0.8591	0.3148	-0.152
Mof_H 	H 	0.153	0.8867	0.2982	0.077
Mof_C 	C 	0.1486	0.8116	0.2956	0.074
Mof_C 	C 	0.1316	0.7712	0.323	-0.163
Mof_H 	H 	0.138	0.7391	0.3115	0.083
Mof_C 	C 	0.1054	0.7775	0.3673	0.09
Mof_H 	H 	0.0948	0.7498	0.3853	-0.025
Mof_H 	H 	0.9708	0.6955	0.5934	0.78
Mof_O 	O 	0.94744	0.87249	0.55418	-0.467
Mof_O 	O 	0.9492	0.7896	0.551	-0.474
Mof_C 	C 	0.936	0.8298	0.57	0.403
Mof_C 	C 	0.8223	0.8025	0.7508	0.019
Mof_C 	C 	0.7811	0.8328	0.7624	-0.087
Mof_H 	H 	0.7742	0.8605	0.7426	0.059
Mof_C 	C 	0.9051	0.8251	0.6155	-0.173
Mof_C 	C 	0.8872	0.8662	0.6421	0.074
Mof_H 	H 	0.8937	0.8983	0.6307	0.005
Mof_C 	C 	0.86	0.8591	0.6852	-0.148
Mof_H 	H 	0.847	0.8867	0.7018	0.079
Mof_C 	C 	0.8514	0.8116	0.7044	0.074
Mof_C 	C 	0.8684	0.7712	0.677	-0.159
Mof_H 	H 	0.862	0.7391	0.6885	0.083
Mof_C 	C 	0.8946	0.7775	0.6327	0.09
Mof_H 	H 	0.9052	0.7498	0.6147	-0.023
Mof_H 	H 	0.4066	0.9708	0.6955	0.78
Mof_O 	O 	0.44582	0.94744	0.87249	-0.467
Mof_O 	O 	0.449	0.9492	0.7896	-0.474
Mof_C 	C 	0.43	0.936	0.8298	0.403
Mof_C 	C 	0.2492	0.8223	0.8025	0.018
Mof_C 	C 	0.2376	0.7811	0.8328	-0.086
Mof_H 	H 	0.2574	0.7742	0.8605	0.058
Mof_C 	C 	0.3845	0.9051	0.8251	-0.174
Mof_C 	C 	0.3579	0.8872	0.8662	0.074
Mof_H 	H 	0.3693	0.8937	0.8983	0.005
Mof_C 	C 	0.3148	0.86	0.8591	-0.148
Mof_H 	H 	0.2982	0.847	0.8867	0.078
Mof_C 	C 	0.2956	0.8514	0.8116	0.074
Mof_C 	C 	0.323	0.8684	0.7712	-0.16
Mof_H 	H 	0.3115	0.862	0.7391	0.083
Mof_C 	C 	0.3673	0.8946	0.7775	0.09
Mof_H 	H 	0.3853	0.9052	0.7498	-0.023
Mof_H 	H 	0.5934	0.0292	0.6955	0.765
Mof_O 	O 	0.55418	0.05256	0.87249	-0.478
Mof_O 	O 	0.551	0.0508	0.7896	-0.484
Mof_C 	C 	0.57	0.064	0.8298	0.404
Mof_C 	C 	0.7508	0.1777	0.8025	0.017
Mof_C 	C 	0.7624	0.2189	0.8328	-0.086
Mof_H 	H 	0.7426	0.2258	0.8605	0.058
Mof_C 	C 	0.6155	0.0949	0.8251	-0.179
Mof_C 	C 	0.6421	0.1128	0.8662	0.075
Mof_H 	H 	0.6307	0.1063	0.8983	0.001
Mof_C 	C 	0.6852	0.14	0.8591	-0.151
Mof_H 	H 	0.7018	0.153	0.8867	0.078
Mof_C 	C 	0.7044	0.1486	0.8116	0.074
Mof_C 	C 	0.677	0.1316	0.7712	-0.163
Mof_H 	H 	0.6885	0.138	0.7391	0.083
Mof_C 	C 	0.6327	0.1054	0.7775	0.09
Mof_H 	H 	0.6147	0.0948	0.7498	-0.025
Mof_H 	H 	0.5934	0.9708	0.3045	0.78
Mof_O 	O 	0.55418	0.94744	0.12751	-0.47
Mof_O 	O 	0.551	0.9492	0.2104	-0.474
Mof_C 	C 	0.57	0.936	0.1702	0.404
Mof_C 	C 	0.7508	0.8223	0.1975	0.017
Mof_C 	C 	0.7624	0.7811	0.1672	-0.086
Mof_H 	H 	0.7426	0.7742	0.1395	0.056
Mof_C 	C 	0.6155	0.9051	0.1749	-0.175
Mof_C 	C 	0.6421	0.8872	0.1338	0.075
Mof_H 	H 	0.6307	0.8937	0.1017	0
Mof_C 	C 	0.6852	0.86	0.1409	-0.149
Mof_H 	H 	0.7018	0.847	0.1133	0.075
Mof_C 	C 	0.7044	0.8514	0.1884	0.074
Mof_C 	C 	0.677	0.8684	0.2288	-0.16
Mof_H 	H 	0.6885	0.862	0.2609	0.084
Mof_C 	C 	0.6327	0.8946	0.2225	0.09
Mof_H 	H 	0.6147	0.9052	0.2502	-0.023
Mof_H 	H 	0.4066	0.0292	0.3045	0.765
Mof_O 	O 	0.44582	0.05256	0.12751	-0.481
Mof_O 	O 	0.449	0.0508	0.2104	-0.485
Mof_C 	C 	0.43	0.064	0.1702	0.405
Mof_C 	C 	0.2492	0.1777	0.1975	0.013
Mof_C 	C 	0.2376	0.2189	0.1672	-0.084
Mof_H 	H 	0.2574	0.2258	0.1395	0.054
Mof_C 	C 	0.3845	0.0949	0.1749	-0.18
Mof_C 	C 	0.3579	0.1128	0.1338	0.075
Mof_H 	H 	0.3693	0.1063	0.1017	-0.004
Mof_C 	C 	0.3148	0.14	0.1409	-0.153
Mof_H 	H 	0.2982	0.153	0.1133	0.073
Mof_C 	C 	0.2956	0.1486	0.1884	0.074
Mof_C 	C 	0.323	0.1316	0.2288	-0.164
Mof_H 	H 	0.3115	0.138	0.2609	0.083
Mof_C 	C 	0.3673	0.1054	0.2225	0.091
Mof_H 	H 	0.3853	0.0948	0.2502	-0.026
Mof_H 	H 	0.6955	0.4066	0.9708	0.78
Mof_O 	O 	0.87249	0.44582	0.94744	-0.467
Mof_O 	O 	0.7896	0.449	0.9492	-0.474
Mof_C 	C 	0.8298	0.43	0.936	0.403
Mof_C 	C 	0.8025	0.2492	0.8223	0.018
Mof_C 	C 	0.8328	0.2376	0.7811	-0.086
Mof_H 	H 	0.8605	0.2574	0.7742	0.058
Mof_C 	C 	0.8251	0.3845	0.9051	-0.174
Mof_C 	C 	0.8662	0.3579	0.8872	0.074
Mof_H 	H 	0.8983	0.3693	0.8937	0.005
Mof_C 	C 	0.8591	0.3148	0.86	-0.148
Mof_H 	H 	0.8867	0.2982	0.847	0.078
Mof_C 	C 	0.8116	0.2956	0.8514	0.074
Mof_C 	C 	0.7712	0.323	0.8684	-0.16
Mof_H 	H 	0.7391	0.3115	0.862	0.083
Mof_C 	C 	0.7775	0.3673	0.8946	0.09
Mof_H 	H 	0.7498	0.3853	0.9052	-0.023
Mof_H 	H 	0.6955	0.5934	0.0292	0.765
Mof_O 	O 	0.87249	0.55418	0.05256	-0.478
Mof_O 	O 	0.7896	0.551	0.0508	-0.484
Mof_C 	C 	0.8298	0.57	0.064	0.404
Mof_C 	C 	0.8025	0.7508	0.1777	0.017
Mof_C 	C 	0.8328	0.7624	0.2189	-0.086
Mof_H 	H 	0.8605	0.7426	0.2258	0.058
Mof_C 	C 	0.8251	0.6155	0.0949	-0.179
Mof_C 	C 	0.8662	0.6421	0.1128	0.075
Mof_H 	H 	0.8983	0.6307	0.1063	0.001
Mof_C 	C 	0.8591	0.6852	0.14	-0.151
Mof_H 	H 	0.8867	0.7018	0.153	0.078
Mof_C 	C 	0.8116	0.7044	0.1486	0.074
Mof_C 	C 	0.7712	0.677	0.1316	-0.163
Mof_H 	H 	0.7391	0.6885	0.138	0.083
Mof_C 	C 	0.7775	0.6327	0.1054	0.09
Mof_H 	H 	0.7498	0.6147	0.0948	-0.025
Mof_H 	H 	0.3045	0.5934	0.9708	0.78
Mof_O 	O 	0.12751	0.55418	0.94744	-0.47
Mof_O 	O 	0.2104	0.551	0.9492	-0.474
Mof_C 	C 	0.1702	0.57	0.936	0.404
Mof_C 	C 	0.1975	0.7508	0.8223	0.017
Mof_C 	C 	0.1672	0.7624	0.7811	-0.086
Mof_H 	H 	0.1395	0.7426	0.7742	0.056
Mof_C 	C 	0.1749	0.6155	0.9051	-0.175
Mof_C 	C 	0.1338	0.6421	0.8872	0.075
Mof_H 	H 	0.1017	0.6307	0.8937	0
Mof_C 	C 	0.1409	0.6852	0.86	-0.149
Mof_H 	H 	0.1133	0.7018	0.847	0.075
Mof_C 	C 	0.1884	0.7044	0.8514	0.074
Mof_C 	C 	0.2288	0.677	0.8684	-0.16
Mof_H 	H 	0.2609	0.6885	0.862	0.084
Mof_C 	C 	0.2225	0.6327	0.8946	0.09
Mof_H 	H 	0.2502	0.6147	0.9052	-0.023
Mof_H 	H 	0.3045	0.4066	0.0292	0.765
Mof_O 	O 	0.12751	0.44582	0.05256	-0.481
Mof_O 	O 	0.2104	0.449	0.0508	-0.485
Mof_C 	C 	0.1702	0.43	0.064	0.405
Mof_C 	C 	0.1975	0.2492	0.1777	0.013
Mof_C 	C 	0.1672	0.2376	0.2189	-0.084
Mof_H 	H 	0.1395	0.2574	0.2258	0.054
Mof_C 	C 	0.1749	0.3845	0.0949	-0.18
Mof_C 	C 	0.1338	0.3579	0.1128	0.075
Mof_H 	H 	0.1017	0.3693	0.1063	-0.004
Mof_C 	C 	0.1409	0.3148	0.14	-0.153
Mof_H 	H 	0.1133	0.2982	0.153	0.073
Mof_C 	C 	0.1884	0.2956	0.1486	0.074
Mof_C 	C 	0.2288	0.323	0.1316	-0.164
Mof_H 	H 	0.2609	0.3115	0.138	0.083
Mof_C 	C 	0.2225	0.3673	0.1054	0.091
Mof_H 	H 	0.2502	0.3853	0.0948	-0.026
Mof_H 	H 	0.9708	0.6955	0.4066	0.78
Mof_O 	O 	0.94744	0.87249	0.44582	-0.467
Mof_O 	O 	0.9492	0.7896	0.449	-0.474
Mof_C 	C 	0.936	0.8298	0.43	0.403
Mof_C 	C 	0.8223	0.8025	0.2492	0.018
Mof_C 	C 	0.7811	0.8328	0.2376	-0.086
Mof_H 	H 	0.7742	0.8605	0.2574	0.058
Mof_C 	C 	0.9051	0.8251	0.3845	-0.174
Mof_C 	C 	0.8872	0.8662	0.3579	0.074
Mof_H 	H 	0.8937	0.8983	0.3693	0.005
Mof_C 	C 	0.86	0.8591	0.3148	-0.148
Mof_H 	H 	0.847	0.8867	0.2982	0.078
Mof_C 	C 	0.8514	0.8116	0.2956	0.074
Mof_C 	C 	0.8684	0.7712	0.323	-0.16
Mof_H 	H 	0.862	0.7391	0.3115	0.083
Mof_C 	C 	0.8946	0.7775	0.3673	0.09
Mof_H 	H 	0.9052	0.7498	0.3853	-0.023
Mof_H 	H 	0.0292	0.6955	0.5934	0.765
Mof_O 	O 	0.05256	0.87249	0.55418	-0.478
Mof_O 	O 	0.0508	0.7896	0.551	-0.484
Mof_C 	C 	0.064	0.8298	0.57	0.404
Mof_C 	C 	0.1777	0.8025	0.7508	0.017
Mof_C 	C 	0.2189	0.8328	0.7624	-0.086
Mof_H 	H 	0.2258	0.8605	0.7426	0.058
Mof_C 	C 	0.0949	0.8251	0.6155	-0.179
Mof_C 	C 	0.1128	0.8662	0.6421	0.075
Mof_H 	H 	0.1063	0.8983	0.6307	0.001
Mof_C 	C 	0.14	0.8591	0.6852	-0.151
Mof_H 	H 	0.153	0.8867	0.7018	0.078
Mof_C 	C 	0.1486	0.8116	0.7044	0.074
Mof_C 	C 	0.1316	0.7712	0.677	-0.163
Mof_H 	H 	0.138	0.7391	0.6885	0.083
Mof_C 	C 	0.1054	0.7775	0.6327	0.09
Mof_H 	H 	0.0948	0.7498	0.6147	-0.025
Mof_H 	H 	0.9708	0.3045	0.5934	0.78
Mof_O 	O 	0.94744	0.12751	0.55418	-0.47
Mof_O 	O 	0.9492	0.2104	0.551	-0.474
Mof_C 	C 	0.936	0.1702	0.57	0.404
Mof_C 	C 	0.8223	0.1975	0.7508	0.017
Mof_C 	C 	0.7811	0.1672	0.7624	-0.086
Mof_H 	H 	0.7742	0.1395	0.7426	0.056
Mof_C 	C 	0.9051	0.1749	0.6155	-0.175
Mof_C 	C 	0.8872	0.1338	0.6421	0.075
Mof_H 	H 	0.8937	0.1017	0.6307	0
Mof_C 	C 	0.86	0.1409	0.6852	-0.149
Mof_H 	H 	0.847	0.1133	0.7018	0.075
Mof_C 	C 	0.8514	0.1884	0.7044	0.074
Mof_C 	C 	0.8684	0.2288	0.677	-0.16
Mof_H 	H 	0.862	0.2609	0.6885	0.084
Mof_C 	C 	0.8946	0.2225	0.6327	0.09
Mof_H 	H 	0.9052	0.2502	0.6147	-0.023
Mof_H 	H 	0.0292	0.3045	0.4066	0.765
Mof_O 	O 	0.05256	0.12751	0.44582	-0.481
Mof_O 	O 	0.0508	0.2104	0.449	-0.485
Mof_C 	C 	0.064	0.1702	0.43	0.405
Mof_C 	C 	0.1777	0.1975	0.2492	0.013
Mof_C 	C 	0.2189	0.1672	0.2376	-0.084
Mof_H 	H 	0.2258	0.1395	0.2574	0.054
Mof_C 	C 	0.0949	0.1749	0.3845	-0.18
Mof_C 	C 	0.1128	0.1338	0.3579	0.075
Mof_H 	H 	0.1063	0.1017	0.3693	-0.004
Mof_C 	C 	0.14	0.1409	0.3148	-0.153
Mof_H 	H 	0.153	0.1133	0.2982	0.073
Mof_C 	C 	0.1486	0.1884	0.2956	0.074
Mof_C 	C 	0.1316	0.2288	0.323	-0.164
Mof_H 	H 	0.138	0.2609	0.3115	0.083
Mof_C 	C 	0.1054	0.2225	0.3673	0.091
Mof_H 	H 	0.0948	0.2502	0.3853	-0.026
Mof_Ni	Ni	0.5	2.61817e-33	0.22163	1.113
Mof_Ni	Ni	0.5	0	0.11549	1.047
Mof_N 	N 	0.5	2.61817e-33	0.2962	-0.738
Mof_Ni	Ni	0.5	1.04727e-32	0.77837	1.113
Mof_Ni	Ni	0.5	0	0.88451	1.048
Mof_N 	N 	0.5	0	0.7038	-0.738
Mof_Ni	Ni	0.22163	0.5	-0	1.113
Mof_Ni	Ni	0.11549	0.5	-0	1.047
Mof_N 	N 	0.2962	0.5	-0	-0.738
Mof_Ni	Ni	0.77837	0.5	-0	1.113
Mof_Ni	Ni	0.88451	0.5	-0	1.048
Mof_N 	N 	0.7038	0.5	-0	-0.738
Mof_Ni	Ni	7.11105e-33	0.22163	0.5	1.113
Mof_Ni	Ni	7.11105e-33	0.11549	0.5	1.047
Mof_N 	N 	1.8747e-33	0.2962	0.5	-0.738
Mof_Ni	Ni	1.75837e-32	0.77837	0.5	1.113
Mof_Ni	Ni	2.80564e-32	0.88451	0.5	1.048
Mof_N 	N 	7.11105e-33	0.7038	0.5	-0.738
Mof_C 	C 	0.5352	2.61817e-33	0.3269	1.12
Mof_N 	N 	0.5237	2.61817e-33	0.3725	-0.418
Mof_H 	H 	0.5434	0	0.3978	0.145
Mof_C 	C 	0.5831	0	0.3224	-2.513
Mof_H 	H 	0.5981	0	0.3549	0.764
Mof_C 	C 	0.4648	2.61817e-33	0.3269	1.119
Mof_N 	N 	0.4763	2.61817e-33	0.3725	-0.418
Mof_H 	H 	0.4566	0	0.3978	0.145
Mof_C 	C 	0.4169	0	0.3224	-2.512
Mof_H 	H 	0.4019	0	0.3549	0.763
Mof_C 	C 	0.4648	0	0.6731	1.119
Mof_N 	N 	0.4763	5.23635e-33	0.6275	-0.418
Mof_H 	H 	0.4566	0	0.6022	0.145
Mof_C 	C 	0.4169	5.23635e-33	0.6776	-2.512
Mof_H 	H 	0.4019	0	0.6451	0.764
Mof_C 	C 	0.5352	0	0.6731	1.12
Mof_N 	N 	0.5237	5.23635e-33	0.6275	-0.418
Mof_H 	H 	0.5434	0	0.6022	0.145
Mof_C 	C 	0.5831	5.23635e-33	0.6776	-2.513
Mof_H 	H 	0.5981	0	0.6451	0.764
Mof_C 	C 	0.3269	0.5352	-0	1.12
Mof_N 	N 	0.3725	0.5237	-0	-0.418
Mof_H 	H 	0.3978	0.5434	-0	0.145
Mof_C 	C 	0.3224	0.5831	-0	-2.513
Mof_H 	H 	0.3549	0.5981	-0	0.764
Mof_C 	C 	0.3269	0.4648	-0	1.119
Mof_N 	N 	0.3725	0.4763	-0	-0.418
Mof_H 	H 	0.3978	0.4566	-0	0.145
Mof_C 	C 	0.3224	0.4169	-0	-2.512
Mof_H 	H 	0.3549	0.4019	-0	0.763
Mof_C 	C 	0.6731	0.4648	-0	1.119
Mof_N 	N 	0.6275	0.4763	-0	-0.418
Mof_H 	H 	0.6022	0.4566	-0	0.145
Mof_C 	C 	0.6776	0.4169	-0	-2.512
Mof_H 	H 	0.6451	0.4019	-0	0.764
Mof_C 	C 	0.6731	0.5352	-0	1.12
Mof_N 	N 	0.6275	0.5237	-0	-0.418
Mof_H 	H 	0.6022	0.5434	-0	0.145
Mof_C 	C 	0.6776	0.5831	-0	-2.513
Mof_H 	H 	0.6451	0.5981	-0	0.764
Mof_C 	C 	7.24303e-33	0.3269	0.5352	1.12
Mof_N 	N 	-3.27279e-33	0.3725	0.5237	-0.418
Mof_H 	H 	-3.19892e-33	0.3978	0.5434	0.145
Mof_C 	C 	1.78953e-32	0.3224	0.5831	-2.513
Mof_H 	H 	-2.99383e-33	0.3549	0.5981	0.764
Mof_C 	C 	6.97907e-33	0.3269	0.4648	1.119
Mof_N 	N 	1.78584e-33	0.3725	0.4763	-0.418
Mof_H 	H 	1.21847e-32	0.3978	0.4566	0.145
Mof_C 	C 	1.20358e-32	0.3224	0.4169	-2.512
Mof_H 	H 	1.50688e-33	0.3549	0.4019	0.763
Mof_C 	C 	1.74272e-33	0.6731	0.4648	1.119
Mof_N 	N 	1.74949e-32	0.6275	0.4763	-0.418
Mof_H 	H 	1.21847e-32	0.6022	0.4566	0.145
Mof_C 	C 	2.77449e-32	0.6776	0.4169	-2.512
Mof_H 	H 	-3.72946e-33	0.6451	0.4019	0.764
Mof_C 	C 	2.00668e-33	0.6731	0.5352	1.12
Mof_N 	N 	1.24363e-32	0.6275	0.5237	-0.418
Mof_H 	H 	2.03742e-33	0.6022	0.5434	0.145
Mof_C 	C 	2.31317e-32	0.6776	0.5831	-2.513
Mof_H 	H 	7.47886e-33	0.6451	0.5981	0.764
Mof_H 	H 	0.0934	0.5292	0.8045	0.71
Mof_O 	O 	0.05418	0.55256	0.62751	-0.48
Mof_O 	O 	0.051	0.5508	0.7104	-0.483
Mof_C 	C 	0.07	0.564	0.6702	0.404
Mof_C 	C 	0.2508	0.6777	0.6975	0.017
Mof_C 	C 	0.2624	0.7189	0.6672	-0.086
Mof_H 	H 	0.2426	0.7258	0.6395	0.057
Mof_C 	C 	0.1155	0.5949	0.6749	-0.177
Mof_C 	C 	0.1421	0.6128	0.6338	0.074
Mof_H 	H 	0.1307	0.6063	0.6017	0
Mof_C 	C 	0.1852	0.64	0.6409	-0.15
Mof_H 	H 	0.2018	0.653	0.6133	0.076
Mof_C 	C 	0.2044	0.6486	0.6884	0.073
Mof_C 	C 	0.177	0.6316	0.7288	-0.161
Mof_H 	H 	0.1885	0.638	0.7609	0.083
Mof_C 	C 	0.1327	0.6054	0.7225	0.089
Mof_H 	H 	0.1147	0.5948	0.7502	-0.022
Mof_H 	H 	0.9066	0.4708	0.8045	0.744
Mof_O 	O 	0.94582	0.44744	0.62751	-0.468
Mof_O 	O 	0.949	0.4492	0.7104	-0.473
Mof_C 	C 	0.93	0.436	0.6702	0.402
Mof_C 	C 	0.7492	0.3223	0.6975	0.017
Mof_C 	C 	0.7376	0.2811	0.6672	-0.086
Mof_H 	H 	0.7574	0.2742	0.6395	0.057
Mof_C 	C 	0.8845	0.4051	0.6749	-0.174
Mof_C 	C 	0.8579	0.3872	0.6338	0.072
Mof_H 	H 	0.8693	0.3937	0.6017	0.003
Mof_C 	C 	0.8148	0.36	0.6409	-0.148
Mof_H 	H 	0.7982	0.347	0.6133	0.076
Mof_C 	C 	0.7956	0.3514	0.6884	0.072
Mof_C 	C 	0.823	0.3684	0.7288	-0.159
Mof_H 	H 	0.8115	0.362	0.7609	0.083
Mof_C 	C 	0.8673	0.3946	0.7225	0.088
Mof_H 	H 	0.8853	0.4052	0.7502	-0.022
Mof_H 	H 	0.9066	0.5292	0.1955	0.743
Mof_O 	O 	0.94582	0.55256	0.37249	-0.468
Mof_O 	O 	0.949	0.5508	0.2896	-0.473
Mof_C 	C 	0.93	0.564	0.3298	0.402
Mof_C 	C 	0.7492	0.6777	0.3025	0.017
Mof_C 	C 	0.7376	0.7189	0.3328	-0.087
Mof_H 	H 	0.7574	0.7258	0.3605	0.057
Mof_C 	C 	0.8845	0.5949	0.3251	-0.174
Mof_C 	C 	0.8579	0.6128	0.3662	0.072
Mof_H 	H 	0.8693	0.6063	0.3983	0.003
Mof_C 	C 	0.8148	0.64	0.3591	-0.148
Mof_H 	H 	0.7982	0.653	0.3867	0.076
Mof_C 	C 	0.7956	0.6486	0.3116	0.072
Mof_C 	C 	0.823	0.6316	0.2712	-0.159
Mof_H 	H 	0.8115	0.638	0.2391	0.083
Mof_C 	C 	0.8673	0.6054	0.2775	0.088
Mof_H 	H 	0.8853	0.5948	0.2498	-0.022
Mof_H 	H 	0.0934	0.4708	0.1955	0.709
Mof_O 	O 	0.05418	0.44744	0.37249	-0.48
Mof_O 	O 	0.051	0.4492	0.2896	-0.484
Mof_C 	C 	0.07	0.436	0.3298	0.404
Mof_C 	C 	0.2508	0.3223	0.3025	0.017
Mof_C 	C 	0.2624	0.2811	0.3328	-0.086
Mof_H 	H 	0.2426	0.2742	0.3605	0.057
Mof_C 	C 	0.1155	0.4051	0.3251	-0.178
Mof_C 	C 	0.1421	0.3872	0.3662	0.075
Mof_H 	H 	0.1307	0.3937	0.3983	-0
Mof_C 	C 	0.1852	0.36	0.3591	-0.151
Mof_H 	H 	0.2018	0.347	0.3867	0.076
Mof_C 	C 	0.2044	0.3514	0.3116	0.074
Mof_C 	C 	0.177	0.3684	0.2712	-0.161
Mof_H 	H 	0.1885	0.362	0.2391	0.083
Mof_C 	C 	0.1327	0.3946	0.2775	0.089
Mof_H 	H 	0.1147	0.4052	0.2498	-0.023
Mof_H 	H 	0.8045	0.0934	0.5292	0.71
Mof_O 	O 	0.62751	0.05418	0.55256	-0.48
Mof_O 	O 	0.7104	0.051	0.5508	-0.483
Mof_C 	C 	0.6702	0.07	0.564	0.404
Mof_C 	C 	0.6975	0.2508	0.6777	0.017
Mof_C 	C 	0.6672	0.2624	0.7189	-0.086
Mof_H 	H 	0.6395	0.2426	0.7258	0.057
Mof_C 	C 	0.6749	0.1155	0.5949	-0.177
Mof_C 	C 	0.6338	0.1421	0.6128	0.074
Mof_H 	H 	0.6017	0.1307	0.6063	0
Mof_C 	C 	0.6409	0.1852	0.64	-0.15
Mof_H 	H 	0.6133	0.2018	0.653	0.076
Mof_C 	C 	0.6884	0.2044	0.6486	0.073
Mof_C 	C 	0.7288	0.177	0.6316	-0.161
Mof_H 	H 	0.7609	0.1885	0.638	0.083
Mof_C 	C 	0.7225	0.1327	0.6054	0.089
Mof_H 	H 	0.7502	0.1147	0.5948	-0.022
Mof_H 	H 	0.8045	0.9066	0.4708	0.744
Mof_O 	O 	0.62751	0.94582	0.44744	-0.468
Mof_O 	O 	0.7104	0.949	0.4492	-0.473
Mof_C 	C 	0.6702	0.93	0.436	0.402
Mof_C 	C 	0.6975	0.7492	0.3223	0.017
Mof_C 	C 	0.6672	0.7376	0.2811	-0.086
Mof_H 	H 	0.6395	0.7574	0.2742	0.057
Mof_C 	C 	0.6749	0.8845	0.4051	-0.174
Mof_C 	C 	0.6338	0.8579	0.3872	0.072
Mof_H 	H 	0.6017	0.8693	0.3937	0.003
Mof_C 	C 	0.6409	0.8148	0.36	-0.148
Mof_H 	H 	0.6133	0.7982	0.347	0.076
Mof_C 	C 	0.6884	0.7956	0.3514	0.072
Mof_C 	C 	0.7288	0.823	0.3684	-0.159
Mof_H 	H 	0.7609	0.8115	0.362	0.083
Mof_C 	C 	0.7225	0.8673	0.3946	0.088
Mof_H 	H 	0.7502	0.8853	0.4052	-0.022
Mof_H 	H 	0.1955	0.9066	0.5292	0.743
Mof_O 	O 	0.37249	0.94582	0.55256	-0.468
Mof_O 	O 	0.2896	0.949	0.5508	-0.473
Mof_C 	C 	0.3298	0.93	0.564	0.402
Mof_C 	C 	0.3025	0.7492	0.6777	0.017
Mof_C 	C 	0.3328	0.7376	0.7189	-0.087
Mof_H 	H 	0.3605	0.7574	0.7258	0.057
Mof_C 	C 	0.3251	0.8845	0.5949	-0.174
Mof_C 	C 	0.3662	0.8579	0.6128	0.072
Mof_H 	H 	0.3983	0.8693	0.6063	0.003
Mof_C 	C 	0.3591	0.8148	0.64	-0.148
Mof_H 	H 	0.3867	0.7982	0.653	0.076
Mof_C 	C 	0.3116	0.7956	0.6486	0.072
Mof_C 	C 	0.2712	0.823	0.6316	-0.159
Mof_H 	H 	0.2391	0.8115	0.638	0.083
Mof_C 	C 	0.2775	0.8673	0.6054	0.088
Mof_H 	H 	0.2498	0.8853	0.5948	-0.022
Mof_H 	H 	0.1955	0.0934	0.4708	0.709
Mof_O 	O 	0.37249	0.05418	0.44744	-0.48
Mof_O 	O 	0.2896	0.051	0.4492	-0.484
Mof_C 	C 	0.3298	0.07	0.436	0.404
Mof_C 	C 	0.3025	0.2508	0.3223	0.017
Mof_C 	C 	0.3328	0.2624	0.2811	-0.086
Mof_H 	H 	0.3605	0.2426	0.2742	0.057
Mof_C 	C 	0.3251	0.1155	0.4051	-0.178
Mof_C 	C 	0.3662	0.1421	0.3872	0.075
Mof_H 	H 	0.3983	0.1307	0.3937	-0
Mof_C 	C 	0.3591	0.1852	0.36	-0.151
Mof_H 	H 	0.3867	0.2018	0.347	0.076
Mof_C 	C 	0.3116	0.2044	0.3514	0.074
Mof_C 	C 	0.2712	0.177	0.3684	-0.161
Mof_H 	H 	0.2391	0.1885	0.362	0.083
Mof_C 	C 	0.2775	0.1327	0.3946	0.089
Mof_H 	H 	0.2498	0.1147	0.4052	-0.023
Mof_H 	H 	0.5292	0.8045	0.0934	0.71
Mof_O 	O 	0.55256	0.62751	0.05418	-0.48
Mof_O 	O 	0.5508	0.7104	0.051	-0.483
Mof_C 	C 	0.564	0.6702	0.07	0.404
Mof_C 	C 	0.6777	0.6975	0.2508	0.017
Mof_C 	C 	0.7189	0.6672	0.2624	-0.086
Mof_H 	H 	0.7258	0.6395	0.2426	0.057
Mof_C 	C 	0.5949	0.6749	0.1155	-0.177
Mof_C 	C 	0.6128	0.6338	0.1421	0.074
Mof_H 	H 	0.6063	0.6017	0.1307	0
Mof_C 	C 	0.64	0.6409	0.1852	-0.15
Mof_H 	H 	0.653	0.6133	0.2018	0.076
Mof_C 	C 	0.6486	0.6884	0.2044	0.073
Mof_C 	C 	0.6316	0.7288	0.177	-0.161
Mof_H 	H 	0.638	0.7609	0.1885	0.083
Mof_C 	C 	0.6054	0.7225	0.1327	0.089
Mof_H 	H 	0.5948	0.7502	0.1147	-0.022
Mof_H 	H 	0.4708	0.8045	0.9066	0.744
Mof_O 	O 	0.44744	0.62751	0.94582	-0.468
Mof_O 	O 	0.4492	0.7104	0.949	-0.473
Mof_C 	C 	0.436	0.6702	0.93	0.402
Mof_C 	C 	0.3223	0.6975	0.7492	0.017
Mof_C 	C 	0.2811	0.6672	0.7376	-0.086
Mof_H 	H 	0.2742	0.6395	0.7574	0.057
Mof_C 	C 	0.4051	0.6749	0.8845	-0.174
Mof_C 	C 	0.3872	0.6338	0.8579	0.072
Mof_H 	H 	0.3937	0.6017	0.8693	0.003
Mof_C 	C 	0.36	0.6409	0.8148	-0.148
Mof_H 	H 	0.347	0.6133	0.7982	0.076
Mof_C 	C 	0.3514	0.6884	0.7956	0.072
Mof_C 	C 	0.3684	0.7288	0.823	-0.159
Mof_H 	H 	0.362	0.7609	0.8115	0.083
Mof_C 	C 	0.3946	0.7225	0.8673	0.088
Mof_H 	H 	0.4052	0.7502	0.8853	-0.022
Mof_H 	H 	0.5292	0.1955	0.9066	0.743
Mof_O 	O 	0.55256	0.37249	0.94582	-0.468
Mof_O 	O 	0.5508	0.2896	0.949	-0.473
Mof_C 	C 	0.564	0.3298	0.93	0.402
Mof_C 	C 	0.6777	0.3025	0.7492	0.017
Mof_C 	C 	0.7189	0.3328	0.7376	-0.087
Mof_H 	H 	0.7258	0.3605	0.7574	0.057
Mof_C 	C 	0.5949	0.3251	0.8845	-0.174
Mof_C 	C 	0.6128	0.3662	0.8579	0.072
Mof_H 	H 	0.6063	0.3983	0.8693	0.003
Mof_C 	C 	0.64	0.3591	0.8148	-0.148
Mof_H 	H 	0.653	0.3867	0.7982	0.076
Mof_C 	C 	0.6486	0.3116	0.7956	0.072
Mof_C 	C 	0.6316	0.2712	0.823	-0.159
Mof_H 	H 	0.638	0.2391	0.8115	0.083
Mof_C 	C 	0.6054	0.2775	0.8673	0.088
Mof_H 	H 	0.5948	0.2498	0.8853	-0.022
Mof_H 	H 	0.4708	0.1955	0.0934	0.709
Mof_O 	O 	0.44744	0.37249	0.05418	-0.48
Mof_O 	O 	0.4492	0.2896	0.051	-0.484
Mof_C 	C 	0.436	0.3298	0.07	0.404
Mof_C 	C 	0.3223	0.3025	0.2508	0.017
Mof_C 	C 	0.2811	0.3328	0.2624	-0.086
Mof_H 	H 	0.2742	0.3605	0.2426	0.057
Mof_C 	C 	0.4051	0.3251	0.1155	-0.178
Mof_C 	C 	0.3872	0.3662	0.1421	0.075
Mof_H 	H 	0.3937	0.3983	0.1307	-0
Mof_C 	C 	0.36	0.3591	0.1852	-0.151
Mof_H 	H 	0.347	0.3867	0.2018	0.076
Mof_C 	C 	0.3514	0.3116	0.2044	0.074
Mof_C 	C 	0.3684	0.2712	0.177	-0.161
Mof_H 	H 	0.362	0.2391	0.1885	0.083
Mof_C 	C 	0.3946	0.2775	0.1327	0.089
Mof_H 	H 	0.4052	0.2498	0.1147	-0.023
Mof_H 	H 	0.9066	0.4708	0.1955	0.743
Mof_O 	O 	0.94582	0.44744	0.37249	-0.468
Mof_O 	O 	0.949	0.4492	0.2896	-0.473
Mof_C 	C 	0.93	0.436	0.3298	0.402
Mof_C 	C 	0.7492	0.3223	0.3025	0.017
Mof_C 	C 	0.7376	0.2811	0.3328	-0.086
Mof_H 	H 	0.7574	0.2742	0.3605	0.057
Mof_C 	C 	0.8845	0.4051	0.3251	-0.174
Mof_C 	C 	0.8579	0.3872	0.3662	0.073
Mof_H 	H 	0.8693	0.3937	0.3983	0.003
Mof_C 	C 	0.8148	0.36	0.3591	-0.148
Mof_H 	H 	0.7982	0.347	0.3867	0.076
Mof_C 	C 	0.7956	0.3514	0.3116	0.072
Mof_C 	C 	0.823	0.3684	0.2712	-0.159
Mof_H 	H 	0.8115	0.362	0.2391	0.083
Mof_C 	C 	0.8673	0.3946	0.2775	0.088
Mof_H 	H 	0.8853	0.4052	0.2498	-0.022
Mof_H 	H 	0.0934	0.5292	0.1955	0.709
Mof_O 	O 	0.05418	0.55256	0.37249	-0.48
Mof_O 	O 	0.051	0.5508	0.2896	-0.484
Mof_C 	C 	0.07	0.564	0.3298	0.404
Mof_C 	C 	0.2508	0.6777	0.3025	0.017
Mof_C 	C 	0.2624	0.7189	0.3328	-0.086
Mof_H 	H 	0.2426	0.7258	0.3605	0.057
Mof_C 	C 	0.1155	0.5949	0.3251	-0.178
Mof_C 	C 	0.1421	0.6128	0.3662	0.074
Mof_H 	H 	0.1307	0.6063	0.3983	-0
Mof_C 	C 	0.1852	0.64	0.3591	-0.15
Mof_H 	H 	0.2018	0.653	0.3867	0.076
Mof_C 	C 	0.2044	0.6486	0.3116	0.073
Mof_C 	C 	0.177	0.6316	0.2712	-0.161
Mof_H 	H 	0.1885	0.638	0.2391	0.083
Mof_C 	C 	0.1327	0.6054	0.2775	0.089
Mof_H 	H 	0.1147	0.5948	0.2498	-0.022
Mof_H 	H 	0.0934	0.4708	0.8045	0.71
Mof_O 	O 	0.05418	0.44744	0.62751	-0.48
Mof_O 	O 	0.051	0.4492	0.7104	-0.484
Mof_C 	C 	0.07	0.436	0.6702	0.404
Mof_C 	C 	0.2508	0.3223	0.6975	0.017
Mof_C 	C 	0.2624	0.2811	0.6672	-0.086
Mof_H 	H 	0.2426	0.2742	0.6395	0.057
Mof_C 	C 	0.1155	0.4051	0.6749	-0.178
Mof_C 	C 	0.1421	0.3872	0.6338	0.074
Mof_H 	H 	0.1307	0.3937	0.6017	0
Mof_C 	C 	0.1852	0.36	0.6409	-0.15
Mof_H 	H 	0.2018	0.347	0.6133	0.076
Mof_C 	C 	0.2044	0.3514	0.6884	0.073
Mof_C 	C 	0.177	0.3684	0.7288	-0.161
Mof_H 	H 	0.1885	0.362	0.7609	0.083
Mof_C 	C 	0.1327	0.3946	0.7225	0.089
Mof_H 	H 	0.1147	0.4052	0.7502	-0.022
Mof_H 	H 	0.9066	0.5292	0.8045	0.744
Mof_O 	O 	0.94582	0.55256	0.62751	-0.468
Mof_O 	O 	0.949	0.5508	0.7104	-0.473
Mof_C 	C 	0.93	0.564	0.6702	0.402
Mof_C 	C 	0.7492	0.6777	0.6975	0.018
Mof_C 	C 	0.7376	0.7189	0.6672	-0.087
Mof_H 	H 	0.7574	0.7258	0.6395	0.057
Mof_C 	C 	0.8845	0.5949	0.6749	-0.173
Mof_C 	C 	0.8579	0.6128	0.6338	0.072
Mof_H 	H 	0.8693	0.6063	0.6017	0.003
Mof_C 	C 	0.8148	0.64	0.6409	-0.148
Mof_H 	H 	0.7982	0.653	0.6133	0.075
Mof_C 	C 	0.7956	0.6486	0.6884	0.072
Mof_C 	C 	0.823	0.6316	0.7288	-0.159
Mof_H 	H 	0.8115	0.638	0.7609	0.082
Mof_C 	C 	0.8673	0.6054	0.7225	0.088
Mof_H 	H 	0.8853	0.5948	0.7502	-0.021
Mof_H 	H 	0.1955	0.9066	0.4708	0.743
Mof_O 	O 	0.37249	0.94582	0.44744	-0.468
Mof_O 	O 	0.2896	0.949	0.4492	-0.473
Mof_C 	C 	0.3298	0.93	0.436	0.402
Mof_C 	C 	0.3025	0.7492	0.3223	0.017
Mof_C 	C 	0.3328	0.7376	0.2811	-0.086
Mof_H 	H 	0.3605	0.7574	0.2742	0.057
Mof_C 	C 	0.3251	0.8845	0.4051	-0.174
Mof_C 	C 	0.3662	0.8579	0.3872	0.073
Mof_H 	H 	0.3983	0.8693	0.3937	0.003
Mof_C 	C 	0.3591	0.8148	0.36	-0.148
Mof_H 	H 	0.3867	0.7982	0.347	0.076
Mof_C 	C 	0.3116	0.7956	0.3514	0.072
Mof_C 	C 	0.2712	0.823	0.3684	-0.159
Mof_H 	H 	0.2391	0.8115	0.362	0.083
Mof_C 	C 	0.2775	0.8673	0.3946	0.088
Mof_H 	H 	0.2498	0.8853	0.4052	-0.022
Mof_H 	H 	0.1955	0.0934	0.5292	0.709
Mof_O 	O 	0.37249	0.05418	0.55256	-0.48
Mof_O 	O 	0.2896	0.051	0.5508	-0.484
Mof_C 	C 	0.3298	0.07	0.564	0.404
Mof_C 	C 	0.3025	0.2508	0.6777	0.017
Mof_C 	C 	0.3328	0.2624	0.7189	-0.086
Mof_H 	H 	0.3605	0.2426	0.7258	0.057
Mof_C 	C 	0.3251	0.1155	0.5949	-0.178
Mof_C 	C 	0.3662	0.1421	0.6128	0.074
Mof_H 	H 	0.3983	0.1307	0.6063	-0
Mof_C 	C 	0.3591	0.1852	0.64	-0.15
Mof_H 	H 	0.3867	0.2018	0.653	0.076
Mof_C 	C 	0.3116	0.2044	0.6486	0.073
Mof_C 	C 	0.2712	0.177	0.6316	-0.161
Mof_H 	H 	0.2391	0.1885	0.638	0.083
Mof_C 	C 	0.2775	0.1327	0.6054	0.089
Mof_H 	H 	0.2498	0.1147	0.5948	-0.022
Mof_H 	H 	0.8045	0.0934	0.4708	0.71
Mof_O 	O 	0.62751	0.05418	0.44744	-0.48
Mof_O 	O 	0.7104	0.051	0.4492	-0.484
Mof_C 	C 	0.6702	0.07	0.436	0.404
Mof_C 	C 	0.6975	0.2508	0.3223	0.017
Mof_C 	C 	0.6672	0.2624	0.2811	-0.086
Mof_H 	H 	0.6395	0.2426	0.2742	0.057
Mof_C 	C 	0.6749	0.1155	0.4051	-0.178
Mof_C 	C 	0.6338	0.1421	0.3872	0.074
Mof_H 	H 	0.6017	0.1307	0.3937	0
Mof_C 	C 	0.6409	0.1852	0.36	-0.15
Mof_H 	H 	0.6133	0.2018	0.347	0.076
Mof_C 	C 	0.6884	0.2044	0.3514	0.073
Mof_C 	C 	0.7288	0.177	0.3684	-0.161
Mof_H 	H 	0.7609	0.1885	0.362	0.083
Mof_C 	C 	0.7225	0.1327	0.3946	0.089
Mof_H 	H 	0.7502	0.1147	0.4052	-0.022
Mof_H 	H 	0.8045	0.9066	0.5292	0.744
Mof_O 	O 	0.62751	0.94582	0.55256	-0.468
Mof_O 	O 	0.7104	0.949	0.5508	-0.473
Mof_C 	C 	0.6702	0.93	0.564	0.402
Mof_C 	C 	0.6975	0.7492	0.6777	0.018
Mof_C 	C 	0.6672	0.7376	0.7189	-0.087
Mof_H 	H 	0.6395	0.7574	0.7258	0.057
Mof_C 	C 	0.6749	0.8845	0.5949	-0.173
Mof_C 	C 	0.6338	0.8579	0.6128	0.072
Mof_H 	H 	0.6017	0.8693	0.6063	0.003
Mof_C 	C 	0.6409	0.8148	0.64	-0.148
Mof_H 	H 	0.6133	0.7982	0.653	0.075
Mof_C 	C 	0.6884	0.7956	0.6486	0.072
Mof_C 	C 	0.7288	0.823	0.6316	-0.159
Mof_H 	H 	0.7609	0.8115	0.638	0.082
Mof_C 	C 	0.7225	0.8673	0.6054	0.088
Mof_H 	H 	0.7502	0.8853	0.5948	-0.021
Mof_H 	H 	0.4708	0.1955	0.9066	0.743
Mof_O 	O 	0.44744	0.37249	0.94582	-0.468
Mof_O 	O 	0.4492	0.2896	0.949	-0.473
Mof_C 	C 	0.436	0.3298	0.93	0.402
Mof_C 	C 	0.3223	0.3025	0.7492	0.017
Mof_C 	C 	0.2811	0.3328	0.7376	-0.086
Mof_H 	H 	0.2742	0.3605	0.7574	0.057
Mof_C 	C 	0.4051	0.3251	0.8845	-0.174
Mof_C 	C 	0.3872	0.3662	0.8579	0.073
Mof_H 	H 	0.3937	0.3983	0.8693	0.003
Mof_C 	C 	0.36	0.3591	0.8148	-0.148
Mof_H 	H 	0.347	0.3867	0.7982	0.076
Mof_C 	C 	0.3514	0.3116	0.7956	0.072
Mof_C 	C 	0.3684	0.2712	0.823	-0.159
Mof_H 	H 	0.362	0.2391	0.8115	0.083
Mof_C 	C 	0.3946	0.2775	0.8673	0.088
Mof_H 	H 	0.4052	0.2498	0.8853	-0.022
Mof_H 	H 	0.5292	0.1955	0.0934	0.709
Mof_O 	O 	0.55256	0.37249	0.05418	-0.48
Mof_O 	O 	0.5508	0.2896	0.051	-0.484
Mof_C 	C 	0.564	0.3298	0.07	0.404
Mof_C 	C 	0.6777	0.3025	0.2508	0.017
Mof_C 	C 	0.7189	0.3328	0.2624	-0.086
Mof_H 	H 	0.7258	0.3605	0.2426	0.057
Mof_C 	C 	0.5949	0.3251	0.1155	-0.178
Mof_C 	C 	0.6128	0.3662	0.1421	0.074
Mof_H 	H 	0.6063	0.3983	0.1307	-0
Mof_C 	C 	0.64	0.3591	0.1852	-0.15
Mof_H 	H 	0.653	0.3867	0.2018	0.076
Mof_C 	C 	0.6486	0.3116	0.2044	0.073
Mof_C 	C 	0.6316	0.2712	0.177	-0.161
Mof_H 	H 	0.638	0.2391	0.1885	0.083
Mof_C 	C 	0.6054	0.2775	0.1327	0.089
Mof_H 	H 	0.5948	0.2498	0.1147	-0.022
Mof_H 	H 	0.4708	0.8045	0.0934	0.71
Mof_O 	O 	0.44744	0.62751	0.05418	-0.48
Mof_O 	O 	0.4492	0.7104	0.051	-0.484
Mof_C 	C 	0.436	0.6702	0.07	0.404
Mof_C 	C 	0.3223	0.6975	0.2508	0.017
Mof_C 	C 	0.2811	0.6672	0.2624	-0.086
Mof_H 	H 	0.2742	0.6395	0.2426	0.057
Mof_C 	C 	0.4051	0.6749	0.1155	-0.178
Mof_C 	C 	0.3872	0.6338	0.1421	0.074
Mof_H 	H 	0.3937	0.6017	0.1307	0
Mof_C 	C 	0.36	0.6409	0.1852	-0.15
Mof_H 	H 	0.347	0.6133	0.2018	0.076
Mof_C 	C 	0.3514	0.6884	0.2044	0.073
Mof_C 	C 	0.3684	0.7288	0.177	-0.161
Mof_H 	H 	0.362	0.7609	0.1885	0.083
Mof_C 	C 	0.3946	0.7225	0.1327	0.089
Mof_H 	H 	0.4052	0.7502	0.1147	-0.022
Mof_H 	H 	0.5292	0.8045	0.9066	0.744
Mof_O 	O 	0.55256	0.62751	0.94582	-0.468
Mof_O 	O 	0.5508	0.7104	0.949	-0.473
Mof_C 	C 	0.564	0.6702	0.93	0.402
Mof_C 	C 	0.6777	0.6975	0.7492	0.018
Mof_C 	C 	0.7189	0.6672	0.7376	-0.087
Mof_H 	H 	0.7258	0.6395	0.7574	0.057
Mof_C 	C 	0.5949	0.6749	0.8845	-0.173
Mof_C 	C 	0.6128	0.6338	0.8579	0.072
Mof_H 	H 	0.6063	0.6017	0.8693	0.003
Mof_C 	C 	0.64	0.6409	0.8148	-0.148
Mof_H 	H 	0.653	0.6133	0.7982	0.075
Mof_C 	C 	0.6486	0.6884	0.7956	0.072
Mof_C 	C 	0.6316	0.7288	0.823	-0.159
Mof_H 	H 	0.638	0.7609	0.8115	0.082
Mof_C 	C 	0.6054	0.7225	0.8673	0.088
Mof_H 	H 	0.5948	0.7502	0.8853	-0.021
Mof_Ni	Ni	-2.53067e-33	0.5	0.72163	1.113
Mof_Ni	Ni	1.27804e-32	0.5	0.61549	1.048
Mof_N 	N 	1.3458e-32	0.5	0.7962	-0.723
Mof_Ni	Ni	8.89824e-33	0.5	0.27837	1.113
Mof_Ni	Ni	-1.17649e-33	0.5	0.38451	1.048
Mof_N 	N 	8.61865e-33	0.5	0.2038	-0.722
Mof_Ni	Ni	0.72163	0	0.5	1.113
Mof_Ni	Ni	0.61549	0	0.5	1.048
Mof_N 	N 	0.7962	0	0.5	-0.723
Mof_Ni	Ni	0.27837	0	0.5	1.113
Mof_Ni	Ni	0.38451	0	0.5	1.048
Mof_N 	N 	0.2038	0	0.5	-0.722
Mof_Ni	Ni	0.5	0.72163	-0	1.113
Mof_Ni	Ni	0.5	0.61549	-0	1.048
Mof_N 	N 	0.5	0.7962	-0	-0.723
Mof_Ni	Ni	0.5	0.27837	-0	1.113
Mof_Ni	Ni	0.5	0.38451	-0	1.048
Mof_N 	N 	0.5	0.2038	-0	-0.722
Mof_C 	C 	0.0352	0.5	0.8269	1.045
Mof_N 	N 	0.0237	0.5	0.8725	-0.406
Mof_H 	H 	0.0434	0.5	0.8978	0.145
Mof_C 	C 	0.0831	0.5	0.8224	-2.318
Mof_H 	H 	0.0981	0.5	0.8549	0.711
Mof_C 	C 	0.9648	0.5	0.8269	1.113
Mof_N 	N 	0.9763	0.5	0.8725	-0.407
Mof_H 	H 	0.9566	0.5	0.8978	0.152
Mof_C 	C 	0.9169	0.5	0.8224	-2.43
Mof_H 	H 	0.9019	0.5	0.8549	0.745
Mof_C 	C 	0.9648	0.5	0.1731	1.111
Mof_N 	N 	0.9763	0.5	0.1275	-0.406
Mof_H 	H 	0.9566	0.5	0.1022	0.149
Mof_C 	C 	0.9169	0.5	0.1776	-2.427
Mof_H 	H 	0.9019	0.5	0.1451	0.744
Mof_C 	C 	0.0352	0.5	0.1731	1.043
Mof_N 	N 	0.0237	0.5	0.1275	-0.405
Mof_H 	H 	0.0434	0.5	0.1022	0.142
Mof_C 	C 	0.0831	0.5	0.1776	-2.315
Mof_H 	H 	0.0981	0.5	0.1451	0.71
Mof_C 	C 	0.8269	0.0352	0.5	1.045
Mof_N 	N 	0.8725	0.0237	0.5	-0.406
Mof_H 	H 	0.8978	0.0434	0.5	0.145
Mof_C 	C 	0.8224	0.0831	0.5	-2.318
Mof_H 	H 	0.8549	0.0981	0.5	0.711
Mof_C 	C 	0.8269	0.9648	0.5	1.113
Mof_N 	N 	0.8725	0.9763	0.5	-0.407
Mof_H 	H 	0.8978	0.9566	0.5	0.152
Mof_C 	C 	0.8224	0.9169	0.5	-2.43
Mof_H 	H 	0.8549	0.9019	0.5	0.745
Mof_C 	C 	0.1731	0.9648	0.5	1.111
Mof_N 	N 	0.1275	0.9763	0.5	-0.406
Mof_H 	H 	0.1022	0.9566	0.5	0.149
Mof_C 	C 	0.1776	0.9169	0.5	-2.427
Mof_H 	H 	0.1451	0.9019	0.5	0.744
Mof_C 	C 	0.1731	0.0352	0.5	1.043
Mof_N 	N 	0.1275	0.0237	0.5	-0.405
Mof_H 	H 	0.1022	0.0434	0.5	0.142
Mof_C 	C 	0.1776	0.0831	0.5	-2.315
Mof_H 	H 	0.1451	0.0981	0.5	0.71
Mof_C 	C 	0.5	0.8269	0.0352	1.045
Mof_N 	N 	0.5	0.8725	0.0237	-0.406
Mof_H 	H 	0.5	0.8978	0.0434	0.145
Mof_C 	C 	0.5	0.8224	0.0831	-2.318
Mof_H 	H 	0.5	0.8549	0.0981	0.711
Mof_C 	C 	0.5	0.8269	0.9648	1.113
Mof_N 	N 	0.5	0.8725	0.9763	-0.407
Mof_H 	H 	0.5	0.8978	0.9566	0.152
Mof_C 	C 	0.5	0.8224	0.9169	-2.43
Mof_H 	H 	0.5	0.8549	0.9019	0.745
Mof_C 	C 	0.5	0.1731	0.9648	1.111
Mof_N 	N 	0.5	0.1275	0.9763	-0.406
Mof_H 	H 	0.5	0.1022	0.9566	0.149
Mof_C 	C 	0.5	0.1776	0.9169	-2.427
Mof_H 	H 	0.5	0.1451	0.9019	0.744
Mof_C 	C 	0.5	0.1731	0.0352	1.043
Mof_N 	N 	0.5	0.1275	0.0237	-0.405
Mof_H 	H 	0.5	0.1022	0.0434	0.142
Mof_C 	C 	0.5	0.1776	0.0831	-2.315
Mof_H 	H 	0.5	0.1451	0.0981	0.71
_end
