data_functionalizedCrystal
_audit_creation_method	'EQeq! by Chris Wilmer'
_symmetry_space_group_name_H-M	'P1'
_symmetry_Int_Tables_number	1
_symmetry_cell_setting	triclinic
loop_
_symmetry_equiv_pos_as_xyz
  x,y,z
_cell_length_a	15.8774
_cell_length_b	15.8774
_cell_length_c	21.474
_cell_angle_alpha	90
_cell_angle_beta	90
_cell_angle_gamma	90
loop_
_atom_site_label
_atom_site_type_symbol
_atom_site_fract_x
_atom_site_fract_y
_atom_site_fract_z
_atom_site_charge
Mof_C 	C 	0.0381	0.2436	0.7131	0.077
Mof_H 	H 	0.008	0.2378	0.6751	0.009
Mof_C 	C 	0.0939	0.3101	0.7186	-0.133
Mof_H 	H 	0.1004	0.349	0.6853	0.074
Mof_C 	C 	0.1399	0.32	0.7724	0.069
Mof_C 	C 	0.1246	0.2626	0.8196	-0.129
Mof_H 	H 	0.1531	0.2676	0.8583	0.072
Mof_C 	C 	0.0676	0.1979	0.8101	0.076
Mof_H 	H 	0.0589	0.1587	0.843	0.014
Mof_C 	C 	0.2066	0.3864	0.7789	0.016
Mof_C 	C 	0.2043	0.4597	0.7423	-0.076
Mof_H 	H 	0.1591	0.4685	0.7141	0.053
Mof_C 	C 	0.2672	0.5187	0.7473	0.001
Mof_H 	H 	0.2649	0.5682	0.7225	0.025
Mof_C 	C 	0.334	0.507	0.7878	-0.079
Mof_H 	H 	0.3769	0.5484	0.7913	0.06
Mof_C 	C 	0.3374	0.434	0.8233	0.022
Mof_C 	C 	0.2734	0.3754	0.8194	-0.082
Mof_H 	H 	0.2752	0.3267	0.845	0.062
Mof_C 	C 	0.4074	0.4258	0.8672	0.091
Mof_C 	C 	0.5038	0.3747	0.9302	0.087
Mof_C 	C 	0.5592	0.3124	0.9604	0.037
Mof_C 	C 	0.5408	0.281	0.0194	-0.1
Mof_H 	H 	0.4922	0.2992	0.0414	0.07
Mof_C 	C 	0.5956	0.2224	0.0453	0.02
Mof_H 	H 	0.5855	0.2023	0.0863	0.021
Mof_C 	C 	0.6639	0.1929	0.0131	-0.102
Mof_H 	H 	0.6994	0.1517	0.0315	0.064
Mof_C 	C 	0.6818	0.2228	0.953	0.036
Mof_C 	C 	0.6276	0.2834	0.9283	-0.094
Mof_H 	H 	0.6387	0.3052	0.8879	0.061
Mof_C 	C 	0.7539	0.1925	0.9161	0.056
Mof_C 	C 	0.7982	0.1185	0.9304	-0.125
Mof_H 	H 	0.7858	0.0885	0.9675	0.076
Mof_C 	C 	0.8597	0.0893	0.8906	0.074
Mof_H 	H 	0.8892	0.0396	0.902	0.014
Mof_C 	C 	0.8433	0.2012	0.8262	0.068
Mof_H 	H 	0.8606	0.2317	0.7904	0.009
Mof_C 	C 	0.7824	0.2356	0.8635	-0.125
Mof_H 	H 	0.7593	0.2891	0.8535	0.068
Mof_N 	N 	0.0241	0.1874	0.7576	-0.151
Mof_N 	N 	0.4453	0.4899	0.89415	-0.1
Mof_N 	N 	0.5065	0.4569	0.9335	-0.114
Mof_N 	N 	0.443	0.3525	0.88863	-0.105
Mof_N 	N 	0.4235	0.2711	0.8676	-0.209
Mof_H 	H 	0.4721	0.2439	0.8573	0.111
Mof_H 	H 	0.3968	0.2423	0.8985	0.111
Mof_N 	N 	0.88	0.1264	0.8376	-0.152
Mof_C 	C 	0.9619	0.7564	0.2131	0.076
Mof_H 	H 	0.992	0.7622	0.1751	0.008
Mof_C 	C 	0.9061	0.6899	0.2186	-0.134
Mof_H 	H 	0.8996	0.651	0.1853	0.073
Mof_C 	C 	0.8601	0.68	0.2724	0.068
Mof_C 	C 	0.8754	0.7374	0.3196	-0.13
Mof_H 	H 	0.8469	0.7324	0.3583	0.07
Mof_C 	C 	0.9324	0.8021	0.3101	0.075
Mof_H 	H 	0.9411	0.8413	0.343	0.014
Mof_C 	C 	0.7934	0.6136	0.2789	0.016
Mof_C 	C 	0.7957	0.5403	0.2423	-0.076
Mof_H 	H 	0.8409	0.5315	0.2141	0.053
Mof_C 	C 	0.7328	0.4813	0.2473	0.001
Mof_H 	H 	0.7351	0.4318	0.2225	0.025
Mof_C 	C 	0.666	0.493	0.2878	-0.079
Mof_H 	H 	0.6231	0.4516	0.2913	0.06
Mof_C 	C 	0.6626	0.566	0.3233	0.022
Mof_C 	C 	0.7266	0.6246	0.3194	-0.082
Mof_H 	H 	0.7248	0.6733	0.345	0.062
Mof_C 	C 	0.5926	0.5742	0.3672	0.091
Mof_C 	C 	0.4962	0.6253	0.4302	0.092
Mof_C 	C 	0.4408	0.6876	0.4604	0.018
Mof_C 	C 	0.4592	0.719	0.5194	-0.078
Mof_H 	H 	0.5078	0.7008	0.5414	0.064
Mof_C 	C 	0.4044	0.7776	0.5453	0.002
Mof_H 	H 	0.4145	0.7977	0.5863	0.028
Mof_C 	C 	0.3361	0.8071	0.5131	-0.08
Mof_H 	H 	0.3006	0.8483	0.5315	0.058
Mof_C 	C 	0.3182	0.7772	0.453	0.017
Mof_C 	C 	0.3724	0.7166	0.4283	-0.08
Mof_H 	H 	0.3613	0.6948	0.3879	0.056
Mof_C 	C 	0.2461	0.8075	0.4161	0.063
Mof_C 	C 	0.2018	0.8815	0.4304	-0.13
Mof_H 	H 	0.2142	0.9115	0.4675	0.075
Mof_C 	C 	0.1403	0.9107	0.3906	0.076
Mof_H 	H 	0.1108	0.9604	0.402	0.013
Mof_C 	C 	0.1567	0.7988	0.3262	0.07
Mof_H 	H 	0.1394	0.7683	0.2904	0.008
Mof_C 	C 	0.2176	0.7644	0.3635	-0.13
Mof_H 	H 	0.2407	0.7109	0.3535	0.07
Mof_N 	N 	0.9759	0.8126	0.2576	-0.151
Mof_N 	N 	0.5547	0.5101	0.39415	-0.101
Mof_N 	N 	0.4935	0.5431	0.4335	-0.117
Mof_N 	N 	0.557	0.6475	0.38863	-0.106
Mof_N 	N 	0.5765	0.7289	0.3676	-0.209
Mof_H 	H 	0.5279	0.7561	0.3573	0.111
Mof_H 	H 	0.6032	0.7577	0.3985	0.109
Mof_N 	N 	0.12	0.8736	0.3376	-0.153
Mof_C 	C 	0.2564	0.5381	0.4631	0.076
Mof_H 	H 	0.2622	0.508	0.4251	0.007
Mof_C 	C 	0.1899	0.5939	0.4686	-0.134
Mof_H 	H 	0.151	0.6004	0.4353	0.073
Mof_C 	C 	0.18	0.6399	0.5224	0.068
Mof_C 	C 	0.2374	0.6246	0.5696	-0.13
Mof_H 	H 	0.2324	0.6531	0.6083	0.07
Mof_C 	C 	0.3021	0.5676	0.5601	0.075
Mof_H 	H 	0.3413	0.5589	0.593	0.013
Mof_C 	C 	0.1136	0.7066	0.5289	0.016
Mof_C 	C 	0.0403	0.7043	0.4923	-0.077
Mof_H 	H 	0.0315	0.6591	0.4641	0.053
Mof_C 	C 	0.9813	0.7672	0.4973	0.002
Mof_H 	H 	0.9318	0.7649	0.4725	0.025
Mof_C 	C 	0.993	0.834	0.5378	-0.078
Mof_H 	H 	0.9516	0.8769	0.5413	0.06
Mof_C 	C 	0.066	0.8374	0.5733	0.021
Mof_C 	C 	0.1246	0.7734	0.5694	-0.081
Mof_H 	H 	0.1733	0.7752	0.595	0.062
Mof_C 	C 	0.0742	0.9074	0.6172	0.091
Mof_C 	C 	0.1253	0.0038	0.6802	0.092
Mof_C 	C 	0.1876	0.0592	0.7104	0.018
Mof_C 	C 	0.219	0.0408	0.7694	-0.076
Mof_H 	H 	0.2008	0.9922	0.7914	0.063
Mof_C 	C 	0.2776	0.0956	0.7953	0.001
Mof_H 	H 	0.2977	0.0855	0.8363	0.028
Mof_C 	C 	0.3071	0.1639	0.7631	-0.079
Mof_H 	H 	0.3483	0.1994	0.7815	0.058
Mof_C 	C 	0.2772	0.1818	0.703	0.017
Mof_C 	C 	0.2166	0.1276	0.6783	-0.08
Mof_H 	H 	0.1948	0.1387	0.6379	0.056
Mof_C 	C 	0.3075	0.2539	0.6661	0.063
Mof_C 	C 	0.3815	0.2982	0.6804	-0.13
Mof_H 	H 	0.4115	0.2858	0.7175	0.075
Mof_C 	C 	0.4107	0.3597	0.6406	0.076
Mof_H 	H 	0.4604	0.3892	0.652	0.013
Mof_C 	C 	0.2988	0.3433	0.5762	0.07
Mof_H 	H 	0.2683	0.3606	0.5404	0.008
Mof_C 	C 	0.2644	0.2824	0.6135	-0.13
Mof_H 	H 	0.2109	0.2593	0.6035	0.07
Mof_N 	N 	0.3126	0.5241	0.5076	-0.151
Mof_N 	N 	0.0101	0.9453	0.64415	-0.101
Mof_N 	N 	0.0431	0.0065	0.6835	-0.116
Mof_N 	N 	0.1475	0.943	0.63863	-0.107
Mof_N 	N 	0.2289	0.9235	0.6176	-0.209
Mof_H 	H 	0.2561	0.9721	0.6073	0.111
Mof_H 	H 	0.2577	0.8968	0.6485	0.109
Mof_N 	N 	0.3736	0.38	0.5876	-0.153
Mof_C 	C 	0.7436	0.4619	0.9631	0.08
Mof_H 	H 	0.7378	0.492	0.9251	0.007
Mof_C 	C 	0.8101	0.4061	0.9686	-0.126
Mof_H 	H 	0.849	0.3996	0.9353	0.071
Mof_C 	C 	0.82	0.3601	0.0224	0.059
Mof_C 	C 	0.7626	0.3754	0.0696	-0.127
Mof_H 	H 	0.7676	0.3469	0.1083	0.069
Mof_C 	C 	0.6979	0.4324	0.0601	0.072
Mof_H 	H 	0.6587	0.4411	0.093	0.014
Mof_C 	C 	0.8864	0.2934	0.0289	0.015
Mof_C 	C 	0.9597	0.2957	0.9923	-0.076
Mof_H 	H 	0.9685	0.3409	0.9641	0.055
Mof_C 	C 	0.0187	0.2328	0.9973	0.015
Mof_H 	H 	0.0682	0.2351	0.9725	0.022
Mof_C 	C 	0.007	0.166	0.0378	-0.092
Mof_H 	H 	0.0484	0.1231	0.0413	0.063
Mof_C 	C 	0.934	0.1626	0.0733	0.026
Mof_C 	C 	0.8754	0.2266	0.0694	-0.085
Mof_H 	H 	0.8267	0.2248	0.095	0.063
Mof_C 	C 	0.9258	0.0926	0.1172	0.089
Mof_C 	C 	0.8747	0.9962	0.1802	0.092
Mof_C 	C 	0.8124	0.9408	0.2104	0.017
Mof_C 	C 	0.781	0.9592	0.2694	-0.076
Mof_H 	H 	0.7992	0.0078	0.2914	0.063
Mof_C 	C 	0.7224	0.9044	0.2953	0.001
Mof_H 	H 	0.7023	0.9145	0.3363	0.028
Mof_C 	C 	0.6929	0.8361	0.2631	-0.079
Mof_H 	H 	0.6517	0.8006	0.2815	0.058
Mof_C 	C 	0.7228	0.8182	0.203	0.017
Mof_C 	C 	0.7834	0.8724	0.1783	-0.079
Mof_H 	H 	0.8052	0.8613	0.1379	0.055
Mof_C 	C 	0.6925	0.7461	0.1661	0.063
Mof_C 	C 	0.6185	0.7018	0.1804	-0.13
Mof_H 	H 	0.5885	0.7142	0.2175	0.075
Mof_C 	C 	0.5893	0.6403	0.1406	0.076
Mof_H 	H 	0.5396	0.6108	0.152	0.013
Mof_C 	C 	0.7012	0.6567	0.0762	0.07
Mof_H 	H 	0.7317	0.6394	0.0404	0.006
Mof_C 	C 	0.7356	0.7176	0.1135	-0.131
Mof_H 	H 	0.7891	0.7407	0.1035	0.07
Mof_N 	N 	0.6874	0.4759	0.0076	-0.154
Mof_N 	N 	0.9899	0.0547	0.14415	-0.101
Mof_N 	N 	0.9569	0.9935	0.1835	-0.116
Mof_N 	N 	0.8525	0.057	0.13863	-0.107
Mof_N 	N 	0.7711	0.0765	0.1176	-0.209
Mof_H 	H 	0.7439	0.0279	0.1073	0.11
Mof_H 	H 	0.7423	0.1032	0.1485	0.109
Mof_N 	N 	0.6264	0.62	0.0876	-0.153
Mof_C 	C 	0.4619	0.7436	0.0369	0.072
Mof_H 	H 	0.492	0.7378	0.0749	0.008
Mof_C 	C 	0.4061	0.8101	0.0314	-0.143
Mof_H 	H 	0.3996	0.849	0.0647	0.075
Mof_C 	C 	0.3601	0.82	0.9776	0.076
Mof_C 	C 	0.3754	0.7626	0.9304	-0.133
Mof_H 	H 	0.3469	0.7676	0.8917	0.071
Mof_C 	C 	0.4324	0.6979	0.9399	0.078
Mof_H 	H 	0.4411	0.6587	0.907	0.013
Mof_C 	C 	0.2934	0.8864	0.9711	0.022
Mof_C 	C 	0.2957	0.9597	0.0077	-0.084
Mof_H 	H 	0.3409	0.9685	0.0359	0.054
Mof_C 	C 	0.2328	0.0187	0.0027	-0.006
Mof_H 	H 	0.2351	0.0682	0.0275	0.026
Mof_C 	C 	0.166	0.007	0.9622	-0.069
Mof_H 	H 	0.1231	0.0484	0.9587	0.058
Mof_C 	C 	0.1626	0.934	0.9267	0.02
Mof_C 	C 	0.2266	0.8754	0.9306	-0.081
Mof_H 	H 	0.2248	0.8267	0.905	0.062
Mof_C 	C 	0.0926	0.9258	0.8828	0.092
Mof_C 	C 	0.9962	0.8747	0.8198	0.092
Mof_C 	C 	0.9408	0.8124	0.7896	0.018
Mof_C 	C 	0.9592	0.781	0.7306	-0.076
Mof_H 	H 	0.0078	0.7992	0.7086	0.063
Mof_C 	C 	0.9044	0.7224	0.7047	0.001
Mof_H 	H 	0.9145	0.7023	0.6637	0.028
Mof_C 	C 	0.8361	0.6929	0.7369	-0.08
Mof_H 	H 	0.8006	0.6517	0.7185	0.058
Mof_C 	C 	0.8182	0.7228	0.797	0.017
Mof_C 	C 	0.8724	0.7834	0.8217	-0.08
Mof_H 	H 	0.8613	0.8052	0.8621	0.057
Mof_C 	C 	0.7461	0.6925	0.8339	0.063
Mof_C 	C 	0.7018	0.6185	0.8196	-0.129
Mof_H 	H 	0.7142	0.5885	0.7825	0.075
Mof_C 	C 	0.6403	0.5893	0.8594	0.076
Mof_H 	H 	0.6108	0.5396	0.848	0.014
Mof_C 	C 	0.6567	0.7012	0.9238	0.071
Mof_H 	H 	0.6394	0.7317	0.9596	0.01
Mof_C 	C 	0.7176	0.7356	0.8865	-0.129
Mof_H 	H 	0.7407	0.7891	0.8965	0.071
Mof_N 	N 	0.4759	0.6874	0.9924	-0.147
Mof_N 	N 	0.0547	0.9899	0.85585	-0.101
Mof_N 	N 	0.9935	0.9569	0.8165	-0.116
Mof_N 	N 	0.057	0.8525	0.86137	-0.107
Mof_N 	N 	0.0765	0.7711	0.8824	-0.209
Mof_H 	H 	0.0279	0.7439	0.8927	0.111
Mof_H 	H 	0.1032	0.7423	0.8515	0.109
Mof_N 	N 	0.62	0.6264	0.9124	-0.151
Mof_C 	C 	0.5381	0.2564	0.5369	0.076
Mof_H 	H 	0.508	0.2622	0.5749	0.007
Mof_C 	C 	0.5939	0.1899	0.5314	-0.134
Mof_H 	H 	0.6004	0.151	0.5647	0.073
Mof_C 	C 	0.6399	0.18	0.4776	0.068
Mof_C 	C 	0.6246	0.2374	0.4304	-0.13
Mof_H 	H 	0.6531	0.2324	0.3917	0.07
Mof_C 	C 	0.5676	0.3021	0.4399	0.075
Mof_H 	H 	0.5589	0.3413	0.407	0.013
Mof_C 	C 	0.7066	0.1136	0.4711	0.016
Mof_C 	C 	0.7043	0.0403	0.5077	-0.077
Mof_H 	H 	0.6591	0.0315	0.5359	0.054
Mof_C 	C 	0.7672	0.9813	0.5027	0.002
Mof_H 	H 	0.7649	0.9318	0.5275	0.025
Mof_C 	C 	0.834	0.993	0.4622	-0.078
Mof_H 	H 	0.8769	0.9516	0.4587	0.06
Mof_C 	C 	0.8374	0.066	0.4267	0.021
Mof_C 	C 	0.7734	0.1246	0.4306	-0.081
Mof_H 	H 	0.7752	0.1733	0.405	0.062
Mof_C 	C 	0.9074	0.0742	0.3828	0.091
Mof_C 	C 	0.0038	0.1253	0.3198	0.092
Mof_C 	C 	0.0592	0.1876	0.2896	0.018
Mof_C 	C 	0.0408	0.219	0.2306	-0.077
Mof_H 	H 	0.9922	0.2008	0.2086	0.063
Mof_C 	C 	0.0956	0.2776	0.2047	0.001
Mof_H 	H 	0.0855	0.2977	0.1637	0.027
Mof_C 	C 	0.1639	0.3071	0.2369	-0.08
Mof_H 	H 	0.1994	0.3483	0.2185	0.058
Mof_C 	C 	0.1818	0.2772	0.297	0.017
Mof_C 	C 	0.1276	0.2166	0.3217	-0.08
Mof_H 	H 	0.1387	0.1948	0.3621	0.056
Mof_C 	C 	0.2539	0.3075	0.3339	0.063
Mof_C 	C 	0.2982	0.3815	0.3196	-0.13
Mof_H 	H 	0.2858	0.4115	0.2825	0.075
Mof_C 	C 	0.3597	0.4107	0.3594	0.076
Mof_H 	H 	0.3892	0.4604	0.348	0.013
Mof_C 	C 	0.3433	0.2988	0.4238	0.07
Mof_H 	H 	0.3606	0.2683	0.4596	0.008
Mof_C 	C 	0.2824	0.2644	0.3865	-0.13
Mof_H 	H 	0.2593	0.2109	0.3965	0.07
Mof_N 	N 	0.5241	0.3126	0.4924	-0.151
Mof_N 	N 	0.9453	0.0101	0.35585	-0.102
Mof_N 	N 	0.0065	0.0431	0.3165	-0.116
Mof_N 	N 	0.943	0.1475	0.36137	-0.107
Mof_N 	N 	0.9235	0.2289	0.3824	-0.209
Mof_H 	H 	0.9721	0.2561	0.3927	0.11
Mof_H 	H 	0.8968	0.2577	0.3515	0.109
Mof_N 	N 	0.38	0.3736	0.4124	-0.153
Mof_C 	C 	0.2436	0.0381	0.2869	0.076
Mof_H 	H 	0.2378	0.008	0.3249	0.008
Mof_C 	C 	0.3101	0.0939	0.2814	-0.134
Mof_H 	H 	0.349	0.1004	0.3147	0.073
Mof_C 	C 	0.32	0.1399	0.2276	0.068
Mof_C 	C 	0.2626	0.1246	0.1804	-0.13
Mof_H 	H 	0.2676	0.1531	0.1417	0.07
Mof_C 	C 	0.1979	0.0676	0.1899	0.075
Mof_H 	H 	0.1587	0.0589	0.157	0.013
Mof_C 	C 	0.3864	0.2066	0.2211	0.016
Mof_C 	C 	0.4597	0.2043	0.2577	-0.076
Mof_H 	H 	0.4685	0.1591	0.2859	0.053
Mof_C 	C 	0.5187	0.2672	0.2527	0.001
Mof_H 	H 	0.5682	0.2649	0.2775	0.025
Mof_C 	C 	0.507	0.334	0.2122	-0.079
Mof_H 	H 	0.5484	0.3769	0.2087	0.06
Mof_C 	C 	0.434	0.3374	0.1767	0.022
Mof_C 	C 	0.3754	0.2734	0.1806	-0.082
Mof_H 	H 	0.3267	0.2752	0.155	0.061
Mof_C 	C 	0.4258	0.4074	0.1328	0.09
Mof_C 	C 	0.3747	0.5038	0.0698	0.096
Mof_C 	C 	0.3124	0.5592	0.0396	-0.002
Mof_C 	C 	0.281	0.5408	0.9806	-0.053
Mof_H 	H 	0.2992	0.4922	0.9586	0.057
Mof_C 	C 	0.2224	0.5956	0.9547	-0.018
Mof_H 	H 	0.2023	0.5855	0.9137	0.035
Mof_C 	C 	0.1929	0.6639	0.9869	-0.055
Mof_H 	H 	0.1517	0.6994	0.9685	0.052
Mof_C 	C 	0.2228	0.6818	0.047	-0.003
Mof_C 	C 	0.2834	0.6276	0.0717	-0.064
Mof_H 	H 	0.3052	0.6387	0.1121	0.051
Mof_C 	C 	0.1925	0.7539	0.0839	0.071
Mof_C 	C 	0.1185	0.7982	0.0696	-0.135
Mof_H 	H 	0.0885	0.7858	0.0325	0.075
Mof_C 	C 	0.0893	0.8597	0.1094	0.078
Mof_H 	H 	0.0396	0.8892	0.098	0.011
Mof_C 	C 	0.2012	0.8433	0.1738	0.072
Mof_H 	H 	0.2317	0.8606	0.2096	0.007
Mof_C 	C 	0.2356	0.7824	0.1365	-0.135
Mof_H 	H 	0.2891	0.7593	0.1465	0.072
Mof_N 	N 	0.1874	0.0241	0.2424	-0.151
Mof_N 	N 	0.4899	0.4453	0.10585	-0.101
Mof_N 	N 	0.4569	0.5065	0.0665	-0.118
Mof_N 	N 	0.3525	0.443	0.11137	-0.107
Mof_N 	N 	0.2711	0.4235	0.1324	-0.209
Mof_H 	H 	0.2439	0.4721	0.1427	0.11
Mof_H 	H 	0.2423	0.3968	0.1015	0.108
Mof_N 	N 	0.1264	0.88	0.1624	-0.154
Mof_C 	C 	0.7564	0.9619	0.7869	0.077
Mof_H 	H 	0.7622	0.992	0.8249	0.008
Mof_C 	C 	0.6899	0.9061	0.7814	-0.134
Mof_H 	H 	0.651	0.8996	0.8147	0.073
Mof_C 	C 	0.68	0.8601	0.7276	0.068
Mof_C 	C 	0.7374	0.8754	0.6804	-0.13
Mof_H 	H 	0.7324	0.8469	0.6417	0.07
Mof_C 	C 	0.8021	0.9324	0.6899	0.075
Mof_H 	H 	0.8413	0.9411	0.657	0.014
Mof_C 	C 	0.6136	0.7934	0.7211	0.016
Mof_C 	C 	0.5403	0.7957	0.7577	-0.076
Mof_H 	H 	0.5315	0.8409	0.7859	0.054
Mof_C 	C 	0.4813	0.7328	0.7527	0.001
Mof_H 	H 	0.4318	0.7351	0.7775	0.025
Mof_C 	C 	0.493	0.666	0.7122	-0.079
Mof_H 	H 	0.4516	0.6231	0.7087	0.06
Mof_C 	C 	0.566	0.6626	0.6767	0.022
Mof_C 	C 	0.6246	0.7266	0.6806	-0.082
Mof_H 	H 	0.6733	0.7248	0.655	0.062
Mof_C 	C 	0.5742	0.5926	0.6328	0.091
Mof_C 	C 	0.6253	0.4962	0.5698	0.092
Mof_C 	C 	0.6876	0.4408	0.5396	0.018
Mof_C 	C 	0.719	0.4592	0.4806	-0.078
Mof_H 	H 	0.7008	0.5078	0.4586	0.064
Mof_C 	C 	0.7776	0.4044	0.4547	0.002
Mof_H 	H 	0.7977	0.4145	0.4137	0.027
Mof_C 	C 	0.8071	0.3361	0.4869	-0.08
Mof_H 	H 	0.8483	0.3006	0.4685	0.058
Mof_C 	C 	0.7772	0.3182	0.547	0.017
Mof_C 	C 	0.7166	0.3724	0.5717	-0.08
Mof_H 	H 	0.6948	0.3613	0.6121	0.056
Mof_C 	C 	0.8075	0.2461	0.5839	0.063
Mof_C 	C 	0.8815	0.2018	0.5696	-0.13
Mof_H 	H 	0.9115	0.2142	0.5325	0.075
Mof_C 	C 	0.9107	0.1403	0.6094	0.076
Mof_H 	H 	0.9604	0.1108	0.598	0.013
Mof_C 	C 	0.7988	0.1567	0.6738	0.07
Mof_H 	H 	0.7683	0.1394	0.7096	0.008
Mof_C 	C 	0.7644	0.2176	0.6365	-0.13
Mof_H 	H 	0.7109	0.2407	0.6465	0.07
Mof_N 	N 	0.8126	0.9759	0.7424	-0.151
Mof_N 	N 	0.5101	0.5547	0.60585	-0.101
Mof_N 	N 	0.5431	0.4935	0.5665	-0.117
Mof_N 	N 	0.6475	0.557	0.61137	-0.106
Mof_N 	N 	0.7289	0.5765	0.6324	-0.209
Mof_H 	H 	0.7561	0.5279	0.6427	0.111
Mof_H 	H 	0.7577	0.6032	0.6015	0.109
Mof_N 	N 	0.8736	0.12	0.6624	-0.153
Mof_Cd	Cd	0.94079	0.05921	0.75	0.381
Mof_Cd	Cd	0.05921	0.94079	0.25	0.381
Mof_Cd	Cd	0.44079	0.44079	0.5	0.383
Mof_Cd	Cd	0.55921	0.55921	-0	0.376
_end
