data_functionalizedCrystal
_audit_creation_method	'EQeq! by Chris Wilmer'
_symmetry_space_group_name_H-M	'P1'
_symmetry_Int_Tables_number	1
_symmetry_cell_setting	triclinic
loop_
_symmetry_equiv_pos_as_xyz
  x,y,z
_cell_length_a	13.2242
_cell_length_b	38.366
_cell_length_c	13.2515
_cell_angle_alpha	90
_cell_angle_beta	99.752
_cell_angle_gamma	90
loop_
_atom_site_label
_atom_site_type_symbol
_atom_site_fract_x
_atom_site_fract_y
_atom_site_fract_z
_atom_site_charge
Mof_La	La	0.24087	0.37495	0.72859	2.213
Mof_O 	O 	0.3149	0.43533	0.7677	-0.316
Mof_O 	O 	0.2282	0.3123	0.6819	-0.327
Mof_O 	O 	0.8094	0.59557	0.4409	-0.324
Mof_O 	O 	0.5578	0.13942	0.1565	-0.312
Mof_O 	O 	0.3792	0.36782	0.6229	-0.319
Mof_O 	O 	0.4046	0.36464	0.8402	-0.335
Mof_O 	O 	0.2193	0.34339	0.8863	-0.326
Mof_O 	O 	0.1188	0.41062	0.8108	-0.322
Mof_N 	N 	0.263	0.46377	0.731	-0.074
Mof_N 	N 	0.2741	0.28729	0.7439	-0.07
Mof_N 	N 	0.8924	0.57953	0.4888	-0.061
Mof_N 	N 	0.514	0.1629	0.0888	-0.066
Mof_N 	N 	0.3645	0.3647	0.5217	-0.067
Mof_N 	N 	0.5032	0.37098	0.8375	-0.057
Mof_N 	N 	0.2465	0.34782	0.9871	-0.062
Mof_N 	N 	0.022	0.40401	0.8233	-0.062
Mof_C 	C 	0.2007	0.4797	0.7848	0.059
Mof_H 	H 	0.1997	0.4726	0.8533	0.026
Mof_C 	C 	0.138	0.50622	0.7434	-0.113
Mof_H 	H 	0.0945	0.5173	0.7838	0.067
Mof_C 	C 	0.1367	0.51704	0.644	0.045
Mof_C 	C 	0.2084	0.50184	0.5925	-0.106
Mof_H 	H 	0.2136	0.5097	0.5256	0.065
Mof_C 	C 	0.2725	0.47539	0.6366	0.053
Mof_H 	H 	0.3224	0.4656	0.6012	0.02
Mof_C 	C 	0.2164	0.26774	0.7964	0.063
Mof_H 	H 	0.1444	0.2714	0.7875	0.022
Mof_C 	C 	0.2612	0.24236	0.8628	-0.111
Mof_H 	H 	0.2205	0.2289	0.9009	0.068
Mof_C 	C 	0.3672	0.23653	0.8738	0.045
Mof_C 	C 	0.4223	0.25686	0.8176	-0.109
Mof_H 	H 	0.4941	0.2533	0.8232	0.065
Mof_C 	C 	0.3757	0.28229	0.7534	0.053
Mof_H 	H 	0.4152	0.2963	0.7157	0.018
Mof_C 	C 	0.9578	0.56407	0.4357	0.057
Mof_H 	H 	0.9474	0.5664	0.3633	0.014
Mof_C 	C 	0.039	0.54507	0.4843	-0.106
Mof_H 	H 	0.0845	0.5346	0.445	0.066
Mof_C 	C 	0.0566	0.54075	0.5899	0.042
Mof_C 	C 	0.99	0.55859	0.6431	-0.107
Mof_H 	H 	0.0008	0.5577	0.7158	0.065
Mof_C 	C 	0.9089	0.57736	0.5915	0.051
Mof_H 	H 	0.8637	0.589	0.6289	0.028
Mof_C 	C 	0.5529	0.16918	0.0037	0.066
Mof_H 	H 	0.6129	0.1572	0.9924	0.008
Mof_C 	C 	0.5069	0.19265	0.9328	-0.115
Mof_H 	H 	0.535	0.1968	0.8725	0.067
Mof_C 	C 	0.4195	0.21042	0.9484	0.048
Mof_C 	C 	0.3809	0.2029	0.0377	-0.113
Mof_H 	H 	0.3201	0.214	0.0503	0.068
Mof_C 	C 	0.4304	0.17956	0.1071	0.062
Mof_H 	H 	0.405	0.1752	0.1688	0.024
Mof_C 	C 	0.3299	0.33443	0.4789	0.044
Mof_H 	H 	0.3189	0.3152	0.521	0.023
Mof_C 	C 	0.31	0.33095	0.3733	-0.105
Mof_H 	H 	0.2857	0.3093	0.3437	0.061
Mof_C 	C 	0.3251	0.35858	0.3104	0.043
Mof_C 	C 	0.3633	0.38893	0.3581	-0.112
Mof_H 	H 	0.3767	0.4083	0.3179	0.066
Mof_C 	C 	0.3822	0.39158	0.4634	0.063
Mof_H 	H 	0.4081	0.4128	0.4946	0.02
Mof_C 	C 	0.5739	0.34779	0.8803	0.053
Mof_H 	H 	0.5529	0.327	0.9099	0.028
Mof_C 	C 	0.6772	0.35402	0.8812	-0.107
Mof_H 	H 	0.7266	0.3375	0.9117	0.064
Mof_C 	C 	0.7091	0.38392	0.8385	0.044
Mof_C 	C 	0.6332	0.40704	0.7939	-0.104
Mof_H 	H 	0.6522	0.4279	0.7632	0.065
Mof_C 	C 	0.5318	0.40017	0.7936	0.054
Mof_H 	H 	0.4811	0.4161	0.7622	0.021
Mof_C 	C 	0.296	0.37703	0.0274	0.06
Mof_H 	H 	0.3124	0.3949	0.9831	0.006
Mof_C 	C 	0.3224	0.38092	0.131	-0.11
Mof_H 	H 	0.3568	0.4015	0.1581	0.067
Mof_C 	C 	0.2995	0.35513	0.1973	0.045
Mof_C 	C 	0.2488	0.32575	0.1526	-0.111
Mof_H 	H 	0.2317	0.3075	0.195	0.063
Mof_C 	C 	0.2232	0.32276	0.0486	0.058
Mof_H 	H 	0.1882	0.3025	0.0198	0.023
Mof_C 	C 	0.9953	0.37266	0.8541	0.047
Mof_H 	H 	0.0459	0.3551	0.8717	0.024
Mof_C 	C 	0.8925	0.36575	0.8603	-0.1
Mof_H 	H 	0.8736	0.3433	0.8812	0.061
Mof_C 	C 	0.8184	0.39117	0.8363	0.043
Mof_C 	C 	0.8524	0.42343	0.8091	-0.109
Mof_H 	H 	0.8044	0.442	0.795	0.064
Mof_C 	C 	0.9526	0.42943	0.802	0.057
Mof_H 	H 	0.9732	0.4518	0.7819	0.02
Mof_La	La	0.25913	0.87495	0.77141	2.214
Mof_O 	O 	0.1851	0.93533	0.7323	-0.315
Mof_O 	O 	0.2718	0.8123	0.8181	-0.326
Mof_O 	O 	0.6906	0.09557	0.0591	-0.323
Mof_O 	O 	0.9422	0.63942	0.3435	-0.31
Mof_O 	O 	0.1208	0.86782	0.8771	-0.318
Mof_O 	O 	0.0954	0.86464	0.6598	-0.335
Mof_O 	O 	0.2807	0.84339	0.6137	-0.325
Mof_O 	O 	0.3812	0.91062	0.6892	-0.322
Mof_N 	N 	0.237	0.96377	0.769	-0.074
Mof_N 	N 	0.2259	0.78729	0.7561	-0.07
Mof_N 	N 	0.6076	0.07953	0.0112	-0.061
Mof_N 	N 	0.986	0.6629	0.4112	-0.065
Mof_N 	N 	0.1355	0.8647	0.9783	-0.066
Mof_N 	N 	0.9968	0.87098	0.6625	-0.057
Mof_N 	N 	0.2535	0.84782	0.5129	-0.062
Mof_N 	N 	0.478	0.90401	0.6767	-0.064
Mof_C 	C 	0.2993	0.9797	0.7152	0.059
Mof_H 	H 	0.3003	0.9726	0.6467	0.025
Mof_C 	C 	0.362	0.00622	0.7566	-0.114
Mof_H 	H 	0.4055	0.0173	0.7162	0.067
Mof_C 	C 	0.3633	0.01704	0.856	0.045
Mof_C 	C 	0.2916	0.00184	0.9075	-0.106
Mof_H 	H 	0.2864	0.0097	0.9744	0.065
Mof_C 	C 	0.2275	0.97539	0.8634	0.053
Mof_H 	H 	0.1776	0.9656	0.8988	0.02
Mof_C 	C 	0.2836	0.76774	0.7036	0.063
Mof_H 	H 	0.3556	0.7714	0.7125	0.022
Mof_C 	C 	0.2388	0.74236	0.6372	-0.112
Mof_H 	H 	0.2795	0.7289	0.5991	0.068
Mof_C 	C 	0.1328	0.73653	0.6262	0.046
Mof_C 	C 	0.0777	0.75686	0.6824	-0.11
Mof_H 	H 	0.0059	0.7533	0.6768	0.065
Mof_C 	C 	0.1243	0.78229	0.7466	0.054
Mof_H 	H 	0.0848	0.7963	0.7843	0.018
Mof_C 	C 	0.5422	0.06407	0.0643	0.056
Mof_H 	H 	0.5526	0.0664	0.1367	0.014
Mof_C 	C 	0.461	0.04507	0.0157	-0.105
Mof_H 	H 	0.4155	0.0346	0.055	0.066
Mof_C 	C 	0.4434	0.04075	0.9101	0.041
Mof_C 	C 	0.51	0.05859	0.8569	-0.106
Mof_H 	H 	0.4992	0.0577	0.7842	0.064
Mof_C 	C 	0.5911	0.07736	0.9085	0.05
Mof_H 	H 	0.6363	0.089	0.8711	0.028
Mof_C 	C 	0.9471	0.66918	0.4963	0.064
Mof_H 	H 	0.8871	0.6572	0.5076	0.009
Mof_C 	C 	0.9931	0.69265	0.5672	-0.113
Mof_H 	H 	0.965	0.6968	0.6275	0.067
Mof_C 	C 	0.0805	0.71042	0.5516	0.047
Mof_C 	C 	0.1191	0.7029	0.4623	-0.112
Mof_H 	H 	0.1799	0.714	0.4497	0.068
Mof_C 	C 	0.0696	0.67956	0.3929	0.06
Mof_H 	H 	0.095	0.6752	0.3312	0.024
Mof_C 	C 	0.1701	0.83443	0.0211	0.041
Mof_H 	H 	0.1811	0.8152	0.979	0.024
Mof_C 	C 	0.19	0.83095	0.1267	-0.103
Mof_H 	H 	0.2143	0.8093	0.1563	0.06
Mof_C 	C 	0.1749	0.85858	0.1896	0.042
Mof_C 	C 	0.1367	0.88893	0.1419	-0.111
Mof_H 	H 	0.1233	0.9083	0.1821	0.066
Mof_C 	C 	0.1178	0.89158	0.0366	0.061
Mof_H 	H 	0.0919	0.9128	0.0054	0.02
Mof_C 	C 	0.9261	0.84779	0.6197	0.052
Mof_H 	H 	0.9471	0.827	0.5901	0.029
Mof_C 	C 	0.8228	0.85402	0.6188	-0.106
Mof_H 	H 	0.7734	0.8375	0.5883	0.064
Mof_C 	C 	0.7909	0.88392	0.6615	0.043
Mof_C 	C 	0.8668	0.90704	0.7061	-0.103
Mof_H 	H 	0.8478	0.9279	0.7368	0.064
Mof_C 	C 	0.9682	0.90017	0.7064	0.053
Mof_H 	H 	0.0189	0.9161	0.7378	0.021
Mof_C 	C 	0.204	0.87703	0.4726	0.061
Mof_H 	H 	0.1876	0.8949	0.5169	0.005
Mof_C 	C 	0.1776	0.88092	0.369	-0.111
Mof_H 	H 	0.1432	0.9015	0.3419	0.067
Mof_C 	C 	0.2005	0.85513	0.3027	0.046
Mof_C 	C 	0.2512	0.82575	0.3474	-0.112
Mof_H 	H 	0.2683	0.8075	0.305	0.064
Mof_C 	C 	0.2768	0.82276	0.4514	0.059
Mof_H 	H 	0.3118	0.8025	0.4802	0.023
Mof_C 	C 	0.5047	0.87266	0.6459	0.05
Mof_H 	H 	0.4541	0.8551	0.6283	0.022
Mof_C 	C 	0.6075	0.86575	0.6397	-0.102
Mof_H 	H 	0.6264	0.8433	0.6188	0.062
Mof_C 	C 	0.6816	0.89117	0.6637	0.044
Mof_C 	C 	0.6476	0.92343	0.6909	-0.11
Mof_H 	H 	0.6956	0.942	0.705	0.064
Mof_C 	C 	0.5474	0.92943	0.698	0.059
Mof_H 	H 	0.5268	0.9518	0.7181	0.02
Mof_La	La	0.75913	0.62505	0.27141	2.214
Mof_O 	O 	0.6851	0.56467	0.2323	-0.315
Mof_O 	O 	0.7718	0.6877	0.3181	-0.326
Mof_O 	O 	0.1906	0.40443	0.5591	-0.323
Mof_O 	O 	0.4422	0.86058	0.8435	-0.311
Mof_O 	O 	0.6208	0.63218	0.3771	-0.318
Mof_O 	O 	0.5954	0.63536	0.1598	-0.334
Mof_O 	O 	0.7807	0.65661	0.1137	-0.325
Mof_O 	O 	0.8812	0.58938	0.1892	-0.322
Mof_N 	N 	0.737	0.53623	0.269	-0.074
Mof_N 	N 	0.7259	0.71271	0.2561	-0.07
Mof_N 	N 	0.1076	0.42047	0.5112	-0.061
Mof_N 	N 	0.486	0.8371	0.9112	-0.066
Mof_N 	N 	0.6355	0.6353	0.4783	-0.067
Mof_N 	N 	0.4968	0.62902	0.1625	-0.057
Mof_N 	N 	0.7535	0.65218	0.0129	-0.062
Mof_N 	N 	0.978	0.59599	0.1767	-0.062
Mof_C 	C 	0.7993	0.5203	0.2152	0.059
Mof_H 	H 	0.8003	0.5274	0.1467	0.026
Mof_C 	C 	0.862	0.49378	0.2566	-0.113
Mof_H 	H 	0.9055	0.4827	0.2162	0.067
Mof_C 	C 	0.8633	0.48296	0.356	0.045
Mof_C 	C 	0.7916	0.49816	0.4075	-0.106
Mof_H 	H 	0.7864	0.4903	0.4744	0.065
Mof_C 	C 	0.7275	0.52461	0.3634	0.053
Mof_H 	H 	0.6776	0.5344	0.3988	0.02
Mof_C 	C 	0.7836	0.73226	0.2036	0.063
Mof_H 	H 	0.8556	0.7286	0.2125	0.022
Mof_C 	C 	0.7388	0.75764	0.1372	-0.111
Mof_H 	H 	0.7795	0.7711	0.0991	0.068
Mof_C 	C 	0.6328	0.76347	0.1262	0.045
Mof_C 	C 	0.5777	0.74314	0.1824	-0.109
Mof_H 	H 	0.5059	0.7467	0.1768	0.065
Mof_C 	C 	0.6243	0.71771	0.2466	0.053
Mof_H 	H 	0.5848	0.7037	0.2843	0.018
Mof_C 	C 	0.0422	0.43593	0.5643	0.057
Mof_H 	H 	0.0526	0.4336	0.6367	0.014
Mof_C 	C 	0.961	0.45493	0.5157	-0.106
Mof_H 	H 	0.9155	0.4654	0.555	0.066
Mof_C 	C 	0.9434	0.45925	0.4101	0.042
Mof_C 	C 	0.01	0.44141	0.3569	-0.107
Mof_H 	H 	0.9992	0.4423	0.2842	0.065
Mof_C 	C 	0.0911	0.42264	0.4085	0.051
Mof_H 	H 	0.1363	0.411	0.3711	0.028
Mof_C 	C 	0.4471	0.83082	0.9963	0.066
Mof_H 	H 	0.3871	0.8428	0.0076	0.008
Mof_C 	C 	0.4931	0.80735	0.0672	-0.115
Mof_H 	H 	0.465	0.8032	0.1275	0.067
Mof_C 	C 	0.5805	0.78958	0.0516	0.048
Mof_C 	C 	0.6191	0.7971	0.9623	-0.113
Mof_H 	H 	0.6799	0.786	0.9497	0.068
Mof_C 	C 	0.5696	0.82044	0.8929	0.062
Mof_H 	H 	0.595	0.8248	0.8312	0.024
Mof_C 	C 	0.6701	0.66557	0.5211	0.044
Mof_H 	H 	0.6811	0.6848	0.479	0.023
Mof_C 	C 	0.69	0.66905	0.6267	-0.105
Mof_H 	H 	0.7143	0.6907	0.6563	0.061
Mof_C 	C 	0.6749	0.64142	0.6896	0.043
Mof_C 	C 	0.6367	0.61107	0.6419	-0.112
Mof_H 	H 	0.6233	0.5917	0.6821	0.066
Mof_C 	C 	0.6178	0.60842	0.5366	0.063
Mof_H 	H 	0.5919	0.5872	0.5054	0.02
Mof_C 	C 	0.4261	0.65221	0.1197	0.053
Mof_H 	H 	0.4471	0.673	0.0901	0.028
Mof_C 	C 	0.3228	0.64598	0.1188	-0.107
Mof_H 	H 	0.2734	0.6625	0.0883	0.064
Mof_C 	C 	0.2909	0.61608	0.1615	0.044
Mof_C 	C 	0.3668	0.59296	0.2061	-0.104
Mof_H 	H 	0.3478	0.5721	0.2368	0.065
Mof_C 	C 	0.4682	0.59983	0.2064	0.054
Mof_H 	H 	0.5189	0.5839	0.2378	0.021
Mof_C 	C 	0.704	0.62297	0.9726	0.06
Mof_H 	H 	0.6876	0.6051	0.0169	0.006
Mof_C 	C 	0.6776	0.61908	0.869	-0.11
Mof_H 	H 	0.6432	0.5985	0.8419	0.067
Mof_C 	C 	0.7005	0.64487	0.8027	0.045
Mof_C 	C 	0.7512	0.67425	0.8474	-0.111
Mof_H 	H 	0.7683	0.6925	0.805	0.063
Mof_C 	C 	0.7768	0.67724	0.9514	0.058
Mof_H 	H 	0.8118	0.6975	0.9802	0.023
Mof_C 	C 	0.0047	0.62734	0.1459	0.047
Mof_H 	H 	0.9541	0.6449	0.1283	0.024
Mof_C 	C 	0.1075	0.63425	0.1397	-0.1
Mof_H 	H 	0.1264	0.6567	0.1188	0.061
Mof_C 	C 	0.1816	0.60883	0.1637	0.043
Mof_C 	C 	0.1476	0.57657	0.1909	-0.109
Mof_H 	H 	0.1956	0.558	0.205	0.064
Mof_C 	C 	0.0474	0.57057	0.198	0.057
Mof_H 	H 	0.0268	0.5482	0.2181	0.02
Mof_La	La	0.74087	0.12505	0.22859	2.214
Mof_O 	O 	0.8149	0.06467	0.2677	-0.315
Mof_O 	O 	0.7282	0.1877	0.1819	-0.326
Mof_O 	O 	0.3094	0.90443	0.9409	-0.323
Mof_O 	O 	0.0578	0.36058	0.6565	-0.31
Mof_O 	O 	0.8792	0.13218	0.1229	-0.318
Mof_O 	O 	0.9046	0.13536	0.3402	-0.335
Mof_O 	O 	0.7193	0.15661	0.3863	-0.325
Mof_O 	O 	0.6188	0.08938	0.3108	-0.322
Mof_N 	N 	0.763	0.03623	0.231	-0.074
Mof_N 	N 	0.7741	0.21271	0.2439	-0.07
Mof_N 	N 	0.3924	0.92047	0.9888	-0.061
Mof_N 	N 	0.014	0.3371	0.5888	-0.065
Mof_N 	N 	0.8645	0.1353	0.0217	-0.066
Mof_N 	N 	0.0032	0.12902	0.3375	-0.057
Mof_N 	N 	0.7465	0.15218	0.4871	-0.062
Mof_N 	N 	0.522	0.09599	0.3233	-0.064
Mof_C 	C 	0.7007	0.0203	0.2848	0.059
Mof_H 	H 	0.6997	0.0274	0.3533	0.025
Mof_C 	C 	0.638	0.99378	0.2434	-0.114
Mof_H 	H 	0.5945	0.9827	0.2838	0.067
Mof_C 	C 	0.6367	0.98296	0.144	0.045
Mof_C 	C 	0.7084	0.99816	0.0925	-0.106
Mof_H 	H 	0.7136	0.9903	0.0256	0.065
Mof_C 	C 	0.7725	0.02461	0.1366	0.053
Mof_H 	H 	0.8224	0.0344	0.1012	0.02
Mof_C 	C 	0.7164	0.23226	0.2964	0.063
Mof_H 	H 	0.6444	0.2286	0.2875	0.022
Mof_C 	C 	0.7612	0.25764	0.3628	-0.112
Mof_H 	H 	0.7205	0.2711	0.4009	0.068
Mof_C 	C 	0.8672	0.26347	0.3738	0.046
Mof_C 	C 	0.9223	0.24314	0.3176	-0.11
Mof_H 	H 	0.9941	0.2467	0.3232	0.065
Mof_C 	C 	0.8757	0.21771	0.2534	0.054
Mof_H 	H 	0.9152	0.2037	0.2157	0.018
Mof_C 	C 	0.4578	0.93593	0.9357	0.056
Mof_H 	H 	0.4474	0.9336	0.8633	0.014
Mof_C 	C 	0.539	0.95493	0.9843	-0.105
Mof_H 	H 	0.5845	0.9654	0.945	0.066
Mof_C 	C 	0.5566	0.95925	0.0899	0.041
Mof_C 	C 	0.49	0.94141	0.1431	-0.106
Mof_H 	H 	0.5008	0.9423	0.2158	0.064
Mof_C 	C 	0.4089	0.92264	0.0915	0.05
Mof_H 	H 	0.3637	0.911	0.1289	0.028
Mof_C 	C 	0.0529	0.33082	0.5037	0.064
Mof_H 	H 	0.1129	0.3428	0.4924	0.009
Mof_C 	C 	0.0069	0.30735	0.4328	-0.113
Mof_H 	H 	0.035	0.3032	0.3725	0.067
Mof_C 	C 	0.9195	0.28958	0.4484	0.047
Mof_C 	C 	0.8809	0.2971	0.5377	-0.112
Mof_H 	H 	0.8201	0.286	0.5503	0.068
Mof_C 	C 	0.9304	0.32044	0.6071	0.06
Mof_H 	H 	0.905	0.3248	0.6688	0.024
Mof_C 	C 	0.8299	0.16557	0.9789	0.041
Mof_H 	H 	0.8189	0.1848	0.021	0.024
Mof_C 	C 	0.81	0.16905	0.8733	-0.103
Mof_H 	H 	0.7857	0.1907	0.8437	0.06
Mof_C 	C 	0.8251	0.14142	0.8104	0.042
Mof_C 	C 	0.8633	0.11107	0.8581	-0.111
Mof_H 	H 	0.8767	0.0917	0.8179	0.066
Mof_C 	C 	0.8822	0.10842	0.9634	0.061
Mof_H 	H 	0.9081	0.0872	0.9946	0.02
Mof_C 	C 	0.0739	0.15221	0.3803	0.052
Mof_H 	H 	0.0529	0.173	0.4099	0.029
Mof_C 	C 	0.1772	0.14598	0.3812	-0.106
Mof_H 	H 	0.2266	0.1625	0.4117	0.064
Mof_C 	C 	0.2091	0.11608	0.3385	0.043
Mof_C 	C 	0.1332	0.09296	0.2939	-0.103
Mof_H 	H 	0.1522	0.0721	0.2632	0.064
Mof_C 	C 	0.0318	0.09983	0.2936	0.053
Mof_H 	H 	0.9811	0.0839	0.2622	0.021
Mof_C 	C 	0.796	0.12297	0.5274	0.061
Mof_H 	H 	0.8124	0.1051	0.4831	0.005
Mof_C 	C 	0.8224	0.11908	0.631	-0.111
Mof_H 	H 	0.8568	0.0985	0.6581	0.067
Mof_C 	C 	0.7995	0.14487	0.6973	0.046
Mof_C 	C 	0.7488	0.17425	0.6526	-0.112
Mof_H 	H 	0.7317	0.1925	0.695	0.064
Mof_C 	C 	0.7232	0.17724	0.5486	0.059
Mof_H 	H 	0.6882	0.1975	0.5198	0.023
Mof_C 	C 	0.4953	0.12734	0.3541	0.05
Mof_H 	H 	0.5459	0.1449	0.3717	0.022
Mof_C 	C 	0.3925	0.13425	0.3603	-0.102
Mof_H 	H 	0.3736	0.1567	0.3812	0.062
Mof_C 	C 	0.3184	0.10883	0.3363	0.044
Mof_C 	C 	0.3524	0.07657	0.3091	-0.11
Mof_H 	H 	0.3044	0.058	0.295	0.064
Mof_C 	C 	0.4526	0.07057	0.302	0.059
Mof_H 	H 	0.4732	0.0482	0.2819	0.02
_end
