data_functionalizedCrystal
_audit_creation_method	'EQeq! by Chris Wilmer'
_symmetry_space_group_name_H-M	'P1'
_symmetry_Int_Tables_number	1
_symmetry_cell_setting	triclinic
loop_
_symmetry_equiv_pos_as_xyz
  x,y,z
_cell_length_a	9.105
_cell_length_b	9.105
_cell_length_c	23.656
_cell_angle_alpha	90
_cell_angle_beta	90
_cell_angle_gamma	120
loop_
_atom_site_label
_atom_site_type_symbol
_atom_site_fract_x
_atom_site_fract_y
_atom_site_fract_z
_atom_site_charge
Mof_Zr	Zr	0.14872	0.85129	0.83333	3.183
Mof_Zr	Zr	0.70257	0.85129	0.5	3.189
Mof_Zr	Zr	0.14872	0.29744	0.16667	3.189
Mof_Cd	Cd	0.18669	0.37338	0.66667	0.455
Mof_Cd	Cd	0.18669	0.81331	0.33333	0.403
Mof_Cd	Cd	0.62662	0.81331	-0	0.438
Mof_C 	C 	0.2827	0.6814	0.75191	0.232
Mof_C 	C 	0.0891	0.5752	0.74852	0.263
Mof_C 	C 	0.9118	0.15	0.57813	0.368
Mof_C 	C 	0.0004	0.0457	0.58278	0.122
Mof_C 	C 	0.3987	0.7173	0.41858	0.233
Mof_C 	C 	0.4861	0.9109	0.41519	0.266
Mof_C 	C 	0.2382	0.0882	0.2448	0.471
Mof_C 	C 	0.0453	0.9996	0.24945	-0.3
Mof_C 	C 	0.3186	0.6013	0.08524	0.249
Mof_C 	C 	0.4248	0.5139	0.08185	0.243
Mof_C 	C 	0.85	0.7618	0.91146	0.302
Mof_C 	C 	0.9543	0.9547	0.91611	0.078
Mof_C 	C 	0.3987	0.6814	0.58142	0.249
Mof_C 	C 	0.4861	0.5752	0.58481	0.243
Mof_C 	C 	0.2382	0.15	0.7552	0.301
Mof_C 	C 	0.0453	0.0457	0.75055	0.076
Mof_C 	C 	0.3186	0.7173	0.91476	0.233
Mof_C 	C 	0.4248	0.9109	0.91815	0.263
Mof_C 	C 	0.85	0.0882	0.08854	0.366
Mof_C 	C 	0.9543	0.9996	0.08389	0.122
Mof_C 	C 	0.2827	0.6013	0.24809	0.233
Mof_C 	C 	0.0891	0.5139	0.25148	0.266
Mof_C 	C 	0.9118	0.7618	0.42187	0.472
Mof_C 	C 	0.0004	0.9547	0.41722	-0.302
Mof_O 	O 	0.3363	0.8116	0.78271	-0.58
Mof_O 	O 	0.3669	0.6323	0.72547	-0.224
Mof_O 	O 	0.3193	0.2803	0.72649	-0.265
Mof_O 	O 	0.0108	0.6257	0.78096	-0.659
Mof_O 	O 	0.0212	0.453	0.71619	-0.307
Mof_O 	O 	0.9264	0.9059	0.55421	-0.521
Mof_O 	O 	0.9706	0.0986	0.72093	-0.036
Mof_O 	O 	0.7877	0.0922	0.54442	-0.547
Mof_O 	O 	0.4753	0.6637	0.44938	-0.545
Mof_O 	O 	0.2654	0.6331	0.39214	-0.232
Mof_O 	O 	0.961	0.6807	0.39316	-0.255
Mof_O 	O 	0.6149	0.9892	0.44763	-0.649
Mof_O 	O 	0.4318	0.9788	0.38286	-0.305
Mof_O 	O 	0.9795	0.0736	0.22088	-0.232
Mof_O 	O 	0.128	0.0294	0.3876	-0.002
Mof_O 	O 	0.3045	0.2123	0.21109	-0.636
Mof_O 	O 	0.1884	0.5247	0.11604	-0.589
Mof_O 	O 	0.3677	0.7346	0.0588	-0.26
Mof_O 	O 	0.7197	0.039	0.05982	-0.218
Mof_O 	O 	0.3743	0.3851	0.11429	-0.58
Mof_O 	O 	0.547	0.5682	0.04952	-0.243
Mof_O 	O 	0.0941	0.0205	0.88754	-0.479
Mof_O 	O 	0.9014	0.872	0.05426	-0.195
Mof_O 	O 	0.9078	0.6955	0.87775	-0.548
Mof_O 	O 	0.4753	0.8116	0.55062	-0.588
Mof_O 	O 	0.2654	0.6323	0.60786	-0.257
Mof_O 	O 	0.961	0.2803	0.60684	-0.215
Mof_O 	O 	0.6149	0.6257	0.55237	-0.579
Mof_O 	O 	0.4318	0.453	0.61714	-0.239
Mof_O 	O 	0.9795	0.9059	0.77912	-0.481
Mof_O 	O 	0.128	0.0986	0.6124	-0.19
Mof_O 	O 	0.3045	0.0922	0.78891	-0.549
Mof_O 	O 	0.1884	0.6637	0.88396	-0.578
Mof_O 	O 	0.3677	0.6331	0.9412	-0.217
Mof_O 	O 	0.7197	0.6807	0.94018	-0.257
Mof_O 	O 	0.3743	0.9892	0.88571	-0.658
Mof_O 	O 	0.547	0.9788	0.95048	-0.299
Mof_O 	O 	0.0941	0.0736	0.11246	-0.523
Mof_O 	O 	0.9014	0.0294	0.94574	-0.029
Mof_O 	O 	0.9078	0.2123	0.12225	-0.547
Mof_O 	O 	0.3363	0.5247	0.21729	-0.545
Mof_O 	O 	0.3669	0.7346	0.27453	-0.231
Mof_O 	O 	0.3193	0.039	0.27351	-0.255
Mof_O 	O 	0.0108	0.3851	0.21904	-0.648
Mof_O 	O 	0.0212	0.5682	0.28381	-0.305
Mof_O 	O 	0.9264	0.0205	0.44579	-0.231
Mof_O 	O 	0.9706	0.872	0.27907	-0.002
Mof_O 	O 	0.7877	0.6955	0.45558	-0.636
Mof_H 	H 	0.5569	0.0811	0.7143	0.116
Mof_H 	H 	0.7398	0.1935	0.6898	0.119
Mof_H 	H 	0.545	0.3284	0.7379	0.155
Mof_H 	H 	0.7441	0.4423	0.7155	0.158
Mof_H 	H 	0.6992	0.3168	0.7716	0.162
Mof_H 	H 	0.5242	0.0811	0.61903	0.108
Mof_H 	H 	0.4537	0.1935	0.64353	0.097
Mof_H 	H 	0.7834	0.3284	0.59543	0.164
Mof_H 	H 	0.6982	0.4423	0.61783	0.143
Mof_H 	H 	0.6176	0.3168	0.56173	0.143
Mof_C 	C 	0.6314	0.1875	0.6955	-0.07
Mof_C 	C 	0.5561	0.1875	0.63783	-0.059
Mof_N 	N 	0.657	0.3301	0.7331	-0.239
Mof_N 	N 	0.6731	0.3301	0.60023	-0.239
Mof_H 	H 	0.5242	0.4431	0.38097	0.076
Mof_H 	H 	0.4537	0.2602	0.35647	0.097
Mof_H 	H 	0.7834	0.455	0.40457	0.167
Mof_H 	H 	0.6982	0.2559	0.38217	0.173
Mof_H 	H 	0.6176	0.3008	0.43827	0.154
Mof_H 	H 	0.5569	0.4758	0.2857	0.077
Mof_H 	H 	0.7398	0.5463	0.3102	0.097
Mof_H 	H 	0.545	0.2166	0.2621	0.167
Mof_H 	H 	0.7441	0.3018	0.2845	0.173
Mof_H 	H 	0.6992	0.3824	0.2284	0.154
Mof_C 	C 	0.5561	0.3686	0.36217	-0.053
Mof_C 	C 	0.6314	0.4439	0.3045	-0.053
Mof_N 	N 	0.6731	0.343	0.39977	-0.245
Mof_N 	N 	0.657	0.3269	0.2669	-0.245
Mof_H 	H 	0.9189	0.4758	0.04763	0.113
Mof_H 	H 	0.8065	0.5463	0.02313	0.1
Mof_H 	H 	0.6716	0.2166	0.07123	0.162
Mof_H 	H 	0.5577	0.3018	0.04883	0.139
Mof_H 	H 	0.6832	0.3824	0.10493	0.143
Mof_H 	H 	0.9189	0.4431	0.95237	0.112
Mof_H 	H 	0.8065	0.2602	0.97687	0.117
Mof_H 	H 	0.6716	0.455	0.92877	0.158
Mof_H 	H 	0.5577	0.2559	0.95117	0.163
Mof_H 	H 	0.6832	0.3008	0.89507	0.163
Mof_C 	C 	0.8125	0.4439	0.02883	-0.086
Mof_C 	C 	0.8125	0.3686	0.97117	-0.043
Mof_N 	N 	0.6699	0.3269	0.06643	-0.235
Mof_N 	N 	0.6699	0.343	0.93357	-0.243
_end
