data_functionalizedCrystal
_audit_creation_method	'EQeq! by Chris Wilmer'
_symmetry_space_group_name_H-M	'P1'
_symmetry_Int_Tables_number	1
_symmetry_cell_setting	triclinic
loop_
_symmetry_equiv_pos_as_xyz
  x,y,z
_cell_length_a	12.5477
_cell_length_b	15.3893
_cell_length_c	15.3893
_cell_angle_alpha	80.433
_cell_angle_beta	65.941
_cell_angle_gamma	65.941
loop_
_atom_site_label
_atom_site_type_symbol
_atom_site_fract_x
_atom_site_fract_y
_atom_site_fract_z
_atom_site_charge
Mof_Cu	Cu	0.5	0	-0	0.79
Mof_Cu	Cu	4.34208e-17	0.5	0.5	0.834
Mof_Cu	Cu	0.5	0	0.5	0.822
Mof_Cu	Cu	0.5	0.5	-0	0.821
Mof_H 	H 	0.5665	0.0464	0.7868	-0.031
Mof_H 	H 	0.3214	0.2076	0.0124	-0.111
Mof_H 	H 	0.2738	0.3385	0.9161	0.122
Mof_H 	H 	0.3712	0.3223	0.7523	-0.013
Mof_H 	H 	0.5207	0.1722	0.687	0.075
Mof_H 	H 	0.8997	0.4536	0.7132	-0.006
Mof_H 	H 	0.0414	0.2924	0.4876	-0.003
Mof_H 	H 	0.0284	0.1615	0.5839	0.077
Mof_H 	H 	0.9458	0.1777	0.7477	-0.011
Mof_H 	H 	0.8799	0.3278	0.813	0.091
Mof_H 	H 	0.3533	0.2132	0.5464	0.004
Mof_H 	H 	0.3338	0.9876	0.7076	0.113
Mof_H 	H 	0.1899	0.0839	0.8385	0.015
Mof_H 	H 	0.1235	0.2477	0.8223	0.036
Mof_H 	H 	0.2077	0.313	0.6722	0.038
Mof_H 	H 	0.6129	0.2868	0.9536	0.021
Mof_H 	H 	0.529	0.5124	0.7924	0.01
Mof_H 	H 	0.6123	0.4161	0.6615	0.069
Mof_H 	H 	0.6935	0.2523	0.6777	0.015
Mof_H 	H 	0.6929	0.187	0.8278	0.063
Mof_H 	H 	0.4335	0.9536	0.2132	0.028
Mof_H 	H 	0.6786	0.7924	0.9876	0.121
Mof_H 	H 	0.7262	0.6615	0.0839	0.015
Mof_H 	H 	0.6288	0.6777	0.2477	0.04
Mof_H 	H 	0.4793	0.8278	0.313	0.048
Mof_H 	H 	0.1003	0.5464	0.2868	-0
Mof_H 	H 	0.9586	0.7076	0.5124	0.012
Mof_H 	H 	0.9716	0.8385	0.4161	0.059
Mof_H 	H 	0.0542	0.8223	0.2523	0.039
Mof_H 	H 	0.1201	0.6722	0.187	0.031
Mof_H 	H 	0.6467	0.7868	0.4536	-0.01
Mof_H 	H 	0.6662	0.0124	0.2924	-0.104
Mof_H 	H 	0.8101	0.9161	0.1615	0.123
Mof_H 	H 	0.8765	0.7523	0.1777	-0.009
Mof_H 	H 	0.7923	0.687	0.3278	0.084
Mof_H 	H 	0.3871	0.7132	0.0464	-0.026
Mof_H 	H 	0.471	0.4876	0.2076	0.001
Mof_H 	H 	0.3877	0.5839	0.3385	0.067
Mof_H 	H 	0.3065	0.7477	0.3223	0.012
Mof_H 	H 	0.3071	0.813	0.1722	0.061
Mof_W 	W 	0.625	0.75	0.75	0.525
Mof_W 	W 	0.375	0.25	0.25	0.519
Mof_C 	C 	0.5676	0.8555	0.8501	-0.009
Mof_C 	C 	0.5057	0.1064	0.814	0.09
Mof_C 	C 	0.762	0.69	0.818	-0.032
Mof_C 	C 	0.3635	0.2003	0.9453	0.235
Mof_C 	C 	0.3339	0.2786	0.8882	-0.231
Mof_C 	C 	0.391	0.2693	0.7925	0.12
Mof_C 	C 	0.4793	0.1807	0.7541	-0.17
Mof_C 	C 	0.7732	0.6445	0.6499	-0.026
Mof_C 	C 	0.9261	0.3936	0.686	0.097
Mof_C 	C 	0.77	0.81	0.682	-0.029
Mof_C 	C 	0.0091	0.2997	0.5547	0.044
Mof_C 	C 	0.0007	0.2214	0.6118	-0.207
Mof_C 	C 	0.9528	0.2307	0.7075	0.145
Mof_C 	C 	0.9141	0.3193	0.7459	-0.162
Mof_C 	C 	0.4177	0.1499	0.3555	-0.037
Mof_C 	C 	0.3197	0.186	0.6064	0.025
Mof_C 	C 	0.58	0.182	0.19	-0.056
Mof_C 	C 	0.3088	0.0547	0.7003	-0.124
Mof_C 	C 	0.2221	0.1118	0.7786	-0.006
Mof_C 	C 	0.1835	0.2075	0.7693	-0.043
Mof_C 	C 	0.2334	0.2459	0.6807	-0.064
Mof_C 	C 	0.4231	0.3501	0.1445	-0.042
Mof_C 	C 	0.6121	0.314	0.8936	0.059
Mof_C 	C 	0.452	0.318	0.31	-0.045
Mof_C 	C 	0.5638	0.4453	0.7997	0.056
Mof_C 	C 	0.6125	0.3882	0.7214	-0.111
Mof_C 	C 	0.6603	0.2925	0.7307	0.037
Mof_C 	C 	0.66	0.2541	0.8193	-0.108
Mof_C 	C 	0.4324	0.1445	0.1499	-0.05
Mof_C 	C 	0.4943	0.8936	0.186	0.029
Mof_C 	C 	0.238	0.31	0.182	-0.054
Mof_C 	C 	0.6365	0.7997	0.0547	-0.121
Mof_C 	C 	0.6661	0.7214	0.1118	-0
Mof_C 	C 	0.609	0.7307	0.2075	-0.04
Mof_C 	C 	0.5207	0.8193	0.2459	-0.058
Mof_C 	C 	0.2268	0.3555	0.3501	-0.032
Mof_C 	C 	0.0739	0.6064	0.314	0.021
Mof_C 	C 	0.23	0.19	0.318	-0.056
Mof_C 	C 	0.9909	0.7003	0.4453	0.065
Mof_C 	C 	0.9993	0.7786	0.3882	-0.022
Mof_C 	C 	0.0472	0.7693	0.2925	-0.067
Mof_C 	C 	0.0859	0.6807	0.2541	-0.067
Mof_C 	C 	0.5823	0.8501	0.6445	-0.021
Mof_C 	C 	0.6803	0.814	0.3936	0.093
Mof_C 	C 	0.42	0.818	0.81	-0.029
Mof_C 	C 	0.6912	0.9453	0.2997	0.237
Mof_C 	C 	0.7779	0.8882	0.2214	-0.224
Mof_C 	C 	0.8165	0.7925	0.2307	0.123
Mof_C 	C 	0.7666	0.7541	0.3193	-0.165
Mof_C 	C 	0.5769	0.6499	0.8555	-0.016
Mof_C 	C 	0.3879	0.686	0.1064	0.059
Mof_C 	C 	0.548	0.682	0.69	-0.04
Mof_C 	C 	0.4362	0.5547	0.2003	0.054
Mof_C 	C 	0.3875	0.6118	0.2786	-0.118
Mof_C 	C 	0.3397	0.7075	0.2693	0.041
Mof_C 	C 	0.34	0.7459	0.1807	-0.12
Mof_N 	N 	0.4499	0.1135	0.9097	-0.248
Mof_N 	N 	0.5379	0.9111	0.9055	-0.178
Mof_N 	N 	0.8341	0.6605	0.8553	-0.08
Mof_N 	N 	0.9731	0.3865	0.5903	-0.202
Mof_N 	N 	0.8545	0.5889	0.5945	-0.213
Mof_N 	N 	0.8499	0.8395	0.6447	-0.081
Mof_N 	N 	0.3596	0.0903	0.6135	-0.2
Mof_N 	N 	0.4434	0.0945	0.4111	-0.236
Mof_N 	N 	0.6894	0.1447	0.1605	-0.119
Mof_N 	N 	0.5634	0.4097	0.8865	-0.205
Mof_N 	N 	0.449	0.4055	0.0889	-0.24
Mof_N 	N 	0.4946	0.3553	0.3395	-0.104
Mof_N 	N 	0.5501	0.8865	0.0903	-0.181
Mof_N 	N 	0.4621	0.0889	0.0945	-0.25
Mof_N 	N 	0.1659	0.3395	0.1447	-0.123
Mof_N 	N 	0.0269	0.6135	0.4097	-0.239
Mof_N 	N 	0.1455	0.4111	0.4055	-0.23
Mof_N 	N 	0.1501	0.1605	0.3553	-0.121
Mof_N 	N 	0.6404	0.9097	0.3865	-0.239
Mof_N 	N 	0.5566	0.9055	0.5889	-0.202
Mof_N 	N 	0.3106	0.8553	0.8395	-0.083
Mof_N 	N 	0.4366	0.5903	0.1135	-0.233
Mof_N 	N 	0.551	0.5945	0.9111	-0.199
Mof_N 	N 	0.5054	0.6447	0.6605	-0.099
_end
