data_functionalizedCrystal
_audit_creation_method	'EQeq! by Chris Wilmer'
_symmetry_space_group_name_H-M	'P1'
_symmetry_Int_Tables_number	1
_symmetry_cell_setting	triclinic
loop_
_symmetry_equiv_pos_as_xyz
  x,y,z
_cell_length_a	18.2151
_cell_length_b	27.286
_cell_length_c	37.614
_cell_angle_alpha	90
_cell_angle_beta	90
_cell_angle_gamma	90
loop_
_atom_site_label
_atom_site_type_symbol
_atom_site_fract_x
_atom_site_fract_y
_atom_site_fract_z
_atom_site_charge
Mof_Nd	Nd	0.62616	0.24457	0.52671	2.768
Mof_Nd	Nd	0.12616	0.74457	0.47329	2.768
Mof_Nd	Nd	0.12156	0.2516	0.90436	2.804
Mof_Nd	Nd	0.12616	0.25543	0.02671	2.766
Mof_Nd	Nd	0.87844	0.7484	0.09564	2.804
Mof_Nd	Nd	0.62156	0.2484	0.40436	2.804
Mof_Nd	Nd	0.62616	0.75543	0.97329	2.768
Mof_Nd	Nd	0.12156	0.7484	0.59564	2.804
Mof_Nd	Nd	0.37384	0.24457	0.02671	2.768
Mof_Nd	Nd	0.87384	0.74457	0.97329	2.766
Mof_Nd	Nd	0.87844	0.2516	0.40436	2.804
Mof_Nd	Nd	0.87384	0.25543	0.52671	2.768
Mof_Nd	Nd	0.37844	0.7516	0.59564	2.804
Mof_Nd	Nd	0.62156	0.7516	0.09564	2.804
Mof_Nd	Nd	0.37384	0.75543	0.47329	2.768
Mof_Nd	Nd	0.37844	0.2484	0.90436	2.804
Mof_B 	B 	0.75	0.75	0.3226	0.979
Mof_B 	B 	0.2443	0.0625	0.468	0.934
Mof_B 	B 	0.75	0.75	0.7445	0.957
Mof_B 	B 	0.2557	0.5625	0.032	0.934
Mof_B 	B 	0.25	0.75	0.2445	0.957
Mof_B 	B 	0.25	0.25	0.2555	0.957
Mof_B 	B 	0.7557	0.0625	0.968	0.933
Mof_B 	B 	0.2443	0.9375	0.032	0.933
Mof_B 	B 	0.7443	0.4375	0.968	0.934
Mof_B 	B 	0.2557	0.4375	0.468	0.934
Mof_B 	B 	0.7557	0.9375	0.532	0.934
Mof_B 	B 	0.25	0.75	0.8226	0.979
Mof_B 	B 	0.7443	0.5625	0.532	0.934
Mof_B 	B 	0.75	0.25	0.1774	0.979
Mof_B 	B 	0.75	0.25	0.7555	0.957
Mof_B 	B 	0.25	0.25	0.6774	0.979
Mof_H 	H 	0.741	0.3142	0.8394	0.237
Mof_H 	H 	0.4098	0.0345	0.404	0.208
Mof_H 	H 	0.8297	0.9614	0.5843	0.2
Mof_H 	H 	0.118	0.1444	0.5767	0.14
Mof_H 	H 	0.006	0.593	0.1039	0.143
Mof_H 	H 	0.5629	0.6812	0.4409	0.179
Mof_H 	H 	0.994	0.593	0.6039	0.145
Mof_H 	H 	0.3924	0.7414	0.0595	0.134
Mof_H 	H 	0.8356	0.6615	0.6342	0.122
Mof_H 	H 	0.6486	0.2098	0.0266	0.147
Mof_H 	H 	0.4849	0.557	0.5726	0.115
Mof_H 	H 	0.7645	0.1358	0.2897	0.169
Mof_H 	H 	0.9984	0.0767	0.3888	0.113
Mof_H 	H 	0.2535	0.8233	0.9838	0.208
Mof_H 	H 	0.1486	0.7098	0.9734	0.145
Mof_H 	H 	0.4877	0.4268	0.0251	0.158
Mof_H 	H 	0.8402	0.9775	0.4885	0.206
Mof_H 	H 	0.7246	0.6612	0.4041	0.238
Mof_H 	H 	0.4404	0.7698	0.3411	0.151
Mof_H 	H 	0.4849	0.443	0.9274	0.115
Mof_H 	H 	0.7209	0.1979	0.1141	0.243
Mof_H 	H 	0.7267	0.1481	0.928	0.224
Mof_H 	H 	0.973	0.5623	0.0726	0.138
Mof_H 	H 	0.6601	0.6359	0.9209	0.171
Mof_H 	H 	0.7272	0.3807	0.8997	0.203
Mof_H 	H 	0.7658	0.6367	0.8588	0.143
Mof_H 	H 	0.8924	0.2414	0.9405	0.134
Mof_H 	H 	0.8514	0.2902	0.0266	0.145
Mof_H 	H 	0.7094	0.828	0.8894	0.156
Mof_H 	H 	0.759	0.8142	0.6606	0.236
Mof_H 	H 	0.7728	0.8807	0.6003	0.203
Mof_H 	H 	0.6095	0.1982	0.8839	0.138
Mof_H 	H 	0.4387	0.4028	0.9957	0.178
Mof_H 	H 	0.6477	0.3108	0.055	0.139
Mof_H 	H 	0.3552	0.6745	0.261	0.207
Mof_H 	H 	0.618	0.6444	0.4233	0.14
Mof_H 	H 	0.0016	0.0767	0.8888	0.114
Mof_H 	H 	0.5412	0.693	0.1981	0.155
Mof_H 	H 	0.5016	0.4233	0.3888	0.113
Mof_H 	H 	0.4526	0.1178	0.9233	0.161
Mof_H 	H 	0.6123	0.5038	0.9138	0.21
Mof_H 	H 	0.4207	0.6458	0.6301	-0.059
Mof_H 	H 	0.6178	0.718	0.7849	0.228
Mof_H 	H 	0.9207	0.8542	0.1301	-0.059
Mof_H 	H 	0.4282	0.8001	0.7886	0.24
Mof_H 	H 	0.3877	0.4962	0.0862	0.21
Mof_H 	H 	0.6123	0.4962	0.5862	0.21
Mof_H 	H 	0.8905	0.3018	0.8839	0.138
Mof_H 	H 	0.5626	0.7932	0.473	0.168
Mof_H 	H 	0.9849	0.943	0.0726	0.115
Mof_H 	H 	0.3159	0.5067	0.3908	0.2
Mof_H 	H 	0.5222	0.3055	0.2613	0.123
Mof_H 	H 	0.2821	0.9751	0.9612	0.206
Mof_H 	H 	0.6029	0.2352	0.9965	0.155
Mof_H 	H 	0.1029	0.7352	0.0035	0.153
Mof_H 	H 	0.7435	0.3445	0.1363	0.228
Mof_H 	H 	0.5629	0.3188	0.0591	0.179
Mof_H 	H 	0.8863	0.0526	0.0392	0.195
Mof_H 	H 	0.8905	0.6982	0.6161	0.138
Mof_H 	H 	0.2917	0.3312	0.8212	0.193
Mof_H 	H 	0.8472	0.2155	0.9104	0.12
Mof_H 	H 	0.8929	0.6608	0.3139	0.228
Mof_H 	H 	0.2256	0.6445	0.1846	0.23
Mof_H 	H 	0.6801	0.459	0.4237	0.112
Mof_H 	H 	0.1801	0.041	0.9237	0.112
Mof_H 	H 	0.5123	0.5732	0.9749	0.158
Mof_H 	H 	0.6137	0.5526	0.4608	0.196
Mof_H 	H 	0.0796	0.3471	0.3626	0.149
Mof_H 	H 	0.3528	0.428	0.9549	0.118
Mof_H 	H 	0.9588	0.807	0.1981	0.155
Mof_H 	H 	0.4394	0.6846	0.2653	0.217
Mof_H 	H 	0.3905	0.8018	0.1161	0.138
Mof_H 	H 	0.7686	0.6356	0.7898	0.183
Mof_H 	H 	0.4778	0.3055	0.7613	0.123
Mof_H 	H 	0.792	0.6404	0.4574	0.204
Mof_H 	H 	0.5144	0.813	0.8244	0.134
Mof_H 	H 	0.3425	0.8044	0.7914	0.238
Mof_H 	H 	0.0596	0.7302	0.3411	0.151
Mof_H 	H 	0.6535	0.8434	0.8598	0.145
Mof_H 	H 	0.7565	0.8445	0.3637	0.228
Mof_H 	H 	0.118	0.8556	0.9233	0.14
Mof_H 	H 	0.3425	0.1956	0.7086	0.238
Mof_H 	H 	0.4624	0.815	0.3645	0.154
Mof_H 	H 	0.0312	0.1291	0.0271	0.189
Mof_H 	H 	0.1178	0.782	0.2849	0.228
Mof_H 	H 	0.5474	0.8822	0.0767	0.161
Mof_H 	H 	0.9526	0.3822	0.4233	0.161
Mof_H 	H 	0.5312	0.3709	0.5271	0.188
Mof_H 	H 	0.3257	0.9533	0.0971	0.195
Mof_H 	H 	0.1762	0.0942	0.1068	0.143
Mof_H 	H 	0.6503	0.8451	0.7907	0.193
Mof_H 	H 	0.1528	0.7845	0.0896	0.12
Mof_H 	H 	0.2022	0.3306	0.2408	0.183
Mof_H 	H 	0.3238	0.4058	0.1068	0.143
Mof_H 	H 	0.6542	0.6545	0.2095	0.167
Mof_H 	H 	0.8528	0.928	0.0451	0.118
Mof_H 	H 	0.5123	0.4268	0.5251	0.157
Mof_H 	H 	0.7565	0.1555	0.1363	0.228
Mof_H 	H 	0.6448	0.6745	0.761	0.207
Mof_H 	H 	0.9394	0.8154	0.7653	0.217
Mof_H 	H 	0.6526	0.8765	0.0182	0.139
Mof_H 	H 	0.4207	0.3542	0.8699	-0.059
Mof_H 	H 	0.994	0.407	0.8961	0.143
Mof_H 	H 	0.4688	0.3709	0.0271	0.188
Mof_H 	H 	0.7645	0.8642	0.2103	0.169
Mof_H 	H 	0.759	0.1858	0.8394	0.236
Mof_H 	H 	0.6535	0.1566	0.6402	0.145
Mof_H 	H 	0.4098	0.9655	0.096	0.208
Mof_H 	H 	0.027	0.5623	0.5726	0.139
Mof_H 	H 	0.882	0.1444	0.0767	0.14
Mof_H 	H 	0.2355	0.8642	0.7103	0.169
Mof_H 	H 	0.9984	0.9233	0.1112	0.114
Mof_H 	H 	0.3547	0.0251	0.5165	0.228
Mof_H 	H 	0.8515	0.844	0.2737	0.206
Mof_H 	H 	0.3199	0.459	0.9237	0.112
Mof_H 	H 	0.2821	0.0249	0.5388	0.206
Mof_H 	H 	0.338	0.9814	0.5423	0.217
Mof_H 	H 	0.162	0.4814	0.9577	0.217
Mof_H 	H 	0.0222	0.8055	0.7387	0.123
Mof_H 	H 	0.7686	0.3644	0.7102	0.183
Mof_H 	H 	0.6638	0.0782	0.4568	0.12
Mof_H 	H 	0.0626	0.7068	0.973	0.167
Mof_H 	H 	0.8877	0.9962	0.9138	0.208
Mof_H 	H 	0.894	0.0915	0.5828	0.153
Mof_H 	H 	0.708	0.8596	0.4574	0.203
Mof_H 	H 	0.027	0.4377	0.9274	0.138
Mof_H 	H 	0.8402	0.0225	0.0115	0.205
Mof_H 	H 	0.6601	0.3641	0.5791	0.171
Mof_H 	H 	0.2057	0.0953	0.9294	0.134
Mof_H 	H 	0.6526	0.1235	0.4818	0.139
Mof_H 	H 	0.3514	0.7902	0.9734	0.147
Mof_H 	H 	0.1137	0.0526	0.5392	0.196
Mof_H 	H 	0.7022	0.1694	0.7408	0.183
Mof_H 	H 	0.0629	0.8188	0.9409	0.18
Mof_H 	H 	0.3399	0.3641	0.0791	0.171
Mof_H 	H 	0.8863	0.9474	0.4608	0.196
Mof_H 	H 	0.1477	0.8108	0.945	0.139
Mof_H 	H 	0.5668	0.2842	0.9088	0.149
Mof_H 	H 	0.2791	0.6833	0.201	0.23
Mof_H 	H 	0.7094	0.172	0.6106	0.156
Mof_H 	H 	0.4856	0.813	0.3244	0.134
Mof_H 	H 	0.0902	0.4655	0.404	0.208
Mof_H 	H 	0.1095	0.3018	0.3839	0.138
Mof_H 	H 	0.3557	0.0082	0.4302	0.216
Mof_H 	H 	0.3356	0.8385	0.1342	0.122
Mof_H 	H 	0.2754	0.6612	0.9041	0.238
Mof_H 	H 	0.7754	0.8388	0.4041	0.238
Mof_H 	H 	0.5796	0.1529	0.8626	0.149
Mof_H 	H 	0.9282	0.6999	0.2886	0.24
Mof_H 	H 	0.2658	0.1367	0.1412	0.143
Mof_H 	H 	0.7151	0.3243	0.9047	0.211
Mof_H 	H 	0.0606	0.8154	0.2653	0.217
Mof_H 	H 	0.5618	0.2609	0.2792	0.152
Mof_H 	H 	0.3356	0.1615	0.3658	0.122
Mof_H 	H 	0.7272	0.6193	0.6003	0.203
Mof_H 	H 	0.6598	0.4775	0.0115	0.206
Mof_H 	H 	0.606	0.5915	0.9172	0.153
Mof_H 	H 	0.5626	0.2068	0.027	0.168
Mof_H 	H 	0.4261	0.5185	0.9883	0.205
Mof_H 	H 	0.3523	0.6892	0.945	0.139
Mof_H 	H 	0.5793	0.3542	0.3699	-0.059
Mof_H 	H 	0.618	0.3556	0.0767	0.14
Mof_H 	H 	0.8929	0.3392	0.1861	0.228
Mof_H 	H 	0.527	0.0623	0.4274	0.139
Mof_H 	H 	0.1801	0.959	0.5763	0.112
Mof_H 	H 	0.3	0.6679	0.806	0.193
Mof_H 	H 	0.3465	0.8434	0.3598	0.145
Mof_H 	H 	0.1443	0.5082	0.0698	0.216
Mof_H 	H 	0.4519	0.529	0.6053	0.103
Mof_H 	H 	0.7057	0.5953	0.0706	0.134
Mof_H 	H 	0.6477	0.6892	0.445	0.139
Mof_H 	H 	0.9526	0.6178	0.0767	0.16
Mof_H 	H 	0.4371	0.3188	0.5591	0.179
Mof_H 	H 	0.6743	0.0467	0.9029	0.195
Mof_H 	H 	0.3497	0.1549	0.2093	0.193
Mof_H 	H 	0.4374	0.2068	0.527	0.168
Mof_H 	H 	0.8971	0.2648	0.9965	0.153
Mof_H 	H 	0.4332	0.2842	0.4088	0.149
Mof_H 	H 	0.7698	0.1214	0.017	0.205
Mof_H 	H 	0.2728	0.6193	0.1003	0.203
Mof_H 	H 	0.1743	0.5467	0.0971	0.195
Mof_H 	H 	0.7712	0.1354	0.2255	0.196
Mof_H 	H 	0.9856	0.687	0.8244	0.134
Mof_H 	H 	0.8	0.1679	0.194	0.193
Mof_H 	H 	0.7906	0.672	0.8894	0.156
Mof_H 	H 	0.4519	0.471	0.8947	0.103
Mof_H 	H 	0.3474	0.1235	0.9818	0.139
Mof_H 	H 	0.3929	0.8392	0.8139	0.228
Mof_H 	H 	0.8238	0.9058	0.8932	0.143
Mof_H 	H 	0.9404	0.7302	0.8411	0.151
Mof_H 	H 	0.9849	0.057	0.4274	0.115
Mof_H 	H 	0.2209	0.1833	0.299	0.23
Mof_H 	H 	0.8474	0.6235	0.0182	0.139
Mof_H 	H 	0.1486	0.2902	0.5266	0.146
Mof_H 	H 	0.1485	0.844	0.7737	0.206
Mof_H 	H 	0.1137	0.9474	0.9608	0.195
Mof_H 	H 	0.838	0.4814	0.4577	0.217
Mof_H 	H 	0.1443	0.4918	0.4302	0.216
Mof_H 	H 	0.5222	0.6945	0.2387	0.123
Mof_H 	H 	0.0796	0.6529	0.1374	0.149
Mof_H 	H 	0.5151	0.443	0.4274	0.115
Mof_H 	H 	0.6841	0.5067	0.8908	0.2
Mof_H 	H 	0.2849	0.6757	0.0953	0.211
Mof_H 	H 	0.2314	0.6356	0.2898	0.183
Mof_H 	H 	0.2757	0.119	0.959	0.13
Mof_H 	H 	0.2733	0.8519	0.072	0.224
Mof_H 	H 	0.2686	0.1356	0.2102	0.183
Mof_H 	H 	0.2243	0.381	0.959	0.13
Mof_H 	H 	0.7906	0.328	0.6106	0.156
Mof_H 	H 	0.394	0.4085	0.0828	0.153
Mof_H 	H 	0.7355	0.6358	0.2103	0.169
Mof_H 	H 	0.382	0.6444	0.9233	0.14
Mof_H 	H 	0.3515	0.344	0.7263	0.206
Mof_H 	H 	0.4984	0.4233	0.8888	0.113
Mof_H 	H 	0.3822	0.282	0.2151	0.228
Mof_H 	H 	0.1601	0.1359	0.0791	0.171
Mof_H 	H 	0.3297	0.5386	0.0843	0.2
Mof_H 	H 	0.2267	0.6481	0.072	0.225
Mof_H 	H 	0.7302	0.3786	0.017	0.205
Mof_H 	H 	0.2209	0.3021	0.6141	0.243
Mof_H 	H 	0.2757	0.881	0.541	0.13
Mof_H 	H 	0.3474	0.8765	0.5182	0.139
Mof_H 	H 	0.0618	0.7609	0.7208	0.151
Mof_H 	H 	0.6644	0.1615	0.8658	0.122
Mof_H 	H 	0.1535	0.6566	0.3598	0.144
Mof_H 	H 	0.2686	0.8644	0.2898	0.183
Mof_H 	H 	0.2179	0.5249	0.9612	0.206
Mof_H 	H 	0.6644	0.8385	0.6342	0.122
Mof_H 	H 	0.7943	0.9047	0.0706	0.134
Mof_H 	H 	0.7733	0.3519	0.928	0.225
Mof_H 	H 	0.4332	0.7158	0.0912	0.149
Mof_H 	H 	0.4204	0.8471	0.1374	0.149
Mof_H 	H 	0.9204	0.3471	0.8626	0.149
Mof_H 	H 	0.9624	0.315	0.6355	0.154
Mof_H 	H 	0.3547	0.9749	0.9835	0.228
Mof_H 	H 	0.1703	0.0386	0.4157	0.2
Mof_H 	H 	0.4282	0.1999	0.7114	0.24
Mof_H 	H 	0.8474	0.3765	0.4818	0.139
Mof_H 	H 	0.0739	0.0185	0.5117	0.205
Mof_H 	H 	0.1453	0.4749	0.5165	0.228
Mof_H 	H 	0.9877	0.0732	0.5251	0.157
Mof_H 	H 	0.7535	0.3233	0.0162	0.209
Mof_H 	H 	0.9382	0.2391	0.2792	0.151
Mof_H 	H 	0.0222	0.1945	0.7613	0.123
Mof_H 	H 	0.7209	0.8021	0.3859	0.243
Mof_H 	H 	0.106	0.9085	0.4172	0.153
Mof_H 	H 	0.9098	0.4655	0.904	0.208
Mof_H 	H 	0.5613	0.5972	0.0043	0.178
Mof_H 	H 	0.8465	0.6566	0.8598	0.144
Mof_H 	H 	0.2978	0.1694	0.2408	0.183
Mof_H 	H 	0.6485	0.344	0.2263	0.206
Mof_H 	H 	0.6076	0.2586	0.9405	0.134
Mof_H 	H 	0.1453	0.5251	0.9835	0.228
Mof_H 	H 	0.9282	0.3001	0.2114	0.24
Mof_H 	H 	0.2151	0.1757	0.4047	0.211
Mof_H 	H 	0.3514	0.2098	0.5266	0.146
Mof_H 	H 	0.5412	0.307	0.3019	0.155
Mof_H 	H 	0.7917	0.1688	0.3212	0.193
Mof_H 	H 	0.7302	0.6214	0.483	0.205
Mof_H 	H 	0.8822	0.218	0.7151	0.228
Mof_H 	H 	0.2849	0.3243	0.4047	0.211
Mof_H 	H 	0.0668	0.2158	0.4088	0.149
Mof_H 	H 	0.162	0.5186	0.5423	0.217
Mof_H 	H 	0.7355	0.3642	0.2897	0.169
Mof_H 	H 	0.3297	0.4614	0.4157	0.2
Mof_H 	H 	0.9098	0.5345	0.596	0.208
Mof_H 	H 	0.2906	0.172	0.1106	0.156
Mof_H 	H 	0.3362	0.9218	0.5432	0.12
Mof_H 	H 	0.5739	0.4815	0.0117	0.205
Mof_H 	H 	0.3472	0.7155	0.0896	0.12
Mof_H 	H 	0.1638	0.4218	0.9568	0.12
Mof_H 	H 	0.708	0.1404	0.0426	0.203
Mof_H 	H 	0.7243	0.881	0.041	0.13
Mof_H 	H 	0.8515	0.156	0.2263	0.206
Mof_H 	H 	0.3552	0.3255	0.239	0.207
Mof_H 	H 	0.2	0.1679	0.694	0.193
Mof_H 	H 	0.1598	0.0225	0.5115	0.206
Mof_H 	H 	0.0123	0.0732	0.0251	0.159
Mof_H 	H 	0.527	0.9377	0.0726	0.139
Mof_H 	H 	0.6762	0.5942	0.8932	0.143
Mof_H 	H 	0.7179	0.9751	0.4612	0.206
Mof_H 	H 	0.2209	0.8167	0.201	0.23
Mof_H 	H 	0.2744	0.1445	0.3154	0.23
Mof_H 	H 	0.5596	0.7698	0.8411	0.151
Mof_H 	H 	0.1472	0.928	0.5451	0.118
Mof_H 	H 	0.3971	0.7648	0.0035	0.155
Mof_H 	H 	0.4624	0.185	0.1355	0.154
Mof_H 	H 	0.9371	0.8188	0.4409	0.179
Mof_H 	H 	0.8528	0.072	0.4549	0.118
Mof_H 	H 	0.8458	0.1545	0.2905	0.167
Mof_H 	H 	0.6071	0.1608	0.1861	0.228
Mof_H 	H 	0.9371	0.1812	0.0591	0.18
Mof_H 	H 	0.2917	0.6688	0.6788	0.193
Mof_H 	H 	0.2083	0.8312	0.6788	0.193
Mof_H 	H 	0.2272	0.8807	0.1003	0.203
Mof_H 	H 	0.6472	0.572	0.0451	0.118
Mof_H 	H 	0.494	0.093	0.3961	0.145
Mof_H 	H 	0.2645	0.3642	0.7897	0.169
Mof_H 	H 	0.473	0.0623	0.9274	0.139
Mof_H 	H 	0.506	0.093	0.8961	0.145
Mof_H 	H 	0.9394	0.1846	0.7347	0.217
Mof_H 	H 	0.3362	0.0782	0.9568	0.12
Mof_H 	H 	0.7757	0.619	0.041	0.13
Mof_H 	H 	0.3458	0.6545	0.7095	0.167
Mof_H 	H 	0.2243	0.619	0.541	0.131
Mof_H 	H 	0.8362	0.5782	0.0432	0.12
Mof_H 	H 	0.9588	0.193	0.3019	0.155
Mof_H 	H 	0.0481	0.971	0.6053	0.103
Mof_H 	H 	0.241	0.1858	0.3394	0.236
Mof_H 	H 	0.1542	0.1545	0.7905	0.167
Mof_H 	H 	0.4387	0.5972	0.5043	0.177
Mof_H 	H 	0.662	0.0186	0.4577	0.217
Mof_H 	H 	0.0613	0.0972	0.9957	0.18
Mof_H 	H 	0.6486	0.7902	0.4734	0.146
Mof_H 	H 	0.7728	0.1193	0.8997	0.203
Mof_H 	H 	0.9856	0.313	0.6756	0.134
Mof_H 	H 	0.8399	0.8641	0.9209	0.171
Mof_H 	H 	0.9332	0.2158	0.9088	0.149
Mof_H 	H 	0.1123	0.0038	0.0862	0.208
Mof_H 	H 	0.2728	0.3807	0.3997	0.203
Mof_H 	H 	0.3458	0.3455	0.7905	0.167
Mof_H 	H 	0.8362	0.4218	0.4568	0.12
Mof_H 	H 	0.7791	0.6979	0.3859	0.243
Mof_H 	H 	0.2302	0.1214	0.517	0.205
Mof_H 	H 	0.8497	0.3451	0.7093	0.193
Mof_H 	H 	0.973	0.4377	0.4274	0.139
Mof_H 	H 	0.8877	0.0038	0.5862	0.21
Mof_H 	H 	0.7744	0.3555	0.8154	0.23
Mof_H 	H 	0.7314	0.1356	0.7102	0.183
Mof_H 	H 	0.3238	0.5942	0.3932	0.143
Mof_H 	H 	0.259	0.3142	0.3394	0.236
Mof_H 	H 	0.0474	0.3822	0.9233	0.16
Mof_H 	H 	0.2565	0.6555	0.8637	0.228
Mof_H 	H 	0.006	0.407	0.3961	0.145
Mof_H 	H 	0.2209	0.6979	0.8859	0.243
Mof_H 	H 	0.1477	0.1892	0.555	0.139
Mof_H 	H 	0.2465	0.3233	0.5162	0.209
Mof_H 	H 	0.9519	0.029	0.3947	0.103
Mof_H 	H 	0.106	0.0915	0.0828	0.153
Mof_H 	H 	0.2246	0.8388	0.9041	0.238
Mof_H 	H 	0.208	0.3596	0.5426	0.204
Mof_H 	H 	0.9387	0.9028	0.0043	0.18
Mof_H 	H 	0.4877	0.5732	0.4749	0.157
Mof_H 	H 	0.0312	0.8709	0.4729	0.188
Mof_H 	H 	0.2267	0.3519	0.428	0.225
Mof_H 	H 	0.8497	0.6549	0.7907	0.193
Mof_H 	H 	0.5793	0.6458	0.1301	-0.059
Mof_H 	H 	0.394	0.5915	0.4172	0.153
Mof_H 	H 	0.9204	0.6529	0.6374	0.149
Mof_H 	H 	0.2744	0.8555	0.1846	0.23
Mof_H 	H 	0.0606	0.1846	0.2347	0.217
Mof_H 	H 	0.8547	0.5251	0.4835	0.228
Mof_H 	H 	0.8	0.8321	0.306	0.193
Mof_H 	H 	0.2083	0.1688	0.8212	0.193
Mof_H 	H 	0.3402	0.4775	0.5115	0.206
Mof_H 	H 	0.2094	0.328	0.1106	0.156
Mof_H 	H 	0.3523	0.3108	0.555	0.139
Mof_H 	H 	0.1526	0.3765	0.9818	0.139
Mof_H 	H 	0.5596	0.2302	0.6589	0.151
Mof_H 	H 	0.0596	0.2698	0.1589	0.151
Mof_H 	H 	0.2355	0.1358	0.7897	0.169
Mof_H 	H 	0.7246	0.3388	0.0959	0.238
Mof_H 	H 	0.259	0.6858	0.1606	0.236
Mof_H 	H 	0.5668	0.7158	0.5912	0.149
Mof_H 	H 	0.5902	0.9655	0.596	0.207
Mof_H 	H 	0.0618	0.2391	0.7792	0.151
Mof_H 	H 	0.7256	0.8555	0.6846	0.23
Mof_H 	H 	0.0474	0.6178	0.5767	0.161
Mof_H 	H 	0.494	0.907	0.1039	0.145
Mof_H 	H 	0.5718	0.8001	0.2886	0.24
Mof_H 	H 	0.7209	0.3167	0.799	0.23
Mof_H 	H 	0.7314	0.8644	0.7898	0.183
Mof_H 	H 	0.2302	0.8786	0.983	0.205
Mof_H 	H 	0.5312	0.6291	0.9729	0.188
Mof_H 	H 	0.6472	0.428	0.4549	0.118
Mof_H 	H 	0.2565	0.3445	0.6363	0.228
Mof_H 	H 	0.1071	0.3392	0.6861	0.228
Mof_H 	H 	0.7179	0.0249	0.0388	0.206
Mof_H 	H 	0.6801	0.541	0.0763	0.112
Mof_H 	H 	0.7435	0.6555	0.3637	0.228
Mof_H 	H 	0.8822	0.782	0.7849	0.228
Mof_H 	H 	0.741	0.6858	0.6606	0.236
Mof_H 	H 	0.1535	0.3434	0.1402	0.144
Mof_H 	H 	0.7267	0.8519	0.572	0.225
Mof_H 	H 	0.3399	0.6359	0.4209	0.171
Mof_H 	H 	0.882	0.8556	0.4233	0.14
Mof_H 	H 	0.6542	0.3455	0.2905	0.167
Mof_H 	H 	0.2094	0.672	0.3894	0.156
Mof_H 	H 	0.9624	0.685	0.8645	0.154
Mof_H 	H 	0.7	0.3321	0.194	0.193
Mof_H 	H 	0.8159	0.0067	0.6092	0.2
Mof_H 	H 	0.8971	0.7352	0.5035	0.154
Mof_H 	H 	0.1448	0.1745	0.239	0.207
Mof_H 	H 	0.7057	0.4047	0.4294	0.134
Mof_H 	H 	0.6528	0.2845	0.9104	0.12
Mof_H 	H 	0.0718	0.6999	0.7886	0.24
Mof_H 	H 	0.1029	0.2648	0.4965	0.154
Mof_H 	H 	0.0123	0.9268	0.4749	0.157
Mof_H 	H 	0.1178	0.218	0.2151	0.228
Mof_H 	H 	0.9261	0.9815	0.4883	0.205
Mof_H 	H 	0.2465	0.6767	0.9838	0.209
Mof_H 	H 	0.3929	0.1608	0.6861	0.228
Mof_H 	H 	0.7821	0.4751	0.0388	0.206
Mof_H 	H 	0.7791	0.3021	0.1141	0.243
Mof_H 	H 	0.292	0.1404	0.5426	0.203
Mof_H 	H 	0.0613	0.9028	0.5043	0.177
Mof_H 	H 	0.7465	0.8233	0.4838	0.209
Mof_H 	H 	0.5376	0.815	0.8645	0.154
Mof_H 	H 	0.8472	0.7845	0.5896	0.12
Mof_H 	H 	0.6095	0.8018	0.6161	0.138
Mof_H 	H 	0.7288	0.3646	0.2255	0.196
Mof_H 	H 	0.838	0.5186	0.0423	0.217
Mof_H 	H 	0.2645	0.6358	0.7103	0.169
Mof_H 	H 	0.5618	0.7391	0.2208	0.152
Mof_H 	H 	0.4204	0.1529	0.3626	0.149
Mof_H 	H 	0.8465	0.3434	0.6402	0.144
Mof_H 	H 	0.208	0.6404	0.9574	0.204
Mof_H 	H 	0.6575	0.8044	0.2914	0.238
Mof_H 	H 	0.7849	0.8243	0.5953	0.211
Mof_H 	H 	0.1575	0.3044	0.7086	0.238
Mof_H 	H 	0.6703	0.5386	0.5843	0.2
Mof_H 	H 	0.2314	0.3644	0.2102	0.183
Mof_H 	H 	0.6453	0.9749	0.4835	0.228
Mof_H 	H 	0.6703	0.4614	0.9157	0.2
Mof_H 	H 	0.6485	0.656	0.2737	0.206
Mof_H 	H 	0.5796	0.8471	0.6374	0.149
Mof_H 	H 	0.1503	0.3451	0.2093	0.193
Mof_H 	H 	0.7256	0.1445	0.8154	0.23
Mof_H 	H 	0.1526	0.6235	0.5182	0.139
Mof_H 	H 	0.3472	0.2845	0.4104	0.12
Mof_H 	H 	0.8557	0.4918	0.9302	0.216
Mof_H 	H 	0.5474	0.1178	0.4233	0.161
Mof_H 	H 	0.382	0.3556	0.5767	0.14
Mof_H 	H 	0.9387	0.0972	0.4957	0.177
Mof_H 	H 	0.2342	0.6367	0.3588	0.143
Mof_H 	H 	0.4688	0.6291	0.4729	0.188
Mof_H 	H 	0.2246	0.1612	0.5959	0.238
Mof_H 	H 	0.0151	0.943	0.5726	0.115
Mof_H 	H 	0.4382	0.7391	0.7208	0.152
Mof_H 	H 	0.6448	0.3255	0.739	0.207
Mof_H 	H 	0.473	0.9377	0.5726	0.139
Mof_H 	H 	0.0902	0.5345	0.096	0.208
Mof_H 	H 	0.2943	0.5953	0.5706	0.134
Mof_H 	H 	0.7083	0.3312	0.3212	0.193
Mof_H 	H 	0.7342	0.1367	0.6412	0.143
Mof_H 	H 	0.8425	0.6956	0.2914	0.238
Mof_H 	H 	0.2978	0.8306	0.2592	0.183
Mof_H 	H 	0.7658	0.3633	0.6412	0.143
Mof_H 	H 	0.8924	0.7586	0.5595	0.134
Mof_H 	H 	0.1071	0.6608	0.8139	0.228
Mof_H 	H 	0.3257	0.0467	0.4029	0.194
Mof_H 	H 	0.0481	0.029	0.8947	0.103
Mof_H 	H 	0.7733	0.6481	0.572	0.225
Mof_H 	H 	0.1503	0.6549	0.2907	0.193
Mof_H 	H 	0.8514	0.7098	0.4734	0.146
Mof_H 	H 	0.6453	0.0251	0.0165	0.228
Mof_H 	H 	0.9519	0.971	0.1053	0.103
Mof_H 	H 	0.1095	0.6982	0.1161	0.138
Mof_H 	H 	0.9778	0.8055	0.2387	0.123
Mof_H 	H 	0.7342	0.8633	0.8588	0.143
Mof_H 	H 	0.6598	0.5225	0.4885	0.206
Mof_H 	H 	0.3402	0.5225	0.9885	0.206
Mof_H 	H 	0.292	0.8596	0.9574	0.203
Mof_H 	H 	0.5151	0.557	0.0726	0.115
Mof_H 	H 	0.2658	0.8633	0.3588	0.143
Mof_H 	H 	0.0412	0.807	0.6981	0.155
Mof_H 	H 	0.0739	0.9815	0.9883	0.205
Mof_H 	H 	0.4778	0.6945	0.7387	0.123
Mof_H 	H 	0.3528	0.572	0.5451	0.118
Mof_H 	H 	0.0793	0.1458	0.8699	-0.059
Mof_H 	H 	0.1638	0.5782	0.5432	0.12
Mof_H 	H 	0.8159	0.9933	0.8908	0.198
Mof_H 	H 	0.2712	0.3646	0.7255	0.196
Mof_H 	H 	0.4382	0.2609	0.7792	0.152
Mof_H 	H 	0.7243	0.119	0.459	0.13
Mof_H 	H 	0.1076	0.7586	0.0595	0.134
Mof_H 	H 	0.5606	0.3154	0.7347	0.217
Mof_H 	H 	0.9382	0.7609	0.2208	0.151
Mof_H 	H 	0.5481	0.471	0.3947	0.103
Mof_H 	H 	0.5016	0.5767	0.1112	0.113
Mof_H 	H 	0.2256	0.3555	0.3154	0.23
Mof_H 	H 	0.7943	0.0953	0.4294	0.134
Mof_H 	H 	0.5376	0.185	0.6355	0.154
Mof_H 	H 	0.6575	0.1956	0.2086	0.238
Mof_H 	H 	0.2	0.8321	0.806	0.193
Mof_H 	H 	0.5606	0.6846	0.7653	0.217
Mof_H 	H 	0.7849	0.1757	0.9047	0.21
Mof_H 	H 	0.8199	0.041	0.4237	0.112
Mof_H 	H 	0.2151	0.8243	0.0953	0.21
Mof_H 	H 	0.1542	0.8455	0.7095	0.167
Mof_H 	H 	0.0144	0.313	0.1756	0.134
Mof_H 	H 	0.3497	0.8451	0.2907	0.193
Mof_H 	H 	0.1601	0.8641	0.4209	0.171
Mof_H 	H 	0.5481	0.529	0.1053	0.103
Mof_H 	H 	0.4404	0.2302	0.1589	0.151
Mof_H 	H 	0.8297	0.0386	0.9157	0.199
Mof_H 	H 	0.2791	0.3167	0.299	0.23
Mof_H 	H 	0.1841	0.0067	0.1092	0.198
Mof_H 	H 	0.4526	0.8822	0.5767	0.161
Mof_H 	H 	0.9688	0.1291	0.5271	0.188
Mof_H 	H 	0.0626	0.2932	0.527	0.168
Mof_H 	H 	0.792	0.3596	0.0426	0.204
Mof_H 	H 	0.7	0.6679	0.306	0.193
Mof_H 	H 	0.2791	0.8021	0.8859	0.243
Mof_H 	H 	0.8199	0.959	0.0763	0.112
Mof_H 	H 	0.7744	0.6445	0.6846	0.23
Mof_H 	H 	0.7209	0.6833	0.701	0.23
Mof_H 	H 	0.9877	0.9268	0.9749	0.159
Mof_H 	H 	0.9404	0.2698	0.6589	0.151
Mof_H 	H 	0.8356	0.3385	0.8658	0.122
Mof_H 	H 	0.506	0.907	0.6039	0.145
Mof_H 	H 	0.3924	0.2586	0.4405	0.134
Mof_H 	H 	0.8399	0.1359	0.5791	0.171
Mof_H 	H 	0.9261	0.0185	0.0117	0.205
Mof_H 	H 	0.8557	0.5082	0.5698	0.216
Mof_H 	H 	0.7791	0.8167	0.701	0.23
Mof_H 	H 	0.1448	0.8255	0.261	0.207
Mof_H 	H 	0.2791	0.1979	0.6141	0.243
Mof_H 	H 	0.6029	0.7648	0.5035	0.154
Mof_H 	H 	0.4374	0.7932	0.973	0.168
Mof_H 	H 	0.1703	0.9614	0.0843	0.199
Mof_H 	H 	0.1644	0.6615	0.1342	0.122
Mof_H 	H 	0.4588	0.307	0.8019	0.155
Mof_H 	H 	0.8552	0.8255	0.761	0.207
Mof_H 	H 	0.9374	0.7068	0.473	0.168
Mof_H 	H 	0.2288	0.8646	0.7745	0.196
Mof_H 	H 	0.8238	0.0942	0.6068	0.143
Mof_H 	H 	0.0376	0.685	0.3645	0.154
Mof_H 	H 	0.2712	0.6354	0.7745	0.196
Mof_H 	H 	0.2435	0.8445	0.8637	0.228
Mof_H 	H 	0.6071	0.8392	0.3139	0.228
Mof_H 	H 	0.6743	0.9533	0.5971	0.194
Mof_H 	H 	0.3159	0.4933	0.1092	0.2
Mof_H 	H 	0.3863	0.4474	0.5392	0.196
Mof_H 	H 	0.3465	0.1566	0.1402	0.145
Mof_H 	H 	0.3905	0.1982	0.3839	0.138
Mof_H 	H 	0.662	0.9814	0.0423	0.218
Mof_H 	H 	0.4588	0.693	0.6981	0.155
Mof_H 	H 	0.3877	0.5038	0.4138	0.21
Mof_H 	H 	0.1762	0.9058	0.3932	0.143
Mof_H 	H 	0.3515	0.656	0.7737	0.206
Mof_H 	H 	0.7917	0.8312	0.1788	0.193
Mof_H 	H 	0.2906	0.828	0.3894	0.156
Mof_H 	H 	0.3822	0.718	0.2849	0.228
Mof_H 	H 	0.1076	0.2414	0.4405	0.134
Mof_H 	H 	0.2698	0.3786	0.517	0.205
Mof_H 	H 	0.2733	0.1481	0.428	0.225
Mof_H 	H 	0.6443	0.9918	0.5698	0.216
Mof_H 	H 	0.7978	0.3306	0.7408	0.183
Mof_H 	H 	0.6762	0.4058	0.6068	0.143
Mof_H 	H 	0.6841	0.4933	0.6092	0.2
Mof_H 	H 	0.894	0.9085	0.9172	0.153
Mof_H 	H 	0.1472	0.072	0.9549	0.118
Mof_H 	H 	0.7791	0.1833	0.799	0.23
Mof_H 	H 	0.3971	0.2352	0.4965	0.154
Mof_H 	H 	0.0629	0.1812	0.5591	0.179
Mof_H 	H 	0.7083	0.6688	0.1788	0.193
Mof_H 	H 	0.8425	0.3044	0.2086	0.238
Mof_H 	H 	0.7757	0.381	0.459	0.131
Mof_H 	H 	0.1743	0.4533	0.4029	0.194
Mof_H 	H 	0.2435	0.1555	0.6363	0.228
Mof_H 	H 	0.9688	0.8709	0.9729	0.189
Mof_H 	H 	0.5902	0.0345	0.904	0.208
Mof_H 	H 	0.7288	0.6354	0.2745	0.196
Mof_H 	H 	0.7821	0.5249	0.4612	0.206
Mof_H 	H 	0.8257	0.5467	0.5971	0.194
Mof_H 	H 	0.1123	0.9962	0.4138	0.21
Mof_H 	H 	0.7698	0.8786	0.483	0.205
Mof_H 	H 	0.8458	0.8455	0.2095	0.167
Mof_H 	H 	0.8523	0.8108	0.445	0.139
Mof_H 	H 	0.1485	0.156	0.7263	0.206
Mof_H 	H 	0.2535	0.1767	0.5162	0.209
Mof_H 	H 	0.2288	0.1354	0.7255	0.196
Mof_H 	H 	0.6443	0.0082	0.9302	0.216
Mof_H 	H 	0.7978	0.6694	0.7592	0.183
Mof_H 	H 	0.7754	0.1612	0.0959	0.238
Mof_H 	H 	0.3557	0.9918	0.0698	0.216
Mof_H 	H 	0.7712	0.8646	0.2745	0.196
Mof_H 	H 	0.5718	0.1999	0.2114	0.24
Mof_H 	H 	0.7535	0.6767	0.4838	0.209
Mof_H 	H 	0.2272	0.1193	0.3997	0.203
Mof_H 	H 	0.2179	0.4751	0.5388	0.206
Mof_H 	H 	0.9332	0.7842	0.5912	0.149
Mof_H 	H 	0.1575	0.6956	0.7914	0.238
Mof_H 	H 	0.3	0.3321	0.694	0.193
Mof_H 	H 	0.6076	0.7414	0.5595	0.134
Mof_H 	H 	0.6137	0.4474	0.0392	0.196
Mof_H 	H 	0.0718	0.3001	0.7114	0.24
Mof_H 	H 	0.5613	0.4028	0.4957	0.177
Mof_H 	H 	0.2022	0.6694	0.2592	0.183
Mof_H 	H 	0.241	0.8142	0.1606	0.236
Mof_H 	H 	0.3199	0.541	0.5763	0.112
Mof_H 	H 	0.8257	0.4533	0.9029	0.195
Mof_H 	H 	0.8552	0.1745	0.739	0.207
Mof_H 	H 	0.4856	0.187	0.1756	0.134
Mof_H 	H 	0.6503	0.1549	0.7093	0.193
Mof_H 	H 	0.0144	0.687	0.3244	0.134
Mof_H 	H 	0.7151	0.6757	0.5953	0.211
Mof_H 	H 	0.6638	0.9218	0.0432	0.12
Mof_H 	H 	0.2057	0.9047	0.5706	0.134
Mof_H 	H 	0.2342	0.3633	0.1412	0.143
Mof_H 	H 	0.9207	0.1458	0.3699	-0.059
Mof_H 	H 	0.2943	0.4047	0.9294	0.134
Mof_H 	H 	0.9374	0.2932	0.027	0.167
Mof_H 	H 	0.2754	0.3388	0.5959	0.238
Mof_H 	H 	0.4984	0.5767	0.6112	0.113
Mof_H 	H 	0.1598	0.9775	0.9885	0.205
Mof_H 	H 	0.0412	0.193	0.8019	0.155
Mof_H 	H 	0.5144	0.187	0.6756	0.134
Mof_H 	H 	0.606	0.4085	0.5828	0.153
Mof_H 	H 	0.4261	0.4815	0.5117	0.205
Mof_H 	H 	0.4371	0.6812	0.9409	0.179
Mof_H 	H 	0.6178	0.282	0.7151	0.228
Mof_H 	H 	0.6528	0.7155	0.5896	0.12
Mof_H 	H 	0.1528	0.2155	0.4104	0.12
Mof_H 	H 	0.0016	0.9233	0.6112	0.113
Mof_H 	H 	0.338	0.0186	0.9577	0.218
Mof_H 	H 	0.0151	0.057	0.9274	0.115
Mof_H 	H 	0.7465	0.1767	0.0162	0.208
Mof_H 	H 	0.1644	0.3385	0.3658	0.122
Mof_H 	H 	0.4394	0.3154	0.2347	0.217
Mof_H 	H 	0.0668	0.7842	0.0912	0.149
Mof_H 	H 	0.5739	0.5185	0.4883	0.205
Mof_H 	H 	0.3863	0.5526	0.9608	0.196
Mof_H 	H 	0.1841	0.9933	0.3908	0.2
Mof_H 	H 	0.7022	0.8306	0.7592	0.183
Mof_H 	H 	0.2698	0.6214	0.983	0.205
Mof_H 	H 	0.9778	0.1945	0.2613	0.123
Mof_H 	H 	0.0793	0.8542	0.6301	-0.059
Mof_H 	H 	0.0376	0.315	0.1355	0.154
Mof_H 	H 	0.8547	0.4749	0.0165	0.228
Mof_H 	H 	0.8523	0.1892	0.055	0.139
Mof_C 	C 	0.1121	0.3068	0.6957	-0.775
Mof_C 	C 	0.1338	0.4616	0.4181	-0.688
Mof_C 	C 	0.7746	0.42682	0.50278	0.03
Mof_C 	C 	0.0476	0.84437	0.03239	-0.203
Mof_C 	C 	0.7409	0.8219	0.6839	-0.786
Mof_C 	C 	0.1672	0.8648	0.05526	0.247
Mof_C 	C 	0.612	0.363	0.3876	0.21
Mof_C 	C 	0.25	0.25	0.1393	-0.213
Mof_C 	C 	0.25	0.25	0.0997	0.546
Mof_C 	C 	0.75	0.25	0.3334	0.596
Mof_C 	C 	0.8283	0.3679	0.99127	0.24
Mof_C 	C 	0.8435	0.8987	0.9164	-0.483
Mof_C 	C 	0.6672	0.6352	0.55526	0.248
Mof_C 	C 	0.6082	0.3005	0.7364	-0.719
Mof_C 	C 	0.9506	0.8857	0.51077	0.064
Mof_C 	C 	0.3894	0.7343	0.23089	0.269
Mof_C 	C 	0.2041	0.8374	0.7038	-0.543
Mof_C 	C 	0.2961	0.8356	0.3646	-0.481
Mof_C 	C 	0.9816	0.6789	0.0327	0.565
Mof_C 	C 	0.45	0.7371	0.2086	-0.01
Mof_C 	C 	0.688	0.8989	0.0278	-0.41
Mof_C 	C 	0.536	0.5607	0.0958	-0.326
Mof_C 	C 	0.6767	0.7893	0.69241	0.301
Mof_C 	C 	0.835	0.0731	0.4309	-0.335
Mof_C 	C 	0.0116	0.7388	0.6498	0.328
Mof_C 	C 	0.0184	0.6789	0.5327	0.565
Mof_C 	C 	0.3328	0.6352	0.05526	0.248
Mof_C 	C 	0.1722	0.7884	0.8732	0.296
Mof_C 	C 	0.6096	0.3219	0.0707	-0.466
Mof_C 	C 	0.884	0.7079	0.67009	-0.019
Mof_C 	C 	0.0174	0.1893	0.9675	0.567
Mof_C 	C 	0.7733	0.2081	0.2757	0.092
Mof_C 	C 	0.0489	0.238	0.614	-0.144
Mof_C 	C 	0.75	0.25	0.2938	-0.237
Mof_C 	C 	0.8879	0.2695	0.16541	0.289
Mof_C 	C 	0.312	0.1011	0.9722	-0.41
Mof_C 	C 	0.1998	0.07338	0.05557	0.054
Mof_C 	C 	0.5489	0.738	0.386	-0.144
Mof_C 	C 	0.165	0.0731	0.9309	-0.335
Mof_C 	C 	0.2344	0.1537	0.0277	0.565
Mof_C 	C 	0.169	0.90606	0.03364	-0.522
Mof_C 	C 	0.1106	0.7657	0.23089	0.269
Mof_C 	C 	0.7961	0.6644	0.8646	-0.481
Mof_C 	C 	0.331	0.40606	0.46636	-0.524
Mof_C 	C 	0.5223	0.2061	0.6545	-0.454
Mof_C 	C 	0.669	0.59394	0.53364	-0.524
Mof_C 	C 	0.5128	0.2627	0.5888	0.403
Mof_C 	C 	0.7738	0.1455	0.9166	-0.715
Mof_C 	C 	0.174	0.2604	0.27719	-0.558
Mof_C 	C 	0.616	0.7921	0.67009	-0.019
Mof_C 	C 	0.1082	0.8005	0.2636	-0.719
Mof_C 	C 	0.75	0.75	0.7864	-0.519
Mof_C 	C 	0.2738	0.3545	0.4166	-0.716
Mof_C 	C 	0.3782	0.07992	0.44566	0.235
Mof_C 	C 	0.1096	0.1781	0.5707	-0.466
Mof_C 	C 	0.9506	0.1143	0.98923	0.066
Mof_C 	C 	0.2973	0.47751	0.05661	0.243
Mof_C 	C 	0.25	0.25	0.2136	-0.519
Mof_C 	C 	0.052	0.35117	0.46697	-0.199
Mof_C 	C 	0.4909	0.906	0.5795	-0.461
Mof_C 	C 	0.0128	0.7627	0.4112	0.403
Mof_C 	C 	0.0262	0.2137	0.7826	-0.43
Mof_C 	C 	0.3852	0.4599	0.5153	-0.677
Mof_C 	C 	0.5499	0.2322	0.144	0.012
Mof_C 	C 	0.3946	0.2074	0.5121	-0.482
Mof_C 	C 	0.5494	0.3857	0.98923	0.064
Mof_C 	C 	0.4777	0.7939	0.3455	-0.454
Mof_C 	C 	0.25	0.25	0.8334	0.596
Mof_C 	C 	0.6218	0.92008	0.55434	0.235
Mof_C 	C 	0.4506	0.6143	0.01077	0.064
Mof_C 	C 	0.6106	0.2657	0.76911	0.269
Mof_C 	C 	0.335	0.4269	0.9309	-0.335
Mof_C 	C 	0.9872	0.2373	0.5888	0.403
Mof_C 	C 	0.3879	0.1932	0.6957	-0.775
Mof_C 	C 	0.2415	0.00305	0.46926	-0.533
Mof_C 	C 	0.1999	0.3372	0.2157	-0.637
Mof_C 	C 	0.75	0.25	0.6393	-0.213
Mof_C 	C 	0.1833	0.4952	0.5262	-0.725
Mof_C 	C 	0.1121	0.7305	0.83459	0.289
Mof_C 	C 	0.1338	0.5384	0.0819	-0.688
Mof_C 	C 	0.116	0.7079	0.17009	-0.019
Mof_C 	C 	0.6085	0.83933	0.50973	0.055
Mof_C 	C 	0.8879	0.3068	0.1957	-0.775
Mof_C 	C 	0.3918	0.6995	0.2636	-0.719
Mof_C 	C 	0.0223	0.2939	0.1545	-0.455
Mof_C 	C 	0.7748	0.2083	0.2383	0.219
Mof_C 	C 	0.55	0.7371	0.7086	-0.01
Mof_C 	C 	0.826	0.7396	0.72281	-0.558
Mof_C 	C 	0.3935	0.66608	0.05464	0.043
Mof_C 	C 	0.2041	0.1626	0.7962	-0.543
Mof_C 	C 	0.7293	0.8563	0.4806	-0.7
Mof_C 	C 	0.8898	0.08349	0.9886	0.222
Mof_C 	C 	0.888	0.863	0.1124	0.21
Mof_C 	C 	0.1783	0.4082	0.46897	-0.523
Mof_C 	C 	0.2732	0.2078	0.1574	0.071
Mof_C 	C 	0.39	0.2901	0.60543	0.003
Mof_C 	C 	0.1065	0.83392	0.05464	0.044
Mof_C 	C 	0.552	0.85117	0.53303	-0.199
Mof_C 	C 	0.75	0.75	0.8607	-0.213
Mof_C 	C 	0.2591	0.1781	0.3161	-0.786
Mof_C 	C 	0.7226	0.02229	0.50382	0.255
Mof_C 	C 	0.3233	0.2107	0.30759	0.301
Mof_C 	C 	0.2267	0.2081	0.7757	0.092
Mof_C 	C 	0.39	0.7099	0.89457	0.003
Mof_C 	C 	0.826	0.2604	0.77719	-0.558
Mof_C 	C 	0.5206	0.6023	0.9886	-0.52
Mof_C 	C 	0.4506	0.3857	0.48923	0.064
Mof_C 	C 	0.7358	0.59872	0.97135	-0.198
Mof_C 	C 	0.2254	0.57318	0.49722	0.03
Mof_C 	C 	0.0091	0.406	0.9205	-0.456
Mof_C 	C 	0.1082	0.1995	0.2364	-0.719
Mof_C 	C 	0.2585	0.49695	0.46926	-0.533
Mof_C 	C 	0.9884	0.7388	0.1498	0.328
Mof_C 	C 	0.2733	0.7081	0.7243	0.092
Mof_C 	C 	0.3946	0.7926	0.9879	-0.482
Mof_C 	C 	0.3879	0.8068	0.8043	-0.775
Mof_C 	C 	0.1175	0.3227	0.3637	-0.418
Mof_C 	C 	0.5174	0.3107	0.4675	0.566
Mof_C 	C 	0.6732	0.7413	0.34319	-0.577
Mof_C 	C 	0.2358	0.90128	0.47135	-0.198
Mof_C 	C 	0.9909	0.406	0.4205	-0.46
Mof_C 	C 	0.1102	0.08349	0.4886	0.224
Mof_C 	C 	0.3001	0.1628	0.2157	-0.637
Mof_C 	C 	0.7707	0.3563	0.0194	-0.7
Mof_C 	C 	0.165	0.9269	0.5691	-0.335
Mof_C 	C 	0.4738	0.2863	0.7826	-0.431
Mof_C 	C 	0.6218	0.07992	0.94566	0.235
Mof_C 	C 	0.5116	0.2388	0.3502	0.328
Mof_C 	C 	0.831	0.09394	0.96636	-0.522
Mof_C 	C 	0.835	0.9269	0.0691	-0.335
Mof_C 	C 	0.75	0.75	0.2802	-0.534
Mof_C 	C 	0.7267	0.2919	0.2757	0.092
Mof_C 	C 	0.7774	0.47771	0.50382	0.255
Mof_C 	C 	0.2409	0.3219	0.3161	-0.786
Mof_C 	C 	0.11	0.2099	0.60543	0.003
Mof_C 	C 	0.5476	0.34437	0.96761	-0.201
Mof_C 	C 	0.448	0.85117	0.03303	-0.199
Mof_C 	C 	0.6085	0.16067	0.99027	0.055
Mof_C 	C 	0.7041	0.3374	0.2962	-0.543
Mof_C 	C 	0.3879	0.7695	0.83459	0.289
Mof_C 	C 	0.7591	0.6781	0.6839	-0.786
Mof_C 	C 	0.2027	0.97751	0.44339	0.244
Mof_C 	C 	0.5223	0.7939	0.8455	-0.454
Mof_C 	C 	0.8233	0.7107	0.69241	0.301
Mof_C 	C 	0.25	0.75	0.5449	0.843
Mof_C 	C 	0.2746	0.07318	0.00278	0.029
Mof_C 	C 	0.388	0.637	0.6124	0.21
Mof_C 	C 	0.052	0.64883	0.03303	-0.198
Mof_C 	C 	0.8894	0.7657	0.73089	0.269
Mof_C 	C 	0.2707	0.1437	0.5194	-0.7
Mof_C 	C 	0.3217	0.0918	0.46897	-0.522
Mof_C 	C 	0.8852	0.0401	0.0153	-0.675
Mof_C 	C 	0.3918	0.3005	0.2364	-0.719
Mof_C 	C 	0.4826	0.3107	0.9675	0.566
Mof_C 	C 	0.8825	0.3227	0.8637	-0.418
Mof_C 	C 	0.0206	0.8977	0.4886	-0.519
Mof_C 	C 	0.7344	0.3463	0.5277	0.565
Mof_C 	C 	0.8904	0.8219	0.4293	-0.466
Mof_C 	C 	0.5526	0.766	0.67818	-0.071
Mof_C 	C 	0.6054	0.2074	0.0121	-0.482
Mof_C 	C 	0.5586	0.8915	0.55534	0.039
Mof_C 	C 	0.4474	0.766	0.17818	-0.071
Mof_C 	C 	0.6121	0.7695	0.33459	0.289
Mof_C 	C 	0.2642	0.40128	0.02865	-0.198
Mof_C 	C 	0.2748	0.7083	0.7617	0.219
Mof_C 	C 	0.1722	0.2116	0.6268	0.297
Mof_C 	C 	0.3362	0.5038	0.0869	-0.691
Mof_C 	C 	0.7409	0.1781	0.8161	-0.786
Mof_C 	C 	0.3268	0.2587	0.65681	-0.577
Mof_C 	C 	0.75	0.25	0.5997	0.546
Mof_C 	C 	0.89	0.7901	0.39457	0.003
Mof_C 	C 	0.8278	0.7884	0.3732	0.297
Mof_C 	C 	0.6981	0.6627	0.2807	-0.676
Mof_C 	C 	0.5499	0.7678	0.356	0.012
Mof_C 	C 	0.3167	0.9952	0.9738	-0.724
Mof_C 	C 	0.188	0.6011	0.5278	-0.411
Mof_C 	C 	0.3898	0.41651	0.4886	0.224
Mof_C 	C 	0.4738	0.7137	0.7174	-0.431
Mof_C 	C 	0.7268	0.7922	0.8426	0.071
Mof_C 	C 	0.112	0.137	0.8876	0.21
Mof_C 	C 	0.8935	0.16608	0.94536	0.044
Mof_C 	C 	0.89	0.2099	0.10543	0.003
Mof_C 	C 	0.6338	0.9616	0.5819	-0.687
Mof_C 	C 	0.116	0.2921	0.32991	-0.019
Mof_C 	C 	0.2959	0.3374	0.7962	-0.543
Mof_C 	C 	0.7774	0.52229	0.99618	0.255
Mof_C 	C 	0.1833	0.5048	0.9738	-0.724
Mof_C 	C 	0.9414	0.6085	0.55534	0.039
Mof_C 	C 	0.5091	0.094	0.4205	-0.461
Mof_C 	C 	0.8946	0.2926	0.0121	-0.478
Mof_C 	C 	0.5489	0.262	0.114	-0.144
Mof_C 	C 	0.3019	0.3373	0.7193	-0.676
Mof_C 	C 	0.3217	0.9082	0.03103	-0.522
Mof_C 	C 	0.1121	0.2695	0.66541	0.289
Mof_C 	C 	0.7642	0.09872	0.52865	-0.198
Mof_C 	C 	0.8914	0.2142	0.9243	-0.431
Mof_C 	C 	0.0526	0.266	0.32182	-0.071
Mof_C 	C 	0.7748	0.7917	0.2617	0.219
Mof_C 	C 	0.3662	0.0384	0.4181	-0.687
Mof_C 	C 	0.669	0.40606	0.96636	-0.524
Mof_C 	C 	0.0174	0.8107	0.5325	0.566
Mof_C 	C 	0.0223	0.7061	0.3455	-0.454
Mof_C 	C 	0.5494	0.6143	0.51077	0.064
Mof_C 	C 	0.6565	0.6013	0.9164	-0.481
Mof_C 	C 	0.8918	0.1995	0.7364	-0.719
Mof_C 	C 	0.7262	0.3545	0.9166	-0.716
Mof_C 	C 	0.384	0.2079	0.32991	-0.019
Mof_C 	C 	0.6082	0.6995	0.7636	-0.719
Mof_C 	C 	0.7746	0.57318	0.99722	0.029
Mof_C 	C 	0.6175	0.8227	0.6363	-0.418
Mof_C 	C 	0.1638	0.9962	0.0869	-0.686
Mof_C 	C 	0.1981	0.1627	0.7193	-0.676
Mof_C 	C 	0.55	0.2629	0.7914	-0.01
Mof_C 	C 	0.4501	0.7678	0.856	0.012
Mof_C 	C 	0.8167	0.4952	0.0262	-0.724
Mof_C 	C 	0.552	0.14883	0.96697	-0.199
Mof_C 	C 	0.169	0.09394	0.46636	-0.524
Mof_C 	C 	0.7656	0.8463	0.9723	0.565
Mof_C 	C 	0.8019	0.8373	0.2807	-0.676
Mof_C 	C 	0.2746	0.92682	0.49722	0.029
Mof_C 	C 	0.6722	0.2884	0.1268	0.297
Mof_C 	C 	0.4826	0.6893	0.5325	0.566
Mof_C 	C 	0.25	0.25	0.7938	-0.237
Mof_C 	C 	0.6054	0.7926	0.4879	-0.482
Mof_C 	C 	0.7267	0.7081	0.2243	0.092
Mof_C 	C 	0.11	0.7901	0.89457	0.003
Mof_C 	C 	0.3233	0.7893	0.19241	0.301
Mof_C 	C 	0.6175	0.1773	0.8637	-0.418
Mof_C 	C 	0.8915	0.66067	0.50973	0.055
Mof_C 	C 	0.7591	0.3219	0.8161	-0.786
Mof_C 	C 	0.1767	0.2893	0.30759	0.301
Mof_C 	C 	0.1717	0.3679	0.49127	0.24
Mof_C 	C 	0.8362	0.0038	0.9131	-0.686
Mof_C 	C 	0.6638	0.4962	0.9131	-0.691
Mof_C 	C 	0.25	0.75	0.7062	-0.237
Mof_C 	C 	0.3283	0.8679	0.00873	0.24
Mof_C 	C 	0.7585	0.99695	0.53074	-0.533
Mof_C 	C 	0.2738	0.6455	0.0834	-0.716
Mof_C 	C 	0.7959	0.8374	0.2038	-0.543
Mof_C 	C 	0.6086	0.2858	0.9243	-0.43
Mof_C 	C 	0.1218	0.42008	0.44566	0.235
Mof_C 	C 	0.2255	0.7088	0.3053	0.205
Mof_C 	C 	0.6783	0.9082	0.53103	-0.522
Mof_C 	C 	0.5526	0.234	0.82182	-0.071
Mof_C 	C 	0.1565	0.8987	0.4164	-0.481
Mof_C 	C 	0.25	0.25	0.7198	-0.534
Mof_C 	C 	0.9501	0.2678	0.144	0.013
Mof_C 	C 	0.9777	0.7061	0.8455	-0.455
Mof_C 	C 	0.174	0.7396	0.22281	-0.558
Mof_C 	C 	0.3019	0.6627	0.7807	-0.676
Mof_C 	C 	0.5476	0.65563	0.53239	-0.201
Mof_C 	C 	0.812	0.3989	0.4722	-0.411
Mof_C 	C 	0.6833	0.9952	0.4738	-0.725
Mof_C 	C 	0.7293	0.1437	0.0194	-0.699
Mof_C 	C 	0.2591	0.8219	0.1839	-0.786
Mof_C 	C 	0.2707	0.8563	0.9806	-0.699
Mof_C 	C 	0.7356	0.3215	0.1174	-0.796
Mof_C 	C 	0.0116	0.2612	0.8502	0.328
Mof_C 	C 	0.3002	0.42662	0.05557	0.052
Mof_C 	C 	0.6338	0.0384	0.9181	-0.687
Mof_C 	C 	0.2344	0.8463	0.4723	0.565
Mof_C 	C 	0.6065	0.66608	0.55464	0.043
Mof_C 	C 	0.8918	0.8005	0.7636	-0.719
Mof_C 	C 	0.326	0.7604	0.22281	-0.558
Mof_C 	C 	0.536	0.4393	0.4042	-0.326
Mof_C 	C 	0.2745	0.7912	0.3053	0.205
Mof_C 	C 	0.8167	0.5048	0.4738	-0.725
Mof_C 	C 	0.1218	0.57992	0.05434	0.236
Mof_C 	C 	0.7268	0.2078	0.6574	0.071
Mof_C 	C 	0.2409	0.6781	0.1839	-0.786
Mof_C 	C 	0.05	0.7629	0.2086	-0.01
Mof_C 	C 	0.9501	0.7322	0.356	0.012
Mof_C 	C 	0.6998	0.42662	0.55557	0.053
Mof_C 	C 	0.3278	0.2884	0.6268	0.297
Mof_C 	C 	0.1102	0.91651	0.0114	0.222
Mof_C 	C 	0.1981	0.8373	0.7807	-0.676
Mof_C 	C 	0.2293	0.3563	0.5194	-0.7
Mof_C 	C 	0.75	0.25	0.2198	-0.534
Mof_C 	C 	0.61	0.7099	0.39457	0.003
Mof_C 	C 	0.0476	0.15563	0.46761	-0.201
Mof_C 	C 	0.9816	0.3211	0.4673	0.565
Mof_C 	C 	0.8019	0.1627	0.2193	-0.676
Mof_C 	C 	0.2039	0.3356	0.1354	-0.481
Mof_C 	C 	0.3894	0.2657	0.26911	0.269
Mof_C 	C 	0.948	0.35117	0.96697	-0.198
Mof_C 	C 	0.9794	0.1023	0.5114	-0.519
Mof_C 	C 	0.7027	0.52249	0.94339	0.243
Mof_C 	C 	0.9826	0.1893	0.4675	0.566
Mof_C 	C 	0.3782	0.92008	0.05434	0.235
Mof_C 	C 	0.112	0.863	0.6124	0.21
Mof_C 	C 	0.1086	0.7858	0.0757	-0.431
Mof_C 	C 	0.4501	0.2322	0.644	0.012
Mof_C 	C 	0.7255	0.7912	0.8053	0.205
Mof_C 	C 	0.6672	0.3648	0.94474	0.248
Mof_C 	C 	0.5116	0.7612	0.1498	0.328
Mof_C 	C 	0.036	0.9393	0.5958	-0.326
Mof_C 	C 	0.6148	0.4599	0.0153	-0.677
Mof_C 	C 	0.2774	0.02229	0.00382	0.254
Mof_C 	C 	0.3935	0.33392	0.44536	0.043
Mof_C 	C 	0.8217	0.5918	0.53103	-0.523
Mof_C 	C 	0.6096	0.6781	0.4293	-0.466
Mof_C 	C 	0.7415	0.49695	0.96926	-0.533
Mof_C 	C 	0.7252	0.7083	0.2617	0.219
Mof_C 	C 	0.1148	0.0401	0.5153	-0.677
Mof_C 	C 	0.4474	0.234	0.32182	-0.071
Mof_C 	C 	0.8328	0.1352	0.94474	0.247
Mof_C 	C 	0.5184	0.8211	0.0327	0.565
Mof_C 	C 	0.2356	0.8215	0.8826	-0.796
Mof_C 	C 	0.384	0.7921	0.17009	-0.019
Mof_C 	C 	0.335	0.5731	0.5691	-0.335
Mof_C 	C 	0.8935	0.83392	0.55464	0.043
Mof_C 	C 	0.036	0.0607	0.9042	-0.326
Mof_C 	C 	0.5262	0.2863	0.2826	-0.431
Mof_C 	C 	0.2293	0.6437	0.9806	-0.7
Mof_C 	C 	0.1096	0.8219	0.9293	-0.467
Mof_C 	C 	0.7656	0.1537	0.5277	0.565
Mof_C 	C 	0.8001	0.3372	0.7157	-0.637
Mof_C 	C 	0.4884	0.2388	0.8502	0.328
Mof_C 	C 	0.1054	0.7074	0.9879	-0.478
Mof_C 	C 	0.8898	0.91651	0.5114	0.224
Mof_C 	C 	0.25	0.75	0.6666	0.596
Mof_C 	C 	0.4777	0.2061	0.1545	-0.454
Mof_C 	C 	0.888	0.137	0.3876	0.21
Mof_C 	C 	0.7973	0.02249	0.55661	0.244
Mof_C 	C 	0.7226	0.97771	0.99618	0.254
Mof_C 	C 	0.2415	0.99695	0.03074	-0.531
Mof_C 	C 	0.1086	0.2142	0.4243	-0.43
Mof_C 	C 	0.95	0.7629	0.7086	-0.01
Mof_C 	C 	0.2268	0.2922	0.1574	0.071
Mof_C 	C 	0.1106	0.2343	0.26911	0.269
Mof_C 	C 	0.8662	0.5384	0.5819	-0.688
Mof_C 	C 	0.8852	0.9599	0.4847	-0.677
Mof_C 	C 	0.5184	0.1789	0.4673	0.565
Mof_C 	C 	0.665	0.4269	0.4309	-0.335
Mof_C 	C 	0.331	0.59394	0.03364	-0.524
Mof_C 	C 	0.1085	0.33933	0.49027	0.055
Mof_C 	C 	0.2959	0.6626	0.7038	-0.543
Mof_C 	C 	0.312	0.8989	0.5278	-0.411
Mof_C 	C 	0.3002	0.57338	0.44443	0.053
Mof_C 	C 	0.0184	0.3211	0.9673	0.565
Mof_C 	C 	0.3167	0.0048	0.5262	-0.725
Mof_C 	C 	0.3825	0.1773	0.3637	-0.418
Mof_C 	C 	0.6717	0.1321	0.99127	0.24
Mof_C 	C 	0.2267	0.7919	0.7243	0.092
Mof_C 	C 	0.9794	0.8977	0.9886	-0.525
Mof_C 	C 	0.6121	0.8068	0.3043	-0.775
Mof_C 	C 	0.1998	0.92662	0.44443	0.052
Mof_C 	C 	0.8268	0.7587	0.34319	-0.577
Mof_C 	C 	0.616	0.2079	0.82991	-0.019
Mof_C 	C 	0.7041	0.6626	0.2038	-0.543
Mof_C 	C 	0.7733	0.7919	0.2243	0.092
Mof_C 	C 	0.3825	0.8227	0.1363	-0.418
Mof_C 	C 	0.7039	0.1644	0.6354	-0.481
Mof_C 	C 	0.3662	0.9616	0.0819	-0.687
Mof_C 	C 	0.4794	0.3977	0.0114	-0.52
Mof_C 	C 	0.6102	0.41651	0.9886	0.223
Mof_C 	C 	0.4414	0.1085	0.44466	0.039
Mof_C 	C 	0.7745	0.7088	0.8053	0.205
Mof_C 	C 	0.4524	0.65563	0.03239	-0.201
Mof_C 	C 	0.2656	0.3463	0.0277	0.564
Mof_C 	C 	0.3915	0.16067	0.49027	0.055
Mof_C 	C 	0.2642	0.59872	0.47135	-0.198
Mof_C 	C 	0.2226	0.47771	0.00382	0.255
Mof_C 	C 	0.964	0.9393	0.0958	-0.326
Mof_C 	C 	0.2268	0.7078	0.3426	0.071
Mof_C 	C 	0.61	0.2901	0.10543	0.003
Mof_C 	C 	0.7973	0.97751	0.94339	0.241
Mof_C 	C 	0.665	0.5731	0.0691	-0.335
Mof_C 	C 	0.8946	0.7074	0.4879	-0.482
Mof_C 	C 	0.25	0.75	0.2864	-0.519
Mof_C 	C 	0.2748	0.2917	0.7383	0.219
Mof_C 	C 	0.8904	0.1781	0.0707	-0.467
Mof_C 	C 	0.964	0.0607	0.4042	-0.326
Mof_C 	C 	0.2252	0.2083	0.7383	0.219
Mof_C 	C 	0.75	0.25	0.7136	-0.519
Mof_C 	C 	0.6121	0.1932	0.1957	-0.775
Mof_C 	C 	0.7745	0.2912	0.6947	0.205
Mof_C 	C 	0.3852	0.5401	0.9847	-0.677
Mof_C 	C 	0.4794	0.6023	0.4886	-0.519
Mof_C 	C 	0.0499	0.7322	0.856	0.013
Mof_C 	C 	0.0262	0.7863	0.7174	-0.43
Mof_C 	C 	0.8662	0.4616	0.9181	-0.688
Mof_C 	C 	0.8328	0.8648	0.55526	0.248
Mof_C 	C 	0.3904	0.6781	0.9293	-0.466
Mof_C 	C 	0.1565	0.1013	0.0836	-0.483
Mof_C 	C 	0.1732	0.2413	0.65681	-0.577
Mof_C 	C 	0.3278	0.7116	0.8732	0.297
Mof_C 	C 	0.674	0.2396	0.77719	-0.558
Mof_C 	C 	0.7262	0.6455	0.5834	-0.716
Mof_C 	C 	0.8782	0.57992	0.55434	0.235
Mof_C 	C 	0.1638	0.0038	0.4131	-0.691
Mof_C 	C 	0.3898	0.58349	0.0114	0.223
Mof_C 	C 	0.3268	0.7413	0.84319	-0.578
Mof_C 	C 	0.0526	0.734	0.17818	-0.071
Mof_C 	C 	0.7039	0.8356	0.8646	-0.481
Mof_C 	C 	0.7254	0.92682	0.99722	0.029
Mof_C 	C 	0.75	0.75	0.2062	-0.237
Mof_C 	C 	0.3914	0.7142	0.0757	-0.43
Mof_C 	C 	0.464	0.5607	0.5958	-0.326
Mof_C 	C 	0.9414	0.3915	0.94466	0.038
Mof_C 	C 	0.7252	0.2917	0.2383	0.219
Mof_C 	C 	0.1999	0.6628	0.2843	-0.637
Mof_C 	C 	0.1054	0.2926	0.5121	-0.482
Mof_C 	C 	0.6106	0.7343	0.73089	0.269
Mof_C 	C 	0.8278	0.2116	0.1268	0.296
Mof_C 	C 	0.2226	0.52229	0.49618	0.255
Mof_C 	C 	0.8217	0.4082	0.96897	-0.523
Mof_C 	C 	0.0489	0.762	0.886	-0.144
Mof_C 	C 	0.3283	0.1321	0.49127	0.24
Mof_C 	C 	0.831	0.90606	0.53364	-0.524
Mof_C 	C 	0.7644	0.1785	0.1174	-0.796
Mof_C 	C 	0.2027	0.02249	0.05661	0.241
Mof_C 	C 	0.7254	0.07318	0.50278	0.029
Mof_C 	C 	0.75	0.75	0.1666	0.596
Mof_C 	C 	0.1175	0.6773	0.1363	-0.418
Mof_C 	C 	0.25	0.75	0.4003	0.546
Mof_C 	C 	0.25	0.75	0.3607	-0.213
Mof_C 	C 	0.2733	0.2919	0.7757	0.092
Mof_C 	C 	0.0091	0.594	0.5795	-0.46
Mof_C 	C 	0.0499	0.2678	0.644	0.012
Mof_C 	C 	0.2254	0.42682	0.00278	0.029
Mof_C 	C 	0.8233	0.2893	0.80759	0.301
Mof_C 	C 	0.8001	0.6628	0.7843	-0.637
Mof_C 	C 	0.2255	0.2912	0.1947	0.205
Mof_C 	C 	0.6102	0.58349	0.5114	0.224
Mof_C 	C 	0.9826	0.8107	0.0325	0.567
Mof_C 	C 	0.0586	0.3915	0.44466	0.039
Mof_C 	C 	0.0206	0.1023	0.0114	-0.525
Mof_C 	C 	0.0494	0.8857	0.01077	0.066
Mof_C 	C 	0.9511	0.238	0.114	-0.144
Mof_C 	C 	0.7644	0.8215	0.3826	-0.796
Mof_C 	C 	0.2262	0.1455	0.4166	-0.716
Mof_C 	C 	0.75	0.25	0.4551	0.843
Mof_C 	C 	0.5206	0.3977	0.5114	-0.519
Mof_C 	C 	0.884	0.2921	0.82991	-0.019
Mof_C 	C 	0.388	0.363	0.8876	0.21
Mof_C 	C 	0.4511	0.262	0.614	-0.144
Mof_C 	C 	0.3879	0.2305	0.66541	0.289
Mof_C 	C 	0.5174	0.6893	0.0325	0.566
Mof_C 	C 	0.25	0.25	0.9551	0.843
Mof_C 	C 	0.1148	0.9599	0.9847	-0.675
Mof_C 	C 	0.6717	0.8679	0.50873	0.24
Mof_C 	C 	0.688	0.1011	0.4722	-0.411
Mof_C 	C 	0.7415	0.50305	0.53074	-0.533
Mof_C 	C 	0.05	0.2371	0.2914	-0.01
Mof_C 	C 	0.1732	0.7587	0.84319	-0.577
Mof_C 	C 	0.3915	0.83933	0.00973	0.055
Mof_C 	C 	0.8825	0.6773	0.6363	-0.418
Mof_C 	C 	0.2973	0.52249	0.44339	0.243
Mof_C 	C 	0.326	0.2396	0.27719	-0.558
Mof_C 	C 	0.4816	0.8211	0.5327	0.565
Mof_C 	C 	0.8362	0.9962	0.5869	-0.691
Mof_C 	C 	0.7255	0.2088	0.6947	0.205
Mof_C 	C 	0.4414	0.8915	0.05534	0.04
Mof_C 	C 	0.7959	0.1626	0.2962	-0.543
Mof_C 	C 	0.75	0.75	0.9003	0.546
Mof_C 	C 	0.45	0.2629	0.2914	-0.01
Mof_C 	C 	0.8879	0.6932	0.3043	-0.775
Mof_C 	C 	0.7961	0.3356	0.6354	-0.481
Mof_C 	C 	0.1767	0.7107	0.19241	0.301
Mof_C 	C 	0.6565	0.3987	0.5836	-0.482
Mof_C 	C 	0.0128	0.2373	0.0888	0.402
Mof_C 	C 	0.8782	0.42008	0.94566	0.236
Mof_C 	C 	0.2356	0.1785	0.6174	-0.796
Mof_C 	C 	0.448	0.14883	0.46697	-0.199
Mof_C 	C 	0.2358	0.09872	0.02865	-0.199
Mof_C 	C 	0.4524	0.34437	0.46761	-0.201
Mof_C 	C 	0.9524	0.15563	0.96761	-0.203
Mof_C 	C 	0.7027	0.47751	0.55661	0.243
Mof_C 	C 	0.6086	0.7142	0.5757	-0.43
Mof_C 	C 	0.948	0.64883	0.53303	-0.199
Mof_C 	C 	0.7356	0.6785	0.3826	-0.796
Mof_C 	C 	0.812	0.6011	0.0278	-0.41
Mof_C 	C 	0.1085	0.66067	0.00973	0.053
Mof_C 	C 	0.6783	0.0918	0.96897	-0.522
Mof_C 	C 	0.4872	0.2627	0.0888	0.403
Mof_C 	C 	0.2732	0.7922	0.3426	0.071
Mof_C 	C 	0.4511	0.738	0.886	-0.144
Mof_C 	C 	0.8914	0.7858	0.5757	-0.43
Mof_C 	C 	0.188	0.3989	0.9722	-0.41
Mof_C 	C 	0.6767	0.2107	0.80759	0.301
Mof_C 	C 	0.7358	0.40128	0.52865	-0.198
Mof_C 	C 	0.3001	0.8372	0.2843	-0.637
Mof_C 	C 	0.464	0.4393	0.9042	-0.326
Mof_C 	C 	0.95	0.2371	0.7914	-0.01
Mof_C 	C 	0.6999	0.1628	0.7157	-0.637
Mof_C 	C 	0.6148	0.5401	0.4847	-0.677
Mof_C 	C 	0.2774	0.97771	0.49618	0.255
Mof_C 	C 	0.1121	0.6932	0.8043	-0.775
Mof_C 	C 	0.3362	0.4962	0.4131	-0.691
Mof_C 	C 	0.2656	0.6537	0.4723	0.565
Mof_C 	C 	0.2585	0.50305	0.03074	-0.533
Mof_C 	C 	0.3914	0.2858	0.4243	-0.43
Mof_C 	C 	0.0494	0.1143	0.48923	0.064
Mof_C 	C 	0.2039	0.6644	0.3646	-0.481
Mof_C 	C 	0.8894	0.2343	0.76911	0.269
Mof_C 	C 	0.6999	0.8372	0.7843	-0.637
Mof_C 	C 	0.1672	0.1352	0.44474	0.248
Mof_C 	C 	0.6998	0.57338	0.94443	0.052
Mof_C 	C 	0.2745	0.2088	0.1947	0.205
Mof_C 	C 	0.7738	0.8545	0.5834	-0.716
Mof_C 	C 	0.4909	0.094	0.9205	-0.461
Mof_C 	C 	0.3435	0.3987	0.0836	-0.481
Mof_C 	C 	0.7732	0.2922	0.6574	0.071
Mof_C 	C 	0.2644	0.3215	0.6174	-0.796
Mof_C 	C 	0.2644	0.6785	0.8826	-0.796
Mof_C 	C 	0.5262	0.7137	0.2174	-0.431
Mof_C 	C 	0.9511	0.762	0.386	-0.144
Mof_C 	C 	0.25	0.75	0.7802	-0.534
Mof_C 	C 	0.3328	0.3648	0.44474	0.248
Mof_C 	C 	0.3435	0.6013	0.4164	-0.482
Mof_C 	C 	0.6722	0.7116	0.3732	0.297
Mof_C 	C 	0.8435	0.1013	0.5836	-0.481
Mof_C 	C 	0.9738	0.7863	0.2174	-0.43
Mof_C 	C 	0.5128	0.7373	0.9112	0.403
Mof_C 	C 	0.2262	0.8545	0.0834	-0.715
Mof_C 	C 	0.612	0.637	0.1124	0.21
Mof_C 	C 	0.9872	0.7627	0.9112	0.402
Mof_C 	C 	0.6121	0.2305	0.16541	0.289
Mof_C 	C 	0.9474	0.266	0.82182	-0.071
Mof_C 	C 	0.8915	0.33933	0.99027	0.053
Mof_C 	C 	0.8283	0.6321	0.50873	0.24
Mof_C 	C 	0.7344	0.6537	0.9723	0.564
Mof_C 	C 	0.8879	0.7305	0.33459	0.289
Mof_C 	C 	0.3904	0.3219	0.5707	-0.466
Mof_C 	C 	0.6065	0.33392	0.94536	0.043
Mof_C 	C 	0.8002	0.92662	0.94443	0.054
Mof_C 	C 	0.4884	0.7612	0.6498	0.328
Mof_C 	C 	0.7732	0.7078	0.8426	0.071
Mof_C 	C 	0.8002	0.07338	0.55557	0.052
Mof_C 	C 	0.0586	0.6085	0.05534	0.038
Mof_C 	C 	0.9738	0.2137	0.2826	-0.43
Mof_C 	C 	0.1717	0.6321	0.00873	0.24
Mof_C 	C 	0.9777	0.2939	0.6545	-0.454
Mof_C 	C 	0.9524	0.84437	0.53239	-0.201
Mof_C 	C 	0.2252	0.7917	0.7617	0.219
Mof_C 	C 	0.7642	0.90128	0.97135	-0.199
Mof_C 	C 	0.6833	0.0048	0.0262	-0.724
Mof_C 	C 	0.1783	0.5918	0.03103	-0.523
Mof_C 	C 	0.9474	0.734	0.67818	-0.071
Mof_C 	C 	0.8268	0.2413	0.15681	-0.577
Mof_C 	C 	0.7585	0.00305	0.96926	-0.531
Mof_C 	C 	0.2961	0.1644	0.1354	-0.481
Mof_C 	C 	0.6732	0.2587	0.15681	-0.578
Mof_C 	C 	0.674	0.7604	0.72281	-0.558
Mof_C 	C 	0.4872	0.7373	0.4112	0.403
Mof_C 	C 	0.4816	0.1789	0.9673	0.565
Mof_C 	C 	0.7707	0.6437	0.4806	-0.7
Mof_C 	C 	0.9909	0.594	0.0795	-0.456
Mof_C 	C 	0.9884	0.2612	0.3502	0.328
Mof_C 	C 	0.75	0.75	0.0449	0.843
Mof_C 	C 	0.5091	0.906	0.0795	-0.461
Mof_C 	C 	0.6981	0.3373	0.2193	-0.676
Mof_C 	C 	0.6638	0.5038	0.5869	-0.691
Mof_C 	C 	0.1065	0.16608	0.44536	0.043
Mof_C 	C 	0.5586	0.1085	0.94466	0.04
Mof_N 	N 	0.604	0.4092	0.4067	-0.069
Mof_N 	N 	0.104	0.0908	0.9067	-0.069
Mof_N 	N 	0.396	0.5908	0.5933	-0.069
Mof_N 	N 	0.104	0.9092	0.5933	-0.07
Mof_N 	N 	0.896	0.0908	0.4067	-0.07
Mof_N 	N 	0.604	0.5908	0.0933	-0.069
Mof_N 	N 	0.896	0.9092	0.0933	-0.069
Mof_N 	N 	0.396	0.4092	0.9067	-0.069
Mof_O 	O 	0.4467	0.1823	0.995	-0.622
Mof_O 	O 	0.9467	0.3177	0.495	-0.623
Mof_O 	O 	0.665	0.3355	0.3954	-0.443
Mof_O 	O 	0.325	0.3259	0.0221	-0.648
Mof_O 	O 	0.75	0.25	0.42	-0.88
Mof_O 	O 	0.191	0.7581	0.41602	-0.604
Mof_O 	O 	0.525	0.7203	0.1372	-0.505
Mof_O 	O 	0.0353	0.3006	0.9384	-0.636
Mof_O 	O 	0.8112	0.2555	0.46896	-0.862
Mof_O 	O 	0.9577	0.7957	0.9276	-0.458
Mof_O 	O 	0.1753	0.337	0.8965	-0.384
Mof_O 	O 	0.5533	0.6937	0.0605	-0.627
Mof_O 	O 	0.0353	0.6994	0.5616	-0.636
Mof_O 	O 	0.4467	0.3063	0.9395	-0.627
Mof_O 	O 	0.335	0.6645	0.6046	-0.443
Mof_O 	O 	0.025	0.7797	0.6372	-0.505
Mof_O 	O 	0.5533	0.1823	0.495	-0.623
Mof_O 	O 	0.4556	0.2007	0.8572	-0.455
Mof_O 	O 	0.0319	0.7889	0.50371	-0.626
Mof_O 	O 	0.809	0.2419	0.58398	-0.604
Mof_O 	O 	0.2954	0.1749	0.0332	-0.663
Mof_O 	O 	0.7046	0.8251	0.9668	-0.663
Mof_O 	O 	0.6888	0.7555	0.03104	-0.862
Mof_O 	O 	0.9678	0.7223	0.9272	-0.507
Mof_O 	O 	0.7954	0.3251	0.5332	-0.663
Mof_O 	O 	0.3112	0.2445	0.96896	-0.862
Mof_O 	O 	0.691	0.7419	0.91602	-0.604
Mof_O 	O 	0.0423	0.2043	0.0724	-0.458
Mof_O 	O 	0.5444	0.7993	0.1428	-0.455
Mof_O 	O 	0.0444	0.2993	0.8572	-0.455
Mof_O 	O 	0.9681	0.2111	0.49629	-0.626
Mof_O 	O 	0.2954	0.8251	0.4668	-0.663
Mof_O 	O 	0.835	0.1645	0.3954	-0.443
Mof_O 	O 	0.8247	0.663	0.1035	-0.384
Mof_O 	O 	0.3104	0.7504	0.6511	-0.607
Mof_O 	O 	0.9647	0.6994	0.0616	-0.636
Mof_O 	O 	0.175	0.1741	0.0221	-0.648
Mof_O 	O 	0.025	0.2203	0.8628	-0.505
Mof_O 	O 	0.5423	0.7043	0.9276	-0.458
Mof_O 	O 	0.0533	0.8063	0.5605	-0.627
Mof_O 	O 	0.825	0.1741	0.5221	-0.648
Mof_O 	O 	0.6753	0.837	0.1035	-0.384
Mof_O 	O 	0.9556	0.7007	0.1428	-0.455
Mof_O 	O 	0.0444	0.7007	0.6428	-0.455
Mof_O 	O 	0.9467	0.6823	0.005	-0.622
Mof_O 	O 	0.5444	0.2007	0.3572	-0.455
Mof_O 	O 	0.691	0.2581	0.58398	-0.604
Mof_O 	O 	0.5423	0.2957	0.5724	-0.458
Mof_O 	O 	0.9678	0.2777	0.5728	-0.507
Mof_O 	O 	0.5322	0.2223	0.5728	-0.507
Mof_O 	O 	0.0322	0.2777	0.0728	-0.507
Mof_O 	O 	0.675	0.3259	0.5221	-0.648
Mof_O 	O 	0.75	0.75	0.08	-0.88
Mof_O 	O 	0.0322	0.7223	0.4272	-0.507
Mof_O 	O 	0.4577	0.7043	0.4276	-0.458
Mof_O 	O 	0.4467	0.6937	0.5605	-0.627
Mof_O 	O 	0.5533	0.3063	0.4395	-0.627
Mof_O 	O 	0.835	0.8355	0.1046	-0.443
Mof_O 	O 	0.9556	0.2993	0.3572	-0.455
Mof_O 	O 	0.4681	0.7111	0.50371	-0.626
Mof_O 	O 	0.525	0.2797	0.3628	-0.505
Mof_O 	O 	0.2046	0.6749	0.4668	-0.663
Mof_O 	O 	0.975	0.2203	0.3628	-0.505
Mof_O 	O 	0.809	0.7581	0.91602	-0.603
Mof_O 	O 	0.1888	0.2555	0.96896	-0.861
Mof_O 	O 	0.1888	0.7445	0.53104	-0.862
Mof_O 	O 	0.1896	0.7496	0.6511	-0.607
Mof_O 	O 	0.0319	0.2111	0.99629	-0.626
Mof_O 	O 	0.6753	0.163	0.3965	-0.384
Mof_O 	O 	0.25	0.75	0.58	-0.88
Mof_O 	O 	0.4678	0.2223	0.0728	-0.507
Mof_O 	O 	0.335	0.3355	0.8954	-0.443
Mof_O 	O 	0.6896	0.7504	0.1511	-0.607
Mof_O 	O 	0.309	0.2581	0.08398	-0.604
Mof_O 	O 	0.675	0.6741	0.9779	-0.648
Mof_O 	O 	0.9467	0.8063	0.0605	-0.628
Mof_O 	O 	0.3112	0.7555	0.53104	-0.862
Mof_O 	O 	0.1896	0.2504	0.8489	-0.607
Mof_O 	O 	0.309	0.7419	0.41602	-0.604
Mof_O 	O 	0.3247	0.837	0.6035	-0.384
Mof_O 	O 	0.665	0.6645	0.1046	-0.443
Mof_O 	O 	0.5319	0.7111	0.00371	-0.626
Mof_O 	O 	0.7046	0.1749	0.5332	-0.663
Mof_O 	O 	0.7954	0.6749	0.9668	-0.663
Mof_O 	O 	0.4647	0.1994	0.9384	-0.636
Mof_O 	O 	0.325	0.6741	0.4779	-0.648
Mof_O 	O 	0.191	0.2419	0.08398	-0.603
Mof_O 	O 	0.4681	0.2889	0.99629	-0.626
Mof_O 	O 	0.0533	0.6823	0.505	-0.623
Mof_O 	O 	0.5353	0.8006	0.0616	-0.636
Mof_O 	O 	0.3104	0.2496	0.8489	-0.607
Mof_O 	O 	0.5319	0.2889	0.49629	-0.626
Mof_O 	O 	0.1753	0.663	0.6035	-0.384
Mof_O 	O 	0.8112	0.7445	0.03104	-0.861
Mof_O 	O 	0.175	0.8259	0.4779	-0.648
Mof_O 	O 	0.9577	0.2043	0.5724	-0.458
Mof_O 	O 	0.5533	0.8177	0.005	-0.622
Mof_O 	O 	0.6896	0.2496	0.3489	-0.607
Mof_O 	O 	0.475	0.2797	0.8628	-0.505
Mof_O 	O 	0.2046	0.3251	0.0332	-0.663
Mof_O 	O 	0.8104	0.2504	0.3489	-0.607
Mof_O 	O 	0.25	0.25	0.92	-0.88
Mof_O 	O 	0.6888	0.2445	0.46896	-0.862
Mof_O 	O 	0.4678	0.7777	0.4272	-0.507
Mof_O 	O 	0.8247	0.337	0.3965	-0.384
Mof_O 	O 	0.0533	0.1937	0.9395	-0.628
Mof_O 	O 	0.3247	0.163	0.8965	-0.384
Mof_O 	O 	0.9681	0.7889	0.00371	-0.626
Mof_O 	O 	0.9467	0.1937	0.4395	-0.627
Mof_O 	O 	0.165	0.8355	0.6046	-0.443
Mof_O 	O 	0.5353	0.1994	0.4384	-0.636
Mof_O 	O 	0.5322	0.7777	0.9272	-0.507
Mof_O 	O 	0.475	0.7203	0.6372	-0.505
Mof_O 	O 	0.4647	0.8006	0.5616	-0.636
Mof_O 	O 	0.0423	0.7957	0.4276	-0.458
Mof_O 	O 	0.165	0.1645	0.8954	-0.443
Mof_O 	O 	0.8104	0.7496	0.1511	-0.607
Mof_O 	O 	0.4467	0.8177	0.505	-0.623
Mof_O 	O 	0.9647	0.3006	0.4384	-0.636
Mof_O 	O 	0.975	0.7797	0.1372	-0.505
Mof_O 	O 	0.825	0.8259	0.9779	-0.648
Mof_O 	O 	0.4577	0.2957	0.0724	-0.458
Mof_O 	O 	0.0533	0.3177	0.995	-0.622
Mof_O 	O 	0.4556	0.7993	0.6428	-0.455
_end
