data_functionalizedCrystal
_audit_creation_method	'EQeq! by Chris Wilmer'
_symmetry_space_group_name_H-M	'P1'
_symmetry_Int_Tables_number	1
_symmetry_cell_setting	triclinic
loop_
_symmetry_equiv_pos_as_xyz
  x,y,z
_cell_length_a	11.439
_cell_length_b	11.966
_cell_length_c	12.113
_cell_angle_alpha	101.036
_cell_angle_beta	106.89
_cell_angle_gamma	107.95
loop_
_atom_site_label
_atom_site_type_symbol
_atom_site_fract_x
_atom_site_fract_y
_atom_site_fract_z
_atom_site_charge
Mof_Sr	Sr	0.28404	0.28592	0.77425	1.162
Mof_O 	O 	0.9225	0.168	0.4247	-0.409
Mof_O 	O 	0.0706	0.2527	0.6108	-0.531
Mof_O 	O 	0.8681	0.2992	0.2928	-0.429
Mof_O 	O 	0.9092	0.9641	0.6755	-0.314
Mof_O 	O 	0.1185	0.0921	0.7663	-0.475
Mof_O 	O 	0.7756	0.8704	0.7927	-0.474
Mof_O 	O 	0.2616	0.1101	0.5869	-0.483
Mof_O 	O 	0.4625	0.2492	0.6965	-0.453
Mof_O 	O 	0.6669	0.2147	0.6872	-0.464
Mof_C 	C 	0.9967	0.2602	0.5162	0.424
Mof_C 	C 	0.9974	0.3844	0.5084	-0.096
Mof_C 	C 	0.9329	0.3961	0.396	0.179
Mof_C 	C 	0.0631	0.4873	0.6103	-0.178
Mof_H 	H 	0.1055	0.4788	0.6845	0.064
Mof_C 	C 	0.0125	0.024	0.7694	0.317
Mof_C 	C 	0.0061	0.0106	0.8891	-0.283
Mof_C 	C 	0.1173	0.074	0.9952	-0.024
Mof_H 	H 	0.1958	0.1235	0.9915	0.015
Mof_C 	C 	0.8865	0.9348	0.893	0.356
Mof_C 	C 	0.3843	0.1479	0.6152	0.408
Mof_C 	C 	0.4445	0.0715	0.5546	-0.255
Mof_C 	C 	0.5828	0.1093	0.5948	0.294
Mof_C 	C 	0.3632	0.9627	0.4606	0.035
Mof_H 	H 	0.2717	0.9379	0.4345	0.05
Mof_H 	H 	0.861	0.2357	0.312	0.274
Mof_H 	H 	0.793	0.873	0.7313	0.302
Mof_H 	H 	0.622	0.25	0.707	0.286
Mof_Sr	Sr	0.71596	0.71408	0.22575	1.21
Mof_O 	O 	0.0775	0.832	0.5753	-0.389
Mof_O 	O 	0.9294	0.7473	0.3892	-0.449
Mof_O 	O 	0.1319	0.7008	0.7072	-0.467
Mof_O 	O 	0.0908	0.0359	0.3245	-0.47
Mof_O 	O 	0.8815	0.9079	0.2337	-0.481
Mof_O 	O 	0.2244	0.1296	0.2073	-0.415
Mof_O 	O 	0.7384	0.8899	0.4131	-0.435
Mof_O 	O 	0.5375	0.7508	0.3035	-0.433
Mof_O 	O 	0.3331	0.7853	0.3128	-0.421
Mof_C 	C 	0.0033	0.7398	0.4838	0.36
Mof_C 	C 	0.0026	0.6156	0.4916	-0.241
Mof_C 	C 	0.0671	0.6039	0.604	0.268
Mof_C 	C 	0.9369	0.5127	0.3897	0.01
Mof_H 	H 	0.8945	0.5212	0.3155	0.015
Mof_C 	C 	0.9875	0.976	0.2306	0.462
Mof_C 	C 	0.9939	0.9894	0.1109	-0.045
Mof_C 	C 	0.8827	0.926	0.0048	-0.157
Mof_H 	H 	0.8042	0.8765	0.0085	0.076
Mof_C 	C 	0.1135	0.0652	0.107	0.109
Mof_C 	C 	0.6157	0.8521	0.3848	0.348
Mof_C 	C 	0.5555	0.9285	0.4454	-0.05
Mof_C 	C 	0.4172	0.8907	0.4052	0.165
Mof_C 	C 	0.6368	0.0373	0.5394	-0.212
Mof_H 	H 	0.7283	0.0621	0.5655	0.112
Mof_H 	H 	0.139	0.7643	0.688	0.295
Mof_H 	H 	0.207	0.127	0.2687	0.259
Mof_H 	H 	0.378	0.75	0.293	0.269
Mof_Sr	Sr	-0	-1.9798e-17	0.5	1.409
_end
