data_functionalizedCrystal
_audit_creation_method	'EQeq! by Chris Wilmer'
_symmetry_space_group_name_H-M	'P1'
_symmetry_Int_Tables_number	1
_symmetry_cell_setting	triclinic
loop_
_symmetry_equiv_pos_as_xyz
  x,y,z
_cell_length_a	10.27
_cell_length_b	16.594
_cell_length_c	28.683
_cell_angle_alpha	90
_cell_angle_beta	90
_cell_angle_gamma	104.964
loop_
_atom_site_label
_atom_site_type_symbol
_atom_site_fract_x
_atom_site_fract_y
_atom_site_fract_z
_atom_site_charge
Mof_Cd	Cd	0.96057	0.66812	0.34741	0.481
Mof_Cd	Cd	0.602	0.6001	0.30825	0.53
Mof_Cd	Cd	0.03943	0.83188	0.84741	0.48
Mof_Cd	Cd	0.398	0.8999	0.80825	0.53
Mof_Cd	Cd	0.03943	0.33188	0.65259	0.481
Mof_Cd	Cd	0.398	0.3999	0.69175	0.53
Mof_Cd	Cd	0.96057	0.16812	0.15259	0.48
Mof_Cd	Cd	0.602	0.1001	0.19175	0.53
Mof_H 	H 	0.7353	0.8883	0.2468	0.092
Mof_H 	H 	0.0247	0.0754	0.3003	0.128
Mof_H 	H 	0.9229	0.8556	0.3666	0.097
Mof_H 	H 	0.1005	0.9346	0.4237	-0.041
Mof_H 	H 	0.96	0.9562	0.4247	-0.036
Mof_H 	H 	0.8793	0.1515	0.4368	0.36
Mof_H 	H 	0.8396	0.0545	0.4438	0.353
Mof_H 	H 	0.9251	0.0941	0.4004	0.369
Mof_H 	H 	0.2075	0.2961	0.5435	0.367
Mof_H 	H 	0.3519	0.2811	0.5409	0.358
Mof_H 	H 	0.2498	0.236	0.5792	0.358
Mof_H 	H 	0.2692	0.9528	0.4474	0.337
Mof_H 	H 	0.3436	0.9776	0.4951	0.317
Mof_H 	H 	0.4003	0.0264	0.4495	0.329
Mof_H 	H 	0.7423	0.5087	0.4798	0.08
Mof_H 	H 	0.8232	0.3033	0.5331	0.12
Mof_H 	H 	0.0338	0.4202	0.4244	0.13
Mof_H 	H 	0.8955	0.1974	0.5042	-0.038
Mof_H 	H 	0.0093	0.249	0.5373	-0.02
Mof_H 	H 	0.3407	0.9977	0.6459	0.109
Mof_H 	H 	0.6236	0.1761	0.5826	0.112
Mof_H 	H 	0.6963	0.095	0.7086	0.094
Mof_H 	H 	0.4743	0.1129	0.5148	-0.053
Mof_H 	H 	0.4482	0.1895	0.5422	-0.038
Mof_H 	H 	0.399	0.656	0.36	0.267
Mof_H 	H 	0.343	0.642	0.314	0.242
Mof_H 	H 	0.667	0.539	0.392	0.269
Mof_H 	H 	0.542	0.554	0.4071	0.281
Mof_H 	H 	0.2647	0.6117	0.7468	0.092
Mof_H 	H 	0.9753	0.4246	0.8003	0.126
Mof_H 	H 	0.0771	0.6444	0.8666	0.097
Mof_H 	H 	0.8995	0.5654	0.9237	-0.041
Mof_H 	H 	0.04	0.5438	0.9247	-0.037
Mof_H 	H 	0.1207	0.3485	0.9368	0.361
Mof_H 	H 	0.1604	0.4455	0.9438	0.354
Mof_H 	H 	0.0749	0.4059	0.9004	0.37
Mof_H 	H 	0.7925	0.2039	0.0435	0.367
Mof_H 	H 	0.6481	0.2189	0.0409	0.358
Mof_H 	H 	0.7502	0.264	0.0792	0.358
Mof_H 	H 	0.7308	0.5472	0.9474	0.338
Mof_H 	H 	0.6564	0.5224	0.9951	0.317
Mof_H 	H 	0.5997	0.4736	0.9495	0.329
Mof_H 	H 	0.2577	0.9913	0.9798	0.079
Mof_H 	H 	0.1768	0.1967	0.0331	0.12
Mof_H 	H 	0.9662	0.0798	0.9244	0.13
Mof_H 	H 	0.1045	0.3026	0.0042	-0.039
Mof_H 	H 	0.9907	0.251	0.0373	-0.022
Mof_H 	H 	0.6593	0.5023	0.1459	0.109
Mof_H 	H 	0.3764	0.3239	0.0826	0.112
Mof_H 	H 	0.3037	0.405	0.2086	0.094
Mof_H 	H 	0.5257	0.3871	0.0148	-0.053
Mof_H 	H 	0.5518	0.3105	0.0422	-0.038
Mof_H 	H 	0.601	0.844	0.86	0.267
Mof_H 	H 	0.657	0.858	0.814	0.242
Mof_H 	H 	0.333	0.961	0.892	0.269
Mof_H 	H 	0.458	0.946	0.9071	0.281
Mof_H 	H 	0.2647	0.1117	0.7532	0.093
Mof_H 	H 	0.9753	0.9246	0.6997	0.129
Mof_H 	H 	0.0771	0.1444	0.6334	0.098
Mof_H 	H 	0.8995	0.0654	0.5763	-0.04
Mof_H 	H 	0.04	0.0438	0.5753	-0.036
Mof_H 	H 	0.1207	0.8485	0.5632	0.36
Mof_H 	H 	0.1604	0.9455	0.5562	0.353
Mof_H 	H 	0.0749	0.9059	0.5996	0.369
Mof_H 	H 	0.7925	0.7039	0.4565	0.367
Mof_H 	H 	0.6481	0.7189	0.4591	0.358
Mof_H 	H 	0.7502	0.764	0.4208	0.358
Mof_H 	H 	0.7308	0.0472	0.5526	0.337
Mof_H 	H 	0.6564	0.0224	0.5049	0.317
Mof_H 	H 	0.5997	0.9736	0.5505	0.329
Mof_H 	H 	0.2577	0.4913	0.5202	0.08
Mof_H 	H 	0.1768	0.6967	0.4669	0.12
Mof_H 	H 	0.9662	0.5798	0.5756	0.13
Mof_H 	H 	0.1045	0.8026	0.4958	-0.038
Mof_H 	H 	0.9907	0.751	0.4627	-0.02
Mof_H 	H 	0.6593	0.0023	0.3541	0.109
Mof_H 	H 	0.3764	0.8239	0.4174	0.112
Mof_H 	H 	0.3037	0.905	0.2914	0.094
Mof_H 	H 	0.5257	0.8871	0.4852	-0.053
Mof_H 	H 	0.5518	0.8105	0.4578	-0.038
Mof_H 	H 	0.601	0.344	0.64	0.267
Mof_H 	H 	0.657	0.358	0.686	0.242
Mof_H 	H 	0.333	0.461	0.608	0.269
Mof_H 	H 	0.458	0.446	0.5929	0.281
Mof_H 	H 	0.7353	0.3883	0.2532	0.092
Mof_H 	H 	0.0247	0.5754	0.1997	0.126
Mof_H 	H 	0.9229	0.3556	0.1334	0.097
Mof_H 	H 	0.1005	0.4346	0.0763	-0.041
Mof_H 	H 	0.96	0.4562	0.0753	-0.037
Mof_H 	H 	0.8793	0.6515	0.0632	0.361
Mof_H 	H 	0.8396	0.5545	0.0562	0.354
Mof_H 	H 	0.9251	0.5941	0.0996	0.37
Mof_H 	H 	0.2075	0.7961	0.9565	0.367
Mof_H 	H 	0.3519	0.7811	0.9591	0.358
Mof_H 	H 	0.2498	0.736	0.9208	0.358
Mof_H 	H 	0.2692	0.4528	0.0526	0.338
Mof_H 	H 	0.3436	0.4776	0.0049	0.317
Mof_H 	H 	0.4003	0.5264	0.0505	0.329
Mof_H 	H 	0.7423	0.0087	0.0202	0.079
Mof_H 	H 	0.8232	0.8033	0.9669	0.12
Mof_H 	H 	0.0338	0.9202	0.0756	0.13
Mof_H 	H 	0.8955	0.6974	0.9958	-0.039
Mof_H 	H 	0.0093	0.749	0.9627	-0.022
Mof_H 	H 	0.3407	0.4977	0.8541	0.109
Mof_H 	H 	0.6236	0.6761	0.9174	0.112
Mof_H 	H 	0.6963	0.595	0.7914	0.094
Mof_H 	H 	0.4743	0.6129	0.9852	-0.053
Mof_H 	H 	0.4482	0.6895	0.9578	-0.038
Mof_H 	H 	0.399	0.156	0.14	0.267
Mof_H 	H 	0.343	0.142	0.186	0.242
Mof_H 	H 	0.667	0.039	0.108	0.269
Mof_H 	H 	0.542	0.054	0.0929	0.281
Mof_C 	C 	0.7405	0.7674	0.3066	0.28
Mof_C 	C 	0.8172	0.8572	0.3061	0.012
Mof_C 	C 	0.7997	0.9087	0.2696	-0.073
Mof_C 	C 	0.8777	0.99	0.2671	0.033
Mof_C 	C 	0.9712	0.021	0.3021	-0.181
Mof_C 	C 	0.9852	0.9713	0.3397	0.222
Mof_C 	C 	0.9113	0.8894	0.3419	-0.165
Mof_C 	C 	0.8645	0.046	0.226	0.284
Mof_C 	C 	0.0556	0.9788	0.419	0.229
Mof_C 	C 	0.1122	0.05	0.4521	-0.373
Mof_C 	C 	0.0355	0.1081	0.46	0.485
Mof_C 	C 	0.0805	0.1718	0.4923	-0.368
Mof_C 	C 	0.2059	0.1825	0.5144	0.462
Mof_C 	C 	0.2811	0.1242	0.5062	-0.378
Mof_C 	C 	0.2356	0.0589	0.4749	0.458
Mof_C 	C 	0.9084	0.1014	0.4328	-1.067
Mof_C 	C 	0.2587	0.2557	0.5476	-1.032
Mof_C 	C 	0.3198	0.9984	0.4659	-0.991
Mof_C 	C 	0.9202	0.5438	0.411	0.261
Mof_C 	C 	0.8916	0.4753	0.4464	0.025
Mof_C 	C 	0.7929	0.4696	0.4794	-0.081
Mof_C 	C 	0.7678	0.4063	0.5122	0.032
Mof_C 	C 	0.8405	0.3464	0.5114	-0.188
Mof_C 	C 	0.9384	0.3517	0.478	0.23
Mof_C 	C 	0.9654	0.4163	0.4462	-0.176
Mof_C 	C 	0.6604	0.3998	0.5498	0.277
Mof_C 	C 	0.9896	0.2282	0.5058	0.205
Mof_C 	C 	0.4665	0.9813	0.725	0.259
Mof_C 	C 	0.5101	0.0363	0.6838	0.029
Mof_C 	C 	0.426	0.0346	0.646	-0.177
Mof_C 	C 	0.4672	0.0872	0.6082	0.229
Mof_C 	C 	0.595	0.1414	0.6081	-0.195
Mof_C 	C 	0.68	0.1443	0.6457	0.022
Mof_C 	C 	0.6388	0.0927	0.6833	-0.077
Mof_C 	C 	0.8155	0.2048	0.6465	0.274
Mof_C 	C 	0.4091	0.1319	0.5334	0.241
Mof_C 	C 	0.2595	0.7326	0.8066	0.281
Mof_C 	C 	0.1828	0.6428	0.8061	0.01
Mof_C 	C 	0.2003	0.5913	0.7696	-0.071
Mof_C 	C 	0.1223	0.51	0.7671	0.029
Mof_C 	C 	0.0288	0.479	0.8021	-0.175
Mof_C 	C 	0.0148	0.5287	0.8397	0.218
Mof_C 	C 	0.0887	0.6106	0.8419	-0.162
Mof_C 	C 	0.1355	0.454	0.726	0.286
Mof_C 	C 	0.9444	0.5212	0.919	0.232
Mof_C 	C 	0.8878	0.45	0.9521	-0.374
Mof_C 	C 	0.9645	0.3919	0.96	0.486
Mof_C 	C 	0.9195	0.3282	0.9923	-0.369
Mof_C 	C 	0.7941	0.3175	0.0144	0.462
Mof_C 	C 	0.7189	0.3758	0.0062	-0.379
Mof_C 	C 	0.7644	0.4411	0.9749	0.459
Mof_C 	C 	0.0916	0.3986	0.9328	-1.069
Mof_C 	C 	0.7413	0.2443	0.0476	-1.033
Mof_C 	C 	0.6802	0.5016	0.9659	-0.991
Mof_C 	C 	0.0798	0.9562	0.911	0.259
Mof_C 	C 	0.1084	0.0247	0.9464	0.026
Mof_C 	C 	0.2071	0.0304	0.9794	-0.079
Mof_C 	C 	0.2322	0.0937	0.0122	0.031
Mof_C 	C 	0.1595	0.1536	0.0114	-0.187
Mof_C 	C 	0.0616	0.1483	0.978	0.23
Mof_C 	C 	0.0346	0.0837	0.9462	-0.175
Mof_C 	C 	0.3396	0.1002	0.0498	0.277
Mof_C 	C 	0.0104	0.2718	0.0058	0.209
Mof_C 	C 	0.5335	0.5187	0.225	0.259
Mof_C 	C 	0.4899	0.4637	0.1838	0.029
Mof_C 	C 	0.574	0.4654	0.146	-0.178
Mof_C 	C 	0.5328	0.4128	0.1082	0.229
Mof_C 	C 	0.405	0.3586	0.1081	-0.195
Mof_C 	C 	0.32	0.3557	0.1457	0.023
Mof_C 	C 	0.3612	0.4073	0.1833	-0.077
Mof_C 	C 	0.1845	0.2952	0.1465	0.274
Mof_C 	C 	0.5909	0.3681	0.0334	0.241
Mof_C 	C 	0.2595	0.2326	0.6934	0.28
Mof_C 	C 	0.1828	0.1428	0.6939	0.012
Mof_C 	C 	0.2003	0.0913	0.7304	-0.073
Mof_C 	C 	0.1223	0.01	0.7329	0.033
Mof_C 	C 	0.0288	0.979	0.6979	-0.181
Mof_C 	C 	0.0148	0.0287	0.6603	0.222
Mof_C 	C 	0.0887	0.1106	0.6581	-0.165
Mof_C 	C 	0.1355	0.954	0.774	0.284
Mof_C 	C 	0.9444	0.0212	0.581	0.229
Mof_C 	C 	0.8878	0.95	0.5479	-0.373
Mof_C 	C 	0.9645	0.8919	0.54	0.485
Mof_C 	C 	0.9195	0.8282	0.5077	-0.368
Mof_C 	C 	0.7941	0.8175	0.4856	0.462
Mof_C 	C 	0.7189	0.8758	0.4938	-0.378
Mof_C 	C 	0.7644	0.9411	0.5251	0.458
Mof_C 	C 	0.0916	0.8986	0.5672	-1.067
Mof_C 	C 	0.7413	0.7443	0.4524	-1.032
Mof_C 	C 	0.6802	0.0016	0.5341	-0.991
Mof_C 	C 	0.0798	0.4562	0.589	0.261
Mof_C 	C 	0.1084	0.5247	0.5536	0.025
Mof_C 	C 	0.2071	0.5304	0.5206	-0.081
Mof_C 	C 	0.2322	0.5937	0.4878	0.032
Mof_C 	C 	0.1595	0.6536	0.4886	-0.188
Mof_C 	C 	0.0616	0.6483	0.522	0.23
Mof_C 	C 	0.0346	0.5837	0.5538	-0.176
Mof_C 	C 	0.3396	0.6002	0.4502	0.277
Mof_C 	C 	0.0104	0.7718	0.4942	0.205
Mof_C 	C 	0.5335	0.0187	0.275	0.259
Mof_C 	C 	0.4899	0.9637	0.3162	0.029
Mof_C 	C 	0.574	0.9654	0.354	-0.177
Mof_C 	C 	0.5328	0.9128	0.3918	0.229
Mof_C 	C 	0.405	0.8586	0.3919	-0.195
Mof_C 	C 	0.32	0.8557	0.3543	0.022
Mof_C 	C 	0.3612	0.9073	0.3167	-0.077
Mof_C 	C 	0.1845	0.7952	0.3535	0.274
Mof_C 	C 	0.5909	0.8681	0.4666	0.241
Mof_C 	C 	0.7405	0.2674	0.1934	0.281
Mof_C 	C 	0.8172	0.3572	0.1939	0.01
Mof_C 	C 	0.7997	0.4087	0.2304	-0.071
Mof_C 	C 	0.8777	0.49	0.2329	0.029
Mof_C 	C 	0.9712	0.521	0.1979	-0.175
Mof_C 	C 	0.9852	0.4713	0.1603	0.218
Mof_C 	C 	0.9113	0.3894	0.1581	-0.162
Mof_C 	C 	0.8645	0.546	0.274	0.286
Mof_C 	C 	0.0556	0.4788	0.081	0.232
Mof_C 	C 	0.1122	0.55	0.0479	-0.374
Mof_C 	C 	0.0355	0.6081	0.04	0.486
Mof_C 	C 	0.0805	0.6718	0.0077	-0.369
Mof_C 	C 	0.2059	0.6825	0.9856	0.462
Mof_C 	C 	0.2811	0.6242	0.9938	-0.379
Mof_C 	C 	0.2356	0.5589	0.0251	0.459
Mof_C 	C 	0.9084	0.6014	0.0672	-1.069
Mof_C 	C 	0.2587	0.7557	0.9524	-1.033
Mof_C 	C 	0.3198	0.4984	0.0341	-0.991
Mof_C 	C 	0.9202	0.0438	0.089	0.259
Mof_C 	C 	0.8916	0.9753	0.0536	0.026
Mof_C 	C 	0.7929	0.9696	0.0206	-0.079
Mof_C 	C 	0.7678	0.9063	0.9878	0.031
Mof_C 	C 	0.8405	0.8464	0.9886	-0.187
Mof_C 	C 	0.9384	0.8517	0.022	0.23
Mof_C 	C 	0.9654	0.9163	0.0538	-0.175
Mof_C 	C 	0.6604	0.8998	0.9502	0.277
Mof_C 	C 	0.9896	0.7282	0.9942	0.209
Mof_C 	C 	0.4665	0.4813	0.775	0.259
Mof_C 	C 	0.5101	0.5363	0.8162	0.029
Mof_C 	C 	0.426	0.5346	0.854	-0.178
Mof_C 	C 	0.4672	0.5872	0.8918	0.229
Mof_C 	C 	0.595	0.6414	0.8919	-0.195
Mof_C 	C 	0.68	0.6443	0.8543	0.023
Mof_C 	C 	0.6388	0.5927	0.8167	-0.077
Mof_C 	C 	0.8155	0.7048	0.8535	0.274
Mof_C 	C 	0.4091	0.6319	0.9666	0.241
Mof_O 	O 	0.7738	0.7162	0.33379	-0.304
Mof_O 	O 	0.6419	0.7445	0.28037	-0.244
Mof_O 	O 	0.7694	0.0239	0.1982	-0.259
Mof_O 	O 	0.9544	0.113	0.22343	-0.261
Mof_O 	O 	0.0771	0.0099	0.37283	-0.271
Mof_O 	O 	0.8499	0.5951	0.40989	-0.3
Mof_O 	O 	0.0172	0.5493	0.38226	-0.237
Mof_O 	O 	0.5892	0.4521	0.549	-0.25
Mof_O 	O 	0.6348	0.3394	0.5763	-0.268
Mof_O 	O 	0.0162	0.2955	0.4735	-0.268
Mof_O 	O 	0.3752	0.9158	0.7216	-0.24
Mof_O 	O 	0.5241	0.0035	0.7636	-0.235
Mof_O 	O 	0.8684	0.2275	0.68544	-0.25
Mof_O 	O 	0.8739	0.232	0.61062	-0.281
Mof_O 	O 	0.3744	0.0815	0.57373	-0.301
Mof_O 	O 	0.406	0.6293	0.3333	-0.491
Mof_O 	O 	0.5863	0.5424	0.3821	-0.524
Mof_O 	O 	0.2262	0.7838	0.83379	-0.304
Mof_O 	O 	0.3581	0.7555	0.78037	-0.244
Mof_O 	O 	0.2306	0.4761	0.6982	-0.26
Mof_O 	O 	0.0456	0.387	0.72343	-0.261
Mof_O 	O 	0.9229	0.4901	0.87283	-0.271
Mof_O 	O 	0.1501	0.9049	0.90989	-0.3
Mof_O 	O 	0.9828	0.9507	0.88226	-0.236
Mof_O 	O 	0.4108	0.0479	0.049	-0.25
Mof_O 	O 	0.3652	0.1606	0.0763	-0.268
Mof_O 	O 	0.9838	0.2045	0.9735	-0.269
Mof_O 	O 	0.6248	0.5842	0.2216	-0.24
Mof_O 	O 	0.4759	0.4965	0.2636	-0.235
Mof_O 	O 	0.1316	0.2725	0.18544	-0.25
Mof_O 	O 	0.1261	0.268	0.11062	-0.281
Mof_O 	O 	0.6256	0.4185	0.07373	-0.301
Mof_O 	O 	0.594	0.8707	0.8333	-0.491
Mof_O 	O 	0.4137	0.9576	0.8821	-0.524
Mof_O 	O 	0.2262	0.2838	0.66621	-0.304
Mof_O 	O 	0.3581	0.2555	0.71963	-0.244
Mof_O 	O 	0.2306	0.9761	0.8018	-0.259
Mof_O 	O 	0.0456	0.887	0.77657	-0.261
Mof_O 	O 	0.9229	0.9901	0.62717	-0.271
Mof_O 	O 	0.1501	0.4049	0.59011	-0.3
Mof_O 	O 	0.9828	0.4507	0.61774	-0.237
Mof_O 	O 	0.4108	0.5479	0.451	-0.25
Mof_O 	O 	0.3652	0.6606	0.4237	-0.268
Mof_O 	O 	0.9838	0.7045	0.5265	-0.268
Mof_O 	O 	0.6248	0.0842	0.2784	-0.24
Mof_O 	O 	0.4759	0.9965	0.2364	-0.235
Mof_O 	O 	0.1316	0.7725	0.31456	-0.25
Mof_O 	O 	0.1261	0.768	0.38938	-0.281
Mof_O 	O 	0.6256	0.9185	0.42627	-0.301
Mof_O 	O 	0.594	0.3707	0.6667	-0.491
Mof_O 	O 	0.4137	0.4576	0.6179	-0.524
Mof_O 	O 	0.7738	0.2162	0.16621	-0.304
Mof_O 	O 	0.6419	0.2445	0.21963	-0.244
Mof_O 	O 	0.7694	0.5239	0.3018	-0.26
Mof_O 	O 	0.9544	0.613	0.27657	-0.261
Mof_O 	O 	0.0771	0.5099	0.12717	-0.271
Mof_O 	O 	0.8499	0.0951	0.09011	-0.3
Mof_O 	O 	0.0172	0.0493	0.11774	-0.236
Mof_O 	O 	0.5892	0.9521	0.951	-0.25
Mof_O 	O 	0.6348	0.8394	0.9237	-0.268
Mof_O 	O 	0.0162	0.7955	0.0265	-0.269
Mof_O 	O 	0.3752	0.4158	0.7784	-0.24
Mof_O 	O 	0.5241	0.5035	0.7364	-0.235
Mof_O 	O 	0.8684	0.7275	0.81456	-0.25
Mof_O 	O 	0.8739	0.732	0.88938	-0.281
Mof_O 	O 	0.3744	0.5815	0.92627	-0.301
Mof_O 	O 	0.406	0.1293	0.1667	-0.491
Mof_O 	O 	0.5863	0.0424	0.1179	-0.524
_end
