data_functionalizedCrystal
_audit_creation_method	'EQeq! by Chris Wilmer'
_symmetry_space_group_name_H-M	'P1'
_symmetry_Int_Tables_number	1
_symmetry_cell_setting	triclinic
loop_
_symmetry_equiv_pos_as_xyz
  x,y,z
_cell_length_a	28.52
_cell_length_b	28.52
_cell_length_c	28.52
_cell_angle_alpha	90
_cell_angle_beta	90
_cell_angle_gamma	90
loop_
_atom_site_label
_atom_site_type_symbol
_atom_site_fract_x
_atom_site_fract_y
_atom_site_fract_z
_atom_site_charge
Mof_Cr	Cr	0.24493	0	0.24493	2.642
Mof_Cr	Cr	0.75507	0	0.24493	2.649
Mof_Cr	Cr	0.75507	0	0.75507	2.656
Mof_Cr	Cr	0.24493	0	0.75507	2.649
Mof_Cr	Cr	0.24493	0.24493	-0	2.642
Mof_Cr	Cr	0.24493	0.75507	-0	2.649
Mof_Cr	Cr	0.75507	0.75507	-0	2.656
Mof_Cr	Cr	0.75507	0.24493	-0	2.649
Mof_Cr	Cr	5.27107e-33	0.24493	0.24493	2.642
Mof_Cr	Cr	1.15365e-32	0.24493	0.75507	2.649
Mof_Cr	Cr	2.83106e-33	0.75507	0.75507	2.656
Mof_Cr	Cr	1.18002e-32	0.75507	0.24493	2.649
Mof_Cr	Cr	0.31525	0.93962	0.31525	2.957
Mof_Cr	Cr	0.68475	0.06038	0.31525	2.896
Mof_Cr	Cr	0.68475	0.93962	0.68475	2.959
Mof_Cr	Cr	0.31525	0.06038	0.68475	2.896
Mof_Cr	Cr	0.31525	0.31525	0.93962	2.957
Mof_Cr	Cr	0.31525	0.68475	0.06038	2.896
Mof_Cr	Cr	0.68475	0.68475	0.93962	2.959
Mof_Cr	Cr	0.68475	0.31525	0.06038	2.896
Mof_Cr	Cr	0.93962	0.31525	0.31525	2.957
Mof_Cr	Cr	0.06038	0.31525	0.68475	2.895
Mof_Cr	Cr	0.93962	0.68475	0.68475	2.958
Mof_Cr	Cr	0.06038	0.68475	0.31525	2.895
Mof_Cr	Cr	0.93962	0.31525	0.68475	2.957
Mof_Cr	Cr	0.06038	0.68475	0.68475	2.896
Mof_Cr	Cr	0.93962	0.68475	0.31525	2.957
Mof_Cr	Cr	0.06038	0.31525	0.31525	2.894
Mof_Cr	Cr	0.31525	0.31525	0.06038	2.894
Mof_Cr	Cr	0.68475	0.31525	0.93962	2.957
Mof_Cr	Cr	0.68475	0.68475	0.06038	2.896
Mof_Cr	Cr	0.31525	0.68475	0.93962	2.957
Mof_Cr	Cr	0.31525	0.93962	0.68475	2.957
Mof_Cr	Cr	0.31525	0.06038	0.31525	2.894
Mof_Cr	Cr	0.68475	0.93962	0.31525	2.957
Mof_Cr	Cr	0.68475	0.06038	0.68475	2.896
Mof_H 	H 	0.34905	0.83745	0.22501	0.012
Mof_H 	H 	0.28135	0.93458	0.12735	0.022
Mof_H 	H 	0.31013	0.07674	0.45598	0.015
Mof_H 	H 	0.65095	0.16255	0.22501	0.01
Mof_H 	H 	0.71865	0.06542	0.12735	0.004
Mof_H 	H 	0.68987	0.92326	0.45598	0.016
Mof_H 	H 	0.65095	0.83745	0.77499	0.013
Mof_H 	H 	0.71865	0.93458	0.87265	0.033
Mof_H 	H 	0.68987	0.07674	0.54402	0.016
Mof_H 	H 	0.34905	0.16255	0.77499	0.011
Mof_H 	H 	0.28135	0.06542	0.87265	0.011
Mof_H 	H 	0.31013	0.92326	0.54402	0.015
Mof_H 	H 	0.22501	0.34905	0.83745	0.012
Mof_H 	H 	0.12735	0.28135	0.93458	0.022
Mof_H 	H 	0.45598	0.31013	0.07674	0.015
Mof_H 	H 	0.22501	0.65095	0.16255	0.01
Mof_H 	H 	0.12735	0.71865	0.06542	0.004
Mof_H 	H 	0.45598	0.68987	0.92326	0.016
Mof_H 	H 	0.77499	0.65095	0.83745	0.013
Mof_H 	H 	0.87265	0.71865	0.93458	0.033
Mof_H 	H 	0.54402	0.68987	0.07674	0.016
Mof_H 	H 	0.77499	0.34905	0.16255	0.011
Mof_H 	H 	0.87265	0.28135	0.06542	0.011
Mof_H 	H 	0.54402	0.31013	0.92326	0.015
Mof_H 	H 	0.83745	0.22501	0.34905	0.012
Mof_H 	H 	0.93458	0.12735	0.28135	0.022
Mof_H 	H 	0.07674	0.45598	0.31013	0.015
Mof_H 	H 	0.16255	0.22501	0.65095	0.01
Mof_H 	H 	0.06542	0.12735	0.71865	0.004
Mof_H 	H 	0.92326	0.45598	0.68987	0.016
Mof_H 	H 	0.83745	0.77499	0.65095	0.013
Mof_H 	H 	0.93458	0.87265	0.71865	0.033
Mof_H 	H 	0.07674	0.54402	0.68987	0.016
Mof_H 	H 	0.16255	0.77499	0.34905	0.011
Mof_H 	H 	0.06542	0.87265	0.28135	0.011
Mof_H 	H 	0.92326	0.54402	0.31013	0.015
Mof_H 	H 	0.83745	0.34905	0.77499	0.013
Mof_H 	H 	0.93458	0.28135	0.87265	0.031
Mof_H 	H 	0.07674	0.31013	0.54402	0.015
Mof_H 	H 	0.16255	0.65095	0.77499	0.011
Mof_H 	H 	0.06542	0.71865	0.87265	0.013
Mof_H 	H 	0.92326	0.68987	0.54402	0.016
Mof_H 	H 	0.83745	0.65095	0.22501	0.012
Mof_H 	H 	0.93458	0.71865	0.12735	0.024
Mof_H 	H 	0.07674	0.68987	0.45598	0.016
Mof_H 	H 	0.16255	0.34905	0.22501	0.01
Mof_H 	H 	0.06542	0.28135	0.12735	0.002
Mof_H 	H 	0.92326	0.31013	0.45598	0.015
Mof_H 	H 	0.34905	0.22501	0.16255	0.01
Mof_H 	H 	0.28135	0.12735	0.06542	0.002
Mof_H 	H 	0.31013	0.45598	0.92326	0.015
Mof_H 	H 	0.65095	0.22501	0.83745	0.012
Mof_H 	H 	0.71865	0.12735	0.93458	0.024
Mof_H 	H 	0.68987	0.45598	0.07674	0.016
Mof_H 	H 	0.65095	0.77499	0.16255	0.011
Mof_H 	H 	0.71865	0.87265	0.06542	0.013
Mof_H 	H 	0.68987	0.54402	0.92326	0.016
Mof_H 	H 	0.34905	0.77499	0.83745	0.013
Mof_H 	H 	0.28135	0.87265	0.93458	0.031
Mof_H 	H 	0.31013	0.54402	0.07674	0.015
Mof_H 	H 	0.22501	0.83745	0.65095	0.012
Mof_H 	H 	0.12735	0.93458	0.71865	0.024
Mof_H 	H 	0.45598	0.07674	0.68987	0.016
Mof_H 	H 	0.22501	0.16255	0.34905	0.01
Mof_H 	H 	0.12735	0.06542	0.28135	0.002
Mof_H 	H 	0.45598	0.92326	0.31013	0.015
Mof_H 	H 	0.77499	0.83745	0.34905	0.013
Mof_H 	H 	0.87265	0.93458	0.28135	0.031
Mof_H 	H 	0.54402	0.07674	0.31013	0.015
Mof_H 	H 	0.77499	0.16255	0.65095	0.011
Mof_H 	H 	0.87265	0.06542	0.71865	0.013
Mof_H 	H 	0.54402	0.92326	0.68987	0.016
Mof_H 	H 	0.65095	0.16255	0.77499	0.011
Mof_H 	H 	0.71865	0.06542	0.87265	0.013
Mof_H 	H 	0.68987	0.92326	0.54402	0.016
Mof_H 	H 	0.34905	0.83745	0.77499	0.013
Mof_H 	H 	0.28135	0.93458	0.87265	0.031
Mof_H 	H 	0.31013	0.07674	0.54402	0.015
Mof_H 	H 	0.34905	0.16255	0.22501	0.01
Mof_H 	H 	0.28135	0.06542	0.12735	0.002
Mof_H 	H 	0.31013	0.92326	0.45598	0.015
Mof_H 	H 	0.65095	0.83745	0.22501	0.012
Mof_H 	H 	0.71865	0.93458	0.12735	0.024
Mof_H 	H 	0.68987	0.07674	0.45598	0.016
Mof_H 	H 	0.77499	0.65095	0.16255	0.011
Mof_H 	H 	0.87265	0.71865	0.06542	0.013
Mof_H 	H 	0.54402	0.68987	0.92326	0.016
Mof_H 	H 	0.77499	0.34905	0.83745	0.013
Mof_H 	H 	0.87265	0.28135	0.93458	0.031
Mof_H 	H 	0.54402	0.31013	0.07674	0.015
Mof_H 	H 	0.22501	0.34905	0.16255	0.01
Mof_H 	H 	0.12735	0.28135	0.06542	0.002
Mof_H 	H 	0.45598	0.31013	0.92326	0.015
Mof_H 	H 	0.22501	0.65095	0.83745	0.012
Mof_H 	H 	0.12735	0.71865	0.93458	0.024
Mof_H 	H 	0.45598	0.68987	0.07674	0.016
Mof_H 	H 	0.16255	0.77499	0.65095	0.011
Mof_H 	H 	0.06542	0.87265	0.71865	0.013
Mof_H 	H 	0.92326	0.54402	0.68987	0.016
Mof_H 	H 	0.83745	0.77499	0.34905	0.013
Mof_H 	H 	0.93458	0.87265	0.28135	0.031
Mof_H 	H 	0.07674	0.54402	0.31013	0.015
Mof_H 	H 	0.16255	0.22501	0.34905	0.01
Mof_H 	H 	0.06542	0.12735	0.28135	0.002
Mof_H 	H 	0.92326	0.45598	0.31013	0.015
Mof_H 	H 	0.83745	0.22501	0.65095	0.012
Mof_H 	H 	0.93458	0.12735	0.71865	0.024
Mof_H 	H 	0.07674	0.45598	0.68987	0.016
Mof_H 	H 	0.16255	0.65095	0.22501	0.01
Mof_H 	H 	0.06542	0.71865	0.12735	0.004
Mof_H 	H 	0.92326	0.68987	0.45598	0.016
Mof_H 	H 	0.83745	0.34905	0.22501	0.012
Mof_H 	H 	0.93458	0.28135	0.12735	0.022
Mof_H 	H 	0.07674	0.31013	0.45598	0.015
Mof_H 	H 	0.16255	0.34905	0.77499	0.011
Mof_H 	H 	0.06542	0.28135	0.87265	0.011
Mof_H 	H 	0.92326	0.31013	0.54402	0.015
Mof_H 	H 	0.83745	0.65095	0.77499	0.013
Mof_H 	H 	0.93458	0.71865	0.87265	0.033
Mof_H 	H 	0.07674	0.68987	0.54402	0.016
Mof_H 	H 	0.65095	0.77499	0.83745	0.013
Mof_H 	H 	0.71865	0.87265	0.93458	0.033
Mof_H 	H 	0.68987	0.54402	0.07674	0.016
Mof_H 	H 	0.34905	0.77499	0.16255	0.011
Mof_H 	H 	0.28135	0.87265	0.06542	0.011
Mof_H 	H 	0.31013	0.54402	0.92326	0.015
Mof_H 	H 	0.34905	0.22501	0.83745	0.012
Mof_H 	H 	0.28135	0.12735	0.93458	0.022
Mof_H 	H 	0.31013	0.45598	0.07674	0.015
Mof_H 	H 	0.65095	0.22501	0.16255	0.01
Mof_H 	H 	0.71865	0.12735	0.06542	0.004
Mof_H 	H 	0.68987	0.45598	0.92326	0.016
Mof_H 	H 	0.77499	0.16255	0.34905	0.011
Mof_H 	H 	0.87265	0.06542	0.28135	0.011
Mof_H 	H 	0.54402	0.92326	0.31013	0.015
Mof_H 	H 	0.77499	0.83745	0.65095	0.013
Mof_H 	H 	0.87265	0.93458	0.71865	0.033
Mof_H 	H 	0.54402	0.07674	0.68987	0.016
Mof_H 	H 	0.22501	0.16255	0.65095	0.01
Mof_H 	H 	0.12735	0.06542	0.71865	0.004
Mof_H 	H 	0.45598	0.92326	0.68987	0.016
Mof_H 	H 	0.22501	0.83745	0.34905	0.012
Mof_H 	H 	0.12735	0.93458	0.28135	0.022
Mof_H 	H 	0.45598	0.07674	0.31013	0.015
Mof_C 	C 	0.33306	0.84516	0.18943	0.03
Mof_C 	C 	0.30378	0.9223	0.21854	0.775
Mof_C 	C 	0.31348	0.88913	0.18039	-0.227
Mof_C 	C 	0.29586	0.89854	0.13579	0.029
Mof_C 	C 	0.31018	0.04217	0.47563	0.018
Mof_C 	C 	0.66694	0.15484	0.18943	0.03
Mof_C 	C 	0.69622	0.0777	0.21854	0.772
Mof_C 	C 	0.68652	0.11087	0.18039	-0.236
Mof_C 	C 	0.70414	0.10146	0.13579	0.026
Mof_C 	C 	0.68982	0.95783	0.47563	0.062
Mof_C 	C 	0.66694	0.84516	0.81057	0.033
Mof_C 	C 	0.69622	0.9223	0.78146	0.777
Mof_C 	C 	0.68652	0.88913	0.81961	-0.226
Mof_C 	C 	0.70414	0.89854	0.86421	0.036
Mof_C 	C 	0.68982	0.04217	0.52437	0.019
Mof_C 	C 	0.33306	0.15484	0.81057	0.033
Mof_C 	C 	0.30378	0.0777	0.78146	0.774
Mof_C 	C 	0.31348	0.11087	0.81961	-0.235
Mof_C 	C 	0.29586	0.10146	0.86421	0.032
Mof_C 	C 	0.31018	0.95783	0.52437	0.061
Mof_C 	C 	0.18943	0.33306	0.84516	0.03
Mof_C 	C 	0.21854	0.30378	0.9223	0.775
Mof_C 	C 	0.18039	0.31348	0.88913	-0.227
Mof_C 	C 	0.13579	0.29586	0.89854	0.029
Mof_C 	C 	0.47563	0.31018	0.04217	0.018
Mof_C 	C 	0.18943	0.66694	0.15484	0.03
Mof_C 	C 	0.21854	0.69622	0.0777	0.772
Mof_C 	C 	0.18039	0.68652	0.11087	-0.236
Mof_C 	C 	0.13579	0.70414	0.10146	0.026
Mof_C 	C 	0.47563	0.68982	0.95783	0.062
Mof_C 	C 	0.81057	0.66694	0.84516	0.033
Mof_C 	C 	0.78146	0.69622	0.9223	0.777
Mof_C 	C 	0.81961	0.68652	0.88913	-0.226
Mof_C 	C 	0.86421	0.70414	0.89854	0.036
Mof_C 	C 	0.52437	0.68982	0.04217	0.019
Mof_C 	C 	0.81057	0.33306	0.15484	0.033
Mof_C 	C 	0.78146	0.30378	0.0777	0.774
Mof_C 	C 	0.81961	0.31348	0.11087	-0.235
Mof_C 	C 	0.86421	0.29586	0.10146	0.032
Mof_C 	C 	0.52437	0.31018	0.95783	0.061
Mof_C 	C 	0.84516	0.18943	0.33306	0.03
Mof_C 	C 	0.9223	0.21854	0.30378	0.775
Mof_C 	C 	0.88913	0.18039	0.31348	-0.227
Mof_C 	C 	0.89854	0.13579	0.29586	0.029
Mof_C 	C 	0.04217	0.47563	0.31018	0.018
Mof_C 	C 	0.15484	0.18943	0.66694	0.03
Mof_C 	C 	0.0777	0.21854	0.69622	0.772
Mof_C 	C 	0.11087	0.18039	0.68652	-0.236
Mof_C 	C 	0.10146	0.13579	0.70414	0.026
Mof_C 	C 	0.95783	0.47563	0.68982	0.062
Mof_C 	C 	0.84516	0.81057	0.66694	0.033
Mof_C 	C 	0.9223	0.78146	0.69622	0.777
Mof_C 	C 	0.88913	0.81961	0.68652	-0.226
Mof_C 	C 	0.89854	0.86421	0.70414	0.036
Mof_C 	C 	0.04217	0.52437	0.68982	0.019
Mof_C 	C 	0.15484	0.81057	0.33306	0.033
Mof_C 	C 	0.0777	0.78146	0.30378	0.774
Mof_C 	C 	0.11087	0.81961	0.31348	-0.235
Mof_C 	C 	0.10146	0.86421	0.29586	0.032
Mof_C 	C 	0.95783	0.52437	0.31018	0.061
Mof_C 	C 	0.84516	0.33306	0.81057	0.033
Mof_C 	C 	0.9223	0.30378	0.78146	0.776
Mof_C 	C 	0.88913	0.31348	0.81961	-0.226
Mof_C 	C 	0.89854	0.29586	0.86421	0.035
Mof_C 	C 	0.04217	0.31018	0.52437	0.018
Mof_C 	C 	0.15484	0.66694	0.81057	0.033
Mof_C 	C 	0.0777	0.69622	0.78146	0.774
Mof_C 	C 	0.11087	0.68652	0.81961	-0.234
Mof_C 	C 	0.10146	0.70414	0.86421	0.033
Mof_C 	C 	0.95783	0.68982	0.52437	0.062
Mof_C 	C 	0.84516	0.66694	0.18943	0.031
Mof_C 	C 	0.9223	0.69622	0.21854	0.775
Mof_C 	C 	0.88913	0.68652	0.18039	-0.227
Mof_C 	C 	0.89854	0.70414	0.13579	0.03
Mof_C 	C 	0.04217	0.68982	0.47563	0.019
Mof_C 	C 	0.15484	0.33306	0.18943	0.03
Mof_C 	C 	0.0777	0.30378	0.21854	0.772
Mof_C 	C 	0.11087	0.31348	0.18039	-0.236
Mof_C 	C 	0.10146	0.29586	0.13579	0.026
Mof_C 	C 	0.95783	0.31018	0.47563	0.061
Mof_C 	C 	0.33306	0.18943	0.15484	0.03
Mof_C 	C 	0.30378	0.21854	0.0777	0.772
Mof_C 	C 	0.31348	0.18039	0.11087	-0.236
Mof_C 	C 	0.29586	0.13579	0.10146	0.026
Mof_C 	C 	0.31018	0.47563	0.95783	0.061
Mof_C 	C 	0.66694	0.18943	0.84516	0.031
Mof_C 	C 	0.69622	0.21854	0.9223	0.775
Mof_C 	C 	0.68652	0.18039	0.88913	-0.227
Mof_C 	C 	0.70414	0.13579	0.89854	0.03
Mof_C 	C 	0.68982	0.47563	0.04217	0.019
Mof_C 	C 	0.66694	0.81057	0.15484	0.033
Mof_C 	C 	0.69622	0.78146	0.0777	0.774
Mof_C 	C 	0.68652	0.81961	0.11087	-0.234
Mof_C 	C 	0.70414	0.86421	0.10146	0.033
Mof_C 	C 	0.68982	0.52437	0.95783	0.062
Mof_C 	C 	0.33306	0.81057	0.84516	0.033
Mof_C 	C 	0.30378	0.78146	0.9223	0.776
Mof_C 	C 	0.31348	0.81961	0.88913	-0.226
Mof_C 	C 	0.29586	0.86421	0.89854	0.035
Mof_C 	C 	0.31018	0.52437	0.04217	0.018
Mof_C 	C 	0.18943	0.84516	0.66694	0.031
Mof_C 	C 	0.21854	0.9223	0.69622	0.775
Mof_C 	C 	0.18039	0.88913	0.68652	-0.227
Mof_C 	C 	0.13579	0.89854	0.70414	0.03
Mof_C 	C 	0.47563	0.04217	0.68982	0.019
Mof_C 	C 	0.18943	0.15484	0.33306	0.03
Mof_C 	C 	0.21854	0.0777	0.30378	0.772
Mof_C 	C 	0.18039	0.11087	0.31348	-0.236
Mof_C 	C 	0.13579	0.10146	0.29586	0.026
Mof_C 	C 	0.47563	0.95783	0.31018	0.061
Mof_C 	C 	0.81057	0.84516	0.33306	0.033
Mof_C 	C 	0.78146	0.9223	0.30378	0.776
Mof_C 	C 	0.81961	0.88913	0.31348	-0.226
Mof_C 	C 	0.86421	0.89854	0.29586	0.035
Mof_C 	C 	0.52437	0.04217	0.31018	0.018
Mof_C 	C 	0.81057	0.15484	0.66694	0.033
Mof_C 	C 	0.78146	0.0777	0.69622	0.774
Mof_C 	C 	0.81961	0.11087	0.68652	-0.234
Mof_C 	C 	0.86421	0.10146	0.70414	0.033
Mof_C 	C 	0.52437	0.95783	0.68982	0.062
Mof_C 	C 	0.66694	0.15484	0.81057	0.033
Mof_C 	C 	0.69622	0.0777	0.78146	0.774
Mof_C 	C 	0.68652	0.11087	0.81961	-0.234
Mof_C 	C 	0.70414	0.10146	0.86421	0.033
Mof_C 	C 	0.68982	0.95783	0.52437	0.062
Mof_C 	C 	0.33306	0.84516	0.81057	0.033
Mof_C 	C 	0.30378	0.9223	0.78146	0.776
Mof_C 	C 	0.31348	0.88913	0.81961	-0.226
Mof_C 	C 	0.29586	0.89854	0.86421	0.035
Mof_C 	C 	0.31018	0.04217	0.52437	0.018
Mof_C 	C 	0.33306	0.15484	0.18943	0.03
Mof_C 	C 	0.30378	0.0777	0.21854	0.772
Mof_C 	C 	0.31348	0.11087	0.18039	-0.236
Mof_C 	C 	0.29586	0.10146	0.13579	0.026
Mof_C 	C 	0.31018	0.95783	0.47563	0.061
Mof_C 	C 	0.66694	0.84516	0.18943	0.031
Mof_C 	C 	0.69622	0.9223	0.21854	0.775
Mof_C 	C 	0.68652	0.88913	0.18039	-0.227
Mof_C 	C 	0.70414	0.89854	0.13579	0.03
Mof_C 	C 	0.68982	0.04217	0.47563	0.019
Mof_C 	C 	0.81057	0.66694	0.15484	0.033
Mof_C 	C 	0.78146	0.69622	0.0777	0.774
Mof_C 	C 	0.81961	0.68652	0.11087	-0.234
Mof_C 	C 	0.86421	0.70414	0.10146	0.033
Mof_C 	C 	0.52437	0.68982	0.95783	0.062
Mof_C 	C 	0.81057	0.33306	0.84516	0.033
Mof_C 	C 	0.78146	0.30378	0.9223	0.776
Mof_C 	C 	0.81961	0.31348	0.88913	-0.226
Mof_C 	C 	0.86421	0.29586	0.89854	0.035
Mof_C 	C 	0.52437	0.31018	0.04217	0.018
Mof_C 	C 	0.18943	0.33306	0.15484	0.03
Mof_C 	C 	0.21854	0.30378	0.0777	0.772
Mof_C 	C 	0.18039	0.31348	0.11087	-0.236
Mof_C 	C 	0.13579	0.29586	0.10146	0.026
Mof_C 	C 	0.47563	0.31018	0.95783	0.061
Mof_C 	C 	0.18943	0.66694	0.84516	0.031
Mof_C 	C 	0.21854	0.69622	0.9223	0.775
Mof_C 	C 	0.18039	0.68652	0.88913	-0.227
Mof_C 	C 	0.13579	0.70414	0.89854	0.03
Mof_C 	C 	0.47563	0.68982	0.04217	0.019
Mof_C 	C 	0.15484	0.81057	0.66694	0.033
Mof_C 	C 	0.0777	0.78146	0.69622	0.774
Mof_C 	C 	0.11087	0.81961	0.68652	-0.234
Mof_C 	C 	0.10146	0.86421	0.70414	0.033
Mof_C 	C 	0.95783	0.52437	0.68982	0.062
Mof_C 	C 	0.84516	0.81057	0.33306	0.033
Mof_C 	C 	0.9223	0.78146	0.30378	0.776
Mof_C 	C 	0.88913	0.81961	0.31348	-0.226
Mof_C 	C 	0.89854	0.86421	0.29586	0.035
Mof_C 	C 	0.04217	0.52437	0.31018	0.018
Mof_C 	C 	0.15484	0.18943	0.33306	0.03
Mof_C 	C 	0.0777	0.21854	0.30378	0.772
Mof_C 	C 	0.11087	0.18039	0.31348	-0.236
Mof_C 	C 	0.10146	0.13579	0.29586	0.026
Mof_C 	C 	0.95783	0.47563	0.31018	0.061
Mof_C 	C 	0.84516	0.18943	0.66694	0.031
Mof_C 	C 	0.9223	0.21854	0.69622	0.775
Mof_C 	C 	0.88913	0.18039	0.68652	-0.227
Mof_C 	C 	0.89854	0.13579	0.70414	0.03
Mof_C 	C 	0.04217	0.47563	0.68982	0.019
Mof_C 	C 	0.15484	0.66694	0.18943	0.03
Mof_C 	C 	0.0777	0.69622	0.21854	0.772
Mof_C 	C 	0.11087	0.68652	0.18039	-0.236
Mof_C 	C 	0.10146	0.70414	0.13579	0.026
Mof_C 	C 	0.95783	0.68982	0.47563	0.062
Mof_C 	C 	0.84516	0.33306	0.18943	0.03
Mof_C 	C 	0.9223	0.30378	0.21854	0.775
Mof_C 	C 	0.88913	0.31348	0.18039	-0.227
Mof_C 	C 	0.89854	0.29586	0.13579	0.029
Mof_C 	C 	0.04217	0.31018	0.47563	0.018
Mof_C 	C 	0.15484	0.33306	0.81057	0.033
Mof_C 	C 	0.0777	0.30378	0.78146	0.774
Mof_C 	C 	0.11087	0.31348	0.81961	-0.235
Mof_C 	C 	0.10146	0.29586	0.86421	0.032
Mof_C 	C 	0.95783	0.31018	0.52437	0.061
Mof_C 	C 	0.84516	0.66694	0.81057	0.033
Mof_C 	C 	0.9223	0.69622	0.78146	0.777
Mof_C 	C 	0.88913	0.68652	0.81961	-0.226
Mof_C 	C 	0.89854	0.70414	0.86421	0.036
Mof_C 	C 	0.04217	0.68982	0.52437	0.019
Mof_C 	C 	0.66694	0.81057	0.84516	0.033
Mof_C 	C 	0.69622	0.78146	0.9223	0.777
Mof_C 	C 	0.68652	0.81961	0.88913	-0.226
Mof_C 	C 	0.70414	0.86421	0.89854	0.036
Mof_C 	C 	0.68982	0.52437	0.04217	0.019
Mof_C 	C 	0.33306	0.81057	0.15484	0.033
Mof_C 	C 	0.30378	0.78146	0.0777	0.774
Mof_C 	C 	0.31348	0.81961	0.11087	-0.235
Mof_C 	C 	0.29586	0.86421	0.10146	0.032
Mof_C 	C 	0.31018	0.52437	0.95783	0.061
Mof_C 	C 	0.33306	0.18943	0.84516	0.03
Mof_C 	C 	0.30378	0.21854	0.9223	0.775
Mof_C 	C 	0.31348	0.18039	0.88913	-0.227
Mof_C 	C 	0.29586	0.13579	0.89854	0.029
Mof_C 	C 	0.31018	0.47563	0.04217	0.018
Mof_C 	C 	0.66694	0.18943	0.15484	0.03
Mof_C 	C 	0.69622	0.21854	0.0777	0.772
Mof_C 	C 	0.68652	0.18039	0.11087	-0.236
Mof_C 	C 	0.70414	0.13579	0.10146	0.026
Mof_C 	C 	0.68982	0.47563	0.95783	0.062
Mof_C 	C 	0.81057	0.15484	0.33306	0.033
Mof_C 	C 	0.78146	0.0777	0.30378	0.774
Mof_C 	C 	0.81961	0.11087	0.31348	-0.235
Mof_C 	C 	0.86421	0.10146	0.29586	0.032
Mof_C 	C 	0.52437	0.95783	0.31018	0.061
Mof_C 	C 	0.81057	0.84516	0.66694	0.033
Mof_C 	C 	0.78146	0.9223	0.69622	0.777
Mof_C 	C 	0.81961	0.88913	0.68652	-0.226
Mof_C 	C 	0.86421	0.89854	0.70414	0.036
Mof_C 	C 	0.52437	0.04217	0.68982	0.019
Mof_C 	C 	0.18943	0.15484	0.66694	0.03
Mof_C 	C 	0.21854	0.0777	0.69622	0.772
Mof_C 	C 	0.18039	0.11087	0.68652	-0.236
Mof_C 	C 	0.13579	0.10146	0.70414	0.026
Mof_C 	C 	0.47563	0.95783	0.68982	0.062
Mof_C 	C 	0.18943	0.84516	0.33306	0.03
Mof_C 	C 	0.21854	0.9223	0.30378	0.775
Mof_C 	C 	0.18039	0.88913	0.31348	-0.227
Mof_C 	C 	0.13579	0.89854	0.29586	0.029
Mof_C 	C 	0.47563	0.04217	0.31018	0.018
Mof_C 	C 	0.31094	0	0.39955	0.559
Mof_C 	C 	0.31024	0	0.45091	-0.226
Mof_C 	C 	0.68906	0	0.39955	0.56
Mof_C 	C 	0.68976	0	0.45091	-0.225
Mof_C 	C 	0.68906	0	0.60045	0.56
Mof_C 	C 	0.68976	0	0.54909	-0.225
Mof_C 	C 	0.31094	0	0.60045	0.559
Mof_C 	C 	0.31024	0	0.54909	-0.226
Mof_C 	C 	0.39955	0.31094	-0	0.559
Mof_C 	C 	0.45091	0.31024	-0	-0.226
Mof_C 	C 	0.39955	0.68906	-0	0.56
Mof_C 	C 	0.45091	0.68976	-0	-0.225
Mof_C 	C 	0.60045	0.68906	-0	0.56
Mof_C 	C 	0.54909	0.68976	-0	-0.225
Mof_C 	C 	0.60045	0.31094	-0	0.559
Mof_C 	C 	0.54909	0.31024	-0	-0.226
Mof_C 	C 	-1.01053e-33	0.39955	0.31094	0.559
Mof_C 	C 	-5.36588e-33	0.45091	0.31024	-0.226
Mof_C 	C 	-6.1219e-33	0.39955	0.68906	0.56
Mof_C 	C 	-6.11928e-33	0.45091	0.68976	-0.225
Mof_C 	C 	1.1289e-32	0.60045	0.68906	0.56
Mof_C 	C 	-6.11928e-33	0.54909	0.68976	-0.225
Mof_C 	C 	7.69493e-33	0.60045	0.31094	0.559
Mof_C 	C 	-1.01315e-33	0.54909	0.31024	-0.226
Mof_C 	C 	6.60406e-33	0.31094	0.60045	0.559
Mof_C 	C 	-2.29397e-33	0.31024	0.54909	-0.226
Mof_C 	C 	6.60406e-33	0.68906	0.60045	0.56
Mof_C 	C 	-2.29397e-33	0.68976	0.54909	-0.225
Mof_C 	C 	-2.85466e-33	0.68906	0.39955	0.56
Mof_C 	C 	1.69064e-33	0.68976	0.45091	-0.225
Mof_C 	C 	-2.85466e-33	0.31094	0.39955	0.559
Mof_C 	C 	-7.01482e-33	0.31024	0.45091	-0.226
Mof_C 	C 	0.31094	0.39955	-0	0.559
Mof_C 	C 	0.31024	0.45091	-0	-0.226
Mof_C 	C 	0.68906	0.39955	-0	0.56
Mof_C 	C 	0.68976	0.45091	-0	-0.225
Mof_C 	C 	0.68906	0.60045	-0	0.56
Mof_C 	C 	0.68976	0.54909	-0	-0.225
Mof_C 	C 	0.31094	0.60045	-0	0.559
Mof_C 	C 	0.31024	0.54909	-0	-0.226
Mof_C 	C 	0.39955	-8.70546e-33	0.68906	0.56
Mof_C 	C 	0.45091	8.70546e-33	0.68976	-0.225
Mof_C 	C 	0.39955	0	0.31094	0.559
Mof_C 	C 	0.45091	0	0.31024	-0.226
Mof_C 	C 	0.60045	0	0.31094	0.559
Mof_C 	C 	0.54909	0	0.31024	-0.226
Mof_C 	C 	0.60045	-8.70546e-33	0.68906	0.56
Mof_C 	C 	0.54909	8.70546e-33	0.68976	-0.225
Mof_O 	O 	0.32137	0.91506	0.25854	-0.969
Mof_O 	O 	0.27561	0.95507	0.20985	-0.849
Mof_O 	O 	0.31105	0.95892	0.37743	-0.794
Mof_O 	O 	0.67863	0.08494	0.25854	-0.967
Mof_O 	O 	0.72439	0.04493	0.20985	-0.885
Mof_O 	O 	0.68895	0.04108	0.37743	-0.824
Mof_O 	O 	0.67863	0.91506	0.74146	-0.969
Mof_O 	O 	0.72439	0.95507	0.79015	-0.847
Mof_O 	O 	0.68895	0.95892	0.62257	-0.794
Mof_O 	O 	0.32137	0.08494	0.74146	-0.966
Mof_O 	O 	0.27561	0.04493	0.79015	-0.883
Mof_O 	O 	0.31105	0.04108	0.62257	-0.825
Mof_O 	O 	0.25854	0.32137	0.91506	-0.969
Mof_O 	O 	0.20985	0.27561	0.95507	-0.849
Mof_O 	O 	0.37743	0.31105	0.95892	-0.794
Mof_O 	O 	0.25854	0.67863	0.08494	-0.967
Mof_O 	O 	0.20985	0.72439	0.04493	-0.885
Mof_O 	O 	0.37743	0.68895	0.04108	-0.824
Mof_O 	O 	0.74146	0.67863	0.91506	-0.969
Mof_O 	O 	0.79015	0.72439	0.95507	-0.847
Mof_O 	O 	0.62257	0.68895	0.95892	-0.794
Mof_O 	O 	0.74146	0.32137	0.08494	-0.966
Mof_O 	O 	0.79015	0.27561	0.04493	-0.883
Mof_O 	O 	0.62257	0.31105	0.04108	-0.825
Mof_O 	O 	0.91506	0.25854	0.32137	-0.969
Mof_O 	O 	0.95507	0.20985	0.27561	-0.849
Mof_O 	O 	0.95892	0.37743	0.31105	-0.794
Mof_O 	O 	0.08494	0.25854	0.67863	-0.967
Mof_O 	O 	0.04493	0.20985	0.72439	-0.885
Mof_O 	O 	0.04108	0.37743	0.68895	-0.824
Mof_O 	O 	0.91506	0.74146	0.67863	-0.969
Mof_O 	O 	0.95507	0.79015	0.72439	-0.847
Mof_O 	O 	0.95892	0.62257	0.68895	-0.794
Mof_O 	O 	0.08494	0.74146	0.32137	-0.966
Mof_O 	O 	0.04493	0.79015	0.27561	-0.883
Mof_O 	O 	0.04108	0.62257	0.31105	-0.825
Mof_O 	O 	0.91506	0.32137	0.74146	-0.969
Mof_O 	O 	0.95507	0.27561	0.79015	-0.848
Mof_O 	O 	0.95892	0.31105	0.62257	-0.795
Mof_O 	O 	0.08494	0.67863	0.74146	-0.966
Mof_O 	O 	0.04493	0.72439	0.79015	-0.883
Mof_O 	O 	0.04108	0.68895	0.62257	-0.825
Mof_O 	O 	0.91506	0.67863	0.25854	-0.97
Mof_O 	O 	0.95507	0.72439	0.20985	-0.849
Mof_O 	O 	0.95892	0.68895	0.37743	-0.794
Mof_O 	O 	0.08494	0.32137	0.25854	-0.967
Mof_O 	O 	0.04493	0.27561	0.20985	-0.885
Mof_O 	O 	0.04108	0.31105	0.37743	-0.825
Mof_O 	O 	0.32137	0.25854	0.08494	-0.967
Mof_O 	O 	0.27561	0.20985	0.04493	-0.885
Mof_O 	O 	0.31105	0.37743	0.04108	-0.825
Mof_O 	O 	0.67863	0.25854	0.91506	-0.97
Mof_O 	O 	0.72439	0.20985	0.95507	-0.849
Mof_O 	O 	0.68895	0.37743	0.95892	-0.794
Mof_O 	O 	0.67863	0.74146	0.08494	-0.966
Mof_O 	O 	0.72439	0.79015	0.04493	-0.883
Mof_O 	O 	0.68895	0.62257	0.04108	-0.825
Mof_O 	O 	0.32137	0.74146	0.91506	-0.969
Mof_O 	O 	0.27561	0.79015	0.95507	-0.848
Mof_O 	O 	0.31105	0.62257	0.95892	-0.795
Mof_O 	O 	0.25854	0.91506	0.67863	-0.97
Mof_O 	O 	0.20985	0.95507	0.72439	-0.849
Mof_O 	O 	0.37743	0.95892	0.68895	-0.794
Mof_O 	O 	0.25854	0.08494	0.32137	-0.967
Mof_O 	O 	0.20985	0.04493	0.27561	-0.885
Mof_O 	O 	0.37743	0.04108	0.31105	-0.825
Mof_O 	O 	0.74146	0.91506	0.32137	-0.969
Mof_O 	O 	0.79015	0.95507	0.27561	-0.848
Mof_O 	O 	0.62257	0.95892	0.31105	-0.795
Mof_O 	O 	0.74146	0.08494	0.67863	-0.966
Mof_O 	O 	0.79015	0.04493	0.72439	-0.883
Mof_O 	O 	0.62257	0.04108	0.68895	-0.825
Mof_O 	O 	0.67863	0.08494	0.74146	-0.966
Mof_O 	O 	0.72439	0.04493	0.79015	-0.883
Mof_O 	O 	0.68895	0.04108	0.62257	-0.825
Mof_O 	O 	0.32137	0.91506	0.74146	-0.969
Mof_O 	O 	0.27561	0.95507	0.79015	-0.848
Mof_O 	O 	0.31105	0.95892	0.62257	-0.795
Mof_O 	O 	0.32137	0.08494	0.25854	-0.967
Mof_O 	O 	0.27561	0.04493	0.20985	-0.885
Mof_O 	O 	0.31105	0.04108	0.37743	-0.825
Mof_O 	O 	0.67863	0.91506	0.25854	-0.97
Mof_O 	O 	0.72439	0.95507	0.20985	-0.849
Mof_O 	O 	0.68895	0.95892	0.37743	-0.794
Mof_O 	O 	0.74146	0.67863	0.08494	-0.966
Mof_O 	O 	0.79015	0.72439	0.04493	-0.883
Mof_O 	O 	0.62257	0.68895	0.04108	-0.825
Mof_O 	O 	0.74146	0.32137	0.91506	-0.969
Mof_O 	O 	0.79015	0.27561	0.95507	-0.848
Mof_O 	O 	0.62257	0.31105	0.95892	-0.795
Mof_O 	O 	0.25854	0.32137	0.08494	-0.967
Mof_O 	O 	0.20985	0.27561	0.04493	-0.885
Mof_O 	O 	0.37743	0.31105	0.04108	-0.825
Mof_O 	O 	0.25854	0.67863	0.91506	-0.97
Mof_O 	O 	0.20985	0.72439	0.95507	-0.849
Mof_O 	O 	0.37743	0.68895	0.95892	-0.794
Mof_O 	O 	0.08494	0.74146	0.67863	-0.966
Mof_O 	O 	0.04493	0.79015	0.72439	-0.883
Mof_O 	O 	0.04108	0.62257	0.68895	-0.825
Mof_O 	O 	0.91506	0.74146	0.32137	-0.969
Mof_O 	O 	0.95507	0.79015	0.27561	-0.848
Mof_O 	O 	0.95892	0.62257	0.31105	-0.795
Mof_O 	O 	0.08494	0.25854	0.32137	-0.967
Mof_O 	O 	0.04493	0.20985	0.27561	-0.885
Mof_O 	O 	0.04108	0.37743	0.31105	-0.825
Mof_O 	O 	0.91506	0.25854	0.67863	-0.97
Mof_O 	O 	0.95507	0.20985	0.72439	-0.849
Mof_O 	O 	0.95892	0.37743	0.68895	-0.794
Mof_O 	O 	0.08494	0.67863	0.25854	-0.967
Mof_O 	O 	0.04493	0.72439	0.20985	-0.885
Mof_O 	O 	0.04108	0.68895	0.37743	-0.824
Mof_O 	O 	0.91506	0.32137	0.25854	-0.969
Mof_O 	O 	0.95507	0.27561	0.20985	-0.849
Mof_O 	O 	0.95892	0.31105	0.37743	-0.794
Mof_O 	O 	0.08494	0.32137	0.74146	-0.966
Mof_O 	O 	0.04493	0.27561	0.79015	-0.883
Mof_O 	O 	0.04108	0.31105	0.62257	-0.825
Mof_O 	O 	0.91506	0.67863	0.74146	-0.969
Mof_O 	O 	0.95507	0.72439	0.79015	-0.847
Mof_O 	O 	0.95892	0.68895	0.62257	-0.794
Mof_O 	O 	0.67863	0.74146	0.91506	-0.969
Mof_O 	O 	0.72439	0.79015	0.95507	-0.847
Mof_O 	O 	0.68895	0.62257	0.95892	-0.794
Mof_O 	O 	0.32137	0.74146	0.08494	-0.966
Mof_O 	O 	0.27561	0.79015	0.04493	-0.883
Mof_O 	O 	0.31105	0.62257	0.04108	-0.825
Mof_O 	O 	0.32137	0.25854	0.91506	-0.969
Mof_O 	O 	0.27561	0.20985	0.95507	-0.849
Mof_O 	O 	0.31105	0.37743	0.95892	-0.794
Mof_O 	O 	0.67863	0.25854	0.08494	-0.967
Mof_O 	O 	0.72439	0.20985	0.04493	-0.885
Mof_O 	O 	0.68895	0.37743	0.04108	-0.824
Mof_O 	O 	0.74146	0.08494	0.32137	-0.966
Mof_O 	O 	0.79015	0.04493	0.27561	-0.883
Mof_O 	O 	0.62257	0.04108	0.31105	-0.825
Mof_O 	O 	0.74146	0.91506	0.67863	-0.969
Mof_O 	O 	0.79015	0.95507	0.72439	-0.847
Mof_O 	O 	0.62257	0.95892	0.68895	-0.794
Mof_O 	O 	0.25854	0.08494	0.67863	-0.967
Mof_O 	O 	0.20985	0.04493	0.72439	-0.885
Mof_O 	O 	0.37743	0.04108	0.68895	-0.824
Mof_O 	O 	0.25854	0.91506	0.32137	-0.969
Mof_O 	O 	0.20985	0.95507	0.27561	-0.849
Mof_O 	O 	0.37743	0.95892	0.31105	-0.794
Mof_O 	O 	0.29216	0	0.29216	-1.356
Mof_O 	O 	0.70784	0	0.29216	-1.358
Mof_O 	O 	0.70784	0	0.70784	-1.359
Mof_O 	O 	0.29216	0	0.70784	-1.358
Mof_O 	O 	0.29216	0.29216	-0	-1.356
Mof_O 	O 	0.29216	0.70784	-0	-1.358
Mof_O 	O 	0.70784	0.70784	-0	-1.359
Mof_O 	O 	0.70784	0.29216	-0	-1.358
Mof_O 	O 	-3.25731e-33	0.29216	0.29216	-1.356
Mof_O 	O 	-6.05149e-33	0.29216	0.70784	-1.358
Mof_O 	O 	2.65397e-33	0.70784	0.70784	-1.359
Mof_O 	O 	-1.08094e-33	0.70784	0.29216	-1.358
_end
