data_functionalizedCrystal
_audit_creation_method	'EQeq! by Chris Wilmer'
_symmetry_space_group_name_H-M	'P1'
_symmetry_Int_Tables_number	1
_symmetry_cell_setting	triclinic
loop_
_symmetry_equiv_pos_as_xyz
  x,y,z
_cell_length_a	10.2969
_cell_length_b	15.7512
_cell_length_c	18.7712
_cell_angle_alpha	90
_cell_angle_beta	90
_cell_angle_gamma	90
loop_
_atom_site_label
_atom_site_type_symbol
_atom_site_fract_x
_atom_site_fract_y
_atom_site_fract_z
_atom_site_charge
Mof_Co	Co	0.73967	0.85981	0.9971	1.031
Mof_Co	Co	0.26033	0.14019	0.4971	1.066
Mof_Co	Co	0.76033	0.35981	0.9971	1.031
Mof_Co	Co	0.23967	0.64019	0.4971	1.065
Mof_H 	H 	0.6818	0.8189	0.1541	-0.038
Mof_H 	H 	0.739	0.7307	0.2475	0.085
Mof_H 	H 	0.9773	0.6051	0.1125	0.086
Mof_H 	H 	0.9121	0.6958	0.0226	-0.009
Mof_H 	H 	0.9661	0.6397	0.2851	0.096
Mof_H 	H 	0.9766	0.5606	0.2322	0.092
Mof_H 	H 	0.8467	0.5367	0.3399	0.014
Mof_H 	H 	0.7389	0.5975	0.3055	0.012
Mof_H 	H 	0.8251	0.4407	0.2436	0.07
Mof_H 	H 	0.7223	0.5023	0.2062	0.077
Mof_H 	H 	0.5706	0.4761	0.2988	0.018
Mof_H 	H 	0.6109	0.3892	0.2607	0.021
Mof_H 	H 	0.7676	0.3686	0.3579	0.087
Mof_H 	H 	0.6978	0.4461	0.3976	0.089
Mof_H 	H 	0.4348	0.4224	0.404	0.088
Mof_H 	H 	0.2866	0.3268	0.4486	-0.029
Mof_H 	H 	0.5416	0.1416	0.439	-0.037
Mof_H 	H 	0.6971	0.2314	0.3934	0.08
Mof_H 	H 	0.7799	0.8975	0.8393	-0.045
Mof_H 	H 	0.7511	0.999	0.7523	0.083
Mof_H 	H 	0.5307	0.1327	0.8909	0.066
Mof_H 	H 	0.5727	0.0295	0.9756	-0.065
Mof_H 	H 	0.5465	0.1803	0.7646	0.083
Mof_H 	H 	0.6256	0.1233	0.7087	0.083
Mof_H 	H 	0.7335	0.2465	0.8048	0.005
Mof_H 	H 	0.8251	0.1772	0.7681	0.02
Mof_H 	H 	0.772	0.2309	0.6549	0.073
Mof_H 	H 	0.8383	0.302	0.7033	0.076
Mof_H 	H 	0.6304	0.364	0.7238	0.013
Mof_H 	H 	0.566	0.2937	0.6733	0.01
Mof_H 	H 	0.7561	0.4145	0.626	0.085
Mof_H 	H 	0.6921	0.3443	0.5757	0.091
Mof_H 	H 	0.6827	0.5514	0.5923	0.079
Mof_H 	H 	0.5229	0.6413	0.553	-0.037
Mof_H 	H 	0.2663	0.4568	0.5534	-0.033
Mof_H 	H 	0.4184	0.3615	0.5939	0.091
Mof_H 	H 	0.3182	0.1811	0.6541	-0.046
Mof_H 	H 	0.261	0.2693	0.7475	0.084
Mof_H 	H 	0.0227	0.3949	0.6125	0.077
Mof_H 	H 	0.0879	0.3042	0.5226	-0.04
Mof_H 	H 	0.0339	0.3603	0.7851	0.097
Mof_H 	H 	0.0234	0.4394	0.7322	0.091
Mof_H 	H 	0.1533	0.4633	0.8399	0.009
Mof_H 	H 	0.2611	0.4025	0.8055	0.008
Mof_H 	H 	0.1749	0.5593	0.7436	0.068
Mof_H 	H 	0.2777	0.4977	0.7062	0.075
Mof_H 	H 	0.4294	0.5239	0.7988	0.018
Mof_H 	H 	0.3891	0.6108	0.7607	0.024
Mof_H 	H 	0.2324	0.6314	0.8579	0.077
Mof_H 	H 	0.3022	0.5539	0.8976	0.071
Mof_H 	H 	0.5652	0.5776	0.904	0.076
Mof_H 	H 	0.7134	0.6732	0.9486	-0.046
Mof_H 	H 	0.4584	0.8584	0.939	-0.046
Mof_H 	H 	0.3029	0.7686	0.8934	0.07
Mof_H 	H 	0.2201	0.1025	0.3393	-0.042
Mof_H 	H 	0.2489	0.001	0.2523	0.085
Mof_H 	H 	0.4693	0.8673	0.3909	0.077
Mof_H 	H 	0.4273	0.9705	0.4756	-0.039
Mof_H 	H 	0.4535	0.8197	0.2646	0.088
Mof_H 	H 	0.3744	0.8767	0.2087	0.089
Mof_H 	H 	0.2665	0.7535	0.3048	0.004
Mof_H 	H 	0.1749	0.8228	0.2681	0.017
Mof_H 	H 	0.228	0.7691	0.1549	0.082
Mof_H 	H 	0.1617	0.698	0.2033	0.079
Mof_H 	H 	0.3696	0.636	0.2238	0.009
Mof_H 	H 	0.434	0.7063	0.1733	0.01
Mof_H 	H 	0.2439	0.5855	0.126	0.097
Mof_H 	H 	0.3079	0.6557	0.0757	0.114
Mof_H 	H 	0.3173	0.4486	0.0923	0.09
Mof_H 	H 	0.4771	0.3587	0.053	-0.026
Mof_H 	H 	0.7337	0.5432	0.0534	-0.015
Mof_H 	H 	0.5816	0.6385	0.0939	0.103
Mof_H 	H 	0.8182	0.3189	0.1541	-0.038
Mof_H 	H 	0.761	0.2307	0.2475	0.085
Mof_H 	H 	0.5227	0.1051	0.1125	0.085
Mof_H 	H 	0.5879	0.1958	0.0226	-0.01
Mof_H 	H 	0.5339	0.1397	0.2851	0.096
Mof_H 	H 	0.5234	0.0606	0.2322	0.091
Mof_H 	H 	0.6533	0.0367	0.3399	0.015
Mof_H 	H 	0.7611	0.0975	0.3055	0.013
Mof_H 	H 	0.6749	0.9407	0.2436	0.069
Mof_H 	H 	0.7777	0.0023	0.2062	0.075
Mof_H 	H 	0.9294	0.9761	0.2988	0.018
Mof_H 	H 	0.8891	0.8892	0.2607	0.022
Mof_H 	H 	0.7324	0.8686	0.3579	0.086
Mof_H 	H 	0.8022	0.9461	0.3976	0.089
Mof_H 	H 	0.0652	0.9224	0.404	0.088
Mof_H 	H 	0.2134	0.8268	0.4486	-0.029
Mof_H 	H 	0.9584	0.6416	0.439	-0.037
Mof_H 	H 	0.8029	0.7314	0.3934	0.08
Mof_H 	H 	0.7201	0.3975	0.8393	-0.046
Mof_H 	H 	0.7489	0.499	0.7523	0.087
Mof_H 	H 	0.9693	0.6327	0.8909	0.066
Mof_H 	H 	0.9273	0.5295	0.9756	-0.066
Mof_H 	H 	0.9535	0.6803	0.7646	0.084
Mof_H 	H 	0.8744	0.6233	0.7087	0.083
Mof_H 	H 	0.7665	0.7465	0.8048	0.005
Mof_H 	H 	0.6749	0.6772	0.7681	0.02
Mof_H 	H 	0.728	0.7309	0.6549	0.073
Mof_H 	H 	0.6617	0.802	0.7033	0.076
Mof_H 	H 	0.8696	0.864	0.7238	0.013
Mof_H 	H 	0.934	0.7937	0.6733	0.01
Mof_H 	H 	0.7439	0.9145	0.626	0.085
Mof_H 	H 	0.8079	0.8443	0.5757	0.09
Mof_H 	H 	0.8173	0.0514	0.5923	0.079
Mof_H 	H 	0.9771	0.1413	0.553	-0.037
Mof_H 	H 	0.2337	0.9568	0.5534	-0.033
Mof_H 	H 	0.0816	0.8615	0.5939	0.09
Mof_H 	H 	0.1818	0.6811	0.6541	-0.046
Mof_H 	H 	0.239	0.7693	0.7475	0.084
Mof_H 	H 	0.4773	0.8949	0.6125	0.077
Mof_H 	H 	0.4121	0.8042	0.5226	-0.04
Mof_H 	H 	0.4661	0.8603	0.7851	0.097
Mof_H 	H 	0.4766	0.9394	0.7322	0.09
Mof_H 	H 	0.3467	0.9633	0.8399	0.009
Mof_H 	H 	0.2389	0.9025	0.8055	0.009
Mof_H 	H 	0.3251	0.0593	0.7436	0.067
Mof_H 	H 	0.2223	0.9977	0.7062	0.074
Mof_H 	H 	0.0706	0.0239	0.7988	0.018
Mof_H 	H 	0.1109	0.1108	0.7607	0.024
Mof_H 	H 	0.2676	0.1314	0.8579	0.077
Mof_H 	H 	0.1978	0.0539	0.8976	0.072
Mof_H 	H 	0.9348	0.0776	0.904	0.077
Mof_H 	H 	0.7866	0.1732	0.9486	-0.046
Mof_H 	H 	0.0416	0.3584	0.939	-0.045
Mof_H 	H 	0.1971	0.2686	0.8934	0.071
Mof_H 	H 	0.2799	0.6025	0.3393	-0.043
Mof_H 	H 	0.2511	0.501	0.2523	0.088
Mof_H 	H 	0.0307	0.3673	0.3909	0.077
Mof_H 	H 	0.0727	0.4705	0.4756	-0.039
Mof_H 	H 	0.0465	0.3197	0.2646	0.087
Mof_H 	H 	0.1256	0.3767	0.2087	0.088
Mof_H 	H 	0.2335	0.2535	0.3048	0.005
Mof_H 	H 	0.3251	0.3228	0.2681	0.017
Mof_H 	H 	0.272	0.2691	0.1549	0.082
Mof_H 	H 	0.3383	0.198	0.2033	0.079
Mof_H 	H 	0.1304	0.136	0.2238	0.01
Mof_H 	H 	0.066	0.2063	0.1733	0.01
Mof_H 	H 	0.2561	0.0855	0.126	0.095
Mof_H 	H 	0.1921	0.1557	0.0757	0.112
Mof_H 	H 	0.1827	0.9486	0.0923	0.088
Mof_H 	H 	0.0229	0.8587	0.053	-0.024
Mof_H 	H 	0.7663	0.0432	0.0534	-0.014
Mof_H 	H 	0.9184	0.1385	0.0939	0.099
Mof_C 	C 	0.74269	0.7748	0.1455	0.094
Mof_C 	C 	0.77714	0.72266	0.20186	-0.192
Mof_C 	C 	0.86813	0.65821	0.19131	0.155
Mof_C 	C 	0.91665	0.64892	0.12265	-0.194
Mof_C 	C 	0.87683	0.70336	0.06897	0.099
Mof_C 	C 	0.91609	0.60352	0.25183	-0.249
Mof_C 	C 	0.80981	0.55717	0.29435	0.024
Mof_C 	C 	0.75436	0.4818	0.25284	-0.18
Mof_C 	C 	0.64311	0.43576	0.29141	0.014
Mof_C 	C 	0.68399	0.39894	0.36353	-0.239
Mof_C 	C 	0.58468	0.33871	0.39367	0.151
Mof_C 	C 	0.45953	0.36482	0.4107	-0.189
Mof_C 	C 	0.37136	0.30719	0.43735	0.092
Mof_C 	C 	0.51951	0.19951	0.43166	0.093
Mof_C 	C 	0.61336	0.2528	0.40458	-0.197
Mof_C 	C 	0.7313	0.94699	0.85054	0.087
Mof_C 	C 	0.7135	0.00705	0.79803	-0.193
Mof_C 	C 	0.64068	0.07944	0.81195	0.149
Mof_C 	C 	0.58504	0.08593	0.8794	-0.2
Mof_C 	C 	0.60985	0.02341	0.92959	0.096
Mof_C 	C 	0.6284	0.14879	0.75692	-0.242
Mof_C 	C 	0.74435	0.2105	0.76195	0.022
Mof_C 	C 	0.75881	0.26741	0.69718	-0.189
Mof_C 	C 	0.64579	0.32719	0.68194	0.023
Mof_C 	C 	0.6753	0.38221	0.61672	-0.248
Mof_C 	C 	0.57066	0.44394	0.59617	0.155
Mof_C 	C 	0.59772	0.53001	0.58404	-0.199
Mof_C 	C 	0.50179	0.58326	0.56031	0.095
Mof_C 	C 	0.35272	0.47614	0.56069	0.094
Mof_C 	C 	0.44324	0.41858	0.5849	-0.195
Mof_C 	C 	0.25731	0.2252	0.6455	0.093
Mof_C 	C 	0.22286	0.27734	0.70186	-0.194
Mof_C 	C 	0.13187	0.34179	0.69131	0.156
Mof_C 	C 	0.08335	0.35108	0.62265	-0.2
Mof_C 	C 	0.12317	0.29664	0.56897	0.098
Mof_C 	C 	0.08391	0.39648	0.75183	-0.251
Mof_C 	C 	0.19019	0.44283	0.79435	0.026
Mof_C 	C 	0.24564	0.5182	0.75284	-0.178
Mof_C 	C 	0.35689	0.56424	0.79141	0.006
Mof_C 	C 	0.31601	0.60106	0.86353	-0.225
Mof_C 	C 	0.41532	0.66129	0.89367	0.133
Mof_C 	C 	0.54047	0.63518	0.9107	-0.191
Mof_C 	C 	0.62864	0.69281	0.93735	0.078
Mof_C 	C 	0.48049	0.80049	0.93166	0.08
Mof_C 	C 	0.38664	0.7472	0.90458	-0.198
Mof_C 	C 	0.2687	0.05301	0.35054	0.091
Mof_C 	C 	0.2865	0.99295	0.29803	-0.196
Mof_C 	C 	0.35932	0.92056	0.31195	0.153
Mof_C 	C 	0.41496	0.91407	0.3794	-0.197
Mof_C 	C 	0.39015	0.97659	0.42959	0.098
Mof_C 	C 	0.3716	0.85121	0.25692	-0.249
Mof_C 	C 	0.25565	0.7895	0.26195	0.031
Mof_C 	C 	0.24119	0.73259	0.19718	-0.2
Mof_C 	C 	0.35421	0.67281	0.18194	0.038
Mof_C 	C 	0.3247	0.61779	0.11672	-0.268
Mof_C 	C 	0.42934	0.55606	0.09617	0.176
Mof_C 	C 	0.40228	0.46999	0.08404	-0.199
Mof_C 	C 	0.49821	0.41674	0.06031	0.109
Mof_C 	C 	0.64728	0.52386	0.06069	0.109
Mof_C 	C 	0.55676	0.58142	0.0849	-0.194
Mof_C 	C 	0.75731	0.2748	0.1455	0.093
Mof_C 	C 	0.72286	0.22266	0.20186	-0.191
Mof_C 	C 	0.63187	0.15821	0.19131	0.154
Mof_C 	C 	0.58335	0.14892	0.12265	-0.194
Mof_C 	C 	0.62317	0.20336	0.06897	0.099
Mof_C 	C 	0.58391	0.10352	0.25183	-0.247
Mof_C 	C 	0.69019	0.05717	0.29435	0.021
Mof_C 	C 	0.74564	0.9818	0.25284	-0.177
Mof_C 	C 	0.85689	0.93576	0.29141	0.012
Mof_C 	C 	0.81601	0.89894	0.36353	-0.238
Mof_C 	C 	0.91532	0.83871	0.39367	0.151
Mof_C 	C 	0.04047	0.86482	0.4107	-0.19
Mof_C 	C 	0.12864	0.80719	0.43735	0.092
Mof_C 	C 	0.98049	0.69951	0.43166	0.093
Mof_C 	C 	0.88664	0.7528	0.40458	-0.197
Mof_C 	C 	0.7687	0.44699	0.85054	0.093
Mof_C 	C 	0.7865	0.50705	0.79803	-0.201
Mof_C 	C 	0.85932	0.57944	0.81195	0.152
Mof_C 	C 	0.91496	0.58593	0.8794	-0.201
Mof_C 	C 	0.89015	0.52341	0.92959	0.094
Mof_C 	C 	0.8716	0.64879	0.75692	-0.244
Mof_C 	C 	0.75565	0.7105	0.76195	0.023
Mof_C 	C 	0.74119	0.76741	0.69718	-0.189
Mof_C 	C 	0.85421	0.82719	0.68194	0.023
Mof_C 	C 	0.8247	0.88221	0.61672	-0.247
Mof_C 	C 	0.92934	0.94394	0.59617	0.153
Mof_C 	C 	0.90228	0.03001	0.58404	-0.196
Mof_C 	C 	0.99821	0.08326	0.56031	0.096
Mof_C 	C 	0.14728	0.97614	0.56069	0.094
Mof_C 	C 	0.05676	0.91858	0.5849	-0.193
Mof_C 	C 	0.24269	0.7252	0.6455	0.093
Mof_C 	C 	0.27714	0.77734	0.70186	-0.193
Mof_C 	C 	0.36813	0.84179	0.69131	0.155
Mof_C 	C 	0.41665	0.85108	0.62265	-0.2
Mof_C 	C 	0.37683	0.79664	0.56897	0.098
Mof_C 	C 	0.41609	0.89648	0.75183	-0.25
Mof_C 	C 	0.30981	0.94283	0.79435	0.024
Mof_C 	C 	0.25436	0.0182	0.75284	-0.175
Mof_C 	C 	0.14311	0.06424	0.79141	0.005
Mof_C 	C 	0.18399	0.10106	0.86353	-0.225
Mof_C 	C 	0.08468	0.16129	0.89367	0.134
Mof_C 	C 	0.95953	0.13518	0.9107	-0.19
Mof_C 	C 	0.87136	0.19281	0.93735	0.078
Mof_C 	C 	0.01951	0.30049	0.93166	0.081
Mof_C 	C 	0.11336	0.2472	0.90458	-0.198
Mof_C 	C 	0.2313	0.55301	0.35054	0.095
Mof_C 	C 	0.2135	0.49295	0.29803	-0.202
Mof_C 	C 	0.14068	0.42056	0.31195	0.155
Mof_C 	C 	0.08504	0.41407	0.3794	-0.198
Mof_C 	C 	0.10985	0.47659	0.42959	0.098
Mof_C 	C 	0.1284	0.35121	0.25692	-0.249
Mof_C 	C 	0.24435	0.2895	0.26195	0.03
Mof_C 	C 	0.25881	0.23259	0.19718	-0.198
Mof_C 	C 	0.14579	0.17281	0.18194	0.035
Mof_C 	C 	0.1753	0.11779	0.11672	-0.261
Mof_C 	C 	0.07066	0.05606	0.09617	0.163
Mof_C 	C 	0.09772	0.96999	0.08404	-0.19
Mof_C 	C 	0.00179	0.91674	0.06031	0.102
Mof_C 	C 	0.85272	0.02386	0.06069	0.103
Mof_C 	C 	0.94324	0.08142	0.0849	-0.184
Mof_N 	N 	0.79076	0.7664	0.0792	-0.246
Mof_N 	N 	0.39872	0.22453	0.44836	-0.272
Mof_N 	N 	0.68358	0.9547	0.91674	-0.276
Mof_N 	N 	0.37914	0.55799	0.54669	-0.274
Mof_N 	N 	0.20924	0.2336	0.5792	-0.266
Mof_N 	N 	0.60128	0.77547	0.94836	-0.281
Mof_N 	N 	0.31642	0.0453	0.41674	-0.266
Mof_N 	N 	0.62086	0.44201	0.04669	-0.256
Mof_N 	N 	0.70924	0.2664	0.0792	-0.247
Mof_N 	N 	0.10128	0.72453	0.44836	-0.272
Mof_N 	N 	0.81642	0.4547	0.91674	-0.276
Mof_N 	N 	0.12086	0.05799	0.54669	-0.274
Mof_N 	N 	0.29076	0.7336	0.5792	-0.266
Mof_N 	N 	0.89872	0.27547	0.94836	-0.281
Mof_N 	N 	0.18358	0.5453	0.41674	-0.266
Mof_N 	N 	0.87914	0.94201	0.04669	-0.252
_end
