data_functionalizedCrystal
_audit_creation_method	'EQeq! by Chris Wilmer'
_symmetry_space_group_name_H-M	'P1'
_symmetry_Int_Tables_number	1
_symmetry_cell_setting	triclinic
loop_
_symmetry_equiv_pos_as_xyz
  x,y,z
_cell_length_a	21.7777
_cell_length_b	21.7777
_cell_length_c	16.4167
_cell_angle_alpha	90
_cell_angle_beta	90
_cell_angle_gamma	90
loop_
_atom_site_label
_atom_site_type_symbol
_atom_site_fract_x
_atom_site_fract_y
_atom_site_fract_z
_atom_site_charge
Mof_Eu	Eu	0.82908	0.63587	0.36874	1.735
Mof_O 	O 	0.7517	0.6101	0.2666	-0.531
Mof_O 	O 	0.7224	0.5694	0.148	-0.513
Mof_O 	O 	0.9361	0.6101	0.3662	-0.537
Mof_O 	O 	0.0197	0.5718	0.3054	-0.56
Mof_N 	N 	0.8659	0.5796	0.2432	-0.182
Mof_C 	C 	0.7613	0.5819	0.199	0.416
Mof_C 	C 	0.8272	0.5636	0.1846	-0.094
Mof_C 	C 	0.8464	0.5312	0.1171	0.022
Mof_H 	H 	0.8188	0.5216	0.0758	0.009
Mof_C 	C 	0.9067	0.5131	0.1114	-0.119
Mof_H 	H 	0.9202	0.49	0.0672	0.045
Mof_C 	C 	0.9465	0.5297	0.1719	0.033
Mof_H 	H 	0.9877	0.5185	0.1689	-0.007
Mof_C 	C 	0.9256	0.5628	0.2368	-0.117
Mof_C 	C 	0.964	0.582	0.3064	0.409
Mof_Eu	Eu	0.32908	0.13587	0.86874	1.734
Mof_O 	O 	0.2517	0.1101	0.7666	-0.532
Mof_O 	O 	0.2224	0.0694	0.648	-0.514
Mof_O 	O 	0.4361	0.1101	0.8662	-0.538
Mof_O 	O 	0.5197	0.0718	0.8054	-0.561
Mof_N 	N 	0.3659	0.0796	0.7432	-0.183
Mof_C 	C 	0.2613	0.0819	0.699	0.415
Mof_C 	C 	0.3272	0.0636	0.6846	-0.095
Mof_C 	C 	0.3464	0.0312	0.6171	0.021
Mof_H 	H 	0.3188	0.0216	0.5758	0.008
Mof_C 	C 	0.4067	0.0131	0.6114	-0.119
Mof_H 	H 	0.4202	0.99	0.5672	0.046
Mof_C 	C 	0.4465	0.0297	0.6719	0.033
Mof_H 	H 	0.4877	0.0185	0.6689	-0.007
Mof_C 	C 	0.4256	0.0628	0.7368	-0.117
Mof_C 	C 	0.464	0.082	0.8064	0.409
Mof_Eu	Eu	0.67092	0.36413	0.86874	1.734
Mof_O 	O 	0.7483	0.3899	0.7666	-0.532
Mof_O 	O 	0.7776	0.4306	0.648	-0.514
Mof_O 	O 	0.5639	0.3899	0.8662	-0.538
Mof_O 	O 	0.4803	0.4282	0.8054	-0.561
Mof_N 	N 	0.6341	0.4204	0.7432	-0.183
Mof_C 	C 	0.7387	0.4181	0.699	0.415
Mof_C 	C 	0.6728	0.4364	0.6846	-0.095
Mof_C 	C 	0.6536	0.4688	0.6171	0.021
Mof_H 	H 	0.6812	0.4784	0.5758	0.008
Mof_C 	C 	0.5933	0.4869	0.6114	-0.119
Mof_H 	H 	0.5798	0.51	0.5672	0.046
Mof_C 	C 	0.5535	0.4703	0.6719	0.033
Mof_H 	H 	0.5123	0.4815	0.6689	-0.007
Mof_C 	C 	0.5744	0.4372	0.7368	-0.117
Mof_C 	C 	0.536	0.418	0.8064	0.409
Mof_Eu	Eu	0.17092	0.86413	0.36874	1.734
Mof_O 	O 	0.2483	0.8899	0.2666	-0.532
Mof_O 	O 	0.2776	0.9306	0.148	-0.514
Mof_O 	O 	0.0639	0.8899	0.3662	-0.538
Mof_O 	O 	0.9803	0.9282	0.3054	-0.562
Mof_N 	N 	0.1341	0.9204	0.2432	-0.183
Mof_C 	C 	0.2387	0.9181	0.199	0.415
Mof_C 	C 	0.1728	0.9364	0.1846	-0.094
Mof_C 	C 	0.1536	0.9688	0.1171	0.02
Mof_H 	H 	0.1812	0.9784	0.0758	0.008
Mof_C 	C 	0.0933	0.9869	0.1114	-0.117
Mof_H 	H 	0.0798	0.01	0.0672	0.045
Mof_C 	C 	0.0535	0.9703	0.1719	0.032
Mof_H 	H 	0.0123	0.9815	0.1689	-0.007
Mof_C 	C 	0.0744	0.9372	0.2368	-0.117
Mof_C 	C 	0.036	0.918	0.3064	0.409
Mof_Eu	Eu	0.11413	0.07908	0.61874	1.734
Mof_O 	O 	0.1399	0.0017	0.5166	-0.532
Mof_O 	O 	0.1806	0.9724	0.398	-0.514
Mof_O 	O 	0.1399	0.1861	0.6162	-0.538
Mof_O 	O 	0.1782	0.2697	0.5554	-0.561
Mof_N 	N 	0.1704	0.1159	0.4932	-0.183
Mof_C 	C 	0.1681	0.0113	0.449	0.415
Mof_C 	C 	0.1864	0.0772	0.4346	-0.095
Mof_C 	C 	0.2188	0.0964	0.3671	0.021
Mof_H 	H 	0.2284	0.0688	0.3258	0.008
Mof_C 	C 	0.2369	0.1567	0.3614	-0.119
Mof_H 	H 	0.26	0.1702	0.3172	0.046
Mof_C 	C 	0.2203	0.1965	0.4219	0.033
Mof_H 	H 	0.2315	0.2377	0.4189	-0.007
Mof_C 	C 	0.1872	0.1756	0.4868	-0.117
Mof_C 	C 	0.168	0.214	0.5564	0.409
Mof_Eu	Eu	0.61413	0.57908	0.11874	1.734
Mof_O 	O 	0.6399	0.5017	0.0166	-0.532
Mof_O 	O 	0.6806	0.4724	0.898	-0.514
Mof_O 	O 	0.6399	0.6861	0.1162	-0.538
Mof_O 	O 	0.6782	0.7697	0.0554	-0.561
Mof_N 	N 	0.6704	0.6159	0.9932	-0.183
Mof_C 	C 	0.6681	0.5113	0.949	0.415
Mof_C 	C 	0.6864	0.5772	0.9346	-0.095
Mof_C 	C 	0.7188	0.5964	0.8671	0.021
Mof_H 	H 	0.7284	0.5688	0.8258	0.008
Mof_C 	C 	0.7369	0.6567	0.8614	-0.119
Mof_H 	H 	0.76	0.6702	0.8172	0.046
Mof_C 	C 	0.7203	0.6965	0.9219	0.033
Mof_H 	H 	0.7315	0.7377	0.9189	-0.007
Mof_C 	C 	0.6872	0.6756	0.9868	-0.118
Mof_C 	C 	0.668	0.714	0.0564	0.409
Mof_Eu	Eu	0.38587	0.92092	0.11874	1.734
Mof_O 	O 	0.3601	0.9983	0.0166	-0.532
Mof_O 	O 	0.3194	0.0276	0.898	-0.514
Mof_O 	O 	0.3601	0.8139	0.1162	-0.538
Mof_O 	O 	0.3218	0.7303	0.0554	-0.561
Mof_N 	N 	0.3296	0.8841	0.9932	-0.183
Mof_C 	C 	0.3319	0.9887	0.949	0.414
Mof_C 	C 	0.3136	0.9228	0.9346	-0.095
Mof_C 	C 	0.2812	0.9036	0.8671	0.021
Mof_H 	H 	0.2716	0.9312	0.8258	0.008
Mof_C 	C 	0.2631	0.8433	0.8614	-0.119
Mof_H 	H 	0.24	0.8298	0.8172	0.046
Mof_C 	C 	0.2797	0.8035	0.9219	0.033
Mof_H 	H 	0.2685	0.7623	0.9189	-0.007
Mof_C 	C 	0.3128	0.8244	0.9868	-0.118
Mof_C 	C 	0.332	0.786	0.0564	0.409
Mof_Eu	Eu	0.88587	0.42092	0.61874	1.734
Mof_O 	O 	0.8601	0.4983	0.5166	-0.532
Mof_O 	O 	0.8194	0.5276	0.398	-0.514
Mof_O 	O 	0.8601	0.3139	0.6162	-0.538
Mof_O 	O 	0.8218	0.2303	0.5554	-0.561
Mof_N 	N 	0.8296	0.3841	0.4932	-0.183
Mof_C 	C 	0.8319	0.4887	0.449	0.415
Mof_C 	C 	0.8136	0.4228	0.4346	-0.095
Mof_C 	C 	0.7812	0.4036	0.3671	0.021
Mof_H 	H 	0.7716	0.4312	0.3258	0.008
Mof_C 	C 	0.7631	0.3433	0.3614	-0.119
Mof_H 	H 	0.74	0.3298	0.3172	0.046
Mof_C 	C 	0.7797	0.3035	0.4219	0.033
Mof_H 	H 	0.7685	0.2623	0.4189	-0.007
Mof_C 	C 	0.8128	0.3244	0.4868	-0.117
Mof_C 	C 	0.832	0.286	0.5564	0.409
Mof_Eu	Eu	0.17092	0.36413	0.63126	1.734
Mof_O 	O 	0.2483	0.3899	0.7334	-0.532
Mof_O 	O 	0.2776	0.4306	0.852	-0.514
Mof_O 	O 	0.0639	0.3899	0.6338	-0.538
Mof_O 	O 	0.9803	0.4282	0.6946	-0.561
Mof_N 	N 	0.1341	0.4204	0.7568	-0.183
Mof_C 	C 	0.2387	0.4181	0.801	0.415
Mof_C 	C 	0.1728	0.4364	0.8154	-0.095
Mof_C 	C 	0.1536	0.4688	0.8829	0.021
Mof_H 	H 	0.1812	0.4784	0.9242	0.008
Mof_C 	C 	0.0933	0.4869	0.8886	-0.119
Mof_H 	H 	0.0798	0.51	0.9328	0.045
Mof_C 	C 	0.0535	0.4703	0.8281	0.033
Mof_H 	H 	0.0123	0.4815	0.8311	-0.007
Mof_C 	C 	0.0744	0.4372	0.7632	-0.117
Mof_C 	C 	0.036	0.418	0.6936	0.409
Mof_Eu	Eu	0.67092	0.86413	0.13126	1.734
Mof_O 	O 	0.7483	0.8899	0.2334	-0.532
Mof_O 	O 	0.7776	0.9306	0.352	-0.514
Mof_O 	O 	0.5639	0.8899	0.1338	-0.538
Mof_O 	O 	0.4803	0.9282	0.1946	-0.561
Mof_N 	N 	0.6341	0.9204	0.2568	-0.183
Mof_C 	C 	0.7387	0.9181	0.301	0.415
Mof_C 	C 	0.6728	0.9364	0.3154	-0.095
Mof_C 	C 	0.6536	0.9688	0.3829	0.021
Mof_H 	H 	0.6812	0.9784	0.4242	0.008
Mof_C 	C 	0.5933	0.9869	0.3886	-0.119
Mof_H 	H 	0.5798	0.01	0.4328	0.046
Mof_C 	C 	0.5535	0.9703	0.3281	0.033
Mof_H 	H 	0.5123	0.9815	0.3311	-0.007
Mof_C 	C 	0.5744	0.9372	0.2632	-0.117
Mof_C 	C 	0.536	0.918	0.1936	0.409
Mof_Eu	Eu	0.32908	0.63587	0.13126	1.734
Mof_O 	O 	0.2517	0.6101	0.2334	-0.532
Mof_O 	O 	0.2224	0.5694	0.352	-0.514
Mof_O 	O 	0.4361	0.6101	0.1338	-0.538
Mof_O 	O 	0.5197	0.5718	0.1946	-0.561
Mof_N 	N 	0.3659	0.5796	0.2568	-0.183
Mof_C 	C 	0.2613	0.5819	0.301	0.415
Mof_C 	C 	0.3272	0.5636	0.3154	-0.095
Mof_C 	C 	0.3464	0.5312	0.3829	0.021
Mof_H 	H 	0.3188	0.5216	0.4242	0.008
Mof_C 	C 	0.4067	0.5131	0.3886	-0.119
Mof_H 	H 	0.4202	0.49	0.4328	0.046
Mof_C 	C 	0.4465	0.5297	0.3281	0.033
Mof_H 	H 	0.4877	0.5185	0.3311	-0.007
Mof_C 	C 	0.4256	0.5628	0.2632	-0.117
Mof_C 	C 	0.464	0.582	0.1936	0.409
Mof_Eu	Eu	0.82908	0.13587	0.63126	1.734
Mof_O 	O 	0.7517	0.1101	0.7334	-0.532
Mof_O 	O 	0.7224	0.0694	0.852	-0.514
Mof_O 	O 	0.9361	0.1101	0.6338	-0.538
Mof_O 	O 	0.0197	0.0718	0.6946	-0.562
Mof_N 	N 	0.8659	0.0796	0.7568	-0.183
Mof_C 	C 	0.7613	0.0819	0.801	0.415
Mof_C 	C 	0.8272	0.0636	0.8154	-0.094
Mof_C 	C 	0.8464	0.0312	0.8829	0.02
Mof_H 	H 	0.8188	0.0216	0.9242	0.008
Mof_C 	C 	0.9067	0.0131	0.8886	-0.117
Mof_H 	H 	0.9202	0.99	0.9328	0.045
Mof_C 	C 	0.9465	0.0297	0.8281	0.032
Mof_H 	H 	0.9877	0.0185	0.8311	-0.007
Mof_C 	C 	0.9256	0.0628	0.7632	-0.117
Mof_C 	C 	0.964	0.082	0.6936	0.409
Mof_Eu	Eu	0.88587	0.92092	0.38126	1.734
Mof_O 	O 	0.8601	0.9983	0.4834	-0.532
Mof_O 	O 	0.8194	0.0276	0.602	-0.514
Mof_O 	O 	0.8601	0.8139	0.3838	-0.538
Mof_O 	O 	0.8218	0.7303	0.4446	-0.561
Mof_N 	N 	0.8296	0.8841	0.5068	-0.183
Mof_C 	C 	0.8319	0.9887	0.551	0.415
Mof_C 	C 	0.8136	0.9228	0.5654	-0.095
Mof_C 	C 	0.7812	0.9036	0.6329	0.021
Mof_H 	H 	0.7716	0.9312	0.6742	0.008
Mof_C 	C 	0.7631	0.8433	0.6386	-0.119
Mof_H 	H 	0.74	0.8298	0.6828	0.046
Mof_C 	C 	0.7797	0.8035	0.5781	0.033
Mof_H 	H 	0.7685	0.7623	0.5811	-0.007
Mof_C 	C 	0.8128	0.8244	0.5132	-0.117
Mof_C 	C 	0.832	0.786	0.4436	0.409
Mof_Eu	Eu	0.38587	0.42092	0.88126	1.734
Mof_O 	O 	0.3601	0.4983	0.9834	-0.532
Mof_O 	O 	0.3194	0.5276	0.102	-0.514
Mof_O 	O 	0.3601	0.3139	0.8838	-0.538
Mof_O 	O 	0.3218	0.2303	0.9446	-0.561
Mof_N 	N 	0.3296	0.3841	0.0068	-0.183
Mof_C 	C 	0.3319	0.4887	0.051	0.415
Mof_C 	C 	0.3136	0.4228	0.0654	-0.095
Mof_C 	C 	0.2812	0.4036	0.1329	0.021
Mof_H 	H 	0.2716	0.4312	0.1742	0.008
Mof_C 	C 	0.2631	0.3433	0.1386	-0.119
Mof_H 	H 	0.24	0.3298	0.1828	0.046
Mof_C 	C 	0.2797	0.3035	0.0781	0.033
Mof_H 	H 	0.2685	0.2623	0.0811	-0.007
Mof_C 	C 	0.3128	0.3244	0.0132	-0.118
Mof_C 	C 	0.332	0.286	0.9436	0.409
Mof_Eu	Eu	0.61413	0.07908	0.88126	1.734
Mof_O 	O 	0.6399	0.0017	0.9834	-0.532
Mof_O 	O 	0.6806	0.9724	0.102	-0.514
Mof_O 	O 	0.6399	0.1861	0.8838	-0.538
Mof_O 	O 	0.6782	0.2697	0.9446	-0.561
Mof_N 	N 	0.6704	0.1159	0.0068	-0.183
Mof_C 	C 	0.6681	0.0113	0.051	0.414
Mof_C 	C 	0.6864	0.0772	0.0654	-0.095
Mof_C 	C 	0.7188	0.0964	0.1329	0.021
Mof_H 	H 	0.7284	0.0688	0.1742	0.008
Mof_C 	C 	0.7369	0.1567	0.1386	-0.119
Mof_H 	H 	0.76	0.1702	0.1828	0.046
Mof_C 	C 	0.7203	0.1965	0.0781	0.033
Mof_H 	H 	0.7315	0.2377	0.0811	-0.007
Mof_C 	C 	0.6872	0.1756	0.0132	-0.118
Mof_C 	C 	0.668	0.214	0.9436	0.409
Mof_Eu	Eu	0.11413	0.57908	0.38126	1.734
Mof_O 	O 	0.1399	0.5017	0.4834	-0.532
Mof_O 	O 	0.1806	0.4724	0.602	-0.514
Mof_O 	O 	0.1399	0.6861	0.3838	-0.538
Mof_O 	O 	0.1782	0.7697	0.4446	-0.561
Mof_N 	N 	0.1704	0.6159	0.5068	-0.183
Mof_C 	C 	0.1681	0.5113	0.551	0.415
Mof_C 	C 	0.1864	0.5772	0.5654	-0.095
Mof_C 	C 	0.2188	0.5964	0.6329	0.021
Mof_H 	H 	0.2284	0.5688	0.6742	0.008
Mof_C 	C 	0.2369	0.6567	0.6386	-0.119
Mof_H 	H 	0.26	0.6702	0.6828	0.046
Mof_C 	C 	0.2203	0.6965	0.5781	0.033
Mof_H 	H 	0.2315	0.7377	0.5811	-0.007
Mof_C 	C 	0.1872	0.6756	0.5132	-0.117
Mof_C 	C 	0.168	0.714	0.4436	0.409
_end
