data_functionalizedCrystal
_audit_creation_method	'EQeq! by Chris Wilmer'
_symmetry_space_group_name_H-M	'P1'
_symmetry_Int_Tables_number	1
_symmetry_cell_setting	triclinic
loop_
_symmetry_equiv_pos_as_xyz
  x,y,z
_cell_length_a	11.507
_cell_length_b	20.988
_cell_length_c	8.821
_cell_angle_alpha	90
_cell_angle_beta	102.307
_cell_angle_gamma	90
loop_
_atom_site_label
_atom_site_type_symbol
_atom_site_fract_x
_atom_site_fract_y
_atom_site_fract_z
_atom_site_charge
Mof_La	La	0.16799	0.26218	0.11443	2.056
Mof_O 	O 	0.0553	0.21901	0.8587	-0.591
Mof_O 	O 	0.9478	0.2069	0.6222	-0.443
Mof_O 	O 	0.3828	0.1997	0.6076	-0.483
Mof_O 	O 	0.2909	0.23452	0.3789	-0.628
Mof_O 	O 	0.1042	0.35419	0.9333	-0.521
Mof_O 	O 	0.0681	0.33934	0.6776	-0.526
Mof_N 	N 	0.7429	0.187	0.721	-0.082
Mof_N 	N 	0.5941	0.1849	0.5275	-0.084
Mof_N 	N 	0.0007	0.4712	0.8998	-0.113
Mof_C 	C 	0.957	0.2109	0.764	0.447
Mof_C 	C 	0.847	0.2084	0.8331	-0.274
Mof_H 	H 	0.8315	0.2513	0.8709	0.122
Mof_H 	H 	0.8617	0.1791	0.9231	0.112
Mof_C 	C 	0.7118	0.1238	0.695	-0.005
Mof_H 	H 	0.7489	0.088	0.7512	0.027
Mof_C 	C 	0.618	0.1232	0.5736	0.001
Mof_H 	H 	0.5761	0.0865	0.5284	0.025
Mof_C 	C 	0.671	0.2214	0.6189	0.075
Mof_H 	H 	0.6739	0.2665	0.6118	0.009
Mof_C 	C 	0.4937	0.2066	0.4077	-0.277
Mof_H 	H 	0.5137	0.2481	0.3663	0.11
Mof_H 	H 	0.4791	0.1755	0.3212	0.09
Mof_C 	C 	0.3822	0.2136	0.471	0.45
Mof_C 	C 	0.0651	0.3699	0.7984	0.52
Mof_C 	C 	0.0126	0.4362	0.7699	-0.268
Mof_H 	H 	0.9329	0.4323	0.7008	0.105
Mof_H 	H 	0.0629	0.461	0.7132	0.101
Mof_C 	C 	0.101	0.5112	0.911	-0.024
Mof_C 	C 	0.889	0.4565	0.958	-0.054
Mof_C 	C 	0.043	0.5148	0.993	0.121
Mof_La	La	0.83201	0.76218	0.38557	2.07
Mof_O 	O 	0.9447	0.71901	0.6413	-0.601
Mof_O 	O 	0.0522	0.7069	0.8778	-0.443
Mof_O 	O 	0.6172	0.6997	0.8924	-0.487
Mof_O 	O 	0.7091	0.73452	0.1211	-0.629
Mof_O 	O 	0.8958	0.85419	0.5667	-0.526
Mof_O 	O 	0.9319	0.83934	0.8224	-0.529
Mof_N 	N 	0.2571	0.687	0.779	-0.081
Mof_N 	N 	0.4059	0.6849	0.9725	-0.084
Mof_N 	N 	0.9993	0.9712	0.6002	-0.108
Mof_C 	C 	0.043	0.7109	0.736	0.456
Mof_C 	C 	0.153	0.7084	0.6669	-0.278
Mof_H 	H 	0.1685	0.7513	0.6291	0.123
Mof_H 	H 	0.1383	0.6791	0.5769	0.113
Mof_C 	C 	0.2882	0.6238	0.805	-0.005
Mof_H 	H 	0.2511	0.588	0.7488	0.027
Mof_C 	C 	0.382	0.6232	0.9264	0.001
Mof_H 	H 	0.4239	0.5865	0.9716	0.025
Mof_C 	C 	0.329	0.7214	0.8811	0.075
Mof_H 	H 	0.3261	0.7665	0.8882	0.009
Mof_C 	C 	0.5063	0.7066	0.0923	-0.278
Mof_H 	H 	0.4863	0.7481	0.1337	0.11
Mof_H 	H 	0.5209	0.6755	0.1788	0.091
Mof_C 	C 	0.6178	0.7136	0.029	0.455
Mof_C 	C 	0.9349	0.8699	0.7016	0.524
Mof_C 	C 	0.9874	0.9362	0.7301	-0.283
Mof_H 	H 	0.0671	0.9323	0.7992	0.112
Mof_H 	H 	0.9371	0.961	0.7868	0.105
Mof_C 	C 	0.899	0.0112	0.589	-0.027
Mof_C 	C 	0.111	0.9565	0.542	-0.041
Mof_C 	C 	0.957	0.0148	0.507	0.109
Mof_La	La	0.83201	0.73782	0.88557	2.055
Mof_O 	O 	0.9447	0.78099	0.1413	-0.592
Mof_O 	O 	0.0522	0.7931	0.3778	-0.444
Mof_O 	O 	0.6172	0.8003	0.3924	-0.484
Mof_O 	O 	0.7091	0.76548	0.6211	-0.629
Mof_O 	O 	0.8958	0.64581	0.0667	-0.522
Mof_O 	O 	0.9319	0.66066	0.3224	-0.526
Mof_N 	N 	0.2571	0.813	0.279	-0.082
Mof_N 	N 	0.4059	0.8151	0.4725	-0.084
Mof_N 	N 	0.9993	0.5288	0.1002	-0.113
Mof_C 	C 	0.043	0.7891	0.236	0.447
Mof_C 	C 	0.153	0.7916	0.1669	-0.274
Mof_H 	H 	0.1685	0.7487	0.1291	0.122
Mof_H 	H 	0.1383	0.8209	0.0769	0.112
Mof_C 	C 	0.2882	0.8762	0.305	-0.005
Mof_H 	H 	0.2511	0.912	0.2488	0.027
Mof_C 	C 	0.382	0.8768	0.4264	0.001
Mof_H 	H 	0.4239	0.9135	0.4716	0.025
Mof_C 	C 	0.329	0.7786	0.3811	0.075
Mof_H 	H 	0.3261	0.7335	0.3882	0.009
Mof_C 	C 	0.5063	0.7934	0.5923	-0.277
Mof_H 	H 	0.4863	0.7519	0.6337	0.11
Mof_H 	H 	0.5209	0.8245	0.6788	0.09
Mof_C 	C 	0.6178	0.7864	0.529	0.45
Mof_C 	C 	0.9349	0.6301	0.2016	0.52
Mof_C 	C 	0.9874	0.5638	0.2301	-0.268
Mof_H 	H 	0.0671	0.5677	0.2992	0.105
Mof_H 	H 	0.9371	0.539	0.2868	0.101
Mof_C 	C 	0.899	0.4888	0.089	-0.024
Mof_C 	C 	0.111	0.5435	0.042	-0.054
Mof_C 	C 	0.957	0.4852	0.007	0.121
Mof_La	La	0.16799	0.23782	0.61443	2.07
Mof_O 	O 	0.0553	0.28099	0.3587	-0.601
Mof_O 	O 	0.9478	0.2931	0.1222	-0.443
Mof_O 	O 	0.3828	0.3003	0.1076	-0.487
Mof_O 	O 	0.2909	0.26548	0.8789	-0.629
Mof_O 	O 	0.1042	0.14581	0.4333	-0.526
Mof_O 	O 	0.0681	0.16066	0.1776	-0.529
Mof_N 	N 	0.7429	0.313	0.221	-0.081
Mof_N 	N 	0.5941	0.3151	0.0275	-0.084
Mof_N 	N 	0.0007	0.0288	0.3998	-0.108
Mof_C 	C 	0.957	0.2891	0.264	0.456
Mof_C 	C 	0.847	0.2916	0.3331	-0.278
Mof_H 	H 	0.8315	0.2487	0.3709	0.123
Mof_H 	H 	0.8617	0.3209	0.4231	0.113
Mof_C 	C 	0.7118	0.3762	0.195	-0.005
Mof_H 	H 	0.7489	0.412	0.2512	0.027
Mof_C 	C 	0.618	0.3768	0.0736	0.001
Mof_H 	H 	0.5761	0.4135	0.0284	0.025
Mof_C 	C 	0.671	0.2786	0.1189	0.075
Mof_H 	H 	0.6739	0.2335	0.1118	0.009
Mof_C 	C 	0.4937	0.2934	0.9077	-0.278
Mof_H 	H 	0.5137	0.2519	0.8663	0.11
Mof_H 	H 	0.4791	0.3245	0.8212	0.091
Mof_C 	C 	0.3822	0.2864	0.971	0.455
Mof_C 	C 	0.0651	0.1301	0.2984	0.524
Mof_C 	C 	0.0126	0.0638	0.2699	-0.283
Mof_H 	H 	0.9329	0.0677	0.2008	0.112
Mof_H 	H 	0.0629	0.039	0.2132	0.105
Mof_C 	C 	0.101	0.9888	0.411	-0.027
Mof_C 	C 	0.889	0.0435	0.458	-0.041
Mof_C 	C 	0.043	0.9852	0.493	0.109
_end
