data_functionalizedCrystal
_audit_creation_method	'EQeq! by Chris Wilmer'
_symmetry_space_group_name_H-M	'P1'
_symmetry_Int_Tables_number	1
_symmetry_cell_setting	triclinic
loop_
_symmetry_equiv_pos_as_xyz
  x,y,z
_cell_length_a	9.615
_cell_length_b	21.122
_cell_length_c	13.152
_cell_angle_alpha	90
_cell_angle_beta	91.126
_cell_angle_gamma	90
loop_
_atom_site_label
_atom_site_type_symbol
_atom_site_fract_x
_atom_site_fract_y
_atom_site_fract_z
_atom_site_charge
Mof_Cd	Cd	0.89741	0.08969	0.22756	0.434
Mof_C 	C 	0.9586	0.2666	0.7892	0.059
Mof_H 	H 	0.9977	0.2676	0.7251	0.042
Mof_C 	C 	0.9606	0.21	0.8429	-0.068
Mof_H 	H 	0.9974	0.1737	0.814	0.088
Mof_C 	C 	0.9079	0.2083	0.9385	-0.019
Mof_C 	C 	0.8548	0.2627	0.9771	-0.044
Mof_H 	H 	0.8209	0.2634	0.0428	0.056
Mof_C 	C 	0.8513	0.3173	0.9181	0.046
Mof_H 	H 	0.8111	0.3536	0.9446	0.023
Mof_C 	C 	0.9085	0.1478	0.999	0.323
Mof_C 	C 	0.5938	0.0798	0.1208	0.057
Mof_H 	H 	0.6537	0.0739	0.0669	0.025
Mof_C 	C 	0.4545	0.0722	0.1037	-0.076
Mof_H 	H 	0.4215	0.0595	0.04	0.074
Mof_C 	C 	0.3621	0.0834	0.181	-0.024
Mof_C 	C 	0.4187	0.1009	0.274	-0.075
Mof_H 	H 	0.3608	0.1091	0.3283	0.07
Mof_C 	C 	0.5594	0.1061	0.2865	0.054
Mof_H 	H 	0.5954	0.1176	0.35	0.016
Mof_C 	C 	0.2075	0.0733	0.1656	0.331
Mof_N 	N 	0.903	0.3197	0.8258	-0.134
Mof_N 	N 	0.6477	0.0952	0.2112	-0.14
Mof_N 	N 	0.8754	0.9963	0.1431	-0.091
Mof_N 	N 	0.8018	0.9541	0.1637	-0.025
Mof_N 	N 	0.7363	0.9119	0.186	-0.052
Mof_O 	O 	0.912	0.0969	0.9503	-0.255
Mof_O 	O 	0.8973	0.1545	0.0927	-0.289
Mof_O 	O 	0.1733	0.0512	0.0829	-0.301
Mof_O 	O 	0.1322	0.0884	0.2362	-0.314
Mof_Cd	Cd	0.10259	0.58969	0.27244	0.403
Mof_C 	C 	0.0414	0.7666	0.7108	0.057
Mof_H 	H 	0.0023	0.7676	0.7749	0.028
Mof_C 	C 	0.0394	0.71	0.6571	-0.084
Mof_H 	H 	0.0026	0.6737	0.686	0.078
Mof_C 	C 	0.0921	0.7083	0.5615	-0.007
Mof_C 	C 	0.1452	0.7627	0.5229	-0.084
Mof_H 	H 	0.1791	0.7634	0.4572	0.077
Mof_C 	C 	0.1487	0.8173	0.5819	0.058
Mof_H 	H 	0.1889	0.8536	0.5554	0.013
Mof_C 	C 	0.0915	0.6478	0.501	0.297
Mof_C 	C 	0.4062	0.5798	0.3792	0.065
Mof_H 	H 	0.3463	0.5739	0.4331	0.03
Mof_C 	C 	0.5455	0.5722	0.3963	-0.081
Mof_H 	H 	0.5785	0.5595	0.46	0.086
Mof_C 	C 	0.6379	0.5834	0.319	-0.007
Mof_C 	C 	0.5813	0.6009	0.226	-0.082
Mof_H 	H 	0.6392	0.6091	0.1717	0.081
Mof_C 	C 	0.4406	0.6061	0.2135	0.062
Mof_H 	H 	0.4046	0.6176	0.15	0.014
Mof_C 	C 	0.7925	0.5733	0.3344	0.324
Mof_N 	N 	0.097	0.8197	0.6742	-0.144
Mof_N 	N 	0.3523	0.5952	0.2888	-0.14
Mof_N 	N 	0.1246	0.4963	0.3569	-0.118
Mof_N 	N 	0.1982	0.4541	0.3363	-0.035
Mof_N 	N 	0.2637	0.4119	0.314	-0.069
Mof_O 	O 	0.088	0.5969	0.5497	-0.272
Mof_O 	O 	0.1027	0.6545	0.4073	-0.284
Mof_O 	O 	0.8267	0.5512	0.4171	-0.269
Mof_O 	O 	0.8678	0.5884	0.2638	-0.27
Mof_Cd	Cd	0.10259	0.91031	0.77244	0.413
Mof_C 	C 	0.0414	0.7334	0.2108	0.066
Mof_H 	H 	0.0023	0.7324	0.2749	0.024
Mof_C 	C 	0.0394	0.79	0.1571	-0.101
Mof_H 	H 	0.0026	0.8263	0.186	0.083
Mof_C 	C 	0.0921	0.7917	0.0615	0.017
Mof_C 	C 	0.1452	0.7373	0.0229	-0.13
Mof_H 	H 	0.1791	0.7366	0.9572	0.101
Mof_C 	C 	0.1487	0.6827	0.0819	0.079
Mof_H 	H 	0.1889	0.6464	0.0554	0
Mof_C 	C 	0.0915	0.8522	0.001	0.271
Mof_C 	C 	0.4062	0.9202	0.8792	0.07
Mof_H 	H 	0.3463	0.9261	0.9331	0.036
Mof_C 	C 	0.5455	0.9278	0.8963	-0.082
Mof_H 	H 	0.5785	0.9405	0.96	0.093
Mof_C 	C 	0.6379	0.9166	0.819	-0
Mof_C 	C 	0.5813	0.8991	0.726	-0.083
Mof_H 	H 	0.6392	0.8909	0.6717	0.085
Mof_C 	C 	0.4406	0.8939	0.7135	0.066
Mof_H 	H 	0.4046	0.8824	0.65	0.016
Mof_C 	C 	0.7925	0.9267	0.8344	0.321
Mof_N 	N 	0.097	0.6803	0.1742	-0.15
Mof_N 	N 	0.3523	0.9048	0.7888	-0.139
Mof_N 	N 	0.1246	0.0037	0.8569	-0.12
Mof_N 	N 	0.1982	0.0459	0.8363	-0.035
Mof_N 	N 	0.2637	0.0881	0.814	-0.068
Mof_O 	O 	0.088	0.9031	0.0497	-0.262
Mof_O 	O 	0.1027	0.8455	0.9073	-0.269
Mof_O 	O 	0.8267	0.9488	0.9171	-0.255
Mof_O 	O 	0.8678	0.9116	0.7638	-0.265
Mof_Cd	Cd	0.89741	0.41031	0.72756	0.441
Mof_C 	C 	0.9586	0.2334	0.2892	0.067
Mof_H 	H 	0.9977	0.2324	0.2251	0.037
Mof_C 	C 	0.9606	0.29	0.3429	-0.085
Mof_H 	H 	0.9974	0.3263	0.314	0.093
Mof_C 	C 	0.9079	0.2917	0.4385	0.003
Mof_C 	C 	0.8548	0.2373	0.4771	-0.086
Mof_H 	H 	0.8209	0.2366	0.5428	0.078
Mof_C 	C 	0.8513	0.1827	0.4181	0.065
Mof_H 	H 	0.8111	0.1464	0.4446	0.012
Mof_C 	C 	0.9085	0.3522	0.499	0.3
Mof_C 	C 	0.5938	0.4202	0.6208	0.061
Mof_H 	H 	0.6537	0.4261	0.5669	0.031
Mof_C 	C 	0.4545	0.4278	0.6037	-0.076
Mof_H 	H 	0.4215	0.4405	0.54	0.081
Mof_C 	C 	0.3621	0.4166	0.681	-0.019
Mof_C 	C 	0.4187	0.3991	0.774	-0.076
Mof_H 	H 	0.3608	0.3909	0.8283	0.074
Mof_C 	C 	0.5594	0.3939	0.7865	0.058
Mof_H 	H 	0.5954	0.3824	0.85	0.018
Mof_C 	C 	0.2075	0.4267	0.6656	0.331
Mof_N 	N 	0.903	0.1803	0.3258	-0.14
Mof_N 	N 	0.6477	0.4048	0.7112	-0.139
Mof_N 	N 	0.8754	0.5037	0.6431	-0.1
Mof_N 	N 	0.8018	0.5459	0.6637	-0.026
Mof_N 	N 	0.7363	0.5881	0.686	-0.052
Mof_O 	O 	0.912	0.4031	0.4503	-0.254
Mof_O 	O 	0.8973	0.3455	0.5927	-0.276
Mof_O 	O 	0.1733	0.4488	0.5829	-0.295
Mof_O 	O 	0.1322	0.4116	0.7362	-0.309
Mof_Cd	Cd	-0	0	-0	0.427
Mof_Cd	Cd	2.61472e-33	0.5	0.5	0.456
_end
