data_functionalizedCrystal
_audit_creation_method	'EQeq! by Chris Wilmer'
_symmetry_space_group_name_H-M	'P1'
_symmetry_Int_Tables_number	1
_symmetry_cell_setting	triclinic
loop_
_symmetry_equiv_pos_as_xyz
  x,y,z
_cell_length_a	9.118
_cell_length_b	9.161
_cell_length_c	9.335
_cell_angle_alpha	85.98
_cell_angle_beta	77.45
_cell_angle_gamma	89.01
loop_
_atom_site_label
_atom_site_type_symbol
_atom_site_fract_x
_atom_site_fract_y
_atom_site_fract_z
_atom_site_charge
Mof_P 	P 	0.3812	0.1856	0.9004	1.946
Mof_P 	P 	0.83	0.3545	0.8567	1.492
Mof_P 	P 	0.6276	0.3793	0.3238	1.846
Mof_F 	F 	0.9871	0.3924	0.0822	-2.164
Mof_O 	O 	0.7744	0.2022	0.9276	-2.032
Mof_O 	O 	0.4575	0.1884	0.0306	-2.245
Mof_O 	O 	0.3529	0.0269	0.8735	-2.094
Mof_O 	O 	0.4868	0.2494	0.7611	-2.288
Mof_O 	O 	0.2339	0.2648	0.9306	-1.754
Mof_O 	O 	0.7647	0.4692	0.9622	-1.788
Mof_O 	O 	0.7749	0.3784	0.7121	-2.066
Mof_O 	O 	0.0011	0.3554	0.8119	-1.473
Mof_O 	O 	0.746	0.4919	0.2583	-1.855
Mof_O 	O 	0.6476	0.3246	0.4769	-2.101
Mof_O 	O 	0.6373	0.2449	0.2348	-2.124
Mof_O 	O 	0.4707	0.4469	0.3387	-2.275
Mof_Al	Al	0.6296	0.1572	0.0791	7.054
Mof_Al	Al	0.1345	0.4377	0.9148	6.63
Mof_Al	Al	0.6062	0.3786	0.656	7.291
Mof_P 	P 	0.6188	0.8144	0.0996	1.946
Mof_P 	P 	0.17	0.6455	0.1433	1.492
Mof_P 	P 	0.3724	0.6207	0.6762	1.846
Mof_F 	F 	0.0129	0.6076	0.9178	-2.164
Mof_O 	O 	0.2256	0.7978	0.0724	-2.032
Mof_O 	O 	0.5425	0.8116	0.9694	-2.245
Mof_O 	O 	0.6471	0.9731	0.1265	-2.094
Mof_O 	O 	0.5132	0.7506	0.2389	-2.288
Mof_O 	O 	0.7661	0.7352	0.0694	-1.754
Mof_O 	O 	0.2353	0.5308	0.0378	-1.788
Mof_O 	O 	0.2251	0.6216	0.2879	-2.066
Mof_O 	O 	0.9989	0.6446	0.1881	-1.473
Mof_O 	O 	0.254	0.5081	0.7417	-1.855
Mof_O 	O 	0.3524	0.6754	0.5231	-2.101
Mof_O 	O 	0.3627	0.7551	0.7652	-2.124
Mof_O 	O 	0.5293	0.5531	0.6613	-2.275
Mof_Al	Al	0.3704	0.8428	0.9209	7.054
Mof_Al	Al	0.8655	0.5623	0.0852	6.63
Mof_Al	Al	0.3938	0.6214	0.344	7.291
_end
