data_functionalizedCrystal
_audit_creation_method	'EQeq! by Chris Wilmer'
_symmetry_space_group_name_H-M	'P1'
_symmetry_Int_Tables_number	1
_symmetry_cell_setting	triclinic
loop_
_symmetry_equiv_pos_as_xyz
  x,y,z
_cell_length_a	8.276
_cell_length_b	14.36
_cell_length_c	14.75
_cell_angle_alpha	90
_cell_angle_beta	90
_cell_angle_gamma	99.746
loop_
_atom_site_label
_atom_site_type_symbol
_atom_site_fract_x
_atom_site_fract_y
_atom_site_fract_z
_atom_site_charge
Mof_Co	Co	0.90725	0.12009	0.08239	1.153
Mof_Co	Co	0.59275	0.87991	0.58239	1.155
Mof_Co	Co	0.09275	0.87991	0.91761	1.152
Mof_Co	Co	0.40725	0.12009	0.41761	1.154
Mof_H 	H 	0.4934	0.8395	0.3018	-0.021
Mof_H 	H 	0.6525	0.9249	0.0565	-0.004
Mof_H 	H 	0.5039	0.7649	0.0757	-0.135
Mof_H 	H 	0.3489	0.8018	0.1121	-0.126
Mof_H 	H 	0.3522	0.7143	0.2381	0.352
Mof_H 	H 	0.3449	0.6505	0.1514	0.352
Mof_H 	H 	0.5106	0.6789	0.2039	0.349
Mof_H 	H 	0.2523	0.2101	0.1063	0.01
Mof_H 	H 	0.4405	0.3409	0.0767	0.098
Mof_H 	H 	0.1098	0.4376	0.9261	0.082
Mof_H 	H 	0.9261	0.3068	0.9619	-0.028
Mof_H 	H 	0.369	0.5515	0.9996	0.062
Mof_H 	H 	0.4291	0.5035	0.9133	0.063
Mof_H 	H 	0.0066	0.1605	0.8018	-0.024
Mof_H 	H 	0.8475	0.0751	0.5565	-0.004
Mof_H 	H 	0.9961	0.2351	0.5757	-0.142
Mof_H 	H 	0.1511	0.1982	0.6121	-0.133
Mof_H 	H 	0.1478	0.2857	0.7381	0.361
Mof_H 	H 	0.1551	0.3495	0.6514	0.36
Mof_H 	H 	0.9894	0.3211	0.7039	0.358
Mof_H 	H 	0.2477	0.7899	0.6063	0.01
Mof_H 	H 	0.0595	0.6591	0.5767	0.097
Mof_H 	H 	0.3902	0.5624	0.4261	0.084
Mof_H 	H 	0.5739	0.6932	0.4619	-0.033
Mof_H 	H 	0.131	0.4485	0.4996	0.063
Mof_H 	H 	0.0709	0.4965	0.4133	0.063
Mof_H 	H 	0.5066	0.1605	0.6982	-0.021
Mof_H 	H 	0.3475	0.0751	0.9435	-0.004
Mof_H 	H 	0.4961	0.2351	0.9243	-0.135
Mof_H 	H 	0.6511	0.1982	0.8879	-0.126
Mof_H 	H 	0.6478	0.2857	0.7619	0.352
Mof_H 	H 	0.6551	0.3495	0.8486	0.352
Mof_H 	H 	0.4894	0.3211	0.7961	0.349
Mof_H 	H 	0.7477	0.7899	0.8937	0.01
Mof_H 	H 	0.5595	0.6591	0.9233	0.098
Mof_H 	H 	0.8902	0.5624	0.0739	0.082
Mof_H 	H 	0.0739	0.6932	0.0381	-0.028
Mof_H 	H 	0.631	0.4485	0.0004	0.062
Mof_H 	H 	0.5709	0.4965	0.0867	0.063
Mof_H 	H 	0.9934	0.8395	0.1982	-0.024
Mof_H 	H 	0.1525	0.9249	0.4435	-0.004
Mof_H 	H 	0.0039	0.7649	0.4243	-0.142
Mof_H 	H 	0.8489	0.8018	0.3879	-0.133
Mof_H 	H 	0.8522	0.7143	0.2619	0.361
Mof_H 	H 	0.8449	0.6505	0.3486	0.36
Mof_H 	H 	0.0106	0.6789	0.2961	0.358
Mof_H 	H 	0.7523	0.2101	0.3937	0.01
Mof_H 	H 	0.9405	0.3409	0.4233	0.097
Mof_H 	H 	0.6098	0.4376	0.5739	0.084
Mof_H 	H 	0.4261	0.3068	0.5381	-0.033
Mof_H 	H 	0.869	0.5515	0.5004	0.063
Mof_H 	H 	0.9291	0.5035	0.5867	0.063
Mof_C 	C 	0.7644	0.0192	0.2449	0.023
Mof_C 	C 	0.6634	0.9595	0.3026	-0.144
Mof_C 	C 	0.5611	0.8814	0.2644	0.123
Mof_C 	C 	0.5599	0.8661	0.1731	-0.235
Mof_C 	C 	0.6585	0.9322	0.1191	0.135
Mof_C 	C 	0.8972	0.0985	0.2772	0.281
Mof_C 	C 	0.6484	0.9759	0.4042	0.429
Mof_C 	C 	0.4506	0.7821	0.1303	0.543
Mof_C 	C 	0.4114	0.6997	0.1854	-1.124
Mof_C 	C 	0.2218	0.257	0.0697	0.107
Mof_C 	C 	0.3358	0.3361	0.0523	-0.198
Mof_C 	C 	0.2996	0.4066	0.001	0.14
Mof_C 	C 	0.1409	0.3924	0.9646	-0.21
Mof_C 	C 	0.0319	0.313	0.9852	0.102
Mof_C 	C 	0.4165	0.4981	0.9786	-0.169
Mof_C 	C 	0.7356	0.9808	0.7449	0.028
Mof_C 	C 	0.8366	0.0405	0.8026	-0.149
Mof_C 	C 	0.9389	0.1186	0.7644	0.13
Mof_C 	C 	0.9401	0.1339	0.6731	-0.244
Mof_C 	C 	0.8415	0.0678	0.6191	0.137
Mof_C 	C 	0.6028	0.9015	0.7772	0.28
Mof_C 	C 	0.8516	0.0241	0.9042	0.427
Mof_C 	C 	0.0494	0.2179	0.6303	0.565
Mof_C 	C 	0.0886	0.3003	0.6854	-1.152
Mof_C 	C 	0.2782	0.743	0.5697	0.107
Mof_C 	C 	0.1642	0.6639	0.5523	-0.198
Mof_C 	C 	0.2004	0.5934	0.501	0.138
Mof_C 	C 	0.3591	0.6076	0.4646	-0.211
Mof_C 	C 	0.4681	0.687	0.4852	0.112
Mof_C 	C 	0.0835	0.5019	0.4786	-0.169
Mof_C 	C 	0.2356	0.9808	0.7551	0.023
Mof_C 	C 	0.3366	0.0405	0.6974	-0.144
Mof_C 	C 	0.4389	0.1186	0.7356	0.123
Mof_C 	C 	0.4401	0.1339	0.8269	-0.235
Mof_C 	C 	0.3415	0.0678	0.8809	0.135
Mof_C 	C 	0.1028	0.9015	0.7228	0.281
Mof_C 	C 	0.3516	0.0241	0.5958	0.429
Mof_C 	C 	0.5494	0.2179	0.8697	0.543
Mof_C 	C 	0.5886	0.3003	0.8146	-1.124
Mof_C 	C 	0.7782	0.743	0.9303	0.107
Mof_C 	C 	0.6642	0.6639	0.9477	-0.198
Mof_C 	C 	0.7004	0.5934	0.999	0.14
Mof_C 	C 	0.8591	0.6076	0.0354	-0.21
Mof_C 	C 	0.9681	0.687	0.0148	0.102
Mof_C 	C 	0.5835	0.5019	0.0214	-0.169
Mof_C 	C 	0.2644	0.0192	0.2551	0.028
Mof_C 	C 	0.1634	0.9595	0.1974	-0.149
Mof_C 	C 	0.0611	0.8814	0.2356	0.13
Mof_C 	C 	0.0599	0.8661	0.3269	-0.244
Mof_C 	C 	0.1585	0.9322	0.3809	0.137
Mof_C 	C 	0.3972	0.0985	0.2228	0.28
Mof_C 	C 	0.1484	0.9759	0.0958	0.427
Mof_C 	C 	0.9506	0.7821	0.3697	0.565
Mof_C 	C 	0.9114	0.6997	0.3146	-1.152
Mof_C 	C 	0.7218	0.257	0.4303	0.107
Mof_C 	C 	0.8358	0.3361	0.4477	-0.198
Mof_C 	C 	0.7996	0.4066	0.499	0.138
Mof_C 	C 	0.6409	0.3924	0.5354	-0.211
Mof_C 	C 	0.5319	0.313	0.5148	0.112
Mof_C 	C 	0.9165	0.4981	0.5214	-0.169
Mof_N 	N 	0.7623	0.0064	0.1532	-0.233
Mof_N 	N 	0.0698	0.244	0.0369	-0.24
Mof_N 	N 	0.7377	0.9936	0.6532	-0.232
Mof_N 	N 	0.4302	0.756	0.5369	-0.244
Mof_N 	N 	0.2377	0.9936	0.8468	-0.233
Mof_N 	N 	0.9302	0.756	0.9631	-0.24
Mof_N 	N 	0.2623	0.0064	0.3468	-0.232
Mof_N 	N 	0.5698	0.244	0.4631	-0.244
Mof_O 	O 	0.959	0.1576	0.2171	-0.396
Mof_O 	O 	0.9349	0.0998	0.3578	-0.252
Mof_O 	O 	0.6066	0.0501	0.4294	-0.447
Mof_O 	O 	0.6735	0.909	0.4524	-0.447
Mof_O 	O 	0.541	0.8424	0.7171	-0.394
Mof_O 	O 	0.5651	0.9002	0.8578	-0.25
Mof_O 	O 	0.8934	0.9499	0.9294	-0.443
Mof_O 	O 	0.8265	0.091	0.9524	-0.447
Mof_O 	O 	0.041	0.8424	0.7829	-0.396
Mof_O 	O 	0.0651	0.9002	0.6422	-0.252
Mof_O 	O 	0.3934	0.9499	0.5706	-0.447
Mof_O 	O 	0.3265	0.091	0.5476	-0.447
Mof_O 	O 	0.459	0.1576	0.2829	-0.394
Mof_O 	O 	0.4349	0.0998	0.1422	-0.25
Mof_O 	O 	0.1066	0.0501	0.0706	-0.443
Mof_O 	O 	0.1735	0.909	0.0476	-0.447
_end
