data_functionalizedCrystal
_audit_creation_method	'EQeq! by Chris Wilmer'
_symmetry_space_group_name_H-M	'P1'
_symmetry_Int_Tables_number	1
_symmetry_cell_setting	triclinic
loop_
_symmetry_equiv_pos_as_xyz
  x,y,z
_cell_length_a	11.797
_cell_length_b	12.889
_cell_length_c	14.037
_cell_angle_alpha	66.065
_cell_angle_beta	78.731
_cell_angle_gamma	69.924
loop_
_atom_site_label
_atom_site_type_symbol
_atom_site_fract_x
_atom_site_fract_y
_atom_site_fract_z
_atom_site_charge
Mof_Th	Th	0.53975	0.55039	0.60113	0.039
Mof_P 	P 	0.7234	0.6557	0.7215	0.19
Mof_O 	O 	0.5308	0.3908	0.5662	-0.037
Mof_O 	O 	0.6658	0.5981	0.6786	-0.153
Mof_C 	C 	0.6671	0.8141	0.6641	0.003
Mof_C 	C 	0.883	0.6107	0.6927	0.004
Mof_C 	C 	0.5466	0.8704	0.6877	-0.059
Mof_H 	H 	0.4984	0.8261	0.7358	0.073
Mof_C 	C 	0.6814	0.4983	0.9147	-0.058
Mof_H 	H 	0.6992	0.4457	0.8804	0.074
Mof_C 	C 	0.6897	0.6132	0.8592	-0.002
Mof_C 	C 	0.7378	0.8793	0.5897	-0.058
Mof_H 	H 	0.8174	0.8416	0.5732	0.062
Mof_C 	C 	0.6642	0.6921	0.9099	-0.064
Mof_H 	H 	0.6715	0.7682	0.8735	0.059
Mof_C 	C 	0.962	0.6462	0.7249	-0.07
Mof_H 	H 	0.9333	0.6918	0.7664	0.059
Mof_C 	C 	0.928	0.5379	0.6375	-0.07
Mof_H 	H 	0.8769	0.507	0.6213	0.087
Mof_O 	O 	0.4167	0.245	0.5317	-0.18
Mof_O 	O 	0.592	0.2418	0.4425	-0.169
Mof_C 	C 	0.5217	0.1877	0.5103	0.271
Mof_C 	C 	0.5	0.9908	0.6396	-0.005
Mof_H 	H 	0.4209	0.029	0.6569	0.055
Mof_C 	C 	0.5712	0.0558	0.565	-0.047
Mof_C 	C 	0.6895	0.0007	0.5398	-0.008
Mof_H 	H 	0.7364	0.0448	0.4895	0.058
Mof_C 	C 	0.0508	0.5093	0.6049	0.003
Mof_H 	H 	0.0803	0.4612	0.5657	0.053
Mof_C 	C 	0.084	0.6135	0.695	0
Mof_H 	H 	0.1374	0.6343	0.7197	0.058
Mof_C 	C 	0.1275	0.5513	0.6301	-0.055
Mof_C 	C 	0.2569	0.5269	0.588	0.291
Mof_O 	O 	0.3263	0.5569	0.6221	-0.169
Mof_O 	O 	0.2825	0.487	0.5174	-0.183
Mof_O 	O 	0.5705	0.4023	0.2342	-0.19
Mof_O 	O 	0.5153	0.5888	0.2187	-0.183
Mof_C 	C 	0.616	0.5425	0.0699	-0.054
Mof_C 	C 	0.5669	0.507	0.1823	0.281
Mof_C 	C 	0.6473	0.462	0.0196	-0.006
Mof_H 	H 	0.6451	0.3843	0.0568	0.054
Mof_C 	C 	0.6272	0.6561	0.0163	-0.007
Mof_H 	H 	0.6102	0.7082	0.0511	0.056
Mof_Th	Th	0.46025	0.44961	0.39887	0.038
Mof_P 	P 	0.2766	0.3443	0.2785	0.189
Mof_O 	O 	0.4692	0.6092	0.4338	-0.038
Mof_O 	O 	0.3342	0.4019	0.3214	-0.154
Mof_C 	C 	0.3329	0.1859	0.3359	0.002
Mof_C 	C 	0.117	0.3893	0.3073	0.003
Mof_C 	C 	0.4534	0.1296	0.3123	-0.059
Mof_H 	H 	0.5016	0.1739	0.2642	0.073
Mof_C 	C 	0.3186	0.5017	0.0853	-0.058
Mof_H 	H 	0.3008	0.5543	0.1196	0.074
Mof_C 	C 	0.3103	0.3868	0.1408	-0.002
Mof_C 	C 	0.2622	0.1207	0.4103	-0.058
Mof_H 	H 	0.1826	0.1584	0.4268	0.062
Mof_C 	C 	0.3358	0.3079	0.0901	-0.064
Mof_H 	H 	0.3285	0.2318	0.1265	0.059
Mof_C 	C 	0.038	0.3538	0.2751	-0.07
Mof_H 	H 	0.0667	0.3082	0.2336	0.059
Mof_C 	C 	0.072	0.4621	0.3625	-0.07
Mof_H 	H 	0.1231	0.493	0.3787	0.087
Mof_O 	O 	0.5833	0.755	0.4683	-0.18
Mof_O 	O 	0.408	0.7582	0.5575	-0.169
Mof_C 	C 	0.4783	0.8123	0.4897	0.271
Mof_C 	C 	0.5	0.0092	0.3604	-0.005
Mof_H 	H 	0.5791	0.971	0.3431	0.055
Mof_C 	C 	0.4288	0.9442	0.435	-0.047
Mof_C 	C 	0.3105	0.9993	0.4602	-0.008
Mof_H 	H 	0.2636	0.9552	0.5105	0.058
Mof_C 	C 	0.9492	0.4907	0.3951	0.003
Mof_H 	H 	0.9197	0.5388	0.4343	0.053
Mof_C 	C 	0.916	0.3865	0.305	0
Mof_H 	H 	0.8626	0.3657	0.2803	0.058
Mof_C 	C 	0.8725	0.4487	0.3699	-0.055
Mof_C 	C 	0.7431	0.4731	0.412	0.291
Mof_O 	O 	0.6737	0.4431	0.3779	-0.169
Mof_O 	O 	0.7175	0.513	0.4826	-0.183
Mof_O 	O 	0.4295	0.5977	0.7658	-0.19
Mof_O 	O 	0.4847	0.4112	0.7813	-0.183
Mof_C 	C 	0.384	0.4575	0.9301	-0.054
Mof_C 	C 	0.4331	0.493	0.8177	0.281
Mof_C 	C 	0.3527	0.538	0.9804	-0.006
Mof_H 	H 	0.3549	0.6157	0.9432	0.054
Mof_C 	C 	0.3728	0.3439	0.9837	-0.007
Mof_H 	H 	0.3898	0.2918	0.9489	0.056
_end
