data_functionalizedCrystal
_audit_creation_method	'EQeq! by Chris Wilmer'
_symmetry_space_group_name_H-M	'P1'
_symmetry_Int_Tables_number	1
_symmetry_cell_setting	triclinic
loop_
_symmetry_equiv_pos_as_xyz
  x,y,z
_cell_length_a	8.0062
_cell_length_b	12.7171
_cell_length_c	12.7171
_cell_angle_alpha	106.16
_cell_angle_beta	102.608
_cell_angle_gamma	77.3925
loop_
_atom_site_label
_atom_site_type_symbol
_atom_site_fract_x
_atom_site_fract_y
_atom_site_fract_z
_atom_site_charge
Mof_Zn	Zn	0.96822	0.457	0.71394	1.186
Mof_Zn	Zn	0.53178	0.71394	0.457	1.186
Mof_Zn	Zn	0.03178	0.543	0.28606	1.187
Mof_Zn	Zn	0.46822	0.28606	0.543	1.187
Mof_H 	H 	0.7946	0.5546	0.0494	0.056
Mof_H 	H 	0.3337	0.7209	0.1323	0.085
Mof_H 	H 	0.4004	0.6368	0.814	0.078
Mof_H 	H 	0.0274	0.7271	0.0391	0.057
Mof_H 	H 	0.1145	0.834	0.0722	0.049
Mof_H 	H 	0.7258	0.7881	0.0093	0.06
Mof_H 	H 	0.4796	0.8792	0.9174	0.067
Mof_H 	H 	0.7054	0.0494	0.5546	0.056
Mof_H 	H 	0.1663	0.1323	0.7209	0.084
Mof_H 	H 	0.0996	0.814	0.6368	0.078
Mof_H 	H 	0.4726	0.0391	0.7271	0.056
Mof_H 	H 	0.3855	0.0722	0.834	0.047
Mof_H 	H 	0.7742	0.0093	0.7881	0.056
Mof_H 	H 	0.0204	0.9174	0.8792	0.069
Mof_H 	H 	0.2054	0.4454	0.9506	0.056
Mof_H 	H 	0.6663	0.2791	0.8677	0.085
Mof_H 	H 	0.5996	0.3632	0.186	0.078
Mof_H 	H 	0.9726	0.2729	0.9609	0.057
Mof_H 	H 	0.8855	0.166	0.9278	0.049
Mof_H 	H 	0.2742	0.2119	0.9907	0.06
Mof_H 	H 	0.5204	0.1208	0.0826	0.067
Mof_H 	H 	0.2946	0.9506	0.4454	0.056
Mof_H 	H 	0.8337	0.8677	0.2791	0.084
Mof_H 	H 	0.9004	0.186	0.3632	0.078
Mof_H 	H 	0.5274	0.9609	0.2729	0.056
Mof_H 	H 	0.6145	0.9278	0.166	0.047
Mof_H 	H 	0.2258	0.9907	0.2119	0.056
Mof_H 	H 	0.9796	0.0826	0.1208	0.069
Mof_C 	C 	0.7293	0.54628	0.83272	0.299
Mof_C 	C 	0.614	0.59096	0.91804	-0.033
Mof_C 	C 	0.6814	0.58903	0.02957	-0.017
Mof_C 	C 	0.5764	0.63942	0.10938	-0.067
Mof_C 	C 	0.639	0.64028	0.23012	0.406
Mof_C 	C 	0.4038	0.6875	0.0785	-0.11
Mof_C 	C 	0.3378	0.68554	0.96826	0.167
Mof_C 	C 	0.4445	0.63735	0.88805	-0.117
Mof_C 	C 	0.0578	0.7823	0.0105	-0.04
Mof_C 	C 	0.8992	0.8423	0.9523	0.049
Mof_C 	C 	0.7364	0.832	0.9642	-0.07
Mof_C 	C 	0.5886	0.8869	0.9091	-0.061
Mof_C 	C 	0.7707	0.83272	0.54628	0.298
Mof_C 	C 	0.886	0.91804	0.59096	-0.031
Mof_C 	C 	0.8186	0.02957	0.58903	-0.018
Mof_C 	C 	0.9236	0.10938	0.63942	-0.069
Mof_C 	C 	0.861	0.23012	0.64028	0.406
Mof_C 	C 	0.0962	0.0785	0.6875	-0.106
Mof_C 	C 	0.1622	0.96826	0.68554	0.166
Mof_C 	C 	0.0555	0.88805	0.63735	-0.117
Mof_C 	C 	0.4422	0.0105	0.7823	-0.035
Mof_C 	C 	0.6008	0.9523	0.8423	0.043
Mof_C 	C 	0.7636	0.9642	0.832	-0.062
Mof_C 	C 	0.9114	0.9091	0.8869	-0.067
Mof_C 	C 	0.2707	0.45372	0.16728	0.299
Mof_C 	C 	0.386	0.40904	0.08196	-0.033
Mof_C 	C 	0.3186	0.41097	0.97043	-0.017
Mof_C 	C 	0.4236	0.36058	0.89062	-0.067
Mof_C 	C 	0.361	0.35972	0.76988	0.406
Mof_C 	C 	0.5962	0.3125	0.9215	-0.11
Mof_C 	C 	0.6622	0.31446	0.03174	0.167
Mof_C 	C 	0.5555	0.36265	0.11195	-0.117
Mof_C 	C 	0.9422	0.2177	0.9895	-0.04
Mof_C 	C 	0.1008	0.1577	0.0477	0.049
Mof_C 	C 	0.2636	0.168	0.0358	-0.07
Mof_C 	C 	0.4114	0.1131	0.0909	-0.061
Mof_C 	C 	0.2293	0.16728	0.45372	0.298
Mof_C 	C 	0.114	0.08196	0.40904	-0.031
Mof_C 	C 	0.1814	0.97043	0.41097	-0.018
Mof_C 	C 	0.0764	0.89062	0.36058	-0.069
Mof_C 	C 	0.139	0.76988	0.35972	0.406
Mof_C 	C 	0.9038	0.9215	0.3125	-0.106
Mof_C 	C 	0.8378	0.03174	0.31446	0.166
Mof_C 	C 	0.9445	0.11195	0.36265	-0.117
Mof_C 	C 	0.5578	0.9895	0.2177	-0.035
Mof_C 	C 	0.3992	0.0477	0.1577	0.043
Mof_C 	C 	0.2364	0.0358	0.168	-0.062
Mof_C 	C 	0.0886	0.0909	0.1131	-0.067
Mof_O 	O 	0.8878	0.51463	0.86287	-0.422
Mof_O 	O 	0.6662	0.54177	0.73105	-0.414
Mof_O 	O 	0.7714	0.57366	0.2571	-0.516
Mof_O 	O 	0.5471	0.70539	0.29641	-0.468
Mof_O 	O 	0.171	0.7299	0.93052	-0.222
Mof_O 	O 	0.6122	0.86287	0.51463	-0.422
Mof_O 	O 	0.8338	0.73105	0.54177	-0.413
Mof_O 	O 	0.7286	0.2571	0.57366	-0.517
Mof_O 	O 	0.9529	0.29641	0.70539	-0.468
Mof_O 	O 	0.329	0.93052	0.7299	-0.223
Mof_O 	O 	0.1122	0.48537	0.13713	-0.422
Mof_O 	O 	0.3338	0.45823	0.26895	-0.414
Mof_O 	O 	0.2286	0.42634	0.7429	-0.516
Mof_O 	O 	0.4529	0.29461	0.70359	-0.468
Mof_O 	O 	0.829	0.2701	0.06948	-0.222
Mof_O 	O 	0.3878	0.13713	0.48537	-0.422
Mof_O 	O 	0.1662	0.26895	0.45823	-0.413
Mof_O 	O 	0.2714	0.7429	0.42634	-0.517
Mof_O 	O 	0.0471	0.70359	0.29461	-0.468
Mof_O 	O 	0.671	0.06948	0.2701	-0.223
_end
