data_functionalizedCrystal
_audit_creation_method	'EQeq! by Chris Wilmer'
_symmetry_space_group_name_H-M	'P1'
_symmetry_Int_Tables_number	1
_symmetry_cell_setting	triclinic
loop_
_symmetry_equiv_pos_as_xyz
  x,y,z
_cell_length_a	46.108
_cell_length_b	10.6758
_cell_length_c	23.633
_cell_angle_alpha	90
_cell_angle_beta	95.274
_cell_angle_gamma	90
loop_
_atom_site_label
_atom_site_type_symbol
_atom_site_fract_x
_atom_site_fract_y
_atom_site_fract_z
_atom_site_charge
Mof_C 	C 	0.18885	0.1003	0.04983	0.425
Mof_C 	C 	0.17083	0.2031	0.06756	-0.283
Mof_C 	C 	0.15268	0.1884	0.10967	0.232
Mof_H 	H 	0.1518	0.1107	0.1272	-0.032
Mof_C 	C 	0.13534	0.2867	0.12736	-0.365
Mof_H 	H 	0.1227	0.2749	0.1554	0.171
Mof_C 	C 	0.13783	0.3996	0.10173	0.376
Mof_C 	C 	0.15587	0.4162	0.06074	-0.392
Mof_H 	H 	0.1577	0.4952	0.0449	0.178
Mof_C 	C 	0.17157	0.3175	0.04211	0.26
Mof_H 	H 	0.1828	0.3288	0.0118	-0.042
Mof_C 	C 	0.10316	0.5631	0.08621	0.371
Mof_C 	C 	0.08891	0.5067	0.04055	-0.372
Mof_H 	H 	0.0938	0.4255	0.0307	0.17
Mof_C 	C 	0.06724	0.5701	0.00904	0.235
Mof_H 	H 	0.0572	0.5312	0.9779	-0.029
Mof_C 	C 	0.06007	0.6905	0.0229	-0.252
Mof_C 	C 	0.07514	0.7481	0.06745	0.222
Mof_H 	H 	0.0709	0.8307	0.0762	-0.041
Mof_C 	C 	0.09687	0.6838	0.1	-0.351
Mof_H 	H 	0.1071	0.7225	0.131	0.168
Mof_C 	C 	0.03459	0.7504	0.9905	0.367
Mof_C 	C 	0.28812	0.7131	0.15057	-0.212
Mof_C 	C 	0.30343	0.777	0.19379	0.172
Mof_H 	H 	0.2971	0.8561	0.2037	-0.009
Mof_C 	C 	0.32853	0.7263	0.22358	-0.296
Mof_H 	H 	0.3386	0.7708	0.253	0.148
Mof_C 	C 	0.33811	0.6082	0.20831	0.331
Mof_C 	C 	0.32362	0.5453	0.16506	-0.324
Mof_H 	H 	0.3302	0.4676	0.154	0.157
Mof_C 	C 	0.29854	0.5983	0.13697	0.187
Mof_H 	H 	0.2885	0.5533	0.1077	-0.013
Mof_C 	C 	0.38735	0.5504	0.2146	0.335
Mof_C 	C 	0.39313	0.6136	0.1671	-0.342
Mof_H 	H 	0.3785	0.6609	0.1477	0.16
Mof_C 	C 	0.42019	0.609	0.14714	0.195
Mof_H 	H 	0.4236	0.6549	0.115	-0.02
Mof_C 	C 	0.44241	0.5375	0.17389	-0.203
Mof_C 	C 	0.436	0.4697	0.22118	0.168
Mof_H 	H 	0.4502	0.4178	0.2391	-0.007
Mof_C 	C 	0.40873	0.477	0.24275	-0.302
Mof_H 	H 	0.4051	0.4332	0.2754	0.144
Mof_C 	C 	0.47215	0.5366	0.15191	0.378
Mof_C 	C 	0.17751	0.8332	0.17179	0.17
Mof_H 	H 	0.1763	0.9192	0.1657	-0.014
Mof_C 	C 	0.16138	0.7837	0.21267	-0.301
Mof_H 	H 	0.1495	0.8345	0.2327	0.15
Mof_C 	C 	0.16329	0.6559	0.22305	0.322
Mof_C 	C 	0.1815	0.588	0.19142	-0.289
Mof_H 	H 	0.1834	0.5021	0.1969	0.152
Mof_C 	C 	0.19666	0.6464	0.15207	0.172
Mof_H 	H 	0.2092	0.5982	0.1323	-0.026
Mof_C 	C 	0.19328	0.33	0.48396	0.185
Mof_H 	H 	0.2128	0.3535	0.4882	-0.048
Mof_C 	C 	0.17517	0.3962	0.44475	-0.326
Mof_H 	H 	0.1822	0.4617	0.424	0.153
Mof_C 	C 	0.14653	0.3618	0.4376	0.326
Mof_C 	C 	0.13742	0.2662	0.47008	-0.328
Mof_H 	H 	0.1181	0.2405	0.4664	0.16
Mof_C 	C 	0.15721	0.2096	0.50779	0.188
Mof_H 	H 	0.1505	0.1459	0.53	-0.037
Mof_C 	C 	0.05023	0.2276	0.17153	0.207
Mof_H 	H 	0.0504	0.1411	0.176	-0.055
Mof_C 	C 	0.06683	0.2958	0.211	-0.349
Mof_H 	H 	0.0781	0.2559	0.2404	0.162
Mof_C 	C 	0.06683	0.4219	0.20707	0.35
Mof_C 	C 	0.04952	0.4741	0.16191	-0.307
Mof_H 	H 	0.0483	0.5606	0.1577	0.158
Mof_C 	C 	0.03413	0.3964	0.12337	0.184
Mof_H 	H 	0.0233	0.4331	0.0926	-0.029
Mof_C 	C 	0.06451	0.8428	0.51117	0.191
Mof_H 	H 	0.0707	0.892	0.5424	-0.053
Mof_C 	C 	0.08421	0.8147	0.4737	-0.319
Mof_H 	H 	0.1034	0.8422	0.4798	0.155
Mof_C 	C 	0.07516	0.7452	0.42709	0.309
Mof_C 	C 	0.04661	0.7072	0.41849	-0.302
Mof_H 	H 	0.0397	0.6607	0.3868	0.15
Mof_C 	C 	0.02898	0.7417	0.45932	0.181
Mof_H 	H 	0.0095	0.7185	0.4537	-0.031
Mof_C 	C 	0.08675	0.614	0.35034	0.001
Mof_H 	H 	0.073	0.6498	0.3213	0.05
Mof_H 	H 	0.0771	0.5469	0.3689	0.05
Mof_C 	C 	0.10101	0.4533	0.28668	0.027
Mof_H 	H 	0.1168	0.4086	0.2713	0.045
Mof_H 	H 	0.0908	0.3954	0.3094	0.038
Mof_C 	C 	0.13629	0.5167	0.36709	0.012
Mof_H 	H 	0.153	0.4891	0.3484	0.045
Mof_H 	H 	0.1425	0.5856	0.3922	0.047
Mof_C 	C 	0.12692	0.6576	0.28808	0.025
Mof_H 	H 	0.1125	0.6959	0.261	0.043
Mof_H 	H 	0.136	0.7227	0.3123	0.036
Mof_C 	C 	0.26162	0.7661	0.12141	0.336
Mof_C 	C 	0.11294	0.5619	0.32303	0.012
Mof_N 	N 	0.19466	0.7678	0.14023	-0.263
Mof_N 	N 	0.03389	0.2736	0.12743	-0.289
Mof_N 	N 	0.18558	0.2375	0.51574	-0.289
Mof_N 	N 	0.03723	0.8053	0.50616	-0.283
Mof_Ni	Ni	0.21495	0.84612	0.07397	1.083
Mof_Ni	Ni	0.9915	0.83131	0.93003	1.077
Mof_O 	O 	0.19148	0.0049	0.08052	-0.437
Mof_O 	O 	0.20131	0.1124	0.00568	-0.302
Mof_O 	O 	0.25277	0.8738	0.13389	-0.373
Mof_O 	O 	0.24714	0.7035	0.08168	-0.394
Mof_O 	O 	0.47798	0.6342	0.12478	-0.408
Mof_O 	O 	0.48837	0.4455	0.16262	-0.287
Mof_O 	O 	0.0287	0.865	0.99685	-0.387
Mof_O 	O 	0.01844	0.6837	0.95622	-0.386
Mof_O 	O 	0.36198	0.5589	0.24019	-0.342
Mof_O 	O 	0.12309	0.5007	0.12378	-0.335
Mof_O 	O 	0.09626	0.7094	0.39164	-0.243
Mof_O 	O 	0.08155	0.5022	0.24166	-0.267
Mof_O 	O 	0.12617	0.4154	0.40013	-0.26
Mof_O 	O 	0.14829	0.5931	0.25915	-0.26
Mof_C 	C 	0.68885	0.6003	0.04983	0.425
Mof_C 	C 	0.67083	0.7031	0.06756	-0.282
Mof_C 	C 	0.65268	0.6884	0.10967	0.232
Mof_H 	H 	0.6518	0.6107	0.1272	-0.031
Mof_C 	C 	0.63534	0.7867	0.12736	-0.363
Mof_H 	H 	0.6227	0.7749	0.1554	0.172
Mof_C 	C 	0.63783	0.8996	0.10173	0.376
Mof_C 	C 	0.65587	0.9162	0.06074	-0.39
Mof_H 	H 	0.6577	0.9952	0.0449	0.177
Mof_C 	C 	0.67157	0.8175	0.04211	0.259
Mof_H 	H 	0.6828	0.8288	0.0118	-0.042
Mof_C 	C 	0.60316	0.0631	0.08621	0.37
Mof_C 	C 	0.58891	0.0067	0.04055	-0.37
Mof_H 	H 	0.5938	0.9255	0.0307	0.169
Mof_C 	C 	0.56724	0.0701	0.00904	0.236
Mof_H 	H 	0.5572	0.0312	0.9779	-0.029
Mof_C 	C 	0.56007	0.1905	0.0229	-0.251
Mof_C 	C 	0.57514	0.2481	0.06745	0.222
Mof_H 	H 	0.5709	0.3307	0.0762	-0.041
Mof_C 	C 	0.59687	0.1838	0.1	-0.35
Mof_H 	H 	0.6071	0.2225	0.131	0.168
Mof_C 	C 	0.53459	0.2504	0.9905	0.366
Mof_C 	C 	0.78812	0.2131	0.15057	-0.211
Mof_C 	C 	0.80343	0.277	0.19379	0.171
Mof_H 	H 	0.7971	0.3561	0.2037	-0.009
Mof_C 	C 	0.82853	0.2263	0.22358	-0.295
Mof_H 	H 	0.8386	0.2708	0.253	0.148
Mof_C 	C 	0.83811	0.1082	0.20831	0.33
Mof_C 	C 	0.82362	0.0453	0.16506	-0.322
Mof_H 	H 	0.8302	0.9676	0.154	0.155
Mof_C 	C 	0.79854	0.0983	0.13697	0.185
Mof_H 	H 	0.7885	0.0533	0.1077	-0.012
Mof_C 	C 	0.88735	0.0504	0.2146	0.335
Mof_C 	C 	0.89313	0.1136	0.1671	-0.342
Mof_H 	H 	0.8785	0.1609	0.1477	0.16
Mof_C 	C 	0.92019	0.109	0.14714	0.195
Mof_H 	H 	0.9236	0.1549	0.115	-0.019
Mof_C 	C 	0.94241	0.0375	0.17389	-0.203
Mof_C 	C 	0.936	0.9697	0.22118	0.167
Mof_H 	H 	0.9502	0.9178	0.2391	-0.007
Mof_C 	C 	0.90873	0.977	0.24275	-0.302
Mof_H 	H 	0.9051	0.9332	0.2754	0.144
Mof_C 	C 	0.97215	0.0366	0.15191	0.379
Mof_C 	C 	0.67751	0.3332	0.17179	0.17
Mof_H 	H 	0.6763	0.4192	0.1657	-0.013
Mof_C 	C 	0.66138	0.2837	0.21267	-0.301
Mof_H 	H 	0.6495	0.3345	0.2327	0.15
Mof_C 	C 	0.66329	0.1559	0.22305	0.322
Mof_C 	C 	0.6815	0.088	0.19142	-0.289
Mof_H 	H 	0.6834	0.0021	0.1969	0.152
Mof_C 	C 	0.69666	0.1464	0.15207	0.172
Mof_H 	H 	0.7092	0.0982	0.1323	-0.025
Mof_C 	C 	0.69328	0.83	0.48396	0.185
Mof_H 	H 	0.7128	0.8535	0.4882	-0.048
Mof_C 	C 	0.67517	0.8962	0.44475	-0.326
Mof_H 	H 	0.6822	0.9617	0.424	0.153
Mof_C 	C 	0.64653	0.8618	0.4376	0.326
Mof_C 	C 	0.63742	0.7662	0.47008	-0.328
Mof_H 	H 	0.6181	0.7405	0.4664	0.16
Mof_C 	C 	0.65721	0.7096	0.50779	0.188
Mof_H 	H 	0.6505	0.6459	0.53	-0.037
Mof_C 	C 	0.55023	0.7276	0.17153	0.207
Mof_H 	H 	0.5504	0.6411	0.176	-0.055
Mof_C 	C 	0.56683	0.7958	0.211	-0.349
Mof_H 	H 	0.5781	0.7559	0.2404	0.162
Mof_C 	C 	0.56683	0.9219	0.20707	0.349
Mof_C 	C 	0.54952	0.9741	0.16191	-0.309
Mof_H 	H 	0.5483	0.0606	0.1577	0.159
Mof_C 	C 	0.53413	0.8964	0.12337	0.185
Mof_H 	H 	0.5233	0.9331	0.0926	-0.03
Mof_C 	C 	0.56451	0.3428	0.51117	0.191
Mof_H 	H 	0.5707	0.392	0.5424	-0.053
Mof_C 	C 	0.58421	0.3147	0.4737	-0.319
Mof_H 	H 	0.6034	0.3422	0.4798	0.155
Mof_C 	C 	0.57516	0.2452	0.42709	0.309
Mof_C 	C 	0.54661	0.2072	0.41849	-0.302
Mof_H 	H 	0.5397	0.1607	0.3868	0.15
Mof_C 	C 	0.52898	0.2417	0.45932	0.181
Mof_H 	H 	0.5095	0.2185	0.4537	-0.031
Mof_C 	C 	0.58675	0.114	0.35034	0.001
Mof_H 	H 	0.573	0.1498	0.3213	0.05
Mof_H 	H 	0.5771	0.0469	0.3689	0.05
Mof_C 	C 	0.60101	0.9533	0.28668	0.025
Mof_H 	H 	0.6168	0.9086	0.2713	0.045
Mof_H 	H 	0.5908	0.8954	0.3094	0.038
Mof_C 	C 	0.63629	0.0167	0.36709	0.014
Mof_H 	H 	0.653	0.9891	0.3484	0.044
Mof_H 	H 	0.6425	0.0856	0.3922	0.047
Mof_C 	C 	0.62692	0.1576	0.28808	0.025
Mof_H 	H 	0.6125	0.1959	0.261	0.043
Mof_H 	H 	0.636	0.2227	0.3123	0.036
Mof_C 	C 	0.76162	0.2661	0.12141	0.336
Mof_C 	C 	0.61294	0.0619	0.32303	0.013
Mof_N 	N 	0.69466	0.2678	0.14023	-0.263
Mof_N 	N 	0.53389	0.7736	0.12743	-0.289
Mof_N 	N 	0.68558	0.7375	0.51574	-0.289
Mof_N 	N 	0.53723	0.3053	0.50616	-0.283
Mof_Ni	Ni	0.71495	0.34612	0.07397	1.083
Mof_Ni	Ni	0.4915	0.33131	0.93003	1.077
Mof_O 	O 	0.69148	0.5049	0.08052	-0.438
Mof_O 	O 	0.70131	0.6124	0.00568	-0.303
Mof_O 	O 	0.75277	0.3738	0.13389	-0.373
Mof_O 	O 	0.74714	0.2035	0.08168	-0.393
Mof_O 	O 	0.97798	0.1342	0.12478	-0.408
Mof_O 	O 	0.98837	0.9455	0.16262	-0.288
Mof_O 	O 	0.5287	0.365	0.99685	-0.387
Mof_O 	O 	0.51844	0.1837	0.95622	-0.386
Mof_O 	O 	0.86198	0.0589	0.24019	-0.341
Mof_O 	O 	0.62309	0.0007	0.12378	-0.334
Mof_O 	O 	0.59626	0.2094	0.39164	-0.243
Mof_O 	O 	0.58155	0.0022	0.24166	-0.266
Mof_O 	O 	0.62617	0.9154	0.40013	-0.261
Mof_O 	O 	0.64829	0.0931	0.25915	-0.26
Mof_C 	C 	0.81115	0.1003	0.45017	0.426
Mof_C 	C 	0.82917	0.2031	0.43244	-0.282
Mof_C 	C 	0.84732	0.1884	0.39033	0.233
Mof_H 	H 	0.8482	0.1107	0.3728	-0.031
Mof_C 	C 	0.86466	0.2867	0.37264	-0.364
Mof_H 	H 	0.8773	0.2749	0.3446	0.172
Mof_C 	C 	0.86217	0.3996	0.39827	0.377
Mof_C 	C 	0.84413	0.4162	0.43926	-0.391
Mof_H 	H 	0.8423	0.4952	0.4551	0.178
Mof_C 	C 	0.82843	0.3175	0.45789	0.26
Mof_H 	H 	0.8172	0.3288	0.4882	-0.042
Mof_C 	C 	0.89684	0.5631	0.41379	0.371
Mof_C 	C 	0.91109	0.5067	0.45945	-0.372
Mof_H 	H 	0.9062	0.4255	0.4693	0.17
Mof_C 	C 	0.93276	0.5701	0.49096	0.235
Mof_H 	H 	0.9428	0.5312	0.5221	-0.029
Mof_C 	C 	0.93993	0.6905	0.4771	-0.251
Mof_C 	C 	0.92486	0.7481	0.43255	0.222
Mof_H 	H 	0.9291	0.8307	0.4238	-0.041
Mof_C 	C 	0.90313	0.6838	0.4	-0.351
Mof_H 	H 	0.8929	0.7225	0.369	0.168
Mof_C 	C 	0.96541	0.7504	0.5095	0.366
Mof_C 	C 	0.71188	0.7131	0.34943	-0.212
Mof_C 	C 	0.69657	0.777	0.30621	0.172
Mof_H 	H 	0.7029	0.8561	0.2963	-0.009
Mof_C 	C 	0.67147	0.7263	0.27642	-0.296
Mof_H 	H 	0.6614	0.7708	0.247	0.148
Mof_C 	C 	0.66189	0.6082	0.29169	0.331
Mof_C 	C 	0.67638	0.5453	0.33494	-0.324
Mof_H 	H 	0.6698	0.4676	0.346	0.157
Mof_C 	C 	0.70146	0.5983	0.36303	0.187
Mof_H 	H 	0.7115	0.5533	0.3923	-0.013
Mof_C 	C 	0.61265	0.5504	0.2854	0.335
Mof_C 	C 	0.60687	0.6136	0.3329	-0.342
Mof_H 	H 	0.6215	0.6609	0.3523	0.16
Mof_C 	C 	0.57981	0.609	0.35286	0.195
Mof_H 	H 	0.5764	0.6549	0.385	-0.02
Mof_C 	C 	0.55759	0.5375	0.32611	-0.203
Mof_C 	C 	0.564	0.4697	0.27882	0.168
Mof_H 	H 	0.5498	0.4178	0.2609	-0.007
Mof_C 	C 	0.59127	0.477	0.25725	-0.302
Mof_H 	H 	0.5949	0.4332	0.2246	0.144
Mof_C 	C 	0.52785	0.5366	0.34809	0.378
Mof_C 	C 	0.82249	0.8332	0.32821	0.17
Mof_H 	H 	0.8237	0.9192	0.3343	-0.013
Mof_C 	C 	0.83862	0.7837	0.28733	-0.301
Mof_H 	H 	0.8505	0.8345	0.2673	0.15
Mof_C 	C 	0.83671	0.6559	0.27695	0.322
Mof_C 	C 	0.8185	0.588	0.30858	-0.289
Mof_H 	H 	0.8166	0.5021	0.3031	0.152
Mof_C 	C 	0.80334	0.6464	0.34793	0.172
Mof_H 	H 	0.7908	0.5982	0.3677	-0.026
Mof_C 	C 	0.80672	0.33	0.01604	0.185
Mof_H 	H 	0.7872	0.3535	0.0118	-0.048
Mof_C 	C 	0.82483	0.3962	0.05525	-0.326
Mof_H 	H 	0.8178	0.4617	0.076	0.153
Mof_C 	C 	0.85347	0.3618	0.0624	0.326
Mof_C 	C 	0.86258	0.2662	0.02992	-0.327
Mof_H 	H 	0.8819	0.2405	0.0336	0.16
Mof_C 	C 	0.84279	0.2096	0.99221	0.187
Mof_H 	H 	0.8495	0.1459	0.97	-0.037
Mof_C 	C 	0.94977	0.2276	0.32847	0.207
Mof_H 	H 	0.9496	0.1411	0.324	-0.055
Mof_C 	C 	0.93317	0.2958	0.289	-0.349
Mof_H 	H 	0.9219	0.2559	0.2596	0.162
Mof_C 	C 	0.93317	0.4219	0.29293	0.35
Mof_C 	C 	0.95048	0.4741	0.33809	-0.307
Mof_H 	H 	0.9517	0.5606	0.3423	0.158
Mof_C 	C 	0.96587	0.3964	0.37663	0.184
Mof_H 	H 	0.9767	0.4331	0.4074	-0.029
Mof_C 	C 	0.93549	0.8428	0.98883	0.192
Mof_H 	H 	0.9293	0.892	0.9576	-0.053
Mof_C 	C 	0.91579	0.8147	0.0263	-0.32
Mof_H 	H 	0.8966	0.8422	0.0202	0.155
Mof_C 	C 	0.92484	0.7452	0.07291	0.309
Mof_C 	C 	0.95339	0.7072	0.08151	-0.302
Mof_H 	H 	0.9603	0.6607	0.1132	0.15
Mof_C 	C 	0.97102	0.7417	0.04068	0.18
Mof_H 	H 	0.9905	0.7185	0.0463	-0.031
Mof_C 	C 	0.91325	0.614	0.14966	0.001
Mof_H 	H 	0.927	0.6498	0.1787	0.05
Mof_H 	H 	0.9229	0.5469	0.1311	0.05
Mof_C 	C 	0.89899	0.4533	0.21332	0.027
Mof_H 	H 	0.8832	0.4086	0.2287	0.045
Mof_H 	H 	0.9092	0.3954	0.1906	0.038
Mof_C 	C 	0.86371	0.5167	0.13291	0.012
Mof_H 	H 	0.847	0.4891	0.1516	0.045
Mof_H 	H 	0.8575	0.5856	0.1078	0.047
Mof_C 	C 	0.87308	0.6576	0.21192	0.025
Mof_H 	H 	0.8875	0.6959	0.239	0.043
Mof_H 	H 	0.864	0.7227	0.1877	0.036
Mof_C 	C 	0.73838	0.7661	0.37859	0.336
Mof_C 	C 	0.88706	0.5619	0.17697	0.012
Mof_N 	N 	0.80534	0.7678	0.35977	-0.263
Mof_N 	N 	0.96611	0.2736	0.37257	-0.289
Mof_N 	N 	0.81442	0.2375	0.98426	-0.289
Mof_N 	N 	0.96277	0.8053	0.99384	-0.283
Mof_Ni	Ni	0.78505	0.84612	0.42603	1.083
Mof_Ni	Ni	0.0085	0.83131	0.56997	1.077
Mof_O 	O 	0.80852	0.0049	0.41948	-0.438
Mof_O 	O 	0.79869	0.1124	0.49432	-0.303
Mof_O 	O 	0.74723	0.8738	0.36611	-0.373
Mof_O 	O 	0.75286	0.7035	0.41832	-0.394
Mof_O 	O 	0.52202	0.6342	0.37522	-0.408
Mof_O 	O 	0.51163	0.4455	0.33738	-0.287
Mof_O 	O 	0.9713	0.865	0.50315	-0.387
Mof_O 	O 	0.98156	0.6837	0.54378	-0.386
Mof_O 	O 	0.63802	0.5589	0.25981	-0.342
Mof_O 	O 	0.87691	0.5007	0.37622	-0.335
Mof_O 	O 	0.90374	0.7094	0.10836	-0.243
Mof_O 	O 	0.91845	0.5022	0.25834	-0.267
Mof_O 	O 	0.87383	0.4154	0.09987	-0.26
Mof_O 	O 	0.85171	0.5931	0.24085	-0.26
Mof_C 	C 	0.31115	0.6003	0.45017	0.426
Mof_C 	C 	0.32917	0.7031	0.43244	-0.282
Mof_C 	C 	0.34732	0.6884	0.39033	0.232
Mof_H 	H 	0.3482	0.6107	0.3728	-0.031
Mof_C 	C 	0.36466	0.7867	0.37264	-0.363
Mof_H 	H 	0.3773	0.7749	0.3446	0.172
Mof_C 	C 	0.36217	0.8996	0.39827	0.377
Mof_C 	C 	0.34413	0.9162	0.43926	-0.391
Mof_H 	H 	0.3423	0.9952	0.4551	0.178
Mof_C 	C 	0.32843	0.8175	0.45789	0.259
Mof_H 	H 	0.3172	0.8288	0.4882	-0.042
Mof_C 	C 	0.39684	0.0631	0.41379	0.371
Mof_C 	C 	0.41109	0.0067	0.45945	-0.371
Mof_H 	H 	0.4062	0.9255	0.4693	0.17
Mof_C 	C 	0.43276	0.0701	0.49096	0.235
Mof_H 	H 	0.4428	0.0312	0.5221	-0.029
Mof_C 	C 	0.43993	0.1905	0.4771	-0.251
Mof_C 	C 	0.42486	0.2481	0.43255	0.222
Mof_H 	H 	0.4291	0.3307	0.4238	-0.041
Mof_C 	C 	0.40313	0.1838	0.4	-0.351
Mof_H 	H 	0.3929	0.2225	0.369	0.168
Mof_C 	C 	0.46541	0.2504	0.5095	0.366
Mof_C 	C 	0.21188	0.2131	0.34943	-0.212
Mof_C 	C 	0.19657	0.277	0.30621	0.172
Mof_H 	H 	0.2029	0.3561	0.2963	-0.009
Mof_C 	C 	0.17147	0.2263	0.27642	-0.295
Mof_H 	H 	0.1614	0.2708	0.247	0.148
Mof_C 	C 	0.16189	0.1082	0.29169	0.33
Mof_C 	C 	0.17638	0.0453	0.33494	-0.323
Mof_H 	H 	0.1698	0.9676	0.346	0.156
Mof_C 	C 	0.20146	0.0983	0.36303	0.186
Mof_H 	H 	0.2115	0.0533	0.3923	-0.013
Mof_C 	C 	0.11265	0.0504	0.2854	0.335
Mof_C 	C 	0.10687	0.1136	0.3329	-0.342
Mof_H 	H 	0.1215	0.1609	0.3523	0.16
Mof_C 	C 	0.07981	0.109	0.35286	0.195
Mof_H 	H 	0.0764	0.1549	0.385	-0.02
Mof_C 	C 	0.05759	0.0375	0.32611	-0.203
Mof_C 	C 	0.064	0.9697	0.27882	0.168
Mof_H 	H 	0.0498	0.9178	0.2609	-0.007
Mof_C 	C 	0.09127	0.977	0.25725	-0.302
Mof_H 	H 	0.0949	0.9332	0.2246	0.144
Mof_C 	C 	0.02785	0.0366	0.34809	0.378
Mof_C 	C 	0.32249	0.3332	0.32821	0.17
Mof_H 	H 	0.3237	0.4192	0.3343	-0.013
Mof_C 	C 	0.33862	0.2837	0.28733	-0.301
Mof_H 	H 	0.3505	0.3345	0.2673	0.15
Mof_C 	C 	0.33671	0.1559	0.27695	0.322
Mof_C 	C 	0.3185	0.088	0.30858	-0.289
Mof_H 	H 	0.3166	0.0021	0.3031	0.152
Mof_C 	C 	0.30334	0.1464	0.34793	0.172
Mof_H 	H 	0.2908	0.0982	0.3677	-0.026
Mof_C 	C 	0.30672	0.83	0.01604	0.184
Mof_H 	H 	0.2872	0.8535	0.0118	-0.049
Mof_C 	C 	0.32483	0.8962	0.05525	-0.327
Mof_H 	H 	0.3178	0.9617	0.076	0.153
Mof_C 	C 	0.35347	0.8618	0.0624	0.326
Mof_C 	C 	0.36258	0.7662	0.02992	-0.329
Mof_H 	H 	0.3819	0.7405	0.0336	0.16
Mof_C 	C 	0.34279	0.7096	0.99221	0.189
Mof_H 	H 	0.3495	0.6459	0.97	-0.038
Mof_C 	C 	0.44977	0.7276	0.32847	0.207
Mof_H 	H 	0.4496	0.6411	0.324	-0.055
Mof_C 	C 	0.43317	0.7958	0.289	-0.349
Mof_H 	H 	0.4219	0.7559	0.2596	0.162
Mof_C 	C 	0.43317	0.9219	0.29293	0.349
Mof_C 	C 	0.45048	0.9741	0.33809	-0.308
Mof_H 	H 	0.4517	0.0606	0.3423	0.159
Mof_C 	C 	0.46587	0.8964	0.37663	0.184
Mof_H 	H 	0.4767	0.9331	0.4074	-0.029
Mof_C 	C 	0.43549	0.3428	0.98883	0.19
Mof_H 	H 	0.4293	0.392	0.9576	-0.053
Mof_C 	C 	0.41579	0.3147	0.0263	-0.318
Mof_H 	H 	0.3966	0.3422	0.0202	0.154
Mof_C 	C 	0.42484	0.2452	0.07291	0.309
Mof_C 	C 	0.45339	0.2072	0.08151	-0.302
Mof_H 	H 	0.4603	0.1607	0.1132	0.15
Mof_C 	C 	0.47102	0.2417	0.04068	0.181
Mof_H 	H 	0.4905	0.2185	0.0463	-0.031
Mof_C 	C 	0.41325	0.114	0.14966	0.001
Mof_H 	H 	0.427	0.1498	0.1787	0.05
Mof_H 	H 	0.4229	0.0469	0.1311	0.05
Mof_C 	C 	0.39899	0.9533	0.21332	0.025
Mof_H 	H 	0.3832	0.9086	0.2287	0.045
Mof_H 	H 	0.4092	0.8954	0.1906	0.038
Mof_C 	C 	0.36371	0.0167	0.13291	0.015
Mof_H 	H 	0.347	0.9891	0.1516	0.043
Mof_H 	H 	0.3575	0.0856	0.1078	0.047
Mof_C 	C 	0.37308	0.1576	0.21192	0.025
Mof_H 	H 	0.3875	0.1959	0.239	0.043
Mof_H 	H 	0.364	0.2227	0.1877	0.036
Mof_C 	C 	0.23838	0.2661	0.37859	0.336
Mof_C 	C 	0.38706	0.0619	0.17697	0.012
Mof_N 	N 	0.30534	0.2678	0.35977	-0.263
Mof_N 	N 	0.46611	0.7736	0.37257	-0.289
Mof_N 	N 	0.31442	0.7375	0.98426	-0.289
Mof_N 	N 	0.46277	0.3053	0.99384	-0.284
Mof_Ni	Ni	0.28505	0.34612	0.42603	1.083
Mof_Ni	Ni	0.5085	0.33131	0.56997	1.077
Mof_O 	O 	0.30852	0.5049	0.41948	-0.438
Mof_O 	O 	0.29869	0.6124	0.49432	-0.303
Mof_O 	O 	0.24723	0.3738	0.36611	-0.373
Mof_O 	O 	0.25286	0.2035	0.41832	-0.394
Mof_O 	O 	0.02202	0.1342	0.37522	-0.408
Mof_O 	O 	0.01163	0.9455	0.33738	-0.287
Mof_O 	O 	0.4713	0.365	0.50315	-0.387
Mof_O 	O 	0.48156	0.1837	0.54378	-0.386
Mof_O 	O 	0.13802	0.0589	0.25981	-0.342
Mof_O 	O 	0.37691	0.0007	0.37622	-0.335
Mof_O 	O 	0.40374	0.2094	0.10836	-0.243
Mof_O 	O 	0.41845	0.0022	0.25834	-0.265
Mof_O 	O 	0.37383	0.9154	0.09987	-0.261
Mof_O 	O 	0.35171	0.0931	0.24085	-0.26
Mof_C 	C 	0.81115	0.8997	0.95017	0.426
Mof_C 	C 	0.82917	0.7969	0.93244	-0.282
Mof_C 	C 	0.84732	0.8116	0.89033	0.233
Mof_H 	H 	0.8482	0.8893	0.8728	-0.031
Mof_C 	C 	0.86466	0.7133	0.87264	-0.364
Mof_H 	H 	0.8773	0.7251	0.8446	0.172
Mof_C 	C 	0.86217	0.6004	0.89827	0.377
Mof_C 	C 	0.84413	0.5838	0.93926	-0.391
Mof_H 	H 	0.8423	0.5048	0.9551	0.178
Mof_C 	C 	0.82843	0.6825	0.95789	0.26
Mof_H 	H 	0.8172	0.6712	0.9882	-0.042
Mof_C 	C 	0.89684	0.4369	0.91379	0.371
Mof_C 	C 	0.91109	0.4933	0.95945	-0.372
Mof_H 	H 	0.9062	0.5745	0.9693	0.17
Mof_C 	C 	0.93276	0.4299	0.99096	0.235
Mof_H 	H 	0.9428	0.4688	0.0221	-0.029
Mof_C 	C 	0.93993	0.3095	0.9771	-0.252
Mof_C 	C 	0.92486	0.2519	0.93255	0.222
Mof_H 	H 	0.9291	0.1693	0.9238	-0.041
Mof_C 	C 	0.90313	0.3162	0.9	-0.351
Mof_H 	H 	0.8929	0.2775	0.869	0.168
Mof_C 	C 	0.96541	0.2496	0.0095	0.367
Mof_C 	C 	0.71188	0.2869	0.84943	-0.212
Mof_C 	C 	0.69657	0.223	0.80621	0.172
Mof_H 	H 	0.7029	0.1439	0.7963	-0.009
Mof_C 	C 	0.67147	0.2737	0.77642	-0.296
Mof_H 	H 	0.6614	0.2292	0.747	0.148
Mof_C 	C 	0.66189	0.3918	0.79169	0.331
Mof_C 	C 	0.67638	0.4547	0.83494	-0.324
Mof_H 	H 	0.6698	0.5324	0.846	0.157
Mof_C 	C 	0.70146	0.4017	0.86303	0.187
Mof_H 	H 	0.7115	0.4467	0.8923	-0.013
Mof_C 	C 	0.61265	0.4496	0.7854	0.335
Mof_C 	C 	0.60687	0.3864	0.8329	-0.342
Mof_H 	H 	0.6215	0.3391	0.8523	0.16
Mof_C 	C 	0.57981	0.391	0.85286	0.195
Mof_H 	H 	0.5764	0.3451	0.885	-0.02
Mof_C 	C 	0.55759	0.4625	0.82611	-0.203
Mof_C 	C 	0.564	0.5303	0.77882	0.168
Mof_H 	H 	0.5498	0.5822	0.7609	-0.007
Mof_C 	C 	0.59127	0.523	0.75725	-0.302
Mof_H 	H 	0.5949	0.5668	0.7246	0.144
Mof_C 	C 	0.52785	0.4634	0.84809	0.378
Mof_C 	C 	0.82249	0.1668	0.82821	0.17
Mof_H 	H 	0.8237	0.0808	0.8343	-0.014
Mof_C 	C 	0.83862	0.2163	0.78733	-0.301
Mof_H 	H 	0.8505	0.1655	0.7673	0.15
Mof_C 	C 	0.83671	0.3441	0.77695	0.322
Mof_C 	C 	0.8185	0.412	0.80858	-0.289
Mof_H 	H 	0.8166	0.4979	0.8031	0.152
Mof_C 	C 	0.80334	0.3536	0.84793	0.172
Mof_H 	H 	0.7908	0.4018	0.8677	-0.026
Mof_C 	C 	0.80672	0.67	0.51604	0.185
Mof_H 	H 	0.7872	0.6465	0.5118	-0.048
Mof_C 	C 	0.82483	0.6038	0.55525	-0.326
Mof_H 	H 	0.8178	0.5383	0.576	0.153
Mof_C 	C 	0.85347	0.6382	0.5624	0.326
Mof_C 	C 	0.86258	0.7338	0.52992	-0.328
Mof_H 	H 	0.8819	0.7595	0.5336	0.16
Mof_C 	C 	0.84279	0.7904	0.49221	0.188
Mof_H 	H 	0.8495	0.8541	0.47	-0.037
Mof_C 	C 	0.94977	0.7724	0.82847	0.207
Mof_H 	H 	0.9496	0.8589	0.824	-0.055
Mof_C 	C 	0.93317	0.7042	0.789	-0.349
Mof_H 	H 	0.9219	0.7441	0.7596	0.162
Mof_C 	C 	0.93317	0.5781	0.79293	0.35
Mof_C 	C 	0.95048	0.5259	0.83809	-0.307
Mof_H 	H 	0.9517	0.4394	0.8423	0.158
Mof_C 	C 	0.96587	0.6036	0.87663	0.184
Mof_H 	H 	0.9767	0.5669	0.9074	-0.029
Mof_C 	C 	0.93549	0.1572	0.48883	0.191
Mof_H 	H 	0.9293	0.108	0.4576	-0.053
Mof_C 	C 	0.91579	0.1853	0.5263	-0.319
Mof_H 	H 	0.8966	0.1578	0.5202	0.155
Mof_C 	C 	0.92484	0.2548	0.57291	0.309
Mof_C 	C 	0.95339	0.2928	0.58151	-0.302
Mof_H 	H 	0.9603	0.3393	0.6132	0.15
Mof_C 	C 	0.97102	0.2583	0.54068	0.181
Mof_H 	H 	0.9905	0.2815	0.5463	-0.031
Mof_C 	C 	0.91325	0.386	0.64966	0.001
Mof_H 	H 	0.927	0.3502	0.6787	0.05
Mof_H 	H 	0.9229	0.4531	0.6311	0.05
Mof_C 	C 	0.89899	0.5467	0.71332	0.027
Mof_H 	H 	0.8832	0.5914	0.7287	0.045
Mof_H 	H 	0.9092	0.6046	0.6906	0.038
Mof_C 	C 	0.86371	0.4833	0.63291	0.012
Mof_H 	H 	0.847	0.5109	0.6516	0.045
Mof_H 	H 	0.8575	0.4144	0.6078	0.047
Mof_C 	C 	0.87308	0.3424	0.71192	0.025
Mof_H 	H 	0.8875	0.3041	0.739	0.043
Mof_H 	H 	0.864	0.2773	0.6877	0.036
Mof_C 	C 	0.73838	0.2339	0.87859	0.336
Mof_C 	C 	0.88706	0.4381	0.67697	0.012
Mof_N 	N 	0.80534	0.2322	0.85977	-0.263
Mof_N 	N 	0.96611	0.7264	0.87257	-0.289
Mof_N 	N 	0.81442	0.7625	0.48426	-0.289
Mof_N 	N 	0.96277	0.1947	0.49384	-0.283
Mof_Ni	Ni	0.78505	0.15388	0.92603	1.083
Mof_Ni	Ni	0.0085	0.16869	0.06997	1.077
Mof_O 	O 	0.80852	0.9951	0.91948	-0.437
Mof_O 	O 	0.79869	0.8876	0.99432	-0.302
Mof_O 	O 	0.74723	0.1262	0.86611	-0.373
Mof_O 	O 	0.75286	0.2965	0.91832	-0.394
Mof_O 	O 	0.52202	0.3658	0.87522	-0.408
Mof_O 	O 	0.51163	0.5545	0.83738	-0.287
Mof_O 	O 	0.9713	0.135	0.00315	-0.387
Mof_O 	O 	0.98156	0.3163	0.04378	-0.386
Mof_O 	O 	0.63802	0.4411	0.75981	-0.342
Mof_O 	O 	0.87691	0.4993	0.87622	-0.335
Mof_O 	O 	0.90374	0.2906	0.60836	-0.243
Mof_O 	O 	0.91845	0.4978	0.75834	-0.267
Mof_O 	O 	0.87383	0.5846	0.59987	-0.26
Mof_O 	O 	0.85171	0.4069	0.74085	-0.26
Mof_C 	C 	0.31115	0.3997	0.95017	0.425
Mof_C 	C 	0.32917	0.2969	0.93244	-0.282
Mof_C 	C 	0.34732	0.3116	0.89033	0.232
Mof_H 	H 	0.3482	0.3893	0.8728	-0.031
Mof_C 	C 	0.36466	0.2133	0.87264	-0.363
Mof_H 	H 	0.3773	0.2251	0.8446	0.172
Mof_C 	C 	0.36217	0.1004	0.89827	0.376
Mof_C 	C 	0.34413	0.0838	0.93926	-0.39
Mof_H 	H 	0.3423	0.0048	0.9551	0.177
Mof_C 	C 	0.32843	0.1825	0.95789	0.259
Mof_H 	H 	0.3172	0.1712	0.9882	-0.042
Mof_C 	C 	0.39684	0.9369	0.91379	0.37
Mof_C 	C 	0.41109	0.9933	0.95945	-0.37
Mof_H 	H 	0.4062	0.0745	0.9693	0.169
Mof_C 	C 	0.43276	0.9299	0.99096	0.236
Mof_H 	H 	0.4428	0.9688	0.0221	-0.029
Mof_C 	C 	0.43993	0.8095	0.9771	-0.251
Mof_C 	C 	0.42486	0.7519	0.93255	0.222
Mof_H 	H 	0.4291	0.6693	0.9238	-0.041
Mof_C 	C 	0.40313	0.8162	0.9	-0.35
Mof_H 	H 	0.3929	0.7775	0.869	0.168
Mof_C 	C 	0.46541	0.7496	0.0095	0.366
Mof_C 	C 	0.21188	0.7869	0.84943	-0.211
Mof_C 	C 	0.19657	0.723	0.80621	0.171
Mof_H 	H 	0.2029	0.6439	0.7963	-0.009
Mof_C 	C 	0.17147	0.7737	0.77642	-0.295
Mof_H 	H 	0.1614	0.7292	0.747	0.148
Mof_C 	C 	0.16189	0.8918	0.79169	0.33
Mof_C 	C 	0.17638	0.9547	0.83494	-0.322
Mof_H 	H 	0.1698	0.0324	0.846	0.155
Mof_C 	C 	0.20146	0.9017	0.86303	0.185
Mof_H 	H 	0.2115	0.9467	0.8923	-0.012
Mof_C 	C 	0.11265	0.9496	0.7854	0.335
Mof_C 	C 	0.10687	0.8864	0.8329	-0.342
Mof_H 	H 	0.1215	0.8391	0.8523	0.16
Mof_C 	C 	0.07981	0.891	0.85286	0.195
Mof_H 	H 	0.0764	0.8451	0.885	-0.019
Mof_C 	C 	0.05759	0.9625	0.82611	-0.203
Mof_C 	C 	0.064	0.0303	0.77882	0.167
Mof_H 	H 	0.0498	0.0822	0.7609	-0.007
Mof_C 	C 	0.09127	0.023	0.75725	-0.302
Mof_H 	H 	0.0949	0.0668	0.7246	0.144
Mof_C 	C 	0.02785	0.9634	0.84809	0.379
Mof_C 	C 	0.32249	0.6668	0.82821	0.17
Mof_H 	H 	0.3237	0.5808	0.8343	-0.013
Mof_C 	C 	0.33862	0.7163	0.78733	-0.301
Mof_H 	H 	0.3505	0.6655	0.7673	0.15
Mof_C 	C 	0.33671	0.8441	0.77695	0.322
Mof_C 	C 	0.3185	0.912	0.80858	-0.289
Mof_H 	H 	0.3166	0.9979	0.8031	0.152
Mof_C 	C 	0.30334	0.8536	0.84793	0.172
Mof_H 	H 	0.2908	0.9018	0.8677	-0.025
Mof_C 	C 	0.30672	0.17	0.51604	0.185
Mof_H 	H 	0.2872	0.1465	0.5118	-0.048
Mof_C 	C 	0.32483	0.1038	0.55525	-0.326
Mof_H 	H 	0.3178	0.0383	0.576	0.153
Mof_C 	C 	0.35347	0.1382	0.5624	0.326
Mof_C 	C 	0.36258	0.2338	0.52992	-0.328
Mof_H 	H 	0.3819	0.2595	0.5336	0.16
Mof_C 	C 	0.34279	0.2904	0.49221	0.188
Mof_H 	H 	0.3495	0.3541	0.47	-0.037
Mof_C 	C 	0.44977	0.2724	0.82847	0.207
Mof_H 	H 	0.4496	0.3589	0.824	-0.055
Mof_C 	C 	0.43317	0.2042	0.789	-0.349
Mof_H 	H 	0.4219	0.2441	0.7596	0.162
Mof_C 	C 	0.43317	0.0781	0.79293	0.349
Mof_C 	C 	0.45048	0.0259	0.83809	-0.309
Mof_H 	H 	0.4517	0.9394	0.8423	0.159
Mof_C 	C 	0.46587	0.1036	0.87663	0.185
Mof_H 	H 	0.4767	0.0669	0.9074	-0.03
Mof_C 	C 	0.43549	0.6572	0.48883	0.191
Mof_H 	H 	0.4293	0.608	0.4576	-0.053
Mof_C 	C 	0.41579	0.6853	0.5263	-0.319
Mof_H 	H 	0.3966	0.6578	0.5202	0.155
Mof_C 	C 	0.42484	0.7548	0.57291	0.309
Mof_C 	C 	0.45339	0.7928	0.58151	-0.302
Mof_H 	H 	0.4603	0.8393	0.6132	0.15
Mof_C 	C 	0.47102	0.7583	0.54068	0.181
Mof_H 	H 	0.4905	0.7815	0.5463	-0.031
Mof_C 	C 	0.41325	0.886	0.64966	0.001
Mof_H 	H 	0.427	0.8502	0.6787	0.05
Mof_H 	H 	0.4229	0.9531	0.6311	0.05
Mof_C 	C 	0.39899	0.0467	0.71332	0.025
Mof_H 	H 	0.3832	0.0914	0.7287	0.045
Mof_H 	H 	0.4092	0.1046	0.6906	0.038
Mof_C 	C 	0.36371	0.9833	0.63291	0.014
Mof_H 	H 	0.347	0.0109	0.6516	0.044
Mof_H 	H 	0.3575	0.9144	0.6078	0.047
Mof_C 	C 	0.37308	0.8424	0.71192	0.025
Mof_H 	H 	0.3875	0.8041	0.739	0.043
Mof_H 	H 	0.364	0.7773	0.6877	0.036
Mof_C 	C 	0.23838	0.7339	0.87859	0.336
Mof_C 	C 	0.38706	0.9381	0.67697	0.013
Mof_N 	N 	0.30534	0.7322	0.85977	-0.263
Mof_N 	N 	0.46611	0.2264	0.87257	-0.289
Mof_N 	N 	0.31442	0.2625	0.48426	-0.289
Mof_N 	N 	0.46277	0.6947	0.49384	-0.283
Mof_Ni	Ni	0.28505	0.65388	0.92603	1.083
Mof_Ni	Ni	0.5085	0.66869	0.06997	1.077
Mof_O 	O 	0.30852	0.4951	0.91948	-0.438
Mof_O 	O 	0.29869	0.3876	0.99432	-0.303
Mof_O 	O 	0.24723	0.6262	0.86611	-0.373
Mof_O 	O 	0.25286	0.7965	0.91832	-0.393
Mof_O 	O 	0.02202	0.8658	0.87522	-0.408
Mof_O 	O 	0.01163	0.0545	0.83738	-0.288
Mof_O 	O 	0.4713	0.635	0.00315	-0.387
Mof_O 	O 	0.48156	0.8163	0.04378	-0.386
Mof_O 	O 	0.13802	0.9411	0.75981	-0.341
Mof_O 	O 	0.37691	0.9993	0.87622	-0.334
Mof_O 	O 	0.40374	0.7906	0.60836	-0.243
Mof_O 	O 	0.41845	0.9978	0.75834	-0.266
Mof_O 	O 	0.37383	0.0846	0.59987	-0.261
Mof_O 	O 	0.35171	0.9069	0.74085	-0.26
Mof_C 	C 	0.18885	0.8997	0.54983	0.426
Mof_C 	C 	0.17083	0.7969	0.56756	-0.282
Mof_C 	C 	0.15268	0.8116	0.60967	0.233
Mof_H 	H 	0.1518	0.8893	0.6272	-0.031
Mof_C 	C 	0.13534	0.7133	0.62736	-0.364
Mof_H 	H 	0.1227	0.7251	0.6554	0.172
Mof_C 	C 	0.13783	0.6004	0.60173	0.377
Mof_C 	C 	0.15587	0.5838	0.56074	-0.391
Mof_H 	H 	0.1577	0.5048	0.5449	0.178
Mof_C 	C 	0.17157	0.6825	0.54211	0.26
Mof_H 	H 	0.1828	0.6712	0.5118	-0.042
Mof_C 	C 	0.10316	0.4369	0.58621	0.371
Mof_C 	C 	0.08891	0.4933	0.54055	-0.372
Mof_H 	H 	0.0938	0.5745	0.5307	0.17
Mof_C 	C 	0.06724	0.4299	0.50904	0.235
Mof_H 	H 	0.0572	0.4688	0.4779	-0.029
Mof_C 	C 	0.06007	0.3095	0.5229	-0.251
Mof_C 	C 	0.07514	0.2519	0.56745	0.222
Mof_H 	H 	0.0709	0.1693	0.5762	-0.041
Mof_C 	C 	0.09687	0.3162	0.6	-0.351
Mof_H 	H 	0.1071	0.2775	0.631	0.168
Mof_C 	C 	0.03459	0.2496	0.4905	0.366
Mof_C 	C 	0.28812	0.2869	0.65057	-0.212
Mof_C 	C 	0.30343	0.223	0.69379	0.172
Mof_H 	H 	0.2971	0.1439	0.7037	-0.009
Mof_C 	C 	0.32853	0.2737	0.72358	-0.296
Mof_H 	H 	0.3386	0.2292	0.753	0.148
Mof_C 	C 	0.33811	0.3918	0.70831	0.331
Mof_C 	C 	0.32362	0.4547	0.66506	-0.324
Mof_H 	H 	0.3302	0.5324	0.654	0.157
Mof_C 	C 	0.29854	0.4017	0.63697	0.187
Mof_H 	H 	0.2885	0.4467	0.6077	-0.013
Mof_C 	C 	0.38735	0.4496	0.7146	0.335
Mof_C 	C 	0.39313	0.3864	0.6671	-0.342
Mof_H 	H 	0.3785	0.3391	0.6477	0.16
Mof_C 	C 	0.42019	0.391	0.64714	0.195
Mof_H 	H 	0.4236	0.3451	0.615	-0.02
Mof_C 	C 	0.44241	0.4625	0.67389	-0.203
Mof_C 	C 	0.436	0.5303	0.72118	0.168
Mof_H 	H 	0.4502	0.5822	0.7391	-0.007
Mof_C 	C 	0.40873	0.523	0.74275	-0.302
Mof_H 	H 	0.4051	0.5668	0.7754	0.144
Mof_C 	C 	0.47215	0.4634	0.65191	0.378
Mof_C 	C 	0.17751	0.1668	0.67179	0.17
Mof_H 	H 	0.1763	0.0808	0.6657	-0.013
Mof_C 	C 	0.16138	0.2163	0.71267	-0.301
Mof_H 	H 	0.1495	0.1655	0.7327	0.15
Mof_C 	C 	0.16329	0.3441	0.72305	0.322
Mof_C 	C 	0.1815	0.412	0.69142	-0.289
Mof_H 	H 	0.1834	0.4979	0.6969	0.152
Mof_C 	C 	0.19666	0.3536	0.65207	0.172
Mof_H 	H 	0.2092	0.4018	0.6323	-0.026
Mof_C 	C 	0.19328	0.67	0.98396	0.185
Mof_H 	H 	0.2128	0.6465	0.9882	-0.048
Mof_C 	C 	0.17517	0.6038	0.94475	-0.326
Mof_H 	H 	0.1822	0.5383	0.924	0.153
Mof_C 	C 	0.14653	0.6382	0.9376	0.326
Mof_C 	C 	0.13742	0.7338	0.97008	-0.327
Mof_H 	H 	0.1181	0.7595	0.9664	0.16
Mof_C 	C 	0.15721	0.7904	0.00779	0.187
Mof_H 	H 	0.1505	0.8541	0.03	-0.037
Mof_C 	C 	0.05023	0.7724	0.67153	0.207
Mof_H 	H 	0.0504	0.8589	0.676	-0.055
Mof_C 	C 	0.06683	0.7042	0.711	-0.349
Mof_H 	H 	0.0781	0.7441	0.7404	0.162
Mof_C 	C 	0.06683	0.5781	0.70707	0.35
Mof_C 	C 	0.04952	0.5259	0.66191	-0.307
Mof_H 	H 	0.0483	0.4394	0.6577	0.158
Mof_C 	C 	0.03413	0.6036	0.62337	0.184
Mof_H 	H 	0.0233	0.5669	0.5926	-0.029
Mof_C 	C 	0.06451	0.1572	0.01117	0.192
Mof_H 	H 	0.0707	0.108	0.0424	-0.053
Mof_C 	C 	0.08421	0.1853	0.9737	-0.32
Mof_H 	H 	0.1034	0.1578	0.9798	0.155
Mof_C 	C 	0.07516	0.2548	0.92709	0.309
Mof_C 	C 	0.04661	0.2928	0.91849	-0.302
Mof_H 	H 	0.0397	0.3393	0.8868	0.15
Mof_C 	C 	0.02898	0.2583	0.95932	0.18
Mof_H 	H 	0.0095	0.2815	0.9537	-0.031
Mof_C 	C 	0.08675	0.386	0.85034	0.001
Mof_H 	H 	0.073	0.3502	0.8213	0.05
Mof_H 	H 	0.0771	0.4531	0.8689	0.05
Mof_C 	C 	0.10101	0.5467	0.78668	0.027
Mof_H 	H 	0.1168	0.5914	0.7713	0.045
Mof_H 	H 	0.0908	0.6046	0.8094	0.038
Mof_C 	C 	0.13629	0.4833	0.86709	0.012
Mof_H 	H 	0.153	0.5109	0.8484	0.045
Mof_H 	H 	0.1425	0.4144	0.8922	0.047
Mof_C 	C 	0.12692	0.3424	0.78808	0.025
Mof_H 	H 	0.1125	0.3041	0.761	0.043
Mof_H 	H 	0.136	0.2773	0.8123	0.036
Mof_C 	C 	0.26162	0.2339	0.62141	0.336
Mof_C 	C 	0.11294	0.4381	0.82303	0.012
Mof_N 	N 	0.19466	0.2322	0.64023	-0.263
Mof_N 	N 	0.03389	0.7264	0.62743	-0.289
Mof_N 	N 	0.18558	0.7625	0.01574	-0.289
Mof_N 	N 	0.03723	0.1947	0.00616	-0.283
Mof_Ni	Ni	0.21495	0.15388	0.57397	1.083
Mof_Ni	Ni	0.9915	0.16869	0.43003	1.077
Mof_O 	O 	0.19148	0.9951	0.58052	-0.438
Mof_O 	O 	0.20131	0.8876	0.50568	-0.303
Mof_O 	O 	0.25277	0.1262	0.63389	-0.373
Mof_O 	O 	0.24714	0.2965	0.58168	-0.394
Mof_O 	O 	0.47798	0.3658	0.62478	-0.408
Mof_O 	O 	0.48837	0.5545	0.66262	-0.287
Mof_O 	O 	0.0287	0.135	0.49685	-0.387
Mof_O 	O 	0.01844	0.3163	0.45622	-0.386
Mof_O 	O 	0.36198	0.4411	0.74019	-0.342
Mof_O 	O 	0.12309	0.4993	0.62378	-0.335
Mof_O 	O 	0.09626	0.2906	0.89164	-0.243
Mof_O 	O 	0.08155	0.4978	0.74166	-0.267
Mof_O 	O 	0.12617	0.5846	0.90013	-0.26
Mof_O 	O 	0.14829	0.4069	0.75915	-0.26
Mof_C 	C 	0.68885	0.3997	0.54983	0.426
Mof_C 	C 	0.67083	0.2969	0.56756	-0.282
Mof_C 	C 	0.65268	0.3116	0.60967	0.232
Mof_H 	H 	0.6518	0.3893	0.6272	-0.031
Mof_C 	C 	0.63534	0.2133	0.62736	-0.363
Mof_H 	H 	0.6227	0.2251	0.6554	0.172
Mof_C 	C 	0.63783	0.1004	0.60173	0.377
Mof_C 	C 	0.65587	0.0838	0.56074	-0.391
Mof_H 	H 	0.6577	0.0048	0.5449	0.178
Mof_C 	C 	0.67157	0.1825	0.54211	0.259
Mof_H 	H 	0.6828	0.1712	0.5118	-0.042
Mof_C 	C 	0.60316	0.9369	0.58621	0.371
Mof_C 	C 	0.58891	0.9933	0.54055	-0.371
Mof_H 	H 	0.5938	0.0745	0.5307	0.17
Mof_C 	C 	0.56724	0.9299	0.50904	0.235
Mof_H 	H 	0.5572	0.9688	0.4779	-0.029
Mof_C 	C 	0.56007	0.8095	0.5229	-0.251
Mof_C 	C 	0.57514	0.7519	0.56745	0.222
Mof_H 	H 	0.5709	0.6693	0.5762	-0.041
Mof_C 	C 	0.59687	0.8162	0.6	-0.351
Mof_H 	H 	0.6071	0.7775	0.631	0.168
Mof_C 	C 	0.53459	0.7496	0.4905	0.366
Mof_C 	C 	0.78812	0.7869	0.65057	-0.212
Mof_C 	C 	0.80343	0.723	0.69379	0.172
Mof_H 	H 	0.7971	0.6439	0.7037	-0.009
Mof_C 	C 	0.82853	0.7737	0.72358	-0.295
Mof_H 	H 	0.8386	0.7292	0.753	0.148
Mof_C 	C 	0.83811	0.8918	0.70831	0.33
Mof_C 	C 	0.82362	0.9547	0.66506	-0.323
Mof_H 	H 	0.8302	0.0324	0.654	0.156
Mof_C 	C 	0.79854	0.9017	0.63697	0.186
Mof_H 	H 	0.7885	0.9467	0.6077	-0.013
Mof_C 	C 	0.88735	0.9496	0.7146	0.335
Mof_C 	C 	0.89313	0.8864	0.6671	-0.342
Mof_H 	H 	0.8785	0.8391	0.6477	0.16
Mof_C 	C 	0.92019	0.891	0.64714	0.195
Mof_H 	H 	0.9236	0.8451	0.615	-0.02
Mof_C 	C 	0.94241	0.9625	0.67389	-0.203
Mof_C 	C 	0.936	0.0303	0.72118	0.168
Mof_H 	H 	0.9502	0.0822	0.7391	-0.007
Mof_C 	C 	0.90873	0.023	0.74275	-0.302
Mof_H 	H 	0.9051	0.0668	0.7754	0.144
Mof_C 	C 	0.97215	0.9634	0.65191	0.378
Mof_C 	C 	0.67751	0.6668	0.67179	0.17
Mof_H 	H 	0.6763	0.5808	0.6657	-0.013
Mof_C 	C 	0.66138	0.7163	0.71267	-0.301
Mof_H 	H 	0.6495	0.6655	0.7327	0.15
Mof_C 	C 	0.66329	0.8441	0.72305	0.322
Mof_C 	C 	0.6815	0.912	0.69142	-0.289
Mof_H 	H 	0.6834	0.9979	0.6969	0.152
Mof_C 	C 	0.69666	0.8536	0.65207	0.172
Mof_H 	H 	0.7092	0.9018	0.6323	-0.026
Mof_C 	C 	0.69328	0.17	0.98396	0.184
Mof_H 	H 	0.7128	0.1465	0.9882	-0.049
Mof_C 	C 	0.67517	0.1038	0.94475	-0.327
Mof_H 	H 	0.6822	0.0383	0.924	0.153
Mof_C 	C 	0.64653	0.1382	0.9376	0.326
Mof_C 	C 	0.63742	0.2338	0.97008	-0.329
Mof_H 	H 	0.6181	0.2595	0.9664	0.16
Mof_C 	C 	0.65721	0.2904	0.00779	0.189
Mof_H 	H 	0.6505	0.3541	0.03	-0.038
Mof_C 	C 	0.55023	0.2724	0.67153	0.207
Mof_H 	H 	0.5504	0.3589	0.676	-0.055
Mof_C 	C 	0.56683	0.2042	0.711	-0.349
Mof_H 	H 	0.5781	0.2441	0.7404	0.162
Mof_C 	C 	0.56683	0.0781	0.70707	0.349
Mof_C 	C 	0.54952	0.0259	0.66191	-0.308
Mof_H 	H 	0.5483	0.9394	0.6577	0.159
Mof_C 	C 	0.53413	0.1036	0.62337	0.184
Mof_H 	H 	0.5233	0.0669	0.5926	-0.029
Mof_C 	C 	0.56451	0.6572	0.01117	0.19
Mof_H 	H 	0.5707	0.608	0.0424	-0.053
Mof_C 	C 	0.58421	0.6853	0.9737	-0.318
Mof_H 	H 	0.6034	0.6578	0.9798	0.154
Mof_C 	C 	0.57516	0.7548	0.92709	0.309
Mof_C 	C 	0.54661	0.7928	0.91849	-0.302
Mof_H 	H 	0.5397	0.8393	0.8868	0.15
Mof_C 	C 	0.52898	0.7583	0.95932	0.181
Mof_H 	H 	0.5095	0.7815	0.9537	-0.031
Mof_C 	C 	0.58675	0.886	0.85034	0.001
Mof_H 	H 	0.573	0.8502	0.8213	0.05
Mof_H 	H 	0.5771	0.9531	0.8689	0.05
Mof_C 	C 	0.60101	0.0467	0.78668	0.025
Mof_H 	H 	0.6168	0.0914	0.7713	0.045
Mof_H 	H 	0.5908	0.1046	0.8094	0.038
Mof_C 	C 	0.63629	0.9833	0.86709	0.015
Mof_H 	H 	0.653	0.0109	0.8484	0.043
Mof_H 	H 	0.6425	0.9144	0.8922	0.047
Mof_C 	C 	0.62692	0.8424	0.78808	0.025
Mof_H 	H 	0.6125	0.8041	0.761	0.043
Mof_H 	H 	0.636	0.7773	0.8123	0.036
Mof_C 	C 	0.76162	0.7339	0.62141	0.336
Mof_C 	C 	0.61294	0.9381	0.82303	0.012
Mof_N 	N 	0.69466	0.7322	0.64023	-0.263
Mof_N 	N 	0.53389	0.2264	0.62743	-0.289
Mof_N 	N 	0.68558	0.2625	0.01574	-0.289
Mof_N 	N 	0.53723	0.6947	0.00616	-0.284
Mof_Ni	Ni	0.71495	0.65388	0.57397	1.083
Mof_Ni	Ni	0.4915	0.66869	0.43003	1.077
Mof_O 	O 	0.69148	0.4951	0.58052	-0.438
Mof_O 	O 	0.70131	0.3876	0.50568	-0.303
Mof_O 	O 	0.75277	0.6262	0.63389	-0.373
Mof_O 	O 	0.74714	0.7965	0.58168	-0.394
Mof_O 	O 	0.97798	0.8658	0.62478	-0.408
Mof_O 	O 	0.98837	0.0545	0.66262	-0.287
Mof_O 	O 	0.5287	0.635	0.49685	-0.387
Mof_O 	O 	0.51844	0.8163	0.45622	-0.386
Mof_O 	O 	0.86198	0.9411	0.74019	-0.342
Mof_O 	O 	0.62309	0.9993	0.62378	-0.335
Mof_O 	O 	0.59626	0.7906	0.89164	-0.243
Mof_O 	O 	0.58155	0.9978	0.74166	-0.265
Mof_O 	O 	0.62617	0.0846	0.90013	-0.261
Mof_O 	O 	0.64829	0.9069	0.75915	-0.26
_end
