data_functionalizedCrystal
_audit_creation_method	'EQeq! by Chris Wilmer'
_symmetry_space_group_name_H-M	'P1'
_symmetry_Int_Tables_number	1
_symmetry_cell_setting	triclinic
loop_
_symmetry_equiv_pos_as_xyz
  x,y,z
_cell_length_a	8.8946
_cell_length_b	9.8125
_cell_length_c	12.2507
_cell_angle_alpha	81.742
_cell_angle_beta	71.831
_cell_angle_gamma	72.827
loop_
_atom_site_label
_atom_site_type_symbol
_atom_site_fract_x
_atom_site_fract_y
_atom_site_fract_z
_atom_site_charge
Mof_Mn	Mn	0.93886	0.34054	0.71726	0.996
Mof_Mn	Mn	0.40124	0.95431	0.92639	0.876
Mof_P 	P 	0.68817	0.11332	0.77624	0.554
Mof_P 	P 	0.71856	0.66904	0.81466	0.593
Mof_O 	O 	0.8223	0.1731	0.7863	-0.351
Mof_O 	O 	0.7462	0.0089	0.6817	-0.226
Mof_O 	O 	0.6084	0.0452	0.8929	-0.427
Mof_O 	O 	0.551	0.2402	0.7403	-0.412
Mof_H 	H 	0.5118	0.2992	0.7897	0.268
Mof_O 	O 	0.7404	0.5139	0.7972	-0.321
Mof_O 	O 	0.5486	0.7425	0.8865	-0.358
Mof_O 	O 	0.7615	0.7464	0.6934	-0.437
Mof_H 	H 	0.7403	0.8325	0.7002	0.313
Mof_O 	O 	0.8502	0.6752	0.8739	-0.43
Mof_H 	H 	0.8057	0.7273	0.928	0.293
Mof_O 	O 	0.888	0.3733	0.5522	-0.277
Mof_O 	O 	0.9178	0.507	0.3866	-0.257
Mof_O 	O 	0.3514	0.0129	0.7596	-0.279
Mof_O 	O 	0.1789	0.1665	0.6727	-0.259
Mof_O 	O 	0.2317	0.1783	0.9413	-0.327
Mof_O 	O 	0.0586	0.33	0.8534	-0.284
Mof_C 	C 	0.9435	0.4656	0.4825	0.253
Mof_C 	C 	0.2405	0.1239	0.7542	0.242
Mof_C 	C 	0.1696	0.2204	0.8607	0.256
Mof_Mn	Mn	0.06114	0.65946	0.28274	0.997
Mof_Mn	Mn	0.59876	0.04569	0.07361	0.877
Mof_P 	P 	0.31183	0.88668	0.22376	0.554
Mof_P 	P 	0.28144	0.33096	0.18534	0.593
Mof_O 	O 	0.1777	0.8269	0.2137	-0.351
Mof_O 	O 	0.2538	0.9911	0.3183	-0.226
Mof_O 	O 	0.3916	0.9548	0.1071	-0.427
Mof_O 	O 	0.449	0.7598	0.2597	-0.412
Mof_H 	H 	0.4882	0.7008	0.2103	0.268
Mof_O 	O 	0.2596	0.4861	0.2028	-0.321
Mof_O 	O 	0.4514	0.2575	0.1135	-0.358
Mof_O 	O 	0.2385	0.2536	0.3066	-0.437
Mof_H 	H 	0.2597	0.1675	0.2998	0.313
Mof_O 	O 	0.1498	0.3248	0.1261	-0.43
Mof_H 	H 	0.1943	0.2727	0.072	0.293
Mof_O 	O 	0.112	0.6267	0.4478	-0.277
Mof_O 	O 	0.0822	0.493	0.6134	-0.257
Mof_O 	O 	0.6486	0.9871	0.2404	-0.279
Mof_O 	O 	0.8211	0.8335	0.3273	-0.259
Mof_O 	O 	0.7683	0.8217	0.0587	-0.327
Mof_O 	O 	0.9414	0.67	0.1466	-0.284
Mof_C 	C 	0.0565	0.5344	0.5175	0.253
Mof_C 	C 	0.7595	0.8761	0.2458	0.242
Mof_C 	C 	0.8304	0.7796	0.1393	0.256
_end
