data_functionalizedCrystal
_audit_creation_method	'EQeq! by Chris Wilmer'
_symmetry_space_group_name_H-M	'P1'
_symmetry_Int_Tables_number	1
_symmetry_cell_setting	triclinic
loop_
_symmetry_equiv_pos_as_xyz
  x,y,z
_cell_length_a	28.4
_cell_length_b	28.4
_cell_length_c	28.4
_cell_angle_alpha	90
_cell_angle_beta	90
_cell_angle_gamma	90
loop_
_atom_site_label
_atom_site_type_symbol
_atom_site_fract_x
_atom_site_fract_y
_atom_site_fract_z
_atom_site_charge
Mof_C 	C 	0.4625	0.9306	0.0989	0.333
Mof_C 	C 	0.5043	0.9445	0.0695	-0.124
Mof_C 	C 	0.51678	0.91789	0.03078	0.049
Mof_H 	H 	0.4988	0.891	0.0224	0.033
Mof_C 	C 	0.3335	0.9245	0.1522	0.329
Mof_C 	C 	0.2966	0.906	0.1804	-0.631
Mof_H 	H 	0.2909	0.8731	0.1717	0.204
Mof_H 	H 	0.2679	0.9244	0.1753	0.183
Mof_H 	H 	0.3056	0.9077	0.2136	0.207
Mof_C 	C 	0.3265	0.968	0.1776	-0.551
Mof_H 	H 	0.3493	0.9915	0.1667	0.176
Mof_H 	H 	0.3309	0.9625	0.2113	0.182
Mof_H 	H 	0.2945	0.9796	0.1719	0.154
Mof_C 	C 	0.422	0.7531	0.0894	0.1
Mof_H 	H 	0.4178	0.7445	0.1215	-0.01
Mof_C 	C 	0.4338	0.7198	0.0578	-0.17
Mof_H 	H 	0.4385	0.6886	0.0689	0.089
Mof_C 	C 	0.4391	0.7275	0.0148	0.097
Mof_H 	H 	0.4465	0.7029	0.9933	0.014
Mof_C 	C 	0.4336	0.7735	0.0001	-0.144
Mof_H 	H 	0.4378	0.7811	0.9677	0.08
Mof_C 	C 	0.4221	0.8087	0.0315	0.09
Mof_H 	H 	0.4186	0.8403	0.0209	0.005
Mof_N 	N 	0.41613	0.79813	0.0765	-0.229
Mof_O 	O 	0.44338	0.89196	0.08802	-0.42
Mof_O 	O 	0.44844	0.95751	0.13087	-0.311
Mof_O 	O 	0.37847	0.90876	0.16664	-0.532
Mof_H 	H 	0.3992	0.9206	0.1491	0.233
Mof_C 	C 	0.0375	0.0694	0.5989	0.334
Mof_C 	C 	0.9957	0.0555	0.5695	-0.124
Mof_C 	C 	0.98322	0.08211	0.53078	0.05
Mof_H 	H 	0.0012	0.109	0.5224	0.034
Mof_C 	C 	0.1665	0.0755	0.6522	0.33
Mof_C 	C 	0.2034	0.094	0.6804	-0.63
Mof_H 	H 	0.2091	0.1269	0.6717	0.205
Mof_H 	H 	0.2321	0.0756	0.6753	0.184
Mof_H 	H 	0.1944	0.0923	0.7136	0.208
Mof_C 	C 	0.1735	0.032	0.6776	-0.55
Mof_H 	H 	0.1507	0.0085	0.6667	0.177
Mof_H 	H 	0.1691	0.0375	0.7113	0.183
Mof_H 	H 	0.2055	0.0204	0.6719	0.154
Mof_C 	C 	0.078	0.2469	0.5894	0.1
Mof_H 	H 	0.0822	0.2555	0.6215	-0.01
Mof_C 	C 	0.0662	0.2802	0.5578	-0.17
Mof_H 	H 	0.0615	0.3114	0.5689	0.089
Mof_C 	C 	0.0609	0.2725	0.5148	0.096
Mof_H 	H 	0.0535	0.2971	0.4933	0.014
Mof_C 	C 	0.0664	0.2265	0.5001	-0.144
Mof_H 	H 	0.0622	0.2189	0.4677	0.08
Mof_C 	C 	0.0779	0.1913	0.5315	0.09
Mof_H 	H 	0.0814	0.1597	0.5209	0.005
Mof_N 	N 	0.08387	0.20187	0.5765	-0.229
Mof_O 	O 	0.05662	0.10804	0.58802	-0.42
Mof_O 	O 	0.05156	0.04249	0.63087	-0.311
Mof_O 	O 	0.12153	0.09124	0.66664	-0.532
Mof_H 	H 	0.1008	0.0794	0.6491	0.233
Mof_C 	C 	0.5375	0.4306	0.4011	0.334
Mof_C 	C 	0.4957	0.4445	0.4305	-0.123
Mof_C 	C 	0.48322	0.41789	0.46922	0.05
Mof_H 	H 	0.5012	0.391	0.4776	0.034
Mof_C 	C 	0.6665	0.4245	0.3478	0.33
Mof_C 	C 	0.7034	0.406	0.3196	-0.63
Mof_H 	H 	0.7091	0.3731	0.3283	0.205
Mof_H 	H 	0.7321	0.4244	0.3247	0.184
Mof_H 	H 	0.6944	0.4077	0.2864	0.208
Mof_C 	C 	0.6735	0.468	0.3224	-0.55
Mof_H 	H 	0.6507	0.4915	0.3333	0.177
Mof_H 	H 	0.6691	0.4625	0.2887	0.183
Mof_H 	H 	0.7055	0.4796	0.3281	0.154
Mof_C 	C 	0.578	0.2531	0.4106	0.1
Mof_H 	H 	0.5822	0.2445	0.3785	-0.01
Mof_C 	C 	0.5662	0.2198	0.4422	-0.17
Mof_H 	H 	0.5615	0.1886	0.4311	0.089
Mof_C 	C 	0.5609	0.2275	0.4852	0.096
Mof_H 	H 	0.5535	0.2029	0.5067	0.014
Mof_C 	C 	0.5664	0.2735	0.4999	-0.144
Mof_H 	H 	0.5622	0.2811	0.5323	0.08
Mof_C 	C 	0.5779	0.3087	0.4685	0.09
Mof_H 	H 	0.5814	0.3403	0.4791	0.005
Mof_N 	N 	0.58387	0.29813	0.4235	-0.229
Mof_O 	O 	0.55662	0.39196	0.41198	-0.42
Mof_O 	O 	0.55156	0.45751	0.36913	-0.311
Mof_O 	O 	0.62153	0.40876	0.33336	-0.532
Mof_H 	H 	0.6008	0.4206	0.3509	0.233
Mof_C 	C 	0.9625	0.5694	0.9011	0.334
Mof_C 	C 	0.0043	0.5555	0.9305	-0.123
Mof_C 	C 	0.01678	0.58211	0.96922	0.05
Mof_H 	H 	0.9988	0.609	0.9776	0.034
Mof_C 	C 	0.8335	0.5755	0.8478	0.33
Mof_C 	C 	0.7966	0.594	0.8196	-0.63
Mof_H 	H 	0.7909	0.6269	0.8283	0.205
Mof_H 	H 	0.7679	0.5756	0.8247	0.184
Mof_H 	H 	0.8056	0.5923	0.7864	0.208
Mof_C 	C 	0.8265	0.532	0.8224	-0.55
Mof_H 	H 	0.8493	0.5085	0.8333	0.177
Mof_H 	H 	0.8309	0.5375	0.7887	0.183
Mof_H 	H 	0.7945	0.5204	0.8281	0.154
Mof_C 	C 	0.922	0.7469	0.9106	0.1
Mof_H 	H 	0.9178	0.7555	0.8785	-0.01
Mof_C 	C 	0.9338	0.7802	0.9422	-0.17
Mof_H 	H 	0.9385	0.8114	0.9311	0.089
Mof_C 	C 	0.9391	0.7725	0.9852	0.096
Mof_H 	H 	0.9465	0.7971	0.0067	0.014
Mof_C 	C 	0.9336	0.7265	0.9999	-0.144
Mof_H 	H 	0.9378	0.7189	0.0323	0.08
Mof_C 	C 	0.9221	0.6913	0.9685	0.09
Mof_H 	H 	0.9186	0.6597	0.9791	0.005
Mof_N 	N 	0.91613	0.70187	0.9235	-0.229
Mof_O 	O 	0.94338	0.60804	0.91198	-0.42
Mof_O 	O 	0.94844	0.54249	0.86913	-0.311
Mof_O 	O 	0.87847	0.59124	0.83336	-0.532
Mof_H 	H 	0.8992	0.5794	0.8509	0.233
Mof_C 	C 	0.0989	0.4625	0.9306	0.334
Mof_C 	C 	0.0695	0.5043	0.9445	-0.123
Mof_C 	C 	0.03078	0.51678	0.91789	0.05
Mof_H 	H 	0.0224	0.4988	0.891	0.034
Mof_C 	C 	0.1522	0.3335	0.9245	0.33
Mof_C 	C 	0.1804	0.2966	0.906	-0.63
Mof_H 	H 	0.1717	0.2909	0.8731	0.205
Mof_H 	H 	0.1753	0.2679	0.9244	0.184
Mof_H 	H 	0.2136	0.3056	0.9077	0.208
Mof_C 	C 	0.1776	0.3265	0.968	-0.55
Mof_H 	H 	0.1667	0.3493	0.9915	0.177
Mof_H 	H 	0.2113	0.3309	0.9625	0.183
Mof_H 	H 	0.1719	0.2945	0.9796	0.154
Mof_C 	C 	0.0894	0.422	0.7531	0.1
Mof_H 	H 	0.1215	0.4178	0.7445	-0.01
Mof_C 	C 	0.0578	0.4338	0.7198	-0.17
Mof_H 	H 	0.0689	0.4385	0.6886	0.089
Mof_C 	C 	0.0148	0.4391	0.7275	0.097
Mof_H 	H 	0.9933	0.4465	0.7029	0.014
Mof_C 	C 	0.0001	0.4336	0.7735	-0.144
Mof_H 	H 	0.9677	0.4378	0.7811	0.08
Mof_C 	C 	0.0315	0.4221	0.8087	0.09
Mof_H 	H 	0.0209	0.4186	0.8403	0.005
Mof_N 	N 	0.0765	0.41613	0.79813	-0.229
Mof_O 	O 	0.08802	0.44338	0.89196	-0.42
Mof_O 	O 	0.13087	0.44844	0.95751	-0.311
Mof_O 	O 	0.16664	0.37847	0.90876	-0.532
Mof_H 	H 	0.1491	0.3992	0.9206	0.233
Mof_C 	C 	0.5989	0.0375	0.0694	0.334
Mof_C 	C 	0.5695	0.9957	0.0555	-0.124
Mof_C 	C 	0.53078	0.98322	0.08211	0.05
Mof_H 	H 	0.5224	0.0012	0.109	0.034
Mof_C 	C 	0.6522	0.1665	0.0755	0.33
Mof_C 	C 	0.6804	0.2034	0.094	-0.63
Mof_H 	H 	0.6717	0.2091	0.1269	0.205
Mof_H 	H 	0.6753	0.2321	0.0756	0.184
Mof_H 	H 	0.7136	0.1944	0.0923	0.208
Mof_C 	C 	0.6776	0.1735	0.032	-0.55
Mof_H 	H 	0.6667	0.1507	0.0085	0.177
Mof_H 	H 	0.7113	0.1691	0.0375	0.183
Mof_H 	H 	0.6719	0.2055	0.0204	0.154
Mof_C 	C 	0.5894	0.078	0.2469	0.1
Mof_H 	H 	0.6215	0.0822	0.2555	-0.01
Mof_C 	C 	0.5578	0.0662	0.2802	-0.17
Mof_H 	H 	0.5689	0.0615	0.3114	0.089
Mof_C 	C 	0.5148	0.0609	0.2725	0.096
Mof_H 	H 	0.4933	0.0535	0.2971	0.014
Mof_C 	C 	0.5001	0.0664	0.2265	-0.144
Mof_H 	H 	0.4677	0.0622	0.2189	0.08
Mof_C 	C 	0.5315	0.0779	0.1913	0.09
Mof_H 	H 	0.5209	0.0814	0.1597	0.005
Mof_N 	N 	0.5765	0.08387	0.20187	-0.229
Mof_O 	O 	0.58802	0.05662	0.10804	-0.42
Mof_O 	O 	0.63087	0.05156	0.04249	-0.311
Mof_O 	O 	0.66664	0.12153	0.09124	-0.532
Mof_H 	H 	0.6491	0.1008	0.0794	0.233
Mof_C 	C 	0.4011	0.5375	0.4306	0.334
Mof_C 	C 	0.4305	0.4957	0.4445	-0.123
Mof_C 	C 	0.46922	0.48322	0.41789	0.05
Mof_H 	H 	0.4776	0.5012	0.391	0.034
Mof_C 	C 	0.3478	0.6665	0.4245	0.33
Mof_C 	C 	0.3196	0.7034	0.406	-0.63
Mof_H 	H 	0.3283	0.7091	0.3731	0.205
Mof_H 	H 	0.3247	0.7321	0.4244	0.184
Mof_H 	H 	0.2864	0.6944	0.4077	0.208
Mof_C 	C 	0.3224	0.6735	0.468	-0.55
Mof_H 	H 	0.3333	0.6507	0.4915	0.177
Mof_H 	H 	0.2887	0.6691	0.4625	0.183
Mof_H 	H 	0.3281	0.7055	0.4796	0.154
Mof_C 	C 	0.4106	0.578	0.2531	0.1
Mof_H 	H 	0.3785	0.5822	0.2445	-0.01
Mof_C 	C 	0.4422	0.5662	0.2198	-0.17
Mof_H 	H 	0.4311	0.5615	0.1886	0.089
Mof_C 	C 	0.4852	0.5609	0.2275	0.096
Mof_H 	H 	0.5067	0.5535	0.2029	0.014
Mof_C 	C 	0.4999	0.5664	0.2735	-0.144
Mof_H 	H 	0.5323	0.5622	0.2811	0.08
Mof_C 	C 	0.4685	0.5779	0.3087	0.09
Mof_H 	H 	0.4791	0.5814	0.3403	0.005
Mof_N 	N 	0.4235	0.58387	0.29813	-0.229
Mof_O 	O 	0.41198	0.55662	0.39196	-0.42
Mof_O 	O 	0.36913	0.55156	0.45751	-0.311
Mof_O 	O 	0.33336	0.62153	0.40876	-0.532
Mof_H 	H 	0.3509	0.6008	0.4206	0.233
Mof_C 	C 	0.9011	0.9625	0.5694	0.334
Mof_C 	C 	0.9305	0.0043	0.5555	-0.123
Mof_C 	C 	0.96922	0.01678	0.58211	0.05
Mof_H 	H 	0.9776	0.9988	0.609	0.034
Mof_C 	C 	0.8478	0.8335	0.5755	0.33
Mof_C 	C 	0.8196	0.7966	0.594	-0.63
Mof_H 	H 	0.8283	0.7909	0.6269	0.205
Mof_H 	H 	0.8247	0.7679	0.5756	0.184
Mof_H 	H 	0.7864	0.8056	0.5923	0.208
Mof_C 	C 	0.8224	0.8265	0.532	-0.55
Mof_H 	H 	0.8333	0.8493	0.5085	0.177
Mof_H 	H 	0.7887	0.8309	0.5375	0.183
Mof_H 	H 	0.8281	0.7945	0.5204	0.154
Mof_C 	C 	0.9106	0.922	0.7469	0.1
Mof_H 	H 	0.8785	0.9178	0.7555	-0.01
Mof_C 	C 	0.9422	0.9338	0.7802	-0.17
Mof_H 	H 	0.9311	0.9385	0.8114	0.089
Mof_C 	C 	0.9852	0.9391	0.7725	0.096
Mof_H 	H 	0.0067	0.9465	0.7971	0.014
Mof_C 	C 	0.9999	0.9336	0.7265	-0.144
Mof_H 	H 	0.0323	0.9378	0.7189	0.08
Mof_C 	C 	0.9685	0.9221	0.6913	0.09
Mof_H 	H 	0.9791	0.9186	0.6597	0.005
Mof_N 	N 	0.9235	0.91613	0.70187	-0.229
Mof_O 	O 	0.91198	0.94338	0.60804	-0.42
Mof_O 	O 	0.86913	0.94844	0.54249	-0.311
Mof_O 	O 	0.83336	0.87847	0.59124	-0.532
Mof_H 	H 	0.8509	0.8992	0.5794	0.233
Mof_C 	C 	0.9306	0.0989	0.4625	0.334
Mof_C 	C 	0.9445	0.0695	0.5043	-0.123
Mof_C 	C 	0.91789	0.03078	0.51678	0.05
Mof_H 	H 	0.891	0.0224	0.4988	0.034
Mof_C 	C 	0.9245	0.1522	0.3335	0.33
Mof_C 	C 	0.906	0.1804	0.2966	-0.63
Mof_H 	H 	0.8731	0.1717	0.2909	0.205
Mof_H 	H 	0.9244	0.1753	0.2679	0.184
Mof_H 	H 	0.9077	0.2136	0.3056	0.208
Mof_C 	C 	0.968	0.1776	0.3265	-0.55
Mof_H 	H 	0.9915	0.1667	0.3493	0.177
Mof_H 	H 	0.9625	0.2113	0.3309	0.183
Mof_H 	H 	0.9796	0.1719	0.2945	0.154
Mof_C 	C 	0.7531	0.0894	0.422	0.1
Mof_H 	H 	0.7445	0.1215	0.4178	-0.01
Mof_C 	C 	0.7198	0.0578	0.4338	-0.17
Mof_H 	H 	0.6886	0.0689	0.4385	0.089
Mof_C 	C 	0.7275	0.0148	0.4391	0.097
Mof_H 	H 	0.7029	0.9933	0.4465	0.014
Mof_C 	C 	0.7735	0.0001	0.4336	-0.144
Mof_H 	H 	0.7811	0.9677	0.4378	0.08
Mof_C 	C 	0.8087	0.0315	0.4221	0.09
Mof_H 	H 	0.8403	0.0209	0.4186	0.005
Mof_N 	N 	0.79813	0.0765	0.41613	-0.229
Mof_O 	O 	0.89196	0.08802	0.44338	-0.42
Mof_O 	O 	0.95751	0.13087	0.44844	-0.311
Mof_O 	O 	0.90876	0.16664	0.37847	-0.532
Mof_H 	H 	0.9206	0.1491	0.3992	0.233
Mof_C 	C 	0.0694	0.5989	0.0375	0.334
Mof_C 	C 	0.0555	0.5695	0.9957	-0.124
Mof_C 	C 	0.08211	0.53078	0.98322	0.05
Mof_H 	H 	0.109	0.5224	0.0012	0.034
Mof_C 	C 	0.0755	0.6522	0.1665	0.33
Mof_C 	C 	0.094	0.6804	0.2034	-0.63
Mof_H 	H 	0.1269	0.6717	0.2091	0.205
Mof_H 	H 	0.0756	0.6753	0.2321	0.184
Mof_H 	H 	0.0923	0.7136	0.1944	0.208
Mof_C 	C 	0.032	0.6776	0.1735	-0.55
Mof_H 	H 	0.0085	0.6667	0.1507	0.177
Mof_H 	H 	0.0375	0.7113	0.1691	0.183
Mof_H 	H 	0.0204	0.6719	0.2055	0.154
Mof_C 	C 	0.2469	0.5894	0.078	0.1
Mof_H 	H 	0.2555	0.6215	0.0822	-0.01
Mof_C 	C 	0.2802	0.5578	0.0662	-0.17
Mof_H 	H 	0.3114	0.5689	0.0615	0.089
Mof_C 	C 	0.2725	0.5148	0.0609	0.096
Mof_H 	H 	0.2971	0.4933	0.0535	0.014
Mof_C 	C 	0.2265	0.5001	0.0664	-0.144
Mof_H 	H 	0.2189	0.4677	0.0622	0.08
Mof_C 	C 	0.1913	0.5315	0.0779	0.09
Mof_H 	H 	0.1597	0.5209	0.0814	0.005
Mof_N 	N 	0.20187	0.5765	0.08387	-0.229
Mof_O 	O 	0.10804	0.58802	0.05662	-0.42
Mof_O 	O 	0.04249	0.63087	0.05156	-0.311
Mof_O 	O 	0.09124	0.66664	0.12153	-0.532
Mof_H 	H 	0.0794	0.6491	0.1008	0.233
Mof_C 	C 	0.4306	0.4011	0.5375	0.334
Mof_C 	C 	0.4445	0.4305	0.4957	-0.123
Mof_C 	C 	0.41789	0.46922	0.48322	0.05
Mof_H 	H 	0.391	0.4776	0.5012	0.034
Mof_C 	C 	0.4245	0.3478	0.6665	0.33
Mof_C 	C 	0.406	0.3196	0.7034	-0.63
Mof_H 	H 	0.3731	0.3283	0.7091	0.205
Mof_H 	H 	0.4244	0.3247	0.7321	0.184
Mof_H 	H 	0.4077	0.2864	0.6944	0.208
Mof_C 	C 	0.468	0.3224	0.6735	-0.55
Mof_H 	H 	0.4915	0.3333	0.6507	0.177
Mof_H 	H 	0.4625	0.2887	0.6691	0.183
Mof_H 	H 	0.4796	0.3281	0.7055	0.154
Mof_C 	C 	0.2531	0.4106	0.578	0.1
Mof_H 	H 	0.2445	0.3785	0.5822	-0.01
Mof_C 	C 	0.2198	0.4422	0.5662	-0.17
Mof_H 	H 	0.1886	0.4311	0.5615	0.089
Mof_C 	C 	0.2275	0.4852	0.5609	0.096
Mof_H 	H 	0.2029	0.5067	0.5535	0.014
Mof_C 	C 	0.2735	0.4999	0.5664	-0.144
Mof_H 	H 	0.2811	0.5323	0.5622	0.08
Mof_C 	C 	0.3087	0.4685	0.5779	0.09
Mof_H 	H 	0.3403	0.4791	0.5814	0.005
Mof_N 	N 	0.29813	0.4235	0.58387	-0.229
Mof_O 	O 	0.39196	0.41198	0.55662	-0.42
Mof_O 	O 	0.45751	0.36913	0.55156	-0.311
Mof_O 	O 	0.40876	0.33336	0.62153	-0.532
Mof_H 	H 	0.4206	0.3509	0.6008	0.233
Mof_C 	C 	0.5694	0.9011	0.9625	0.334
Mof_C 	C 	0.5555	0.9305	0.0043	-0.123
Mof_C 	C 	0.58211	0.96922	0.01678	0.05
Mof_H 	H 	0.609	0.9776	0.9988	0.034
Mof_C 	C 	0.5755	0.8478	0.8335	0.33
Mof_C 	C 	0.594	0.8196	0.7966	-0.63
Mof_H 	H 	0.6269	0.8283	0.7909	0.205
Mof_H 	H 	0.5756	0.8247	0.7679	0.184
Mof_H 	H 	0.5923	0.7864	0.8056	0.208
Mof_C 	C 	0.532	0.8224	0.8265	-0.55
Mof_H 	H 	0.5085	0.8333	0.8493	0.177
Mof_H 	H 	0.5375	0.7887	0.8309	0.183
Mof_H 	H 	0.5204	0.8281	0.7945	0.154
Mof_C 	C 	0.7469	0.9106	0.922	0.1
Mof_H 	H 	0.7555	0.8785	0.9178	-0.01
Mof_C 	C 	0.7802	0.9422	0.9338	-0.17
Mof_H 	H 	0.8114	0.9311	0.9385	0.089
Mof_C 	C 	0.7725	0.9852	0.9391	0.096
Mof_H 	H 	0.7971	0.0067	0.9465	0.014
Mof_C 	C 	0.7265	0.9999	0.9336	-0.144
Mof_H 	H 	0.7189	0.0323	0.9378	0.08
Mof_C 	C 	0.6913	0.9685	0.9221	0.09
Mof_H 	H 	0.6597	0.9791	0.9186	0.005
Mof_N 	N 	0.70187	0.9235	0.91613	-0.229
Mof_O 	O 	0.60804	0.91198	0.94338	-0.42
Mof_O 	O 	0.54249	0.86913	0.94844	-0.311
Mof_O 	O 	0.59124	0.83336	0.87847	-0.532
Mof_H 	H 	0.5794	0.8509	0.8992	0.233
Mof_C 	C 	0.1806	0.2125	0.6511	0.334
Mof_C 	C 	0.1945	0.2543	0.6805	-0.123
Mof_C 	C 	0.16789	0.26678	0.71922	0.05
Mof_H 	H 	0.141	0.2488	0.7276	0.034
Mof_C 	C 	0.1745	0.0835	0.5978	0.33
Mof_C 	C 	0.156	0.0466	0.5696	-0.63
Mof_H 	H 	0.1231	0.0409	0.5783	0.205
Mof_H 	H 	0.1744	0.0179	0.5747	0.184
Mof_H 	H 	0.1577	0.0556	0.5364	0.208
Mof_C 	C 	0.218	0.0765	0.5724	-0.55
Mof_H 	H 	0.2415	0.0993	0.5833	0.177
Mof_H 	H 	0.2125	0.0809	0.5387	0.183
Mof_H 	H 	0.2296	0.0445	0.5781	0.154
Mof_C 	C 	0.0031	0.172	0.6606	0.1
Mof_H 	H 	0.9945	0.1678	0.6285	-0.01
Mof_C 	C 	0.9698	0.1838	0.6922	-0.17
Mof_H 	H 	0.9386	0.1885	0.6811	0.089
Mof_C 	C 	0.9775	0.1891	0.7352	0.097
Mof_H 	H 	0.9529	0.1965	0.7567	0.014
Mof_C 	C 	0.0235	0.1836	0.7499	-0.144
Mof_H 	H 	0.0311	0.1878	0.7823	0.08
Mof_C 	C 	0.0587	0.1721	0.7185	0.09
Mof_H 	H 	0.0903	0.1686	0.7291	0.005
Mof_N 	N 	0.04813	0.16613	0.6735	-0.229
Mof_O 	O 	0.14196	0.19338	0.66198	-0.42
Mof_O 	O 	0.20751	0.19844	0.61913	-0.311
Mof_O 	O 	0.15876	0.12847	0.58336	-0.532
Mof_H 	H 	0.1706	0.1492	0.6009	0.233
Mof_C 	C 	0.3194	0.7875	0.1511	0.334
Mof_C 	C 	0.3055	0.7457	0.1805	-0.123
Mof_C 	C 	0.33211	0.73322	0.21922	0.05
Mof_H 	H 	0.359	0.7512	0.2276	0.034
Mof_C 	C 	0.3255	0.9165	0.0978	0.33
Mof_C 	C 	0.344	0.9534	0.0696	-0.63
Mof_H 	H 	0.3769	0.9591	0.0783	0.205
Mof_H 	H 	0.3256	0.9821	0.0747	0.184
Mof_H 	H 	0.3423	0.9444	0.0364	0.208
Mof_C 	C 	0.282	0.9235	0.0724	-0.55
Mof_H 	H 	0.2585	0.9007	0.0833	0.177
Mof_H 	H 	0.2875	0.9191	0.0387	0.183
Mof_H 	H 	0.2704	0.9555	0.0781	0.154
Mof_C 	C 	0.4969	0.828	0.1606	0.1
Mof_H 	H 	0.5055	0.8322	0.1285	-0.01
Mof_C 	C 	0.5302	0.8162	0.1922	-0.17
Mof_H 	H 	0.5614	0.8115	0.1811	0.089
Mof_C 	C 	0.5225	0.8109	0.2352	0.096
Mof_H 	H 	0.5471	0.8035	0.2567	0.014
Mof_C 	C 	0.4765	0.8164	0.2499	-0.144
Mof_H 	H 	0.4689	0.8122	0.2823	0.08
Mof_C 	C 	0.4413	0.8279	0.2185	0.09
Mof_H 	H 	0.4097	0.8314	0.2291	0.005
Mof_N 	N 	0.45187	0.83387	0.1735	-0.229
Mof_O 	O 	0.35804	0.80662	0.16198	-0.42
Mof_O 	O 	0.29249	0.80156	0.11913	-0.311
Mof_O 	O 	0.34124	0.87153	0.08336	-0.532
Mof_H 	H 	0.3294	0.8508	0.1009	0.233
Mof_C 	C 	0.6806	0.2875	0.3489	0.334
Mof_C 	C 	0.6945	0.2457	0.3195	-0.123
Mof_C 	C 	0.66789	0.23322	0.28078	0.05
Mof_H 	H 	0.641	0.2512	0.2724	0.034
Mof_C 	C 	0.6745	0.4165	0.4022	0.33
Mof_C 	C 	0.656	0.4534	0.4304	-0.63
Mof_H 	H 	0.6231	0.4591	0.4217	0.205
Mof_H 	H 	0.6744	0.4821	0.4253	0.184
Mof_H 	H 	0.6577	0.4444	0.4636	0.208
Mof_C 	C 	0.718	0.4235	0.4276	-0.55
Mof_H 	H 	0.7415	0.4007	0.4167	0.177
Mof_H 	H 	0.7125	0.4191	0.4613	0.183
Mof_H 	H 	0.7296	0.4555	0.4219	0.154
Mof_C 	C 	0.5031	0.328	0.3394	0.1
Mof_H 	H 	0.4945	0.3322	0.3715	-0.01
Mof_C 	C 	0.4698	0.3162	0.3078	-0.17
Mof_H 	H 	0.4386	0.3115	0.3189	0.089
Mof_C 	C 	0.4775	0.3109	0.2648	0.096
Mof_H 	H 	0.4529	0.3035	0.2433	0.014
Mof_C 	C 	0.5235	0.3164	0.2501	-0.144
Mof_H 	H 	0.5311	0.3122	0.2177	0.08
Mof_C 	C 	0.5587	0.3279	0.2815	0.09
Mof_H 	H 	0.5903	0.3314	0.2709	0.005
Mof_N 	N 	0.54813	0.33387	0.3265	-0.229
Mof_O 	O 	0.64196	0.30662	0.33802	-0.42
Mof_O 	O 	0.70751	0.30156	0.38087	-0.311
Mof_O 	O 	0.65876	0.37153	0.41664	-0.532
Mof_H 	H 	0.6706	0.3508	0.3991	0.233
Mof_C 	C 	0.8194	0.7125	0.8489	0.334
Mof_C 	C 	0.8055	0.7543	0.8195	-0.123
Mof_C 	C 	0.83211	0.76678	0.78078	0.05
Mof_H 	H 	0.859	0.7488	0.7724	0.034
Mof_C 	C 	0.8255	0.5835	0.9022	0.33
Mof_C 	C 	0.844	0.5466	0.9304	-0.629
Mof_H 	H 	0.8769	0.5409	0.9217	0.205
Mof_H 	H 	0.8256	0.5179	0.9253	0.184
Mof_H 	H 	0.8423	0.5556	0.9636	0.208
Mof_C 	C 	0.782	0.5765	0.9276	-0.55
Mof_H 	H 	0.7585	0.5993	0.9167	0.177
Mof_H 	H 	0.7875	0.5809	0.9613	0.183
Mof_H 	H 	0.7704	0.5445	0.9219	0.154
Mof_C 	C 	0.9969	0.672	0.8394	0.1
Mof_H 	H 	0.0055	0.6678	0.8715	-0.01
Mof_C 	C 	0.0302	0.6838	0.8078	-0.17
Mof_H 	H 	0.0614	0.6885	0.8189	0.089
Mof_C 	C 	0.0225	0.6891	0.7648	0.096
Mof_H 	H 	0.0471	0.6965	0.7433	0.014
Mof_C 	C 	0.9765	0.6836	0.7501	-0.144
Mof_H 	H 	0.9689	0.6878	0.7177	0.08
Mof_C 	C 	0.9413	0.6721	0.7815	0.09
Mof_H 	H 	0.9097	0.6686	0.7709	0.005
Mof_N 	N 	0.95187	0.66613	0.8265	-0.229
Mof_O 	O 	0.85804	0.69338	0.83802	-0.42
Mof_O 	O 	0.79249	0.69844	0.88087	-0.311
Mof_O 	O 	0.84124	0.62847	0.91664	-0.532
Mof_H 	H 	0.8294	0.6492	0.8991	0.233
Mof_C 	C 	0.7125	0.8489	0.8194	0.334
Mof_C 	C 	0.7543	0.8195	0.8055	-0.123
Mof_C 	C 	0.76678	0.78078	0.83211	0.05
Mof_H 	H 	0.7488	0.7724	0.859	0.034
Mof_C 	C 	0.5835	0.9022	0.8255	0.33
Mof_C 	C 	0.5466	0.9304	0.844	-0.629
Mof_H 	H 	0.5409	0.9217	0.8769	0.205
Mof_H 	H 	0.5179	0.9253	0.8256	0.184
Mof_H 	H 	0.5556	0.9636	0.8423	0.208
Mof_C 	C 	0.5765	0.9276	0.782	-0.55
Mof_H 	H 	0.5993	0.9167	0.7585	0.177
Mof_H 	H 	0.5809	0.9613	0.7875	0.183
Mof_H 	H 	0.5445	0.9219	0.7704	0.154
Mof_C 	C 	0.672	0.8394	0.9969	0.1
Mof_H 	H 	0.6678	0.8715	0.0055	-0.01
Mof_C 	C 	0.6838	0.8078	0.0302	-0.17
Mof_H 	H 	0.6885	0.8189	0.0614	0.089
Mof_C 	C 	0.6891	0.7648	0.0225	0.096
Mof_H 	H 	0.6965	0.7433	0.0471	0.014
Mof_C 	C 	0.6836	0.7501	0.9765	-0.144
Mof_H 	H 	0.6878	0.7177	0.9689	0.08
Mof_C 	C 	0.6721	0.7815	0.9413	0.09
Mof_H 	H 	0.6686	0.7709	0.9097	0.005
Mof_N 	N 	0.66613	0.8265	0.95187	-0.229
Mof_O 	O 	0.69338	0.83802	0.85804	-0.42
Mof_O 	O 	0.69844	0.88087	0.79249	-0.311
Mof_O 	O 	0.62847	0.91664	0.84124	-0.532
Mof_H 	H 	0.6492	0.8991	0.8294	0.233
Mof_C 	C 	0.2875	0.3489	0.6806	0.334
Mof_C 	C 	0.2457	0.3195	0.6945	-0.123
Mof_C 	C 	0.23322	0.28078	0.66789	0.05
Mof_H 	H 	0.2512	0.2724	0.641	0.034
Mof_C 	C 	0.4165	0.4022	0.6745	0.33
Mof_C 	C 	0.4534	0.4304	0.656	-0.63
Mof_H 	H 	0.4591	0.4217	0.6231	0.205
Mof_H 	H 	0.4821	0.4253	0.6744	0.184
Mof_H 	H 	0.4444	0.4636	0.6577	0.208
Mof_C 	C 	0.4235	0.4276	0.718	-0.55
Mof_H 	H 	0.4007	0.4167	0.7415	0.177
Mof_H 	H 	0.4191	0.4613	0.7125	0.183
Mof_H 	H 	0.4555	0.4219	0.7296	0.154
Mof_C 	C 	0.328	0.3394	0.5031	0.1
Mof_H 	H 	0.3322	0.3715	0.4945	-0.01
Mof_C 	C 	0.3162	0.3078	0.4698	-0.17
Mof_H 	H 	0.3115	0.3189	0.4386	0.089
Mof_C 	C 	0.3109	0.2648	0.4775	0.096
Mof_H 	H 	0.3035	0.2433	0.4529	0.014
Mof_C 	C 	0.3164	0.2501	0.5235	-0.144
Mof_H 	H 	0.3122	0.2177	0.5311	0.08
Mof_C 	C 	0.3279	0.2815	0.5587	0.09
Mof_H 	H 	0.3314	0.2709	0.5903	0.005
Mof_N 	N 	0.33387	0.3265	0.54813	-0.229
Mof_O 	O 	0.30662	0.33802	0.64196	-0.42
Mof_O 	O 	0.30156	0.38087	0.70751	-0.311
Mof_O 	O 	0.37153	0.41664	0.65876	-0.532
Mof_H 	H 	0.3508	0.3991	0.6706	0.233
Mof_C 	C 	0.7875	0.1511	0.3194	0.334
Mof_C 	C 	0.7457	0.1805	0.3055	-0.123
Mof_C 	C 	0.73322	0.21922	0.33211	0.05
Mof_H 	H 	0.7512	0.2276	0.359	0.034
Mof_C 	C 	0.9165	0.0978	0.3255	0.33
Mof_C 	C 	0.9534	0.0696	0.344	-0.63
Mof_H 	H 	0.9591	0.0783	0.3769	0.205
Mof_H 	H 	0.9821	0.0747	0.3256	0.184
Mof_H 	H 	0.9444	0.0364	0.3423	0.208
Mof_C 	C 	0.9235	0.0724	0.282	-0.55
Mof_H 	H 	0.9007	0.0833	0.2585	0.177
Mof_H 	H 	0.9191	0.0387	0.2875	0.183
Mof_H 	H 	0.9555	0.0781	0.2704	0.154
Mof_C 	C 	0.828	0.1606	0.4969	0.1
Mof_H 	H 	0.8322	0.1285	0.5055	-0.01
Mof_C 	C 	0.8162	0.1922	0.5302	-0.17
Mof_H 	H 	0.8115	0.1811	0.5614	0.089
Mof_C 	C 	0.8109	0.2352	0.5225	0.096
Mof_H 	H 	0.8035	0.2567	0.5471	0.014
Mof_C 	C 	0.8164	0.2499	0.4765	-0.144
Mof_H 	H 	0.8122	0.2823	0.4689	0.08
Mof_C 	C 	0.8279	0.2185	0.4413	0.09
Mof_H 	H 	0.8314	0.2291	0.4097	0.005
Mof_N 	N 	0.83387	0.1735	0.45187	-0.229
Mof_O 	O 	0.80662	0.16198	0.35804	-0.42
Mof_O 	O 	0.80156	0.11913	0.29249	-0.311
Mof_O 	O 	0.87153	0.08336	0.34124	-0.532
Mof_H 	H 	0.8508	0.1009	0.3294	0.233
Mof_C 	C 	0.2125	0.6511	0.1806	0.334
Mof_C 	C 	0.2543	0.6805	0.1945	-0.123
Mof_C 	C 	0.26678	0.71922	0.16789	0.05
Mof_H 	H 	0.2488	0.7276	0.141	0.034
Mof_C 	C 	0.0835	0.5978	0.1745	0.33
Mof_C 	C 	0.0466	0.5696	0.156	-0.63
Mof_H 	H 	0.0409	0.5783	0.1231	0.205
Mof_H 	H 	0.0179	0.5747	0.1744	0.184
Mof_H 	H 	0.0556	0.5364	0.1577	0.208
Mof_C 	C 	0.0765	0.5724	0.218	-0.55
Mof_H 	H 	0.0993	0.5833	0.2415	0.177
Mof_H 	H 	0.0809	0.5387	0.2125	0.183
Mof_H 	H 	0.0445	0.5781	0.2296	0.154
Mof_C 	C 	0.172	0.6606	0.0031	0.1
Mof_H 	H 	0.1678	0.6285	0.9945	-0.01
Mof_C 	C 	0.1838	0.6922	0.9698	-0.17
Mof_H 	H 	0.1885	0.6811	0.9386	0.089
Mof_C 	C 	0.1891	0.7352	0.9775	0.097
Mof_H 	H 	0.1965	0.7567	0.9529	0.014
Mof_C 	C 	0.1836	0.7499	0.0235	-0.144
Mof_H 	H 	0.1878	0.7823	0.0311	0.08
Mof_C 	C 	0.1721	0.7185	0.0587	0.09
Mof_H 	H 	0.1686	0.7291	0.0903	0.005
Mof_N 	N 	0.16613	0.6735	0.04813	-0.229
Mof_O 	O 	0.19338	0.66198	0.14196	-0.42
Mof_O 	O 	0.19844	0.61913	0.20751	-0.311
Mof_O 	O 	0.12847	0.58336	0.15876	-0.532
Mof_H 	H 	0.1492	0.6009	0.1706	0.233
Mof_C 	C 	0.3489	0.6806	0.2875	0.334
Mof_C 	C 	0.3195	0.6945	0.2457	-0.123
Mof_C 	C 	0.28078	0.66789	0.23322	0.05
Mof_H 	H 	0.2724	0.641	0.2512	0.034
Mof_C 	C 	0.4022	0.6745	0.4165	0.33
Mof_C 	C 	0.4304	0.656	0.4534	-0.63
Mof_H 	H 	0.4217	0.6231	0.4591	0.205
Mof_H 	H 	0.4253	0.6744	0.4821	0.184
Mof_H 	H 	0.4636	0.6577	0.4444	0.208
Mof_C 	C 	0.4276	0.718	0.4235	-0.55
Mof_H 	H 	0.4167	0.7415	0.4007	0.177
Mof_H 	H 	0.4613	0.7125	0.4191	0.183
Mof_H 	H 	0.4219	0.7296	0.4555	0.154
Mof_C 	C 	0.3394	0.5031	0.328	0.1
Mof_H 	H 	0.3715	0.4945	0.3322	-0.01
Mof_C 	C 	0.3078	0.4698	0.3162	-0.17
Mof_H 	H 	0.3189	0.4386	0.3115	0.089
Mof_C 	C 	0.2648	0.4775	0.3109	0.096
Mof_H 	H 	0.2433	0.4529	0.3035	0.014
Mof_C 	C 	0.2501	0.5235	0.3164	-0.144
Mof_H 	H 	0.2177	0.5311	0.3122	0.08
Mof_C 	C 	0.2815	0.5587	0.3279	0.09
Mof_H 	H 	0.2709	0.5903	0.3314	0.005
Mof_N 	N 	0.3265	0.54813	0.33387	-0.229
Mof_O 	O 	0.33802	0.64196	0.30662	-0.42
Mof_O 	O 	0.38087	0.70751	0.30156	-0.311
Mof_O 	O 	0.41664	0.65876	0.37153	-0.532
Mof_H 	H 	0.3991	0.6706	0.3508	0.233
Mof_C 	C 	0.8489	0.8194	0.7125	0.334
Mof_C 	C 	0.8195	0.8055	0.7543	-0.123
Mof_C 	C 	0.78078	0.83211	0.76678	0.05
Mof_H 	H 	0.7724	0.859	0.7488	0.034
Mof_C 	C 	0.9022	0.8255	0.5835	0.33
Mof_C 	C 	0.9304	0.844	0.5466	-0.629
Mof_H 	H 	0.9217	0.8769	0.5409	0.205
Mof_H 	H 	0.9253	0.8256	0.5179	0.184
Mof_H 	H 	0.9636	0.8423	0.5556	0.208
Mof_C 	C 	0.9276	0.782	0.5765	-0.55
Mof_H 	H 	0.9167	0.7585	0.5993	0.177
Mof_H 	H 	0.9613	0.7875	0.5809	0.183
Mof_H 	H 	0.9219	0.7704	0.5445	0.154
Mof_C 	C 	0.8394	0.9969	0.672	0.1
Mof_H 	H 	0.8715	0.0055	0.6678	-0.01
Mof_C 	C 	0.8078	0.0302	0.6838	-0.17
Mof_H 	H 	0.8189	0.0614	0.6885	0.089
Mof_C 	C 	0.7648	0.0225	0.6891	0.096
Mof_H 	H 	0.7433	0.0471	0.6965	0.014
Mof_C 	C 	0.7501	0.9765	0.6836	-0.144
Mof_H 	H 	0.7177	0.9689	0.6878	0.08
Mof_C 	C 	0.7815	0.9413	0.6721	0.09
Mof_H 	H 	0.7709	0.9097	0.6686	0.005
Mof_N 	N 	0.8265	0.95187	0.66613	-0.229
Mof_O 	O 	0.83802	0.85804	0.69338	-0.42
Mof_O 	O 	0.88087	0.79249	0.69844	-0.311
Mof_O 	O 	0.91664	0.84124	0.62847	-0.532
Mof_H 	H 	0.8991	0.8294	0.6492	0.233
Mof_C 	C 	0.6511	0.1806	0.2125	0.334
Mof_C 	C 	0.6805	0.1945	0.2543	-0.123
Mof_C 	C 	0.71922	0.16789	0.26678	0.05
Mof_H 	H 	0.7276	0.141	0.2488	0.034
Mof_C 	C 	0.5978	0.1745	0.0835	0.33
Mof_C 	C 	0.5696	0.156	0.0466	-0.63
Mof_H 	H 	0.5783	0.1231	0.0409	0.205
Mof_H 	H 	0.5747	0.1744	0.0179	0.184
Mof_H 	H 	0.5364	0.1577	0.0556	0.208
Mof_C 	C 	0.5724	0.218	0.0765	-0.55
Mof_H 	H 	0.5833	0.2415	0.0993	0.177
Mof_H 	H 	0.5387	0.2125	0.0809	0.183
Mof_H 	H 	0.5781	0.2296	0.0445	0.154
Mof_C 	C 	0.6606	0.0031	0.172	0.1
Mof_H 	H 	0.6285	0.9945	0.1678	-0.01
Mof_C 	C 	0.6922	0.9698	0.1838	-0.17
Mof_H 	H 	0.6811	0.9386	0.1885	0.089
Mof_C 	C 	0.7352	0.9775	0.1891	0.097
Mof_H 	H 	0.7567	0.9529	0.1965	0.014
Mof_C 	C 	0.7499	0.0235	0.1836	-0.144
Mof_H 	H 	0.7823	0.0311	0.1878	0.08
Mof_C 	C 	0.7185	0.0587	0.1721	0.09
Mof_H 	H 	0.7291	0.0903	0.1686	0.005
Mof_N 	N 	0.6735	0.04813	0.16613	-0.229
Mof_O 	O 	0.66198	0.14196	0.19338	-0.42
Mof_O 	O 	0.61913	0.20751	0.19844	-0.311
Mof_O 	O 	0.58336	0.15876	0.12847	-0.532
Mof_H 	H 	0.6009	0.1706	0.1492	0.233
Mof_C 	C 	0.1511	0.3194	0.7875	0.334
Mof_C 	C 	0.1805	0.3055	0.7457	-0.123
Mof_C 	C 	0.21922	0.33211	0.73322	0.05
Mof_H 	H 	0.2276	0.359	0.7512	0.034
Mof_C 	C 	0.0978	0.3255	0.9165	0.33
Mof_C 	C 	0.0696	0.344	0.9534	-0.63
Mof_H 	H 	0.0783	0.3769	0.9591	0.205
Mof_H 	H 	0.0747	0.3256	0.9821	0.184
Mof_H 	H 	0.0364	0.3423	0.9444	0.208
Mof_C 	C 	0.0724	0.282	0.9235	-0.55
Mof_H 	H 	0.0833	0.2585	0.9007	0.177
Mof_H 	H 	0.0387	0.2875	0.9191	0.183
Mof_H 	H 	0.0781	0.2704	0.9555	0.154
Mof_C 	C 	0.1606	0.4969	0.828	0.1
Mof_H 	H 	0.1285	0.5055	0.8322	-0.01
Mof_C 	C 	0.1922	0.5302	0.8162	-0.17
Mof_H 	H 	0.1811	0.5614	0.8115	0.089
Mof_C 	C 	0.2352	0.5225	0.8109	0.096
Mof_H 	H 	0.2567	0.5471	0.8035	0.014
Mof_C 	C 	0.2499	0.4765	0.8164	-0.144
Mof_H 	H 	0.2823	0.4689	0.8122	0.08
Mof_C 	C 	0.2185	0.4413	0.8279	0.09
Mof_H 	H 	0.2291	0.4097	0.8314	0.005
Mof_N 	N 	0.1735	0.45187	0.83387	-0.229
Mof_O 	O 	0.16198	0.35804	0.80662	-0.42
Mof_O 	O 	0.11913	0.29249	0.80156	-0.311
Mof_O 	O 	0.08336	0.34124	0.87153	-0.532
Mof_H 	H 	0.1009	0.3294	0.8508	0.233
Mof_Ni	Ni	0.399	0.851	0.125	1.106
Mof_Ni	Ni	0.101	0.149	0.625	1.106
Mof_Ni	Ni	0.601	0.351	0.375	1.106
Mof_Ni	Ni	0.899	0.649	0.875	1.106
Mof_Ni	Ni	0.125	0.399	0.851	1.106
Mof_Ni	Ni	0.625	0.101	0.149	1.106
Mof_Ni	Ni	0.375	0.601	0.351	1.106
Mof_Ni	Ni	0.875	0.899	0.649	1.106
Mof_Ni	Ni	0.851	0.125	0.399	1.106
Mof_Ni	Ni	0.149	0.625	0.101	1.106
Mof_Ni	Ni	0.351	0.375	0.601	1.106
Mof_Ni	Ni	0.649	0.875	0.899	1.106
Mof_C 	C 	0.9625	0.4306	0.5989	0.334
Mof_C 	C 	0.0043	0.4445	0.5695	-0.123
Mof_C 	C 	0.01678	0.41789	0.53078	0.05
Mof_H 	H 	0.9988	0.391	0.5224	0.034
Mof_C 	C 	0.8335	0.4245	0.6522	0.33
Mof_C 	C 	0.7966	0.406	0.6804	-0.63
Mof_H 	H 	0.7909	0.3731	0.6717	0.205
Mof_H 	H 	0.7679	0.4244	0.6753	0.184
Mof_H 	H 	0.8056	0.4077	0.7136	0.208
Mof_C 	C 	0.8265	0.468	0.6776	-0.55
Mof_H 	H 	0.8493	0.4915	0.6667	0.177
Mof_H 	H 	0.8309	0.4625	0.7113	0.183
Mof_H 	H 	0.7945	0.4796	0.6719	0.154
Mof_C 	C 	0.922	0.2531	0.5894	0.1
Mof_H 	H 	0.9178	0.2445	0.6215	-0.01
Mof_C 	C 	0.9338	0.2198	0.5578	-0.17
Mof_H 	H 	0.9385	0.1886	0.5689	0.089
Mof_C 	C 	0.9391	0.2275	0.5148	0.096
Mof_H 	H 	0.9465	0.2029	0.4933	0.014
Mof_C 	C 	0.9336	0.2735	0.5001	-0.144
Mof_H 	H 	0.9378	0.2811	0.4677	0.08
Mof_C 	C 	0.9221	0.3087	0.5315	0.09
Mof_H 	H 	0.9186	0.3403	0.5209	0.005
Mof_N 	N 	0.91613	0.29813	0.5765	-0.229
Mof_O 	O 	0.94338	0.39196	0.58802	-0.42
Mof_O 	O 	0.94844	0.45751	0.63087	-0.311
Mof_O 	O 	0.87847	0.40876	0.66664	-0.532
Mof_H 	H 	0.8992	0.4206	0.6491	0.233
Mof_C 	C 	0.5375	0.5694	0.0989	0.334
Mof_C 	C 	0.4957	0.5555	0.0695	-0.123
Mof_C 	C 	0.48322	0.58211	0.03078	0.05
Mof_H 	H 	0.5012	0.609	0.0224	0.034
Mof_C 	C 	0.6665	0.5755	0.1522	0.33
Mof_C 	C 	0.7034	0.594	0.1804	-0.63
Mof_H 	H 	0.7091	0.6269	0.1717	0.205
Mof_H 	H 	0.7321	0.5756	0.1753	0.184
Mof_H 	H 	0.6944	0.5923	0.2136	0.208
Mof_C 	C 	0.6735	0.532	0.1776	-0.55
Mof_H 	H 	0.6507	0.5085	0.1667	0.177
Mof_H 	H 	0.6691	0.5375	0.2113	0.183
Mof_H 	H 	0.7055	0.5204	0.1719	0.154
Mof_C 	C 	0.578	0.7469	0.0894	0.1
Mof_H 	H 	0.5822	0.7555	0.1215	-0.01
Mof_C 	C 	0.5662	0.7802	0.0578	-0.17
Mof_H 	H 	0.5615	0.8114	0.0689	0.089
Mof_C 	C 	0.5609	0.7725	0.0148	0.097
Mof_H 	H 	0.5535	0.7971	0.9933	0.014
Mof_C 	C 	0.5664	0.7265	0.0001	-0.144
Mof_H 	H 	0.5622	0.7189	0.9677	0.08
Mof_C 	C 	0.5779	0.6913	0.0315	0.09
Mof_H 	H 	0.5814	0.6597	0.0209	0.005
Mof_N 	N 	0.58387	0.70187	0.0765	-0.229
Mof_O 	O 	0.55662	0.60804	0.08802	-0.42
Mof_O 	O 	0.55156	0.54249	0.13087	-0.311
Mof_O 	O 	0.62153	0.59124	0.16664	-0.532
Mof_H 	H 	0.6008	0.5794	0.1491	0.233
Mof_C 	C 	0.0375	0.9306	0.9011	0.334
Mof_C 	C 	0.9957	0.9445	0.9305	-0.123
Mof_C 	C 	0.98322	0.91789	0.96922	0.05
Mof_H 	H 	0.0012	0.891	0.9776	0.034
Mof_C 	C 	0.1665	0.9245	0.8478	0.33
Mof_C 	C 	0.2034	0.906	0.8196	-0.63
Mof_H 	H 	0.2091	0.8731	0.8283	0.205
Mof_H 	H 	0.2321	0.9244	0.8247	0.184
Mof_H 	H 	0.1944	0.9077	0.7864	0.208
Mof_C 	C 	0.1735	0.968	0.8224	-0.55
Mof_H 	H 	0.1507	0.9915	0.8333	0.177
Mof_H 	H 	0.1691	0.9625	0.7887	0.183
Mof_H 	H 	0.2055	0.9796	0.8281	0.154
Mof_C 	C 	0.078	0.7531	0.9106	0.1
Mof_H 	H 	0.0822	0.7445	0.8785	-0.01
Mof_C 	C 	0.0662	0.7198	0.9422	-0.17
Mof_H 	H 	0.0615	0.6886	0.9311	0.089
Mof_C 	C 	0.0609	0.7275	0.9852	0.096
Mof_H 	H 	0.0535	0.7029	0.0067	0.014
Mof_C 	C 	0.0664	0.7735	0.9999	-0.144
Mof_H 	H 	0.0622	0.7811	0.0323	0.08
Mof_C 	C 	0.0779	0.8087	0.9685	0.09
Mof_H 	H 	0.0814	0.8403	0.9791	0.005
Mof_N 	N 	0.08387	0.79813	0.9235	-0.229
Mof_O 	O 	0.05662	0.89196	0.91198	-0.42
Mof_O 	O 	0.05156	0.95751	0.86913	-0.311
Mof_O 	O 	0.12153	0.90876	0.83336	-0.532
Mof_H 	H 	0.1008	0.9206	0.8509	0.233
Mof_C 	C 	0.4625	0.0694	0.4011	0.334
Mof_C 	C 	0.5043	0.0555	0.4305	-0.124
Mof_C 	C 	0.51678	0.08211	0.46922	0.05
Mof_H 	H 	0.4988	0.109	0.4776	0.034
Mof_C 	C 	0.3335	0.0755	0.3478	0.33
Mof_C 	C 	0.2966	0.094	0.3196	-0.63
Mof_H 	H 	0.2909	0.1269	0.3283	0.205
Mof_H 	H 	0.2679	0.0756	0.3247	0.184
Mof_H 	H 	0.3056	0.0923	0.2864	0.208
Mof_C 	C 	0.3265	0.032	0.3224	-0.55
Mof_H 	H 	0.3493	0.0085	0.3333	0.177
Mof_H 	H 	0.3309	0.0375	0.2887	0.183
Mof_H 	H 	0.2945	0.0204	0.3281	0.154
Mof_C 	C 	0.422	0.2469	0.4106	0.1
Mof_H 	H 	0.4178	0.2555	0.3785	-0.01
Mof_C 	C 	0.4338	0.2802	0.4422	-0.17
Mof_H 	H 	0.4385	0.3114	0.4311	0.089
Mof_C 	C 	0.4391	0.2725	0.4852	0.096
Mof_H 	H 	0.4465	0.2971	0.5067	0.014
Mof_C 	C 	0.4336	0.2265	0.4999	-0.144
Mof_H 	H 	0.4378	0.2189	0.5323	0.08
Mof_C 	C 	0.4221	0.1913	0.4685	0.09
Mof_H 	H 	0.4186	0.1597	0.4791	0.005
Mof_N 	N 	0.41613	0.20187	0.4235	-0.229
Mof_O 	O 	0.44338	0.10804	0.41198	-0.42
Mof_O 	O 	0.44844	0.04249	0.36913	-0.311
Mof_O 	O 	0.37847	0.09124	0.33336	-0.532
Mof_H 	H 	0.3992	0.0794	0.3509	0.233
Mof_C 	C 	0.5989	0.9625	0.4306	0.334
Mof_C 	C 	0.5695	0.0043	0.4445	-0.123
Mof_C 	C 	0.53078	0.01678	0.41789	0.05
Mof_H 	H 	0.5224	0.9988	0.391	0.034
Mof_C 	C 	0.6522	0.8335	0.4245	0.33
Mof_C 	C 	0.6804	0.7966	0.406	-0.63
Mof_H 	H 	0.6717	0.7909	0.3731	0.205
Mof_H 	H 	0.6753	0.7679	0.4244	0.184
Mof_H 	H 	0.7136	0.8056	0.4077	0.208
Mof_C 	C 	0.6776	0.8265	0.468	-0.55
Mof_H 	H 	0.6667	0.8493	0.4915	0.177
Mof_H 	H 	0.7113	0.8309	0.4625	0.183
Mof_H 	H 	0.6719	0.7945	0.4796	0.154
Mof_C 	C 	0.5894	0.922	0.2531	0.1
Mof_H 	H 	0.6215	0.9178	0.2445	-0.01
Mof_C 	C 	0.5578	0.9338	0.2198	-0.17
Mof_H 	H 	0.5689	0.9385	0.1886	0.089
Mof_C 	C 	0.5148	0.9391	0.2275	0.096
Mof_H 	H 	0.4933	0.9465	0.2029	0.014
Mof_C 	C 	0.5001	0.9336	0.2735	-0.144
Mof_H 	H 	0.4677	0.9378	0.2811	0.08
Mof_C 	C 	0.5315	0.9221	0.3087	0.09
Mof_H 	H 	0.5209	0.9186	0.3403	0.005
Mof_N 	N 	0.5765	0.91613	0.29813	-0.229
Mof_O 	O 	0.58802	0.94338	0.39196	-0.42
Mof_O 	O 	0.63087	0.94844	0.45751	-0.311
Mof_O 	O 	0.66664	0.87847	0.40876	-0.532
Mof_H 	H 	0.6491	0.8992	0.4206	0.233
Mof_C 	C 	0.0989	0.5375	0.5694	0.334
Mof_C 	C 	0.0695	0.4957	0.5555	-0.123
Mof_C 	C 	0.03078	0.48322	0.58211	0.05
Mof_H 	H 	0.0224	0.5012	0.609	0.034
Mof_C 	C 	0.1522	0.6665	0.5755	0.33
Mof_C 	C 	0.1804	0.7034	0.594	-0.63
Mof_H 	H 	0.1717	0.7091	0.6269	0.205
Mof_H 	H 	0.1753	0.7321	0.5756	0.184
Mof_H 	H 	0.2136	0.6944	0.5923	0.208
Mof_C 	C 	0.1776	0.6735	0.532	-0.55
Mof_H 	H 	0.1667	0.6507	0.5085	0.177
Mof_H 	H 	0.2113	0.6691	0.5375	0.183
Mof_H 	H 	0.1719	0.7055	0.5204	0.154
Mof_C 	C 	0.0894	0.578	0.7469	0.1
Mof_H 	H 	0.1215	0.5822	0.7555	-0.01
Mof_C 	C 	0.0578	0.5662	0.7802	-0.17
Mof_H 	H 	0.0689	0.5615	0.8114	0.089
Mof_C 	C 	0.0148	0.5609	0.7725	0.097
Mof_H 	H 	0.9933	0.5535	0.7971	0.014
Mof_C 	C 	0.0001	0.5664	0.7265	-0.144
Mof_H 	H 	0.9677	0.5622	0.7189	0.08
Mof_C 	C 	0.0315	0.5779	0.6913	0.09
Mof_H 	H 	0.0209	0.5814	0.6597	0.005
Mof_N 	N 	0.0765	0.58387	0.70187	-0.229
Mof_O 	O 	0.08802	0.55662	0.60804	-0.42
Mof_O 	O 	0.13087	0.55156	0.54249	-0.311
Mof_O 	O 	0.16664	0.62153	0.59124	-0.532
Mof_H 	H 	0.1491	0.6008	0.5794	0.233
Mof_C 	C 	0.9011	0.0375	0.9306	0.334
Mof_C 	C 	0.9305	0.9957	0.9445	-0.123
Mof_C 	C 	0.96922	0.98322	0.91789	0.05
Mof_H 	H 	0.9776	0.0012	0.891	0.034
Mof_C 	C 	0.8478	0.1665	0.9245	0.33
Mof_C 	C 	0.8196	0.2034	0.906	-0.63
Mof_H 	H 	0.8283	0.2091	0.8731	0.205
Mof_H 	H 	0.8247	0.2321	0.9244	0.184
Mof_H 	H 	0.7864	0.1944	0.9077	0.208
Mof_C 	C 	0.8224	0.1735	0.968	-0.55
Mof_H 	H 	0.8333	0.1507	0.9915	0.177
Mof_H 	H 	0.7887	0.1691	0.9625	0.183
Mof_H 	H 	0.8281	0.2055	0.9796	0.154
Mof_C 	C 	0.9106	0.078	0.7531	0.1
Mof_H 	H 	0.8785	0.0822	0.7445	-0.01
Mof_C 	C 	0.9422	0.0662	0.7198	-0.17
Mof_H 	H 	0.9311	0.0615	0.6886	0.089
Mof_C 	C 	0.9852	0.0609	0.7275	0.096
Mof_H 	H 	0.0067	0.0535	0.7029	0.014
Mof_C 	C 	0.9999	0.0664	0.7735	-0.144
Mof_H 	H 	0.0323	0.0622	0.7811	0.08
Mof_C 	C 	0.9685	0.0779	0.8087	0.09
Mof_H 	H 	0.9791	0.0814	0.8403	0.005
Mof_N 	N 	0.9235	0.08387	0.79813	-0.229
Mof_O 	O 	0.91198	0.05662	0.89196	-0.42
Mof_O 	O 	0.86913	0.05156	0.95751	-0.311
Mof_O 	O 	0.83336	0.12153	0.90876	-0.532
Mof_H 	H 	0.8509	0.1008	0.9206	0.233
Mof_C 	C 	0.4011	0.4625	0.0694	0.334
Mof_C 	C 	0.4305	0.5043	0.0555	-0.124
Mof_C 	C 	0.46922	0.51678	0.08211	0.05
Mof_H 	H 	0.4776	0.4988	0.109	0.034
Mof_C 	C 	0.3478	0.3335	0.0755	0.33
Mof_C 	C 	0.3196	0.2966	0.094	-0.63
Mof_H 	H 	0.3283	0.2909	0.1269	0.205
Mof_H 	H 	0.3247	0.2679	0.0756	0.184
Mof_H 	H 	0.2864	0.3056	0.0923	0.208
Mof_C 	C 	0.3224	0.3265	0.032	-0.55
Mof_H 	H 	0.3333	0.3493	0.0085	0.177
Mof_H 	H 	0.2887	0.3309	0.0375	0.183
Mof_H 	H 	0.3281	0.2945	0.0204	0.154
Mof_C 	C 	0.4106	0.422	0.2469	0.1
Mof_H 	H 	0.3785	0.4178	0.2555	-0.01
Mof_C 	C 	0.4422	0.4338	0.2802	-0.17
Mof_H 	H 	0.4311	0.4385	0.3114	0.089
Mof_C 	C 	0.4852	0.4391	0.2725	0.096
Mof_H 	H 	0.5067	0.4465	0.2971	0.014
Mof_C 	C 	0.4999	0.4336	0.2265	-0.144
Mof_H 	H 	0.5323	0.4378	0.2189	0.08
Mof_C 	C 	0.4685	0.4221	0.1913	0.09
Mof_H 	H 	0.4791	0.4186	0.1597	0.005
Mof_N 	N 	0.4235	0.41613	0.20187	-0.229
Mof_O 	O 	0.41198	0.44338	0.10804	-0.42
Mof_O 	O 	0.36913	0.44844	0.04249	-0.311
Mof_O 	O 	0.33336	0.37847	0.09124	-0.532
Mof_H 	H 	0.3509	0.3992	0.0794	0.233
Mof_C 	C 	0.4306	0.5989	0.9625	0.334
Mof_C 	C 	0.4445	0.5695	0.0043	-0.123
Mof_C 	C 	0.41789	0.53078	0.01678	0.05
Mof_H 	H 	0.391	0.5224	0.9988	0.034
Mof_C 	C 	0.4245	0.6522	0.8335	0.33
Mof_C 	C 	0.406	0.6804	0.7966	-0.63
Mof_H 	H 	0.3731	0.6717	0.7909	0.205
Mof_H 	H 	0.4244	0.6753	0.7679	0.184
Mof_H 	H 	0.4077	0.7136	0.8056	0.208
Mof_C 	C 	0.468	0.6776	0.8265	-0.55
Mof_H 	H 	0.4915	0.6667	0.8493	0.177
Mof_H 	H 	0.4625	0.7113	0.8309	0.183
Mof_H 	H 	0.4796	0.6719	0.7945	0.154
Mof_C 	C 	0.2531	0.5894	0.922	0.1
Mof_H 	H 	0.2445	0.6215	0.9178	-0.01
Mof_C 	C 	0.2198	0.5578	0.9338	-0.17
Mof_H 	H 	0.1886	0.5689	0.9385	0.089
Mof_C 	C 	0.2275	0.5148	0.9391	0.096
Mof_H 	H 	0.2029	0.4933	0.9465	0.014
Mof_C 	C 	0.2735	0.5001	0.9336	-0.144
Mof_H 	H 	0.2811	0.4677	0.9378	0.08
Mof_C 	C 	0.3087	0.5315	0.9221	0.09
Mof_H 	H 	0.3403	0.5209	0.9186	0.005
Mof_N 	N 	0.29813	0.5765	0.91613	-0.229
Mof_O 	O 	0.39196	0.58802	0.94338	-0.42
Mof_O 	O 	0.45751	0.63087	0.94844	-0.311
Mof_O 	O 	0.40876	0.66664	0.87847	-0.532
Mof_H 	H 	0.4206	0.6491	0.8992	0.233
Mof_C 	C 	0.5694	0.0989	0.5375	0.334
Mof_C 	C 	0.5555	0.0695	0.4957	-0.123
Mof_C 	C 	0.58211	0.03078	0.48322	0.05
Mof_H 	H 	0.609	0.0224	0.5012	0.034
Mof_C 	C 	0.5755	0.1522	0.6665	0.33
Mof_C 	C 	0.594	0.1804	0.7034	-0.63
Mof_H 	H 	0.6269	0.1717	0.7091	0.205
Mof_H 	H 	0.5756	0.1753	0.7321	0.184
Mof_H 	H 	0.5923	0.2136	0.6944	0.208
Mof_C 	C 	0.532	0.1776	0.6735	-0.55
Mof_H 	H 	0.5085	0.1667	0.6507	0.177
Mof_H 	H 	0.5375	0.2113	0.6691	0.183
Mof_H 	H 	0.5204	0.1719	0.7055	0.154
Mof_C 	C 	0.7469	0.0894	0.578	0.1
Mof_H 	H 	0.7555	0.1215	0.5822	-0.01
Mof_C 	C 	0.7802	0.0578	0.5662	-0.17
Mof_H 	H 	0.8114	0.0689	0.5615	0.089
Mof_C 	C 	0.7725	0.0148	0.5609	0.097
Mof_H 	H 	0.7971	0.9933	0.5535	0.014
Mof_C 	C 	0.7265	0.0001	0.5664	-0.144
Mof_H 	H 	0.7189	0.9677	0.5622	0.08
Mof_C 	C 	0.6913	0.0315	0.5779	0.09
Mof_H 	H 	0.6597	0.0209	0.5814	0.005
Mof_N 	N 	0.70187	0.0765	0.58387	-0.229
Mof_O 	O 	0.60804	0.08802	0.55662	-0.42
Mof_O 	O 	0.54249	0.13087	0.55156	-0.311
Mof_O 	O 	0.59124	0.16664	0.62153	-0.532
Mof_H 	H 	0.5794	0.1491	0.6008	0.233
Mof_C 	C 	0.9306	0.9011	0.0375	0.334
Mof_C 	C 	0.9445	0.9305	0.9957	-0.123
Mof_C 	C 	0.91789	0.96922	0.98322	0.05
Mof_H 	H 	0.891	0.9776	0.0012	0.034
Mof_C 	C 	0.9245	0.8478	0.1665	0.33
Mof_C 	C 	0.906	0.8196	0.2034	-0.63
Mof_H 	H 	0.8731	0.8283	0.2091	0.205
Mof_H 	H 	0.9244	0.8247	0.2321	0.184
Mof_H 	H 	0.9077	0.7864	0.1944	0.208
Mof_C 	C 	0.968	0.8224	0.1735	-0.55
Mof_H 	H 	0.9915	0.8333	0.1507	0.177
Mof_H 	H 	0.9625	0.7887	0.1691	0.183
Mof_H 	H 	0.9796	0.8281	0.2055	0.154
Mof_C 	C 	0.7531	0.9106	0.078	0.1
Mof_H 	H 	0.7445	0.8785	0.0822	-0.01
Mof_C 	C 	0.7198	0.9422	0.0662	-0.17
Mof_H 	H 	0.6886	0.9311	0.0615	0.089
Mof_C 	C 	0.7275	0.9852	0.0609	0.096
Mof_H 	H 	0.7029	0.0067	0.0535	0.014
Mof_C 	C 	0.7735	0.9999	0.0664	-0.144
Mof_H 	H 	0.7811	0.0323	0.0622	0.08
Mof_C 	C 	0.8087	0.9685	0.0779	0.09
Mof_H 	H 	0.8403	0.9791	0.0814	0.005
Mof_N 	N 	0.79813	0.9235	0.08387	-0.229
Mof_O 	O 	0.89196	0.91198	0.05662	-0.42
Mof_O 	O 	0.95751	0.86913	0.05156	-0.311
Mof_O 	O 	0.90876	0.83336	0.12153	-0.532
Mof_H 	H 	0.9206	0.8509	0.1008	0.233
Mof_C 	C 	0.0694	0.4011	0.4625	0.334
Mof_C 	C 	0.0555	0.4305	0.5043	-0.124
Mof_C 	C 	0.08211	0.46922	0.51678	0.05
Mof_H 	H 	0.109	0.4776	0.4988	0.034
Mof_C 	C 	0.0755	0.3478	0.3335	0.33
Mof_C 	C 	0.094	0.3196	0.2966	-0.63
Mof_H 	H 	0.1269	0.3283	0.2909	0.205
Mof_H 	H 	0.0756	0.3247	0.2679	0.184
Mof_H 	H 	0.0923	0.2864	0.3056	0.208
Mof_C 	C 	0.032	0.3224	0.3265	-0.55
Mof_H 	H 	0.0085	0.3333	0.3493	0.177
Mof_H 	H 	0.0375	0.2887	0.3309	0.183
Mof_H 	H 	0.0204	0.3281	0.2945	0.154
Mof_C 	C 	0.2469	0.4106	0.422	0.1
Mof_H 	H 	0.2555	0.3785	0.4178	-0.01
Mof_C 	C 	0.2802	0.4422	0.4338	-0.17
Mof_H 	H 	0.3114	0.4311	0.4385	0.089
Mof_C 	C 	0.2725	0.4852	0.4391	0.096
Mof_H 	H 	0.2971	0.5067	0.4465	0.014
Mof_C 	C 	0.2265	0.4999	0.4336	-0.144
Mof_H 	H 	0.2189	0.5323	0.4378	0.08
Mof_C 	C 	0.1913	0.4685	0.4221	0.09
Mof_H 	H 	0.1597	0.4791	0.4186	0.005
Mof_N 	N 	0.20187	0.4235	0.41613	-0.229
Mof_O 	O 	0.10804	0.41198	0.44338	-0.42
Mof_O 	O 	0.04249	0.36913	0.44844	-0.311
Mof_O 	O 	0.09124	0.33336	0.37847	-0.532
Mof_H 	H 	0.0794	0.3509	0.3992	0.233
Mof_C 	C 	0.6806	0.7125	0.1511	0.334
Mof_C 	C 	0.6945	0.7543	0.1805	-0.123
Mof_C 	C 	0.66789	0.76678	0.21922	0.05
Mof_H 	H 	0.641	0.7488	0.2276	0.034
Mof_C 	C 	0.6745	0.5835	0.0978	0.33
Mof_C 	C 	0.656	0.5466	0.0696	-0.63
Mof_H 	H 	0.6231	0.5409	0.0783	0.205
Mof_H 	H 	0.6744	0.5179	0.0747	0.184
Mof_H 	H 	0.6577	0.5556	0.0364	0.208
Mof_C 	C 	0.718	0.5765	0.0724	-0.55
Mof_H 	H 	0.7415	0.5993	0.0833	0.177
Mof_H 	H 	0.7125	0.5809	0.0387	0.183
Mof_H 	H 	0.7296	0.5445	0.0781	0.154
Mof_C 	C 	0.5031	0.672	0.1606	0.1
Mof_H 	H 	0.4945	0.6678	0.1285	-0.01
Mof_C 	C 	0.4698	0.6838	0.1922	-0.17
Mof_H 	H 	0.4386	0.6885	0.1811	0.089
Mof_C 	C 	0.4775	0.6891	0.2352	0.096
Mof_H 	H 	0.4529	0.6965	0.2567	0.014
Mof_C 	C 	0.5235	0.6836	0.2499	-0.144
Mof_H 	H 	0.5311	0.6878	0.2823	0.08
Mof_C 	C 	0.5587	0.6721	0.2185	0.09
Mof_H 	H 	0.5903	0.6686	0.2291	0.005
Mof_N 	N 	0.54813	0.66613	0.1735	-0.229
Mof_O 	O 	0.64196	0.69338	0.16198	-0.42
Mof_O 	O 	0.70751	0.69844	0.11913	-0.311
Mof_O 	O 	0.65876	0.62847	0.08336	-0.532
Mof_H 	H 	0.6706	0.6492	0.1009	0.233
Mof_C 	C 	0.8194	0.2875	0.6511	0.334
Mof_C 	C 	0.8055	0.2457	0.6805	-0.123
Mof_C 	C 	0.83211	0.23322	0.71922	0.05
Mof_H 	H 	0.859	0.2512	0.7276	0.034
Mof_C 	C 	0.8255	0.4165	0.5978	0.33
Mof_C 	C 	0.844	0.4534	0.5696	-0.63
Mof_H 	H 	0.8769	0.4591	0.5783	0.205
Mof_H 	H 	0.8256	0.4821	0.5747	0.184
Mof_H 	H 	0.8423	0.4444	0.5364	0.208
Mof_C 	C 	0.782	0.4235	0.5724	-0.55
Mof_H 	H 	0.7585	0.4007	0.5833	0.177
Mof_H 	H 	0.7875	0.4191	0.5387	0.183
Mof_H 	H 	0.7704	0.4555	0.5781	0.154
Mof_C 	C 	0.9969	0.328	0.6606	0.1
Mof_H 	H 	0.0055	0.3322	0.6285	-0.01
Mof_C 	C 	0.0302	0.3162	0.6922	-0.17
Mof_H 	H 	0.0614	0.3115	0.6811	0.089
Mof_C 	C 	0.0225	0.3109	0.7352	0.096
Mof_H 	H 	0.0471	0.3035	0.7567	0.014
Mof_C 	C 	0.9765	0.3164	0.7499	-0.144
Mof_H 	H 	0.9689	0.3122	0.7823	0.08
Mof_C 	C 	0.9413	0.3279	0.7185	0.09
Mof_H 	H 	0.9097	0.3314	0.7291	0.005
Mof_N 	N 	0.95187	0.33387	0.6735	-0.229
Mof_O 	O 	0.85804	0.30662	0.66198	-0.42
Mof_O 	O 	0.79249	0.30156	0.61913	-0.311
Mof_O 	O 	0.84124	0.37153	0.58336	-0.532
Mof_H 	H 	0.8294	0.3508	0.6009	0.233
Mof_C 	C 	0.1806	0.7875	0.8489	0.334
Mof_C 	C 	0.1945	0.7457	0.8195	-0.123
Mof_C 	C 	0.16789	0.73322	0.78078	0.05
Mof_H 	H 	0.141	0.7512	0.7724	0.034
Mof_C 	C 	0.1745	0.9165	0.9022	0.33
Mof_C 	C 	0.156	0.9534	0.9304	-0.629
Mof_H 	H 	0.1231	0.9591	0.9217	0.205
Mof_H 	H 	0.1744	0.9821	0.9253	0.184
Mof_H 	H 	0.1577	0.9444	0.9636	0.208
Mof_C 	C 	0.218	0.9235	0.9276	-0.55
Mof_H 	H 	0.2415	0.9007	0.9167	0.177
Mof_H 	H 	0.2125	0.9191	0.9613	0.183
Mof_H 	H 	0.2296	0.9555	0.9219	0.154
Mof_C 	C 	0.0031	0.828	0.8394	0.1
Mof_H 	H 	0.9945	0.8322	0.8715	-0.01
Mof_C 	C 	0.9698	0.8162	0.8078	-0.17
Mof_H 	H 	0.9386	0.8115	0.8189	0.089
Mof_C 	C 	0.9775	0.8109	0.7648	0.097
Mof_H 	H 	0.9529	0.8035	0.7433	0.014
Mof_C 	C 	0.0235	0.8164	0.7501	-0.144
Mof_H 	H 	0.0311	0.8122	0.7177	0.08
Mof_C 	C 	0.0587	0.8279	0.7815	0.09
Mof_H 	H 	0.0903	0.8314	0.7709	0.005
Mof_N 	N 	0.04813	0.83387	0.8265	-0.229
Mof_O 	O 	0.14196	0.80662	0.83802	-0.42
Mof_O 	O 	0.20751	0.80156	0.88087	-0.311
Mof_O 	O 	0.15876	0.87153	0.91664	-0.532
Mof_H 	H 	0.1706	0.8508	0.8991	0.233
Mof_C 	C 	0.3194	0.2125	0.3489	0.334
Mof_C 	C 	0.3055	0.2543	0.3195	-0.123
Mof_C 	C 	0.33211	0.26678	0.28078	0.05
Mof_H 	H 	0.359	0.2488	0.2724	0.034
Mof_C 	C 	0.3255	0.0835	0.4022	0.33
Mof_C 	C 	0.344	0.0466	0.4304	-0.63
Mof_H 	H 	0.3769	0.0409	0.4217	0.205
Mof_H 	H 	0.3256	0.0179	0.4253	0.184
Mof_H 	H 	0.3423	0.0556	0.4636	0.208
Mof_C 	C 	0.282	0.0765	0.4276	-0.55
Mof_H 	H 	0.2585	0.0993	0.4167	0.177
Mof_H 	H 	0.2875	0.0809	0.4613	0.183
Mof_H 	H 	0.2704	0.0445	0.4219	0.154
Mof_C 	C 	0.4969	0.172	0.3394	0.1
Mof_H 	H 	0.5055	0.1678	0.3715	-0.01
Mof_C 	C 	0.5302	0.1838	0.3078	-0.17
Mof_H 	H 	0.5614	0.1885	0.3189	0.089
Mof_C 	C 	0.5225	0.1891	0.2648	0.096
Mof_H 	H 	0.5471	0.1965	0.2433	0.014
Mof_C 	C 	0.4765	0.1836	0.2501	-0.144
Mof_H 	H 	0.4689	0.1878	0.2177	0.08
Mof_C 	C 	0.4413	0.1721	0.2815	0.09
Mof_H 	H 	0.4097	0.1686	0.2709	0.005
Mof_N 	N 	0.45187	0.16613	0.3265	-0.229
Mof_O 	O 	0.35804	0.19338	0.33802	-0.42
Mof_O 	O 	0.29249	0.19844	0.38087	-0.311
Mof_O 	O 	0.34124	0.12847	0.41664	-0.532
Mof_H 	H 	0.3294	0.1492	0.3991	0.233
Mof_C 	C 	0.2125	0.3489	0.3194	0.334
Mof_C 	C 	0.2543	0.3195	0.3055	-0.123
Mof_C 	C 	0.26678	0.28078	0.33211	0.05
Mof_H 	H 	0.2488	0.2724	0.359	0.034
Mof_C 	C 	0.0835	0.4022	0.3255	0.33
Mof_C 	C 	0.0466	0.4304	0.344	-0.63
Mof_H 	H 	0.0409	0.4217	0.3769	0.205
Mof_H 	H 	0.0179	0.4253	0.3256	0.184
Mof_H 	H 	0.0556	0.4636	0.3423	0.208
Mof_C 	C 	0.0765	0.4276	0.282	-0.55
Mof_H 	H 	0.0993	0.4167	0.2585	0.177
Mof_H 	H 	0.0809	0.4613	0.2875	0.183
Mof_H 	H 	0.0445	0.4219	0.2704	0.154
Mof_C 	C 	0.172	0.3394	0.4969	0.1
Mof_H 	H 	0.1678	0.3715	0.5055	-0.01
Mof_C 	C 	0.1838	0.3078	0.5302	-0.17
Mof_H 	H 	0.1885	0.3189	0.5614	0.089
Mof_C 	C 	0.1891	0.2648	0.5225	0.096
Mof_H 	H 	0.1965	0.2433	0.5471	0.014
Mof_C 	C 	0.1836	0.2501	0.4765	-0.144
Mof_H 	H 	0.1878	0.2177	0.4689	0.08
Mof_C 	C 	0.1721	0.2815	0.4413	0.09
Mof_H 	H 	0.1686	0.2709	0.4097	0.005
Mof_N 	N 	0.16613	0.3265	0.45187	-0.229
Mof_O 	O 	0.19338	0.33802	0.35804	-0.42
Mof_O 	O 	0.19844	0.38087	0.29249	-0.311
Mof_O 	O 	0.12847	0.41664	0.34124	-0.532
Mof_H 	H 	0.1492	0.3991	0.3294	0.233
Mof_C 	C 	0.7875	0.8489	0.1806	0.334
Mof_C 	C 	0.7457	0.8195	0.1945	-0.123
Mof_C 	C 	0.73322	0.78078	0.16789	0.05
Mof_H 	H 	0.7512	0.7724	0.141	0.034
Mof_C 	C 	0.9165	0.9022	0.1745	0.33
Mof_C 	C 	0.9534	0.9304	0.156	-0.629
Mof_H 	H 	0.9591	0.9217	0.1231	0.205
Mof_H 	H 	0.9821	0.9253	0.1744	0.184
Mof_H 	H 	0.9444	0.9636	0.1577	0.208
Mof_C 	C 	0.9235	0.9276	0.218	-0.55
Mof_H 	H 	0.9007	0.9167	0.2415	0.177
Mof_H 	H 	0.9191	0.9613	0.2125	0.183
Mof_H 	H 	0.9555	0.9219	0.2296	0.154
Mof_C 	C 	0.828	0.8394	0.0031	0.1
Mof_H 	H 	0.8322	0.8715	0.9945	-0.01
Mof_C 	C 	0.8162	0.8078	0.9698	-0.17
Mof_H 	H 	0.8115	0.8189	0.9386	0.089
Mof_C 	C 	0.8109	0.7648	0.9775	0.097
Mof_H 	H 	0.8035	0.7433	0.9529	0.014
Mof_C 	C 	0.8164	0.7501	0.0235	-0.144
Mof_H 	H 	0.8122	0.7177	0.0311	0.08
Mof_C 	C 	0.8279	0.7815	0.0587	0.09
Mof_H 	H 	0.8314	0.7709	0.0903	0.005
Mof_N 	N 	0.83387	0.8265	0.04813	-0.229
Mof_O 	O 	0.80662	0.83802	0.14196	-0.42
Mof_O 	O 	0.80156	0.88087	0.20751	-0.311
Mof_O 	O 	0.87153	0.91664	0.15876	-0.532
Mof_H 	H 	0.8508	0.8991	0.1706	0.233
Mof_C 	C 	0.2875	0.6511	0.8194	0.334
Mof_C 	C 	0.2457	0.6805	0.8055	-0.123
Mof_C 	C 	0.23322	0.71922	0.83211	0.05
Mof_H 	H 	0.2512	0.7276	0.859	0.034
Mof_C 	C 	0.4165	0.5978	0.8255	0.33
Mof_C 	C 	0.4534	0.5696	0.844	-0.63
Mof_H 	H 	0.4591	0.5783	0.8769	0.205
Mof_H 	H 	0.4821	0.5747	0.8256	0.184
Mof_H 	H 	0.4444	0.5364	0.8423	0.208
Mof_C 	C 	0.4235	0.5724	0.782	-0.55
Mof_H 	H 	0.4007	0.5833	0.7585	0.177
Mof_H 	H 	0.4191	0.5387	0.7875	0.183
Mof_H 	H 	0.4555	0.5781	0.7704	0.154
Mof_C 	C 	0.328	0.6606	0.9969	0.1
Mof_H 	H 	0.3322	0.6285	0.0055	-0.01
Mof_C 	C 	0.3162	0.6922	0.0302	-0.17
Mof_H 	H 	0.3115	0.6811	0.0614	0.089
Mof_C 	C 	0.3109	0.7352	0.0225	0.096
Mof_H 	H 	0.3035	0.7567	0.0471	0.014
Mof_C 	C 	0.3164	0.7499	0.9765	-0.144
Mof_H 	H 	0.3122	0.7823	0.9689	0.08
Mof_C 	C 	0.3279	0.7185	0.9413	0.09
Mof_H 	H 	0.3314	0.7291	0.9097	0.005
Mof_N 	N 	0.33387	0.6735	0.95187	-0.229
Mof_O 	O 	0.30662	0.66198	0.85804	-0.42
Mof_O 	O 	0.30156	0.61913	0.79249	-0.311
Mof_O 	O 	0.37153	0.58336	0.84124	-0.532
Mof_H 	H 	0.3508	0.6009	0.8294	0.233
Mof_C 	C 	0.7125	0.1511	0.6806	0.334
Mof_C 	C 	0.7543	0.1805	0.6945	-0.123
Mof_C 	C 	0.76678	0.21922	0.66789	0.05
Mof_H 	H 	0.7488	0.2276	0.641	0.034
Mof_C 	C 	0.5835	0.0978	0.6745	0.33
Mof_C 	C 	0.5466	0.0696	0.656	-0.63
Mof_H 	H 	0.5409	0.0783	0.6231	0.205
Mof_H 	H 	0.5179	0.0747	0.6744	0.184
Mof_H 	H 	0.5556	0.0364	0.6577	0.208
Mof_C 	C 	0.5765	0.0724	0.718	-0.55
Mof_H 	H 	0.5993	0.0833	0.7415	0.177
Mof_H 	H 	0.5809	0.0387	0.7125	0.183
Mof_H 	H 	0.5445	0.0781	0.7296	0.154
Mof_C 	C 	0.672	0.1606	0.5031	0.1
Mof_H 	H 	0.6678	0.1285	0.4945	-0.01
Mof_C 	C 	0.6838	0.1922	0.4698	-0.17
Mof_H 	H 	0.6885	0.1811	0.4386	0.089
Mof_C 	C 	0.6891	0.2352	0.4775	0.096
Mof_H 	H 	0.6965	0.2567	0.4529	0.014
Mof_C 	C 	0.6836	0.2499	0.5235	-0.144
Mof_H 	H 	0.6878	0.2823	0.5311	0.08
Mof_C 	C 	0.6721	0.2185	0.5587	0.09
Mof_H 	H 	0.6686	0.2291	0.5903	0.005
Mof_N 	N 	0.66613	0.1735	0.54813	-0.229
Mof_O 	O 	0.69338	0.16198	0.64196	-0.42
Mof_O 	O 	0.69844	0.11913	0.70751	-0.311
Mof_O 	O 	0.62847	0.08336	0.65876	-0.532
Mof_H 	H 	0.6492	0.1009	0.6706	0.233
Mof_C 	C 	0.8489	0.1806	0.7875	0.334
Mof_C 	C 	0.8195	0.1945	0.7457	-0.123
Mof_C 	C 	0.78078	0.16789	0.73322	0.05
Mof_H 	H 	0.7724	0.141	0.7512	0.034
Mof_C 	C 	0.9022	0.1745	0.9165	0.33
Mof_C 	C 	0.9304	0.156	0.9534	-0.629
Mof_H 	H 	0.9217	0.1231	0.9591	0.205
Mof_H 	H 	0.9253	0.1744	0.9821	0.184
Mof_H 	H 	0.9636	0.1577	0.9444	0.208
Mof_C 	C 	0.9276	0.218	0.9235	-0.55
Mof_H 	H 	0.9167	0.2415	0.9007	0.177
Mof_H 	H 	0.9613	0.2125	0.9191	0.183
Mof_H 	H 	0.9219	0.2296	0.9555	0.154
Mof_C 	C 	0.8394	0.0031	0.828	0.1
Mof_H 	H 	0.8715	0.9945	0.8322	-0.01
Mof_C 	C 	0.8078	0.9698	0.8162	-0.17
Mof_H 	H 	0.8189	0.9386	0.8115	0.089
Mof_C 	C 	0.7648	0.9775	0.8109	0.097
Mof_H 	H 	0.7433	0.9529	0.8035	0.014
Mof_C 	C 	0.7501	0.0235	0.8164	-0.144
Mof_H 	H 	0.7177	0.0311	0.8122	0.08
Mof_C 	C 	0.7815	0.0587	0.8279	0.09
Mof_H 	H 	0.7709	0.0903	0.8314	0.005
Mof_N 	N 	0.8265	0.04813	0.83387	-0.229
Mof_O 	O 	0.83802	0.14196	0.80662	-0.42
Mof_O 	O 	0.88087	0.20751	0.80156	-0.311
Mof_O 	O 	0.91664	0.15876	0.87153	-0.532
Mof_H 	H 	0.8991	0.1706	0.8508	0.233
Mof_C 	C 	0.3489	0.3194	0.2125	0.334
Mof_C 	C 	0.3195	0.3055	0.2543	-0.123
Mof_C 	C 	0.28078	0.33211	0.26678	0.05
Mof_H 	H 	0.2724	0.359	0.2488	0.034
Mof_C 	C 	0.4022	0.3255	0.0835	0.33
Mof_C 	C 	0.4304	0.344	0.0466	-0.63
Mof_H 	H 	0.4217	0.3769	0.0409	0.205
Mof_H 	H 	0.4253	0.3256	0.0179	0.184
Mof_H 	H 	0.4636	0.3423	0.0556	0.208
Mof_C 	C 	0.4276	0.282	0.0765	-0.55
Mof_H 	H 	0.4167	0.2585	0.0993	0.177
Mof_H 	H 	0.4613	0.2875	0.0809	0.183
Mof_H 	H 	0.4219	0.2704	0.0445	0.154
Mof_C 	C 	0.3394	0.4969	0.172	0.1
Mof_H 	H 	0.3715	0.5055	0.1678	-0.01
Mof_C 	C 	0.3078	0.5302	0.1838	-0.17
Mof_H 	H 	0.3189	0.5614	0.1885	0.089
Mof_C 	C 	0.2648	0.5225	0.1891	0.096
Mof_H 	H 	0.2433	0.5471	0.1965	0.014
Mof_C 	C 	0.2501	0.4765	0.1836	-0.144
Mof_H 	H 	0.2177	0.4689	0.1878	0.08
Mof_C 	C 	0.2815	0.4413	0.1721	0.09
Mof_H 	H 	0.2709	0.4097	0.1686	0.005
Mof_N 	N 	0.3265	0.45187	0.16613	-0.229
Mof_O 	O 	0.33802	0.35804	0.19338	-0.42
Mof_O 	O 	0.38087	0.29249	0.19844	-0.311
Mof_O 	O 	0.41664	0.34124	0.12847	-0.532
Mof_H 	H 	0.3991	0.3294	0.1492	0.233
Mof_C 	C 	0.1511	0.6806	0.7125	0.334
Mof_C 	C 	0.1805	0.6945	0.7543	-0.123
Mof_C 	C 	0.21922	0.66789	0.76678	0.05
Mof_H 	H 	0.2276	0.641	0.7488	0.034
Mof_C 	C 	0.0978	0.6745	0.5835	0.33
Mof_C 	C 	0.0696	0.656	0.5466	-0.63
Mof_H 	H 	0.0783	0.6231	0.5409	0.205
Mof_H 	H 	0.0747	0.6744	0.5179	0.184
Mof_H 	H 	0.0364	0.6577	0.5556	0.208
Mof_C 	C 	0.0724	0.718	0.5765	-0.55
Mof_H 	H 	0.0833	0.7415	0.5993	0.177
Mof_H 	H 	0.0387	0.7125	0.5809	0.183
Mof_H 	H 	0.0781	0.7296	0.5445	0.154
Mof_C 	C 	0.1606	0.5031	0.672	0.1
Mof_H 	H 	0.1285	0.4945	0.6678	-0.01
Mof_C 	C 	0.1922	0.4698	0.6838	-0.17
Mof_H 	H 	0.1811	0.4386	0.6885	0.089
Mof_C 	C 	0.2352	0.4775	0.6891	0.096
Mof_H 	H 	0.2567	0.4529	0.6965	0.014
Mof_C 	C 	0.2499	0.5235	0.6836	-0.144
Mof_H 	H 	0.2823	0.5311	0.6878	0.08
Mof_C 	C 	0.2185	0.5587	0.6721	0.09
Mof_H 	H 	0.2291	0.5903	0.6686	0.005
Mof_N 	N 	0.1735	0.54813	0.66613	-0.229
Mof_O 	O 	0.16198	0.64196	0.69338	-0.42
Mof_O 	O 	0.11913	0.70751	0.69844	-0.311
Mof_O 	O 	0.08336	0.65876	0.62847	-0.532
Mof_H 	H 	0.1009	0.6706	0.6492	0.233
Mof_C 	C 	0.6511	0.8194	0.2875	0.334
Mof_C 	C 	0.6805	0.8055	0.2457	-0.123
Mof_C 	C 	0.71922	0.83211	0.23322	0.05
Mof_H 	H 	0.7276	0.859	0.2512	0.034
Mof_C 	C 	0.5978	0.8255	0.4165	0.33
Mof_C 	C 	0.5696	0.844	0.4534	-0.63
Mof_H 	H 	0.5783	0.8769	0.4591	0.205
Mof_H 	H 	0.5747	0.8256	0.4821	0.184
Mof_H 	H 	0.5364	0.8423	0.4444	0.208
Mof_C 	C 	0.5724	0.782	0.4235	-0.55
Mof_H 	H 	0.5833	0.7585	0.4007	0.177
Mof_H 	H 	0.5387	0.7875	0.4191	0.183
Mof_H 	H 	0.5781	0.7704	0.4555	0.154
Mof_C 	C 	0.6606	0.9969	0.328	0.1
Mof_H 	H 	0.6285	0.0055	0.3322	-0.01
Mof_C 	C 	0.6922	0.0302	0.3162	-0.17
Mof_H 	H 	0.6811	0.0614	0.3115	0.089
Mof_C 	C 	0.7352	0.0225	0.3109	0.096
Mof_H 	H 	0.7567	0.0471	0.3035	0.014
Mof_C 	C 	0.7499	0.9765	0.3164	-0.144
Mof_H 	H 	0.7823	0.9689	0.3122	0.08
Mof_C 	C 	0.7185	0.9413	0.3279	0.09
Mof_H 	H 	0.7291	0.9097	0.3314	0.005
Mof_N 	N 	0.6735	0.95187	0.33387	-0.229
Mof_O 	O 	0.66198	0.85804	0.30662	-0.42
Mof_O 	O 	0.61913	0.79249	0.30156	-0.311
Mof_O 	O 	0.58336	0.84124	0.37153	-0.532
Mof_H 	H 	0.6009	0.8294	0.3508	0.233
Mof_Ni	Ni	0.601	0.649	0.125	1.106
Mof_Ni	Ni	0.899	0.351	0.625	1.106
Mof_Ni	Ni	0.101	0.851	0.875	1.106
Mof_Ni	Ni	0.399	0.149	0.375	1.106
Mof_Ni	Ni	0.149	0.375	0.399	1.106
Mof_Ni	Ni	0.851	0.875	0.101	1.106
Mof_Ni	Ni	0.351	0.625	0.899	1.106
Mof_Ni	Ni	0.649	0.125	0.601	1.106
Mof_Ni	Ni	0.875	0.101	0.851	1.106
Mof_Ni	Ni	0.375	0.399	0.149	1.106
Mof_Ni	Ni	0.125	0.601	0.649	1.106
Mof_Ni	Ni	0.625	0.899	0.351	1.106
_end
