data_functionalizedCrystal
_audit_creation_method	'EQeq! by Chris Wilmer'
_symmetry_space_group_name_H-M	'P1'
_symmetry_Int_Tables_number	1
_symmetry_cell_setting	triclinic
loop_
_symmetry_equiv_pos_as_xyz
  x,y,z
_cell_length_a	7.413
_cell_length_b	23.889
_cell_length_c	7.467
_cell_angle_alpha	90
_cell_angle_beta	92.224
_cell_angle_gamma	90
loop_
_atom_site_label
_atom_site_type_symbol
_atom_site_fract_x
_atom_site_fract_y
_atom_site_fract_z
_atom_site_charge
Mof_O 	O 	0.5318	0.24248	0.6621	-0.421
Mof_C 	C 	0.6133	0.19626	0.6803	0.527
Mof_O 	O 	0.7216	0.17713	0.5709	-0.422
Mof_C 	C 	0.5786	0.16042	0.845	-0.683
Mof_H 	H 	0.6554	0.1276	0.8436	0.247
Mof_H 	H 	0.4541	0.1478	0.8391	0.223
Mof_C 	C 	0.6146	0.19209	0.0208	0.526
Mof_O 	O 	0.7323	0.17264	0.1292	-0.421
Mof_O 	O 	0.5242	0.23563	0.0483	-0.425
Mof_Mn	Mn	0.36503	0.28479	0.85513	0.906
Mof_N 	N 	0.5755	0.35443	0.9009	-0.199
Mof_C 	C 	0.5443	0.4001	0.9947	0.109
Mof_H 	H 	0.4311	0.4048	0.0419	-0.002
Mof_C 	C 	0.6749	0.4414	0.0258	-0.204
Mof_H 	H 	0.6476	0.4724	0.095	0.097
Mof_C 	C 	0.8422	0.4371	0.9561	0.15
Mof_C 	C 	0.8714	0.3905	0.8659	-0.225
Mof_H 	H 	0.9838	0.3847	0.8178	0.111
Mof_C 	C 	0.7406	0.3505	0.8418	0.133
Mof_H 	H 	0.77	0.3183	0.7793	-0.012
Mof_C 	C 	0.9883	0.4786	0.9691	-0.094
Mof_H 	H 	0.0894	0.4663	0.9105	0.061
Mof_O 	O 	0.9682	0.74248	0.8379	-0.411
Mof_C 	C 	0.8867	0.69626	0.8197	0.522
Mof_O 	O 	0.7784	0.67713	0.9291	-0.414
Mof_C 	C 	0.9214	0.66042	0.655	-0.656
Mof_H 	H 	0.8446	0.6276	0.6564	0.242
Mof_H 	H 	0.0459	0.6478	0.6609	0.212
Mof_C 	C 	0.8854	0.69209	0.4792	0.518
Mof_O 	O 	0.7677	0.67264	0.3708	-0.416
Mof_O 	O 	0.9758	0.73563	0.4517	-0.42
Mof_Mn	Mn	0.13497	0.78479	0.64487	0.901
Mof_N 	N 	0.9245	0.85443	0.5991	-0.201
Mof_C 	C 	0.9557	0.9001	0.5053	0.132
Mof_H 	H 	0.0689	0.9048	0.4581	-0.015
Mof_C 	C 	0.8251	0.9414	0.4742	-0.22
Mof_H 	H 	0.8524	0.9724	0.405	0.103
Mof_C 	C 	0.6578	0.9371	0.5439	0.16
Mof_C 	C 	0.6286	0.8905	0.6341	-0.232
Mof_H 	H 	0.5162	0.8847	0.6822	0.116
Mof_C 	C 	0.7594	0.8505	0.6582	0.139
Mof_H 	H 	0.73	0.8183	0.7207	-0.011
Mof_C 	C 	0.5117	0.9786	0.5309	-0.099
Mof_H 	H 	0.4106	0.9663	0.5895	0.063
Mof_O 	O 	0.4682	0.75752	0.3379	-0.42
Mof_C 	C 	0.3867	0.80374	0.3197	0.528
Mof_O 	O 	0.2784	0.82287	0.4291	-0.421
Mof_C 	C 	0.4214	0.83958	0.155	-0.682
Mof_H 	H 	0.3446	0.8724	0.1564	0.248
Mof_H 	H 	0.5459	0.8522	0.1609	0.224
Mof_C 	C 	0.3854	0.80791	0.9792	0.527
Mof_O 	O 	0.2677	0.82736	0.8708	-0.42
Mof_O 	O 	0.4758	0.76437	0.9517	-0.424
Mof_Mn	Mn	0.63497	0.71521	0.14487	0.907
Mof_N 	N 	0.4245	0.64557	0.0991	-0.199
Mof_C 	C 	0.4557	0.5999	0.0053	0.109
Mof_H 	H 	0.5689	0.5952	0.9581	-0.002
Mof_C 	C 	0.3251	0.5586	0.9742	-0.204
Mof_H 	H 	0.3524	0.5276	0.905	0.097
Mof_C 	C 	0.1578	0.5629	0.0439	0.15
Mof_C 	C 	0.1286	0.6095	0.1341	-0.225
Mof_H 	H 	0.0162	0.6153	0.1822	0.111
Mof_C 	C 	0.2594	0.6495	0.1582	0.133
Mof_H 	H 	0.23	0.6817	0.2207	-0.012
Mof_C 	C 	0.0117	0.5214	0.0309	-0.094
Mof_H 	H 	0.9106	0.5337	0.0895	0.061
Mof_O 	O 	0.0318	0.25752	0.1621	-0.411
Mof_C 	C 	0.1133	0.30374	0.1803	0.522
Mof_O 	O 	0.2216	0.32287	0.0709	-0.414
Mof_C 	C 	0.0786	0.33958	0.345	-0.656
Mof_H 	H 	0.1554	0.3724	0.3436	0.242
Mof_H 	H 	0.9541	0.3522	0.3391	0.212
Mof_C 	C 	0.1146	0.30791	0.5208	0.518
Mof_O 	O 	0.2323	0.32736	0.6292	-0.416
Mof_O 	O 	0.0242	0.26437	0.5483	-0.42
Mof_Mn	Mn	0.86503	0.21521	0.35513	0.901
Mof_N 	N 	0.0755	0.14557	0.4009	-0.201
Mof_C 	C 	0.0443	0.0999	0.4947	0.132
Mof_H 	H 	0.9311	0.0952	0.5419	-0.015
Mof_C 	C 	0.1749	0.0586	0.5258	-0.22
Mof_H 	H 	0.1476	0.0276	0.595	0.103
Mof_C 	C 	0.3422	0.0629	0.4561	0.16
Mof_C 	C 	0.3714	0.1095	0.3659	-0.232
Mof_H 	H 	0.4838	0.1153	0.3178	0.116
Mof_C 	C 	0.2406	0.1495	0.3418	0.139
Mof_H 	H 	0.27	0.1817	0.2793	-0.011
Mof_C 	C 	0.4883	0.0214	0.4691	-0.099
Mof_H 	H 	0.5894	0.0337	0.4105	0.063
_end
