data_functionalizedCrystal
_audit_creation_method	'EQeq! by Chris Wilmer'
_symmetry_space_group_name_H-M	'P1'
_symmetry_Int_Tables_number	1
_symmetry_cell_setting	triclinic
loop_
_symmetry_equiv_pos_as_xyz
  x,y,z
_cell_length_a	23.775
_cell_length_b	28.132
_cell_length_c	14.991
_cell_angle_alpha	90
_cell_angle_beta	90
_cell_angle_gamma	90
loop_
_atom_site_label
_atom_site_type_symbol
_atom_site_fract_x
_atom_site_fract_y
_atom_site_fract_z
_atom_site_charge
Mof_C 	C 	0.4535	0.3249	0.8241	0.367
Mof_C 	C 	0.4641	0.364	0.757	-0.144
Mof_C 	C 	0.4224	0.3768	0.6964	0.07
Mof_H 	H 	0.3875	0.3619	0.6983	0.012
Mof_C 	C 	0.4328	0.4115	0.6338	-0.141
Mof_C 	C 	0.4853	0.4344	0.633	0.075
Mof_H 	H 	0.4922	0.4584	0.5918	0.034
Mof_C 	C 	0.5262	0.4216	0.6923	-0.157
Mof_C 	C 	0.5154	0.3861	0.7542	0.081
Mof_H 	H 	0.5434	0.3771	0.7943	0.018
Mof_C 	C 	0.3891	0.4261	0.5663	0.341
Mof_C 	C 	0.5836	0.4451	0.6888	0.415
Mof_C 	C 	0.3565	0.1814	0.0533	0.431
Mof_C 	C 	0.3246	0.1368	0.0764	-0.189
Mof_C 	C 	0.3317	0.1159	0.1593	0.11
Mof_H 	H 	0.3553	0.1299	0.2013	0.015
Mof_C 	C 	0.3033	0.0738	0.1796	-0.194
Mof_C 	C 	0.2685	0.0526	0.1174	0.122
Mof_H 	H 	0.2506	0.0241	0.1307	-0.026
Mof_C 	C 	0.2605	0.0741	0.0345	-0.198
Mof_C 	C 	0.2897	0.1162	0.0158	0.121
Mof_H 	H 	0.285	0.1305	0.9604	0
Mof_C 	C 	0.3139	0.0515	0.2685	0.378
Mof_C 	C 	0.2237	0.0528	0.9657	0.417
Mof_C 	C 	0.395	0.2258	0.2874	0.123
Mof_C 	C 	0.4344	0.1727	0.3997	-0.399
Mof_H 	H 	0.4478	0.1497	0.3575	0.159
Mof_H 	H 	0.4216	0.1568	0.4525	0.16
Mof_H 	H 	0.4643	0.1941	0.4148	0.157
Mof_C 	C 	0.3261	0.1927	0.3908	-0.395
Mof_H 	H 	0.3234	0.1988	0.4536	0.147
Mof_H 	H 	0.3146	0.1606	0.3788	0.162
Mof_H 	H 	0.302	0.2143	0.3591	0.139
Mof_Co	Co	0.35439	0.47847	0.41375	1.191
Mof_Co	Co	0.70705	0.43614	0.74164	1.101
Mof_N 	N 	0.3874	0.1997	0.36	-0.038
Mof_O 	O 	0.4895	0.3203	0.885	-0.276
Mof_O 	O 	0.4103	0.301	0.8167	-0.416
Mof_O 	O 	0.33935	0.4126	0.5738	-0.33
Mof_O 	O 	0.40714	0.45265	0.5042	-0.416
Mof_O 	O 	0.6217	0.4285	0.736	-0.484
Mof_O 	O 	0.58681	0.48015	0.6358	-0.458
Mof_O 	O 	0.3897	0.19675	0.1109	-0.459
Mof_O 	O 	0.3461	0.1989	0.9786	-0.468
Mof_O 	O 	0.3398	0.4256	0.3277	-0.442
Mof_O 	O 	0.29793	0.49071	0.2845	-0.524
Mof_O 	O 	0.30132	0.51403	0.4871	-0.466
Mof_O 	O 	0.7186	0.42617	0.6072	-0.486
Mof_O 	O 	0.4396	0.2348	0.2534	-0.217
Mof_C 	C 	0.0465	0.6751	0.3241	0.368
Mof_C 	C 	0.0359	0.636	0.257	-0.142
Mof_C 	C 	0.0776	0.6232	0.1964	0.071
Mof_H 	H 	0.1125	0.6381	0.1983	0.013
Mof_C 	C 	0.0672	0.5885	0.1338	-0.14
Mof_C 	C 	0.0147	0.5656	0.133	0.077
Mof_H 	H 	0.0078	0.5416	0.0918	0.035
Mof_C 	C 	0.9738	0.5784	0.1923	-0.157
Mof_C 	C 	0.9846	0.6139	0.2542	0.081
Mof_H 	H 	0.9566	0.6229	0.2943	0.019
Mof_C 	C 	0.1109	0.5739	0.0663	0.342
Mof_C 	C 	0.9164	0.5549	0.1888	0.416
Mof_C 	C 	0.1435	0.8186	0.5533	0.434
Mof_C 	C 	0.1754	0.8632	0.5764	-0.189
Mof_C 	C 	0.1683	0.8841	0.6593	0.112
Mof_H 	H 	0.1447	0.8701	0.7013	0.016
Mof_C 	C 	0.1967	0.9262	0.6796	-0.195
Mof_C 	C 	0.2315	0.9474	0.6174	0.123
Mof_H 	H 	0.2494	0.9759	0.6307	-0.026
Mof_C 	C 	0.2395	0.9259	0.5345	-0.198
Mof_C 	C 	0.2103	0.8838	0.5158	0.123
Mof_H 	H 	0.215	0.8695	0.4604	-0.001
Mof_C 	C 	0.1861	0.9485	0.7685	0.379
Mof_C 	C 	0.2763	0.9472	0.4657	0.416
Mof_C 	C 	0.105	0.7742	0.7874	0.123
Mof_C 	C 	0.0656	0.8273	0.8997	-0.397
Mof_H 	H 	0.0522	0.8503	0.8575	0.158
Mof_H 	H 	0.0784	0.8432	0.9525	0.159
Mof_H 	H 	0.0357	0.8059	0.9148	0.156
Mof_C 	C 	0.1739	0.8073	0.8908	-0.394
Mof_H 	H 	0.1766	0.8012	0.9536	0.146
Mof_H 	H 	0.1854	0.8394	0.8788	0.161
Mof_H 	H 	0.198	0.7857	0.8591	0.138
Mof_Co	Co	0.14561	0.52153	0.91375	1.191
Mof_Co	Co	0.79295	0.56386	0.24164	1.101
Mof_N 	N 	0.1126	0.8003	0.86	-0.038
Mof_O 	O 	0.0105	0.6797	0.385	-0.276
Mof_O 	O 	0.0897	0.699	0.3167	-0.416
Mof_O 	O 	0.16065	0.5874	0.0738	-0.33
Mof_O 	O 	0.09286	0.54735	0.0042	-0.416
Mof_O 	O 	0.8783	0.5715	0.236	-0.484
Mof_O 	O 	0.91319	0.51985	0.1358	-0.459
Mof_O 	O 	0.1103	0.80325	0.6109	-0.459
Mof_O 	O 	0.1539	0.8011	0.4786	-0.469
Mof_O 	O 	0.1602	0.5744	0.8277	-0.442
Mof_O 	O 	0.20207	0.50929	0.7845	-0.524
Mof_O 	O 	0.19868	0.48597	0.9871	-0.467
Mof_O 	O 	0.7814	0.57383	0.1072	-0.486
Mof_O 	O 	0.0604	0.7652	0.7534	-0.217
Mof_C 	C 	0.5465	0.8249	0.1759	0.368
Mof_C 	C 	0.5359	0.864	0.243	-0.142
Mof_C 	C 	0.5776	0.8768	0.3036	0.071
Mof_H 	H 	0.6125	0.8619	0.3017	0.013
Mof_C 	C 	0.5672	0.9115	0.3662	-0.14
Mof_C 	C 	0.5147	0.9344	0.367	0.076
Mof_H 	H 	0.5078	0.9584	0.4082	0.035
Mof_C 	C 	0.4738	0.9216	0.3077	-0.156
Mof_C 	C 	0.4846	0.8861	0.2458	0.082
Mof_H 	H 	0.4566	0.8771	0.2057	0.019
Mof_C 	C 	0.6109	0.9261	0.4337	0.342
Mof_C 	C 	0.4164	0.9451	0.3112	0.416
Mof_C 	C 	0.6435	0.6814	0.9467	0.433
Mof_C 	C 	0.6754	0.6368	0.9236	-0.188
Mof_C 	C 	0.6683	0.6159	0.8407	0.112
Mof_H 	H 	0.6447	0.6299	0.7987	0.016
Mof_C 	C 	0.6967	0.5738	0.8204	-0.194
Mof_C 	C 	0.7315	0.5526	0.8826	0.122
Mof_H 	H 	0.7494	0.5241	0.8693	-0.025
Mof_C 	C 	0.7395	0.5741	0.9655	-0.197
Mof_C 	C 	0.7103	0.6162	0.9842	0.123
Mof_H 	H 	0.715	0.6305	0.0396	-0.001
Mof_C 	C 	0.6861	0.5515	0.7315	0.378
Mof_C 	C 	0.7763	0.5528	0.0343	0.415
Mof_C 	C 	0.605	0.7258	0.7126	0.122
Mof_C 	C 	0.5656	0.6727	0.6003	-0.399
Mof_H 	H 	0.5522	0.6497	0.6425	0.159
Mof_H 	H 	0.5784	0.6568	0.5475	0.16
Mof_H 	H 	0.5357	0.6941	0.5852	0.157
Mof_C 	C 	0.6739	0.6927	0.6092	-0.395
Mof_H 	H 	0.6766	0.6988	0.5464	0.147
Mof_H 	H 	0.6854	0.6606	0.6212	0.162
Mof_H 	H 	0.698	0.7143	0.6409	0.139
Mof_Co	Co	0.64561	0.97847	0.58625	1.191
Mof_Co	Co	0.29295	0.93614	0.25836	1.101
Mof_N 	N 	0.6126	0.6997	0.64	-0.038
Mof_O 	O 	0.5105	0.8203	0.115	-0.276
Mof_O 	O 	0.5897	0.801	0.1833	-0.416
Mof_O 	O 	0.66065	0.9126	0.4262	-0.33
Mof_O 	O 	0.59286	0.95265	0.4958	-0.416
Mof_O 	O 	0.3783	0.9285	0.264	-0.484
Mof_O 	O 	0.41319	0.98015	0.3642	-0.458
Mof_O 	O 	0.6103	0.69675	0.8891	-0.459
Mof_O 	O 	0.6539	0.6989	0.0214	-0.468
Mof_O 	O 	0.6602	0.9256	0.6723	-0.442
Mof_O 	O 	0.70207	0.99071	0.7155	-0.524
Mof_O 	O 	0.69868	0.01403	0.5129	-0.466
Mof_O 	O 	0.2814	0.92617	0.3928	-0.486
Mof_O 	O 	0.5604	0.7348	0.7466	-0.217
Mof_C 	C 	0.9535	0.1751	0.6759	0.368
Mof_C 	C 	0.9641	0.136	0.743	-0.142
Mof_C 	C 	0.9224	0.1232	0.8036	0.071
Mof_H 	H 	0.8875	0.1381	0.8017	0.013
Mof_C 	C 	0.9328	0.0885	0.8662	-0.139
Mof_C 	C 	0.9853	0.0656	0.867	0.076
Mof_H 	H 	0.9922	0.0416	0.9082	0.036
Mof_C 	C 	0.0262	0.0784	0.8077	-0.157
Mof_C 	C 	0.0154	0.1139	0.7458	0.081
Mof_H 	H 	0.0434	0.1229	0.7057	0.019
Mof_C 	C 	0.8891	0.0739	0.9337	0.342
Mof_C 	C 	0.0836	0.0549	0.8112	0.416
Mof_C 	C 	0.8565	0.3186	0.4467	0.433
Mof_C 	C 	0.8246	0.3632	0.4236	-0.189
Mof_C 	C 	0.8317	0.3841	0.3407	0.112
Mof_H 	H 	0.8553	0.3701	0.2987	0.016
Mof_C 	C 	0.8033	0.4262	0.3204	-0.195
Mof_C 	C 	0.7685	0.4474	0.3826	0.123
Mof_H 	H 	0.7506	0.4759	0.3693	-0.025
Mof_C 	C 	0.7605	0.4259	0.4655	-0.198
Mof_C 	C 	0.7897	0.3838	0.4842	0.123
Mof_H 	H 	0.785	0.3695	0.5396	-0.001
Mof_C 	C 	0.8139	0.4485	0.2315	0.379
Mof_C 	C 	0.7237	0.4472	0.5343	0.416
Mof_C 	C 	0.895	0.2742	0.2126	0.123
Mof_C 	C 	0.9344	0.3273	0.1003	-0.398
Mof_H 	H 	0.9478	0.3503	0.1425	0.158
Mof_H 	H 	0.9216	0.3432	0.0475	0.159
Mof_H 	H 	0.9643	0.3059	0.0852	0.156
Mof_C 	C 	0.8261	0.3073	0.1092	-0.394
Mof_H 	H 	0.8234	0.3012	0.0464	0.146
Mof_H 	H 	0.8146	0.3394	0.1212	0.161
Mof_H 	H 	0.802	0.2857	0.1409	0.139
Mof_Co	Co	0.85439	0.02153	0.08625	1.19
Mof_Co	Co	0.20705	0.06386	0.75836	1.101
Mof_N 	N 	0.8874	0.3003	0.14	-0.038
Mof_O 	O 	0.9895	0.1797	0.615	-0.276
Mof_O 	O 	0.9103	0.199	0.6833	-0.416
Mof_O 	O 	0.83935	0.0874	0.9262	-0.33
Mof_O 	O 	0.90714	0.04735	0.9958	-0.415
Mof_O 	O 	0.1217	0.0715	0.764	-0.484
Mof_O 	O 	0.08681	0.01985	0.8642	-0.458
Mof_O 	O 	0.8897	0.30325	0.3891	-0.459
Mof_O 	O 	0.8461	0.3011	0.5214	-0.469
Mof_O 	O 	0.8398	0.0744	0.1723	-0.442
Mof_O 	O 	0.79793	0.00929	0.2155	-0.525
Mof_O 	O 	0.80132	0.98597	0.0129	-0.466
Mof_O 	O 	0.2186	0.07383	0.8928	-0.486
Mof_O 	O 	0.9396	0.2652	0.2466	-0.217
Mof_C 	C 	0.5465	0.6751	0.1759	0.368
Mof_C 	C 	0.5359	0.636	0.243	-0.143
Mof_C 	C 	0.5776	0.6232	0.3036	0.071
Mof_H 	H 	0.6125	0.6381	0.3017	0.013
Mof_C 	C 	0.5672	0.5885	0.3662	-0.14
Mof_C 	C 	0.5147	0.5656	0.367	0.076
Mof_H 	H 	0.5078	0.5416	0.4082	0.035
Mof_C 	C 	0.4738	0.5784	0.3077	-0.156
Mof_C 	C 	0.4846	0.6139	0.2458	0.082
Mof_H 	H 	0.4566	0.6229	0.2057	0.019
Mof_C 	C 	0.6109	0.5739	0.4337	0.342
Mof_C 	C 	0.4164	0.5549	0.3112	0.416
Mof_C 	C 	0.6435	0.8186	0.9467	0.432
Mof_C 	C 	0.6754	0.8632	0.9236	-0.188
Mof_C 	C 	0.6683	0.8841	0.8407	0.111
Mof_H 	H 	0.6447	0.8701	0.7987	0.016
Mof_C 	C 	0.6967	0.9262	0.8204	-0.194
Mof_C 	C 	0.7315	0.9474	0.8826	0.122
Mof_H 	H 	0.7494	0.9759	0.8693	-0.026
Mof_C 	C 	0.7395	0.9259	0.9655	-0.198
Mof_C 	C 	0.7103	0.8838	0.9842	0.121
Mof_H 	H 	0.715	0.8695	0.0396	0
Mof_C 	C 	0.6861	0.9485	0.7315	0.378
Mof_C 	C 	0.7763	0.9472	0.0343	0.417
Mof_C 	C 	0.605	0.7742	0.7126	0.123
Mof_C 	C 	0.5656	0.8273	0.6003	-0.399
Mof_H 	H 	0.5522	0.8503	0.6425	0.159
Mof_H 	H 	0.5784	0.8432	0.5475	0.16
Mof_H 	H 	0.5357	0.8059	0.5852	0.157
Mof_C 	C 	0.6739	0.8073	0.6092	-0.395
Mof_H 	H 	0.6766	0.8012	0.5464	0.147
Mof_H 	H 	0.6854	0.8394	0.6212	0.162
Mof_H 	H 	0.698	0.7857	0.6409	0.139
Mof_Co	Co	0.64561	0.52153	0.58625	1.191
Mof_Co	Co	0.29295	0.56386	0.25836	1.101
Mof_N 	N 	0.6126	0.8003	0.64	-0.038
Mof_O 	O 	0.5105	0.6797	0.115	-0.276
Mof_O 	O 	0.5897	0.699	0.1833	-0.416
Mof_O 	O 	0.66065	0.5874	0.4262	-0.33
Mof_O 	O 	0.59286	0.54735	0.4958	-0.416
Mof_O 	O 	0.3783	0.5715	0.264	-0.484
Mof_O 	O 	0.41319	0.51985	0.3642	-0.458
Mof_O 	O 	0.6103	0.80325	0.8891	-0.459
Mof_O 	O 	0.6539	0.8011	0.0214	-0.468
Mof_O 	O 	0.6602	0.5744	0.6723	-0.442
Mof_O 	O 	0.70207	0.50929	0.7155	-0.524
Mof_O 	O 	0.69868	0.48597	0.5129	-0.466
Mof_O 	O 	0.2814	0.57383	0.3928	-0.486
Mof_O 	O 	0.5604	0.7652	0.7466	-0.217
Mof_C 	C 	0.9535	0.3249	0.6759	0.368
Mof_C 	C 	0.9641	0.364	0.743	-0.142
Mof_C 	C 	0.9224	0.3768	0.8036	0.071
Mof_H 	H 	0.8875	0.3619	0.8017	0.013
Mof_C 	C 	0.9328	0.4115	0.8662	-0.14
Mof_C 	C 	0.9853	0.4344	0.867	0.077
Mof_H 	H 	0.9922	0.4584	0.9082	0.035
Mof_C 	C 	0.0262	0.4216	0.8077	-0.157
Mof_C 	C 	0.0154	0.3861	0.7458	0.081
Mof_H 	H 	0.0434	0.3771	0.7057	0.019
Mof_C 	C 	0.8891	0.4261	0.9337	0.342
Mof_C 	C 	0.0836	0.4451	0.8112	0.416
Mof_C 	C 	0.8565	0.1814	0.4467	0.434
Mof_C 	C 	0.8246	0.1368	0.4236	-0.189
Mof_C 	C 	0.8317	0.1159	0.3407	0.112
Mof_H 	H 	0.8553	0.1299	0.2987	0.016
Mof_C 	C 	0.8033	0.0738	0.3204	-0.195
Mof_C 	C 	0.7685	0.0526	0.3826	0.123
Mof_H 	H 	0.7506	0.0241	0.3693	-0.026
Mof_C 	C 	0.7605	0.0741	0.4655	-0.198
Mof_C 	C 	0.7897	0.1162	0.4842	0.123
Mof_H 	H 	0.785	0.1305	0.5396	-0.001
Mof_C 	C 	0.8139	0.0515	0.2315	0.379
Mof_C 	C 	0.7237	0.0528	0.5343	0.416
Mof_C 	C 	0.895	0.2258	0.2126	0.123
Mof_C 	C 	0.9344	0.1727	0.1003	-0.397
Mof_H 	H 	0.9478	0.1497	0.1425	0.158
Mof_H 	H 	0.9216	0.1568	0.0475	0.159
Mof_H 	H 	0.9643	0.1941	0.0852	0.156
Mof_C 	C 	0.8261	0.1927	0.1092	-0.394
Mof_H 	H 	0.8234	0.1988	0.0464	0.146
Mof_H 	H 	0.8146	0.1606	0.1212	0.161
Mof_H 	H 	0.802	0.2143	0.1409	0.138
Mof_Co	Co	0.85439	0.47847	0.08625	1.191
Mof_Co	Co	0.20705	0.43614	0.75836	1.101
Mof_N 	N 	0.8874	0.1997	0.14	-0.038
Mof_O 	O 	0.9895	0.3203	0.615	-0.276
Mof_O 	O 	0.9103	0.301	0.6833	-0.416
Mof_O 	O 	0.83935	0.4126	0.9262	-0.33
Mof_O 	O 	0.90714	0.45265	0.9958	-0.416
Mof_O 	O 	0.1217	0.4285	0.764	-0.484
Mof_O 	O 	0.08681	0.48015	0.8642	-0.459
Mof_O 	O 	0.8897	0.19675	0.3891	-0.459
Mof_O 	O 	0.8461	0.1989	0.5214	-0.469
Mof_O 	O 	0.8398	0.4256	0.1723	-0.442
Mof_O 	O 	0.79793	0.49071	0.2155	-0.524
Mof_O 	O 	0.80132	0.51403	0.0129	-0.467
Mof_O 	O 	0.2186	0.42617	0.8928	-0.486
Mof_O 	O 	0.9396	0.2348	0.2466	-0.217
Mof_C 	C 	0.4535	0.1751	0.8241	0.368
Mof_C 	C 	0.4641	0.136	0.757	-0.142
Mof_C 	C 	0.4224	0.1232	0.6964	0.071
Mof_H 	H 	0.3875	0.1381	0.6983	0.013
Mof_C 	C 	0.4328	0.0885	0.6338	-0.14
Mof_C 	C 	0.4853	0.0656	0.633	0.076
Mof_H 	H 	0.4922	0.0416	0.5918	0.035
Mof_C 	C 	0.5262	0.0784	0.6923	-0.156
Mof_C 	C 	0.5154	0.1139	0.7542	0.082
Mof_H 	H 	0.5434	0.1229	0.7943	0.019
Mof_C 	C 	0.3891	0.0739	0.5663	0.342
Mof_C 	C 	0.5836	0.0549	0.6888	0.416
Mof_C 	C 	0.3565	0.3186	0.0533	0.433
Mof_C 	C 	0.3246	0.3632	0.0764	-0.188
Mof_C 	C 	0.3317	0.3841	0.1593	0.112
Mof_H 	H 	0.3553	0.3701	0.2013	0.016
Mof_C 	C 	0.3033	0.4262	0.1796	-0.194
Mof_C 	C 	0.2685	0.4474	0.1174	0.122
Mof_H 	H 	0.2506	0.4759	0.1307	-0.025
Mof_C 	C 	0.2605	0.4259	0.0345	-0.197
Mof_C 	C 	0.2897	0.3838	0.0158	0.123
Mof_H 	H 	0.285	0.3695	0.9604	-0.001
Mof_C 	C 	0.3139	0.4485	0.2685	0.378
Mof_C 	C 	0.2237	0.4472	0.9657	0.415
Mof_C 	C 	0.395	0.2742	0.2874	0.122
Mof_C 	C 	0.4344	0.3273	0.3997	-0.399
Mof_H 	H 	0.4478	0.3503	0.3575	0.159
Mof_H 	H 	0.4216	0.3432	0.4525	0.16
Mof_H 	H 	0.4643	0.3059	0.4148	0.157
Mof_C 	C 	0.3261	0.3073	0.3908	-0.395
Mof_H 	H 	0.3234	0.3012	0.4536	0.147
Mof_H 	H 	0.3146	0.3394	0.3788	0.162
Mof_H 	H 	0.302	0.2857	0.3591	0.139
Mof_Co	Co	0.35439	0.02153	0.41375	1.191
Mof_Co	Co	0.70705	0.06386	0.74164	1.101
Mof_N 	N 	0.3874	0.3003	0.36	-0.038
Mof_O 	O 	0.4895	0.1797	0.885	-0.276
Mof_O 	O 	0.4103	0.199	0.8167	-0.416
Mof_O 	O 	0.33935	0.0874	0.5738	-0.33
Mof_O 	O 	0.40714	0.04735	0.5042	-0.416
Mof_O 	O 	0.6217	0.0715	0.736	-0.484
Mof_O 	O 	0.58681	0.01985	0.6358	-0.458
Mof_O 	O 	0.3897	0.30325	0.1109	-0.459
Mof_O 	O 	0.3461	0.3011	0.9786	-0.468
Mof_O 	O 	0.3398	0.0744	0.3277	-0.442
Mof_O 	O 	0.29793	0.00929	0.2845	-0.524
Mof_O 	O 	0.30132	0.98597	0.4871	-0.466
Mof_O 	O 	0.7186	0.07383	0.6072	-0.486
Mof_O 	O 	0.4396	0.2652	0.2534	-0.217
Mof_C 	C 	0.0465	0.8249	0.3241	0.368
Mof_C 	C 	0.0359	0.864	0.257	-0.142
Mof_C 	C 	0.0776	0.8768	0.1964	0.071
Mof_H 	H 	0.1125	0.8619	0.1983	0.013
Mof_C 	C 	0.0672	0.9115	0.1338	-0.139
Mof_C 	C 	0.0147	0.9344	0.133	0.076
Mof_H 	H 	0.0078	0.9584	0.0918	0.036
Mof_C 	C 	0.9738	0.9216	0.1923	-0.157
Mof_C 	C 	0.9846	0.8861	0.2542	0.081
Mof_H 	H 	0.9566	0.8771	0.2943	0.019
Mof_C 	C 	0.1109	0.9261	0.0663	0.342
Mof_C 	C 	0.9164	0.9451	0.1888	0.416
Mof_C 	C 	0.1435	0.6814	0.5533	0.433
Mof_C 	C 	0.1754	0.6368	0.5764	-0.189
Mof_C 	C 	0.1683	0.6159	0.6593	0.112
Mof_H 	H 	0.1447	0.6299	0.7013	0.016
Mof_C 	C 	0.1967	0.5738	0.6796	-0.195
Mof_C 	C 	0.2315	0.5526	0.6174	0.123
Mof_H 	H 	0.2494	0.5241	0.6307	-0.025
Mof_C 	C 	0.2395	0.5741	0.5345	-0.198
Mof_C 	C 	0.2103	0.6162	0.5158	0.123
Mof_H 	H 	0.215	0.6305	0.4604	-0.001
Mof_C 	C 	0.1861	0.5515	0.7685	0.379
Mof_C 	C 	0.2763	0.5528	0.4657	0.416
Mof_C 	C 	0.105	0.7258	0.7874	0.123
Mof_C 	C 	0.0656	0.6727	0.8997	-0.398
Mof_H 	H 	0.0522	0.6497	0.8575	0.158
Mof_H 	H 	0.0784	0.6568	0.9525	0.159
Mof_H 	H 	0.0357	0.6941	0.9148	0.156
Mof_C 	C 	0.1739	0.6927	0.8908	-0.394
Mof_H 	H 	0.1766	0.6988	0.9536	0.146
Mof_H 	H 	0.1854	0.6606	0.8788	0.161
Mof_H 	H 	0.198	0.7143	0.8591	0.139
Mof_Co	Co	0.14561	0.97847	0.91375	1.19
Mof_Co	Co	0.79295	0.93614	0.24164	1.101
Mof_N 	N 	0.1126	0.6997	0.86	-0.038
Mof_O 	O 	0.0105	0.8203	0.385	-0.276
Mof_O 	O 	0.0897	0.801	0.3167	-0.416
Mof_O 	O 	0.16065	0.9126	0.0738	-0.33
Mof_O 	O 	0.09286	0.95265	0.0042	-0.415
Mof_O 	O 	0.8783	0.9285	0.236	-0.484
Mof_O 	O 	0.91319	0.98015	0.1358	-0.458
Mof_O 	O 	0.1103	0.69675	0.6109	-0.459
Mof_O 	O 	0.1539	0.6989	0.4786	-0.469
Mof_O 	O 	0.1602	0.9256	0.8277	-0.442
Mof_O 	O 	0.20207	0.99071	0.7845	-0.525
Mof_O 	O 	0.19868	0.01403	0.9871	-0.466
Mof_O 	O 	0.7814	0.92617	0.1072	-0.486
Mof_O 	O 	0.0604	0.7348	0.7534	-0.217
Mof_Co	Co	0.37951	0.25	0.90331	1.187
Mof_Co	Co	0.448	0.25	0.11544	1.141
Mof_O 	O 	0.4577	0.25	0.9771	-0.401
Mof_Co	Co	0.12049	0.75	0.40331	1.187
Mof_Co	Co	0.052	0.75	0.61544	1.141
Mof_O 	O 	0.0423	0.75	0.4771	-0.402
Mof_Co	Co	0.62049	0.75	0.09669	1.187
Mof_Co	Co	0.552	0.75	0.88456	1.141
Mof_O 	O 	0.5423	0.75	0.0229	-0.401
Mof_Co	Co	0.87951	0.25	0.59669	1.187
Mof_Co	Co	0.948	0.25	0.38456	1.141
Mof_O 	O 	0.9577	0.25	0.5229	-0.402
_end
