data_functionalizedCrystal
_audit_creation_method	'EQeq! by Chris Wilmer'
_symmetry_space_group_name_H-M	'P1'
_symmetry_Int_Tables_number	1
_symmetry_cell_setting	triclinic
loop_
_symmetry_equiv_pos_as_xyz
  x,y,z
_cell_length_a	12.172
_cell_length_b	16.3974
_cell_length_c	16.3974
_cell_angle_alpha	65.9106
_cell_angle_beta	75.674
_cell_angle_gamma	104.326
loop_
_atom_site_label
_atom_site_type_symbol
_atom_site_fract_x
_atom_site_fract_y
_atom_site_fract_z
_atom_site_charge
Mof_Co	Co	0.37748	0.40059	0.55276	1.14
Mof_Co	Co	0.60413	0.35322	0.60697	1.136
Mof_Co	Co	0.93024	0.55276	0.04665	1.14
Mof_Co	Co	0.2111	0.60697	0.03981	1.136
Mof_Co	Co	0.97689	0.04665	0.40059	1.14
Mof_Co	Co	0.25091	0.03981	0.35322	1.137
Mof_Co	Co	0.62252	0.59941	0.44724	1.14
Mof_Co	Co	0.39587	0.64678	0.39303	1.136
Mof_Co	Co	0.06976	0.44724	0.95335	1.14
Mof_Co	Co	0.7889	0.39303	0.96019	1.136
Mof_Co	Co	0.02311	0.95335	0.59941	1.14
Mof_Co	Co	0.74909	0.96019	0.64678	1.137
Mof_H 	H 	0.248	0.5637	0.2305	0.008
Mof_H 	H 	0.4371	0.3861	0.1447	0.097
Mof_H 	H 	0.2025	0.1217	0.5943	0.028
Mof_H 	H 	0.16	0.8503	0.7126	0.02
Mof_H 	H 	0.4394	0.0438	0.7069	0.004
Mof_H 	H 	0.422	0.3832	0.29	0.033
Mof_H 	H 	0.3278	0.885	0.7497	0.105
Mof_H 	H 	0.3539	0.4753	0.0491	-0.007
Mof_H 	H 	0.4785	0.2305	0.2058	0.008
Mof_H 	H 	0.5818	0.1447	0.4692	0.097
Mof_H 	H 	0.7968	0.5943	0.284	0.028
Mof_H 	H 	0.8726	0.7126	0.4371	0.02
Mof_H 	H 	0.1463	0.7069	0.2493	0.004
Mof_H 	H 	0.712	0.29	0.3268	0.033
Mof_H 	H 	0.0775	0.7497	0.3653	0.105
Mof_H 	H 	0.403	0.0491	0.4756	-0.007
Mof_H 	H 	0.6843	0.2058	0.5637	0.008
Mof_H 	H 	0.051	0.4692	0.3861	0.097
Mof_H 	H 	0.0808	0.284	0.1217	0.028
Mof_H 	H 	0.3097	0.4371	0.8503	0.02
Mof_H 	H 	0.3956	0.2493	0.0438	0.004
Mof_H 	H 	0.0388	0.3268	0.3832	0.032
Mof_H 	H 	0.4428	0.3653	0.885	0.105
Mof_H 	H 	0.8786	0.4756	0.4753	-0.007
Mof_H 	H 	0.752	0.4363	0.7695	0.008
Mof_H 	H 	0.5629	0.6139	0.8553	0.097
Mof_H 	H 	0.7975	0.8783	0.4057	0.028
Mof_H 	H 	0.84	0.1497	0.2874	0.02
Mof_H 	H 	0.5606	0.9562	0.2931	0.004
Mof_H 	H 	0.578	0.6168	0.71	0.033
Mof_H 	H 	0.6722	0.115	0.2503	0.105
Mof_H 	H 	0.6461	0.5247	0.9509	-0.007
Mof_H 	H 	0.5215	0.7695	0.7942	0.008
Mof_H 	H 	0.4182	0.8553	0.5308	0.097
Mof_H 	H 	0.2032	0.4057	0.716	0.028
Mof_H 	H 	0.1274	0.2874	0.5629	0.02
Mof_H 	H 	0.8537	0.2931	0.7507	0.004
Mof_H 	H 	0.288	0.71	0.6732	0.033
Mof_H 	H 	0.9225	0.2503	0.6347	0.105
Mof_H 	H 	0.597	0.9509	0.5244	-0.007
Mof_H 	H 	0.3157	0.7942	0.4363	0.008
Mof_H 	H 	0.949	0.5308	0.6139	0.097
Mof_H 	H 	0.9192	0.716	0.8783	0.028
Mof_H 	H 	0.6903	0.5629	0.1497	0.02
Mof_H 	H 	0.6044	0.7507	0.9562	0.004
Mof_H 	H 	0.9612	0.6732	0.6168	0.032
Mof_H 	H 	0.5572	0.6347	0.115	0.105
Mof_H 	H 	0.1214	0.5244	0.5247	-0.007
Mof_C 	C 	0.3344	0.4746	0.2743	-0.141
Mof_C 	C 	0.2862	0.5272	0.2132	0.085
Mof_C 	C 	0.3326	0.0996	0.6439	-0.151
Mof_C 	C 	0.3984	0.4215	0.1639	-0.149
Mof_C 	C 	0.23	0.0739	0.6242	0.095
Mof_C 	C 	0.2044	0.9144	0.6942	0.107
Mof_C 	C 	0.3271	0.48	0.3664	0.406
Mof_C 	C 	0.371	0.0288	0.6919	0.095
Mof_C 	C 	0.3903	0.42	0.2497	0.087
Mof_C 	C 	0.3981	0.2052	0.613	0.419
Mof_C 	C 	0.3044	0.9346	0.7171	-0.155
Mof_C 	C 	0.3485	0.4755	0.1066	0.091
Mof_C 	C 	0.6087	0.2743	0.2511	-0.141
Mof_C 	C 	0.4994	0.2132	0.2596	0.085
Mof_C 	C 	0.9765	0.6439	0.2565	-0.149
Mof_C 	C 	0.5623	0.1639	0.4146	-0.149
Mof_C 	C 	0.8542	0.6242	0.3019	0.094
Mof_C 	C 	0.8986	0.6942	0.3914	0.107
Mof_C 	C 	0.6935	0.3664	0.1536	0.406
Mof_C 	C 	0.0629	0.6919	0.2793	0.094
Mof_C 	C 	0.64	0.2497	0.3303	0.087
Mof_C 	C 	0.0111	0.613	0.1818	0.416
Mof_C 	C 	0.0215	0.7171	0.3483	-0.156
Mof_C 	C 	0.4551	0.1066	0.4179	0.091
Mof_C 	C 	0.8598	0.2511	0.4746	-0.141
Mof_C 	C 	0.759	0.2596	0.5272	0.085
Mof_C 	C 	0.233	0.2565	0.0996	-0.151
Mof_C 	C 	0.9769	0.4146	0.4215	-0.149
Mof_C 	C 	0.1561	0.3019	0.0739	0.095
Mof_C 	C 	0.29	0.3914	0.9144	0.107
Mof_C 	C 	0.8471	0.1536	0.48	0.406
Mof_C 	C 	0.3422	0.2793	0.0288	0.095
Mof_C 	C 	0.9703	0.3303	0.42	0.087
Mof_C 	C 	0.1929	0.1818	0.2052	0.419
Mof_C 	C 	0.3698	0.3483	0.9346	-0.155
Mof_C 	C 	0.873	0.4179	0.4755	0.091
Mof_C 	C 	0.6656	0.5254	0.7257	-0.141
Mof_C 	C 	0.7138	0.4728	0.7868	0.085
Mof_C 	C 	0.6674	0.9004	0.3561	-0.151
Mof_C 	C 	0.6016	0.5785	0.8361	-0.149
Mof_C 	C 	0.77	0.9261	0.3758	0.095
Mof_C 	C 	0.7956	0.0856	0.3058	0.107
Mof_C 	C 	0.6729	0.52	0.6336	0.406
Mof_C 	C 	0.629	0.9712	0.3081	0.095
Mof_C 	C 	0.6097	0.58	0.7503	0.087
Mof_C 	C 	0.6019	0.7948	0.387	0.419
Mof_C 	C 	0.6956	0.0654	0.2829	-0.155
Mof_C 	C 	0.6515	0.5245	0.8934	0.091
Mof_C 	C 	0.3913	0.7257	0.7489	-0.141
Mof_C 	C 	0.5006	0.7868	0.7404	0.085
Mof_C 	C 	0.0235	0.3561	0.7435	-0.149
Mof_C 	C 	0.4377	0.8361	0.5854	-0.149
Mof_C 	C 	0.1458	0.3758	0.6981	0.094
Mof_C 	C 	0.1014	0.3058	0.6086	0.107
Mof_C 	C 	0.3065	0.6336	0.8464	0.406
Mof_C 	C 	0.9371	0.3081	0.7207	0.094
Mof_C 	C 	0.36	0.7503	0.6697	0.087
Mof_C 	C 	0.9889	0.387	0.8182	0.416
Mof_C 	C 	0.9785	0.2829	0.6517	-0.156
Mof_C 	C 	0.5449	0.8934	0.5821	0.091
Mof_C 	C 	0.1402	0.7489	0.5254	-0.141
Mof_C 	C 	0.241	0.7404	0.4728	0.085
Mof_C 	C 	0.767	0.7435	0.9004	-0.151
Mof_C 	C 	0.0231	0.5854	0.5785	-0.149
Mof_C 	C 	0.8439	0.6981	0.9261	0.095
Mof_C 	C 	0.71	0.6086	0.0856	0.107
Mof_C 	C 	0.1529	0.8464	0.52	0.406
Mof_C 	C 	0.6578	0.7207	0.9712	0.095
Mof_C 	C 	0.0297	0.6697	0.58	0.087
Mof_C 	C 	0.8071	0.8182	0.7948	0.419
Mof_C 	C 	0.6302	0.6517	0.0654	-0.155
Mof_C 	C 	0.127	0.5821	0.5245	0.091
Mof_N 	N 	0.2929	0.5275	0.1304	-0.237
Mof_N 	N 	0.1682	0.9831	0.6459	-0.233
Mof_N 	N 	0.5786	0.4493	0.4821	-0.367
Mof_N 	N 	0.6035	0.4319	0.4146	-0.062
Mof_N 	N 	0.624	0.4182	0.3526	-0.06
Mof_N 	N 	0.4233	0.1304	0.3421	-0.237
Mof_N 	N 	0.8141	0.6459	0.371	-0.233
Mof_N 	N 	0.0607	0.4821	0.0686	-0.367
Mof_N 	N 	0.0181	0.4146	0.1535	-0.063
Mof_N 	N 	0.9766	0.3526	0.2292	-0.059
Mof_N 	N 	0.7654	0.3421	0.5275	-0.237
Mof_N 	N 	0.1851	0.371	0.9831	-0.232
Mof_N 	N 	0.1293	0.0686	0.4493	-0.366
Mof_N 	N 	0.1716	0.1535	0.4319	-0.062
Mof_N 	N 	0.2058	0.2292	0.4182	-0.06
Mof_N 	N 	0.7071	0.4725	0.8696	-0.237
Mof_N 	N 	0.8318	0.0169	0.3541	-0.233
Mof_N 	N 	0.4214	0.5507	0.5179	-0.367
Mof_N 	N 	0.3965	0.5681	0.5854	-0.062
Mof_N 	N 	0.376	0.5818	0.6474	-0.06
Mof_N 	N 	0.5767	0.8696	0.6579	-0.237
Mof_N 	N 	0.1859	0.3541	0.629	-0.233
Mof_N 	N 	0.9393	0.5179	0.9314	-0.367
Mof_N 	N 	0.9819	0.5854	0.8465	-0.063
Mof_N 	N 	0.0234	0.6474	0.7708	-0.059
Mof_N 	N 	0.2346	0.6579	0.4725	-0.237
Mof_N 	N 	0.8149	0.629	0.0169	-0.232
Mof_N 	N 	0.8707	0.9314	0.5507	-0.366
Mof_N 	N 	0.8284	0.8465	0.5681	-0.062
Mof_N 	N 	0.7942	0.7708	0.5818	-0.06
Mof_Cl	Cl	0.41352	0.35615	0.70509	-0.599
Mof_Cl	Cl	0.11861	0.70509	0.93876	-0.598
Mof_Cl	Cl	0.05737	0.93876	0.35615	-0.6
Mof_Cl	Cl	0.58648	0.64385	0.29491	-0.599
Mof_Cl	Cl	0.88139	0.29491	0.06124	-0.598
Mof_Cl	Cl	0.94263	0.06124	0.64385	-0.6
Mof_O 	O 	0.347	0.2608	0.5813	-0.429
Mof_O 	O 	0.3587	0.4234	0.4232	-0.433
Mof_O 	O 	0.4995	0.2271	0.6208	-0.462
Mof_O 	O 	0.2927	0.5432	0.375	-0.471
Mof_O 	O 	0.9283	0.5813	0.1579	-0.428
Mof_O 	O 	0.7819	0.4232	0.1534	-0.433
Mof_O 	O 	0.1203	0.6208	0.1521	-0.462
Mof_O 	O 	0.6677	0.375	0.0818	-0.47
Mof_O 	O 	0.0862	0.1579	0.2608	-0.429
Mof_O 	O 	0.9353	0.1534	0.4234	-0.433
Mof_O 	O 	0.2724	0.1521	0.2271	-0.462
Mof_O 	O 	0.7495	0.0818	0.5432	-0.471
Mof_O 	O 	0.653	0.7392	0.4187	-0.429
Mof_O 	O 	0.6413	0.5766	0.5768	-0.433
Mof_O 	O 	0.5005	0.7729	0.3792	-0.462
Mof_O 	O 	0.7073	0.4568	0.625	-0.471
Mof_O 	O 	0.0717	0.4187	0.8421	-0.428
Mof_O 	O 	0.2181	0.5768	0.8466	-0.433
Mof_O 	O 	0.8797	0.3792	0.8479	-0.462
Mof_O 	O 	0.3323	0.625	0.9182	-0.47
Mof_O 	O 	0.9138	0.8421	0.7392	-0.429
Mof_O 	O 	0.0647	0.8466	0.5766	-0.433
Mof_O 	O 	0.7276	0.8479	0.7729	-0.462
Mof_O 	O 	0.2505	0.9182	0.4568	-0.471
_end
