data_functionalizedCrystal
_audit_creation_method	'EQeq! by Chris Wilmer'
_symmetry_space_group_name_H-M	'P1'
_symmetry_Int_Tables_number	1
_symmetry_cell_setting	triclinic
loop_
_symmetry_equiv_pos_as_xyz
  x,y,z
_cell_length_a	17.1694
_cell_length_b	32.1903
_cell_length_c	32.925
_cell_angle_alpha	90
_cell_angle_beta	90
_cell_angle_gamma	90
loop_
_atom_site_label
_atom_site_type_symbol
_atom_site_fract_x
_atom_site_fract_y
_atom_site_fract_z
_atom_site_charge
Mof_C 	C 	0.644	0.9871	0.2603	0.378
Mof_C 	C 	0.5531	0.9882	0.2601	-0.067
Mof_C 	C 	0.5143	0.951	0.2682	-0.067
Mof_H 	H 	0.5415	0.9268	0.274	0.072
Mof_C 	C 	0.3916	0.9876	0.2614	-0.004
Mof_C 	C 	0.432	0.0256	0.2568	-0.072
Mof_H 	H 	0.4046	0.0504	0.2545	0.055
Mof_C 	C 	0.5132	0.0256	0.2556	-0.006
Mof_H 	H 	0.5404	0.0503	0.2519	0.031
Mof_C 	C 	0.2999	0.9889	0.2624	0.003
Mof_C 	C 	0.2558	0.9676	0.2343	0.069
Mof_C 	C 	0.1798	0.9726	0.2335	-0.064
Mof_H 	H 	0.1509	0.9612	0.2124	0.073
Mof_C 	C 	0.1412	0.9953	0.2647	-0.07
Mof_C 	C 	0.1876	0.0156	0.2934	0.006
Mof_H 	H 	0.1641	0.0323	0.3129	0.04
Mof_C 	C 	0.265	0.0114	0.2934	-0.075
Mof_H 	H 	0.295	0.0234	0.3137	0.058
Mof_C 	C 	0.0544	0.0006	0.2632	0.367
Mof_C 	C 	0.4331	0.9517	0.2674	0.067
Mof_N 	N 	0.3958	0.9133	0.2766	-0.119
Mof_C 	C 	0.3455	0.8964	0.251	0.021
Mof_C 	C 	0.3016	0.8581	0.2617	0.053
Mof_C 	C 	0.3226	0.8356	0.296	-0.1
Mof_H 	H 	0.3652	0.8438	0.3115	0.074
Mof_C 	C 	0.28	0.8007	0.3071	0.012
Mof_H 	H 	0.294	0.7856	0.33	0.025
Mof_C 	C 	0.2164	0.7883	0.2839	-0.084
Mof_H 	H 	0.1878	0.765	0.2914	0.057
Mof_C 	C 	0.1954	0.8109	0.2497	0.01
Mof_H 	H 	0.1528	0.8027	0.2342	0.035
Mof_C 	C 	0.238	0.8458	0.2385	-0.1
Mof_H 	H 	0.224	0.8609	0.2156	0.072
Mof_C 	C 	0.3325	0.9155	0.2083	0.037
Mof_C 	C 	0.3709	0.8902	0.1739	0.049
Mof_C 	C 	0.4281	0.8606	0.1813	-0.102
Mof_H 	H 	0.4434	0.8549	0.2078	0.071
Mof_C 	C 	0.4626	0.8397	0.149	0.014
Mof_H 	H 	0.5009	0.8199	0.154	0.025
Mof_C 	C 	0.4398	0.8483	0.1094	-0.089
Mof_H 	H 	0.4628	0.8343	0.0878	0.059
Mof_C 	C 	0.3825	0.8779	0.102	0.012
Mof_H 	H 	0.3672	0.8836	0.0755	0.024
Mof_C 	C 	0.348	0.8988	0.1343	-0.1
Mof_H 	H 	0.3097	0.9186	0.1293	0.074
Mof_C 	C 	0.907	0.1067	0.2799	0.363
Mof_C 	C 	0.9351	0.1527	0.2819	-0.06
Mof_C 	C 	0.9241	0.1788	0.2466	-0.014
Mof_H 	H 	0.897	0.1688	0.2242	0.042
Mof_C 	C 	0.9533	0.2177	0.2465	-0.068
Mof_H 	H 	0.9456	0.2342	0.2237	0.054
Mof_C 	C 	0.9956	0.2342	0.2802	0.002
Mof_C 	C 	0.0043	0.2069	0.3144	0.067
Mof_C 	C 	0.9751	0.1689	0.3142	-0.069
Mof_H 	H 	0.9821	0.1524	0.3371	0.074
Mof_C 	C 	0.0289	0.2757	0.2785	-0.009
Mof_C 	C 	0.0837	0.2862	0.2488	-0.057
Mof_H 	H 	0.1008	0.2654	0.2312	0.053
Mof_C 	C 	0.1131	0.3248	0.2441	-0.019
Mof_H 	H 	0.1487	0.3302	0.2234	0.052
Mof_C 	C 	0.0905	0.3561	0.2698	-0.043
Mof_C 	C 	0.0367	0.3478	0.2986	-0.077
Mof_H 	H 	0.0206	0.3689	0.3161	0.077
Mof_C 	C 	0.0053	0.3087	0.3025	0.076
Mof_C 	C 	0.0272	0.2531	0.3686	0.035
Mof_C 	C 	0.0784	0.2711	0.4011	0.049
Mof_C 	C 	0.0666	0.3104	0.4173	-0.1
Mof_H 	H 	0.0249	0.3265	0.4085	0.071
Mof_C 	C 	0.117	0.3257	0.4468	0.012
Mof_H 	H 	0.1091	0.352	0.4576	0.026
Mof_C 	C 	0.1793	0.3016	0.46	-0.087
Mof_H 	H 	0.2131	0.3119	0.4797	0.057
Mof_C 	C 	0.1911	0.2623	0.4437	0.011
Mof_H 	H 	0.2328	0.2462	0.4525	0.024
Mof_C 	C 	0.1407	0.247	0.4143	-0.099
Mof_H 	H 	0.1486	0.2207	0.4034	0.073
Mof_C 	C 	0.955	0.2742	0.3604	0.018
Mof_C 	C 	0.8872	0.2673	0.3895	0.059
Mof_C 	C 	0.8224	0.2931	0.3907	-0.108
Mof_H 	H 	0.8191	0.3157	0.3732	0.076
Mof_C 	C 	0.7626	0.2852	0.418	0.019
Mof_H 	H 	0.7192	0.3025	0.4188	0.023
Mof_C 	C 	0.7676	0.2514	0.4442	-0.096
Mof_H 	H 	0.7275	0.2461	0.4625	0.061
Mof_C 	C 	0.8324	0.2255	0.443	0.019
Mof_H 	H 	0.8357	0.2029	0.4605	0.02
Mof_C 	C 	0.8922	0.2335	0.4156	-0.11
Mof_H 	H 	0.9356	0.2162	0.4148	0.073
Mof_C 	C 	0.1235	0.4015	0.265	0.354
Mof_C 	C 	0.8369	0.9741	0.365	0.339
Mof_C 	C 	0.815	0.9676	0.4113	-0.038
Mof_C 	C 	0.8576	0.9865	0.4402	-0.029
Mof_H 	H 	0.9014	0.0021	0.4334	0.052
Mof_C 	C 	0.8349	0.9823	0.4799	-0.05
Mof_H 	H 	0.8655	0.9939	0.5003	0.05
Mof_C 	C 	0.7648	0.9602	0.491	-0.016
Mof_C 	C 	0.7502	0.9422	0.4209	-0.09
Mof_H 	H 	0.7248	0.9274	0.4006	0.081
Mof_C 	C 	0.7423	0.9599	0.5325	0.013
Mof_C 	C 	0.7825	0.9426	0.5634	-0.08
Mof_H 	H 	0.8288	0.9292	0.5568	0.061
Mof_C 	C 	0.6735	0.9767	0.544	0.057
Mof_C 	C 	0.7612	0.9429	0.6033	0.004
Mof_H 	H 	0.7918	0.9299	0.6229	0.037
Mof_C 	C 	0.6481	0.98	0.5841	-0.049
Mof_H 	H 	0.6017	0.9935	0.5902	0.069
Mof_C 	C 	0.6924	0.9633	0.6142	-0.073
Mof_C 	C 	0.6727	0.9673	0.6597	0.382
Mof_C 	C 	0.595	0.957	0.4837	0.024
Mof_C 	C 	0.503	0.0181	0.4553	-0.107
Mof_H 	H 	0.5035	0.032	0.48	0.074
Mof_C 	C 	0.541	0.9802	0.4512	0.058
Mof_C 	C 	0.539	0.9594	0.4142	-0.107
Mof_H 	H 	0.5646	0.934	0.4115	0.073
Mof_C 	C 	0.5	0.9766	0.3813	0.017
Mof_H 	H 	0.4994	0.9627	0.3565	0.029
Mof_C 	C 	0.462	0.0145	0.3853	-0.093
Mof_H 	H 	0.4362	0.026	0.3633	0.062
Mof_C 	C 	0.464	0.0353	0.4223	0.017
Mof_H 	H 	0.4383	0.0607	0.4251	0.022
Mof_C 	C 	0.726	0.9397	0.4594	0.085
Mof_N 	N 	0.67	0.9092	0.4694	-0.119
Mof_C 	C 	0.596	0.9206	0.475	0.012
Mof_C 	C 	0.543	0.8881	0.4912	0.064
Mof_C 	C 	0.551	0.846	0.4817	-0.106
Mof_H 	H 	0.5886	0.8371	0.4633	0.075
Mof_C 	C 	0.502	0.8178	0.5004	0.018
Mof_H 	H 	0.5062	0.7898	0.494	0.024
Mof_C 	C 	0.445	0.8303	0.529	-0.09
Mof_H 	H 	0.4143	0.8106	0.5417	0.062
Mof_C 	C 	0.436	0.8723	0.538	0.016
Mof_H 	H 	0.3973	0.8818	0.5549	0.026
Mof_C 	C 	0.489	0.8999	0.5189	-0.107
Mof_H 	H 	0.4873	0.9278	0.5261	0.075
Mof_N 	N 	0.291	0.9465	0.2002	-0.123
Mof_N 	N 	0.0483	0.2214	0.3492	-0.123
Mof_N 	N 	0.9457	0.3025	0.3307	-0.122
Mof_N 	N 	0.616	0.9869	0.5134	-0.115
Mof_O 	O 	0.8472	0.006	0.2623	-0.951
Mof_O 	O 	0.6723	0.0213	0.2481	-0.514
Mof_O 	O 	0.0206	0.9938	0.2288	-0.486
Mof_O 	O 	0.6783	0.9563	0.2729	-0.513
Mof_O 	O 	0.0208	0.0088	0.2956	-0.484
Mof_O 	O 	0.8661	0.0965	0.2516	-0.518
Mof_O 	O 	0.9288	0.0852	0.3103	-0.496
Mof_O 	O 	0.172	0.4062	0.2358	-0.487
Mof_O 	O 	0.0948	0.4282	0.2877	-0.502
Mof_O 	O 	0.8886	0.0011	0.357	-0.501
Mof_O 	O 	0.7943	0.9544	0.3398	-0.489
Mof_O 	O 	0.6112	0.9906	0.6659	-0.482
Mof_O 	O 	0.7133	0.9511	0.6848	-0.502
Mof_Zn	Zn	0.77674	0.05277	0.24652	1.184
Mof_Zn	Zn	0.7863	0.95868	0.28132	1.216
Mof_Zn	Zn	0.91159	0.02636	0.30591	1.21
Mof_Zn	Zn	0.91144	0.98753	0.21826	1.221
Mof_C 	C 	0.856	0.0129	0.7603	0.38
Mof_C 	C 	0.9469	0.0118	0.7601	-0.065
Mof_C 	C 	0.9857	0.049	0.7682	-0.065
Mof_H 	H 	0.9585	0.0732	0.774	0.073
Mof_C 	C 	0.1084	0.0124	0.7614	-0.003
Mof_C 	C 	0.068	0.9744	0.7568	-0.07
Mof_H 	H 	0.0954	0.9496	0.7545	0.055
Mof_C 	C 	0.9868	0.9744	0.7556	-0.006
Mof_H 	H 	0.9596	0.9497	0.7519	0.033
Mof_C 	C 	0.2001	0.0111	0.7624	0.003
Mof_C 	C 	0.2442	0.0324	0.7343	0.068
Mof_C 	C 	0.3202	0.0274	0.7335	-0.064
Mof_H 	H 	0.3491	0.0388	0.7124	0.073
Mof_C 	C 	0.3588	0.0047	0.7647	-0.072
Mof_C 	C 	0.3124	0.9844	0.7934	0.007
Mof_H 	H 	0.3359	0.9677	0.8129	0.04
Mof_C 	C 	0.235	0.9886	0.7934	-0.075
Mof_H 	H 	0.205	0.9766	0.8137	0.058
Mof_C 	C 	0.4456	0.9994	0.7632	0.368
Mof_C 	C 	0.0669	0.0483	0.7674	0.067
Mof_N 	N 	0.1042	0.0867	0.7766	-0.119
Mof_C 	C 	0.1545	0.1036	0.751	0.021
Mof_C 	C 	0.1984	0.1419	0.7617	0.053
Mof_C 	C 	0.1774	0.1644	0.796	-0.1
Mof_H 	H 	0.1348	0.1562	0.8115	0.074
Mof_C 	C 	0.22	0.1993	0.8071	0.012
Mof_H 	H 	0.206	0.2144	0.83	0.025
Mof_C 	C 	0.2836	0.2117	0.7839	-0.084
Mof_H 	H 	0.3122	0.235	0.7914	0.057
Mof_C 	C 	0.3046	0.1891	0.7497	0.01
Mof_H 	H 	0.3472	0.1973	0.7342	0.035
Mof_C 	C 	0.262	0.1542	0.7385	-0.1
Mof_H 	H 	0.276	0.1391	0.7156	0.072
Mof_C 	C 	0.1675	0.0845	0.7083	0.037
Mof_C 	C 	0.1291	0.1098	0.6739	0.048
Mof_C 	C 	0.0719	0.1394	0.6813	-0.101
Mof_H 	H 	0.0566	0.1451	0.7078	0.071
Mof_C 	C 	0.0374	0.1603	0.649	0.013
Mof_H 	H 	0.9991	0.1801	0.654	0.026
Mof_C 	C 	0.0602	0.1517	0.6094	-0.087
Mof_H 	H 	0.0372	0.1657	0.5878	0.059
Mof_C 	C 	0.1175	0.1221	0.602	0.011
Mof_H 	H 	0.1328	0.1164	0.5755	0.024
Mof_C 	C 	0.152	0.1012	0.6343	-0.099
Mof_H 	H 	0.1903	0.0814	0.6293	0.073
Mof_C 	C 	0.593	0.8933	0.7799	0.363
Mof_C 	C 	0.5649	0.8473	0.7819	-0.059
Mof_C 	C 	0.5759	0.8212	0.7466	-0.014
Mof_H 	H 	0.603	0.8312	0.7242	0.042
Mof_C 	C 	0.5467	0.7823	0.7465	-0.067
Mof_H 	H 	0.5544	0.7658	0.7237	0.053
Mof_C 	C 	0.5044	0.7658	0.7802	0.001
Mof_C 	C 	0.4957	0.7931	0.8144	0.068
Mof_C 	C 	0.5249	0.8311	0.8142	-0.071
Mof_H 	H 	0.5179	0.8476	0.8371	0.074
Mof_C 	C 	0.4711	0.7243	0.7785	-0.008
Mof_C 	C 	0.4163	0.7138	0.7488	-0.057
Mof_H 	H 	0.3992	0.7346	0.7312	0.054
Mof_C 	C 	0.3869	0.6752	0.7441	-0.019
Mof_H 	H 	0.3513	0.6698	0.7234	0.051
Mof_C 	C 	0.4095	0.6439	0.7698	-0.043
Mof_C 	C 	0.4633	0.6522	0.7986	-0.077
Mof_H 	H 	0.4794	0.6311	0.8161	0.077
Mof_C 	C 	0.4947	0.6913	0.8025	0.076
Mof_C 	C 	0.4728	0.7469	0.8686	0.036
Mof_C 	C 	0.4216	0.7289	0.9011	0.049
Mof_C 	C 	0.4334	0.6896	0.9173	-0.1
Mof_H 	H 	0.4751	0.6735	0.9085	0.071
Mof_C 	C 	0.383	0.6743	0.9468	0.012
Mof_H 	H 	0.3909	0.648	0.9576	0.026
Mof_C 	C 	0.3207	0.6984	0.96	-0.087
Mof_H 	H 	0.2869	0.6881	0.9797	0.057
Mof_C 	C 	0.3089	0.7377	0.9437	0.011
Mof_H 	H 	0.2672	0.7538	0.9525	0.024
Mof_C 	C 	0.3593	0.753	0.9143	-0.099
Mof_H 	H 	0.3514	0.7793	0.9034	0.073
Mof_C 	C 	0.545	0.7258	0.8604	0.017
Mof_C 	C 	0.6128	0.7327	0.8895	0.059
Mof_C 	C 	0.6776	0.7069	0.8907	-0.108
Mof_H 	H 	0.6809	0.6843	0.8732	0.076
Mof_C 	C 	0.7374	0.7148	0.918	0.019
Mof_H 	H 	0.7808	0.6975	0.9188	0.023
Mof_C 	C 	0.7324	0.7486	0.9442	-0.096
Mof_H 	H 	0.7725	0.7539	0.9625	0.061
Mof_C 	C 	0.6676	0.7745	0.943	0.019
Mof_H 	H 	0.6643	0.7971	0.9605	0.02
Mof_C 	C 	0.6078	0.7665	0.9156	-0.111
Mof_H 	H 	0.5644	0.7838	0.9148	0.073
Mof_C 	C 	0.3765	0.5985	0.765	0.354
Mof_C 	C 	0.6631	0.0259	0.865	0.34
Mof_C 	C 	0.685	0.0324	0.9113	-0.038
Mof_C 	C 	0.6424	0.0135	0.9402	-0.028
Mof_H 	H 	0.5986	0.9979	0.9334	0.052
Mof_C 	C 	0.6651	0.0177	0.9799	-0.051
Mof_H 	H 	0.6345	0.0061	0.0003	0.051
Mof_C 	C 	0.7352	0.0398	0.991	-0.016
Mof_C 	C 	0.7498	0.0578	0.9209	-0.09
Mof_H 	H 	0.7752	0.0726	0.9006	0.081
Mof_C 	C 	0.7577	0.0401	0.0325	0.013
Mof_C 	C 	0.7175	0.0574	0.0634	-0.08
Mof_H 	H 	0.6712	0.0708	0.0568	0.061
Mof_C 	C 	0.8265	0.0233	0.044	0.057
Mof_C 	C 	0.7388	0.0571	0.1033	0.005
Mof_H 	H 	0.7082	0.0701	0.1229	0.037
Mof_C 	C 	0.8519	0.02	0.0841	-0.049
Mof_H 	H 	0.8983	0.0065	0.0902	0.069
Mof_C 	C 	0.8076	0.0367	0.1142	-0.073
Mof_C 	C 	0.8273	0.0327	0.1597	0.382
Mof_C 	C 	0.905	0.043	0.9837	0.025
Mof_C 	C 	0.997	0.9819	0.9553	-0.106
Mof_H 	H 	0.9965	0.968	0.98	0.074
Mof_C 	C 	0.959	0.0198	0.9512	0.057
Mof_C 	C 	0.961	0.0406	0.9142	-0.104
Mof_H 	H 	0.9354	0.066	0.9115	0.073
Mof_C 	C 	-1.58589e-32	0.0234	0.8813	0.014
Mof_H 	H 	0.0006	0.0373	0.8565	0.03
Mof_C 	C 	0.038	0.9855	0.8853	-0.091
Mof_H 	H 	0.0638	0.974	0.8633	0.061
Mof_C 	C 	0.036	0.9647	0.9223	0.016
Mof_H 	H 	0.0617	0.9393	0.9251	0.022
Mof_C 	C 	0.774	0.0603	0.9594	0.085
Mof_N 	N 	0.83	0.0908	0.9694	-0.119
Mof_C 	C 	0.904	0.0794	0.975	0.011
Mof_C 	C 	0.957	0.1119	0.9912	0.066
Mof_C 	C 	0.949	0.154	0.9817	-0.108
Mof_H 	H 	0.9114	0.1629	0.9633	0.075
Mof_C 	C 	0.998	0.1822	0.0004	0.02
Mof_H 	H 	0.9938	0.2102	0.994	0.023
Mof_C 	C 	0.055	0.1697	0.029	-0.092
Mof_H 	H 	0.0857	0.1894	0.0417	0.063
Mof_C 	C 	0.064	0.1277	0.038	0.017
Mof_H 	H 	0.1027	0.1182	0.0549	0.025
Mof_C 	C 	0.011	0.1001	0.0189	-0.109
Mof_H 	H 	0.0127	0.0722	0.0261	0.076
Mof_N 	N 	0.209	0.0535	0.7002	-0.123
Mof_N 	N 	0.4517	0.7786	0.8492	-0.124
Mof_N 	N 	0.5543	0.6975	0.8307	-0.122
Mof_N 	N 	0.884	0.0131	0.0134	-0.115
Mof_O 	O 	0.6528	0.994	0.7623	-0.951
Mof_O 	O 	0.8277	0.9787	0.7481	-0.514
Mof_O 	O 	0.4794	0.0062	0.7288	-0.487
Mof_O 	O 	0.8217	0.0437	0.7729	-0.513
Mof_O 	O 	0.4792	0.9912	0.7956	-0.484
Mof_O 	O 	0.6339	0.9035	0.7516	-0.518
Mof_O 	O 	0.5712	0.9148	0.8103	-0.496
Mof_O 	O 	0.328	0.5938	0.7358	-0.487
Mof_O 	O 	0.4052	0.5718	0.7877	-0.502
Mof_O 	O 	0.6114	0.9989	0.857	-0.502
Mof_O 	O 	0.7057	0.0456	0.8398	-0.489
Mof_O 	O 	0.8888	0.0094	0.1659	-0.482
Mof_O 	O 	0.7867	0.0489	0.1848	-0.502
Mof_Zn	Zn	0.72326	0.94723	0.74652	1.184
Mof_Zn	Zn	0.7137	0.04132	0.78132	1.216
Mof_Zn	Zn	0.58841	0.97364	0.80591	1.21
Mof_Zn	Zn	0.58856	0.01247	0.71826	1.221
Mof_C 	C 	0.356	0.4871	0.2397	0.38
Mof_C 	C 	0.4469	0.4882	0.2399	-0.066
Mof_C 	C 	0.4857	0.451	0.2318	-0.066
Mof_H 	H 	0.4585	0.4268	0.226	0.073
Mof_C 	C 	0.6084	0.4876	0.2386	-0.003
Mof_C 	C 	0.568	0.5256	0.2432	-0.071
Mof_H 	H 	0.5954	0.5504	0.2455	0.056
Mof_C 	C 	0.4868	0.5256	0.2444	-0.006
Mof_H 	H 	0.4596	0.5503	0.2481	0.032
Mof_C 	C 	0.7001	0.4889	0.2376	0.003
Mof_C 	C 	0.7442	0.4676	0.2657	0.068
Mof_C 	C 	0.8202	0.4726	0.2665	-0.064
Mof_H 	H 	0.8491	0.4612	0.2876	0.073
Mof_C 	C 	0.8588	0.4953	0.2353	-0.071
Mof_C 	C 	0.8124	0.5156	0.2066	0.006
Mof_H 	H 	0.8359	0.5323	0.1871	0.04
Mof_C 	C 	0.735	0.5114	0.2066	-0.075
Mof_H 	H 	0.705	0.5234	0.1863	0.058
Mof_C 	C 	0.9456	0.5006	0.2368	0.368
Mof_C 	C 	0.5669	0.4517	0.2326	0.067
Mof_N 	N 	0.6042	0.4133	0.2234	-0.119
Mof_C 	C 	0.6545	0.3964	0.249	0.021
Mof_C 	C 	0.6984	0.3581	0.2383	0.053
Mof_C 	C 	0.6774	0.3356	0.204	-0.1
Mof_H 	H 	0.6348	0.3438	0.1885	0.074
Mof_C 	C 	0.72	0.3007	0.1929	0.012
Mof_H 	H 	0.706	0.2856	0.17	0.025
Mof_C 	C 	0.7836	0.2883	0.2161	-0.084
Mof_H 	H 	0.8122	0.265	0.2086	0.057
Mof_C 	C 	0.8046	0.3109	0.2503	0.01
Mof_H 	H 	0.8472	0.3027	0.2658	0.035
Mof_C 	C 	0.762	0.3458	0.2615	-0.1
Mof_H 	H 	0.776	0.3609	0.2844	0.072
Mof_C 	C 	0.6675	0.4155	0.2917	0.037
Mof_C 	C 	0.6291	0.3902	0.3261	0.049
Mof_C 	C 	0.5719	0.3606	0.3187	-0.102
Mof_H 	H 	0.5566	0.3549	0.2922	0.071
Mof_C 	C 	0.5374	0.3397	0.351	0.014
Mof_H 	H 	0.4991	0.3199	0.346	0.025
Mof_C 	C 	0.5602	0.3483	0.3906	-0.089
Mof_H 	H 	0.5372	0.3343	0.4122	0.059
Mof_C 	C 	0.6175	0.3779	0.398	0.012
Mof_H 	H 	0.6328	0.3836	0.4245	0.024
Mof_C 	C 	0.652	0.3988	0.3657	-0.1
Mof_H 	H 	0.6903	0.4186	0.3707	0.074
Mof_C 	C 	0.093	0.6067	0.2201	0.363
Mof_C 	C 	0.0649	0.6527	0.2181	-0.059
Mof_C 	C 	0.0759	0.6788	0.2534	-0.015
Mof_H 	H 	0.103	0.6688	0.2758	0.042
Mof_C 	C 	0.0467	0.7177	0.2535	-0.067
Mof_H 	H 	0.0544	0.7342	0.2763	0.053
Mof_C 	C 	0.0044	0.7342	0.2198	0
Mof_C 	C 	0.9957	0.7069	0.1856	0.069
Mof_C 	C 	0.0249	0.6689	0.1858	-0.071
Mof_H 	H 	0.0179	0.6524	0.1629	0.074
Mof_C 	C 	0.9711	0.7757	0.2215	-0.008
Mof_C 	C 	0.9163	0.7862	0.2512	-0.058
Mof_H 	H 	0.8992	0.7654	0.2688	0.054
Mof_C 	C 	0.8869	0.8248	0.2559	-0.019
Mof_H 	H 	0.8513	0.8302	0.2766	0.051
Mof_C 	C 	0.9095	0.8561	0.2302	-0.043
Mof_C 	C 	0.9633	0.8478	0.2014	-0.077
Mof_H 	H 	0.9794	0.8689	0.1839	0.077
Mof_C 	C 	0.9947	0.8087	0.1975	0.076
Mof_C 	C 	0.9728	0.7531	0.1314	0.036
Mof_C 	C 	0.9216	0.7711	0.0989	0.049
Mof_C 	C 	0.9334	0.8104	0.0827	-0.1
Mof_H 	H 	0.9751	0.8265	0.0915	0.071
Mof_C 	C 	0.883	0.8257	0.0532	0.012
Mof_H 	H 	0.8909	0.852	0.0424	0.026
Mof_C 	C 	0.8207	0.8016	0.04	-0.087
Mof_H 	H 	0.7869	0.8119	0.0203	0.057
Mof_C 	C 	0.8089	0.7623	0.0563	0.011
Mof_H 	H 	0.7672	0.7462	0.0475	0.024
Mof_C 	C 	0.8593	0.747	0.0857	-0.099
Mof_H 	H 	0.8514	0.7207	0.0966	0.073
Mof_C 	C 	0.045	0.7742	0.1396	0.017
Mof_C 	C 	0.1128	0.7673	0.1105	0.059
Mof_C 	C 	0.1776	0.7931	0.1093	-0.108
Mof_H 	H 	0.1809	0.8157	0.1268	0.076
Mof_C 	C 	0.2374	0.7852	0.082	0.019
Mof_H 	H 	0.2808	0.8025	0.0812	0.023
Mof_C 	C 	0.2324	0.7514	0.0558	-0.096
Mof_H 	H 	0.2725	0.7461	0.0375	0.061
Mof_C 	C 	0.1676	0.7255	0.057	0.019
Mof_H 	H 	0.1643	0.7029	0.0395	0.019
Mof_C 	C 	0.1078	0.7335	0.0844	-0.111
Mof_H 	H 	0.0644	0.7162	0.0852	0.073
Mof_C 	C 	0.8765	0.9015	0.235	0.354
Mof_C 	C 	0.1631	0.4741	0.135	0.34
Mof_C 	C 	0.185	0.4676	0.0887	-0.038
Mof_C 	C 	0.1424	0.4865	0.0598	-0.028
Mof_H 	H 	0.0986	0.5021	0.0666	0.051
Mof_C 	C 	0.1651	0.4823	0.0201	-0.051
Mof_H 	H 	0.1345	0.4939	0.9997	0.051
Mof_C 	C 	0.2352	0.4602	0.009	-0.015
Mof_C 	C 	0.2498	0.4422	0.0791	-0.09
Mof_H 	H 	0.2752	0.4274	0.0994	0.081
Mof_C 	C 	0.2577	0.4599	0.9675	0.013
Mof_C 	C 	0.2175	0.4426	0.9366	-0.08
Mof_H 	H 	0.1712	0.4292	0.9432	0.061
Mof_C 	C 	0.3265	0.4767	0.956	0.057
Mof_C 	C 	0.2388	0.4429	0.8967	0.004
Mof_H 	H 	0.2082	0.4299	0.8771	0.037
Mof_C 	C 	0.3519	0.48	0.9159	-0.049
Mof_H 	H 	0.3983	0.4935	0.9098	0.069
Mof_C 	C 	0.3076	0.4633	0.8858	-0.073
Mof_C 	C 	0.3273	0.4673	0.8403	0.382
Mof_C 	C 	0.405	0.457	0.0163	0.024
Mof_C 	C 	0.497	0.5181	0.0447	-0.107
Mof_H 	H 	0.4965	0.532	0.02	0.074
Mof_C 	C 	0.459	0.4802	0.0488	0.058
Mof_C 	C 	0.461	0.4594	0.0858	-0.107
Mof_H 	H 	0.4354	0.434	0.0885	0.073
Mof_C 	C 	0.5	0.4766	0.1187	0.017
Mof_H 	H 	0.5006	0.4627	0.1435	0.029
Mof_C 	C 	0.538	0.5145	0.1147	-0.093
Mof_H 	H 	0.5638	0.526	0.1367	0.062
Mof_C 	C 	0.536	0.5353	0.0777	0.017
Mof_H 	H 	0.5617	0.5607	0.0749	0.022
Mof_C 	C 	0.274	0.4397	0.0406	0.085
Mof_N 	N 	0.33	0.4092	0.0306	-0.119
Mof_C 	C 	0.404	0.4206	0.025	0.012
Mof_C 	C 	0.457	0.3881	0.0088	0.064
Mof_C 	C 	0.449	0.346	0.0183	-0.106
Mof_H 	H 	0.4114	0.3371	0.0367	0.074
Mof_C 	C 	0.498	0.3178	0.9996	0.017
Mof_H 	H 	0.4938	0.2898	0.006	0.024
Mof_C 	C 	0.555	0.3303	0.971	-0.089
Mof_H 	H 	0.5857	0.3106	0.9583	0.062
Mof_C 	C 	0.564	0.3723	0.962	0.015
Mof_H 	H 	0.6027	0.3818	0.9451	0.026
Mof_C 	C 	0.511	0.3999	0.9811	-0.107
Mof_H 	H 	0.5127	0.4278	0.9739	0.075
Mof_N 	N 	0.709	0.4465	0.2998	-0.123
Mof_N 	N 	0.9517	0.7214	0.1508	-0.124
Mof_N 	N 	0.0543	0.8025	0.1693	-0.122
Mof_N 	N 	0.384	0.4869	0.9866	-0.115
Mof_O 	O 	0.1528	0.506	0.2377	-0.952
Mof_O 	O 	0.3277	0.5213	0.2519	-0.514
Mof_O 	O 	0.9794	0.4938	0.2712	-0.486
Mof_O 	O 	0.3217	0.4563	0.2271	-0.513
Mof_O 	O 	0.9792	0.5088	0.2044	-0.484
Mof_O 	O 	0.1339	0.5965	0.2484	-0.518
Mof_O 	O 	0.0712	0.5852	0.1897	-0.496
Mof_O 	O 	0.828	0.9062	0.2642	-0.487
Mof_O 	O 	0.9052	0.9282	0.2123	-0.502
Mof_O 	O 	0.1114	0.5011	0.143	-0.502
Mof_O 	O 	0.2057	0.4544	0.1602	-0.489
Mof_O 	O 	0.3888	0.4906	0.8341	-0.482
Mof_O 	O 	0.2867	0.4511	0.8152	-0.502
Mof_Zn	Zn	0.22326	0.55277	0.25348	1.184
Mof_Zn	Zn	0.2137	0.45868	0.21868	1.216
Mof_Zn	Zn	0.08841	0.52636	0.19409	1.21
Mof_Zn	Zn	0.08856	0.48753	0.28174	1.221
Mof_C 	C 	0.144	0.5129	0.7397	0.379
Mof_C 	C 	0.0531	0.5118	0.7399	-0.065
Mof_C 	C 	0.0143	0.549	0.7318	-0.067
Mof_H 	H 	0.0415	0.5732	0.726	0.073
Mof_C 	C 	0.8916	0.5124	0.7386	-0.003
Mof_C 	C 	0.932	0.4744	0.7432	-0.07
Mof_H 	H 	0.9046	0.4496	0.7455	0.055
Mof_C 	C 	0.0132	0.4744	0.7444	-0.007
Mof_H 	H 	0.0404	0.4497	0.7481	0.033
Mof_C 	C 	0.7999	0.5111	0.7376	0.003
Mof_C 	C 	0.7558	0.5324	0.7657	0.068
Mof_C 	C 	0.6798	0.5274	0.7665	-0.064
Mof_H 	H 	0.6509	0.5388	0.7876	0.073
Mof_C 	C 	0.6412	0.5047	0.7353	-0.071
Mof_C 	C 	0.6876	0.4844	0.7066	0.007
Mof_H 	H 	0.6641	0.4677	0.6871	0.04
Mof_C 	C 	0.765	0.4886	0.7066	-0.075
Mof_H 	H 	0.795	0.4766	0.6863	0.058
Mof_C 	C 	0.5544	0.4994	0.7368	0.368
Mof_C 	C 	0.9331	0.5483	0.7326	0.068
Mof_N 	N 	0.8958	0.5867	0.7234	-0.119
Mof_C 	C 	0.8455	0.6036	0.749	0.021
Mof_C 	C 	0.8016	0.6419	0.7383	0.053
Mof_C 	C 	0.8226	0.6644	0.704	-0.1
Mof_H 	H 	0.8652	0.6562	0.6885	0.074
Mof_C 	C 	0.78	0.6993	0.6929	0.012
Mof_H 	H 	0.794	0.7144	0.67	0.025
Mof_C 	C 	0.7164	0.7117	0.7161	-0.084
Mof_H 	H 	0.6878	0.735	0.7086	0.057
Mof_C 	C 	0.6954	0.6891	0.7503	0.01
Mof_H 	H 	0.6528	0.6973	0.7658	0.035
Mof_C 	C 	0.738	0.6542	0.7615	-0.1
Mof_H 	H 	0.724	0.6391	0.7844	0.072
Mof_C 	C 	0.8325	0.5845	0.7917	0.037
Mof_C 	C 	0.8709	0.6098	0.8261	0.049
Mof_C 	C 	0.9281	0.6394	0.8187	-0.102
Mof_H 	H 	0.9434	0.6451	0.7922	0.071
Mof_C 	C 	0.9626	0.6603	0.851	0.015
Mof_H 	H 	0.0009	0.6801	0.846	0.024
Mof_C 	C 	0.9398	0.6517	0.8906	-0.089
Mof_H 	H 	0.9628	0.6657	0.9122	0.059
Mof_C 	C 	0.8825	0.6221	0.898	0.013
Mof_H 	H 	0.8672	0.6164	0.9245	0.024
Mof_C 	C 	0.848	0.6012	0.8657	-0.1
Mof_H 	H 	0.8097	0.5814	0.8707	0.074
Mof_C 	C 	0.407	0.3933	0.7201	0.363
Mof_C 	C 	0.4351	0.3473	0.7181	-0.059
Mof_C 	C 	0.4241	0.3212	0.7534	-0.014
Mof_H 	H 	0.397	0.3312	0.7758	0.042
Mof_C 	C 	0.4533	0.2823	0.7535	-0.067
Mof_H 	H 	0.4456	0.2658	0.7763	0.053
Mof_C 	C 	0.4956	0.2658	0.7198	0.001
Mof_C 	C 	0.5043	0.2931	0.6856	0.068
Mof_C 	C 	0.4751	0.3311	0.6858	-0.071
Mof_H 	H 	0.4821	0.3476	0.6629	0.074
Mof_C 	C 	0.5289	0.2243	0.7215	-0.008
Mof_C 	C 	0.5837	0.2138	0.7512	-0.057
Mof_H 	H 	0.6008	0.2346	0.7688	0.054
Mof_C 	C 	0.6131	0.1752	0.7559	-0.019
Mof_H 	H 	0.6487	0.1698	0.7766	0.052
Mof_C 	C 	0.5905	0.1439	0.7302	-0.043
Mof_C 	C 	0.5367	0.1522	0.7014	-0.077
Mof_H 	H 	0.5206	0.1311	0.6839	0.077
Mof_C 	C 	0.5053	0.1913	0.6975	0.076
Mof_C 	C 	0.5272	0.2469	0.6314	0.036
Mof_C 	C 	0.5784	0.2289	0.5989	0.049
Mof_C 	C 	0.5666	0.1896	0.5827	-0.1
Mof_H 	H 	0.5249	0.1735	0.5915	0.071
Mof_C 	C 	0.617	0.1743	0.5532	0.012
Mof_H 	H 	0.6091	0.148	0.5424	0.026
Mof_C 	C 	0.6793	0.1984	0.54	-0.087
Mof_H 	H 	0.7131	0.1881	0.5203	0.057
Mof_C 	C 	0.6911	0.2377	0.5563	0.011
Mof_H 	H 	0.7328	0.2538	0.5475	0.024
Mof_C 	C 	0.6407	0.253	0.5857	-0.099
Mof_H 	H 	0.6486	0.2793	0.5966	0.073
Mof_C 	C 	0.455	0.2258	0.6396	0.017
Mof_C 	C 	0.3872	0.2327	0.6105	0.059
Mof_C 	C 	0.3224	0.2069	0.6093	-0.108
Mof_H 	H 	0.3191	0.1843	0.6268	0.076
Mof_C 	C 	0.2626	0.2148	0.582	0.019
Mof_H 	H 	0.2192	0.1975	0.5812	0.023
Mof_C 	C 	0.2676	0.2486	0.5558	-0.096
Mof_H 	H 	0.2275	0.2539	0.5375	0.061
Mof_C 	C 	0.3324	0.2745	0.557	0.019
Mof_H 	H 	0.3357	0.2971	0.5395	0.02
Mof_C 	C 	0.3922	0.2665	0.5844	-0.111
Mof_H 	H 	0.4356	0.2838	0.5852	0.073
Mof_C 	C 	0.6235	0.0985	0.735	0.354
Mof_C 	C 	0.3369	0.5259	0.635	0.34
Mof_C 	C 	0.315	0.5324	0.5887	-0.038
Mof_C 	C 	0.3576	0.5135	0.5598	-0.028
Mof_H 	H 	0.4014	0.4979	0.5666	0.052
Mof_C 	C 	0.3349	0.5177	0.5201	-0.051
Mof_H 	H 	0.3655	0.5061	0.4997	0.051
Mof_C 	C 	0.2648	0.5398	0.509	-0.015
Mof_C 	C 	0.2502	0.5578	0.5791	-0.09
Mof_H 	H 	0.2248	0.5726	0.5994	0.081
Mof_C 	C 	0.2423	0.5401	0.4675	0.013
Mof_C 	C 	0.2825	0.5574	0.4366	-0.08
Mof_H 	H 	0.3288	0.5708	0.4432	0.061
Mof_C 	C 	0.1735	0.5233	0.456	0.057
Mof_C 	C 	0.2612	0.5571	0.3967	0.004
Mof_H 	H 	0.2918	0.5701	0.3771	0.037
Mof_C 	C 	0.1481	0.52	0.4159	-0.049
Mof_H 	H 	0.1017	0.5065	0.4098	0.069
Mof_C 	C 	0.1924	0.5367	0.3858	-0.073
Mof_C 	C 	0.1727	0.5327	0.3403	0.382
Mof_C 	C 	0.095	0.543	0.5163	0.024
Mof_C 	C 	0.003	0.4819	0.5447	-0.107
Mof_H 	H 	0.0035	0.468	0.52	0.074
Mof_C 	C 	0.041	0.5198	0.5488	0.057
Mof_C 	C 	0.039	0.5406	0.5858	-0.106
Mof_H 	H 	0.0646	0.566	0.5885	0.073
Mof_C 	C 	-1.7747e-32	0.5234	0.6187	0.015
Mof_H 	H 	0.9994	0.5373	0.6435	0.03
Mof_C 	C 	0.962	0.4855	0.6147	-0.092
Mof_H 	H 	0.9362	0.474	0.6367	0.061
Mof_C 	C 	0.964	0.4647	0.5777	0.017
Mof_H 	H 	0.9383	0.4393	0.5749	0.022
Mof_C 	C 	0.226	0.5603	0.5406	0.085
Mof_N 	N 	0.17	0.5908	0.5306	-0.119
Mof_C 	C 	0.096	0.5794	0.525	0.012
Mof_C 	C 	0.043	0.6119	0.5088	0.063
Mof_C 	C 	0.051	0.654	0.5183	-0.105
Mof_H 	H 	0.0886	0.6629	0.5367	0.074
Mof_C 	C 	0.002	0.6822	0.4996	0.017
Mof_H 	H 	0.0062	0.7102	0.506	0.024
Mof_C 	C 	0.945	0.6697	0.471	-0.089
Mof_H 	H 	0.9143	0.6894	0.4583	0.062
Mof_C 	C 	0.936	0.6277	0.462	0.015
Mof_H 	H 	0.8973	0.6182	0.4451	0.026
Mof_C 	C 	0.989	0.6001	0.4811	-0.106
Mof_H 	H 	0.9873	0.5722	0.4739	0.075
Mof_N 	N 	0.791	0.5535	0.7998	-0.123
Mof_N 	N 	0.5483	0.2786	0.6508	-0.124
Mof_N 	N 	0.4457	0.1975	0.6693	-0.122
Mof_N 	N 	0.116	0.5131	0.4866	-0.115
Mof_O 	O 	0.3472	0.494	0.7377	-0.952
Mof_O 	O 	0.1723	0.4787	0.7519	-0.514
Mof_O 	O 	0.5206	0.5062	0.7712	-0.486
Mof_O 	O 	0.1783	0.5437	0.7271	-0.513
Mof_O 	O 	0.5208	0.4912	0.7044	-0.484
Mof_O 	O 	0.3661	0.4035	0.7484	-0.518
Mof_O 	O 	0.4288	0.4148	0.6897	-0.496
Mof_O 	O 	0.672	0.0938	0.7642	-0.487
Mof_O 	O 	0.5948	0.0718	0.7123	-0.502
Mof_O 	O 	0.3886	0.4989	0.643	-0.502
Mof_O 	O 	0.2943	0.5456	0.6602	-0.489
Mof_O 	O 	0.1112	0.5094	0.3341	-0.482
Mof_O 	O 	0.2133	0.5489	0.3152	-0.502
Mof_Zn	Zn	0.27674	0.44723	0.75348	1.184
Mof_Zn	Zn	0.2863	0.54132	0.71868	1.216
Mof_Zn	Zn	0.41159	0.47364	0.69409	1.21
Mof_Zn	Zn	0.41144	0.51247	0.78174	1.221
_end
