data_functionalizedCrystal
_audit_creation_method	'EQeq! by Chris Wilmer'
_symmetry_space_group_name_H-M	'P1'
_symmetry_Int_Tables_number	1
_symmetry_cell_setting	triclinic
loop_
_symmetry_equiv_pos_as_xyz
  x,y,z
_cell_length_a	15.695
_cell_length_b	15.695
_cell_length_c	18.546
_cell_angle_alpha	90
_cell_angle_beta	90
_cell_angle_gamma	120
loop_
_atom_site_label
_atom_site_type_symbol
_atom_site_fract_x
_atom_site_fract_y
_atom_site_fract_z
_atom_site_charge
Mof_Ni	Ni	0.82243	0	-0	1.062
Mof_Ni	Ni	0.17757	0.17757	0.33333	1.075
Mof_Ni	Ni	1.84647e-17	0.82243	0.66667	1.069
Mof_H 	H 	0.9313	0.3121	0.0481	0.047
Mof_H 	H 	0.7035	0.6016	0.51477	0.089
Mof_H 	H 	0.4602	0.9667	0.56417	0.045
Mof_H 	H 	0.9918	0.8946	0.51667	0.025
Mof_H 	H 	0.0661	0.561	0.57123	0.085
Mof_H 	H 	0.5065	0.5398	0.8975	0.054
Mof_H 	H 	0.9667	0.4602	0.1025	0.039
Mof_H 	H 	0.9339	0.4949	0.7621	0.086
Mof_H 	H 	0.0972	0.1054	0.48333	0.006
Mof_H 	H 	0.6192	0.6879	0.9519	0.052
Mof_H 	H 	0.6545	0.8071	0.0525	-0.008
Mof_H 	H 	0.3455	0.1526	0.28083	-0.001
Mof_H 	H 	0.4935	0.0333	0.43583	0.059
Mof_H 	H 	0.9028	0.0082	0.85	0.009
Mof_H 	H 	0.6879	0.6192	0.71477	0.045
Mof_H 	H 	0.9615	0.1085	0.7507	0.093
Mof_H 	H 	0.938	0.6424	0.7603	0.009
Mof_H 	H 	0.1929	0.8474	0.71917	-0.001
Mof_H 	H 	0.147	0.0385	0.08403	0.081
Mof_H 	H 	0.0082	0.9028	0.81667	0.004
Mof_H 	H 	0.1054	0.0972	0.18333	0.006
Mof_H 	H 	0.0687	0.3808	0.28523	0.034
Mof_H 	H 	0.1526	0.3455	0.38583	-0.002
Mof_H 	H 	0.2956	0.3576	0.2397	0.005
Mof_H 	H 	0.3121	0.9313	0.61857	0.053
Mof_H 	H 	0.439	0.5051	0.2379	0.089
Mof_H 	H 	0.561	0.0661	0.09543	0.08
Mof_H 	H 	0.5398	0.5065	0.76917	0.052
Mof_H 	H 	0.8071	0.6545	0.61417	0.001
Mof_H 	H 	0.1085	0.9615	0.91597	0.095
Mof_H 	H 	0.3576	0.2956	0.42697	0.007
Mof_H 	H 	0.8946	0.9918	0.15	0.023
Mof_H 	H 	0.853	0.8915	0.2493	0.097
Mof_H 	H 	0.3808	0.0687	0.38143	0.036
Mof_H 	H 	0.6016	0.7035	0.1519	0.086
Mof_H 	H 	0.5051	0.439	0.42877	0.091
Mof_H 	H 	0.2965	0.8981	0.81857	0.088
Mof_H 	H 	0.1019	0.3984	0.48523	0.087
Mof_H 	H 	0.8474	0.1929	0.9475	0.009
Mof_H 	H 	0.062	0.7044	0.57303	0.008
Mof_H 	H 	0.6424	0.938	0.90637	0.006
Mof_H 	H 	0.4949	0.9339	0.90457	0.078
Mof_H 	H 	0.0385	0.147	0.58263	0.085
Mof_H 	H 	0.8915	0.853	0.41737	0.097
Mof_H 	H 	0.7044	0.062	0.09363	0.01
Mof_H 	H 	0.8981	0.2965	0.8481	0.091
Mof_H 	H 	0.0333	0.4935	0.23083	0.059
Mof_H 	H 	0.3984	0.1019	0.18143	0.086
Mof_C 	C 	0.03	0.3077	0.60973	0.091
Mof_C 	C 	0.8692	0.1749	0.9067	0.087
Mof_C 	C 	0.1749	0.8692	0.75997	0.084
Mof_C 	C 	0.7144	0.7372	0.8679	-0.044
Mof_C 	C 	0.6257	0.9636	0.94557	0.112
Mof_C 	C 	0.19	0.0636	0.12293	-0.131
Mof_C 	C 	0.72	0.7876	0.2125	0.071
Mof_C 	C 	0.4883	0.4883	0.33333	0.075
Mof_C 	C 	0.0676	0.28	0.54583	0.066
Mof_C 	C 	-1.027e-17	0.5117	0.66667	0.043
Mof_C 	C 	0.81	0.8736	0.2104	-0.128
Mof_C 	C 	0.8251	0.6943	0.57337	0.089
Mof_C 	C 	0.0228	0.2856	0.20123	-0.078
Mof_C 	C 	0.5631	0.5849	0.8733	-0.04
Mof_C 	C 	0.3077	0.03	0.05693	0.088
Mof_C 	C 	0.0974	0.1647	0.48343	0.077
Mof_C 	C 	0.9782	0.4151	0.1267	-0.006
Mof_C 	C 	0.3379	0.3743	0.2789	0.087
Mof_C 	C 	0.9636	0.6257	0.7211	0.102
Mof_C 	C 	0.9324	0.2124	0.7875	0.065
Mof_C 	C 	0.7876	0.72	0.45417	0.071
Mof_C 	C 	0.3743	0.3379	0.38777	0.087
Mof_C 	C 	0.2777	0.97	0.94307	0.13
Mof_C 	C 	0.9026	0.0673	0.8499	0.081
Mof_C 	C 	0.3057	0.1308	0.24003	0.083
Mof_C 	C 	0.0387	0.5757	0.61043	-0.131
Mof_C 	C 	-1.027e-17	0.4148	0.66667	0.087
Mof_C 	C 	0.4148	0	-0	0.076
Mof_C 	C 	0.3698	0.0423	0.42763	0.006
Mof_C 	C 	0.9613	0.537	0.7229	-0.109
Mof_C 	C 	0.7618	0.6617	0.51367	-0.136
Mof_C 	C 	0.0351	0.2106	0.24263	0.343
Mof_C 	C 	0.9577	0.3275	0.0943	-0.036
Mof_C 	C 	0.97	0.2777	0.7236	0.116
Mof_C 	C 	0.0636	0.19	0.54373	-0.131
Mof_C 	C 	0.3275	0.9577	0.57237	-0.033
Mof_C 	C 	0.1264	0.9364	0.87707	-0.126
Mof_C 	C 	0.28	0.0676	0.12083	0.064
Mof_C 	C 	0.6617	0.7618	0.153	-0.139
Mof_C 	C 	0.7223	0.6923	0.39027	0.097
Mof_C 	C 	0.5757	0.0387	0.05623	-0.121
Mof_C 	C 	0.1647	0.0974	0.18323	0.075
Mof_C 	C 	0.4151	0.9782	0.53997	-0.011
Mof_C 	C 	0.8245	0.7894	0.75737	0.357
Mof_C 	C 	0.2382	0.8999	0.81967	-0.132
Mof_C 	C 	0.0423	0.3698	0.23903	0.008
Mof_C 	C 	0.4243	0.463	0.2771	-0.143
Mof_C 	C 	0.1755	0.9649	0.57597	0.371
Mof_C 	C 	0.8736	0.81	0.45627	-0.126
Mof_C 	C 	0.9327	0.8353	0.51657	0.083
Mof_C 	C 	0.9649	0.1755	0.0907	0.375
Mof_C 	C 	0.6302	0.6725	0.9057	-0.016
Mof_C 	C 	0.463	0.4243	0.38957	-0.143
Mof_C 	C 	0.0218	0.4369	0.20663	-0.085
Mof_C 	C 	0.3383	0.1001	0.18033	-0.138
Mof_C 	C 	0.9364	0.1264	0.7896	-0.126
Mof_C 	C 	0.0673	0.9026	0.81677	0.079
Mof_C 	C 	0.6943	0.8251	0.0933	0.088
Mof_C 	C 	0.2106	0.0351	0.42403	0.348
Mof_C 	C 	0.9772	0.2628	0.1321	-0.027
Mof_C 	C 	0.4369	0.0218	0.46003	-0.077
Mof_C 	C 	0.1001	0.3383	0.48633	-0.139
Mof_C 	C 	0.6725	0.6302	0.76097	-0.013
Mof_C 	C 	0.5117	0	-0	0.017
Mof_C 	C 	0.8353	0.9327	0.1501	0.082
Mof_C 	C 	0.8999	0.2382	0.847	-0.132
Mof_C 	C 	0.6923	0.7223	0.2764	0.096
Mof_C 	C 	0.0364	0.6621	0.61223	0.075
Mof_C 	C 	0.7894	0.8245	0.9093	0.354
Mof_C 	C 	0.537	0.9613	0.94377	-0.083
Mof_C 	C 	0.5852	0.5852	0.33333	0.1
Mof_C 	C 	0.5849	0.5631	0.79337	-0.043
Mof_C 	C 	0.2628	0.9772	0.53457	-0.029
Mof_C 	C 	0.7372	0.7144	0.79877	-0.049
Mof_C 	C 	0.2124	0.9324	0.87917	0.062
Mof_C 	C 	0.1308	0.3057	0.42663	0.084
Mof_C 	C 	0.6621	0.0364	0.05443	0.065
Mof_C 	C 	0.2856	0.0228	0.46543	-0.073
Mof_N 	N 	0.9087	0.7785	0.57455	-0.227
Mof_N 	N 	0.2466	0	-0	-0.163
Mof_N 	N 	0.0913	0.8698	0.75879	-0.236
Mof_N 	N 	0.2215	0.1302	0.24121	-0.235
Mof_N 	N 	0.1302	0.2215	0.42545	-0.236
Mof_N 	N 	0.8698	0.0913	0.90788	-0.228
Mof_N 	N 	1.84647e-17	0.6888	0.66667	-0.243
Mof_N 	N 	0.7785	0.9087	0.09212	-0.231
Mof_N 	N 	0.7534	0.7534	0.33333	-0.134
Mof_N 	N 	0.3608	0.9655	0.94107	-0.122
Mof_N 	N 	0.6047	0.6392	0.2744	-0.139
Mof_N 	N 	0.6888	0	-0	-0.253
Mof_N 	N 	0.3953	0.0345	0.05893	-0.139
Mof_N 	N 	0.3112	0.3112	0.33333	-0.23
Mof_N 	N 	0.9655	0.3608	0.7256	-0.129
Mof_N 	N 	0.6392	0.6047	0.39227	-0.139
Mof_N 	N 	-2.46373e-17	0.2466	0.66667	-0.151
Mof_N 	N 	0.0345	0.3953	0.60773	-0.139
Mof_O 	O 	0.8422	0.8727	0.75337	-0.285
Mof_O 	O 	0.1578	0.0305	0.57997	-0.316
Mof_O 	O 	0.1252	0.8803	0.60293	-0.417
Mof_O 	O 	0.1273	0.9695	0.42003	-0.29
Mof_O 	O 	0.2449	0.1197	0.39707	-0.411
Mof_O 	O 	0.8748	0.7551	0.73041	-0.4
Mof_O 	O 	0.9695	0.1273	0.24663	-0.284
Mof_O 	O 	0.0305	0.1578	0.0867	-0.326
Mof_O 	O 	0.7551	0.8748	0.93626	-0.391
Mof_O 	O 	0.8727	0.8422	0.9133	-0.276
Mof_O 	O 	0.1197	0.2449	0.26959	-0.41
Mof_O 	O 	0.8803	0.1252	0.06374	-0.424
_end
