data_functionalizedCrystal
_audit_creation_method	'EQeq! by Chris Wilmer'
_symmetry_space_group_name_H-M	'P1'
_symmetry_Int_Tables_number	1
_symmetry_cell_setting	triclinic
loop_
_symmetry_equiv_pos_as_xyz
  x,y,z
_cell_length_a	28.6315
_cell_length_b	9.2743
_cell_length_c	9.2833
_cell_angle_alpha	90
_cell_angle_beta	116.615
_cell_angle_gamma	90
loop_
_atom_site_label
_atom_site_type_symbol
_atom_site_fract_x
_atom_site_fract_y
_atom_site_fract_z
_atom_site_charge
Mof_Cu	Cu	0.18764	0.8269	0.3103	0.889
Mof_O 	O 	0.1271	0.0664	0.334	-0.28
Mof_O 	O 	0.1372	0.176	0.5621	-0.345
Mof_N 	N 	0.2208	0.011	0.7329	-0.161
Mof_N 	N 	0.2577	0.9082	0.7884	-0.054
Mof_N 	N 	0.2512	0.8247	0.6652	-0.13
Mof_N 	N 	0.2109	0.8722	0.5326	-0.189
Mof_N 	N 	0.1422	0.6614	0.3189	-0.232
Mof_C 	C 	0.1482	0.0844	0.4805	0.271
Mof_C 	C 	0.1928	0.9864	0.5767	0.017
Mof_C 	C 	0.111	0.7198	0.3772	0.104
Mof_C 	C 	0.074	0.6438	0.4047	-0.222
Mof_C 	C 	0.06917	0.4974	0.3689	0.222
Mof_C 	C 	0.1007	0.4335	0.3086	-0.233
Mof_C 	C 	0.1366	0.5193	0.2854	0.127
Mof_C 	C 	0.02973	0.4077	0.3957	-0.389
Mof_H 	H 	0.11471	0.82105	0.40141	-0.014
Mof_H 	H 	0.05266	0.6903	0.44649	0.104
Mof_H 	H 	0.09778	0.3325	0.28353	0.133
Mof_H 	H 	0.15835	0.4753	0.24373	0
Mof_H 	H 	0.04751	0.34796	0.48906	0.159
Mof_H 	H 	0.00576	0.47011	0.41195	0.139
Mof_H 	H 	0.02411	0.2538	0.2312	-0.015
Mof_Cu	Cu	0.68764	0.3269	0.3103	0.888
Mof_O 	O 	0.6271	0.5664	0.334	-0.279
Mof_O 	O 	0.6372	0.676	0.5621	-0.345
Mof_N 	N 	0.7208	0.511	0.7329	-0.16
Mof_N 	N 	0.7577	0.4082	0.7884	-0.054
Mof_N 	N 	0.7512	0.3247	0.6652	-0.13
Mof_N 	N 	0.7109	0.3722	0.5326	-0.189
Mof_N 	N 	0.6422	0.1614	0.3189	-0.234
Mof_C 	C 	0.6482	0.5844	0.4805	0.271
Mof_C 	C 	0.6928	0.4864	0.5767	0.017
Mof_C 	C 	0.611	0.2198	0.3772	0.109
Mof_C 	C 	0.574	0.1438	0.4047	-0.231
Mof_C 	C 	0.56917	0.9974	0.3689	0.239
Mof_C 	C 	0.6007	0.9335	0.3086	-0.244
Mof_C 	C 	0.6366	0.0193	0.2854	0.134
Mof_C 	C 	0.52973	0.9077	0.3957	-0.428
Mof_H 	H 	0.61471	0.32105	0.40141	-0.015
Mof_H 	H 	0.55266	0.1903	0.44649	0.109
Mof_H 	H 	0.59778	0.8325	0.28353	0.137
Mof_H 	H 	0.65835	0.9753	0.24373	-0.002
Mof_H 	H 	0.54751	0.84796	0.48906	0.172
Mof_H 	H 	0.50576	0.97011	0.41195	0.154
Mof_H 	H 	0.52411	0.7538	0.2312	-0.032
Mof_Cu	Cu	0.81236	0.8269	0.1897	0.888
Mof_O 	O 	0.8729	0.0664	0.166	-0.279
Mof_O 	O 	0.8628	0.176	0.9379	-0.345
Mof_N 	N 	0.7792	0.011	0.7671	-0.161
Mof_N 	N 	0.7423	0.9082	0.7116	-0.054
Mof_N 	N 	0.7488	0.8247	0.8348	-0.13
Mof_N 	N 	0.7891	0.8722	0.9674	-0.189
Mof_N 	N 	0.8578	0.6614	0.1811	-0.232
Mof_C 	C 	0.8518	0.0844	0.0195	0.273
Mof_C 	C 	0.8072	0.9864	0.9233	0.017
Mof_C 	C 	0.889	0.7198	0.1228	0.105
Mof_C 	C 	0.926	0.6438	0.0953	-0.222
Mof_C 	C 	0.93083	0.4974	0.1311	0.225
Mof_C 	C 	0.8993	0.4335	0.1914	-0.233
Mof_C 	C 	0.8634	0.5193	0.2146	0.128
Mof_C 	C 	0.97027	0.4077	0.1043	-0.385
Mof_H 	H 	0.88529	0.82105	0.09859	-0.014
Mof_H 	H 	0.94734	0.6903	0.05351	0.107
Mof_H 	H 	0.90222	0.3325	0.21647	0.134
Mof_H 	H 	0.84165	0.4753	0.25627	0
Mof_H 	H 	0.95249	0.34796	0.01094	0.161
Mof_H 	H 	0.99424	0.47011	0.08805	0.145
Mof_H 	H 	0.97589	0.2538	0.2688	-0.008
Mof_Cu	Cu	0.31236	0.3269	0.1897	0.888
Mof_O 	O 	0.3729	0.5664	0.166	-0.279
Mof_O 	O 	0.3628	0.676	0.9379	-0.344
Mof_N 	N 	0.2792	0.511	0.7671	-0.16
Mof_N 	N 	0.2423	0.4082	0.7116	-0.054
Mof_N 	N 	0.2488	0.3247	0.8348	-0.13
Mof_N 	N 	0.2891	0.3722	0.9674	-0.189
Mof_N 	N 	0.3578	0.1614	0.1811	-0.234
Mof_C 	C 	0.3518	0.5844	0.0195	0.271
Mof_C 	C 	0.3072	0.4864	0.9233	0.017
Mof_C 	C 	0.389	0.2198	0.1228	0.108
Mof_C 	C 	0.426	0.1438	0.0953	-0.23
Mof_C 	C 	0.43083	0.9974	0.1311	0.238
Mof_C 	C 	0.3993	0.9335	0.1914	-0.244
Mof_C 	C 	0.3634	0.0193	0.2146	0.134
Mof_C 	C 	0.47027	0.9077	0.1043	-0.427
Mof_H 	H 	0.38529	0.32105	0.09859	-0.015
Mof_H 	H 	0.44734	0.1903	0.05351	0.109
Mof_H 	H 	0.40222	0.8325	0.21647	0.137
Mof_H 	H 	0.34165	0.9753	0.25627	-0.002
Mof_H 	H 	0.45249	0.84796	0.01094	0.171
Mof_H 	H 	0.49424	0.97011	0.08805	0.153
Mof_H 	H 	0.47589	0.7538	0.2688	-0.032
Mof_Cu	Cu	0.81236	0.1731	0.6897	0.888
Mof_O 	O 	0.8729	0.9336	0.666	-0.279
Mof_O 	O 	0.8628	0.824	0.4379	-0.344
Mof_N 	N 	0.7792	0.989	0.2671	-0.161
Mof_N 	N 	0.7423	0.0918	0.2116	-0.054
Mof_N 	N 	0.7488	0.1753	0.3348	-0.13
Mof_N 	N 	0.7891	0.1278	0.4674	-0.189
Mof_N 	N 	0.8578	0.3386	0.6811	-0.232
Mof_C 	C 	0.8518	0.9156	0.5195	0.271
Mof_C 	C 	0.8072	0.0136	0.4233	0.017
Mof_C 	C 	0.889	0.2802	0.6228	0.105
Mof_C 	C 	0.926	0.3562	0.5953	-0.221
Mof_C 	C 	0.93083	0.5026	0.6311	0.224
Mof_C 	C 	0.8993	0.5665	0.6914	-0.232
Mof_C 	C 	0.8634	0.4807	0.7146	0.128
Mof_C 	C 	0.97027	0.5923	0.6043	-0.384
Mof_H 	H 	0.88529	0.17895	0.59859	-0.014
Mof_H 	H 	0.94734	0.3097	0.55351	0.107
Mof_H 	H 	0.90222	0.6675	0.71647	0.134
Mof_H 	H 	0.84165	0.5247	0.75627	0
Mof_H 	H 	0.95249	0.65204	0.51094	0.16
Mof_H 	H 	0.99424	0.52989	0.58805	0.145
Mof_H 	H 	0.97589	0.7462	0.7688	-0.008
Mof_Cu	Cu	0.31236	0.6731	0.6897	0.888
Mof_O 	O 	0.3729	0.4336	0.666	-0.279
Mof_O 	O 	0.3628	0.324	0.4379	-0.345
Mof_N 	N 	0.2792	0.489	0.2671	-0.16
Mof_N 	N 	0.2423	0.5918	0.2116	-0.054
Mof_N 	N 	0.2488	0.6753	0.3348	-0.13
Mof_N 	N 	0.2891	0.6278	0.4674	-0.189
Mof_N 	N 	0.3578	0.8386	0.6811	-0.234
Mof_C 	C 	0.3518	0.4156	0.5195	0.271
Mof_C 	C 	0.3072	0.5136	0.4233	0.017
Mof_C 	C 	0.389	0.7802	0.6228	0.109
Mof_C 	C 	0.426	0.8562	0.5953	-0.231
Mof_C 	C 	0.43083	0.0026	0.6311	0.239
Mof_C 	C 	0.3993	0.0665	0.6914	-0.244
Mof_C 	C 	0.3634	0.9807	0.7146	0.134
Mof_C 	C 	0.47027	0.0923	0.6043	-0.428
Mof_H 	H 	0.38529	0.67895	0.59859	-0.015
Mof_H 	H 	0.44734	0.8097	0.55351	0.109
Mof_H 	H 	0.40222	0.1675	0.71647	0.138
Mof_H 	H 	0.34165	0.0247	0.75627	-0.002
Mof_H 	H 	0.45249	0.15204	0.51094	0.172
Mof_H 	H 	0.49424	0.02989	0.58805	0.154
Mof_H 	H 	0.47589	0.2462	0.7688	-0.032
Mof_Cu	Cu	0.18764	0.1731	0.8103	0.888
Mof_O 	O 	0.1271	0.9336	0.834	-0.28
Mof_O 	O 	0.1372	0.824	0.0621	-0.346
Mof_N 	N 	0.2208	0.989	0.2329	-0.161
Mof_N 	N 	0.2577	0.0918	0.2884	-0.054
Mof_N 	N 	0.2512	0.1753	0.1652	-0.13
Mof_N 	N 	0.2109	0.1278	0.0326	-0.188
Mof_N 	N 	0.1422	0.3386	0.8189	-0.232
Mof_C 	C 	0.1482	0.9156	0.9805	0.272
Mof_C 	C 	0.1928	0.0136	0.0767	0.017
Mof_C 	C 	0.111	0.2802	0.8772	0.104
Mof_C 	C 	0.074	0.3562	0.9047	-0.222
Mof_C 	C 	0.06917	0.5026	0.8689	0.222
Mof_C 	C 	0.1007	0.5665	0.8086	-0.233
Mof_C 	C 	0.1366	0.4807	0.7854	0.127
Mof_C 	C 	0.02973	0.5923	0.8957	-0.388
Mof_H 	H 	0.11471	0.17895	0.90141	-0.015
Mof_H 	H 	0.05266	0.3097	0.94649	0.104
Mof_H 	H 	0.09778	0.6675	0.78353	0.133
Mof_H 	H 	0.15835	0.5247	0.74373	0
Mof_H 	H 	0.04751	0.65204	0.98906	0.158
Mof_H 	H 	0.00576	0.52989	0.91195	0.139
Mof_H 	H 	0.02411	0.7462	0.7312	-0.015
Mof_Cu	Cu	0.68764	0.6731	0.8103	0.888
Mof_O 	O 	0.6271	0.4336	0.834	-0.279
Mof_O 	O 	0.6372	0.324	0.0621	-0.345
Mof_N 	N 	0.7208	0.489	0.2329	-0.16
Mof_N 	N 	0.7577	0.5918	0.2884	-0.054
Mof_N 	N 	0.7512	0.6753	0.1652	-0.13
Mof_N 	N 	0.7109	0.6278	0.0326	-0.189
Mof_N 	N 	0.6422	0.8386	0.8189	-0.234
Mof_C 	C 	0.6482	0.4156	0.9805	0.271
Mof_C 	C 	0.6928	0.5136	0.0767	0.017
Mof_C 	C 	0.611	0.7802	0.8772	0.108
Mof_C 	C 	0.574	0.8562	0.9047	-0.23
Mof_C 	C 	0.56917	0.0026	0.8689	0.238
Mof_C 	C 	0.6007	0.0665	0.8086	-0.244
Mof_C 	C 	0.6366	0.9807	0.7854	0.134
Mof_C 	C 	0.52973	0.0923	0.8957	-0.427
Mof_H 	H 	0.61471	0.67895	0.90141	-0.015
Mof_H 	H 	0.55266	0.8097	0.94649	0.109
Mof_H 	H 	0.59778	0.1675	0.78353	0.137
Mof_H 	H 	0.65835	0.0247	0.74373	-0.002
Mof_H 	H 	0.54751	0.15204	0.98906	0.171
Mof_H 	H 	0.50576	0.02989	0.91195	0.153
Mof_H 	H 	0.52411	0.2462	0.7312	-0.032
Mof_C 	C 	4.40075e-34	0.3136	0.25	0.167
Mof_C 	C 	0.5	0.8136	0.25	0.229
Mof_C 	C 	1.28964e-17	0.6864	0.75	0.166
Mof_C 	C 	0.5	0.1864	0.75	0.229
_end
