data_functionalizedCrystal
_audit_creation_method	'EQeq! by Chris Wilmer'
_symmetry_space_group_name_H-M	'P1'
_symmetry_Int_Tables_number	1
_symmetry_cell_setting	triclinic
loop_
_symmetry_equiv_pos_as_xyz
  x,y,z
_cell_length_a	9.2276
_cell_length_b	9.2861
_cell_length_c	9.3789
_cell_angle_alpha	85.2128
_cell_angle_beta	77.3119
_cell_angle_gamma	89.3472
loop_
_atom_site_label
_atom_site_type_symbol
_atom_site_fract_x
_atom_site_fract_y
_atom_site_fract_z
_atom_site_charge
Mof_Al	Al	0.8664	0.0653	0.0841	6.545
Mof_P 	P 	0.17	0.13943	0.137	1.531
Mof_P 	P 	0.3755	0.1206	0.67611	1.851
Mof_P 	P 	0.6209	0.31593	0.09528	1.731
Mof_Al	Al	0.6232	0.65829	0.0856	7.422
Mof_Al	Al	0.3956	0.1193	0.3395	6.876
Mof_O 	O 	0.7728	0.2336	0.0668	-1.744
Mof_O 	O 	0.5271	0.051	0.669	-2.2
Mof_O 	O 	0.254	0.0126	0.746	-1.793
Mof_O 	O 	0.9999	0.1447	0.1855	-1.504
Mof_O 	O 	0.5402	0.3123	0.9619	-2.355
Mof_O 	O 	0.2329	0.0236	0.0367	-1.777
Mof_O 	O 	0.3611	0.1678	0.5172	-2.055
Mof_O 	O 	0.6493	0.4751	0.1242	-2.13
Mof_O 	O 	0.2278	0.1194	0.2803	-1.936
Mof_O 	O 	0.2315	0.2863	0.0597	-2.132
Mof_O 	O 	0.3682	0.2552	0.7566	-2.134
Mof_O 	O 	0.5117	0.2546	0.2333	-2.114
Mof_F 	F 	0.0154	0.105	0.9194	-2.081
Mof_Al	Al	0.1336	0.9347	0.9159	6.544
Mof_P 	P 	0.83	0.86057	0.863	1.53
Mof_P 	P 	0.6245	0.8794	0.32389	1.851
Mof_P 	P 	0.3791	0.68407	0.90472	1.731
Mof_Al	Al	0.3768	0.34171	0.9144	7.422
Mof_Al	Al	0.6044	0.8807	0.6605	6.876
Mof_O 	O 	0.2272	0.7664	0.9332	-1.744
Mof_O 	O 	0.4729	0.949	0.331	-2.2
Mof_O 	O 	0.746	0.9874	0.254	-1.793
Mof_O 	O 	0.0001	0.8553	0.8145	-1.504
Mof_O 	O 	0.4598	0.6877	0.0381	-2.355
Mof_O 	O 	0.7671	0.9764	0.9633	-1.777
Mof_O 	O 	0.6389	0.8322	0.4828	-2.055
Mof_O 	O 	0.3507	0.5249	0.8758	-2.13
Mof_O 	O 	0.7722	0.8806	0.7197	-1.936
Mof_O 	O 	0.7685	0.7137	0.9403	-2.132
Mof_O 	O 	0.6318	0.7448	0.2434	-2.134
Mof_O 	O 	0.4883	0.7454	0.7667	-2.114
Mof_F 	F 	0.9846	0.895	0.0806	-2.081
_end
