data_functionalizedCrystal
_audit_creation_method	'EQeq! by Chris Wilmer'
_symmetry_space_group_name_H-M	'P1'
_symmetry_Int_Tables_number	1
_symmetry_cell_setting	triclinic
loop_
_symmetry_equiv_pos_as_xyz
  x,y,z
_cell_length_a	16.047
_cell_length_b	16.3995
_cell_length_c	16.3995
_cell_angle_alpha	76.1507
_cell_angle_beta	60.7085
_cell_angle_gamma	60.7084
loop_
_atom_site_label
_atom_site_type_symbol
_atom_site_fract_x
_atom_site_fract_y
_atom_site_fract_z
_atom_site_charge
Mof_Tb	Tb	0.20389	0.37937	0.53309	1.802
Mof_Tb	Tb	0.01181	0.11328	0.52442	1.912
Mof_Tb	Tb	0.61635	0.12063	0.96691	1.788
Mof_Tb	Tb	0.14951	0.38672	0.97558	1.919
Mof_Tb	Tb	0.73698	0.46691	0.87937	1.806
Mof_Tb	Tb	0.53623	0.47558	0.61328	1.957
Mof_Tb	Tb	0.58326	0.03309	0.62063	1.801
Mof_Tb	Tb	0.12509	0.02442	0.88672	1.883
Mof_Tb	Tb	0.79611	0.62063	0.46691	1.803
Mof_Tb	Tb	0.98819	0.88672	0.47558	1.913
Mof_Tb	Tb	0.38365	0.87937	0.03309	1.788
Mof_Tb	Tb	0.85049	0.61328	0.02442	1.919
Mof_Tb	Tb	0.26302	0.53309	0.12063	1.806
Mof_Tb	Tb	0.46377	0.52442	0.38672	1.957
Mof_Tb	Tb	0.41674	0.96691	0.37937	1.801
Mof_Tb	Tb	0.87491	0.97558	0.11328	1.883
Mof_H 	H 	0.8052	0.25	0.7522	-0.057
Mof_H 	H 	0.0815	0.3989	0.7821	-0.072
Mof_H 	H 	0.3074	0.25	0.7478	-0.057
Mof_H 	H 	0.7625	0.1011	0.7179	-0.067
Mof_H 	H 	0.5574	0.2478	0.75	-0.058
Mof_H 	H 	0.8636	0.2179	0.8989	-0.067
Mof_H 	H 	0.0552	0.2522	0.75	-0.063
Mof_H 	H 	0.4804	0.2821	0.6011	-0.069
Mof_H 	H 	0.1948	0.75	0.2478	-0.057
Mof_H 	H 	0.9185	0.6011	0.2179	-0.072
Mof_H 	H 	0.6926	0.75	0.2522	-0.057
Mof_H 	H 	0.2375	0.8989	0.2821	-0.067
Mof_H 	H 	0.4426	0.7522	0.25	-0.058
Mof_H 	H 	0.1364	0.7821	0.1011	-0.067
Mof_H 	H 	0.9448	0.7478	0.25	-0.063
Mof_H 	H 	0.5196	0.7179	0.3989	-0.069
Mof_C 	C 	0.8526	0.276	0.7168	0.158
Mof_C 	C 	0.9844	0.2966	0.6064	-0.054
Mof_C 	C 	0.9249	0.3677	0.6717	-0.096
Mof_C 	C 	0.0786	0.2753	0.5151	0.381
Mof_C 	C 	0.937	0.4489	0.6789	0.421
Mof_C 	C 	0.1377	0.4144	0.759	0.159
Mof_C 	C 	0.2704	0.4434	0.6638	-0.056
Mof_C 	C 	0.2498	0.4525	0.7541	-0.086
Mof_C 	C 	0.3471	0.4547	0.5695	0.374
Mof_C 	C 	0.3058	0.47	0.7936	0.435
Mof_C 	C 	0.3454	0.224	0.7832	0.156
Mof_C 	C 	0.3874	0.2034	0.8936	-0.059
Mof_C 	C 	0.4643	0.1323	0.8283	-0.096
Mof_C 	C 	0.369	0.2247	0.9849	0.362
Mof_C 	C 	0.5648	0.0511	0.8211	0.407
Mof_C 	C 	0.8111	0.0856	0.741	0.159
Mof_C 	C 	0.8776	0.0566	0.8362	-0.058
Mof_C 	C 	0.9564	0.0475	0.7459	-0.062
Mof_C 	C 	0.8713	0.0453	0.9305	0.375
Mof_C 	C 	0.0694	0.03	0.7064	0.407
Mof_C 	C 	0.5694	0.2832	0.776	0.157
Mof_C 	C 	0.5908	0.3936	0.7966	-0.067
Mof_C 	C 	0.5966	0.3283	0.8677	-0.092
Mof_C 	C 	0.5937	0.4849	0.7753	0.392
Mof_C 	C 	0.6159	0.3211	0.9489	0.407
Mof_C 	C 	0.8967	0.241	0.9144	0.162
Mof_C 	C 	0.9342	0.3362	0.9434	-0.022
Mof_C 	C 	0.0039	0.2459	0.9525	-0.13
Mof_C 	C 	0.9166	0.4305	0.9547	0.363
Mof_C 	C 	0.0994	0.2064	0.97	0.444
Mof_C 	C 	0.1286	0.2168	0.724	0.156
Mof_C 	C 	0.281	0.1064	0.7034	-0.059
Mof_C 	C 	0.2926	0.1717	0.6323	-0.096
Mof_C 	C 	0.3539	0.0151	0.7247	0.365
Mof_C 	C 	0.3859	0.1789	0.5511	0.412
Mof_C 	C 	0.5521	0.259	0.5856	0.16
Mof_C 	C 	0.7138	0.1638	0.5566	-0.054
Mof_C 	C 	0.7023	0.2541	0.5475	-0.085
Mof_C 	C 	0.8018	0.0695	0.5453	0.371
Mof_C 	C 	0.7758	0.2936	0.53	0.432
Mof_C 	C 	0.1474	0.724	0.2832	0.158
Mof_C 	C 	0.0156	0.7034	0.3936	-0.054
Mof_C 	C 	0.0751	0.6323	0.3283	-0.096
Mof_C 	C 	0.9214	0.7247	0.4849	0.381
Mof_C 	C 	0.063	0.5511	0.3211	0.421
Mof_C 	C 	0.8623	0.5856	0.241	0.159
Mof_C 	C 	0.7296	0.5566	0.3362	-0.056
Mof_C 	C 	0.7502	0.5475	0.2459	-0.086
Mof_C 	C 	0.6529	0.5453	0.4305	0.374
Mof_C 	C 	0.6942	0.53	0.2064	0.435
Mof_C 	C 	0.6546	0.776	0.2168	0.156
Mof_C 	C 	0.6126	0.7966	0.1064	-0.059
Mof_C 	C 	0.5357	0.8677	0.1717	-0.096
Mof_C 	C 	0.631	0.7753	0.0151	0.362
Mof_C 	C 	0.4352	0.9489	0.1789	0.407
Mof_C 	C 	0.1889	0.9144	0.259	0.159
Mof_C 	C 	0.1224	0.9434	0.1638	-0.058
Mof_C 	C 	0.0436	0.9525	0.2541	-0.062
Mof_C 	C 	0.1287	0.9547	0.0695	0.375
Mof_C 	C 	0.9306	0.97	0.2936	0.407
Mof_C 	C 	0.4306	0.7168	0.224	0.157
Mof_C 	C 	0.4092	0.6064	0.2034	-0.067
Mof_C 	C 	0.4034	0.6717	0.1323	-0.092
Mof_C 	C 	0.4063	0.5151	0.2247	0.392
Mof_C 	C 	0.3841	0.6789	0.0511	0.407
Mof_C 	C 	0.1033	0.759	0.0856	0.162
Mof_C 	C 	0.0658	0.6638	0.0566	-0.022
Mof_C 	C 	0.9961	0.7541	0.0475	-0.13
Mof_C 	C 	0.0834	0.5695	0.0453	0.363
Mof_C 	C 	0.9006	0.7936	0.03	0.444
Mof_C 	C 	0.8714	0.7832	0.276	0.156
Mof_C 	C 	0.719	0.8936	0.2966	-0.059
Mof_C 	C 	0.7074	0.8283	0.3677	-0.096
Mof_C 	C 	0.6461	0.9849	0.2753	0.365
Mof_C 	C 	0.6141	0.8211	0.4489	0.412
Mof_C 	C 	0.4479	0.741	0.4144	0.16
Mof_C 	C 	0.2862	0.8362	0.4434	-0.054
Mof_C 	C 	0.2977	0.7459	0.4525	-0.085
Mof_C 	C 	0.1982	0.9305	0.4547	0.371
Mof_C 	C 	0.2242	0.7064	0.47	0.432
Mof_N 	N 	0.8415	0.3537	0.7421	-0.232
Mof_N 	N 	0.9371	0.2391	0.6367	-0.236
Mof_N 	N 	0.166	0.4329	0.8135	-0.258
Mof_N 	N 	0.1971	0.4201	0.6685	-0.269
Mof_N 	N 	0.4373	0.1463	0.7579	-0.233
Mof_N 	N 	0.3129	0.2609	0.8633	-0.24
Mof_N 	N 	0.9124	0.0671	0.6865	-0.256
Mof_N 	N 	0.7857	0.0799	0.8315	-0.266
Mof_N 	N 	0.5836	0.2579	0.8537	-0.233
Mof_N 	N 	0.5738	0.3633	0.7391	-0.24
Mof_N 	N 	0.9795	0.1865	0.9329	-0.235
Mof_N 	N 	0.8656	0.3315	0.9201	-0.272
Mof_N 	N 	0.1952	0.2421	0.6463	-0.233
Mof_N 	N 	0.1762	0.1367	0.7609	-0.24
Mof_N 	N 	0.5989	0.3135	0.5671	-0.259
Mof_N 	N 	0.6172	0.1685	0.5799	-0.268
Mof_N 	N 	0.1585	0.6463	0.2579	-0.232
Mof_N 	N 	0.0629	0.7609	0.3633	-0.236
Mof_N 	N 	0.834	0.5671	0.1865	-0.258
Mof_N 	N 	0.8029	0.5799	0.3315	-0.269
Mof_N 	N 	0.5627	0.8537	0.2421	-0.233
Mof_N 	N 	0.6871	0.7391	0.1367	-0.24
Mof_N 	N 	0.0876	0.9329	0.3135	-0.256
Mof_N 	N 	0.2143	0.9201	0.1685	-0.266
Mof_N 	N 	0.4164	0.7421	0.1463	-0.233
Mof_N 	N 	0.4262	0.6367	0.2609	-0.24
Mof_N 	N 	0.0205	0.8135	0.0671	-0.235
Mof_N 	N 	0.1344	0.6685	0.0799	-0.272
Mof_N 	N 	0.8048	0.7579	0.3537	-0.233
Mof_N 	N 	0.8238	0.8633	0.2391	-0.24
Mof_N 	N 	0.4011	0.6865	0.4329	-0.259
Mof_N 	N 	0.3828	0.8315	0.4201	-0.268
Mof_O 	O 	0.1325	0.3216	0.4824	-0.524
Mof_O 	O 	0.1036	0.2063	0.4703	-0.503
Mof_O 	O 	0.8587	0.5075	0.7419	-0.51
Mof_O 	O 	0.0222	0.4555	0.6275	-0.533
Mof_O 	O 	0.3481	0.4317	0.5015	-0.535
Mof_O 	O 	0.412	0.4866	0.5552	-0.615
Mof_O 	O 	0.3761	0.495	0.7446	-0.546
Mof_O 	O 	0.2729	0.4562	0.8814	-0.49
Mof_O 	O 	0.4365	0.1784	0.0176	-0.507
Mof_O 	O 	0.2802	0.2937	0.0297	-0.486
Mof_O 	O 	0.6081	0.9925	0.7581	-0.503
Mof_O 	O 	0.6052	0.0445	0.8725	-0.524
Mof_O 	O 	0.7813	0.0683	0.9985	-0.527
Mof_O 	O 	0.9538	0.0134	0.9448	-0.591
Mof_O 	O 	0.1157	0.005	0.7554	-0.54
Mof_O 	O 	0.1105	0.0438	0.6186	-0.486
Mof_O 	O 	0.6149	0.5176	0.8216	-0.526
Mof_O 	O 	0.5739	0.5297	0.7063	-0.508
Mof_O 	O 	0.6006	0.2581	0.0075	-0.504
Mof_O 	O 	0.6497	0.3725	0.9555	-0.525
Mof_O 	O 	0.8496	0.4985	0.9317	-0.527
Mof_O 	O 	0.9672	0.4448	0.9866	-0.595
Mof_O 	O 	0.1207	0.2554	0.995	-0.553
Mof_O 	O 	0.1543	0.1186	0.9562	-0.496
Mof_O 	O 	0.4541	0.9824	0.6784	-0.511
Mof_O 	O 	0.3099	0.9703	0.7937	-0.48
Mof_O 	O 	0.3662	0.2419	0.4925	-0.509
Mof_O 	O 	0.4777	0.1275	0.5445	-0.525
Mof_O 	O 	0.7798	0.0015	0.5683	-0.526
Mof_O 	O 	0.8986	0.0552	0.5134	-0.601
Mof_O 	O 	0.8711	0.2446	0.505	-0.537
Mof_O 	O 	0.7291	0.3814	0.5438	-0.489
Mof_O 	O 	0.8675	0.6784	0.5176	-0.524
Mof_O 	O 	0.8964	0.7937	0.5297	-0.503
Mof_O 	O 	0.1413	0.4925	0.2581	-0.51
Mof_O 	O 	0.9778	0.5445	0.3725	-0.533
Mof_O 	O 	0.6519	0.5683	0.4985	-0.535
Mof_O 	O 	0.588	0.5134	0.4448	-0.615
Mof_O 	O 	0.6239	0.505	0.2554	-0.546
Mof_O 	O 	0.7271	0.5438	0.1186	-0.49
Mof_O 	O 	0.5635	0.8216	0.9824	-0.507
Mof_O 	O 	0.7198	0.7063	0.9703	-0.486
Mof_O 	O 	0.3919	0.0075	0.2419	-0.503
Mof_O 	O 	0.3948	0.9555	0.1275	-0.524
Mof_O 	O 	0.2187	0.9317	0.0015	-0.527
Mof_O 	O 	0.0462	0.9866	0.0552	-0.591
Mof_O 	O 	0.8843	0.995	0.2446	-0.54
Mof_O 	O 	0.8895	0.9562	0.3814	-0.486
Mof_O 	O 	0.3851	0.4824	0.1784	-0.526
Mof_O 	O 	0.4261	0.4703	0.2937	-0.508
Mof_O 	O 	0.3994	0.7419	0.9925	-0.504
Mof_O 	O 	0.3503	0.6275	0.0445	-0.525
Mof_O 	O 	0.1504	0.5015	0.0683	-0.527
Mof_O 	O 	0.0328	0.5552	0.0134	-0.595
Mof_O 	O 	0.8793	0.7446	0.005	-0.553
Mof_O 	O 	0.8457	0.8814	0.0438	-0.496
Mof_O 	O 	0.5459	0.0176	0.3216	-0.511
Mof_O 	O 	0.6901	0.0297	0.2063	-0.48
Mof_O 	O 	0.6338	0.7581	0.5075	-0.509
Mof_O 	O 	0.5223	0.8725	0.4555	-0.525
Mof_O 	O 	0.2202	0.9985	0.4317	-0.526
Mof_O 	O 	0.1014	0.9448	0.4866	-0.601
Mof_O 	O 	0.1289	0.7554	0.495	-0.537
Mof_O 	O 	0.2709	0.6186	0.4562	-0.489
_end
