data_functionalizedCrystal
_audit_creation_method	'EQeq! by Chris Wilmer'
_symmetry_space_group_name_H-M	'P1'
_symmetry_Int_Tables_number	1
_symmetry_cell_setting	triclinic
loop_
_symmetry_equiv_pos_as_xyz
  x,y,z
_cell_length_a	16.2499
_cell_length_b	8.7451
_cell_length_c	20.7317
_cell_angle_alpha	90
_cell_angle_beta	95.213
_cell_angle_gamma	90
loop_
_atom_site_label
_atom_site_type_symbol
_atom_site_fract_x
_atom_site_fract_y
_atom_site_fract_z
_atom_site_charge
Mof_Eu	Eu	0.24212	0.22074	0.71197	2.418
Mof_O 	O 	0.124	0.3571	0.6615	-0.526
Mof_O 	O 	0.3709	0.3199	0.7482	-0.638
Mof_O 	O 	0.1795	0.5362	0.8413	-0.612
Mof_O 	O 	0.1786	0.2989	0.8031	-0.605
Mof_O 	O 	0.3642	0.5423	0.7989	-0.628
Mof_O 	O 	0.2109	0.5297	0.7045	-0.628
Mof_N 	N 	0.9845	0.9345	0.4994	-0.104
Mof_N 	N 	0.7552	0.4602	0.8399	-0.106
Mof_N 	N 	0.7876	0.3634	0.8122	-0.103
Mof_C 	C 	0.1507	0.4923	0.6653	0.424
Mof_C 	C 	0.1098	0.6095	0.6199	-0.204
Mof_C 	C 	0.1473	0.7489	0.6099	0.132
Mof_H 	H 	0.1993	0.769	0.6308	-0.031
Mof_C 	C 	0.1095	0.8573	0.5702	-0.203
Mof_H 	H 	0.1351	0.9505	0.5641	0.095
Mof_C 	C 	0.0314	0.8257	0.5387	0.168
Mof_C 	C 	0.9942	0.6859	0.5463	-0.202
Mof_H 	H 	0.943	0.6654	0.5243	0.102
Mof_C 	C 	0.0327	0.5765	0.5862	0.113
Mof_H 	H 	0.008	0.4818	0.5908	0.002
Mof_C 	C 	0.4029	0.4296	0.7803	0.608
Mof_C 	C 	0.4949	0.4267	0.7968	-0.301
Mof_C 	C 	0.5336	0.5378	0.8362	0.22
Mof_H 	H 	0.502	0.6136	0.8535	-0.03
Mof_C 	C 	0.6174	0.5381	0.8501	-0.291
Mof_H 	H 	0.6426	0.6117	0.8776	0.138
Mof_C 	C 	0.6631	0.4308	0.8235	0.22
Mof_C 	C 	0.6271	0.3143	0.7853	-0.269
Mof_H 	H 	0.6594	0.2391	0.7684	0.135
Mof_C 	C 	0.5409	0.3129	0.7729	0.204
Mof_H 	H 	0.515	0.2346	0.7484	-0.033
Mof_C 	C 	0.1443	0.4146	0.8241	0.578
Mof_C 	C 	0.052	0.4062	0.8273	-0.293
Mof_C 	C 	0.0096	0.516	0.8587	0.196
Mof_H 	H 	0.0385	0.5944	0.881	-0.044
Mof_C 	C 	0.9231	0.5101	0.8573	-0.267
Mof_H 	H 	0.8947	0.5831	0.8792	0.126
Mof_C 	C 	0.8812	0.3959	0.8234	0.214
Mof_C 	C 	0.923	0.2855	0.7935	-0.28
Mof_H 	H 	0.894	0.2058	0.7722	0.137
Mof_C 	C 	0.0079	0.2906	0.7946	0.213
Mof_H 	H 	0.0356	0.2158	0.7732	-0.043
Mof_Eu	Eu	0.25788	0.72074	0.78803	2.415
Mof_O 	O 	0.376	0.8571	0.8385	-0.525
Mof_O 	O 	0.1291	0.8199	0.7518	-0.638
Mof_O 	O 	0.3205	0.0362	0.6587	-0.609
Mof_O 	O 	0.3214	0.7989	0.6969	-0.605
Mof_O 	O 	0.1358	0.0423	0.7011	-0.625
Mof_O 	O 	0.2891	0.0297	0.7955	-0.623
Mof_N 	N 	0.5155	0.4345	0.0006	-0.107
Mof_N 	N 	0.7448	0.9602	0.6601	-0.107
Mof_N 	N 	0.7124	0.8634	0.6878	-0.103
Mof_C 	C 	0.3493	0.9923	0.8347	0.418
Mof_C 	C 	0.3902	0.1095	0.8801	-0.204
Mof_C 	C 	0.3527	0.2489	0.8901	0.134
Mof_H 	H 	0.3007	0.269	0.8692	-0.031
Mof_C 	C 	0.3905	0.3573	0.9298	-0.207
Mof_H 	H 	0.3649	0.4505	0.9359	0.097
Mof_C 	C 	0.4686	0.3257	0.9613	0.175
Mof_C 	C 	0.5058	0.1859	0.9537	-0.212
Mof_H 	H 	0.557	0.1654	0.9757	0.106
Mof_C 	C 	0.4673	0.0765	0.9138	0.123
Mof_H 	H 	0.492	0.9818	0.9092	-0.003
Mof_C 	C 	0.0971	0.9296	0.7197	0.605
Mof_C 	C 	0.0051	0.9267	0.7032	-0.309
Mof_C 	C 	0.9664	0.0378	0.6638	0.227
Mof_H 	H 	0.998	0.1136	0.6465	-0.033
Mof_C 	C 	0.8826	0.0381	0.6499	-0.298
Mof_H 	H 	0.8574	0.1117	0.6224	0.14
Mof_C 	C 	0.8369	0.9308	0.6765	0.224
Mof_C 	C 	0.8729	0.8143	0.7147	-0.274
Mof_H 	H 	0.8406	0.7391	0.7316	0.137
Mof_C 	C 	0.9591	0.8129	0.7271	0.212
Mof_H 	H 	0.985	0.7346	0.7516	-0.036
Mof_C 	C 	0.3557	0.9146	0.6759	0.575
Mof_C 	C 	0.448	0.9062	0.6727	-0.294
Mof_C 	C 	0.4904	0.016	0.6413	0.199
Mof_H 	H 	0.4615	0.0944	0.619	-0.044
Mof_C 	C 	0.5769	0.0101	0.6427	-0.267
Mof_H 	H 	0.6053	0.0831	0.6208	0.126
Mof_C 	C 	0.6188	0.8959	0.6766	0.212
Mof_C 	C 	0.577	0.7855	0.7065	-0.279
Mof_H 	H 	0.606	0.7058	0.7278	0.137
Mof_C 	C 	0.4921	0.7906	0.7054	0.212
Mof_H 	H 	0.4644	0.7158	0.7268	-0.044
Mof_Eu	Eu	0.75788	0.77926	0.28803	2.419
Mof_O 	O 	0.876	0.6429	0.3385	-0.525
Mof_O 	O 	0.6291	0.6801	0.2518	-0.638
Mof_O 	O 	0.8205	0.4638	0.1587	-0.612
Mof_O 	O 	0.8214	0.7011	0.1969	-0.605
Mof_O 	O 	0.6358	0.4577	0.2011	-0.628
Mof_O 	O 	0.7891	0.4703	0.2955	-0.628
Mof_N 	N 	0.0155	0.0655	0.5006	-0.104
Mof_N 	N 	0.2448	0.5398	0.1601	-0.106
Mof_N 	N 	0.2124	0.6366	0.1878	-0.103
Mof_C 	C 	0.8493	0.5077	0.3347	0.424
Mof_C 	C 	0.8902	0.3905	0.3801	-0.204
Mof_C 	C 	0.8527	0.2511	0.3901	0.132
Mof_H 	H 	0.8007	0.231	0.3692	-0.031
Mof_C 	C 	0.8905	0.1427	0.4298	-0.203
Mof_H 	H 	0.8649	0.0495	0.4359	0.095
Mof_C 	C 	0.9686	0.1743	0.4613	0.168
Mof_C 	C 	0.0058	0.3141	0.4537	-0.202
Mof_H 	H 	0.057	0.3346	0.4757	0.102
Mof_C 	C 	0.9673	0.4235	0.4138	0.113
Mof_H 	H 	0.992	0.5182	0.4092	0.002
Mof_C 	C 	0.5971	0.5704	0.2197	0.608
Mof_C 	C 	0.5051	0.5733	0.2032	-0.301
Mof_C 	C 	0.4664	0.4622	0.1638	0.22
Mof_H 	H 	0.498	0.3864	0.1465	-0.03
Mof_C 	C 	0.3826	0.4619	0.1499	-0.291
Mof_H 	H 	0.3574	0.3883	0.1224	0.138
Mof_C 	C 	0.3369	0.5692	0.1765	0.22
Mof_C 	C 	0.3729	0.6857	0.2147	-0.269
Mof_H 	H 	0.3406	0.7609	0.2316	0.135
Mof_C 	C 	0.4591	0.6871	0.2271	0.204
Mof_H 	H 	0.485	0.7654	0.2516	-0.033
Mof_C 	C 	0.8557	0.5854	0.1759	0.578
Mof_C 	C 	0.948	0.5938	0.1727	-0.293
Mof_C 	C 	0.9904	0.484	0.1413	0.196
Mof_H 	H 	0.9615	0.4056	0.119	-0.044
Mof_C 	C 	0.0769	0.4899	0.1427	-0.267
Mof_H 	H 	0.1053	0.4169	0.1208	0.126
Mof_C 	C 	0.1188	0.6041	0.1766	0.214
Mof_C 	C 	0.077	0.7145	0.2065	-0.28
Mof_H 	H 	0.106	0.7942	0.2278	0.137
Mof_C 	C 	0.9921	0.7094	0.2054	0.213
Mof_H 	H 	0.9644	0.7842	0.2268	-0.043
Mof_Eu	Eu	0.74212	0.27926	0.21197	2.415
Mof_O 	O 	0.624	0.1429	0.1615	-0.525
Mof_O 	O 	0.8709	0.1801	0.2482	-0.638
Mof_O 	O 	0.6795	0.9638	0.3413	-0.609
Mof_O 	O 	0.6786	0.2011	0.3031	-0.605
Mof_O 	O 	0.8642	0.9577	0.2989	-0.625
Mof_O 	O 	0.7109	0.9703	0.2045	-0.623
Mof_N 	N 	0.4845	0.5655	0.9994	-0.107
Mof_N 	N 	0.2552	0.0398	0.3399	-0.107
Mof_N 	N 	0.2876	0.1366	0.3122	-0.103
Mof_C 	C 	0.6507	0.0077	0.1653	0.418
Mof_C 	C 	0.6098	0.8905	0.1199	-0.204
Mof_C 	C 	0.6473	0.7511	0.1099	0.134
Mof_H 	H 	0.6993	0.731	0.1308	-0.031
Mof_C 	C 	0.6095	0.6427	0.0702	-0.207
Mof_H 	H 	0.6351	0.5495	0.0641	0.097
Mof_C 	C 	0.5314	0.6743	0.0387	0.175
Mof_C 	C 	0.4942	0.8141	0.0463	-0.212
Mof_H 	H 	0.443	0.8346	0.0243	0.106
Mof_C 	C 	0.5327	0.9235	0.0862	0.123
Mof_H 	H 	0.508	0.0182	0.0908	-0.003
Mof_C 	C 	0.9029	0.0704	0.2803	0.605
Mof_C 	C 	0.9949	0.0733	0.2968	-0.309
Mof_C 	C 	0.0336	0.9622	0.3362	0.227
Mof_H 	H 	0.002	0.8864	0.3535	-0.033
Mof_C 	C 	0.1174	0.9619	0.3501	-0.298
Mof_H 	H 	0.1426	0.8883	0.3776	0.14
Mof_C 	C 	0.1631	0.0692	0.3235	0.224
Mof_C 	C 	0.1271	0.1857	0.2853	-0.274
Mof_H 	H 	0.1594	0.2609	0.2684	0.137
Mof_C 	C 	0.0409	0.1871	0.2729	0.212
Mof_H 	H 	0.015	0.2654	0.2484	-0.036
Mof_C 	C 	0.6443	0.0854	0.3241	0.575
Mof_C 	C 	0.552	0.0938	0.3273	-0.294
Mof_C 	C 	0.5096	0.984	0.3587	0.199
Mof_H 	H 	0.5385	0.9056	0.381	-0.044
Mof_C 	C 	0.4231	0.9899	0.3573	-0.267
Mof_H 	H 	0.3947	0.9169	0.3792	0.126
Mof_C 	C 	0.3812	0.1041	0.3234	0.212
Mof_C 	C 	0.423	0.2145	0.2935	-0.279
Mof_H 	H 	0.394	0.2942	0.2722	0.137
Mof_C 	C 	0.5079	0.2094	0.2946	0.212
Mof_H 	H 	0.5356	0.2842	0.2732	-0.044
_end
