data_functionalizedCrystal
_audit_creation_method	'EQeq! by Chris Wilmer'
_symmetry_space_group_name_H-M	'P1'
_symmetry_Int_Tables_number	1
_symmetry_cell_setting	triclinic
loop_
_symmetry_equiv_pos_as_xyz
  x,y,z
_cell_length_a	20.487
_cell_length_b	20.487
_cell_length_c	20.487
_cell_angle_alpha	90
_cell_angle_beta	90
_cell_angle_gamma	90
loop_
_atom_site_label
_atom_site_type_symbol
_atom_site_fract_x
_atom_site_fract_y
_atom_site_fract_z
_atom_site_charge
Mof_Cd	Cd	0.125	0.625	0.875	0.539
Mof_Cd	Cd	0.375	0.375	0.375	0.539
Mof_Cd	Cd	0.875	0.125	0.625	0.539
Mof_Cd	Cd	0.625	0.875	0.125	0.539
Mof_Cd	Cd	0.02422	0.52422	0.97578	0.444
Mof_Cd	Cd	0.47578	0.47578	0.47578	0.445
Mof_Cd	Cd	0.97578	0.02422	0.52422	0.444
Mof_Cd	Cd	0.52422	0.97578	0.02422	0.444
Mof_Cd	Cd	0.27422	0.27422	0.27422	0.444
Mof_Cd	Cd	0.22578	0.72578	0.77422	0.444
Mof_Cd	Cd	0.77422	0.22578	0.72578	0.444
Mof_Cd	Cd	0.72578	0.77422	0.22578	0.444
Mof_H 	H 	0.075	0.3599	0.802	0.038
Mof_H 	H 	0.2643	0.4557	0.7229	0.077
Mof_H 	H 	0.2084	0.5035	0.809	0.044
Mof_H 	H 	0.425	0.6401	0.302	0.038
Mof_H 	H 	0.2357	0.5443	0.2229	0.078
Mof_H 	H 	0.2916	0.4965	0.309	0.044
Mof_H 	H 	0.925	0.8599	0.698	0.038
Mof_H 	H 	0.7357	0.9557	0.7771	0.078
Mof_H 	H 	0.7916	0.0035	0.691	0.044
Mof_H 	H 	0.575	0.1401	0.198	0.038
Mof_H 	H 	0.7643	0.0443	0.2771	0.078
Mof_H 	H 	0.7084	0.9965	0.191	0.044
Mof_H 	H 	0.802	0.075	0.3599	0.038
Mof_H 	H 	0.7229	0.2643	0.4557	0.077
Mof_H 	H 	0.809	0.2084	0.5035	0.044
Mof_H 	H 	0.302	0.425	0.6401	0.038
Mof_H 	H 	0.2229	0.2357	0.5443	0.078
Mof_H 	H 	0.309	0.2916	0.4965	0.044
Mof_H 	H 	0.698	0.925	0.8599	0.038
Mof_H 	H 	0.7771	0.7357	0.9557	0.078
Mof_H 	H 	0.691	0.7916	0.0035	0.044
Mof_H 	H 	0.198	0.575	0.1401	0.038
Mof_H 	H 	0.2771	0.7643	0.0443	0.078
Mof_H 	H 	0.191	0.7084	0.9965	0.044
Mof_H 	H 	0.3599	0.802	0.075	0.038
Mof_H 	H 	0.4557	0.7229	0.2643	0.077
Mof_H 	H 	0.5035	0.809	0.2084	0.044
Mof_H 	H 	0.6401	0.302	0.425	0.038
Mof_H 	H 	0.5443	0.2229	0.2357	0.078
Mof_H 	H 	0.4965	0.309	0.2916	0.044
Mof_H 	H 	0.8599	0.698	0.925	0.038
Mof_H 	H 	0.9557	0.7771	0.7357	0.078
Mof_H 	H 	0.0035	0.691	0.7916	0.044
Mof_H 	H 	0.1401	0.198	0.575	0.038
Mof_H 	H 	0.0443	0.2771	0.7643	0.078
Mof_H 	H 	0.9965	0.191	0.7084	0.044
Mof_H 	H 	0.1099	0.325	0.448	0.038
Mof_H 	H 	0.2057	0.5143	0.5271	0.077
Mof_H 	H 	0.2535	0.4584	0.441	0.044
Mof_H 	H 	0.3901	0.675	0.948	0.038
Mof_H 	H 	0.2943	0.4857	0.0271	0.077
Mof_H 	H 	0.2465	0.5416	0.941	0.045
Mof_H 	H 	0.6099	0.175	0.552	0.038
Mof_H 	H 	0.7057	0.9857	0.4729	0.077
Mof_H 	H 	0.7535	0.0416	0.559	0.044
Mof_H 	H 	0.8901	0.825	0.052	0.038
Mof_H 	H 	0.7943	0.0143	0.9729	0.076
Mof_H 	H 	0.7465	0.9584	0.059	0.045
Mof_H 	H 	0.825	0.052	0.8901	0.038
Mof_H 	H 	0.0143	0.9729	0.7943	0.076
Mof_H 	H 	0.9584	0.059	0.7465	0.045
Mof_H 	H 	0.175	0.552	0.6099	0.038
Mof_H 	H 	0.9857	0.4729	0.7057	0.077
Mof_H 	H 	0.0416	0.559	0.7535	0.044
Mof_H 	H 	0.675	0.948	0.3901	0.038
Mof_H 	H 	0.4857	0.0271	0.2943	0.077
Mof_H 	H 	0.5416	0.941	0.2465	0.045
Mof_H 	H 	0.325	0.448	0.1099	0.038
Mof_H 	H 	0.5143	0.5271	0.2057	0.077
Mof_H 	H 	0.4584	0.441	0.2535	0.044
Mof_H 	H 	0.552	0.6099	0.175	0.038
Mof_H 	H 	0.4729	0.7057	0.9857	0.077
Mof_H 	H 	0.559	0.7535	0.0416	0.044
Mof_H 	H 	0.052	0.8901	0.825	0.038
Mof_H 	H 	0.9729	0.7943	0.0143	0.076
Mof_H 	H 	0.059	0.7465	0.9584	0.045
Mof_H 	H 	0.448	0.1099	0.325	0.038
Mof_H 	H 	0.5271	0.2057	0.5143	0.077
Mof_H 	H 	0.441	0.2535	0.4584	0.044
Mof_H 	H 	0.948	0.3901	0.675	0.038
Mof_H 	H 	0.0271	0.2943	0.4857	0.077
Mof_H 	H 	0.941	0.2465	0.5416	0.045
Mof_C 	C 	0.1001	0.4679	0.8665	0.365
Mof_C 	C 	0.1361	0.4364	0.814	-0.111
Mof_C 	C 	0.1129	0.3791	0.7861	0.01
Mof_C 	C 	0.1465	0.3505	0.7345	-0.04
Mof_C 	C 	0.2032	0.3792	0.7108	0.057
Mof_C 	C 	0.2264	0.4365	0.7387	-0.11
Mof_C 	C 	0.1929	0.4651	0.7903	0.042
Mof_C 	C 	0.3999	0.5321	0.3665	0.365
Mof_C 	C 	0.3639	0.5636	0.314	-0.111
Mof_C 	C 	0.3871	0.6209	0.2861	0.01
Mof_C 	C 	0.3535	0.6495	0.2345	-0.04
Mof_C 	C 	0.2968	0.6208	0.2108	0.057
Mof_C 	C 	0.2736	0.5635	0.2387	-0.11
Mof_C 	C 	0.3071	0.5349	0.2903	0.042
Mof_C 	C 	0.8999	0.9679	0.6335	0.365
Mof_C 	C 	0.8639	0.9364	0.686	-0.111
Mof_C 	C 	0.8871	0.8791	0.7139	0.01
Mof_C 	C 	0.8535	0.8505	0.7655	-0.04
Mof_C 	C 	0.7968	0.8792	0.7892	0.057
Mof_C 	C 	0.7736	0.9365	0.7613	-0.11
Mof_C 	C 	0.8071	0.9651	0.7097	0.042
Mof_C 	C 	0.6001	0.0321	0.1335	0.365
Mof_C 	C 	0.6361	0.0636	0.186	-0.112
Mof_C 	C 	0.6129	0.1209	0.2139	0.011
Mof_C 	C 	0.6465	0.1495	0.2655	-0.04
Mof_C 	C 	0.7032	0.1208	0.2892	0.057
Mof_C 	C 	0.7264	0.0635	0.2613	-0.111
Mof_C 	C 	0.6929	0.0349	0.2097	0.042
Mof_C 	C 	0.8665	0.1001	0.4679	0.365
Mof_C 	C 	0.814	0.1361	0.4364	-0.111
Mof_C 	C 	0.7861	0.1129	0.3791	0.01
Mof_C 	C 	0.7345	0.1465	0.3505	-0.04
Mof_C 	C 	0.7108	0.2032	0.3792	0.057
Mof_C 	C 	0.7387	0.2264	0.4365	-0.11
Mof_C 	C 	0.7903	0.1929	0.4651	0.042
Mof_C 	C 	0.3665	0.3999	0.5321	0.365
Mof_C 	C 	0.314	0.3639	0.5636	-0.111
Mof_C 	C 	0.2861	0.3871	0.6209	0.01
Mof_C 	C 	0.2345	0.3535	0.6495	-0.04
Mof_C 	C 	0.2108	0.2968	0.6208	0.057
Mof_C 	C 	0.2387	0.2736	0.5635	-0.11
Mof_C 	C 	0.2903	0.3071	0.5349	0.042
Mof_C 	C 	0.6335	0.8999	0.9679	0.365
Mof_C 	C 	0.686	0.8639	0.9364	-0.111
Mof_C 	C 	0.7139	0.8871	0.8791	0.01
Mof_C 	C 	0.7655	0.8535	0.8505	-0.04
Mof_C 	C 	0.7892	0.7968	0.8792	0.057
Mof_C 	C 	0.7613	0.7736	0.9365	-0.11
Mof_C 	C 	0.7097	0.8071	0.9651	0.042
Mof_C 	C 	0.1335	0.6001	0.0321	0.365
Mof_C 	C 	0.186	0.6361	0.0636	-0.112
Mof_C 	C 	0.2139	0.6129	0.1209	0.011
Mof_C 	C 	0.2655	0.6465	0.1495	-0.04
Mof_C 	C 	0.2892	0.7032	0.1208	0.057
Mof_C 	C 	0.2613	0.7264	0.0635	-0.111
Mof_C 	C 	0.2097	0.6929	0.0349	0.042
Mof_C 	C 	0.4679	0.8665	0.1001	0.365
Mof_C 	C 	0.4364	0.814	0.1361	-0.111
Mof_C 	C 	0.3791	0.7861	0.1129	0.01
Mof_C 	C 	0.3505	0.7345	0.1465	-0.04
Mof_C 	C 	0.3792	0.7108	0.2032	0.057
Mof_C 	C 	0.4365	0.7387	0.2264	-0.11
Mof_C 	C 	0.4651	0.7903	0.1929	0.042
Mof_C 	C 	0.5321	0.3665	0.3999	0.365
Mof_C 	C 	0.5636	0.314	0.3639	-0.111
Mof_C 	C 	0.6209	0.2861	0.3871	0.01
Mof_C 	C 	0.6495	0.2345	0.3535	-0.04
Mof_C 	C 	0.6208	0.2108	0.2968	0.057
Mof_C 	C 	0.5635	0.2387	0.2736	-0.11
Mof_C 	C 	0.5349	0.2903	0.3071	0.042
Mof_C 	C 	0.9679	0.6335	0.8999	0.365
Mof_C 	C 	0.9364	0.686	0.8639	-0.111
Mof_C 	C 	0.8791	0.7139	0.8871	0.01
Mof_C 	C 	0.8505	0.7655	0.8535	-0.04
Mof_C 	C 	0.8792	0.7892	0.7968	0.057
Mof_C 	C 	0.9365	0.7613	0.7736	-0.11
Mof_C 	C 	0.9651	0.7097	0.8071	0.042
Mof_C 	C 	0.0321	0.1335	0.6001	0.365
Mof_C 	C 	0.0636	0.186	0.6361	-0.112
Mof_C 	C 	0.1209	0.2139	0.6129	0.011
Mof_C 	C 	0.1495	0.2655	0.6465	-0.04
Mof_C 	C 	0.1208	0.2892	0.7032	0.057
Mof_C 	C 	0.0635	0.2613	0.7264	-0.111
Mof_C 	C 	0.0349	0.2097	0.6929	0.042
Mof_C 	C 	0.2179	0.3501	0.3835	0.365
Mof_C 	C 	0.1864	0.3861	0.436	-0.111
Mof_C 	C 	0.1291	0.3629	0.4639	0.01
Mof_C 	C 	0.1005	0.3965	0.5155	-0.039
Mof_C 	C 	0.1292	0.4532	0.5392	0.056
Mof_C 	C 	0.1865	0.4764	0.5113	-0.11
Mof_C 	C 	0.2151	0.4429	0.4597	0.041
Mof_C 	C 	0.2821	0.6499	0.8835	0.365
Mof_C 	C 	0.3136	0.6139	0.936	-0.111
Mof_C 	C 	0.3709	0.6371	0.9639	0.01
Mof_C 	C 	0.3995	0.6035	0.0155	-0.039
Mof_C 	C 	0.3708	0.5468	0.0392	0.056
Mof_C 	C 	0.3135	0.5236	0.0113	-0.109
Mof_C 	C 	0.2849	0.5571	0.9597	0.041
Mof_C 	C 	0.7179	0.1499	0.6165	0.365
Mof_C 	C 	0.6864	0.1139	0.564	-0.111
Mof_C 	C 	0.6291	0.1371	0.5361	0.01
Mof_C 	C 	0.6005	0.1035	0.4845	-0.039
Mof_C 	C 	0.6292	0.0468	0.4608	0.056
Mof_C 	C 	0.6865	0.0236	0.4887	-0.11
Mof_C 	C 	0.7151	0.0571	0.5403	0.041
Mof_C 	C 	0.7821	0.8501	0.1165	0.364
Mof_C 	C 	0.8136	0.8861	0.064	-0.11
Mof_C 	C 	0.8709	0.8629	0.0361	0.009
Mof_C 	C 	0.8995	0.8965	0.9845	-0.038
Mof_C 	C 	0.8708	0.9532	0.9608	0.055
Mof_C 	C 	0.8135	0.9764	0.9887	-0.108
Mof_C 	C 	0.7849	0.9429	0.0403	0.04
Mof_C 	C 	0.8501	0.1165	0.7821	0.364
Mof_C 	C 	0.8861	0.064	0.8136	-0.11
Mof_C 	C 	0.8629	0.0361	0.8709	0.009
Mof_C 	C 	0.8965	0.9845	0.8995	-0.038
Mof_C 	C 	0.9532	0.9608	0.8708	0.055
Mof_C 	C 	0.9764	0.9887	0.8135	-0.108
Mof_C 	C 	0.9429	0.0403	0.7849	0.04
Mof_C 	C 	0.1499	0.6165	0.7179	0.365
Mof_C 	C 	0.1139	0.564	0.6864	-0.111
Mof_C 	C 	0.1371	0.5361	0.6291	0.01
Mof_C 	C 	0.1035	0.4845	0.6005	-0.039
Mof_C 	C 	0.0468	0.4608	0.6292	0.056
Mof_C 	C 	0.0236	0.4887	0.6865	-0.11
Mof_C 	C 	0.0571	0.5403	0.7151	0.041
Mof_C 	C 	0.6499	0.8835	0.2821	0.365
Mof_C 	C 	0.6139	0.936	0.3136	-0.111
Mof_C 	C 	0.6371	0.9639	0.3709	0.01
Mof_C 	C 	0.6035	0.0155	0.3995	-0.039
Mof_C 	C 	0.5468	0.0392	0.3708	0.056
Mof_C 	C 	0.5236	0.0113	0.3135	-0.109
Mof_C 	C 	0.5571	0.9597	0.2849	0.041
Mof_C 	C 	0.3501	0.3835	0.2179	0.365
Mof_C 	C 	0.3861	0.436	0.1864	-0.111
Mof_C 	C 	0.3629	0.4639	0.1291	0.01
Mof_C 	C 	0.3965	0.5155	0.1005	-0.039
Mof_C 	C 	0.4532	0.5392	0.1292	0.056
Mof_C 	C 	0.4764	0.5113	0.1865	-0.11
Mof_C 	C 	0.4429	0.4597	0.2151	0.041
Mof_C 	C 	0.6165	0.7179	0.1499	0.365
Mof_C 	C 	0.564	0.6864	0.1139	-0.111
Mof_C 	C 	0.5361	0.6291	0.1371	0.01
Mof_C 	C 	0.4845	0.6005	0.1035	-0.039
Mof_C 	C 	0.4608	0.6292	0.0468	0.056
Mof_C 	C 	0.4887	0.6865	0.0236	-0.11
Mof_C 	C 	0.5403	0.7151	0.0571	0.041
Mof_C 	C 	0.1165	0.7821	0.8501	0.364
Mof_C 	C 	0.064	0.8136	0.8861	-0.11
Mof_C 	C 	0.0361	0.8709	0.8629	0.009
Mof_C 	C 	0.9845	0.8995	0.8965	-0.038
Mof_C 	C 	0.9608	0.8708	0.9532	0.055
Mof_C 	C 	0.9887	0.8135	0.9764	-0.108
Mof_C 	C 	0.0403	0.7849	0.9429	0.04
Mof_C 	C 	0.3835	0.2179	0.3501	0.365
Mof_C 	C 	0.436	0.1864	0.3861	-0.111
Mof_C 	C 	0.4639	0.1291	0.3629	0.01
Mof_C 	C 	0.5155	0.1005	0.3965	-0.039
Mof_C 	C 	0.5392	0.1292	0.4532	0.056
Mof_C 	C 	0.5113	0.1865	0.4764	-0.11
Mof_C 	C 	0.4597	0.2151	0.4429	0.041
Mof_C 	C 	0.8835	0.2821	0.6499	0.365
Mof_C 	C 	0.936	0.3136	0.6139	-0.111
Mof_C 	C 	0.9639	0.3709	0.6371	0.01
Mof_C 	C 	0.0155	0.3995	0.6035	-0.039
Mof_C 	C 	0.0392	0.3708	0.5468	0.056
Mof_C 	C 	0.0113	0.3135	0.5236	-0.109
Mof_C 	C 	0.9597	0.2849	0.5571	0.041
Mof_O 	O 	0.0517	0.4524	0.8982	-0.303
Mof_O 	O 	0.1296	0.517	0.8833	-0.307
Mof_O 	O 	0.4483	0.5476	0.3982	-0.303
Mof_O 	O 	0.3704	0.483	0.3833	-0.307
Mof_O 	O 	0.9483	0.9524	0.6018	-0.303
Mof_O 	O 	0.8704	0.017	0.6167	-0.307
Mof_O 	O 	0.5517	0.0476	0.1018	-0.303
Mof_O 	O 	0.6296	0.983	0.1167	-0.307
Mof_O 	O 	0.8982	0.0517	0.4524	-0.303
Mof_O 	O 	0.8833	0.1296	0.517	-0.307
Mof_O 	O 	0.3982	0.4483	0.5476	-0.303
Mof_O 	O 	0.3833	0.3704	0.483	-0.307
Mof_O 	O 	0.6018	0.9483	0.9524	-0.303
Mof_O 	O 	0.6167	0.8704	0.017	-0.307
Mof_O 	O 	0.1018	0.5517	0.0476	-0.303
Mof_O 	O 	0.1167	0.6296	0.983	-0.307
Mof_O 	O 	0.4524	0.8982	0.0517	-0.303
Mof_O 	O 	0.517	0.8833	0.1296	-0.307
Mof_O 	O 	0.5476	0.3982	0.4483	-0.303
Mof_O 	O 	0.483	0.3833	0.3704	-0.307
Mof_O 	O 	0.9524	0.6018	0.9483	-0.303
Mof_O 	O 	0.017	0.6167	0.8704	-0.307
Mof_O 	O 	0.0476	0.1018	0.5517	-0.303
Mof_O 	O 	0.983	0.1167	0.6296	-0.307
Mof_O 	O 	0.2024	0.3017	0.3518	-0.303
Mof_O 	O 	0.267	0.3796	0.3667	-0.307
Mof_O 	O 	0.2976	0.6983	0.8518	-0.303
Mof_O 	O 	0.233	0.6204	0.8667	-0.307
Mof_O 	O 	0.7024	0.1983	0.6482	-0.303
Mof_O 	O 	0.767	0.1204	0.6333	-0.307
Mof_O 	O 	0.7976	0.8017	0.1482	-0.303
Mof_O 	O 	0.733	0.8796	0.1333	-0.306
Mof_O 	O 	0.8017	0.1482	0.7976	-0.303
Mof_O 	O 	0.8796	0.1333	0.733	-0.306
Mof_O 	O 	0.1983	0.6482	0.7024	-0.303
Mof_O 	O 	0.1204	0.6333	0.767	-0.307
Mof_O 	O 	0.6983	0.8518	0.2976	-0.303
Mof_O 	O 	0.6204	0.8667	0.233	-0.307
Mof_O 	O 	0.3017	0.3518	0.2024	-0.303
Mof_O 	O 	0.3796	0.3667	0.267	-0.307
Mof_O 	O 	0.6482	0.7024	0.1983	-0.303
Mof_O 	O 	0.6333	0.767	0.1204	-0.307
Mof_O 	O 	0.1482	0.7976	0.8017	-0.303
Mof_O 	O 	0.1333	0.733	0.8796	-0.306
Mof_O 	O 	0.3518	0.2024	0.3017	-0.303
Mof_O 	O 	0.3667	0.267	0.3796	-0.307
Mof_O 	O 	0.8518	0.2976	0.6983	-0.303
Mof_O 	O 	0.8667	0.233	0.6204	-0.307
_end
