data_functionalizedCrystal
_audit_creation_method	'EQeq! by Chris Wilmer'
_symmetry_space_group_name_H-M	'P1'
_symmetry_Int_Tables_number	1
_symmetry_cell_setting	triclinic
loop_
_symmetry_equiv_pos_as_xyz
  x,y,z
_cell_length_a	17.6352
_cell_length_b	18.5555
_cell_length_c	20.3311
_cell_angle_alpha	90
_cell_angle_beta	90
_cell_angle_gamma	90
loop_
_atom_site_label
_atom_site_type_symbol
_atom_site_fract_x
_atom_site_fract_y
_atom_site_fract_z
_atom_site_charge
Mof_Ag	Ag	0.32277	0.87405	0.85222	0.55
Mof_Si	Si	0.46335	0.67984	0.58176	1.126
Mof_Si	Si	0.9285	0.82584	0.86605	1.147
Mof_N 	N 	0.3623	0.802	0.7643	-0.145
Mof_N 	N 	0.6072	0.4764	0.6426	-0.159
Mof_N 	N 	0.1931	0.8634	0.8606	-0.154
Mof_N 	N 	0.8632	0.6963	0.0562	-0.144
Mof_C 	C 	0.5355	0.4721	0.6246	-0.068
Mof_H 	H 	0.5127	0.4257	0.6233	0.021
Mof_C 	C 	0.4912	0.5308	0.6074	0.106
Mof_H 	H 	0.4399	0.5241	0.5947	-0.042
Mof_C 	C 	0.5218	0.5988	0.609	-0.385
Mof_C 	C 	0.5949	0.6039	0.6279	0.12
Mof_H 	H 	0.6186	0.6499	0.6295	-0.049
Mof_C 	C 	0.6361	0.5428	0.6451	-0.077
Mof_H 	H 	0.6871	0.5486	0.6592	0.022
Mof_C 	C 	0.3875	0.651	0.5237	-0.651
Mof_H 	H 	0.3581	0.6108	0.5431	0.182
Mof_H 	H 	0.3523	0.6916	0.5155	0.181
Mof_C 	C 	0.4244	0.6261	0.4573	0.083
Mof_H 	H 	0.3845	0.6107	0.4268	-0.012
Mof_H 	H 	0.459	0.5858	0.4657	-0.028
Mof_H 	H 	0.4527	0.6663	0.4379	-0.024
Mof_C 	C 	0.5289	0.7467	0.544	-1.151
Mof_H 	H 	0.4999	0.7889	0.5295	0.327
Mof_H 	H 	0.5544	0.7248	0.5061	0.335
Mof_H 	H 	0.5668	0.7615	0.5765	0.328
Mof_C 	C 	0.4213	0.7237	0.6563	-0.4
Mof_C 	C 	0.355	0.7632	0.6528	0.113
Mof_H 	H 	0.3277	0.7646	0.6126	-0.051
Mof_C 	C 	0.3278	0.8004	0.7066	-0.069
Mof_H 	H 	0.2817	0.8264	0.7019	0.029
Mof_C 	C 	0.4268	0.7639	0.7683	-0.075
Mof_H 	H 	0.4529	0.763	0.8091	0.025
Mof_C 	C 	0.4569	0.7262	0.7169	0.121
Mof_H 	H 	0.5034	0.7012	0.7229	-0.049
Mof_C 	C 	0.1624	0.7978	0.858	-0.048
Mof_H 	H 	0.1955	0.7576	0.855	0.024
Mof_C 	C 	0.0854	0.7848	0.8594	0.096
Mof_H 	H 	0.0671	0.7367	0.857	-0.033
Mof_C 	C 	0.0341	0.8424	0.8644	-0.371
Mof_C 	C 	0.067	0.9102	0.869	0.108
Mof_H 	H 	0.0356	0.9514	0.8741	-0.034
Mof_C 	C 	0.1439	0.9185	0.8664	-0.057
Mof_H 	H 	0.1638	0.966	0.8689	0.019
Mof_C 	C 	0.9014	0.7707	0.7941	-0.713
Mof_H 	H 	0.9395	0.7321	0.7879	0.206
Mof_H 	H 	0.852	0.7474	0.8029	0.2
Mof_C 	C 	0.8954	0.8145	0.7305	0.171
Mof_H 	H 	0.8811	0.7826	0.6941	-0.04
Mof_H 	H 	0.9445	0.837	0.7209	-0.045
Mof_H 	H 	0.8568	0.8521	0.7358	-0.052
Mof_C 	C 	0.8766	0.9134	0.8672	-1.143
Mof_H 	H 	0.8882	0.9405	0.827	0.325
Mof_H 	H 	0.8924	0.9415	0.9057	0.328
Mof_H 	H 	0.8219	0.9043	0.8695	0.321
Mof_C 	C 	0.9056	0.7743	0.9432	-0.398
Mof_C 	C 	0.957	0.7461	0.9852	0.116
Mof_H 	H 	0.0095	0.7516	0.976	-0.032
Mof_C 	C 	0.9353	0.7096	0.0413	-0.071
Mof_H 	H 	0.9736	0.6931	0.0706	0.027
Mof_C 	C 	0.8134	0.7225	0.0149	-0.059
Mof_H 	H 	0.7615	0.7148	0.0249	0.028
Mof_C 	C 	0.8295	0.7602	0.9585	0.093
Mof_H 	H 	0.7899	0.7763	0.9305	-0.044
Mof_Ag	Ag	0.17723	0.12595	0.35222	0.55
Mof_Si	Si	0.03665	0.32016	0.08176	1.107
Mof_Si	Si	0.5715	0.17416	0.36605	1.163
Mof_N 	N 	0.1377	0.198	0.2643	-0.146
Mof_N 	N 	0.8928	0.5236	0.1426	-0.16
Mof_N 	N 	0.3069	0.1366	0.3606	-0.152
Mof_N 	N 	0.6368	0.3037	0.5562	-0.142
Mof_C 	C 	0.9645	0.5279	0.1246	-0.062
Mof_H 	H 	0.9873	0.5743	0.1233	0.019
Mof_C 	C 	0.0088	0.4692	0.1074	0.095
Mof_H 	H 	0.0601	0.4759	0.0947	-0.039
Mof_C 	C 	0.9782	0.4012	0.109	-0.373
Mof_C 	C 	0.9051	0.3961	0.1279	0.113
Mof_H 	H 	0.8814	0.3501	0.1295	-0.046
Mof_C 	C 	0.8639	0.4572	0.1451	-0.073
Mof_H 	H 	0.8129	0.4514	0.1592	0.021
Mof_C 	C 	0.1125	0.349	0.0237	-0.644
Mof_H 	H 	0.1419	0.3892	0.0431	0.179
Mof_H 	H 	0.1477	0.3084	0.0155	0.179
Mof_C 	C 	0.0756	0.3739	0.9573	0.079
Mof_H 	H 	0.1155	0.3893	0.9268	-0.01
Mof_H 	H 	0.041	0.4142	0.9657	-0.027
Mof_H 	H 	0.0473	0.3337	0.9379	-0.023
Mof_C 	C 	0.9711	0.2533	0.044	-1.125
Mof_H 	H 	0.0001	0.2111	0.0295	0.317
Mof_H 	H 	0.9456	0.2752	0.0061	0.328
Mof_H 	H 	0.9332	0.2385	0.0765	0.321
Mof_C 	C 	0.0787	0.2763	0.1563	-0.391
Mof_C 	C 	0.145	0.2368	0.1528	0.108
Mof_H 	H 	0.1723	0.2354	0.1126	-0.049
Mof_C 	C 	0.1722	0.1996	0.2066	-0.066
Mof_H 	H 	0.2183	0.1736	0.2019	0.028
Mof_C 	C 	0.0732	0.2361	0.2683	-0.07
Mof_H 	H 	0.0471	0.237	0.3091	0.023
Mof_C 	C 	0.0431	0.2738	0.2169	0.11
Mof_H 	H 	0.9966	0.2988	0.2229	-0.043
Mof_C 	C 	0.3376	0.2022	0.358	-0.05
Mof_H 	H 	0.3045	0.2424	0.355	0.024
Mof_C 	C 	0.4146	0.2152	0.3594	0.1
Mof_H 	H 	0.4329	0.2633	0.357	-0.036
Mof_C 	C 	0.4659	0.1576	0.3644	-0.379
Mof_C 	C 	0.433	0.0898	0.369	0.111
Mof_H 	H 	0.4644	0.0486	0.3741	-0.037
Mof_C 	C 	0.3561	0.0815	0.3664	-0.06
Mof_H 	H 	0.3362	0.034	0.3689	0.019
Mof_C 	C 	0.5986	0.2293	0.2941	-0.719
Mof_H 	H 	0.5605	0.2679	0.2879	0.208
Mof_H 	H 	0.648	0.2526	0.3029	0.202
Mof_C 	C 	0.6046	0.1855	0.2305	0.175
Mof_H 	H 	0.6189	0.2174	0.1941	-0.04
Mof_H 	H 	0.5555	0.163	0.2209	-0.045
Mof_H 	H 	0.6432	0.1479	0.2358	-0.053
Mof_C 	C 	0.6234	0.0866	0.3672	-1.155
Mof_H 	H 	0.6118	0.0595	0.327	0.33
Mof_H 	H 	0.6076	0.0585	0.4057	0.333
Mof_H 	H 	0.6781	0.0957	0.3695	0.326
Mof_C 	C 	0.5944	0.2257	0.4432	-0.407
Mof_C 	C 	0.543	0.2539	0.4852	0.131
Mof_H 	H 	0.4905	0.2484	0.476	-0.039
Mof_C 	C 	0.5647	0.2904	0.5413	-0.079
Mof_H 	H 	0.5264	0.3069	0.5706	0.029
Mof_C 	C 	0.6866	0.2775	0.5149	-0.064
Mof_H 	H 	0.7385	0.2852	0.5249	0.03
Mof_C 	C 	0.6705	0.2398	0.4585	0.1
Mof_H 	H 	0.7101	0.2237	0.4305	-0.046
Mof_Ag	Ag	0.67723	0.37405	0.64778	0.551
Mof_Si	Si	0.53665	0.17984	0.91824	1.127
Mof_Si	Si	0.0715	0.32584	0.63395	1.157
Mof_N 	N 	0.6377	0.302	0.7357	-0.144
Mof_N 	N 	0.3928	0.9764	0.8574	-0.157
Mof_N 	N 	0.8069	0.3634	0.6394	-0.152
Mof_N 	N 	0.1368	0.1963	0.4438	-0.143
Mof_C 	C 	0.4645	0.9721	0.8754	-0.069
Mof_H 	H 	0.4873	0.9257	0.8767	0.021
Mof_C 	C 	0.5088	0.0308	0.8926	0.108
Mof_H 	H 	0.5601	0.0241	0.9053	-0.042
Mof_C 	C 	0.4782	0.0988	0.891	-0.386
Mof_C 	C 	0.4051	0.1039	0.8721	0.121
Mof_H 	H 	0.3814	0.1499	0.8705	-0.049
Mof_C 	C 	0.3639	0.0428	0.8549	-0.077
Mof_H 	H 	0.3129	0.0486	0.8408	0.022
Mof_C 	C 	0.6125	0.151	0.9763	-0.651
Mof_H 	H 	0.6419	0.1108	0.9569	0.182
Mof_H 	H 	0.6477	0.1916	0.9845	0.181
Mof_C 	C 	0.5756	0.1261	0.0427	0.082
Mof_H 	H 	0.6155	0.1107	0.0732	-0.011
Mof_H 	H 	0.541	0.0858	0.0343	-0.028
Mof_H 	H 	0.5473	0.1663	0.0621	-0.024
Mof_C 	C 	0.4711	0.2467	0.956	-1.152
Mof_H 	H 	0.5001	0.2889	0.9705	0.327
Mof_H 	H 	0.4456	0.2248	0.9939	0.336
Mof_H 	H 	0.4332	0.2615	0.9235	0.328
Mof_C 	C 	0.5787	0.2237	0.8437	-0.4
Mof_C 	C 	0.645	0.2632	0.8472	0.113
Mof_H 	H 	0.6723	0.2646	0.8874	-0.051
Mof_C 	C 	0.6722	0.3004	0.7934	-0.069
Mof_H 	H 	0.7183	0.3264	0.7981	0.029
Mof_C 	C 	0.5732	0.2639	0.7317	-0.075
Mof_H 	H 	0.5471	0.263	0.6909	0.025
Mof_C 	C 	0.5431	0.2262	0.7831	0.121
Mof_H 	H 	0.4966	0.2012	0.7771	-0.049
Mof_C 	C 	0.8376	0.2978	0.642	-0.049
Mof_H 	H 	0.8045	0.2576	0.645	0.024
Mof_C 	C 	0.9146	0.2848	0.6406	0.099
Mof_H 	H 	0.9329	0.2367	0.643	-0.034
Mof_C 	C 	0.9659	0.3424	0.6356	-0.376
Mof_C 	C 	0.933	0.4102	0.631	0.11
Mof_H 	H 	0.9644	0.4514	0.6259	-0.037
Mof_C 	C 	0.8561	0.4185	0.6336	-0.059
Mof_H 	H 	0.8362	0.466	0.6311	0.019
Mof_C 	C 	0.0986	0.2707	0.7059	-0.716
Mof_H 	H 	0.0605	0.2321	0.7121	0.207
Mof_H 	H 	0.148	0.2474	0.6971	0.201
Mof_C 	C 	0.1046	0.3145	0.7695	0.173
Mof_H 	H 	0.1189	0.2826	0.8059	-0.04
Mof_H 	H 	0.0555	0.337	0.7791	-0.045
Mof_H 	H 	0.1432	0.3521	0.7642	-0.052
Mof_C 	C 	0.1234	0.4134	0.6328	-1.15
Mof_H 	H 	0.1118	0.4405	0.673	0.328
Mof_H 	H 	0.1076	0.4415	0.5943	0.332
Mof_H 	H 	0.1781	0.4043	0.6305	0.324
Mof_C 	C 	0.0944	0.2743	0.5568	-0.403
Mof_C 	C 	0.043	0.2461	0.5148	0.123
Mof_H 	H 	0.9905	0.2516	0.524	-0.035
Mof_C 	C 	0.0647	0.2096	0.4587	-0.076
Mof_H 	H 	0.0264	0.1931	0.4294	0.028
Mof_C 	C 	0.1866	0.2225	0.4851	-0.063
Mof_H 	H 	0.2385	0.2148	0.4751	0.029
Mof_C 	C 	0.1705	0.2602	0.5415	0.098
Mof_H 	H 	0.2101	0.2763	0.5695	-0.045
Mof_Ag	Ag	0.82277	0.62595	0.14778	0.552
Mof_Si	Si	0.96335	0.82016	0.41824	1.11
Mof_Si	Si	0.4285	0.67416	0.13395	1.163
Mof_N 	N 	0.8623	0.698	0.2357	-0.145
Mof_N 	N 	0.1072	0.0236	0.3574	-0.161
Mof_N 	N 	0.6931	0.6366	0.1394	-0.152
Mof_N 	N 	0.3632	0.8037	0.9438	-0.142
Mof_C 	C 	0.0355	0.0279	0.3754	-0.064
Mof_H 	H 	0.0127	0.0743	0.3767	0.019
Mof_C 	C 	0.9912	0.9692	0.3926	0.095
Mof_H 	H 	0.9399	0.9759	0.4053	-0.039
Mof_C 	C 	0.0218	0.9012	0.391	-0.371
Mof_C 	C 	0.0949	0.8961	0.3721	0.111
Mof_H 	H 	0.1186	0.8501	0.3705	-0.046
Mof_C 	C 	0.1361	0.9572	0.3549	-0.068
Mof_H 	H 	0.1871	0.9514	0.3408	0.02
Mof_C 	C 	0.8875	0.849	0.4763	-0.644
Mof_H 	H 	0.8581	0.8892	0.4569	0.18
Mof_H 	H 	0.8523	0.8084	0.4845	0.179
Mof_C 	C 	0.9244	0.8739	0.5427	0.08
Mof_H 	H 	0.8845	0.8893	0.5732	-0.011
Mof_H 	H 	0.959	0.9142	0.5343	-0.028
Mof_H 	H 	0.9527	0.8337	0.5621	-0.024
Mof_C 	C 	0.0289	0.7533	0.456	-1.134
Mof_H 	H 	0.9999	0.7111	0.4705	0.321
Mof_H 	H 	0.0544	0.7752	0.4939	0.331
Mof_H 	H 	0.0668	0.7385	0.4235	0.323
Mof_C 	C 	0.9213	0.7763	0.3437	-0.393
Mof_C 	C 	0.855	0.7368	0.3472	0.109
Mof_H 	H 	0.8277	0.7354	0.3874	-0.049
Mof_C 	C 	0.8278	0.6996	0.2934	-0.066
Mof_H 	H 	0.7817	0.6736	0.2981	0.028
Mof_C 	C 	0.9268	0.7361	0.2317	-0.071
Mof_H 	H 	0.9529	0.737	0.1909	0.023
Mof_C 	C 	0.9569	0.7738	0.2831	0.112
Mof_H 	H 	0.0034	0.7988	0.2771	-0.044
Mof_C 	C 	0.6624	0.7022	0.142	-0.05
Mof_H 	H 	0.6955	0.7424	0.145	0.024
Mof_C 	C 	0.5854	0.7152	0.1406	0.1
Mof_H 	H 	0.5671	0.7633	0.143	-0.035
Mof_C 	C 	0.5341	0.6576	0.1356	-0.379
Mof_C 	C 	0.567	0.5898	0.131	0.112
Mof_H 	H 	0.5356	0.5486	0.1259	-0.037
Mof_C 	C 	0.6439	0.5815	0.1336	-0.06
Mof_H 	H 	0.6638	0.534	0.1311	0.019
Mof_C 	C 	0.4014	0.7293	0.2059	-0.719
Mof_H 	H 	0.4395	0.7679	0.2121	0.208
Mof_H 	H 	0.352	0.7526	0.1971	0.202
Mof_C 	C 	0.3954	0.6855	0.2695	0.175
Mof_H 	H 	0.3811	0.7174	0.3059	-0.04
Mof_H 	H 	0.4445	0.663	0.2791	-0.045
Mof_H 	H 	0.3568	0.6479	0.2642	-0.053
Mof_C 	C 	0.3766	0.5866	0.1328	-1.154
Mof_H 	H 	0.3882	0.5595	0.173	0.329
Mof_H 	H 	0.3924	0.5585	0.0943	0.333
Mof_H 	H 	0.3219	0.5957	0.1305	0.325
Mof_C 	C 	0.4056	0.7257	0.0568	-0.407
Mof_C 	C 	0.457	0.7539	0.0148	0.131
Mof_H 	H 	0.5095	0.7484	0.024	-0.039
Mof_C 	C 	0.4353	0.7904	0.9587	-0.079
Mof_H 	H 	0.4736	0.8069	0.9294	0.029
Mof_C 	C 	0.3134	0.7775	0.9851	-0.064
Mof_H 	H 	0.2615	0.7852	0.9751	0.03
Mof_C 	C 	0.3295	0.7398	0.0415	0.1
Mof_H 	H 	0.2899	0.7237	0.0695	-0.046
Mof_Ag	Ag	0.83788	0.11989	0.84555	0.552
Mof_Si	Si	0.86096	0.49769	0.8596	0.966
Mof_Si	Si	0.53562	0.02406	0.64114	1.197
Mof_N 	N 	0.8613	0.2441	0.8595	-0.151
Mof_N 	N 	0.0608	0.5888	0.729	-0.147
Mof_N 	N 	0.7377	0.0852	0.7827	-0.15
Mof_N 	N 	0.6337	0.9178	0.4499	-0.152
Mof_C 	C 	0.8318	0.2821	0.9092	-0.048
Mof_H 	H 	0.8093	0.2567	0.9448	0.013
Mof_C 	C 	0.8324	0.3566	0.9113	0.064
Mof_H 	H 	0.8097	0.3809	0.9474	-0.034
Mof_C 	C 	0.866	0.3961	0.8611	-0.325
Mof_C 	C 	0.898	0.3561	0.8108	0.075
Mof_H 	H 	0.9224	0.3803	0.7755	-0.014
Mof_C 	C 	0.8949	0.2811	0.8109	-0.041
Mof_H 	H 	0.9174	0.2554	0.7756	0.024
Mof_C 	C 	0.7647	0.5173	0.8176	-0.523
Mof_H 	H 	0.7674	0.5021	0.7709	0.143
Mof_H 	H 	0.7247	0.4884	0.8393	0.138
Mof_C 	C 	0.7428	0.5983	0.8207	0.024
Mof_H 	H 	0.694	0.6056	0.7988	-0.004
Mof_H 	H 	0.7818	0.6271	0.7987	-0.012
Mof_H 	H 	0.7388	0.6134	0.8668	-0.01
Mof_C 	C 	0.874	0.5324	0.9471	-1.002
Mof_H 	H 	0.9247	0.5193	0.963	0.29
Mof_H 	H 	0.8356	0.5107	0.9758	0.283
Mof_H 	H 	0.8686	0.5849	0.9476	0.291
Mof_C 	C 	0.9404	0.5332	0.8064	-0.335
Mof_C 	C 	0.015	0.5256	0.8242	0.087
Mof_H 	H 	0.0272	0.5014	0.864	-0.03
Mof_C 	C 	0.0725	0.5524	0.7853	-0.059
Mof_H 	H 	0.1234	0.5448	0.7991	0.029
Mof_C 	C 	0.9885	0.597	0.7123	-0.054
Mof_H 	H 	0.977	0.6234	0.6735	0.022
Mof_C 	C 	0.9292	0.5694	0.7484	0.083
Mof_H 	H 	0.8789	0.5756	0.7327	-0.027
Mof_C 	C 	0.7232	0.1204	0.7275	-0.056
Mof_H 	H 	0.7552	0.1598	0.7165	0.028
Mof_C 	C 	0.6645	0.1037	0.6845	0.127
Mof_H 	H 	0.6574	0.1316	0.6458	-0.045
Mof_C 	C 	0.6165	0.0471	0.6978	-0.413
Mof_C 	C 	0.6332	0.0099	0.7554	0.133
Mof_H 	H 	0.6027	0.9695	0.7667	-0.052
Mof_C 	C 	0.6917	0.0287	0.7967	-0.076
Mof_H 	H 	0.6999	0.0017	0.8358	0.019
Mof_C 	C 	0.486	0.1082	0.6173	-0.725
Mof_H 	H 	0.4637	0.1296	0.6575	0.203
Mof_H 	H 	0.5244	0.1425	0.6005	0.208
Mof_C 	C 	0.4226	0.1014	0.5652	0.184
Mof_H 	H 	0.4006	0.1491	0.5567	-0.042
Mof_H 	H 	0.383	0.0689	0.5815	-0.058
Mof_H 	H 	0.4439	0.082	0.5244	-0.05
Mof_C 	C 	0.4708	0.9589	0.6808	-1.212
Mof_H 	H 	0.4989	0.915	0.692	0.343
Mof_H 	H 	0.4295	0.9469	0.6505	0.342
Mof_H 	H 	0.4498	0.9802	0.7209	0.347
Mof_C 	C 	0.5771	0.9811	0.5657	-0.409
Mof_C 	C 	0.5319	0.9419	0.5236	0.121
Mof_H 	H 	0.4798	0.935	0.5338	-0.058
Mof_C 	C 	0.5609	0.913	0.4674	-0.085
Mof_H 	H 	0.5273	0.8879	0.4389	0.023
Mof_C 	C 	0.6777	0.9539	0.4897	-0.065
Mof_H 	H 	0.7297	0.9588	0.4783	0.018
Mof_C 	C 	0.6529	0.9857	0.5479	0.107
Mof_H 	H 	0.6877	0.0105	0.5754	-0.031
Mof_Ag	Ag	0.66212	0.88011	0.34555	0.55
Mof_Si	Si	0.63904	0.50231	0.3596	0.965
Mof_Si	Si	0.96438	0.97594	0.14114	1.183
Mof_N 	N 	0.6387	0.7559	0.3595	-0.151
Mof_N 	N 	0.4392	0.4112	0.229	-0.148
Mof_N 	N 	0.7623	0.9148	0.2827	-0.152
Mof_N 	N 	0.8663	0.0822	0.9499	-0.15
Mof_C 	C 	0.6682	0.7179	0.4092	-0.049
Mof_H 	H 	0.6907	0.7433	0.4448	0.012
Mof_C 	C 	0.6676	0.6434	0.4113	0.064
Mof_H 	H 	0.6903	0.6191	0.4474	-0.034
Mof_C 	C 	0.634	0.6039	0.3611	-0.325
Mof_C 	C 	0.602	0.6439	0.3108	0.075
Mof_H 	H 	0.5776	0.6197	0.2755	-0.014
Mof_C 	C 	0.6051	0.7189	0.3109	-0.041
Mof_H 	H 	0.5826	0.7446	0.2756	0.024
Mof_C 	C 	0.7353	0.4827	0.3176	-0.523
Mof_H 	H 	0.7326	0.4979	0.2709	0.143
Mof_H 	H 	0.7753	0.5116	0.3393	0.138
Mof_C 	C 	0.7572	0.4017	0.3207	0.024
Mof_H 	H 	0.806	0.3944	0.2988	-0.004
Mof_H 	H 	0.7182	0.3729	0.2987	-0.012
Mof_H 	H 	0.7612	0.3866	0.3668	-0.01
Mof_C 	C 	0.626	0.4676	0.4471	-1.002
Mof_H 	H 	0.5753	0.4807	0.463	0.29
Mof_H 	H 	0.6644	0.4893	0.4758	0.284
Mof_H 	H 	0.6314	0.4151	0.4476	0.291
Mof_C 	C 	0.5596	0.4668	0.3064	-0.334
Mof_C 	C 	0.485	0.4744	0.3242	0.085
Mof_H 	H 	0.4728	0.4986	0.364	-0.029
Mof_C 	C 	0.4275	0.4476	0.2853	-0.059
Mof_H 	H 	0.3766	0.4552	0.2991	0.029
Mof_C 	C 	0.5115	0.403	0.2123	-0.052
Mof_H 	H 	0.523	0.3766	0.1735	0.022
Mof_C 	C 	0.5708	0.4306	0.2484	0.081
Mof_H 	H 	0.6211	0.4244	0.2327	-0.027
Mof_C 	C 	0.7768	0.8796	0.2275	-0.054
Mof_H 	H 	0.7448	0.8402	0.2165	0.027
Mof_C 	C 	0.8355	0.8963	0.1845	0.122
Mof_H 	H 	0.8426	0.8684	0.1458	-0.043
Mof_C 	C 	0.8835	0.9529	0.1978	-0.405
Mof_C 	C 	0.8668	0.9901	0.2554	0.118
Mof_H 	H 	0.8973	0.0305	0.2667	-0.043
Mof_C 	C 	0.8083	0.9713	0.2967	-0.07
Mof_H 	H 	0.8001	0.9983	0.3358	0.015
Mof_C 	C 	0.014	0.8918	0.1173	-0.709
Mof_H 	H 	0.0363	0.8704	0.1575	0.199
Mof_H 	H 	0.9756	0.8575	0.1005	0.203
Mof_C 	C 	0.0774	0.8986	0.0652	0.172
Mof_H 	H 	0.0994	0.8509	0.0567	-0.038
Mof_H 	H 	0.117	0.9311	0.0815	-0.053
Mof_H 	H 	0.0561	0.918	0.0244	-0.045
Mof_C 	C 	0.0292	0.0411	0.1808	-1.204
Mof_H 	H 	0.0011	0.085	0.192	0.34
Mof_H 	H 	0.0705	0.0531	0.1505	0.339
Mof_H 	H 	0.0502	0.0198	0.2209	0.344
Mof_C 	C 	0.9229	0.0189	0.0657	-0.408
Mof_C 	C 	0.9681	0.0581	0.0236	0.133
Mof_H 	H 	0.0202	0.065	0.0338	-0.065
Mof_C 	C 	0.9391	0.087	0.9674	-0.09
Mof_H 	H 	0.9727	0.1121	0.9389	0.026
Mof_C 	C 	0.8223	0.0461	0.9897	-0.068
Mof_H 	H 	0.7703	0.0412	0.9783	0.02
Mof_C 	C 	0.8471	0.0143	0.0479	0.116
Mof_H 	H 	0.8123	0.9895	0.0754	-0.037
Mof_Ag	Ag	0.16212	0.61989	0.65445	0.551
Mof_Si	Si	0.13904	0.99769	0.6404	0.986
Mof_Si	Si	0.46438	0.52406	0.85886	1.195
Mof_N 	N 	0.1387	0.7441	0.6405	-0.15
Mof_N 	N 	0.9392	0.0888	0.771	-0.143
Mof_N 	N 	0.2623	0.5852	0.7173	-0.151
Mof_N 	N 	0.3663	0.4178	0.0501	-0.151
Mof_C 	C 	0.1682	0.7821	0.5908	-0.05
Mof_H 	H 	0.1907	0.7567	0.5552	0.013
Mof_C 	C 	0.1676	0.8566	0.5887	0.068
Mof_H 	H 	0.1903	0.8809	0.5526	-0.035
Mof_C 	C 	0.134	0.8961	0.6389	-0.331
Mof_C 	C 	0.102	0.8561	0.6892	0.078
Mof_H 	H 	0.0776	0.8803	0.7245	-0.015
Mof_C 	C 	0.1051	0.7811	0.6891	-0.042
Mof_H 	H 	0.0826	0.7554	0.7244	0.025
Mof_C 	C 	0.2353	0.0173	0.6824	-0.538
Mof_H 	H 	0.2326	0.0021	0.7291	0.146
Mof_H 	H 	0.2753	0.9884	0.6607	0.143
Mof_C 	C 	0.2572	0.0983	0.6793	0.035
Mof_H 	H 	0.306	0.1056	0.7012	-0.007
Mof_H 	H 	0.2182	0.1271	0.7013	-0.015
Mof_H 	H 	0.2612	0.1134	0.6332	-0.013
Mof_C 	C 	0.126	0.0324	0.5529	-1.015
Mof_H 	H 	0.0753	0.0193	0.537	0.293
Mof_H 	H 	0.1644	0.0107	0.5242	0.287
Mof_H 	H 	0.1314	0.0849	0.5524	0.295
Mof_C 	C 	0.0596	0.0332	0.6936	-0.35
Mof_C 	C 	0.985	0.0256	0.6758	0.099
Mof_H 	H 	0.9728	0.0014	0.636	-0.032
Mof_C 	C 	0.9275	0.0524	0.7147	-0.064
Mof_H 	H 	0.8766	0.0448	0.7009	0.031
Mof_C 	C 	0.0115	0.097	0.7877	-0.061
Mof_H 	H 	0.023	0.1234	0.8265	0.024
Mof_C 	C 	0.0708	0.0694	0.7516	0.091
Mof_H 	H 	0.1211	0.0756	0.7673	-0.03
Mof_C 	C 	0.2768	0.6204	0.7725	-0.056
Mof_H 	H 	0.2448	0.6598	0.7835	0.027
Mof_C 	C 	0.3355	0.6037	0.8155	0.126
Mof_H 	H 	0.3426	0.6316	0.8542	-0.044
Mof_C 	C 	0.3835	0.5471	0.8022	-0.411
Mof_C 	C 	0.3668	0.5099	0.7446	0.128
Mof_H 	H 	0.3973	0.4695	0.7333	-0.049
Mof_C 	C 	0.3083	0.5287	0.7033	-0.074
Mof_H 	H 	0.3001	0.5017	0.6642	0.018
Mof_C 	C 	0.514	0.6082	0.8827	-0.723
Mof_H 	H 	0.5363	0.6296	0.8425	0.203
Mof_H 	H 	0.4756	0.6425	0.8995	0.208
Mof_C 	C 	0.5774	0.6014	0.9348	0.183
Mof_H 	H 	0.5994	0.6491	0.9433	-0.042
Mof_H 	H 	0.617	0.5689	0.9185	-0.057
Mof_H 	H 	0.5561	0.582	0.9756	-0.049
Mof_C 	C 	0.5292	0.4589	0.8192	-1.21
Mof_H 	H 	0.5011	0.415	0.808	0.343
Mof_H 	H 	0.5705	0.4469	0.8495	0.342
Mof_H 	H 	0.5502	0.4802	0.7791	0.347
Mof_C 	C 	0.4229	0.4811	0.9343	-0.41
Mof_C 	C 	0.4681	0.4419	0.9764	0.122
Mof_H 	H 	0.5202	0.435	0.9662	-0.058
Mof_C 	C 	0.4391	0.413	0.0326	-0.087
Mof_H 	H 	0.4727	0.3879	0.0611	0.024
Mof_C 	C 	0.3223	0.4539	0.0103	-0.068
Mof_H 	H 	0.2703	0.4588	0.0217	0.019
Mof_C 	C 	0.3471	0.4857	0.9521	0.112
Mof_H 	H 	0.3123	0.5105	0.9246	-0.034
Mof_Ag	Ag	0.33788	0.38011	0.15445	0.55
Mof_Si	Si	0.36096	0.00231	0.1404	0.953
Mof_Si	Si	0.03562	0.47594	0.35886	1.189
Mof_N 	N 	0.3613	0.2559	0.1405	-0.151
Mof_N 	N 	0.5608	0.9112	0.271	-0.148
Mof_N 	N 	0.2377	0.4148	0.2173	-0.151
Mof_N 	N 	0.1337	0.5822	0.5501	-0.151
Mof_C 	C 	0.3318	0.2179	0.0908	-0.048
Mof_H 	H 	0.3093	0.2433	0.0552	0.012
Mof_C 	C 	0.3324	0.1434	0.0887	0.062
Mof_H 	H 	0.3097	0.1191	0.0526	-0.034
Mof_C 	C 	0.366	0.1039	0.1389	-0.322
Mof_C 	C 	0.398	0.1439	0.1892	0.072
Mof_H 	H 	0.4224	0.1197	0.2245	-0.013
Mof_C 	C 	0.3949	0.2189	0.1891	-0.04
Mof_H 	H 	0.4174	0.2446	0.2244	0.024
Mof_C 	C 	0.2647	0.9827	0.1824	-0.509
Mof_H 	H 	0.2674	0.9979	0.2291	0.14
Mof_H 	H 	0.2247	0.0116	0.1607	0.133
Mof_C 	C 	0.2428	0.9017	0.1793	0.014
Mof_H 	H 	0.194	0.8944	0.2012	-0.001
Mof_H 	H 	0.2818	0.8729	0.2013	-0.009
Mof_H 	H 	0.2388	0.8866	0.1332	-0.007
Mof_C 	C 	0.374	0.9676	0.0529	-0.994
Mof_H 	H 	0.4247	0.9807	0.037	0.289
Mof_H 	H 	0.3356	0.9893	0.0242	0.282
Mof_H 	H 	0.3686	0.9151	0.0524	0.289
Mof_C 	C 	0.4404	0.9668	0.1936	-0.328
Mof_C 	C 	0.515	0.9744	0.1758	0.082
Mof_H 	H 	0.5272	0.9986	0.136	-0.028
Mof_C 	C 	0.5725	0.9476	0.2147	-0.057
Mof_H 	H 	0.6234	0.9552	0.2009	0.028
Mof_C 	C 	0.4885	0.903	0.2877	-0.05
Mof_H 	H 	0.477	0.8766	0.3265	0.022
Mof_C 	C 	0.4292	0.9306	0.2516	0.078
Mof_H 	H 	0.3789	0.9244	0.2673	-0.025
Mof_C 	C 	0.2232	0.3796	0.2725	-0.055
Mof_H 	H 	0.2552	0.3402	0.2835	0.027
Mof_C 	C 	0.1645	0.3963	0.3155	0.125
Mof_H 	H 	0.1574	0.3684	0.3542	-0.044
Mof_C 	C 	0.1165	0.4529	0.3022	-0.41
Mof_C 	C 	0.1332	0.4901	0.2446	0.127
Mof_H 	H 	0.1027	0.5305	0.2333	-0.049
Mof_C 	C 	0.1917	0.4713	0.2033	-0.074
Mof_H 	H 	0.1999	0.4983	0.1642	0.017
Mof_C 	C 	0.986	0.3918	0.3827	-0.716
Mof_H 	H 	0.9637	0.3704	0.3425	0.201
Mof_H 	H 	0.0244	0.3575	0.3995	0.205
Mof_C 	C 	0.9226	0.3986	0.4348	0.177
Mof_H 	H 	0.9006	0.3509	0.4433	-0.04
Mof_H 	H 	0.883	0.4311	0.4185	-0.056
Mof_H 	H 	0.9439	0.418	0.4756	-0.047
Mof_C 	C 	0.9708	0.5411	0.3192	-1.206
Mof_H 	H 	0.9989	0.585	0.308	0.341
Mof_H 	H 	0.9295	0.5531	0.3495	0.34
Mof_H 	H 	0.9498	0.5198	0.2791	0.346
Mof_C 	C 	0.0771	0.5189	0.4343	-0.408
Mof_C 	C 	0.0319	0.5581	0.4764	0.121
Mof_H 	H 	0.9798	0.565	0.4662	-0.058
Mof_C 	C 	0.0609	0.587	0.5326	-0.085
Mof_H 	H 	0.0273	0.6121	0.5611	0.024
Mof_C 	C 	0.1777	0.5461	0.5103	-0.066
Mof_H 	H 	0.2297	0.5412	0.5217	0.018
Mof_C 	C 	0.1529	0.5143	0.4521	0.11
Mof_H 	H 	0.1877	0.4895	0.4246	-0.034
_end
