data_functionalizedCrystal
_audit_creation_method	'EQeq! by Chris Wilmer'
_symmetry_space_group_name_H-M	'P1'
_symmetry_Int_Tables_number	1
_symmetry_cell_setting	triclinic
loop_
_symmetry_equiv_pos_as_xyz
  x,y,z
_cell_length_a	15.0883
_cell_length_b	17.531
_cell_length_c	17.531
_cell_angle_alpha	90
_cell_angle_beta	90
_cell_angle_gamma	90
loop_
_atom_site_label
_atom_site_type_symbol
_atom_site_fract_x
_atom_site_fract_y
_atom_site_fract_z
_atom_site_charge
Mof_Co	Co	0.52995	0.5995	0.64081	1.178
Mof_Co	Co	0.97005	0.64081	0.5995	1.178
Mof_Co	Co	0.47005	0.35919	0.5995	1.178
Mof_Co	Co	0.75	0.64879	0.64879	1.175
Mof_Co	Co	0.25	0.64879	0.35121	1.175
Mof_Co	Co	0.52995	0.4005	0.35919	1.178
Mof_Co	Co	0.02995	0.4005	0.64081	1.178
Mof_Co	Co	0.47005	0.64081	0.4005	1.178
Mof_Co	Co	0.02995	0.5995	0.35919	1.178
Mof_Co	Co	0.97005	0.35919	0.4005	1.178
Mof_Co	Co	0.75	0.35121	0.35121	1.175
Mof_Co	Co	0.25	0.35121	0.64879	1.175
Mof_H 	H 	0.593	0.3355	0.0837	0.077
Mof_H 	H 	0.5829	0.3905	0.9605	0.056
Mof_H 	H 	0.677	0.9831	0.3771	0.056
Mof_H 	H 	0.9535	0.1671	0.6284	0.027
Mof_H 	H 	0.8424	0.2384	0.5159	0.188
Mof_H 	H 	0.2589	0.4974	0.742	0.18
Mof_H 	H 	0.2203	0.4187	0.2722	0.202
Mof_H 	H 	0.7146	0.8859	0.6368	0.029
Mof_H 	H 	0.3424	0.2384	0.4841	0.188
Mof_H 	H 	0.4171	0.9605	0.6095	0.056
Mof_H 	H 	0.7411	0.258	0.4974	0.18
Mof_H 	H 	0.2854	0.3632	0.8859	0.029
Mof_H 	H 	0.7203	0.5813	0.2722	0.202
Mof_H 	H 	0.7854	0.3632	0.1141	0.029
Mof_H 	H 	0.1576	0.5159	0.7616	0.188
Mof_H 	H 	0.907	0.9163	0.6645	0.077
Mof_H 	H 	0.1576	0.4841	0.2384	0.188
Mof_H 	H 	0.177	0.9831	0.6229	0.056
Mof_H 	H 	0.593	0.6645	0.9163	0.077
Mof_H 	H 	0.7146	0.1141	0.3632	0.029
Mof_H 	H 	0.0465	0.3716	0.1671	0.027
Mof_H 	H 	0.7797	0.2722	0.5813	0.202
Mof_H 	H 	0.7706	0.6098	0.4842	-0.029
Mof_H 	H 	0.4017	0.5383	0.7569	-0.015
Mof_H 	H 	0.9017	0.5383	0.2431	-0.015
Mof_H 	H 	0.6222	0.3489	0.2112	-0.02
Mof_H 	H 	0.6576	0.4841	0.7616	0.188
Mof_H 	H 	0.4017	0.4617	0.2431	-0.015
Mof_H 	H 	0.823	0.3771	0.9831	0.056
Mof_H 	H 	0.5983	0.7569	0.4617	-0.015
Mof_H 	H 	0.8424	0.7616	0.4841	0.188
Mof_H 	H 	0.2706	0.6098	0.5158	-0.029
Mof_H 	H 	0.0983	0.7569	0.5383	-0.015
Mof_H 	H 	0.177	0.0169	0.3771	0.056
Mof_H 	H 	0.5465	0.3716	0.8329	0.027
Mof_H 	H 	0.1316	0.1147	0.4557	0.074
Mof_H 	H 	0.8778	0.7888	0.6511	-0.02
Mof_H 	H 	0.823	0.6229	0.0169	0.056
Mof_H 	H 	0.2706	0.3902	0.4842	-0.029
Mof_H 	H 	0.3684	0.4557	0.1147	0.074
Mof_H 	H 	0.4535	0.8329	0.6284	0.027
Mof_H 	H 	0.9171	0.9605	0.3905	0.056
Mof_H 	H 	0.6316	0.8853	0.4557	0.074
Mof_H 	H 	0.323	0.3771	0.0169	0.056
Mof_H 	H 	0.2146	0.8859	0.3632	0.029
Mof_H 	H 	0.323	0.6229	0.9831	0.056
Mof_H 	H 	0.093	0.6645	0.0837	0.077
Mof_H 	H 	0.7203	0.4187	0.7278	0.202
Mof_H 	H 	0.7294	0.5158	0.3902	-0.029
Mof_H 	H 	0.0465	0.6284	0.8329	0.027
Mof_H 	H 	0.2797	0.2722	0.4187	0.202
Mof_H 	H 	0.1316	0.8853	0.5443	0.074
Mof_H 	H 	0.0829	0.3905	0.0395	0.056
Mof_H 	H 	0.2203	0.5813	0.7278	0.202
Mof_H 	H 	0.9535	0.8329	0.3716	0.027
Mof_H 	H 	0.7589	0.4974	0.258	0.18
Mof_H 	H 	0.5465	0.6284	0.1671	0.027
Mof_H 	H 	0.7589	0.5026	0.742	0.18
Mof_H 	H 	0.3778	0.7888	0.3489	-0.02
Mof_H 	H 	0.2146	0.1141	0.6368	0.029
Mof_H 	H 	0.5829	0.6095	0.0395	0.056
Mof_H 	H 	0.0829	0.6095	0.9605	0.056
Mof_H 	H 	0.6222	0.6511	0.7888	-0.02
Mof_H 	H 	0.407	0.0837	0.6645	0.077
Mof_H 	H 	0.2797	0.7278	0.5813	0.202
Mof_H 	H 	0.5983	0.2431	0.5383	-0.015
Mof_H 	H 	0.9017	0.4617	0.7569	-0.015
Mof_H 	H 	0.8778	0.2112	0.3489	-0.02
Mof_H 	H 	0.2854	0.6368	0.1141	0.029
Mof_H 	H 	0.7854	0.6368	0.8859	0.029
Mof_H 	H 	0.3778	0.2112	0.6511	-0.02
Mof_H 	H 	0.7411	0.742	0.5026	0.18
Mof_H 	H 	0.907	0.0837	0.3355	0.077
Mof_H 	H 	0.2589	0.5026	0.258	0.18
Mof_H 	H 	0.407	0.9163	0.3355	0.077
Mof_H 	H 	0.093	0.3355	0.9163	0.077
Mof_H 	H 	0.3424	0.7616	0.5159	0.188
Mof_H 	H 	0.4535	0.1671	0.3716	0.027
Mof_H 	H 	0.677	0.0169	0.6229	0.056
Mof_H 	H 	0.2411	0.742	0.4974	0.18
Mof_H 	H 	0.8684	0.5443	0.1147	0.074
Mof_H 	H 	0.4171	0.0395	0.3905	0.056
Mof_H 	H 	0.1222	0.6511	0.2112	-0.02
Mof_H 	H 	0.2411	0.258	0.5026	0.18
Mof_H 	H 	0.3684	0.5443	0.8853	0.074
Mof_H 	H 	0.0983	0.2431	0.4617	-0.015
Mof_H 	H 	0.6576	0.5159	0.2384	0.188
Mof_H 	H 	0.7797	0.7278	0.4187	0.202
Mof_H 	H 	0.1222	0.3489	0.7888	-0.02
Mof_H 	H 	0.9171	0.0395	0.6095	0.056
Mof_H 	H 	0.7706	0.3902	0.5158	-0.029
Mof_H 	H 	0.2294	0.4842	0.3902	-0.029
Mof_H 	H 	0.7294	0.4842	0.6098	-0.029
Mof_H 	H 	0.2294	0.5158	0.6098	-0.029
Mof_H 	H 	0.8684	0.4557	0.8853	0.074
Mof_H 	H 	0.6316	0.1147	0.5443	0.074
Mof_C 	C 	0.0687	0.3696	0.8084	0.084
Mof_C 	C 	0.0226	0.6156	0.9461	-0.092
Mof_C 	C 	0.9993	0.13	0.6262	0.032
Mof_C 	C 	0.7934	0.7265	0.4733	-0.567
Mof_C 	C 	0.1316	0.0207	0.6228	-0.088
Mof_C 	C 	0.2934	0.7265	0.5267	-0.567
Mof_C 	C 	0.9561	0.61378	0.00141	0.022
Mof_C 	C 	0.7934	0.2735	0.5267	-0.567
Mof_C 	C 	0.9476	0.1151	0.3624	-0.142
Mof_C 	C 	0.8202	0.3542	0.50389	0.18
Mof_C 	C 	0.6316	0.0207	0.3772	-0.088
Mof_C 	C 	0.4313	0.8084	0.3696	0.084
Mof_C 	C 	0.0007	0.6262	0.87	0.032
Mof_C 	C 	0.9774	0.9461	0.3844	-0.092
Mof_C 	C 	0.0524	0.6376	0.1151	-0.142
Mof_C 	C 	0.09771	0.55159	0.62415	0.221
Mof_C 	C 	0.9209	0.5679	0.13322	-0.139
Mof_C 	C 	0.0524	0.3624	0.8849	-0.142
Mof_C 	C 	0.7066	0.4733	0.7265	-0.567
Mof_C 	C 	0.4209	0.4321	0.13322	-0.139
Mof_C 	C 	0.09771	0.44841	0.37585	0.221
Mof_C 	C 	0.4561	0.38622	0.00141	0.022
Mof_C 	C 	0.5869	0.15294	0.3664	-0.115
Mof_C 	C 	0.6544	0.90099	0.632	0.023
Mof_C 	C 	0.8902	0.35661	0.23523	0.369
Mof_C 	C 	0.9561	0.38622	0.99859	0.022
Mof_C 	C 	0.8902	0.64339	0.76477	0.369
Mof_C 	C 	0.3456	0.368	0.90099	0.023
Mof_C 	C 	0.9774	0.0539	0.6156	-0.092
Mof_C 	C 	0.59771	0.55159	0.37585	0.221
Mof_C 	C 	0.5791	0.86678	0.4321	-0.139
Mof_C 	C 	0.0226	0.3844	0.0539	-0.092
Mof_C 	C 	0.9131	0.6336	0.84706	-0.115
Mof_C 	C 	0.5226	0.6156	0.0539	-0.092
Mof_C 	C 	0.4774	0.0539	0.3844	-0.092
Mof_C 	C 	0.3684	0.3772	0.9793	-0.088
Mof_C 	C 	0.40229	0.37585	0.44841	0.221
Mof_C 	C 	0.0687	0.6304	0.1916	0.084
Mof_C 	C 	0.4131	0.3664	0.84706	-0.115
Mof_C 	C 	0.3202	0.3542	0.49611	0.18
Mof_C 	C 	0.7066	0.5267	0.2735	-0.567
Mof_C 	C 	0.6316	0.9793	0.6228	-0.088
Mof_C 	C 	0.0007	0.3738	0.13	0.032
Mof_C 	C 	0.5231	0.08342	0.60557	0.07
Mof_C 	C 	0.4561	0.61378	0.99859	0.022
Mof_C 	C 	0.2066	0.4733	0.2735	-0.567
Mof_C 	C 	0.4476	0.1151	0.6376	-0.142
Mof_C 	C 	0.9769	0.39443	0.91658	0.07
Mof_C 	C 	0.9993	0.87	0.3738	0.032
Mof_C 	C 	0.4413	0.56447	0.78994	0.083
Mof_C 	C 	0.5587	0.78994	0.43553	0.083
Mof_C 	C 	0.1316	0.9793	0.3772	-0.088
Mof_C 	C 	0.2066	0.5267	0.7265	-0.567
Mof_C 	C 	0.0791	0.86678	0.5679	-0.139
Mof_C 	C 	0.9209	0.4321	0.86678	-0.139
Mof_C 	C 	0.0439	0.99859	0.61378	0.022
Mof_C 	C 	0.5439	0.99859	0.38622	0.022
Mof_C 	C 	0.5524	0.6376	0.8849	-0.142
Mof_C 	C 	0.5791	0.13322	0.5679	-0.139
Mof_C 	C 	0.0439	0.00141	0.38622	0.022
Mof_C 	C 	0.59771	0.44841	0.62415	0.221
Mof_C 	C 	0.4993	0.87	0.6262	0.031
Mof_C 	C 	0.4774	0.9461	0.6156	-0.092
Mof_C 	C 	0.1544	0.90099	0.368	0.023
Mof_C 	C 	0.0587	0.78994	0.56447	0.083
Mof_C 	C 	0.3902	0.64339	0.23523	0.369
Mof_C 	C 	0.5524	0.3624	0.1151	-0.142
Mof_C 	C 	0.9413	0.43553	0.78994	0.083
Mof_C 	C 	0.4131	0.6336	0.15294	-0.115
Mof_C 	C 	0.5687	0.6304	0.8084	0.084
Mof_C 	C 	0.5439	0.00141	0.61378	0.022
Mof_C 	C 	0.90229	0.62415	0.44841	0.221
Mof_C 	C 	0.2934	0.2735	0.4733	-0.567
Mof_C 	C 	0.8684	0.3772	0.0207	-0.088
Mof_C 	C 	0.0791	0.13322	0.4321	-0.139
Mof_C 	C 	0.4769	0.39443	0.08342	0.07
Mof_C 	C 	0.9313	0.8084	0.6304	0.084
Mof_C 	C 	0.8684	0.6228	0.9793	-0.088
Mof_C 	C 	0.1544	0.09901	0.632	0.023
Mof_C 	C 	0.0231	0.08342	0.39443	0.07
Mof_C 	C 	0.1798	0.49611	0.3542	0.18
Mof_C 	C 	0.90229	0.37585	0.55159	0.221
Mof_C 	C 	0.40229	0.62415	0.55159	0.221
Mof_C 	C 	0.3902	0.35661	0.76477	0.369
Mof_C 	C 	0.1098	0.76477	0.35661	0.369
Mof_C 	C 	0.4413	0.43553	0.21006	0.083
Mof_C 	C 	0.5007	0.3738	0.87	0.031
Mof_C 	C 	0.0587	0.21006	0.43553	0.083
Mof_C 	C 	0.6098	0.76477	0.64339	0.369
Mof_C 	C 	0.0869	0.15294	0.6336	-0.115
Mof_C 	C 	0.5226	0.3844	0.9461	-0.092
Mof_C 	C 	0.9413	0.56447	0.21006	0.083
Mof_C 	C 	0.4313	0.1916	0.6304	0.084
Mof_C 	C 	0.9476	0.8849	0.6376	-0.142
Mof_C 	C 	0.5869	0.84706	0.6336	-0.115
Mof_C 	C 	0.8202	0.6458	0.49611	0.18
Mof_C 	C 	0.4769	0.60557	0.91658	0.07
Mof_C 	C 	0.4476	0.8849	0.3624	-0.142
Mof_C 	C 	0.3202	0.6458	0.50389	0.18
Mof_C 	C 	0.6798	0.49611	0.6458	0.18
Mof_C 	C 	0.0869	0.84706	0.3664	-0.115
Mof_C 	C 	0.5231	0.91658	0.39443	0.07
Mof_C 	C 	0.6098	0.23523	0.35661	0.369
Mof_C 	C 	0.1098	0.23523	0.64339	0.369
Mof_C 	C 	0.5687	0.3696	0.1916	0.084
Mof_C 	C 	0.0231	0.91658	0.60557	0.07
Mof_C 	C 	0.6544	0.09901	0.368	0.023
Mof_C 	C 	0.4209	0.5679	0.86678	-0.139
Mof_C 	C 	0.3684	0.6228	0.0207	-0.088
Mof_C 	C 	0.8456	0.368	0.09901	0.023
Mof_C 	C 	0.9131	0.3664	0.15294	-0.115
Mof_C 	C 	0.3456	0.632	0.09901	0.023
Mof_C 	C 	0.1798	0.50389	0.6458	0.18
Mof_C 	C 	0.6798	0.50389	0.3542	0.18
Mof_C 	C 	0.9313	0.1916	0.3696	0.084
Mof_C 	C 	0.4993	0.13	0.3738	0.031
Mof_C 	C 	0.9769	0.60557	0.08342	0.07
Mof_C 	C 	0.5007	0.6262	0.13	0.031
Mof_C 	C 	0.5587	0.21006	0.56447	0.083
Mof_C 	C 	0.8456	0.632	0.90099	0.023
Mof_N 	N 	0.51358	0.40399	0.24015	-0.241
Mof_N 	N 	0.48642	0.24015	0.59601	-0.241
Mof_N 	N 	0.48642	0.75985	0.40399	-0.241
Mof_N 	N 	0.01358	0.59601	0.24015	-0.241
Mof_N 	N 	0.98642	0.24015	0.40399	-0.241
Mof_N 	N 	0.98642	0.75985	0.59601	-0.241
Mof_N 	N 	0.51358	0.59601	0.75985	-0.241
Mof_N 	N 	0.01358	0.40399	0.75985	-0.241
Mof_O 	O 	0.02308	0.51929	0.6224	-0.459
Mof_O 	O 	0.80828	0.64939	0.749	-0.465
Mof_O 	O 	0.65839	0.4258	0.35946	-0.56
Mof_O 	O 	0.65839	0.5742	0.64054	-0.56
Mof_O 	O 	0.39423	0.38737	0.37791	-0.37
Mof_O 	O 	0.84161	0.35946	0.4258	-0.56
Mof_O 	O 	0.10577	0.37791	0.38737	-0.37
Mof_O 	O 	0.80828	0.35061	0.251	-0.465
Mof_O 	O 	0.15839	0.5742	0.35946	-0.56
Mof_O 	O 	0.19172	0.749	0.35061	-0.465
Mof_O 	O 	0.84161	0.64054	0.5742	-0.56
Mof_O 	O 	0.30828	0.35061	0.749	-0.465
Mof_O 	O 	0.52308	0.51929	0.3776	-0.459
Mof_O 	O 	0.52308	0.48071	0.6224	-0.459
Mof_O 	O 	0.34161	0.64054	0.4258	-0.56
Mof_O 	O 	0.47692	0.6224	0.51929	-0.459
Mof_O 	O 	0.54659	0.28276	0.3563	-0.436
Mof_O 	O 	0.97692	0.3776	0.51929	-0.459
Mof_O 	O 	0.15839	0.4258	0.64054	-0.56
Mof_O 	O 	0.89423	0.38737	0.62209	-0.37
Mof_O 	O 	0.54659	0.71724	0.6437	-0.436
Mof_O 	O 	0.69172	0.251	0.35061	-0.465
Mof_O 	O 	0.47692	0.3776	0.48071	-0.459
Mof_O 	O 	0.10577	0.62209	0.61263	-0.37
Mof_O 	O 	0.97692	0.6224	0.48071	-0.459
Mof_O 	O 	0.89423	0.61263	0.37791	-0.37
Mof_O 	O 	0.19172	0.251	0.64939	-0.465
Mof_O 	O 	0.04659	0.71724	0.3563	-0.436
Mof_O 	O 	0.04659	0.28276	0.6437	-0.436
Mof_O 	O 	0.60577	0.37791	0.61263	-0.37
Mof_O 	O 	0.95341	0.3563	0.28276	-0.436
Mof_O 	O 	0.45341	0.6437	0.28276	-0.436
Mof_O 	O 	0.95341	0.6437	0.71724	-0.436
Mof_O 	O 	0.34161	0.35946	0.5742	-0.56
Mof_O 	O 	0.02308	0.48071	0.3776	-0.459
Mof_O 	O 	0.30828	0.64939	0.251	-0.465
Mof_O 	O 	0.45341	0.3563	0.71724	-0.436
Mof_O 	O 	0.69172	0.749	0.64939	-0.465
Mof_O 	O 	0.60577	0.62209	0.38737	-0.37
Mof_O 	O 	0.39423	0.61263	0.62209	-0.37
_end
