data_functionalizedCrystal
_audit_creation_method	'EQeq! by Chris Wilmer'
_symmetry_space_group_name_H-M	'P1'
_symmetry_Int_Tables_number	1
_symmetry_cell_setting	triclinic
loop_
_symmetry_equiv_pos_as_xyz
  x,y,z
_cell_length_a	22.858
_cell_length_b	22.858
_cell_length_c	14.042
_cell_angle_alpha	90
_cell_angle_beta	90
_cell_angle_gamma	120
loop_
_atom_site_label
_atom_site_type_symbol
_atom_site_fract_x
_atom_site_fract_y
_atom_site_fract_z
_atom_site_charge
Mof_O 	O 	0.2231	0.6604	0.3994	-0.711
Mof_C 	C 	0.1583	0.5306	0.2213	-0.002
Mof_H 	H 	0.1848	0.5101	0.2345	0.025
Mof_C 	C 	0.1154	0.51	0.1434	0.002
Mof_H 	H 	0.1119	0.475	0.1032	0.009
Mof_C 	C 	0.0808	0.4934	0.1818	-0.007
Mof_H 	H 	0.0519	0.4466	0.1691	0.011
Mof_C 	C 	0.1241	0.5132	0.2586	0.002
Mof_H 	H 	0.1276	0.4806	0.2963	0.018
Mof_O 	O 	0.3396	0.5627	0.3994	-0.712
Mof_C 	C 	0.4694	0.6277	0.2213	-0.004
Mof_H 	H 	0.4899	0.6747	0.2345	0.025
Mof_C 	C 	0.49	0.6054	0.1434	0
Mof_H 	H 	0.525	0.6369	0.1032	0.009
Mof_C 	C 	0.5066	0.5874	0.1818	-0.006
Mof_H 	H 	0.5534	0.6053	0.1691	0.014
Mof_C 	C 	0.4868	0.6109	0.2586	0.003
Mof_H 	H 	0.5194	0.647	0.2963	0.019
Mof_O 	O 	0.4373	0.7769	0.3994	-0.712
Mof_C 	C 	0.3723	0.8417	0.2213	-0.005
Mof_H 	H 	0.3253	0.8152	0.2345	0.025
Mof_C 	C 	0.3946	0.8846	0.1434	-0.001
Mof_H 	H 	0.3631	0.8881	0.1032	0.01
Mof_C 	C 	0.4126	0.9192	0.1818	-0.005
Mof_H 	H 	0.3947	0.9481	0.1691	0.015
Mof_C 	C 	0.3891	0.8759	0.2586	0.005
Mof_H 	H 	0.353	0.8724	0.2963	0.019
Mof_O 	O 	0.7769	0.3396	0.3994	-0.712
Mof_C 	C 	0.8417	0.4694	0.2213	-0.005
Mof_H 	H 	0.8152	0.4899	0.2345	0.026
Mof_C 	C 	0.8846	0.49	0.1434	-0.001
Mof_H 	H 	0.8881	0.525	0.1032	0.01
Mof_C 	C 	0.9192	0.5066	0.1818	-0.005
Mof_H 	H 	0.9481	0.5534	0.1691	0.016
Mof_C 	C 	0.8759	0.4868	0.2586	0.005
Mof_H 	H 	0.8724	0.5194	0.2963	0.019
Mof_O 	O 	0.6604	0.4373	0.3994	-0.712
Mof_C 	C 	0.5306	0.3723	0.2213	-0.004
Mof_H 	H 	0.5101	0.3253	0.2345	0.025
Mof_C 	C 	0.51	0.3946	0.1434	0
Mof_H 	H 	0.475	0.3631	0.1032	0.008
Mof_C 	C 	0.4934	0.4126	0.1818	-0.006
Mof_H 	H 	0.4466	0.3947	0.1691	0.013
Mof_C 	C 	0.5132	0.3891	0.2586	0.003
Mof_H 	H 	0.4806	0.353	0.2963	0.018
Mof_O 	O 	0.5627	0.2231	0.3994	-0.712
Mof_C 	C 	0.6277	0.1583	0.2213	-0.003
Mof_H 	H 	0.6747	0.1848	0.2345	0.024
Mof_C 	C 	0.6054	0.1154	0.1434	0.001
Mof_H 	H 	0.6369	0.1119	0.1032	0.008
Mof_C 	C 	0.5874	0.0808	0.1818	-0.007
Mof_H 	H 	0.6053	0.0519	0.1691	0.012
Mof_C 	C 	0.6109	0.1241	0.2586	0.002
Mof_H 	H 	0.647	0.1276	0.2963	0.018
Mof_O 	O 	0.6604	0.2231	0.6006	-0.712
Mof_C 	C 	0.5306	0.1583	0.7787	0.006
Mof_H 	H 	0.5101	0.1848	0.7655	0.025
Mof_C 	C 	0.51	0.1154	0.8566	0.006
Mof_H 	H 	0.475	0.1119	0.8968	0.018
Mof_C 	C 	0.4934	0.0808	0.8182	-0.013
Mof_H 	H 	0.4466	0.0519	0.8309	0.018
Mof_C 	C 	0.5132	0.1241	0.7414	-0.004
Mof_H 	H 	0.4806	0.1276	0.7037	0.021
Mof_O 	O 	0.5627	0.3396	0.6006	-0.711
Mof_C 	C 	0.6277	0.4694	0.7787	0.004
Mof_H 	H 	0.6747	0.4899	0.7655	0.026
Mof_C 	C 	0.6054	0.49	0.8566	0.005
Mof_H 	H 	0.6369	0.525	0.8968	0.02
Mof_C 	C 	0.5874	0.5066	0.8182	-0.011
Mof_H 	H 	0.6053	0.5534	0.8309	0.02
Mof_C 	C 	0.6109	0.4868	0.7414	-0.002
Mof_H 	H 	0.647	0.5194	0.7037	0.022
Mof_O 	O 	0.7769	0.4373	0.6006	-0.711
Mof_C 	C 	0.8417	0.3723	0.7787	0.003
Mof_H 	H 	0.8152	0.3253	0.7655	0.026
Mof_C 	C 	0.8846	0.3946	0.8566	0.004
Mof_H 	H 	0.8881	0.3631	0.8968	0.02
Mof_C 	C 	0.9192	0.4126	0.8182	-0.01
Mof_H 	H 	0.9481	0.3947	0.8309	0.022
Mof_C 	C 	0.8759	0.3891	0.7414	-0
Mof_H 	H 	0.8724	0.353	0.7037	0.022
Mof_O 	O 	0.3396	0.7769	0.6006	-0.711
Mof_C 	C 	0.4694	0.8417	0.7787	0.003
Mof_H 	H 	0.4899	0.8152	0.7655	0.027
Mof_C 	C 	0.49	0.8846	0.8566	0.004
Mof_H 	H 	0.525	0.8881	0.8968	0.021
Mof_C 	C 	0.5066	0.9192	0.8182	-0.01
Mof_H 	H 	0.5534	0.9481	0.8309	0.022
Mof_C 	C 	0.4868	0.8759	0.7414	-0
Mof_H 	H 	0.5194	0.8724	0.7037	0.022
Mof_O 	O 	0.4373	0.6604	0.6006	-0.711
Mof_C 	C 	0.3723	0.5306	0.7787	0.005
Mof_H 	H 	0.3253	0.5101	0.7655	0.026
Mof_C 	C 	0.3946	0.51	0.8566	0.005
Mof_H 	H 	0.3631	0.475	0.8968	0.019
Mof_C 	C 	0.4126	0.4934	0.8182	-0.011
Mof_H 	H 	0.3947	0.4466	0.8309	0.019
Mof_C 	C 	0.3891	0.5132	0.7414	-0.002
Mof_H 	H 	0.353	0.4806	0.7037	0.021
Mof_O 	O 	0.2231	0.5627	0.6006	-0.712
Mof_C 	C 	0.1583	0.6277	0.7787	0.006
Mof_H 	H 	0.1848	0.6747	0.7655	0.025
Mof_C 	C 	0.1154	0.6054	0.8566	0.006
Mof_H 	H 	0.1119	0.6369	0.8968	0.019
Mof_C 	C 	0.0808	0.5874	0.8182	-0.013
Mof_H 	H 	0.0519	0.6053	0.8309	0.018
Mof_C 	C 	0.1241	0.6109	0.7414	-0.004
Mof_H 	H 	0.1276	0.647	0.7037	0.021
Mof_O 	O 	0.7769	0.3396	0.6006	-0.711
Mof_C 	C 	0.8417	0.4694	0.7787	0.003
Mof_H 	H 	0.8152	0.4899	0.7655	0.027
Mof_C 	C 	0.8846	0.49	0.8566	0.004
Mof_H 	H 	0.8881	0.525	0.8968	0.021
Mof_C 	C 	0.9192	0.5066	0.8182	-0.01
Mof_H 	H 	0.9481	0.5534	0.8309	0.022
Mof_C 	C 	0.8759	0.4868	0.7414	-0
Mof_H 	H 	0.8724	0.5194	0.7037	0.022
Mof_O 	O 	0.6604	0.4373	0.6006	-0.711
Mof_C 	C 	0.5306	0.3723	0.7787	0.005
Mof_H 	H 	0.5101	0.3253	0.7655	0.026
Mof_C 	C 	0.51	0.3946	0.8566	0.005
Mof_H 	H 	0.475	0.3631	0.8968	0.019
Mof_C 	C 	0.4934	0.4126	0.8182	-0.011
Mof_H 	H 	0.4466	0.3947	0.8309	0.019
Mof_C 	C 	0.5132	0.3891	0.7414	-0.002
Mof_H 	H 	0.4806	0.353	0.7037	0.021
Mof_O 	O 	0.5627	0.2231	0.6006	-0.712
Mof_C 	C 	0.6277	0.1583	0.7787	0.006
Mof_H 	H 	0.6747	0.1848	0.7655	0.025
Mof_C 	C 	0.6054	0.1154	0.8566	0.006
Mof_H 	H 	0.6369	0.1119	0.8968	0.019
Mof_C 	C 	0.5874	0.0808	0.8182	-0.013
Mof_H 	H 	0.6053	0.0519	0.8309	0.018
Mof_C 	C 	0.6109	0.1241	0.7414	-0.004
Mof_H 	H 	0.647	0.1276	0.7037	0.021
Mof_O 	O 	0.2231	0.6604	0.6006	-0.712
Mof_C 	C 	0.1583	0.5306	0.7787	0.006
Mof_H 	H 	0.1848	0.5101	0.7655	0.025
Mof_C 	C 	0.1154	0.51	0.8566	0.006
Mof_H 	H 	0.1119	0.475	0.8968	0.018
Mof_C 	C 	0.0808	0.4934	0.8182	-0.013
Mof_H 	H 	0.0519	0.4466	0.8309	0.018
Mof_C 	C 	0.1241	0.5132	0.7414	-0.004
Mof_H 	H 	0.1276	0.4806	0.7037	0.021
Mof_O 	O 	0.3396	0.5627	0.6006	-0.711
Mof_C 	C 	0.4694	0.6277	0.7787	0.004
Mof_H 	H 	0.4899	0.6747	0.7655	0.026
Mof_C 	C 	0.49	0.6054	0.8566	0.005
Mof_H 	H 	0.525	0.6369	0.8968	0.02
Mof_C 	C 	0.5066	0.5874	0.8182	-0.011
Mof_H 	H 	0.5534	0.6053	0.8309	0.02
Mof_C 	C 	0.4868	0.6109	0.7414	-0.002
Mof_H 	H 	0.5194	0.647	0.7037	0.022
Mof_O 	O 	0.4373	0.7769	0.6006	-0.711
Mof_C 	C 	0.3723	0.8417	0.7787	0.003
Mof_H 	H 	0.3253	0.8152	0.7655	0.026
Mof_C 	C 	0.3946	0.8846	0.8566	0.004
Mof_H 	H 	0.3631	0.8881	0.8968	0.02
Mof_C 	C 	0.4126	0.9192	0.8182	-0.01
Mof_H 	H 	0.3947	0.9481	0.8309	0.022
Mof_C 	C 	0.3891	0.8759	0.7414	-0
Mof_H 	H 	0.353	0.8724	0.7037	0.022
Mof_O 	O 	0.3396	0.7769	0.3994	-0.712
Mof_C 	C 	0.4694	0.8417	0.2213	-0.005
Mof_H 	H 	0.4899	0.8152	0.2345	0.026
Mof_C 	C 	0.49	0.8846	0.1434	-0.001
Mof_H 	H 	0.525	0.8881	0.1032	0.01
Mof_C 	C 	0.5066	0.9192	0.1818	-0.005
Mof_H 	H 	0.5534	0.9481	0.1691	0.016
Mof_C 	C 	0.4868	0.8759	0.2586	0.005
Mof_H 	H 	0.5194	0.8724	0.2963	0.019
Mof_O 	O 	0.4373	0.6604	0.3994	-0.712
Mof_C 	C 	0.3723	0.5306	0.2213	-0.004
Mof_H 	H 	0.3253	0.5101	0.2345	0.025
Mof_C 	C 	0.3946	0.51	0.1434	0
Mof_H 	H 	0.3631	0.475	0.1032	0.008
Mof_C 	C 	0.4126	0.4934	0.1818	-0.006
Mof_H 	H 	0.3947	0.4466	0.1691	0.013
Mof_C 	C 	0.3891	0.5132	0.2586	0.003
Mof_H 	H 	0.353	0.4806	0.2963	0.018
Mof_O 	O 	0.2231	0.5627	0.3994	-0.712
Mof_C 	C 	0.1583	0.6277	0.2213	-0.003
Mof_H 	H 	0.1848	0.6747	0.2345	0.024
Mof_C 	C 	0.1154	0.6054	0.1434	0.001
Mof_H 	H 	0.1119	0.6369	0.1032	0.008
Mof_C 	C 	0.0808	0.5874	0.1818	-0.007
Mof_H 	H 	0.0519	0.6053	0.1691	0.012
Mof_C 	C 	0.1241	0.6109	0.2586	0.002
Mof_H 	H 	0.1276	0.647	0.2963	0.018
Mof_O 	O 	0.6604	0.2231	0.3994	-0.712
Mof_C 	C 	0.5306	0.1583	0.2213	-0.003
Mof_H 	H 	0.5101	0.1848	0.2345	0.024
Mof_C 	C 	0.51	0.1154	0.1434	0.001
Mof_H 	H 	0.475	0.1119	0.1032	0.008
Mof_C 	C 	0.4934	0.0808	0.1818	-0.007
Mof_H 	H 	0.4466	0.0519	0.1691	0.011
Mof_C 	C 	0.5132	0.1241	0.2586	0.002
Mof_H 	H 	0.4806	0.1276	0.2963	0.018
Mof_O 	O 	0.5627	0.3396	0.3994	-0.712
Mof_C 	C 	0.6277	0.4694	0.2213	-0.004
Mof_H 	H 	0.6747	0.4899	0.2345	0.025
Mof_C 	C 	0.6054	0.49	0.1434	0
Mof_H 	H 	0.6369	0.525	0.1032	0.009
Mof_C 	C 	0.5874	0.5066	0.1818	-0.006
Mof_H 	H 	0.6053	0.5534	0.1691	0.014
Mof_C 	C 	0.6109	0.4868	0.2586	0.003
Mof_H 	H 	0.647	0.5194	0.2963	0.019
Mof_O 	O 	0.7769	0.4373	0.3994	-0.712
Mof_C 	C 	0.8417	0.3723	0.2213	-0.005
Mof_H 	H 	0.8152	0.3253	0.2345	0.025
Mof_C 	C 	0.8846	0.3946	0.1434	-0.001
Mof_H 	H 	0.8881	0.3631	0.1032	0.01
Mof_C 	C 	0.9192	0.4126	0.1818	-0.005
Mof_H 	H 	0.9481	0.3947	0.1691	0.015
Mof_C 	C 	0.8759	0.3891	0.2586	0.005
Mof_H 	H 	0.8724	0.353	0.2963	0.019
Mof_Cd	Cd	-0	0.5	-0	0.277
Mof_Cd	Cd	0.5	0.5	-0	0.283
Mof_Cd	Cd	0.5	0	-0	0.277
Mof_Cr	Cr	0.28521	0.71479	0.5	2.197
Mof_Cr	Cr	0.28521	0.57042	0.5	2.196
Mof_Cr	Cr	0.42958	0.71479	0.5	2.198
Mof_Cr	Cr	0.71479	0.28521	0.5	2.197
Mof_Cr	Cr	0.71479	0.42958	0.5	2.198
Mof_Cr	Cr	0.57042	0.28521	0.5	2.196
Mof_O 	O 	0.33333	0.66667	0.5	-1.184
Mof_O 	O 	0.66667	0.33333	0.5	-1.184
Mof_C 	C 	0.2052	0.6026	0.3688	0.602
Mof_C 	C 	0.1623	0.58115	0.2799	-0.162
Mof_N 	N 	0.0791	0.53955	0.1252	-0.136
Mof_C 	C 	0.3974	0.6026	0.3688	0.602
Mof_C 	C 	0.41885	0.58115	0.2799	-0.161
Mof_N 	N 	0.46045	0.53955	0.1252	-0.136
Mof_C 	C 	0.3974	0.7948	0.3688	0.602
Mof_C 	C 	0.41885	0.8377	0.2799	-0.161
Mof_N 	N 	0.46045	0.9209	0.1252	-0.134
Mof_C 	C 	0.7948	0.3974	0.3688	0.602
Mof_C 	C 	0.8377	0.41885	0.2799	-0.161
Mof_N 	N 	0.9209	0.46045	0.1252	-0.134
Mof_C 	C 	0.6026	0.3974	0.3688	0.602
Mof_C 	C 	0.58115	0.41885	0.2799	-0.161
Mof_N 	N 	0.53955	0.46045	0.1252	-0.136
Mof_C 	C 	0.6026	0.2052	0.3688	0.602
Mof_C 	C 	0.58115	0.1623	0.2799	-0.162
Mof_N 	N 	0.53955	0.0791	0.1252	-0.136
Mof_C 	C 	0.6026	0.2052	0.6312	0.602
Mof_C 	C 	0.58115	0.1623	0.7201	-0.161
Mof_N 	N 	0.53955	0.0791	0.8748	-0.128
Mof_C 	C 	0.6026	0.3974	0.6312	0.603
Mof_C 	C 	0.58115	0.41885	0.7201	-0.161
Mof_N 	N 	0.53955	0.46045	0.8748	-0.127
Mof_C 	C 	0.7948	0.3974	0.6312	0.603
Mof_C 	C 	0.8377	0.41885	0.7201	-0.161
Mof_N 	N 	0.9209	0.46045	0.8748	-0.125
Mof_C 	C 	0.3974	0.7948	0.6312	0.603
Mof_C 	C 	0.41885	0.8377	0.7201	-0.161
Mof_N 	N 	0.46045	0.9209	0.8748	-0.125
Mof_C 	C 	0.3974	0.6026	0.6312	0.603
Mof_C 	C 	0.41885	0.58115	0.7201	-0.161
Mof_N 	N 	0.46045	0.53955	0.8748	-0.127
Mof_C 	C 	0.2052	0.6026	0.6312	0.602
Mof_C 	C 	0.1623	0.58115	0.7201	-0.161
Mof_N 	N 	0.0791	0.53955	0.8748	-0.128
_end
