data_functionalizedCrystal
_audit_creation_method	'EQeq! by Chris Wilmer'
_symmetry_space_group_name_H-M	'P1'
_symmetry_Int_Tables_number	1
_symmetry_cell_setting	triclinic
loop_
_symmetry_equiv_pos_as_xyz
  x,y,z
_cell_length_a	15.3086
_cell_length_b	32.447
_cell_length_c	10.0075
_cell_angle_alpha	90
_cell_angle_beta	107.563
_cell_angle_gamma	90
loop_
_atom_site_label
_atom_site_type_symbol
_atom_site_fract_x
_atom_site_fract_y
_atom_site_fract_z
_atom_site_charge
Mof_Cu	Cu	0.65659	0.72676	0.00097	0.925
Mof_Cu	Cu	0.51068	0.78568	0.02646	0.937
Mof_Cu	Cu	0.58266	0.78383	0.76429	0.931
Mof_O 	O 	0.62112	0.7845	0.9679	-0.716
Mof_H 	H 	0.6621	0.8021	0.0069	0.277
Mof_O 	O 	0.532	0.84272	0.7638	-0.375
Mof_O 	O 	0.46823	0.83957	0.9395	-0.373
Mof_O 	O 	0.70981	0.77399	0.7547	-0.453
Mof_O 	O 	0.76668	0.73468	0.9459	-0.392
Mof_O 	O 	0.54649	0.72613	0.0659	-0.719
Mof_H 	H 	0.5055	0.7095	0.0198	0.281
Mof_O 	O 	0.14449	0.688	0.9507	-0.082
Mof_O 	O 	0.03119	0.65389	0.964	-0.086
Mof_O 	O 	0.00831	0.68867	0.5475	-0.206
Mof_O 	O 	0.1105	0.65776	0.5042	-0.064
Mof_O 	O 	0.2442	0.00207	0.8355	-0.08
Mof_O 	O 	0.2559	0.94981	0.9574	-0.042
Mof_O 	O 	0.3362	0.0249	0.3794	-0.085
Mof_O 	O 	0.2948	0.9803	0.4909	-0.053
Mof_O 	O 	0.40441	0.7183	0.5883	-0.397
Mof_O 	O 	0.45852	0.7592	0.7767	-0.44
Mof_O 	O 	0.3986	0.18468	0.7441	-0.388
Mof_O 	O 	0.33674	0.16844	0.5192	-0.382
Mof_C 	C 	0.4892	0.85727	0.8411	0.348
Mof_C 	C 	0.4591	0.90112	0.8138	-0.056
Mof_C 	C 	0.4999	0.9262	0.7388	0.01
Mof_H 	H 	0.5446	0.9156	0.703	0.061
Mof_C 	C 	0.4745	0.96697	0.7166	-0.063
Mof_H 	H 	0.5063	0.9838	0.6722	0.089
Mof_C 	C 	0.4039	0.98393	0.7576	0.024
Mof_C 	C 	0.3662	0.95834	0.8345	0.074
Mof_C 	C 	0.3916	0.91781	0.8635	-0.049
Mof_H 	H 	0.3637	0.9018	0.916	0.095
Mof_C 	C 	0.383	0.02849	0.7309	0.026
Mof_C 	C 	0.3426	0.04471	0.5983	0.074
Mof_C 	C 	0.336	0.08632	0.5721	-0.046
Mof_H 	H 	0.3082	0.0958	0.4815	0.093
Mof_C 	C 	0.3701	0.11392	0.678	-0.059
Mof_C 	C 	0.4092	0.09864	0.81	0.009
Mof_H 	H 	0.4319	0.1168	0.8843	0.043
Mof_C 	C 	0.4154	0.05667	0.8346	-0.065
Mof_H 	H 	0.4427	0.0474	0.9255	0.076
Mof_C 	C 	0.369	0.15924	0.6487	0.336
Mof_C 	C 	0.7735	0.75367	0.8393	0.36
Mof_C 	C 	0.8635	0.75126	0.8131	-0.078
Mof_C 	C 	0.9195	0.71809	0.8652	-0.03
Mof_H 	H 	0.9005	0.6977	0.9156	0.082
Mof_C 	C 	0.0041	0.71521	0.8425	0.069
Mof_C 	C 	0.0355	0.74446	0.766	0.034
Mof_C 	C 	0.978	0.77843	0.7187	-0.069
Mof_H 	H 	0.9973	0.7994	0.671	0.09
Mof_C 	C 	0.8936	0.78167	0.7408	0.033
Mof_H 	H 	0.8567	0.8045	0.707	0.048
Mof_C 	C 	0.1248	0.74261	0.7363	0.026
Mof_C 	C 	0.1875	0.77354	0.7885	-0.063
Mof_H 	H 	0.1704	0.7956	0.8344	0.088
Mof_C 	C 	0.2761	0.77318	0.7753	0.015
Mof_H 	H 	0.3174	0.7941	0.8142	0.052
Mof_C 	C 	0.301	0.7412	0.7037	-0.066
Mof_C 	C 	0.2378	0.71079	0.6435	-0.045
Mof_H 	H 	0.2538	0.6898	0.5921	0.089
Mof_C 	C 	0.1521	0.7115	0.6592	0.082
Mof_C 	C 	0.396	0.73949	0.6893	0.36
Mof_N 	N 	0.2915	0.97287	0.89419	0.006
Mof_N 	N 	0.0623	0.68118	0.9062	0.007
Mof_N 	N 	0.0879	0.67917	0.5862	0.003
Mof_N 	N 	0.30807	0.01687	0.4762	-0.002
Mof_O 	O 	0.102	0.65911	0.8445	-0.052
Mof_O 	O 	0.0097	0.677	0.5915	0.111
Mof_O 	O 	0.1233	0.64673	0.5761	-0.037
Mof_O 	O 	0.3146	0.9677	0.01979	-0.074
Mof_O 	O 	0.2865	0.0299	0.3566	-0.02
Mof_O 	O 	0.26326	0.98888	0.5043	-0.028
Mof_Cu	Cu	0.34341	0.22676	0.49903	0.932
Mof_Cu	Cu	0.48932	0.28568	0.47354	0.941
Mof_Cu	Cu	0.41734	0.28383	0.73571	0.93
Mof_O 	O 	0.37888	0.2845	0.5321	-0.737
Mof_H 	H 	0.3379	0.3021	0.4931	0.292
Mof_O 	O 	0.468	0.34272	0.7362	-0.378
Mof_O 	O 	0.53177	0.33957	0.5605	-0.38
Mof_O 	O 	0.29019	0.27399	0.7453	-0.457
Mof_O 	O 	0.23332	0.23468	0.5541	-0.399
Mof_O 	O 	0.45351	0.22613	0.4341	-0.716
Mof_H 	H 	0.4945	0.2095	0.4802	0.283
Mof_O 	O 	0.85551	0.188	0.5493	-0.086
Mof_O 	O 	0.96881	0.15389	0.536	-0.088
Mof_O 	O 	0.99169	0.18867	0.9525	-0.228
Mof_O 	O 	0.8895	0.15776	0.9958	-0.067
Mof_O 	O 	0.7558	0.50207	0.6645	-0.078
Mof_O 	O 	0.7441	0.44981	0.5426	-0.045
Mof_O 	O 	0.6638	0.5249	0.1206	-0.085
Mof_O 	O 	0.7052	0.4803	0.0091	-0.048
Mof_O 	O 	0.59559	0.2183	0.9117	-0.401
Mof_O 	O 	0.54148	0.2592	0.7233	-0.442
Mof_O 	O 	0.6014	0.68468	0.7559	-0.386
Mof_O 	O 	0.66326	0.66844	0.9808	-0.376
Mof_C 	C 	0.5108	0.35727	0.6589	0.349
Mof_C 	C 	0.5409	0.40112	0.6862	-0.059
Mof_C 	C 	0.5001	0.4262	0.7612	0.01
Mof_H 	H 	0.4554	0.4156	0.797	0.06
Mof_C 	C 	0.5255	0.46697	0.7834	-0.064
Mof_H 	H 	0.4937	0.4838	0.8278	0.088
Mof_C 	C 	0.5961	0.48393	0.7424	0.022
Mof_C 	C 	0.6338	0.45834	0.6655	0.074
Mof_C 	C 	0.6084	0.41781	0.6365	-0.049
Mof_H 	H 	0.6363	0.4018	0.584	0.093
Mof_C 	C 	0.617	0.52849	0.7691	0.03
Mof_C 	C 	0.6574	0.54471	0.9017	0.069
Mof_C 	C 	0.664	0.58632	0.9279	-0.027
Mof_H 	H 	0.6918	0.5958	0.0185	0.081
Mof_C 	C 	0.6299	0.61392	0.822	-0.065
Mof_C 	C 	0.5908	0.59864	0.69	0.015
Mof_H 	H 	0.5681	0.6168	0.6157	0.044
Mof_C 	C 	0.5846	0.55667	0.6654	-0.069
Mof_H 	H 	0.5573	0.5474	0.5745	0.079
Mof_C 	C 	0.631	0.65924	0.8513	0.338
Mof_C 	C 	0.2265	0.25367	0.6607	0.36
Mof_C 	C 	0.1365	0.25126	0.6869	-0.081
Mof_C 	C 	0.0805	0.21809	0.6348	-0.032
Mof_H 	H 	0.0995	0.1977	0.5844	0.08
Mof_C 	C 	0.9959	0.21521	0.6575	0.068
Mof_C 	C 	0.9645	0.24446	0.734	0.035
Mof_C 	C 	0.022	0.27843	0.7813	-0.075
Mof_H 	H 	0.0027	0.2994	0.829	0.088
Mof_C 	C 	0.1064	0.28167	0.7592	0.033
Mof_H 	H 	0.1433	0.3045	0.793	0.045
Mof_C 	C 	0.8752	0.24261	0.7637	0.025
Mof_C 	C 	0.8125	0.27354	0.7115	-0.064
Mof_H 	H 	0.8296	0.2956	0.6656	0.085
Mof_C 	C 	0.7239	0.27318	0.7247	0.013
Mof_H 	H 	0.6826	0.2941	0.6858	0.05
Mof_C 	C 	0.699	0.2412	0.7963	-0.068
Mof_C 	C 	0.7622	0.21079	0.8565	-0.046
Mof_H 	H 	0.7462	0.1898	0.9079	0.087
Mof_C 	C 	0.8479	0.2115	0.8408	0.081
Mof_C 	C 	0.604	0.23949	0.8107	0.361
Mof_N 	N 	0.7085	0.47287	0.60581	0.005
Mof_N 	N 	0.9377	0.18118	0.5938	0.007
Mof_N 	N 	0.9121	0.17917	0.9138	0.004
Mof_N 	N 	0.69193	0.51687	0.0238	-0.002
Mof_O 	O 	0.898	0.15911	0.6555	-0.053
Mof_O 	O 	0.9903	0.177	0.9085	0.129
Mof_O 	O 	0.8767	0.14673	0.9239	-0.037
Mof_O 	O 	0.6854	0.4677	0.48021	-0.07
Mof_O 	O 	0.7135	0.5299	0.1434	-0.021
Mof_O 	O 	0.73674	0.48888	0.9957	-0.032
Mof_Cu	Cu	0.34341	0.27324	0.99903	0.924
Mof_Cu	Cu	0.48932	0.21432	0.97354	0.936
Mof_Cu	Cu	0.41734	0.21617	0.23571	0.93
Mof_O 	O 	0.37888	0.2155	0.0321	-0.717
Mof_H 	H 	0.3379	0.1979	0.9931	0.276
Mof_O 	O 	0.468	0.15728	0.2362	-0.376
Mof_O 	O 	0.53177	0.16043	0.0605	-0.374
Mof_O 	O 	0.29019	0.22601	0.2453	-0.454
Mof_O 	O 	0.23332	0.26532	0.0541	-0.392
Mof_O 	O 	0.45351	0.27387	0.9341	-0.719
Mof_H 	H 	0.4945	0.2905	0.9802	0.281
Mof_O 	O 	0.85551	0.312	0.0493	-0.082
Mof_O 	O 	0.96881	0.34611	0.036	-0.086
Mof_O 	O 	0.99169	0.31133	0.4525	-0.206
Mof_O 	O 	0.8895	0.34224	0.4958	-0.064
Mof_O 	O 	0.7558	0.99793	0.1645	-0.08
Mof_O 	O 	0.7441	0.05019	0.0426	-0.042
Mof_O 	O 	0.6638	0.9751	0.6206	-0.085
Mof_O 	O 	0.7052	0.0197	0.5091	-0.053
Mof_O 	O 	0.59559	0.2817	0.4117	-0.397
Mof_O 	O 	0.54148	0.2408	0.2233	-0.44
Mof_O 	O 	0.6014	0.81532	0.2559	-0.388
Mof_O 	O 	0.66326	0.83156	0.4808	-0.382
Mof_C 	C 	0.5108	0.14273	0.1589	0.348
Mof_C 	C 	0.5409	0.09888	0.1862	-0.056
Mof_C 	C 	0.5001	0.0738	0.2612	0.01
Mof_H 	H 	0.4554	0.0844	0.297	0.061
Mof_C 	C 	0.5255	0.03303	0.2834	-0.063
Mof_H 	H 	0.4937	0.0162	0.3278	0.089
Mof_C 	C 	0.5961	0.01607	0.2424	0.024
Mof_C 	C 	0.6338	0.04166	0.1655	0.074
Mof_C 	C 	0.6084	0.08219	0.1365	-0.049
Mof_H 	H 	0.6363	0.0982	0.084	0.095
Mof_C 	C 	0.617	0.97151	0.2691	0.026
Mof_C 	C 	0.6574	0.95529	0.4017	0.074
Mof_C 	C 	0.664	0.91368	0.4279	-0.046
Mof_H 	H 	0.6918	0.9042	0.5185	0.093
Mof_C 	C 	0.6299	0.88608	0.322	-0.059
Mof_C 	C 	0.5908	0.90136	0.19	0.009
Mof_H 	H 	0.5681	0.8832	0.1157	0.043
Mof_C 	C 	0.5846	0.94333	0.1654	-0.065
Mof_H 	H 	0.5573	0.9526	0.0745	0.076
Mof_C 	C 	0.631	0.84076	0.3513	0.336
Mof_C 	C 	0.2265	0.24633	0.1607	0.36
Mof_C 	C 	0.1365	0.24874	0.1869	-0.078
Mof_C 	C 	0.0805	0.28191	0.1348	-0.03
Mof_H 	H 	0.0995	0.3023	0.0844	0.082
Mof_C 	C 	0.9959	0.28479	0.1575	0.069
Mof_C 	C 	0.9645	0.25554	0.234	0.034
Mof_C 	C 	0.022	0.22157	0.2813	-0.069
Mof_H 	H 	0.0027	0.2006	0.329	0.09
Mof_C 	C 	0.1064	0.21833	0.2592	0.033
Mof_H 	H 	0.1433	0.1955	0.293	0.048
Mof_C 	C 	0.8752	0.25739	0.2637	0.026
Mof_C 	C 	0.8125	0.22646	0.2115	-0.063
Mof_H 	H 	0.8296	0.2044	0.1656	0.088
Mof_C 	C 	0.7239	0.22682	0.2247	0.015
Mof_H 	H 	0.6826	0.2059	0.1858	0.052
Mof_C 	C 	0.699	0.2588	0.2963	-0.066
Mof_C 	C 	0.7622	0.28921	0.3565	-0.045
Mof_H 	H 	0.7462	0.3102	0.4079	0.089
Mof_C 	C 	0.8479	0.2885	0.3408	0.082
Mof_C 	C 	0.604	0.26051	0.3107	0.36
Mof_N 	N 	0.7085	0.02713	0.10581	0.006
Mof_N 	N 	0.9377	0.31882	0.0938	0.007
Mof_N 	N 	0.9121	0.32083	0.4138	0.003
Mof_N 	N 	0.69193	0.98313	0.5238	-0.002
Mof_O 	O 	0.898	0.34089	0.1555	-0.052
Mof_O 	O 	0.9903	0.323	0.4085	0.111
Mof_O 	O 	0.8767	0.35327	0.4239	-0.037
Mof_O 	O 	0.6854	0.0323	0.98021	-0.074
Mof_O 	O 	0.7135	0.9701	0.6434	-0.02
Mof_O 	O 	0.73674	0.01112	0.4957	-0.028
Mof_Cu	Cu	0.65659	0.77324	0.50097	0.932
Mof_Cu	Cu	0.51068	0.71432	0.52646	0.941
Mof_Cu	Cu	0.58266	0.71617	0.26429	0.93
Mof_O 	O 	0.62112	0.7155	0.4679	-0.737
Mof_H 	H 	0.6621	0.6979	0.5069	0.292
Mof_O 	O 	0.532	0.65728	0.2638	-0.378
Mof_O 	O 	0.46823	0.66043	0.4395	-0.38
Mof_O 	O 	0.70981	0.72601	0.2547	-0.457
Mof_O 	O 	0.76668	0.76532	0.4459	-0.399
Mof_O 	O 	0.54649	0.77387	0.5659	-0.716
Mof_H 	H 	0.5055	0.7905	0.5198	0.283
Mof_O 	O 	0.14449	0.812	0.4507	-0.086
Mof_O 	O 	0.03119	0.84611	0.464	-0.088
Mof_O 	O 	0.00831	0.81133	0.0475	-0.228
Mof_O 	O 	0.1105	0.84224	0.0042	-0.067
Mof_O 	O 	0.2442	0.49793	0.3355	-0.078
Mof_O 	O 	0.2559	0.55019	0.4574	-0.045
Mof_O 	O 	0.3362	0.4751	0.8794	-0.085
Mof_O 	O 	0.2948	0.5197	0.9909	-0.048
Mof_O 	O 	0.40441	0.7817	0.0883	-0.401
Mof_O 	O 	0.45852	0.7408	0.2767	-0.442
Mof_O 	O 	0.3986	0.31532	0.2441	-0.386
Mof_O 	O 	0.33674	0.33156	0.0192	-0.376
Mof_C 	C 	0.4892	0.64273	0.3411	0.349
Mof_C 	C 	0.4591	0.59888	0.3138	-0.059
Mof_C 	C 	0.4999	0.5738	0.2388	0.01
Mof_H 	H 	0.5446	0.5844	0.203	0.06
Mof_C 	C 	0.4745	0.53303	0.2166	-0.064
Mof_H 	H 	0.5063	0.5162	0.1722	0.088
Mof_C 	C 	0.4039	0.51607	0.2576	0.022
Mof_C 	C 	0.3662	0.54166	0.3345	0.074
Mof_C 	C 	0.3916	0.58219	0.3635	-0.049
Mof_H 	H 	0.3637	0.5982	0.416	0.093
Mof_C 	C 	0.383	0.47151	0.2309	0.03
Mof_C 	C 	0.3426	0.45529	0.0983	0.069
Mof_C 	C 	0.336	0.41368	0.0721	-0.027
Mof_H 	H 	0.3082	0.4042	0.9815	0.081
Mof_C 	C 	0.3701	0.38608	0.178	-0.065
Mof_C 	C 	0.4092	0.40136	0.31	0.015
Mof_H 	H 	0.4319	0.3832	0.3843	0.044
Mof_C 	C 	0.4154	0.44333	0.3346	-0.069
Mof_H 	H 	0.4427	0.4526	0.4255	0.079
Mof_C 	C 	0.369	0.34076	0.1487	0.338
Mof_C 	C 	0.7735	0.74633	0.3393	0.36
Mof_C 	C 	0.8635	0.74874	0.3131	-0.081
Mof_C 	C 	0.9195	0.78191	0.3652	-0.032
Mof_H 	H 	0.9005	0.8023	0.4156	0.08
Mof_C 	C 	0.0041	0.78479	0.3425	0.068
Mof_C 	C 	0.0355	0.75554	0.266	0.035
Mof_C 	C 	0.978	0.72157	0.2187	-0.075
Mof_H 	H 	0.9973	0.7006	0.171	0.088
Mof_C 	C 	0.8936	0.71833	0.2408	0.033
Mof_H 	H 	0.8567	0.6955	0.207	0.045
Mof_C 	C 	0.1248	0.75739	0.2363	0.025
Mof_C 	C 	0.1875	0.72646	0.2885	-0.064
Mof_H 	H 	0.1704	0.7044	0.3344	0.085
Mof_C 	C 	0.2761	0.72682	0.2753	0.013
Mof_H 	H 	0.3174	0.7059	0.3142	0.05
Mof_C 	C 	0.301	0.7588	0.2037	-0.068
Mof_C 	C 	0.2378	0.78921	0.1435	-0.046
Mof_H 	H 	0.2538	0.8102	0.0921	0.087
Mof_C 	C 	0.1521	0.7885	0.1592	0.081
Mof_C 	C 	0.396	0.76051	0.1893	0.361
Mof_N 	N 	0.2915	0.52713	0.39419	0.005
Mof_N 	N 	0.0623	0.81882	0.4062	0.007
Mof_N 	N 	0.0879	0.82083	0.0862	0.004
Mof_N 	N 	0.30807	0.48313	0.9762	-0.002
Mof_O 	O 	0.102	0.84089	0.3445	-0.053
Mof_O 	O 	0.0097	0.823	0.0915	0.129
Mof_O 	O 	0.1233	0.85327	0.0761	-0.037
Mof_O 	O 	0.3146	0.5323	0.51979	-0.07
Mof_O 	O 	0.2865	0.4701	0.8566	-0.021
Mof_O 	O 	0.26326	0.51112	0.0043	-0.032
_end
