data_functionalizedCrystal
_audit_creation_method	'EQeq! by Chris Wilmer'
_symmetry_space_group_name_H-M	'P1'
_symmetry_Int_Tables_number	1
_symmetry_cell_setting	triclinic
loop_
_symmetry_equiv_pos_as_xyz
  x,y,z
_cell_length_a	12.746
_cell_length_b	12.746
_cell_length_c	9.14
_cell_angle_alpha	90
_cell_angle_beta	90
_cell_angle_gamma	120
loop_
_atom_site_label
_atom_site_type_symbol
_atom_site_fract_x
_atom_site_fract_y
_atom_site_fract_z
_atom_site_charge
Mof_Al	Al	0.6732	0.5304	0.4172	5.35
Mof_P 	P 	0.4553	0.3217	0.6176	1.28
Mof_O 	O 	0.5597	0.4214	0.5302	-1.758
Mof_O 	O 	0.3998	0.2078	0.5229	-1.593
Mof_O 	O 	0.3603	0.3593	0.6417	-1.596
Mof_O 	O 	0.6809	0.4525	0.26	-1.628
Mof_O 	O 	0.5005	0.3051	0.7617	-0.628
Mof_Al	Al	0.4696	0.1428	0.4172	5.346
Mof_P 	P 	0.6783	0.1336	0.6176	1.28
Mof_O 	O 	0.5786	0.1383	0.5302	-1.757
Mof_O 	O 	0.7922	0.192	0.5229	-1.593
Mof_O 	O 	0.6407	0.001	0.6417	-1.594
Mof_O 	O 	0.5475	0.2284	0.26	-1.628
Mof_O 	O 	0.6949	0.1954	0.7617	-0.627
Mof_Al	Al	0.8572	0.3268	0.4172	5.344
Mof_P 	P 	0.8664	0.5447	0.6176	1.28
Mof_O 	O 	0.8617	0.4403	0.5302	-1.757
Mof_O 	O 	0.808	0.6002	0.5229	-1.594
Mof_O 	O 	0.999	0.6397	0.6417	-1.594
Mof_O 	O 	0.7716	0.3191	0.26	-1.628
Mof_O 	O 	0.8046	0.4995	0.7617	-0.628
Mof_Al	Al	0.3268	0.4696	0.5828	5.35
Mof_P 	P 	0.5447	0.6783	0.3824	1.28
Mof_O 	O 	0.4403	0.5786	0.4698	-1.758
Mof_O 	O 	0.6002	0.7922	0.4771	-1.593
Mof_O 	O 	0.6397	0.6407	0.3583	-1.596
Mof_O 	O 	0.3191	0.5475	0.74	-1.628
Mof_O 	O 	0.4995	0.6949	0.2383	-0.628
Mof_Al	Al	0.5304	0.8572	0.5828	5.346
Mof_P 	P 	0.3217	0.8664	0.3824	1.28
Mof_O 	O 	0.4214	0.8617	0.4698	-1.757
Mof_O 	O 	0.2078	0.808	0.4771	-1.593
Mof_O 	O 	0.3593	0.999	0.3583	-1.594
Mof_O 	O 	0.4525	0.7716	0.74	-1.628
Mof_O 	O 	0.3051	0.8046	0.2383	-0.627
Mof_Al	Al	0.1428	0.6732	0.5828	5.344
Mof_P 	P 	0.1336	0.4553	0.3824	1.28
Mof_O 	O 	0.1383	0.5597	0.4698	-1.757
Mof_O 	O 	0.192	0.3998	0.4771	-1.594
Mof_O 	O 	0.001	0.3603	0.3583	-1.594
Mof_O 	O 	0.2284	0.6809	0.74	-1.628
Mof_O 	O 	0.1954	0.5005	0.2383	-0.628
Mof_Mn	Mn	0.66667	0.33333	0.8217	0.994
Mof_P 	P 	0.66667	0.33333	0.2019	1.305
Mof_O 	O 	0.66667	0.33333	0.0409	-0.576
Mof_Mn	Mn	0.33333	0.66667	0.1783	0.994
Mof_P 	P 	0.33333	0.66667	0.7981	1.305
Mof_O 	O 	0.33333	0.66667	0.9591	-0.576
_end
