data_functionalizedCrystal
_audit_creation_method	'EQeq! by Chris Wilmer'
_symmetry_space_group_name_H-M	'P1'
_symmetry_Int_Tables_number	1
_symmetry_cell_setting	triclinic
loop_
_symmetry_equiv_pos_as_xyz
  x,y,z
_cell_length_a	7.2918
_cell_length_b	9.34
_cell_length_c	14.129
_cell_angle_alpha	83.816
_cell_angle_beta	85.461
_cell_angle_gamma	72.646
loop_
_atom_site_label
_atom_site_type_symbol
_atom_site_fract_x
_atom_site_fract_y
_atom_site_fract_z
_atom_site_charge
Mof_La	La	0.50617	0.28555	0.59596	1.995
Mof_La	La	0.49383	0.71445	0.40404	1.993
Mof_Ni	Ni	0.5	0.5	-0	1.059
Mof_H 	H 	0.8373	0.538	0.0039	0.041
Mof_H 	H 	0.7002	0.6859	0.0066	0.054
Mof_H 	H 	0.1936	0.8292	0.9021	-0.002
Mof_H 	H 	0.2165	0.8778	0.7347	0.133
Mof_H 	H 	0.9895	0.441	0.8589	0.084
Mof_H 	H 	0.9185	0.7369	0.626	0.039
Mof_H 	H 	0.6243	0.8565	0.8719	0.088
Mof_H 	H 	0.1627	0.462	0.9961	0.178
Mof_H 	H 	0.2998	0.3141	0.9934	0.185
Mof_H 	H 	0.8064	0.1708	0.0979	-0.029
Mof_H 	H 	0.7835	0.1222	0.2653	0.131
Mof_H 	H 	0.0105	0.559	0.1411	0.071
Mof_H 	H 	0.0815	0.2631	0.374	0.036
Mof_H 	H 	0.3757	0.1435	0.1281	0.067
Mof_C 	C 	0.2644	0.762	0.8593	0.137
Mof_C 	C 	0.3927	0.6701	0.7246	-0.006
Mof_C 	C 	0.4507	0.5625	0.7995	-0.071
Mof_C 	C 	0.5846	0.4051	0.8107	0.373
Mof_C 	C 	0.4441	0.6812	0.6211	0.339
Mof_C 	C 	0.1274	0.4575	0.6798	0.29
Mof_C 	C 	0.7959	0.642	0.881	0.101
Mof_C 	C 	0.9302	0.5358	0.8294	-0.1
Mof_C 	C 	0.9762	0.5709	0.7338	-0.031
Mof_C 	C 	0.8886	0.7131	0.6899	-0.025
Mof_C 	C 	0.7114	0.7843	0.8371	-0.096
Mof_C 	C 	0.7557	0.8198	0.742	-0.034
Mof_C 	C 	0.6593	0.9727	0.6934	0.306
Mof_C 	C 	0.7356	0.238	0.1407	0.134
Mof_C 	C 	0.6073	0.3299	0.2754	-0.004
Mof_C 	C 	0.5493	0.4375	0.2005	-0.075
Mof_C 	C 	0.4154	0.5949	0.1893	0.382
Mof_C 	C 	0.5559	0.3188	0.3789	0.339
Mof_C 	C 	0.8726	0.5425	0.3202	0.297
Mof_C 	C 	0.2041	0.358	0.119	0.099
Mof_C 	C 	0.0698	0.4642	0.1706	-0.108
Mof_C 	C 	0.0238	0.4291	0.2662	-0.038
Mof_C 	C 	0.1114	0.2869	0.3101	-0.025
Mof_C 	C 	0.2886	0.2157	0.1629	-0.108
Mof_C 	C 	0.2443	0.1802	0.258	-0.036
Mof_C 	C 	0.3407	0.0273	0.3066	0.302
Mof_N 	N 	0.7343	0.602	0.9756	-0.237
Mof_N 	N 	0.3681	0.623	0.8836	-0.216
Mof_N 	N 	0.2746	0.7936	0.765	-0.2
Mof_N 	N 	0.2657	0.398	0.0244	-0.44
Mof_N 	N 	0.6319	0.377	0.1164	-0.234
Mof_N 	N 	0.7254	0.2064	0.235	-0.201
Mof_O 	O 	0.6264	0.3565	0.8961	-0.387
Mof_O 	O 	0.6485	0.3343	0.7399	-0.45
Mof_O 	O 	0.4046	0.8096	0.5782	-0.433
Mof_O 	O 	0.5225	0.563	0.5792	-0.547
Mof_O 	O 	0.1617	0.4825	0.5924	-0.426
Mof_O 	O 	0.2246	0.3403	0.726	-0.394
Mof_O 	O 	0.7212	0.0104	0.6116	-0.437
Mof_O 	O 	0.5199	0.0609	0.7349	-0.367
Mof_O 	O 	0.3736	0.6435	0.1039	-0.427
Mof_O 	O 	0.3515	0.6657	0.2601	-0.457
Mof_O 	O 	0.5954	0.1904	0.4218	-0.433
Mof_O 	O 	0.4775	0.437	0.4208	-0.548
Mof_O 	O 	0.8383	0.5175	0.4076	-0.425
Mof_O 	O 	0.7754	0.6597	0.274	-0.398
Mof_O 	O 	0.2788	0.9896	0.3884	-0.437
Mof_O 	O 	0.4801	0.9391	0.2651	-0.371
_end
