data_functionalizedCrystal
_audit_creation_method	'EQeq! by Chris Wilmer'
_symmetry_space_group_name_H-M	'P1'
_symmetry_Int_Tables_number	1
_symmetry_cell_setting	triclinic
loop_
_symmetry_equiv_pos_as_xyz
  x,y,z
_cell_length_a	18.7705
_cell_length_b	18.7705
_cell_length_c	18.7705
_cell_angle_alpha	101.884
_cell_angle_beta	101.884
_cell_angle_gamma	101.884
loop_
_atom_site_label
_atom_site_type_symbol
_atom_site_fract_x
_atom_site_fract_y
_atom_site_fract_z
_atom_site_charge
Mof_Zn	Zn	0.90022	0.33305	0.7027	1.229
Mof_Zn	Zn	0.2973	0.66695	0.09978	1.229
Mof_Zn	Zn	0.80573	0.16921	0.60173	1.26
Mof_Zn	Zn	0.19427	0.39827	0.83079	1.26
Mof_Zn	Zn	0.83079	0.19427	0.39827	1.26
Mof_Zn	Zn	0.60173	0.80573	0.16921	1.26
Mof_Zn	Zn	0.7027	0.90022	0.33305	1.229
Mof_Zn	Zn	0.39827	0.83079	0.19427	1.26
Mof_Zn	Zn	0.09978	0.2973	0.66695	1.229
Mof_Zn	Zn	0.16921	0.60174	0.80573	1.26
Mof_Zn	Zn	0.66695	0.09978	0.2973	1.229
Mof_Zn	Zn	0.33305	0.7027	0.90022	1.229
Mof_H 	H 	0.6535	0.9126	0.9828	0.038
Mof_H 	H 	0.4089	0.1599	0.8658	0.072
Mof_H 	H 	0.6369	0.337	0.092	0.072
Mof_H 	H 	0.5624	0.939	0.7451	0.057
Mof_H 	H 	0.9911	0.4334	0.885	-0.047
Mof_H 	H 	0.0444	0.3725	0.1284	0.081
Mof_H 	H 	0.0915	0.5773	0.1114	0.065
Mof_H 	H 	0.0089	0.115	0.5666	-0.047
Mof_H 	H 	0.2459	0.5969	0.9164	0.491
Mof_H 	H 	0.4697	0.8556	0.9845	0.037
Mof_H 	H 	0.8264	0.7416	0.3616	0.037
Mof_H 	H 	0.4705	0.6841	0.4669	0.072
Mof_H 	H 	0.006	0.3635	0.12	-0.005
Mof_H 	H 	0.7585	0.6701	0.1335	0.036
Mof_H 	H 	0.156	0.4252	0.4924	-0.08
Mof_H 	H 	0.1335	0.7585	0.6701	0.036
Mof_H 	H 	0.6841	0.4669	0.4705	0.072
Mof_H 	H 	0.9828	0.6535	0.9126	0.037
Mof_H 	H 	0.3563	0.481	0.9345	-0.088
Mof_H 	H 	0.5331	0.3159	0.5295	0.072
Mof_H 	H 	0.7416	0.3616	0.8264	0.037
Mof_H 	H 	0.4183	0.387	0.9056	0.126
Mof_H 	H 	0.3299	0.2415	0.8665	0.036
Mof_H 	H 	0.4376	0.2549	0.061	0.056
Mof_H 	H 	0.0944	0.613	0.5817	0.126
Mof_H 	H 	0.2549	0.061	0.4376	0.056
Mof_H 	H 	0.4031	0.7541	0.0836	0.491
Mof_H 	H 	0.5295	0.5331	0.3159	0.072
Mof_H 	H 	0.88	0.6365	0.994	-0.005
Mof_H 	H 	0.5969	0.9164	0.2459	0.491
Mof_H 	H 	0.9556	0.8716	0.6275	0.081
Mof_H 	H 	0.3465	0.0172	0.0874	0.037
Mof_H 	H 	0.5817	0.0944	0.613	0.126
Mof_H 	H 	0.5807	0.5	0.4193	0.06
Mof_H 	H 	0.0874	0.3465	0.0172	0.037
Mof_H 	H 	0.12	0.006	0.3635	-0.005
Mof_H 	H 	0.613	0.5817	0.0944	0.126
Mof_H 	H 	0.0836	0.4031	0.7541	0.491
Mof_H 	H 	0.9085	0.8886	0.4227	0.065
Mof_H 	H 	0.994	0.88	0.6365	-0.005
Mof_H 	H 	0.885	0.9911	0.4334	-0.047
Mof_H 	H 	0.8486	0.4256	0.0407	0.057
Mof_H 	H 	0.5911	0.1342	0.8401	0.071
Mof_H 	H 	0.4548	0.0764	0.649	0.051
Mof_H 	H 	0.6275	0.9556	0.8716	0.081
Mof_H 	H 	0.8665	0.3299	0.2415	0.036
Mof_H 	H 	0.5666	0.0089	0.115	-0.047
Mof_H 	H 	0.3725	0.1284	0.0444	0.081
Mof_H 	H 	0.8556	0.9845	0.4697	0.037
Mof_H 	H 	0.4795	0.3921	0.1273	0.13
Mof_H 	H 	0.387	0.9056	0.4183	0.126
Mof_H 	H 	0.6365	0.994	0.88	-0.005
Mof_H 	H 	0.6384	0.2584	0.1736	0.037
Mof_H 	H 	0.2415	0.8665	0.3299	0.036
Mof_H 	H 	0.519	0.6437	0.0655	-0.088
Mof_H 	H 	0.1599	0.8658	0.4089	0.071
Mof_H 	H 	0.4193	0.5807	0.5	0.06
Mof_H 	H 	0.5744	0.1514	0.9593	0.057
Mof_H 	H 	0.092	0.6369	0.337	0.071
Mof_H 	H 	0.8401	0.5911	0.1342	0.071
Mof_H 	H 	0.3159	0.5295	0.5331	0.072
Mof_H 	H 	0.5076	0.5748	0.844	-0.08
Mof_H 	H 	0.6079	0.5205	0.8727	0.13
Mof_H 	H 	0.0214	0.0536	0.3161	-0.052
Mof_H 	H 	0.7624	0.3869	0.4704	-0.008
Mof_H 	H 	0.5205	0.8727	0.6079	0.13
Mof_H 	H 	0.1514	0.9593	0.5744	0.057
Mof_H 	H 	0.6437	0.0655	0.519	-0.088
Mof_H 	H 	0.6839	0.9464	0.9786	-0.052
Mof_H 	H 	0.3921	0.1273	0.4795	0.13
Mof_H 	H 	0.1444	0.5303	0.0155	0.037
Mof_H 	H 	0.844	0.5076	0.5748	-0.08
Mof_H 	H 	0.9236	0.5452	0.351	0.051
Mof_H 	H 	0.481	0.9345	0.3563	-0.088
Mof_H 	H 	0.2376	0.5296	0.6131	-0.008
Mof_H 	H 	0.5452	0.351	0.9236	0.051
Mof_H 	H 	0.6701	0.1335	0.7585	0.036
Mof_H 	H 	0.0764	0.649	0.4548	0.051
Mof_H 	H 	0.9164	0.2459	0.5969	0.491
Mof_H 	H 	0.061	0.4376	0.2549	0.056
Mof_H 	H 	0.337	0.092	0.6369	0.071
Mof_H 	H 	0.4227	0.9085	0.8886	0.065
Mof_H 	H 	0.0407	0.8486	0.4256	0.057
Mof_H 	H 	0.7451	0.5624	0.939	0.056
Mof_H 	H 	0.0536	0.3161	0.0214	-0.052
Mof_H 	H 	0.6131	0.2376	0.5296	-0.008
Mof_H 	H 	0.4186	0.9396	0.8895	-0.017
Mof_H 	H 	0.1273	0.4795	0.3921	0.13
Mof_H 	H 	0.2584	0.1736	0.6384	0.037
Mof_H 	H 	0.9056	0.4183	0.387	0.126
Mof_H 	H 	0.115	0.5666	0.0089	-0.047
Mof_H 	H 	0.9593	0.5744	0.1514	0.057
Mof_H 	H 	0.5748	0.844	0.5076	-0.08
Mof_H 	H 	0.4256	0.0407	0.8486	0.057
Mof_H 	H 	0.3635	0.12	0.006	-0.005
Mof_H 	H 	0.8716	0.6275	0.9556	0.081
Mof_H 	H 	0.7541	0.0836	0.4031	0.491
Mof_H 	H 	0.4669	0.4705	0.6841	0.072
Mof_H 	H 	0.5814	0.1105	0.0604	-0.017
Mof_H 	H 	0.5296	0.6131	0.2376	-0.008
Mof_H 	H 	0.663	0.3631	0.908	0.071
Mof_H 	H 	0.0155	0.1444	0.5303	0.037
Mof_H 	H 	0.4704	0.7624	0.3869	-0.008
Mof_H 	H 	0.0655	0.519	0.6437	-0.088
Mof_H 	H 	0.0172	0.0874	0.3465	0.037
Mof_H 	H 	0.8727	0.6079	0.5205	0.13
Mof_H 	H 	0.1284	0.0444	0.3725	0.081
Mof_H 	H 	0.4252	0.4924	0.156	-0.08
Mof_H 	H 	0.649	0.4548	0.0764	0.051
Mof_H 	H 	0.3616	0.8264	0.7416	0.037
Mof_H 	H 	0.4924	0.156	0.4252	-0.08
Mof_H 	H 	0.1105	0.0604	0.5814	-0.017
Mof_H 	H 	0.8886	0.4227	0.9085	0.065
Mof_H 	H 	0.939	0.7451	0.5624	0.056
Mof_H 	H 	0.3161	0.0214	0.0536	-0.052
Mof_H 	H 	0.3631	0.908	0.663	0.071
Mof_H 	H 	0.4334	0.885	0.9911	-0.047
Mof_H 	H 	0.351	0.9236	0.5452	0.051
Mof_H 	H 	0.1736	0.6384	0.2584	0.037
Mof_H 	H 	0.9396	0.8895	0.4186	-0.017
Mof_H 	H 	0.9126	0.9828	0.6535	0.037
Mof_H 	H 	0.908	0.663	0.3631	0.071
Mof_H 	H 	0.9345	0.3563	0.481	-0.088
Mof_H 	H 	0.8658	0.4089	0.1599	0.071
Mof_H 	H 	0.5	0.4193	0.5807	0.06
Mof_H 	H 	0.3869	0.4704	0.7624	-0.008
Mof_H 	H 	0.5303	0.0155	0.1444	0.037
Mof_H 	H 	0.1342	0.8401	0.5911	0.071
Mof_H 	H 	0.9786	0.6839	0.9464	-0.052
Mof_H 	H 	0.0604	0.5814	0.1105	-0.017
Mof_H 	H 	0.9464	0.9786	0.6839	-0.052
Mof_H 	H 	0.5773	0.1114	0.0915	0.065
Mof_H 	H 	0.1114	0.0915	0.5773	0.065
Mof_H 	H 	0.9845	0.4697	0.8556	0.037
Mof_H 	H 	0.8895	0.4186	0.9396	-0.017
Mof_C 	C 	0.11806	0.7505	0.38202	0.049
Mof_C 	C 	0.631	0.938	0.9601	0.246
Mof_C 	C 	0.30404	0.5	0.69596	-0.2
Mof_C 	C 	0.9601	0.631	0.938	0.246
Mof_C 	C 	0.28912	0.17103	0.68438	0.035
Mof_C 	C 	0.5481	0.5	0.4519	-0.086
Mof_C 	C 	0.4435	0.9409	0.1453	0.667
Mof_C 	C 	0.38598	0.49533	0.04865	-0.511
Mof_C 	C 	0.31115	0.94703	0.53471	-0.065
Mof_C 	C 	0.68661	0.51349	0.00506	-0.032
Mof_C 	C 	0.0558	0.4109	0.1032	-0.142
Mof_C 	C 	0.78872	0.66837	0.18016	0.039
Mof_C 	C 	0.19176	0.96756	0.55122	-0.08
Mof_C 	C 	0.42248	0.46976	0.10495	0.33
Mof_C 	C 	0.66382	0.31636	0.87748	-0.105
Mof_C 	C 	0.45564	0.41066	0.08799	-0.293
Mof_C 	C 	0.52995	0.97176	0.74644	-0.06
Mof_C 	C 	0.05297	0.68885	0.46529	-0.065
Mof_C 	C 	0.62738	0.28436	0.51746	0.058
Mof_C 	C 	0.68364	0.33618	0.12252	-0.105
Mof_C 	C 	0.0591	0.5565	0.8547	0.667
Mof_C 	C 	0.42021	0.48246	0.66933	-0.128
Mof_C 	C 	0.28436	0.51746	0.62738	0.058
Mof_C 	C 	0.68438	0.28912	0.17103	0.035
Mof_C 	C 	0.58934	0.54436	0.91201	-0.293
Mof_C 	C 	0.46976	0.10495	0.42248	0.33
Mof_C 	C 	0.4109	0.1032	0.0558	-0.142
Mof_C 	C 	0.45375	0.37846	0.01294	0.181
Mof_C 	C 	0.5565	0.8547	0.0591	0.667
Mof_C 	C 	0.5	0.5482	0.4518	0.027
Mof_C 	C 	0.3975	0.0983	0.0339	-0.004
Mof_C 	C 	0.6485	0.9381	0.4412	0.925
Mof_C 	C 	0.3515	0.5588	0.0619	0.925
Mof_C 	C 	0.4666	0.9321	0.9087	0.018
Mof_C 	C 	0.8998	0.969	0.4734	0.142
Mof_C 	C 	0.6025	0.9661	0.9017	-0.004
Mof_C 	C 	0.33163	0.21128	0.81984	0.039
Mof_C 	C 	0.5588	0.0619	0.3515	0.925
Mof_C 	C 	0.75338	0.23662	0.26835	0.38
Mof_C 	C 	0.74644	0.52995	0.97176	-0.06
Mof_C 	C 	0.1453	0.4435	0.9409	0.667
Mof_C 	C 	0.0064	0.1082	0.4541	0.055
Mof_C 	C 	0.0339	0.3975	0.0983	-0.004
Mof_C 	C 	0.5266	0.031	0.1002	0.142
Mof_C 	C 	0.0945	0.0847	0.5245	-0.11
Mof_C 	C 	0.57752	0.89505	0.53024	0.33
Mof_C 	C 	0.031	0.1002	0.5266	0.142
Mof_C 	C 	0.9334	0.56735	0.25131	0.015
Mof_C 	C 	0.7505	0.38202	0.11806	0.049
Mof_C 	C 	0.31636	0.87748	0.66382	-0.105
Mof_C 	C 	0.9153	0.9055	0.4755	-0.11
Mof_C 	C 	0.74728	0.25272	0.5	0.319
Mof_C 	C 	0.9155	0.9616	0.604	-0.145
Mof_C 	C 	0.1034	0.4184	0.0079	-0.128
Mof_C 	C 	0.0619	0.3515	0.5588	0.925
Mof_C 	C 	0.47728	0.12759	0.04519	0.078
Mof_C 	C 	0.396	0.0384	0.0845	-0.145
Mof_C 	C 	0.46372	0.97356	0.3827	0.306
Mof_C 	C 	0.9442	0.1337	0.39	0.199
Mof_C 	C 	0.369	0.0399	0.062	0.246
Mof_C 	C 	0.78394	0.71266	0.24652	-0.118
Mof_C 	C 	0.0362	0.1152	0.4962	-0.162
Mof_C 	C 	0.5999	0.4001	0.5	0.059
Mof_C 	C 	0.74869	0.43265	0.0666	0.015
Mof_C 	C 	0.9017	0.6025	0.9661	-0.004
Mof_C 	C 	0.53628	0.6173	0.02644	0.306
Mof_C 	C 	0.41822	0.40676	0.95642	-0.284
Mof_C 	C 	0.41066	0.08799	0.45564	-0.293
Mof_C 	C 	0.21128	0.81984	0.33163	0.039
Mof_C 	C 	0.02824	0.47005	0.25356	-0.06
Mof_C 	C 	0.25131	0.9334	0.56735	0.015
Mof_C 	C 	0.68885	0.46529	0.05297	-0.065
Mof_C 	C 	0.938	0.9601	0.631	0.246
Mof_C 	C 	0.6525	0.9282	0.4438	0.239
Mof_C 	C 	0.5	0.69596	0.30404	-0.2
Mof_C 	C 	0.4519	0.5481	0.5	-0.086
Mof_C 	C 	0.51754	0.57979	0.33067	-0.128
Mof_C 	C 	0.00506	0.68661	0.51349	-0.032
Mof_C 	C 	0.5245	0.0945	0.0847	-0.11
Mof_C 	C 	0.62154	0.54625	0.98706	0.181
Mof_C 	C 	0.31339	0.99494	0.48651	-0.032
Mof_C 	C 	0.61402	0.95135	0.50467	-0.511
Mof_C 	C 	0.4001	0.5	0.5999	0.059
Mof_C 	C 	0.9381	0.4412	0.6485	0.925
Mof_C 	C 	0.56735	0.25131	0.9334	0.015
Mof_C 	C 	0.96756	0.55122	0.19176	-0.08
Mof_C 	C 	0.1002	0.5266	0.031	0.142
Mof_C 	C 	0.71266	0.24652	0.78394	-0.118
Mof_C 	C 	0.4755	0.9153	0.9055	-0.11
Mof_C 	C 	0.0718	0.3475	0.5562	0.239
Mof_C 	C 	0.24652	0.78394	0.71266	-0.118
Mof_C 	C 	0.4438	0.6525	0.9282	0.239
Mof_C 	C 	0.66933	0.42021	0.48246	-0.128
Mof_C 	C 	0.9921	0.5816	0.8966	-0.128
Mof_C 	C 	0.37893	0.16273	0.81956	-0.106
Mof_C 	C 	0.0847	0.5245	0.0945	-0.11
Mof_C 	C 	0.2495	0.88194	0.61798	0.049
Mof_C 	C 	0.12759	0.04519	0.47728	0.078
Mof_C 	C 	0.9442	0.8968	0.5891	-0.142
Mof_C 	C 	0.95642	0.41822	0.40676	-0.284
Mof_C 	C 	0.82897	0.71088	0.31562	0.035
Mof_C 	C 	0.48246	0.66933	0.42021	-0.128
Mof_C 	C 	0.8966	0.9921	0.5816	-0.128
Mof_C 	C 	0.9055	0.4755	0.9153	-0.11
Mof_C 	C 	0.46529	0.05297	0.68885	-0.065
Mof_C 	C 	0.5891	0.9442	0.8968	-0.142
Mof_C 	C 	0.58178	0.04358	0.59324	-0.284
Mof_C 	C 	0.4962	0.0362	0.1152	-0.162
Mof_C 	C 	0.9087	0.4666	0.9321	0.018
Mof_C 	C 	0.51349	0.00506	0.68661	-0.032
Mof_C 	C 	0.75348	0.28734	0.21606	-0.118
Mof_C 	C 	0.44878	0.03244	0.80824	-0.08
Mof_C 	C 	0.87241	0.52272	0.95481	0.078
Mof_C 	C 	0.0845	0.396	0.0384	-0.145
Mof_C 	C 	0.80824	0.44878	0.03244	-0.08
Mof_C 	C 	0.9409	0.1453	0.4435	0.667
Mof_C 	C 	0.01294	0.45375	0.37846	0.181
Mof_C 	C 	0.5334	0.0913	0.0679	0.018
Mof_C 	C 	0.1337	0.39	0.9442	0.199
Mof_C 	C 	0.0913	0.0679	0.5334	0.018
Mof_C 	C 	0.5038	0.8848	0.9638	-0.162
Mof_C 	C 	0.94703	0.53471	0.31115	-0.065
Mof_C 	C 	0.88194	0.61798	0.2495	0.049
Mof_C 	C 	0.0666	0.74869	0.43265	0.015
Mof_C 	C 	0.4184	0.0079	0.1034	-0.128
Mof_C 	C 	0.08799	0.45564	0.41066	-0.293
Mof_C 	C 	0.98706	0.62154	0.54625	0.181
Mof_C 	C 	0.5482	0.4518	0.5	0.027
Mof_C 	C 	0.33618	0.12252	0.68364	-0.105
Mof_C 	C 	0.5562	0.0718	0.3475	0.239
Mof_C 	C 	0.8918	0.9936	0.5459	0.055
Mof_C 	C 	0.61798	0.2495	0.88194	0.049
Mof_C 	C 	0.18044	0.83727	0.62107	-0.106
Mof_C 	C 	0.8968	0.5891	0.9442	-0.142
Mof_C 	C 	0.01376	0.50103	0.19179	0.001
Mof_C 	C 	0.4412	0.6485	0.9381	0.925
Mof_C 	C 	0.54625	0.98706	0.62154	0.181
Mof_C 	C 	0.4541	0.0064	0.1082	0.055
Mof_C 	C 	0.03244	0.80824	0.44878	-0.08
Mof_C 	C 	0.0983	0.0339	0.3975	-0.004
Mof_C 	C 	0.10495	0.42248	0.46976	0.33
Mof_C 	C 	0.43265	0.0666	0.74869	0.015
Mof_C 	C 	0.4518	0.5	0.5482	0.027
Mof_C 	C 	0.5459	0.8918	0.9936	0.055
Mof_C 	C 	0.97176	0.74644	0.52995	-0.06
Mof_C 	C 	0.71088	0.31562	0.82897	0.035
Mof_C 	C 	0.16273	0.81956	0.37893	-0.106
Mof_C 	C 	0.1082	0.4541	0.0064	0.055
Mof_C 	C 	0.0558	0.61	0.8663	0.199
Mof_C 	C 	0.04865	0.38598	0.49533	-0.511
Mof_C 	C 	0.50103	0.19179	0.01376	0.001
Mof_C 	C 	0.25272	0.5	0.74728	0.319
Mof_C 	C 	0.69596	0.30404	0.5	-0.2
Mof_C 	C 	0.26835	0.75338	0.23662	0.38
Mof_C 	C 	0.89505	0.53024	0.57752	0.33
Mof_C 	C 	0.17103	0.68438	0.28912	0.035
Mof_C 	C 	0.28734	0.21606	0.75348	-0.118
Mof_C 	C 	0.51746	0.62738	0.28436	0.058
Mof_C 	C 	0.37262	0.48254	0.71564	0.058
Mof_C 	C 	0.52272	0.95481	0.87241	0.078
Mof_C 	C 	0.38202	0.11806	0.7505	0.049
Mof_C 	C 	0.95481	0.87241	0.52272	0.078
Mof_C 	C 	0.40676	0.95642	0.41822	-0.284
Mof_C 	C 	0.83727	0.62107	0.18044	-0.106
Mof_C 	C 	0.8848	0.9638	0.5038	-0.162
Mof_C 	C 	0.4734	0.8998	0.969	0.142
Mof_C 	C 	0.47005	0.25356	0.02824	-0.06
Mof_C 	C 	0.55122	0.19176	0.96756	-0.08
Mof_C 	C 	0.5	0.5999	0.4001	0.059
Mof_C 	C 	0.61	0.8663	0.0558	0.199
Mof_C 	C 	0.604	0.9155	0.9616	-0.145
Mof_C 	C 	0.0079	0.1034	0.4184	-0.128
Mof_C 	C 	0.9282	0.4438	0.6525	0.239
Mof_C 	C 	0.5	0.4519	0.5481	-0.086
Mof_C 	C 	0.98624	0.80821	0.49897	0.001
Mof_C 	C 	0.99494	0.48651	0.31339	-0.032
Mof_C 	C 	0.97356	0.3827	0.46372	0.306
Mof_C 	C 	0.54436	0.91201	0.58934	-0.293
Mof_C 	C 	0.9661	0.9017	0.6025	-0.004
Mof_C 	C 	0.39	0.9442	0.1337	0.199
Mof_C 	C 	0.81984	0.33163	0.21128	0.039
Mof_C 	C 	0.53024	0.57752	0.89505	0.33
Mof_C 	C 	0.3475	0.5562	0.0718	0.239
Mof_C 	C 	0.66837	0.18016	0.78872	0.039
Mof_C 	C 	0.0399	0.062	0.369	0.246
Mof_C 	C 	0.95135	0.50467	0.61402	-0.511
Mof_C 	C 	0.9616	0.604	0.9155	-0.145
Mof_C 	C 	0.0679	0.5334	0.0913	0.018
Mof_C 	C 	0.04519	0.47728	0.12759	0.078
Mof_C 	C 	0.81956	0.37893	0.16273	-0.106
Mof_C 	C 	0.31562	0.82897	0.71088	0.035
Mof_C 	C 	0.50467	0.61402	0.95135	-0.511
Mof_C 	C 	0.19179	0.01376	0.50103	0.001
Mof_C 	C 	0.57979	0.33067	0.51754	-0.128
Mof_C 	C 	0.5	0.74728	0.25272	0.319
Mof_C 	C 	0.49897	0.98624	0.80821	0.001
Mof_C 	C 	0.37846	0.01294	0.45375	0.181
Mof_C 	C 	0.0384	0.0845	0.396	-0.145
Mof_C 	C 	0.21606	0.75348	0.28734	-0.118
Mof_C 	C 	0.9321	0.9087	0.4666	0.018
Mof_C 	C 	0.73165	0.76338	0.24662	0.38
Mof_C 	C 	0.48651	0.31339	0.99494	-0.032
Mof_C 	C 	0.12252	0.68364	0.33618	-0.105
Mof_C 	C 	0.80821	0.49897	0.98624	0.001
Mof_C 	C 	0.59324	0.58178	0.04358	-0.284
Mof_C 	C 	0.6173	0.02644	0.53628	0.306
Mof_C 	C 	0.3827	0.46372	0.97356	0.306
Mof_C 	C 	0.25356	0.02824	0.47005	-0.06
Mof_C 	C 	0.23662	0.26835	0.75338	0.38
Mof_C 	C 	0.24662	0.73165	0.76338	0.38
Mof_C 	C 	0.02644	0.53628	0.6173	0.306
Mof_C 	C 	0.91201	0.58934	0.54436	-0.293
Mof_C 	C 	0.8547	0.0591	0.5565	0.667
Mof_C 	C 	0.53471	0.31115	0.94703	-0.065
Mof_C 	C 	0.9936	0.5459	0.8918	0.055
Mof_C 	C 	0.87748	0.66382	0.31636	-0.105
Mof_C 	C 	0.969	0.4734	0.8998	0.142
Mof_C 	C 	0.1032	0.0558	0.4109	-0.142
Mof_C 	C 	0.5816	0.8966	0.9921	-0.128
Mof_C 	C 	0.76338	0.24662	0.73165	0.38
Mof_C 	C 	0.18016	0.78872	0.66837	0.039
Mof_C 	C 	0.33067	0.51754	0.57979	-0.128
Mof_C 	C 	0.04358	0.59324	0.58178	-0.284
Mof_C 	C 	0.9638	0.5038	0.8848	-0.162
Mof_C 	C 	0.1152	0.4962	0.0362	-0.162
Mof_C 	C 	0.48254	0.71564	0.37262	0.058
Mof_C 	C 	0.71564	0.37262	0.48254	0.058
Mof_C 	C 	0.062	0.369	0.0399	0.246
Mof_C 	C 	0.8663	0.0558	0.61	0.199
Mof_C 	C 	0.62107	0.18044	0.83727	-0.106
Mof_C 	C 	0.49533	0.04865	0.38598	-0.511
Mof_O 	O 	0.1499	0.4852	0.9021	-0.342
Mof_O 	O 	0.75634	0.09811	0.36919	-0.992
Mof_O 	O 	0.7081	0.9683	0.4306	-0.259
Mof_O 	O 	0.1857	0.4365	0.93	-0.585
Mof_O 	O 	0.07	0.5635	0.8143	-0.586
Mof_O 	O 	0.8501	0.0979	0.5148	-0.342
Mof_O 	O 	0.4207	0.6565	0.8774	-2.478
Mof_O 	O 	0.8566	0.3986	0.6292	1.798
Mof_O 	O 	0.09811	0.36919	0.75634	-0.992
Mof_O 	O 	0.18385	0.68973	0.76049	-0.454
Mof_O 	O 	0.73292	0.80444	0.30908	-0.487
Mof_O 	O 	0.9935	0.4144	0.67	-0.44
Mof_O 	O 	0.93	0.1857	0.4365	-0.585
Mof_O 	O 	0.9021	0.1499	0.4852	-0.342
Mof_O 	O 	0.5856	0.0065	0.33	-0.44
Mof_O 	O 	0.19556	0.26708	0.69092	-0.487
Mof_O 	O 	0.09109	0.67704	0.8891	-0.171
Mof_O 	O 	0.46958	0.8007	0.26665	-0.515
Mof_O 	O 	0.24366	0.63081	0.90189	-0.992
Mof_O 	O 	0.2919	0.5694	0.0317	-0.259
Mof_O 	O 	0.26708	0.69092	0.19556	-0.487
Mof_O 	O 	0.4365	0.93	0.1857	-0.585
Mof_O 	O 	0.8392	0.0733	0.622	-0.265
Mof_O 	O 	0.4144	0.67	0.9935	-0.44
Mof_O 	O 	0.36919	0.75634	0.09811	-0.992
Mof_O 	O 	0.26665	0.46958	0.8007	-0.515
Mof_O 	O 	0.69092	0.19556	0.26708	-0.487
Mof_O 	O 	0.53042	0.73335	0.1993	-0.515
Mof_O 	O 	0.0065	0.33	0.5856	-0.44
Mof_O 	O 	0.63081	0.90189	0.24366	-0.992
Mof_O 	O 	0.5694	0.0317	0.2919	-0.259
Mof_O 	O 	0.4306	0.7081	0.9683	-0.259
Mof_O 	O 	0.0317	0.2919	0.5694	-0.259
Mof_O 	O 	0.8007	0.26665	0.46958	-0.515
Mof_O 	O 	0.81615	0.23951	0.31027	-0.454
Mof_O 	O 	0.3986	0.6292	0.8566	1.798
Mof_O 	O 	0.4852	0.9021	0.1499	-0.342
Mof_O 	O 	0.23951	0.31027	0.81615	-0.454
Mof_O 	O 	0.8891	0.09109	0.67704	-0.171
Mof_O 	O 	0.76049	0.18385	0.68973	-0.454
Mof_O 	O 	0.67	0.9935	0.4144	-0.44
Mof_O 	O 	0.33	0.5856	0.0065	-0.44
Mof_O 	O 	0.3708	0.6014	0.1434	1.798
Mof_O 	O 	0.1608	0.378	0.9267	-0.265
Mof_O 	O 	0.9267	0.1608	0.378	-0.265
Mof_O 	O 	0.1434	0.3708	0.6014	1.798
Mof_O 	O 	0.90189	0.24366	0.63081	-0.992
Mof_O 	O 	0.68973	0.76049	0.18385	-0.454
Mof_O 	O 	0.378	0.9267	0.1608	-0.265
Mof_O 	O 	0.5148	0.8501	0.0979	-0.342
Mof_O 	O 	0.32296	0.90891	0.1109	-0.171
Mof_O 	O 	0.6565	0.8774	0.4207	-2.478
Mof_O 	O 	0.1993	0.53042	0.73335	-0.515
Mof_O 	O 	0.73335	0.1993	0.53042	-0.515
Mof_O 	O 	0.30908	0.73292	0.80444	-0.487
Mof_O 	O 	0.31027	0.81615	0.23951	-0.454
Mof_O 	O 	0.80444	0.30908	0.73292	-0.487
Mof_O 	O 	0.6014	0.1434	0.3708	1.798
Mof_O 	O 	0.6292	0.8566	0.3986	1.798
Mof_O 	O 	0.1226	0.3435	0.5793	-2.478
Mof_O 	O 	0.622	0.8392	0.0733	-0.265
Mof_O 	O 	0.3435	0.5793	0.1226	-2.478
Mof_O 	O 	0.5793	0.1226	0.3435	-2.478
Mof_O 	O 	0.1109	0.32296	0.90891	-0.171
Mof_O 	O 	0.0733	0.622	0.8392	-0.265
Mof_O 	O 	0.8774	0.4207	0.6565	-2.478
Mof_O 	O 	0.90891	0.1109	0.32296	-0.171
Mof_O 	O 	0.0979	0.5148	0.8501	-0.342
Mof_O 	O 	0.5635	0.8143	0.07	-0.585
Mof_O 	O 	0.8143	0.07	0.5635	-0.585
Mof_O 	O 	0.67704	0.8891	0.09109	-0.171
Mof_O 	O 	0.9683	0.4306	0.7081	-0.259
_end
