data_functionalizedCrystal
_audit_creation_method	'EQeq! by Chris Wilmer'
_symmetry_space_group_name_H-M	'P1'
_symmetry_Int_Tables_number	1
_symmetry_cell_setting	triclinic
loop_
_symmetry_equiv_pos_as_xyz
  x,y,z
_cell_length_a	9.2915
_cell_length_b	15.0734
_cell_length_c	17.8179
_cell_angle_alpha	90
_cell_angle_beta	97.323
_cell_angle_gamma	90
loop_
_atom_site_label
_atom_site_type_symbol
_atom_site_fract_x
_atom_site_fract_y
_atom_site_fract_z
_atom_site_charge
Mof_Co	Co	0.42287	0.11256	0.33636	1.179
Mof_Co	Co	0.57713	0.61256	0.16364	1.18
Mof_Co	Co	0.57713	0.88744	0.66364	1.183
Mof_Co	Co	0.42287	0.38744	0.83636	1.182
Mof_Co	Co	0.5	-5.09945e-33	0.5	1.16
Mof_Co	Co	0.5	0.5	-0	1.163
Mof_H 	H 	0.046	0.8597	0.4543	0.076
Mof_H 	H 	0.7718	0.8802	0.4335	0.048
Mof_H 	H 	0.6358	0.5066	0.4481	0.062
Mof_H 	H 	0.61	0.6025	0.5621	0.051
Mof_H 	H 	0.954	0.3597	0.0457	0.065
Mof_H 	H 	0.2282	0.3802	0.0665	0.064
Mof_H 	H 	0.3642	0.0066	0.0519	0.076
Mof_H 	H 	0.39	0.1025	0.9379	0.004
Mof_H 	H 	0.954	0.1403	0.5457	0.048
Mof_H 	H 	0.2282	0.1198	0.5665	0.093
Mof_H 	H 	0.3642	0.4934	0.5519	0.062
Mof_H 	H 	0.39	0.3975	0.4379	0.049
Mof_H 	H 	0.046	0.6403	0.9543	0.054
Mof_H 	H 	0.7718	0.6198	0.9335	0.078
Mof_H 	H 	0.6358	0.9934	0.9481	0.047
Mof_H 	H 	0.61	0.8975	0.0621	0.1
Mof_C 	C 	0.053	0.9816	0.404	0.1
Mof_C 	C 	0.9955	0.9083	0.4321	-0.076
Mof_C 	C 	0.8414	0.9201	0.4211	0.019
Mof_C 	C 	0.8172	0.0006	0.3892	-0.03
Mof_C 	C 	0.6851	0.0521	0.3656	0.305
Mof_C 	C 	0.2057	0.0096	0.4015	0.259
Mof_C 	C 	0.5869	0.7055	0.4875	0.022
Mof_C 	C 	0.6136	0.6228	0.3896	0.043
Mof_C 	C 	0.6223	0.5677	0.4486	-0.058
Mof_C 	C 	0.6069	0.6216	0.5123	-0.031
Mof_C 	C 	0.5631	0.7901	0.5275	0.343
Mof_C 	C 	0.6152	0.609	0.3075	0.286
Mof_C 	C 	0.947	0.4816	0.096	0.033
Mof_C 	C 	0.0045	0.4083	0.0679	-0.053
Mof_C 	C 	0.1586	0.4201	0.0789	-0.052
Mof_C 	C 	0.1828	0.5006	0.1108	0.019
Mof_C 	C 	0.3149	0.5521	0.1344	0.287
Mof_C 	C 	0.7943	0.5096	0.0985	0.341
Mof_C 	C 	0.4131	0.2055	0.0125	-0.081
Mof_C 	C 	0.3864	0.1228	0.1104	0.062
Mof_C 	C 	0.3777	0.0677	0.0514	-0.15
Mof_C 	C 	0.3931	0.1216	0.9877	0.097
Mof_C 	C 	0.4369	0.2901	0.9725	0.43
Mof_C 	C 	0.3848	0.109	0.1925	0.275
Mof_C 	C 	0.947	0.0184	0.596	-0.053
Mof_C 	C 	0.0045	0.0917	0.5679	0.016
Mof_C 	C 	0.1586	0.0799	0.5789	-0.136
Mof_C 	C 	0.1828	0.9994	0.6108	0.083
Mof_C 	C 	0.3149	0.9479	0.6344	0.269
Mof_C 	C 	0.7943	0.9904	0.5985	0.432
Mof_C 	C 	0.4131	0.2945	0.5125	0.02
Mof_C 	C 	0.3864	0.3772	0.6104	0.043
Mof_C 	C 	0.3777	0.4323	0.5514	-0.06
Mof_C 	C 	0.3931	0.3784	0.4877	-0.03
Mof_C 	C 	0.4369	0.2099	0.4725	0.347
Mof_C 	C 	0.3848	0.391	0.6925	0.285
Mof_C 	C 	0.053	0.5184	0.904	0.005
Mof_C 	C 	0.9955	0.5917	0.9321	0.004
Mof_C 	C 	0.8414	0.5799	0.9211	-0.066
Mof_C 	C 	0.8172	0.4994	0.8892	0.031
Mof_C 	C 	0.6851	0.4479	0.8656	0.288
Mof_C 	C 	0.2057	0.4904	0.9015	0.355
Mof_C 	C 	0.5869	0.7945	0.9875	0.131
Mof_C 	C 	0.6136	0.8772	0.8896	0.021
Mof_C 	C 	0.6223	0.9323	0.9486	0.039
Mof_C 	C 	0.6069	0.8784	0.0123	-0.169
Mof_C 	C 	0.5631	0.7099	0.0275	0.255
Mof_C 	C 	0.6152	0.891	0.8075	0.297
Mof_O 	O 	0.9471	0.0395	0.3763	-0.171
Mof_O 	O 	0.6827	0.1194	0.3279	-0.325
Mof_O 	O 	0.5652	0.019	0.3863	-0.516
Mof_O 	O 	0.2281	0.0717	0.3597	-0.41
Mof_O 	O 	0.2979	0.9663	0.4456	-0.378
Mof_O 	O 	0.5902	0.7087	0.4115	-0.166
Mof_O 	O 	0.5542	0.8603	0.4913	-0.403
Mof_O 	O 	0.5578	0.7809	0.5977	-0.429
Mof_O 	O 	0.6048	0.6759	0.2646	-0.382
Mof_O 	O 	0.6218	0.5331	0.282	-0.335
Mof_O 	O 	0.0529	0.5395	0.1237	-0.16
Mof_O 	O 	0.3173	0.6194	0.1721	-0.32
Mof_O 	O 	0.4348	0.519	0.1137	-0.502
Mof_O 	O 	0.7719	0.5717	0.1403	-0.425
Mof_O 	O 	0.7021	0.4663	0.0544	-0.431
Mof_O 	O 	0.4098	0.2087	0.0885	-0.153
Mof_O 	O 	0.4458	0.3603	0.0087	-0.453
Mof_O 	O 	0.4422	0.2809	0.9023	-0.448
Mof_O 	O 	0.3952	0.1759	0.2354	-0.383
Mof_O 	O 	0.3782	0.0331	0.218	-0.349
Mof_O 	O 	0.0529	0.9605	0.6237	-0.133
Mof_O 	O 	0.3173	0.8806	0.6721	-0.31
Mof_O 	O 	0.4348	0.981	0.6137	-0.478
Mof_O 	O 	0.7719	0.9283	0.6403	-0.44
Mof_O 	O 	0.7021	0.0337	0.5544	-0.467
Mof_O 	O 	0.4098	0.2913	0.5885	-0.166
Mof_O 	O 	0.4458	0.1397	0.5087	-0.416
Mof_O 	O 	0.4422	0.2191	0.4023	-0.432
Mof_O 	O 	0.3952	0.3241	0.7354	-0.382
Mof_O 	O 	0.3782	0.4669	0.718	-0.336
Mof_O 	O 	0.9471	0.4605	0.8763	-0.143
Mof_O 	O 	0.6827	0.3806	0.8279	-0.316
Mof_O 	O 	0.5652	0.481	0.8863	-0.494
Mof_O 	O 	0.2281	0.4283	0.8597	-0.426
Mof_O 	O 	0.2979	0.5337	0.9456	-0.416
Mof_O 	O 	0.5902	0.7913	0.9115	-0.18
Mof_O 	O 	0.5542	0.6397	0.9913	-0.365
Mof_O 	O 	0.5578	0.7191	0.0977	-0.411
Mof_O 	O 	0.6048	0.8241	0.7646	-0.381
Mof_O 	O 	0.6218	0.9669	0.782	-0.322
Mof_H 	H 	0.4614	0.72	0.7226	0.111
Mof_H 	H 	0.404	0.6362	0.6929	0.108
Mof_H 	H 	0.6298	0.6164	0.7947	0.177
Mof_H 	H 	0.5962	0.5706	0.7154	0.168
Mof_H 	H 	0.6611	0.6667	0.7215	0.171
Mof_H 	H 	0.4246	0.6475	0.8408	0.187
Mof_H 	H 	0.3108	0.7107	0.7957	0.179
Mof_H 	H 	0.2982	0.6078	0.7841	0.173
Mof_C 	C 	0.5969	0.626	0.742	-0.407
Mof_C 	C 	0.3644	0.6566	0.7935	-0.424
Mof_N 	N 	0.4536	0.6621	0.7338	-0.105
Mof_H 	H 	0.5386	0.22	0.7774	0.113
Mof_H 	H 	0.596	0.1362	0.8071	0.106
Mof_H 	H 	0.3702	0.1164	0.7053	0.163
Mof_H 	H 	0.4038	0.0706	0.7846	0.152
Mof_H 	H 	0.3389	0.1667	0.7785	0.163
Mof_H 	H 	0.5754	0.1475	0.6592	0.178
Mof_H 	H 	0.6892	0.2107	0.7043	0.172
Mof_H 	H 	0.7018	0.1078	0.7159	0.161
Mof_C 	C 	0.4031	0.126	0.758	-0.386
Mof_C 	C 	0.6356	0.1566	0.7065	-0.408
Mof_N 	N 	0.5464	0.1621	0.7662	-0.112
Mof_H 	H 	0.5386	0.28	0.2774	0.111
Mof_H 	H 	0.596	0.3638	0.3071	0.109
Mof_H 	H 	0.3702	0.3836	0.2053	0.175
Mof_H 	H 	0.4038	0.4294	0.2846	0.166
Mof_H 	H 	0.3389	0.3333	0.2785	0.167
Mof_H 	H 	0.5754	0.3525	0.1592	0.184
Mof_H 	H 	0.6892	0.2893	0.2043	0.174
Mof_H 	H 	0.7018	0.3922	0.2159	0.172
Mof_C 	C 	0.4031	0.374	0.258	-0.403
Mof_C 	C 	0.6356	0.3434	0.2065	-0.419
Mof_N 	N 	0.5464	0.3379	0.2662	-0.107
Mof_H 	H 	0.4614	0.78	0.2226	0.109
Mof_H 	H 	0.404	0.8638	0.1929	0.11
Mof_H 	H 	0.6298	0.8836	0.2947	0.188
Mof_H 	H 	0.5962	0.9294	0.2154	0.181
Mof_H 	H 	0.6611	0.8333	0.2215	0.175
Mof_H 	H 	0.4246	0.8525	0.3408	0.193
Mof_H 	H 	0.3108	0.7893	0.2957	0.18
Mof_H 	H 	0.2982	0.8922	0.2841	0.185
Mof_C 	C 	0.5969	0.874	0.242	-0.423
Mof_C 	C 	0.3644	0.8434	0.2935	-0.435
Mof_N 	N 	0.4536	0.8379	0.2338	-0.1
_end
