data_functionalizedCrystal
_audit_creation_method	'EQeq! by Chris Wilmer'
_symmetry_space_group_name_H-M	'P1'
_symmetry_Int_Tables_number	1
_symmetry_cell_setting	triclinic
loop_
_symmetry_equiv_pos_as_xyz
  x,y,z
_cell_length_a	20.1405
_cell_length_b	20.1405
_cell_length_c	20.1405
_cell_angle_alpha	90
_cell_angle_beta	90
_cell_angle_gamma	90
loop_
_atom_site_label
_atom_site_type_symbol
_atom_site_fract_x
_atom_site_fract_y
_atom_site_fract_z
_atom_site_charge
Mof_Zn	Zn	0.3033	0.8089	0.19697	1.185
Mof_Zn	Zn	0.30332	0.80404	0.80794	1.144
Mof_C 	C 	0.2099	0.708	0.9638	0.194
Mof_H 	H 	0.183	0.6721	0.9784	-0.078
Mof_C 	C 	0.2415	0.7526	0.0054	-0.387
Mof_C 	C 	0.2388	0.7557	0.0748	0.75
Mof_C 	C 	0.2902	0.7798	0.9613	0.173
Mof_H 	H 	0.3307	0.7997	0.9748	-0.072
Mof_C 	C 	0.2373	0.95261	0.7106	0.204
Mof_H 	H 	0.2353	0.9564	0.6636	-0.088
Mof_C 	C 	0.2933	0.96976	0.7841	0.004
Mof_H 	H 	0.3252	0.9892	0.8129	-0.015
Mof_C 	C 	0.2509	0.0033	0.7366	-0.202
Mof_N 	N 	0.2704	0.773	0.8981	-0.307
Mof_N 	N 	0.2223	0.7222	0.9009	-0.305
Mof_N 	N 	0.2253	0.8964	0.7298	-0.318
Mof_N 	N 	0.2754	0.8969	0.7778	-0.274
Mof_O 	O 	0.2777	0.7922	0.1058	-0.652
Mof_O 	O 	0.2047	0.7268	0.1065	-0.727
Mof_Zn	Zn	0.1967	0.1911	0.69697	1.184
Mof_Zn	Zn	0.19668	0.19596	0.30794	1.143
Mof_C 	C 	0.2901	0.292	0.4638	0.193
Mof_H 	H 	0.317	0.3279	0.4784	-0.079
Mof_C 	C 	0.2585	0.2474	0.5054	-0.388
Mof_C 	C 	0.2612	0.2443	0.5748	0.749
Mof_C 	C 	0.2098	0.2202	0.4613	0.172
Mof_H 	H 	0.1693	0.2003	0.4748	-0.073
Mof_C 	C 	0.2627	0.04739	0.2106	0.204
Mof_H 	H 	0.2647	0.0436	0.1636	-0.089
Mof_C 	C 	0.2067	0.03024	0.2841	0.003
Mof_H 	H 	0.1748	0.0108	0.3129	-0.016
Mof_C 	C 	0.2491	0.9967	0.2366	-0.204
Mof_N 	N 	0.2296	0.227	0.3981	-0.307
Mof_N 	N 	0.2777	0.2778	0.4009	-0.305
Mof_N 	N 	0.2747	0.1036	0.2298	-0.318
Mof_N 	N 	0.2246	0.1031	0.2778	-0.274
Mof_O 	O 	0.2223	0.2078	0.6058	-0.652
Mof_O 	O 	0.2953	0.2732	0.6065	-0.727
Mof_Zn	Zn	0.6967	0.3089	0.30303	1.184
Mof_Zn	Zn	0.69668	0.30404	0.69206	1.143
Mof_C 	C 	0.7901	0.208	0.5362	0.193
Mof_H 	H 	0.817	0.1721	0.5216	-0.079
Mof_C 	C 	0.7585	0.2526	0.4946	-0.388
Mof_C 	C 	0.7612	0.2557	0.4252	0.749
Mof_C 	C 	0.7098	0.2798	0.5387	0.172
Mof_H 	H 	0.6693	0.2997	0.5252	-0.073
Mof_C 	C 	0.7627	0.45261	0.7894	0.203
Mof_H 	H 	0.7647	0.4564	0.8364	-0.088
Mof_C 	C 	0.7067	0.46976	0.7159	0.003
Mof_H 	H 	0.6748	0.4892	0.6871	-0.016
Mof_C 	C 	0.7491	0.5033	0.7634	-0.203
Mof_N 	N 	0.7296	0.273	0.6019	-0.307
Mof_N 	N 	0.7777	0.2222	0.5991	-0.305
Mof_N 	N 	0.7747	0.3964	0.7702	-0.318
Mof_N 	N 	0.7246	0.3969	0.7222	-0.274
Mof_O 	O 	0.7223	0.2922	0.3942	-0.652
Mof_O 	O 	0.7953	0.2268	0.3935	-0.727
Mof_Zn	Zn	0.8033	0.6911	0.80303	1.184
Mof_Zn	Zn	0.80332	0.69596	0.19206	1.143
Mof_C 	C 	0.7099	0.792	0.0362	0.192
Mof_H 	H 	0.683	0.8279	0.0216	-0.079
Mof_C 	C 	0.7415	0.7474	0.9946	-0.387
Mof_C 	C 	0.7388	0.7443	0.9252	0.749
Mof_C 	C 	0.7902	0.7202	0.0387	0.171
Mof_H 	H 	0.8307	0.7003	0.0252	-0.073
Mof_C 	C 	0.7373	0.54739	0.2894	0.203
Mof_H 	H 	0.7353	0.5436	0.3364	-0.088
Mof_C 	C 	0.7933	0.53024	0.2159	0.003
Mof_H 	H 	0.8252	0.5108	0.1871	-0.016
Mof_C 	C 	0.7509	0.4967	0.2634	-0.203
Mof_N 	N 	0.7704	0.727	0.1019	-0.307
Mof_N 	N 	0.7223	0.7778	0.0991	-0.305
Mof_N 	N 	0.7253	0.6036	0.2702	-0.318
Mof_N 	N 	0.7754	0.6031	0.2222	-0.274
Mof_O 	O 	0.7777	0.7078	0.8942	-0.652
Mof_O 	O 	0.7047	0.7732	0.8935	-0.727
Mof_Zn	Zn	0.19697	0.3033	0.8089	1.184
Mof_Zn	Zn	0.80794	0.30332	0.80404	1.143
Mof_C 	C 	0.9638	0.2099	0.708	0.193
Mof_H 	H 	0.9784	0.183	0.6721	-0.079
Mof_C 	C 	0.0054	0.2415	0.7526	-0.388
Mof_C 	C 	0.0748	0.2388	0.7557	0.749
Mof_C 	C 	0.9613	0.2902	0.7798	0.172
Mof_H 	H 	0.9748	0.3307	0.7997	-0.073
Mof_C 	C 	0.7106	0.2373	0.95261	0.203
Mof_H 	H 	0.6636	0.2353	0.9564	-0.089
Mof_C 	C 	0.7841	0.2933	0.96976	0.003
Mof_H 	H 	0.8129	0.3252	0.9892	-0.016
Mof_C 	C 	0.7366	0.2509	0.0033	-0.203
Mof_N 	N 	0.8981	0.2704	0.773	-0.307
Mof_N 	N 	0.9009	0.2223	0.7222	-0.305
Mof_N 	N 	0.7298	0.2253	0.8964	-0.318
Mof_N 	N 	0.7778	0.2754	0.8969	-0.274
Mof_O 	O 	0.1058	0.2777	0.7922	-0.652
Mof_O 	O 	0.1065	0.2047	0.7268	-0.727
Mof_Zn	Zn	0.69697	0.1967	0.1911	1.184
Mof_Zn	Zn	0.30794	0.19668	0.19596	1.143
Mof_C 	C 	0.4638	0.2901	0.292	0.193
Mof_H 	H 	0.4784	0.317	0.3279	-0.079
Mof_C 	C 	0.5054	0.2585	0.2474	-0.388
Mof_C 	C 	0.5748	0.2612	0.2443	0.749
Mof_C 	C 	0.4613	0.2098	0.2202	0.172
Mof_H 	H 	0.4748	0.1693	0.2003	-0.073
Mof_C 	C 	0.2106	0.2627	0.04739	0.204
Mof_H 	H 	0.1636	0.2647	0.0436	-0.089
Mof_C 	C 	0.2841	0.2067	0.03024	0.003
Mof_H 	H 	0.3129	0.1748	0.0108	-0.016
Mof_C 	C 	0.2366	0.2491	0.9967	-0.204
Mof_N 	N 	0.3981	0.2296	0.227	-0.307
Mof_N 	N 	0.4009	0.2777	0.2778	-0.305
Mof_N 	N 	0.2298	0.2747	0.1036	-0.318
Mof_N 	N 	0.2778	0.2246	0.1031	-0.274
Mof_O 	O 	0.6058	0.2223	0.2078	-0.652
Mof_O 	O 	0.6065	0.2953	0.2732	-0.727
Mof_Zn	Zn	0.30303	0.6967	0.3089	1.184
Mof_Zn	Zn	0.69206	0.69668	0.30404	1.143
Mof_C 	C 	0.5362	0.7901	0.208	0.193
Mof_H 	H 	0.5216	0.817	0.1721	-0.079
Mof_C 	C 	0.4946	0.7585	0.2526	-0.388
Mof_C 	C 	0.4252	0.7612	0.2557	0.749
Mof_C 	C 	0.5387	0.7098	0.2798	0.172
Mof_H 	H 	0.5252	0.6693	0.2997	-0.073
Mof_C 	C 	0.7894	0.7627	0.45261	0.203
Mof_H 	H 	0.8364	0.7647	0.4564	-0.088
Mof_C 	C 	0.7159	0.7067	0.46976	0.003
Mof_H 	H 	0.6871	0.6748	0.4892	-0.016
Mof_C 	C 	0.7634	0.7491	0.5033	-0.203
Mof_N 	N 	0.6019	0.7296	0.273	-0.307
Mof_N 	N 	0.5991	0.7777	0.2222	-0.305
Mof_N 	N 	0.7702	0.7747	0.3964	-0.318
Mof_N 	N 	0.7222	0.7246	0.3969	-0.274
Mof_O 	O 	0.3942	0.7223	0.2922	-0.652
Mof_O 	O 	0.3935	0.7953	0.2268	-0.727
Mof_Zn	Zn	0.80303	0.8033	0.6911	1.184
Mof_Zn	Zn	0.19206	0.80332	0.69596	1.143
Mof_C 	C 	0.0362	0.7099	0.792	0.192
Mof_H 	H 	0.0216	0.683	0.8279	-0.079
Mof_C 	C 	0.9946	0.7415	0.7474	-0.387
Mof_C 	C 	0.9252	0.7388	0.7443	0.749
Mof_C 	C 	0.0387	0.7902	0.7202	0.171
Mof_H 	H 	0.0252	0.8307	0.7003	-0.073
Mof_C 	C 	0.2894	0.7373	0.54739	0.203
Mof_H 	H 	0.3364	0.7353	0.5436	-0.088
Mof_C 	C 	0.2159	0.7933	0.53024	0.003
Mof_H 	H 	0.1871	0.8252	0.5108	-0.016
Mof_C 	C 	0.2634	0.7509	0.4967	-0.203
Mof_N 	N 	0.1019	0.7704	0.727	-0.307
Mof_N 	N 	0.0991	0.7223	0.7778	-0.305
Mof_N 	N 	0.2702	0.7253	0.6036	-0.318
Mof_N 	N 	0.2222	0.7754	0.6031	-0.274
Mof_O 	O 	0.8942	0.7777	0.7078	-0.652
Mof_O 	O 	0.8935	0.7047	0.7732	-0.727
Mof_Zn	Zn	0.8089	0.19697	0.3033	1.184
Mof_Zn	Zn	0.80404	0.80794	0.30332	1.143
Mof_C 	C 	0.708	0.9638	0.2099	0.193
Mof_H 	H 	0.6721	0.9784	0.183	-0.079
Mof_C 	C 	0.7526	0.0054	0.2415	-0.388
Mof_C 	C 	0.7557	0.0748	0.2388	0.749
Mof_C 	C 	0.7798	0.9613	0.2902	0.172
Mof_H 	H 	0.7997	0.9748	0.3307	-0.073
Mof_C 	C 	0.95261	0.7106	0.2373	0.203
Mof_H 	H 	0.9564	0.6636	0.2353	-0.089
Mof_C 	C 	0.96976	0.7841	0.2933	0.003
Mof_H 	H 	0.9892	0.8129	0.3252	-0.016
Mof_C 	C 	0.0033	0.7366	0.2509	-0.203
Mof_N 	N 	0.773	0.8981	0.2704	-0.307
Mof_N 	N 	0.7222	0.9009	0.2223	-0.305
Mof_N 	N 	0.8964	0.7298	0.2253	-0.318
Mof_N 	N 	0.8969	0.7778	0.2754	-0.274
Mof_O 	O 	0.7922	0.1058	0.2777	-0.652
Mof_O 	O 	0.7268	0.1065	0.2047	-0.727
Mof_Zn	Zn	0.1911	0.69697	0.1967	1.184
Mof_Zn	Zn	0.19596	0.30794	0.19668	1.143
Mof_C 	C 	0.292	0.4638	0.2901	0.193
Mof_H 	H 	0.3279	0.4784	0.317	-0.079
Mof_C 	C 	0.2474	0.5054	0.2585	-0.388
Mof_C 	C 	0.2443	0.5748	0.2612	0.749
Mof_C 	C 	0.2202	0.4613	0.2098	0.172
Mof_H 	H 	0.2003	0.4748	0.1693	-0.073
Mof_C 	C 	0.04739	0.2106	0.2627	0.204
Mof_H 	H 	0.0436	0.1636	0.2647	-0.089
Mof_C 	C 	0.03024	0.2841	0.2067	0.003
Mof_H 	H 	0.0108	0.3129	0.1748	-0.016
Mof_C 	C 	0.9967	0.2366	0.2491	-0.204
Mof_N 	N 	0.227	0.3981	0.2296	-0.307
Mof_N 	N 	0.2778	0.4009	0.2777	-0.305
Mof_N 	N 	0.1036	0.2298	0.2747	-0.318
Mof_N 	N 	0.1031	0.2778	0.2246	-0.274
Mof_O 	O 	0.2078	0.6058	0.2223	-0.652
Mof_O 	O 	0.2732	0.6065	0.2953	-0.727
Mof_Zn	Zn	0.3089	0.30303	0.6967	1.184
Mof_Zn	Zn	0.30404	0.69206	0.69668	1.143
Mof_C 	C 	0.208	0.5362	0.7901	0.193
Mof_H 	H 	0.1721	0.5216	0.817	-0.079
Mof_C 	C 	0.2526	0.4946	0.7585	-0.388
Mof_C 	C 	0.2557	0.4252	0.7612	0.749
Mof_C 	C 	0.2798	0.5387	0.7098	0.172
Mof_H 	H 	0.2997	0.5252	0.6693	-0.073
Mof_C 	C 	0.45261	0.7894	0.7627	0.203
Mof_H 	H 	0.4564	0.8364	0.7647	-0.088
Mof_C 	C 	0.46976	0.7159	0.7067	0.003
Mof_H 	H 	0.4892	0.6871	0.6748	-0.016
Mof_C 	C 	0.5033	0.7634	0.7491	-0.203
Mof_N 	N 	0.273	0.6019	0.7296	-0.307
Mof_N 	N 	0.2222	0.5991	0.7777	-0.305
Mof_N 	N 	0.3964	0.7702	0.7747	-0.318
Mof_N 	N 	0.3969	0.7222	0.7246	-0.274
Mof_O 	O 	0.2922	0.3942	0.7223	-0.652
Mof_O 	O 	0.2268	0.3935	0.7953	-0.727
Mof_Zn	Zn	0.6911	0.80303	0.8033	1.184
Mof_Zn	Zn	0.69596	0.19206	0.80332	1.143
Mof_C 	C 	0.792	0.0362	0.7099	0.192
Mof_H 	H 	0.8279	0.0216	0.683	-0.079
Mof_C 	C 	0.7474	0.9946	0.7415	-0.387
Mof_C 	C 	0.7443	0.9252	0.7388	0.749
Mof_C 	C 	0.7202	0.0387	0.7902	0.171
Mof_H 	H 	0.7003	0.0252	0.8307	-0.073
Mof_C 	C 	0.54739	0.2894	0.7373	0.203
Mof_H 	H 	0.5436	0.3364	0.7353	-0.088
Mof_C 	C 	0.53024	0.2159	0.7933	0.003
Mof_H 	H 	0.5108	0.1871	0.8252	-0.016
Mof_C 	C 	0.4967	0.2634	0.7509	-0.203
Mof_N 	N 	0.727	0.1019	0.7704	-0.307
Mof_N 	N 	0.7778	0.0991	0.7223	-0.305
Mof_N 	N 	0.6036	0.2702	0.7253	-0.318
Mof_N 	N 	0.6031	0.2222	0.7754	-0.274
Mof_O 	O 	0.7078	0.8942	0.7777	-0.652
Mof_O 	O 	0.7732	0.8935	0.7047	-0.727
Mof_Zn	Zn	0.19033	0.69033	0.80967	1.141
Mof_O 	O 	0.2483	0.7483	0.7517	-0.995
Mof_Zn	Zn	0.30967	0.30967	0.30967	1.141
Mof_O 	O 	0.2517	0.2517	0.2517	-0.995
Mof_Zn	Zn	0.80967	0.19033	0.69033	1.141
Mof_O 	O 	0.7517	0.2483	0.7483	-0.995
Mof_Zn	Zn	0.69033	0.80967	0.19033	1.141
Mof_O 	O 	0.7483	0.7517	0.2483	-0.995
Mof_O 	O 	0.2457	0.7543	0.2543	-0.798
Mof_O 	O 	0.2543	0.2457	0.7543	-0.798
Mof_O 	O 	0.7543	0.2543	0.2457	-0.798
Mof_O 	O 	0.7457	0.7457	0.7457	-0.798
_end
