data_functionalizedCrystal
_audit_creation_method	'EQeq! by Chris Wilmer'
_symmetry_space_group_name_H-M	'P1'
_symmetry_Int_Tables_number	1
_symmetry_cell_setting	triclinic
loop_
_symmetry_equiv_pos_as_xyz
  x,y,z
_cell_length_a	13.656
_cell_length_b	16.807
_cell_length_c	8.237
_cell_angle_alpha	90
_cell_angle_beta	99.089
_cell_angle_gamma	90
loop_
_atom_site_label
_atom_site_type_symbol
_atom_site_fract_x
_atom_site_fract_y
_atom_site_fract_z
_atom_site_charge
Mof_Zn	Zn	0.86331	0.02289	0.87141	1.241
Mof_O 	O 	0.1807	0.4275	0.7521	-0.457
Mof_O 	O 	0.958	0.1036	0.8216	-0.436
Mof_O 	O 	0.0825	0.02134	0.9061	-0.463
Mof_O 	O 	0.7428	0.0683	0.9371	-0.411
Mof_O 	O 	0.736	0.1295	0.6969	-0.284
Mof_C 	C 	0.1557	0.2919	0.8035	-0.093
Mof_C 	C 	0.089	0.2317	0.8215	0.044
Mof_H 	H 	0.0222	0.2436	0.8184	0.058
Mof_C 	C 	0.1214	0.1537	0.8441	-0.105
Mof_C 	C 	0.222	0.1366	0.8532	0.003
Mof_H 	H 	0.244	0.0846	0.8728	0.044
Mof_C 	C 	0.2897	0.196	0.8336	-0.03
Mof_C 	C 	0.2555	0.2742	0.8087	0
Mof_H 	H 	0.3	0.3146	0.7954	0.048
Mof_C 	C 	0.3959	0.1768	0.8356	0.075
Mof_C 	C 	0.4505	0.215	0.7302	-0.117
Mof_H 	H 	0.4209	0.2549	0.6612	0.079
Mof_C 	C 	0.5485	0.1945	0.7261	0.039
Mof_H 	H 	0.5829	0.2193	0.6513	0.043
Mof_C 	C 	0.5953	0.1379	0.8321	-0.09
Mof_C 	C 	0.5434	0.1021	0.9428	0.035
Mof_H 	H 	0.5752	0.0653	0.0174	0.04
Mof_C 	C 	0.4435	0.1204	0.9445	-0.12
Mof_H 	H 	0.4089	0.0948	0.0182	0.079
Mof_C 	C 	0.12	0.3767	0.7805	0.372
Mof_C 	C 	0.0502	0.0878	0.8623	0.386
Mof_C 	C 	0.6989	0.1116	0.819	0.318
Mof_O 	O 	0.0338	0.3913	0.7862	-0.289
Mof_Zn	Zn	0.13669	0.52289	0.62859	1.241
Mof_O 	O 	0.8193	0.9275	0.7479	-0.457
Mof_O 	O 	0.042	0.6036	0.6784	-0.433
Mof_O 	O 	0.9175	0.52134	0.5939	-0.465
Mof_O 	O 	0.2572	0.5683	0.5629	-0.411
Mof_O 	O 	0.264	0.6295	0.8031	-0.285
Mof_C 	C 	0.8443	0.7919	0.6965	-0.093
Mof_C 	C 	0.911	0.7317	0.6785	0.042
Mof_H 	H 	0.9778	0.7436	0.6816	0.056
Mof_C 	C 	0.8786	0.6537	0.6559	-0.105
Mof_C 	C 	0.778	0.6366	0.6468	0.002
Mof_H 	H 	0.756	0.5846	0.6272	0.044
Mof_C 	C 	0.7103	0.696	0.6664	-0.03
Mof_C 	C 	0.7445	0.7742	0.6913	-0.001
Mof_H 	H 	0.7	0.8146	0.7046	0.048
Mof_C 	C 	0.6041	0.6768	0.6644	0.074
Mof_C 	C 	0.5495	0.715	0.7698	-0.118
Mof_H 	H 	0.5791	0.7549	0.8388	0.079
Mof_C 	C 	0.4515	0.6945	0.7739	0.039
Mof_H 	H 	0.4171	0.7193	0.8487	0.043
Mof_C 	C 	0.4047	0.6379	0.6679	-0.09
Mof_C 	C 	0.4566	0.6021	0.5572	0.037
Mof_H 	H 	0.4248	0.5653	0.4826	0.038
Mof_C 	C 	0.5565	0.6204	0.5555	-0.12
Mof_H 	H 	0.5911	0.5948	0.4818	0.078
Mof_C 	C 	0.88	0.8767	0.7195	0.372
Mof_C 	C 	0.9498	0.5878	0.6377	0.382
Mof_C 	C 	0.3011	0.6116	0.681	0.318
Mof_O 	O 	0.9662	0.8913	0.7138	-0.289
Mof_Zn	Zn	0.13669	0.97711	0.12859	1.24
Mof_O 	O 	0.8193	0.5725	0.2479	-0.458
Mof_O 	O 	0.042	0.8964	0.1784	-0.437
Mof_O 	O 	0.9175	0.97866	0.0939	-0.464
Mof_O 	O 	0.2572	0.9317	0.0629	-0.412
Mof_O 	O 	0.264	0.8705	0.3031	-0.285
Mof_C 	C 	0.8443	0.7081	0.1965	-0.094
Mof_C 	C 	0.911	0.7683	0.1785	0.043
Mof_H 	H 	0.9778	0.7564	0.1816	0.057
Mof_C 	C 	0.8786	0.8463	0.1559	-0.106
Mof_C 	C 	0.778	0.8634	0.1468	0.003
Mof_H 	H 	0.756	0.9154	0.1272	0.044
Mof_C 	C 	0.7103	0.804	0.1664	-0.03
Mof_C 	C 	0.7445	0.7258	0.1913	0
Mof_H 	H 	0.7	0.6854	0.2046	0.048
Mof_C 	C 	0.6041	0.8232	0.1644	0.075
Mof_C 	C 	0.5495	0.785	0.2698	-0.117
Mof_H 	H 	0.5791	0.7451	0.3388	0.079
Mof_C 	C 	0.4515	0.8055	0.2739	0.039
Mof_H 	H 	0.4171	0.7807	0.3487	0.043
Mof_C 	C 	0.4047	0.8621	0.1679	-0.09
Mof_C 	C 	0.4566	0.8979	0.0572	0.035
Mof_H 	H 	0.4248	0.9347	0.9826	0.04
Mof_C 	C 	0.5565	0.8796	0.0555	-0.12
Mof_H 	H 	0.5911	0.9052	0.9818	0.079
Mof_C 	C 	0.88	0.6233	0.2195	0.372
Mof_C 	C 	0.9498	0.9122	0.1377	0.386
Mof_C 	C 	0.3011	0.8884	0.181	0.318
Mof_O 	O 	0.9662	0.6087	0.2138	-0.289
Mof_Zn	Zn	0.86331	0.47711	0.37141	1.241
Mof_O 	O 	0.1807	0.0725	0.2521	-0.457
Mof_O 	O 	0.958	0.3964	0.3216	-0.433
Mof_O 	O 	0.0825	0.47866	0.4061	-0.465
Mof_O 	O 	0.7428	0.4317	0.4371	-0.411
Mof_O 	O 	0.736	0.3705	0.1969	-0.285
Mof_C 	C 	0.1557	0.2081	0.3035	-0.093
Mof_C 	C 	0.089	0.2683	0.3215	0.042
Mof_H 	H 	0.0222	0.2564	0.3184	0.056
Mof_C 	C 	0.1214	0.3463	0.3441	-0.105
Mof_C 	C 	0.222	0.3634	0.3532	0.002
Mof_H 	H 	0.244	0.4154	0.3728	0.044
Mof_C 	C 	0.2897	0.304	0.3336	-0.03
Mof_C 	C 	0.2555	0.2258	0.3087	-0.001
Mof_H 	H 	0.3	0.1854	0.2954	0.048
Mof_C 	C 	0.3959	0.3232	0.3356	0.074
Mof_C 	C 	0.4505	0.285	0.2302	-0.118
Mof_H 	H 	0.4209	0.2451	0.1612	0.079
Mof_C 	C 	0.5485	0.3055	0.2261	0.039
Mof_H 	H 	0.5829	0.2807	0.1513	0.043
Mof_C 	C 	0.5953	0.3621	0.3321	-0.09
Mof_C 	C 	0.5434	0.3979	0.4428	0.037
Mof_H 	H 	0.5752	0.4347	0.5174	0.038
Mof_C 	C 	0.4435	0.3796	0.4445	-0.12
Mof_H 	H 	0.4089	0.4052	0.5182	0.078
Mof_C 	C 	0.12	0.1233	0.2805	0.372
Mof_C 	C 	0.0502	0.4122	0.3623	0.382
Mof_C 	C 	0.6989	0.3884	0.319	0.318
Mof_O 	O 	0.0338	0.1087	0.2862	-0.289
_end
