data_functionalizedCrystal
_audit_creation_method	'EQeq! by Chris Wilmer'
_symmetry_space_group_name_H-M	'P1'
_symmetry_Int_Tables_number	1
_symmetry_cell_setting	triclinic
loop_
_symmetry_equiv_pos_as_xyz
  x,y,z
_cell_length_a	18.6294
_cell_length_b	9.9345
_cell_length_c	14.7424
_cell_angle_alpha	90
_cell_angle_beta	90
_cell_angle_gamma	90
loop_
_atom_site_label
_atom_site_type_symbol
_atom_site_fract_x
_atom_site_fract_y
_atom_site_fract_z
_atom_site_charge
Mof_Cd	Cd	0.46845	0.95931	0.10302	0.434
Mof_Na	Na	0.55967	0.9452	0.8757	2.422
Mof_O 	O 	0.493	0.81	0.9948	-0.553
Mof_O 	O 	0.4729	0.6865	0.1162	-0.265
Mof_O 	O 	0.457	0.1817	0.0709	-0.371
Mof_O 	O 	0.4823	0.0943	0.9401	-0.68
Mof_O 	O 	0.5206	0.5077	0.7355	-0.384
Mof_H 	H 	0.5391	0.5824	0.7316	0.208
Mof_O 	O 	0.5758	0.9888	0.1655	-0.379
Mof_O 	O 	0.5228	0.128	0.2632	-0.605
Mof_O 	O 	0.8427	0.0942	0.1096	-0.34
Mof_O 	O 	0.9024	0.0672	0.2353	-0.582
Mof_O 	O 	0.7365	0.2185	0.48	-0.456
Mof_H 	H 	0.7103	0.176	0.5144	0.277
Mof_C 	C 	0.4842	0.6968	0.033	0.34
Mof_C 	C 	0.4866	0.5735	0.9742	-0.063
Mof_C 	C 	0.4795	0.4431	0.0094	-0.028
Mof_H 	H 	0.4711	0.4301	0.0709	0.056
Mof_C 	C 	0.4853	0.3332	0.9515	-0.1
Mof_C 	C 	0.4751	0.1929	0.9902	0.457
Mof_C 	C 	0.4996	0.3486	0.8591	-0.104
Mof_H 	H 	0.5048	0.2741	0.8214	0.054
Mof_C 	C 	0.506	0.48	0.8245	0.19
Mof_C 	C 	0.4973	0.5902	0.8804	-0.123
Mof_H 	H 	0.4986	0.6764	0.8559	-0.007
Mof_C 	C 	0.5763	0.0728	0.2315	0.412
Mof_C 	C 	0.6501	0.1029	0.2696	-0.103
Mof_C 	C 	0.7106	0.0869	0.2156	0.024
Mof_H 	H 	0.7059	0.0556	0.1564	0.002
Mof_C 	C 	0.7786	0.1181	0.2503	-0.132
Mof_C 	C 	0.8453	0.091	0.194	0.391
Mof_C 	C 	0.7844	0.1651	0.3391	-0.137
Mof_H 	H 	0.8293	0.1883	0.3618	0.008
Mof_C 	C 	0.7248	0.178	0.3937	0.202
Mof_C 	C 	0.6566	0.1457	0.358	-0.118
Mof_H 	H 	0.616	0.1534	0.3943	0.059
Mof_Cd	Cd	0.53155	0.04069	0.60302	0.442
Mof_Na	Na	0.44033	0.0548	0.3757	2.418
Mof_O 	O 	0.507	0.19	0.4948	-0.572
Mof_O 	O 	0.5271	0.3135	0.6162	-0.274
Mof_O 	O 	0.543	0.8183	0.5709	-0.363
Mof_O 	O 	0.5177	0.9057	0.4401	-0.681
Mof_O 	O 	0.4794	0.4923	0.2355	-0.379
Mof_H 	H 	0.4609	0.4176	0.2316	0.205
Mof_O 	O 	0.4242	0.0112	0.6655	-0.376
Mof_O 	O 	0.4772	0.872	0.7632	-0.606
Mof_O 	O 	0.1573	0.9058	0.6096	-0.338
Mof_O 	O 	0.0976	0.9328	0.7353	-0.581
Mof_O 	O 	0.2635	0.7815	0.98	-0.441
Mof_H 	H 	0.2897	0.824	0.0144	0.264
Mof_C 	C 	0.5158	0.3032	0.533	0.379
Mof_C 	C 	0.5134	0.4265	0.4742	-0.113
Mof_C 	C 	0.5205	0.5569	0.5094	0.031
Mof_H 	H 	0.5289	0.5699	0.5709	0.039
Mof_C 	C 	0.5147	0.6668	0.4515	-0.133
Mof_C 	C 	0.5249	0.8071	0.4902	0.453
Mof_C 	C 	0.5004	0.6514	0.3591	-0.081
Mof_H 	H 	0.4952	0.7259	0.3214	0.046
Mof_C 	C 	0.494	0.52	0.3245	0.169
Mof_C 	C 	0.5027	0.4098	0.3804	-0.093
Mof_H 	H 	0.5014	0.3236	0.3559	-0.017
Mof_C 	C 	0.4237	0.9272	0.7315	0.411
Mof_C 	C 	0.3499	0.8971	0.7696	-0.103
Mof_C 	C 	0.2894	0.9131	0.7156	0.025
Mof_H 	H 	0.2941	0.9444	0.6564	0.004
Mof_C 	C 	0.2214	0.8819	0.7503	-0.132
Mof_C 	C 	0.1547	0.909	0.694	0.391
Mof_C 	C 	0.2156	0.8349	0.8391	-0.134
Mof_H 	H 	0.1707	0.8117	0.8618	0.008
Mof_C 	C 	0.2752	0.822	0.8937	0.198
Mof_C 	C 	0.3434	0.8543	0.858	-0.114
Mof_H 	H 	0.384	0.8466	0.8943	0.059
Mof_Cd	Cd	0.96845	0.04069	0.10302	0.434
Mof_Na	Na	0.05967	0.0548	0.8757	2.381
Mof_O 	O 	0.993	0.19	0.9948	-0.535
Mof_O 	O 	0.9729	0.3135	0.1162	-0.26
Mof_O 	O 	0.957	0.8183	0.0709	-0.379
Mof_O 	O 	0.9823	0.9057	0.9401	-0.676
Mof_O 	O 	0.0206	0.4923	0.7355	-0.383
Mof_H 	H 	0.0391	0.4176	0.7316	0.207
Mof_O 	O 	0.0758	0.0112	0.1655	-0.38
Mof_O 	O 	0.0228	0.872	0.2632	-0.599
Mof_O 	O 	0.3427	0.9058	0.1096	-0.34
Mof_O 	O 	0.4024	0.9328	0.2353	-0.586
Mof_O 	O 	0.2365	0.7815	0.48	-0.456
Mof_H 	H 	0.2103	0.824	0.5144	0.277
Mof_C 	C 	0.9842	0.3032	0.033	0.315
Mof_C 	C 	0.9866	0.4265	0.9742	-0.036
Mof_C 	C 	0.9795	0.5569	0.0094	-0.058
Mof_H 	H 	0.9711	0.5699	0.0709	0.065
Mof_C 	C 	0.9853	0.6668	0.9515	-0.087
Mof_C 	C 	0.9751	0.8071	0.9902	0.46
Mof_C 	C 	0.9996	0.6514	0.8591	-0.1
Mof_H 	H 	0.0048	0.7259	0.8214	0.051
Mof_C 	C 	0.006	0.52	0.8245	0.184
Mof_C 	C 	0.9973	0.4098	0.8804	-0.127
Mof_H 	H 	0.9986	0.3236	0.8559	-0.001
Mof_C 	C 	0.0763	0.9272	0.2315	0.415
Mof_C 	C 	0.1501	0.8971	0.2696	-0.102
Mof_C 	C 	0.2106	0.9131	0.2156	0.025
Mof_H 	H 	0.2059	0.9444	0.1564	0.004
Mof_C 	C 	0.2786	0.8819	0.2503	-0.133
Mof_C 	C 	0.3453	0.909	0.194	0.392
Mof_C 	C 	0.2844	0.8349	0.3391	-0.137
Mof_H 	H 	0.3293	0.8117	0.3618	0.007
Mof_C 	C 	0.2248	0.822	0.3937	0.201
Mof_C 	C 	0.1566	0.8543	0.358	-0.118
Mof_H 	H 	0.116	0.8466	0.3943	0.059
Mof_Cd	Cd	0.03155	0.95931	0.60302	0.445
Mof_Na	Na	0.94033	0.9452	0.3757	2.392
Mof_O 	O 	0.007	0.81	0.4948	-0.567
Mof_O 	O 	0.0271	0.6865	0.6162	-0.273
Mof_O 	O 	0.043	0.1817	0.5709	-0.365
Mof_O 	O 	0.0177	0.0943	0.4401	-0.68
Mof_O 	O 	0.9794	0.5077	0.2355	-0.379
Mof_H 	H 	0.9609	0.5824	0.2316	0.203
Mof_O 	O 	0.9242	0.9888	0.6655	-0.381
Mof_O 	O 	0.9772	0.128	0.7632	-0.599
Mof_O 	O 	0.6573	0.0942	0.6096	-0.338
Mof_O 	O 	0.5976	0.0672	0.7353	-0.587
Mof_O 	O 	0.7635	0.2185	0.98	-0.428
Mof_H 	H 	0.7897	0.176	0.0144	0.254
Mof_C 	C 	0.0158	0.6968	0.533	0.378
Mof_C 	C 	0.0134	0.5735	0.4742	-0.114
Mof_C 	C 	0.0205	0.4431	0.5094	0.032
Mof_H 	H 	0.0289	0.4301	0.5709	0.038
Mof_C 	C 	0.0147	0.3332	0.4515	-0.135
Mof_C 	C 	0.0249	0.1929	0.4902	0.453
Mof_C 	C 	0.0004	0.3486	0.3591	-0.077
Mof_H 	H 	0.9952	0.2741	0.3214	0.045
Mof_C 	C 	0.994	0.48	0.3245	0.164
Mof_C 	C 	0.0027	0.5902	0.3804	-0.088
Mof_H 	H 	0.0014	0.6764	0.3559	-0.016
Mof_C 	C 	0.9237	0.0728	0.7315	0.417
Mof_C 	C 	0.8499	0.1029	0.7696	-0.104
Mof_C 	C 	0.7894	0.0869	0.7156	0.028
Mof_H 	H 	0.7941	0.0556	0.6564	0.004
Mof_C 	C 	0.7214	0.1181	0.7503	-0.135
Mof_C 	C 	0.6547	0.091	0.694	0.394
Mof_C 	C 	0.7156	0.1651	0.8391	-0.131
Mof_H 	H 	0.6707	0.1883	0.8618	0.005
Mof_C 	C 	0.7752	0.178	0.8937	0.194
Mof_C 	C 	0.8434	0.1457	0.858	-0.11
Mof_H 	H 	0.884	0.1534	0.8943	0.06
_end
