data_functionalizedCrystal
_audit_creation_method	'EQeq! by Chris Wilmer'
_symmetry_space_group_name_H-M	'P1'
_symmetry_Int_Tables_number	1
_symmetry_cell_setting	triclinic
loop_
_symmetry_equiv_pos_as_xyz
  x,y,z
_cell_length_a	22.0023
_cell_length_b	19.2411
_cell_length_c	8.7311
_cell_angle_alpha	90
_cell_angle_beta	90
_cell_angle_gamma	90
loop_
_atom_site_label
_atom_site_type_symbol
_atom_site_fract_x
_atom_site_fract_y
_atom_site_fract_z
_atom_site_charge
Mof_C 	C 	0.49876	0.15272	0.4433	-0.19
Mof_C 	C 	0.50143	0.18324	0.5569	-0.185
Mof_N 	N 	0.42703	0.03284	0.25144	-0.203
Mof_C 	C 	0.43098	0.96854	0.1923	-0.004
Mof_H 	H 	0.4646	0.9571	0.1287	0.002
Mof_N 	N 	0.33752	0.93208	0.3042	-0.108
Mof_C 	C 	0.38711	0.91856	0.2218	0.004
Mof_H 	H 	0.3926	0.8731	0.1819	0.012
Mof_N 	N 	0.2633	0.07958	0.4743	-0.135
Mof_C 	C 	0.33201	0.9973	0.3578	0.028
Mof_N 	N 	0.14546	0.18341	0.6467	-0.119
Mof_C 	C 	0.3768	0.04718	0.333	-0.005
Mof_H 	H 	0.3717	0.0924	0.3748	0.019
Mof_N 	N 	0.21585	0.28698	0.5092	-0.104
Mof_C 	C 	0.27621	0.01249	0.448	0.096
Mof_N 	N 	0.06905	0.80587	0.7153	-0.237
Mof_C 	C 	0.24036	0.95753	0.4991	-0.128
Mof_H 	H 	0.2513	0.9109	0.4766	0.091
Mof_C 	C 	0.18815	0.97217	0.5837	0.053
Mof_C 	C 	0.14736	0.91495	0.6318	0.05
Mof_C 	C 	0.14333	0.85415	0.5448	-0.127
Mof_H 	H 	0.1675	0.8486	0.4555	0.08
Mof_C 	C 	0.10385	0.80207	0.5895	0.064
Mof_H 	H 	0.1012	0.7615	0.5279	-0.021
Mof_C 	C 	0.07327	0.86398	0.7991	0.067
Mof_H 	H 	0.0491	0.8675	0.889	-0.02
Mof_C 	C 	0.11101	0.91933	0.7618	-0.128
Mof_H 	H 	0.112	0.9597	0.8243	0.071
Mof_C 	C 	0.17503	0.04179	0.6147	-0.125
Mof_H 	H 	0.1407	0.0539	0.675	0.073
Mof_C 	C 	0.21321	0.09354	0.5558	0.09
Mof_C 	C 	0.19675	0.16796	0.5719	0.03
Mof_C 	C 	0.12936	0.25069	0.6508	0.007
Mof_H 	H 	0.0932	0.2637	0.7029	0.002
Mof_C 	C 	0.16401	0.30156	0.5813	-0.004
Mof_H 	H 	0.1505	0.3484	0.585	0.029
Mof_C 	C 	0.23185	0.21995	0.5049	0.003
Mof_H 	H 	0.2685	0.2074	0.4544	0.045
Mof_N 	N 	0.50124	0.15272	0.0567	-0.211
Mof_C 	C 	0.49857	0.18324	0.9431	-0.165
Mof_N 	N 	0.57297	0.03284	0.24856	-0.203
Mof_C 	C 	0.56902	0.96854	0.3077	-0.003
Mof_H 	H 	0.5354	0.9571	0.3713	0.003
Mof_N 	N 	0.66248	0.93208	0.1958	-0.108
Mof_C 	C 	0.61289	0.91856	0.2782	0.004
Mof_H 	H 	0.6074	0.8731	0.3181	0.013
Mof_N 	N 	0.7367	0.07958	0.0257	-0.142
Mof_C 	C 	0.66799	0.9973	0.1422	0.025
Mof_N 	N 	0.85454	0.18341	0.8533	-0.109
Mof_C 	C 	0.6232	0.04718	0.167	-0.003
Mof_H 	H 	0.6283	0.0924	0.1252	0.017
Mof_N 	N 	0.78415	0.28698	0.9908	-0.105
Mof_C 	C 	0.72379	0.01249	0.052	0.1
Mof_N 	N 	0.93095	0.80587	0.7847	-0.207
Mof_C 	C 	0.75964	0.95753	0.0009	-0.144
Mof_H 	H 	0.7487	0.9109	0.0234	0.094
Mof_C 	C 	0.81185	0.97217	0.9163	0.073
Mof_C 	C 	0.85264	0.91495	0.8682	0.043
Mof_C 	C 	0.85667	0.85415	0.9552	-0.102
Mof_H 	H 	0.8325	0.8486	0.0445	0.072
Mof_C 	C 	0.89615	0.80207	0.9105	0.067
Mof_H 	H 	0.8988	0.7615	0.9721	0.004
Mof_C 	C 	0.92673	0.86398	0.7009	0.074
Mof_H 	H 	0.9509	0.8675	0.611	0.011
Mof_C 	C 	0.88899	0.91933	0.7382	-0.109
Mof_H 	H 	0.888	0.9597	0.6757	0.076
Mof_C 	C 	0.82497	0.04179	0.8853	-0.136
Mof_H 	H 	0.8593	0.0539	0.825	0.088
Mof_C 	C 	0.78679	0.09354	0.9442	0.103
Mof_C 	C 	0.80325	0.16796	0.9281	0.024
Mof_C 	C 	0.87064	0.25069	0.8492	0.004
Mof_H 	H 	0.9068	0.2637	0.7971	0.026
Mof_C 	C 	0.83599	0.30156	0.9187	0.002
Mof_H 	H 	0.8495	0.3484	0.915	0.036
Mof_C 	C 	0.76815	0.21995	0.9951	0.016
Mof_H 	H 	0.7315	0.2074	0.0456	0.037
Mof_C 	C 	0.99876	0.65272	0.0567	-0.03
Mof_C 	C 	0.00143	0.68324	0.9431	-0.337
Mof_N 	N 	0.92703	0.53284	0.24856	-0.187
Mof_C 	C 	0.93098	0.46854	0.3077	0.003
Mof_H 	H 	0.9646	0.4571	0.3713	0.028
Mof_N 	N 	0.83752	0.43208	0.1958	-0.108
Mof_C 	C 	0.88711	0.41856	0.2782	0.008
Mof_H 	H 	0.8926	0.3731	0.3181	0.021
Mof_N 	N 	0.7633	0.57958	0.0257	-0.141
Mof_C 	C 	0.83201	0.4973	0.1422	0.027
Mof_N 	N 	0.64546	0.68341	0.8533	-0.114
Mof_C 	C 	0.8768	0.54718	0.167	-0.002
Mof_H 	H 	0.8717	0.5924	0.1252	0.019
Mof_N 	N 	0.71585	0.78698	0.9908	-0.105
Mof_C 	C 	0.77621	0.51249	0.052	0.1
Mof_N 	N 	0.56905	0.30587	0.7847	-0.225
Mof_C 	C 	0.74036	0.45753	0.0009	-0.143
Mof_H 	H 	0.7513	0.4109	0.0234	0.094
Mof_C 	C 	0.68815	0.47217	0.9163	0.071
Mof_C 	C 	0.64736	0.41495	0.8682	0.041
Mof_C 	C 	0.64333	0.35415	0.9552	-0.105
Mof_H 	H 	0.6675	0.3486	0.0445	0.071
Mof_C 	C 	0.60385	0.30207	0.9105	0.061
Mof_H 	H 	0.6012	0.2615	0.9721	-0.007
Mof_C 	C 	0.57327	0.36398	0.7009	0.068
Mof_H 	H 	0.5491	0.3675	0.611	-0.006
Mof_C 	C 	0.61101	0.41933	0.7382	-0.115
Mof_H 	H 	0.612	0.4597	0.6757	0.072
Mof_C 	C 	0.67503	0.54179	0.8853	-0.135
Mof_H 	H 	0.6407	0.5539	0.825	0.082
Mof_C 	C 	0.71321	0.59354	0.9442	0.102
Mof_C 	C 	0.69675	0.66796	0.9281	0.024
Mof_C 	C 	0.62936	0.75069	0.8492	0.006
Mof_H 	H 	0.5932	0.7637	0.7971	0.01
Mof_C 	C 	0.66401	0.80156	0.9187	-0.002
Mof_H 	H 	0.6505	0.8484	0.915	0.031
Mof_C 	C 	0.73185	0.71995	0.9951	0.015
Mof_H 	H 	0.7685	0.7074	0.0456	0.038
Mof_N 	N 	0.00124	0.65272	0.4433	-0.286
Mof_C 	C 	0.99857	0.68324	0.5569	-0.046
Mof_N 	N 	0.07297	0.53284	0.25144	-0.214
Mof_C 	C 	0.06902	0.46854	0.1923	-0.01
Mof_H 	H 	0.0354	0.4571	0.1287	-0.017
Mof_N 	N 	0.16248	0.43208	0.3042	-0.109
Mof_C 	C 	0.11289	0.41856	0.2218	0.001
Mof_H 	H 	0.1074	0.3731	0.1819	0.007
Mof_N 	N 	0.2367	0.57958	0.4743	-0.136
Mof_C 	C 	0.16799	0.4973	0.3578	0.026
Mof_N 	N 	0.35454	0.68341	0.6467	-0.115
Mof_C 	C 	0.1232	0.54718	0.333	-0.005
Mof_H 	H 	0.1283	0.5924	0.3748	0.016
Mof_N 	N 	0.28415	0.78698	0.5092	-0.104
Mof_C 	C 	0.22379	0.51249	0.448	0.097
Mof_N 	N 	0.43095	0.30587	0.7153	-0.227
Mof_C 	C 	0.25964	0.45753	0.4991	-0.13
Mof_H 	H 	0.2487	0.4109	0.4766	0.091
Mof_C 	C 	0.31185	0.47217	0.5837	0.057
Mof_C 	C 	0.35264	0.41495	0.6318	0.052
Mof_C 	C 	0.35667	0.35415	0.5448	-0.123
Mof_H 	H 	0.3325	0.3486	0.4555	0.081
Mof_C 	C 	0.39615	0.30207	0.5895	0.069
Mof_H 	H 	0.3988	0.2615	0.5279	-0.011
Mof_C 	C 	0.42673	0.36398	0.7991	0.072
Mof_H 	H 	0.4509	0.3675	0.889	-0.005
Mof_C 	C 	0.38899	0.41933	0.7618	-0.122
Mof_H 	H 	0.388	0.4597	0.8243	0.075
Mof_C 	C 	0.32497	0.54179	0.6147	-0.127
Mof_H 	H 	0.3593	0.5539	0.675	0.079
Mof_C 	C 	0.28679	0.59354	0.5558	0.092
Mof_C 	C 	0.30325	0.66796	0.5719	0.029
Mof_C 	C 	0.37064	0.75069	0.6508	0.006
Mof_H 	H 	0.4068	0.7637	0.7029	0.01
Mof_C 	C 	0.33599	0.80156	0.5813	-0.002
Mof_H 	H 	0.3495	0.8484	0.585	0.03
Mof_C 	C 	0.26815	0.71995	0.5049	0.003
Mof_H 	H 	0.2315	0.7074	0.4544	0.045
Mof_Cu	Cu	0.5	0.10498	0.25	0.848
Mof_Cu	Cu	3.78667e-33	0.60498	0.25	0.808
Mof_Cu	Cu	0.5	0.23146	0.75	0.848
Mof_Cu	Cu	4.5306e-33	0.73146	0.75	0.819
Mof_C 	C 	0.00124	0.34728	0.9433	-0.338
Mof_C 	C 	0.99857	0.31676	0.0569	-0.02
Mof_N 	N 	0.07297	0.46716	0.75144	-0.21
Mof_C 	C 	0.06902	0.53146	0.6923	-0.009
Mof_H 	H 	0.0354	0.5429	0.6287	-0.017
Mof_N 	N 	0.16248	0.56792	0.8042	-0.108
Mof_C 	C 	0.11289	0.58144	0.7218	0.002
Mof_H 	H 	0.1074	0.6269	0.6819	0.007
Mof_N 	N 	0.2367	0.42042	0.9743	-0.131
Mof_C 	C 	0.16799	0.5027	0.8578	0.029
Mof_N 	N 	0.35454	0.31659	0.1467	-0.117
Mof_C 	C 	0.1232	0.45282	0.833	-0.006
Mof_H 	H 	0.1283	0.4076	0.8748	0.02
Mof_N 	N 	0.28415	0.21302	0.0092	-0.103
Mof_C 	C 	0.22379	0.48751	0.948	0.093
Mof_N 	N 	0.43095	0.69413	0.2153	-0.229
Mof_C 	C 	0.25964	0.54247	0.9991	-0.116
Mof_H 	H 	0.2487	0.5891	0.9766	0.088
Mof_C 	C 	0.31185	0.52783	0.0837	0.042
Mof_C 	C 	0.35264	0.58505	0.1318	0.061
Mof_C 	C 	0.35667	0.64585	0.0448	-0.14
Mof_H 	H 	0.3325	0.6514	0.9555	0.09
Mof_C 	C 	0.39615	0.69793	0.0895	0.076
Mof_H 	H 	0.3988	0.7385	0.0279	-0.015
Mof_C 	C 	0.42673	0.63602	0.2991	0.075
Mof_H 	H 	0.4509	0.6325	0.389	-0.007
Mof_C 	C 	0.38899	0.58067	0.2618	-0.128
Mof_H 	H 	0.388	0.5403	0.3243	0.076
Mof_C 	C 	0.32497	0.45821	0.1147	-0.118
Mof_H 	H 	0.3593	0.4461	0.175	0.075
Mof_C 	C 	0.28679	0.40646	0.0558	0.082
Mof_C 	C 	0.30325	0.33204	0.0719	0.034
Mof_C 	C 	0.37064	0.24931	0.1508	0.006
Mof_H 	H 	0.4068	0.2363	0.2029	0.009
Mof_C 	C 	0.33599	0.19844	0.0813	-0.004
Mof_H 	H 	0.3495	0.1516	0.085	0.029
Mof_C 	C 	0.26815	0.28005	0.0049	-0.01
Mof_H 	H 	0.2315	0.2926	0.9544	0.053
Mof_N 	N 	0.99876	0.34728	0.5567	-0.12
Mof_C 	C 	0.00143	0.31676	0.4431	-0.278
Mof_N 	N 	0.92703	0.46716	0.74856	-0.184
Mof_C 	C 	0.93098	0.53146	0.8077	0.004
Mof_H 	H 	0.9646	0.5429	0.8713	0.026
Mof_N 	N 	0.83752	0.56792	0.6958	-0.107
Mof_C 	C 	0.88711	0.58144	0.7782	0.008
Mof_H 	H 	0.8926	0.6269	0.8181	0.021
Mof_N 	N 	0.7633	0.42042	0.5257	-0.135
Mof_C 	C 	0.83201	0.5027	0.6422	0.03
Mof_N 	N 	0.64546	0.31659	0.3533	-0.116
Mof_C 	C 	0.8768	0.45282	0.667	-0.001
Mof_H 	H 	0.8717	0.4076	0.6252	0.024
Mof_N 	N 	0.71585	0.21302	0.4908	-0.104
Mof_C 	C 	0.77621	0.48751	0.552	0.097
Mof_N 	N 	0.56905	0.69413	0.2847	-0.227
Mof_C 	C 	0.74036	0.54247	0.5009	-0.129
Mof_H 	H 	0.7513	0.5891	0.5234	0.091
Mof_C 	C 	0.68815	0.52783	0.4163	0.056
Mof_C 	C 	0.64736	0.58505	0.3682	0.051
Mof_C 	C 	0.64333	0.64585	0.4552	-0.123
Mof_H 	H 	0.6675	0.6514	0.5445	0.081
Mof_C 	C 	0.60385	0.69793	0.4105	0.068
Mof_H 	H 	0.6012	0.7385	0.4721	-0.011
Mof_C 	C 	0.57327	0.63602	0.2009	0.071
Mof_H 	H 	0.5491	0.6325	0.111	-0.008
Mof_C 	C 	0.61101	0.58067	0.2382	-0.122
Mof_H 	H 	0.612	0.5403	0.1757	0.073
Mof_C 	C 	0.67503	0.45821	0.3853	-0.126
Mof_H 	H 	0.6407	0.4461	0.325	0.078
Mof_C 	C 	0.71321	0.40646	0.4442	0.091
Mof_C 	C 	0.69675	0.33204	0.4281	0.029
Mof_C 	C 	0.62936	0.24931	0.3492	0.006
Mof_H 	H 	0.5932	0.2363	0.2971	0.009
Mof_C 	C 	0.66401	0.19844	0.4187	-0.003
Mof_H 	H 	0.6505	0.1516	0.415	0.03
Mof_C 	C 	0.73185	0.28005	0.4951	0.002
Mof_H 	H 	0.7685	0.2926	0.5456	0.046
Mof_C 	C 	0.50124	0.84728	0.5567	-0.191
Mof_C 	C 	0.49857	0.81676	0.4431	-0.186
Mof_N 	N 	0.57297	0.96716	0.74856	-0.202
Mof_C 	C 	0.56902	0.03146	0.8077	-0.003
Mof_H 	H 	0.5354	0.0429	0.8713	0.005
Mof_N 	N 	0.66248	0.06792	0.6958	-0.108
Mof_C 	C 	0.61289	0.08144	0.7782	0.005
Mof_H 	H 	0.6074	0.1269	0.8181	0.013
Mof_N 	N 	0.7367	0.92042	0.5257	-0.136
Mof_C 	C 	0.66799	0.0027	0.6422	0.028
Mof_N 	N 	0.85454	0.81659	0.3533	-0.112
Mof_C 	C 	0.6232	0.95282	0.667	-0.004
Mof_H 	H 	0.6283	0.9076	0.6252	0.019
Mof_N 	N 	0.78415	0.71302	0.4908	-0.104
Mof_C 	C 	0.72379	0.98751	0.552	0.097
Mof_N 	N 	0.93095	0.19413	0.2847	-0.21
Mof_C 	C 	0.75964	0.04247	0.5009	-0.13
Mof_H 	H 	0.7487	0.0891	0.5234	0.091
Mof_C 	C 	0.81185	0.02783	0.4163	0.059
Mof_C 	C 	0.85264	0.08505	0.3682	0.052
Mof_C 	C 	0.85667	0.14585	0.4552	-0.118
Mof_H 	H 	0.8325	0.1514	0.5445	0.081
Mof_C 	C 	0.89615	0.19793	0.4105	0.074
Mof_H 	H 	0.8988	0.2385	0.4721	0.001
Mof_C 	C 	0.92673	0.13602	0.2009	0.076
Mof_H 	H 	0.9509	0.1325	0.111	0.009
Mof_C 	C 	0.88899	0.08067	0.2382	-0.116
Mof_H 	H 	0.888	0.0403	0.1757	0.077
Mof_C 	C 	0.82497	0.95821	0.3853	-0.128
Mof_H 	H 	0.8593	0.9461	0.325	0.084
Mof_C 	C 	0.78679	0.90646	0.4442	0.093
Mof_C 	C 	0.80325	0.83204	0.4281	0.029
Mof_C 	C 	0.87064	0.74931	0.3492	0.006
Mof_H 	H 	0.9068	0.7363	0.2971	0.019
Mof_C 	C 	0.83599	0.69844	0.4187	-0.001
Mof_H 	H 	0.8495	0.6516	0.415	0.033
Mof_C 	C 	0.76815	0.78005	0.4951	0.003
Mof_H 	H 	0.7315	0.7926	0.5456	0.045
Mof_N 	N 	0.49876	0.84728	0.9433	-0.202
Mof_C 	C 	0.50143	0.81676	0.0569	-0.178
Mof_N 	N 	0.42703	0.96716	0.75144	-0.202
Mof_C 	C 	0.43098	0.03146	0.6923	-0.003
Mof_H 	H 	0.4646	0.0429	0.6287	0.003
Mof_N 	N 	0.33752	0.06792	0.8042	-0.108
Mof_C 	C 	0.38711	0.08144	0.7218	0.005
Mof_H 	H 	0.3926	0.1269	0.6819	0.013
Mof_N 	N 	0.2633	0.92042	0.9743	-0.13
Mof_C 	C 	0.33201	0.0027	0.8578	0.03
Mof_N 	N 	0.14546	0.81659	0.1467	-0.121
Mof_C 	C 	0.3768	0.95282	0.833	-0.004
Mof_H 	H 	0.3717	0.9076	0.8748	0.02
Mof_N 	N 	0.21585	0.71302	0.0092	-0.103
Mof_C 	C 	0.27621	0.98751	0.948	0.092
Mof_N 	N 	0.06905	0.19413	0.2153	-0.24
Mof_C 	C 	0.24036	0.04247	0.9991	-0.114
Mof_H 	H 	0.2513	0.0891	0.9766	0.088
Mof_C 	C 	0.18815	0.02783	0.0837	0.039
Mof_C 	C 	0.14736	0.08505	0.1318	0.06
Mof_C 	C 	0.14333	0.14585	0.0448	-0.145
Mof_H 	H 	0.1675	0.1514	0.9555	0.09
Mof_C 	C 	0.10385	0.19793	0.0895	0.071
Mof_H 	H 	0.1012	0.2385	0.0279	-0.024
Mof_C 	C 	0.07327	0.13602	0.2991	0.069
Mof_H 	H 	0.0491	0.1325	0.389	-0.022
Mof_C 	C 	0.11101	0.08067	0.2618	-0.134
Mof_H 	H 	0.112	0.0403	0.3243	0.071
Mof_C 	C 	0.17503	0.95821	0.1147	-0.116
Mof_H 	H 	0.1407	0.9461	0.175	0.069
Mof_C 	C 	0.21321	0.90646	0.0558	0.08
Mof_C 	C 	0.19675	0.83204	0.0719	0.035
Mof_C 	C 	0.12936	0.74931	0.1508	0.008
Mof_H 	H 	0.0932	0.7363	0.2029	-0.005
Mof_C 	C 	0.16401	0.69844	0.0813	-0.006
Mof_H 	H 	0.1505	0.6516	0.085	0.026
Mof_C 	C 	0.23185	0.78005	0.0049	-0.01
Mof_H 	H 	0.2685	0.7926	0.9544	0.053
Mof_Cu	Cu	7.94531e-33	0.39502	0.75	0.826
Mof_Cu	Cu	0.5	0.89502	0.75	0.849
Mof_Cu	Cu	3.71965e-34	0.26854	0.25	0.813
Mof_Cu	Cu	0.5	0.76854	0.25	0.848
_end
