data_functionalizedCrystal
_audit_creation_method	'EQeq! by Chris Wilmer'
_symmetry_space_group_name_H-M	'P1'
_symmetry_Int_Tables_number	1
_symmetry_cell_setting	triclinic
loop_
_symmetry_equiv_pos_as_xyz
  x,y,z
_cell_length_a	12.6784
_cell_length_b	13.5433
_cell_length_c	17.1322
_cell_angle_alpha	77.839
_cell_angle_beta	76.404
_cell_angle_gamma	80.614
loop_
_atom_site_label
_atom_site_type_symbol
_atom_site_fract_x
_atom_site_fract_y
_atom_site_fract_z
_atom_site_charge
Mof_Cd	Cd	0.47832	0.52757	0.73899	0.499
Mof_Cd	Cd	0.72066	0.24598	0.24118	0.484
Mof_Cd	Cd	0.71925	0.30059	0.74905	0.435
Mof_Cd	Cd	0.52168	0.47243	0.26101	0.499
Mof_Cd	Cd	0.27934	0.75402	0.75882	0.483
Mof_Cd	Cd	0.28075	0.69941	0.25095	0.434
Mof_H 	H 	0.8008	0.6796	0.6578	0.042
Mof_H 	H 	0.9544	0.7486	0.6578	0.056
Mof_H 	H 	0.9762	0.5671	0.8723	0.065
Mof_H 	H 	0.7215	0.5492	0.9715	0.064
Mof_H 	H 	0.7255	0.2527	0.0696	0.061
Mof_H 	H 	0.8461	0.2135	0.9532	0.052
Mof_H 	H 	0.5258	0.7074	0.4502	0.068
Mof_H 	H 	0.1655	0.8509	0.4729	0.046
Mof_H 	H 	0.2218	0.7483	0.5843	0.066
Mof_H 	H 	0.305	0.0213	0.4138	0.16
Mof_H 	H 	0.32	0.1168	0.3441	0.166
Mof_H 	H 	0.2031	0.098	0.3959	0.158
Mof_H 	H 	0.1443	0.0856	0.2545	0.17
Mof_H 	H 	0.2576	0.128	0.2238	0.165
Mof_H 	H 	0.2399	0.0283	0.1983	0.176
Mof_H 	H 	0.6754	0.7736	0.1532	0.033
Mof_H 	H 	0.7171	0.9371	0.1364	0.065
Mof_H 	H 	0.5	0.9762	0.3414	0.072
Mof_H 	H 	0.0734	0.3245	0.6876	0.177
Mof_H 	H 	0.1746	0.3342	0.7222	0.178
Mof_H 	H 	0.1263	0.2302	0.7418	0.173
Mof_H 	H 	0.1344	0.2957	0.8874	0.166
Mof_H 	H 	0.1322	0.4098	0.8436	0.178
Mof_H 	H 	0.0336	0.3747	0.913	0.165
Mof_H 	H 	0.1992	0.3204	0.3422	0.042
Mof_H 	H 	0.0456	0.2514	0.3422	0.056
Mof_H 	H 	0.0238	0.4329	0.1277	0.065
Mof_H 	H 	0.2785	0.4508	0.0285	0.064
Mof_H 	H 	0.2745	0.7473	0.9304	0.061
Mof_H 	H 	0.1539	0.7865	0.0468	0.052
Mof_H 	H 	0.4742	0.2926	0.5498	0.068
Mof_H 	H 	0.8345	0.1491	0.5271	0.046
Mof_H 	H 	0.7782	0.2517	0.4157	0.066
Mof_H 	H 	0.695	0.9787	0.5862	0.16
Mof_H 	H 	0.68	0.8832	0.6559	0.166
Mof_H 	H 	0.7969	0.902	0.6041	0.158
Mof_H 	H 	0.8557	0.9144	0.7455	0.17
Mof_H 	H 	0.7424	0.872	0.7762	0.165
Mof_H 	H 	0.7601	0.9717	0.8017	0.176
Mof_H 	H 	0.3246	0.2264	0.8468	0.033
Mof_H 	H 	0.2829	0.0629	0.8636	0.065
Mof_H 	H 	0.5	0.0238	0.6586	0.072
Mof_H 	H 	0.9266	0.6755	0.3124	0.177
Mof_H 	H 	0.8254	0.6658	0.2778	0.178
Mof_H 	H 	0.8737	0.7698	0.2582	0.173
Mof_H 	H 	0.8656	0.7043	0.1126	0.166
Mof_H 	H 	0.8678	0.5902	0.1564	0.178
Mof_H 	H 	0.9664	0.6253	0.087	0.165
Mof_C 	C 	0.6948	0.5391	0.7596	0.315
Mof_C 	C 	0.7977	0.5792	0.7623	-0.087
Mof_C 	C 	0.837	0.6559	0.7007	-0
Mof_C 	C 	0.9282	0.6984	0.7009	-0.056
Mof_C 	C 	0.9812	0.6654	0.7664	-0.032
Mof_C 	C 	0.9413	0.5887	0.8286	-0.07
Mof_C 	C 	0.8519	0.5432	0.8281	0.044
Mof_C 	C 	0.0827	0.7077	0.7677	0.282
Mof_C 	C 	0.8168	0.4588	0.8967	0.017
Mof_C 	C 	0.7464	0.4816	0.9675	-0.042
Mof_C 	C 	0.7121	0.4048	0.0332	-0.044
Mof_C 	C 	0.7489	0.3045	0.0269	-0.021
Mof_C 	C 	0.8207	0.281	0.957	-0.034
Mof_C 	C 	0.855	0.3581	0.8926	-0.041
Mof_C 	C 	0.6349	0.432	0.1083	0.301
Mof_C 	C 	0.9303	0.3267	0.8173	0.182
Mof_C 	C 	0.4169	0.645	0.5991	0.296
Mof_C 	C 	0.3797	0.7151	0.5277	-0.039
Mof_C 	C 	0.4538	0.7374	0.4546	-0.044
Mof_C 	C 	0.4234	0.803	0.3881	0.014
Mof_C 	C 	0.3124	0.8454	0.3952	-0.05
Mof_C 	C 	0.2383	0.8231	0.4686	-0.028
Mof_C 	C 	0.2714	0.7605	0.5348	-0.034
Mof_C 	C 	0.273	0.9068	0.3226	0.181
Mof_C 	C 	0.2729	0.0658	0.3718	-0.41
Mof_C 	C 	0.222	0.0674	0.2413	-0.416
Mof_C 	C 	0.5445	0.6669	0.2677	0.32
Mof_C 	C 	0.5613	0.7765	0.2575	-0.1
Mof_C 	C 	0.64	0.8143	0.1913	0.01
Mof_C 	C 	0.666	0.9117	0.1818	-0.064
Mof_C 	C 	0.6166	0.9713	0.2392	-0.019
Mof_C 	C 	0.5356	0.9346	0.304	-0.077
Mof_C 	C 	0.5067	0.838	0.3142	0.051
Mof_C 	C 	0.655	0.0719	0.2352	0.27
Mof_C 	C 	0.1088	0.3028	0.7332	-0.425
Mof_C 	C 	0.0886	0.3552	0.8681	-0.424
Mof_C 	C 	0.3052	0.4609	0.2404	0.315
Mof_C 	C 	0.2023	0.4208	0.2377	-0.087
Mof_C 	C 	0.163	0.3441	0.2993	-0
Mof_C 	C 	0.0718	0.3016	0.2991	-0.056
Mof_C 	C 	0.0188	0.3346	0.2336	-0.032
Mof_C 	C 	0.0587	0.4113	0.1714	-0.07
Mof_C 	C 	0.1481	0.4568	0.1719	0.044
Mof_C 	C 	0.9173	0.2923	0.2323	0.282
Mof_C 	C 	0.1832	0.5412	0.1033	0.017
Mof_C 	C 	0.2536	0.5184	0.0325	-0.042
Mof_C 	C 	0.2879	0.5952	0.9668	-0.044
Mof_C 	C 	0.2511	0.6955	0.9731	-0.021
Mof_C 	C 	0.1793	0.719	0.043	-0.034
Mof_C 	C 	0.145	0.6419	0.1074	-0.041
Mof_C 	C 	0.3651	0.568	0.8917	0.301
Mof_C 	C 	0.0697	0.6733	0.1827	0.182
Mof_C 	C 	0.5831	0.355	0.4009	0.296
Mof_C 	C 	0.6203	0.2849	0.4723	-0.039
Mof_C 	C 	0.5462	0.2626	0.5454	-0.044
Mof_C 	C 	0.5766	0.197	0.6119	0.014
Mof_C 	C 	0.6876	0.1546	0.6048	-0.05
Mof_C 	C 	0.7617	0.1769	0.5314	-0.028
Mof_C 	C 	0.7286	0.2395	0.4652	-0.034
Mof_C 	C 	0.727	0.0932	0.6774	0.181
Mof_C 	C 	0.7271	0.9342	0.6282	-0.41
Mof_C 	C 	0.778	0.9326	0.7587	-0.416
Mof_C 	C 	0.4555	0.3331	0.7323	0.32
Mof_C 	C 	0.4387	0.2235	0.7425	-0.1
Mof_C 	C 	0.36	0.1857	0.8087	0.01
Mof_C 	C 	0.334	0.0883	0.8182	-0.064
Mof_C 	C 	0.3834	0.0287	0.7608	-0.019
Mof_C 	C 	0.4644	0.0654	0.696	-0.077
Mof_C 	C 	0.4933	0.162	0.6858	0.051
Mof_C 	C 	0.345	0.9281	0.7648	0.27
Mof_C 	C 	0.8912	0.6972	0.2668	-0.425
Mof_C 	C 	0.9114	0.6448	0.1319	-0.424
Mof_N 	N 	0.0353	0.3327	0.8066	-0.038
Mof_N 	N 	0.2586	0.0069	0.3134	-0.039
Mof_N 	N 	0.9647	0.6673	0.1934	-0.038
Mof_N 	N 	0.7414	0.9931	0.6866	-0.039
Mof_O 	O 	0.8932	0.294	0.768	-0.249
Mof_O 	O 	0.6753	0.4519	0.7965	-0.281
Mof_O 	O 	0.632	0.598	0.719	-0.275
Mof_O 	O 	0.6151	0.1192	0.295	-0.264
Mof_O 	O 	0.7279	0.1044	0.1772	-0.268
Mof_O 	O 	0.5024	0.5861	0.5889	-0.248
Mof_O 	O 	0.3576	0.6475	0.6702	-0.288
Mof_O 	O 	0.5955	0.52	0.1117	-0.258
Mof_O 	O 	0.6125	0.3601	0.1698	-0.286
Mof_O 	O 	0.1146	0.7811	0.7137	-0.274
Mof_O 	O 	0.1338	0.6657	0.8225	-0.273
Mof_O 	O 	0.4478	0.6425	0.2864	-0.294
Mof_O 	O 	0.6249	0.6031	0.257	-0.278
Mof_O 	O 	0.2537	0.8634	0.271	-0.252
Mof_O 	O 	0.1068	0.706	0.232	-0.249
Mof_O 	O 	0.3247	0.5481	0.2035	-0.281
Mof_O 	O 	0.368	0.402	0.281	-0.275
Mof_O 	O 	0.3849	0.8808	0.705	-0.264
Mof_O 	O 	0.2721	0.8956	0.8228	-0.268
Mof_O 	O 	0.4976	0.4139	0.4111	-0.248
Mof_O 	O 	0.6424	0.3525	0.3298	-0.288
Mof_O 	O 	0.4045	0.48	0.8883	-0.258
Mof_O 	O 	0.3875	0.6399	0.8302	-0.286
Mof_O 	O 	0.8854	0.2189	0.2863	-0.274
Mof_O 	O 	0.8662	0.3343	0.1775	-0.273
Mof_O 	O 	0.5522	0.3575	0.7136	-0.294
Mof_O 	O 	0.3751	0.3969	0.743	-0.278
Mof_O 	O 	0.7463	0.1366	0.729	-0.252
_end
