data_functionalizedCrystal
_audit_creation_method	'EQeq! by Chris Wilmer'
_symmetry_space_group_name_H-M	'P1'
_symmetry_Int_Tables_number	1
_symmetry_cell_setting	triclinic
loop_
_symmetry_equiv_pos_as_xyz
  x,y,z
_cell_length_a	17.4935
_cell_length_b	26.0116
_cell_length_c	15.8081
_cell_angle_alpha	90
_cell_angle_beta	114.995
_cell_angle_gamma	90
loop_
_atom_site_label
_atom_site_type_symbol
_atom_site_fract_x
_atom_site_fract_y
_atom_site_fract_z
_atom_site_charge
Mof_U 	U 	0.64677	0.7347	0.57713	0.014
Mof_Cu	Cu	0.75966	0.47113	0.48597	0.897
Mof_C 	C 	0.9321	0.6196	0.6005	0.045
Mof_H 	H 	0.9671	0.6483	0.6174	0.045
Mof_N 	N 	0.6951	0.4069	0.4321	-0.215
Mof_C 	C 	0.9652	0.5708	0.6137	-0.114
Mof_H 	H 	0.0234	0.5661	0.6431	0.086
Mof_N 	N 	0.7169	0.4547	0.5857	-0.217
Mof_C 	C 	0.7965	0.5817	0.534	0.073
Mof_H 	H 	0.7381	0.5854	0.5073	0.027
Mof_N 	N 	0.883	0.4399	0.5483	-0.211
Mof_C 	C 	0.0288	0.461	0.628	-0.142
Mof_H 	H 	0.0706	0.4854	0.6566	0.099
Mof_N 	N 	0.8295	0.5342	0.5443	-0.215
Mof_C 	C 	0.639	0.3427	0.3162	-0.088
Mof_C 	C 	0.8032	0.6767	0.5451	0.308
Mof_C 	C 	0.6728	0.4098	0.5703	0.066
Mof_C 	C 	0.7398	0.4795	0.6661	0.078
Mof_H 	H 	0.7715	0.5095	0.6763	0.014
Mof_C 	C 	0.8455	0.6247	0.5614	-0.087
Mof_C 	C 	0.6877	0.3869	0.3526	0.074
Mof_H 	H 	0.7152	0.4023	0.3201	0.027
Mof_C 	C 	0.9868	0.3757	0.5835	-0.116
Mof_C 	C 	0.5965	0.3208	0.3634	0.04
Mof_H 	H 	0.5624	0.2921	0.339	0.062
Mof_C 	C 	0.906	0.3914	0.5472	0.092
Mof_H 	H 	0.864	0.3669	0.5197	0.017
Mof_C 	C 	0.6723	0.4195	0.7191	0.062
Mof_H 	H 	0.6548	0.4082	0.7639	0.039
Mof_C 	C 	0.9124	0.5284	0.5834	0.063
Mof_C 	C 	0.6052	0.3417	0.4469	-0.096
Mof_H 	H 	0.5772	0.3273	0.4797	0.094
Mof_C 	C 	0.0482	0.4113	0.6236	0.076
Mof_H 	H 	0.1044	0.4012	0.6485	0.029
Mof_C 	C 	0.6565	0.3848	0.482	0.056
Mof_C 	C 	0.9437	0.4744	0.588	0.074
Mof_C 	C 	0.006	0.3188	0.5743	0.318
Mof_O 	O 	0.8459	0.7146	0.5434	-0.183
Mof_O 	O 	0.7284	0.6772	0.5341	-0.187
Mof_O 	O 	0.6762	0.3392	0.1863	-0.194
Mof_O 	O 	0.5997	0.276	0.2024	-0.191
Mof_O 	O 	0.0802	0.3095	0.5856	-0.195
Mof_C 	C 	0.6384	0.3181	0.2299	0.287
Mof_O 	O 	0.9498	0.2865	0.5556	-0.221
Mof_C 	C 	0.6488	0.3901	0.6356	-0.117
Mof_H 	H 	0.619	0.3594	0.6262	0.092
Mof_C 	C 	0.7473	0.4954	0.8269	0.362
Mof_C 	C 	0.7174	0.4616	0.7355	-0.112
Mof_O 	O 	0.7023	0.4888	0.8685	-0.393
Mof_O 	O 	0.8056	0.5235	0.8433	-0.328
Mof_U 	U 	0.14677	0.2347	0.57713	0.014
Mof_Cu	Cu	0.25966	0.97113	0.48597	0.898
Mof_C 	C 	0.4321	0.1196	0.6005	0.046
Mof_H 	H 	0.4671	0.1483	0.6174	0.047
Mof_N 	N 	0.1951	0.9069	0.4321	-0.215
Mof_C 	C 	0.4652	0.0708	0.6137	-0.112
Mof_H 	H 	0.5234	0.0661	0.6431	0.085
Mof_N 	N 	0.2169	0.9547	0.5857	-0.217
Mof_C 	C 	0.2965	0.0817	0.534	0.073
Mof_H 	H 	0.2381	0.0854	0.5073	0.027
Mof_N 	N 	0.383	0.9399	0.5483	-0.211
Mof_C 	C 	0.5288	0.961	0.628	-0.142
Mof_H 	H 	0.5706	0.9854	0.6566	0.099
Mof_N 	N 	0.3295	0.0342	0.5443	-0.214
Mof_C 	C 	0.139	0.8427	0.3162	-0.088
Mof_C 	C 	0.3032	0.1767	0.5451	0.308
Mof_C 	C 	0.1728	0.9098	0.5703	0.066
Mof_C 	C 	0.2398	0.9795	0.6661	0.079
Mof_H 	H 	0.2715	0.0095	0.6763	0.013
Mof_C 	C 	0.3455	0.1247	0.5614	-0.086
Mof_C 	C 	0.1877	0.8869	0.3526	0.074
Mof_H 	H 	0.2152	0.9023	0.3201	0.027
Mof_C 	C 	0.4868	0.8757	0.5835	-0.115
Mof_C 	C 	0.0965	0.8208	0.3634	0.04
Mof_H 	H 	0.0624	0.7921	0.339	0.062
Mof_C 	C 	0.406	0.8914	0.5472	0.092
Mof_H 	H 	0.364	0.8669	0.5197	0.017
Mof_C 	C 	0.1723	0.9195	0.7191	0.062
Mof_H 	H 	0.1548	0.9082	0.7639	0.04
Mof_C 	C 	0.4124	0.0284	0.5834	0.062
Mof_C 	C 	0.1052	0.8417	0.4469	-0.096
Mof_H 	H 	0.0772	0.8273	0.4797	0.094
Mof_C 	C 	0.5482	0.9113	0.6236	0.076
Mof_H 	H 	0.6044	0.9012	0.6485	0.029
Mof_C 	C 	0.1565	0.8848	0.482	0.056
Mof_C 	C 	0.4437	0.9744	0.588	0.075
Mof_C 	C 	0.506	0.8188	0.5743	0.318
Mof_O 	O 	0.3459	0.2146	0.5434	-0.183
Mof_O 	O 	0.2284	0.1772	0.5341	-0.187
Mof_O 	O 	0.1762	0.8392	0.1863	-0.194
Mof_O 	O 	0.0997	0.776	0.2024	-0.191
Mof_O 	O 	0.5802	0.8095	0.5856	-0.195
Mof_C 	C 	0.1384	0.8181	0.2299	0.287
Mof_O 	O 	0.4498	0.7865	0.5556	-0.221
Mof_C 	C 	0.1488	0.8901	0.6356	-0.117
Mof_H 	H 	0.119	0.8594	0.6262	0.092
Mof_C 	C 	0.2473	0.9954	0.8269	0.363
Mof_C 	C 	0.2174	0.9616	0.7355	-0.113
Mof_O 	O 	0.2023	0.9888	0.8685	-0.392
Mof_O 	O 	0.3056	0.0235	0.8433	-0.328
Mof_U 	U 	0.35323	0.7347	0.92287	0.015
Mof_Cu	Cu	0.24034	0.47113	0.01403	0.897
Mof_C 	C 	0.0679	0.6196	0.8995	0.044
Mof_H 	H 	0.0329	0.6483	0.8826	0.047
Mof_N 	N 	0.3049	0.4069	0.0679	-0.215
Mof_C 	C 	0.0348	0.5708	0.8863	-0.11
Mof_H 	H 	0.9766	0.5661	0.8569	0.083
Mof_N 	N 	0.2831	0.4547	0.9143	-0.217
Mof_C 	C 	0.2035	0.5817	0.966	0.072
Mof_H 	H 	0.2619	0.5854	0.9927	0.027
Mof_N 	N 	0.117	0.4399	0.9517	-0.211
Mof_C 	C 	0.9712	0.461	0.872	-0.143
Mof_H 	H 	0.9294	0.4854	0.8434	0.099
Mof_N 	N 	0.1705	0.5342	0.9557	-0.214
Mof_C 	C 	0.361	0.3427	0.1838	-0.088
Mof_C 	C 	0.1968	0.6767	0.9549	0.307
Mof_C 	C 	0.3272	0.4098	0.9297	0.066
Mof_C 	C 	0.2602	0.4795	0.8339	0.078
Mof_H 	H 	0.2285	0.5095	0.8237	0.014
Mof_C 	C 	0.1545	0.6247	0.9386	-0.085
Mof_C 	C 	0.3123	0.3869	0.1474	0.074
Mof_H 	H 	0.2848	0.4023	0.1799	0.027
Mof_C 	C 	0.0132	0.3757	0.9165	-0.112
Mof_C 	C 	0.4035	0.3208	0.1366	0.04
Mof_H 	H 	0.4376	0.2921	0.161	0.062
Mof_C 	C 	0.094	0.3914	0.9528	0.091
Mof_H 	H 	0.136	0.3669	0.9803	0.017
Mof_C 	C 	0.3277	0.4195	0.7809	0.062
Mof_H 	H 	0.3452	0.4082	0.7361	0.04
Mof_C 	C 	0.0876	0.5284	0.9166	0.061
Mof_C 	C 	0.3948	0.3417	0.0531	-0.096
Mof_H 	H 	0.4228	0.3273	0.0203	0.094
Mof_C 	C 	0.9518	0.4113	0.8764	0.073
Mof_H 	H 	0.8956	0.4012	0.8515	0.029
Mof_C 	C 	0.3435	0.3848	0.018	0.056
Mof_C 	C 	0.0563	0.4744	0.912	0.076
Mof_C 	C 	0.994	0.3188	0.9257	0.315
Mof_O 	O 	0.1541	0.7146	0.9566	-0.182
Mof_O 	O 	0.2716	0.6772	0.9659	-0.186
Mof_O 	O 	0.3238	0.3392	0.3137	-0.194
Mof_O 	O 	0.4003	0.276	0.2976	-0.191
Mof_O 	O 	0.9198	0.3095	0.9144	-0.195
Mof_C 	C 	0.3616	0.3181	0.2701	0.287
Mof_O 	O 	0.0502	0.2865	0.9444	-0.22
Mof_C 	C 	0.3512	0.3901	0.8644	-0.117
Mof_H 	H 	0.381	0.3594	0.8738	0.092
Mof_C 	C 	0.2527	0.4954	0.6731	0.362
Mof_C 	C 	0.2826	0.4616	0.7645	-0.112
Mof_O 	O 	0.2977	0.4888	0.6315	-0.392
Mof_O 	O 	0.1944	0.5235	0.6567	-0.328
Mof_U 	U 	0.85323	0.2347	0.92287	0.014
Mof_Cu	Cu	0.74034	0.97113	0.01403	0.898
Mof_C 	C 	0.5679	0.1196	0.8995	0.045
Mof_H 	H 	0.5329	0.1483	0.8826	0.047
Mof_N 	N 	0.8049	0.9069	0.0679	-0.215
Mof_C 	C 	0.5348	0.0708	0.8863	-0.112
Mof_H 	H 	0.4766	0.0661	0.8569	0.085
Mof_N 	N 	0.7831	0.9547	0.9143	-0.217
Mof_C 	C 	0.7035	0.0817	0.966	0.073
Mof_H 	H 	0.7619	0.0854	0.9927	0.027
Mof_N 	N 	0.617	0.9399	0.9517	-0.211
Mof_C 	C 	0.4712	0.961	0.872	-0.143
Mof_H 	H 	0.4294	0.9854	0.8434	0.1
Mof_N 	N 	0.6705	0.0342	0.9557	-0.214
Mof_C 	C 	0.861	0.8427	0.1838	-0.088
Mof_C 	C 	0.6968	0.1767	0.9549	0.308
Mof_C 	C 	0.8272	0.9098	0.9297	0.066
Mof_C 	C 	0.7602	0.9795	0.8339	0.079
Mof_H 	H 	0.7285	0.0095	0.8237	0.013
Mof_C 	C 	0.6545	0.1247	0.9386	-0.086
Mof_C 	C 	0.8123	0.8869	0.1474	0.074
Mof_H 	H 	0.7848	0.9023	0.1799	0.027
Mof_C 	C 	0.5132	0.8757	0.9165	-0.115
Mof_C 	C 	0.9035	0.8208	0.1366	0.04
Mof_H 	H 	0.9376	0.7921	0.161	0.062
Mof_C 	C 	0.594	0.8914	0.9528	0.092
Mof_H 	H 	0.636	0.8669	0.9803	0.017
Mof_C 	C 	0.8277	0.9195	0.7809	0.062
Mof_H 	H 	0.8452	0.9082	0.7361	0.039
Mof_C 	C 	0.5876	0.0284	0.9166	0.061
Mof_C 	C 	0.8948	0.8417	0.0531	-0.096
Mof_H 	H 	0.9228	0.8273	0.0203	0.095
Mof_C 	C 	0.4518	0.9113	0.8764	0.076
Mof_H 	H 	0.3956	0.9012	0.8515	0.029
Mof_C 	C 	0.8435	0.8848	0.018	0.056
Mof_C 	C 	0.5563	0.9744	0.912	0.076
Mof_C 	C 	0.494	0.8188	0.9257	0.318
Mof_O 	O 	0.6541	0.2146	0.9566	-0.183
Mof_O 	O 	0.7716	0.1772	0.9659	-0.187
Mof_O 	O 	0.8238	0.8392	0.3137	-0.194
Mof_O 	O 	0.9003	0.776	0.2976	-0.191
Mof_O 	O 	0.4198	0.8095	0.9144	-0.195
Mof_C 	C 	0.8616	0.8181	0.2701	0.287
Mof_O 	O 	0.5502	0.7865	0.9444	-0.221
Mof_C 	C 	0.8512	0.8901	0.8644	-0.117
Mof_H 	H 	0.881	0.8594	0.8738	0.092
Mof_C 	C 	0.7527	0.9954	0.6731	0.362
Mof_C 	C 	0.7826	0.9616	0.7645	-0.113
Mof_O 	O 	0.7977	0.9888	0.6315	-0.393
Mof_O 	O 	0.6944	0.0235	0.6567	-0.328
Mof_U 	U 	0.35323	0.2653	0.42287	0.015
Mof_Cu	Cu	0.24034	0.52887	0.51403	0.898
Mof_C 	C 	0.0679	0.3804	0.3995	0.046
Mof_H 	H 	0.0329	0.3517	0.3826	0.046
Mof_N 	N 	0.3049	0.5931	0.5679	-0.215
Mof_C 	C 	0.0348	0.4292	0.3863	-0.114
Mof_H 	H 	0.9766	0.4339	0.3569	0.086
Mof_N 	N 	0.2831	0.5453	0.4143	-0.217
Mof_C 	C 	0.2035	0.4183	0.466	0.073
Mof_H 	H 	0.2619	0.4146	0.4927	0.027
Mof_N 	N 	0.117	0.5601	0.4517	-0.211
Mof_C 	C 	0.9712	0.539	0.372	-0.142
Mof_H 	H 	0.9294	0.5146	0.3434	0.099
Mof_N 	N 	0.1705	0.4658	0.4557	-0.215
Mof_C 	C 	0.361	0.6573	0.6838	-0.088
Mof_C 	C 	0.1968	0.3233	0.4549	0.308
Mof_C 	C 	0.3272	0.5902	0.4297	0.066
Mof_C 	C 	0.2602	0.5205	0.3339	0.078
Mof_H 	H 	0.2285	0.4905	0.3237	0.014
Mof_C 	C 	0.1545	0.3753	0.4386	-0.087
Mof_C 	C 	0.3123	0.6131	0.6474	0.074
Mof_H 	H 	0.2848	0.5977	0.6799	0.027
Mof_C 	C 	0.0132	0.6243	0.4165	-0.116
Mof_C 	C 	0.4035	0.6792	0.6366	0.04
Mof_H 	H 	0.4376	0.7079	0.661	0.062
Mof_C 	C 	0.094	0.6086	0.4528	0.092
Mof_H 	H 	0.136	0.6331	0.4803	0.017
Mof_C 	C 	0.3277	0.5805	0.2809	0.062
Mof_H 	H 	0.3452	0.5918	0.2361	0.039
Mof_C 	C 	0.0876	0.4716	0.4166	0.063
Mof_C 	C 	0.3948	0.6583	0.5531	-0.096
Mof_H 	H 	0.4228	0.6727	0.5203	0.094
Mof_C 	C 	0.9518	0.5887	0.3764	0.076
Mof_H 	H 	0.8956	0.5988	0.3515	0.029
Mof_C 	C 	0.3435	0.6152	0.518	0.056
Mof_C 	C 	0.0563	0.5256	0.412	0.074
Mof_C 	C 	0.994	0.6812	0.4257	0.318
Mof_O 	O 	0.1541	0.2854	0.4566	-0.183
Mof_O 	O 	0.2716	0.3228	0.4659	-0.187
Mof_O 	O 	0.3238	0.6608	0.8137	-0.194
Mof_O 	O 	0.4003	0.724	0.7976	-0.191
Mof_O 	O 	0.9198	0.6905	0.4144	-0.195
Mof_C 	C 	0.3616	0.6819	0.7701	0.287
Mof_O 	O 	0.0502	0.7135	0.4444	-0.221
Mof_C 	C 	0.3512	0.6099	0.3644	-0.117
Mof_H 	H 	0.381	0.6406	0.3738	0.092
Mof_C 	C 	0.2527	0.5046	0.1731	0.362
Mof_C 	C 	0.2826	0.5384	0.2645	-0.112
Mof_O 	O 	0.2977	0.5112	0.1315	-0.393
Mof_O 	O 	0.1944	0.4765	0.1567	-0.328
Mof_U 	U 	0.85323	0.7653	0.42287	0.014
Mof_Cu	Cu	0.74034	0.02887	0.51403	0.898
Mof_C 	C 	0.5679	0.8804	0.3995	0.046
Mof_H 	H 	0.5329	0.8517	0.3826	0.047
Mof_N 	N 	0.8049	0.0931	0.5679	-0.215
Mof_C 	C 	0.5348	0.9292	0.3863	-0.112
Mof_H 	H 	0.4766	0.9339	0.3569	0.085
Mof_N 	N 	0.7831	0.0453	0.4143	-0.217
Mof_C 	C 	0.7035	0.9183	0.466	0.073
Mof_H 	H 	0.7619	0.9146	0.4927	0.027
Mof_N 	N 	0.617	0.0601	0.4517	-0.211
Mof_C 	C 	0.4712	0.039	0.372	-0.142
Mof_H 	H 	0.4294	0.0146	0.3434	0.099
Mof_N 	N 	0.6705	0.9658	0.4557	-0.214
Mof_C 	C 	0.861	0.1573	0.6838	-0.088
Mof_C 	C 	0.6968	0.8233	0.4549	0.308
Mof_C 	C 	0.8272	0.0902	0.4297	0.066
Mof_C 	C 	0.7602	0.0205	0.3339	0.079
Mof_H 	H 	0.7285	0.9905	0.3237	0.013
Mof_C 	C 	0.6545	0.8753	0.4386	-0.086
Mof_C 	C 	0.8123	0.1131	0.6474	0.074
Mof_H 	H 	0.7848	0.0977	0.6799	0.027
Mof_C 	C 	0.5132	0.1243	0.4165	-0.115
Mof_C 	C 	0.9035	0.1792	0.6366	0.04
Mof_H 	H 	0.9376	0.2079	0.661	0.062
Mof_C 	C 	0.594	0.1086	0.4528	0.092
Mof_H 	H 	0.636	0.1331	0.4803	0.017
Mof_C 	C 	0.8277	0.0805	0.2809	0.062
Mof_H 	H 	0.8452	0.0918	0.2361	0.04
Mof_C 	C 	0.5876	0.9716	0.4166	0.062
Mof_C 	C 	0.8948	0.1583	0.5531	-0.096
Mof_H 	H 	0.9228	0.1727	0.5203	0.094
Mof_C 	C 	0.4518	0.0887	0.3764	0.076
Mof_H 	H 	0.3956	0.0988	0.3515	0.029
Mof_C 	C 	0.8435	0.1152	0.518	0.056
Mof_C 	C 	0.5563	0.0256	0.412	0.075
Mof_C 	C 	0.494	0.1812	0.4257	0.318
Mof_O 	O 	0.6541	0.7854	0.4566	-0.183
Mof_O 	O 	0.7716	0.8228	0.4659	-0.187
Mof_O 	O 	0.8238	0.1608	0.8137	-0.194
Mof_O 	O 	0.9003	0.224	0.7976	-0.191
Mof_O 	O 	0.4198	0.1905	0.4144	-0.195
Mof_C 	C 	0.8616	0.1819	0.7701	0.287
Mof_O 	O 	0.5502	0.2135	0.4444	-0.221
Mof_C 	C 	0.8512	0.1099	0.3644	-0.117
Mof_H 	H 	0.881	0.1406	0.3738	0.092
Mof_C 	C 	0.7527	0.0046	0.1731	0.363
Mof_C 	C 	0.7826	0.0384	0.2645	-0.113
Mof_O 	O 	0.7977	0.0112	0.1315	-0.392
Mof_O 	O 	0.6944	0.9765	0.1567	-0.328
Mof_U 	U 	0.64677	0.2653	0.07713	0.015
Mof_Cu	Cu	0.75966	0.52887	0.98597	0.897
Mof_C 	C 	0.9321	0.3804	0.1005	0.044
Mof_H 	H 	0.9671	0.3517	0.1174	0.047
Mof_N 	N 	0.6951	0.5931	0.9321	-0.215
Mof_C 	C 	0.9652	0.4292	0.1137	-0.11
Mof_H 	H 	0.0234	0.4339	0.1431	0.083
Mof_N 	N 	0.7169	0.5453	0.0857	-0.217
Mof_C 	C 	0.7965	0.4183	0.034	0.072
Mof_H 	H 	0.7381	0.4146	0.0073	0.027
Mof_N 	N 	0.883	0.5601	0.0483	-0.211
Mof_C 	C 	0.0288	0.539	0.128	-0.143
Mof_H 	H 	0.0706	0.5146	0.1566	0.099
Mof_N 	N 	0.8295	0.4658	0.0443	-0.214
Mof_C 	C 	0.639	0.6573	0.8162	-0.088
Mof_C 	C 	0.8032	0.3233	0.0451	0.307
Mof_C 	C 	0.6728	0.5902	0.0703	0.066
Mof_C 	C 	0.7398	0.5205	0.1661	0.078
Mof_H 	H 	0.7715	0.4905	0.1763	0.014
Mof_C 	C 	0.8455	0.3753	0.0614	-0.085
Mof_C 	C 	0.6877	0.6131	0.8526	0.074
Mof_H 	H 	0.7152	0.5977	0.8201	0.027
Mof_C 	C 	0.9868	0.6243	0.0835	-0.112
Mof_C 	C 	0.5965	0.6792	0.8634	0.04
Mof_H 	H 	0.5624	0.7079	0.839	0.062
Mof_C 	C 	0.906	0.6086	0.0472	0.091
Mof_H 	H 	0.864	0.6331	0.0197	0.017
Mof_C 	C 	0.6723	0.5805	0.2191	0.062
Mof_H 	H 	0.6548	0.5918	0.2639	0.04
Mof_C 	C 	0.9124	0.4716	0.0834	0.061
Mof_C 	C 	0.6052	0.6583	0.9469	-0.096
Mof_H 	H 	0.5772	0.6727	0.9797	0.094
Mof_C 	C 	0.0482	0.5887	0.1236	0.073
Mof_H 	H 	0.1044	0.5988	0.1485	0.029
Mof_C 	C 	0.6565	0.6152	0.982	0.056
Mof_C 	C 	0.9437	0.5256	0.088	0.076
Mof_C 	C 	0.006	0.6812	0.0743	0.315
Mof_O 	O 	0.8459	0.2854	0.0434	-0.182
Mof_O 	O 	0.7284	0.3228	0.0341	-0.186
Mof_O 	O 	0.6762	0.6608	0.6863	-0.194
Mof_O 	O 	0.5997	0.724	0.7024	-0.191
Mof_O 	O 	0.0802	0.6905	0.0856	-0.195
Mof_C 	C 	0.6384	0.6819	0.7299	0.287
Mof_O 	O 	0.9498	0.7135	0.0556	-0.22
Mof_C 	C 	0.6488	0.6099	0.1356	-0.117
Mof_H 	H 	0.619	0.6406	0.1262	0.092
Mof_C 	C 	0.7473	0.5046	0.3269	0.362
Mof_C 	C 	0.7174	0.5384	0.2355	-0.112
Mof_O 	O 	0.7023	0.5112	0.3685	-0.392
Mof_O 	O 	0.8056	0.4765	0.3433	-0.328
Mof_U 	U 	0.14677	0.7653	0.07713	0.014
Mof_Cu	Cu	0.25966	0.02887	0.98597	0.898
Mof_C 	C 	0.4321	0.8804	0.1005	0.045
Mof_H 	H 	0.4671	0.8517	0.1174	0.047
Mof_N 	N 	0.1951	0.0931	0.9321	-0.215
Mof_C 	C 	0.4652	0.9292	0.1137	-0.112
Mof_H 	H 	0.5234	0.9339	0.1431	0.085
Mof_N 	N 	0.2169	0.0453	0.0857	-0.217
Mof_C 	C 	0.2965	0.9183	0.034	0.073
Mof_H 	H 	0.2381	0.9146	0.0073	0.027
Mof_N 	N 	0.383	0.0601	0.0483	-0.211
Mof_C 	C 	0.5288	0.039	0.128	-0.143
Mof_H 	H 	0.5706	0.0146	0.1566	0.1
Mof_N 	N 	0.3295	0.9658	0.0443	-0.214
Mof_C 	C 	0.139	0.1573	0.8162	-0.088
Mof_C 	C 	0.3032	0.8233	0.0451	0.308
Mof_C 	C 	0.1728	0.0902	0.0703	0.066
Mof_C 	C 	0.2398	0.0205	0.1661	0.079
Mof_H 	H 	0.2715	0.9905	0.1763	0.013
Mof_C 	C 	0.3455	0.8753	0.0614	-0.086
Mof_C 	C 	0.1877	0.1131	0.8526	0.074
Mof_H 	H 	0.2152	0.0977	0.8201	0.027
Mof_C 	C 	0.4868	0.1243	0.0835	-0.115
Mof_C 	C 	0.0965	0.1792	0.8634	0.04
Mof_H 	H 	0.0624	0.2079	0.839	0.062
Mof_C 	C 	0.406	0.1086	0.0472	0.092
Mof_H 	H 	0.364	0.1331	0.0197	0.017
Mof_C 	C 	0.1723	0.0805	0.2191	0.062
Mof_H 	H 	0.1548	0.0918	0.2639	0.039
Mof_C 	C 	0.4124	0.9716	0.0834	0.061
Mof_C 	C 	0.1052	0.1583	0.9469	-0.096
Mof_H 	H 	0.0772	0.1727	0.9797	0.095
Mof_C 	C 	0.5482	0.0887	0.1236	0.076
Mof_H 	H 	0.6044	0.0988	0.1485	0.029
Mof_C 	C 	0.1565	0.1152	0.982	0.056
Mof_C 	C 	0.4437	0.0256	0.088	0.076
Mof_C 	C 	0.506	0.1812	0.0743	0.318
Mof_O 	O 	0.3459	0.7854	0.0434	-0.183
Mof_O 	O 	0.2284	0.8228	0.0341	-0.187
Mof_O 	O 	0.1762	0.1608	0.6863	-0.194
Mof_O 	O 	0.0997	0.224	0.7024	-0.191
Mof_O 	O 	0.5802	0.1905	0.0856	-0.195
Mof_C 	C 	0.1384	0.1819	0.7299	0.287
Mof_O 	O 	0.4498	0.2135	0.0556	-0.221
Mof_C 	C 	0.1488	0.1099	0.1356	-0.117
Mof_H 	H 	0.119	0.1406	0.1262	0.092
Mof_C 	C 	0.2473	0.0046	0.3269	0.362
Mof_C 	C 	0.2174	0.0384	0.2355	-0.113
Mof_O 	O 	0.2023	0.0112	0.3685	-0.393
Mof_O 	O 	0.3056	0.9765	0.3433	-0.328
_end
