data_functionalizedCrystal
_audit_creation_method	'EQeq! by Chris Wilmer'
_symmetry_space_group_name_H-M	'P1'
_symmetry_Int_Tables_number	1
_symmetry_cell_setting	triclinic
loop_
_symmetry_equiv_pos_as_xyz
  x,y,z
_cell_length_a	9.9179
_cell_length_b	7.4256
_cell_length_c	19.787
_cell_angle_alpha	90
_cell_angle_beta	90
_cell_angle_gamma	90
loop_
_atom_site_label
_atom_site_type_symbol
_atom_site_fract_x
_atom_site_fract_y
_atom_site_fract_z
_atom_site_charge
Mof_N 	N 	0.1224	0.8074	0.17228	-0.223
Mof_N 	N 	0.0889	0.6268	0.16536	-0.238
Mof_C 	C 	0.1529	0.5667	0.1112	0.094
Mof_H 	H 	0.1463	0.4493	0.0951	-0.041
Mof_N 	N 	0.2283	0.6952	0.08224	-0.244
Mof_N 	N 	0.3772	0.0014	0.0605	-0.218
Mof_N 	N 	0.4413	0.161	0.0662	-0.18
Mof_N 	N 	0.2856	0.1548	0.14462	-0.124
Mof_C 	C 	0.2064	0.8388	0.12159	0.046
Mof_C 	C 	0.2837	0.0015	0.10962	0.046
Mof_N 	N 	0.3863	0.2525	0.1161	-0.072
Mof_N 	N 	0.8776	0.1926	0.67228	-0.223
Mof_N 	N 	0.9111	0.3732	0.66536	-0.237
Mof_C 	C 	0.8471	0.4333	0.6112	0.101
Mof_H 	H 	0.8537	0.5507	0.5951	-0.026
Mof_N 	N 	0.7717	0.3048	0.58224	-0.229
Mof_N 	N 	0.6228	0.9986	0.5605	-0.201
Mof_N 	N 	0.5587	0.839	0.5662	-0.162
Mof_N 	N 	0.7144	0.8452	0.64462	-0.122
Mof_C 	C 	0.7936	0.1612	0.62159	0.06
Mof_C 	C 	0.7163	0.9985	0.60962	0.048
Mof_N 	N 	0.6137	0.7475	0.6161	-0.067
Mof_N 	N 	0.8776	0.3074	0.32772	-0.222
Mof_N 	N 	0.9111	0.1268	0.33464	-0.237
Mof_C 	C 	0.8471	0.0667	0.3888	0.104
Mof_H 	H 	0.8537	0.9493	0.4049	-0.028
Mof_N 	N 	0.7717	0.1952	0.41776	-0.23
Mof_N 	N 	0.6228	0.5014	0.4395	-0.2
Mof_N 	N 	0.5587	0.661	0.4338	-0.162
Mof_N 	N 	0.7144	0.6548	0.35538	-0.122
Mof_C 	C 	0.7936	0.3388	0.37841	0.062
Mof_C 	C 	0.7163	0.5015	0.39038	0.047
Mof_N 	N 	0.6137	0.7525	0.3839	-0.068
Mof_N 	N 	0.1224	0.6926	0.82772	-0.222
Mof_N 	N 	0.0889	0.8732	0.83464	-0.234
Mof_C 	C 	0.1529	0.9333	0.8888	0.105
Mof_H 	H 	0.1463	0.0507	0.9049	-0.005
Mof_N 	N 	0.2283	0.8048	0.91776	-0.202
Mof_N 	N 	0.3772	0.4986	0.9395	-0.168
Mof_N 	N 	0.4413	0.339	0.9338	-0.131
Mof_N 	N 	0.2856	0.3452	0.85538	-0.12
Mof_C 	C 	0.2064	0.6612	0.87841	0.073
Mof_C 	C 	0.2837	0.4985	0.89038	0.059
Mof_N 	N 	0.3863	0.2475	0.8839	-0.06
Mof_N 	N 	0.8776	0.1926	0.82772	-0.222
Mof_N 	N 	0.9111	0.3732	0.83464	-0.235
Mof_C 	C 	0.8471	0.4333	0.8888	0.109
Mof_H 	H 	0.8537	0.5507	0.9049	-0.007
Mof_N 	N 	0.7717	0.3048	0.91776	-0.202
Mof_N 	N 	0.6228	0.9986	0.9395	-0.169
Mof_N 	N 	0.5587	0.839	0.9338	-0.13
Mof_N 	N 	0.7144	0.8452	0.85538	-0.12
Mof_C 	C 	0.7936	0.1612	0.87841	0.07
Mof_C 	C 	0.7163	0.9985	0.89038	0.061
Mof_N 	N 	0.6137	0.7475	0.8839	-0.059
Mof_N 	N 	0.1224	0.8074	0.32772	-0.223
Mof_N 	N 	0.0889	0.6268	0.33464	-0.237
Mof_C 	C 	0.1529	0.5667	0.3888	0.101
Mof_H 	H 	0.1463	0.4493	0.4049	-0.026
Mof_N 	N 	0.2283	0.6952	0.41776	-0.229
Mof_N 	N 	0.3772	0.0014	0.4395	-0.2
Mof_N 	N 	0.4413	0.161	0.4338	-0.162
Mof_N 	N 	0.2856	0.1548	0.35538	-0.122
Mof_C 	C 	0.2064	0.8388	0.37841	0.055
Mof_C 	C 	0.2837	0.0015	0.39038	0.054
Mof_N 	N 	0.3863	0.2525	0.3839	-0.067
Mof_N 	N 	0.1224	0.6926	0.67228	-0.222
Mof_N 	N 	0.0889	0.8732	0.66536	-0.236
Mof_C 	C 	0.1529	0.9333	0.6112	0.095
Mof_H 	H 	0.1463	0.0507	0.5951	-0.022
Mof_N 	N 	0.2283	0.8048	0.58224	-0.229
Mof_N 	N 	0.3772	0.4986	0.5605	-0.2
Mof_N 	N 	0.4413	0.339	0.5662	-0.162
Mof_N 	N 	0.2856	0.3452	0.64462	-0.122
Mof_C 	C 	0.2064	0.6612	0.62159	0.062
Mof_C 	C 	0.2837	0.4985	0.60962	0.047
Mof_N 	N 	0.3863	0.2475	0.6161	-0.067
Mof_N 	N 	0.8776	0.3074	0.17228	-0.223
Mof_N 	N 	0.9111	0.1268	0.16536	-0.239
Mof_C 	C 	0.8471	0.0667	0.1112	0.099
Mof_H 	H 	0.8537	0.9493	0.0951	-0.045
Mof_N 	N 	0.7717	0.1952	0.08224	-0.245
Mof_N 	N 	0.6228	0.5014	0.0605	-0.219
Mof_N 	N 	0.5587	0.661	0.0662	-0.181
Mof_N 	N 	0.7144	0.6548	0.14462	-0.124
Mof_C 	C 	0.7936	0.3388	0.12159	0.054
Mof_C 	C 	0.7163	0.5015	0.10962	0.037
Mof_N 	N 	0.6137	0.7525	0.1161	-0.073
Mof_Co	Co	0.01125	0.97377	0.25	1.021
Mof_Co	Co	0.98875	0.02623	0.75	1.024
Mof_Co	Co	0.98875	0.47377	0.25	1.025
Mof_Co	Co	0.01125	0.52623	0.75	1.027
Mof_Co	Co	0.38947	0.75	-0	1.036
Mof_Co	Co	0.61053	0.25	0.5	1.089
Mof_Co	Co	0.61053	0.25	-0	1.038
Mof_Co	Co	0.38947	0.75	0.5	1.088
_end
