data_functionalizedCrystal
_audit_creation_method	'EQeq! by Chris Wilmer'
_symmetry_space_group_name_H-M	'P1'
_symmetry_Int_Tables_number	1
_symmetry_cell_setting	triclinic
loop_
_symmetry_equiv_pos_as_xyz
  x,y,z
_cell_length_a	11.6335
_cell_length_b	16.7961
_cell_length_c	18.1575
_cell_angle_alpha	90
_cell_angle_beta	90
_cell_angle_gamma	90
loop_
_atom_site_label
_atom_site_type_symbol
_atom_site_fract_x
_atom_site_fract_y
_atom_site_fract_z
_atom_site_charge
Mof_Mn	Mn	0.5	0.89026	0.18434	0.669
Mof_Mn	Mn	0.5	0.10974	0.81566	0.66
Mof_Mn	Mn	0.5	0.60974	0.68434	0.665
Mof_Mn	Mn	0.5	0.39026	0.31566	0.663
Mof_Mn	Mn	0.5	0.5	-0	0.602
Mof_Mn	Mn	0.5	0	0.5	0.602
Mof_Cr	Cr	0.5	0.8036	0.90096	1.416
Mof_Cr	Cr	0.5	0.1964	0.09904	1.385
Mof_Cr	Cr	0.5	0.6964	0.40096	1.401
Mof_Cr	Cr	0.5	0.3036	0.59904	1.402
Mof_H 	H 	0.7142	0.8291	0.2763	-0.01
Mof_H 	H 	0.9122	0.8309	0.2813	0.079
Mof_H 	H 	0.9102	0.9601	0.097	0.079
Mof_H 	H 	0.7126	0.9536	0.0971	-0.006
Mof_H 	H 	0.7161	0.5756	0.9214	-0.015
Mof_H 	H 	0.9133	0.5771	0.9187	0.078
Mof_H 	H 	0.7142	0.1709	0.7237	-0.01
Mof_H 	H 	0.9122	0.1691	0.7187	0.079
Mof_H 	H 	0.9102	0.0399	0.903	0.078
Mof_H 	H 	0.7126	0.0464	0.9029	-0.008
Mof_H 	H 	0.7161	0.4244	0.0786	-0.013
Mof_H 	H 	0.9133	0.4229	0.0813	0.078
Mof_H 	H 	0.2858	0.6709	0.7763	-0.01
Mof_H 	H 	0.0878	0.6691	0.7813	0.08
Mof_H 	H 	0.0898	0.5399	0.597	0.079
Mof_H 	H 	0.2874	0.5464	0.5971	-0.007
Mof_H 	H 	0.2839	0.9244	0.4214	-0.015
Mof_H 	H 	0.0867	0.9229	0.4187	0.077
Mof_H 	H 	0.2858	0.3291	0.2237	-0.01
Mof_H 	H 	0.0878	0.3309	0.2187	0.078
Mof_H 	H 	0.0898	0.4601	0.403	0.079
Mof_H 	H 	0.2874	0.4536	0.4029	-0.007
Mof_H 	H 	0.2839	0.0756	0.5786	-0.014
Mof_H 	H 	0.0867	0.0771	0.5813	0.079
Mof_H 	H 	0.2858	0.1709	0.7237	-0.01
Mof_H 	H 	0.0878	0.1691	0.7187	0.079
Mof_H 	H 	0.0898	0.0399	0.903	0.078
Mof_H 	H 	0.2874	0.0464	0.9029	-0.008
Mof_H 	H 	0.2839	0.4244	0.0786	-0.013
Mof_H 	H 	0.0867	0.4229	0.0813	0.078
Mof_H 	H 	0.2858	0.8291	0.2763	-0.01
Mof_H 	H 	0.0878	0.8309	0.2813	0.079
Mof_H 	H 	0.0898	0.9601	0.097	0.079
Mof_H 	H 	0.2874	0.9536	0.0971	-0.006
Mof_H 	H 	0.2839	0.5756	0.9214	-0.015
Mof_H 	H 	0.0867	0.5771	0.9187	0.078
Mof_H 	H 	0.7142	0.3291	0.2237	-0.01
Mof_H 	H 	0.9122	0.3309	0.2187	0.078
Mof_H 	H 	0.9102	0.4601	0.403	0.079
Mof_H 	H 	0.7126	0.4536	0.4029	-0.007
Mof_H 	H 	0.7161	0.0756	0.5786	-0.014
Mof_H 	H 	0.9133	0.0771	0.5813	0.079
Mof_H 	H 	0.7142	0.6709	0.7763	-0.01
Mof_H 	H 	0.9122	0.6691	0.7813	0.08
Mof_H 	H 	0.9102	0.5399	0.597	0.079
Mof_H 	H 	0.7126	0.5464	0.5971	-0.007
Mof_H 	H 	0.7161	0.9244	0.4214	-0.015
Mof_H 	H 	0.9133	0.9229	0.4187	0.077
Mof_C 	C 	0.6789	0.802	0.9023	-0.251
Mof_C 	C 	0.7544	0.8561	0.2396	0.089
Mof_C 	C 	0.874	0.8567	0.2431	-0.144
Mof_C 	C 	0.9351	0.8962	0.1891	0.062
Mof_C 	C 	0.8725	0.9327	0.1344	-0.142
Mof_C 	C 	0.7532	0.929	0.1349	0.09
Mof_C 	C 	0.7556	0.5435	0.9546	0.102
Mof_C 	C 	0.8756	0.545	0.9527	-0.138
Mof_C 	C 	0.6789	0.198	0.0977	-0.255
Mof_C 	C 	0.7544	0.1439	0.7604	0.088
Mof_C 	C 	0.874	0.1433	0.7569	-0.144
Mof_C 	C 	0.9351	0.1038	0.8109	0.061
Mof_C 	C 	0.8725	0.0673	0.8656	-0.142
Mof_C 	C 	0.7532	0.071	0.8651	0.089
Mof_C 	C 	0.7556	0.4565	0.0454	0.09
Mof_C 	C 	0.8756	0.455	0.0473	-0.148
Mof_C 	C 	0.3211	0.698	0.4023	-0.253
Mof_C 	C 	0.2456	0.6439	0.7396	0.089
Mof_C 	C 	0.126	0.6433	0.7431	-0.144
Mof_C 	C 	0.0649	0.6038	0.6891	0.062
Mof_C 	C 	0.1275	0.5673	0.6344	-0.142
Mof_C 	C 	0.2468	0.571	0.6349	0.09
Mof_C 	C 	0.2444	0.9565	0.4546	0.103
Mof_C 	C 	0.1244	0.955	0.4527	-0.137
Mof_C 	C 	0.3211	0.302	0.5977	-0.253
Mof_C 	C 	0.2456	0.3561	0.2604	0.088
Mof_C 	C 	0.126	0.3567	0.2569	-0.145
Mof_C 	C 	0.0649	0.3962	0.3109	0.061
Mof_C 	C 	0.1275	0.4327	0.3656	-0.142
Mof_C 	C 	0.2468	0.429	0.3651	0.089
Mof_C 	C 	0.2444	0.0435	0.5454	0.09
Mof_C 	C 	0.1244	0.045	0.5473	-0.148
Mof_C 	C 	0.3211	0.198	0.0977	-0.255
Mof_C 	C 	0.2456	0.1439	0.7604	0.088
Mof_C 	C 	0.126	0.1433	0.7569	-0.144
Mof_C 	C 	0.0649	0.1038	0.8109	0.061
Mof_C 	C 	0.1275	0.0673	0.8656	-0.142
Mof_C 	C 	0.2468	0.071	0.8651	0.089
Mof_C 	C 	0.2444	0.4565	0.0454	0.09
Mof_C 	C 	0.1244	0.455	0.0473	-0.148
Mof_C 	C 	0.3211	0.802	0.9023	-0.251
Mof_C 	C 	0.2456	0.8561	0.2396	0.089
Mof_C 	C 	0.126	0.8567	0.2431	-0.144
Mof_C 	C 	0.0649	0.8962	0.1891	0.062
Mof_C 	C 	0.1275	0.9327	0.1344	-0.142
Mof_C 	C 	0.2468	0.929	0.1349	0.09
Mof_C 	C 	0.2444	0.5435	0.9546	0.102
Mof_C 	C 	0.1244	0.545	0.9527	-0.138
Mof_C 	C 	0.6789	0.302	0.5977	-0.253
Mof_C 	C 	0.7544	0.3561	0.2604	0.088
Mof_C 	C 	0.874	0.3567	0.2569	-0.145
Mof_C 	C 	0.9351	0.3962	0.3109	0.061
Mof_C 	C 	0.8725	0.4327	0.3656	-0.142
Mof_C 	C 	0.7532	0.429	0.3651	0.089
Mof_C 	C 	0.7556	0.0435	0.5454	0.09
Mof_C 	C 	0.8756	0.045	0.5473	-0.148
Mof_C 	C 	0.6789	0.698	0.4023	-0.253
Mof_C 	C 	0.7544	0.6439	0.7396	0.089
Mof_C 	C 	0.874	0.6433	0.7431	-0.144
Mof_C 	C 	0.9351	0.6038	0.6891	0.062
Mof_C 	C 	0.8725	0.5673	0.6344	-0.142
Mof_C 	C 	0.7532	0.571	0.6349	0.09
Mof_C 	C 	0.7556	0.9565	0.4546	0.103
Mof_C 	C 	0.8756	0.955	0.4527	-0.137
Mof_C 	C 	0.5	0.8387	0.0104	-0.253
Mof_C 	C 	0.5	0.6871	0.9369	-0.251
Mof_C 	C 	0.5	0.7605	0.795	-0.261
Mof_C 	C 	0.5	0.9189	0.8645	-0.255
Mof_C 	C 	0.5	0.1613	0.9896	-0.228
Mof_C 	C 	0.5	0.3129	0.0631	-0.252
Mof_C 	C 	0.5	0.2395	0.205	-0.258
Mof_C 	C 	0.5	0.0811	0.1355	-0.261
Mof_C 	C 	0.5	0.6613	0.5104	-0.24
Mof_C 	C 	0.5	0.8129	0.4369	-0.251
Mof_C 	C 	0.5	0.7395	0.295	-0.26
Mof_C 	C 	0.5	0.5811	0.3645	-0.258
Mof_C 	C 	0.5	0.3387	0.4896	-0.241
Mof_C 	C 	0.5	0.1871	0.5631	-0.253
Mof_C 	C 	0.5	0.2605	0.705	-0.259
Mof_C 	C 	0.5	0.4189	0.6355	-0.257
Mof_C 	C 	0.9369	0.5	-0	0.057
Mof_C 	C 	0.0631	0	0.5	0.056
Mof_C 	C 	0.0631	0.5	-0	0.057
Mof_C 	C 	0.9369	0	0.5	0.056
Mof_N 	N 	0.7785	0.8009	0.9046	-0.037
Mof_N 	N 	0.6951	0.8916	0.1872	-0.199
Mof_N 	N 	0.7785	0.1991	0.0954	-0.043
Mof_N 	N 	0.6951	0.1084	0.8128	-0.2
Mof_N 	N 	0.2215	0.6991	0.4046	-0.04
Mof_N 	N 	0.3049	0.6084	0.6872	-0.199
Mof_N 	N 	0.2215	0.3009	0.5954	-0.04
Mof_N 	N 	0.3049	0.3916	0.3128	-0.199
Mof_N 	N 	0.2215	0.1991	0.0954	-0.043
Mof_N 	N 	0.3049	0.1084	0.8128	-0.2
Mof_N 	N 	0.2215	0.8009	0.9046	-0.037
Mof_N 	N 	0.3049	0.8916	0.1872	-0.199
Mof_N 	N 	0.7785	0.3009	0.5954	-0.04
Mof_N 	N 	0.6951	0.3916	0.3128	-0.199
Mof_N 	N 	0.7785	0.6991	0.4046	-0.04
Mof_N 	N 	0.6951	0.6084	0.6872	-0.199
Mof_N 	N 	0.5	0.8545	0.0696	-0.104
Mof_N 	N 	0.5	0.6199	0.9525	-0.113
Mof_N 	N 	0.5	0.727	0.7388	-0.108
Mof_N 	N 	0.5	0.9825	0.843	-0.102
Mof_N 	N 	0.5	0.1455	0.9304	-0.109
Mof_N 	N 	0.5	0.3801	0.0475	-0.118
Mof_N 	N 	0.5	0.273	0.2612	-0.111
Mof_N 	N 	0.5	0.0175	0.157	-0.115
Mof_N 	N 	0.5	0.6455	0.5696	-0.106
Mof_N 	N 	0.5	0.8801	0.4525	-0.113
Mof_N 	N 	0.5	0.773	0.2388	-0.111
Mof_N 	N 	0.5	0.5175	0.343	-0.108
Mof_N 	N 	0.5	0.3545	0.4304	-0.107
Mof_N 	N 	0.5	0.1199	0.5475	-0.117
Mof_N 	N 	0.5	0.227	0.7612	-0.109
Mof_N 	N 	0.5	0.4825	0.657	-0.108
Mof_N 	N 	0.6953	0.5	-0	-0.211
Mof_N 	N 	0.3047	0	0.5	-0.212
Mof_N 	N 	0.3047	0.5	-0	-0.211
Mof_N 	N 	0.6953	0	0.5	-0.212
_end
