data_functionalizedCrystal
_audit_creation_method	'EQeq! by Chris Wilmer'
_symmetry_space_group_name_H-M	'P1'
_symmetry_Int_Tables_number	1
_symmetry_cell_setting	triclinic
loop_
_symmetry_equiv_pos_as_xyz
  x,y,z
_cell_length_a	13.0022
_cell_length_b	13.3793
_cell_length_c	25.8929
_cell_angle_alpha	84.06
_cell_angle_beta	88.104
_cell_angle_gamma	66.361
loop_
_atom_site_label
_atom_site_type_symbol
_atom_site_fract_x
_atom_site_fract_y
_atom_site_fract_z
_atom_site_charge
Mof_Tb	Tb	0.62516	0.30672	0.50582	1.755
Mof_Tb	Tb	0.84212	0.62555	0.04299	1.825
Mof_C 	C 	0.8094	0.7119	0.1381	0.318
Mof_C 	C 	0.7915	0.759	0.1892	-0.14
Mof_C 	C 	0.8012	0.8584	0.1933	0.063
Mof_H 	H 	0.8234	0.8938	0.1651	-0.002
Mof_C 	C 	0.761	0.704	0.232	0.034
Mof_H 	H 	0.7583	0.6364	0.2289	0.013
Mof_C 	C 	0.7348	0.7495	0.2791	-0.144
Mof_H 	H 	0.7127	0.7142	0.3073	0.079
Mof_C 	C 	0.7423	0.849	0.2827	0.054
Mof_C 	C 	0.7772	0.9024	0.2404	-0.202
Mof_C 	C 	0.7807	0.0088	0.2551	0.461
Mof_C 	C 	0.7056	0.1091	0.2197	-0.928
Mof_H 	H 	0.7321	0.1019	0.1847	0.289
Mof_H 	H 	0.7079	0.1741	0.2312	0.291
Mof_H 	H 	0.6297	0.1143	0.221	0.287
Mof_C 	C 	0.9021	0.0005	0.2537	-0.877
Mof_H 	H 	0.9484	0.9371	0.2757	0.27
Mof_H 	H 	0.9043	0.0651	0.2658	0.277
Mof_H 	H 	0.9294	0.994	0.2187	0.269
Mof_C 	C 	0.7376	0.0108	0.3107	-0.183
Mof_C 	C 	0.7158	0.9183	0.3258	0.05
Mof_C 	C 	0.6739	0.9028	0.3751	-0.126
Mof_H 	H 	0.658	0.8416	0.3848	0.078
Mof_C 	C 	0.6565	0.9827	0.4093	0.034
Mof_H 	H 	0.6281	0.9748	0.4422	0.027
Mof_C 	C 	0.7221	0.0885	0.345	0.067
Mof_H 	H 	0.7385	0.1494	0.3353	0.001
Mof_C 	C 	0.6813	0.0735	0.3946	-0.118
Mof_C 	C 	0.6669	0.1543	0.4331	0.317
Mof_C 	C 	0.5761	0.2008	0.6224	0.398
Mof_C 	C 	0.6384	0.1383	0.6715	-0.167
Mof_C 	C 	0.5791	0.1304	0.7163	0.101
Mof_H 	H 	0.5011	0.1643	0.7163	-0.005
Mof_C 	C 	0.7555	0.0869	0.6715	0.071
Mof_H 	H 	0.7942	0.0919	0.6411	-0.008
Mof_C 	C 	0.815	0.0285	0.716	-0.161
Mof_H 	H 	0.893	0.9949	0.7159	0.06
Mof_C 	C 	0.755	0.0214	0.7611	0.062
Mof_C 	C 	0.6376	0.0712	0.761	-0.216
Mof_C 	C 	0.5898	0.0469	0.8131	0.528
Mof_C 	C 	0.5155	0.9848	0.8066	-1.012
Mof_H 	H 	0.5579	0.9187	0.7908	0.323
Mof_H 	H 	0.452	0.03	0.7849	0.327
Mof_H 	H 	0.4899	0.9666	0.84	0.318
Mof_C 	C 	0.5259	0.1514	0.8392	-0.996
Mof_H 	H 	0.4987	0.1329	0.8722	0.306
Mof_H 	H 	0.4636	0.1996	0.8176	0.317
Mof_H 	H 	0.575	0.1873	0.8444	0.306
Mof_C 	C 	0.6967	0.9747	0.8428	-0.21
Mof_C 	C 	0.793	0.9639	0.8133	0.058
Mof_C 	C 	0.9001	0.9021	0.8338	-0.137
Mof_H 	H 	0.9636	0.8967	0.8147	0.052
Mof_C 	C 	0.7083	0.9199	0.892	0.093
Mof_H 	H 	0.6449	0.9266	0.9114	-0.007
Mof_C 	C 	0.91	0.849	0.8834	0.052
Mof_H 	H 	0.9811	0.8086	0.8978	0.004
Mof_C 	C 	0.815	0.8547	0.9124	-0.139
Mof_C 	C 	0.8254	0.7877	0.9631	0.337
Mof_C 	C 	0.8783	0.5026	0.9287	0.536
Mof_C 	C 	0.8091	0.5194	0.8805	-0.243
Mof_C 	C 	0.8421	0.4402	0.8451	0.153
Mof_H 	H 	0.9053	0.3753	0.8516	-0.027
Mof_C 	C 	0.7155	0.6154	0.8707	0.119
Mof_H 	H 	0.6934	0.6665	0.895	-0.018
Mof_C 	C 	0.6534	0.6373	0.8252	-0.177
Mof_H 	H 	0.5913	0.7031	0.8185	0.065
Mof_C 	C 	0.6858	0.5591	0.7898	0.081
Mof_C 	C 	0.7786	0.4602	0.7997	-0.248
Mof_C 	C 	0.7936	0.3864	0.7569	0.561
Mof_C 	C 	0.909	0.3419	0.734	-1.09
Mof_H 	H 	0.9223	0.4039	0.7185	0.347
Mof_H 	H 	0.9139	0.2941	0.708	0.338
Mof_H 	H 	0.9642	0.3029	0.7607	0.351
Mof_C 	C 	0.7643	0.2875	0.7781	-0.999
Mof_H 	H 	0.8134	0.2467	0.8067	0.315
Mof_H 	H 	0.7738	0.2407	0.751	0.321
Mof_H 	H 	0.6879	0.3141	0.7895	0.317
Mof_C 	C 	0.7031	0.4622	0.7182	-0.248
Mof_C 	C 	0.6399	0.5611	0.7386	0.079
Mof_C 	C 	0.5495	0.6418	0.7104	-0.175
Mof_H 	H 	0.5057	0.7069	0.7242	0.072
Mof_C 	C 	0.5268	0.6224	0.6614	0.121
Mof_H 	H 	0.4677	0.676	0.642	-0.009
Mof_C 	C 	0.6781	0.4439	0.6692	0.161
Mof_H 	H 	0.7201	0.3779	0.6557	-0.038
Mof_C 	C 	0.5902	0.5247	0.6406	-0.246
Mof_C 	C 	0.5615	0.505	0.5878	0.531
Mof_O 	O 	0.8195	0.7687	0.0973	-0.429
Mof_O 	O 	0.8123	0.617	0.13571	-0.47
Mof_O 	O 	0.7179	0.2173	0.42703	-0.434
Mof_O 	O 	0.6039	0.1562	0.47214	-0.432
Mof_O 	O 	0.6327	0.1927	0.58138	-0.489
Mof_O 	O 	0.4718	0.2563	0.6254	-0.317
Mof_O 	O 	0.9227	0.7244	0.98093	-0.42
Mof_O 	O 	0.7385	0.7912	0.98691	-0.44
Mof_O 	O 	0.8367	0.5631	0.96345	-0.587
Mof_O 	O 	0.9758	0.4288	0.93004	-0.554
Mof_O 	O 	0.4887	0.5835	0.56091	-0.591
Mof_O 	O 	0.6117	0.4118	0.57347	-0.58
Mof_Tb	Tb	0.37484	0.69328	0.49418	1.754
Mof_Tb	Tb	0.15788	0.37445	0.95701	1.824
Mof_C 	C 	0.1906	0.2881	0.8619	0.318
Mof_C 	C 	0.2085	0.241	0.8108	-0.14
Mof_C 	C 	0.1988	0.1416	0.8067	0.063
Mof_H 	H 	0.1766	0.1062	0.8349	-0.002
Mof_C 	C 	0.239	0.296	0.768	0.034
Mof_H 	H 	0.2417	0.3636	0.7711	0.013
Mof_C 	C 	0.2652	0.2505	0.7209	-0.144
Mof_H 	H 	0.2873	0.2858	0.6927	0.079
Mof_C 	C 	0.2577	0.151	0.7173	0.054
Mof_C 	C 	0.2228	0.0976	0.7596	-0.202
Mof_C 	C 	0.2193	0.9912	0.7449	0.461
Mof_C 	C 	0.2944	0.8909	0.7803	-0.928
Mof_H 	H 	0.2679	0.8981	0.8153	0.289
Mof_H 	H 	0.2921	0.8259	0.7688	0.291
Mof_H 	H 	0.3703	0.8857	0.779	0.287
Mof_C 	C 	0.0979	0.9995	0.7463	-0.877
Mof_H 	H 	0.0516	0.0629	0.7243	0.27
Mof_H 	H 	0.0957	0.9349	0.7342	0.277
Mof_H 	H 	0.0706	0.006	0.7813	0.269
Mof_C 	C 	0.2624	0.9892	0.6893	-0.183
Mof_C 	C 	0.2842	0.0817	0.6742	0.05
Mof_C 	C 	0.3261	0.0972	0.6249	-0.126
Mof_H 	H 	0.342	0.1584	0.6152	0.078
Mof_C 	C 	0.3435	0.0173	0.5907	0.034
Mof_H 	H 	0.3719	0.0252	0.5578	0.027
Mof_C 	C 	0.2779	0.9115	0.655	0.067
Mof_H 	H 	0.2615	0.8506	0.6647	0.001
Mof_C 	C 	0.3187	0.9265	0.6054	-0.118
Mof_C 	C 	0.3331	0.8457	0.5669	0.317
Mof_C 	C 	0.4239	0.7992	0.3776	0.398
Mof_C 	C 	0.3616	0.8617	0.3285	-0.167
Mof_C 	C 	0.4209	0.8696	0.2837	0.101
Mof_H 	H 	0.4989	0.8357	0.2837	-0.005
Mof_C 	C 	0.2445	0.9131	0.3285	0.071
Mof_H 	H 	0.2058	0.9081	0.3589	-0.008
Mof_C 	C 	0.185	0.9715	0.284	-0.161
Mof_H 	H 	0.107	0.0051	0.2841	0.06
Mof_C 	C 	0.245	0.9786	0.2389	0.062
Mof_C 	C 	0.3624	0.9288	0.239	-0.216
Mof_C 	C 	0.4102	0.9531	0.1869	0.528
Mof_C 	C 	0.4845	0.0152	0.1934	-1.012
Mof_H 	H 	0.4421	0.0813	0.2092	0.323
Mof_H 	H 	0.548	0.97	0.2151	0.327
Mof_H 	H 	0.5101	0.0334	0.16	0.318
Mof_C 	C 	0.4741	0.8486	0.1608	-0.996
Mof_H 	H 	0.5013	0.8671	0.1278	0.306
Mof_H 	H 	0.5364	0.8004	0.1824	0.317
Mof_H 	H 	0.425	0.8127	0.1556	0.306
Mof_C 	C 	0.3033	0.0253	0.1572	-0.21
Mof_C 	C 	0.207	0.0361	0.1867	0.058
Mof_C 	C 	0.0999	0.0979	0.1662	-0.137
Mof_H 	H 	0.0364	0.1033	0.1853	0.052
Mof_C 	C 	0.2917	0.0801	0.108	0.093
Mof_H 	H 	0.3551	0.0734	0.0886	-0.007
Mof_C 	C 	0.09	0.151	0.1166	0.052
Mof_H 	H 	0.0189	0.1914	0.1022	0.004
Mof_C 	C 	0.185	0.1453	0.0876	-0.139
Mof_C 	C 	0.1746	0.2123	0.0369	0.337
Mof_C 	C 	0.1217	0.4974	0.0713	0.536
Mof_C 	C 	0.1909	0.4806	0.1195	-0.243
Mof_C 	C 	0.1579	0.5598	0.1549	0.153
Mof_H 	H 	0.0947	0.6247	0.1484	-0.027
Mof_C 	C 	0.2845	0.3846	0.1293	0.119
Mof_H 	H 	0.3066	0.3335	0.105	-0.018
Mof_C 	C 	0.3466	0.3627	0.1748	-0.177
Mof_H 	H 	0.4087	0.2969	0.1815	0.065
Mof_C 	C 	0.3142	0.4409	0.2102	0.081
Mof_C 	C 	0.2214	0.5398	0.2003	-0.248
Mof_C 	C 	0.2064	0.6136	0.2431	0.561
Mof_C 	C 	0.091	0.6581	0.266	-1.09
Mof_H 	H 	0.0777	0.5961	0.2815	0.347
Mof_H 	H 	0.0861	0.7059	0.292	0.338
Mof_H 	H 	0.0358	0.6971	0.2393	0.351
Mof_C 	C 	0.2357	0.7125	0.2219	-0.999
Mof_H 	H 	0.1866	0.7533	0.1933	0.315
Mof_H 	H 	0.2262	0.7593	0.249	0.321
Mof_H 	H 	0.3121	0.6859	0.2105	0.317
Mof_C 	C 	0.2969	0.5378	0.2818	-0.248
Mof_C 	C 	0.3601	0.4389	0.2614	0.079
Mof_C 	C 	0.4505	0.3582	0.2896	-0.175
Mof_H 	H 	0.4943	0.2931	0.2758	0.072
Mof_C 	C 	0.4732	0.3776	0.3386	0.121
Mof_H 	H 	0.5323	0.324	0.358	-0.009
Mof_C 	C 	0.3219	0.5561	0.3308	0.161
Mof_H 	H 	0.2799	0.6221	0.3443	-0.038
Mof_C 	C 	0.4098	0.4753	0.3594	-0.246
Mof_C 	C 	0.4385	0.495	0.4122	0.531
Mof_O 	O 	0.1805	0.2313	0.9027	-0.429
Mof_O 	O 	0.1877	0.383	0.86429	-0.47
Mof_O 	O 	0.2821	0.7827	0.57297	-0.434
Mof_O 	O 	0.3961	0.8438	0.52786	-0.432
Mof_O 	O 	0.3673	0.8073	0.41862	-0.489
Mof_O 	O 	0.5282	0.7437	0.3746	-0.317
Mof_O 	O 	0.0773	0.2756	0.01907	-0.42
Mof_O 	O 	0.2615	0.2088	0.01309	-0.44
Mof_O 	O 	0.1633	0.4369	0.03655	-0.587
Mof_O 	O 	0.0242	0.5712	0.06996	-0.554
Mof_O 	O 	0.5113	0.4165	0.43909	-0.591
Mof_O 	O 	0.3883	0.5882	0.42653	-0.58
_end
