data_functionalizedCrystal
_audit_creation_method	'EQeq! by Chris Wilmer'
_symmetry_space_group_name_H-M	'P1'
_symmetry_Int_Tables_number	1
_symmetry_cell_setting	triclinic
loop_
_symmetry_equiv_pos_as_xyz
  x,y,z
_cell_length_a	14.6905
_cell_length_b	8.0472
_cell_length_c	15.8688
_cell_angle_alpha	90
_cell_angle_beta	112.929
_cell_angle_gamma	90
loop_
_atom_site_label
_atom_site_type_symbol
_atom_site_fract_x
_atom_site_fract_y
_atom_site_fract_z
_atom_site_charge
Mof_P 	P 	0.51646	0.39359	0.39624	0.514
Mof_H 	H 	0.543	0.269	0.3544	-0.014
Mof_P 	P 	0.35225	0.15057	0.62141	0.522
Mof_H 	H 	0.409	0.006	0.6484	-0.004
Mof_Be	Be	0.3616	0.3681	0.4714	0.779
Mof_O 	O 	0.60778	0.4498	0.47698	-0.355
Mof_O 	O 	0.43775	0.3215	0.42348	-0.356
Mof_O 	O 	0.4761	0.5266	0.32434	-0.372
Mof_O 	O 	0.24836	0.1064	0.60813	-0.354
Mof_O 	O 	0.40071	0.2532	0.70613	-0.362
Mof_O 	O 	0.36486	0.219	0.53872	-0.387
Mof_P 	P 	0.01646	0.89359	0.39624	0.428
Mof_H 	H 	0.043	0.769	0.3544	-0.018
Mof_P 	P 	0.85225	0.65057	0.62141	0.52
Mof_H 	H 	0.909	0.506	0.6484	0.009
Mof_Be	Be	0.8616	0.8681	0.4714	0.781
Mof_O 	O 	0.10778	0.9498	0.47698	-0.353
Mof_O 	O 	0.93775	0.8215	0.42348	-0.31
Mof_O 	O 	0.9761	0.0266	0.32434	-0.297
Mof_O 	O 	0.74836	0.6064	0.60813	-0.35
Mof_O 	O 	0.90071	0.7532	0.70613	-0.326
Mof_O 	O 	0.86486	0.719	0.53872	-0.376
Mof_P 	P 	0.48354	0.39359	0.10376	0.514
Mof_H 	H 	0.457	0.269	0.1456	-0.015
Mof_P 	P 	0.64775	0.15057	0.87859	0.523
Mof_H 	H 	0.591	0.006	0.8516	-0.004
Mof_Be	Be	0.6384	0.3681	0.0286	0.783
Mof_O 	O 	0.39222	0.4498	0.02302	-0.354
Mof_O 	O 	0.56225	0.3215	0.07652	-0.355
Mof_O 	O 	0.5239	0.5266	0.17566	-0.371
Mof_O 	O 	0.75164	0.1064	0.89187	-0.351
Mof_O 	O 	0.59929	0.2532	0.79387	-0.361
Mof_O 	O 	0.63514	0.219	0.96128	-0.389
Mof_P 	P 	0.98354	0.89359	0.10376	0.588
Mof_H 	H 	0.957	0.769	0.1456	-0.008
Mof_P 	P 	0.14775	0.65057	0.87859	0.517
Mof_H 	H 	0.091	0.506	0.8516	-0.015
Mof_Be	Be	0.1384	0.8681	0.0286	0.779
Mof_O 	O 	0.89222	0.9498	0.02302	-0.355
Mof_O 	O 	0.06225	0.8215	0.07652	-0.398
Mof_O 	O 	0.0239	0.0266	0.17566	-0.406
Mof_O 	O 	0.25164	0.6064	0.89187	-0.353
Mof_O 	O 	0.09929	0.7532	0.79387	-0.36
Mof_O 	O 	0.13514	0.719	0.96128	-0.395
Mof_P 	P 	0.48354	0.60641	0.60376	0.513
Mof_H 	H 	0.457	0.731	0.6456	-0.015
Mof_P 	P 	0.64775	0.84943	0.37859	0.523
Mof_H 	H 	0.591	0.994	0.3516	-0.004
Mof_Be	Be	0.6384	0.6319	0.5286	0.779
Mof_O 	O 	0.39222	0.5502	0.52302	-0.357
Mof_O 	O 	0.56225	0.6785	0.57652	-0.355
Mof_O 	O 	0.5239	0.4734	0.67566	-0.371
Mof_O 	O 	0.75164	0.8936	0.39187	-0.351
Mof_O 	O 	0.59929	0.7468	0.29387	-0.36
Mof_O 	O 	0.63514	0.781	0.46128	-0.387
Mof_P 	P 	0.98354	0.10641	0.60376	0.59
Mof_H 	H 	0.957	0.231	0.6456	-0.009
Mof_P 	P 	0.14775	0.34943	0.37859	0.517
Mof_H 	H 	0.091	0.494	0.3516	-0.015
Mof_Be	Be	0.1384	0.1319	0.5286	0.776
Mof_O 	O 	0.89222	0.0502	0.52302	-0.356
Mof_O 	O 	0.06225	0.1785	0.57652	-0.4
Mof_O 	O 	0.0239	0.9734	0.67566	-0.408
Mof_O 	O 	0.25164	0.3936	0.39187	-0.353
Mof_O 	O 	0.09929	0.2468	0.29387	-0.36
Mof_O 	O 	0.13514	0.281	0.46128	-0.394
Mof_P 	P 	0.51646	0.60641	0.89624	0.513
Mof_H 	H 	0.543	0.731	0.8544	-0.015
Mof_P 	P 	0.35225	0.84943	0.12141	0.522
Mof_H 	H 	0.409	0.994	0.1484	-0.004
Mof_Be	Be	0.3616	0.6319	0.9714	0.776
Mof_O 	O 	0.60778	0.5502	0.97698	-0.357
Mof_O 	O 	0.43775	0.6785	0.92348	-0.356
Mof_O 	O 	0.4761	0.4734	0.82434	-0.372
Mof_O 	O 	0.24836	0.8936	0.10813	-0.354
Mof_O 	O 	0.40071	0.7468	0.20613	-0.362
Mof_O 	O 	0.36486	0.781	0.03872	-0.385
Mof_P 	P 	0.01646	0.10641	0.89624	0.428
Mof_H 	H 	0.043	0.231	0.8544	-0.019
Mof_P 	P 	0.85225	0.34943	0.12141	0.52
Mof_H 	H 	0.909	0.494	0.1484	0.01
Mof_Be	Be	0.8616	0.1319	0.9714	0.777
Mof_O 	O 	0.10778	0.0502	0.97698	-0.355
Mof_O 	O 	0.93775	0.1785	0.92348	-0.31
Mof_O 	O 	0.9761	0.9734	0.82434	-0.298
Mof_O 	O 	0.74836	0.3936	0.10813	-0.35
Mof_O 	O 	0.90071	0.2468	0.20613	-0.325
Mof_O 	O 	0.86486	0.281	0.03872	-0.373
Mof_Be	Be	0.5	0.6341	0.25	0.775
Mof_Be	Be	1.40701e-33	0.1341	0.25	0.701
Mof_Be	Be	0.5	0.3659	0.75	0.775
Mof_Be	Be	4.22102e-33	0.8659	0.75	0.702
_end
