data_functionalizedCrystal
_audit_creation_method	'EQeq! by Chris Wilmer'
_symmetry_space_group_name_H-M	'P1'
_symmetry_Int_Tables_number	1
_symmetry_cell_setting	triclinic
loop_
_symmetry_equiv_pos_as_xyz
  x,y,z
_cell_length_a	17.0659
_cell_length_b	17.0659
_cell_length_c	17.0659
_cell_angle_alpha	90
_cell_angle_beta	90
_cell_angle_gamma	90
loop_
_atom_site_label
_atom_site_type_symbol
_atom_site_fract_x
_atom_site_fract_y
_atom_site_fract_z
_atom_site_charge
Mof_N 	N 	0.0276	0.6822	0.4094	-0.419
Mof_C 	C 	0.0987	0.6805	0.3748	0.057
Mof_H 	H 	0.1417	0.7134	0.3876	-0.034
Mof_H 	H 	0.8989	0.6135	0.4524	0.225
Mof_N 	N 	0.0987	0.6252	0.3195	-0.155
Mof_N 	N 	0.5276	0.1822	0.9094	-0.305
Mof_C 	C 	0.5987	0.1805	0.8748	0.074
Mof_H 	H 	0.6417	0.2134	0.8876	-0.023
Mof_H 	H 	0.3989	0.1135	0.9524	0.174
Mof_N 	N 	0.5987	0.1252	0.8195	-0.156
Mof_N 	N 	0.9724	0.3178	0.4094	-0.229
Mof_C 	C 	0.9013	0.3195	0.3748	0.076
Mof_H 	H 	0.8583	0.2866	0.3876	-0.036
Mof_H 	H 	0.1011	0.3865	0.4524	0.093
Mof_N 	N 	0.9013	0.3748	0.3195	-0.151
Mof_N 	N 	0.4724	0.8178	0.9094	-0.314
Mof_C 	C 	0.4013	0.8195	0.8748	0.087
Mof_H 	H 	0.3583	0.7866	0.8876	-0.023
Mof_H 	H 	0.6011	0.8865	0.9524	0.245
Mof_N 	N 	0.4013	0.8748	0.8195	-0.149
Mof_N 	N 	0.9724	0.6822	0.5906	-0.229
Mof_C 	C 	0.9013	0.6805	0.6252	0.083
Mof_H 	H 	0.8583	0.7134	0.6124	-0.035
Mof_H 	H 	0.1011	0.6135	0.5476	0.094
Mof_N 	N 	0.9013	0.6252	0.6805	-0.149
Mof_N 	N 	0.4724	0.1822	0.0906	-0.337
Mof_C 	C 	0.4013	0.1805	0.1252	0.046
Mof_H 	H 	0.3583	0.2134	0.1124	-0.053
Mof_H 	H 	0.6011	0.1135	0.0476	0.083
Mof_N 	N 	0.4013	0.1252	0.1805	-0.157
Mof_N 	N 	0.0276	0.3178	0.5906	-0.42
Mof_C 	C 	0.0987	0.3195	0.6252	0.055
Mof_H 	H 	0.1417	0.2866	0.6124	-0.035
Mof_H 	H 	0.8989	0.3865	0.5476	0.224
Mof_N 	N 	0.0987	0.3748	0.6805	-0.156
Mof_N 	N 	0.5276	0.8178	0.0906	-0.342
Mof_C 	C 	0.5987	0.8195	0.1252	0.064
Mof_H 	H 	0.6417	0.7866	0.1124	-0.043
Mof_H 	H 	0.3989	0.8865	0.0476	0.136
Mof_N 	N 	0.5987	0.8748	0.1805	-0.15
Mof_N 	N 	0.4094	0.0276	0.6822	-0.42
Mof_C 	C 	0.3748	0.0987	0.6805	0.056
Mof_H 	H 	0.3876	0.1417	0.7134	-0.035
Mof_H 	H 	0.4524	0.8989	0.6135	0.224
Mof_N 	N 	0.3195	0.0987	0.6252	-0.156
Mof_N 	N 	0.9094	0.5276	0.1822	-0.306
Mof_C 	C 	0.8748	0.5987	0.1805	0.074
Mof_H 	H 	0.8876	0.6417	0.2134	-0.023
Mof_H 	H 	0.9524	0.3989	0.1135	0.174
Mof_N 	N 	0.8195	0.5987	0.1252	-0.156
Mof_N 	N 	0.4094	0.9724	0.3178	-0.229
Mof_C 	C 	0.3748	0.9013	0.3195	0.076
Mof_H 	H 	0.3876	0.8583	0.2866	-0.036
Mof_H 	H 	0.4524	0.1011	0.3865	0.093
Mof_N 	N 	0.3195	0.9013	0.3748	-0.151
Mof_N 	N 	0.9094	0.4724	0.8178	-0.314
Mof_C 	C 	0.8748	0.4013	0.8195	0.087
Mof_H 	H 	0.8876	0.3583	0.7866	-0.023
Mof_H 	H 	0.9524	0.6011	0.8865	0.245
Mof_N 	N 	0.8195	0.4013	0.8748	-0.149
Mof_N 	N 	0.5906	0.9724	0.6822	-0.229
Mof_C 	C 	0.6252	0.9013	0.6805	0.083
Mof_H 	H 	0.6124	0.8583	0.7134	-0.035
Mof_H 	H 	0.5476	0.1011	0.6135	0.094
Mof_N 	N 	0.6805	0.9013	0.6252	-0.149
Mof_N 	N 	0.0906	0.4724	0.1822	-0.337
Mof_C 	C 	0.1252	0.4013	0.1805	0.046
Mof_H 	H 	0.1124	0.3583	0.2134	-0.053
Mof_H 	H 	0.0476	0.6011	0.1135	0.083
Mof_N 	N 	0.1805	0.4013	0.1252	-0.157
Mof_N 	N 	0.5906	0.0276	0.3178	-0.42
Mof_C 	C 	0.6252	0.0987	0.3195	0.055
Mof_H 	H 	0.6124	0.1417	0.2866	-0.035
Mof_H 	H 	0.5476	0.8989	0.3865	0.224
Mof_N 	N 	0.6805	0.0987	0.3748	-0.156
Mof_N 	N 	0.0906	0.5276	0.8178	-0.342
Mof_C 	C 	0.1252	0.5987	0.8195	0.064
Mof_H 	H 	0.1124	0.6417	0.7866	-0.043
Mof_H 	H 	0.0476	0.3989	0.8865	0.136
Mof_N 	N 	0.1805	0.5987	0.8748	-0.15
Mof_N 	N 	0.6822	0.4094	0.0276	-0.42
Mof_C 	C 	0.6805	0.3748	0.0987	0.056
Mof_H 	H 	0.7134	0.3876	0.1417	-0.035
Mof_H 	H 	0.6135	0.4524	0.8989	0.224
Mof_N 	N 	0.6252	0.3195	0.0987	-0.156
Mof_N 	N 	0.1822	0.9094	0.5276	-0.306
Mof_C 	C 	0.1805	0.8748	0.5987	0.074
Mof_H 	H 	0.2134	0.8876	0.6417	-0.023
Mof_H 	H 	0.1135	0.9524	0.3989	0.174
Mof_N 	N 	0.1252	0.8195	0.5987	-0.156
Mof_N 	N 	0.3178	0.4094	0.9724	-0.229
Mof_C 	C 	0.3195	0.3748	0.9013	0.076
Mof_H 	H 	0.2866	0.3876	0.8583	-0.036
Mof_H 	H 	0.3865	0.4524	0.1011	0.093
Mof_N 	N 	0.3748	0.3195	0.9013	-0.151
Mof_N 	N 	0.8178	0.9094	0.4724	-0.314
Mof_C 	C 	0.8195	0.8748	0.4013	0.087
Mof_H 	H 	0.7866	0.8876	0.3583	-0.023
Mof_H 	H 	0.8865	0.9524	0.6011	0.245
Mof_N 	N 	0.8748	0.8195	0.4013	-0.149
Mof_N 	N 	0.6822	0.5906	0.9724	-0.229
Mof_C 	C 	0.6805	0.6252	0.9013	0.083
Mof_H 	H 	0.7134	0.6124	0.8583	-0.035
Mof_H 	H 	0.6135	0.5476	0.1011	0.094
Mof_N 	N 	0.6252	0.6805	0.9013	-0.149
Mof_N 	N 	0.1822	0.0906	0.4724	-0.337
Mof_C 	C 	0.1805	0.1252	0.4013	0.046
Mof_H 	H 	0.2134	0.1124	0.3583	-0.053
Mof_H 	H 	0.1135	0.0476	0.6011	0.083
Mof_N 	N 	0.1252	0.1805	0.4013	-0.157
Mof_N 	N 	0.3178	0.5906	0.0276	-0.42
Mof_C 	C 	0.3195	0.6252	0.0987	0.055
Mof_H 	H 	0.2866	0.6124	0.1417	-0.035
Mof_H 	H 	0.3865	0.5476	0.8989	0.224
Mof_N 	N 	0.3748	0.6805	0.0987	-0.156
Mof_N 	N 	0.8178	0.0906	0.5276	-0.342
Mof_C 	C 	0.8195	0.1252	0.5987	0.064
Mof_H 	H 	0.7866	0.1124	0.6417	-0.043
Mof_H 	H 	0.8865	0.0476	0.3989	0.136
Mof_N 	N 	0.8748	0.1805	0.5987	-0.15
Mof_N 	N 	0.6822	0.0276	0.4094	-0.384
Mof_H 	H 	0.7134	0.1417	0.3876	0.047
Mof_H 	H 	0.6135	0.8989	0.4524	0.224
Mof_N 	N 	0.1822	0.5276	0.9094	-0.268
Mof_H 	H 	0.2134	0.6417	0.8876	0.064
Mof_H 	H 	0.1135	0.3989	0.9524	0.174
Mof_N 	N 	0.3178	0.9724	0.4094	-0.19
Mof_H 	H 	0.2866	0.8583	0.3876	0.052
Mof_H 	H 	0.3865	0.1011	0.4524	0.094
Mof_N 	N 	0.8178	0.4724	0.9094	-0.273
Mof_H 	H 	0.7866	0.3583	0.8876	0.069
Mof_H 	H 	0.8865	0.6011	0.9524	0.245
Mof_N 	N 	0.6822	0.9724	0.5906	-0.189
Mof_H 	H 	0.7134	0.8583	0.6124	0.055
Mof_H 	H 	0.6135	0.1011	0.5476	0.094
Mof_N 	N 	0.1822	0.4724	0.0906	-0.302
Mof_H 	H 	0.2134	0.3583	0.1124	0.026
Mof_H 	H 	0.1135	0.6011	0.0476	0.083
Mof_N 	N 	0.3178	0.0276	0.5906	-0.384
Mof_H 	H 	0.2866	0.1417	0.6124	0.047
Mof_H 	H 	0.3865	0.8989	0.5476	0.224
Mof_N 	N 	0.8178	0.5276	0.0906	-0.305
Mof_H 	H 	0.7866	0.6417	0.1124	0.042
Mof_H 	H 	0.8865	0.3989	0.0476	0.136
Mof_N 	N 	0.0276	0.4094	0.6822	-0.384
Mof_H 	H 	0.1417	0.3876	0.7134	0.047
Mof_H 	H 	0.8989	0.4524	0.6135	0.224
Mof_N 	N 	0.5276	0.9094	0.1822	-0.268
Mof_H 	H 	0.6417	0.8876	0.2134	0.064
Mof_H 	H 	0.3989	0.9524	0.1135	0.174
Mof_N 	N 	0.9724	0.4094	0.3178	-0.19
Mof_H 	H 	0.8583	0.3876	0.2866	0.052
Mof_H 	H 	0.1011	0.4524	0.3865	0.094
Mof_N 	N 	0.4724	0.9094	0.8178	-0.273
Mof_H 	H 	0.3583	0.8876	0.7866	0.069
Mof_H 	H 	0.6011	0.9524	0.8865	0.245
Mof_N 	N 	0.9724	0.5906	0.6822	-0.189
Mof_H 	H 	0.8583	0.6124	0.7134	0.055
Mof_H 	H 	0.1011	0.5476	0.6135	0.094
Mof_N 	N 	0.4724	0.0906	0.1822	-0.302
Mof_H 	H 	0.3583	0.1124	0.2134	0.026
Mof_H 	H 	0.6011	0.0476	0.1135	0.083
Mof_N 	N 	0.0276	0.5906	0.3178	-0.384
Mof_H 	H 	0.1417	0.6124	0.2866	0.047
Mof_H 	H 	0.8989	0.5476	0.3865	0.224
Mof_N 	N 	0.5276	0.0906	0.8178	-0.305
Mof_H 	H 	0.6417	0.1124	0.7866	0.042
Mof_H 	H 	0.3989	0.0476	0.8865	0.136
Mof_N 	N 	0.4094	0.6822	0.0276	-0.384
Mof_H 	H 	0.3876	0.7134	0.1417	0.047
Mof_H 	H 	0.4524	0.6135	0.8989	0.224
Mof_N 	N 	0.9094	0.1822	0.5276	-0.268
Mof_H 	H 	0.8876	0.2134	0.6417	0.064
Mof_H 	H 	0.9524	0.1135	0.3989	0.174
Mof_N 	N 	0.4094	0.3178	0.9724	-0.19
Mof_H 	H 	0.3876	0.2866	0.8583	0.052
Mof_H 	H 	0.4524	0.3865	0.1011	0.094
Mof_N 	N 	0.9094	0.8178	0.4724	-0.273
Mof_H 	H 	0.8876	0.7866	0.3583	0.069
Mof_H 	H 	0.9524	0.8865	0.6011	0.245
Mof_N 	N 	0.5906	0.6822	0.9724	-0.189
Mof_H 	H 	0.6124	0.7134	0.8583	0.055
Mof_H 	H 	0.5476	0.6135	0.1011	0.094
Mof_N 	N 	0.0906	0.1822	0.4724	-0.302
Mof_H 	H 	0.1124	0.2134	0.3583	0.026
Mof_H 	H 	0.0476	0.1135	0.6011	0.083
Mof_N 	N 	0.5906	0.3178	0.0276	-0.384
Mof_H 	H 	0.6124	0.2866	0.1417	0.047
Mof_H 	H 	0.5476	0.3865	0.8989	0.224
Mof_N 	N 	0.0906	0.8178	0.5276	-0.305
Mof_H 	H 	0.1124	0.7866	0.6417	0.042
Mof_H 	H 	0.0476	0.8865	0.3989	0.136
Mof_Zn	Zn	1.8747e-33	0.75	0.5	1.139
Mof_Zn	Zn	1.8747e-33	0.25	0.5	1.137
Mof_Zn	Zn	0.5	0	0.75	1.139
Mof_Zn	Zn	0.5	0	0.25	1.137
Mof_Zn	Zn	0.75	0.5	-0	1.139
Mof_Zn	Zn	0.25	0.5	-0	1.137
Mof_Zn	Zn	0.75	0	0.5	1.139
Mof_Zn	Zn	0.25	0	0.5	1.137
Mof_Zn	Zn	2.81205e-33	0.5	0.75	1.139
Mof_Zn	Zn	9.3735e-34	0.5	0.25	1.137
Mof_Zn	Zn	0.5	0.75	-0	1.139
Mof_Zn	Zn	0.5	0.25	-0	1.137
Mof_C 	C 	0.9862	0.6277	0.3723	0.455
Mof_C 	C 	0.9059	0.6038	0.3962	-0.793
Mof_H 	H 	0.8672	0.6338	0.3662	0.229
Mof_C 	C 	0.4862	0.1277	0.8723	0.228
Mof_C 	C 	0.4059	0.1038	0.8962	-0.602
Mof_H 	H 	0.3672	0.1338	0.8662	0.168
Mof_C 	C 	0.0138	0.3723	0.3723	0.003
Mof_C 	C 	0.0941	0.3962	0.3962	-0.423
Mof_H 	H 	0.1328	0.3662	0.3662	0.115
Mof_C 	C 	0.5138	0.8723	0.8723	0.287
Mof_C 	C 	0.5941	0.8962	0.8962	-0.732
Mof_H 	H 	0.6328	0.8662	0.8662	0.23
Mof_C 	C 	0.0138	0.6277	0.6277	0.008
Mof_C 	C 	0.0941	0.6038	0.6038	-0.426
Mof_H 	H 	0.1328	0.6338	0.6338	0.118
Mof_C 	C 	0.5138	0.1277	0.1277	0.178
Mof_C 	C 	0.5941	0.1038	0.1038	-0.502
Mof_H 	H 	0.6328	0.1338	0.1338	0.128
Mof_C 	C 	0.9862	0.3723	0.6277	0.455
Mof_C 	C 	0.9059	0.3962	0.6038	-0.793
Mof_H 	H 	0.8672	0.3662	0.6338	0.229
Mof_C 	C 	0.4862	0.8723	0.1277	0.228
Mof_C 	C 	0.4059	0.8962	0.1038	-0.601
Mof_H 	H 	0.3672	0.8662	0.1338	0.168
Mof_C 	C 	0.3723	0.9862	0.6277	0.455
Mof_C 	C 	0.3962	0.9059	0.6038	-0.793
Mof_H 	H 	0.3662	0.8672	0.6338	0.229
Mof_C 	C 	0.8723	0.4862	0.1277	0.228
Mof_C 	C 	0.8962	0.4059	0.1038	-0.602
Mof_H 	H 	0.8662	0.3672	0.1338	0.168
Mof_C 	C 	0.3723	0.0138	0.3723	0.003
Mof_C 	C 	0.3962	0.0941	0.3962	-0.423
Mof_H 	H 	0.3662	0.1328	0.3662	0.115
Mof_C 	C 	0.8723	0.5138	0.8723	0.287
Mof_C 	C 	0.8962	0.5941	0.8962	-0.732
Mof_H 	H 	0.8662	0.6328	0.8662	0.23
Mof_C 	C 	0.6277	0.0138	0.6277	0.008
Mof_C 	C 	0.6038	0.0941	0.6038	-0.426
Mof_H 	H 	0.6338	0.1328	0.6338	0.118
Mof_C 	C 	0.1277	0.5138	0.1277	0.178
Mof_C 	C 	0.1038	0.5941	0.1038	-0.502
Mof_H 	H 	0.1338	0.6328	0.1338	0.128
Mof_C 	C 	0.6277	0.9862	0.3723	0.455
Mof_C 	C 	0.6038	0.9059	0.3962	-0.793
Mof_H 	H 	0.6338	0.8672	0.3662	0.229
Mof_C 	C 	0.1277	0.4862	0.8723	0.228
Mof_C 	C 	0.1038	0.4059	0.8962	-0.601
Mof_H 	H 	0.1338	0.3672	0.8662	0.168
Mof_C 	C 	0.6277	0.3723	0.9862	0.455
Mof_C 	C 	0.6038	0.3962	0.9059	-0.793
Mof_H 	H 	0.6338	0.3662	0.8672	0.229
Mof_C 	C 	0.1277	0.8723	0.4862	0.228
Mof_C 	C 	0.1038	0.8962	0.4059	-0.602
Mof_H 	H 	0.1338	0.8662	0.3672	0.168
Mof_C 	C 	0.3723	0.3723	0.0138	0.003
Mof_C 	C 	0.3962	0.3962	0.0941	-0.423
Mof_H 	H 	0.3662	0.3662	0.1328	0.115
Mof_C 	C 	0.8723	0.8723	0.5138	0.287
Mof_C 	C 	0.8962	0.8962	0.5941	-0.732
Mof_H 	H 	0.8662	0.8662	0.6328	0.23
Mof_C 	C 	0.6277	0.6277	0.0138	0.008
Mof_C 	C 	0.6038	0.6038	0.0941	-0.426
Mof_H 	H 	0.6338	0.6338	0.1328	0.118
Mof_C 	C 	0.1277	0.1277	0.5138	0.178
Mof_C 	C 	0.1038	0.1038	0.5941	-0.502
Mof_H 	H 	0.1338	0.1338	0.6328	0.128
Mof_C 	C 	0.3723	0.6277	0.9862	0.455
Mof_C 	C 	0.3962	0.6038	0.9059	-0.793
Mof_H 	H 	0.3662	0.6338	0.8672	0.229
Mof_C 	C 	0.8723	0.1277	0.4862	0.228
Mof_C 	C 	0.8962	0.1038	0.4059	-0.601
Mof_H 	H 	0.8662	0.1338	0.3672	0.168
_end
