data_functionalizedCrystal
_audit_creation_method	'EQeq! by Chris Wilmer'
_symmetry_space_group_name_H-M	'P1'
_symmetry_Int_Tables_number	1
_symmetry_cell_setting	triclinic
loop_
_symmetry_equiv_pos_as_xyz
  x,y,z
_cell_length_a	15.3959
_cell_length_b	17.3775
_cell_length_c	15.0543
_cell_angle_alpha	90
_cell_angle_beta	120.42
_cell_angle_gamma	90
loop_
_atom_site_label
_atom_site_type_symbol
_atom_site_fract_x
_atom_site_fract_y
_atom_site_fract_z
_atom_site_charge
Mof_Cd	Cd	0.86611	0.63271	0.7143	0.474
Mof_Br	Br	0.53698	0.59895	0.12981	-0.22
Mof_Br	Br	0.13792	0.63254	0.30796	-0.195
Mof_O 	O 	0.9047	0.4928	0.5717	-0.276
Mof_O 	O 	0.7844	0.5763	0.55	-0.267
Mof_O 	O 	0.949	0.6705	0.8826	-0.31
Mof_O 	O 	0.0762	0.7138	0.8656	-0.262
Mof_H 	H 	0.0263	0.5293	0.8063	0.386
Mof_N 	N 	0.7813	0.4554	0.2647	-0.109
Mof_N 	N 	0.2387	0.7794	0.1669	-0.113
Mof_C 	C 	0.8193	0.4686	0.3648	0.041
Mof_H 	H 	0.8779	0.443	0.4116	0.051
Mof_C 	C 	0.698	0.4932	0.1972	-0.033
Mof_H 	H 	0.6705	0.4844	0.127	0.092
Mof_C 	C 	0.6525	0.5447	0.2296	0.14
Mof_C 	C 	0.6906	0.5596	0.3334	-0.085
Mof_H 	H 	0.6604	0.5952	0.3555	0.111
Mof_C 	C 	0.7754	0.5192	0.4024	-0.033
Mof_C 	C 	0.8257	0.5306	0.5183	0.31
Mof_C 	C 	0.1761	0.7656	0.0664	0.056
Mof_H 	H 	0.1857	0.7922	0.0184	0.052
Mof_C 	C 	0.2245	0.7405	0.2351	-0.031
Mof_H 	H 	0.2677	0.7495	0.305	0.09
Mof_C 	C 	0.1483	0.6879	0.2053	0.136
Mof_C 	C 	0.082	0.6744	0.1027	-0.075
Mof_H 	H 	0.0285	0.6403	0.0817	0.117
Mof_C 	C 	0.0976	0.7134	0.0315	-0.048
Mof_C 	C 	0.0352	0.6978	0.9166	0.373
Mof_Cd	Cd	0.36611	0.13271	0.7143	0.492
Mof_Br	Br	0.03698	0.09895	0.12981	-0.184
Mof_Br	Br	0.63792	0.13254	0.30796	-0.214
Mof_O 	O 	0.4047	0.9928	0.5717	-0.267
Mof_O 	O 	0.2844	0.0763	0.55	-0.264
Mof_O 	O 	0.449	0.1705	0.8826	-0.269
Mof_O 	O 	0.5762	0.2138	0.8656	-0.259
Mof_H 	H 	0.5263	0.0293	0.8063	0.404
Mof_N 	N 	0.2813	0.9554	0.2647	-0.107
Mof_N 	N 	0.7387	0.2794	0.1669	-0.112
Mof_C 	C 	0.3193	0.9686	0.3648	0.04
Mof_H 	H 	0.3779	0.943	0.4116	0.059
Mof_C 	C 	0.198	0.9932	0.1972	-0.034
Mof_H 	H 	0.1705	0.9844	0.127	0.096
Mof_C 	C 	0.1525	0.0447	0.2296	0.143
Mof_C 	C 	0.1906	0.0596	0.3334	-0.086
Mof_H 	H 	0.1604	0.0952	0.3555	0.118
Mof_C 	C 	0.2754	0.0192	0.4024	-0.027
Mof_C 	C 	0.3257	0.0306	0.5183	0.309
Mof_C 	C 	0.6761	0.2656	0.0664	0.046
Mof_H 	H 	0.6857	0.2922	0.0184	0.053
Mof_C 	C 	0.7245	0.2405	0.2351	-0.035
Mof_H 	H 	0.7677	0.2495	0.305	0.088
Mof_C 	C 	0.6483	0.1879	0.2053	0.137
Mof_C 	C 	0.582	0.1744	0.1027	-0.085
Mof_H 	H 	0.5285	0.1403	0.0817	0.108
Mof_C 	C 	0.5976	0.2134	0.0315	-0.037
Mof_C 	C 	0.5352	0.1978	0.9166	0.321
Mof_Cd	Cd	0.13389	0.63271	0.7857	0.496
Mof_Br	Br	0.46302	0.59895	0.37019	-0.216
Mof_Br	Br	0.86208	0.63254	0.19204	-0.23
Mof_O 	O 	0.0953	0.4928	0.9283	-0.254
Mof_O 	O 	0.2156	0.5763	0.95	-0.266
Mof_O 	O 	0.051	0.6705	0.6174	-0.228
Mof_O 	O 	0.9238	0.7138	0.6344	-0.257
Mof_H 	H 	0.9737	0.5293	0.6937	0.35
Mof_N 	N 	0.2187	0.4554	0.2353	-0.108
Mof_N 	N 	0.7613	0.7794	0.3331	-0.111
Mof_C 	C 	0.1807	0.4686	0.1352	0.041
Mof_H 	H 	0.1221	0.443	0.0884	0.063
Mof_C 	C 	0.302	0.4932	0.3028	-0.033
Mof_H 	H 	0.3295	0.4844	0.373	0.092
Mof_C 	C 	0.3475	0.5447	0.2704	0.14
Mof_C 	C 	0.3094	0.5596	0.1666	-0.086
Mof_H 	H 	0.3396	0.5952	0.1445	0.111
Mof_C 	C 	0.2246	0.5192	0.0976	-0.031
Mof_C 	C 	0.1743	0.5306	0.9817	0.31
Mof_C 	C 	0.8239	0.7656	0.4336	0.036
Mof_H 	H 	0.8143	0.7922	0.4816	0.055
Mof_C 	C 	0.7755	0.7405	0.2649	-0.039
Mof_H 	H 	0.7323	0.7495	0.195	0.089
Mof_C 	C 	0.8517	0.6879	0.2947	0.137
Mof_C 	C 	0.918	0.6744	0.3973	-0.096
Mof_H 	H 	0.9715	0.6403	0.4183	0.098
Mof_C 	C 	0.9024	0.7134	0.4685	-0.026
Mof_C 	C 	0.9648	0.6978	0.5834	0.265
Mof_Cd	Cd	0.63389	0.13271	0.7857	0.49
Mof_Br	Br	0.96302	0.09895	0.37019	-0.251
Mof_Br	Br	0.36208	0.13254	0.19204	-0.21
Mof_O 	O 	0.5953	0.9928	0.9283	-0.264
Mof_O 	O 	0.7156	0.0763	0.95	-0.268
Mof_O 	O 	0.551	0.1705	0.6174	-0.269
Mof_O 	O 	0.4238	0.2138	0.6344	-0.259
Mof_H 	H 	0.4737	0.0293	0.6937	0.405
Mof_N 	N 	0.7187	0.9554	0.2353	-0.108
Mof_N 	N 	0.2613	0.2794	0.3331	-0.112
Mof_C 	C 	0.6807	0.9686	0.1352	0.035
Mof_H 	H 	0.6221	0.943	0.0884	0.058
Mof_C 	C 	0.802	0.9932	0.3028	-0.04
Mof_H 	H 	0.8295	0.9844	0.373	0.089
Mof_C 	C 	0.8475	0.0447	0.2704	0.142
Mof_C 	C 	0.8094	0.0596	0.1666	-0.091
Mof_H 	H 	0.8396	0.0952	0.1445	0.107
Mof_C 	C 	0.7246	0.0192	0.0976	-0.029
Mof_C 	C 	0.6743	0.0306	0.9817	0.307
Mof_C 	C 	0.3239	0.2656	0.4336	0.046
Mof_H 	H 	0.3143	0.2922	0.4816	0.054
Mof_C 	C 	0.2755	0.2405	0.2649	-0.035
Mof_H 	H 	0.2323	0.2495	0.195	0.091
Mof_C 	C 	0.3517	0.1879	0.2947	0.137
Mof_C 	C 	0.418	0.1744	0.3973	-0.086
Mof_H 	H 	0.4715	0.1403	0.4183	0.108
Mof_C 	C 	0.4024	0.2134	0.4685	-0.034
Mof_C 	C 	0.4648	0.1978	0.5834	0.319
Mof_Cd	Cd	0.13389	0.36729	0.2857	0.496
Mof_Br	Br	0.46302	0.40105	0.87019	-0.214
Mof_Br	Br	0.86208	0.36746	0.69204	-0.228
Mof_O 	O 	0.0953	0.5072	0.4283	-0.254
Mof_O 	O 	0.2156	0.4237	0.45	-0.266
Mof_O 	O 	0.051	0.3295	0.1174	-0.227
Mof_O 	O 	0.9238	0.2862	0.1344	-0.257
Mof_H 	H 	0.9737	0.4707	0.1937	0.348
Mof_N 	N 	0.2187	0.5446	0.7353	-0.107
Mof_N 	N 	0.7613	0.2206	0.8331	-0.11
Mof_C 	C 	0.1807	0.5314	0.6352	0.039
Mof_H 	H 	0.1221	0.557	0.5884	0.065
Mof_C 	C 	0.302	0.5068	0.8028	-0.034
Mof_H 	H 	0.3295	0.5156	0.873	0.093
Mof_C 	C 	0.3475	0.4553	0.7704	0.141
Mof_C 	C 	0.3094	0.4404	0.6666	-0.088
Mof_H 	H 	0.3396	0.4048	0.6445	0.112
Mof_C 	C 	0.2246	0.4808	0.5976	-0.026
Mof_C 	C 	0.1743	0.4694	0.4817	0.306
Mof_C 	C 	0.8239	0.2344	0.9336	0.034
Mof_H 	H 	0.8143	0.2078	0.9816	0.057
Mof_C 	C 	0.7755	0.2595	0.7649	-0.039
Mof_H 	H 	0.7323	0.2505	0.695	0.09
Mof_C 	C 	0.8517	0.3121	0.7947	0.139
Mof_C 	C 	0.918	0.3256	0.8973	-0.099
Mof_H 	H 	0.9715	0.3597	0.9183	0.1
Mof_C 	C 	0.9024	0.2866	0.9685	-0.019
Mof_C 	C 	0.9648	0.3022	0.0834	0.26
Mof_Cd	Cd	0.63389	0.86729	0.2857	0.49
Mof_Br	Br	0.96302	0.90105	0.87019	-0.247
Mof_Br	Br	0.36208	0.86746	0.69204	-0.21
Mof_O 	O 	0.5953	0.0072	0.4283	-0.268
Mof_O 	O 	0.7156	0.9237	0.45	-0.269
Mof_O 	O 	0.551	0.8295	0.1174	-0.269
Mof_O 	O 	0.4238	0.7862	0.1344	-0.258
Mof_H 	H 	0.4737	0.9707	0.1937	0.404
Mof_N 	N 	0.7187	0.0446	0.7353	-0.108
Mof_N 	N 	0.2613	0.7206	0.8331	-0.11
Mof_C 	C 	0.6807	0.0314	0.6352	0.039
Mof_H 	H 	0.6221	0.057	0.5884	0.058
Mof_C 	C 	0.802	0.0068	0.8028	-0.037
Mof_H 	H 	0.8295	0.0156	0.873	0.089
Mof_C 	C 	0.8475	0.9553	0.7704	0.141
Mof_C 	C 	0.8094	0.9404	0.6666	-0.089
Mof_H 	H 	0.8396	0.9048	0.6445	0.107
Mof_C 	C 	0.7246	0.9808	0.5976	-0.031
Mof_C 	C 	0.6743	0.9694	0.4817	0.308
Mof_C 	C 	0.3239	0.7344	0.9336	0.043
Mof_H 	H 	0.3143	0.7078	0.9816	0.057
Mof_C 	C 	0.2755	0.7595	0.7649	-0.036
Mof_H 	H 	0.2323	0.7505	0.695	0.092
Mof_C 	C 	0.3517	0.8121	0.7947	0.139
Mof_C 	C 	0.418	0.8256	0.8973	-0.09
Mof_H 	H 	0.4715	0.8597	0.9183	0.111
Mof_C 	C 	0.4024	0.7866	0.9685	-0.026
Mof_C 	C 	0.4648	0.8022	0.0834	0.312
Mof_Cd	Cd	0.86611	0.36729	0.2143	0.474
Mof_Br	Br	0.53698	0.40105	0.62981	-0.217
Mof_Br	Br	0.13792	0.36746	0.80796	-0.195
Mof_O 	O 	0.9047	0.5072	0.0717	-0.276
Mof_O 	O 	0.7844	0.4237	0.05	-0.267
Mof_O 	O 	0.949	0.3295	0.3826	-0.311
Mof_O 	O 	0.0762	0.2862	0.3656	-0.262
Mof_H 	H 	0.0263	0.4707	0.3063	0.385
Mof_N 	N 	0.7813	0.5446	0.7647	-0.108
Mof_N 	N 	0.2387	0.2206	0.6669	-0.113
Mof_C 	C 	0.8193	0.5314	0.8648	0.039
Mof_H 	H 	0.8779	0.557	0.9116	0.054
Mof_C 	C 	0.698	0.5068	0.6972	-0.034
Mof_H 	H 	0.6705	0.5156	0.627	0.093
Mof_C 	C 	0.6525	0.4553	0.7296	0.141
Mof_C 	C 	0.6906	0.4404	0.8334	-0.088
Mof_H 	H 	0.6604	0.4048	0.8555	0.113
Mof_C 	C 	0.7754	0.4808	0.9024	-0.026
Mof_C 	C 	0.8257	0.4694	0.0183	0.305
Mof_C 	C 	0.1761	0.2344	0.5664	0.054
Mof_H 	H 	0.1857	0.2078	0.5184	0.054
Mof_C 	C 	0.2245	0.2595	0.7351	-0.032
Mof_H 	H 	0.2677	0.2505	0.805	0.09
Mof_C 	C 	0.1483	0.3121	0.7053	0.137
Mof_C 	C 	0.082	0.3256	0.6027	-0.077
Mof_H 	H 	0.0285	0.3597	0.5817	0.119
Mof_C 	C 	0.0976	0.2866	0.5315	-0.042
Mof_C 	C 	0.0352	0.3022	0.4166	0.371
Mof_Cd	Cd	0.36611	0.86729	0.2143	0.491
Mof_Br	Br	0.03698	0.90105	0.62981	-0.183
Mof_Br	Br	0.63792	0.86746	0.80796	-0.212
Mof_O 	O 	0.4047	0.0072	0.0717	-0.263
Mof_O 	O 	0.2844	0.9237	0.05	-0.263
Mof_O 	O 	0.449	0.8295	0.3826	-0.268
Mof_O 	O 	0.5762	0.7862	0.3656	-0.259
Mof_H 	H 	0.5263	0.9707	0.3063	0.405
Mof_N 	N 	0.2813	0.0446	0.7647	-0.105
Mof_N 	N 	0.7387	0.7206	0.6669	-0.111
Mof_C 	C 	0.3193	0.0314	0.8648	0.032
Mof_H 	H 	0.3779	0.057	0.9116	0.062
Mof_C 	C 	0.198	0.0068	0.6972	-0.037
Mof_H 	H 	0.1705	0.0156	0.627	0.098
Mof_C 	C 	0.1525	0.9553	0.7296	0.147
Mof_C 	C 	0.1906	0.9404	0.8334	-0.093
Mof_H 	H 	0.1604	0.9048	0.8555	0.121
Mof_C 	C 	0.2754	0.9808	0.9024	-0.014
Mof_C 	C 	0.3257	0.9694	0.0183	0.297
Mof_C 	C 	0.6761	0.7344	0.5664	0.044
Mof_H 	H 	0.6857	0.7078	0.5184	0.055
Mof_C 	C 	0.7245	0.7595	0.7351	-0.035
Mof_H 	H 	0.7677	0.7505	0.805	0.089
Mof_C 	C 	0.6483	0.8121	0.7053	0.138
Mof_C 	C 	0.582	0.8256	0.6027	-0.087
Mof_H 	H 	0.5285	0.8597	0.5817	0.109
Mof_C 	C 	0.5976	0.7866	0.5315	-0.034
Mof_C 	C 	0.5352	0.8022	0.4166	0.318
Mof_O 	O 	4.1419e-33	0.5542	0.75	-0.689
Mof_O 	O 	0.5	0.0542	0.75	-0.771
Mof_O 	O 	1.38063e-33	0.4458	0.25	-0.687
Mof_O 	O 	0.5	0.9458	0.25	-0.77
_end
