data_functionalizedCrystal
_audit_creation_method	'EQeq! by Chris Wilmer'
_symmetry_space_group_name_H-M	'P1'
_symmetry_Int_Tables_number	1
_symmetry_cell_setting	triclinic
loop_
_symmetry_equiv_pos_as_xyz
  x,y,z
_cell_length_a	8.5465
_cell_length_b	15.9683
_cell_length_c	20.726
_cell_angle_alpha	90
_cell_angle_beta	90
_cell_angle_gamma	90
loop_
_atom_site_label
_atom_site_type_symbol
_atom_site_fract_x
_atom_site_fract_y
_atom_site_fract_z
_atom_site_charge
Mof_Cr	Cr	0.1097	0.4155	0.2124	1.484
Mof_O 	O 	0.2912	0.4394	0.2155	-0.756
Mof_N 	N 	0.086	0.9195	0.6479	-0.251
Mof_C 	C 	0.341	0.6782	0.3962	0.003
Mof_N 	N 	0.428	0.5809	0.2909	-0.249
Mof_C 	C 	0.473	0.663	0.387	0.155
Mof_H 	H 	0.5503	0.6816	0.4169	-0.023
Mof_C 	C 	0.297	0.7266	0.4575	-0.026
Mof_C 	C 	0.241	0.7689	0.4996	-0.083
Mof_C 	C 	0.196	0.819	0.5507	0.124
Mof_C 	C 	0.105	0.784	0.6028	-0.18
Mof_H 	H 	0.0827	0.7254	0.6041	0.066
Mof_C 	C 	0.052	0.8363	0.6505	0.067
Mof_H 	H 	0.9922	0.8146	0.6853	-0.036
Mof_C 	C 	0.232	0.8987	0.5509	-0.23
Mof_H 	H 	0.2964	0.9215	0.518	0.069
Mof_C 	C 	0.176	0.9478	0.5985	0.119
Mof_H 	H 	0.2012	0.0057	0.5975	-0.076
Mof_C 	C 	0.234	0.658	0.346	0.01
Mof_H 	H 	0.1313	0.6808	0.3456	-0.019
Mof_C 	C 	0.281	0.607	0.3008	-0.023
Mof_H 	H 	0.2039	0.586	0.2721	-0.026
Mof_C 	C 	0.521	0.611	0.3254	0.118
Mof_H 	H 	0.6292	0.6031	0.316	-0.043
Mof_C 	C 	0.259	0.605	0.3818	-0.145
Mof_H 	H 	0.1731	0.589	0.408	0.061
Mof_C 	C 	0.303	0.5568	0.3292	0.075
Mof_H 	H 	0.2463	0.5071	0.3193	-0.028
Mof_C 	C 	0.511	0.6536	0.3053	-0.043
Mof_H 	H 	0.5967	0.6701	0.2792	-0.007
Mof_C 	C 	0.467	0.7022	0.358	-0.277
Mof_H 	H 	0.5235	0.7519	0.3678	0.051
Mof_Cr	Cr	0.6097	0.9155	0.7124	1.507
Mof_O 	O 	0.7912	0.9394	0.7155	-0.755
Mof_N 	N 	0.586	0.4195	0.1479	-0.249
Mof_C 	C 	0.841	0.1782	0.8962	-0.006
Mof_N 	N 	0.928	0.0809	0.7909	-0.239
Mof_C 	C 	0.973	0.163	0.887	0.16
Mof_H 	H 	0.0503	0.1816	0.9169	-0.03
Mof_C 	C 	0.797	0.2266	0.9575	-0.022
Mof_C 	C 	0.741	0.2689	0.9996	-0.083
Mof_C 	C 	0.696	0.319	0.0507	0.117
Mof_C 	C 	0.605	0.284	0.1028	-0.178
Mof_H 	H 	0.5827	0.2254	0.1041	0.066
Mof_C 	C 	0.552	0.3363	0.1505	0.071
Mof_H 	H 	0.4922	0.3146	0.1853	-0.039
Mof_C 	C 	0.732	0.3987	0.0509	-0.213
Mof_H 	H 	0.7964	0.4215	0.018	0.062
Mof_C 	C 	0.676	0.4478	0.0985	0.091
Mof_H 	H 	0.7012	0.5057	0.0975	-0.058
Mof_C 	C 	0.734	0.158	0.846	0.014
Mof_H 	H 	0.6313	0.1808	0.8456	-0.02
Mof_C 	C 	0.781	0.107	0.8008	-0.027
Mof_H 	H 	0.7039	0.086	0.7721	-0.024
Mof_C 	C 	0.021	0.111	0.8254	0.103
Mof_H 	H 	0.1292	0.1031	0.816	-0.04
Mof_C 	C 	0.759	0.105	0.8818	-0.142
Mof_H 	H 	0.6731	0.089	0.908	0.06
Mof_C 	C 	0.803	0.0568	0.8292	0.076
Mof_H 	H 	0.7463	0.0071	0.8193	-0.031
Mof_C 	C 	0.011	0.1536	0.8053	-0.052
Mof_H 	H 	0.0967	0.1701	0.7792	-0.005
Mof_C 	C 	0.967	0.2022	0.858	-0.253
Mof_H 	H 	0.0235	0.2519	0.8678	0.039
Mof_Cr	Cr	0.8903	0.5845	0.2124	1.501
Mof_O 	O 	0.7088	0.5606	0.2155	-0.758
Mof_N 	N 	0.914	0.0805	0.6479	-0.247
Mof_C 	C 	0.659	0.3218	0.3962	0.007
Mof_N 	N 	0.572	0.4191	0.2909	-0.248
Mof_C 	C 	0.527	0.337	0.387	0.152
Mof_H 	H 	0.4497	0.3184	0.4169	-0.022
Mof_C 	C 	0.703	0.2734	0.4575	-0.028
Mof_C 	C 	0.759	0.2311	0.4996	-0.076
Mof_C 	C 	0.804	0.181	0.5507	0.113
Mof_C 	C 	0.895	0.216	0.6028	-0.181
Mof_H 	H 	0.9173	0.2746	0.6041	0.069
Mof_C 	C 	0.948	0.1637	0.6505	0.085
Mof_H 	H 	0.0078	0.1854	0.6853	-0.049
Mof_C 	C 	0.768	0.1013	0.5509	-0.202
Mof_H 	H 	0.7036	0.0785	0.518	0.056
Mof_C 	C 	0.824	0.0522	0.5985	0.073
Mof_H 	H 	0.7988	0.9943	0.5975	-0.046
Mof_C 	C 	0.766	0.342	0.346	0.008
Mof_H 	H 	0.8687	0.3192	0.3456	-0.016
Mof_C 	C 	0.719	0.393	0.3008	-0.022
Mof_H 	H 	0.7961	0.414	0.2721	-0.024
Mof_C 	C 	0.479	0.389	0.3254	0.116
Mof_H 	H 	0.3708	0.3969	0.316	-0.043
Mof_C 	C 	0.741	0.395	0.3818	-0.145
Mof_H 	H 	0.8269	0.411	0.408	0.064
Mof_C 	C 	0.697	0.4432	0.3292	0.075
Mof_H 	H 	0.7537	0.4929	0.3193	-0.027
Mof_C 	C 	0.489	0.3464	0.3053	-0.041
Mof_H 	H 	0.4033	0.3299	0.2792	-0.008
Mof_C 	C 	0.533	0.2978	0.358	-0.276
Mof_H 	H 	0.4765	0.2481	0.3678	0.051
Mof_Cr	Cr	0.3903	0.0845	0.7124	1.487
Mof_O 	O 	0.2088	0.0606	0.7155	-0.76
Mof_N 	N 	0.414	0.5805	0.1479	-0.248
Mof_C 	C 	0.159	0.8218	0.8962	0.01
Mof_N 	N 	0.072	0.9191	0.7909	-0.248
Mof_C 	C 	0.027	0.837	0.887	0.153
Mof_H 	H 	0.9497	0.8184	0.9169	-0.02
Mof_C 	C 	0.203	0.7734	0.9575	-0.03
Mof_C 	C 	0.259	0.7311	0.9996	-0.078
Mof_C 	C 	0.304	0.681	0.0507	0.114
Mof_C 	C 	0.395	0.716	0.1028	-0.176
Mof_H 	H 	0.4173	0.7746	0.1041	0.066
Mof_C 	C 	0.448	0.6637	0.1505	0.07
Mof_H 	H 	0.5078	0.6854	0.1853	-0.039
Mof_C 	C 	0.268	0.6013	0.0509	-0.211
Mof_H 	H 	0.2036	0.5785	0.018	0.06
Mof_C 	C 	0.324	0.5522	0.0985	0.089
Mof_H 	H 	0.2988	0.4943	0.0975	-0.058
Mof_C 	C 	0.266	0.842	0.846	0.006
Mof_H 	H 	0.3687	0.8192	0.8456	-0.017
Mof_C 	C 	0.219	0.893	0.8008	-0.021
Mof_H 	H 	0.2961	0.914	0.7721	-0.024
Mof_C 	C 	0.979	0.889	0.8254	0.126
Mof_H 	H 	0.8708	0.8969	0.816	-0.044
Mof_C 	C 	0.241	0.895	0.8818	-0.144
Mof_H 	H 	0.3269	0.911	0.908	0.064
Mof_C 	C 	0.197	0.9432	0.8292	0.074
Mof_H 	H 	0.2537	0.9929	0.8193	-0.022
Mof_C 	C 	0.989	0.8464	0.8053	-0.042
Mof_H 	H 	0.9033	0.8299	0.7792	-0.007
Mof_C 	C 	0.033	0.7978	0.858	-0.286
Mof_H 	H 	0.9765	0.7481	0.8678	0.056
Mof_Ni	Ni	0.5	0.5	0.2183	1.112
Mof_Ni	Ni	6.53123e-33	8.92458e-33	0.7183	1.104
Mof_O 	O 	6.65543e-33	0.5	0.2412	-0.9
Mof_O 	O 	0.5	0	0.7412	-0.905
Mof_Cr	Cr	0.8903	0.4155	0.7876	1.503
Mof_O 	O 	0.7088	0.4394	0.7845	-0.759
Mof_N 	N 	0.914	0.9195	0.3521	-0.25
Mof_C 	C 	0.659	0.6782	0.6038	0.005
Mof_N 	N 	0.572	0.5809	0.7091	-0.248
Mof_C 	C 	0.527	0.663	0.613	0.154
Mof_H 	H 	0.4497	0.6816	0.5831	-0.023
Mof_C 	C 	0.703	0.7266	0.5425	-0.025
Mof_C 	C 	0.759	0.7689	0.5004	-0.082
Mof_C 	C 	0.804	0.819	0.4493	0.124
Mof_C 	C 	0.895	0.784	0.3972	-0.185
Mof_H 	H 	0.9173	0.7254	0.3959	0.069
Mof_C 	C 	0.948	0.8363	0.3495	0.08
Mof_H 	H 	0.0078	0.8146	0.3147	-0.044
Mof_C 	C 	0.768	0.8987	0.4491	-0.226
Mof_H 	H 	0.7036	0.9215	0.482	0.068
Mof_C 	C 	0.824	0.9478	0.4015	0.112
Mof_H 	H 	0.7988	0.0057	0.4025	-0.069
Mof_C 	C 	0.766	0.658	0.654	0.009
Mof_H 	H 	0.8687	0.6808	0.6544	-0.017
Mof_C 	C 	0.719	0.607	0.6992	-0.022
Mof_H 	H 	0.7961	0.586	0.7279	-0.024
Mof_C 	C 	0.479	0.611	0.6746	0.117
Mof_H 	H 	0.3708	0.6031	0.684	-0.043
Mof_C 	C 	0.741	0.605	0.6182	-0.144
Mof_H 	H 	0.8269	0.589	0.592	0.063
Mof_C 	C 	0.697	0.5568	0.6708	0.074
Mof_H 	H 	0.7537	0.5071	0.6807	-0.027
Mof_C 	C 	0.489	0.6536	0.6947	-0.042
Mof_H 	H 	0.4033	0.6701	0.7208	-0.008
Mof_C 	C 	0.533	0.7022	0.642	-0.277
Mof_H 	H 	0.4765	0.7519	0.6322	0.051
Mof_Cr	Cr	0.3903	0.9155	0.2876	1.507
Mof_O 	O 	0.2088	0.9394	0.2845	-0.755
Mof_N 	N 	0.414	0.4195	0.8521	-0.248
Mof_C 	C 	0.159	0.1782	0.1038	0.021
Mof_N 	N 	0.072	0.0809	0.2091	-0.257
Mof_C 	C 	0.027	0.163	0.113	0.137
Mof_H 	H 	0.9497	0.1816	0.0831	-0.013
Mof_C 	C 	0.203	0.2266	0.0425	-0.037
Mof_C 	C 	0.259	0.2689	0.0004	-0.075
Mof_C 	C 	0.304	0.319	0.9493	0.112
Mof_C 	C 	0.395	0.284	0.8972	-0.175
Mof_H 	H 	0.4173	0.2254	0.8959	0.064
Mof_C 	C 	0.448	0.3363	0.8495	0.069
Mof_H 	H 	0.5078	0.3146	0.8147	-0.039
Mof_C 	C 	0.268	0.3987	0.9491	-0.21
Mof_H 	H 	0.2036	0.4215	0.982	0.059
Mof_C 	C 	0.324	0.4478	0.9015	0.088
Mof_H 	H 	0.2988	0.5057	0.9025	-0.058
Mof_C 	C 	0.266	0.158	0.154	0.006
Mof_H 	H 	0.3687	0.1808	0.1544	-0.017
Mof_C 	C 	0.219	0.107	0.1992	-0.02
Mof_H 	H 	0.2961	0.086	0.2279	-0.027
Mof_C 	C 	0.979	0.111	0.1746	0.125
Mof_H 	H 	0.8708	0.1031	0.184	-0.047
Mof_C 	C 	0.241	0.105	0.1182	-0.153
Mof_H 	H 	0.3269	0.089	0.092	0.063
Mof_C 	C 	0.197	0.0568	0.1708	0.076
Mof_H 	H 	0.2537	0.0071	0.1807	-0.033
Mof_C 	C 	0.989	0.1536	0.1947	-0.026
Mof_H 	H 	0.9033	0.1701	0.2208	-0.012
Mof_C 	C 	0.033	0.2022	0.142	-0.293
Mof_H 	H 	0.9765	0.2519	0.1322	0.06
Mof_Cr	Cr	0.1097	0.5845	0.7876	1.487
Mof_O 	O 	0.2912	0.5606	0.7845	-0.756
Mof_N 	N 	0.086	0.0805	0.3521	-0.243
Mof_C 	C 	0.341	0.3218	0.6038	0.007
Mof_N 	N 	0.428	0.4191	0.7091	-0.248
Mof_C 	C 	0.473	0.337	0.613	0.153
Mof_H 	H 	0.5503	0.3184	0.5831	-0.022
Mof_C 	C 	0.297	0.2734	0.5425	-0.032
Mof_C 	C 	0.241	0.2311	0.5004	-0.073
Mof_C 	C 	0.196	0.181	0.4493	0.098
Mof_C 	C 	0.105	0.216	0.3972	-0.161
Mof_H 	H 	0.0827	0.2746	0.3959	0.059
Mof_C 	C 	0.052	0.1637	0.3495	0.049
Mof_H 	H 	0.9922	0.1854	0.3147	-0.027
Mof_C 	C 	0.232	0.1013	0.4491	-0.188
Mof_H 	H 	0.2964	0.0785	0.482	0.05
Mof_C 	C 	0.176	0.0522	0.4015	0.056
Mof_H 	H 	0.2012	0.9943	0.4025	-0.039
Mof_C 	C 	0.234	0.342	0.654	0.009
Mof_H 	H 	0.1313	0.3192	0.6544	-0.019
Mof_C 	C 	0.281	0.393	0.6992	-0.022
Mof_H 	H 	0.2039	0.414	0.7279	-0.026
Mof_C 	C 	0.521	0.389	0.6746	0.117
Mof_H 	H 	0.6292	0.3969	0.684	-0.043
Mof_C 	C 	0.259	0.395	0.6182	-0.145
Mof_H 	H 	0.1731	0.411	0.592	0.061
Mof_C 	C 	0.303	0.4432	0.6708	0.075
Mof_H 	H 	0.2463	0.4929	0.6807	-0.028
Mof_C 	C 	0.511	0.3464	0.6947	-0.041
Mof_H 	H 	0.5967	0.3299	0.7208	-0.008
Mof_C 	C 	0.467	0.2978	0.642	-0.277
Mof_H 	H 	0.5235	0.2481	0.6322	0.051
Mof_Cr	Cr	0.6097	0.0845	0.2876	1.488
Mof_O 	O 	0.7912	0.0606	0.2845	-0.756
Mof_N 	N 	0.586	0.5805	0.8521	-0.249
Mof_C 	C 	0.841	0.8218	0.1038	-0.002
Mof_N 	N 	0.928	0.9191	0.2091	-0.242
Mof_C 	C 	0.973	0.837	0.113	0.166
Mof_H 	H 	0.0503	0.8184	0.0831	-0.027
Mof_C 	C 	0.797	0.7734	0.0425	-0.023
Mof_C 	C 	0.741	0.7311	0.0004	-0.081
Mof_C 	C 	0.696	0.681	0.9493	0.117
Mof_C 	C 	0.605	0.716	0.8972	-0.178
Mof_H 	H 	0.5827	0.7746	0.8959	0.067
Mof_C 	C 	0.552	0.6637	0.8495	0.071
Mof_H 	H 	0.4922	0.6854	0.8147	-0.039
Mof_C 	C 	0.732	0.6013	0.9491	-0.213
Mof_H 	H 	0.7964	0.5785	0.982	0.062
Mof_C 	C 	0.676	0.5522	0.9015	0.091
Mof_H 	H 	0.7012	0.4943	0.9025	-0.058
Mof_C 	C 	0.734	0.842	0.154	0.008
Mof_H 	H 	0.6313	0.8192	0.1544	-0.017
Mof_C 	C 	0.781	0.893	0.1992	-0.02
Mof_H 	H 	0.7039	0.914	0.2279	-0.024
Mof_C 	C 	0.021	0.889	0.1746	0.114
Mof_H 	H 	0.1292	0.8969	0.184	-0.039
Mof_C 	C 	0.759	0.895	0.1182	-0.138
Mof_H 	H 	0.6731	0.911	0.092	0.062
Mof_C 	C 	0.803	0.9432	0.1708	0.071
Mof_H 	H 	0.7463	0.9929	0.1807	-0.022
Mof_C 	C 	0.011	0.8464	0.1947	-0.047
Mof_H 	H 	0.0967	0.8299	0.2208	-0.007
Mof_C 	C 	0.967	0.7978	0.142	-0.275
Mof_H 	H 	0.0235	0.7481	0.1322	0.048
Mof_Ni	Ni	0.5	0.5	0.7817	1.112
Mof_Ni	Ni	2.56139e-33	0	0.2817	1.104
Mof_O 	O 	6.89948e-33	0.5	0.7588	-0.901
Mof_O 	O 	0.5	0	0.2588	-0.906
_end
