data_functionalizedCrystal
_audit_creation_method	'EQeq! by Chris Wilmer'
_symmetry_space_group_name_H-M	'P1'
_symmetry_Int_Tables_number	1
_symmetry_cell_setting	triclinic
loop_
_symmetry_equiv_pos_as_xyz
  x,y,z
_cell_length_a	6.591
_cell_length_b	11.078
_cell_length_c	15.408
_cell_angle_alpha	90
_cell_angle_beta	90
_cell_angle_gamma	90
loop_
_atom_site_label
_atom_site_type_symbol
_atom_site_fract_x
_atom_site_fract_y
_atom_site_fract_z
_atom_site_charge
Mof_Cu	Cu	0.75	0.72601	0.99264	0.897
Mof_O 	O 	0.0092	0.752	0.9388	-0.59
Mof_H 	H 	0.0183	0.7541	0.8786	0.196
Mof_N 	N 	0.1053	0.6881	0.1052	-0.199
Mof_N 	N 	0.9007	0.6669	0.0983	-0.201
Mof_N 	N 	0.9963	0.6211	0.229	-0.153
Mof_N 	N 	0.8778	0.4583	0.4319	-0.17
Mof_C 	C 	0.841	0.6267	0.1734	0.104
Mof_H 	H 	0.7084	0.6049	0.1866	-0.02
Mof_C 	C 	0.1598	0.6622	0.1843	0.099
Mof_H 	H 	0.2901	0.6705	0.2066	-0.021
Mof_C 	C 	0.9905	0.5898	0.3207	0.071
Mof_C 	C 	0.104	0.6564	0.378	-0.087
Mof_H 	H 	0.1814	0.7217	0.3594	0.059
Mof_C 	C 	0.1	0.623	0.4631	-0.049
Mof_H 	H 	0.1689	0.6678	0.5047	0.044
Mof_C 	C 	0.989	0.5203	0.4868	0.009
Mof_H 	H 	0.9953	0.4946	0.5442	0.006
Mof_C 	C 	0.8819	0.4926	0.3484	-0.033
Mof_H 	H 	0.8079	0.4485	0.308	0.035
Mof_Cu	Cu	0.25	0.77399	0.00736	0.899
Mof_O 	O 	0.5092	0.748	0.0612	-0.59
Mof_H 	H 	0.5183	0.7459	0.1214	0.197
Mof_N 	N 	0.6053	0.8119	0.8948	-0.198
Mof_N 	N 	0.4007	0.8331	0.9017	-0.2
Mof_N 	N 	0.4963	0.8789	0.771	-0.153
Mof_N 	N 	0.3778	0.0417	0.5681	-0.17
Mof_C 	C 	0.341	0.8733	0.8266	0.104
Mof_H 	H 	0.2084	0.8951	0.8134	-0.02
Mof_C 	C 	0.6598	0.8378	0.8157	0.099
Mof_H 	H 	0.7901	0.8295	0.7934	-0.022
Mof_C 	C 	0.4905	0.9102	0.6793	0.071
Mof_C 	C 	0.604	0.8436	0.622	-0.087
Mof_H 	H 	0.6814	0.7783	0.6406	0.059
Mof_C 	C 	0.6	0.877	0.5369	-0.049
Mof_H 	H 	0.6689	0.8322	0.4953	0.043
Mof_C 	C 	0.489	0.9797	0.5132	0.007
Mof_H 	H 	0.4953	0.0054	0.4558	0.008
Mof_C 	C 	0.3819	0.0074	0.6516	-0.033
Mof_H 	H 	0.3079	0.0515	0.692	0.035
Mof_Cu	Cu	0.75	0.27399	0.49264	0.899
Mof_O 	O 	0.4908	0.248	0.4388	-0.591
Mof_H 	H 	0.4817	0.2459	0.3786	0.197
Mof_N 	N 	0.3947	0.3119	0.6052	-0.198
Mof_N 	N 	0.5993	0.3331	0.5983	-0.201
Mof_N 	N 	0.5037	0.3789	0.729	-0.153
Mof_N 	N 	0.6222	0.5417	0.9319	-0.17
Mof_C 	C 	0.659	0.3733	0.6734	0.104
Mof_H 	H 	0.7916	0.3951	0.6866	-0.021
Mof_C 	C 	0.3402	0.3378	0.6843	0.1
Mof_H 	H 	0.2099	0.3295	0.7066	-0.02
Mof_C 	C 	0.5095	0.4102	0.8207	0.072
Mof_C 	C 	0.396	0.3436	0.878	-0.087
Mof_H 	H 	0.3186	0.2783	0.8594	0.059
Mof_C 	C 	0.4	0.377	0.9631	-0.048
Mof_H 	H 	0.3311	0.3322	0.0047	0.043
Mof_C 	C 	0.511	0.4797	0.9868	0.009
Mof_H 	H 	0.5047	0.5054	0.0442	0.007
Mof_C 	C 	0.6181	0.5074	0.8484	-0.034
Mof_H 	H 	0.6921	0.5515	0.808	0.034
Mof_Cu	Cu	0.25	0.22601	0.50736	0.899
Mof_O 	O 	0.9908	0.252	0.5612	-0.591
Mof_H 	H 	0.9817	0.2541	0.6214	0.197
Mof_N 	N 	0.8947	0.1881	0.3948	-0.198
Mof_N 	N 	0.0993	0.1669	0.4017	-0.201
Mof_N 	N 	0.0037	0.1211	0.271	-0.154
Mof_N 	N 	0.1222	0.9583	0.0681	-0.168
Mof_C 	C 	0.159	0.1267	0.3266	0.104
Mof_H 	H 	0.2916	0.1049	0.3134	-0.02
Mof_C 	C 	0.8402	0.1622	0.3157	0.101
Mof_H 	H 	0.7099	0.1705	0.2934	-0.021
Mof_C 	C 	0.0095	0.0898	0.1793	0.072
Mof_C 	C 	0.896	0.1564	0.122	-0.091
Mof_H 	H 	0.8186	0.2217	0.1406	0.061
Mof_C 	C 	0.9	0.123	0.0369	-0.035
Mof_H 	H 	0.8311	0.1678	0.9953	0.037
Mof_C 	C 	0.011	0.0203	0.0132	-0.003
Mof_H 	H 	0.0047	0.9946	0.9558	0.013
Mof_C 	C 	0.1181	0.9926	0.1516	-0.035
Mof_H 	H 	0.1921	0.9485	0.192	0.035
_end
