data_functionalizedCrystal
_audit_creation_method	'EQeq! by Chris Wilmer'
_symmetry_space_group_name_H-M	'P1'
_symmetry_Int_Tables_number	1
_symmetry_cell_setting	triclinic
loop_
_symmetry_equiv_pos_as_xyz
  x,y,z
_cell_length_a	14.4863
_cell_length_b	15.9733
_cell_length_c	16.5214
_cell_angle_alpha	90
_cell_angle_beta	101.128
_cell_angle_gamma	90
loop_
_atom_site_label
_atom_site_type_symbol
_atom_site_fract_x
_atom_site_fract_y
_atom_site_fract_z
_atom_site_charge
Mof_C 	C 	0.0214	0.5324	0.4009	0.142
Mof_H 	H 	0.0522	0.4845	0.3884	-0.015
Mof_C 	C 	0.9252	0.5345	0.3799	-0.233
Mof_H 	H 	0.8925	0.4888	0.3538	0.118
Mof_C 	C 	0.8771	0.60424	0.39738	0.182
Mof_C 	C 	0.9299	0.6681	0.4393	-0.231
Mof_H 	H 	0.9014	0.7164	0.4544	0.125
Mof_C 	C 	0.0262	0.6582	0.4582	0.156
Mof_H 	H 	0.0606	0.7011	0.488	-0.031
Mof_C 	C 	0.7715	0.60691	0.3734	-0.128
Mof_H 	H 	0.753	0.597	0.3146	0.084
Mof_H 	H 	0.745	0.5625	0.4018	0.096
Mof_C 	C 	0.7453	0.75416	0.34499	0.171
Mof_C 	C 	0.7448	0.74926	0.26131	-0.119
Mof_H 	H 	0.7391	0.6977	0.2347	0.086
Mof_C 	C 	0.7531	0.82244	0.21712	-0.051
Mof_C 	C 	0.763	0.89885	0.25711	-0.033
Mof_H 	H 	0.7689	0.9475	0.2276	0.058
Mof_C 	C 	0.7641	0.90323	0.34113	-0.012
Mof_C 	C 	0.7549	0.83104	0.38515	-0.141
Mof_H 	H 	0.7551	0.8339	0.4414	0.109
Mof_C 	C 	0.7736	0.98661	0.385	0.275
Mof_C 	C 	0.7492	0.81726	0.12549	0.375
Mof_C 	C 	0.7398	0.03325	0.8739	0.283
Mof_C 	C 	0.7483	0.11759	0.83543	-0.016
Mof_C 	C 	0.7535	0.12347	0.75228	-0.029
Mof_H 	H 	0.7493	0.0754	0.7201	0.059
Mof_C 	C 	0.7649	0.20045	0.7175	-0.049
Mof_C 	C 	0.7691	0.27313	0.76557	-0.119
Mof_H 	H 	0.7771	0.325	0.7424	0.087
Mof_C 	C 	0.7613	0.26756	0.84792	0.175
Mof_C 	C 	0.7516	0.1891	0.88282	-0.132
Mof_H 	H 	0.7473	0.1851	0.9381	0.109
Mof_C 	C 	0.7723	0.20672	0.62836	0.37
Mof_C 	C 	0.8021	0.4115	0.8784	-0.128
Mof_H 	H 	0.7835	0.4572	0.9105	0.095
Mof_H 	H 	0.7797	0.4239	0.8204	0.084
Mof_C 	C 	0.9074	0.40444	0.8953	0.178
Mof_C 	C 	0.9606	0.4266	0.8383	-0.226
Mof_H 	H 	0.9314	0.4464	0.7868	0.121
Mof_C 	C 	0.0564	0.4195	0.8571	0.135
Mof_H 	H 	0.0904	0.4361	0.8175	-0.01
Mof_C 	C 	0.0512	0.3696	0.9835	0.13
Mof_H 	H 	0.0814	0.3494	0.0346	-0.012
Mof_C 	C 	0.9555	0.3762	0.9693	-0.216
Mof_H 	H 	0.9229	0.3612	0.0104	0.119
Mof_Mn	Mn	0.73194	0.89246	0.95579	0.853
Mof_Mn	Mn	0.73395	0.62899	0.04061	0.858
Mof_N 	N 	0.0736	0.59539	0.43852	-0.213
Mof_N 	N 	0.1044	0.39017	0.92924	-0.201
Mof_O 	O 	0.74774	0.88459	0.08623	-0.387
Mof_O 	O 	0.7481	0.74686	0.09364	-0.413
Mof_O 	O 	0.77129	0.05299	0.34315	-0.33
Mof_O 	O 	0.78116	0.98849	0.46172	-0.325
Mof_O 	O 	0.75224	0.02864	0.95165	-0.333
Mof_O 	O 	0.72005	0.97012	0.8297	-0.325
Mof_O 	O 	0.76061	0.14187	0.58585	-0.388
Mof_O 	O 	0.79227	0.27698	0.60251	-0.403
Mof_O 	O 	0.73377	0.6857	0.39323	-0.192
Mof_O 	O 	0.75985	0.33446	0.89936	-0.192
Mof_C 	C 	0.4786	0.0324	0.0991	0.141
Mof_H 	H 	0.4478	0.9845	0.1116	-0.013
Mof_C 	C 	0.5748	0.0345	0.1201	-0.232
Mof_H 	H 	0.6075	0.9888	0.1462	0.119
Mof_C 	C 	0.6229	0.10424	0.10262	0.181
Mof_C 	C 	0.5701	0.1681	0.0607	-0.23
Mof_H 	H 	0.5986	0.2164	0.0456	0.125
Mof_C 	C 	0.4738	0.1582	0.0418	0.156
Mof_H 	H 	0.4394	0.2011	0.012	-0.031
Mof_C 	C 	0.7285	0.10691	0.1266	-0.127
Mof_H 	H 	0.747	0.097	0.1854	0.084
Mof_H 	H 	0.755	0.0625	0.0982	0.096
Mof_C 	C 	0.7547	0.25416	0.15501	0.171
Mof_C 	C 	0.7552	0.24926	0.23869	-0.119
Mof_H 	H 	0.7609	0.1977	0.2653	0.086
Mof_C 	C 	0.7469	0.32244	0.28288	-0.051
Mof_C 	C 	0.737	0.39885	0.24289	-0.033
Mof_H 	H 	0.7311	0.4475	0.2724	0.058
Mof_C 	C 	0.7359	0.40323	0.15887	-0.012
Mof_C 	C 	0.7451	0.33104	0.11485	-0.141
Mof_H 	H 	0.7449	0.3339	0.0586	0.108
Mof_C 	C 	0.7264	0.48661	0.115	0.275
Mof_C 	C 	0.7508	0.31726	0.37451	0.375
Mof_C 	C 	0.7602	0.53325	0.6261	0.282
Mof_C 	C 	0.7517	0.61759	0.66457	-0.016
Mof_C 	C 	0.7465	0.62347	0.74772	-0.029
Mof_H 	H 	0.7507	0.5754	0.7799	0.058
Mof_C 	C 	0.7351	0.70045	0.7825	-0.05
Mof_C 	C 	0.7309	0.77313	0.73443	-0.119
Mof_H 	H 	0.7229	0.825	0.7576	0.087
Mof_C 	C 	0.7387	0.76756	0.65208	0.174
Mof_C 	C 	0.7484	0.6891	0.61718	-0.132
Mof_H 	H 	0.7527	0.6851	0.5619	0.109
Mof_C 	C 	0.7277	0.70672	0.87164	0.37
Mof_C 	C 	0.6979	0.9115	0.6216	-0.132
Mof_H 	H 	0.7165	0.9572	0.5895	0.095
Mof_H 	H 	0.7203	0.9239	0.6796	0.085
Mof_C 	C 	0.5926	0.90444	0.6047	0.184
Mof_C 	C 	0.5394	0.9266	0.6617	-0.233
Mof_H 	H 	0.5686	0.9464	0.7132	0.123
Mof_C 	C 	0.4436	0.9195	0.6429	0.14
Mof_H 	H 	0.4096	0.9361	0.6825	-0.012
Mof_C 	C 	0.4488	0.8696	0.5165	0.139
Mof_H 	H 	0.4186	0.8494	0.4654	-0.016
Mof_C 	C 	0.5445	0.8762	0.5307	-0.227
Mof_H 	H 	0.5771	0.8612	0.4896	0.124
Mof_Mn	Mn	0.76806	0.39246	0.54421	0.853
Mof_Mn	Mn	0.76605	0.12899	0.45939	0.858
Mof_N 	N 	0.4264	0.09539	0.06148	-0.212
Mof_N 	N 	0.3956	0.89017	0.57076	-0.203
Mof_O 	O 	0.75226	0.38459	0.41377	-0.387
Mof_O 	O 	0.7519	0.24686	0.40636	-0.413
Mof_O 	O 	0.72871	0.55299	0.15685	-0.329
Mof_O 	O 	0.71884	0.48849	0.03828	-0.325
Mof_O 	O 	0.74776	0.52864	0.54835	-0.334
Mof_O 	O 	0.77995	0.47012	0.6703	-0.324
Mof_O 	O 	0.73939	0.64187	0.91415	-0.388
Mof_O 	O 	0.70773	0.77698	0.89749	-0.403
Mof_O 	O 	0.76623	0.1857	0.10677	-0.192
Mof_O 	O 	0.74015	0.83446	0.60064	-0.192
Mof_C 	C 	0.9786	0.4676	0.5991	0.143
Mof_H 	H 	0.9478	0.5155	0.6116	-0.014
Mof_C 	C 	0.0748	0.4655	0.6201	-0.233
Mof_H 	H 	0.1075	0.5112	0.6462	0.118
Mof_C 	C 	0.1229	0.39576	0.60262	0.182
Mof_C 	C 	0.0701	0.3319	0.5607	-0.231
Mof_H 	H 	0.0986	0.2836	0.5456	0.125
Mof_C 	C 	0.9738	0.3418	0.5418	0.156
Mof_H 	H 	0.9394	0.2989	0.512	-0.031
Mof_C 	C 	0.2285	0.39309	0.6266	-0.128
Mof_H 	H 	0.247	0.403	0.6854	0.084
Mof_H 	H 	0.255	0.4375	0.5982	0.096
Mof_C 	C 	0.2547	0.24584	0.65501	0.171
Mof_C 	C 	0.2552	0.25074	0.73869	-0.119
Mof_H 	H 	0.2609	0.3023	0.7653	0.086
Mof_C 	C 	0.2469	0.17756	0.78288	-0.051
Mof_C 	C 	0.237	0.10115	0.74289	-0.033
Mof_H 	H 	0.2311	0.0525	0.7724	0.058
Mof_C 	C 	0.2359	0.09677	0.65887	-0.012
Mof_C 	C 	0.2451	0.16896	0.61485	-0.141
Mof_H 	H 	0.2449	0.1661	0.5586	0.109
Mof_C 	C 	0.2264	0.01339	0.615	0.275
Mof_C 	C 	0.2508	0.18274	0.87451	0.375
Mof_C 	C 	0.2602	0.96675	0.1261	0.283
Mof_C 	C 	0.2517	0.88241	0.16457	-0.016
Mof_C 	C 	0.2465	0.87653	0.24772	-0.029
Mof_H 	H 	0.2507	0.9246	0.2799	0.059
Mof_C 	C 	0.2351	0.79955	0.2825	-0.049
Mof_C 	C 	0.2309	0.72687	0.23443	-0.119
Mof_H 	H 	0.2229	0.675	0.2576	0.087
Mof_C 	C 	0.2387	0.73244	0.15208	0.175
Mof_C 	C 	0.2484	0.8109	0.11718	-0.132
Mof_H 	H 	0.2527	0.8149	0.0619	0.109
Mof_C 	C 	0.2277	0.79328	0.37164	0.37
Mof_C 	C 	0.1979	0.5885	0.1216	-0.128
Mof_H 	H 	0.2165	0.5428	0.0895	0.095
Mof_H 	H 	0.2203	0.5761	0.1796	0.084
Mof_C 	C 	0.0926	0.59556	0.1047	0.178
Mof_C 	C 	0.0394	0.5734	0.1617	-0.226
Mof_H 	H 	0.0686	0.5536	0.2132	0.121
Mof_C 	C 	0.9436	0.5805	0.1429	0.135
Mof_H 	H 	0.9096	0.5639	0.1825	-0.01
Mof_C 	C 	0.9488	0.6304	0.0165	0.13
Mof_H 	H 	0.9186	0.6506	0.9654	-0.012
Mof_C 	C 	0.0445	0.6238	0.0307	-0.216
Mof_H 	H 	0.0771	0.6388	0.9896	0.119
Mof_Mn	Mn	0.26806	0.10754	0.04421	0.853
Mof_Mn	Mn	0.26605	0.37101	0.95939	0.858
Mof_N 	N 	0.9264	0.40461	0.56148	-0.213
Mof_N 	N 	0.8956	0.60983	0.07076	-0.201
Mof_O 	O 	0.25226	0.11541	0.91377	-0.387
Mof_O 	O 	0.2519	0.25314	0.90636	-0.413
Mof_O 	O 	0.22871	0.94701	0.65685	-0.33
Mof_O 	O 	0.21884	0.01151	0.53828	-0.325
Mof_O 	O 	0.24776	0.97136	0.04835	-0.333
Mof_O 	O 	0.27995	0.02988	0.1703	-0.325
Mof_O 	O 	0.23939	0.85813	0.41415	-0.388
Mof_O 	O 	0.20773	0.72302	0.39749	-0.403
Mof_O 	O 	0.26623	0.3143	0.60677	-0.192
Mof_O 	O 	0.24015	0.66554	0.10064	-0.192
Mof_C 	C 	0.5214	0.9676	0.9009	0.141
Mof_H 	H 	0.5522	0.0155	0.8884	-0.013
Mof_C 	C 	0.4252	0.9655	0.8799	-0.232
Mof_H 	H 	0.3925	0.0112	0.8538	0.119
Mof_C 	C 	0.3771	0.89576	0.89738	0.181
Mof_C 	C 	0.4299	0.8319	0.9393	-0.23
Mof_H 	H 	0.4014	0.7836	0.9544	0.125
Mof_C 	C 	0.5262	0.8418	0.9582	0.156
Mof_H 	H 	0.5606	0.7989	0.988	-0.031
Mof_C 	C 	0.2715	0.89309	0.8734	-0.127
Mof_H 	H 	0.253	0.903	0.8146	0.084
Mof_H 	H 	0.245	0.9375	0.9018	0.096
Mof_C 	C 	0.2453	0.74584	0.84499	0.171
Mof_C 	C 	0.2448	0.75074	0.76131	-0.119
Mof_H 	H 	0.2391	0.8023	0.7347	0.086
Mof_C 	C 	0.2531	0.67756	0.71712	-0.051
Mof_C 	C 	0.263	0.60115	0.75711	-0.033
Mof_H 	H 	0.2689	0.5525	0.7276	0.058
Mof_C 	C 	0.2641	0.59677	0.84113	-0.012
Mof_C 	C 	0.2549	0.66896	0.88515	-0.141
Mof_H 	H 	0.2551	0.6661	0.9414	0.108
Mof_C 	C 	0.2736	0.51339	0.885	0.275
Mof_C 	C 	0.2492	0.68274	0.62549	0.375
Mof_C 	C 	0.2398	0.46675	0.3739	0.282
Mof_C 	C 	0.2483	0.38241	0.33543	-0.016
Mof_C 	C 	0.2535	0.37653	0.25228	-0.029
Mof_H 	H 	0.2493	0.4246	0.2201	0.058
Mof_C 	C 	0.2649	0.29955	0.2175	-0.05
Mof_C 	C 	0.2691	0.22687	0.26557	-0.119
Mof_H 	H 	0.2771	0.175	0.2424	0.087
Mof_C 	C 	0.2613	0.23244	0.34792	0.174
Mof_C 	C 	0.2516	0.3109	0.38282	-0.132
Mof_H 	H 	0.2473	0.3149	0.4381	0.109
Mof_C 	C 	0.2723	0.29328	0.12836	0.37
Mof_C 	C 	0.3021	0.0885	0.3784	-0.132
Mof_H 	H 	0.2835	0.0428	0.4105	0.095
Mof_H 	H 	0.2797	0.0761	0.3204	0.085
Mof_C 	C 	0.4074	0.09556	0.3953	0.184
Mof_C 	C 	0.4606	0.0734	0.3383	-0.233
Mof_H 	H 	0.4314	0.0536	0.2868	0.123
Mof_C 	C 	0.5564	0.0805	0.3571	0.14
Mof_H 	H 	0.5904	0.0639	0.3175	-0.012
Mof_C 	C 	0.5512	0.1304	0.4835	0.139
Mof_H 	H 	0.5814	0.1506	0.5346	-0.016
Mof_C 	C 	0.4555	0.1238	0.4693	-0.227
Mof_H 	H 	0.4229	0.1388	0.5104	0.124
Mof_Mn	Mn	0.23194	0.60754	0.45579	0.853
Mof_Mn	Mn	0.23395	0.87101	0.54061	0.858
Mof_N 	N 	0.5736	0.90461	0.93852	-0.212
Mof_N 	N 	0.6044	0.10983	0.42924	-0.203
Mof_O 	O 	0.24774	0.61541	0.58623	-0.387
Mof_O 	O 	0.2481	0.75314	0.59364	-0.413
Mof_O 	O 	0.27129	0.44701	0.84315	-0.329
Mof_O 	O 	0.28116	0.51151	0.96172	-0.325
Mof_O 	O 	0.25224	0.47136	0.45165	-0.334
Mof_O 	O 	0.22005	0.52988	0.3297	-0.324
Mof_O 	O 	0.26061	0.35813	0.08585	-0.388
Mof_O 	O 	0.29227	0.22302	0.10251	-0.403
Mof_O 	O 	0.23377	0.8143	0.89323	-0.192
Mof_O 	O 	0.25985	0.16554	0.39936	-0.192
_end
