data_functionalizedCrystal
_audit_creation_method	'EQeq! by Chris Wilmer'
_symmetry_space_group_name_H-M	'P1'
_symmetry_Int_Tables_number	1
_symmetry_cell_setting	triclinic
loop_
_symmetry_equiv_pos_as_xyz
  x,y,z
_cell_length_a	15.4237
_cell_length_b	25.4287
_cell_length_c	30.787
_cell_angle_alpha	90
_cell_angle_beta	90
_cell_angle_gamma	90
loop_
_atom_site_label
_atom_site_type_symbol
_atom_site_fract_x
_atom_site_fract_y
_atom_site_fract_z
_atom_site_charge
Mof_O 	O 	0.38027	0.6408	0.68957	-0.337
Mof_O 	O 	0.38754	0.70625	0.61231	-0.329
Mof_N 	N 	0.38227	0.68044	0.71748	-0.044
Mof_O 	O 	0.30568	0.82715	0.81561	-0.512
Mof_C 	C 	0.37862	0.75942	0.77859	-0.117
Mof_C 	C 	0.37422	0.80155	0.81288	0.472
Mof_O 	O 	0.44057	0.80683	0.83595	-0.527
Mof_N 	N 	0.39409	0.74127	0.58099	-0.079
Mof_C 	C 	0.33314	0.76404	0.74014	-0.003
Mof_H 	H 	0.3	0.7939	0.7348	0.036
Mof_C 	C 	0.33701	0.72416	0.70965	-0.007
Mof_H 	H 	0.3078	0.7278	0.6834	0.045
Mof_C 	C 	0.36426	0.76856	0.50967	-0.192
Mof_H 	H 	0.3387	0.7615	0.4829	0.095
Mof_C 	C 	0.35863	0.732	0.54194	0.094
Mof_H 	H 	0.33	0.7004	0.5369	0.007
Mof_C 	C 	0.42906	0.67544	0.75394	-0.003
Mof_H 	H 	0.4618	0.6452	0.7585	0.038
Mof_C 	C 	0.42895	0.71502	0.78472	-0.004
Mof_H 	H 	0.4628	0.7118	0.8096	0.039
Mof_C 	C 	0.446	0.8235	0.55592	-0.187
Mof_H 	H 	0.4777	0.854	0.5612	0.099
Mof_C 	C 	0.40689	0.81581	0.51557	0.149
Mof_C 	C 	0.41154	0.85525	0.47929	-0.176
Mof_H 	H 	0.4112	0.8366	0.4518	0.08
Mof_H 	H 	0.4661	0.874	0.4813	0.092
Mof_C 	C 	0.43796	0.78634	0.58779	0.095
Mof_H 	H 	0.4633	0.7923	0.6147	0.005
Mof_O 	O 	0.38027	0.1408	0.18957	-0.336
Mof_O 	O 	0.38754	0.20625	0.11231	-0.328
Mof_N 	N 	0.38227	0.18044	0.21748	-0.043
Mof_O 	O 	0.30568	0.32715	0.31561	-0.511
Mof_C 	C 	0.37862	0.25942	0.27859	-0.116
Mof_C 	C 	0.37422	0.30155	0.31288	0.473
Mof_O 	O 	0.44057	0.30683	0.33595	-0.526
Mof_N 	N 	0.39409	0.24127	0.08099	-0.078
Mof_C 	C 	0.33314	0.26404	0.24014	-0.002
Mof_H 	H 	0.3	0.2939	0.2348	0.037
Mof_C 	C 	0.33701	0.22416	0.20965	-0.007
Mof_H 	H 	0.3078	0.2278	0.1834	0.045
Mof_C 	C 	0.36426	0.26856	0.00967	-0.192
Mof_H 	H 	0.3387	0.2615	0.9829	0.095
Mof_C 	C 	0.35863	0.232	0.04194	0.094
Mof_H 	H 	0.33	0.2004	0.0369	0.007
Mof_C 	C 	0.42906	0.17544	0.25394	-0.003
Mof_H 	H 	0.4618	0.1452	0.2585	0.038
Mof_C 	C 	0.42895	0.21502	0.28472	-0.004
Mof_H 	H 	0.4628	0.2118	0.3096	0.039
Mof_C 	C 	0.446	0.3235	0.05592	-0.187
Mof_H 	H 	0.4777	0.354	0.0612	0.099
Mof_C 	C 	0.40689	0.31581	0.01557	0.149
Mof_C 	C 	0.41154	0.35525	0.97929	-0.175
Mof_H 	H 	0.4112	0.3366	0.9518	0.08
Mof_H 	H 	0.4661	0.374	0.9813	0.092
Mof_C 	C 	0.43796	0.28634	0.08779	0.095
Mof_H 	H 	0.4633	0.2923	0.1147	0.005
Mof_O 	O 	0.88027	0.6408	0.18957	-0.336
Mof_O 	O 	0.88754	0.70625	0.11231	-0.328
Mof_N 	N 	0.88227	0.68044	0.21748	-0.043
Mof_O 	O 	0.80568	0.82715	0.31561	-0.511
Mof_C 	C 	0.87862	0.75942	0.27859	-0.116
Mof_C 	C 	0.87422	0.80155	0.31288	0.473
Mof_O 	O 	0.94057	0.80683	0.33595	-0.525
Mof_N 	N 	0.89409	0.74127	0.08099	-0.078
Mof_C 	C 	0.83314	0.76404	0.24014	-0.002
Mof_H 	H 	0.8	0.7939	0.2348	0.037
Mof_C 	C 	0.83701	0.72416	0.20965	-0.007
Mof_H 	H 	0.8078	0.7278	0.1834	0.045
Mof_C 	C 	0.86426	0.76856	0.00967	-0.194
Mof_H 	H 	0.8387	0.7615	0.9829	0.096
Mof_C 	C 	0.85863	0.732	0.04194	0.095
Mof_H 	H 	0.83	0.7004	0.0369	0.006
Mof_C 	C 	0.92906	0.67544	0.25394	-0.002
Mof_H 	H 	0.9618	0.6452	0.2585	0.038
Mof_C 	C 	0.92895	0.71502	0.28472	-0.005
Mof_H 	H 	0.9628	0.7118	0.3096	0.039
Mof_C 	C 	0.946	0.8235	0.05592	-0.187
Mof_H 	H 	0.9777	0.854	0.0612	0.099
Mof_C 	C 	0.90689	0.81581	0.01557	0.149
Mof_C 	C 	0.91154	0.85525	0.97929	-0.176
Mof_H 	H 	0.9112	0.8366	0.9518	0.08
Mof_H 	H 	0.9661	0.874	0.9813	0.093
Mof_C 	C 	0.93796	0.78634	0.08779	0.096
Mof_H 	H 	0.9633	0.7923	0.1147	0.005
Mof_O 	O 	0.88027	0.1408	0.68957	-0.336
Mof_O 	O 	0.88754	0.20625	0.61231	-0.328
Mof_N 	N 	0.88227	0.18044	0.71748	-0.043
Mof_O 	O 	0.80568	0.32715	0.81561	-0.511
Mof_C 	C 	0.87862	0.25942	0.77859	-0.116
Mof_C 	C 	0.87422	0.30155	0.81288	0.473
Mof_O 	O 	0.94057	0.30683	0.83595	-0.526
Mof_N 	N 	0.89409	0.24127	0.58099	-0.078
Mof_C 	C 	0.83314	0.26404	0.74014	-0.002
Mof_H 	H 	0.8	0.2939	0.7348	0.037
Mof_C 	C 	0.83701	0.22416	0.70965	-0.007
Mof_H 	H 	0.8078	0.2278	0.6834	0.045
Mof_C 	C 	0.86426	0.26856	0.50967	-0.192
Mof_H 	H 	0.8387	0.2615	0.4829	0.095
Mof_C 	C 	0.85863	0.232	0.54194	0.094
Mof_H 	H 	0.83	0.2004	0.5369	0.007
Mof_C 	C 	0.92906	0.17544	0.75394	-0.003
Mof_H 	H 	0.9618	0.1452	0.7585	0.038
Mof_C 	C 	0.92895	0.21502	0.78472	-0.004
Mof_H 	H 	0.9628	0.2118	0.8096	0.039
Mof_C 	C 	0.946	0.3235	0.55592	-0.187
Mof_H 	H 	0.9777	0.354	0.5612	0.099
Mof_C 	C 	0.90689	0.31581	0.51557	0.149
Mof_C 	C 	0.91154	0.35525	0.47929	-0.175
Mof_H 	H 	0.9112	0.3366	0.4518	0.08
Mof_H 	H 	0.9661	0.374	0.4813	0.092
Mof_C 	C 	0.93796	0.28634	0.58779	0.095
Mof_H 	H 	0.9633	0.2923	0.6147	0.005
Mof_O 	O 	0.36973	0.1092	0.68957	-0.336
Mof_O 	O 	0.36246	0.04375	0.61231	-0.328
Mof_N 	N 	0.36773	0.06956	0.71748	-0.043
Mof_O 	O 	0.44432	0.92285	0.81561	-0.511
Mof_C 	C 	0.37138	0.99058	0.77859	-0.117
Mof_C 	C 	0.37578	0.94845	0.81288	0.474
Mof_O 	O 	0.30943	0.94317	0.83595	-0.526
Mof_N 	N 	0.35591	0.00873	0.58099	-0.078
Mof_C 	C 	0.41686	0.98596	0.74014	-0.002
Mof_H 	H 	0.45	0.9561	0.7348	0.037
Mof_C 	C 	0.41299	0.02584	0.70965	-0.007
Mof_H 	H 	0.4422	0.0222	0.6834	0.044
Mof_C 	C 	0.38574	0.98144	0.50967	-0.193
Mof_H 	H 	0.4113	0.9885	0.4829	0.095
Mof_C 	C 	0.39137	0.018	0.54194	0.095
Mof_H 	H 	0.42	0.0496	0.5369	0.007
Mof_C 	C 	0.32094	0.07456	0.75394	-0.003
Mof_H 	H 	0.2882	0.1048	0.7585	0.038
Mof_C 	C 	0.32105	0.03498	0.78472	-0.004
Mof_H 	H 	0.2872	0.0382	0.8096	0.039
Mof_C 	C 	0.304	0.9265	0.55592	-0.187
Mof_H 	H 	0.2723	0.896	0.5612	0.098
Mof_C 	C 	0.34311	0.93419	0.51557	0.149
Mof_C 	C 	0.33846	0.89475	0.47929	-0.176
Mof_H 	H 	0.3388	0.9134	0.4518	0.08
Mof_H 	H 	0.2839	0.876	0.4813	0.092
Mof_C 	C 	0.31204	0.96366	0.58779	0.095
Mof_H 	H 	0.2867	0.9577	0.6147	0.005
Mof_O 	O 	0.36973	0.6092	0.18957	-0.336
Mof_O 	O 	0.36246	0.54375	0.11231	-0.328
Mof_N 	N 	0.36773	0.56956	0.21748	-0.043
Mof_O 	O 	0.44432	0.42285	0.31561	-0.511
Mof_C 	C 	0.37138	0.49058	0.27859	-0.116
Mof_C 	C 	0.37578	0.44845	0.31288	0.473
Mof_O 	O 	0.30943	0.44317	0.33595	-0.526
Mof_N 	N 	0.35591	0.50873	0.08099	-0.078
Mof_C 	C 	0.41686	0.48596	0.24014	-0.002
Mof_H 	H 	0.45	0.4561	0.2348	0.037
Mof_C 	C 	0.41299	0.52584	0.20965	-0.007
Mof_H 	H 	0.4422	0.5222	0.1834	0.045
Mof_C 	C 	0.38574	0.48144	0.00967	-0.192
Mof_H 	H 	0.4113	0.4885	0.9829	0.095
Mof_C 	C 	0.39137	0.518	0.04194	0.094
Mof_H 	H 	0.42	0.5496	0.0369	0.007
Mof_C 	C 	0.32094	0.57456	0.25394	-0.003
Mof_H 	H 	0.2882	0.6048	0.2585	0.038
Mof_C 	C 	0.32105	0.53498	0.28472	-0.004
Mof_H 	H 	0.2872	0.5382	0.3096	0.039
Mof_C 	C 	0.304	0.4265	0.05592	-0.187
Mof_H 	H 	0.2723	0.396	0.0612	0.099
Mof_C 	C 	0.34311	0.43419	0.01557	0.149
Mof_C 	C 	0.33846	0.39475	0.97929	-0.176
Mof_H 	H 	0.3388	0.4134	0.9518	0.08
Mof_H 	H 	0.2839	0.376	0.9813	0.092
Mof_C 	C 	0.31204	0.46366	0.08779	0.096
Mof_H 	H 	0.2867	0.4577	0.1147	0.005
Mof_O 	O 	0.86973	0.1092	0.18957	-0.336
Mof_O 	O 	0.86246	0.04375	0.11231	-0.328
Mof_N 	N 	0.86773	0.06956	0.21748	-0.043
Mof_O 	O 	0.94432	0.92285	0.31561	-0.51
Mof_C 	C 	0.87138	0.99058	0.27859	-0.115
Mof_C 	C 	0.87578	0.94845	0.31288	0.473
Mof_O 	O 	0.80943	0.94317	0.33595	-0.526
Mof_N 	N 	0.85591	0.00873	0.08099	-0.078
Mof_C 	C 	0.91686	0.98596	0.24014	-0.001
Mof_H 	H 	0.95	0.9561	0.2348	0.037
Mof_C 	C 	0.91299	0.02584	0.20965	-0.009
Mof_H 	H 	0.9422	0.0222	0.1834	0.045
Mof_C 	C 	0.88574	0.98144	0.00967	-0.192
Mof_H 	H 	0.9113	0.9885	0.9829	0.096
Mof_C 	C 	0.89137	0.018	0.04194	0.093
Mof_H 	H 	0.92	0.0496	0.0369	0.007
Mof_C 	C 	0.82094	0.07456	0.25394	-0.002
Mof_H 	H 	0.7882	0.1048	0.2585	0.038
Mof_C 	C 	0.82105	0.03498	0.28472	-0.006
Mof_H 	H 	0.7872	0.0382	0.3096	0.039
Mof_C 	C 	0.804	0.9265	0.05592	-0.187
Mof_H 	H 	0.7723	0.896	0.0612	0.098
Mof_C 	C 	0.84311	0.93419	0.01557	0.148
Mof_C 	C 	0.83846	0.89475	0.97929	-0.174
Mof_H 	H 	0.8388	0.9134	0.9518	0.08
Mof_H 	H 	0.7839	0.876	0.9813	0.092
Mof_C 	C 	0.81204	0.96366	0.08779	0.096
Mof_H 	H 	0.7867	0.9577	0.1147	0.005
Mof_O 	O 	0.86973	0.6092	0.68957	-0.336
Mof_O 	O 	0.86246	0.54375	0.61231	-0.328
Mof_N 	N 	0.86773	0.56956	0.71748	-0.043
Mof_O 	O 	0.94432	0.42285	0.81561	-0.511
Mof_C 	C 	0.87138	0.49058	0.77859	-0.116
Mof_C 	C 	0.87578	0.44845	0.81288	0.473
Mof_O 	O 	0.80943	0.44317	0.83595	-0.526
Mof_N 	N 	0.85591	0.50873	0.58099	-0.078
Mof_C 	C 	0.91686	0.48596	0.74014	-0.002
Mof_H 	H 	0.95	0.4561	0.7348	0.037
Mof_C 	C 	0.91299	0.52584	0.70965	-0.007
Mof_H 	H 	0.9422	0.5222	0.6834	0.045
Mof_C 	C 	0.88574	0.48144	0.50967	-0.192
Mof_H 	H 	0.9113	0.4885	0.4829	0.095
Mof_C 	C 	0.89137	0.518	0.54194	0.094
Mof_H 	H 	0.92	0.5496	0.5369	0.007
Mof_C 	C 	0.82094	0.57456	0.75394	-0.002
Mof_H 	H 	0.7882	0.6048	0.7585	0.038
Mof_C 	C 	0.82105	0.53498	0.78472	-0.004
Mof_H 	H 	0.7872	0.5382	0.8096	0.039
Mof_C 	C 	0.804	0.4265	0.55592	-0.187
Mof_H 	H 	0.7723	0.396	0.5612	0.099
Mof_C 	C 	0.84311	0.43419	0.51557	0.149
Mof_C 	C 	0.83846	0.39475	0.47929	-0.176
Mof_H 	H 	0.8388	0.4134	0.4518	0.08
Mof_H 	H 	0.7839	0.376	0.4813	0.092
Mof_C 	C 	0.81204	0.46366	0.58779	0.096
Mof_H 	H 	0.7867	0.4577	0.6147	0.005
Mof_O 	O 	0.36973	0.6408	0.06043	-0.336
Mof_O 	O 	0.36246	0.70625	0.13769	-0.328
Mof_N 	N 	0.36773	0.68044	0.03252	-0.043
Mof_O 	O 	0.44432	0.82715	0.93439	-0.511
Mof_C 	C 	0.37138	0.75942	0.97141	-0.116
Mof_C 	C 	0.37578	0.80155	0.93712	0.473
Mof_O 	O 	0.30943	0.80683	0.91405	-0.526
Mof_N 	N 	0.35591	0.74127	0.16901	-0.078
Mof_C 	C 	0.41686	0.76404	0.00986	-0.002
Mof_H 	H 	0.45	0.7939	0.0152	0.037
Mof_C 	C 	0.41299	0.72416	0.04035	-0.007
Mof_H 	H 	0.4422	0.7278	0.0666	0.045
Mof_C 	C 	0.38574	0.76856	0.24033	-0.192
Mof_H 	H 	0.4113	0.7615	0.2671	0.095
Mof_C 	C 	0.39137	0.732	0.20806	0.094
Mof_H 	H 	0.42	0.7004	0.2131	0.007
Mof_C 	C 	0.32094	0.67544	0.99606	-0.003
Mof_H 	H 	0.2882	0.6452	0.9915	0.038
Mof_C 	C 	0.32105	0.71502	0.96528	-0.004
Mof_H 	H 	0.2872	0.7118	0.9404	0.039
Mof_C 	C 	0.304	0.8235	0.19408	-0.187
Mof_H 	H 	0.2723	0.854	0.1888	0.098
Mof_C 	C 	0.34311	0.81581	0.23443	0.149
Mof_C 	C 	0.33846	0.85525	0.27071	-0.175
Mof_H 	H 	0.3388	0.8366	0.2982	0.08
Mof_H 	H 	0.2839	0.874	0.2687	0.092
Mof_C 	C 	0.31204	0.78634	0.16221	0.095
Mof_H 	H 	0.2867	0.7923	0.1353	0.005
Mof_O 	O 	0.36973	0.1408	0.56043	-0.336
Mof_O 	O 	0.36246	0.20625	0.63769	-0.328
Mof_N 	N 	0.36773	0.18044	0.53252	-0.043
Mof_O 	O 	0.44432	0.32715	0.43439	-0.511
Mof_C 	C 	0.37138	0.25942	0.47141	-0.116
Mof_C 	C 	0.37578	0.30155	0.43712	0.473
Mof_O 	O 	0.30943	0.30683	0.41405	-0.526
Mof_N 	N 	0.35591	0.24127	0.66901	-0.078
Mof_C 	C 	0.41686	0.26404	0.50986	-0.002
Mof_H 	H 	0.45	0.2939	0.5152	0.037
Mof_C 	C 	0.41299	0.22416	0.54035	-0.007
Mof_H 	H 	0.4422	0.2278	0.5666	0.045
Mof_C 	C 	0.38574	0.26856	0.74033	-0.192
Mof_H 	H 	0.4113	0.2615	0.7671	0.095
Mof_C 	C 	0.39137	0.232	0.70806	0.094
Mof_H 	H 	0.42	0.2004	0.7131	0.007
Mof_C 	C 	0.32094	0.17544	0.49606	-0.003
Mof_H 	H 	0.2882	0.1452	0.4915	0.038
Mof_C 	C 	0.32105	0.21502	0.46528	-0.004
Mof_H 	H 	0.2872	0.2118	0.4404	0.039
Mof_C 	C 	0.304	0.3235	0.69408	-0.187
Mof_H 	H 	0.2723	0.354	0.6888	0.099
Mof_C 	C 	0.34311	0.31581	0.73443	0.149
Mof_C 	C 	0.33846	0.35525	0.77071	-0.176
Mof_H 	H 	0.3388	0.3366	0.7982	0.08
Mof_H 	H 	0.2839	0.374	0.7687	0.092
Mof_C 	C 	0.31204	0.28634	0.66221	0.095
Mof_H 	H 	0.2867	0.2923	0.6353	0.005
Mof_O 	O 	0.86973	0.6408	0.56043	-0.336
Mof_O 	O 	0.86246	0.70625	0.63769	-0.328
Mof_N 	N 	0.86773	0.68044	0.53252	-0.043
Mof_O 	O 	0.94432	0.82715	0.43439	-0.51
Mof_C 	C 	0.87138	0.75942	0.47141	-0.116
Mof_C 	C 	0.87578	0.80155	0.43712	0.473
Mof_O 	O 	0.80943	0.80683	0.41405	-0.526
Mof_N 	N 	0.85591	0.74127	0.66901	-0.078
Mof_C 	C 	0.91686	0.76404	0.50986	-0.002
Mof_H 	H 	0.95	0.7939	0.5152	0.037
Mof_C 	C 	0.91299	0.72416	0.54035	-0.007
Mof_H 	H 	0.9422	0.7278	0.5666	0.045
Mof_C 	C 	0.88574	0.76856	0.74033	-0.192
Mof_H 	H 	0.9113	0.7615	0.7671	0.096
Mof_C 	C 	0.89137	0.732	0.70806	0.095
Mof_H 	H 	0.92	0.7004	0.7131	0.007
Mof_C 	C 	0.82094	0.67544	0.49606	-0.002
Mof_H 	H 	0.7882	0.6452	0.4915	0.038
Mof_C 	C 	0.82105	0.71502	0.46528	-0.005
Mof_H 	H 	0.7872	0.7118	0.4404	0.039
Mof_C 	C 	0.804	0.8235	0.69408	-0.187
Mof_H 	H 	0.7723	0.854	0.6888	0.099
Mof_C 	C 	0.84311	0.81581	0.73443	0.149
Mof_C 	C 	0.83846	0.85525	0.77071	-0.175
Mof_H 	H 	0.8388	0.8366	0.7982	0.08
Mof_H 	H 	0.7839	0.874	0.7687	0.092
Mof_C 	C 	0.81204	0.78634	0.66221	0.096
Mof_H 	H 	0.7867	0.7923	0.6353	0.005
Mof_O 	O 	0.86973	0.1408	0.06043	-0.336
Mof_O 	O 	0.86246	0.20625	0.13769	-0.328
Mof_N 	N 	0.86773	0.18044	0.03252	-0.044
Mof_O 	O 	0.94432	0.32715	0.93439	-0.511
Mof_C 	C 	0.87138	0.25942	0.97141	-0.115
Mof_C 	C 	0.87578	0.30155	0.93712	0.473
Mof_O 	O 	0.80943	0.30683	0.91405	-0.526
Mof_N 	N 	0.85591	0.24127	0.16901	-0.078
Mof_C 	C 	0.91686	0.26404	0.00986	-0.004
Mof_H 	H 	0.95	0.2939	0.0152	0.037
Mof_C 	C 	0.91299	0.22416	0.04035	-0.007
Mof_H 	H 	0.9422	0.2278	0.0666	0.044
Mof_C 	C 	0.88574	0.26856	0.24033	-0.192
Mof_H 	H 	0.9113	0.2615	0.2671	0.095
Mof_C 	C 	0.89137	0.232	0.20806	0.094
Mof_H 	H 	0.92	0.2004	0.2131	0.007
Mof_C 	C 	0.82094	0.17544	0.99606	-0.002
Mof_H 	H 	0.7882	0.1452	0.9915	0.037
Mof_C 	C 	0.82105	0.21502	0.96528	-0.005
Mof_H 	H 	0.7872	0.2118	0.9404	0.039
Mof_C 	C 	0.804	0.3235	0.19408	-0.187
Mof_H 	H 	0.7723	0.354	0.1888	0.099
Mof_C 	C 	0.84311	0.31581	0.23443	0.149
Mof_C 	C 	0.83846	0.35525	0.27071	-0.176
Mof_H 	H 	0.8388	0.3366	0.2982	0.08
Mof_H 	H 	0.7839	0.374	0.2687	0.092
Mof_C 	C 	0.81204	0.28634	0.16221	0.095
Mof_H 	H 	0.7867	0.2923	0.1353	0.005
Mof_O 	O 	0.38027	0.1092	0.06043	-0.336
Mof_O 	O 	0.38754	0.04375	0.13769	-0.328
Mof_N 	N 	0.38227	0.06956	0.03252	-0.043
Mof_O 	O 	0.30568	0.92285	0.93439	-0.511
Mof_C 	C 	0.37862	0.99058	0.97141	-0.116
Mof_C 	C 	0.37422	0.94845	0.93712	0.473
Mof_O 	O 	0.44057	0.94317	0.91405	-0.526
Mof_N 	N 	0.39409	0.00873	0.16901	-0.078
Mof_C 	C 	0.33314	0.98596	0.00986	-0.003
Mof_H 	H 	0.3	0.9561	0.0152	0.037
Mof_C 	C 	0.33701	0.02584	0.04035	-0.006
Mof_H 	H 	0.3078	0.0222	0.0666	0.044
Mof_C 	C 	0.36426	0.98144	0.24033	-0.193
Mof_H 	H 	0.3387	0.9885	0.2671	0.095
Mof_C 	C 	0.35863	0.018	0.20806	0.095
Mof_H 	H 	0.33	0.0496	0.2131	0.007
Mof_C 	C 	0.42906	0.07456	0.99606	-0.003
Mof_H 	H 	0.4618	0.1048	0.9915	0.038
Mof_C 	C 	0.42895	0.03498	0.96528	-0.004
Mof_H 	H 	0.4628	0.0382	0.9404	0.039
Mof_C 	C 	0.446	0.9265	0.19408	-0.187
Mof_H 	H 	0.4777	0.896	0.1888	0.099
Mof_C 	C 	0.40689	0.93419	0.23443	0.149
Mof_C 	C 	0.41154	0.89475	0.27071	-0.176
Mof_H 	H 	0.4112	0.9134	0.2982	0.08
Mof_H 	H 	0.4661	0.876	0.2687	0.092
Mof_C 	C 	0.43796	0.96366	0.16221	0.095
Mof_H 	H 	0.4633	0.9577	0.1353	0.005
Mof_O 	O 	0.38027	0.6092	0.56043	-0.336
Mof_O 	O 	0.38754	0.54375	0.63769	-0.328
Mof_N 	N 	0.38227	0.56956	0.53252	-0.043
Mof_O 	O 	0.30568	0.42285	0.43439	-0.511
Mof_C 	C 	0.37862	0.49058	0.47141	-0.116
Mof_C 	C 	0.37422	0.44845	0.43712	0.473
Mof_O 	O 	0.44057	0.44317	0.41405	-0.526
Mof_N 	N 	0.39409	0.50873	0.66901	-0.078
Mof_C 	C 	0.33314	0.48596	0.50986	-0.002
Mof_H 	H 	0.3	0.4561	0.5152	0.037
Mof_C 	C 	0.33701	0.52584	0.54035	-0.007
Mof_H 	H 	0.3078	0.5222	0.5666	0.045
Mof_C 	C 	0.36426	0.48144	0.74033	-0.192
Mof_H 	H 	0.3387	0.4885	0.7671	0.095
Mof_C 	C 	0.35863	0.518	0.70806	0.094
Mof_H 	H 	0.33	0.5496	0.7131	0.007
Mof_C 	C 	0.42906	0.57456	0.49606	-0.003
Mof_H 	H 	0.4618	0.6048	0.4915	0.038
Mof_C 	C 	0.42895	0.53498	0.46528	-0.004
Mof_H 	H 	0.4628	0.5382	0.4404	0.039
Mof_C 	C 	0.446	0.4265	0.69408	-0.187
Mof_H 	H 	0.4777	0.396	0.6888	0.099
Mof_C 	C 	0.40689	0.43419	0.73443	0.149
Mof_C 	C 	0.41154	0.39475	0.77071	-0.176
Mof_H 	H 	0.4112	0.4134	0.7982	0.08
Mof_H 	H 	0.4661	0.376	0.7687	0.092
Mof_C 	C 	0.43796	0.46366	0.66221	0.095
Mof_H 	H 	0.4633	0.4577	0.6353	0.005
Mof_O 	O 	0.88027	0.1092	0.56043	-0.336
Mof_O 	O 	0.88754	0.04375	0.63769	-0.328
Mof_N 	N 	0.88227	0.06956	0.53252	-0.043
Mof_O 	O 	0.80568	0.92285	0.43439	-0.511
Mof_C 	C 	0.87862	0.99058	0.47141	-0.115
Mof_C 	C 	0.87422	0.94845	0.43712	0.473
Mof_O 	O 	0.94057	0.94317	0.41405	-0.525
Mof_N 	N 	0.89409	0.00873	0.66901	-0.078
Mof_C 	C 	0.83314	0.98596	0.50986	-0.001
Mof_H 	H 	0.8	0.9561	0.5152	0.036
Mof_C 	C 	0.83701	0.02584	0.54035	-0.009
Mof_H 	H 	0.8078	0.0222	0.5666	0.045
Mof_C 	C 	0.86426	0.98144	0.74033	-0.19
Mof_H 	H 	0.8387	0.9885	0.7671	0.095
Mof_C 	C 	0.85863	0.018	0.70806	0.092
Mof_H 	H 	0.83	0.0496	0.7131	0.007
Mof_C 	C 	0.92906	0.07456	0.49606	-0.002
Mof_H 	H 	0.9618	0.1048	0.4915	0.037
Mof_C 	C 	0.92895	0.03498	0.46528	-0.006
Mof_H 	H 	0.9628	0.0382	0.4404	0.039
Mof_C 	C 	0.946	0.9265	0.69408	-0.187
Mof_H 	H 	0.9777	0.896	0.6888	0.099
Mof_C 	C 	0.90689	0.93419	0.73443	0.149
Mof_C 	C 	0.91154	0.89475	0.77071	-0.176
Mof_H 	H 	0.9112	0.9134	0.7982	0.08
Mof_H 	H 	0.9661	0.876	0.7687	0.093
Mof_C 	C 	0.93796	0.96366	0.66221	0.097
Mof_H 	H 	0.9633	0.9577	0.6353	0.005
Mof_O 	O 	0.88027	0.6092	0.06043	-0.336
Mof_O 	O 	0.88754	0.54375	0.13769	-0.328
Mof_N 	N 	0.88227	0.56956	0.03252	-0.044
Mof_O 	O 	0.80568	0.42285	0.93439	-0.511
Mof_C 	C 	0.87862	0.49058	0.97141	-0.115
Mof_C 	C 	0.87422	0.44845	0.93712	0.473
Mof_O 	O 	0.94057	0.44317	0.91405	-0.525
Mof_N 	N 	0.89409	0.50873	0.16901	-0.078
Mof_C 	C 	0.83314	0.48596	0.00986	-0.004
Mof_H 	H 	0.8	0.4561	0.0152	0.037
Mof_C 	C 	0.83701	0.52584	0.04035	-0.007
Mof_H 	H 	0.8078	0.5222	0.0666	0.044
Mof_C 	C 	0.86426	0.48144	0.24033	-0.192
Mof_H 	H 	0.8387	0.4885	0.2671	0.095
Mof_C 	C 	0.85863	0.518	0.20806	0.094
Mof_H 	H 	0.83	0.5496	0.2131	0.007
Mof_C 	C 	0.92906	0.57456	0.99606	-0.002
Mof_H 	H 	0.9618	0.6048	0.9915	0.038
Mof_C 	C 	0.92895	0.53498	0.96528	-0.005
Mof_H 	H 	0.9628	0.5382	0.9404	0.04
Mof_C 	C 	0.946	0.4265	0.19408	-0.187
Mof_H 	H 	0.9777	0.396	0.1888	0.099
Mof_C 	C 	0.90689	0.43419	0.23443	0.149
Mof_C 	C 	0.91154	0.39475	0.27071	-0.175
Mof_H 	H 	0.9112	0.4134	0.2982	0.08
Mof_H 	H 	0.9661	0.376	0.2687	0.092
Mof_C 	C 	0.93796	0.46366	0.16221	0.095
Mof_H 	H 	0.9633	0.4577	0.1353	0.005
Mof_O 	O 	0.61973	0.3592	0.31043	-0.336
Mof_O 	O 	0.61246	0.29375	0.38769	-0.328
Mof_N 	N 	0.61773	0.31956	0.28252	-0.043
Mof_O 	O 	0.69432	0.17285	0.18439	-0.511
Mof_C 	C 	0.62138	0.24058	0.22141	-0.116
Mof_C 	C 	0.62578	0.19845	0.18712	0.473
Mof_O 	O 	0.55943	0.19317	0.16405	-0.526
Mof_N 	N 	0.60591	0.25873	0.41901	-0.078
Mof_C 	C 	0.66686	0.23596	0.25986	-0.002
Mof_H 	H 	0.7	0.2061	0.2652	0.037
Mof_C 	C 	0.66299	0.27584	0.29035	-0.007
Mof_H 	H 	0.6922	0.2722	0.3166	0.045
Mof_C 	C 	0.63574	0.23144	0.49033	-0.192
Mof_H 	H 	0.6613	0.2385	0.5171	0.095
Mof_C 	C 	0.64137	0.268	0.45806	0.094
Mof_H 	H 	0.67	0.2996	0.4631	0.007
Mof_C 	C 	0.57094	0.32456	0.24606	-0.003
Mof_H 	H 	0.5382	0.3548	0.2415	0.038
Mof_C 	C 	0.57105	0.28498	0.21528	-0.004
Mof_H 	H 	0.5372	0.2882	0.1904	0.039
Mof_C 	C 	0.554	0.1765	0.44408	-0.187
Mof_H 	H 	0.5223	0.146	0.4388	0.099
Mof_C 	C 	0.59311	0.18419	0.48443	0.149
Mof_C 	C 	0.58846	0.14475	0.52071	-0.176
Mof_H 	H 	0.5888	0.1634	0.5482	0.08
Mof_H 	H 	0.5339	0.126	0.5187	0.092
Mof_C 	C 	0.56204	0.21366	0.41221	0.095
Mof_H 	H 	0.5367	0.2077	0.3853	0.005
Mof_O 	O 	0.61973	0.8592	0.81043	-0.336
Mof_O 	O 	0.61246	0.79375	0.88769	-0.328
Mof_N 	N 	0.61773	0.81956	0.78252	-0.043
Mof_O 	O 	0.69432	0.67285	0.68439	-0.511
Mof_C 	C 	0.62138	0.74058	0.72141	-0.116
Mof_C 	C 	0.62578	0.69845	0.68712	0.473
Mof_O 	O 	0.55943	0.69317	0.66405	-0.526
Mof_N 	N 	0.60591	0.75873	0.91901	-0.078
Mof_C 	C 	0.66686	0.73596	0.75986	-0.002
Mof_H 	H 	0.7	0.7061	0.7652	0.037
Mof_C 	C 	0.66299	0.77584	0.79035	-0.007
Mof_H 	H 	0.6922	0.7722	0.8166	0.045
Mof_C 	C 	0.63574	0.73144	0.99033	-0.192
Mof_H 	H 	0.6613	0.7385	0.0171	0.095
Mof_C 	C 	0.64137	0.768	0.95806	0.094
Mof_H 	H 	0.67	0.7996	0.9631	0.007
Mof_C 	C 	0.57094	0.82456	0.74606	-0.003
Mof_H 	H 	0.5382	0.8548	0.7415	0.038
Mof_C 	C 	0.57105	0.78498	0.71528	-0.004
Mof_H 	H 	0.5372	0.7882	0.6904	0.039
Mof_C 	C 	0.554	0.6765	0.94408	-0.187
Mof_H 	H 	0.5223	0.646	0.9388	0.099
Mof_C 	C 	0.59311	0.68419	0.98443	0.149
Mof_C 	C 	0.58846	0.64475	0.02071	-0.175
Mof_H 	H 	0.5888	0.6634	0.0482	0.08
Mof_H 	H 	0.5339	0.626	0.0187	0.092
Mof_C 	C 	0.56204	0.71366	0.91221	0.095
Mof_H 	H 	0.5367	0.7077	0.8853	0.005
Mof_O 	O 	0.11973	0.3592	0.81043	-0.336
Mof_O 	O 	0.11246	0.29375	0.88769	-0.328
Mof_N 	N 	0.11773	0.31956	0.78252	-0.043
Mof_O 	O 	0.19432	0.17285	0.68439	-0.511
Mof_C 	C 	0.12138	0.24058	0.72141	-0.116
Mof_C 	C 	0.12578	0.19845	0.68712	0.473
Mof_O 	O 	0.05943	0.19317	0.66405	-0.525
Mof_N 	N 	0.10591	0.25873	0.91901	-0.078
Mof_C 	C 	0.16686	0.23596	0.75986	-0.002
Mof_H 	H 	0.2	0.2061	0.7652	0.037
Mof_C 	C 	0.16299	0.27584	0.79035	-0.007
Mof_H 	H 	0.1922	0.2722	0.8166	0.045
Mof_C 	C 	0.13574	0.23144	0.99033	-0.194
Mof_H 	H 	0.1613	0.2385	0.0171	0.096
Mof_C 	C 	0.14137	0.268	0.95806	0.095
Mof_H 	H 	0.17	0.2996	0.9631	0.006
Mof_C 	C 	0.07094	0.32456	0.74606	-0.002
Mof_H 	H 	0.0382	0.3548	0.7415	0.038
Mof_C 	C 	0.07105	0.28498	0.71528	-0.005
Mof_H 	H 	0.0372	0.2882	0.6904	0.039
Mof_C 	C 	0.054	0.1765	0.94408	-0.187
Mof_H 	H 	0.0223	0.146	0.9388	0.099
Mof_C 	C 	0.09311	0.18419	0.98443	0.149
Mof_C 	C 	0.08846	0.14475	0.02071	-0.176
Mof_H 	H 	0.0888	0.1634	0.0482	0.08
Mof_H 	H 	0.0339	0.126	0.0187	0.093
Mof_C 	C 	0.06204	0.21366	0.91221	0.096
Mof_H 	H 	0.0367	0.2077	0.8853	0.005
Mof_O 	O 	0.11973	0.8592	0.31043	-0.336
Mof_O 	O 	0.11246	0.79375	0.38769	-0.328
Mof_N 	N 	0.11773	0.81956	0.28252	-0.043
Mof_O 	O 	0.19432	0.67285	0.18439	-0.511
Mof_C 	C 	0.12138	0.74058	0.22141	-0.116
Mof_C 	C 	0.12578	0.69845	0.18712	0.473
Mof_O 	O 	0.05943	0.69317	0.16405	-0.526
Mof_N 	N 	0.10591	0.75873	0.41901	-0.078
Mof_C 	C 	0.16686	0.73596	0.25986	-0.002
Mof_H 	H 	0.2	0.7061	0.2652	0.037
Mof_C 	C 	0.16299	0.77584	0.29035	-0.007
Mof_H 	H 	0.1922	0.7722	0.3166	0.045
Mof_C 	C 	0.13574	0.73144	0.49033	-0.192
Mof_H 	H 	0.1613	0.7385	0.5171	0.095
Mof_C 	C 	0.14137	0.768	0.45806	0.094
Mof_H 	H 	0.17	0.7996	0.4631	0.007
Mof_C 	C 	0.07094	0.82456	0.24606	-0.003
Mof_H 	H 	0.0382	0.8548	0.2415	0.038
Mof_C 	C 	0.07105	0.78498	0.21528	-0.004
Mof_H 	H 	0.0372	0.7882	0.1904	0.039
Mof_C 	C 	0.054	0.6765	0.44408	-0.187
Mof_H 	H 	0.0223	0.646	0.4388	0.099
Mof_C 	C 	0.09311	0.68419	0.48443	0.149
Mof_C 	C 	0.08846	0.64475	0.52071	-0.175
Mof_H 	H 	0.0888	0.6634	0.5482	0.08
Mof_H 	H 	0.0339	0.626	0.5187	0.092
Mof_C 	C 	0.06204	0.71366	0.41221	0.095
Mof_H 	H 	0.0367	0.7077	0.3853	0.005
Mof_O 	O 	0.63027	0.8908	0.31043	-0.336
Mof_O 	O 	0.63754	0.95625	0.38769	-0.328
Mof_N 	N 	0.63227	0.93044	0.28252	-0.043
Mof_O 	O 	0.55568	0.07715	0.18439	-0.511
Mof_C 	C 	0.62862	0.00942	0.22141	-0.117
Mof_C 	C 	0.62422	0.05155	0.18712	0.474
Mof_O 	O 	0.69057	0.05683	0.16405	-0.526
Mof_N 	N 	0.64409	0.99127	0.41901	-0.078
Mof_C 	C 	0.58314	0.01404	0.25986	-0.002
Mof_H 	H 	0.55	0.0439	0.2652	0.037
Mof_C 	C 	0.58701	0.97416	0.29035	-0.007
Mof_H 	H 	0.5578	0.9778	0.3166	0.044
Mof_C 	C 	0.61426	0.01856	0.49033	-0.193
Mof_H 	H 	0.5887	0.0115	0.5171	0.095
Mof_C 	C 	0.60863	0.982	0.45806	0.095
Mof_H 	H 	0.58	0.9504	0.4631	0.007
Mof_C 	C 	0.67906	0.92544	0.24606	-0.003
Mof_H 	H 	0.7118	0.8952	0.2415	0.038
Mof_C 	C 	0.67895	0.96502	0.21528	-0.004
Mof_H 	H 	0.7128	0.9618	0.1904	0.039
Mof_C 	C 	0.696	0.0735	0.44408	-0.187
Mof_H 	H 	0.7277	0.104	0.4388	0.098
Mof_C 	C 	0.65689	0.06581	0.48443	0.149
Mof_C 	C 	0.66154	0.10525	0.52071	-0.176
Mof_H 	H 	0.6612	0.0866	0.5482	0.08
Mof_H 	H 	0.7161	0.124	0.5187	0.092
Mof_C 	C 	0.68796	0.03634	0.41221	0.095
Mof_H 	H 	0.7133	0.0423	0.3853	0.005
Mof_O 	O 	0.63027	0.3908	0.81043	-0.336
Mof_O 	O 	0.63754	0.45625	0.88769	-0.328
Mof_N 	N 	0.63227	0.43044	0.78252	-0.043
Mof_O 	O 	0.55568	0.57715	0.68439	-0.511
Mof_C 	C 	0.62862	0.50942	0.72141	-0.116
Mof_C 	C 	0.62422	0.55155	0.68712	0.473
Mof_O 	O 	0.69057	0.55683	0.66405	-0.526
Mof_N 	N 	0.64409	0.49127	0.91901	-0.078
Mof_C 	C 	0.58314	0.51404	0.75986	-0.002
Mof_H 	H 	0.55	0.5439	0.7652	0.037
Mof_C 	C 	0.58701	0.47416	0.79035	-0.007
Mof_H 	H 	0.5578	0.4778	0.8166	0.045
Mof_C 	C 	0.61426	0.51856	0.99033	-0.192
Mof_H 	H 	0.5887	0.5115	0.0171	0.095
Mof_C 	C 	0.60863	0.482	0.95806	0.094
Mof_H 	H 	0.58	0.4504	0.9631	0.007
Mof_C 	C 	0.67906	0.42544	0.74606	-0.003
Mof_H 	H 	0.7118	0.3952	0.7415	0.038
Mof_C 	C 	0.67895	0.46502	0.71528	-0.004
Mof_H 	H 	0.7128	0.4618	0.6904	0.039
Mof_C 	C 	0.696	0.5735	0.94408	-0.187
Mof_H 	H 	0.7277	0.604	0.9388	0.099
Mof_C 	C 	0.65689	0.56581	0.98443	0.149
Mof_C 	C 	0.66154	0.60525	0.02071	-0.176
Mof_H 	H 	0.6612	0.5866	0.0482	0.08
Mof_H 	H 	0.7161	0.624	0.0187	0.092
Mof_C 	C 	0.68796	0.53634	0.91221	0.096
Mof_H 	H 	0.7133	0.5423	0.8853	0.005
Mof_O 	O 	0.13027	0.8908	0.81043	-0.336
Mof_O 	O 	0.13754	0.95625	0.88769	-0.328
Mof_N 	N 	0.13227	0.93044	0.78252	-0.043
Mof_O 	O 	0.05568	0.07715	0.68439	-0.51
Mof_C 	C 	0.12862	0.00942	0.72141	-0.115
Mof_C 	C 	0.12422	0.05155	0.68712	0.473
Mof_O 	O 	0.19057	0.05683	0.66405	-0.526
Mof_N 	N 	0.14409	0.99127	0.91901	-0.078
Mof_C 	C 	0.08314	0.01404	0.75986	-0.001
Mof_H 	H 	0.05	0.0439	0.7652	0.037
Mof_C 	C 	0.08701	0.97416	0.79035	-0.009
Mof_H 	H 	0.0578	0.9778	0.8166	0.045
Mof_C 	C 	0.11426	0.01856	0.99033	-0.192
Mof_H 	H 	0.0887	0.0115	0.0171	0.096
Mof_C 	C 	0.10863	0.982	0.95806	0.093
Mof_H 	H 	0.08	0.9504	0.9631	0.007
Mof_C 	C 	0.17906	0.92544	0.74606	-0.002
Mof_H 	H 	0.2118	0.8952	0.7415	0.038
Mof_C 	C 	0.17895	0.96502	0.71528	-0.006
Mof_H 	H 	0.2128	0.9618	0.6904	0.039
Mof_C 	C 	0.196	0.0735	0.94408	-0.187
Mof_H 	H 	0.2277	0.104	0.9388	0.098
Mof_C 	C 	0.15689	0.06581	0.98443	0.148
Mof_C 	C 	0.16154	0.10525	0.02071	-0.174
Mof_H 	H 	0.1612	0.0866	0.0482	0.08
Mof_H 	H 	0.2161	0.124	0.0187	0.092
Mof_C 	C 	0.18796	0.03634	0.91221	0.096
Mof_H 	H 	0.2133	0.0423	0.8853	0.005
Mof_O 	O 	0.13027	0.3908	0.31043	-0.336
Mof_O 	O 	0.13754	0.45625	0.38769	-0.328
Mof_N 	N 	0.13227	0.43044	0.28252	-0.043
Mof_O 	O 	0.05568	0.57715	0.18439	-0.511
Mof_C 	C 	0.12862	0.50942	0.22141	-0.116
Mof_C 	C 	0.12422	0.55155	0.18712	0.473
Mof_O 	O 	0.19057	0.55683	0.16405	-0.526
Mof_N 	N 	0.14409	0.49127	0.41901	-0.078
Mof_C 	C 	0.08314	0.51404	0.25986	-0.002
Mof_H 	H 	0.05	0.5439	0.2652	0.037
Mof_C 	C 	0.08701	0.47416	0.29035	-0.007
Mof_H 	H 	0.0578	0.4778	0.3166	0.045
Mof_C 	C 	0.11426	0.51856	0.49033	-0.192
Mof_H 	H 	0.0887	0.5115	0.5171	0.095
Mof_C 	C 	0.10863	0.482	0.45806	0.094
Mof_H 	H 	0.08	0.4504	0.4631	0.007
Mof_C 	C 	0.17906	0.42544	0.24606	-0.002
Mof_H 	H 	0.2118	0.3952	0.2415	0.038
Mof_C 	C 	0.17895	0.46502	0.21528	-0.004
Mof_H 	H 	0.2128	0.4618	0.1904	0.039
Mof_C 	C 	0.196	0.5735	0.44408	-0.187
Mof_H 	H 	0.2277	0.604	0.4388	0.099
Mof_C 	C 	0.15689	0.56581	0.48443	0.149
Mof_C 	C 	0.16154	0.60525	0.52071	-0.176
Mof_H 	H 	0.1612	0.5866	0.5482	0.08
Mof_H 	H 	0.2161	0.624	0.5187	0.092
Mof_C 	C 	0.18796	0.53634	0.41221	0.096
Mof_H 	H 	0.2133	0.5423	0.3853	0.005
Mof_O 	O 	0.63027	0.3592	0.93957	-0.336
Mof_O 	O 	0.63754	0.29375	0.86231	-0.328
Mof_N 	N 	0.63227	0.31956	0.96748	-0.043
Mof_O 	O 	0.55568	0.17285	0.06561	-0.511
Mof_C 	C 	0.62862	0.24058	0.02859	-0.116
Mof_C 	C 	0.62422	0.19845	0.06288	0.473
Mof_O 	O 	0.69057	0.19317	0.08595	-0.526
Mof_N 	N 	0.64409	0.25873	0.83099	-0.078
Mof_C 	C 	0.58314	0.23596	0.99014	-0.002
Mof_H 	H 	0.55	0.2061	0.9848	0.037
Mof_C 	C 	0.58701	0.27584	0.95965	-0.007
Mof_H 	H 	0.5578	0.2722	0.9334	0.045
Mof_C 	C 	0.61426	0.23144	0.75967	-0.192
Mof_H 	H 	0.5887	0.2385	0.7329	0.095
Mof_C 	C 	0.60863	0.268	0.79194	0.094
Mof_H 	H 	0.58	0.2996	0.7869	0.007
Mof_C 	C 	0.67906	0.32456	0.00394	-0.003
Mof_H 	H 	0.7118	0.3548	0.0085	0.038
Mof_C 	C 	0.67895	0.28498	0.03472	-0.004
Mof_H 	H 	0.7128	0.2882	0.0596	0.039
Mof_C 	C 	0.696	0.1765	0.80592	-0.187
Mof_H 	H 	0.7277	0.146	0.8112	0.098
Mof_C 	C 	0.65689	0.18419	0.76557	0.149
Mof_C 	C 	0.66154	0.14475	0.72929	-0.175
Mof_H 	H 	0.6612	0.1634	0.7018	0.08
Mof_H 	H 	0.7161	0.126	0.7313	0.092
Mof_C 	C 	0.68796	0.21366	0.83779	0.095
Mof_H 	H 	0.7133	0.2077	0.8647	0.005
Mof_O 	O 	0.63027	0.8592	0.43957	-0.336
Mof_O 	O 	0.63754	0.79375	0.36231	-0.328
Mof_N 	N 	0.63227	0.81956	0.46748	-0.043
Mof_O 	O 	0.55568	0.67285	0.56561	-0.511
Mof_C 	C 	0.62862	0.74058	0.52859	-0.116
Mof_C 	C 	0.62422	0.69845	0.56288	0.473
Mof_O 	O 	0.69057	0.69317	0.58595	-0.526
Mof_N 	N 	0.64409	0.75873	0.33099	-0.078
Mof_C 	C 	0.58314	0.73596	0.49014	-0.002
Mof_H 	H 	0.55	0.7061	0.4848	0.037
Mof_C 	C 	0.58701	0.77584	0.45965	-0.007
Mof_H 	H 	0.5578	0.7722	0.4334	0.045
Mof_C 	C 	0.61426	0.73144	0.25967	-0.192
Mof_H 	H 	0.5887	0.7385	0.2329	0.095
Mof_C 	C 	0.60863	0.768	0.29194	0.094
Mof_H 	H 	0.58	0.7996	0.2869	0.007
Mof_C 	C 	0.67906	0.82456	0.50394	-0.003
Mof_H 	H 	0.7118	0.8548	0.5085	0.038
Mof_C 	C 	0.67895	0.78498	0.53472	-0.004
Mof_H 	H 	0.7128	0.7882	0.5596	0.039
Mof_C 	C 	0.696	0.6765	0.30592	-0.187
Mof_H 	H 	0.7277	0.646	0.3112	0.099
Mof_C 	C 	0.65689	0.68419	0.26557	0.149
Mof_C 	C 	0.66154	0.64475	0.22929	-0.176
Mof_H 	H 	0.6612	0.6634	0.2018	0.08
Mof_H 	H 	0.7161	0.626	0.2313	0.092
Mof_C 	C 	0.68796	0.71366	0.33779	0.095
Mof_H 	H 	0.7133	0.7077	0.3647	0.005
Mof_O 	O 	0.13027	0.3592	0.43957	-0.336
Mof_O 	O 	0.13754	0.29375	0.36231	-0.328
Mof_N 	N 	0.13227	0.31956	0.46748	-0.043
Mof_O 	O 	0.05568	0.17285	0.56561	-0.51
Mof_C 	C 	0.12862	0.24058	0.52859	-0.116
Mof_C 	C 	0.12422	0.19845	0.56288	0.473
Mof_O 	O 	0.19057	0.19317	0.58595	-0.526
Mof_N 	N 	0.14409	0.25873	0.33099	-0.078
Mof_C 	C 	0.08314	0.23596	0.49014	-0.002
Mof_H 	H 	0.05	0.2061	0.4848	0.037
Mof_C 	C 	0.08701	0.27584	0.45965	-0.007
Mof_H 	H 	0.0578	0.2722	0.4334	0.045
Mof_C 	C 	0.11426	0.23144	0.25967	-0.192
Mof_H 	H 	0.0887	0.2385	0.2329	0.096
Mof_C 	C 	0.10863	0.268	0.29194	0.095
Mof_H 	H 	0.08	0.2996	0.2869	0.007
Mof_C 	C 	0.17906	0.32456	0.50394	-0.002
Mof_H 	H 	0.2118	0.3548	0.5085	0.038
Mof_C 	C 	0.17895	0.28498	0.53472	-0.005
Mof_H 	H 	0.2128	0.2882	0.5596	0.039
Mof_C 	C 	0.196	0.1765	0.30592	-0.187
Mof_H 	H 	0.2277	0.146	0.3112	0.099
Mof_C 	C 	0.15689	0.18419	0.26557	0.149
Mof_C 	C 	0.16154	0.14475	0.22929	-0.175
Mof_H 	H 	0.1612	0.1634	0.2018	0.08
Mof_H 	H 	0.2161	0.126	0.2313	0.092
Mof_C 	C 	0.18796	0.21366	0.33779	0.096
Mof_H 	H 	0.2133	0.2077	0.3647	0.005
Mof_O 	O 	0.13027	0.8592	0.93957	-0.336
Mof_O 	O 	0.13754	0.79375	0.86231	-0.328
Mof_N 	N 	0.13227	0.81956	0.96748	-0.044
Mof_O 	O 	0.05568	0.67285	0.06561	-0.511
Mof_C 	C 	0.12862	0.74058	0.02859	-0.115
Mof_C 	C 	0.12422	0.69845	0.06288	0.473
Mof_O 	O 	0.19057	0.69317	0.08595	-0.526
Mof_N 	N 	0.14409	0.75873	0.83099	-0.078
Mof_C 	C 	0.08314	0.73596	0.99014	-0.004
Mof_H 	H 	0.05	0.7061	0.9848	0.037
Mof_C 	C 	0.08701	0.77584	0.95965	-0.007
Mof_H 	H 	0.0578	0.7722	0.9334	0.044
Mof_C 	C 	0.11426	0.73144	0.75967	-0.192
Mof_H 	H 	0.0887	0.7385	0.7329	0.095
Mof_C 	C 	0.10863	0.768	0.79194	0.094
Mof_H 	H 	0.08	0.7996	0.7869	0.007
Mof_C 	C 	0.17906	0.82456	0.00394	-0.002
Mof_H 	H 	0.2118	0.8548	0.0085	0.037
Mof_C 	C 	0.17895	0.78498	0.03472	-0.005
Mof_H 	H 	0.2128	0.7882	0.0596	0.039
Mof_C 	C 	0.196	0.6765	0.80592	-0.187
Mof_H 	H 	0.2277	0.646	0.8112	0.099
Mof_C 	C 	0.15689	0.68419	0.76557	0.149
Mof_C 	C 	0.16154	0.64475	0.72929	-0.176
Mof_H 	H 	0.1612	0.6634	0.7018	0.08
Mof_H 	H 	0.2161	0.626	0.7313	0.092
Mof_C 	C 	0.18796	0.71366	0.83779	0.095
Mof_H 	H 	0.2133	0.7077	0.8647	0.005
Mof_O 	O 	0.61973	0.8908	0.93957	-0.336
Mof_O 	O 	0.61246	0.95625	0.86231	-0.328
Mof_N 	N 	0.61773	0.93044	0.96748	-0.043
Mof_O 	O 	0.69432	0.07715	0.06561	-0.511
Mof_C 	C 	0.62138	0.00942	0.02859	-0.116
Mof_C 	C 	0.62578	0.05155	0.06288	0.473
Mof_O 	O 	0.55943	0.05683	0.08595	-0.526
Mof_N 	N 	0.60591	0.99127	0.83099	-0.078
Mof_C 	C 	0.66686	0.01404	0.99014	-0.003
Mof_H 	H 	0.7	0.0439	0.9848	0.037
Mof_C 	C 	0.66299	0.97416	0.95965	-0.006
Mof_H 	H 	0.6922	0.9778	0.9334	0.044
Mof_C 	C 	0.63574	0.01856	0.75967	-0.193
Mof_H 	H 	0.6613	0.0115	0.7329	0.095
Mof_C 	C 	0.64137	0.982	0.79194	0.095
Mof_H 	H 	0.67	0.9504	0.7869	0.007
Mof_C 	C 	0.57094	0.92544	0.00394	-0.003
Mof_H 	H 	0.5382	0.8952	0.0085	0.038
Mof_C 	C 	0.57105	0.96502	0.03472	-0.004
Mof_H 	H 	0.5372	0.9618	0.0596	0.039
Mof_C 	C 	0.554	0.0735	0.80592	-0.187
Mof_H 	H 	0.5223	0.104	0.8112	0.099
Mof_C 	C 	0.59311	0.06581	0.76557	0.149
Mof_C 	C 	0.58846	0.10525	0.72929	-0.176
Mof_H 	H 	0.5888	0.0866	0.7018	0.08
Mof_H 	H 	0.5339	0.124	0.7313	0.092
Mof_C 	C 	0.56204	0.03634	0.83779	0.095
Mof_H 	H 	0.5367	0.0423	0.8647	0.005
Mof_O 	O 	0.61973	0.3908	0.43957	-0.336
Mof_O 	O 	0.61246	0.45625	0.36231	-0.328
Mof_N 	N 	0.61773	0.43044	0.46748	-0.043
Mof_O 	O 	0.69432	0.57715	0.56561	-0.511
Mof_C 	C 	0.62138	0.50942	0.52859	-0.116
Mof_C 	C 	0.62578	0.55155	0.56288	0.473
Mof_O 	O 	0.55943	0.55683	0.58595	-0.526
Mof_N 	N 	0.60591	0.49127	0.33099	-0.078
Mof_C 	C 	0.66686	0.51404	0.49014	-0.002
Mof_H 	H 	0.7	0.5439	0.4848	0.037
Mof_C 	C 	0.66299	0.47416	0.45965	-0.007
Mof_H 	H 	0.6922	0.4778	0.4334	0.045
Mof_C 	C 	0.63574	0.51856	0.25967	-0.192
Mof_H 	H 	0.6613	0.5115	0.2329	0.095
Mof_C 	C 	0.64137	0.482	0.29194	0.094
Mof_H 	H 	0.67	0.4504	0.2869	0.007
Mof_C 	C 	0.57094	0.42544	0.50394	-0.003
Mof_H 	H 	0.5382	0.3952	0.5085	0.038
Mof_C 	C 	0.57105	0.46502	0.53472	-0.004
Mof_H 	H 	0.5372	0.4618	0.5596	0.039
Mof_C 	C 	0.554	0.5735	0.30592	-0.187
Mof_H 	H 	0.5223	0.604	0.3112	0.099
Mof_C 	C 	0.59311	0.56581	0.26557	0.149
Mof_C 	C 	0.58846	0.60525	0.22929	-0.176
Mof_H 	H 	0.5888	0.5866	0.2018	0.08
Mof_H 	H 	0.5339	0.624	0.2313	0.092
Mof_C 	C 	0.56204	0.53634	0.33779	0.095
Mof_H 	H 	0.5367	0.5423	0.3647	0.005
Mof_O 	O 	0.11973	0.8908	0.43957	-0.336
Mof_O 	O 	0.11246	0.95625	0.36231	-0.328
Mof_N 	N 	0.11773	0.93044	0.46748	-0.043
Mof_O 	O 	0.19432	0.07715	0.56561	-0.511
Mof_C 	C 	0.12138	0.00942	0.52859	-0.115
Mof_C 	C 	0.12578	0.05155	0.56288	0.473
Mof_O 	O 	0.05943	0.05683	0.58595	-0.525
Mof_N 	N 	0.10591	0.99127	0.33099	-0.078
Mof_C 	C 	0.16686	0.01404	0.49014	-0.001
Mof_H 	H 	0.2	0.0439	0.4848	0.036
Mof_C 	C 	0.16299	0.97416	0.45965	-0.009
Mof_H 	H 	0.1922	0.9778	0.4334	0.045
Mof_C 	C 	0.13574	0.01856	0.25967	-0.19
Mof_H 	H 	0.1613	0.0115	0.2329	0.095
Mof_C 	C 	0.14137	0.982	0.29194	0.092
Mof_H 	H 	0.17	0.9504	0.2869	0.007
Mof_C 	C 	0.07094	0.92544	0.50394	-0.002
Mof_H 	H 	0.0382	0.8952	0.5085	0.037
Mof_C 	C 	0.07105	0.96502	0.53472	-0.006
Mof_H 	H 	0.0372	0.9618	0.5596	0.039
Mof_C 	C 	0.054	0.0735	0.30592	-0.187
Mof_H 	H 	0.0223	0.104	0.3112	0.099
Mof_C 	C 	0.09311	0.06581	0.26557	0.149
Mof_C 	C 	0.08846	0.10525	0.22929	-0.176
Mof_H 	H 	0.0888	0.0866	0.2018	0.08
Mof_H 	H 	0.0339	0.124	0.2313	0.093
Mof_C 	C 	0.06204	0.03634	0.33779	0.097
Mof_H 	H 	0.0367	0.0423	0.3647	0.005
Mof_O 	O 	0.11973	0.3908	0.93957	-0.336
Mof_O 	O 	0.11246	0.45625	0.86231	-0.328
Mof_N 	N 	0.11773	0.43044	0.96748	-0.044
Mof_O 	O 	0.19432	0.57715	0.06561	-0.511
Mof_C 	C 	0.12138	0.50942	0.02859	-0.115
Mof_C 	C 	0.12578	0.55155	0.06288	0.473
Mof_O 	O 	0.05943	0.55683	0.08595	-0.525
Mof_N 	N 	0.10591	0.49127	0.83099	-0.078
Mof_C 	C 	0.16686	0.51404	0.99014	-0.004
Mof_H 	H 	0.2	0.5439	0.9848	0.037
Mof_C 	C 	0.16299	0.47416	0.95965	-0.007
Mof_H 	H 	0.1922	0.4778	0.9334	0.044
Mof_C 	C 	0.13574	0.51856	0.75967	-0.192
Mof_H 	H 	0.1613	0.5115	0.7329	0.095
Mof_C 	C 	0.14137	0.482	0.79194	0.094
Mof_H 	H 	0.17	0.4504	0.7869	0.007
Mof_C 	C 	0.07094	0.42544	0.00394	-0.002
Mof_H 	H 	0.0382	0.3952	0.0085	0.038
Mof_C 	C 	0.07105	0.46502	0.03472	-0.005
Mof_H 	H 	0.0372	0.4618	0.0596	0.04
Mof_C 	C 	0.054	0.5735	0.80592	-0.187
Mof_H 	H 	0.0223	0.604	0.8112	0.099
Mof_C 	C 	0.09311	0.56581	0.76557	0.149
Mof_C 	C 	0.08846	0.60525	0.72929	-0.175
Mof_H 	H 	0.0888	0.5866	0.7018	0.08
Mof_H 	H 	0.0339	0.624	0.7313	0.092
Mof_C 	C 	0.06204	0.53634	0.83779	0.095
Mof_H 	H 	0.0367	0.5423	0.8647	0.005
Mof_La	La	0.47466	0.625	0.625	2.322
Mof_La	La	0.97466	0.625	0.125	2.322
Mof_La	La	0.27534	0.125	0.625	2.322
Mof_La	La	0.77534	0.125	0.125	2.322
Mof_La	La	0.77534	0.625	0.625	2.322
Mof_La	La	0.27534	0.625	0.125	2.322
Mof_La	La	0.47466	0.125	0.125	2.322
Mof_La	La	0.97466	0.125	0.625	2.32
Mof_La	La	0.52534	0.375	0.375	2.322
Mof_La	La	0.02534	0.375	0.875	2.322
Mof_La	La	0.72466	0.875	0.375	2.322
Mof_La	La	0.22466	0.875	0.875	2.322
Mof_La	La	0.72466	0.375	0.875	2.322
Mof_La	La	0.22466	0.375	0.375	2.322
Mof_La	La	0.52534	0.875	0.875	2.322
Mof_La	La	0.02534	0.875	0.375	2.32
_end
