data_functionalizedCrystal
_audit_creation_method	'EQeq! by Chris Wilmer'
_symmetry_space_group_name_H-M	'P1'
_symmetry_Int_Tables_number	1
_symmetry_cell_setting	triclinic
loop_
_symmetry_equiv_pos_as_xyz
  x,y,z
_cell_length_a	21.9381
_cell_length_b	16.7198
_cell_length_c	25.5037
_cell_angle_alpha	90
_cell_angle_beta	115.074
_cell_angle_gamma	90
loop_
_atom_site_label
_atom_site_type_symbol
_atom_site_fract_x
_atom_site_fract_y
_atom_site_fract_z
_atom_site_charge
Mof_Ag	Ag	0.84424	0.04367	0.36665	0.524
Mof_Ag	Ag	0.32144	0.24312	0.86622	0.537
Mof_C 	C 	0.5975	0.0282	0.9986	0.101
Mof_C 	C 	0.7763	0.8617	0.0073	-0.134
Mof_H 	H 	0.797	0.8654	0.0475	0.074
Mof_C 	C 	0.0596	0.1997	0.4674	0.069
Mof_C 	C 	0.2975	0.4172	0.5033	-0.144
Mof_H 	H 	0.3193	0.4141	0.5434	0.089
Mof_C 	C 	0.123	0.2445	0.4998	0.098
Mof_C 	C 	0.0326	0.1902	0.4088	-0.149
Mof_H 	H 	0.0541	0.2114	0.3874	0.084
Mof_C 	C 	0.503	0.1147	0.994	-0.141
Mof_H 	H 	0.5224	0.116	0.0343	0.089
Mof_C 	C 	0.4434	0.1551	0.9622	0.094
Mof_H 	H 	0.4238	0.1836	0.9824	-0.015
Mof_C 	C 	0.2428	0.2632	0.649	0.069
Mof_C 	C 	0.6814	0.9476	0.0046	0.095
Mof_C 	C 	0.7197	0.8471	0.89	0.061
Mof_H 	H 	0.7002	0.8424	0.8499	-0.023
Mof_C 	C 	0.5328	0.0726	0.9647	0.073
Mof_C 	C 	0.235	0.3791	0.4723	0.075
Mof_C 	C 	0.6786	0.0442	0.179	-0.141
Mof_H 	H 	0.6346	0.0621	0.1587	0.084
Mof_C 	C 	0.2094	0.2743	0.5853	0.1
Mof_C 	C 	0.712	0.008	0.1499	0.061
Mof_C 	C 	0.7142	0.899	0.9755	0.052
Mof_C 	C 	0.0253	0.1663	0.497	-0.157
Mof_H 	H 	0.0421	0.1712	0.537	0.08
Mof_C 	C 	0.2356	0.4353	0.387	0.092
Mof_H 	H 	0.2144	0.4416	0.3471	-0.012
Mof_C 	C 	0.2039	0.391	0.4135	-0.141
Mof_H 	H 	0.1616	0.3691	0.3918	0.088
Mof_C 	C 	0.2045	0.3283	0.5025	0.102
Mof_C 	C 	0.6799	0.9979	0.0857	0.096
Mof_C 	C 	0.8062	0.8194	0.9778	0.077
Mof_H 	H 	0.8472	0.7945	0.9992	-0.013
Mof_C 	C 	0.6855	0.89	0.9164	-0.131
Mof_H 	H 	0.6436	0.9123	0.8941	0.076
Mof_C 	C 	0.3247	0.4586	0.4727	0.1
Mof_H 	H 	0.3672	0.4809	0.493	-0.018
Mof_C 	C 	0.9673	0.1269	0.4671	0.088
Mof_H 	H 	0.9454	0.1041	0.4877	-0.026
Mof_C 	C 	0.9726	0.1485	0.3814	0.076
Mof_H 	H 	0.9549	0.1414	0.3415	-0.022
Mof_C 	C 	0.8061	0.9949	0.2403	0.082
Mof_H 	H 	0.8499	0.977	0.2613	-0.027
Mof_C 	C 	0.5011	0.0711	0.9049	-0.146
Mof_H 	H 	0.5183	0.0409	0.8836	0.082
Mof_C 	C 	0.7108	0.0535	0.2378	0.08
Mof_H 	H 	0.6875	0.0772	0.257	-0.015
Mof_C 	C 	0.2457	0.2062	0.7348	0.089
Mof_H 	H 	0.2271	0.171	0.7523	-0.025
Mof_C 	C 	0.2145	0.2132	0.6764	-0.151
Mof_H 	H 	0.1751	0.1852	0.655	0.075
Mof_C 	C 	0.7775	0.9837	0.1816	-0.151
Mof_H 	H 	0.8019	0.9602	0.1634	0.075
Mof_C 	C 	0.4436	0.1154	0.8778	0.091
Mof_H 	H 	0.4246	0.1176	0.8376	-0.01
Mof_C 	C 	0.3022	0.3004	0.6826	-0.151
Mof_H 	H 	0.3249	0.3312	0.6661	0.086
Mof_C 	C 	0.3275	0.2903	0.7423	0.095
Mof_H 	H 	0.3668	0.3176	0.7652	-0.024
Mof_N 	N 	0.9395	0.1185	0.4102	-0.216
Mof_N 	N 	0.2952	0.4695	0.416	-0.196
Mof_N 	N 	0.3001	0.2453	0.7687	-0.206
Mof_N 	N 	0.152	0.2345	0.5569	-0.142
Mof_N 	N 	0.1475	0.2904	0.4704	-0.138
Mof_N 	N 	0.2373	0.3229	0.5605	-0.137
Mof_N 	N 	0.4128	0.1557	0.9051	-0.192
Mof_N 	N 	0.7795	0.8125	0.9205	-0.208
Mof_N 	N 	0.7753	0.0297	0.2693	-0.199
Mof_N 	N 	0.6225	0.0372	0.0563	-0.137
Mof_N 	N 	0.6248	0.9869	0.9707	-0.142
Mof_N 	N 	0.7103	0.9508	0.0624	-0.15
Mof_Ag	Ag	0.34424	0.54367	0.36665	0.522
Mof_Ag	Ag	0.82144	0.74312	0.86622	0.536
Mof_C 	C 	0.0975	0.5282	0.9986	0.102
Mof_C 	C 	0.2763	0.3617	0.0073	-0.139
Mof_H 	H 	0.297	0.3654	0.0475	0.075
Mof_C 	C 	0.5596	0.6997	0.4674	0.068
Mof_C 	C 	0.7975	0.9172	0.5033	-0.145
Mof_H 	H 	0.8193	0.9141	0.5434	0.088
Mof_C 	C 	0.623	0.7445	0.4998	0.097
Mof_C 	C 	0.5326	0.6902	0.4088	-0.149
Mof_H 	H 	0.5541	0.7114	0.3874	0.083
Mof_C 	C 	0.003	0.6147	0.994	-0.136
Mof_H 	H 	0.0224	0.616	0.0343	0.085
Mof_C 	C 	0.9434	0.6551	0.9622	0.09
Mof_H 	H 	0.9238	0.6836	0.9824	-0.015
Mof_C 	C 	0.7428	0.7632	0.649	0.068
Mof_C 	C 	0.1814	0.4476	0.0046	0.092
Mof_C 	C 	0.2197	0.3471	0.89	0.061
Mof_H 	H 	0.2002	0.3424	0.8499	-0.025
Mof_C 	C 	0.0328	0.5726	0.9647	0.069
Mof_C 	C 	0.735	0.8791	0.4723	0.074
Mof_C 	C 	0.1786	0.5442	0.179	-0.142
Mof_H 	H 	0.1346	0.5621	0.1587	0.083
Mof_C 	C 	0.7094	0.7743	0.5853	0.099
Mof_C 	C 	0.212	0.508	0.1499	0.059
Mof_C 	C 	0.2142	0.399	0.9755	0.055
Mof_C 	C 	0.5253	0.6663	0.497	-0.158
Mof_H 	H 	0.5421	0.6712	0.537	0.079
Mof_C 	C 	0.7356	0.9353	0.387	0.091
Mof_H 	H 	0.7144	0.9416	0.3471	-0.013
Mof_C 	C 	0.7039	0.891	0.4135	-0.142
Mof_H 	H 	0.6616	0.8691	0.3918	0.087
Mof_C 	C 	0.7045	0.8283	0.5025	0.102
Mof_C 	C 	0.1799	0.4979	0.0857	0.096
Mof_C 	C 	0.3062	0.3194	0.9778	0.08
Mof_H 	H 	0.3472	0.2945	0.9992	-0.014
Mof_C 	C 	0.1855	0.39	0.9164	-0.133
Mof_H 	H 	0.1436	0.4123	0.8941	0.077
Mof_C 	C 	0.8247	0.9586	0.4727	0.1
Mof_H 	H 	0.8672	0.9809	0.493	-0.018
Mof_C 	C 	0.4673	0.6269	0.4671	0.087
Mof_H 	H 	0.4454	0.6041	0.4877	-0.026
Mof_C 	C 	0.4726	0.6485	0.3814	0.076
Mof_H 	H 	0.4549	0.6414	0.3415	-0.022
Mof_C 	C 	0.3061	0.4949	0.2403	0.082
Mof_H 	H 	0.3499	0.477	0.2613	-0.027
Mof_C 	C 	0.0011	0.5711	0.9049	-0.143
Mof_H 	H 	0.0183	0.5409	0.8836	0.081
Mof_C 	C 	0.2108	0.5535	0.2378	0.08
Mof_H 	H 	0.1875	0.5772	0.257	-0.015
Mof_C 	C 	0.7457	0.7062	0.7348	0.089
Mof_H 	H 	0.7271	0.671	0.7523	-0.025
Mof_C 	C 	0.7145	0.7132	0.6764	-0.151
Mof_H 	H 	0.6751	0.6852	0.655	0.075
Mof_C 	C 	0.2775	0.4837	0.1816	-0.151
Mof_H 	H 	0.3019	0.4602	0.1634	0.075
Mof_C 	C 	0.9436	0.6154	0.8778	0.088
Mof_H 	H 	0.9246	0.6176	0.8376	-0.009
Mof_C 	C 	0.8022	0.8004	0.6826	-0.151
Mof_H 	H 	0.8249	0.8312	0.6661	0.086
Mof_C 	C 	0.8275	0.7903	0.7423	0.094
Mof_H 	H 	0.8668	0.8176	0.7652	-0.024
Mof_N 	N 	0.4395	0.6185	0.4102	-0.216
Mof_N 	N 	0.7952	0.9695	0.416	-0.196
Mof_N 	N 	0.8001	0.7453	0.7687	-0.206
Mof_N 	N 	0.652	0.7345	0.5569	-0.142
Mof_N 	N 	0.6475	0.7904	0.4704	-0.138
Mof_N 	N 	0.7373	0.8229	0.5605	-0.137
Mof_N 	N 	0.9128	0.6557	0.9051	-0.191
Mof_N 	N 	0.2795	0.3125	0.9205	-0.209
Mof_N 	N 	0.2753	0.5297	0.2693	-0.199
Mof_N 	N 	0.1225	0.5372	0.0563	-0.138
Mof_N 	N 	0.1248	0.4869	0.9707	-0.142
Mof_N 	N 	0.2103	0.4508	0.0624	-0.15
Mof_Ag	Ag	0.15576	0.04367	0.13335	0.522
Mof_Ag	Ag	0.67856	0.24312	0.63378	0.536
Mof_C 	C 	0.4025	0.0282	0.5014	0.101
Mof_C 	C 	0.2237	0.8617	0.4927	-0.137
Mof_H 	H 	0.203	0.8654	0.4525	0.074
Mof_C 	C 	0.9404	0.1997	0.0326	0.065
Mof_C 	C 	0.7025	0.4172	0.9967	-0.148
Mof_H 	H 	0.6807	0.4141	0.9566	0.089
Mof_C 	C 	0.877	0.2445	0.0002	0.098
Mof_C 	C 	0.9674	0.1902	0.0912	-0.146
Mof_H 	H 	0.9459	0.2114	0.1126	0.082
Mof_C 	C 	0.497	0.1147	0.506	-0.141
Mof_H 	H 	0.4776	0.116	0.4657	0.088
Mof_C 	C 	0.5566	0.1551	0.5378	0.093
Mof_H 	H 	0.5762	0.1836	0.5176	-0.016
Mof_C 	C 	0.7572	0.2632	0.851	0.068
Mof_C 	C 	0.3186	0.9476	0.4954	0.094
Mof_C 	C 	0.2803	0.8471	0.61	0.061
Mof_H 	H 	0.2998	0.8424	0.6501	-0.025
Mof_C 	C 	0.4672	0.0726	0.5353	0.071
Mof_C 	C 	0.765	0.3791	0.0277	0.077
Mof_C 	C 	0.3214	0.0442	0.321	-0.142
Mof_H 	H 	0.3654	0.0621	0.3413	0.083
Mof_C 	C 	0.7906	0.2743	0.9147	0.099
Mof_C 	C 	0.288	0.008	0.3501	0.06
Mof_C 	C 	0.2858	0.899	0.5245	0.053
Mof_C 	C 	0.9747	0.1663	0.003	-0.152
Mof_H 	H 	0.9579	0.1712	0.963	0.077
Mof_C 	C 	0.7644	0.4353	0.113	0.092
Mof_H 	H 	0.7856	0.4416	0.1529	-0.013
Mof_C 	C 	0.7961	0.391	0.0865	-0.144
Mof_H 	H 	0.8384	0.3691	0.1082	0.087
Mof_C 	C 	0.7955	0.3283	0.9975	0.1
Mof_C 	C 	0.3201	0.9979	0.4143	0.096
Mof_C 	C 	0.1938	0.8194	0.5222	0.078
Mof_H 	H 	0.1528	0.7945	0.5008	-0.013
Mof_C 	C 	0.3145	0.89	0.5836	-0.131
Mof_H 	H 	0.3564	0.9123	0.6059	0.076
Mof_C 	C 	0.6753	0.4586	0.0273	0.102
Mof_H 	H 	0.6328	0.4809	0.007	-0.019
Mof_C 	C 	0.0327	0.1269	0.0329	0.084
Mof_H 	H 	0.0546	0.1041	0.0123	-0.025
Mof_C 	C 	0.0274	0.1485	0.1186	0.073
Mof_H 	H 	0.0451	0.1414	0.1585	-0.021
Mof_C 	C 	0.1939	0.9949	0.2597	0.082
Mof_H 	H 	0.1501	0.977	0.2387	-0.027
Mof_C 	C 	0.4989	0.0711	0.5951	-0.146
Mof_H 	H 	0.4817	0.0409	0.6164	0.082
Mof_C 	C 	0.2892	0.0535	0.2622	0.08
Mof_H 	H 	0.3125	0.0772	0.243	-0.015
Mof_C 	C 	0.7543	0.2062	0.7652	0.089
Mof_H 	H 	0.7729	0.171	0.7477	-0.025
Mof_C 	C 	0.7855	0.2132	0.8236	-0.151
Mof_H 	H 	0.8249	0.1852	0.845	0.075
Mof_C 	C 	0.2225	0.9837	0.3184	-0.151
Mof_H 	H 	0.1981	0.9602	0.3366	0.075
Mof_C 	C 	0.5564	0.1154	0.6222	0.091
Mof_H 	H 	0.5754	0.1176	0.6624	-0.01
Mof_C 	C 	0.6978	0.3004	0.8174	-0.151
Mof_H 	H 	0.6751	0.3312	0.8339	0.086
Mof_C 	C 	0.6725	0.2903	0.7577	0.095
Mof_H 	H 	0.6332	0.3176	0.7348	-0.024
Mof_N 	N 	0.0605	0.1185	0.0898	-0.215
Mof_N 	N 	0.7048	0.4695	0.084	-0.197
Mof_N 	N 	0.6999	0.2453	0.7313	-0.206
Mof_N 	N 	0.848	0.2345	0.9431	-0.142
Mof_N 	N 	0.8525	0.2904	0.0296	-0.138
Mof_N 	N 	0.7627	0.3229	0.9395	-0.136
Mof_N 	N 	0.5872	0.1557	0.5949	-0.192
Mof_N 	N 	0.2205	0.8125	0.5795	-0.208
Mof_N 	N 	0.2247	0.0297	0.2307	-0.199
Mof_N 	N 	0.3775	0.0372	0.4437	-0.138
Mof_N 	N 	0.3752	0.9869	0.5293	-0.142
Mof_N 	N 	0.2897	0.9508	0.4376	-0.15
Mof_Ag	Ag	0.65576	0.54367	0.13335	0.522
Mof_Ag	Ag	0.17856	0.74312	0.63378	0.536
Mof_C 	C 	0.9025	0.5282	0.5014	0.101
Mof_C 	C 	0.7237	0.3617	0.4927	-0.137
Mof_H 	H 	0.703	0.3654	0.4525	0.074
Mof_C 	C 	0.4404	0.6997	0.0326	0.068
Mof_C 	C 	0.2025	0.9172	0.9967	-0.142
Mof_H 	H 	0.1807	0.9141	0.9566	0.087
Mof_C 	C 	0.377	0.7445	0.0002	0.096
Mof_C 	C 	0.4674	0.6902	0.0912	-0.15
Mof_H 	H 	0.4459	0.7114	0.1126	0.084
Mof_C 	C 	0.997	0.6147	0.506	-0.141
Mof_H 	H 	0.9776	0.616	0.4657	0.088
Mof_C 	C 	0.0566	0.6551	0.5378	0.093
Mof_H 	H 	0.0762	0.6836	0.5176	-0.016
Mof_C 	C 	0.2572	0.7632	0.851	0.068
Mof_C 	C 	0.8186	0.4476	0.4954	0.094
Mof_C 	C 	0.7803	0.3471	0.61	0.061
Mof_H 	H 	0.7998	0.3424	0.6501	-0.025
Mof_C 	C 	0.9672	0.5726	0.5353	0.072
Mof_C 	C 	0.265	0.8791	0.0277	0.072
Mof_C 	C 	0.8214	0.5442	0.321	-0.142
Mof_H 	H 	0.8654	0.5621	0.3413	0.083
Mof_C 	C 	0.2906	0.7743	0.9147	0.099
Mof_C 	C 	0.788	0.508	0.3501	0.059
Mof_C 	C 	0.7858	0.399	0.5245	0.053
Mof_C 	C 	0.4747	0.6663	0.003	-0.159
Mof_H 	H 	0.4579	0.6712	0.963	0.08
Mof_C 	C 	0.2644	0.9353	0.113	0.09
Mof_H 	H 	0.2856	0.9416	0.1529	-0.013
Mof_C 	C 	0.2961	0.891	0.0865	-0.141
Mof_H 	H 	0.3384	0.8691	0.1082	0.086
Mof_C 	C 	0.2955	0.8283	0.9975	0.103
Mof_C 	C 	0.8201	0.4979	0.4143	0.096
Mof_C 	C 	0.6938	0.3194	0.5222	0.078
Mof_H 	H 	0.6528	0.2945	0.5008	-0.013
Mof_C 	C 	0.8145	0.39	0.5836	-0.131
Mof_H 	H 	0.8564	0.4123	0.6059	0.076
Mof_C 	C 	0.1753	0.9586	0.0273	0.098
Mof_H 	H 	0.1328	0.9809	0.007	-0.018
Mof_C 	C 	0.5327	0.6269	0.0329	0.088
Mof_H 	H 	0.5546	0.6041	0.0123	-0.026
Mof_C 	C 	0.5274	0.6485	0.1186	0.076
Mof_H 	H 	0.5451	0.6414	0.1585	-0.022
Mof_C 	C 	0.6939	0.4949	0.2597	0.082
Mof_H 	H 	0.6501	0.477	0.2387	-0.027
Mof_C 	C 	0.9989	0.5711	0.5951	-0.147
Mof_H 	H 	0.9817	0.5409	0.6164	0.082
Mof_C 	C 	0.7892	0.5535	0.2622	0.08
Mof_H 	H 	0.8125	0.5772	0.243	-0.015
Mof_C 	C 	0.2543	0.7062	0.7652	0.089
Mof_H 	H 	0.2729	0.671	0.7477	-0.025
Mof_C 	C 	0.2855	0.7132	0.8236	-0.151
Mof_H 	H 	0.3249	0.6852	0.845	0.075
Mof_C 	C 	0.7225	0.4837	0.3184	-0.151
Mof_H 	H 	0.6981	0.4602	0.3366	0.075
Mof_C 	C 	0.0564	0.6154	0.6222	0.091
Mof_H 	H 	0.0754	0.6176	0.6624	-0.01
Mof_C 	C 	0.1978	0.8004	0.8174	-0.151
Mof_H 	H 	0.1751	0.8312	0.8339	0.086
Mof_C 	C 	0.1725	0.7903	0.7577	0.095
Mof_H 	H 	0.1332	0.8176	0.7348	-0.024
Mof_N 	N 	0.5605	0.6185	0.0898	-0.216
Mof_N 	N 	0.2048	0.9695	0.084	-0.196
Mof_N 	N 	0.1999	0.7453	0.7313	-0.206
Mof_N 	N 	0.348	0.7345	0.9431	-0.142
Mof_N 	N 	0.3525	0.7904	0.0296	-0.138
Mof_N 	N 	0.2627	0.8229	0.9395	-0.137
Mof_N 	N 	0.0872	0.6557	0.5949	-0.192
Mof_N 	N 	0.7205	0.3125	0.5795	-0.208
Mof_N 	N 	0.7247	0.5297	0.2307	-0.199
Mof_N 	N 	0.8775	0.5372	0.4437	-0.138
Mof_N 	N 	0.8752	0.4869	0.5293	-0.142
Mof_N 	N 	0.7897	0.4508	0.4376	-0.15
Mof_Ag	Ag	0.15576	0.95633	0.63335	0.523
Mof_Ag	Ag	0.67856	0.75688	0.13378	0.536
Mof_C 	C 	0.4025	0.9718	0.0014	0.1
Mof_C 	C 	0.2237	0.1383	0.9927	-0.135
Mof_H 	H 	0.203	0.1346	0.9525	0.073
Mof_C 	C 	0.9404	0.8003	0.5326	0.068
Mof_C 	C 	0.7025	0.5828	0.4967	-0.145
Mof_H 	H 	0.6807	0.5859	0.4566	0.088
Mof_C 	C 	0.877	0.7555	0.5002	0.097
Mof_C 	C 	0.9674	0.8098	0.5912	-0.15
Mof_H 	H 	0.9459	0.7886	0.6126	0.083
Mof_C 	C 	0.497	0.8853	0.006	-0.142
Mof_H 	H 	0.4776	0.884	0.9657	0.088
Mof_C 	C 	0.5566	0.8449	0.0378	0.093
Mof_H 	H 	0.5762	0.8164	0.0176	-0.016
Mof_C 	C 	0.7572	0.7368	0.351	0.068
Mof_C 	C 	0.3186	0.0524	0.9954	0.094
Mof_C 	C 	0.2803	0.1529	0.11	0.06
Mof_H 	H 	0.2998	0.1576	0.1501	-0.024
Mof_C 	C 	0.4672	0.9274	0.0353	0.072
Mof_C 	C 	0.765	0.6209	0.5277	0.074
Mof_C 	C 	0.3214	0.9558	0.821	-0.142
Mof_H 	H 	0.3654	0.9379	0.8413	0.083
Mof_C 	C 	0.7906	0.7257	0.4147	0.099
Mof_C 	C 	0.288	0.992	0.8501	0.06
Mof_C 	C 	0.2858	0.101	0.0245	0.051
Mof_C 	C 	0.9747	0.8337	0.503	-0.158
Mof_H 	H 	0.9579	0.8288	0.463	0.079
Mof_C 	C 	0.7644	0.5647	0.613	0.091
Mof_H 	H 	0.7856	0.5584	0.6529	-0.013
Mof_C 	C 	0.7961	0.609	0.5865	-0.142
Mof_H 	H 	0.8384	0.6309	0.6082	0.087
Mof_C 	C 	0.7955	0.6717	0.4975	0.102
Mof_C 	C 	0.3201	0.0021	0.9143	0.096
Mof_C 	C 	0.1938	0.1806	0.0222	0.077
Mof_H 	H 	0.1528	0.2055	0.0008	-0.013
Mof_C 	C 	0.3145	0.11	0.0836	-0.131
Mof_H 	H 	0.3564	0.0877	0.1059	0.076
Mof_C 	C 	0.6753	0.5414	0.5273	0.1
Mof_H 	H 	0.6328	0.5191	0.507	-0.018
Mof_C 	C 	0.0327	0.8731	0.5329	0.088
Mof_H 	H 	0.0546	0.8959	0.5123	-0.026
Mof_C 	C 	0.0274	0.8515	0.6186	0.076
Mof_H 	H 	0.0451	0.8586	0.6585	-0.022
Mof_C 	C 	0.1939	0.0051	0.7597	0.082
Mof_H 	H 	0.1501	0.023	0.7387	-0.027
Mof_C 	C 	0.4989	0.9289	0.0951	-0.146
Mof_H 	H 	0.4817	0.9591	0.1164	0.082
Mof_C 	C 	0.2892	0.9465	0.7622	0.08
Mof_H 	H 	0.3125	0.9228	0.743	-0.015
Mof_C 	C 	0.7543	0.7938	0.2652	0.089
Mof_H 	H 	0.7729	0.829	0.2477	-0.025
Mof_C 	C 	0.7855	0.7868	0.3236	-0.151
Mof_H 	H 	0.8249	0.8148	0.345	0.075
Mof_C 	C 	0.2225	0.0163	0.8184	-0.151
Mof_H 	H 	0.1981	0.0398	0.8366	0.075
Mof_C 	C 	0.5564	0.8846	0.1222	0.091
Mof_H 	H 	0.5754	0.8824	0.1624	-0.01
Mof_C 	C 	0.6978	0.6996	0.3174	-0.151
Mof_H 	H 	0.6751	0.6688	0.3339	0.086
Mof_C 	C 	0.6725	0.7097	0.2577	0.095
Mof_H 	H 	0.6332	0.6824	0.2348	-0.024
Mof_N 	N 	0.0605	0.8815	0.5898	-0.216
Mof_N 	N 	0.7048	0.5305	0.584	-0.196
Mof_N 	N 	0.6999	0.7547	0.2313	-0.206
Mof_N 	N 	0.848	0.7655	0.4431	-0.142
Mof_N 	N 	0.8525	0.7096	0.5296	-0.138
Mof_N 	N 	0.7627	0.6771	0.4395	-0.137
Mof_N 	N 	0.5872	0.8443	0.0949	-0.192
Mof_N 	N 	0.2205	0.1875	0.0795	-0.208
Mof_N 	N 	0.2247	0.9703	0.7307	-0.199
Mof_N 	N 	0.3775	0.9628	0.9437	-0.137
Mof_N 	N 	0.3752	0.0131	0.0293	-0.142
Mof_N 	N 	0.2897	0.0492	0.9376	-0.15
Mof_Ag	Ag	0.65576	0.45633	0.63335	0.522
Mof_Ag	Ag	0.17856	0.25688	0.13378	0.536
Mof_C 	C 	0.9025	0.4718	0.0014	0.102
Mof_C 	C 	0.7237	0.6383	0.9927	-0.139
Mof_H 	H 	0.703	0.6346	0.9525	0.075
Mof_C 	C 	0.4404	0.3003	0.5326	0.068
Mof_C 	C 	0.2025	0.0828	0.4967	-0.145
Mof_H 	H 	0.1807	0.0859	0.4566	0.088
Mof_C 	C 	0.377	0.2555	0.5002	0.097
Mof_C 	C 	0.4674	0.3098	0.5912	-0.149
Mof_H 	H 	0.4459	0.2886	0.6126	0.083
Mof_C 	C 	0.997	0.3853	0.006	-0.136
Mof_H 	H 	0.9776	0.384	0.9657	0.085
Mof_C 	C 	0.0566	0.3449	0.0378	0.09
Mof_H 	H 	0.0762	0.3164	0.0176	-0.015
Mof_C 	C 	0.2572	0.2368	0.351	0.068
Mof_C 	C 	0.8186	0.5524	0.9954	0.092
Mof_C 	C 	0.7803	0.6529	0.11	0.061
Mof_H 	H 	0.7998	0.6576	0.1501	-0.025
Mof_C 	C 	0.9672	0.4274	0.0353	0.069
Mof_C 	C 	0.265	0.1209	0.5277	0.074
Mof_C 	C 	0.8214	0.4558	0.821	-0.142
Mof_H 	H 	0.8654	0.4379	0.8413	0.083
Mof_C 	C 	0.2906	0.2257	0.4147	0.099
Mof_C 	C 	0.788	0.492	0.8501	0.059
Mof_C 	C 	0.7858	0.601	0.0245	0.055
Mof_C 	C 	0.4747	0.3337	0.503	-0.158
Mof_H 	H 	0.4579	0.3288	0.463	0.079
Mof_C 	C 	0.2644	0.0647	0.613	0.091
Mof_H 	H 	0.2856	0.0584	0.6529	-0.013
Mof_C 	C 	0.2961	0.109	0.5865	-0.142
Mof_H 	H 	0.3384	0.1309	0.6082	0.087
Mof_C 	C 	0.2955	0.1717	0.4975	0.102
Mof_C 	C 	0.8201	0.5021	0.9143	0.096
Mof_C 	C 	0.6938	0.6806	0.0222	0.08
Mof_H 	H 	0.6528	0.7055	0.0008	-0.014
Mof_C 	C 	0.8145	0.61	0.0836	-0.133
Mof_H 	H 	0.8564	0.5877	0.1059	0.077
Mof_C 	C 	0.1753	0.0414	0.5273	0.1
Mof_H 	H 	0.1328	0.0191	0.507	-0.018
Mof_C 	C 	0.5327	0.3731	0.5329	0.087
Mof_H 	H 	0.5546	0.3959	0.5123	-0.026
Mof_C 	C 	0.5274	0.3515	0.6186	0.076
Mof_H 	H 	0.5451	0.3586	0.6585	-0.022
Mof_C 	C 	0.6939	0.5051	0.7597	0.082
Mof_H 	H 	0.6501	0.523	0.7387	-0.027
Mof_C 	C 	0.9989	0.4289	0.0951	-0.143
Mof_H 	H 	0.9817	0.4591	0.1164	0.081
Mof_C 	C 	0.7892	0.4465	0.7622	0.08
Mof_H 	H 	0.8125	0.4228	0.743	-0.015
Mof_C 	C 	0.2543	0.2938	0.2652	0.089
Mof_H 	H 	0.2729	0.329	0.2477	-0.025
Mof_C 	C 	0.2855	0.2868	0.3236	-0.151
Mof_H 	H 	0.3249	0.3148	0.345	0.075
Mof_C 	C 	0.7225	0.5163	0.8184	-0.151
Mof_H 	H 	0.6981	0.5398	0.8366	0.075
Mof_C 	C 	0.0564	0.3846	0.1222	0.088
Mof_H 	H 	0.0754	0.3824	0.1624	-0.009
Mof_C 	C 	0.1978	0.1996	0.3174	-0.151
Mof_H 	H 	0.1751	0.1688	0.3339	0.086
Mof_C 	C 	0.1725	0.2097	0.2577	0.094
Mof_H 	H 	0.1332	0.1824	0.2348	-0.024
Mof_N 	N 	0.5605	0.3815	0.5898	-0.216
Mof_N 	N 	0.2048	0.0305	0.584	-0.196
Mof_N 	N 	0.1999	0.2547	0.2313	-0.206
Mof_N 	N 	0.348	0.2655	0.4431	-0.142
Mof_N 	N 	0.3525	0.2096	0.5296	-0.138
Mof_N 	N 	0.2627	0.1771	0.4395	-0.137
Mof_N 	N 	0.0872	0.3443	0.0949	-0.191
Mof_N 	N 	0.7205	0.6875	0.0795	-0.209
Mof_N 	N 	0.7247	0.4703	0.7307	-0.199
Mof_N 	N 	0.8775	0.4628	0.9437	-0.138
Mof_N 	N 	0.8752	0.5131	0.0293	-0.142
Mof_N 	N 	0.7897	0.5492	0.9376	-0.15
Mof_Ag	Ag	0.84424	0.95633	0.86665	0.522
Mof_Ag	Ag	0.32144	0.75688	0.36622	0.536
Mof_C 	C 	0.5975	0.9718	0.4986	0.101
Mof_C 	C 	0.7763	0.1383	0.5073	-0.137
Mof_H 	H 	0.797	0.1346	0.5475	0.074
Mof_C 	C 	0.0596	0.8003	0.9674	0.065
Mof_C 	C 	0.2975	0.5828	0.0033	-0.148
Mof_H 	H 	0.3193	0.5859	0.0434	0.089
Mof_C 	C 	0.123	0.7555	0.9998	0.098
Mof_C 	C 	0.0326	0.8098	0.9088	-0.146
Mof_H 	H 	0.0541	0.7886	0.8874	0.082
Mof_C 	C 	0.503	0.8853	0.494	-0.141
Mof_H 	H 	0.5224	0.884	0.5343	0.088
Mof_C 	C 	0.4434	0.8449	0.4622	0.093
Mof_H 	H 	0.4238	0.8164	0.4824	-0.016
Mof_C 	C 	0.2428	0.7368	0.149	0.068
Mof_C 	C 	0.6814	0.0524	0.5046	0.094
Mof_C 	C 	0.7197	0.1529	0.39	0.061
Mof_H 	H 	0.7002	0.1576	0.3499	-0.025
Mof_C 	C 	0.5328	0.9274	0.4647	0.071
Mof_C 	C 	0.235	0.6209	0.9723	0.077
Mof_C 	C 	0.6786	0.9558	0.679	-0.142
Mof_H 	H 	0.6346	0.9379	0.6587	0.083
Mof_C 	C 	0.2094	0.7257	0.0853	0.099
Mof_C 	C 	0.712	0.992	0.6499	0.06
Mof_C 	C 	0.7142	0.101	0.4755	0.053
Mof_C 	C 	0.0253	0.8337	0.997	-0.152
Mof_H 	H 	0.0421	0.8288	0.037	0.077
Mof_C 	C 	0.2356	0.5647	0.887	0.092
Mof_H 	H 	0.2144	0.5584	0.8471	-0.013
Mof_C 	C 	0.2039	0.609	0.9135	-0.144
Mof_H 	H 	0.1616	0.6309	0.8918	0.087
Mof_C 	C 	0.2045	0.6717	0.0025	0.1
Mof_C 	C 	0.6799	0.0021	0.5857	0.096
Mof_C 	C 	0.8062	0.1806	0.4778	0.078
Mof_H 	H 	0.8472	0.2055	0.4992	-0.013
Mof_C 	C 	0.6855	0.11	0.4164	-0.131
Mof_H 	H 	0.6436	0.0877	0.3941	0.076
Mof_C 	C 	0.3247	0.5414	0.9727	0.102
Mof_H 	H 	0.3672	0.5191	0.993	-0.019
Mof_C 	C 	0.9673	0.8731	0.9671	0.084
Mof_H 	H 	0.9454	0.8959	0.9877	-0.025
Mof_C 	C 	0.9726	0.8515	0.8814	0.073
Mof_H 	H 	0.9549	0.8586	0.8415	-0.021
Mof_C 	C 	0.8061	0.0051	0.7403	0.082
Mof_H 	H 	0.8499	0.023	0.7613	-0.027
Mof_C 	C 	0.5011	0.9289	0.4049	-0.146
Mof_H 	H 	0.5183	0.9591	0.3836	0.082
Mof_C 	C 	0.7108	0.9465	0.7378	0.08
Mof_H 	H 	0.6875	0.9228	0.757	-0.015
Mof_C 	C 	0.2457	0.7938	0.2348	0.089
Mof_H 	H 	0.2271	0.829	0.2523	-0.025
Mof_C 	C 	0.2145	0.7868	0.1764	-0.151
Mof_H 	H 	0.1751	0.8148	0.155	0.075
Mof_C 	C 	0.7775	0.0163	0.6816	-0.151
Mof_H 	H 	0.8019	0.0398	0.6634	0.075
Mof_C 	C 	0.4436	0.8846	0.3778	0.091
Mof_H 	H 	0.4246	0.8824	0.3376	-0.01
Mof_C 	C 	0.3022	0.6996	0.1826	-0.151
Mof_H 	H 	0.3249	0.6688	0.1661	0.086
Mof_C 	C 	0.3275	0.7097	0.2423	0.095
Mof_H 	H 	0.3668	0.6824	0.2652	-0.024
Mof_N 	N 	0.9395	0.8815	0.9102	-0.215
Mof_N 	N 	0.2952	0.5305	0.916	-0.197
Mof_N 	N 	0.3001	0.7547	0.2687	-0.206
Mof_N 	N 	0.152	0.7655	0.0569	-0.142
Mof_N 	N 	0.1475	0.7096	0.9704	-0.138
Mof_N 	N 	0.2373	0.6771	0.0605	-0.136
Mof_N 	N 	0.4128	0.8443	0.4051	-0.192
Mof_N 	N 	0.7795	0.1875	0.4205	-0.208
Mof_N 	N 	0.7753	0.9703	0.7693	-0.199
Mof_N 	N 	0.6225	0.9628	0.5563	-0.138
Mof_N 	N 	0.6248	0.0131	0.4707	-0.142
Mof_N 	N 	0.7103	0.0492	0.5624	-0.15
Mof_Ag	Ag	0.34424	0.45633	0.86665	0.522
Mof_Ag	Ag	0.82144	0.25688	0.36622	0.536
Mof_C 	C 	0.0975	0.4718	0.4986	0.101
Mof_C 	C 	0.2763	0.6383	0.5073	-0.137
Mof_H 	H 	0.297	0.6346	0.5475	0.074
Mof_C 	C 	0.5596	0.3003	0.9674	0.068
Mof_C 	C 	0.7975	0.0828	0.0033	-0.142
Mof_H 	H 	0.8193	0.0859	0.0434	0.087
Mof_C 	C 	0.623	0.2555	0.9998	0.096
Mof_C 	C 	0.5326	0.3098	0.9088	-0.15
Mof_H 	H 	0.5541	0.2886	0.8874	0.084
Mof_C 	C 	0.003	0.3853	0.494	-0.141
Mof_H 	H 	0.0224	0.384	0.5343	0.088
Mof_C 	C 	0.9434	0.3449	0.4622	0.093
Mof_H 	H 	0.9238	0.3164	0.4824	-0.016
Mof_C 	C 	0.7428	0.2368	0.149	0.068
Mof_C 	C 	0.1814	0.5524	0.5046	0.094
Mof_C 	C 	0.2197	0.6529	0.39	0.061
Mof_H 	H 	0.2002	0.6576	0.3499	-0.025
Mof_C 	C 	0.0328	0.4274	0.4647	0.072
Mof_C 	C 	0.735	0.1209	0.9723	0.072
Mof_C 	C 	0.1786	0.4558	0.679	-0.142
Mof_H 	H 	0.1346	0.4379	0.6587	0.083
Mof_C 	C 	0.7094	0.2257	0.0853	0.099
Mof_C 	C 	0.212	0.492	0.6499	0.059
Mof_C 	C 	0.2142	0.601	0.4755	0.053
Mof_C 	C 	0.5253	0.3337	0.997	-0.159
Mof_H 	H 	0.5421	0.3288	0.037	0.08
Mof_C 	C 	0.7356	0.0647	0.887	0.09
Mof_H 	H 	0.7144	0.0584	0.8471	-0.013
Mof_C 	C 	0.7039	0.109	0.9135	-0.141
Mof_H 	H 	0.6616	0.1309	0.8918	0.086
Mof_C 	C 	0.7045	0.1717	0.0025	0.103
Mof_C 	C 	0.1799	0.5021	0.5857	0.096
Mof_C 	C 	0.3062	0.6806	0.4778	0.078
Mof_H 	H 	0.3472	0.7055	0.4992	-0.013
Mof_C 	C 	0.1855	0.61	0.4164	-0.131
Mof_H 	H 	0.1436	0.5877	0.3941	0.076
Mof_C 	C 	0.8247	0.0414	0.9727	0.098
Mof_H 	H 	0.8672	0.0191	0.993	-0.018
Mof_C 	C 	0.4673	0.3731	0.9671	0.088
Mof_H 	H 	0.4454	0.3959	0.9877	-0.026
Mof_C 	C 	0.4726	0.3515	0.8814	0.076
Mof_H 	H 	0.4549	0.3586	0.8415	-0.022
Mof_C 	C 	0.3061	0.5051	0.7403	0.082
Mof_H 	H 	0.3499	0.523	0.7613	-0.027
Mof_C 	C 	0.0011	0.4289	0.4049	-0.147
Mof_H 	H 	0.0183	0.4591	0.3836	0.082
Mof_C 	C 	0.2108	0.4465	0.7378	0.08
Mof_H 	H 	0.1875	0.4228	0.757	-0.015
Mof_C 	C 	0.7457	0.2938	0.2348	0.089
Mof_H 	H 	0.7271	0.329	0.2523	-0.025
Mof_C 	C 	0.7145	0.2868	0.1764	-0.151
Mof_H 	H 	0.6751	0.3148	0.155	0.075
Mof_C 	C 	0.2775	0.5163	0.6816	-0.151
Mof_H 	H 	0.3019	0.5398	0.6634	0.075
Mof_C 	C 	0.9436	0.3846	0.3778	0.091
Mof_H 	H 	0.9246	0.3824	0.3376	-0.01
Mof_C 	C 	0.8022	0.1996	0.1826	-0.151
Mof_H 	H 	0.8249	0.1688	0.1661	0.086
Mof_C 	C 	0.8275	0.2097	0.2423	0.095
Mof_H 	H 	0.8668	0.1824	0.2652	-0.024
Mof_N 	N 	0.4395	0.3815	0.9102	-0.216
Mof_N 	N 	0.7952	0.0305	0.916	-0.196
Mof_N 	N 	0.8001	0.2547	0.2687	-0.206
Mof_N 	N 	0.652	0.2655	0.0569	-0.142
Mof_N 	N 	0.6475	0.2096	0.9704	-0.138
Mof_N 	N 	0.7373	0.1771	0.0605	-0.137
Mof_N 	N 	0.9128	0.3443	0.4051	-0.192
Mof_N 	N 	0.2795	0.6875	0.4205	-0.208
Mof_N 	N 	0.2753	0.4703	0.7693	-0.199
Mof_N 	N 	0.1225	0.4628	0.5563	-0.138
Mof_N 	N 	0.1248	0.5131	0.4707	-0.142
Mof_N 	N 	0.2103	0.5492	0.5624	-0.15
_end
