data_functionalizedCrystal
_audit_creation_method	'EQeq! by Chris Wilmer'
_symmetry_space_group_name_H-M	'P1'
_symmetry_Int_Tables_number	1
_symmetry_cell_setting	triclinic
loop_
_symmetry_equiv_pos_as_xyz
  x,y,z
_cell_length_a	9.691
_cell_length_b	14.157
_cell_length_c	16.055
_cell_angle_alpha	107.408
_cell_angle_beta	99.937
_cell_angle_gamma	104.264
loop_
_atom_site_label
_atom_site_type_symbol
_atom_site_fract_x
_atom_site_fract_y
_atom_site_fract_z
_atom_site_charge
Mof_Zn	Zn	0.808	0.90897	0.93976	1.219
Mof_S 	S 	0.9887	0.48582	0.70239	0.488
Mof_O 	O 	0.9487	0.8558	0.8765	-0.485
Mof_O 	O 	0.1745	0.9556	0.9644	-0.491
Mof_O 	O 	0.5975	0.835	0.9166	-0.45
Mof_O 	O 	0.5707	0.7076	0.7887	-0.286
Mof_O 	O 	0.0761	0.4171	0.6937	-0.265
Mof_O 	O 	0.8792	0.4626	0.7506	-0.263
Mof_O 	O 	0.9247	0.4946	0.6175	-0.236
Mof_N 	N 	0.9563	0.7586	0.1152	-0.092
Mof_N 	N 	0.9134	0.8274	0.1745	-0.098
Mof_N 	N 	0.8731	0.8466	0.0401	-0.251
Mof_N 	N 	0.7373	0.012	0.718	-0.092
Mof_N 	N 	0.6577	0.0616	0.766	-0.099
Mof_N 	N 	0.7589	0.9744	0.8398	-0.242
Mof_C 	C 	0.0125	0.5922	0.0673	-0.074
Mof_C 	C 	0.1315	0.5848	0.0324	0.103
Mof_C 	C 	0.1186	0.4896	0.965	0.122
Mof_C 	C 	0.0266	0.6897	0.1453	-0.062
Mof_H 	H 	0.9814	0.6695	0.1894	0.069
Mof_H 	H 	0.1304	0.7274	0.1748	0.059
Mof_C 	C 	0.2721	0.677	0.0631	-0.598
Mof_H 	H 	0.3275	0.6855	0.122	0.21
Mof_H 	H 	0.2471	0.7392	0.0659	0.216
Mof_H 	H 	0.3305	0.6646	0.0209	0.202
Mof_C 	C 	0.2516	0.4781	0.9308	-0.619
Mof_H 	H 	0.2987	0.5405	0.9211	0.209
Mof_H 	H 	0.2206	0.4197	0.8748	0.23
Mof_H 	H 	0.3199	0.4668	0.9748	0.211
Mof_C 	C 	0.8642	0.8777	0.1258	0.094
Mof_H 	H 	0.826	0.9311	0.149	0.001
Mof_C 	C 	0.9336	0.7718	0.0369	0.097
Mof_H 	H 	0.9568	0.7337	0.9862	-0.003
Mof_C 	C 	0.6231	0.0132	0.5668	-0.083
Mof_C 	C 	0.5271	0.9129	0.5143	0.113
Mof_C 	C 	0.4047	0.8994	0.4458	0.114
Mof_C 	C 	0.7623	0.0256	0.634	-0.034
Mof_H 	H 	0.8075	0.975	0.6057	0.04
Mof_H 	H 	0.8313	0.0946	0.6491	0.045
Mof_C 	C 	0.5523	0.818	0.5312	-0.628
Mof_H 	H 	0.5001	0.8026	0.5737	0.229
Mof_H 	H 	0.656	0.8318	0.5554	0.227
Mof_H 	H 	0.5168	0.7593	0.4752	0.219
Mof_C 	C 	0.308	0.7895	0.3858	-0.636
Mof_H 	H 	0.3557	0.7605	0.3414	0.226
Mof_H 	H 	0.2145	0.7913	0.3558	0.234
Mof_H 	H 	0.2925	0.747	0.4222	0.231
Mof_C 	C 	0.6727	0.036	0.8375	0.099
Mof_H 	H 	0.628	0.0582	0.8833	-0.002
Mof_C 	C 	0.7961	0.9613	0.7629	0.097
Mof_H 	H 	0.8558	0.9217	0.7432	0.003
Mof_C 	C 	0.1473	0.7905	0.8592	-0.15
Mof_C 	C 	0.2986	0.8114	0.872	0.07
Mof_H 	H 	0.3621	0.8779	0.9079	0.03
Mof_C 	C 	0.3559	0.7347	0.8321	-0.127
Mof_C 	C 	0.2616	0.635	0.7796	0.049
Mof_H 	H 	0.2992	0.583	0.7518	0.037
Mof_C 	C 	0.1114	0.6137	0.769	-0.109
Mof_C 	C 	0.0537	0.6911	0.8068	0.072
Mof_H 	H 	0.952	0.6764	0.797	0.034
Mof_C 	C 	0.0859	0.8744	0.9036	0.422
Mof_C 	C 	0.5208	0.7594	0.8454	0.353
Mof_Zn	Zn	0.192	0.09103	0.06024	1.22
Mof_S 	S 	0.0113	0.51418	0.29761	0.489
Mof_O 	O 	0.0513	0.1442	0.1235	-0.485
Mof_O 	O 	0.8255	0.0444	0.0356	-0.491
Mof_O 	O 	0.4025	0.165	0.0834	-0.45
Mof_O 	O 	0.4293	0.2924	0.2113	-0.286
Mof_O 	O 	0.9239	0.5829	0.3063	-0.265
Mof_O 	O 	0.1208	0.5374	0.2494	-0.263
Mof_O 	O 	0.0753	0.5054	0.3825	-0.236
Mof_N 	N 	0.0437	0.2414	0.8848	-0.092
Mof_N 	N 	0.0866	0.1726	0.8255	-0.098
Mof_N 	N 	0.1269	0.1534	0.9599	-0.251
Mof_N 	N 	0.2627	0.988	0.282	-0.092
Mof_N 	N 	0.3423	0.9384	0.234	-0.099
Mof_N 	N 	0.2411	0.0256	0.1602	-0.242
Mof_C 	C 	0.9875	0.4078	0.9327	-0.074
Mof_C 	C 	0.8685	0.4152	0.9676	0.103
Mof_C 	C 	0.8814	0.5104	0.035	0.122
Mof_C 	C 	0.9734	0.3103	0.8547	-0.062
Mof_H 	H 	0.0186	0.3305	0.8106	0.069
Mof_H 	H 	0.8696	0.2726	0.8252	0.059
Mof_C 	C 	0.7279	0.323	0.9369	-0.598
Mof_H 	H 	0.6725	0.3145	0.878	0.21
Mof_H 	H 	0.7529	0.2608	0.9341	0.216
Mof_H 	H 	0.6695	0.3354	0.9791	0.202
Mof_C 	C 	0.7484	0.5219	0.0692	-0.619
Mof_H 	H 	0.7013	0.4595	0.0789	0.209
Mof_H 	H 	0.7794	0.5803	0.1252	0.23
Mof_H 	H 	0.6801	0.5332	0.0252	0.211
Mof_C 	C 	0.1358	0.1223	0.8742	0.094
Mof_H 	H 	0.174	0.0689	0.851	0.001
Mof_C 	C 	0.0664	0.2282	0.9631	0.097
Mof_H 	H 	0.0432	0.2663	0.0138	-0.003
Mof_C 	C 	0.3769	0.9868	0.4332	-0.083
Mof_C 	C 	0.4729	0.0871	0.4857	0.113
Mof_C 	C 	0.5953	0.1006	0.5542	0.114
Mof_C 	C 	0.2377	0.9744	0.366	-0.034
Mof_H 	H 	0.1925	0.025	0.3943	0.04
Mof_H 	H 	0.1687	0.9054	0.3509	0.045
Mof_C 	C 	0.4477	0.182	0.4688	-0.628
Mof_H 	H 	0.4999	0.1974	0.4263	0.229
Mof_H 	H 	0.344	0.1682	0.4446	0.227
Mof_H 	H 	0.4832	0.2407	0.5248	0.219
Mof_C 	C 	0.692	0.2105	0.6142	-0.636
Mof_H 	H 	0.6443	0.2395	0.6586	0.226
Mof_H 	H 	0.7855	0.2087	0.6442	0.234
Mof_H 	H 	0.7075	0.253	0.5778	0.231
Mof_C 	C 	0.3273	0.964	0.1625	0.099
Mof_H 	H 	0.372	0.9418	0.1167	-0.002
Mof_C 	C 	0.2039	0.0387	0.2371	0.097
Mof_H 	H 	0.1442	0.0783	0.2568	0.003
Mof_C 	C 	0.8527	0.2095	0.1408	-0.15
Mof_C 	C 	0.7014	0.1886	0.128	0.07
Mof_H 	H 	0.6379	0.1221	0.0921	0.03
Mof_C 	C 	0.6441	0.2653	0.1679	-0.127
Mof_C 	C 	0.7384	0.365	0.2204	0.049
Mof_H 	H 	0.7008	0.417	0.2482	0.037
Mof_C 	C 	0.8886	0.3863	0.231	-0.109
Mof_C 	C 	0.9463	0.3089	0.1932	0.072
Mof_H 	H 	0.048	0.3236	0.203	0.034
Mof_C 	C 	0.9141	0.1256	0.0964	0.422
Mof_C 	C 	0.4792	0.2406	0.1546	0.353
_end
