data_functionalizedCrystal
_audit_creation_method	'EQeq! by Chris Wilmer'
_symmetry_space_group_name_H-M	'P1'
_symmetry_Int_Tables_number	1
_symmetry_cell_setting	triclinic
loop_
_symmetry_equiv_pos_as_xyz
  x,y,z
_cell_length_a	13.209
_cell_length_b	13.926
_cell_length_c	12.243
_cell_angle_alpha	90
_cell_angle_beta	90
_cell_angle_gamma	90
loop_
_atom_site_label
_atom_site_type_symbol
_atom_site_fract_x
_atom_site_fract_y
_atom_site_fract_z
_atom_site_charge
Mof_C 	C 	0.4006	0.0734	0.1573	0.293
Mof_C 	C 	0.4769	0.1247	0.09	-0.157
Mof_H 	H 	0.5163	0.0899	0.041	0.098
Mof_C 	C 	0.4903	0.2178	0.0978	-0.049
Mof_H 	H 	0.452	0.2495	0.1503	0.074
Mof_C 	C 	0.5592	0.277	0.0326	0.122
Mof_C 	C 	0.6237	0.2414	0.9529	-0.177
Mof_H 	H 	0.6274	0.1757	0.9399	0.115
Mof_C 	C 	0.6821	0.3041	0.8932	0.106
Mof_H 	H 	0.7255	0.2788	0.8407	0.018
Mof_C 	C 	0.6225	0.4332	0.9877	0.105
Mof_H 	H 	0.6235	0.4988	0.0018	-0
Mof_C 	C 	0.5623	0.3755	0.0511	-0.178
Mof_H 	H 	0.5234	0.4023	0.1066	0.101
Mof_N 	N 	0.68	0.39918	0.9066	-0.163
Mof_O 	O 	0.3546	0.11981	0.23	-0.284
Mof_O 	O 	0.3821	0.98755	0.1391	-0.245
Mof_C 	C 	0.0994	0.9266	0.1573	0.394
Mof_C 	C 	0.0231	0.8753	0.09	-0.199
Mof_H 	H 	0.9837	0.9101	0.041	0.125
Mof_C 	C 	0.0097	0.7822	0.0978	-0.008
Mof_H 	H 	0.048	0.7505	0.1503	0.061
Mof_C 	C 	0.9408	0.723	0.0326	0.101
Mof_C 	C 	0.8763	0.7586	0.9529	-0.16
Mof_H 	H 	0.8726	0.8243	0.9399	0.112
Mof_C 	C 	0.8179	0.6959	0.8932	0.099
Mof_H 	H 	0.7745	0.7212	0.8407	0.022
Mof_C 	C 	0.8775	0.5668	0.9877	0.102
Mof_H 	H 	0.8765	0.5012	0.0018	-0.001
Mof_C 	C 	0.9377	0.6245	0.0511	-0.166
Mof_H 	H 	0.9766	0.5977	0.1066	0.096
Mof_N 	N 	0.82	0.60082	0.9066	-0.161
Mof_O 	O 	0.1454	0.88019	0.23	-0.295
Mof_O 	O 	0.1179	0.01245	0.1391	-0.324
Mof_C 	C 	0.9006	0.4266	0.6573	0.347
Mof_C 	C 	0.9769	0.3753	0.59	-0.186
Mof_H 	H 	0.0163	0.4101	0.541	0.117
Mof_C 	C 	0.9903	0.2822	0.5978	-0.03
Mof_H 	H 	0.952	0.2505	0.6503	0.066
Mof_C 	C 	0.0592	0.223	0.5326	0.113
Mof_C 	C 	0.1237	0.2586	0.4529	-0.172
Mof_H 	H 	0.1274	0.3243	0.4399	0.114
Mof_C 	C 	0.1821	0.1959	0.3932	0.101
Mof_H 	H 	0.2255	0.2212	0.3407	0.019
Mof_C 	C 	0.1225	0.0668	0.4877	0.098
Mof_H 	H 	0.1235	0.0012	0.5018	-0.01
Mof_C 	C 	0.0623	0.1245	0.5511	-0.174
Mof_H 	H 	0.0234	0.0977	0.6066	0.094
Mof_N 	N 	0.18	0.10082	0.4066	-0.164
Mof_O 	O 	0.8546	0.38019	0.73	-0.296
Mof_O 	O 	0.8821	0.51245	0.6391	-0.29
Mof_C 	C 	0.5994	0.5734	0.6573	0.346
Mof_C 	C 	0.5231	0.6247	0.59	-0.182
Mof_H 	H 	0.4837	0.5899	0.541	0.115
Mof_C 	C 	0.5097	0.7178	0.5978	-0.028
Mof_H 	H 	0.548	0.7495	0.6503	0.069
Mof_C 	C 	0.4408	0.777	0.5326	0.115
Mof_C 	C 	0.3763	0.7414	0.4529	-0.169
Mof_H 	H 	0.3726	0.6757	0.4399	0.114
Mof_C 	C 	0.3179	0.8041	0.3932	0.104
Mof_H 	H 	0.2745	0.7788	0.3407	0.022
Mof_C 	C 	0.3775	0.9332	0.4877	0.104
Mof_H 	H 	0.3765	0.9988	0.5018	0.016
Mof_C 	C 	0.4377	0.8755	0.5511	-0.166
Mof_H 	H 	0.4766	0.9023	0.6066	0.105
Mof_N 	N 	0.32	0.89918	0.4066	-0.152
Mof_O 	O 	0.6454	0.61981	0.73	-0.294
Mof_O 	O 	0.6179	0.48755	0.6391	-0.289
Mof_Cd	Cd	0.25	-2.80225e-33	0.27918	0.407
Mof_Cd	Cd	0.75	0.5	0.77918	0.44
Mof_C 	C 	0.0994	0.5734	0.3427	0.345
Mof_C 	C 	0.0231	0.6247	0.41	-0.178
Mof_H 	H 	0.9837	0.5899	0.459	0.112
Mof_C 	C 	0.0097	0.7178	0.4022	-0.026
Mof_H 	H 	0.048	0.7495	0.3497	0.068
Mof_C 	C 	0.9408	0.777	0.4674	0.111
Mof_C 	C 	0.8763	0.7414	0.5471	-0.167
Mof_H 	H 	0.8726	0.6757	0.5601	0.113
Mof_C 	C 	0.8179	0.8041	0.6068	0.103
Mof_H 	H 	0.7745	0.7788	0.6593	0.022
Mof_C 	C 	0.8775	0.9332	0.5123	0.103
Mof_H 	H 	0.8765	0.9988	0.4982	0.015
Mof_C 	C 	0.9377	0.8755	0.4489	-0.165
Mof_H 	H 	0.9766	0.9023	0.3934	0.103
Mof_N 	N 	0.82	0.89918	0.5934	-0.152
Mof_O 	O 	0.1454	0.61981	0.27	-0.294
Mof_O 	O 	0.1179	0.48755	0.3609	-0.289
Mof_C 	C 	0.4006	0.4266	0.3427	0.346
Mof_C 	C 	0.4769	0.3753	0.41	-0.183
Mof_H 	H 	0.5163	0.4101	0.459	0.115
Mof_C 	C 	0.4903	0.2822	0.4022	-0.029
Mof_H 	H 	0.452	0.2505	0.3497	0.066
Mof_C 	C 	0.5592	0.223	0.4674	0.111
Mof_C 	C 	0.6237	0.2586	0.5471	-0.171
Mof_H 	H 	0.6274	0.3243	0.5601	0.113
Mof_C 	C 	0.6821	0.1959	0.6068	0.101
Mof_H 	H 	0.7255	0.2212	0.6593	0.02
Mof_C 	C 	0.6225	0.0668	0.5123	0.097
Mof_H 	H 	0.6235	0.0012	0.4982	-0.01
Mof_C 	C 	0.5623	0.1245	0.4489	-0.173
Mof_H 	H 	0.5234	0.0977	0.3934	0.093
Mof_N 	N 	0.68	0.10082	0.5934	-0.164
Mof_O 	O 	0.3546	0.38019	0.27	-0.295
Mof_O 	O 	0.3821	0.51245	0.3609	-0.289
Mof_C 	C 	0.5994	0.9266	0.8427	0.395
Mof_C 	C 	0.5231	0.8753	0.91	-0.206
Mof_H 	H 	0.4837	0.9101	0.959	0.131
Mof_C 	C 	0.5097	0.7822	0.9022	-0.011
Mof_H 	H 	0.548	0.7505	0.8497	0.061
Mof_C 	C 	0.4408	0.723	0.9674	0.105
Mof_C 	C 	0.3763	0.7586	0.0471	-0.164
Mof_H 	H 	0.3726	0.8243	0.0601	0.114
Mof_C 	C 	0.3179	0.6959	0.1068	0.101
Mof_H 	H 	0.2745	0.7212	0.1593	0.022
Mof_C 	C 	0.3775	0.5668	0.0123	0.1
Mof_H 	H 	0.3765	0.5012	0.9982	0.001
Mof_C 	C 	0.4377	0.6245	0.9489	-0.166
Mof_H 	H 	0.4766	0.5977	0.8934	0.097
Mof_N 	N 	0.32	0.60082	0.0934	-0.161
Mof_O 	O 	0.6454	0.88019	0.77	-0.296
Mof_O 	O 	0.6179	0.01245	0.8609	-0.325
Mof_C 	C 	0.9006	0.0734	0.8427	0.295
Mof_C 	C 	0.9769	0.1247	0.91	-0.157
Mof_H 	H 	0.0163	0.0899	0.959	0.098
Mof_C 	C 	0.9903	0.2178	0.9022	-0.049
Mof_H 	H 	0.952	0.2495	0.8497	0.074
Mof_C 	C 	0.0592	0.277	0.9674	0.122
Mof_C 	C 	0.1237	0.2414	0.0471	-0.176
Mof_H 	H 	0.1274	0.1757	0.0601	0.115
Mof_C 	C 	0.1821	0.3041	0.1068	0.106
Mof_H 	H 	0.2255	0.2788	0.1593	0.018
Mof_C 	C 	0.1225	0.4332	0.0123	0.11
Mof_H 	H 	0.1235	0.4988	0.9982	-0.002
Mof_C 	C 	0.0623	0.3755	0.9489	-0.18
Mof_H 	H 	0.0234	0.4023	0.8934	0.103
Mof_N 	N 	0.18	0.39918	0.0934	-0.164
Mof_O 	O 	0.8546	0.11981	0.77	-0.285
Mof_O 	O 	0.8821	0.98755	0.8609	-0.246
Mof_Cd	Cd	0.25	0.5	0.22082	0.44
Mof_Cd	Cd	0.75	5.60449e-33	0.72082	0.407
_end
