data_functionalizedCrystal
_audit_creation_method	'EQeq! by Chris Wilmer'
_symmetry_space_group_name_H-M	'P1'
_symmetry_Int_Tables_number	1
_symmetry_cell_setting	triclinic
loop_
_symmetry_equiv_pos_as_xyz
  x,y,z
_cell_length_a	13.5104
_cell_length_b	14.1107
_cell_length_c	8.8
_cell_angle_alpha	90
_cell_angle_beta	114.617
_cell_angle_gamma	90
loop_
_atom_site_label
_atom_site_type_symbol
_atom_site_fract_x
_atom_site_fract_y
_atom_site_fract_z
_atom_site_charge
Mof_O 	O 	0.09186	0.57597	0.11542	-0.624
Mof_O 	O 	0.10515	0.52447	0.8854	-0.598
Mof_O 	O 	0.19328	0.62481	0.73495	-0.476
Mof_H 	H 	0.151	0.5845	0.7398	0.267
Mof_C 	C 	0.12247	0.5846	0.00145	0.514
Mof_C 	C 	0.18796	0.6699	0.99866	-0.251
Mof_C 	C 	0.21846	0.73508	0.12985	-0.047
Mof_H 	H 	0.1971	0.7253	0.2164	0.021
Mof_C 	C 	0.21985	0.68569	0.8672	0.251
Mof_O 	O 	0.59186	0.07597	0.11542	-0.547
Mof_O 	O 	0.60515	0.02447	0.8854	-0.524
Mof_O 	O 	0.69328	0.12481	0.73495	-0.441
Mof_H 	H 	0.651	0.0845	0.7398	0.284
Mof_C 	C 	0.62247	0.0846	0.00145	0.509
Mof_C 	C 	0.68796	0.1699	0.99866	-0.207
Mof_C 	C 	0.71846	0.23508	0.12985	-0.045
Mof_H 	H 	0.6971	0.2253	0.2164	0.053
Mof_C 	C 	0.71985	0.18569	0.8672	0.269
Mof_O 	O 	0.90814	0.57597	0.38458	-0.468
Mof_O 	O 	0.89485	0.52447	0.6146	-0.454
Mof_O 	O 	0.80672	0.62481	0.76505	-0.44
Mof_H 	H 	0.849	0.5845	0.7602	0.302
Mof_C 	C 	0.87753	0.5846	0.49855	0.486
Mof_C 	C 	0.81204	0.6699	0.50134	-0.16
Mof_C 	C 	0.78154	0.73508	0.37015	-0.08
Mof_H 	H 	0.8029	0.7253	0.2836	0.078
Mof_C 	C 	0.78015	0.68569	0.6328	0.249
Mof_O 	O 	0.40814	0.07597	0.38458	-0.555
Mof_O 	O 	0.39485	0.02447	0.6146	-0.532
Mof_O 	O 	0.30672	0.12481	0.76505	-0.472
Mof_H 	H 	0.349	0.0845	0.7602	0.284
Mof_C 	C 	0.37753	0.0846	0.49855	0.484
Mof_C 	C 	0.31204	0.1699	0.50134	-0.196
Mof_C 	C 	0.28154	0.23508	0.37015	-0.091
Mof_H 	H 	0.3029	0.2253	0.2836	0.047
Mof_C 	C 	0.28015	0.18569	0.6328	0.226
Mof_O 	O 	0.90814	0.42403	0.88458	-0.465
Mof_O 	O 	0.89485	0.47553	0.1146	-0.439
Mof_O 	O 	0.80672	0.37519	0.26505	-0.43
Mof_H 	H 	0.849	0.4155	0.2602	0.3
Mof_C 	C 	0.87753	0.4154	0.99855	0.457
Mof_C 	C 	0.81204	0.3301	0.00134	-0.128
Mof_C 	C 	0.78154	0.26492	0.87015	-0.11
Mof_H 	H 	0.8029	0.2747	0.7836	0.086
Mof_C 	C 	0.78015	0.31431	0.1328	0.232
Mof_O 	O 	0.40814	0.92403	0.88458	-0.55
Mof_O 	O 	0.39485	0.97553	0.1146	-0.515
Mof_O 	O 	0.30672	0.87519	0.26505	-0.462
Mof_H 	H 	0.349	0.9155	0.2602	0.28
Mof_C 	C 	0.37753	0.9154	0.99855	0.447
Mof_C 	C 	0.31204	0.8301	0.00134	-0.152
Mof_C 	C 	0.28154	0.76492	0.87015	-0.133
Mof_H 	H 	0.3029	0.7747	0.7836	0.059
Mof_C 	C 	0.28015	0.81431	0.1328	0.201
Mof_O 	O 	0.09186	0.42403	0.61542	-0.618
Mof_O 	O 	0.10515	0.47553	0.3854	-0.585
Mof_O 	O 	0.19328	0.37519	0.23495	-0.466
Mof_H 	H 	0.151	0.4155	0.2398	0.264
Mof_C 	C 	0.12247	0.4154	0.50145	0.484
Mof_C 	C 	0.18796	0.3301	0.49866	-0.213
Mof_C 	C 	0.21846	0.26492	0.62985	-0.085
Mof_H 	H 	0.1971	0.2747	0.7164	0.032
Mof_C 	C 	0.21985	0.31431	0.3672	0.227
Mof_O 	O 	0.59186	0.92403	0.61542	-0.546
Mof_O 	O 	0.60515	0.97553	0.3854	-0.516
Mof_O 	O 	0.69328	0.87519	0.23495	-0.432
Mof_H 	H 	0.651	0.9155	0.2398	0.283
Mof_C 	C 	0.62247	0.9154	0.50145	0.493
Mof_C 	C 	0.68796	0.8301	0.49866	-0.181
Mof_C 	C 	0.71846	0.76492	0.62985	-0.071
Mof_H 	H 	0.6971	0.7747	0.7164	0.059
Mof_C 	C 	0.71985	0.81431	0.3672	0.253
Mof_Mg	Mg	9.31758e-18	0.57867	0.25	1.446
Mof_Mg	Mg	0.5	0.07867	0.25	1.466
Mof_Mg	Mg	3.72703e-17	0.42133	0.75	1.446
Mof_Mg	Mg	0.5	0.92133	0.75	1.466
_end
