data_functionalizedCrystal
_audit_creation_method	'EQeq! by Chris Wilmer'
_symmetry_space_group_name_H-M	'P1'
_symmetry_Int_Tables_number	1
_symmetry_cell_setting	triclinic
loop_
_symmetry_equiv_pos_as_xyz
  x,y,z
_cell_length_a	38.3513
_cell_length_b	38.3513
_cell_length_c	38.3513
_cell_angle_alpha	90
_cell_angle_beta	90
_cell_angle_gamma	90
loop_
_atom_site_label
_atom_site_type_symbol
_atom_site_fract_x
_atom_site_fract_y
_atom_site_fract_z
_atom_site_charge
Mof_Sm	Sm	0.25693	0.0889	0.24333	2.384
Mof_O 	O 	0.3424	0.03846	0.2193	-0.587
Mof_O 	O 	0.31849	0.08729	0.2378	-0.6
Mof_O 	O 	0.38257	0.19982	0.23898	-0.503
Mof_O 	O 	0.43899	0.1999	0.2328	-0.456
Mof_O 	O 	0.2005	0.06107	0.2512	-0.48
Mof_O 	O 	0.20025	0.11683	0.2435	-0.521
Mof_O 	O 	0.08739	0.18207	0.25522	-0.637
Mof_O 	O 	0.0537	0.1606	0.2962	-0.649
Mof_O 	O 	0.26763	0.02831	0.23015	-0.775
Mof_C 	C 	0.3439	0.07071	0.22634	0.522
Mof_C 	C 	0.3764	0.0919	0.2201	-0.061
Mof_C 	C 	0.3764	0.1267	0.23	0.022
Mof_H 	H 	0.3566	0.1365	0.2401	0.013
Mof_C 	C 	0.4059	0.1471	0.2247	-0.019
Mof_C 	C 	0.4354	0.1325	0.2096	-0.012
Mof_H 	H 	0.4552	0.1461	0.206	0.028
Mof_C 	C 	0.4354	0.0977	0.1997	-0.012
Mof_C 	C 	0.4059	0.0773	0.205	-0.022
Mof_H 	H 	0.4059	0.054	0.1984	-0.059
Mof_C 	C 	0.4107	0.18419	0.23271	0.332
Mof_C 	C 	0.4686	0.0857	0.1836	0.067
Mof_C 	C 	0.46857	0.062	0.1559	-0.068
Mof_H 	H 	0.4475	0.0541	0.1468	0.052
Mof_C 	C 	0.18474	0.08946	0.25104	0.37
Mof_C 	C 	0.14685	0.09121	0.26	-0.14
Mof_C 	C 	0.12791	0.1221	0.2594	0.112
Mof_H 	H 	0.1376	0.1421	0.2497	-0.008
Mof_C 	C 	0.09442	0.12313	0.2732	-0.227
Mof_C 	C 	0.07987	0.09326	0.2877	0.078
Mof_H 	H 	0.0575	0.0939	0.2969	0.013
Mof_C 	C 	0.0988	0.06237	0.2883	-0.077
Mof_C 	C 	0.1323	0.06134	0.2745	0.038
Mof_H 	H 	0.145	0.0407	0.275	0.042
Mof_C 	C 	0.07747	0.1581	0.2746	0.584
Mof_C 	C 	0.0817	0.03123	0.3029	0.115
Mof_C 	C 	0.0569	0.03153	0.3294	-0.158
Mof_H 	H 	0.0487	0.0526	0.3382	0.091
Mof_C 	C 	0.377	0.0923	0.22294	-0.07
Mof_C 	C 	0.3792	0.1279	0.22915	0.005
Mof_H 	H 	0.3594	0.1403	0.2359	0.008
Mof_C 	C 	0.4108	0.1451	0.22525	-0.052
Mof_C 	C 	0.4403	0.1266	0.2151	-0.001
Mof_H 	H 	0.4615	0.1381	0.2125	0.033
Mof_C 	C 	0.4382	0.091	0.2089	-0.007
Mof_C 	C 	0.4065	0.0738	0.21283	0.032
Mof_H 	H 	0.405	0.05	0.2087	0.092
Mof_C 	C 	0.46861	0.0707	0.1982	0.013
Mof_C 	C 	0.46857	0.042	0.1761	-0.054
Mof_H 	H 	0.4475	0.0324	0.1687	0.046
Mof_Sm	Sm	0.75693	0.5889	0.74333	2.386
Mof_O 	O 	0.8424	0.53846	0.7193	-0.589
Mof_O 	O 	0.81849	0.58729	0.7378	-0.601
Mof_O 	O 	0.88257	0.69982	0.73898	-0.504
Mof_O 	O 	0.93899	0.6999	0.7328	-0.454
Mof_O 	O 	0.7005	0.56107	0.7512	-0.48
Mof_O 	O 	0.70025	0.61683	0.7435	-0.522
Mof_O 	O 	0.58739	0.68207	0.75522	-0.638
Mof_O 	O 	0.5537	0.6606	0.7962	-0.653
Mof_O 	O 	0.76763	0.52831	0.73015	-0.782
Mof_C 	C 	0.8439	0.57071	0.72634	0.522
Mof_C 	C 	0.8764	0.5919	0.7201	-0.062
Mof_C 	C 	0.8764	0.6267	0.73	0.021
Mof_H 	H 	0.8566	0.6365	0.7401	0.012
Mof_C 	C 	0.9059	0.6471	0.7247	-0.019
Mof_C 	C 	0.9354	0.6325	0.7096	-0.013
Mof_H 	H 	0.9552	0.6461	0.706	0.025
Mof_C 	C 	0.9354	0.5977	0.6997	-0.017
Mof_C 	C 	0.9059	0.5773	0.705	-0.026
Mof_H 	H 	0.9059	0.554	0.6984	-0.069
Mof_C 	C 	0.9107	0.68419	0.73271	0.331
Mof_C 	C 	0.9686	0.5857	0.6836	0.051
Mof_C 	C 	0.96857	0.562	0.6559	-0.048
Mof_H 	H 	0.9475	0.5541	0.6468	0.047
Mof_C 	C 	0.68474	0.58946	0.75104	0.37
Mof_C 	C 	0.64685	0.59121	0.76	-0.141
Mof_C 	C 	0.62791	0.6221	0.7594	0.112
Mof_H 	H 	0.6376	0.6421	0.7497	-0.009
Mof_C 	C 	0.59442	0.62313	0.7732	-0.229
Mof_C 	C 	0.57987	0.59326	0.7877	0.079
Mof_H 	H 	0.5575	0.5939	0.7969	0.013
Mof_C 	C 	0.5988	0.56237	0.7883	-0.078
Mof_C 	C 	0.6323	0.56134	0.7745	0.039
Mof_H 	H 	0.645	0.5407	0.775	0.044
Mof_C 	C 	0.57747	0.6581	0.7746	0.586
Mof_C 	C 	0.5817	0.53123	0.8029	0.121
Mof_C 	C 	0.5569	0.53153	0.8294	-0.166
Mof_H 	H 	0.5487	0.5526	0.8382	0.096
Mof_C 	C 	0.877	0.5923	0.72294	-0.07
Mof_C 	C 	0.8792	0.6279	0.72915	0.006
Mof_H 	H 	0.8594	0.6403	0.7359	0.008
Mof_C 	C 	0.9108	0.6451	0.72525	-0.051
Mof_C 	C 	0.9403	0.6266	0.7151	0.001
Mof_H 	H 	0.9615	0.6381	0.7125	0.038
Mof_C 	C 	0.9382	0.591	0.7089	-0.002
Mof_C 	C 	0.9065	0.5738	0.71283	0.036
Mof_H 	H 	0.905	0.55	0.7087	0.101
Mof_C 	C 	0.96861	0.5707	0.6982	0.031
Mof_C 	C 	0.96857	0.542	0.6761	-0.05
Mof_H 	H 	0.9475	0.5324	0.6687	0.048
Mof_Sm	Sm	0.74307	0.9111	0.24333	2.385
Mof_O 	O 	0.6576	0.96154	0.2193	-0.582
Mof_O 	O 	0.68151	0.91271	0.2378	-0.6
Mof_O 	O 	0.61743	0.80018	0.23898	-0.504
Mof_O 	O 	0.56101	0.8001	0.2328	-0.457
Mof_O 	O 	0.7995	0.93893	0.2512	-0.477
Mof_O 	O 	0.79975	0.88317	0.2435	-0.521
Mof_O 	O 	0.91261	0.81793	0.25522	-0.636
Mof_O 	O 	0.9463	0.8394	0.2962	-0.645
Mof_O 	O 	0.73237	0.97169	0.23015	-0.768
Mof_C 	C 	0.6561	0.92929	0.22634	0.52
Mof_C 	C 	0.6236	0.9081	0.2201	-0.061
Mof_C 	C 	0.6236	0.8733	0.23	0.021
Mof_H 	H 	0.6434	0.8635	0.2401	0.012
Mof_C 	C 	0.5941	0.8529	0.2247	-0.02
Mof_C 	C 	0.5646	0.8675	0.2096	-0.013
Mof_H 	H 	0.5448	0.8539	0.206	0.028
Mof_C 	C 	0.5646	0.9023	0.1997	-0.022
Mof_C 	C 	0.5941	0.9227	0.205	-0.027
Mof_H 	H 	0.5941	0.946	0.1984	-0.063
Mof_C 	C 	0.5893	0.81581	0.23271	0.331
Mof_C 	C 	0.5314	0.9143	0.1836	0.029
Mof_C 	C 	0.53143	0.938	0.1559	-0.045
Mof_H 	H 	0.5525	0.9459	0.1468	0.045
Mof_C 	C 	0.81526	0.91054	0.25104	0.369
Mof_C 	C 	0.85315	0.90879	0.26	-0.138
Mof_C 	C 	0.87209	0.8779	0.2594	0.11
Mof_H 	H 	0.8624	0.8579	0.2497	-0.008
Mof_C 	C 	0.90558	0.87687	0.2732	-0.225
Mof_C 	C 	0.92013	0.90674	0.2877	0.076
Mof_H 	H 	0.9425	0.9061	0.2969	0.017
Mof_C 	C 	0.9012	0.93763	0.2883	-0.074
Mof_C 	C 	0.8677	0.93866	0.2745	0.037
Mof_H 	H 	0.855	0.9593	0.275	0.047
Mof_C 	C 	0.92253	0.8419	0.2746	0.583
Mof_C 	C 	0.9183	0.96877	0.3029	0.123
Mof_C 	C 	0.9431	0.96847	0.3294	-0.146
Mof_H 	H 	0.9513	0.9474	0.3382	0.092
Mof_C 	C 	0.623	0.9077	0.22294	-0.069
Mof_C 	C 	0.6208	0.8721	0.22915	0.005
Mof_H 	H 	0.6406	0.8597	0.2359	0.008
Mof_C 	C 	0.5892	0.8549	0.22525	-0.051
Mof_C 	C 	0.5597	0.8734	0.2151	0
Mof_H 	H 	0.5385	0.8619	0.2125	0.032
Mof_C 	C 	0.5618	0.909	0.2089	0.005
Mof_C 	C 	0.5935	0.9262	0.21283	0.034
Mof_H 	H 	0.595	0.95	0.2087	0.097
Mof_C 	C 	0.53139	0.9293	0.1982	0.046
Mof_C 	C 	0.53143	0.958	0.1761	-0.062
Mof_H 	H 	0.5525	0.9676	0.1687	0.053
Mof_Sm	Sm	0.24307	0.4111	0.74333	2.386
Mof_O 	O 	0.1576	0.46154	0.7193	-0.59
Mof_O 	O 	0.18151	0.41271	0.7378	-0.601
Mof_O 	O 	0.11743	0.30018	0.73898	-0.504
Mof_O 	O 	0.06101	0.3001	0.7328	-0.458
Mof_O 	O 	0.2995	0.43893	0.7512	-0.48
Mof_O 	O 	0.29975	0.38317	0.7435	-0.522
Mof_O 	O 	0.41261	0.31793	0.75522	-0.638
Mof_O 	O 	0.4463	0.3394	0.7962	-0.653
Mof_O 	O 	0.23237	0.47169	0.73015	-0.782
Mof_C 	C 	0.1561	0.42929	0.72634	0.522
Mof_C 	C 	0.1236	0.4081	0.7201	-0.062
Mof_C 	C 	0.1236	0.3733	0.73	0.021
Mof_H 	H 	0.1434	0.3635	0.7401	0.012
Mof_C 	C 	0.0941	0.3529	0.7247	-0.02
Mof_C 	C 	0.0646	0.3675	0.7096	-0.013
Mof_H 	H 	0.0448	0.3539	0.706	0.028
Mof_C 	C 	0.0646	0.4023	0.6997	-0.017
Mof_C 	C 	0.0941	0.4227	0.705	-0.025
Mof_H 	H 	0.0941	0.446	0.6984	-0.061
Mof_C 	C 	0.0893	0.31581	0.73271	0.331
Mof_C 	C 	0.0314	0.4143	0.6836	0.047
Mof_C 	C 	0.03143	0.438	0.6559	-0.054
Mof_H 	H 	0.0525	0.4459	0.6468	0.047
Mof_C 	C 	0.31526	0.41054	0.75104	0.37
Mof_C 	C 	0.35315	0.40879	0.76	-0.141
Mof_C 	C 	0.37209	0.3779	0.7594	0.112
Mof_H 	H 	0.3624	0.3579	0.7497	-0.009
Mof_C 	C 	0.40558	0.37687	0.7732	-0.229
Mof_C 	C 	0.42013	0.40674	0.7877	0.079
Mof_H 	H 	0.4425	0.4061	0.7969	0.013
Mof_C 	C 	0.4012	0.43763	0.7883	-0.078
Mof_C 	C 	0.3677	0.43866	0.7745	0.039
Mof_H 	H 	0.355	0.4593	0.775	0.044
Mof_C 	C 	0.42253	0.3419	0.7746	0.586
Mof_C 	C 	0.4183	0.46877	0.8029	0.121
Mof_C 	C 	0.4431	0.46847	0.8294	-0.166
Mof_H 	H 	0.4513	0.4474	0.8382	0.096
Mof_C 	C 	0.123	0.4077	0.72294	-0.07
Mof_C 	C 	0.1208	0.3721	0.72915	0.005
Mof_H 	H 	0.1406	0.3597	0.7359	0.008
Mof_C 	C 	0.0892	0.3549	0.72525	-0.052
Mof_C 	C 	0.0597	0.3734	0.7151	-0.001
Mof_H 	H 	0.0385	0.3619	0.7125	0.03
Mof_C 	C 	0.0618	0.409	0.7089	-0.002
Mof_C 	C 	0.0935	0.4262	0.71283	0.033
Mof_H 	H 	0.095	0.45	0.7087	0.093
Mof_C 	C 	0.03139	0.4293	0.6982	0.027
Mof_C 	C 	0.03143	0.458	0.6761	-0.056
Mof_H 	H 	0.0525	0.4676	0.6687	0.048
Mof_Sm	Sm	0.74307	0.0889	0.75667	2.383
Mof_O 	O 	0.6576	0.03846	0.7807	-0.589
Mof_O 	O 	0.68151	0.08729	0.7622	-0.601
Mof_O 	O 	0.61743	0.19982	0.76102	-0.504
Mof_O 	O 	0.56101	0.1999	0.7672	-0.457
Mof_O 	O 	0.7995	0.06107	0.7488	-0.481
Mof_O 	O 	0.79975	0.11683	0.7565	-0.521
Mof_O 	O 	0.91261	0.18207	0.74478	-0.636
Mof_O 	O 	0.9463	0.1606	0.7038	-0.645
Mof_O 	O 	0.73237	0.02831	0.76985	-0.776
Mof_C 	C 	0.6561	0.07071	0.77366	0.521
Mof_C 	C 	0.6236	0.0919	0.7799	-0.062
Mof_C 	C 	0.6236	0.1267	0.77	0.021
Mof_H 	H 	0.6434	0.1365	0.7599	0.012
Mof_C 	C 	0.5941	0.1471	0.7753	-0.02
Mof_C 	C 	0.5646	0.1325	0.7904	-0.013
Mof_H 	H 	0.5448	0.1461	0.794	0.027
Mof_C 	C 	0.5646	0.0977	0.8003	-0.013
Mof_C 	C 	0.5941	0.0773	0.795	-0.023
Mof_H 	H 	0.5941	0.054	0.8016	-0.059
Mof_C 	C 	0.5893	0.18419	0.76729	0.331
Mof_C 	C 	0.5314	0.0857	0.8164	0.067
Mof_C 	C 	0.53143	0.062	0.8441	-0.069
Mof_H 	H 	0.5525	0.0541	0.8532	0.052
Mof_C 	C 	0.81526	0.08946	0.74896	0.369
Mof_C 	C 	0.85315	0.09121	0.74	-0.14
Mof_C 	C 	0.87209	0.1221	0.7406	0.11
Mof_H 	H 	0.8624	0.1421	0.7503	-0.008
Mof_C 	C 	0.90558	0.12313	0.7268	-0.225
Mof_C 	C 	0.92013	0.09326	0.7123	0.076
Mof_H 	H 	0.9425	0.0939	0.7031	0.016
Mof_C 	C 	0.9012	0.06237	0.7117	-0.075
Mof_C 	C 	0.8677	0.06134	0.7255	0.037
Mof_H 	H 	0.855	0.0407	0.725	0.043
Mof_C 	C 	0.92253	0.1581	0.7254	0.583
Mof_C 	C 	0.9183	0.03123	0.6971	0.116
Mof_C 	C 	0.9431	0.03153	0.6706	-0.156
Mof_H 	H 	0.9513	0.0526	0.6618	0.094
Mof_C 	C 	0.623	0.0923	0.77706	-0.07
Mof_C 	C 	0.6208	0.1279	0.77085	0.005
Mof_H 	H 	0.6406	0.1403	0.7641	0.008
Mof_C 	C 	0.5892	0.1451	0.77475	-0.052
Mof_C 	C 	0.5597	0.1266	0.7849	-0.001
Mof_H 	H 	0.5385	0.1381	0.7875	0.033
Mof_C 	C 	0.5618	0.091	0.7911	-0.007
Mof_C 	C 	0.5935	0.0738	0.78717	0.032
Mof_H 	H 	0.595	0.05	0.7913	0.09
Mof_C 	C 	0.53139	0.0707	0.8018	0.012
Mof_C 	C 	0.53143	0.042	0.8239	-0.055
Mof_H 	H 	0.5525	0.0324	0.8313	0.046
Mof_Sm	Sm	0.24307	0.5889	0.25667	2.386
Mof_O 	O 	0.1576	0.53846	0.2807	-0.59
Mof_O 	O 	0.18151	0.58729	0.2622	-0.601
Mof_O 	O 	0.11743	0.69982	0.26102	-0.504
Mof_O 	O 	0.06101	0.6999	0.2672	-0.458
Mof_O 	O 	0.2995	0.56107	0.2488	-0.48
Mof_O 	O 	0.29975	0.61683	0.2565	-0.522
Mof_O 	O 	0.41261	0.68207	0.24478	-0.638
Mof_O 	O 	0.4463	0.6606	0.2038	-0.653
Mof_O 	O 	0.23237	0.52831	0.26985	-0.782
Mof_C 	C 	0.1561	0.57071	0.27366	0.522
Mof_C 	C 	0.1236	0.5919	0.2799	-0.062
Mof_C 	C 	0.1236	0.6267	0.27	0.021
Mof_H 	H 	0.1434	0.6365	0.2599	0.012
Mof_C 	C 	0.0941	0.6471	0.2753	-0.02
Mof_C 	C 	0.0646	0.6325	0.2904	-0.013
Mof_H 	H 	0.0448	0.6461	0.294	0.029
Mof_C 	C 	0.0646	0.5977	0.3003	-0.017
Mof_C 	C 	0.0941	0.5773	0.295	-0.025
Mof_H 	H 	0.0941	0.554	0.3016	-0.06
Mof_C 	C 	0.0893	0.68419	0.26729	0.331
Mof_C 	C 	0.0314	0.5857	0.3164	0.047
Mof_C 	C 	0.03143	0.562	0.3441	-0.054
Mof_H 	H 	0.0525	0.5541	0.3532	0.047
Mof_C 	C 	0.31526	0.58946	0.24896	0.37
Mof_C 	C 	0.35315	0.59121	0.24	-0.141
Mof_C 	C 	0.37209	0.6221	0.2406	0.112
Mof_H 	H 	0.3624	0.6421	0.2503	-0.009
Mof_C 	C 	0.40558	0.62313	0.2268	-0.229
Mof_C 	C 	0.42013	0.59326	0.2123	0.079
Mof_H 	H 	0.4425	0.5939	0.2031	0.013
Mof_C 	C 	0.4012	0.56237	0.2117	-0.078
Mof_C 	C 	0.3677	0.56134	0.2255	0.039
Mof_H 	H 	0.355	0.5407	0.225	0.044
Mof_C 	C 	0.42253	0.6581	0.2254	0.586
Mof_C 	C 	0.4183	0.53123	0.1971	0.121
Mof_C 	C 	0.4431	0.53153	0.1706	-0.167
Mof_H 	H 	0.4513	0.5526	0.1618	0.095
Mof_C 	C 	0.123	0.5923	0.27706	-0.07
Mof_C 	C 	0.1208	0.6279	0.27085	0.005
Mof_H 	H 	0.1406	0.6403	0.2641	0.008
Mof_C 	C 	0.0892	0.6451	0.27475	-0.052
Mof_C 	C 	0.0597	0.6266	0.2849	-0.001
Mof_H 	H 	0.0385	0.6381	0.2875	0.03
Mof_C 	C 	0.0618	0.591	0.2911	-0.002
Mof_C 	C 	0.0935	0.5738	0.28717	0.032
Mof_H 	H 	0.095	0.55	0.2913	0.092
Mof_C 	C 	0.03139	0.5707	0.3018	0.027
Mof_C 	C 	0.03143	0.542	0.3239	-0.056
Mof_H 	H 	0.0525	0.5324	0.3313	0.048
Mof_Sm	Sm	0.25693	0.9111	0.75667	2.385
Mof_O 	O 	0.3424	0.96154	0.7807	-0.582
Mof_O 	O 	0.31849	0.91271	0.7622	-0.6
Mof_O 	O 	0.38257	0.80018	0.76102	-0.504
Mof_O 	O 	0.43899	0.8001	0.7672	-0.457
Mof_O 	O 	0.2005	0.93893	0.7488	-0.477
Mof_O 	O 	0.20025	0.88317	0.7565	-0.521
Mof_O 	O 	0.08739	0.81793	0.74478	-0.637
Mof_O 	O 	0.0537	0.8394	0.7038	-0.65
Mof_O 	O 	0.26763	0.97169	0.76985	-0.768
Mof_C 	C 	0.3439	0.92929	0.77366	0.52
Mof_C 	C 	0.3764	0.9081	0.7799	-0.061
Mof_C 	C 	0.3764	0.8733	0.77	0.021
Mof_H 	H 	0.3566	0.8635	0.7599	0.012
Mof_C 	C 	0.4059	0.8529	0.7753	-0.02
Mof_C 	C 	0.4354	0.8675	0.7904	-0.013
Mof_H 	H 	0.4552	0.8539	0.794	0.029
Mof_C 	C 	0.4354	0.9023	0.8003	-0.022
Mof_C 	C 	0.4059	0.9227	0.795	-0.026
Mof_H 	H 	0.4059	0.946	0.8016	-0.061
Mof_C 	C 	0.4107	0.81581	0.76729	0.331
Mof_C 	C 	0.4686	0.9143	0.8164	0.03
Mof_C 	C 	0.46857	0.938	0.8441	-0.044
Mof_H 	H 	0.4475	0.9459	0.8532	0.046
Mof_C 	C 	0.18474	0.91054	0.74896	0.369
Mof_C 	C 	0.14685	0.90879	0.74	-0.139
Mof_C 	C 	0.12791	0.8779	0.7406	0.111
Mof_H 	H 	0.1376	0.8579	0.7503	-0.008
Mof_C 	C 	0.09442	0.87687	0.7268	-0.227
Mof_C 	C 	0.07987	0.90674	0.7123	0.078
Mof_H 	H 	0.0575	0.9061	0.7031	0.013
Mof_C 	C 	0.0988	0.93763	0.7117	-0.076
Mof_C 	C 	0.1323	0.93866	0.7255	0.037
Mof_H 	H 	0.145	0.9593	0.725	0.047
Mof_C 	C 	0.07747	0.8419	0.7254	0.584
Mof_C 	C 	0.0817	0.96877	0.6971	0.123
Mof_C 	C 	0.0569	0.96847	0.6706	-0.148
Mof_H 	H 	0.0487	0.9474	0.6618	0.09
Mof_C 	C 	0.377	0.9077	0.77706	-0.069
Mof_C 	C 	0.3792	0.8721	0.77085	0.005
Mof_H 	H 	0.3594	0.8597	0.7641	0.008
Mof_C 	C 	0.4108	0.8549	0.77475	-0.051
Mof_C 	C 	0.4403	0.8734	0.7849	0
Mof_H 	H 	0.4615	0.8619	0.7875	0.031
Mof_C 	C 	0.4382	0.909	0.7911	0.005
Mof_C 	C 	0.4065	0.9262	0.78717	0.034
Mof_H 	H 	0.405	0.95	0.7913	0.096
Mof_C 	C 	0.46861	0.9293	0.8018	0.046
Mof_C 	C 	0.46857	0.958	0.8239	-0.063
Mof_H 	H 	0.4475	0.9676	0.8313	0.053
Mof_Sm	Sm	0.75693	0.4111	0.25667	2.386
Mof_O 	O 	0.8424	0.46154	0.2807	-0.59
Mof_O 	O 	0.81849	0.41271	0.2622	-0.601
Mof_O 	O 	0.88257	0.30018	0.26102	-0.504
Mof_O 	O 	0.93899	0.3001	0.2672	-0.454
Mof_O 	O 	0.7005	0.43893	0.2488	-0.48
Mof_O 	O 	0.70025	0.38317	0.2565	-0.522
Mof_O 	O 	0.58739	0.31793	0.24478	-0.638
Mof_O 	O 	0.5537	0.3394	0.2038	-0.653
Mof_O 	O 	0.76763	0.47169	0.26985	-0.782
Mof_C 	C 	0.8439	0.42929	0.27366	0.522
Mof_C 	C 	0.8764	0.4081	0.2799	-0.062
Mof_C 	C 	0.8764	0.3733	0.27	0.021
Mof_H 	H 	0.8566	0.3635	0.2599	0.012
Mof_C 	C 	0.9059	0.3529	0.2753	-0.019
Mof_C 	C 	0.9354	0.3675	0.2904	-0.013
Mof_H 	H 	0.9552	0.3539	0.294	0.025
Mof_C 	C 	0.9354	0.4023	0.3003	-0.017
Mof_C 	C 	0.9059	0.4227	0.295	-0.026
Mof_H 	H 	0.9059	0.446	0.3016	-0.068
Mof_C 	C 	0.9107	0.31581	0.26729	0.331
Mof_C 	C 	0.9686	0.4143	0.3164	0.051
Mof_C 	C 	0.96857	0.438	0.3441	-0.048
Mof_H 	H 	0.9475	0.4459	0.3532	0.047
Mof_C 	C 	0.68474	0.41054	0.24896	0.37
Mof_C 	C 	0.64685	0.40879	0.24	-0.141
Mof_C 	C 	0.62791	0.3779	0.2406	0.112
Mof_H 	H 	0.6376	0.3579	0.2503	-0.009
Mof_C 	C 	0.59442	0.37687	0.2268	-0.229
Mof_C 	C 	0.57987	0.40674	0.2123	0.079
Mof_H 	H 	0.5575	0.4061	0.2031	0.013
Mof_C 	C 	0.5988	0.43763	0.2117	-0.078
Mof_C 	C 	0.6323	0.43866	0.2255	0.039
Mof_H 	H 	0.645	0.4593	0.225	0.044
Mof_C 	C 	0.57747	0.3419	0.2254	0.586
Mof_C 	C 	0.5817	0.46877	0.1971	0.121
Mof_C 	C 	0.5569	0.46847	0.1706	-0.167
Mof_H 	H 	0.5487	0.4474	0.1618	0.095
Mof_C 	C 	0.877	0.4077	0.27706	-0.07
Mof_C 	C 	0.8792	0.3721	0.27085	0.006
Mof_H 	H 	0.8594	0.3597	0.2641	0.008
Mof_C 	C 	0.9108	0.3549	0.27475	-0.051
Mof_C 	C 	0.9403	0.3734	0.2849	0.001
Mof_H 	H 	0.9615	0.3619	0.2875	0.038
Mof_C 	C 	0.9382	0.409	0.2911	-0.002
Mof_C 	C 	0.9065	0.4262	0.28717	0.035
Mof_H 	H 	0.905	0.45	0.2913	0.1
Mof_C 	C 	0.96861	0.4293	0.3018	0.031
Mof_C 	C 	0.96857	0.458	0.3239	-0.051
Mof_H 	H 	0.9475	0.4676	0.3313	0.048
Mof_Sm	Sm	0.24333	0.25693	0.0889	2.383
Mof_O 	O 	0.2193	0.3424	0.03846	-0.588
Mof_O 	O 	0.2378	0.31849	0.08729	-0.601
Mof_O 	O 	0.23898	0.38257	0.19982	-0.504
Mof_O 	O 	0.2328	0.43899	0.1999	-0.457
Mof_O 	O 	0.2512	0.2005	0.06107	-0.481
Mof_O 	O 	0.2435	0.20025	0.11683	-0.522
Mof_O 	O 	0.25522	0.08739	0.18207	-0.638
Mof_O 	O 	0.2962	0.0537	0.1606	-0.65
Mof_O 	O 	0.23015	0.26763	0.02831	-0.776
Mof_C 	C 	0.22634	0.3439	0.07071	0.521
Mof_C 	C 	0.2201	0.3764	0.0919	-0.062
Mof_C 	C 	0.23	0.3764	0.1267	0.021
Mof_H 	H 	0.2401	0.3566	0.1365	0.012
Mof_C 	C 	0.2247	0.4059	0.1471	-0.02
Mof_C 	C 	0.2096	0.4354	0.1325	-0.013
Mof_H 	H 	0.206	0.4552	0.1461	0.027
Mof_C 	C 	0.1997	0.4354	0.0977	-0.013
Mof_C 	C 	0.205	0.4059	0.0773	-0.023
Mof_H 	H 	0.1984	0.4059	0.054	-0.06
Mof_C 	C 	0.23271	0.4107	0.18419	0.331
Mof_C 	C 	0.1836	0.4686	0.0857	0.066
Mof_C 	C 	0.1559	0.46857	0.062	-0.069
Mof_H 	H 	0.1468	0.4475	0.0541	0.051
Mof_C 	C 	0.25104	0.18474	0.08946	0.369
Mof_C 	C 	0.26	0.14685	0.09121	-0.141
Mof_C 	C 	0.2594	0.12791	0.1221	0.111
Mof_H 	H 	0.2497	0.1376	0.1421	-0.009
Mof_C 	C 	0.2732	0.09442	0.12313	-0.228
Mof_C 	C 	0.2877	0.07987	0.09326	0.077
Mof_H 	H 	0.2969	0.0575	0.0939	0.012
Mof_C 	C 	0.2883	0.0988	0.06237	-0.078
Mof_C 	C 	0.2745	0.1323	0.06134	0.037
Mof_H 	H 	0.275	0.145	0.0407	0.042
Mof_C 	C 	0.2746	0.07747	0.1581	0.584
Mof_C 	C 	0.3029	0.0817	0.03123	0.115
Mof_C 	C 	0.3294	0.0569	0.03153	-0.158
Mof_H 	H 	0.3382	0.0487	0.0526	0.091
Mof_C 	C 	0.22294	0.377	0.0923	-0.07
Mof_C 	C 	0.22915	0.3792	0.1279	0.005
Mof_H 	H 	0.2359	0.3594	0.1403	0.008
Mof_C 	C 	0.22525	0.4108	0.1451	-0.052
Mof_C 	C 	0.2151	0.4403	0.1266	-0.001
Mof_H 	H 	0.2125	0.4615	0.1381	0.033
Mof_C 	C 	0.2089	0.4382	0.091	-0.007
Mof_C 	C 	0.21283	0.4065	0.0738	0.032
Mof_H 	H 	0.2087	0.405	0.05	0.092
Mof_C 	C 	0.1982	0.46861	0.0707	0.013
Mof_C 	C 	0.1761	0.46857	0.042	-0.054
Mof_H 	H 	0.1687	0.4475	0.0324	0.046
Mof_Sm	Sm	0.74333	0.75693	0.5889	2.386
Mof_O 	O 	0.7193	0.8424	0.53846	-0.589
Mof_O 	O 	0.7378	0.81849	0.58729	-0.601
Mof_O 	O 	0.73898	0.88257	0.69982	-0.504
Mof_O 	O 	0.7328	0.93899	0.6999	-0.454
Mof_O 	O 	0.7512	0.7005	0.56107	-0.48
Mof_O 	O 	0.7435	0.70025	0.61683	-0.522
Mof_O 	O 	0.75522	0.58739	0.68207	-0.638
Mof_O 	O 	0.7962	0.5537	0.6606	-0.653
Mof_O 	O 	0.73015	0.76763	0.52831	-0.782
Mof_C 	C 	0.72634	0.8439	0.57071	0.522
Mof_C 	C 	0.7201	0.8764	0.5919	-0.062
Mof_C 	C 	0.73	0.8764	0.6267	0.021
Mof_H 	H 	0.7401	0.8566	0.6365	0.012
Mof_C 	C 	0.7247	0.9059	0.6471	-0.019
Mof_C 	C 	0.7096	0.9354	0.6325	-0.013
Mof_H 	H 	0.706	0.9552	0.6461	0.025
Mof_C 	C 	0.6997	0.9354	0.5977	-0.017
Mof_C 	C 	0.705	0.9059	0.5773	-0.026
Mof_H 	H 	0.6984	0.9059	0.554	-0.069
Mof_C 	C 	0.73271	0.9107	0.68419	0.331
Mof_C 	C 	0.6836	0.9686	0.5857	0.051
Mof_C 	C 	0.6559	0.96857	0.562	-0.048
Mof_H 	H 	0.6468	0.9475	0.5541	0.047
Mof_C 	C 	0.75104	0.68474	0.58946	0.37
Mof_C 	C 	0.76	0.64685	0.59121	-0.141
Mof_C 	C 	0.7594	0.62791	0.6221	0.112
Mof_H 	H 	0.7497	0.6376	0.6421	-0.009
Mof_C 	C 	0.7732	0.59442	0.62313	-0.229
Mof_C 	C 	0.7877	0.57987	0.59326	0.079
Mof_H 	H 	0.7969	0.5575	0.5939	0.013
Mof_C 	C 	0.7883	0.5988	0.56237	-0.078
Mof_C 	C 	0.7745	0.6323	0.56134	0.039
Mof_H 	H 	0.775	0.645	0.5407	0.044
Mof_C 	C 	0.7746	0.57747	0.6581	0.586
Mof_C 	C 	0.8029	0.5817	0.53123	0.121
Mof_C 	C 	0.8294	0.5569	0.53153	-0.166
Mof_H 	H 	0.8382	0.5487	0.5526	0.096
Mof_C 	C 	0.72294	0.877	0.5923	-0.07
Mof_C 	C 	0.72915	0.8792	0.6279	0.006
Mof_H 	H 	0.7359	0.8594	0.6403	0.008
Mof_C 	C 	0.72525	0.9108	0.6451	-0.051
Mof_C 	C 	0.7151	0.9403	0.6266	0.001
Mof_H 	H 	0.7125	0.9615	0.6381	0.038
Mof_C 	C 	0.7089	0.9382	0.591	-0.002
Mof_C 	C 	0.71283	0.9065	0.5738	0.036
Mof_H 	H 	0.7087	0.905	0.55	0.101
Mof_C 	C 	0.6982	0.96861	0.5707	0.031
Mof_C 	C 	0.6761	0.96857	0.542	-0.05
Mof_H 	H 	0.6687	0.9475	0.5324	0.048
Mof_Sm	Sm	0.24333	0.74307	0.9111	2.385
Mof_O 	O 	0.2193	0.6576	0.96154	-0.582
Mof_O 	O 	0.2378	0.68151	0.91271	-0.6
Mof_O 	O 	0.23898	0.61743	0.80018	-0.504
Mof_O 	O 	0.2328	0.56101	0.8001	-0.457
Mof_O 	O 	0.2512	0.7995	0.93893	-0.477
Mof_O 	O 	0.2435	0.79975	0.88317	-0.521
Mof_O 	O 	0.25522	0.91261	0.81793	-0.636
Mof_O 	O 	0.2962	0.9463	0.8394	-0.645
Mof_O 	O 	0.23015	0.73237	0.97169	-0.768
Mof_C 	C 	0.22634	0.6561	0.92929	0.52
Mof_C 	C 	0.2201	0.6236	0.9081	-0.061
Mof_C 	C 	0.23	0.6236	0.8733	0.021
Mof_H 	H 	0.2401	0.6434	0.8635	0.012
Mof_C 	C 	0.2247	0.5941	0.8529	-0.02
Mof_C 	C 	0.2096	0.5646	0.8675	-0.013
Mof_H 	H 	0.206	0.5448	0.8539	0.028
Mof_C 	C 	0.1997	0.5646	0.9023	-0.022
Mof_C 	C 	0.205	0.5941	0.9227	-0.027
Mof_H 	H 	0.1984	0.5941	0.946	-0.063
Mof_C 	C 	0.23271	0.5893	0.81581	0.331
Mof_C 	C 	0.1836	0.5314	0.9143	0.029
Mof_C 	C 	0.1559	0.53143	0.938	-0.045
Mof_H 	H 	0.1468	0.5525	0.9459	0.045
Mof_C 	C 	0.25104	0.81526	0.91054	0.369
Mof_C 	C 	0.26	0.85315	0.90879	-0.138
Mof_C 	C 	0.2594	0.87209	0.8779	0.11
Mof_H 	H 	0.2497	0.8624	0.8579	-0.008
Mof_C 	C 	0.2732	0.90558	0.87687	-0.225
Mof_C 	C 	0.2877	0.92013	0.90674	0.076
Mof_H 	H 	0.2969	0.9425	0.9061	0.017
Mof_C 	C 	0.2883	0.9012	0.93763	-0.074
Mof_C 	C 	0.2745	0.8677	0.93866	0.037
Mof_H 	H 	0.275	0.855	0.9593	0.047
Mof_C 	C 	0.2746	0.92253	0.8419	0.583
Mof_C 	C 	0.3029	0.9183	0.96877	0.123
Mof_C 	C 	0.3294	0.9431	0.96847	-0.146
Mof_H 	H 	0.3382	0.9513	0.9474	0.092
Mof_C 	C 	0.22294	0.623	0.9077	-0.069
Mof_C 	C 	0.22915	0.6208	0.8721	0.005
Mof_H 	H 	0.2359	0.6406	0.8597	0.008
Mof_C 	C 	0.22525	0.5892	0.8549	-0.051
Mof_C 	C 	0.2151	0.5597	0.8734	0
Mof_H 	H 	0.2125	0.5385	0.8619	0.032
Mof_C 	C 	0.2089	0.5618	0.909	0.005
Mof_C 	C 	0.21283	0.5935	0.9262	0.034
Mof_H 	H 	0.2087	0.595	0.95	0.097
Mof_C 	C 	0.1982	0.53139	0.9293	0.046
Mof_C 	C 	0.1761	0.53143	0.958	-0.062
Mof_H 	H 	0.1687	0.5525	0.9676	0.053
Mof_Sm	Sm	0.74333	0.24307	0.4111	2.386
Mof_O 	O 	0.7193	0.1576	0.46154	-0.59
Mof_O 	O 	0.7378	0.18151	0.41271	-0.601
Mof_O 	O 	0.73898	0.11743	0.30018	-0.504
Mof_O 	O 	0.7328	0.06101	0.3001	-0.458
Mof_O 	O 	0.7512	0.2995	0.43893	-0.48
Mof_O 	O 	0.7435	0.29975	0.38317	-0.522
Mof_O 	O 	0.75522	0.41261	0.31793	-0.638
Mof_O 	O 	0.7962	0.4463	0.3394	-0.653
Mof_O 	O 	0.73015	0.23237	0.47169	-0.782
Mof_C 	C 	0.72634	0.1561	0.42929	0.522
Mof_C 	C 	0.7201	0.1236	0.4081	-0.062
Mof_C 	C 	0.73	0.1236	0.3733	0.021
Mof_H 	H 	0.7401	0.1434	0.3635	0.012
Mof_C 	C 	0.7247	0.0941	0.3529	-0.02
Mof_C 	C 	0.7096	0.0646	0.3675	-0.013
Mof_H 	H 	0.706	0.0448	0.3539	0.028
Mof_C 	C 	0.6997	0.0646	0.4023	-0.017
Mof_C 	C 	0.705	0.0941	0.4227	-0.025
Mof_H 	H 	0.6984	0.0941	0.446	-0.061
Mof_C 	C 	0.73271	0.0893	0.31581	0.331
Mof_C 	C 	0.6836	0.0314	0.4143	0.047
Mof_C 	C 	0.6559	0.03143	0.438	-0.054
Mof_H 	H 	0.6468	0.0525	0.4459	0.047
Mof_C 	C 	0.75104	0.31526	0.41054	0.37
Mof_C 	C 	0.76	0.35315	0.40879	-0.141
Mof_C 	C 	0.7594	0.37209	0.3779	0.112
Mof_H 	H 	0.7497	0.3624	0.3579	-0.009
Mof_C 	C 	0.7732	0.40558	0.37687	-0.229
Mof_C 	C 	0.7877	0.42013	0.40674	0.079
Mof_H 	H 	0.7969	0.4425	0.4061	0.013
Mof_C 	C 	0.7883	0.4012	0.43763	-0.078
Mof_C 	C 	0.7745	0.3677	0.43866	0.039
Mof_H 	H 	0.775	0.355	0.4593	0.044
Mof_C 	C 	0.7746	0.42253	0.3419	0.586
Mof_C 	C 	0.8029	0.4183	0.46877	0.121
Mof_C 	C 	0.8294	0.4431	0.46847	-0.166
Mof_H 	H 	0.8382	0.4513	0.4474	0.096
Mof_C 	C 	0.72294	0.123	0.4077	-0.07
Mof_C 	C 	0.72915	0.1208	0.3721	0.005
Mof_H 	H 	0.7359	0.1406	0.3597	0.008
Mof_C 	C 	0.72525	0.0892	0.3549	-0.052
Mof_C 	C 	0.7151	0.0597	0.3734	-0.001
Mof_H 	H 	0.7125	0.0385	0.3619	0.03
Mof_C 	C 	0.7089	0.0618	0.409	-0.002
Mof_C 	C 	0.71283	0.0935	0.4262	0.033
Mof_H 	H 	0.7087	0.095	0.45	0.093
Mof_C 	C 	0.6982	0.03139	0.4293	0.027
Mof_C 	C 	0.6761	0.03143	0.458	-0.056
Mof_H 	H 	0.6687	0.0525	0.4676	0.048
Mof_Sm	Sm	0.75667	0.74307	0.0889	2.383
Mof_O 	O 	0.7807	0.6576	0.03846	-0.589
Mof_O 	O 	0.7622	0.68151	0.08729	-0.601
Mof_O 	O 	0.76102	0.61743	0.19982	-0.504
Mof_O 	O 	0.7672	0.56101	0.1999	-0.457
Mof_O 	O 	0.7488	0.7995	0.06107	-0.481
Mof_O 	O 	0.7565	0.79975	0.11683	-0.521
Mof_O 	O 	0.74478	0.91261	0.18207	-0.636
Mof_O 	O 	0.7038	0.9463	0.1606	-0.645
Mof_O 	O 	0.76985	0.73237	0.02831	-0.776
Mof_C 	C 	0.77366	0.6561	0.07071	0.521
Mof_C 	C 	0.7799	0.6236	0.0919	-0.062
Mof_C 	C 	0.77	0.6236	0.1267	0.021
Mof_H 	H 	0.7599	0.6434	0.1365	0.012
Mof_C 	C 	0.7753	0.5941	0.1471	-0.02
Mof_C 	C 	0.7904	0.5646	0.1325	-0.013
Mof_H 	H 	0.794	0.5448	0.1461	0.027
Mof_C 	C 	0.8003	0.5646	0.0977	-0.013
Mof_C 	C 	0.795	0.5941	0.0773	-0.023
Mof_H 	H 	0.8016	0.5941	0.054	-0.059
Mof_C 	C 	0.76729	0.5893	0.18419	0.331
Mof_C 	C 	0.8164	0.5314	0.0857	0.067
Mof_C 	C 	0.8441	0.53143	0.062	-0.069
Mof_H 	H 	0.8532	0.5525	0.0541	0.052
Mof_C 	C 	0.74896	0.81526	0.08946	0.369
Mof_C 	C 	0.74	0.85315	0.09121	-0.14
Mof_C 	C 	0.7406	0.87209	0.1221	0.11
Mof_H 	H 	0.7503	0.8624	0.1421	-0.008
Mof_C 	C 	0.7268	0.90558	0.12313	-0.225
Mof_C 	C 	0.7123	0.92013	0.09326	0.076
Mof_H 	H 	0.7031	0.9425	0.0939	0.016
Mof_C 	C 	0.7117	0.9012	0.06237	-0.075
Mof_C 	C 	0.7255	0.8677	0.06134	0.037
Mof_H 	H 	0.725	0.855	0.0407	0.043
Mof_C 	C 	0.7254	0.92253	0.1581	0.583
Mof_C 	C 	0.6971	0.9183	0.03123	0.116
Mof_C 	C 	0.6706	0.9431	0.03153	-0.156
Mof_H 	H 	0.6618	0.9513	0.0526	0.094
Mof_C 	C 	0.77706	0.623	0.0923	-0.07
Mof_C 	C 	0.77085	0.6208	0.1279	0.005
Mof_H 	H 	0.7641	0.6406	0.1403	0.008
Mof_C 	C 	0.77475	0.5892	0.1451	-0.052
Mof_C 	C 	0.7849	0.5597	0.1266	-0.001
Mof_H 	H 	0.7875	0.5385	0.1381	0.033
Mof_C 	C 	0.7911	0.5618	0.091	-0.007
Mof_C 	C 	0.78717	0.5935	0.0738	0.032
Mof_H 	H 	0.7913	0.595	0.05	0.09
Mof_C 	C 	0.8018	0.53139	0.0707	0.012
Mof_C 	C 	0.8239	0.53143	0.042	-0.055
Mof_H 	H 	0.8313	0.5525	0.0324	0.046
Mof_Sm	Sm	0.25667	0.24307	0.5889	2.386
Mof_O 	O 	0.2807	0.1576	0.53846	-0.59
Mof_O 	O 	0.2622	0.18151	0.58729	-0.601
Mof_O 	O 	0.26102	0.11743	0.69982	-0.504
Mof_O 	O 	0.2672	0.06101	0.6999	-0.458
Mof_O 	O 	0.2488	0.2995	0.56107	-0.48
Mof_O 	O 	0.2565	0.29975	0.61683	-0.522
Mof_O 	O 	0.24478	0.41261	0.68207	-0.638
Mof_O 	O 	0.2038	0.4463	0.6606	-0.653
Mof_O 	O 	0.26985	0.23237	0.52831	-0.782
Mof_C 	C 	0.27366	0.1561	0.57071	0.522
Mof_C 	C 	0.2799	0.1236	0.5919	-0.062
Mof_C 	C 	0.27	0.1236	0.6267	0.021
Mof_H 	H 	0.2599	0.1434	0.6365	0.012
Mof_C 	C 	0.2753	0.0941	0.6471	-0.02
Mof_C 	C 	0.2904	0.0646	0.6325	-0.013
Mof_H 	H 	0.294	0.0448	0.6461	0.029
Mof_C 	C 	0.3003	0.0646	0.5977	-0.017
Mof_C 	C 	0.295	0.0941	0.5773	-0.025
Mof_H 	H 	0.3016	0.0941	0.554	-0.06
Mof_C 	C 	0.26729	0.0893	0.68419	0.331
Mof_C 	C 	0.3164	0.0314	0.5857	0.047
Mof_C 	C 	0.3441	0.03143	0.562	-0.054
Mof_H 	H 	0.3532	0.0525	0.5541	0.047
Mof_C 	C 	0.24896	0.31526	0.58946	0.37
Mof_C 	C 	0.24	0.35315	0.59121	-0.141
Mof_C 	C 	0.2406	0.37209	0.6221	0.112
Mof_H 	H 	0.2503	0.3624	0.6421	-0.009
Mof_C 	C 	0.2268	0.40558	0.62313	-0.229
Mof_C 	C 	0.2123	0.42013	0.59326	0.079
Mof_H 	H 	0.2031	0.4425	0.5939	0.013
Mof_C 	C 	0.2117	0.4012	0.56237	-0.078
Mof_C 	C 	0.2255	0.3677	0.56134	0.039
Mof_H 	H 	0.225	0.355	0.5407	0.044
Mof_C 	C 	0.2254	0.42253	0.6581	0.586
Mof_C 	C 	0.1971	0.4183	0.53123	0.121
Mof_C 	C 	0.1706	0.4431	0.53153	-0.167
Mof_H 	H 	0.1618	0.4513	0.5526	0.095
Mof_C 	C 	0.27706	0.123	0.5923	-0.07
Mof_C 	C 	0.27085	0.1208	0.6279	0.005
Mof_H 	H 	0.2641	0.1406	0.6403	0.008
Mof_C 	C 	0.27475	0.0892	0.6451	-0.052
Mof_C 	C 	0.2849	0.0597	0.6266	-0.001
Mof_H 	H 	0.2875	0.0385	0.6381	0.03
Mof_C 	C 	0.2911	0.0618	0.591	-0.002
Mof_C 	C 	0.28717	0.0935	0.5738	0.032
Mof_H 	H 	0.2913	0.095	0.55	0.092
Mof_C 	C 	0.3018	0.03139	0.5707	0.027
Mof_C 	C 	0.3239	0.03143	0.542	-0.056
Mof_H 	H 	0.3313	0.0525	0.5324	0.048
Mof_Sm	Sm	0.75667	0.25693	0.9111	2.385
Mof_O 	O 	0.7807	0.3424	0.96154	-0.582
Mof_O 	O 	0.7622	0.31849	0.91271	-0.6
Mof_O 	O 	0.76102	0.38257	0.80018	-0.504
Mof_O 	O 	0.7672	0.43899	0.8001	-0.457
Mof_O 	O 	0.7488	0.2005	0.93893	-0.477
Mof_O 	O 	0.7565	0.20025	0.88317	-0.521
Mof_O 	O 	0.74478	0.08739	0.81793	-0.637
Mof_O 	O 	0.7038	0.0537	0.8394	-0.65
Mof_O 	O 	0.76985	0.26763	0.97169	-0.768
Mof_C 	C 	0.77366	0.3439	0.92929	0.52
Mof_C 	C 	0.7799	0.3764	0.9081	-0.061
Mof_C 	C 	0.77	0.3764	0.8733	0.021
Mof_H 	H 	0.7599	0.3566	0.8635	0.012
Mof_C 	C 	0.7753	0.4059	0.8529	-0.02
Mof_C 	C 	0.7904	0.4354	0.8675	-0.013
Mof_H 	H 	0.794	0.4552	0.8539	0.029
Mof_C 	C 	0.8003	0.4354	0.9023	-0.022
Mof_C 	C 	0.795	0.4059	0.9227	-0.026
Mof_H 	H 	0.8016	0.4059	0.946	-0.061
Mof_C 	C 	0.76729	0.4107	0.81581	0.331
Mof_C 	C 	0.8164	0.4686	0.9143	0.03
Mof_C 	C 	0.8441	0.46857	0.938	-0.044
Mof_H 	H 	0.8532	0.4475	0.9459	0.046
Mof_C 	C 	0.74896	0.18474	0.91054	0.369
Mof_C 	C 	0.74	0.14685	0.90879	-0.139
Mof_C 	C 	0.7406	0.12791	0.8779	0.111
Mof_H 	H 	0.7503	0.1376	0.8579	-0.008
Mof_C 	C 	0.7268	0.09442	0.87687	-0.227
Mof_C 	C 	0.7123	0.07987	0.90674	0.078
Mof_H 	H 	0.7031	0.0575	0.9061	0.013
Mof_C 	C 	0.7117	0.0988	0.93763	-0.076
Mof_C 	C 	0.7255	0.1323	0.93866	0.037
Mof_H 	H 	0.725	0.145	0.9593	0.047
Mof_C 	C 	0.7254	0.07747	0.8419	0.584
Mof_C 	C 	0.6971	0.0817	0.96877	0.123
Mof_C 	C 	0.6706	0.0569	0.96847	-0.148
Mof_H 	H 	0.6618	0.0487	0.9474	0.09
Mof_C 	C 	0.77706	0.377	0.9077	-0.069
Mof_C 	C 	0.77085	0.3792	0.8721	0.005
Mof_H 	H 	0.7641	0.3594	0.8597	0.008
Mof_C 	C 	0.77475	0.4108	0.8549	-0.051
Mof_C 	C 	0.7849	0.4403	0.8734	0
Mof_H 	H 	0.7875	0.4615	0.8619	0.031
Mof_C 	C 	0.7911	0.4382	0.909	0.005
Mof_C 	C 	0.78717	0.4065	0.9262	0.034
Mof_H 	H 	0.7913	0.405	0.95	0.096
Mof_C 	C 	0.8018	0.46861	0.9293	0.046
Mof_C 	C 	0.8239	0.46857	0.958	-0.063
Mof_H 	H 	0.8313	0.4475	0.9676	0.053
Mof_Sm	Sm	0.25667	0.75693	0.4111	2.386
Mof_O 	O 	0.2807	0.8424	0.46154	-0.59
Mof_O 	O 	0.2622	0.81849	0.41271	-0.601
Mof_O 	O 	0.26102	0.88257	0.30018	-0.504
Mof_O 	O 	0.2672	0.93899	0.3001	-0.454
Mof_O 	O 	0.2488	0.7005	0.43893	-0.48
Mof_O 	O 	0.2565	0.70025	0.38317	-0.522
Mof_O 	O 	0.24478	0.58739	0.31793	-0.638
Mof_O 	O 	0.2038	0.5537	0.3394	-0.653
Mof_O 	O 	0.26985	0.76763	0.47169	-0.782
Mof_C 	C 	0.27366	0.8439	0.42929	0.522
Mof_C 	C 	0.2799	0.8764	0.4081	-0.062
Mof_C 	C 	0.27	0.8764	0.3733	0.021
Mof_H 	H 	0.2599	0.8566	0.3635	0.012
Mof_C 	C 	0.2753	0.9059	0.3529	-0.019
Mof_C 	C 	0.2904	0.9354	0.3675	-0.013
Mof_H 	H 	0.294	0.9552	0.3539	0.025
Mof_C 	C 	0.3003	0.9354	0.4023	-0.017
Mof_C 	C 	0.295	0.9059	0.4227	-0.026
Mof_H 	H 	0.3016	0.9059	0.446	-0.068
Mof_C 	C 	0.26729	0.9107	0.31581	0.331
Mof_C 	C 	0.3164	0.9686	0.4143	0.051
Mof_C 	C 	0.3441	0.96857	0.438	-0.048
Mof_H 	H 	0.3532	0.9475	0.4459	0.047
Mof_C 	C 	0.24896	0.68474	0.41054	0.37
Mof_C 	C 	0.24	0.64685	0.40879	-0.141
Mof_C 	C 	0.2406	0.62791	0.3779	0.112
Mof_H 	H 	0.2503	0.6376	0.3579	-0.009
Mof_C 	C 	0.2268	0.59442	0.37687	-0.229
Mof_C 	C 	0.2123	0.57987	0.40674	0.079
Mof_H 	H 	0.2031	0.5575	0.4061	0.013
Mof_C 	C 	0.2117	0.5988	0.43763	-0.078
Mof_C 	C 	0.2255	0.6323	0.43866	0.039
Mof_H 	H 	0.225	0.645	0.4593	0.044
Mof_C 	C 	0.2254	0.57747	0.3419	0.586
Mof_C 	C 	0.1971	0.5817	0.46877	0.121
Mof_C 	C 	0.1706	0.5569	0.46847	-0.167
Mof_H 	H 	0.1618	0.5487	0.4474	0.095
Mof_C 	C 	0.27706	0.877	0.4077	-0.07
Mof_C 	C 	0.27085	0.8792	0.3721	0.006
Mof_H 	H 	0.2641	0.8594	0.3597	0.008
Mof_C 	C 	0.27475	0.9108	0.3549	-0.051
Mof_C 	C 	0.2849	0.9403	0.3734	0.001
Mof_H 	H 	0.2875	0.9615	0.3619	0.038
Mof_C 	C 	0.2911	0.9382	0.409	-0.002
Mof_C 	C 	0.28717	0.9065	0.4262	0.035
Mof_H 	H 	0.2913	0.905	0.45	0.1
Mof_C 	C 	0.3018	0.96861	0.4293	0.031
Mof_C 	C 	0.3239	0.96857	0.458	-0.051
Mof_H 	H 	0.3313	0.9475	0.4676	0.048
Mof_Sm	Sm	0.0889	0.24333	0.25693	2.383
Mof_O 	O 	0.03846	0.2193	0.3424	-0.588
Mof_O 	O 	0.08729	0.2378	0.31849	-0.601
Mof_O 	O 	0.19982	0.23898	0.38257	-0.504
Mof_O 	O 	0.1999	0.2328	0.43899	-0.457
Mof_O 	O 	0.06107	0.2512	0.2005	-0.481
Mof_O 	O 	0.11683	0.2435	0.20025	-0.522
Mof_O 	O 	0.18207	0.25522	0.08739	-0.638
Mof_O 	O 	0.1606	0.2962	0.0537	-0.65
Mof_O 	O 	0.02831	0.23015	0.26763	-0.776
Mof_C 	C 	0.07071	0.22634	0.3439	0.521
Mof_C 	C 	0.0919	0.2201	0.3764	-0.062
Mof_C 	C 	0.1267	0.23	0.3764	0.021
Mof_H 	H 	0.1365	0.2401	0.3566	0.012
Mof_C 	C 	0.1471	0.2247	0.4059	-0.02
Mof_C 	C 	0.1325	0.2096	0.4354	-0.013
Mof_H 	H 	0.1461	0.206	0.4552	0.027
Mof_C 	C 	0.0977	0.1997	0.4354	-0.013
Mof_C 	C 	0.0773	0.205	0.4059	-0.023
Mof_H 	H 	0.054	0.1984	0.4059	-0.06
Mof_C 	C 	0.18419	0.23271	0.4107	0.331
Mof_C 	C 	0.0857	0.1836	0.4686	0.066
Mof_C 	C 	0.062	0.1559	0.46857	-0.069
Mof_H 	H 	0.0541	0.1468	0.4475	0.051
Mof_C 	C 	0.08946	0.25104	0.18474	0.369
Mof_C 	C 	0.09121	0.26	0.14685	-0.141
Mof_C 	C 	0.1221	0.2594	0.12791	0.111
Mof_H 	H 	0.1421	0.2497	0.1376	-0.009
Mof_C 	C 	0.12313	0.2732	0.09442	-0.228
Mof_C 	C 	0.09326	0.2877	0.07987	0.077
Mof_H 	H 	0.0939	0.2969	0.0575	0.012
Mof_C 	C 	0.06237	0.2883	0.0988	-0.078
Mof_C 	C 	0.06134	0.2745	0.1323	0.037
Mof_H 	H 	0.0407	0.275	0.145	0.042
Mof_C 	C 	0.1581	0.2746	0.07747	0.584
Mof_C 	C 	0.03123	0.3029	0.0817	0.115
Mof_C 	C 	0.03153	0.3294	0.0569	-0.158
Mof_H 	H 	0.0526	0.3382	0.0487	0.091
Mof_C 	C 	0.0923	0.22294	0.377	-0.07
Mof_C 	C 	0.1279	0.22915	0.3792	0.005
Mof_H 	H 	0.1403	0.2359	0.3594	0.008
Mof_C 	C 	0.1451	0.22525	0.4108	-0.052
Mof_C 	C 	0.1266	0.2151	0.4403	-0.001
Mof_H 	H 	0.1381	0.2125	0.4615	0.033
Mof_C 	C 	0.091	0.2089	0.4382	-0.007
Mof_C 	C 	0.0738	0.21283	0.4065	0.032
Mof_H 	H 	0.05	0.2087	0.405	0.092
Mof_C 	C 	0.0707	0.1982	0.46861	0.013
Mof_C 	C 	0.042	0.1761	0.46857	-0.054
Mof_H 	H 	0.0324	0.1687	0.4475	0.046
Mof_Sm	Sm	0.5889	0.74333	0.75693	2.386
Mof_O 	O 	0.53846	0.7193	0.8424	-0.589
Mof_O 	O 	0.58729	0.7378	0.81849	-0.601
Mof_O 	O 	0.69982	0.73898	0.88257	-0.504
Mof_O 	O 	0.6999	0.7328	0.93899	-0.454
Mof_O 	O 	0.56107	0.7512	0.7005	-0.48
Mof_O 	O 	0.61683	0.7435	0.70025	-0.522
Mof_O 	O 	0.68207	0.75522	0.58739	-0.638
Mof_O 	O 	0.6606	0.7962	0.5537	-0.653
Mof_O 	O 	0.52831	0.73015	0.76763	-0.782
Mof_C 	C 	0.57071	0.72634	0.8439	0.522
Mof_C 	C 	0.5919	0.7201	0.8764	-0.062
Mof_C 	C 	0.6267	0.73	0.8764	0.021
Mof_H 	H 	0.6365	0.7401	0.8566	0.012
Mof_C 	C 	0.6471	0.7247	0.9059	-0.019
Mof_C 	C 	0.6325	0.7096	0.9354	-0.013
Mof_H 	H 	0.6461	0.706	0.9552	0.025
Mof_C 	C 	0.5977	0.6997	0.9354	-0.017
Mof_C 	C 	0.5773	0.705	0.9059	-0.026
Mof_H 	H 	0.554	0.6984	0.9059	-0.069
Mof_C 	C 	0.68419	0.73271	0.9107	0.331
Mof_C 	C 	0.5857	0.6836	0.9686	0.051
Mof_C 	C 	0.562	0.6559	0.96857	-0.048
Mof_H 	H 	0.5541	0.6468	0.9475	0.047
Mof_C 	C 	0.58946	0.75104	0.68474	0.37
Mof_C 	C 	0.59121	0.76	0.64685	-0.141
Mof_C 	C 	0.6221	0.7594	0.62791	0.112
Mof_H 	H 	0.6421	0.7497	0.6376	-0.009
Mof_C 	C 	0.62313	0.7732	0.59442	-0.229
Mof_C 	C 	0.59326	0.7877	0.57987	0.079
Mof_H 	H 	0.5939	0.7969	0.5575	0.013
Mof_C 	C 	0.56237	0.7883	0.5988	-0.078
Mof_C 	C 	0.56134	0.7745	0.6323	0.039
Mof_H 	H 	0.5407	0.775	0.645	0.044
Mof_C 	C 	0.6581	0.7746	0.57747	0.586
Mof_C 	C 	0.53123	0.8029	0.5817	0.121
Mof_C 	C 	0.53153	0.8294	0.5569	-0.166
Mof_H 	H 	0.5526	0.8382	0.5487	0.096
Mof_C 	C 	0.5923	0.72294	0.877	-0.07
Mof_C 	C 	0.6279	0.72915	0.8792	0.006
Mof_H 	H 	0.6403	0.7359	0.8594	0.008
Mof_C 	C 	0.6451	0.72525	0.9108	-0.051
Mof_C 	C 	0.6266	0.7151	0.9403	0.001
Mof_H 	H 	0.6381	0.7125	0.9615	0.038
Mof_C 	C 	0.591	0.7089	0.9382	-0.002
Mof_C 	C 	0.5738	0.71283	0.9065	0.036
Mof_H 	H 	0.55	0.7087	0.905	0.101
Mof_C 	C 	0.5707	0.6982	0.96861	0.031
Mof_C 	C 	0.542	0.6761	0.96857	-0.05
Mof_H 	H 	0.5324	0.6687	0.9475	0.048
Mof_Sm	Sm	0.9111	0.24333	0.74307	2.385
Mof_O 	O 	0.96154	0.2193	0.6576	-0.582
Mof_O 	O 	0.91271	0.2378	0.68151	-0.6
Mof_O 	O 	0.80018	0.23898	0.61743	-0.504
Mof_O 	O 	0.8001	0.2328	0.56101	-0.457
Mof_O 	O 	0.93893	0.2512	0.7995	-0.477
Mof_O 	O 	0.88317	0.2435	0.79975	-0.521
Mof_O 	O 	0.81793	0.25522	0.91261	-0.636
Mof_O 	O 	0.8394	0.2962	0.9463	-0.645
Mof_O 	O 	0.97169	0.23015	0.73237	-0.768
Mof_C 	C 	0.92929	0.22634	0.6561	0.52
Mof_C 	C 	0.9081	0.2201	0.6236	-0.061
Mof_C 	C 	0.8733	0.23	0.6236	0.021
Mof_H 	H 	0.8635	0.2401	0.6434	0.012
Mof_C 	C 	0.8529	0.2247	0.5941	-0.02
Mof_C 	C 	0.8675	0.2096	0.5646	-0.013
Mof_H 	H 	0.8539	0.206	0.5448	0.028
Mof_C 	C 	0.9023	0.1997	0.5646	-0.022
Mof_C 	C 	0.9227	0.205	0.5941	-0.027
Mof_H 	H 	0.946	0.1984	0.5941	-0.063
Mof_C 	C 	0.81581	0.23271	0.5893	0.331
Mof_C 	C 	0.9143	0.1836	0.5314	0.029
Mof_C 	C 	0.938	0.1559	0.53143	-0.045
Mof_H 	H 	0.9459	0.1468	0.5525	0.045
Mof_C 	C 	0.91054	0.25104	0.81526	0.369
Mof_C 	C 	0.90879	0.26	0.85315	-0.138
Mof_C 	C 	0.8779	0.2594	0.87209	0.11
Mof_H 	H 	0.8579	0.2497	0.8624	-0.008
Mof_C 	C 	0.87687	0.2732	0.90558	-0.225
Mof_C 	C 	0.90674	0.2877	0.92013	0.076
Mof_H 	H 	0.9061	0.2969	0.9425	0.017
Mof_C 	C 	0.93763	0.2883	0.9012	-0.074
Mof_C 	C 	0.93866	0.2745	0.8677	0.037
Mof_H 	H 	0.9593	0.275	0.855	0.047
Mof_C 	C 	0.8419	0.2746	0.92253	0.583
Mof_C 	C 	0.96877	0.3029	0.9183	0.123
Mof_C 	C 	0.96847	0.3294	0.9431	-0.146
Mof_H 	H 	0.9474	0.3382	0.9513	0.092
Mof_C 	C 	0.9077	0.22294	0.623	-0.069
Mof_C 	C 	0.8721	0.22915	0.6208	0.005
Mof_H 	H 	0.8597	0.2359	0.6406	0.008
Mof_C 	C 	0.8549	0.22525	0.5892	-0.051
Mof_C 	C 	0.8734	0.2151	0.5597	0
Mof_H 	H 	0.8619	0.2125	0.5385	0.032
Mof_C 	C 	0.909	0.2089	0.5618	0.005
Mof_C 	C 	0.9262	0.21283	0.5935	0.034
Mof_H 	H 	0.95	0.2087	0.595	0.097
Mof_C 	C 	0.9293	0.1982	0.53139	0.046
Mof_C 	C 	0.958	0.1761	0.53143	-0.062
Mof_H 	H 	0.9676	0.1687	0.5525	0.053
Mof_Sm	Sm	0.4111	0.74333	0.24307	2.386
Mof_O 	O 	0.46154	0.7193	0.1576	-0.59
Mof_O 	O 	0.41271	0.7378	0.18151	-0.601
Mof_O 	O 	0.30018	0.73898	0.11743	-0.504
Mof_O 	O 	0.3001	0.7328	0.06101	-0.458
Mof_O 	O 	0.43893	0.7512	0.2995	-0.48
Mof_O 	O 	0.38317	0.7435	0.29975	-0.522
Mof_O 	O 	0.31793	0.75522	0.41261	-0.638
Mof_O 	O 	0.3394	0.7962	0.4463	-0.653
Mof_O 	O 	0.47169	0.73015	0.23237	-0.782
Mof_C 	C 	0.42929	0.72634	0.1561	0.522
Mof_C 	C 	0.4081	0.7201	0.1236	-0.062
Mof_C 	C 	0.3733	0.73	0.1236	0.021
Mof_H 	H 	0.3635	0.7401	0.1434	0.012
Mof_C 	C 	0.3529	0.7247	0.0941	-0.02
Mof_C 	C 	0.3675	0.7096	0.0646	-0.013
Mof_H 	H 	0.3539	0.706	0.0448	0.028
Mof_C 	C 	0.4023	0.6997	0.0646	-0.017
Mof_C 	C 	0.4227	0.705	0.0941	-0.025
Mof_H 	H 	0.446	0.6984	0.0941	-0.061
Mof_C 	C 	0.31581	0.73271	0.0893	0.331
Mof_C 	C 	0.4143	0.6836	0.0314	0.047
Mof_C 	C 	0.438	0.6559	0.03143	-0.054
Mof_H 	H 	0.4459	0.6468	0.0525	0.047
Mof_C 	C 	0.41054	0.75104	0.31526	0.37
Mof_C 	C 	0.40879	0.76	0.35315	-0.141
Mof_C 	C 	0.3779	0.7594	0.37209	0.112
Mof_H 	H 	0.3579	0.7497	0.3624	-0.009
Mof_C 	C 	0.37687	0.7732	0.40558	-0.229
Mof_C 	C 	0.40674	0.7877	0.42013	0.079
Mof_H 	H 	0.4061	0.7969	0.4425	0.013
Mof_C 	C 	0.43763	0.7883	0.4012	-0.078
Mof_C 	C 	0.43866	0.7745	0.3677	0.039
Mof_H 	H 	0.4593	0.775	0.355	0.044
Mof_C 	C 	0.3419	0.7746	0.42253	0.586
Mof_C 	C 	0.46877	0.8029	0.4183	0.121
Mof_C 	C 	0.46847	0.8294	0.4431	-0.166
Mof_H 	H 	0.4474	0.8382	0.4513	0.096
Mof_C 	C 	0.4077	0.72294	0.123	-0.07
Mof_C 	C 	0.3721	0.72915	0.1208	0.005
Mof_H 	H 	0.3597	0.7359	0.1406	0.008
Mof_C 	C 	0.3549	0.72525	0.0892	-0.052
Mof_C 	C 	0.3734	0.7151	0.0597	-0.001
Mof_H 	H 	0.3619	0.7125	0.0385	0.03
Mof_C 	C 	0.409	0.7089	0.0618	-0.002
Mof_C 	C 	0.4262	0.71283	0.0935	0.033
Mof_H 	H 	0.45	0.7087	0.095	0.093
Mof_C 	C 	0.4293	0.6982	0.03139	0.027
Mof_C 	C 	0.458	0.6761	0.03143	-0.056
Mof_H 	H 	0.4676	0.6687	0.0525	0.048
Mof_Sm	Sm	0.0889	0.75667	0.74307	2.383
Mof_O 	O 	0.03846	0.7807	0.6576	-0.589
Mof_O 	O 	0.08729	0.7622	0.68151	-0.601
Mof_O 	O 	0.19982	0.76102	0.61743	-0.504
Mof_O 	O 	0.1999	0.7672	0.56101	-0.457
Mof_O 	O 	0.06107	0.7488	0.7995	-0.481
Mof_O 	O 	0.11683	0.7565	0.79975	-0.521
Mof_O 	O 	0.18207	0.74478	0.91261	-0.636
Mof_O 	O 	0.1606	0.7038	0.9463	-0.645
Mof_O 	O 	0.02831	0.76985	0.73237	-0.776
Mof_C 	C 	0.07071	0.77366	0.6561	0.521
Mof_C 	C 	0.0919	0.7799	0.6236	-0.062
Mof_C 	C 	0.1267	0.77	0.6236	0.021
Mof_H 	H 	0.1365	0.7599	0.6434	0.012
Mof_C 	C 	0.1471	0.7753	0.5941	-0.02
Mof_C 	C 	0.1325	0.7904	0.5646	-0.013
Mof_H 	H 	0.1461	0.794	0.5448	0.027
Mof_C 	C 	0.0977	0.8003	0.5646	-0.013
Mof_C 	C 	0.0773	0.795	0.5941	-0.023
Mof_H 	H 	0.054	0.8016	0.5941	-0.059
Mof_C 	C 	0.18419	0.76729	0.5893	0.331
Mof_C 	C 	0.0857	0.8164	0.5314	0.067
Mof_C 	C 	0.062	0.8441	0.53143	-0.069
Mof_H 	H 	0.0541	0.8532	0.5525	0.052
Mof_C 	C 	0.08946	0.74896	0.81526	0.369
Mof_C 	C 	0.09121	0.74	0.85315	-0.14
Mof_C 	C 	0.1221	0.7406	0.87209	0.11
Mof_H 	H 	0.1421	0.7503	0.8624	-0.008
Mof_C 	C 	0.12313	0.7268	0.90558	-0.225
Mof_C 	C 	0.09326	0.7123	0.92013	0.076
Mof_H 	H 	0.0939	0.7031	0.9425	0.016
Mof_C 	C 	0.06237	0.7117	0.9012	-0.075
Mof_C 	C 	0.06134	0.7255	0.8677	0.037
Mof_H 	H 	0.0407	0.725	0.855	0.043
Mof_C 	C 	0.1581	0.7254	0.92253	0.583
Mof_C 	C 	0.03123	0.6971	0.9183	0.116
Mof_C 	C 	0.03153	0.6706	0.9431	-0.156
Mof_H 	H 	0.0526	0.6618	0.9513	0.094
Mof_C 	C 	0.0923	0.77706	0.623	-0.07
Mof_C 	C 	0.1279	0.77085	0.6208	0.005
Mof_H 	H 	0.1403	0.7641	0.6406	0.008
Mof_C 	C 	0.1451	0.77475	0.5892	-0.052
Mof_C 	C 	0.1266	0.7849	0.5597	-0.001
Mof_H 	H 	0.1381	0.7875	0.5385	0.033
Mof_C 	C 	0.091	0.7911	0.5618	-0.007
Mof_C 	C 	0.0738	0.78717	0.5935	0.032
Mof_H 	H 	0.05	0.7913	0.595	0.09
Mof_C 	C 	0.0707	0.8018	0.53139	0.012
Mof_C 	C 	0.042	0.8239	0.53143	-0.055
Mof_H 	H 	0.0324	0.8313	0.5525	0.046
Mof_Sm	Sm	0.5889	0.25667	0.24307	2.386
Mof_O 	O 	0.53846	0.2807	0.1576	-0.59
Mof_O 	O 	0.58729	0.2622	0.18151	-0.601
Mof_O 	O 	0.69982	0.26102	0.11743	-0.504
Mof_O 	O 	0.6999	0.2672	0.06101	-0.458
Mof_O 	O 	0.56107	0.2488	0.2995	-0.48
Mof_O 	O 	0.61683	0.2565	0.29975	-0.522
Mof_O 	O 	0.68207	0.24478	0.41261	-0.638
Mof_O 	O 	0.6606	0.2038	0.4463	-0.653
Mof_O 	O 	0.52831	0.26985	0.23237	-0.782
Mof_C 	C 	0.57071	0.27366	0.1561	0.522
Mof_C 	C 	0.5919	0.2799	0.1236	-0.062
Mof_C 	C 	0.6267	0.27	0.1236	0.021
Mof_H 	H 	0.6365	0.2599	0.1434	0.012
Mof_C 	C 	0.6471	0.2753	0.0941	-0.02
Mof_C 	C 	0.6325	0.2904	0.0646	-0.013
Mof_H 	H 	0.6461	0.294	0.0448	0.029
Mof_C 	C 	0.5977	0.3003	0.0646	-0.017
Mof_C 	C 	0.5773	0.295	0.0941	-0.025
Mof_H 	H 	0.554	0.3016	0.0941	-0.06
Mof_C 	C 	0.68419	0.26729	0.0893	0.331
Mof_C 	C 	0.5857	0.3164	0.0314	0.047
Mof_C 	C 	0.562	0.3441	0.03143	-0.054
Mof_H 	H 	0.5541	0.3532	0.0525	0.047
Mof_C 	C 	0.58946	0.24896	0.31526	0.37
Mof_C 	C 	0.59121	0.24	0.35315	-0.141
Mof_C 	C 	0.6221	0.2406	0.37209	0.112
Mof_H 	H 	0.6421	0.2503	0.3624	-0.009
Mof_C 	C 	0.62313	0.2268	0.40558	-0.229
Mof_C 	C 	0.59326	0.2123	0.42013	0.079
Mof_H 	H 	0.5939	0.2031	0.4425	0.013
Mof_C 	C 	0.56237	0.2117	0.4012	-0.078
Mof_C 	C 	0.56134	0.2255	0.3677	0.039
Mof_H 	H 	0.5407	0.225	0.355	0.044
Mof_C 	C 	0.6581	0.2254	0.42253	0.586
Mof_C 	C 	0.53123	0.1971	0.4183	0.121
Mof_C 	C 	0.53153	0.1706	0.4431	-0.167
Mof_H 	H 	0.5526	0.1618	0.4513	0.095
Mof_C 	C 	0.5923	0.27706	0.123	-0.07
Mof_C 	C 	0.6279	0.27085	0.1208	0.005
Mof_H 	H 	0.6403	0.2641	0.1406	0.008
Mof_C 	C 	0.6451	0.27475	0.0892	-0.052
Mof_C 	C 	0.6266	0.2849	0.0597	-0.001
Mof_H 	H 	0.6381	0.2875	0.0385	0.03
Mof_C 	C 	0.591	0.2911	0.0618	-0.002
Mof_C 	C 	0.5738	0.28717	0.0935	0.032
Mof_H 	H 	0.55	0.2913	0.095	0.092
Mof_C 	C 	0.5707	0.3018	0.03139	0.027
Mof_C 	C 	0.542	0.3239	0.03143	-0.056
Mof_H 	H 	0.5324	0.3313	0.0525	0.048
Mof_Sm	Sm	0.9111	0.75667	0.25693	2.385
Mof_O 	O 	0.96154	0.7807	0.3424	-0.582
Mof_O 	O 	0.91271	0.7622	0.31849	-0.6
Mof_O 	O 	0.80018	0.76102	0.38257	-0.504
Mof_O 	O 	0.8001	0.7672	0.43899	-0.457
Mof_O 	O 	0.93893	0.7488	0.2005	-0.477
Mof_O 	O 	0.88317	0.7565	0.20025	-0.521
Mof_O 	O 	0.81793	0.74478	0.08739	-0.637
Mof_O 	O 	0.8394	0.7038	0.0537	-0.65
Mof_O 	O 	0.97169	0.76985	0.26763	-0.768
Mof_C 	C 	0.92929	0.77366	0.3439	0.52
Mof_C 	C 	0.9081	0.7799	0.3764	-0.061
Mof_C 	C 	0.8733	0.77	0.3764	0.021
Mof_H 	H 	0.8635	0.7599	0.3566	0.012
Mof_C 	C 	0.8529	0.7753	0.4059	-0.02
Mof_C 	C 	0.8675	0.7904	0.4354	-0.013
Mof_H 	H 	0.8539	0.794	0.4552	0.029
Mof_C 	C 	0.9023	0.8003	0.4354	-0.022
Mof_C 	C 	0.9227	0.795	0.4059	-0.026
Mof_H 	H 	0.946	0.8016	0.4059	-0.061
Mof_C 	C 	0.81581	0.76729	0.4107	0.331
Mof_C 	C 	0.9143	0.8164	0.4686	0.03
Mof_C 	C 	0.938	0.8441	0.46857	-0.044
Mof_H 	H 	0.9459	0.8532	0.4475	0.046
Mof_C 	C 	0.91054	0.74896	0.18474	0.369
Mof_C 	C 	0.90879	0.74	0.14685	-0.139
Mof_C 	C 	0.8779	0.7406	0.12791	0.111
Mof_H 	H 	0.8579	0.7503	0.1376	-0.008
Mof_C 	C 	0.87687	0.7268	0.09442	-0.227
Mof_C 	C 	0.90674	0.7123	0.07987	0.078
Mof_H 	H 	0.9061	0.7031	0.0575	0.013
Mof_C 	C 	0.93763	0.7117	0.0988	-0.076
Mof_C 	C 	0.93866	0.7255	0.1323	0.037
Mof_H 	H 	0.9593	0.725	0.145	0.047
Mof_C 	C 	0.8419	0.7254	0.07747	0.584
Mof_C 	C 	0.96877	0.6971	0.0817	0.123
Mof_C 	C 	0.96847	0.6706	0.0569	-0.148
Mof_H 	H 	0.9474	0.6618	0.0487	0.09
Mof_C 	C 	0.9077	0.77706	0.377	-0.069
Mof_C 	C 	0.8721	0.77085	0.3792	0.005
Mof_H 	H 	0.8597	0.7641	0.3594	0.008
Mof_C 	C 	0.8549	0.77475	0.4108	-0.051
Mof_C 	C 	0.8734	0.7849	0.4403	0
Mof_H 	H 	0.8619	0.7875	0.4615	0.031
Mof_C 	C 	0.909	0.7911	0.4382	0.005
Mof_C 	C 	0.9262	0.78717	0.4065	0.034
Mof_H 	H 	0.95	0.7913	0.405	0.096
Mof_C 	C 	0.9293	0.8018	0.46861	0.046
Mof_C 	C 	0.958	0.8239	0.46857	-0.063
Mof_H 	H 	0.9676	0.8313	0.4475	0.053
Mof_Sm	Sm	0.4111	0.25667	0.75693	2.386
Mof_O 	O 	0.46154	0.2807	0.8424	-0.59
Mof_O 	O 	0.41271	0.2622	0.81849	-0.601
Mof_O 	O 	0.30018	0.26102	0.88257	-0.504
Mof_O 	O 	0.3001	0.2672	0.93899	-0.454
Mof_O 	O 	0.43893	0.2488	0.7005	-0.48
Mof_O 	O 	0.38317	0.2565	0.70025	-0.522
Mof_O 	O 	0.31793	0.24478	0.58739	-0.638
Mof_O 	O 	0.3394	0.2038	0.5537	-0.653
Mof_O 	O 	0.47169	0.26985	0.76763	-0.782
Mof_C 	C 	0.42929	0.27366	0.8439	0.522
Mof_C 	C 	0.4081	0.2799	0.8764	-0.062
Mof_C 	C 	0.3733	0.27	0.8764	0.021
Mof_H 	H 	0.3635	0.2599	0.8566	0.012
Mof_C 	C 	0.3529	0.2753	0.9059	-0.019
Mof_C 	C 	0.3675	0.2904	0.9354	-0.013
Mof_H 	H 	0.3539	0.294	0.9552	0.025
Mof_C 	C 	0.4023	0.3003	0.9354	-0.017
Mof_C 	C 	0.4227	0.295	0.9059	-0.026
Mof_H 	H 	0.446	0.3016	0.9059	-0.068
Mof_C 	C 	0.31581	0.26729	0.9107	0.331
Mof_C 	C 	0.4143	0.3164	0.9686	0.051
Mof_C 	C 	0.438	0.3441	0.96857	-0.048
Mof_H 	H 	0.4459	0.3532	0.9475	0.047
Mof_C 	C 	0.41054	0.24896	0.68474	0.37
Mof_C 	C 	0.40879	0.24	0.64685	-0.141
Mof_C 	C 	0.3779	0.2406	0.62791	0.112
Mof_H 	H 	0.3579	0.2503	0.6376	-0.009
Mof_C 	C 	0.37687	0.2268	0.59442	-0.229
Mof_C 	C 	0.40674	0.2123	0.57987	0.079
Mof_H 	H 	0.4061	0.2031	0.5575	0.013
Mof_C 	C 	0.43763	0.2117	0.5988	-0.078
Mof_C 	C 	0.43866	0.2255	0.6323	0.039
Mof_H 	H 	0.4593	0.225	0.645	0.044
Mof_C 	C 	0.3419	0.2254	0.57747	0.586
Mof_C 	C 	0.46877	0.1971	0.5817	0.121
Mof_C 	C 	0.46847	0.1706	0.5569	-0.167
Mof_H 	H 	0.4474	0.1618	0.5487	0.095
Mof_C 	C 	0.4077	0.27706	0.877	-0.07
Mof_C 	C 	0.3721	0.27085	0.8792	0.006
Mof_H 	H 	0.3597	0.2641	0.8594	0.008
Mof_C 	C 	0.3549	0.27475	0.9108	-0.051
Mof_C 	C 	0.3734	0.2849	0.9403	0.001
Mof_H 	H 	0.3619	0.2875	0.9615	0.038
Mof_C 	C 	0.409	0.2911	0.9382	-0.002
Mof_C 	C 	0.4262	0.28717	0.9065	0.035
Mof_H 	H 	0.45	0.2913	0.905	0.1
Mof_C 	C 	0.4293	0.3018	0.96861	0.031
Mof_C 	C 	0.458	0.3239	0.96857	-0.051
Mof_H 	H 	0.4676	0.3313	0.9475	0.048
Mof_Sm	Sm	0.74307	0.9111	0.75667	2.385
Mof_O 	O 	0.6576	0.96154	0.7807	-0.582
Mof_O 	O 	0.68151	0.91271	0.7622	-0.6
Mof_O 	O 	0.61743	0.80018	0.76102	-0.504
Mof_O 	O 	0.56101	0.8001	0.7672	-0.457
Mof_O 	O 	0.7995	0.93893	0.7488	-0.477
Mof_O 	O 	0.79975	0.88317	0.7565	-0.521
Mof_O 	O 	0.91261	0.81793	0.74478	-0.636
Mof_O 	O 	0.9463	0.8394	0.7038	-0.645
Mof_O 	O 	0.73237	0.97169	0.76985	-0.768
Mof_C 	C 	0.6561	0.92929	0.77366	0.52
Mof_C 	C 	0.6236	0.9081	0.7799	-0.061
Mof_C 	C 	0.6236	0.8733	0.77	0.021
Mof_H 	H 	0.6434	0.8635	0.7599	0.012
Mof_C 	C 	0.5941	0.8529	0.7753	-0.02
Mof_C 	C 	0.5646	0.8675	0.7904	-0.013
Mof_H 	H 	0.5448	0.8539	0.794	0.029
Mof_C 	C 	0.5646	0.9023	0.8003	-0.022
Mof_C 	C 	0.5941	0.9227	0.795	-0.026
Mof_H 	H 	0.5941	0.946	0.8016	-0.061
Mof_C 	C 	0.5893	0.81581	0.76729	0.331
Mof_C 	C 	0.5314	0.9143	0.8164	0.03
Mof_C 	C 	0.53143	0.938	0.8441	-0.044
Mof_H 	H 	0.5525	0.9459	0.8532	0.046
Mof_C 	C 	0.81526	0.91054	0.74896	0.369
Mof_C 	C 	0.85315	0.90879	0.74	-0.137
Mof_C 	C 	0.87209	0.8779	0.7406	0.11
Mof_H 	H 	0.8624	0.8579	0.7503	-0.007
Mof_C 	C 	0.90558	0.87687	0.7268	-0.224
Mof_C 	C 	0.92013	0.90674	0.7123	0.076
Mof_H 	H 	0.9425	0.9061	0.7031	0.017
Mof_C 	C 	0.9012	0.93763	0.7117	-0.074
Mof_C 	C 	0.8677	0.93866	0.7255	0.037
Mof_H 	H 	0.855	0.9593	0.725	0.047
Mof_C 	C 	0.92253	0.8419	0.7254	0.583
Mof_C 	C 	0.9183	0.96877	0.6971	0.123
Mof_C 	C 	0.9431	0.96847	0.6706	-0.146
Mof_H 	H 	0.9513	0.9474	0.6618	0.092
Mof_C 	C 	0.623	0.9077	0.77706	-0.069
Mof_C 	C 	0.6208	0.8721	0.77085	0.005
Mof_H 	H 	0.6406	0.8597	0.7641	0.008
Mof_C 	C 	0.5892	0.8549	0.77475	-0.051
Mof_C 	C 	0.5597	0.8734	0.7849	0
Mof_H 	H 	0.5385	0.8619	0.7875	0.031
Mof_C 	C 	0.5618	0.909	0.7911	0.005
Mof_C 	C 	0.5935	0.9262	0.78717	0.034
Mof_H 	H 	0.595	0.95	0.7913	0.096
Mof_C 	C 	0.53139	0.9293	0.8018	0.046
Mof_C 	C 	0.53143	0.958	0.8239	-0.063
Mof_H 	H 	0.5525	0.9676	0.8313	0.053
Mof_Sm	Sm	0.24307	0.4111	0.25667	2.386
Mof_O 	O 	0.1576	0.46154	0.2807	-0.59
Mof_O 	O 	0.18151	0.41271	0.2622	-0.601
Mof_O 	O 	0.11743	0.30018	0.26102	-0.504
Mof_O 	O 	0.06101	0.3001	0.2672	-0.458
Mof_O 	O 	0.2995	0.43893	0.2488	-0.48
Mof_O 	O 	0.29975	0.38317	0.2565	-0.522
Mof_O 	O 	0.41261	0.31793	0.24478	-0.638
Mof_O 	O 	0.4463	0.3394	0.2038	-0.653
Mof_O 	O 	0.23237	0.47169	0.26985	-0.782
Mof_C 	C 	0.1561	0.42929	0.27366	0.522
Mof_C 	C 	0.1236	0.4081	0.2799	-0.062
Mof_C 	C 	0.1236	0.3733	0.27	0.021
Mof_H 	H 	0.1434	0.3635	0.2599	0.012
Mof_C 	C 	0.0941	0.3529	0.2753	-0.02
Mof_C 	C 	0.0646	0.3675	0.2904	-0.013
Mof_H 	H 	0.0448	0.3539	0.294	0.029
Mof_C 	C 	0.0646	0.4023	0.3003	-0.017
Mof_C 	C 	0.0941	0.4227	0.295	-0.025
Mof_H 	H 	0.0941	0.446	0.3016	-0.06
Mof_C 	C 	0.0893	0.31581	0.26729	0.331
Mof_C 	C 	0.0314	0.4143	0.3164	0.047
Mof_C 	C 	0.03143	0.438	0.3441	-0.054
Mof_H 	H 	0.0525	0.4459	0.3532	0.047
Mof_C 	C 	0.31526	0.41054	0.24896	0.37
Mof_C 	C 	0.35315	0.40879	0.24	-0.141
Mof_C 	C 	0.37209	0.3779	0.2406	0.112
Mof_H 	H 	0.3624	0.3579	0.2503	-0.009
Mof_C 	C 	0.40558	0.37687	0.2268	-0.229
Mof_C 	C 	0.42013	0.40674	0.2123	0.079
Mof_H 	H 	0.4425	0.4061	0.2031	0.013
Mof_C 	C 	0.4012	0.43763	0.2117	-0.078
Mof_C 	C 	0.3677	0.43866	0.2255	0.039
Mof_H 	H 	0.355	0.4593	0.225	0.044
Mof_C 	C 	0.42253	0.3419	0.2254	0.586
Mof_C 	C 	0.4183	0.46877	0.1971	0.121
Mof_C 	C 	0.4431	0.46847	0.1706	-0.167
Mof_H 	H 	0.4513	0.4474	0.1618	0.095
Mof_C 	C 	0.123	0.4077	0.27706	-0.07
Mof_C 	C 	0.1208	0.3721	0.27085	0.005
Mof_H 	H 	0.1406	0.3597	0.2641	0.008
Mof_C 	C 	0.0892	0.3549	0.27475	-0.052
Mof_C 	C 	0.0597	0.3734	0.2849	-0.001
Mof_H 	H 	0.0385	0.3619	0.2875	0.03
Mof_C 	C 	0.0618	0.409	0.2911	-0.002
Mof_C 	C 	0.0935	0.4262	0.28717	0.032
Mof_H 	H 	0.095	0.45	0.2913	0.092
Mof_C 	C 	0.03139	0.4293	0.3018	0.027
Mof_C 	C 	0.03143	0.458	0.3239	-0.056
Mof_H 	H 	0.0525	0.4676	0.3313	0.048
Mof_Sm	Sm	0.25693	0.0889	0.75667	2.383
Mof_O 	O 	0.3424	0.03846	0.7807	-0.589
Mof_O 	O 	0.31849	0.08729	0.7622	-0.601
Mof_O 	O 	0.38257	0.19982	0.76102	-0.504
Mof_O 	O 	0.43899	0.1999	0.7672	-0.457
Mof_O 	O 	0.2005	0.06107	0.7488	-0.481
Mof_O 	O 	0.20025	0.11683	0.7565	-0.522
Mof_O 	O 	0.08739	0.18207	0.74478	-0.638
Mof_O 	O 	0.0537	0.1606	0.7038	-0.65
Mof_O 	O 	0.26763	0.02831	0.76985	-0.776
Mof_C 	C 	0.3439	0.07071	0.77366	0.521
Mof_C 	C 	0.3764	0.0919	0.7799	-0.062
Mof_C 	C 	0.3764	0.1267	0.77	0.021
Mof_H 	H 	0.3566	0.1365	0.7599	0.012
Mof_C 	C 	0.4059	0.1471	0.7753	-0.02
Mof_C 	C 	0.4354	0.1325	0.7904	-0.013
Mof_H 	H 	0.4552	0.1461	0.794	0.027
Mof_C 	C 	0.4354	0.0977	0.8003	-0.013
Mof_C 	C 	0.4059	0.0773	0.795	-0.023
Mof_H 	H 	0.4059	0.054	0.8016	-0.059
Mof_C 	C 	0.4107	0.18419	0.76729	0.331
Mof_C 	C 	0.4686	0.0857	0.8164	0.067
Mof_C 	C 	0.46857	0.062	0.8441	-0.068
Mof_H 	H 	0.4475	0.0541	0.8532	0.052
Mof_C 	C 	0.18474	0.08946	0.74896	0.37
Mof_C 	C 	0.14685	0.09121	0.74	-0.141
Mof_C 	C 	0.12791	0.1221	0.7406	0.111
Mof_H 	H 	0.1376	0.1421	0.7503	-0.009
Mof_C 	C 	0.09442	0.12313	0.7268	-0.228
Mof_C 	C 	0.07987	0.09326	0.7123	0.077
Mof_H 	H 	0.0575	0.0939	0.7031	0.013
Mof_C 	C 	0.0988	0.06237	0.7117	-0.077
Mof_C 	C 	0.1323	0.06134	0.7255	0.037
Mof_H 	H 	0.145	0.0407	0.725	0.042
Mof_C 	C 	0.07747	0.1581	0.7254	0.584
Mof_C 	C 	0.0817	0.03123	0.6971	0.115
Mof_C 	C 	0.0569	0.03153	0.6706	-0.158
Mof_H 	H 	0.0487	0.0526	0.6618	0.091
Mof_C 	C 	0.377	0.0923	0.77706	-0.07
Mof_C 	C 	0.3792	0.1279	0.77085	0.005
Mof_H 	H 	0.3594	0.1403	0.7641	0.008
Mof_C 	C 	0.4108	0.1451	0.77475	-0.051
Mof_C 	C 	0.4403	0.1266	0.7849	-0.001
Mof_H 	H 	0.4615	0.1381	0.7875	0.033
Mof_C 	C 	0.4382	0.091	0.7911	-0.007
Mof_C 	C 	0.4065	0.0738	0.78717	0.032
Mof_H 	H 	0.405	0.05	0.7913	0.09
Mof_C 	C 	0.46861	0.0707	0.8018	0.012
Mof_C 	C 	0.46857	0.042	0.8239	-0.055
Mof_H 	H 	0.4475	0.0324	0.8313	0.046
Mof_Sm	Sm	0.75693	0.5889	0.25667	2.386
Mof_O 	O 	0.8424	0.53846	0.2807	-0.59
Mof_O 	O 	0.81849	0.58729	0.2622	-0.601
Mof_O 	O 	0.88257	0.69982	0.26102	-0.504
Mof_O 	O 	0.93899	0.6999	0.2672	-0.454
Mof_O 	O 	0.7005	0.56107	0.2488	-0.48
Mof_O 	O 	0.70025	0.61683	0.2565	-0.522
Mof_O 	O 	0.58739	0.68207	0.24478	-0.638
Mof_O 	O 	0.5537	0.6606	0.2038	-0.653
Mof_O 	O 	0.76763	0.52831	0.26985	-0.782
Mof_C 	C 	0.8439	0.57071	0.27366	0.522
Mof_C 	C 	0.8764	0.5919	0.2799	-0.062
Mof_C 	C 	0.8764	0.6267	0.27	0.021
Mof_H 	H 	0.8566	0.6365	0.2599	0.012
Mof_C 	C 	0.9059	0.6471	0.2753	-0.019
Mof_C 	C 	0.9354	0.6325	0.2904	-0.013
Mof_H 	H 	0.9552	0.6461	0.294	0.025
Mof_C 	C 	0.9354	0.5977	0.3003	-0.017
Mof_C 	C 	0.9059	0.5773	0.295	-0.026
Mof_H 	H 	0.9059	0.554	0.3016	-0.068
Mof_C 	C 	0.9107	0.68419	0.26729	0.331
Mof_C 	C 	0.9686	0.5857	0.3164	0.051
Mof_C 	C 	0.96857	0.562	0.3441	-0.048
Mof_H 	H 	0.9475	0.5541	0.3532	0.047
Mof_C 	C 	0.68474	0.58946	0.24896	0.37
Mof_C 	C 	0.64685	0.59121	0.24	-0.141
Mof_C 	C 	0.62791	0.6221	0.2406	0.112
Mof_H 	H 	0.6376	0.6421	0.2503	-0.009
Mof_C 	C 	0.59442	0.62313	0.2268	-0.229
Mof_C 	C 	0.57987	0.59326	0.2123	0.079
Mof_H 	H 	0.5575	0.5939	0.2031	0.013
Mof_C 	C 	0.5988	0.56237	0.2117	-0.078
Mof_C 	C 	0.6323	0.56134	0.2255	0.039
Mof_H 	H 	0.645	0.5407	0.225	0.044
Mof_C 	C 	0.57747	0.6581	0.2254	0.586
Mof_C 	C 	0.5817	0.53123	0.1971	0.121
Mof_C 	C 	0.5569	0.53153	0.1706	-0.167
Mof_H 	H 	0.5487	0.5526	0.1618	0.095
Mof_C 	C 	0.877	0.5923	0.27706	-0.07
Mof_C 	C 	0.8792	0.6279	0.27085	0.006
Mof_H 	H 	0.8594	0.6403	0.2641	0.008
Mof_C 	C 	0.9108	0.6451	0.27475	-0.051
Mof_C 	C 	0.9403	0.6266	0.2849	0.001
Mof_H 	H 	0.9615	0.6381	0.2875	0.038
Mof_C 	C 	0.9382	0.591	0.2911	-0.002
Mof_C 	C 	0.9065	0.5738	0.28717	0.035
Mof_H 	H 	0.905	0.55	0.2913	0.1
Mof_C 	C 	0.96861	0.5707	0.3018	0.031
Mof_C 	C 	0.96857	0.542	0.3239	-0.051
Mof_H 	H 	0.9475	0.5324	0.3313	0.048
Mof_Sm	Sm	0.25693	0.9111	0.24333	2.385
Mof_O 	O 	0.3424	0.96154	0.2193	-0.582
Mof_O 	O 	0.31849	0.91271	0.2378	-0.6
Mof_O 	O 	0.38257	0.80018	0.23898	-0.504
Mof_O 	O 	0.43899	0.8001	0.2328	-0.457
Mof_O 	O 	0.2005	0.93893	0.2512	-0.477
Mof_O 	O 	0.20025	0.88317	0.2435	-0.521
Mof_O 	O 	0.08739	0.81793	0.25522	-0.637
Mof_O 	O 	0.0537	0.8394	0.2962	-0.65
Mof_O 	O 	0.26763	0.97169	0.23015	-0.768
Mof_C 	C 	0.3439	0.92929	0.22634	0.52
Mof_C 	C 	0.3764	0.9081	0.2201	-0.061
Mof_C 	C 	0.3764	0.8733	0.23	0.021
Mof_H 	H 	0.3566	0.8635	0.2401	0.012
Mof_C 	C 	0.4059	0.8529	0.2247	-0.02
Mof_C 	C 	0.4354	0.8675	0.2096	-0.013
Mof_H 	H 	0.4552	0.8539	0.206	0.028
Mof_C 	C 	0.4354	0.9023	0.1997	-0.022
Mof_C 	C 	0.4059	0.9227	0.205	-0.027
Mof_H 	H 	0.4059	0.946	0.1984	-0.063
Mof_C 	C 	0.4107	0.81581	0.23271	0.331
Mof_C 	C 	0.4686	0.9143	0.1836	0.029
Mof_C 	C 	0.46857	0.938	0.1559	-0.045
Mof_H 	H 	0.4475	0.9459	0.1468	0.045
Mof_C 	C 	0.18474	0.91054	0.25104	0.369
Mof_C 	C 	0.14685	0.90879	0.26	-0.139
Mof_C 	C 	0.12791	0.8779	0.2594	0.111
Mof_H 	H 	0.1376	0.8579	0.2497	-0.008
Mof_C 	C 	0.09442	0.87687	0.2732	-0.227
Mof_C 	C 	0.07987	0.90674	0.2877	0.078
Mof_H 	H 	0.0575	0.9061	0.2969	0.013
Mof_C 	C 	0.0988	0.93763	0.2883	-0.076
Mof_C 	C 	0.1323	0.93866	0.2745	0.037
Mof_H 	H 	0.145	0.9593	0.275	0.047
Mof_C 	C 	0.07747	0.8419	0.2746	0.584
Mof_C 	C 	0.0817	0.96877	0.3029	0.122
Mof_C 	C 	0.0569	0.96847	0.3294	-0.148
Mof_H 	H 	0.0487	0.9474	0.3382	0.09
Mof_C 	C 	0.377	0.9077	0.22294	-0.069
Mof_C 	C 	0.3792	0.8721	0.22915	0.005
Mof_H 	H 	0.3594	0.8597	0.2359	0.008
Mof_C 	C 	0.4108	0.8549	0.22525	-0.051
Mof_C 	C 	0.4403	0.8734	0.2151	0
Mof_H 	H 	0.4615	0.8619	0.2125	0.032
Mof_C 	C 	0.4382	0.909	0.2089	0.005
Mof_C 	C 	0.4065	0.9262	0.21283	0.034
Mof_H 	H 	0.405	0.95	0.2087	0.097
Mof_C 	C 	0.46861	0.9293	0.1982	0.046
Mof_C 	C 	0.46857	0.958	0.1761	-0.062
Mof_H 	H 	0.4475	0.9676	0.1687	0.053
Mof_Sm	Sm	0.75693	0.4111	0.74333	2.386
Mof_O 	O 	0.8424	0.46154	0.7193	-0.589
Mof_O 	O 	0.81849	0.41271	0.7378	-0.601
Mof_O 	O 	0.88257	0.30018	0.73898	-0.504
Mof_O 	O 	0.93899	0.3001	0.7328	-0.454
Mof_O 	O 	0.7005	0.43893	0.7512	-0.48
Mof_O 	O 	0.70025	0.38317	0.7435	-0.522
Mof_O 	O 	0.58739	0.31793	0.75522	-0.638
Mof_O 	O 	0.5537	0.3394	0.7962	-0.653
Mof_O 	O 	0.76763	0.47169	0.73015	-0.782
Mof_C 	C 	0.8439	0.42929	0.72634	0.522
Mof_C 	C 	0.8764	0.4081	0.7201	-0.062
Mof_C 	C 	0.8764	0.3733	0.73	0.021
Mof_H 	H 	0.8566	0.3635	0.7401	0.012
Mof_C 	C 	0.9059	0.3529	0.7247	-0.019
Mof_C 	C 	0.9354	0.3675	0.7096	-0.013
Mof_H 	H 	0.9552	0.3539	0.706	0.025
Mof_C 	C 	0.9354	0.4023	0.6997	-0.017
Mof_C 	C 	0.9059	0.4227	0.705	-0.026
Mof_H 	H 	0.9059	0.446	0.6984	-0.069
Mof_C 	C 	0.9107	0.31581	0.73271	0.331
Mof_C 	C 	0.9686	0.4143	0.6836	0.051
Mof_C 	C 	0.96857	0.438	0.6559	-0.048
Mof_H 	H 	0.9475	0.4459	0.6468	0.047
Mof_C 	C 	0.68474	0.41054	0.75104	0.37
Mof_C 	C 	0.64685	0.40879	0.76	-0.141
Mof_C 	C 	0.62791	0.3779	0.7594	0.112
Mof_H 	H 	0.6376	0.3579	0.7497	-0.009
Mof_C 	C 	0.59442	0.37687	0.7732	-0.229
Mof_C 	C 	0.57987	0.40674	0.7877	0.079
Mof_H 	H 	0.5575	0.4061	0.7969	0.013
Mof_C 	C 	0.5988	0.43763	0.7883	-0.078
Mof_C 	C 	0.6323	0.43866	0.7745	0.039
Mof_H 	H 	0.645	0.4593	0.775	0.044
Mof_C 	C 	0.57747	0.3419	0.7746	0.586
Mof_C 	C 	0.5817	0.46877	0.8029	0.121
Mof_C 	C 	0.5569	0.46847	0.8294	-0.166
Mof_H 	H 	0.5487	0.4474	0.8382	0.096
Mof_C 	C 	0.877	0.4077	0.72294	-0.07
Mof_C 	C 	0.8792	0.3721	0.72915	0.006
Mof_H 	H 	0.8594	0.3597	0.7359	0.008
Mof_C 	C 	0.9108	0.3549	0.72525	-0.051
Mof_C 	C 	0.9403	0.3734	0.7151	0.001
Mof_H 	H 	0.9615	0.3619	0.7125	0.038
Mof_C 	C 	0.9382	0.409	0.7089	-0.002
Mof_C 	C 	0.9065	0.4262	0.71283	0.036
Mof_H 	H 	0.905	0.45	0.7087	0.101
Mof_C 	C 	0.96861	0.4293	0.6982	0.031
Mof_C 	C 	0.96857	0.458	0.6761	-0.051
Mof_H 	H 	0.9475	0.4676	0.6687	0.048
Mof_Sm	Sm	0.74307	0.0889	0.24333	2.383
Mof_O 	O 	0.6576	0.03846	0.2193	-0.589
Mof_O 	O 	0.68151	0.08729	0.2378	-0.601
Mof_O 	O 	0.61743	0.19982	0.23898	-0.504
Mof_O 	O 	0.56101	0.1999	0.2328	-0.457
Mof_O 	O 	0.7995	0.06107	0.2512	-0.481
Mof_O 	O 	0.79975	0.11683	0.2435	-0.522
Mof_O 	O 	0.91261	0.18207	0.25522	-0.636
Mof_O 	O 	0.9463	0.1606	0.2962	-0.645
Mof_O 	O 	0.73237	0.02831	0.23015	-0.776
Mof_C 	C 	0.6561	0.07071	0.22634	0.521
Mof_C 	C 	0.6236	0.0919	0.2201	-0.062
Mof_C 	C 	0.6236	0.1267	0.23	0.021
Mof_H 	H 	0.6434	0.1365	0.2401	0.012
Mof_C 	C 	0.5941	0.1471	0.2247	-0.02
Mof_C 	C 	0.5646	0.1325	0.2096	-0.013
Mof_H 	H 	0.5448	0.1461	0.206	0.027
Mof_C 	C 	0.5646	0.0977	0.1997	-0.013
Mof_C 	C 	0.5941	0.0773	0.205	-0.023
Mof_H 	H 	0.5941	0.054	0.1984	-0.06
Mof_C 	C 	0.5893	0.18419	0.23271	0.331
Mof_C 	C 	0.5314	0.0857	0.1836	0.066
Mof_C 	C 	0.53143	0.062	0.1559	-0.069
Mof_H 	H 	0.5525	0.0541	0.1468	0.051
Mof_C 	C 	0.81526	0.08946	0.25104	0.369
Mof_C 	C 	0.85315	0.09121	0.26	-0.14
Mof_C 	C 	0.87209	0.1221	0.2594	0.11
Mof_H 	H 	0.8624	0.1421	0.2497	-0.008
Mof_C 	C 	0.90558	0.12313	0.2732	-0.226
Mof_C 	C 	0.92013	0.09326	0.2877	0.076
Mof_H 	H 	0.9425	0.0939	0.2969	0.016
Mof_C 	C 	0.9012	0.06237	0.2883	-0.076
Mof_C 	C 	0.8677	0.06134	0.2745	0.037
Mof_H 	H 	0.855	0.0407	0.275	0.043
Mof_C 	C 	0.92253	0.1581	0.2746	0.583
Mof_C 	C 	0.9183	0.03123	0.3029	0.116
Mof_C 	C 	0.9431	0.03153	0.3294	-0.156
Mof_H 	H 	0.9513	0.0526	0.3382	0.094
Mof_C 	C 	0.623	0.0923	0.22294	-0.07
Mof_C 	C 	0.6208	0.1279	0.22915	0.005
Mof_H 	H 	0.6406	0.1403	0.2359	0.008
Mof_C 	C 	0.5892	0.1451	0.22525	-0.052
Mof_C 	C 	0.5597	0.1266	0.2151	-0.001
Mof_H 	H 	0.5385	0.1381	0.2125	0.033
Mof_C 	C 	0.5618	0.091	0.2089	-0.008
Mof_C 	C 	0.5935	0.0738	0.21283	0.032
Mof_H 	H 	0.595	0.05	0.2087	0.092
Mof_C 	C 	0.53139	0.0707	0.1982	0.013
Mof_C 	C 	0.53143	0.042	0.1761	-0.054
Mof_H 	H 	0.5525	0.0324	0.1687	0.046
Mof_Sm	Sm	0.24307	0.5889	0.74333	2.386
Mof_O 	O 	0.1576	0.53846	0.7193	-0.59
Mof_O 	O 	0.18151	0.58729	0.7378	-0.601
Mof_O 	O 	0.11743	0.69982	0.73898	-0.504
Mof_O 	O 	0.06101	0.6999	0.7328	-0.458
Mof_O 	O 	0.2995	0.56107	0.7512	-0.48
Mof_O 	O 	0.29975	0.61683	0.7435	-0.522
Mof_O 	O 	0.41261	0.68207	0.75522	-0.638
Mof_O 	O 	0.4463	0.6606	0.7962	-0.653
Mof_O 	O 	0.23237	0.52831	0.73015	-0.782
Mof_C 	C 	0.1561	0.57071	0.72634	0.522
Mof_C 	C 	0.1236	0.5919	0.7201	-0.062
Mof_C 	C 	0.1236	0.6267	0.73	0.021
Mof_H 	H 	0.1434	0.6365	0.7401	0.012
Mof_C 	C 	0.0941	0.6471	0.7247	-0.02
Mof_C 	C 	0.0646	0.6325	0.7096	-0.013
Mof_H 	H 	0.0448	0.6461	0.706	0.028
Mof_C 	C 	0.0646	0.5977	0.6997	-0.017
Mof_C 	C 	0.0941	0.5773	0.705	-0.025
Mof_H 	H 	0.0941	0.554	0.6984	-0.061
Mof_C 	C 	0.0893	0.68419	0.73271	0.331
Mof_C 	C 	0.0314	0.5857	0.6836	0.047
Mof_C 	C 	0.03143	0.562	0.6559	-0.054
Mof_H 	H 	0.0525	0.5541	0.6468	0.047
Mof_C 	C 	0.31526	0.58946	0.75104	0.37
Mof_C 	C 	0.35315	0.59121	0.76	-0.141
Mof_C 	C 	0.37209	0.6221	0.7594	0.112
Mof_H 	H 	0.3624	0.6421	0.7497	-0.009
Mof_C 	C 	0.40558	0.62313	0.7732	-0.229
Mof_C 	C 	0.42013	0.59326	0.7877	0.079
Mof_H 	H 	0.4425	0.5939	0.7969	0.013
Mof_C 	C 	0.4012	0.56237	0.7883	-0.078
Mof_C 	C 	0.3677	0.56134	0.7745	0.039
Mof_H 	H 	0.355	0.5407	0.775	0.044
Mof_C 	C 	0.42253	0.6581	0.7746	0.586
Mof_C 	C 	0.4183	0.53123	0.8029	0.121
Mof_C 	C 	0.4431	0.53153	0.8294	-0.166
Mof_H 	H 	0.4513	0.5526	0.8382	0.096
Mof_C 	C 	0.123	0.5923	0.72294	-0.07
Mof_C 	C 	0.1208	0.6279	0.72915	0.005
Mof_H 	H 	0.1406	0.6403	0.7359	0.008
Mof_C 	C 	0.0892	0.6451	0.72525	-0.052
Mof_C 	C 	0.0597	0.6266	0.7151	-0.001
Mof_H 	H 	0.0385	0.6381	0.7125	0.03
Mof_C 	C 	0.0618	0.591	0.7089	-0.002
Mof_C 	C 	0.0935	0.5738	0.71283	0.033
Mof_H 	H 	0.095	0.55	0.7087	0.093
Mof_C 	C 	0.03139	0.5707	0.6982	0.027
Mof_C 	C 	0.03143	0.542	0.6761	-0.056
Mof_H 	H 	0.0525	0.5324	0.6687	0.048
Mof_Sm	Sm	0.75667	0.74307	0.9111	2.385
Mof_O 	O 	0.7807	0.6576	0.96154	-0.582
Mof_O 	O 	0.7622	0.68151	0.91271	-0.6
Mof_O 	O 	0.76102	0.61743	0.80018	-0.504
Mof_O 	O 	0.7672	0.56101	0.8001	-0.457
Mof_O 	O 	0.7488	0.7995	0.93893	-0.477
Mof_O 	O 	0.7565	0.79975	0.88317	-0.521
Mof_O 	O 	0.74478	0.91261	0.81793	-0.636
Mof_O 	O 	0.7038	0.9463	0.8394	-0.645
Mof_O 	O 	0.76985	0.73237	0.97169	-0.768
Mof_C 	C 	0.77366	0.6561	0.92929	0.52
Mof_C 	C 	0.7799	0.6236	0.9081	-0.061
Mof_C 	C 	0.77	0.6236	0.8733	0.021
Mof_H 	H 	0.7599	0.6434	0.8635	0.012
Mof_C 	C 	0.7753	0.5941	0.8529	-0.02
Mof_C 	C 	0.7904	0.5646	0.8675	-0.013
Mof_H 	H 	0.794	0.5448	0.8539	0.029
Mof_C 	C 	0.8003	0.5646	0.9023	-0.022
Mof_C 	C 	0.795	0.5941	0.9227	-0.026
Mof_H 	H 	0.8016	0.5941	0.946	-0.061
Mof_C 	C 	0.76729	0.5893	0.81581	0.331
Mof_C 	C 	0.8164	0.5314	0.9143	0.03
Mof_C 	C 	0.8441	0.53143	0.938	-0.044
Mof_H 	H 	0.8532	0.5525	0.9459	0.046
Mof_C 	C 	0.74896	0.81526	0.91054	0.369
Mof_C 	C 	0.74	0.85315	0.90879	-0.137
Mof_C 	C 	0.7406	0.87209	0.8779	0.11
Mof_H 	H 	0.7503	0.8624	0.8579	-0.007
Mof_C 	C 	0.7268	0.90558	0.87687	-0.224
Mof_C 	C 	0.7123	0.92013	0.90674	0.076
Mof_H 	H 	0.7031	0.9425	0.9061	0.017
Mof_C 	C 	0.7117	0.9012	0.93763	-0.074
Mof_C 	C 	0.7255	0.8677	0.93866	0.037
Mof_H 	H 	0.725	0.855	0.9593	0.047
Mof_C 	C 	0.7254	0.92253	0.8419	0.583
Mof_C 	C 	0.6971	0.9183	0.96877	0.123
Mof_C 	C 	0.6706	0.9431	0.96847	-0.146
Mof_H 	H 	0.6618	0.9513	0.9474	0.092
Mof_C 	C 	0.77706	0.623	0.9077	-0.069
Mof_C 	C 	0.77085	0.6208	0.8721	0.005
Mof_H 	H 	0.7641	0.6406	0.8597	0.008
Mof_C 	C 	0.77475	0.5892	0.8549	-0.051
Mof_C 	C 	0.7849	0.5597	0.8734	0
Mof_H 	H 	0.7875	0.5385	0.8619	0.031
Mof_C 	C 	0.7911	0.5618	0.909	0.005
Mof_C 	C 	0.78717	0.5935	0.9262	0.034
Mof_H 	H 	0.7913	0.595	0.95	0.096
Mof_C 	C 	0.8018	0.53139	0.9293	0.046
Mof_C 	C 	0.8239	0.53143	0.958	-0.063
Mof_H 	H 	0.8313	0.5525	0.9676	0.053
Mof_Sm	Sm	0.25667	0.24307	0.4111	2.386
Mof_O 	O 	0.2807	0.1576	0.46154	-0.59
Mof_O 	O 	0.2622	0.18151	0.41271	-0.601
Mof_O 	O 	0.26102	0.11743	0.30018	-0.504
Mof_O 	O 	0.2672	0.06101	0.3001	-0.458
Mof_O 	O 	0.2488	0.2995	0.43893	-0.48
Mof_O 	O 	0.2565	0.29975	0.38317	-0.522
Mof_O 	O 	0.24478	0.41261	0.31793	-0.638
Mof_O 	O 	0.2038	0.4463	0.3394	-0.653
Mof_O 	O 	0.26985	0.23237	0.47169	-0.782
Mof_C 	C 	0.27366	0.1561	0.42929	0.522
Mof_C 	C 	0.2799	0.1236	0.4081	-0.062
Mof_C 	C 	0.27	0.1236	0.3733	0.021
Mof_H 	H 	0.2599	0.1434	0.3635	0.012
Mof_C 	C 	0.2753	0.0941	0.3529	-0.02
Mof_C 	C 	0.2904	0.0646	0.3675	-0.013
Mof_H 	H 	0.294	0.0448	0.3539	0.029
Mof_C 	C 	0.3003	0.0646	0.4023	-0.017
Mof_C 	C 	0.295	0.0941	0.4227	-0.025
Mof_H 	H 	0.3016	0.0941	0.446	-0.06
Mof_C 	C 	0.26729	0.0893	0.31581	0.331
Mof_C 	C 	0.3164	0.0314	0.4143	0.047
Mof_C 	C 	0.3441	0.03143	0.438	-0.054
Mof_H 	H 	0.3532	0.0525	0.4459	0.047
Mof_C 	C 	0.24896	0.31526	0.41054	0.37
Mof_C 	C 	0.24	0.35315	0.40879	-0.141
Mof_C 	C 	0.2406	0.37209	0.3779	0.112
Mof_H 	H 	0.2503	0.3624	0.3579	-0.009
Mof_C 	C 	0.2268	0.40558	0.37687	-0.229
Mof_C 	C 	0.2123	0.42013	0.40674	0.079
Mof_H 	H 	0.2031	0.4425	0.4061	0.013
Mof_C 	C 	0.2117	0.4012	0.43763	-0.078
Mof_C 	C 	0.2255	0.3677	0.43866	0.039
Mof_H 	H 	0.225	0.355	0.4593	0.044
Mof_C 	C 	0.2254	0.42253	0.3419	0.586
Mof_C 	C 	0.1971	0.4183	0.46877	0.121
Mof_C 	C 	0.1706	0.4431	0.46847	-0.167
Mof_H 	H 	0.1618	0.4513	0.4474	0.095
Mof_C 	C 	0.27706	0.123	0.4077	-0.07
Mof_C 	C 	0.27085	0.1208	0.3721	0.005
Mof_H 	H 	0.2641	0.1406	0.3597	0.008
Mof_C 	C 	0.27475	0.0892	0.3549	-0.052
Mof_C 	C 	0.2849	0.0597	0.3734	-0.001
Mof_H 	H 	0.2875	0.0385	0.3619	0.03
Mof_C 	C 	0.2911	0.0618	0.409	-0.002
Mof_C 	C 	0.28717	0.0935	0.4262	0.032
Mof_H 	H 	0.2913	0.095	0.45	0.092
Mof_C 	C 	0.3018	0.03139	0.4293	0.027
Mof_C 	C 	0.3239	0.03143	0.458	-0.056
Mof_H 	H 	0.3313	0.0525	0.4676	0.048
Mof_Sm	Sm	0.75667	0.25693	0.0889	2.383
Mof_O 	O 	0.7807	0.3424	0.03846	-0.589
Mof_O 	O 	0.7622	0.31849	0.08729	-0.601
Mof_O 	O 	0.76102	0.38257	0.19982	-0.504
Mof_O 	O 	0.7672	0.43899	0.1999	-0.457
Mof_O 	O 	0.7488	0.2005	0.06107	-0.481
Mof_O 	O 	0.7565	0.20025	0.11683	-0.522
Mof_O 	O 	0.74478	0.08739	0.18207	-0.638
Mof_O 	O 	0.7038	0.0537	0.1606	-0.65
Mof_O 	O 	0.76985	0.26763	0.02831	-0.776
Mof_C 	C 	0.77366	0.3439	0.07071	0.521
Mof_C 	C 	0.7799	0.3764	0.0919	-0.062
Mof_C 	C 	0.77	0.3764	0.1267	0.021
Mof_H 	H 	0.7599	0.3566	0.1365	0.012
Mof_C 	C 	0.7753	0.4059	0.1471	-0.02
Mof_C 	C 	0.7904	0.4354	0.1325	-0.013
Mof_H 	H 	0.794	0.4552	0.1461	0.027
Mof_C 	C 	0.8003	0.4354	0.0977	-0.013
Mof_C 	C 	0.795	0.4059	0.0773	-0.023
Mof_H 	H 	0.8016	0.4059	0.054	-0.059
Mof_C 	C 	0.76729	0.4107	0.18419	0.331
Mof_C 	C 	0.8164	0.4686	0.0857	0.067
Mof_C 	C 	0.8441	0.46857	0.062	-0.068
Mof_H 	H 	0.8532	0.4475	0.0541	0.052
Mof_C 	C 	0.74896	0.18474	0.08946	0.37
Mof_C 	C 	0.74	0.14685	0.09121	-0.141
Mof_C 	C 	0.7406	0.12791	0.1221	0.111
Mof_H 	H 	0.7503	0.1376	0.1421	-0.009
Mof_C 	C 	0.7268	0.09442	0.12313	-0.228
Mof_C 	C 	0.7123	0.07987	0.09326	0.077
Mof_H 	H 	0.7031	0.0575	0.0939	0.013
Mof_C 	C 	0.7117	0.0988	0.06237	-0.077
Mof_C 	C 	0.7255	0.1323	0.06134	0.037
Mof_H 	H 	0.725	0.145	0.0407	0.042
Mof_C 	C 	0.7254	0.07747	0.1581	0.584
Mof_C 	C 	0.6971	0.0817	0.03123	0.115
Mof_C 	C 	0.6706	0.0569	0.03153	-0.158
Mof_H 	H 	0.6618	0.0487	0.0526	0.091
Mof_C 	C 	0.77706	0.377	0.0923	-0.07
Mof_C 	C 	0.77085	0.3792	0.1279	0.005
Mof_H 	H 	0.7641	0.3594	0.1403	0.008
Mof_C 	C 	0.77475	0.4108	0.1451	-0.051
Mof_C 	C 	0.7849	0.4403	0.1266	-0.001
Mof_H 	H 	0.7875	0.4615	0.1381	0.033
Mof_C 	C 	0.7911	0.4382	0.091	-0.007
Mof_C 	C 	0.78717	0.4065	0.0738	0.032
Mof_H 	H 	0.7913	0.405	0.05	0.09
Mof_C 	C 	0.8018	0.46861	0.0707	0.012
Mof_C 	C 	0.8239	0.46857	0.042	-0.055
Mof_H 	H 	0.8313	0.4475	0.0324	0.046
Mof_Sm	Sm	0.25667	0.75693	0.5889	2.386
Mof_O 	O 	0.2807	0.8424	0.53846	-0.59
Mof_O 	O 	0.2622	0.81849	0.58729	-0.601
Mof_O 	O 	0.26102	0.88257	0.69982	-0.504
Mof_O 	O 	0.2672	0.93899	0.6999	-0.454
Mof_O 	O 	0.2488	0.7005	0.56107	-0.48
Mof_O 	O 	0.2565	0.70025	0.61683	-0.522
Mof_O 	O 	0.24478	0.58739	0.68207	-0.638
Mof_O 	O 	0.2038	0.5537	0.6606	-0.653
Mof_O 	O 	0.26985	0.76763	0.52831	-0.782
Mof_C 	C 	0.27366	0.8439	0.57071	0.522
Mof_C 	C 	0.2799	0.8764	0.5919	-0.062
Mof_C 	C 	0.27	0.8764	0.6267	0.021
Mof_H 	H 	0.2599	0.8566	0.6365	0.012
Mof_C 	C 	0.2753	0.9059	0.6471	-0.019
Mof_C 	C 	0.2904	0.9354	0.6325	-0.013
Mof_H 	H 	0.294	0.9552	0.6461	0.025
Mof_C 	C 	0.3003	0.9354	0.5977	-0.017
Mof_C 	C 	0.295	0.9059	0.5773	-0.026
Mof_H 	H 	0.3016	0.9059	0.554	-0.068
Mof_C 	C 	0.26729	0.9107	0.68419	0.331
Mof_C 	C 	0.3164	0.9686	0.5857	0.051
Mof_C 	C 	0.3441	0.96857	0.562	-0.048
Mof_H 	H 	0.3532	0.9475	0.5541	0.047
Mof_C 	C 	0.24896	0.68474	0.58946	0.37
Mof_C 	C 	0.24	0.64685	0.59121	-0.141
Mof_C 	C 	0.2406	0.62791	0.6221	0.112
Mof_H 	H 	0.2503	0.6376	0.6421	-0.009
Mof_C 	C 	0.2268	0.59442	0.62313	-0.229
Mof_C 	C 	0.2123	0.57987	0.59326	0.079
Mof_H 	H 	0.2031	0.5575	0.5939	0.013
Mof_C 	C 	0.2117	0.5988	0.56237	-0.078
Mof_C 	C 	0.2255	0.6323	0.56134	0.039
Mof_H 	H 	0.225	0.645	0.5407	0.044
Mof_C 	C 	0.2254	0.57747	0.6581	0.586
Mof_C 	C 	0.1971	0.5817	0.53123	0.121
Mof_C 	C 	0.1706	0.5569	0.53153	-0.167
Mof_H 	H 	0.1618	0.5487	0.5526	0.095
Mof_C 	C 	0.27706	0.877	0.5923	-0.07
Mof_C 	C 	0.27085	0.8792	0.6279	0.006
Mof_H 	H 	0.2641	0.8594	0.6403	0.008
Mof_C 	C 	0.27475	0.9108	0.6451	-0.051
Mof_C 	C 	0.2849	0.9403	0.6266	0.001
Mof_H 	H 	0.2875	0.9615	0.6381	0.038
Mof_C 	C 	0.2911	0.9382	0.591	-0.002
Mof_C 	C 	0.28717	0.9065	0.5738	0.035
Mof_H 	H 	0.2913	0.905	0.55	0.1
Mof_C 	C 	0.3018	0.96861	0.5707	0.031
Mof_C 	C 	0.3239	0.96857	0.542	-0.051
Mof_H 	H 	0.3313	0.9475	0.5324	0.048
Mof_Sm	Sm	0.24333	0.25693	0.9111	2.385
Mof_O 	O 	0.2193	0.3424	0.96154	-0.582
Mof_O 	O 	0.2378	0.31849	0.91271	-0.6
Mof_O 	O 	0.23898	0.38257	0.80018	-0.504
Mof_O 	O 	0.2328	0.43899	0.8001	-0.457
Mof_O 	O 	0.2512	0.2005	0.93893	-0.477
Mof_O 	O 	0.2435	0.20025	0.88317	-0.521
Mof_O 	O 	0.25522	0.08739	0.81793	-0.637
Mof_O 	O 	0.2962	0.0537	0.8394	-0.65
Mof_O 	O 	0.23015	0.26763	0.97169	-0.768
Mof_C 	C 	0.22634	0.3439	0.92929	0.52
Mof_C 	C 	0.2201	0.3764	0.9081	-0.061
Mof_C 	C 	0.23	0.3764	0.8733	0.021
Mof_H 	H 	0.2401	0.3566	0.8635	0.012
Mof_C 	C 	0.2247	0.4059	0.8529	-0.02
Mof_C 	C 	0.2096	0.4354	0.8675	-0.013
Mof_H 	H 	0.206	0.4552	0.8539	0.028
Mof_C 	C 	0.1997	0.4354	0.9023	-0.022
Mof_C 	C 	0.205	0.4059	0.9227	-0.027
Mof_H 	H 	0.1984	0.4059	0.946	-0.063
Mof_C 	C 	0.23271	0.4107	0.81581	0.331
Mof_C 	C 	0.1836	0.4686	0.9143	0.029
Mof_C 	C 	0.1559	0.46857	0.938	-0.045
Mof_H 	H 	0.1468	0.4475	0.9459	0.045
Mof_C 	C 	0.25104	0.18474	0.91054	0.369
Mof_C 	C 	0.26	0.14685	0.90879	-0.139
Mof_C 	C 	0.2594	0.12791	0.8779	0.111
Mof_H 	H 	0.2497	0.1376	0.8579	-0.008
Mof_C 	C 	0.2732	0.09442	0.87687	-0.227
Mof_C 	C 	0.2877	0.07987	0.90674	0.078
Mof_H 	H 	0.2969	0.0575	0.9061	0.013
Mof_C 	C 	0.2883	0.0988	0.93763	-0.076
Mof_C 	C 	0.2745	0.1323	0.93866	0.037
Mof_H 	H 	0.275	0.145	0.9593	0.047
Mof_C 	C 	0.2746	0.07747	0.8419	0.584
Mof_C 	C 	0.3029	0.0817	0.96877	0.122
Mof_C 	C 	0.3294	0.0569	0.96847	-0.148
Mof_H 	H 	0.3382	0.0487	0.9474	0.09
Mof_C 	C 	0.22294	0.377	0.9077	-0.069
Mof_C 	C 	0.22915	0.3792	0.8721	0.005
Mof_H 	H 	0.2359	0.3594	0.8597	0.008
Mof_C 	C 	0.22525	0.4108	0.8549	-0.051
Mof_C 	C 	0.2151	0.4403	0.8734	0
Mof_H 	H 	0.2125	0.4615	0.8619	0.032
Mof_C 	C 	0.2089	0.4382	0.909	0.005
Mof_C 	C 	0.21283	0.4065	0.9262	0.034
Mof_H 	H 	0.2087	0.405	0.95	0.097
Mof_C 	C 	0.1982	0.46861	0.9293	0.046
Mof_C 	C 	0.1761	0.46857	0.958	-0.062
Mof_H 	H 	0.1687	0.4475	0.9676	0.053
Mof_Sm	Sm	0.74333	0.75693	0.4111	2.386
Mof_O 	O 	0.7193	0.8424	0.46154	-0.589
Mof_O 	O 	0.7378	0.81849	0.41271	-0.601
Mof_O 	O 	0.73898	0.88257	0.30018	-0.504
Mof_O 	O 	0.7328	0.93899	0.3001	-0.454
Mof_O 	O 	0.7512	0.7005	0.43893	-0.48
Mof_O 	O 	0.7435	0.70025	0.38317	-0.522
Mof_O 	O 	0.75522	0.58739	0.31793	-0.638
Mof_O 	O 	0.7962	0.5537	0.3394	-0.653
Mof_O 	O 	0.73015	0.76763	0.47169	-0.782
Mof_C 	C 	0.72634	0.8439	0.42929	0.522
Mof_C 	C 	0.7201	0.8764	0.4081	-0.062
Mof_C 	C 	0.73	0.8764	0.3733	0.021
Mof_H 	H 	0.7401	0.8566	0.3635	0.012
Mof_C 	C 	0.7247	0.9059	0.3529	-0.019
Mof_C 	C 	0.7096	0.9354	0.3675	-0.013
Mof_H 	H 	0.706	0.9552	0.3539	0.025
Mof_C 	C 	0.6997	0.9354	0.4023	-0.017
Mof_C 	C 	0.705	0.9059	0.4227	-0.026
Mof_H 	H 	0.6984	0.9059	0.446	-0.069
Mof_C 	C 	0.73271	0.9107	0.31581	0.331
Mof_C 	C 	0.6836	0.9686	0.4143	0.051
Mof_C 	C 	0.6559	0.96857	0.438	-0.048
Mof_H 	H 	0.6468	0.9475	0.4459	0.047
Mof_C 	C 	0.75104	0.68474	0.41054	0.37
Mof_C 	C 	0.76	0.64685	0.40879	-0.141
Mof_C 	C 	0.7594	0.62791	0.3779	0.112
Mof_H 	H 	0.7497	0.6376	0.3579	-0.009
Mof_C 	C 	0.7732	0.59442	0.37687	-0.229
Mof_C 	C 	0.7877	0.57987	0.40674	0.079
Mof_H 	H 	0.7969	0.5575	0.4061	0.013
Mof_C 	C 	0.7883	0.5988	0.43763	-0.078
Mof_C 	C 	0.7745	0.6323	0.43866	0.039
Mof_H 	H 	0.775	0.645	0.4593	0.044
Mof_C 	C 	0.7746	0.57747	0.3419	0.586
Mof_C 	C 	0.8029	0.5817	0.46877	0.121
Mof_C 	C 	0.8294	0.5569	0.46847	-0.166
Mof_H 	H 	0.8382	0.5487	0.4474	0.096
Mof_C 	C 	0.72294	0.877	0.4077	-0.07
Mof_C 	C 	0.72915	0.8792	0.3721	0.006
Mof_H 	H 	0.7359	0.8594	0.3597	0.008
Mof_C 	C 	0.72525	0.9108	0.3549	-0.051
Mof_C 	C 	0.7151	0.9403	0.3734	0.001
Mof_H 	H 	0.7125	0.9615	0.3619	0.038
Mof_C 	C 	0.7089	0.9382	0.409	-0.002
Mof_C 	C 	0.71283	0.9065	0.4262	0.036
Mof_H 	H 	0.7087	0.905	0.45	0.101
Mof_C 	C 	0.6982	0.96861	0.4293	0.031
Mof_C 	C 	0.6761	0.96857	0.458	-0.051
Mof_H 	H 	0.6687	0.9475	0.4676	0.048
Mof_Sm	Sm	0.24333	0.74307	0.0889	2.383
Mof_O 	O 	0.2193	0.6576	0.03846	-0.589
Mof_O 	O 	0.2378	0.68151	0.08729	-0.601
Mof_O 	O 	0.23898	0.61743	0.19982	-0.504
Mof_O 	O 	0.2328	0.56101	0.1999	-0.457
Mof_O 	O 	0.2512	0.7995	0.06107	-0.481
Mof_O 	O 	0.2435	0.79975	0.11683	-0.522
Mof_O 	O 	0.25522	0.91261	0.18207	-0.636
Mof_O 	O 	0.2962	0.9463	0.1606	-0.645
Mof_O 	O 	0.23015	0.73237	0.02831	-0.776
Mof_C 	C 	0.22634	0.6561	0.07071	0.521
Mof_C 	C 	0.2201	0.6236	0.0919	-0.062
Mof_C 	C 	0.23	0.6236	0.1267	0.021
Mof_H 	H 	0.2401	0.6434	0.1365	0.012
Mof_C 	C 	0.2247	0.5941	0.1471	-0.02
Mof_C 	C 	0.2096	0.5646	0.1325	-0.013
Mof_H 	H 	0.206	0.5448	0.1461	0.027
Mof_C 	C 	0.1997	0.5646	0.0977	-0.013
Mof_C 	C 	0.205	0.5941	0.0773	-0.023
Mof_H 	H 	0.1984	0.5941	0.054	-0.06
Mof_C 	C 	0.23271	0.5893	0.18419	0.331
Mof_C 	C 	0.1836	0.5314	0.0857	0.066
Mof_C 	C 	0.1559	0.53143	0.062	-0.069
Mof_H 	H 	0.1468	0.5525	0.0541	0.051
Mof_C 	C 	0.25104	0.81526	0.08946	0.369
Mof_C 	C 	0.26	0.85315	0.09121	-0.14
Mof_C 	C 	0.2594	0.87209	0.1221	0.11
Mof_H 	H 	0.2497	0.8624	0.1421	-0.008
Mof_C 	C 	0.2732	0.90558	0.12313	-0.226
Mof_C 	C 	0.2877	0.92013	0.09326	0.076
Mof_H 	H 	0.2969	0.9425	0.0939	0.016
Mof_C 	C 	0.2883	0.9012	0.06237	-0.076
Mof_C 	C 	0.2745	0.8677	0.06134	0.037
Mof_H 	H 	0.275	0.855	0.0407	0.043
Mof_C 	C 	0.2746	0.92253	0.1581	0.583
Mof_C 	C 	0.3029	0.9183	0.03123	0.116
Mof_C 	C 	0.3294	0.9431	0.03153	-0.156
Mof_H 	H 	0.3382	0.9513	0.0526	0.094
Mof_C 	C 	0.22294	0.623	0.0923	-0.07
Mof_C 	C 	0.22915	0.6208	0.1279	0.005
Mof_H 	H 	0.2359	0.6406	0.1403	0.008
Mof_C 	C 	0.22525	0.5892	0.1451	-0.052
Mof_C 	C 	0.2151	0.5597	0.1266	-0.001
Mof_H 	H 	0.2125	0.5385	0.1381	0.033
Mof_C 	C 	0.2089	0.5618	0.091	-0.008
Mof_C 	C 	0.21283	0.5935	0.0738	0.032
Mof_H 	H 	0.2087	0.595	0.05	0.092
Mof_C 	C 	0.1982	0.53139	0.0707	0.013
Mof_C 	C 	0.1761	0.53143	0.042	-0.054
Mof_H 	H 	0.1687	0.5525	0.0324	0.046
Mof_Sm	Sm	0.74333	0.24307	0.5889	2.386
Mof_O 	O 	0.7193	0.1576	0.53846	-0.59
Mof_O 	O 	0.7378	0.18151	0.58729	-0.601
Mof_O 	O 	0.73898	0.11743	0.69982	-0.504
Mof_O 	O 	0.7328	0.06101	0.6999	-0.458
Mof_O 	O 	0.7512	0.2995	0.56107	-0.48
Mof_O 	O 	0.7435	0.29975	0.61683	-0.522
Mof_O 	O 	0.75522	0.41261	0.68207	-0.638
Mof_O 	O 	0.7962	0.4463	0.6606	-0.653
Mof_O 	O 	0.73015	0.23237	0.52831	-0.782
Mof_C 	C 	0.72634	0.1561	0.57071	0.522
Mof_C 	C 	0.7201	0.1236	0.5919	-0.062
Mof_C 	C 	0.73	0.1236	0.6267	0.021
Mof_H 	H 	0.7401	0.1434	0.6365	0.012
Mof_C 	C 	0.7247	0.0941	0.6471	-0.02
Mof_C 	C 	0.7096	0.0646	0.6325	-0.013
Mof_H 	H 	0.706	0.0448	0.6461	0.028
Mof_C 	C 	0.6997	0.0646	0.5977	-0.017
Mof_C 	C 	0.705	0.0941	0.5773	-0.025
Mof_H 	H 	0.6984	0.0941	0.554	-0.061
Mof_C 	C 	0.73271	0.0893	0.68419	0.331
Mof_C 	C 	0.6836	0.0314	0.5857	0.047
Mof_C 	C 	0.6559	0.03143	0.562	-0.054
Mof_H 	H 	0.6468	0.0525	0.5541	0.047
Mof_C 	C 	0.75104	0.31526	0.58946	0.37
Mof_C 	C 	0.76	0.35315	0.59121	-0.141
Mof_C 	C 	0.7594	0.37209	0.6221	0.112
Mof_H 	H 	0.7497	0.3624	0.6421	-0.009
Mof_C 	C 	0.7732	0.40558	0.62313	-0.229
Mof_C 	C 	0.7877	0.42013	0.59326	0.079
Mof_H 	H 	0.7969	0.4425	0.5939	0.013
Mof_C 	C 	0.7883	0.4012	0.56237	-0.078
Mof_C 	C 	0.7745	0.3677	0.56134	0.039
Mof_H 	H 	0.775	0.355	0.5407	0.044
Mof_C 	C 	0.7746	0.42253	0.6581	0.586
Mof_C 	C 	0.8029	0.4183	0.53123	0.121
Mof_C 	C 	0.8294	0.4431	0.53153	-0.166
Mof_H 	H 	0.8382	0.4513	0.5526	0.096
Mof_C 	C 	0.72294	0.123	0.5923	-0.07
Mof_C 	C 	0.72915	0.1208	0.6279	0.005
Mof_H 	H 	0.7359	0.1406	0.6403	0.008
Mof_C 	C 	0.72525	0.0892	0.6451	-0.052
Mof_C 	C 	0.7151	0.0597	0.6266	-0.001
Mof_H 	H 	0.7125	0.0385	0.6381	0.03
Mof_C 	C 	0.7089	0.0618	0.591	-0.002
Mof_C 	C 	0.71283	0.0935	0.5738	0.033
Mof_H 	H 	0.7087	0.095	0.55	0.093
Mof_C 	C 	0.6982	0.03139	0.5707	0.027
Mof_C 	C 	0.6761	0.03143	0.542	-0.056
Mof_H 	H 	0.6687	0.0525	0.5324	0.048
Mof_Sm	Sm	0.9111	0.75667	0.74307	2.385
Mof_O 	O 	0.96154	0.7807	0.6576	-0.582
Mof_O 	O 	0.91271	0.7622	0.68151	-0.6
Mof_O 	O 	0.80018	0.76102	0.61743	-0.504
Mof_O 	O 	0.8001	0.7672	0.56101	-0.457
Mof_O 	O 	0.93893	0.7488	0.7995	-0.477
Mof_O 	O 	0.88317	0.7565	0.79975	-0.521
Mof_O 	O 	0.81793	0.74478	0.91261	-0.636
Mof_O 	O 	0.8394	0.7038	0.9463	-0.645
Mof_O 	O 	0.97169	0.76985	0.73237	-0.768
Mof_C 	C 	0.92929	0.77366	0.6561	0.52
Mof_C 	C 	0.9081	0.7799	0.6236	-0.061
Mof_C 	C 	0.8733	0.77	0.6236	0.021
Mof_H 	H 	0.8635	0.7599	0.6434	0.012
Mof_C 	C 	0.8529	0.7753	0.5941	-0.02
Mof_C 	C 	0.8675	0.7904	0.5646	-0.013
Mof_H 	H 	0.8539	0.794	0.5448	0.029
Mof_C 	C 	0.9023	0.8003	0.5646	-0.022
Mof_C 	C 	0.9227	0.795	0.5941	-0.026
Mof_H 	H 	0.946	0.8016	0.5941	-0.061
Mof_C 	C 	0.81581	0.76729	0.5893	0.331
Mof_C 	C 	0.9143	0.8164	0.5314	0.03
Mof_C 	C 	0.938	0.8441	0.53143	-0.044
Mof_H 	H 	0.9459	0.8532	0.5525	0.046
Mof_C 	C 	0.91054	0.74896	0.81526	0.369
Mof_C 	C 	0.90879	0.74	0.85315	-0.137
Mof_C 	C 	0.8779	0.7406	0.87209	0.11
Mof_H 	H 	0.8579	0.7503	0.8624	-0.007
Mof_C 	C 	0.87687	0.7268	0.90558	-0.224
Mof_C 	C 	0.90674	0.7123	0.92013	0.076
Mof_H 	H 	0.9061	0.7031	0.9425	0.017
Mof_C 	C 	0.93763	0.7117	0.9012	-0.074
Mof_C 	C 	0.93866	0.7255	0.8677	0.037
Mof_H 	H 	0.9593	0.725	0.855	0.047
Mof_C 	C 	0.8419	0.7254	0.92253	0.583
Mof_C 	C 	0.96877	0.6971	0.9183	0.123
Mof_C 	C 	0.96847	0.6706	0.9431	-0.146
Mof_H 	H 	0.9474	0.6618	0.9513	0.092
Mof_C 	C 	0.9077	0.77706	0.623	-0.069
Mof_C 	C 	0.8721	0.77085	0.6208	0.005
Mof_H 	H 	0.8597	0.7641	0.6406	0.008
Mof_C 	C 	0.8549	0.77475	0.5892	-0.051
Mof_C 	C 	0.8734	0.7849	0.5597	0
Mof_H 	H 	0.8619	0.7875	0.5385	0.031
Mof_C 	C 	0.909	0.7911	0.5618	0.005
Mof_C 	C 	0.9262	0.78717	0.5935	0.034
Mof_H 	H 	0.95	0.7913	0.595	0.096
Mof_C 	C 	0.9293	0.8018	0.53139	0.046
Mof_C 	C 	0.958	0.8239	0.53143	-0.063
Mof_H 	H 	0.9676	0.8313	0.5525	0.053
Mof_Sm	Sm	0.4111	0.25667	0.24307	2.386
Mof_O 	O 	0.46154	0.2807	0.1576	-0.59
Mof_O 	O 	0.41271	0.2622	0.18151	-0.601
Mof_O 	O 	0.30018	0.26102	0.11743	-0.504
Mof_O 	O 	0.3001	0.2672	0.06101	-0.458
Mof_O 	O 	0.43893	0.2488	0.2995	-0.48
Mof_O 	O 	0.38317	0.2565	0.29975	-0.522
Mof_O 	O 	0.31793	0.24478	0.41261	-0.638
Mof_O 	O 	0.3394	0.2038	0.4463	-0.653
Mof_O 	O 	0.47169	0.26985	0.23237	-0.782
Mof_C 	C 	0.42929	0.27366	0.1561	0.522
Mof_C 	C 	0.4081	0.2799	0.1236	-0.062
Mof_C 	C 	0.3733	0.27	0.1236	0.021
Mof_H 	H 	0.3635	0.2599	0.1434	0.012
Mof_C 	C 	0.3529	0.2753	0.0941	-0.02
Mof_C 	C 	0.3675	0.2904	0.0646	-0.013
Mof_H 	H 	0.3539	0.294	0.0448	0.029
Mof_C 	C 	0.4023	0.3003	0.0646	-0.017
Mof_C 	C 	0.4227	0.295	0.0941	-0.025
Mof_H 	H 	0.446	0.3016	0.0941	-0.06
Mof_C 	C 	0.31581	0.26729	0.0893	0.331
Mof_C 	C 	0.4143	0.3164	0.0314	0.047
Mof_C 	C 	0.438	0.3441	0.03143	-0.054
Mof_H 	H 	0.4459	0.3532	0.0525	0.047
Mof_C 	C 	0.41054	0.24896	0.31526	0.37
Mof_C 	C 	0.40879	0.24	0.35315	-0.141
Mof_C 	C 	0.3779	0.2406	0.37209	0.112
Mof_H 	H 	0.3579	0.2503	0.3624	-0.009
Mof_C 	C 	0.37687	0.2268	0.40558	-0.229
Mof_C 	C 	0.40674	0.2123	0.42013	0.079
Mof_H 	H 	0.4061	0.2031	0.4425	0.013
Mof_C 	C 	0.43763	0.2117	0.4012	-0.078
Mof_C 	C 	0.43866	0.2255	0.3677	0.039
Mof_H 	H 	0.4593	0.225	0.355	0.044
Mof_C 	C 	0.3419	0.2254	0.42253	0.586
Mof_C 	C 	0.46877	0.1971	0.4183	0.121
Mof_C 	C 	0.46847	0.1706	0.4431	-0.167
Mof_H 	H 	0.4474	0.1618	0.4513	0.095
Mof_C 	C 	0.4077	0.27706	0.123	-0.07
Mof_C 	C 	0.3721	0.27085	0.1208	0.005
Mof_H 	H 	0.3597	0.2641	0.1406	0.008
Mof_C 	C 	0.3549	0.27475	0.0892	-0.052
Mof_C 	C 	0.3734	0.2849	0.0597	-0.001
Mof_H 	H 	0.3619	0.2875	0.0385	0.03
Mof_C 	C 	0.409	0.2911	0.0618	-0.002
Mof_C 	C 	0.4262	0.28717	0.0935	0.032
Mof_H 	H 	0.45	0.2913	0.095	0.092
Mof_C 	C 	0.4293	0.3018	0.03139	0.027
Mof_C 	C 	0.458	0.3239	0.03143	-0.056
Mof_H 	H 	0.4676	0.3313	0.0525	0.048
Mof_Sm	Sm	0.0889	0.75667	0.25693	2.383
Mof_O 	O 	0.03846	0.7807	0.3424	-0.589
Mof_O 	O 	0.08729	0.7622	0.31849	-0.601
Mof_O 	O 	0.19982	0.76102	0.38257	-0.504
Mof_O 	O 	0.1999	0.7672	0.43899	-0.457
Mof_O 	O 	0.06107	0.7488	0.2005	-0.481
Mof_O 	O 	0.11683	0.7565	0.20025	-0.522
Mof_O 	O 	0.18207	0.74478	0.08739	-0.638
Mof_O 	O 	0.1606	0.7038	0.0537	-0.65
Mof_O 	O 	0.02831	0.76985	0.26763	-0.776
Mof_C 	C 	0.07071	0.77366	0.3439	0.521
Mof_C 	C 	0.0919	0.7799	0.3764	-0.062
Mof_C 	C 	0.1267	0.77	0.3764	0.021
Mof_H 	H 	0.1365	0.7599	0.3566	0.012
Mof_C 	C 	0.1471	0.7753	0.4059	-0.02
Mof_C 	C 	0.1325	0.7904	0.4354	-0.013
Mof_H 	H 	0.1461	0.794	0.4552	0.027
Mof_C 	C 	0.0977	0.8003	0.4354	-0.013
Mof_C 	C 	0.0773	0.795	0.4059	-0.023
Mof_H 	H 	0.054	0.8016	0.4059	-0.059
Mof_C 	C 	0.18419	0.76729	0.4107	0.331
Mof_C 	C 	0.0857	0.8164	0.4686	0.067
Mof_C 	C 	0.062	0.8441	0.46857	-0.068
Mof_H 	H 	0.0541	0.8532	0.4475	0.052
Mof_C 	C 	0.08946	0.74896	0.18474	0.37
Mof_C 	C 	0.09121	0.74	0.14685	-0.141
Mof_C 	C 	0.1221	0.7406	0.12791	0.111
Mof_H 	H 	0.1421	0.7503	0.1376	-0.009
Mof_C 	C 	0.12313	0.7268	0.09442	-0.228
Mof_C 	C 	0.09326	0.7123	0.07987	0.077
Mof_H 	H 	0.0939	0.7031	0.0575	0.013
Mof_C 	C 	0.06237	0.7117	0.0988	-0.077
Mof_C 	C 	0.06134	0.7255	0.1323	0.037
Mof_H 	H 	0.0407	0.725	0.145	0.042
Mof_C 	C 	0.1581	0.7254	0.07747	0.584
Mof_C 	C 	0.03123	0.6971	0.0817	0.115
Mof_C 	C 	0.03153	0.6706	0.0569	-0.158
Mof_H 	H 	0.0526	0.6618	0.0487	0.091
Mof_C 	C 	0.0923	0.77706	0.377	-0.07
Mof_C 	C 	0.1279	0.77085	0.3792	0.005
Mof_H 	H 	0.1403	0.7641	0.3594	0.008
Mof_C 	C 	0.1451	0.77475	0.4108	-0.051
Mof_C 	C 	0.1266	0.7849	0.4403	-0.001
Mof_H 	H 	0.1381	0.7875	0.4615	0.033
Mof_C 	C 	0.091	0.7911	0.4382	-0.007
Mof_C 	C 	0.0738	0.78717	0.4065	0.032
Mof_H 	H 	0.05	0.7913	0.405	0.09
Mof_C 	C 	0.0707	0.8018	0.46861	0.012
Mof_C 	C 	0.042	0.8239	0.46857	-0.055
Mof_H 	H 	0.0324	0.8313	0.4475	0.046
Mof_Sm	Sm	0.5889	0.25667	0.75693	2.386
Mof_O 	O 	0.53846	0.2807	0.8424	-0.59
Mof_O 	O 	0.58729	0.2622	0.81849	-0.601
Mof_O 	O 	0.69982	0.26102	0.88257	-0.504
Mof_O 	O 	0.6999	0.2672	0.93899	-0.454
Mof_O 	O 	0.56107	0.2488	0.7005	-0.48
Mof_O 	O 	0.61683	0.2565	0.70025	-0.522
Mof_O 	O 	0.68207	0.24478	0.58739	-0.638
Mof_O 	O 	0.6606	0.2038	0.5537	-0.653
Mof_O 	O 	0.52831	0.26985	0.76763	-0.782
Mof_C 	C 	0.57071	0.27366	0.8439	0.522
Mof_C 	C 	0.5919	0.2799	0.8764	-0.062
Mof_C 	C 	0.6267	0.27	0.8764	0.021
Mof_H 	H 	0.6365	0.2599	0.8566	0.012
Mof_C 	C 	0.6471	0.2753	0.9059	-0.019
Mof_C 	C 	0.6325	0.2904	0.9354	-0.013
Mof_H 	H 	0.6461	0.294	0.9552	0.025
Mof_C 	C 	0.5977	0.3003	0.9354	-0.017
Mof_C 	C 	0.5773	0.295	0.9059	-0.026
Mof_H 	H 	0.554	0.3016	0.9059	-0.068
Mof_C 	C 	0.68419	0.26729	0.9107	0.331
Mof_C 	C 	0.5857	0.3164	0.9686	0.051
Mof_C 	C 	0.562	0.3441	0.96857	-0.048
Mof_H 	H 	0.5541	0.3532	0.9475	0.047
Mof_C 	C 	0.58946	0.24896	0.68474	0.37
Mof_C 	C 	0.59121	0.24	0.64685	-0.141
Mof_C 	C 	0.6221	0.2406	0.62791	0.112
Mof_H 	H 	0.6421	0.2503	0.6376	-0.009
Mof_C 	C 	0.62313	0.2268	0.59442	-0.229
Mof_C 	C 	0.59326	0.2123	0.57987	0.079
Mof_H 	H 	0.5939	0.2031	0.5575	0.013
Mof_C 	C 	0.56237	0.2117	0.5988	-0.078
Mof_C 	C 	0.56134	0.2255	0.6323	0.039
Mof_H 	H 	0.5407	0.225	0.645	0.044
Mof_C 	C 	0.6581	0.2254	0.57747	0.586
Mof_C 	C 	0.53123	0.1971	0.5817	0.121
Mof_C 	C 	0.53153	0.1706	0.5569	-0.167
Mof_H 	H 	0.5526	0.1618	0.5487	0.095
Mof_C 	C 	0.5923	0.27706	0.877	-0.07
Mof_C 	C 	0.6279	0.27085	0.8792	0.006
Mof_H 	H 	0.6403	0.2641	0.8594	0.008
Mof_C 	C 	0.6451	0.27475	0.9108	-0.051
Mof_C 	C 	0.6266	0.2849	0.9403	0.001
Mof_H 	H 	0.6381	0.2875	0.9615	0.038
Mof_C 	C 	0.591	0.2911	0.9382	-0.002
Mof_C 	C 	0.5738	0.28717	0.9065	0.035
Mof_H 	H 	0.55	0.2913	0.905	0.1
Mof_C 	C 	0.5707	0.3018	0.96861	0.031
Mof_C 	C 	0.542	0.3239	0.96857	-0.051
Mof_H 	H 	0.5324	0.3313	0.9475	0.048
Mof_Sm	Sm	0.9111	0.24333	0.25693	2.385
Mof_O 	O 	0.96154	0.2193	0.3424	-0.582
Mof_O 	O 	0.91271	0.2378	0.31849	-0.6
Mof_O 	O 	0.80018	0.23898	0.38257	-0.504
Mof_O 	O 	0.8001	0.2328	0.43899	-0.457
Mof_O 	O 	0.93893	0.2512	0.2005	-0.477
Mof_O 	O 	0.88317	0.2435	0.20025	-0.521
Mof_O 	O 	0.81793	0.25522	0.08739	-0.637
Mof_O 	O 	0.8394	0.2962	0.0537	-0.65
Mof_O 	O 	0.97169	0.23015	0.26763	-0.768
Mof_C 	C 	0.92929	0.22634	0.3439	0.52
Mof_C 	C 	0.9081	0.2201	0.3764	-0.061
Mof_C 	C 	0.8733	0.23	0.3764	0.021
Mof_H 	H 	0.8635	0.2401	0.3566	0.012
Mof_C 	C 	0.8529	0.2247	0.4059	-0.02
Mof_C 	C 	0.8675	0.2096	0.4354	-0.013
Mof_H 	H 	0.8539	0.206	0.4552	0.028
Mof_C 	C 	0.9023	0.1997	0.4354	-0.022
Mof_C 	C 	0.9227	0.205	0.4059	-0.027
Mof_H 	H 	0.946	0.1984	0.4059	-0.063
Mof_C 	C 	0.81581	0.23271	0.4107	0.331
Mof_C 	C 	0.9143	0.1836	0.4686	0.029
Mof_C 	C 	0.938	0.1559	0.46857	-0.045
Mof_H 	H 	0.9459	0.1468	0.4475	0.045
Mof_C 	C 	0.91054	0.25104	0.18474	0.369
Mof_C 	C 	0.90879	0.26	0.14685	-0.139
Mof_C 	C 	0.8779	0.2594	0.12791	0.111
Mof_H 	H 	0.8579	0.2497	0.1376	-0.008
Mof_C 	C 	0.87687	0.2732	0.09442	-0.227
Mof_C 	C 	0.90674	0.2877	0.07987	0.078
Mof_H 	H 	0.9061	0.2969	0.0575	0.013
Mof_C 	C 	0.93763	0.2883	0.0988	-0.076
Mof_C 	C 	0.93866	0.2745	0.1323	0.037
Mof_H 	H 	0.9593	0.275	0.145	0.047
Mof_C 	C 	0.8419	0.2746	0.07747	0.584
Mof_C 	C 	0.96877	0.3029	0.0817	0.122
Mof_C 	C 	0.96847	0.3294	0.0569	-0.148
Mof_H 	H 	0.9474	0.3382	0.0487	0.09
Mof_C 	C 	0.9077	0.22294	0.377	-0.069
Mof_C 	C 	0.8721	0.22915	0.3792	0.005
Mof_H 	H 	0.8597	0.2359	0.3594	0.008
Mof_C 	C 	0.8549	0.22525	0.4108	-0.051
Mof_C 	C 	0.8734	0.2151	0.4403	0
Mof_H 	H 	0.8619	0.2125	0.4615	0.032
Mof_C 	C 	0.909	0.2089	0.4382	0.005
Mof_C 	C 	0.9262	0.21283	0.4065	0.034
Mof_H 	H 	0.95	0.2087	0.405	0.097
Mof_C 	C 	0.9293	0.1982	0.46861	0.046
Mof_C 	C 	0.958	0.1761	0.46857	-0.062
Mof_H 	H 	0.9676	0.1687	0.4475	0.053
Mof_Sm	Sm	0.4111	0.74333	0.75693	2.386
Mof_O 	O 	0.46154	0.7193	0.8424	-0.589
Mof_O 	O 	0.41271	0.7378	0.81849	-0.601
Mof_O 	O 	0.30018	0.73898	0.88257	-0.504
Mof_O 	O 	0.3001	0.7328	0.93899	-0.454
Mof_O 	O 	0.43893	0.7512	0.7005	-0.48
Mof_O 	O 	0.38317	0.7435	0.70025	-0.522
Mof_O 	O 	0.31793	0.75522	0.58739	-0.638
Mof_O 	O 	0.3394	0.7962	0.5537	-0.653
Mof_O 	O 	0.47169	0.73015	0.76763	-0.782
Mof_C 	C 	0.42929	0.72634	0.8439	0.522
Mof_C 	C 	0.4081	0.7201	0.8764	-0.062
Mof_C 	C 	0.3733	0.73	0.8764	0.021
Mof_H 	H 	0.3635	0.7401	0.8566	0.012
Mof_C 	C 	0.3529	0.7247	0.9059	-0.019
Mof_C 	C 	0.3675	0.7096	0.9354	-0.013
Mof_H 	H 	0.3539	0.706	0.9552	0.025
Mof_C 	C 	0.4023	0.6997	0.9354	-0.017
Mof_C 	C 	0.4227	0.705	0.9059	-0.026
Mof_H 	H 	0.446	0.6984	0.9059	-0.069
Mof_C 	C 	0.31581	0.73271	0.9107	0.331
Mof_C 	C 	0.4143	0.6836	0.9686	0.051
Mof_C 	C 	0.438	0.6559	0.96857	-0.048
Mof_H 	H 	0.4459	0.6468	0.9475	0.047
Mof_C 	C 	0.41054	0.75104	0.68474	0.37
Mof_C 	C 	0.40879	0.76	0.64685	-0.141
Mof_C 	C 	0.3779	0.7594	0.62791	0.112
Mof_H 	H 	0.3579	0.7497	0.6376	-0.009
Mof_C 	C 	0.37687	0.7732	0.59442	-0.229
Mof_C 	C 	0.40674	0.7877	0.57987	0.079
Mof_H 	H 	0.4061	0.7969	0.5575	0.013
Mof_C 	C 	0.43763	0.7883	0.5988	-0.078
Mof_C 	C 	0.43866	0.7745	0.6323	0.039
Mof_H 	H 	0.4593	0.775	0.645	0.044
Mof_C 	C 	0.3419	0.7746	0.57747	0.586
Mof_C 	C 	0.46877	0.8029	0.5817	0.121
Mof_C 	C 	0.46847	0.8294	0.5569	-0.166
Mof_H 	H 	0.4474	0.8382	0.5487	0.096
Mof_C 	C 	0.4077	0.72294	0.877	-0.07
Mof_C 	C 	0.3721	0.72915	0.8792	0.006
Mof_H 	H 	0.3597	0.7359	0.8594	0.008
Mof_C 	C 	0.3549	0.72525	0.9108	-0.051
Mof_C 	C 	0.3734	0.7151	0.9403	0.001
Mof_H 	H 	0.3619	0.7125	0.9615	0.038
Mof_C 	C 	0.409	0.7089	0.9382	-0.002
Mof_C 	C 	0.4262	0.71283	0.9065	0.036
Mof_H 	H 	0.45	0.7087	0.905	0.101
Mof_C 	C 	0.4293	0.6982	0.96861	0.031
Mof_C 	C 	0.458	0.6761	0.96857	-0.051
Mof_H 	H 	0.4676	0.6687	0.9475	0.048
Mof_Sm	Sm	0.0889	0.24333	0.74307	2.383
Mof_O 	O 	0.03846	0.2193	0.6576	-0.589
Mof_O 	O 	0.08729	0.2378	0.68151	-0.601
Mof_O 	O 	0.19982	0.23898	0.61743	-0.504
Mof_O 	O 	0.1999	0.2328	0.56101	-0.457
Mof_O 	O 	0.06107	0.2512	0.7995	-0.481
Mof_O 	O 	0.11683	0.2435	0.79975	-0.522
Mof_O 	O 	0.18207	0.25522	0.91261	-0.636
Mof_O 	O 	0.1606	0.2962	0.9463	-0.645
Mof_O 	O 	0.02831	0.23015	0.73237	-0.776
Mof_C 	C 	0.07071	0.22634	0.6561	0.521
Mof_C 	C 	0.0919	0.2201	0.6236	-0.062
Mof_C 	C 	0.1267	0.23	0.6236	0.021
Mof_H 	H 	0.1365	0.2401	0.6434	0.012
Mof_C 	C 	0.1471	0.2247	0.5941	-0.02
Mof_C 	C 	0.1325	0.2096	0.5646	-0.013
Mof_H 	H 	0.1461	0.206	0.5448	0.027
Mof_C 	C 	0.0977	0.1997	0.5646	-0.013
Mof_C 	C 	0.0773	0.205	0.5941	-0.023
Mof_H 	H 	0.054	0.1984	0.5941	-0.06
Mof_C 	C 	0.18419	0.23271	0.5893	0.331
Mof_C 	C 	0.0857	0.1836	0.5314	0.066
Mof_C 	C 	0.062	0.1559	0.53143	-0.069
Mof_H 	H 	0.0541	0.1468	0.5525	0.051
Mof_C 	C 	0.08946	0.25104	0.81526	0.369
Mof_C 	C 	0.09121	0.26	0.85315	-0.14
Mof_C 	C 	0.1221	0.2594	0.87209	0.11
Mof_H 	H 	0.1421	0.2497	0.8624	-0.008
Mof_C 	C 	0.12313	0.2732	0.90558	-0.226
Mof_C 	C 	0.09326	0.2877	0.92013	0.076
Mof_H 	H 	0.0939	0.2969	0.9425	0.016
Mof_C 	C 	0.06237	0.2883	0.9012	-0.076
Mof_C 	C 	0.06134	0.2745	0.8677	0.037
Mof_H 	H 	0.0407	0.275	0.855	0.043
Mof_C 	C 	0.1581	0.2746	0.92253	0.583
Mof_C 	C 	0.03123	0.3029	0.9183	0.116
Mof_C 	C 	0.03153	0.3294	0.9431	-0.156
Mof_H 	H 	0.0526	0.3382	0.9513	0.094
Mof_C 	C 	0.0923	0.22294	0.623	-0.07
Mof_C 	C 	0.1279	0.22915	0.6208	0.005
Mof_H 	H 	0.1403	0.2359	0.6406	0.008
Mof_C 	C 	0.1451	0.22525	0.5892	-0.052
Mof_C 	C 	0.1266	0.2151	0.5597	-0.001
Mof_H 	H 	0.1381	0.2125	0.5385	0.033
Mof_C 	C 	0.091	0.2089	0.5618	-0.008
Mof_C 	C 	0.0738	0.21283	0.5935	0.032
Mof_H 	H 	0.05	0.2087	0.595	0.092
Mof_C 	C 	0.0707	0.1982	0.53139	0.013
Mof_C 	C 	0.042	0.1761	0.53143	-0.054
Mof_H 	H 	0.0324	0.1687	0.5525	0.046
Mof_Sm	Sm	0.5889	0.74333	0.24307	2.386
Mof_O 	O 	0.53846	0.7193	0.1576	-0.59
Mof_O 	O 	0.58729	0.7378	0.18151	-0.601
Mof_O 	O 	0.69982	0.73898	0.11743	-0.504
Mof_O 	O 	0.6999	0.7328	0.06101	-0.458
Mof_O 	O 	0.56107	0.7512	0.2995	-0.48
Mof_O 	O 	0.61683	0.7435	0.29975	-0.522
Mof_O 	O 	0.68207	0.75522	0.41261	-0.638
Mof_O 	O 	0.6606	0.7962	0.4463	-0.653
Mof_O 	O 	0.52831	0.73015	0.23237	-0.782
Mof_C 	C 	0.57071	0.72634	0.1561	0.522
Mof_C 	C 	0.5919	0.7201	0.1236	-0.062
Mof_C 	C 	0.6267	0.73	0.1236	0.021
Mof_H 	H 	0.6365	0.7401	0.1434	0.012
Mof_C 	C 	0.6471	0.7247	0.0941	-0.02
Mof_C 	C 	0.6325	0.7096	0.0646	-0.013
Mof_H 	H 	0.6461	0.706	0.0448	0.028
Mof_C 	C 	0.5977	0.6997	0.0646	-0.017
Mof_C 	C 	0.5773	0.705	0.0941	-0.025
Mof_H 	H 	0.554	0.6984	0.0941	-0.061
Mof_C 	C 	0.68419	0.73271	0.0893	0.331
Mof_C 	C 	0.5857	0.6836	0.0314	0.047
Mof_C 	C 	0.562	0.6559	0.03143	-0.054
Mof_H 	H 	0.5541	0.6468	0.0525	0.047
Mof_C 	C 	0.58946	0.75104	0.31526	0.37
Mof_C 	C 	0.59121	0.76	0.35315	-0.141
Mof_C 	C 	0.6221	0.7594	0.37209	0.112
Mof_H 	H 	0.6421	0.7497	0.3624	-0.009
Mof_C 	C 	0.62313	0.7732	0.40558	-0.229
Mof_C 	C 	0.59326	0.7877	0.42013	0.079
Mof_H 	H 	0.5939	0.7969	0.4425	0.013
Mof_C 	C 	0.56237	0.7883	0.4012	-0.078
Mof_C 	C 	0.56134	0.7745	0.3677	0.039
Mof_H 	H 	0.5407	0.775	0.355	0.044
Mof_C 	C 	0.6581	0.7746	0.42253	0.586
Mof_C 	C 	0.53123	0.8029	0.4183	0.121
Mof_C 	C 	0.53153	0.8294	0.4431	-0.166
Mof_H 	H 	0.5526	0.8382	0.4513	0.096
Mof_C 	C 	0.5923	0.72294	0.123	-0.07
Mof_C 	C 	0.6279	0.72915	0.1208	0.005
Mof_H 	H 	0.6403	0.7359	0.1406	0.008
Mof_C 	C 	0.6451	0.72525	0.0892	-0.052
Mof_C 	C 	0.6266	0.7151	0.0597	-0.001
Mof_H 	H 	0.6381	0.7125	0.0385	0.03
Mof_C 	C 	0.591	0.7089	0.0618	-0.002
Mof_C 	C 	0.5738	0.71283	0.0935	0.033
Mof_H 	H 	0.55	0.7087	0.095	0.093
Mof_C 	C 	0.5707	0.6982	0.03139	0.027
Mof_C 	C 	0.542	0.6761	0.03143	-0.056
Mof_H 	H 	0.5324	0.6687	0.0525	0.048
Mof_Sm	Sm	0.30942	0	0.18572	2.555
Mof_O 	O 	0.3237	0	0.1191	-0.46
Mof_O 	O 	0.3686	0	0.1533	-0.461
Mof_N 	N 	0.0943	3.58014e-33	0.2894	-0.143
Mof_C 	C 	0.0445	0	0.3426	0.063
Mof_H 	H 	0.028	3.58014e-33	0.3603	0.004
Mof_C 	C 	0.2569	1.79007e-33	0.2419	0.725
Mof_H 	H 	0.2405	1.79007e-33	0.2597	-0.222
Mof_C 	C 	0.3557	1.79007e-33	0.1233	0.424
Mof_H 	H 	0.3704	1.79007e-33	0.104	-0.106
Mof_Sm	Sm	0.80942	0.5	0.68572	2.582
Mof_O 	O 	0.8237	0.5	0.6191	-0.457
Mof_O 	O 	0.8686	0.5	0.6533	-0.458
Mof_N 	N 	0.5943	0.5	0.7894	-0.138
Mof_C 	C 	0.5445	0.5	0.8426	0.086
Mof_H 	H 	0.528	0.5	0.8603	0.002
Mof_C 	C 	0.7569	0.5	0.7419	0.744
Mof_H 	H 	0.7405	0.5	0.7597	-0.225
Mof_C 	C 	0.8557	0.5	0.6233	0.422
Mof_H 	H 	0.8704	0.5	0.604	-0.101
Mof_Sm	Sm	0.69058	0	0.18572	2.555
Mof_O 	O 	0.6763	0	0.1191	-0.46
Mof_O 	O 	0.6314	0	0.1533	-0.461
Mof_N 	N 	0.9057	3.58014e-33	0.2894	-0.142
Mof_C 	C 	0.9555	0	0.3426	0.064
Mof_H 	H 	0.972	3.58014e-33	0.3603	0.01
Mof_C 	C 	0.7431	1.79007e-33	0.2419	0.725
Mof_H 	H 	0.7595	1.79007e-33	0.2597	-0.222
Mof_C 	C 	0.6443	1.79007e-33	0.1233	0.424
Mof_H 	H 	0.6296	1.79007e-33	0.104	-0.106
Mof_Sm	Sm	0.19058	0.5	0.68572	2.582
Mof_O 	O 	0.1763	0.5	0.6191	-0.457
Mof_O 	O 	0.1314	0.5	0.6533	-0.458
Mof_N 	N 	0.4057	0.5	0.7894	-0.138
Mof_C 	C 	0.4555	0.5	0.8426	0.086
Mof_H 	H 	0.472	0.5	0.8603	0.002
Mof_C 	C 	0.2431	0.5	0.7419	0.744
Mof_H 	H 	0.2595	0.5	0.7597	-0.225
Mof_C 	C 	0.1443	0.5	0.6233	0.423
Mof_H 	H 	0.1296	0.5	0.604	-0.103
Mof_Sm	Sm	0.69058	7.16028e-33	0.81428	2.556
Mof_O 	O 	0.6763	7.16028e-33	0.8809	-0.458
Mof_O 	O 	0.6314	0	0.8467	-0.46
Mof_N 	N 	0.9057	7.16028e-33	0.7106	-0.142
Mof_C 	C 	0.9555	0	0.6574	0.064
Mof_H 	H 	0.972	0	0.6397	0.01
Mof_C 	C 	0.7431	0	0.7581	0.725
Mof_H 	H 	0.7595	7.16028e-33	0.7403	-0.222
Mof_C 	C 	0.6443	-7.16028e-33	0.8767	0.423
Mof_H 	H 	0.6296	7.16028e-33	0.896	-0.104
Mof_Sm	Sm	0.19058	0.5	0.31428	2.582
Mof_O 	O 	0.1763	0.5	0.3809	-0.457
Mof_O 	O 	0.1314	0.5	0.3467	-0.459
Mof_N 	N 	0.4057	0.5	0.2106	-0.138
Mof_C 	C 	0.4555	0.5	0.1574	0.085
Mof_H 	H 	0.472	0.5	0.1397	0.001
Mof_C 	C 	0.2431	0.5	0.2581	0.744
Mof_H 	H 	0.2595	0.5	0.2403	-0.225
Mof_C 	C 	0.1443	0.5	0.3767	0.423
Mof_H 	H 	0.1296	0.5	0.396	-0.103
Mof_Sm	Sm	0.30942	7.16028e-33	0.81428	2.556
Mof_O 	O 	0.3237	7.16028e-33	0.8809	-0.459
Mof_O 	O 	0.3686	0	0.8467	-0.46
Mof_N 	N 	0.0943	7.16028e-33	0.7106	-0.143
Mof_C 	C 	0.0445	0	0.6574	0.063
Mof_H 	H 	0.028	0	0.6397	0.004
Mof_C 	C 	0.2569	0	0.7581	0.725
Mof_H 	H 	0.2405	7.16028e-33	0.7403	-0.222
Mof_C 	C 	0.3557	-7.16028e-33	0.8767	0.423
Mof_H 	H 	0.3704	7.16028e-33	0.896	-0.104
Mof_Sm	Sm	0.80942	0.5	0.31428	2.582
Mof_O 	O 	0.8237	0.5	0.3809	-0.457
Mof_O 	O 	0.8686	0.5	0.3467	-0.458
Mof_N 	N 	0.5943	0.5	0.2106	-0.138
Mof_C 	C 	0.5445	0.5	0.1574	0.085
Mof_H 	H 	0.528	0.5	0.1397	0.001
Mof_C 	C 	0.7569	0.5	0.2581	0.744
Mof_H 	H 	0.7405	0.5	0.2403	-0.225
Mof_C 	C 	0.8557	0.5	0.3767	0.422
Mof_H 	H 	0.8704	0.5	0.396	-0.101
Mof_Sm	Sm	0.18572	0.30942	-0	2.555
Mof_O 	O 	0.1191	0.3237	-0	-0.46
Mof_O 	O 	0.1533	0.3686	-0	-0.461
Mof_N 	N 	0.2894	0.0943	-0	-0.143
Mof_C 	C 	0.3426	0.0445	-0	0.063
Mof_H 	H 	0.3603	0.028	-0	0.004
Mof_C 	C 	0.2419	0.2569	-0	0.725
Mof_H 	H 	0.2597	0.2405	-0	-0.222
Mof_C 	C 	0.1233	0.3557	-0	0.424
Mof_H 	H 	0.104	0.3704	-0	-0.106
Mof_Sm	Sm	0.68572	0.80942	0.5	2.582
Mof_O 	O 	0.6191	0.8237	0.5	-0.457
Mof_O 	O 	0.6533	0.8686	0.5	-0.458
Mof_N 	N 	0.7894	0.5943	0.5	-0.138
Mof_C 	C 	0.8426	0.5445	0.5	0.086
Mof_H 	H 	0.8603	0.528	0.5	0.002
Mof_C 	C 	0.7419	0.7569	0.5	0.744
Mof_H 	H 	0.7597	0.7405	0.5	-0.225
Mof_C 	C 	0.6233	0.8557	0.5	0.422
Mof_H 	H 	0.604	0.8704	0.5	-0.101
Mof_Sm	Sm	0.18572	0.69058	-0	2.555
Mof_O 	O 	0.1191	0.6763	-0	-0.46
Mof_O 	O 	0.1533	0.6314	-0	-0.461
Mof_N 	N 	0.2894	0.9057	-0	-0.142
Mof_C 	C 	0.3426	0.9555	-0	0.064
Mof_H 	H 	0.3603	0.972	-0	0.01
Mof_C 	C 	0.2419	0.7431	-0	0.725
Mof_H 	H 	0.2597	0.7595	-0	-0.222
Mof_C 	C 	0.1233	0.6443	-0	0.424
Mof_H 	H 	0.104	0.6296	-0	-0.106
Mof_Sm	Sm	0.68572	0.19058	0.5	2.582
Mof_O 	O 	0.6191	0.1763	0.5	-0.457
Mof_O 	O 	0.6533	0.1314	0.5	-0.458
Mof_N 	N 	0.7894	0.4057	0.5	-0.138
Mof_C 	C 	0.8426	0.4555	0.5	0.086
Mof_H 	H 	0.8603	0.472	0.5	0.002
Mof_C 	C 	0.7419	0.2431	0.5	0.744
Mof_H 	H 	0.7597	0.2595	0.5	-0.225
Mof_C 	C 	0.6233	0.1443	0.5	0.423
Mof_H 	H 	0.604	0.1296	0.5	-0.103
Mof_Sm	Sm	0.81428	0.69058	-0	2.556
Mof_O 	O 	0.8809	0.6763	-0	-0.458
Mof_O 	O 	0.8467	0.6314	-0	-0.46
Mof_N 	N 	0.7106	0.9057	-0	-0.142
Mof_C 	C 	0.6574	0.9555	-0	0.064
Mof_H 	H 	0.6397	0.972	-0	0.01
Mof_C 	C 	0.7581	0.7431	-0	0.725
Mof_H 	H 	0.7403	0.7595	-0	-0.222
Mof_C 	C 	0.8767	0.6443	-0	0.423
Mof_H 	H 	0.896	0.6296	-0	-0.104
Mof_Sm	Sm	0.31428	0.19058	0.5	2.582
Mof_O 	O 	0.3809	0.1763	0.5	-0.457
Mof_O 	O 	0.3467	0.1314	0.5	-0.459
Mof_N 	N 	0.2106	0.4057	0.5	-0.138
Mof_C 	C 	0.1574	0.4555	0.5	0.085
Mof_H 	H 	0.1397	0.472	0.5	0.001
Mof_C 	C 	0.2581	0.2431	0.5	0.744
Mof_H 	H 	0.2403	0.2595	0.5	-0.225
Mof_C 	C 	0.3767	0.1443	0.5	0.423
Mof_H 	H 	0.396	0.1296	0.5	-0.103
Mof_Sm	Sm	0.81428	0.30942	-0	2.556
Mof_O 	O 	0.8809	0.3237	-0	-0.459
Mof_O 	O 	0.8467	0.3686	-0	-0.46
Mof_N 	N 	0.7106	0.0943	-0	-0.143
Mof_C 	C 	0.6574	0.0445	-0	0.063
Mof_H 	H 	0.6397	0.028	-0	0.004
Mof_C 	C 	0.7581	0.2569	-0	0.725
Mof_H 	H 	0.7403	0.2405	-0	-0.222
Mof_C 	C 	0.8767	0.3557	-0	0.423
Mof_H 	H 	0.896	0.3704	-0	-0.104
Mof_Sm	Sm	0.31428	0.80942	0.5	2.582
Mof_O 	O 	0.3809	0.8237	0.5	-0.457
Mof_O 	O 	0.3467	0.8686	0.5	-0.458
Mof_N 	N 	0.2106	0.5943	0.5	-0.138
Mof_C 	C 	0.1574	0.5445	0.5	0.085
Mof_H 	H 	0.1397	0.528	0.5	0.001
Mof_C 	C 	0.2581	0.7569	0.5	0.744
Mof_H 	H 	0.2403	0.7405	0.5	-0.225
Mof_C 	C 	0.3767	0.8557	0.5	0.422
Mof_H 	H 	0.396	0.8704	0.5	-0.101
Mof_Sm	Sm	1.16014e-33	0.18572	0.30942	2.555
Mof_O 	O 	8.37396e-33	0.1191	0.3237	-0.46
Mof_O 	O 	-2.19811e-33	0.1533	0.3686	-0.461
Mof_N 	N 	4.82874e-33	0.2894	0.0943	-0.143
Mof_C 	C 	1.5094e-33	0.3426	0.0445	0.063
Mof_H 	H 	3.68512e-33	0.3603	0.028	0.004
Mof_C 	C 	6.33343e-33	0.2419	0.2569	0.725
Mof_H 	H 	9.01731e-34	0.2597	0.2405	-0.222
Mof_C 	C 	4.9138e-33	0.1233	0.3557	0.424
Mof_H 	H 	-2.19136e-33	0.104	0.3704	-0.106
Mof_Sm	Sm	0.5	0.68572	0.80942	2.582
Mof_O 	O 	0.5	0.6191	0.8237	-0.457
Mof_O 	O 	0.5	0.6533	0.8686	-0.458
Mof_N 	N 	0.5	0.7894	0.5943	-0.138
Mof_C 	C 	0.5	0.8426	0.5445	0.086
Mof_H 	H 	0.5	0.8603	0.528	0.002
Mof_C 	C 	0.5	0.7419	0.7569	0.744
Mof_H 	H 	0.5	0.7597	0.7405	-0.225
Mof_C 	C 	0.5	0.6233	0.8557	0.422
Mof_H 	H 	0.5	0.604	0.8704	-0.101
Mof_Sm	Sm	-4.57102e-33	0.18572	0.69058	2.555
Mof_O 	O 	9.696e-33	0.1191	0.6763	-0.46
Mof_O 	O 	2.36737e-33	0.1533	0.6314	-0.461
Mof_N 	N 	3.39583e-33	0.2894	0.9057	-0.142
Mof_C 	C 	1.07428e-32	0.3426	0.9555	0.064
Mof_H 	H 	3.64442e-33	0.3603	0.972	0.01
Mof_C 	C 	1.71067e-32	0.2419	0.7431	0.725
Mof_H 	H 	1.0008e-32	0.2597	0.7595	-0.222
Mof_C 	C 	9.57602e-33	0.1233	0.6443	0.424
Mof_H 	H 	-4.79966e-33	0.104	0.6296	-0.106
Mof_Sm	Sm	0.5	0.68572	0.19058	2.582
Mof_O 	O 	0.5	0.6191	0.1763	-0.457
Mof_O 	O 	0.5	0.6533	0.1314	-0.458
Mof_N 	N 	0.5	0.7894	0.4057	-0.138
Mof_C 	C 	0.5	0.8426	0.4555	0.086
Mof_H 	H 	0.5	0.8603	0.472	0.002
Mof_C 	C 	0.5	0.7419	0.2431	0.744
Mof_H 	H 	0.5	0.7597	0.2595	-0.225
Mof_C 	C 	0.5	0.6233	0.1443	0.423
Mof_H 	H 	0.5	0.604	0.1296	-0.103
Mof_Sm	Sm	9.74954e-33	0.81428	0.69058	2.556
Mof_O 	O 	1.68563e-32	0.8809	0.6763	-0.458
Mof_O 	O 	9.52765e-33	0.8467	0.6314	-0.46
Mof_N 	N 	3.39583e-33	0.7106	0.9057	-0.142
Mof_C 	C 	-3.57773e-33	0.6574	0.9555	0.064
Mof_H 	H 	-1.78364e-32	0.6397	0.972	0.01
Mof_C 	C 	9.94646e-33	0.7581	0.7431	0.725
Mof_H 	H 	2.84767e-33	0.7403	0.7595	-0.222
Mof_C 	C 	2.41574e-33	0.8767	0.6443	0.423
Mof_H 	H 	9.5209e-33	0.896	0.6296	-0.104
Mof_Sm	Sm	0.5	0.31428	0.19058	2.582
Mof_O 	O 	0.5	0.3809	0.1763	-0.457
Mof_O 	O 	0.5	0.3467	0.1314	-0.459
Mof_N 	N 	0.5	0.2106	0.4057	-0.138
Mof_C 	C 	0.5	0.1574	0.4555	0.085
Mof_H 	H 	0.5	0.1397	0.472	0.001
Mof_C 	C 	0.5	0.2581	0.2431	0.744
Mof_H 	H 	0.5	0.2403	0.2595	-0.225
Mof_C 	C 	0.5	0.3767	0.1443	0.423
Mof_H 	H 	0.5	0.396	0.1296	-0.103
Mof_Sm	Sm	1.54807e-32	0.81428	0.30942	2.556
Mof_O 	O 	1.55342e-32	0.8809	0.3237	-0.459
Mof_O 	O 	4.96217e-33	0.8467	0.3686	-0.46
Mof_N 	N 	-2.33154e-33	0.7106	0.0943	-0.143
Mof_C 	C 	5.08954e-33	0.6574	0.0445	0.063
Mof_H 	H 	3.68512e-33	0.6397	0.028	0.004
Mof_C 	C 	1.17036e-32	0.7581	0.2569	0.725
Mof_H 	H 	8.06201e-33	0.7403	0.2405	-0.222
Mof_C 	C 	-2.24648e-33	0.8767	0.3557	0.423
Mof_H 	H 	4.96892e-33	0.896	0.3704	-0.104
Mof_Sm	Sm	0.5	0.31428	0.80942	2.582
Mof_O 	O 	0.5	0.3809	0.8237	-0.457
Mof_O 	O 	0.5	0.3467	0.8686	-0.458
Mof_N 	N 	0.5	0.2106	0.5943	-0.138
Mof_C 	C 	0.5	0.1574	0.5445	0.085
Mof_H 	H 	0.5	0.1397	0.528	0.001
Mof_C 	C 	0.5	0.2581	0.7569	0.744
Mof_H 	H 	0.5	0.2403	0.7405	-0.225
Mof_C 	C 	0.5	0.3767	0.8557	0.422
Mof_H 	H 	0.5	0.396	0.8704	-0.101
Mof_N 	N 	0.5	0.0973	0.1971	-0.086
Mof_C 	C 	0.5	0.0501	0.1421	-0.005
Mof_H 	H 	0.5	0.0344	0.1236	0.026
Mof_N 	N 	0.5	0.085	0.2093	-0.049
Mof_C 	C 	0.5	0.0276	0.1649	0.025
Mof_H 	H 	0.5	0.0084	0.1501	-0.021
Mof_N 	N 	2.61371e-33	0.5973	0.6971	-0.08
Mof_C 	C 	9.56777e-33	0.5501	0.6421	-0.018
Mof_H 	H 	2.3819e-32	0.5344	0.6236	0.029
Mof_N 	N 	9.81973e-33	0.585	0.7093	-0.06
Mof_C 	C 	1.68135e-32	0.5276	0.6649	0.002
Mof_H 	H 	9.59777e-33	0.5084	0.6501	0.013
Mof_N 	N 	0.5	0.9027	0.1971	-0.066
Mof_C 	C 	0.5	0.9499	0.1421	-0.011
Mof_H 	H 	0.5	0.9656	0.1236	0.029
Mof_N 	N 	0.5	0.915	0.2093	-0.066
Mof_C 	C 	0.5	0.9724	0.1649	-0.005
Mof_H 	H 	0.5	0.9916	0.1501	0.045
Mof_N 	N 	2.61371e-33	0.4027	0.6971	-0.08
Mof_C 	C 	9.56777e-33	0.4499	0.6421	-0.018
Mof_H 	H 	1.66587e-32	0.4656	0.6236	0.029
Mof_N 	N 	2.65945e-33	0.415	0.7093	-0.06
Mof_C 	C 	9.65326e-33	0.4724	0.6649	0.002
Mof_H 	H 	2.43748e-33	0.4916	0.6501	0.013
Mof_N 	N 	0.5	0.0973	0.8029	-0.086
Mof_C 	C 	0.5	0.0501	0.8579	-0.005
Mof_H 	H 	0.5	0.0344	0.8764	0.027
Mof_N 	N 	0.5	0.085	0.7907	-0.049
Mof_C 	C 	0.5	0.0276	0.8351	0.025
Mof_H 	H 	0.5	0.0084	0.8499	-0.021
Mof_N 	N 	-2.44445e-33	0.5973	0.3029	-0.08
Mof_C 	C 	-5.81837e-33	0.5501	0.3579	-0.018
Mof_H 	H 	4.99141e-33	0.5344	0.3764	0.029
Mof_N 	N 	1.08995e-33	0.585	0.2907	-0.06
Mof_C 	C 	1.25642e-33	0.5276	0.3351	0.002
Mof_H 	H 	8.4722e-33	0.5084	0.3499	0.013
Mof_N 	N 	0.5	0.9027	0.8029	-0.066
Mof_C 	C 	0.5	0.9499	0.8579	-0.011
Mof_H 	H 	0.5	0.9656	0.8764	0.03
Mof_N 	N 	0.5	0.915	0.7907	-0.066
Mof_C 	C 	0.5	0.9724	0.8351	-0.005
Mof_H 	H 	0.5	0.9916	0.8499	0.045
Mof_N 	N 	-2.44445e-33	0.4027	0.3029	-0.08
Mof_C 	C 	8.50219e-33	0.4499	0.3579	-0.018
Mof_H 	H 	-2.16887e-33	0.4656	0.3764	0.029
Mof_N 	N 	4.67009e-33	0.415	0.2907	-0.06
Mof_C 	C 	1.25642e-33	0.4724	0.3351	0.002
Mof_H 	H 	4.89206e-33	0.4916	0.3499	0.013
Mof_N 	N 	0.1971	0.5	0.0973	-0.086
Mof_C 	C 	0.1421	0.5	0.0501	-0.005
Mof_H 	H 	0.1236	0.5	0.0344	0.026
Mof_N 	N 	0.2093	0.5	0.085	-0.049
Mof_C 	C 	0.1649	0.5	0.0276	0.025
Mof_H 	H 	0.1501	0.5	0.0084	-0.021
Mof_N 	N 	0.6971	0	0.5973	-0.08
Mof_C 	C 	0.6421	0	0.5501	-0.018
Mof_H 	H 	0.6236	7.16028e-33	0.5344	0.029
Mof_N 	N 	0.7093	0	0.585	-0.06
Mof_C 	C 	0.6649	0	0.5276	0.002
Mof_H 	H 	0.6501	3.58014e-33	0.5084	0.013
Mof_N 	N 	0.1971	0.5	0.9027	-0.066
Mof_C 	C 	0.1421	0.5	0.9499	-0.011
Mof_H 	H 	0.1236	0.5	0.9656	0.029
Mof_N 	N 	0.2093	0.5	0.915	-0.066
Mof_C 	C 	0.1649	0.5	0.9724	-0.005
Mof_H 	H 	0.1501	0.5	0.9916	0.045
Mof_N 	N 	0.6971	3.58014e-33	0.4027	-0.08
Mof_C 	C 	0.6421	3.58014e-33	0.4499	-0.018
Mof_H 	H 	0.6236	-3.58014e-33	0.4656	0.029
Mof_N 	N 	0.7093	0	0.415	-0.06
Mof_C 	C 	0.6649	0	0.4724	0.002
Mof_H 	H 	0.6501	3.58014e-33	0.4916	0.013
Mof_N 	N 	0.8029	0.5	0.0973	-0.086
Mof_C 	C 	0.8579	0.5	0.0501	-0.005
Mof_H 	H 	0.8764	0.5	0.0344	0.027
Mof_N 	N 	0.7907	0.5	0.085	-0.049
Mof_C 	C 	0.8351	0.5	0.0276	0.025
Mof_H 	H 	0.8499	0.5	0.0084	-0.021
Mof_N 	N 	0.3029	0	0.5973	-0.08
Mof_C 	C 	0.3579	0	0.5501	-0.018
Mof_H 	H 	0.3764	7.16028e-33	0.5344	0.029
Mof_N 	N 	0.2907	0	0.585	-0.06
Mof_C 	C 	0.3351	0	0.5276	0.002
Mof_H 	H 	0.3499	3.58014e-33	0.5084	0.013
Mof_N 	N 	0.8029	0.5	0.9027	-0.066
Mof_C 	C 	0.8579	0.5	0.9499	-0.011
Mof_H 	H 	0.8764	0.5	0.9656	0.03
Mof_N 	N 	0.7907	0.5	0.915	-0.066
Mof_C 	C 	0.8351	0.5	0.9724	-0.005
Mof_H 	H 	0.8499	0.5	0.9916	0.045
Mof_N 	N 	0.3029	3.58014e-33	0.4027	-0.08
Mof_C 	C 	0.3579	3.58014e-33	0.4499	-0.018
Mof_H 	H 	0.3764	-3.58014e-33	0.4656	0.029
Mof_N 	N 	0.2907	0	0.415	-0.06
Mof_C 	C 	0.3351	0	0.4724	0.002
Mof_H 	H 	0.3499	3.58014e-33	0.4916	0.013
Mof_N 	N 	0.0973	0.1971	0.5	-0.086
Mof_C 	C 	0.0501	0.1421	0.5	-0.005
Mof_H 	H 	0.0344	0.1236	0.5	0.026
Mof_N 	N 	0.085	0.2093	0.5	-0.049
Mof_C 	C 	0.0276	0.1649	0.5	0.025
Mof_H 	H 	0.0084	0.1501	0.5	-0.021
Mof_N 	N 	0.5973	0.6971	-0	-0.08
Mof_C 	C 	0.5501	0.6421	-0	-0.018
Mof_H 	H 	0.5344	0.6236	-0	0.029
Mof_N 	N 	0.585	0.7093	-0	-0.06
Mof_C 	C 	0.5276	0.6649	-0	0.002
Mof_H 	H 	0.5084	0.6501	-0	0.013
Mof_N 	N 	0.9027	0.1971	0.5	-0.066
Mof_C 	C 	0.9499	0.1421	0.5	-0.011
Mof_H 	H 	0.9656	0.1236	0.5	0.029
Mof_N 	N 	0.915	0.2093	0.5	-0.066
Mof_C 	C 	0.9724	0.1649	0.5	-0.005
Mof_H 	H 	0.9916	0.1501	0.5	0.045
Mof_N 	N 	0.4027	0.6971	-0	-0.08
Mof_C 	C 	0.4499	0.6421	-0	-0.018
Mof_H 	H 	0.4656	0.6236	-0	0.029
Mof_N 	N 	0.415	0.7093	-0	-0.06
Mof_C 	C 	0.4724	0.6649	-0	0.002
Mof_H 	H 	0.4916	0.6501	-0	0.013
Mof_N 	N 	0.0973	0.8029	0.5	-0.086
Mof_C 	C 	0.0501	0.8579	0.5	-0.005
Mof_H 	H 	0.0344	0.8764	0.5	0.027
Mof_N 	N 	0.085	0.7907	0.5	-0.049
Mof_C 	C 	0.0276	0.8351	0.5	0.025
Mof_H 	H 	0.0084	0.8499	0.5	-0.021
Mof_N 	N 	0.5973	0.3029	-0	-0.08
Mof_C 	C 	0.5501	0.3579	-0	-0.018
Mof_H 	H 	0.5344	0.3764	-0	0.029
Mof_N 	N 	0.585	0.2907	-0	-0.06
Mof_C 	C 	0.5276	0.3351	-0	0.002
Mof_H 	H 	0.5084	0.3499	-0	0.013
Mof_N 	N 	0.9027	0.8029	0.5	-0.066
Mof_C 	C 	0.9499	0.8579	0.5	-0.011
Mof_H 	H 	0.9656	0.8764	0.5	0.03
Mof_N 	N 	0.915	0.7907	0.5	-0.066
Mof_C 	C 	0.9724	0.8351	0.5	-0.005
Mof_H 	H 	0.9916	0.8499	0.5	0.045
Mof_N 	N 	0.4027	0.3029	-0	-0.08
Mof_C 	C 	0.4499	0.3579	-0	-0.018
Mof_H 	H 	0.4656	0.3764	-0	0.029
Mof_N 	N 	0.415	0.2907	-0	-0.06
Mof_C 	C 	0.4724	0.3351	-0	0.002
Mof_H 	H 	0.4916	0.3499	-0	0.013
_end
