data_functionalizedCrystal
_audit_creation_method	'EQeq! by Chris Wilmer'
_symmetry_space_group_name_H-M	'P1'
_symmetry_Int_Tables_number	1
_symmetry_cell_setting	triclinic
loop_
_symmetry_equiv_pos_as_xyz
  x,y,z
_cell_length_a	7.1072
_cell_length_b	9.4094
_cell_length_c	11.7847
_cell_angle_alpha	71.602
_cell_angle_beta	78.165
_cell_angle_gamma	70.296
loop_
_atom_site_label
_atom_site_type_symbol
_atom_site_fract_x
_atom_site_fract_y
_atom_site_fract_z
_atom_site_charge
Mof_Ga	Ga	0.46521	0.37565	0.83957	4.265
Mof_P 	P 	0.64571	0.09833	0.69775	0.46
Mof_P 	P 	0.3099	0.73427	0.67125	0.717
Mof_P 	P 	0.71292	0.54714	0.90563	0.71
Mof_F 	F 	0.2058	0.0887	0.50998	-1.054
Mof_F 	F 	0.5254	0.1882	0.96434	-0.971
Mof_F 	F 	0.2208	0.3381	0.8368	-0.966
Mof_O 	O 	0.7092	0.421	0.8515	-0.842
Mof_O 	O 	0.4009	0.5573	0.7007	-0.886
Mof_O 	O 	0.6825	0.5024	0.0416	-0.92
Mof_O 	O 	0.6108	0.2561	0.722	-0.816
Mof_O 	O 	0.8666	0.0343	0.654	-0.564
Mof_O 	O 	0.4694	0.8199	0.631	-0.512
Mof_O 	O 	0.4999	0.107	0.6164	-0.731
Mof_O 	O 	0.1573	0.7888	0.5803	-0.448
Mof_O 	O 	0.9143	0.5901	0.8571	-0.162
Mof_H 	H 	0.586	0.689	0.861	-0.044
Mof_H 	H 	0.219	0.773	0.768	-0.048
Mof_H 	H 	0.609	0.994	0.807	0.257
Mof_H 	H 	0.028	0.522	0.856	0.102
Mof_Ga	Ga	0.53479	0.62435	0.16043	4.395
Mof_P 	P 	0.35429	0.90167	0.30225	0.967
Mof_P 	P 	0.6901	0.26573	0.32875	0.715
Mof_P 	P 	0.28708	0.45286	0.09437	0.713
Mof_F 	F 	0.7942	0.9113	0.49002	-0.639
Mof_F 	F 	0.4746	0.8118	0.03566	-0.85
Mof_F 	F 	0.7792	0.6619	0.1632	-0.862
Mof_O 	O 	0.2908	0.579	0.1485	-0.909
Mof_O 	O 	0.5991	0.4427	0.2993	-0.895
Mof_O 	O 	0.3175	0.4976	0.9584	-0.873
Mof_O 	O 	0.3892	0.7439	0.278	-0.866
Mof_O 	O 	0.1334	0.9657	0.346	-0.393
Mof_O 	O 	0.5306	0.1801	0.369	-0.748
Mof_O 	O 	0.5001	0.893	0.3836	-0.503
Mof_O 	O 	0.8427	0.2112	0.4197	-0.483
Mof_O 	O 	0.0857	0.4099	0.1429	-0.726
Mof_H 	H 	0.414	0.311	0.139	-0.108
Mof_H 	H 	0.781	0.227	0.232	-0.114
Mof_H 	H 	0.391	0.006	0.193	-0.293
Mof_H 	H 	0.972	0.478	0.144	0.522
Mof_Ga	Ga	1.01547e-17	-2.03094e-17	0.5	1.795
Mof_Ga	Ga	0.5	-2.03094e-17	0.5	2.608
_end
