data_functionalizedCrystal
_audit_creation_method	'EQeq! by Chris Wilmer'
_symmetry_space_group_name_H-M	'P1'
_symmetry_Int_Tables_number	1
_symmetry_cell_setting	triclinic
loop_
_symmetry_equiv_pos_as_xyz
  x,y,z
_cell_length_a	13.391
_cell_length_b	21.45
_cell_length_c	10.1758
_cell_angle_alpha	90
_cell_angle_beta	94.96
_cell_angle_gamma	90
loop_
_atom_site_label
_atom_site_type_symbol
_atom_site_fract_x
_atom_site_fract_y
_atom_site_fract_z
_atom_site_charge
Mof_Cd	Cd	0.51544	0.57311	0.41908	0.514
Mof_O 	O 	0.00476	0.8661	0.3721	-0.234
Mof_C 	C 	0.89708	0.78022	0.24692	0.023
Mof_C 	C 	0.8572	0.75717	0.1273	-0.035
Mof_H 	H 	0.8825	0.77	0.0472	0.057
Mof_C 	C 	0.7789	0.71456	0.1269	-0
Mof_H 	H 	0.7513	0.6973	0.0458	0.029
Mof_C 	C 	0.74011	0.69683	0.24543	-0.072
Mof_C 	C 	0.78589	0.71939	0.36329	0.039
Mof_H 	H 	0.7634	0.7052	0.4441	0.021
Mof_C 	C 	0.86383	0.7622	0.36615	0.008
Mof_H 	H 	0.8933	0.7785	0.4472	0.052
Mof_C 	C 	0.65248	0.65268	0.24672	0.324
Mof_O 	O 	0.62047	0.62972	0.13791	-0.279
Mof_O 	O 	0.61998	0.64349	0.35806	-0.288
Mof_O 	O 	0.0046	0.2823	0.12821	-0.225
Mof_C 	C 	0.10488	0.36601	0.26828	-0.008
Mof_C 	C 	0.13827	0.38859	0.39232	-0.065
Mof_H 	H 	0.1035	0.3785	0.467	0.065
Mof_C 	C 	0.22318	0.42619	0.40576	-0.002
Mof_H 	H 	0.2471	0.4417	0.4901	0.052
Mof_C 	C 	0.27311	0.44101	0.29481	-0.072
Mof_C 	C 	0.23775	0.41856	0.1707	-0.003
Mof_H 	H 	0.2716	0.4291	0.0955	0.057
Mof_C 	C 	0.15373	0.38102	0.15694	-0.059
Mof_H 	H 	0.1295	0.3656	0.0726	0.058
Mof_C 	C 	0.3631	0.48286	0.30594	0.323
Mof_O 	O 	0.40953	0.49073	0.42053	-0.29
Mof_O 	O 	0.38587	0.50914	0.20448	-0.275
Mof_C 	C 	0.8832	0.7342	0.148	-0.046
Mof_H 	H 	0.9283	0.731	0.0813	0.064
Mof_C 	C 	0.8021	0.6935	0.1497	-0
Mof_H 	H 	0.7908	0.6631	0.0821	0.03
Mof_C 	C 	0.7503	0.7432	0.3426	-0.043
Mof_H 	H 	0.703	0.7467	0.4066	0.05
Mof_C 	C 	0.8309	0.784	0.3435	-0.088
Mof_H 	H 	0.8406	0.8146	0.4108	0.07
Mof_Cd	Cd	0.48456	0.57311	0.08092	0.516
Mof_O 	O 	0.99524	0.8661	0.1279	-0.197
Mof_C 	C 	0.10292	0.78022	0.25308	-0.012
Mof_C 	C 	0.1428	0.75717	0.3727	0.056
Mof_H 	H 	0.1175	0.77	0.4528	0.026
Mof_C 	C 	0.2211	0.71456	0.3731	0.076
Mof_H 	H 	0.2487	0.6973	0.4542	0.005
Mof_C 	C 	0.25989	0.69683	0.25457	-0.055
Mof_C 	C 	0.21411	0.71939	0.13671	-0.371
Mof_H 	H 	0.2366	0.7052	0.0559	0.144
Mof_C 	C 	0.13617	0.7622	0.13385	-0.32
Mof_H 	H 	0.1067	0.7785	0.0528	0.143
Mof_C 	C 	0.34752	0.65268	0.25328	0.316
Mof_O 	O 	0.37953	0.62972	0.36209	-0.278
Mof_O 	O 	0.38002	0.64349	0.14194	-0.285
Mof_O 	O 	0.9954	0.2823	0.37179	-0.192
Mof_C 	C 	0.89512	0.36601	0.23172	0.014
Mof_C 	C 	0.86173	0.38859	0.10768	-0.069
Mof_H 	H 	0.8965	0.3785	0.033	0.07
Mof_C 	C 	0.77682	0.42619	0.09424	0.005
Mof_H 	H 	0.7529	0.4417	0.0099	0.05
Mof_C 	C 	0.72689	0.44101	0.20519	-0.076
Mof_C 	C 	0.76225	0.41856	0.3293	0.005
Mof_H 	H 	0.7284	0.4291	0.4045	0.055
Mof_C 	C 	0.84627	0.38102	0.34306	-0.068
Mof_H 	H 	0.8705	0.3656	0.4274	0.066
Mof_C 	C 	0.6369	0.48286	0.19406	0.325
Mof_O 	O 	0.59047	0.49073	0.07947	-0.289
Mof_O 	O 	0.61413	0.50914	0.29552	-0.275
Mof_C 	C 	0.1168	0.7342	0.352	-0.128
Mof_H 	H 	0.0717	0.731	0.4187	0.074
Mof_C 	C 	0.1979	0.6935	0.3503	-0.086
Mof_H 	H 	0.2092	0.6631	0.4179	0.057
Mof_C 	C 	0.2497	0.7432	0.1574	0.343
Mof_H 	H 	0.297	0.7467	0.0934	-0.07
Mof_C 	C 	0.1691	0.784	0.1565	0.263
Mof_H 	H 	0.1594	0.8146	0.0892	-0.041
Mof_Cd	Cd	0.48456	0.42689	0.58092	0.515
Mof_O 	O 	0.99524	0.1339	0.6279	-0.195
Mof_C 	C 	0.10292	0.21978	0.75308	-0.012
Mof_C 	C 	0.1428	0.24283	0.8727	0.06
Mof_H 	H 	0.1175	0.23	0.9528	0.024
Mof_C 	C 	0.2211	0.28544	0.8731	0.08
Mof_H 	H 	0.2487	0.3027	0.9542	0.003
Mof_C 	C 	0.25989	0.30317	0.75457	-0.055
Mof_C 	C 	0.21411	0.28061	0.63671	-0.389
Mof_H 	H 	0.2366	0.2948	0.5559	0.148
Mof_C 	C 	0.13617	0.2378	0.63385	-0.336
Mof_H 	H 	0.1067	0.2215	0.5528	0.147
Mof_C 	C 	0.34752	0.34732	0.75328	0.315
Mof_O 	O 	0.37953	0.37028	0.86209	-0.279
Mof_O 	O 	0.38002	0.35651	0.64194	-0.285
Mof_O 	O 	0.9954	0.7177	0.87179	-0.191
Mof_C 	C 	0.89512	0.63399	0.73172	0.016
Mof_C 	C 	0.86173	0.61141	0.60768	-0.071
Mof_H 	H 	0.8965	0.6215	0.533	0.071
Mof_C 	C 	0.77682	0.57381	0.59424	0.006
Mof_H 	H 	0.7529	0.5583	0.5099	0.05
Mof_C 	C 	0.72689	0.55899	0.70519	-0.077
Mof_C 	C 	0.76225	0.58144	0.8293	0.006
Mof_H 	H 	0.7284	0.5709	0.9045	0.054
Mof_C 	C 	0.84627	0.61898	0.84306	-0.07
Mof_H 	H 	0.8705	0.6344	0.9274	0.066
Mof_C 	C 	0.6369	0.51714	0.69406	0.325
Mof_O 	O 	0.59047	0.50927	0.57947	-0.29
Mof_O 	O 	0.61413	0.49086	0.79552	-0.276
Mof_C 	C 	0.1168	0.2658	0.852	-0.133
Mof_H 	H 	0.0717	0.269	0.9187	0.074
Mof_C 	C 	0.1979	0.3065	0.8503	-0.09
Mof_H 	H 	0.2092	0.3369	0.9179	0.058
Mof_C 	C 	0.2497	0.2568	0.6574	0.361
Mof_H 	H 	0.297	0.2533	0.5934	-0.076
Mof_C 	C 	0.1691	0.216	0.6565	0.279
Mof_H 	H 	0.1594	0.1854	0.5892	-0.046
Mof_Cd	Cd	0.51544	0.42689	0.91908	0.515
Mof_O 	O 	0.00476	0.1339	0.8721	-0.235
Mof_C 	C 	0.89708	0.21978	0.74692	0.026
Mof_C 	C 	0.8572	0.24283	0.6273	-0.038
Mof_H 	H 	0.8825	0.23	0.5472	0.058
Mof_C 	C 	0.7789	0.28544	0.6269	-0.002
Mof_H 	H 	0.7513	0.3027	0.5458	0.03
Mof_C 	C 	0.74011	0.30317	0.74543	-0.073
Mof_C 	C 	0.78589	0.28061	0.86329	0.053
Mof_H 	H 	0.7634	0.2948	0.9441	0.017
Mof_C 	C 	0.86383	0.2378	0.86615	0.018
Mof_H 	H 	0.8933	0.2215	0.9472	0.049
Mof_C 	C 	0.65248	0.34732	0.74672	0.324
Mof_O 	O 	0.62047	0.37028	0.63791	-0.279
Mof_O 	O 	0.61998	0.35651	0.85806	-0.288
Mof_O 	O 	0.0046	0.7177	0.62821	-0.226
Mof_C 	C 	0.10488	0.63399	0.76828	-0.007
Mof_C 	C 	0.13827	0.61141	0.89232	-0.065
Mof_H 	H 	0.1035	0.6215	0.967	0.064
Mof_C 	C 	0.22318	0.57381	0.90576	-0.001
Mof_H 	H 	0.2471	0.5583	0.9901	0.051
Mof_C 	C 	0.27311	0.55899	0.79481	-0.073
Mof_C 	C 	0.23775	0.58144	0.6707	-0.002
Mof_H 	H 	0.2716	0.5709	0.5955	0.056
Mof_C 	C 	0.15373	0.61898	0.65694	-0.059
Mof_H 	H 	0.1295	0.6344	0.5726	0.057
Mof_C 	C 	0.3631	0.51714	0.80594	0.324
Mof_O 	O 	0.40953	0.50927	0.92053	-0.29
Mof_O 	O 	0.38587	0.49086	0.70448	-0.275
Mof_C 	C 	0.8832	0.2658	0.648	-0.044
Mof_H 	H 	0.9283	0.269	0.5813	0.065
Mof_C 	C 	0.8021	0.3065	0.6497	0.003
Mof_H 	H 	0.7908	0.3369	0.5821	0.029
Mof_C 	C 	0.7503	0.2568	0.8426	-0.056
Mof_H 	H 	0.703	0.2533	0.9066	0.054
Mof_C 	C 	0.8309	0.216	0.8435	-0.1
Mof_H 	H 	0.8406	0.1854	0.9108	0.073
Mof_S 	S 	7.73876e-34	0.83146	0.25	0.232
Mof_S 	S 	2.32163e-33	0.16854	0.75	0.228
Mof_S 	S 	-2.44012e-18	0.3157	0.25	0.226
Mof_S 	S 	2.32163e-33	0.6843	0.75	0.222
Mof_Cd	Cd	0.01544	0.07311	0.41908	0.489
Mof_O 	O 	0.50476	0.3661	0.3721	-0.231
Mof_C 	C 	0.39708	0.28022	0.24692	-0.013
Mof_C 	C 	0.3572	0.25717	0.1273	0.008
Mof_H 	H 	0.3825	0.27	0.0472	0.041
Mof_C 	C 	0.2789	0.21456	0.1269	0.031
Mof_H 	H 	0.2513	0.1973	0.0458	0.017
Mof_C 	C 	0.24011	0.19683	0.24543	-0.063
Mof_C 	C 	0.28589	0.21939	0.36329	-0.149
Mof_H 	H 	0.2634	0.2052	0.4441	0.077
Mof_C 	C 	0.36383	0.2622	0.36615	-0.136
Mof_H 	H 	0.3933	0.2785	0.4472	0.092
Mof_C 	C 	0.15248	0.15268	0.24672	0.32
Mof_O 	O 	0.12047	0.12972	0.13791	-0.286
Mof_O 	O 	0.11998	0.14349	0.35806	-0.291
Mof_O 	O 	0.5046	0.7823	0.12821	-0.224
Mof_C 	C 	0.60488	0.86601	0.26828	-0.016
Mof_C 	C 	0.63827	0.88859	0.39232	-0.051
Mof_H 	H 	0.6035	0.8785	0.467	0.063
Mof_C 	C 	0.72318	0.92619	0.40576	-0.006
Mof_H 	H 	0.7471	0.9417	0.4901	0.053
Mof_C 	C 	0.77311	0.94101	0.29481	-0.065
Mof_C 	C 	0.73775	0.91856	0.1707	-0.006
Mof_H 	H 	0.7716	0.9291	0.0955	0.06
Mof_C 	C 	0.65373	0.88102	0.15694	-0.045
Mof_H 	H 	0.6295	0.8656	0.0726	0.057
Mof_C 	C 	0.8631	0.98286	0.30594	0.323
Mof_O 	O 	0.90953	0.99073	0.42053	-0.281
Mof_O 	O 	0.88587	0.00914	0.20448	-0.27
Mof_C 	C 	0.3832	0.2342	0.148	-0.077
Mof_H 	H 	0.4283	0.231	0.0813	0.066
Mof_C 	C 	0.3021	0.1935	0.1497	-0.039
Mof_H 	H 	0.2908	0.1631	0.0821	0.043
Mof_C 	C 	0.2503	0.2432	0.3426	0.131
Mof_H 	H 	0.203	0.2467	0.4066	-0.006
Mof_C 	C 	0.3309	0.284	0.3435	0.075
Mof_H 	H 	0.3406	0.3146	0.4108	0.016
Mof_Cd	Cd	0.98456	0.07311	0.08092	0.538
Mof_O 	O 	0.49524	0.3661	0.1279	-0.231
Mof_C 	C 	0.60292	0.28022	0.25308	-0.015
Mof_C 	C 	0.6428	0.25717	0.3727	0.027
Mof_H 	H 	0.6175	0.27	0.4528	0.037
Mof_C 	C 	0.7211	0.21456	0.3731	0.046
Mof_H 	H 	0.7487	0.1973	0.4542	0.018
Mof_C 	C 	0.75989	0.19683	0.25457	-0.057
Mof_C 	C 	0.71411	0.21939	0.13671	-0.209
Mof_H 	H 	0.7366	0.2052	0.0559	0.095
Mof_C 	C 	0.63617	0.2622	0.13385	-0.186
Mof_H 	H 	0.6067	0.2785	0.0528	0.105
Mof_C 	C 	0.84752	0.15268	0.25328	0.317
Mof_O 	O 	0.87953	0.12972	0.36209	-0.271
Mof_O 	O 	0.88002	0.14349	0.14194	-0.282
Mof_O 	O 	0.4954	0.7823	0.37179	-0.227
Mof_C 	C 	0.39512	0.86601	0.23172	-0.026
Mof_C 	C 	0.36173	0.88859	0.10768	-0.052
Mof_H 	H 	0.3965	0.8785	0.033	0.062
Mof_C 	C 	0.27682	0.92619	0.09424	-0.01
Mof_H 	H 	0.2529	0.9417	0.0099	0.056
Mof_C 	C 	0.22689	0.94101	0.20519	-0.068
Mof_C 	C 	0.26225	0.91856	0.3293	-0.012
Mof_H 	H 	0.2284	0.9291	0.4045	0.058
Mof_C 	C 	0.34627	0.88102	0.34306	-0.051
Mof_H 	H 	0.3705	0.8656	0.4274	0.055
Mof_C 	C 	0.1369	0.98286	0.19406	0.32
Mof_O 	O 	0.09047	0.99073	0.07947	-0.296
Mof_O 	O 	0.11413	0.00914	0.29552	-0.279
Mof_C 	C 	0.6168	0.2342	0.352	-0.094
Mof_H 	H 	0.5717	0.231	0.4187	0.071
Mof_C 	C 	0.6979	0.1935	0.3503	-0.057
Mof_H 	H 	0.7092	0.1631	0.4179	0.049
Mof_C 	C 	0.7497	0.2432	0.1574	0.187
Mof_H 	H 	0.797	0.2467	0.0934	-0.02
Mof_C 	C 	0.6691	0.284	0.1565	0.129
Mof_H 	H 	0.6594	0.3146	0.0892	0.002
Mof_Cd	Cd	0.98456	0.92689	0.58092	0.54
Mof_O 	O 	0.49524	0.6339	0.6279	-0.231
Mof_C 	C 	0.60292	0.71978	0.75308	-0.016
Mof_C 	C 	0.6428	0.74283	0.8727	0.028
Mof_H 	H 	0.6175	0.73	0.9528	0.037
Mof_C 	C 	0.7211	0.78544	0.8731	0.047
Mof_H 	H 	0.7487	0.8027	0.9542	0.017
Mof_C 	C 	0.75989	0.80317	0.75457	-0.057
Mof_C 	C 	0.71411	0.78061	0.63671	-0.215
Mof_H 	H 	0.7366	0.7948	0.5559	0.097
Mof_C 	C 	0.63617	0.7378	0.63385	-0.19
Mof_H 	H 	0.6067	0.7215	0.5528	0.107
Mof_C 	C 	0.84752	0.84732	0.75328	0.317
Mof_O 	O 	0.87953	0.87028	0.86209	-0.27
Mof_O 	O 	0.88002	0.85651	0.64194	-0.282
Mof_O 	O 	0.4954	0.2177	0.87179	-0.228
Mof_C 	C 	0.39512	0.13399	0.73172	-0.026
Mof_C 	C 	0.36173	0.11141	0.60768	-0.052
Mof_H 	H 	0.3965	0.1215	0.533	0.062
Mof_C 	C 	0.27682	0.07381	0.59424	-0.01
Mof_H 	H 	0.2529	0.0583	0.5099	0.055
Mof_C 	C 	0.22689	0.05899	0.70519	-0.069
Mof_C 	C 	0.26225	0.08144	0.8293	-0.012
Mof_H 	H 	0.2284	0.0709	0.9045	0.058
Mof_C 	C 	0.34627	0.11898	0.84306	-0.052
Mof_H 	H 	0.3705	0.1344	0.9274	0.054
Mof_C 	C 	0.1369	0.01714	0.69406	0.321
Mof_O 	O 	0.09047	0.00927	0.57947	-0.298
Mof_O 	O 	0.11413	0.99086	0.79552	-0.279
Mof_C 	C 	0.6168	0.7658	0.852	-0.095
Mof_H 	H 	0.5717	0.769	0.9187	0.071
Mof_C 	C 	0.6979	0.8065	0.8503	-0.058
Mof_H 	H 	0.7092	0.8369	0.9179	0.049
Mof_C 	C 	0.7497	0.7568	0.6574	0.192
Mof_H 	H 	0.797	0.7533	0.5934	-0.021
Mof_C 	C 	0.6691	0.716	0.6565	0.133
Mof_H 	H 	0.6594	0.6854	0.5892	0
Mof_Cd	Cd	0.01544	0.92689	0.91908	0.487
Mof_O 	O 	0.50476	0.6339	0.8721	-0.232
Mof_C 	C 	0.39708	0.71978	0.74692	-0.013
Mof_C 	C 	0.3572	0.74283	0.6273	0.009
Mof_H 	H 	0.3825	0.73	0.5472	0.04
Mof_C 	C 	0.2789	0.78544	0.6269	0.032
Mof_H 	H 	0.2513	0.8027	0.5458	0.016
Mof_C 	C 	0.24011	0.80317	0.74543	-0.064
Mof_C 	C 	0.28589	0.78061	0.86329	-0.15
Mof_H 	H 	0.2634	0.7948	0.9441	0.077
Mof_C 	C 	0.36383	0.7378	0.86615	-0.137
Mof_H 	H 	0.3933	0.7215	0.9472	0.091
Mof_C 	C 	0.15248	0.84732	0.74672	0.32
Mof_O 	O 	0.12047	0.87028	0.63791	-0.287
Mof_O 	O 	0.11998	0.85651	0.85806	-0.291
Mof_O 	O 	0.5046	0.2177	0.62821	-0.224
Mof_C 	C 	0.60488	0.13399	0.76828	-0.016
Mof_C 	C 	0.63827	0.11141	0.89232	-0.051
Mof_H 	H 	0.6035	0.1215	0.967	0.063
Mof_C 	C 	0.72318	0.07381	0.90576	-0.007
Mof_H 	H 	0.7471	0.0583	0.9901	0.053
Mof_C 	C 	0.77311	0.05899	0.79481	-0.065
Mof_C 	C 	0.73775	0.08144	0.6707	-0.006
Mof_H 	H 	0.7716	0.0709	0.5955	0.06
Mof_C 	C 	0.65373	0.11898	0.65694	-0.045
Mof_H 	H 	0.6295	0.1344	0.5726	0.056
Mof_C 	C 	0.8631	0.01714	0.80594	0.323
Mof_O 	O 	0.90953	0.00927	0.92053	-0.28
Mof_O 	O 	0.88587	0.99086	0.70448	-0.27
Mof_C 	C 	0.3832	0.7658	0.648	-0.077
Mof_H 	H 	0.4283	0.769	0.5813	0.067
Mof_C 	C 	0.3021	0.8065	0.6497	-0.04
Mof_H 	H 	0.2908	0.8369	0.5821	0.043
Mof_C 	C 	0.2503	0.7568	0.8426	0.132
Mof_H 	H 	0.203	0.7533	0.9066	-0.007
Mof_C 	C 	0.3309	0.716	0.8435	0.076
Mof_H 	H 	0.3406	0.6854	0.9108	0.016
Mof_S 	S 	0.5	0.33146	0.25	0.287
Mof_S 	S 	0.5	0.66854	0.75	0.287
Mof_S 	S 	0.5	0.8157	0.25	0.285
Mof_S 	S 	0.5	0.1843	0.75	0.285
_end
