data_functionalizedCrystal
_audit_creation_method	'EQeq! by Chris Wilmer'
_symmetry_space_group_name_H-M	'P1'
_symmetry_Int_Tables_number	1
_symmetry_cell_setting	triclinic
loop_
_symmetry_equiv_pos_as_xyz
  x,y,z
_cell_length_a	12.4895
_cell_length_b	12.4895
_cell_length_c	18.254
_cell_angle_alpha	98.7567
_cell_angle_beta	98.7567
_cell_angle_gamma	116.378
loop_
_atom_site_label
_atom_site_type_symbol
_atom_site_fract_x
_atom_site_fract_y
_atom_site_fract_z
_atom_site_charge
Mof_Zn	Zn	0.80218	0.65906	0.04091	1.21
Mof_Zn	Zn	0.34094	0.19782	0.45909	1.21
Mof_Zn	Zn	0.19782	0.34094	0.95909	1.21
Mof_Zn	Zn	0.65906	0.80218	0.54091	1.21
Mof_Zn	Zn	0.24855	0.75145	0.75	1.161
Mof_Zn	Zn	0.75145	0.24855	0.25	1.161
Mof_B 	B 	0.7159	0.0295	0.95	0.881
Mof_B 	B 	0.9705	0.2841	0.55	0.894
Mof_B 	B 	0.2841	0.9705	0.05	0.881
Mof_B 	B 	0.0295	0.7159	0.45	0.894
Mof_H 	H 	0.799	0.969	0.82	0.035
Mof_H 	H 	0.036	0.116	0.831	0.029
Mof_H 	H 	0.954	0.238	0.009	-0.013
Mof_H 	H 	0.581	0.705	0.072	0.019
Mof_H 	H 	0.536	0.88	0.039	0.003
Mof_H 	H 	0.838	0.896	0.964	-0.026
Mof_H 	H 	0.787	0.067	0.118	-0.025
Mof_H 	H 	0.753	0.355	0.11	0.049
Mof_H 	H 	0.708	0.268	0.963	0.002
Mof_H 	H 	0.6625	0.1249	0.8216	0.001
Mof_H 	H 	0.482	0.976	0.726	0.049
Mof_H 	H 	0.513	0.817	0.889	-0.012
Mof_H 	H 	0.793	0.535	0.74	0.057
Mof_H 	H 	0.583	0.355	0.87	0.041
Mof_H 	H 	0.735	0.639	0.315	0.044
Mof_H 	H 	0.031	0.201	0.68	0.029
Mof_H 	H 	0.884	0.964	0.669	0.033
Mof_H 	H 	0.762	0.046	0.491	-0.019
Mof_H 	H 	0.295	0.419	0.428	0.019
Mof_H 	H 	0.12	0.464	0.461	0.003
Mof_H 	H 	0.104	0.162	0.536	-0.027
Mof_H 	H 	0.933	0.213	0.382	-0.026
Mof_H 	H 	0.645	0.247	0.39	0.046
Mof_H 	H 	0.732	0.292	0.537	0.005
Mof_H 	H 	0.8751	0.3375	0.6784	-0.004
Mof_H 	H 	0.024	0.518	0.774	0.056
Mof_H 	H 	0.183	0.487	0.611	-0.013
Mof_H 	H 	0.465	0.207	0.76	0.056
Mof_H 	H 	0.645	0.417	0.63	0.04
Mof_H 	H 	0.361	0.265	0.185	0.044
Mof_H 	H 	0.201	0.031	0.18	0.035
Mof_H 	H 	0.964	0.884	0.169	0.029
Mof_H 	H 	0.046	0.762	0.991	-0.013
Mof_H 	H 	0.419	0.295	0.928	0.019
Mof_H 	H 	0.464	0.12	0.961	0.003
Mof_H 	H 	0.162	0.104	0.036	-0.026
Mof_H 	H 	0.213	0.933	0.882	-0.025
Mof_H 	H 	0.247	0.645	0.89	0.049
Mof_H 	H 	0.292	0.732	0.037	0.002
Mof_H 	H 	0.3375	0.8751	0.1784	0.001
Mof_H 	H 	0.518	0.024	0.274	0.049
Mof_H 	H 	0.487	0.183	0.111	-0.012
Mof_H 	H 	0.207	0.465	0.26	0.057
Mof_H 	H 	0.417	0.645	0.13	0.041
Mof_H 	H 	0.265	0.361	0.685	0.044
Mof_H 	H 	0.969	0.799	0.32	0.029
Mof_H 	H 	0.116	0.036	0.331	0.033
Mof_H 	H 	0.238	0.954	0.509	-0.019
Mof_H 	H 	0.705	0.581	0.572	0.019
Mof_H 	H 	0.88	0.536	0.539	0.003
Mof_H 	H 	0.896	0.838	0.464	-0.027
Mof_H 	H 	0.067	0.787	0.618	-0.026
Mof_H 	H 	0.355	0.753	0.61	0.046
Mof_H 	H 	0.268	0.708	0.463	0.005
Mof_H 	H 	0.1249	0.6625	0.3216	-0.004
Mof_H 	H 	0.976	0.482	0.226	0.056
Mof_H 	H 	0.817	0.513	0.389	-0.013
Mof_H 	H 	0.535	0.793	0.24	0.056
Mof_H 	H 	0.355	0.583	0.37	0.04
Mof_H 	H 	0.639	0.735	0.815	0.044
Mof_C 	C 	0.8581	0.0341	0.8554	0.017
Mof_C 	C 	0.9737	0.1145	0.8548	-0.017
Mof_C 	C 	0.9391	0.1877	0.9604	0.102
Mof_C 	C 	0.6226	0.7612	0.0382	-0.009
Mof_C 	C 	0.6045	0.8523	0.0193	0.026
Mof_C 	C 	0.7637	0.8561	0.9808	0.121
Mof_C 	C 	0.7573	0.1331	0.0923	0.083
Mof_C 	C 	0.756	0.3026	0.087	-0.064
Mof_C 	C 	0.7213	0.2361	0.0131	0.065
Mof_C 	C 	0.6014	0.0478	0.8224	0.054
Mof_C 	C 	0.4963	0.9781	0.7692	-0.065
Mof_C 	C 	0.4973	0.8815	0.8555	0.097
Mof_C 	C 	0.7934	0.5516	0.8908	0.307
Mof_C 	C 	0.7304	0.4746	0.7466	-0.047
Mof_C 	C 	0.7083	0.4553	0.8166	-0.056
Mof_C 	C 	0.6072	0.3518	0.8195	-0.011
Mof_C 	C 	0.7183	0.6133	0.1725	0.314
Mof_C 	C 	0.6289	0.5289	0.2122	-0.078
Mof_C 	C 	0.6514	0.5598	0.2922	-0.026
Mof_C 	C 	0.5213	0.4257	0.1693	-0.012
Mof_C 	C 	0.9659	0.1419	0.6446	0.028
Mof_C 	C 	0.8855	0.0263	0.6452	-0.023
Mof_C 	C 	0.8123	0.0609	0.5396	0.11
Mof_C 	C 	0.2388	0.3774	0.4618	-0.01
Mof_C 	C 	0.1477	0.3955	0.4807	0.031
Mof_C 	C 	0.1439	0.2363	0.5192	0.119
Mof_C 	C 	0.8669	0.2427	0.4077	0.082
Mof_C 	C 	0.6974	0.244	0.413	-0.059
Mof_C 	C 	0.7639	0.2787	0.4869	0.059
Mof_C 	C 	0.9522	0.3986	0.6776	0.069
Mof_C 	C 	0.0219	0.5037	0.7308	-0.081
Mof_C 	C 	0.1185	0.5027	0.6445	0.097
Mof_C 	C 	0.4484	0.2066	0.6092	0.308
Mof_C 	C 	0.5254	0.2696	0.7534	-0.046
Mof_C 	C 	0.5447	0.2917	0.6834	-0.057
Mof_C 	C 	0.6482	0.3928	0.6805	-0.01
Mof_C 	C 	0.3867	0.2817	0.3275	0.314
Mof_C 	C 	0.4711	0.3711	0.2878	-0.078
Mof_C 	C 	0.4402	0.3486	0.2078	-0.026
Mof_C 	C 	0.5743	0.4787	0.3307	-0.012
Mof_C 	C 	0.1419	0.9659	0.1446	0.017
Mof_C 	C 	0.0263	0.8855	0.1452	-0.017
Mof_C 	C 	0.0609	0.8123	0.0396	0.102
Mof_C 	C 	0.3774	0.2388	0.9618	-0.009
Mof_C 	C 	0.3955	0.1477	0.9807	0.026
Mof_C 	C 	0.2363	0.1439	0.0192	0.121
Mof_C 	C 	0.2427	0.8669	0.9077	0.083
Mof_C 	C 	0.244	0.6974	0.913	-0.064
Mof_C 	C 	0.2787	0.7639	0.9869	0.065
Mof_C 	C 	0.3986	0.9522	0.1776	0.054
Mof_C 	C 	0.5037	0.0219	0.2308	-0.065
Mof_C 	C 	0.5027	0.1185	0.1445	0.097
Mof_C 	C 	0.2066	0.4484	0.1092	0.307
Mof_C 	C 	0.2696	0.5254	0.2534	-0.047
Mof_C 	C 	0.2917	0.5447	0.1834	-0.056
Mof_C 	C 	0.3928	0.6482	0.1805	-0.011
Mof_C 	C 	0.2817	0.3867	0.8275	0.314
Mof_C 	C 	0.3711	0.4711	0.7878	-0.078
Mof_C 	C 	0.3486	0.4402	0.7078	-0.026
Mof_C 	C 	0.4787	0.5743	0.8307	-0.012
Mof_C 	C 	0.0341	0.8581	0.3554	0.028
Mof_C 	C 	0.1145	0.9737	0.3548	-0.023
Mof_C 	C 	0.1877	0.9391	0.4604	0.11
Mof_C 	C 	0.7612	0.6226	0.5382	-0.01
Mof_C 	C 	0.8523	0.6045	0.5193	0.031
Mof_C 	C 	0.8561	0.7637	0.4808	0.119
Mof_C 	C 	0.1331	0.7573	0.5923	0.082
Mof_C 	C 	0.3026	0.756	0.587	-0.059
Mof_C 	C 	0.2361	0.7213	0.5131	0.059
Mof_C 	C 	0.0478	0.6014	0.3224	0.069
Mof_C 	C 	0.9781	0.4963	0.2692	-0.081
Mof_C 	C 	0.8815	0.4973	0.3555	0.097
Mof_C 	C 	0.5516	0.7934	0.3908	0.308
Mof_C 	C 	0.4746	0.7304	0.2466	-0.046
Mof_C 	C 	0.4553	0.7083	0.3166	-0.057
Mof_C 	C 	0.3518	0.6072	0.3195	-0.01
Mof_C 	C 	0.6133	0.7183	0.6725	0.314
Mof_C 	C 	0.5289	0.6289	0.7122	-0.078
Mof_C 	C 	0.5598	0.6514	0.7922	-0.026
Mof_C 	C 	0.4257	0.5213	0.6693	-0.012
Mof_N 	N 	0.0244	0.212	0.9206	-0.272
Mof_N 	N 	0.8345	0.0811	0.9226	-0.297
Mof_N 	N 	0.7222	0.762	0.0143	-0.268
Mof_N 	N 	0.6954	0.9146	0.9822	-0.288
Mof_N 	N 	0.7734	0.238	0.1372	-0.253
Mof_N 	N 	0.7227	0.1287	0.0167	-0.291
Mof_N 	N 	0.6054	0.9872	0.8792	-0.288
Mof_N 	N 	0.4286	0.872	0.7898	-0.276
Mof_N 	N 	0.788	0.9756	0.5794	-0.272
Mof_N 	N 	0.9189	0.1655	0.5774	-0.3
Mof_N 	N 	0.238	0.2778	0.4857	-0.266
Mof_N 	N 	0.0854	0.3046	0.5178	-0.293
Mof_N 	N 	0.762	0.2266	0.3628	-0.254
Mof_N 	N 	0.8713	0.2773	0.4833	-0.294
Mof_N 	N 	0.0128	0.3946	0.6208	-0.295
Mof_N 	N 	0.128	0.5714	0.7102	-0.274
Mof_N 	N 	0.9756	0.788	0.0794	-0.272
Mof_N 	N 	0.1655	0.9189	0.0774	-0.297
Mof_N 	N 	0.2778	0.238	0.9857	-0.268
Mof_N 	N 	0.3046	0.0854	0.0178	-0.288
Mof_N 	N 	0.2266	0.762	0.8628	-0.253
Mof_N 	N 	0.2773	0.8713	0.9833	-0.291
Mof_N 	N 	0.3946	0.0128	0.1208	-0.288
Mof_N 	N 	0.5714	0.128	0.2102	-0.276
Mof_N 	N 	0.212	0.0244	0.4206	-0.272
Mof_N 	N 	0.0811	0.8345	0.4226	-0.3
Mof_N 	N 	0.762	0.7222	0.5143	-0.266
Mof_N 	N 	0.9146	0.6954	0.4822	-0.293
Mof_N 	N 	0.238	0.7734	0.6372	-0.254
Mof_N 	N 	0.1287	0.7227	0.5167	-0.294
Mof_N 	N 	0.9872	0.6054	0.3792	-0.295
Mof_N 	N 	0.872	0.4286	0.2898	-0.274
Mof_O 	O 	0.8758	0.6504	0.8877	-0.305
Mof_O 	O 	0.7633	0.5259	0.9537	-0.452
Mof_O 	O 	0.7939	0.7207	0.2072	-0.309
Mof_O 	O 	0.7059	0.5621	0.1027	-0.463
Mof_O 	O 	0.3496	0.1242	0.6123	-0.305
Mof_O 	O 	0.4741	0.2367	0.5463	-0.452
Mof_O 	O 	0.2793	0.2061	0.2928	-0.309
Mof_O 	O 	0.4379	0.2941	0.3973	-0.463
Mof_O 	O 	0.1242	0.3496	0.1123	-0.305
Mof_O 	O 	0.2367	0.4741	0.0463	-0.452
Mof_O 	O 	0.2061	0.2793	0.7928	-0.309
Mof_O 	O 	0.2941	0.4379	0.8973	-0.463
Mof_O 	O 	0.6504	0.8758	0.3877	-0.305
Mof_O 	O 	0.5259	0.7633	0.4537	-0.452
Mof_O 	O 	0.7207	0.7939	0.7072	-0.309
Mof_O 	O 	0.5621	0.7059	0.6027	-0.463
Mof_H 	H 	0.49931	0.40406	0.10415	0.036
Mof_H 	H 	0.59594	0.50069	0.39585	0.036
Mof_H 	H 	0.50069	0.59594	0.89585	0.036
Mof_H 	H 	0.40406	0.49931	0.60415	0.036
_end
