data_functionalizedCrystal
_audit_creation_method	'EQeq! by Chris Wilmer'
_symmetry_space_group_name_H-M	'P1'
_symmetry_Int_Tables_number	1
_symmetry_cell_setting	triclinic
loop_
_symmetry_equiv_pos_as_xyz
  x,y,z
_cell_length_a	10.0656
_cell_length_b	11.1625
_cell_length_c	19.2011
_cell_angle_alpha	90
_cell_angle_beta	90
_cell_angle_gamma	90
loop_
_atom_site_label
_atom_site_type_symbol
_atom_site_fract_x
_atom_site_fract_y
_atom_site_fract_z
_atom_site_charge
Mof_Ni	Ni	0.96321	0.12971	0.52106	1.027
Mof_Ni	Ni	0.75162	0.01502	0.3982	1.137
Mof_Ni	Ni	0.53679	0.87029	0.02106	1.029
Mof_Ni	Ni	0.74838	0.98498	0.8982	1.14
Mof_Ni	Ni	0.03679	0.62971	0.97894	1.028
Mof_Ni	Ni	0.24838	0.51502	0.1018	1.139
Mof_Ni	Ni	0.46321	0.37029	0.47894	1.029
Mof_Ni	Ni	0.25162	0.48498	0.6018	1.139
Mof_H 	H 	0.6638	0.7073	0.527	0.128
Mof_H 	H 	0.5734	0.7767	0.5785	0.116
Mof_H 	H 	0.7916	0.5286	0.5686	0.113
Mof_H 	H 	0.7772	0.4848	0.6448	0.105
Mof_H 	H 	0.9746	0.7917	0.6008	0.123
Mof_H 	H 	0.9136	0.7155	0.5413	0.123
Mof_H 	H 	0.6741	0.8991	0.6746	0.127
Mof_H 	H 	0.8272	0.9017	0.6838	0.136
Mof_H 	H 	0.6284	0.5954	0.7277	0.129
Mof_H 	H 	0.5489	0.7059	0.7021	0.129
Mof_H 	H 	0.9483	0.7234	0.7258	0.124
Mof_H 	H 	0.8724	0.6057	0.742	0.115
Mof_H 	H 	0.7505	0.2017	0.484	0.259
Mof_H 	H 	0.8286	0.215	0.4229	0.404
Mof_H 	H 	0.8362	0.2927	0.027	0.127
Mof_H 	H 	0.9266	0.2233	0.0785	0.115
Mof_H 	H 	0.7084	0.4714	0.0686	0.113
Mof_H 	H 	0.7228	0.5152	0.1448	0.105
Mof_H 	H 	0.5254	0.2083	0.1008	0.122
Mof_H 	H 	0.5864	0.2845	0.0413	0.122
Mof_H 	H 	0.8259	0.1009	0.1746	0.125
Mof_H 	H 	0.6728	0.0983	0.1838	0.134
Mof_H 	H 	0.8716	0.4046	0.2277	0.129
Mof_H 	H 	0.9511	0.2941	0.2021	0.128
Mof_H 	H 	0.5517	0.2766	0.2258	0.123
Mof_H 	H 	0.6276	0.3943	0.242	0.114
Mof_H 	H 	0.7495	0.7983	0.984	0.26
Mof_H 	H 	0.6714	0.785	0.9229	0.404
Mof_H 	H 	0.3362	0.2073	0.973	0.128
Mof_H 	H 	0.4266	0.2767	0.9215	0.116
Mof_H 	H 	0.2084	0.0286	0.9314	0.111
Mof_H 	H 	0.2228	0.9848	0.8552	0.099
Mof_H 	H 	0.0254	0.2917	0.8992	0.122
Mof_H 	H 	0.0864	0.2155	0.9587	0.123
Mof_H 	H 	0.3259	0.3991	0.8254	0.126
Mof_H 	H 	0.1728	0.4017	0.8162	0.134
Mof_H 	H 	0.3716	0.0954	0.7723	0.129
Mof_H 	H 	0.4511	0.2059	0.7979	0.128
Mof_H 	H 	0.0517	0.2234	0.7742	0.123
Mof_H 	H 	0.1276	0.1057	0.758	0.115
Mof_H 	H 	0.2495	0.7017	0.016	0.26
Mof_H 	H 	0.1714	0.715	0.0771	0.404
Mof_H 	H 	0.1638	0.7927	0.473	0.128
Mof_H 	H 	0.0734	0.7233	0.4215	0.117
Mof_H 	H 	0.2916	0.9714	0.4314	0.114
Mof_H 	H 	0.2772	0.0152	0.3552	0.109
Mof_H 	H 	0.4746	0.7083	0.3992	0.122
Mof_H 	H 	0.4136	0.7845	0.4587	0.123
Mof_H 	H 	0.1741	0.6009	0.3254	0.127
Mof_H 	H 	0.3272	0.5983	0.3162	0.135
Mof_H 	H 	0.1284	0.9046	0.2723	0.13
Mof_H 	H 	0.0489	0.7941	0.2979	0.13
Mof_H 	H 	0.4483	0.7766	0.2742	0.123
Mof_H 	H 	0.3724	0.8943	0.258	0.114
Mof_H 	H 	0.2505	0.2983	0.516	0.26
Mof_H 	H 	0.3286	0.285	0.5771	0.404
Mof_C 	C 	0.7867	0.9206	0.5439	0.291
Mof_C 	C 	0.7711	0.813	0.594	0.122
Mof_C 	C 	0.6537	0.7327	0.5739	-0.281
Mof_C 	C 	0.6484	0.6217	0.6219	0.112
Mof_C 	C 	0.7802	0.5532	0.6155	-0.277
Mof_C 	C 	0.898	0.6316	0.6368	0.136
Mof_C 	C 	0.9022	0.7417	0.588	-0.292
Mof_C 	C 	0.7535	0.8537	0.6705	-0.295
Mof_C 	C 	0.7453	0.7447	0.7184	0.135
Mof_C 	C 	0.6301	0.6633	0.6979	-0.292
Mof_C 	C 	0.8763	0.6736	0.7122	-0.293
Mof_C 	C 	0.5324	0.5436	0.5967	0.307
Mof_C 	C 	0.0313	0.5701	0.6274	0.217
Mof_C 	C 	0.7321	0.7876	0.7943	0.257
Mof_C 	C 	0.7133	0.0794	0.0439	0.281
Mof_C 	C 	0.7289	0.187	0.094	0.123
Mof_C 	C 	0.8463	0.2673	0.0739	-0.281
Mof_C 	C 	0.8516	0.3783	0.1219	0.112
Mof_C 	C 	0.7198	0.4468	0.1155	-0.277
Mof_C 	C 	0.602	0.3684	0.1368	0.135
Mof_C 	C 	0.5978	0.2583	0.088	-0.292
Mof_C 	C 	0.7465	0.1463	0.1705	-0.294
Mof_C 	C 	0.7547	0.2553	0.2184	0.134
Mof_C 	C 	0.8699	0.3367	0.1979	-0.292
Mof_C 	C 	0.6237	0.3264	0.2122	-0.291
Mof_C 	C 	0.9676	0.4564	0.0967	0.304
Mof_C 	C 	0.4687	0.4299	0.1274	0.219
Mof_C 	C 	0.7679	0.2124	0.2943	0.257
Mof_C 	C 	0.2133	0.4206	0.9561	0.286
Mof_C 	C 	0.2289	0.313	0.906	0.122
Mof_C 	C 	0.3463	0.2327	0.9261	-0.28
Mof_C 	C 	0.3516	0.1217	0.8781	0.109
Mof_C 	C 	0.2198	0.0532	0.8845	-0.268
Mof_C 	C 	0.102	0.1316	0.8632	0.136
Mof_C 	C 	0.0978	0.2417	0.912	-0.292
Mof_C 	C 	0.2465	0.3537	0.8295	-0.294
Mof_C 	C 	0.2547	0.2447	0.7816	0.134
Mof_C 	C 	0.3699	0.1633	0.8021	-0.29
Mof_C 	C 	0.1237	0.1736	0.7878	-0.292
Mof_C 	C 	0.4676	0.0436	0.9033	0.31
Mof_C 	C 	0.9687	0.0701	0.8726	0.213
Mof_C 	C 	0.2679	0.2876	0.7057	0.257
Mof_C 	C 	0.2867	0.5794	0.4561	0.287
Mof_C 	C 	0.2711	0.687	0.406	0.124
Mof_C 	C 	0.1537	0.7673	0.4261	-0.284
Mof_C 	C 	0.1484	0.8783	0.3781	0.117
Mof_C 	C 	0.2802	0.9468	0.3845	-0.284
Mof_C 	C 	0.398	0.8684	0.3632	0.137
Mof_C 	C 	0.4022	0.7583	0.412	-0.293
Mof_C 	C 	0.2535	0.6463	0.3295	-0.296
Mof_C 	C 	0.2453	0.7553	0.2816	0.136
Mof_C 	C 	0.1301	0.8367	0.3021	-0.295
Mof_C 	C 	0.3763	0.8264	0.2878	-0.294
Mof_C 	C 	0.0324	0.9564	0.4033	0.296
Mof_C 	C 	0.5313	0.9299	0.3726	0.219
Mof_C 	C 	0.2321	0.7124	0.2057	0.257
Mof_O 	O 	0.8353	0.0156	0.56967	-0.444
Mof_O 	O 	0.7568	0.9039	0.48158	-0.402
Mof_O 	O 	0.4305	0.5379	0.63247	-0.417
Mof_O 	O 	0.5498	0.4948	0.53791	-0.465
Mof_O 	O 	0.042	0.4758	0.5912	-0.379
Mof_O 	O 	0.1347	0.6171	0.65279	-0.341
Mof_O 	O 	0.6872	0.7124	0.83919	-0.333
Mof_O 	O 	0.7669	0.8894	0.80863	-0.391
Mof_O 	O 	0.8066	0.1688	0.45279	-0.972
Mof_O 	O 	0.6647	0.9844	0.06967	-0.437
Mof_O 	O 	0.7432	0.0961	0.98158	-0.4
Mof_O 	O 	0.0695	0.4621	0.13247	-0.414
Mof_O 	O 	0.9502	0.5052	0.03791	-0.465
Mof_O 	O 	0.458	0.5242	0.0912	-0.379
Mof_O 	O 	0.3653	0.3829	0.15279	-0.34
Mof_O 	O 	0.8128	0.2876	0.33919	-0.334
Mof_O 	O 	0.7331	0.1106	0.30863	-0.392
Mof_O 	O 	0.6934	0.8312	0.95279	-0.972
Mof_O 	O 	0.1647	0.5156	0.93033	-0.441
Mof_O 	O 	0.2432	0.4039	0.01842	-0.401
Mof_O 	O 	0.5695	0.0379	0.86753	-0.418
Mof_O 	O 	0.4502	0.9948	0.96209	-0.468
Mof_O 	O 	0.958	0.9758	0.9088	-0.374
Mof_O 	O 	0.8653	0.1171	0.84721	-0.339
Mof_O 	O 	0.3128	0.2124	0.66081	-0.333
Mof_O 	O 	0.2331	0.3894	0.69137	-0.391
Mof_O 	O 	0.1934	0.6688	0.04721	-0.971
Mof_O 	O 	0.3353	0.4844	0.43033	-0.44
Mof_O 	O 	0.2568	0.5961	0.51842	-0.402
Mof_O 	O 	0.9305	0.9621	0.36753	-0.41
Mof_O 	O 	0.0498	0.0052	0.46209	-0.458
Mof_O 	O 	0.542	0.0242	0.4088	-0.38
Mof_O 	O 	0.6347	0.8829	0.34721	-0.339
Mof_O 	O 	0.1872	0.7876	0.16081	-0.333
Mof_O 	O 	0.2669	0.6106	0.19137	-0.391
Mof_O 	O 	0.3066	0.3312	0.54721	-0.971
_end
