data_functionalizedCrystal
_audit_creation_method	'EQeq! by Chris Wilmer'
_symmetry_space_group_name_H-M	'P1'
_symmetry_Int_Tables_number	1
_symmetry_cell_setting	triclinic
loop_
_symmetry_equiv_pos_as_xyz
  x,y,z
_cell_length_a	11.528
_cell_length_b	11.528
_cell_length_c	15.168
_cell_angle_alpha	90
_cell_angle_beta	90
_cell_angle_gamma	120
loop_
_atom_site_label
_atom_site_type_symbol
_atom_site_fract_x
_atom_site_fract_y
_atom_site_fract_z
_atom_site_charge
Mof_C 	C 	0.0895	0.1666	0.1798	0.065
Mof_H 	H 	0.1849	0.1986	0.1816	0.015
Mof_H 	H 	0.0631	0.1582	0.1184	-0.012
Mof_C 	C 	0.0631	0.2699	0.2237	-0.583
Mof_H 	H 	0.9672	0.235	0.2271	0.258
Mof_H 	H 	0.0982	0.2861	0.2833	0.197
Mof_C 	C 	0.1276	0.4009	0.173	0.482
Mof_O 	O 	0.2457	0.4892	0.1952	-0.481
Mof_O 	O 	0.0664	0.4158	0.1121	-0.389
Mof_C 	C 	0.4931	0.7164	0.9292	-0.133
Mof_H 	H 	0.5224	0.6543	0.9471	0.096
Mof_H 	H 	0.4811	0.7093	0.8657	0.082
Mof_C 	C 	0.6022	0.8574	0.9517	-0.194
Mof_H 	H 	0.5812	0.9212	0.9249	0.117
Mof_H 	H 	0.6054	0.8699	0.0151	0.072
Mof_C 	C 	0.7375	0.8842	0.9194	0.339
Mof_O 	O 	0.8396	0.9906	0.9482	-0.342
Mof_O 	O 	0.7464	0.8085	0.8655	-0.302
Mof_C 	C 	0.8334	0.9229	0.1798	0.104
Mof_H 	H 	0.8014	0.9863	0.1816	0.043
Mof_H 	H 	0.8418	0.9049	0.1184	0.035
Mof_C 	C 	0.7301	0.7932	0.2237	-0.438
Mof_H 	H 	0.765	0.7322	0.2271	0.185
Mof_H 	H 	0.7139	0.8121	0.2833	0.189
Mof_C 	C 	0.5991	0.7267	0.173	0.447
Mof_O 	O 	0.5108	0.7565	0.1952	-0.459
Mof_O 	O 	0.5842	0.6506	0.1121	-0.347
Mof_C 	C 	0.2836	0.7767	0.9292	-0.151
Mof_H 	H 	0.3457	0.8681	0.9471	0.109
Mof_H 	H 	0.2907	0.7718	0.8657	0.089
Mof_C 	C 	0.1426	0.7448	0.9517	-0.172
Mof_H 	H 	0.0788	0.66	0.9249	0.082
Mof_H 	H 	0.1301	0.7355	0.0151	0.052
Mof_C 	C 	0.1158	0.8533	0.9194	0.332
Mof_O 	O 	0.0094	0.849	0.9482	-0.418
Mof_O 	O 	0.1915	0.9379	0.8655	-0.292
Mof_C 	C 	0.0771	0.9105	0.1798	-0.013
Mof_H 	H 	0.0137	0.8151	0.1816	0.025
Mof_H 	H 	0.0951	0.9369	0.1184	0.053
Mof_C 	C 	0.2068	0.9369	0.2237	-0.222
Mof_H 	H 	0.2678	0.0328	0.2271	0.061
Mof_H 	H 	0.1879	0.9018	0.2833	0.123
Mof_C 	C 	0.2733	0.8724	0.173	0.386
Mof_O 	O 	0.2435	0.7543	0.1952	-0.455
Mof_O 	O 	0.3494	0.9336	0.1121	-0.308
Mof_C 	C 	0.2233	0.5069	0.9292	-0.117
Mof_H 	H 	0.1319	0.4776	0.9471	0.08
Mof_H 	H 	0.2282	0.5189	0.8657	0.071
Mof_C 	C 	0.2552	0.3978	0.9517	-0.218
Mof_H 	H 	0.34	0.4188	0.9249	0.108
Mof_H 	H 	0.2645	0.3946	0.0151	0.07
Mof_C 	C 	0.1467	0.2625	0.9194	0.358
Mof_O 	O 	0.151	0.1604	0.9482	-0.45
Mof_O 	O 	0.0621	0.2536	0.8655	-0.372
Mof_C 	C 	0.9105	0.8334	0.6798	0.033
Mof_H 	H 	0.8151	0.8014	0.6816	0.044
Mof_H 	H 	0.9369	0.8418	0.6184	0.072
Mof_C 	C 	0.9369	0.7301	0.7237	-0.249
Mof_H 	H 	0.0328	0.765	0.7271	0.084
Mof_H 	H 	0.9018	0.7139	0.7833	0.143
Mof_C 	C 	0.8724	0.5991	0.673	0.393
Mof_O 	O 	0.7543	0.5108	0.6952	-0.444
Mof_O 	O 	0.9336	0.5842	0.6121	-0.293
Mof_C 	C 	0.5069	0.2836	0.4292	-0.076
Mof_H 	H 	0.4776	0.3457	0.4471	0.067
Mof_H 	H 	0.5189	0.2907	0.3657	0.061
Mof_C 	C 	0.3978	0.1426	0.4517	-0.312
Mof_H 	H 	0.4188	0.0788	0.4249	0.117
Mof_H 	H 	0.3946	0.1301	0.5151	0.119
Mof_C 	C 	0.2625	0.1158	0.4194	0.378
Mof_O 	O 	0.1604	0.0094	0.4482	-0.489
Mof_O 	O 	0.2536	0.1915	0.3655	-0.355
Mof_C 	C 	0.1666	0.0771	0.6798	-0.012
Mof_H 	H 	0.1986	0.0137	0.6816	0.017
Mof_H 	H 	0.1582	0.0951	0.6184	0.025
Mof_C 	C 	0.2699	0.2068	0.7237	-0.38
Mof_H 	H 	0.235	0.2678	0.7271	0.147
Mof_H 	H 	0.2861	0.1879	0.7833	0.147
Mof_C 	C 	0.4009	0.2733	0.673	0.424
Mof_O 	O 	0.4892	0.2435	0.6952	-0.466
Mof_O 	O 	0.4158	0.3494	0.6121	-0.335
Mof_C 	C 	0.7164	0.2233	0.4292	-0.057
Mof_H 	H 	0.6543	0.1319	0.4471	0.054
Mof_H 	H 	0.7093	0.2282	0.3657	0.055
Mof_C 	C 	0.8574	0.2552	0.4517	-0.336
Mof_H 	H 	0.9212	0.34	0.4249	0.152
Mof_H 	H 	0.8699	0.2645	0.5151	0.141
Mof_C 	C 	0.8842	0.1467	0.4194	0.385
Mof_O 	O 	0.9906	0.151	0.4482	-0.406
Mof_O 	O 	0.8085	0.0621	0.3655	-0.36
Mof_C 	C 	0.9229	0.0895	0.6798	0.111
Mof_H 	H 	0.9863	0.1849	0.6816	0.038
Mof_H 	H 	0.9049	0.0631	0.6184	0.01
Mof_C 	C 	0.7932	0.0631	0.7237	-0.592
Mof_H 	H 	0.7322	0.9672	0.7271	0.269
Mof_H 	H 	0.8121	0.0982	0.7833	0.216
Mof_C 	C 	0.7267	0.1276	0.673	0.485
Mof_O 	O 	0.7565	0.2457	0.6952	-0.469
Mof_O 	O 	0.6506	0.0664	0.6121	-0.373
Mof_C 	C 	0.7767	0.4931	0.4292	-0.088
Mof_H 	H 	0.8681	0.5224	0.4471	0.082
Mof_H 	H 	0.7718	0.4811	0.3657	0.072
Mof_C 	C 	0.7448	0.6022	0.4517	-0.295
Mof_H 	H 	0.66	0.5812	0.4249	0.127
Mof_H 	H 	0.7355	0.6054	0.5151	0.125
Mof_C 	C 	0.8533	0.7375	0.4194	0.362
Mof_O 	O 	0.849	0.8396	0.4482	-0.383
Mof_O 	O 	0.9379	0.7464	0.3655	-0.287
Mof_Zn	Zn	0.33333	0.66667	0.13592	1.203
Mof_P 	P 	0.33333	0.66667	0.98052	-0.01
Mof_Zn	Zn	0.66667	0.33333	0.63592	1.208
Mof_P 	P 	0.66667	0.33333	0.48052	-0.062
Mof_P 	P 	-0	0	0.23164	-0.22
Mof_Zn	Zn	1.08454e-32	7.23025e-33	0.3889	1.172
Mof_P 	P 	7.23025e-33	1.44605e-32	0.73164	-0.218
Mof_Zn	Zn	-0	0	0.8889	1.172
_end
