data_functionalizedCrystal
_audit_creation_method	'EQeq! by Chris Wilmer'
_symmetry_space_group_name_H-M	'P1'
_symmetry_Int_Tables_number	1
_symmetry_cell_setting	triclinic
loop_
_symmetry_equiv_pos_as_xyz
  x,y,z
_cell_length_a	13.0642
_cell_length_b	13.5884
_cell_length_c	19.2967
_cell_angle_alpha	90
_cell_angle_beta	90
_cell_angle_gamma	90
loop_
_atom_site_label
_atom_site_type_symbol
_atom_site_fract_x
_atom_site_fract_y
_atom_site_fract_z
_atom_site_charge
Mof_Cd	Cd	0.7062	0.37537	0.22219	0.428
Mof_Cd	Cd	0.2938	0.87537	0.77781	0.419
Mof_Cd	Cd	0.2062	0.37537	0.27781	0.427
Mof_Cd	Cd	0.7938	0.87537	0.72219	0.418
Mof_H 	H 	0.0775	0.7604	0.7886	-0.001
Mof_H 	H 	0.6729	0.4419	0.4892	0.128
Mof_H 	H 	0.7864	0.1501	0.8684	0.046
Mof_H 	H 	0.6399	0.4009	0.9092	0.049
Mof_H 	H 	0.5051	0.2086	0.5513	0.144
Mof_H 	H 	0.9949	0.7086	0.0513	0.155
Mof_H 	H 	0.4391	0.5425	0.3781	0.136
Mof_H 	H 	0.0405	0.2022	0.1332	0.126
Mof_H 	H 	0.5436	0.4172	0.7897	0.094
Mof_H 	H 	0.6056	0.5154	0.6878	0.083
Mof_H 	H 	0.1845	0.6962	0.3729	0.033
Mof_H 	H 	0.4618	0.6283	0.7771	0.289
Mof_H 	H 	0.0609	0.0425	0.8781	0.104
Mof_H 	H 	0.0439	0.5516	0.9535	0.155
Mof_H 	H 	0.9225	0.2604	0.2114	0.002
Mof_H 	H 	0.9561	0.0516	0.0465	0.128
Mof_H 	H 	0.5775	0.7604	0.7114	-0.002
Mof_H 	H 	0.6524	0.2355	0.9217	0.056
Mof_H 	H 	0.5382	0.1283	0.2229	0.291
Mof_H 	H 	0.9618	0.6283	0.7229	0.289
Mof_H 	H 	0.7013	0.5574	0.8556	0.048
Mof_H 	H 	0.5439	0.5516	0.5465	0.157
Mof_H 	H 	0.1399	0.4009	0.5908	0.049
Mof_H 	H 	0.1427	0.0218	0.4302	0.115
Mof_H 	H 	0.8155	0.1962	0.6271	0.048
Mof_H 	H 	0.5204	0.4879	0.2812	-0.012
Mof_H 	H 	0.0947	0.2587	0.9893	0.142
Mof_H 	H 	0.4796	0.9879	0.7188	0.004
Mof_H 	H 	0.3476	0.7355	0.0783	0.065
Mof_H 	H 	0.4225	0.2604	0.2886	0.001
Mof_H 	H 	0.0412	0.9729	0.0337	0.114
Mof_H 	H 	0.2453	0.3848	0.1098	-0.009
Mof_H 	H 	0.1524	0.2355	0.5783	0.056
Mof_H 	H 	0.2232	0.6017	0.8733	0.04
Mof_H 	H 	0.2768	0.1017	0.3733	-0.012
Mof_H 	H 	0.3624	0.3069	0.5183	0.126
Mof_H 	H 	0.3271	0.9419	0.5108	0.105
Mof_H 	H 	0.0181	0.8191	0.2869	0.081
Mof_H 	H 	0.8944	0.0154	0.1878	0.133
Mof_H 	H 	0.0901	0.7307	0.1903	0.091
Mof_H 	H 	0.8664	0.5936	0.0288	-0.034
Mof_H 	H 	0.6845	0.6962	0.1271	0.035
Mof_H 	H 	0.0703	0.1129	0.7314	0.286
Mof_H 	H 	0.9819	0.3191	0.7131	0.094
Mof_H 	H 	0.9588	0.4729	0.9663	0.152
Mof_H 	H 	0.4595	0.7022	0.6332	0.134
Mof_H 	H 	0.7453	0.3848	0.3902	-0.009
Mof_H 	H 	0.9796	0.9879	0.7812	0.004
Mof_H 	H 	0.7475	0.8626	0.5629	-0.022
Mof_H 	H 	0.4099	0.2307	0.6903	0.083
Mof_H 	H 	0.2547	0.8848	0.6098	0.002
Mof_H 	H 	0.6427	0.0218	0.0698	0.107
Mof_H 	H 	0.5703	0.1129	0.7686	0.286
Mof_H 	H 	0.4561	0.0516	0.4535	0.127
Mof_H 	H 	0.7232	0.6017	0.6267	0.04
Mof_H 	H 	0.0204	0.4879	0.2188	-0.012
Mof_H 	H 	0.3944	0.0154	0.3122	0.139
Mof_H 	H 	0.3601	0.9009	0.0908	0.037
Mof_H 	H 	0.7987	0.0574	0.3556	0.038
Mof_H 	H 	0.6278	0.8519	0.0782	0.019
Mof_H 	H 	0.7768	0.1017	0.1267	-0.006
Mof_H 	H 	0.1376	0.8069	0.0183	0.132
Mof_H 	H 	0.5609	0.0425	0.6219	0.104
Mof_H 	H 	0.8722	0.3519	0.5782	0.049
Mof_H 	H 	0.2525	0.3626	0.4371	-0.018
Mof_H 	H 	0.6376	0.8069	0.4817	0.131
Mof_H 	H 	0.9297	0.6129	0.2686	0.287
Mof_H 	H 	0.9391	0.5425	0.1219	0.137
Mof_H 	H 	0.8624	0.3069	0.9817	0.125
Mof_H 	H 	0.6245	0.1135	0.449	-0.013
Mof_H 	H 	0.8755	0.6135	0.949	-0.036
Mof_H 	H 	0.2864	0.1501	0.6316	0.045
Mof_H 	H 	0.5901	0.7307	0.3097	0.092
Mof_H 	H 	0.5412	0.9729	0.4663	0.112
Mof_H 	H 	0.9099	0.2307	0.8097	0.083
Mof_H 	H 	0.5405	0.2022	0.3668	0.128
Mof_H 	H 	0.0382	0.1283	0.2771	0.291
Mof_H 	H 	0.3664	0.5936	0.4712	-0.038
Mof_H 	H 	0.4819	0.3191	0.7869	0.094
Mof_H 	H 	0.1056	0.5154	0.8122	0.083
Mof_H 	H 	0.4564	0.9172	0.2103	0.079
Mof_H 	H 	0.6336	0.0936	0.5288	-0.011
Mof_H 	H 	0.4949	0.7086	0.4487	0.157
Mof_H 	H 	0.2013	0.5574	0.6444	0.048
Mof_H 	H 	0.2136	0.6501	0.1316	0.034
Mof_H 	H 	0.4588	0.4729	0.5337	0.154
Mof_H 	H 	0.0051	0.2086	0.9487	0.142
Mof_H 	H 	0.3155	0.1962	0.8729	0.048
Mof_H 	H 	0.1729	0.4419	0.0108	0.128
Mof_H 	H 	0.2475	0.8626	0.9371	-0.023
Mof_H 	H 	0.7136	0.6501	0.3684	0.034
Mof_H 	H 	0.9564	0.9172	0.2897	0.079
Mof_H 	H 	0.2987	0.0574	0.1444	0.038
Mof_H 	H 	0.0436	0.4172	0.7103	0.094
Mof_H 	H 	0.3573	0.5218	0.9302	0.055
Mof_H 	H 	0.4053	0.7587	0.4893	0.158
Mof_H 	H 	0.1245	0.1135	0.051	-0.012
Mof_H 	H 	0.3722	0.3519	0.9218	0.05
Mof_H 	H 	0.5947	0.2587	0.5107	0.143
Mof_H 	H 	0.7525	0.3626	0.0629	-0.017
Mof_H 	H 	0.8271	0.9419	0.9892	0.105
Mof_H 	H 	0.9595	0.7022	0.8668	0.133
Mof_H 	H 	0.7547	0.8848	0.8902	0.002
Mof_H 	H 	0.9053	0.7587	0.0107	0.156
Mof_H 	H 	0.1336	0.0936	0.9712	-0.008
Mof_H 	H 	0.8573	0.5218	0.5698	0.055
Mof_H 	H 	0.8601	0.9009	0.4092	0.037
Mof_H 	H 	0.8476	0.7355	0.4217	0.065
Mof_H 	H 	0.1278	0.8519	0.4218	0.014
Mof_H 	H 	0.4297	0.6129	0.2314	0.287
Mof_H 	H 	0.3755	0.6135	0.551	-0.039
Mof_H 	H 	0.5181	0.8191	0.2131	0.083
Mof_C 	C 	0.6939	0.3674	0.8884	-0.044
Mof_C 	C 	0.8343	0.8772	0.1746	0.107
Mof_C 	C 	0.6988	0.1755	0.6927	-0.16
Mof_C 	C 	0.4032	0.8234	0.2832	-0.098
Mof_C 	C 	0.7375	0.7283	0.1501	0.044
Mof_C 	C 	0.4489	0.977	0.676	0.097
Mof_C 	C 	0.5349	0.7469	0.5466	0.264
Mof_C 	C 	0.8102	0.4858	0.5956	-0.052
Mof_C 	C 	0.018	0.7343	0.8824	-0.267
Mof_C 	C 	0.1898	0.9858	0.4044	-0.197
Mof_C 	C 	0.7673	0.4208	0.8493	-0.016
Mof_C 	C 	0.9089	0.522	0.7657	0.221
Mof_C 	C 	0.3171	0.9175	0.6125	0.124
Mof_C 	C 	0.2171	0.7182	0.1357	0.019
Mof_C 	C 	0.1889	0.8295	0.9226	0.161
Mof_C 	C 	0.3102	0.4858	0.9044	-0.052
Mof_C 	C 	0.498	0.011	0.6179	-0.177
Mof_C 	C 	0.982	0.2343	0.1176	-0.25
Mof_C 	C 	0.0462	0.4983	0.0537	0.257
Mof_C 	C 	0.3231	0.5728	0.7058	-0.16
Mof_C 	C 	0.1939	0.3674	0.6116	-0.044
Mof_C 	C 	0.7557	0.5234	0.8358	0.009
Mof_C 	C 	0.7491	0.3309	0.6406	-0.015
Mof_C 	C 	0.8171	0.9175	0.8875	0.124
Mof_C 	C 	0.2491	0.3309	0.8594	-0.015
Mof_C 	C 	0.0749	0.923	0.2215	-0.099
Mof_C 	C 	0.0511	0.477	0.176	0.161
Mof_C 	C 	0.1593	0.4819	0.8333	-0.096
Mof_C 	C 	0.2327	0.9208	0.1507	-0.053
Mof_C 	C 	0.799	0.7695	0.3959	-0.076
Mof_C 	C 	0.6769	0.0728	0.2942	-0.18
Mof_C 	C 	0.914	0.6101	0.9919	0.213
Mof_C 	C 	0.8407	0.9819	0.1667	-0.216
Mof_C 	C 	0.1965	0.1796	0.2242	0.326
Mof_C 	C 	0.3836	0.723	0.2743	0.237
Mof_C 	C 	0.482	0.2343	0.3824	-0.254
Mof_C 	C 	0.3111	0.3295	0.4226	0.156
Mof_C 	C 	0.6483	0.8705	0.3191	0.07
Mof_C 	C 	0.8061	0.8674	0.3884	-0.015
Mof_C 	C 	0.8769	0.2963	0.0283	-0.274
Mof_C 	C 	0.1769	0.0728	0.2058	-0.18
Mof_C 	C 	0.3558	0.266	0.6714	-0.098
Mof_C 	C 	0.6231	0.7963	0.5283	-0.292
Mof_C 	C 	0.8231	0.5728	0.7942	-0.16
Mof_C 	C 	0.2509	0.8309	0.3594	-0.083
Mof_C 	C 	0.8836	0.723	0.2257	0.235
Mof_C 	C 	0.1829	0.4175	0.1125	0.161
Mof_C 	C 	0.0081	0.0303	0.0139	-0.304
Mof_C 	C 	0.8111	0.3295	0.0774	0.155
Mof_C 	C 	0.5462	0.4983	0.4463	0.259
Mof_C 	C 	0.998	0.011	0.8821	-0.177
Mof_C 	C 	0.3193	0.3843	0.899	-0.047
Mof_C 	C 	0.0968	0.3234	0.7832	-0.057
Mof_C 	C 	0.2709	0.0336	0.3703	0.148
Mof_C 	C 	0.5511	0.477	0.324	0.16
Mof_C 	C 	0.6807	0.8843	0.101	0.039
Mof_C 	C 	0.002	0.511	0.1179	-0.276
Mof_C 	C 	0.4538	0.9983	0.5537	0.166
Mof_C 	C 	0.086	0.1101	0.0081	0.14
Mof_C 	C 	0.6965	0.1796	0.2758	0.326
Mof_C 	C 	0.5968	0.3234	0.7168	-0.057
Mof_C 	C 	0.0349	0.7469	0.9534	0.26
Mof_C 	C 	0.3343	0.8772	0.3254	0.115
Mof_C 	C 	0.6442	0.766	0.3286	-0.123
Mof_C 	C 	0.4089	0.522	0.7343	0.221
Mof_C 	C 	0.3769	0.2963	0.4717	-0.277
Mof_C 	C 	0.586	0.1101	0.4919	0.146
Mof_C 	C 	0.0122	0.3702	0.7416	-0.112
Mof_C 	C 	0.4105	0.27	0.3356	0.143
Mof_C 	C 	0.8035	0.6796	0.7758	0.319
Mof_C 	C 	0.6889	0.8295	0.5774	0.161
Mof_C 	C 	0.8517	0.3705	0.8191	0.043
Mof_C 	C 	0.5122	0.3702	0.7584	-0.111
Mof_C 	C 	0.4919	0.5303	0.5139	-0.417
Mof_C 	C 	0.1442	0.766	0.1714	-0.123
Mof_C 	C 	0.1164	0.223	0.7743	0.214
Mof_C 	C 	0.8012	0.6755	0.1927	-0.182
Mof_C 	C 	0.2557	0.5234	0.6642	0.009
Mof_C 	C 	0.6829	0.4175	0.3875	0.162
Mof_C 	C 	0.518	0.7343	0.6176	-0.268
Mof_C 	C 	0.6593	0.4819	0.6667	-0.097
Mof_C 	C 	0.2673	0.4208	0.6507	-0.017
Mof_C 	C 	0.6898	0.9858	0.0956	-0.177
Mof_C 	C 	0.3061	0.8674	0.1116	-0.015
Mof_C 	C 	0.4878	0.8702	0.2416	-0.074
Mof_C 	C 	0.7709	0.0336	0.1297	0.129
Mof_C 	C 	0.9251	0.423	0.7785	-0.061
Mof_C 	C 	0.1231	0.7963	0.9717	-0.292
Mof_C 	C 	0.2291	0.5336	0.8703	-0.007
Mof_C 	C 	0.2779	0.5681	0.2937	0.331
Mof_C 	C 	0.4651	0.2469	0.4534	0.244
Mof_C 	C 	0.9105	0.27	0.1644	0.141
Mof_C 	C 	0.6657	0.3772	0.6746	0.042
Mof_C 	C 	0.2221	0.0681	0.7937	0.323
Mof_C 	C 	0.1657	0.3772	0.8254	0.042
Mof_C 	C 	0.1988	0.1755	0.8073	-0.159
Mof_C 	C 	0.414	0.6101	0.5081	0.224
Mof_C 	C 	0.7443	0.0234	0.3358	0.046
Mof_C 	C 	0.9651	0.2469	0.0466	0.241
Mof_C 	C 	0.4604	0.7112	0.4932	-0.426
Mof_C 	C 	0.7171	0.7182	0.3643	0.019
Mof_C 	C 	0.7625	0.2283	0.6501	0.007
Mof_C 	C 	0.6392	0.4511	0.4472	-0.285
Mof_C 	C 	0.201	0.2695	0.6041	-0.05
Mof_C 	C 	0.7221	0.0681	0.7063	0.323
Mof_C 	C 	0.5895	0.77	0.6644	0.148
Mof_C 	C 	0.8193	0.3843	0.601	-0.046
Mof_C 	C 	0.3407	0.9819	0.3333	-0.233
Mof_C 	C 	0.2443	0.0234	0.1642	0.046
Mof_C 	C 	0.8608	0.9511	0.9472	-0.226
Mof_C 	C 	0.9919	0.5303	0.9861	-0.412
Mof_C 	C 	0.1807	0.8843	0.399	0.052
Mof_C 	C 	0.5081	0.0303	0.4861	-0.302
Mof_C 	C 	0.2375	0.7283	0.3499	0.048
Mof_C 	C 	0.3608	0.9511	0.5528	-0.226
Mof_C 	C 	0.9878	0.8702	0.2584	-0.071
Mof_C 	C 	0.7829	0.2182	0.8643	-0.006
Mof_C 	C 	0.3012	0.6755	0.3073	-0.185
Mof_C 	C 	0.2625	0.2283	0.8499	0.006
Mof_C 	C 	0.9032	0.8234	0.2168	-0.095
Mof_C 	C 	0.701	0.2695	0.8959	-0.05
Mof_C 	C 	0.3035	0.6796	0.7242	0.319
Mof_C 	C 	0.5911	0.022	0.2657	0.249
Mof_C 	C 	0.5749	0.923	0.2785	-0.097
Mof_C 	C 	0.3517	0.3705	0.6809	0.043
Mof_C 	C 	0.1483	0.8705	0.1809	0.071
Mof_C 	C 	0.1392	0.4511	0.0528	-0.284
Mof_C 	C 	0.0396	0.2112	0.9932	-0.372
Mof_C 	C 	0.7509	0.8309	0.1406	-0.074
Mof_C 	C 	0.0895	0.77	0.8356	0.147
Mof_C 	C 	0.9604	0.7112	0.0068	-0.416
Mof_C 	C 	0.4251	0.423	0.7215	-0.061
Mof_C 	C 	0.9538	0.9983	0.9463	0.166
Mof_C 	C 	0.9489	0.977	0.824	0.097
Mof_C 	C 	0.6164	0.223	0.7257	0.215
Mof_C 	C 	0.5396	0.2112	0.5068	-0.378
Mof_C 	C 	0.7327	0.9208	0.3493	-0.053
Mof_C 	C 	0.0911	0.022	0.2343	0.25
Mof_C 	C 	0.2829	0.2182	0.6357	-0.006
Mof_C 	C 	0.8558	0.266	0.8286	-0.097
Mof_C 	C 	0.7291	0.5336	0.6297	-0.007
Mof_C 	C 	0.299	0.7695	0.1041	-0.076
Mof_C 	C 	0.7779	0.5681	0.2063	0.33
Mof_C 	C 	0.502	0.511	0.3821	-0.275
Mof_N 	N 	0.3604	0.9296	0.6747	-0.164
Mof_N 	N 	0.6742	0.8173	0.6457	-0.181
Mof_N 	N 	0.1396	0.4296	0.1747	-0.18
Mof_N 	N 	0.8604	0.9296	0.8253	-0.163
Mof_N 	N 	0.8258	0.3173	0.1457	-0.176
Mof_N 	N 	0.1742	0.8173	0.8543	-0.181
Mof_N 	N 	0.3258	0.3173	0.3543	-0.177
Mof_N 	N 	0.6396	0.4296	0.3253	-0.18
Mof_O 	O 	0.0542	0.1712	0.7306	-0.432
Mof_O 	O 	0.7073	0.5287	0.1726	-0.289
Mof_O 	O 	0.1691	0.0218	0.7496	-0.284
Mof_O 	O 	0.135	0.22	0.2667	-0.31
Mof_O 	O 	0.4458	0.6712	0.2306	-0.439
Mof_O 	O 	0.8309	0.5218	0.2504	-0.293
Mof_O 	O 	0.2294	0.725	0.6985	-0.266
Mof_O 	O 	0.6691	0.0218	0.7504	-0.285
Mof_O 	O 	0.2927	0.0287	0.8274	-0.28
Mof_O 	O 	0.9458	0.6712	0.2694	-0.438
Mof_O 	O 	0.0234	0.0697	0.2754	-0.444
Mof_O 	O 	0.635	0.22	0.2333	-0.31
Mof_O 	O 	0.4766	0.5697	0.7754	-0.438
Mof_O 	O 	0.3309	0.5218	0.2496	-0.294
Mof_O 	O 	0.7706	0.225	0.3015	-0.267
Mof_O 	O 	0.5542	0.1712	0.7694	-0.432
Mof_O 	O 	0.865	0.72	0.7333	-0.308
Mof_O 	O 	0.2073	0.5287	0.3274	-0.29
Mof_O 	O 	0.365	0.72	0.7667	-0.308
Mof_O 	O 	0.5234	0.0697	0.2246	-0.443
Mof_O 	O 	0.9766	0.5697	0.7246	-0.438
Mof_O 	O 	0.7294	0.725	0.8015	-0.266
Mof_O 	O 	0.7927	0.0287	0.6726	-0.281
Mof_O 	O 	0.2706	0.225	0.1985	-0.267
_end
