data_functionalizedCrystal
_audit_creation_method	'EQeq! by Chris Wilmer'
_symmetry_space_group_name_H-M	'P1'
_symmetry_Int_Tables_number	1
_symmetry_cell_setting	triclinic
loop_
_symmetry_equiv_pos_as_xyz
  x,y,z
_cell_length_a	7.358
_cell_length_b	9.997
_cell_length_c	15.0578
_cell_angle_alpha	109.387
_cell_angle_beta	98.498
_cell_angle_gamma	90
loop_
_atom_site_label
_atom_site_type_symbol
_atom_site_fract_x
_atom_site_fract_y
_atom_site_fract_z
_atom_site_charge
Mof_Cd	Cd	-2.0798e-17	0.5	0.5	0.334
Mof_Cd	Cd	0.5	0	0.5	0.342
Mof_H 	H 	0.8238	0.4744	0.6764	0.008
Mof_H 	H 	0.7597	0.5949	0.8254	0.089
Mof_H 	H 	0.8762	0.9582	0.784	0.105
Mof_H 	H 	0.9438	0.8269	0.637	0.023
Mof_H 	H 	0.6762	0.798	0.3236	0.007
Mof_H 	H 	0.7403	0.7695	0.1746	0.096
Mof_H 	H 	0.6238	0.1742	0.216	0.104
Mof_H 	H 	0.5562	0.1899	0.363	0.015
Mof_H 	H 	0.1762	0.5256	0.3236	0.005
Mof_H 	H 	0.2403	0.4051	0.1746	0.089
Mof_H 	H 	0.1238	0.0418	0.216	0.087
Mof_H 	H 	0.0562	0.1731	0.363	0.005
Mof_H 	H 	0.3238	0.202	0.6764	0.005
Mof_H 	H 	0.2597	0.2305	0.8254	0.082
Mof_H 	H 	0.3762	0.8258	0.784	0.088
Mof_H 	H 	0.4438	0.8101	0.637	0.013
Mof_C 	C 	0.839	0.57299	0.69918	0.091
Mof_C 	C 	0.7986	0.64464	0.78868	-0.15
Mof_C 	C 	0.8167	0.79181	0.82342	0.092
Mof_C 	C 	0.8682	0.85958	0.76456	-0.142
Mof_C 	C 	0.9084	0.77942	0.67584	0.088
Mof_C 	C 	0.7799	0.87035	0.9205	0.044
Mof_C 	C 	0.6065	0.65007	0.44314	0.086
Mof_C 	C 	0.661	0.87381	0.30082	0.098
Mof_C 	C 	0.7014	0.85596	0.21132	-0.159
Mof_C 	C 	0.6833	0.96839	0.17658	0.115
Mof_C 	C 	0.6318	0.09502	0.23544	-0.167
Mof_C 	C 	0.5916	0.10358	0.32416	0.08
Mof_C 	C 	0.7201	0.94985	0.0795	0.043
Mof_C 	C 	0.8935	0.20693	0.55686	0.09
Mof_C 	C 	0.161	0.42701	0.30082	0.086
Mof_C 	C 	0.2014	0.35536	0.21132	-0.155
Mof_C 	C 	0.1833	0.20819	0.17658	0.091
Mof_C 	C 	0.1318	0.14042	0.23544	-0.152
Mof_C 	C 	0.0916	0.22058	0.32416	0.083
Mof_C 	C 	0.2201	0.12965	0.0795	0.016
Mof_C 	C 	0.3935	0.34993	0.55686	0.084
Mof_C 	C 	0.339	0.12619	0.69918	0.078
Mof_C 	C 	0.2986	0.14404	0.78868	-0.146
Mof_C 	C 	0.3167	0.03161	0.82342	0.068
Mof_C 	C 	0.3682	0.90498	0.76456	-0.126
Mof_C 	C 	0.4084	0.89642	0.67584	0.091
Mof_C 	C 	0.2799	0.05015	0.9205	0.017
Mof_C 	C 	0.1065	0.79307	0.44314	0.08
Mof_S 	S 	0.65913	0.48379	0.39684	-0.057
Mof_S 	S 	0.84087	0.08695	0.60316	-0.068
Mof_S 	S 	0.34087	0.51621	0.60316	-0.075
Mof_S 	S 	0.15913	0.91305	0.39684	-0.065
Mof_S 	S 	0.75	0.78587	-0	-0.004
Mof_S 	S 	0.25	0.21413	-0	-0.012
Mof_N 	N 	0.8987	0.63745	0.6433	-0.151
Mof_N 	N 	0.7671	0.00685	0.9537	-0.085
Mof_N 	N 	0.5704	0.76649	0.47518	-0.15
Mof_N 	N 	0.6013	0.99415	0.3567	-0.147
Mof_N 	N 	0.7329	0.05315	0.0463	-0.08
Mof_N 	N 	0.9296	0.29131	0.52482	-0.146
Mof_N 	N 	0.1013	0.36255	0.3567	-0.16
Mof_N 	N 	0.2329	0.99315	0.0463	-0.067
Mof_N 	N 	0.4296	0.23351	0.52482	-0.157
Mof_N 	N 	0.3987	0.00585	0.6433	-0.165
Mof_N 	N 	0.2671	0.94685	0.9537	-0.073
Mof_N 	N 	0.0704	0.70869	0.47518	-0.159
_end
