data_functionalizedCrystal
_audit_creation_method	'EQeq! by Chris Wilmer'
_symmetry_space_group_name_H-M	'P1'
_symmetry_Int_Tables_number	1
_symmetry_cell_setting	triclinic
loop_
_symmetry_equiv_pos_as_xyz
  x,y,z
_cell_length_a	19.707
_cell_length_b	18.1754
_cell_length_c	12.6085
_cell_angle_alpha	90
_cell_angle_beta	90
_cell_angle_gamma	90
loop_
_atom_site_label
_atom_site_type_symbol
_atom_site_fract_x
_atom_site_fract_y
_atom_site_fract_z
_atom_site_charge
Mof_Cd	Cd	0.15888	0.16339	0.21163	0.454
Mof_O 	O 	0.1336	0.1466	0.9315	-0.287
Mof_O 	O 	0.1058	0.2143	0.0718	-0.264
Mof_C 	C 	0.0977	0.1929	0.9786	0.263
Mof_C 	C 	0.0395	0.2246	0.9156	-0.001
Mof_C 	C 	0.0147	0.1923	0.8264	-0.083
Mof_H 	H 	0.0332	0.1472	0.802	0.067
Mof_C 	C 	0.9628	0.2255	0.7721	0.053
Mof_H 	H 	0.9455	0.2018	0.7105	0.034
Mof_N 	N 	0.9348	0.2908	0.8022	-0.134
Mof_C 	C 	0.9603	0.324	0.8895	0.064
Mof_H 	H 	0.9424	0.3702	0.9108	0.013
Mof_C 	C 	0.0119	0.292	0.9488	-0.12
Mof_H 	H 	0.0283	0.3155	0.0111	0.096
Mof_C 	C 	0.1935	0.1432	0.7023	0.047
Mof_H 	H 	0.1519	0.1477	0.7398	0.029
Mof_C 	C 	0.191	0.1307	0.5929	-0.06
Mof_H 	H 	0.1484	0.1234	0.559	0.063
Mof_O 	O 	0.1936	0.1162	0.3715	-0.291
Mof_C 	C 	0.3056	0.9856	0.8836	0.049
Mof_H 	H 	0.3473	0.0096	0.8985	0.025
Mof_C 	C 	0.3084	0.9155	0.8412	-0.065
Mof_H 	H 	0.3507	0.8921	0.8288	0.066
Mof_O 	O 	0.3044	0.7784	0.749	-0.301
Mof_Cd	Cd	0.15888	0.66339	0.71163	0.45
Mof_O 	O 	0.1336	0.6466	0.4315	-0.292
Mof_O 	O 	0.1058	0.7143	0.5718	-0.286
Mof_C 	C 	0.0977	0.6929	0.4786	0.299
Mof_C 	C 	0.0395	0.7246	0.4156	-0.028
Mof_C 	C 	0.0147	0.6923	0.3264	-0.064
Mof_H 	H 	0.0332	0.6472	0.302	0.062
Mof_C 	C 	0.9628	0.7255	0.2721	0.044
Mof_H 	H 	0.9455	0.7018	0.2105	0.038
Mof_N 	N 	0.9348	0.7908	0.3022	-0.127
Mof_C 	C 	0.9603	0.824	0.3895	0.041
Mof_H 	H 	0.9424	0.8702	0.4108	0.027
Mof_C 	C 	0.0119	0.792	0.4488	-0.063
Mof_H 	H 	0.0283	0.8155	0.5111	0.064
Mof_C 	C 	0.1935	0.6432	0.2023	0.057
Mof_H 	H 	0.1519	0.6477	0.2398	0.027
Mof_C 	C 	0.191	0.6307	0.0929	-0.075
Mof_H 	H 	0.1484	0.6234	0.059	0.075
Mof_O 	O 	0.1936	0.6162	0.8715	-0.291
Mof_C 	C 	0.3056	0.4856	0.3836	0.052
Mof_H 	H 	0.3473	0.5096	0.3985	0.027
Mof_C 	C 	0.3084	0.4155	0.3412	-0.064
Mof_H 	H 	0.3507	0.3921	0.3288	0.068
Mof_O 	O 	0.3044	0.2784	0.249	-0.3
Mof_Cd	Cd	0.84112	0.83661	0.21163	0.455
Mof_O 	O 	0.8664	0.8534	0.9315	-0.286
Mof_O 	O 	0.8942	0.7857	0.0718	-0.263
Mof_C 	C 	0.9023	0.8071	0.9786	0.264
Mof_C 	C 	0.9605	0.7754	0.9156	-0.001
Mof_C 	C 	0.9853	0.8077	0.8264	-0.083
Mof_H 	H 	0.9668	0.8528	0.802	0.067
Mof_C 	C 	0.0372	0.7745	0.7721	0.053
Mof_H 	H 	0.0545	0.7982	0.7105	0.034
Mof_N 	N 	0.0652	0.7092	0.8022	-0.134
Mof_C 	C 	0.0397	0.676	0.8895	0.064
Mof_H 	H 	0.0576	0.6298	0.9108	0.013
Mof_C 	C 	0.9881	0.708	0.9488	-0.12
Mof_H 	H 	0.9717	0.6845	0.0111	0.096
Mof_C 	C 	0.8065	0.8568	0.7023	0.047
Mof_H 	H 	0.8481	0.8523	0.7398	0.029
Mof_C 	C 	0.809	0.8693	0.5929	-0.06
Mof_H 	H 	0.8516	0.8766	0.559	0.063
Mof_O 	O 	0.8064	0.8838	0.3715	-0.291
Mof_C 	C 	0.6944	0.0144	0.8836	0.049
Mof_H 	H 	0.6527	0.9904	0.8985	0.025
Mof_C 	C 	0.6916	0.0845	0.8412	-0.065
Mof_H 	H 	0.6493	0.1079	0.8288	0.066
Mof_O 	O 	0.6956	0.2216	0.749	-0.301
Mof_Cd	Cd	0.84112	0.33661	0.71163	0.45
Mof_O 	O 	0.8664	0.3534	0.4315	-0.292
Mof_O 	O 	0.8942	0.2857	0.5718	-0.286
Mof_C 	C 	0.9023	0.3071	0.4786	0.299
Mof_C 	C 	0.9605	0.2754	0.4156	-0.028
Mof_C 	C 	0.9853	0.3077	0.3264	-0.064
Mof_H 	H 	0.9668	0.3528	0.302	0.062
Mof_C 	C 	0.0372	0.2745	0.2721	0.044
Mof_H 	H 	0.0545	0.2982	0.2105	0.038
Mof_N 	N 	0.0652	0.2092	0.3022	-0.127
Mof_C 	C 	0.0397	0.176	0.3895	0.041
Mof_H 	H 	0.0576	0.1298	0.4108	0.027
Mof_C 	C 	0.9881	0.208	0.4488	-0.063
Mof_H 	H 	0.9717	0.1845	0.5111	0.064
Mof_C 	C 	0.8065	0.3568	0.2023	0.057
Mof_H 	H 	0.8481	0.3523	0.2398	0.027
Mof_C 	C 	0.809	0.3693	0.0929	-0.075
Mof_H 	H 	0.8516	0.3766	0.059	0.075
Mof_O 	O 	0.8064	0.3838	0.8715	-0.291
Mof_C 	C 	0.6944	0.5144	0.3836	0.052
Mof_H 	H 	0.6527	0.4904	0.3985	0.027
Mof_C 	C 	0.6916	0.5845	0.3412	-0.064
Mof_H 	H 	0.6493	0.6079	0.3288	0.068
Mof_O 	O 	0.6956	0.7216	0.249	-0.3
Mof_Cd	Cd	0.65888	0.83661	0.21163	0.455
Mof_O 	O 	0.6336	0.8534	0.9315	-0.286
Mof_O 	O 	0.6058	0.7857	0.0718	-0.263
Mof_C 	C 	0.5977	0.8071	0.9786	0.263
Mof_C 	C 	0.5395	0.7754	0.9156	-0
Mof_C 	C 	0.5147	0.8077	0.8264	-0.084
Mof_H 	H 	0.5332	0.8528	0.802	0.067
Mof_C 	C 	0.4628	0.7745	0.7721	0.053
Mof_H 	H 	0.4455	0.7982	0.7105	0.034
Mof_N 	N 	0.4348	0.7092	0.8022	-0.134
Mof_C 	C 	0.4603	0.676	0.8895	0.065
Mof_H 	H 	0.4424	0.6298	0.9108	0.012
Mof_C 	C 	0.5119	0.708	0.9488	-0.121
Mof_H 	H 	0.5283	0.6845	0.0111	0.097
Mof_C 	C 	0.6935	0.8568	0.7023	0.047
Mof_H 	H 	0.6519	0.8523	0.7398	0.029
Mof_C 	C 	0.691	0.8693	0.5929	-0.06
Mof_H 	H 	0.6484	0.8766	0.559	0.063
Mof_O 	O 	0.6936	0.8838	0.3715	-0.291
Mof_C 	C 	0.8056	0.0144	0.8836	0.049
Mof_H 	H 	0.8473	0.9904	0.8985	0.025
Mof_C 	C 	0.8084	0.0845	0.8412	-0.065
Mof_H 	H 	0.8507	0.1079	0.8288	0.066
Mof_O 	O 	0.8044	0.2216	0.749	-0.301
Mof_Cd	Cd	0.65888	0.33661	0.71163	0.45
Mof_O 	O 	0.6336	0.3534	0.4315	-0.292
Mof_O 	O 	0.6058	0.2857	0.5718	-0.286
Mof_C 	C 	0.5977	0.3071	0.4786	0.299
Mof_C 	C 	0.5395	0.2754	0.4156	-0.028
Mof_C 	C 	0.5147	0.3077	0.3264	-0.063
Mof_H 	H 	0.5332	0.3528	0.302	0.062
Mof_C 	C 	0.4628	0.2745	0.2721	0.044
Mof_H 	H 	0.4455	0.2982	0.2105	0.038
Mof_N 	N 	0.4348	0.2092	0.3022	-0.127
Mof_C 	C 	0.4603	0.176	0.3895	0.041
Mof_H 	H 	0.4424	0.1298	0.4108	0.027
Mof_C 	C 	0.5119	0.208	0.4488	-0.063
Mof_H 	H 	0.5283	0.1845	0.5111	0.064
Mof_C 	C 	0.6935	0.3568	0.2023	0.057
Mof_H 	H 	0.6519	0.3523	0.2398	0.027
Mof_C 	C 	0.691	0.3693	0.0929	-0.075
Mof_H 	H 	0.6484	0.3766	0.059	0.075
Mof_O 	O 	0.6936	0.3838	0.8715	-0.291
Mof_C 	C 	0.8056	0.5144	0.3836	0.052
Mof_H 	H 	0.8473	0.4904	0.3985	0.027
Mof_C 	C 	0.8084	0.5845	0.3412	-0.064
Mof_H 	H 	0.8507	0.6079	0.3288	0.068
Mof_O 	O 	0.8044	0.7216	0.249	-0.3
Mof_Cd	Cd	0.34112	0.16339	0.21163	0.455
Mof_O 	O 	0.3664	0.1466	0.9315	-0.286
Mof_O 	O 	0.3942	0.2143	0.0718	-0.263
Mof_C 	C 	0.4023	0.1929	0.9786	0.263
Mof_C 	C 	0.4605	0.2246	0.9156	-0
Mof_C 	C 	0.4853	0.1923	0.8264	-0.084
Mof_H 	H 	0.4668	0.1472	0.802	0.067
Mof_C 	C 	0.5372	0.2255	0.7721	0.053
Mof_H 	H 	0.5545	0.2018	0.7105	0.034
Mof_N 	N 	0.5652	0.2908	0.8022	-0.134
Mof_C 	C 	0.5397	0.324	0.8895	0.065
Mof_H 	H 	0.5576	0.3702	0.9108	0.012
Mof_C 	C 	0.4881	0.292	0.9488	-0.121
Mof_H 	H 	0.4717	0.3155	0.0111	0.097
Mof_C 	C 	0.3065	0.1432	0.7023	0.047
Mof_H 	H 	0.3481	0.1477	0.7398	0.029
Mof_C 	C 	0.309	0.1307	0.5929	-0.06
Mof_H 	H 	0.3516	0.1234	0.559	0.063
Mof_O 	O 	0.3064	0.1162	0.3715	-0.291
Mof_C 	C 	0.1944	0.9856	0.8836	0.049
Mof_H 	H 	0.1527	0.0096	0.8985	0.025
Mof_C 	C 	0.1916	0.9155	0.8412	-0.065
Mof_H 	H 	0.1493	0.8921	0.8288	0.066
Mof_O 	O 	0.1956	0.7784	0.749	-0.301
Mof_Cd	Cd	0.34112	0.66339	0.71163	0.45
Mof_O 	O 	0.3664	0.6466	0.4315	-0.292
Mof_O 	O 	0.3942	0.7143	0.5718	-0.286
Mof_C 	C 	0.4023	0.6929	0.4786	0.299
Mof_C 	C 	0.4605	0.7246	0.4156	-0.028
Mof_C 	C 	0.4853	0.6923	0.3264	-0.063
Mof_H 	H 	0.4668	0.6472	0.302	0.062
Mof_C 	C 	0.5372	0.7255	0.2721	0.044
Mof_H 	H 	0.5545	0.7018	0.2105	0.038
Mof_N 	N 	0.5652	0.7908	0.3022	-0.127
Mof_C 	C 	0.5397	0.824	0.3895	0.041
Mof_H 	H 	0.5576	0.8702	0.4108	0.027
Mof_C 	C 	0.4881	0.792	0.4488	-0.063
Mof_H 	H 	0.4717	0.8155	0.5111	0.064
Mof_C 	C 	0.3065	0.6432	0.2023	0.057
Mof_H 	H 	0.3481	0.6477	0.2398	0.027
Mof_C 	C 	0.309	0.6307	0.0929	-0.075
Mof_H 	H 	0.3516	0.6234	0.059	0.075
Mof_O 	O 	0.3064	0.6162	0.8715	-0.291
Mof_C 	C 	0.1944	0.4856	0.3836	0.052
Mof_H 	H 	0.1527	0.5096	0.3985	0.027
Mof_C 	C 	0.1916	0.4155	0.3412	-0.064
Mof_H 	H 	0.1493	0.3921	0.3288	0.068
Mof_O 	O 	0.1956	0.2784	0.249	-0.3
Mof_Cd	Cd	0.25	0.145	0.94683	0.407
Mof_N 	N 	0.25	0.149	0.7555	-0.136
Mof_C 	C 	0.25	0.1289	0.5339	-0.031
Mof_C 	C 	0.25	0.1215	0.4152	0.316
Mof_N 	N 	0.25	0.0205	0.9043	-0.145
Mof_C 	C 	0.25	0.8811	0.8179	-0.036
Mof_C 	C 	0.25	0.8059	0.7666	0.355
Mof_O 	O 	0.25	0.1234	0.1225	-0.336
Mof_H 	H 	0.25	0.0687	0.1304	0.14
Mof_Cd	Cd	0.25	0.645	0.44683	0.421
Mof_N 	N 	0.25	0.649	0.2555	-0.14
Mof_C 	C 	0.25	0.6289	0.0339	0.001
Mof_C 	C 	0.25	0.6215	0.9152	0.291
Mof_N 	N 	0.25	0.5205	0.4043	-0.143
Mof_C 	C 	0.25	0.3811	0.3179	-0.035
Mof_C 	C 	0.25	0.3059	0.2666	0.357
Mof_O 	O 	0.25	0.6234	0.6225	-0.343
Mof_H 	H 	0.25	0.5687	0.6304	0.135
Mof_Cd	Cd	0.75	0.855	0.94683	0.407
Mof_N 	N 	0.75	0.851	0.7555	-0.136
Mof_C 	C 	0.75	0.8711	0.5339	-0.031
Mof_C 	C 	0.75	0.8785	0.4152	0.316
Mof_N 	N 	0.75	0.9795	0.9043	-0.145
Mof_C 	C 	0.75	0.1189	0.8179	-0.036
Mof_C 	C 	0.75	0.1941	0.7666	0.355
Mof_O 	O 	0.75	0.8766	0.1225	-0.336
Mof_H 	H 	0.75	0.9313	0.1304	0.14
Mof_Cd	Cd	0.75	0.355	0.44683	0.421
Mof_N 	N 	0.75	0.351	0.2555	-0.14
Mof_C 	C 	0.75	0.3711	0.0339	0.001
Mof_C 	C 	0.75	0.3785	0.9152	0.291
Mof_N 	N 	0.75	0.4795	0.4043	-0.143
Mof_C 	C 	0.75	0.6189	0.3179	-0.035
Mof_C 	C 	0.75	0.6941	0.2666	0.357
Mof_O 	O 	0.75	0.3766	0.6225	-0.343
Mof_H 	H 	0.75	0.4313	0.6304	0.135
_end
