data_functionalizedCrystal
_audit_creation_method	'EQeq! by Chris Wilmer'
_symmetry_space_group_name_H-M	'P1'
_symmetry_Int_Tables_number	1
_symmetry_cell_setting	triclinic
loop_
_symmetry_equiv_pos_as_xyz
  x,y,z
_cell_length_a	20.3179
_cell_length_b	20.3179
_cell_length_c	20.3179
_cell_angle_alpha	109.471
_cell_angle_beta	109.471
_cell_angle_gamma	109.471
loop_
_atom_site_label
_atom_site_type_symbol
_atom_site_fract_x
_atom_site_fract_y
_atom_site_fract_z
_atom_site_charge
Mof_Zn	Zn	0.52079	0.0562	0.94613	1.222
Mof_H 	H 	0.7898	0.2758	0.2454	0.033
Mof_H 	H 	0.7474	0.2583	0.0323	0.044
Mof_H 	H 	0.9351	0.4589	0.2376	0.033
Mof_C 	C 	0.80402	0.29839	0.21583	0.092
Mof_C 	C 	0.75741	0.25489	0.13194	-0.14
Mof_C 	C 	0.77809	0.28754	0.08829	0.079
Mof_C 	C 	0.84471	0.36434	0.12635	-0.132
Mof_C 	C 	0.89078	0.4075	0.21124	0.081
Mof_C 	C 	0.87065	0.37403	0.25602	-0.156
Mof_C 	C 	0.68127	0.17488	0.09151	0.412
Mof_C 	C 	0.92014	0.42114	0.34508	0.424
Mof_C 	C 	0.8646	0.4012	0.0774	0.378
Mof_O 	O 	0.63616	0.14366	0.01804	-0.465
Mof_O 	O 	0.67116	0.14507	0.13509	-0.481
Mof_O 	O 	0.97936	0.48877	0.37721	-0.483
Mof_O 	O 	0.89602	0.38737	0.38107	-0.489
Mof_O 	O 	0.92421	0.47168	0.11759	-0.475
Mof_O 	O 	0.82646	0.36352	0.00504	-0.323
Mof_Zn	Zn	0.11007	0.57466	0.05387	1.23
Mof_H 	H 	0.0304	0.5444	0.7546	0.036
Mof_H 	H 	0.226	0.7151	0.9677	0.028
Mof_H 	H 	0.2213	0.6975	0.7624	0.034
Mof_C 	C 	0.08256	0.58819	0.78417	0.092
Mof_C 	C 	0.12295	0.62547	0.86806	-0.149
Mof_C 	C 	0.19925	0.6898	0.91171	0.083
Mof_C 	C 	0.23799	0.71836	0.87365	-0.141
Mof_C 	C 	0.19626	0.67954	0.78876	0.082
Mof_C 	C 	0.11801	0.61463	0.74398	-0.153
Mof_C 	C 	0.08337	0.58976	0.90849	0.415
Mof_C 	C 	0.07606	0.57506	0.65492	0.422
Mof_C 	C 	0.3238	0.7872	0.9226	0.381
Mof_O 	O 	0.12562	0.61812	0.98196	-0.497
Mof_O 	O 	0.00998	0.53607	0.86491	-0.48
Mof_O 	O 	0.11156	0.60215	0.62279	-0.466
Mof_O 	O 	0.0063	0.51495	0.61893	-0.469
Mof_O 	O 	0.35409	0.80662	0.88241	-0.48
Mof_O 	O 	0.35848	0.82142	0.99496	-0.353
Mof_Zn	Zn	0.88993	0.9438	0.46459	1.212
Mof_H 	H 	0.9696	0.7242	0.514	0.022
Mof_H 	H 	0.774	0.7417	0.4891	0.03
Mof_H 	H 	0.7787	0.5411	0.4762	0.033
Mof_C 	C 	0.91744	0.70161	0.50563	0.097
Mof_C 	C 	0.87705	0.74511	0.50252	-0.158
Mof_C 	C 	0.80075	0.71246	0.49055	0.086
Mof_C 	C 	0.76201	0.63566	0.48037	-0.141
Mof_C 	C 	0.80374	0.5925	0.48328	0.085
Mof_C 	C 	0.88199	0.62597	0.49662	-0.164
Mof_C 	C 	0.91663	0.82512	0.50639	0.418
Mof_C 	C 	0.92394	0.57886	0.499	0.426
Mof_C 	C 	0.6762	0.5988	0.4634	0.38
Mof_O 	O 	0.87438	0.85634	0.4925	-0.498
Mof_O 	O 	0.99002	0.85493	0.52609	-0.512
Mof_O 	O 	0.88844	0.51123	0.49059	-0.478
Mof_O 	O 	0.9937	0.61263	0.50865	-0.498
Mof_O 	O 	0.64591	0.52832	0.45253	-0.471
Mof_O 	O 	0.64152	0.63648	0.46294	-0.336
Mof_Zn	Zn	0.47921	0.42534	0.53541	1.224
Mof_H 	H 	0.2102	0.4556	0.486	0.034
Mof_H 	H 	0.2526	0.2849	0.5109	0.039
Mof_H 	H 	0.0649	0.3025	0.5238	0.043
Mof_C 	C 	0.19598	0.41181	0.49437	0.089
Mof_C 	C 	0.24259	0.37453	0.49748	-0.141
Mof_C 	C 	0.22191	0.3102	0.50945	0.077
Mof_C 	C 	0.15529	0.28164	0.51963	-0.126
Mof_C 	C 	0.10922	0.32046	0.51672	0.077
Mof_C 	C 	0.12935	0.38537	0.50338	-0.147
Mof_C 	C 	0.31873	0.41024	0.49361	0.414
Mof_C 	C 	0.07986	0.42494	0.501	0.421
Mof_C 	C 	0.1354	0.2128	0.5366	0.376
Mof_O 	O 	0.36384	0.38188	0.5075	-0.482
Mof_O 	O 	0.32884	0.46393	0.47391	-0.486
Mof_O 	O 	0.02064	0.39785	0.50941	-0.457
Mof_O 	O 	0.10398	0.48505	0.49135	-0.475
Mof_O 	O 	0.07579	0.19338	0.54747	-0.458
Mof_O 	O 	0.17354	0.17858	0.53706	-0.325
Mof_Zn	Zn	0.94613	0.52079	0.0562	1.221
Mof_H 	H 	0.2454	0.7898	0.2758	0.032
Mof_H 	H 	0.0323	0.7474	0.2583	0.043
Mof_H 	H 	0.2376	0.9351	0.4589	0.032
Mof_C 	C 	0.21583	0.80402	0.29839	0.091
Mof_C 	C 	0.13194	0.75741	0.25489	-0.141
Mof_C 	C 	0.08829	0.77809	0.28754	0.079
Mof_C 	C 	0.12635	0.84471	0.36434	-0.132
Mof_C 	C 	0.21124	0.89078	0.4075	0.081
Mof_C 	C 	0.25602	0.87065	0.37403	-0.156
Mof_C 	C 	0.09151	0.68127	0.17488	0.412
Mof_C 	C 	0.34508	0.92014	0.42114	0.424
Mof_C 	C 	0.0774	0.8646	0.4012	0.378
Mof_O 	O 	0.01804	0.63616	0.14366	-0.465
Mof_O 	O 	0.13509	0.67116	0.14507	-0.481
Mof_O 	O 	0.37721	0.97936	0.48877	-0.483
Mof_O 	O 	0.38107	0.89602	0.38737	-0.489
Mof_O 	O 	0.11759	0.92421	0.47168	-0.475
Mof_O 	O 	0.00504	0.82646	0.36352	-0.323
Mof_Zn	Zn	0.05387	0.11007	0.57466	1.23
Mof_H 	H 	0.7546	0.0304	0.5444	0.036
Mof_H 	H 	0.9677	0.226	0.7151	0.028
Mof_H 	H 	0.7624	0.2213	0.6975	0.034
Mof_C 	C 	0.78417	0.08256	0.58819	0.092
Mof_C 	C 	0.86806	0.12295	0.62547	-0.149
Mof_C 	C 	0.91171	0.19925	0.6898	0.083
Mof_C 	C 	0.87365	0.23799	0.71836	-0.141
Mof_C 	C 	0.78876	0.19626	0.67954	0.082
Mof_C 	C 	0.74398	0.11801	0.61463	-0.153
Mof_C 	C 	0.90849	0.08337	0.58976	0.415
Mof_C 	C 	0.65492	0.07606	0.57506	0.422
Mof_C 	C 	0.9226	0.3238	0.7872	0.381
Mof_O 	O 	0.98196	0.12562	0.61812	-0.497
Mof_O 	O 	0.86491	0.00998	0.53607	-0.48
Mof_O 	O 	0.62279	0.11156	0.60215	-0.466
Mof_O 	O 	0.61893	0.0063	0.51495	-0.469
Mof_O 	O 	0.88241	0.35409	0.80662	-0.48
Mof_O 	O 	0.99496	0.35848	0.82142	-0.353
Mof_Zn	Zn	0.46459	0.88993	0.9438	1.212
Mof_H 	H 	0.514	0.9696	0.7242	0.022
Mof_H 	H 	0.4891	0.774	0.7417	0.03
Mof_H 	H 	0.4762	0.7787	0.5411	0.033
Mof_C 	C 	0.50563	0.91744	0.70161	0.097
Mof_C 	C 	0.50252	0.87705	0.74511	-0.158
Mof_C 	C 	0.49055	0.80075	0.71246	0.086
Mof_C 	C 	0.48037	0.76201	0.63566	-0.141
Mof_C 	C 	0.48328	0.80374	0.5925	0.085
Mof_C 	C 	0.49662	0.88199	0.62597	-0.164
Mof_C 	C 	0.50639	0.91663	0.82512	0.418
Mof_C 	C 	0.499	0.92394	0.57886	0.426
Mof_C 	C 	0.4634	0.6762	0.5988	0.38
Mof_O 	O 	0.4925	0.87438	0.85634	-0.498
Mof_O 	O 	0.52609	0.99002	0.85493	-0.512
Mof_O 	O 	0.49059	0.88844	0.51123	-0.478
Mof_O 	O 	0.50865	0.9937	0.61263	-0.498
Mof_O 	O 	0.45253	0.64591	0.52832	-0.471
Mof_O 	O 	0.46294	0.64152	0.63648	-0.336
Mof_Zn	Zn	0.53541	0.47921	0.42534	1.224
Mof_H 	H 	0.486	0.2102	0.4556	0.034
Mof_H 	H 	0.5109	0.2526	0.2849	0.039
Mof_H 	H 	0.5238	0.0649	0.3025	0.043
Mof_C 	C 	0.49437	0.19598	0.41181	0.089
Mof_C 	C 	0.49748	0.24259	0.37453	-0.141
Mof_C 	C 	0.50945	0.22191	0.3102	0.077
Mof_C 	C 	0.51963	0.15529	0.28164	-0.126
Mof_C 	C 	0.51672	0.10922	0.32046	0.077
Mof_C 	C 	0.50338	0.12935	0.38537	-0.147
Mof_C 	C 	0.49361	0.31873	0.41024	0.414
Mof_C 	C 	0.501	0.07986	0.42494	0.421
Mof_C 	C 	0.5366	0.1354	0.2128	0.376
Mof_O 	O 	0.5075	0.36384	0.38188	-0.482
Mof_O 	O 	0.47391	0.32884	0.46393	-0.486
Mof_O 	O 	0.50941	0.02064	0.39785	-0.457
Mof_O 	O 	0.49135	0.10398	0.48505	-0.475
Mof_O 	O 	0.54747	0.07579	0.19338	-0.458
Mof_O 	O 	0.53706	0.17354	0.17858	-0.325
Mof_Zn	Zn	0.0562	0.94613	0.52079	1.221
Mof_H 	H 	0.2758	0.2454	0.7898	0.032
Mof_H 	H 	0.2583	0.0323	0.7474	0.043
Mof_H 	H 	0.4589	0.2376	0.9351	0.032
Mof_C 	C 	0.29839	0.21583	0.80402	0.091
Mof_C 	C 	0.25489	0.13194	0.75741	-0.141
Mof_C 	C 	0.28754	0.08829	0.77809	0.079
Mof_C 	C 	0.36434	0.12635	0.84471	-0.132
Mof_C 	C 	0.4075	0.21124	0.89078	0.081
Mof_C 	C 	0.37403	0.25602	0.87065	-0.156
Mof_C 	C 	0.17488	0.09151	0.68127	0.412
Mof_C 	C 	0.42114	0.34508	0.92014	0.424
Mof_C 	C 	0.4012	0.0774	0.8646	0.378
Mof_O 	O 	0.14366	0.01804	0.63616	-0.465
Mof_O 	O 	0.14507	0.13509	0.67116	-0.481
Mof_O 	O 	0.48877	0.37721	0.97936	-0.483
Mof_O 	O 	0.38737	0.38107	0.89602	-0.489
Mof_O 	O 	0.47168	0.11759	0.92421	-0.475
Mof_O 	O 	0.36352	0.00504	0.82646	-0.323
Mof_Zn	Zn	0.57466	0.05387	0.11007	1.23
Mof_H 	H 	0.5444	0.7546	0.0304	0.036
Mof_H 	H 	0.7151	0.9677	0.226	0.028
Mof_H 	H 	0.6975	0.7624	0.2213	0.034
Mof_C 	C 	0.58819	0.78417	0.08256	0.092
Mof_C 	C 	0.62547	0.86806	0.12295	-0.149
Mof_C 	C 	0.6898	0.91171	0.19925	0.083
Mof_C 	C 	0.71836	0.87365	0.23799	-0.141
Mof_C 	C 	0.67954	0.78876	0.19626	0.082
Mof_C 	C 	0.61463	0.74398	0.11801	-0.153
Mof_C 	C 	0.58976	0.90849	0.08337	0.415
Mof_C 	C 	0.57506	0.65492	0.07606	0.422
Mof_C 	C 	0.7872	0.9226	0.3238	0.381
Mof_O 	O 	0.61812	0.98196	0.12562	-0.497
Mof_O 	O 	0.53607	0.86491	0.00998	-0.48
Mof_O 	O 	0.60215	0.62279	0.11156	-0.466
Mof_O 	O 	0.51495	0.61893	0.0063	-0.469
Mof_O 	O 	0.80662	0.88241	0.35409	-0.48
Mof_O 	O 	0.82142	0.99496	0.35848	-0.353
Mof_Zn	Zn	0.9438	0.46459	0.88993	1.212
Mof_H 	H 	0.7242	0.514	0.9696	0.022
Mof_H 	H 	0.7417	0.4891	0.774	0.03
Mof_H 	H 	0.5411	0.4762	0.7787	0.033
Mof_C 	C 	0.70161	0.50563	0.91744	0.097
Mof_C 	C 	0.74511	0.50252	0.87705	-0.158
Mof_C 	C 	0.71246	0.49055	0.80075	0.086
Mof_C 	C 	0.63566	0.48037	0.76201	-0.141
Mof_C 	C 	0.5925	0.48328	0.80374	0.085
Mof_C 	C 	0.62597	0.49662	0.88199	-0.164
Mof_C 	C 	0.82512	0.50639	0.91663	0.418
Mof_C 	C 	0.57886	0.499	0.92394	0.426
Mof_C 	C 	0.5988	0.4634	0.6762	0.38
Mof_O 	O 	0.85634	0.4925	0.87438	-0.498
Mof_O 	O 	0.85493	0.52609	0.99002	-0.512
Mof_O 	O 	0.51123	0.49059	0.88844	-0.478
Mof_O 	O 	0.61263	0.50865	0.9937	-0.498
Mof_O 	O 	0.52832	0.45253	0.64591	-0.471
Mof_O 	O 	0.63648	0.46294	0.64152	-0.336
Mof_Zn	Zn	0.42534	0.53541	0.47921	1.224
Mof_H 	H 	0.4556	0.486	0.2102	0.034
Mof_H 	H 	0.2849	0.5109	0.2526	0.039
Mof_H 	H 	0.3025	0.5238	0.0649	0.043
Mof_C 	C 	0.41181	0.49437	0.19598	0.089
Mof_C 	C 	0.37453	0.49748	0.24259	-0.141
Mof_C 	C 	0.3102	0.50945	0.22191	0.077
Mof_C 	C 	0.28164	0.51963	0.15529	-0.126
Mof_C 	C 	0.32046	0.51672	0.10922	0.077
Mof_C 	C 	0.38537	0.50338	0.12935	-0.147
Mof_C 	C 	0.41024	0.49361	0.31873	0.414
Mof_C 	C 	0.42494	0.501	0.07986	0.421
Mof_C 	C 	0.2128	0.5366	0.1354	0.376
Mof_O 	O 	0.38188	0.5075	0.36384	-0.482
Mof_O 	O 	0.46393	0.47391	0.32884	-0.486
Mof_O 	O 	0.39785	0.50941	0.02064	-0.457
Mof_O 	O 	0.48505	0.49135	0.10398	-0.475
Mof_O 	O 	0.19338	0.54747	0.07579	-0.458
Mof_O 	O 	0.17858	0.53706	0.17354	-0.325
Mof_H 	H 	0.44088	0	-0	0.192
Mof_O 	O 	0.48908	0	-0	-0.85
Mof_H 	H 	-1.76073e-17	0.44088	-0	0.192
Mof_O 	O 	-0	0.48908	-0	-0.85
Mof_H 	H 	8.80364e-18	3.52145e-17	0.44088	0.192
Mof_O 	O 	-0	-3.52145e-17	0.48908	-0.85
Mof_H 	H 	0.55912	0.55912	0.55912	0.177
Mof_O 	O 	0.51092	0.51092	0.51092	-0.876
Mof_Zn	Zn	0.93658	0.43658	0.5	1.19
Mof_Zn	Zn	0.06342	0.56342	0.5	1.206
Mof_Zn	Zn	0.5	0.93658	0.43658	1.19
Mof_Zn	Zn	0.5	0.06342	0.56342	1.206
Mof_Zn	Zn	0.43658	0.5	0.93658	1.19
Mof_Zn	Zn	0.56342	0.5	0.06342	1.206
_end
