data_functionalizedCrystal
_audit_creation_method	'EQeq! by Chris Wilmer'
_symmetry_space_group_name_H-M	'P1'
_symmetry_Int_Tables_number	1
_symmetry_cell_setting	triclinic
loop_
_symmetry_equiv_pos_as_xyz
  x,y,z
_cell_length_a	23.6408
_cell_length_b	16.3714
_cell_length_c	6.587
_cell_angle_alpha	90
_cell_angle_beta	90
_cell_angle_gamma	90
loop_
_atom_site_label
_atom_site_type_symbol
_atom_site_fract_x
_atom_site_fract_y
_atom_site_fract_z
_atom_site_charge
Mof_Mn	Mn	0.82556	0.8893	0.8849	0.894
Mof_N 	N 	0.6127	0.6529	0.9519	-0.141
Mof_N 	N 	0.73239	0.92159	0.868	-0.179
Mof_N 	N 	0.8187	0.02928	0.8961	-0.173
Mof_O 	O 	0.79903	0.7603	0.8859	-0.394
Mof_O 	O 	0.87305	0.67748	0.91	-0.521
Mof_H 	H 	0.8906	0.7207	0.9114	0.327
Mof_O 	O 	0.66972	0.3691	0.7154	-0.345
Mof_O 	O 	0.6658	0.3715	0.0508	-0.305
Mof_O 	O 	0.41514	0.59869	0.8773	-0.367
Mof_O 	O 	0.4459	0.72055	0.9873	-0.296
Mof_C 	C 	0.8195	0.6924	0.8967	0.427
Mof_C 	C 	0.78319	0.61694	0.8914	-0.093
Mof_C 	C 	0.80696	0.5391	0.8773	-0.014
Mof_H 	H 	0.846	0.5327	0.8701	0.056
Mof_C 	C 	0.77175	0.4719	0.8742	-0.022
Mof_H 	H 	0.7874	0.4199	0.8655	0.034
Mof_C 	C 	0.71315	0.48031	0.8839	-0.098
Mof_C 	C 	0.67963	0.4015	0.8829	0.315
Mof_C 	C 	0.68849	0.5588	0.898	-0
Mof_C 	C 	0.72517	0.6251	0.9012	-0.02
Mof_H 	H 	0.7099	0.6774	0.9104	0.053
Mof_C 	C 	0.62608	0.5755	0.9042	0.094
Mof_C 	C 	0.58441	0.518	0.8661	-0.157
Mof_H 	H 	0.5944	0.4642	0.8382	0.095
Mof_C 	C 	0.52843	0.5401	0.8694	0.079
Mof_H 	H 	0.5006	0.502	0.8377	0.016
Mof_C 	C 	0.5136	0.6185	0.9195	-0.142
Mof_C 	C 	0.55787	0.6726	0.9579	0.079
Mof_H 	H 	0.5486	0.7262	0.99	0.02
Mof_C 	C 	0.45352	0.6475	0.9275	0.355
Mof_C 	C 	0.6903	0.8686	0.8503	0.055
Mof_H 	H 	0.6993	0.8133	0.8452	0.017
Mof_C 	C 	0.6334	0.8906	0.8388	-0.092
Mof_H 	H 	0.6054	0.8513	0.823	0.067
Mof_C 	C 	0.62012	0.971	0.8513	-0.028
Mof_H 	H 	0.5825	0.9872	0.8447	0.048
Mof_C 	C 	0.66268	0.0298	0.8741	0.001
Mof_C 	C 	0.71899	0.0012	0.8785	0.037
Mof_C 	C 	0.6519	0.1152	0.884	-0.038
Mof_H 	H 	0.6148	0.1339	0.8789	0.061
Mof_C 	C 	0.6943	0.1689	0.9003	-0.064
Mof_H 	H 	0.686	0.2243	0.9108	0.073
Mof_C 	C 	0.7529	0.1426	0.9021	0.016
Mof_C 	C 	0.76515	0.0594	0.8945	0.029
Mof_C 	C 	0.7977	0.1962	0.9177	-0.045
Mof_H 	H 	0.7908	0.252	0.9244	0.045
Mof_C 	C 	0.8522	0.1677	0.9235	-0.074
Mof_H 	H 	0.8825	0.2036	0.9349	0.055
Mof_C 	C 	0.8614	0.082	0.9117	0.048
Mof_H 	H 	0.8983	0.0622	0.9149	0.019
Mof_Mn	Mn	0.17444	0.1107	0.3849	0.916
Mof_N 	N 	0.3873	0.3471	0.4519	-0.136
Mof_N 	N 	0.26761	0.07841	0.368	-0.176
Mof_N 	N 	0.1813	0.97072	0.3961	-0.169
Mof_O 	O 	0.20097	0.2397	0.3859	-0.387
Mof_O 	O 	0.12695	0.32252	0.41	-0.51
Mof_H 	H 	0.1094	0.2793	0.4114	0.328
Mof_O 	O 	0.33028	0.6309	0.2154	-0.331
Mof_O 	O 	0.3342	0.6285	0.5508	-0.341
Mof_O 	O 	0.58486	0.40131	0.3773	-0.36
Mof_O 	O 	0.5541	0.27945	0.4873	-0.287
Mof_C 	C 	0.1805	0.3076	0.3967	0.432
Mof_C 	C 	0.21681	0.38306	0.3914	-0.078
Mof_C 	C 	0.19304	0.4609	0.3773	-0.013
Mof_H 	H 	0.154	0.4673	0.3701	0.068
Mof_C 	C 	0.22825	0.5281	0.3742	-0.004
Mof_H 	H 	0.2126	0.5801	0.3655	0.04
Mof_C 	C 	0.28685	0.51969	0.3839	-0.1
Mof_C 	C 	0.32037	0.5985	0.3829	0.355
Mof_C 	C 	0.31151	0.4412	0.398	0.016
Mof_C 	C 	0.27483	0.3749	0.4012	-0.018
Mof_H 	H 	0.2901	0.3226	0.4104	0.061
Mof_C 	C 	0.37392	0.4245	0.4042	0.101
Mof_C 	C 	0.41559	0.482	0.3661	-0.148
Mof_H 	H 	0.4056	0.5358	0.3382	0.103
Mof_C 	C 	0.47157	0.4599	0.3694	0.083
Mof_H 	H 	0.4994	0.498	0.3377	0.025
Mof_C 	C 	0.4864	0.3815	0.4195	-0.135
Mof_C 	C 	0.44213	0.3274	0.4579	0.085
Mof_H 	H 	0.4514	0.2738	0.49	0.025
Mof_C 	C 	0.54648	0.3525	0.4275	0.358
Mof_C 	C 	0.3097	0.1314	0.3503	0.063
Mof_H 	H 	0.3007	0.1867	0.3452	0.022
Mof_C 	C 	0.3666	0.1094	0.3388	-0.085
Mof_H 	H 	0.3946	0.1487	0.323	0.072
Mof_C 	C 	0.37988	0.029	0.3513	-0.028
Mof_H 	H 	0.4175	0.0128	0.3447	0.057
Mof_C 	C 	0.33732	0.9702	0.3741	0.013
Mof_C 	C 	0.28101	0.9988	0.3785	0.046
Mof_C 	C 	0.3481	0.8848	0.384	-0.033
Mof_H 	H 	0.3852	0.8661	0.3789	0.072
Mof_C 	C 	0.3057	0.8311	0.4003	-0.054
Mof_H 	H 	0.314	0.7757	0.4108	0.082
Mof_C 	C 	0.2471	0.8574	0.4021	0.023
Mof_C 	C 	0.23485	0.9406	0.3945	0.039
Mof_C 	C 	0.2023	0.8038	0.4177	-0.036
Mof_H 	H 	0.2092	0.748	0.4244	0.054
Mof_C 	C 	0.1478	0.8323	0.4235	-0.068
Mof_H 	H 	0.1175	0.7964	0.4349	0.068
Mof_C 	C 	0.1386	0.918	0.4117	0.06
Mof_H 	H 	0.1017	0.9378	0.4149	0.026
Mof_Mn	Mn	0.32556	0.6107	0.8849	0.893
Mof_N 	N 	0.1127	0.8471	0.9519	-0.141
Mof_N 	N 	0.23239	0.57841	0.868	-0.18
Mof_N 	N 	0.3187	0.47072	0.8961	-0.174
Mof_O 	O 	0.29903	0.7397	0.8859	-0.394
Mof_O 	O 	0.37305	0.82252	0.91	-0.521
Mof_H 	H 	0.3906	0.7793	0.9114	0.327
Mof_O 	O 	0.16972	0.1309	0.7154	-0.345
Mof_O 	O 	0.1658	0.1285	0.0508	-0.305
Mof_O 	O 	0.91514	0.90131	0.8773	-0.366
Mof_O 	O 	0.9459	0.77945	0.9873	-0.296
Mof_C 	C 	0.3195	0.8076	0.8967	0.427
Mof_C 	C 	0.28319	0.88306	0.8914	-0.093
Mof_C 	C 	0.30696	0.9609	0.8773	-0.013
Mof_H 	H 	0.346	0.9673	0.8701	0.056
Mof_C 	C 	0.27175	0.0281	0.8742	-0.023
Mof_H 	H 	0.2874	0.0801	0.8655	0.034
Mof_C 	C 	0.21315	0.01969	0.8839	-0.099
Mof_C 	C 	0.17963	0.0985	0.8829	0.315
Mof_C 	C 	0.18849	0.9412	0.898	0.002
Mof_C 	C 	0.22517	0.8749	0.9012	-0.02
Mof_H 	H 	0.2099	0.8226	0.9104	0.053
Mof_C 	C 	0.12608	0.9245	0.9042	0.092
Mof_C 	C 	0.08441	0.982	0.8661	-0.151
Mof_H 	H 	0.0944	0.0358	0.8382	0.092
Mof_C 	C 	0.02843	0.9599	0.8694	0.075
Mof_H 	H 	0.0006	0.998	0.8377	0.018
Mof_C 	C 	0.0136	0.8815	0.9195	-0.139
Mof_C 	C 	0.05787	0.8274	0.9579	0.078
Mof_H 	H 	0.0486	0.7738	0.99	0.021
Mof_C 	C 	0.95352	0.8525	0.9275	0.353
Mof_C 	C 	0.1903	0.6314	0.8503	0.055
Mof_H 	H 	0.1993	0.6867	0.8452	0.017
Mof_C 	C 	0.1334	0.6094	0.8388	-0.091
Mof_H 	H 	0.1054	0.6487	0.823	0.067
Mof_C 	C 	0.12012	0.529	0.8513	-0.03
Mof_H 	H 	0.0825	0.5128	0.8447	0.049
Mof_C 	C 	0.16268	0.4702	0.8741	0.002
Mof_C 	C 	0.21899	0.4988	0.8785	0.037
Mof_C 	C 	0.1519	0.3848	0.884	-0.039
Mof_H 	H 	0.1148	0.3661	0.8789	0.061
Mof_C 	C 	0.1943	0.3311	0.9003	-0.064
Mof_H 	H 	0.186	0.2757	0.9108	0.073
Mof_C 	C 	0.2529	0.3574	0.9021	0.015
Mof_C 	C 	0.26515	0.4406	0.8945	0.029
Mof_C 	C 	0.2977	0.3038	0.9177	-0.045
Mof_H 	H 	0.2908	0.248	0.9244	0.045
Mof_C 	C 	0.3522	0.3323	0.9235	-0.074
Mof_H 	H 	0.3825	0.2964	0.9349	0.056
Mof_C 	C 	0.3614	0.418	0.9117	0.047
Mof_H 	H 	0.3983	0.4378	0.9149	0.019
Mof_Mn	Mn	0.67444	0.3893	0.3849	0.916
Mof_N 	N 	0.8873	0.1529	0.4519	-0.136
Mof_N 	N 	0.76761	0.42159	0.368	-0.176
Mof_N 	N 	0.6813	0.52928	0.3961	-0.17
Mof_O 	O 	0.70097	0.2603	0.3859	-0.387
Mof_O 	O 	0.62695	0.17748	0.41	-0.51
Mof_H 	H 	0.6094	0.2207	0.4114	0.328
Mof_O 	O 	0.83028	0.8691	0.2154	-0.332
Mof_O 	O 	0.8342	0.8715	0.5508	-0.341
Mof_O 	O 	0.08486	0.09869	0.3773	-0.36
Mof_O 	O 	0.0541	0.22055	0.4873	-0.287
Mof_C 	C 	0.6805	0.1924	0.3967	0.432
Mof_C 	C 	0.71681	0.11694	0.3914	-0.077
Mof_C 	C 	0.69304	0.0391	0.3773	-0.014
Mof_H 	H 	0.654	0.0327	0.3701	0.068
Mof_C 	C 	0.72825	0.9719	0.3742	-0.003
Mof_H 	H 	0.7126	0.9199	0.3655	0.04
Mof_C 	C 	0.78685	0.98031	0.3839	-0.1
Mof_C 	C 	0.82037	0.9015	0.3829	0.355
Mof_C 	C 	0.81151	0.0588	0.398	0.015
Mof_C 	C 	0.77483	0.1251	0.4012	-0.018
Mof_H 	H 	0.7901	0.1774	0.4104	0.061
Mof_C 	C 	0.87392	0.0755	0.4042	0.101
Mof_C 	C 	0.91559	0.018	0.3661	-0.149
Mof_H 	H 	0.9056	0.9642	0.3382	0.104
Mof_C 	C 	0.97157	0.0401	0.3694	0.084
Mof_H 	H 	0.9994	0.002	0.3377	0.024
Mof_C 	C 	0.9864	0.1185	0.4195	-0.136
Mof_C 	C 	0.94213	0.1726	0.4579	0.085
Mof_H 	H 	0.9514	0.2262	0.49	0.024
Mof_C 	C 	0.04648	0.1475	0.4275	0.359
Mof_C 	C 	0.8097	0.3686	0.3503	0.063
Mof_H 	H 	0.8007	0.3133	0.3452	0.022
Mof_C 	C 	0.8666	0.3906	0.3388	-0.086
Mof_H 	H 	0.8946	0.3513	0.323	0.072
Mof_C 	C 	0.87988	0.471	0.3513	-0.026
Mof_H 	H 	0.9175	0.4872	0.3447	0.056
Mof_C 	C 	0.83732	0.5298	0.3741	0.011
Mof_C 	C 	0.78101	0.5012	0.3785	0.046
Mof_C 	C 	0.8481	0.6152	0.384	-0.033
Mof_H 	H 	0.8852	0.6339	0.3789	0.072
Mof_C 	C 	0.8057	0.6689	0.4003	-0.054
Mof_H 	H 	0.814	0.7243	0.4108	0.082
Mof_C 	C 	0.7471	0.6426	0.4021	0.023
Mof_C 	C 	0.73485	0.5594	0.3945	0.039
Mof_C 	C 	0.7023	0.6962	0.4177	-0.036
Mof_H 	H 	0.7092	0.752	0.4244	0.054
Mof_C 	C 	0.6478	0.6677	0.4235	-0.067
Mof_H 	H 	0.6175	0.7036	0.4349	0.068
Mof_C 	C 	0.6386	0.582	0.4117	0.06
Mof_H 	H 	0.6017	0.5622	0.4149	0.026
_end
