data_functionalizedCrystal
_audit_creation_method	'EQeq! by Chris Wilmer'
_symmetry_space_group_name_H-M	'P1'
_symmetry_Int_Tables_number	1
_symmetry_cell_setting	triclinic
loop_
_symmetry_equiv_pos_as_xyz
  x,y,z
_cell_length_a	9.9616
_cell_length_b	9.9616
_cell_length_c	19.68
_cell_angle_alpha	90
_cell_angle_beta	90
_cell_angle_gamma	102.879
loop_
_atom_site_label
_atom_site_type_symbol
_atom_site_fract_x
_atom_site_fract_y
_atom_site_fract_z
_atom_site_charge
Mof_Ni	Ni	0.31304	0.43132	0.73365	1.12
Mof_Ni	Ni	0.68696	0.56868	0.23365	1.12
Mof_Ni	Ni	0.56868	0.68696	0.76635	1.12
Mof_Ni	Ni	0.43132	0.31304	0.26635	1.12
Mof_H 	H 	0.6744	0.7122	0.6	0.031
Mof_H 	H 	0.3361	0.9883	0.7484	0.067
Mof_H 	H 	0.3256	0.2878	0.1	0.03
Mof_H 	H 	0.6639	0.0117	0.2484	0.066
Mof_H 	H 	0.2878	0.3256	0.9	0.028
Mof_H 	H 	0.0117	0.6639	0.7516	0.067
Mof_H 	H 	0.7122	0.6744	0.4	0.031
Mof_H 	H 	0.9883	0.3361	0.2516	0.066
Mof_H 	H 	0.4137	0.4137	0.5	0.055
Mof_H 	H 	0.5863	0.5863	-0	0.057
Mof_H 	H 	0.9511	0.0489	0.75	0.073
Mof_H 	H 	0.0489	0.9511	0.25	0.071
Mof_C 	C 	0.6431	0.6675	0.5596	0.073
Mof_C 	C 	0.4417	0.5049	0.6234	0.413
Mof_C 	C 	0.5303	0.5595	0.561	-0.125
Mof_C 	C 	0.2097	0.1939	0.7466	0.296
Mof_C 	C 	0.2415	0.9527	0.7491	0.026
Mof_C 	C 	0.1511	0.0419	0.7495	-0.055
Mof_C 	C 	0.3569	0.3325	0.0596	0.073
Mof_C 	C 	0.5583	0.4951	0.1234	0.411
Mof_C 	C 	0.4697	0.4405	0.061	-0.122
Mof_C 	C 	0.7903	0.8061	0.2466	0.297
Mof_C 	C 	0.7585	0.0473	0.2491	0.027
Mof_C 	C 	0.8489	0.9581	0.2495	-0.057
Mof_C 	C 	0.3325	0.3569	0.9404	0.09
Mof_C 	C 	0.4951	0.5583	0.8766	0.41
Mof_C 	C 	0.4405	0.4697	0.939	-0.11
Mof_C 	C 	0.8061	0.7903	0.7534	0.296
Mof_C 	C 	0.0473	0.7585	0.7509	0.026
Mof_C 	C 	0.9581	0.8489	0.7505	-0.055
Mof_C 	C 	0.6675	0.6431	0.4404	0.073
Mof_C 	C 	0.5049	0.4417	0.3766	0.413
Mof_C 	C 	0.5595	0.5303	0.439	-0.125
Mof_C 	C 	0.1939	0.2097	0.2534	0.297
Mof_C 	C 	0.9527	0.2415	0.2509	0.027
Mof_C 	C 	0.0419	0.1511	0.2505	-0.058
Mof_C 	C 	0.8319	0.8319	0.5	0.332
Mof_C 	C 	0.7111	0.7111	0.5	-0.107
Mof_C 	C 	0.4885	0.4885	0.5	0.066
Mof_C 	C 	0.1681	0.1681	-0	0.314
Mof_C 	C 	0.2889	0.2889	-0	-0.121
Mof_C 	C 	0.5115	0.5115	-0	0.043
Mof_C 	C 	0.0108	0.9892	0.75	0.017
Mof_C 	C 	0.2863	0.7137	0.75	0.39
Mof_C 	C 	0.1899	0.8101	0.75	-0.084
Mof_C 	C 	0.9892	0.0108	0.25	0.02
Mof_C 	C 	0.7137	0.2863	0.25	0.39
Mof_C 	C 	0.8101	0.1899	0.25	-0.087
Mof_O 	O 	0.8559	0.8959	0.5537	-0.22
Mof_O 	O 	0.3275	0.4341	0.6141	-0.35
Mof_O 	O 	0.1379	0.2783	0.7598	-0.342
Mof_O 	O 	0.3367	0.2391	0.7326	-0.365
Mof_O 	O 	0.2312	0.5886	0.7416	-0.439
Mof_O 	O 	0.4882	0.5358	0.6793	-0.498
Mof_O 	O 	0.1441	0.1041	0.0537	-0.219
Mof_O 	O 	0.6725	0.5659	0.1141	-0.352
Mof_O 	O 	0.8621	0.7217	0.2598	-0.343
Mof_O 	O 	0.6633	0.7609	0.2326	-0.366
Mof_O 	O 	0.7688	0.4114	0.2416	-0.44
Mof_O 	O 	0.5118	0.4642	0.1793	-0.498
Mof_O 	O 	0.1041	0.1441	0.9463	-0.202
Mof_O 	O 	0.5659	0.6725	0.8859	-0.344
Mof_O 	O 	0.7217	0.8621	0.7402	-0.342
Mof_O 	O 	0.7609	0.6633	0.7674	-0.364
Mof_O 	O 	0.4114	0.7688	0.7584	-0.439
Mof_O 	O 	0.4642	0.5118	0.8207	-0.496
Mof_O 	O 	0.8959	0.8559	0.4463	-0.22
Mof_O 	O 	0.4341	0.3275	0.3859	-0.35
Mof_O 	O 	0.2783	0.1379	0.2402	-0.343
Mof_O 	O 	0.2391	0.3367	0.2674	-0.366
Mof_O 	O 	0.5886	0.2312	0.2584	-0.44
Mof_O 	O 	0.5358	0.4882	0.3207	-0.498
_end
