data_functionalizedCrystal
_audit_creation_method	'EQeq! by Chris Wilmer'
_symmetry_space_group_name_H-M	'P1'
_symmetry_Int_Tables_number	1
_symmetry_cell_setting	triclinic
loop_
_symmetry_equiv_pos_as_xyz
  x,y,z
_cell_length_a	10.7574
_cell_length_b	15.8135
_cell_length_c	17.4957
_cell_angle_alpha	114.107
_cell_angle_beta	104.093
_cell_angle_gamma	98.132
loop_
_atom_site_label
_atom_site_type_symbol
_atom_site_fract_x
_atom_site_fract_y
_atom_site_fract_z
_atom_site_charge
Mof_Mg	Mg	0.5	0	0.5	1.458
Mof_Mg	Mg	0.5	0.5	0.5	1.463
Mof_H 	H 	0.4916	0.0801	0.9618	0.068
Mof_H 	H 	0.3912	0.088	0.833	0.02
Mof_H 	H 	0.7097	0.0423	0.755	0.009
Mof_H 	H 	0.8099	0.0307	0.8822	0.06
Mof_H 	H 	0.6771	0.1589	0.0994	0.052
Mof_H 	H 	0.5988	0.1286	0.2408	0.062
Mof_H 	H 	0.5719	0.2477	0.365	0.022
Mof_H 	H 	0.9499	0.4031	0.4394	0.045
Mof_H 	H 	0.9773	0.2852	0.3148	0.092
Mof_H 	H 	0.9702	0.8817	0.9618	0.074
Mof_H 	H 	0.9418	0.745	0.833	0.031
Mof_H 	H 	0.5453	0.7127	0.755	0.027
Mof_H 	H 	0.5723	0.8515	0.8822	0.072
Mof_H 	H 	0.9223	0.9405	0.0994	0.044
Mof_H 	H 	0.142	0.1122	0.2408	0.077
Mof_H 	H 	0.2931	0.1173	0.365	0.01
Mof_H 	H 	0.9895	0.0363	0.4394	0.019
Mof_H 	H 	0.8375	0.0296	0.3148	0.089
Mof_H 	H 	0.5084	0.9199	0.0382	0.077
Mof_H 	H 	0.6088	0.912	0.167	0.042
Mof_H 	H 	0.2903	0.9577	0.245	0.041
Mof_H 	H 	0.1901	0.9693	0.1178	0.079
Mof_H 	H 	0.3229	0.8411	0.9006	0.054
Mof_H 	H 	0.4012	0.8714	0.7592	0.093
Mof_H 	H 	0.4281	0.7523	0.635	0.025
Mof_H 	H 	0.0501	0.5969	0.5606	0.043
Mof_H 	H 	0.0227	0.7148	0.6852	0.097
Mof_H 	H 	0.0298	0.1183	0.0382	0.07
Mof_H 	H 	0.0582	0.255	0.167	0.03
Mof_H 	H 	0.4547	0.2873	0.245	0.024
Mof_H 	H 	0.4277	0.1485	0.1178	0.066
Mof_H 	H 	0.0777	0.0595	0.9006	0.063
Mof_H 	H 	0.858	0.8878	0.7592	0.078
Mof_H 	H 	0.7069	0.8827	0.635	0.036
Mof_H 	H 	0.0105	0.9637	0.5606	0.065
Mof_H 	H 	0.1625	0.9704	0.6852	0.103
Mof_C 	C 	0.65852	0.05002	0.93504	0.065
Mof_C 	C 	0.53526	0.06976	0.91892	-0.136
Mof_C 	C 	0.47554	0.07484	0.84228	0.051
Mof_C 	C 	0.53733	0.06093	0.77806	-0.144
Mof_C 	C 	0.66356	0.04736	0.79592	0.053
Mof_C 	C 	0.72381	0.04111	0.87202	-0.133
Mof_C 	C 	0.72544	0.04454	0.01748	-0.065
Mof_C 	C 	0.72783	0.11433	0.09926	-0.059
Mof_C 	C 	0.80129	0.12209	0.18118	-0.001
Mof_C 	C 	0.79075	0.19695	0.2645	0.061
Mof_C 	C 	0.66988	0.18478	0.28036	-0.119
Mof_C 	C 	0.65445	0.25575	0.3547	0.043
Mof_C 	C 	0.75687	0.33747	0.41354	-0.127
Mof_C 	C 	0.87787	0.34787	0.39874	0.049
Mof_C 	C 	0.89414	0.27744	0.32428	-0.114
Mof_C 	C 	0.46912	0.05792	0.69084	0.381
Mof_C 	C 	0.73498	0.41268	0.49056	0.352
Mof_C 	C 	0.77652	0.88502	0.93504	0.052
Mof_C 	C 	0.88366	0.84916	0.91892	-0.108
Mof_C 	C 	0.86674	0.76744	0.84228	0.043
Mof_C 	C 	0.74073	0.71713	0.77806	-0.123
Mof_C 	C 	0.63236	0.74856	0.79592	0.044
Mof_C 	C 	0.64821	0.83091	0.87202	-0.103
Mof_C 	C 	0.79204	0.97294	0.01748	0.032
Mof_C 	C 	0.87143	0.98493	0.09926	0.006
Mof_C 	C 	0.87989	0.05909	0.18118	-0.078
Mof_C 	C 	0.97375	0.06755	0.2645	0.091
Mof_C 	C 	0.11048	0.09558	0.28036	-0.149
Mof_C 	C 	0.20025	0.09895	0.3547	0.063
Mof_C 	C 	0.15667	0.07607	0.41354	-0.154
Mof_C 	C 	0.02087	0.05087	0.39874	0.077
Mof_C 	C 	0.93014	0.04684	0.32428	-0.152
Mof_C 	C 	0.72172	0.63292	0.69084	0.377
Mof_C 	C 	0.25558	0.07788	0.49056	0.361
Mof_C 	C 	0.34148	0.94998	0.06496	0.058
Mof_C 	C 	0.46474	0.93024	0.08108	-0.102
Mof_C 	C 	0.52446	0.92516	0.15772	0.044
Mof_C 	C 	0.46267	0.93907	0.22194	-0.109
Mof_C 	C 	0.33644	0.95264	0.20408	0.044
Mof_C 	C 	0.27619	0.95889	0.12798	-0.097
Mof_C 	C 	0.27456	0.95546	0.98252	0.032
Mof_C 	C 	0.27217	0.88567	0.90074	-0.058
Mof_C 	C 	0.19871	0.87791	0.81882	-0.023
Mof_C 	C 	0.20925	0.80305	0.7355	0.084
Mof_C 	C 	0.33012	0.81522	0.71964	-0.133
Mof_C 	C 	0.34555	0.74425	0.6453	0.06
Mof_C 	C 	0.24313	0.66253	0.58646	-0.133
Mof_C 	C 	0.12213	0.65213	0.60126	0.061
Mof_C 	C 	0.10586	0.72256	0.67572	-0.128
Mof_C 	C 	0.53088	0.94208	0.30916	0.375
Mof_C 	C 	0.26502	0.58732	0.50944	0.356
Mof_C 	C 	0.22348	0.11498	0.06496	0.064
Mof_C 	C 	0.11634	0.15084	0.08108	-0.127
Mof_C 	C 	0.13326	0.23256	0.15772	0.049
Mof_C 	C 	0.25927	0.28287	0.22194	-0.129
Mof_C 	C 	0.36764	0.25144	0.20408	0.05
Mof_C 	C 	0.35179	0.16909	0.12798	-0.124
Mof_C 	C 	0.20796	0.02706	0.98252	-0.055
Mof_C 	C 	0.12857	0.01507	0.90074	-0.122
Mof_C 	C 	0.12011	0.94091	0.81882	0.05
Mof_C 	C 	0.02625	0.93245	0.7355	0.055
Mof_C 	C 	0.88952	0.90442	0.71964	-0.103
Mof_C 	C 	0.79975	0.90105	0.6453	0.042
Mof_C 	C 	0.84333	0.92393	0.58646	-0.109
Mof_C 	C 	0.97913	0.94913	0.60126	0.041
Mof_C 	C 	0.06986	0.95316	0.67572	-0.095
Mof_C 	C 	0.27828	0.36708	0.30916	0.379
Mof_C 	C 	0.74442	0.92212	0.50944	0.349
Mof_O 	O 	0.52256	0.03526	0.63272	-0.51
Mof_O 	O 	0.35811	0.07871	0.68342	-0.269
Mof_O 	O 	0.62253	0.40823	0.49646	-0.48
Mof_O 	O 	0.83974	0.48304	0.54788	-0.245
Mof_O 	O 	0.61016	0.59746	0.63272	-0.489
Mof_O 	O 	0.82531	0.60471	0.68342	-0.256
Mof_O 	O 	0.37393	0.08823	0.49646	-0.496
Mof_O 	O 	0.20814	0.06484	0.54788	-0.261
Mof_O 	O 	0.47744	0.96474	0.36728	-0.466
Mof_O 	O 	0.64189	0.92129	0.31658	-0.239
Mof_O 	O 	0.37747	0.59177	0.50354	-0.479
Mof_O 	O 	0.16026	0.51696	0.45212	-0.243
Mof_O 	O 	0.38984	0.40254	0.36728	-0.489
Mof_O 	O 	0.17469	0.39529	0.31658	-0.253
Mof_O 	O 	0.62607	0.91177	0.50354	-0.462
Mof_O 	O 	0.79186	0.93516	0.45212	-0.225
_end
