data_functionalizedCrystal
_audit_creation_method	'EQeq! by Chris Wilmer'
_symmetry_space_group_name_H-M	'P1'
_symmetry_Int_Tables_number	1
_symmetry_cell_setting	triclinic
loop_
_symmetry_equiv_pos_as_xyz
  x,y,z
_cell_length_a	16.319
_cell_length_b	18.374
_cell_length_c	22.075
_cell_angle_alpha	90
_cell_angle_beta	106.13
_cell_angle_gamma	90
loop_
_atom_site_label
_atom_site_type_symbol
_atom_site_fract_x
_atom_site_fract_y
_atom_site_fract_z
_atom_site_charge
Mof_Na	Na	0.2304	0.2179	0.072	1.846
Mof_O 	O 	0.3336	0.2969	0.0456	-0.691
Mof_La	La	0.2405	0.0758	0.2095	1.534
Mof_S 	S 	0.8999	0.2114	0.9084	0.238
Mof_O 	O 	0.8396	0.1608	0.8687	-0.24
Mof_O 	O 	0.9843	0.2064	0.901	-0.182
Mof_O 	O 	0.915	0.1544	0.1744	-0.396
Mof_O 	O 	0.1411	0.1547	0.1162	-0.721
Mof_O 	O 	0.0866	0.1322	0.1936	-0.627
Mof_C 	C 	0.9066	0.1898	0.9875	-0.011
Mof_C 	C 	0.8339	0.1866	0.0066	-0.028
Mof_C 	C 	0.8365	0.1735	0.068	-0.104
Mof_C 	C 	0.9156	0.1639	0.1144	0.21
Mof_C 	C 	0.9895	0.1659	0.0947	-0.129
Mof_C 	C 	0.9834	0.1802	0.0305	0.011
Mof_C 	C 	0.0759	0.1511	0.1367	0.342
Mof_S 	S 	0.6868	0.968	0.9404	0.744
Mof_O 	O 	0.6723	0.0533	0.918	-0.369
Mof_O 	O 	0.6157	0.9527	0.9589	-0.635
Mof_O 	O 	0.7131	0.9377	0.8917	-0.635
Mof_O 	O 	0.9802	0.9944	0.1658	-0.304
Mof_O 	O 	0.7294	0.0088	0.1806	-0.531
Mof_O 	O 	0.8632	0.022	0.2297	-0.557
Mof_C 	C 	0.7745	0.9739	0.0073	-0.269
Mof_C 	C 	0.8583	0.9675	0.0037	0.068
Mof_C 	C 	0.924	0.9744	0.0561	-0.027
Mof_C 	C 	0.9117	0.9877	0.1166	0.24
Mof_C 	C 	0.8278	0.9915	0.1198	-0.193
Mof_C 	C 	0.7602	0.9843	0.0655	0.061
Mof_C 	C 	0.8054	0.0071	0.1793	0.367
Mof_O 	O 	0.3169	0.1948	0.1838	-0.546
Mof_Na	Na	0.7304	0.7179	0.072	1.987
Mof_O 	O 	0.8336	0.7969	0.0456	-0.672
Mof_La	La	0.7405	0.5758	0.2095	1.664
Mof_S 	S 	0.3999	0.7114	0.9084	0.221
Mof_O 	O 	0.3396	0.6608	0.8687	-0.246
Mof_O 	O 	0.4843	0.7064	0.901	-0.252
Mof_O 	O 	0.415	0.6544	0.1744	-0.513
Mof_O 	O 	0.6411	0.6547	0.1162	-0.768
Mof_O 	O 	0.5866	0.6322	0.1936	-0.691
Mof_C 	C 	0.4066	0.6898	0.9875	-0.032
Mof_C 	C 	0.3339	0.6866	0.0066	-0.011
Mof_C 	C 	0.3365	0.6735	0.068	-0.127
Mof_C 	C 	0.4156	0.6639	0.1144	0.281
Mof_C 	C 	0.4895	0.6659	0.0947	-0.313
Mof_C 	C 	0.4834	0.6802	0.0305	-0.004
Mof_C 	C 	0.5759	0.6511	0.1367	0.545
Mof_S 	S 	0.1868	0.468	0.9404	0.695
Mof_O 	O 	0.1723	0.5533	0.918	-0.339
Mof_O 	O 	0.1157	0.4527	0.9589	-0.639
Mof_O 	O 	0.2131	0.4377	0.8917	-0.632
Mof_O 	O 	0.4802	0.4944	0.1658	-0.488
Mof_O 	O 	0.2294	0.5088	0.1806	-0.547
Mof_O 	O 	0.3632	0.522	0.2297	-0.648
Mof_C 	C 	0.2745	0.4739	0.0073	-0.28
Mof_C 	C 	0.3583	0.4675	0.0037	0.053
Mof_C 	C 	0.424	0.4744	0.0561	-0.125
Mof_C 	C 	0.4117	0.4877	0.1166	0.294
Mof_C 	C 	0.3278	0.4915	0.1198	-0.301
Mof_C 	C 	0.2602	0.4843	0.0655	0.063
Mof_C 	C 	0.3054	0.5071	0.1793	0.464
Mof_O 	O 	0.8169	0.6948	0.1838	-0.531
Mof_Na	Na	0.7696	0.2179	0.428	2.103
Mof_O 	O 	0.6664	0.2969	0.4544	-0.698
Mof_La	La	0.7595	0.0758	0.2905	1.595
Mof_S 	S 	0.1001	0.2114	0.5916	0.218
Mof_O 	O 	0.1604	0.1608	0.6313	-0.277
Mof_O 	O 	0.0157	0.2064	0.599	-0.331
Mof_O 	O 	0.085	0.1544	0.3256	-0.502
Mof_O 	O 	0.8589	0.1547	0.3838	-0.784
Mof_O 	O 	0.9134	0.1322	0.3064	-0.619
Mof_C 	C 	0.0934	0.1898	0.5125	-0.135
Mof_C 	C 	0.1661	0.1866	0.4934	0.054
Mof_C 	C 	0.1635	0.1735	0.432	-0.165
Mof_C 	C 	0.0844	0.1639	0.3856	0.316
Mof_C 	C 	0.0105	0.1659	0.4053	-0.477
Mof_C 	C 	0.0166	0.1802	0.4695	0.023
Mof_C 	C 	0.9241	0.1511	0.3633	0.694
Mof_S 	S 	0.3132	0.968	0.5596	0.727
Mof_O 	O 	0.3277	0.0533	0.582	-0.386
Mof_O 	O 	0.3843	0.9527	0.5411	-0.654
Mof_O 	O 	0.2869	0.9377	0.6083	-0.629
Mof_O 	O 	0.0198	0.9944	0.3342	-0.459
Mof_O 	O 	0.2706	0.0088	0.3194	-0.537
Mof_O 	O 	0.1368	0.022	0.2703	-0.618
Mof_C 	C 	0.2255	0.9739	0.4927	-0.253
Mof_C 	C 	0.1417	0.9675	0.4963	0.062
Mof_C 	C 	0.076	0.9744	0.4439	-0.15
Mof_C 	C 	0.0883	0.9877	0.3834	0.275
Mof_C 	C 	0.1722	0.9915	0.3802	-0.231
Mof_C 	C 	0.2398	0.9843	0.4345	0.069
Mof_C 	C 	0.1946	0.0071	0.3207	0.387
Mof_O 	O 	0.6831	0.1948	0.3162	-0.569
Mof_Na	Na	0.2696	0.7179	0.428	1.998
Mof_O 	O 	0.1664	0.7969	0.4544	-0.712
Mof_La	La	0.2595	0.5758	0.2905	1.578
Mof_S 	S 	0.6001	0.7114	0.5916	0.235
Mof_O 	O 	0.6604	0.6608	0.6313	-0.245
Mof_O 	O 	0.5157	0.7064	0.599	-0.26
Mof_O 	O 	0.585	0.6544	0.3256	-0.514
Mof_O 	O 	0.3589	0.6547	0.3838	-0.763
Mof_O 	O 	0.4134	0.6322	0.3064	-0.688
Mof_C 	C 	0.5934	0.6898	0.5125	-0.124
Mof_C 	C 	0.6661	0.6866	0.4934	0.062
Mof_C 	C 	0.6635	0.6735	0.432	-0.138
Mof_C 	C 	0.5844	0.6639	0.3856	0.298
Mof_C 	C 	0.5105	0.6659	0.4053	-0.337
Mof_C 	C 	0.5166	0.6802	0.4695	0.06
Mof_C 	C 	0.4241	0.6511	0.3633	0.553
Mof_S 	S 	0.8132	0.468	0.5596	0.662
Mof_O 	O 	0.8277	0.5533	0.582	-0.303
Mof_O 	O 	0.8843	0.4527	0.5411	-0.574
Mof_O 	O 	0.7869	0.4377	0.6083	-0.612
Mof_O 	O 	0.5198	0.4944	0.3342	-0.486
Mof_O 	O 	0.7706	0.5088	0.3194	-0.512
Mof_O 	O 	0.6368	0.522	0.2703	-0.65
Mof_C 	C 	0.7255	0.4739	0.4927	-0.252
Mof_C 	C 	0.6417	0.4675	0.4963	0.064
Mof_C 	C 	0.576	0.4744	0.4439	-0.117
Mof_C 	C 	0.5883	0.4877	0.3834	0.292
Mof_C 	C 	0.6722	0.4915	0.3802	-0.299
Mof_C 	C 	0.7398	0.4843	0.4345	0.086
Mof_C 	C 	0.6946	0.5071	0.3207	0.462
Mof_O 	O 	0.1831	0.6948	0.3162	-0.582
Mof_Na	Na	0.7696	0.7821	0.928	2.163
Mof_O 	O 	0.6664	0.7031	0.9544	-0.687
Mof_La	La	0.7595	0.9242	0.7905	1.684
Mof_S 	S 	0.1001	0.7886	0.0916	0.234
Mof_O 	O 	0.1604	0.8392	0.1313	-0.26
Mof_O 	O 	0.0157	0.7936	0.099	-0.335
Mof_O 	O 	0.085	0.8456	0.8256	-0.519
Mof_O 	O 	0.8589	0.8453	0.8838	-0.798
Mof_O 	O 	0.9134	0.8678	0.8064	-0.641
Mof_C 	C 	0.0934	0.8102	0.0125	-0.22
Mof_C 	C 	0.1661	0.8134	0.9934	0.134
Mof_C 	C 	0.1635	0.8265	0.932	-0.169
Mof_C 	C 	0.0844	0.8361	0.8856	0.35
Mof_C 	C 	0.0105	0.8341	0.9053	-0.499
Mof_C 	C 	0.0166	0.8198	0.9695	0.096
Mof_C 	C 	0.9241	0.8489	0.8633	0.719
Mof_S 	S 	0.3132	0.032	0.0596	0.577
Mof_O 	O 	0.3277	0.9467	0.082	-0.291
Mof_O 	O 	0.3843	0.0473	0.0411	-0.652
Mof_O 	O 	0.2869	0.0623	0.1083	-0.609
Mof_O 	O 	0.0198	0.0056	0.8342	-0.547
Mof_O 	O 	0.2706	0.9912	0.8194	-0.527
Mof_O 	O 	0.1368	0.978	0.7703	-0.63
Mof_C 	C 	0.2255	0.0261	0.9927	-0.218
Mof_C 	C 	0.1417	0.0325	0.9963	0.058
Mof_C 	C 	0.076	0.0256	0.9439	-0.186
Mof_C 	C 	0.0883	0.0123	0.8834	0.306
Mof_C 	C 	0.1722	0.0085	0.8802	-0.352
Mof_C 	C 	0.2398	0.0157	0.9345	0.059
Mof_C 	C 	0.1946	0.9929	0.8207	0.507
Mof_O 	O 	0.6831	0.8052	0.8162	-0.576
Mof_Na	Na	0.2696	0.2821	0.928	2.055
Mof_O 	O 	0.1664	0.2031	0.9544	-0.696
Mof_La	La	0.2595	0.4242	0.7905	1.579
Mof_S 	S 	0.6001	0.2886	0.0916	0.245
Mof_O 	O 	0.6604	0.3392	0.1313	-0.251
Mof_O 	O 	0.5157	0.2936	0.099	-0.27
Mof_O 	O 	0.585	0.3456	0.8256	-0.521
Mof_O 	O 	0.3589	0.3453	0.8838	-0.772
Mof_O 	O 	0.4134	0.3678	0.8064	-0.694
Mof_C 	C 	0.5934	0.3102	0.0125	-0.222
Mof_C 	C 	0.6661	0.3134	0.9934	0.134
Mof_C 	C 	0.6635	0.3265	0.932	-0.16
Mof_C 	C 	0.5844	0.3361	0.8856	0.318
Mof_C 	C 	0.5105	0.3341	0.9053	-0.367
Mof_C 	C 	0.5166	0.3198	0.9695	0.128
Mof_C 	C 	0.4241	0.3489	0.8633	0.565
Mof_S 	S 	0.8132	0.532	0.0596	0.627
Mof_O 	O 	0.8277	0.4467	0.082	-0.305
Mof_O 	O 	0.8843	0.5473	0.0411	-0.564
Mof_O 	O 	0.7869	0.5623	0.1083	-0.606
Mof_O 	O 	0.5198	0.5056	0.8342	-0.485
Mof_O 	O 	0.7706	0.4912	0.8194	-0.508
Mof_O 	O 	0.6368	0.478	0.7703	-0.65
Mof_C 	C 	0.7255	0.5261	0.9927	-0.225
Mof_C 	C 	0.6417	0.5325	0.9963	0.075
Mof_C 	C 	0.576	0.5256	0.9439	-0.11
Mof_C 	C 	0.5883	0.5123	0.8834	0.291
Mof_C 	C 	0.6722	0.5085	0.8802	-0.297
Mof_C 	C 	0.7398	0.5157	0.9345	0.09
Mof_C 	C 	0.6946	0.4929	0.8207	0.462
Mof_O 	O 	0.1831	0.3052	0.8162	-0.591
Mof_Na	Na	0.2304	0.7821	0.572	1.921
Mof_O 	O 	0.3336	0.7031	0.5456	-0.678
Mof_La	La	0.2405	0.9242	0.7095	1.631
Mof_S 	S 	0.8999	0.7886	0.4084	0.252
Mof_O 	O 	0.8396	0.8392	0.3687	-0.221
Mof_O 	O 	0.9843	0.7936	0.401	-0.184
Mof_O 	O 	0.915	0.8456	0.6744	-0.415
Mof_O 	O 	0.1411	0.8453	0.6162	-0.737
Mof_O 	O 	0.0866	0.8678	0.6936	-0.649
Mof_C 	C 	0.9066	0.8102	0.4875	-0.101
Mof_C 	C 	0.8339	0.8134	0.5066	0.056
Mof_C 	C 	0.8365	0.8265	0.568	-0.111
Mof_C 	C 	0.9156	0.8361	0.6144	0.247
Mof_C 	C 	0.9895	0.8341	0.5947	-0.158
Mof_C 	C 	0.9834	0.8198	0.5305	0.087
Mof_C 	C 	0.0759	0.8489	0.6367	0.373
Mof_S 	S 	0.6868	0.032	0.4404	0.625
Mof_O 	O 	0.6723	0.9467	0.418	-0.289
Mof_O 	O 	0.6157	0.0473	0.4589	-0.667
Mof_O 	O 	0.7131	0.0623	0.3917	-0.623
Mof_O 	O 	0.9802	0.0056	0.6658	-0.398
Mof_O 	O 	0.7294	0.9912	0.6806	-0.526
Mof_O 	O 	0.8632	0.978	0.7297	-0.571
Mof_C 	C 	0.7745	0.0261	0.5073	-0.251
Mof_C 	C 	0.8583	0.0325	0.5037	0.062
Mof_C 	C 	0.924	0.0256	0.5561	-0.07
Mof_C 	C 	0.9117	0.0123	0.6166	0.273
Mof_C 	C 	0.8278	0.0085	0.6198	-0.322
Mof_C 	C 	0.7602	0.0157	0.5655	0.044
Mof_C 	C 	0.8054	0.9929	0.6793	0.495
Mof_O 	O 	0.3169	0.8052	0.6838	-0.556
Mof_Na	Na	0.7304	0.2821	0.572	2.021
Mof_O 	O 	0.8336	0.2031	0.5456	-0.661
Mof_La	La	0.7405	0.4242	0.7095	1.667
Mof_S 	S 	0.3999	0.2886	0.4084	0.226
Mof_O 	O 	0.3396	0.3392	0.3687	-0.252
Mof_O 	O 	0.4843	0.2936	0.401	-0.263
Mof_O 	O 	0.415	0.3456	0.6744	-0.52
Mof_O 	O 	0.6411	0.3453	0.6162	-0.774
Mof_O 	O 	0.5866	0.3678	0.6936	-0.696
Mof_C 	C 	0.4066	0.3102	0.4875	-0.123
Mof_C 	C 	0.3339	0.3134	0.5066	0.054
Mof_C 	C 	0.3365	0.3265	0.568	-0.149
Mof_C 	C 	0.4156	0.3361	0.6144	0.298
Mof_C 	C 	0.4895	0.3341	0.5947	-0.341
Mof_C 	C 	0.4834	0.3198	0.5305	0.056
Mof_C 	C 	0.5759	0.3489	0.6367	0.553
Mof_S 	S 	0.1868	0.532	0.4404	0.667
Mof_O 	O 	0.1723	0.4467	0.418	-0.35
Mof_O 	O 	0.1157	0.5473	0.4589	-0.663
Mof_O 	O 	0.2131	0.5623	0.3917	-0.63
Mof_O 	O 	0.4802	0.5056	0.6658	-0.487
Mof_O 	O 	0.2294	0.4912	0.6806	-0.548
Mof_O 	O 	0.3632	0.478	0.7297	-0.648
Mof_C 	C 	0.2745	0.5261	0.5073	-0.253
Mof_C 	C 	0.3583	0.5325	0.5037	0.065
Mof_C 	C 	0.424	0.5256	0.5561	-0.118
Mof_C 	C 	0.4117	0.5123	0.6166	0.292
Mof_C 	C 	0.3278	0.5085	0.6198	-0.299
Mof_C 	C 	0.2602	0.5157	0.5655	0.06
Mof_C 	C 	0.3054	0.4929	0.6793	0.464
Mof_O 	O 	0.8169	0.3052	0.6838	-0.541
Mof_Na	Na	0.5	0	-0	1.355
Mof_Na	Na	-0	0.5	-0	1.143
Mof_Na	Na	0.5	-7.94007e-33	0.5	1.446
Mof_Na	Na	-3.57589e-17	0.5	0.5	1.226
Mof_Tb	Tb	1.62023e-33	0.0769	0.25	1.911
Mof_Tb	Tb	0.5	0.5769	0.25	2.454
Mof_Tb	Tb	4.8607e-33	0.9231	0.75	2.112
Mof_Tb	Tb	0.5	0.4231	0.75	2.456
_end
