data_functionalizedCrystal
_audit_creation_method	'EQeq! by Chris Wilmer'
_symmetry_space_group_name_H-M	'P1'
_symmetry_Int_Tables_number	1
_symmetry_cell_setting	triclinic
loop_
_symmetry_equiv_pos_as_xyz
  x,y,z
_cell_length_a	30.2922
_cell_length_b	30.2922
_cell_length_c	29.597
_cell_angle_alpha	90
_cell_angle_beta	90
_cell_angle_gamma	90
loop_
_atom_site_label
_atom_site_type_symbol
_atom_site_fract_x
_atom_site_fract_y
_atom_site_fract_z
_atom_site_charge
Mof_O 	O 	0.1876	0.1241	0.1654	-0.397
Mof_O 	O 	0.2259	0.1638	0.2193	-0.41
Mof_O 	O 	0.26617	0.0448	0.04503	-0.441
Mof_O 	O 	0.34249	0.0464	0.04678	-0.413
Mof_O 	O 	0.1433	0.07966	0.2342	-0.407
Mof_O 	O 	0.1831	0.1188	0.2851	-0.401
Mof_C 	C 	0.2205	0.1393	0.1874	0.354
Mof_C 	C 	0.3026	0.0531	0.0573	0.364
Mof_C 	C 	0.2631	0.129	0.1592	-0.097
Mof_C 	C 	0.2645	0.1005	0.1182	0.083
Mof_C 	C 	0.3036	0.0902	0.0962	-0.094
Mof_C 	C 	0.3427	0.1088	0.1132	0.053
Mof_C 	C 	0.3424	0.1419	0.1499	-0.033
Mof_C 	C 	0.3024	0.1482	0.1705	0.061
Mof_C 	C 	0.3854	0.1604	0.1652	-0.001
Mof_C 	C 	0.4603	0.2096	0.1839	0.128
Mof_C 	C 	0.1698	0.0832	0.266	0.351
Mof_C 	C 	0.1822	0.0379	0.289	-0.107
Mof_C 	C 	0.2124	0.0428	0.3265	0.054
Mof_C 	C 	0.251	0.9684	0.4188	0.024
Mof_C 	C 	0.2784	0.9689	0.4568	-0.007
Mof_C 	C 	0.3196	0.0296	0.4255	-0.019
Mof_C 	C 	0.293	0.0297	0.388	0.01
Mof_C 	C 	0.4268	0.1399	0.1668	0.005
Mof_C 	C 	0.4646	0.1653	0.1764	-0.013
Mof_C 	C 	0.4205	0.2309	0.1828	-0.027
Mof_C 	C 	0.3814	0.2053	0.173	0.013
Mof_C 	C 	0.41	0.1772	0.1298	0.008
Mof_C 	C 	0.4354	0.1925	0.2191	-0.001
Mof_C 	C 	0.3974	0.1678	0.2095	0.006
Mof_C 	C 	0.4487	0.2026	0.1387	-0.031
Mof_O 	O 	0.8124	0.8759	0.1654	-0.391
Mof_O 	O 	0.7741	0.8362	0.2193	-0.408
Mof_O 	O 	0.73383	0.9552	0.04503	-0.427
Mof_O 	O 	0.65751	0.9536	0.04678	-0.4
Mof_O 	O 	0.8567	0.92034	0.2342	-0.395
Mof_O 	O 	0.8169	0.8812	0.2851	-0.397
Mof_C 	C 	0.7795	0.8607	0.1874	0.355
Mof_C 	C 	0.6974	0.9469	0.0573	0.367
Mof_C 	C 	0.7369	0.871	0.1592	-0.095
Mof_C 	C 	0.7355	0.8995	0.1182	0.09
Mof_C 	C 	0.6964	0.9098	0.0962	-0.093
Mof_C 	C 	0.6573	0.8912	0.1132	0.057
Mof_C 	C 	0.6576	0.8581	0.1499	-0.032
Mof_C 	C 	0.6976	0.8518	0.1705	0.062
Mof_C 	C 	0.6146	0.8396	0.1652	-0.002
Mof_C 	C 	0.5397	0.7904	0.1839	0.127
Mof_C 	C 	0.8302	0.9168	0.266	0.349
Mof_C 	C 	0.8178	0.9621	0.289	-0.088
Mof_C 	C 	0.7876	0.9572	0.3265	0.067
Mof_C 	C 	0.749	0.0316	0.4188	0.012
Mof_C 	C 	0.7216	0.0311	0.4568	-0.02
Mof_C 	C 	0.6804	0.9704	0.4255	-0.002
Mof_C 	C 	0.707	0.9703	0.388	0.026
Mof_C 	C 	0.5732	0.8601	0.1668	0.01
Mof_C 	C 	0.5354	0.8347	0.1764	-0.012
Mof_C 	C 	0.5795	0.7691	0.1828	-0.026
Mof_C 	C 	0.6186	0.7947	0.173	0.013
Mof_C 	C 	0.59	0.8228	0.1298	0.009
Mof_C 	C 	0.5646	0.8075	0.2191	0.001
Mof_C 	C 	0.6026	0.8322	0.2095	0.009
Mof_C 	C 	0.5513	0.7974	0.1387	-0.03
Mof_O 	O 	0.8759	0.1876	0.1654	-0.392
Mof_O 	O 	0.8362	0.2259	0.2193	-0.408
Mof_O 	O 	0.9552	0.26617	0.04503	-0.428
Mof_O 	O 	0.9536	0.34249	0.04678	-0.4
Mof_O 	O 	0.92034	0.1433	0.2342	-0.398
Mof_O 	O 	0.8812	0.1831	0.2851	-0.398
Mof_C 	C 	0.8607	0.2205	0.1874	0.356
Mof_C 	C 	0.9469	0.3026	0.0573	0.367
Mof_C 	C 	0.871	0.2631	0.1592	-0.095
Mof_C 	C 	0.8995	0.2645	0.1182	0.089
Mof_C 	C 	0.9098	0.3036	0.0962	-0.093
Mof_C 	C 	0.8912	0.3427	0.1132	0.057
Mof_C 	C 	0.8581	0.3424	0.1499	-0.032
Mof_C 	C 	0.8518	0.3024	0.1705	0.062
Mof_C 	C 	0.8396	0.3854	0.1652	-0.002
Mof_C 	C 	0.7904	0.4603	0.1839	0.127
Mof_C 	C 	0.9168	0.1698	0.266	0.349
Mof_C 	C 	0.9621	0.1822	0.289	-0.089
Mof_C 	C 	0.9572	0.2124	0.3265	0.066
Mof_C 	C 	0.0316	0.251	0.4188	0.01
Mof_C 	C 	0.0311	0.2784	0.4568	-0.02
Mof_C 	C 	0.9704	0.3196	0.4255	-0.002
Mof_C 	C 	0.9703	0.293	0.388	0.026
Mof_C 	C 	0.8601	0.4268	0.1668	0.01
Mof_C 	C 	0.8347	0.4646	0.1764	-0.012
Mof_C 	C 	0.7691	0.4205	0.1828	-0.026
Mof_C 	C 	0.7947	0.3814	0.173	0.013
Mof_C 	C 	0.8228	0.41	0.1298	0.009
Mof_C 	C 	0.8075	0.4354	0.2191	0.001
Mof_C 	C 	0.8322	0.3974	0.2095	0.009
Mof_C 	C 	0.7974	0.4487	0.1387	-0.03
Mof_O 	O 	0.1241	0.8124	0.1654	-0.394
Mof_O 	O 	0.1638	0.7741	0.2193	-0.409
Mof_O 	O 	0.0448	0.73383	0.04503	-0.439
Mof_O 	O 	0.0464	0.65751	0.04678	-0.411
Mof_O 	O 	0.07966	0.8567	0.2342	-0.403
Mof_O 	O 	0.1188	0.8169	0.2851	-0.399
Mof_C 	C 	0.1393	0.7795	0.1874	0.355
Mof_C 	C 	0.0531	0.6974	0.0573	0.365
Mof_C 	C 	0.129	0.7369	0.1592	-0.096
Mof_C 	C 	0.1005	0.7355	0.1182	0.085
Mof_C 	C 	0.0902	0.6964	0.0962	-0.094
Mof_C 	C 	0.1088	0.6573	0.1132	0.053
Mof_C 	C 	0.1419	0.6576	0.1499	-0.033
Mof_C 	C 	0.1482	0.6976	0.1705	0.061
Mof_C 	C 	0.1604	0.6146	0.1652	-0.001
Mof_C 	C 	0.2096	0.5397	0.1839	0.128
Mof_C 	C 	0.0832	0.8302	0.266	0.351
Mof_C 	C 	0.0379	0.8178	0.289	-0.106
Mof_C 	C 	0.0428	0.7876	0.3265	0.055
Mof_C 	C 	0.9684	0.749	0.4188	0.026
Mof_C 	C 	0.9689	0.7216	0.4568	-0.007
Mof_C 	C 	0.0296	0.6804	0.4255	-0.019
Mof_C 	C 	0.0297	0.707	0.388	0.01
Mof_C 	C 	0.1399	0.5732	0.1668	0.005
Mof_C 	C 	0.1653	0.5354	0.1764	-0.013
Mof_C 	C 	0.2309	0.5795	0.1828	-0.026
Mof_C 	C 	0.2053	0.6186	0.173	0.013
Mof_C 	C 	0.1772	0.59	0.1298	0.008
Mof_C 	C 	0.1925	0.5646	0.2191	-0.001
Mof_C 	C 	0.1678	0.6026	0.2095	0.006
Mof_C 	C 	0.2026	0.5513	0.1387	-0.031
Mof_O 	O 	0.8124	0.1241	0.8346	-0.388
Mof_O 	O 	0.7741	0.1638	0.7807	-0.408
Mof_O 	O 	0.73383	0.0448	0.95497	-0.41
Mof_O 	O 	0.65751	0.0464	0.95322	-0.384
Mof_O 	O 	0.8567	0.07966	0.7658	-0.401
Mof_O 	O 	0.8169	0.1188	0.7149	-0.399
Mof_C 	C 	0.7795	0.1393	0.8126	0.355
Mof_C 	C 	0.6974	0.0531	0.9427	0.364
Mof_C 	C 	0.7369	0.129	0.8408	-0.095
Mof_C 	C 	0.7355	0.1005	0.8818	0.092
Mof_C 	C 	0.6964	0.0902	0.9038	-0.089
Mof_C 	C 	0.6573	0.1088	0.8868	0.061
Mof_C 	C 	0.6576	0.1419	0.8501	-0.03
Mof_C 	C 	0.6976	0.1482	0.8295	0.063
Mof_C 	C 	0.6146	0.1604	0.8348	-0.005
Mof_C 	C 	0.5397	0.2096	0.8161	0.125
Mof_C 	C 	0.8302	0.0832	0.734	0.351
Mof_C 	C 	0.8178	0.0379	0.711	-0.106
Mof_C 	C 	0.7876	0.0428	0.6735	0.055
Mof_C 	C 	0.749	0.9684	0.5812	0.025
Mof_C 	C 	0.7216	0.9689	0.5432	-0.007
Mof_C 	C 	0.6804	0.0296	0.5745	-0.019
Mof_C 	C 	0.707	0.0297	0.612	0.01
Mof_C 	C 	0.5732	0.1399	0.8332	0.009
Mof_C 	C 	0.5354	0.1653	0.8236	-0.012
Mof_C 	C 	0.5795	0.2309	0.8172	-0.021
Mof_C 	C 	0.6186	0.2053	0.827	0.017
Mof_C 	C 	0.59	0.1772	0.8702	0.019
Mof_C 	C 	0.5646	0.1925	0.7809	-0
Mof_C 	C 	0.6026	0.1678	0.7905	0.007
Mof_C 	C 	0.5513	0.2026	0.8613	-0.021
Mof_O 	O 	0.1876	0.8759	0.8346	-0.387
Mof_O 	O 	0.2259	0.8362	0.7807	-0.407
Mof_O 	O 	0.26617	0.9552	0.95497	-0.4
Mof_O 	O 	0.34249	0.9536	0.95322	-0.373
Mof_O 	O 	0.1433	0.92034	0.7658	-0.396
Mof_O 	O 	0.1831	0.8812	0.7149	-0.398
Mof_C 	C 	0.2205	0.8607	0.8126	0.356
Mof_C 	C 	0.3026	0.9469	0.9427	0.365
Mof_C 	C 	0.2631	0.871	0.8408	-0.094
Mof_C 	C 	0.2645	0.8995	0.8818	0.096
Mof_C 	C 	0.3036	0.9098	0.9038	-0.088
Mof_C 	C 	0.3427	0.8912	0.8868	0.065
Mof_C 	C 	0.3424	0.8581	0.8501	-0.029
Mof_C 	C 	0.3024	0.8518	0.8295	0.064
Mof_C 	C 	0.3854	0.8396	0.8348	-0.006
Mof_C 	C 	0.4603	0.7904	0.8161	0.124
Mof_C 	C 	0.1698	0.9168	0.734	0.349
Mof_C 	C 	0.1822	0.9621	0.711	-0.089
Mof_C 	C 	0.2124	0.9572	0.6735	0.066
Mof_C 	C 	0.251	0.0316	0.5812	0.01
Mof_C 	C 	0.2784	0.0311	0.5432	-0.02
Mof_C 	C 	0.3196	0.9704	0.5745	-0.002
Mof_C 	C 	0.293	0.9703	0.612	0.025
Mof_C 	C 	0.4268	0.8601	0.8332	0.013
Mof_C 	C 	0.4646	0.8347	0.8236	-0.011
Mof_C 	C 	0.4205	0.7691	0.8172	-0.021
Mof_C 	C 	0.3814	0.7947	0.827	0.017
Mof_C 	C 	0.41	0.8228	0.8702	0.019
Mof_C 	C 	0.4354	0.8075	0.7809	0.001
Mof_C 	C 	0.3974	0.8322	0.7905	0.009
Mof_C 	C 	0.4487	0.7974	0.8613	-0.021
Mof_O 	O 	0.1241	0.1876	0.8346	-0.39
Mof_O 	O 	0.1638	0.2259	0.7807	-0.408
Mof_O 	O 	0.0448	0.26617	0.95497	-0.411
Mof_O 	O 	0.0464	0.34249	0.95322	-0.384
Mof_O 	O 	0.07966	0.1433	0.7658	-0.404
Mof_O 	O 	0.1188	0.1831	0.7149	-0.4
Mof_C 	C 	0.1393	0.2205	0.8126	0.355
Mof_C 	C 	0.0531	0.3026	0.9427	0.364
Mof_C 	C 	0.129	0.2631	0.8408	-0.095
Mof_C 	C 	0.1005	0.2645	0.8818	0.091
Mof_C 	C 	0.0902	0.3036	0.9038	-0.089
Mof_C 	C 	0.1088	0.3427	0.8868	0.061
Mof_C 	C 	0.1419	0.3424	0.8501	-0.03
Mof_C 	C 	0.1482	0.3024	0.8295	0.063
Mof_C 	C 	0.1604	0.3854	0.8348	-0.005
Mof_C 	C 	0.2096	0.4603	0.8161	0.125
Mof_C 	C 	0.0832	0.1698	0.734	0.351
Mof_C 	C 	0.0379	0.1822	0.711	-0.107
Mof_C 	C 	0.0428	0.2124	0.6735	0.054
Mof_C 	C 	0.9684	0.251	0.5812	0.024
Mof_C 	C 	0.9689	0.2784	0.5432	-0.007
Mof_C 	C 	0.0296	0.3196	0.5745	-0.019
Mof_C 	C 	0.0297	0.293	0.612	0.01
Mof_C 	C 	0.1399	0.4268	0.8332	0.009
Mof_C 	C 	0.1653	0.4646	0.8236	-0.012
Mof_C 	C 	0.2309	0.4205	0.8172	-0.021
Mof_C 	C 	0.2053	0.3814	0.827	0.017
Mof_C 	C 	0.1772	0.41	0.8702	0.019
Mof_C 	C 	0.1925	0.4354	0.7809	-0
Mof_C 	C 	0.1678	0.3974	0.7905	0.007
Mof_C 	C 	0.2026	0.4487	0.8613	-0.021
Mof_O 	O 	0.8759	0.8124	0.8346	-0.385
Mof_O 	O 	0.8362	0.7741	0.7807	-0.407
Mof_O 	O 	0.9552	0.73383	0.95497	-0.399
Mof_O 	O 	0.9536	0.65751	0.95322	-0.373
Mof_O 	O 	0.92034	0.8567	0.7658	-0.393
Mof_O 	O 	0.8812	0.8169	0.7149	-0.397
Mof_C 	C 	0.8607	0.7795	0.8126	0.355
Mof_C 	C 	0.9469	0.6974	0.9427	0.365
Mof_C 	C 	0.871	0.7369	0.8408	-0.094
Mof_C 	C 	0.8995	0.7355	0.8818	0.097
Mof_C 	C 	0.9098	0.6964	0.9038	-0.088
Mof_C 	C 	0.8912	0.6573	0.8868	0.065
Mof_C 	C 	0.8581	0.6576	0.8501	-0.029
Mof_C 	C 	0.8518	0.6976	0.8295	0.064
Mof_C 	C 	0.8396	0.6146	0.8348	-0.006
Mof_C 	C 	0.7904	0.5397	0.8161	0.124
Mof_C 	C 	0.9168	0.8302	0.734	0.349
Mof_C 	C 	0.9621	0.8178	0.711	-0.089
Mof_C 	C 	0.9572	0.7876	0.6735	0.067
Mof_C 	C 	0.0316	0.749	0.5812	0.011
Mof_C 	C 	0.0311	0.7216	0.5432	-0.02
Mof_C 	C 	0.9704	0.6804	0.5745	-0.002
Mof_C 	C 	0.9703	0.707	0.612	0.025
Mof_C 	C 	0.8601	0.5732	0.8332	0.013
Mof_C 	C 	0.8347	0.5354	0.8236	-0.011
Mof_C 	C 	0.7691	0.5795	0.8172	-0.021
Mof_C 	C 	0.7947	0.6186	0.827	0.017
Mof_C 	C 	0.8228	0.59	0.8702	0.019
Mof_C 	C 	0.8075	0.5646	0.7809	0.001
Mof_C 	C 	0.8322	0.6026	0.7905	0.009
Mof_C 	C 	0.7974	0.5513	0.8613	-0.021
Mof_O 	O 	0.8124	0.8759	0.8346	-0.385
Mof_O 	O 	0.7741	0.8362	0.7807	-0.407
Mof_O 	O 	0.73383	0.9552	0.95497	-0.399
Mof_O 	O 	0.65751	0.9536	0.95322	-0.373
Mof_O 	O 	0.8567	0.92034	0.7658	-0.393
Mof_O 	O 	0.8169	0.8812	0.7149	-0.397
Mof_C 	C 	0.7795	0.8607	0.8126	0.355
Mof_C 	C 	0.6974	0.9469	0.9427	0.365
Mof_C 	C 	0.7369	0.871	0.8408	-0.094
Mof_C 	C 	0.7355	0.8995	0.8818	0.097
Mof_C 	C 	0.6964	0.9098	0.9038	-0.088
Mof_C 	C 	0.6573	0.8912	0.8868	0.065
Mof_C 	C 	0.6576	0.8581	0.8501	-0.029
Mof_C 	C 	0.6976	0.8518	0.8295	0.064
Mof_C 	C 	0.6146	0.8396	0.8348	-0.006
Mof_C 	C 	0.5397	0.7904	0.8161	0.124
Mof_C 	C 	0.8302	0.9168	0.734	0.349
Mof_C 	C 	0.8178	0.9621	0.711	-0.089
Mof_C 	C 	0.7876	0.9572	0.6735	0.067
Mof_C 	C 	0.749	0.0316	0.5812	0.011
Mof_C 	C 	0.7216	0.0311	0.5432	-0.02
Mof_C 	C 	0.6804	0.9704	0.5745	-0.002
Mof_C 	C 	0.707	0.9703	0.612	0.025
Mof_C 	C 	0.5732	0.8601	0.8332	0.013
Mof_C 	C 	0.5354	0.8347	0.8236	-0.011
Mof_C 	C 	0.5795	0.7691	0.8172	-0.021
Mof_C 	C 	0.6186	0.7947	0.827	0.017
Mof_C 	C 	0.59	0.8228	0.8702	0.019
Mof_C 	C 	0.5646	0.8075	0.7809	0.001
Mof_C 	C 	0.6026	0.8322	0.7905	0.009
Mof_C 	C 	0.5513	0.7974	0.8613	-0.021
Mof_O 	O 	0.1876	0.1241	0.8346	-0.39
Mof_O 	O 	0.2259	0.1638	0.7807	-0.408
Mof_O 	O 	0.26617	0.0448	0.95497	-0.411
Mof_O 	O 	0.34249	0.0464	0.95322	-0.384
Mof_O 	O 	0.1433	0.07966	0.7658	-0.404
Mof_O 	O 	0.1831	0.1188	0.7149	-0.4
Mof_C 	C 	0.2205	0.1393	0.8126	0.355
Mof_C 	C 	0.3026	0.0531	0.9427	0.364
Mof_C 	C 	0.2631	0.129	0.8408	-0.095
Mof_C 	C 	0.2645	0.1005	0.8818	0.091
Mof_C 	C 	0.3036	0.0902	0.9038	-0.089
Mof_C 	C 	0.3427	0.1088	0.8868	0.061
Mof_C 	C 	0.3424	0.1419	0.8501	-0.03
Mof_C 	C 	0.3024	0.1482	0.8295	0.063
Mof_C 	C 	0.3854	0.1604	0.8348	-0.005
Mof_C 	C 	0.4603	0.2096	0.8161	0.125
Mof_C 	C 	0.1698	0.0832	0.734	0.351
Mof_C 	C 	0.1822	0.0379	0.711	-0.107
Mof_C 	C 	0.2124	0.0428	0.6735	0.054
Mof_C 	C 	0.251	0.9684	0.5812	0.024
Mof_C 	C 	0.2784	0.9689	0.5432	-0.007
Mof_C 	C 	0.3196	0.0296	0.5745	-0.019
Mof_C 	C 	0.293	0.0297	0.612	0.01
Mof_C 	C 	0.4268	0.1399	0.8332	0.009
Mof_C 	C 	0.4646	0.1653	0.8236	-0.012
Mof_C 	C 	0.4205	0.2309	0.8172	-0.021
Mof_C 	C 	0.3814	0.2053	0.827	0.017
Mof_C 	C 	0.41	0.1772	0.8702	0.019
Mof_C 	C 	0.4354	0.1925	0.7809	-0
Mof_C 	C 	0.3974	0.1678	0.7905	0.007
Mof_C 	C 	0.4487	0.2026	0.8613	-0.021
Mof_O 	O 	0.1241	0.8124	0.8346	-0.388
Mof_O 	O 	0.1638	0.7741	0.7807	-0.408
Mof_O 	O 	0.0448	0.73383	0.95497	-0.41
Mof_O 	O 	0.0464	0.65751	0.95322	-0.384
Mof_O 	O 	0.07966	0.8567	0.7658	-0.401
Mof_O 	O 	0.1188	0.8169	0.7149	-0.399
Mof_C 	C 	0.1393	0.7795	0.8126	0.355
Mof_C 	C 	0.0531	0.6974	0.9427	0.364
Mof_C 	C 	0.129	0.7369	0.8408	-0.095
Mof_C 	C 	0.1005	0.7355	0.8818	0.092
Mof_C 	C 	0.0902	0.6964	0.9038	-0.089
Mof_C 	C 	0.1088	0.6573	0.8868	0.061
Mof_C 	C 	0.1419	0.6576	0.8501	-0.03
Mof_C 	C 	0.1482	0.6976	0.8295	0.063
Mof_C 	C 	0.1604	0.6146	0.8348	-0.005
Mof_C 	C 	0.2096	0.5397	0.8161	0.125
Mof_C 	C 	0.0832	0.8302	0.734	0.351
Mof_C 	C 	0.0379	0.8178	0.711	-0.106
Mof_C 	C 	0.0428	0.7876	0.6735	0.055
Mof_C 	C 	0.9684	0.749	0.5812	0.025
Mof_C 	C 	0.9689	0.7216	0.5432	-0.007
Mof_C 	C 	0.0296	0.6804	0.5745	-0.019
Mof_C 	C 	0.0297	0.707	0.612	0.01
Mof_C 	C 	0.1399	0.5732	0.8332	0.009
Mof_C 	C 	0.1653	0.5354	0.8236	-0.012
Mof_C 	C 	0.2309	0.5795	0.8172	-0.021
Mof_C 	C 	0.2053	0.6186	0.827	0.017
Mof_C 	C 	0.1772	0.59	0.8702	0.019
Mof_C 	C 	0.1925	0.5646	0.7809	-0
Mof_C 	C 	0.1678	0.6026	0.7905	0.007
Mof_C 	C 	0.2026	0.5513	0.8613	-0.021
Mof_O 	O 	0.8759	0.1876	0.8346	-0.387
Mof_O 	O 	0.8362	0.2259	0.7807	-0.407
Mof_O 	O 	0.9552	0.26617	0.95497	-0.4
Mof_O 	O 	0.9536	0.34249	0.95322	-0.373
Mof_O 	O 	0.92034	0.1433	0.7658	-0.396
Mof_O 	O 	0.8812	0.1831	0.7149	-0.398
Mof_C 	C 	0.8607	0.2205	0.8126	0.356
Mof_C 	C 	0.9469	0.3026	0.9427	0.365
Mof_C 	C 	0.871	0.2631	0.8408	-0.094
Mof_C 	C 	0.8995	0.2645	0.8818	0.096
Mof_C 	C 	0.9098	0.3036	0.9038	-0.088
Mof_C 	C 	0.8912	0.3427	0.8868	0.065
Mof_C 	C 	0.8581	0.3424	0.8501	-0.029
Mof_C 	C 	0.8518	0.3024	0.8295	0.064
Mof_C 	C 	0.8396	0.3854	0.8348	-0.006
Mof_C 	C 	0.7904	0.4603	0.8161	0.124
Mof_C 	C 	0.9168	0.1698	0.734	0.349
Mof_C 	C 	0.9621	0.1822	0.711	-0.089
Mof_C 	C 	0.9572	0.2124	0.6735	0.066
Mof_C 	C 	0.0316	0.251	0.5812	0.01
Mof_C 	C 	0.0311	0.2784	0.5432	-0.02
Mof_C 	C 	0.9704	0.3196	0.5745	-0.002
Mof_C 	C 	0.9703	0.293	0.612	0.025
Mof_C 	C 	0.8601	0.4268	0.8332	0.013
Mof_C 	C 	0.8347	0.4646	0.8236	-0.011
Mof_C 	C 	0.7691	0.4205	0.8172	-0.021
Mof_C 	C 	0.7947	0.3814	0.827	0.017
Mof_C 	C 	0.8228	0.41	0.8702	0.019
Mof_C 	C 	0.8075	0.4354	0.7809	0.001
Mof_C 	C 	0.8322	0.3974	0.7905	0.009
Mof_C 	C 	0.7974	0.4487	0.8613	-0.021
Mof_O 	O 	0.1876	0.8759	0.1654	-0.392
Mof_O 	O 	0.2259	0.8362	0.2193	-0.408
Mof_O 	O 	0.26617	0.9552	0.04503	-0.428
Mof_O 	O 	0.34249	0.9536	0.04678	-0.4
Mof_O 	O 	0.1433	0.92034	0.2342	-0.398
Mof_O 	O 	0.1831	0.8812	0.2851	-0.398
Mof_C 	C 	0.2205	0.8607	0.1874	0.356
Mof_C 	C 	0.3026	0.9469	0.0573	0.367
Mof_C 	C 	0.2631	0.871	0.1592	-0.095
Mof_C 	C 	0.2645	0.8995	0.1182	0.089
Mof_C 	C 	0.3036	0.9098	0.0962	-0.093
Mof_C 	C 	0.3427	0.8912	0.1132	0.057
Mof_C 	C 	0.3424	0.8581	0.1499	-0.032
Mof_C 	C 	0.3024	0.8518	0.1705	0.062
Mof_C 	C 	0.3854	0.8396	0.1652	-0.002
Mof_C 	C 	0.4603	0.7904	0.1839	0.127
Mof_C 	C 	0.1698	0.9168	0.266	0.349
Mof_C 	C 	0.1822	0.9621	0.289	-0.089
Mof_C 	C 	0.2124	0.9572	0.3265	0.066
Mof_C 	C 	0.251	0.0316	0.4188	0.01
Mof_C 	C 	0.2784	0.0311	0.4568	-0.02
Mof_C 	C 	0.3196	0.9704	0.4255	-0.002
Mof_C 	C 	0.293	0.9703	0.388	0.026
Mof_C 	C 	0.4268	0.8601	0.1668	0.01
Mof_C 	C 	0.4646	0.8347	0.1764	-0.012
Mof_C 	C 	0.4205	0.7691	0.1828	-0.026
Mof_C 	C 	0.3814	0.7947	0.173	0.013
Mof_C 	C 	0.41	0.8228	0.1298	0.009
Mof_C 	C 	0.4354	0.8075	0.2191	0.001
Mof_C 	C 	0.3974	0.8322	0.2095	0.009
Mof_C 	C 	0.4487	0.7974	0.1387	-0.03
Mof_O 	O 	0.8124	0.1241	0.1654	-0.394
Mof_O 	O 	0.7741	0.1638	0.2193	-0.409
Mof_O 	O 	0.73383	0.0448	0.04503	-0.439
Mof_O 	O 	0.65751	0.0464	0.04678	-0.411
Mof_O 	O 	0.8567	0.07966	0.2342	-0.403
Mof_O 	O 	0.8169	0.1188	0.2851	-0.399
Mof_C 	C 	0.7795	0.1393	0.1874	0.355
Mof_C 	C 	0.6974	0.0531	0.0573	0.365
Mof_C 	C 	0.7369	0.129	0.1592	-0.096
Mof_C 	C 	0.7355	0.1005	0.1182	0.085
Mof_C 	C 	0.6964	0.0902	0.0962	-0.094
Mof_C 	C 	0.6573	0.1088	0.1132	0.053
Mof_C 	C 	0.6576	0.1419	0.1499	-0.033
Mof_C 	C 	0.6976	0.1482	0.1705	0.061
Mof_C 	C 	0.6146	0.1604	0.1652	-0.001
Mof_C 	C 	0.5397	0.2096	0.1839	0.128
Mof_C 	C 	0.8302	0.0832	0.266	0.351
Mof_C 	C 	0.8178	0.0379	0.289	-0.106
Mof_C 	C 	0.7876	0.0428	0.3265	0.055
Mof_C 	C 	0.749	0.9684	0.4188	0.026
Mof_C 	C 	0.7216	0.9689	0.4568	-0.007
Mof_C 	C 	0.6804	0.0296	0.4255	-0.019
Mof_C 	C 	0.707	0.0297	0.388	0.01
Mof_C 	C 	0.5732	0.1399	0.1668	0.005
Mof_C 	C 	0.5354	0.1653	0.1764	-0.013
Mof_C 	C 	0.5795	0.2309	0.1828	-0.026
Mof_C 	C 	0.6186	0.2053	0.173	0.013
Mof_C 	C 	0.59	0.1772	0.1298	0.008
Mof_C 	C 	0.5646	0.1925	0.2191	-0.001
Mof_C 	C 	0.6026	0.1678	0.2095	0.006
Mof_C 	C 	0.5513	0.2026	0.1387	-0.031
Mof_O 	O 	0.8759	0.8124	0.1654	-0.391
Mof_O 	O 	0.8362	0.7741	0.2193	-0.408
Mof_O 	O 	0.9552	0.73383	0.04503	-0.427
Mof_O 	O 	0.9536	0.65751	0.04678	-0.4
Mof_O 	O 	0.92034	0.8567	0.2342	-0.395
Mof_O 	O 	0.8812	0.8169	0.2851	-0.397
Mof_C 	C 	0.8607	0.7795	0.1874	0.355
Mof_C 	C 	0.9469	0.6974	0.0573	0.367
Mof_C 	C 	0.871	0.7369	0.1592	-0.095
Mof_C 	C 	0.8995	0.7355	0.1182	0.09
Mof_C 	C 	0.9098	0.6964	0.0962	-0.093
Mof_C 	C 	0.8912	0.6573	0.1132	0.057
Mof_C 	C 	0.8581	0.6576	0.1499	-0.032
Mof_C 	C 	0.8518	0.6976	0.1705	0.062
Mof_C 	C 	0.8396	0.6146	0.1652	-0.002
Mof_C 	C 	0.7904	0.5397	0.1839	0.127
Mof_C 	C 	0.9168	0.8302	0.266	0.349
Mof_C 	C 	0.9621	0.8178	0.289	-0.088
Mof_C 	C 	0.9572	0.7876	0.3265	0.067
Mof_C 	C 	0.0316	0.749	0.4188	0.012
Mof_C 	C 	0.0311	0.7216	0.4568	-0.02
Mof_C 	C 	0.9704	0.6804	0.4255	-0.002
Mof_C 	C 	0.9703	0.707	0.388	0.026
Mof_C 	C 	0.8601	0.5732	0.1668	0.01
Mof_C 	C 	0.8347	0.5354	0.1764	-0.012
Mof_C 	C 	0.7691	0.5795	0.1828	-0.026
Mof_C 	C 	0.7947	0.6186	0.173	0.013
Mof_C 	C 	0.8228	0.59	0.1298	0.009
Mof_C 	C 	0.8075	0.5646	0.2191	0.001
Mof_C 	C 	0.8322	0.6026	0.2095	0.009
Mof_C 	C 	0.7974	0.5513	0.1387	-0.03
Mof_O 	O 	0.1241	0.1876	0.1654	-0.396
Mof_O 	O 	0.1638	0.2259	0.2193	-0.409
Mof_O 	O 	0.0448	0.26617	0.04503	-0.44
Mof_O 	O 	0.0464	0.34249	0.04678	-0.412
Mof_O 	O 	0.07966	0.1433	0.2342	-0.406
Mof_O 	O 	0.1188	0.1831	0.2851	-0.4
Mof_C 	C 	0.1393	0.2205	0.1874	0.355
Mof_C 	C 	0.0531	0.3026	0.0573	0.365
Mof_C 	C 	0.129	0.2631	0.1592	-0.096
Mof_C 	C 	0.1005	0.2645	0.1182	0.084
Mof_C 	C 	0.0902	0.3036	0.0962	-0.094
Mof_C 	C 	0.1088	0.3427	0.1132	0.053
Mof_C 	C 	0.1419	0.3424	0.1499	-0.033
Mof_C 	C 	0.1482	0.3024	0.1705	0.061
Mof_C 	C 	0.1604	0.3854	0.1652	-0.001
Mof_C 	C 	0.2096	0.4603	0.1839	0.128
Mof_C 	C 	0.0832	0.1698	0.266	0.351
Mof_C 	C 	0.0379	0.1822	0.289	-0.107
Mof_C 	C 	0.0428	0.2124	0.3265	0.054
Mof_C 	C 	0.9684	0.251	0.4188	0.024
Mof_C 	C 	0.9689	0.2784	0.4568	-0.007
Mof_C 	C 	0.0296	0.3196	0.4255	-0.019
Mof_C 	C 	0.0297	0.293	0.388	0.01
Mof_C 	C 	0.1399	0.4268	0.1668	0.005
Mof_C 	C 	0.1653	0.4646	0.1764	-0.013
Mof_C 	C 	0.2309	0.4205	0.1828	-0.027
Mof_C 	C 	0.2053	0.3814	0.173	0.013
Mof_C 	C 	0.1772	0.41	0.1298	0.008
Mof_C 	C 	0.1925	0.4354	0.2191	-0.001
Mof_C 	C 	0.1678	0.3974	0.2095	0.006
Mof_C 	C 	0.2026	0.4487	0.1387	-0.031
Mof_Cu	Cu	0.13	0.13	0.19565	0.901
Mof_Cu	Cu	0.1751	0.1751	0.25716	0.913
Mof_Cu	Cu	0.87	0.87	0.19565	0.904
Mof_Cu	Cu	0.8249	0.8249	0.25716	0.914
Mof_Cu	Cu	0.87	0.13	0.19565	0.903
Mof_Cu	Cu	0.8249	0.1751	0.25716	0.913
Mof_Cu	Cu	0.13	0.87	0.19565	0.903
Mof_Cu	Cu	0.1751	0.8249	0.25716	0.913
Mof_Cu	Cu	0.87	0.13	0.80435	0.905
Mof_Cu	Cu	0.8249	0.1751	0.74284	0.913
Mof_Cu	Cu	0.13	0.87	0.80435	0.905
Mof_Cu	Cu	0.1751	0.8249	0.74284	0.913
Mof_Cu	Cu	0.13	0.13	0.80435	0.903
Mof_Cu	Cu	0.1751	0.1751	0.74284	0.913
Mof_Cu	Cu	0.87	0.87	0.80435	0.906
Mof_Cu	Cu	0.8249	0.8249	0.74284	0.914
Mof_Cu	Cu	0.26058	0	-0	0.891
Mof_Cu	Cu	0.34824	0	-0	0.87
Mof_Cu	Cu	0.73942	0	-0	0.891
Mof_Cu	Cu	0.65176	0	-0	0.87
Mof_Cu	Cu	1.85896e-33	0.26058	-0	0.891
Mof_Cu	Cu	-3.71793e-33	0.34824	-0	0.87
Mof_Cu	Cu	7.43586e-33	0.73942	-0	0.891
Mof_Cu	Cu	-0	0.65176	-0	0.87
Mof_O 	O 	0.3377	-3.71793e-33	0.5	-0.196
Mof_O 	O 	0.6623	-3.71793e-33	0.5	-0.196
Mof_O 	O 	-1.88625e-33	0.3377	0.5	-0.196
Mof_O 	O 	-1.88625e-33	0.6623	0.5	-0.196
Mof_C 	C 	0.1686	-1.85896e-33	0.2707	0.083
Mof_C 	C 	0.2264	0	0.3445	-0.034
Mof_C 	C 	0.2587	-3.71793e-33	0.3834	-0.029
Mof_C 	C 	0.3124	0	0.4596	0.103
Mof_C 	C 	0.8314	-1.85896e-33	0.2707	0.086
Mof_C 	C 	0.7736	0	0.3445	-0.034
Mof_C 	C 	0.7413	-3.71793e-33	0.3834	-0.03
Mof_C 	C 	0.6876	0	0.4596	0.103
Mof_C 	C 	-2.72626e-33	0.1686	0.2707	0.083
Mof_C 	C 	-2.4559e-33	0.2264	0.3445	-0.034
Mof_C 	C 	-6.03133e-33	0.2587	0.3834	-0.029
Mof_C 	C 	1.68368e-33	0.3124	0.4596	0.103
Mof_C 	C 	-2.72626e-33	0.8314	0.2707	0.086
Mof_C 	C 	-6.17383e-33	0.7736	0.3445	-0.034
Mof_C 	C 	8.84039e-33	0.7413	0.3834	-0.03
Mof_C 	C 	1.28375e-32	0.6876	0.4596	0.103
Mof_C 	C 	0.8314	-7.43586e-33	0.7293	0.088
Mof_C 	C 	0.7736	0	0.6555	-0.034
Mof_C 	C 	0.7413	-7.43586e-33	0.6166	-0.029
Mof_C 	C 	0.6876	-3.71793e-33	0.5404	0.103
Mof_C 	C 	0.1686	-7.43586e-33	0.7293	0.085
Mof_C 	C 	0.2264	0	0.6555	-0.034
Mof_C 	C 	0.2587	-7.43586e-33	0.6166	-0.029
Mof_C 	C 	0.3124	-3.71793e-33	0.5404	0.104
Mof_C 	C 	2.67168e-33	0.1686	0.7293	0.085
Mof_C 	C 	-1.24704e-32	0.2264	0.6555	-0.034
Mof_C 	C 	-5.17704e-33	0.2587	0.6166	-0.029
Mof_C 	C 	1.97968e-33	0.3124	0.5404	0.104
Mof_C 	C 	2.67168e-33	0.8314	0.7293	0.088
Mof_C 	C 	9.83718e-33	0.7736	0.6555	-0.034
Mof_C 	C 	-5.17704e-33	0.7413	0.6166	-0.029
Mof_C 	C 	1.68514e-32	0.6876	0.5404	0.103
Mof_O 	O 	0.5	0.2161	0.2078	-0.205
Mof_O 	O 	0.5	0.7839	0.2078	-0.203
Mof_O 	O 	0.7839	0.5	0.2078	-0.203
Mof_O 	O 	0.2161	0.5	0.2078	-0.205
Mof_O 	O 	0.5	0.2161	0.7922	-0.201
Mof_O 	O 	0.5	0.7839	0.7922	-0.2
Mof_O 	O 	0.2161	0.5	0.7922	-0.201
Mof_O 	O 	0.7839	0.5	0.7922	-0.2
_end
