data_functionalizedCrystal
_audit_creation_method	'EQeq! by Chris Wilmer'
_symmetry_space_group_name_H-M	'P1'
_symmetry_Int_Tables_number	1
_symmetry_cell_setting	triclinic
loop_
_symmetry_equiv_pos_as_xyz
  x,y,z
_cell_length_a	24.05
_cell_length_b	24.1042
_cell_length_c	24.6219
_cell_angle_alpha	86.088
_cell_angle_beta	61.613
_cell_angle_gamma	61.393
loop_
_atom_site_label
_atom_site_type_symbol
_atom_site_fract_x
_atom_site_fract_y
_atom_site_fract_z
_atom_site_charge
Mof_Dy	Dy	0.36773	0.20258	0.84447	2.076
Mof_Dy	Dy	0.85975	0.356	0.70394	2.07
Mof_Dy	Dy	0.63227	0.79742	0.15553	2.076
Mof_Dy	Dy	0.14025	0.644	0.29606	2.07
Mof_Dy	Dy	0.76211	0.22432	0.25564	2.078
Mof_Dy	Dy	0.23789	0.77568	0.74436	2.078
Mof_H 	H 	0.6061	0.5764	0.2454	0.068
Mof_H 	H 	0.5807	0.9943	0.9008	0.064
Mof_H 	H 	0.398	0.8714	0.5343	0.066
Mof_H 	H 	0.9643	0.8089	0.4112	0.011
Mof_H 	H 	0.5605	0.6932	0.391	0.065
Mof_H 	H 	0.3402	0.2184	0.6961	0.029
Mof_H 	H 	0.7716	0.0031	0.1474	0.068
Mof_H 	H 	0.0591	0.6803	0.1871	0.075
Mof_H 	H 	0.0781	0.9691	0.8163	0.019
Mof_H 	H 	0.2564	0.2244	0.6718	0.068
Mof_H 	H 	0.7499	0.349	0.0461	0.104
Mof_H 	H 	0.2892	0.5268	0.103	0.021
Mof_H 	H 	0.4789	0.6832	0.479	0.066
Mof_H 	H 	0.3554	0.4921	0.6996	0.069
Mof_H 	H 	0.7872	0.6006	0.0782	0.035
Mof_H 	H 	0.1362	0.68	0.8253	0.038
Mof_H 	H 	0.001	0.9473	0.2082	0.061
Mof_H 	H 	0.239	0.5784	0.3928	0.03
Mof_H 	H 	0.6539	0.2971	0.1684	0.033
Mof_H 	H 	0.602	0.1286	0.4657	0.066
Mof_H 	H 	0.0634	0.7638	0.5466	0.066
Mof_H 	H 	0.5107	0.9857	0.2629	0.02
Mof_H 	H 	0.5906	0.1175	0.5606	0.067
Mof_H 	H 	0.1057	0.8564	0.936	0.017
Mof_H 	H 	0.0694	0.3911	0.4756	0.068
Mof_H 	H 	0.7323	0.3873	0.5446	0.065
Mof_H 	H 	0.892	0.9031	0.3898	0.07
Mof_H 	H 	0.6743	0.4117	0.3337	0.013
Mof_H 	H 	0.9596	0.6601	0.4416	0.012
Mof_H 	H 	0.8171	0.684	0.9824	0.021
Mof_H 	H 	0.047	0.2872	0.0485	0.086
Mof_H 	H 	0.4592	0.6571	0.8258	0.067
Mof_H 	H 	0.4112	0.8732	0.2214	0.02
Mof_H 	H 	0.816	0.906	0.0014	0.066
Mof_H 	H 	0.8421	0.0115	0.3927	0.063
Mof_H 	H 	0.4395	0.6021	0.6615	0.017
Mof_H 	H 	0.9102	0.5609	0.5969	0.067
Mof_H 	H 	0.5046	0.3282	0.8794	0.067
Mof_H 	H 	0.4302	0.6724	0.5813	0.011
Mof_H 	H 	0.6221	0.9522	0.9561	0.065
Mof_H 	H 	0.3337	0.8315	0.2583	0.065
Mof_H 	H 	0.8943	0.1436	0.064	0.017
Mof_H 	H 	0.8662	0.1648	0.3508	0.032
Mof_H 	H 	0.9306	0.6089	0.5244	0.068
Mof_H 	H 	0.8697	0.5508	0.8199	0.074
Mof_H 	H 	0.681	0.3308	0.421	0.013
Mof_H 	H 	0.3296	0.0978	0.9807	0.03
Mof_H 	H 	0.4488	0.8822	0.3349	0.021
Mof_H 	H 	0.1509	0.403	0.0825	0.101
Mof_H 	H 	0.7436	0.7756	0.3282	0.068
Mof_H 	H 	0.3461	0.4245	0.3589	0.066
Mof_H 	H 	0.53	0.0436	0.8377	0.019
Mof_H 	H 	0.9039	0.4525	0.7699	0.03
Mof_H 	H 	0.5512	0.1178	0.6651	0.021
Mof_H 	H 	0.9078	0.6395	0.1698	0.1
Mof_H 	H 	0.9859	0.7417	0.8474	0.073
Mof_H 	H 	0.3255	0.4281	0.0516	0.077
Mof_H 	H 	0.5558	0.5625	0.6487	0.067
Mof_H 	H 	0.8556	0.1902	0.7173	0.027
Mof_H 	H 	0.8206	0.5093	0.1196	0.098
Mof_H 	H 	0.6445	0.6902	0.944	0.07
Mof_H 	H 	0.269	0.1074	0.9087	0.027
Mof_H 	H 	0.1303	0.4492	0.1801	0.074
Mof_H 	H 	0.8638	0.32	0.1747	0.038
Mof_H 	H 	0.731	0.8926	0.0913	0.027
Mof_H 	H 	0.7108	0.4732	0.897	0.021
Mof_H 	H 	0.0867	0.7859	0.2113	0.033
Mof_H 	H 	0.7146	0.8566	0.2257	0.034
Mof_H 	H 	0.2868	0.7758	0.3048	0.065
Mof_H 	H 	0.2501	0.651	0.9539	0.104
Mof_H 	H 	0.9409	0.3197	0.8129	0.075
Mof_H 	H 	0.5698	0.3276	0.4187	0.011
Mof_H 	H 	0.2195	0.7215	0.3461	0.034
Mof_H 	H 	0.4618	0.9335	0.7529	0.068
Mof_H 	H 	0.7684	0.5153	0.6339	0.028
Mof_H 	H 	0.5971	0.6986	0.2864	0.035
Mof_H 	H 	0.184	0.094	0.9986	0.066
Mof_H 	H 	0.2128	0.3994	0.9218	0.035
Mof_H 	H 	0.108	0.0969	0.6102	0.07
Mof_H 	H 	0.8262	0.7451	0.3578	0.065
Mof_H 	H 	0.7081	0.3598	0.8874	0.018
Mof_H 	H 	0.3573	0.5883	0.1855	0.017
Mof_H 	H 	0.7662	0.0984	0.3648	0.029
Mof_H 	H 	0.0898	0.4391	0.4031	0.067
Mof_H 	H 	0.0692	0.1002	0.0472	0.069
Mof_H 	H 	0.929	0.243	0.2387	0.029
Mof_H 	H 	0.8379	0.4153	0.1356	0.105
Mof_H 	H 	0.569	0.7174	0.0844	0.036
Mof_H 	H 	0.071	0.757	0.7613	0.029
Mof_H 	H 	0.257	0.061	0.7891	0.071
Mof_H 	H 	0.1444	0.8098	0.2827	0.027
Mof_H 	H 	0.6683	0.5091	0.8166	0.013
Mof_H 	H 	0.5562	0.5609	0.8219	0.069
Mof_H 	H 	0.6704	0.9022	0.0193	0.03
Mof_H 	H 	0.9665	0.2725	0.5146	0.022
Mof_H 	H 	0.5211	0.3168	0.521	0.066
Mof_H 	H 	0.2677	0.6127	0.4554	0.065
Mof_H 	H 	0.7132	0.2242	0.6952	0.065
Mof_H 	H 	0.6539	0.5755	0.6411	0.066
Mof_H 	H 	0.4248	0.3324	0.7971	0.027
Mof_H 	H 	0.9759	0.6732	0.1705	0.112
Mof_H 	H 	0.8224	0.6495	0.1458	0.026
Mof_H 	H 	0.8491	0.597	0.9175	0.101
Mof_H 	H 	0.9308	0.8998	0.9528	0.069
Mof_H 	H 	0.1776	0.3505	0.8542	0.026
Mof_H 	H 	0.1167	0.8435	0.0254	0.063
Mof_H 	H 	0.7805	0.2785	0.6539	0.034
Mof_H 	H 	0.3939	0.4236	0.7546	0.068
Mof_H 	H 	0.999	0.0527	0.7918	0.061
Mof_H 	H 	0.3818	0.2227	0.9968	0.028
Mof_H 	H 	0.319	0.6692	0.579	0.013
Mof_H 	H 	0.1829	0.316	0.0176	0.021
Mof_H 	H 	0.1579	0.9885	0.6073	0.063
Mof_H 	H 	0.886	0.5061	0.6783	0.027
Mof_H 	H 	0.6446	0.5079	0.3004	0.069
Mof_H 	H 	0.9133	0.2141	0.7887	0.033
Mof_H 	H 	0.0277	0.9063	0.8671	0.012
Mof_H 	H 	0.1324	0.2983	0.9562	0.033
Mof_H 	H 	0.2919	0.6402	0.1126	0.018
Mof_H 	H 	0.0961	0.5475	0.2301	0.03
Mof_H 	H 	0.0141	0.2583	0.1526	0.073
Mof_H 	H 	0.2316	0.4847	0.3661	0.028
Mof_H 	H 	0.7655	0.3328	0.1329	0.042
Mof_H 	H 	0.3461	0.7029	0.8316	0.033
Mof_H 	H 	0.8081	0.0799	0.134	0.019
Mof_H 	H 	0.4954	0.6718	0.1206	0.067
Mof_H 	H 	0.953	0.7128	0.9515	0.086
Mof_H 	H 	0.4193	0.0057	0.0992	0.064
Mof_H 	H 	0.2338	0.9016	0.6352	0.029
Mof_H 	H 	0.0757	0.9037	0.2625	0.072
Mof_H 	H 	0.6745	0.5719	0.9484	0.077
Mof_H 	H 	0.0404	0.3399	0.5584	0.012
Mof_H 	H 	0.431	0.2826	0.9156	0.036
Mof_H 	H 	0.7126	0.3665	0.4801	0.066
Mof_H 	H 	0.1621	0.5847	0.8644	0.105
Mof_H 	H 	0.6014	0.2146	0.2562	0.034
Mof_H 	H 	0.9219	0.0309	0.1837	0.019
Mof_H 	H 	0.0357	0.1911	0.5888	0.011
Mof_H 	H 	0.5888	0.1268	0.7786	0.02
Mof_H 	H 	0.114	0.4939	0.3217	0.027
Mof_H 	H 	0.4029	0.3014	0.7136	0.035
Mof_H 	H 	0.8833	0.1565	0.9746	0.063
Mof_H 	H 	0.1738	0.2549	0.6422	0.065
Mof_H 	H 	0.6482	0.1416	0.3617	0.027
Mof_H 	H 	0.3317	0.4909	0.1834	0.013
Mof_H 	H 	0.2284	0.9969	0.8526	0.068
Mof_H 	H 	0.761	0.4216	0.6072	0.03
Mof_H 	H 	0.4395	0.3068	0.609	0.065
Mof_H 	H 	0.7088	0.3416	0.9807	0.074
Mof_H 	H 	0.9723	0.0937	0.1329	0.012
Mof_H 	H 	0.9366	0.2362	0.4534	0.066
Mof_H 	H 	0.5408	0.3429	0.1742	0.067
Mof_H 	H 	0.0241	0.3268	0.8295	0.112
Mof_H 	H 	0.2912	0.6584	0.0193	0.074
Mof_H 	H 	0.8676	0.7017	0.0438	0.033
Mof_H 	H 	0.5754	0.3596	0.856	0.066
Mof_H 	H 	0.6663	0.1685	0.7417	0.065
Mof_H 	H 	0.5382	0.0665	0.2471	0.068
Mof_H 	H 	0.9243	0.0963	0.7375	0.072
Mof_H 	H 	0.0335	0.7275	0.4854	0.022
Mof_H 	H 	0.5752	0.6676	0.2029	0.027
Mof_H 	H 	0.4246	0.6404	0.144	0.066
Mof_H 	H 	0.9136	0.7507	0.3702	0.018
Mof_H 	H 	0.3779	0.0478	0.0439	0.065
Mof_H 	H 	0.918	0.1942	0.8806	0.072
Mof_H 	H 	0.1338	0.8352	0.6492	0.032
Mof_H 	H 	0.4442	0.4375	0.3513	0.067
Mof_H 	H 	0.4361	0.8609	0.7287	0.067
Mof_H 	H 	0.5639	0.1391	0.2713	0.067
Mof_H 	H 	0.096	0.801	0.5927	0.066
Mof_H 	H 	0.2345	0.6672	0.8671	0.042
Mof_H 	H 	0.904	0.199	0.4073	0.066
Mof_H 	H 	0.5605	0.3979	0.3385	0.017
Mof_H 	H 	0.6427	0.4117	0.8145	0.017
Mof_H 	H 	0.082	0.8058	0.1194	0.072
Mof_H 	H 	0.3257	0.5883	0.6663	0.013
Mof_H 	H 	0.6182	0.7773	0.0032	0.028
Mof_H 	H 	0.3555	0.3098	0.056	0.07
Mof_H 	H 	0.4094	0.8825	0.4394	0.067
Mof_H 	H 	0.47	0.9564	0.1623	0.019
Mof_H 	H 	0.0864	0.2493	0.6298	0.018
Mof_H 	H 	0.3518	0.8584	0.6383	0.027
Mof_H 	H 	0.4438	0.4391	0.1781	0.069
Mof_H 	H 	0.4893	0.0143	0.7371	0.02
Mof_H 	H 	0.1919	0.9201	0.866	0.019
Mof_H 	H 	0.1794	0.4907	0.8804	0.098
Mof_H 	H 	0.0922	0.3605	0.8302	0.1
Mof_H 	H 	0.2854	0.1434	0.7743	0.034
Mof_H 	H 	0.6598	0.7816	0.3039	0.029
Mof_H 	H 	0.743	0.939	0.2109	0.071
Mof_H 	H 	0.3986	0.7854	0.7438	0.034
Mof_H 	H 	0.2874	0.6335	0.5199	0.066
Mof_C 	C 	0.1093	0.2911	0.7387	0.041
Mof_C 	C 	0.1934	0.3247	0.8168	0.076
Mof_C 	C 	0.4065	0.8299	0.5429	-0.109
Mof_C 	C 	0.0926	0.8289	0.304	0.066
Mof_C 	C 	0.2391	0.2502	0.7099	-0.112
Mof_C 	C 	0.5559	0.7355	0.3184	0.045
Mof_C 	C 	0.4869	0.4109	0.3123	-0.109
Mof_C 	C 	0.2927	0.5873	0.7073	0.073
Mof_C 	C 	0.4709	0.9852	0.082	-0.104
Mof_C 	C 	0.6108	0.3281	0.2048	0.055
Mof_C 	C 	0.9307	0.9679	0.3035	0.032
Mof_C 	C 	0.1266	0.2681	0.6777	-0.103
Mof_C 	C 	0.556	0.3862	0.3053	0.061
Mof_C 	C 	0.3561	0.419	0.7887	-0.102
Mof_C 	C 	0.7609	0.7498	0.2901	-0.112
Mof_C 	C 	0.251	0.3682	0.0741	0.061
Mof_C 	C 	0.9617	0.6895	0.2118	-0.093
Mof_C 	C 	0.3633	0.7127	0.2215	0.046
Mof_C 	C 	0.3636	0.8292	0.765	0.056
Mof_C 	C 	0.031	0.416	0.5168	-0.116
Mof_C 	C 	0.4074	0.4267	0.2679	0.047
Mof_C 	C 	0.9233	0.4828	0.6363	0.064
Mof_C 	C 	0.4989	0.0441	0.8802	0.057
Mof_C 	C 	0.1426	0.5234	0.1929	0.081
Mof_C 	C 	0.7514	0.3151	0.9417	-0.1
Mof_C 	C 	0.1404	0.9853	0.6503	-0.097
Mof_C 	C 	0.6894	0.4698	0.2732	-0.117
Mof_C 	C 	0.3106	0.5302	0.7268	-0.117
Mof_C 	C 	0.3349	0.9383	0.7858	0.045
Mof_C 	C 	0.6793	0.8993	0.2285	0.051
Mof_C 	C 	0.7702	0.5413	0.1373	-0.094
Mof_C 	C 	0.5213	0.74	0.1207	0.048
Mof_C 	C 	0.0997	0.7248	0.5158	-0.108
Mof_C 	C 	0.0619	0.485	0.412	-0.11
Mof_C 	C 	0.559	0.976	0.2502	0.063
Mof_C 	C 	0.1833	0.7453	0.0011	0.052
Mof_C 	C 	0.8907	0.7089	0.2613	0.041
Mof_C 	C 	0.8167	0.2547	0.9989	0.052
Mof_C 	C 	0.2304	0.4286	0.1092	0.068
Mof_C 	C 	0.7805	0.3066	0.0485	-0.092
Mof_C 	C 	0.0383	0.3105	0.7882	-0.093
Mof_C 	C 	0.3747	0.3647	0.8134	0.06
Mof_C 	C 	0.4252	0.9763	0.7579	-0.11
Mof_C 	C 	0.8138	0.0664	0.333	0.046
Mof_C 	C 	0.052	0.8837	0.2918	-0.124
Mof_C 	C 	0.9933	0.482	0.526	0.049
Mof_C 	C 	0.948	0.1163	0.7082	-0.124
Mof_C 	C 	0.6439	0.581	0.2113	-0.102
Mof_C 	C 	0.3544	0.9894	0.7739	0.045
Mof_C 	C 	0.7221	0.5477	0.9125	-0.097
Mof_C 	C 	0.6142	0.1259	0.2443	-0.107
Mof_C 	C 	0.1659	0.7941	0.6214	0.056
Mof_C 	C 	0.7696	0.5714	0.8908	0.068
Mof_C 	C 	0.9439	0.8838	0.3669	-0.118
Mof_C 	C 	0.1432	0.7734	0.5877	-0.107
Mof_C 	C 	0.1862	0.9336	0.667	0.046
Mof_C 	C 	0.812	0.2859	0.452	0.047
Mof_C 	C 	0.8184	0.3586	0.1995	0.064
Mof_C 	C 	0.7369	0.4725	0.2131	0.059
Mof_C 	C 	0.4102	0.0465	0.0016	-0.105
Mof_C 	C 	0.9927	0.7765	0.8519	-0.115
Mof_C 	C 	0.2184	0.3154	0.0253	0.07
Mof_C 	C 	0.2192	0.6367	0.4623	-0.107
Mof_C 	C 	0.0142	0.3858	0.5658	0.073
Mof_C 	C 	0.7383	0.295	0.695	0.045
Mof_C 	C 	0.9887	0.3065	0.7785	0.049
Mof_C 	C 	0.9003	0.2752	0.4842	-0.108
Mof_C 	C 	0.9496	0.8186	0.9095	0.055
Mof_C 	C 	0.2024	0.6162	0.4252	0.055
Mof_C 	C 	0.5302	0.1579	0.6534	0.064
Mof_C 	C 	0.6647	0.739	0.9875	0.061
Mof_C 	C 	0.1412	0.8068	0.9935	-0.101
Mof_C 	C 	0.8718	0.2404	0.8283	0.056
Mof_C 	C 	0.3858	0.8741	0.7557	-0.107
Mof_C 	C 	0.1996	0.3671	0.0632	-0.111
Mof_C 	C 	0.8142	0.265	0.9409	0.065
Mof_C 	C 	0.5926	0.5733	0.7321	0.047
Mof_C 	C 	0.2486	0.6849	0.0583	-0.1
Mof_C 	C 	0.9078	0.75	0.9798	-0.106
Mof_C 	C 	0.4084	0.7439	0.195	0.043
Mof_C 	C 	0.3342	0.4792	0.2201	0.062
Mof_C 	C 	0.8319	0.3087	0.4904	0.045
Mof_C 	C 	0.4441	0.2645	0.6816	0.045
Mof_C 	C 	0.441	0.024	0.7498	0.063
Mof_C 	C 	0.5547	0.157	0.5908	-0.112
Mof_C 	C 	0.0113	0.6935	0.2215	0.049
Mof_C 	C 	0.6567	0.5602	0.6768	-0.107
Mof_C 	C 	0.2489	0.674	0.1138	0.072
Mof_C 	C 	0.7586	0.0914	0.1627	0.061
Mof_C 	C 	0.1065	0.19	0.0337	0.047
Mof_C 	C 	0.4851	0.0151	0.9799	0.044
Mof_C 	C 	0.7887	0.297	0.1004	0.072
Mof_C 	C 	0.7108	0.7534	0.276	0.056
Mof_C 	C 	0.7366	0.046	0.1714	-0.108
Mof_C 	C 	0.2617	0.705	0.305	0.045
Mof_C 	C 	0.0767	0.5172	0.3637	0.064
Mof_C 	C 	0.5226	0.287	0.8575	-0.103
Mof_C 	C 	0.8734	0.7319	0.3223	-0.103
Mof_C 	C 	0.9614	0.8686	0.9145	-0.113
Mof_C 	C 	0.2752	0.4745	0.3275	0.049
Mof_C 	C 	0.3432	0.6263	0.2101	0.06
Mof_C 	C 	0.135	0.8145	0.9404	0.066
Mof_C 	C 	0.8571	0.7431	0.0341	0.068
Mof_C 	C 	0.4787	0.26	0.8793	0.048
Mof_C 	C 	0.8267	0.8639	0.0091	-0.105
Mof_C 	C 	0.9858	0.6142	0.4342	0.073
Mof_C 	C 	0.865	0.1855	0.0596	0.066
Mof_C 	C 	0.8744	0.2283	0.883	-0.099
Mof_C 	C 	0.1633	0.465	0.163	-0.089
Mof_C 	C 	0.534	0.7322	0.3806	-0.104
Mof_C 	C 	0.5989	0.5528	0.7833	-0.113
Mof_C 	C 	0.8568	0.2266	0.4123	-0.107
Mof_C 	C 	0.0133	0.1721	0.6206	0.074
Mof_C 	C 	0.8066	0.6753	0.1832	0.076
Mof_C 	C 	0.0561	0.1162	0.6331	-0.118
Mof_C 	C 	0.0745	0.265	0.6704	0.063
Mof_C 	C 	0.4011	0.4472	0.2167	-0.113
Mof_C 	C 	0.5533	0.2215	0.506	0.047
Mof_C 	C 	0.5748	0.0237	0.2421	-0.11
Mof_C 	C 	0.4564	0.6458	0.7913	-0.107
Mof_C 	C 	0.8367	0.535	0.837	-0.089
Mof_C 	C 	0.8935	0.81	0.9663	0.047
Mof_C 	C 	0.0073	0.2235	0.1481	-0.115
Mof_C 	C 	0.7808	0.3633	0.5377	-0.107
Mof_C 	C 	0.1816	0.6414	0.8005	0.064
Mof_C 	C 	0.5011	0.9559	0.1198	0.057
Mof_C 	C 	0.3207	0.1007	0.7715	0.051
Mof_C 	C 	0.1282	0.7596	0.1717	0.056
Mof_C 	C 	0.6364	0.1708	0.235	0.056
Mof_C 	C 	0.6956	0.9489	0.2205	-0.106
Mof_C 	C 	0.0067	0.518	0.474	0.049
Mof_C 	C 	0.1256	0.7717	0.117	-0.099
Mof_C 	C 	0.4795	0.3973	0.2638	0.044
Mof_C 	C 	0.7453	0.3244	0.4543	-0.113
Mof_C 	C 	0.9769	0.9124	0.3201	0.057
Mof_C 	C 	0.5916	0.2561	0.805	0.043
Mof_C 	C 	0.2834	0.4675	0.8121	0.058
Mof_C 	C 	0.6651	0.0617	0.2142	0.045
Mof_C 	C 	0.3353	0.261	0.0125	0.061
Mof_C 	C 	0.5755	0.287	0.4285	0.065
Mof_C 	C 	0.2298	0.4587	0.8627	-0.094
Mof_C 	C 	0.3833	0.6572	0.1856	-0.107
Mof_C 	C 	0.6978	0.2629	0.7196	-0.101
Mof_C 	C 	0.2634	0.954	0.8286	-0.108
Mof_C 	C 	0.5149	0.9849	0.0201	0.044
Mof_C 	C 	0.8032	0.4154	0.1763	-0.108
Mof_C 	C 	0.4467	0.7785	0.494	0.047
Mof_C 	C 	0.969	0.584	0.4832	-0.116
Mof_C 	C 	0.2113	0.703	0.8996	0.072
Mof_C 	C 	0.466	0.2678	0.6194	-0.104
Mof_C 	C 	0.188	0.7141	0.548	0.047
Mof_C 	C 	0.8574	0.4766	0.8071	0.081
Mof_C 	C 	0.2561	0.5111	0.1181	0.091
Mof_C 	C 	0.1643	0.2902	0.7491	0.057
Mof_C 	C 	0.9819	0.1267	0.1367	0.068
Mof_C 	C 	0.6806	0.6879	0.9517	-0.114
Mof_C 	C 	0.3811	0.0758	0.964	0.056
Mof_C 	C 	0.7765	0.856	0.0623	0.056
Mof_C 	C 	0.9255	0.735	0.3296	0.063
Mof_C 	C 	0.8573	0.6702	0.1969	-0.117
Mof_C 	C 	0.5291	0.0148	0.918	-0.104
Mof_C 	C 	0.9059	0.0269	0.2265	0.053
Mof_C 	C 	0.5436	0.3542	0.2087	-0.107
Mof_C 	C 	0.5716	0.1684	0.799	0.062
Mof_C 	C 	0.5935	0.1701	0.4571	-0.109
Mof_C 	C 	0.2195	0.6934	0.9515	-0.092
Mof_C 	C 	0.9074	0.1711	0.696	0.066
Mof_C 	C 	0.444	0.6138	0.6947	0.061
Mof_C 	C 	0.8588	0.1932	0.0065	-0.101
Mof_C 	C 	0.2414	0.9086	0.8373	0.061
Mof_C 	C 	0.0181	0.8733	0.8633	0.068
Mof_C 	C 	0.1427	0.3298	0.8031	-0.117
Mof_C 	C 	0.7259	0.3027	0.4201	0.067
Mof_C 	C 	0.3433	0.4398	0.3232	-0.107
Mof_C 	C 	0.7504	0.5957	0.1132	0.083
Mof_C 	C 	0.5205	0.6027	0.7362	0.044
Mof_C 	C 	0.6253	0.6353	0.1866	0.06
Mof_C 	C 	0.0817	0.7038	0.4791	0.06
Mof_C 	C 	0.8341	0.2059	0.3786	0.056
Mof_C 	C 	0.4453	0.843	0.4092	-0.112
Mof_C 	C 	0.6367	0.2873	0.7785	0.046
Mof_C 	C 	0.2547	0.6756	0.5457	-0.113
Mof_C 	C 	0.8357	0.7098	0.2509	0.057
Mof_C 	C 	0.4245	0.713	0.5715	0.065
Mof_C 	C 	0.7166	0.5325	0.1879	0.058
Mof_C 	C 	0.3824	0.8067	0.2237	-0.107
Mof_C 	C 	0.0447	0.7841	0.8015	0.063
Mof_C 	C 	0.2779	0.4523	0.0875	-0.097
Mof_C 	C 	0.2235	0.144	0.9377	0.056
Mof_C 	C 	0.1681	0.6913	0.5096	0.045
Mof_C 	C 	0.622	0.1776	0.395	0.056
Mof_C 	C 	0.0504	0.1814	0.0905	0.055
Mof_C 	C 	0.7976	0.3838	0.5748	0.055
Mof_C 	C 	0.9527	0.9767	0.241	-0.098
Mof_C 	C 	0.2631	0.5275	0.7869	0.059
Mof_C 	C 	0.4774	0.713	0.1425	-0.103
Mof_C 	C 	0.526	0.2151	0.5717	0.042
Mof_C 	C 	0.9381	0.515	0.588	-0.11
Mof_C 	C 	0.2741	0.6973	0.5799	0.067
Mof_C 	C 	0.7511	0.326	0.8862	0.072
Mof_C 	C 	0.8596	0.0147	0.3497	-0.097
Mof_C 	C 	0.3044	0.0511	0.7795	-0.106
Mof_C 	C 	0.7439	0.4889	0.8819	0.091
Mof_C 	C 	0.5469	0.2802	0.4886	-0.113
Mof_C 	C 	0.0693	0.0321	0.6965	0.032
Mof_C 	C 	0.9553	0.2159	0.1985	0.063
Mof_C 	C 	0.0231	0.0876	0.6799	0.057
Mof_C 	C 	0.7248	0.5255	0.6725	0.049
Mof_C 	C 	0.6189	0.9242	0.036	0.056
Mof_C 	C 	0.474	0.7849	0.4283	0.042
Mof_C 	C 	0.3892	0.6719	0.7952	0.055
Mof_C 	C 	0.378	0.8224	0.605	0.056
Mof_C 	C 	0.6456	0.0106	0.2261	0.045
Mof_C 	C 	0.2892	0.2466	0.724	0.056
Mof_C 	C 	0.0941	0.9731	0.7735	0.053
Mof_C 	C 	0.0922	0.25	0.0202	-0.106
Mof_C 	C 	0.0473	0.0233	0.759	-0.098
Mof_C 	C 	0.2496	0.4043	0.8868	0.083
Mof_C 	C 	0.8004	0.6329	0.9368	-0.111
Mof_C 	C 	0.5898	0.9535	0.9984	-0.105
Mof_C 	C 	0.6176	0.1933	0.7763	-0.107
Mof_C 	C 	0.1968	0.5846	0.8237	-0.108
Mof_C 	C 	0.7073	0.4127	0.2927	0.073
Mof_C 	C 	0.6167	0.3428	0.8144	-0.107
Mof_C 	C 	0.3194	0.3121	0.0483	-0.114
Mof_C 	C 	0.4698	0.8421	0.3466	0.064
Mof_C 	C 	0.4531	0.7198	0.5114	-0.113
Mof_C 	C 	0.1858	0.735	0.0591	0.065
Mof_C 	C 	0.5131	0.5891	0.6877	-0.109
Mof_C 	C 	0.9183	0.2962	0.5209	0.06
Mof_C 	C 	0.1733	0.1361	0.9909	-0.105
Mof_C 	C 	0.6658	0.5208	0.7799	0.062
Mof_C 	C 	0.1429	0.2569	0.9659	0.068
Mof_C 	C 	0.7816	0.6846	0.9747	0.07
Mof_C 	C 	0.749	0.6318	0.9259	0.061
Mof_C 	C 	0.4284	0.8316	0.201	0.062
Mof_C 	C 	0.3022	0.7371	0.2804	-0.101
Mof_C 	C 	0.0386	0.1314	0.0855	-0.113
Mof_C 	C 	0.6568	0.3737	0.7899	0.06
Mof_C 	C 	0.9867	0.8279	0.3794	0.074
Mof_N 	N 	0.2845	0.6502	0.2686	-0.056
Mof_N 	N 	0.3874	0.0865	0.7599	-0.063
Mof_N 	N 	0.6797	0.6426	0.1381	-0.061
Mof_N 	N 	0.1895	0.7103	0.1692	-0.059
Mof_N 	N 	0.0387	0.5802	0.3761	-0.068
Mof_N 	N 	0.0591	0.8004	0.3475	-0.073
Mof_N 	N 	0.1628	0.9293	0.7279	-0.057
Mof_N 	N 	0.7922	0.7964	0.0731	-0.063
Mof_N 	N 	0.9409	0.1696	0.1916	-0.068
Mof_N 	N 	0.8104	0.4539	0.8316	-0.054
Mof_N 	N 	0.4261	0.0731	0.9033	-0.059
Mof_N 	N 	0.7688	0.2432	0.3855	-0.062
Mof_N 	N 	0.4807	0.2088	0.6985	-0.056
Mof_N 	N 	0.7273	0.5061	0.7257	-0.063
Mof_N 	N 	0.008	0.2837	0.7195	-0.057
Mof_N 	N 	0.2304	0.6419	0.7438	-0.064
Mof_N 	N 	0.3203	0.3574	0.8619	-0.061
Mof_N 	N 	0.8372	0.0707	0.2721	-0.057
Mof_N 	N 	0.5193	0.7912	0.3015	-0.056
Mof_N 	N 	0.9613	0.4198	0.6239	-0.068
Mof_N 	N 	0.7138	0.7365	0.0014	-0.066
Mof_N 	N 	0.3871	0.7653	0.6184	-0.064
Mof_N 	N 	0.8105	0.2897	0.8308	-0.059
Mof_N 	N 	0.9409	0.1996	0.6525	-0.073
Mof_N 	N 	0.7346	0.7165	0.2219	-0.063
Mof_N 	N 	0.992	0.7163	0.2805	-0.057
Mof_N 	N 	0.7069	0.1529	0.1964	-0.063
Mof_N 	N 	0.6129	0.2347	0.3816	-0.064
Mof_N 	N 	0.2862	0.2635	0.9986	-0.066
Mof_N 	N 	0.1896	0.5461	0.1684	-0.054
Mof_N 	N 	0.2078	0.2036	0.9269	-0.063
Mof_N 	N 	0.3838	0.6541	0.7483	-0.06
Mof_N 	N 	0.1707	0.7626	0.8947	-0.059
Mof_N 	N 	0.0591	0.8304	0.8084	-0.068
Mof_N 	N 	0.5739	0.9269	0.0967	-0.059
Mof_N 	N 	0.4959	0.7995	0.1516	-0.061
Mof_N 	N 	0.8293	0.2374	0.1053	-0.059
Mof_N 	N 	0.1334	0.6495	0.4343	-0.06
Mof_N 	N 	0.5041	0.2005	0.8484	-0.061
Mof_N 	N 	0.2654	0.2835	0.7781	-0.063
Mof_N 	N 	0.7155	0.3498	0.7314	-0.056
Mof_N 	N 	0.2727	0.4939	0.2743	-0.063
Mof_N 	N 	0.8666	0.3505	0.5657	-0.06
Mof_N 	N 	0.7696	0.3581	0.2562	-0.064
Mof_N 	N 	0.2931	0.8471	0.8036	-0.063
Mof_N 	N 	0.6126	0.9135	0.2401	-0.063
Mof_N 	N 	0.2312	0.7568	0.6145	-0.062
Mof_N 	N 	0.6162	0.3459	0.2517	-0.06
Mof_O 	O 	0.1904	0.6984	0.2221	-0.313
Mof_O 	O 	0.2544	0.778	0.6429	-0.329
Mof_O 	O 	0.3573	0.7585	0.6783	-0.318
Mof_O 	O 	0.0531	0.6124	0.3303	-0.327
Mof_O 	O 	0.5989	0.8652	0.2439	-0.316
Mof_O 	O 	0.7852	0.3033	0.2761	-0.315
Mof_O 	O 	0.5362	0.7924	0.2425	-0.327
Mof_O 	O 	0.6427	0.2415	0.3217	-0.318
Mof_O 	O 	0.0997	0.7427	0.3569	-0.308
Mof_O 	O 	0.9605	0.2768	0.7116	-0.323
Mof_O 	O 	0.0395	0.7232	0.2884	-0.323
Mof_O 	O 	0.399	0.0995	0.8662	-0.33
Mof_O 	O 	0.601	0.9005	0.1338	-0.33
Mof_O 	O 	0.7456	0.222	0.3571	-0.329
Mof_O 	O 	0.4638	0.2076	0.7575	-0.327
Mof_O 	O 	0.8388	0.2293	0.1548	-0.328
Mof_O 	O 	0.1697	0.6032	0.1946	-0.297
Mof_O 	O 	0.7442	0.7893	0.1271	-0.324
Mof_O 	O 	0.9003	0.2573	0.6431	-0.308
Mof_O 	O 	0.9469	0.3876	0.6697	-0.327
Mof_O 	O 	0.7909	0.1174	0.2574	-0.333
Mof_O 	O 	0.8303	0.3968	0.8054	-0.297
Mof_O 	O 	0.2491	0.6188	0.2915	-0.329
Mof_O 	O 	0.8825	0.3717	0.6016	-0.322
Mof_O 	O 	0.2148	0.6967	0.7239	-0.315
Mof_O 	O 	0.7509	0.3812	0.7085	-0.329
Mof_O 	O 	0.2558	0.2107	0.8729	-0.324
Mof_O 	O 	0.4011	0.1348	0.7561	-0.316
Mof_O 	O 	0.6871	0.7208	0.2063	-0.311
Mof_O 	O 	0.7286	0.1959	0.1895	-0.309
Mof_O 	O 	0.2081	0.5283	0.2786	-0.308
Mof_O 	O 	0.2091	0.8826	0.7426	-0.333
Mof_O 	O 	0.4597	0.1768	0.8695	-0.319
Mof_O 	O 	0.6821	0.3241	0.2445	-0.319
Mof_O 	O 	0.7919	0.4717	0.7214	-0.308
Mof_O 	O 	0.1612	0.7707	0.8452	-0.328
Mof_O 	O 	0.8096	0.3016	0.7779	-0.313
Mof_O 	O 	0.6953	0.7845	0.0415	-0.294
Mof_O 	O 	0.1137	0.8354	0.7616	-0.294
Mof_O 	O 	0.5403	0.8232	0.1305	-0.319
Mof_O 	O 	0.6621	0.6957	0.1137	-0.317
Mof_O 	O 	0.3129	0.2792	0.7937	-0.311
Mof_O 	O 	0.3047	0.2155	0.9585	-0.294
Mof_O 	O 	0.3179	0.6759	0.7555	-0.319
Mof_O 	O 	0.3379	0.3043	0.8863	-0.317
Mof_O 	O 	0.2714	0.8041	0.8105	-0.309
Mof_O 	O 	0.8863	0.1646	0.2384	-0.294
Mof_O 	O 	0.1175	0.6283	0.3984	-0.322
Mof_C 	C 	0.1299	0.5838	0.0276	0.946
Mof_S 	S 	0.0572	0.6277	0.0064	0.297
Mof_O 	O 	0.9914	0.6559	0.0659	-0.187
Mof_O 	O 	0.079	0.6704	0.9698	-0.178
Mof_O 	O 	0.0657	0.5799	0.9682	-0.19
Mof_F 	F 	0.126	0.6233	0.0635	-0.526
Mof_F 	F 	0.1206	0.5433	0.0588	-0.547
Mof_F 	F 	0.1943	0.5567	0.9774	-0.525
Mof_C 	C 	0.8701	0.4162	0.9724	0.946
Mof_S 	S 	0.9428	0.3723	0.9936	0.297
Mof_O 	O 	0.921	0.3296	0.0302	-0.178
Mof_O 	O 	0.0086	0.3441	0.9341	-0.187
Mof_O 	O 	0.9343	0.4201	0.0318	-0.19
Mof_F 	F 	0.874	0.3767	0.9365	-0.526
Mof_F 	F 	0.8057	0.4433	0.0226	-0.525
Mof_F 	F 	0.8794	0.4567	0.9412	-0.547
_end
