data_functionalizedCrystal
_audit_creation_method	'EQeq! by Chris Wilmer'
_symmetry_space_group_name_H-M	'P1'
_symmetry_Int_Tables_number	1
_symmetry_cell_setting	triclinic
loop_
_symmetry_equiv_pos_as_xyz
  x,y,z
_cell_length_a	6.9795
_cell_length_b	29.501
_cell_length_c	15.8327
_cell_angle_alpha	90
_cell_angle_beta	101.455
_cell_angle_gamma	90
loop_
_atom_site_label
_atom_site_type_symbol
_atom_site_fract_x
_atom_site_fract_y
_atom_site_fract_z
_atom_site_charge
Mof_U 	U 	0.9826	0.46394	0.84795	-0.001
Mof_O 	O 	0.8013	0.4276	0.716	-0.197
Mof_O 	O 	0.6512	0.48327	0.7691	-0.2
Mof_O 	O 	0.2521	0.46833	0.9661	-0.183
Mof_O 	O 	0.1241	0.47161	0.0847	-0.184
Mof_O 	O 	0.172	0.09559	0.3181	-0.189
Mof_O 	O 	0.0141	0.15932	0.2693	-0.247
Mof_N 	N 	0.0975	0.40201	0.5901	-0.119
Mof_N 	N 	0.7615	0.39618	0.188	-0.126
Mof_N 	N 	0.6971	0.21035	0.3768	-0.121
Mof_C 	C 	0.6478	0.4497	0.7192	0.252
Mof_C 	C 	0.4559	0.4338	0.6696	-0.007
Mof_C 	C 	0.298	0.4628	0.6516	-0.066
Mof_H 	H 	0.3129	0.494	0.6663	0.061
Mof_C 	C 	0.1164	0.4458	0.6114	0.05
Mof_H 	H 	0.0061	0.4653	0.5993	0.018
Mof_C 	C 	0.2509	0.3733	0.6064	0.053
Mof_H 	H 	0.2324	0.3422	0.5911	0.014
Mof_C 	C 	0.4333	0.3884	0.6449	-0.077
Mof_H 	H 	0.5421	0.3684	0.6545	0.067
Mof_C 	C 	0.2579	0.4613	0.045	0.258
Mof_C 	C 	0.4361	0.4383	0.0961	0.011
Mof_C 	C 	0.4414	0.4238	0.1789	-0.078
Mof_H 	H 	0.3319	0.4284	0.2052	0.077
Mof_C 	C 	0.6069	0.4025	0.2236	0.048
Mof_H 	H 	0.61	0.3922	0.2807	0.017
Mof_C 	C 	0.7603	0.4095	0.1061	0.053
Mof_H 	H 	0.8717	0.4043	0.0814	0.034
Mof_C 	C 	0.5981	0.4305	0.0587	-0.071
Mof_H 	H 	0.5963	0.4395	0.001	0.089
Mof_C 	C 	0.1595	0.1378	0.3031	0.279
Mof_C 	C 	0.3511	0.1635	0.3294	-0.018
Mof_C 	C 	0.3632	0.2091	0.3088	-0.07
Mof_H 	H 	0.2522	0.2244	0.2772	0.049
Mof_C 	C 	0.5381	0.2319	0.3347	0.032
Mof_H 	H 	0.5453	0.2633	0.3224	0.02
Mof_C 	C 	0.6884	0.166	0.3964	0.045
Mof_H 	H 	0.8014	0.1512	0.4276	0.031
Mof_C 	C 	0.5208	0.1424	0.3721	-0.068
Mof_H 	H 	0.5188	0.1108	0.3843	0.081
Mof_C 	C 	0.9035	0.3556	0.4718	-0.17
Mof_C 	C 	0.9277	0.3786	0.3963	0.225
Mof_C 	C 	0.9244	0.3538	0.3212	-0.172
Mof_C 	C 	0.8985	0.3067	0.3192	0.213
Mof_C 	C 	0.8893	0.2839	0.3966	-0.164
Mof_C 	C 	0.8848	0.3079	0.473	0.224
Mof_C 	C 	0.901	0.3835	0.5513	0.006
Mof_H 	H 	0.808	0.4089	0.5362	0.031
Mof_H 	H 	0.8541	0.3644	0.5945	0.043
Mof_C 	C 	0.9552	0.4295	0.3982	-0.589
Mof_H 	H 	0.9312	0.4412	0.3392	0.21
Mof_H 	H 	0.0893	0.4368	0.427	0.2
Mof_H 	H 	0.8631	0.4434	0.4298	0.197
Mof_C 	C 	0.9496	0.3774	0.2399	0.008
Mof_H 	H 	0.0059	0.3558	0.2037	0.023
Mof_H 	H 	0.044	0.4026	0.2552	0.031
Mof_C 	C 	0.8818	0.2809	0.2351	-0.564
Mof_H 	H 	0.8464	0.2493	0.2436	0.198
Mof_H 	H 	0.0074	0.2818	0.2164	0.179
Mof_H 	H 	0.7807	0.2949	0.191	0.188
Mof_C 	C 	0.8944	0.233	0.3989	-0.015
Mof_H 	H 	0.9599	0.2232	0.4573	0.034
Mof_H 	H 	0.9749	0.2222	0.358	0.049
Mof_C 	C 	0.8639	0.283	0.5525	-0.592
Mof_H 	H 	0.8006	0.3027	0.5887	0.2
Mof_H 	H 	0.9935	0.2741	0.5845	0.194
Mof_H 	H 	0.784	0.2558	0.5367	0.196
Mof_U 	U 	0.0174	0.96394	0.65205	0
Mof_O 	O 	0.1987	0.9276	0.784	-0.196
Mof_O 	O 	0.3488	0.98327	0.7309	-0.2
Mof_O 	O 	0.7479	0.96833	0.5339	-0.184
Mof_O 	O 	0.8759	0.97161	0.4153	-0.184
Mof_O 	O 	0.828	0.59559	0.1819	-0.189
Mof_O 	O 	0.9859	0.65932	0.2307	-0.247
Mof_N 	N 	0.9025	0.90201	0.9099	-0.119
Mof_N 	N 	0.2385	0.89618	0.312	-0.126
Mof_N 	N 	0.3029	0.71035	0.1232	-0.121
Mof_C 	C 	0.3522	0.9497	0.7808	0.252
Mof_C 	C 	0.5441	0.9338	0.8304	-0.007
Mof_C 	C 	0.702	0.9628	0.8484	-0.066
Mof_H 	H 	0.6871	0.994	0.8337	0.061
Mof_C 	C 	0.8836	0.9458	0.8886	0.05
Mof_H 	H 	0.9939	0.9653	0.9007	0.018
Mof_C 	C 	0.7491	0.8733	0.8936	0.053
Mof_H 	H 	0.7676	0.8422	0.9089	0.014
Mof_C 	C 	0.5667	0.8884	0.8551	-0.077
Mof_H 	H 	0.4579	0.8684	0.8455	0.067
Mof_C 	C 	0.7421	0.9613	0.455	0.258
Mof_C 	C 	0.5639	0.9383	0.4039	0.011
Mof_C 	C 	0.5586	0.9238	0.3211	-0.078
Mof_H 	H 	0.6681	0.9284	0.2948	0.077
Mof_C 	C 	0.3931	0.9025	0.2764	0.048
Mof_H 	H 	0.39	0.8922	0.2193	0.017
Mof_C 	C 	0.2397	0.9095	0.3939	0.053
Mof_H 	H 	0.1283	0.9043	0.4186	0.034
Mof_C 	C 	0.4019	0.9305	0.4413	-0.071
Mof_H 	H 	0.4037	0.9395	0.499	0.089
Mof_C 	C 	0.8405	0.6378	0.1969	0.279
Mof_C 	C 	0.6489	0.6635	0.1706	-0.018
Mof_C 	C 	0.6368	0.7091	0.1912	-0.07
Mof_H 	H 	0.7478	0.7244	0.2228	0.049
Mof_C 	C 	0.4619	0.7319	0.1653	0.032
Mof_H 	H 	0.4547	0.7633	0.1776	0.02
Mof_C 	C 	0.3116	0.666	0.1036	0.045
Mof_H 	H 	0.1986	0.6512	0.0724	0.031
Mof_C 	C 	0.4792	0.6424	0.1279	-0.068
Mof_H 	H 	0.4812	0.6108	0.1157	0.081
Mof_C 	C 	0.0965	0.8556	0.0282	-0.17
Mof_C 	C 	0.0723	0.8786	0.1037	0.225
Mof_C 	C 	0.0756	0.8538	0.1788	-0.172
Mof_C 	C 	0.1015	0.8067	0.1808	0.213
Mof_C 	C 	0.1107	0.7839	0.1034	-0.164
Mof_C 	C 	0.1152	0.8079	0.027	0.224
Mof_C 	C 	0.099	0.8835	0.9487	0.006
Mof_H 	H 	0.192	0.9089	0.9638	0.031
Mof_H 	H 	0.1459	0.8644	0.9055	0.043
Mof_C 	C 	0.0448	0.9295	0.1018	-0.589
Mof_H 	H 	0.0688	0.9412	0.1608	0.209
Mof_H 	H 	0.9107	0.9368	0.073	0.2
Mof_H 	H 	0.1369	0.9434	0.0702	0.196
Mof_C 	C 	0.0504	0.8774	0.2601	0.008
Mof_H 	H 	0.9941	0.8558	0.2963	0.023
Mof_H 	H 	0.956	0.9026	0.2448	0.031
Mof_C 	C 	0.1182	0.7809	0.2649	-0.564
Mof_H 	H 	0.1536	0.7493	0.2564	0.198
Mof_H 	H 	0.9926	0.7818	0.2836	0.179
Mof_H 	H 	0.2193	0.7949	0.309	0.188
Mof_C 	C 	0.1056	0.733	0.1011	-0.015
Mof_H 	H 	0.0401	0.7232	0.0427	0.034
Mof_H 	H 	0.0251	0.7222	0.142	0.049
Mof_C 	C 	0.1361	0.783	0.9475	-0.592
Mof_H 	H 	0.1994	0.8027	0.9113	0.2
Mof_H 	H 	0.0065	0.7741	0.9155	0.194
Mof_H 	H 	0.216	0.7558	0.9633	0.196
Mof_U 	U 	0.0174	0.53606	0.15205	0
Mof_O 	O 	0.1987	0.5724	0.284	-0.196
Mof_O 	O 	0.3488	0.51673	0.2309	-0.2
Mof_O 	O 	0.7479	0.53167	0.0339	-0.183
Mof_O 	O 	0.8759	0.52839	0.9153	-0.184
Mof_O 	O 	0.828	0.90441	0.6819	-0.189
Mof_O 	O 	0.9859	0.84068	0.7307	-0.247
Mof_N 	N 	0.9025	0.59799	0.4099	-0.119
Mof_N 	N 	0.2385	0.60382	0.812	-0.126
Mof_N 	N 	0.3029	0.78965	0.6232	-0.121
Mof_C 	C 	0.3522	0.5503	0.2808	0.252
Mof_C 	C 	0.5441	0.5662	0.3304	-0.007
Mof_C 	C 	0.702	0.5372	0.3484	-0.066
Mof_H 	H 	0.6871	0.506	0.3337	0.061
Mof_C 	C 	0.8836	0.5542	0.3886	0.05
Mof_H 	H 	0.9939	0.5347	0.4007	0.018
Mof_C 	C 	0.7491	0.6267	0.3936	0.053
Mof_H 	H 	0.7676	0.6578	0.4089	0.014
Mof_C 	C 	0.5667	0.6116	0.3551	-0.077
Mof_H 	H 	0.4579	0.6316	0.3455	0.067
Mof_C 	C 	0.7421	0.5387	0.955	0.258
Mof_C 	C 	0.5639	0.5617	0.9039	0.011
Mof_C 	C 	0.5586	0.5762	0.8211	-0.078
Mof_H 	H 	0.6681	0.5716	0.7948	0.077
Mof_C 	C 	0.3931	0.5975	0.7764	0.048
Mof_H 	H 	0.39	0.6078	0.7193	0.017
Mof_C 	C 	0.2397	0.5905	0.8939	0.053
Mof_H 	H 	0.1283	0.5957	0.9186	0.034
Mof_C 	C 	0.4019	0.5695	0.9413	-0.071
Mof_H 	H 	0.4037	0.5605	0.999	0.089
Mof_C 	C 	0.8405	0.8622	0.6969	0.279
Mof_C 	C 	0.6489	0.8365	0.6706	-0.018
Mof_C 	C 	0.6368	0.7909	0.6912	-0.07
Mof_H 	H 	0.7478	0.7756	0.7228	0.049
Mof_C 	C 	0.4619	0.7681	0.6653	0.032
Mof_H 	H 	0.4547	0.7367	0.6776	0.02
Mof_C 	C 	0.3116	0.834	0.6036	0.045
Mof_H 	H 	0.1986	0.8488	0.5724	0.031
Mof_C 	C 	0.4792	0.8576	0.6279	-0.068
Mof_H 	H 	0.4812	0.8892	0.6157	0.081
Mof_C 	C 	0.0965	0.6444	0.5282	-0.17
Mof_C 	C 	0.0723	0.6214	0.6037	0.225
Mof_C 	C 	0.0756	0.6462	0.6788	-0.172
Mof_C 	C 	0.1015	0.6933	0.6808	0.213
Mof_C 	C 	0.1107	0.7161	0.6034	-0.164
Mof_C 	C 	0.1152	0.6921	0.527	0.224
Mof_C 	C 	0.099	0.6165	0.4487	0.006
Mof_H 	H 	0.192	0.5911	0.4638	0.031
Mof_H 	H 	0.1459	0.6356	0.4055	0.043
Mof_C 	C 	0.0448	0.5705	0.6018	-0.589
Mof_H 	H 	0.0688	0.5588	0.6608	0.21
Mof_H 	H 	0.9107	0.5632	0.573	0.2
Mof_H 	H 	0.1369	0.5566	0.5702	0.197
Mof_C 	C 	0.0504	0.6226	0.7601	0.008
Mof_H 	H 	0.9941	0.6442	0.7963	0.023
Mof_H 	H 	0.956	0.5974	0.7448	0.031
Mof_C 	C 	0.1182	0.7191	0.7649	-0.564
Mof_H 	H 	0.1536	0.7507	0.7564	0.198
Mof_H 	H 	0.9926	0.7182	0.7836	0.179
Mof_H 	H 	0.2193	0.7051	0.809	0.188
Mof_C 	C 	0.1056	0.767	0.6011	-0.015
Mof_H 	H 	0.0401	0.7768	0.5427	0.034
Mof_H 	H 	0.0251	0.7778	0.642	0.049
Mof_C 	C 	0.1361	0.717	0.4475	-0.592
Mof_H 	H 	0.1994	0.6973	0.4113	0.2
Mof_H 	H 	0.0065	0.7259	0.4155	0.194
Mof_H 	H 	0.216	0.7442	0.4633	0.196
Mof_U 	U 	0.9826	0.03606	0.34795	0
Mof_O 	O 	0.8013	0.0724	0.216	-0.196
Mof_O 	O 	0.6512	0.01673	0.2691	-0.2
Mof_O 	O 	0.2521	0.03167	0.4661	-0.184
Mof_O 	O 	0.1241	0.02839	0.5847	-0.184
Mof_O 	O 	0.172	0.40441	0.8181	-0.189
Mof_O 	O 	0.0141	0.34068	0.7693	-0.247
Mof_N 	N 	0.0975	0.09799	0.0901	-0.119
Mof_N 	N 	0.7615	0.10382	0.688	-0.126
Mof_N 	N 	0.6971	0.28965	0.8768	-0.121
Mof_C 	C 	0.6478	0.0503	0.2192	0.252
Mof_C 	C 	0.4559	0.0662	0.1696	-0.007
Mof_C 	C 	0.298	0.0372	0.1516	-0.066
Mof_H 	H 	0.3129	0.006	0.1663	0.061
Mof_C 	C 	0.1164	0.0542	0.1114	0.05
Mof_H 	H 	0.0061	0.0347	0.0993	0.018
Mof_C 	C 	0.2509	0.1267	0.1064	0.053
Mof_H 	H 	0.2324	0.1578	0.0911	0.014
Mof_C 	C 	0.4333	0.1116	0.1449	-0.077
Mof_H 	H 	0.5421	0.1316	0.1545	0.067
Mof_C 	C 	0.2579	0.0387	0.545	0.258
Mof_C 	C 	0.4361	0.0617	0.5961	0.011
Mof_C 	C 	0.4414	0.0762	0.6789	-0.078
Mof_H 	H 	0.3319	0.0716	0.7052	0.077
Mof_C 	C 	0.6069	0.0975	0.7236	0.048
Mof_H 	H 	0.61	0.1078	0.7807	0.017
Mof_C 	C 	0.7603	0.0905	0.6061	0.053
Mof_H 	H 	0.8717	0.0957	0.5814	0.034
Mof_C 	C 	0.5981	0.0695	0.5587	-0.071
Mof_H 	H 	0.5963	0.0605	0.501	0.089
Mof_C 	C 	0.1595	0.3622	0.8031	0.279
Mof_C 	C 	0.3511	0.3365	0.8294	-0.018
Mof_C 	C 	0.3632	0.2909	0.8088	-0.07
Mof_H 	H 	0.2522	0.2756	0.7772	0.049
Mof_C 	C 	0.5381	0.2681	0.8347	0.032
Mof_H 	H 	0.5453	0.2367	0.8224	0.02
Mof_C 	C 	0.6884	0.334	0.8964	0.045
Mof_H 	H 	0.8014	0.3488	0.9276	0.031
Mof_C 	C 	0.5208	0.3576	0.8721	-0.068
Mof_H 	H 	0.5188	0.3892	0.8843	0.081
Mof_C 	C 	0.9035	0.1444	0.9718	-0.17
Mof_C 	C 	0.9277	0.1214	0.8963	0.225
Mof_C 	C 	0.9244	0.1462	0.8212	-0.172
Mof_C 	C 	0.8985	0.1933	0.8192	0.213
Mof_C 	C 	0.8893	0.2161	0.8966	-0.164
Mof_C 	C 	0.8848	0.1921	0.973	0.224
Mof_C 	C 	0.901	0.1165	0.0513	0.006
Mof_H 	H 	0.808	0.0911	0.0362	0.031
Mof_H 	H 	0.8541	0.1356	0.0945	0.043
Mof_C 	C 	0.9552	0.0705	0.8982	-0.589
Mof_H 	H 	0.9312	0.0588	0.8392	0.209
Mof_H 	H 	0.0893	0.0632	0.927	0.2
Mof_H 	H 	0.8631	0.0566	0.9298	0.196
Mof_C 	C 	0.9496	0.1226	0.7399	0.008
Mof_H 	H 	0.0059	0.1442	0.7037	0.023
Mof_H 	H 	0.044	0.0974	0.7552	0.031
Mof_C 	C 	0.8818	0.2191	0.7351	-0.564
Mof_H 	H 	0.8464	0.2507	0.7436	0.198
Mof_H 	H 	0.0074	0.2182	0.7164	0.179
Mof_H 	H 	0.7807	0.2051	0.691	0.188
Mof_C 	C 	0.8944	0.267	0.8989	-0.015
Mof_H 	H 	0.9599	0.2768	0.9573	0.034
Mof_H 	H 	0.9749	0.2778	0.858	0.049
Mof_C 	C 	0.8639	0.217	0.0525	-0.592
Mof_H 	H 	0.8006	0.1973	0.0887	0.2
Mof_H 	H 	0.9935	0.2259	0.0845	0.194
Mof_H 	H 	0.784	0.2442	0.0367	0.196
_end
