data_functionalizedCrystal
_audit_creation_method	'EQeq! by Chris Wilmer'
_symmetry_space_group_name_H-M	'P1'
_symmetry_Int_Tables_number	1
_symmetry_cell_setting	triclinic
loop_
_symmetry_equiv_pos_as_xyz
  x,y,z
_cell_length_a	35.8186
_cell_length_b	35.8186
_cell_length_c	15.3205
_cell_angle_alpha	90
_cell_angle_beta	90
_cell_angle_gamma	120
loop_
_atom_site_label
_atom_site_type_symbol
_atom_site_fract_x
_atom_site_fract_y
_atom_site_fract_z
_atom_site_charge
Mof_O 	O 	0.48067	0.44236	0.57767	-0.415
Mof_O 	O 	0.4866	0.43616	0.43336	-0.415
Mof_C 	C 	0.47861	0.42178	0.5085	0.381
Mof_C 	C 	0.46411	0.37475	0.5226	-0.147
Mof_C 	C 	0.45685	0.34774	0.4566	0.092
Mof_H 	H 	0.462	0.3586	0.3986	0.015
Mof_C 	C 	0.44196	0.30407	0.4702	-0.164
Mof_H 	H 	0.4383	0.286	0.4217	0.1
Mof_C 	C 	0.43261	0.28696	0.5513	0.123
Mof_C 	C 	0.44214	0.31503	0.6209	-0.16
Mof_H 	H 	0.4381	0.3044	0.6789	0.085
Mof_C 	C 	0.45748	0.35845	0.6065	0.08
Mof_H 	H 	0.4635	0.3772	0.6548	0.019
Mof_C 	C 	0.41235	0.23985	0.5696	-0.072
Mof_C 	C 	0.37417	0.22024	0.6175	-0.043
Mof_H 	H 	0.3616	0.237	0.6343	0.045
Mof_H 	H 	0.5055	0.2304	0.595	0.086
Mof_O 	O 	0.14734	0.77569	0.911	-0.414
Mof_O 	O 	0.15327	0.76949	0.76669	-0.414
Mof_C 	C 	0.14528	0.75511	0.84183	0.381
Mof_C 	C 	0.13078	0.70808	0.85593	-0.146
Mof_C 	C 	0.12352	0.68107	0.78993	0.091
Mof_H 	H 	0.12867	0.69193	0.73193	0.015
Mof_C 	C 	0.10863	0.6374	0.80353	-0.164
Mof_H 	H 	0.10497	0.61933	0.75503	0.1
Mof_C 	C 	0.09928	0.62029	0.88463	0.122
Mof_C 	C 	0.10881	0.64836	0.95423	-0.16
Mof_H 	H 	0.10477	0.63773	0.01223	0.085
Mof_C 	C 	0.12415	0.69178	0.93983	0.08
Mof_H 	H 	0.13017	0.71053	0.98813	0.019
Mof_C 	C 	0.07902	0.57318	0.90293	-0.072
Mof_C 	C 	0.04084	0.55357	0.95083	-0.043
Mof_H 	H 	0.02827	0.57033	0.96763	0.045
Mof_H 	H 	0.17217	0.56373	0.92833	0.086
Mof_O 	O 	0.814	0.10903	0.24434	-0.414
Mof_O 	O 	0.81993	0.10283	0.10003	-0.414
Mof_C 	C 	0.81194	0.08845	0.17517	0.381
Mof_C 	C 	0.79744	0.04142	0.18927	-0.147
Mof_C 	C 	0.79018	0.01441	0.12327	0.092
Mof_H 	H 	0.79533	0.02527	0.06527	0.015
Mof_C 	C 	0.77529	0.97074	0.13687	-0.164
Mof_H 	H 	0.77163	0.95267	0.08837	0.1
Mof_C 	C 	0.76594	0.95363	0.21797	0.123
Mof_C 	C 	0.77547	0.9817	0.28757	-0.16
Mof_H 	H 	0.77143	0.97107	0.34557	0.085
Mof_C 	C 	0.79081	0.02512	0.27317	0.08
Mof_H 	H 	0.79683	0.04387	0.32147	0.019
Mof_C 	C 	0.74568	0.90652	0.23627	-0.072
Mof_C 	C 	0.7075	0.88691	0.28417	-0.043
Mof_H 	H 	0.69493	0.90367	0.30097	0.045
Mof_H 	H 	0.83883	0.89707	0.26167	0.086
Mof_O 	O 	0.55764	0.03831	0.57767	-0.414
Mof_O 	O 	0.56384	0.05044	0.43336	-0.414
Mof_C 	C 	0.57822	0.05683	0.5085	0.381
Mof_C 	C 	0.62525	0.08936	0.5226	-0.147
Mof_C 	C 	0.65226	0.10911	0.4566	0.092
Mof_H 	H 	0.6414	0.1034	0.3986	0.015
Mof_C 	C 	0.69593	0.13789	0.4702	-0.164
Mof_H 	H 	0.714	0.1523	0.4217	0.1
Mof_C 	C 	0.71304	0.14565	0.5513	0.123
Mof_C 	C 	0.68497	0.12711	0.6209	-0.16
Mof_H 	H 	0.6956	0.1337	0.6789	0.085
Mof_C 	C 	0.64155	0.09903	0.6065	0.08
Mof_H 	H 	0.6228	0.0863	0.6548	0.019
Mof_C 	C 	0.76015	0.1725	0.5696	-0.072
Mof_C 	C 	0.77976	0.15393	0.6175	-0.043
Mof_H 	H 	0.763	0.1246	0.6343	0.045
Mof_H 	H 	0.7696	0.2751	0.595	0.086
Mof_O 	O 	0.22431	0.37164	0.911	-0.414
Mof_O 	O 	0.23051	0.38377	0.76669	-0.414
Mof_C 	C 	0.24489	0.39016	0.84183	0.381
Mof_C 	C 	0.29192	0.42269	0.85593	-0.146
Mof_C 	C 	0.31893	0.44244	0.78993	0.091
Mof_H 	H 	0.30807	0.43673	0.73193	0.015
Mof_C 	C 	0.3626	0.47122	0.80353	-0.164
Mof_H 	H 	0.38067	0.48563	0.75503	0.1
Mof_C 	C 	0.37971	0.47898	0.88463	0.122
Mof_C 	C 	0.35164	0.46044	0.95423	-0.16
Mof_H 	H 	0.36227	0.46703	0.01223	0.085
Mof_C 	C 	0.30822	0.43236	0.93983	0.08
Mof_H 	H 	0.28947	0.41963	0.98813	0.019
Mof_C 	C 	0.42682	0.50583	0.90293	-0.072
Mof_C 	C 	0.44643	0.48726	0.95083	-0.043
Mof_H 	H 	0.42967	0.45793	0.96763	0.045
Mof_H 	H 	0.43627	0.60843	0.92833	0.086
Mof_O 	O 	0.89097	0.70498	0.24434	-0.414
Mof_O 	O 	0.89717	0.71711	0.10003	-0.414
Mof_C 	C 	0.91155	0.7235	0.17517	0.381
Mof_C 	C 	0.95858	0.75603	0.18927	-0.146
Mof_C 	C 	0.98559	0.77578	0.12327	0.091
Mof_H 	H 	0.97473	0.77007	0.06527	0.015
Mof_C 	C 	0.02926	0.80456	0.13687	-0.164
Mof_H 	H 	0.04733	0.81897	0.08837	0.1
Mof_C 	C 	0.04637	0.81232	0.21797	0.122
Mof_C 	C 	0.0183	0.79378	0.28757	-0.16
Mof_H 	H 	0.02893	0.80037	0.34557	0.085
Mof_C 	C 	0.97488	0.7657	0.27317	0.08
Mof_H 	H 	0.95613	0.75297	0.32147	0.019
Mof_C 	C 	0.09348	0.83917	0.23627	-0.072
Mof_C 	C 	0.11309	0.8206	0.28417	-0.043
Mof_H 	H 	0.09633	0.79127	0.30097	0.045
Mof_H 	H 	0.10293	0.94177	0.26167	0.086
Mof_O 	O 	0.96169	0.51933	0.57767	-0.414
Mof_O 	O 	0.94956	0.5134	0.43336	-0.414
Mof_C 	C 	0.94317	0.52139	0.5085	0.381
Mof_C 	C 	0.91064	0.53589	0.5226	-0.147
Mof_C 	C 	0.89089	0.54315	0.4566	0.092
Mof_H 	H 	0.8966	0.538	0.3986	0.015
Mof_C 	C 	0.86211	0.55804	0.4702	-0.164
Mof_H 	H 	0.8477	0.5617	0.4217	0.1
Mof_C 	C 	0.85435	0.56739	0.5513	0.123
Mof_C 	C 	0.87289	0.55786	0.6209	-0.16
Mof_H 	H 	0.8663	0.5619	0.6789	0.085
Mof_C 	C 	0.90097	0.54252	0.6065	0.08
Mof_H 	H 	0.9137	0.5365	0.6548	0.019
Mof_C 	C 	0.8275	0.58765	0.5696	-0.072
Mof_C 	C 	0.84607	0.62583	0.6175	-0.043
Mof_H 	H 	0.8754	0.6384	0.6343	0.045
Mof_H 	H 	0.7249	0.4945	0.595	0.086
Mof_O 	O 	0.62836	0.85266	0.911	-0.414
Mof_O 	O 	0.61623	0.84673	0.76669	-0.414
Mof_C 	C 	0.60984	0.85472	0.84183	0.381
Mof_C 	C 	0.57731	0.86922	0.85593	-0.146
Mof_C 	C 	0.55756	0.87648	0.78993	0.091
Mof_H 	H 	0.56327	0.87133	0.73193	0.015
Mof_C 	C 	0.52878	0.89137	0.80353	-0.164
Mof_H 	H 	0.51437	0.89503	0.75503	0.1
Mof_C 	C 	0.52102	0.90072	0.88463	0.122
Mof_C 	C 	0.53956	0.89119	0.95423	-0.16
Mof_H 	H 	0.53297	0.89523	0.01223	0.085
Mof_C 	C 	0.56764	0.87585	0.93983	0.08
Mof_H 	H 	0.58037	0.86983	0.98813	0.019
Mof_C 	C 	0.49417	0.92098	0.90293	-0.072
Mof_C 	C 	0.51274	0.95916	0.95083	-0.043
Mof_H 	H 	0.54207	0.97173	0.96763	0.045
Mof_H 	H 	0.39157	0.82783	0.92833	0.086
Mof_O 	O 	0.29502	0.186	0.24434	-0.414
Mof_O 	O 	0.28289	0.18007	0.10003	-0.414
Mof_C 	C 	0.2765	0.18806	0.17517	0.381
Mof_C 	C 	0.24397	0.20256	0.18927	-0.147
Mof_C 	C 	0.22422	0.20982	0.12327	0.092
Mof_H 	H 	0.22993	0.20467	0.06527	0.015
Mof_C 	C 	0.19544	0.22471	0.13687	-0.164
Mof_H 	H 	0.18103	0.22837	0.08837	0.1
Mof_C 	C 	0.18768	0.23406	0.21797	0.123
Mof_C 	C 	0.20622	0.22453	0.28757	-0.16
Mof_H 	H 	0.19963	0.22857	0.34557	0.085
Mof_C 	C 	0.2343	0.20919	0.27317	0.08
Mof_H 	H 	0.24703	0.20317	0.32147	0.019
Mof_C 	C 	0.16083	0.25432	0.23627	-0.072
Mof_C 	C 	0.1794	0.2925	0.28417	-0.043
Mof_H 	H 	0.20873	0.30507	0.30097	0.045
Mof_H 	H 	0.05823	0.16117	0.26167	0.086
Mof_O 	O 	0.44236	0.48067	0.42233	-0.414
Mof_O 	O 	0.43616	0.4866	0.56664	-0.414
Mof_C 	C 	0.42178	0.47861	0.4915	0.381
Mof_C 	C 	0.37475	0.46411	0.4774	-0.147
Mof_C 	C 	0.34774	0.45685	0.5434	0.092
Mof_H 	H 	0.3586	0.462	0.6014	0.015
Mof_C 	C 	0.30407	0.44196	0.5298	-0.164
Mof_H 	H 	0.286	0.4383	0.5783	0.1
Mof_C 	C 	0.28696	0.43261	0.4487	0.123
Mof_C 	C 	0.31503	0.44214	0.3791	-0.16
Mof_H 	H 	0.3044	0.4381	0.3211	0.085
Mof_C 	C 	0.35845	0.45748	0.3935	0.08
Mof_H 	H 	0.3772	0.4635	0.3452	0.019
Mof_C 	C 	0.23985	0.41235	0.4304	-0.072
Mof_C 	C 	0.22024	0.37417	0.3825	-0.043
Mof_H 	H 	0.237	0.3616	0.3657	0.045
Mof_H 	H 	0.2304	0.5055	0.405	0.086
Mof_O 	O 	0.10903	0.814	0.75566	-0.414
Mof_O 	O 	0.10283	0.81993	0.89997	-0.414
Mof_C 	C 	0.08845	0.81194	0.82483	0.381
Mof_C 	C 	0.04142	0.79744	0.81073	-0.147
Mof_C 	C 	0.01441	0.79018	0.87673	0.092
Mof_H 	H 	0.02527	0.79533	0.93473	0.015
Mof_C 	C 	0.97074	0.77529	0.86313	-0.164
Mof_H 	H 	0.95267	0.77163	0.91163	0.1
Mof_C 	C 	0.95363	0.76594	0.78203	0.123
Mof_C 	C 	0.9817	0.77547	0.71243	-0.16
Mof_H 	H 	0.97107	0.77143	0.65443	0.085
Mof_C 	C 	0.02512	0.79081	0.72683	0.08
Mof_H 	H 	0.04387	0.79683	0.67853	0.019
Mof_C 	C 	0.90652	0.74568	0.76373	-0.072
Mof_C 	C 	0.88691	0.7075	0.71583	-0.043
Mof_H 	H 	0.90367	0.69493	0.69903	0.045
Mof_H 	H 	0.89707	0.83883	0.73833	0.086
Mof_O 	O 	0.77569	0.14734	0.089	-0.414
Mof_O 	O 	0.76949	0.15327	0.23331	-0.414
Mof_C 	C 	0.75511	0.14528	0.15817	0.381
Mof_C 	C 	0.70808	0.13078	0.14407	-0.146
Mof_C 	C 	0.68107	0.12352	0.21007	0.091
Mof_H 	H 	0.69193	0.12867	0.26807	0.015
Mof_C 	C 	0.6374	0.10863	0.19647	-0.164
Mof_H 	H 	0.61933	0.10497	0.24497	0.1
Mof_C 	C 	0.62029	0.09928	0.11537	0.122
Mof_C 	C 	0.64836	0.10881	0.04577	-0.16
Mof_H 	H 	0.63773	0.10477	0.98777	0.085
Mof_C 	C 	0.69178	0.12415	0.06017	0.08
Mof_H 	H 	0.71053	0.13017	0.01187	0.019
Mof_C 	C 	0.57318	0.07902	0.09707	-0.072
Mof_C 	C 	0.55357	0.04084	0.04917	-0.043
Mof_H 	H 	0.57033	0.02827	0.03237	0.045
Mof_H 	H 	0.56373	0.17217	0.07167	0.086
Mof_O 	O 	0.03831	0.55764	0.42233	-0.414
Mof_O 	O 	0.05044	0.56384	0.56664	-0.414
Mof_C 	C 	0.05683	0.57822	0.4915	0.381
Mof_C 	C 	0.08936	0.62525	0.4774	-0.147
Mof_C 	C 	0.10911	0.65226	0.5434	0.092
Mof_H 	H 	0.1034	0.6414	0.6014	0.015
Mof_C 	C 	0.13789	0.69593	0.5298	-0.164
Mof_H 	H 	0.1523	0.714	0.5783	0.1
Mof_C 	C 	0.14565	0.71304	0.4487	0.123
Mof_C 	C 	0.12711	0.68497	0.3791	-0.16
Mof_H 	H 	0.1337	0.6956	0.3211	0.085
Mof_C 	C 	0.09903	0.64155	0.3935	0.08
Mof_H 	H 	0.0863	0.6228	0.3452	0.019
Mof_C 	C 	0.1725	0.76015	0.4304	-0.072
Mof_C 	C 	0.15393	0.77976	0.3825	-0.043
Mof_H 	H 	0.1246	0.763	0.3657	0.045
Mof_H 	H 	0.2751	0.7696	0.405	0.086
Mof_O 	O 	0.70498	0.89097	0.75566	-0.414
Mof_O 	O 	0.71711	0.89717	0.89997	-0.414
Mof_C 	C 	0.7235	0.91155	0.82483	0.381
Mof_C 	C 	0.75603	0.95858	0.81073	-0.146
Mof_C 	C 	0.77578	0.98559	0.87673	0.091
Mof_H 	H 	0.77007	0.97473	0.93473	0.015
Mof_C 	C 	0.80456	0.02926	0.86313	-0.164
Mof_H 	H 	0.81897	0.04733	0.91163	0.1
Mof_C 	C 	0.81232	0.04637	0.78203	0.122
Mof_C 	C 	0.79378	0.0183	0.71243	-0.16
Mof_H 	H 	0.80037	0.02893	0.65443	0.085
Mof_C 	C 	0.7657	0.97488	0.72683	0.08
Mof_H 	H 	0.75297	0.95613	0.67853	0.019
Mof_C 	C 	0.83917	0.09348	0.76373	-0.072
Mof_C 	C 	0.8206	0.11309	0.71583	-0.043
Mof_H 	H 	0.79127	0.09633	0.69903	0.045
Mof_H 	H 	0.94177	0.10293	0.73833	0.086
Mof_O 	O 	0.37164	0.22431	0.089	-0.414
Mof_O 	O 	0.38377	0.23051	0.23331	-0.414
Mof_C 	C 	0.39016	0.24489	0.15817	0.381
Mof_C 	C 	0.42269	0.29192	0.14407	-0.146
Mof_C 	C 	0.44244	0.31893	0.21007	0.091
Mof_H 	H 	0.43673	0.30807	0.26807	0.015
Mof_C 	C 	0.47122	0.3626	0.19647	-0.164
Mof_H 	H 	0.48563	0.38067	0.24497	0.1
Mof_C 	C 	0.47898	0.37971	0.11537	0.122
Mof_C 	C 	0.46044	0.35164	0.04577	-0.16
Mof_H 	H 	0.46703	0.36227	0.98777	0.085
Mof_C 	C 	0.43236	0.30822	0.06017	0.08
Mof_H 	H 	0.41963	0.28947	0.01187	0.019
Mof_C 	C 	0.50583	0.42682	0.09707	-0.072
Mof_C 	C 	0.48726	0.44643	0.04917	-0.043
Mof_H 	H 	0.45793	0.42967	0.03237	0.045
Mof_H 	H 	0.60843	0.43627	0.07167	0.086
Mof_O 	O 	0.51933	0.96169	0.42233	-0.414
Mof_O 	O 	0.5134	0.94956	0.56664	-0.414
Mof_C 	C 	0.52139	0.94317	0.4915	0.381
Mof_C 	C 	0.53589	0.91064	0.4774	-0.147
Mof_C 	C 	0.54315	0.89089	0.5434	0.092
Mof_H 	H 	0.538	0.8966	0.6014	0.015
Mof_C 	C 	0.55804	0.86211	0.5298	-0.164
Mof_H 	H 	0.5617	0.8477	0.5783	0.1
Mof_C 	C 	0.56739	0.85435	0.4487	0.123
Mof_C 	C 	0.55786	0.87289	0.3791	-0.16
Mof_H 	H 	0.5619	0.8663	0.3211	0.085
Mof_C 	C 	0.54252	0.90097	0.3935	0.08
Mof_H 	H 	0.5365	0.9137	0.3452	0.019
Mof_C 	C 	0.58765	0.8275	0.4304	-0.072
Mof_C 	C 	0.62583	0.84607	0.3825	-0.043
Mof_H 	H 	0.6384	0.8754	0.3657	0.045
Mof_H 	H 	0.4945	0.7249	0.405	0.086
Mof_O 	O 	0.186	0.29502	0.75566	-0.414
Mof_O 	O 	0.18007	0.28289	0.89997	-0.414
Mof_C 	C 	0.18806	0.2765	0.82483	0.381
Mof_C 	C 	0.20256	0.24397	0.81073	-0.147
Mof_C 	C 	0.20982	0.22422	0.87673	0.092
Mof_H 	H 	0.20467	0.22993	0.93473	0.015
Mof_C 	C 	0.22471	0.19544	0.86313	-0.164
Mof_H 	H 	0.22837	0.18103	0.91163	0.1
Mof_C 	C 	0.23406	0.18768	0.78203	0.123
Mof_C 	C 	0.22453	0.20622	0.71243	-0.16
Mof_H 	H 	0.22857	0.19963	0.65443	0.085
Mof_C 	C 	0.20919	0.2343	0.72683	0.08
Mof_H 	H 	0.20317	0.24703	0.67853	0.019
Mof_C 	C 	0.25432	0.16083	0.76373	-0.072
Mof_C 	C 	0.2925	0.1794	0.71583	-0.043
Mof_H 	H 	0.30507	0.20873	0.69903	0.045
Mof_H 	H 	0.16117	0.05823	0.73833	0.086
Mof_O 	O 	0.85266	0.62836	0.089	-0.414
Mof_O 	O 	0.84673	0.61623	0.23331	-0.414
Mof_C 	C 	0.85472	0.60984	0.15817	0.381
Mof_C 	C 	0.86922	0.57731	0.14407	-0.146
Mof_C 	C 	0.87648	0.55756	0.21007	0.091
Mof_H 	H 	0.87133	0.56327	0.26807	0.015
Mof_C 	C 	0.89137	0.52878	0.19647	-0.164
Mof_H 	H 	0.89503	0.51437	0.24497	0.1
Mof_C 	C 	0.90072	0.52102	0.11537	0.122
Mof_C 	C 	0.89119	0.53956	0.04577	-0.16
Mof_H 	H 	0.89523	0.53297	0.98777	0.085
Mof_C 	C 	0.87585	0.56764	0.06017	0.08
Mof_H 	H 	0.86983	0.58037	0.01187	0.019
Mof_C 	C 	0.92098	0.49417	0.09707	-0.072
Mof_C 	C 	0.95916	0.51274	0.04917	-0.043
Mof_H 	H 	0.97173	0.54207	0.03237	0.045
Mof_H 	H 	0.82783	0.39157	0.07167	0.086
Mof_O 	O 	0.51933	0.55764	0.42233	-0.414
Mof_O 	O 	0.5134	0.56384	0.56664	-0.414
Mof_C 	C 	0.52139	0.57822	0.4915	0.381
Mof_C 	C 	0.53589	0.62525	0.4774	-0.147
Mof_C 	C 	0.54315	0.65226	0.5434	0.092
Mof_H 	H 	0.538	0.6414	0.6014	0.015
Mof_C 	C 	0.55804	0.69593	0.5298	-0.164
Mof_H 	H 	0.5617	0.714	0.5783	0.1
Mof_C 	C 	0.56739	0.71304	0.4487	0.123
Mof_C 	C 	0.55786	0.68497	0.3791	-0.16
Mof_H 	H 	0.5619	0.6956	0.3211	0.085
Mof_C 	C 	0.54252	0.64155	0.3935	0.08
Mof_H 	H 	0.5365	0.6228	0.3452	0.019
Mof_C 	C 	0.58765	0.76015	0.4304	-0.072
Mof_C 	C 	0.62583	0.77976	0.3825	-0.043
Mof_H 	H 	0.6384	0.763	0.3657	0.045
Mof_H 	H 	0.4945	0.7696	0.405	0.086
Mof_O 	O 	0.186	0.89097	0.75566	-0.414
Mof_O 	O 	0.18007	0.89717	0.89997	-0.414
Mof_C 	C 	0.18806	0.91155	0.82483	0.381
Mof_C 	C 	0.20256	0.95858	0.81073	-0.147
Mof_C 	C 	0.20982	0.98559	0.87673	0.092
Mof_H 	H 	0.20467	0.97473	0.93473	0.015
Mof_C 	C 	0.22471	0.02926	0.86313	-0.164
Mof_H 	H 	0.22837	0.04733	0.91163	0.1
Mof_C 	C 	0.23406	0.04637	0.78203	0.123
Mof_C 	C 	0.22453	0.0183	0.71243	-0.16
Mof_H 	H 	0.22857	0.02893	0.65443	0.085
Mof_C 	C 	0.20919	0.97488	0.72683	0.08
Mof_H 	H 	0.20317	0.95613	0.67853	0.019
Mof_C 	C 	0.25432	0.09348	0.76373	-0.072
Mof_C 	C 	0.2925	0.11309	0.71583	-0.043
Mof_H 	H 	0.30507	0.09633	0.69903	0.045
Mof_H 	H 	0.16117	0.10293	0.73833	0.086
Mof_O 	O 	0.85266	0.22431	0.089	-0.414
Mof_O 	O 	0.84673	0.23051	0.23331	-0.414
Mof_C 	C 	0.85472	0.24489	0.15817	0.381
Mof_C 	C 	0.86922	0.29192	0.14407	-0.146
Mof_C 	C 	0.87648	0.31893	0.21007	0.091
Mof_H 	H 	0.87133	0.30807	0.26807	0.015
Mof_C 	C 	0.89137	0.3626	0.19647	-0.164
Mof_H 	H 	0.89503	0.38067	0.24497	0.1
Mof_C 	C 	0.90072	0.37971	0.11537	0.122
Mof_C 	C 	0.89119	0.35164	0.04577	-0.16
Mof_H 	H 	0.89523	0.36227	0.98777	0.085
Mof_C 	C 	0.87585	0.30822	0.06017	0.08
Mof_H 	H 	0.86983	0.28947	0.01187	0.019
Mof_C 	C 	0.92098	0.42682	0.09707	-0.072
Mof_C 	C 	0.95916	0.44643	0.04917	-0.043
Mof_H 	H 	0.97173	0.42967	0.03237	0.045
Mof_H 	H 	0.82783	0.43627	0.07167	0.086
Mof_O 	O 	0.44236	0.96169	0.42233	-0.414
Mof_O 	O 	0.43616	0.94956	0.56664	-0.414
Mof_C 	C 	0.42178	0.94317	0.4915	0.381
Mof_C 	C 	0.37475	0.91064	0.4774	-0.147
Mof_C 	C 	0.34774	0.89089	0.5434	0.092
Mof_H 	H 	0.3586	0.8966	0.6014	0.015
Mof_C 	C 	0.30407	0.86211	0.5298	-0.164
Mof_H 	H 	0.286	0.8477	0.5783	0.1
Mof_C 	C 	0.28696	0.85435	0.4487	0.123
Mof_C 	C 	0.31503	0.87289	0.3791	-0.16
Mof_H 	H 	0.3044	0.8663	0.3211	0.085
Mof_C 	C 	0.35845	0.90097	0.3935	0.08
Mof_H 	H 	0.3772	0.9137	0.3452	0.019
Mof_C 	C 	0.23985	0.8275	0.4304	-0.072
Mof_C 	C 	0.22024	0.84607	0.3825	-0.043
Mof_H 	H 	0.237	0.8754	0.3657	0.045
Mof_H 	H 	0.2304	0.7249	0.405	0.086
Mof_O 	O 	0.10903	0.29502	0.75566	-0.414
Mof_O 	O 	0.10283	0.28289	0.89997	-0.414
Mof_C 	C 	0.08845	0.2765	0.82483	0.381
Mof_C 	C 	0.04142	0.24397	0.81073	-0.146
Mof_C 	C 	0.01441	0.22422	0.87673	0.091
Mof_H 	H 	0.02527	0.22993	0.93473	0.015
Mof_C 	C 	0.97074	0.19544	0.86313	-0.164
Mof_H 	H 	0.95267	0.18103	0.91163	0.1
Mof_C 	C 	0.95363	0.18768	0.78203	0.122
Mof_C 	C 	0.9817	0.20622	0.71243	-0.16
Mof_H 	H 	0.97107	0.19963	0.65443	0.085
Mof_C 	C 	0.02512	0.2343	0.72683	0.08
Mof_H 	H 	0.04387	0.24703	0.67853	0.019
Mof_C 	C 	0.90652	0.16083	0.76373	-0.072
Mof_C 	C 	0.88691	0.1794	0.71583	-0.043
Mof_H 	H 	0.90367	0.20873	0.69903	0.045
Mof_H 	H 	0.89707	0.05823	0.73833	0.086
Mof_O 	O 	0.77569	0.62836	0.089	-0.414
Mof_O 	O 	0.76949	0.61623	0.23331	-0.414
Mof_C 	C 	0.75511	0.60984	0.15817	0.381
Mof_C 	C 	0.70808	0.57731	0.14407	-0.146
Mof_C 	C 	0.68107	0.55756	0.21007	0.091
Mof_H 	H 	0.69193	0.56327	0.26807	0.015
Mof_C 	C 	0.6374	0.52878	0.19647	-0.164
Mof_H 	H 	0.61933	0.51437	0.24497	0.1
Mof_C 	C 	0.62029	0.52102	0.11537	0.122
Mof_C 	C 	0.64836	0.53956	0.04577	-0.16
Mof_H 	H 	0.63773	0.53297	0.98777	0.085
Mof_C 	C 	0.69178	0.56764	0.06017	0.08
Mof_H 	H 	0.71053	0.58037	0.01187	0.019
Mof_C 	C 	0.57318	0.49417	0.09707	-0.072
Mof_C 	C 	0.55357	0.51274	0.04917	-0.043
Mof_H 	H 	0.57033	0.54207	0.03237	0.045
Mof_H 	H 	0.56373	0.39157	0.07167	0.086
Mof_O 	O 	0.03831	0.48067	0.42233	-0.414
Mof_O 	O 	0.05044	0.4866	0.56664	-0.414
Mof_C 	C 	0.05683	0.47861	0.4915	0.381
Mof_C 	C 	0.08936	0.46411	0.4774	-0.147
Mof_C 	C 	0.10911	0.45685	0.5434	0.092
Mof_H 	H 	0.1034	0.462	0.6014	0.015
Mof_C 	C 	0.13789	0.44196	0.5298	-0.164
Mof_H 	H 	0.1523	0.4383	0.5783	0.1
Mof_C 	C 	0.14565	0.43261	0.4487	0.123
Mof_C 	C 	0.12711	0.44214	0.3791	-0.16
Mof_H 	H 	0.1337	0.4381	0.3211	0.085
Mof_C 	C 	0.09903	0.45748	0.3935	0.08
Mof_H 	H 	0.0863	0.4635	0.3452	0.019
Mof_C 	C 	0.1725	0.41235	0.4304	-0.072
Mof_C 	C 	0.15393	0.37417	0.3825	-0.043
Mof_H 	H 	0.1246	0.3616	0.3657	0.045
Mof_H 	H 	0.2751	0.5055	0.405	0.086
Mof_O 	O 	0.70498	0.814	0.75566	-0.414
Mof_O 	O 	0.71711	0.81993	0.89997	-0.414
Mof_C 	C 	0.7235	0.81194	0.82483	0.381
Mof_C 	C 	0.75603	0.79744	0.81073	-0.147
Mof_C 	C 	0.77578	0.79018	0.87673	0.092
Mof_H 	H 	0.77007	0.79533	0.93473	0.015
Mof_C 	C 	0.80456	0.77529	0.86313	-0.164
Mof_H 	H 	0.81897	0.77163	0.91163	0.1
Mof_C 	C 	0.81232	0.76594	0.78203	0.123
Mof_C 	C 	0.79378	0.77547	0.71243	-0.16
Mof_H 	H 	0.80037	0.77143	0.65443	0.085
Mof_C 	C 	0.7657	0.79081	0.72683	0.08
Mof_H 	H 	0.75297	0.79683	0.67853	0.019
Mof_C 	C 	0.83917	0.74568	0.76373	-0.072
Mof_C 	C 	0.8206	0.7075	0.71583	-0.043
Mof_H 	H 	0.79127	0.69493	0.69903	0.045
Mof_H 	H 	0.94177	0.83883	0.73833	0.086
Mof_O 	O 	0.37164	0.14734	0.089	-0.414
Mof_O 	O 	0.38377	0.15327	0.23331	-0.414
Mof_C 	C 	0.39016	0.14528	0.15817	0.381
Mof_C 	C 	0.42269	0.13078	0.14407	-0.146
Mof_C 	C 	0.44244	0.12352	0.21007	0.091
Mof_H 	H 	0.43673	0.12867	0.26807	0.015
Mof_C 	C 	0.47122	0.10863	0.19647	-0.164
Mof_H 	H 	0.48563	0.10497	0.24497	0.1
Mof_C 	C 	0.47898	0.09928	0.11537	0.122
Mof_C 	C 	0.46044	0.10881	0.04577	-0.16
Mof_H 	H 	0.46703	0.10477	0.98777	0.085
Mof_C 	C 	0.43236	0.12415	0.06017	0.08
Mof_H 	H 	0.41963	0.13017	0.01187	0.019
Mof_C 	C 	0.50583	0.07902	0.09707	-0.072
Mof_C 	C 	0.48726	0.04084	0.04917	-0.043
Mof_H 	H 	0.45793	0.02827	0.03237	0.045
Mof_H 	H 	0.60843	0.17217	0.07167	0.086
Mof_O 	O 	0.55764	0.51933	0.57767	-0.414
Mof_O 	O 	0.56384	0.5134	0.43336	-0.414
Mof_C 	C 	0.57822	0.52139	0.5085	0.381
Mof_C 	C 	0.62525	0.53589	0.5226	-0.147
Mof_C 	C 	0.65226	0.54315	0.4566	0.092
Mof_H 	H 	0.6414	0.538	0.3986	0.015
Mof_C 	C 	0.69593	0.55804	0.4702	-0.164
Mof_H 	H 	0.714	0.5617	0.4217	0.1
Mof_C 	C 	0.71304	0.56739	0.5513	0.123
Mof_C 	C 	0.68497	0.55786	0.6209	-0.16
Mof_H 	H 	0.6956	0.5619	0.6789	0.085
Mof_C 	C 	0.64155	0.54252	0.6065	0.08
Mof_H 	H 	0.6228	0.5365	0.6548	0.019
Mof_C 	C 	0.76015	0.58765	0.5696	-0.072
Mof_C 	C 	0.77976	0.62583	0.6175	-0.043
Mof_H 	H 	0.763	0.6384	0.6343	0.045
Mof_H 	H 	0.7696	0.4945	0.595	0.086
Mof_O 	O 	0.22431	0.85266	0.911	-0.414
Mof_O 	O 	0.23051	0.84673	0.76669	-0.414
Mof_C 	C 	0.24489	0.85472	0.84183	0.381
Mof_C 	C 	0.29192	0.86922	0.85593	-0.146
Mof_C 	C 	0.31893	0.87648	0.78993	0.091
Mof_H 	H 	0.30807	0.87133	0.73193	0.015
Mof_C 	C 	0.3626	0.89137	0.80353	-0.164
Mof_H 	H 	0.38067	0.89503	0.75503	0.1
Mof_C 	C 	0.37971	0.90072	0.88463	0.122
Mof_C 	C 	0.35164	0.89119	0.95423	-0.16
Mof_H 	H 	0.36227	0.89523	0.01223	0.085
Mof_C 	C 	0.30822	0.87585	0.93983	0.08
Mof_H 	H 	0.28947	0.86983	0.98813	0.019
Mof_C 	C 	0.42682	0.92098	0.90293	-0.072
Mof_C 	C 	0.44643	0.95916	0.95083	-0.043
Mof_H 	H 	0.42967	0.97173	0.96763	0.045
Mof_H 	H 	0.43627	0.82783	0.92833	0.086
Mof_O 	O 	0.89097	0.186	0.24434	-0.414
Mof_O 	O 	0.89717	0.18007	0.10003	-0.414
Mof_C 	C 	0.91155	0.18806	0.17517	0.381
Mof_C 	C 	0.95858	0.20256	0.18927	-0.147
Mof_C 	C 	0.98559	0.20982	0.12327	0.092
Mof_H 	H 	0.97473	0.20467	0.06527	0.015
Mof_C 	C 	0.02926	0.22471	0.13687	-0.164
Mof_H 	H 	0.04733	0.22837	0.08837	0.1
Mof_C 	C 	0.04637	0.23406	0.21797	0.123
Mof_C 	C 	0.0183	0.22453	0.28757	-0.16
Mof_H 	H 	0.02893	0.22857	0.34557	0.085
Mof_C 	C 	0.97488	0.20919	0.27317	0.08
Mof_H 	H 	0.95613	0.20317	0.32147	0.019
Mof_C 	C 	0.09348	0.25432	0.23627	-0.072
Mof_C 	C 	0.11309	0.2925	0.28417	-0.043
Mof_H 	H 	0.09633	0.30507	0.30097	0.045
Mof_H 	H 	0.10293	0.16117	0.26167	0.086
Mof_O 	O 	0.96169	0.44236	0.57767	-0.414
Mof_O 	O 	0.94956	0.43616	0.43336	-0.414
Mof_C 	C 	0.94317	0.42178	0.5085	0.381
Mof_C 	C 	0.91064	0.37475	0.5226	-0.147
Mof_C 	C 	0.89089	0.34774	0.4566	0.092
Mof_H 	H 	0.8966	0.3586	0.3986	0.015
Mof_C 	C 	0.86211	0.30407	0.4702	-0.164
Mof_H 	H 	0.8477	0.286	0.4217	0.1
Mof_C 	C 	0.85435	0.28696	0.5513	0.123
Mof_C 	C 	0.87289	0.31503	0.6209	-0.16
Mof_H 	H 	0.8663	0.3044	0.6789	0.085
Mof_C 	C 	0.90097	0.35845	0.6065	0.08
Mof_H 	H 	0.9137	0.3772	0.6548	0.019
Mof_C 	C 	0.8275	0.23985	0.5696	-0.072
Mof_C 	C 	0.84607	0.22024	0.6175	-0.043
Mof_H 	H 	0.8754	0.237	0.6343	0.045
Mof_H 	H 	0.7249	0.2304	0.595	0.086
Mof_O 	O 	0.62836	0.77569	0.911	-0.414
Mof_O 	O 	0.61623	0.76949	0.76669	-0.414
Mof_C 	C 	0.60984	0.75511	0.84183	0.381
Mof_C 	C 	0.57731	0.70808	0.85593	-0.146
Mof_C 	C 	0.55756	0.68107	0.78993	0.091
Mof_H 	H 	0.56327	0.69193	0.73193	0.015
Mof_C 	C 	0.52878	0.6374	0.80353	-0.164
Mof_H 	H 	0.51437	0.61933	0.75503	0.1
Mof_C 	C 	0.52102	0.62029	0.88463	0.122
Mof_C 	C 	0.53956	0.64836	0.95423	-0.16
Mof_H 	H 	0.53297	0.63773	0.01223	0.085
Mof_C 	C 	0.56764	0.69178	0.93983	0.08
Mof_H 	H 	0.58037	0.71053	0.98813	0.019
Mof_C 	C 	0.49417	0.57318	0.90293	-0.072
Mof_C 	C 	0.51274	0.55357	0.95083	-0.043
Mof_H 	H 	0.54207	0.57033	0.96763	0.045
Mof_H 	H 	0.39157	0.56373	0.92833	0.086
Mof_O 	O 	0.29502	0.10903	0.24434	-0.414
Mof_O 	O 	0.28289	0.10283	0.10003	-0.414
Mof_C 	C 	0.2765	0.08845	0.17517	0.381
Mof_C 	C 	0.24397	0.04142	0.18927	-0.146
Mof_C 	C 	0.22422	0.01441	0.12327	0.091
Mof_H 	H 	0.22993	0.02527	0.06527	0.015
Mof_C 	C 	0.19544	0.97074	0.13687	-0.164
Mof_H 	H 	0.18103	0.95267	0.08837	0.1
Mof_C 	C 	0.18768	0.95363	0.21797	0.122
Mof_C 	C 	0.20622	0.9817	0.28757	-0.16
Mof_H 	H 	0.19963	0.97107	0.34557	0.085
Mof_C 	C 	0.2343	0.02512	0.27317	0.08
Mof_H 	H 	0.24703	0.04387	0.32147	0.019
Mof_C 	C 	0.16083	0.90652	0.23627	-0.072
Mof_C 	C 	0.1794	0.88691	0.28417	-0.043
Mof_H 	H 	0.20873	0.90367	0.30097	0.045
Mof_H 	H 	0.05823	0.89707	0.26167	0.086
Mof_O 	O 	0.48067	0.03831	0.57767	-0.414
Mof_O 	O 	0.4866	0.05044	0.43336	-0.414
Mof_C 	C 	0.47861	0.05683	0.5085	0.381
Mof_C 	C 	0.46411	0.08936	0.5226	-0.147
Mof_C 	C 	0.45685	0.10911	0.4566	0.092
Mof_H 	H 	0.462	0.1034	0.3986	0.015
Mof_C 	C 	0.44196	0.13789	0.4702	-0.164
Mof_H 	H 	0.4383	0.1523	0.4217	0.1
Mof_C 	C 	0.43261	0.14565	0.5513	0.123
Mof_C 	C 	0.44214	0.12711	0.6209	-0.16
Mof_H 	H 	0.4381	0.1337	0.6789	0.085
Mof_C 	C 	0.45748	0.09903	0.6065	0.08
Mof_H 	H 	0.4635	0.0863	0.6548	0.019
Mof_C 	C 	0.41235	0.1725	0.5696	-0.072
Mof_C 	C 	0.37417	0.15393	0.6175	-0.043
Mof_H 	H 	0.3616	0.1246	0.6343	0.045
Mof_H 	H 	0.5055	0.2751	0.595	0.086
Mof_O 	O 	0.14734	0.37164	0.911	-0.414
Mof_O 	O 	0.15327	0.38377	0.76669	-0.414
Mof_C 	C 	0.14528	0.39016	0.84183	0.381
Mof_C 	C 	0.13078	0.42269	0.85593	-0.146
Mof_C 	C 	0.12352	0.44244	0.78993	0.091
Mof_H 	H 	0.12867	0.43673	0.73193	0.015
Mof_C 	C 	0.10863	0.47122	0.80353	-0.164
Mof_H 	H 	0.10497	0.48563	0.75503	0.1
Mof_C 	C 	0.09928	0.47898	0.88463	0.122
Mof_C 	C 	0.10881	0.46044	0.95423	-0.16
Mof_H 	H 	0.10477	0.46703	0.01223	0.085
Mof_C 	C 	0.12415	0.43236	0.93983	0.08
Mof_H 	H 	0.13017	0.41963	0.98813	0.019
Mof_C 	C 	0.07902	0.50583	0.90293	-0.072
Mof_C 	C 	0.04084	0.48726	0.95083	-0.043
Mof_H 	H 	0.02827	0.45793	0.96763	0.045
Mof_H 	H 	0.17217	0.60843	0.92833	0.086
Mof_O 	O 	0.814	0.70498	0.24434	-0.414
Mof_O 	O 	0.81993	0.71711	0.10003	-0.414
Mof_C 	C 	0.81194	0.7235	0.17517	0.381
Mof_C 	C 	0.79744	0.75603	0.18927	-0.147
Mof_C 	C 	0.79018	0.77578	0.12327	0.092
Mof_H 	H 	0.79533	0.77007	0.06527	0.015
Mof_C 	C 	0.77529	0.80456	0.13687	-0.164
Mof_H 	H 	0.77163	0.81897	0.08837	0.1
Mof_C 	C 	0.76594	0.81232	0.21797	0.123
Mof_C 	C 	0.77547	0.79378	0.28757	-0.16
Mof_H 	H 	0.77143	0.80037	0.34557	0.085
Mof_C 	C 	0.79081	0.7657	0.27317	0.08
Mof_H 	H 	0.79683	0.75297	0.32147	0.019
Mof_C 	C 	0.74568	0.83917	0.23627	-0.072
Mof_C 	C 	0.7075	0.8206	0.28417	-0.043
Mof_H 	H 	0.69493	0.79127	0.30097	0.045
Mof_H 	H 	0.83883	0.94177	0.26167	0.086
Mof_Cu	Cu	0.49661	0.50339	0.58522	0.905
Mof_Cu	Cu	0.16328	0.83672	0.91855	0.905
Mof_Cu	Cu	0.82994	0.17006	0.25189	0.905
Mof_Cu	Cu	0.49661	0.99322	0.58522	0.905
Mof_Cu	Cu	0.16328	0.32655	0.91855	0.905
Mof_Cu	Cu	0.82994	0.65989	0.25189	0.905
Mof_Cu	Cu	0.00678	0.50339	0.58522	0.905
Mof_Cu	Cu	0.67345	0.83672	0.91855	0.905
Mof_Cu	Cu	0.34011	0.17006	0.25189	0.905
Mof_Cu	Cu	0.50339	0.49661	0.41478	0.905
Mof_Cu	Cu	0.17006	0.82994	0.74811	0.905
Mof_Cu	Cu	0.83672	0.16328	0.08145	0.905
Mof_Cu	Cu	0.99322	0.49661	0.41478	0.905
Mof_Cu	Cu	0.65989	0.82994	0.74811	0.905
Mof_Cu	Cu	0.32655	0.16328	0.08145	0.905
Mof_Cu	Cu	0.50339	0.00678	0.41478	0.905
Mof_Cu	Cu	0.17006	0.34011	0.74811	0.905
Mof_Cu	Cu	0.83672	0.67345	0.08145	0.905
Mof_O 	O 	0.46923	0.23461	0.4992	-0.175
Mof_C 	C 	0.35367	0.17683	0.6419	0.004
Mof_C 	C 	0.43064	0.21532	0.545	0.124
Mof_C 	C 	0.5064	0.2532	0.5581	-0.171
Mof_H 	H 	0.533	0.2665	0.5238	0.09
Mof_O 	O 	0.1359	0.56795	0.83253	-0.175
Mof_C 	C 	0.02034	0.51017	0.97523	0.004
Mof_C 	C 	0.09731	0.54865	0.87833	0.124
Mof_C 	C 	0.17307	0.58653	0.89143	-0.171
Mof_H 	H 	0.19967	0.59983	0.85713	0.09
Mof_O 	O 	0.80256	0.90128	0.16587	-0.175
Mof_C 	C 	0.687	0.8435	0.30857	0.004
Mof_C 	C 	0.76397	0.88199	0.21167	0.124
Mof_C 	C 	0.83973	0.91987	0.22477	-0.171
Mof_H 	H 	0.86633	0.93317	0.19047	0.09
Mof_O 	O 	0.76539	0.23461	0.4992	-0.175
Mof_C 	C 	0.82317	0.17683	0.6419	0.004
Mof_C 	C 	0.78468	0.21532	0.545	0.124
Mof_C 	C 	0.7468	0.2532	0.5581	-0.171
Mof_H 	H 	0.7335	0.2665	0.5238	0.09
Mof_O 	O 	0.43205	0.56795	0.83253	-0.175
Mof_C 	C 	0.48983	0.51017	0.97523	0.004
Mof_C 	C 	0.45135	0.54865	0.87833	0.124
Mof_C 	C 	0.41347	0.58653	0.89143	-0.171
Mof_H 	H 	0.40017	0.59983	0.85713	0.09
Mof_O 	O 	0.09872	0.90128	0.16587	-0.175
Mof_C 	C 	0.1565	0.8435	0.30857	0.004
Mof_C 	C 	0.11801	0.88199	0.21167	0.124
Mof_C 	C 	0.08013	0.91987	0.22477	-0.171
Mof_H 	H 	0.06683	0.93317	0.19047	0.09
Mof_O 	O 	0.76539	0.53077	0.4992	-0.175
Mof_C 	C 	0.82317	0.64633	0.6419	0.004
Mof_C 	C 	0.78468	0.56936	0.545	0.124
Mof_C 	C 	0.7468	0.4936	0.5581	-0.171
Mof_H 	H 	0.7335	0.467	0.5238	0.09
Mof_O 	O 	0.43205	0.8641	0.83253	-0.175
Mof_C 	C 	0.48983	0.97966	0.97523	0.004
Mof_C 	C 	0.45135	0.90269	0.87833	0.124
Mof_C 	C 	0.41347	0.82693	0.89143	-0.171
Mof_H 	H 	0.40017	0.80033	0.85713	0.09
Mof_O 	O 	0.09872	0.19744	0.16587	-0.175
Mof_C 	C 	0.1565	0.313	0.30857	0.004
Mof_C 	C 	0.11801	0.23603	0.21167	0.124
Mof_C 	C 	0.08013	0.16027	0.22477	-0.171
Mof_H 	H 	0.06683	0.13367	0.19047	0.09
Mof_O 	O 	0.23461	0.46923	0.5008	-0.175
Mof_C 	C 	0.17683	0.35367	0.3581	0.004
Mof_C 	C 	0.21532	0.43064	0.455	0.124
Mof_C 	C 	0.2532	0.5064	0.4419	-0.171
Mof_H 	H 	0.2665	0.533	0.4762	0.09
Mof_O 	O 	0.90128	0.80256	0.83413	-0.175
Mof_C 	C 	0.8435	0.687	0.69143	0.004
Mof_C 	C 	0.88199	0.76397	0.78833	0.124
Mof_C 	C 	0.91987	0.83973	0.77523	-0.171
Mof_H 	H 	0.93317	0.86633	0.80953	0.09
Mof_O 	O 	0.56795	0.1359	0.16747	-0.175
Mof_C 	C 	0.51017	0.02034	0.02477	0.004
Mof_C 	C 	0.54865	0.09731	0.12167	0.124
Mof_C 	C 	0.58653	0.17307	0.10857	-0.171
Mof_H 	H 	0.59983	0.19967	0.14287	0.09
Mof_O 	O 	0.23461	0.76539	0.5008	-0.175
Mof_C 	C 	0.17683	0.82317	0.3581	0.004
Mof_C 	C 	0.21532	0.78468	0.455	0.124
Mof_C 	C 	0.2532	0.7468	0.4419	-0.171
Mof_H 	H 	0.2665	0.7335	0.4762	0.09
Mof_O 	O 	0.90128	0.09872	0.83413	-0.175
Mof_C 	C 	0.8435	0.1565	0.69143	0.004
Mof_C 	C 	0.88199	0.11801	0.78833	0.124
Mof_C 	C 	0.91987	0.08013	0.77523	-0.171
Mof_H 	H 	0.93317	0.06683	0.80953	0.09
Mof_O 	O 	0.56795	0.43205	0.16747	-0.175
Mof_C 	C 	0.51017	0.48983	0.02477	0.004
Mof_C 	C 	0.54865	0.45135	0.12167	0.124
Mof_C 	C 	0.58653	0.41347	0.10857	-0.171
Mof_H 	H 	0.59983	0.40017	0.14287	0.09
Mof_O 	O 	0.53077	0.76539	0.5008	-0.175
Mof_C 	C 	0.64633	0.82317	0.3581	0.004
Mof_C 	C 	0.56936	0.78468	0.455	0.124
Mof_C 	C 	0.4936	0.7468	0.4419	-0.171
Mof_H 	H 	0.467	0.7335	0.4762	0.09
Mof_O 	O 	0.19744	0.09872	0.83413	-0.175
Mof_C 	C 	0.313	0.1565	0.69143	0.004
Mof_C 	C 	0.23603	0.11801	0.78833	0.124
Mof_C 	C 	0.16027	0.08013	0.77523	-0.171
Mof_H 	H 	0.13367	0.06683	0.80953	0.09
Mof_O 	O 	0.8641	0.43205	0.16747	-0.175
Mof_C 	C 	0.97966	0.48983	0.02477	0.004
Mof_C 	C 	0.90269	0.45135	0.12167	0.124
Mof_C 	C 	0.82693	0.41347	0.10857	-0.171
Mof_H 	H 	0.80033	0.40017	0.14287	0.09
_end
