data_functionalizedCrystal
_audit_creation_method	'EQeq! by Chris Wilmer'
_symmetry_space_group_name_H-M	'P1'
_symmetry_Int_Tables_number	1
_symmetry_cell_setting	triclinic
loop_
_symmetry_equiv_pos_as_xyz
  x,y,z
_cell_length_a	34.307
_cell_length_b	14.392
_cell_length_c	34.931
_cell_angle_alpha	90
_cell_angle_beta	106.22
_cell_angle_gamma	90
loop_
_atom_site_label
_atom_site_type_symbol
_atom_site_fract_x
_atom_site_fract_y
_atom_site_fract_z
_atom_site_charge
Mof_Zn	Zn	0.14103	0.61617	0.07496	1.164
Mof_Zn	Zn	0.16182	0.8428	0.26128	1.164
Mof_Zn	Zn	0.88447	0.08701	0.43744	1.165
Mof_I 	I 	0.0811	0.71761	0.07318	-0.369
Mof_I 	I 	0.2074	0.67616	0.0651	-0.367
Mof_I 	I 	0.22696	0.75118	0.28872	-0.379
Mof_I 	I 	0.1166	0.81707	0.19128	-0.383
Mof_I 	I 	0.86412	0.07452	0.50127	-0.367
Mof_I 	I 	0.90123	0.23623	0.40662	-0.383
Mof_N 	N 	0.1574	0.5497	0.1298	-0.268
Mof_C 	C 	0.1723	0.5977	0.1636	0.068
Mof_H 	H 	0.1729	0.6636	0.1626	-0.013
Mof_C 	C 	0.1868	0.5539	0.1999	-0.12
Mof_H 	H 	0.1986	0.5897	0.2231	0.08
Mof_C 	C 	0.1844	0.4583	0.2029	0.053
Mof_C 	C 	0.1674	0.4084	0.1676	-0.114
Mof_H 	H 	0.165	0.3427	0.1681	0.09
Mof_C 	C 	0.1545	0.4563	0.1327	0.065
Mof_H 	H 	0.1427	0.4221	0.109	0
Mof_N 	N 	0.1763	0.9837	0.2684	-0.267
Mof_C 	C 	0.205	0.0178	0.2997	0.074
Mof_H 	H 	0.2189	0.9757	0.3198	-0.011
Mof_C 	C 	0.2155	0.1094	0.3041	-0.118
Mof_H 	H 	0.2358	0.1307	0.3268	0.081
Mof_C 	C 	0.1952	0.1718	0.2738	0.054
Mof_C 	C 	0.1657	0.1373	0.2416	-0.111
Mof_H 	H 	0.1519	0.1779	0.2208	0.082
Mof_C 	C 	0.1563	0.0439	0.2396	0.053
Mof_H 	H 	0.1354	0.0212	0.2176	-0.009
Mof_N 	N 	0.3396	0.523	0.3935	-0.272
Mof_C 	C 	0.33	0.4324	0.3956	0.075
Mof_H 	H 	0.3446	0.3974	0.418	-0.017
Mof_C 	C 	0.3001	0.3883	0.3666	-0.123
Mof_H 	H 	0.2945	0.3244	0.3694	0.077
Mof_C 	C 	0.2783	0.4372	0.3338	0.055
Mof_C 	C 	0.2876	0.5312	0.3308	-0.125
Mof_H 	H 	0.2737	0.567	0.3083	0.096
Mof_C 	C 	0.3179	0.5707	0.3618	0.069
Mof_H 	H 	0.3235	0.635	0.3603	-0.008
Mof_C 	C 	0.2011	0.407	0.2403	0.101
Mof_N 	N 	0.188	0.32	0.2423	-0.136
Mof_C 	C 	0.2071	0.2729	0.2742	0.108
Mof_N 	N 	0.2365	0.3039	0.3055	-0.137
Mof_C 	C 	0.2462	0.3944	0.3011	0.084
Mof_N 	N 	0.23	0.4482	0.269	-0.138
Mof_N 	N 	0.1319	0.8242	0.3041	-0.277
Mof_C 	C 	0.1099	0.8923	0.3138	0.072
Mof_H 	H 	0.1065	0.9484	0.2989	-0.017
Mof_C 	C 	0.0917	0.8852	0.3445	-0.12
Mof_H 	H 	0.0767	0.9356	0.3509	0.083
Mof_C 	C 	0.0958	0.8036	0.3654	0.058
Mof_C 	C 	0.1171	0.73	0.3546	-0.12
Mof_H 	H 	0.1198	0.6722	0.3682	0.083
Mof_C 	C 	0.1339	0.7437	0.3235	0.071
Mof_H 	H 	0.1477	0.6933	0.3155	-0.014
Mof_N 	N 	0.9331	0.0029	0.4381	-0.274
Mof_C 	C 	0.9527	0.9513	0.4693	0.073
Mof_H 	H 	0.9438	0.9529	0.4927	-0.01
Mof_C 	C 	0.9856	0.8954	0.4689	-0.115
Mof_H 	H 	0.9988	0.8591	0.4915	0.075
Mof_C 	C 	0.9986	0.8935	0.4355	0.061
Mof_C 	C 	0.9783	0.9475	0.4023	-0.113
Mof_H 	H 	0.9866	0.9472	0.3785	0.086
Mof_C 	C 	0.9463	0.0001	0.4056	0.078
Mof_H 	H 	0.9327	0.0372	0.3835	-0.014
Mof_N 	N 	0.1205	0.4926	0.536	-0.271
Mof_C 	C 	0.0832	0.5256	0.5306	0.068
Mof_H 	H 	0.0661	0.4968	0.5444	-0.01
Mof_C 	C 	0.068	0.6009	0.5056	-0.113
Mof_H 	H 	0.0417	0.625	0.5036	0.082
Mof_C 	C 	0.0915	0.6391	0.484	0.043
Mof_C 	C 	0.1315	0.6041	0.4892	-0.107
Mof_H 	H 	0.1487	0.6299	0.4749	0.079
Mof_C 	C 	0.1448	0.5313	0.5158	0.053
Mof_H 	H 	0.1715	0.5082	0.5199	-0.005
Mof_C 	C 	0.0788	0.7917	0.4	0.11
Mof_N 	N 	0.049	0.8496	0.402	-0.136
Mof_C 	C 	0.0335	0.8331	0.4324	0.105
Mof_N 	N 	0.0454	0.7658	0.4597	-0.143
Mof_C 	C 	0.0762	0.7158	0.4547	0.106
Mof_N 	N 	0.094	0.7249	0.4258	-0.138
Mof_Zn	Zn	0.64103	0.11617	0.07496	1.163
Mof_Zn	Zn	0.66182	0.3428	0.26128	1.163
Mof_Zn	Zn	0.38447	0.58701	0.43744	1.164
Mof_I 	I 	0.5811	0.21761	0.07318	-0.37
Mof_I 	I 	0.7074	0.17616	0.0651	-0.368
Mof_I 	I 	0.72696	0.25118	0.28872	-0.38
Mof_I 	I 	0.6166	0.31707	0.19128	-0.384
Mof_I 	I 	0.36412	0.57452	0.50127	-0.368
Mof_I 	I 	0.40123	0.73623	0.40662	-0.384
Mof_N 	N 	0.6574	0.0497	0.1298	-0.269
Mof_C 	C 	0.6723	0.0977	0.1636	0.067
Mof_H 	H 	0.6729	0.1636	0.1626	-0.014
Mof_C 	C 	0.6868	0.0539	0.1999	-0.121
Mof_H 	H 	0.6986	0.0897	0.2231	0.08
Mof_C 	C 	0.6844	0.9583	0.2029	0.053
Mof_C 	C 	0.6674	0.9084	0.1676	-0.115
Mof_H 	H 	0.665	0.8427	0.1681	0.091
Mof_C 	C 	0.6545	0.9563	0.1327	0.066
Mof_H 	H 	0.6427	0.9221	0.109	0
Mof_N 	N 	0.6763	0.4837	0.2684	-0.267
Mof_C 	C 	0.705	0.5178	0.2997	0.074
Mof_H 	H 	0.7189	0.4757	0.3198	-0.011
Mof_C 	C 	0.7155	0.6094	0.3041	-0.118
Mof_H 	H 	0.7358	0.6307	0.3268	0.081
Mof_C 	C 	0.6952	0.6718	0.2738	0.054
Mof_C 	C 	0.6657	0.6373	0.2416	-0.111
Mof_H 	H 	0.6519	0.6779	0.2208	0.082
Mof_C 	C 	0.6563	0.5439	0.2396	0.053
Mof_H 	H 	0.6354	0.5212	0.2176	-0.009
Mof_N 	N 	0.8396	0.023	0.3935	-0.273
Mof_C 	C 	0.83	0.9324	0.3956	0.075
Mof_H 	H 	0.8446	0.8974	0.418	-0.017
Mof_C 	C 	0.8001	0.8883	0.3666	-0.123
Mof_H 	H 	0.7945	0.8244	0.3694	0.077
Mof_C 	C 	0.7783	0.9372	0.3338	0.055
Mof_C 	C 	0.7876	0.0312	0.3308	-0.125
Mof_H 	H 	0.7737	0.067	0.3083	0.096
Mof_C 	C 	0.8179	0.0707	0.3618	0.069
Mof_H 	H 	0.8235	0.135	0.3603	-0.008
Mof_C 	C 	0.7011	0.907	0.2403	0.101
Mof_N 	N 	0.688	0.82	0.2423	-0.136
Mof_C 	C 	0.7071	0.7729	0.2742	0.108
Mof_N 	N 	0.7365	0.8039	0.3055	-0.137
Mof_C 	C 	0.7462	0.8944	0.3011	0.084
Mof_N 	N 	0.73	0.9482	0.269	-0.138
Mof_N 	N 	0.6319	0.3242	0.3041	-0.277
Mof_C 	C 	0.6099	0.3923	0.3138	0.072
Mof_H 	H 	0.6065	0.4484	0.2989	-0.017
Mof_C 	C 	0.5917	0.3852	0.3445	-0.12
Mof_H 	H 	0.5767	0.4356	0.3509	0.083
Mof_C 	C 	0.5958	0.3036	0.3654	0.058
Mof_C 	C 	0.6171	0.23	0.3546	-0.12
Mof_H 	H 	0.6198	0.1722	0.3682	0.083
Mof_C 	C 	0.6339	0.2437	0.3235	0.071
Mof_H 	H 	0.6477	0.1933	0.3155	-0.014
Mof_N 	N 	0.4331	0.5029	0.4381	-0.274
Mof_C 	C 	0.4527	0.4513	0.4693	0.073
Mof_H 	H 	0.4438	0.4529	0.4927	-0.01
Mof_C 	C 	0.4856	0.3954	0.4689	-0.115
Mof_H 	H 	0.4988	0.3591	0.4915	0.075
Mof_C 	C 	0.4986	0.3935	0.4355	0.061
Mof_C 	C 	0.4783	0.4475	0.4023	-0.113
Mof_H 	H 	0.4866	0.4472	0.3785	0.086
Mof_C 	C 	0.4463	0.5001	0.4056	0.078
Mof_H 	H 	0.4327	0.5372	0.3835	-0.014
Mof_N 	N 	0.6205	0.9926	0.536	-0.271
Mof_C 	C 	0.5832	0.0256	0.5306	0.068
Mof_H 	H 	0.5661	0.9968	0.5444	-0.01
Mof_C 	C 	0.568	0.1009	0.5056	-0.113
Mof_H 	H 	0.5417	0.125	0.5036	0.083
Mof_C 	C 	0.5915	0.1391	0.484	0.043
Mof_C 	C 	0.6315	0.1041	0.4892	-0.107
Mof_H 	H 	0.6487	0.1299	0.4749	0.079
Mof_C 	C 	0.6448	0.0313	0.5158	0.053
Mof_H 	H 	0.6715	0.0082	0.5199	-0.005
Mof_C 	C 	0.5788	0.2917	0.4	0.11
Mof_N 	N 	0.549	0.3496	0.402	-0.136
Mof_C 	C 	0.5335	0.3331	0.4324	0.105
Mof_N 	N 	0.5454	0.2658	0.4597	-0.143
Mof_C 	C 	0.5762	0.2158	0.4547	0.106
Mof_N 	N 	0.594	0.2249	0.4258	-0.138
Mof_Zn	Zn	0.14103	0.38383	0.57496	1.163
Mof_Zn	Zn	0.16182	0.1572	0.76128	1.163
Mof_Zn	Zn	0.88447	0.91299	0.93744	1.164
Mof_I 	I 	0.0811	0.28239	0.57318	-0.37
Mof_I 	I 	0.2074	0.32384	0.5651	-0.368
Mof_I 	I 	0.22696	0.24882	0.78872	-0.38
Mof_I 	I 	0.1166	0.18293	0.69128	-0.384
Mof_I 	I 	0.86412	0.92548	0.00127	-0.368
Mof_I 	I 	0.90123	0.76377	0.90662	-0.384
Mof_N 	N 	0.1574	0.4503	0.6298	-0.269
Mof_C 	C 	0.1723	0.4023	0.6636	0.067
Mof_H 	H 	0.1729	0.3364	0.6626	-0.014
Mof_C 	C 	0.1868	0.4461	0.6999	-0.121
Mof_H 	H 	0.1986	0.4103	0.7231	0.079
Mof_C 	C 	0.1844	0.5417	0.7029	0.053
Mof_C 	C 	0.1674	0.5916	0.6676	-0.114
Mof_H 	H 	0.165	0.6573	0.6681	0.09
Mof_C 	C 	0.1545	0.5437	0.6327	0.065
Mof_H 	H 	0.1427	0.5779	0.609	0
Mof_N 	N 	0.1763	0.0163	0.7684	-0.267
Mof_C 	C 	0.205	0.9822	0.7997	0.074
Mof_H 	H 	0.2189	0.0243	0.8198	-0.011
Mof_C 	C 	0.2155	0.8906	0.8041	-0.118
Mof_H 	H 	0.2358	0.8693	0.8268	0.081
Mof_C 	C 	0.1952	0.8282	0.7738	0.054
Mof_C 	C 	0.1657	0.8627	0.7416	-0.111
Mof_H 	H 	0.1519	0.8221	0.7208	0.082
Mof_C 	C 	0.1563	0.9561	0.7396	0.053
Mof_H 	H 	0.1354	0.9788	0.7176	-0.009
Mof_N 	N 	0.3396	0.477	0.8935	-0.272
Mof_C 	C 	0.33	0.5676	0.8956	0.075
Mof_H 	H 	0.3446	0.6026	0.918	-0.017
Mof_C 	C 	0.3001	0.6117	0.8666	-0.123
Mof_H 	H 	0.2945	0.6756	0.8694	0.077
Mof_C 	C 	0.2783	0.5628	0.8338	0.055
Mof_C 	C 	0.2876	0.4688	0.8308	-0.125
Mof_H 	H 	0.2737	0.433	0.8083	0.096
Mof_C 	C 	0.3179	0.4293	0.8618	0.069
Mof_H 	H 	0.3235	0.365	0.8603	-0.008
Mof_C 	C 	0.2011	0.593	0.7403	0.101
Mof_N 	N 	0.188	0.68	0.7423	-0.136
Mof_C 	C 	0.2071	0.7271	0.7742	0.108
Mof_N 	N 	0.2365	0.6961	0.8055	-0.137
Mof_C 	C 	0.2462	0.6056	0.8011	0.084
Mof_N 	N 	0.23	0.5518	0.769	-0.138
Mof_N 	N 	0.1319	0.1758	0.8041	-0.277
Mof_C 	C 	0.1099	0.1077	0.8138	0.072
Mof_H 	H 	0.1065	0.0516	0.7989	-0.017
Mof_C 	C 	0.0917	0.1148	0.8445	-0.12
Mof_H 	H 	0.0767	0.0644	0.8509	0.083
Mof_C 	C 	0.0958	0.1964	0.8654	0.058
Mof_C 	C 	0.1171	0.27	0.8546	-0.12
Mof_H 	H 	0.1198	0.3278	0.8682	0.083
Mof_C 	C 	0.1339	0.2563	0.8235	0.071
Mof_H 	H 	0.1477	0.3067	0.8155	-0.014
Mof_N 	N 	0.9331	0.9971	0.9381	-0.275
Mof_C 	C 	0.9527	0.0487	0.9693	0.073
Mof_H 	H 	0.9438	0.0471	0.9927	-0.01
Mof_C 	C 	0.9856	0.1046	0.9689	-0.115
Mof_H 	H 	0.9988	0.1409	0.9915	0.074
Mof_C 	C 	0.9986	0.1065	0.9355	0.061
Mof_C 	C 	0.9783	0.0525	0.9023	-0.113
Mof_H 	H 	0.9866	0.0528	0.8785	0.085
Mof_C 	C 	0.9463	0.9999	0.9056	0.078
Mof_H 	H 	0.9327	0.9628	0.8835	-0.014
Mof_N 	N 	0.1205	0.5074	0.036	-0.271
Mof_C 	C 	0.0832	0.4744	0.0306	0.068
Mof_H 	H 	0.0661	0.5032	0.0444	-0.01
Mof_C 	C 	0.068	0.3991	0.0056	-0.113
Mof_H 	H 	0.0417	0.375	0.0036	0.082
Mof_C 	C 	0.0915	0.3609	0.984	0.043
Mof_C 	C 	0.1315	0.3959	0.9892	-0.107
Mof_H 	H 	0.1487	0.3701	0.9749	0.079
Mof_C 	C 	0.1448	0.4687	0.0158	0.053
Mof_H 	H 	0.1715	0.4918	0.0199	-0.005
Mof_C 	C 	0.0788	0.2083	0.9	0.11
Mof_N 	N 	0.049	0.1504	0.902	-0.136
Mof_C 	C 	0.0335	0.1669	0.9324	0.105
Mof_N 	N 	0.0454	0.2342	0.9597	-0.143
Mof_C 	C 	0.0762	0.2842	0.9547	0.106
Mof_N 	N 	0.094	0.2751	0.9258	-0.138
Mof_Zn	Zn	0.64103	0.88383	0.57496	1.163
Mof_Zn	Zn	0.66182	0.6572	0.76128	1.163
Mof_Zn	Zn	0.38447	0.41299	0.93744	1.164
Mof_I 	I 	0.5811	0.78239	0.57318	-0.37
Mof_I 	I 	0.7074	0.82384	0.5651	-0.368
Mof_I 	I 	0.72696	0.74882	0.78872	-0.38
Mof_I 	I 	0.6166	0.68293	0.69128	-0.384
Mof_I 	I 	0.36412	0.42548	0.00127	-0.368
Mof_I 	I 	0.40123	0.26377	0.90662	-0.384
Mof_N 	N 	0.6574	0.9503	0.6298	-0.269
Mof_C 	C 	0.6723	0.9023	0.6636	0.067
Mof_H 	H 	0.6729	0.8364	0.6626	-0.014
Mof_C 	C 	0.6868	0.9461	0.6999	-0.121
Mof_H 	H 	0.6986	0.9103	0.7231	0.08
Mof_C 	C 	0.6844	0.0417	0.7029	0.053
Mof_C 	C 	0.6674	0.0916	0.6676	-0.114
Mof_H 	H 	0.665	0.1573	0.6681	0.091
Mof_C 	C 	0.6545	0.0437	0.6327	0.065
Mof_H 	H 	0.6427	0.0779	0.609	0
Mof_N 	N 	0.6763	0.5163	0.7684	-0.267
Mof_C 	C 	0.705	0.4822	0.7997	0.074
Mof_H 	H 	0.7189	0.5243	0.8198	-0.011
Mof_C 	C 	0.7155	0.3906	0.8041	-0.118
Mof_H 	H 	0.7358	0.3693	0.8268	0.081
Mof_C 	C 	0.6952	0.3282	0.7738	0.054
Mof_C 	C 	0.6657	0.3627	0.7416	-0.111
Mof_H 	H 	0.6519	0.3221	0.7208	0.082
Mof_C 	C 	0.6563	0.4561	0.7396	0.053
Mof_H 	H 	0.6354	0.4788	0.7176	-0.009
Mof_N 	N 	0.8396	0.977	0.8935	-0.273
Mof_C 	C 	0.83	0.0676	0.8956	0.075
Mof_H 	H 	0.8446	0.1026	0.918	-0.017
Mof_C 	C 	0.8001	0.1117	0.8666	-0.123
Mof_H 	H 	0.7945	0.1756	0.8694	0.077
Mof_C 	C 	0.7783	0.0628	0.8338	0.055
Mof_C 	C 	0.7876	0.9688	0.8308	-0.125
Mof_H 	H 	0.7737	0.933	0.8083	0.096
Mof_C 	C 	0.8179	0.9293	0.8618	0.069
Mof_H 	H 	0.8235	0.865	0.8603	-0.008
Mof_C 	C 	0.7011	0.093	0.7403	0.101
Mof_N 	N 	0.688	0.18	0.7423	-0.136
Mof_C 	C 	0.7071	0.2271	0.7742	0.108
Mof_N 	N 	0.7365	0.1961	0.8055	-0.137
Mof_C 	C 	0.7462	0.1056	0.8011	0.084
Mof_N 	N 	0.73	0.0518	0.769	-0.138
Mof_N 	N 	0.6319	0.6758	0.8041	-0.277
Mof_C 	C 	0.6099	0.6077	0.8138	0.072
Mof_H 	H 	0.6065	0.5516	0.7989	-0.017
Mof_C 	C 	0.5917	0.6148	0.8445	-0.12
Mof_H 	H 	0.5767	0.5644	0.8509	0.083
Mof_C 	C 	0.5958	0.6964	0.8654	0.058
Mof_C 	C 	0.6171	0.77	0.8546	-0.12
Mof_H 	H 	0.6198	0.8278	0.8682	0.083
Mof_C 	C 	0.6339	0.7563	0.8235	0.071
Mof_H 	H 	0.6477	0.8067	0.8155	-0.014
Mof_N 	N 	0.4331	0.4971	0.9381	-0.274
Mof_C 	C 	0.4527	0.5487	0.9693	0.073
Mof_H 	H 	0.4438	0.5471	0.9927	-0.01
Mof_C 	C 	0.4856	0.6046	0.9689	-0.115
Mof_H 	H 	0.4988	0.6409	0.9915	0.075
Mof_C 	C 	0.4986	0.6065	0.9355	0.061
Mof_C 	C 	0.4783	0.5525	0.9023	-0.113
Mof_H 	H 	0.4866	0.5528	0.8785	0.086
Mof_C 	C 	0.4463	0.4999	0.9056	0.078
Mof_H 	H 	0.4327	0.4628	0.8835	-0.014
Mof_N 	N 	0.6205	0.0074	0.036	-0.271
Mof_C 	C 	0.5832	0.9744	0.0306	0.069
Mof_H 	H 	0.5661	0.0032	0.0444	-0.01
Mof_C 	C 	0.568	0.8991	0.0056	-0.113
Mof_H 	H 	0.5417	0.875	0.0036	0.083
Mof_C 	C 	0.5915	0.8609	0.984	0.043
Mof_C 	C 	0.6315	0.8959	0.9892	-0.108
Mof_H 	H 	0.6487	0.8701	0.9749	0.079
Mof_C 	C 	0.6448	0.9687	0.0158	0.053
Mof_H 	H 	0.6715	0.9918	0.0199	-0.005
Mof_C 	C 	0.5788	0.7083	0.9	0.11
Mof_N 	N 	0.549	0.6504	0.902	-0.136
Mof_C 	C 	0.5335	0.6669	0.9324	0.105
Mof_N 	N 	0.5454	0.7342	0.9597	-0.143
Mof_C 	C 	0.5762	0.7842	0.9547	0.106
Mof_N 	N 	0.594	0.7751	0.9258	-0.138
Mof_Zn	Zn	0.85897	0.61617	0.42504	1.163
Mof_Zn	Zn	0.83818	0.8428	0.23872	1.163
Mof_Zn	Zn	0.11553	0.08701	0.06256	1.164
Mof_I 	I 	0.9189	0.71761	0.42682	-0.37
Mof_I 	I 	0.7926	0.67616	0.4349	-0.368
Mof_I 	I 	0.77304	0.75118	0.21128	-0.38
Mof_I 	I 	0.8834	0.81707	0.30872	-0.384
Mof_I 	I 	0.13588	0.07452	0.99873	-0.368
Mof_I 	I 	0.09877	0.23623	0.09338	-0.384
Mof_N 	N 	0.8426	0.5497	0.3702	-0.269
Mof_C 	C 	0.8277	0.5977	0.3364	0.067
Mof_H 	H 	0.8271	0.6636	0.3374	-0.014
Mof_C 	C 	0.8132	0.5539	0.3001	-0.121
Mof_H 	H 	0.8014	0.5897	0.2769	0.079
Mof_C 	C 	0.8156	0.4583	0.2971	0.053
Mof_C 	C 	0.8326	0.4084	0.3324	-0.114
Mof_H 	H 	0.835	0.3427	0.3319	0.09
Mof_C 	C 	0.8455	0.4563	0.3673	0.065
Mof_H 	H 	0.8573	0.4221	0.391	0
Mof_N 	N 	0.8237	0.9837	0.2316	-0.267
Mof_C 	C 	0.795	0.0178	0.2003	0.074
Mof_H 	H 	0.7811	0.9757	0.1802	-0.011
Mof_C 	C 	0.7845	0.1094	0.1959	-0.118
Mof_H 	H 	0.7642	0.1307	0.1732	0.081
Mof_C 	C 	0.8048	0.1718	0.2262	0.054
Mof_C 	C 	0.8343	0.1373	0.2584	-0.111
Mof_H 	H 	0.8481	0.1779	0.2792	0.082
Mof_C 	C 	0.8437	0.0439	0.2604	0.053
Mof_H 	H 	0.8646	0.0212	0.2824	-0.009
Mof_N 	N 	0.6604	0.523	0.1065	-0.272
Mof_C 	C 	0.67	0.4324	0.1044	0.075
Mof_H 	H 	0.6554	0.3974	0.082	-0.017
Mof_C 	C 	0.6999	0.3883	0.1334	-0.123
Mof_H 	H 	0.7055	0.3244	0.1306	0.077
Mof_C 	C 	0.7217	0.4372	0.1662	0.055
Mof_C 	C 	0.7124	0.5312	0.1692	-0.125
Mof_H 	H 	0.7263	0.567	0.1917	0.096
Mof_C 	C 	0.6821	0.5707	0.1382	0.069
Mof_H 	H 	0.6765	0.635	0.1397	-0.008
Mof_C 	C 	0.7989	0.407	0.2597	0.101
Mof_N 	N 	0.812	0.32	0.2577	-0.136
Mof_C 	C 	0.7929	0.2729	0.2258	0.108
Mof_N 	N 	0.7635	0.3039	0.1945	-0.137
Mof_C 	C 	0.7538	0.3944	0.1989	0.084
Mof_N 	N 	0.77	0.4482	0.231	-0.138
Mof_N 	N 	0.8681	0.8242	0.1959	-0.277
Mof_C 	C 	0.8901	0.8923	0.1862	0.072
Mof_H 	H 	0.8935	0.9484	0.2011	-0.017
Mof_C 	C 	0.9083	0.8852	0.1555	-0.12
Mof_H 	H 	0.9233	0.9356	0.1491	0.083
Mof_C 	C 	0.9042	0.8036	0.1346	0.058
Mof_C 	C 	0.8829	0.73	0.1454	-0.12
Mof_H 	H 	0.8802	0.6722	0.1318	0.083
Mof_C 	C 	0.8661	0.7437	0.1765	0.071
Mof_H 	H 	0.8523	0.6933	0.1845	-0.014
Mof_N 	N 	0.0669	0.0029	0.0619	-0.275
Mof_C 	C 	0.0473	0.9513	0.0307	0.073
Mof_H 	H 	0.0562	0.9529	0.0073	-0.01
Mof_C 	C 	0.0144	0.8954	0.0311	-0.115
Mof_H 	H 	0.0012	0.8591	0.0085	0.074
Mof_C 	C 	0.0014	0.8935	0.0645	0.061
Mof_C 	C 	0.0217	0.9475	0.0977	-0.113
Mof_H 	H 	0.0134	0.9472	0.1215	0.085
Mof_C 	C 	0.0537	0.0001	0.0944	0.078
Mof_H 	H 	0.0673	0.0372	0.1165	-0.014
Mof_N 	N 	0.8795	0.4926	0.964	-0.271
Mof_C 	C 	0.9168	0.5256	0.9694	0.068
Mof_H 	H 	0.9339	0.4968	0.9556	-0.01
Mof_C 	C 	0.932	0.6009	0.9944	-0.113
Mof_H 	H 	0.9583	0.625	0.9964	0.082
Mof_C 	C 	0.9085	0.6391	0.016	0.043
Mof_C 	C 	0.8685	0.6041	0.0108	-0.107
Mof_H 	H 	0.8513	0.6299	0.0251	0.079
Mof_C 	C 	0.8552	0.5313	0.9842	0.053
Mof_H 	H 	0.8285	0.5082	0.9801	-0.005
Mof_C 	C 	0.9212	0.7917	0.1	0.11
Mof_N 	N 	0.951	0.8496	0.098	-0.136
Mof_C 	C 	0.9665	0.8331	0.0676	0.105
Mof_N 	N 	0.9546	0.7658	0.0403	-0.143
Mof_C 	C 	0.9238	0.7158	0.0453	0.106
Mof_N 	N 	0.906	0.7249	0.0742	-0.138
Mof_Zn	Zn	0.35897	0.11617	0.42504	1.163
Mof_Zn	Zn	0.33818	0.3428	0.23872	1.163
Mof_Zn	Zn	0.61553	0.58701	0.06256	1.164
Mof_I 	I 	0.4189	0.21761	0.42682	-0.37
Mof_I 	I 	0.2926	0.17616	0.4349	-0.368
Mof_I 	I 	0.27304	0.25118	0.21128	-0.38
Mof_I 	I 	0.3834	0.31707	0.30872	-0.384
Mof_I 	I 	0.63588	0.57452	0.99873	-0.368
Mof_I 	I 	0.59877	0.73623	0.09338	-0.384
Mof_N 	N 	0.3426	0.0497	0.3702	-0.269
Mof_C 	C 	0.3277	0.0977	0.3364	0.067
Mof_H 	H 	0.3271	0.1636	0.3374	-0.014
Mof_C 	C 	0.3132	0.0539	0.3001	-0.121
Mof_H 	H 	0.3014	0.0897	0.2769	0.08
Mof_C 	C 	0.3156	0.9583	0.2971	0.053
Mof_C 	C 	0.3326	0.9084	0.3324	-0.114
Mof_H 	H 	0.335	0.8427	0.3319	0.091
Mof_C 	C 	0.3455	0.9563	0.3673	0.065
Mof_H 	H 	0.3573	0.9221	0.391	0
Mof_N 	N 	0.3237	0.4837	0.2316	-0.267
Mof_C 	C 	0.295	0.5178	0.2003	0.074
Mof_H 	H 	0.2811	0.4757	0.1802	-0.011
Mof_C 	C 	0.2845	0.6094	0.1959	-0.118
Mof_H 	H 	0.2642	0.6307	0.1732	0.081
Mof_C 	C 	0.3048	0.6718	0.2262	0.054
Mof_C 	C 	0.3343	0.6373	0.2584	-0.111
Mof_H 	H 	0.3481	0.6779	0.2792	0.082
Mof_C 	C 	0.3437	0.5439	0.2604	0.053
Mof_H 	H 	0.3646	0.5212	0.2824	-0.009
Mof_N 	N 	0.1604	0.023	0.1065	-0.273
Mof_C 	C 	0.17	0.9324	0.1044	0.075
Mof_H 	H 	0.1554	0.8974	0.082	-0.017
Mof_C 	C 	0.1999	0.8883	0.1334	-0.123
Mof_H 	H 	0.2055	0.8244	0.1306	0.077
Mof_C 	C 	0.2217	0.9372	0.1662	0.055
Mof_C 	C 	0.2124	0.0312	0.1692	-0.125
Mof_H 	H 	0.2263	0.067	0.1917	0.096
Mof_C 	C 	0.1821	0.0707	0.1382	0.069
Mof_H 	H 	0.1765	0.135	0.1397	-0.008
Mof_C 	C 	0.2989	0.907	0.2597	0.101
Mof_N 	N 	0.312	0.82	0.2577	-0.136
Mof_C 	C 	0.2929	0.7729	0.2258	0.108
Mof_N 	N 	0.2635	0.8039	0.1945	-0.137
Mof_C 	C 	0.2538	0.8944	0.1989	0.084
Mof_N 	N 	0.27	0.9482	0.231	-0.138
Mof_N 	N 	0.3681	0.3242	0.1959	-0.277
Mof_C 	C 	0.3901	0.3923	0.1862	0.072
Mof_H 	H 	0.3935	0.4484	0.2011	-0.017
Mof_C 	C 	0.4083	0.3852	0.1555	-0.12
Mof_H 	H 	0.4233	0.4356	0.1491	0.083
Mof_C 	C 	0.4042	0.3036	0.1346	0.058
Mof_C 	C 	0.3829	0.23	0.1454	-0.12
Mof_H 	H 	0.3802	0.1722	0.1318	0.083
Mof_C 	C 	0.3661	0.2437	0.1765	0.071
Mof_H 	H 	0.3523	0.1933	0.1845	-0.014
Mof_N 	N 	0.5669	0.5029	0.0619	-0.274
Mof_C 	C 	0.5473	0.4513	0.0307	0.073
Mof_H 	H 	0.5562	0.4529	0.0073	-0.01
Mof_C 	C 	0.5144	0.3954	0.0311	-0.115
Mof_H 	H 	0.5012	0.3591	0.0085	0.075
Mof_C 	C 	0.5014	0.3935	0.0645	0.061
Mof_C 	C 	0.5217	0.4475	0.0977	-0.113
Mof_H 	H 	0.5134	0.4472	0.1215	0.086
Mof_C 	C 	0.5537	0.5001	0.0944	0.078
Mof_H 	H 	0.5673	0.5372	0.1165	-0.014
Mof_N 	N 	0.3795	0.9926	0.964	-0.271
Mof_C 	C 	0.4168	0.0256	0.9694	0.069
Mof_H 	H 	0.4339	0.9968	0.9556	-0.01
Mof_C 	C 	0.432	0.1009	0.9944	-0.113
Mof_H 	H 	0.4583	0.125	0.9964	0.083
Mof_C 	C 	0.4085	0.1391	0.016	0.043
Mof_C 	C 	0.3685	0.1041	0.0108	-0.108
Mof_H 	H 	0.3513	0.1299	0.0251	0.079
Mof_C 	C 	0.3552	0.0313	0.9842	0.053
Mof_H 	H 	0.3285	0.0082	0.9801	-0.005
Mof_C 	C 	0.4212	0.2917	0.1	0.11
Mof_N 	N 	0.451	0.3496	0.098	-0.136
Mof_C 	C 	0.4665	0.3331	0.0676	0.105
Mof_N 	N 	0.4546	0.2658	0.0403	-0.143
Mof_C 	C 	0.4238	0.2158	0.0453	0.106
Mof_N 	N 	0.406	0.2249	0.0742	-0.138
Mof_Zn	Zn	0.85897	0.38383	0.92504	1.163
Mof_Zn	Zn	0.83818	0.1572	0.73872	1.163
Mof_Zn	Zn	0.11553	0.91299	0.56256	1.164
Mof_I 	I 	0.9189	0.28239	0.92682	-0.37
Mof_I 	I 	0.7926	0.32384	0.9349	-0.368
Mof_I 	I 	0.77304	0.24882	0.71128	-0.38
Mof_I 	I 	0.8834	0.18293	0.80872	-0.384
Mof_I 	I 	0.13588	0.92548	0.49873	-0.368
Mof_I 	I 	0.09877	0.76377	0.59338	-0.384
Mof_N 	N 	0.8426	0.4503	0.8702	-0.269
Mof_C 	C 	0.8277	0.4023	0.8364	0.067
Mof_H 	H 	0.8271	0.3364	0.8374	-0.014
Mof_C 	C 	0.8132	0.4461	0.8001	-0.121
Mof_H 	H 	0.8014	0.4103	0.7769	0.079
Mof_C 	C 	0.8156	0.5417	0.7971	0.053
Mof_C 	C 	0.8326	0.5916	0.8324	-0.114
Mof_H 	H 	0.835	0.6573	0.8319	0.09
Mof_C 	C 	0.8455	0.5437	0.8673	0.065
Mof_H 	H 	0.8573	0.5779	0.891	0
Mof_N 	N 	0.8237	0.0163	0.7316	-0.267
Mof_C 	C 	0.795	0.9822	0.7003	0.074
Mof_H 	H 	0.7811	0.0243	0.6802	-0.011
Mof_C 	C 	0.7845	0.8906	0.6959	-0.118
Mof_H 	H 	0.7642	0.8693	0.6732	0.081
Mof_C 	C 	0.8048	0.8282	0.7262	0.054
Mof_C 	C 	0.8343	0.8627	0.7584	-0.111
Mof_H 	H 	0.8481	0.8221	0.7792	0.082
Mof_C 	C 	0.8437	0.9561	0.7604	0.053
Mof_H 	H 	0.8646	0.9788	0.7824	-0.009
Mof_N 	N 	0.6604	0.477	0.6065	-0.272
Mof_C 	C 	0.67	0.5676	0.6044	0.075
Mof_H 	H 	0.6554	0.6026	0.582	-0.017
Mof_C 	C 	0.6999	0.6117	0.6334	-0.123
Mof_H 	H 	0.7055	0.6756	0.6306	0.077
Mof_C 	C 	0.7217	0.5628	0.6662	0.055
Mof_C 	C 	0.7124	0.4688	0.6692	-0.125
Mof_H 	H 	0.7263	0.433	0.6917	0.096
Mof_C 	C 	0.6821	0.4293	0.6382	0.069
Mof_H 	H 	0.6765	0.365	0.6397	-0.008
Mof_C 	C 	0.7989	0.593	0.7597	0.101
Mof_N 	N 	0.812	0.68	0.7577	-0.136
Mof_C 	C 	0.7929	0.7271	0.7258	0.108
Mof_N 	N 	0.7635	0.6961	0.6945	-0.137
Mof_C 	C 	0.7538	0.6056	0.6989	0.084
Mof_N 	N 	0.77	0.5518	0.731	-0.138
Mof_N 	N 	0.8681	0.1758	0.6959	-0.277
Mof_C 	C 	0.8901	0.1077	0.6862	0.072
Mof_H 	H 	0.8935	0.0516	0.7011	-0.017
Mof_C 	C 	0.9083	0.1148	0.6555	-0.12
Mof_H 	H 	0.9233	0.0644	0.6491	0.083
Mof_C 	C 	0.9042	0.1964	0.6346	0.058
Mof_C 	C 	0.8829	0.27	0.6454	-0.12
Mof_H 	H 	0.8802	0.3278	0.6318	0.083
Mof_C 	C 	0.8661	0.2563	0.6765	0.071
Mof_H 	H 	0.8523	0.3067	0.6845	-0.014
Mof_N 	N 	0.0669	0.9971	0.5619	-0.274
Mof_C 	C 	0.0473	0.0487	0.5307	0.073
Mof_H 	H 	0.0562	0.0471	0.5073	-0.01
Mof_C 	C 	0.0144	0.1046	0.5311	-0.115
Mof_H 	H 	0.0012	0.1409	0.5085	0.075
Mof_C 	C 	0.0014	0.1065	0.5645	0.061
Mof_C 	C 	0.0217	0.0525	0.5977	-0.113
Mof_H 	H 	0.0134	0.0528	0.6215	0.086
Mof_C 	C 	0.0537	0.9999	0.5944	0.078
Mof_H 	H 	0.0673	0.9628	0.6165	-0.014
Mof_N 	N 	0.8795	0.5074	0.464	-0.271
Mof_C 	C 	0.9168	0.4744	0.4694	0.068
Mof_H 	H 	0.9339	0.5032	0.4556	-0.01
Mof_C 	C 	0.932	0.3991	0.4944	-0.113
Mof_H 	H 	0.9583	0.375	0.4964	0.082
Mof_C 	C 	0.9085	0.3609	0.516	0.043
Mof_C 	C 	0.8685	0.3959	0.5108	-0.107
Mof_H 	H 	0.8513	0.3701	0.5251	0.079
Mof_C 	C 	0.8552	0.4687	0.4842	0.053
Mof_H 	H 	0.8285	0.4918	0.4801	-0.005
Mof_C 	C 	0.9212	0.2083	0.6	0.11
Mof_N 	N 	0.951	0.1504	0.598	-0.136
Mof_C 	C 	0.9665	0.1669	0.5676	0.105
Mof_N 	N 	0.9546	0.2342	0.5403	-0.143
Mof_C 	C 	0.9238	0.2842	0.5453	0.106
Mof_N 	N 	0.906	0.2751	0.5742	-0.138
Mof_Zn	Zn	0.35897	0.88383	0.92504	1.163
Mof_Zn	Zn	0.33818	0.6572	0.73872	1.163
Mof_Zn	Zn	0.61553	0.41299	0.56256	1.164
Mof_I 	I 	0.4189	0.78239	0.92682	-0.37
Mof_I 	I 	0.2926	0.82384	0.9349	-0.368
Mof_I 	I 	0.27304	0.74882	0.71128	-0.38
Mof_I 	I 	0.3834	0.68293	0.80872	-0.384
Mof_I 	I 	0.63588	0.42548	0.49873	-0.368
Mof_I 	I 	0.59877	0.26377	0.59338	-0.384
Mof_N 	N 	0.3426	0.9503	0.8702	-0.269
Mof_C 	C 	0.3277	0.9023	0.8364	0.067
Mof_H 	H 	0.3271	0.8364	0.8374	-0.014
Mof_C 	C 	0.3132	0.9461	0.8001	-0.121
Mof_H 	H 	0.3014	0.9103	0.7769	0.08
Mof_C 	C 	0.3156	0.0417	0.7971	0.053
Mof_C 	C 	0.3326	0.0916	0.8324	-0.115
Mof_H 	H 	0.335	0.1573	0.8319	0.091
Mof_C 	C 	0.3455	0.0437	0.8673	0.066
Mof_H 	H 	0.3573	0.0779	0.891	0
Mof_N 	N 	0.3237	0.5163	0.7316	-0.267
Mof_C 	C 	0.295	0.4822	0.7003	0.074
Mof_H 	H 	0.2811	0.5243	0.6802	-0.011
Mof_C 	C 	0.2845	0.3906	0.6959	-0.118
Mof_H 	H 	0.2642	0.3693	0.6732	0.081
Mof_C 	C 	0.3048	0.3282	0.7262	0.054
Mof_C 	C 	0.3343	0.3627	0.7584	-0.111
Mof_H 	H 	0.3481	0.3221	0.7792	0.082
Mof_C 	C 	0.3437	0.4561	0.7604	0.053
Mof_H 	H 	0.3646	0.4788	0.7824	-0.009
Mof_N 	N 	0.1604	0.977	0.6065	-0.273
Mof_C 	C 	0.17	0.0676	0.6044	0.075
Mof_H 	H 	0.1554	0.1026	0.582	-0.017
Mof_C 	C 	0.1999	0.1117	0.6334	-0.123
Mof_H 	H 	0.2055	0.1756	0.6306	0.077
Mof_C 	C 	0.2217	0.0628	0.6662	0.055
Mof_C 	C 	0.2124	0.9688	0.6692	-0.125
Mof_H 	H 	0.2263	0.933	0.6917	0.096
Mof_C 	C 	0.1821	0.9293	0.6382	0.069
Mof_H 	H 	0.1765	0.865	0.6397	-0.008
Mof_C 	C 	0.2989	0.093	0.7597	0.101
Mof_N 	N 	0.312	0.18	0.7577	-0.136
Mof_C 	C 	0.2929	0.2271	0.7258	0.108
Mof_N 	N 	0.2635	0.1961	0.6945	-0.137
Mof_C 	C 	0.2538	0.1056	0.6989	0.084
Mof_N 	N 	0.27	0.0518	0.731	-0.138
Mof_N 	N 	0.3681	0.6758	0.6959	-0.277
Mof_C 	C 	0.3901	0.6077	0.6862	0.072
Mof_H 	H 	0.3935	0.5516	0.7011	-0.017
Mof_C 	C 	0.4083	0.6148	0.6555	-0.12
Mof_H 	H 	0.4233	0.5644	0.6491	0.083
Mof_C 	C 	0.4042	0.6964	0.6346	0.058
Mof_C 	C 	0.3829	0.77	0.6454	-0.12
Mof_H 	H 	0.3802	0.8278	0.6318	0.083
Mof_C 	C 	0.3661	0.7563	0.6765	0.071
Mof_H 	H 	0.3523	0.8067	0.6845	-0.014
Mof_N 	N 	0.5669	0.4971	0.5619	-0.274
Mof_C 	C 	0.5473	0.5487	0.5307	0.073
Mof_H 	H 	0.5562	0.5471	0.5073	-0.01
Mof_C 	C 	0.5144	0.6046	0.5311	-0.115
Mof_H 	H 	0.5012	0.6409	0.5085	0.075
Mof_C 	C 	0.5014	0.6065	0.5645	0.061
Mof_C 	C 	0.5217	0.5525	0.5977	-0.113
Mof_H 	H 	0.5134	0.5528	0.6215	0.086
Mof_C 	C 	0.5537	0.4999	0.5944	0.078
Mof_H 	H 	0.5673	0.4628	0.6165	-0.014
Mof_N 	N 	0.3795	0.0074	0.464	-0.271
Mof_C 	C 	0.4168	0.9744	0.4694	0.068
Mof_H 	H 	0.4339	0.0032	0.4556	-0.01
Mof_C 	C 	0.432	0.8991	0.4944	-0.113
Mof_H 	H 	0.4583	0.875	0.4964	0.083
Mof_C 	C 	0.4085	0.8609	0.516	0.043
Mof_C 	C 	0.3685	0.8959	0.5108	-0.107
Mof_H 	H 	0.3513	0.8701	0.5251	0.079
Mof_C 	C 	0.3552	0.9687	0.4842	0.053
Mof_H 	H 	0.3285	0.9918	0.4801	-0.005
Mof_C 	C 	0.4212	0.7083	0.6	0.11
Mof_N 	N 	0.451	0.6504	0.598	-0.136
Mof_C 	C 	0.4665	0.6669	0.5676	0.105
Mof_N 	N 	0.4546	0.7342	0.5403	-0.143
Mof_C 	C 	0.4238	0.7842	0.5453	0.106
Mof_N 	N 	0.406	0.7751	0.5742	-0.138
_end
