data_functionalizedCrystal
_audit_creation_method	'EQeq! by Chris Wilmer'
_symmetry_space_group_name_H-M	'P1'
_symmetry_Int_Tables_number	1
_symmetry_cell_setting	triclinic
loop_
_symmetry_equiv_pos_as_xyz
  x,y,z
_cell_length_a	10.2792
_cell_length_b	10.2792
_cell_length_c	14.5376
_cell_angle_alpha	90
_cell_angle_beta	90
_cell_angle_gamma	90
loop_
_atom_site_label
_atom_site_type_symbol
_atom_site_fract_x
_atom_site_fract_y
_atom_site_fract_z
_atom_site_charge
Mof_Tb	Tb	0.85129	0.85129	0.375	2.444
Mof_Tb	Tb	0.14871	0.14871	0.875	2.331
Mof_Tb	Tb	0.14871	0.85129	0.625	2.377
Mof_Tb	Tb	0.85129	0.14871	0.125	2.34
Mof_H 	H 	0.9267	0.4358	0.3717	-0.084
Mof_H 	H 	0.0733	0.5642	0.8717	-0.075
Mof_H 	H 	0.5642	0.9267	0.6217	-0.075
Mof_H 	H 	0.4358	0.0733	0.1217	-0.082
Mof_H 	H 	0.0733	0.4358	0.6283	-0.078
Mof_H 	H 	0.9267	0.5642	0.1283	-0.076
Mof_H 	H 	0.4358	0.9267	0.3783	-0.084
Mof_H 	H 	0.5642	0.0733	0.8783	-0.065
Mof_H 	H 	1.08683e-32	0.101	0.5	-0.104
Mof_H 	H 	-0	0.899	-0	-0.073
Mof_H 	H 	0.899	0	0.75	-0.072
Mof_H 	H 	0.101	0	0.25	-0.103
Mof_C 	C 	0.9595	0.3949	0.4231	0.348
Mof_C 	C 	0.959	0.261	0.4233	-0.358
Mof_C 	C 	0.9143	0.1855	0.3402	0.625
Mof_C 	C 	0.0405	0.6051	0.9231	0.313
Mof_C 	C 	0.041	0.739	0.9233	-0.342
Mof_C 	C 	0.0857	0.8145	0.8402	0.606
Mof_C 	C 	0.6051	0.9595	0.6731	0.329
Mof_C 	C 	0.739	0.959	0.6733	-0.33
Mof_C 	C 	0.8145	0.9143	0.5902	0.614
Mof_C 	C 	0.3949	0.0405	0.1731	0.311
Mof_C 	C 	0.261	0.041	0.1733	-0.389
Mof_C 	C 	0.1855	0.0857	0.0902	0.62
Mof_C 	C 	0.0405	0.3949	0.5769	0.31
Mof_C 	C 	0.041	0.261	0.5767	-0.387
Mof_C 	C 	0.0857	0.1855	0.6598	0.62
Mof_C 	C 	0.9595	0.6051	0.0769	0.325
Mof_C 	C 	0.959	0.739	0.0767	-0.333
Mof_C 	C 	0.9143	0.8145	0.1598	0.61
Mof_C 	C 	0.3949	0.9595	0.3269	0.348
Mof_C 	C 	0.261	0.959	0.3267	-0.359
Mof_C 	C 	0.1855	0.9143	0.4098	0.626
Mof_C 	C 	0.6051	0.0405	0.8269	0.29
Mof_C 	C 	0.739	0.041	0.8267	-0.354
Mof_C 	C 	0.8145	0.0857	0.9098	0.606
Mof_C 	C 	-5.56558e-33	0.461	0.5	-0.418
Mof_C 	C 	2.65134e-33	0.194	0.5	0.266
Mof_C 	C 	2.65134e-33	0.609	0.5	0.598
Mof_C 	C 	-4.10846e-33	0.539	-0	-0.416
Mof_C 	C 	-0	0.806	-0	0.225
Mof_C 	C 	-0	0.391	-0	0.569
Mof_C 	C 	0.539	0	0.75	-0.397
Mof_C 	C 	0.806	0	0.75	0.246
Mof_C 	C 	0.391	0	0.75	0.587
Mof_C 	C 	0.461	0	0.25	-0.42
Mof_C 	C 	0.194	0	0.25	0.267
Mof_C 	C 	0.609	0	0.25	0.596
Mof_O 	O 	0.9291	0.6647	0.4418	-0.612
Mof_O 	O 	0.8894	0.0691	0.3479	-0.655
Mof_O 	O 	0.7562	0.9081	0.5147	-0.605
Mof_O 	O 	0.0709	0.3353	0.9418	-0.608
Mof_O 	O 	0.1106	0.9309	0.8479	-0.613
Mof_O 	O 	0.2438	0.0919	0.0147	-0.628
Mof_O 	O 	0.3353	0.9291	0.6918	-0.6
Mof_O 	O 	0.9309	0.8894	0.5979	-0.605
Mof_O 	O 	0.0919	0.7562	0.7647	-0.61
Mof_O 	O 	0.6647	0.0709	0.1918	-0.637
Mof_O 	O 	0.0691	0.1106	0.0979	-0.664
Mof_O 	O 	0.9081	0.2438	0.2647	-0.605
Mof_O 	O 	0.0709	0.6647	0.5582	-0.638
Mof_O 	O 	0.1106	0.0691	0.6521	-0.666
Mof_O 	O 	0.2438	0.9081	0.4853	-0.608
Mof_O 	O 	0.9291	0.3353	0.0582	-0.602
Mof_O 	O 	0.8894	0.9309	0.1521	-0.606
Mof_O 	O 	0.7562	0.0919	0.9853	-0.59
Mof_O 	O 	0.6647	0.9291	0.3082	-0.613
Mof_O 	O 	0.0691	0.8894	0.4021	-0.656
Mof_O 	O 	0.9081	0.7562	0.2353	-0.606
Mof_O 	O 	0.3353	0.0709	0.8082	-0.624
Mof_O 	O 	0.9309	0.1106	0.9021	-0.606
Mof_O 	O 	0.0919	0.2438	0.7353	-0.616
_end
