data_functionalizedCrystal
_audit_creation_method	'EQeq! by Chris Wilmer'
_symmetry_space_group_name_H-M	'P1'
_symmetry_Int_Tables_number	1
_symmetry_cell_setting	triclinic
loop_
_symmetry_equiv_pos_as_xyz
  x,y,z
_cell_length_a	20.909
_cell_length_b	11.364
_cell_length_c	17.699
_cell_angle_alpha	90
_cell_angle_beta	103.275
_cell_angle_gamma	90
loop_
_atom_site_label
_atom_site_type_symbol
_atom_site_fract_x
_atom_site_fract_y
_atom_site_fract_z
_atom_site_charge
Mof_Zn	Zn	0.0532	0.86377	0.35821	1.196
Mof_Zn	Zn	0.2282	0.91726	0.68576	1.199
Mof_C 	C 	0.1483	0.8436	0.5232	0.148
Mof_C 	C 	0.1315	0.722	0.5426	-0.161
Mof_C 	C 	0.1699	0.6296	0.5341	0.098
Mof_H 	H 	0.2086	0.6428	0.5179	0.001
Mof_C 	C 	0.1528	0.5151	0.5491	-0.207
Mof_H 	H 	0.18	0.4529	0.5429	0.108
Mof_C 	C 	0.0967	0.4937	0.5726	0.182
Mof_C 	C 	0.0593	0.5865	0.5844	-0.206
Mof_H 	H 	0.0215	0.5736	0.6024	0.113
Mof_C 	C 	0.077	0.7	0.5698	0.094
Mof_H 	H 	0.051	0.7626	0.5788	-0.009
Mof_C 	C 	0.1027	0.2741	0.5588	0.002
Mof_H 	H 	0.1375	0.2691	0.5344	0.031
Mof_C 	C 	0.0286	0.3387	0.6181	0.109
Mof_H 	H 	0.0039	0.3893	0.6413	0.002
Mof_N 	N 	0.0201	0.2249	0.6141	-0.275
Mof_C 	C 	0.3557	0.8125	0.6895	0.331
Mof_C 	C 	0.3143	0.7222	0.7161	-0.068
Mof_C 	C 	0.3229	0.6077	0.7408	-0.067
Mof_C 	C 	0.3769	0.5226	0.751	0.327
Mof_C 	C 	0.2262	0.6629	0.7499	0.123
Mof_H 	H 	0.1843	0.6615	0.7594	-0.02
Mof_N 	N 	0.1277	0.8937	0.4535	-0.247
Mof_N 	N 	0.1577	0.0018	0.4585	-0.075
Mof_N 	N 	0.1945	0.0142	0.5281	-0.07
Mof_N 	N 	0.1891	0.9149	0.5699	-0.244
Mof_N 	N 	0.0777	0.3751	0.5846	-0.152
Mof_C 	C 	0.0665	0.1837	0.5763	-0.002
Mof_H 	H 	0.0721	0.1052	0.5645	0.004
Mof_N 	N 	0.25191	0.7564	0.7224	-0.263
Mof_N 	N 	0.26739	0.5713	0.7625	-0.26
Mof_O 	O 	0.33046	0.9147	0.6801	-0.401
Mof_O 	O 	0.41089	0.7878	0.6784	-0.438
Mof_O 	O 	0.42964	0.5457	0.7311	-0.483
Mof_O 	O 	0.36936	0.427	0.7841	-0.404
Mof_Zn	Zn	0.5532	0.36377	0.35821	1.195
Mof_Zn	Zn	0.7282	0.41726	0.68576	1.198
Mof_C 	C 	0.6483	0.3436	0.5232	0.147
Mof_C 	C 	0.6315	0.222	0.5426	-0.161
Mof_C 	C 	0.6699	0.1296	0.5341	0.096
Mof_H 	H 	0.7086	0.1428	0.5179	0
Mof_C 	C 	0.6528	0.0151	0.5491	-0.207
Mof_H 	H 	0.68	0.9529	0.5429	0.107
Mof_C 	C 	0.5967	0.9937	0.5726	0.18
Mof_C 	C 	0.5593	0.0865	0.5844	-0.206
Mof_H 	H 	0.5215	0.0736	0.6024	0.112
Mof_C 	C 	0.577	0.2	0.5698	0.092
Mof_H 	H 	0.551	0.2626	0.5788	-0.009
Mof_C 	C 	0.6027	0.7741	0.5588	0.001
Mof_H 	H 	0.6375	0.7691	0.5344	0.03
Mof_C 	C 	0.5286	0.8387	0.6181	0.108
Mof_H 	H 	0.5039	0.8893	0.6413	0.001
Mof_N 	N 	0.5201	0.7249	0.6141	-0.276
Mof_C 	C 	0.8557	0.3125	0.6895	0.331
Mof_C 	C 	0.8143	0.2222	0.7161	-0.068
Mof_C 	C 	0.8229	0.1077	0.7408	-0.067
Mof_C 	C 	0.8769	0.0226	0.751	0.328
Mof_C 	C 	0.7262	0.1629	0.7499	0.123
Mof_H 	H 	0.6843	0.1615	0.7594	-0.02
Mof_N 	N 	0.6277	0.3937	0.4535	-0.247
Mof_N 	N 	0.6577	0.5018	0.4585	-0.075
Mof_N 	N 	0.6945	0.5142	0.5281	-0.071
Mof_N 	N 	0.6891	0.4149	0.5699	-0.243
Mof_N 	N 	0.5777	0.8751	0.5846	-0.152
Mof_C 	C 	0.5665	0.6837	0.5763	-0.002
Mof_H 	H 	0.5721	0.6052	0.5645	0.004
Mof_N 	N 	0.75191	0.2564	0.7224	-0.263
Mof_N 	N 	0.76739	0.0713	0.7625	-0.26
Mof_O 	O 	0.83046	0.4147	0.6801	-0.401
Mof_O 	O 	0.91089	0.2878	0.6784	-0.438
Mof_O 	O 	0.92964	0.0457	0.7311	-0.483
Mof_O 	O 	0.86936	0.927	0.7841	-0.405
Mof_Zn	Zn	0.9468	0.86377	0.14179	1.195
Mof_Zn	Zn	0.7718	0.91726	0.81424	1.198
Mof_C 	C 	0.8517	0.8436	0.9768	0.147
Mof_C 	C 	0.8685	0.722	0.9574	-0.162
Mof_C 	C 	0.8301	0.6296	0.9659	0.097
Mof_H 	H 	0.7914	0.6428	0.9821	-0
Mof_C 	C 	0.8472	0.5151	0.9509	-0.208
Mof_H 	H 	0.82	0.4529	0.9571	0.107
Mof_C 	C 	0.9033	0.4937	0.9274	0.181
Mof_C 	C 	0.9407	0.5865	0.9156	-0.207
Mof_H 	H 	0.9785	0.5736	0.8976	0.112
Mof_C 	C 	0.923	0.7	0.9302	0.093
Mof_H 	H 	0.949	0.7626	0.9212	-0.01
Mof_C 	C 	0.8973	0.2741	0.9412	0.001
Mof_H 	H 	0.8625	0.2691	0.9656	0.03
Mof_C 	C 	0.9714	0.3387	0.8819	0.108
Mof_H 	H 	0.9961	0.3893	0.8587	0.001
Mof_N 	N 	0.9799	0.2249	0.8859	-0.275
Mof_C 	C 	0.6443	0.8125	0.8105	0.331
Mof_C 	C 	0.6857	0.7222	0.7839	-0.068
Mof_C 	C 	0.6771	0.6077	0.7592	-0.067
Mof_C 	C 	0.6231	0.5226	0.749	0.327
Mof_C 	C 	0.7738	0.6629	0.7501	0.123
Mof_H 	H 	0.8157	0.6615	0.7406	-0.02
Mof_N 	N 	0.8723	0.8937	0.0465	-0.246
Mof_N 	N 	0.8423	0.0018	0.0415	-0.077
Mof_N 	N 	0.8055	0.0142	0.9719	-0.069
Mof_N 	N 	0.8109	0.9149	0.9301	-0.244
Mof_N 	N 	0.9223	0.3751	0.9154	-0.152
Mof_C 	C 	0.9335	0.1837	0.9237	-0.002
Mof_H 	H 	0.9279	0.1052	0.9355	0.004
Mof_N 	N 	0.74809	0.7564	0.7776	-0.263
Mof_N 	N 	0.73261	0.5713	0.7375	-0.26
Mof_O 	O 	0.66954	0.9147	0.8199	-0.402
Mof_O 	O 	0.58911	0.7878	0.8216	-0.439
Mof_O 	O 	0.57036	0.5457	0.7689	-0.483
Mof_O 	O 	0.63064	0.427	0.7159	-0.404
Mof_Zn	Zn	0.4468	0.36377	0.14179	1.195
Mof_Zn	Zn	0.2718	0.41726	0.81424	1.198
Mof_C 	C 	0.3517	0.3436	0.9768	0.145
Mof_C 	C 	0.3685	0.222	0.9574	-0.156
Mof_C 	C 	0.3301	0.1296	0.9659	0.089
Mof_H 	H 	0.2914	0.1428	0.9821	0.003
Mof_C 	C 	0.3472	0.0151	0.9509	-0.196
Mof_H 	H 	0.32	0.9529	0.9571	0.102
Mof_C 	C 	0.4033	0.9937	0.9274	0.172
Mof_C 	C 	0.4407	0.0865	0.9156	-0.198
Mof_H 	H 	0.4785	0.0736	0.8976	0.11
Mof_C 	C 	0.423	0.2	0.9302	0.086
Mof_H 	H 	0.449	0.2626	0.9212	-0.007
Mof_C 	C 	0.3973	0.7741	0.9412	0
Mof_H 	H 	0.3625	0.7691	0.9656	0.03
Mof_C 	C 	0.4714	0.8387	0.8819	0.107
Mof_H 	H 	0.4961	0.8893	0.8587	0.001
Mof_N 	N 	0.4799	0.7249	0.8859	-0.276
Mof_C 	C 	0.1443	0.3125	0.8105	0.331
Mof_C 	C 	0.1857	0.2222	0.7839	-0.068
Mof_C 	C 	0.1771	0.1077	0.7592	-0.067
Mof_C 	C 	0.1231	0.0226	0.749	0.328
Mof_C 	C 	0.2738	0.1629	0.7501	0.123
Mof_H 	H 	0.3157	0.1615	0.7406	-0.02
Mof_N 	N 	0.3723	0.3937	0.0465	-0.246
Mof_N 	N 	0.3423	0.5018	0.0415	-0.075
Mof_N 	N 	0.3055	0.5142	0.9719	-0.071
Mof_N 	N 	0.3109	0.4149	0.9301	-0.243
Mof_N 	N 	0.4223	0.8751	0.9154	-0.151
Mof_C 	C 	0.4335	0.6837	0.9237	-0.002
Mof_H 	H 	0.4279	0.6052	0.9355	0.004
Mof_N 	N 	0.24809	0.2564	0.7776	-0.263
Mof_N 	N 	0.23261	0.0713	0.7375	-0.26
Mof_O 	O 	0.16954	0.4147	0.8199	-0.401
Mof_O 	O 	0.08911	0.2878	0.8216	-0.439
Mof_O 	O 	0.07036	0.0457	0.7689	-0.483
Mof_O 	O 	0.13064	0.927	0.7159	-0.405
Mof_Zn	Zn	0.9468	0.13623	0.64179	1.195
Mof_Zn	Zn	0.7718	0.08274	0.31424	1.198
Mof_C 	C 	0.8517	0.1564	0.4768	0.147
Mof_C 	C 	0.8685	0.278	0.4574	-0.162
Mof_C 	C 	0.8301	0.3704	0.4659	0.097
Mof_H 	H 	0.7914	0.3572	0.4821	-0
Mof_C 	C 	0.8472	0.4849	0.4509	-0.208
Mof_H 	H 	0.82	0.5471	0.4571	0.107
Mof_C 	C 	0.9033	0.5063	0.4274	0.181
Mof_C 	C 	0.9407	0.4135	0.4156	-0.207
Mof_H 	H 	0.9785	0.4264	0.3976	0.112
Mof_C 	C 	0.923	0.3	0.4302	0.093
Mof_H 	H 	0.949	0.2374	0.4212	-0.01
Mof_C 	C 	0.8973	0.7259	0.4412	0.001
Mof_H 	H 	0.8625	0.7309	0.4656	0.03
Mof_C 	C 	0.9714	0.6613	0.3819	0.108
Mof_H 	H 	0.9961	0.6107	0.3587	0.001
Mof_N 	N 	0.9799	0.7751	0.3859	-0.276
Mof_C 	C 	0.6443	0.1875	0.3105	0.331
Mof_C 	C 	0.6857	0.2778	0.2839	-0.068
Mof_C 	C 	0.6771	0.3923	0.2592	-0.067
Mof_C 	C 	0.6231	0.4774	0.249	0.327
Mof_C 	C 	0.7738	0.3371	0.2501	0.123
Mof_H 	H 	0.8157	0.3385	0.2406	-0.02
Mof_N 	N 	0.8723	0.1063	0.5465	-0.247
Mof_N 	N 	0.8423	0.9982	0.5415	-0.075
Mof_N 	N 	0.8055	0.9858	0.4719	-0.07
Mof_N 	N 	0.8109	0.0851	0.4301	-0.244
Mof_N 	N 	0.9223	0.6249	0.4154	-0.152
Mof_C 	C 	0.9335	0.8163	0.4237	-0.002
Mof_H 	H 	0.9279	0.8948	0.4355	0.004
Mof_N 	N 	0.74809	0.2436	0.2776	-0.263
Mof_N 	N 	0.73261	0.4287	0.2375	-0.26
Mof_O 	O 	0.66954	0.0853	0.3199	-0.401
Mof_O 	O 	0.58911	0.2122	0.3216	-0.438
Mof_O 	O 	0.57036	0.4543	0.2689	-0.483
Mof_O 	O 	0.63064	0.573	0.2159	-0.404
Mof_Zn	Zn	0.4468	0.63623	0.64179	1.195
Mof_Zn	Zn	0.2718	0.58274	0.31424	1.198
Mof_C 	C 	0.3517	0.6564	0.4768	0.147
Mof_C 	C 	0.3685	0.778	0.4574	-0.161
Mof_C 	C 	0.3301	0.8704	0.4659	0.096
Mof_H 	H 	0.2914	0.8572	0.4821	0
Mof_C 	C 	0.3472	0.9849	0.4509	-0.207
Mof_H 	H 	0.32	0.0471	0.4571	0.107
Mof_C 	C 	0.4033	0.0063	0.4274	0.18
Mof_C 	C 	0.4407	0.9135	0.4156	-0.206
Mof_H 	H 	0.4785	0.9264	0.3976	0.112
Mof_C 	C 	0.423	0.8	0.4302	0.092
Mof_H 	H 	0.449	0.7374	0.4212	-0.009
Mof_C 	C 	0.3973	0.2259	0.4412	0.001
Mof_H 	H 	0.3625	0.2309	0.4656	0.03
Mof_C 	C 	0.4714	0.1613	0.3819	0.108
Mof_H 	H 	0.4961	0.1107	0.3587	0.001
Mof_N 	N 	0.4799	0.2751	0.3859	-0.276
Mof_C 	C 	0.1443	0.6875	0.3105	0.331
Mof_C 	C 	0.1857	0.7778	0.2839	-0.068
Mof_C 	C 	0.1771	0.8923	0.2592	-0.067
Mof_C 	C 	0.1231	0.9774	0.249	0.328
Mof_C 	C 	0.2738	0.8371	0.2501	0.123
Mof_H 	H 	0.3157	0.8385	0.2406	-0.02
Mof_N 	N 	0.3723	0.6063	0.5465	-0.247
Mof_N 	N 	0.3423	0.4982	0.5415	-0.075
Mof_N 	N 	0.3055	0.4858	0.4719	-0.071
Mof_N 	N 	0.3109	0.5851	0.4301	-0.243
Mof_N 	N 	0.4223	0.1249	0.4154	-0.152
Mof_C 	C 	0.4335	0.3163	0.4237	-0.002
Mof_H 	H 	0.4279	0.3948	0.4355	0.004
Mof_N 	N 	0.24809	0.7436	0.2776	-0.263
Mof_N 	N 	0.23261	0.9287	0.2375	-0.26
Mof_O 	O 	0.16954	0.5853	0.3199	-0.401
Mof_O 	O 	0.08911	0.7122	0.3216	-0.438
Mof_O 	O 	0.07036	0.9543	0.2689	-0.483
Mof_O 	O 	0.13064	0.073	0.2159	-0.405
Mof_Zn	Zn	0.0532	0.13623	0.85821	1.195
Mof_Zn	Zn	0.2282	0.08274	0.18576	1.198
Mof_C 	C 	0.1483	0.1564	0.0232	0.147
Mof_C 	C 	0.1315	0.278	0.0426	-0.162
Mof_C 	C 	0.1699	0.3704	0.0341	0.097
Mof_H 	H 	0.2086	0.3572	0.0179	-0
Mof_C 	C 	0.1528	0.4849	0.0491	-0.208
Mof_H 	H 	0.18	0.5471	0.0429	0.107
Mof_C 	C 	0.0967	0.5063	0.0726	0.181
Mof_C 	C 	0.0593	0.4135	0.0844	-0.207
Mof_H 	H 	0.0215	0.4264	0.1024	0.112
Mof_C 	C 	0.077	0.3	0.0698	0.093
Mof_H 	H 	0.051	0.2374	0.0788	-0.01
Mof_C 	C 	0.1027	0.7259	0.0588	0.001
Mof_H 	H 	0.1375	0.7309	0.0344	0.03
Mof_C 	C 	0.0286	0.6613	0.1181	0.108
Mof_H 	H 	0.0039	0.6107	0.1413	0.001
Mof_N 	N 	0.0201	0.7751	0.1141	-0.275
Mof_C 	C 	0.3557	0.1875	0.1895	0.331
Mof_C 	C 	0.3143	0.2778	0.2161	-0.068
Mof_C 	C 	0.3229	0.3923	0.2408	-0.067
Mof_C 	C 	0.3769	0.4774	0.251	0.327
Mof_C 	C 	0.2262	0.3371	0.2499	0.123
Mof_H 	H 	0.1843	0.3385	0.2594	-0.02
Mof_N 	N 	0.1277	0.1063	0.9535	-0.246
Mof_N 	N 	0.1577	0.9982	0.9585	-0.077
Mof_N 	N 	0.1945	0.9858	0.0281	-0.069
Mof_N 	N 	0.1891	0.0851	0.0699	-0.244
Mof_N 	N 	0.0777	0.6249	0.0846	-0.152
Mof_C 	C 	0.0665	0.8163	0.0763	-0.002
Mof_H 	H 	0.0721	0.8948	0.0645	0.004
Mof_N 	N 	0.25191	0.2436	0.2224	-0.263
Mof_N 	N 	0.26739	0.4287	0.2625	-0.26
Mof_O 	O 	0.33046	0.0853	0.1801	-0.402
Mof_O 	O 	0.41089	0.2122	0.1784	-0.439
Mof_O 	O 	0.42964	0.4543	0.2311	-0.483
Mof_O 	O 	0.36936	0.573	0.2841	-0.404
Mof_Zn	Zn	0.5532	0.63623	0.85821	1.195
Mof_Zn	Zn	0.7282	0.58274	0.18576	1.198
Mof_C 	C 	0.6483	0.6564	0.0232	0.145
Mof_C 	C 	0.6315	0.778	0.0426	-0.156
Mof_C 	C 	0.6699	0.8704	0.0341	0.089
Mof_H 	H 	0.7086	0.8572	0.0179	0.003
Mof_C 	C 	0.6528	0.9849	0.0491	-0.196
Mof_H 	H 	0.68	0.0471	0.0429	0.102
Mof_C 	C 	0.5967	0.0063	0.0726	0.172
Mof_C 	C 	0.5593	0.9135	0.0844	-0.198
Mof_H 	H 	0.5215	0.9264	0.1024	0.11
Mof_C 	C 	0.577	0.8	0.0698	0.086
Mof_H 	H 	0.551	0.7374	0.0788	-0.007
Mof_C 	C 	0.6027	0.2259	0.0588	0
Mof_H 	H 	0.6375	0.2309	0.0344	0.03
Mof_C 	C 	0.5286	0.1613	0.1181	0.107
Mof_H 	H 	0.5039	0.1107	0.1413	0.001
Mof_N 	N 	0.5201	0.2751	0.1141	-0.276
Mof_C 	C 	0.8557	0.6875	0.1895	0.331
Mof_C 	C 	0.8143	0.7778	0.2161	-0.068
Mof_C 	C 	0.8229	0.8923	0.2408	-0.067
Mof_C 	C 	0.8769	0.9774	0.251	0.328
Mof_C 	C 	0.7262	0.8371	0.2499	0.123
Mof_H 	H 	0.6843	0.8385	0.2594	-0.02
Mof_N 	N 	0.6277	0.6063	0.9535	-0.246
Mof_N 	N 	0.6577	0.4982	0.9585	-0.075
Mof_N 	N 	0.6945	0.4858	0.0281	-0.071
Mof_N 	N 	0.6891	0.5851	0.0699	-0.243
Mof_N 	N 	0.5777	0.1249	0.0846	-0.151
Mof_C 	C 	0.5665	0.3163	0.0763	-0.002
Mof_H 	H 	0.5721	0.3948	0.0645	0.004
Mof_N 	N 	0.75191	0.7436	0.2224	-0.263
Mof_N 	N 	0.76739	0.9287	0.2625	-0.26
Mof_O 	O 	0.83046	0.5853	0.1801	-0.401
Mof_O 	O 	0.91089	0.7122	0.1784	-0.439
Mof_O 	O 	0.92964	0.9543	0.2311	-0.483
Mof_O 	O 	0.86936	0.073	0.2841	-0.405
_end
