data_functionalizedCrystal
_audit_creation_method	'EQeq! by Chris Wilmer'
_symmetry_space_group_name_H-M	'P1'
_symmetry_Int_Tables_number	1
_symmetry_cell_setting	triclinic
loop_
_symmetry_equiv_pos_as_xyz
  x,y,z
_cell_length_a	22.8642
_cell_length_b	22.8642
_cell_length_c	22.8642
_cell_angle_alpha	109.471
_cell_angle_beta	109.471
_cell_angle_gamma	109.471
loop_
_atom_site_label
_atom_site_type_symbol
_atom_site_fract_x
_atom_site_fract_y
_atom_site_fract_z
_atom_site_charge
Mof_U 	U 	0.33337	0.9155	0.72561	0.026
Mof_U 	U 	0.18988	0.60775	0.27438	0.014
Mof_U 	U 	0.81012	0.08451	0.41788	0.015
Mof_U 	U 	0.66663	0.39224	0.58213	0.018
Mof_U 	U 	0.41787	0.81011	0.0845	0.015
Mof_U 	U 	0.58213	0.66663	0.39225	0.018
Mof_U 	U 	0.72561	0.33337	0.91549	0.026
Mof_U 	U 	0.27439	0.18989	0.60776	0.014
Mof_U 	U 	0.60776	0.27439	0.18989	0.014
Mof_U 	U 	0.9155	0.72562	0.33337	0.025
Mof_U 	U 	0.39224	0.58212	0.66663	0.017
Mof_U 	U 	0.0845	0.41787	0.81011	0.014
Mof_U 	U 	0.66663	0.0845	0.27439	0.011
Mof_U 	U 	0.81012	0.39225	0.72562	0.022
Mof_U 	U 	0.18988	0.91549	0.58212	0.021
Mof_U 	U 	0.33337	0.60776	0.41787	0.016
Mof_U 	U 	0.58213	0.18989	0.9155	0.021
Mof_U 	U 	0.41787	0.33337	0.60775	0.016
Mof_U 	U 	0.27439	0.66663	0.08451	0.011
Mof_U 	U 	0.72561	0.81011	0.39224	0.022
Mof_U 	U 	0.39224	0.72561	0.81011	0.022
Mof_U 	U 	0.0845	0.27438	0.66663	0.011
Mof_U 	U 	0.60776	0.41788	0.33337	0.016
Mof_U 	U 	0.9155	0.58213	0.18989	0.021
Mof_U 	U 	0.65109	0.13178	0.78287	0.018
Mof_U 	U 	0.34891	0.86822	0.21713	0.017
Mof_U 	U 	0.65109	0.86823	0.51931	0.022
Mof_U 	U 	0.34891	0.13177	0.48069	0.012
Mof_U 	U 	0.51931	0.65109	0.86822	0.022
Mof_U 	U 	0.48069	0.34891	0.13178	0.012
Mof_U 	U 	0.78286	0.65108	0.13177	0.018
Mof_U 	U 	0.21714	0.34892	0.86823	0.017
Mof_U 	U 	0.86822	0.21713	0.34891	0.017
Mof_U 	U 	0.13178	0.78287	0.65109	0.018
Mof_U 	U 	0.13178	0.48069	0.34892	0.012
Mof_U 	U 	0.86822	0.51931	0.65108	0.022
Mof_U 	U 	0.56706	0.93061	0.63645	0.017
Mof_U 	U 	0.29416	0.93061	0.36355	0.013
Mof_U 	U 	0.70584	0.06939	0.63645	-0.031
Mof_U 	U 	0.43294	0.06939	0.36355	-0.037
Mof_U 	U 	0.63645	0.70584	0.06939	-0.031
Mof_U 	U 	0.36355	0.43294	0.06939	-0.037
Mof_U 	U 	0.63645	0.56706	0.93061	0.017
Mof_U 	U 	0.36355	0.29416	0.93061	0.013
Mof_U 	U 	0.93061	0.36355	0.29416	0.013
Mof_U 	U 	0.93061	0.63645	0.56706	0.017
Mof_U 	U 	0.06939	0.36355	0.43294	-0.037
Mof_U 	U 	0.06939	0.63645	0.70584	-0.031
Mof_Mn	Mn	0.63424	0	-0	0.577
Mof_Mn	Mn	-0	0.63424	-0	0.577
Mof_Mn	Mn	-3.70665e-17	4.9422e-17	0.63424	0.577
Mof_Mn	Mn	0.36576	0.36576	0.36576	0.679
Mof_Mn	Mn	0.36576	0	-0	0.562
Mof_Mn	Mn	-0	0.36576	-0	0.562
Mof_Mn	Mn	-1.23555e-17	0	0.36576	0.562
Mof_Mn	Mn	0.63424	0.63424	0.63424	0.717
Mof_Mn	Mn	0.5	0	-0	0.873
Mof_Mn	Mn	2.4711e-17	0.5	-0	0.873
Mof_Mn	Mn	4.9422e-17	0	0.5	0.873
Mof_Mn	Mn	0.5	0.5	0.5	1.025
Mof_Mn	Mn	0.5	0.1418	0.6418	0.876
Mof_Mn	Mn	0.5	0.8582	0.3582	0.906
Mof_Mn	Mn	0.3582	0.5	0.8582	0.906
Mof_Mn	Mn	0.6418	0.5	0.1418	0.876
Mof_Mn	Mn	0.8582	0.3582	0.5	0.906
Mof_Mn	Mn	0.1418	0.6418	0.5	0.876
Mof_P 	P 	0.51912	0.00812	0.77572	0.387
Mof_P 	P 	0.2324	0.7434	0.22428	0.458
Mof_P 	P 	0.7676	0.99188	0.511	0.533
Mof_P 	P 	0.48088	0.2566	0.489	0.457
Mof_P 	P 	0.511	0.7676	0.99188	0.533
Mof_P 	P 	0.489	0.48088	0.2566	0.457
Mof_P 	P 	0.77572	0.51912	0.00812	0.387
Mof_P 	P 	0.22428	0.2324	0.7434	0.458
Mof_P 	P 	0.7434	0.22428	0.2324	0.458
Mof_P 	P 	0.00812	0.77572	0.51912	0.387
Mof_P 	P 	0.2566	0.489	0.48088	0.457
Mof_P 	P 	0.99188	0.511	0.7676	0.533
Mof_P 	P 	0.48088	0.99188	0.22428	0.534
Mof_P 	P 	0.7676	0.2566	0.77572	0.46
Mof_P 	P 	0.2324	0.00812	0.489	0.382
Mof_P 	P 	0.51912	0.7434	0.511	0.461
Mof_P 	P 	0.489	0.2324	0.00812	0.382
Mof_P 	P 	0.511	0.51912	0.7434	0.461
Mof_P 	P 	0.22428	0.48088	0.99188	0.534
Mof_P 	P 	0.77572	0.7676	0.2566	0.46
Mof_P 	P 	0.2566	0.77572	0.7676	0.46
Mof_P 	P 	0.99188	0.22428	0.48088	0.534
Mof_P 	P 	0.7434	0.511	0.51912	0.461
Mof_P 	P 	0.00812	0.489	0.2324	0.382
Mof_H 	H 	0.4968	0.897	0.7632	0.202
Mof_H 	H 	0.5714	0.9567	0.8315	0.188
Mof_H 	H 	0.1338	0.7336	0.2368	0.204
Mof_H 	H 	0.1252	0.7399	0.1685	0.172
Mof_H 	H 	0.8662	0.103	0.5998	0.23
Mof_H 	H 	0.8748	0.0433	0.6147	0.192
Mof_H 	H 	0.5032	0.2664	0.4002	0.206
Mof_H 	H 	0.4286	0.2601	0.3853	0.17
Mof_H 	H 	0.5998	0.8662	0.103	0.23
Mof_H 	H 	0.6147	0.8748	0.0433	0.192
Mof_H 	H 	0.4002	0.5032	0.2664	0.206
Mof_H 	H 	0.3853	0.4286	0.2601	0.17
Mof_H 	H 	0.7632	0.4968	0.897	0.202
Mof_H 	H 	0.8315	0.5714	0.9567	0.188
Mof_H 	H 	0.2368	0.1338	0.7336	0.204
Mof_H 	H 	0.1685	0.1252	0.7399	0.172
Mof_H 	H 	0.7336	0.2368	0.1338	0.204
Mof_H 	H 	0.7399	0.1685	0.1252	0.172
Mof_H 	H 	0.897	0.7632	0.4968	0.202
Mof_H 	H 	0.9567	0.8315	0.5714	0.188
Mof_H 	H 	0.2664	0.4002	0.5032	0.206
Mof_H 	H 	0.2601	0.3853	0.4286	0.17
Mof_H 	H 	0.103	0.5998	0.8662	0.23
Mof_H 	H 	0.0433	0.6147	0.8748	0.192
Mof_H 	H 	0.5032	0.103	0.2368	0.218
Mof_H 	H 	0.4286	0.0433	0.1685	0.175
Mof_H 	H 	0.8662	0.2664	0.7632	0.217
Mof_H 	H 	0.8748	0.2601	0.8315	0.192
Mof_H 	H 	0.1338	0.897	0.4002	0.19
Mof_H 	H 	0.1252	0.9567	0.3853	0.172
Mof_H 	H 	0.4968	0.7336	0.5998	0.216
Mof_H 	H 	0.5714	0.7399	0.6147	0.184
Mof_H 	H 	0.4002	0.1338	0.897	0.19
Mof_H 	H 	0.3853	0.1252	0.9567	0.172
Mof_H 	H 	0.5998	0.4968	0.7336	0.216
Mof_H 	H 	0.6147	0.5714	0.7399	0.184
Mof_H 	H 	0.2368	0.5032	0.103	0.218
Mof_H 	H 	0.1685	0.4286	0.0433	0.175
Mof_H 	H 	0.7632	0.8662	0.2664	0.217
Mof_H 	H 	0.8315	0.8748	0.2601	0.192
Mof_H 	H 	0.2664	0.7632	0.8662	0.217
Mof_H 	H 	0.2601	0.8315	0.8748	0.192
Mof_H 	H 	0.103	0.2368	0.5032	0.218
Mof_H 	H 	0.0433	0.1685	0.4286	0.175
Mof_H 	H 	0.7336	0.5998	0.4968	0.216
Mof_H 	H 	0.7399	0.6147	0.5714	0.184
Mof_H 	H 	0.897	0.4002	0.1338	0.19
Mof_H 	H 	0.9567	0.3853	0.1252	0.172
Mof_C 	C 	0.522	0.94433	0.80469	-0.433
Mof_C 	C 	0.48796	0.94337	0.85151	0.463
Mof_C 	C 	0.13964	0.71731	0.19531	-0.49
Mof_C 	C 	0.09186	0.63645	0.14849	0.477
Mof_C 	C 	0.86036	0.05567	0.57767	-0.55
Mof_C 	C 	0.90814	0.05663	0.54459	0.489
Mof_C 	C 	0.478	0.28269	0.42233	-0.491
Mof_C 	C 	0.51204	0.36355	0.45541	0.484
Mof_C 	C 	0.57767	0.86036	0.05567	-0.55
Mof_C 	C 	0.54459	0.90814	0.05663	0.489
Mof_C 	C 	0.42233	0.478	0.28269	-0.491
Mof_C 	C 	0.45541	0.51204	0.36355	0.484
Mof_C 	C 	0.80469	0.522	0.94433	-0.433
Mof_C 	C 	0.85151	0.48796	0.94337	0.463
Mof_C 	C 	0.19531	0.13964	0.71731	-0.49
Mof_C 	C 	0.14849	0.09186	0.63645	0.477
Mof_C 	C 	0.71731	0.19531	0.13964	-0.49
Mof_C 	C 	0.63645	0.14849	0.09186	0.477
Mof_C 	C 	0.94433	0.80469	0.522	-0.433
Mof_C 	C 	0.94337	0.85151	0.48796	0.463
Mof_C 	C 	0.28269	0.42233	0.478	-0.491
Mof_C 	C 	0.36355	0.45541	0.51204	0.484
Mof_C 	C 	0.05567	0.57767	0.86036	-0.55
Mof_C 	C 	0.05663	0.54459	0.90814	0.489
Mof_C 	C 	0.478	0.05567	0.19531	-0.547
Mof_C 	C 	0.51204	0.05663	0.14849	0.488
Mof_C 	C 	0.86036	0.28269	0.80469	-0.489
Mof_C 	C 	0.90814	0.36355	0.85151	0.474
Mof_C 	C 	0.13964	0.94433	0.42233	-0.427
Mof_C 	C 	0.09186	0.94337	0.45541	0.461
Mof_C 	C 	0.522	0.71731	0.57767	-0.5
Mof_C 	C 	0.48796	0.63645	0.54459	0.491
Mof_C 	C 	0.42233	0.13964	0.94433	-0.427
Mof_C 	C 	0.45541	0.09186	0.94337	0.461
Mof_C 	C 	0.57767	0.522	0.71731	-0.5
Mof_C 	C 	0.54459	0.48796	0.63645	0.491
Mof_C 	C 	0.19531	0.478	0.05567	-0.547
Mof_C 	C 	0.14849	0.51204	0.05663	0.488
Mof_C 	C 	0.80469	0.86036	0.28269	-0.489
Mof_C 	C 	0.85151	0.90814	0.36355	0.474
Mof_C 	C 	0.28269	0.80469	0.86036	-0.489
Mof_C 	C 	0.36355	0.85151	0.90814	0.474
Mof_C 	C 	0.05567	0.19531	0.478	-0.547
Mof_C 	C 	0.05663	0.14849	0.51204	0.488
Mof_C 	C 	0.71731	0.57767	0.522	-0.5
Mof_C 	C 	0.63645	0.54459	0.48796	0.491
Mof_C 	C 	0.94433	0.42233	0.13964	-0.427
Mof_C 	C 	0.94337	0.45541	0.09186	0.461
Mof_O 	O 	0.54558	0.00043	0.72177	-0.191
Mof_O 	O 	0.44431	0.9958	0.74705	-0.115
Mof_O 	O 	0.42261	0.92368	0.82493	-0.23
Mof_O 	O 	0.57586	0.08431	0.83883	-0.164
Mof_O 	O 	0.5273	0.96416	0.91618	-0.369
Mof_O 	O 	0.27866	0.82381	0.27823	-0.174
Mof_O 	O 	0.24875	0.69726	0.25295	-0.167
Mof_O 	O 	0.09875	0.59768	0.17507	-0.263
Mof_O 	O 	0.24548	0.73703	0.16117	-0.173
Mof_O 	O 	0.04798	0.61112	0.08382	-0.457
Mof_O 	O 	0.72134	0.99957	0.54515	-0.156
Mof_O 	O 	0.75125	0.0042	0.44851	-0.218
Mof_O 	O 	0.90125	0.07632	0.49893	-0.246
Mof_O 	O 	0.75452	0.91569	0.49155	-0.164
Mof_O 	O 	0.95202	0.03584	0.56314	-0.416
Mof_O 	O 	0.45442	0.17619	0.45485	-0.18
Mof_O 	O 	0.55569	0.30274	0.55149	-0.167
Mof_O 	O 	0.57739	0.40232	0.50107	-0.255
Mof_O 	O 	0.42414	0.26297	0.50845	-0.173
Mof_O 	O 	0.4727	0.38888	0.43686	-0.458
Mof_O 	O 	0.54515	0.72134	0.99957	-0.156
Mof_O 	O 	0.44851	0.75125	0.0042	-0.218
Mof_O 	O 	0.49893	0.90125	0.07632	-0.246
Mof_O 	O 	0.49155	0.75452	0.91569	-0.164
Mof_O 	O 	0.56314	0.95202	0.03584	-0.416
Mof_O 	O 	0.45485	0.45442	0.17619	-0.18
Mof_O 	O 	0.55149	0.55569	0.30274	-0.167
Mof_O 	O 	0.50107	0.57739	0.40232	-0.255
Mof_O 	O 	0.50845	0.42414	0.26297	-0.173
Mof_O 	O 	0.43686	0.4727	0.38888	-0.458
Mof_O 	O 	0.72177	0.54558	0.00043	-0.191
Mof_O 	O 	0.74705	0.44431	0.9958	-0.115
Mof_O 	O 	0.82493	0.42261	0.92368	-0.23
Mof_O 	O 	0.83883	0.57586	0.08431	-0.164
Mof_O 	O 	0.91618	0.5273	0.96416	-0.369
Mof_O 	O 	0.27823	0.27866	0.82381	-0.174
Mof_O 	O 	0.25295	0.24875	0.69726	-0.167
Mof_O 	O 	0.17507	0.09875	0.59768	-0.263
Mof_O 	O 	0.16117	0.24548	0.73703	-0.173
Mof_O 	O 	0.08382	0.04798	0.61112	-0.457
Mof_O 	O 	0.82381	0.27823	0.27866	-0.174
Mof_O 	O 	0.69726	0.25295	0.24875	-0.167
Mof_O 	O 	0.59768	0.17507	0.09875	-0.263
Mof_O 	O 	0.73703	0.16117	0.24548	-0.173
Mof_O 	O 	0.61112	0.08382	0.04798	-0.457
Mof_O 	O 	0.00043	0.72177	0.54558	-0.191
Mof_O 	O 	0.9958	0.74705	0.44431	-0.115
Mof_O 	O 	0.92368	0.82493	0.42261	-0.23
Mof_O 	O 	0.08431	0.83883	0.57586	-0.164
Mof_O 	O 	0.96416	0.91618	0.5273	-0.369
Mof_O 	O 	0.17619	0.45485	0.45442	-0.18
Mof_O 	O 	0.30274	0.55149	0.55569	-0.167
Mof_O 	O 	0.40232	0.50107	0.57739	-0.255
Mof_O 	O 	0.26297	0.50845	0.42414	-0.173
Mof_O 	O 	0.38888	0.43686	0.4727	-0.458
Mof_O 	O 	0.99957	0.54515	0.72134	-0.156
Mof_O 	O 	0.0042	0.44851	0.75125	-0.218
Mof_O 	O 	0.07632	0.49893	0.90125	-0.246
Mof_O 	O 	0.91569	0.49155	0.75452	-0.164
Mof_O 	O 	0.03584	0.56314	0.95202	-0.416
Mof_O 	O 	0.45442	0.99957	0.27823	-0.159
Mof_O 	O 	0.55569	0.0042	0.25295	-0.219
Mof_O 	O 	0.57739	0.07632	0.17507	-0.263
Mof_O 	O 	0.42414	0.91569	0.16117	-0.171
Mof_O 	O 	0.4727	0.03584	0.08382	-0.459
Mof_O 	O 	0.72134	0.17619	0.72177	-0.176
Mof_O 	O 	0.75125	0.30274	0.74705	-0.167
Mof_O 	O 	0.90125	0.40232	0.82493	-0.23
Mof_O 	O 	0.75452	0.26297	0.83883	-0.162
Mof_O 	O 	0.95202	0.38888	0.91618	-0.37
Mof_O 	O 	0.27866	0.00043	0.45485	-0.195
Mof_O 	O 	0.24875	0.9958	0.55149	-0.114
Mof_O 	O 	0.09875	0.92368	0.50107	-0.245
Mof_O 	O 	0.24548	0.08431	0.50845	-0.172
Mof_O 	O 	0.04798	0.96416	0.43686	-0.408
Mof_O 	O 	0.54558	0.82381	0.54515	-0.172
Mof_O 	O 	0.44431	0.69726	0.44851	-0.167
Mof_O 	O 	0.42261	0.59768	0.49893	-0.257
Mof_O 	O 	0.57586	0.73703	0.49155	-0.168
Mof_O 	O 	0.5273	0.61112	0.56314	-0.459
Mof_O 	O 	0.45485	0.27866	0.00043	-0.195
Mof_O 	O 	0.55149	0.24875	0.9958	-0.114
Mof_O 	O 	0.50107	0.09875	0.92368	-0.245
Mof_O 	O 	0.50845	0.24548	0.08431	-0.172
Mof_O 	O 	0.43686	0.04798	0.96416	-0.408
Mof_O 	O 	0.54515	0.54558	0.82381	-0.172
Mof_O 	O 	0.44851	0.44431	0.69726	-0.167
Mof_O 	O 	0.49893	0.42261	0.59768	-0.257
Mof_O 	O 	0.49155	0.57586	0.73703	-0.168
Mof_O 	O 	0.56314	0.5273	0.61112	-0.459
Mof_O 	O 	0.27823	0.45442	0.99957	-0.159
Mof_O 	O 	0.25295	0.55569	0.0042	-0.219
Mof_O 	O 	0.17507	0.57739	0.07632	-0.263
Mof_O 	O 	0.16117	0.42414	0.91569	-0.171
Mof_O 	O 	0.08382	0.4727	0.03584	-0.459
Mof_O 	O 	0.72177	0.72134	0.17619	-0.176
Mof_O 	O 	0.74705	0.75125	0.30274	-0.167
Mof_O 	O 	0.82493	0.90125	0.40232	-0.23
Mof_O 	O 	0.83883	0.75452	0.26297	-0.162
Mof_O 	O 	0.91618	0.95202	0.38888	-0.37
Mof_O 	O 	0.17619	0.72177	0.72134	-0.176
Mof_O 	O 	0.30274	0.74705	0.75125	-0.167
Mof_O 	O 	0.40232	0.82493	0.90125	-0.23
Mof_O 	O 	0.26297	0.83883	0.75452	-0.162
Mof_O 	O 	0.38888	0.91618	0.95202	-0.37
Mof_O 	O 	0.99957	0.27823	0.45442	-0.159
Mof_O 	O 	0.0042	0.25295	0.55569	-0.219
Mof_O 	O 	0.07632	0.17507	0.57739	-0.263
Mof_O 	O 	0.91569	0.16117	0.42414	-0.171
Mof_O 	O 	0.03584	0.08382	0.4727	-0.459
Mof_O 	O 	0.82381	0.54515	0.54558	-0.172
Mof_O 	O 	0.69726	0.44851	0.44431	-0.167
Mof_O 	O 	0.59768	0.49893	0.42261	-0.257
Mof_O 	O 	0.73703	0.49155	0.57586	-0.168
Mof_O 	O 	0.61112	0.56314	0.5273	-0.459
Mof_O 	O 	0.00043	0.45485	0.27866	-0.195
Mof_O 	O 	0.9958	0.55149	0.24875	-0.114
Mof_O 	O 	0.92368	0.50107	0.09875	-0.245
Mof_O 	O 	0.08431	0.50845	0.24548	-0.172
Mof_O 	O 	0.96416	0.43686	0.04798	-0.408
Mof_O 	O 	0.65032	0.04877	0.69909	-0.072
Mof_O 	O 	0.58204	0.1368	0.71884	-0.171
Mof_O 	O 	0.65288	0.21456	0.86744	-0.035
Mof_O 	O 	0.34968	0.95123	0.30091	-0.032
Mof_O 	O 	0.41796	0.8632	0.28116	-0.163
Mof_O 	O 	0.34712	0.78544	0.13256	-0.043
Mof_O 	O 	0.65032	0.95123	0.60155	-0.027
Mof_O 	O 	0.58204	0.8632	0.44524	-0.164
Mof_O 	O 	0.65288	0.78544	0.43832	-0.036
Mof_O 	O 	0.34968	0.04877	0.39845	-0.08
Mof_O 	O 	0.41796	0.1368	0.55476	-0.171
Mof_O 	O 	0.34712	0.21456	0.56168	-0.043
Mof_O 	O 	0.60155	0.65032	0.95123	-0.027
Mof_O 	O 	0.44524	0.58204	0.8632	-0.164
Mof_O 	O 	0.43832	0.65288	0.78544	-0.036
Mof_O 	O 	0.39845	0.34968	0.04877	-0.08
Mof_O 	O 	0.55476	0.41796	0.1368	-0.171
Mof_O 	O 	0.56168	0.34712	0.21456	-0.043
Mof_O 	O 	0.69909	0.65032	0.04877	-0.072
Mof_O 	O 	0.71884	0.58204	0.1368	-0.171
Mof_O 	O 	0.86744	0.65288	0.21456	-0.035
Mof_O 	O 	0.30091	0.34968	0.95123	-0.032
Mof_O 	O 	0.28116	0.41796	0.8632	-0.163
Mof_O 	O 	0.13256	0.34712	0.78544	-0.043
Mof_O 	O 	0.95123	0.30091	0.34968	-0.032
Mof_O 	O 	0.8632	0.28116	0.41796	-0.163
Mof_O 	O 	0.78544	0.13256	0.34712	-0.043
Mof_O 	O 	0.04877	0.69909	0.65032	-0.072
Mof_O 	O 	0.1368	0.71884	0.58204	-0.171
Mof_O 	O 	0.21456	0.86744	0.65288	-0.035
Mof_O 	O 	0.04877	0.39845	0.34968	-0.08
Mof_O 	O 	0.1368	0.55476	0.41796	-0.171
Mof_O 	O 	0.21456	0.56168	0.34712	-0.043
Mof_O 	O 	0.95123	0.60155	0.65032	-0.027
Mof_O 	O 	0.8632	0.44524	0.58204	-0.164
Mof_O 	O 	0.78544	0.43832	0.65288	-0.036
Mof_O 	O 	0.3121	0.9537	0.6416	-0.024
Mof_O 	O 	0.5398	0.251	0.7112	-0.112
Mof_O 	O 	0.573	0.261	0.688	-0.087
Mof_O 	O 	0.3121	0.6705	0.3584	-0.04
Mof_O 	O 	0.5398	0.8286	0.2888	-0.119
Mof_O 	O 	0.573	0.885	0.312	-0.071
Mof_O 	O 	0.6879	0.0463	0.3584	-0.055
Mof_O 	O 	0.4602	0.749	0.2888	-0.116
Mof_O 	O 	0.427	0.739	0.312	-0.089
Mof_O 	O 	0.6879	0.3295	0.6416	-0.04
Mof_O 	O 	0.4602	0.1714	0.7112	-0.11
Mof_O 	O 	0.427	0.115	0.688	-0.105
Mof_O 	O 	0.3584	0.6879	0.0463	-0.055
Mof_O 	O 	0.2888	0.4602	0.749	-0.116
Mof_O 	O 	0.312	0.427	0.739	-0.089
Mof_O 	O 	0.6416	0.6879	0.3295	-0.04
Mof_O 	O 	0.7112	0.4602	0.1714	-0.11
Mof_O 	O 	0.688	0.427	0.115	-0.105
Mof_O 	O 	0.6416	0.3121	0.9537	-0.024
Mof_O 	O 	0.7112	0.5398	0.251	-0.112
Mof_O 	O 	0.688	0.573	0.261	-0.087
Mof_O 	O 	0.3584	0.3121	0.6705	-0.04
Mof_O 	O 	0.2888	0.5398	0.8286	-0.119
Mof_O 	O 	0.312	0.573	0.885	-0.071
Mof_O 	O 	0.6705	0.3584	0.3121	-0.04
Mof_O 	O 	0.8286	0.2888	0.5398	-0.119
Mof_O 	O 	0.885	0.312	0.573	-0.071
Mof_O 	O 	0.9537	0.6416	0.3121	-0.024
Mof_O 	O 	0.251	0.7112	0.5398	-0.112
Mof_O 	O 	0.261	0.688	0.573	-0.087
Mof_O 	O 	0.3295	0.6416	0.6879	-0.04
Mof_O 	O 	0.1714	0.7112	0.4602	-0.11
Mof_O 	O 	0.115	0.688	0.427	-0.105
Mof_O 	O 	0.0463	0.3584	0.6879	-0.055
Mof_O 	O 	0.749	0.2888	0.4602	-0.116
Mof_O 	O 	0.739	0.312	0.427	-0.089
_end
