data_functionalizedCrystal
_audit_creation_method	'EQeq! by Chris Wilmer'
_symmetry_space_group_name_H-M	'P1'
_symmetry_Int_Tables_number	1
_symmetry_cell_setting	triclinic
loop_
_symmetry_equiv_pos_as_xyz
  x,y,z
_cell_length_a	15.1466
_cell_length_b	15.1466
_cell_length_c	25.6891
_cell_angle_alpha	84.5093
_cell_angle_beta	77.3949
_cell_angle_gamma	117.878
loop_
_atom_site_label
_atom_site_type_symbol
_atom_site_fract_x
_atom_site_fract_y
_atom_site_fract_z
_atom_site_charge
Mof_Tb	Tb	0.34883	0.9157	0.44903	1.898
Mof_Tb	Tb	0.13527	0.20214	0.94903	1.897
Mof_Tb	Tb	0.86473	0.79786	0.05097	1.898
Mof_Tb	Tb	0.65117	0.0843	0.55097	1.899
Mof_H 	H 	0.8707	0.9167	0.4788	0.072
Mof_H 	H 	0.4783	0.7614	0.6913	0.033
Mof_H 	H 	0.9196	0.1358	0.728	0.062
Mof_H 	H 	0.5217	0.2386	0.3087	0.033
Mof_H 	H 	0.9015	0.1268	0.6537	0.034
Mof_H 	H 	0.9527	0.1696	0.8087	0.034
Mof_H 	H 	0.7523	0.9315	0.1382	0.001
Mof_H 	H 	0.0804	0.8642	0.272	0.063
Mof_H 	H 	0.0985	0.8732	0.3463	0.035
Mof_H 	H 	0.2492	0.07	0.5382	0.017
Mof_H 	H 	0.219	0.1581	0.7585	0.038
Mof_H 	H 	0.0102	0.9162	0.498	0.025
Mof_H 	H 	0.7508	0.93	0.4618	0.017
Mof_H 	H 	0.5697	0.8905	0.3618	0
Mof_H 	H 	0.4166	0.9775	0.7415	0.037
Mof_H 	H 	0.1293	0.0833	0.5212	0.074
Mof_H 	H 	0.332	0.0167	0.7945	0.072
Mof_H 	H 	0.781	0.8419	0.2415	0.037
Mof_H 	H 	0.8955	0.3495	0.0212	0.073
Mof_H 	H 	0.0858	0.4918	0.998	0.024
Mof_H 	H 	0.6362	0.3524	0.228	0.063
Mof_H 	H 	0.6888	0.8735	0.2945	0.073
Mof_H 	H 	0.5834	0.0225	0.2585	0.037
Mof_H 	H 	0.4303	0.1095	0.6382	0
Mof_H 	H 	0.8918	0.2126	0.0382	0.018
Mof_H 	H 	0.668	0.9833	0.2055	0.072
Mof_H 	H 	0.3112	0.1265	0.7055	0.073
Mof_H 	H 	0.7195	0.4448	0.1537	0.034
Mof_H 	H 	0.2805	0.5552	0.8463	0.034
Mof_H 	H 	0.9898	0.0838	0.502	0.023
Mof_H 	H 	0.9142	0.5082	0.002	0.024
Mof_H 	H 	0.1082	0.7874	0.9618	0.017
Mof_H 	H 	0.1045	0.6505	0.9788	0.073
Mof_H 	H 	0.2477	0.0685	0.8618	0.001
Mof_H 	H 	0.0473	0.8304	0.1913	0.033
Mof_H 	H 	0.3638	0.6476	0.772	0.063
Mof_C 	C 	0.9483	0.8687	0.3084	0.048
Mof_C 	C 	0.0182	0.8584	0.2662	-0.103
Mof_C 	C 	0.8975	0.898	0.4009	0.059
Mof_C 	C 	0.7462	0.3296	0.1394	-0.052
Mof_C 	C 	0.969	0.8856	0.3606	-0.05
Mof_C 	C 	0.2618	0.0832	0.572	0.06
Mof_C 	C 	0.8448	0.1662	0.072	0.059
Mof_C 	C 	0.7115	0.0298	0.1711	-0.138
Mof_C 	C 	0.9999	0.091	0.5369	0.04
Mof_C 	C 	0.1059	0.9581	0.958	0.537
Mof_C 	C 	0.0517	0.1313	0.6916	0.047
Mof_C 	C 	0.1573	0.1529	0.7524	-0.001
Mof_C 	C 	0.2124	0.8027	0.8889	-0.071
Mof_C 	C 	-1.14866e-16	0.1597	0.7823	0.017
Mof_C 	C 	0.5257	0.9549	0.6544	0.304
Mof_C 	C 	0.0525	0.8842	0.3729	0.012
Mof_C 	C 	0.165	0.901	0.433	0.363
Mof_C 	C 	0.7989	0.2984	0.0991	0.061
Mof_C 	C 	0.1683	0.9299	0.9166	-0.211
Mof_C 	C 	0.8604	0.8652	0.2972	-0.047
Mof_C 	C 	0.2011	0.7016	0.9009	0.061
Mof_C 	C 	0.6246	0.2844	0.2338	-0.103
Mof_C 	C 	0.0001	0.909	0.4631	0.035
Mof_C 	C 	0.8317	0.0701	0.0834	-0.21
Mof_C 	C 	0.9181	0.9089	0.4512	-0.116
Mof_C 	C 	0.4161	0.0639	0.542	0.537
Mof_C 	C 	0.8941	0.0419	0.042	0.537
Mof_C 	C 	0.7571	0.4254	0.1271	0.015
Mof_C 	C 	0.8721	0.4632	0.0369	0.038
Mof_C 	C 	0.6771	0.2567	0.1916	0.048
Mof_C 	C 	0.2429	0.5746	0.8729	0.015
Mof_C 	C 	0.4743	0.0451	0.3456	0.304
Mof_C 	C 	0.4053	0.9097	0.7476	0
Mof_C 	C 	0.031	0.1144	0.6394	-0.053
Mof_C 	C 	0.2783	0.872	0.8387	0.065
Mof_C 	C 	0.6312	0.8953	0.3681	0.087
Mof_C 	C 	0.7009	0.8826	0.3289	-0.141
Mof_C 	C 	0.9107	0.8362	0.2061	-0.09
Mof_C 	C 	0.835	0.099	0.567	0.365
Mof_C 	C 	0.1803	0.5069	0.9216	-0.118
Mof_C 	C 	0.8907	0.8199	0.1544	0.303
Mof_C 	C 	0.1916	0.1013	0.6111	-0.072
Mof_C 	C 	0.2107	0.117	0.6613	0.066
Mof_C 	C 	0.442	0.7823	0.7177	0.021
Mof_C 	C 	0.1279	0.5368	0.9631	0.038
Mof_C 	C 	0.9285	0.1019	0.5784	-0.119
Mof_C 	C 	0.4577	0.8832	0.7061	-0.091
Mof_C 	C 	0.1093	0.1801	0.8456	0.303
Mof_C 	C 	0.7634	0.9993	0.1319	0.085
Mof_C 	C 	0.7382	0.9168	0.428	0.059
Mof_C 	C 	0.0715	0.8981	0.4216	-0.116
Mof_C 	C 	-4.0203e-17	0.8403	0.2177	0.019
Mof_C 	C 	0.166	0.402	0.933	0.364
Mof_C 	C 	0.558	0.2177	0.2823	0.021
Mof_C 	C 	0.1025	0.102	0.5991	0.062
Mof_C 	C 	0.1396	0.1348	0.7028	-0.047
Mof_C 	C 	0.0819	0.0911	0.5488	-0.121
Mof_C 	C 	0.0893	0.1638	0.7939	-0.09
Mof_C 	C 	0.3688	0.1047	0.6319	0.087
Mof_C 	C 	0.1552	0.8338	0.928	0.059
Mof_C 	C 	0.2538	0.6704	0.8606	-0.052
Mof_C 	C 	0.2885	0.9702	0.8289	-0.139
Mof_C 	C 	0.8197	0.4931	0.0784	-0.118
Mof_C 	C 	0.5839	0.9361	0.458	0.537
Mof_C 	C 	0.6624	0.1576	0.2028	-0.047
Mof_C 	C 	0.5947	0.0903	0.2524	-0
Mof_C 	C 	0.3465	0.0849	0.5834	-0.212
Mof_C 	C 	0.834	0.598	0.067	0.364
Mof_C 	C 	0.1399	0.6307	0.9512	-0.119
Mof_C 	C 	0.3754	0.7156	0.7662	-0.103
Mof_C 	C 	0.3229	0.7433	0.8084	0.048
Mof_C 	C 	0.9475	0.1158	0.6271	0.017
Mof_C 	C 	0.3376	0.8424	0.7972	-0.047
Mof_C 	C 	0.2366	0.0007	0.8681	0.085
Mof_C 	C 	0.6535	0.9151	0.4166	-0.212
Mof_C 	C 	0.8427	0.8471	0.2476	-0
Mof_C 	C 	0.8601	0.3693	0.0488	-0.119
Mof_C 	C 	0.2991	0.1174	0.6711	-0.141
Mof_C 	C 	0.7217	0.128	0.1613	0.065
Mof_C 	C 	0.7876	0.1973	0.1111	-0.071
Mof_C 	C 	0.8084	0.8987	0.3889	-0.071
Mof_C 	C 	0.5423	0.1168	0.2939	-0.091
Mof_C 	C 	0.7893	0.883	0.3387	0.066
Mof_C 	C 	0.9818	0.1416	0.7338	-0.1
Mof_O 	O 	0.9622	0.1097	0.0017	-0.553
Mof_O 	O 	0.5545	0.0492	0.6473	-0.415
Mof_O 	O 	0.7843	0.6241	0.1022	-0.458
Mof_O 	O 	0.9646	0.8266	0.114	-0.408
Mof_O 	O 	0.0378	0.8903	0.9983	-0.554
Mof_O 	O 	0.8897	0.6593	0.0234	-0.468
Mof_O 	O 	0.6114	0.9639	0.4983	-0.554
Mof_O 	O 	0.5594	0.9214	0.614	-0.409
Mof_O 	O 	0.2157	0.3759	0.8978	-0.458
Mof_O 	O 	0.3886	0.0361	0.5017	-0.554
Mof_O 	O 	0.2263	0.8865	0.3978	-0.458
Mof_O 	O 	0.4455	0.9508	0.3527	-0.416
Mof_O 	O 	0.8035	0.7982	0.1473	-0.415
Mof_O 	O 	0.86868	0.9486	0.04712	-0.594
Mof_O 	O 	0.1827	0.9131	0.4766	-0.468
Mof_O 	O 	0.1103	0.3407	0.9766	-0.468
Mof_O 	O 	0.8173	0.0869	0.5234	-0.468
Mof_O 	O 	0.13132	0.0514	0.95288	-0.595
Mof_O 	O 	0.0354	0.1734	0.886	-0.409
Mof_O 	O 	0.7737	0.1135	0.6022	-0.458
Mof_O 	O 	0.4406	0.0786	0.386	-0.409
Mof_O 	O 	0.49572	0.9158	0.45288	-0.594
Mof_O 	O 	0.50428	0.0842	0.54712	-0.594
Mof_O 	O 	0.1965	0.2018	0.8527	-0.415
_end
