data_functionalizedCrystal
_audit_creation_method	'EQeq! by Chris Wilmer'
_symmetry_space_group_name_H-M	'P1'
_symmetry_Int_Tables_number	1
_symmetry_cell_setting	triclinic
loop_
_symmetry_equiv_pos_as_xyz
  x,y,z
_cell_length_a	17.9309
_cell_length_b	17.9309
_cell_length_c	17.9309
_cell_angle_alpha	90
_cell_angle_beta	90
_cell_angle_gamma	90
loop_
_atom_site_label
_atom_site_type_symbol
_atom_site_fract_x
_atom_site_fract_y
_atom_site_fract_z
_atom_site_charge
Mof_O 	O 	0.80027	0.08928	0.9899	-0.647
Mof_O 	O 	0.1874	0.11581	0.00421	-0.608
Mof_O 	O 	0.98643	0.20015	0.08968	-0.604
Mof_O 	O 	0.99579	0.1874	0.88419	-0.608
Mof_O 	O 	0.00954	0.09017	0.80064	-0.636
Mof_O 	O 	0.98701	0.11623	0.18744	-0.608
Mof_O 	O 	0.09017	0.19936	0.99045	-0.636
Mof_O 	O 	0.88419	0.18705	0.99166	-0.631
Mof_Zr	Zr	0.99172	0.13265	0.99152	3.229
Mof_O 	O 	0.06757	0.06757	0.93243	-1.269
Mof_O 	O 	0.92349	0.06728	0.05875	-1.256
Mof_C 	C 	0.81613	0.16027	0.99248	0.46
Mof_C 	C 	0.16093	0.18355	0.99616	0.435
Mof_C 	C 	0.9868	0.18435	0.16075	0.437
Mof_C 	C 	0.00384	0.16093	0.81645	0.435
Mof_H 	H 	0.08856	0.10952	0.0984	0.304
Mof_O 	O 	0.05901	0.07538	0.06681	-1.5
Mof_H 	H 	0.9016	0.08856	0.89049	0.305
Mof_O 	O 	0.93319	0.05901	0.92462	-1.499
Mof_O 	O 	0.20015	0.91032	0.01357	-0.603
Mof_O 	O 	0.81375	0.88299	0.99148	-0.62
Mof_O 	O 	0.08928	0.0101	0.19973	-0.646
Mof_O 	O 	0.11581	0.99579	0.8126	-0.607
Mof_O 	O 	0.91032	0.98643	0.79985	-0.603
Mof_O 	O 	0.88299	0.00852	0.18625	-0.62
Mof_O 	O 	0.00852	0.81375	0.11701	-0.62
Mof_O 	O 	0.0101	0.80027	0.91072	-0.646
Mof_O 	O 	0.99361	0.9111	0.20021	-0.573
Mof_O 	O 	0.00834	0.88419	0.81295	-0.63
Mof_O 	O 	0.18705	0.00834	0.11581	-0.63
Mof_O 	O 	0.79979	0.99361	0.0889	-0.573
Mof_O 	O 	0.81256	0.98701	0.88377	-0.607
Mof_O 	O 	0.19936	0.00954	0.90983	-0.635
Mof_O 	O 	0.11623	0.81256	0.01299	-0.607
Mof_O 	O 	0.9111	0.79979	0.0064	-0.573
Mof_Zr	Zr	0.13265	0.00848	0.00828	3.23
Mof_Zr	Zr	0.86745	0.99091	0.9911	3.23
Mof_Zr	Zr	0.99091	0.0089	0.13255	3.23
Mof_Zr	Zr	0.00848	0.99172	0.86735	3.23
Mof_Zr	Zr	0.0089	0.86745	0.00909	3.23
Mof_O 	O 	0.94125	0.92349	0.93272	-1.255
Mof_O 	O 	0.06728	0.94125	0.07651	-1.255
Mof_C 	C 	0.18435	0.83925	0.0132	0.438
Mof_C 	C 	0.84046	0.81525	0.99858	0.419
Mof_C 	C 	0.16027	0.00752	0.18387	0.461
Mof_C 	C 	0.18355	0.00384	0.83907	0.436
Mof_C 	C 	0.83925	0.9868	0.81565	0.438
Mof_C 	C 	0.81525	0.00142	0.15954	0.419
Mof_C 	C 	0.00142	0.84046	0.18476	0.419
Mof_C 	C 	0.00752	0.81613	0.83973	0.461
Mof_H 	H 	0.90118	0.90118	0.09882	0.314
Mof_O 	O 	0.93299	0.93299	0.06701	-1.447
Mof_H 	H 	0.10951	0.9016	0.91144	0.305
Mof_O 	O 	0.07538	0.93319	0.94099	-1.499
Mof_O 	O 	0.30027	0.58928	0.9899	-0.634
Mof_O 	O 	0.6874	0.61581	0.00421	-0.581
Mof_O 	O 	0.48643	0.70015	0.08968	-0.611
Mof_O 	O 	0.49579	0.6874	0.88419	-0.621
Mof_O 	O 	0.50954	0.59017	0.80064	-0.627
Mof_O 	O 	0.48701	0.61623	0.18744	-0.617
Mof_O 	O 	0.59017	0.69936	0.99045	-0.627
Mof_O 	O 	0.38419	0.68705	0.99166	-0.63
Mof_Zr	Zr	0.49172	0.63265	0.99152	3.228
Mof_O 	O 	0.56757	0.56757	0.93243	-1.267
Mof_O 	O 	0.42349	0.56728	0.05875	-1.248
Mof_C 	C 	0.31613	0.66027	0.99248	0.459
Mof_C 	C 	0.66093	0.68355	0.99616	0.409
Mof_C 	C 	0.4868	0.68435	0.16075	0.445
Mof_C 	C 	0.50384	0.66093	0.81645	0.452
Mof_H 	H 	0.58856	0.60952	0.0984	0.309
Mof_O 	O 	0.55901	0.57538	0.06681	-1.479
Mof_H 	H 	0.4016	0.58856	0.89049	0.308
Mof_O 	O 	0.43319	0.55901	0.92462	-1.493
Mof_O 	O 	0.70015	0.41032	0.01357	-0.612
Mof_O 	O 	0.31375	0.38299	0.99148	-0.621
Mof_O 	O 	0.58928	0.5101	0.19973	-0.623
Mof_O 	O 	0.61581	0.49579	0.8126	-0.619
Mof_O 	O 	0.41032	0.48643	0.79985	-0.626
Mof_O 	O 	0.38299	0.50852	0.18625	-0.616
Mof_O 	O 	0.50852	0.31375	0.11701	-0.616
Mof_O 	O 	0.5101	0.30027	0.91072	-0.634
Mof_O 	O 	0.49361	0.4111	0.20021	-0.628
Mof_O 	O 	0.50834	0.38419	0.81295	-0.617
Mof_O 	O 	0.68705	0.50834	0.11581	-0.612
Mof_O 	O 	0.29979	0.49361	0.0889	-0.619
Mof_O 	O 	0.31256	0.48701	0.88377	-0.621
Mof_O 	O 	0.69936	0.50954	0.90983	-0.64
Mof_O 	O 	0.61623	0.31256	0.01299	-0.606
Mof_O 	O 	0.4111	0.29979	0.0064	-0.608
Mof_Zr	Zr	0.63265	0.50848	0.00828	3.234
Mof_Zr	Zr	0.36745	0.49091	0.9911	3.229
Mof_Zr	Zr	0.49091	0.5089	0.13255	3.231
Mof_Zr	Zr	0.50848	0.49172	0.86735	3.231
Mof_Zr	Zr	0.5089	0.36745	0.00909	3.233
Mof_O 	O 	0.44125	0.42349	0.93272	-1.268
Mof_O 	O 	0.56728	0.44125	0.07651	-1.256
Mof_C 	C 	0.68435	0.33925	0.0132	0.438
Mof_C 	C 	0.34046	0.31525	0.99858	0.434
Mof_C 	C 	0.66027	0.50752	0.18387	0.452
Mof_C 	C 	0.68355	0.50384	0.83907	0.453
Mof_C 	C 	0.33925	0.4868	0.81565	0.445
Mof_C 	C 	0.31525	0.50142	0.15954	0.45
Mof_C 	C 	0.50142	0.34046	0.18476	0.45
Mof_C 	C 	0.50752	0.31613	0.83973	0.453
Mof_H 	H 	0.40118	0.40118	0.09882	0.307
Mof_O 	O 	0.43299	0.43299	0.06701	-1.476
Mof_H 	H 	0.60951	0.4016	0.91144	0.304
Mof_O 	O 	0.57538	0.43319	0.94099	-1.499
Mof_O 	O 	0.80027	0.58928	0.4899	-0.624
Mof_O 	O 	0.1874	0.61581	0.50421	-0.619
Mof_O 	O 	0.98643	0.70015	0.58968	-0.612
Mof_O 	O 	0.99579	0.6874	0.38419	-0.581
Mof_O 	O 	0.00954	0.59017	0.30064	-0.627
Mof_O 	O 	0.98701	0.61623	0.68744	-0.606
Mof_O 	O 	0.09017	0.69936	0.49046	-0.64
Mof_O 	O 	0.88419	0.68705	0.49166	-0.612
Mof_Zr	Zr	0.99172	0.63265	0.49152	3.234
Mof_O 	O 	0.06757	0.56757	0.43243	-1.267
Mof_O 	O 	0.92349	0.56728	0.55875	-1.256
Mof_C 	C 	0.81613	0.66027	0.49248	0.452
Mof_C 	C 	0.16093	0.68355	0.49616	0.453
Mof_C 	C 	0.9868	0.68435	0.66075	0.438
Mof_C 	C 	0.00384	0.66093	0.31645	0.409
Mof_H 	H 	0.08856	0.60951	0.5984	0.304
Mof_O 	O 	0.05901	0.57538	0.56681	-1.499
Mof_H 	H 	0.9016	0.58856	0.39049	0.31
Mof_O 	O 	0.93319	0.55901	0.42462	-1.479
Mof_O 	O 	0.20015	0.41032	0.51357	-0.626
Mof_O 	O 	0.81375	0.38299	0.49148	-0.616
Mof_O 	O 	0.08928	0.5101	0.69973	-0.634
Mof_O 	O 	0.11581	0.49579	0.3126	-0.621
Mof_O 	O 	0.91032	0.48643	0.29985	-0.611
Mof_O 	O 	0.88299	0.50852	0.68625	-0.616
Mof_O 	O 	0.00852	0.31375	0.61701	-0.621
Mof_O 	O 	0.0101	0.30027	0.41072	-0.634
Mof_O 	O 	0.9936	0.4111	0.70021	-0.608
Mof_O 	O 	0.00834	0.38419	0.31295	-0.63
Mof_O 	O 	0.18705	0.50834	0.61581	-0.617
Mof_O 	O 	0.79979	0.4936	0.5889	-0.628
Mof_O 	O 	0.81256	0.48701	0.38377	-0.617
Mof_O 	O 	0.19936	0.50954	0.40983	-0.627
Mof_O 	O 	0.11623	0.31256	0.51299	-0.621
Mof_O 	O 	0.9111	0.29979	0.50639	-0.619
Mof_Zr	Zr	0.13265	0.50848	0.50828	3.231
Mof_Zr	Zr	0.86745	0.49091	0.4911	3.231
Mof_Zr	Zr	0.99091	0.5089	0.63255	3.233
Mof_Zr	Zr	0.00848	0.49172	0.36735	3.228
Mof_Zr	Zr	0.0089	0.36745	0.50909	3.229
Mof_O 	O 	0.94125	0.42349	0.43272	-1.248
Mof_O 	O 	0.06728	0.44125	0.57651	-1.268
Mof_C 	C 	0.18435	0.33925	0.5132	0.445
Mof_C 	C 	0.84046	0.31525	0.49858	0.45
Mof_C 	C 	0.16027	0.50752	0.68387	0.453
Mof_C 	C 	0.18355	0.50384	0.33907	0.452
Mof_C 	C 	0.83925	0.4868	0.31565	0.445
Mof_C 	C 	0.81524	0.50142	0.65954	0.45
Mof_C 	C 	0.00142	0.34046	0.68475	0.434
Mof_C 	C 	0.00752	0.31613	0.33973	0.459
Mof_H 	H 	0.90118	0.40118	0.59882	0.307
Mof_O 	O 	0.93299	0.43299	0.56701	-1.476
Mof_H 	H 	0.10952	0.4016	0.41144	0.308
Mof_O 	O 	0.07538	0.43319	0.44099	-1.493
Mof_O 	O 	0.30027	0.08928	0.4899	-0.634
Mof_O 	O 	0.6874	0.11581	0.50421	-0.621
Mof_O 	O 	0.48643	0.20015	0.58968	-0.626
Mof_O 	O 	0.49579	0.1874	0.38419	-0.619
Mof_O 	O 	0.50954	0.09017	0.30064	-0.64
Mof_O 	O 	0.48701	0.11623	0.68744	-0.621
Mof_O 	O 	0.59017	0.19936	0.49046	-0.627
Mof_O 	O 	0.38419	0.18705	0.49166	-0.617
Mof_Zr	Zr	0.49172	0.13265	0.49152	3.231
Mof_O 	O 	0.56757	0.06757	0.43243	-1.267
Mof_O 	O 	0.42349	0.06728	0.55875	-1.268
Mof_C 	C 	0.31613	0.16027	0.49248	0.453
Mof_C 	C 	0.66093	0.18355	0.49616	0.452
Mof_C 	C 	0.4868	0.18435	0.66075	0.445
Mof_C 	C 	0.50384	0.16093	0.31645	0.453
Mof_H 	H 	0.58856	0.10951	0.5984	0.308
Mof_O 	O 	0.55901	0.07538	0.56681	-1.493
Mof_H 	H 	0.4016	0.08856	0.39049	0.304
Mof_O 	O 	0.43319	0.05901	0.42462	-1.499
Mof_O 	O 	0.70015	0.91032	0.51357	-0.611
Mof_O 	O 	0.31375	0.88299	0.49148	-0.616
Mof_O 	O 	0.58928	0.0101	0.69973	-0.634
Mof_O 	O 	0.61581	0.99579	0.3126	-0.581
Mof_O 	O 	0.41032	0.98643	0.29985	-0.612
Mof_O 	O 	0.38299	0.00852	0.68625	-0.621
Mof_O 	O 	0.50852	0.81375	0.61701	-0.616
Mof_O 	O 	0.5101	0.80027	0.41072	-0.623
Mof_O 	O 	0.4936	0.9111	0.70021	-0.619
Mof_O 	O 	0.50834	0.88419	0.31295	-0.612
Mof_O 	O 	0.68705	0.00834	0.61581	-0.63
Mof_O 	O 	0.29979	0.9936	0.5889	-0.608
Mof_O 	O 	0.31256	0.98701	0.38377	-0.606
Mof_O 	O 	0.69936	0.00954	0.40983	-0.627
Mof_O 	O 	0.61623	0.81256	0.51299	-0.617
Mof_O 	O 	0.4111	0.79979	0.50639	-0.628
Mof_Zr	Zr	0.63265	0.00848	0.50828	3.228
Mof_Zr	Zr	0.36745	0.99091	0.4911	3.233
Mof_Zr	Zr	0.49091	0.0089	0.63255	3.229
Mof_Zr	Zr	0.50848	0.99172	0.36735	3.234
Mof_Zr	Zr	0.5089	0.86745	0.50909	3.231
Mof_O 	O 	0.44125	0.92349	0.43272	-1.256
Mof_O 	O 	0.56728	0.94125	0.57651	-1.248
Mof_C 	C 	0.68435	0.83925	0.5132	0.445
Mof_C 	C 	0.34046	0.81525	0.49858	0.45
Mof_C 	C 	0.66027	0.00752	0.68387	0.459
Mof_C 	C 	0.68355	0.00384	0.33907	0.409
Mof_C 	C 	0.33925	0.9868	0.31565	0.438
Mof_C 	C 	0.31524	0.00142	0.65954	0.434
Mof_C 	C 	0.50142	0.84046	0.68475	0.45
Mof_C 	C 	0.50752	0.81613	0.33973	0.452
Mof_H 	H 	0.40118	0.90118	0.59882	0.307
Mof_O 	O 	0.43299	0.93299	0.56701	-1.476
Mof_H 	H 	0.60952	0.9016	0.41144	0.309
Mof_O 	O 	0.57538	0.93319	0.44099	-1.479
Mof_C 	C 	0.21311	0.25041	0.994	-0.099
Mof_C 	C 	0.28849	0.24818	0.99924	-0.123
Mof_H 	H 	0.18715	0.30465	0.98817	0.09
Mof_H 	H 	0.31448	0.19397	0.00516	0.108
Mof_C 	C 	0.21311	0.75041	0.494	-0.106
Mof_C 	C 	0.28849	0.74818	0.49924	-0.103
Mof_H 	H 	0.18715	0.80465	0.48818	0.094
Mof_H 	H 	0.31448	0.69397	0.50516	0.094
Mof_C 	C 	0.78849	0.74818	0.99924	-0.145
Mof_C 	C 	0.71311	0.75041	0.994	-0.085
Mof_H 	H 	0.81448	0.69397	0.00516	0.132
Mof_H 	H 	0.68715	0.80465	0.98817	0.089
Mof_C 	C 	0.78849	0.24818	0.49924	-0.102
Mof_C 	C 	0.71311	0.25041	0.494	-0.105
Mof_H 	H 	0.81448	0.19397	0.50516	0.095
Mof_H 	H 	0.68715	0.30465	0.48818	0.096
Mof_C 	C 	0.74916	0.21249	0.99663	-0.146
Mof_C 	C 	0.75132	0.28693	0.0106	-0.063
Mof_H 	H 	0.69484	0.18716	0.9891	0.094
Mof_H 	H 	0.80563	0.31231	0.01804	0.096
Mof_C 	C 	0.74916	0.71249	0.49663	-0.103
Mof_C 	C 	0.75132	0.78693	0.5106	-0.1
Mof_H 	H 	0.69484	0.68716	0.4891	0.093
Mof_H 	H 	0.80563	0.81231	0.51804	0.1
Mof_C 	C 	0.25132	0.28693	0.5106	-0.103
Mof_C 	C 	0.24916	0.21249	0.49663	-0.106
Mof_H 	H 	0.30563	0.31231	0.51804	0.094
Mof_H 	H 	0.19484	0.18716	0.4891	0.09
Mof_C 	C 	0.25132	0.78693	0.0106	-0.062
Mof_C 	C 	0.24916	0.71249	0.99663	-0.144
Mof_H 	H 	0.30563	0.81231	0.01804	0.096
Mof_H 	H 	0.19484	0.68716	0.9891	0.094
Mof_C 	C 	0.9894	0.25132	0.21307	-0.062
Mof_C 	C 	0.00337	0.24916	0.28751	-0.144
Mof_H 	H 	0.98196	0.30563	0.18769	0.096
Mof_H 	H 	0.0109	0.19484	0.31284	0.094
Mof_C 	C 	0.50337	0.24916	0.78751	-0.106
Mof_C 	C 	0.4894	0.25132	0.71307	-0.103
Mof_H 	H 	0.5109	0.19484	0.81284	0.09
Mof_H 	H 	0.48196	0.30563	0.68769	0.094
Mof_C 	C 	0.00337	0.74916	0.78751	-0.146
Mof_C 	C 	0.9894	0.75132	0.71307	-0.063
Mof_H 	H 	0.0109	0.69484	0.81284	0.094
Mof_H 	H 	0.98196	0.80563	0.68769	0.096
Mof_C 	C 	0.4894	0.75132	0.21307	-0.1
Mof_C 	C 	0.50337	0.74916	0.28751	-0.103
Mof_H 	H 	0.48196	0.80563	0.18769	0.1
Mof_H 	H 	0.5109	0.69484	0.31284	0.093
Mof_C 	C 	0.00076	0.78849	0.25182	-0.145
Mof_C 	C 	0.006	0.71311	0.24959	-0.085
Mof_H 	H 	0.99484	0.81448	0.30603	0.132
Mof_H 	H 	0.01183	0.68715	0.19535	0.089
Mof_C 	C 	0.506	0.71311	0.74959	-0.105
Mof_C 	C 	0.50076	0.78849	0.75182	-0.102
Mof_H 	H 	0.51182	0.68715	0.69535	0.096
Mof_H 	H 	0.49484	0.81448	0.80603	0.095
Mof_C 	C 	0.50076	0.28849	0.25182	-0.103
Mof_C 	C 	0.506	0.21311	0.24959	-0.106
Mof_H 	H 	0.49484	0.31448	0.30603	0.094
Mof_H 	H 	0.51183	0.18715	0.19535	0.094
Mof_C 	C 	0.006	0.21311	0.74959	-0.099
Mof_C 	C 	0.00076	0.28849	0.75182	-0.123
Mof_H 	H 	0.01182	0.18715	0.69535	0.09
Mof_H 	H 	0.99484	0.31448	0.80603	0.108
Mof_C 	C 	0.21249	0.00337	0.25084	-0.146
Mof_C 	C 	0.28693	0.9894	0.24868	-0.063
Mof_H 	H 	0.18716	0.0109	0.30516	0.094
Mof_H 	H 	0.31231	0.98196	0.19437	0.096
Mof_C 	C 	0.28693	0.4894	0.74868	-0.103
Mof_C 	C 	0.21249	0.50337	0.75084	-0.106
Mof_H 	H 	0.31231	0.48196	0.69437	0.094
Mof_H 	H 	0.18716	0.5109	0.80516	0.09
Mof_C 	C 	0.78693	0.9894	0.74868	-0.062
Mof_C 	C 	0.71249	0.00337	0.75084	-0.144
Mof_H 	H 	0.81231	0.98196	0.69437	0.096
Mof_H 	H 	0.68716	0.0109	0.80516	0.094
Mof_C 	C 	0.71249	0.50337	0.25084	-0.103
Mof_C 	C 	0.78693	0.4894	0.24868	-0.1
Mof_H 	H 	0.68716	0.5109	0.30516	0.093
Mof_H 	H 	0.81231	0.48196	0.19437	0.1
Mof_C 	C 	0.25041	0.006	0.78689	-0.099
Mof_C 	C 	0.24818	0.00076	0.71151	-0.123
Mof_H 	H 	0.30465	0.01182	0.81285	0.09
Mof_H 	H 	0.19397	0.99484	0.68552	0.108
Mof_C 	C 	0.24818	0.50076	0.21151	-0.102
Mof_C 	C 	0.25041	0.506	0.28689	-0.105
Mof_H 	H 	0.19397	0.49484	0.18552	0.095
Mof_H 	H 	0.30465	0.51182	0.31285	0.096
Mof_C 	C 	0.74818	0.00076	0.21151	-0.145
Mof_C 	C 	0.75041	0.006	0.28689	-0.085
Mof_H 	H 	0.69397	0.99484	0.18552	0.132
Mof_H 	H 	0.80465	0.01182	0.31285	0.089
Mof_C 	C 	0.75041	0.506	0.78689	-0.106
Mof_C 	C 	0.74818	0.50076	0.71151	-0.103
Mof_H 	H 	0.80465	0.51182	0.81285	0.094
Mof_H 	H 	0.69397	0.49484	0.68552	0.094
_end
