data_functionalizedCrystal
_audit_creation_method	'EQeq! by Chris Wilmer'
_symmetry_space_group_name_H-M	'P1'
_symmetry_Int_Tables_number	1
_symmetry_cell_setting	triclinic
loop_
_symmetry_equiv_pos_as_xyz
  x,y,z
_cell_length_a	14.865
_cell_length_b	14.983
_cell_length_c	14.983
_cell_angle_alpha	120
_cell_angle_beta	90
_cell_angle_gamma	90
loop_
_atom_site_label
_atom_site_type_symbol
_atom_site_fract_x
_atom_site_fract_y
_atom_site_fract_z
_atom_site_charge
Mof_Sm	Sm	0.75	0.33333	0.66666	2.551
Mof_Sm	Sm	0.75	0.66667	0.33334	2.551
Mof_Sm	Sm	0.25	0.66667	0.33334	2.53
Mof_Sm	Sm	0.25	0.33333	0.66666	2.53
Mof_Cu	Cu	2.18372e-33	0.5	0.5	0.889
Mof_Cu	Cu	-6.55117e-33	0	0.5	0.856
Mof_Cu	Cu	4.36744e-33	0.5	-0	0.856
Mof_Cu	Cu	0.5	0	0.5	0.913
Mof_Cu	Cu	0.5	0.5	0.5	0.947
Mof_Cu	Cu	0.5	0.5	-0	0.913
Mof_H 	H 	0.8391	0.6326	0.7905	0.13
Mof_H 	H 	0.7627	0.6242	0.7141	0.104
Mof_H 	H 	0.8391	0.1579	0.3674	0.092
Mof_H 	H 	0.7627	0.0899	0.3758	0.064
Mof_H 	H 	0.8391	0.2095	0.8421	0.11
Mof_H 	H 	0.7627	0.2859	0.9101	0.112
Mof_H 	H 	0.8391	0.3674	0.2095	0.092
Mof_H 	H 	0.7627	0.3758	0.2859	0.083
Mof_H 	H 	0.8391	0.8421	0.6326	0.129
Mof_H 	H 	0.7627	0.9101	0.6242	0.123
Mof_H 	H 	0.8391	0.7905	0.1579	0.111
Mof_H 	H 	0.7627	0.7141	0.0899	0.074
Mof_H 	H 	0.6609	0.8421	0.2095	0.094
Mof_H 	H 	0.7373	0.9101	0.2859	0.114
Mof_H 	H 	0.6609	0.7905	0.6326	0.115
Mof_H 	H 	0.7373	0.7141	0.6242	0.107
Mof_H 	H 	0.6609	0.3674	0.1579	0.076
Mof_H 	H 	0.7373	0.3758	0.0899	0.067
Mof_H 	H 	0.6609	0.1579	0.7905	0.096
Mof_H 	H 	0.7373	0.0899	0.7141	0.077
Mof_H 	H 	0.6609	0.2095	0.3674	0.076
Mof_H 	H 	0.7373	0.2859	0.3758	0.085
Mof_H 	H 	0.6609	0.6326	0.8421	0.113
Mof_H 	H 	0.7373	0.6242	0.9101	0.125
Mof_H 	H 	0.1609	0.3674	0.2095	0.054
Mof_H 	H 	0.2373	0.3758	0.2859	0.074
Mof_H 	H 	0.1609	0.8421	0.6326	0.092
Mof_H 	H 	0.2373	0.9101	0.6242	0.114
Mof_H 	H 	0.1609	0.7905	0.1579	0.075
Mof_H 	H 	0.2373	0.7141	0.0899	0.066
Mof_H 	H 	0.1609	0.6326	0.7905	0.093
Mof_H 	H 	0.2373	0.6242	0.7141	0.096
Mof_H 	H 	0.1609	0.1579	0.3674	0.054
Mof_H 	H 	0.2373	0.0899	0.3758	0.055
Mof_H 	H 	0.1609	0.2095	0.8421	0.073
Mof_H 	H 	0.2373	0.2859	0.9101	0.104
Mof_H 	H 	0.3391	0.1579	0.7905	0.09
Mof_H 	H 	0.2627	0.0899	0.7141	0.065
Mof_H 	H 	0.3391	0.2095	0.3674	0.07
Mof_H 	H 	0.2627	0.2859	0.3758	0.073
Mof_H 	H 	0.3391	0.6326	0.8421	0.108
Mof_H 	H 	0.2627	0.6242	0.9101	0.114
Mof_H 	H 	0.3391	0.8421	0.2095	0.088
Mof_H 	H 	0.2627	0.9101	0.2859	0.103
Mof_H 	H 	0.3391	0.7905	0.6326	0.109
Mof_H 	H 	0.2627	0.7141	0.6242	0.095
Mof_H 	H 	0.3391	0.3674	0.1579	0.07
Mof_H 	H 	0.2627	0.3758	0.0899	0.054
Mof_C 	C 	0.86	0.514	0.6435	0.445
Mof_C 	C 	0.8017	0.5847	0.7335	-0.208
Mof_C 	C 	0.86	0.1295	0.486	0.427
Mof_C 	C 	0.8017	0.1488	0.4153	-0.171
Mof_C 	C 	0.86	0.3565	0.8705	0.438
Mof_C 	C 	0.8017	0.2665	0.8512	-0.195
Mof_C 	C 	0.86	0.486	0.3565	0.43
Mof_C 	C 	0.8017	0.4153	0.2665	-0.176
Mof_C 	C 	0.86	0.8705	0.514	0.445
Mof_C 	C 	0.8017	0.8512	0.5847	-0.211
Mof_C 	C 	0.86	0.6435	0.1295	0.435
Mof_C 	C 	0.8017	0.7335	0.1488	-0.187
Mof_C 	C 	0.64	0.8705	0.3565	0.44
Mof_C 	C 	0.6983	0.8512	0.2665	-0.197
Mof_C 	C 	0.64	0.6435	0.514	0.448
Mof_C 	C 	0.6983	0.7335	0.5847	-0.211
Mof_C 	C 	0.64	0.486	0.1295	0.43
Mof_C 	C 	0.6983	0.4153	0.1488	-0.174
Mof_C 	C 	0.64	0.1295	0.6435	0.437
Mof_C 	C 	0.6983	0.1488	0.7335	-0.19
Mof_C 	C 	0.64	0.3565	0.486	0.433
Mof_C 	C 	0.6983	0.2665	0.4153	-0.178
Mof_C 	C 	0.64	0.514	0.8705	0.448
Mof_C 	C 	0.6983	0.5847	0.8512	-0.214
Mof_C 	C 	0.14	0.486	0.3565	0.425
Mof_C 	C 	0.1983	0.4153	0.2665	-0.167
Mof_C 	C 	0.14	0.8705	0.514	0.44
Mof_C 	C 	0.1983	0.8512	0.5847	-0.203
Mof_C 	C 	0.14	0.6435	0.1295	0.429
Mof_C 	C 	0.1983	0.7335	0.1488	-0.179
Mof_C 	C 	0.14	0.514	0.6435	0.44
Mof_C 	C 	0.1983	0.5847	0.7335	-0.2
Mof_C 	C 	0.14	0.1295	0.486	0.421
Mof_C 	C 	0.1983	0.1488	0.4153	-0.162
Mof_C 	C 	0.14	0.3565	0.8705	0.432
Mof_C 	C 	0.1983	0.2665	0.8512	-0.187
Mof_C 	C 	0.36	0.1295	0.6435	0.433
Mof_C 	C 	0.3017	0.1488	0.7335	-0.179
Mof_C 	C 	0.36	0.3565	0.486	0.428
Mof_C 	C 	0.3017	0.2665	0.4153	-0.168
Mof_C 	C 	0.36	0.514	0.8705	0.443
Mof_C 	C 	0.3017	0.5847	0.8512	-0.204
Mof_C 	C 	0.36	0.8705	0.3565	0.436
Mof_C 	C 	0.3017	0.8512	0.2665	-0.187
Mof_C 	C 	0.36	0.6435	0.514	0.444
Mof_C 	C 	0.3017	0.7335	0.5847	-0.201
Mof_C 	C 	0.36	0.486	0.1295	0.425
Mof_C 	C 	0.3017	0.4153	0.1488	-0.163
Mof_O 	O 	0.9076	0.5568	0.6074	-0.362
Mof_O 	O 	0.8573	0.4196	0.6132	-0.502
Mof_O 	O 	0.9076	0.0506	0.4432	-0.39
Mof_O 	O 	0.8573	0.1936	0.5804	-0.505
Mof_O 	O 	0.9076	0.3926	0.9494	-0.328
Mof_O 	O 	0.8573	0.3868	0.8064	-0.491
Mof_O 	O 	0.9076	0.4432	0.3926	-0.366
Mof_O 	O 	0.8573	0.5804	0.3868	-0.499
Mof_O 	O 	0.9076	0.9494	0.5568	-0.326
Mof_O 	O 	0.8573	0.8064	0.4196	-0.493
Mof_O 	O 	0.9076	0.6074	0.0506	-0.388
Mof_O 	O 	0.8573	0.6132	0.1936	-0.506
Mof_O 	O 	0.5924	0.9494	0.3926	-0.383
Mof_O 	O 	0.6427	0.8064	0.3868	-0.518
Mof_O 	O 	0.5924	0.6074	0.5568	-0.418
Mof_O 	O 	0.6427	0.6132	0.4196	-0.529
Mof_O 	O 	0.5924	0.4432	0.0506	-0.447
Mof_O 	O 	0.6427	0.5804	0.1936	-0.532
Mof_O 	O 	0.5924	0.0506	0.6074	-0.444
Mof_O 	O 	0.6427	0.1936	0.6132	-0.533
Mof_O 	O 	0.5924	0.3926	0.4432	-0.423
Mof_O 	O 	0.6427	0.3868	0.5804	-0.525
Mof_O 	O 	0.5924	0.5568	0.9494	-0.38
Mof_O 	O 	0.6427	0.4196	0.8064	-0.519
Mof_O 	O 	0.0924	0.4432	0.3926	-0.454
Mof_O 	O 	0.1427	0.5804	0.3868	-0.541
Mof_O 	O 	0.0924	0.9494	0.5568	-0.41
Mof_O 	O 	0.1427	0.8064	0.4196	-0.535
Mof_O 	O 	0.0924	0.6074	0.0506	-0.475
Mof_O 	O 	0.1427	0.6132	0.1936	-0.549
Mof_O 	O 	0.0924	0.5568	0.6074	-0.449
Mof_O 	O 	0.1427	0.4196	0.6132	-0.545
Mof_O 	O 	0.0924	0.0506	0.4432	-0.477
Mof_O 	O 	0.1427	0.1936	0.5804	-0.548
Mof_O 	O 	0.0924	0.3926	0.9494	-0.412
Mof_O 	O 	0.1427	0.3868	0.8064	-0.533
Mof_O 	O 	0.4076	0.0506	0.6074	-0.443
Mof_O 	O 	0.3573	0.1936	0.6132	-0.529
Mof_O 	O 	0.4076	0.3926	0.4432	-0.422
Mof_O 	O 	0.3573	0.3868	0.5804	-0.522
Mof_O 	O 	0.4076	0.5568	0.9494	-0.379
Mof_O 	O 	0.3573	0.4196	0.8064	-0.515
Mof_O 	O 	0.4076	0.9494	0.3926	-0.381
Mof_O 	O 	0.3573	0.8064	0.3868	-0.514
Mof_O 	O 	0.4076	0.6074	0.5568	-0.417
Mof_O 	O 	0.3573	0.6132	0.4196	-0.525
Mof_O 	O 	0.4076	0.4432	0.0506	-0.446
Mof_O 	O 	0.3573	0.5804	0.1936	-0.528
Mof_O 	O 	0.75	0.5271	0.76355	-0.274
Mof_O 	O 	0.75	0.23645	0.4729	-0.297
Mof_O 	O 	0.75	0.23645	0.76355	-0.286
Mof_O 	O 	0.75	0.4729	0.23645	-0.297
Mof_O 	O 	0.75	0.76355	0.5271	-0.274
Mof_O 	O 	0.75	0.76355	0.23645	-0.286
Mof_O 	O 	0.25	0.4729	0.23645	-0.306
Mof_O 	O 	0.25	0.76355	0.5271	-0.282
Mof_O 	O 	0.25	0.76355	0.23645	-0.294
Mof_O 	O 	0.25	0.5271	0.76355	-0.282
Mof_O 	O 	0.25	0.23645	0.4729	-0.306
Mof_O 	O 	0.25	0.23645	0.76355	-0.294
_end
