data_functionalizedCrystal
_audit_creation_method	'EQeq! by Chris Wilmer'
_symmetry_space_group_name_H-M	'P1'
_symmetry_Int_Tables_number	1
_symmetry_cell_setting	triclinic
loop_
_symmetry_equiv_pos_as_xyz
  x,y,z
_cell_length_a	24.973
_cell_length_b	19.3506
_cell_length_c	21.3833
_cell_angle_alpha	90
_cell_angle_beta	96.045
_cell_angle_gamma	90
loop_
_atom_site_label
_atom_site_type_symbol
_atom_site_fract_x
_atom_site_fract_y
_atom_site_fract_z
_atom_site_charge
Mof_Ag	Ag	0.6997	0.21057	0.44271	0.331
Mof_C 	C 	0.9608	0.2766	0.9613	0.112
Mof_N 	N 	0.9809	0.4028	0.9649	-0.161
Mof_Ag	Ag	0.90329	0.21633	0.62967	0.484
Mof_N 	N 	0.9824	0.4518	0.9196	-0.122
Mof_C 	C 	0.9213	0.2324	0.9303	-0.217
Mof_H 	H 	0.9028	0.2447	0.8919	0.076
Mof_N 	N 	0.9743	0.4236	0.8637	-0.129
Mof_C 	C 	0.9112	0.1696	0.9592	0.194
Mof_H 	H 	0.8851	0.1399	0.9402	-0.063
Mof_N 	N 	0.9662	0.3542	0.8712	-0.159
Mof_C 	C 	0.939	0.1518	0.0148	-0.366
Mof_H 	H 	0.9312	0.1099	0.0331	0.145
Mof_Ag	Ag	0.00956	0.56798	0.93377	0.447
Mof_N 	N 	0.8411	0.3608	0.6323	-0.16
Mof_C 	C 	0.9781	0.1931	0.0452	0.339
Mof_Ag	Ag	0.9452	0.48252	0.77003	0.504
Mof_C 	C 	0.9877	0.2565	0.0182	-0.315
Mof_H 	H 	0.0129	0.2862	0.0389	0.093
Mof_N 	N 	0.873	0.3165	0.6676	-0.129
Mof_Ag	Ag	0.96395	0.28734	0.78486	0.447
Mof_N 	N 	0.9051	0.3489	0.7072	-0.128
Mof_C 	C 	0.0138	0.1699	0.1043	-0.776
Mof_H 	H 	0.0384	0.2063	0.118	0.224
Mof_H 	H 	0.9916	0.1593	0.137	0.223
Mof_H 	H 	0.0337	0.1295	0.0947	0.235
Mof_N 	N 	0.897	0.4194	0.6993	-0.162
Mof_C 	C 	0.9706	0.3436	0.9324	0.056
Mof_Ag	Ag	0.58072	0.28974	0.37533	0.446
Mof_C 	C 	0.8339	0.4891	0.6262	0.136
Mof_Ag	Ag	0.76799	0.32634	0.57406	0.484
Mof_C 	C 	0.8102	0.4894	0.5643	-0.23
Mof_H 	H 	0.8101	0.4494	0.5402	0.074
Mof_N 	N 	0.6232	0.3348	0.4576	-0.142
Mof_C 	C 	0.7865	0.5496	0.5385	0.186
Mof_H 	H 	0.7717	0.5505	0.4967	-0.061
Mof_N 	N 	0.6647	0.3042	0.4899	-0.133
Mof_C 	C 	0.7854	0.6093	0.5765	-0.375
Mof_H 	H 	0.7694	0.6495	0.5597	0.129
Mof_N 	N 	0.6829	0.3429	0.5375	-0.154
Mof_C 	C 	0.8078	0.6083	0.6377	0.405
Mof_C 	C 	0.8338	0.5478	0.6614	-0.329
Mof_H 	H 	0.8513	0.5478	0.702	0.115
Mof_C 	C 	0.8077	0.6705	0.6787	-0.882
Mof_H 	H 	0.8251	0.6597	0.7197	0.26
Mof_H 	H 	0.8267	0.7074	0.6606	0.259
Mof_H 	H 	0.7713	0.6846	0.6821	0.257
Mof_C 	C 	0.8578	0.4245	0.6524	0.05
Mof_C 	C 	0.6565	0.4577	0.5797	0.209
Mof_N 	N 	0.7888	0.1947	0.4658	-0.153
Mof_C 	C 	0.6782	0.4455	0.6412	-0.329
Mof_H 	H 	0.6895	0.4014	0.6538	0.114
Mof_N 	N 	0.8092	0.2247	0.5213	-0.116
Mof_N 	N 	0.8529	0.1944	0.542	-0.126
Mof_C 	C 	0.6829	0.5006	0.6842	0.312
Mof_H 	H 	0.6961	0.4928	0.7259	-0.098
Mof_N 	N 	0.8625	0.143	0.5028	-0.113
Mof_C 	C 	0.6684	0.5639	0.6651	-0.518
Mof_H 	H 	0.6738	0.6002	0.6936	0.174
Mof_N 	N 	0.9976	0.1149	0.6651	-0.133
Mof_C 	C 	0.6455	0.578	0.6044	0.535
Mof_N 	N 	0.0192	0.0858	0.7197	-0.167
Mof_C 	C 	0.6398	0.5241	0.5626	-0.455
Mof_H 	H 	0.6244	0.5323	0.5217	0.167
Mof_N 	N 	0.9904	0.1894	0.7387	-0.164
Mof_C 	C 	0.6315	0.6503	0.5853	-1.068
Mof_H 	H 	0.6382	0.6803	0.621	0.315
Mof_H 	H 	0.6531	0.6645	0.5531	0.315
Mof_H 	H 	0.5941	0.6526	0.5695	0.329
Mof_N 	N 	0.9803	0.1765	0.6772	-0.136
Mof_C 	C 	0.6518	0.4003	0.5348	0.02
Mof_N 	N 	0.644	0.1539	0.3735	-0.165
Mof_N 	N 	0.6129	0.1946	0.3334	-0.136
Mof_N 	N 	0.6036	0.0907	0.298	-0.165
Mof_N 	N 	0.5878	0.1561	0.2894	-0.124
Mof_C 	C 	0.828	0.0824	0.4105	0.123
Mof_C 	C 	0.806	0.0939	0.3489	-0.217
Mof_H 	H 	0.7915	0.1369	0.3374	0.084
Mof_C 	C 	0.8056	0.0412	0.3047	0.163
Mof_H 	H 	0.7908	0.0489	0.2635	-0.038
Mof_C 	C 	0.8272	0.977	0.322	-0.335
Mof_H 	H 	0.8269	0.9417	0.2925	0.111
Mof_C 	C 	0.8493	0.9655	0.3836	0.327
Mof_C 	C 	0.8497	0.0182	0.4278	-0.294
Mof_H 	H 	0.8644	0.0104	0.469	0.11
Mof_C 	C 	0.8722	0.8969	0.4054	-0.741
Mof_H 	H 	0.8695	0.8651	0.3707	0.211
Mof_H 	H 	0.9093	0.9025	0.4215	0.198
Mof_H 	H 	0.8523	0.8791	0.438	0.216
Mof_C 	C 	0.8215	0.1458	0.4556	0.063
Mof_C 	C 	0.6677	0.0312	0.3783	0.105
Mof_C 	C 	0.692	0.037	0.4393	-0.192
Mof_H 	H 	0.6866	0.0765	0.4625	0.049
Mof_C 	C 	0.7246	0.9837	0.4664	0.157
Mof_H 	H 	0.7416	0.9879	0.5071	-0.052
Mof_C 	C 	0.7311	0.9244	0.4311	-0.336
Mof_H 	H 	0.753	0.8891	0.4487	0.115
Mof_C 	C 	0.706	0.9164	0.3712	0.357
Mof_C 	C 	0.6753	0.9711	0.345	-0.292
Mof_H 	H 	0.6594	0.9673	0.3039	0.11
Mof_C 	C 	0.7167	0.8535	0.3318	-0.806
Mof_H 	H 	0.6958	0.8568	0.2916	0.241
Mof_H 	H 	0.7543	0.8516	0.326	0.24
Mof_H 	H 	0.7068	0.8124	0.3529	0.237
Mof_C 	C 	0.6381	0.091	0.3498	0.063
Mof_C 	C 	0.06	0.1804	0.8634	-0.333
Mof_H 	H 	0.0646	0.2219	0.8426	0.105
Mof_C 	C 	0.0256	0.0651	0.8629	-0.249
Mof_H 	H 	0.008	0.0282	0.8417	0.076
Mof_C 	C 	0.0434	0.0586	0.9256	0.228
Mof_H 	H 	0.0365	0.0184	0.9473	-0.066
Mof_C 	C 	0.0709	0.1111	0.9555	-0.38
Mof_H 	H 	0.0848	0.105	0.9972	0.143
Mof_C 	C 	0.0795	0.1739	0.9263	0.389
Mof_C 	C 	0.0334	0.1259	0.8307	0.124
Mof_C 	C 	0.1114	0.2322	0.9594	-0.85
Mof_H 	H 	0.1219	0.2194	0.0024	0.253
Mof_H 	H 	0.143	0.241	0.9387	0.248
Mof_H 	H 	0.0896	0.2731	0.9583	0.256
Mof_C 	C 	0.014	0.1346	0.7637	0.04
Mof_Ag	Ag	0.51243	0.20565	0.22265	0.453
Mof_Ag	Ag	0.55995	0.0167	0.23302	0.504
Mof_Ag	Ag	0.52318	0.06358	0.93917	0.752
Mof_N 	N 	0.5021	0.1004	0.0394	-0.151
Mof_N 	N 	0.5059	0.0733	0.1386	-0.118
Mof_N 	N 	0.5173	0.1414	0.1359	-0.161
Mof_C 	C 	0.5285	0.2264	0.0508	0.123
Mof_C 	C 	0.566	0.2662	0.0869	-0.232
Mof_H 	H 	0.5814	0.2498	0.1256	0.076
Mof_C 	C 	0.5807	0.3304	0.0658	0.177
Mof_H 	H 	0.6057	0.3575	0.0899	-0.069
Mof_N 	N 	0.5005	0.3177	0.3284	-0.137
Mof_C 	C 	0.5576	0.3531	0.0085	-0.365
Mof_H 	H 	0.568	0.3959	0.9942	0.135
Mof_N 	N 	0.4884	0.3822	0.3381	-0.12
Mof_C 	C 	0.5191	0.3148	0.9703	0.344
Mof_N 	N 	0.4676	0.4104	0.283	-0.161
Mof_C 	C 	0.5055	0.2483	0.9931	-0.318
Mof_H 	H 	0.4812	0.2201	0.969	0.096
Mof_C 	C 	0.4928	0.3429	0.9095	-0.827
Mof_H 	H 	0.4678	0.3095	0.8903	0.236
Mof_H 	H 	0.4739	0.3847	0.9173	0.25
Mof_H 	H 	0.5198	0.3525	0.8819	0.242
Mof_N 	N 	0.4874	0.3023	0.2671	-0.162
Mof_C 	C 	0.5155	0.1556	0.0745	0.055
Mof_C 	C 	0.4501	0.3687	0.1742	0.164
Mof_C 	C 	0.4649	0.4266	0.1406	-0.31
Mof_H 	H 	0.4877	0.4602	0.1597	0.095
Mof_C 	C 	0.4442	0.4323	0.0769	0.325
Mof_H 	H 	0.4526	0.4715	0.0547	-0.104
Mof_C 	C 	0.414	0.3852	0.0479	-0.495
Mof_H 	H 	0.4024	0.3907	0.0054	0.182
Mof_C 	C 	0.3985	0.3268	0.0791	0.473
Mof_C 	C 	0.4182	0.3184	0.1424	-0.393
Mof_H 	H 	0.4097	0.2785	0.1635	0.126
Mof_C 	C 	0.4692	0.3589	0.2401	0.023
Mof_C 	C 	0.3628	0.2741	0.0443	-0.973
Mof_H 	H 	0.3559	0.2372	0.0724	0.282
Mof_H 	H 	0.3294	0.2953	0.0284	0.288
Mof_H 	H 	0.3803	0.256	0.01	0.289
Mof_N 	N 	0.6142	0.3957	0.4841	-0.135
Mof_N 	N 	0.4972	0.0492	0.0815	-0.132
Mof_Ag	Ag	0.526	0.5868	0.5641	-0.219
Mof_Ag	Ag	0.66	0.1907	0.4813	0.184
Mof_Ag	Ag	0.429	0.5267	0.5592	-0.107
Mof_Ag	Ag	0.3003	0.71057	0.05729	0.332
Mof_C 	C 	0.0392	0.7766	0.5387	0.114
Mof_N 	N 	0.0191	0.9028	0.5351	-0.159
Mof_Ag	Ag	0.09671	0.71633	0.87033	0.485
Mof_N 	N 	0.0176	0.9518	0.5804	-0.121
Mof_C 	C 	0.0787	0.7324	0.5697	-0.218
Mof_H 	H 	0.0972	0.7447	0.6081	0.078
Mof_N 	N 	0.0257	0.9236	0.6363	-0.128
Mof_C 	C 	0.0888	0.6696	0.5408	0.197
Mof_H 	H 	0.1149	0.6399	0.5598	-0.063
Mof_N 	N 	0.0338	0.8542	0.6288	-0.158
Mof_C 	C 	0.061	0.6518	0.4852	-0.367
Mof_H 	H 	0.0688	0.6099	0.4669	0.147
Mof_Ag	Ag	0.99044	0.06798	0.56623	0.446
Mof_N 	N 	0.1589	0.8608	0.8677	-0.16
Mof_C 	C 	0.0219	0.6931	0.4548	0.341
Mof_Ag	Ag	0.0548	0.98252	0.72997	0.503
Mof_C 	C 	0.0123	0.7565	0.4818	-0.317
Mof_H 	H 	0.9871	0.7862	0.4611	0.095
Mof_N 	N 	0.127	0.8165	0.8324	-0.129
Mof_Ag	Ag	0.03605	0.78734	0.71514	0.448
Mof_N 	N 	0.0949	0.8489	0.7928	-0.128
Mof_C 	C 	0.9862	0.6699	0.3957	-0.78
Mof_H 	H 	0.9616	0.7063	0.382	0.226
Mof_H 	H 	0.0084	0.6593	0.363	0.225
Mof_H 	H 	0.9663	0.6295	0.4053	0.236
Mof_N 	N 	0.103	0.9194	0.8007	-0.162
Mof_C 	C 	0.0294	0.8436	0.5676	0.055
Mof_Ag	Ag	0.41928	0.78974	0.12467	0.446
Mof_C 	C 	0.1661	0.9891	0.8738	0.135
Mof_Ag	Ag	0.23201	0.82634	0.92594	0.484
Mof_C 	C 	0.1898	0.9894	0.9357	-0.232
Mof_H 	H 	0.1899	0.9494	0.9598	0.074
Mof_N 	N 	0.3768	0.8348	0.0424	-0.142
Mof_C 	C 	0.2135	0.0496	0.9615	0.188
Mof_H 	H 	0.2283	0.0505	0.0033	-0.061
Mof_N 	N 	0.3353	0.8042	0.0101	-0.133
Mof_C 	C 	0.2146	0.1093	0.9235	-0.375
Mof_H 	H 	0.2306	0.1495	0.9403	0.129
Mof_N 	N 	0.3171	0.8429	0.9625	-0.154
Mof_C 	C 	0.1922	0.1083	0.8623	0.405
Mof_C 	C 	0.1662	0.0478	0.8386	-0.328
Mof_H 	H 	0.1487	0.0478	0.798	0.115
Mof_C 	C 	0.1923	0.1705	0.8213	-0.882
Mof_H 	H 	0.1749	0.1597	0.7803	0.26
Mof_H 	H 	0.1733	0.2074	0.8394	0.259
Mof_H 	H 	0.2287	0.1846	0.8179	0.257
Mof_C 	C 	0.1422	0.9245	0.8476	0.05
Mof_C 	C 	0.3435	0.9577	0.9203	0.21
Mof_N 	N 	0.2112	0.6947	0.0342	-0.153
Mof_C 	C 	0.3218	0.9455	0.8588	-0.332
Mof_H 	H 	0.3105	0.9014	0.8462	0.115
Mof_N 	N 	0.1908	0.7247	0.9787	-0.116
Mof_N 	N 	0.1471	0.6944	0.958	-0.126
Mof_C 	C 	0.3171	0.0006	0.8158	0.316
Mof_H 	H 	0.3039	0.9928	0.7741	-0.1
Mof_N 	N 	0.1375	0.643	0.9972	-0.113
Mof_C 	C 	0.3316	0.0639	0.8349	-0.521
Mof_H 	H 	0.3262	0.1002	0.8064	0.175
Mof_N 	N 	0.0024	0.6149	0.8349	-0.132
Mof_C 	C 	0.3545	0.078	0.8956	0.537
Mof_N 	N 	0.9808	0.5858	0.7803	-0.167
Mof_C 	C 	0.3602	0.0241	0.9374	-0.456
Mof_H 	H 	0.3756	0.0323	0.9783	0.168
Mof_N 	N 	0.0096	0.6894	0.7613	-0.164
Mof_C 	C 	0.3685	0.1503	0.9147	-1.07
Mof_H 	H 	0.3618	0.1803	0.879	0.316
Mof_H 	H 	0.3469	0.1645	0.9469	0.315
Mof_H 	H 	0.4059	0.1526	0.9305	0.329
Mof_N 	N 	0.0197	0.6765	0.8228	-0.136
Mof_C 	C 	0.3482	0.9003	0.9652	0.02
Mof_N 	N 	0.356	0.6539	0.1265	-0.165
Mof_N 	N 	0.3871	0.6946	0.1666	-0.136
Mof_N 	N 	0.3964	0.5907	0.202	-0.165
Mof_N 	N 	0.4122	0.6561	0.2106	-0.124
Mof_C 	C 	0.172	0.5824	0.0895	0.123
Mof_C 	C 	0.194	0.5939	0.1511	-0.217
Mof_H 	H 	0.2085	0.6369	0.1626	0.084
Mof_C 	C 	0.1944	0.5412	0.1953	0.164
Mof_H 	H 	0.2092	0.5489	0.2365	-0.038
Mof_C 	C 	0.1728	0.477	0.178	-0.336
Mof_H 	H 	0.1731	0.4417	0.2075	0.111
Mof_C 	C 	0.1507	0.4655	0.1164	0.325
Mof_C 	C 	0.1503	0.5182	0.0722	-0.292
Mof_H 	H 	0.1356	0.5104	0.031	0.11
Mof_C 	C 	0.1278	0.3969	0.0946	-0.739
Mof_H 	H 	0.1305	0.3651	0.1293	0.21
Mof_H 	H 	0.0907	0.4025	0.0785	0.197
Mof_H 	H 	0.1477	0.3791	0.062	0.215
Mof_C 	C 	0.1785	0.6458	0.0444	0.063
Mof_C 	C 	0.3323	0.5312	0.1217	0.105
Mof_C 	C 	0.308	0.537	0.0607	-0.191
Mof_H 	H 	0.3134	0.5765	0.0375	0.049
Mof_C 	C 	0.2754	0.4837	0.0336	0.155
Mof_H 	H 	0.2584	0.4879	0.9929	-0.051
Mof_C 	C 	0.2689	0.4244	0.0689	-0.335
Mof_H 	H 	0.247	0.3891	0.0513	0.115
Mof_C 	C 	0.294	0.4164	0.1288	0.357
Mof_C 	C 	0.3247	0.4711	0.155	-0.292
Mof_H 	H 	0.3406	0.4673	0.1961	0.11
Mof_C 	C 	0.2833	0.3535	0.1682	-0.806
Mof_H 	H 	0.3042	0.3568	0.2084	0.241
Mof_H 	H 	0.2457	0.3516	0.174	0.241
Mof_H 	H 	0.2932	0.3124	0.1471	0.237
Mof_C 	C 	0.3619	0.591	0.1502	0.063
Mof_C 	C 	0.94	0.6804	0.6366	-0.334
Mof_H 	H 	0.9354	0.7219	0.6574	0.105
Mof_C 	C 	0.9744	0.5651	0.6371	-0.25
Mof_H 	H 	0.992	0.5282	0.6583	0.076
Mof_C 	C 	0.9566	0.5586	0.5744	0.228
Mof_H 	H 	0.9635	0.5184	0.5527	-0.067
Mof_C 	C 	0.9291	0.6111	0.5445	-0.381
Mof_H 	H 	0.9152	0.605	0.5028	0.143
Mof_C 	C 	0.9205	0.6739	0.5737	0.39
Mof_C 	C 	0.9666	0.6259	0.6693	0.124
Mof_C 	C 	0.8886	0.7322	0.5406	-0.852
Mof_H 	H 	0.8781	0.7194	0.4976	0.253
Mof_H 	H 	0.857	0.741	0.5613	0.248
Mof_H 	H 	0.9104	0.7731	0.5417	0.257
Mof_C 	C 	0.986	0.6346	0.7363	0.04
Mof_Ag	Ag	0.48757	0.70565	0.27735	0.453
Mof_Ag	Ag	0.44005	0.5167	0.26698	0.504
Mof_Ag	Ag	0.47682	0.56358	0.56083	0.753
Mof_N 	N 	0.4979	0.6004	0.4606	-0.151
Mof_N 	N 	0.4941	0.5733	0.3614	-0.118
Mof_N 	N 	0.4827	0.6414	0.3641	-0.161
Mof_C 	C 	0.4715	0.7264	0.4492	0.123
Mof_C 	C 	0.434	0.7662	0.4131	-0.232
Mof_H 	H 	0.4186	0.7498	0.3744	0.076
Mof_C 	C 	0.4193	0.8304	0.4342	0.177
Mof_H 	H 	0.3943	0.8575	0.4101	-0.069
Mof_N 	N 	0.4995	0.8177	0.1716	-0.137
Mof_C 	C 	0.4424	0.8531	0.4915	-0.364
Mof_H 	H 	0.432	0.8959	0.5058	0.135
Mof_N 	N 	0.5116	0.8822	0.1619	-0.12
Mof_C 	C 	0.4809	0.8148	0.5297	0.344
Mof_N 	N 	0.5324	0.9104	0.217	-0.16
Mof_C 	C 	0.4945	0.7483	0.5069	-0.318
Mof_H 	H 	0.5188	0.7201	0.531	0.097
Mof_C 	C 	0.5072	0.8429	0.5905	-0.827
Mof_H 	H 	0.5322	0.8095	0.6097	0.236
Mof_H 	H 	0.5261	0.8847	0.5827	0.25
Mof_H 	H 	0.4802	0.8525	0.6181	0.242
Mof_N 	N 	0.5126	0.8023	0.2329	-0.162
Mof_C 	C 	0.4845	0.6556	0.4255	0.055
Mof_C 	C 	0.5499	0.8687	0.3258	0.164
Mof_C 	C 	0.5351	0.9266	0.3594	-0.31
Mof_H 	H 	0.5123	0.9602	0.3403	0.095
Mof_C 	C 	0.5558	0.9323	0.4231	0.325
Mof_H 	H 	0.5474	0.9715	0.4453	-0.104
Mof_C 	C 	0.586	0.8852	0.4521	-0.495
Mof_H 	H 	0.5976	0.8907	0.4946	0.182
Mof_C 	C 	0.6015	0.8268	0.4209	0.473
Mof_C 	C 	0.5818	0.8184	0.3576	-0.393
Mof_H 	H 	0.5903	0.7785	0.3365	0.126
Mof_C 	C 	0.5308	0.8589	0.2599	0.023
Mof_C 	C 	0.6372	0.7741	0.4557	-0.974
Mof_H 	H 	0.6441	0.7372	0.4276	0.282
Mof_H 	H 	0.6706	0.7953	0.4716	0.288
Mof_H 	H 	0.6197	0.756	0.49	0.289
Mof_N 	N 	0.3858	0.8957	0.0159	-0.135
Mof_N 	N 	0.5028	0.5492	0.4185	-0.132
Mof_Ag	Ag	0.474	0.0868	0.9359	-0.218
Mof_Ag	Ag	0.34	0.6907	0.0187	0.184
Mof_Ag	Ag	0.571	0.0267	0.9408	-0.107
Mof_Ag	Ag	0.3003	0.78943	0.55729	0.332
Mof_C 	C 	0.0392	0.7234	0.0387	0.113
Mof_N 	N 	0.0191	0.5972	0.0351	-0.16
Mof_Ag	Ag	0.09671	0.78367	0.37033	0.485
Mof_N 	N 	0.0176	0.5482	0.0804	-0.121
Mof_C 	C 	0.0787	0.7676	0.0697	-0.216
Mof_H 	H 	0.0972	0.7553	0.1081	0.077
Mof_N 	N 	0.0257	0.5764	0.1363	-0.128
Mof_C 	C 	0.0888	0.8304	0.0408	0.195
Mof_H 	H 	0.1149	0.8601	0.0598	-0.062
Mof_N 	N 	0.0338	0.6458	0.1288	-0.158
Mof_C 	C 	0.061	0.8482	0.9852	-0.365
Mof_H 	H 	0.0688	0.8901	0.9669	0.146
Mof_Ag	Ag	0.99044	0.43202	0.06623	0.448
Mof_N 	N 	0.1589	0.6392	0.3677	-0.16
Mof_C 	C 	0.0219	0.8069	0.9548	0.339
Mof_Ag	Ag	0.0548	0.51748	0.22997	0.504
Mof_C 	C 	0.0123	0.7435	0.9818	-0.315
Mof_H 	H 	0.9871	0.7138	0.9611	0.093
Mof_N 	N 	0.127	0.6835	0.3324	-0.129
Mof_Ag	Ag	0.03605	0.71266	0.21514	0.447
Mof_N 	N 	0.0949	0.6511	0.2928	-0.128
Mof_C 	C 	0.9862	0.8301	0.8957	-0.776
Mof_H 	H 	0.9616	0.7937	0.882	0.224
Mof_H 	H 	0.0084	0.8407	0.863	0.223
Mof_H 	H 	0.9663	0.8705	0.9053	0.235
Mof_N 	N 	0.103	0.5806	0.3007	-0.162
Mof_C 	C 	0.0294	0.6564	0.0676	0.056
Mof_Ag	Ag	0.41928	0.71026	0.62467	0.446
Mof_C 	C 	0.1661	0.5109	0.3738	0.136
Mof_Ag	Ag	0.23201	0.67366	0.42594	0.484
Mof_C 	C 	0.1898	0.5106	0.4357	-0.23
Mof_H 	H 	0.1899	0.5506	0.4598	0.074
Mof_N 	N 	0.3768	0.6652	0.5424	-0.142
Mof_C 	C 	0.2135	0.4504	0.4615	0.186
Mof_H 	H 	0.2283	0.4495	0.5033	-0.061
Mof_N 	N 	0.3353	0.6958	0.5101	-0.133
Mof_C 	C 	0.2146	0.3907	0.4235	-0.375
Mof_H 	H 	0.2306	0.3505	0.4403	0.129
Mof_N 	N 	0.3171	0.6571	0.4625	-0.154
Mof_C 	C 	0.1922	0.3917	0.3623	0.405
Mof_C 	C 	0.1662	0.4522	0.3386	-0.329
Mof_H 	H 	0.1487	0.4522	0.298	0.115
Mof_C 	C 	0.1923	0.3295	0.3213	-0.882
Mof_H 	H 	0.1749	0.3403	0.2803	0.26
Mof_H 	H 	0.1733	0.2926	0.3394	0.259
Mof_H 	H 	0.2287	0.3154	0.3179	0.257
Mof_C 	C 	0.1422	0.5755	0.3476	0.05
Mof_C 	C 	0.3435	0.5423	0.4203	0.209
Mof_N 	N 	0.2112	0.8053	0.5342	-0.153
Mof_C 	C 	0.3218	0.5545	0.3588	-0.329
Mof_H 	H 	0.3105	0.5986	0.3462	0.114
Mof_N 	N 	0.1908	0.7753	0.4787	-0.116
Mof_N 	N 	0.1471	0.8056	0.458	-0.126
Mof_C 	C 	0.3171	0.4994	0.3158	0.312
Mof_H 	H 	0.3039	0.5072	0.2741	-0.098
Mof_N 	N 	0.1375	0.857	0.4972	-0.113
Mof_C 	C 	0.3316	0.4361	0.3349	-0.518
Mof_H 	H 	0.3262	0.3998	0.3064	0.174
Mof_N 	N 	0.0024	0.8851	0.3349	-0.133
Mof_C 	C 	0.3545	0.422	0.3956	0.535
Mof_N 	N 	0.9808	0.9142	0.2803	-0.167
Mof_C 	C 	0.3602	0.4759	0.4374	-0.455
Mof_H 	H 	0.3756	0.4677	0.4783	0.167
Mof_N 	N 	0.0096	0.8106	0.2613	-0.164
Mof_C 	C 	0.3685	0.3497	0.4147	-1.068
Mof_H 	H 	0.3618	0.3197	0.379	0.315
Mof_H 	H 	0.3469	0.3355	0.4469	0.315
Mof_H 	H 	0.4059	0.3474	0.4305	0.329
Mof_N 	N 	0.0197	0.8235	0.3228	-0.136
Mof_C 	C 	0.3482	0.5997	0.4652	0.02
Mof_N 	N 	0.356	0.8461	0.6265	-0.165
Mof_N 	N 	0.3871	0.8054	0.6666	-0.136
Mof_N 	N 	0.3964	0.9093	0.702	-0.165
Mof_N 	N 	0.4122	0.8439	0.7106	-0.124
Mof_C 	C 	0.172	0.9176	0.5895	0.123
Mof_C 	C 	0.194	0.9061	0.6511	-0.217
Mof_H 	H 	0.2085	0.8631	0.6626	0.084
Mof_C 	C 	0.1944	0.9588	0.6953	0.163
Mof_H 	H 	0.2092	0.9511	0.7365	-0.038
Mof_C 	C 	0.1728	0.023	0.678	-0.335
Mof_H 	H 	0.1731	0.0583	0.7075	0.111
Mof_C 	C 	0.1507	0.0345	0.6164	0.327
Mof_C 	C 	0.1503	0.9818	0.5722	-0.294
Mof_H 	H 	0.1356	0.9896	0.531	0.11
Mof_C 	C 	0.1278	0.1031	0.5946	-0.741
Mof_H 	H 	0.1305	0.1349	0.6293	0.211
Mof_H 	H 	0.0907	0.0975	0.5785	0.198
Mof_H 	H 	0.1477	0.1209	0.562	0.216
Mof_C 	C 	0.1785	0.8542	0.5444	0.063
Mof_C 	C 	0.3323	0.9688	0.6217	0.105
Mof_C 	C 	0.308	0.963	0.5607	-0.192
Mof_H 	H 	0.3134	0.9235	0.5375	0.049
Mof_C 	C 	0.2754	0.0163	0.5336	0.157
Mof_H 	H 	0.2584	0.0121	0.4929	-0.052
Mof_C 	C 	0.2689	0.0756	0.5689	-0.336
Mof_H 	H 	0.247	0.1109	0.5513	0.115
Mof_C 	C 	0.294	0.0836	0.6288	0.357
Mof_C 	C 	0.3247	0.0289	0.655	-0.292
Mof_H 	H 	0.3406	0.0327	0.6961	0.11
Mof_C 	C 	0.2833	0.1465	0.6682	-0.806
Mof_H 	H 	0.3042	0.1432	0.7084	0.241
Mof_H 	H 	0.2457	0.1484	0.674	0.24
Mof_H 	H 	0.2932	0.1876	0.6471	0.237
Mof_C 	C 	0.3619	0.909	0.6502	0.063
Mof_C 	C 	0.94	0.8196	0.1366	-0.333
Mof_H 	H 	0.9354	0.7781	0.1574	0.105
Mof_C 	C 	0.9744	0.9349	0.1371	-0.249
Mof_H 	H 	0.992	0.9718	0.1583	0.076
Mof_C 	C 	0.9566	0.9414	0.0744	0.228
Mof_H 	H 	0.9635	0.9816	0.0527	-0.066
Mof_C 	C 	0.9291	0.8889	0.0445	-0.38
Mof_H 	H 	0.9152	0.895	0.0028	0.143
Mof_C 	C 	0.9205	0.8261	0.0737	0.389
Mof_C 	C 	0.9666	0.8741	0.1693	0.124
Mof_C 	C 	0.8886	0.7678	0.0406	-0.85
Mof_H 	H 	0.8781	0.7806	0.9976	0.253
Mof_H 	H 	0.857	0.759	0.0613	0.248
Mof_H 	H 	0.9104	0.7269	0.0417	0.256
Mof_C 	C 	0.986	0.8654	0.2363	0.04
Mof_Ag	Ag	0.48757	0.79435	0.77735	0.453
Mof_Ag	Ag	0.44005	0.9833	0.76698	0.504
Mof_Ag	Ag	0.47682	0.93642	0.06083	0.752
Mof_N 	N 	0.4979	0.8996	0.9606	-0.151
Mof_N 	N 	0.4941	0.9267	0.8614	-0.118
Mof_N 	N 	0.4827	0.8586	0.8641	-0.161
Mof_C 	C 	0.4715	0.7736	0.9492	0.123
Mof_C 	C 	0.434	0.7338	0.9131	-0.232
Mof_H 	H 	0.4186	0.7502	0.8744	0.076
Mof_C 	C 	0.4193	0.6696	0.9342	0.177
Mof_H 	H 	0.3943	0.6425	0.9101	-0.069
Mof_N 	N 	0.4995	0.6823	0.6716	-0.137
Mof_C 	C 	0.4424	0.6469	0.9915	-0.365
Mof_H 	H 	0.432	0.6041	0.0058	0.135
Mof_N 	N 	0.5116	0.6178	0.6619	-0.12
Mof_C 	C 	0.4809	0.6852	0.0297	0.344
Mof_N 	N 	0.5324	0.5896	0.717	-0.161
Mof_C 	C 	0.4945	0.7517	0.0069	-0.318
Mof_H 	H 	0.5188	0.7799	0.031	0.096
Mof_C 	C 	0.5072	0.6571	0.0905	-0.827
Mof_H 	H 	0.5322	0.6905	0.1097	0.236
Mof_H 	H 	0.5261	0.6153	0.0827	0.25
Mof_H 	H 	0.4802	0.6475	0.1181	0.242
Mof_N 	N 	0.5126	0.6977	0.7329	-0.162
Mof_C 	C 	0.4845	0.8444	0.9255	0.055
Mof_C 	C 	0.5499	0.6313	0.8258	0.164
Mof_C 	C 	0.5351	0.5734	0.8594	-0.31
Mof_H 	H 	0.5123	0.5398	0.8403	0.095
Mof_C 	C 	0.5558	0.5677	0.9231	0.325
Mof_H 	H 	0.5474	0.5285	0.9453	-0.104
Mof_C 	C 	0.586	0.6148	0.9521	-0.495
Mof_H 	H 	0.5976	0.6093	0.9946	0.182
Mof_C 	C 	0.6015	0.6732	0.9209	0.473
Mof_C 	C 	0.5818	0.6816	0.8576	-0.393
Mof_H 	H 	0.5903	0.7215	0.8365	0.126
Mof_C 	C 	0.5308	0.6411	0.7599	0.023
Mof_C 	C 	0.6372	0.7259	0.9557	-0.973
Mof_H 	H 	0.6441	0.7628	0.9276	0.282
Mof_H 	H 	0.6706	0.7047	0.9716	0.288
Mof_H 	H 	0.6197	0.744	0.99	0.289
Mof_N 	N 	0.3858	0.6043	0.5159	-0.135
Mof_N 	N 	0.5028	0.9508	0.9185	-0.132
Mof_Ag	Ag	0.474	0.4132	0.4359	-0.219
Mof_Ag	Ag	0.34	0.8093	0.5187	0.184
Mof_Ag	Ag	0.571	0.4733	0.4408	-0.107
Mof_Ag	Ag	0.6997	0.28943	0.94271	0.332
Mof_C 	C 	0.9608	0.2234	0.4613	0.114
Mof_N 	N 	0.9809	0.0972	0.4649	-0.159
Mof_Ag	Ag	0.90329	0.28367	0.12967	0.485
Mof_N 	N 	0.9824	0.0482	0.4196	-0.121
Mof_C 	C 	0.9213	0.2676	0.4303	-0.218
Mof_H 	H 	0.9028	0.2553	0.3919	0.078
Mof_N 	N 	0.9743	0.0764	0.3637	-0.128
Mof_C 	C 	0.9112	0.3304	0.4592	0.197
Mof_H 	H 	0.8851	0.3601	0.4402	-0.063
Mof_N 	N 	0.9662	0.1458	0.3712	-0.158
Mof_C 	C 	0.939	0.3482	0.5148	-0.367
Mof_H 	H 	0.9312	0.3901	0.5331	0.147
Mof_Ag	Ag	0.00956	0.93202	0.43377	0.446
Mof_N 	N 	0.8411	0.1392	0.1323	-0.16
Mof_C 	C 	0.9781	0.3069	0.5452	0.341
Mof_Ag	Ag	0.9452	0.01748	0.27003	0.503
Mof_C 	C 	0.9877	0.2435	0.5182	-0.317
Mof_H 	H 	0.0129	0.2138	0.5389	0.095
Mof_N 	N 	0.873	0.1835	0.1676	-0.129
Mof_Ag	Ag	0.96395	0.21266	0.28486	0.448
Mof_N 	N 	0.9051	0.1511	0.2072	-0.128
Mof_C 	C 	0.0138	0.3301	0.6043	-0.78
Mof_H 	H 	0.0384	0.2937	0.618	0.226
Mof_H 	H 	0.9916	0.3407	0.637	0.225
Mof_H 	H 	0.0337	0.3705	0.5947	0.236
Mof_N 	N 	0.897	0.0806	0.1993	-0.162
Mof_C 	C 	0.9706	0.1564	0.4324	0.055
Mof_Ag	Ag	0.58072	0.21026	0.87533	0.446
Mof_C 	C 	0.8339	0.0109	0.1262	0.135
Mof_Ag	Ag	0.76799	0.17366	0.07406	0.484
Mof_C 	C 	0.8102	0.0106	0.0643	-0.232
Mof_H 	H 	0.8101	0.0506	0.0402	0.074
Mof_N 	N 	0.6232	0.1652	0.9576	-0.142
Mof_C 	C 	0.7865	0.9504	0.0385	0.188
Mof_H 	H 	0.7717	0.9495	0.9967	-0.061
Mof_N 	N 	0.6647	0.1958	0.9899	-0.133
Mof_C 	C 	0.7854	0.8907	0.0765	-0.375
Mof_H 	H 	0.7694	0.8505	0.0597	0.129
Mof_N 	N 	0.6829	0.1571	0.0375	-0.154
Mof_C 	C 	0.8078	0.8917	0.1377	0.405
Mof_C 	C 	0.8338	0.9522	0.1614	-0.328
Mof_H 	H 	0.8513	0.9522	0.202	0.115
Mof_C 	C 	0.8077	0.8295	0.1787	-0.882
Mof_H 	H 	0.8251	0.8403	0.2197	0.26
Mof_H 	H 	0.8267	0.7926	0.1606	0.259
Mof_H 	H 	0.7713	0.8154	0.1821	0.257
Mof_C 	C 	0.8578	0.0755	0.1524	0.05
Mof_C 	C 	0.6565	0.0423	0.0797	0.21
Mof_N 	N 	0.7888	0.3053	0.9658	-0.153
Mof_C 	C 	0.6782	0.0545	0.1412	-0.332
Mof_H 	H 	0.6895	0.0986	0.1538	0.115
Mof_N 	N 	0.8092	0.2753	0.0213	-0.116
Mof_N 	N 	0.8529	0.3056	0.042	-0.126
Mof_C 	C 	0.6829	0.9994	0.1842	0.316
Mof_H 	H 	0.6961	0.0072	0.2259	-0.1
Mof_N 	N 	0.8625	0.357	0.0028	-0.113
Mof_C 	C 	0.6684	0.9361	0.1651	-0.521
Mof_H 	H 	0.6738	0.8998	0.1936	0.175
Mof_N 	N 	0.9976	0.3851	0.1651	-0.132
Mof_C 	C 	0.6455	0.922	0.1044	0.537
Mof_N 	N 	0.0192	0.4142	0.2197	-0.167
Mof_C 	C 	0.6398	0.9759	0.0626	-0.456
Mof_H 	H 	0.6244	0.9677	0.0217	0.168
Mof_N 	N 	0.9904	0.3106	0.2387	-0.164
Mof_C 	C 	0.6315	0.8497	0.0853	-1.07
Mof_H 	H 	0.6382	0.8197	0.121	0.316
Mof_H 	H 	0.6531	0.8355	0.0531	0.315
Mof_H 	H 	0.5941	0.8474	0.0695	0.329
Mof_N 	N 	0.9803	0.3235	0.1772	-0.136
Mof_C 	C 	0.6518	0.0997	0.0348	0.02
Mof_N 	N 	0.644	0.3461	0.8735	-0.165
Mof_N 	N 	0.6129	0.3054	0.8334	-0.136
Mof_N 	N 	0.6036	0.4093	0.798	-0.165
Mof_N 	N 	0.5878	0.3439	0.7894	-0.124
Mof_C 	C 	0.828	0.4176	0.9105	0.123
Mof_C 	C 	0.806	0.4061	0.8489	-0.217
Mof_H 	H 	0.7915	0.3631	0.8374	0.084
Mof_C 	C 	0.8056	0.4588	0.8047	0.164
Mof_H 	H 	0.7908	0.4511	0.7635	-0.038
Mof_C 	C 	0.8272	0.523	0.822	-0.336
Mof_H 	H 	0.8269	0.5583	0.7925	0.111
Mof_C 	C 	0.8493	0.5345	0.8836	0.325
Mof_C 	C 	0.8497	0.4818	0.9278	-0.292
Mof_H 	H 	0.8644	0.4896	0.969	0.11
Mof_C 	C 	0.8722	0.6031	0.9054	-0.739
Mof_H 	H 	0.8695	0.6349	0.8707	0.21
Mof_H 	H 	0.9093	0.5975	0.9215	0.197
Mof_H 	H 	0.8523	0.6209	0.938	0.215
Mof_C 	C 	0.8215	0.3542	0.9556	0.063
Mof_C 	C 	0.6677	0.4688	0.8783	0.105
Mof_C 	C 	0.692	0.463	0.9393	-0.191
Mof_H 	H 	0.6866	0.4235	0.9625	0.049
Mof_C 	C 	0.7246	0.5163	0.9664	0.155
Mof_H 	H 	0.7416	0.5121	0.0071	-0.051
Mof_C 	C 	0.7311	0.5756	0.9311	-0.335
Mof_H 	H 	0.753	0.6109	0.9487	0.115
Mof_C 	C 	0.706	0.5836	0.8712	0.357
Mof_C 	C 	0.6753	0.5289	0.845	-0.292
Mof_H 	H 	0.6594	0.5327	0.8039	0.11
Mof_C 	C 	0.7167	0.6465	0.8318	-0.806
Mof_H 	H 	0.6958	0.6432	0.7916	0.241
Mof_H 	H 	0.7543	0.6484	0.826	0.241
Mof_H 	H 	0.7068	0.6876	0.8529	0.237
Mof_C 	C 	0.6381	0.409	0.8498	0.063
Mof_C 	C 	0.06	0.3196	0.3634	-0.334
Mof_H 	H 	0.0646	0.2781	0.3426	0.105
Mof_C 	C 	0.0256	0.4349	0.3629	-0.25
Mof_H 	H 	0.008	0.4718	0.3417	0.076
Mof_C 	C 	0.0434	0.4414	0.4256	0.228
Mof_H 	H 	0.0365	0.4816	0.4473	-0.067
Mof_C 	C 	0.0709	0.3889	0.4555	-0.381
Mof_H 	H 	0.0848	0.395	0.4972	0.143
Mof_C 	C 	0.0795	0.3261	0.4263	0.39
Mof_C 	C 	0.0334	0.3741	0.3307	0.124
Mof_C 	C 	0.1114	0.2678	0.4594	-0.852
Mof_H 	H 	0.1219	0.2806	0.5024	0.253
Mof_H 	H 	0.143	0.259	0.4387	0.248
Mof_H 	H 	0.0896	0.2269	0.4583	0.257
Mof_C 	C 	0.014	0.3654	0.2637	0.04
Mof_Ag	Ag	0.51243	0.29435	0.72265	0.453
Mof_Ag	Ag	0.55995	0.4833	0.73302	0.504
Mof_Ag	Ag	0.52318	0.43642	0.43917	0.753
Mof_N 	N 	0.5021	0.3996	0.5394	-0.151
Mof_N 	N 	0.5059	0.4267	0.6386	-0.118
Mof_N 	N 	0.5173	0.3586	0.6359	-0.161
Mof_C 	C 	0.5285	0.2736	0.5508	0.123
Mof_C 	C 	0.566	0.2338	0.5869	-0.232
Mof_H 	H 	0.5814	0.2502	0.6256	0.076
Mof_C 	C 	0.5807	0.1696	0.5658	0.177
Mof_H 	H 	0.6057	0.1425	0.5899	-0.069
Mof_N 	N 	0.5005	0.1823	0.8284	-0.137
Mof_C 	C 	0.5576	0.1469	0.5085	-0.364
Mof_H 	H 	0.568	0.1041	0.4942	0.135
Mof_N 	N 	0.4884	0.1178	0.8381	-0.12
Mof_C 	C 	0.5191	0.1852	0.4703	0.344
Mof_N 	N 	0.4676	0.0896	0.783	-0.16
Mof_C 	C 	0.5055	0.2517	0.4931	-0.318
Mof_H 	H 	0.4812	0.2799	0.469	0.097
Mof_C 	C 	0.4928	0.1571	0.4095	-0.827
Mof_H 	H 	0.4678	0.1905	0.3903	0.236
Mof_H 	H 	0.4739	0.1153	0.4173	0.25
Mof_H 	H 	0.5198	0.1475	0.3819	0.242
Mof_N 	N 	0.4874	0.1977	0.7671	-0.162
Mof_C 	C 	0.5155	0.3444	0.5745	0.055
Mof_C 	C 	0.4501	0.1313	0.6742	0.164
Mof_C 	C 	0.4649	0.0734	0.6406	-0.31
Mof_H 	H 	0.4877	0.0398	0.6597	0.095
Mof_C 	C 	0.4442	0.0677	0.5769	0.325
Mof_H 	H 	0.4526	0.0285	0.5547	-0.104
Mof_C 	C 	0.414	0.1148	0.5479	-0.495
Mof_H 	H 	0.4024	0.1093	0.5054	0.182
Mof_C 	C 	0.3985	0.1732	0.5791	0.473
Mof_C 	C 	0.4182	0.1816	0.6424	-0.393
Mof_H 	H 	0.4097	0.2215	0.6635	0.126
Mof_C 	C 	0.4692	0.1411	0.7401	0.023
Mof_C 	C 	0.3628	0.2259	0.5443	-0.974
Mof_H 	H 	0.3559	0.2628	0.5724	0.282
Mof_H 	H 	0.3294	0.2047	0.5284	0.288
Mof_H 	H 	0.3803	0.244	0.51	0.289
Mof_N 	N 	0.6142	0.1043	0.9841	-0.135
Mof_N 	N 	0.4972	0.4508	0.5815	-0.132
Mof_Ag	Ag	0.526	0.9132	0.0641	-0.218
Mof_Ag	Ag	0.66	0.3093	0.9813	0.184
Mof_Ag	Ag	0.429	0.9733	0.0592	-0.107
_end
