data_functionalizedCrystal
_audit_creation_method	'EQeq! by Chris Wilmer'
_symmetry_space_group_name_H-M	'P1'
_symmetry_Int_Tables_number	1
_symmetry_cell_setting	triclinic
loop_
_symmetry_equiv_pos_as_xyz
  x,y,z
_cell_length_a	13.056
_cell_length_b	22.964
_cell_length_c	11.808
_cell_angle_alpha	90
_cell_angle_beta	91.941
_cell_angle_gamma	90
loop_
_atom_site_label
_atom_site_type_symbol
_atom_site_fract_x
_atom_site_fract_y
_atom_site_fract_z
_atom_site_charge
Mof_Ag	Ag	0.88322	0.29892	0.60987	0.519
Mof_Ag	Ag	0.24034	0.2886	0.27307	0.49
Mof_N 	N 	0.4787	0.471	0.8308	-0.226
Mof_N 	N 	0.4163	0.4571	0.6662	-0.112
Mof_N 	N 	0.5129	0.4428	0.655	-0.111
Mof_N 	N 	0.1418	0.3755	0.4478	-0.108
Mof_N 	N 	0.0073	0.3288	0.5063	-0.214
Mof_N 	N 	0.1498	0.3208	0.4052	-0.182
Mof_C 	C 	0.2223	0.4203	0.4367	-0.02
Mof_H 	H 	0.1918	0.4588	0.4371	0.022
Mof_H 	H 	0.2565	0.4152	0.3658	0.009
Mof_C 	C 	0.2997	0.414	0.5366	-0.155
Mof_H 	H 	0.2637	0.4026	0.6036	0.072
Mof_H 	H 	0.3481	0.3834	0.5198	0.075
Mof_C 	C 	0.5457	0.4496	0.756	0.102
Mof_H 	H 	0.3872	0.5597	0.2214	-0.03
Mof_C 	C 	0.3548	0.467	0.5599	-0.011
Mof_H 	H 	0.6924	0.5009	0.4308	0.025
Mof_H 	H 	0.6007	0.5238	0.5019	0.039
Mof_C 	C 	0.0576	0.3801	0.5074	0.073
Mof_H 	H 	0.0365	0.4137	0.5442	-0.02
Mof_C 	C 	0.6008	0.5263	0.2324	0.114
Mof_H 	H 	0.6643	0.5139	0.2085	-0.039
Mof_C 	C 	0.0691	0.2956	0.4428	0.097
Mof_H 	H 	0.0543	0.2567	0.427	-0.052
Mof_C 	C 	0.8276	0.2681	0.8624	0.105
Mof_H 	H 	0.8684	0.299	0.888	-0.043
Mof_C 	C 	0.7468	0.2128	0.7549	0.098
Mof_H 	H 	0.7168	0.195	0.6912	-0.023
Mof_H 	H 	0.6712	0.116	0.8402	0.02
Mof_H 	H 	0.7144	0.1281	0.9635	0.019
Mof_H 	H 	0.5332	0.1291	0.9581	0.069
Mof_H 	H 	0.5334	0.1804	0.8704	0.067
Mof_N 	N 	0.8053	0.2595	0.752	-0.219
Mof_H 	H 	0.6055	0.1869	0.0946	0.029
Mof_H 	H 	0.6188	0.2376	0.0077	0.04
Mof_H 	H 	0.2805	0.2998	0.004	-0.041
Mof_C 	C 	0.4301	0.2321	0.1581	0.083
Mof_H 	H 	0.4554	0.2158	0.2255	-0.01
Mof_N 	N 	0.2108	0.7687	0.0695	-0.155
Mof_N 	N 	0.2637	0.8053	0.1426	-0.115
Mof_C 	C 	0.3224	0.8547	0.1008	-0.001
Mof_C 	C 	0.4295	0.8366	0.0651	-0.179
Mof_C 	C 	0.4255	0.7944	0.9718	0.013
Mof_N 	N 	0.5258	0.7705	0.9417	-0.101
Mof_N 	N 	0.5851	0.742	0.0168	-0.128
Mof_C 	C 	0.6659	0.7218	0.9634	0.094
Mof_N 	N 	0.6565	0.7378	0.8553	-0.214
Mof_Ag	Ag	0.11678	0.70108	0.39013	0.52
Mof_Ag	Ag	0.75966	0.7114	0.72693	0.498
Mof_N 	N 	0.5213	0.529	0.1692	-0.229
Mof_N 	N 	0.5837	0.5429	0.3338	-0.112
Mof_N 	N 	0.4871	0.5572	0.345	-0.111
Mof_N 	N 	0.8582	0.6245	0.5522	-0.108
Mof_N 	N 	0.9927	0.6712	0.4937	-0.214
Mof_N 	N 	0.8502	0.6792	0.5948	-0.182
Mof_C 	C 	0.7777	0.5797	0.5633	-0.022
Mof_H 	H 	0.8082	0.5412	0.5629	0.023
Mof_H 	H 	0.7435	0.5848	0.6342	0.01
Mof_C 	C 	0.7003	0.586	0.4634	-0.153
Mof_H 	H 	0.7363	0.5974	0.3964	0.071
Mof_H 	H 	0.6519	0.6166	0.4802	0.075
Mof_C 	C 	0.4543	0.5504	0.244	0.101
Mof_H 	H 	0.6128	0.4403	0.7786	-0.027
Mof_C 	C 	0.6452	0.533	0.4401	-0.013
Mof_H 	H 	0.3076	0.4991	0.5692	0.025
Mof_H 	H 	0.3993	0.4762	0.4981	0.038
Mof_C 	C 	0.9424	0.6199	0.4926	0.073
Mof_H 	H 	0.9635	0.5863	0.4558	-0.02
Mof_C 	C 	0.3992	0.4737	0.7676	0.115
Mof_H 	H 	0.3357	0.4861	0.7915	-0.035
Mof_C 	C 	0.9309	0.7044	0.5572	0.098
Mof_H 	H 	0.9457	0.7433	0.573	-0.051
Mof_C 	C 	0.1724	0.7319	0.1376	0.105
Mof_H 	H 	0.1316	0.701	0.112	-0.049
Mof_C 	C 	0.2532	0.7872	0.2451	0.099
Mof_H 	H 	0.2832	0.805	0.3088	-0.022
Mof_H 	H 	0.3288	0.884	0.1598	0.02
Mof_H 	H 	0.2856	0.8719	0.0365	0.011
Mof_H 	H 	0.4668	0.8709	0.0419	0.078
Mof_H 	H 	0.4666	0.8196	0.1296	0.079
Mof_N 	N 	0.1947	0.7405	0.248	-0.22
Mof_H 	H 	0.3945	0.8131	0.9054	0.021
Mof_H 	H 	0.3812	0.7624	0.9923	0.036
Mof_H 	H 	0.7195	0.7002	0.996	-0.042
Mof_C 	C 	0.5699	0.7679	0.8419	0.087
Mof_H 	H 	0.5446	0.7842	0.7745	-0.011
Mof_N 	N 	0.7892	0.2313	0.9305	-0.148
Mof_N 	N 	0.7363	0.1947	0.8574	-0.111
Mof_C 	C 	0.6776	0.1453	0.8992	-0.017
Mof_C 	C 	0.5705	0.1634	0.9349	-0.134
Mof_C 	C 	0.5745	0.2056	0.0282	-0.028
Mof_N 	N 	0.4742	0.2295	0.0583	-0.105
Mof_N 	N 	0.4149	0.258	0.9832	-0.107
Mof_C 	C 	0.3341	0.2782	0.0366	0.069
Mof_N 	N 	0.3435	0.2622	0.1447	-0.211
Mof_Ag	Ag	0.5	0.5	-0	0.469
Mof_N 	N 	0.7892	0.2687	0.4305	-0.152
Mof_N 	N 	0.7363	0.3053	0.3574	-0.113
Mof_C 	C 	0.6776	0.3547	0.3992	-0.008
Mof_C 	C 	0.5705	0.3366	0.4349	-0.157
Mof_C 	C 	0.5745	0.2944	0.5282	-0.007
Mof_N 	N 	0.4742	0.2705	0.5583	-0.103
Mof_N 	N 	0.4149	0.242	0.4832	-0.118
Mof_C 	C 	0.3341	0.2218	0.5366	0.082
Mof_N 	N 	0.3435	0.2378	0.6447	-0.213
Mof_Ag	Ag	0.11678	0.79892	0.89013	0.531
Mof_Ag	Ag	0.75966	0.7886	0.22693	0.491
Mof_N 	N 	0.5213	0.971	0.6692	-0.223
Mof_N 	N 	0.5837	0.9571	0.8338	-0.112
Mof_N 	N 	0.4871	0.9428	0.845	-0.107
Mof_N 	N 	0.8582	0.8755	0.0522	-0.113
Mof_N 	N 	0.9927	0.8288	0.9937	-0.208
Mof_N 	N 	0.8502	0.8208	0.0948	-0.181
Mof_C 	C 	0.7777	0.9203	0.0633	-0.035
Mof_H 	H 	0.8082	0.9588	0.0629	0.026
Mof_H 	H 	0.7435	0.9152	0.1342	0.014
Mof_C 	C 	0.7003	0.914	0.9634	-0.145
Mof_H 	H 	0.7363	0.9026	0.8964	0.071
Mof_H 	H 	0.6519	0.8834	0.9802	0.077
Mof_C 	C 	0.4543	0.9496	0.744	0.103
Mof_H 	H 	0.6128	0.0597	0.2786	-0.031
Mof_C 	C 	0.6452	0.967	0.9401	0.002
Mof_H 	H 	0.3076	0.0009	0.0692	0.022
Mof_H 	H 	0.3993	0.0238	0.9981	0.046
Mof_C 	C 	0.9424	0.8801	0.9926	0.087
Mof_H 	H 	0.9635	0.9137	0.9558	-0.019
Mof_C 	C 	0.3992	0.0263	0.2676	0.112
Mof_H 	H 	0.3357	0.0139	0.2915	-0.039
Mof_C 	C 	0.9309	0.7956	0.0572	0.084
Mof_H 	H 	0.9457	0.7567	0.073	-0.05
Mof_C 	C 	0.1724	0.7681	0.6376	0.105
Mof_H 	H 	0.1316	0.799	0.612	-0.045
Mof_C 	C 	0.2532	0.7128	0.7451	0.099
Mof_H 	H 	0.2832	0.695	0.8088	-0.021
Mof_H 	H 	0.3288	0.616	0.6598	0.02
Mof_H 	H 	0.2856	0.6281	0.5365	0.014
Mof_H 	H 	0.4668	0.6291	0.5419	0.074
Mof_H 	H 	0.4666	0.6804	0.6296	0.074
Mof_N 	N 	0.1947	0.7595	0.748	-0.22
Mof_H 	H 	0.3945	0.6869	0.4054	0.024
Mof_H 	H 	0.3812	0.7376	0.4923	0.038
Mof_H 	H 	0.7195	0.7998	0.496	-0.041
Mof_C 	C 	0.5699	0.7321	0.3419	0.085
Mof_H 	H 	0.5446	0.7158	0.2745	-0.011
Mof_N 	N 	0.2108	0.7313	0.5695	-0.152
Mof_N 	N 	0.2637	0.6947	0.6426	-0.113
Mof_C 	C 	0.3224	0.6453	0.6008	-0.008
Mof_C 	C 	0.4295	0.6634	0.5651	-0.157
Mof_C 	C 	0.4255	0.7056	0.4718	-0.006
Mof_N 	N 	0.5258	0.7295	0.4417	-0.103
Mof_N 	N 	0.5851	0.758	0.5168	-0.117
Mof_C 	C 	0.6659	0.7782	0.4634	0.082
Mof_N 	N 	0.6565	0.7622	0.3553	-0.213
Mof_Ag	Ag	0.88322	0.20108	0.10987	0.502
Mof_Ag	Ag	0.24034	0.2114	0.77307	0.497
Mof_N 	N 	0.4787	0.029	0.3308	-0.229
Mof_N 	N 	0.4163	0.0429	0.1662	-0.111
Mof_N 	N 	0.5129	0.0572	0.155	-0.115
Mof_N 	N 	0.1418	0.1245	0.9478	-0.104
Mof_N 	N 	0.0073	0.1712	0.0063	-0.217
Mof_N 	N 	0.1498	0.1792	0.9052	-0.183
Mof_C 	C 	0.2223	0.0797	0.9367	-0.009
Mof_H 	H 	0.1918	0.0412	0.9371	0.019
Mof_H 	H 	0.2565	0.0848	0.8658	0.005
Mof_C 	C 	0.2997	0.086	0.0366	-0.161
Mof_H 	H 	0.2637	0.0974	0.1036	0.072
Mof_H 	H 	0.3481	0.1166	0.0198	0.073
Mof_C 	C 	0.5457	0.0504	0.256	0.099
Mof_H 	H 	0.3872	0.9403	0.7214	-0.025
Mof_C 	C 	0.3548	0.033	0.0599	-0.027
Mof_H 	H 	0.6924	0.9991	0.9308	0.028
Mof_H 	H 	0.6007	0.9762	0.0019	0.03
Mof_C 	C 	0.0576	0.1199	0.0074	0.061
Mof_H 	H 	0.0365	0.0863	0.0442	-0.021
Mof_C 	C 	0.6008	0.9737	0.7324	0.117
Mof_H 	H 	0.6643	0.9861	0.7085	-0.033
Mof_C 	C 	0.0691	0.2044	0.9428	0.108
Mof_H 	H 	0.0543	0.2433	0.927	-0.053
Mof_C 	C 	0.8276	0.2319	0.3624	0.104
Mof_H 	H 	0.8684	0.201	0.388	-0.047
Mof_C 	C 	0.7468	0.2872	0.2549	0.098
Mof_H 	H 	0.7168	0.305	0.1912	-0.024
Mof_H 	H 	0.6712	0.384	0.3402	0.019
Mof_H 	H 	0.7144	0.3719	0.4635	0.014
Mof_H 	H 	0.5332	0.3709	0.4581	0.074
Mof_H 	H 	0.5334	0.3196	0.3704	0.073
Mof_N 	N 	0.8053	0.2405	0.252	-0.219
Mof_H 	H 	0.6055	0.3131	0.5946	0.025
Mof_H 	H 	0.6188	0.2624	0.5077	0.038
Mof_H 	H 	0.2805	0.2002	0.504	-0.042
Mof_C 	C 	0.4301	0.2679	0.6581	0.085
Mof_H 	H 	0.4554	0.2842	0.7255	-0.009
Mof_Ag	Ag	0.5	-3.56727e-33	0.5	0.462
_end
