data_functionalizedCrystal
_audit_creation_method	'EQeq! by Chris Wilmer'
_symmetry_space_group_name_H-M	'P1'
_symmetry_Int_Tables_number	1
_symmetry_cell_setting	triclinic
loop_
_symmetry_equiv_pos_as_xyz
  x,y,z
_cell_length_a	18.3154
_cell_length_b	11.3943
_cell_length_c	18.8609
_cell_angle_alpha	90
_cell_angle_beta	108.576
_cell_angle_gamma	90
loop_
_atom_site_label
_atom_site_type_symbol
_atom_site_fract_x
_atom_site_fract_y
_atom_site_fract_z
_atom_site_charge
Mof_C 	C 	0.8971	0.8359	0.9286	0.493
Mof_C 	C 	0.8304	0.7585	0.8905	-0.213
Mof_C 	C 	0.7936	0.7014	0.9344	0.038
Mof_H 	H 	0.815	0.7047	0.9862	0.012
Mof_C 	C 	0.7263	0.6399	0.9035	-0.083
Mof_H 	H 	0.7022	0.6036	0.9341	0.043
Mof_C 	C 	0.6945	0.6324	0.8261	-0.125
Mof_C 	C 	0.7326	0.683	0.7813	-0.112
Mof_H 	H 	0.713	0.6741	0.7296	0.015
Mof_C 	C 	0.8003	0.7476	0.8127	0.133
Mof_C 	C 	0.6181	0.5734	0.7915	0.428
Mof_C 	C 	0.885	0.1489	0.9759	0.322
Mof_C 	C 	0.8158	0.204	0.9882	0.158
Mof_C 	C 	0.7895	0.1595	0.0438	0.561
Mof_H 	H 	0.816	0.104	0.071	-0.228
Mof_C 	C 	0.783	0.304	0.946	-0.986
Mof_N 	N 	0.7998	0.3536	0.8904	-3.464
Mof_H 	H 	0.835	0.322	0.877	0.922
Mof_H 	H 	0.794	0.425	0.877	1.163
Mof_N 	N 	0.833	0.7955	0.7624	-0.281
Mof_H 	H 	0.808	0.804	0.715	0.057
Mof_H 	H 	0.865	0.855	0.775	0.143
Mof_O 	O 	0.92136	0.9047	0.88906	-0.501
Mof_O 	O 	0.92447	0.8293	0.99838	-0.513
Mof_O 	O 	0.58688	0.5266	0.83554	-0.515
Mof_O 	O 	0.58991	0.572	0.72214	-0.512
Mof_O 	O 	0.92176	0.0722	0.01931	-0.481
Mof_O 	O 	0.90333	0.182	0.92017	-0.528
Mof_Gd	Gd	0.00083	0.06582	0.89725	1.773
Mof_C 	C 	0.77	0.291	0.942	-0.618
Mof_H 	H 	0.7821	0.3149	0.9	2.898
Mof_C 	C 	0.3971	0.3359	0.9286	0.495
Mof_C 	C 	0.3304	0.2585	0.8905	-0.216
Mof_C 	C 	0.2936	0.2014	0.9344	0.039
Mof_H 	H 	0.315	0.2047	0.9862	0.009
Mof_C 	C 	0.2263	0.1399	0.9035	-0.084
Mof_H 	H 	0.2022	0.1036	0.9341	0.041
Mof_C 	C 	0.1945	0.1324	0.8261	-0.125
Mof_C 	C 	0.2326	0.183	0.7813	-0.113
Mof_H 	H 	0.213	0.1741	0.7296	0.015
Mof_C 	C 	0.3003	0.2476	0.8127	0.133
Mof_C 	C 	0.1181	0.0734	0.7915	0.427
Mof_C 	C 	0.385	0.6489	0.9759	0.326
Mof_C 	C 	0.3158	0.704	0.9882	0.149
Mof_C 	C 	0.2895	0.6595	0.0438	0.573
Mof_H 	H 	0.316	0.604	0.071	-0.233
Mof_C 	C 	0.283	0.804	0.946	-0.978
Mof_N 	N 	0.2998	0.8536	0.8904	-3.451
Mof_H 	H 	0.335	0.822	0.877	0.919
Mof_H 	H 	0.294	0.925	0.877	1.159
Mof_N 	N 	0.333	0.2955	0.7624	-0.281
Mof_H 	H 	0.308	0.304	0.715	0.057
Mof_H 	H 	0.365	0.355	0.775	0.142
Mof_O 	O 	0.42136	0.4047	0.88906	-0.507
Mof_O 	O 	0.42447	0.3293	0.99838	-0.521
Mof_O 	O 	0.08688	0.0266	0.83554	-0.515
Mof_O 	O 	0.08991	0.072	0.72214	-0.513
Mof_O 	O 	0.42176	0.5722	0.01931	-0.483
Mof_O 	O 	0.40333	0.682	0.92017	-0.531
Mof_Gd	Gd	0.50083	0.56582	0.89725	1.79
Mof_C 	C 	0.27	0.791	0.942	-0.614
Mof_H 	H 	0.2821	0.8149	0.9	2.885
Mof_C 	C 	0.1029	0.8359	0.5714	0.495
Mof_C 	C 	0.1696	0.7585	0.6095	-0.215
Mof_C 	C 	0.2064	0.7014	0.5656	0.039
Mof_H 	H 	0.185	0.7047	0.5138	0.011
Mof_C 	C 	0.2737	0.6399	0.5965	-0.084
Mof_H 	H 	0.2978	0.6036	0.5659	0.043
Mof_C 	C 	0.3055	0.6324	0.6739	-0.125
Mof_C 	C 	0.2674	0.683	0.7187	-0.113
Mof_H 	H 	0.287	0.6741	0.7704	0.016
Mof_C 	C 	0.1997	0.7476	0.6873	0.134
Mof_C 	C 	0.3819	0.5734	0.7085	0.428
Mof_C 	C 	0.115	0.1489	0.5241	0.326
Mof_C 	C 	0.1842	0.204	0.5118	0.152
Mof_C 	C 	0.2105	0.1595	0.4562	0.57
Mof_H 	H 	0.184	0.104	0.429	-0.232
Mof_C 	C 	0.217	0.304	0.554	-0.98
Mof_N 	N 	0.2002	0.3536	0.6096	-3.453
Mof_H 	H 	0.165	0.322	0.623	0.92
Mof_H 	H 	0.206	0.425	0.623	1.159
Mof_N 	N 	0.167	0.7955	0.7376	-0.281
Mof_H 	H 	0.192	0.804	0.785	0.057
Mof_H 	H 	0.135	0.855	0.725	0.142
Mof_O 	O 	0.07864	0.9047	0.61094	-0.507
Mof_O 	O 	0.07553	0.8293	0.50162	-0.52
Mof_O 	O 	0.41312	0.5266	0.66446	-0.515
Mof_O 	O 	0.41009	0.572	0.77786	-0.512
Mof_O 	O 	0.07824	0.0722	0.48069	-0.483
Mof_O 	O 	0.09667	0.182	0.57983	-0.532
Mof_Gd	Gd	0.99917	0.06582	0.60275	1.795
Mof_C 	C 	0.23	0.291	0.558	-0.615
Mof_H 	H 	0.2179	0.3149	0.6	2.888
Mof_C 	C 	0.6029	0.3359	0.5714	0.495
Mof_C 	C 	0.6696	0.2585	0.6095	-0.215
Mof_C 	C 	0.7064	0.2014	0.5656	0.039
Mof_H 	H 	0.685	0.2047	0.5138	0.011
Mof_C 	C 	0.7737	0.1399	0.5965	-0.084
Mof_H 	H 	0.7978	0.1036	0.5659	0.043
Mof_C 	C 	0.8055	0.1324	0.6739	-0.125
Mof_C 	C 	0.7674	0.183	0.7187	-0.113
Mof_H 	H 	0.787	0.1741	0.7704	0.015
Mof_C 	C 	0.6997	0.2476	0.6873	0.133
Mof_C 	C 	0.8819	0.0734	0.7085	0.427
Mof_C 	C 	0.615	0.6489	0.5241	0.324
Mof_C 	C 	0.6842	0.704	0.5118	0.156
Mof_C 	C 	0.7105	0.6595	0.4562	0.565
Mof_H 	H 	0.684	0.604	0.429	-0.23
Mof_C 	C 	0.717	0.804	0.554	-0.983
Mof_N 	N 	0.7002	0.8536	0.6096	-3.461
Mof_H 	H 	0.665	0.822	0.623	0.921
Mof_H 	H 	0.706	0.925	0.623	1.162
Mof_N 	N 	0.667	0.2955	0.7376	-0.281
Mof_H 	H 	0.692	0.304	0.785	0.056
Mof_H 	H 	0.635	0.355	0.725	0.142
Mof_O 	O 	0.57864	0.4047	0.61094	-0.507
Mof_O 	O 	0.57553	0.3293	0.50162	-0.519
Mof_O 	O 	0.91312	0.0266	0.66446	-0.515
Mof_O 	O 	0.91009	0.072	0.77786	-0.509
Mof_O 	O 	0.57824	0.5722	0.48069	-0.482
Mof_O 	O 	0.59667	0.682	0.57983	-0.531
Mof_Gd	Gd	0.49917	0.56582	0.60275	1.788
Mof_C 	C 	0.73	0.791	0.558	-0.618
Mof_H 	H 	0.7179	0.8149	0.6	2.895
Mof_C 	C 	0.1029	0.1641	0.0714	0.493
Mof_C 	C 	0.1696	0.2415	0.1095	-0.213
Mof_C 	C 	0.2064	0.2986	0.0656	0.038
Mof_H 	H 	0.185	0.2953	0.0138	0.012
Mof_C 	C 	0.2737	0.3601	0.0965	-0.083
Mof_H 	H 	0.2978	0.3964	0.0659	0.043
Mof_C 	C 	0.3055	0.3676	0.1739	-0.125
Mof_C 	C 	0.2674	0.317	0.2187	-0.112
Mof_H 	H 	0.287	0.3259	0.2704	0.015
Mof_C 	C 	0.1997	0.2524	0.1873	0.133
Mof_C 	C 	0.3819	0.4266	0.2085	0.428
Mof_C 	C 	0.115	0.8511	0.0241	0.322
Mof_C 	C 	0.1842	0.796	0.0118	0.158
Mof_C 	C 	0.2105	0.8405	0.9562	0.561
Mof_H 	H 	0.184	0.896	0.929	-0.228
Mof_C 	C 	0.217	0.696	0.054	-0.986
Mof_N 	N 	0.2002	0.6464	0.1096	-3.464
Mof_H 	H 	0.165	0.678	0.123	0.922
Mof_H 	H 	0.206	0.575	0.123	1.163
Mof_N 	N 	0.167	0.2045	0.2376	-0.281
Mof_H 	H 	0.192	0.196	0.285	0.057
Mof_H 	H 	0.135	0.145	0.225	0.143
Mof_O 	O 	0.07864	0.0953	0.11094	-0.501
Mof_O 	O 	0.07553	0.1707	0.00162	-0.513
Mof_O 	O 	0.41312	0.4734	0.16446	-0.515
Mof_O 	O 	0.41009	0.428	0.27786	-0.512
Mof_O 	O 	0.07824	0.9278	0.98069	-0.481
Mof_O 	O 	0.09667	0.818	0.07983	-0.528
Mof_Gd	Gd	0.99917	0.93418	0.10275	1.773
Mof_C 	C 	0.23	0.709	0.058	-0.618
Mof_H 	H 	0.2179	0.6851	0.1	2.898
Mof_C 	C 	0.6029	0.6641	0.0714	0.495
Mof_C 	C 	0.6696	0.7415	0.1095	-0.216
Mof_C 	C 	0.7064	0.7986	0.0656	0.039
Mof_H 	H 	0.685	0.7953	0.0138	0.009
Mof_C 	C 	0.7737	0.8601	0.0965	-0.084
Mof_H 	H 	0.7978	0.8964	0.0659	0.041
Mof_C 	C 	0.8055	0.8676	0.1739	-0.125
Mof_C 	C 	0.7674	0.817	0.2187	-0.113
Mof_H 	H 	0.787	0.8259	0.2704	0.015
Mof_C 	C 	0.6997	0.7524	0.1873	0.133
Mof_C 	C 	0.8819	0.9266	0.2085	0.427
Mof_C 	C 	0.615	0.3511	0.0241	0.326
Mof_C 	C 	0.6842	0.296	0.0118	0.149
Mof_C 	C 	0.7105	0.3405	0.9562	0.573
Mof_H 	H 	0.684	0.396	0.929	-0.233
Mof_C 	C 	0.717	0.196	0.054	-0.978
Mof_N 	N 	0.7002	0.1464	0.1096	-3.451
Mof_H 	H 	0.665	0.178	0.123	0.919
Mof_H 	H 	0.706	0.075	0.123	1.159
Mof_N 	N 	0.667	0.7045	0.2376	-0.281
Mof_H 	H 	0.692	0.696	0.285	0.057
Mof_H 	H 	0.635	0.645	0.225	0.142
Mof_O 	O 	0.57864	0.5953	0.11094	-0.507
Mof_O 	O 	0.57553	0.6707	0.00162	-0.521
Mof_O 	O 	0.91312	0.9734	0.16446	-0.515
Mof_O 	O 	0.91009	0.928	0.27786	-0.513
Mof_O 	O 	0.57824	0.4278	0.98069	-0.483
Mof_O 	O 	0.59667	0.318	0.07983	-0.531
Mof_Gd	Gd	0.49917	0.43418	0.10275	1.79
Mof_C 	C 	0.73	0.209	0.058	-0.614
Mof_H 	H 	0.7179	0.1851	0.1	2.885
Mof_C 	C 	0.8971	0.1641	0.4286	0.495
Mof_C 	C 	0.8304	0.2415	0.3905	-0.215
Mof_C 	C 	0.7936	0.2986	0.4344	0.039
Mof_H 	H 	0.815	0.2953	0.4862	0.011
Mof_C 	C 	0.7263	0.3601	0.4035	-0.084
Mof_H 	H 	0.7022	0.3964	0.4341	0.043
Mof_C 	C 	0.6945	0.3676	0.3261	-0.125
Mof_C 	C 	0.7326	0.317	0.2813	-0.113
Mof_H 	H 	0.713	0.3259	0.2296	0.016
Mof_C 	C 	0.8003	0.2524	0.3127	0.134
Mof_C 	C 	0.6181	0.4266	0.2915	0.428
Mof_C 	C 	0.885	0.8511	0.4759	0.326
Mof_C 	C 	0.8158	0.796	0.4882	0.152
Mof_C 	C 	0.7895	0.8405	0.5438	0.57
Mof_H 	H 	0.816	0.896	0.571	-0.232
Mof_C 	C 	0.783	0.696	0.446	-0.98
Mof_N 	N 	0.7998	0.6464	0.3904	-3.453
Mof_H 	H 	0.835	0.678	0.377	0.92
Mof_H 	H 	0.794	0.575	0.377	1.159
Mof_N 	N 	0.833	0.2045	0.2624	-0.281
Mof_H 	H 	0.808	0.196	0.215	0.057
Mof_H 	H 	0.865	0.145	0.275	0.142
Mof_O 	O 	0.92136	0.0953	0.38906	-0.507
Mof_O 	O 	0.92447	0.1707	0.49838	-0.52
Mof_O 	O 	0.58688	0.4734	0.33554	-0.515
Mof_O 	O 	0.58991	0.428	0.22214	-0.512
Mof_O 	O 	0.92176	0.9278	0.51931	-0.483
Mof_O 	O 	0.90333	0.818	0.42017	-0.532
Mof_Gd	Gd	0.00083	0.93418	0.39725	1.795
Mof_C 	C 	0.77	0.709	0.442	-0.615
Mof_H 	H 	0.7821	0.6851	0.4	2.888
Mof_C 	C 	0.3971	0.6641	0.4286	0.495
Mof_C 	C 	0.3304	0.7415	0.3905	-0.215
Mof_C 	C 	0.2936	0.7986	0.4344	0.039
Mof_H 	H 	0.315	0.7953	0.4862	0.011
Mof_C 	C 	0.2263	0.8601	0.4035	-0.084
Mof_H 	H 	0.2022	0.8964	0.4341	0.043
Mof_C 	C 	0.1945	0.8676	0.3261	-0.125
Mof_C 	C 	0.2326	0.817	0.2813	-0.113
Mof_H 	H 	0.213	0.8259	0.2296	0.015
Mof_C 	C 	0.3003	0.7524	0.3127	0.133
Mof_C 	C 	0.1181	0.9266	0.2915	0.427
Mof_C 	C 	0.385	0.3511	0.4759	0.324
Mof_C 	C 	0.3158	0.296	0.4882	0.156
Mof_C 	C 	0.2895	0.3405	0.5438	0.565
Mof_H 	H 	0.316	0.396	0.571	-0.23
Mof_C 	C 	0.283	0.196	0.446	-0.983
Mof_N 	N 	0.2998	0.1464	0.3904	-3.461
Mof_H 	H 	0.335	0.178	0.377	0.921
Mof_H 	H 	0.294	0.075	0.377	1.162
Mof_N 	N 	0.333	0.7045	0.2624	-0.281
Mof_H 	H 	0.308	0.696	0.215	0.056
Mof_H 	H 	0.365	0.645	0.275	0.142
Mof_O 	O 	0.42136	0.5953	0.38906	-0.507
Mof_O 	O 	0.42447	0.6707	0.49838	-0.519
Mof_O 	O 	0.08688	0.9734	0.33554	-0.515
Mof_O 	O 	0.08991	0.928	0.22214	-0.509
Mof_O 	O 	0.42176	0.4278	0.51931	-0.482
Mof_O 	O 	0.40333	0.318	0.42017	-0.531
Mof_Gd	Gd	0.50083	0.43418	0.39725	1.788
Mof_C 	C 	0.27	0.209	0.442	-0.618
Mof_H 	H 	0.2821	0.1851	0.4	2.895
_end
