data_functionalizedCrystal
_audit_creation_method	'EQeq! by Chris Wilmer'
_symmetry_space_group_name_H-M	'P1'
_symmetry_Int_Tables_number	1
_symmetry_cell_setting	triclinic
loop_
_symmetry_equiv_pos_as_xyz
  x,y,z
_cell_length_a	27.5447
_cell_length_b	32.731
_cell_length_c	44.208
_cell_angle_alpha	90
_cell_angle_beta	90
_cell_angle_gamma	90
loop_
_atom_site_label
_atom_site_type_symbol
_atom_site_fract_x
_atom_site_fract_y
_atom_site_fract_z
_atom_site_charge
Mof_Zn	Zn	0.03068	0.19288	0.10933	1.178
Mof_N 	N 	0.02104	0.19666	0.06311	-0.276
Mof_N 	N 	0.97556	0.1507	0.11082	-0.274
Mof_N 	N 	0.02586	0.19898	0.15586	-0.276
Mof_N 	N 	0.07063	0.24599	0.10826	-0.29
Mof_C 	C 	0.04727	0.22098	0.04382	0.091
Mof_C 	C 	0.03587	0.20985	0.01309	-0.068
Mof_H 	H 	0.0486	0.2223	0.9954	0.057
Mof_C 	C 	0.00465	0.1793	0.01386	-0.076
Mof_H 	H 	0.9912	0.1654	0.9969	0.06
Mof_C 	C 	0.9949	0.17099	0.04531	0.101
Mof_C 	C 	0.96369	0.13997	0.0561	-0.12
Mof_C 	C 	0.95429	0.1307	0.0866	0.097
Mof_C 	C 	0.92274	0.09932	0.09696	-0.073
Mof_H 	H 	0.9037	0.0814	0.0849	0.058
Mof_C 	C 	0.9253	0.1002	0.12775	-0.08
Mof_H 	H 	0.9082	0.0828	0.1413	0.062
Mof_C 	C 	0.95785	0.13154	0.13589	0.104
Mof_C 	C 	0.9709	0.14168	0.16571	-0.126
Mof_C 	C 	0.00179	0.17384	0.17483	0.104
Mof_C 	C 	0.01261	0.18451	0.20548	-0.082
Mof_H 	H 	0.0003	0.1715	0.2231	0.057
Mof_C 	C 	0.04331	0.21626	0.20483	-0.066
Mof_H 	H 	0.0563	0.2301	0.2219	0.052
Mof_C 	C 	0.05294	0.2255	0.17347	0.088
Mof_C 	C 	0.08372	0.25585	0.16266	-0.12
Mof_C 	C 	0.09288	0.26556	0.13199	0.082
Mof_C 	C 	0.12543	0.2955	0.12134	-0.075
Mof_H 	H 	0.1447	0.3132	0.1335	0.061
Mof_C 	C 	0.12444	0.29465	0.09097	-0.071
Mof_H 	H 	0.1427	0.3115	0.0777	0.059
Mof_C 	C 	0.09097	0.26394	0.08255	0.077
Mof_C 	C 	0.07935	0.25181	0.05281	-0.121
Mof_C 	C 	0.94054	0.11496	0.03385	0.058
Mof_C 	C 	0.92214	0.09518	0.0147	-0.086
Mof_C 	C 	0.89962	0.07253	0.9906	0.113
Mof_C 	C 	0.91038	0.08157	0.96033	-0.153
Mof_H 	H 	0.9339	0.1018	0.9555	0.086
Mof_C 	C 	0.88659	0.0609	0.93764	0.088
Mof_H 	H 	0.8929	0.068	0.9172	0.015
Mof_C 	C 	0.85426	0.03065	0.94374	-0.15
Mof_C 	C 	0.84442	0.02047	0.97367	0.082
Mof_H 	H 	0.8222	0.999	0.9779	0.021
Mof_C 	C 	0.86587	0.0406	0.99693	-0.151
Mof_H 	H 	0.8585	0.0335	0.0173	0.083
Mof_C 	C 	0.82814	0.0082	0.91877	0.405
Mof_O 	O 	0.83458	0.02217	0.89229	-0.518
Mof_O 	O 	0.80177	0.9788	0.92563	-0.5
Mof_C 	C 	0.95098	0.11689	0.18935	0.06
Mof_C 	C 	0.93564	0.09604	0.20901	-0.089
Mof_C 	C 	0.91479	0.07179	0.23261	0.115
Mof_C 	C 	0.8798	0.04435	0.22682	-0.142
Mof_H 	H 	0.8704	0.0395	0.2065	0.084
Mof_C 	C 	0.8573	0.02292	0.24991	0.057
Mof_H 	H 	0.832	0.0041	0.2455	0.039
Mof_C 	C 	0.8722	0.0293	0.27978	-0.104
Mof_C 	C 	0.9095	0.05583	0.28534	0.059
Mof_H 	H 	0.9205	0.0594	0.3055	0.03
Mof_C 	C 	0.93132	0.07727	0.26257	-0.14
Mof_H 	H 	0.9572	0.0956	0.2668	0.08
Mof_C 	C 	0.84597	0.00908	0.30565	0.321
Mof_O 	O 	0.80585	0.99057	0.30083	-0.387
Mof_O 	O 	0.86343	0.01194	0.33142	-0.411
Mof_C 	C 	0.10994	0.2804	0.1849	0.059
Mof_C 	C 	0.13205	0.3007	0.20245	-0.094
Mof_C 	C 	0.15714	0.32681	0.22249	0.132
Mof_C 	C 	0.1462	0.32883	0.25219	-0.161
Mof_H 	H 	0.1215	0.3116	0.2601	0.087
Mof_C 	C 	0.1703	0.35565	0.27156	0.077
Mof_H 	H 	0.1621	0.3563	0.2924	0.021
Mof_C 	C 	0.2052	0.3806	0.26086	-0.127
Mof_C 	C 	0.2153	0.37966	0.22963	0.077
Mof_H 	H 	0.2383	0.3982	0.2213	0.027
Mof_C 	C 	0.1927	0.3527	0.21142	-0.16
Mof_H 	H 	0.2013	0.3514	0.1906	0.087
Mof_C 	C 	0.2302	0.41041	0.28157	0.355
Mof_O 	O 	0.21954	0.41101	0.30845	-0.281
Mof_O 	O 	0.25816	0.43822	0.26712	-0.441
Mof_H 	H 	0.2762	0.45	0.2797	0.284
Mof_C 	C 	0.10347	0.27327	0.02913	0.062
Mof_C 	C 	0.12319	0.29095	0.00873	-0.093
Mof_C 	C 	0.14509	0.31267	0.98443	0.13
Mof_C 	C 	0.17732	0.34287	0.99013	-0.166
Mof_H 	H 	0.1859	0.3491	0.0104	0.09
Mof_C 	C 	0.19781	0.3647	0.96678	0.083
Mof_H 	H 	0.22	0.3862	0.971	0.022
Mof_C 	C 	0.18607	0.35535	0.93747	-0.139
Mof_C 	C 	0.1542	0.32482	0.93144	0.081
Mof_H 	H 	0.1462	0.3185	0.9111	0.017
Mof_C 	C 	0.13352	0.30317	0.95451	-0.163
Mof_H 	H 	0.1113	0.2817	0.9502	0.086
Mof_C 	C 	0.20836	0.38018	0.91217	0.362
Mof_O 	O 	0.23386	0.41015	0.92075	-0.472
Mof_O 	O 	0.20072	0.37012	0.88545	-0.309
Mof_N 	N 	0.09138	0.15003	0.10887	-0.211
Mof_N 	N 	0.16353	0.09977	0.10708	-0.224
Mof_Zn	Zn	0.77891	0.93928	0.8959	1.213
Mof_Zn	Zn	0.80411	0.01821	0.85104	1.202
Mof_O 	O 	0.76523	0.9614	0.85657	-0.664
Mof_C 	C 	0.1116	0.14688	0.07781	-0.001
Mof_C 	C 	0.0797	0.1116	0.1266	0.004
Mof_C 	C 	0.1303	0.16336	0.12885	0.006
Mof_C 	C 	0.1484	0.1091	0.07646	0.027
Mof_C 	C 	0.1799	0.1381	0.12419	-0.021
Mof_C 	C 	0.1226	0.0828	0.1256	0.011
Mof_C 	C 	0.1169	0.0759	0.1032	-0.012
Mof_C 	C 	0.1699	0.129	0.08	-0.023
Mof_C 	C 	0.1623	0.1198	0.1357	0.037
Mof_C 	C 	0.0727	0.1057	0.111	-0.006
Mof_Zn	Zn	0.53068	0.69288	0.10933	1.177
Mof_N 	N 	0.52104	0.69666	0.06311	-0.277
Mof_N 	N 	0.47556	0.6507	0.11082	-0.275
Mof_N 	N 	0.52586	0.69898	0.15586	-0.277
Mof_N 	N 	0.57063	0.74599	0.10826	-0.291
Mof_C 	C 	0.54727	0.72098	0.04382	0.09
Mof_C 	C 	0.53587	0.70985	0.01309	-0.069
Mof_H 	H 	0.5486	0.7223	0.9954	0.056
Mof_C 	C 	0.50465	0.6793	0.01386	-0.077
Mof_H 	H 	0.4912	0.6654	0.9969	0.059
Mof_C 	C 	0.4949	0.67099	0.04531	0.1
Mof_C 	C 	0.46369	0.63997	0.0561	-0.121
Mof_C 	C 	0.45429	0.6307	0.0866	0.096
Mof_C 	C 	0.42274	0.59932	0.09696	-0.074
Mof_H 	H 	0.4037	0.5814	0.0849	0.057
Mof_C 	C 	0.4253	0.6002	0.12775	-0.081
Mof_H 	H 	0.4082	0.5828	0.1413	0.061
Mof_C 	C 	0.45785	0.63154	0.13589	0.103
Mof_C 	C 	0.4709	0.64168	0.16571	-0.127
Mof_C 	C 	0.50179	0.67384	0.17483	0.103
Mof_C 	C 	0.51261	0.68451	0.20548	-0.083
Mof_H 	H 	0.5003	0.6715	0.2231	0.056
Mof_C 	C 	0.54331	0.71626	0.20483	-0.067
Mof_H 	H 	0.5563	0.7301	0.2219	0.051
Mof_C 	C 	0.55294	0.7255	0.17347	0.087
Mof_C 	C 	0.58372	0.75585	0.16266	-0.121
Mof_C 	C 	0.59288	0.76556	0.13199	0.081
Mof_C 	C 	0.62543	0.7955	0.12134	-0.076
Mof_H 	H 	0.6447	0.8132	0.1335	0.06
Mof_C 	C 	0.62444	0.79465	0.09097	-0.072
Mof_H 	H 	0.6427	0.8115	0.0777	0.058
Mof_C 	C 	0.59097	0.76394	0.08255	0.076
Mof_C 	C 	0.57935	0.75181	0.05281	-0.121
Mof_C 	C 	0.44054	0.61496	0.03385	0.058
Mof_C 	C 	0.42214	0.59518	0.0147	-0.086
Mof_C 	C 	0.39962	0.57253	0.9906	0.113
Mof_C 	C 	0.41038	0.58157	0.96033	-0.153
Mof_H 	H 	0.4339	0.6018	0.9555	0.086
Mof_C 	C 	0.38659	0.5609	0.93764	0.088
Mof_H 	H 	0.3929	0.568	0.9172	0.015
Mof_C 	C 	0.35426	0.53065	0.94374	-0.15
Mof_C 	C 	0.34442	0.52047	0.97367	0.082
Mof_H 	H 	0.3222	0.499	0.9779	0.021
Mof_C 	C 	0.36587	0.5406	0.99693	-0.151
Mof_H 	H 	0.3585	0.5335	0.0173	0.083
Mof_C 	C 	0.32814	0.5082	0.91877	0.405
Mof_O 	O 	0.33458	0.52217	0.89229	-0.518
Mof_O 	O 	0.30177	0.4788	0.92563	-0.5
Mof_C 	C 	0.45098	0.61689	0.18935	0.06
Mof_C 	C 	0.43564	0.59604	0.20901	-0.089
Mof_C 	C 	0.41479	0.57179	0.23261	0.115
Mof_C 	C 	0.3798	0.54435	0.22682	-0.142
Mof_H 	H 	0.3704	0.5395	0.2065	0.084
Mof_C 	C 	0.3573	0.52292	0.24991	0.057
Mof_H 	H 	0.332	0.5041	0.2455	0.039
Mof_C 	C 	0.3722	0.5293	0.27978	-0.104
Mof_C 	C 	0.4095	0.55583	0.28534	0.059
Mof_H 	H 	0.4205	0.5594	0.3055	0.03
Mof_C 	C 	0.43132	0.57727	0.26257	-0.14
Mof_H 	H 	0.4572	0.5956	0.2668	0.08
Mof_C 	C 	0.34597	0.50908	0.30565	0.321
Mof_O 	O 	0.30585	0.49057	0.30083	-0.387
Mof_O 	O 	0.36343	0.51194	0.33142	-0.411
Mof_C 	C 	0.60994	0.7804	0.1849	0.059
Mof_C 	C 	0.63205	0.8007	0.20245	-0.094
Mof_C 	C 	0.65714	0.82681	0.22249	0.132
Mof_C 	C 	0.6462	0.82883	0.25219	-0.161
Mof_H 	H 	0.6215	0.8116	0.2601	0.087
Mof_C 	C 	0.6703	0.85565	0.27156	0.077
Mof_H 	H 	0.6621	0.8563	0.2924	0.021
Mof_C 	C 	0.7052	0.8806	0.26086	-0.127
Mof_C 	C 	0.7153	0.87966	0.22963	0.077
Mof_H 	H 	0.7383	0.8982	0.2213	0.027
Mof_C 	C 	0.6927	0.8527	0.21142	-0.16
Mof_H 	H 	0.7013	0.8514	0.1906	0.087
Mof_C 	C 	0.7302	0.91041	0.28157	0.355
Mof_O 	O 	0.71954	0.91101	0.30845	-0.281
Mof_O 	O 	0.75816	0.93822	0.26712	-0.441
Mof_H 	H 	0.7762	0.95	0.2797	0.284
Mof_C 	C 	0.60347	0.77327	0.02913	0.062
Mof_C 	C 	0.62319	0.79095	0.00873	-0.093
Mof_C 	C 	0.64509	0.81267	0.98443	0.13
Mof_C 	C 	0.67732	0.84287	0.99013	-0.166
Mof_H 	H 	0.6859	0.8491	0.0104	0.09
Mof_C 	C 	0.69781	0.8647	0.96678	0.083
Mof_H 	H 	0.72	0.8862	0.971	0.022
Mof_C 	C 	0.68607	0.85535	0.93747	-0.139
Mof_C 	C 	0.6542	0.82482	0.93144	0.081
Mof_H 	H 	0.6462	0.8185	0.9111	0.017
Mof_C 	C 	0.63352	0.80317	0.95451	-0.163
Mof_H 	H 	0.6113	0.7817	0.9502	0.086
Mof_C 	C 	0.70836	0.88018	0.91217	0.362
Mof_O 	O 	0.73386	0.91015	0.92075	-0.472
Mof_O 	O 	0.70072	0.87012	0.88545	-0.309
Mof_N 	N 	0.59138	0.65003	0.10887	-0.211
Mof_N 	N 	0.66353	0.59977	0.10708	-0.224
Mof_Zn	Zn	0.27891	0.43928	0.8959	1.213
Mof_Zn	Zn	0.30411	0.51821	0.85104	1.202
Mof_O 	O 	0.26523	0.4614	0.85657	-0.664
Mof_C 	C 	0.6116	0.64688	0.07781	-0.001
Mof_C 	C 	0.5797	0.6116	0.1266	0.004
Mof_C 	C 	0.6303	0.66336	0.12885	0.006
Mof_C 	C 	0.6484	0.6091	0.07646	0.027
Mof_C 	C 	0.6799	0.6381	0.12419	-0.021
Mof_C 	C 	0.6226	0.5828	0.1256	0.011
Mof_C 	C 	0.6169	0.5759	0.1032	-0.012
Mof_C 	C 	0.6699	0.629	0.08	-0.023
Mof_C 	C 	0.6623	0.6198	0.1357	0.037
Mof_C 	C 	0.5727	0.6057	0.111	-0.006
Mof_Zn	Zn	0.46932	0.80712	0.10933	1.177
Mof_N 	N 	0.47896	0.80334	0.06311	-0.277
Mof_N 	N 	0.52444	0.8493	0.11082	-0.275
Mof_N 	N 	0.47414	0.80102	0.15586	-0.277
Mof_N 	N 	0.42937	0.75401	0.10826	-0.291
Mof_C 	C 	0.45273	0.77902	0.04382	0.09
Mof_C 	C 	0.46413	0.79015	0.01309	-0.069
Mof_H 	H 	0.4514	0.7777	0.9954	0.056
Mof_C 	C 	0.49535	0.8207	0.01386	-0.077
Mof_H 	H 	0.5088	0.8346	0.9969	0.059
Mof_C 	C 	0.5051	0.82901	0.04531	0.1
Mof_C 	C 	0.53631	0.86003	0.0561	-0.121
Mof_C 	C 	0.54571	0.8693	0.0866	0.096
Mof_C 	C 	0.57726	0.90068	0.09696	-0.074
Mof_H 	H 	0.5963	0.9186	0.0849	0.057
Mof_C 	C 	0.5747	0.8998	0.12775	-0.081
Mof_H 	H 	0.5918	0.9172	0.1413	0.061
Mof_C 	C 	0.54215	0.86846	0.13589	0.103
Mof_C 	C 	0.5291	0.85832	0.16571	-0.127
Mof_C 	C 	0.49821	0.82616	0.17483	0.103
Mof_C 	C 	0.48739	0.81549	0.20548	-0.083
Mof_H 	H 	0.4997	0.8285	0.2231	0.056
Mof_C 	C 	0.45669	0.78374	0.20483	-0.067
Mof_H 	H 	0.4437	0.7699	0.2219	0.051
Mof_C 	C 	0.44706	0.7745	0.17347	0.087
Mof_C 	C 	0.41628	0.74415	0.16266	-0.121
Mof_C 	C 	0.40712	0.73444	0.13199	0.081
Mof_C 	C 	0.37457	0.7045	0.12134	-0.076
Mof_H 	H 	0.3553	0.6868	0.1335	0.06
Mof_C 	C 	0.37556	0.70535	0.09097	-0.072
Mof_H 	H 	0.3573	0.6885	0.0777	0.058
Mof_C 	C 	0.40903	0.73606	0.08255	0.076
Mof_C 	C 	0.42065	0.74819	0.05281	-0.121
Mof_C 	C 	0.55946	0.88504	0.03385	0.058
Mof_C 	C 	0.57786	0.90482	0.0147	-0.086
Mof_C 	C 	0.60038	0.92747	0.9906	0.113
Mof_C 	C 	0.58962	0.91843	0.96033	-0.153
Mof_H 	H 	0.5661	0.8982	0.9555	0.086
Mof_C 	C 	0.61341	0.9391	0.93764	0.088
Mof_H 	H 	0.6071	0.932	0.9172	0.015
Mof_C 	C 	0.64574	0.96935	0.94374	-0.15
Mof_C 	C 	0.65558	0.97953	0.97367	0.082
Mof_H 	H 	0.6778	0.001	0.9779	0.021
Mof_C 	C 	0.63413	0.9594	0.99693	-0.151
Mof_H 	H 	0.6415	0.9665	0.0173	0.083
Mof_C 	C 	0.67186	0.9918	0.91877	0.405
Mof_O 	O 	0.66542	0.97783	0.89229	-0.518
Mof_O 	O 	0.69823	0.0212	0.92563	-0.5
Mof_C 	C 	0.54902	0.88311	0.18935	0.06
Mof_C 	C 	0.56436	0.90396	0.20901	-0.089
Mof_C 	C 	0.58521	0.92821	0.23261	0.115
Mof_C 	C 	0.6202	0.95565	0.22682	-0.142
Mof_H 	H 	0.6296	0.9605	0.2065	0.084
Mof_C 	C 	0.6427	0.97708	0.24991	0.057
Mof_H 	H 	0.668	0.9959	0.2455	0.039
Mof_C 	C 	0.6278	0.9707	0.27978	-0.104
Mof_C 	C 	0.5905	0.94417	0.28534	0.059
Mof_H 	H 	0.5795	0.9406	0.3055	0.03
Mof_C 	C 	0.56868	0.92273	0.26257	-0.14
Mof_H 	H 	0.5428	0.9044	0.2668	0.08
Mof_C 	C 	0.65403	0.99092	0.30565	0.321
Mof_O 	O 	0.69415	0.00943	0.30083	-0.387
Mof_O 	O 	0.63657	0.98806	0.33142	-0.411
Mof_C 	C 	0.39006	0.7196	0.1849	0.059
Mof_C 	C 	0.36795	0.6993	0.20245	-0.094
Mof_C 	C 	0.34286	0.67319	0.22249	0.132
Mof_C 	C 	0.3538	0.67117	0.25219	-0.161
Mof_H 	H 	0.3785	0.6884	0.2601	0.087
Mof_C 	C 	0.3297	0.64435	0.27156	0.077
Mof_H 	H 	0.3379	0.6437	0.2924	0.021
Mof_C 	C 	0.2948	0.6194	0.26086	-0.127
Mof_C 	C 	0.2847	0.62034	0.22963	0.077
Mof_H 	H 	0.2617	0.6018	0.2213	0.027
Mof_C 	C 	0.3073	0.6473	0.21142	-0.16
Mof_H 	H 	0.2987	0.6486	0.1906	0.087
Mof_C 	C 	0.2698	0.58959	0.28157	0.355
Mof_O 	O 	0.28046	0.58899	0.30845	-0.281
Mof_O 	O 	0.24184	0.56178	0.26712	-0.441
Mof_H 	H 	0.2238	0.55	0.2797	0.284
Mof_C 	C 	0.39653	0.72673	0.02913	0.062
Mof_C 	C 	0.37681	0.70905	0.00873	-0.093
Mof_C 	C 	0.35491	0.68733	0.98443	0.13
Mof_C 	C 	0.32268	0.65713	0.99013	-0.166
Mof_H 	H 	0.3141	0.6509	0.0104	0.09
Mof_C 	C 	0.30219	0.6353	0.96678	0.083
Mof_H 	H 	0.28	0.6138	0.971	0.022
Mof_C 	C 	0.31393	0.64465	0.93747	-0.139
Mof_C 	C 	0.3458	0.67518	0.93144	0.081
Mof_H 	H 	0.3538	0.6815	0.9111	0.017
Mof_C 	C 	0.36648	0.69683	0.95451	-0.163
Mof_H 	H 	0.3887	0.7183	0.9502	0.086
Mof_C 	C 	0.29164	0.61982	0.91217	0.362
Mof_O 	O 	0.26614	0.58985	0.92075	-0.472
Mof_O 	O 	0.29928	0.62988	0.88545	-0.309
Mof_N 	N 	0.40862	0.84997	0.10887	-0.211
Mof_N 	N 	0.33647	0.90023	0.10708	-0.224
Mof_Zn	Zn	0.72109	0.06072	0.8959	1.213
Mof_Zn	Zn	0.69589	0.98179	0.85104	1.202
Mof_O 	O 	0.73477	0.0386	0.85657	-0.664
Mof_C 	C 	0.3884	0.85312	0.07781	-0.001
Mof_C 	C 	0.4203	0.8884	0.1266	0.004
Mof_C 	C 	0.3697	0.83664	0.12885	0.006
Mof_C 	C 	0.3516	0.8909	0.07646	0.027
Mof_C 	C 	0.3201	0.8619	0.12419	-0.021
Mof_C 	C 	0.3774	0.9172	0.1256	0.011
Mof_C 	C 	0.3831	0.9241	0.1032	-0.012
Mof_C 	C 	0.3301	0.871	0.08	-0.023
Mof_C 	C 	0.3377	0.8802	0.1357	0.037
Mof_C 	C 	0.4273	0.8943	0.111	-0.006
Mof_Zn	Zn	0.96932	0.30712	0.10933	1.177
Mof_N 	N 	0.97896	0.30334	0.06311	-0.277
Mof_N 	N 	0.02444	0.3493	0.11082	-0.275
Mof_N 	N 	0.97414	0.30102	0.15586	-0.277
Mof_N 	N 	0.92937	0.25401	0.10826	-0.291
Mof_C 	C 	0.95273	0.27902	0.04382	0.09
Mof_C 	C 	0.96413	0.29015	0.01309	-0.069
Mof_H 	H 	0.9514	0.2777	0.9954	0.056
Mof_C 	C 	0.99535	0.3207	0.01386	-0.077
Mof_H 	H 	0.0088	0.3346	0.9969	0.059
Mof_C 	C 	0.0051	0.32901	0.04531	0.1
Mof_C 	C 	0.03631	0.36003	0.0561	-0.121
Mof_C 	C 	0.04571	0.3693	0.0866	0.096
Mof_C 	C 	0.07726	0.40068	0.09696	-0.074
Mof_H 	H 	0.0963	0.4186	0.0849	0.057
Mof_C 	C 	0.0747	0.3998	0.12775	-0.081
Mof_H 	H 	0.0918	0.4172	0.1413	0.061
Mof_C 	C 	0.04215	0.36846	0.13589	0.103
Mof_C 	C 	0.0291	0.35832	0.16571	-0.127
Mof_C 	C 	0.99821	0.32616	0.17483	0.103
Mof_C 	C 	0.98739	0.31549	0.20548	-0.083
Mof_H 	H 	0.9997	0.3285	0.2231	0.056
Mof_C 	C 	0.95669	0.28374	0.20483	-0.067
Mof_H 	H 	0.9437	0.2699	0.2219	0.051
Mof_C 	C 	0.94706	0.2745	0.17347	0.087
Mof_C 	C 	0.91628	0.24415	0.16266	-0.121
Mof_C 	C 	0.90712	0.23444	0.13199	0.081
Mof_C 	C 	0.87457	0.2045	0.12134	-0.076
Mof_H 	H 	0.8553	0.1868	0.1335	0.06
Mof_C 	C 	0.87556	0.20535	0.09097	-0.072
Mof_H 	H 	0.8573	0.1885	0.0777	0.058
Mof_C 	C 	0.90903	0.23606	0.08255	0.076
Mof_C 	C 	0.92065	0.24819	0.05281	-0.121
Mof_C 	C 	0.05946	0.38504	0.03385	0.058
Mof_C 	C 	0.07786	0.40482	0.0147	-0.086
Mof_C 	C 	0.10038	0.42747	0.9906	0.113
Mof_C 	C 	0.08962	0.41843	0.96033	-0.153
Mof_H 	H 	0.0661	0.3982	0.9555	0.086
Mof_C 	C 	0.11341	0.4391	0.93764	0.088
Mof_H 	H 	0.1071	0.432	0.9172	0.015
Mof_C 	C 	0.14574	0.46935	0.94374	-0.15
Mof_C 	C 	0.15558	0.47953	0.97367	0.082
Mof_H 	H 	0.1778	0.501	0.9779	0.021
Mof_C 	C 	0.13413	0.4594	0.99693	-0.151
Mof_H 	H 	0.1415	0.4665	0.0173	0.083
Mof_C 	C 	0.17186	0.4918	0.91877	0.405
Mof_O 	O 	0.16542	0.47783	0.89229	-0.518
Mof_O 	O 	0.19823	0.5212	0.92563	-0.5
Mof_C 	C 	0.04902	0.38311	0.18935	0.06
Mof_C 	C 	0.06436	0.40396	0.20901	-0.089
Mof_C 	C 	0.08521	0.42821	0.23261	0.115
Mof_C 	C 	0.1202	0.45565	0.22682	-0.142
Mof_H 	H 	0.1296	0.4605	0.2065	0.084
Mof_C 	C 	0.1427	0.47708	0.24991	0.057
Mof_H 	H 	0.168	0.4959	0.2455	0.039
Mof_C 	C 	0.1278	0.4707	0.27978	-0.104
Mof_C 	C 	0.0905	0.44417	0.28534	0.059
Mof_H 	H 	0.0795	0.4406	0.3055	0.03
Mof_C 	C 	0.06868	0.42273	0.26257	-0.14
Mof_H 	H 	0.0428	0.4044	0.2668	0.08
Mof_C 	C 	0.15403	0.49092	0.30565	0.321
Mof_O 	O 	0.19415	0.50943	0.30083	-0.387
Mof_O 	O 	0.13657	0.48806	0.33142	-0.411
Mof_C 	C 	0.89006	0.2196	0.1849	0.059
Mof_C 	C 	0.86795	0.1993	0.20245	-0.094
Mof_C 	C 	0.84286	0.17319	0.22249	0.132
Mof_C 	C 	0.8538	0.17117	0.25219	-0.161
Mof_H 	H 	0.8785	0.1884	0.2601	0.087
Mof_C 	C 	0.8297	0.14435	0.27156	0.077
Mof_H 	H 	0.8379	0.1437	0.2924	0.021
Mof_C 	C 	0.7948	0.1194	0.26086	-0.127
Mof_C 	C 	0.7847	0.12034	0.22963	0.077
Mof_H 	H 	0.7617	0.1018	0.2213	0.027
Mof_C 	C 	0.8073	0.1473	0.21142	-0.16
Mof_H 	H 	0.7987	0.1486	0.1906	0.087
Mof_C 	C 	0.7698	0.08959	0.28157	0.355
Mof_O 	O 	0.78046	0.08899	0.30845	-0.281
Mof_O 	O 	0.74184	0.06178	0.26712	-0.441
Mof_H 	H 	0.7238	0.05	0.2797	0.284
Mof_C 	C 	0.89653	0.22673	0.02913	0.062
Mof_C 	C 	0.87681	0.20905	0.00873	-0.093
Mof_C 	C 	0.85491	0.18733	0.98443	0.13
Mof_C 	C 	0.82268	0.15713	0.99013	-0.166
Mof_H 	H 	0.8141	0.1509	0.0104	0.09
Mof_C 	C 	0.80219	0.1353	0.96678	0.083
Mof_H 	H 	0.78	0.1138	0.971	0.022
Mof_C 	C 	0.81393	0.14465	0.93747	-0.139
Mof_C 	C 	0.8458	0.17518	0.93144	0.081
Mof_H 	H 	0.8538	0.1815	0.9111	0.017
Mof_C 	C 	0.86648	0.19683	0.95451	-0.163
Mof_H 	H 	0.8887	0.2183	0.9502	0.086
Mof_C 	C 	0.79164	0.11982	0.91217	0.362
Mof_O 	O 	0.76614	0.08985	0.92075	-0.472
Mof_O 	O 	0.79928	0.12988	0.88545	-0.309
Mof_N 	N 	0.90862	0.34997	0.10887	-0.211
Mof_N 	N 	0.83647	0.40023	0.10708	-0.224
Mof_Zn	Zn	0.22109	0.56072	0.8959	1.213
Mof_Zn	Zn	0.19589	0.48179	0.85104	1.202
Mof_O 	O 	0.23477	0.5386	0.85657	-0.664
Mof_C 	C 	0.8884	0.35312	0.07781	-0.001
Mof_C 	C 	0.9203	0.3884	0.1266	0.004
Mof_C 	C 	0.8697	0.33664	0.12885	0.006
Mof_C 	C 	0.8516	0.3909	0.07646	0.027
Mof_C 	C 	0.8201	0.3619	0.12419	-0.021
Mof_C 	C 	0.8774	0.4172	0.1256	0.011
Mof_C 	C 	0.8831	0.4241	0.1032	-0.012
Mof_C 	C 	0.8301	0.371	0.08	-0.023
Mof_C 	C 	0.8377	0.3802	0.1357	0.037
Mof_C 	C 	0.9273	0.3943	0.111	-0.006
Mof_Zn	Zn	0.96932	0.19288	0.39067	1.177
Mof_N 	N 	0.97896	0.19666	0.43689	-0.277
Mof_N 	N 	0.02444	0.1507	0.38918	-0.275
Mof_N 	N 	0.97414	0.19898	0.34414	-0.277
Mof_N 	N 	0.92937	0.24599	0.39174	-0.291
Mof_C 	C 	0.95273	0.22098	0.45618	0.09
Mof_C 	C 	0.96413	0.20985	0.48691	-0.069
Mof_H 	H 	0.9514	0.2223	0.5046	0.056
Mof_C 	C 	0.99535	0.1793	0.48614	-0.077
Mof_H 	H 	0.0088	0.1654	0.5031	0.059
Mof_C 	C 	0.0051	0.17099	0.45469	0.1
Mof_C 	C 	0.03631	0.13997	0.4439	-0.121
Mof_C 	C 	0.04571	0.1307	0.4134	0.096
Mof_C 	C 	0.07726	0.09932	0.40304	-0.074
Mof_H 	H 	0.0963	0.0814	0.4151	0.057
Mof_C 	C 	0.0747	0.1002	0.37225	-0.081
Mof_H 	H 	0.0918	0.0828	0.3587	0.061
Mof_C 	C 	0.04215	0.13154	0.36411	0.103
Mof_C 	C 	0.0291	0.14168	0.33429	-0.127
Mof_C 	C 	0.99821	0.17384	0.32517	0.103
Mof_C 	C 	0.98739	0.18451	0.29452	-0.083
Mof_H 	H 	0.9997	0.1715	0.2769	0.056
Mof_C 	C 	0.95669	0.21626	0.29517	-0.067
Mof_H 	H 	0.9437	0.2301	0.2781	0.051
Mof_C 	C 	0.94706	0.2255	0.32653	0.087
Mof_C 	C 	0.91628	0.25585	0.33734	-0.121
Mof_C 	C 	0.90712	0.26556	0.36801	0.081
Mof_C 	C 	0.87457	0.2955	0.37866	-0.076
Mof_H 	H 	0.8553	0.3132	0.3665	0.06
Mof_C 	C 	0.87556	0.29465	0.40903	-0.072
Mof_H 	H 	0.8573	0.3115	0.4223	0.058
Mof_C 	C 	0.90903	0.26394	0.41745	0.076
Mof_C 	C 	0.92065	0.25181	0.44719	-0.121
Mof_C 	C 	0.05946	0.11496	0.46615	0.058
Mof_C 	C 	0.07786	0.09518	0.4853	-0.086
Mof_C 	C 	0.10038	0.07253	0.5094	0.113
Mof_C 	C 	0.08962	0.08157	0.53967	-0.153
Mof_H 	H 	0.0661	0.1018	0.5445	0.086
Mof_C 	C 	0.11341	0.0609	0.56236	0.088
Mof_H 	H 	0.1071	0.068	0.5828	0.015
Mof_C 	C 	0.14574	0.03065	0.55626	-0.15
Mof_C 	C 	0.15558	0.02047	0.52633	0.082
Mof_H 	H 	0.1778	0.999	0.5221	0.021
Mof_C 	C 	0.13413	0.0406	0.50307	-0.151
Mof_H 	H 	0.1415	0.0335	0.4827	0.083
Mof_C 	C 	0.17186	0.0082	0.58123	0.405
Mof_O 	O 	0.16542	0.02217	0.60771	-0.518
Mof_O 	O 	0.19823	0.9788	0.57437	-0.5
Mof_C 	C 	0.04902	0.11689	0.31065	0.06
Mof_C 	C 	0.06436	0.09604	0.29099	-0.089
Mof_C 	C 	0.08521	0.07179	0.26739	0.115
Mof_C 	C 	0.1202	0.04435	0.27318	-0.142
Mof_H 	H 	0.1296	0.0395	0.2935	0.084
Mof_C 	C 	0.1427	0.02292	0.25009	0.057
Mof_H 	H 	0.168	0.0041	0.2545	0.039
Mof_C 	C 	0.1278	0.0293	0.22022	-0.104
Mof_C 	C 	0.0905	0.05583	0.21466	0.059
Mof_H 	H 	0.0795	0.0594	0.1945	0.03
Mof_C 	C 	0.06868	0.07727	0.23743	-0.14
Mof_H 	H 	0.0428	0.0956	0.2332	0.08
Mof_C 	C 	0.15403	0.00908	0.19435	0.321
Mof_O 	O 	0.19415	0.99057	0.19917	-0.387
Mof_O 	O 	0.13657	0.01194	0.16858	-0.411
Mof_C 	C 	0.89006	0.2804	0.3151	0.059
Mof_C 	C 	0.86795	0.3007	0.29755	-0.094
Mof_C 	C 	0.84286	0.32681	0.27751	0.132
Mof_C 	C 	0.8538	0.32883	0.24781	-0.161
Mof_H 	H 	0.8785	0.3116	0.2399	0.087
Mof_C 	C 	0.8297	0.35565	0.22844	0.077
Mof_H 	H 	0.8379	0.3563	0.2076	0.021
Mof_C 	C 	0.7948	0.3806	0.23914	-0.127
Mof_C 	C 	0.7847	0.37966	0.27037	0.077
Mof_H 	H 	0.7617	0.3982	0.2787	0.027
Mof_C 	C 	0.8073	0.3527	0.28858	-0.16
Mof_H 	H 	0.7987	0.3514	0.3094	0.087
Mof_C 	C 	0.7698	0.41041	0.21843	0.355
Mof_O 	O 	0.78046	0.41101	0.19155	-0.281
Mof_O 	O 	0.74184	0.43822	0.23288	-0.441
Mof_H 	H 	0.7238	0.45	0.2203	0.284
Mof_C 	C 	0.89653	0.27327	0.47087	0.062
Mof_C 	C 	0.87681	0.29095	0.49127	-0.093
Mof_C 	C 	0.85491	0.31267	0.51557	0.13
Mof_C 	C 	0.82268	0.34287	0.50987	-0.166
Mof_H 	H 	0.8141	0.3491	0.4896	0.09
Mof_C 	C 	0.80219	0.3647	0.53322	0.083
Mof_H 	H 	0.78	0.3862	0.529	0.022
Mof_C 	C 	0.81393	0.35535	0.56253	-0.139
Mof_C 	C 	0.8458	0.32482	0.56856	0.081
Mof_H 	H 	0.8538	0.3185	0.5889	0.017
Mof_C 	C 	0.86648	0.30317	0.54549	-0.163
Mof_H 	H 	0.8887	0.2817	0.5498	0.086
Mof_C 	C 	0.79164	0.38018	0.58783	0.362
Mof_O 	O 	0.76614	0.41015	0.57925	-0.472
Mof_O 	O 	0.79928	0.37012	0.61455	-0.309
Mof_N 	N 	0.90862	0.15003	0.39113	-0.211
Mof_N 	N 	0.83647	0.09977	0.39292	-0.224
Mof_Zn	Zn	0.22109	0.93928	0.6041	1.213
Mof_Zn	Zn	0.19589	0.01821	0.64896	1.202
Mof_O 	O 	0.23477	0.9614	0.64343	-0.664
Mof_C 	C 	0.8884	0.14688	0.42219	-0.001
Mof_C 	C 	0.9203	0.1116	0.3734	0.004
Mof_C 	C 	0.8697	0.16336	0.37115	0.006
Mof_C 	C 	0.8516	0.1091	0.42354	0.027
Mof_C 	C 	0.8201	0.1381	0.37581	-0.021
Mof_C 	C 	0.8774	0.0828	0.3744	0.011
Mof_C 	C 	0.8831	0.0759	0.3968	-0.012
Mof_C 	C 	0.8301	0.129	0.42	-0.023
Mof_C 	C 	0.8377	0.1198	0.3643	0.037
Mof_C 	C 	0.9273	0.1057	0.389	-0.006
Mof_Zn	Zn	0.46932	0.69288	0.39067	1.177
Mof_N 	N 	0.47896	0.69666	0.43689	-0.277
Mof_N 	N 	0.52444	0.6507	0.38918	-0.275
Mof_N 	N 	0.47414	0.69898	0.34414	-0.277
Mof_N 	N 	0.42937	0.74599	0.39174	-0.291
Mof_C 	C 	0.45273	0.72098	0.45618	0.09
Mof_C 	C 	0.46413	0.70985	0.48691	-0.069
Mof_H 	H 	0.4514	0.7223	0.5046	0.056
Mof_C 	C 	0.49535	0.6793	0.48614	-0.077
Mof_H 	H 	0.5088	0.6654	0.5031	0.059
Mof_C 	C 	0.5051	0.67099	0.45469	0.1
Mof_C 	C 	0.53631	0.63997	0.4439	-0.121
Mof_C 	C 	0.54571	0.6307	0.4134	0.096
Mof_C 	C 	0.57726	0.59932	0.40304	-0.074
Mof_H 	H 	0.5963	0.5814	0.4151	0.057
Mof_C 	C 	0.5747	0.6002	0.37225	-0.081
Mof_H 	H 	0.5918	0.5828	0.3587	0.061
Mof_C 	C 	0.54215	0.63154	0.36411	0.103
Mof_C 	C 	0.5291	0.64168	0.33429	-0.127
Mof_C 	C 	0.49821	0.67384	0.32517	0.103
Mof_C 	C 	0.48739	0.68451	0.29452	-0.083
Mof_H 	H 	0.4997	0.6715	0.2769	0.056
Mof_C 	C 	0.45669	0.71626	0.29517	-0.067
Mof_H 	H 	0.4437	0.7301	0.2781	0.051
Mof_C 	C 	0.44706	0.7255	0.32653	0.087
Mof_C 	C 	0.41628	0.75585	0.33734	-0.121
Mof_C 	C 	0.40712	0.76556	0.36801	0.081
Mof_C 	C 	0.37457	0.7955	0.37866	-0.076
Mof_H 	H 	0.3553	0.8132	0.3665	0.06
Mof_C 	C 	0.37556	0.79465	0.40903	-0.072
Mof_H 	H 	0.3573	0.8115	0.4223	0.058
Mof_C 	C 	0.40903	0.76394	0.41745	0.076
Mof_C 	C 	0.42065	0.75181	0.44719	-0.121
Mof_C 	C 	0.55946	0.61496	0.46615	0.058
Mof_C 	C 	0.57786	0.59518	0.4853	-0.086
Mof_C 	C 	0.60038	0.57253	0.5094	0.113
Mof_C 	C 	0.58962	0.58157	0.53967	-0.153
Mof_H 	H 	0.5661	0.6018	0.5445	0.086
Mof_C 	C 	0.61341	0.5609	0.56236	0.088
Mof_H 	H 	0.6071	0.568	0.5828	0.015
Mof_C 	C 	0.64574	0.53065	0.55626	-0.15
Mof_C 	C 	0.65558	0.52047	0.52633	0.082
Mof_H 	H 	0.6778	0.499	0.5221	0.021
Mof_C 	C 	0.63413	0.5406	0.50307	-0.151
Mof_H 	H 	0.6415	0.5335	0.4827	0.083
Mof_C 	C 	0.67186	0.5082	0.58123	0.405
Mof_O 	O 	0.66542	0.52217	0.60771	-0.518
Mof_O 	O 	0.69823	0.4788	0.57437	-0.5
Mof_C 	C 	0.54902	0.61689	0.31065	0.06
Mof_C 	C 	0.56436	0.59604	0.29099	-0.089
Mof_C 	C 	0.58521	0.57179	0.26739	0.115
Mof_C 	C 	0.6202	0.54435	0.27318	-0.142
Mof_H 	H 	0.6296	0.5395	0.2935	0.084
Mof_C 	C 	0.6427	0.52292	0.25009	0.057
Mof_H 	H 	0.668	0.5041	0.2545	0.039
Mof_C 	C 	0.6278	0.5293	0.22022	-0.104
Mof_C 	C 	0.5905	0.55583	0.21466	0.059
Mof_H 	H 	0.5795	0.5594	0.1945	0.03
Mof_C 	C 	0.56868	0.57727	0.23743	-0.14
Mof_H 	H 	0.5428	0.5956	0.2332	0.08
Mof_C 	C 	0.65403	0.50908	0.19435	0.321
Mof_O 	O 	0.69415	0.49057	0.19917	-0.387
Mof_O 	O 	0.63657	0.51194	0.16858	-0.411
Mof_C 	C 	0.39006	0.7804	0.3151	0.059
Mof_C 	C 	0.36795	0.8007	0.29755	-0.094
Mof_C 	C 	0.34286	0.82681	0.27751	0.132
Mof_C 	C 	0.3538	0.82883	0.24781	-0.161
Mof_H 	H 	0.3785	0.8116	0.2399	0.087
Mof_C 	C 	0.3297	0.85565	0.22844	0.077
Mof_H 	H 	0.3379	0.8563	0.2076	0.021
Mof_C 	C 	0.2948	0.8806	0.23914	-0.127
Mof_C 	C 	0.2847	0.87966	0.27037	0.077
Mof_H 	H 	0.2617	0.8982	0.2787	0.027
Mof_C 	C 	0.3073	0.8527	0.28858	-0.16
Mof_H 	H 	0.2987	0.8514	0.3094	0.087
Mof_C 	C 	0.2698	0.91041	0.21843	0.355
Mof_O 	O 	0.28046	0.91101	0.19155	-0.281
Mof_O 	O 	0.24184	0.93822	0.23288	-0.441
Mof_H 	H 	0.2238	0.95	0.2203	0.284
Mof_C 	C 	0.39653	0.77327	0.47087	0.062
Mof_C 	C 	0.37681	0.79095	0.49127	-0.093
Mof_C 	C 	0.35491	0.81267	0.51557	0.13
Mof_C 	C 	0.32268	0.84287	0.50987	-0.166
Mof_H 	H 	0.3141	0.8491	0.4896	0.09
Mof_C 	C 	0.30219	0.8647	0.53322	0.083
Mof_H 	H 	0.28	0.8862	0.529	0.022
Mof_C 	C 	0.31393	0.85535	0.56253	-0.139
Mof_C 	C 	0.3458	0.82482	0.56856	0.081
Mof_H 	H 	0.3538	0.8185	0.5889	0.017
Mof_C 	C 	0.36648	0.80317	0.54549	-0.163
Mof_H 	H 	0.3887	0.7817	0.5498	0.086
Mof_C 	C 	0.29164	0.88018	0.58783	0.362
Mof_O 	O 	0.26614	0.91015	0.57925	-0.472
Mof_O 	O 	0.29928	0.87012	0.61455	-0.309
Mof_N 	N 	0.40862	0.65003	0.39113	-0.211
Mof_N 	N 	0.33647	0.59977	0.39292	-0.224
Mof_Zn	Zn	0.72109	0.43928	0.6041	1.213
Mof_Zn	Zn	0.69589	0.51821	0.64896	1.202
Mof_O 	O 	0.73477	0.4614	0.64343	-0.664
Mof_C 	C 	0.3884	0.64688	0.42219	-0.001
Mof_C 	C 	0.4203	0.6116	0.3734	0.004
Mof_C 	C 	0.3697	0.66336	0.37115	0.006
Mof_C 	C 	0.3516	0.6091	0.42354	0.027
Mof_C 	C 	0.3201	0.6381	0.37581	-0.021
Mof_C 	C 	0.3774	0.5828	0.3744	0.011
Mof_C 	C 	0.3831	0.5759	0.3968	-0.012
Mof_C 	C 	0.3301	0.629	0.42	-0.023
Mof_C 	C 	0.3377	0.6198	0.3643	0.037
Mof_C 	C 	0.4273	0.6057	0.389	-0.006
Mof_Zn	Zn	0.53068	0.80712	0.39067	1.177
Mof_N 	N 	0.52104	0.80334	0.43689	-0.277
Mof_N 	N 	0.47556	0.8493	0.38918	-0.275
Mof_N 	N 	0.52586	0.80102	0.34414	-0.277
Mof_N 	N 	0.57063	0.75401	0.39174	-0.291
Mof_C 	C 	0.54727	0.77902	0.45618	0.09
Mof_C 	C 	0.53587	0.79015	0.48691	-0.069
Mof_H 	H 	0.5486	0.7777	0.5046	0.056
Mof_C 	C 	0.50465	0.8207	0.48614	-0.077
Mof_H 	H 	0.4912	0.8346	0.5031	0.059
Mof_C 	C 	0.4949	0.82901	0.45469	0.1
Mof_C 	C 	0.46369	0.86003	0.4439	-0.121
Mof_C 	C 	0.45429	0.8693	0.4134	0.096
Mof_C 	C 	0.42274	0.90068	0.40304	-0.074
Mof_H 	H 	0.4037	0.9186	0.4151	0.057
Mof_C 	C 	0.4253	0.8998	0.37225	-0.081
Mof_H 	H 	0.4082	0.9172	0.3587	0.061
Mof_C 	C 	0.45785	0.86846	0.36411	0.103
Mof_C 	C 	0.4709	0.85832	0.33429	-0.127
Mof_C 	C 	0.50179	0.82616	0.32517	0.103
Mof_C 	C 	0.51261	0.81549	0.29452	-0.083
Mof_H 	H 	0.5003	0.8285	0.2769	0.056
Mof_C 	C 	0.54331	0.78374	0.29517	-0.067
Mof_H 	H 	0.5563	0.7699	0.2781	0.051
Mof_C 	C 	0.55294	0.7745	0.32653	0.087
Mof_C 	C 	0.58372	0.74415	0.33734	-0.121
Mof_C 	C 	0.59288	0.73444	0.36801	0.081
Mof_C 	C 	0.62543	0.7045	0.37866	-0.076
Mof_H 	H 	0.6447	0.6868	0.3665	0.06
Mof_C 	C 	0.62444	0.70535	0.40903	-0.072
Mof_H 	H 	0.6427	0.6885	0.4223	0.058
Mof_C 	C 	0.59097	0.73606	0.41745	0.076
Mof_C 	C 	0.57935	0.74819	0.44719	-0.121
Mof_C 	C 	0.44054	0.88504	0.46615	0.058
Mof_C 	C 	0.42214	0.90482	0.4853	-0.086
Mof_C 	C 	0.39962	0.92747	0.5094	0.113
Mof_C 	C 	0.41038	0.91843	0.53967	-0.153
Mof_H 	H 	0.4339	0.8982	0.5445	0.086
Mof_C 	C 	0.38659	0.9391	0.56236	0.088
Mof_H 	H 	0.3929	0.932	0.5828	0.015
Mof_C 	C 	0.35426	0.96935	0.55626	-0.15
Mof_C 	C 	0.34442	0.97953	0.52633	0.082
Mof_H 	H 	0.3222	0.001	0.5221	0.021
Mof_C 	C 	0.36587	0.9594	0.50307	-0.151
Mof_H 	H 	0.3585	0.9665	0.4827	0.083
Mof_C 	C 	0.32814	0.9918	0.58123	0.405
Mof_O 	O 	0.33458	0.97783	0.60771	-0.518
Mof_O 	O 	0.30177	0.0212	0.57437	-0.5
Mof_C 	C 	0.45098	0.88311	0.31065	0.06
Mof_C 	C 	0.43564	0.90396	0.29099	-0.089
Mof_C 	C 	0.41479	0.92821	0.26739	0.115
Mof_C 	C 	0.3798	0.95565	0.27318	-0.142
Mof_H 	H 	0.3704	0.9605	0.2935	0.084
Mof_C 	C 	0.3573	0.97708	0.25009	0.057
Mof_H 	H 	0.332	0.9959	0.2545	0.039
Mof_C 	C 	0.3722	0.9707	0.22022	-0.104
Mof_C 	C 	0.4095	0.94417	0.21466	0.059
Mof_H 	H 	0.4205	0.9406	0.1945	0.03
Mof_C 	C 	0.43132	0.92273	0.23743	-0.14
Mof_H 	H 	0.4572	0.9044	0.2332	0.08
Mof_C 	C 	0.34597	0.99092	0.19435	0.321
Mof_O 	O 	0.30585	0.00943	0.19917	-0.387
Mof_O 	O 	0.36343	0.98806	0.16858	-0.411
Mof_C 	C 	0.60994	0.7196	0.3151	0.059
Mof_C 	C 	0.63205	0.6993	0.29755	-0.094
Mof_C 	C 	0.65714	0.67319	0.27751	0.132
Mof_C 	C 	0.6462	0.67117	0.24781	-0.161
Mof_H 	H 	0.6215	0.6884	0.2399	0.087
Mof_C 	C 	0.6703	0.64435	0.22844	0.077
Mof_H 	H 	0.6621	0.6437	0.2076	0.021
Mof_C 	C 	0.7052	0.6194	0.23914	-0.127
Mof_C 	C 	0.7153	0.62034	0.27037	0.077
Mof_H 	H 	0.7383	0.6018	0.2787	0.027
Mof_C 	C 	0.6927	0.6473	0.28858	-0.16
Mof_H 	H 	0.7013	0.6486	0.3094	0.087
Mof_C 	C 	0.7302	0.58959	0.21843	0.355
Mof_O 	O 	0.71954	0.58899	0.19155	-0.281
Mof_O 	O 	0.75816	0.56178	0.23288	-0.441
Mof_H 	H 	0.7762	0.55	0.2203	0.284
Mof_C 	C 	0.60347	0.72673	0.47087	0.062
Mof_C 	C 	0.62319	0.70905	0.49127	-0.093
Mof_C 	C 	0.64509	0.68733	0.51557	0.13
Mof_C 	C 	0.67732	0.65713	0.50987	-0.166
Mof_H 	H 	0.6859	0.6509	0.4896	0.09
Mof_C 	C 	0.69781	0.6353	0.53322	0.083
Mof_H 	H 	0.72	0.6138	0.529	0.022
Mof_C 	C 	0.68607	0.64465	0.56253	-0.139
Mof_C 	C 	0.6542	0.67518	0.56856	0.081
Mof_H 	H 	0.6462	0.6815	0.5889	0.017
Mof_C 	C 	0.63352	0.69683	0.54549	-0.163
Mof_H 	H 	0.6113	0.7183	0.5498	0.086
Mof_C 	C 	0.70836	0.61982	0.58783	0.362
Mof_O 	O 	0.73386	0.58985	0.57925	-0.472
Mof_O 	O 	0.70072	0.62988	0.61455	-0.309
Mof_N 	N 	0.59138	0.84997	0.39113	-0.211
Mof_N 	N 	0.66353	0.90023	0.39292	-0.224
Mof_Zn	Zn	0.27891	0.06072	0.6041	1.213
Mof_Zn	Zn	0.30411	0.98179	0.64896	1.202
Mof_O 	O 	0.26523	0.0386	0.64343	-0.664
Mof_C 	C 	0.6116	0.85312	0.42219	-0.001
Mof_C 	C 	0.5797	0.8884	0.3734	0.004
Mof_C 	C 	0.6303	0.83664	0.37115	0.006
Mof_C 	C 	0.6484	0.8909	0.42354	0.027
Mof_C 	C 	0.6799	0.8619	0.37581	-0.021
Mof_C 	C 	0.6226	0.9172	0.3744	0.011
Mof_C 	C 	0.6169	0.9241	0.3968	-0.012
Mof_C 	C 	0.6699	0.871	0.42	-0.023
Mof_C 	C 	0.6623	0.8802	0.3643	0.037
Mof_C 	C 	0.5727	0.8943	0.389	-0.006
Mof_Zn	Zn	0.03068	0.30712	0.39067	1.177
Mof_N 	N 	0.02104	0.30334	0.43689	-0.277
Mof_N 	N 	0.97556	0.3493	0.38918	-0.275
Mof_N 	N 	0.02586	0.30102	0.34414	-0.277
Mof_N 	N 	0.07063	0.25401	0.39174	-0.291
Mof_C 	C 	0.04727	0.27902	0.45618	0.09
Mof_C 	C 	0.03587	0.29015	0.48691	-0.069
Mof_H 	H 	0.0486	0.2777	0.5046	0.056
Mof_C 	C 	0.00465	0.3207	0.48614	-0.077
Mof_H 	H 	0.9912	0.3346	0.5031	0.059
Mof_C 	C 	0.9949	0.32901	0.45469	0.1
Mof_C 	C 	0.96369	0.36003	0.4439	-0.121
Mof_C 	C 	0.95429	0.3693	0.4134	0.096
Mof_C 	C 	0.92274	0.40068	0.40304	-0.074
Mof_H 	H 	0.9037	0.4186	0.4151	0.057
Mof_C 	C 	0.9253	0.3998	0.37225	-0.081
Mof_H 	H 	0.9082	0.4172	0.3587	0.061
Mof_C 	C 	0.95785	0.36846	0.36411	0.103
Mof_C 	C 	0.9709	0.35832	0.33429	-0.127
Mof_C 	C 	0.00179	0.32616	0.32517	0.103
Mof_C 	C 	0.01261	0.31549	0.29452	-0.083
Mof_H 	H 	0.0003	0.3285	0.2769	0.056
Mof_C 	C 	0.04331	0.28374	0.29517	-0.067
Mof_H 	H 	0.0563	0.2699	0.2781	0.051
Mof_C 	C 	0.05294	0.2745	0.32653	0.087
Mof_C 	C 	0.08372	0.24415	0.33734	-0.121
Mof_C 	C 	0.09288	0.23444	0.36801	0.081
Mof_C 	C 	0.12543	0.2045	0.37866	-0.076
Mof_H 	H 	0.1447	0.1868	0.3665	0.06
Mof_C 	C 	0.12444	0.20535	0.40903	-0.072
Mof_H 	H 	0.1427	0.1885	0.4223	0.058
Mof_C 	C 	0.09097	0.23606	0.41745	0.076
Mof_C 	C 	0.07935	0.24819	0.44719	-0.121
Mof_C 	C 	0.94054	0.38504	0.46615	0.058
Mof_C 	C 	0.92214	0.40482	0.4853	-0.086
Mof_C 	C 	0.89962	0.42747	0.5094	0.113
Mof_C 	C 	0.91038	0.41843	0.53967	-0.153
Mof_H 	H 	0.9339	0.3982	0.5445	0.086
Mof_C 	C 	0.88659	0.4391	0.56236	0.088
Mof_H 	H 	0.8929	0.432	0.5828	0.015
Mof_C 	C 	0.85426	0.46935	0.55626	-0.15
Mof_C 	C 	0.84442	0.47953	0.52633	0.082
Mof_H 	H 	0.8222	0.501	0.5221	0.021
Mof_C 	C 	0.86587	0.4594	0.50307	-0.151
Mof_H 	H 	0.8585	0.4665	0.4827	0.083
Mof_C 	C 	0.82814	0.4918	0.58123	0.405
Mof_O 	O 	0.83458	0.47783	0.60771	-0.518
Mof_O 	O 	0.80177	0.5212	0.57437	-0.5
Mof_C 	C 	0.95098	0.38311	0.31065	0.06
Mof_C 	C 	0.93564	0.40396	0.29099	-0.089
Mof_C 	C 	0.91479	0.42821	0.26739	0.115
Mof_C 	C 	0.8798	0.45565	0.27318	-0.142
Mof_H 	H 	0.8704	0.4605	0.2935	0.084
Mof_C 	C 	0.8573	0.47708	0.25009	0.057
Mof_H 	H 	0.832	0.4959	0.2545	0.039
Mof_C 	C 	0.8722	0.4707	0.22022	-0.104
Mof_C 	C 	0.9095	0.44417	0.21466	0.059
Mof_H 	H 	0.9205	0.4406	0.1945	0.03
Mof_C 	C 	0.93132	0.42273	0.23743	-0.14
Mof_H 	H 	0.9572	0.4044	0.2332	0.08
Mof_C 	C 	0.84597	0.49092	0.19435	0.321
Mof_O 	O 	0.80585	0.50943	0.19917	-0.387
Mof_O 	O 	0.86343	0.48806	0.16858	-0.411
Mof_C 	C 	0.10994	0.2196	0.3151	0.059
Mof_C 	C 	0.13205	0.1993	0.29755	-0.094
Mof_C 	C 	0.15714	0.17319	0.27751	0.132
Mof_C 	C 	0.1462	0.17117	0.24781	-0.161
Mof_H 	H 	0.1215	0.1884	0.2399	0.087
Mof_C 	C 	0.1703	0.14435	0.22844	0.077
Mof_H 	H 	0.1621	0.1437	0.2076	0.021
Mof_C 	C 	0.2052	0.1194	0.23914	-0.127
Mof_C 	C 	0.2153	0.12034	0.27037	0.077
Mof_H 	H 	0.2383	0.1018	0.2787	0.027
Mof_C 	C 	0.1927	0.1473	0.28858	-0.16
Mof_H 	H 	0.2013	0.1486	0.3094	0.087
Mof_C 	C 	0.2302	0.08959	0.21843	0.355
Mof_O 	O 	0.21954	0.08899	0.19155	-0.281
Mof_O 	O 	0.25816	0.06178	0.23288	-0.441
Mof_H 	H 	0.2762	0.05	0.2203	0.284
Mof_C 	C 	0.10347	0.22673	0.47087	0.062
Mof_C 	C 	0.12319	0.20905	0.49127	-0.093
Mof_C 	C 	0.14509	0.18733	0.51557	0.13
Mof_C 	C 	0.17732	0.15713	0.50987	-0.166
Mof_H 	H 	0.1859	0.1509	0.4896	0.09
Mof_C 	C 	0.19781	0.1353	0.53322	0.083
Mof_H 	H 	0.22	0.1138	0.529	0.022
Mof_C 	C 	0.18607	0.14465	0.56253	-0.139
Mof_C 	C 	0.1542	0.17518	0.56856	0.081
Mof_H 	H 	0.1462	0.1815	0.5889	0.017
Mof_C 	C 	0.13352	0.19683	0.54549	-0.163
Mof_H 	H 	0.1113	0.2183	0.5498	0.086
Mof_C 	C 	0.20836	0.11982	0.58783	0.362
Mof_O 	O 	0.23386	0.08985	0.57925	-0.472
Mof_O 	O 	0.20072	0.12988	0.61455	-0.309
Mof_N 	N 	0.09138	0.34997	0.39113	-0.211
Mof_N 	N 	0.16353	0.40023	0.39292	-0.224
Mof_Zn	Zn	0.77891	0.56072	0.6041	1.213
Mof_Zn	Zn	0.80411	0.48179	0.64896	1.202
Mof_O 	O 	0.76523	0.5386	0.64343	-0.664
Mof_C 	C 	0.1116	0.35312	0.42219	-0.001
Mof_C 	C 	0.0797	0.3884	0.3734	0.004
Mof_C 	C 	0.1303	0.33664	0.37115	0.006
Mof_C 	C 	0.1484	0.3909	0.42354	0.027
Mof_C 	C 	0.1799	0.3619	0.37581	-0.021
Mof_C 	C 	0.1226	0.4172	0.3744	0.011
Mof_C 	C 	0.1169	0.4241	0.3968	-0.012
Mof_C 	C 	0.1699	0.371	0.42	-0.023
Mof_C 	C 	0.1623	0.3802	0.3643	0.037
Mof_C 	C 	0.0727	0.3943	0.389	-0.006
Mof_Zn	Zn	0.96932	0.80712	0.89067	1.177
Mof_N 	N 	0.97896	0.80334	0.93689	-0.277
Mof_N 	N 	0.02444	0.8493	0.88918	-0.275
Mof_N 	N 	0.97414	0.80102	0.84414	-0.277
Mof_N 	N 	0.92937	0.75401	0.89174	-0.291
Mof_C 	C 	0.95273	0.77902	0.95618	0.09
Mof_C 	C 	0.96413	0.79015	0.98691	-0.069
Mof_H 	H 	0.9514	0.7777	0.0046	0.056
Mof_C 	C 	0.99535	0.8207	0.98614	-0.077
Mof_H 	H 	0.0088	0.8346	0.0031	0.059
Mof_C 	C 	0.0051	0.82901	0.95469	0.1
Mof_C 	C 	0.03631	0.86003	0.9439	-0.121
Mof_C 	C 	0.04571	0.8693	0.9134	0.096
Mof_C 	C 	0.07726	0.90068	0.90304	-0.074
Mof_H 	H 	0.0963	0.9186	0.9151	0.057
Mof_C 	C 	0.0747	0.8998	0.87225	-0.081
Mof_H 	H 	0.0918	0.9172	0.8587	0.061
Mof_C 	C 	0.04215	0.86846	0.86411	0.103
Mof_C 	C 	0.0291	0.85832	0.83429	-0.127
Mof_C 	C 	0.99821	0.82616	0.82517	0.103
Mof_C 	C 	0.98739	0.81549	0.79452	-0.083
Mof_H 	H 	0.9997	0.8285	0.7769	0.056
Mof_C 	C 	0.95669	0.78374	0.79517	-0.067
Mof_H 	H 	0.9437	0.7699	0.7781	0.051
Mof_C 	C 	0.94706	0.7745	0.82653	0.087
Mof_C 	C 	0.91628	0.74415	0.83734	-0.121
Mof_C 	C 	0.90712	0.73444	0.86801	0.081
Mof_C 	C 	0.87457	0.7045	0.87866	-0.076
Mof_H 	H 	0.8553	0.6868	0.8665	0.06
Mof_C 	C 	0.87556	0.70535	0.90903	-0.072
Mof_H 	H 	0.8573	0.6885	0.9223	0.058
Mof_C 	C 	0.90903	0.73606	0.91745	0.076
Mof_C 	C 	0.92065	0.74819	0.94719	-0.121
Mof_C 	C 	0.05946	0.88504	0.96615	0.058
Mof_C 	C 	0.07786	0.90482	0.9853	-0.086
Mof_C 	C 	0.10038	0.92747	0.0094	0.113
Mof_C 	C 	0.08962	0.91843	0.03967	-0.153
Mof_H 	H 	0.0661	0.8982	0.0445	0.086
Mof_C 	C 	0.11341	0.9391	0.06236	0.088
Mof_H 	H 	0.1071	0.932	0.0828	0.015
Mof_C 	C 	0.14574	0.96935	0.05626	-0.15
Mof_C 	C 	0.15558	0.97953	0.02633	0.082
Mof_H 	H 	0.1778	0.001	0.0221	0.021
Mof_C 	C 	0.13413	0.9594	0.00307	-0.151
Mof_H 	H 	0.1415	0.9665	0.9827	0.083
Mof_C 	C 	0.17186	0.9918	0.08123	0.405
Mof_O 	O 	0.16542	0.97783	0.10771	-0.518
Mof_O 	O 	0.19823	0.0212	0.07437	-0.5
Mof_C 	C 	0.04902	0.88311	0.81065	0.06
Mof_C 	C 	0.06436	0.90396	0.79099	-0.089
Mof_C 	C 	0.08521	0.92821	0.76739	0.115
Mof_C 	C 	0.1202	0.95565	0.77318	-0.142
Mof_H 	H 	0.1296	0.9605	0.7935	0.084
Mof_C 	C 	0.1427	0.97708	0.75009	0.057
Mof_H 	H 	0.168	0.9959	0.7545	0.039
Mof_C 	C 	0.1278	0.9707	0.72022	-0.104
Mof_C 	C 	0.0905	0.94417	0.71466	0.059
Mof_H 	H 	0.0795	0.9406	0.6945	0.03
Mof_C 	C 	0.06868	0.92273	0.73743	-0.14
Mof_H 	H 	0.0428	0.9044	0.7332	0.08
Mof_C 	C 	0.15403	0.99092	0.69435	0.321
Mof_O 	O 	0.19415	0.00943	0.69917	-0.387
Mof_O 	O 	0.13657	0.98806	0.66858	-0.411
Mof_C 	C 	0.89006	0.7196	0.8151	0.059
Mof_C 	C 	0.86795	0.6993	0.79755	-0.094
Mof_C 	C 	0.84286	0.67319	0.77751	0.132
Mof_C 	C 	0.8538	0.67117	0.74781	-0.161
Mof_H 	H 	0.8785	0.6884	0.7399	0.087
Mof_C 	C 	0.8297	0.64435	0.72844	0.077
Mof_H 	H 	0.8379	0.6437	0.7076	0.021
Mof_C 	C 	0.7948	0.6194	0.73914	-0.127
Mof_C 	C 	0.7847	0.62034	0.77037	0.077
Mof_H 	H 	0.7617	0.6018	0.7787	0.027
Mof_C 	C 	0.8073	0.6473	0.78858	-0.16
Mof_H 	H 	0.7987	0.6486	0.8094	0.087
Mof_C 	C 	0.7698	0.58959	0.71843	0.355
Mof_O 	O 	0.78046	0.58899	0.69155	-0.281
Mof_O 	O 	0.74184	0.56178	0.73288	-0.441
Mof_H 	H 	0.7238	0.55	0.7203	0.284
Mof_C 	C 	0.89653	0.72673	0.97087	0.062
Mof_C 	C 	0.87681	0.70905	0.99127	-0.093
Mof_C 	C 	0.85491	0.68733	0.01557	0.13
Mof_C 	C 	0.82268	0.65713	0.00987	-0.166
Mof_H 	H 	0.8141	0.6509	0.9896	0.09
Mof_C 	C 	0.80219	0.6353	0.03322	0.083
Mof_H 	H 	0.78	0.6138	0.029	0.022
Mof_C 	C 	0.81393	0.64465	0.06253	-0.139
Mof_C 	C 	0.8458	0.67518	0.06856	0.081
Mof_H 	H 	0.8538	0.6815	0.0889	0.017
Mof_C 	C 	0.86648	0.69683	0.04549	-0.163
Mof_H 	H 	0.8887	0.7183	0.0498	0.086
Mof_C 	C 	0.79164	0.61982	0.08783	0.362
Mof_O 	O 	0.76614	0.58985	0.07925	-0.472
Mof_O 	O 	0.79928	0.62988	0.11455	-0.309
Mof_N 	N 	0.90862	0.84997	0.89113	-0.211
Mof_N 	N 	0.83647	0.90023	0.89292	-0.224
Mof_Zn	Zn	0.22109	0.06072	0.1041	1.213
Mof_Zn	Zn	0.19589	0.98179	0.14896	1.202
Mof_O 	O 	0.23477	0.0386	0.14343	-0.664
Mof_C 	C 	0.8884	0.85312	0.92219	-0.001
Mof_C 	C 	0.9203	0.8884	0.8734	0.004
Mof_C 	C 	0.8697	0.83664	0.87115	0.006
Mof_C 	C 	0.8516	0.8909	0.92354	0.027
Mof_C 	C 	0.8201	0.8619	0.87581	-0.021
Mof_C 	C 	0.8774	0.9172	0.8744	0.011
Mof_C 	C 	0.8831	0.9241	0.8968	-0.012
Mof_C 	C 	0.8301	0.871	0.92	-0.023
Mof_C 	C 	0.8377	0.8802	0.8643	0.037
Mof_C 	C 	0.9273	0.8943	0.889	-0.006
Mof_Zn	Zn	0.46932	0.30712	0.89067	1.177
Mof_N 	N 	0.47896	0.30334	0.93689	-0.277
Mof_N 	N 	0.52444	0.3493	0.88918	-0.275
Mof_N 	N 	0.47414	0.30102	0.84414	-0.277
Mof_N 	N 	0.42937	0.25401	0.89174	-0.291
Mof_C 	C 	0.45273	0.27902	0.95618	0.09
Mof_C 	C 	0.46413	0.29015	0.98691	-0.069
Mof_H 	H 	0.4514	0.2777	0.0046	0.056
Mof_C 	C 	0.49535	0.3207	0.98614	-0.077
Mof_H 	H 	0.5088	0.3346	0.0031	0.059
Mof_C 	C 	0.5051	0.32901	0.95469	0.1
Mof_C 	C 	0.53631	0.36003	0.9439	-0.121
Mof_C 	C 	0.54571	0.3693	0.9134	0.096
Mof_C 	C 	0.57726	0.40068	0.90304	-0.074
Mof_H 	H 	0.5963	0.4186	0.9151	0.057
Mof_C 	C 	0.5747	0.3998	0.87225	-0.081
Mof_H 	H 	0.5918	0.4172	0.8587	0.061
Mof_C 	C 	0.54215	0.36846	0.86411	0.103
Mof_C 	C 	0.5291	0.35832	0.83429	-0.127
Mof_C 	C 	0.49821	0.32616	0.82517	0.103
Mof_C 	C 	0.48739	0.31549	0.79452	-0.083
Mof_H 	H 	0.4997	0.3285	0.7769	0.056
Mof_C 	C 	0.45669	0.28374	0.79517	-0.067
Mof_H 	H 	0.4437	0.2699	0.7781	0.051
Mof_C 	C 	0.44706	0.2745	0.82653	0.087
Mof_C 	C 	0.41628	0.24415	0.83734	-0.121
Mof_C 	C 	0.40712	0.23444	0.86801	0.081
Mof_C 	C 	0.37457	0.2045	0.87866	-0.076
Mof_H 	H 	0.3553	0.1868	0.8665	0.06
Mof_C 	C 	0.37556	0.20535	0.90903	-0.072
Mof_H 	H 	0.3573	0.1885	0.9223	0.058
Mof_C 	C 	0.40903	0.23606	0.91745	0.076
Mof_C 	C 	0.42065	0.24819	0.94719	-0.121
Mof_C 	C 	0.55946	0.38504	0.96615	0.058
Mof_C 	C 	0.57786	0.40482	0.9853	-0.086
Mof_C 	C 	0.60038	0.42747	0.0094	0.113
Mof_C 	C 	0.58962	0.41843	0.03967	-0.153
Mof_H 	H 	0.5661	0.3982	0.0445	0.086
Mof_C 	C 	0.61341	0.4391	0.06236	0.088
Mof_H 	H 	0.6071	0.432	0.0828	0.015
Mof_C 	C 	0.64574	0.46935	0.05626	-0.15
Mof_C 	C 	0.65558	0.47953	0.02633	0.082
Mof_H 	H 	0.6778	0.501	0.0221	0.021
Mof_C 	C 	0.63413	0.4594	0.00307	-0.151
Mof_H 	H 	0.6415	0.4665	0.9827	0.083
Mof_C 	C 	0.67186	0.4918	0.08123	0.405
Mof_O 	O 	0.66542	0.47783	0.10771	-0.518
Mof_O 	O 	0.69823	0.5212	0.07437	-0.5
Mof_C 	C 	0.54902	0.38311	0.81065	0.06
Mof_C 	C 	0.56436	0.40396	0.79099	-0.089
Mof_C 	C 	0.58521	0.42821	0.76739	0.115
Mof_C 	C 	0.6202	0.45565	0.77318	-0.142
Mof_H 	H 	0.6296	0.4605	0.7935	0.084
Mof_C 	C 	0.6427	0.47708	0.75009	0.057
Mof_H 	H 	0.668	0.4959	0.7545	0.039
Mof_C 	C 	0.6278	0.4707	0.72022	-0.104
Mof_C 	C 	0.5905	0.44417	0.71466	0.059
Mof_H 	H 	0.5795	0.4406	0.6945	0.03
Mof_C 	C 	0.56868	0.42273	0.73743	-0.14
Mof_H 	H 	0.5428	0.4044	0.7332	0.08
Mof_C 	C 	0.65403	0.49092	0.69435	0.321
Mof_O 	O 	0.69415	0.50943	0.69917	-0.387
Mof_O 	O 	0.63657	0.48806	0.66858	-0.411
Mof_C 	C 	0.39006	0.2196	0.8151	0.059
Mof_C 	C 	0.36795	0.1993	0.79755	-0.094
Mof_C 	C 	0.34286	0.17319	0.77751	0.132
Mof_C 	C 	0.3538	0.17117	0.74781	-0.161
Mof_H 	H 	0.3785	0.1884	0.7399	0.087
Mof_C 	C 	0.3297	0.14435	0.72844	0.077
Mof_H 	H 	0.3379	0.1437	0.7076	0.021
Mof_C 	C 	0.2948	0.1194	0.73914	-0.127
Mof_C 	C 	0.2847	0.12034	0.77037	0.077
Mof_H 	H 	0.2617	0.1018	0.7787	0.027
Mof_C 	C 	0.3073	0.1473	0.78858	-0.16
Mof_H 	H 	0.2987	0.1486	0.8094	0.087
Mof_C 	C 	0.2698	0.08959	0.71843	0.355
Mof_O 	O 	0.28046	0.08899	0.69155	-0.281
Mof_O 	O 	0.24184	0.06178	0.73288	-0.441
Mof_H 	H 	0.2238	0.05	0.7203	0.284
Mof_C 	C 	0.39653	0.22673	0.97087	0.062
Mof_C 	C 	0.37681	0.20905	0.99127	-0.093
Mof_C 	C 	0.35491	0.18733	0.01557	0.13
Mof_C 	C 	0.32268	0.15713	0.00987	-0.166
Mof_H 	H 	0.3141	0.1509	0.9896	0.09
Mof_C 	C 	0.30219	0.1353	0.03322	0.083
Mof_H 	H 	0.28	0.1138	0.029	0.022
Mof_C 	C 	0.31393	0.14465	0.06253	-0.139
Mof_C 	C 	0.3458	0.17518	0.06856	0.081
Mof_H 	H 	0.3538	0.1815	0.0889	0.017
Mof_C 	C 	0.36648	0.19683	0.04549	-0.163
Mof_H 	H 	0.3887	0.2183	0.0498	0.086
Mof_C 	C 	0.29164	0.11982	0.08783	0.362
Mof_O 	O 	0.26614	0.08985	0.07925	-0.472
Mof_O 	O 	0.29928	0.12988	0.11455	-0.309
Mof_N 	N 	0.40862	0.34997	0.89113	-0.211
Mof_N 	N 	0.33647	0.40023	0.89292	-0.224
Mof_Zn	Zn	0.72109	0.56072	0.1041	1.213
Mof_Zn	Zn	0.69589	0.48179	0.14896	1.202
Mof_O 	O 	0.73477	0.5386	0.14343	-0.664
Mof_C 	C 	0.3884	0.35312	0.92219	-0.001
Mof_C 	C 	0.4203	0.3884	0.8734	0.004
Mof_C 	C 	0.3697	0.33664	0.87115	0.006
Mof_C 	C 	0.3516	0.3909	0.92354	0.027
Mof_C 	C 	0.3201	0.3619	0.87581	-0.021
Mof_C 	C 	0.3774	0.4172	0.8744	0.011
Mof_C 	C 	0.3831	0.4241	0.8968	-0.012
Mof_C 	C 	0.3301	0.371	0.92	-0.023
Mof_C 	C 	0.3377	0.3802	0.8643	0.037
Mof_C 	C 	0.4273	0.3943	0.889	-0.006
Mof_Zn	Zn	0.53068	0.19288	0.89067	1.177
Mof_N 	N 	0.52104	0.19666	0.93689	-0.277
Mof_N 	N 	0.47556	0.1507	0.88918	-0.275
Mof_N 	N 	0.52586	0.19898	0.84414	-0.277
Mof_N 	N 	0.57063	0.24599	0.89174	-0.291
Mof_C 	C 	0.54727	0.22098	0.95618	0.09
Mof_C 	C 	0.53587	0.20985	0.98691	-0.069
Mof_H 	H 	0.5486	0.2223	0.0046	0.056
Mof_C 	C 	0.50465	0.1793	0.98614	-0.077
Mof_H 	H 	0.4912	0.1654	0.0031	0.059
Mof_C 	C 	0.4949	0.17099	0.95469	0.1
Mof_C 	C 	0.46369	0.13997	0.9439	-0.121
Mof_C 	C 	0.45429	0.1307	0.9134	0.096
Mof_C 	C 	0.42274	0.09932	0.90304	-0.074
Mof_H 	H 	0.4037	0.0814	0.9151	0.057
Mof_C 	C 	0.4253	0.1002	0.87225	-0.081
Mof_H 	H 	0.4082	0.0828	0.8587	0.061
Mof_C 	C 	0.45785	0.13154	0.86411	0.103
Mof_C 	C 	0.4709	0.14168	0.83429	-0.127
Mof_C 	C 	0.50179	0.17384	0.82517	0.103
Mof_C 	C 	0.51261	0.18451	0.79452	-0.083
Mof_H 	H 	0.5003	0.1715	0.7769	0.056
Mof_C 	C 	0.54331	0.21626	0.79517	-0.067
Mof_H 	H 	0.5563	0.2301	0.7781	0.051
Mof_C 	C 	0.55294	0.2255	0.82653	0.087
Mof_C 	C 	0.58372	0.25585	0.83734	-0.121
Mof_C 	C 	0.59288	0.26556	0.86801	0.081
Mof_C 	C 	0.62543	0.2955	0.87866	-0.076
Mof_H 	H 	0.6447	0.3132	0.8665	0.06
Mof_C 	C 	0.62444	0.29465	0.90903	-0.072
Mof_H 	H 	0.6427	0.3115	0.9223	0.058
Mof_C 	C 	0.59097	0.26394	0.91745	0.076
Mof_C 	C 	0.57935	0.25181	0.94719	-0.121
Mof_C 	C 	0.44054	0.11496	0.96615	0.058
Mof_C 	C 	0.42214	0.09518	0.9853	-0.086
Mof_C 	C 	0.39962	0.07253	0.0094	0.113
Mof_C 	C 	0.41038	0.08157	0.03967	-0.153
Mof_H 	H 	0.4339	0.1018	0.0445	0.086
Mof_C 	C 	0.38659	0.0609	0.06236	0.088
Mof_H 	H 	0.3929	0.068	0.0828	0.015
Mof_C 	C 	0.35426	0.03065	0.05626	-0.15
Mof_C 	C 	0.34442	0.02047	0.02633	0.082
Mof_H 	H 	0.3222	0.999	0.0221	0.021
Mof_C 	C 	0.36587	0.0406	0.00307	-0.151
Mof_H 	H 	0.3585	0.0335	0.9827	0.083
Mof_C 	C 	0.32814	0.0082	0.08123	0.405
Mof_O 	O 	0.33458	0.02217	0.10771	-0.518
Mof_O 	O 	0.30177	0.9788	0.07437	-0.5
Mof_C 	C 	0.45098	0.11689	0.81065	0.06
Mof_C 	C 	0.43564	0.09604	0.79099	-0.089
Mof_C 	C 	0.41479	0.07179	0.76739	0.115
Mof_C 	C 	0.3798	0.04435	0.77318	-0.142
Mof_H 	H 	0.3704	0.0395	0.7935	0.084
Mof_C 	C 	0.3573	0.02292	0.75009	0.057
Mof_H 	H 	0.332	0.0041	0.7545	0.039
Mof_C 	C 	0.3722	0.0293	0.72022	-0.104
Mof_C 	C 	0.4095	0.05583	0.71466	0.059
Mof_H 	H 	0.4205	0.0594	0.6945	0.03
Mof_C 	C 	0.43132	0.07727	0.73743	-0.14
Mof_H 	H 	0.4572	0.0956	0.7332	0.08
Mof_C 	C 	0.34597	0.00908	0.69435	0.321
Mof_O 	O 	0.30585	0.99057	0.69917	-0.387
Mof_O 	O 	0.36343	0.01194	0.66858	-0.411
Mof_C 	C 	0.60994	0.2804	0.8151	0.059
Mof_C 	C 	0.63205	0.3007	0.79755	-0.094
Mof_C 	C 	0.65714	0.32681	0.77751	0.132
Mof_C 	C 	0.6462	0.32883	0.74781	-0.161
Mof_H 	H 	0.6215	0.3116	0.7399	0.087
Mof_C 	C 	0.6703	0.35565	0.72844	0.077
Mof_H 	H 	0.6621	0.3563	0.7076	0.021
Mof_C 	C 	0.7052	0.3806	0.73914	-0.127
Mof_C 	C 	0.7153	0.37966	0.77037	0.077
Mof_H 	H 	0.7383	0.3982	0.7787	0.027
Mof_C 	C 	0.6927	0.3527	0.78858	-0.16
Mof_H 	H 	0.7013	0.3514	0.8094	0.087
Mof_C 	C 	0.7302	0.41041	0.71843	0.355
Mof_O 	O 	0.71954	0.41101	0.69155	-0.281
Mof_O 	O 	0.75816	0.43822	0.73288	-0.441
Mof_H 	H 	0.7762	0.45	0.7203	0.284
Mof_C 	C 	0.60347	0.27327	0.97087	0.062
Mof_C 	C 	0.62319	0.29095	0.99127	-0.093
Mof_C 	C 	0.64509	0.31267	0.01557	0.13
Mof_C 	C 	0.67732	0.34287	0.00987	-0.166
Mof_H 	H 	0.6859	0.3491	0.9896	0.09
Mof_C 	C 	0.69781	0.3647	0.03322	0.083
Mof_H 	H 	0.72	0.3862	0.029	0.022
Mof_C 	C 	0.68607	0.35535	0.06253	-0.139
Mof_C 	C 	0.6542	0.32482	0.06856	0.081
Mof_H 	H 	0.6462	0.3185	0.0889	0.017
Mof_C 	C 	0.63352	0.30317	0.04549	-0.163
Mof_H 	H 	0.6113	0.2817	0.0498	0.086
Mof_C 	C 	0.70836	0.38018	0.08783	0.362
Mof_O 	O 	0.73386	0.41015	0.07925	-0.472
Mof_O 	O 	0.70072	0.37012	0.11455	-0.309
Mof_N 	N 	0.59138	0.15003	0.89113	-0.211
Mof_N 	N 	0.66353	0.09977	0.89292	-0.224
Mof_Zn	Zn	0.27891	0.93928	0.1041	1.213
Mof_Zn	Zn	0.30411	0.01821	0.14896	1.202
Mof_O 	O 	0.26523	0.9614	0.14343	-0.664
Mof_C 	C 	0.6116	0.14688	0.92219	-0.001
Mof_C 	C 	0.5797	0.1116	0.8734	0.004
Mof_C 	C 	0.6303	0.16336	0.87115	0.006
Mof_C 	C 	0.6484	0.1091	0.92354	0.027
Mof_C 	C 	0.6799	0.1381	0.87581	-0.021
Mof_C 	C 	0.6226	0.0828	0.8744	0.011
Mof_C 	C 	0.6169	0.0759	0.8968	-0.012
Mof_C 	C 	0.6699	0.129	0.92	-0.023
Mof_C 	C 	0.6623	0.1198	0.8643	0.037
Mof_C 	C 	0.5727	0.1057	0.889	-0.006
Mof_Zn	Zn	0.03068	0.69288	0.89067	1.177
Mof_N 	N 	0.02104	0.69666	0.93689	-0.277
Mof_N 	N 	0.97556	0.6507	0.88918	-0.275
Mof_N 	N 	0.02586	0.69898	0.84414	-0.277
Mof_N 	N 	0.07063	0.74599	0.89174	-0.291
Mof_C 	C 	0.04727	0.72098	0.95618	0.09
Mof_C 	C 	0.03587	0.70985	0.98691	-0.069
Mof_H 	H 	0.0486	0.7223	0.0046	0.056
Mof_C 	C 	0.00465	0.6793	0.98614	-0.077
Mof_H 	H 	0.9912	0.6654	0.0031	0.059
Mof_C 	C 	0.9949	0.67099	0.95469	0.1
Mof_C 	C 	0.96369	0.63997	0.9439	-0.121
Mof_C 	C 	0.95429	0.6307	0.9134	0.096
Mof_C 	C 	0.92274	0.59932	0.90304	-0.074
Mof_H 	H 	0.9037	0.5814	0.9151	0.057
Mof_C 	C 	0.9253	0.6002	0.87225	-0.081
Mof_H 	H 	0.9082	0.5828	0.8587	0.061
Mof_C 	C 	0.95785	0.63154	0.86411	0.103
Mof_C 	C 	0.9709	0.64168	0.83429	-0.127
Mof_C 	C 	0.00179	0.67384	0.82517	0.103
Mof_C 	C 	0.01261	0.68451	0.79452	-0.083
Mof_H 	H 	0.0003	0.6715	0.7769	0.056
Mof_C 	C 	0.04331	0.71626	0.79517	-0.067
Mof_H 	H 	0.0563	0.7301	0.7781	0.051
Mof_C 	C 	0.05294	0.7255	0.82653	0.087
Mof_C 	C 	0.08372	0.75585	0.83734	-0.121
Mof_C 	C 	0.09288	0.76556	0.86801	0.081
Mof_C 	C 	0.12543	0.7955	0.87866	-0.076
Mof_H 	H 	0.1447	0.8132	0.8665	0.06
Mof_C 	C 	0.12444	0.79465	0.90903	-0.072
Mof_H 	H 	0.1427	0.8115	0.9223	0.058
Mof_C 	C 	0.09097	0.76394	0.91745	0.076
Mof_C 	C 	0.07935	0.75181	0.94719	-0.121
Mof_C 	C 	0.94054	0.61496	0.96615	0.058
Mof_C 	C 	0.92214	0.59518	0.9853	-0.086
Mof_C 	C 	0.89962	0.57253	0.0094	0.113
Mof_C 	C 	0.91038	0.58157	0.03967	-0.153
Mof_H 	H 	0.9339	0.6018	0.0445	0.086
Mof_C 	C 	0.88659	0.5609	0.06236	0.088
Mof_H 	H 	0.8929	0.568	0.0828	0.015
Mof_C 	C 	0.85426	0.53065	0.05626	-0.15
Mof_C 	C 	0.84442	0.52047	0.02633	0.082
Mof_H 	H 	0.8222	0.499	0.0221	0.021
Mof_C 	C 	0.86587	0.5406	0.00307	-0.151
Mof_H 	H 	0.8585	0.5335	0.9827	0.083
Mof_C 	C 	0.82814	0.5082	0.08123	0.405
Mof_O 	O 	0.83458	0.52217	0.10771	-0.518
Mof_O 	O 	0.80177	0.4788	0.07437	-0.5
Mof_C 	C 	0.95098	0.61689	0.81065	0.06
Mof_C 	C 	0.93564	0.59604	0.79099	-0.089
Mof_C 	C 	0.91479	0.57179	0.76739	0.115
Mof_C 	C 	0.8798	0.54435	0.77318	-0.142
Mof_H 	H 	0.8704	0.5395	0.7935	0.084
Mof_C 	C 	0.8573	0.52292	0.75009	0.057
Mof_H 	H 	0.832	0.5041	0.7545	0.039
Mof_C 	C 	0.8722	0.5293	0.72022	-0.104
Mof_C 	C 	0.9095	0.55583	0.71466	0.059
Mof_H 	H 	0.9205	0.5594	0.6945	0.03
Mof_C 	C 	0.93132	0.57727	0.73743	-0.14
Mof_H 	H 	0.9572	0.5956	0.7332	0.08
Mof_C 	C 	0.84597	0.50908	0.69435	0.321
Mof_O 	O 	0.80585	0.49057	0.69917	-0.387
Mof_O 	O 	0.86343	0.51194	0.66858	-0.411
Mof_C 	C 	0.10994	0.7804	0.8151	0.059
Mof_C 	C 	0.13205	0.8007	0.79755	-0.094
Mof_C 	C 	0.15714	0.82681	0.77751	0.132
Mof_C 	C 	0.1462	0.82883	0.74781	-0.161
Mof_H 	H 	0.1215	0.8116	0.7399	0.087
Mof_C 	C 	0.1703	0.85565	0.72844	0.077
Mof_H 	H 	0.1621	0.8563	0.7076	0.021
Mof_C 	C 	0.2052	0.8806	0.73914	-0.127
Mof_C 	C 	0.2153	0.87966	0.77037	0.077
Mof_H 	H 	0.2383	0.8982	0.7787	0.027
Mof_C 	C 	0.1927	0.8527	0.78858	-0.16
Mof_H 	H 	0.2013	0.8514	0.8094	0.087
Mof_C 	C 	0.2302	0.91041	0.71843	0.355
Mof_O 	O 	0.21954	0.91101	0.69155	-0.281
Mof_O 	O 	0.25816	0.93822	0.73288	-0.441
Mof_H 	H 	0.2762	0.95	0.7203	0.284
Mof_C 	C 	0.10347	0.77327	0.97087	0.062
Mof_C 	C 	0.12319	0.79095	0.99127	-0.093
Mof_C 	C 	0.14509	0.81267	0.01557	0.13
Mof_C 	C 	0.17732	0.84287	0.00987	-0.166
Mof_H 	H 	0.1859	0.8491	0.9896	0.09
Mof_C 	C 	0.19781	0.8647	0.03322	0.083
Mof_H 	H 	0.22	0.8862	0.029	0.022
Mof_C 	C 	0.18607	0.85535	0.06253	-0.139
Mof_C 	C 	0.1542	0.82482	0.06856	0.081
Mof_H 	H 	0.1462	0.8185	0.0889	0.017
Mof_C 	C 	0.13352	0.80317	0.04549	-0.163
Mof_H 	H 	0.1113	0.7817	0.0498	0.086
Mof_C 	C 	0.20836	0.88018	0.08783	0.362
Mof_O 	O 	0.23386	0.91015	0.07925	-0.472
Mof_O 	O 	0.20072	0.87012	0.11455	-0.309
Mof_N 	N 	0.09138	0.65003	0.89113	-0.211
Mof_N 	N 	0.16353	0.59977	0.89292	-0.224
Mof_Zn	Zn	0.77891	0.43928	0.1041	1.213
Mof_Zn	Zn	0.80411	0.51821	0.14896	1.202
Mof_O 	O 	0.76523	0.4614	0.14343	-0.664
Mof_C 	C 	0.1116	0.64688	0.92219	-0.001
Mof_C 	C 	0.0797	0.6116	0.8734	0.004
Mof_C 	C 	0.1303	0.66336	0.87115	0.006
Mof_C 	C 	0.1484	0.6091	0.92354	0.027
Mof_C 	C 	0.1799	0.6381	0.87581	-0.021
Mof_C 	C 	0.1226	0.5828	0.8744	0.011
Mof_C 	C 	0.1169	0.5759	0.8968	-0.012
Mof_C 	C 	0.1699	0.629	0.92	-0.023
Mof_C 	C 	0.1623	0.6198	0.8643	0.037
Mof_C 	C 	0.0727	0.6057	0.889	-0.006
Mof_Zn	Zn	0.03068	0.80712	0.60933	1.177
Mof_N 	N 	0.02104	0.80334	0.56311	-0.277
Mof_N 	N 	0.97556	0.8493	0.61082	-0.275
Mof_N 	N 	0.02586	0.80102	0.65586	-0.277
Mof_N 	N 	0.07063	0.75401	0.60826	-0.291
Mof_C 	C 	0.04727	0.77902	0.54382	0.09
Mof_C 	C 	0.03587	0.79015	0.51309	-0.069
Mof_H 	H 	0.0486	0.7777	0.4954	0.056
Mof_C 	C 	0.00465	0.8207	0.51386	-0.077
Mof_H 	H 	0.9912	0.8346	0.4969	0.059
Mof_C 	C 	0.9949	0.82901	0.54531	0.1
Mof_C 	C 	0.96369	0.86003	0.5561	-0.121
Mof_C 	C 	0.95429	0.8693	0.5866	0.096
Mof_C 	C 	0.92274	0.90068	0.59696	-0.074
Mof_H 	H 	0.9037	0.9186	0.5849	0.057
Mof_C 	C 	0.9253	0.8998	0.62775	-0.081
Mof_H 	H 	0.9082	0.9172	0.6413	0.061
Mof_C 	C 	0.95785	0.86846	0.63589	0.103
Mof_C 	C 	0.9709	0.85832	0.66571	-0.127
Mof_C 	C 	0.00179	0.82616	0.67483	0.103
Mof_C 	C 	0.01261	0.81549	0.70548	-0.083
Mof_H 	H 	0.0003	0.8285	0.7231	0.056
Mof_C 	C 	0.04331	0.78374	0.70483	-0.067
Mof_H 	H 	0.0563	0.7699	0.7219	0.051
Mof_C 	C 	0.05294	0.7745	0.67347	0.087
Mof_C 	C 	0.08372	0.74415	0.66266	-0.121
Mof_C 	C 	0.09288	0.73444	0.63199	0.081
Mof_C 	C 	0.12543	0.7045	0.62134	-0.076
Mof_H 	H 	0.1447	0.6868	0.6335	0.06
Mof_C 	C 	0.12444	0.70535	0.59097	-0.072
Mof_H 	H 	0.1427	0.6885	0.5777	0.058
Mof_C 	C 	0.09097	0.73606	0.58255	0.076
Mof_C 	C 	0.07935	0.74819	0.55281	-0.121
Mof_C 	C 	0.94054	0.88504	0.53385	0.058
Mof_C 	C 	0.92214	0.90482	0.5147	-0.086
Mof_C 	C 	0.89962	0.92747	0.4906	0.113
Mof_C 	C 	0.91038	0.91843	0.46033	-0.153
Mof_H 	H 	0.9339	0.8982	0.4555	0.086
Mof_C 	C 	0.88659	0.9391	0.43764	0.088
Mof_H 	H 	0.8929	0.932	0.4172	0.015
Mof_C 	C 	0.85426	0.96935	0.44374	-0.15
Mof_C 	C 	0.84442	0.97953	0.47367	0.082
Mof_H 	H 	0.8222	0.001	0.4779	0.021
Mof_C 	C 	0.86587	0.9594	0.49693	-0.151
Mof_H 	H 	0.8585	0.9665	0.5173	0.083
Mof_C 	C 	0.82814	0.9918	0.41877	0.405
Mof_O 	O 	0.83458	0.97783	0.39229	-0.518
Mof_O 	O 	0.80177	0.0212	0.42563	-0.5
Mof_C 	C 	0.95098	0.88311	0.68935	0.06
Mof_C 	C 	0.93564	0.90396	0.70901	-0.089
Mof_C 	C 	0.91479	0.92821	0.73261	0.115
Mof_C 	C 	0.8798	0.95565	0.72682	-0.142
Mof_H 	H 	0.8704	0.9605	0.7065	0.084
Mof_C 	C 	0.8573	0.97708	0.74991	0.057
Mof_H 	H 	0.832	0.9959	0.7455	0.039
Mof_C 	C 	0.8722	0.9707	0.77978	-0.104
Mof_C 	C 	0.9095	0.94417	0.78534	0.059
Mof_H 	H 	0.9205	0.9406	0.8055	0.03
Mof_C 	C 	0.93132	0.92273	0.76257	-0.14
Mof_H 	H 	0.9572	0.9044	0.7668	0.08
Mof_C 	C 	0.84597	0.99092	0.80565	0.321
Mof_O 	O 	0.80585	0.00943	0.80083	-0.387
Mof_O 	O 	0.86343	0.98806	0.83142	-0.411
Mof_C 	C 	0.10994	0.7196	0.6849	0.059
Mof_C 	C 	0.13205	0.6993	0.70245	-0.094
Mof_C 	C 	0.15714	0.67319	0.72249	0.132
Mof_C 	C 	0.1462	0.67117	0.75219	-0.161
Mof_H 	H 	0.1215	0.6884	0.7601	0.087
Mof_C 	C 	0.1703	0.64435	0.77156	0.077
Mof_H 	H 	0.1621	0.6437	0.7924	0.021
Mof_C 	C 	0.2052	0.6194	0.76086	-0.127
Mof_C 	C 	0.2153	0.62034	0.72963	0.077
Mof_H 	H 	0.2383	0.6018	0.7213	0.027
Mof_C 	C 	0.1927	0.6473	0.71142	-0.16
Mof_H 	H 	0.2013	0.6486	0.6906	0.087
Mof_C 	C 	0.2302	0.58959	0.78157	0.355
Mof_O 	O 	0.21954	0.58899	0.80845	-0.281
Mof_O 	O 	0.25816	0.56178	0.76712	-0.441
Mof_H 	H 	0.2762	0.55	0.7797	0.284
Mof_C 	C 	0.10347	0.72673	0.52913	0.062
Mof_C 	C 	0.12319	0.70905	0.50873	-0.093
Mof_C 	C 	0.14509	0.68733	0.48443	0.13
Mof_C 	C 	0.17732	0.65713	0.49013	-0.166
Mof_H 	H 	0.1859	0.6509	0.5104	0.09
Mof_C 	C 	0.19781	0.6353	0.46678	0.083
Mof_H 	H 	0.22	0.6138	0.471	0.022
Mof_C 	C 	0.18607	0.64465	0.43747	-0.139
Mof_C 	C 	0.1542	0.67518	0.43144	0.081
Mof_H 	H 	0.1462	0.6815	0.4111	0.017
Mof_C 	C 	0.13352	0.69683	0.45451	-0.163
Mof_H 	H 	0.1113	0.7183	0.4502	0.086
Mof_C 	C 	0.20836	0.61982	0.41217	0.362
Mof_O 	O 	0.23386	0.58985	0.42075	-0.472
Mof_O 	O 	0.20072	0.62988	0.38545	-0.309
Mof_N 	N 	0.09138	0.84997	0.60887	-0.211
Mof_N 	N 	0.16353	0.90023	0.60708	-0.224
Mof_Zn	Zn	0.77891	0.06072	0.3959	1.213
Mof_Zn	Zn	0.80411	0.98179	0.35104	1.202
Mof_O 	O 	0.76523	0.0386	0.35657	-0.664
Mof_C 	C 	0.1116	0.85312	0.57781	-0.001
Mof_C 	C 	0.0797	0.8884	0.6266	0.004
Mof_C 	C 	0.1303	0.83664	0.62885	0.006
Mof_C 	C 	0.1484	0.8909	0.57646	0.027
Mof_C 	C 	0.1799	0.8619	0.62419	-0.021
Mof_C 	C 	0.1226	0.9172	0.6256	0.011
Mof_C 	C 	0.1169	0.9241	0.6032	-0.012
Mof_C 	C 	0.1699	0.871	0.58	-0.023
Mof_C 	C 	0.1623	0.8802	0.6357	0.037
Mof_C 	C 	0.0727	0.8943	0.611	-0.006
Mof_Zn	Zn	0.53068	0.30712	0.60933	1.177
Mof_N 	N 	0.52104	0.30334	0.56311	-0.277
Mof_N 	N 	0.47556	0.3493	0.61082	-0.275
Mof_N 	N 	0.52586	0.30102	0.65586	-0.277
Mof_N 	N 	0.57063	0.25401	0.60826	-0.291
Mof_C 	C 	0.54727	0.27902	0.54382	0.09
Mof_C 	C 	0.53587	0.29015	0.51309	-0.069
Mof_H 	H 	0.5486	0.2777	0.4954	0.056
Mof_C 	C 	0.50465	0.3207	0.51386	-0.077
Mof_H 	H 	0.4912	0.3346	0.4969	0.059
Mof_C 	C 	0.4949	0.32901	0.54531	0.1
Mof_C 	C 	0.46369	0.36003	0.5561	-0.121
Mof_C 	C 	0.45429	0.3693	0.5866	0.096
Mof_C 	C 	0.42274	0.40068	0.59696	-0.074
Mof_H 	H 	0.4037	0.4186	0.5849	0.057
Mof_C 	C 	0.4253	0.3998	0.62775	-0.081
Mof_H 	H 	0.4082	0.4172	0.6413	0.061
Mof_C 	C 	0.45785	0.36846	0.63589	0.103
Mof_C 	C 	0.4709	0.35832	0.66571	-0.127
Mof_C 	C 	0.50179	0.32616	0.67483	0.103
Mof_C 	C 	0.51261	0.31549	0.70548	-0.083
Mof_H 	H 	0.5003	0.3285	0.7231	0.056
Mof_C 	C 	0.54331	0.28374	0.70483	-0.067
Mof_H 	H 	0.5563	0.2699	0.7219	0.051
Mof_C 	C 	0.55294	0.2745	0.67347	0.087
Mof_C 	C 	0.58372	0.24415	0.66266	-0.121
Mof_C 	C 	0.59288	0.23444	0.63199	0.081
Mof_C 	C 	0.62543	0.2045	0.62134	-0.076
Mof_H 	H 	0.6447	0.1868	0.6335	0.06
Mof_C 	C 	0.62444	0.20535	0.59097	-0.072
Mof_H 	H 	0.6427	0.1885	0.5777	0.058
Mof_C 	C 	0.59097	0.23606	0.58255	0.076
Mof_C 	C 	0.57935	0.24819	0.55281	-0.121
Mof_C 	C 	0.44054	0.38504	0.53385	0.058
Mof_C 	C 	0.42214	0.40482	0.5147	-0.086
Mof_C 	C 	0.39962	0.42747	0.4906	0.113
Mof_C 	C 	0.41038	0.41843	0.46033	-0.153
Mof_H 	H 	0.4339	0.3982	0.4555	0.086
Mof_C 	C 	0.38659	0.4391	0.43764	0.088
Mof_H 	H 	0.3929	0.432	0.4172	0.015
Mof_C 	C 	0.35426	0.46935	0.44374	-0.15
Mof_C 	C 	0.34442	0.47953	0.47367	0.082
Mof_H 	H 	0.3222	0.501	0.4779	0.021
Mof_C 	C 	0.36587	0.4594	0.49693	-0.151
Mof_H 	H 	0.3585	0.4665	0.5173	0.083
Mof_C 	C 	0.32814	0.4918	0.41877	0.405
Mof_O 	O 	0.33458	0.47783	0.39229	-0.518
Mof_O 	O 	0.30177	0.5212	0.42563	-0.5
Mof_C 	C 	0.45098	0.38311	0.68935	0.06
Mof_C 	C 	0.43564	0.40396	0.70901	-0.089
Mof_C 	C 	0.41479	0.42821	0.73261	0.115
Mof_C 	C 	0.3798	0.45565	0.72682	-0.142
Mof_H 	H 	0.3704	0.4605	0.7065	0.084
Mof_C 	C 	0.3573	0.47708	0.74991	0.057
Mof_H 	H 	0.332	0.4959	0.7455	0.039
Mof_C 	C 	0.3722	0.4707	0.77978	-0.104
Mof_C 	C 	0.4095	0.44417	0.78534	0.059
Mof_H 	H 	0.4205	0.4406	0.8055	0.03
Mof_C 	C 	0.43132	0.42273	0.76257	-0.14
Mof_H 	H 	0.4572	0.4044	0.7668	0.08
Mof_C 	C 	0.34597	0.49092	0.80565	0.321
Mof_O 	O 	0.30585	0.50943	0.80083	-0.387
Mof_O 	O 	0.36343	0.48806	0.83142	-0.411
Mof_C 	C 	0.60994	0.2196	0.6849	0.059
Mof_C 	C 	0.63205	0.1993	0.70245	-0.094
Mof_C 	C 	0.65714	0.17319	0.72249	0.132
Mof_C 	C 	0.6462	0.17117	0.75219	-0.161
Mof_H 	H 	0.6215	0.1884	0.7601	0.087
Mof_C 	C 	0.6703	0.14435	0.77156	0.077
Mof_H 	H 	0.6621	0.1437	0.7924	0.021
Mof_C 	C 	0.7052	0.1194	0.76086	-0.127
Mof_C 	C 	0.7153	0.12034	0.72963	0.077
Mof_H 	H 	0.7383	0.1018	0.7213	0.027
Mof_C 	C 	0.6927	0.1473	0.71142	-0.16
Mof_H 	H 	0.7013	0.1486	0.6906	0.087
Mof_C 	C 	0.7302	0.08959	0.78157	0.355
Mof_O 	O 	0.71954	0.08899	0.80845	-0.281
Mof_O 	O 	0.75816	0.06178	0.76712	-0.441
Mof_H 	H 	0.7762	0.05	0.7797	0.284
Mof_C 	C 	0.60347	0.22673	0.52913	0.062
Mof_C 	C 	0.62319	0.20905	0.50873	-0.093
Mof_C 	C 	0.64509	0.18733	0.48443	0.13
Mof_C 	C 	0.67732	0.15713	0.49013	-0.166
Mof_H 	H 	0.6859	0.1509	0.5104	0.09
Mof_C 	C 	0.69781	0.1353	0.46678	0.083
Mof_H 	H 	0.72	0.1138	0.471	0.022
Mof_C 	C 	0.68607	0.14465	0.43747	-0.139
Mof_C 	C 	0.6542	0.17518	0.43144	0.081
Mof_H 	H 	0.6462	0.1815	0.4111	0.017
Mof_C 	C 	0.63352	0.19683	0.45451	-0.163
Mof_H 	H 	0.6113	0.2183	0.4502	0.086
Mof_C 	C 	0.70836	0.11982	0.41217	0.362
Mof_O 	O 	0.73386	0.08985	0.42075	-0.472
Mof_O 	O 	0.70072	0.12988	0.38545	-0.309
Mof_N 	N 	0.59138	0.34997	0.60887	-0.211
Mof_N 	N 	0.66353	0.40023	0.60708	-0.224
Mof_Zn	Zn	0.27891	0.56072	0.3959	1.213
Mof_Zn	Zn	0.30411	0.48179	0.35104	1.202
Mof_O 	O 	0.26523	0.5386	0.35657	-0.664
Mof_C 	C 	0.6116	0.35312	0.57781	-0.001
Mof_C 	C 	0.5797	0.3884	0.6266	0.004
Mof_C 	C 	0.6303	0.33664	0.62885	0.006
Mof_C 	C 	0.6484	0.3909	0.57646	0.027
Mof_C 	C 	0.6799	0.3619	0.62419	-0.021
Mof_C 	C 	0.6226	0.4172	0.6256	0.011
Mof_C 	C 	0.6169	0.4241	0.6032	-0.012
Mof_C 	C 	0.6699	0.371	0.58	-0.023
Mof_C 	C 	0.6623	0.3802	0.6357	0.037
Mof_C 	C 	0.5727	0.3943	0.611	-0.006
Mof_Zn	Zn	0.46932	0.19288	0.60933	1.177
Mof_N 	N 	0.47896	0.19666	0.56311	-0.277
Mof_N 	N 	0.52444	0.1507	0.61082	-0.275
Mof_N 	N 	0.47414	0.19898	0.65586	-0.277
Mof_N 	N 	0.42937	0.24599	0.60826	-0.291
Mof_C 	C 	0.45273	0.22098	0.54382	0.09
Mof_C 	C 	0.46413	0.20985	0.51309	-0.069
Mof_H 	H 	0.4514	0.2223	0.4954	0.056
Mof_C 	C 	0.49535	0.1793	0.51386	-0.077
Mof_H 	H 	0.5088	0.1654	0.4969	0.059
Mof_C 	C 	0.5051	0.17099	0.54531	0.1
Mof_C 	C 	0.53631	0.13997	0.5561	-0.121
Mof_C 	C 	0.54571	0.1307	0.5866	0.096
Mof_C 	C 	0.57726	0.09932	0.59696	-0.074
Mof_H 	H 	0.5963	0.0814	0.5849	0.057
Mof_C 	C 	0.5747	0.1002	0.62775	-0.081
Mof_H 	H 	0.5918	0.0828	0.6413	0.061
Mof_C 	C 	0.54215	0.13154	0.63589	0.103
Mof_C 	C 	0.5291	0.14168	0.66571	-0.127
Mof_C 	C 	0.49821	0.17384	0.67483	0.103
Mof_C 	C 	0.48739	0.18451	0.70548	-0.083
Mof_H 	H 	0.4997	0.1715	0.7231	0.056
Mof_C 	C 	0.45669	0.21626	0.70483	-0.067
Mof_H 	H 	0.4437	0.2301	0.7219	0.051
Mof_C 	C 	0.44706	0.2255	0.67347	0.087
Mof_C 	C 	0.41628	0.25585	0.66266	-0.121
Mof_C 	C 	0.40712	0.26556	0.63199	0.081
Mof_C 	C 	0.37457	0.2955	0.62134	-0.076
Mof_H 	H 	0.3553	0.3132	0.6335	0.06
Mof_C 	C 	0.37556	0.29465	0.59097	-0.072
Mof_H 	H 	0.3573	0.3115	0.5777	0.058
Mof_C 	C 	0.40903	0.26394	0.58255	0.076
Mof_C 	C 	0.42065	0.25181	0.55281	-0.121
Mof_C 	C 	0.55946	0.11496	0.53385	0.058
Mof_C 	C 	0.57786	0.09518	0.5147	-0.086
Mof_C 	C 	0.60038	0.07253	0.4906	0.113
Mof_C 	C 	0.58962	0.08157	0.46033	-0.153
Mof_H 	H 	0.5661	0.1018	0.4555	0.086
Mof_C 	C 	0.61341	0.0609	0.43764	0.088
Mof_H 	H 	0.6071	0.068	0.4172	0.015
Mof_C 	C 	0.64574	0.03065	0.44374	-0.15
Mof_C 	C 	0.65558	0.02047	0.47367	0.082
Mof_H 	H 	0.6778	0.999	0.4779	0.021
Mof_C 	C 	0.63413	0.0406	0.49693	-0.151
Mof_H 	H 	0.6415	0.0335	0.5173	0.083
Mof_C 	C 	0.67186	0.0082	0.41877	0.405
Mof_O 	O 	0.66542	0.02217	0.39229	-0.518
Mof_O 	O 	0.69823	0.9788	0.42563	-0.5
Mof_C 	C 	0.54902	0.11689	0.68935	0.06
Mof_C 	C 	0.56436	0.09604	0.70901	-0.089
Mof_C 	C 	0.58521	0.07179	0.73261	0.115
Mof_C 	C 	0.6202	0.04435	0.72682	-0.142
Mof_H 	H 	0.6296	0.0395	0.7065	0.084
Mof_C 	C 	0.6427	0.02292	0.74991	0.057
Mof_H 	H 	0.668	0.0041	0.7455	0.039
Mof_C 	C 	0.6278	0.0293	0.77978	-0.104
Mof_C 	C 	0.5905	0.05583	0.78534	0.059
Mof_H 	H 	0.5795	0.0594	0.8055	0.03
Mof_C 	C 	0.56868	0.07727	0.76257	-0.14
Mof_H 	H 	0.5428	0.0956	0.7668	0.08
Mof_C 	C 	0.65403	0.00908	0.80565	0.321
Mof_O 	O 	0.69415	0.99057	0.80083	-0.387
Mof_O 	O 	0.63657	0.01194	0.83142	-0.411
Mof_C 	C 	0.39006	0.2804	0.6849	0.059
Mof_C 	C 	0.36795	0.3007	0.70245	-0.094
Mof_C 	C 	0.34286	0.32681	0.72249	0.132
Mof_C 	C 	0.3538	0.32883	0.75219	-0.161
Mof_H 	H 	0.3785	0.3116	0.7601	0.087
Mof_C 	C 	0.3297	0.35565	0.77156	0.077
Mof_H 	H 	0.3379	0.3563	0.7924	0.021
Mof_C 	C 	0.2948	0.3806	0.76086	-0.127
Mof_C 	C 	0.2847	0.37966	0.72963	0.077
Mof_H 	H 	0.2617	0.3982	0.7213	0.027
Mof_C 	C 	0.3073	0.3527	0.71142	-0.16
Mof_H 	H 	0.2987	0.3514	0.6906	0.087
Mof_C 	C 	0.2698	0.41041	0.78157	0.355
Mof_O 	O 	0.28046	0.41101	0.80845	-0.281
Mof_O 	O 	0.24184	0.43822	0.76712	-0.441
Mof_H 	H 	0.2238	0.45	0.7797	0.284
Mof_C 	C 	0.39653	0.27327	0.52913	0.062
Mof_C 	C 	0.37681	0.29095	0.50873	-0.093
Mof_C 	C 	0.35491	0.31267	0.48443	0.13
Mof_C 	C 	0.32268	0.34287	0.49013	-0.166
Mof_H 	H 	0.3141	0.3491	0.5104	0.09
Mof_C 	C 	0.30219	0.3647	0.46678	0.083
Mof_H 	H 	0.28	0.3862	0.471	0.022
Mof_C 	C 	0.31393	0.35535	0.43747	-0.139
Mof_C 	C 	0.3458	0.32482	0.43144	0.081
Mof_H 	H 	0.3538	0.3185	0.4111	0.017
Mof_C 	C 	0.36648	0.30317	0.45451	-0.163
Mof_H 	H 	0.3887	0.2817	0.4502	0.086
Mof_C 	C 	0.29164	0.38018	0.41217	0.362
Mof_O 	O 	0.26614	0.41015	0.42075	-0.472
Mof_O 	O 	0.29928	0.37012	0.38545	-0.309
Mof_N 	N 	0.40862	0.15003	0.60887	-0.211
Mof_N 	N 	0.33647	0.09977	0.60708	-0.224
Mof_Zn	Zn	0.72109	0.93928	0.3959	1.213
Mof_Zn	Zn	0.69589	0.01821	0.35104	1.202
Mof_O 	O 	0.73477	0.9614	0.35657	-0.664
Mof_C 	C 	0.3884	0.14688	0.57781	-0.001
Mof_C 	C 	0.4203	0.1116	0.6266	0.004
Mof_C 	C 	0.3697	0.16336	0.62885	0.006
Mof_C 	C 	0.3516	0.1091	0.57646	0.027
Mof_C 	C 	0.3201	0.1381	0.62419	-0.021
Mof_C 	C 	0.3774	0.0828	0.6256	0.011
Mof_C 	C 	0.3831	0.0759	0.6032	-0.012
Mof_C 	C 	0.3301	0.129	0.58	-0.023
Mof_C 	C 	0.3377	0.1198	0.6357	0.037
Mof_C 	C 	0.4273	0.1057	0.611	-0.006
Mof_Zn	Zn	0.96932	0.69288	0.60933	1.177
Mof_N 	N 	0.97896	0.69666	0.56311	-0.277
Mof_N 	N 	0.02444	0.6507	0.61082	-0.275
Mof_N 	N 	0.97414	0.69898	0.65586	-0.277
Mof_N 	N 	0.92937	0.74599	0.60826	-0.291
Mof_C 	C 	0.95273	0.72098	0.54382	0.09
Mof_C 	C 	0.96413	0.70985	0.51309	-0.069
Mof_H 	H 	0.9514	0.7223	0.4954	0.056
Mof_C 	C 	0.99535	0.6793	0.51386	-0.077
Mof_H 	H 	0.0088	0.6654	0.4969	0.059
Mof_C 	C 	0.0051	0.67099	0.54531	0.1
Mof_C 	C 	0.03631	0.63997	0.5561	-0.121
Mof_C 	C 	0.04571	0.6307	0.5866	0.096
Mof_C 	C 	0.07726	0.59932	0.59696	-0.074
Mof_H 	H 	0.0963	0.5814	0.5849	0.057
Mof_C 	C 	0.0747	0.6002	0.62775	-0.081
Mof_H 	H 	0.0918	0.5828	0.6413	0.061
Mof_C 	C 	0.04215	0.63154	0.63589	0.103
Mof_C 	C 	0.0291	0.64168	0.66571	-0.127
Mof_C 	C 	0.99821	0.67384	0.67483	0.103
Mof_C 	C 	0.98739	0.68451	0.70548	-0.083
Mof_H 	H 	0.9997	0.6715	0.7231	0.056
Mof_C 	C 	0.95669	0.71626	0.70483	-0.067
Mof_H 	H 	0.9437	0.7301	0.7219	0.051
Mof_C 	C 	0.94706	0.7255	0.67347	0.087
Mof_C 	C 	0.91628	0.75585	0.66266	-0.121
Mof_C 	C 	0.90712	0.76556	0.63199	0.081
Mof_C 	C 	0.87457	0.7955	0.62134	-0.076
Mof_H 	H 	0.8553	0.8132	0.6335	0.06
Mof_C 	C 	0.87556	0.79465	0.59097	-0.072
Mof_H 	H 	0.8573	0.8115	0.5777	0.058
Mof_C 	C 	0.90903	0.76394	0.58255	0.076
Mof_C 	C 	0.92065	0.75181	0.55281	-0.121
Mof_C 	C 	0.05946	0.61496	0.53385	0.058
Mof_C 	C 	0.07786	0.59518	0.5147	-0.086
Mof_C 	C 	0.10038	0.57253	0.4906	0.113
Mof_C 	C 	0.08962	0.58157	0.46033	-0.153
Mof_H 	H 	0.0661	0.6018	0.4555	0.086
Mof_C 	C 	0.11341	0.5609	0.43764	0.088
Mof_H 	H 	0.1071	0.568	0.4172	0.015
Mof_C 	C 	0.14574	0.53065	0.44374	-0.15
Mof_C 	C 	0.15558	0.52047	0.47367	0.082
Mof_H 	H 	0.1778	0.499	0.4779	0.021
Mof_C 	C 	0.13413	0.5406	0.49693	-0.151
Mof_H 	H 	0.1415	0.5335	0.5173	0.083
Mof_C 	C 	0.17186	0.5082	0.41877	0.405
Mof_O 	O 	0.16542	0.52217	0.39229	-0.518
Mof_O 	O 	0.19823	0.4788	0.42563	-0.5
Mof_C 	C 	0.04902	0.61689	0.68935	0.06
Mof_C 	C 	0.06436	0.59604	0.70901	-0.089
Mof_C 	C 	0.08521	0.57179	0.73261	0.115
Mof_C 	C 	0.1202	0.54435	0.72682	-0.142
Mof_H 	H 	0.1296	0.5395	0.7065	0.084
Mof_C 	C 	0.1427	0.52292	0.74991	0.057
Mof_H 	H 	0.168	0.5041	0.7455	0.039
Mof_C 	C 	0.1278	0.5293	0.77978	-0.104
Mof_C 	C 	0.0905	0.55583	0.78534	0.059
Mof_H 	H 	0.0795	0.5594	0.8055	0.03
Mof_C 	C 	0.06868	0.57727	0.76257	-0.14
Mof_H 	H 	0.0428	0.5956	0.7668	0.08
Mof_C 	C 	0.15403	0.50908	0.80565	0.321
Mof_O 	O 	0.19415	0.49057	0.80083	-0.387
Mof_O 	O 	0.13657	0.51194	0.83142	-0.411
Mof_C 	C 	0.89006	0.7804	0.6849	0.059
Mof_C 	C 	0.86795	0.8007	0.70245	-0.094
Mof_C 	C 	0.84286	0.82681	0.72249	0.132
Mof_C 	C 	0.8538	0.82883	0.75219	-0.161
Mof_H 	H 	0.8785	0.8116	0.7601	0.087
Mof_C 	C 	0.8297	0.85565	0.77156	0.077
Mof_H 	H 	0.8379	0.8563	0.7924	0.021
Mof_C 	C 	0.7948	0.8806	0.76086	-0.127
Mof_C 	C 	0.7847	0.87966	0.72963	0.077
Mof_H 	H 	0.7617	0.8982	0.7213	0.027
Mof_C 	C 	0.8073	0.8527	0.71142	-0.16
Mof_H 	H 	0.7987	0.8514	0.6906	0.087
Mof_C 	C 	0.7698	0.91041	0.78157	0.355
Mof_O 	O 	0.78046	0.91101	0.80845	-0.281
Mof_O 	O 	0.74184	0.93822	0.76712	-0.441
Mof_H 	H 	0.7238	0.95	0.7797	0.284
Mof_C 	C 	0.89653	0.77327	0.52913	0.062
Mof_C 	C 	0.87681	0.79095	0.50873	-0.093
Mof_C 	C 	0.85491	0.81267	0.48443	0.13
Mof_C 	C 	0.82268	0.84287	0.49013	-0.166
Mof_H 	H 	0.8141	0.8491	0.5104	0.09
Mof_C 	C 	0.80219	0.8647	0.46678	0.083
Mof_H 	H 	0.78	0.8862	0.471	0.022
Mof_C 	C 	0.81393	0.85535	0.43747	-0.139
Mof_C 	C 	0.8458	0.82482	0.43144	0.081
Mof_H 	H 	0.8538	0.8185	0.4111	0.017
Mof_C 	C 	0.86648	0.80317	0.45451	-0.163
Mof_H 	H 	0.8887	0.7817	0.4502	0.086
Mof_C 	C 	0.79164	0.88018	0.41217	0.362
Mof_O 	O 	0.76614	0.91015	0.42075	-0.472
Mof_O 	O 	0.79928	0.87012	0.38545	-0.309
Mof_N 	N 	0.90862	0.65003	0.60887	-0.211
Mof_N 	N 	0.83647	0.59977	0.60708	-0.224
Mof_Zn	Zn	0.22109	0.43928	0.3959	1.213
Mof_Zn	Zn	0.19589	0.51821	0.35104	1.202
Mof_O 	O 	0.23477	0.4614	0.35657	-0.664
Mof_C 	C 	0.8884	0.64688	0.57781	-0.001
Mof_C 	C 	0.9203	0.6116	0.6266	0.004
Mof_C 	C 	0.8697	0.66336	0.62885	0.006
Mof_C 	C 	0.8516	0.6091	0.57646	0.027
Mof_C 	C 	0.8201	0.6381	0.62419	-0.021
Mof_C 	C 	0.8774	0.5828	0.6256	0.011
Mof_C 	C 	0.8831	0.5759	0.6032	-0.012
Mof_C 	C 	0.8301	0.629	0.58	-0.023
Mof_C 	C 	0.8377	0.6198	0.6357	0.037
Mof_C 	C 	0.9273	0.6057	0.611	-0.006
_end
