data_functionalizedCrystal
_audit_creation_method	'EQeq! by Chris Wilmer'
_symmetry_space_group_name_H-M	'P1'
_symmetry_Int_Tables_number	1
_symmetry_cell_setting	triclinic
loop_
_symmetry_equiv_pos_as_xyz
  x,y,z
_cell_length_a	11.6193
_cell_length_b	5.5667
_cell_length_c	22.9312
_cell_angle_alpha	90
_cell_angle_beta	100.897
_cell_angle_gamma	90
loop_
_atom_site_label
_atom_site_type_symbol
_atom_site_fract_x
_atom_site_fract_y
_atom_site_fract_z
_atom_site_charge
Mof_C 	C 	0.4932	0.2586	0.262	0.471
Mof_C 	C 	0.3998	0.2111	0.2991	-0.155
Mof_C 	C 	0.3121	0.3789	0.3001	0.041
Mof_H 	H 	0.3142	0.5287	0.2804	0.028
Mof_C 	C 	0.2208	0.3282	0.3299	-0.079
Mof_H 	H 	0.1597	0.4413	0.3304	0.07
Mof_C 	C 	0.2209	0.1096	0.3589	-0.012
Mof_C 	C 	0.3109	0.9413	0.3603	-0.083
Mof_H 	H 	0.311	0.7958	0.382	0.065
Mof_C 	C 	0.4002	0.9912	0.3293	0.047
Mof_H 	H 	0.4609	0.8777	0.3286	0.01
Mof_C 	C 	0.149	0.1119	0.4702	0.005
Mof_C 	C 	0.1194	0.334	0.4901	-0.091
Mof_H 	H 	0.0803	0.4502	0.463	0.083
Mof_C 	C 	0.1482	0.3837	0.5508	0.055
Mof_H 	H 	0.1298	0.5361	0.5652	0.019
Mof_C 	C 	0.2036	0.2114	0.59	-0.154
Mof_C 	C 	0.2367	0.9905	0.5693	0.048
Mof_H 	H 	0.2775	0.8759	0.5962	0.011
Mof_C 	C 	0.2095	0.9398	0.5088	-0.088
Mof_H 	H 	0.2317	0.791	0.4939	0.067
Mof_C 	C 	0.2275	0.2624	0.6557	0.446
Mof_O 	O 	0.5124	0.4755	0.25221	-0.481
Mof_O 	O 	0.5409	0.0808	0.24372	-0.494
Mof_O 	O 	0.0054	0.1958	0.37124	-0.357
Mof_O 	O 	0.0866	0.7796	0.39054	-0.25
Mof_O 	O 	0.2371	0.4768	0.67265	-0.517
Mof_O 	O 	0.2406	0.085	0.69066	-0.581
Mof_S 	S 	0.10323	0.0364	0.39414	0.314
Mof_Ca	Ca	0.6372	0.74331	0.22117	1.566
Mof_C 	C 	0.0068	0.7586	0.238	0.465
Mof_C 	C 	0.1002	0.7111	0.2009	-0.15
Mof_C 	C 	0.1879	0.8789	0.1999	0.038
Mof_H 	H 	0.1858	0.0287	0.2196	0.029
Mof_C 	C 	0.2792	0.8282	0.1701	-0.077
Mof_H 	H 	0.3403	0.9413	0.1696	0.07
Mof_C 	C 	0.2791	0.6096	0.1411	-0.013
Mof_C 	C 	0.1891	0.4413	0.1397	-0.081
Mof_H 	H 	0.189	0.2958	0.118	0.064
Mof_C 	C 	0.0998	0.4912	0.1707	0.043
Mof_H 	H 	0.0391	0.3777	0.1714	0.011
Mof_C 	C 	0.351	0.6119	0.0298	0.002
Mof_C 	C 	0.3806	0.834	0.0099	-0.091
Mof_H 	H 	0.4197	0.9502	0.037	0.083
Mof_C 	C 	0.3518	0.8837	0.9492	0.054
Mof_H 	H 	0.3702	0.0361	0.9348	0.02
Mof_C 	C 	0.2964	0.7114	0.91	-0.157
Mof_C 	C 	0.2633	0.4905	0.9307	0.05
Mof_H 	H 	0.2225	0.3759	0.9038	0.011
Mof_C 	C 	0.2905	0.4398	0.9912	-0.086
Mof_H 	H 	0.2683	0.291	0.0061	0.066
Mof_C 	C 	0.2725	0.7624	0.8443	0.447
Mof_O 	O 	0.9876	0.9755	0.24779	-0.475
Mof_O 	O 	0.9591	0.5808	0.25628	-0.49
Mof_O 	O 	0.4946	0.6958	0.12876	-0.357
Mof_O 	O 	0.4134	0.2796	0.10946	-0.249
Mof_O 	O 	0.2629	0.9768	0.82735	-0.52
Mof_O 	O 	0.2594	0.585	0.80934	-0.583
Mof_S 	S 	0.39677	0.5364	0.10586	0.314
Mof_Ca	Ca	0.8628	0.24331	0.27883	1.557
Mof_C 	C 	0.5068	0.7414	0.738	0.472
Mof_C 	C 	0.6002	0.7889	0.7009	-0.154
Mof_C 	C 	0.6879	0.6211	0.6999	0.041
Mof_H 	H 	0.6858	0.4713	0.7196	0.028
Mof_C 	C 	0.7792	0.6718	0.6701	-0.079
Mof_H 	H 	0.8403	0.5587	0.6696	0.07
Mof_C 	C 	0.7791	0.8904	0.6411	-0.012
Mof_C 	C 	0.6891	0.0587	0.6397	-0.083
Mof_H 	H 	0.689	0.2042	0.618	0.065
Mof_C 	C 	0.5998	0.0088	0.6707	0.047
Mof_H 	H 	0.5391	0.1223	0.6714	0.01
Mof_C 	C 	0.851	0.8881	0.5298	0.005
Mof_C 	C 	0.8806	0.666	0.5099	-0.091
Mof_H 	H 	0.9197	0.5498	0.537	0.083
Mof_C 	C 	0.8518	0.6163	0.4492	0.055
Mof_H 	H 	0.8702	0.4639	0.4348	0.019
Mof_C 	C 	0.7964	0.7886	0.41	-0.154
Mof_C 	C 	0.7633	0.0095	0.4307	0.048
Mof_H 	H 	0.7225	0.1241	0.4038	0.011
Mof_C 	C 	0.7905	0.0602	0.4912	-0.088
Mof_H 	H 	0.7683	0.209	0.5061	0.067
Mof_C 	C 	0.7725	0.7376	0.3443	0.446
Mof_O 	O 	0.4876	0.5245	0.74779	-0.481
Mof_O 	O 	0.4591	0.9192	0.75628	-0.494
Mof_O 	O 	0.9946	0.8042	0.62876	-0.357
Mof_O 	O 	0.9134	0.2204	0.60946	-0.25
Mof_O 	O 	0.7629	0.5232	0.32735	-0.517
Mof_O 	O 	0.7594	0.915	0.30934	-0.581
Mof_S 	S 	0.89677	0.9636	0.60586	0.314
Mof_Ca	Ca	0.3628	0.25669	0.77883	1.566
Mof_C 	C 	0.9932	0.2414	0.762	0.465
Mof_C 	C 	0.8998	0.2889	0.7991	-0.15
Mof_C 	C 	0.8121	0.1211	0.8001	0.038
Mof_H 	H 	0.8142	0.9713	0.7804	0.029
Mof_C 	C 	0.7208	0.1718	0.8299	-0.077
Mof_H 	H 	0.6597	0.0587	0.8304	0.07
Mof_C 	C 	0.7209	0.3904	0.8589	-0.013
Mof_C 	C 	0.8109	0.5587	0.8603	-0.081
Mof_H 	H 	0.811	0.7042	0.882	0.064
Mof_C 	C 	0.9002	0.5088	0.8293	0.043
Mof_H 	H 	0.9609	0.6223	0.8286	0.011
Mof_C 	C 	0.649	0.3881	0.9702	0.002
Mof_C 	C 	0.6194	0.166	0.9901	-0.091
Mof_H 	H 	0.5803	0.0498	0.963	0.083
Mof_C 	C 	0.6482	0.1163	0.0508	0.054
Mof_H 	H 	0.6298	0.9639	0.0652	0.02
Mof_C 	C 	0.7036	0.2886	0.09	-0.157
Mof_C 	C 	0.7367	0.5095	0.0693	0.05
Mof_H 	H 	0.7775	0.6241	0.0962	0.011
Mof_C 	C 	0.7095	0.5602	0.0088	-0.086
Mof_H 	H 	0.7317	0.709	0.9939	0.066
Mof_C 	C 	0.7275	0.2376	0.1557	0.447
Mof_O 	O 	0.0124	0.0245	0.75221	-0.475
Mof_O 	O 	0.0409	0.4192	0.74372	-0.49
Mof_O 	O 	0.5054	0.3042	0.87124	-0.357
Mof_O 	O 	0.5866	0.7204	0.89054	-0.249
Mof_O 	O 	0.7371	0.0232	0.17265	-0.52
Mof_O 	O 	0.7406	0.415	0.19066	-0.583
Mof_S 	S 	0.60323	0.4636	0.89414	0.314
Mof_Ca	Ca	0.1372	0.75669	0.72117	1.557
_end
