data_functionalizedCrystal
_audit_creation_method	'EQeq! by Chris Wilmer'
_symmetry_space_group_name_H-M	'P1'
_symmetry_Int_Tables_number	1
_symmetry_cell_setting	triclinic
loop_
_symmetry_equiv_pos_as_xyz
  x,y,z
_cell_length_a	9.6552
_cell_length_b	17.1958
_cell_length_c	20.8804
_cell_angle_alpha	90
_cell_angle_beta	94.231
_cell_angle_gamma	90
loop_
_atom_site_label
_atom_site_type_symbol
_atom_site_fract_x
_atom_site_fract_y
_atom_site_fract_z
_atom_site_charge
Mof_Cu	Cu	0.29918	0.49341	0.52393	0.905
Mof_Cu	Cu	0.00104	0.52158	0.42825	0.923
Mof_O 	O 	0.3127	0.4043	0.5816	-0.461
Mof_O 	O 	0.1072	0.4027	0.62553	-0.441
Mof_O 	O 	0.0498	0.0626	0.8334	-0.337
Mof_O 	O 	0.881	0.0676	0.8986	-0.448
Mof_O 	O 	0.123	0.4598	0.48512	-0.705
Mof_H 	H 	0.132	0.4111	0.484	0.264
Mof_N 	N 	0.2778	0.5902	0.4681	-0.186
Mof_N 	N 	0.1499	0.6031	0.4365	-0.185
Mof_N 	N 	0.2845	0.7015	0.4188	-0.114
Mof_N 	N 	0.5799	0.9327	0.0566	-0.16
Mof_N 	N 	0.4557	0.9601	0.0778	-0.191
Mof_N 	N 	0.5776	0.9125	0.1592	-0.11
Mof_C 	C 	0.3559	0.6505	0.4569	0.091
Mof_H 	H 	0.4475	0.6569	0.4731	0.002
Mof_C 	C 	0.1566	0.6708	0.4081	0.082
Mof_H 	H 	0.0835	0.6943	0.3839	0.012
Mof_C 	C 	0.3321	0.7751	0.3925	-0.182
Mof_H 	H 	0.406	0.7961	0.4215	0.079
Mof_H 	H 	0.2559	0.812	0.3903	0.082
Mof_C 	C 	0.3847	0.7665	0.3263	0.179
Mof_C 	C 	0.3518	0.7044	0.2857	-0.237
Mof_H 	H 	0.2947	0.6649	0.299	0.122
Mof_C 	C 	0.4029	0.7006	0.2257	0.137
Mof_H 	H 	0.38	0.6588	0.1987	-0.026
Mof_C 	C 	0.4885	0.7593	0.2057	-0.244
Mof_H 	H 	0.5235	0.7564	0.1655	0.117
Mof_C 	C 	0.5219	0.8219	0.2454	0.191
Mof_C 	C 	0.4686	0.8263	0.3054	-0.266
Mof_H 	H 	0.4889	0.869	0.3317	0.111
Mof_C 	C 	0.6187	0.8857	0.2264	-0.204
Mof_H 	H 	0.6147	0.9291	0.2559	0.094
Mof_H 	H 	0.7134	0.8665	0.2288	0.108
Mof_C 	C 	0.6492	0.9053	0.107	0.085
Mof_H 	H 	0.7373	0.8833	0.1069	0.003
Mof_C 	C 	0.4577	0.9469	0.1393	0.095
Mof_H 	H 	0.3868	0.9595	0.1653	-0.001
Mof_C 	C 	0.2262	0.3767	0.6178	0.471
Mof_C 	C 	0.2767	0.3068	0.6566	-0.484
Mof_H 	H 	0.3565	0.3223	0.6846	0.185
Mof_H 	H 	0.3079	0.2678	0.6273	0.175
Mof_C 	C 	0.1713	0.2698	0.6971	0.174
Mof_C 	C 	0.1549	0.2976	0.7588	-0.099
Mof_H 	H 	0.2075	0.3396	0.7749	0.066
Mof_C 	C 	0.0598	0.2625	0.796	-0.119
Mof_H 	H 	0.0517	0.2808	0.8374	0.068
Mof_C 	C 	0.9792	0.2033	0.7748	0.176
Mof_C 	C 	0.9952	0.1755	0.7143	-0.111
Mof_H 	H 	0.941	0.1338	0.6989	0.069
Mof_C 	C 	0.0913	0.2084	0.6751	-0.111
Mof_H 	H 	0.1006	0.1885	0.6342	0.063
Mof_C 	C 	0.8795	0.1643	0.8171	-0.461
Mof_H 	H 	0.7967	0.149	0.7911	0.174
Mof_H 	H 	0.8522	0.2012	0.849	0.17
Mof_C 	C 	0.9426	0.0929	0.8511	0.421
Mof_Cu	Cu	0.70082	0.99341	0.97607	0.903
Mof_Cu	Cu	0.99896	0.02158	0.07175	0.919
Mof_O 	O 	0.6873	0.9043	0.9184	-0.461
Mof_O 	O 	0.8928	0.9027	0.87447	-0.44
Mof_O 	O 	0.9502	0.5626	0.6666	-0.343
Mof_O 	O 	0.119	0.5676	0.6014	-0.451
Mof_O 	O 	0.877	0.9598	0.01488	-0.697
Mof_H 	H 	0.868	0.9111	0.016	0.264
Mof_N 	N 	0.7222	0.0902	0.0319	-0.189
Mof_N 	N 	0.8501	0.1031	0.0635	-0.187
Mof_N 	N 	0.7155	0.2015	0.0812	-0.114
Mof_N 	N 	0.4201	0.4327	0.4434	-0.162
Mof_N 	N 	0.5443	0.4601	0.4222	-0.193
Mof_N 	N 	0.4224	0.4125	0.3408	-0.11
Mof_C 	C 	0.6441	0.1505	0.0431	0.09
Mof_H 	H 	0.5525	0.1569	0.0269	0.001
Mof_C 	C 	0.8434	0.1708	0.0919	0.081
Mof_H 	H 	0.9165	0.1943	0.1161	0.012
Mof_C 	C 	0.6679	0.2751	0.1075	-0.182
Mof_H 	H 	0.594	0.2961	0.0785	0.079
Mof_H 	H 	0.7441	0.312	0.1097	0.081
Mof_C 	C 	0.6153	0.2665	0.1737	0.179
Mof_C 	C 	0.6482	0.2044	0.2143	-0.237
Mof_H 	H 	0.7053	0.1649	0.201	0.121
Mof_C 	C 	0.5971	0.2006	0.2743	0.136
Mof_H 	H 	0.62	0.1588	0.3013	-0.026
Mof_C 	C 	0.5115	0.2593	0.2943	-0.243
Mof_H 	H 	0.4765	0.2564	0.3345	0.116
Mof_C 	C 	0.4781	0.3219	0.2546	0.19
Mof_C 	C 	0.5314	0.3263	0.1946	-0.266
Mof_H 	H 	0.5111	0.369	0.1683	0.111
Mof_C 	C 	0.3813	0.3857	0.2736	-0.204
Mof_H 	H 	0.3853	0.4291	0.2441	0.093
Mof_H 	H 	0.2866	0.3665	0.2712	0.107
Mof_C 	C 	0.3508	0.4053	0.393	0.084
Mof_H 	H 	0.2627	0.3833	0.3931	0.003
Mof_C 	C 	0.5423	0.4469	0.3607	0.094
Mof_H 	H 	0.6132	0.4595	0.3347	-0.002
Mof_C 	C 	0.7738	0.8767	0.8822	0.47
Mof_C 	C 	0.7233	0.8068	0.8434	-0.484
Mof_H 	H 	0.6435	0.8223	0.8154	0.184
Mof_H 	H 	0.6921	0.7678	0.8727	0.175
Mof_C 	C 	0.8287	0.7698	0.8029	0.175
Mof_C 	C 	0.8451	0.7976	0.7412	-0.099
Mof_H 	H 	0.7925	0.8396	0.7251	0.066
Mof_C 	C 	0.9402	0.7625	0.704	-0.12
Mof_H 	H 	0.9483	0.7808	0.6626	0.068
Mof_C 	C 	0.0208	0.7033	0.7252	0.177
Mof_C 	C 	0.0048	0.6755	0.7857	-0.11
Mof_H 	H 	0.059	0.6338	0.8011	0.069
Mof_C 	C 	0.9087	0.7084	0.8249	-0.113
Mof_H 	H 	0.8994	0.6885	0.8658	0.063
Mof_C 	C 	0.1205	0.6643	0.6829	-0.463
Mof_H 	H 	0.2033	0.649	0.7089	0.175
Mof_H 	H 	0.1478	0.7012	0.651	0.171
Mof_C 	C 	0.0574	0.5929	0.6489	0.426
Mof_Cu	Cu	0.70082	0.50659	0.47607	0.906
Mof_Cu	Cu	0.99896	0.47842	0.57175	0.924
Mof_O 	O 	0.6873	0.5957	0.4184	-0.46
Mof_O 	O 	0.8928	0.5973	0.37447	-0.44
Mof_O 	O 	0.9502	0.9374	0.1666	-0.337
Mof_O 	O 	0.119	0.9324	0.1014	-0.448
Mof_O 	O 	0.877	0.5402	0.51488	-0.705
Mof_H 	H 	0.868	0.5889	0.516	0.264
Mof_N 	N 	0.7222	0.4098	0.5319	-0.186
Mof_N 	N 	0.8501	0.3969	0.5635	-0.185
Mof_N 	N 	0.7155	0.2985	0.5812	-0.114
Mof_N 	N 	0.4201	0.0673	0.9434	-0.16
Mof_N 	N 	0.5443	0.0399	0.9222	-0.191
Mof_N 	N 	0.4224	0.0875	0.8408	-0.11
Mof_C 	C 	0.6441	0.3495	0.5431	0.091
Mof_H 	H 	0.5525	0.3431	0.5269	0.002
Mof_C 	C 	0.8434	0.3292	0.5919	0.082
Mof_H 	H 	0.9165	0.3057	0.6161	0.012
Mof_C 	C 	0.6679	0.2249	0.6075	-0.182
Mof_H 	H 	0.594	0.2039	0.5785	0.079
Mof_H 	H 	0.7441	0.188	0.6097	0.082
Mof_C 	C 	0.6153	0.2335	0.6737	0.179
Mof_C 	C 	0.6482	0.2956	0.7143	-0.237
Mof_H 	H 	0.7053	0.3351	0.701	0.122
Mof_C 	C 	0.5971	0.2994	0.7743	0.137
Mof_H 	H 	0.62	0.3412	0.8013	-0.026
Mof_C 	C 	0.5115	0.2407	0.7943	-0.244
Mof_H 	H 	0.4765	0.2436	0.8345	0.117
Mof_C 	C 	0.4781	0.1781	0.7546	0.191
Mof_C 	C 	0.5314	0.1737	0.6946	-0.266
Mof_H 	H 	0.5111	0.131	0.6683	0.111
Mof_C 	C 	0.3813	0.1143	0.7736	-0.204
Mof_H 	H 	0.3853	0.0709	0.7441	0.094
Mof_H 	H 	0.2866	0.1335	0.7712	0.108
Mof_C 	C 	0.3508	0.0947	0.893	0.085
Mof_H 	H 	0.2627	0.1167	0.8931	0.003
Mof_C 	C 	0.5423	0.0531	0.8607	0.095
Mof_H 	H 	0.6132	0.0405	0.8347	-0.001
Mof_C 	C 	0.7738	0.6233	0.3822	0.471
Mof_C 	C 	0.7233	0.6932	0.3434	-0.484
Mof_H 	H 	0.6435	0.6777	0.3154	0.185
Mof_H 	H 	0.6921	0.7322	0.3727	0.175
Mof_C 	C 	0.8287	0.7302	0.3029	0.174
Mof_C 	C 	0.8451	0.7024	0.2412	-0.099
Mof_H 	H 	0.7925	0.6604	0.2251	0.066
Mof_C 	C 	0.9402	0.7375	0.204	-0.119
Mof_H 	H 	0.9483	0.7192	0.1626	0.068
Mof_C 	C 	0.0208	0.7967	0.2252	0.176
Mof_C 	C 	0.0048	0.8245	0.2857	-0.111
Mof_H 	H 	0.059	0.8662	0.3011	0.069
Mof_C 	C 	0.9087	0.7916	0.3249	-0.111
Mof_H 	H 	0.8994	0.8115	0.3658	0.063
Mof_C 	C 	0.1205	0.8357	0.1829	-0.461
Mof_H 	H 	0.2033	0.851	0.2089	0.174
Mof_H 	H 	0.1478	0.7988	0.151	0.17
Mof_C 	C 	0.0574	0.9071	0.1489	0.421
Mof_Cu	Cu	0.29918	0.00659	0.02393	0.903
Mof_Cu	Cu	0.00104	0.97842	0.92825	0.919
Mof_O 	O 	0.3127	0.0957	0.0816	-0.461
Mof_O 	O 	0.1072	0.0973	0.12553	-0.44
Mof_O 	O 	0.0498	0.4374	0.3334	-0.343
Mof_O 	O 	0.881	0.4324	0.3986	-0.451
Mof_O 	O 	0.123	0.0402	0.98512	-0.697
Mof_H 	H 	0.132	0.0889	0.984	0.264
Mof_N 	N 	0.2778	0.9098	0.9681	-0.189
Mof_N 	N 	0.1499	0.8969	0.9365	-0.187
Mof_N 	N 	0.2845	0.7985	0.9188	-0.114
Mof_N 	N 	0.5799	0.5673	0.5566	-0.162
Mof_N 	N 	0.4557	0.5399	0.5778	-0.193
Mof_N 	N 	0.5776	0.5875	0.6592	-0.11
Mof_C 	C 	0.3559	0.8495	0.9569	0.09
Mof_H 	H 	0.4475	0.8431	0.9731	0.001
Mof_C 	C 	0.1566	0.8292	0.9081	0.081
Mof_H 	H 	0.0835	0.8057	0.8839	0.012
Mof_C 	C 	0.3321	0.7249	0.8925	-0.182
Mof_H 	H 	0.406	0.7039	0.9215	0.079
Mof_H 	H 	0.2559	0.688	0.8903	0.081
Mof_C 	C 	0.3847	0.7335	0.8263	0.179
Mof_C 	C 	0.3518	0.7956	0.7857	-0.237
Mof_H 	H 	0.2947	0.8351	0.799	0.121
Mof_C 	C 	0.4029	0.7994	0.7257	0.136
Mof_H 	H 	0.38	0.8412	0.6987	-0.026
Mof_C 	C 	0.4885	0.7407	0.7057	-0.243
Mof_H 	H 	0.5235	0.7436	0.6655	0.116
Mof_C 	C 	0.5219	0.6781	0.7454	0.19
Mof_C 	C 	0.4686	0.6737	0.8054	-0.266
Mof_H 	H 	0.4889	0.631	0.8317	0.111
Mof_C 	C 	0.6187	0.6143	0.7264	-0.204
Mof_H 	H 	0.6147	0.5709	0.7559	0.093
Mof_H 	H 	0.7134	0.6335	0.7288	0.107
Mof_C 	C 	0.6492	0.5947	0.607	0.084
Mof_H 	H 	0.7373	0.6167	0.6069	0.003
Mof_C 	C 	0.4577	0.5531	0.6393	0.094
Mof_H 	H 	0.3868	0.5405	0.6653	-0.002
Mof_C 	C 	0.2262	0.1233	0.1178	0.47
Mof_C 	C 	0.2767	0.1932	0.1566	-0.484
Mof_H 	H 	0.3565	0.1777	0.1846	0.184
Mof_H 	H 	0.3079	0.2322	0.1273	0.175
Mof_C 	C 	0.1713	0.2302	0.1971	0.175
Mof_C 	C 	0.1549	0.2024	0.2588	-0.099
Mof_H 	H 	0.2075	0.1604	0.2749	0.066
Mof_C 	C 	0.0598	0.2375	0.296	-0.12
Mof_H 	H 	0.0517	0.2192	0.3374	0.068
Mof_C 	C 	0.9792	0.2967	0.2748	0.177
Mof_C 	C 	0.9952	0.3245	0.2143	-0.11
Mof_H 	H 	0.941	0.3662	0.1989	0.069
Mof_C 	C 	0.0913	0.2916	0.1751	-0.113
Mof_H 	H 	0.1006	0.3115	0.1342	0.063
Mof_C 	C 	0.8795	0.3357	0.3171	-0.463
Mof_H 	H 	0.7967	0.351	0.2911	0.175
Mof_H 	H 	0.8522	0.2988	0.349	0.171
Mof_C 	C 	0.9426	0.4071	0.3511	0.426
_end
