data_functionalizedCrystal
_audit_creation_method	'EQeq! by Chris Wilmer'
_symmetry_space_group_name_H-M	'P1'
_symmetry_Int_Tables_number	1
_symmetry_cell_setting	triclinic
loop_
_symmetry_equiv_pos_as_xyz
  x,y,z
_cell_length_a	9.3803
_cell_length_b	10.1395
_cell_length_c	10.9816
_cell_angle_alpha	87.659
_cell_angle_beta	81.273
_cell_angle_gamma	63.599
loop_
_atom_site_label
_atom_site_type_symbol
_atom_site_fract_x
_atom_site_fract_y
_atom_site_fract_z
_atom_site_charge
Mof_Cd	Cd	0.20189	0.37602	0.37999	0.521
Mof_Cd	Cd	0.40147	0.10063	0.15032	0.544
Mof_C 	C 	0.97216	0.06691	0.34456	-0.06
Mof_C 	C 	0.02899	0.91501	0.34987	0.023
Mof_H 	H 	0.1404	0.8538	0.3368	0.075
Mof_C 	C 	0.92212	0.8526	0.37436	-0.055
Mof_C 	C 	0.75657	0.94353	0.38615	0.025
Mof_H 	H 	0.6839	0.902	0.3988	0.066
Mof_C 	C 	0.69931	0.09563	0.37913	-0.056
Mof_C 	C 	0.80733	0.15757	0.36346	0.021
Mof_H 	H 	0.7685	0.2605	0.3657	0.075
Mof_C 	C 	0.09148	0.1295	0.31092	0.331
Mof_C 	C 	0.98678	0.68901	0.38585	0.312
Mof_C 	C 	0.52289	0.19233	0.38266	0.302
Mof_O 	O 	0.21803	0.04463	0.24434	-0.262
Mof_O 	O 	0.05511	0.2563	0.34903	-0.269
Mof_O 	O 	0.89057	0.63273	0.41712	-0.254
Mof_O 	O 	0.1366	0.61285	0.36056	-0.237
Mof_O 	O 	0.464	0.32602	0.41155	-0.231
Mof_O 	O 	0.43587	0.13482	0.35384	-0.276
Mof_Cl	Cl	0.29976	0.37051	0.12957	-0.288
Mof_Cl	Cl	0.68164	0.94563	0.06398	-0.307
Mof_Cd	Cd	0.79811	0.62398	0.62001	0.521
Mof_Cd	Cd	0.59853	0.89937	0.84968	0.544
Mof_C 	C 	0.02784	0.93309	0.65544	-0.06
Mof_C 	C 	0.97101	0.08499	0.65013	0.023
Mof_H 	H 	0.8596	0.1462	0.6632	0.075
Mof_C 	C 	0.07788	0.1474	0.62564	-0.055
Mof_C 	C 	0.24343	0.05647	0.61385	0.025
Mof_H 	H 	0.3161	0.098	0.6012	0.066
Mof_C 	C 	0.30069	0.90437	0.62087	-0.056
Mof_C 	C 	0.19267	0.84243	0.63654	0.021
Mof_H 	H 	0.2315	0.7395	0.6343	0.075
Mof_C 	C 	0.90852	0.8705	0.68908	0.331
Mof_C 	C 	0.01322	0.31099	0.61415	0.312
Mof_C 	C 	0.47711	0.80767	0.61734	0.302
Mof_O 	O 	0.78197	0.95537	0.75566	-0.262
Mof_O 	O 	0.94489	0.7437	0.65097	-0.269
Mof_O 	O 	0.10943	0.36727	0.58288	-0.254
Mof_O 	O 	0.8634	0.38715	0.63944	-0.237
Mof_O 	O 	0.536	0.67398	0.58845	-0.231
Mof_O 	O 	0.56413	0.86518	0.64616	-0.276
Mof_Cl	Cl	0.70024	0.62949	0.87043	-0.288
Mof_Cl	Cl	0.31836	0.05437	0.93602	-0.307
_end
