data_functionalizedCrystal
_audit_creation_method	'EQeq! by Chris Wilmer'
_symmetry_space_group_name_H-M	'P1'
_symmetry_Int_Tables_number	1
_symmetry_cell_setting	triclinic
loop_
_symmetry_equiv_pos_as_xyz
  x,y,z
_cell_length_a	11.7865
_cell_length_b	16.716
_cell_length_c	52.892
_cell_angle_alpha	90
_cell_angle_beta	90
_cell_angle_gamma	90
loop_
_atom_site_label
_atom_site_type_symbol
_atom_site_fract_x
_atom_site_fract_y
_atom_site_fract_z
_atom_site_charge
Mof_C 	C 	0.8123	0.4367	0.85722	0.305
Mof_C 	C 	0.772	0.5039	0.87345	-0.057
Mof_C 	C 	0.6967	0.5594	0.86376	-0.019
Mof_H 	H 	0.6692	0.5533	0.8474	0.053
Mof_C 	C 	0.6622	0.6233	0.87801	-0.027
Mof_H 	H 	0.6092	0.6592	0.8716	0.062
Mof_C 	C 	0.7069	0.6342	0.90208	-0.059
Mof_C 	C 	0.7817	0.5796	0.91162	-0.016
Mof_H 	H 	0.811	0.587	0.9278	0.055
Mof_C 	C 	0.8148	0.5135	0.89765	-0.032
Mof_H 	H 	0.8648	0.4762	0.9044	0.065
Mof_C 	C 	0.6707	0.7043	0.9175	0.31
Mof_C 	C 	0.0597	0.2075	0.82965	0.299
Mof_C 	C 	0.1398	0.1385	0.8332	-0.063
Mof_C 	C 	0.1454	0.0989	0.85579	-0.02
Mof_H 	H 	0.0995	0.1147	0.8692	0.054
Mof_C 	C 	0.2191	0.0354	0.85875	-0.026
Mof_H 	H 	0.2211	0.0086	0.8742	0.056
Mof_C 	C 	0.2896	0.0106	0.83957	-0.053
Mof_C 	C 	0.2808	0.0488	0.81639	-0.028
Mof_H 	H 	0.3259	0.0321	0.803	0.057
Mof_C 	C 	0.2061	0.1111	0.81303	-0.02
Mof_H 	H 	0.1996	0.1351	0.7972	0.046
Mof_C 	C 	0.3728	0.9414	0.84315	0.324
Mof_C 	C 	0.8694	0.3135	0.76371	0.126
Mof_H 	H 	0.9227	0.2733	0.7663	0.003
Mof_C 	C 	0.8157	0.3157	0.74012	-0.206
Mof_H 	H 	0.8361	0.2796	0.7275	0.119
Mof_C 	C 	0.7336	0.3708	0.7357	0.161
Mof_C 	C 	0.7159	0.4243	0.75467	-0.204
Mof_H 	H 	0.664	0.4658	0.7526	0.103
Mof_C 	C 	0.7758	0.4165	0.77697	0.123
Mof_H 	H 	0.7604	0.4538	0.7896	0.008
Mof_C 	C 	0.6677	0.3739	0.71185	-0.102
Mof_C 	C 	0.6998	0.3286	0.69103	0.067
Mof_H 	H 	0.7634	0.2959	0.6923	0.019
Mof_C 	C 	0.641	0.3303	0.66847	-0.178
Mof_H 	H 	0.6656	0.2995	0.6549	0.104
Mof_C 	C 	0.5456	0.3776	0.66608	0.169
Mof_C 	C 	0.5136	0.4237	0.6869	-0.174
Mof_H 	H 	0.4506	0.457	0.6857	0.108
Mof_C 	C 	0.5736	0.4207	0.70917	0.069
Mof_H 	H 	0.5493	0.4514	0.7228	0.005
Mof_C 	C 	0.5	0.3602	0.61961	0.186
Mof_C 	C 	0.4065	0.3423	0.60447	-0.197
Mof_H 	H 	0.334	0.3454	0.6113	0.122
Mof_C 	C 	0.4192	0.3206	0.58	0.089
Mof_H 	H 	0.3552	0.3102	0.5703	0.006
Mof_C 	C 	0.5271	0.3135	0.56897	-0.124
Mof_C 	C 	0.6188	0.332	0.58468	0.092
Mof_H 	H 	0.6916	0.3292	0.578	0.01
Mof_C 	C 	0.6066	0.354	0.60928	-0.207
Mof_H 	H 	0.6703	0.3647	0.6191	0.12
Mof_C 	C 	0.4648	0.253	0.50224	0.138
Mof_H 	H 	0.4007	0.2475	0.4921	0.003
Mof_C 	C 	0.449	0.2816	0.52638	-0.219
Mof_H 	H 	0.3774	0.2979	0.5317	0.114
Mof_C 	C 	0.5405	0.2861	0.54263	0.19
Mof_C 	C 	0.6394	0.27	0.53193	-0.248
Mof_H 	H 	0.7063	0.2786	0.5408	0.132
Mof_C 	C 	0.6436	0.2403	0.50736	0.169
Mof_H 	H 	0.7145	0.2242	0.5016	-0.021
Mof_C 	C 	0.1385	0.2066	0.92366	0.332
Mof_C 	C 	0.2151	0.1353	0.92735	-0.069
Mof_C 	C 	0.1966	0.0853	0.94748	-0.017
Mof_H 	H 	0.1367	0.0954	0.9585	0.053
Mof_C 	C 	0.2661	0.0198	0.95158	-0.026
Mof_H 	H 	0.2546	0.9871	0.9656	0.056
Mof_C 	C 	0.3527	0.0032	0.93473	-0.058
Mof_C 	C 	0.3705	0.0542	0.91509	-0.025
Mof_H 	H 	0.4297	0.0443	0.9039	0.054
Mof_C 	C 	0.3027	0.1196	0.91151	-0.018
Mof_H 	H 	0.317	0.1538	0.898	0.052
Mof_C 	C 	0.4261	0.9327	0.93931	0.301
Mof_Cd	Cd	0.91535	0.33579	0.82221	0.449
Mof_Cd	Cd	0.0249	0.32415	0.88513	0.509
Mof_Cd	Cd	0.56716	0.80678	0.95058	0.447
Mof_N 	N 	0.8517	0.3622	0.78221	-0.172
Mof_N 	N 	0.5631	0.2326	0.4922	-0.183
Mof_N 	N 	0.4766	0.3836	0.64448	-0.157
Mof_O 	O 	0.7805	0.4337	0.83476	-0.275
Mof_O 	O 	0.8754	0.3826	0.86608	-0.29
Mof_O 	O 	0.6221	0.76141	0.90693	-0.292
Mof_O 	O 	0.6906	0.70462	0.9407	-0.281
Mof_O 	O 	0.0174	0.24122	0.84882	-0.297
Mof_O 	O 	0.0352	0.2302	0.80783	-0.287
Mof_O 	O 	0.3662	0.90806	0.86437	-0.295
Mof_O 	O 	0.4404	0.92676	0.8261	-0.286
Mof_O 	O 	0.4848	0.90376	0.92158	-0.297
Mof_O 	O 	0.4302	0.9033	0.96091	-0.274
Mof_O 	O 	0.0779	0.224	0.94215	-0.292
Mof_O 	O 	0.1424	0.24051	0.90306	-0.303
Mof_C 	C 	0.6877	0.0633	0.35722	0.306
Mof_C 	C 	0.728	0.9961	0.37345	-0.058
Mof_C 	C 	0.8033	0.9406	0.36376	-0.016
Mof_H 	H 	0.8308	0.9467	0.3474	0.054
Mof_C 	C 	0.8378	0.8767	0.37801	-0.029
Mof_H 	H 	0.8908	0.8408	0.3716	0.064
Mof_C 	C 	0.7931	0.8658	0.40208	-0.058
Mof_C 	C 	0.7183	0.9204	0.41162	-0.018
Mof_H 	H 	0.689	0.913	0.4278	0.055
Mof_C 	C 	0.6852	0.9865	0.39765	-0.03
Mof_H 	H 	0.6352	0.0238	0.4044	0.062
Mof_C 	C 	0.8293	0.7957	0.4175	0.31
Mof_C 	C 	0.4403	0.2925	0.32965	0.298
Mof_C 	C 	0.3602	0.3615	0.3332	-0.061
Mof_C 	C 	0.3546	0.4011	0.35579	-0.022
Mof_H 	H 	0.4005	0.3853	0.3692	0.056
Mof_C 	C 	0.2809	0.4646	0.35875	-0.024
Mof_H 	H 	0.2789	0.4914	0.3742	0.055
Mof_C 	C 	0.2104	0.4894	0.33957	-0.055
Mof_C 	C 	0.2192	0.4512	0.31639	-0.026
Mof_H 	H 	0.1741	0.4679	0.303	0.056
Mof_C 	C 	0.2939	0.3889	0.31303	-0.022
Mof_H 	H 	0.3004	0.3649	0.2972	0.047
Mof_C 	C 	0.1272	0.5586	0.34315	0.326
Mof_C 	C 	0.6306	0.1865	0.26371	0.125
Mof_H 	H 	0.5773	0.2267	0.2663	0.002
Mof_C 	C 	0.6843	0.1843	0.24012	-0.205
Mof_H 	H 	0.6639	0.2204	0.2275	0.118
Mof_C 	C 	0.7664	0.1292	0.2357	0.158
Mof_C 	C 	0.7841	0.0757	0.25467	-0.203
Mof_H 	H 	0.836	0.0342	0.2526	0.103
Mof_C 	C 	0.7242	0.0835	0.27697	0.122
Mof_H 	H 	0.7396	0.0462	0.2896	0.009
Mof_C 	C 	0.8323	0.1261	0.21185	-0.096
Mof_C 	C 	0.8002	0.1714	0.19103	0.062
Mof_H 	H 	0.7366	0.2041	0.1923	0.021
Mof_C 	C 	0.859	0.1697	0.16847	-0.173
Mof_H 	H 	0.8344	0.2005	0.1549	0.103
Mof_C 	C 	0.9544	0.1224	0.16608	0.167
Mof_C 	C 	0.9864	0.0763	0.1869	-0.157
Mof_H 	H 	0.0494	0.043	0.1857	0.098
Mof_C 	C 	0.9264	0.0793	0.20917	0.059
Mof_H 	H 	0.9507	0.0486	0.2228	0.01
Mof_C 	C 	-7.67705e-33	0.1398	0.11961	0.167
Mof_C 	C 	0.0935	0.1577	0.10447	-0.18
Mof_H 	H 	0.166	0.1546	0.1113	0.116
Mof_C 	C 	0.0808	0.1794	0.08	0.067
Mof_H 	H 	0.1448	0.1898	0.0703	0.013
Mof_C 	C 	0.9729	0.1865	0.06897	-0.107
Mof_C 	C 	0.8812	0.168	0.08468	0.076
Mof_H 	H 	0.8084	0.1708	0.078	0.016
Mof_C 	C 	0.8934	0.146	0.10928	-0.184
Mof_H 	H 	0.8297	0.1353	0.1191	0.112
Mof_C 	C 	0.0352	0.247	0.00224	0.131
Mof_H 	H 	0.0993	0.2525	0.9921	0.004
Mof_C 	C 	0.051	0.2184	0.02638	-0.222
Mof_H 	H 	0.1226	0.2021	0.0317	0.113
Mof_C 	C 	0.9595	0.2139	0.04263	0.19
Mof_C 	C 	0.8606	0.23	0.03193	-0.245
Mof_H 	H 	0.7937	0.2214	0.0408	0.131
Mof_C 	C 	0.8564	0.2597	0.00736	0.169
Mof_H 	H 	0.7855	0.2758	0.0016	-0.021
Mof_C 	C 	0.3615	0.2934	0.42366	0.331
Mof_C 	C 	0.2849	0.3647	0.42735	-0.067
Mof_C 	C 	0.3034	0.4147	0.44748	-0.018
Mof_H 	H 	0.3633	0.4046	0.4585	0.054
Mof_C 	C 	0.2339	0.4802	0.45158	-0.025
Mof_H 	H 	0.2454	0.5129	0.4656	0.056
Mof_C 	C 	0.1473	0.4968	0.43473	-0.06
Mof_C 	C 	0.1295	0.4458	0.41509	-0.024
Mof_H 	H 	0.0703	0.4557	0.4039	0.052
Mof_C 	C 	0.1973	0.3804	0.41151	-0.019
Mof_H 	H 	0.183	0.3462	0.398	0.052
Mof_C 	C 	0.0739	0.5673	0.43931	0.302
Mof_Cd	Cd	0.58465	0.16421	0.32221	0.445
Mof_Cd	Cd	0.4751	0.17585	0.38513	0.513
Mof_Cd	Cd	0.93284	0.69322	0.45058	0.452
Mof_N 	N 	0.6483	0.1378	0.28221	-0.172
Mof_N 	N 	0.9369	0.2674	0.9922	-0.18
Mof_N 	N 	0.0234	0.1164	0.14448	-0.156
Mof_O 	O 	0.7195	0.0663	0.33476	-0.275
Mof_O 	O 	0.6246	0.1174	0.36608	-0.292
Mof_O 	O 	0.8779	0.73859	0.40693	-0.29
Mof_O 	O 	0.8094	0.79538	0.4407	-0.281
Mof_O 	O 	0.4826	0.25878	0.34882	-0.294
Mof_O 	O 	0.4648	0.2698	0.30783	-0.284
Mof_O 	O 	0.1338	0.59194	0.36437	-0.296
Mof_O 	O 	0.0596	0.57324	0.3261	-0.289
Mof_O 	O 	0.0152	0.59624	0.42158	-0.3
Mof_O 	O 	0.0698	0.5967	0.46091	-0.276
Mof_O 	O 	0.4221	0.276	0.44215	-0.29
Mof_O 	O 	0.3576	0.25949	0.40306	-0.302
Mof_C 	C 	0.8123	0.5633	0.35722	0.306
Mof_C 	C 	0.772	0.4961	0.37345	-0.056
Mof_C 	C 	0.6967	0.4406	0.36376	-0.018
Mof_H 	H 	0.6692	0.4467	0.3474	0.053
Mof_C 	C 	0.6622	0.3767	0.37801	-0.027
Mof_H 	H 	0.6092	0.3408	0.3716	0.062
Mof_C 	C 	0.7069	0.3658	0.40208	-0.059
Mof_C 	C 	0.7817	0.4204	0.41162	-0.016
Mof_H 	H 	0.811	0.413	0.4278	0.055
Mof_C 	C 	0.8148	0.4865	0.39765	-0.032
Mof_H 	H 	0.8648	0.5238	0.4044	0.065
Mof_C 	C 	0.6707	0.2957	0.4175	0.31
Mof_C 	C 	0.0597	0.7925	0.32965	0.299
Mof_C 	C 	0.1398	0.8615	0.3332	-0.063
Mof_C 	C 	0.1454	0.9011	0.35579	-0.02
Mof_H 	H 	0.0995	0.8853	0.3692	0.054
Mof_C 	C 	0.2191	0.9646	0.35875	-0.026
Mof_H 	H 	0.2211	0.9914	0.3742	0.056
Mof_C 	C 	0.2896	0.9894	0.33957	-0.053
Mof_C 	C 	0.2808	0.9512	0.31639	-0.028
Mof_H 	H 	0.3259	0.9679	0.303	0.057
Mof_C 	C 	0.2061	0.8889	0.31303	-0.02
Mof_H 	H 	0.1996	0.8649	0.2972	0.046
Mof_C 	C 	0.3728	0.0586	0.34315	0.324
Mof_C 	C 	0.8694	0.6865	0.26371	0.126
Mof_H 	H 	0.9227	0.7267	0.2663	0.003
Mof_C 	C 	0.8157	0.6843	0.24012	-0.206
Mof_H 	H 	0.8361	0.7204	0.2275	0.119
Mof_C 	C 	0.7336	0.6292	0.2357	0.161
Mof_C 	C 	0.7159	0.5757	0.25467	-0.204
Mof_H 	H 	0.664	0.5342	0.2526	0.103
Mof_C 	C 	0.7758	0.5835	0.27697	0.123
Mof_H 	H 	0.7604	0.5462	0.2896	0.008
Mof_C 	C 	0.6677	0.6261	0.21185	-0.102
Mof_C 	C 	0.6998	0.6714	0.19103	0.067
Mof_H 	H 	0.7634	0.7041	0.1923	0.019
Mof_C 	C 	0.641	0.6697	0.16847	-0.178
Mof_H 	H 	0.6656	0.7005	0.1549	0.104
Mof_C 	C 	0.5456	0.6224	0.16608	0.169
Mof_C 	C 	0.5136	0.5763	0.1869	-0.174
Mof_H 	H 	0.4506	0.543	0.1857	0.108
Mof_C 	C 	0.5736	0.5793	0.20917	0.069
Mof_H 	H 	0.5493	0.5486	0.2228	0.005
Mof_C 	C 	0.5	0.6398	0.11961	0.186
Mof_C 	C 	0.4065	0.6577	0.10447	-0.197
Mof_H 	H 	0.334	0.6546	0.1113	0.122
Mof_C 	C 	0.4192	0.6794	0.08	0.089
Mof_H 	H 	0.3552	0.6898	0.0703	0.006
Mof_C 	C 	0.5271	0.6865	0.06897	-0.124
Mof_C 	C 	0.6188	0.668	0.08468	0.092
Mof_H 	H 	0.6916	0.6708	0.078	0.01
Mof_C 	C 	0.6066	0.646	0.10928	-0.207
Mof_H 	H 	0.6703	0.6353	0.1191	0.12
Mof_C 	C 	0.4648	0.747	0.00224	0.138
Mof_H 	H 	0.4007	0.7525	0.9921	0.003
Mof_C 	C 	0.449	0.7184	0.02638	-0.219
Mof_H 	H 	0.3774	0.7021	0.0317	0.114
Mof_C 	C 	0.5405	0.7139	0.04263	0.19
Mof_C 	C 	0.6394	0.73	0.03193	-0.248
Mof_H 	H 	0.7063	0.7214	0.0408	0.132
Mof_C 	C 	0.6436	0.7597	0.00736	0.169
Mof_H 	H 	0.7145	0.7758	0.0016	-0.021
Mof_C 	C 	0.1385	0.7934	0.42366	0.332
Mof_C 	C 	0.2151	0.8647	0.42735	-0.069
Mof_C 	C 	0.1966	0.9147	0.44748	-0.017
Mof_H 	H 	0.1367	0.9046	0.4585	0.053
Mof_C 	C 	0.2661	0.9802	0.45158	-0.026
Mof_H 	H 	0.2546	0.0129	0.4656	0.056
Mof_C 	C 	0.3527	0.9968	0.43473	-0.058
Mof_C 	C 	0.3705	0.9458	0.41509	-0.025
Mof_H 	H 	0.4297	0.9557	0.4039	0.054
Mof_C 	C 	0.3027	0.8804	0.41151	-0.018
Mof_H 	H 	0.317	0.8462	0.398	0.052
Mof_C 	C 	0.4261	0.0673	0.43931	0.301
Mof_Cd	Cd	0.91535	0.66421	0.32221	0.449
Mof_Cd	Cd	0.0249	0.67585	0.38513	0.509
Mof_Cd	Cd	0.56716	0.19322	0.45058	0.447
Mof_N 	N 	0.8517	0.6378	0.28221	-0.172
Mof_N 	N 	0.5631	0.7674	0.9922	-0.183
Mof_N 	N 	0.4766	0.6164	0.14448	-0.157
Mof_O 	O 	0.7805	0.5663	0.33476	-0.275
Mof_O 	O 	0.8754	0.6174	0.36608	-0.29
Mof_O 	O 	0.6221	0.23859	0.40693	-0.292
Mof_O 	O 	0.6906	0.29538	0.4407	-0.281
Mof_O 	O 	0.0174	0.75878	0.34882	-0.297
Mof_O 	O 	0.0352	0.7698	0.30783	-0.287
Mof_O 	O 	0.3662	0.09194	0.36437	-0.295
Mof_O 	O 	0.4404	0.07324	0.3261	-0.286
Mof_O 	O 	0.4848	0.09624	0.42158	-0.297
Mof_O 	O 	0.4302	0.0967	0.46091	-0.274
Mof_O 	O 	0.0779	0.776	0.44215	-0.292
Mof_O 	O 	0.1424	0.75949	0.40306	-0.303
Mof_C 	C 	0.6877	0.9367	0.85722	0.306
Mof_C 	C 	0.728	0.0039	0.87345	-0.058
Mof_C 	C 	0.8033	0.0594	0.86376	-0.016
Mof_H 	H 	0.8308	0.0533	0.8474	0.054
Mof_C 	C 	0.8378	0.1233	0.87801	-0.029
Mof_H 	H 	0.8908	0.1592	0.8716	0.064
Mof_C 	C 	0.7931	0.1342	0.90208	-0.058
Mof_C 	C 	0.7183	0.0796	0.91162	-0.018
Mof_H 	H 	0.689	0.087	0.9278	0.055
Mof_C 	C 	0.6852	0.0135	0.89765	-0.03
Mof_H 	H 	0.6352	0.9762	0.9044	0.062
Mof_C 	C 	0.8293	0.2043	0.9175	0.31
Mof_C 	C 	0.4403	0.7075	0.82965	0.298
Mof_C 	C 	0.3602	0.6385	0.8332	-0.061
Mof_C 	C 	0.3546	0.5989	0.85579	-0.022
Mof_H 	H 	0.4005	0.6147	0.8692	0.056
Mof_C 	C 	0.2809	0.5354	0.85875	-0.024
Mof_H 	H 	0.2789	0.5086	0.8742	0.055
Mof_C 	C 	0.2104	0.5106	0.83957	-0.055
Mof_C 	C 	0.2192	0.5488	0.81639	-0.026
Mof_H 	H 	0.1741	0.5321	0.803	0.056
Mof_C 	C 	0.2939	0.6111	0.81303	-0.022
Mof_H 	H 	0.3004	0.6351	0.7972	0.047
Mof_C 	C 	0.1272	0.4414	0.84315	0.326
Mof_C 	C 	0.6306	0.8135	0.76371	0.125
Mof_H 	H 	0.5773	0.7733	0.7663	0.002
Mof_C 	C 	0.6843	0.8157	0.74012	-0.205
Mof_H 	H 	0.6639	0.7796	0.7275	0.118
Mof_C 	C 	0.7664	0.8708	0.7357	0.158
Mof_C 	C 	0.7841	0.9243	0.75467	-0.203
Mof_H 	H 	0.836	0.9658	0.7526	0.103
Mof_C 	C 	0.7242	0.9165	0.77697	0.122
Mof_H 	H 	0.7396	0.9538	0.7896	0.009
Mof_C 	C 	0.8323	0.8739	0.71185	-0.096
Mof_C 	C 	0.8002	0.8286	0.69103	0.062
Mof_H 	H 	0.7366	0.7959	0.6923	0.021
Mof_C 	C 	0.859	0.8303	0.66847	-0.173
Mof_H 	H 	0.8344	0.7995	0.6549	0.103
Mof_C 	C 	0.9544	0.8776	0.66608	0.167
Mof_C 	C 	0.9864	0.9237	0.6869	-0.157
Mof_H 	H 	0.0494	0.957	0.6857	0.098
Mof_C 	C 	0.9264	0.9207	0.70917	0.059
Mof_H 	H 	0.9507	0.9514	0.7228	0.01
Mof_C 	C 	-2.83329e-32	0.8602	0.61961	0.167
Mof_C 	C 	0.0935	0.8423	0.60447	-0.18
Mof_H 	H 	0.166	0.8454	0.6113	0.116
Mof_C 	C 	0.0808	0.8206	0.58	0.067
Mof_H 	H 	0.1448	0.8102	0.5703	0.013
Mof_C 	C 	0.9729	0.8135	0.56897	-0.107
Mof_C 	C 	0.8812	0.832	0.58468	0.076
Mof_H 	H 	0.8084	0.8292	0.578	0.016
Mof_C 	C 	0.8934	0.854	0.60928	-0.184
Mof_H 	H 	0.8297	0.8647	0.6191	0.112
Mof_C 	C 	0.0352	0.753	0.50224	0.131
Mof_H 	H 	0.0993	0.7475	0.4921	0.004
Mof_C 	C 	0.051	0.7816	0.52638	-0.222
Mof_H 	H 	0.1226	0.7979	0.5317	0.113
Mof_C 	C 	0.9595	0.7861	0.54263	0.19
Mof_C 	C 	0.8606	0.77	0.53193	-0.245
Mof_H 	H 	0.7937	0.7786	0.5408	0.131
Mof_C 	C 	0.8564	0.7403	0.50736	0.169
Mof_H 	H 	0.7855	0.7242	0.5016	-0.021
Mof_C 	C 	0.3615	0.7066	0.92366	0.331
Mof_C 	C 	0.2849	0.6353	0.92735	-0.067
Mof_C 	C 	0.3034	0.5853	0.94748	-0.018
Mof_H 	H 	0.3633	0.5954	0.9585	0.054
Mof_C 	C 	0.2339	0.5198	0.95158	-0.025
Mof_H 	H 	0.2454	0.4871	0.9656	0.056
Mof_C 	C 	0.1473	0.5032	0.93473	-0.06
Mof_C 	C 	0.1295	0.5542	0.91509	-0.024
Mof_H 	H 	0.0703	0.5443	0.9039	0.052
Mof_C 	C 	0.1973	0.6196	0.91151	-0.019
Mof_H 	H 	0.183	0.6538	0.898	0.052
Mof_C 	C 	0.0739	0.4327	0.93931	0.302
Mof_Cd	Cd	0.58465	0.83579	0.82221	0.445
Mof_Cd	Cd	0.4751	0.82415	0.88513	0.513
Mof_Cd	Cd	0.93284	0.30678	0.95058	0.452
Mof_N 	N 	0.6483	0.8622	0.78221	-0.172
Mof_N 	N 	0.9369	0.7326	0.4922	-0.18
Mof_N 	N 	0.0234	0.8836	0.64448	-0.156
Mof_O 	O 	0.7195	0.9337	0.83476	-0.275
Mof_O 	O 	0.6246	0.8826	0.86608	-0.292
Mof_O 	O 	0.8779	0.26141	0.90693	-0.29
Mof_O 	O 	0.8094	0.20462	0.9407	-0.281
Mof_O 	O 	0.4826	0.74122	0.84882	-0.294
Mof_O 	O 	0.4648	0.7302	0.80783	-0.284
Mof_O 	O 	0.1338	0.40806	0.86437	-0.296
Mof_O 	O 	0.0596	0.42676	0.8261	-0.289
Mof_O 	O 	0.0152	0.40376	0.92158	-0.3
Mof_O 	O 	0.0698	0.4033	0.96091	-0.276
Mof_O 	O 	0.4221	0.724	0.94215	-0.29
Mof_O 	O 	0.3576	0.74051	0.90306	-0.302
Mof_C 	C 	0.1877	0.4367	0.64278	0.307
Mof_C 	C 	0.228	0.5039	0.62655	-0.059
Mof_C 	C 	0.3033	0.5594	0.63624	-0.017
Mof_H 	H 	0.3308	0.5533	0.6526	0.053
Mof_C 	C 	0.3378	0.6233	0.62199	-0.029
Mof_H 	H 	0.3908	0.6592	0.6284	0.062
Mof_C 	C 	0.2931	0.6342	0.59792	-0.059
Mof_C 	C 	0.2183	0.5796	0.58838	-0.018
Mof_H 	H 	0.189	0.587	0.5722	0.054
Mof_C 	C 	0.1852	0.5135	0.60235	-0.032
Mof_H 	H 	0.1352	0.4762	0.5956	0.061
Mof_C 	C 	0.3293	0.7043	0.5825	0.31
Mof_C 	C 	0.9403	0.2075	0.67035	0.298
Mof_C 	C 	0.8602	0.1385	0.6668	-0.061
Mof_C 	C 	0.8546	0.0989	0.64421	-0.022
Mof_H 	H 	0.9005	0.1147	0.6308	0.057
Mof_C 	C 	0.7809	0.0354	0.64125	-0.024
Mof_H 	H 	0.7789	0.0086	0.6258	0.056
Mof_C 	C 	0.7104	0.0106	0.66043	-0.054
Mof_C 	C 	0.7192	0.0488	0.68361	-0.026
Mof_H 	H 	0.6741	0.0321	0.697	0.057
Mof_C 	C 	0.7939	0.1111	0.68697	-0.022
Mof_H 	H 	0.8004	0.1351	0.7028	0.048
Mof_C 	C 	0.6272	0.9414	0.65685	0.325
Mof_C 	C 	0.1306	0.3135	0.73629	0.125
Mof_H 	H 	0.0773	0.2733	0.7337	-0
Mof_C 	C 	0.1843	0.3157	0.75988	-0.208
Mof_H 	H 	0.1639	0.2796	0.7725	0.118
Mof_C 	C 	0.2664	0.3708	0.7643	0.161
Mof_C 	C 	0.2841	0.4243	0.74533	-0.205
Mof_H 	H 	0.336	0.4658	0.7474	0.103
Mof_C 	C 	0.2242	0.4165	0.72303	0.122
Mof_H 	H 	0.2396	0.4538	0.7104	0.008
Mof_C 	C 	0.3323	0.3739	0.78815	-0.103
Mof_C 	C 	0.3002	0.3286	0.80897	0.067
Mof_H 	H 	0.2366	0.2959	0.8077	0.019
Mof_C 	C 	0.359	0.3303	0.83153	-0.178
Mof_H 	H 	0.3344	0.2995	0.8451	0.104
Mof_C 	C 	0.4544	0.3776	0.83392	0.17
Mof_C 	C 	0.4864	0.4237	0.8131	-0.175
Mof_H 	H 	0.5494	0.457	0.8143	0.109
Mof_C 	C 	0.4264	0.4207	0.79083	0.069
Mof_H 	H 	0.4507	0.4514	0.7772	0.005
Mof_C 	C 	0.5	0.3602	0.88039	0.186
Mof_C 	C 	0.5935	0.3423	0.89553	-0.197
Mof_H 	H 	0.666	0.3454	0.8887	0.123
Mof_C 	C 	0.5808	0.3206	0.92	0.09
Mof_H 	H 	0.6448	0.3102	0.9297	0.006
Mof_C 	C 	0.4729	0.3135	0.93103	-0.125
Mof_C 	C 	0.3812	0.332	0.91532	0.093
Mof_H 	H 	0.3084	0.3292	0.922	0.01
Mof_C 	C 	0.3934	0.354	0.89072	-0.207
Mof_H 	H 	0.3297	0.3647	0.8809	0.12
Mof_C 	C 	0.5352	0.253	0.99776	0.138
Mof_H 	H 	0.5993	0.2475	0.0079	0.003
Mof_C 	C 	0.551	0.2816	0.97362	-0.219
Mof_H 	H 	0.6226	0.2979	0.9683	0.114
Mof_C 	C 	0.4595	0.2861	0.95737	0.19
Mof_C 	C 	0.3606	0.27	0.96807	-0.248
Mof_H 	H 	0.2937	0.2786	0.9592	0.132
Mof_C 	C 	0.3564	0.2403	0.99264	0.169
Mof_H 	H 	0.2855	0.2242	0.9984	-0.021
Mof_C 	C 	0.8615	0.2066	0.57634	0.331
Mof_C 	C 	0.7849	0.1353	0.57265	-0.067
Mof_C 	C 	0.8034	0.0853	0.55252	-0.018
Mof_H 	H 	0.8633	0.0954	0.5415	0.055
Mof_C 	C 	0.7339	0.0198	0.54842	-0.025
Mof_H 	H 	0.7454	0.9871	0.5344	0.057
Mof_C 	C 	0.6473	0.0032	0.56527	-0.059
Mof_C 	C 	0.6295	0.0542	0.58491	-0.024
Mof_H 	H 	0.5703	0.0443	0.5961	0.054
Mof_C 	C 	0.6973	0.1196	0.58849	-0.019
Mof_H 	H 	0.683	0.1538	0.602	0.052
Mof_C 	C 	0.5739	0.9327	0.56069	0.301
Mof_Cd	Cd	0.08465	0.33579	0.67779	0.439
Mof_Cd	Cd	0.9751	0.32415	0.61487	0.518
Mof_Cd	Cd	0.43284	0.80678	0.54942	0.446
Mof_N 	N 	0.1483	0.3622	0.71779	-0.173
Mof_N 	N 	0.4369	0.2326	0.0078	-0.183
Mof_N 	N 	0.5234	0.3836	0.85552	-0.157
Mof_O 	O 	0.2195	0.4337	0.66524	-0.276
Mof_O 	O 	0.1246	0.3826	0.63392	-0.295
Mof_O 	O 	0.3779	0.76141	0.59307	-0.292
Mof_O 	O 	0.3094	0.70462	0.5593	-0.282
Mof_O 	O 	0.9826	0.24122	0.65118	-0.292
Mof_O 	O 	0.9648	0.2302	0.69217	-0.281
Mof_O 	O 	0.6338	0.90806	0.63563	-0.295
Mof_O 	O 	0.5596	0.92676	0.6739	-0.286
Mof_O 	O 	0.5152	0.90376	0.57842	-0.297
Mof_O 	O 	0.5698	0.9033	0.53909	-0.274
Mof_O 	O 	0.9221	0.224	0.55785	-0.287
Mof_O 	O 	0.8576	0.24051	0.59694	-0.302
Mof_C 	C 	0.3123	0.0633	0.14278	0.306
Mof_C 	C 	0.272	0.9961	0.12655	-0.057
Mof_C 	C 	0.1967	0.9406	0.13624	-0.019
Mof_H 	H 	0.1692	0.9467	0.1526	0.053
Mof_C 	C 	0.1622	0.8767	0.12199	-0.027
Mof_H 	H 	0.1092	0.8408	0.1284	0.06
Mof_C 	C 	0.2069	0.8658	0.09792	-0.061
Mof_C 	C 	0.2817	0.9204	0.08838	-0.017
Mof_H 	H 	0.311	0.913	0.0722	0.054
Mof_C 	C 	0.3148	0.9865	0.10235	-0.032
Mof_H 	H 	0.3648	0.0238	0.0956	0.063
Mof_C 	C 	0.1707	0.7957	0.0825	0.31
Mof_C 	C 	0.5597	0.2925	0.17035	0.299
Mof_C 	C 	0.6398	0.3615	0.1668	-0.062
Mof_C 	C 	0.6454	0.4011	0.14421	-0.021
Mof_H 	H 	0.5995	0.3853	0.1308	0.056
Mof_C 	C 	0.7191	0.4646	0.14125	-0.025
Mof_H 	H 	0.7211	0.4914	0.1258	0.056
Mof_C 	C 	0.7896	0.4894	0.16043	-0.053
Mof_C 	C 	0.7808	0.4512	0.18361	-0.027
Mof_H 	H 	0.8259	0.4679	0.197	0.057
Mof_C 	C 	0.7061	0.3889	0.18697	-0.021
Mof_H 	H 	0.6996	0.3649	0.2028	0.047
Mof_C 	C 	0.8728	0.5586	0.15685	0.325
Mof_C 	C 	0.3694	0.1865	0.23629	0.126
Mof_H 	H 	0.4227	0.2267	0.2337	0.001
Mof_C 	C 	0.3157	0.1843	0.25988	-0.209
Mof_H 	H 	0.3361	0.2204	0.2725	0.119
Mof_C 	C 	0.2336	0.1292	0.2643	0.163
Mof_C 	C 	0.2159	0.0757	0.24533	-0.207
Mof_H 	H 	0.164	0.0342	0.2474	0.103
Mof_C 	C 	0.2758	0.0835	0.22303	0.123
Mof_H 	H 	0.2604	0.0462	0.2104	0.008
Mof_C 	C 	0.1677	0.1261	0.28815	-0.108
Mof_C 	C 	0.1998	0.1714	0.30897	0.07
Mof_H 	H 	0.2634	0.2041	0.3077	0.018
Mof_C 	C 	0.141	0.1697	0.33153	-0.181
Mof_H 	H 	0.1656	0.2005	0.3451	0.104
Mof_C 	C 	0.0456	0.1224	0.33392	0.17
Mof_C 	C 	0.0136	0.0763	0.3131	-0.19
Mof_H 	H 	0.9506	0.043	0.3143	0.117
Mof_C 	C 	0.0736	0.0793	0.29083	0.078
Mof_H 	H 	0.0493	0.0486	0.2772	-0
Mof_C 	C 	-1.29788e-32	0.1398	0.38039	0.171
Mof_C 	C 	0.9065	0.1577	0.39553	-0.185
Mof_H 	H 	0.834	0.1546	0.3887	0.119
Mof_C 	C 	0.9192	0.1794	0.42	0.089
Mof_H 	H 	0.8552	0.1898	0.4297	0.007
Mof_C 	C 	0.0271	0.1865	0.43103	-0.124
Mof_C 	C 	0.1188	0.168	0.41532	0.087
Mof_H 	H 	0.1916	0.1708	0.422	0.012
Mof_C 	C 	0.1066	0.146	0.39072	-0.199
Mof_H 	H 	0.1703	0.1353	0.3809	0.117
Mof_C 	C 	0.9648	0.247	0.49776	0.14
Mof_H 	H 	0.9007	0.2525	0.5079	0.003
Mof_C 	C 	0.949	0.2184	0.47362	-0.21
Mof_H 	H 	0.8774	0.2021	0.4683	0.111
Mof_C 	C 	0.0405	0.2139	0.45737	0.181
Mof_C 	C 	0.1394	0.23	0.46807	-0.244
Mof_H 	H 	0.2063	0.2214	0.4592	0.13
Mof_C 	C 	0.1436	0.2597	0.49264	0.166
Mof_H 	H 	0.2145	0.2758	0.4984	-0.02
Mof_C 	C 	0.6385	0.2934	0.07634	0.332
Mof_C 	C 	0.7151	0.3647	0.07265	-0.069
Mof_C 	C 	0.6966	0.4147	0.05252	-0.017
Mof_H 	H 	0.6367	0.4046	0.0415	0.054
Mof_C 	C 	0.7661	0.4802	0.04842	-0.027
Mof_H 	H 	0.7546	0.5129	0.0344	0.057
Mof_C 	C 	0.8527	0.4968	0.06527	-0.057
Mof_C 	C 	0.8705	0.4458	0.08491	-0.025
Mof_H 	H 	0.9297	0.4557	0.0961	0.056
Mof_C 	C 	0.8027	0.3804	0.08849	-0.017
Mof_H 	H 	0.817	0.3462	0.102	0.052
Mof_C 	C 	0.9261	0.5673	0.06069	0.301
Mof_Cd	Cd	0.41535	0.16421	0.17779	0.444
Mof_Cd	Cd	0.5249	0.17585	0.11487	0.513
Mof_Cd	Cd	0.06716	0.69322	0.04942	0.441
Mof_N 	N 	0.3517	0.1378	0.21779	-0.173
Mof_N 	N 	0.0631	0.2674	0.5078	-0.186
Mof_N 	N 	0.9766	0.1164	0.35552	-0.151
Mof_O 	O 	0.2805	0.0663	0.16524	-0.276
Mof_O 	O 	0.3754	0.1174	0.13392	-0.292
Mof_O 	O 	0.1221	0.73859	0.09307	-0.294
Mof_O 	O 	0.1906	0.79538	0.0593	-0.282
Mof_O 	O 	0.5174	0.25878	0.15118	-0.295
Mof_O 	O 	0.5352	0.2698	0.19217	-0.284
Mof_O 	O 	0.8662	0.59194	0.13563	-0.295
Mof_O 	O 	0.9404	0.57324	0.1739	-0.283
Mof_O 	O 	0.9848	0.59624	0.07842	-0.294
Mof_O 	O 	0.9302	0.5967	0.03909	-0.271
Mof_O 	O 	0.5779	0.276	0.05785	-0.29
Mof_O 	O 	0.6424	0.25949	0.09694	-0.302
Mof_C 	C 	0.1877	0.5633	0.14278	0.307
Mof_C 	C 	0.228	0.4961	0.12655	-0.059
Mof_C 	C 	0.3033	0.4406	0.13624	-0.017
Mof_H 	H 	0.3308	0.4467	0.1526	0.053
Mof_C 	C 	0.3378	0.3767	0.12199	-0.029
Mof_H 	H 	0.3908	0.3408	0.1284	0.062
Mof_C 	C 	0.2931	0.3658	0.09792	-0.059
Mof_C 	C 	0.2183	0.4204	0.08838	-0.018
Mof_H 	H 	0.189	0.413	0.0722	0.054
Mof_C 	C 	0.1852	0.4865	0.10235	-0.032
Mof_H 	H 	0.1352	0.5238	0.0956	0.061
Mof_C 	C 	0.3293	0.2957	0.0825	0.31
Mof_C 	C 	0.9403	0.7925	0.17035	0.298
Mof_C 	C 	0.8602	0.8615	0.1668	-0.061
Mof_C 	C 	0.8546	0.9011	0.14421	-0.022
Mof_H 	H 	0.9005	0.8853	0.1308	0.057
Mof_C 	C 	0.7809	0.9646	0.14125	-0.024
Mof_H 	H 	0.7789	0.9914	0.1258	0.056
Mof_C 	C 	0.7104	0.9894	0.16043	-0.054
Mof_C 	C 	0.7192	0.9512	0.18361	-0.026
Mof_H 	H 	0.6741	0.9679	0.197	0.057
Mof_C 	C 	0.7939	0.8889	0.18697	-0.022
Mof_H 	H 	0.8004	0.8649	0.2028	0.048
Mof_C 	C 	0.6272	0.0586	0.15685	0.325
Mof_C 	C 	0.1306	0.6865	0.23629	0.125
Mof_H 	H 	0.0773	0.7267	0.2337	-0
Mof_C 	C 	0.1843	0.6843	0.25988	-0.208
Mof_H 	H 	0.1639	0.7204	0.2725	0.118
Mof_C 	C 	0.2664	0.6292	0.2643	0.161
Mof_C 	C 	0.2841	0.5757	0.24533	-0.205
Mof_H 	H 	0.336	0.5342	0.2474	0.103
Mof_C 	C 	0.2242	0.5835	0.22303	0.122
Mof_H 	H 	0.2396	0.5462	0.2104	0.008
Mof_C 	C 	0.3323	0.6261	0.28815	-0.103
Mof_C 	C 	0.3002	0.6714	0.30897	0.067
Mof_H 	H 	0.2366	0.7041	0.3077	0.019
Mof_C 	C 	0.359	0.6697	0.33153	-0.178
Mof_H 	H 	0.3344	0.7005	0.3451	0.104
Mof_C 	C 	0.4544	0.6224	0.33392	0.17
Mof_C 	C 	0.4864	0.5763	0.3131	-0.175
Mof_H 	H 	0.5494	0.543	0.3143	0.109
Mof_C 	C 	0.4264	0.5793	0.29083	0.069
Mof_H 	H 	0.4507	0.5486	0.2772	0.005
Mof_C 	C 	0.5	0.6398	0.38039	0.186
Mof_C 	C 	0.5935	0.6577	0.39553	-0.197
Mof_H 	H 	0.666	0.6546	0.3887	0.123
Mof_C 	C 	0.5808	0.6794	0.42	0.09
Mof_H 	H 	0.6448	0.6898	0.4297	0.006
Mof_C 	C 	0.4729	0.6865	0.43103	-0.125
Mof_C 	C 	0.3812	0.668	0.41532	0.093
Mof_H 	H 	0.3084	0.6708	0.422	0.01
Mof_C 	C 	0.3934	0.646	0.39072	-0.207
Mof_H 	H 	0.3297	0.6353	0.3809	0.12
Mof_C 	C 	0.5352	0.747	0.49776	0.138
Mof_H 	H 	0.5993	0.7525	0.5079	0.003
Mof_C 	C 	0.551	0.7184	0.47362	-0.219
Mof_H 	H 	0.6226	0.7021	0.4683	0.114
Mof_C 	C 	0.4595	0.7139	0.45737	0.19
Mof_C 	C 	0.3606	0.73	0.46807	-0.248
Mof_H 	H 	0.2937	0.7214	0.4592	0.132
Mof_C 	C 	0.3564	0.7597	0.49264	0.169
Mof_H 	H 	0.2855	0.7758	0.4984	-0.021
Mof_C 	C 	0.8615	0.7934	0.07634	0.331
Mof_C 	C 	0.7849	0.8647	0.07265	-0.067
Mof_C 	C 	0.8034	0.9147	0.05252	-0.018
Mof_H 	H 	0.8633	0.9046	0.0415	0.055
Mof_C 	C 	0.7339	0.9802	0.04842	-0.025
Mof_H 	H 	0.7454	0.0129	0.0344	0.057
Mof_C 	C 	0.6473	0.9968	0.06527	-0.059
Mof_C 	C 	0.6295	0.9458	0.08491	-0.024
Mof_H 	H 	0.5703	0.9557	0.0961	0.054
Mof_C 	C 	0.6973	0.8804	0.08849	-0.019
Mof_H 	H 	0.683	0.8462	0.102	0.052
Mof_C 	C 	0.5739	0.0673	0.06069	0.301
Mof_Cd	Cd	0.08465	0.66421	0.17779	0.439
Mof_Cd	Cd	0.9751	0.67585	0.11487	0.518
Mof_Cd	Cd	0.43284	0.19322	0.04942	0.446
Mof_N 	N 	0.1483	0.6378	0.21779	-0.173
Mof_N 	N 	0.4369	0.7674	0.5078	-0.183
Mof_N 	N 	0.5234	0.6164	0.35552	-0.157
Mof_O 	O 	0.2195	0.5663	0.16524	-0.276
Mof_O 	O 	0.1246	0.6174	0.13392	-0.295
Mof_O 	O 	0.3779	0.23859	0.09307	-0.292
Mof_O 	O 	0.3094	0.29538	0.0593	-0.282
Mof_O 	O 	0.9826	0.75878	0.15118	-0.292
Mof_O 	O 	0.9648	0.7698	0.19217	-0.281
Mof_O 	O 	0.6338	0.09194	0.13563	-0.295
Mof_O 	O 	0.5596	0.07324	0.1739	-0.286
Mof_O 	O 	0.5152	0.09624	0.07842	-0.297
Mof_O 	O 	0.5698	0.0967	0.03909	-0.274
Mof_O 	O 	0.9221	0.776	0.05785	-0.287
Mof_O 	O 	0.8576	0.75949	0.09694	-0.302
Mof_C 	C 	0.3123	0.9367	0.64278	0.306
Mof_C 	C 	0.272	0.0039	0.62655	-0.057
Mof_C 	C 	0.1967	0.0594	0.63624	-0.019
Mof_H 	H 	0.1692	0.0533	0.6526	0.053
Mof_C 	C 	0.1622	0.1233	0.62199	-0.027
Mof_H 	H 	0.1092	0.1592	0.6284	0.06
Mof_C 	C 	0.2069	0.1342	0.59792	-0.061
Mof_C 	C 	0.2817	0.0796	0.58838	-0.017
Mof_H 	H 	0.311	0.087	0.5722	0.054
Mof_C 	C 	0.3148	0.0135	0.60235	-0.032
Mof_H 	H 	0.3648	0.9762	0.5956	0.063
Mof_C 	C 	0.1707	0.2043	0.5825	0.311
Mof_C 	C 	0.5597	0.7075	0.67035	0.299
Mof_C 	C 	0.6398	0.6385	0.6668	-0.062
Mof_C 	C 	0.6454	0.5989	0.64421	-0.021
Mof_H 	H 	0.5995	0.6147	0.6308	0.056
Mof_C 	C 	0.7191	0.5354	0.64125	-0.025
Mof_H 	H 	0.7211	0.5086	0.6258	0.056
Mof_C 	C 	0.7896	0.5106	0.66043	-0.053
Mof_C 	C 	0.7808	0.5488	0.68361	-0.027
Mof_H 	H 	0.8259	0.5321	0.697	0.057
Mof_C 	C 	0.7061	0.6111	0.68697	-0.021
Mof_H 	H 	0.6996	0.6351	0.7028	0.047
Mof_C 	C 	0.8728	0.4414	0.65685	0.325
Mof_C 	C 	0.3694	0.8135	0.73629	0.126
Mof_H 	H 	0.4227	0.7733	0.7337	0.001
Mof_C 	C 	0.3157	0.8157	0.75988	-0.209
Mof_H 	H 	0.3361	0.7796	0.7725	0.119
Mof_C 	C 	0.2336	0.8708	0.7643	0.163
Mof_C 	C 	0.2159	0.9243	0.74533	-0.207
Mof_H 	H 	0.164	0.9658	0.7474	0.103
Mof_C 	C 	0.2758	0.9165	0.72303	0.123
Mof_H 	H 	0.2604	0.9538	0.7104	0.008
Mof_C 	C 	0.1677	0.8739	0.78815	-0.108
Mof_C 	C 	0.1998	0.8286	0.80897	0.07
Mof_H 	H 	0.2634	0.7959	0.8077	0.018
Mof_C 	C 	0.141	0.8303	0.83153	-0.181
Mof_H 	H 	0.1656	0.7995	0.8451	0.104
Mof_C 	C 	0.0456	0.8776	0.83392	0.17
Mof_C 	C 	0.0136	0.9237	0.8131	-0.19
Mof_H 	H 	0.9506	0.957	0.8143	0.117
Mof_C 	C 	0.0736	0.9207	0.79083	0.078
Mof_H 	H 	0.0493	0.9514	0.7772	-0
Mof_C 	C 	-6.27034e-32	0.8602	0.88039	0.171
Mof_C 	C 	0.9065	0.8423	0.89553	-0.185
Mof_H 	H 	0.834	0.8454	0.8887	0.119
Mof_C 	C 	0.9192	0.8206	0.92	0.089
Mof_H 	H 	0.8552	0.8102	0.9297	0.007
Mof_C 	C 	0.0271	0.8135	0.93103	-0.124
Mof_C 	C 	0.1188	0.832	0.91532	0.087
Mof_H 	H 	0.1916	0.8292	0.922	0.012
Mof_C 	C 	0.1066	0.854	0.89072	-0.199
Mof_H 	H 	0.1703	0.8647	0.8809	0.117
Mof_C 	C 	0.9648	0.753	0.99776	0.14
Mof_H 	H 	0.9007	0.7475	0.0079	0.003
Mof_C 	C 	0.949	0.7816	0.97362	-0.21
Mof_H 	H 	0.8774	0.7979	0.9683	0.111
Mof_C 	C 	0.0405	0.7861	0.95737	0.181
Mof_C 	C 	0.1394	0.77	0.96807	-0.244
Mof_H 	H 	0.2063	0.7786	0.9592	0.13
Mof_C 	C 	0.1436	0.7403	0.99264	0.166
Mof_H 	H 	0.2145	0.7242	0.9984	-0.02
Mof_C 	C 	0.6385	0.7066	0.57634	0.332
Mof_C 	C 	0.7151	0.6353	0.57265	-0.069
Mof_C 	C 	0.6966	0.5853	0.55252	-0.017
Mof_H 	H 	0.6367	0.5954	0.5415	0.054
Mof_C 	C 	0.7661	0.5198	0.54842	-0.027
Mof_H 	H 	0.7546	0.4871	0.5344	0.057
Mof_C 	C 	0.8527	0.5032	0.56527	-0.057
Mof_C 	C 	0.8705	0.5542	0.58491	-0.025
Mof_H 	H 	0.9297	0.5443	0.5961	0.056
Mof_C 	C 	0.8027	0.6196	0.58849	-0.017
Mof_H 	H 	0.817	0.6538	0.602	0.052
Mof_C 	C 	0.9261	0.4327	0.56069	0.301
Mof_Cd	Cd	0.41535	0.83579	0.67779	0.444
Mof_Cd	Cd	0.5249	0.82415	0.61487	0.513
Mof_Cd	Cd	0.06716	0.30678	0.54942	0.441
Mof_N 	N 	0.3517	0.8622	0.71779	-0.173
Mof_N 	N 	0.0631	0.7326	0.0078	-0.186
Mof_N 	N 	0.9766	0.8836	0.85552	-0.151
Mof_O 	O 	0.2805	0.9337	0.66524	-0.276
Mof_O 	O 	0.3754	0.8826	0.63392	-0.292
Mof_O 	O 	0.1221	0.26141	0.59307	-0.294
Mof_O 	O 	0.1906	0.20462	0.5593	-0.282
Mof_O 	O 	0.5174	0.74122	0.65118	-0.295
Mof_O 	O 	0.5352	0.7302	0.69217	-0.284
Mof_O 	O 	0.8662	0.40806	0.63563	-0.295
Mof_O 	O 	0.9404	0.42676	0.6739	-0.283
Mof_O 	O 	0.9848	0.40376	0.57842	-0.294
Mof_O 	O 	0.9302	0.4033	0.53909	-0.271
Mof_O 	O 	0.5779	0.724	0.55785	-0.29
Mof_O 	O 	0.6424	0.74051	0.59694	-0.302
_end
