data_functionalizedCrystal
_audit_creation_method	'EQeq! by Chris Wilmer'
_symmetry_space_group_name_H-M	'P1'
_symmetry_Int_Tables_number	1
_symmetry_cell_setting	triclinic
loop_
_symmetry_equiv_pos_as_xyz
  x,y,z
_cell_length_a	21.969
_cell_length_b	22.463
_cell_length_c	8.7866
_cell_angle_alpha	90
_cell_angle_beta	90
_cell_angle_gamma	90
loop_
_atom_site_label
_atom_site_type_symbol
_atom_site_fract_x
_atom_site_fract_y
_atom_site_fract_z
_atom_site_charge
Mof_C 	C 	0.3419	0.1685	0.676	0.249
Mof_C 	C 	0.3981	0.1349	0.6455	-0.123
Mof_C 	C 	0.4184	0.0895	0.7384	0.066
Mof_H 	H 	0.3942	0.0776	0.8197	-0.02
Mof_C 	C 	0.5057	0.0785	0.5966	0.077
Mof_H 	H 	0.5428	0.0595	0.5808	-0.016
Mof_C 	C 	0.4886	0.1223	0.4963	-0.149
Mof_H 	H 	0.5131	0.1323	0.4139	0.072
Mof_C 	C 	0.4343	0.151	0.5207	0.054
Mof_H 	H 	0.4217	0.181	0.4549	0.018
Mof_N 	N 	0.47189	0.06165	0.716	-0.241
Mof_N 	N 	0.2982	0.1438	0.7591	-0.221
Mof_H 	H 	0.3009	0.1076	0.7906	0.116
Mof_N 	N 	0.24705	0.1796	0.7938	-0.288
Mof_H 	H 	0.2498	0.1944	0.8887	0.095
Mof_H 	H 	0.2124	0.1586	0.7857	0.099
Mof_O 	O 	0.33637	0.21883	0.622	-0.397
Mof_C 	C 	0.3419	0.6685	0.176	0.254
Mof_C 	C 	0.3981	0.6349	0.1455	-0.128
Mof_C 	C 	0.4184	0.5895	0.2384	0.075
Mof_H 	H 	0.3942	0.5776	0.3197	-0.01
Mof_C 	C 	0.5057	0.5785	0.0966	0.092
Mof_H 	H 	0.5428	0.5595	0.0808	-0.01
Mof_C 	C 	0.4886	0.6223	0.9963	-0.163
Mof_H 	H 	0.5131	0.6323	0.9139	0.079
Mof_C 	C 	0.4343	0.651	0.0207	0.072
Mof_H 	H 	0.4217	0.681	0.9549	0.011
Mof_N 	N 	0.47189	0.56165	0.216	-0.235
Mof_N 	N 	0.2982	0.6438	0.2591	-0.223
Mof_H 	H 	0.3009	0.6076	0.2906	0.126
Mof_N 	N 	0.24705	0.6796	0.2938	-0.288
Mof_H 	H 	0.2498	0.6944	0.3887	0.097
Mof_H 	H 	0.2124	0.6586	0.2857	0.103
Mof_O 	O 	0.33637	0.71883	0.122	-0.397
Mof_C 	C 	0.8419	0.1685	0.176	0.235
Mof_C 	C 	0.8981	0.1349	0.1455	-0.082
Mof_C 	C 	0.9184	0.0895	0.2384	0.044
Mof_H 	H 	0.8942	0.0776	0.3197	-0.009
Mof_C 	C 	0.0057	0.0785	0.0966	-0.045
Mof_H 	H 	0.0428	0.0595	0.0808	0.022
Mof_C 	C 	0.9886	0.1223	0.9963	0.005
Mof_H 	H 	0.0131	0.1323	0.9139	0
Mof_C 	C 	0.9343	0.151	0.0207	-0.023
Mof_H 	H 	0.9217	0.181	0.9549	0.047
Mof_N 	N 	0.97189	0.06165	0.216	-0.201
Mof_N 	N 	0.7982	0.1438	0.2591	-0.218
Mof_H 	H 	0.8009	0.1076	0.2906	0.116
Mof_N 	N 	0.74705	0.1796	0.2938	-0.288
Mof_H 	H 	0.7498	0.1944	0.3887	0.097
Mof_H 	H 	0.7124	0.1586	0.2857	0.101
Mof_O 	O 	0.83637	0.21883	0.122	-0.391
Mof_C 	C 	0.8419	0.6685	0.676	0.235
Mof_C 	C 	0.8981	0.6349	0.6455	-0.073
Mof_C 	C 	0.9184	0.5895	0.7384	0.043
Mof_H 	H 	0.8942	0.5776	0.8197	0.001
Mof_C 	C 	0.0057	0.5785	0.5966	-0.049
Mof_H 	H 	0.0428	0.5595	0.5808	0.033
Mof_C 	C 	0.9886	0.6223	0.4963	0.023
Mof_H 	H 	0.0131	0.6323	0.4139	-0.001
Mof_C 	C 	0.9343	0.651	0.5207	-0.039
Mof_H 	H 	0.9217	0.681	0.4549	0.056
Mof_N 	N 	0.97189	0.56165	0.716	-0.191
Mof_N 	N 	0.7982	0.6438	0.7591	-0.218
Mof_H 	H 	0.8009	0.6076	0.7906	0.124
Mof_N 	N 	0.74705	0.6796	0.7938	-0.289
Mof_H 	H 	0.7498	0.6944	0.8887	0.098
Mof_H 	H 	0.7124	0.6586	0.7857	0.103
Mof_O 	O 	0.83637	0.71883	0.622	-0.392
Mof_C 	C 	0.6581	0.8315	0.676	0.253
Mof_C 	C 	0.6019	0.8651	0.6455	-0.117
Mof_C 	C 	0.5816	0.9105	0.7384	0.074
Mof_H 	H 	0.6058	0.9224	0.8197	0.002
Mof_C 	C 	0.4943	0.9215	0.5966	0.084
Mof_H 	H 	0.4572	0.9405	0.5808	0.005
Mof_C 	C 	0.5114	0.8777	0.4963	-0.14
Mof_H 	H 	0.4869	0.8677	0.4139	0.076
Mof_C 	C 	0.5657	0.849	0.5207	0.056
Mof_H 	H 	0.5783	0.819	0.4549	0.02
Mof_N 	N 	0.52811	0.93835	0.716	-0.217
Mof_N 	N 	0.7018	0.8562	0.7591	-0.223
Mof_H 	H 	0.6991	0.8924	0.7906	0.134
Mof_N 	N 	0.75295	0.8204	0.7938	-0.289
Mof_H 	H 	0.7502	0.8056	0.8887	0.099
Mof_H 	H 	0.7876	0.8414	0.7857	0.108
Mof_O 	O 	0.66363	0.78117	0.622	-0.398
Mof_C 	C 	0.6581	0.3315	0.176	0.254
Mof_C 	C 	0.6019	0.3651	0.1455	-0.129
Mof_C 	C 	0.5816	0.4105	0.2384	0.076
Mof_H 	H 	0.6058	0.4224	0.3197	-0.011
Mof_C 	C 	0.4943	0.4215	0.0966	0.094
Mof_H 	H 	0.4572	0.4405	0.0808	-0.01
Mof_C 	C 	0.5114	0.3777	0.9963	-0.166
Mof_H 	H 	0.4869	0.3677	0.9139	0.081
Mof_C 	C 	0.5657	0.349	0.0207	0.076
Mof_H 	H 	0.5783	0.319	0.9549	0.01
Mof_N 	N 	0.52811	0.43835	0.216	-0.235
Mof_N 	N 	0.7018	0.3562	0.2591	-0.223
Mof_H 	H 	0.6991	0.3924	0.2906	0.126
Mof_N 	N 	0.75295	0.3204	0.2938	-0.289
Mof_H 	H 	0.7502	0.3056	0.3887	0.098
Mof_H 	H 	0.7876	0.3414	0.2857	0.105
Mof_O 	O 	0.66363	0.28117	0.122	-0.398
Mof_C 	C 	0.1581	0.8315	0.176	0.271
Mof_C 	C 	0.1019	0.8651	0.1455	-0.169
Mof_C 	C 	0.0816	0.9105	0.2384	0.103
Mof_H 	H 	0.1058	0.9224	0.3197	-0.008
Mof_C 	C 	0.9943	0.9215	0.0966	0.216
Mof_H 	H 	0.9572	0.9405	0.0808	-0.035
Mof_C 	C 	0.0114	0.8777	0.9963	-0.314
Mof_H 	H 	0.9869	0.8677	0.9139	0.152
Mof_C 	C 	0.0657	0.849	0.0207	0.16
Mof_H 	H 	0.0783	0.819	0.9549	-0.022
Mof_N 	N 	0.02811	0.93835	0.216	-0.255
Mof_N 	N 	0.2018	0.8562	0.2591	-0.227
Mof_H 	H 	0.1991	0.8924	0.2906	0.136
Mof_N 	N 	0.25295	0.8204	0.2938	-0.288
Mof_H 	H 	0.2502	0.8056	0.3887	0.099
Mof_H 	H 	0.2876	0.8414	0.2857	0.108
Mof_O 	O 	0.16363	0.78117	0.122	-0.403
Mof_C 	C 	0.1581	0.3315	0.676	0.267
Mof_C 	C 	0.1019	0.3651	0.6455	-0.17
Mof_C 	C 	0.0816	0.4105	0.7384	0.097
Mof_H 	H 	0.1058	0.4224	0.8197	-0.02
Mof_C 	C 	0.9943	0.4215	0.5966	0.215
Mof_H 	H 	0.9572	0.4405	0.5808	-0.047
Mof_C 	C 	0.0114	0.3777	0.4963	-0.317
Mof_H 	H 	0.9869	0.3677	0.4139	0.152
Mof_C 	C 	0.0657	0.349	0.5207	0.151
Mof_H 	H 	0.0783	0.319	0.4549	-0.019
Mof_N 	N 	0.02811	0.43835	0.716	-0.272
Mof_N 	N 	0.2018	0.3562	0.7591	-0.226
Mof_H 	H 	0.1991	0.3924	0.7906	0.126
Mof_N 	N 	0.25295	0.3204	0.7938	-0.288
Mof_H 	H 	0.2502	0.3056	0.8887	0.096
Mof_H 	H 	0.2876	0.3414	0.7857	0.103
Mof_O 	O 	0.16363	0.28117	0.622	-0.404
Mof_C 	C 	0.5919	0.0815	0.926	0.249
Mof_C 	C 	0.6481	0.1151	0.8955	-0.125
Mof_C 	C 	0.6684	0.1605	0.9884	0.063
Mof_H 	H 	0.6442	0.1724	0.0697	-0.006
Mof_C 	C 	0.7557	0.1715	0.8466	0.079
Mof_H 	H 	0.7928	0.1905	0.8308	-0.007
Mof_C 	C 	0.7386	0.1277	0.7463	-0.149
Mof_H 	H 	0.7631	0.1177	0.6639	0.069
Mof_C 	C 	0.6843	0.099	0.7707	0.054
Mof_H 	H 	0.6717	0.069	0.7049	0.009
Mof_N 	N 	0.72189	0.18835	0.966	-0.232
Mof_N 	N 	0.5482	0.1062	0.0091	-0.222
Mof_H 	H 	0.5509	0.1424	0.0406	0.126
Mof_N 	N 	0.49705	0.0704	0.0438	-0.288
Mof_H 	H 	0.4998	0.0556	0.1387	0.085
Mof_H 	H 	0.4624	0.0914	0.0357	0.099
Mof_O 	O 	0.58637	0.03117	0.872	-0.419
Mof_C 	C 	0.5919	0.5815	0.426	0.251
Mof_C 	C 	0.6481	0.6151	0.3955	-0.121
Mof_C 	C 	0.6684	0.6605	0.4884	0.07
Mof_H 	H 	0.6442	0.6724	0.5697	-0.009
Mof_C 	C 	0.7557	0.6715	0.3466	0.081
Mof_H 	H 	0.7928	0.6905	0.3308	-0.006
Mof_C 	C 	0.7386	0.6277	0.2463	-0.145
Mof_H 	H 	0.7631	0.6177	0.1639	0.075
Mof_C 	C 	0.6843	0.599	0.2707	0.055
Mof_H 	H 	0.6717	0.569	0.2049	0.019
Mof_N 	N 	0.72189	0.68835	0.466	-0.232
Mof_N 	N 	0.5482	0.6062	0.5091	-0.222
Mof_H 	H 	0.5509	0.6424	0.5406	0.125
Mof_N 	N 	0.49705	0.5704	0.5438	-0.289
Mof_H 	H 	0.4998	0.5556	0.6387	0.097
Mof_H 	H 	0.4624	0.5914	0.5357	0.104
Mof_O 	O 	0.58637	0.53117	0.372	-0.397
Mof_C 	C 	0.0919	0.0815	0.426	0.252
Mof_C 	C 	0.1481	0.1151	0.3955	-0.13
Mof_C 	C 	0.1684	0.1605	0.4884	0.071
Mof_H 	H 	0.1442	0.1724	0.5697	-0.012
Mof_C 	C 	0.2557	0.1715	0.3466	0.081
Mof_H 	H 	0.2928	0.1905	0.3308	-0.008
Mof_C 	C 	0.2386	0.1277	0.2463	-0.152
Mof_H 	H 	0.2631	0.1177	0.1639	0.07
Mof_C 	C 	0.1843	0.099	0.2707	0.057
Mof_H 	H 	0.1717	0.069	0.2049	0.007
Mof_N 	N 	0.22189	0.18835	0.466	-0.233
Mof_N 	N 	0.0482	0.1062	0.5091	-0.233
Mof_H 	H 	0.0509	0.1424	0.5406	0.122
Mof_N 	N 	0.99705	0.0704	0.5438	-0.278
Mof_H 	H 	0.9998	0.0556	0.6387	0.093
Mof_H 	H 	0.9624	0.0914	0.5357	0.102
Mof_O 	O 	0.08637	0.03117	0.372	-0.423
Mof_C 	C 	0.0919	0.5815	0.926	0.246
Mof_C 	C 	0.1481	0.6151	0.8955	-0.119
Mof_C 	C 	0.1684	0.6605	0.9884	0.064
Mof_H 	H 	0.1442	0.6724	0.0697	-0.006
Mof_C 	C 	0.2557	0.6715	0.8466	0.08
Mof_H 	H 	0.2928	0.6905	0.8308	-0.006
Mof_C 	C 	0.2386	0.6277	0.7463	-0.144
Mof_H 	H 	0.2631	0.6177	0.6639	0.073
Mof_C 	C 	0.1843	0.599	0.7707	0.053
Mof_H 	H 	0.1717	0.569	0.7049	0.018
Mof_N 	N 	0.22189	0.68835	0.966	-0.232
Mof_N 	N 	0.0482	0.6062	0.0091	-0.228
Mof_H 	H 	0.0509	0.6424	0.0406	0.123
Mof_N 	N 	0.99705	0.5704	0.0438	-0.279
Mof_H 	H 	0.9998	0.5556	0.1387	0.107
Mof_H 	H 	0.9624	0.5914	0.0357	0.108
Mof_O 	O 	0.08637	0.53117	0.872	-0.4
Mof_C 	C 	0.9081	0.4185	0.926	0.248
Mof_C 	C 	0.8519	0.3849	0.8955	-0.116
Mof_C 	C 	0.8316	0.3395	0.9884	0.062
Mof_H 	H 	0.8558	0.3276	0.0697	-0.004
Mof_C 	C 	0.7443	0.3285	0.8466	0.079
Mof_H 	H 	0.7072	0.3095	0.8308	-0.006
Mof_C 	C 	0.7614	0.3723	0.7463	-0.142
Mof_H 	H 	0.7369	0.3823	0.6639	0.073
Mof_C 	C 	0.8157	0.401	0.7707	0.052
Mof_H 	H 	0.8283	0.431	0.7049	0.021
Mof_N 	N 	0.77811	0.31165	0.966	-0.231
Mof_N 	N 	0.9518	0.3938	0.0091	-0.211
Mof_H 	H 	0.9491	0.3576	0.0406	0.129
Mof_N 	N 	0.00295	0.4296	0.0438	-0.296
Mof_H 	H 	0.0002	0.4444	0.1387	0.09
Mof_H 	H 	0.0376	0.4086	0.0357	0.101
Mof_O 	O 	0.91363	0.46883	0.872	-0.391
Mof_C 	C 	0.9081	0.9185	0.426	0.249
Mof_C 	C 	0.8519	0.8849	0.3955	-0.111
Mof_C 	C 	0.8316	0.8395	0.4884	0.069
Mof_H 	H 	0.8558	0.8276	0.5697	-0.006
Mof_C 	C 	0.7443	0.8285	0.3466	0.081
Mof_H 	H 	0.7072	0.8095	0.3308	-0.005
Mof_C 	C 	0.7614	0.8723	0.2463	-0.138
Mof_H 	H 	0.7369	0.8823	0.1639	0.079
Mof_C 	C 	0.8157	0.901	0.2707	0.053
Mof_H 	H 	0.8283	0.931	0.2049	0.031
Mof_N 	N 	0.77811	0.81165	0.466	-0.231
Mof_N 	N 	0.9518	0.8938	0.5091	-0.21
Mof_H 	H 	0.9491	0.8576	0.5406	0.128
Mof_N 	N 	0.00295	0.9296	0.5438	-0.291
Mof_H 	H 	0.0002	0.9444	0.6387	0.104
Mof_H 	H 	0.0376	0.9086	0.5357	0.107
Mof_O 	O 	0.91363	0.96883	0.372	-0.361
Mof_C 	C 	0.4081	0.4185	0.426	0.251
Mof_C 	C 	0.3519	0.3849	0.3955	-0.121
Mof_C 	C 	0.3316	0.3395	0.4884	0.07
Mof_H 	H 	0.3558	0.3276	0.5697	-0.009
Mof_C 	C 	0.2443	0.3285	0.3466	0.081
Mof_H 	H 	0.2072	0.3095	0.3308	-0.007
Mof_C 	C 	0.2614	0.3723	0.2463	-0.145
Mof_H 	H 	0.2369	0.3823	0.1639	0.074
Mof_C 	C 	0.3157	0.401	0.2707	0.055
Mof_H 	H 	0.3283	0.431	0.2049	0.019
Mof_N 	N 	0.27811	0.31165	0.466	-0.232
Mof_N 	N 	0.4518	0.3938	0.5091	-0.222
Mof_H 	H 	0.4491	0.3576	0.5406	0.125
Mof_N 	N 	0.50295	0.4296	0.5438	-0.289
Mof_H 	H 	0.5002	0.4444	0.6387	0.097
Mof_H 	H 	0.5376	0.4086	0.5357	0.104
Mof_O 	O 	0.41363	0.46883	0.372	-0.398
Mof_C 	C 	0.4081	0.9185	0.926	0.244
Mof_C 	C 	0.3519	0.8849	0.8955	-0.11
Mof_C 	C 	0.3316	0.8395	0.9884	0.064
Mof_H 	H 	0.3558	0.8276	0.0697	-0.004
Mof_C 	C 	0.2443	0.8285	0.8466	0.08
Mof_H 	H 	0.2072	0.8095	0.8308	-0.005
Mof_C 	C 	0.2614	0.8723	0.7463	-0.137
Mof_H 	H 	0.2369	0.8823	0.6639	0.077
Mof_C 	C 	0.3157	0.901	0.7707	0.051
Mof_H 	H 	0.3283	0.931	0.7049	0.031
Mof_N 	N 	0.27811	0.81165	0.966	-0.23
Mof_N 	N 	0.4518	0.8938	0.0091	-0.216
Mof_H 	H 	0.4491	0.8576	0.0406	0.125
Mof_N 	N 	0.50295	0.9296	0.0438	-0.284
Mof_H 	H 	0.5002	0.9444	0.1387	0.113
Mof_H 	H 	0.5376	0.9086	0.0357	0.11
Mof_O 	O 	0.41363	0.96883	0.872	-0.366
Mof_Ni	Ni	0.25	0.25	0.62703	1.089
Mof_Ni	Ni	0.25	0.75	0.12703	1.089
Mof_Ni	Ni	0.75	0.75	0.62703	1.089
Mof_Ni	Ni	0.75	0.25	0.12703	1.089
Mof_Ni	Ni	0.5	0	0.87703	1.063
Mof_Ni	Ni	0.5	0.5	0.37703	1.089
Mof_Ni	Ni	-1.03283e-32	0.5	0.87703	1.078
Mof_Ni	Ni	-8.90041e-34	-1.45543e-33	0.37703	1.053
_end
