data_functionalizedCrystal
_audit_creation_method	'EQeq! by Chris Wilmer'
_symmetry_space_group_name_H-M	'P1'
_symmetry_Int_Tables_number	1
_symmetry_cell_setting	triclinic
loop_
_symmetry_equiv_pos_as_xyz
  x,y,z
_cell_length_a	14.3196
_cell_length_b	16.255
_cell_length_c	8.8552
_cell_angle_alpha	90
_cell_angle_beta	90.134
_cell_angle_gamma	90
loop_
_atom_site_label
_atom_site_type_symbol
_atom_site_fract_x
_atom_site_fract_y
_atom_site_fract_z
_atom_site_charge
Mof_Ga	Ga	0.97318	0.12912	0.58679	3.304
Mof_Ga	Ga	0.46346	0.27024	0.36563	3.447
Mof_Zn	Zn	0.13163	0.16146	0.19065	1.222
Mof_Zn	Zn	0.36469	0.0382	0.42192	1.235
Mof_P 	P 	0.1376	0.03131	0.44737	0.732
Mof_P 	P 	0.02529	0.21227	0.88804	0.751
Mof_P 	P 	0.52757	0.13143	0.588	0.805
Mof_P 	P 	0.35484	0.15297	0.14662	0.809
Mof_O 	O 	0.0823	0.0666	0.5814	-0.958
Mof_O 	O 	0.0979	0.0632	0.2988	-0.589
Mof_O 	O 	0.1306	0.9368	0.4524	-0.923
Mof_O 	O 	0.2385	0.0567	0.4735	-0.52
Mof_O 	O 	0.0532	0.1532	0.0141	-0.504
Mof_O 	O 	0.9586	0.1655	0.7838	-0.922
Mof_O 	O 	0.1124	0.2398	0.8015	-0.601
Mof_O 	O 	0.9716	0.2859	0.9485	-0.968
Mof_O 	O 	0.4309	0.0928	0.5802	-0.606
Mof_O 	O 	0.5382	0.1982	0.469	-1.047
Mof_O 	O 	0.6056	0.072	0.5593	-0.514
Mof_O 	O 	0.5424	0.1677	0.7449	-0.976
Mof_O 	O 	0.253	0.1457	0.107	-0.527
Mof_O 	O 	0.4099	0.1566	0.9982	-1.001
Mof_O 	O 	0.3922	0.0762	0.2261	-0.555
Mof_O 	O 	0.369	0.2283	0.2447	-1.066
Mof_Ga	Ga	0.02682	0.62912	0.91321	3.233
Mof_Ga	Ga	0.53654	0.77024	0.13437	3.446
Mof_Zn	Zn	0.86837	0.66146	0.30935	1.221
Mof_Zn	Zn	0.63531	0.5382	0.07808	1.235
Mof_P 	P 	0.8624	0.53131	0.05263	0.716
Mof_P 	P 	0.97471	0.71227	0.61196	0.785
Mof_P 	P 	0.47243	0.63143	0.912	0.803
Mof_P 	P 	0.64516	0.65297	0.35338	0.808
Mof_O 	O 	0.9177	0.5666	0.9186	-0.928
Mof_O 	O 	0.9021	0.5632	0.2012	-0.588
Mof_O 	O 	0.8694	0.4368	0.0476	-0.909
Mof_O 	O 	0.7615	0.5567	0.0265	-0.521
Mof_O 	O 	0.9468	0.6532	0.4859	-0.517
Mof_O 	O 	0.0414	0.6655	0.7162	-0.923
Mof_O 	O 	0.8876	0.7398	0.6985	-0.599
Mof_O 	O 	0.0284	0.7859	0.5515	-1.002
Mof_O 	O 	0.5691	0.5928	0.9198	-0.604
Mof_O 	O 	0.4618	0.6982	0.031	-1.045
Mof_O 	O 	0.3944	0.572	0.9407	-0.514
Mof_O 	O 	0.4576	0.6677	0.7551	-0.977
Mof_O 	O 	0.747	0.6457	0.393	-0.528
Mof_O 	O 	0.5901	0.6566	0.5018	-0.998
Mof_O 	O 	0.6078	0.5762	0.2739	-0.554
Mof_O 	O 	0.631	0.7283	0.2553	-1.067
Mof_Ga	Ga	0.02682	0.87088	0.41321	3.303
Mof_Ga	Ga	0.53654	0.72976	0.63437	3.446
Mof_Zn	Zn	0.86837	0.83854	0.80935	1.222
Mof_Zn	Zn	0.63531	0.9618	0.57808	1.235
Mof_P 	P 	0.8624	0.96869	0.55263	0.732
Mof_P 	P 	0.97471	0.78773	0.11196	0.751
Mof_P 	P 	0.47243	0.86857	0.412	0.805
Mof_P 	P 	0.64516	0.84703	0.85338	0.809
Mof_O 	O 	0.9177	0.9334	0.4186	-0.958
Mof_O 	O 	0.9021	0.9368	0.7012	-0.589
Mof_O 	O 	0.8694	0.0632	0.5476	-0.923
Mof_O 	O 	0.7615	0.9433	0.5265	-0.52
Mof_O 	O 	0.9468	0.8468	0.9859	-0.504
Mof_O 	O 	0.0414	0.8345	0.2162	-0.922
Mof_O 	O 	0.8876	0.7602	0.1985	-0.601
Mof_O 	O 	0.0284	0.7141	0.0515	-0.968
Mof_O 	O 	0.5691	0.9072	0.4198	-0.606
Mof_O 	O 	0.4618	0.8018	0.531	-1.047
Mof_O 	O 	0.3944	0.928	0.4407	-0.514
Mof_O 	O 	0.4576	0.8323	0.2551	-0.976
Mof_O 	O 	0.747	0.8543	0.893	-0.527
Mof_O 	O 	0.5901	0.8434	0.0018	-1.001
Mof_O 	O 	0.6078	0.9238	0.7739	-0.555
Mof_O 	O 	0.631	0.7717	0.7553	-1.066
Mof_Ga	Ga	0.97318	0.37088	0.08679	3.233
Mof_Ga	Ga	0.46346	0.22976	0.86563	3.446
Mof_Zn	Zn	0.13163	0.33854	0.69065	1.221
Mof_Zn	Zn	0.36469	0.4618	0.92192	1.235
Mof_P 	P 	0.1376	0.46869	0.94737	0.716
Mof_P 	P 	0.02529	0.28773	0.38804	0.785
Mof_P 	P 	0.52757	0.36857	0.088	0.803
Mof_P 	P 	0.35484	0.34703	0.64662	0.808
Mof_O 	O 	0.0823	0.4334	0.0814	-0.928
Mof_O 	O 	0.0979	0.4368	0.7988	-0.588
Mof_O 	O 	0.1306	0.5632	0.9524	-0.909
Mof_O 	O 	0.2385	0.4433	0.9735	-0.521
Mof_O 	O 	0.0532	0.3468	0.5141	-0.517
Mof_O 	O 	0.9586	0.3345	0.2838	-0.923
Mof_O 	O 	0.1124	0.2602	0.3015	-0.599
Mof_O 	O 	0.9716	0.2141	0.4485	-1.002
Mof_O 	O 	0.4309	0.4072	0.0802	-0.604
Mof_O 	O 	0.5382	0.3018	0.969	-1.045
Mof_O 	O 	0.6056	0.428	0.0593	-0.514
Mof_O 	O 	0.5424	0.3323	0.2449	-0.977
Mof_O 	O 	0.253	0.3543	0.607	-0.528
Mof_O 	O 	0.4099	0.3434	0.4982	-0.998
Mof_O 	O 	0.3922	0.4238	0.7261	-0.554
Mof_O 	O 	0.369	0.2717	0.7447	-1.067
_end
