data_functionalizedCrystal
_audit_creation_method	'EQeq! by Chris Wilmer'
_symmetry_space_group_name_H-M	'P1'
_symmetry_Int_Tables_number	1
_symmetry_cell_setting	triclinic
loop_
_symmetry_equiv_pos_as_xyz
  x,y,z
_cell_length_a	12.148
_cell_length_b	13.123
_cell_length_c	13.98
_cell_angle_alpha	75.633
_cell_angle_beta	64.45
_cell_angle_gamma	67.616
loop_
_atom_site_label
_atom_site_type_symbol
_atom_site_fract_x
_atom_site_fract_y
_atom_site_fract_z
_atom_site_charge
Mof_Cd	Cd	0.15062	0.55385	0.44913	0.465
Mof_Cd	Cd	0.24978	0.49186	0.72287	0.467
Mof_Cd	Cd	0.84938	0.44615	0.55087	0.465
Mof_Cd	Cd	0.75022	0.50814	0.27713	0.467
Mof_H 	H 	0.4492	0.8077	0.3159	0.044
Mof_H 	H 	0.3822	0.6586	0.4464	0.063
Mof_H 	H 	0.0964	0.9151	0.1893	0.087
Mof_H 	H 	0.9182	0.9211	0.1684	-0.006
Mof_H 	H 	0.8323	0.7795	0.2404	0.098
Mof_H 	H 	0.9268	0.634	0.344	0.024
Mof_H 	H 	0.4128	0.8915	0.138	0.045
Mof_H 	H 	0.2912	0.887	0.1279	0.041
Mof_H 	H 	0.2828	0.0408	0.2437	0.079
Mof_H 	H 	0.1616	0.0368	0.232	0.074
Mof_H 	H 	0.3738	0.0766	0.0534	0.055
Mof_H 	H 	0.2417	0.088	0.0511	0.052
Mof_H 	H 	0.2632	0.2299	0.1614	0.075
Mof_H 	H 	0.1397	0.2456	0.1418	0.067
Mof_H 	H 	0.453	0.279	0.0134	0.047
Mof_H 	H 	0.4818	0.3868	0.8402	0.044
Mof_H 	H 	0.0288	0.2615	0.0711	0.079
Mof_H 	H 	0.8283	0.3117	0.0667	0.036
Mof_H 	H 	0.7743	0.4466	0.9363	0.085
Mof_H 	H 	0.9338	0.5192	0.8074	0.034
Mof_H 	H 	0.7636	0.8575	0.521	0.034
Mof_H 	H 	0.829	0.0104	0.4668	0.064
Mof_H 	H 	0.0999	0.8553	0.5911	0.062
Mof_H 	H 	0.377	0.1481	0.5886	0.059
Mof_H 	H 	0.6781	0.9924	0.3528	0.058
Mof_H 	H 	0.7202	0.1548	0.2748	0.039
Mof_H 	H 	0.5508	0.1923	0.6841	0.044
Mof_H 	H 	0.6178	0.3414	0.5536	0.063
Mof_H 	H 	0.9036	0.0849	0.8107	0.087
Mof_H 	H 	0.0818	0.0789	0.8316	-0.006
Mof_H 	H 	0.1677	0.2205	0.7596	0.098
Mof_H 	H 	0.0732	0.366	0.656	0.024
Mof_H 	H 	0.5872	0.1085	0.862	0.045
Mof_H 	H 	0.7088	0.113	0.8721	0.041
Mof_H 	H 	0.7172	0.9592	0.7563	0.079
Mof_H 	H 	0.8384	0.9632	0.768	0.074
Mof_H 	H 	0.6262	0.9234	0.9466	0.055
Mof_H 	H 	0.7583	0.912	0.9489	0.052
Mof_H 	H 	0.7368	0.7701	0.8386	0.075
Mof_H 	H 	0.8603	0.7544	0.8582	0.067
Mof_H 	H 	0.547	0.721	0.9866	0.047
Mof_H 	H 	0.5182	0.6132	0.1598	0.044
Mof_H 	H 	0.9712	0.7385	0.9289	0.079
Mof_H 	H 	0.1717	0.6883	0.9333	0.036
Mof_H 	H 	0.2257	0.5534	0.0637	0.085
Mof_H 	H 	0.0662	0.4808	0.1926	0.034
Mof_H 	H 	0.2364	0.1425	0.479	0.034
Mof_H 	H 	0.171	0.9896	0.5332	0.064
Mof_H 	H 	0.9001	0.1447	0.4089	0.062
Mof_H 	H 	0.623	0.8519	0.4114	0.059
Mof_H 	H 	0.3219	0.0076	0.6472	0.058
Mof_H 	H 	0.2798	0.8452	0.7252	0.039
Mof_C 	C 	0.3824	0.7829	0.326	-0.001
Mof_C 	C 	0.3462	0.7001	0.3967	0.012
Mof_C 	C 	0.2168	0.7625	0.3117	0.078
Mof_C 	C 	0.1085	0.7707	0.2834	0.094
Mof_C 	C 	0.0592	0.8588	0.2213	-0.165
Mof_C 	C 	0.9552	0.8608	0.2083	0.096
Mof_C 	C 	0.9031	0.7789	0.2509	-0.166
Mof_C 	C 	0.9613	0.6919	0.3124	0.094
Mof_C 	C 	0.3213	0.9028	0.1749	-0.037
Mof_C 	C 	0.2535	0.0238	0.1968	-0.133
Mof_C 	C 	0.2818	0.0982	0.0934	-0.078
Mof_C 	C 	0.2329	0.2211	0.1111	-0.074
Mof_C 	C 	0.3956	0.3047	0.9788	-0.018
Mof_C 	C 	0.4096	0.3652	0.884	0.023
Mof_C 	C 	0.2219	0.3442	0.9406	0.082
Mof_C 	C 	0.0985	0.3628	0.9416	0.067
Mof_C 	C 	0.0079	0.3143	0.0183	-0.109
Mof_C 	C 	0.8884	0.3445	0.0157	0.039
Mof_C 	C 	0.8561	0.4236	0.9379	-0.107
Mof_C 	C 	0.952	0.4672	0.8617	0.065
Mof_C 	C 	0.0696	0.6672	0.6587	0.274
Mof_C 	C 	0.9955	0.7649	0.6048	-0.026
Mof_C 	C 	0.8969	0.7627	0.5824	-0.07
Mof_C 	C 	0.8337	0.8568	0.5328	0.011
Mof_C 	C 	0.8725	0.9485	0.5009	-0.088
Mof_C 	C 	0.9767	0.9516	0.5182	0.027
Mof_C 	C 	0.0335	0.8557	0.5744	-0.065
Mof_C 	C 	0.8503	0.6605	0.6166	0.325
Mof_C 	C 	0.3707	0.3525	0.5299	0.298
Mof_C 	C 	0.4639	0.2492	0.4787	-0.024
Mof_C 	C 	0.4438	0.1502	0.5229	-0.062
Mof_C 	C 	0.5153	0.0537	0.4768	0.025
Mof_C 	C 	0.6229	0.0575	0.3837	-0.083
Mof_C 	C 	0.6486	0.1546	0.3372	0.003
Mof_C 	C 	0.5684	0.2538	0.3824	-0.052
Mof_C 	C 	0.6044	0.3608	0.3309	0.331
Mof_C 	C 	0.6176	0.2171	0.674	-0.001
Mof_C 	C 	0.6538	0.2999	0.6033	0.012
Mof_C 	C 	0.7832	0.2375	0.6883	0.078
Mof_C 	C 	0.8915	0.2293	0.7166	0.094
Mof_C 	C 	0.9408	0.1412	0.7787	-0.165
Mof_C 	C 	0.0448	0.1392	0.7917	0.096
Mof_C 	C 	0.0969	0.2211	0.7491	-0.166
Mof_C 	C 	0.0387	0.3081	0.6876	0.094
Mof_C 	C 	0.6787	0.0972	0.8251	-0.037
Mof_C 	C 	0.7465	0.9762	0.8032	-0.133
Mof_C 	C 	0.7182	0.9018	0.9066	-0.078
Mof_C 	C 	0.7671	0.7789	0.8889	-0.074
Mof_C 	C 	0.6044	0.6953	0.0212	-0.018
Mof_C 	C 	0.5904	0.6348	0.116	0.023
Mof_C 	C 	0.7781	0.6558	0.0594	0.082
Mof_C 	C 	0.9015	0.6372	0.0584	0.067
Mof_C 	C 	0.9921	0.6857	0.9817	-0.109
Mof_C 	C 	0.1116	0.6555	0.9843	0.039
Mof_C 	C 	0.1439	0.5764	0.0621	-0.107
Mof_C 	C 	0.048	0.5328	0.1383	0.065
Mof_C 	C 	0.9304	0.3328	0.3413	0.274
Mof_C 	C 	0.0045	0.2351	0.3952	-0.026
Mof_C 	C 	0.1031	0.2373	0.4176	-0.07
Mof_C 	C 	0.1663	0.1432	0.4672	0.011
Mof_C 	C 	0.1275	0.0515	0.4991	-0.088
Mof_C 	C 	0.0233	0.0484	0.4818	0.027
Mof_C 	C 	0.9665	0.1443	0.4256	-0.065
Mof_C 	C 	0.1497	0.3395	0.3834	0.325
Mof_C 	C 	0.6293	0.6475	0.4701	0.298
Mof_C 	C 	0.5361	0.7508	0.5213	-0.024
Mof_C 	C 	0.5562	0.8498	0.4771	-0.062
Mof_C 	C 	0.4847	0.9463	0.5232	0.025
Mof_C 	C 	0.3771	0.9425	0.6163	-0.083
Mof_C 	C 	0.3514	0.8454	0.6628	0.003
Mof_C 	C 	0.4316	0.7462	0.6176	-0.052
Mof_C 	C 	0.3956	0.6392	0.6691	0.331
Mof_N 	N 	0.0637	0.6883	0.3276	-0.154
Mof_N 	N 	0.2475	0.6872	0.3832	-0.135
Mof_N 	N 	0.3008	0.8234	0.2717	-0.114
Mof_N 	N 	0.0706	0.4364	0.8644	-0.137
Mof_N 	N 	0.3031	0.3908	0.8607	-0.136
Mof_N 	N 	0.275	0.2886	0.0146	-0.105
Mof_N 	N 	0.9363	0.3117	0.6724	-0.154
Mof_N 	N 	0.7525	0.3128	0.6168	-0.135
Mof_N 	N 	0.6992	0.1766	0.7283	-0.114
Mof_N 	N 	0.9294	0.5636	0.1356	-0.137
Mof_N 	N 	0.6969	0.6092	0.1393	-0.136
Mof_N 	N 	0.725	0.7114	0.9854	-0.105
Mof_O 	O 	0.0951	0.6775	0.7312	-0.271
Mof_O 	O 	0.1055	0.5719	0.6239	-0.273
Mof_O 	O 	0.9064	0.5908	0.5503	-0.293
Mof_O 	O 	0.767	0.6518	0.7036	-0.258
Mof_O 	O 	0.3334	0.3457	0.6287	-0.284
Mof_O 	O 	0.3324	0.4358	0.4674	-0.256
Mof_O 	O 	0.6214	0.411	0.3817	-0.288
Mof_O 	O 	0.6219	0.3835	0.2341	-0.253
Mof_O 	O 	0.9049	0.3225	0.2688	-0.271
Mof_O 	O 	0.8945	0.4281	0.3761	-0.273
Mof_O 	O 	0.0936	0.4092	0.4497	-0.293
Mof_O 	O 	0.233	0.3482	0.2964	-0.258
Mof_O 	O 	0.6666	0.6543	0.3713	-0.284
Mof_O 	O 	0.6676	0.5642	0.5326	-0.256
Mof_O 	O 	0.3786	0.589	0.6183	-0.288
Mof_O 	O 	0.3781	0.6165	0.7659	-0.253
_end
