data_functionalizedCrystal
_audit_creation_method	'EQeq! by Chris Wilmer'
_symmetry_space_group_name_H-M	'P1'
_symmetry_Int_Tables_number	1
_symmetry_cell_setting	triclinic
loop_
_symmetry_equiv_pos_as_xyz
  x,y,z
_cell_length_a	16.3784
_cell_length_b	16.3784
_cell_length_c	16.3784
_cell_angle_alpha	105.439
_cell_angle_beta	105.439
_cell_angle_gamma	105.439
loop_
_atom_site_label
_atom_site_type_symbol
_atom_site_fract_x
_atom_site_fract_y
_atom_site_fract_z
_atom_site_charge
Mof_Cu	Cu	0.56912	0.25054	0.93296	0.809
Mof_Cu	Cu	0.74947	0.43087	0.06707	0.809
Mof_Cu	Cu	0.93296	0.56912	0.25054	0.809
Mof_Cu	Cu	0.06707	0.74947	0.43087	0.809
Mof_Cu	Cu	0.25054	0.93296	0.56912	0.809
Mof_Cu	Cu	0.43087	0.06707	0.74947	0.809
Mof_Cu	Cu	0.43088	0.74946	0.06704	0.809
Mof_Cu	Cu	0.25053	0.56913	0.93293	0.809
Mof_Cu	Cu	0.06704	0.43088	0.74946	0.809
Mof_Cu	Cu	0.93293	0.25053	0.56913	0.809
Mof_Cu	Cu	0.74946	0.06704	0.43088	0.809
Mof_Cu	Cu	0.56913	0.93293	0.25053	0.809
Mof_H 	H 	0.4724	0.907	0.7506	0.205
Mof_H 	H 	0.3832	0.8661	0.7661	0.216
Mof_H 	H 	0.6168	0.2331	0.1339	0.22
Mof_H 	H 	0.5281	0.2496	0.0933	0.209
Mof_H 	H 	0.604	0.8	0.8601	0.374
Mof_H 	H 	0.6116	0.9015	0.8995	0.398
Mof_H 	H 	0.6037	0.8599	0.7993	0.37
Mof_H 	H 	0.4548	0.7426	0.6824	0.405
Mof_H 	H 	0.3712	0.711	0.7109	0.409
Mof_H 	H 	0.454	0.6819	0.7418	0.407
Mof_H 	H 	0.3931	0.2889	0.018	0.205
Mof_H 	H 	0.3999	0.2427	0.9254	0.198
Mof_H 	H 	0.7574	0.6003	0.0746	0.207
Mof_H 	H 	0.7106	0.6072	0.9822	0.211
Mof_H 	H 	0.2985	0.2347	0.7855	0.427
Mof_H 	H 	0.3326	0.3402	0.8115	0.441
Mof_H 	H 	0.2291	0.2847	0.7803	0.427
Mof_H 	H 	0.2335	0.2344	0.9777	0.401
Mof_H 	H 	0.2272	0.1665	0.8869	0.433
Mof_H 	H 	0.1662	0.2253	0.8852	0.433
Mof_H 	H 	0.7506	0.4724	0.907	0.205
Mof_H 	H 	0.7661	0.3832	0.8661	0.216
Mof_H 	H 	0.1339	0.6168	0.2331	0.22
Mof_H 	H 	0.0933	0.5281	0.2496	0.209
Mof_H 	H 	0.8601	0.604	0.8	0.374
Mof_H 	H 	0.8995	0.6116	0.9015	0.398
Mof_H 	H 	0.7993	0.6037	0.8599	0.37
Mof_H 	H 	0.6824	0.4548	0.7426	0.405
Mof_H 	H 	0.7109	0.3712	0.711	0.409
Mof_H 	H 	0.7418	0.454	0.6819	0.407
Mof_H 	H 	0.018	0.3931	0.2889	0.205
Mof_H 	H 	0.9254	0.3999	0.2427	0.198
Mof_H 	H 	0.0746	0.7574	0.6003	0.207
Mof_H 	H 	0.9822	0.7106	0.6072	0.211
Mof_H 	H 	0.7855	0.2985	0.2347	0.427
Mof_H 	H 	0.8115	0.3326	0.3402	0.441
Mof_H 	H 	0.7803	0.2291	0.2847	0.427
Mof_H 	H 	0.9777	0.2335	0.2344	0.401
Mof_H 	H 	0.8869	0.2272	0.1665	0.433
Mof_H 	H 	0.8852	0.1662	0.2253	0.433
Mof_H 	H 	0.907	0.7506	0.4724	0.205
Mof_H 	H 	0.8661	0.7661	0.3832	0.216
Mof_H 	H 	0.2331	0.1339	0.6168	0.22
Mof_H 	H 	0.2496	0.0933	0.5281	0.209
Mof_H 	H 	0.8	0.8601	0.604	0.374
Mof_H 	H 	0.9015	0.8995	0.6116	0.398
Mof_H 	H 	0.8599	0.7993	0.6037	0.37
Mof_H 	H 	0.7426	0.6824	0.4548	0.405
Mof_H 	H 	0.711	0.7109	0.3712	0.409
Mof_H 	H 	0.6819	0.7418	0.454	0.407
Mof_H 	H 	0.2889	0.018	0.3931	0.205
Mof_H 	H 	0.2427	0.9254	0.3999	0.198
Mof_H 	H 	0.6003	0.0746	0.7574	0.207
Mof_H 	H 	0.6072	0.9822	0.7106	0.211
Mof_H 	H 	0.2347	0.7855	0.2985	0.427
Mof_H 	H 	0.3402	0.8115	0.3326	0.441
Mof_H 	H 	0.2847	0.7803	0.2291	0.427
Mof_H 	H 	0.2344	0.9777	0.2335	0.401
Mof_H 	H 	0.1665	0.8869	0.2272	0.433
Mof_H 	H 	0.2253	0.8852	0.1662	0.433
Mof_H 	H 	0.5276	0.093	0.2494	0.205
Mof_H 	H 	0.6168	0.1339	0.2339	0.216
Mof_H 	H 	0.3832	0.7669	0.8661	0.22
Mof_H 	H 	0.4719	0.7504	0.9067	0.209
Mof_H 	H 	0.396	0.2	0.1399	0.374
Mof_H 	H 	0.3884	0.0985	0.1005	0.398
Mof_H 	H 	0.3963	0.1401	0.2007	0.37
Mof_H 	H 	0.5452	0.2574	0.3176	0.405
Mof_H 	H 	0.6288	0.289	0.2891	0.409
Mof_H 	H 	0.546	0.3181	0.2582	0.407
Mof_H 	H 	0.6069	0.7111	0.982	0.205
Mof_H 	H 	0.6001	0.7573	0.0746	0.198
Mof_H 	H 	0.2426	0.3997	0.9254	0.207
Mof_H 	H 	0.2894	0.3928	0.0178	0.211
Mof_H 	H 	0.7015	0.7653	0.2145	0.427
Mof_H 	H 	0.6674	0.6598	0.1885	0.441
Mof_H 	H 	0.7709	0.7153	0.2197	0.427
Mof_H 	H 	0.7665	0.7656	0.0223	0.401
Mof_H 	H 	0.7728	0.8335	0.1131	0.433
Mof_H 	H 	0.8338	0.7747	0.1148	0.433
Mof_H 	H 	0.2494	0.5276	0.093	0.205
Mof_H 	H 	0.2339	0.6168	0.1339	0.216
Mof_H 	H 	0.8661	0.3832	0.7669	0.22
Mof_H 	H 	0.9067	0.4719	0.7504	0.209
Mof_H 	H 	0.1399	0.396	0.2	0.374
Mof_H 	H 	0.1005	0.3884	0.0985	0.398
Mof_H 	H 	0.2007	0.3963	0.1401	0.37
Mof_H 	H 	0.3176	0.5452	0.2574	0.405
Mof_H 	H 	0.2891	0.6288	0.289	0.409
Mof_H 	H 	0.2582	0.546	0.3181	0.407
Mof_H 	H 	0.982	0.6069	0.7111	0.205
Mof_H 	H 	0.0746	0.6001	0.7573	0.198
Mof_H 	H 	0.9254	0.2426	0.3997	0.207
Mof_H 	H 	0.0178	0.2894	0.3928	0.211
Mof_H 	H 	0.2145	0.7015	0.7653	0.427
Mof_H 	H 	0.1885	0.6674	0.6598	0.441
Mof_H 	H 	0.2197	0.7709	0.7153	0.427
Mof_H 	H 	0.0223	0.7665	0.7656	0.401
Mof_H 	H 	0.1131	0.7728	0.8335	0.433
Mof_H 	H 	0.1148	0.8338	0.7747	0.433
Mof_H 	H 	0.093	0.2494	0.5276	0.205
Mof_H 	H 	0.1339	0.2339	0.6168	0.216
Mof_H 	H 	0.7669	0.8661	0.3832	0.22
Mof_H 	H 	0.7504	0.9067	0.4719	0.209
Mof_H 	H 	0.2	0.1399	0.396	0.374
Mof_H 	H 	0.0985	0.1005	0.3884	0.398
Mof_H 	H 	0.1401	0.2007	0.3963	0.37
Mof_H 	H 	0.2574	0.3176	0.5452	0.405
Mof_H 	H 	0.289	0.2891	0.6288	0.409
Mof_H 	H 	0.3181	0.2582	0.546	0.407
Mof_H 	H 	0.7111	0.982	0.6069	0.205
Mof_H 	H 	0.7573	0.0746	0.6001	0.198
Mof_H 	H 	0.3997	0.9254	0.2426	0.207
Mof_H 	H 	0.3928	0.0178	0.2894	0.211
Mof_H 	H 	0.7653	0.2145	0.7015	0.427
Mof_H 	H 	0.6598	0.1885	0.6674	0.441
Mof_H 	H 	0.7153	0.2197	0.7709	0.427
Mof_H 	H 	0.7656	0.0223	0.7665	0.401
Mof_H 	H 	0.8335	0.1131	0.7728	0.433
Mof_H 	H 	0.7747	0.1148	0.8338	0.433
Mof_C 	C 	0.52345	0.12309	0.02757	0.239
Mof_C 	C 	0.5119	0.03816	0.03819	-0.139
Mof_C 	C 	0.47667	0.97291	0.87719	0.232
Mof_C 	C 	0.44836	0.89	0.79365	-0.743
Mof_C 	C 	0.48097	0.81574	0.81589	0.888
Mof_C 	C 	0.55159	0.20608	0.10997	-0.754
Mof_C 	C 	0.58458	0.8468	0.84652	-1.312
Mof_C 	C 	0.43624	0.73004	0.73002	-1.374
Mof_C 	C 	0.62261	0.52704	0.01904	0.244
Mof_C 	C 	0.53793	0.53766	0.00889	-0.142
Mof_C 	C 	0.47311	0.37733	0.9812	0.24
Mof_C 	C 	0.39333	0.29561	0.9615	-0.737
Mof_C 	C 	0.30042	0.30086	0.912	0.924
Mof_C 	C 	0.70441	0.60693	0.03882	-0.757
Mof_C 	C 	0.28898	0.28902	0.8136	-1.419
Mof_C 	C 	0.22494	0.22486	0.9151	-1.419
Mof_C 	C 	0.02757	0.52345	0.12309	0.239
Mof_C 	C 	0.03819	0.5119	0.03816	-0.139
Mof_C 	C 	0.87719	0.47667	0.97291	0.232
Mof_C 	C 	0.79365	0.44836	0.89	-0.743
Mof_C 	C 	0.81589	0.48097	0.81574	0.888
Mof_C 	C 	0.10997	0.55159	0.20608	-0.754
Mof_C 	C 	0.84652	0.58458	0.8468	-1.312
Mof_C 	C 	0.73002	0.43624	0.73004	-1.374
Mof_C 	C 	0.01904	0.62261	0.52704	0.244
Mof_C 	C 	0.00889	0.53793	0.53766	-0.142
Mof_C 	C 	0.9812	0.47311	0.37733	0.24
Mof_C 	C 	0.9615	0.39333	0.29561	-0.737
Mof_C 	C 	0.912	0.30042	0.30086	0.924
Mof_C 	C 	0.03882	0.70441	0.60693	-0.757
Mof_C 	C 	0.8136	0.28898	0.28902	-1.419
Mof_C 	C 	0.9151	0.22494	0.22486	-1.419
Mof_C 	C 	0.12309	0.02757	0.52345	0.239
Mof_C 	C 	0.03816	0.03819	0.5119	-0.139
Mof_C 	C 	0.97291	0.87719	0.47667	0.232
Mof_C 	C 	0.89	0.79365	0.44836	-0.743
Mof_C 	C 	0.81574	0.81589	0.48097	0.888
Mof_C 	C 	0.20608	0.10997	0.55159	-0.754
Mof_C 	C 	0.8468	0.84652	0.58458	-1.312
Mof_C 	C 	0.73004	0.73002	0.43624	-1.374
Mof_C 	C 	0.52704	0.01904	0.62261	0.244
Mof_C 	C 	0.53766	0.00889	0.53793	-0.142
Mof_C 	C 	0.37733	0.9812	0.47311	0.24
Mof_C 	C 	0.29561	0.9615	0.39333	-0.737
Mof_C 	C 	0.30086	0.912	0.30042	0.924
Mof_C 	C 	0.60693	0.03882	0.70441	-0.757
Mof_C 	C 	0.28902	0.8136	0.28898	-1.419
Mof_C 	C 	0.22486	0.9151	0.22494	-1.419
Mof_C 	C 	0.47655	0.87691	0.97243	0.239
Mof_C 	C 	0.4881	0.96184	0.96181	-0.139
Mof_C 	C 	0.52333	0.02709	0.12281	0.232
Mof_C 	C 	0.55164	0.11	0.20635	-0.743
Mof_C 	C 	0.51903	0.18426	0.18411	0.888
Mof_C 	C 	0.44841	0.79392	0.89003	-0.754
Mof_C 	C 	0.41542	0.1532	0.15348	-1.312
Mof_C 	C 	0.56376	0.26996	0.26998	-1.374
Mof_C 	C 	0.37739	0.47296	0.98096	0.244
Mof_C 	C 	0.46207	0.46234	0.99111	-0.142
Mof_C 	C 	0.52689	0.62267	0.0188	0.24
Mof_C 	C 	0.60667	0.70439	0.0385	-0.737
Mof_C 	C 	0.69958	0.69914	0.088	0.924
Mof_C 	C 	0.29559	0.39307	0.96118	-0.757
Mof_C 	C 	0.71102	0.71098	0.1864	-1.419
Mof_C 	C 	0.77506	0.77514	0.0849	-1.419
Mof_C 	C 	0.97243	0.47655	0.87691	0.239
Mof_C 	C 	0.96181	0.4881	0.96184	-0.139
Mof_C 	C 	0.12281	0.52333	0.02709	0.232
Mof_C 	C 	0.20635	0.55164	0.11	-0.743
Mof_C 	C 	0.18411	0.51903	0.18426	0.888
Mof_C 	C 	0.89003	0.44841	0.79392	-0.754
Mof_C 	C 	0.15348	0.41542	0.1532	-1.312
Mof_C 	C 	0.26998	0.56376	0.26996	-1.374
Mof_C 	C 	0.98096	0.37739	0.47296	0.244
Mof_C 	C 	0.99111	0.46207	0.46234	-0.142
Mof_C 	C 	0.0188	0.52689	0.62267	0.24
Mof_C 	C 	0.0385	0.60667	0.70439	-0.737
Mof_C 	C 	0.088	0.69958	0.69914	0.924
Mof_C 	C 	0.96118	0.29559	0.39307	-0.757
Mof_C 	C 	0.1864	0.71102	0.71098	-1.419
Mof_C 	C 	0.0849	0.77506	0.77514	-1.419
Mof_C 	C 	0.87691	0.97243	0.47655	0.239
Mof_C 	C 	0.96184	0.96181	0.4881	-0.139
Mof_C 	C 	0.02709	0.12281	0.52333	0.232
Mof_C 	C 	0.11	0.20635	0.55164	-0.743
Mof_C 	C 	0.18426	0.18411	0.51903	0.888
Mof_C 	C 	0.79392	0.89003	0.44841	-0.754
Mof_C 	C 	0.1532	0.15348	0.41542	-1.312
Mof_C 	C 	0.26996	0.26998	0.56376	-1.374
Mof_C 	C 	0.47296	0.98096	0.37739	0.244
Mof_C 	C 	0.46234	0.99111	0.46207	-0.142
Mof_C 	C 	0.62267	0.0188	0.52689	0.24
Mof_C 	C 	0.70439	0.0385	0.60667	-0.737
Mof_C 	C 	0.69914	0.088	0.69958	0.924
Mof_C 	C 	0.39307	0.96118	0.29559	-0.757
Mof_C 	C 	0.71098	0.1864	0.71102	-1.419
Mof_C 	C 	0.77514	0.0849	0.77506	-1.419
Mof_I 	I 	0.73861	0.26139	0.99999	-0.592
Mof_I 	I 	0.50001	0.23807	0.76197	-0.58
Mof_I 	I 	0.99999	0.73861	0.26139	-0.592
Mof_I 	I 	0.76197	0.50001	0.23807	-0.58
Mof_I 	I 	0.26139	0.99999	0.73861	-0.592
Mof_I 	I 	0.23807	0.76197	0.50001	-0.58
Mof_I 	I 	0.26139	0.73861	1e-05	-0.592
Mof_I 	I 	0.49999	0.76193	0.23803	-0.58
Mof_I 	I 	1e-05	0.26139	0.73861	-0.592
Mof_I 	I 	0.23803	0.49999	0.76193	-0.58
Mof_I 	I 	0.73861	1e-05	0.26139	-0.592
Mof_I 	I 	0.76193	0.23803	0.49999	-0.58
Mof_N 	N 	0.51267	0.1297	0.94678	-0.253
Mof_N 	N 	0.48762	0.05359	0.87061	-0.251
Mof_N 	N 	0.62939	0.44701	0.0118	-0.255
Mof_N 	N 	0.55302	0.37064	0.98805	-0.254
Mof_N 	N 	0.94678	0.51267	0.1297	-0.253
Mof_N 	N 	0.87061	0.48762	0.05359	-0.251
Mof_N 	N 	0.0118	0.62939	0.44701	-0.255
Mof_N 	N 	0.98805	0.55302	0.37064	-0.254
Mof_N 	N 	0.1297	0.94678	0.51267	-0.253
Mof_N 	N 	0.05359	0.87061	0.48762	-0.251
Mof_N 	N 	0.44701	0.0118	0.62939	-0.255
Mof_N 	N 	0.37064	0.98805	0.55302	-0.254
Mof_N 	N 	0.48733	0.8703	0.05322	-0.253
Mof_N 	N 	0.51238	0.94641	0.12939	-0.251
Mof_N 	N 	0.37061	0.55299	0.9882	-0.255
Mof_N 	N 	0.44698	0.62936	0.01195	-0.254
Mof_N 	N 	0.05322	0.48733	0.8703	-0.253
Mof_N 	N 	0.12939	0.51238	0.94641	-0.251
Mof_N 	N 	0.9882	0.37061	0.55299	-0.255
Mof_N 	N 	0.01195	0.44698	0.62936	-0.254
Mof_N 	N 	0.8703	0.05322	0.48733	-0.253
Mof_N 	N 	0.94641	0.12939	0.51238	-0.251
Mof_N 	N 	0.55299	0.9882	0.37061	-0.255
Mof_N 	N 	0.62936	0.01195	0.44698	-0.254
_end
