data_functionalizedCrystal
_audit_creation_method	'EQeq! by Chris Wilmer'
_symmetry_space_group_name_H-M	'P1'
_symmetry_Int_Tables_number	1
_symmetry_cell_setting	triclinic
loop_
_symmetry_equiv_pos_as_xyz
  x,y,z
_cell_length_a	18.8542
_cell_length_b	18.0734
_cell_length_c	19.5409
_cell_angle_alpha	90
_cell_angle_beta	94.771
_cell_angle_gamma	90
loop_
_atom_site_label
_atom_site_type_symbol
_atom_site_fract_x
_atom_site_fract_y
_atom_site_fract_z
_atom_site_charge
Mof_Dy	Dy	0.30556	0.52372	0.00854	2.283
Mof_Dy	Dy	0.39641	0.38966	0.12688	2.289
Mof_Dy	Dy	0.40438	0.6346	0.88592	2.098
Mof_Dy	Dy	0.11117	0.56335	0.00349	1.931
Mof_Dy	Dy	0.44947	0.32002	0.85343	1.749
Mof_Ge	Ge	0.62253	0.41668	0.83004	1.453
Mof_Ge	Ge	0.6054	0.29891	0.94967	1.413
Mof_Ge	Ge	0.45877	0.25828	0.01642	1.393
Mof_Ge	Ge	0.31281	0.34321	0.95261	1.434
Mof_Ge	Ge	0.33553	0.46441	0.83306	1.447
Mof_Ge	Ge	0.48004	0.50451	0.76936	1.443
Mof_Ge	Ge	0.18994	0.43101	0.12406	1.53
Mof_N 	N 	0.1154	0.6968	0.9579	-0.283
Mof_H 	H 	0.0937	0.7335	0.9749	0.108
Mof_O 	O 	0.5817	0.3355	0.862	-0.857
Mof_O 	O 	0.516	0.2611	0.9463	-0.843
Mof_O 	O 	0.385	0.2743	0.9552	-0.803
Mof_O 	O 	0.3395	0.3712	0.8683	-0.869
Mof_O 	O 	0.4151	0.4397	0.7897	-0.859
Mof_O 	O 	0.5526	0.4415	0.7662	-0.778
Mof_O 	O 	0.6262	0.4891	0.8903	-1.007
Mof_O 	O 	0.6148	0.3787	0.0018	-0.928
Mof_O 	O 	0.4832	0.3312	0.0709	-0.971
Mof_O 	O 	0.3406	0.4024	0.0212	-0.987
Mof_O 	O 	0.3602	0.5167	0.9059	-0.934
Mof_O 	O 	0.4916	0.5676	0.8363	-0.974
Mof_O 	O 	0.723	0.3748	0.915	-0.618
Mof_O 	O 	0.8373	0.3598	0.9051	-0.55
Mof_O 	O 	0.6069	0.2465	0.061	-0.614
Mof_O 	O 	0.6504	0.1483	0.1154	-0.367
Mof_O 	O 	0.364	0.2662	0.1199	-0.622
Mof_O 	O 	0.264	0.201	0.11	-0.191
Mof_O 	O 	0.232	0.4379	0.932	-0.6
Mof_O 	O 	0.115	0.4473	0.941	-0.489
Mof_O 	O 	0.3488	0.5787	0.7815	-0.617
Mof_O 	O 	0.2871	0.6579	0.7119	-0.342
Mof_O 	O 	0.5788	0.7041	0.6785	-0.574
Mof_O 	O 	0.594	0.6199	0.7515	-0.585
Mof_O 	O 	0.0523	0.4826	0.0694	-0.617
Mof_O 	O 	0.9581	0.426	0.1033	-0.528
Mof_O 	O 	0.1608	0.3457	0.0891	-0.729
Mof_H 	H 	0.1235	0.3517	0.065	0.299
Mof_O 	O 	0.2766	0.4033	0.1637	-0.819
Mof_H 	H 	0.2747	0.3912	0.2098	0.234
Mof_O 	O 	0.2048	0.4919	0.0605	-0.916
Mof_O 	O 	0.2151	0.5943	0.9471	-0.682
Mof_O 	O 	0.2793	0.6646	0.8811	-0.534
Mof_C 	C 	0.7002	0.3986	0.7757	-0.695
Mof_H 	H 	0.6809	0.3794	0.7317	0.217
Mof_H 	H 	0.7223	0.4458	0.7671	0.165
Mof_C 	C 	0.7588	0.3457	0.8041	-0.101
Mof_H 	H 	0.8011	0.3526	0.7798	0.032
Mof_H 	H 	0.743	0.2949	0.7979	0.044
Mof_C 	C 	0.7755	0.3621	0.8806	0.446
Mof_C 	C 	0.6714	0.2191	0.9453	-0.669
Mof_H 	H 	0.6684	0.2	0.8987	0.202
Mof_H 	H 	0.7192	0.2379	0.9559	0.197
Mof_C 	C 	0.6584	0.1555	0.9944	-0.084
Mof_H 	H 	0.7014	0.1261	0.002	0.043
Mof_H 	H 	0.6209	0.1239	0.9739	0.026
Mof_C 	C 	0.637	0.1846	0.0635	0.409
Mof_C 	C 	0.4475	0.1607	0.0566	-0.607
Mof_H 	H 	0.4631	0.1233	0.0255	0.172
Mof_H 	H 	0.4775	0.1572	0.0993	0.152
Mof_C 	C 	0.3702	0.1452	0.071	-0.131
Mof_H 	H 	0.3429	0.1354	0.0274	0.044
Mof_H 	H 	0.369	0.1007	0.0984	0.046
Mof_C 	C 	0.3338	0.2075	0.1074	0.429
Mof_C 	C 	0.2274	0.2836	0.9449	-0.681
Mof_H 	H 	0.2348	0.2408	0.9164	0.199
Mof_H 	H 	0.2176	0.2661	0.9901	0.21
Mof_C 	C 	0.1635	0.3277	0.9135	-0.075
Mof_H 	H 	0.1599	0.3216	0.864	0.025
Mof_H 	H 	0.1203	0.3081	0.9303	0.028
Mof_C 	C 	0.1695	0.41	0.9308	0.394
Mof_C 	C 	0.2477	0.4717	0.7748	-0.677
Mof_H 	H 	0.2373	0.4239	0.7539	0.206
Mof_H 	H 	0.2094	0.4835	0.8032	0.196
Mof_C 	C 	0.249	0.5298	0.7182	-0.058
Mof_H 	H 	0.2009	0.548	0.707	0.036
Mof_H 	H 	0.2647	0.5068	0.6773	0.027
Mof_C 	C 	0.2977	0.595	0.7389	0.366
Mof_C 	C 	0.4647	0.5435	0.6763	-0.653
Mof_H 	H 	0.4483	0.5045	0.6448	0.188
Mof_H 	H 	0.4291	0.5823	0.6744	0.17
Mof_C 	C 	0.5358	0.574	0.657	-0.123
Mof_H 	H 	0.5316	0.5866	0.6083	0.038
Mof_H 	H 	0.5721	0.5364	0.6641	0.045
Mof_C 	C 	0.559	0.6433	0.698	0.441
Mof_C 	C 	0.1322	0.4636	0.1954	-0.708
Mof_H 	H 	0.1534	0.4465	0.2395	0.188
Mof_H 	H 	0.1313	0.5172	0.1963	0.186
Mof_C 	C 	0.0559	0.4343	0.184	-0.099
Mof_H 	H 	0.0569	0.3811	0.1911	0.036
Mof_H 	H 	0.0282	0.4557	0.2186	0.044
Mof_C 	C 	0.018	0.4501	0.1134	0.446
Mof_C 	C 	0.175	0.774	0.862	-0.467
Mof_H 	H 	0.1343	0.8057	0.8597	0.156
Mof_H 	H 	0.186	0.7616	0.8159	0.161
Mof_H 	H 	0.2149	0.7983	0.8854	0.167
Mof_C 	C 	0.1587	0.7029	0.9	-0.009
Mof_H 	H 	0.1277	0.6779	0.8645	0.023
Mof_C 	C 	0.2221	0.6505	0.9047	0.425
Mof_O 	O 	0.289	0.179	0.151	-0.198
Mof_Dy	Dy	0.69444	0.02372	0.49146	2.284
Mof_Dy	Dy	0.60359	0.88966	0.37312	2.289
Mof_Dy	Dy	0.59562	0.1346	0.61408	2.096
Mof_Dy	Dy	0.88883	0.06335	0.49651	1.937
Mof_Dy	Dy	0.55053	0.82002	0.64657	1.748
Mof_Ge	Ge	0.37747	0.91668	0.66996	1.452
Mof_Ge	Ge	0.3946	0.79891	0.55033	1.419
Mof_Ge	Ge	0.54123	0.75828	0.48358	1.391
Mof_Ge	Ge	0.68719	0.84321	0.54739	1.43
Mof_Ge	Ge	0.66447	0.96441	0.66694	1.45
Mof_Ge	Ge	0.51996	0.00451	0.73064	1.441
Mof_Ge	Ge	0.81006	0.93101	0.37594	1.528
Mof_N 	N 	0.8846	0.1968	0.5421	-0.284
Mof_H 	H 	0.9063	0.2335	0.5251	0.105
Mof_O 	O 	0.4183	0.8355	0.638	-0.858
Mof_O 	O 	0.484	0.7611	0.5537	-0.843
Mof_O 	O 	0.615	0.7743	0.5448	-0.803
Mof_O 	O 	0.6605	0.8712	0.6317	-0.869
Mof_O 	O 	0.5849	0.9397	0.7103	-0.858
Mof_O 	O 	0.4474	0.9415	0.7338	-0.777
Mof_O 	O 	0.3738	0.9891	0.6097	-1.007
Mof_O 	O 	0.3852	0.8787	0.4982	-0.931
Mof_O 	O 	0.5168	0.8312	0.4291	-0.971
Mof_O 	O 	0.6594	0.9024	0.4788	-0.985
Mof_O 	O 	0.6398	0.0167	0.5941	-0.936
Mof_O 	O 	0.5084	0.0676	0.6637	-0.973
Mof_O 	O 	0.277	0.8748	0.585	-0.618
Mof_O 	O 	0.1627	0.8598	0.5949	-0.549
Mof_O 	O 	0.3931	0.7465	0.439	-0.613
Mof_O 	O 	0.3496	0.6483	0.3846	-0.365
Mof_O 	O 	0.636	0.7662	0.3801	-0.622
Mof_O 	O 	0.736	0.701	0.39	-0.19
Mof_O 	O 	0.768	0.9379	0.568	-0.601
Mof_O 	O 	0.885	0.9473	0.559	-0.491
Mof_O 	O 	0.6512	0.0787	0.7185	-0.618
Mof_O 	O 	0.7129	0.1579	0.7881	-0.343
Mof_O 	O 	0.4212	0.2041	0.8215	-0.574
Mof_O 	O 	0.406	0.1199	0.7485	-0.585
Mof_O 	O 	0.9477	0.9826	0.4306	-0.62
Mof_O 	O 	0.0419	0.926	0.3967	-0.544
Mof_O 	O 	0.8392	0.8457	0.4109	-0.728
Mof_H 	H 	0.8765	0.8517	0.435	0.299
Mof_O 	O 	0.7234	0.9033	0.3363	-0.818
Mof_H 	H 	0.7253	0.8912	0.2902	0.235
Mof_O 	O 	0.7952	0.9919	0.4395	-0.914
Mof_O 	O 	0.7849	0.0943	0.5529	-0.686
Mof_O 	O 	0.7207	0.1646	0.6189	-0.535
Mof_C 	C 	0.2998	0.8986	0.7243	-0.695
Mof_H 	H 	0.3191	0.8794	0.7683	0.217
Mof_H 	H 	0.2777	0.9458	0.7329	0.165
Mof_C 	C 	0.2412	0.8457	0.6959	-0.101
Mof_H 	H 	0.1989	0.8526	0.7202	0.033
Mof_H 	H 	0.257	0.7949	0.7021	0.045
Mof_C 	C 	0.2245	0.8621	0.6194	0.446
Mof_C 	C 	0.3286	0.7191	0.5547	-0.678
Mof_H 	H 	0.3316	0.7	0.6013	0.205
Mof_H 	H 	0.2808	0.7379	0.5441	0.201
Mof_C 	C 	0.3416	0.6555	0.5056	-0.067
Mof_H 	H 	0.2986	0.6261	0.498	0.035
Mof_H 	H 	0.3791	0.6239	0.5261	0.021
Mof_C 	C 	0.363	0.6846	0.4365	0.401
Mof_C 	C 	0.5525	0.6607	0.4434	-0.606
Mof_H 	H 	0.5369	0.6233	0.4745	0.171
Mof_H 	H 	0.5225	0.6572	0.4007	0.151
Mof_C 	C 	0.6298	0.6452	0.429	-0.131
Mof_H 	H 	0.6571	0.6354	0.4726	0.044
Mof_H 	H 	0.631	0.6007	0.4016	0.046
Mof_C 	C 	0.6662	0.7075	0.3926	0.429
Mof_C 	C 	0.7726	0.7836	0.5551	-0.679
Mof_H 	H 	0.7652	0.7408	0.5836	0.198
Mof_H 	H 	0.7824	0.7661	0.5099	0.208
Mof_C 	C 	0.8365	0.8277	0.5865	-0.076
Mof_H 	H 	0.8401	0.8216	0.636	0.024
Mof_H 	H 	0.8797	0.8081	0.5697	0.027
Mof_C 	C 	0.8305	0.91	0.5692	0.394
Mof_C 	C 	0.7523	0.9717	0.7252	-0.673
Mof_H 	H 	0.7627	0.9239	0.7461	0.206
Mof_H 	H 	0.7906	0.9835	0.6968	0.196
Mof_C 	C 	0.751	0.0298	0.7818	-0.061
Mof_H 	H 	0.7991	0.048	0.793	0.035
Mof_H 	H 	0.7353	0.0068	0.8227	0.027
Mof_C 	C 	0.7023	0.095	0.7611	0.366
Mof_C 	C 	0.5353	0.0435	0.8237	-0.652
Mof_H 	H 	0.5517	0.0045	0.8552	0.187
Mof_H 	H 	0.5709	0.0823	0.8256	0.17
Mof_C 	C 	0.4642	0.074	0.843	-0.124
Mof_H 	H 	0.4684	0.0866	0.8917	0.039
Mof_H 	H 	0.4279	0.0364	0.8359	0.045
Mof_C 	C 	0.441	0.1433	0.802	0.442
Mof_C 	C 	0.8678	0.9636	0.3046	-0.695
Mof_H 	H 	0.8466	0.9465	0.2605	0.186
Mof_H 	H 	0.8687	0.0172	0.3037	0.181
Mof_C 	C 	0.9441	0.9343	0.316	-0.114
Mof_H 	H 	0.9431	0.8811	0.3089	0.042
Mof_H 	H 	0.9718	0.9557	0.2814	0.052
Mof_C 	C 	0.982	0.9501	0.3866	0.465
Mof_C 	C 	0.825	0.274	0.638	-0.464
Mof_H 	H 	0.8657	0.3057	0.6403	0.154
Mof_H 	H 	0.814	0.2616	0.6841	0.159
Mof_H 	H 	0.7851	0.2983	0.6146	0.166
Mof_C 	C 	0.8413	0.2029	0.6	-0.011
Mof_H 	H 	0.8723	0.1779	0.6355	0.022
Mof_C 	C 	0.7779	0.1505	0.5953	0.425
Mof_O 	O 	0.711	0.679	0.349	-0.198
Mof_Dy	Dy	0.69444	0.47628	0.99146	2.282
Mof_Dy	Dy	0.60359	0.61034	0.87312	2.288
Mof_Dy	Dy	0.59562	0.3654	0.11408	2.097
Mof_Dy	Dy	0.88883	0.43665	0.99651	1.93
Mof_Dy	Dy	0.55053	0.67998	0.14657	1.748
Mof_Ge	Ge	0.37747	0.58332	0.16996	1.452
Mof_Ge	Ge	0.3946	0.70109	0.05033	1.413
Mof_Ge	Ge	0.54123	0.74172	0.98358	1.393
Mof_Ge	Ge	0.68719	0.65679	0.04739	1.434
Mof_Ge	Ge	0.66447	0.53559	0.16694	1.447
Mof_Ge	Ge	0.51996	0.49549	0.23064	1.443
Mof_Ge	Ge	0.81006	0.56899	0.87594	1.53
Mof_N 	N 	0.8846	0.3032	0.0421	-0.283
Mof_H 	H 	0.9063	0.2665	0.0251	0.108
Mof_O 	O 	0.4183	0.6645	0.138	-0.857
Mof_O 	O 	0.484	0.7389	0.0537	-0.843
Mof_O 	O 	0.615	0.7257	0.0448	-0.803
Mof_O 	O 	0.6605	0.6288	0.1317	-0.869
Mof_O 	O 	0.5849	0.5603	0.2103	-0.859
Mof_O 	O 	0.4474	0.5585	0.2338	-0.778
Mof_O 	O 	0.3738	0.5109	0.1097	-1.007
Mof_O 	O 	0.3852	0.6213	0.9982	-0.928
Mof_O 	O 	0.5168	0.6688	0.9291	-0.971
Mof_O 	O 	0.6594	0.5976	0.9788	-0.987
Mof_O 	O 	0.6398	0.4833	0.0941	-0.934
Mof_O 	O 	0.5084	0.4324	0.1637	-0.974
Mof_O 	O 	0.277	0.6252	0.085	-0.618
Mof_O 	O 	0.1627	0.6402	0.0949	-0.55
Mof_O 	O 	0.3931	0.7535	0.939	-0.614
Mof_O 	O 	0.3496	0.8517	0.8846	-0.367
Mof_O 	O 	0.636	0.7338	0.8801	-0.622
Mof_O 	O 	0.736	0.799	0.89	-0.191
Mof_O 	O 	0.768	0.5621	0.068	-0.6
Mof_O 	O 	0.885	0.5527	0.059	-0.489
Mof_O 	O 	0.6512	0.4213	0.2185	-0.617
Mof_O 	O 	0.7129	0.3421	0.2881	-0.342
Mof_O 	O 	0.4212	0.2959	0.3215	-0.574
Mof_O 	O 	0.406	0.3801	0.2485	-0.585
Mof_O 	O 	0.9477	0.5174	0.9306	-0.617
Mof_O 	O 	0.0419	0.574	0.8967	-0.528
Mof_O 	O 	0.8392	0.6543	0.9109	-0.729
Mof_H 	H 	0.8765	0.6483	0.935	0.299
Mof_O 	O 	0.7234	0.5967	0.8363	-0.819
Mof_H 	H 	0.7253	0.6088	0.7902	0.234
Mof_O 	O 	0.7952	0.5081	0.9395	-0.916
Mof_O 	O 	0.7849	0.4057	0.0529	-0.682
Mof_O 	O 	0.7207	0.3354	0.1189	-0.534
Mof_C 	C 	0.2998	0.6014	0.2243	-0.695
Mof_H 	H 	0.3191	0.6206	0.2683	0.217
Mof_H 	H 	0.2777	0.5542	0.2329	0.165
Mof_C 	C 	0.2412	0.6543	0.1959	-0.101
Mof_H 	H 	0.1989	0.6474	0.2202	0.032
Mof_H 	H 	0.257	0.7051	0.2021	0.044
Mof_C 	C 	0.2245	0.6379	0.1194	0.446
Mof_C 	C 	0.3286	0.7809	0.0547	-0.669
Mof_H 	H 	0.3316	0.8	0.1013	0.202
Mof_H 	H 	0.2808	0.7621	0.0441	0.197
Mof_C 	C 	0.3416	0.8445	0.0056	-0.084
Mof_H 	H 	0.2986	0.8739	0.998	0.043
Mof_H 	H 	0.3791	0.8761	0.0261	0.026
Mof_C 	C 	0.363	0.8154	0.9365	0.409
Mof_C 	C 	0.5525	0.8393	0.9434	-0.607
Mof_H 	H 	0.5369	0.8767	0.9745	0.172
Mof_H 	H 	0.5225	0.8428	0.9007	0.152
Mof_C 	C 	0.6298	0.8548	0.929	-0.131
Mof_H 	H 	0.6571	0.8646	0.9726	0.044
Mof_H 	H 	0.631	0.8993	0.9016	0.046
Mof_C 	C 	0.6662	0.7925	0.8926	0.429
Mof_C 	C 	0.7726	0.7164	0.0551	-0.681
Mof_H 	H 	0.7652	0.7592	0.0836	0.199
Mof_H 	H 	0.7824	0.7339	0.0099	0.21
Mof_C 	C 	0.8365	0.6723	0.0865	-0.075
Mof_H 	H 	0.8401	0.6784	0.136	0.025
Mof_H 	H 	0.8797	0.6919	0.0697	0.028
Mof_C 	C 	0.8305	0.59	0.0692	0.394
Mof_C 	C 	0.7523	0.5283	0.2252	-0.677
Mof_H 	H 	0.7627	0.5761	0.2461	0.206
Mof_H 	H 	0.7906	0.5165	0.1968	0.196
Mof_C 	C 	0.751	0.4702	0.2818	-0.058
Mof_H 	H 	0.7991	0.452	0.293	0.036
Mof_H 	H 	0.7353	0.4932	0.3227	0.027
Mof_C 	C 	0.7023	0.405	0.2611	0.366
Mof_C 	C 	0.5353	0.4565	0.3237	-0.653
Mof_H 	H 	0.5517	0.4955	0.3552	0.188
Mof_H 	H 	0.5709	0.4177	0.3256	0.17
Mof_C 	C 	0.4642	0.426	0.343	-0.123
Mof_H 	H 	0.4684	0.4134	0.3917	0.038
Mof_H 	H 	0.4279	0.4636	0.3359	0.045
Mof_C 	C 	0.441	0.3567	0.302	0.441
Mof_C 	C 	0.8678	0.5364	0.8046	-0.708
Mof_H 	H 	0.8466	0.5535	0.7605	0.188
Mof_H 	H 	0.8687	0.4828	0.8037	0.186
Mof_C 	C 	0.9441	0.5657	0.816	-0.099
Mof_H 	H 	0.9431	0.6189	0.8089	0.036
Mof_H 	H 	0.9718	0.5443	0.7814	0.044
Mof_C 	C 	0.982	0.5499	0.8866	0.446
Mof_C 	C 	0.825	0.226	0.138	-0.467
Mof_H 	H 	0.8657	0.1943	0.1403	0.156
Mof_H 	H 	0.814	0.2384	0.1841	0.161
Mof_H 	H 	0.7851	0.2017	0.1146	0.167
Mof_C 	C 	0.8413	0.2971	0.1	-0.009
Mof_H 	H 	0.8723	0.3221	0.1355	0.023
Mof_C 	C 	0.7779	0.3495	0.0953	0.425
Mof_O 	O 	0.711	0.821	0.849	-0.198
Mof_Dy	Dy	0.30556	0.97628	0.50854	2.284
Mof_Dy	Dy	0.39641	0.11034	0.62688	2.289
Mof_Dy	Dy	0.40438	0.8654	0.38592	2.096
Mof_Dy	Dy	0.11117	0.93665	0.50349	1.937
Mof_Dy	Dy	0.44947	0.17998	0.35343	1.748
Mof_Ge	Ge	0.62253	0.08332	0.33004	1.452
Mof_Ge	Ge	0.6054	0.20109	0.44967	1.419
Mof_Ge	Ge	0.45877	0.24172	0.51642	1.391
Mof_Ge	Ge	0.31281	0.15679	0.45261	1.43
Mof_Ge	Ge	0.33553	0.03559	0.33306	1.45
Mof_Ge	Ge	0.48004	0.99549	0.26936	1.441
Mof_Ge	Ge	0.18994	0.06899	0.62406	1.528
Mof_N 	N 	0.1154	0.8032	0.4579	-0.284
Mof_H 	H 	0.0937	0.7665	0.4749	0.105
Mof_O 	O 	0.5817	0.1645	0.362	-0.858
Mof_O 	O 	0.516	0.2389	0.4463	-0.843
Mof_O 	O 	0.385	0.2257	0.4552	-0.803
Mof_O 	O 	0.3395	0.1288	0.3683	-0.869
Mof_O 	O 	0.4151	0.0603	0.2897	-0.858
Mof_O 	O 	0.5526	0.0585	0.2662	-0.777
Mof_O 	O 	0.6262	0.0109	0.3903	-1.007
Mof_O 	O 	0.6148	0.1213	0.5018	-0.931
Mof_O 	O 	0.4832	0.1688	0.5709	-0.971
Mof_O 	O 	0.3406	0.0976	0.5212	-0.985
Mof_O 	O 	0.3602	0.9833	0.4059	-0.936
Mof_O 	O 	0.4916	0.9324	0.3363	-0.973
Mof_O 	O 	0.723	0.1252	0.415	-0.618
Mof_O 	O 	0.8373	0.1402	0.4051	-0.549
Mof_O 	O 	0.6069	0.2535	0.561	-0.613
Mof_O 	O 	0.6504	0.3517	0.6154	-0.365
Mof_O 	O 	0.364	0.2338	0.6199	-0.622
Mof_O 	O 	0.264	0.299	0.61	-0.19
Mof_O 	O 	0.232	0.0621	0.432	-0.601
Mof_O 	O 	0.115	0.0527	0.441	-0.491
Mof_O 	O 	0.3488	0.9213	0.2815	-0.618
Mof_O 	O 	0.2871	0.8421	0.2119	-0.343
Mof_O 	O 	0.5788	0.7959	0.1785	-0.574
Mof_O 	O 	0.594	0.8801	0.2515	-0.585
Mof_O 	O 	0.0523	0.0174	0.5694	-0.62
Mof_O 	O 	0.9581	0.074	0.6033	-0.544
Mof_O 	O 	0.1608	0.1543	0.5891	-0.728
Mof_H 	H 	0.1235	0.1483	0.565	0.299
Mof_O 	O 	0.2766	0.0967	0.6637	-0.818
Mof_H 	H 	0.2747	0.1088	0.7098	0.235
Mof_O 	O 	0.2048	0.0081	0.5605	-0.914
Mof_O 	O 	0.2151	0.9057	0.4471	-0.686
Mof_O 	O 	0.2793	0.8354	0.3811	-0.535
Mof_C 	C 	0.7002	0.1014	0.2757	-0.695
Mof_H 	H 	0.6809	0.1206	0.2317	0.217
Mof_H 	H 	0.7223	0.0542	0.2671	0.165
Mof_C 	C 	0.7588	0.1543	0.3041	-0.101
Mof_H 	H 	0.8011	0.1474	0.2798	0.033
Mof_H 	H 	0.743	0.2051	0.2979	0.045
Mof_C 	C 	0.7755	0.1379	0.3806	0.446
Mof_C 	C 	0.6714	0.2809	0.4453	-0.678
Mof_H 	H 	0.6684	0.3	0.3987	0.205
Mof_H 	H 	0.7192	0.2621	0.4559	0.201
Mof_C 	C 	0.6584	0.3445	0.4944	-0.067
Mof_H 	H 	0.7014	0.3739	0.502	0.035
Mof_H 	H 	0.6209	0.3761	0.4739	0.021
Mof_C 	C 	0.637	0.3154	0.5635	0.401
Mof_C 	C 	0.4475	0.3393	0.5566	-0.606
Mof_H 	H 	0.4631	0.3767	0.5255	0.171
Mof_H 	H 	0.4775	0.3428	0.5993	0.151
Mof_C 	C 	0.3702	0.3548	0.571	-0.131
Mof_H 	H 	0.3429	0.3646	0.5274	0.044
Mof_H 	H 	0.369	0.3993	0.5984	0.046
Mof_C 	C 	0.3338	0.2925	0.6074	0.429
Mof_C 	C 	0.2274	0.2164	0.4449	-0.679
Mof_H 	H 	0.2348	0.2592	0.4164	0.198
Mof_H 	H 	0.2176	0.2339	0.4901	0.208
Mof_C 	C 	0.1635	0.1723	0.4135	-0.076
Mof_H 	H 	0.1599	0.1784	0.364	0.024
Mof_H 	H 	0.1203	0.1919	0.4303	0.027
Mof_C 	C 	0.1695	0.09	0.4308	0.394
Mof_C 	C 	0.2477	0.0283	0.2748	-0.673
Mof_H 	H 	0.2373	0.0761	0.2539	0.206
Mof_H 	H 	0.2094	0.0165	0.3032	0.196
Mof_C 	C 	0.249	0.9702	0.2182	-0.061
Mof_H 	H 	0.2009	0.952	0.207	0.035
Mof_H 	H 	0.2647	0.9932	0.1773	0.027
Mof_C 	C 	0.2977	0.905	0.2389	0.366
Mof_C 	C 	0.4647	0.9565	0.1763	-0.652
Mof_H 	H 	0.4483	0.9955	0.1448	0.187
Mof_H 	H 	0.4291	0.9177	0.1744	0.17
Mof_C 	C 	0.5358	0.926	0.157	-0.124
Mof_H 	H 	0.5316	0.9134	0.1083	0.039
Mof_H 	H 	0.5721	0.9636	0.1641	0.045
Mof_C 	C 	0.559	0.8567	0.198	0.442
Mof_C 	C 	0.1322	0.0364	0.6954	-0.695
Mof_H 	H 	0.1534	0.0535	0.7395	0.186
Mof_H 	H 	0.1313	0.9828	0.6963	0.181
Mof_C 	C 	0.0559	0.0657	0.684	-0.114
Mof_H 	H 	0.0569	0.1189	0.6911	0.042
Mof_H 	H 	0.0282	0.0443	0.7186	0.052
Mof_C 	C 	0.018	0.0499	0.6134	0.465
Mof_C 	C 	0.175	0.726	0.362	-0.464
Mof_H 	H 	0.1343	0.6943	0.3597	0.154
Mof_H 	H 	0.186	0.7384	0.3159	0.159
Mof_H 	H 	0.2149	0.7017	0.3854	0.166
Mof_C 	C 	0.1587	0.7971	0.4	-0.011
Mof_H 	H 	0.1277	0.8221	0.3645	0.022
Mof_C 	C 	0.2221	0.8495	0.4047	0.425
Mof_O 	O 	0.289	0.321	0.651	-0.198
_end
