data_functionalizedCrystal
_audit_creation_method	'EQeq! by Chris Wilmer'
_symmetry_space_group_name_H-M	'P1'
_symmetry_Int_Tables_number	1
_symmetry_cell_setting	triclinic
loop_
_symmetry_equiv_pos_as_xyz
  x,y,z
_cell_length_a	27.7371
_cell_length_b	27.7371
_cell_length_c	9.6225
_cell_angle_alpha	90
_cell_angle_beta	90
_cell_angle_gamma	120
loop_
_atom_site_label
_atom_site_type_symbol
_atom_site_fract_x
_atom_site_fract_y
_atom_site_fract_z
_atom_site_charge
Mof_N 	N 	0.7915	0.7207	0.89	-0.092
Mof_N 	N 	0.8028	0.6807	0.8432	-0.21
Mof_N 	N 	0.7659	0.6534	0.056	-0.128
Mof_N 	N 	0.8189	0.5966	0.7949	-0.245
Mof_N 	N 	0.7101	0.7925	0.2452	-0.238
Mof_C 	C 	0.8309	0.5562	0.7683	0.13
Mof_H 	H 	0.8458	0.5555	0.6822	-0.02
Mof_C 	C 	0.8218	0.5158	0.8644	-0.23
Mof_H 	H 	0.8303	0.4883	0.8425	0.115
Mof_C 	C 	0.8004	0.516	0.9912	0.195
Mof_H 	H 	0.7944	0.4889	0.0568	-0.049
Mof_C 	C 	0.7878	0.5568	0.0209	-0.242
Mof_H 	H 	0.7732	0.5579	0.1071	0.116
Mof_C 	C 	0.7971	0.5959	0.9216	0.108
Mof_C 	C 	0.7875	0.6429	0.942	0.071
Mof_C 	C 	0.7693	0.7018	0.0153	0.058
Mof_C 	C 	0.7418	0.8134	0.1326	0.113
Mof_H 	H 	0.7508	0.8489	0.1039	-0.018
Mof_C 	C 	0.7616	0.7859	0.0578	-0.198
Mof_H 	H 	0.7828	0.8022	0.9785	0.115
Mof_C 	C 	0.7504	0.7335	0.0991	0.094
Mof_C 	C 	0.7189	0.712	0.2163	-0.161
Mof_H 	H 	0.711	0.6773	0.2491	0.098
Mof_C 	C 	0.699	0.7419	0.2856	0.093
Mof_H 	H 	0.6769	0.7261	0.3638	-0.004
Mof_N 	N 	0.45817	0.05403	0.22333	-0.102
Mof_N 	N 	0.46947	0.01403	0.17653	-0.223
Mof_N 	N 	0.43257	0.98673	0.38933	-0.119
Mof_N 	N 	0.48557	0.92993	0.12823	-0.226
Mof_N 	N 	0.37677	0.12583	0.57853	-0.231
Mof_C 	C 	0.49757	0.88953	0.10163	0.081
Mof_H 	H 	0.51247	0.88883	0.01553	-0.008
Mof_C 	C 	0.48847	0.84913	0.19773	-0.144
Mof_H 	H 	0.49697	0.82163	0.17583	0.08
Mof_C 	C 	0.46707	0.84933	0.32453	0.059
Mof_H 	H 	0.46107	0.82223	0.39013	0.008
Mof_C 	C 	0.45447	0.89013	0.35423	-0.123
Mof_H 	H 	0.43987	0.89123	0.44043	0.079
Mof_C 	C 	0.46377	0.92923	0.25493	0.053
Mof_C 	C 	0.45417	0.97623	0.27533	0.087
Mof_C 	C 	0.43597	0.03513	0.34863	0.067
Mof_C 	C 	0.40847	0.14673	0.46593	0.087
Mof_H 	H 	0.41747	0.18223	0.43723	-0.008
Mof_C 	C 	0.42827	0.11923	0.39113	-0.149
Mof_H 	H 	0.44947	0.13553	0.31183	0.085
Mof_C 	C 	0.41707	0.06683	0.43243	0.072
Mof_C 	C 	0.38557	0.04533	0.54963	-0.145
Mof_H 	H 	0.37767	0.01063	0.58243	0.088
Mof_C 	C 	0.36567	0.07523	0.61893	0.082
Mof_H 	H 	0.34357	0.05943	0.69713	-0.002
Mof_N 	N 	0.12483	0.38737	0.55667	-0.1
Mof_N 	N 	0.13613	0.34737	0.50987	-0.212
Mof_N 	N 	0.09923	0.32007	0.72267	-0.125
Mof_N 	N 	0.15223	0.26327	0.46157	-0.228
Mof_N 	N 	0.04343	0.45917	0.91187	-0.237
Mof_C 	C 	0.16423	0.22287	0.43497	0.081
Mof_H 	H 	0.17913	0.22217	0.34887	-0.005
Mof_C 	C 	0.15513	0.18247	0.53107	-0.146
Mof_H 	H 	0.16363	0.15497	0.50917	0.081
Mof_C 	C 	0.13373	0.18267	0.65787	0.061
Mof_H 	H 	0.12773	0.15557	0.72347	0.007
Mof_C 	C 	0.12113	0.22347	0.68757	-0.127
Mof_H 	H 	0.10653	0.22457	0.77377	0.08
Mof_C 	C 	0.13043	0.26257	0.58827	0.056
Mof_C 	C 	0.12083	0.30957	0.60867	0.073
Mof_C 	C 	0.10263	0.36847	0.68197	0.075
Mof_C 	C 	0.07513	0.48007	0.79927	0.094
Mof_H 	H 	0.08413	0.51557	0.77057	-0.008
Mof_C 	C 	0.09493	0.45257	0.72447	-0.158
Mof_H 	H 	0.11613	0.46887	0.64517	0.09
Mof_C 	C 	0.08373	0.40017	0.76577	0.083
Mof_C 	C 	0.05223	0.37867	0.88297	-0.17
Mof_H 	H 	0.04433	0.34397	0.91577	0.104
Mof_C 	C 	0.03233	0.40857	0.95227	0.125
Mof_H 	H 	0.01023	0.39277	0.03047	-0.031
Mof_N 	N 	0.2793	0.0708	0.89	-0.093
Mof_N 	N 	0.3193	0.1221	0.8432	-0.21
Mof_N 	N 	0.3466	0.1125	0.056	-0.129
Mof_N 	N 	0.4034	0.2223	0.7949	-0.245
Mof_N 	N 	0.2075	0.9176	0.2452	-0.239
Mof_C 	C 	0.4438	0.2747	0.7683	0.132
Mof_H 	H 	0.4445	0.2903	0.6822	-0.021
Mof_C 	C 	0.4842	0.306	0.8644	-0.234
Mof_H 	H 	0.5117	0.342	0.8425	0.116
Mof_C 	C 	0.484	0.2844	0.9912	0.201
Mof_H 	H 	0.5111	0.3055	0.0568	-0.051
Mof_C 	C 	0.4432	0.231	0.0209	-0.246
Mof_H 	H 	0.4421	0.2153	0.1071	0.118
Mof_C 	C 	0.4041	0.2012	0.9216	0.11
Mof_C 	C 	0.3571	0.1446	0.942	0.071
Mof_C 	C 	0.2982	0.0675	0.0153	0.057
Mof_C 	C 	0.1866	0.9284	0.1326	0.107
Mof_H 	H 	0.1511	0.9019	0.1039	-0.017
Mof_C 	C 	0.2141	0.9757	0.0578	-0.179
Mof_H 	H 	0.1978	0.9806	0.9785	0.112
Mof_C 	C 	0.2665	0.0169	0.0991	0.082
Mof_C 	C 	0.288	0.0069	0.2163	-0.181
Mof_H 	H 	0.3227	0.0337	0.2491	0.103
Mof_C 	C 	0.2581	0.9571	0.2856	0.114
Mof_H 	H 	0.2739	0.9508	0.3638	-0.008
Mof_N 	N 	0.94597	0.40413	0.22333	-0.103
Mof_N 	N 	0.98597	0.45543	0.17653	-0.203
Mof_N 	N 	0.01327	0.44583	0.38933	-0.133
Mof_N 	N 	0.07007	0.55563	0.12823	-0.232
Mof_N 	N 	0.87417	0.25093	0.57853	-0.23
Mof_C 	C 	0.11047	0.60803	0.10163	0.081
Mof_H 	H 	0.11117	0.62363	0.01553	-0.01
Mof_C 	C 	0.15087	0.63933	0.19773	-0.148
Mof_H 	H 	0.17837	0.67533	0.17583	0.081
Mof_C 	C 	0.15067	0.61773	0.32453	0.063
Mof_H 	H 	0.17777	0.63883	0.39013	0.007
Mof_C 	C 	0.10987	0.56433	0.35423	-0.129
Mof_H 	H 	0.10877	0.54863	0.44043	0.08
Mof_C 	C 	0.07077	0.53453	0.25493	0.058
Mof_C 	C 	0.02377	0.47793	0.27533	0.059
Mof_C 	C 	0.96487	0.40083	0.34863	0.093
Mof_C 	C 	0.85327	0.26173	0.46593	0.085
Mof_H 	H 	0.81777	0.23523	0.43723	-0.007
Mof_C 	C 	0.88077	0.30903	0.39113	-0.144
Mof_H 	H 	0.86447	0.31393	0.31183	0.083
Mof_C 	C 	0.93317	0.35023	0.43243	0.066
Mof_C 	C 	0.95467	0.34023	0.54963	-0.139
Mof_H 	H 	0.98937	0.36703	0.58243	0.096
Mof_C 	C 	0.92477	0.29043	0.61893	0.082
Mof_H 	H 	0.94057	0.28413	0.69713	0.003
Mof_N 	N 	0.61263	0.73747	0.55667	-0.1
Mof_N 	N 	0.65263	0.78877	0.50987	-0.212
Mof_N 	N 	0.67993	0.77917	0.72267	-0.125
Mof_N 	N 	0.73673	0.88897	0.46157	-0.22
Mof_N 	N 	0.54083	0.58427	0.91187	-0.235
Mof_C 	C 	0.77713	0.94137	0.43497	0.054
Mof_H 	H 	0.77783	0.95697	0.34887	0.009
Mof_C 	C 	0.81753	0.97267	0.53107	-0.087
Mof_H 	H 	0.84503	0.00867	0.50917	0.053
Mof_C 	C 	0.81733	0.95107	0.65787	0.024
Mof_H 	H 	0.84443	0.97217	0.72347	0.028
Mof_C 	C 	0.77653	0.89767	0.68757	-0.102
Mof_H 	H 	0.77543	0.88197	0.77377	0.074
Mof_C 	C 	0.73743	0.86787	0.58827	0.046
Mof_C 	C 	0.69043	0.81127	0.60867	0.077
Mof_C 	C 	0.63153	0.73417	0.68197	0.076
Mof_C 	C 	0.51993	0.59507	0.79927	0.095
Mof_H 	H 	0.48443	0.56857	0.77057	-0.008
Mof_C 	C 	0.54743	0.64237	0.72447	-0.157
Mof_H 	H 	0.53113	0.64727	0.64517	0.09
Mof_C 	C 	0.59983	0.68357	0.76577	0.084
Mof_C 	C 	0.62133	0.67357	0.88297	-0.167
Mof_H 	H 	0.65603	0.70037	0.91577	0.106
Mof_C 	C 	0.59143	0.62377	0.95227	0.124
Mof_H 	H 	0.60723	0.61747	0.03047	-0.025
Mof_N 	N 	0.9292	0.2085	0.89	-0.089
Mof_N 	N 	0.8779	0.1972	0.8432	-0.21
Mof_N 	N 	0.8875	0.2341	0.056	-0.128
Mof_N 	N 	0.7777	0.1811	0.7949	-0.245
Mof_N 	N 	0.0824	0.2899	0.2452	-0.237
Mof_C 	C 	0.7253	0.1691	0.7683	0.131
Mof_H 	H 	0.7097	0.1542	0.6822	-0.021
Mof_C 	C 	0.694	0.1782	0.8644	-0.232
Mof_H 	H 	0.658	0.1697	0.8425	0.116
Mof_C 	C 	0.7156	0.1996	0.9912	0.198
Mof_H 	H 	0.6945	0.2056	0.0568	-0.05
Mof_C 	C 	0.769	0.2122	0.0209	-0.244
Mof_H 	H 	0.7847	0.2268	0.1071	0.117
Mof_C 	C 	0.7988	0.2029	0.9216	0.109
Mof_C 	C 	0.8554	0.2125	0.942	0.071
Mof_C 	C 	0.9325	0.2307	0.0153	0.056
Mof_C 	C 	0.0716	0.2582	0.1326	0.12
Mof_H 	H 	0.0981	0.2492	0.1039	-0.023
Mof_C 	C 	0.0243	0.2384	0.0578	-0.223
Mof_H 	H 	0.0194	0.2172	0.9785	0.118
Mof_C 	C 	0.9831	0.2496	0.0991	0.107
Mof_C 	C 	0.9931	0.2811	0.2163	-0.142
Mof_H 	H 	0.9663	0.289	0.2491	0.094
Mof_C 	C 	0.0429	0.301	0.2856	0.072
Mof_H 	H 	0.0492	0.3231	0.3638	-0
Mof_N 	N 	0.59587	0.54183	0.22333	-0.102
Mof_N 	N 	0.54457	0.53053	0.17653	-0.213
Mof_N 	N 	0.55417	0.56743	0.38933	-0.126
Mof_N 	N 	0.44437	0.51443	0.12823	-0.229
Mof_N 	N 	0.74907	0.62323	0.57853	-0.231
Mof_C 	C 	0.39197	0.50243	0.10163	0.081
Mof_H 	H 	0.37637	0.48753	0.01553	-0.009
Mof_C 	C 	0.36067	0.51153	0.19773	-0.146
Mof_H 	H 	0.32467	0.50303	0.17583	0.08
Mof_C 	C 	0.38227	0.53293	0.32453	0.061
Mof_H 	H 	0.36117	0.53893	0.39013	0.008
Mof_C 	C 	0.43567	0.54553	0.35423	-0.126
Mof_H 	H 	0.45137	0.56013	0.44043	0.08
Mof_C 	C 	0.46547	0.53623	0.25493	0.055
Mof_C 	C 	0.52207	0.54583	0.27533	0.073
Mof_C 	C 	0.59917	0.56403	0.34863	0.08
Mof_C 	C 	0.73827	0.59153	0.46593	0.086
Mof_H 	H 	0.76477	0.58253	0.43723	-0.008
Mof_C 	C 	0.69097	0.57173	0.39113	-0.147
Mof_H 	H 	0.68607	0.55053	0.31183	0.084
Mof_C 	C 	0.64977	0.58293	0.43243	0.069
Mof_C 	C 	0.65977	0.61443	0.54963	-0.142
Mof_H 	H 	0.63297	0.62233	0.58243	0.092
Mof_C 	C 	0.70957	0.63433	0.61893	0.082
Mof_H 	H 	0.71587	0.65643	0.69713	0.001
Mof_N 	N 	0.26253	0.87517	0.55667	-0.099
Mof_N 	N 	0.21123	0.86387	0.50987	-0.211
Mof_N 	N 	0.22083	0.90077	0.72267	-0.123
Mof_N 	N 	0.11103	0.84777	0.46157	-0.234
Mof_N 	N 	0.41573	0.95657	0.91187	-0.232
Mof_C 	C 	0.05863	0.83577	0.43497	0.108
Mof_H 	H 	0.04303	0.82087	0.34887	-0.016
Mof_C 	C 	0.02733	0.84487	0.53107	-0.2
Mof_H 	H 	0.99133	0.83637	0.50917	0.111
Mof_C 	C 	0.04893	0.86627	0.65787	0.098
Mof_H 	H 	0.02783	0.87227	0.72347	-0.007
Mof_C 	C 	0.10233	0.87887	0.68757	-0.149
Mof_H 	H 	0.11803	0.89347	0.77377	0.09
Mof_C 	C 	0.13213	0.86957	0.58827	0.066
Mof_C 	C 	0.18873	0.87917	0.60867	0.072
Mof_C 	C 	0.26583	0.89737	0.68197	0.078
Mof_C 	C 	0.40493	0.92487	0.79927	0.096
Mof_H 	H 	0.43143	0.91587	0.77057	-0.007
Mof_C 	C 	0.35763	0.90507	0.72447	-0.156
Mof_H 	H 	0.35273	0.88387	0.64517	0.09
Mof_C 	C 	0.31643	0.91627	0.76577	0.085
Mof_C 	C 	0.32643	0.94777	0.88297	-0.165
Mof_H 	H 	0.29963	0.95567	0.91577	0.108
Mof_C 	C 	0.37623	0.96767	0.95227	0.125
Mof_H 	H 	0.38253	0.98977	0.03047	-0.02
Mof_N 	N 	0.2085	0.2793	0.11	-0.11
Mof_N 	N 	0.1972	0.3193	0.1568	-0.213
Mof_N 	N 	0.2341	0.3466	0.944	-0.123
Mof_N 	N 	0.1811	0.4034	0.2051	-0.209
Mof_N 	N 	0.2899	0.2075	0.7548	-0.224
Mof_C 	C 	0.1691	0.4438	0.2317	0.029
Mof_H 	H 	0.1542	0.4445	0.3178	0.014
Mof_C 	C 	0.1782	0.4842	0.1356	-0.052
Mof_H 	H 	0.1697	0.5117	0.1575	0.046
Mof_C 	C 	0.1996	0.484	0.0088	-0.085
Mof_H 	H 	0.2056	0.5111	0.9432	0.069
Mof_C 	C 	0.2122	0.4432	0.9791	-0.001
Mof_H 	H 	0.2268	0.4421	0.8929	0.04
Mof_C 	C 	0.2029	0.4041	0.0784	-0.002
Mof_C 	C 	0.2125	0.3571	0.058	0.076
Mof_C 	C 	0.2307	0.2982	0.9847	0.104
Mof_C 	C 	0.2582	0.1866	0.8674	0.06
Mof_H 	H 	0.2492	0.1511	0.8961	0.005
Mof_C 	C 	0.2384	0.2141	0.9422	-0.093
Mof_H 	H 	0.2172	0.1978	0.0215	0.056
Mof_C 	C 	0.2496	0.2665	0.9009	0.045
Mof_C 	C 	0.2811	0.288	0.7837	-0.125
Mof_H 	H 	0.289	0.3227	0.7509	0.087
Mof_C 	C 	0.301	0.2581	0.7144	0.073
Mof_H 	H 	0.3231	0.2739	0.6362	0.003
Mof_N 	N 	0.87517	0.61263	0.44333	-0.1
Mof_N 	N 	0.86387	0.65263	0.49013	-0.212
Mof_N 	N 	0.90077	0.67993	0.27733	-0.127
Mof_N 	N 	0.84777	0.73673	0.53843	-0.227
Mof_N 	N 	0.95657	0.54083	0.08813	-0.223
Mof_C 	C 	0.83577	0.77713	0.56503	0.082
Mof_H 	H 	0.82087	0.77783	0.65113	-0.003
Mof_C 	C 	0.84487	0.81753	0.46893	-0.144
Mof_H 	H 	0.83637	0.84503	0.49083	0.083
Mof_C 	C 	0.86627	0.81733	0.34213	0.061
Mof_H 	H 	0.87227	0.84443	0.27653	0.009
Mof_C 	C 	0.87887	0.77653	0.31243	-0.125
Mof_H 	H 	0.89347	0.77543	0.22623	0.079
Mof_C 	C 	0.86957	0.73743	0.41173	0.056
Mof_C 	C 	0.87917	0.69043	0.39133	0.074
Mof_C 	C 	0.89737	0.63153	0.31803	0.084
Mof_C 	C 	0.92487	0.51993	0.20073	0.082
Mof_H 	H 	0.91587	0.48443	0.22943	-0.005
Mof_C 	C 	0.90507	0.54743	0.27553	-0.137
Mof_H 	H 	0.88387	0.53113	0.35483	0.084
Mof_C 	C 	0.91627	0.59983	0.23423	0.059
Mof_C 	C 	0.94777	0.62133	0.11703	-0.119
Mof_H 	H 	0.95567	0.65603	0.08423	0.082
Mof_C 	C 	0.96767	0.59143	0.04773	0.045
Mof_H 	H 	0.98977	0.60723	0.96953	0.028
Mof_N 	N 	0.54183	0.94597	0.77667	-0.099
Mof_N 	N 	0.53053	0.98597	0.82347	-0.198
Mof_N 	N 	0.56743	0.01327	0.61067	-0.133
Mof_N 	N 	0.51443	0.07007	0.87177	-0.226
Mof_N 	N 	0.62323	0.87417	0.42147	-0.231
Mof_C 	C 	0.50243	0.11047	0.89837	0.082
Mof_H 	H 	0.48753	0.11117	0.98447	0.001
Mof_C 	C 	0.51153	0.15087	0.80227	-0.145
Mof_H 	H 	0.50303	0.17837	0.82417	0.084
Mof_C 	C 	0.53293	0.15067	0.67547	0.062
Mof_H 	H 	0.53893	0.17777	0.60987	0.007
Mof_C 	C 	0.54553	0.10987	0.64577	-0.129
Mof_H 	H 	0.56013	0.10877	0.55957	0.08
Mof_C 	C 	0.53623	0.07077	0.74507	0.059
Mof_C 	C 	0.54583	0.02377	0.72467	0.061
Mof_C 	C 	0.56403	0.96487	0.65137	0.092
Mof_C 	C 	0.59153	0.85327	0.53407	0.088
Mof_H 	H 	0.58253	0.81777	0.56277	-0.006
Mof_C 	C 	0.57173	0.88077	0.60887	-0.146
Mof_H 	H 	0.55053	0.86447	0.68817	0.088
Mof_C 	C 	0.58293	0.93317	0.56757	0.069
Mof_C 	C 	0.61443	0.95467	0.45037	-0.142
Mof_H 	H 	0.62233	0.98937	0.41757	0.097
Mof_C 	C 	0.63433	0.92477	0.38107	0.084
Mof_H 	H 	0.65643	0.94057	0.30287	0.001
Mof_N 	N 	0.7207	0.9292	0.11	-0.107
Mof_N 	N 	0.6807	0.8779	0.1568	-0.213
Mof_N 	N 	0.6534	0.8875	0.944	-0.123
Mof_N 	N 	0.5966	0.7777	0.2051	-0.209
Mof_N 	N 	0.7925	0.0824	0.7548	-0.223
Mof_C 	C 	0.5562	0.7253	0.2317	0.03
Mof_H 	H 	0.5555	0.7097	0.3178	0.014
Mof_C 	C 	0.5158	0.694	0.1356	-0.054
Mof_H 	H 	0.4883	0.658	0.1575	0.047
Mof_C 	C 	0.516	0.7156	0.0088	-0.08
Mof_H 	H 	0.4889	0.6945	0.9432	0.067
Mof_C 	C 	0.5568	0.769	0.9791	-0.005
Mof_H 	H 	0.5579	0.7847	0.8929	0.041
Mof_C 	C 	0.5959	0.7988	0.0784	0
Mof_C 	C 	0.6429	0.8554	0.058	0.077
Mof_C 	C 	0.7018	0.9325	0.9847	0.102
Mof_C 	C 	0.8134	0.0716	0.8674	0.067
Mof_H 	H 	0.8489	0.0981	0.8961	0.003
Mof_C 	C 	0.7859	0.0243	0.9422	-0.115
Mof_H 	H 	0.8022	0.0194	0.0215	0.061
Mof_C 	C 	0.7335	0.9831	0.9009	0.058
Mof_C 	C 	0.712	0.9931	0.7837	-0.106
Mof_H 	H 	0.6773	0.9663	0.7509	0.083
Mof_C 	C 	0.7419	0.0429	0.7144	0.053
Mof_H 	H 	0.7261	0.0492	0.6362	0.007
Mof_N 	N 	0.38737	0.26253	0.44333	-0.101
Mof_N 	N 	0.34737	0.21123	0.49013	-0.211
Mof_N 	N 	0.32007	0.22083	0.27733	-0.128
Mof_N 	N 	0.26327	0.11103	0.53843	-0.234
Mof_N 	N 	0.45917	0.41573	0.08813	-0.226
Mof_C 	C 	0.22287	0.05863	0.56503	0.108
Mof_H 	H 	0.22217	0.04303	0.65113	-0.017
Mof_C 	C 	0.18247	0.02733	0.46893	-0.202
Mof_H 	H 	0.15497	0.99133	0.49083	0.111
Mof_C 	C 	0.18267	0.04893	0.34213	0.098
Mof_H 	H 	0.15557	0.02783	0.27653	-0.013
Mof_C 	C 	0.22347	0.10233	0.31243	-0.15
Mof_H 	H 	0.22457	0.11803	0.22623	0.085
Mof_C 	C 	0.26257	0.13213	0.41173	0.065
Mof_C 	C 	0.30957	0.18873	0.39133	0.07
Mof_C 	C 	0.36847	0.26583	0.31803	0.083
Mof_C 	C 	0.48007	0.40493	0.20073	0.08
Mof_H 	H 	0.51557	0.43143	0.22943	-0.006
Mof_C 	C 	0.45257	0.35763	0.27553	-0.138
Mof_H 	H 	0.46887	0.35273	0.35483	0.083
Mof_C 	C 	0.40017	0.31643	0.23423	0.057
Mof_C 	C 	0.37867	0.32643	0.11703	-0.119
Mof_H 	H 	0.34397	0.29963	0.08423	0.079
Mof_C 	C 	0.40857	0.37623	0.04773	0.041
Mof_H 	H 	0.39277	0.38253	0.96953	0.025
Mof_N 	N 	0.05403	0.59587	0.77667	-0.097
Mof_N 	N 	0.01403	0.54457	0.82347	-0.217
Mof_N 	N 	0.98673	0.55417	0.61067	-0.119
Mof_N 	N 	0.92993	0.44437	0.87177	-0.221
Mof_N 	N 	0.12583	0.74907	0.42147	-0.232
Mof_C 	C 	0.88953	0.39197	0.89837	0.081
Mof_H 	H 	0.88883	0.37637	0.98447	0.003
Mof_C 	C 	0.84913	0.36067	0.80227	-0.142
Mof_H 	H 	0.82163	0.32467	0.82417	0.083
Mof_C 	C 	0.84933	0.38227	0.67547	0.059
Mof_H 	H 	0.82223	0.36117	0.60987	0.008
Mof_C 	C 	0.89013	0.43567	0.64577	-0.123
Mof_H 	H 	0.89123	0.45137	0.55957	0.079
Mof_C 	C 	0.92923	0.46547	0.74507	0.054
Mof_C 	C 	0.97623	0.52207	0.72467	0.087
Mof_C 	C 	0.03513	0.59917	0.65137	0.067
Mof_C 	C 	0.14673	0.73827	0.53407	0.09
Mof_H 	H 	0.18223	0.76477	0.56277	-0.007
Mof_C 	C 	0.11923	0.69097	0.60887	-0.151
Mof_H 	H 	0.13553	0.68607	0.68817	0.09
Mof_C 	C 	0.06683	0.64977	0.56757	0.075
Mof_C 	C 	0.04533	0.65977	0.45037	-0.148
Mof_H 	H 	0.01063	0.63297	0.41757	0.089
Mof_C 	C 	0.07523	0.70957	0.38107	0.084
Mof_H 	H 	0.05943	0.71587	0.30287	-0.004
Mof_N 	N 	0.0708	0.7915	0.11	-0.112
Mof_N 	N 	0.1221	0.8028	0.1568	-0.213
Mof_N 	N 	0.1125	0.7659	0.944	-0.124
Mof_N 	N 	0.2223	0.8189	0.2051	-0.209
Mof_N 	N 	0.9176	0.7101	0.7548	-0.226
Mof_C 	C 	0.2747	0.8309	0.2317	0.03
Mof_H 	H 	0.2903	0.8458	0.3178	0.014
Mof_C 	C 	0.306	0.8218	0.1356	-0.053
Mof_H 	H 	0.342	0.8303	0.1575	0.047
Mof_C 	C 	0.2844	0.8004	0.0088	-0.082
Mof_H 	H 	0.3055	0.7944	0.9432	0.068
Mof_C 	C 	0.231	0.7878	0.9791	-0.003
Mof_H 	H 	0.2153	0.7732	0.8929	0.04
Mof_C 	C 	0.2012	0.7971	0.0784	-0
Mof_C 	C 	0.1446	0.7875	0.058	0.076
Mof_C 	C 	0.0675	0.7693	0.9847	0.103
Mof_C 	C 	0.9284	0.7418	0.8674	0.058
Mof_H 	H 	0.9019	0.7508	0.8961	0.008
Mof_C 	C 	0.9757	0.7616	0.9422	-0.079
Mof_H 	H 	0.9806	0.7828	0.0215	0.058
Mof_C 	C 	0.0169	0.7504	0.9009	0.037
Mof_C 	C 	0.0069	0.7189	0.7837	-0.146
Mof_H 	H 	0.0337	0.711	0.7509	0.092
Mof_C 	C 	0.9571	0.699	0.7144	0.095
Mof_H 	H 	0.9508	0.6769	0.6362	-0.001
Mof_N 	N 	0.73747	0.12483	0.44333	-0.101
Mof_N 	N 	0.78877	0.13613	0.49013	-0.212
Mof_N 	N 	0.77917	0.09923	0.27733	-0.129
Mof_N 	N 	0.88897	0.15223	0.53843	-0.221
Mof_N 	N 	0.58427	0.04343	0.08813	-0.228
Mof_C 	C 	0.94137	0.16423	0.56503	0.054
Mof_H 	H 	0.95697	0.17913	0.65113	0.009
Mof_C 	C 	0.97267	0.15513	0.46893	-0.089
Mof_H 	H 	0.00867	0.16363	0.49083	0.052
Mof_C 	C 	0.95107	0.13373	0.34213	0.024
Mof_H 	H 	0.97217	0.12773	0.27653	0.022
Mof_C 	C 	0.89767	0.12113	0.31243	-0.103
Mof_H 	H 	0.88197	0.10653	0.22623	0.069
Mof_C 	C 	0.86787	0.13043	0.41173	0.045
Mof_C 	C 	0.81127	0.12083	0.39133	0.075
Mof_C 	C 	0.73417	0.10263	0.31803	0.081
Mof_C 	C 	0.59507	0.07513	0.20073	0.078
Mof_H 	H 	0.56857	0.08413	0.22943	-0.006
Mof_C 	C 	0.64237	0.09493	0.27553	-0.139
Mof_H 	H 	0.64727	0.11613	0.35483	0.083
Mof_C 	C 	0.68357	0.08373	0.23423	0.055
Mof_C 	C 	0.67357	0.05223	0.11703	-0.121
Mof_H 	H 	0.70037	0.04433	0.08423	0.076
Mof_C 	C 	0.62377	0.03233	0.04773	0.04
Mof_H 	H 	0.61747	0.01023	0.96953	0.02
Mof_N 	N 	0.40413	0.45817	0.77667	-0.098
Mof_N 	N 	0.45543	0.46947	0.82347	-0.208
Mof_N 	N 	0.44583	0.43257	0.61067	-0.126
Mof_N 	N 	0.55563	0.48557	0.87177	-0.224
Mof_N 	N 	0.25093	0.37677	0.42147	-0.231
Mof_C 	C 	0.60803	0.49757	0.89837	0.081
Mof_H 	H 	0.62363	0.51247	0.98447	0.002
Mof_C 	C 	0.63933	0.48847	0.80227	-0.143
Mof_H 	H 	0.67533	0.49697	0.82417	0.083
Mof_C 	C 	0.61773	0.46707	0.67547	0.061
Mof_H 	H 	0.63883	0.46107	0.60987	0.008
Mof_C 	C 	0.56433	0.45447	0.64577	-0.126
Mof_H 	H 	0.54863	0.43987	0.55957	0.08
Mof_C 	C 	0.53453	0.46377	0.74507	0.056
Mof_C 	C 	0.47793	0.45417	0.72467	0.074
Mof_C 	C 	0.40083	0.43597	0.65137	0.08
Mof_C 	C 	0.26173	0.40847	0.53407	0.089
Mof_H 	H 	0.23523	0.41747	0.56277	-0.006
Mof_C 	C 	0.30903	0.42827	0.60887	-0.149
Mof_H 	H 	0.31393	0.44947	0.68817	0.089
Mof_C 	C 	0.35023	0.41707	0.56757	0.072
Mof_C 	C 	0.34023	0.38557	0.45037	-0.145
Mof_H 	H 	0.36703	0.37767	0.41757	0.093
Mof_C 	C 	0.29043	0.36567	0.38107	0.084
Mof_H 	H 	0.28413	0.34357	0.30287	-0.002
Mof_Ni	Ni	0.83333	0.66667	0.66667	1.059
Mof_Ni	Ni	0.5	0	-0	1.046
Mof_Ni	Ni	0.33333	0.16667	0.66667	1.058
Mof_Ni	Ni	-0	0.5	-0	1.046
Mof_Ni	Ni	0.83333	0.16667	0.66667	1.058
Mof_Ni	Ni	0.5	0.5	-0	1.052
Mof_Ni	Ni	0.16667	0.33333	0.33333	1.059
Mof_Ni	Ni	0.66667	0.83333	0.33333	1.059
Mof_Ni	Ni	0.16667	0.83333	0.33333	1.059
_end
