data_functionalizedCrystal
_audit_creation_method	'EQeq! by Chris Wilmer'
_symmetry_space_group_name_H-M	'P1'
_symmetry_Int_Tables_number	1
_symmetry_cell_setting	triclinic
loop_
_symmetry_equiv_pos_as_xyz
  x,y,z
_cell_length_a	8.0506
_cell_length_b	18.6868
_cell_length_c	18.8259
_cell_angle_alpha	119.178
_cell_angle_beta	102.346
_cell_angle_gamma	90
loop_
_atom_site_label
_atom_site_type_symbol
_atom_site_fract_x
_atom_site_fract_y
_atom_site_fract_z
_atom_site_charge
Mof_Fe	Fe	0.9521	0.1882	0.7868	0.789
Mof_Fe	Fe	0.5657	0.3793	0.0116	0.792
Mof_Fe	Fe	0.8347	0.6882	0.7868	0.809
Mof_Fe	Fe	0.4459	0.8793	0.0116	0.782
Mof_Ag	Ag	0.2042	0.1694	0.1686	0.773
Mof_Ag	Ag	0.4372	0.3945	0.6304	0.723
Mof_Ag	Ag	0.9644	0.6694	0.1686	0.683
Mof_Ag	Ag	0.1932	0.8945	0.6304	0.734
Mof_H 	H 	0.1756	0.3819	0.4786	0.037
Mof_H 	H 	0.5737	0.2624	0.4686	0.041
Mof_H 	H 	0.4983	0.2	0.3258	0.062
Mof_H 	H 	0.3148	0.295	0.711	0.026
Mof_H 	H 	0.7237	0.454	0.7956	0.032
Mof_H 	H 	0.7633	0.4663	0.9234	0.035
Mof_H 	H 	0.5925	0.9157	0.6146	0.033
Mof_H 	H 	0.3011	0.0865	0.7166	0.043
Mof_H 	H 	0.5309	0.185	0.7812	0.046
Mof_H 	H 	0.9926	0.263	0.0826	-0.032
Mof_H 	H 	0.3242	0.1101	0.9914	0.03
Mof_H 	H 	0.2381	0.1071	0.8662	0.05
Mof_H 	H 	0.3706	0.6519	0.1892	0.041
Mof_H 	H 	0.9817	0.4741	0.0688	-0.01
Mof_H 	H 	0.1601	0.3818	0.0056	0.046
Mof_H 	H 	0.633	0.2237	0.0564	0.064
Mof_H 	H 	0.5384	0.2465	0.1302	0.042
Mof_H 	H 	0.7229	0.2938	0.1504	0.057
Mof_H 	H 	0.9795	0.3298	0.7474	0.075
Mof_H 	H 	0.8131	0.314	0.6752	0.083
Mof_H 	H 	0.9802	0.2715	0.6508	0.077
Mof_H 	H 	0.5126	0.3669	0.1392	0.22
Mof_H 	H 	0.303	0.8819	0.4786	0.029
Mof_H 	H 	0.8949	0.7624	0.4686	0.043
Mof_H 	H 	0.8275	0.7	0.3258	0.067
Mof_H 	H 	0.3962	0.795	0.711	0.02
Mof_H 	H 	0.0719	0.954	0.7956	0.04
Mof_H 	H 	0.1601	0.9663	0.9234	0.04
Mof_H 	H 	0.0221	0.4157	0.6146	0.018
Mof_H 	H 	0.4155	0.5865	0.7166	0.042
Mof_H 	H 	0.2503	0.685	0.7812	0.048
Mof_H 	H 	0.09	0.763	0.0826	0.073
Mof_H 	H 	0.6672	0.6101	0.9914	0.035
Mof_H 	H 	0.6281	0.6071	0.8662	0.04
Mof_H 	H 	0.8186	0.1519	0.1892	0.036
Mof_H 	H 	0.0871	0.9741	0.0688	0.079
Mof_H 	H 	0.8455	0.8818	0.0056	0.004
Mof_H 	H 	0.4234	0.7237	0.0564	0.07
Mof_H 	H 	0.5918	0.7465	0.1302	0.046
Mof_H 	H 	0.4275	0.7938	0.1504	0.066
Mof_H 	H 	0.7679	0.8298	0.7474	0.082
Mof_H 	H 	0.8621	0.814	0.6752	0.077
Mof_H 	H 	0.6706	0.7715	0.6508	0.088
Mof_H 	H 	0.6266	0.8669	0.1392	0.214
Mof_C 	C 	0.2065	0.3117	0.3606	0.001
Mof_C 	C 	0.2463	0.3441	0.4478	0.055
Mof_C 	C 	0.4721	0.2746	0.4422	0.038
Mof_C 	C 	0.4304	0.2399	0.3568	0.004
Mof_C 	C 	0.0548	0.3307	0.3136	0.291
Mof_C 	C 	0.4328	0.3383	0.8336	-0.012
Mof_C 	C 	0.4092	0.3312	0.7544	0.044
Mof_C 	C 	0.6447	0.4225	0.8034	0.011
Mof_C 	C 	0.6681	0.43	0.8802	0.032
Mof_C 	C 	0.3115	0.2908	0.851	0.266
Mof_C 	C 	0.7181	0.0311	0.6882	0.002
Mof_C 	C 	0.5766	0.9716	0.6492	0.025
Mof_C 	C 	0.41	0.0702	0.708	0.034
Mof_C 	C 	0.5474	0.1292	0.7468	0.032
Mof_C 	C 	0.8918	0.0145	0.6696	0.288
Mof_C 	C 	0.9913	0.2292	0.9626	-0.121
Mof_C 	C 	0.0452	0.2302	0.0384	0.156
Mof_C 	C 	0.2366	0.1419	0.9852	0.074
Mof_C 	C 	0.1853	0.1399	0.9106	0.014
Mof_C 	C 	0.8653	0.2839	0.9486	0.461
Mof_C 	C 	0.4351	0.5391	0.1122	-0.039
Mof_C 	C 	0.3255	0.5957	0.151	0.057
Mof_C 	C 	0.0996	0.4926	0.0812	0.086
Mof_C 	C 	0.2058	0.4378	0.0436	-0.012
Mof_C 	C 	0.6214	0.5616	0.1228	0.326
Mof_C 	C 	0.6134	0.269	0.1088	-0.029
Mof_C 	C 	0.9099	0.2891	0.6918	-0.128
Mof_C 	C 	0.1541	0.8117	0.3606	0.001
Mof_C 	C 	0.2015	0.8441	0.4478	0.06
Mof_C 	C 	0.9701	0.7746	0.4422	0.009
Mof_C 	C 	0.9264	0.7399	0.3568	-0.024
Mof_C 	C 	0.2588	0.8307	0.3136	0.29
Mof_C 	C 	0.4008	0.8383	0.8336	-0.016
Mof_C 	C 	0.3452	0.8312	0.7544	0.046
Mof_C 	C 	0.1587	0.9225	0.8034	0.013
Mof_C 	C 	0.2121	0.93	0.8802	0.031
Mof_C 	C 	0.5395	0.7908	0.851	0.264
Mof_C 	C 	0.9701	0.5311	0.6882	-0.104
Mof_C 	C 	0.0726	0.4716	0.6492	0.119
Mof_C 	C 	0.298	0.5702	0.708	0.022
Mof_C 	C 	0.1994	0.6292	0.7468	0.031
Mof_C 	C 	0.7778	0.5145	0.6696	0.335
Mof_C 	C 	0.9713	0.7292	0.9626	-0.039
Mof_C 	C 	0.9932	0.7302	0.0384	-0.027
Mof_C 	C 	0.7486	0.6419	0.9852	0.048
Mof_C 	C 	0.7253	0.6399	0.9106	0.025
Mof_C 	C 	0.0833	0.7839	0.9486	0.464
Mof_C 	C 	0.6771	0.0391	0.1122	-0.014
Mof_C 	C 	0.8255	0.0957	0.151	0.042
Mof_C 	C 	0.9816	0.9926	0.0812	-0.086
Mof_C 	C 	0.8378	0.9378	0.0436	0.059
Mof_C 	C 	0.5014	0.0616	0.1228	0.32
Mof_C 	C 	0.4954	0.769	0.1088	-0.041
Mof_C 	C 	0.7819	0.7891	0.6918	-0.131
Mof_N 	N 	0.2965	0.2595	0.3136	-0.147
Mof_N 	N 	0.3748	0.3255	0.4896	-0.177
Mof_N 	N 	0.5631	0.3878	0.8982	-0.133
Mof_N 	N 	0.5146	0.3729	0.7372	-0.178
Mof_N 	N 	0.70699	0.1114	0.73798	-0.141
Mof_N 	N 	0.4211	0.9897	0.6582	-0.175
Mof_N 	N 	0.0603	0.1844	0.8986	-0.1
Mof_N 	N 	0.1674	0.187	0.0508	-0.203
Mof_N 	N 	0.37707	0.4595	0.05814	-0.144
Mof_N 	N 	0.1578	0.5725	0.1356	-0.164
Mof_N 	N 	0.0171	0.7595	0.3136	-0.118
Mof_N 	N 	0.1148	0.8255	0.4896	-0.161
Mof_N 	N 	0.3351	0.8878	0.8982	-0.134
Mof_N 	N 	0.2226	0.8729	0.7372	-0.177
Mof_N 	N 	0.03099	0.6114	0.73798	-0.103
Mof_N 	N 	0.2371	0.4897	0.6582	-0.178
Mof_N 	N 	0.8383	0.6844	0.8986	-0.143
Mof_N 	N 	0.8834	0.687	0.0508	-0.172
Mof_N 	N 	0.68107	0.9595	0.05814	-0.17
Mof_N 	N 	0.9778	0.0725	0.1356	-0.153
Mof_O 	O 	0.0201	0.4033	0.3742	-0.187
Mof_O 	O 	0.0154	0.2946	0.2388	-0.277
Mof_O 	O 	0.3578	0.2925	0.9236	-0.287
Mof_O 	O 	0.1911	0.238	0.7862	-0.288
Mof_O 	O 	0.9121	0.9366	0.6382	-0.335
Mof_O 	O 	0.0052	0.075	0.7124	-0.32
Mof_O 	O 	0.8407	0.277	0.8794	-0.388
Mof_O 	O 	0.7833	0.3174	0.0006	-0.407
Mof_O 	O 	0.7049	0.5015	0.0878	-0.355
Mof_O 	O 	0.6862	0.6325	0.1744	-0.333
Mof_O 	O 	0.5314	0.3311	0.0928	-0.395
Mof_O 	O 	0.8453	0.2175	0.6946	-0.216
Mof_O 	O 	0.3541	0.9033	0.3742	-0.204
Mof_O 	O 	0.2234	0.7946	0.2388	-0.284
Mof_O 	O 	0.5658	0.7925	0.9236	-0.289
Mof_O 	O 	0.5951	0.738	0.7862	-0.305
Mof_O 	O 	0.7261	0.4366	0.6382	-0.325
Mof_O 	O 	0.7072	0.575	0.7124	-0.372
Mof_O 	O 	0.0387	0.777	0.8794	-0.366
Mof_O 	O 	0.2173	0.8174	0.0006	-0.402
Mof_O 	O 	0.3829	0.0015	0.0878	-0.339
Mof_O 	O 	0.4882	0.1325	0.1744	-0.334
Mof_O 	O 	0.5614	0.8311	0.0928	-0.39
Mof_O 	O 	0.8493	0.7175	0.6946	-0.224
Mof_Cl	Cl	0.1967	0.5339	0.8954	-0.235
Mof_O 	O 	0.2456	0.6262	0.9064	-0.047
Mof_O 	O 	0.0788	0.5458	0.9376	0.003
Mof_O 	O 	0.3622	0.5302	0.9454	-0.036
Mof_O 	O 	0.1758	0.4858	0.8176	-0.01
Mof_Cl	Cl	0.4943	0.6893	0.4	-0.225
Mof_O 	O 	0.4943	0.7382	0.3546	-0.044
Mof_O 	O 	0.5628	0.7334	0.4796	-0.024
Mof_O 	O 	0.599	0.628	0.372	-0.02
Mof_O 	O 	0.3089	0.6502	0.3718	-0.032
Mof_Cl	Cl	0.6987	0.0339	0.8954	-0.203
Mof_O 	O 	0.6608	0.1262	0.9064	-0.057
Mof_O 	O 	0.8588	0.0458	0.9376	-0.032
Mof_O 	O 	0.5832	0.0302	0.9454	-0.036
Mof_O 	O 	0.6418	0.9858	0.8176	-0.048
Mof_Cl	Cl	0.9057	0.1893	0.4	-0.254
Mof_O 	O 	0.8603	0.2382	0.3546	-0.054
Mof_O 	O 	0.9168	0.2334	0.4796	-0.027
Mof_O 	O 	0.773	0.128	0.372	-0.012
Mof_O 	O 	0.0629	0.1502	0.3718	-0.007
_end
