data_functionalizedCrystal
_audit_creation_method	'EQeq! by Chris Wilmer'
_symmetry_space_group_name_H-M	'P1'
_symmetry_Int_Tables_number	1
_symmetry_cell_setting	triclinic
loop_
_symmetry_equiv_pos_as_xyz
  x,y,z
_cell_length_a	10.9116
_cell_length_b	10.9635
_cell_length_c	22.3452
_cell_angle_alpha	90
_cell_angle_beta	90
_cell_angle_gamma	90
loop_
_atom_site_label
_atom_site_type_symbol
_atom_site_fract_x
_atom_site_fract_y
_atom_site_fract_z
_atom_site_charge
Mof_C 	C 	0.8251	0.8116	0.8041	-0.014
Mof_H 	H 	0.8237	0.8537	0.8408	0.055
Mof_C 	C 	0.7545	0.3	0.937	0.043
Mof_C 	C 	0.7579	0.3029	0.0002	-0.104
Mof_C 	C 	0.9366	0.1899	0.9338	0.044
Mof_C 	C 	0.9457	0.1874	0.9959	-0.109
Mof_C 	C 	0.8625	0.1369	0.1216	0.22
Mof_C 	C 	0.8588	0.1392	0.18749	-0.06
Mof_C 	C 	0.8636	0.0309	0.2182	-0.023
Mof_H 	H 	0.8668	0.9567	0.1972	0.061
Mof_O 	O 	0.8367	0.0661	0.80014	-0.452
Mof_O 	O 	0.8632	0.0435	0.09306	-0.235
Mof_H 	H 	0.6854	0.3338	0.9166	0.01
Mof_H 	H 	0.6941	0.3401	0.0225	0.079
Mof_H 	H 	0.9963	0.1463	0.9118	0.026
Mof_H 	H 	0.0104	0.1449	0.0154	0.086
Mof_C 	C 	0.8251	0.6884	0.6959	-0.014
Mof_H 	H 	0.8237	0.6463	0.6592	0.054
Mof_C 	C 	0.7545	0.2	0.563	0.043
Mof_C 	C 	0.7579	0.1971	0.4998	-0.106
Mof_C 	C 	0.9366	0.3101	0.5662	0.044
Mof_C 	C 	0.9457	0.3126	0.5041	-0.107
Mof_C 	C 	0.8625	0.3631	0.3784	0.22
Mof_C 	C 	0.8588	0.3608	0.31251	-0.06
Mof_C 	C 	0.8636	0.4691	0.2818	-0.023
Mof_H 	H 	0.8668	0.5433	0.3028	0.061
Mof_O 	O 	0.8367	0.4339	0.69986	-0.452
Mof_O 	O 	0.8632	0.4565	0.40694	-0.236
Mof_H 	H 	0.6854	0.1662	0.5834	0.01
Mof_H 	H 	0.6941	0.1599	0.4775	0.079
Mof_H 	H 	0.9963	0.3537	0.5882	0.027
Mof_H 	H 	0.0104	0.3551	0.4846	0.086
Mof_C 	C 	0.8251	0.8116	0.6959	-0.015
Mof_H 	H 	0.8237	0.8537	0.6592	0.054
Mof_C 	C 	0.7545	0.3	0.563	0.043
Mof_C 	C 	0.7579	0.3029	0.4998	-0.105
Mof_C 	C 	0.9366	0.1899	0.5662	0.044
Mof_C 	C 	0.9457	0.1874	0.5041	-0.107
Mof_C 	C 	0.8625	0.1369	0.3784	0.22
Mof_C 	C 	0.8588	0.1392	0.31251	-0.06
Mof_C 	C 	0.8636	0.0309	0.2818	-0.023
Mof_H 	H 	0.8668	0.9567	0.3028	0.061
Mof_O 	O 	0.8367	0.0661	0.69986	-0.452
Mof_O 	O 	0.8632	0.0435	0.40694	-0.236
Mof_H 	H 	0.6854	0.3338	0.5834	0.01
Mof_H 	H 	0.6941	0.3401	0.4775	0.079
Mof_H 	H 	0.9963	0.1463	0.5882	0.027
Mof_H 	H 	0.0104	0.1449	0.4846	0.086
Mof_C 	C 	0.8251	0.6884	0.8041	-0.014
Mof_H 	H 	0.8237	0.6463	0.8408	0.053
Mof_C 	C 	0.7545	0.2	0.937	0.043
Mof_C 	C 	0.7579	0.1971	0.0002	-0.106
Mof_C 	C 	0.9366	0.3101	0.9338	0.045
Mof_C 	C 	0.9457	0.3126	0.9959	-0.109
Mof_C 	C 	0.8625	0.3631	0.1216	0.22
Mof_C 	C 	0.8588	0.3608	0.18749	-0.06
Mof_C 	C 	0.8636	0.4691	0.2182	-0.023
Mof_H 	H 	0.8668	0.5433	0.1972	0.061
Mof_O 	O 	0.8367	0.4339	0.80014	-0.452
Mof_O 	O 	0.8632	0.4565	0.09306	-0.235
Mof_H 	H 	0.6854	0.1662	0.9166	0.01
Mof_H 	H 	0.6941	0.1599	0.0225	0.079
Mof_H 	H 	0.9963	0.3537	0.9118	0.026
Mof_H 	H 	0.0104	0.3551	0.0154	0.086
Mof_Zn	Zn	0.83752	0.25	0.81536	1.215
Mof_C 	C 	0.2763	0.25	0.8045	-0.032
Mof_H 	H 	0.234	0.25	0.8412	0.062
Mof_C 	C 	0.4034	0.25	0.8034	0.001
Mof_H 	H 	0.4475	0.25	0.8395	0.049
Mof_C 	C 	0.8537	0.25	0.0289	0.207
Mof_C 	C 	0.858	0.25	0.2178	0.034
Mof_N 	N 	0.845	0.25	0.9053	-0.257
Mof_N 	N 	0.8598	0.25	0.0931	-0.201
Mof_O 	O 	0.0209	0.25	0.8006	-0.451
Mof_O 	O 	0.6563	0.25	0.8002	-0.46
Mof_Zn	Zn	0.83752	0.25	0.68464	1.215
Mof_C 	C 	0.2763	0.25	0.6955	-0.032
Mof_H 	H 	0.234	0.25	0.6588	0.062
Mof_C 	C 	0.4034	0.25	0.6966	0.001
Mof_H 	H 	0.4475	0.25	0.6605	0.049
Mof_C 	C 	0.8537	0.25	0.4711	0.205
Mof_C 	C 	0.858	0.25	0.2822	0.034
Mof_N 	N 	0.845	0.25	0.5947	-0.257
Mof_N 	N 	0.8598	0.25	0.4069	-0.201
Mof_O 	O 	0.0209	0.25	0.6994	-0.452
Mof_O 	O 	0.6563	0.25	0.6998	-0.46
Mof_C 	C 	0.8346	0.0138	0.75	0.374
Mof_C 	C 	0.8272	0.8783	0.75	-0.074
Mof_C 	C 	0.8346	0.4862	0.75	0.375
Mof_C 	C 	0.8272	0.6217	0.75	-0.074
Mof_C 	C 	0.0737	0.25	0.75	0.347
Mof_C 	C 	0.2117	0.25	0.75	-0.065
Mof_C 	C 	0.4654	0.25	0.75	-0.088
Mof_C 	C 	0.6015	0.25	0.75	0.373
Mof_C 	C 	0.1749	0.1884	0.3041	-0.015
Mof_H 	H 	0.1763	0.1463	0.3408	0.054
Mof_C 	C 	0.2455	0.7	0.437	0.043
Mof_C 	C 	0.2421	0.6971	0.5002	-0.105
Mof_C 	C 	0.0634	0.8101	0.4338	0.044
Mof_C 	C 	0.0543	0.8126	0.4959	-0.107
Mof_C 	C 	0.1375	0.8631	0.6216	0.22
Mof_C 	C 	0.1412	0.8608	0.68749	-0.06
Mof_C 	C 	0.1364	0.9691	0.7182	-0.023
Mof_H 	H 	0.1332	0.0433	0.6972	0.061
Mof_O 	O 	0.1633	0.9339	0.30014	-0.452
Mof_O 	O 	0.1368	0.9565	0.59306	-0.236
Mof_H 	H 	0.3146	0.6662	0.4166	0.01
Mof_H 	H 	0.3059	0.6599	0.5225	0.079
Mof_H 	H 	0.0037	0.8537	0.4118	0.027
Mof_H 	H 	0.9896	0.8551	0.5154	0.086
Mof_C 	C 	0.1749	0.3116	0.1959	-0.014
Mof_H 	H 	0.1763	0.3537	0.1592	0.053
Mof_C 	C 	0.2455	0.8	0.063	0.043
Mof_C 	C 	0.2421	0.8029	0.9998	-0.106
Mof_C 	C 	0.0634	0.6899	0.0662	0.045
Mof_C 	C 	0.0543	0.6874	0.0041	-0.109
Mof_C 	C 	0.1375	0.6369	0.8784	0.22
Mof_C 	C 	0.1412	0.6392	0.81251	-0.06
Mof_C 	C 	0.1364	0.5309	0.7818	-0.023
Mof_H 	H 	0.1332	0.4567	0.8028	0.061
Mof_O 	O 	0.1633	0.5661	0.19986	-0.452
Mof_O 	O 	0.1368	0.5435	0.90694	-0.235
Mof_H 	H 	0.3146	0.8338	0.0834	0.01
Mof_H 	H 	0.3059	0.8401	0.9775	0.079
Mof_H 	H 	0.0037	0.6463	0.0882	0.026
Mof_H 	H 	0.9896	0.6449	0.9846	0.086
Mof_C 	C 	0.1749	0.1884	0.1959	-0.015
Mof_H 	H 	0.1763	0.1463	0.1592	0.054
Mof_C 	C 	0.2455	0.7	0.063	0.042
Mof_C 	C 	0.2421	0.6971	0.9998	-0.105
Mof_C 	C 	0.0634	0.8101	0.0662	0.044
Mof_C 	C 	0.0543	0.8126	0.0041	-0.109
Mof_C 	C 	0.1375	0.8631	0.8784	0.22
Mof_C 	C 	0.1412	0.8608	0.81251	-0.06
Mof_C 	C 	0.1364	0.9691	0.7818	-0.023
Mof_H 	H 	0.1332	0.0433	0.8028	0.061
Mof_O 	O 	0.1633	0.9339	0.19986	-0.452
Mof_O 	O 	0.1368	0.9565	0.90694	-0.235
Mof_H 	H 	0.3146	0.6662	0.0834	0.01
Mof_H 	H 	0.3059	0.6599	0.9775	0.079
Mof_H 	H 	0.0037	0.8537	0.0882	0.026
Mof_H 	H 	0.9896	0.8551	0.9846	0.086
Mof_C 	C 	0.1749	0.3116	0.3041	-0.014
Mof_H 	H 	0.1763	0.3537	0.3408	0.054
Mof_C 	C 	0.2455	0.8	0.437	0.043
Mof_C 	C 	0.2421	0.8029	0.5002	-0.106
Mof_C 	C 	0.0634	0.6899	0.4338	0.044
Mof_C 	C 	0.0543	0.6874	0.4959	-0.107
Mof_C 	C 	0.1375	0.6369	0.6216	0.22
Mof_C 	C 	0.1412	0.6392	0.68749	-0.06
Mof_C 	C 	0.1364	0.5309	0.7182	-0.023
Mof_H 	H 	0.1332	0.4567	0.6972	0.061
Mof_O 	O 	0.1633	0.5661	0.30014	-0.452
Mof_O 	O 	0.1368	0.5435	0.59306	-0.236
Mof_H 	H 	0.3146	0.8338	0.4166	0.01
Mof_H 	H 	0.3059	0.8401	0.5225	0.079
Mof_H 	H 	0.0037	0.6463	0.4118	0.027
Mof_H 	H 	0.9896	0.6449	0.5154	0.086
Mof_Zn	Zn	0.16248	0.75	0.31536	1.215
Mof_C 	C 	0.7237	0.75	0.3045	-0.032
Mof_H 	H 	0.766	0.75	0.3412	0.062
Mof_C 	C 	0.5966	0.75	0.3034	0.001
Mof_H 	H 	0.5525	0.75	0.3395	0.049
Mof_C 	C 	0.1463	0.75	0.5289	0.205
Mof_C 	C 	0.142	0.75	0.7178	0.034
Mof_N 	N 	0.155	0.75	0.4053	-0.257
Mof_N 	N 	0.1402	0.75	0.5931	-0.201
Mof_O 	O 	0.9791	0.75	0.3006	-0.452
Mof_O 	O 	0.3437	0.75	0.3002	-0.46
Mof_Zn	Zn	0.16248	0.75	0.18464	1.215
Mof_C 	C 	0.7237	0.75	0.1955	-0.032
Mof_H 	H 	0.766	0.75	0.1588	0.062
Mof_C 	C 	0.5966	0.75	0.1966	0.001
Mof_H 	H 	0.5525	0.75	0.1605	0.049
Mof_C 	C 	0.1463	0.75	0.9711	0.207
Mof_C 	C 	0.142	0.75	0.7822	0.034
Mof_N 	N 	0.155	0.75	0.0947	-0.257
Mof_N 	N 	0.1402	0.75	0.9069	-0.201
Mof_O 	O 	0.9791	0.75	0.1994	-0.451
Mof_O 	O 	0.3437	0.75	0.1998	-0.46
Mof_C 	C 	0.1654	0.9862	0.25	0.374
Mof_C 	C 	0.1728	0.1217	0.25	-0.074
Mof_C 	C 	0.1654	0.5138	0.25	0.375
Mof_C 	C 	0.1728	0.3783	0.25	-0.074
Mof_C 	C 	0.9263	0.75	0.25	0.347
Mof_C 	C 	0.7883	0.75	0.25	-0.065
Mof_C 	C 	0.5346	0.75	0.25	-0.088
Mof_C 	C 	0.3985	0.75	0.25	0.373
_end
