data_functionalizedCrystal
_audit_creation_method	'EQeq! by Chris Wilmer'
_symmetry_space_group_name_H-M	'P1'
_symmetry_Int_Tables_number	1
_symmetry_cell_setting	triclinic
loop_
_symmetry_equiv_pos_as_xyz
  x,y,z
_cell_length_a	17.8474
_cell_length_b	17.8474
_cell_length_c	18.0638
_cell_angle_alpha	90
_cell_angle_beta	90
_cell_angle_gamma	120
loop_
_atom_site_label
_atom_site_type_symbol
_atom_site_fract_x
_atom_site_fract_y
_atom_site_fract_z
_atom_site_charge
Mof_Na	Na	0.33264	0.39431	0.15882	2.476
Mof_Na	Na	0.06167	0.66736	0.15882	2.458
Mof_Na	Na	0.60569	0.93833	0.15882	2.461
Mof_Na	Na	0.66736	0.60569	0.65882	2.477
Mof_Na	Na	0.93833	0.33264	0.65882	2.472
Mof_Na	Na	0.39431	0.06167	0.65882	2.473
Mof_Na	Na	0.66736	0.60569	0.84118	2.476
Mof_Na	Na	0.93833	0.33264	0.84118	2.458
Mof_Na	Na	0.39431	0.06167	0.84118	2.461
Mof_Na	Na	0.33264	0.39431	0.34118	2.477
Mof_Na	Na	0.06167	0.66736	0.34118	2.473
Mof_Na	Na	0.60569	0.93833	0.34118	2.474
Mof_Fe	Fe	0.27733	0.39968	0.83469	0.996
Mof_Fe	Fe	0.12235	0.72267	0.83469	0.997
Mof_Fe	Fe	0.60032	0.87765	0.83469	0.997
Mof_Fe	Fe	0.72267	0.60032	0.33469	0.996
Mof_Fe	Fe	0.87765	0.27733	0.33469	0.997
Mof_Fe	Fe	0.39968	0.12235	0.33469	0.997
Mof_Fe	Fe	0.72267	0.60032	0.16531	0.996
Mof_Fe	Fe	0.87765	0.27733	0.16531	0.997
Mof_Fe	Fe	0.39968	0.12235	0.16531	0.997
Mof_Fe	Fe	0.27733	0.39968	0.66531	0.996
Mof_Fe	Fe	0.12235	0.72267	0.66531	0.997
Mof_Fe	Fe	0.60032	0.87765	0.66531	0.997
Mof_H 	H 	0.3578	0.5496	0.005	0.105
Mof_H 	H 	0.4018	0.4933	0.9942	0.08
Mof_H 	H 	0.4956	0.583	0.9075	0.084
Mof_H 	H 	0.4646	0.5699	0.8248	0.091
Mof_H 	H 	0.1918	0.6422	0.005	0.1
Mof_H 	H 	0.0915	0.5982	0.9942	0.081
Mof_H 	H 	0.0874	0.5044	0.9075	0.086
Mof_H 	H 	0.1053	0.5354	0.8248	0.093
Mof_H 	H 	0.4504	0.8082	0.005	0.101
Mof_H 	H 	0.5067	0.9085	0.9942	0.081
Mof_H 	H 	0.417	0.9126	0.9075	0.086
Mof_H 	H 	0.4301	0.8947	0.8248	0.093
Mof_H 	H 	0.6422	0.4504	0.505	0.109
Mof_H 	H 	0.5982	0.5067	0.4942	0.082
Mof_H 	H 	0.5044	0.417	0.4075	0.083
Mof_H 	H 	0.5354	0.4301	0.3248	0.091
Mof_H 	H 	0.8082	0.3578	0.505	0.109
Mof_H 	H 	0.9085	0.4018	0.4942	0.082
Mof_H 	H 	0.9126	0.4956	0.4075	0.084
Mof_H 	H 	0.8947	0.4646	0.3248	0.092
Mof_H 	H 	0.5496	0.1918	0.505	0.109
Mof_H 	H 	0.4933	0.0915	0.4942	0.082
Mof_H 	H 	0.583	0.0874	0.4075	0.084
Mof_H 	H 	0.5699	0.1053	0.3248	0.092
Mof_H 	H 	0.6422	0.4504	0.995	0.105
Mof_H 	H 	0.5982	0.5067	0.0058	0.08
Mof_H 	H 	0.5044	0.417	0.0925	0.084
Mof_H 	H 	0.5354	0.4301	0.1752	0.091
Mof_H 	H 	0.8082	0.3578	0.995	0.1
Mof_H 	H 	0.9085	0.4018	0.0058	0.081
Mof_H 	H 	0.9126	0.4956	0.0925	0.086
Mof_H 	H 	0.8947	0.4646	0.1752	0.093
Mof_H 	H 	0.5496	0.1918	0.995	0.101
Mof_H 	H 	0.4933	0.0915	0.0058	0.081
Mof_H 	H 	0.583	0.0874	0.0925	0.086
Mof_H 	H 	0.5699	0.1053	0.1752	0.093
Mof_H 	H 	0.3578	0.5496	0.495	0.109
Mof_H 	H 	0.4018	0.4933	0.5058	0.082
Mof_H 	H 	0.4956	0.583	0.5925	0.083
Mof_H 	H 	0.4646	0.5699	0.6752	0.091
Mof_H 	H 	0.1918	0.6422	0.495	0.109
Mof_H 	H 	0.0915	0.5982	0.5058	0.082
Mof_H 	H 	0.0874	0.5044	0.5925	0.084
Mof_H 	H 	0.1053	0.5354	0.6752	0.092
Mof_H 	H 	0.4504	0.8082	0.495	0.109
Mof_H 	H 	0.5067	0.9085	0.5058	0.082
Mof_H 	H 	0.417	0.9126	0.5925	0.084
Mof_H 	H 	0.4301	0.8947	0.6752	0.092
Mof_C 	C 	0.262	0.5774	0.9056	-0.028
Mof_C 	C 	0.3508	0.5959	0.8778	0.024
Mof_C 	C 	0.3546	0.5013	0.9776	-0.304
Mof_C 	C 	0.2704	0.4212	0.9952	0.44
Mof_C 	C 	0.4525	0.5427	0.8732	-0.323
Mof_C 	C 	0.4583	0.4606	0.8692	0.429
Mof_C 	C 	0.3154	0.738	0.9056	-0.028
Mof_C 	C 	0.2451	0.6492	0.8778	0.024
Mof_C 	C 	0.1467	0.6454	0.9776	-0.3
Mof_C 	C 	0.1508	0.7296	0.9952	0.447
Mof_C 	C 	0.0902	0.5475	0.8732	-0.327
Mof_C 	C 	0.0023	0.5417	0.8692	0.437
Mof_C 	C 	0.4226	0.6846	0.9056	-0.028
Mof_C 	C 	0.4041	0.7549	0.8778	0.024
Mof_C 	C 	0.4987	0.8533	0.9776	-0.3
Mof_C 	C 	0.5788	0.8492	0.9952	0.44
Mof_C 	C 	0.4573	0.9098	0.8732	-0.327
Mof_C 	C 	0.5394	0.9977	0.8692	0.437
Mof_C 	C 	0.738	0.4226	0.4056	-0.03
Mof_C 	C 	0.6492	0.4041	0.3778	0.024
Mof_C 	C 	0.6454	0.4987	0.4776	-0.31
Mof_C 	C 	0.7296	0.5788	0.4952	0.439
Mof_C 	C 	0.5475	0.4573	0.3732	-0.323
Mof_C 	C 	0.5417	0.5394	0.3692	0.429
Mof_C 	C 	0.6846	0.262	0.4056	-0.03
Mof_C 	C 	0.7549	0.3508	0.3778	0.024
Mof_C 	C 	0.8533	0.3546	0.4776	-0.31
Mof_C 	C 	0.8492	0.2704	0.4952	0.439
Mof_C 	C 	0.9098	0.4525	0.3732	-0.325
Mof_C 	C 	0.9977	0.4583	0.3692	0.432
Mof_C 	C 	0.5774	0.3154	0.4056	-0.03
Mof_C 	C 	0.5959	0.2451	0.3778	0.024
Mof_C 	C 	0.5013	0.1467	0.4776	-0.31
Mof_C 	C 	0.4212	0.1508	0.4952	0.439
Mof_C 	C 	0.5427	0.0902	0.3732	-0.325
Mof_C 	C 	0.4606	0.0023	0.3692	0.432
Mof_C 	C 	0.738	0.4226	0.0944	-0.028
Mof_C 	C 	0.6492	0.4041	0.1222	0.024
Mof_C 	C 	0.6454	0.4987	0.0224	-0.304
Mof_C 	C 	0.7296	0.5788	0.0048	0.44
Mof_C 	C 	0.5475	0.4573	0.1268	-0.323
Mof_C 	C 	0.5417	0.5394	0.1308	0.429
Mof_C 	C 	0.6846	0.262	0.0944	-0.028
Mof_C 	C 	0.7549	0.3508	0.1222	0.024
Mof_C 	C 	0.8533	0.3546	0.0224	-0.3
Mof_C 	C 	0.8492	0.2704	0.0048	0.447
Mof_C 	C 	0.9098	0.4525	0.1268	-0.327
Mof_C 	C 	0.9977	0.4583	0.1308	0.437
Mof_C 	C 	0.5774	0.3154	0.0944	-0.028
Mof_C 	C 	0.5959	0.2451	0.1222	0.024
Mof_C 	C 	0.5013	0.1467	0.0224	-0.3
Mof_C 	C 	0.4212	0.1508	0.0048	0.44
Mof_C 	C 	0.5427	0.0902	0.1268	-0.327
Mof_C 	C 	0.4606	0.0023	0.1308	0.437
Mof_C 	C 	0.262	0.5774	0.5944	-0.03
Mof_C 	C 	0.3508	0.5959	0.6222	0.024
Mof_C 	C 	0.3546	0.5013	0.5224	-0.31
Mof_C 	C 	0.2704	0.4212	0.5048	0.439
Mof_C 	C 	0.4525	0.5427	0.6268	-0.323
Mof_C 	C 	0.4583	0.4606	0.6308	0.429
Mof_C 	C 	0.3154	0.738	0.5944	-0.03
Mof_C 	C 	0.2451	0.6492	0.6222	0.024
Mof_C 	C 	0.1467	0.6454	0.5224	-0.31
Mof_C 	C 	0.1508	0.7296	0.5048	0.439
Mof_C 	C 	0.0902	0.5475	0.6268	-0.325
Mof_C 	C 	0.0023	0.5417	0.6308	0.432
Mof_C 	C 	0.4226	0.6846	0.5944	-0.03
Mof_C 	C 	0.4041	0.7549	0.6222	0.024
Mof_C 	C 	0.4987	0.8533	0.5224	-0.31
Mof_C 	C 	0.5788	0.8492	0.5048	0.439
Mof_C 	C 	0.4573	0.9098	0.6268	-0.325
Mof_C 	C 	0.5394	0.9977	0.6308	0.432
Mof_C 	C 	0.126	0.3931	0.75	0.711
Mof_C 	C 	0.1978	0.2343	0.75	0.482
Mof_C 	C 	0.2671	0.874	0.75	0.711
Mof_C 	C 	0.0365	0.8022	0.75	0.482
Mof_C 	C 	0.6069	0.7329	0.75	0.712
Mof_C 	C 	0.7657	0.9635	0.75	0.483
Mof_C 	C 	0.874	0.6069	0.25	0.711
Mof_C 	C 	0.8022	0.7657	0.25	0.482
Mof_C 	C 	0.7329	0.126	0.25	0.711
Mof_C 	C 	0.9635	0.1978	0.25	0.482
Mof_C 	C 	0.3931	0.2671	0.25	0.712
Mof_C 	C 	0.2343	0.0365	0.25	0.483
Mof_N 	N 	0.3663	0.5234	0.8975	-0.084
Mof_N 	N 	0.1571	0.6337	0.8975	-0.084
Mof_N 	N 	0.4766	0.8429	0.8975	-0.084
Mof_N 	N 	0.6337	0.4766	0.3975	-0.084
Mof_N 	N 	0.8429	0.3663	0.3975	-0.083
Mof_N 	N 	0.5234	0.1571	0.3975	-0.083
Mof_N 	N 	0.6337	0.4766	0.1025	-0.084
Mof_N 	N 	0.8429	0.3663	0.1025	-0.084
Mof_N 	N 	0.5234	0.1571	0.1025	-0.084
Mof_N 	N 	0.3663	0.5234	0.6025	-0.084
Mof_N 	N 	0.1571	0.6337	0.6025	-0.083
Mof_N 	N 	0.4766	0.8429	0.6025	-0.083
Mof_O 	O 	0.2293	0.3707	0.94208	-0.354
Mof_O 	O 	0.246	0.4084	0.0612	-0.58
Mof_O 	O 	0.3868	0.389	0.86659	-0.369
Mof_O 	O 	0.5314	0.4685	0.8674	-0.6
Mof_O 	O 	0.16502	0.39732	0.81258	-0.48
Mof_O 	O 	0.223	0.2735	0.812	-0.406
Mof_O 	O 	0.333	0.294	0.0791	-0.474
Mof_O 	O 	0.1414	0.7707	0.94208	-0.354
Mof_O 	O 	0.1624	0.754	0.0612	-0.585
Mof_O 	O 	0.0022	0.6132	0.86659	-0.368
Mof_O 	O 	0.9371	0.4686	0.8674	-0.605
Mof_O 	O 	0.2323	0.83498	0.81258	-0.48
Mof_O 	O 	0.0505	0.777	0.812	-0.404
Mof_O 	O 	0.961	0.667	0.0791	-0.47
Mof_O 	O 	0.6293	0.8586	0.94208	-0.354
Mof_O 	O 	0.5916	0.8376	0.0612	-0.579
Mof_O 	O 	0.611	0.9978	0.86659	-0.369
Mof_O 	O 	0.5315	0.0629	0.8674	-0.606
Mof_O 	O 	0.60268	0.7677	0.81258	-0.481
Mof_O 	O 	0.7265	0.9495	0.812	-0.405
Mof_O 	O 	0.706	0.039	0.0791	-0.468
Mof_O 	O 	0.7707	0.6293	0.44208	-0.354
Mof_O 	O 	0.754	0.5916	0.5612	-0.577
Mof_O 	O 	0.6132	0.611	0.36659	-0.368
Mof_O 	O 	0.4686	0.5315	0.3674	-0.6
Mof_O 	O 	0.83498	0.60268	0.31258	-0.481
Mof_O 	O 	0.777	0.7265	0.312	-0.406
Mof_O 	O 	0.667	0.706	0.5791	-0.474
Mof_O 	O 	0.8586	0.2293	0.44208	-0.354
Mof_O 	O 	0.8376	0.246	0.5612	-0.577
Mof_O 	O 	0.9978	0.3868	0.36659	-0.368
Mof_O 	O 	0.0629	0.5314	0.3674	-0.602
Mof_O 	O 	0.7677	0.16502	0.31258	-0.481
Mof_O 	O 	0.9495	0.223	0.312	-0.405
Mof_O 	O 	0.039	0.333	0.5791	-0.473
Mof_O 	O 	0.3707	0.1414	0.44208	-0.354
Mof_O 	O 	0.4084	0.1624	0.5612	-0.577
Mof_O 	O 	0.389	0.0022	0.36659	-0.368
Mof_O 	O 	0.4685	0.9371	0.3674	-0.602
Mof_O 	O 	0.39732	0.2323	0.31258	-0.481
Mof_O 	O 	0.2735	0.0505	0.312	-0.405
Mof_O 	O 	0.294	0.961	0.5791	-0.473
Mof_O 	O 	0.7707	0.6293	0.05792	-0.354
Mof_O 	O 	0.754	0.5916	0.9388	-0.58
Mof_O 	O 	0.6132	0.611	0.13341	-0.369
Mof_O 	O 	0.4686	0.5315	0.1326	-0.6
Mof_O 	O 	0.83498	0.60268	0.18742	-0.48
Mof_O 	O 	0.777	0.7265	0.188	-0.406
Mof_O 	O 	0.667	0.706	0.9209	-0.474
Mof_O 	O 	0.8586	0.2293	0.05792	-0.354
Mof_O 	O 	0.8376	0.246	0.9388	-0.585
Mof_O 	O 	0.9978	0.3868	0.13341	-0.368
Mof_O 	O 	0.0629	0.5314	0.1326	-0.605
Mof_O 	O 	0.7677	0.16502	0.18742	-0.48
Mof_O 	O 	0.9495	0.223	0.188	-0.404
Mof_O 	O 	0.039	0.333	0.9209	-0.47
Mof_O 	O 	0.3707	0.1414	0.05792	-0.354
Mof_O 	O 	0.4084	0.1624	0.9388	-0.579
Mof_O 	O 	0.389	0.0022	0.13341	-0.369
Mof_O 	O 	0.4685	0.9371	0.1326	-0.606
Mof_O 	O 	0.39732	0.2323	0.18742	-0.481
Mof_O 	O 	0.2735	0.0505	0.188	-0.405
Mof_O 	O 	0.294	0.961	0.9209	-0.468
Mof_O 	O 	0.2293	0.3707	0.55792	-0.354
Mof_O 	O 	0.246	0.4084	0.4388	-0.577
Mof_O 	O 	0.3868	0.389	0.63341	-0.368
Mof_O 	O 	0.5314	0.4685	0.6326	-0.6
Mof_O 	O 	0.16502	0.39732	0.68742	-0.481
Mof_O 	O 	0.223	0.2735	0.688	-0.406
Mof_O 	O 	0.333	0.294	0.4209	-0.474
Mof_O 	O 	0.1414	0.7707	0.55792	-0.354
Mof_O 	O 	0.1624	0.754	0.4388	-0.577
Mof_O 	O 	0.0022	0.6132	0.63341	-0.368
Mof_O 	O 	0.9371	0.4686	0.6326	-0.602
Mof_O 	O 	0.2323	0.83498	0.68742	-0.481
Mof_O 	O 	0.0505	0.777	0.688	-0.405
Mof_O 	O 	0.961	0.667	0.4209	-0.473
Mof_O 	O 	0.6293	0.8586	0.55792	-0.354
Mof_O 	O 	0.5916	0.8376	0.4388	-0.577
Mof_O 	O 	0.611	0.9978	0.63341	-0.368
Mof_O 	O 	0.5315	0.0629	0.6326	-0.602
Mof_O 	O 	0.60268	0.7677	0.68742	-0.481
Mof_O 	O 	0.7265	0.9495	0.688	-0.405
Mof_O 	O 	0.706	0.039	0.4209	-0.473
Mof_O 	O 	0.053	0.3861	0.75	-0.969
Mof_O 	O 	0.1284	0.1566	0.75	-0.283
Mof_O 	O 	0.328	0.4539	0.75	-0.511
Mof_O 	O 	0.3331	0.947	0.75	-0.969
Mof_O 	O 	0.0282	0.8716	0.75	-0.28
Mof_O 	O 	0.1259	0.672	0.75	-0.511
Mof_O 	O 	0.6139	0.6669	0.75	-0.974
Mof_O 	O 	0.8434	0.9718	0.75	-0.283
Mof_O 	O 	0.5461	0.8741	0.75	-0.51
Mof_O 	O 	0.947	0.6139	0.25	-0.969
Mof_O 	O 	0.8716	0.8434	0.25	-0.283
Mof_O 	O 	0.672	0.5461	0.25	-0.511
Mof_O 	O 	0.6669	0.053	0.25	-0.969
Mof_O 	O 	0.9718	0.1284	0.25	-0.28
Mof_O 	O 	0.8741	0.328	0.25	-0.511
Mof_O 	O 	0.3861	0.3331	0.25	-0.974
Mof_O 	O 	0.1566	0.0282	0.25	-0.283
Mof_O 	O 	0.4539	0.1259	0.25	-0.51
Mof_O 	O 	0.2872	0.4512	0.25	-0.876
Mof_O 	O 	0.164	0.7128	0.25	-0.873
Mof_O 	O 	0.5488	0.836	0.25	-0.873
Mof_O 	O 	0.7128	0.5488	0.75	-0.876
Mof_O 	O 	0.836	0.2872	0.75	-0.873
Mof_O 	O 	0.4512	0.164	0.75	-0.873
_end
