data_functionalizedCrystal
_audit_creation_method	'EQeq! by Chris Wilmer'
_symmetry_space_group_name_H-M	'P1'
_symmetry_Int_Tables_number	1
_symmetry_cell_setting	triclinic
loop_
_symmetry_equiv_pos_as_xyz
  x,y,z
_cell_length_a	21.9368
_cell_length_b	16.8155
_cell_length_c	25.4998
_cell_angle_alpha	90
_cell_angle_beta	115.121
_cell_angle_gamma	90
loop_
_atom_site_label
_atom_site_type_symbol
_atom_site_fract_x
_atom_site_fract_y
_atom_site_fract_z
_atom_site_charge
Mof_Ag	Ag	0.65577	0.45643	0.63345	0.523
Mof_Ag	Ag	0.67883	0.75699	0.13374	0.533
Mof_C 	C 	0.4026	0.9716	0.0017	0.098
Mof_C 	C 	0.9678	0.8092	0.5914	-0.149
Mof_H 	H 	0.9465	0.7879	0.6129	0.082
Mof_C 	C 	0.8771	0.7557	0.5005	0.096
Mof_C 	C 	0.9404	0.7995	0.5327	0.063
Mof_C 	C 	0.7023	0.5834	0.4963	-0.139
Mof_H 	H 	0.6803	0.5871	0.4561	0.085
Mof_C 	C 	0.556	0.8453	0.0373	0.095
Mof_H 	H 	0.5757	0.8176	0.017	-0.018
Mof_C 	C 	0.4967	0.8848	0.0061	-0.146
Mof_H 	H 	0.4767	0.8829	0.9658	0.088
Mof_C 	C 	0.3195	0.0523	0.9958	0.095
Mof_C 	C 	0.4673	0.9275	0.0356	0.074
Mof_C 	C 	0.2799	0.1522	0.1094	0.066
Mof_H 	H 	0.2995	0.1565	0.1495	-0.028
Mof_C 	C 	0.2237	0.139	0.9919	-0.135
Mof_H 	H 	0.2034	0.1361	0.9517	0.072
Mof_C 	C 	0.7903	0.7253	0.4145	0.098
Mof_C 	C 	0.7577	0.7366	0.351	0.067
Mof_C 	C 	0.7645	0.5643	0.6128	0.086
Mof_H 	H 	0.7858	0.5576	0.6527	-0.011
Mof_C 	C 	0.2881	0.9914	0.85	0.065
Mof_C 	C 	0.765	0.621	0.5277	0.07
Mof_C 	C 	0.2863	0.1013	0.025	0.053
Mof_C 	C 	0.9748	0.834	0.5027	-0.154
Mof_H 	H 	0.9578	0.8302	0.4626	0.078
Mof_C 	C 	0.7962	0.6094	0.5866	-0.137
Mof_H 	H 	0.8382	0.6318	0.6085	0.085
Mof_C 	C 	0.3216	0.9556	0.8218	-0.149
Mof_H 	H 	0.3654	0.9374	0.8422	0.086
Mof_C 	C 	0.3202	0.0016	0.9139	0.092
Mof_C 	C 	0.7949	0.6715	0.497	0.103
Mof_C 	C 	0.6752	0.541	0.5274	0.096
Mof_H 	H 	0.6328	0.5187	0.5071	-0.017
Mof_C 	C 	0.1939	0.1808	0.0224	0.076
Mof_H 	H 	0.1527	0.2055	0.0013	-0.013
Mof_C 	C 	0.3138	0.1095	0.0833	-0.137
Mof_H 	H 	0.3554	0.0866	0.1058	0.078
Mof_C 	C 	0.0329	0.8727	0.5334	0.085
Mof_H 	H 	0.0551	0.8948	0.5129	-0.025
Mof_C 	C 	0.4989	0.9276	0.0952	-0.153
Mof_H 	H 	0.4811	0.9562	0.1166	0.085
Mof_C 	C 	0.0275	0.8512	0.6185	0.077
Mof_H 	H 	0.0451	0.8582	0.6584	-0.022
Mof_C 	C 	0.2887	0.947	0.7619	0.088
Mof_H 	H 	0.3121	0.924	0.7428	-0.018
Mof_C 	C 	0.1951	0.005	0.7594	0.083
Mof_H 	H 	0.1514	0.0233	0.7381	-0.028
Mof_C 	C 	0.7555	0.7942	0.2656	0.077
Mof_H 	H 	0.7739	0.8296	0.2483	-0.02
Mof_C 	C 	0.2229	0.0169	0.819	-0.153
Mof_H 	H 	0.1986	0.0408	0.8371	0.076
Mof_C 	C 	0.5564	0.8851	0.1221	0.096
Mof_H 	H 	0.5762	0.8844	0.1623	-0.011
Mof_C 	C 	0.7864	0.7855	0.3241	-0.145
Mof_H 	H 	0.8263	0.8122	0.3458	0.074
Mof_C 	C 	0.6975	0.6992	0.317	-0.154
Mof_H 	H 	0.6748	0.6685	0.3333	0.088
Mof_C 	C 	0.6729	0.7092	0.2583	0.1
Mof_H 	H 	0.6337	0.6819	0.2355	-0.025
Mof_N 	N 	0.7046	0.5297	0.5837	-0.195
Mof_N 	N 	0.0608	0.8817	0.5903	-0.217
Mof_N 	N 	0.6997	0.7541	0.2315	-0.202
Mof_N 	N 	0.763	0.6771	0.4397	-0.138
Mof_N 	N 	0.8524	0.7099	0.5298	-0.137
Mof_N 	N 	0.8479	0.7655	0.4432	-0.141
Mof_N 	N 	0.5867	0.8441	0.0947	-0.193
Mof_N 	N 	0.2207	0.1872	0.0795	-0.209
Mof_N 	N 	0.2255	0.97	0.7307	-0.203
Mof_N 	N 	0.3774	0.9623	0.9437	-0.136
Mof_N 	N 	0.3752	0.013	0.0291	-0.143
Mof_N 	N 	0.29	0.0493	0.9378	-0.149
Mof_Ag	Ag	0.15577	0.95643	0.63345	0.524
Mof_Ag	Ag	0.17883	0.25699	0.13374	0.534
Mof_C 	C 	0.9026	0.4716	0.0017	0.101
Mof_C 	C 	0.4678	0.3092	0.5914	-0.148
Mof_H 	H 	0.4465	0.2879	0.6129	0.083
Mof_C 	C 	0.3771	0.2557	0.5005	0.097
Mof_C 	C 	0.4404	0.2995	0.5327	0.064
Mof_C 	C 	0.2023	0.0834	0.4963	-0.138
Mof_H 	H 	0.1803	0.0871	0.4561	0.086
Mof_C 	C 	0.056	0.3453	0.0373	0.092
Mof_H 	H 	0.0757	0.3176	0.017	-0.015
Mof_C 	C 	0.9967	0.3848	0.0061	-0.139
Mof_H 	H 	0.9767	0.3829	0.9658	0.087
Mof_C 	C 	0.8195	0.5523	0.9958	0.093
Mof_C 	C 	0.9673	0.4275	0.0356	0.072
Mof_C 	C 	0.7799	0.6522	0.1094	0.068
Mof_H 	H 	0.7995	0.6565	0.1495	-0.027
Mof_C 	C 	0.7237	0.639	0.9919	-0.139
Mof_H 	H 	0.7034	0.6361	0.9517	0.074
Mof_C 	C 	0.2903	0.2253	0.4145	0.099
Mof_C 	C 	0.2577	0.2366	0.351	0.067
Mof_C 	C 	0.2645	0.0643	0.6128	0.086
Mof_H 	H 	0.2858	0.0576	0.6527	-0.011
Mof_C 	C 	0.7881	0.4914	0.85	0.065
Mof_C 	C 	0.265	0.121	0.5277	0.07
Mof_C 	C 	0.7863	0.6013	0.025	0.057
Mof_C 	C 	0.4748	0.334	0.5027	-0.154
Mof_H 	H 	0.4578	0.3302	0.4626	0.078
Mof_C 	C 	0.2962	0.1094	0.5866	-0.137
Mof_H 	H 	0.3382	0.1318	0.6085	0.085
Mof_C 	C 	0.8216	0.4556	0.8218	-0.149
Mof_H 	H 	0.8654	0.4374	0.8422	0.086
Mof_C 	C 	0.8202	0.5016	0.9139	0.092
Mof_C 	C 	0.2949	0.1715	0.497	0.103
Mof_C 	C 	0.1752	0.041	0.5274	0.096
Mof_H 	H 	0.1328	0.0187	0.5071	-0.017
Mof_C 	C 	0.6939	0.6808	0.0224	0.079
Mof_H 	H 	0.6527	0.7055	0.0013	-0.014
Mof_C 	C 	0.8138	0.6095	0.0833	-0.139
Mof_H 	H 	0.8554	0.5866	0.1058	0.079
Mof_C 	C 	0.5329	0.3727	0.5334	0.085
Mof_H 	H 	0.5551	0.3948	0.5129	-0.025
Mof_C 	C 	0.9989	0.4276	0.0952	-0.149
Mof_H 	H 	0.9811	0.4562	0.1166	0.084
Mof_C 	C 	0.5275	0.3512	0.6185	0.077
Mof_H 	H 	0.5451	0.3582	0.6584	-0.021
Mof_C 	C 	0.7887	0.447	0.7619	0.088
Mof_H 	H 	0.8121	0.424	0.7428	-0.018
Mof_C 	C 	0.6951	0.505	0.7594	0.082
Mof_H 	H 	0.6514	0.5233	0.7381	-0.028
Mof_C 	C 	0.2555	0.2942	0.2656	0.077
Mof_H 	H 	0.2739	0.3296	0.2483	-0.02
Mof_C 	C 	0.7229	0.5169	0.819	-0.153
Mof_H 	H 	0.6986	0.5408	0.8371	0.076
Mof_C 	C 	0.0564	0.3851	0.1221	0.093
Mof_H 	H 	0.0762	0.3844	0.1623	-0.011
Mof_C 	C 	0.2864	0.2855	0.3241	-0.145
Mof_H 	H 	0.3263	0.3122	0.3458	0.074
Mof_C 	C 	0.1975	0.1992	0.317	-0.154
Mof_H 	H 	0.1748	0.1685	0.3333	0.088
Mof_C 	C 	0.1729	0.2092	0.2583	0.1
Mof_H 	H 	0.1337	0.1819	0.2355	-0.025
Mof_N 	N 	0.2046	0.0297	0.5837	-0.195
Mof_N 	N 	0.5608	0.3817	0.5903	-0.217
Mof_N 	N 	0.1997	0.2541	0.2315	-0.202
Mof_N 	N 	0.263	0.1771	0.4397	-0.138
Mof_N 	N 	0.3524	0.2099	0.5298	-0.137
Mof_N 	N 	0.3479	0.2655	0.4432	-0.141
Mof_N 	N 	0.0867	0.3441	0.0947	-0.191
Mof_N 	N 	0.7207	0.6872	0.0795	-0.21
Mof_N 	N 	0.7255	0.47	0.7307	-0.203
Mof_N 	N 	0.8774	0.4623	0.9437	-0.137
Mof_N 	N 	0.8752	0.513	0.0291	-0.143
Mof_N 	N 	0.79	0.5493	0.9378	-0.149
Mof_Ag	Ag	0.34423	0.45643	0.86655	0.524
Mof_Ag	Ag	0.32117	0.75699	0.36626	0.534
Mof_C 	C 	0.5974	0.9716	0.4983	0.1
Mof_C 	C 	0.0322	0.8092	0.9086	-0.145
Mof_H 	H 	0.0535	0.7879	0.8871	0.082
Mof_C 	C 	0.1229	0.7557	0.9995	0.098
Mof_C 	C 	0.0596	0.7995	0.9673	0.061
Mof_C 	C 	0.2977	0.5834	0.0037	-0.141
Mof_H 	H 	0.3197	0.5871	0.0439	0.087
Mof_C 	C 	0.444	0.8453	0.4627	0.095
Mof_H 	H 	0.4243	0.8176	0.483	-0.016
Mof_C 	C 	0.5033	0.8848	0.4939	-0.144
Mof_H 	H 	0.5233	0.8829	0.5342	0.089
Mof_C 	C 	0.6805	0.0523	0.5042	0.095
Mof_C 	C 	0.5327	0.9275	0.4644	0.075
Mof_C 	C 	0.7201	0.1522	0.3906	0.067
Mof_H 	H 	0.7005	0.1565	0.3505	-0.027
Mof_C 	C 	0.7763	0.139	0.5081	-0.136
Mof_H 	H 	0.7966	0.1361	0.5483	0.074
Mof_C 	C 	0.2097	0.7253	0.0855	0.098
Mof_C 	C 	0.2423	0.7366	0.149	0.067
Mof_C 	C 	0.2355	0.5643	0.8872	0.087
Mof_H 	H 	0.2142	0.5576	0.8473	-0.011
Mof_C 	C 	0.7119	0.9914	0.65	0.065
Mof_C 	C 	0.235	0.621	0.9723	0.072
Mof_C 	C 	0.7137	0.1013	0.475	0.055
Mof_C 	C 	0.0252	0.834	0.9973	-0.148
Mof_H 	H 	0.0422	0.8302	0.0374	0.075
Mof_C 	C 	0.2038	0.6094	0.9134	-0.139
Mof_H 	H 	0.1618	0.6318	0.8915	0.086
Mof_C 	C 	0.6784	0.9556	0.6782	-0.149
Mof_H 	H 	0.6346	0.9374	0.6578	0.086
Mof_C 	C 	0.6798	0.0016	0.5861	0.092
Mof_C 	C 	0.2051	0.6715	0.003	0.101
Mof_C 	C 	0.3248	0.541	0.9726	0.098
Mof_H 	H 	0.3672	0.5187	0.9929	-0.017
Mof_C 	C 	0.8061	0.1808	0.4776	0.078
Mof_H 	H 	0.8473	0.2055	0.4987	-0.013
Mof_C 	C 	0.6862	0.1095	0.4167	-0.138
Mof_H 	H 	0.6446	0.0866	0.3942	0.078
Mof_C 	C 	0.9671	0.8727	0.9666	0.081
Mof_H 	H 	0.9449	0.8948	0.9871	-0.024
Mof_C 	C 	0.5011	0.9276	0.4048	-0.152
Mof_H 	H 	0.5189	0.9562	0.3834	0.085
Mof_C 	C 	0.9725	0.8512	0.8815	0.074
Mof_H 	H 	0.9549	0.8582	0.8416	-0.021
Mof_C 	C 	0.7113	0.947	0.7381	0.088
Mof_H 	H 	0.6879	0.924	0.7572	-0.018
Mof_C 	C 	0.8049	0.005	0.7406	0.082
Mof_H 	H 	0.8486	0.0233	0.7619	-0.028
Mof_C 	C 	0.2445	0.7942	0.2344	0.077
Mof_H 	H 	0.2261	0.8296	0.2517	-0.02
Mof_C 	C 	0.7771	0.0169	0.681	-0.153
Mof_H 	H 	0.8014	0.0408	0.6629	0.076
Mof_C 	C 	0.4436	0.8851	0.3779	0.096
Mof_H 	H 	0.4238	0.8844	0.3377	-0.011
Mof_C 	C 	0.2136	0.7855	0.1759	-0.145
Mof_H 	H 	0.1737	0.8122	0.1542	0.074
Mof_C 	C 	0.3025	0.6992	0.183	-0.154
Mof_H 	H 	0.3252	0.6685	0.1667	0.088
Mof_C 	C 	0.3271	0.7092	0.2417	0.1
Mof_H 	H 	0.3663	0.6819	0.2645	-0.025
Mof_N 	N 	0.2954	0.5297	0.9163	-0.196
Mof_N 	N 	0.9392	0.8817	0.9097	-0.216
Mof_N 	N 	0.3003	0.7541	0.2685	-0.202
Mof_N 	N 	0.237	0.6771	0.0603	-0.137
Mof_N 	N 	0.1476	0.7099	0.9702	-0.137
Mof_N 	N 	0.1521	0.7655	0.0568	-0.141
Mof_N 	N 	0.4133	0.8441	0.4053	-0.192
Mof_N 	N 	0.7793	0.1872	0.4205	-0.209
Mof_N 	N 	0.7745	0.97	0.7693	-0.203
Mof_N 	N 	0.6226	0.9623	0.5563	-0.136
Mof_N 	N 	0.6248	0.013	0.4709	-0.143
Mof_N 	N 	0.71	0.0493	0.5622	-0.149
Mof_Ag	Ag	0.84423	0.95643	0.86655	0.524
Mof_Ag	Ag	0.82117	0.25699	0.36626	0.534
Mof_C 	C 	0.0974	0.4716	0.4983	0.1
Mof_C 	C 	0.5322	0.3092	0.9086	-0.148
Mof_H 	H 	0.5535	0.2879	0.8871	0.083
Mof_C 	C 	0.6229	0.2557	0.9995	0.096
Mof_C 	C 	0.5596	0.2995	0.9673	0.064
Mof_C 	C 	0.7977	0.0834	0.0037	-0.136
Mof_H 	H 	0.8197	0.0871	0.0439	0.085
Mof_C 	C 	0.944	0.3453	0.4627	0.096
Mof_H 	H 	0.9243	0.3176	0.483	-0.016
Mof_C 	C 	0.0033	0.3848	0.4939	-0.145
Mof_H 	H 	0.0233	0.3829	0.5342	0.089
Mof_C 	C 	0.1805	0.5523	0.5042	0.095
Mof_C 	C 	0.0327	0.4275	0.4644	0.075
Mof_C 	C 	0.2201	0.6522	0.3906	0.067
Mof_H 	H 	0.2005	0.6565	0.3505	-0.027
Mof_C 	C 	0.2763	0.639	0.5081	-0.136
Mof_H 	H 	0.2966	0.6361	0.5483	0.074
Mof_C 	C 	0.7097	0.2253	0.0855	0.099
Mof_C 	C 	0.7423	0.2366	0.149	0.067
Mof_C 	C 	0.7355	0.0643	0.8872	0.085
Mof_H 	H 	0.7142	0.0576	0.8473	-0.011
Mof_C 	C 	0.2119	0.4914	0.65	0.065
Mof_C 	C 	0.735	0.121	0.9723	0.068
Mof_C 	C 	0.2137	0.6013	0.475	0.055
Mof_C 	C 	0.5252	0.334	0.9973	-0.155
Mof_H 	H 	0.5422	0.3302	0.0374	0.078
Mof_C 	C 	0.7038	0.1094	0.9134	-0.136
Mof_H 	H 	0.6618	0.1318	0.8915	0.085
Mof_C 	C 	0.1784	0.4556	0.6782	-0.149
Mof_H 	H 	0.1346	0.4374	0.6578	0.086
Mof_C 	C 	0.1798	0.5016	0.5861	0.092
Mof_C 	C 	0.7051	0.1715	0.003	0.104
Mof_C 	C 	0.8248	0.041	0.9726	0.095
Mof_H 	H 	0.8672	0.0187	0.9929	-0.017
Mof_C 	C 	0.3061	0.6808	0.4776	0.078
Mof_H 	H 	0.3473	0.7055	0.4987	-0.013
Mof_C 	C 	0.1862	0.6095	0.4167	-0.138
Mof_H 	H 	0.1446	0.5866	0.3942	0.078
Mof_C 	C 	0.4671	0.3727	0.9666	0.086
Mof_H 	H 	0.4449	0.3948	0.9871	-0.025
Mof_C 	C 	0.0011	0.4276	0.4048	-0.153
Mof_H 	H 	0.0189	0.4562	0.3834	0.085
Mof_C 	C 	0.4725	0.3512	0.8815	0.077
Mof_H 	H 	0.4549	0.3582	0.8416	-0.022
Mof_C 	C 	0.2113	0.447	0.7381	0.088
Mof_H 	H 	0.1879	0.424	0.7572	-0.018
Mof_C 	C 	0.3049	0.505	0.7406	0.082
Mof_H 	H 	0.3486	0.5233	0.7619	-0.028
Mof_C 	C 	0.7445	0.2942	0.2344	0.077
Mof_H 	H 	0.7261	0.3296	0.2517	-0.02
Mof_C 	C 	0.2771	0.5169	0.681	-0.153
Mof_H 	H 	0.3014	0.5408	0.6629	0.076
Mof_C 	C 	0.9436	0.3851	0.3779	0.096
Mof_H 	H 	0.9238	0.3844	0.3377	-0.011
Mof_C 	C 	0.7136	0.2855	0.1759	-0.145
Mof_H 	H 	0.6737	0.3122	0.1542	0.074
Mof_C 	C 	0.8025	0.1992	0.183	-0.154
Mof_H 	H 	0.8252	0.1685	0.1667	0.088
Mof_C 	C 	0.8271	0.2092	0.2417	0.1
Mof_H 	H 	0.8663	0.1819	0.2645	-0.025
Mof_N 	N 	0.7954	0.0297	0.9163	-0.195
Mof_N 	N 	0.4392	0.3817	0.9097	-0.217
Mof_N 	N 	0.8003	0.2541	0.2685	-0.202
Mof_N 	N 	0.737	0.1771	0.0603	-0.138
Mof_N 	N 	0.6476	0.2099	0.9702	-0.137
Mof_N 	N 	0.6521	0.2655	0.0568	-0.141
Mof_N 	N 	0.9133	0.3441	0.4053	-0.193
Mof_N 	N 	0.2793	0.6872	0.4205	-0.209
Mof_N 	N 	0.2745	0.47	0.7693	-0.203
Mof_N 	N 	0.1226	0.4623	0.5563	-0.136
Mof_N 	N 	0.1248	0.513	0.4709	-0.143
Mof_N 	N 	0.21	0.5493	0.5622	-0.149
Mof_Ag	Ag	0.34423	0.54357	0.36655	0.524
Mof_Ag	Ag	0.32117	0.24301	0.86626	0.534
Mof_C 	C 	0.5974	0.0284	0.9983	0.099
Mof_C 	C 	0.0322	0.1908	0.4086	-0.148
Mof_H 	H 	0.0535	0.2121	0.3871	0.083
Mof_C 	C 	0.1229	0.2443	0.4995	0.097
Mof_C 	C 	0.0596	0.2005	0.4673	0.064
Mof_C 	C 	0.2977	0.4166	0.5037	-0.138
Mof_H 	H 	0.3197	0.4129	0.5439	0.086
Mof_C 	C 	0.444	0.1547	0.9627	0.096
Mof_H 	H 	0.4243	0.1824	0.983	-0.017
Mof_C 	C 	0.5033	0.1152	0.9939	-0.145
Mof_H 	H 	0.5233	0.1171	0.0342	0.089
Mof_C 	C 	0.6805	0.9477	0.0042	0.096
Mof_C 	C 	0.5327	0.0725	0.9644	0.075
Mof_C 	C 	0.7201	0.8478	0.8906	0.067
Mof_H 	H 	0.7005	0.8435	0.8505	-0.027
Mof_C 	C 	0.7763	0.861	0.0081	-0.134
Mof_H 	H 	0.7966	0.8639	0.0483	0.073
Mof_C 	C 	0.2097	0.2747	0.5855	0.099
Mof_C 	C 	0.2423	0.2634	0.649	0.067
Mof_C 	C 	0.2355	0.4357	0.3872	0.086
Mof_H 	H 	0.2142	0.4424	0.3473	-0.011
Mof_C 	C 	0.7119	0.0086	0.15	0.065
Mof_C 	C 	0.235	0.379	0.4723	0.07
Mof_C 	C 	0.7137	0.8987	0.975	0.053
Mof_C 	C 	0.0252	0.166	0.4973	-0.154
Mof_H 	H 	0.0422	0.1698	0.5374	0.078
Mof_C 	C 	0.2038	0.3906	0.4134	-0.137
Mof_H 	H 	0.1618	0.3682	0.3915	0.085
Mof_C 	C 	0.6784	0.0444	0.1782	-0.149
Mof_H 	H 	0.6346	0.0626	0.1578	0.086
Mof_C 	C 	0.6798	0.9984	0.0861	0.092
Mof_C 	C 	0.2051	0.3285	0.503	0.103
Mof_C 	C 	0.3248	0.459	0.4726	0.096
Mof_H 	H 	0.3672	0.4813	0.4929	-0.017
Mof_C 	C 	0.8061	0.8192	0.9776	0.076
Mof_H 	H 	0.8473	0.7945	0.9987	-0.013
Mof_C 	C 	0.6862	0.8905	0.9167	-0.137
Mof_H 	H 	0.6446	0.9134	0.8942	0.078
Mof_C 	C 	0.9671	0.1273	0.4666	0.085
Mof_H 	H 	0.9449	0.1052	0.4871	-0.025
Mof_C 	C 	0.5011	0.0724	0.9048	-0.153
Mof_H 	H 	0.5189	0.0438	0.8834	0.085
Mof_C 	C 	0.9725	0.1488	0.3815	0.077
Mof_H 	H 	0.9549	0.1418	0.3416	-0.022
Mof_C 	C 	0.7113	0.053	0.2381	0.088
Mof_H 	H 	0.6879	0.076	0.2572	-0.018
Mof_C 	C 	0.8049	0.995	0.2406	0.083
Mof_H 	H 	0.8486	0.9767	0.2619	-0.028
Mof_C 	C 	0.2445	0.2058	0.7344	0.077
Mof_H 	H 	0.2261	0.1704	0.7517	-0.02
Mof_C 	C 	0.7771	0.9831	0.181	-0.153
Mof_H 	H 	0.8014	0.9592	0.1629	0.076
Mof_C 	C 	0.4436	0.1149	0.8779	0.096
Mof_H 	H 	0.4238	0.1156	0.8377	-0.011
Mof_C 	C 	0.2136	0.2145	0.6759	-0.145
Mof_H 	H 	0.1737	0.1878	0.6542	0.074
Mof_C 	C 	0.3025	0.3008	0.683	-0.154
Mof_H 	H 	0.3252	0.3315	0.6667	0.088
Mof_C 	C 	0.3271	0.2908	0.7417	0.1
Mof_H 	H 	0.3663	0.3181	0.7645	-0.025
Mof_N 	N 	0.2954	0.4703	0.4163	-0.195
Mof_N 	N 	0.9392	0.1183	0.4097	-0.217
Mof_N 	N 	0.3003	0.2459	0.7685	-0.202
Mof_N 	N 	0.237	0.3229	0.5603	-0.138
Mof_N 	N 	0.1476	0.2901	0.4702	-0.137
Mof_N 	N 	0.1521	0.2345	0.5568	-0.141
Mof_N 	N 	0.4133	0.1559	0.9053	-0.193
Mof_N 	N 	0.7793	0.8128	0.9205	-0.209
Mof_N 	N 	0.7745	0.03	0.2693	-0.203
Mof_N 	N 	0.6226	0.0377	0.0563	-0.136
Mof_N 	N 	0.6248	0.987	0.9709	-0.143
Mof_N 	N 	0.71	0.9507	0.0622	-0.149
Mof_Ag	Ag	0.84423	0.04357	0.36655	0.524
Mof_Ag	Ag	0.82117	0.74301	0.86626	0.534
Mof_C 	C 	0.0974	0.5284	0.9983	0.101
Mof_C 	C 	0.5322	0.6908	0.4086	-0.148
Mof_H 	H 	0.5535	0.7121	0.3871	0.083
Mof_C 	C 	0.6229	0.7443	0.4995	0.097
Mof_C 	C 	0.5596	0.7005	0.4673	0.064
Mof_C 	C 	0.7977	0.9166	0.5037	-0.138
Mof_H 	H 	0.8197	0.9129	0.5439	0.086
Mof_C 	C 	0.944	0.6547	0.9627	0.092
Mof_H 	H 	0.9243	0.6824	0.983	-0.015
Mof_C 	C 	0.0033	0.6152	0.9939	-0.139
Mof_H 	H 	0.0233	0.6171	0.0342	0.087
Mof_C 	C 	0.1805	0.4477	0.0042	0.093
Mof_C 	C 	0.0327	0.5725	0.9644	0.072
Mof_C 	C 	0.2201	0.3478	0.8906	0.068
Mof_H 	H 	0.2005	0.3435	0.8505	-0.027
Mof_C 	C 	0.2763	0.361	0.0081	-0.139
Mof_H 	H 	0.2966	0.3639	0.0483	0.074
Mof_C 	C 	0.7097	0.7747	0.5855	0.099
Mof_C 	C 	0.7423	0.7634	0.649	0.067
Mof_C 	C 	0.7355	0.9357	0.3872	0.086
Mof_H 	H 	0.7142	0.9424	0.3473	-0.011
Mof_C 	C 	0.2119	0.5086	0.15	0.065
Mof_C 	C 	0.735	0.879	0.4723	0.07
Mof_C 	C 	0.2137	0.3987	0.975	0.057
Mof_C 	C 	0.5252	0.666	0.4973	-0.154
Mof_H 	H 	0.5422	0.6698	0.5374	0.078
Mof_C 	C 	0.7038	0.8906	0.4134	-0.137
Mof_H 	H 	0.6618	0.8682	0.3915	0.085
Mof_C 	C 	0.1784	0.5444	0.1782	-0.149
Mof_H 	H 	0.1346	0.5626	0.1578	0.086
Mof_C 	C 	0.1798	0.4984	0.0861	0.092
Mof_C 	C 	0.7051	0.8285	0.503	0.103
Mof_C 	C 	0.8248	0.959	0.4726	0.096
Mof_H 	H 	0.8672	0.9813	0.4929	-0.017
Mof_C 	C 	0.3061	0.3192	0.9776	0.079
Mof_H 	H 	0.3473	0.2945	0.9987	-0.014
Mof_C 	C 	0.1862	0.3905	0.9167	-0.139
Mof_H 	H 	0.1446	0.4134	0.8942	0.079
Mof_C 	C 	0.4671	0.6273	0.4666	0.085
Mof_H 	H 	0.4449	0.6052	0.4871	-0.025
Mof_C 	C 	0.0011	0.5724	0.9048	-0.149
Mof_H 	H 	0.0189	0.5438	0.8834	0.084
Mof_C 	C 	0.4725	0.6488	0.3815	0.077
Mof_H 	H 	0.4549	0.6418	0.3416	-0.021
Mof_C 	C 	0.2113	0.553	0.2381	0.088
Mof_H 	H 	0.1879	0.576	0.2572	-0.018
Mof_C 	C 	0.3049	0.495	0.2406	0.082
Mof_H 	H 	0.3486	0.4767	0.2619	-0.028
Mof_C 	C 	0.7445	0.7058	0.7344	0.077
Mof_H 	H 	0.7261	0.6704	0.7517	-0.02
Mof_C 	C 	0.2771	0.4831	0.181	-0.153
Mof_H 	H 	0.3014	0.4592	0.1629	0.076
Mof_C 	C 	0.9436	0.6149	0.8779	0.093
Mof_H 	H 	0.9238	0.6156	0.8377	-0.011
Mof_C 	C 	0.7136	0.7145	0.6759	-0.145
Mof_H 	H 	0.6737	0.6878	0.6542	0.074
Mof_C 	C 	0.8025	0.8008	0.683	-0.154
Mof_H 	H 	0.8252	0.8315	0.6667	0.088
Mof_C 	C 	0.8271	0.7908	0.7417	0.1
Mof_H 	H 	0.8663	0.8181	0.7645	-0.025
Mof_N 	N 	0.7954	0.9703	0.4163	-0.195
Mof_N 	N 	0.4392	0.6183	0.4097	-0.217
Mof_N 	N 	0.8003	0.7459	0.7685	-0.202
Mof_N 	N 	0.737	0.8229	0.5603	-0.138
Mof_N 	N 	0.6476	0.7901	0.4702	-0.137
Mof_N 	N 	0.6521	0.7345	0.5568	-0.141
Mof_N 	N 	0.9133	0.6559	0.9053	-0.191
Mof_N 	N 	0.2793	0.3128	0.9205	-0.21
Mof_N 	N 	0.2745	0.53	0.2693	-0.203
Mof_N 	N 	0.1226	0.5377	0.0563	-0.137
Mof_N 	N 	0.1248	0.487	0.9709	-0.143
Mof_N 	N 	0.21	0.4507	0.0622	-0.149
Mof_Ag	Ag	0.65577	0.54357	0.13345	0.524
Mof_Ag	Ag	0.67883	0.24301	0.63374	0.534
Mof_C 	C 	0.4026	0.0284	0.5017	0.1
Mof_C 	C 	0.9678	0.1908	0.0914	-0.145
Mof_H 	H 	0.9465	0.2121	0.1129	0.082
Mof_C 	C 	0.8771	0.2443	0.0005	0.098
Mof_C 	C 	0.9404	0.2005	0.0327	0.061
Mof_C 	C 	0.7023	0.4166	0.9963	-0.141
Mof_H 	H 	0.6803	0.4129	0.9561	0.087
Mof_C 	C 	0.556	0.1547	0.5373	0.095
Mof_H 	H 	0.5757	0.1824	0.517	-0.016
Mof_C 	C 	0.4967	0.1152	0.5061	-0.144
Mof_H 	H 	0.4767	0.1171	0.4658	0.089
Mof_C 	C 	0.3195	0.9477	0.4958	0.095
Mof_C 	C 	0.4673	0.0725	0.5356	0.075
Mof_C 	C 	0.2799	0.8478	0.6094	0.067
Mof_H 	H 	0.2995	0.8435	0.6495	-0.027
Mof_C 	C 	0.2237	0.861	0.4919	-0.136
Mof_H 	H 	0.2034	0.8639	0.4517	0.074
Mof_C 	C 	0.7903	0.2747	0.9145	0.098
Mof_C 	C 	0.7577	0.2634	0.851	0.067
Mof_C 	C 	0.7645	0.4357	0.1128	0.087
Mof_H 	H 	0.7858	0.4424	0.1527	-0.011
Mof_C 	C 	0.2881	0.0086	0.35	0.065
Mof_C 	C 	0.765	0.379	0.0277	0.072
Mof_C 	C 	0.2863	0.8987	0.525	0.055
Mof_C 	C 	0.9748	0.166	0.0027	-0.148
Mof_H 	H 	0.9578	0.1698	0.9626	0.075
Mof_C 	C 	0.7962	0.3906	0.0866	-0.139
Mof_H 	H 	0.8382	0.3682	0.1085	0.086
Mof_C 	C 	0.3216	0.0444	0.3218	-0.149
Mof_H 	H 	0.3654	0.0626	0.3422	0.086
Mof_C 	C 	0.3202	0.9984	0.4139	0.092
Mof_C 	C 	0.7949	0.3285	0.997	0.101
Mof_C 	C 	0.6752	0.459	0.0274	0.098
Mof_H 	H 	0.6328	0.4813	0.0071	-0.017
Mof_C 	C 	0.1939	0.8192	0.5224	0.078
Mof_H 	H 	0.1527	0.7945	0.5013	-0.013
Mof_C 	C 	0.3138	0.8905	0.5833	-0.138
Mof_H 	H 	0.3554	0.9134	0.6058	0.078
Mof_C 	C 	0.0329	0.1273	0.0334	0.081
Mof_H 	H 	0.0551	0.1052	0.0129	-0.024
Mof_C 	C 	0.4989	0.0724	0.5952	-0.152
Mof_H 	H 	0.4811	0.0438	0.6166	0.085
Mof_C 	C 	0.0275	0.1488	0.1185	0.074
Mof_H 	H 	0.0451	0.1418	0.1584	-0.021
Mof_C 	C 	0.2887	0.053	0.2619	0.088
Mof_H 	H 	0.3121	0.076	0.2428	-0.018
Mof_C 	C 	0.1951	0.995	0.2594	0.082
Mof_H 	H 	0.1514	0.9767	0.2381	-0.028
Mof_C 	C 	0.7555	0.2058	0.7656	0.077
Mof_H 	H 	0.7739	0.1704	0.7483	-0.02
Mof_C 	C 	0.2229	0.9831	0.319	-0.153
Mof_H 	H 	0.1986	0.9592	0.3371	0.076
Mof_C 	C 	0.5564	0.1149	0.6221	0.096
Mof_H 	H 	0.5762	0.1156	0.6623	-0.011
Mof_C 	C 	0.7864	0.2145	0.8241	-0.145
Mof_H 	H 	0.8263	0.1878	0.8458	0.074
Mof_C 	C 	0.6975	0.3008	0.817	-0.154
Mof_H 	H 	0.6748	0.3315	0.8333	0.088
Mof_C 	C 	0.6729	0.2908	0.7583	0.1
Mof_H 	H 	0.6337	0.3181	0.7355	-0.025
Mof_N 	N 	0.7046	0.4703	0.0837	-0.196
Mof_N 	N 	0.0608	0.1183	0.0903	-0.216
Mof_N 	N 	0.6997	0.2459	0.7315	-0.202
Mof_N 	N 	0.763	0.3229	0.9397	-0.137
Mof_N 	N 	0.8524	0.2901	0.0298	-0.137
Mof_N 	N 	0.8479	0.2345	0.9432	-0.141
Mof_N 	N 	0.5867	0.1559	0.5947	-0.192
Mof_N 	N 	0.2207	0.8128	0.5795	-0.209
Mof_N 	N 	0.2255	0.03	0.2307	-0.203
Mof_N 	N 	0.3774	0.0377	0.4437	-0.136
Mof_N 	N 	0.3752	0.987	0.5291	-0.143
Mof_N 	N 	0.29	0.9507	0.4378	-0.149
Mof_Ag	Ag	0.15577	0.04357	0.13345	0.524
Mof_Ag	Ag	0.17883	0.74301	0.63374	0.534
Mof_C 	C 	0.9026	0.5284	0.5017	0.1
Mof_C 	C 	0.4678	0.6908	0.0914	-0.148
Mof_H 	H 	0.4465	0.7121	0.1129	0.083
Mof_C 	C 	0.3771	0.7443	0.0005	0.096
Mof_C 	C 	0.4404	0.7005	0.0327	0.064
Mof_C 	C 	0.2023	0.9166	0.9963	-0.136
Mof_H 	H 	0.1803	0.9129	0.9561	0.085
Mof_C 	C 	0.056	0.6547	0.5373	0.096
Mof_H 	H 	0.0757	0.6824	0.517	-0.016
Mof_C 	C 	0.9967	0.6152	0.5061	-0.145
Mof_H 	H 	0.9767	0.6171	0.4658	0.089
Mof_C 	C 	0.8195	0.4477	0.4958	0.095
Mof_C 	C 	0.9673	0.5725	0.5356	0.075
Mof_C 	C 	0.7799	0.3478	0.6094	0.067
Mof_H 	H 	0.7995	0.3435	0.6495	-0.027
Mof_C 	C 	0.7237	0.361	0.4919	-0.136
Mof_H 	H 	0.7034	0.3639	0.4517	0.074
Mof_C 	C 	0.2903	0.7747	0.9145	0.099
Mof_C 	C 	0.2577	0.7634	0.851	0.067
Mof_C 	C 	0.2645	0.9357	0.1128	0.085
Mof_H 	H 	0.2858	0.9424	0.1527	-0.011
Mof_C 	C 	0.7881	0.5086	0.35	0.065
Mof_C 	C 	0.265	0.879	0.0277	0.068
Mof_C 	C 	0.7863	0.3987	0.525	0.055
Mof_C 	C 	0.4748	0.666	0.0027	-0.155
Mof_H 	H 	0.4578	0.6698	0.9626	0.078
Mof_C 	C 	0.2962	0.8906	0.0866	-0.136
Mof_H 	H 	0.3382	0.8682	0.1085	0.085
Mof_C 	C 	0.8216	0.5444	0.3218	-0.149
Mof_H 	H 	0.8654	0.5626	0.3422	0.086
Mof_C 	C 	0.8202	0.4984	0.4139	0.092
Mof_C 	C 	0.2949	0.8285	0.997	0.104
Mof_C 	C 	0.1752	0.959	0.0274	0.095
Mof_H 	H 	0.1328	0.9813	0.0071	-0.017
Mof_C 	C 	0.6939	0.3192	0.5224	0.078
Mof_H 	H 	0.6527	0.2945	0.5013	-0.013
Mof_C 	C 	0.8138	0.3905	0.5833	-0.138
Mof_H 	H 	0.8554	0.4134	0.6058	0.078
Mof_C 	C 	0.5329	0.6273	0.0334	0.086
Mof_H 	H 	0.5551	0.6052	0.0129	-0.025
Mof_C 	C 	0.9989	0.5724	0.5952	-0.153
Mof_H 	H 	0.9811	0.5438	0.6166	0.085
Mof_C 	C 	0.5275	0.6488	0.1185	0.077
Mof_H 	H 	0.5451	0.6418	0.1584	-0.022
Mof_C 	C 	0.7887	0.553	0.2619	0.088
Mof_H 	H 	0.8121	0.576	0.2428	-0.018
Mof_C 	C 	0.6951	0.495	0.2594	0.082
Mof_H 	H 	0.6514	0.4767	0.2381	-0.028
Mof_C 	C 	0.2555	0.7058	0.7656	0.077
Mof_H 	H 	0.2739	0.6704	0.7483	-0.02
Mof_C 	C 	0.7229	0.4831	0.319	-0.153
Mof_H 	H 	0.6986	0.4592	0.3371	0.076
Mof_C 	C 	0.0564	0.6149	0.6221	0.096
Mof_H 	H 	0.0762	0.6156	0.6623	-0.011
Mof_C 	C 	0.2864	0.7145	0.8241	-0.145
Mof_H 	H 	0.3263	0.6878	0.8458	0.074
Mof_C 	C 	0.1975	0.8008	0.817	-0.154
Mof_H 	H 	0.1748	0.8315	0.8333	0.088
Mof_C 	C 	0.1729	0.7908	0.7583	0.1
Mof_H 	H 	0.1337	0.8181	0.7355	-0.025
Mof_N 	N 	0.2046	0.9703	0.0837	-0.195
Mof_N 	N 	0.5608	0.6183	0.0903	-0.217
Mof_N 	N 	0.1997	0.7459	0.7315	-0.202
Mof_N 	N 	0.263	0.8229	0.9397	-0.138
Mof_N 	N 	0.3524	0.7901	0.0298	-0.137
Mof_N 	N 	0.3479	0.7345	0.9432	-0.141
Mof_N 	N 	0.0867	0.6559	0.5947	-0.193
Mof_N 	N 	0.7207	0.3128	0.5795	-0.209
Mof_N 	N 	0.7255	0.53	0.2307	-0.203
Mof_N 	N 	0.8774	0.5377	0.4437	-0.136
Mof_N 	N 	0.8752	0.487	0.5291	-0.143
Mof_N 	N 	0.79	0.4507	0.4378	-0.149
_end
