data_functionalizedCrystal
_audit_creation_method	'EQeq! by Chris Wilmer'
_symmetry_space_group_name_H-M	'P1'
_symmetry_Int_Tables_number	1
_symmetry_cell_setting	triclinic
loop_
_symmetry_equiv_pos_as_xyz
  x,y,z
_cell_length_a	13.8488
_cell_length_b	15.5215
_cell_length_c	15.5215
_cell_angle_alpha	120
_cell_angle_beta	90
_cell_angle_gamma	90
loop_
_atom_site_label
_atom_site_type_symbol
_atom_site_fract_x
_atom_site_fract_y
_atom_site_fract_z
_atom_site_charge
Mof_Ce	Ce	0.46618	0.33333	0.66666	2.8
Mof_Ce	Ce	0.96618	0.66667	0.33334	2.801
Mof_Ce	Ce	0.03382	0.33333	0.66666	2.801
Mof_Ce	Ce	0.53382	0.66667	0.33334	2.8
Mof_Cu	Cu	0.75	0.50177	0.97569	0.943
Mof_Cu	Cu	0.75	0.47392	0.49823	0.943
Mof_Cu	Cu	0.75	0.02431	0.52608	0.943
Mof_Cu	Cu	0.25	0.52608	0.02431	0.943
Mof_Cu	Cu	0.25	0.49823	0.47392	0.943
Mof_Cu	Cu	0.25	0.97569	0.50177	0.943
Mof_H 	H 	0.5101	0.3932	0.088	0.087
Mof_H 	H 	0.75	0.7263	0.3486	0.9
Mof_H 	H 	0.5885	0.7819	0.1386	0.082
Mof_H 	H 	0.75	0.6514	0.3777	0.901
Mof_H 	H 	0.5885	0.8614	0.6433	0.082
Mof_H 	H 	0.0101	0.3052	0.912	0.087
Mof_H 	H 	0.0101	0.6068	0.6948	0.088
Mof_H 	H 	0.4899	0.088	0.3932	0.088
Mof_H 	H 	0.496	0.3846	0.2857	0.092
Mof_H 	H 	0.5101	0.912	0.3052	0.088
Mof_H 	H 	0.572	0.1449	0.3722	0.091
Mof_H 	H 	0.928	0.6278	0.7727	0.091
Mof_H 	H 	0.496	0.7143	0.0989	0.092
Mof_H 	H 	0.572	0.2273	0.8551	0.091
Mof_H 	H 	0.9115	0.8614	0.6433	0.082
Mof_H 	H 	0.504	0.6154	0.9011	0.092
Mof_H 	H 	0.504	0.2857	0.3846	0.092
Mof_H 	H 	0.004	0.3846	0.2857	0.092
Mof_H 	H 	0.996	0.6154	0.9011	0.092
Mof_H 	H 	0.9115	0.3567	0.2181	0.082
Mof_H 	H 	0.504	0.0989	0.7143	0.092
Mof_H 	H 	0.0101	0.088	0.3932	0.088
Mof_H 	H 	0.4899	0.3052	0.912	0.088
Mof_H 	H 	0.9899	0.912	0.3052	0.087
Mof_H 	H 	0.9899	0.6948	0.6068	0.088
Mof_H 	H 	0.5885	0.3567	0.2181	0.082
Mof_H 	H 	0.072	0.8551	0.2273	0.09
Mof_H 	H 	0.0885	0.1386	0.7819	0.082
Mof_H 	H 	0.0885	0.6433	0.8614	0.082
Mof_H 	H 	0.25	0.3486	0.7263	0.901
Mof_H 	H 	0.072	0.7727	0.6278	0.091
Mof_H 	H 	0.004	0.7143	0.0989	0.093
Mof_H 	H 	0.572	0.6278	0.7727	0.091
Mof_H 	H 	0.428	0.3722	0.1449	0.091
Mof_H 	H 	0.75	0.6223	0.2737	0.901
Mof_H 	H 	0.996	0.0989	0.7143	0.093
Mof_H 	H 	0.4115	0.2181	0.3567	0.082
Mof_H 	H 	0.928	0.1449	0.3722	0.09
Mof_H 	H 	0.496	0.9011	0.6154	0.092
Mof_H 	H 	0.004	0.9011	0.6154	0.092
Mof_H 	H 	0.9115	0.7819	0.1386	0.082
Mof_H 	H 	0.9899	0.3932	0.088	0.088
Mof_H 	H 	0.0885	0.2181	0.3567	0.082
Mof_H 	H 	0.996	0.2857	0.3846	0.092
Mof_H 	H 	0.5101	0.6948	0.6068	0.088
Mof_H 	H 	0.072	0.3722	0.1449	0.09
Mof_H 	H 	0.4899	0.6068	0.6948	0.088
Mof_H 	H 	0.428	0.7727	0.6278	0.091
Mof_H 	H 	0.928	0.2273	0.8551	0.09
Mof_H 	H 	0.25	0.2737	0.6223	0.901
Mof_H 	H 	0.4115	0.6433	0.8614	0.082
Mof_H 	H 	0.4115	0.1386	0.7819	0.082
Mof_H 	H 	0.428	0.8551	0.2273	0.091
Mof_H 	H 	0.25	0.3777	0.6514	0.901
Mof_C 	C 	0.1137	0.5281	0.8893	0.433
Mof_C 	C 	0.5982	0.3618	0.8648	0.437
Mof_C 	C 	0.9018	0.503	0.6382	0.437
Mof_C 	C 	0.5334	0.2796	0.8555	-0.188
Mof_C 	C 	0.9486	0.8574	0.5884	-0.184
Mof_C 	C 	0.0514	0.1426	0.731	-0.185
Mof_C 	C 	0.4666	0.4241	0.1445	-0.189
Mof_C 	C 	0.4018	0.497	0.1352	0.437
Mof_C 	C 	0.0514	0.5884	0.8574	-0.184
Mof_C 	C 	0.1137	0.1107	0.6388	0.433
Mof_C 	C 	0.8863	0.6388	0.1107	0.433
Mof_C 	C 	0.5334	0.1445	0.4241	-0.189
Mof_C 	C 	0.5334	0.5759	0.7204	-0.189
Mof_C 	C 	0.5514	0.731	0.1426	-0.183
Mof_C 	C 	0.3863	0.1107	0.6388	0.433
Mof_C 	C 	0.4486	0.5884	0.8574	-0.183
Mof_C 	C 	0.0982	0.497	0.1352	0.437
Mof_C 	C 	0.9018	0.3618	0.8648	0.437
Mof_C 	C 	0.0334	0.4241	0.1445	-0.187
Mof_C 	C 	0.9486	0.4116	0.269	-0.183
Mof_C 	C 	0.3863	0.3612	0.4719	0.433
Mof_C 	C 	0.6137	0.6388	0.1107	0.433
Mof_C 	C 	0.1137	0.3612	0.4719	0.433
Mof_C 	C 	0.9666	0.5759	0.7204	-0.188
Mof_C 	C 	0.4486	0.1426	0.731	-0.183
Mof_C 	C 	0.9666	0.2796	0.8555	-0.186
Mof_C 	C 	0.0982	0.8648	0.3618	0.437
Mof_C 	C 	0.0334	0.8555	0.2796	-0.186
Mof_C 	C 	0.0514	0.269	0.4116	-0.183
Mof_C 	C 	0.0334	0.7204	0.5759	-0.188
Mof_C 	C 	0.0982	0.6382	0.503	0.437
Mof_C 	C 	0.5514	0.8574	0.5884	-0.183
Mof_C 	C 	0.9018	0.1352	0.497	0.437
Mof_C 	C 	0.9666	0.1445	0.4241	-0.187
Mof_C 	C 	0.5514	0.4116	0.269	-0.183
Mof_C 	C 	0.9486	0.731	0.1426	-0.185
Mof_C 	C 	0.5982	0.503	0.6382	0.437
Mof_C 	C 	0.4018	0.6382	0.503	0.437
Mof_C 	C 	0.4666	0.7204	0.5759	-0.189
Mof_C 	C 	0.4486	0.269	0.4116	-0.183
Mof_C 	C 	0.8863	0.8893	0.5281	0.433
Mof_C 	C 	0.6137	0.8893	0.5281	0.433
Mof_C 	C 	0.4666	0.8555	0.2796	-0.188
Mof_C 	C 	0.8863	0.4719	0.3612	0.433
Mof_C 	C 	0.6137	0.4719	0.3612	0.433
Mof_C 	C 	0.4018	0.8648	0.3618	0.437
Mof_C 	C 	0.5982	0.1352	0.497	0.437
Mof_C 	C 	0.3863	0.5281	0.8893	0.433
Mof_O 	O 	0.65215	0.6047	0.0275	-0.433
Mof_O 	O 	0.37914	0.39511	0.56392	-0.592
Mof_O 	O 	0.59534	0.38428	0.79826	-0.528
Mof_O 	O 	0.8487	0.39891	0.93994	-0.421
Mof_O 	O 	0.84785	0.4228	0.3953	-0.433
Mof_O 	O 	0.62086	0.56392	0.39511	-0.592
Mof_O 	O 	0.6513	0.39891	0.93994	-0.421
Mof_O 	O 	0.34785	0.3953	0.4228	-0.433
Mof_O 	O 	0.6513	0.54103	0.60109	-0.421
Mof_O 	O 	0.90466	0.20174	0.58602	-0.528
Mof_O 	O 	0.97937	0.75949	0.52599	-0.316
Mof_O 	O 	0.87914	0.83119	0.43608	-0.593
Mof_O 	O 	0.02063	0.52599	0.75949	-0.316
Mof_O 	O 	0.8487	0.06006	0.45897	-0.421
Mof_O 	O 	0.34785	0.0275	0.6047	-0.433
Mof_O 	O 	0.52063	0.7665	0.24051	-0.316
Mof_O 	O 	0.65215	0.9725	0.5772	-0.433
Mof_O 	O 	0.90466	0.41398	0.61572	-0.528
Mof_O 	O 	0.15215	0.0275	0.6047	-0.434
Mof_O 	O 	0.47937	0.52599	0.75949	-0.316
Mof_O 	O 	0.87914	0.56392	0.39511	-0.592
Mof_O 	O 	0.52063	0.47401	0.2335	-0.316
Mof_O 	O 	0.59534	0.20174	0.58602	-0.528
Mof_O 	O 	0.65215	0.4228	0.3953	-0.433
Mof_O 	O 	0.25	0.33333	0.66666	-2.495
Mof_O 	O 	0.8487	0.54103	0.60109	-0.421
Mof_O 	O 	0.97937	0.7665	0.24051	-0.317
Mof_O 	O 	0.3487	0.60109	0.54103	-0.421
Mof_O 	O 	0.09534	0.58602	0.20174	-0.528
Mof_O 	O 	0.37914	0.16881	0.60489	-0.592
Mof_O 	O 	0.3487	0.93994	0.39891	-0.421
Mof_O 	O 	0.3487	0.45897	0.06006	-0.421
Mof_O 	O 	0.84785	0.9725	0.5772	-0.434
Mof_O 	O 	0.52063	0.75949	0.52599	-0.316
Mof_O 	O 	0.75	0.66667	0.33334	-2.495
Mof_O 	O 	0.47937	0.2335	0.47401	-0.316
Mof_O 	O 	0.40466	0.61572	0.41398	-0.528
Mof_O 	O 	0.90466	0.38428	0.79826	-0.528
Mof_O 	O 	0.15215	0.3953	0.4228	-0.433
Mof_O 	O 	0.37914	0.43608	0.83119	-0.592
Mof_O 	O 	0.40466	0.79826	0.38428	-0.528
Mof_O 	O 	0.02063	0.24051	0.7665	-0.317
Mof_O 	O 	0.62086	0.83119	0.43608	-0.592
Mof_O 	O 	0.87914	0.60489	0.16881	-0.593
Mof_O 	O 	0.6513	0.06006	0.45897	-0.421
Mof_O 	O 	0.47937	0.24051	0.7665	-0.316
Mof_O 	O 	0.09534	0.79826	0.38428	-0.528
Mof_O 	O 	0.12086	0.43608	0.83119	-0.593
Mof_O 	O 	0.12086	0.39511	0.56392	-0.592
Mof_O 	O 	0.34785	0.5772	0.9725	-0.433
Mof_O 	O 	0.59534	0.41398	0.61572	-0.528
Mof_O 	O 	0.15215	0.5772	0.9725	-0.434
Mof_O 	O 	0.09534	0.61572	0.41398	-0.528
Mof_O 	O 	0.02063	0.2335	0.47401	-0.316
Mof_O 	O 	0.97937	0.47401	0.2335	-0.316
Mof_O 	O 	0.1513	0.45897	0.06006	-0.421
Mof_O 	O 	0.62086	0.60489	0.16881	-0.592
Mof_O 	O 	0.1513	0.93994	0.39891	-0.421
Mof_O 	O 	0.12086	0.16881	0.60489	-0.593
Mof_O 	O 	0.40466	0.58602	0.20174	-0.528
Mof_O 	O 	0.1513	0.60109	0.54103	-0.421
Mof_O 	O 	0.84785	0.6047	0.0275	-0.434
_end
