data_functionalizedCrystal
_audit_creation_method	'EQeq! by Chris Wilmer'
_symmetry_space_group_name_H-M	'P1'
_symmetry_Int_Tables_number	1
_symmetry_cell_setting	triclinic
loop_
_symmetry_equiv_pos_as_xyz
  x,y,z
_cell_length_a	6.8604
_cell_length_b	9.9925
_cell_length_c	10.8841
_cell_angle_alpha	90
_cell_angle_beta	90
_cell_angle_gamma	90
loop_
_atom_site_label
_atom_site_type_symbol
_atom_site_fract_x
_atom_site_fract_y
_atom_site_fract_z
_atom_site_charge
Mof_Mg	Mg	0.85759	0.20318	0.28934	1.47
Mof_Mg	Mg	0.64241	0.79682	0.78934	1.47
Mof_Mg	Mg	0.14241	0.70318	0.21066	1.47
Mof_Mg	Mg	0.35759	0.29682	0.71066	1.469
Mof_H 	H 	0.56	0.892	0.311	0.143
Mof_H 	H 	0.674	0.921	0.428	0.13
Mof_H 	H 	0.532	0.085	0.513	0.122
Mof_H 	H 	0.371	0.125	0.417	0.153
Mof_H 	H 	0.94	0.108	0.811	0.142
Mof_H 	H 	0.826	0.079	0.928	0.128
Mof_H 	H 	0.968	0.915	0.013	0.116
Mof_H 	H 	0.129	0.875	0.917	0.147
Mof_H 	H 	0.44	0.392	0.189	0.143
Mof_H 	H 	0.326	0.421	0.072	0.13
Mof_H 	H 	0.468	0.585	0.987	0.12
Mof_H 	H 	0.629	0.625	0.083	0.151
Mof_H 	H 	0.06	0.608	0.689	0.142
Mof_H 	H 	0.174	0.579	0.572	0.129
Mof_H 	H 	0.032	0.415	0.487	0.122
Mof_H 	H 	0.871	0.375	0.583	0.152
Mof_C 	C 	0.852	0.91614	0.27633	0.457
Mof_C 	C 	0.5466	0.2807	0.45012	0.439
Mof_C 	C 	0.6622	0.9422	0.3439	-0.329
Mof_C 	C 	0.5022	0.1324	0.4344	-0.319
Mof_C 	C 	0.648	0.08386	0.77633	0.456
Mof_C 	C 	0.9534	0.7193	0.95012	0.436
Mof_C 	C 	0.8378	0.0578	0.8439	-0.329
Mof_C 	C 	0.9978	0.8676	0.9344	-0.305
Mof_C 	C 	0.148	0.41614	0.22367	0.458
Mof_C 	C 	0.4534	0.7807	0.04988	0.437
Mof_C 	C 	0.3378	0.4422	0.1561	-0.328
Mof_C 	C 	0.4978	0.6324	0.0656	-0.316
Mof_C 	C 	0.352	0.58386	0.72367	0.458
Mof_C 	C 	0.0466	0.2193	0.54988	0.441
Mof_C 	C 	0.1622	0.5578	0.6561	-0.327
Mof_C 	C 	0.0022	0.3676	0.5656	-0.318
Mof_O 	O 	0.6218	0.0821	0.3382	-0.244
Mof_O 	O 	0.8976	0.79405	0.26557	-0.536
Mof_O 	O 	0.4663	0.34167	0.53657	-0.481
Mof_O 	O 	0.662	0.3343	0.37449	-0.487
Mof_O 	O 	0.9481	0.01252	0.23739	-0.518
Mof_O 	O 	0.8782	0.9179	0.8382	-0.246
Mof_O 	O 	0.6024	0.20595	0.76557	-0.535
Mof_O 	O 	0.0337	0.65833	0.03657	-0.478
Mof_O 	O 	0.838	0.6657	0.87449	-0.486
Mof_O 	O 	0.5519	0.98748	0.73739	-0.517
Mof_O 	O 	0.3782	0.5821	0.1618	-0.245
Mof_O 	O 	0.1024	0.29405	0.23443	-0.534
Mof_O 	O 	0.5337	0.84167	0.96343	-0.479
Mof_O 	O 	0.338	0.8343	0.12551	-0.487
Mof_O 	O 	0.0519	0.51252	0.26261	-0.518
Mof_O 	O 	0.1218	0.4179	0.6618	-0.245
Mof_O 	O 	0.3976	0.70595	0.73443	-0.535
Mof_O 	O 	0.9663	0.15833	0.46343	-0.482
Mof_O 	O 	0.162	0.1657	0.62551	-0.488
Mof_O 	O 	0.4481	0.48748	0.76261	-0.519
_end
