data_functionalizedCrystal
_audit_creation_method	'EQeq! by Chris Wilmer'
_symmetry_space_group_name_H-M	'P1'
_symmetry_Int_Tables_number	1
_symmetry_cell_setting	triclinic
loop_
_symmetry_equiv_pos_as_xyz
  x,y,z
_cell_length_a	16.8048
_cell_length_b	16.8048
_cell_length_c	16.8048
_cell_angle_alpha	90
_cell_angle_beta	90
_cell_angle_gamma	90
loop_
_atom_site_label
_atom_site_type_symbol
_atom_site_fract_x
_atom_site_fract_y
_atom_site_fract_z
_atom_site_charge
Mof_N 	N 	0.3994	0.3285	0.5633	-0.29
Mof_N 	N 	0.1861	0.921	0.652	-0.281
Mof_C 	C 	0.4277	0.3936	0.5131	0.267
Mof_C 	C 	0.3615	0.4457	0.48	-0.469
Mof_C 	C 	0.2352	0.8558	0.6797	0.206
Mof_C 	C 	0.2693	0.8027	0.6124	-0.344
Mof_H 	H 	0.9689	0.368	0.7059	0.077
Mof_H 	H 	0.895	0.3661	0.6506	0.075
Mof_H 	H 	0.9534	0.4614	0.5721	-0.082
Mof_H 	H 	0.0856	0.4494	0.6713	0.177
Mof_H 	H 	0.0311	0.5237	0.6668	0.15
Mof_H 	H 	0.1002	0.8815	0.1467	0.077
Mof_H 	H 	0.0445	0.8795	0.2203	0.067
Mof_H 	H 	0.2134	0.7043	0.3239	-0.056
Mof_H 	H 	0.1971	0.835	0.4229	0.105
Mof_H 	H 	0.2726	0.782	0.4196	0.1
Mof_N 	N 	0.8994	0.8285	0.0633	-0.272
Mof_N 	N 	0.6861	0.421	0.152	-0.284
Mof_C 	C 	0.9277	0.8936	0.0131	0.166
Mof_C 	C 	0.8615	0.9457	0.98	-0.325
Mof_C 	C 	0.7352	0.3558	0.1797	0.2
Mof_C 	C 	0.7693	0.3027	0.1124	-0.34
Mof_H 	H 	0.4689	0.868	0.2059	0.071
Mof_H 	H 	0.395	0.8661	0.1506	0.072
Mof_H 	H 	0.4534	0.9614	0.0721	-0.062
Mof_H 	H 	0.5856	0.9494	0.1713	0.142
Mof_H 	H 	0.5311	0.0237	0.1668	0.107
Mof_H 	H 	0.6002	0.3815	0.6467	0.078
Mof_H 	H 	0.5445	0.3795	0.7203	0.069
Mof_H 	H 	0.7134	0.2043	0.8239	-0.057
Mof_H 	H 	0.6971	0.335	0.9229	0.109
Mof_H 	H 	0.7726	0.282	0.9196	0.107
Mof_N 	N 	0.1006	0.6715	0.0633	-0.286
Mof_N 	N 	0.3139	0.079	0.152	-0.28
Mof_C 	C 	0.0723	0.6064	0.0131	0.236
Mof_C 	C 	0.1385	0.5543	0.98	-0.404
Mof_C 	C 	0.2648	0.1442	0.1797	0.19
Mof_C 	C 	0.2307	0.1973	0.1124	-0.329
Mof_H 	H 	0.5311	0.632	0.2059	0.071
Mof_H 	H 	0.605	0.6339	0.1506	0.071
Mof_H 	H 	0.5466	0.5386	0.0721	-0.08
Mof_H 	H 	0.4144	0.5506	0.1713	0.172
Mof_H 	H 	0.4689	0.4763	0.1668	0.148
Mof_H 	H 	0.3998	0.1185	0.6467	0.076
Mof_H 	H 	0.4555	0.1205	0.7203	0.067
Mof_H 	H 	0.2866	0.2957	0.8239	-0.056
Mof_H 	H 	0.3029	0.165	0.9229	0.108
Mof_H 	H 	0.2274	0.218	0.9196	0.105
Mof_N 	N 	0.6006	0.1715	0.5633	-0.296
Mof_N 	N 	0.8139	0.579	0.652	-0.285
Mof_C 	C 	0.5723	0.1064	0.5131	0.297
Mof_C 	C 	0.6385	0.0543	0.48	-0.529
Mof_C 	C 	0.7648	0.6442	0.6797	0.2
Mof_C 	C 	0.7307	0.6973	0.6124	-0.34
Mof_H 	H 	0.0311	0.132	0.7059	0.067
Mof_H 	H 	0.105	0.1339	0.6506	0.07
Mof_H 	H 	0.0466	0.0386	0.5721	-0.068
Mof_H 	H 	0.9144	0.0506	0.6713	0.17
Mof_H 	H 	0.9689	0.9763	0.6668	0.159
Mof_H 	H 	0.8998	0.6185	0.1467	0.079
Mof_H 	H 	0.9555	0.6205	0.2203	0.073
Mof_H 	H 	0.7866	0.7957	0.3239	-0.057
Mof_H 	H 	0.8029	0.665	0.4229	0.106
Mof_H 	H 	0.7274	0.718	0.4196	0.1
Mof_N 	N 	0.6006	0.8285	0.9367	-0.295
Mof_N 	N 	0.8139	0.421	0.848	-0.286
Mof_C 	C 	0.5723	0.8936	0.9869	0.293
Mof_C 	C 	0.6385	0.9457	0.02	-0.497
Mof_C 	C 	0.7648	0.3558	0.8203	0.206
Mof_C 	C 	0.7307	0.3027	0.8876	-0.348
Mof_H 	H 	0.0311	0.868	0.7941	0.067
Mof_H 	H 	0.105	0.8661	0.8494	0.072
Mof_H 	H 	0.0466	0.9614	0.9279	-0.036
Mof_H 	H 	0.9144	0.9494	0.8287	0.119
Mof_H 	H 	0.9689	0.0237	0.8332	0.092
Mof_H 	H 	0.8998	0.3815	0.3533	0.081
Mof_H 	H 	0.9555	0.3795	0.2797	0.073
Mof_H 	H 	0.7866	0.2043	0.1761	-0.057
Mof_H 	H 	0.8029	0.335	0.0771	0.102
Mof_H 	H 	0.7274	0.282	0.0804	0.097
Mof_N 	N 	0.1006	0.3285	0.4367	-0.297
Mof_N 	N 	0.3139	0.921	0.348	-0.282
Mof_C 	C 	0.0723	0.3936	0.4869	0.308
Mof_C 	C 	0.1385	0.4457	0.52	-0.51
Mof_C 	C 	0.2648	0.8558	0.3203	0.204
Mof_C 	C 	0.2307	0.8027	0.3876	-0.343
Mof_H 	H 	0.5311	0.368	0.2941	0.07
Mof_H 	H 	0.605	0.3661	0.3494	0.071
Mof_H 	H 	0.5466	0.4614	0.4279	-0.069
Mof_H 	H 	0.4144	0.4494	0.3287	0.159
Mof_H 	H 	0.4689	0.5237	0.3332	0.136
Mof_H 	H 	0.3998	0.8815	0.8533	0.082
Mof_H 	H 	0.4555	0.8795	0.7797	0.071
Mof_H 	H 	0.2866	0.7043	0.6761	-0.057
Mof_H 	H 	0.3029	0.835	0.5771	0.106
Mof_H 	H 	0.2274	0.782	0.5804	0.1
Mof_N 	N 	0.8994	0.1715	0.4367	-0.285
Mof_N 	N 	0.6861	0.579	0.348	-0.285
Mof_C 	C 	0.9277	0.1064	0.4869	0.251
Mof_C 	C 	0.8615	0.0543	0.52	-0.482
Mof_C 	C 	0.7352	0.6442	0.3203	0.203
Mof_C 	C 	0.7693	0.6973	0.3876	-0.344
Mof_H 	H 	0.4689	0.132	0.2941	0.071
Mof_H 	H 	0.395	0.1339	0.3494	0.072
Mof_H 	H 	0.4534	0.0386	0.4279	-0.084
Mof_H 	H 	0.5856	0.0506	0.3287	0.189
Mof_H 	H 	0.5311	0.9763	0.3332	0.178
Mof_H 	H 	0.6002	0.6185	0.8533	0.08
Mof_H 	H 	0.5445	0.6205	0.7797	0.069
Mof_H 	H 	0.7134	0.7957	0.6761	-0.055
Mof_H 	H 	0.6971	0.665	0.5771	0.104
Mof_H 	H 	0.7726	0.718	0.5804	0.1
Mof_N 	N 	0.3994	0.6715	0.9367	-0.301
Mof_N 	N 	0.1861	0.079	0.848	-0.283
Mof_C 	C 	0.4277	0.6064	0.9869	0.332
Mof_C 	C 	0.3615	0.5543	0.02	-0.57
Mof_C 	C 	0.2352	0.1442	0.8203	0.202
Mof_C 	C 	0.2693	0.1973	0.8876	-0.346
Mof_H 	H 	0.9689	0.632	0.7941	0.076
Mof_H 	H 	0.895	0.6339	0.8494	0.075
Mof_H 	H 	0.9534	0.5386	0.9279	-0.071
Mof_H 	H 	0.0856	0.5506	0.8287	0.162
Mof_H 	H 	0.0311	0.4763	0.8332	0.136
Mof_H 	H 	0.1002	0.1185	0.3533	0.074
Mof_H 	H 	0.0445	0.1205	0.2797	0.062
Mof_H 	H 	0.2134	0.2957	0.1761	-0.053
Mof_H 	H 	0.1971	0.165	0.0771	0.096
Mof_H 	H 	0.2726	0.218	0.0804	0.093
Mof_N 	N 	0.5633	0.3994	0.3285	-0.291
Mof_N 	N 	0.652	0.1861	0.921	-0.282
Mof_C 	C 	0.5131	0.4277	0.3936	0.266
Mof_C 	C 	0.48	0.3615	0.4457	-0.47
Mof_C 	C 	0.6797	0.2352	0.8558	0.205
Mof_C 	C 	0.6124	0.2693	0.8027	-0.345
Mof_H 	H 	0.7059	0.9689	0.368	0.076
Mof_H 	H 	0.6506	0.895	0.3661	0.074
Mof_H 	H 	0.5721	0.9534	0.4614	-0.083
Mof_H 	H 	0.6713	0.0856	0.4494	0.177
Mof_H 	H 	0.6668	0.0311	0.5237	0.15
Mof_H 	H 	0.1467	0.1002	0.8815	0.077
Mof_H 	H 	0.2203	0.0445	0.8795	0.067
Mof_H 	H 	0.3239	0.2134	0.7043	-0.056
Mof_H 	H 	0.4229	0.1971	0.835	0.105
Mof_H 	H 	0.4196	0.2726	0.782	0.1
Mof_N 	N 	0.0633	0.8994	0.8285	-0.272
Mof_N 	N 	0.152	0.6861	0.421	-0.284
Mof_C 	C 	0.0131	0.9277	0.8936	0.166
Mof_C 	C 	0.98	0.8615	0.9457	-0.325
Mof_C 	C 	0.1797	0.7352	0.3558	0.2
Mof_C 	C 	0.1124	0.7693	0.3027	-0.34
Mof_H 	H 	0.2059	0.4689	0.868	0.071
Mof_H 	H 	0.1506	0.395	0.8661	0.072
Mof_H 	H 	0.0721	0.4534	0.9614	-0.062
Mof_H 	H 	0.1713	0.5856	0.9494	0.142
Mof_H 	H 	0.1668	0.5311	0.0237	0.107
Mof_H 	H 	0.6467	0.6002	0.3815	0.078
Mof_H 	H 	0.7203	0.5445	0.3795	0.069
Mof_H 	H 	0.8239	0.7134	0.2043	-0.057
Mof_H 	H 	0.9229	0.6971	0.335	0.109
Mof_H 	H 	0.9196	0.7726	0.282	0.107
Mof_N 	N 	0.0633	0.1006	0.6715	-0.286
Mof_N 	N 	0.152	0.3139	0.079	-0.28
Mof_C 	C 	0.0131	0.0723	0.6064	0.236
Mof_C 	C 	0.98	0.1385	0.5543	-0.404
Mof_C 	C 	0.1797	0.2648	0.1442	0.19
Mof_C 	C 	0.1124	0.2307	0.1973	-0.329
Mof_H 	H 	0.2059	0.5311	0.632	0.071
Mof_H 	H 	0.1506	0.605	0.6339	0.071
Mof_H 	H 	0.0721	0.5466	0.5386	-0.08
Mof_H 	H 	0.1713	0.4144	0.5506	0.172
Mof_H 	H 	0.1668	0.4689	0.4763	0.148
Mof_H 	H 	0.6467	0.3998	0.1185	0.076
Mof_H 	H 	0.7203	0.4555	0.1205	0.067
Mof_H 	H 	0.8239	0.2866	0.2957	-0.056
Mof_H 	H 	0.9229	0.3029	0.165	0.108
Mof_H 	H 	0.9196	0.2274	0.218	0.105
Mof_N 	N 	0.5633	0.6006	0.1715	-0.296
Mof_N 	N 	0.652	0.8139	0.579	-0.285
Mof_C 	C 	0.5131	0.5723	0.1064	0.297
Mof_C 	C 	0.48	0.6385	0.0543	-0.529
Mof_C 	C 	0.6797	0.7648	0.6442	0.2
Mof_C 	C 	0.6124	0.7307	0.6973	-0.34
Mof_H 	H 	0.7059	0.0311	0.132	0.067
Mof_H 	H 	0.6506	0.105	0.1339	0.07
Mof_H 	H 	0.5721	0.0466	0.0386	-0.068
Mof_H 	H 	0.6713	0.9144	0.0506	0.17
Mof_H 	H 	0.6668	0.9689	0.9763	0.159
Mof_H 	H 	0.1467	0.8998	0.6185	0.079
Mof_H 	H 	0.2203	0.9555	0.6205	0.073
Mof_H 	H 	0.3239	0.7866	0.7957	-0.057
Mof_H 	H 	0.4229	0.8029	0.665	0.106
Mof_H 	H 	0.4196	0.7274	0.718	0.1
Mof_N 	N 	0.9367	0.6006	0.8285	-0.295
Mof_N 	N 	0.848	0.8139	0.421	-0.286
Mof_C 	C 	0.9869	0.5723	0.8936	0.293
Mof_C 	C 	0.02	0.6385	0.9457	-0.497
Mof_C 	C 	0.8203	0.7648	0.3558	0.206
Mof_C 	C 	0.8876	0.7307	0.3027	-0.348
Mof_H 	H 	0.7941	0.0311	0.868	0.067
Mof_H 	H 	0.8494	0.105	0.8661	0.072
Mof_H 	H 	0.9279	0.0466	0.9614	-0.036
Mof_H 	H 	0.8287	0.9144	0.9494	0.119
Mof_H 	H 	0.8332	0.9689	0.0237	0.092
Mof_H 	H 	0.3533	0.8998	0.3815	0.081
Mof_H 	H 	0.2797	0.9555	0.3795	0.073
Mof_H 	H 	0.1761	0.7866	0.2043	-0.057
Mof_H 	H 	0.0771	0.8029	0.335	0.102
Mof_H 	H 	0.0804	0.7274	0.282	0.097
Mof_N 	N 	0.4367	0.1006	0.3285	-0.297
Mof_N 	N 	0.348	0.3139	0.921	-0.282
Mof_C 	C 	0.4869	0.0723	0.3936	0.308
Mof_C 	C 	0.52	0.1385	0.4457	-0.51
Mof_C 	C 	0.3203	0.2648	0.8558	0.204
Mof_C 	C 	0.3876	0.2307	0.8027	-0.343
Mof_H 	H 	0.2941	0.5311	0.368	0.07
Mof_H 	H 	0.3494	0.605	0.3661	0.071
Mof_H 	H 	0.4279	0.5466	0.4614	-0.069
Mof_H 	H 	0.3287	0.4144	0.4494	0.159
Mof_H 	H 	0.3332	0.4689	0.5237	0.136
Mof_H 	H 	0.8533	0.3998	0.8815	0.082
Mof_H 	H 	0.7797	0.4555	0.8795	0.071
Mof_H 	H 	0.6761	0.2866	0.7043	-0.057
Mof_H 	H 	0.5771	0.3029	0.835	0.106
Mof_H 	H 	0.5804	0.2274	0.782	0.1
Mof_N 	N 	0.4367	0.8994	0.1715	-0.285
Mof_N 	N 	0.348	0.6861	0.579	-0.285
Mof_C 	C 	0.4869	0.9277	0.1064	0.251
Mof_C 	C 	0.52	0.8615	0.0543	-0.482
Mof_C 	C 	0.3203	0.7352	0.6442	0.203
Mof_C 	C 	0.3876	0.7693	0.6973	-0.344
Mof_H 	H 	0.2941	0.4689	0.132	0.071
Mof_H 	H 	0.3494	0.395	0.1339	0.072
Mof_H 	H 	0.4279	0.4534	0.0386	-0.084
Mof_H 	H 	0.3287	0.5856	0.0506	0.189
Mof_H 	H 	0.3332	0.5311	0.9763	0.178
Mof_H 	H 	0.8533	0.6002	0.6185	0.08
Mof_H 	H 	0.7797	0.5445	0.6205	0.069
Mof_H 	H 	0.6761	0.7134	0.7957	-0.055
Mof_H 	H 	0.5771	0.6971	0.665	0.104
Mof_H 	H 	0.5804	0.7726	0.718	0.1
Mof_N 	N 	0.9367	0.3994	0.6715	-0.301
Mof_N 	N 	0.848	0.1861	0.079	-0.283
Mof_C 	C 	0.9869	0.4277	0.6064	0.332
Mof_C 	C 	0.02	0.3615	0.5543	-0.57
Mof_C 	C 	0.8203	0.2352	0.1442	0.202
Mof_C 	C 	0.8876	0.2693	0.1973	-0.346
Mof_H 	H 	0.7941	0.9689	0.632	0.076
Mof_H 	H 	0.8494	0.895	0.6339	0.075
Mof_H 	H 	0.9279	0.9534	0.5386	-0.071
Mof_H 	H 	0.8287	0.0856	0.5506	0.162
Mof_H 	H 	0.8332	0.0311	0.4763	0.136
Mof_H 	H 	0.3533	0.1002	0.1185	0.074
Mof_H 	H 	0.2797	0.0445	0.1205	0.062
Mof_H 	H 	0.1761	0.2134	0.2957	-0.053
Mof_H 	H 	0.0771	0.1971	0.165	0.096
Mof_H 	H 	0.0804	0.2726	0.218	0.093
Mof_N 	N 	0.3285	0.5633	0.3994	-0.291
Mof_N 	N 	0.921	0.652	0.1861	-0.282
Mof_C 	C 	0.3936	0.5131	0.4277	0.266
Mof_C 	C 	0.4457	0.48	0.3615	-0.47
Mof_C 	C 	0.8558	0.6797	0.2352	0.205
Mof_C 	C 	0.8027	0.6124	0.2693	-0.345
Mof_H 	H 	0.368	0.7059	0.9689	0.076
Mof_H 	H 	0.3661	0.6506	0.895	0.074
Mof_H 	H 	0.4614	0.5721	0.9534	-0.083
Mof_H 	H 	0.4494	0.6713	0.0856	0.177
Mof_H 	H 	0.5237	0.6668	0.0311	0.15
Mof_H 	H 	0.8815	0.1467	0.1002	0.077
Mof_H 	H 	0.8795	0.2203	0.0445	0.067
Mof_H 	H 	0.7043	0.3239	0.2134	-0.056
Mof_H 	H 	0.835	0.4229	0.1971	0.105
Mof_H 	H 	0.782	0.4196	0.2726	0.1
Mof_N 	N 	0.8285	0.0633	0.8994	-0.272
Mof_N 	N 	0.421	0.152	0.6861	-0.284
Mof_C 	C 	0.8936	0.0131	0.9277	0.166
Mof_C 	C 	0.9457	0.98	0.8615	-0.325
Mof_C 	C 	0.3558	0.1797	0.7352	0.2
Mof_C 	C 	0.3027	0.1124	0.7693	-0.34
Mof_H 	H 	0.868	0.2059	0.4689	0.071
Mof_H 	H 	0.8661	0.1506	0.395	0.072
Mof_H 	H 	0.9614	0.0721	0.4534	-0.062
Mof_H 	H 	0.9494	0.1713	0.5856	0.142
Mof_H 	H 	0.0237	0.1668	0.5311	0.107
Mof_H 	H 	0.3815	0.6467	0.6002	0.078
Mof_H 	H 	0.3795	0.7203	0.5445	0.069
Mof_H 	H 	0.2043	0.8239	0.7134	-0.057
Mof_H 	H 	0.335	0.9229	0.6971	0.109
Mof_H 	H 	0.282	0.9196	0.7726	0.107
Mof_N 	N 	0.6715	0.0633	0.1006	-0.286
Mof_N 	N 	0.079	0.152	0.3139	-0.28
Mof_C 	C 	0.6064	0.0131	0.0723	0.236
Mof_C 	C 	0.5543	0.98	0.1385	-0.404
Mof_C 	C 	0.1442	0.1797	0.2648	0.19
Mof_C 	C 	0.1973	0.1124	0.2307	-0.329
Mof_H 	H 	0.632	0.2059	0.5311	0.071
Mof_H 	H 	0.6339	0.1506	0.605	0.071
Mof_H 	H 	0.5386	0.0721	0.5466	-0.08
Mof_H 	H 	0.5506	0.1713	0.4144	0.172
Mof_H 	H 	0.4763	0.1668	0.4689	0.148
Mof_H 	H 	0.1185	0.6467	0.3998	0.076
Mof_H 	H 	0.1205	0.7203	0.4555	0.067
Mof_H 	H 	0.2957	0.8239	0.2866	-0.056
Mof_H 	H 	0.165	0.9229	0.3029	0.108
Mof_H 	H 	0.218	0.9196	0.2274	0.105
Mof_N 	N 	0.1715	0.5633	0.6006	-0.296
Mof_N 	N 	0.579	0.652	0.8139	-0.285
Mof_C 	C 	0.1064	0.5131	0.5723	0.297
Mof_C 	C 	0.0543	0.48	0.6385	-0.529
Mof_C 	C 	0.6442	0.6797	0.7648	0.2
Mof_C 	C 	0.6973	0.6124	0.7307	-0.34
Mof_H 	H 	0.132	0.7059	0.0311	0.067
Mof_H 	H 	0.1339	0.6506	0.105	0.07
Mof_H 	H 	0.0386	0.5721	0.0466	-0.068
Mof_H 	H 	0.0506	0.6713	0.9144	0.17
Mof_H 	H 	0.9763	0.6668	0.9689	0.159
Mof_H 	H 	0.6185	0.1467	0.8998	0.079
Mof_H 	H 	0.6205	0.2203	0.9555	0.073
Mof_H 	H 	0.7957	0.3239	0.7866	-0.057
Mof_H 	H 	0.665	0.4229	0.8029	0.106
Mof_H 	H 	0.718	0.4196	0.7274	0.1
Mof_N 	N 	0.8285	0.9367	0.6006	-0.295
Mof_N 	N 	0.421	0.848	0.8139	-0.286
Mof_C 	C 	0.8936	0.9869	0.5723	0.293
Mof_C 	C 	0.9457	0.02	0.6385	-0.497
Mof_C 	C 	0.3558	0.8203	0.7648	0.206
Mof_C 	C 	0.3027	0.8876	0.7307	-0.348
Mof_H 	H 	0.868	0.7941	0.0311	0.067
Mof_H 	H 	0.8661	0.8494	0.105	0.072
Mof_H 	H 	0.9614	0.9279	0.0466	-0.036
Mof_H 	H 	0.9494	0.8287	0.9144	0.119
Mof_H 	H 	0.0237	0.8332	0.9689	0.092
Mof_H 	H 	0.3815	0.3533	0.8998	0.081
Mof_H 	H 	0.3795	0.2797	0.9555	0.073
Mof_H 	H 	0.2043	0.1761	0.7866	-0.057
Mof_H 	H 	0.335	0.0771	0.8029	0.102
Mof_H 	H 	0.282	0.0804	0.7274	0.097
Mof_N 	N 	0.3285	0.4367	0.1006	-0.297
Mof_N 	N 	0.921	0.348	0.3139	-0.282
Mof_C 	C 	0.3936	0.4869	0.0723	0.308
Mof_C 	C 	0.4457	0.52	0.1385	-0.51
Mof_C 	C 	0.8558	0.3203	0.2648	0.204
Mof_C 	C 	0.8027	0.3876	0.2307	-0.343
Mof_H 	H 	0.368	0.2941	0.5311	0.07
Mof_H 	H 	0.3661	0.3494	0.605	0.071
Mof_H 	H 	0.4614	0.4279	0.5466	-0.069
Mof_H 	H 	0.4494	0.3287	0.4144	0.159
Mof_H 	H 	0.5237	0.3332	0.4689	0.136
Mof_H 	H 	0.8815	0.8533	0.3998	0.082
Mof_H 	H 	0.8795	0.7797	0.4555	0.071
Mof_H 	H 	0.7043	0.6761	0.2866	-0.057
Mof_H 	H 	0.835	0.5771	0.3029	0.106
Mof_H 	H 	0.782	0.5804	0.2274	0.1
Mof_N 	N 	0.1715	0.4367	0.8994	-0.285
Mof_N 	N 	0.579	0.348	0.6861	-0.285
Mof_C 	C 	0.1064	0.4869	0.9277	0.251
Mof_C 	C 	0.0543	0.52	0.8615	-0.482
Mof_C 	C 	0.6442	0.3203	0.7352	0.203
Mof_C 	C 	0.6973	0.3876	0.7693	-0.344
Mof_H 	H 	0.132	0.2941	0.4689	0.071
Mof_H 	H 	0.1339	0.3494	0.395	0.072
Mof_H 	H 	0.0386	0.4279	0.4534	-0.084
Mof_H 	H 	0.0506	0.3287	0.5856	0.189
Mof_H 	H 	0.9763	0.3332	0.5311	0.178
Mof_H 	H 	0.6185	0.8533	0.6002	0.08
Mof_H 	H 	0.6205	0.7797	0.5445	0.069
Mof_H 	H 	0.7957	0.6761	0.7134	-0.055
Mof_H 	H 	0.665	0.5771	0.6971	0.104
Mof_H 	H 	0.718	0.5804	0.7726	0.1
Mof_N 	N 	0.6715	0.9367	0.3994	-0.301
Mof_N 	N 	0.079	0.848	0.1861	-0.283
Mof_C 	C 	0.6064	0.9869	0.4277	0.332
Mof_C 	C 	0.5543	0.02	0.3615	-0.57
Mof_C 	C 	0.1442	0.8203	0.2352	0.202
Mof_C 	C 	0.1973	0.8876	0.2693	-0.346
Mof_H 	H 	0.632	0.7941	0.9689	0.076
Mof_H 	H 	0.6339	0.8494	0.895	0.075
Mof_H 	H 	0.5386	0.9279	0.9534	-0.071
Mof_H 	H 	0.5506	0.8287	0.0856	0.162
Mof_H 	H 	0.4763	0.8332	0.0311	0.136
Mof_H 	H 	0.1185	0.3533	0.1002	0.074
Mof_H 	H 	0.1205	0.2797	0.0445	0.062
Mof_H 	H 	0.2957	0.1761	0.2134	-0.053
Mof_H 	H 	0.165	0.0771	0.1971	0.096
Mof_H 	H 	0.218	0.0804	0.2726	0.093
Mof_Ag	Ag	0.25	0.6249	0.5	0.509
Mof_Ag	Ag	0.25	0.3751	-0	0.484
Mof_Ag	Ag	0.75	0.8751	0.5	0.517
Mof_Ag	Ag	0.75	0.1249	-0	0.483
Mof_Ag	Ag	0.5	0.25	0.6249	0.509
Mof_Ag	Ag	6.72565e-33	0.25	0.3751	0.484
Mof_Ag	Ag	0.5	0.75	0.8751	0.517
Mof_Ag	Ag	1.37664e-32	0.75	0.1249	0.483
Mof_Ag	Ag	0.6249	0.5	0.25	0.509
Mof_Ag	Ag	0.3751	0	0.25	0.484
Mof_Ag	Ag	0.8751	0.5	0.75	0.517
Mof_Ag	Ag	0.1249	5.31925e-33	0.75	0.483
_end
