data_functionalizedCrystal
_audit_creation_method	'EQeq! by Chris Wilmer'
_symmetry_space_group_name_H-M	'P1'
_symmetry_Int_Tables_number	1
_symmetry_cell_setting	triclinic
loop_
_symmetry_equiv_pos_as_xyz
  x,y,z
_cell_length_a	15.212
_cell_length_b	15.212
_cell_length_c	15.451
_cell_angle_alpha	90
_cell_angle_beta	90
_cell_angle_gamma	120
loop_
_atom_site_label
_atom_site_type_symbol
_atom_site_fract_x
_atom_site_fract_y
_atom_site_fract_z
_atom_site_charge
Mof_Gd	Gd	0.66667	0.33334	0.75	1.737
Mof_Gd	Gd	0.33333	0.66666	0.75	1.737
Mof_Gd	Gd	0.33333	0.66666	0.25	1.72
Mof_Gd	Gd	0.66667	0.33334	0.25	1.72
Mof_Co	Co	0.5	0.5	-0	1.097
Mof_Co	Co	-0	0.5	-0	1.061
Mof_Co	Co	0.5	0	-0	1.061
Mof_Co	Co	1.12368e-17	0.5	0.5	1.127
Mof_Co	Co	0.5	0.5	0.5	1.164
Mof_Co	Co	0.5	0	0.5	1.127
Mof_H 	H 	0.767	0.7139	0.8452	0.083
Mof_H 	H 	0.9469	0.233	0.8452	0.09
Mof_H 	H 	0.2861	0.0531	0.8452	0.051
Mof_H 	H 	0.233	0.2861	0.8452	0.067
Mof_H 	H 	0.0531	0.767	0.8452	0.059
Mof_H 	H 	0.7139	0.9469	0.8452	0.098
Mof_H 	H 	0.0531	0.2861	0.6548	0.03
Mof_H 	H 	0.7139	0.767	0.6548	0.062
Mof_H 	H 	0.233	0.9469	0.6548	0.07
Mof_H 	H 	0.9469	0.7139	0.6548	0.078
Mof_H 	H 	0.2861	0.233	0.6548	0.045
Mof_H 	H 	0.767	0.0531	0.6548	0.038
Mof_H 	H 	0.233	0.2861	0.1548	0.023
Mof_H 	H 	0.0531	0.767	0.1548	0.017
Mof_H 	H 	0.7139	0.9469	0.1548	0.057
Mof_H 	H 	0.767	0.7139	0.1548	0.04
Mof_H 	H 	0.9469	0.233	0.1548	0.049
Mof_H 	H 	0.2861	0.0531	0.1548	0.008
Mof_H 	H 	0.9469	0.7139	0.3452	0.075
Mof_H 	H 	0.2861	0.233	0.3452	0.042
Mof_H 	H 	0.767	0.0531	0.3452	0.035
Mof_H 	H 	0.0531	0.2861	0.3452	0.027
Mof_H 	H 	0.7139	0.767	0.3452	0.059
Mof_H 	H 	0.233	0.9469	0.3452	0.067
Mof_H 	H 	0.901	0.802	0.75	0.066
Mof_H 	H 	0.901	0.099	0.75	0.04
Mof_H 	H 	0.198	0.099	0.75	0.014
Mof_H 	H 	0.099	0.198	0.75	0.014
Mof_H 	H 	0.099	0.901	0.75	0.04
Mof_H 	H 	0.802	0.901	0.75	0.066
Mof_H 	H 	0.099	0.198	0.25	0.008
Mof_H 	H 	0.099	0.901	0.25	0.035
Mof_H 	H 	0.802	0.901	0.25	0.061
Mof_H 	H 	0.901	0.802	0.25	0.061
Mof_H 	H 	0.901	0.099	0.25	0.034
Mof_H 	H 	0.198	0.099	0.25	0.008
Mof_C 	C 	0.6455	0.5089	0.8611	0.353
Mof_C 	C 	0.7347	0.574	0.804	-0.003
Mof_C 	C 	0.7859	0.6794	0.8065	-0.032
Mof_C 	C 	0.8634	0.3545	0.8611	0.348
Mof_C 	C 	0.8393	0.2653	0.804	-0
Mof_C 	C 	0.8935	0.2141	0.8065	-0.038
Mof_C 	C 	0.4911	0.1366	0.8611	0.353
Mof_C 	C 	0.426	0.1607	0.804	-0.02
Mof_C 	C 	0.3206	0.1065	0.8065	-0.044
Mof_C 	C 	0.3545	0.4911	0.8611	0.351
Mof_C 	C 	0.2653	0.426	0.804	-0.013
Mof_C 	C 	0.2141	0.3206	0.8065	-0.043
Mof_C 	C 	0.1366	0.6455	0.8611	0.354
Mof_C 	C 	0.1607	0.7347	0.804	-0.015
Mof_C 	C 	0.1065	0.7859	0.8065	-0.039
Mof_C 	C 	0.5089	0.8634	0.8611	0.349
Mof_C 	C 	0.574	0.8393	0.804	0.005
Mof_C 	C 	0.6794	0.8935	0.8065	-0.032
Mof_C 	C 	0.1366	0.4911	0.6389	0.359
Mof_C 	C 	0.1607	0.426	0.696	-0.035
Mof_C 	C 	0.1065	0.3206	0.6935	-0.042
Mof_C 	C 	0.5089	0.6455	0.6389	0.36
Mof_C 	C 	0.574	0.7347	0.696	-0.017
Mof_C 	C 	0.6794	0.7859	0.6935	-0.031
Mof_C 	C 	0.3545	0.8634	0.6389	0.354
Mof_C 	C 	0.2653	0.8393	0.696	-0.015
Mof_C 	C 	0.2141	0.8935	0.6935	-0.037
Mof_C 	C 	0.8634	0.5089	0.6389	0.355
Mof_C 	C 	0.8393	0.574	0.696	-0.009
Mof_C 	C 	0.8935	0.6794	0.6935	-0.031
Mof_C 	C 	0.4911	0.3545	0.6389	0.358
Mof_C 	C 	0.426	0.2653	0.696	-0.028
Mof_C 	C 	0.3206	0.2141	0.6935	-0.042
Mof_C 	C 	0.6455	0.1366	0.6389	0.36
Mof_C 	C 	0.7347	0.1607	0.696	-0.029
Mof_C 	C 	0.7859	0.1065	0.6935	-0.037
Mof_C 	C 	0.3545	0.4911	0.1389	0.359
Mof_C 	C 	0.2653	0.426	0.196	-0.047
Mof_C 	C 	0.2141	0.3206	0.1935	-0.033
Mof_C 	C 	0.1366	0.6455	0.1389	0.362
Mof_C 	C 	0.1607	0.7347	0.196	-0.048
Mof_C 	C 	0.1065	0.7859	0.1935	-0.029
Mof_C 	C 	0.5089	0.8634	0.1389	0.356
Mof_C 	C 	0.574	0.8393	0.196	-0.028
Mof_C 	C 	0.6794	0.8935	0.1935	-0.022
Mof_C 	C 	0.6455	0.5089	0.1389	0.361
Mof_C 	C 	0.7347	0.574	0.196	-0.036
Mof_C 	C 	0.7859	0.6794	0.1935	-0.022
Mof_C 	C 	0.8634	0.3545	0.1389	0.355
Mof_C 	C 	0.8393	0.2653	0.196	-0.033
Mof_C 	C 	0.8935	0.2141	0.1935	-0.028
Mof_C 	C 	0.4911	0.1366	0.1389	0.36
Mof_C 	C 	0.426	0.1607	0.196	-0.054
Mof_C 	C 	0.3206	0.1065	0.1935	-0.034
Mof_C 	C 	0.8634	0.5089	0.3611	0.356
Mof_C 	C 	0.8393	0.574	0.304	-0.016
Mof_C 	C 	0.8935	0.6794	0.3065	-0.022
Mof_C 	C 	0.4911	0.3545	0.3611	0.359
Mof_C 	C 	0.426	0.2653	0.304	-0.036
Mof_C 	C 	0.3206	0.2141	0.3065	-0.034
Mof_C 	C 	0.6455	0.1366	0.3611	0.361
Mof_C 	C 	0.7347	0.1607	0.304	-0.036
Mof_C 	C 	0.7859	0.1065	0.3065	-0.029
Mof_C 	C 	0.1366	0.4911	0.3611	0.36
Mof_C 	C 	0.1607	0.426	0.304	-0.042
Mof_C 	C 	0.1065	0.3206	0.3065	-0.035
Mof_C 	C 	0.5089	0.6455	0.3611	0.361
Mof_C 	C 	0.574	0.7347	0.304	-0.024
Mof_C 	C 	0.6794	0.7859	0.3065	-0.023
Mof_C 	C 	0.3545	0.8634	0.3611	0.355
Mof_C 	C 	0.2653	0.8393	0.304	-0.022
Mof_C 	C 	0.2141	0.8935	0.3065	-0.028
Mof_C 	C 	0.8657	0.7314	0.75	-0.015
Mof_C 	C 	0.8657	0.1343	0.75	-0.025
Mof_C 	C 	0.2686	0.1343	0.75	-0.035
Mof_C 	C 	0.1343	0.2686	0.75	-0.035
Mof_C 	C 	0.1343	0.8657	0.75	-0.024
Mof_C 	C 	0.7314	0.8657	0.75	-0.015
Mof_C 	C 	0.1343	0.2686	0.25	-0.057
Mof_C 	C 	0.1343	0.8657	0.25	-0.046
Mof_C 	C 	0.7314	0.8657	0.25	-0.036
Mof_C 	C 	0.8657	0.7314	0.25	-0.036
Mof_C 	C 	0.8657	0.1343	0.25	-0.046
Mof_C 	C 	0.2686	0.1343	0.25	-0.057
Mof_N 	N 	0.76128	0.52256	0.75	-0.178
Mof_N 	N 	0.76128	0.23872	0.75	-0.178
Mof_N 	N 	0.47744	0.23872	0.75	-0.179
Mof_N 	N 	0.23872	0.47744	0.75	-0.179
Mof_N 	N 	0.23872	0.76128	0.75	-0.178
Mof_N 	N 	0.52256	0.76128	0.75	-0.178
Mof_N 	N 	0.23872	0.47744	0.25	-0.174
Mof_N 	N 	0.23872	0.76128	0.25	-0.174
Mof_N 	N 	0.52256	0.76128	0.25	-0.174
Mof_N 	N 	0.76128	0.52256	0.25	-0.174
Mof_N 	N 	0.76128	0.23872	0.25	-0.174
Mof_N 	N 	0.47744	0.23872	0.25	-0.174
Mof_O 	O 	0.61152	0.41384	0.85706	-0.389
Mof_O 	O 	0.6135	0.5533	0.90718	-0.355
Mof_O 	O 	0.80232	0.38848	0.85706	-0.379
Mof_O 	O 	0.9398	0.3865	0.90718	-0.322
Mof_O 	O 	0.58616	0.19768	0.85706	-0.4
Mof_O 	O 	0.4467	0.0602	0.90718	-0.385
Mof_O 	O 	0.38848	0.58616	0.85706	-0.391
Mof_O 	O 	0.3865	0.4467	0.90718	-0.361
Mof_O 	O 	0.19768	0.61152	0.85706	-0.399
Mof_O 	O 	0.0602	0.6135	0.90718	-0.383
Mof_O 	O 	0.41384	0.80232	0.85706	-0.378
Mof_O 	O 	0.5533	0.9398	0.90718	-0.319
Mof_O 	O 	0.19768	0.58616	0.64294	-0.431
Mof_O 	O 	0.0602	0.4467	0.59282	-0.45
Mof_O 	O 	0.41384	0.61152	0.64294	-0.421
Mof_O 	O 	0.5533	0.6135	0.59282	-0.42
Mof_O 	O 	0.38848	0.80232	0.64294	-0.409
Mof_O 	O 	0.3865	0.9398	0.59282	-0.385
Mof_O 	O 	0.80232	0.41384	0.64294	-0.409
Mof_O 	O 	0.9398	0.5533	0.59282	-0.381
Mof_O 	O 	0.58616	0.38848	0.64294	-0.422
Mof_O 	O 	0.4467	0.3865	0.59282	-0.426
Mof_O 	O 	0.61152	0.19768	0.64294	-0.43
Mof_O 	O 	0.6135	0.0602	0.59282	-0.447
Mof_O 	O 	0.38848	0.58616	0.14294	-0.444
Mof_O 	O 	0.3865	0.4467	0.09282	-0.464
Mof_O 	O 	0.19768	0.61152	0.14294	-0.452
Mof_O 	O 	0.0602	0.6135	0.09282	-0.485
Mof_O 	O 	0.41384	0.80232	0.14294	-0.43
Mof_O 	O 	0.5533	0.9398	0.09282	-0.418
Mof_O 	O 	0.61152	0.41384	0.14294	-0.442
Mof_O 	O 	0.6135	0.5533	0.09282	-0.458
Mof_O 	O 	0.80232	0.38848	0.14294	-0.431
Mof_O 	O 	0.9398	0.3865	0.09282	-0.421
Mof_O 	O 	0.58616	0.19768	0.14294	-0.453
Mof_O 	O 	0.4467	0.0602	0.09282	-0.488
Mof_O 	O 	0.80232	0.41384	0.35706	-0.407
Mof_O 	O 	0.9398	0.5533	0.40718	-0.381
Mof_O 	O 	0.58616	0.38848	0.35706	-0.421
Mof_O 	O 	0.4467	0.3865	0.40718	-0.426
Mof_O 	O 	0.61152	0.19768	0.35706	-0.428
Mof_O 	O 	0.6135	0.0602	0.40718	-0.447
Mof_O 	O 	0.19768	0.58616	0.35706	-0.429
Mof_O 	O 	0.0602	0.4467	0.40718	-0.451
Mof_O 	O 	0.41384	0.61152	0.35706	-0.419
Mof_O 	O 	0.5533	0.6135	0.40718	-0.42
Mof_O 	O 	0.38848	0.80232	0.35706	-0.407
Mof_O 	O 	0.3865	0.9398	0.40718	-0.384
_end
