data_functionalizedCrystal
_audit_creation_method	'EQeq! by Chris Wilmer'
_symmetry_space_group_name_H-M	'P1'
_symmetry_Int_Tables_number	1
_symmetry_cell_setting	triclinic
loop_
_symmetry_equiv_pos_as_xyz
  x,y,z
_cell_length_a	10.738
_cell_length_b	10.7619
_cell_length_c	18.547
_cell_angle_alpha	105.928
_cell_angle_beta	90
_cell_angle_gamma	119.927
loop_
_atom_site_label
_atom_site_type_symbol
_atom_site_fract_x
_atom_site_fract_y
_atom_site_fract_z
_atom_site_charge
Mof_Er	Er	0.07696	0.00278	0.8972	2.013
Mof_Er	Er	0.07418	0.99722	0.60281	2.024
Mof_Er	Er	0.92304	0.99722	0.10281	2.013
Mof_Er	Er	0.92582	0.00278	0.3972	2.024
Mof_H 	H 	0.3575	0.3856	0.2189	0.049
Mof_H 	H 	0.5766	0.6108	0.2736	0.034
Mof_H 	H 	0.4868	0.3612	0.0166	0.031
Mof_H 	H 	0.6995	0.5894	0.0686	0.018
Mof_H 	H 	0.9658	0.663	0.097	0.045
Mof_H 	H 	0.0657	0.558	0.8896	0.039
Mof_H 	H 	0.9719	0.6144	0.2811	0.037
Mof_H 	H 	0.9658	0.3892	0.2264	0.04
Mof_H 	H 	0.1256	0.6388	0.4834	0.025
Mof_H 	H 	0.1101	0.4106	0.4314	0.023
Mof_H 	H 	0.3028	0.337	0.403	0.046
Mof_H 	H 	0.5077	0.442	0.6104	0.04
Mof_H 	H 	0.6425	0.6144	0.7811	0.048
Mof_H 	H 	0.4234	0.3892	0.7264	0.033
Mof_H 	H 	0.5132	0.6388	0.9834	0.031
Mof_H 	H 	0.3005	0.4106	0.9314	0.018
Mof_H 	H 	0.0342	0.337	0.903	0.045
Mof_H 	H 	0.9343	0.442	0.1104	0.039
Mof_H 	H 	0.0281	0.3856	0.7189	0.037
Mof_H 	H 	0.0342	0.6108	0.7736	0.04
Mof_H 	H 	0.8744	0.3612	0.5166	0.025
Mof_H 	H 	0.8899	0.5894	0.5686	0.023
Mof_H 	H 	0.6972	0.663	0.597	0.046
Mof_H 	H 	0.4923	0.558	0.3896	0.04
Mof_C 	C 	0.4271	0.4266	0.189	-0.019
Mof_C 	C 	0.5572	0.5624	0.2214	0.01
Mof_C 	C 	0.039	0.7762	0.9825	0.479
Mof_C 	C 	0.5037	0.4128	0.0682	-0.012
Mof_C 	C 	0.6578	0.6256	0.1762	-0.16
Mof_C 	C 	0.6312	0.5488	0.0991	0.007
Mof_C 	C 	0.9799	0.5978	0.058	-0.013
Mof_C 	C 	0.4018	0.352	0.1115	-0.123
Mof_C 	C 	0.0396	0.535	0.9342	-0.006
Mof_C 	C 	0.7954	0.7774	0.2105	0.518
Mof_C 	C 	0.2583	0.2072	0.0758	0.502
Mof_C 	C 	0.0208	0.6338	0.9921	-0.126
Mof_C 	C 	0.0005	0.5734	0.311	0.005
Mof_C 	C 	0.9948	0.4376	0.2786	-0.013
Mof_C 	C 	0.2628	0.2238	0.5175	0.487
Mof_C 	C 	0.0909	0.5872	0.4318	0.001
Mof_C 	C 	0.0322	0.3744	0.3238	-0.146
Mof_C 	C 	0.0824	0.4512	0.4009	-0.006
Mof_C 	C 	0.3821	0.4022	0.442	-0.01
Mof_C 	C 	0.0498	0.648	0.3885	-0.138
Mof_C 	C 	0.5046	0.465	0.5658	-0.005
Mof_C 	C 	0.018	0.2226	0.2895	0.518
Mof_C 	C 	0.0511	0.7928	0.4242	0.508
Mof_C 	C 	0.387	0.3662	0.5079	-0.126
Mof_C 	C 	0.5729	0.5734	0.811	-0.019
Mof_C 	C 	0.4428	0.4376	0.7786	0.01
Mof_C 	C 	0.961	0.2238	0.0175	0.479
Mof_C 	C 	0.4963	0.5872	0.9318	-0.012
Mof_C 	C 	0.3422	0.3744	0.8238	-0.16
Mof_C 	C 	0.3688	0.4512	0.9009	0.007
Mof_C 	C 	0.0201	0.4022	0.942	-0.013
Mof_C 	C 	0.5982	0.648	0.8885	-0.123
Mof_C 	C 	0.9604	0.465	0.0658	-0.006
Mof_C 	C 	0.2046	0.2226	0.7895	0.518
Mof_C 	C 	0.7417	0.7928	0.9242	0.502
Mof_C 	C 	0.9792	0.3662	0.0079	-0.126
Mof_C 	C 	0.9995	0.4266	0.689	0.005
Mof_C 	C 	0.0052	0.5624	0.7214	-0.013
Mof_C 	C 	0.7372	0.7762	0.4825	0.487
Mof_C 	C 	0.9091	0.4128	0.5682	0.001
Mof_C 	C 	0.9678	0.6256	0.6762	-0.146
Mof_C 	C 	0.9176	0.5488	0.5991	-0.006
Mof_C 	C 	0.6179	0.5978	0.558	-0.01
Mof_C 	C 	0.9502	0.352	0.6115	-0.138
Mof_C 	C 	0.4954	0.535	0.4342	-0.005
Mof_C 	C 	0.982	0.7774	0.7105	0.518
Mof_C 	C 	0.9489	0.2072	0.5758	0.508
Mof_C 	C 	0.613	0.6338	0.4921	-0.126
Mof_O 	O 	0.2446	0.146	0.006	-0.556
Mof_O 	O 	0.0885	0.8106	0.925	-0.515
Mof_O 	O 	0.0019	0.8506	0.0305	-0.557
Mof_O 	O 	0.8161	0.837	0.2807	-0.561
Mof_O 	O 	0.167	0.1594	0.1174	-0.529
Mof_O 	O 	0.8772	0.8326	0.1661	-0.568
Mof_O 	O 	0.0986	0.854	0.494	-0.564
Mof_O 	O 	0.2779	0.1894	0.575	-0.516
Mof_O 	O 	0.1513	0.1494	0.4695	-0.563
Mof_O 	O 	0.9791	0.163	0.2193	-0.563
Mof_O 	O 	0.0076	0.8406	0.3826	-0.536
Mof_O 	O 	0.0446	0.1674	0.3339	-0.567
Mof_O 	O 	0.7554	0.854	0.994	-0.556
Mof_O 	O 	0.9115	0.1894	0.075	-0.515
Mof_O 	O 	0.9981	0.1494	0.9695	-0.557
Mof_O 	O 	0.1839	0.163	0.7193	-0.561
Mof_O 	O 	0.833	0.8406	0.8826	-0.529
Mof_O 	O 	0.1228	0.1674	0.8339	-0.568
Mof_O 	O 	0.9014	0.146	0.506	-0.564
Mof_O 	O 	0.7221	0.8106	0.425	-0.516
Mof_O 	O 	0.8487	0.8506	0.5305	-0.563
Mof_O 	O 	0.0209	0.837	0.7807	-0.563
Mof_O 	O 	0.9924	0.1594	0.6174	-0.536
Mof_O 	O 	0.9554	0.8326	0.6661	-0.567
_end
