data_functionalizedCrystal
_audit_creation_method	'EQeq! by Chris Wilmer'
_symmetry_space_group_name_H-M	'P1'
_symmetry_Int_Tables_number	1
_symmetry_cell_setting	triclinic
loop_
_symmetry_equiv_pos_as_xyz
  x,y,z
_cell_length_a	14.011
_cell_length_b	18.822
_cell_length_c	23.421
_cell_angle_alpha	90
_cell_angle_beta	90
_cell_angle_gamma	90
loop_
_atom_site_label
_atom_site_type_symbol
_atom_site_fract_x
_atom_site_fract_y
_atom_site_fract_z
_atom_site_charge
Mof_Dy	Dy	0.25897	0.89156	0.91948	2.159
Mof_Dy	Dy	0.25546	0.08996	0.89634	2.134
Mof_Dy	Dy	0.4028	0.01498	0.01399	2.226
Mof_Dy	Dy	0.12851	0.00639	0.02324	2.163
Mof_Dy	Dy	0.24103	0.10844	0.41948	2.162
Mof_Dy	Dy	0.24454	0.91004	0.39634	2.124
Mof_Dy	Dy	0.0972	0.98502	0.51399	2.229
Mof_Dy	Dy	0.37149	0.99361	0.52324	2.163
Mof_Dy	Dy	0.74103	0.39156	0.58052	2.161
Mof_Dy	Dy	0.74454	0.58996	0.60366	2.125
Mof_Dy	Dy	0.5972	0.51498	0.48601	2.232
Mof_Dy	Dy	0.87149	0.50639	0.47676	2.165
Mof_Dy	Dy	0.75897	0.60844	0.08052	2.165
Mof_Dy	Dy	0.75546	0.41004	0.10366	2.126
Mof_Dy	Dy	0.9028	0.48502	0.98601	2.225
Mof_Dy	Dy	0.62851	0.49361	0.97676	2.163
Mof_H 	H 	0.0011	0.3114	0.927	0.198
Mof_H 	H 	0.1	0.2851	0.9173	0.195
Mof_H 	H 	0.467	0.6695	0.921	0.189
Mof_H 	H 	0.4392	0.7449	0.9115	0.193
Mof_H 	H 	0.0941	0.0081	0.7429	0.175
Mof_H 	H 	0.0941	0.0642	0.698	0.184
Mof_H 	H 	0.0871	0.2633	0.0104	0.023
Mof_H 	H 	0.9051	0.2168	0.9955	0.224
Mof_H 	H 	0.9648	0.2157	0.0519	0.229
Mof_H 	H 	0.5944	0.7669	0.9467	0.053
Mof_H 	H 	0.5561	0.791	0.0437	0.197
Mof_H 	H 	0.4607	0.7482	0.0374	0.192
Mof_H 	H 	0.2596	0.0491	0.704	0.066
Mof_H 	H 	0.2264	0.9042	0.7229	0.194
Mof_H 	H 	0.3271	0.9393	0.7159	0.195
Mof_H 	H 	0.4989	0.6886	0.427	0.197
Mof_H 	H 	0.4	0.7149	0.4173	0.194
Mof_H 	H 	0.033	0.3305	0.421	0.189
Mof_H 	H 	0.0608	0.2551	0.4115	0.194
Mof_H 	H 	0.4059	0.9919	0.2429	0.173
Mof_H 	H 	0.4059	0.9358	0.198	0.183
Mof_H 	H 	0.4129	0.7367	0.5104	0.028
Mof_H 	H 	0.5949	0.7832	0.4955	0.224
Mof_H 	H 	0.5352	0.7843	0.5519	0.227
Mof_H 	H 	0.9056	0.2331	0.4467	0.052
Mof_H 	H 	0.9439	0.209	0.5437	0.201
Mof_H 	H 	0.0393	0.2518	0.5374	0.196
Mof_H 	H 	0.2404	0.9509	0.204	0.066
Mof_H 	H 	0.2736	0.0958	0.2229	0.194
Mof_H 	H 	0.1729	0.0607	0.2159	0.195
Mof_H 	H 	0.9989	0.8114	0.573	0.196
Mof_H 	H 	0.9	0.7851	0.5827	0.194
Mof_H 	H 	0.533	0.1695	0.579	0.19
Mof_H 	H 	0.5608	0.2449	0.5885	0.194
Mof_H 	H 	0.9059	0.5081	0.7571	0.172
Mof_H 	H 	0.9059	0.5642	0.802	0.182
Mof_H 	H 	0.9129	0.7633	0.4896	0.028
Mof_H 	H 	0.0949	0.7168	0.5045	0.224
Mof_H 	H 	0.0352	0.7157	0.4481	0.227
Mof_H 	H 	0.4056	0.2669	0.5533	0.052
Mof_H 	H 	0.4439	0.291	0.4563	0.2
Mof_H 	H 	0.5393	0.2482	0.4626	0.195
Mof_H 	H 	0.7404	0.5491	0.796	0.067
Mof_H 	H 	0.7736	0.4042	0.7771	0.193
Mof_H 	H 	0.6729	0.4393	0.7841	0.194
Mof_H 	H 	0.5011	0.1886	0.073	0.196
Mof_H 	H 	0.6	0.2149	0.0827	0.194
Mof_H 	H 	0.967	0.8305	0.079	0.191
Mof_H 	H 	0.9392	0.7551	0.0885	0.194
Mof_H 	H 	0.5941	0.4919	0.2571	0.172
Mof_H 	H 	0.5941	0.4358	0.302	0.183
Mof_H 	H 	0.5871	0.2367	0.9896	0.03
Mof_H 	H 	0.4051	0.2832	0.0045	0.221
Mof_H 	H 	0.4648	0.2843	0.9481	0.225
Mof_H 	H 	0.0944	0.7331	0.0533	0.052
Mof_H 	H 	0.0561	0.709	0.9563	0.2
Mof_H 	H 	0.9607	0.7518	0.9626	0.192
Mof_H 	H 	0.7596	0.4509	0.296	0.067
Mof_H 	H 	0.7264	0.5958	0.2771	0.193
Mof_H 	H 	0.8271	0.5607	0.2841	0.194
Mof_C 	C 	0.0823	0.1685	0.9724	0.406
Mof_C 	C 	0.0407	0.2424	0.9839	0.154
Mof_C 	C 	0.9534	0.2422	0.017	-0.547
Mof_C 	C 	0.9137	0.3143	0.0329	0.625
Mof_C 	C 	0.6004	0.6707	0.9893	0.449
Mof_C 	C 	0.5488	0.7366	0.967	0.046
Mof_C 	C 	0.5056	0.7784	0.0173	-0.446
Mof_C 	C 	0.4545	0.8459	0.9984	0.571
Mof_C 	C 	0.223	0.9924	0.6344	0.473
Mof_C 	C 	0.2183	0.0079	0.6976	0.039
Mof_C 	C 	0.2629	0.947	0.73	-0.431
Mof_C 	C 	0.2672	0.9605	0.79583	0.567
Mof_C 	C 	0.4177	0.8315	0.4724	0.401
Mof_C 	C 	0.4593	0.7576	0.4839	0.147
Mof_C 	C 	0.5466	0.7578	0.517	-0.544
Mof_C 	C 	0.5863	0.6857	0.5329	0.624
Mof_C 	C 	0.8996	0.3293	0.4893	0.451
Mof_C 	C 	0.9512	0.2634	0.467	0.051
Mof_C 	C 	0.9944	0.2216	0.5173	-0.462
Mof_C 	C 	0.0455	0.1541	0.4984	0.582
Mof_C 	C 	0.277	0.0076	0.1344	0.476
Mof_C 	C 	0.2817	0.9921	0.1976	0.036
Mof_C 	C 	0.2371	0.053	0.23	-0.429
Mof_C 	C 	0.2328	0.0395	0.29583	0.571
Mof_C 	C 	0.9177	0.6685	0.5276	0.402
Mof_C 	C 	0.9593	0.7424	0.5161	0.147
Mof_C 	C 	0.0466	0.7422	0.483	-0.544
Mof_C 	C 	0.0863	0.8143	0.4671	0.624
Mof_C 	C 	0.3996	0.1707	0.5107	0.451
Mof_C 	C 	0.4512	0.2366	0.533	0.05
Mof_C 	C 	0.4944	0.2784	0.4827	-0.459
Mof_C 	C 	0.5455	0.3459	0.5016	0.581
Mof_C 	C 	0.777	0.4924	0.8656	0.477
Mof_C 	C 	0.7817	0.5079	0.8024	0.032
Mof_C 	C 	0.7371	0.447	0.77	-0.427
Mof_C 	C 	0.7328	0.4605	0.70417	0.571
Mof_C 	C 	0.5823	0.3315	0.0276	0.403
Mof_C 	C 	0.5407	0.2576	0.0161	0.142
Mof_C 	C 	0.4534	0.2578	0.983	-0.537
Mof_C 	C 	0.4137	0.1857	0.9671	0.622
Mof_C 	C 	0.1004	0.8293	0.0107	0.454
Mof_C 	C 	0.0488	0.7634	0.033	0.048
Mof_C 	C 	0.0056	0.7216	0.9827	-0.458
Mof_C 	C 	0.9545	0.6541	0.0016	0.588
Mof_C 	C 	0.723	0.5076	0.3656	0.478
Mof_C 	C 	0.7183	0.4921	0.3024	0.032
Mof_C 	C 	0.7629	0.553	0.27	-0.427
Mof_C 	C 	0.7672	0.5395	0.20417	0.571
Mof_N 	N 	0.0482	0.2849	0.937	-0.325
Mof_N 	N 	0.475	0.7139	0.9279	-0.3
Mof_N 	N 	0.1223	0.0297	0.7153	-0.286
Mof_N 	N 	0.4518	0.7151	0.437	-0.324
Mof_N 	N 	0.025	0.2861	0.4279	-0.301
Mof_N 	N 	0.3777	0.9703	0.2153	-0.286
Mof_N 	N 	0.9518	0.7849	0.563	-0.323
Mof_N 	N 	0.525	0.2139	0.5721	-0.301
Mof_N 	N 	0.8777	0.5297	0.7847	-0.285
Mof_N 	N 	0.5482	0.2151	0.063	-0.323
Mof_N 	N 	0.975	0.7861	0.0721	-0.3
Mof_N 	N 	0.6223	0.4703	0.2847	-0.285
Mof_O 	O 	0.26993	0.93852	0.01164	-0.731
Mof_O 	O 	0.16026	0.99087	0.92574	-0.755
Mof_O 	O 	0.2617	0.07644	0.99909	-0.727
Mof_O 	O 	0.35702	0.99635	0.92016	-0.755
Mof_O 	O 	0.0696	0.1215	0.0113	-0.486
Mof_O 	O 	0.1325	0.1621	0.9301	-0.505
Mof_O 	O 	0.8437	0.31311	0.06863	-0.521
Mof_O 	O 	0.9476	0.36648	0.01097	-0.563
Mof_O 	O 	0.6674	0.68412	0.02367	-0.501
Mof_O 	O 	0.5757	0.61267	0.97223	-0.518
Mof_O 	O 	0.4633	0.90115	0.02817	-0.531
Mof_O 	O 	0.4016	0.84349	0.95462	-0.547
Mof_O 	O 	0.1466	0.9875	0.60821	-0.521
Mof_O 	O 	0.3043	0.9886	0.61454	-0.515
Mof_O 	O 	0.2428	0.01849	0.81368	-0.545
Mof_O 	O 	0.2979	0.9083	0.82466	-0.536
Mof_O 	O 	0.1127	0.8698	0.8633	-0.289
Mof_O 	O 	0.2773	0.77362	0.87774	-0.285
Mof_O 	O 	0.3938	0.1106	0.8348	-0.269
Mof_O 	O 	0.2143	0.1737	0.82344	-0.279
Mof_O 	O 	0.5532	0.0083	0.96201	-0.28
Mof_O 	O 	0.5339	0.0484	0.07681	-0.285
Mof_O 	O 	0.0044	0.0172	0.09558	-0.279
Mof_O 	O 	0.9719	0.9972	0.9758	-0.284
Mof_O 	O 	0.23007	0.06148	0.51164	-0.733
Mof_O 	O 	0.33974	0.00913	0.42574	-0.752
Mof_O 	O 	0.2383	0.92356	0.49909	-0.731
Mof_O 	O 	0.14298	0.00365	0.42016	-0.751
Mof_O 	O 	0.4304	0.8785	0.5113	-0.482
Mof_O 	O 	0.3675	0.8379	0.4301	-0.505
Mof_O 	O 	0.6563	0.68689	0.56863	-0.521
Mof_O 	O 	0.5524	0.63352	0.51097	-0.564
Mof_O 	O 	0.8326	0.31588	0.52367	-0.504
Mof_O 	O 	0.9243	0.38733	0.47223	-0.518
Mof_O 	O 	0.0367	0.09885	0.52817	-0.537
Mof_O 	O 	0.0984	0.15651	0.45462	-0.549
Mof_O 	O 	0.3534	0.0125	0.10821	-0.521
Mof_O 	O 	0.1957	0.0114	0.11454	-0.516
Mof_O 	O 	0.2572	0.98151	0.31368	-0.548
Mof_O 	O 	0.2021	0.0917	0.32466	-0.537
Mof_O 	O 	0.3873	0.1302	0.3633	-0.289
Mof_O 	O 	0.2227	0.22638	0.37774	-0.285
Mof_O 	O 	0.1062	0.8894	0.3348	-0.27
Mof_O 	O 	0.2857	0.8263	0.32344	-0.278
Mof_O 	O 	0.9468	0.9917	0.46201	-0.283
Mof_O 	O 	0.9661	0.9516	0.57681	-0.285
Mof_O 	O 	0.4956	0.9828	0.59558	-0.279
Mof_O 	O 	0.5281	0.0028	0.4758	-0.279
Mof_O 	O 	0.73007	0.43852	0.48836	-0.735
Mof_O 	O 	0.83974	0.49087	0.57426	-0.753
Mof_O 	O 	0.7383	0.57644	0.50091	-0.731
Mof_O 	O 	0.64298	0.49635	0.57984	-0.752
Mof_O 	O 	0.9304	0.6215	0.4887	-0.483
Mof_O 	O 	0.8675	0.6621	0.5699	-0.505
Mof_O 	O 	0.1563	0.81311	0.43137	-0.521
Mof_O 	O 	0.0524	0.86648	0.48903	-0.564
Mof_O 	O 	0.3326	0.18412	0.47633	-0.504
Mof_O 	O 	0.4243	0.11267	0.52777	-0.517
Mof_O 	O 	0.5367	0.40115	0.47183	-0.537
Mof_O 	O 	0.5984	0.34349	0.54538	-0.549
Mof_O 	O 	0.8534	0.4875	0.89179	-0.522
Mof_O 	O 	0.6957	0.4886	0.88546	-0.516
Mof_O 	O 	0.7572	0.51849	0.68632	-0.548
Mof_O 	O 	0.7021	0.4083	0.67534	-0.537
Mof_O 	O 	0.8873	0.3698	0.6367	-0.29
Mof_O 	O 	0.7227	0.27362	0.62226	-0.285
Mof_O 	O 	0.6062	0.6106	0.6652	-0.27
Mof_O 	O 	0.7857	0.6737	0.67656	-0.279
Mof_O 	O 	0.4468	0.5083	0.53799	-0.284
Mof_O 	O 	0.4661	0.5484	0.42319	-0.285
Mof_O 	O 	0.9956	0.5172	0.40442	-0.279
Mof_O 	O 	0.0281	0.4972	0.5242	-0.281
Mof_O 	O 	0.76993	0.56148	0.98836	-0.736
Mof_O 	O 	0.66026	0.50913	0.07426	-0.753
Mof_O 	O 	0.7617	0.42356	0.00091	-0.729
Mof_O 	O 	0.85702	0.50365	0.07984	-0.751
Mof_O 	O 	0.5696	0.3785	0.9887	-0.483
Mof_O 	O 	0.6325	0.3379	0.0699	-0.505
Mof_O 	O 	0.3437	0.18689	0.93137	-0.521
Mof_O 	O 	0.4476	0.13352	0.98903	-0.561
Mof_O 	O 	0.1674	0.81588	0.97633	-0.505
Mof_O 	O 	0.0757	0.88733	0.02777	-0.517
Mof_O 	O 	0.9633	0.59885	0.97183	-0.542
Mof_O 	O 	0.9016	0.65651	0.04538	-0.55
Mof_O 	O 	0.6466	0.5125	0.39179	-0.522
Mof_O 	O 	0.8043	0.5114	0.38546	-0.516
Mof_O 	O 	0.7428	0.48151	0.18632	-0.548
Mof_O 	O 	0.7979	0.5917	0.17534	-0.537
Mof_O 	O 	0.6127	0.6302	0.1367	-0.289
Mof_O 	O 	0.7773	0.72638	0.12226	-0.284
Mof_O 	O 	0.8938	0.3894	0.1652	-0.27
Mof_O 	O 	0.7143	0.3263	0.17656	-0.278
Mof_O 	O 	0.0532	0.4917	0.03799	-0.284
Mof_O 	O 	0.0339	0.4516	0.92319	-0.283
Mof_O 	O 	0.5044	0.4828	0.90442	-0.278
Mof_O 	O 	0.4719	0.5028	0.0242	-0.28
Mof_Cl	Cl	0.25735	0.22128	0.11417	-0.21
Mof_O 	O 	0.2441	0.292	0.1339	-0.005
Mof_O 	O 	0.3463	0.1891	0.1338	-0.048
Mof_O 	O 	0.1761	0.1751	0.1301	-0.041
Mof_O 	O 	0.2581	0.2218	0.0508	-0.056
Mof_Cl	Cl	0.2729	0.79183	0.14735	-0.215
Mof_O 	O 	0.1667	0.7964	0.1529	-0.025
Mof_O 	O 	0.3088	0.7212	0.1475	-0.005
Mof_O 	O 	0.3026	0.8374	0.102	-0.042
Mof_O 	O 	0.3037	0.8283	0.2031	-0.022
Mof_Cl	Cl	0.24265	0.77872	0.61417	-0.21
Mof_O 	O 	0.2559	0.708	0.6339	-0.004
Mof_O 	O 	0.1537	0.8109	0.6338	-0.048
Mof_O 	O 	0.3239	0.8249	0.6301	-0.041
Mof_O 	O 	0.2419	0.7782	0.5508	-0.055
Mof_Cl	Cl	0.2271	0.20817	0.64735	-0.215
Mof_O 	O 	0.3333	0.2036	0.6529	-0.024
Mof_O 	O 	0.1912	0.2788	0.6475	-0.005
Mof_O 	O 	0.1974	0.1626	0.602	-0.042
Mof_O 	O 	0.1963	0.1717	0.7031	-0.022
Mof_Cl	Cl	0.74265	0.72128	0.38583	-0.21
Mof_O 	O 	0.7559	0.792	0.3661	-0.004
Mof_O 	O 	0.6537	0.6891	0.3662	-0.048
Mof_O 	O 	0.8239	0.6751	0.3699	-0.041
Mof_O 	O 	0.7419	0.7218	0.4492	-0.055
Mof_Cl	Cl	0.7271	0.29183	0.35265	-0.215
Mof_O 	O 	0.8333	0.2964	0.3471	-0.025
Mof_O 	O 	0.6912	0.2212	0.3525	-0.005
Mof_O 	O 	0.6974	0.3374	0.398	-0.042
Mof_O 	O 	0.6963	0.3283	0.2969	-0.022
Mof_Cl	Cl	0.75735	0.27872	0.88583	-0.21
Mof_O 	O 	0.7441	0.208	0.8661	-0.004
Mof_O 	O 	0.8463	0.3109	0.8662	-0.049
Mof_O 	O 	0.6761	0.3249	0.8699	-0.041
Mof_O 	O 	0.7581	0.2782	0.9492	-0.055
Mof_Cl	Cl	0.7729	0.70817	0.85265	-0.215
Mof_O 	O 	0.6667	0.7036	0.8471	-0.025
Mof_O 	O 	0.8088	0.7788	0.8525	-0.006
Mof_O 	O 	0.8026	0.6626	0.898	-0.043
Mof_O 	O 	0.8037	0.6717	0.7969	-0.023
_end
