data_functionalizedCrystal
_audit_creation_method	'EQeq! by Chris Wilmer'
_symmetry_space_group_name_H-M	'P1'
_symmetry_Int_Tables_number	1
_symmetry_cell_setting	triclinic
loop_
_symmetry_equiv_pos_as_xyz
  x,y,z
_cell_length_a	10.5835
_cell_length_b	11.6486
_cell_length_c	17.609
_cell_angle_alpha	90
_cell_angle_beta	90
_cell_angle_gamma	110.272
loop_
_atom_site_label
_atom_site_type_symbol
_atom_site_fract_x
_atom_site_fract_y
_atom_site_fract_z
_atom_site_charge
Mof_Co	Co	0.98317	0.21628	0.82647	1.099
Mof_Co	Co	0.51683	0.78372	0.32647	1.101
Mof_Co	Co	0.01683	0.78372	0.17353	1.1
Mof_Co	Co	0.48317	0.21628	0.67353	1.102
Mof_H 	H 	0.2988	0.632	0.6541	0.083
Mof_H 	H 	0.3387	0.9789	0.6044	0.044
Mof_H 	H 	0.1246	0.8151	0.7861	0.085
Mof_H 	H 	0.1525	0.4471	0.7126	0.01
Mof_H 	H 	0.9662	0.4504	0.9035	-0.024
Mof_H 	H 	0.3587	0.8729	0.4608	0.013
Mof_H 	H 	0.6324	0.7194	0.4772	-0.021
Mof_H 	H 	0.0194	0.9677	0.7706	0.02
Mof_H 	H 	0.2723	0.3013	0.7463	-0.047
Mof_H 	H 	0.2012	0.368	0.1541	0.084
Mof_H 	H 	0.1613	0.0211	0.1044	0.046
Mof_H 	H 	0.3754	0.1849	0.2861	0.086
Mof_H 	H 	0.3475	0.5529	0.2126	0.009
Mof_H 	H 	0.5338	0.5496	0.4035	-0.02
Mof_H 	H 	0.1413	0.1271	0.9608	0.011
Mof_H 	H 	0.8676	0.2806	0.9772	-0.02
Mof_H 	H 	0.4806	0.0323	0.2706	0.023
Mof_H 	H 	0.2277	0.6987	0.2463	-0.047
Mof_H 	H 	0.7012	0.368	0.3459	0.083
Mof_H 	H 	0.6613	0.0211	0.3956	0.044
Mof_H 	H 	0.8754	0.1849	0.2139	0.085
Mof_H 	H 	0.8475	0.5529	0.2874	0.01
Mof_H 	H 	0.0338	0.5496	0.0965	-0.024
Mof_H 	H 	0.6413	0.1271	0.5392	0.013
Mof_H 	H 	0.3676	0.2806	0.5228	-0.021
Mof_H 	H 	0.9806	0.0323	0.2294	0.02
Mof_H 	H 	0.7277	0.6987	0.2537	-0.047
Mof_H 	H 	0.7988	0.632	0.8459	0.084
Mof_H 	H 	0.8387	0.9789	0.8956	0.046
Mof_H 	H 	0.6246	0.8151	0.7139	0.086
Mof_H 	H 	0.6525	0.4471	0.7874	0.009
Mof_H 	H 	0.4662	0.4504	0.5965	-0.02
Mof_H 	H 	0.8587	0.8729	0.0392	0.011
Mof_H 	H 	0.1324	0.7194	0.0228	-0.02
Mof_H 	H 	0.5194	0.9677	0.7294	0.023
Mof_H 	H 	0.7723	0.3013	0.7537	-0.047
Mof_C 	C 	0.199	0.7037	0.72663	0.068
Mof_C 	C 	0.2803	0.7026	0.66508	-0.135
Mof_C 	C 	0.3343	0.8051	0.61963	0.065
Mof_C 	C 	0.3067	0.9113	0.63624	-0.135
Mof_C 	C 	0.2323	0.9161	0.6997	0.037
Mof_C 	C 	0.1769	0.8124	0.7442	-0.124
Mof_C 	C 	0.1333	0.5922	0.77053	0.018
Mof_C 	C 	0.1177	0.4736	0.75493	-0.007
Mof_C 	C 	0.0159	0.4757	0.8592	0.096
Mof_C 	C 	0.4183	0.7997	0.55411	0.014
Mof_C 	C 	0.4149	0.8338	0.4803	-0.012
Mof_C 	C 	0.5644	0.7496	0.48947	0.09
Mof_C 	C 	0.2051	0.028	0.72223	0.018
Mof_C 	C 	0.0951	0.0344	0.7579	-0.017
Mof_C 	C 	0.2339	0.2165	0.7444	0.084
Mof_C 	C 	0.301	0.2963	0.22663	0.07
Mof_C 	C 	0.2197	0.2974	0.16508	-0.138
Mof_C 	C 	0.1657	0.1949	0.11963	0.069
Mof_C 	C 	0.1933	0.0887	0.13624	-0.139
Mof_C 	C 	0.2677	0.0839	0.1997	0.042
Mof_C 	C 	0.3231	0.1876	0.2442	-0.127
Mof_C 	C 	0.3667	0.4078	0.27053	0.017
Mof_C 	C 	0.3823	0.5264	0.25493	-0.007
Mof_C 	C 	0.4841	0.5243	0.3592	0.089
Mof_C 	C 	0.0817	0.2003	0.05411	0.008
Mof_C 	C 	0.0851	0.1662	0.9803	-0.003
Mof_C 	C 	0.9356	0.2504	0.98947	0.084
Mof_C 	C 	0.2949	0.972	0.22223	0.015
Mof_C 	C 	0.4049	0.9656	0.2579	-0.022
Mof_C 	C 	0.2661	0.7835	0.2444	0.084
Mof_C 	C 	0.801	0.2963	0.27337	0.068
Mof_C 	C 	0.7197	0.2974	0.33492	-0.135
Mof_C 	C 	0.6657	0.1949	0.38037	0.065
Mof_C 	C 	0.6933	0.0887	0.36376	-0.135
Mof_C 	C 	0.7677	0.0839	0.3003	0.037
Mof_C 	C 	0.8231	0.1876	0.2558	-0.124
Mof_C 	C 	0.8667	0.4078	0.22947	0.018
Mof_C 	C 	0.8823	0.5264	0.24507	-0.007
Mof_C 	C 	0.9841	0.5243	0.1408	0.096
Mof_C 	C 	0.5817	0.2003	0.44589	0.014
Mof_C 	C 	0.5851	0.1662	0.5197	-0.012
Mof_C 	C 	0.4356	0.2504	0.51053	0.09
Mof_C 	C 	0.7949	0.972	0.27777	0.018
Mof_C 	C 	0.9049	0.9656	0.2421	-0.017
Mof_C 	C 	0.7661	0.7835	0.2556	0.084
Mof_C 	C 	0.699	0.7037	0.77337	0.07
Mof_C 	C 	0.7803	0.7026	0.83492	-0.138
Mof_C 	C 	0.8343	0.8051	0.88037	0.069
Mof_C 	C 	0.8067	0.9113	0.86376	-0.139
Mof_C 	C 	0.7323	0.9161	0.8003	0.042
Mof_C 	C 	0.6769	0.8124	0.7558	-0.127
Mof_C 	C 	0.6333	0.5922	0.72947	0.017
Mof_C 	C 	0.6177	0.4736	0.74507	-0.007
Mof_C 	C 	0.5159	0.4757	0.6408	0.089
Mof_C 	C 	0.9183	0.7997	0.94589	0.008
Mof_C 	C 	0.9149	0.8338	0.0197	-0.003
Mof_C 	C 	0.0644	0.7496	0.01053	0.084
Mof_C 	C 	0.7051	0.028	0.77777	0.015
Mof_C 	C 	0.5951	0.0344	0.7421	-0.022
Mof_C 	C 	0.7339	0.2165	0.7556	0.084
Mof_N 	N 	0.0428	0.3989	0.81138	-0.267
Mof_N 	N 	0.0666	0.5918	0.8377	-0.12
Mof_N 	N 	0.5077	0.8013	0.43922	-0.269
Mof_N 	N 	0.5144	0.745	0.55956	-0.12
Mof_N 	N 	0.1121	0.1549	0.77254	-0.27
Mof_N 	N 	0.2958	0.1459	0.71335	-0.274
Mof_N 	N 	0.4572	0.6011	0.31138	-0.267
Mof_N 	N 	0.4334	0.4082	0.3377	-0.119
Mof_N 	N 	0.9923	0.1987	0.93922	-0.272
Mof_N 	N 	0.9856	0.255	0.05956	-0.116
Mof_N 	N 	0.3879	0.8451	0.27254	-0.27
Mof_N 	N 	0.2042	0.8541	0.21335	-0.274
Mof_N 	N 	0.9572	0.6011	0.18862	-0.267
Mof_N 	N 	0.9334	0.4082	0.1623	-0.12
Mof_N 	N 	0.4923	0.1987	0.56078	-0.269
Mof_N 	N 	0.4856	0.255	0.44044	-0.12
Mof_N 	N 	0.8879	0.8451	0.22746	-0.27
Mof_N 	N 	0.7042	0.8541	0.28665	-0.274
Mof_N 	N 	0.5428	0.3989	0.68862	-0.267
Mof_N 	N 	0.5666	0.5918	0.6623	-0.119
Mof_N 	N 	0.0077	0.8013	0.06078	-0.272
Mof_N 	N 	0.0144	0.745	0.94044	-0.116
Mof_N 	N 	0.6121	0.1549	0.72746	-0.27
Mof_N 	N 	0.7958	0.1459	0.78665	-0.274
_end
