data_functionalizedCrystal
_audit_creation_method	'EQeq! by Chris Wilmer'
_symmetry_space_group_name_H-M	'P1'
_symmetry_Int_Tables_number	1
_symmetry_cell_setting	triclinic
loop_
_symmetry_equiv_pos_as_xyz
  x,y,z
_cell_length_a	15.2861
_cell_length_b	17.5096
_cell_length_c	19.0033
_cell_angle_alpha	62.5677
_cell_angle_beta	86.2685
_cell_angle_gamma	81.8789
loop_
_atom_site_label
_atom_site_type_symbol
_atom_site_fract_x
_atom_site_fract_y
_atom_site_fract_z
_atom_site_charge
Mof_Co	Co	0.49918	0.34283	0.2725	1.135
Mof_Co	Co	0.21829	0.31006	0.70824	1.15
Mof_Co	Co	0.61093	0.19274	0.76468	1.136
Mof_Co	Co	0.99918	0.61533	0.7275	1.127
Mof_Co	Co	0.71829	0.0183	0.29176	1.152
Mof_Co	Co	0.11093	0.95742	0.23532	1.134
Mof_H 	H 	0.0592	0.4736	0.441	0.053
Mof_H 	H 	0.2993	0.3332	0.4674	0.046
Mof_H 	H 	0.2018	0.4961	0.2488	0.05
Mof_H 	H 	0.5097	0.3474	0.4678	0.07
Mof_H 	H 	0.5401	0.3964	0.5572	0.032
Mof_H 	H 	0.6096	0.5188	0.5164	0.04
Mof_H 	H 	0.6508	0.5967	0.3848	0.081
Mof_H 	H 	0.5107	0.3626	0.064	0.056
Mof_H 	H 	0.5307	0.4278	0.9284	0.044
Mof_H 	H 	0.5877	0.5587	0.8636	0.034
Mof_H 	H 	0.6223	0.6299	0.9318	0.098
Mof_H 	H 	0.2928	0.3371	0.1752	0.074
Mof_H 	H 	0.199	0.2784	0.1274	0.036
Mof_H 	H 	0.2448	0.1544	0.114	0.048
Mof_H 	H 	0.3865	0.0797	0.1538	0.076
Mof_H 	H 	0.6917	0.303	0.4054	0.069
Mof_H 	H 	0.8258	0.2381	0.467	0.035
Mof_H 	H 	0.9017	0.1206	0.4558	0.04
Mof_H 	H 	0.8438	0.0626	0.3846	0.048
Mof_H 	H 	0.2334	0.3288	0.8602	0.048
Mof_H 	H 	0.2856	0.3327	0.969	0.043
Mof_H 	H 	0.433	0.2846	0.0066	0.038
Mof_H 	H 	0.536	0.2441	0.9302	0.074
Mof_H 	H 	0.3729	0.1633	0.5134	0.084
Mof_H 	H 	0.489	0.1012	0.466	0.04
Mof_H 	H 	0.6303	0.0822	0.5088	0.052
Mof_H 	H 	0.6623	0.1253	0.6012	0.062
Mof_H 	H 	0.7153	0.9841	0.7704	0.063
Mof_H 	H 	0.8143	0.8943	0.7318	0.059
Mof_H 	H 	0.9353	0.9442	0.6562	0.04
Mof_H 	H 	0.9702	0.0856	0.6154	0.067
Mof_H 	H 	0.525	0.42	0.7402	0.061
Mof_H 	H 	0.5272	0.5623	0.7052	0.041
Mof_H 	H 	0.649	0.6323	0.6428	0.042
Mof_H 	H 	0.7685	0.561	0.6102	0.073
Mof_H 	H 	0.1567	0.1118	0.9626	0.043
Mof_H 	H 	0.1696	0.0099	0.8094	0.057
Mof_H 	H 	0.1412	0.8573	0.0426	0.059
Mof_H 	H 	0.6243	0.6094	0.0906	0.171
Mof_H 	H 	0.6419	0.5929	0.2366	0.172
Mof_H 	H 	0.5387	0.0888	0.224	0.133
Mof_H 	H 	0.3388	0.2291	0.6256	0.146
Mof_H 	H 	0.8306	0.3918	0.6266	0.129
Mof_H 	H 	0.8928	0.24	0.6222	0.125
Mof_H 	H 	0.5592	0.9146	0.559	0.047
Mof_H 	H 	0.7993	0.8006	0.5326	0.045
Mof_H 	H 	0.7018	0.7449	0.7512	0.05
Mof_H 	H 	0.0097	0.8152	0.5322	0.081
Mof_H 	H 	0.0401	0.9536	0.4428	0.022
Mof_H 	H 	0.1096	0.0352	0.4836	0.064
Mof_H 	H 	0.1508	0.9815	0.6152	0.071
Mof_H 	H 	0.0107	0.4266	0.936	0.06
Mof_H 	H 	0.0307	0.3562	0.0716	0.048
Mof_H 	H 	0.0877	0.4223	0.1364	0.034
Mof_H 	H 	0.1223	0.5617	0.0682	0.1
Mof_H 	H 	0.7928	0.5123	0.8248	0.075
Mof_H 	H 	0.699	0.4058	0.8726	0.033
Mof_H 	H 	0.7448	0.2684	0.886	0.05
Mof_H 	H 	0.8865	0.2335	0.8462	0.068
Mof_H 	H 	0.1917	0.7084	0.5946	0.069
Mof_H 	H 	0.3258	0.7051	0.533	0.036
Mof_H 	H 	0.4017	0.5764	0.5442	0.042
Mof_H 	H 	0.3438	0.4472	0.6154	0.046
Mof_H 	H 	0.7334	0.189	0.1398	0.042
Mof_H 	H 	0.7856	0.3017	0.031	0.051
Mof_H 	H 	0.933	0.2912	0.9934	0.019
Mof_H 	H 	0.036	0.1743	0.0698	0.099
Mof_H 	H 	0.8729	0.6767	0.4866	0.066
Mof_H 	H 	0.989	0.5672	0.534	0.057
Mof_H 	H 	0.1303	0.591	0.4912	0.028
Mof_H 	H 	0.1623	0.7265	0.3988	0.078
Mof_H 	H 	0.2153	0.7545	0.2296	0.085
Mof_H 	H 	0.3143	0.6261	0.2682	0.05
Mof_H 	H 	0.4353	0.6004	0.3438	0.047
Mof_H 	H 	0.4702	0.701	0.3846	0.07
Mof_H 	H 	0.025	0.1602	0.2598	0.066
Mof_H 	H 	0.0272	0.2675	0.2948	0.044
Mof_H 	H 	0.149	0.2751	0.3572	0.044
Mof_H 	H 	0.2685	0.1712	0.3898	0.074
Mof_H 	H 	0.6567	0.0744	0.0374	0.036
Mof_H 	H 	0.6696	0.8193	0.1906	0.054
Mof_H 	H 	0.6412	0.8999	0.9574	0.053
Mof_H 	H 	0.1243	0.7	0.9094	0.173
Mof_H 	H 	0.1419	0.8295	0.7634	0.172
Mof_H 	H 	0.0387	0.3128	0.776	0.132
Mof_H 	H 	0.8388	0.8547	0.3744	0.142
Mof_H 	H 	0.3306	0.0184	0.3734	0.133
Mof_H 	H 	0.3928	0.8622	0.3778	0.127
Mof_C 	C 	0.0514	0.5633	0.2844	0.286
Mof_C 	C 	0.1206	0.495	0.3368	-0.078
Mof_C 	C 	0.1106	0.4583	0.419	0.02
Mof_C 	C 	0.1784	0.3982	0.4682	-0.092
Mof_C 	C 	0.1694	0.3631	0.5556	0.316
Mof_C 	C 	0.2547	0.3736	0.4346	0.024
Mof_C 	C 	0.2642	0.4094	0.352	-0.089
Mof_C 	C 	0.3468	0.3817	0.3186	0.303
Mof_C 	C 	0.196	0.4712	0.3036	0.017
Mof_C 	C 	0.5607	0.4442	0.3722	0.05
Mof_C 	C 	0.5371	0.397	0.4512	-0.1
Mof_C 	C 	0.5558	0.4264	0.5042	-0.022
Mof_C 	C 	0.598	0.5006	0.4794	-0.018
Mof_C 	C 	0.6228	0.5474	0.401	-0.111
Mof_C 	C 	0.6042	0.5179	0.3472	0.092
Mof_C 	C 	0.5547	0.4575	0.0814	0.044
Mof_C 	C 	0.5329	0.4156	0.0384	-0.081
Mof_C 	C 	0.5453	0.4547	0.9576	-0.04
Mof_C 	C 	0.5793	0.5344	0.9182	0.004
Mof_C 	C 	0.6005	0.5767	0.9582	-0.118
Mof_C 	C 	0.5882	0.5374	0.0406	0.1
Mof_C 	C 	0.5827	0.4949	0.2462	0.081
Mof_C 	C 	0.581	0.4989	0.1678	0.088
Mof_C 	C 	0.3968	0.2387	0.199	0.059
Mof_C 	C 	0.3109	0.2855	0.1726	-0.101
Mof_C 	C 	0.256	0.2506	0.1428	-0.016
Mof_C 	C 	0.2835	0.1749	0.1352	-0.027
Mof_C 	C 	0.3676	0.1298	0.159	-0.095
Mof_C 	C 	0.4228	0.164	0.1918	0.079
Mof_C 	C 	0.6861	0.2236	0.3544	0.068
Mof_C 	C 	0.7217	0.2558	0.4002	-0.111
Mof_C 	C 	0.8016	0.2166	0.437	-0.011
Mof_C 	C 	0.8474	0.1453	0.4306	-0.031
Mof_C 	C 	0.8139	0.1108	0.388	-0.089
Mof_C 	C 	0.7314	0.152	0.349	0.034
Mof_C 	C 	0.5287	0.1911	0.2466	0.059
Mof_C 	C 	0.6058	0.1858	0.287	0.049
Mof_C 	C 	0.3538	0.2878	0.8258	0.033
Mof_C 	C 	0.293	0.3131	0.8734	-0.087
Mof_C 	C 	0.3239	0.3139	0.9384	-0.028
Mof_C 	C 	0.4145	0.2861	0.9602	-0.012
Mof_C 	C 	0.4767	0.2608	0.9158	-0.111
Mof_C 	C 	0.4435	0.2624	0.8462	0.076
Mof_C 	C 	0.448	0.1775	0.5896	0.1
Mof_C 	C 	0.4301	0.1546	0.532	-0.11
Mof_C 	C 	0.4996	0.1186	0.5038	0.001
Mof_C 	C 	0.5849	0.1073	0.5294	-0.032
Mof_C 	C 	0.6045	0.1323	0.5846	-0.08
Mof_C 	C 	0.5342	0.1687	0.6148	0.045
Mof_C 	C 	0.4213	0.2496	0.7416	0.054
Mof_C 	C 	0.4484	0.2221	0.68	0.083
Mof_C 	C 	0.7836	0.0888	0.712	0.046
Mof_C 	C 	0.7645	0.0041	0.7392	-0.057
Mof_C 	C 	0.8244	0.951	0.7162	-0.048
Mof_C 	C 	0.898	0.9815	0.6706	-0.019
Mof_C 	C 	0.9197	0.0664	0.6448	-0.097
Mof_C 	C 	0.8594	0.1187	0.667	0.079
Mof_C 	C 	0.6468	0.4008	0.6972	0.053
Mof_C 	C 	0.5741	0.4471	0.7146	-0.1
Mof_C 	C 	0.5758	0.5314	0.694	-0.025
Mof_C 	C 	0.65	0.5742	0.6554	-0.017
Mof_C 	C 	0.7203	0.533	0.6366	-0.104
Mof_C 	C 	0.7179	0.4454	0.6588	0.075
Mof_C 	C 	0.7807	0.2253	0.6824	0.069
Mof_C 	C 	0.7426	0.3095	0.6796	0.079
Mof_C 	C 	0.1363	0.97	0.099	0.291
Mof_C 	C 	0.1466	0.9816	0.0148	-0.088
Mof_C 	C 	0.1561	0.0645	0.9528	0.039
Mof_C 	C 	0.1646	0.0737	0.8762	-0.078
Mof_C 	C 	0.1798	0.1588	0.8034	0.302
Mof_C 	C 	0.1643	0.0023	0.8612	0.033
Mof_C 	C 	0.1563	0.9204	0.9232	-0.078
Mof_C 	C 	0.1594	0.8458	0.904	0.299
Mof_C 	C 	0.1471	0.9115	0.0004	0.024
Mof_C 	C 	0.5514	0.8477	0.7156	0.27
Mof_C 	C 	0.6206	0.8318	0.6632	-0.076
Mof_C 	C 	0.6106	0.8773	0.581	0.018
Mof_C 	C 	0.6784	0.8664	0.5318	-0.095
Mof_C 	C 	0.6694	0.9187	0.4444	0.317
Mof_C 	C 	0.7547	0.8082	0.5654	0.024
Mof_C 	C 	0.7642	0.7614	0.648	-0.091
Mof_C 	C 	0.8468	0.7003	0.6814	0.303
Mof_C 	C 	0.696	0.7748	0.6964	0.015
Mof_C 	C 	0.0607	0.8164	0.6278	0.063
Mof_C 	C 	0.0371	0.8482	0.5488	-0.117
Mof_C 	C 	0.0558	0.9306	0.4958	0.007
Mof_C 	C 	0.098	0.98	0.5206	-0.06
Mof_C 	C 	0.1228	0.9484	0.599	-0.086
Mof_C 	C 	0.1042	0.8651	0.6528	0.082
Mof_C 	C 	0.0547	0.5389	0.9186	0.045
Mof_C 	C 	0.0329	0.454	0.9616	-0.077
Mof_C 	C 	0.0453	0.4123	0.0424	-0.043
Mof_C 	C 	0.0793	0.4526	0.0818	0.009
Mof_C 	C 	0.1005	0.5349	0.0418	-0.121
Mof_C 	C 	0.0882	0.578	0.9594	0.104
Mof_C 	C 	0.0827	0.7411	0.7538	0.083
Mof_C 	C 	0.081	0.6667	0.8322	0.09
Mof_C 	C 	0.8968	0.4377	0.801	0.063
Mof_C 	C 	0.8109	0.4581	0.8274	-0.108
Mof_C 	C 	0.756	0.3934	0.8572	-0.01
Mof_C 	C 	0.7835	0.3101	0.8648	-0.036
Mof_C 	C 	0.8676	0.2888	0.841	-0.085
Mof_C 	C 	0.9228	0.3558	0.8082	0.061
Mof_C 	C 	0.1861	0.578	0.6456	0.07
Mof_C 	C 	0.2217	0.656	0.5998	-0.111
Mof_C 	C 	0.3016	0.6536	0.563	-0.01
Mof_C 	C 	0.3474	0.5759	0.5694	-0.031
Mof_C 	C 	0.3139	0.4988	0.612	-0.088
Mof_C 	C 	0.2314	0.501	0.651	0.033
Mof_C 	C 	0.0287	0.4377	0.7534	0.073
Mof_C 	C 	0.1058	0.4728	0.713	0.047
Mof_C 	C 	0.8538	0.1136	0.1742	0.022
Mof_C 	C 	0.793	0.1865	0.1266	-0.07
Mof_C 	C 	0.8239	0.2523	0.0616	-0.052
Mof_C 	C 	0.9145	0.2463	0.0398	0.021
Mof_C 	C 	0.9767	0.1766	0.0842	-0.157
Mof_C 	C 	0.9435	0.1086	0.1538	0.09
Mof_C 	C 	0.948	0.7671	0.4104	0.06
Mof_C 	C 	0.9301	0.6866	0.468	-0.064
Mof_C 	C 	0.9996	0.6224	0.4962	-0.069
Mof_C 	C 	0.0849	0.6367	0.4706	0.034
Mof_C 	C 	0.1045	0.7169	0.4154	-0.126
Mof_C 	C 	0.0342	0.7835	0.3852	0.082
Mof_C 	C 	0.9213	0.9912	0.2584	0.037
Mof_C 	C 	0.9484	0.9021	0.32	0.072
Mof_C 	C 	0.2836	0.8008	0.288	0.058
Mof_C 	C 	0.2645	0.7433	0.2608	-0.1
Mof_C 	C 	0.3244	0.6672	0.2838	-0.017
Mof_C 	C 	0.398	0.6521	0.3294	-0.021
Mof_C 	C 	0.4197	0.7112	0.3552	-0.099
Mof_C 	C 	0.3594	0.7857	0.333	0.075
Mof_C 	C 	0.1468	0.098	0.3028	0.056
Mof_C 	C 	0.0741	0.1617	0.2854	-0.1
Mof_C 	C 	0.0758	0.2254	0.306	-0.024
Mof_C 	C 	0.15	0.2296	0.3446	-0.016
Mof_C 	C 	0.2203	0.1696	0.3634	-0.103
Mof_C 	C 	0.2179	0.1042	0.3412	0.076
Mof_C 	C 	0.2807	0.9077	0.3176	0.072
Mof_C 	C 	0.2426	0.9891	0.3204	0.06
Mof_C 	C 	0.6363	0.069	0.901	0.318
Mof_C 	C 	0.6466	0.9964	0.9852	-0.109
Mof_C 	C 	0.6561	0.0173	0.0472	0.062
Mof_C 	C 	0.6646	0.9499	0.1238	-0.096
Mof_C 	C 	0.6798	0.9622	0.1966	0.292
Mof_C 	C 	0.6643	0.8635	0.1388	0.027
Mof_C 	C 	0.6563	0.8436	0.0768	-0.08
Mof_C 	C 	0.6594	0.7498	0.096	0.299
Mof_C 	C 	0.6471	0.9119	0.9996	0.036
Mof_N 	N 	0.5476	0.4307	0.3064	-0.229
Mof_N 	N 	0.5495	0.4355	0.1624	-0.233
Mof_N 	N 	0.6041	0.5628	0.0982	-0.218
Mof_N 	N 	0.6168	0.5481	0.2676	-0.22
Mof_N 	N 	0.463	0.2544	0.2342	-0.232
Mof_N 	N 	0.6065	0.2451	0.3142	-0.242
Mof_N 	N 	0.6804	0.1262	0.3066	-0.24
Mof_N 	N 	0.5063	0.1343	0.2214	-0.208
Mof_N 	N 	0.3403	0.2796	0.758	-0.24
Mof_N 	N 	0.395	0.2142	0.6306	-0.214
Mof_N 	N 	0.5314	0.1972	0.674	-0.234
Mof_N 	N 	0.4866	0.2388	0.792	-0.238
Mof_N 	N 	0.7346	0.1583	0.722	-0.229
Mof_N 	N 	0.6642	0.3154	0.7094	-0.237
Mof_N 	N 	0.7795	0.3837	0.6484	-0.208
Mof_N 	N 	0.8549	0.2053	0.6494	-0.207
Mof_N 	N 	0.0476	0.7371	0.6936	-0.228
Mof_N 	N 	0.0495	0.5979	0.8376	-0.23
Mof_N 	N 	0.1041	0.661	0.9018	-0.218
Mof_N 	N 	0.1168	0.8157	0.7324	-0.218
Mof_N 	N 	0.963	0.4886	0.7658	-0.242
Mof_N 	N 	0.1065	0.5593	0.6858	-0.239
Mof_N 	N 	0.1804	0.4328	0.6934	-0.241
Mof_N 	N 	0.0063	0.3557	0.7786	-0.2
Mof_N 	N 	0.8403	0.0376	0.242	-0.231
Mof_N 	N 	0.895	0.8448	0.3694	-0.207
Mof_N 	N 	0.0314	0.8712	0.326	-0.233
Mof_N 	N 	0.9866	0.0308	0.208	-0.238
Mof_N 	N 	0.2346	0.8803	0.278	-0.233
Mof_N 	N 	0.1642	0.0248	0.2906	-0.227
Mof_N 	N 	0.2795	0.0321	0.3516	-0.2
Mof_N 	N 	0.3549	0.8547	0.3506	-0.208
Mof_O 	O 	0.0639	0.6076	0.2104	-0.209
Mof_O 	O 	0.9793	0.582	0.3152	-0.222
Mof_O 	O 	0.2402	0.3289	0.597	-0.425
Mof_O 	O 	0.0963	0.369	0.5878	-0.306
Mof_O 	O 	0.3995	0.3181	0.363	-0.392
Mof_O 	O 	0.3649	0.42441	0.24578	-0.36
Mof_O 	O 	0.1555	0.0277	0.1144	-0.374
Mof_O 	O 	0.1054	0.9035	0.1516	-0.36
Mof_O 	O 	0.1398	0.7738	0.957	-0.237
Mof_O 	O 	0.1813	0.8592	0.8342	-0.25
Mof_O 	O 	0.1504	0.2288	0.8072	-0.405
Mof_O 	O 	0.2213	0.1601	0.7446	-0.334
Mof_O 	O 	0.5639	0.818	0.7896	-0.209
Mof_O 	O 	0.4793	0.8972	0.6848	-0.209
Mof_O 	O 	0.7402	0.9259	0.403	-0.43
Mof_O 	O 	0.5963	0.9568	0.4122	-0.316
Mof_O 	O 	0.8995	0.6811	0.637	-0.396
Mof_O 	O 	0.8649	0.67019	0.75422	-0.364
Mof_O 	O 	0.6555	0.1421	0.8856	-0.391
Mof_O 	O 	0.6054	0.0551	0.8484	-0.363
Mof_O 	O 	0.6398	0.7308	0.043	-0.24
Mof_O 	O 	0.6813	0.6934	0.1658	-0.251
Mof_O 	O 	0.6504	0.036	0.1928	-0.398
Mof_O 	O 	0.7213	0.9047	0.2554	-0.337
_end
