data_functionalizedCrystal
_audit_creation_method	'EQeq! by Chris Wilmer'
_symmetry_space_group_name_H-M	'P1'
_symmetry_Int_Tables_number	1
_symmetry_cell_setting	triclinic
loop_
_symmetry_equiv_pos_as_xyz
  x,y,z
_cell_length_a	18.8163
_cell_length_b	18.8163
_cell_length_c	38.079
_cell_angle_alpha	90
_cell_angle_beta	90
_cell_angle_gamma	120
loop_
_atom_site_label
_atom_site_type_symbol
_atom_site_fract_x
_atom_site_fract_y
_atom_site_fract_z
_atom_site_charge
Mof_O 	O 	0.1115	0.483	0.00459	-0.396
Mof_O 	O 	0.0319	0.4446	0.95591	-0.397
Mof_C 	C 	0.0945	0.4555	0.97384	0.334
Mof_C 	C 	0.1531	0.4337	0.95653	-0.058
Mof_C 	C 	0.1386	0.4047	0.92186	-0.038
Mof_H 	H 	0.0913	0.396	0.9103	0.066
Mof_C 	C 	0.1028	0.3119	0.8557	0.04
Mof_C 	C 	0.1391	0.3851	0.8458	-0.023
Mof_N 	N 	0.08733	0.28157	0.82087	-0.119
Mof_O 	O 	0.77817	0.81633	0.33792	-0.395
Mof_O 	O 	0.69857	0.77793	0.28924	-0.396
Mof_C 	C 	0.76117	0.78883	0.30717	0.334
Mof_C 	C 	0.81977	0.76703	0.28986	-0.058
Mof_C 	C 	0.80527	0.73803	0.25519	-0.039
Mof_H 	H 	0.75797	0.72933	0.24363	0.066
Mof_C 	C 	0.76947	0.64523	0.18903	0.04
Mof_C 	C 	0.80577	0.71843	0.17913	-0.023
Mof_N 	N 	0.754	0.6149	0.1542	-0.119
Mof_O 	O 	0.44483	0.14967	0.67126	-0.395
Mof_O 	O 	0.36523	0.11127	0.62258	-0.396
Mof_C 	C 	0.42783	0.12217	0.64051	0.334
Mof_C 	C 	0.48643	0.10037	0.6232	-0.058
Mof_C 	C 	0.47193	0.07137	0.58853	-0.038
Mof_H 	H 	0.42463	0.06267	0.57697	0.066
Mof_C 	C 	0.43613	0.97857	0.52237	0.04
Mof_C 	C 	0.47243	0.05177	0.51247	-0.023
Mof_N 	N 	0.42067	0.94823	0.48753	-0.119
Mof_O 	O 	0.517	0.6285	0.00459	-0.395
Mof_O 	O 	0.5554	0.5873	0.95591	-0.396
Mof_C 	C 	0.5445	0.639	0.97384	0.334
Mof_C 	C 	0.5663	0.7194	0.95653	-0.058
Mof_C 	C 	0.5953	0.7339	0.92186	-0.038
Mof_H 	H 	0.604	0.6953	0.9103	0.066
Mof_C 	C 	0.6881	0.7909	0.8557	0.04
Mof_C 	C 	0.6149	0.754	0.8458	-0.023
Mof_N 	N 	0.71843	0.80577	0.82087	-0.119
Mof_O 	O 	0.18367	0.96183	0.33792	-0.395
Mof_O 	O 	0.22207	0.92063	0.28924	-0.396
Mof_C 	C 	0.21117	0.97233	0.30717	0.334
Mof_C 	C 	0.23297	0.05273	0.28986	-0.058
Mof_C 	C 	0.26197	0.06723	0.25519	-0.039
Mof_H 	H 	0.27067	0.02863	0.24363	0.066
Mof_C 	C 	0.35477	0.12423	0.18903	0.04
Mof_C 	C 	0.28157	0.08733	0.17913	-0.023
Mof_N 	N 	0.3851	0.1391	0.1542	-0.119
Mof_O 	O 	0.85033	0.29517	0.67126	-0.395
Mof_O 	O 	0.88873	0.25397	0.62258	-0.396
Mof_C 	C 	0.87783	0.30567	0.64051	0.334
Mof_C 	C 	0.89963	0.38607	0.6232	-0.058
Mof_C 	C 	0.92863	0.40057	0.58853	-0.038
Mof_H 	H 	0.93733	0.36197	0.57697	0.066
Mof_C 	C 	0.02143	0.45757	0.52237	0.04
Mof_C 	C 	0.94823	0.42067	0.51247	-0.023
Mof_N 	N 	0.05177	0.47243	0.48753	-0.119
Mof_O 	O 	0.3715	0.8885	0.00459	-0.395
Mof_O 	O 	0.4127	0.9681	0.95591	-0.396
Mof_C 	C 	0.361	0.9055	0.97384	0.334
Mof_C 	C 	0.2806	0.8469	0.95653	-0.058
Mof_C 	C 	0.2661	0.8614	0.92186	-0.038
Mof_H 	H 	0.3047	0.9087	0.9103	0.066
Mof_C 	C 	0.2091	0.8972	0.8557	0.04
Mof_C 	C 	0.246	0.8609	0.8458	-0.023
Mof_N 	N 	0.19423	0.91267	0.82087	-0.119
Mof_O 	O 	0.03817	0.22183	0.33792	-0.395
Mof_O 	O 	0.07937	0.30143	0.28924	-0.396
Mof_C 	C 	0.02767	0.23883	0.30717	0.334
Mof_C 	C 	0.94727	0.18023	0.28986	-0.058
Mof_C 	C 	0.93277	0.19473	0.25519	-0.039
Mof_H 	H 	0.97137	0.24203	0.24363	0.066
Mof_C 	C 	0.87577	0.23053	0.18903	0.04
Mof_C 	C 	0.91267	0.19423	0.17913	-0.023
Mof_N 	N 	0.8609	0.246	0.1542	-0.119
Mof_O 	O 	0.70483	0.55517	0.67126	-0.395
Mof_O 	O 	0.74603	0.63477	0.62258	-0.396
Mof_C 	C 	0.69433	0.57217	0.64051	0.334
Mof_C 	C 	0.61393	0.51357	0.6232	-0.058
Mof_C 	C 	0.59943	0.52807	0.58853	-0.038
Mof_H 	H 	0.63803	0.57537	0.57697	0.066
Mof_C 	C 	0.54243	0.56387	0.52237	0.04
Mof_C 	C 	0.57933	0.52757	0.51247	-0.023
Mof_N 	N 	0.52757	0.57933	0.48753	-0.119
Mof_O 	O 	0.483	0.1115	0.99541	-0.395
Mof_O 	O 	0.4446	0.0319	0.04409	-0.396
Mof_C 	C 	0.4555	0.0945	0.02616	0.335
Mof_C 	C 	0.4337	0.1531	0.04347	-0.058
Mof_C 	C 	0.4047	0.1386	0.07814	-0.037
Mof_H 	H 	0.396	0.0913	0.0897	0.069
Mof_C 	C 	0.3119	0.1028	0.1443	0.057
Mof_O 	O 	0.14967	0.44483	0.32874	-0.395
Mof_O 	O 	0.11127	0.36523	0.37742	-0.396
Mof_C 	C 	0.12217	0.42783	0.35949	0.334
Mof_C 	C 	0.10037	0.48643	0.3768	-0.058
Mof_C 	C 	0.07137	0.47193	0.41147	-0.037
Mof_H 	H 	0.06267	0.42463	0.42303	0.069
Mof_C 	C 	0.97857	0.43613	0.47763	0.057
Mof_O 	O 	0.81633	0.77817	0.66208	-0.395
Mof_O 	O 	0.77793	0.69857	0.71076	-0.396
Mof_C 	C 	0.78883	0.76117	0.69283	0.334
Mof_C 	C 	0.76703	0.81977	0.71014	-0.058
Mof_C 	C 	0.73803	0.80527	0.74481	-0.037
Mof_H 	H 	0.72933	0.75797	0.75637	0.069
Mof_C 	C 	0.64523	0.76947	0.81097	0.057
Mof_O 	O 	0.6285	0.517	0.99541	-0.395
Mof_O 	O 	0.5873	0.5554	0.04409	-0.396
Mof_C 	C 	0.639	0.5445	0.02616	0.335
Mof_C 	C 	0.7194	0.5663	0.04347	-0.058
Mof_C 	C 	0.7339	0.5953	0.07814	-0.037
Mof_H 	H 	0.6953	0.604	0.0897	0.069
Mof_C 	C 	0.7909	0.6881	0.1443	0.057
Mof_O 	O 	0.29517	0.85033	0.32874	-0.395
Mof_O 	O 	0.25397	0.88873	0.37742	-0.396
Mof_C 	C 	0.30567	0.87783	0.35949	0.334
Mof_C 	C 	0.38607	0.89963	0.3768	-0.058
Mof_C 	C 	0.40057	0.92863	0.41147	-0.037
Mof_H 	H 	0.36197	0.93733	0.42303	0.069
Mof_C 	C 	0.45757	0.02143	0.47763	0.057
Mof_O 	O 	0.96183	0.18367	0.66208	-0.395
Mof_O 	O 	0.92063	0.22207	0.71076	-0.396
Mof_C 	C 	0.97233	0.21117	0.69283	0.334
Mof_C 	C 	0.05273	0.23297	0.71014	-0.058
Mof_C 	C 	0.06723	0.26197	0.74481	-0.037
Mof_H 	H 	0.02863	0.27067	0.75637	0.069
Mof_C 	C 	0.12423	0.35477	0.81097	0.057
Mof_O 	O 	0.8885	0.3715	0.99541	-0.395
Mof_O 	O 	0.9681	0.4127	0.04409	-0.396
Mof_C 	C 	0.9055	0.361	0.02616	0.335
Mof_C 	C 	0.8469	0.2806	0.04347	-0.058
Mof_C 	C 	0.8614	0.2661	0.07814	-0.037
Mof_H 	H 	0.9087	0.3047	0.0897	0.069
Mof_C 	C 	0.8972	0.2091	0.1443	0.057
Mof_O 	O 	0.55517	0.70483	0.32874	-0.395
Mof_O 	O 	0.63477	0.74603	0.37742	-0.396
Mof_C 	C 	0.57217	0.69433	0.35949	0.335
Mof_C 	C 	0.51357	0.61393	0.3768	-0.058
Mof_C 	C 	0.52807	0.59943	0.41147	-0.037
Mof_H 	H 	0.57537	0.63803	0.42303	0.069
Mof_C 	C 	0.56387	0.54243	0.47763	0.057
Mof_O 	O 	0.22183	0.03817	0.66208	-0.395
Mof_O 	O 	0.30143	0.07937	0.71076	-0.396
Mof_C 	C 	0.23883	0.02767	0.69283	0.334
Mof_C 	C 	0.18023	0.94727	0.71014	-0.058
Mof_C 	C 	0.19473	0.93277	0.74481	-0.037
Mof_H 	H 	0.24203	0.97137	0.75637	0.069
Mof_C 	C 	0.23053	0.87577	0.81097	0.057
Mof_O 	O 	0.8885	0.517	0.99541	-0.395
Mof_O 	O 	0.9681	0.5554	0.04409	-0.396
Mof_C 	C 	0.9055	0.5445	0.02616	0.334
Mof_C 	C 	0.8469	0.5663	0.04347	-0.058
Mof_C 	C 	0.8614	0.5953	0.07814	-0.038
Mof_H 	H 	0.9087	0.604	0.0897	0.066
Mof_C 	C 	0.8972	0.6881	0.1443	0.04
Mof_C 	C 	0.8609	0.6149	0.1542	-0.023
Mof_N 	N 	0.91267	0.71843	0.17913	-0.119
Mof_O 	O 	0.55517	0.85033	0.32874	-0.395
Mof_O 	O 	0.63477	0.88873	0.37742	-0.396
Mof_C 	C 	0.57217	0.87783	0.35949	0.334
Mof_C 	C 	0.51357	0.89963	0.3768	-0.058
Mof_C 	C 	0.52807	0.92863	0.41147	-0.038
Mof_H 	H 	0.57537	0.93733	0.42303	0.066
Mof_C 	C 	0.56387	0.02143	0.47763	0.04
Mof_C 	C 	0.52757	0.94823	0.48753	-0.023
Mof_N 	N 	0.57933	0.05177	0.51247	-0.119
Mof_O 	O 	0.22183	0.18367	0.66208	-0.395
Mof_O 	O 	0.30143	0.22207	0.71076	-0.396
Mof_C 	C 	0.23883	0.21117	0.69283	0.334
Mof_C 	C 	0.18023	0.23297	0.71014	-0.058
Mof_C 	C 	0.19473	0.26197	0.74481	-0.039
Mof_H 	H 	0.24203	0.27067	0.75637	0.066
Mof_C 	C 	0.23053	0.35477	0.81097	0.04
Mof_C 	C 	0.19423	0.28157	0.82087	-0.023
Mof_N 	N 	0.246	0.3851	0.8458	-0.119
Mof_O 	O 	0.483	0.3715	0.99541	-0.395
Mof_O 	O 	0.4446	0.4127	0.04409	-0.396
Mof_C 	C 	0.4555	0.361	0.02616	0.334
Mof_C 	C 	0.4337	0.2806	0.04347	-0.058
Mof_C 	C 	0.4047	0.2661	0.07814	-0.038
Mof_H 	H 	0.396	0.3047	0.0897	0.066
Mof_C 	C 	0.3119	0.2091	0.1443	0.04
Mof_C 	C 	0.3851	0.246	0.1542	-0.023
Mof_N 	N 	0.28157	0.19423	0.17913	-0.119
Mof_O 	O 	0.14967	0.70483	0.32874	-0.395
Mof_O 	O 	0.11127	0.74603	0.37742	-0.396
Mof_C 	C 	0.12217	0.69433	0.35949	0.334
Mof_C 	C 	0.10037	0.61393	0.3768	-0.058
Mof_C 	C 	0.07137	0.59943	0.41147	-0.038
Mof_H 	H 	0.06267	0.63803	0.42303	0.066
Mof_C 	C 	0.97857	0.54243	0.47763	0.04
Mof_C 	C 	0.05177	0.57933	0.48753	-0.023
Mof_N 	N 	0.94823	0.52757	0.51247	-0.119
Mof_O 	O 	0.81633	0.03817	0.66208	-0.395
Mof_O 	O 	0.77793	0.07937	0.71076	-0.396
Mof_C 	C 	0.78883	0.02767	0.69283	0.334
Mof_C 	C 	0.76703	0.94727	0.71014	-0.058
Mof_C 	C 	0.73803	0.93277	0.74481	-0.039
Mof_H 	H 	0.72933	0.97137	0.75637	0.066
Mof_C 	C 	0.64523	0.87577	0.81097	0.04
Mof_C 	C 	0.71843	0.91267	0.82087	-0.023
Mof_N 	N 	0.6149	0.8609	0.8458	-0.119
Mof_O 	O 	0.6285	0.1115	0.99541	-0.395
Mof_O 	O 	0.5873	0.0319	0.04409	-0.396
Mof_C 	C 	0.639	0.0945	0.02616	0.334
Mof_C 	C 	0.7194	0.1531	0.04347	-0.058
Mof_C 	C 	0.7339	0.1386	0.07814	-0.038
Mof_H 	H 	0.6953	0.0913	0.0897	0.066
Mof_C 	C 	0.7909	0.1028	0.1443	0.04
Mof_C 	C 	0.754	0.1391	0.1542	-0.023
Mof_N 	N 	0.80577	0.08733	0.17913	-0.119
Mof_O 	O 	0.29517	0.44483	0.32874	-0.395
Mof_O 	O 	0.25397	0.36523	0.37742	-0.396
Mof_C 	C 	0.30567	0.42783	0.35949	0.334
Mof_C 	C 	0.38607	0.48643	0.3768	-0.058
Mof_C 	C 	0.40057	0.47193	0.41147	-0.038
Mof_H 	H 	0.36197	0.42463	0.42303	0.066
Mof_C 	C 	0.45757	0.43613	0.47763	0.04
Mof_C 	C 	0.42067	0.47243	0.48753	-0.023
Mof_N 	N 	0.47243	0.42067	0.51247	-0.119
Mof_O 	O 	0.96183	0.77817	0.66208	-0.395
Mof_O 	O 	0.92063	0.69857	0.71076	-0.396
Mof_C 	C 	0.97233	0.76117	0.69283	0.334
Mof_C 	C 	0.05273	0.81977	0.71014	-0.058
Mof_C 	C 	0.06723	0.80527	0.74481	-0.039
Mof_H 	H 	0.02863	0.75797	0.75637	0.066
Mof_C 	C 	0.12423	0.76947	0.81097	0.04
Mof_C 	C 	0.08733	0.80577	0.82087	-0.023
Mof_N 	N 	0.1391	0.754	0.8458	-0.119
Mof_O 	O 	0.517	0.8885	0.00459	-0.395
Mof_O 	O 	0.5554	0.9681	0.95591	-0.396
Mof_C 	C 	0.5445	0.9055	0.97384	0.335
Mof_C 	C 	0.5663	0.8469	0.95653	-0.058
Mof_C 	C 	0.5953	0.8614	0.92186	-0.037
Mof_H 	H 	0.604	0.9087	0.9103	0.069
Mof_C 	C 	0.6881	0.8972	0.8557	0.057
Mof_O 	O 	0.18367	0.22183	0.33792	-0.395
Mof_O 	O 	0.22207	0.30143	0.28924	-0.396
Mof_C 	C 	0.21117	0.23883	0.30717	0.334
Mof_C 	C 	0.23297	0.18023	0.28986	-0.058
Mof_C 	C 	0.26197	0.19473	0.25519	-0.037
Mof_H 	H 	0.27067	0.24203	0.24363	0.069
Mof_C 	C 	0.35477	0.23053	0.18903	0.057
Mof_O 	O 	0.85033	0.55517	0.67126	-0.395
Mof_O 	O 	0.88873	0.63477	0.62258	-0.396
Mof_C 	C 	0.87783	0.57217	0.64051	0.334
Mof_C 	C 	0.89963	0.51357	0.6232	-0.058
Mof_C 	C 	0.92863	0.52807	0.58853	-0.037
Mof_H 	H 	0.93733	0.57537	0.57697	0.069
Mof_C 	C 	0.02143	0.56387	0.52237	0.057
Mof_O 	O 	0.3715	0.483	0.00459	-0.395
Mof_O 	O 	0.4127	0.4446	0.95591	-0.396
Mof_C 	C 	0.361	0.4555	0.97384	0.335
Mof_C 	C 	0.2806	0.4337	0.95653	-0.058
Mof_C 	C 	0.2661	0.4047	0.92186	-0.037
Mof_H 	H 	0.3047	0.396	0.9103	0.069
Mof_C 	C 	0.2091	0.3119	0.8557	0.057
Mof_O 	O 	0.03817	0.81633	0.33792	-0.395
Mof_O 	O 	0.07937	0.77793	0.28924	-0.396
Mof_C 	C 	0.02767	0.78883	0.30717	0.334
Mof_C 	C 	0.94727	0.76703	0.28986	-0.058
Mof_C 	C 	0.93277	0.73803	0.25519	-0.037
Mof_H 	H 	0.97137	0.72933	0.24363	0.069
Mof_C 	C 	0.87577	0.64523	0.18903	0.057
Mof_O 	O 	0.70483	0.14967	0.67126	-0.395
Mof_O 	O 	0.74603	0.11127	0.62258	-0.396
Mof_C 	C 	0.69433	0.12217	0.64051	0.334
Mof_C 	C 	0.61393	0.10037	0.6232	-0.058
Mof_C 	C 	0.59943	0.07137	0.58853	-0.037
Mof_H 	H 	0.63803	0.06267	0.57697	0.069
Mof_C 	C 	0.54243	0.97857	0.52237	0.057
Mof_O 	O 	0.1115	0.6285	0.00459	-0.395
Mof_O 	O 	0.0319	0.5873	0.95591	-0.396
Mof_C 	C 	0.0945	0.639	0.97384	0.335
Mof_C 	C 	0.1531	0.7194	0.95653	-0.058
Mof_C 	C 	0.1386	0.7339	0.92186	-0.037
Mof_H 	H 	0.0913	0.6953	0.9103	0.069
Mof_C 	C 	0.1028	0.7909	0.8557	0.057
Mof_O 	O 	0.77817	0.96183	0.33792	-0.395
Mof_O 	O 	0.69857	0.92063	0.28924	-0.396
Mof_C 	C 	0.76117	0.97233	0.30717	0.334
Mof_C 	C 	0.81977	0.05273	0.28986	-0.058
Mof_C 	C 	0.80527	0.06723	0.25519	-0.037
Mof_H 	H 	0.75797	0.02863	0.24363	0.069
Mof_C 	C 	0.76947	0.12423	0.18903	0.057
Mof_O 	O 	0.44483	0.29517	0.67126	-0.395
Mof_O 	O 	0.36523	0.25397	0.62258	-0.396
Mof_C 	C 	0.42783	0.30567	0.64051	0.335
Mof_C 	C 	0.48643	0.38607	0.6232	-0.058
Mof_C 	C 	0.47193	0.40057	0.58853	-0.037
Mof_H 	H 	0.42463	0.36197	0.57697	0.069
Mof_C 	C 	0.43613	0.45757	0.52237	0.057
Mof_Cu	Cu	0.04598	0.52299	0.02875	0.906
Mof_Cu	Cu	0.71265	0.85632	0.36208	0.906
Mof_Cu	Cu	0.37931	0.18966	0.69542	0.906
Mof_Cu	Cu	0.47701	0.52299	0.02875	0.906
Mof_Cu	Cu	0.14368	0.85632	0.36208	0.906
Mof_Cu	Cu	0.81034	0.18966	0.69542	0.906
Mof_Cu	Cu	0.47701	0.95402	0.02875	0.906
Mof_Cu	Cu	0.14368	0.28735	0.36208	0.906
Mof_Cu	Cu	0.81034	0.62069	0.69542	0.906
Mof_Cu	Cu	0.52299	0.04598	0.97125	0.906
Mof_Cu	Cu	0.18966	0.37931	0.30458	0.906
Mof_Cu	Cu	0.85632	0.71265	0.63792	0.906
Mof_Cu	Cu	0.52299	0.47701	0.97125	0.906
Mof_Cu	Cu	0.18966	0.81034	0.30458	0.906
Mof_Cu	Cu	0.85632	0.14368	0.63792	0.906
Mof_Cu	Cu	0.95402	0.47701	0.97125	0.906
Mof_Cu	Cu	0.62069	0.81034	0.30458	0.906
Mof_Cu	Cu	0.28735	0.14368	0.63792	0.906
Mof_C 	C 	0.2244	0.4488	0.9735	0.005
Mof_H 	H 	0.2346	0.4692	0.9963	0.062
Mof_C 	C 	0.19445	0.3889	0.9046	0.023
Mof_C 	C 	0.181	0.362	0.8673	0.019
Mof_C 	C 	0.89107	0.78213	0.30683	0.005
Mof_H 	H 	0.90127	0.80253	0.32963	0.062
Mof_C 	C 	0.86112	0.72223	0.23793	0.023
Mof_C 	C 	0.84767	0.69533	0.20063	0.019
Mof_C 	C 	0.55773	0.11547	0.64017	0.005
Mof_H 	H 	0.56793	0.13587	0.66297	0.062
Mof_C 	C 	0.52778	0.05557	0.57127	0.023
Mof_C 	C 	0.51433	0.02867	0.53397	0.019
Mof_C 	C 	0.5512	0.7756	0.9735	0.005
Mof_H 	H 	0.5308	0.7654	0.9963	0.062
Mof_C 	C 	0.6111	0.80555	0.9046	0.023
Mof_C 	C 	0.638	0.819	0.8673	0.019
Mof_C 	C 	0.21787	0.10893	0.30683	0.005
Mof_H 	H 	0.19747	0.09873	0.32963	0.062
Mof_C 	C 	0.27777	0.13888	0.23793	0.023
Mof_C 	C 	0.30467	0.15233	0.20063	0.019
Mof_C 	C 	0.88453	0.44227	0.64017	0.005
Mof_H 	H 	0.86413	0.43207	0.66297	0.062
Mof_C 	C 	0.94443	0.47222	0.57127	0.023
Mof_C 	C 	0.97133	0.48567	0.53397	0.019
Mof_C 	C 	0.2244	0.7756	0.9735	0.005
Mof_H 	H 	0.2346	0.7654	0.9963	0.062
Mof_C 	C 	0.19445	0.80555	0.9046	0.023
Mof_C 	C 	0.181	0.819	0.8673	0.019
Mof_C 	C 	0.89107	0.10893	0.30683	0.005
Mof_H 	H 	0.90127	0.09873	0.32963	0.062
Mof_C 	C 	0.86112	0.13888	0.23793	0.023
Mof_C 	C 	0.84767	0.15233	0.20063	0.019
Mof_C 	C 	0.55773	0.44227	0.64017	0.005
Mof_H 	H 	0.56793	0.43207	0.66297	0.062
Mof_C 	C 	0.52778	0.47222	0.57127	0.023
Mof_C 	C 	0.51433	0.48567	0.53397	0.019
Mof_C 	C 	0.4488	0.2244	0.0265	0.005
Mof_H 	H 	0.4692	0.2346	0.0037	0.062
Mof_C 	C 	0.3889	0.19445	0.0954	0.023
Mof_C 	C 	0.362	0.181	0.1327	0.019
Mof_C 	C 	0.11547	0.55773	0.35983	0.005
Mof_H 	H 	0.13587	0.56793	0.33703	0.062
Mof_C 	C 	0.05557	0.52778	0.42873	0.023
Mof_C 	C 	0.02867	0.51433	0.46603	0.019
Mof_C 	C 	0.78213	0.89107	0.69317	0.005
Mof_H 	H 	0.80253	0.90127	0.67037	0.062
Mof_C 	C 	0.72223	0.86112	0.76207	0.023
Mof_C 	C 	0.69533	0.84767	0.79937	0.019
Mof_C 	C 	0.7756	0.5512	0.0265	0.005
Mof_H 	H 	0.7654	0.5308	0.0037	0.062
Mof_C 	C 	0.80555	0.6111	0.0954	0.023
Mof_C 	C 	0.819	0.638	0.1327	0.019
Mof_C 	C 	0.44227	0.88453	0.35983	0.005
Mof_H 	H 	0.43207	0.86413	0.33703	0.062
Mof_C 	C 	0.47222	0.94443	0.42873	0.023
Mof_C 	C 	0.48567	0.97133	0.46603	0.019
Mof_C 	C 	0.10893	0.21787	0.69317	0.005
Mof_H 	H 	0.09873	0.19747	0.67037	0.062
Mof_C 	C 	0.13888	0.27777	0.76207	0.023
Mof_C 	C 	0.15233	0.30467	0.79937	0.019
Mof_C 	C 	0.7756	0.2244	0.0265	0.005
Mof_H 	H 	0.7654	0.2346	0.0037	0.062
Mof_C 	C 	0.80555	0.19445	0.0954	0.023
Mof_C 	C 	0.819	0.181	0.1327	0.019
Mof_C 	C 	0.44227	0.55773	0.35983	0.005
Mof_H 	H 	0.43207	0.56793	0.33703	0.062
Mof_C 	C 	0.47222	0.52778	0.42873	0.023
Mof_C 	C 	0.48567	0.51433	0.46603	0.019
Mof_C 	C 	0.10893	0.89107	0.69317	0.005
Mof_H 	H 	0.09873	0.90127	0.67037	0.062
Mof_C 	C 	0.13888	0.86112	0.76207	0.023
Mof_C 	C 	0.15233	0.84767	0.79937	0.019
_end
