data_functionalizedCrystal
_audit_creation_method	'EQeq! by Chris Wilmer'
_symmetry_space_group_name_H-M	'P1'
_symmetry_Int_Tables_number	1
_symmetry_cell_setting	triclinic
loop_
_symmetry_equiv_pos_as_xyz
  x,y,z
_cell_length_a	11.5178
_cell_length_b	12.4126
_cell_length_c	13.1708
_cell_angle_alpha	94.261
_cell_angle_beta	92.978
_cell_angle_gamma	93.134
loop_
_atom_site_label
_atom_site_type_symbol
_atom_site_fract_x
_atom_site_fract_y
_atom_site_fract_z
_atom_site_charge
Mof_Cd	Cd	0.72349	0.0416	0.47506	0.402
Mof_Cd	Cd	0.12088	0.46578	0.7266	0.413
Mof_Cd	Cd	0.47107	0.68328	0.12148	0.408
Mof_C 	C 	0.4369	0.4528	0.34	-0.083
Mof_N 	N 	0.8521	0.1777	0.5536	-0.101
Mof_O 	O 	0.2128	0.5071	0.5779	-0.278
Mof_N 	N 	0.9932	0.3255	0.6471	-0.1
Mof_O 	O 	0.2817	0.375	0.659	-0.273
Mof_O 	O 	0.6316	0.1734	0.3515	-0.257
Mof_C 	C 	0.2793	0.4314	0.5836	0.305
Mof_O 	O 	0.5217	0.7758	0.9676	-0.258
Mof_O 	O 	0.5773	0.1535	0.5058	-0.266
Mof_O 	O 	0.7751	0.9091	0.5699	-0.296
Mof_C 	C 	0.4989	0.2974	0.4216	-0.083
Mof_O 	O 	0.5146	0.5093	0.1864	-0.248
Mof_C 	C 	0.5027	0.3635	0.3419	0.027
Mof_H 	H 	0.5505	0.3476	0.2887	0.055
Mof_C 	C 	0.5729	0.202	0.425	0.302
Mof_C 	C 	0.427	0.3217	0.5004	0.03
Mof_H 	H 	0.425	0.2783	0.5549	0.052
Mof_O 	O 	0.3893	0.6115	0.2616	-0.281
Mof_C 	C 	0.3586	0.4088	0.4991	-0.088
Mof_C 	C 	0.9476	0.6057	0.763	0.304
Mof_C 	C 	0.608	0.7197	0.9572	0.298
Mof_O 	O 	0.6303	0.6482	0.018	-0.256
Mof_O 	O 	0.9736	0.5437	0.8317	-0.267
Mof_C 	C 	0.4469	0.5291	0.2575	0.301
Mof_C 	C 	0.6862	0.7361	0.8724	-0.075
Mof_C 	C 	0.8275	0.7563	0.7079	0.022
Mof_H 	H 	0.8729	0.7615	0.6519	0.046
Mof_C 	C 	0.3637	0.4749	0.4189	0.029
Mof_H 	H 	0.318	0.5343	0.4178	0.045
Mof_C 	C 	0.6675	0.8146	0.8041	0.017
Mof_H 	H 	0.6072	0.8607	0.8133	0.06
Mof_C 	C 	0.7786	0.6693	0.8574	0.021
Mof_H 	H 	0.7925	0.6167	0.9026	0.055
Mof_O 	O 	0.0023	0.6072	0.6849	-0.28
Mof_O 	O 	0.6411	0.9766	0.6665	-0.246
Mof_C 	C 	0.8495	0.6797	0.7772	-0.082
Mof_C 	C 	0.7157	0.9099	0.6468	0.306
Mof_C 	C 	0.7379	0.8249	0.7223	-0.077
Mof_C 	C 	0.9688	0.1366	0.57	-0.058
Mof_H 	H 	0.0002	0.117	0.5047	0.051
Mof_H 	H 	0.963	0.0722	0.6073	0.05
Mof_C 	C 	0.8107	0.2119	0.6549	-0.073
Mof_H 	H 	0.8084	0.1509	0.6969	0.066
Mof_H 	H 	0.7324	0.2364	0.6471	0.078
Mof_C 	C 	0.8914	0.3027	0.7067	-0.056
Mof_H 	H 	0.8487	0.3677	0.7159	0.065
Mof_H 	H 	0.9176	0.283	0.7736	0.054
Mof_C 	C 	0.951	0.3582	0.5483	-0.064
Mof_H 	H 	0.0163	0.3685	0.5057	0.073
Mof_H 	H 	0.9147	0.4266	0.5579	0.074
Mof_C 	C 	0.8626	0.273	0.4945	-0.063
Mof_H 	H 	0.7873	0.3037	0.4868	0.074
Mof_H 	H 	0.8875	0.2517	0.4271	0.069
Mof_C 	C 	0.0512	0.2231	0.6303	-0.066
Mof_H 	H 	0.075	0.1974	0.6956	0.055
Mof_H 	H 	0.1204	0.2355	0.5929	0.066
Mof_Cd	Cd	0.27651	0.9584	0.52494	0.403
Mof_Cd	Cd	0.87912	0.53422	0.2734	0.414
Mof_Cd	Cd	0.52893	0.31672	0.87852	0.409
Mof_C 	C 	0.5631	0.5472	0.66	-0.082
Mof_N 	N 	0.1479	0.8223	0.4464	-0.101
Mof_O 	O 	0.7872	0.4929	0.4221	-0.278
Mof_N 	N 	0.0068	0.6745	0.3529	-0.1
Mof_O 	O 	0.7183	0.625	0.341	-0.273
Mof_O 	O 	0.3684	0.8266	0.6485	-0.257
Mof_C 	C 	0.7207	0.5686	0.4164	0.305
Mof_O 	O 	0.4783	0.2242	0.0324	-0.258
Mof_O 	O 	0.4227	0.8465	0.4942	-0.266
Mof_O 	O 	0.2249	0.0909	0.4301	-0.296
Mof_C 	C 	0.5011	0.7026	0.5784	-0.083
Mof_O 	O 	0.4854	0.4907	0.8136	-0.248
Mof_C 	C 	0.4973	0.6365	0.6581	0.027
Mof_H 	H 	0.4495	0.6524	0.7113	0.055
Mof_C 	C 	0.4271	0.798	0.575	0.302
Mof_C 	C 	0.573	0.6783	0.4996	0.03
Mof_H 	H 	0.575	0.7217	0.4451	0.052
Mof_O 	O 	0.6107	0.3885	0.7384	-0.281
Mof_C 	C 	0.6414	0.5912	0.5009	-0.088
Mof_C 	C 	0.0524	0.3943	0.237	0.304
Mof_C 	C 	0.392	0.2803	0.0428	0.298
Mof_O 	O 	0.3697	0.3518	0.982	-0.256
Mof_O 	O 	0.0264	0.4563	0.1683	-0.267
Mof_C 	C 	0.5531	0.4709	0.7425	0.301
Mof_C 	C 	0.3138	0.2639	0.1276	-0.075
Mof_C 	C 	0.1725	0.2437	0.2921	0.022
Mof_H 	H 	0.1271	0.2385	0.3481	0.046
Mof_C 	C 	0.6363	0.5251	0.5811	0.029
Mof_H 	H 	0.682	0.4657	0.5822	0.045
Mof_C 	C 	0.3325	0.1854	0.1959	0.017
Mof_H 	H 	0.3928	0.1393	0.1867	0.06
Mof_C 	C 	0.2214	0.3307	0.1426	0.021
Mof_H 	H 	0.2075	0.3833	0.0974	0.055
Mof_O 	O 	0.9977	0.3928	0.3151	-0.28
Mof_O 	O 	0.3589	0.0234	0.3335	-0.246
Mof_C 	C 	0.1505	0.3203	0.2228	-0.082
Mof_C 	C 	0.2843	0.0901	0.3532	0.306
Mof_C 	C 	0.2621	0.1751	0.2777	-0.077
Mof_C 	C 	0.0312	0.8634	0.43	-0.058
Mof_H 	H 	0.9998	0.883	0.4953	0.051
Mof_H 	H 	0.037	0.9278	0.3927	0.05
Mof_C 	C 	0.1893	0.7881	0.3451	-0.073
Mof_H 	H 	0.1916	0.8491	0.3031	0.066
Mof_H 	H 	0.2676	0.7636	0.3529	0.078
Mof_C 	C 	0.1086	0.6973	0.2933	-0.056
Mof_H 	H 	0.1513	0.6323	0.2841	0.065
Mof_H 	H 	0.0824	0.717	0.2264	0.054
Mof_C 	C 	0.049	0.6418	0.4517	-0.064
Mof_H 	H 	0.9837	0.6315	0.4943	0.073
Mof_H 	H 	0.0853	0.5734	0.4421	0.074
Mof_C 	C 	0.1374	0.727	0.5055	-0.063
Mof_H 	H 	0.2127	0.6963	0.5132	0.074
Mof_H 	H 	0.1125	0.7483	0.5729	0.069
Mof_C 	C 	0.9488	0.7769	0.3697	-0.066
Mof_H 	H 	0.925	0.8026	0.3044	0.055
Mof_H 	H 	0.8796	0.7645	0.4071	0.066
_end
