data_functionalizedCrystal
_audit_creation_method	'EQeq! by Chris Wilmer'
_symmetry_space_group_name_H-M	'P1'
_symmetry_Int_Tables_number	1
_symmetry_cell_setting	triclinic
loop_
_symmetry_equiv_pos_as_xyz
  x,y,z
_cell_length_a	20.0553
_cell_length_b	11.1462
_cell_length_c	19.5354
_cell_angle_alpha	90
_cell_angle_beta	108.352
_cell_angle_gamma	90
loop_
_atom_site_label
_atom_site_type_symbol
_atom_site_fract_x
_atom_site_fract_y
_atom_site_fract_z
_atom_site_charge
Mof_Zn	Zn	0.41162	0.70846	0.23228	1.208
Mof_Zn	Zn	0.27567	0.71259	0.09805	1.186
Mof_Zn	Zn	0.27852	0.56653	0.23845	1.21
Mof_Zn	Zn	0.27547	0.85268	0.23969	1.181
Mof_C 	C 	0.4108	0.5574	0.3568	0.419
Mof_C 	C 	0.4088	0.3764	0.5915	0.403
Mof_C 	C 	0.4484	0.5253	0.4338	-0.158
Mof_C 	C 	0.4136	0.4628	0.4744	0.083
Mof_H 	H 	0.3682	0.4349	0.4523	0.024
Mof_C 	C 	0.4463	0.4416	0.5475	-0.144
Mof_C 	C 	0.5145	0.4833	0.5791	0.065
Mof_H 	H 	0.5367	0.4698	0.628	0.024
Mof_C 	C 	0.55	0.5439	0.5399	-0.127
Mof_H 	H 	0.5957	0.5707	0.5619	0.063
Mof_C 	C 	0.5159	0.5652	0.4653	0.061
Mof_H 	H 	0.5392	0.6059	0.438	0.012
Mof_C 	C 	0.258	0.4326	0.1103	0.394
Mof_C 	C 	0.2515	0.9846	0.1112	0.376
Mof_C 	C 	0.2429	0.3163	0.0697	-0.111
Mof_C 	C 	0.2502	0.2085	0.1067	0.05
Mof_H 	H 	0.2634	0.2087	0.1568	0.038
Mof_C 	C 	0.2378	0.1001	0.0695	-0.104
Mof_C 	C 	0.2172	0.0993	0.9951	0.013
Mof_H 	H 	0.2091	0.027	0.97	0.016
Mof_C 	C 	0.2088	0.2081	0.9578	-0.098
Mof_H 	H 	0.1938	0.2083	0.9077	0.05
Mof_C 	C 	0.2226	0.3161	0.9954	0.014
Mof_H 	H 	0.2182	0.3881	0.9703	0.026
Mof_C 	C 	0.1518	0.6858	0.2398	0.381
Mof_C 	C 	0.9388	0.4451	0.2401	0.371
Mof_C 	C 	0.0752	0.6778	0.2327	-0.109
Mof_C 	C 	0.0439	0.5668	0.2357	0.012
Mof_H 	H 	0.07	0.4966	0.2402	0.048
Mof_C 	C 	0.973	0.5619	0.2318	-0.082
Mof_C 	C 	0.9352	0.6678	0.2248	0.007
Mof_H 	H 	0.8887	0.6655	0.2245	0.043
Mof_C 	C 	0.9657	0.7769	0.2181	-0.051
Mof_H 	H 	0.9393	0.8471	0.2109	0.054
Mof_C 	C 	0.0348	0.7802	0.2222	-0.007
Mof_H 	H 	0.0552	0.8535	0.2177	0.04
Mof_O 	O 	0.4433	0.6173	0.324	-0.521
Mof_O 	O 	0.3487	0.522	0.331	-0.513
Mof_O 	O 	0.3578	0.3133	0.5608	-0.488
Mof_O 	O 	0.4358	0.3906	0.6596	-0.491
Mof_O 	O 	0.2566	0.5268	0.0772	-0.498
Mof_O 	O 	0.2701	0.425	0.1787	-0.49
Mof_O 	O 	0.2761	0.8988	0.0853	-0.49
Mof_O 	O 	0.2387	0.9831	0.171	-0.485
Mof_O 	O 	0.1856	0.5885	0.2486	-0.505
Mof_O 	O 	0.1771	0.7875	0.2375	-0.509
Mof_O 	O 	0.3094	0.711	0.2035	-0.96
Mof_O 	O 	0.8818	0.4503	0.2528	-0.467
Mof_O 	O 	0.9697	0.3509	0.2329	-0.468
Mof_Zn	Zn	0.91162	0.20846	0.23228	1.209
Mof_Zn	Zn	0.77567	0.21259	0.09805	1.186
Mof_Zn	Zn	0.77852	0.06653	0.23845	1.21
Mof_Zn	Zn	0.77547	0.35268	0.23969	1.181
Mof_C 	C 	0.9108	0.0574	0.3568	0.402
Mof_C 	C 	0.9088	0.8764	0.5915	0.386
Mof_C 	C 	0.9484	0.0253	0.4338	-0.103
Mof_C 	C 	0.9136	0.9628	0.4744	0.04
Mof_H 	H 	0.8682	0.9349	0.4523	0.039
Mof_C 	C 	0.9463	0.9416	0.5475	-0.091
Mof_C 	C 	0.0145	0.9833	0.5791	-0.003
Mof_H 	H 	0.0367	0.9698	0.628	0.042
Mof_C 	C 	0.05	0.0439	0.5399	-0.072
Mof_H 	H 	0.0957	0.0707	0.5619	0.042
Mof_C 	C 	0.0159	0.0652	0.4653	-0.006
Mof_H 	H 	0.0392	0.1059	0.438	0.03
Mof_C 	C 	0.758	0.9326	0.1103	0.393
Mof_C 	C 	0.7515	0.4846	0.1112	0.376
Mof_C 	C 	0.7429	0.8163	0.0697	-0.11
Mof_C 	C 	0.7502	0.7085	0.1067	0.051
Mof_H 	H 	0.7634	0.7087	0.1568	0.038
Mof_C 	C 	0.7378	0.6001	0.0695	-0.104
Mof_C 	C 	0.7172	0.5993	0.9951	0.014
Mof_H 	H 	0.7091	0.527	0.97	0.017
Mof_C 	C 	0.7088	0.7081	0.9578	-0.097
Mof_H 	H 	0.6938	0.7083	0.9077	0.051
Mof_C 	C 	0.7226	0.8161	0.9954	0.015
Mof_H 	H 	0.7182	0.8881	0.9703	0.027
Mof_C 	C 	0.6518	0.1858	0.2398	0.399
Mof_C 	C 	0.4388	0.9451	0.2401	0.389
Mof_C 	C 	0.5752	0.1778	0.2327	-0.154
Mof_C 	C 	0.5439	0.0668	0.2357	0.077
Mof_H 	H 	0.57	0.9966	0.2402	0.03
Mof_C 	C 	0.473	0.0619	0.2318	-0.139
Mof_C 	C 	0.4352	0.1678	0.2248	0.065
Mof_H 	H 	0.3887	0.1655	0.2245	0.023
Mof_C 	C 	0.4657	0.2769	0.2181	-0.135
Mof_H 	H 	0.4393	0.3471	0.2109	0.081
Mof_C 	C 	0.5348	0.2802	0.2222	0.073
Mof_H 	H 	0.5552	0.3535	0.2177	0.018
Mof_O 	O 	0.9433	0.1173	0.324	-0.511
Mof_O 	O 	0.8487	0.022	0.331	-0.508
Mof_O 	O 	0.8578	0.8133	0.5608	-0.482
Mof_O 	O 	0.9358	0.8906	0.6596	-0.483
Mof_O 	O 	0.7566	0.0268	0.0772	-0.496
Mof_O 	O 	0.7701	0.925	0.1787	-0.489
Mof_O 	O 	0.7761	0.3988	0.0853	-0.489
Mof_O 	O 	0.7387	0.4831	0.171	-0.484
Mof_O 	O 	0.6856	0.0885	0.2486	-0.508
Mof_O 	O 	0.6771	0.2875	0.2375	-0.512
Mof_O 	O 	0.8094	0.211	0.2035	-0.96
Mof_O 	O 	0.3818	0.9503	0.2528	-0.473
Mof_O 	O 	0.4697	0.8509	0.2329	-0.478
Mof_Zn	Zn	0.41162	0.29154	0.73228	1.208
Mof_Zn	Zn	0.27567	0.28741	0.59805	1.186
Mof_Zn	Zn	0.27852	0.43347	0.73845	1.21
Mof_Zn	Zn	0.27547	0.14732	0.73969	1.181
Mof_C 	C 	0.4108	0.4426	0.8568	0.407
Mof_C 	C 	0.4088	0.6236	0.0915	0.39
Mof_C 	C 	0.4484	0.4747	0.9338	-0.127
Mof_C 	C 	0.4136	0.5372	0.9744	0.036
Mof_H 	H 	0.3682	0.5651	0.9523	0.035
Mof_C 	C 	0.4463	0.5584	0.0475	-0.103
Mof_C 	C 	0.5145	0.5167	0.0791	0.026
Mof_H 	H 	0.5367	0.5302	0.128	0.039
Mof_C 	C 	0.55	0.4561	0.0399	-0.072
Mof_H 	H 	0.5957	0.4293	0.0619	0.047
Mof_C 	C 	0.5159	0.4348	0.9653	0.01
Mof_H 	H 	0.5392	0.3941	0.938	0.027
Mof_C 	C 	0.258	0.5674	0.6103	0.408
Mof_C 	C 	0.2515	0.0154	0.6112	0.391
Mof_C 	C 	0.2429	0.6837	0.5697	-0.156
Mof_C 	C 	0.2502	0.7915	0.6067	0.086
Mof_H 	H 	0.2634	0.7913	0.6568	0.025
Mof_C 	C 	0.2378	0.8999	0.5695	-0.149
Mof_C 	C 	0.2172	0.9007	0.4951	0.069
Mof_H 	H 	0.2091	0.973	0.47	0.001
Mof_C 	C 	0.2088	0.7919	0.4578	-0.144
Mof_H 	H 	0.1938	0.7917	0.4077	0.067
Mof_C 	C 	0.2226	0.6839	0.4954	0.071
Mof_H 	H 	0.2182	0.6119	0.4703	0.011
Mof_C 	C 	0.1518	0.3142	0.7398	0.381
Mof_C 	C 	0.9388	0.5549	0.7401	0.371
Mof_C 	C 	0.0752	0.3222	0.7327	-0.11
Mof_C 	C 	0.0439	0.4332	0.7357	0.011
Mof_H 	H 	0.07	0.5034	0.7402	0.047
Mof_C 	C 	0.973	0.4381	0.7318	-0.083
Mof_C 	C 	0.9352	0.3322	0.7248	0.007
Mof_H 	H 	0.8887	0.3345	0.7245	0.043
Mof_C 	C 	0.9657	0.2231	0.7181	-0.052
Mof_H 	H 	0.9393	0.1529	0.7109	0.054
Mof_C 	C 	0.0348	0.2198	0.7222	-0.007
Mof_H 	H 	0.0552	0.1465	0.7177	0.04
Mof_O 	O 	0.4433	0.3827	0.824	-0.519
Mof_O 	O 	0.3487	0.478	0.831	-0.511
Mof_O 	O 	0.3578	0.6867	0.0608	-0.481
Mof_O 	O 	0.4358	0.6094	0.1596	-0.487
Mof_O 	O 	0.2566	0.4732	0.5772	-0.505
Mof_O 	O 	0.2701	0.575	0.6787	-0.494
Mof_O 	O 	0.2761	0.1012	0.5853	-0.497
Mof_O 	O 	0.2387	0.0169	0.671	-0.489
Mof_O 	O 	0.1856	0.4115	0.7486	-0.507
Mof_O 	O 	0.1771	0.2125	0.7375	-0.509
Mof_O 	O 	0.3094	0.289	0.7035	-0.96
Mof_O 	O 	0.8818	0.5497	0.7528	-0.468
Mof_O 	O 	0.9697	0.6491	0.7329	-0.469
Mof_Zn	Zn	0.91162	0.79154	0.73228	1.208
Mof_Zn	Zn	0.77567	0.78741	0.59805	1.186
Mof_Zn	Zn	0.77852	0.93347	0.73845	1.21
Mof_Zn	Zn	0.77547	0.64732	0.73969	1.181
Mof_C 	C 	0.9108	0.9426	0.8568	0.392
Mof_C 	C 	0.9088	0.1236	0.0915	0.374
Mof_C 	C 	0.9484	0.9747	0.9338	-0.077
Mof_C 	C 	0.9136	0.0372	0.9744	-0.003
Mof_H 	H 	0.8682	0.0651	0.9523	0.049
Mof_C 	C 	0.9463	0.0584	0.0475	-0.053
Mof_C 	C 	0.0145	0.0167	0.0791	-0.037
Mof_H 	H 	0.0367	0.0302	0.128	0.054
Mof_C 	C 	0.05	0.9561	0.0399	-0.024
Mof_H 	H 	0.0957	0.9293	0.0619	0.028
Mof_C 	C 	0.0159	0.9348	0.9653	-0.052
Mof_H 	H 	0.0392	0.8941	0.938	0.042
Mof_C 	C 	0.758	0.0674	0.6103	0.409
Mof_C 	C 	0.7515	0.5154	0.6112	0.389
Mof_C 	C 	0.7429	0.1837	0.5697	-0.154
Mof_C 	C 	0.7502	0.2915	0.6067	0.086
Mof_H 	H 	0.7634	0.2913	0.6568	0.025
Mof_C 	C 	0.7378	0.3999	0.5695	-0.147
Mof_C 	C 	0.7172	0.4007	0.4951	0.069
Mof_H 	H 	0.7091	0.473	0.47	0.003
Mof_C 	C 	0.7088	0.2919	0.4578	-0.142
Mof_H 	H 	0.6938	0.2917	0.4077	0.068
Mof_C 	C 	0.7226	0.1839	0.4954	0.071
Mof_H 	H 	0.7182	0.1119	0.4703	0.013
Mof_C 	C 	0.6518	0.8142	0.7398	0.398
Mof_C 	C 	0.4388	0.0549	0.7401	0.389
Mof_C 	C 	0.5752	0.8222	0.7327	-0.154
Mof_C 	C 	0.5439	0.9332	0.7357	0.074
Mof_H 	H 	0.57	0.0034	0.7402	0.031
Mof_C 	C 	0.473	0.9381	0.7318	-0.14
Mof_C 	C 	0.4352	0.8322	0.7248	0.065
Mof_H 	H 	0.3887	0.8345	0.7245	0.022
Mof_C 	C 	0.4657	0.7231	0.7181	-0.136
Mof_H 	H 	0.4393	0.6529	0.7109	0.081
Mof_C 	C 	0.5348	0.7198	0.7222	0.072
Mof_H 	H 	0.5552	0.6465	0.7177	0.018
Mof_O 	O 	0.9433	0.8827	0.824	-0.51
Mof_O 	O 	0.8487	0.978	0.831	-0.506
Mof_O 	O 	0.8578	0.1867	0.0608	-0.475
Mof_O 	O 	0.9358	0.1094	0.1596	-0.479
Mof_O 	O 	0.7566	0.9732	0.5772	-0.505
Mof_O 	O 	0.7701	0.075	0.6787	-0.493
Mof_O 	O 	0.7761	0.6012	0.5853	-0.496
Mof_O 	O 	0.7387	0.5169	0.671	-0.488
Mof_O 	O 	0.6856	0.9115	0.7486	-0.509
Mof_O 	O 	0.6771	0.7125	0.7375	-0.512
Mof_O 	O 	0.8094	0.789	0.7035	-0.96
Mof_O 	O 	0.3818	0.0497	0.7528	-0.474
Mof_O 	O 	0.4697	0.1491	0.7329	-0.48
_end
