data_functionalizedCrystal
_audit_creation_method	'EQeq! by Chris Wilmer'
_symmetry_space_group_name_H-M	'P1'
_symmetry_Int_Tables_number	1
_symmetry_cell_setting	triclinic
loop_
_symmetry_equiv_pos_as_xyz
  x,y,z
_cell_length_a	17.0774
_cell_length_b	12.5945
_cell_length_c	17.0774
_cell_angle_alpha	90.0219
_cell_angle_beta	90.0156
_cell_angle_gamma	90.0163
loop_
_atom_site_label
_atom_site_type_symbol
_atom_site_fract_x
_atom_site_fract_y
_atom_site_fract_z
_atom_site_charge
Mof_Zn	Zn	0.20006	0.57625	0.44387	1.204
Mof_Zn	Zn	0.19999	0.39825	0.31262	1.211
Mof_Zn	Zn	0.0688	0.57622	0.31262	1.154
Mof_Zn	Zn	0.06878	0.39831	0.44384	1.265
Mof_O 	O 	0.13441	0.48726	0.37824	-1.025
Mof_O 	O 	0.3099	0.55263	0.42647	-0.48
Mof_O 	O 	0.18257	0.42182	0.20277	-0.52
Mof_O 	O 	0.08625	0.72517	0.33004	-0.576
Mof_O 	O 	0.30985	0.42186	0.33004	-0.468
Mof_O 	O 	0.18269	0.72519	0.42647	-0.511
Mof_O 	O 	0.08619	0.55257	0.20277	-0.591
Mof_O 	O 	0.95895	0.55263	0.33002	-0.277
Mof_O 	O 	0.08621	0.42196	0.55369	-0.226
Mof_O 	O 	0.95893	0.42192	0.42642	-0.119
Mof_O 	O 	0.18267	0.55269	0.55371	-0.497
Mof_O 	O 	0.18255	0.24932	0.33001	-0.485
Mof_O 	O 	0.08614	0.24936	0.42642	-0.507
Mof_C 	C 	0.93046	0.48728	0.37822	0.197
Mof_C 	C 	0.84321	0.48726	0.37823	-0.012
Mof_C 	C 	0.80223	0.4191	0.42834	-0.064
Mof_C 	C 	0.72025	0.4191	0.42836	0.14
Mof_C 	C 	0.67925	0.48725	0.37825	0.001
Mof_C 	C 	0.72024	0.55542	0.32812	-0.03
Mof_C 	C 	0.80222	0.55543	0.32812	0.009
Mof_C 	C 	0.54937	0.5554	0.32814	0.197
Mof_C 	C 	0.46738	0.55539	0.32815	-0.114
Mof_C 	C 	0.4674	0.41907	0.42838	-0.079
Mof_C 	C 	0.54938	0.41908	0.42838	-0.018
Mof_C 	C 	0.59036	0.48724	0.37825	-0.029
Mof_C 	C 	0.13436	0.21072	0.37823	0.306
Mof_C 	C 	0.13441	0.09241	0.37825	-0.093
Mof_C 	C 	0.08197	0.02315	0.43065	-0.122
Mof_C 	C 	0.06285	0.95229	0.35903	0.053
Mof_C 	C 	0.1536	0.95247	0.44989	0.017
Mof_C 	C 	0.11525	0.02311	0.30659	-0.116
Mof_C 	C 	0.20603	0.0233	0.3975	0.103
Mof_C 	C 	0.18694	0.95248	0.32583	0.059
Mof_C 	C 	0.33915	0.48724	0.37826	0.332
Mof_C 	C 	0.4264	0.48723	0.37827	0.005
Mof_C 	C 	0.13444	0.48733	0.58298	0.209
Mof_C 	C 	0.13446	0.48736	0.67023	0.053
Mof_C 	C 	0.13448	0.76488	0.37826	0.366
Mof_C 	C 	0.13451	0.88319	0.37827	-0.128
Mof_C 	C 	0.13442	0.48726	0.17429	0.463
Mof_C 	C 	0.13456	0.48753	0.08704	-0.311
Mof_C 	C 	0.18477	0.55558	0.04606	0.288
Mof_C 	C 	0.18475	0.55554	0.96408	-0.351
Mof_C 	C 	0.13452	0.48746	0.92308	0.25
Mof_C 	C 	0.08431	0.41941	0.96407	-0.309
Mof_C 	C 	0.08433	0.41944	0.04605	0.315
Mof_C 	C 	0.08427	0.41935	0.7932	0.23
Mof_C 	C 	0.08425	0.41932	0.71121	-0.2
Mof_C 	C 	0.18469	0.55545	0.71123	-0.167
Mof_C 	C 	0.18471	0.55548	0.79321	0.226
Mof_C 	C 	0.1345	0.48743	0.83419	-0.247
Mof_H 	H 	0.434	0.6109	0.28735	0.109
Mof_H 	H 	0.00233	0.92107	0.34276	-0.076
Mof_H 	H 	0.83558	0.61094	0.28731	0.11
Mof_H 	H 	0.04342	0.36398	0.93068	0.035
Mof_H 	H 	0.03754	0.05417	0.4749	-0.185
Mof_H 	H 	0.09899	0.05401	0.24599	-0.017
Mof_H 	H 	0.23133	0.92165	0.28147	0.038
Mof_O 	O 	0.58905	0.62164	0.27937	-0.435
Mof_C 	C 	0.53529	0.68181	0.23516	1.196
Mof_H 	H 	0.47684	0.63822	0.2324	-0.235
Mof_H 	H 	0.5266	0.7626	0.26399	-0.166
Mof_C 	C 	0.63904	0.75082	0.15501	4.386
Mof_C 	C 	0.56725	0.69728	0.15162	-3.525
Mof_H 	H 	0.65876	0.76037	0.10348	-1.294
Mof_H 	H 	0.67526	0.71029	0.1848	-1.267
Mof_H 	H 	0.63179	0.81814	0.17905	-1.253
Mof_H 	H 	0.57451	0.62995	0.12759	1.161
Mof_H 	H 	0.53103	0.7378	0.12182	1.179
Mof_O 	O 	0.27819	0.0605	0.41708	-0.371
Mof_C 	C 	0.29816	0.02456	0.49267	1.051
Mof_H 	H 	0.24252	0.00462	0.52649	-0.261
Mof_H 	H 	0.33628	0.95056	0.48776	-0.124
Mof_C 	C 	0.41195	0.13665	0.49467	4.21
Mof_C 	C 	0.34362	0.11218	0.5362	-3.321
Mof_H 	H 	0.44	0.19069	0.52152	-1.295
Mof_H 	H 	0.39851	0.16086	0.44374	-1.252
Mof_H 	H 	0.44371	0.07498	0.49058	-1.248
Mof_H 	H 	0.31185	0.17384	0.54028	1.056
Mof_H 	H 	0.35706	0.08797	0.58713	1.064
Mof_O 	O 	0.23353	0.62147	0.83312	-0.346
Mof_C 	C 	0.28424	0.56088	0.88053	0.512
Mof_H 	H 	0.25654	0.48022	0.8928	-0.076
Mof_H 	H 	0.34241	0.54918	0.84895	-0.065
Mof_C 	C 	0.33249	0.71853	0.94335	1.67
Mof_C 	C 	0.29847	0.61947	0.95842	-1.589
Mof_H 	H 	0.34128	0.75467	0.99139	-0.469
Mof_H 	H 	0.29834	0.75935	0.91141	-0.477
Mof_H 	H 	0.38096	0.70876	0.91702	-0.463
Mof_H 	H 	0.25	0.62924	0.98473	0.565
Mof_H 	H 	0.33262	0.57865	0.99037	0.57
Mof_H 	H 	0.16979	0.92144	0.51047	0.013
Mof_H 	H 	0.22557	0.61086	0.67786	0.081
Mof_O 	O 	0.23345	0.62183	0.08592	-0.462
Mof_C 	C 	0.18879	0.69058	0.13335	0.975
Mof_H 	H 	0.12696	0.69716	0.10865	-0.214
Mof_H 	H 	0.1861	0.6577	0.19548	-0.179
Mof_C 	C 	0.30312	0.79315	0.16496	3.438
Mof_C 	C 	0.22718	0.80123	0.13461	-2.816
Mof_H 	H 	0.32679	0.8614	0.16574	-1.017
Mof_H 	H 	0.3332	0.74683	0.133	-0.993
Mof_H 	H 	0.30086	0.76575	0.21673	-1.001
Mof_H 	H 	0.22944	0.82862	0.08284	0.922
Mof_H 	H 	0.19709	0.84756	0.16656	0.915
Mof_H 	H 	0.22564	0.61095	0.93072	0.17
Mof_O 	O 	0.84214	0.35304	0.47706	0.462
Mof_C 	C 	0.88958	0.41356	0.52785	-3.964
Mof_H 	H 	0.90186	0.49427	0.50026	0.944
Mof_H 	H 	0.858	0.42515	0.58603	0.827
Mof_C 	C 	0.95235	0.25585	0.57587	-16.512
Mof_C 	C 	0.96745	0.35497	0.54198	12.155
Mof_H 	H 	0.00039	0.21971	0.58459	4.846
Mof_H 	H 	0.92039	0.21508	0.54166	5.074
Mof_H 	H 	0.92604	0.26552	0.62435	5.059
Mof_H 	H 	0.99375	0.3453	0.49349	-3.901
Mof_H 	H 	0.99941	0.39574	0.57618	-3.75
Mof_O 	O 	0.03542	0.35321	0.83289	-0.598
Mof_C 	C 	0.99109	0.2931	0.77912	0.734
Mof_H 	H 	0.98837	0.33667	0.72069	-0.132
Mof_H 	H 	0.01981	0.21225	0.7704	-0.447
Mof_C 	C 	0.91089	0.22427	0.88289	-0.215
Mof_C 	C 	0.90754	0.27779	0.81112	-0.321
Mof_H 	H 	0.85935	0.21483	0.90262	0.09
Mof_H 	H 	0.94075	0.26477	0.91911	0.17
Mof_H 	H 	0.93482	0.15691	0.87561	0.165
Mof_H 	H 	0.88362	0.34516	0.8184	0.137
Mof_H 	H 	0.87767	0.23731	0.7749	-0.009
Mof_H 	H 	0.43403	0.36357	0.4692	0.039
Mof_O 	O 	0.68035	0.35283	0.47693	-0.341
Mof_C 	C 	0.63292	0.28415	0.43215	0.615
Mof_H 	H 	0.62063	0.3218	0.37271	-0.091
Mof_H 	H 	0.66449	0.20529	0.42342	-0.106
Mof_C 	C 	0.57016	0.21855	0.54832	2.063
Mof_C 	C 	0.55505	0.2648	0.47532	-1.744
Mof_H 	H 	0.52213	0.20661	0.57495	-0.542
Mof_H 	H 	0.60212	0.26482	0.57849	-0.648
Mof_H 	H 	0.59647	0.15284	0.54104	-0.605
Mof_H 	H 	0.52875	0.33052	0.48261	0.644
Mof_H 	H 	0.52309	0.21855	0.44515	0.649
Mof_O 	O 	0.58917	0.35299	0.47717	-0.038
Mof_C 	C 	0.56916	0.37609	0.55543	-0.07
Mof_H 	H 	0.54664	0.46111	0.5595	0.046
Mof_H 	H 	0.52158	0.31898	0.57589	0.023
Mof_C 	C 	0.66967	0.2592	0.60279	-0.022
Mof_C 	C 	0.64201	0.36362	0.6078	0.132
Mof_H 	H 	0.7146	0.2515	0.6351	-0.058
Mof_H 	H 	0.68315	0.24363	0.55007	0.041
Mof_H 	H 	0.63001	0.21162	0.61984	0.079
Mof_H 	H 	0.68167	0.4112	0.59074	-0.002
Mof_H 	H 	0.62854	0.3792	0.66052	-0.014
Mof_O 	O 	0.03548	0.35331	0.08574	-0.645
Mof_C 	C 	0.99116	0.2932	0.03197	0.938
Mof_H 	H 	0.98843	0.33677	0.97354	-0.018
Mof_H 	H 	0.01988	0.21235	0.02325	-0.391
Mof_C 	C 	0.91096	0.22436	0.13574	0.382
Mof_C 	C 	0.90761	0.27788	0.06397	-0.812
Mof_H 	H 	0.85943	0.21491	0.15547	-0.067
Mof_H 	H 	0.94083	0.26486	0.17196	0.023
Mof_H 	H 	0.9349	0.15699	0.12846	0.006
Mof_H 	H 	0.88368	0.34525	0.07125	0.333
Mof_H 	H 	0.87774	0.2374	0.02775	0.292
Mof_H 	H 	0.68685	0.61092	0.28733	0.162
Mof_H 	H 	0.04333	0.36391	0.67783	0.018
_end
