data_functionalizedCrystal
_audit_creation_method	'EQeq! by Chris Wilmer'
_symmetry_space_group_name_H-M	'P1'
_symmetry_Int_Tables_number	1
_symmetry_cell_setting	triclinic
loop_
_symmetry_equiv_pos_as_xyz
  x,y,z
_cell_length_a	15.9288
_cell_length_b	15.9288
_cell_length_c	21.3663
_cell_angle_alpha	90
_cell_angle_beta	90
_cell_angle_gamma	120
loop_
_atom_site_label
_atom_site_type_symbol
_atom_site_fract_x
_atom_site_fract_y
_atom_site_fract_z
_atom_site_charge
Mof_Co	Co	0.15344	0.70685	0.99184	1.159
Mof_Co	Co	0.03071	0.51376	0.88588	1.171
Mof_Co	Co	0.55341	0.84656	0.65851	1.168
Mof_Co	Co	0.48305	0.96929	0.55255	1.171
Mof_Co	Co	0.29315	0.44659	0.32517	1.167
Mof_Co	Co	0.48624	0.51695	0.21921	1.172
Mof_Co	Co	0.84656	0.29315	0.49184	1.167
Mof_Co	Co	0.96929	0.48624	0.38588	1.172
Mof_Co	Co	0.44659	0.15344	0.15851	1.167
Mof_Co	Co	0.51695	0.03071	0.05255	1.173
Mof_Co	Co	0.70685	0.55341	0.82517	1.166
Mof_Co	Co	0.51376	0.48305	0.71921	1.172
Mof_H 	H 	0.1948	0.6652	0.5247	0.042
Mof_H 	H 	0.0132	0.4595	0.6439	0.055
Mof_H 	H 	0.2689	0.6677	0.7045	0.058
Mof_H 	H 	0.0679	0.4526	0.7506	0.067
Mof_H 	H 	0.1681	0.5371	0.7735	0.075
Mof_H 	H 	0.1038	0.6987	0.757	0.155
Mof_H 	H 	0.1854	0.6884	0.7908	0.139
Mof_H 	H 	0.9356	0.4713	0.7423	0.133
Mof_H 	H 	0.9726	0.5802	0.7254	0.157
Mof_H 	H 	0.9472	0.6535	0.9889	0.007
Mof_H 	H 	0.8457	0.7156	0.9957	0.045
Mof_H 	H 	0.0764	0.9744	0.0335	0.101
Mof_H 	H 	0.1709	0.9075	0.0243	0.006
Mof_H 	H 	0.9172	0.9628	0.0304	0.056
Mof_H 	H 	0.7635	0.7873	0.002	0.067
Mof_H 	H 	0.6026	0.7724	0.0114	0.096
Mof_H 	H 	0.5072	0.8389	0.0252	-0.006
Mof_H 	H 	0.7329	0.0985	0.0252	0.006
Mof_H 	H 	0.8342	0.0395	0.0132	0.091
Mof_H 	H 	0.4704	0.8052	0.19137	0.042
Mof_H 	H 	0.4463	0.9868	0.31057	0.055
Mof_H 	H 	0.3988	0.7311	0.37117	0.058
Mof_H 	H 	0.3847	0.9321	0.41727	0.067
Mof_H 	H 	0.369	0.8319	0.44017	0.075
Mof_H 	H 	0.5949	0.8962	0.42367	0.155
Mof_H 	H 	0.503	0.8146	0.45747	0.14
Mof_H 	H 	0.5357	0.0644	0.40897	0.133
Mof_H 	H 	0.6076	0.0274	0.39207	0.157
Mof_H 	H 	0.7063	0.0528	0.65557	-0.016
Mof_H 	H 	0.8699	0.1543	0.66237	0.091
Mof_H 	H 	0.898	0.9236	0.70017	0.116
Mof_H 	H 	0.7366	0.8291	0.69097	-0.008
Mof_H 	H 	0.0456	0.0828	0.69707	0.07
Mof_H 	H 	0.0238	0.2365	0.66867	0.052
Mof_H 	H 	0.1698	0.3974	0.67807	0.091
Mof_H 	H 	0.3317	0.4928	0.69187	-0.008
Mof_H 	H 	0.3656	0.2671	0.69187	0.001
Mof_H 	H 	0.2053	0.1658	0.67987	0.093
Mof_H 	H 	0.3348	0.5296	0.85803	0.04
Mof_H 	H 	0.5405	0.5537	0.97723	0.058
Mof_H 	H 	0.3323	0.6012	0.03783	0.055
Mof_H 	H 	0.5474	0.6153	0.08393	0.071
Mof_H 	H 	0.4629	0.631	0.10683	0.077
Mof_H 	H 	0.3013	0.4051	0.09033	0.158
Mof_H 	H 	0.3116	0.497	0.12413	0.141
Mof_H 	H 	0.5287	0.4643	0.07563	0.137
Mof_H 	H 	0.4198	0.3924	0.05873	0.161
Mof_H 	H 	0.3465	0.2937	0.32223	-0.015
Mof_H 	H 	0.2844	0.1301	0.32903	0.087
Mof_H 	H 	0.0256	0.102	0.36683	0.113
Mof_H 	H 	0.0925	0.2634	0.35763	-0.006
Mof_H 	H 	0.0372	0.9544	0.36373	0.067
Mof_H 	H 	0.2127	0.9762	0.33533	0.055
Mof_H 	H 	0.2276	0.8302	0.34473	0.091
Mof_H 	H 	0.1611	0.6683	0.35853	-0.008
Mof_H 	H 	0.9015	0.6344	0.35853	0.002
Mof_H 	H 	0.9605	0.7947	0.34653	0.093
Mof_H 	H 	0.8052	0.3348	0.0247	0.045
Mof_H 	H 	0.9868	0.5405	0.1439	0.055
Mof_H 	H 	0.7311	0.3323	0.2045	0.058
Mof_H 	H 	0.9321	0.5474	0.2506	0.067
Mof_H 	H 	0.8319	0.4629	0.2735	0.076
Mof_H 	H 	0.8962	0.3013	0.257	0.155
Mof_H 	H 	0.8146	0.3116	0.2908	0.139
Mof_H 	H 	0.0644	0.5287	0.2423	0.134
Mof_H 	H 	0.0274	0.4198	0.2254	0.158
Mof_H 	H 	0.0528	0.3465	0.4889	-0.014
Mof_H 	H 	0.1543	0.2844	0.4957	0.087
Mof_H 	H 	0.9236	0.0256	0.5335	0.113
Mof_H 	H 	0.8291	0.0925	0.5243	-0.006
Mof_H 	H 	0.0828	0.0372	0.5304	0.067
Mof_H 	H 	0.2365	0.2127	0.502	0.055
Mof_H 	H 	0.3974	0.2276	0.5114	0.091
Mof_H 	H 	0.4928	0.1611	0.5252	-0.008
Mof_H 	H 	0.2671	0.9015	0.5252	0.003
Mof_H 	H 	0.1658	0.9605	0.5132	0.091
Mof_H 	H 	0.5296	0.1948	0.69137	0.042
Mof_H 	H 	0.5537	0.0132	0.81057	0.055
Mof_H 	H 	0.6012	0.2689	0.87117	0.056
Mof_H 	H 	0.6153	0.0679	0.91727	0.065
Mof_H 	H 	0.631	0.1681	0.94017	0.072
Mof_H 	H 	0.4051	0.1038	0.92367	0.159
Mof_H 	H 	0.497	0.1854	0.95747	0.141
Mof_H 	H 	0.4643	0.9356	0.90897	0.129
Mof_H 	H 	0.3924	0.9726	0.89207	0.154
Mof_H 	H 	0.2937	0.9472	0.15557	-0.016
Mof_H 	H 	0.1301	0.8457	0.16237	0.091
Mof_H 	H 	0.102	0.0764	0.20017	0.116
Mof_H 	H 	0.2634	0.1709	0.19097	-0.007
Mof_H 	H 	0.9544	0.9172	0.19707	0.07
Mof_H 	H 	0.9762	0.7635	0.16867	0.053
Mof_H 	H 	0.8302	0.6026	0.17807	0.092
Mof_H 	H 	0.6683	0.5072	0.19187	-0.008
Mof_H 	H 	0.6344	0.7329	0.19187	0.001
Mof_H 	H 	0.7947	0.8342	0.17987	0.094
Mof_H 	H 	0.6652	0.4704	0.35803	0.042
Mof_H 	H 	0.4595	0.4463	0.47723	0.055
Mof_H 	H 	0.6677	0.3988	0.53783	0.058
Mof_H 	H 	0.4526	0.3847	0.58393	0.067
Mof_H 	H 	0.5371	0.369	0.60683	0.076
Mof_H 	H 	0.6987	0.5949	0.59033	0.156
Mof_H 	H 	0.6884	0.503	0.62413	0.14
Mof_H 	H 	0.4713	0.5357	0.57563	0.133
Mof_H 	H 	0.5802	0.6076	0.55873	0.157
Mof_H 	H 	0.6535	0.7063	0.82223	-0.014
Mof_H 	H 	0.7156	0.8699	0.82903	0.085
Mof_H 	H 	0.9744	0.898	0.86683	0.11
Mof_H 	H 	0.9075	0.7366	0.85763	-0.005
Mof_H 	H 	0.9628	0.0456	0.86373	0.066
Mof_H 	H 	0.7873	0.0238	0.83533	0.054
Mof_H 	H 	0.7724	0.1698	0.84473	0.089
Mof_H 	H 	0.8389	0.3317	0.85853	-0.007
Mof_H 	H 	0.0985	0.3656	0.85853	0.007
Mof_H 	H 	0.0395	0.2053	0.84653	0.082
Mof_C 	C 	0.2471	0.6798	0.6123	-0.077
Mof_C 	C 	0.1808	0.6375	0.5643	0.015
Mof_C 	C 	0.0927	0.5531	0.5756	-0.08
Mof_C 	C 	0.0718	0.5157	0.6363	-0.062
Mof_C 	C 	0.1347	0.5591	0.6847	0.06
Mof_C 	C 	0.2238	0.6397	0.6723	-0.06
Mof_C 	C 	0.1089	0.5225	0.7516	-0.164
Mof_C 	C 	0.1175	0.6702	0.7929	-0.357
Mof_C 	C 	0.1007	0.7125	0.8523	0.417
Mof_C 	C 	0.9632	0.5361	0.7595	-0.353
Mof_C 	C 	0.8927	0.5386	0.8072	0.428
Mof_C 	C 	0.3475	0.7684	0.6038	0.376
Mof_C 	C 	0.0202	0.4992	0.5237	0.385
Mof_C 	C 	0.9733	0.7191	0.9977	0.034
Mof_C 	C 	0.9119	0.7556	0.0022	-0.09
Mof_C 	C 	0.9497	0.8543	0.0166	0.088
Mof_C 	C 	0.0481	0.9087	0.0243	-0.153
Mof_C 	C 	0.1044	0.8682	0.0187	0.099
Mof_C 	C 	0.8872	0.8973	0.0205	-0.064
Mof_C 	C 	0.7937	0.8529	0.0115	-0.098
Mof_C 	C 	0.7315	0.8968	0.0149	0.126
Mof_C 	C 	0.6311	0.8393	0.0159	-0.182
Mof_C 	C 	0.574	0.8798	0.0233	0.108
Mof_C 	C 	0.7067	0.0317	0.0235	0.085
Mof_C 	C 	0.7679	0.997	0.0167	-0.162
Mof_C 	C 	0.4327	0.7529	0.27897	-0.077
Mof_C 	C 	0.4567	0.8192	0.23097	0.016
Mof_C 	C 	0.4604	0.9073	0.24227	-0.081
Mof_C 	C 	0.4439	0.9282	0.30297	-0.061
Mof_C 	C 	0.4244	0.8653	0.35137	0.06
Mof_C 	C 	0.4159	0.7762	0.33897	-0.06
Mof_C 	C 	0.4136	0.8911	0.41827	-0.164
Mof_C 	C 	0.5527	0.8825	0.45957	-0.357
Mof_C 	C 	0.6118	0.8993	0.51897	0.417
Mof_C 	C 	0.5729	0.0368	0.42617	-0.356
Mof_C 	C 	0.6459	0.1073	0.47387	0.428
Mof_C 	C 	0.4209	0.6525	0.27047	0.377
Mof_C 	C 	0.479	0.9798	0.19037	0.388
Mof_C 	C 	0.7458	0.0267	0.66437	0.115
Mof_C 	C 	0.8437	0.0881	0.66887	-0.19
Mof_C 	C 	0.9046	0.0503	0.68327	0.152
Mof_C 	C 	0.8606	0.9519	0.69097	-0.209
Mof_C 	C 	0.7638	0.8956	0.68537	0.127
Mof_C 	C 	0.0101	0.1128	0.68717	-0.111
Mof_C 	C 	0.0592	0.2063	0.67817	-0.072
Mof_C 	C 	0.1653	0.2685	0.68157	0.115
Mof_C 	C 	0.2082	0.3689	0.68257	-0.178
Mof_C 	C 	0.3058	0.426	0.68997	0.103
Mof_C 	C 	0.325	0.2933	0.69017	0.092
Mof_C 	C 	0.2291	0.2321	0.68337	-0.172
Mof_C 	C 	0.3202	0.5673	0.94563	-0.098
Mof_C 	C 	0.3625	0.5433	0.89763	0.019
Mof_C 	C 	0.4469	0.5396	0.90893	-0.078
Mof_C 	C 	0.4843	0.5561	0.96963	-0.086
Mof_C 	C 	0.4409	0.5756	0.01803	0.076
Mof_C 	C 	0.3603	0.5841	0.00563	-0.039
Mof_C 	C 	0.4775	0.5864	0.08493	-0.17
Mof_C 	C 	0.3298	0.4473	0.12623	-0.359
Mof_C 	C 	0.2875	0.3882	0.18563	0.417
Mof_C 	C 	0.4639	0.4271	0.09283	-0.36
Mof_C 	C 	0.4614	0.3541	0.14053	0.43
Mof_C 	C 	0.2316	0.5791	0.93713	0.381
Mof_C 	C 	0.5008	0.521	0.85703	0.385
Mof_C 	C 	0.2809	0.2542	0.33103	0.109
Mof_C 	C 	0.2444	0.1563	0.33553	-0.182
Mof_C 	C 	0.1457	0.0954	0.34993	0.14
Mof_C 	C 	0.0913	0.1394	0.35763	-0.199
Mof_C 	C 	0.1318	0.2362	0.35203	0.122
Mof_C 	C 	0.1027	0.9899	0.35383	-0.101
Mof_C 	C 	0.1471	0.9408	0.34483	-0.077
Mof_C 	C 	0.1032	0.8347	0.34823	0.117
Mof_C 	C 	0.1607	0.7918	0.34923	-0.179
Mof_C 	C 	0.1202	0.6942	0.35663	0.104
Mof_C 	C 	0.9683	0.675	0.35683	0.091
Mof_C 	C 	0.003	0.7709	0.35003	-0.17
Mof_C 	C 	0.7529	0.3202	0.1123	-0.076
Mof_C 	C 	0.8192	0.3625	0.0643	0.016
Mof_C 	C 	0.9073	0.4469	0.0756	-0.08
Mof_C 	C 	0.9282	0.4843	0.1363	-0.061
Mof_C 	C 	0.8653	0.4409	0.1847	0.06
Mof_C 	C 	0.7762	0.3603	0.1723	-0.06
Mof_C 	C 	0.8911	0.4775	0.2516	-0.164
Mof_C 	C 	0.8825	0.3298	0.2929	-0.357
Mof_C 	C 	0.8993	0.2875	0.3523	0.416
Mof_C 	C 	0.0368	0.4639	0.2595	-0.356
Mof_C 	C 	0.1073	0.4614	0.3072	0.429
Mof_C 	C 	0.6525	0.2316	0.1038	0.377
Mof_C 	C 	0.9798	0.5008	0.0237	0.394
Mof_C 	C 	0.0267	0.2809	0.4977	0.107
Mof_C 	C 	0.0881	0.2444	0.5022	-0.181
Mof_C 	C 	0.0503	0.1457	0.5166	0.139
Mof_C 	C 	0.9519	0.0913	0.5243	-0.197
Mof_C 	C 	0.8956	0.1318	0.5187	0.121
Mof_C 	C 	0.1128	0.1027	0.5205	-0.101
Mof_C 	C 	0.2063	0.1471	0.5115	-0.077
Mof_C 	C 	0.2685	0.1032	0.5149	0.116
Mof_C 	C 	0.3689	0.1607	0.5159	-0.178
Mof_C 	C 	0.426	0.1202	0.5233	0.103
Mof_C 	C 	0.2933	0.9683	0.5235	0.088
Mof_C 	C 	0.2321	0.003	0.5167	-0.167
Mof_C 	C 	0.5673	0.2471	0.77897	-0.078
Mof_C 	C 	0.5433	0.1808	0.73097	0.017
Mof_C 	C 	0.5396	0.0927	0.74227	-0.082
Mof_C 	C 	0.5561	0.0718	0.80297	-0.06
Mof_C 	C 	0.5756	0.1347	0.85137	0.059
Mof_C 	C 	0.5841	0.2238	0.83897	-0.059
Mof_C 	C 	0.5864	0.1089	0.91827	-0.161
Mof_C 	C 	0.4473	0.1175	0.95957	-0.374
Mof_C 	C 	0.3882	0.1007	0.01897	0.431
Mof_C 	C 	0.4271	0.9632	0.92617	-0.351
Mof_C 	C 	0.3541	0.8927	0.97387	0.401
Mof_C 	C 	0.5791	0.3475	0.77047	0.377
Mof_C 	C 	0.521	0.0202	0.69037	0.39
Mof_C 	C 	0.2542	0.9733	0.16437	0.114
Mof_C 	C 	0.1563	0.9119	0.16887	-0.188
Mof_C 	C 	0.0954	0.9497	0.18327	0.149
Mof_C 	C 	0.1394	0.0481	0.19097	-0.206
Mof_C 	C 	0.2362	0.1044	0.18537	0.126
Mof_C 	C 	0.9899	0.8872	0.18717	-0.109
Mof_C 	C 	0.9408	0.7937	0.17817	-0.073
Mof_C 	C 	0.8347	0.7315	0.18157	0.117
Mof_C 	C 	0.7918	0.6311	0.18257	-0.178
Mof_C 	C 	0.6942	0.574	0.18997	0.104
Mof_C 	C 	0.675	0.7067	0.19017	0.093
Mof_C 	C 	0.7709	0.7679	0.18337	-0.172
Mof_C 	C 	0.6798	0.4327	0.44563	-0.077
Mof_C 	C 	0.6375	0.4567	0.39763	0.015
Mof_C 	C 	0.5531	0.4604	0.40893	-0.08
Mof_C 	C 	0.5157	0.4439	0.46963	-0.062
Mof_C 	C 	0.5591	0.4244	0.51803	0.06
Mof_C 	C 	0.6397	0.4159	0.50563	-0.06
Mof_C 	C 	0.5225	0.4136	0.58493	-0.164
Mof_C 	C 	0.6702	0.5527	0.62623	-0.357
Mof_C 	C 	0.7125	0.6118	0.68563	0.417
Mof_C 	C 	0.5361	0.5729	0.59283	-0.357
Mof_C 	C 	0.5386	0.6459	0.64053	0.428
Mof_C 	C 	0.7684	0.4209	0.43713	0.376
Mof_C 	C 	0.4992	0.479	0.35703	0.386
Mof_C 	C 	0.7191	0.7458	0.83103	0.106
Mof_C 	C 	0.7556	0.8437	0.83553	-0.18
Mof_C 	C 	0.8543	0.9046	0.84993	0.133
Mof_C 	C 	0.9087	0.8606	0.85763	-0.196
Mof_C 	C 	0.8682	0.7638	0.85203	0.119
Mof_C 	C 	0.8973	0.0101	0.85383	-0.099
Mof_C 	C 	0.8529	0.0592	0.84483	-0.075
Mof_C 	C 	0.8968	0.1653	0.84823	0.107
Mof_C 	C 	0.8393	0.2082	0.84923	-0.173
Mof_C 	C 	0.8798	0.3058	0.85663	0.099
Mof_C 	C 	0.0317	0.325	0.85683	0.071
Mof_C 	C 	0.997	0.2291	0.85003	-0.148
Mof_N 	N 	0.0582	0.5641	0.78843	-0.093
Mof_N 	N 	0.0695	0.7738	0.0055	-0.218
Mof_N 	N 	0.6089	0.9747	0.02793	-0.234
Mof_N 	N 	0.5059	0.9418	0.4551	-0.092
Mof_N 	N 	0.7043	0.9305	0.67217	-0.249
Mof_N 	N 	0.3658	0.3911	0.6946	-0.238
Mof_N 	N 	0.4359	0.4941	0.12176	-0.09
Mof_N 	N 	0.2262	0.2957	0.33883	-0.246
Mof_N 	N 	0.0253	0.6342	0.36126	-0.237
Mof_N 	N 	0.9418	0.4359	0.28843	-0.092
Mof_N 	N 	0.9305	0.2262	0.5055	-0.246
Mof_N 	N 	0.3911	0.0253	0.52793	-0.236
Mof_N 	N 	0.4941	0.0582	0.9551	-0.093
Mof_N 	N 	0.2957	0.0695	0.17217	-0.248
Mof_N 	N 	0.6342	0.6089	0.1946	-0.238
Mof_N 	N 	0.5641	0.5059	0.62176	-0.091
Mof_N 	N 	0.7738	0.7043	0.83883	-0.246
Mof_N 	N 	0.9747	0.3658	0.86126	-0.231
Mof_O 	O 	0.0877	0.6616	0.90256	-0.533
Mof_O 	O 	0.1047	0.7901	0.8507	-0.3
Mof_O 	O 	0.8988	0.5156	0.86259	-0.426
Mof_O 	O 	0.8345	0.5616	0.78706	-0.425
Mof_O 	O 	0.4101	0.7708	0.6407	-0.446
Mof_O 	O 	0.3604	0.8305	0.56329	-0.431
Mof_O 	O 	0.0304	0.542	0.47275	-0.425
Mof_O 	O 	0.9554	0.4157	0.53669	-0.45
Mof_O 	O 	0.5739	0.9123	0.56923	-0.529
Mof_O 	O 	0.6854	0.8953	0.51737	-0.296
Mof_O 	O 	0.6168	0.1012	0.52926	-0.426
Mof_O 	O 	0.7271	0.1655	0.45373	-0.425
Mof_O 	O 	0.3607	0.5899	0.30737	-0.446
Mof_O 	O 	0.4701	0.6396	0.22996	-0.43
Mof_O 	O 	0.5116	0.9696	0.13942	-0.425
Mof_O 	O 	0.4603	0.0446	0.20336	-0.453
Mof_O 	O 	0.3384	0.4261	0.23589	-0.529
Mof_O 	O 	0.2099	0.3146	0.18403	-0.294
Mof_O 	O 	0.4844	0.3832	0.19592	-0.426
Mof_O 	O 	0.4384	0.2729	0.12039	-0.424
Mof_O 	O 	0.2292	0.6393	0.97403	-0.455
Mof_O 	O 	0.1695	0.5299	0.89662	-0.434
Mof_O 	O 	0.458	0.4884	0.80608	-0.426
Mof_O 	O 	0.5843	0.5397	0.87002	-0.453
Mof_O 	O 	0.9123	0.3384	0.40256	-0.529
Mof_O 	O 	0.8953	0.2099	0.3507	-0.296
Mof_O 	O 	0.1012	0.4844	0.36259	-0.426
Mof_O 	O 	0.1655	0.4384	0.28706	-0.425
Mof_O 	O 	0.5899	0.2292	0.1407	-0.445
Mof_O 	O 	0.6396	0.1695	0.06329	-0.428
Mof_O 	O 	0.9696	0.458	0.97275	-0.434
Mof_O 	O 	0.0446	0.5843	0.03669	-0.442
Mof_O 	O 	0.4261	0.0877	0.06923	-0.531
Mof_O 	O 	0.3146	0.1047	0.01737	-0.295
Mof_O 	O 	0.3832	0.8988	0.02926	-0.406
Mof_O 	O 	0.2729	0.8345	0.95373	-0.424
Mof_O 	O 	0.6393	0.4101	0.80737	-0.447
Mof_O 	O 	0.5299	0.3604	0.72996	-0.431
Mof_O 	O 	0.4884	0.0304	0.63942	-0.426
Mof_O 	O 	0.5397	0.9554	0.70336	-0.455
Mof_O 	O 	0.6616	0.5739	0.73589	-0.529
Mof_O 	O 	0.7901	0.6854	0.68403	-0.295
Mof_O 	O 	0.5156	0.6168	0.69592	-0.426
Mof_O 	O 	0.5616	0.7271	0.62039	-0.425
Mof_O 	O 	0.7708	0.3607	0.47403	-0.446
Mof_O 	O 	0.8305	0.4701	0.39662	-0.43
Mof_O 	O 	0.542	0.5116	0.30608	-0.425
Mof_O 	O 	0.4157	0.4603	0.37002	-0.452
_end
