data_functionalizedCrystal
_audit_creation_method	'EQeq! by Chris Wilmer'
_symmetry_space_group_name_H-M	'P1'
_symmetry_Int_Tables_number	1
_symmetry_cell_setting	triclinic
loop_
_symmetry_equiv_pos_as_xyz
  x,y,z
_cell_length_a	9.3765
_cell_length_b	10.0807
_cell_length_c	18.629
_cell_angle_alpha	86.471
_cell_angle_beta	89.112
_cell_angle_gamma	74.752
loop_
_atom_site_label
_atom_site_type_symbol
_atom_site_fract_x
_atom_site_fract_y
_atom_site_fract_z
_atom_site_charge
Mof_C 	C 	0.7629	0.9358	0.8411	0.14
Mof_C 	C 	0.8204	0.046	0.817	-0.133
Mof_C 	C 	0.9717	0.0221	0.8043	0.062
Mof_H 	H 	0.0106	0.0964	0.7874	0.042
Mof_C 	C 	0.066	0.8917	0.8159	-0.098
Mof_C 	C 	0.009	0.7842	0.8409	0.058
Mof_H 	H 	0.0741	0.6953	0.8502	0.052
Mof_C 	C 	0.858	0.8037	0.853	-0.127
Mof_C 	C 	0.7252	0.1907	0.8048	0.316
Mof_C 	C 	0.2292	0.8709	0.8034	0.304
Mof_C 	C 	0.8053	0.6816	0.8812	0.315
Mof_C 	C 	0.5771	0.9461	0.9344	0.071
Mof_H 	H 	0.6402	0.856	0.9546	0.03
Mof_C 	C 	0.417	0.947	0.9469	-0.132
Mof_H 	H 	0.3962	0.8674	0.9246	0.087
Mof_H 	H 	0.352	0.0323	0.9239	0.083
Mof_C 	C 	0.6158	0.0605	0.9732	-0.132
Mof_H 	H 	0.7222	0.0544	0.9662	0.08
Mof_H 	H 	0.5588	0.1507	0.9516	0.083
Mof_C 	C 	0.7755	0.3745	0.653	0.143
Mof_C 	C 	0.8066	0.4919	0.67859	-0.13
Mof_C 	C 	0.9511	0.4914	0.6939	0.061
Mof_H 	H 	0.9715	0.5719	0.7103	0.05
Mof_C 	C 	0.066	0.3748	0.6855	-0.094
Mof_C 	C 	0.0361	0.2581	0.6622	0.051
Mof_H 	H 	0.1149	0.1776	0.6577	0.056
Mof_C 	C 	0.8929	0.255	0.64505	-0.123
Mof_C 	C 	0.6914	0.6176	0.6996	0.326
Mof_C 	C 	0.2215	0.3777	0.703	0.301
Mof_C 	C 	0.87	0.1227	0.6193	0.307
Mof_C 	C 	0.5651	0.474	0.5727	0.074
Mof_H 	H 	0.5665	0.5693	0.584	0.027
Mof_C 	C 	0.4078	0.4718	0.5599	-0.136
Mof_H 	H 	0.3475	0.5032	0.6028	0.085
Mof_H 	H 	0.4042	0.3763	0.5526	0.087
Mof_C 	C 	0.657	0.4352	0.5059	-0.134
Mof_H 	H 	0.6625	0.3384	0.4964	0.087
Mof_H 	H 	0.7588	0.442	0.5142	0.08
Mof_Cd	Cd	0.52272	0.82389	0.77641	0.459
Mof_Cd	Cd	0.48663	0.41541	0.74445	0.464
Mof_N 	N 	0.6087	0.9578	0.85583	-0.2
Mof_H 	H 	0.5617	0.0559	0.8397	0.122
Mof_N 	N 	0.6279	0.3769	0.63562	-0.198
Mof_H 	H 	0.6294	0.2822	0.6218	0.125
Mof_O 	O 	0.5906	0.2035	0.78851	-0.283
Mof_O 	O 	0.7791	0.29	0.80866	-0.241
Mof_O 	O 	0.2747	0.9692	0.7779	-0.263
Mof_O 	O 	0.3159	0.7546	0.82025	-0.258
Mof_O 	O 	0.8904	0.5986	0.92443	-0.207
Mof_O 	O 	0.6831	0.6673	0.86054	-0.247
Mof_O 	O 	0.5634	0.6082	0.72118	-0.288
Mof_O 	O 	0.725	0.7283	0.70063	-0.261
Mof_O 	O 	0.2411	0.4879	0.7252	-0.267
Mof_O 	O 	0.3256	0.2747	0.69397	-0.248
Mof_O 	O 	0.9822	0.0363	0.5977	-0.206
Mof_O 	O 	0.7426	0.1037	0.6207	-0.227
Mof_C 	C 	0.2371	0.0642	0.1589	0.141
Mof_C 	C 	0.1796	0.954	0.183	-0.132
Mof_C 	C 	0.0283	0.9779	0.1957	0.063
Mof_H 	H 	0.9894	0.9036	0.2126	0.043
Mof_C 	C 	0.934	0.1083	0.1841	-0.097
Mof_C 	C 	0.991	0.2158	0.1591	0.059
Mof_H 	H 	0.9259	0.3047	0.1498	0.053
Mof_C 	C 	0.142	0.1963	0.147	-0.126
Mof_C 	C 	0.2748	0.8093	0.1952	0.317
Mof_C 	C 	0.7708	0.1291	0.1966	0.305
Mof_C 	C 	0.1947	0.3184	0.1188	0.315
Mof_C 	C 	0.4229	0.0539	0.0656	0.071
Mof_H 	H 	0.3598	0.144	0.0454	0.03
Mof_C 	C 	0.583	0.053	0.0531	-0.132
Mof_H 	H 	0.6038	0.1326	0.0754	0.087
Mof_H 	H 	0.648	0.9677	0.0761	0.083
Mof_C 	C 	0.3842	0.9395	0.0268	-0.132
Mof_H 	H 	0.2778	0.9456	0.0338	0.08
Mof_H 	H 	0.4412	0.8493	0.0484	0.083
Mof_C 	C 	0.2245	0.6255	0.347	0.143
Mof_C 	C 	0.1934	0.5081	0.32141	-0.13
Mof_C 	C 	0.0489	0.5086	0.3061	0.061
Mof_H 	H 	0.0285	0.4281	0.2897	0.05
Mof_C 	C 	0.934	0.6252	0.3145	-0.094
Mof_C 	C 	0.9639	0.7419	0.3378	0.051
Mof_H 	H 	0.8851	0.8224	0.3423	0.056
Mof_C 	C 	0.1071	0.745	0.35495	-0.123
Mof_C 	C 	0.3086	0.3824	0.3004	0.326
Mof_C 	C 	0.7785	0.6223	0.297	0.301
Mof_C 	C 	0.13	0.8773	0.3807	0.307
Mof_C 	C 	0.4349	0.526	0.4273	0.074
Mof_H 	H 	0.4335	0.4307	0.416	0.027
Mof_C 	C 	0.5922	0.5282	0.4401	-0.136
Mof_H 	H 	0.6525	0.4968	0.3972	0.085
Mof_H 	H 	0.5958	0.6237	0.4474	0.087
Mof_C 	C 	0.343	0.5648	0.4941	-0.134
Mof_H 	H 	0.3375	0.6616	0.5036	0.087
Mof_H 	H 	0.2412	0.558	0.4858	0.08
Mof_Cd	Cd	0.47728	0.17611	0.22359	0.459
Mof_Cd	Cd	0.51337	0.58459	0.25555	0.464
Mof_N 	N 	0.3913	0.0422	0.14417	-0.2
Mof_H 	H 	0.4383	0.9441	0.1603	0.122
Mof_N 	N 	0.3721	0.6231	0.36438	-0.198
Mof_H 	H 	0.3706	0.7178	0.3782	0.125
Mof_O 	O 	0.4094	0.7965	0.21149	-0.283
Mof_O 	O 	0.2209	0.71	0.19134	-0.241
Mof_O 	O 	0.7253	0.0308	0.2221	-0.263
Mof_O 	O 	0.6841	0.2454	0.17975	-0.258
Mof_O 	O 	0.1096	0.4014	0.07557	-0.207
Mof_O 	O 	0.3169	0.3327	0.13946	-0.247
Mof_O 	O 	0.4366	0.3918	0.27882	-0.288
Mof_O 	O 	0.275	0.2717	0.29937	-0.261
Mof_O 	O 	0.7589	0.5121	0.2748	-0.267
Mof_O 	O 	0.6744	0.7253	0.30603	-0.248
Mof_O 	O 	0.0178	0.9637	0.4023	-0.206
Mof_O 	O 	0.2574	0.8963	0.3793	-0.227
_end
