data_functionalizedCrystal
_audit_creation_method	'EQeq! by Chris Wilmer'
_symmetry_space_group_name_H-M	'P1'
_symmetry_Int_Tables_number	1
_symmetry_cell_setting	triclinic
loop_
_symmetry_equiv_pos_as_xyz
  x,y,z
_cell_length_a	12.9197
_cell_length_b	12.9197
_cell_length_c	9.8491
_cell_angle_alpha	90
_cell_angle_beta	90
_cell_angle_gamma	90
loop_
_atom_site_label
_atom_site_type_symbol
_atom_site_fract_x
_atom_site_fract_y
_atom_site_fract_z
_atom_site_charge
Mof_O 	O 	0.6099	0.8889	0.9307	-0.091
Mof_P 	P 	0.6371	0.8663	0.7787	0.262
Mof_Co	Co	0.86409	0.94522	0.63135	1.134
Mof_P 	P 	0.82401	0.92776	0.3162	0.485
Mof_O 	O 	0.7883	0.9137	0.4631	-0.41
Mof_O 	O 	0.8449	0.0417	0.285	-0.416
Mof_O 	O 	0.9186	0.8606	0.2852	-0.42
Mof_O 	O 	0.7448	0.8892	0.7518	-0.33
Mof_O 	O 	0.7346	0.8949	0.2198	-0.122
Mof_O 	O 	0.563	0.94	0.801	-0.091
Mof_O 	O 	0.3901	0.1111	0.9307	-0.091
Mof_P 	P 	0.3629	0.1337	0.7787	0.262
Mof_Co	Co	0.13591	0.05478	0.63135	1.134
Mof_P 	P 	0.17599	0.07224	0.3162	0.485
Mof_O 	O 	0.2117	0.0863	0.4631	-0.41
Mof_O 	O 	0.1551	0.9583	0.285	-0.416
Mof_O 	O 	0.0814	0.1394	0.2852	-0.42
Mof_O 	O 	0.2552	0.1108	0.7518	-0.33
Mof_O 	O 	0.2654	0.1051	0.2198	-0.122
Mof_O 	O 	0.437	0.06	0.801	-0.091
Mof_O 	O 	0.8889	0.3901	0.0693	-0.091
Mof_P 	P 	0.8663	0.3629	0.2213	0.262
Mof_Co	Co	0.94522	0.13591	0.36865	1.134
Mof_P 	P 	0.92776	0.17599	0.6838	0.485
Mof_O 	O 	0.9137	0.2117	0.5369	-0.41
Mof_O 	O 	0.0417	0.1551	0.715	-0.416
Mof_O 	O 	0.8606	0.0814	0.7148	-0.42
Mof_O 	O 	0.8892	0.2552	0.2482	-0.33
Mof_O 	O 	0.8949	0.2654	0.7802	-0.122
Mof_O 	O 	0.94	0.437	0.199	-0.091
Mof_O 	O 	0.1111	0.6099	0.0693	-0.091
Mof_P 	P 	0.1337	0.6371	0.2213	0.262
Mof_Co	Co	0.05478	0.86409	0.36865	1.134
Mof_P 	P 	0.07224	0.82401	0.6838	0.485
Mof_O 	O 	0.0863	0.7883	0.5369	-0.41
Mof_O 	O 	0.9583	0.8449	0.715	-0.416
Mof_O 	O 	0.1394	0.9186	0.7148	-0.42
Mof_O 	O 	0.1108	0.7448	0.2482	-0.33
Mof_O 	O 	0.1051	0.7346	0.7802	-0.122
Mof_O 	O 	0.06	0.563	0.199	-0.091
Mof_O 	O 	0.1099	0.6111	0.4307	-0.091
Mof_P 	P 	0.1371	0.6337	0.2787	0.262
Mof_Co	Co	0.36409	0.55478	0.13135	1.134
Mof_P 	P 	0.32401	0.57224	0.8162	0.485
Mof_O 	O 	0.2883	0.5863	0.9631	-0.411
Mof_O 	O 	0.3449	0.4583	0.785	-0.416
Mof_O 	O 	0.4186	0.6394	0.7852	-0.421
Mof_O 	O 	0.2448	0.6108	0.2518	-0.33
Mof_O 	O 	0.2346	0.6051	0.7198	-0.122
Mof_O 	O 	0.063	0.56	0.301	-0.091
Mof_O 	O 	0.8901	0.3889	0.4307	-0.091
Mof_P 	P 	0.8629	0.3663	0.2787	0.262
Mof_Co	Co	0.63591	0.44522	0.13135	1.134
Mof_P 	P 	0.67599	0.42776	0.8162	0.485
Mof_O 	O 	0.7117	0.4137	0.9631	-0.411
Mof_O 	O 	0.6551	0.5417	0.785	-0.416
Mof_O 	O 	0.5814	0.3606	0.7852	-0.421
Mof_O 	O 	0.7552	0.3892	0.2518	-0.33
Mof_O 	O 	0.7654	0.3949	0.7198	-0.122
Mof_O 	O 	0.937	0.44	0.301	-0.091
Mof_O 	O 	0.3889	0.1099	0.5693	-0.091
Mof_P 	P 	0.3663	0.1371	0.7213	0.262
Mof_Co	Co	0.44522	0.36409	0.86865	1.134
Mof_P 	P 	0.42776	0.32401	0.1838	0.485
Mof_O 	O 	0.4137	0.2883	0.0369	-0.411
Mof_O 	O 	0.5417	0.3449	0.215	-0.416
Mof_O 	O 	0.3606	0.4186	0.2148	-0.421
Mof_O 	O 	0.3892	0.2448	0.7482	-0.33
Mof_O 	O 	0.3949	0.2346	0.2802	-0.122
Mof_O 	O 	0.44	0.063	0.699	-0.091
Mof_O 	O 	0.6111	0.8901	0.5693	-0.091
Mof_P 	P 	0.6337	0.8629	0.7213	0.262
Mof_Co	Co	0.55478	0.63591	0.86865	1.134
Mof_P 	P 	0.57224	0.67599	0.1838	0.485
Mof_O 	O 	0.5863	0.7117	0.0369	-0.411
Mof_O 	O 	0.4583	0.6551	0.215	-0.416
Mof_O 	O 	0.6394	0.5814	0.2148	-0.421
Mof_O 	O 	0.6108	0.7552	0.7482	-0.33
Mof_O 	O 	0.6051	0.7654	0.2802	-0.122
Mof_O 	O 	0.56	0.937	0.699	-0.091
_end
