data_functionalizedCrystal
_audit_creation_method	'EQeq! by Chris Wilmer'
_symmetry_space_group_name_H-M	'P1'
_symmetry_Int_Tables_number	1
_symmetry_cell_setting	triclinic
loop_
_symmetry_equiv_pos_as_xyz
  x,y,z
_cell_length_a	5.966
_cell_length_b	19.0132
_cell_length_c	19.0132
_cell_angle_alpha	101.327
_cell_angle_beta	97.7515
_cell_angle_gamma	82.2485
loop_
_atom_site_label
_atom_site_type_symbol
_atom_site_fract_x
_atom_site_fract_y
_atom_site_fract_z
_atom_site_charge
Mof_Zn	Zn	0.5	0	-0	1.255
Mof_Zn	Zn	1.70614e-18	0.06012	0.06012	1.188
Mof_Zn	Zn	2.72983e-17	0.93988	0.93988	1.202
Mof_H 	H 	0.7523	0.2873	0.0719	0.006
Mof_H 	H 	0.5528	0.3969	0.0583	0.094
Mof_H 	H 	0.0112	0.3041	0.9709	0.057
Mof_H 	H 	0.1904	0.1948	0.9924	0.021
Mof_H 	H 	0.0488	0.561	0.912	0.111
Mof_H 	H 	0.3454	0.4788	0.8692	0.196
Mof_H 	H 	0.5022	0.4529	0.9365	0.218
Mof_H 	H 	0.3569	0.3972	0.8806	0.206
Mof_H 	H 	0.2477	0.0719	0.2873	0.006
Mof_H 	H 	0.4472	0.0583	0.3969	0.041
Mof_H 	H 	0.9888	0.9709	0.3041	0.053
Mof_H 	H 	0.8096	0.9924	0.1948	0.076
Mof_H 	H 	0.9512	0.912	0.561	-0.005
Mof_H 	H 	0.6546	0.8692	0.4788	0.124
Mof_H 	H 	0.4978	0.9365	0.4529	0.126
Mof_H 	H 	0.6431	0.8806	0.3972	0.13
Mof_H 	H 	0.2477	0.7127	0.9281	-0.055
Mof_H 	H 	0.4472	0.6031	0.9417	0.11
Mof_H 	H 	0.9888	0.6959	0.0291	0.157
Mof_H 	H 	0.8096	0.8052	0.0076	-0.083
Mof_H 	H 	0.9512	0.439	0.088	0.006
Mof_H 	H 	0.6546	0.5212	0.1308	0.123
Mof_H 	H 	0.4978	0.5471	0.0635	0.113
Mof_H 	H 	0.6431	0.6028	0.1194	0.122
Mof_H 	H 	0.7523	0.9281	0.7127	-0.047
Mof_H 	H 	0.5528	0.9417	0.6031	0.156
Mof_H 	H 	0.0112	0.0291	0.6959	0.153
Mof_H 	H 	0.1904	0.0076	0.8052	-0.103
Mof_H 	H 	0.0488	0.088	0.439	0.123
Mof_H 	H 	0.3454	0.1308	0.5212	0.195
Mof_H 	H 	0.5022	0.0635	0.5471	0.205
Mof_H 	H 	0.3569	0.1194	0.6028	0.197
Mof_C 	C 	0.6262	0.157	0.0344	0.538
Mof_C 	C 	0.5007	0.2285	0.0293	-0.223
Mof_C 	C 	0.5984	0.2891	0.0509	0.137
Mof_C 	C 	0.4771	0.3547	0.0429	-0.213
Mof_C 	C 	0.2583	0.3626	0.0144	0.139
Mof_C 	C 	0.1632	0.3017	0.9937	-0.122
Mof_C 	C 	0.2721	0.2358	0.0034	0.032
Mof_C 	C 	0.1256	0.4337	0.0067	-0.277
Mof_C 	C 	0.1549	0.4694	0.9516	0.285
Mof_C 	C 	0.0261	0.5359	0.9485	-0.325
Mof_C 	C 	0.3589	0.4476	0.9052	-0.627
Mof_C 	C 	0.3738	0.0344	0.157	0.518
Mof_C 	C 	0.4993	0.0293	0.2285	-0.164
Mof_C 	C 	0.4016	0.0509	0.2891	0.043
Mof_C 	C 	0.5229	0.0429	0.3547	-0.079
Mof_C 	C 	0.7417	0.0144	0.3626	-0.042
Mof_C 	C 	0.8368	0.9937	0.3017	0.008
Mof_C 	C 	0.7279	0.0034	0.2358	-0.035
Mof_C 	C 	0.8744	0.0067	0.4337	0.145
Mof_C 	C 	0.8451	0.9516	0.4694	-0.018
Mof_C 	C 	0.9739	0.9485	0.5359	0.15
Mof_C 	C 	0.6411	0.9052	0.4476	-0.36
Mof_C 	C 	0.3738	0.843	0.9656	0.605
Mof_C 	C 	0.4993	0.7715	0.9707	-0.363
Mof_C 	C 	0.4016	0.7109	0.9491	0.246
Mof_C 	C 	0.5229	0.6453	0.9571	-0.276
Mof_C 	C 	0.7417	0.6374	0.9856	0.2
Mof_C 	C 	0.8368	0.6983	0.0063	-0.349
Mof_C 	C 	0.7279	0.7642	0.9966	0.322
Mof_C 	C 	0.8744	0.5663	0.9933	0.099
Mof_C 	C 	0.8451	0.5306	0.0484	-0.026
Mof_C 	C 	0.9739	0.4641	0.0515	0.117
Mof_C 	C 	0.6411	0.5524	0.0948	-0.356
Mof_C 	C 	0.6262	0.9656	0.843	0.606
Mof_C 	C 	0.5007	0.9707	0.7715	-0.392
Mof_C 	C 	0.5984	0.9491	0.7109	0.315
Mof_C 	C 	0.4771	0.9571	0.6453	-0.39
Mof_C 	C 	0.2583	0.9856	0.6374	0.362
Mof_C 	C 	0.1632	0.0063	0.6983	-0.453
Mof_C 	C 	0.2721	0.9966	0.7642	0.357
Mof_C 	C 	0.1256	0.9933	0.5663	-0.317
Mof_C 	C 	0.1549	0.0484	0.5306	0.276
Mof_C 	C 	0.0261	0.0515	0.4641	-0.361
Mof_C 	C 	0.3589	0.0948	0.5524	-0.622
Mof_O 	O 	0.5403	0.1038	0.013	-0.578
Mof_O 	O 	0.8267	0.15352	0.0604	-0.51
Mof_O 	O 	0.4597	0.013	0.1038	-0.571
Mof_O 	O 	0.1733	0.0604	0.15352	-0.56
Mof_O 	O 	0.4597	0.8962	0.987	-0.576
Mof_O 	O 	0.1733	0.84648	0.9396	-0.573
Mof_O 	O 	0.5403	0.987	0.8962	-0.563
Mof_O 	O 	0.8267	0.9396	0.84648	-0.508
Mof_O 	O 	0.1627	0.02831	0.97169	-0.727
Mof_O 	O 	0.8373	0.97169	0.02831	-0.682
Mof_H 	H 	0.8373	0.91805	0.01777	0.134
Mof_H 	H 	0.1627	0.08195	0.98223	0.127
_end
