data_functionalizedCrystal
_audit_creation_method	'EQeq! by Chris Wilmer'
_symmetry_space_group_name_H-M	'P1'
_symmetry_Int_Tables_number	1
_symmetry_cell_setting	triclinic
loop_
_symmetry_equiv_pos_as_xyz
  x,y,z
_cell_length_a	47.493
_cell_length_b	51.7515
_cell_length_c	32.9674
_cell_angle_alpha	90
_cell_angle_beta	92.69
_cell_angle_gamma	90
loop_
_atom_site_label
_atom_site_type_symbol
_atom_site_fract_x
_atom_site_fract_y
_atom_site_fract_z
_atom_site_charge
Mof_Cu	Cu	0.14008	0.85379	0.27209	0.905
Mof_Cu	Cu	0.18212	0.88685	0.27657	0.909
Mof_Cu	Cu	0.38836	0.87637	0.79145	0.911
Mof_Cu	Cu	0.43214	0.84531	0.79568	0.899
Mof_Cu	Cu	0.78388	0.00307	0.58515	0.909
Mof_Cu	Cu	0.77829	0.00119	0.50545	0.905
Mof_O 	O 	0.16667	0.83294	0.30682	-0.41
Mof_O 	O 	0.19932	0.86364	0.31654	-0.394
Mof_O 	O 	0.12253	0.11922	0.73723	-0.372
Mof_O 	O 	0.16082	0.09334	0.73774	-0.411
Mof_O 	O 	0.15802	0.83902	0.22613	-0.407
Mof_O 	O 	0.19596	0.86364	0.23463	-0.409
Mof_O 	O 	0.12741	0.87147	0.31849	-0.394
Mof_O 	O 	0.16043	0.90302	0.31894	-0.414
Mof_O 	O 	0.37712	0.85568	0.74381	-0.407
Mof_O 	O 	0.41366	0.82736	0.7498	-0.397
Mof_O 	O 	0.40601	0.108	0.34016	-0.403
Mof_O 	O 	0.44483	0.13204	0.34024	-0.401
Mof_O 	O 	0.41184	0.89728	0.75851	-0.43
Mof_O 	O 	0.44829	0.87019	0.75814	-0.374
Mof_O 	O 	0.37161	0.85096	0.82529	-0.435
Mof_O 	O 	0.40854	0.82524	0.83317	-0.393
Mof_O 	O 	0.74418	0.00661	0.58384	-0.415
Mof_O 	O 	0.7387	0.00802	0.51578	-0.393
Mof_O 	O 	0.8238	0.99848	0.57772	-0.421
Mof_O 	O 	0.81914	0.99341	0.51112	-0.395
Mof_O 	O 	0.28872	0.54075	0.57471	-0.41
Mof_O 	O 	0.28615	0.53787	0.50864	-0.413
Mof_O 	O 	0.27961	0.53477	0.07987	-0.394
Mof_O 	O 	0.27147	0.53537	0.01305	-0.399
Mof_C 	C 	0.18929	0.84001	0.3229	0.365
Mof_C 	C 	0.20761	0.82342	0.34658	-0.143
Mof_C 	C 	0.20041	0.79749	0.34966	0.064
Mof_H 	H 	0.1844	0.7911	0.335	0.024
Mof_C 	C 	0.21681	0.78106	0.37434	-0.133
Mof_H 	H 	0.2119	0.7635	0.3764	0.082
Mof_C 	C 	0.24042	0.79058	0.39596	0.081
Mof_C 	C 	0.24762	0.81651	0.39289	-0.133
Mof_H 	H 	0.2636	0.8229	0.4075	0.08
Mof_C 	C 	0.23122	0.83294	0.3682	0.066
Mof_H 	H 	0.2361	0.8505	0.3661	0.024
Mof_C 	C 	0.2571	0.77383	0.4252	-0.014
Mof_C 	C 	0.26973	0.76178	0.4504	-0.049
Mof_C 	C 	0.28588	0.74893	0.48051	0.123
Mof_C 	C 	0.30125	0.76359	0.50909	-0.177
Mof_H 	H 	0.3008	0.7817	0.5076	0.097
Mof_C 	C 	0.31731	0.75144	0.53984	0.116
Mof_C 	C 	0.31799	0.72462	0.54201	-0.173
Mof_H 	H 	0.3289	0.7164	0.5628	0.097
Mof_C 	C 	0.30262	0.70996	0.51343	0.115
Mof_C 	C 	0.28656	0.72211	0.48268	-0.176
Mof_H 	H 	0.2762	0.7122	0.4634	0.097
Mof_C 	C 	0.3306	0.76601	0.5719	-0.045
Mof_C 	C 	0.3423	0.7787	0.6018	-0.029
Mof_C 	C 	0.35556	0.7932	0.63296	0.084
Mof_C 	C 	0.34344	0.81655	0.6435	-0.132
Mof_H 	H 	0.3276	0.8228	0.6285	0.079
Mof_C 	C 	0.35481	0.83063	0.6763	0.058
Mof_H 	H 	0.3466	0.8464	0.6834	0.026
Mof_C 	C 	0.3783	0.82136	0.69843	-0.126
Mof_C 	C 	0.39042	0.79801	0.6879	0.057
Mof_H 	H 	0.4063	0.7917	0.7028	0.027
Mof_C 	C 	0.37906	0.78393	0.6551	-0.131
Mof_H 	H 	0.3873	0.7681	0.648	0.078
Mof_C 	C 	0.3896	0.83558	0.7335	0.351
Mof_C 	C 	0.30135	0.68231	0.5177	-0.036
Mof_C 	C 	0.29999	0.6588	0.5241	-0.033
Mof_C 	C 	0.29864	0.6323	0.5283	0.1
Mof_C 	C 	0.29231	0.61717	0.49427	-0.149
Mof_H 	H 	0.2902	0.6249	0.4685	0.085
Mof_C 	C 	0.28916	0.5906	0.49832	0.081
Mof_H 	H 	0.2849	0.5804	0.4753	0.017
Mof_C 	C 	0.29234	0.57917	0.53642	-0.158
Mof_C 	C 	0.29867	0.59431	0.57046	0.081
Mof_H 	H 	0.3008	0.5866	0.5962	0.02
Mof_C 	C 	0.30182	0.62088	0.56641	-0.149
Mof_H 	H 	0.3061	0.6311	0.5894	0.093
Mof_C 	C 	0.28883	0.55161	0.541	0.39
Mof_C 	C 	0.433	0.89156	0.74306	0.358
Mof_C 	C 	0.45045	0.90814	0.71858	-0.132
Mof_C 	C 	0.43589	0.92989	0.70447	0.056
Mof_H 	H 	0.4174	0.9329	0.7123	0.026
Mof_C 	C 	0.44867	0.94717	0.67881	-0.133
Mof_H 	H 	0.4388	0.9619	0.6693	0.079
Mof_C 	C 	0.47602	0.94269	0.66726	0.091
Mof_C 	C 	0.49058	0.92093	0.68137	-0.138
Mof_H 	H 	0.5091	0.9179	0.6736	0.09
Mof_C 	C 	0.47779	0.90365	0.70703	0.068
Mof_H 	H 	0.4876	0.8889	0.7166	0.027
Mof_C 	C 	0.48868	0.9598	0.6422	-0.031
Mof_C 	C 	0.49917	0.97505	0.6175	-0.035
Mof_C 	C 	0.51122	0.99361	0.58978	0.113
Mof_C 	C 	0.54046	0.99437	0.58932	-0.17
Mof_H 	H 	0.5514	0.9838	0.6071	0.097
Mof_C 	C 	0.55352	0.01071	0.56253	0.112
Mof_C 	C 	0.53735	0.02631	0.5362	-0.173
Mof_H 	H 	0.5462	0.0374	0.5181	0.095
Mof_C 	C 	0.50811	0.02555	0.53666	0.121
Mof_C 	C 	0.49504	0.00921	0.56345	-0.173
Mof_H 	H 	0.4753	0.0087	0.5638	0.096
Mof_C 	C 	0.5841	0.01165	0.5609	-0.042
Mof_C 	C 	0.6097	0.01176	0.5599	-0.026
Mof_C 	C 	0.63956	0.01242	0.5585	0.081
Mof_C 	C 	0.65722	0.01062	0.59326	-0.127
Mof_H 	H 	0.6495	0.0101	0.619	0.077
Mof_C 	C 	0.68626	0.00961	0.5899	0.051
Mof_H 	H 	0.6982	0.0084	0.6134	0.028
Mof_C 	C 	0.69766	0.01041	0.5519	-0.122
Mof_C 	C 	0.68	0.01221	0.51715	0.057
Mof_H 	H 	0.6877	0.0128	0.4914	0.026
Mof_C 	C 	0.65095	0.01322	0.5205	-0.13
Mof_H 	H 	0.639	0.0144	0.497	0.078
Mof_C 	C 	0.72859	0.00845	0.5519	0.352
Mof_C 	C 	0.49153	0.04013	0.5092	-0.048
Mof_C 	C 	0.48009	0.05407	0.4861	-0.014
Mof_C 	C 	0.46568	0.07006	0.45337	0.079
Mof_C 	C 	0.43801	0.06589	0.4393	-0.133
Mof_H 	H 	0.4271	0.0532	0.4514	0.081
Mof_C 	C 	0.42652	0.08056	0.4073	0.06
Mof_H 	H 	0.4078	0.0777	0.3978	0.026
Mof_C 	C 	0.4427	0.0994	0.3894	-0.136
Mof_C 	C 	0.47037	0.10357	0.40347	0.06
Mof_H 	H 	0.4813	0.1163	0.3914	0.024
Mof_C 	C 	0.48186	0.0889	0.4355	-0.13
Mof_H 	H 	0.5006	0.0917	0.445	0.079
Mof_C 	C 	0.43013	0.11365	0.3553	0.363
Mof_C 	C 	0.3824	0.83196	0.8398	0.384
Mof_C 	C 	0.36833	0.81321	0.8666	-0.132
Mof_C 	C 	0.38136	0.7914	0.8834	0.064
Mof_H 	H 	0.3998	0.7871	0.8767	0.024
Mof_C 	C 	0.36711	0.77592	0.9101	-0.136
Mof_H 	H 	0.3759	0.7612	0.9215	0.08
Mof_C 	C 	0.33983	0.78226	0.92006	0.083
Mof_C 	C 	0.32681	0.80408	0.9032	-0.131
Mof_H 	H 	0.3084	0.8084	0.91	0.078
Mof_C 	C 	0.34106	0.81955	0.8765	0.058
Mof_H 	H 	0.3323	0.8343	0.8651	0.026
Mof_C 	C 	0.32321	0.76751	0.9466	-0.026
Mof_C 	C 	0.31105	0.75658	0.9715	-0.04
Mof_C 	C 	0.29434	0.74448	0.00241	0.118
Mof_C 	C 	0.29294	0.71775	0.00602	-0.179
Mof_H 	H 	0.3025	0.7072	0.9881	0.099
Mof_C 	C 	0.27738	0.7067	0.03619	0.125
Mof_C 	C 	0.26321	0.72237	0.06275	-0.179
Mof_H 	H 	0.2527	0.7149	0.0832	0.097
Mof_C 	C 	0.26461	0.7491	0.05914	0.122
Mof_C 	C 	0.28018	0.76015	0.02897	-0.174
Mof_H 	H 	0.2811	0.7782	0.0265	0.098
Mof_C 	C 	0.27496	0.68075	0.0394	-0.052
Mof_C 	C 	0.27319	0.65564	0.0421	-0.026
Mof_C 	C 	0.27193	0.62867	0.0432	0.089
Mof_C 	C 	0.2684	0.61454	0.00745	-0.139
Mof_H 	H 	0.2658	0.6231	0.9824	0.082
Mof_C 	C 	0.26871	0.58769	0.0087	0.07
Mof_H 	H 	0.2663	0.5781	0.9845	0.023
Mof_C 	C 	0.27256	0.57498	0.0457	-0.144
Mof_C 	C 	0.27609	0.58911	0.08142	0.069
Mof_H 	H 	0.2787	0.5805	0.1064	0.022
Mof_C 	C 	0.27578	0.61596	0.08016	-0.139
Mof_H 	H 	0.2782	0.6255	0.1043	0.082
Mof_C 	C 	0.27632	0.54774	0.0467	0.359
Mof_C 	C 	0.24988	0.76592	0.0844	-0.045
Mof_C 	C 	0.23849	0.78017	0.1073	-0.021
Mof_C 	C 	0.22394	0.79729	0.13389	0.083
Mof_C 	C 	0.19653	0.79183	0.1442	-0.133
Mof_H 	H 	0.1871	0.7773	0.133	0.081
Mof_C 	C 	0.18304	0.8078	0.1711	0.064
Mof_H 	H 	0.1645	0.8041	0.178	0.025
Mof_C 	C 	0.19696	0.82924	0.18764	-0.137
Mof_C 	C 	0.22438	0.8347	0.1773	0.064
Mof_H 	H 	0.2338	0.8492	0.1885	0.023
Mof_C 	C 	0.23787	0.81873	0.1505	-0.134
Mof_H 	H 	0.2564	0.8224	0.1435	0.08
Mof_C 	C 	0.1828	0.84552	0.2166	0.373
Mof_C 	C 	0.83462	0.99373	0.5454	0.378
Mof_C 	C 	0.86407	0.98816	0.5432	-0.153
Mof_C 	C 	0.87559	0.97947	0.50766	0.075
Mof_H 	H 	0.8639	0.9769	0.4842	0.019
Mof_C 	C 	0.90433	0.97457	0.50689	-0.145
Mof_H 	H 	0.9121	0.9687	0.4829	0.086
Mof_C 	C 	0.92156	0.97835	0.5416	0.091
Mof_C 	C 	0.91004	0.98704	0.57715	-0.14
Mof_H 	H 	0.9217	0.9896	0.6006	0.083
Mof_C 	C 	0.8813	0.99194	0.57792	0.071
Mof_H 	H 	0.8735	0.9978	0.6019	0.021
Mof_C 	C 	0.95202	0.97649	0.5387	-0.024
Mof_C 	C 	0.97606	0.9756	0.5387	-0.036
Mof_C 	C 	0.00734	0.97671	0.54	0.113
Mof_C 	C 	0.02331	0.96275	0.51334	-0.174
Mof_H 	H 	0.0144	0.9519	0.4939	0.096
Mof_C 	C 	0.05252	0.96488	0.51547	0.122
Mof_C 	C 	0.06575	0.98096	0.54425	-0.176
Mof_H 	H 	0.0855	0.9824	0.5457	0.098
Mof_C 	C 	0.04978	0.99492	0.57091	0.114
Mof_C 	C 	0.02057	0.9928	0.56878	-0.172
Mof_H 	H 	0.0098	0.0022	0.5868	0.095
Mof_C 	C 	0.06754	0.95172	0.4861	-0.049
Mof_C 	C 	0.08094	0.94164	0.4614	-0.013
Mof_C 	C 	0.09687	0.92837	0.42952	0.074
Mof_C 	C 	0.0853	0.90683	0.40983	-0.123
Mof_H 	H 	0.0679	0.9002	0.4175	0.076
Mof_C 	C 	0.09946	0.89509	0.3788	0.051
Mof_H 	H 	0.0916	0.8805	0.3655	0.029
Mof_C 	C 	0.12519	0.90489	0.36747	-0.117
Mof_C 	C 	0.13675	0.92643	0.38717	0.05
Mof_H 	H 	0.1541	0.9331	0.3795	0.032
Mof_C 	C 	0.12259	0.93817	0.41819	-0.123
Mof_H 	H 	0.1304	0.9527	0.4315	0.083
Mof_C 	C 	0.1402	0.89332	0.33346	0.351
Mof_C 	C 	0.06429	0.01275	0.5984	-0.045
Mof_C 	C 	0.07575	0.02855	0.6203	-0.024
Mof_C 	C 	0.09125	0.04614	0.64598	0.079
Mof_C 	C 	0.11936	0.04207	0.65787	-0.125
Mof_H 	H 	0.129	0.0276	0.6482	0.076
Mof_C 	C 	0.1333	0.0594	0.68402	0.049
Mof_H 	H 	0.1523	0.0566	0.6921	0.028
Mof_C 	C 	0.11911	0.08081	0.69828	-0.123
Mof_C 	C 	0.09099	0.08488	0.68639	0.057
Mof_H 	H 	0.0814	0.0994	0.696	0.026
Mof_C 	C 	0.07706	0.06755	0.66024	-0.128
Mof_H 	H 	0.058	0.0703	0.6522	0.077
Mof_C 	C 	0.1365	0.09782	0.7234	0.332
Mof_Cu	Cu	0.64008	0.35379	0.27209	0.906
Mof_Cu	Cu	0.68212	0.38685	0.27657	0.91
Mof_Cu	Cu	0.88836	0.37637	0.79145	0.912
Mof_Cu	Cu	0.93214	0.34531	0.79568	0.9
Mof_Cu	Cu	0.28388	0.50307	0.58515	0.909
Mof_Cu	Cu	0.27829	0.50119	0.50545	0.905
Mof_O 	O 	0.66667	0.33294	0.30682	-0.41
Mof_O 	O 	0.69932	0.36364	0.31654	-0.394
Mof_O 	O 	0.62253	0.61922	0.73723	-0.372
Mof_O 	O 	0.66082	0.59334	0.73774	-0.411
Mof_O 	O 	0.65802	0.33902	0.22613	-0.407
Mof_O 	O 	0.69596	0.36364	0.23463	-0.409
Mof_O 	O 	0.62741	0.37147	0.31849	-0.394
Mof_O 	O 	0.66043	0.40302	0.31894	-0.414
Mof_O 	O 	0.87712	0.35568	0.74381	-0.407
Mof_O 	O 	0.91366	0.32736	0.7498	-0.397
Mof_O 	O 	0.90601	0.608	0.34016	-0.403
Mof_O 	O 	0.94483	0.63204	0.34024	-0.401
Mof_O 	O 	0.91184	0.39728	0.75851	-0.43
Mof_O 	O 	0.94829	0.37019	0.75814	-0.374
Mof_O 	O 	0.87161	0.35096	0.82529	-0.435
Mof_O 	O 	0.90854	0.32524	0.83317	-0.393
Mof_O 	O 	0.24418	0.50661	0.58384	-0.415
Mof_O 	O 	0.2387	0.50802	0.51578	-0.393
Mof_O 	O 	0.3238	0.49848	0.57772	-0.421
Mof_O 	O 	0.31914	0.49341	0.51112	-0.395
Mof_O 	O 	0.78872	0.04075	0.57471	-0.41
Mof_O 	O 	0.78615	0.03787	0.50864	-0.413
Mof_O 	O 	0.77961	0.03477	0.07987	-0.394
Mof_O 	O 	0.77147	0.03537	0.01305	-0.399
Mof_C 	C 	0.68929	0.34001	0.3229	0.365
Mof_C 	C 	0.70761	0.32342	0.34658	-0.143
Mof_C 	C 	0.70041	0.29749	0.34966	0.064
Mof_H 	H 	0.6844	0.2911	0.335	0.024
Mof_C 	C 	0.71681	0.28106	0.37434	-0.133
Mof_H 	H 	0.7119	0.2635	0.3764	0.082
Mof_C 	C 	0.74042	0.29058	0.39596	0.081
Mof_C 	C 	0.74762	0.31651	0.39289	-0.133
Mof_H 	H 	0.7636	0.3229	0.4075	0.08
Mof_C 	C 	0.73122	0.33294	0.3682	0.066
Mof_H 	H 	0.7361	0.3505	0.3661	0.024
Mof_C 	C 	0.7571	0.27383	0.4252	-0.014
Mof_C 	C 	0.76973	0.26178	0.4504	-0.049
Mof_C 	C 	0.78588	0.24893	0.48051	0.123
Mof_C 	C 	0.80125	0.26359	0.50909	-0.177
Mof_H 	H 	0.8008	0.2817	0.5076	0.097
Mof_C 	C 	0.81731	0.25144	0.53984	0.116
Mof_C 	C 	0.81799	0.22462	0.54201	-0.173
Mof_H 	H 	0.8289	0.2164	0.5628	0.097
Mof_C 	C 	0.80262	0.20996	0.51343	0.115
Mof_C 	C 	0.78656	0.22211	0.48268	-0.176
Mof_H 	H 	0.7762	0.2122	0.4634	0.097
Mof_C 	C 	0.8306	0.26601	0.5719	-0.045
Mof_C 	C 	0.8423	0.2787	0.6018	-0.029
Mof_C 	C 	0.85556	0.2932	0.63296	0.084
Mof_C 	C 	0.84344	0.31655	0.6435	-0.132
Mof_H 	H 	0.8276	0.3228	0.6285	0.079
Mof_C 	C 	0.85481	0.33063	0.6763	0.058
Mof_H 	H 	0.8466	0.3464	0.6834	0.026
Mof_C 	C 	0.8783	0.32136	0.69843	-0.126
Mof_C 	C 	0.89042	0.29801	0.6879	0.057
Mof_H 	H 	0.9063	0.2917	0.7028	0.027
Mof_C 	C 	0.87906	0.28393	0.6551	-0.131
Mof_H 	H 	0.8873	0.2681	0.648	0.078
Mof_C 	C 	0.8896	0.33558	0.7335	0.351
Mof_C 	C 	0.80135	0.18231	0.5177	-0.036
Mof_C 	C 	0.79999	0.1588	0.5241	-0.033
Mof_C 	C 	0.79864	0.1323	0.5283	0.1
Mof_C 	C 	0.79231	0.11717	0.49427	-0.149
Mof_H 	H 	0.7902	0.1249	0.4685	0.085
Mof_C 	C 	0.78916	0.0906	0.49832	0.081
Mof_H 	H 	0.7849	0.0804	0.4753	0.017
Mof_C 	C 	0.79234	0.07917	0.53642	-0.158
Mof_C 	C 	0.79867	0.09431	0.57046	0.081
Mof_H 	H 	0.8008	0.0866	0.5962	0.02
Mof_C 	C 	0.80182	0.12088	0.56641	-0.149
Mof_H 	H 	0.8061	0.1311	0.5894	0.093
Mof_C 	C 	0.78883	0.05161	0.541	0.39
Mof_C 	C 	0.933	0.39156	0.74306	0.358
Mof_C 	C 	0.95045	0.40814	0.71858	-0.132
Mof_C 	C 	0.93589	0.42989	0.70447	0.056
Mof_H 	H 	0.9174	0.4329	0.7123	0.026
Mof_C 	C 	0.94867	0.44717	0.67881	-0.133
Mof_H 	H 	0.9388	0.4619	0.6693	0.079
Mof_C 	C 	0.97602	0.44269	0.66726	0.091
Mof_C 	C 	0.99058	0.42093	0.68137	-0.138
Mof_H 	H 	0.0091	0.4179	0.6736	0.09
Mof_C 	C 	0.97779	0.40365	0.70703	0.068
Mof_H 	H 	0.9876	0.3889	0.7166	0.027
Mof_C 	C 	0.98868	0.4598	0.6422	-0.031
Mof_C 	C 	0.99917	0.47505	0.6175	-0.035
Mof_C 	C 	0.01122	0.49361	0.58978	0.113
Mof_C 	C 	0.04046	0.49437	0.58932	-0.17
Mof_H 	H 	0.0514	0.4838	0.6071	0.097
Mof_C 	C 	0.05352	0.51071	0.56253	0.112
Mof_C 	C 	0.03735	0.52631	0.5362	-0.173
Mof_H 	H 	0.0462	0.5374	0.5181	0.095
Mof_C 	C 	0.00811	0.52555	0.53666	0.121
Mof_C 	C 	0.99504	0.50921	0.56345	-0.173
Mof_H 	H 	0.9753	0.5087	0.5638	0.096
Mof_C 	C 	0.0841	0.51165	0.5609	-0.042
Mof_C 	C 	0.1097	0.51176	0.5599	-0.026
Mof_C 	C 	0.13956	0.51242	0.5585	0.081
Mof_C 	C 	0.15722	0.51062	0.59326	-0.127
Mof_H 	H 	0.1495	0.5101	0.619	0.077
Mof_C 	C 	0.18626	0.50961	0.5899	0.051
Mof_H 	H 	0.1982	0.5084	0.6134	0.028
Mof_C 	C 	0.19766	0.51041	0.5519	-0.122
Mof_C 	C 	0.18	0.51221	0.51715	0.057
Mof_H 	H 	0.1877	0.5128	0.4914	0.026
Mof_C 	C 	0.15095	0.51322	0.5205	-0.13
Mof_H 	H 	0.139	0.5144	0.497	0.078
Mof_C 	C 	0.22859	0.50845	0.5519	0.352
Mof_C 	C 	0.99153	0.54013	0.5092	-0.048
Mof_C 	C 	0.98009	0.55407	0.4861	-0.014
Mof_C 	C 	0.96568	0.57006	0.45337	0.079
Mof_C 	C 	0.93801	0.56589	0.4393	-0.133
Mof_H 	H 	0.9271	0.5532	0.4514	0.081
Mof_C 	C 	0.92652	0.58056	0.4073	0.06
Mof_H 	H 	0.9078	0.5777	0.3978	0.026
Mof_C 	C 	0.9427	0.5994	0.3894	-0.136
Mof_C 	C 	0.97037	0.60357	0.40347	0.06
Mof_H 	H 	0.9813	0.6163	0.3914	0.024
Mof_C 	C 	0.98186	0.5889	0.4355	-0.13
Mof_H 	H 	0.0006	0.5917	0.445	0.079
Mof_C 	C 	0.93013	0.61365	0.3553	0.363
Mof_C 	C 	0.8824	0.33196	0.8398	0.384
Mof_C 	C 	0.86833	0.31321	0.8666	-0.132
Mof_C 	C 	0.88136	0.2914	0.8834	0.064
Mof_H 	H 	0.8998	0.2871	0.8767	0.024
Mof_C 	C 	0.86711	0.27592	0.9101	-0.136
Mof_H 	H 	0.8759	0.2612	0.9215	0.08
Mof_C 	C 	0.83983	0.28226	0.92006	0.083
Mof_C 	C 	0.82681	0.30408	0.9032	-0.131
Mof_H 	H 	0.8084	0.3084	0.91	0.078
Mof_C 	C 	0.84106	0.31955	0.8765	0.058
Mof_H 	H 	0.8323	0.3343	0.8651	0.026
Mof_C 	C 	0.82321	0.26751	0.9466	-0.026
Mof_C 	C 	0.81105	0.25658	0.9715	-0.04
Mof_C 	C 	0.79434	0.24448	0.00241	0.118
Mof_C 	C 	0.79294	0.21775	0.00602	-0.179
Mof_H 	H 	0.8025	0.2072	0.9881	0.099
Mof_C 	C 	0.77738	0.2067	0.03619	0.125
Mof_C 	C 	0.76321	0.22237	0.06275	-0.179
Mof_H 	H 	0.7527	0.2149	0.0832	0.097
Mof_C 	C 	0.76461	0.2491	0.05914	0.122
Mof_C 	C 	0.78018	0.26015	0.02897	-0.174
Mof_H 	H 	0.7811	0.2782	0.0265	0.098
Mof_C 	C 	0.77496	0.18075	0.0394	-0.052
Mof_C 	C 	0.77319	0.15564	0.0421	-0.026
Mof_C 	C 	0.77193	0.12867	0.0432	0.089
Mof_C 	C 	0.7684	0.11454	0.00745	-0.139
Mof_H 	H 	0.7658	0.1231	0.9824	0.082
Mof_C 	C 	0.76871	0.08769	0.0087	0.07
Mof_H 	H 	0.7663	0.0781	0.9845	0.023
Mof_C 	C 	0.77256	0.07498	0.0457	-0.144
Mof_C 	C 	0.77609	0.08911	0.08142	0.069
Mof_H 	H 	0.7787	0.0805	0.1064	0.022
Mof_C 	C 	0.77578	0.11596	0.08016	-0.139
Mof_H 	H 	0.7782	0.1255	0.1043	0.082
Mof_C 	C 	0.77632	0.04774	0.0467	0.359
Mof_C 	C 	0.74988	0.26592	0.0844	-0.045
Mof_C 	C 	0.73849	0.28017	0.1073	-0.021
Mof_C 	C 	0.72394	0.29729	0.13389	0.083
Mof_C 	C 	0.69653	0.29183	0.1442	-0.133
Mof_H 	H 	0.6871	0.2773	0.133	0.081
Mof_C 	C 	0.68304	0.3078	0.1711	0.064
Mof_H 	H 	0.6645	0.3041	0.178	0.025
Mof_C 	C 	0.69696	0.32924	0.18764	-0.137
Mof_C 	C 	0.72438	0.3347	0.1773	0.064
Mof_H 	H 	0.7338	0.3492	0.1885	0.023
Mof_C 	C 	0.73787	0.31873	0.1505	-0.134
Mof_H 	H 	0.7564	0.3224	0.1435	0.08
Mof_C 	C 	0.6828	0.34552	0.2166	0.373
Mof_C 	C 	0.33462	0.49373	0.5454	0.378
Mof_C 	C 	0.36407	0.48816	0.5432	-0.153
Mof_C 	C 	0.37559	0.47947	0.50766	0.075
Mof_H 	H 	0.3639	0.4769	0.4842	0.019
Mof_C 	C 	0.40433	0.47457	0.50689	-0.145
Mof_H 	H 	0.4121	0.4687	0.4829	0.086
Mof_C 	C 	0.42156	0.47835	0.5416	0.091
Mof_C 	C 	0.41004	0.48704	0.57715	-0.14
Mof_H 	H 	0.4217	0.4896	0.6006	0.083
Mof_C 	C 	0.3813	0.49194	0.57792	0.071
Mof_H 	H 	0.3735	0.4978	0.6019	0.021
Mof_C 	C 	0.45202	0.47649	0.5387	-0.024
Mof_C 	C 	0.47606	0.4756	0.5387	-0.036
Mof_C 	C 	0.50734	0.47671	0.54	0.113
Mof_C 	C 	0.52331	0.46275	0.51334	-0.174
Mof_H 	H 	0.5144	0.4519	0.4939	0.096
Mof_C 	C 	0.55252	0.46488	0.51547	0.122
Mof_C 	C 	0.56575	0.48096	0.54425	-0.176
Mof_H 	H 	0.5855	0.4824	0.5457	0.098
Mof_C 	C 	0.54978	0.49492	0.57091	0.114
Mof_C 	C 	0.52057	0.4928	0.56878	-0.172
Mof_H 	H 	0.5098	0.5022	0.5868	0.095
Mof_C 	C 	0.56754	0.45172	0.4861	-0.049
Mof_C 	C 	0.58094	0.44164	0.4614	-0.013
Mof_C 	C 	0.59687	0.42837	0.42952	0.074
Mof_C 	C 	0.5853	0.40683	0.40983	-0.123
Mof_H 	H 	0.5679	0.4002	0.4175	0.076
Mof_C 	C 	0.59946	0.39509	0.3788	0.051
Mof_H 	H 	0.5916	0.3805	0.3655	0.029
Mof_C 	C 	0.62519	0.40489	0.36747	-0.117
Mof_C 	C 	0.63675	0.42643	0.38717	0.05
Mof_H 	H 	0.6541	0.4331	0.3795	0.032
Mof_C 	C 	0.62259	0.43817	0.41819	-0.123
Mof_H 	H 	0.6304	0.4527	0.4315	0.083
Mof_C 	C 	0.6402	0.39332	0.33346	0.351
Mof_C 	C 	0.56429	0.51275	0.5984	-0.045
Mof_C 	C 	0.57575	0.52855	0.6203	-0.024
Mof_C 	C 	0.59125	0.54614	0.64598	0.079
Mof_C 	C 	0.61936	0.54207	0.65787	-0.125
Mof_H 	H 	0.629	0.5276	0.6482	0.076
Mof_C 	C 	0.6333	0.5594	0.68402	0.049
Mof_H 	H 	0.6523	0.5566	0.6921	0.028
Mof_C 	C 	0.61911	0.58081	0.69828	-0.123
Mof_C 	C 	0.59099	0.58488	0.68639	0.057
Mof_H 	H 	0.5814	0.5994	0.696	0.026
Mof_C 	C 	0.57706	0.56755	0.66024	-0.128
Mof_H 	H 	0.558	0.5703	0.6522	0.077
Mof_C 	C 	0.6365	0.59782	0.7234	0.332
Mof_Cu	Cu	0.14008	0.14621	0.77209	0.906
Mof_Cu	Cu	0.18212	0.11315	0.77657	0.91
Mof_Cu	Cu	0.38836	0.12363	0.29145	0.912
Mof_Cu	Cu	0.43214	0.15469	0.29568	0.9
Mof_Cu	Cu	0.78388	0.99693	0.08515	0.909
Mof_Cu	Cu	0.77829	0.99881	0.00545	0.905
Mof_O 	O 	0.16667	0.16706	0.80682	-0.41
Mof_O 	O 	0.19932	0.13636	0.81654	-0.394
Mof_O 	O 	0.12253	0.88078	0.23723	-0.372
Mof_O 	O 	0.16082	0.90666	0.23774	-0.411
Mof_O 	O 	0.15802	0.16098	0.72613	-0.407
Mof_O 	O 	0.19596	0.13636	0.73463	-0.409
Mof_O 	O 	0.12741	0.12853	0.81849	-0.394
Mof_O 	O 	0.16043	0.09698	0.81894	-0.414
Mof_O 	O 	0.37712	0.14432	0.24381	-0.407
Mof_O 	O 	0.41366	0.17264	0.2498	-0.397
Mof_O 	O 	0.40601	0.892	0.84016	-0.403
Mof_O 	O 	0.44483	0.86796	0.84024	-0.401
Mof_O 	O 	0.41184	0.10272	0.25851	-0.43
Mof_O 	O 	0.44829	0.12981	0.25814	-0.374
Mof_O 	O 	0.37161	0.14904	0.32529	-0.435
Mof_O 	O 	0.40854	0.17476	0.33317	-0.393
Mof_O 	O 	0.74418	0.99339	0.08384	-0.415
Mof_O 	O 	0.7387	0.99198	0.01578	-0.393
Mof_O 	O 	0.8238	0.00152	0.07772	-0.421
Mof_O 	O 	0.81914	0.00659	0.01112	-0.395
Mof_O 	O 	0.28872	0.45925	0.07471	-0.41
Mof_O 	O 	0.28615	0.46213	0.00864	-0.413
Mof_O 	O 	0.27961	0.46523	0.57987	-0.394
Mof_O 	O 	0.27147	0.46463	0.51305	-0.399
Mof_C 	C 	0.18929	0.15999	0.8229	0.365
Mof_C 	C 	0.20761	0.17658	0.84658	-0.143
Mof_C 	C 	0.20041	0.20251	0.84966	0.064
Mof_H 	H 	0.1844	0.2089	0.835	0.024
Mof_C 	C 	0.21681	0.21894	0.87434	-0.133
Mof_H 	H 	0.2119	0.2365	0.8764	0.082
Mof_C 	C 	0.24042	0.20942	0.89596	0.081
Mof_C 	C 	0.24762	0.18349	0.89289	-0.133
Mof_H 	H 	0.2636	0.1771	0.9075	0.08
Mof_C 	C 	0.23122	0.16706	0.8682	0.066
Mof_H 	H 	0.2361	0.1495	0.8661	0.024
Mof_C 	C 	0.2571	0.22617	0.9252	-0.014
Mof_C 	C 	0.26973	0.23822	0.9504	-0.049
Mof_C 	C 	0.28588	0.25107	0.98051	0.123
Mof_C 	C 	0.30125	0.23641	0.00909	-0.177
Mof_H 	H 	0.3008	0.2183	0.0076	0.097
Mof_C 	C 	0.31731	0.24856	0.03984	0.116
Mof_C 	C 	0.31799	0.27538	0.04201	-0.173
Mof_H 	H 	0.3289	0.2836	0.0628	0.097
Mof_C 	C 	0.30262	0.29004	0.01343	0.115
Mof_C 	C 	0.28656	0.27789	0.98268	-0.176
Mof_H 	H 	0.2762	0.2878	0.9634	0.097
Mof_C 	C 	0.3306	0.23399	0.0719	-0.045
Mof_C 	C 	0.3423	0.2213	0.1018	-0.029
Mof_C 	C 	0.35556	0.2068	0.13296	0.084
Mof_C 	C 	0.34344	0.18345	0.1435	-0.132
Mof_H 	H 	0.3276	0.1772	0.1285	0.079
Mof_C 	C 	0.35481	0.16937	0.1763	0.058
Mof_H 	H 	0.3466	0.1536	0.1834	0.026
Mof_C 	C 	0.3783	0.17864	0.19843	-0.126
Mof_C 	C 	0.39042	0.20199	0.1879	0.057
Mof_H 	H 	0.4063	0.2083	0.2028	0.027
Mof_C 	C 	0.37906	0.21607	0.1551	-0.131
Mof_H 	H 	0.3873	0.2319	0.148	0.078
Mof_C 	C 	0.3896	0.16442	0.2335	0.351
Mof_C 	C 	0.30135	0.31769	0.0177	-0.036
Mof_C 	C 	0.29999	0.3412	0.0241	-0.033
Mof_C 	C 	0.29864	0.3677	0.0283	0.1
Mof_C 	C 	0.29231	0.38283	0.99427	-0.149
Mof_H 	H 	0.2902	0.3751	0.9685	0.085
Mof_C 	C 	0.28916	0.4094	0.99832	0.081
Mof_H 	H 	0.2849	0.4196	0.9753	0.017
Mof_C 	C 	0.29234	0.42083	0.03642	-0.158
Mof_C 	C 	0.29867	0.40569	0.07046	0.081
Mof_H 	H 	0.3008	0.4134	0.0962	0.02
Mof_C 	C 	0.30182	0.37912	0.06641	-0.149
Mof_H 	H 	0.3061	0.3689	0.0894	0.093
Mof_C 	C 	0.28883	0.44839	0.041	0.39
Mof_C 	C 	0.433	0.10844	0.24306	0.358
Mof_C 	C 	0.45045	0.09186	0.21858	-0.132
Mof_C 	C 	0.43589	0.07011	0.20447	0.056
Mof_H 	H 	0.4174	0.0671	0.2123	0.026
Mof_C 	C 	0.44867	0.05283	0.17881	-0.133
Mof_H 	H 	0.4388	0.0381	0.1693	0.079
Mof_C 	C 	0.47602	0.05731	0.16726	0.091
Mof_C 	C 	0.49058	0.07907	0.18137	-0.138
Mof_H 	H 	0.5091	0.0821	0.1736	0.09
Mof_C 	C 	0.47779	0.09635	0.20703	0.068
Mof_H 	H 	0.4876	0.1111	0.2166	0.027
Mof_C 	C 	0.48868	0.0402	0.1422	-0.031
Mof_C 	C 	0.49917	0.02495	0.1175	-0.035
Mof_C 	C 	0.51122	0.00639	0.08978	0.113
Mof_C 	C 	0.54046	0.00563	0.08932	-0.17
Mof_H 	H 	0.5514	0.0162	0.1071	0.097
Mof_C 	C 	0.55352	0.98929	0.06253	0.112
Mof_C 	C 	0.53735	0.97369	0.0362	-0.173
Mof_H 	H 	0.5462	0.9626	0.0181	0.095
Mof_C 	C 	0.50811	0.97445	0.03666	0.121
Mof_C 	C 	0.49504	0.99079	0.06345	-0.173
Mof_H 	H 	0.4753	0.9913	0.0638	0.096
Mof_C 	C 	0.5841	0.98835	0.0609	-0.042
Mof_C 	C 	0.6097	0.98824	0.0599	-0.026
Mof_C 	C 	0.63956	0.98758	0.0585	0.081
Mof_C 	C 	0.65722	0.98938	0.09326	-0.127
Mof_H 	H 	0.6495	0.9899	0.119	0.077
Mof_C 	C 	0.68626	0.99039	0.0899	0.051
Mof_H 	H 	0.6982	0.9916	0.1134	0.028
Mof_C 	C 	0.69766	0.98959	0.0519	-0.122
Mof_C 	C 	0.68	0.98779	0.01715	0.057
Mof_H 	H 	0.6877	0.9872	0.9914	0.026
Mof_C 	C 	0.65095	0.98678	0.0205	-0.13
Mof_H 	H 	0.639	0.9856	0.997	0.078
Mof_C 	C 	0.72859	0.99155	0.0519	0.352
Mof_C 	C 	0.49153	0.95987	0.0092	-0.048
Mof_C 	C 	0.48009	0.94593	0.9861	-0.014
Mof_C 	C 	0.46568	0.92994	0.95337	0.079
Mof_C 	C 	0.43801	0.93411	0.9393	-0.133
Mof_H 	H 	0.4271	0.9468	0.9514	0.081
Mof_C 	C 	0.42652	0.91944	0.9073	0.06
Mof_H 	H 	0.4078	0.9223	0.8978	0.026
Mof_C 	C 	0.4427	0.9006	0.8894	-0.136
Mof_C 	C 	0.47037	0.89643	0.90347	0.06
Mof_H 	H 	0.4813	0.8837	0.8914	0.024
Mof_C 	C 	0.48186	0.9111	0.9355	-0.13
Mof_H 	H 	0.5006	0.9083	0.945	0.079
Mof_C 	C 	0.43013	0.88635	0.8553	0.363
Mof_C 	C 	0.3824	0.16804	0.3398	0.384
Mof_C 	C 	0.36833	0.18679	0.3666	-0.132
Mof_C 	C 	0.38136	0.2086	0.3834	0.064
Mof_H 	H 	0.3998	0.2129	0.3767	0.024
Mof_C 	C 	0.36711	0.22408	0.4101	-0.136
Mof_H 	H 	0.3759	0.2388	0.4215	0.08
Mof_C 	C 	0.33983	0.21774	0.42006	0.083
Mof_C 	C 	0.32681	0.19592	0.4032	-0.131
Mof_H 	H 	0.3084	0.1916	0.41	0.078
Mof_C 	C 	0.34106	0.18045	0.3765	0.058
Mof_H 	H 	0.3323	0.1657	0.3651	0.026
Mof_C 	C 	0.32321	0.23249	0.4466	-0.026
Mof_C 	C 	0.31105	0.24342	0.4715	-0.04
Mof_C 	C 	0.29434	0.25552	0.50241	0.118
Mof_C 	C 	0.29294	0.28225	0.50602	-0.179
Mof_H 	H 	0.3025	0.2928	0.4881	0.099
Mof_C 	C 	0.27738	0.2933	0.53619	0.125
Mof_C 	C 	0.26321	0.27763	0.56275	-0.179
Mof_H 	H 	0.2527	0.2851	0.5832	0.097
Mof_C 	C 	0.26461	0.2509	0.55914	0.122
Mof_C 	C 	0.28018	0.23985	0.52897	-0.174
Mof_H 	H 	0.2811	0.2218	0.5265	0.098
Mof_C 	C 	0.27496	0.31925	0.5394	-0.052
Mof_C 	C 	0.27319	0.34436	0.5421	-0.026
Mof_C 	C 	0.27193	0.37133	0.5432	0.089
Mof_C 	C 	0.2684	0.38546	0.50745	-0.139
Mof_H 	H 	0.2658	0.3769	0.4824	0.082
Mof_C 	C 	0.26871	0.41231	0.5087	0.07
Mof_H 	H 	0.2663	0.4219	0.4845	0.023
Mof_C 	C 	0.27256	0.42502	0.5457	-0.144
Mof_C 	C 	0.27609	0.41089	0.58142	0.069
Mof_H 	H 	0.2787	0.4195	0.6064	0.022
Mof_C 	C 	0.27578	0.38404	0.58016	-0.139
Mof_H 	H 	0.2782	0.3745	0.6043	0.082
Mof_C 	C 	0.27632	0.45226	0.5467	0.359
Mof_C 	C 	0.24988	0.23408	0.5844	-0.045
Mof_C 	C 	0.23849	0.21983	0.6073	-0.021
Mof_C 	C 	0.22394	0.20271	0.63389	0.083
Mof_C 	C 	0.19653	0.20817	0.6442	-0.133
Mof_H 	H 	0.1871	0.2227	0.633	0.081
Mof_C 	C 	0.18304	0.1922	0.6711	0.064
Mof_H 	H 	0.1645	0.1959	0.678	0.025
Mof_C 	C 	0.19696	0.17076	0.68764	-0.137
Mof_C 	C 	0.22438	0.1653	0.6773	0.064
Mof_H 	H 	0.2338	0.1508	0.6885	0.023
Mof_C 	C 	0.23787	0.18127	0.6505	-0.134
Mof_H 	H 	0.2564	0.1776	0.6435	0.08
Mof_C 	C 	0.1828	0.15448	0.7166	0.373
Mof_C 	C 	0.83462	0.00627	0.0454	0.378
Mof_C 	C 	0.86407	0.01184	0.0432	-0.153
Mof_C 	C 	0.87559	0.02053	0.00766	0.075
Mof_H 	H 	0.8639	0.0231	0.9842	0.019
Mof_C 	C 	0.90433	0.02543	0.00689	-0.145
Mof_H 	H 	0.9121	0.0313	0.9829	0.085
Mof_C 	C 	0.92156	0.02165	0.0416	0.091
Mof_C 	C 	0.91004	0.01296	0.07715	-0.14
Mof_H 	H 	0.9217	0.0104	0.1006	0.083
Mof_C 	C 	0.8813	0.00806	0.07792	0.071
Mof_H 	H 	0.8735	0.0022	0.1019	0.021
Mof_C 	C 	0.95202	0.02351	0.0387	-0.024
Mof_C 	C 	0.97606	0.0244	0.0387	-0.036
Mof_C 	C 	0.00734	0.02329	0.04	0.113
Mof_C 	C 	0.02331	0.03725	0.01334	-0.174
Mof_H 	H 	0.0144	0.0481	0.9939	0.096
Mof_C 	C 	0.05252	0.03512	0.01547	0.122
Mof_C 	C 	0.06575	0.01904	0.04425	-0.176
Mof_H 	H 	0.0855	0.0176	0.0457	0.098
Mof_C 	C 	0.04978	0.00508	0.07091	0.114
Mof_C 	C 	0.02057	0.0072	0.06878	-0.172
Mof_H 	H 	0.0098	0.9978	0.0868	0.095
Mof_C 	C 	0.06754	0.04828	0.9861	-0.049
Mof_C 	C 	0.08094	0.05836	0.9614	-0.013
Mof_C 	C 	0.09687	0.07163	0.92952	0.074
Mof_C 	C 	0.0853	0.09317	0.90983	-0.123
Mof_H 	H 	0.0679	0.0998	0.9175	0.076
Mof_C 	C 	0.09946	0.10491	0.8788	0.051
Mof_H 	H 	0.0916	0.1195	0.8655	0.029
Mof_C 	C 	0.12519	0.09511	0.86747	-0.117
Mof_C 	C 	0.13675	0.07357	0.88717	0.05
Mof_H 	H 	0.1541	0.0669	0.8795	0.032
Mof_C 	C 	0.12259	0.06183	0.91819	-0.123
Mof_H 	H 	0.1304	0.0473	0.9315	0.083
Mof_C 	C 	0.1402	0.10668	0.83346	0.351
Mof_C 	C 	0.06429	0.98725	0.0984	-0.045
Mof_C 	C 	0.07575	0.97145	0.1203	-0.024
Mof_C 	C 	0.09125	0.95386	0.14598	0.079
Mof_C 	C 	0.11936	0.95793	0.15787	-0.125
Mof_H 	H 	0.129	0.9724	0.1482	0.076
Mof_C 	C 	0.1333	0.9406	0.18402	0.049
Mof_H 	H 	0.1523	0.9434	0.1921	0.028
Mof_C 	C 	0.11911	0.91919	0.19828	-0.123
Mof_C 	C 	0.09099	0.91512	0.18639	0.057
Mof_H 	H 	0.0814	0.9006	0.196	0.026
Mof_C 	C 	0.07706	0.93245	0.16024	-0.128
Mof_H 	H 	0.058	0.9297	0.1522	0.077
Mof_C 	C 	0.1365	0.90218	0.2234	0.332
Mof_Cu	Cu	0.64008	0.64621	0.77209	0.906
Mof_Cu	Cu	0.68212	0.61315	0.77657	0.91
Mof_Cu	Cu	0.88836	0.62363	0.29145	0.912
Mof_Cu	Cu	0.93214	0.65469	0.29568	0.9
Mof_Cu	Cu	0.28388	0.49693	0.08515	0.909
Mof_Cu	Cu	0.27829	0.49881	0.00545	0.905
Mof_O 	O 	0.66667	0.66706	0.80682	-0.41
Mof_O 	O 	0.69932	0.63636	0.81654	-0.394
Mof_O 	O 	0.62253	0.38078	0.23723	-0.372
Mof_O 	O 	0.66082	0.40666	0.23774	-0.411
Mof_O 	O 	0.65802	0.66098	0.72613	-0.407
Mof_O 	O 	0.69596	0.63636	0.73463	-0.409
Mof_O 	O 	0.62741	0.62853	0.81849	-0.394
Mof_O 	O 	0.66043	0.59698	0.81894	-0.414
Mof_O 	O 	0.87712	0.64432	0.24381	-0.407
Mof_O 	O 	0.91366	0.67264	0.2498	-0.397
Mof_O 	O 	0.90601	0.392	0.84016	-0.403
Mof_O 	O 	0.94483	0.36796	0.84024	-0.401
Mof_O 	O 	0.91184	0.60272	0.25851	-0.43
Mof_O 	O 	0.94829	0.62981	0.25814	-0.374
Mof_O 	O 	0.87161	0.64904	0.32529	-0.435
Mof_O 	O 	0.90854	0.67476	0.33317	-0.393
Mof_O 	O 	0.24418	0.49339	0.08384	-0.415
Mof_O 	O 	0.2387	0.49198	0.01578	-0.393
Mof_O 	O 	0.3238	0.50152	0.07772	-0.421
Mof_O 	O 	0.31914	0.50659	0.01112	-0.395
Mof_O 	O 	0.78872	0.95925	0.07471	-0.41
Mof_O 	O 	0.78615	0.96213	0.00864	-0.413
Mof_O 	O 	0.77961	0.96523	0.57987	-0.394
Mof_O 	O 	0.77147	0.96463	0.51305	-0.399
Mof_C 	C 	0.68929	0.65999	0.8229	0.365
Mof_C 	C 	0.70761	0.67658	0.84658	-0.143
Mof_C 	C 	0.70041	0.70251	0.84966	0.064
Mof_H 	H 	0.6844	0.7089	0.835	0.024
Mof_C 	C 	0.71681	0.71894	0.87434	-0.133
Mof_H 	H 	0.7119	0.7365	0.8764	0.082
Mof_C 	C 	0.74042	0.70942	0.89596	0.081
Mof_C 	C 	0.74762	0.68349	0.89289	-0.133
Mof_H 	H 	0.7636	0.6771	0.9075	0.08
Mof_C 	C 	0.73122	0.66706	0.8682	0.066
Mof_H 	H 	0.7361	0.6495	0.8661	0.024
Mof_C 	C 	0.7571	0.72617	0.9252	-0.014
Mof_C 	C 	0.76973	0.73822	0.9504	-0.049
Mof_C 	C 	0.78588	0.75107	0.98051	0.123
Mof_C 	C 	0.80125	0.73641	0.00909	-0.177
Mof_H 	H 	0.8008	0.7183	0.0076	0.097
Mof_C 	C 	0.81731	0.74856	0.03984	0.116
Mof_C 	C 	0.81799	0.77538	0.04201	-0.173
Mof_H 	H 	0.8289	0.7836	0.0628	0.097
Mof_C 	C 	0.80262	0.79004	0.01343	0.115
Mof_C 	C 	0.78656	0.77789	0.98268	-0.176
Mof_H 	H 	0.7762	0.7878	0.9634	0.097
Mof_C 	C 	0.8306	0.73399	0.0719	-0.045
Mof_C 	C 	0.8423	0.7213	0.1018	-0.029
Mof_C 	C 	0.85556	0.7068	0.13296	0.084
Mof_C 	C 	0.84344	0.68345	0.1435	-0.132
Mof_H 	H 	0.8276	0.6772	0.1285	0.079
Mof_C 	C 	0.85481	0.66937	0.1763	0.058
Mof_H 	H 	0.8466	0.6536	0.1834	0.026
Mof_C 	C 	0.8783	0.67864	0.19843	-0.126
Mof_C 	C 	0.89042	0.70199	0.1879	0.057
Mof_H 	H 	0.9063	0.7083	0.2028	0.027
Mof_C 	C 	0.87906	0.71607	0.1551	-0.131
Mof_H 	H 	0.8873	0.7319	0.148	0.078
Mof_C 	C 	0.8896	0.66442	0.2335	0.351
Mof_C 	C 	0.80135	0.81769	0.0177	-0.036
Mof_C 	C 	0.79999	0.8412	0.0241	-0.033
Mof_C 	C 	0.79864	0.8677	0.0283	0.1
Mof_C 	C 	0.79231	0.88283	0.99427	-0.149
Mof_H 	H 	0.7902	0.8751	0.9685	0.085
Mof_C 	C 	0.78916	0.9094	0.99832	0.081
Mof_H 	H 	0.7849	0.9196	0.9753	0.017
Mof_C 	C 	0.79234	0.92083	0.03642	-0.158
Mof_C 	C 	0.79867	0.90569	0.07046	0.081
Mof_H 	H 	0.8008	0.9134	0.0962	0.02
Mof_C 	C 	0.80182	0.87912	0.06641	-0.149
Mof_H 	H 	0.8061	0.8689	0.0894	0.093
Mof_C 	C 	0.78883	0.94839	0.041	0.39
Mof_C 	C 	0.933	0.60844	0.24306	0.358
Mof_C 	C 	0.95045	0.59186	0.21858	-0.132
Mof_C 	C 	0.93589	0.57011	0.20447	0.056
Mof_H 	H 	0.9174	0.5671	0.2123	0.026
Mof_C 	C 	0.94867	0.55283	0.17881	-0.133
Mof_H 	H 	0.9388	0.5381	0.1693	0.079
Mof_C 	C 	0.97602	0.55731	0.16726	0.091
Mof_C 	C 	0.99058	0.57907	0.18137	-0.138
Mof_H 	H 	0.0091	0.5821	0.1736	0.09
Mof_C 	C 	0.97779	0.59635	0.20703	0.068
Mof_H 	H 	0.9876	0.6111	0.2166	0.027
Mof_C 	C 	0.98868	0.5402	0.1422	-0.031
Mof_C 	C 	0.99917	0.52495	0.1175	-0.035
Mof_C 	C 	0.01122	0.50639	0.08978	0.113
Mof_C 	C 	0.04046	0.50563	0.08932	-0.17
Mof_H 	H 	0.0514	0.5162	0.1071	0.097
Mof_C 	C 	0.05352	0.48929	0.06253	0.112
Mof_C 	C 	0.03735	0.47369	0.0362	-0.173
Mof_H 	H 	0.0462	0.4626	0.0181	0.095
Mof_C 	C 	0.00811	0.47445	0.03666	0.121
Mof_C 	C 	0.99504	0.49079	0.06345	-0.173
Mof_H 	H 	0.9753	0.4913	0.0638	0.096
Mof_C 	C 	0.0841	0.48835	0.0609	-0.042
Mof_C 	C 	0.1097	0.48824	0.0599	-0.026
Mof_C 	C 	0.13956	0.48758	0.0585	0.081
Mof_C 	C 	0.15722	0.48938	0.09326	-0.127
Mof_H 	H 	0.1495	0.4899	0.119	0.077
Mof_C 	C 	0.18626	0.49039	0.0899	0.051
Mof_H 	H 	0.1982	0.4916	0.1134	0.028
Mof_C 	C 	0.19766	0.48959	0.0519	-0.122
Mof_C 	C 	0.18	0.48779	0.01715	0.057
Mof_H 	H 	0.1877	0.4872	0.9914	0.026
Mof_C 	C 	0.15095	0.48678	0.0205	-0.13
Mof_H 	H 	0.139	0.4856	0.997	0.078
Mof_C 	C 	0.22859	0.49155	0.0519	0.352
Mof_C 	C 	0.99153	0.45987	0.0092	-0.048
Mof_C 	C 	0.98009	0.44593	0.9861	-0.014
Mof_C 	C 	0.96568	0.42994	0.95337	0.079
Mof_C 	C 	0.93801	0.43411	0.9393	-0.133
Mof_H 	H 	0.9271	0.4468	0.9514	0.081
Mof_C 	C 	0.92652	0.41944	0.9073	0.06
Mof_H 	H 	0.9078	0.4223	0.8978	0.026
Mof_C 	C 	0.9427	0.4006	0.8894	-0.136
Mof_C 	C 	0.97037	0.39643	0.90347	0.06
Mof_H 	H 	0.9813	0.3837	0.8914	0.024
Mof_C 	C 	0.98186	0.4111	0.9355	-0.13
Mof_H 	H 	0.0006	0.4083	0.945	0.079
Mof_C 	C 	0.93013	0.38635	0.8553	0.363
Mof_C 	C 	0.8824	0.66804	0.3398	0.384
Mof_C 	C 	0.86833	0.68679	0.3666	-0.132
Mof_C 	C 	0.88136	0.7086	0.3834	0.064
Mof_H 	H 	0.8998	0.7129	0.3767	0.024
Mof_C 	C 	0.86711	0.72408	0.4101	-0.136
Mof_H 	H 	0.8759	0.7388	0.4215	0.08
Mof_C 	C 	0.83983	0.71774	0.42006	0.083
Mof_C 	C 	0.82681	0.69592	0.4032	-0.131
Mof_H 	H 	0.8084	0.6916	0.41	0.078
Mof_C 	C 	0.84106	0.68045	0.3765	0.058
Mof_H 	H 	0.8323	0.6657	0.3651	0.026
Mof_C 	C 	0.82321	0.73249	0.4466	-0.026
Mof_C 	C 	0.81105	0.74342	0.4715	-0.04
Mof_C 	C 	0.79434	0.75552	0.50241	0.118
Mof_C 	C 	0.79294	0.78225	0.50602	-0.179
Mof_H 	H 	0.8025	0.7928	0.4881	0.099
Mof_C 	C 	0.77738	0.7933	0.53619	0.125
Mof_C 	C 	0.76321	0.77763	0.56275	-0.179
Mof_H 	H 	0.7527	0.7851	0.5832	0.097
Mof_C 	C 	0.76461	0.7509	0.55914	0.122
Mof_C 	C 	0.78018	0.73985	0.52897	-0.174
Mof_H 	H 	0.7811	0.7218	0.5265	0.098
Mof_C 	C 	0.77496	0.81925	0.5394	-0.052
Mof_C 	C 	0.77319	0.84436	0.5421	-0.026
Mof_C 	C 	0.77193	0.87133	0.5432	0.089
Mof_C 	C 	0.7684	0.88546	0.50745	-0.139
Mof_H 	H 	0.7658	0.8769	0.4824	0.082
Mof_C 	C 	0.76871	0.91231	0.5087	0.07
Mof_H 	H 	0.7663	0.9219	0.4845	0.023
Mof_C 	C 	0.77256	0.92502	0.5457	-0.144
Mof_C 	C 	0.77609	0.91089	0.58142	0.069
Mof_H 	H 	0.7787	0.9195	0.6064	0.022
Mof_C 	C 	0.77578	0.88404	0.58016	-0.139
Mof_H 	H 	0.7782	0.8745	0.6043	0.082
Mof_C 	C 	0.77632	0.95226	0.5467	0.359
Mof_C 	C 	0.74988	0.73408	0.5844	-0.045
Mof_C 	C 	0.73849	0.71983	0.6073	-0.021
Mof_C 	C 	0.72394	0.70271	0.63389	0.083
Mof_C 	C 	0.69653	0.70817	0.6442	-0.133
Mof_H 	H 	0.6871	0.7227	0.633	0.081
Mof_C 	C 	0.68304	0.6922	0.6711	0.064
Mof_H 	H 	0.6645	0.6959	0.678	0.025
Mof_C 	C 	0.69696	0.67076	0.68764	-0.137
Mof_C 	C 	0.72438	0.6653	0.6773	0.064
Mof_H 	H 	0.7338	0.6508	0.6885	0.023
Mof_C 	C 	0.73787	0.68127	0.6505	-0.134
Mof_H 	H 	0.7564	0.6776	0.6435	0.08
Mof_C 	C 	0.6828	0.65448	0.7166	0.373
Mof_C 	C 	0.33462	0.50627	0.0454	0.378
Mof_C 	C 	0.36407	0.51184	0.0432	-0.153
Mof_C 	C 	0.37559	0.52053	0.00766	0.075
Mof_H 	H 	0.3639	0.5231	0.9842	0.019
Mof_C 	C 	0.40433	0.52543	0.00689	-0.145
Mof_H 	H 	0.4121	0.5313	0.9829	0.085
Mof_C 	C 	0.42156	0.52165	0.0416	0.091
Mof_C 	C 	0.41004	0.51296	0.07715	-0.14
Mof_H 	H 	0.4217	0.5104	0.1006	0.083
Mof_C 	C 	0.3813	0.50806	0.07792	0.071
Mof_H 	H 	0.3735	0.5022	0.1019	0.021
Mof_C 	C 	0.45202	0.52351	0.0387	-0.024
Mof_C 	C 	0.47606	0.5244	0.0387	-0.036
Mof_C 	C 	0.50734	0.52329	0.04	0.113
Mof_C 	C 	0.52331	0.53725	0.01334	-0.174
Mof_H 	H 	0.5144	0.5481	0.9939	0.096
Mof_C 	C 	0.55252	0.53512	0.01547	0.122
Mof_C 	C 	0.56575	0.51904	0.04425	-0.176
Mof_H 	H 	0.5855	0.5176	0.0457	0.098
Mof_C 	C 	0.54978	0.50508	0.07091	0.114
Mof_C 	C 	0.52057	0.5072	0.06878	-0.172
Mof_H 	H 	0.5098	0.4978	0.0868	0.095
Mof_C 	C 	0.56754	0.54828	0.9861	-0.049
Mof_C 	C 	0.58094	0.55836	0.9614	-0.013
Mof_C 	C 	0.59687	0.57163	0.92952	0.074
Mof_C 	C 	0.5853	0.59317	0.90983	-0.123
Mof_H 	H 	0.5679	0.5998	0.9175	0.076
Mof_C 	C 	0.59946	0.60491	0.8788	0.051
Mof_H 	H 	0.5916	0.6195	0.8655	0.029
Mof_C 	C 	0.62519	0.59511	0.86747	-0.117
Mof_C 	C 	0.63675	0.57357	0.88717	0.05
Mof_H 	H 	0.6541	0.5669	0.8795	0.032
Mof_C 	C 	0.62259	0.56183	0.91819	-0.123
Mof_H 	H 	0.6304	0.5473	0.9315	0.083
Mof_C 	C 	0.6402	0.60668	0.83346	0.351
Mof_C 	C 	0.56429	0.48725	0.0984	-0.045
Mof_C 	C 	0.57575	0.47145	0.1203	-0.024
Mof_C 	C 	0.59125	0.45386	0.14598	0.079
Mof_C 	C 	0.61936	0.45793	0.15787	-0.125
Mof_H 	H 	0.629	0.4724	0.1482	0.076
Mof_C 	C 	0.6333	0.4406	0.18402	0.049
Mof_H 	H 	0.6523	0.4434	0.1921	0.028
Mof_C 	C 	0.61911	0.41919	0.19828	-0.123
Mof_C 	C 	0.59099	0.41512	0.18639	0.057
Mof_H 	H 	0.5814	0.4006	0.196	0.026
Mof_C 	C 	0.57706	0.43245	0.16024	-0.128
Mof_H 	H 	0.558	0.4297	0.1522	0.077
Mof_C 	C 	0.6365	0.40218	0.2234	0.332
Mof_Cu	Cu	0.85992	0.85379	0.22791	0.906
Mof_Cu	Cu	0.81788	0.88685	0.22343	0.91
Mof_Cu	Cu	0.61164	0.87637	0.70855	0.912
Mof_Cu	Cu	0.56786	0.84531	0.70432	0.9
Mof_Cu	Cu	0.21612	0.00307	0.91485	0.909
Mof_Cu	Cu	0.22171	0.00119	0.99455	0.905
Mof_O 	O 	0.83333	0.83294	0.19318	-0.41
Mof_O 	O 	0.80068	0.86364	0.18346	-0.394
Mof_O 	O 	0.87747	0.11922	0.76277	-0.372
Mof_O 	O 	0.83918	0.09334	0.76226	-0.411
Mof_O 	O 	0.84198	0.83902	0.27387	-0.407
Mof_O 	O 	0.80404	0.86364	0.26537	-0.409
Mof_O 	O 	0.87259	0.87147	0.18151	-0.394
Mof_O 	O 	0.83957	0.90302	0.18106	-0.414
Mof_O 	O 	0.62288	0.85568	0.75619	-0.407
Mof_O 	O 	0.58634	0.82736	0.7502	-0.397
Mof_O 	O 	0.59399	0.108	0.15984	-0.403
Mof_O 	O 	0.55517	0.13204	0.15976	-0.401
Mof_O 	O 	0.58816	0.89728	0.74149	-0.43
Mof_O 	O 	0.55171	0.87019	0.74186	-0.374
Mof_O 	O 	0.62839	0.85096	0.67471	-0.435
Mof_O 	O 	0.59146	0.82524	0.66683	-0.393
Mof_O 	O 	0.25582	0.00661	0.91616	-0.415
Mof_O 	O 	0.2613	0.00802	0.98422	-0.393
Mof_O 	O 	0.1762	0.99848	0.92228	-0.421
Mof_O 	O 	0.18086	0.99341	0.98888	-0.395
Mof_O 	O 	0.71128	0.54075	0.92529	-0.41
Mof_O 	O 	0.71385	0.53787	0.99136	-0.413
Mof_O 	O 	0.72039	0.53477	0.42013	-0.394
Mof_O 	O 	0.72853	0.53537	0.48695	-0.399
Mof_C 	C 	0.81071	0.84001	0.1771	0.365
Mof_C 	C 	0.79239	0.82342	0.15342	-0.143
Mof_C 	C 	0.79959	0.79749	0.15034	0.064
Mof_H 	H 	0.8156	0.7911	0.165	0.024
Mof_C 	C 	0.78319	0.78106	0.12566	-0.133
Mof_H 	H 	0.7881	0.7635	0.1236	0.082
Mof_C 	C 	0.75958	0.79058	0.10404	0.081
Mof_C 	C 	0.75238	0.81651	0.10711	-0.133
Mof_H 	H 	0.7364	0.8229	0.0925	0.08
Mof_C 	C 	0.76878	0.83294	0.1318	0.066
Mof_H 	H 	0.7639	0.8505	0.1339	0.024
Mof_C 	C 	0.7429	0.77383	0.0748	-0.014
Mof_C 	C 	0.73027	0.76178	0.0496	-0.049
Mof_C 	C 	0.71412	0.74893	0.01949	0.123
Mof_C 	C 	0.69875	0.76359	0.99091	-0.177
Mof_H 	H 	0.6992	0.7817	0.9924	0.097
Mof_C 	C 	0.68269	0.75144	0.96016	0.116
Mof_C 	C 	0.68201	0.72462	0.95799	-0.173
Mof_H 	H 	0.6711	0.7164	0.9372	0.097
Mof_C 	C 	0.69738	0.70996	0.98657	0.115
Mof_C 	C 	0.71344	0.72211	0.01732	-0.176
Mof_H 	H 	0.7238	0.7122	0.0366	0.097
Mof_C 	C 	0.6694	0.76601	0.9281	-0.045
Mof_C 	C 	0.6577	0.7787	0.8982	-0.029
Mof_C 	C 	0.64444	0.7932	0.86704	0.084
Mof_C 	C 	0.65656	0.81655	0.8565	-0.132
Mof_H 	H 	0.6724	0.8228	0.8715	0.079
Mof_C 	C 	0.64519	0.83063	0.8237	0.058
Mof_H 	H 	0.6534	0.8464	0.8166	0.026
Mof_C 	C 	0.6217	0.82136	0.80157	-0.126
Mof_C 	C 	0.60958	0.79801	0.8121	0.057
Mof_H 	H 	0.5937	0.7917	0.7972	0.027
Mof_C 	C 	0.62094	0.78393	0.8449	-0.131
Mof_H 	H 	0.6127	0.7681	0.852	0.078
Mof_C 	C 	0.6104	0.83558	0.7665	0.351
Mof_C 	C 	0.69865	0.68231	0.9823	-0.036
Mof_C 	C 	0.70001	0.6588	0.9759	-0.033
Mof_C 	C 	0.70136	0.6323	0.9717	0.1
Mof_C 	C 	0.70769	0.61717	0.00573	-0.149
Mof_H 	H 	0.7098	0.6249	0.0315	0.085
Mof_C 	C 	0.71084	0.5906	0.00168	0.081
Mof_H 	H 	0.7151	0.5804	0.0247	0.017
Mof_C 	C 	0.70766	0.57917	0.96358	-0.158
Mof_C 	C 	0.70133	0.59431	0.92954	0.081
Mof_H 	H 	0.6992	0.5866	0.9038	0.02
Mof_C 	C 	0.69818	0.62088	0.93359	-0.149
Mof_H 	H 	0.6939	0.6311	0.9106	0.093
Mof_C 	C 	0.71117	0.55161	0.959	0.39
Mof_C 	C 	0.567	0.89156	0.75694	0.358
Mof_C 	C 	0.54955	0.90814	0.78142	-0.132
Mof_C 	C 	0.56411	0.92989	0.79553	0.056
Mof_H 	H 	0.5826	0.9329	0.7877	0.026
Mof_C 	C 	0.55133	0.94717	0.82119	-0.133
Mof_H 	H 	0.5612	0.9619	0.8307	0.079
Mof_C 	C 	0.52398	0.94269	0.83274	0.091
Mof_C 	C 	0.50942	0.92093	0.81863	-0.138
Mof_H 	H 	0.4909	0.9179	0.8264	0.09
Mof_C 	C 	0.52221	0.90365	0.79297	0.068
Mof_H 	H 	0.5124	0.8889	0.7834	0.027
Mof_C 	C 	0.51132	0.9598	0.8578	-0.031
Mof_C 	C 	0.50083	0.97505	0.8825	-0.035
Mof_C 	C 	0.48878	0.99361	0.91022	0.113
Mof_C 	C 	0.45954	0.99437	0.91068	-0.17
Mof_H 	H 	0.4486	0.9838	0.8929	0.097
Mof_C 	C 	0.44648	0.01071	0.93747	0.112
Mof_C 	C 	0.46265	0.02631	0.9638	-0.173
Mof_H 	H 	0.4538	0.0374	0.9819	0.095
Mof_C 	C 	0.49189	0.02555	0.96334	0.121
Mof_C 	C 	0.50496	0.00921	0.93655	-0.173
Mof_H 	H 	0.5247	0.0087	0.9362	0.096
Mof_C 	C 	0.4159	0.01165	0.9391	-0.042
Mof_C 	C 	0.3903	0.01176	0.9401	-0.026
Mof_C 	C 	0.36044	0.01242	0.9415	0.081
Mof_C 	C 	0.34278	0.01062	0.90674	-0.127
Mof_H 	H 	0.3505	0.0101	0.881	0.077
Mof_C 	C 	0.31374	0.00961	0.9101	0.051
Mof_H 	H 	0.3018	0.0084	0.8866	0.028
Mof_C 	C 	0.30234	0.01041	0.9481	-0.122
Mof_C 	C 	0.32	0.01221	0.98285	0.057
Mof_H 	H 	0.3123	0.0128	0.0086	0.026
Mof_C 	C 	0.34905	0.01322	0.9795	-0.13
Mof_H 	H 	0.361	0.0144	0.003	0.078
Mof_C 	C 	0.27141	0.00845	0.9481	0.352
Mof_C 	C 	0.50847	0.04013	0.9908	-0.048
Mof_C 	C 	0.51991	0.05407	0.0139	-0.014
Mof_C 	C 	0.53432	0.07006	0.04663	0.079
Mof_C 	C 	0.56199	0.06589	0.0607	-0.133
Mof_H 	H 	0.5729	0.0532	0.0486	0.081
Mof_C 	C 	0.57348	0.08056	0.0927	0.06
Mof_H 	H 	0.5922	0.0777	0.1022	0.026
Mof_C 	C 	0.5573	0.0994	0.1106	-0.136
Mof_C 	C 	0.52963	0.10357	0.09653	0.06
Mof_H 	H 	0.5187	0.1163	0.1086	0.024
Mof_C 	C 	0.51814	0.0889	0.0645	-0.13
Mof_H 	H 	0.4994	0.0917	0.055	0.079
Mof_C 	C 	0.56987	0.11365	0.1447	0.363
Mof_C 	C 	0.6176	0.83196	0.6602	0.384
Mof_C 	C 	0.63167	0.81321	0.6334	-0.132
Mof_C 	C 	0.61864	0.7914	0.6166	0.064
Mof_H 	H 	0.6002	0.7871	0.6233	0.024
Mof_C 	C 	0.63289	0.77592	0.5899	-0.136
Mof_H 	H 	0.6241	0.7612	0.5785	0.08
Mof_C 	C 	0.66017	0.78226	0.57994	0.083
Mof_C 	C 	0.67319	0.80408	0.5968	-0.131
Mof_H 	H 	0.6916	0.8084	0.59	0.078
Mof_C 	C 	0.65894	0.81955	0.6235	0.058
Mof_H 	H 	0.6677	0.8343	0.6349	0.026
Mof_C 	C 	0.67679	0.76751	0.5534	-0.026
Mof_C 	C 	0.68895	0.75658	0.5285	-0.04
Mof_C 	C 	0.70566	0.74448	0.49759	0.118
Mof_C 	C 	0.70706	0.71775	0.49398	-0.179
Mof_H 	H 	0.6975	0.7072	0.5119	0.099
Mof_C 	C 	0.72262	0.7067	0.46381	0.125
Mof_C 	C 	0.73679	0.72237	0.43725	-0.179
Mof_H 	H 	0.7473	0.7149	0.4168	0.097
Mof_C 	C 	0.73539	0.7491	0.44086	0.122
Mof_C 	C 	0.71982	0.76015	0.47103	-0.174
Mof_H 	H 	0.7189	0.7782	0.4735	0.098
Mof_C 	C 	0.72504	0.68075	0.4606	-0.052
Mof_C 	C 	0.72681	0.65564	0.4579	-0.026
Mof_C 	C 	0.72807	0.62867	0.4568	0.089
Mof_C 	C 	0.7316	0.61454	0.49255	-0.139
Mof_H 	H 	0.7342	0.6231	0.5176	0.082
Mof_C 	C 	0.73129	0.58769	0.4913	0.07
Mof_H 	H 	0.7337	0.5781	0.5155	0.023
Mof_C 	C 	0.72744	0.57498	0.4543	-0.144
Mof_C 	C 	0.72391	0.58911	0.41858	0.069
Mof_H 	H 	0.7213	0.5805	0.3936	0.022
Mof_C 	C 	0.72422	0.61596	0.41984	-0.139
Mof_H 	H 	0.7218	0.6255	0.3957	0.082
Mof_C 	C 	0.72368	0.54774	0.4533	0.359
Mof_C 	C 	0.75012	0.76592	0.4156	-0.045
Mof_C 	C 	0.76151	0.78017	0.3927	-0.021
Mof_C 	C 	0.77606	0.79729	0.36611	0.083
Mof_C 	C 	0.80347	0.79183	0.3558	-0.133
Mof_H 	H 	0.8129	0.7773	0.367	0.081
Mof_C 	C 	0.81696	0.8078	0.3289	0.064
Mof_H 	H 	0.8355	0.8041	0.322	0.025
Mof_C 	C 	0.80304	0.82924	0.31236	-0.137
Mof_C 	C 	0.77562	0.8347	0.3227	0.064
Mof_H 	H 	0.7662	0.8492	0.3115	0.023
Mof_C 	C 	0.76213	0.81873	0.3495	-0.134
Mof_H 	H 	0.7436	0.8224	0.3565	0.08
Mof_C 	C 	0.8172	0.84552	0.2834	0.373
Mof_C 	C 	0.16538	0.99373	0.9546	0.378
Mof_C 	C 	0.13593	0.98816	0.9568	-0.153
Mof_C 	C 	0.12441	0.97947	0.99234	0.075
Mof_H 	H 	0.1361	0.9769	0.0158	0.019
Mof_C 	C 	0.09567	0.97457	0.99311	-0.145
Mof_H 	H 	0.0879	0.9687	0.0171	0.085
Mof_C 	C 	0.07844	0.97835	0.9584	0.091
Mof_C 	C 	0.08996	0.98704	0.92285	-0.14
Mof_H 	H 	0.0783	0.9896	0.8994	0.083
Mof_C 	C 	0.1187	0.99194	0.92208	0.071
Mof_H 	H 	0.1265	0.9978	0.8981	0.021
Mof_C 	C 	0.04798	0.97649	0.9613	-0.024
Mof_C 	C 	0.02394	0.9756	0.9613	-0.036
Mof_C 	C 	0.99266	0.97671	0.96	0.113
Mof_C 	C 	0.97669	0.96275	0.98666	-0.174
Mof_H 	H 	0.9856	0.9519	0.0061	0.096
Mof_C 	C 	0.94748	0.96488	0.98453	0.122
Mof_C 	C 	0.93425	0.98096	0.95575	-0.176
Mof_H 	H 	0.9145	0.9824	0.9543	0.098
Mof_C 	C 	0.95022	0.99492	0.92909	0.114
Mof_C 	C 	0.97943	0.9928	0.93122	-0.172
Mof_H 	H 	0.9902	0.0022	0.9132	0.095
Mof_C 	C 	0.93246	0.95172	0.0139	-0.049
Mof_C 	C 	0.91906	0.94164	0.0386	-0.013
Mof_C 	C 	0.90313	0.92837	0.07048	0.074
Mof_C 	C 	0.9147	0.90683	0.09017	-0.123
Mof_H 	H 	0.9321	0.9002	0.0825	0.076
Mof_C 	C 	0.90054	0.89509	0.1212	0.051
Mof_H 	H 	0.9084	0.8805	0.1345	0.029
Mof_C 	C 	0.87481	0.90489	0.13253	-0.117
Mof_C 	C 	0.86325	0.92643	0.11283	0.05
Mof_H 	H 	0.8459	0.9331	0.1205	0.032
Mof_C 	C 	0.87741	0.93817	0.08181	-0.123
Mof_H 	H 	0.8696	0.9527	0.0685	0.083
Mof_C 	C 	0.8598	0.89332	0.16654	0.351
Mof_C 	C 	0.93571	0.01275	0.9016	-0.045
Mof_C 	C 	0.92425	0.02855	0.8797	-0.024
Mof_C 	C 	0.90875	0.04614	0.85402	0.079
Mof_C 	C 	0.88064	0.04207	0.84213	-0.125
Mof_H 	H 	0.871	0.0276	0.8518	0.076
Mof_C 	C 	0.8667	0.0594	0.81598	0.049
Mof_H 	H 	0.8477	0.0566	0.8079	0.028
Mof_C 	C 	0.88089	0.08081	0.80172	-0.123
Mof_C 	C 	0.90901	0.08488	0.81361	0.057
Mof_H 	H 	0.9186	0.0994	0.804	0.026
Mof_C 	C 	0.92294	0.06755	0.83976	-0.128
Mof_H 	H 	0.942	0.0703	0.8478	0.077
Mof_C 	C 	0.8635	0.09782	0.7766	0.332
Mof_Cu	Cu	0.35992	0.35379	0.22791	0.906
Mof_Cu	Cu	0.31788	0.38685	0.22343	0.91
Mof_Cu	Cu	0.11164	0.37637	0.70855	0.912
Mof_Cu	Cu	0.06786	0.34531	0.70432	0.9
Mof_Cu	Cu	0.71612	0.50307	0.91485	0.909
Mof_Cu	Cu	0.72171	0.50119	0.99455	0.905
Mof_O 	O 	0.33333	0.33294	0.19318	-0.41
Mof_O 	O 	0.30068	0.36364	0.18346	-0.394
Mof_O 	O 	0.37747	0.61922	0.76277	-0.372
Mof_O 	O 	0.33918	0.59334	0.76226	-0.411
Mof_O 	O 	0.34198	0.33902	0.27387	-0.407
Mof_O 	O 	0.30404	0.36364	0.26537	-0.409
Mof_O 	O 	0.37259	0.37147	0.18151	-0.394
Mof_O 	O 	0.33957	0.40302	0.18106	-0.414
Mof_O 	O 	0.12288	0.35568	0.75619	-0.407
Mof_O 	O 	0.08634	0.32736	0.7502	-0.397
Mof_O 	O 	0.09399	0.608	0.15984	-0.403
Mof_O 	O 	0.05517	0.63204	0.15976	-0.401
Mof_O 	O 	0.08816	0.39728	0.74149	-0.43
Mof_O 	O 	0.05171	0.37019	0.74186	-0.374
Mof_O 	O 	0.12839	0.35096	0.67471	-0.435
Mof_O 	O 	0.09146	0.32524	0.66683	-0.393
Mof_O 	O 	0.75582	0.50661	0.91616	-0.415
Mof_O 	O 	0.7613	0.50802	0.98422	-0.393
Mof_O 	O 	0.6762	0.49848	0.92228	-0.421
Mof_O 	O 	0.68086	0.49341	0.98888	-0.395
Mof_O 	O 	0.21128	0.04075	0.92529	-0.41
Mof_O 	O 	0.21385	0.03787	0.99136	-0.413
Mof_O 	O 	0.22039	0.03477	0.42013	-0.394
Mof_O 	O 	0.22853	0.03537	0.48695	-0.399
Mof_C 	C 	0.31071	0.34001	0.1771	0.365
Mof_C 	C 	0.29239	0.32342	0.15342	-0.143
Mof_C 	C 	0.29959	0.29749	0.15034	0.064
Mof_H 	H 	0.3156	0.2911	0.165	0.024
Mof_C 	C 	0.28319	0.28106	0.12566	-0.133
Mof_H 	H 	0.2881	0.2635	0.1236	0.082
Mof_C 	C 	0.25958	0.29058	0.10404	0.081
Mof_C 	C 	0.25238	0.31651	0.10711	-0.133
Mof_H 	H 	0.2364	0.3229	0.0925	0.08
Mof_C 	C 	0.26878	0.33294	0.1318	0.066
Mof_H 	H 	0.2639	0.3505	0.1339	0.024
Mof_C 	C 	0.2429	0.27383	0.0748	-0.014
Mof_C 	C 	0.23027	0.26178	0.0496	-0.049
Mof_C 	C 	0.21412	0.24893	0.01949	0.123
Mof_C 	C 	0.19875	0.26359	0.99091	-0.177
Mof_H 	H 	0.1992	0.2817	0.9924	0.097
Mof_C 	C 	0.18269	0.25144	0.96016	0.116
Mof_C 	C 	0.18201	0.22462	0.95799	-0.173
Mof_H 	H 	0.1711	0.2164	0.9372	0.097
Mof_C 	C 	0.19738	0.20996	0.98657	0.115
Mof_C 	C 	0.21344	0.22211	0.01732	-0.176
Mof_H 	H 	0.2238	0.2122	0.0366	0.097
Mof_C 	C 	0.1694	0.26601	0.9281	-0.045
Mof_C 	C 	0.1577	0.2787	0.8982	-0.029
Mof_C 	C 	0.14444	0.2932	0.86704	0.084
Mof_C 	C 	0.15656	0.31655	0.8565	-0.132
Mof_H 	H 	0.1724	0.3228	0.8715	0.079
Mof_C 	C 	0.14519	0.33063	0.8237	0.058
Mof_H 	H 	0.1534	0.3464	0.8166	0.026
Mof_C 	C 	0.1217	0.32136	0.80157	-0.126
Mof_C 	C 	0.10958	0.29801	0.8121	0.057
Mof_H 	H 	0.0937	0.2917	0.7972	0.027
Mof_C 	C 	0.12094	0.28393	0.8449	-0.131
Mof_H 	H 	0.1127	0.2681	0.852	0.078
Mof_C 	C 	0.1104	0.33558	0.7665	0.351
Mof_C 	C 	0.19865	0.18231	0.9823	-0.036
Mof_C 	C 	0.20001	0.1588	0.9759	-0.033
Mof_C 	C 	0.20136	0.1323	0.9717	0.1
Mof_C 	C 	0.20769	0.11717	0.00573	-0.149
Mof_H 	H 	0.2098	0.1249	0.0315	0.085
Mof_C 	C 	0.21084	0.0906	0.00168	0.081
Mof_H 	H 	0.2151	0.0804	0.0247	0.017
Mof_C 	C 	0.20766	0.07917	0.96358	-0.158
Mof_C 	C 	0.20133	0.09431	0.92954	0.081
Mof_H 	H 	0.1992	0.0866	0.9038	0.02
Mof_C 	C 	0.19818	0.12088	0.93359	-0.149
Mof_H 	H 	0.1939	0.1311	0.9106	0.093
Mof_C 	C 	0.21117	0.05161	0.959	0.39
Mof_C 	C 	0.067	0.39156	0.75694	0.358
Mof_C 	C 	0.04955	0.40814	0.78142	-0.132
Mof_C 	C 	0.06411	0.42989	0.79553	0.056
Mof_H 	H 	0.0826	0.4329	0.7877	0.026
Mof_C 	C 	0.05133	0.44717	0.82119	-0.133
Mof_H 	H 	0.0612	0.4619	0.8307	0.079
Mof_C 	C 	0.02398	0.44269	0.83274	0.091
Mof_C 	C 	0.00942	0.42093	0.81863	-0.138
Mof_H 	H 	0.9909	0.4179	0.8264	0.09
Mof_C 	C 	0.02221	0.40365	0.79297	0.068
Mof_H 	H 	0.0124	0.3889	0.7834	0.027
Mof_C 	C 	0.01132	0.4598	0.8578	-0.031
Mof_C 	C 	0.00083	0.47505	0.8825	-0.035
Mof_C 	C 	0.98878	0.49361	0.91022	0.113
Mof_C 	C 	0.95954	0.49437	0.91068	-0.17
Mof_H 	H 	0.9486	0.4838	0.8929	0.097
Mof_C 	C 	0.94648	0.51071	0.93747	0.112
Mof_C 	C 	0.96265	0.52631	0.9638	-0.173
Mof_H 	H 	0.9538	0.5374	0.9819	0.095
Mof_C 	C 	0.99189	0.52555	0.96334	0.121
Mof_C 	C 	0.00496	0.50921	0.93655	-0.173
Mof_H 	H 	0.0247	0.5087	0.9362	0.096
Mof_C 	C 	0.9159	0.51165	0.9391	-0.042
Mof_C 	C 	0.8903	0.51176	0.9401	-0.026
Mof_C 	C 	0.86044	0.51242	0.9415	0.081
Mof_C 	C 	0.84278	0.51062	0.90674	-0.127
Mof_H 	H 	0.8505	0.5101	0.881	0.077
Mof_C 	C 	0.81374	0.50961	0.9101	0.051
Mof_H 	H 	0.8018	0.5084	0.8866	0.028
Mof_C 	C 	0.80234	0.51041	0.9481	-0.122
Mof_C 	C 	0.82	0.51221	0.98285	0.057
Mof_H 	H 	0.8123	0.5128	0.0086	0.026
Mof_C 	C 	0.84905	0.51322	0.9795	-0.13
Mof_H 	H 	0.861	0.5144	0.003	0.078
Mof_C 	C 	0.77141	0.50845	0.9481	0.352
Mof_C 	C 	0.00847	0.54013	0.9908	-0.048
Mof_C 	C 	0.01991	0.55407	0.0139	-0.014
Mof_C 	C 	0.03432	0.57006	0.04663	0.079
Mof_C 	C 	0.06199	0.56589	0.0607	-0.133
Mof_H 	H 	0.0729	0.5532	0.0486	0.081
Mof_C 	C 	0.07348	0.58056	0.0927	0.06
Mof_H 	H 	0.0922	0.5777	0.1022	0.026
Mof_C 	C 	0.0573	0.5994	0.1106	-0.136
Mof_C 	C 	0.02963	0.60357	0.09653	0.06
Mof_H 	H 	0.0187	0.6163	0.1086	0.024
Mof_C 	C 	0.01814	0.5889	0.0645	-0.13
Mof_H 	H 	0.9994	0.5917	0.055	0.079
Mof_C 	C 	0.06987	0.61365	0.1447	0.363
Mof_C 	C 	0.1176	0.33196	0.6602	0.384
Mof_C 	C 	0.13167	0.31321	0.6334	-0.132
Mof_C 	C 	0.11864	0.2914	0.6166	0.064
Mof_H 	H 	0.1002	0.2871	0.6233	0.024
Mof_C 	C 	0.13289	0.27592	0.5899	-0.136
Mof_H 	H 	0.1241	0.2612	0.5785	0.08
Mof_C 	C 	0.16017	0.28226	0.57994	0.083
Mof_C 	C 	0.17319	0.30408	0.5968	-0.131
Mof_H 	H 	0.1916	0.3084	0.59	0.078
Mof_C 	C 	0.15894	0.31955	0.6235	0.058
Mof_H 	H 	0.1677	0.3343	0.6349	0.026
Mof_C 	C 	0.17679	0.26751	0.5534	-0.026
Mof_C 	C 	0.18895	0.25658	0.5285	-0.04
Mof_C 	C 	0.20566	0.24448	0.49759	0.118
Mof_C 	C 	0.20706	0.21775	0.49398	-0.179
Mof_H 	H 	0.1975	0.2072	0.5119	0.099
Mof_C 	C 	0.22262	0.2067	0.46381	0.125
Mof_C 	C 	0.23679	0.22237	0.43725	-0.179
Mof_H 	H 	0.2473	0.2149	0.4168	0.097
Mof_C 	C 	0.23539	0.2491	0.44086	0.122
Mof_C 	C 	0.21982	0.26015	0.47103	-0.174
Mof_H 	H 	0.2189	0.2782	0.4735	0.098
Mof_C 	C 	0.22504	0.18075	0.4606	-0.052
Mof_C 	C 	0.22681	0.15564	0.4579	-0.026
Mof_C 	C 	0.22807	0.12867	0.4568	0.089
Mof_C 	C 	0.2316	0.11454	0.49255	-0.139
Mof_H 	H 	0.2342	0.1231	0.5176	0.082
Mof_C 	C 	0.23129	0.08769	0.4913	0.07
Mof_H 	H 	0.2337	0.0781	0.5155	0.023
Mof_C 	C 	0.22744	0.07498	0.4543	-0.144
Mof_C 	C 	0.22391	0.08911	0.41858	0.069
Mof_H 	H 	0.2213	0.0805	0.3936	0.022
Mof_C 	C 	0.22422	0.11596	0.41984	-0.139
Mof_H 	H 	0.2218	0.1255	0.3957	0.082
Mof_C 	C 	0.22368	0.04774	0.4533	0.359
Mof_C 	C 	0.25012	0.26592	0.4156	-0.045
Mof_C 	C 	0.26151	0.28017	0.3927	-0.021
Mof_C 	C 	0.27606	0.29729	0.36611	0.083
Mof_C 	C 	0.30347	0.29183	0.3558	-0.133
Mof_H 	H 	0.3129	0.2773	0.367	0.081
Mof_C 	C 	0.31696	0.3078	0.3289	0.064
Mof_H 	H 	0.3355	0.3041	0.322	0.025
Mof_C 	C 	0.30304	0.32924	0.31236	-0.137
Mof_C 	C 	0.27562	0.3347	0.3227	0.064
Mof_H 	H 	0.2662	0.3492	0.3115	0.023
Mof_C 	C 	0.26213	0.31873	0.3495	-0.134
Mof_H 	H 	0.2436	0.3224	0.3565	0.08
Mof_C 	C 	0.3172	0.34552	0.2834	0.373
Mof_C 	C 	0.66538	0.49373	0.9546	0.378
Mof_C 	C 	0.63593	0.48816	0.9568	-0.153
Mof_C 	C 	0.62441	0.47947	0.99234	0.075
Mof_H 	H 	0.6361	0.4769	0.0158	0.019
Mof_C 	C 	0.59567	0.47457	0.99311	-0.145
Mof_H 	H 	0.5879	0.4687	0.0171	0.085
Mof_C 	C 	0.57844	0.47835	0.9584	0.091
Mof_C 	C 	0.58996	0.48704	0.92285	-0.14
Mof_H 	H 	0.5783	0.4896	0.8994	0.083
Mof_C 	C 	0.6187	0.49194	0.92208	0.071
Mof_H 	H 	0.6265	0.4978	0.8981	0.021
Mof_C 	C 	0.54798	0.47649	0.9613	-0.024
Mof_C 	C 	0.52394	0.4756	0.9613	-0.036
Mof_C 	C 	0.49266	0.47671	0.96	0.113
Mof_C 	C 	0.47669	0.46275	0.98666	-0.174
Mof_H 	H 	0.4856	0.4519	0.0061	0.096
Mof_C 	C 	0.44748	0.46488	0.98453	0.122
Mof_C 	C 	0.43425	0.48096	0.95575	-0.176
Mof_H 	H 	0.4145	0.4824	0.9543	0.098
Mof_C 	C 	0.45022	0.49492	0.92909	0.114
Mof_C 	C 	0.47943	0.4928	0.93122	-0.172
Mof_H 	H 	0.4902	0.5022	0.9132	0.095
Mof_C 	C 	0.43246	0.45172	0.0139	-0.049
Mof_C 	C 	0.41906	0.44164	0.0386	-0.013
Mof_C 	C 	0.40313	0.42837	0.07048	0.074
Mof_C 	C 	0.4147	0.40683	0.09017	-0.123
Mof_H 	H 	0.4321	0.4002	0.0825	0.076
Mof_C 	C 	0.40054	0.39509	0.1212	0.051
Mof_H 	H 	0.4084	0.3805	0.1345	0.029
Mof_C 	C 	0.37481	0.40489	0.13253	-0.117
Mof_C 	C 	0.36325	0.42643	0.11283	0.05
Mof_H 	H 	0.3459	0.4331	0.1205	0.032
Mof_C 	C 	0.37741	0.43817	0.08181	-0.123
Mof_H 	H 	0.3696	0.4527	0.0685	0.083
Mof_C 	C 	0.3598	0.39332	0.16654	0.351
Mof_C 	C 	0.43571	0.51275	0.9016	-0.045
Mof_C 	C 	0.42425	0.52855	0.8797	-0.024
Mof_C 	C 	0.40875	0.54614	0.85402	0.079
Mof_C 	C 	0.38064	0.54207	0.84213	-0.125
Mof_H 	H 	0.371	0.5276	0.8518	0.076
Mof_C 	C 	0.3667	0.5594	0.81598	0.049
Mof_H 	H 	0.3477	0.5566	0.8079	0.028
Mof_C 	C 	0.38089	0.58081	0.80172	-0.123
Mof_C 	C 	0.40901	0.58488	0.81361	0.057
Mof_H 	H 	0.4186	0.5994	0.804	0.026
Mof_C 	C 	0.42294	0.56755	0.83976	-0.128
Mof_H 	H 	0.442	0.5703	0.8478	0.077
Mof_C 	C 	0.3635	0.59782	0.7766	0.332
Mof_Cu	Cu	0.85992	0.14621	0.72791	0.906
Mof_Cu	Cu	0.81788	0.11315	0.72343	0.91
Mof_Cu	Cu	0.61164	0.12363	0.20855	0.912
Mof_Cu	Cu	0.56786	0.15469	0.20432	0.9
Mof_Cu	Cu	0.21612	0.99693	0.41485	0.909
Mof_Cu	Cu	0.22171	0.99881	0.49455	0.905
Mof_O 	O 	0.83333	0.16706	0.69318	-0.41
Mof_O 	O 	0.80068	0.13636	0.68346	-0.394
Mof_O 	O 	0.87747	0.88078	0.26277	-0.372
Mof_O 	O 	0.83918	0.90666	0.26226	-0.411
Mof_O 	O 	0.84198	0.16098	0.77387	-0.407
Mof_O 	O 	0.80404	0.13636	0.76537	-0.409
Mof_O 	O 	0.87259	0.12853	0.68151	-0.394
Mof_O 	O 	0.83957	0.09698	0.68106	-0.414
Mof_O 	O 	0.62288	0.14432	0.25619	-0.407
Mof_O 	O 	0.58634	0.17264	0.2502	-0.397
Mof_O 	O 	0.59399	0.892	0.65984	-0.403
Mof_O 	O 	0.55517	0.86796	0.65976	-0.401
Mof_O 	O 	0.58816	0.10272	0.24149	-0.43
Mof_O 	O 	0.55171	0.12981	0.24186	-0.374
Mof_O 	O 	0.62839	0.14904	0.17471	-0.435
Mof_O 	O 	0.59146	0.17476	0.16683	-0.393
Mof_O 	O 	0.25582	0.99339	0.41616	-0.415
Mof_O 	O 	0.2613	0.99198	0.48422	-0.393
Mof_O 	O 	0.1762	0.00152	0.42228	-0.421
Mof_O 	O 	0.18086	0.00659	0.48888	-0.395
Mof_O 	O 	0.71128	0.45925	0.42529	-0.41
Mof_O 	O 	0.71385	0.46213	0.49136	-0.413
Mof_O 	O 	0.72039	0.46523	0.92013	-0.394
Mof_O 	O 	0.72853	0.46463	0.98695	-0.399
Mof_C 	C 	0.81071	0.15999	0.6771	0.365
Mof_C 	C 	0.79239	0.17658	0.65342	-0.143
Mof_C 	C 	0.79959	0.20251	0.65034	0.064
Mof_H 	H 	0.8156	0.2089	0.665	0.024
Mof_C 	C 	0.78319	0.21894	0.62566	-0.133
Mof_H 	H 	0.7881	0.2365	0.6236	0.082
Mof_C 	C 	0.75958	0.20942	0.60404	0.081
Mof_C 	C 	0.75238	0.18349	0.60711	-0.133
Mof_H 	H 	0.7364	0.1771	0.5925	0.08
Mof_C 	C 	0.76878	0.16706	0.6318	0.066
Mof_H 	H 	0.7639	0.1495	0.6339	0.024
Mof_C 	C 	0.7429	0.22617	0.5748	-0.014
Mof_C 	C 	0.73027	0.23822	0.5496	-0.049
Mof_C 	C 	0.71412	0.25107	0.51949	0.123
Mof_C 	C 	0.69875	0.23641	0.49091	-0.177
Mof_H 	H 	0.6992	0.2183	0.4924	0.097
Mof_C 	C 	0.68269	0.24856	0.46016	0.116
Mof_C 	C 	0.68201	0.27538	0.45799	-0.173
Mof_H 	H 	0.6711	0.2836	0.4372	0.097
Mof_C 	C 	0.69738	0.29004	0.48657	0.115
Mof_C 	C 	0.71344	0.27789	0.51732	-0.176
Mof_H 	H 	0.7238	0.2878	0.5366	0.097
Mof_C 	C 	0.6694	0.23399	0.4281	-0.045
Mof_C 	C 	0.6577	0.2213	0.3982	-0.029
Mof_C 	C 	0.64444	0.2068	0.36704	0.084
Mof_C 	C 	0.65656	0.18345	0.3565	-0.132
Mof_H 	H 	0.6724	0.1772	0.3715	0.079
Mof_C 	C 	0.64519	0.16937	0.3237	0.058
Mof_H 	H 	0.6534	0.1536	0.3166	0.026
Mof_C 	C 	0.6217	0.17864	0.30157	-0.126
Mof_C 	C 	0.60958	0.20199	0.3121	0.057
Mof_H 	H 	0.5937	0.2083	0.2972	0.027
Mof_C 	C 	0.62094	0.21607	0.3449	-0.131
Mof_H 	H 	0.6127	0.2319	0.352	0.078
Mof_C 	C 	0.6104	0.16442	0.2665	0.351
Mof_C 	C 	0.69865	0.31769	0.4823	-0.036
Mof_C 	C 	0.70001	0.3412	0.4759	-0.033
Mof_C 	C 	0.70136	0.3677	0.4717	0.1
Mof_C 	C 	0.70769	0.38283	0.50573	-0.149
Mof_H 	H 	0.7098	0.3751	0.5315	0.085
Mof_C 	C 	0.71084	0.4094	0.50168	0.081
Mof_H 	H 	0.7151	0.4196	0.5247	0.017
Mof_C 	C 	0.70766	0.42083	0.46358	-0.158
Mof_C 	C 	0.70133	0.40569	0.42954	0.081
Mof_H 	H 	0.6992	0.4134	0.4038	0.02
Mof_C 	C 	0.69818	0.37912	0.43359	-0.149
Mof_H 	H 	0.6939	0.3689	0.4106	0.093
Mof_C 	C 	0.71117	0.44839	0.459	0.39
Mof_C 	C 	0.567	0.10844	0.25694	0.358
Mof_C 	C 	0.54955	0.09186	0.28142	-0.132
Mof_C 	C 	0.56411	0.07011	0.29553	0.056
Mof_H 	H 	0.5826	0.0671	0.2877	0.026
Mof_C 	C 	0.55133	0.05283	0.32119	-0.133
Mof_H 	H 	0.5612	0.0381	0.3307	0.079
Mof_C 	C 	0.52398	0.05731	0.33274	0.091
Mof_C 	C 	0.50942	0.07907	0.31863	-0.138
Mof_H 	H 	0.4909	0.0821	0.3264	0.09
Mof_C 	C 	0.52221	0.09635	0.29297	0.068
Mof_H 	H 	0.5124	0.1111	0.2834	0.027
Mof_C 	C 	0.51132	0.0402	0.3578	-0.031
Mof_C 	C 	0.50083	0.02495	0.3825	-0.035
Mof_C 	C 	0.48878	0.00639	0.41022	0.113
Mof_C 	C 	0.45954	0.00563	0.41068	-0.17
Mof_H 	H 	0.4486	0.0162	0.3929	0.097
Mof_C 	C 	0.44648	0.98929	0.43747	0.112
Mof_C 	C 	0.46265	0.97369	0.4638	-0.173
Mof_H 	H 	0.4538	0.9626	0.4819	0.095
Mof_C 	C 	0.49189	0.97445	0.46334	0.121
Mof_C 	C 	0.50496	0.99079	0.43655	-0.173
Mof_H 	H 	0.5247	0.9913	0.4362	0.096
Mof_C 	C 	0.4159	0.98835	0.4391	-0.042
Mof_C 	C 	0.3903	0.98824	0.4401	-0.026
Mof_C 	C 	0.36044	0.98758	0.4415	0.081
Mof_C 	C 	0.34278	0.98938	0.40674	-0.127
Mof_H 	H 	0.3505	0.9899	0.381	0.077
Mof_C 	C 	0.31374	0.99039	0.4101	0.051
Mof_H 	H 	0.3018	0.9916	0.3866	0.028
Mof_C 	C 	0.30234	0.98959	0.4481	-0.122
Mof_C 	C 	0.32	0.98779	0.48285	0.057
Mof_H 	H 	0.3123	0.9872	0.5086	0.026
Mof_C 	C 	0.34905	0.98678	0.4795	-0.13
Mof_H 	H 	0.361	0.9856	0.503	0.078
Mof_C 	C 	0.27141	0.99155	0.4481	0.352
Mof_C 	C 	0.50847	0.95987	0.4908	-0.048
Mof_C 	C 	0.51991	0.94593	0.5139	-0.014
Mof_C 	C 	0.53432	0.92994	0.54663	0.079
Mof_C 	C 	0.56199	0.93411	0.5607	-0.133
Mof_H 	H 	0.5729	0.9468	0.5486	0.081
Mof_C 	C 	0.57348	0.91944	0.5927	0.06
Mof_H 	H 	0.5922	0.9223	0.6022	0.026
Mof_C 	C 	0.5573	0.9006	0.6106	-0.136
Mof_C 	C 	0.52963	0.89643	0.59653	0.06
Mof_H 	H 	0.5187	0.8837	0.6086	0.024
Mof_C 	C 	0.51814	0.9111	0.5645	-0.13
Mof_H 	H 	0.4994	0.9083	0.555	0.079
Mof_C 	C 	0.56987	0.88635	0.6447	0.363
Mof_C 	C 	0.6176	0.16804	0.1602	0.384
Mof_C 	C 	0.63167	0.18679	0.1334	-0.132
Mof_C 	C 	0.61864	0.2086	0.1166	0.064
Mof_H 	H 	0.6002	0.2129	0.1233	0.024
Mof_C 	C 	0.63289	0.22408	0.0899	-0.136
Mof_H 	H 	0.6241	0.2388	0.0785	0.08
Mof_C 	C 	0.66017	0.21774	0.07994	0.083
Mof_C 	C 	0.67319	0.19592	0.0968	-0.131
Mof_H 	H 	0.6916	0.1916	0.09	0.078
Mof_C 	C 	0.65894	0.18045	0.1235	0.058
Mof_H 	H 	0.6677	0.1657	0.1349	0.026
Mof_C 	C 	0.67679	0.23249	0.0534	-0.026
Mof_C 	C 	0.68895	0.24342	0.0285	-0.04
Mof_C 	C 	0.70566	0.25552	0.99759	0.118
Mof_C 	C 	0.70706	0.28225	0.99398	-0.179
Mof_H 	H 	0.6975	0.2928	0.0119	0.099
Mof_C 	C 	0.72262	0.2933	0.96381	0.125
Mof_C 	C 	0.73679	0.27763	0.93725	-0.179
Mof_H 	H 	0.7473	0.2851	0.9168	0.097
Mof_C 	C 	0.73539	0.2509	0.94086	0.122
Mof_C 	C 	0.71982	0.23985	0.97103	-0.174
Mof_H 	H 	0.7189	0.2218	0.9735	0.098
Mof_C 	C 	0.72504	0.31925	0.9606	-0.052
Mof_C 	C 	0.72681	0.34436	0.9579	-0.026
Mof_C 	C 	0.72807	0.37133	0.9568	0.089
Mof_C 	C 	0.7316	0.38546	0.99255	-0.139
Mof_H 	H 	0.7342	0.3769	0.0176	0.082
Mof_C 	C 	0.73129	0.41231	0.9913	0.07
Mof_H 	H 	0.7337	0.4219	0.0155	0.023
Mof_C 	C 	0.72744	0.42502	0.9543	-0.144
Mof_C 	C 	0.72391	0.41089	0.91858	0.069
Mof_H 	H 	0.7213	0.4195	0.8936	0.022
Mof_C 	C 	0.72422	0.38404	0.91984	-0.139
Mof_H 	H 	0.7218	0.3745	0.8957	0.082
Mof_C 	C 	0.72368	0.45226	0.9533	0.359
Mof_C 	C 	0.75012	0.23408	0.9156	-0.045
Mof_C 	C 	0.76151	0.21983	0.8927	-0.021
Mof_C 	C 	0.77606	0.20271	0.86611	0.083
Mof_C 	C 	0.80347	0.20817	0.8558	-0.133
Mof_H 	H 	0.8129	0.2227	0.867	0.081
Mof_C 	C 	0.81696	0.1922	0.8289	0.064
Mof_H 	H 	0.8355	0.1959	0.822	0.025
Mof_C 	C 	0.80304	0.17076	0.81236	-0.137
Mof_C 	C 	0.77562	0.1653	0.8227	0.064
Mof_H 	H 	0.7662	0.1508	0.8115	0.023
Mof_C 	C 	0.76213	0.18127	0.8495	-0.134
Mof_H 	H 	0.7436	0.1776	0.8565	0.08
Mof_C 	C 	0.8172	0.15448	0.7834	0.373
Mof_C 	C 	0.16538	0.00627	0.4546	0.378
Mof_C 	C 	0.13593	0.01184	0.4568	-0.153
Mof_C 	C 	0.12441	0.02053	0.49234	0.075
Mof_H 	H 	0.1361	0.0231	0.5158	0.019
Mof_C 	C 	0.09567	0.02543	0.49311	-0.145
Mof_H 	H 	0.0879	0.0313	0.5171	0.086
Mof_C 	C 	0.07844	0.02165	0.4584	0.091
Mof_C 	C 	0.08996	0.01296	0.42285	-0.14
Mof_H 	H 	0.0783	0.0104	0.3994	0.083
Mof_C 	C 	0.1187	0.00806	0.42208	0.071
Mof_H 	H 	0.1265	0.0022	0.3981	0.021
Mof_C 	C 	0.04798	0.02351	0.4613	-0.024
Mof_C 	C 	0.02394	0.0244	0.4613	-0.036
Mof_C 	C 	0.99266	0.02329	0.46	0.113
Mof_C 	C 	0.97669	0.03725	0.48666	-0.174
Mof_H 	H 	0.9856	0.0481	0.5061	0.096
Mof_C 	C 	0.94748	0.03512	0.48453	0.122
Mof_C 	C 	0.93425	0.01904	0.45575	-0.176
Mof_H 	H 	0.9145	0.0176	0.4543	0.098
Mof_C 	C 	0.95022	0.00508	0.42909	0.114
Mof_C 	C 	0.97943	0.0072	0.43122	-0.172
Mof_H 	H 	0.9902	0.9978	0.4132	0.095
Mof_C 	C 	0.93246	0.04828	0.5139	-0.049
Mof_C 	C 	0.91906	0.05836	0.5386	-0.013
Mof_C 	C 	0.90313	0.07163	0.57048	0.074
Mof_C 	C 	0.9147	0.09317	0.59017	-0.123
Mof_H 	H 	0.9321	0.0998	0.5825	0.076
Mof_C 	C 	0.90054	0.10491	0.6212	0.051
Mof_H 	H 	0.9084	0.1195	0.6345	0.029
Mof_C 	C 	0.87481	0.09511	0.63253	-0.117
Mof_C 	C 	0.86325	0.07357	0.61283	0.05
Mof_H 	H 	0.8459	0.0669	0.6205	0.032
Mof_C 	C 	0.87741	0.06183	0.58181	-0.123
Mof_H 	H 	0.8696	0.0473	0.5685	0.083
Mof_C 	C 	0.8598	0.10668	0.66654	0.351
Mof_C 	C 	0.93571	0.98725	0.4016	-0.045
Mof_C 	C 	0.92425	0.97145	0.3797	-0.024
Mof_C 	C 	0.90875	0.95386	0.35402	0.079
Mof_C 	C 	0.88064	0.95793	0.34213	-0.125
Mof_H 	H 	0.871	0.9724	0.3518	0.076
Mof_C 	C 	0.8667	0.9406	0.31598	0.049
Mof_H 	H 	0.8477	0.9434	0.3079	0.028
Mof_C 	C 	0.88089	0.91919	0.30172	-0.123
Mof_C 	C 	0.90901	0.91512	0.31361	0.057
Mof_H 	H 	0.9186	0.9006	0.304	0.026
Mof_C 	C 	0.92294	0.93245	0.33976	-0.128
Mof_H 	H 	0.942	0.9297	0.3478	0.077
Mof_C 	C 	0.8635	0.90218	0.2766	0.332
Mof_Cu	Cu	0.35992	0.64621	0.72791	0.906
Mof_Cu	Cu	0.31788	0.61315	0.72343	0.91
Mof_Cu	Cu	0.11164	0.62363	0.20855	0.912
Mof_Cu	Cu	0.06786	0.65469	0.20432	0.9
Mof_Cu	Cu	0.71612	0.49693	0.41485	0.909
Mof_Cu	Cu	0.72171	0.49881	0.49455	0.905
Mof_O 	O 	0.33333	0.66706	0.69318	-0.41
Mof_O 	O 	0.30068	0.63636	0.68346	-0.394
Mof_O 	O 	0.37747	0.38078	0.26277	-0.372
Mof_O 	O 	0.33918	0.40666	0.26226	-0.411
Mof_O 	O 	0.34198	0.66098	0.77387	-0.407
Mof_O 	O 	0.30404	0.63636	0.76537	-0.409
Mof_O 	O 	0.37259	0.62853	0.68151	-0.394
Mof_O 	O 	0.33957	0.59698	0.68106	-0.414
Mof_O 	O 	0.12288	0.64432	0.25619	-0.407
Mof_O 	O 	0.08634	0.67264	0.2502	-0.397
Mof_O 	O 	0.09399	0.392	0.65984	-0.403
Mof_O 	O 	0.05517	0.36796	0.65976	-0.401
Mof_O 	O 	0.08816	0.60272	0.24149	-0.43
Mof_O 	O 	0.05171	0.62981	0.24186	-0.374
Mof_O 	O 	0.12839	0.64904	0.17471	-0.435
Mof_O 	O 	0.09146	0.67476	0.16683	-0.393
Mof_O 	O 	0.75582	0.49339	0.41616	-0.415
Mof_O 	O 	0.7613	0.49198	0.48422	-0.393
Mof_O 	O 	0.6762	0.50152	0.42228	-0.421
Mof_O 	O 	0.68086	0.50659	0.48888	-0.395
Mof_O 	O 	0.21128	0.95925	0.42529	-0.41
Mof_O 	O 	0.21385	0.96213	0.49136	-0.413
Mof_O 	O 	0.22039	0.96523	0.92013	-0.394
Mof_O 	O 	0.22853	0.96463	0.98695	-0.399
Mof_C 	C 	0.31071	0.65999	0.6771	0.365
Mof_C 	C 	0.29239	0.67658	0.65342	-0.143
Mof_C 	C 	0.29959	0.70251	0.65034	0.064
Mof_H 	H 	0.3156	0.7089	0.665	0.024
Mof_C 	C 	0.28319	0.71894	0.62566	-0.133
Mof_H 	H 	0.2881	0.7365	0.6236	0.082
Mof_C 	C 	0.25958	0.70942	0.60404	0.081
Mof_C 	C 	0.25238	0.68349	0.60711	-0.133
Mof_H 	H 	0.2364	0.6771	0.5925	0.08
Mof_C 	C 	0.26878	0.66706	0.6318	0.066
Mof_H 	H 	0.2639	0.6495	0.6339	0.024
Mof_C 	C 	0.2429	0.72617	0.5748	-0.014
Mof_C 	C 	0.23027	0.73822	0.5496	-0.049
Mof_C 	C 	0.21412	0.75107	0.51949	0.123
Mof_C 	C 	0.19875	0.73641	0.49091	-0.177
Mof_H 	H 	0.1992	0.7183	0.4924	0.097
Mof_C 	C 	0.18269	0.74856	0.46016	0.116
Mof_C 	C 	0.18201	0.77538	0.45799	-0.173
Mof_H 	H 	0.1711	0.7836	0.4372	0.097
Mof_C 	C 	0.19738	0.79004	0.48657	0.115
Mof_C 	C 	0.21344	0.77789	0.51732	-0.176
Mof_H 	H 	0.2238	0.7878	0.5366	0.097
Mof_C 	C 	0.1694	0.73399	0.4281	-0.045
Mof_C 	C 	0.1577	0.7213	0.3982	-0.029
Mof_C 	C 	0.14444	0.7068	0.36704	0.084
Mof_C 	C 	0.15656	0.68345	0.3565	-0.132
Mof_H 	H 	0.1724	0.6772	0.3715	0.079
Mof_C 	C 	0.14519	0.66937	0.3237	0.058
Mof_H 	H 	0.1534	0.6536	0.3166	0.026
Mof_C 	C 	0.1217	0.67864	0.30157	-0.126
Mof_C 	C 	0.10958	0.70199	0.3121	0.057
Mof_H 	H 	0.0937	0.7083	0.2972	0.027
Mof_C 	C 	0.12094	0.71607	0.3449	-0.131
Mof_H 	H 	0.1127	0.7319	0.352	0.078
Mof_C 	C 	0.1104	0.66442	0.2665	0.351
Mof_C 	C 	0.19865	0.81769	0.4823	-0.036
Mof_C 	C 	0.20001	0.8412	0.4759	-0.033
Mof_C 	C 	0.20136	0.8677	0.4717	0.1
Mof_C 	C 	0.20769	0.88283	0.50573	-0.149
Mof_H 	H 	0.2098	0.8751	0.5315	0.085
Mof_C 	C 	0.21084	0.9094	0.50168	0.081
Mof_H 	H 	0.2151	0.9196	0.5247	0.017
Mof_C 	C 	0.20766	0.92083	0.46358	-0.158
Mof_C 	C 	0.20133	0.90569	0.42954	0.081
Mof_H 	H 	0.1992	0.9134	0.4038	0.02
Mof_C 	C 	0.19818	0.87912	0.43359	-0.149
Mof_H 	H 	0.1939	0.8689	0.4106	0.093
Mof_C 	C 	0.21117	0.94839	0.459	0.39
Mof_C 	C 	0.067	0.60844	0.25694	0.358
Mof_C 	C 	0.04955	0.59186	0.28142	-0.132
Mof_C 	C 	0.06411	0.57011	0.29553	0.056
Mof_H 	H 	0.0826	0.5671	0.2877	0.026
Mof_C 	C 	0.05133	0.55283	0.32119	-0.133
Mof_H 	H 	0.0612	0.5381	0.3307	0.079
Mof_C 	C 	0.02398	0.55731	0.33274	0.091
Mof_C 	C 	0.00942	0.57907	0.31863	-0.138
Mof_H 	H 	0.9909	0.5821	0.3264	0.09
Mof_C 	C 	0.02221	0.59635	0.29297	0.068
Mof_H 	H 	0.0124	0.6111	0.2834	0.027
Mof_C 	C 	0.01132	0.5402	0.3578	-0.031
Mof_C 	C 	0.00083	0.52495	0.3825	-0.035
Mof_C 	C 	0.98878	0.50639	0.41022	0.113
Mof_C 	C 	0.95954	0.50563	0.41068	-0.17
Mof_H 	H 	0.9486	0.5162	0.3929	0.097
Mof_C 	C 	0.94648	0.48929	0.43747	0.112
Mof_C 	C 	0.96265	0.47369	0.4638	-0.173
Mof_H 	H 	0.9538	0.4626	0.4819	0.095
Mof_C 	C 	0.99189	0.47445	0.46334	0.121
Mof_C 	C 	0.00496	0.49079	0.43655	-0.173
Mof_H 	H 	0.0247	0.4913	0.4362	0.096
Mof_C 	C 	0.9159	0.48835	0.4391	-0.042
Mof_C 	C 	0.8903	0.48824	0.4401	-0.026
Mof_C 	C 	0.86044	0.48758	0.4415	0.081
Mof_C 	C 	0.84278	0.48938	0.40674	-0.127
Mof_H 	H 	0.8505	0.4899	0.381	0.077
Mof_C 	C 	0.81374	0.49039	0.4101	0.051
Mof_H 	H 	0.8018	0.4916	0.3866	0.028
Mof_C 	C 	0.80234	0.48959	0.4481	-0.122
Mof_C 	C 	0.82	0.48779	0.48285	0.057
Mof_H 	H 	0.8123	0.4872	0.5086	0.026
Mof_C 	C 	0.84905	0.48678	0.4795	-0.13
Mof_H 	H 	0.861	0.4856	0.503	0.078
Mof_C 	C 	0.77141	0.49155	0.4481	0.352
Mof_C 	C 	0.00847	0.45987	0.4908	-0.048
Mof_C 	C 	0.01991	0.44593	0.5139	-0.014
Mof_C 	C 	0.03432	0.42994	0.54663	0.079
Mof_C 	C 	0.06199	0.43411	0.5607	-0.133
Mof_H 	H 	0.0729	0.4468	0.5486	0.081
Mof_C 	C 	0.07348	0.41944	0.5927	0.06
Mof_H 	H 	0.0922	0.4223	0.6022	0.026
Mof_C 	C 	0.0573	0.4006	0.6106	-0.136
Mof_C 	C 	0.02963	0.39643	0.59653	0.06
Mof_H 	H 	0.0187	0.3837	0.6086	0.024
Mof_C 	C 	0.01814	0.4111	0.5645	-0.13
Mof_H 	H 	0.9994	0.4083	0.555	0.079
Mof_C 	C 	0.06987	0.38635	0.6447	0.363
Mof_C 	C 	0.1176	0.66804	0.1602	0.384
Mof_C 	C 	0.13167	0.68679	0.1334	-0.132
Mof_C 	C 	0.11864	0.7086	0.1166	0.064
Mof_H 	H 	0.1002	0.7129	0.1233	0.024
Mof_C 	C 	0.13289	0.72408	0.0899	-0.136
Mof_H 	H 	0.1241	0.7388	0.0785	0.08
Mof_C 	C 	0.16017	0.71774	0.07994	0.083
Mof_C 	C 	0.17319	0.69592	0.0968	-0.131
Mof_H 	H 	0.1916	0.6916	0.09	0.078
Mof_C 	C 	0.15894	0.68045	0.1235	0.058
Mof_H 	H 	0.1677	0.6657	0.1349	0.026
Mof_C 	C 	0.17679	0.73249	0.0534	-0.026
Mof_C 	C 	0.18895	0.74342	0.0285	-0.04
Mof_C 	C 	0.20566	0.75552	0.99759	0.118
Mof_C 	C 	0.20706	0.78225	0.99398	-0.179
Mof_H 	H 	0.1975	0.7928	0.0119	0.099
Mof_C 	C 	0.22262	0.7933	0.96381	0.125
Mof_C 	C 	0.23679	0.77763	0.93725	-0.179
Mof_H 	H 	0.2473	0.7851	0.9168	0.097
Mof_C 	C 	0.23539	0.7509	0.94086	0.122
Mof_C 	C 	0.21982	0.73985	0.97103	-0.174
Mof_H 	H 	0.2189	0.7218	0.9735	0.098
Mof_C 	C 	0.22504	0.81925	0.9606	-0.052
Mof_C 	C 	0.22681	0.84436	0.9579	-0.026
Mof_C 	C 	0.22807	0.87133	0.9568	0.089
Mof_C 	C 	0.2316	0.88546	0.99255	-0.139
Mof_H 	H 	0.2342	0.8769	0.0176	0.082
Mof_C 	C 	0.23129	0.91231	0.9913	0.07
Mof_H 	H 	0.2337	0.9219	0.0155	0.023
Mof_C 	C 	0.22744	0.92502	0.9543	-0.144
Mof_C 	C 	0.22391	0.91089	0.91858	0.069
Mof_H 	H 	0.2213	0.9195	0.8936	0.022
Mof_C 	C 	0.22422	0.88404	0.91984	-0.139
Mof_H 	H 	0.2218	0.8745	0.8957	0.082
Mof_C 	C 	0.22368	0.95226	0.9533	0.359
Mof_C 	C 	0.25012	0.73408	0.9156	-0.045
Mof_C 	C 	0.26151	0.71983	0.8927	-0.021
Mof_C 	C 	0.27606	0.70271	0.86611	0.083
Mof_C 	C 	0.30347	0.70817	0.8558	-0.133
Mof_H 	H 	0.3129	0.7227	0.867	0.081
Mof_C 	C 	0.31696	0.6922	0.8289	0.064
Mof_H 	H 	0.3355	0.6959	0.822	0.025
Mof_C 	C 	0.30304	0.67076	0.81236	-0.137
Mof_C 	C 	0.27562	0.6653	0.8227	0.064
Mof_H 	H 	0.2662	0.6508	0.8115	0.023
Mof_C 	C 	0.26213	0.68127	0.8495	-0.134
Mof_H 	H 	0.2436	0.6776	0.8565	0.08
Mof_C 	C 	0.3172	0.65448	0.7834	0.373
Mof_C 	C 	0.66538	0.50627	0.4546	0.378
Mof_C 	C 	0.63593	0.51184	0.4568	-0.153
Mof_C 	C 	0.62441	0.52053	0.49234	0.075
Mof_H 	H 	0.6361	0.5231	0.5158	0.019
Mof_C 	C 	0.59567	0.52543	0.49311	-0.145
Mof_H 	H 	0.5879	0.5313	0.5171	0.086
Mof_C 	C 	0.57844	0.52165	0.4584	0.091
Mof_C 	C 	0.58996	0.51296	0.42285	-0.14
Mof_H 	H 	0.5783	0.5104	0.3994	0.083
Mof_C 	C 	0.6187	0.50806	0.42208	0.071
Mof_H 	H 	0.6265	0.5022	0.3981	0.021
Mof_C 	C 	0.54798	0.52351	0.4613	-0.024
Mof_C 	C 	0.52394	0.5244	0.4613	-0.036
Mof_C 	C 	0.49266	0.52329	0.46	0.113
Mof_C 	C 	0.47669	0.53725	0.48666	-0.174
Mof_H 	H 	0.4856	0.5481	0.5061	0.096
Mof_C 	C 	0.44748	0.53512	0.48453	0.122
Mof_C 	C 	0.43425	0.51904	0.45575	-0.176
Mof_H 	H 	0.4145	0.5176	0.4543	0.098
Mof_C 	C 	0.45022	0.50508	0.42909	0.114
Mof_C 	C 	0.47943	0.5072	0.43122	-0.172
Mof_H 	H 	0.4902	0.4978	0.4132	0.095
Mof_C 	C 	0.43246	0.54828	0.5139	-0.049
Mof_C 	C 	0.41906	0.55836	0.5386	-0.013
Mof_C 	C 	0.40313	0.57163	0.57048	0.074
Mof_C 	C 	0.4147	0.59317	0.59017	-0.123
Mof_H 	H 	0.4321	0.5998	0.5825	0.076
Mof_C 	C 	0.40054	0.60491	0.6212	0.051
Mof_H 	H 	0.4084	0.6195	0.6345	0.029
Mof_C 	C 	0.37481	0.59511	0.63253	-0.117
Mof_C 	C 	0.36325	0.57357	0.61283	0.05
Mof_H 	H 	0.3459	0.5669	0.6205	0.032
Mof_C 	C 	0.37741	0.56183	0.58181	-0.123
Mof_H 	H 	0.3696	0.5473	0.5685	0.083
Mof_C 	C 	0.3598	0.60668	0.66654	0.351
Mof_C 	C 	0.43571	0.48725	0.4016	-0.045
Mof_C 	C 	0.42425	0.47145	0.3797	-0.024
Mof_C 	C 	0.40875	0.45386	0.35402	0.079
Mof_C 	C 	0.38064	0.45793	0.34213	-0.125
Mof_H 	H 	0.371	0.4724	0.3518	0.076
Mof_C 	C 	0.3667	0.4406	0.31598	0.049
Mof_H 	H 	0.3477	0.4434	0.3079	0.028
Mof_C 	C 	0.38089	0.41919	0.30172	-0.123
Mof_C 	C 	0.40901	0.41512	0.31361	0.057
Mof_H 	H 	0.4186	0.4006	0.304	0.026
Mof_C 	C 	0.42294	0.43245	0.33976	-0.128
Mof_H 	H 	0.442	0.4297	0.3478	0.077
Mof_C 	C 	0.3635	0.40218	0.2766	0.332
_end
