data_functionalizedCrystal
_audit_creation_method	'EQeq! by Chris Wilmer'
_symmetry_space_group_name_H-M	'P1'
_symmetry_Int_Tables_number	1
_symmetry_cell_setting	triclinic
loop_
_symmetry_equiv_pos_as_xyz
  x,y,z
_cell_length_a	14.6518
_cell_length_b	14.6518
_cell_length_c	14.6518
_cell_angle_alpha	90
_cell_angle_beta	90
_cell_angle_gamma	90
loop_
_atom_site_label
_atom_site_type_symbol
_atom_site_fract_x
_atom_site_fract_y
_atom_site_fract_z
_atom_site_charge
Mof_Co	Co	0.95576	0.54424	0.45576	1.198
Mof_Co	Co	0.81633	0.68367	0.31633	1.127
Mof_Co	Co	0.54424	0.45576	0.95576	1.199
Mof_Co	Co	0.68367	0.31633	0.81633	1.127
Mof_Co	Co	0.04424	0.04424	0.04424	1.201
Mof_Co	Co	0.18367	0.18367	0.18367	1.127
Mof_Co	Co	0.45576	0.95576	0.54424	1.199
Mof_Co	Co	0.31633	0.81633	0.68367	1.127
Mof_H 	H 	0.7522	0.4699	0.1632	0.015
Mof_H 	H 	0.7478	0.5301	0.6632	0.015
Mof_H 	H 	0.2478	0.9699	0.3368	0.015
Mof_H 	H 	0.2522	0.0301	0.8368	0.015
Mof_H 	H 	0.1632	0.7522	0.4699	0.015
Mof_H 	H 	0.6632	0.7478	0.5301	0.015
Mof_H 	H 	0.3368	0.2478	0.9699	0.015
Mof_H 	H 	0.8368	0.2522	0.0301	0.015
Mof_H 	H 	0.4699	0.1632	0.7522	0.015
Mof_H 	H 	0.5301	0.6632	0.7478	0.015
Mof_H 	H 	0.9699	0.3368	0.2478	0.015
Mof_H 	H 	0.0301	0.8368	0.2522	0.015
Mof_C 	C 	0.8692	0.486	0.2927	0.403
Mof_C 	C 	0.7941	0.4227	0.1561	0.113
Mof_C 	C 	0.8633	0.4151	0.2164	-0.172
Mof_C 	C 	0.6308	0.514	0.7927	0.403
Mof_C 	C 	0.7059	0.5773	0.6561	0.113
Mof_C 	C 	0.6367	0.5849	0.7164	-0.173
Mof_C 	C 	0.1308	0.986	0.2073	0.402
Mof_C 	C 	0.2059	0.9227	0.3439	0.112
Mof_C 	C 	0.1367	0.9151	0.2836	-0.172
Mof_C 	C 	0.3692	0.014	0.7073	0.405
Mof_C 	C 	0.2941	0.0773	0.8439	0.113
Mof_C 	C 	0.3633	0.0849	0.7836	-0.172
Mof_C 	C 	0.2927	0.8692	0.486	0.403
Mof_C 	C 	0.1561	0.7941	0.4227	0.113
Mof_C 	C 	0.2164	0.8633	0.4151	-0.172
Mof_C 	C 	0.7927	0.6308	0.514	0.403
Mof_C 	C 	0.6561	0.7059	0.5773	0.113
Mof_C 	C 	0.7164	0.6367	0.5849	-0.173
Mof_C 	C 	0.2073	0.1308	0.986	0.402
Mof_C 	C 	0.3439	0.2059	0.9227	0.112
Mof_C 	C 	0.2836	0.1367	0.9151	-0.172
Mof_C 	C 	0.7073	0.3692	0.014	0.405
Mof_C 	C 	0.8439	0.2941	0.0773	0.113
Mof_C 	C 	0.7836	0.3633	0.0849	-0.172
Mof_C 	C 	0.486	0.2927	0.8692	0.403
Mof_C 	C 	0.4227	0.1561	0.7941	0.113
Mof_C 	C 	0.4151	0.2164	0.8633	-0.172
Mof_C 	C 	0.514	0.7927	0.6308	0.403
Mof_C 	C 	0.5773	0.6561	0.7059	0.113
Mof_C 	C 	0.5849	0.7164	0.6367	-0.173
Mof_C 	C 	0.986	0.2073	0.1308	0.402
Mof_C 	C 	0.9227	0.3439	0.2059	0.112
Mof_C 	C 	0.9151	0.2836	0.1367	-0.172
Mof_C 	C 	0.014	0.7073	0.3692	0.405
Mof_C 	C 	0.0773	0.8439	0.2941	0.113
Mof_C 	C 	0.0849	0.7836	0.3633	-0.172
Mof_Cl	Cl	0.0379	0.4621	0.5379	-0.515
Mof_Cl	Cl	0.4621	0.5379	0.0379	-0.515
Mof_Cl	Cl	0.9621	0.9621	0.9621	-0.521
Mof_Cl	Cl	0.5379	0.0379	0.4621	-0.515
Mof_O 	O 	0.8195	0.5525	0.2903	-0.514
Mof_O 	O 	0.937	0.4688	0.3489	-0.448
Mof_O 	O 	0.6805	0.4475	0.7903	-0.514
Mof_O 	O 	0.563	0.5312	0.8489	-0.448
Mof_O 	O 	0.1805	0.0525	0.2097	-0.513
Mof_O 	O 	0.063	0.9688	0.1511	-0.447
Mof_O 	O 	0.3195	0.9475	0.7097	-0.516
Mof_O 	O 	0.437	0.0312	0.6511	-0.448
Mof_O 	O 	0.2903	0.8195	0.5525	-0.514
Mof_O 	O 	0.3489	0.937	0.4688	-0.448
Mof_O 	O 	0.7903	0.6805	0.4475	-0.514
Mof_O 	O 	0.8489	0.563	0.5312	-0.448
Mof_O 	O 	0.2097	0.1805	0.0525	-0.513
Mof_O 	O 	0.1511	0.063	0.9688	-0.447
Mof_O 	O 	0.7097	0.3195	0.9475	-0.516
Mof_O 	O 	0.6511	0.437	0.0312	-0.448
Mof_O 	O 	0.5525	0.2903	0.8195	-0.514
Mof_O 	O 	0.4688	0.3489	0.937	-0.448
Mof_O 	O 	0.4475	0.7903	0.6805	-0.514
Mof_O 	O 	0.5312	0.8489	0.563	-0.448
Mof_O 	O 	0.0525	0.2097	0.1805	-0.513
Mof_O 	O 	0.9688	0.1511	0.063	-0.447
Mof_O 	O 	0.9475	0.7097	0.3195	-0.516
Mof_O 	O 	0.0312	0.6511	0.437	-0.448
_end
