data_functionalizedCrystal
_audit_creation_method	'EQeq! by Chris Wilmer'
_symmetry_space_group_name_H-M	'P1'
_symmetry_Int_Tables_number	1
_symmetry_cell_setting	triclinic
loop_
_symmetry_equiv_pos_as_xyz
  x,y,z
_cell_length_a	15.954
_cell_length_b	19.226
_cell_length_c	16.734
_cell_angle_alpha	90
_cell_angle_beta	96.828
_cell_angle_gamma	90
loop_
_atom_site_label
_atom_site_type_symbol
_atom_site_fract_x
_atom_site_fract_y
_atom_site_fract_z
_atom_site_charge
Mof_Zn	Zn	0.53449	0.42732	0.5333	1.173
Mof_Zn	Zn	0.33372	0.43102	0.50184	1.216
Mof_O 	O 	0.4861	0.3574	0.6084	-0.511
Mof_O 	O 	0.3454	0.3661	0.5961	-0.473
Mof_O 	O 	0.4887	0.1242	0.9268	-0.51
Mof_O 	O 	0.3496	0.1349	0.9153	-0.491
Mof_O 	O 	0.2149	0.452	0.475	-0.457
Mof_O 	O 	0.2231	0.5001	0.5951	-0.334
Mof_O 	O 	0.4273	0.49431	0.537	-0.696
Mof_N 	N 	0.5768	0.1976	0.8291	-0.243
Mof_H 	H 	0.5772	0.158	0.853	0.142
Mof_N 	N 	0.2606	0.3015	0.7004	-0.263
Mof_H 	H 	0.2621	0.3381	0.671	0.166
Mof_N 	N 	0.9178	0.4655	0.3472	-0.239
Mof_H 	H 	0.8682	0.4479	0.3469	0.15
Mof_C 	C 	0.7267	0.1852	0.8427	-0.237
Mof_H 	H 	0.7192	0.1381	0.8519	0.109
Mof_C 	C 	0.8074	0.2111	0.8454	0.128
Mof_H 	H 	0.8539	0.1817	0.8546	-0.021
Mof_C 	C 	0.8177	0.2808	0.8341	-0.202
Mof_H 	H 	0.8717	0.2995	0.8368	0.097
Mof_C 	C 	0.7471	0.3242	0.8185	0.118
Mof_H 	H 	0.7553	0.3713	0.8091	-0.023
Mof_C 	C 	0.6654	0.2992	0.8165	-0.234
Mof_H 	H 	0.6192	0.3289	0.8086	0.107
Mof_C 	C 	0.655	0.2283	0.8265	0.199
Mof_C 	C 	0.4967	0.2227	0.798	0.111
Mof_C 	C 	0.4219	0.2021	0.8267	-0.102
Mof_C 	C 	0.3453	0.2268	0.7916	-0.095
Mof_H 	H 	0.2963	0.2117	0.8112	0.083
Mof_C 	C 	0.3389	0.2724	0.7295	0.144
Mof_C 	C 	0.4136	0.2939	0.698	-0.136
Mof_C 	C 	0.4901	0.2684	0.7335	-0.056
Mof_H 	H 	0.5392	0.2825	0.7132	0.057
Mof_C 	C 	0.4215	0.1491	0.8962	0.398
Mof_C 	C 	0.4152	0.3428	0.6291	0.41
Mof_C 	C 	0.1799	0.2781	0.7134	0.273
Mof_C 	C 	0.1166	0.323	0.7212	-0.324
Mof_H 	H 	0.1271	0.3705	0.7211	0.151
Mof_C 	C 	0.0362	0.2993	0.7294	0.235
Mof_H 	H 	0.993	0.3309	0.7341	-0.057
Mof_C 	C 	0.0201	0.2301	0.7307	-0.305
Mof_H 	H 	0.9664	0.2145	0.738	0.135
Mof_C 	C 	0.0822	0.1837	0.7215	0.231
Mof_H 	H 	0.071	0.1362	0.7213	-0.047
Mof_C 	C 	0.1607	0.2071	0.7126	-0.308
Mof_H 	H 	0.203	0.175	0.7057	0.139
Mof_C 	C 	0.1802	0.4811	0.5336	0.329
Mof_C 	C 	0.0887	0.4898	0.5189	-0.105
Mof_C 	C 	0.0453	0.4746	0.4445	-0.077
Mof_H 	H 	0.0768	0.4568	0.4059	0.074
Mof_C 	C 	0.9591	0.4834	0.4216	0.12
Mof_C 	C 	0.9475	0.4728	0.2716	0.174
Mof_C 	C 	0.8956	0.4412	0.2073	-0.175
Mof_H 	H 	0.8474	0.4166	0.2162	0.089
Mof_C 	C 	0.9978	0.4906	0.1221	-0.141
Mof_H 	H 	0.0148	0.4973	0.0714	0.073
Mof_C 	C 	0.9203	0.4486	0.1274	0.051
Mof_H 	H 	0.8898	0.4285	0.0824	0.009
Mof_C 	C 	0.043	0.5182	0.1828	0.089
Mof_H 	H 	0.0913	0.5433	0.1754	-0.008
Mof_C 	C 	0.0186	0.5102	0.2609	-0.2
Mof_H 	H 	0.0508	0.5302	0.305	0.1
Mof_Zn	Zn	0.46551	0.92732	0.9667	1.173
Mof_Zn	Zn	0.66628	0.93102	0.99816	1.215
Mof_O 	O 	0.5139	0.8574	0.8916	-0.512
Mof_O 	O 	0.6546	0.8661	0.9039	-0.475
Mof_O 	O 	0.5113	0.6242	0.5732	-0.513
Mof_O 	O 	0.6504	0.6349	0.5847	-0.494
Mof_O 	O 	0.7851	0.952	0.025	-0.447
Mof_O 	O 	0.7769	0.0001	0.9049	-0.326
Mof_O 	O 	0.5727	0.99431	0.963	-0.699
Mof_N 	N 	0.4232	0.6976	0.6709	-0.243
Mof_H 	H 	0.4228	0.658	0.647	0.141
Mof_N 	N 	0.7394	0.8015	0.7996	-0.263
Mof_H 	H 	0.7379	0.8381	0.829	0.165
Mof_N 	N 	0.0822	0.9655	0.1528	-0.24
Mof_H 	H 	0.1318	0.9479	0.1531	0.151
Mof_C 	C 	0.2733	0.6852	0.6573	-0.237
Mof_H 	H 	0.2808	0.6381	0.6481	0.109
Mof_C 	C 	0.1926	0.7111	0.6546	0.127
Mof_H 	H 	0.1461	0.6817	0.6454	-0.021
Mof_C 	C 	0.1823	0.7808	0.6659	-0.202
Mof_H 	H 	0.1283	0.7995	0.6632	0.096
Mof_C 	C 	0.2529	0.8242	0.6815	0.117
Mof_H 	H 	0.2447	0.8713	0.6909	-0.023
Mof_C 	C 	0.3346	0.7992	0.6835	-0.234
Mof_H 	H 	0.3808	0.8289	0.6914	0.107
Mof_C 	C 	0.345	0.7283	0.6735	0.198
Mof_C 	C 	0.5033	0.7227	0.702	0.11
Mof_C 	C 	0.5781	0.7021	0.6733	-0.103
Mof_C 	C 	0.6547	0.7268	0.7084	-0.095
Mof_H 	H 	0.7037	0.7117	0.6888	0.082
Mof_C 	C 	0.6611	0.7724	0.7705	0.144
Mof_C 	C 	0.5864	0.7939	0.802	-0.136
Mof_C 	C 	0.5099	0.7684	0.7665	-0.056
Mof_H 	H 	0.4608	0.7825	0.7868	0.057
Mof_C 	C 	0.5785	0.6491	0.6038	0.399
Mof_C 	C 	0.5848	0.8428	0.8709	0.41
Mof_C 	C 	0.8201	0.7781	0.7866	0.272
Mof_C 	C 	0.8834	0.823	0.7788	-0.323
Mof_H 	H 	0.8729	0.8705	0.7789	0.149
Mof_C 	C 	0.9638	0.7993	0.7706	0.231
Mof_H 	H 	0.007	0.8309	0.7659	-0.055
Mof_C 	C 	0.9799	0.7301	0.7693	-0.309
Mof_H 	H 	0.0336	0.7145	0.762	0.138
Mof_C 	C 	0.9178	0.6837	0.7785	0.233
Mof_H 	H 	0.929	0.6362	0.7787	-0.049
Mof_C 	C 	0.8393	0.7071	0.7874	-0.309
Mof_H 	H 	0.797	0.675	0.7943	0.139
Mof_C 	C 	0.8198	0.9811	0.9664	0.317
Mof_C 	C 	0.9113	0.9898	0.9811	-0.117
Mof_C 	C 	0.9547	0.9746	0.0555	-0.063
Mof_H 	H 	0.9232	0.9568	0.0941	0.071
Mof_C 	C 	0.0409	0.9834	0.0784	0.122
Mof_C 	C 	0.0525	0.9728	0.2284	0.18
Mof_C 	C 	0.1044	0.9412	0.2927	-0.18
Mof_H 	H 	0.1526	0.9166	0.2838	0.091
Mof_C 	C 	0.0022	0.9906	0.3779	-0.153
Mof_H 	H 	0.9852	0.9973	0.4286	0.079
Mof_C 	C 	0.0797	0.9486	0.3726	0.058
Mof_H 	H 	0.1102	0.9285	0.4176	0.006
Mof_C 	C 	0.957	0.0182	0.3172	0.099
Mof_H 	H 	0.9087	0.0433	0.3246	-0.012
Mof_C 	C 	0.9814	0.0102	0.2391	-0.209
Mof_H 	H 	0.9492	0.0302	0.195	0.101
Mof_Zn	Zn	0.46551	0.57268	0.4667	1.174
Mof_Zn	Zn	0.66628	0.56898	0.49816	1.217
Mof_O 	O 	0.5139	0.6426	0.3916	-0.511
Mof_O 	O 	0.6546	0.6339	0.4039	-0.473
Mof_O 	O 	0.5113	0.8758	0.0732	-0.51
Mof_O 	O 	0.6504	0.8651	0.0847	-0.491
Mof_O 	O 	0.7851	0.548	0.525	-0.457
Mof_O 	O 	0.7769	0.4999	0.4049	-0.334
Mof_O 	O 	0.5727	0.50569	0.463	-0.696
Mof_N 	N 	0.4232	0.8024	0.1709	-0.243
Mof_H 	H 	0.4228	0.842	0.147	0.142
Mof_N 	N 	0.7394	0.6985	0.2996	-0.263
Mof_H 	H 	0.7379	0.6619	0.329	0.166
Mof_N 	N 	0.0822	0.5345	0.6528	-0.239
Mof_H 	H 	0.1318	0.5521	0.6531	0.15
Mof_C 	C 	0.2733	0.8148	0.1573	-0.237
Mof_H 	H 	0.2808	0.8619	0.1481	0.109
Mof_C 	C 	0.1926	0.7889	0.1546	0.128
Mof_H 	H 	0.1461	0.8183	0.1454	-0.021
Mof_C 	C 	0.1823	0.7192	0.1659	-0.202
Mof_H 	H 	0.1283	0.7005	0.1632	0.097
Mof_C 	C 	0.2529	0.6758	0.1815	0.118
Mof_H 	H 	0.2447	0.6287	0.1909	-0.023
Mof_C 	C 	0.3346	0.7008	0.1835	-0.234
Mof_H 	H 	0.3808	0.6711	0.1914	0.107
Mof_C 	C 	0.345	0.7717	0.1735	0.199
Mof_C 	C 	0.5033	0.7773	0.202	0.111
Mof_C 	C 	0.5781	0.7979	0.1733	-0.102
Mof_C 	C 	0.6547	0.7732	0.2084	-0.095
Mof_H 	H 	0.7037	0.7883	0.1888	0.083
Mof_C 	C 	0.6611	0.7276	0.2705	0.144
Mof_C 	C 	0.5864	0.7061	0.302	-0.136
Mof_C 	C 	0.5099	0.7316	0.2665	-0.056
Mof_H 	H 	0.4608	0.7175	0.2868	0.057
Mof_C 	C 	0.5785	0.8509	0.1038	0.398
Mof_C 	C 	0.5848	0.6572	0.3709	0.41
Mof_C 	C 	0.8201	0.7219	0.2866	0.273
Mof_C 	C 	0.8834	0.677	0.2788	-0.324
Mof_H 	H 	0.8729	0.6295	0.2789	0.151
Mof_C 	C 	0.9638	0.7007	0.2706	0.235
Mof_H 	H 	0.007	0.6691	0.2659	-0.057
Mof_C 	C 	0.9799	0.7699	0.2693	-0.305
Mof_H 	H 	0.0336	0.7855	0.262	0.135
Mof_C 	C 	0.9178	0.8163	0.2785	0.231
Mof_H 	H 	0.929	0.8638	0.2787	-0.047
Mof_C 	C 	0.8393	0.7929	0.2874	-0.308
Mof_H 	H 	0.797	0.825	0.2943	0.139
Mof_C 	C 	0.8198	0.5189	0.4664	0.329
Mof_C 	C 	0.9113	0.5102	0.4811	-0.105
Mof_C 	C 	0.9547	0.5254	0.5555	-0.077
Mof_H 	H 	0.9232	0.5432	0.5941	0.074
Mof_C 	C 	0.0409	0.5166	0.5784	0.12
Mof_C 	C 	0.0525	0.5272	0.7284	0.174
Mof_C 	C 	0.1044	0.5588	0.7927	-0.175
Mof_H 	H 	0.1526	0.5834	0.7838	0.089
Mof_C 	C 	0.0022	0.5094	0.8779	-0.141
Mof_H 	H 	0.9852	0.5027	0.9286	0.073
Mof_C 	C 	0.0797	0.5514	0.8726	0.051
Mof_H 	H 	0.1102	0.5715	0.9176	0.009
Mof_C 	C 	0.957	0.4818	0.8172	0.089
Mof_H 	H 	0.9087	0.4567	0.8246	-0.008
Mof_C 	C 	0.9814	0.4898	0.7391	-0.2
Mof_H 	H 	0.9492	0.4698	0.695	0.1
Mof_Zn	Zn	0.53449	0.07268	0.0333	1.173
Mof_Zn	Zn	0.33372	0.06898	0.00184	1.215
Mof_O 	O 	0.4861	0.1426	0.1084	-0.512
Mof_O 	O 	0.3454	0.1339	0.0961	-0.475
Mof_O 	O 	0.4887	0.3758	0.4268	-0.513
Mof_O 	O 	0.3496	0.3651	0.4153	-0.494
Mof_O 	O 	0.2149	0.048	0.975	-0.447
Mof_O 	O 	0.2231	0.9999	0.0951	-0.326
Mof_O 	O 	0.4273	0.00569	0.037	-0.699
Mof_N 	N 	0.5768	0.3024	0.3291	-0.243
Mof_H 	H 	0.5772	0.342	0.353	0.141
Mof_N 	N 	0.2606	0.1985	0.2004	-0.263
Mof_H 	H 	0.2621	0.1619	0.171	0.165
Mof_N 	N 	0.9178	0.0345	0.8472	-0.24
Mof_H 	H 	0.8682	0.0521	0.8469	0.151
Mof_C 	C 	0.7267	0.3148	0.3427	-0.237
Mof_H 	H 	0.7192	0.3619	0.3519	0.109
Mof_C 	C 	0.8074	0.2889	0.3454	0.127
Mof_H 	H 	0.8539	0.3183	0.3546	-0.021
Mof_C 	C 	0.8177	0.2192	0.3341	-0.202
Mof_H 	H 	0.8717	0.2005	0.3368	0.096
Mof_C 	C 	0.7471	0.1758	0.3185	0.117
Mof_H 	H 	0.7553	0.1287	0.3091	-0.023
Mof_C 	C 	0.6654	0.2008	0.3165	-0.234
Mof_H 	H 	0.6192	0.1711	0.3086	0.107
Mof_C 	C 	0.655	0.2717	0.3265	0.198
Mof_C 	C 	0.4967	0.2773	0.298	0.11
Mof_C 	C 	0.4219	0.2979	0.3267	-0.103
Mof_C 	C 	0.3453	0.2732	0.2916	-0.095
Mof_H 	H 	0.2963	0.2883	0.3112	0.082
Mof_C 	C 	0.3389	0.2276	0.2295	0.144
Mof_C 	C 	0.4136	0.2061	0.198	-0.136
Mof_C 	C 	0.4901	0.2316	0.2335	-0.056
Mof_H 	H 	0.5392	0.2175	0.2132	0.057
Mof_C 	C 	0.4215	0.3509	0.3962	0.399
Mof_C 	C 	0.4152	0.1572	0.1291	0.41
Mof_C 	C 	0.1799	0.2219	0.2134	0.272
Mof_C 	C 	0.1166	0.177	0.2212	-0.323
Mof_H 	H 	0.1271	0.1295	0.2211	0.149
Mof_C 	C 	0.0362	0.2007	0.2294	0.231
Mof_H 	H 	0.993	0.1691	0.2341	-0.055
Mof_C 	C 	0.0201	0.2699	0.2307	-0.309
Mof_H 	H 	0.9664	0.2855	0.238	0.138
Mof_C 	C 	0.0822	0.3163	0.2215	0.233
Mof_H 	H 	0.071	0.3638	0.2213	-0.049
Mof_C 	C 	0.1607	0.2929	0.2126	-0.309
Mof_H 	H 	0.203	0.325	0.2057	0.139
Mof_C 	C 	0.1802	0.0189	0.0336	0.317
Mof_C 	C 	0.0887	0.0102	0.0189	-0.117
Mof_C 	C 	0.0453	0.0254	0.9445	-0.063
Mof_H 	H 	0.0768	0.0432	0.9059	0.071
Mof_C 	C 	0.9591	0.0166	0.9216	0.122
Mof_C 	C 	0.9475	0.0272	0.7716	0.18
Mof_C 	C 	0.8956	0.0588	0.7073	-0.18
Mof_H 	H 	0.8474	0.0834	0.7162	0.091
Mof_C 	C 	0.9978	0.0094	0.6221	-0.153
Mof_H 	H 	0.0148	0.0027	0.5714	0.079
Mof_C 	C 	0.9203	0.0514	0.6274	0.058
Mof_H 	H 	0.8898	0.0715	0.5824	0.006
Mof_C 	C 	0.043	0.9818	0.6828	0.099
Mof_H 	H 	0.0913	0.9567	0.6754	-0.012
Mof_C 	C 	0.0186	0.9898	0.7609	-0.209
Mof_H 	H 	0.0508	0.9698	0.805	0.101
_end
