data_functionalizedCrystal
_audit_creation_method	'EQeq! by Chris Wilmer'
_symmetry_space_group_name_H-M	'P1'
_symmetry_Int_Tables_number	1
_symmetry_cell_setting	triclinic
loop_
_symmetry_equiv_pos_as_xyz
  x,y,z
_cell_length_a	33.929
_cell_length_b	13.045
_cell_length_c	8.9713
_cell_angle_alpha	90
_cell_angle_beta	104.37
_cell_angle_gamma	90
loop_
_atom_site_label
_atom_site_type_symbol
_atom_site_fract_x
_atom_site_fract_y
_atom_site_fract_z
_atom_site_charge
Mof_Mn	Mn	0.1477	0.10455	0.66062	1.074
Mof_Mn	Mn	0.22899	0.85717	0.62707	1.058
Mof_P 	P 	0.05116	0.11897	0.5663	0.461
Mof_H 	H 	0.0465	0.2272	0.563	-0.021
Mof_P 	P 	0.19505	0.9488	0.9043	0.543
Mof_P 	P 	0.18009	0.7065	0.3843	0.464
Mof_H 	H 	0.1611	0.6117	0.401	-0.012
Mof_O 	O 	0.1922	0.7374	0.5479	-0.403
Mof_O 	O 	0.22456	0.8711	0.8328	-0.373
Mof_O 	O 	0.2186	0.047	0.9712	-0.502
Mof_O 	O 	0.15683	0.9794	0.7777	-0.432
Mof_O 	O 	0.18398	0.8878	0.0307	-0.456
Mof_O 	O 	0.09316	0.09	0.5388	-0.405
Mof_O 	O 	0.01617	0.1052	0.4248	-0.412
Mof_O 	O 	0.1462	0.7745	0.2904	-0.432
Mof_O 	O 	0.0442	0.0703	0.7118	-0.408
Mof_O 	O 	0.2139	0.6903	0.3075	-0.418
Mof_Zn	Zn	0.8523	0.10455	0.83938	1.239
Mof_Zn	Zn	0.77101	0.85717	0.87293	1.232
Mof_Mn	Mn	0.6477	0.60455	0.66062	1.075
Mof_Mn	Mn	0.72899	0.35717	0.62707	1.059
Mof_P 	P 	0.55116	0.61897	0.5663	0.465
Mof_H 	H 	0.5465	0.7272	0.563	-0.016
Mof_P 	P 	0.69505	0.4488	0.9043	0.546
Mof_P 	P 	0.68009	0.2065	0.3843	0.464
Mof_H 	H 	0.6611	0.1117	0.401	-0.011
Mof_O 	O 	0.6922	0.2374	0.5479	-0.402
Mof_O 	O 	0.72456	0.3711	0.8328	-0.372
Mof_O 	O 	0.7186	0.547	0.9712	-0.505
Mof_O 	O 	0.65683	0.4794	0.7777	-0.432
Mof_O 	O 	0.68398	0.3878	0.0307	-0.458
Mof_O 	O 	0.59316	0.59	0.5388	-0.404
Mof_O 	O 	0.51617	0.6052	0.4248	-0.409
Mof_O 	O 	0.6462	0.2745	0.2904	-0.431
Mof_O 	O 	0.5442	0.5703	0.7118	-0.409
Mof_O 	O 	0.7139	0.1903	0.3075	-0.418
Mof_Zn	Zn	0.3523	0.60455	0.83938	1.238
Mof_Zn	Zn	0.27101	0.35717	0.87293	1.233
Mof_P 	P 	0.94884	0.11897	0.9337	0.452
Mof_H 	H 	0.9535	0.2272	0.937	-0.011
Mof_P 	P 	0.80495	0.9488	0.5957	0.542
Mof_P 	P 	0.81991	0.7065	0.1157	0.456
Mof_H 	H 	0.8389	0.6117	0.099	-0.008
Mof_O 	O 	0.8078	0.7374	0.9521	-0.439
Mof_O 	O 	0.77544	0.8711	0.6672	-0.407
Mof_O 	O 	0.7814	0.047	0.5288	-0.476
Mof_O 	O 	0.84317	0.9794	0.7223	-0.464
Mof_O 	O 	0.81602	0.8878	0.4693	-0.419
Mof_O 	O 	0.90684	0.09	0.9612	-0.43
Mof_O 	O 	0.98383	0.1052	0.0752	-0.387
Mof_O 	O 	0.8538	0.7745	0.2096	-0.397
Mof_O 	O 	0.9558	0.0703	0.7882	-0.394
Mof_O 	O 	0.7861	0.6903	0.1925	-0.449
Mof_P 	P 	0.44884	0.61897	0.9337	0.452
Mof_H 	H 	0.4535	0.7272	0.937	-0.016
Mof_P 	P 	0.30495	0.4488	0.5957	0.542
Mof_P 	P 	0.31991	0.2065	0.1157	0.454
Mof_H 	H 	0.3389	0.1117	0.099	-0.01
Mof_O 	O 	0.3078	0.2374	0.9521	-0.437
Mof_O 	O 	0.27544	0.3711	0.6672	-0.407
Mof_O 	O 	0.2814	0.547	0.5288	-0.477
Mof_O 	O 	0.34317	0.4794	0.7223	-0.464
Mof_O 	O 	0.31602	0.3878	0.4693	-0.419
Mof_O 	O 	0.40684	0.59	0.9612	-0.433
Mof_O 	O 	0.48383	0.6052	0.0752	-0.405
Mof_O 	O 	0.3538	0.2745	0.2096	-0.398
Mof_O 	O 	0.4558	0.5703	0.7882	-0.409
Mof_O 	O 	0.2861	0.1903	0.1925	-0.449
Mof_Mn	Mn	0.8523	0.89545	0.33938	1.077
Mof_Mn	Mn	0.77101	0.14283	0.37293	1.059
Mof_P 	P 	0.94884	0.88103	0.4337	0.463
Mof_H 	H 	0.9535	0.7728	0.437	-0.011
Mof_P 	P 	0.80495	0.0512	0.0957	0.544
Mof_P 	P 	0.81991	0.2935	0.6157	0.465
Mof_H 	H 	0.8389	0.3883	0.599	-0.01
Mof_O 	O 	0.8078	0.2626	0.4521	-0.402
Mof_O 	O 	0.77544	0.1289	0.1672	-0.372
Mof_O 	O 	0.7814	0.953	0.0288	-0.502
Mof_O 	O 	0.84317	0.0206	0.2223	-0.431
Mof_O 	O 	0.81602	0.1122	0.9693	-0.456
Mof_O 	O 	0.90684	0.91	0.4612	-0.401
Mof_O 	O 	0.98383	0.8948	0.5752	-0.39
Mof_O 	O 	0.8538	0.2255	0.7096	-0.429
Mof_O 	O 	0.9558	0.9297	0.2882	-0.393
Mof_O 	O 	0.7861	0.3097	0.6925	-0.417
Mof_Zn	Zn	0.1477	0.89545	0.16062	1.239
Mof_Zn	Zn	0.22899	0.14283	0.12707	1.232
Mof_Mn	Mn	0.3523	0.39545	0.33938	1.075
Mof_Mn	Mn	0.27101	0.64283	0.37293	1.059
Mof_P 	P 	0.44884	0.38103	0.4337	0.465
Mof_H 	H 	0.4535	0.2728	0.437	-0.016
Mof_P 	P 	0.30495	0.5512	0.0957	0.547
Mof_P 	P 	0.31991	0.7935	0.6157	0.464
Mof_H 	H 	0.3389	0.8883	0.599	-0.011
Mof_O 	O 	0.3078	0.7626	0.4521	-0.402
Mof_O 	O 	0.27544	0.6289	0.1672	-0.372
Mof_O 	O 	0.2814	0.453	0.0288	-0.505
Mof_O 	O 	0.34317	0.5206	0.2223	-0.432
Mof_O 	O 	0.31602	0.6122	0.9693	-0.458
Mof_O 	O 	0.40684	0.41	0.4612	-0.404
Mof_O 	O 	0.48383	0.3948	0.5752	-0.409
Mof_O 	O 	0.3538	0.7255	0.7096	-0.431
Mof_O 	O 	0.4558	0.4297	0.2882	-0.409
Mof_O 	O 	0.2861	0.8097	0.6925	-0.418
Mof_Zn	Zn	0.6477	0.39545	0.16062	1.238
Mof_Zn	Zn	0.72899	0.64283	0.12707	1.233
Mof_P 	P 	0.05116	0.88103	0.0663	0.452
Mof_H 	H 	0.0465	0.7728	0.063	-0.019
Mof_P 	P 	0.19505	0.0512	0.4043	0.542
Mof_P 	P 	0.18009	0.2935	0.8843	0.455
Mof_H 	H 	0.1611	0.3883	0.901	-0.011
Mof_O 	O 	0.1922	0.2626	0.0479	-0.439
Mof_O 	O 	0.22456	0.1289	0.3328	-0.407
Mof_O 	O 	0.2186	0.953	0.4712	-0.476
Mof_O 	O 	0.15683	0.0206	0.2777	-0.465
Mof_O 	O 	0.18398	0.1122	0.5307	-0.419
Mof_O 	O 	0.09316	0.91	0.0388	-0.433
Mof_O 	O 	0.01617	0.8948	0.9248	-0.411
Mof_O 	O 	0.1462	0.2255	0.7904	-0.399
Mof_O 	O 	0.0442	0.9297	0.2118	-0.408
Mof_O 	O 	0.2139	0.3097	0.8075	-0.449
Mof_P 	P 	0.55116	0.38103	0.0663	0.452
Mof_H 	H 	0.5465	0.2728	0.063	-0.016
Mof_P 	P 	0.69505	0.5512	0.4043	0.542
Mof_P 	P 	0.68009	0.7935	0.8843	0.453
Mof_H 	H 	0.6611	0.8883	0.901	-0.01
Mof_O 	O 	0.6922	0.7626	0.0479	-0.436
Mof_O 	O 	0.72456	0.6289	0.3328	-0.406
Mof_O 	O 	0.7186	0.453	0.4712	-0.476
Mof_O 	O 	0.65683	0.5206	0.2777	-0.464
Mof_O 	O 	0.68398	0.6122	0.5307	-0.419
Mof_O 	O 	0.59316	0.41	0.0388	-0.433
Mof_O 	O 	0.51617	0.3948	0.9248	-0.405
Mof_O 	O 	0.6462	0.7255	0.7904	-0.398
Mof_O 	O 	0.5442	0.4297	0.2118	-0.409
Mof_O 	O 	0.7139	0.8097	0.8075	-0.449
Mof_Mn	Mn	3.0936e-34	0.01279	0.25	1.028
Mof_Mn	Mn	0.5	0.51279	0.25	1.062
Mof_Mn	Mn	9.2808e-34	0.98721	0.75	1.027
Mof_Mn	Mn	0.5	0.48721	0.75	1.062
_end
