data_functionalizedCrystal
_audit_creation_method	'EQeq! by Chris Wilmer'
_symmetry_space_group_name_H-M	'P1'
_symmetry_Int_Tables_number	1
_symmetry_cell_setting	triclinic
loop_
_symmetry_equiv_pos_as_xyz
  x,y,z
_cell_length_a	15.847
_cell_length_b	9.685
_cell_length_c	18.333
_cell_angle_alpha	90
_cell_angle_beta	115.5
_cell_angle_gamma	90
loop_
_atom_site_label
_atom_site_type_symbol
_atom_site_fract_x
_atom_site_fract_y
_atom_site_fract_z
_atom_site_charge
Mof_Zn	Zn	0.418	0.1249	0.5861	1.239
Mof_O 	O 	0.3584	0.2847	0.5024	-0.323
Mof_O 	O 	0.3936	0.965	0.5025	-0.324
Mof_O 	O 	0.4669	0.2626	0.6827	-0.326
Mof_O 	O 	0.4662	0.9861	0.6835	-0.324
Mof_O 	O 	0.2217	0.3855	0.4312	-0.326
Mof_O 	O 	0.4592	0.8645	0.4313	-0.324
Mof_C 	C 	0.2727	0.3007	0.4808	0.235
Mof_C 	C 	0.4575	0.9501	0.4807	0.235
Mof_Zn	Zn	0.918	0.6249	0.5861	1.245
Mof_O 	O 	0.8584	0.7847	0.5024	-0.314
Mof_O 	O 	0.8936	0.465	0.5025	-0.323
Mof_O 	O 	0.9669	0.7626	0.6827	-0.289
Mof_O 	O 	0.9662	0.4861	0.6835	-0.29
Mof_O 	O 	0.7217	0.8855	0.4312	-0.322
Mof_O 	O 	0.9592	0.3645	0.4313	-0.311
Mof_C 	C 	0.7727	0.8007	0.4808	0.236
Mof_C 	C 	0.9575	0.4501	0.4807	0.266
Mof_Zn	Zn	0.582	0.1249	0.9139	1.24
Mof_O 	O 	0.6416	0.2847	0.9976	-0.328
Mof_O 	O 	0.6064	0.965	0.9975	-0.319
Mof_O 	O 	0.5331	0.2626	0.8173	-0.326
Mof_O 	O 	0.5338	0.9861	0.8165	-0.323
Mof_O 	O 	0.7783	0.3855	0.0688	-0.324
Mof_O 	O 	0.5408	0.8645	0.0687	-0.322
Mof_C 	C 	0.7273	0.3007	0.0192	0.25
Mof_C 	C 	0.5425	0.9501	0.0193	0.235
Mof_Zn	Zn	0.082	0.6249	0.9139	1.236
Mof_O 	O 	0.1416	0.7847	0.9976	-0.332
Mof_O 	O 	0.1064	0.465	0.9975	-0.327
Mof_O 	O 	0.0331	0.7626	0.8173	-0.327
Mof_O 	O 	0.0338	0.4861	0.8165	-0.329
Mof_O 	O 	0.2783	0.8855	0.0688	-0.33
Mof_O 	O 	0.0408	0.3645	0.0687	-0.334
Mof_C 	C 	0.2273	0.8007	0.0192	0.238
Mof_C 	C 	0.0425	0.4501	0.0193	0.211
Mof_Zn	Zn	0.582	0.8751	0.4139	1.24
Mof_O 	O 	0.6416	0.7153	0.4976	-0.322
Mof_O 	O 	0.6064	0.035	0.4975	-0.321
Mof_O 	O 	0.5331	0.7374	0.3173	-0.326
Mof_O 	O 	0.5338	0.0139	0.3165	-0.323
Mof_O 	O 	0.7783	0.6145	0.5688	-0.322
Mof_O 	O 	0.5408	0.1355	0.5687	-0.322
Mof_C 	C 	0.7273	0.6993	0.5192	0.237
Mof_C 	C 	0.5425	0.0499	0.5193	0.234
Mof_Zn	Zn	0.082	0.3751	0.4139	1.236
Mof_O 	O 	0.1416	0.2153	0.4976	-0.332
Mof_O 	O 	0.1064	0.535	0.4975	-0.322
Mof_O 	O 	0.0331	0.2374	0.3173	-0.327
Mof_O 	O 	0.0338	0.5139	0.3165	-0.329
Mof_O 	O 	0.2783	0.1145	0.5688	-0.329
Mof_O 	O 	0.0408	0.6355	0.5687	-0.333
Mof_C 	C 	0.2273	0.1993	0.5192	0.238
Mof_C 	C 	0.0425	0.5499	0.5193	0.203
Mof_Zn	Zn	0.418	0.8751	0.0861	1.24
Mof_O 	O 	0.3584	0.7153	0.0024	-0.322
Mof_O 	O 	0.3936	0.035	0.0025	-0.315
Mof_O 	O 	0.4669	0.7374	0.1827	-0.326
Mof_O 	O 	0.4662	0.0139	0.1835	-0.322
Mof_O 	O 	0.2217	0.6145	0.9312	-0.327
Mof_O 	O 	0.4592	0.1355	0.9313	-0.323
Mof_C 	C 	0.2727	0.6993	0.9808	0.234
Mof_C 	C 	0.4575	0.0499	0.9807	0.223
Mof_Zn	Zn	0.918	0.3751	0.0861	1.245
Mof_O 	O 	0.8584	0.2153	0.0024	-0.307
Mof_O 	O 	0.8936	0.535	0.0025	-0.321
Mof_O 	O 	0.9669	0.2374	0.1827	-0.288
Mof_O 	O 	0.9662	0.5139	0.1835	-0.291
Mof_O 	O 	0.7217	0.1145	0.9312	-0.32
Mof_O 	O 	0.9592	0.6355	0.9313	-0.31
Mof_C 	C 	0.7727	0.1993	0.9808	0.223
Mof_C 	C 	0.9575	0.5499	0.9807	0.259
Mof_C 	C 	0.5	0.2047	0.75	0.23
Mof_C 	C 	0.5	0.044	0.75	0.233
Mof_C 	C 	-4.47653e-17	0.7047	0.75	0.193
Mof_C 	C 	4.65372e-33	0.544	0.75	0.203
Mof_C 	C 	0.5	0.7953	0.25	0.23
Mof_C 	C 	0.5	0.956	0.25	0.233
Mof_C 	C 	2.23827e-17	0.2953	0.25	0.193
Mof_C 	C 	1.55124e-33	0.456	0.25	0.204
_end
