data_functionalizedCrystal
_audit_creation_method	'EQeq! by Chris Wilmer'
_symmetry_space_group_name_H-M	'P1'
_symmetry_Int_Tables_number	1
_symmetry_cell_setting	triclinic
loop_
_symmetry_equiv_pos_as_xyz
  x,y,z
_cell_length_a	11.9
_cell_length_b	12.494
_cell_length_c	12.539
_cell_angle_alpha	90
_cell_angle_beta	98.76
_cell_angle_gamma	90
loop_
_atom_site_label
_atom_site_type_symbol
_atom_site_fract_x
_atom_site_fract_y
_atom_site_fract_z
_atom_site_charge
Mof_C 	C 	0.5155	0.6598	0.5095	-0.023
Mof_C 	C 	0.6112	0.6258	0.47	-0.191
Mof_H 	H 	0.6741	0.6004	0.5162	0.105
Mof_C 	C 	0.6116	0.6305	0.3598	0.251
Mof_C 	C 	0.5171	0.6659	0.2894	-0.313
Mof_H 	H 	0.5189	0.6695	0.2156	0.145
Mof_C 	C 	0.4202	0.6956	0.3308	0.254
Mof_C 	C 	0.4194	0.6972	0.4414	-0.187
Mof_H 	H 	0.3566	0.7226	0.4696	0.108
Mof_C 	C 	0.513	0.659	0.6287	0.477
Mof_C 	C 	0.721	0.6202	0.2157	0.031
Mof_H 	H 	0.6975	0.694	0.1976	0.031
Mof_C 	C 	0.6422	0.5439	0.1411	0.501
Mof_C 	C 	0.8441	0.6082	0.2021	-0.438
Mof_H 	H 	0.8891	0.6599	0.2464	0.167
Mof_H 	H 	0.8519	0.6196	0.1279	0.148
Mof_H 	H 	0.8698	0.5374	0.2234	0.132
Mof_C 	C 	0.3078	0.7043	0.1559	0.057
Mof_H 	H 	0.339	0.6333	0.1451	0.017
Mof_C 	C 	0.3678	0.7851	0.0951	0.464
Mof_C 	C 	0.1811	0.7021	0.1159	-0.476
Mof_H 	H 	0.1455	0.6505	0.1566	0.18
Mof_H 	H 	0.1681	0.6827	0.0409	0.15
Mof_H 	H 	0.1494	0.7716	0.1247	0.171
Mof_C 	C 	0.9792	0.454	0.9091	0.078
Mof_C 	C 	0.0375	0.4513	0.0123	-0.244
Mof_H 	H 	0.9997	0.4651	0.0705	0.113
Mof_C 	C 	0.1533	0.428	0.0298	0.286
Mof_C 	C 	0.21	0.4093	0.9431	-0.33
Mof_H 	H 	0.2877	0.3951	0.954	0.14
Mof_C 	C 	0.148	0.4121	0.8377	0.29
Mof_C 	C 	0.0333	0.4339	0.8208	-0.242
Mof_H 	H 	0.9928	0.4352	0.7513	0.13
Mof_C 	C 	0.8551	0.481	0.8917	0.25
Mof_C 	C 	0.3132	0.4269	0.7512	0.14
Mof_H 	H 	0.3633	0.3797	0.7994	-0.016
Mof_C 	C 	0.3275	0.542	0.7913	0.347
Mof_C 	C 	0.3417	0.4192	0.6384	-0.561
Mof_H 	H 	0.3247	0.3484	0.6107	0.206
Mof_H 	H 	0.4212	0.4336	0.6398	0.178
Mof_H 	H 	0.2976	0.4705	0.5929	0.196
Mof_C 	C 	0.318	0.3999	0.1629	0.122
Mof_H 	H 	0.3658	0.4468	0.1261	-0.016
Mof_C 	C 	0.3381	0.2839	0.1357	0.345
Mof_C 	C 	0.3468	0.4143	0.2851	-0.521
Mof_H 	H 	0.3299	0.4864	0.3039	0.192
Mof_H 	H 	0.4261	0.4002	0.3076	0.162
Mof_H 	H 	0.3023	0.3654	0.3205	0.18
Mof_O 	O 	0.4362	0.7143	0.6623	-0.584
Mof_O 	O 	0.5838	0.6023	0.6864	-0.608
Mof_O 	O 	0.7117	0.6019	0.3254	-0.263
Mof_O 	O 	0.6202	0.4549	0.1744	-0.639
Mof_O 	O 	0.6095	0.5789	0.0467	-0.624
Mof_O 	O 	0.3211	0.725	0.2674	-0.255
Mof_O 	O 	0.3745	0.7627	0.998	-0.624
Mof_O 	O 	0.4071	0.8714	0.1403	-0.556
Mof_O 	O 	0.8027	0.5034	0.7994	-0.451
Mof_O 	O 	0.8015	0.4783	0.973	-0.488
Mof_O 	O 	0.2021	0.4297	0.1359	-0.278
Mof_O 	O 	0.2579	0.2182	0.123	-0.48
Mof_O 	O 	0.4387	0.2546	0.1295	-0.647
Mof_O 	O 	0.1976	0.3943	0.7483	-0.277
Mof_O 	O 	0.2504	0.6089	0.7685	-0.508
Mof_O 	O 	0.4238	0.5689	0.8445	-0.661
Mof_O 	O 	0.236	0.8321	0.6503	-0.891
Mof_H 	H 	0.2282	0.8891	0.6864	0.291
Mof_H 	H 	0.1951	0.8369	0.588	0.382
Mof_Sm	Sm	0.62739	0.5543	0.86846	2.591
Mof_Sm	Sm	0.35887	0.77064	0.81305	2.482
Mof_C 	C 	0.4845	0.1598	0.4905	-0.03
Mof_C 	C 	0.3888	0.1258	0.53	-0.195
Mof_H 	H 	0.3259	0.1004	0.4838	0.096
Mof_C 	C 	0.3884	0.1305	0.6402	0.245
Mof_C 	C 	0.4829	0.1659	0.7106	-0.319
Mof_H 	H 	0.4811	0.1695	0.7844	0.143
Mof_C 	C 	0.5798	0.1956	0.6692	0.245
Mof_C 	C 	0.5806	0.1972	0.5586	-0.193
Mof_H 	H 	0.6434	0.2226	0.5304	0.1
Mof_C 	C 	0.487	0.159	0.3713	0.467
Mof_C 	C 	0.279	0.1202	0.7843	0.044
Mof_H 	H 	0.3025	0.194	0.8024	0.028
Mof_C 	C 	0.3578	0.0439	0.8589	0.417
Mof_C 	C 	0.1559	0.1082	0.7979	-0.424
Mof_H 	H 	0.1109	0.1599	0.7536	0.157
Mof_H 	H 	0.1481	0.1196	0.8721	0.134
Mof_H 	H 	0.1302	0.0374	0.7766	0.107
Mof_C 	C 	0.6922	0.2043	0.8441	0.039
Mof_H 	H 	0.661	0.1333	0.8549	0.007
Mof_C 	C 	0.6322	0.2851	0.9049	0.475
Mof_C 	C 	0.8189	0.2021	0.8841	-0.436
Mof_H 	H 	0.8545	0.1505	0.8434	0.153
Mof_H 	H 	0.8319	0.1827	0.9591	0.126
Mof_H 	H 	0.8506	0.2716	0.8753	0.154
Mof_C 	C 	0.0208	0.954	0.0909	0.078
Mof_C 	C 	0.9625	0.9513	0.9877	-0.241
Mof_H 	H 	0.0003	0.9651	0.9295	0.126
Mof_C 	C 	0.8467	0.928	0.9702	0.293
Mof_C 	C 	0.79	0.9093	0.0569	-0.324
Mof_H 	H 	0.7123	0.8951	0.046	0.148
Mof_C 	C 	0.852	0.9121	0.1623	0.31
Mof_C 	C 	0.9667	0.9339	0.1792	-0.238
Mof_H 	H 	0.0072	0.9352	0.2487	0.145
Mof_C 	C 	0.1449	0.981	0.1083	0.324
Mof_C 	C 	0.6868	0.9269	0.2488	0.268
Mof_H 	H 	0.6367	0.8797	0.2006	-0.046
Mof_C 	C 	0.6725	0.042	0.2087	0.249
Mof_C 	C 	0.6583	0.9192	0.3616	-0.715
Mof_H 	H 	0.6753	0.8484	0.3893	0.255
Mof_H 	H 	0.5788	0.9336	0.3602	0.244
Mof_H 	H 	0.7024	0.9705	0.4071	0.262
Mof_C 	C 	0.682	0.8999	0.8371	0.133
Mof_H 	H 	0.6342	0.9468	0.8739	-0.005
Mof_C 	C 	0.6619	0.7839	0.8643	0.342
Mof_C 	C 	0.6532	0.9143	0.7149	-0.556
Mof_H 	H 	0.6701	0.9864	0.6961	0.223
Mof_H 	H 	0.5739	0.9002	0.6924	0.18
Mof_H 	H 	0.6977	0.8654	0.6795	0.194
Mof_O 	O 	0.5638	0.2143	0.3377	-0.585
Mof_O 	O 	0.4162	0.1023	0.3136	-0.605
Mof_O 	O 	0.2883	0.1019	0.6746	-0.28
Mof_O 	O 	0.3798	0.9549	0.8256	-0.574
Mof_O 	O 	0.3905	0.0789	0.9533	-0.604
Mof_O 	O 	0.6789	0.225	0.7326	-0.263
Mof_O 	O 	0.6255	0.2627	0.002	-0.631
Mof_O 	O 	0.5929	0.3714	0.8597	-0.598
Mof_O 	O 	0.1973	0.0034	0.2006	-0.513
Mof_O 	O 	0.1985	0.9783	0.027	-0.46
Mof_O 	O 	0.7979	0.9297	0.8641	-0.266
Mof_O 	O 	0.7421	0.7182	0.877	-0.484
Mof_O 	O 	0.5613	0.7546	0.8705	-0.654
Mof_O 	O 	0.8024	0.8943	0.2517	-0.294
Mof_O 	O 	0.7496	0.1089	0.2315	-0.505
Mof_O 	O 	0.5762	0.0689	0.1555	-0.643
Mof_O 	O 	0.764	0.3321	0.3497	-0.885
Mof_H 	H 	0.7718	0.3891	0.3136	0.273
Mof_H 	H 	0.8049	0.3369	0.412	0.365
Mof_Sm	Sm	0.37261	0.0543	0.13154	2.452
Mof_Sm	Sm	0.64113	0.27064	0.18695	2.467
_end
