data_functionalizedCrystal
_audit_creation_method	'EQeq! by Chris Wilmer'
_symmetry_space_group_name_H-M	'P1'
_symmetry_Int_Tables_number	1
_symmetry_cell_setting	triclinic
loop_
_symmetry_equiv_pos_as_xyz
  x,y,z
_cell_length_a	8.457
_cell_length_b	9.69
_cell_length_c	17.225
_cell_angle_alpha	90
_cell_angle_beta	90
_cell_angle_gamma	112.22
loop_
_atom_site_label
_atom_site_type_symbol
_atom_site_fract_x
_atom_site_fract_y
_atom_site_fract_z
_atom_site_charge
Mof_Er	Er	0.34421	0.02392	0.25741	2.005
Mof_Er	Er	0.65579	0.47608	0.75741	2.012
Mof_Er	Er	0.34421	0.52392	0.24259	2.012
Mof_Er	Er	0.65579	0.97608	0.74259	2.005
Mof_H 	H 	0.852	0.152	0.321	0.107
Mof_H 	H 	0.6607	0.8319	0.5896	0.171
Mof_H 	H 	0.16	0.095	0.736	0.21
Mof_H 	H 	0.418	0.079	0.992	0.187
Mof_H 	H 	0.852	0.652	0.179	0.105
Mof_H 	H 	0.6607	0.3319	0.9104	0.172
Mof_H 	H 	0.582	0.921	0.008	0.188
Mof_H 	H 	0.418	0.579	0.508	0.18
Mof_H 	H 	0.148	0.348	0.821	0.105
Mof_H 	H 	0.3393	0.1681	0.4104	0.172
Mof_H 	H 	0.148	0.848	0.679	0.108
Mof_H 	H 	0.84	0.405	0.236	0.215
Mof_H 	H 	0.16	0.595	0.764	0.215
Mof_H 	H 	0.84	0.905	0.264	0.211
Mof_H 	H 	0.582	0.421	0.492	0.18
Mof_H 	H 	0.3393	0.6681	0.0896	0.172
Mof_C 	C 	0.8135	0.9614	0.2832	-0.355
Mof_C 	C 	0.1865	0.5386	0.7832	-0.362
Mof_C 	C 	0.629	0.867	0.2862	0.568
Mof_C 	C 	0.371	0.133	0.7138	0.568
Mof_C 	C 	0.1865	0.0386	0.7168	-0.355
Mof_C 	C 	0.4057	0.0258	0.0984	0.36
Mof_C 	C 	0.4438	0.5281	0.4854	-0.218
Mof_C 	C 	0.124	0.8972	0.6994	-0.118
Mof_C 	C 	0.0626	0.1986	0.2893	0.466
Mof_C 	C 	0.5562	0.9719	0.9854	-0.226
Mof_C 	C 	0.4438	0.0281	0.0146	-0.226
Mof_C 	C 	0.5562	0.4719	0.5146	-0.218
Mof_C 	C 	0.124	0.3972	0.8006	-0.114
Mof_C 	C 	0.876	0.6028	0.1994	-0.114
Mof_C 	C 	0.9374	0.3014	0.7893	0.468
Mof_C 	C 	0.0626	0.6986	0.2107	0.468
Mof_C 	C 	0.9374	0.8014	0.7107	0.466
Mof_C 	C 	0.629	0.367	0.2138	0.57
Mof_C 	C 	0.876	0.1028	0.3006	-0.118
Mof_C 	C 	0.5943	0.9742	0.9016	0.36
Mof_C 	C 	0.5943	0.4742	0.5984	0.362
Mof_C 	C 	0.371	0.633	0.7862	0.57
Mof_C 	C 	0.8135	0.4614	0.2168	-0.362
Mof_C 	C 	0.4057	0.5258	0.4016	0.362
Mof_O 	O 	0.1656	0.6388	0.23	-0.575
Mof_O 	O 	0.5883	0.732	0.2688	-0.518
Mof_O 	O 	0.4641	0.9546	0.1453	-0.406
Mof_O 	O 	0.1051	0.3362	0.2965	-0.508
Mof_O 	O 	0.4641	0.4546	0.3547	-0.411
Mof_O 	O 	0.429	0.6625	0.1219	-0.418
Mof_O 	O 	0.8949	0.6638	0.7035	-0.508
Mof_O 	O 	0.8949	0.1638	0.7965	-0.504
Mof_O 	O 	0.4749	0.0761	0.6947	-0.555
Mof_O 	O 	0.3123	0.5916	0.3778	-0.401
Mof_O 	O 	0.4117	0.768	0.7688	-0.519
Mof_O 	O 	0.4749	0.5761	0.8053	-0.558
Mof_O 	O 	0.1656	0.1388	0.27	-0.575
Mof_O 	O 	0.571	0.8375	0.6219	-0.417
Mof_O 	O 	0.3123	0.0916	0.1222	-0.402
Mof_O 	O 	0.8344	0.8612	0.73	-0.575
Mof_O 	O 	0.571	0.3375	0.8781	-0.418
Mof_O 	O 	0.5883	0.232	0.2312	-0.519
Mof_O 	O 	0.5251	0.4239	0.1947	-0.558
Mof_O 	O 	0.429	0.1625	0.3781	-0.417
Mof_O 	O 	0.5251	0.9239	0.3053	-0.555
Mof_O 	O 	0.6877	0.4084	0.6222	-0.401
Mof_O 	O 	0.6877	0.9084	0.8778	-0.402
Mof_O 	O 	0.1051	0.8362	0.2035	-0.504
Mof_O 	O 	0.5359	0.5454	0.6453	-0.411
Mof_O 	O 	0.8344	0.3612	0.77	-0.575
Mof_O 	O 	0.5359	0.0454	0.8547	-0.406
Mof_O 	O 	0.4117	0.268	0.7312	-0.518
_end
