data_functionalizedCrystal
_audit_creation_method	'EQeq! by Chris Wilmer'
_symmetry_space_group_name_H-M	'P1'
_symmetry_Int_Tables_number	1
_symmetry_cell_setting	triclinic
loop_
_symmetry_equiv_pos_as_xyz
  x,y,z
_cell_length_a	11.6284
_cell_length_b	16.3148
_cell_length_c	17.8861
_cell_angle_alpha	90
_cell_angle_beta	90
_cell_angle_gamma	90
loop_
_atom_site_label
_atom_site_type_symbol
_atom_site_fract_x
_atom_site_fract_y
_atom_site_fract_z
_atom_site_charge
Mof_Mn	Mn	0.5	0.11042	0.18173	0.674
Mof_Mn	Mn	0.5	0.88958	0.81827	0.69
Mof_Mn	Mn	0.5	0.38958	0.68173	0.682
Mof_Mn	Mn	0.5	0.61042	0.31827	0.683
Mof_Mn	Mn	0.5	0.5	-0	0.617
Mof_Mn	Mn	0.5	0	0.5	0.617
Mof_Fe	Fe	0.5	0.19794	0.90044	0.67
Mof_Fe	Fe	0.5	0.80206	0.09956	0.655
Mof_Fe	Fe	0.5	0.30206	0.40044	0.662
Mof_Fe	Fe	0.5	0.69794	0.59956	0.662
Mof_H 	H 	0.284	0.1721	0.2761	-0.007
Mof_H 	H 	0.0886	0.1679	0.2824	0.079
Mof_H 	H 	0.2859	0.0412	0.0955	-0.007
Mof_H 	H 	0.0897	0.0336	0.0955	0.076
Mof_H 	H 	0.7155	0.4253	0.9176	-0.015
Mof_H 	H 	0.911	0.4236	0.9147	0.079
Mof_H 	H 	0.284	0.8279	0.7239	-0.007
Mof_H 	H 	0.0886	0.8321	0.7176	0.08
Mof_H 	H 	0.2859	0.9588	0.9045	0.001
Mof_H 	H 	0.0897	0.9664	0.9045	0.084
Mof_H 	H 	0.7155	0.5747	0.0824	-0.014
Mof_H 	H 	0.911	0.5764	0.0853	0.08
Mof_H 	H 	0.716	0.3279	0.7761	-0.007
Mof_H 	H 	0.9114	0.3321	0.7824	0.08
Mof_H 	H 	0.7141	0.4588	0.5955	-0.003
Mof_H 	H 	0.9103	0.4664	0.5955	0.08
Mof_H 	H 	0.2845	0.0747	0.4176	-0.014
Mof_H 	H 	0.089	0.0764	0.4147	0.08
Mof_H 	H 	0.716	0.6721	0.2239	-0.007
Mof_H 	H 	0.9114	0.6679	0.2176	0.08
Mof_H 	H 	0.7141	0.5412	0.4045	-0.003
Mof_H 	H 	0.9103	0.5336	0.4045	0.08
Mof_H 	H 	0.2845	0.9253	0.5824	-0.015
Mof_H 	H 	0.089	0.9236	0.5853	0.079
Mof_H 	H 	0.716	0.8279	0.7239	-0.007
Mof_H 	H 	0.9114	0.8321	0.7176	0.08
Mof_H 	H 	0.7141	0.9588	0.9045	0.001
Mof_H 	H 	0.9103	0.9664	0.9045	0.084
Mof_H 	H 	0.2845	0.5747	0.0824	-0.014
Mof_H 	H 	0.089	0.5764	0.0853	0.08
Mof_H 	H 	0.716	0.1721	0.2761	-0.007
Mof_H 	H 	0.9114	0.1679	0.2824	0.079
Mof_H 	H 	0.7141	0.0412	0.0955	-0.007
Mof_H 	H 	0.9103	0.0336	0.0955	0.076
Mof_H 	H 	0.2845	0.4253	0.9176	-0.015
Mof_H 	H 	0.089	0.4236	0.9147	0.079
Mof_H 	H 	0.284	0.6721	0.2239	-0.007
Mof_H 	H 	0.0886	0.6679	0.2176	0.08
Mof_H 	H 	0.2859	0.5412	0.4045	-0.003
Mof_H 	H 	0.0897	0.5336	0.4045	0.08
Mof_H 	H 	0.7155	0.9253	0.5824	-0.015
Mof_H 	H 	0.911	0.9236	0.5853	0.079
Mof_H 	H 	0.284	0.3279	0.7761	-0.007
Mof_H 	H 	0.0886	0.3321	0.7824	0.08
Mof_H 	H 	0.2859	0.4588	0.5955	-0.003
Mof_H 	H 	0.0897	0.4664	0.5955	0.08
Mof_H 	H 	0.7155	0.0747	0.4176	-0.014
Mof_H 	H 	0.911	0.0764	0.4147	0.08
Mof_C 	C 	0.669	0.1973	0.9016	-0.099
Mof_C 	C 	0.2442	0.1439	0.2391	0.086
Mof_C 	C 	0.1265	0.1418	0.2433	-0.144
Mof_C 	C 	0.2455	0.0675	0.1334	0.087
Mof_C 	C 	0.1271	0.0625	0.1331	-0.141
Mof_C 	C 	0.0641	0.1006	0.1888	0.059
Mof_C 	C 	0.7551	0.4569	0.9523	0.106
Mof_C 	C 	0.8735	0.4554	0.9503	-0.14
Mof_C 	C 	0.669	0.8027	0.0984	-0.1
Mof_C 	C 	0.2442	0.8561	0.7609	0.089
Mof_C 	C 	0.1265	0.8582	0.7567	-0.144
Mof_C 	C 	0.2455	0.9325	0.8666	0.091
Mof_C 	C 	0.1271	0.9375	0.8669	-0.139
Mof_C 	C 	0.0641	0.8994	0.8112	0.062
Mof_C 	C 	0.7551	0.5431	0.0477	0.094
Mof_C 	C 	0.8735	0.5446	0.0497	-0.15
Mof_C 	C 	0.331	0.3027	0.4016	-0.1
Mof_C 	C 	0.7558	0.3561	0.7391	0.087
Mof_C 	C 	0.8735	0.3582	0.7433	-0.144
Mof_C 	C 	0.7545	0.4325	0.6334	0.089
Mof_C 	C 	0.8729	0.4375	0.6331	-0.14
Mof_C 	C 	0.9359	0.3994	0.6888	0.06
Mof_C 	C 	0.2449	0.0431	0.4523	0.094
Mof_C 	C 	0.1265	0.0446	0.4503	-0.15
Mof_C 	C 	0.331	0.6973	0.5984	-0.099
Mof_C 	C 	0.7558	0.6439	0.2609	0.088
Mof_C 	C 	0.8735	0.6418	0.2567	-0.144
Mof_C 	C 	0.7545	0.5675	0.3666	0.089
Mof_C 	C 	0.8729	0.5625	0.3669	-0.14
Mof_C 	C 	0.9359	0.6006	0.3112	0.061
Mof_C 	C 	0.2449	0.9569	0.5477	0.107
Mof_C 	C 	0.1265	0.9554	0.5497	-0.139
Mof_C 	C 	0.331	0.8027	0.0984	-0.1
Mof_C 	C 	0.7558	0.8561	0.7609	0.089
Mof_C 	C 	0.8735	0.8582	0.7567	-0.144
Mof_C 	C 	0.7545	0.9325	0.8666	0.091
Mof_C 	C 	0.8729	0.9375	0.8669	-0.139
Mof_C 	C 	0.9359	0.8994	0.8112	0.062
Mof_C 	C 	0.2449	0.5431	0.0477	0.094
Mof_C 	C 	0.1265	0.5446	0.0497	-0.15
Mof_C 	C 	0.331	0.1973	0.9016	-0.099
Mof_C 	C 	0.7558	0.1439	0.2391	0.086
Mof_C 	C 	0.8735	0.1418	0.2433	-0.144
Mof_C 	C 	0.7545	0.0675	0.1334	0.087
Mof_C 	C 	0.8729	0.0625	0.1331	-0.141
Mof_C 	C 	0.9359	0.1006	0.1888	0.059
Mof_C 	C 	0.2449	0.4569	0.9523	0.106
Mof_C 	C 	0.1265	0.4554	0.9503	-0.14
Mof_C 	C 	0.669	0.6973	0.5984	-0.099
Mof_C 	C 	0.2442	0.6439	0.2609	0.088
Mof_C 	C 	0.1265	0.6418	0.2567	-0.144
Mof_C 	C 	0.2455	0.5675	0.3666	0.089
Mof_C 	C 	0.1271	0.5625	0.3669	-0.14
Mof_C 	C 	0.0641	0.6006	0.3112	0.061
Mof_C 	C 	0.7551	0.9569	0.5477	0.107
Mof_C 	C 	0.8735	0.9554	0.5497	-0.139
Mof_C 	C 	0.669	0.3027	0.4016	-0.1
Mof_C 	C 	0.2442	0.3561	0.7391	0.087
Mof_C 	C 	0.1265	0.3582	0.7433	-0.144
Mof_C 	C 	0.2455	0.4325	0.6334	0.089
Mof_C 	C 	0.1271	0.4375	0.6331	-0.14
Mof_C 	C 	0.0641	0.3994	0.6888	0.06
Mof_C 	C 	0.7551	0.0431	0.4523	0.094
Mof_C 	C 	0.8735	0.0446	0.4503	-0.15
Mof_C 	C 	0.5	0.1644	0.0038	-0.103
Mof_C 	C 	0.5	0.3103	0.9337	-0.097
Mof_C 	C 	0.5	0.2384	0.7981	-0.103
Mof_C 	C 	0.5	0.0856	0.8674	-0.093
Mof_C 	C 	0.5	0.8356	0.9962	-0.075
Mof_C 	C 	0.5	0.6897	0.0663	-0.102
Mof_C 	C 	0.5	0.7616	0.2019	-0.097
Mof_C 	C 	0.5	0.9144	0.1326	-0.09
Mof_C 	C 	0.5	0.3356	0.5038	-0.089
Mof_C 	C 	0.5	0.1897	0.4337	-0.1
Mof_C 	C 	0.5	0.2616	0.2981	-0.101
Mof_C 	C 	0.5	0.4144	0.3674	-0.092
Mof_C 	C 	0.5	0.6644	0.4962	-0.088
Mof_C 	C 	0.5	0.8103	0.5663	-0.099
Mof_C 	C 	0.5	0.7384	0.7019	-0.099
Mof_C 	C 	0.5	0.5856	0.6326	-0.091
Mof_C 	C 	0.9359	0.5	-0	0.057
Mof_C 	C 	0.0641	0	0.5	0.057
Mof_C 	C 	0.0641	0.5	-0	0.057
Mof_C 	C 	0.9359	0	0.5	0.057
Mof_N 	N 	0.7682	0.1978	0.9023	-0.079
Mof_N 	N 	0.305	0.10792	0.1853	-0.198
Mof_N 	N 	0.7682	0.8022	0.0977	-0.08
Mof_N 	N 	0.305	0.89208	0.8147	-0.196
Mof_N 	N 	0.2318	0.3022	0.4023	-0.08
Mof_N 	N 	0.695	0.39208	0.6853	-0.197
Mof_N 	N 	0.2318	0.6978	0.5977	-0.079
Mof_N 	N 	0.695	0.60792	0.3147	-0.197
Mof_N 	N 	0.2318	0.8022	0.0977	-0.08
Mof_N 	N 	0.695	0.89208	0.8147	-0.196
Mof_N 	N 	0.2318	0.1978	0.9023	-0.079
Mof_N 	N 	0.695	0.10792	0.1853	-0.198
Mof_N 	N 	0.7682	0.6978	0.5977	-0.079
Mof_N 	N 	0.305	0.60792	0.3147	-0.197
Mof_N 	N 	0.7682	0.3022	0.4023	-0.08
Mof_N 	N 	0.305	0.39208	0.6853	-0.197
Mof_N 	N 	0.5	0.1485	0.0662	-0.15
Mof_N 	N 	0.5	0.3783	0.95	-0.154
Mof_N 	N 	0.5	0.2706	0.7406	-0.151
Mof_N 	N 	0.5	0.0191	0.8486	-0.159
Mof_N 	N 	0.5	0.8515	0.9338	-0.152
Mof_N 	N 	0.5	0.6217	0.05	-0.159
Mof_N 	N 	0.5	0.7294	0.2594	-0.151
Mof_N 	N 	0.5	0.9809	0.1514	-0.148
Mof_N 	N 	0.5	0.3515	0.5662	-0.151
Mof_N 	N 	0.5	0.1217	0.45	-0.159
Mof_N 	N 	0.5	0.2294	0.2406	-0.152
Mof_N 	N 	0.5	0.4809	0.3486	-0.154
Mof_N 	N 	0.5	0.6485	0.4338	-0.151
Mof_N 	N 	0.5	0.8783	0.55	-0.155
Mof_N 	N 	0.5	0.7706	0.7594	-0.151
Mof_N 	N 	0.5	0.5191	0.6514	-0.154
Mof_N 	N 	0.6948	0.5	-0	-0.212
Mof_N 	N 	0.3052	0	0.5	-0.212
Mof_N 	N 	0.3052	0.5	-0	-0.212
Mof_N 	N 	0.6948	0	0.5	-0.212
_end
