data_functionalizedCrystal
_audit_creation_method	'EQeq! by Chris Wilmer'
_symmetry_space_group_name_H-M	'P1'
_symmetry_Int_Tables_number	1
_symmetry_cell_setting	triclinic
loop_
_symmetry_equiv_pos_as_xyz
  x,y,z
_cell_length_a	17.9054
_cell_length_b	17.9054
_cell_length_c	10.7305
_cell_angle_alpha	90
_cell_angle_beta	90
_cell_angle_gamma	90
loop_
_atom_site_label
_atom_site_type_symbol
_atom_site_fract_x
_atom_site_fract_y
_atom_site_fract_z
_atom_site_charge
Mof_O 	O 	0.5739	0.0562	0.4067	-0.447
Mof_O 	O 	0.5968	0.0726	0.2081	-0.496
Mof_C 	C 	0.6145	0.0825	0.3228	0.325
Mof_C 	C 	0.6844	0.128	0.3527	-0.092
Mof_C 	C 	0.679	0.1726	0.4715	0.032
Mof_C 	C 	0.7122	0.1752	0.244	0.029
Mof_C 	C 	0.7525	0.0746	0.3365	0.048
Mof_C 	C 	0.7666	0.0534	0.2004	-0.029
Mof_O 	O 	0.0739	0.5562	0.9067	-0.444
Mof_O 	O 	0.0968	0.5726	0.7081	-0.502
Mof_C 	C 	0.1145	0.5825	0.8228	0.318
Mof_C 	C 	0.1844	0.628	0.8527	-0.083
Mof_C 	C 	0.179	0.6726	0.9715	0.044
Mof_C 	C 	0.2122	0.6752	0.744	0.028
Mof_C 	C 	0.2525	0.5746	0.8365	-0.172
Mof_C 	C 	0.2666	0.5534	0.7004	0.062
Mof_O 	O 	0.4261	0.9438	0.4067	-0.344
Mof_O 	O 	0.4032	0.9274	0.2081	-0.414
Mof_C 	C 	0.3855	0.9175	0.3228	0.302
Mof_C 	C 	0.3156	0.872	0.3527	-0.064
Mof_C 	C 	0.321	0.8274	0.4715	0.037
Mof_C 	C 	0.2878	0.8248	0.244	0.025
Mof_C 	C 	0.2475	0.9254	0.3365	0.026
Mof_C 	C 	0.2334	0.9466	0.2004	0.044
Mof_O 	O 	0.9261	0.4438	0.9067	-0.331
Mof_O 	O 	0.9032	0.4274	0.7081	-0.402
Mof_C 	C 	0.8855	0.4175	0.8228	0.313
Mof_C 	C 	0.8156	0.372	0.8527	-0.076
Mof_C 	C 	0.821	0.3274	0.9715	0.096
Mof_C 	C 	0.7878	0.3248	0.744	0.063
Mof_C 	C 	0.7475	0.4254	0.8365	-0.17
Mof_C 	C 	0.7334	0.4466	0.7004	0.071
Mof_O 	O 	0.0562	0.4261	0.5933	-0.454
Mof_O 	O 	0.0726	0.4032	0.7919	-0.489
Mof_C 	C 	0.0825	0.3855	0.6772	0.323
Mof_C 	C 	0.128	0.3156	0.6473	-0.092
Mof_C 	C 	0.1726	0.321	0.5285	0.024
Mof_C 	C 	0.1752	0.2878	0.756	0.035
Mof_C 	C 	0.0746	0.2475	0.6635	0.026
Mof_C 	C 	0.0534	0.2334	0.7996	-0.025
Mof_O 	O 	0.5562	0.9261	0.0933	-0.353
Mof_O 	O 	0.5726	0.9032	0.2919	-0.4
Mof_C 	C 	0.5825	0.8855	0.1772	0.31
Mof_C 	C 	0.628	0.8156	0.1473	-0.077
Mof_C 	C 	0.6726	0.821	0.0285	0.03
Mof_C 	C 	0.6752	0.7878	0.256	0.048
Mof_C 	C 	0.5746	0.7475	0.1635	0.21
Mof_C 	C 	0.5534	0.7334	0.2996	-0.021
Mof_O 	O 	0.9438	0.5739	0.5933	-0.349
Mof_O 	O 	0.9274	0.5968	0.7919	-0.403
Mof_C 	C 	0.9175	0.6145	0.6772	0.301
Mof_C 	C 	0.872	0.6844	0.6473	-0.063
Mof_C 	C 	0.8274	0.679	0.5285	0.033
Mof_C 	C 	0.8248	0.7122	0.756	0.043
Mof_C 	C 	0.9254	0.7525	0.6635	-0.036
Mof_C 	C 	0.9466	0.7666	0.7996	0.106
Mof_O 	O 	0.4438	0.0739	0.0933	-0.467
Mof_O 	O 	0.4274	0.0968	0.2919	-0.5
Mof_C 	C 	0.4175	0.1145	0.1772	0.311
Mof_C 	C 	0.372	0.1844	0.1473	-0.078
Mof_C 	C 	0.3274	0.179	0.0285	-0.042
Mof_C 	C 	0.3248	0.2122	0.256	-0.005
Mof_C 	C 	0.4254	0.2525	0.1635	0.205
Mof_C 	C 	0.4466	0.2666	0.2996	-0.027
Mof_O 	O 	0.9261	0.0562	0.3433	-0.346
Mof_O 	O 	0.9032	0.0726	0.5419	-0.375
Mof_C 	C 	0.8855	0.0825	0.4272	0.313
Mof_C 	C 	0.8156	0.128	0.3973	-0.087
Mof_C 	C 	0.821	0.1726	0.2785	0.049
Mof_C 	C 	0.7878	0.1752	0.506	0.055
Mof_C 	C 	0.7475	0.0746	0.4135	0.022
Mof_C 	C 	0.7334	0.0534	0.5496	-0.012
Mof_O 	O 	0.4261	0.5562	0.8433	-0.441
Mof_O 	O 	0.4032	0.5726	0.0419	-0.54
Mof_C 	C 	0.3855	0.5825	0.9272	0.371
Mof_C 	C 	0.3156	0.628	0.8973	-0.06
Mof_C 	C 	0.321	0.6726	0.7785	0.047
Mof_C 	C 	0.2878	0.6752	0.006	-0.028
Mof_C 	C 	0.2475	0.5746	0.9135	0.232
Mof_C 	C 	0.2334	0.5534	0.0496	-0.091
Mof_O 	O 	0.0739	0.9438	0.3433	-0.354
Mof_O 	O 	0.0968	0.9274	0.5419	-0.391
Mof_C 	C 	0.1145	0.9175	0.4272	0.294
Mof_C 	C 	0.1844	0.872	0.3973	-0.063
Mof_C 	C 	0.179	0.8274	0.2785	-0.005
Mof_C 	C 	0.2122	0.8248	0.506	0.013
Mof_C 	C 	0.2525	0.9254	0.4135	-0.029
Mof_C 	C 	0.2666	0.9466	0.5496	0.084
Mof_O 	O 	0.5739	0.4438	0.8433	-0.442
Mof_O 	O 	0.5968	0.4274	0.0419	-0.539
Mof_C 	C 	0.6145	0.4175	0.9272	0.369
Mof_C 	C 	0.6844	0.372	0.8973	-0.056
Mof_C 	C 	0.679	0.3274	0.7785	0.037
Mof_C 	C 	0.7122	0.3248	0.006	-0.033
Mof_C 	C 	0.7525	0.4254	0.9135	0.216
Mof_C 	C 	0.7666	0.4466	0.0496	-0.062
Mof_O 	O 	0.4438	0.4261	0.1567	-0.427
Mof_O 	O 	0.4274	0.4032	0.9581	-0.45
Mof_C 	C 	0.4175	0.3855	0.0728	0.266
Mof_C 	C 	0.372	0.3156	0.1027	-0.099
Mof_C 	C 	0.3274	0.321	0.2215	0.014
Mof_C 	C 	0.3248	0.2878	0.994	0.092
Mof_C 	C 	0.4254	0.2475	0.0865	-0.182
Mof_C 	C 	0.4466	0.2334	0.9504	0.105
Mof_O 	O 	0.9438	0.9261	0.6567	-0.235
Mof_O 	O 	0.9274	0.9032	0.4581	-0.299
Mof_C 	C 	0.9175	0.8855	0.5728	0.293
Mof_C 	C 	0.872	0.8156	0.6027	-0.063
Mof_C 	C 	0.8274	0.821	0.7215	0.076
Mof_C 	C 	0.8248	0.7878	0.494	0.054
Mof_C 	C 	0.9254	0.7475	0.5865	0.021
Mof_C 	C 	0.9466	0.7334	0.4504	0.065
Mof_O 	O 	0.5562	0.5739	0.1567	-0.426
Mof_O 	O 	0.5726	0.5968	0.9581	-0.448
Mof_C 	C 	0.5825	0.6145	0.0728	0.267
Mof_C 	C 	0.628	0.6844	0.1027	-0.102
Mof_C 	C 	0.6726	0.679	0.2215	0.027
Mof_C 	C 	0.6752	0.7122	0.994	0.105
Mof_C 	C 	0.5746	0.7525	0.0865	-0.198
Mof_C 	C 	0.5534	0.7666	0.9504	0.133
Mof_O 	O 	0.0562	0.0739	0.6567	-0.45
Mof_O 	O 	0.0726	0.0968	0.4581	-0.482
Mof_C 	C 	0.0825	0.1145	0.5728	0.317
Mof_C 	C 	0.128	0.1844	0.6027	-0.096
Mof_C 	C 	0.1726	0.179	0.7215	0.007
Mof_C 	C 	0.1752	0.2122	0.494	0.008
Mof_C 	C 	0.0746	0.2525	0.5865	0.055
Mof_C 	C 	0.0534	0.2666	0.4504	-0.043
Mof_In	In	0.5	0	0.25	2.039
Mof_In	In	-5.65251e-33	0.5	0.75	2.047
Mof_In	In	1.12349e-33	0	0.5	1.58
Mof_In	In	0.5	0.5	-0	2.354
Mof_C 	C 	0.75	0.006	0.375	-0.074
Mof_C 	C 	0.25	0.506	0.875	0.007
Mof_C 	C 	0.25	0.994	0.375	0.081
Mof_C 	C 	0.75	0.494	0.875	0.019
Mof_C 	C 	0.006	0.25	0.625	-0.083
Mof_C 	C 	0.994	0.75	0.625	0.089
Mof_C 	C 	0.494	0.25	0.125	-0.02
Mof_C 	C 	0.506	0.75	0.125	-0.013
_end
