data_functionalizedCrystal
_audit_creation_method	'EQeq! by Chris Wilmer'
_symmetry_space_group_name_H-M	'P1'
_symmetry_Int_Tables_number	1
_symmetry_cell_setting	triclinic
loop_
_symmetry_equiv_pos_as_xyz
  x,y,z
_cell_length_a	29.2582
_cell_length_b	29.2582
_cell_length_c	29.2582
_cell_angle_alpha	90
_cell_angle_beta	90
_cell_angle_gamma	90
loop_
_atom_site_label
_atom_site_type_symbol
_atom_site_fract_x
_atom_site_fract_y
_atom_site_fract_z
_atom_site_charge
Mof_N 	N 	0.23073	0.3861	0.03823	-0.284
Mof_N 	N 	0.19408	0.38172	0.14001	-0.293
Mof_C 	C 	0.2011	0.35506	0.02312	0.043
Mof_H 	H 	0.1826	0.3357	0.0421	-0.011
Mof_H 	H 	0.2843	0.4596	0.0266	0.063
Mof_H 	H 	0.3385	0.3993	0.0268	0.002
Mof_C 	C 	0.14928	0.38964	0.11643	-0.036
Mof_H 	H 	0.1447	0.3936	0.0842	0.007
Mof_H 	H 	0.2079	0.3883	0.2456	0.09
Mof_C 	C 	0.1835	0.38499	0.02336	-0.091
Mof_H 	H 	0.1571	0.3843	0.0428	0.029
Mof_H 	H 	0.3166	0.3728	0.9735	0.08
Mof_H 	H 	0.3131	0.4533	0.9732	0.047
Mof_H 	H 	0.1997	0.3092	0.2376	0.07
Mof_C 	C 	0.16629	0.34291	0.13304	-0.004
Mof_H 	H 	0.17	0.3205	0.1093	0.003
Mof_H 	H 	0.1842	0.4517	0.2218	0.177
Mof_H 	H 	0.2284	0.3971	0.2572	-0.093
Mof_O 	O 	0.24	0.477	0.282	0.475
Mof_H 	H 	0.2562	0.4534	0.2794	-0.108
Mof_H 	H 	0.2366	0.4788	0.2175	-0.387
Mof_H 	H 	0.2636	0.5135	0.2333	-0.725
Mof_N 	N 	0.73073	0.8861	0.53823	-0.29
Mof_N 	N 	0.69408	0.88172	0.64001	-0.294
Mof_C 	C 	0.7011	0.85506	0.52312	0.064
Mof_H 	H 	0.6826	0.8357	0.5421	-0.012
Mof_H 	H 	0.7843	0.9596	0.5266	0.062
Mof_H 	H 	0.8385	0.8993	0.5268	0.004
Mof_C 	C 	0.64928	0.88964	0.61643	-0.035
Mof_H 	H 	0.6447	0.8936	0.5842	0.012
Mof_H 	H 	0.7079	0.8883	0.7456	0.092
Mof_C 	C 	0.6835	0.88499	0.52336	-0.068
Mof_H 	H 	0.6571	0.8843	0.5428	0.028
Mof_H 	H 	0.8166	0.8728	0.4735	0.056
Mof_H 	H 	0.8131	0.9533	0.4732	0.036
Mof_H 	H 	0.6997	0.8092	0.7376	0.083
Mof_C 	C 	0.66629	0.84291	0.63304	-0.004
Mof_H 	H 	0.67	0.8205	0.6093	0.007
Mof_H 	H 	0.6842	0.9517	0.7218	0.185
Mof_H 	H 	0.7284	0.8971	0.7572	-0.102
Mof_O 	O 	0.74	0.977	0.782	0.554
Mof_H 	H 	0.7562	0.9534	0.7794	-0.127
Mof_H 	H 	0.7366	0.9788	0.7175	-0.37
Mof_H 	H 	0.7636	0.0135	0.7333	-0.752
Mof_N 	N 	0.76927	0.6139	0.03823	-0.283
Mof_N 	N 	0.80592	0.61828	0.14001	-0.292
Mof_C 	C 	0.7989	0.64494	0.02312	0.044
Mof_H 	H 	0.8174	0.6643	0.0421	-0.008
Mof_H 	H 	0.7157	0.5404	0.0266	0.064
Mof_H 	H 	0.6615	0.6007	0.0268	0.003
Mof_C 	C 	0.85072	0.61036	0.11643	-0.033
Mof_H 	H 	0.8553	0.6064	0.0842	0.01
Mof_H 	H 	0.7921	0.6117	0.2456	0.091
Mof_C 	C 	0.8165	0.61501	0.02336	-0.09
Mof_H 	H 	0.8429	0.6157	0.0428	0.032
Mof_H 	H 	0.6834	0.6272	0.9735	0.082
Mof_H 	H 	0.6869	0.5467	0.9732	0.048
Mof_H 	H 	0.8003	0.6908	0.2376	0.073
Mof_C 	C 	0.83371	0.65709	0.13304	-0.003
Mof_H 	H 	0.83	0.6795	0.1093	0.007
Mof_H 	H 	0.8158	0.5483	0.2218	0.178
Mof_H 	H 	0.7716	0.6029	0.2572	-0.092
Mof_O 	O 	0.76	0.523	0.282	0.476
Mof_H 	H 	0.7438	0.5466	0.2794	-0.107
Mof_H 	H 	0.7634	0.5212	0.2175	-0.386
Mof_H 	H 	0.7364	0.4865	0.2333	-0.724
Mof_N 	N 	0.26927	0.1139	0.53823	-0.288
Mof_N 	N 	0.30592	0.11828	0.64001	-0.292
Mof_C 	C 	0.2989	0.14494	0.52312	0.067
Mof_H 	H 	0.3174	0.1643	0.5421	-0.012
Mof_H 	H 	0.2157	0.0404	0.5266	0.053
Mof_H 	H 	0.1615	0.1007	0.5268	0.001
Mof_C 	C 	0.35072	0.11036	0.61643	-0.035
Mof_H 	H 	0.3553	0.1064	0.5842	0.011
Mof_H 	H 	0.2921	0.1117	0.7456	0.092
Mof_C 	C 	0.3165	0.11501	0.52336	-0.07
Mof_H 	H 	0.3429	0.1157	0.5428	0.027
Mof_H 	H 	0.1834	0.1272	0.4735	0.058
Mof_H 	H 	0.1869	0.0467	0.4732	0.026
Mof_H 	H 	0.3003	0.1908	0.7376	0.084
Mof_C 	C 	0.33371	0.15709	0.63304	-0.003
Mof_H 	H 	0.33	0.1795	0.6093	0.007
Mof_H 	H 	0.3158	0.0483	0.7218	0.177
Mof_H 	H 	0.2716	0.1029	0.7572	-0.104
Mof_O 	O 	0.26	0.023	0.782	0.521
Mof_H 	H 	0.2438	0.0466	0.7794	-0.12
Mof_H 	H 	0.2634	0.0212	0.7175	-0.379
Mof_H 	H 	0.2364	0.9865	0.7333	-0.74
Mof_N 	N 	0.76927	0.3861	0.96177	-0.284
Mof_N 	N 	0.80592	0.38172	0.85999	-0.292
Mof_C 	C 	0.7989	0.35506	0.97688	0.084
Mof_H 	H 	0.8174	0.3357	0.9579	-0.015
Mof_H 	H 	0.7157	0.4596	0.9734	0.077
Mof_H 	H 	0.6615	0.3993	0.9732	0.018
Mof_C 	C 	0.85072	0.38964	0.88357	-0.034
Mof_H 	H 	0.8553	0.3936	0.9158	0.015
Mof_H 	H 	0.7921	0.3883	0.7544	0.09
Mof_C 	C 	0.8165	0.38499	0.97664	-0.043
Mof_H 	H 	0.8429	0.3843	0.9572	0.024
Mof_H 	H 	0.6834	0.3728	0.0265	0.067
Mof_H 	H 	0.6869	0.4533	0.0268	0.035
Mof_H 	H 	0.8003	0.3092	0.7624	0.074
Mof_C 	C 	0.83371	0.34291	0.86696	-0.002
Mof_H 	H 	0.83	0.3205	0.8907	0.009
Mof_H 	H 	0.8158	0.4517	0.7782	0.178
Mof_H 	H 	0.7716	0.3971	0.7428	-0.092
Mof_O 	O 	0.76	0.477	0.718	0.476
Mof_H 	H 	0.7438	0.4534	0.7206	-0.107
Mof_H 	H 	0.7634	0.4788	0.7825	-0.386
Mof_H 	H 	0.7364	0.5135	0.7667	-0.724
Mof_N 	N 	0.26927	0.8861	0.46177	-0.289
Mof_N 	N 	0.30592	0.88172	0.35999	-0.293
Mof_C 	C 	0.2989	0.85506	0.47688	0.065
Mof_H 	H 	0.3174	0.8357	0.4579	-0.011
Mof_H 	H 	0.2157	0.9596	0.4734	0.065
Mof_H 	H 	0.1615	0.8993	0.4732	0.002
Mof_C 	C 	0.35072	0.88964	0.38357	-0.035
Mof_H 	H 	0.3553	0.8936	0.4158	0.012
Mof_H 	H 	0.2921	0.8883	0.2544	0.093
Mof_C 	C 	0.3165	0.88499	0.47664	-0.068
Mof_H 	H 	0.3429	0.8843	0.4572	0.028
Mof_H 	H 	0.1834	0.8728	0.5265	0.057
Mof_H 	H 	0.1869	0.9533	0.5268	0.034
Mof_H 	H 	0.3003	0.8092	0.2624	0.084
Mof_C 	C 	0.33371	0.84291	0.36696	-0.004
Mof_H 	H 	0.33	0.8205	0.3907	0.007
Mof_H 	H 	0.3158	0.9517	0.2782	0.185
Mof_H 	H 	0.2716	0.8971	0.2428	-0.104
Mof_O 	O 	0.26	0.977	0.218	0.554
Mof_H 	H 	0.2438	0.9534	0.2206	-0.13
Mof_H 	H 	0.2634	0.9788	0.2825	-0.369
Mof_H 	H 	0.2364	0.0135	0.2667	-0.751
Mof_N 	N 	0.23073	0.6139	0.96177	-0.284
Mof_N 	N 	0.19408	0.61828	0.85999	-0.292
Mof_C 	C 	0.2011	0.64494	0.97688	0.084
Mof_H 	H 	0.1826	0.6643	0.9579	-0.016
Mof_H 	H 	0.2843	0.5404	0.9734	0.077
Mof_H 	H 	0.3385	0.6007	0.9732	0.018
Mof_C 	C 	0.14928	0.61036	0.88357	-0.036
Mof_H 	H 	0.1447	0.6064	0.9158	0.013
Mof_H 	H 	0.2079	0.6117	0.7544	0.091
Mof_C 	C 	0.1835	0.61501	0.97664	-0.044
Mof_H 	H 	0.1571	0.6157	0.9572	0.022
Mof_H 	H 	0.3166	0.6272	0.0265	0.067
Mof_H 	H 	0.3131	0.5467	0.0268	0.035
Mof_H 	H 	0.1997	0.6908	0.7624	0.073
Mof_C 	C 	0.16629	0.65709	0.86696	-0.002
Mof_H 	H 	0.17	0.6795	0.8907	0.008
Mof_H 	H 	0.1842	0.5483	0.7782	0.178
Mof_H 	H 	0.2284	0.6029	0.7428	-0.092
Mof_O 	O 	0.24	0.523	0.718	0.476
Mof_H 	H 	0.2562	0.5466	0.7206	-0.107
Mof_H 	H 	0.2366	0.5212	0.7825	-0.386
Mof_H 	H 	0.2636	0.4865	0.7667	-0.724
Mof_N 	N 	0.73073	0.1139	0.46177	-0.288
Mof_N 	N 	0.69408	0.11828	0.35999	-0.292
Mof_C 	C 	0.7011	0.14494	0.47688	0.067
Mof_H 	H 	0.6826	0.1643	0.4579	-0.012
Mof_H 	H 	0.7843	0.0404	0.4734	0.052
Mof_H 	H 	0.8385	0.1007	0.4732	0.004
Mof_C 	C 	0.64928	0.11036	0.38357	-0.035
Mof_H 	H 	0.6447	0.1064	0.4158	0.011
Mof_H 	H 	0.7079	0.1117	0.2544	0.092
Mof_C 	C 	0.6835	0.11501	0.47664	-0.07
Mof_H 	H 	0.6571	0.1157	0.4572	0.027
Mof_H 	H 	0.8166	0.1272	0.5265	0.057
Mof_H 	H 	0.8131	0.0467	0.5268	0.029
Mof_H 	H 	0.6997	0.1908	0.2624	0.085
Mof_C 	C 	0.66629	0.15709	0.36696	-0.003
Mof_H 	H 	0.67	0.1795	0.3907	0.007
Mof_H 	H 	0.6842	0.0483	0.2782	0.177
Mof_H 	H 	0.7284	0.1029	0.2428	-0.104
Mof_O 	O 	0.74	0.023	0.218	0.521
Mof_H 	H 	0.7562	0.0466	0.2206	-0.121
Mof_H 	H 	0.7366	0.0212	0.2825	-0.379
Mof_H 	H 	0.7636	0.9865	0.2667	-0.74
Mof_N 	N 	0.03823	0.23073	0.3861	-0.283
Mof_N 	N 	0.14001	0.19408	0.38172	-0.292
Mof_C 	C 	0.02312	0.2011	0.35506	0.044
Mof_H 	H 	0.0421	0.1826	0.3357	-0.01
Mof_H 	H 	0.0266	0.2843	0.4596	0.064
Mof_H 	H 	0.0268	0.3385	0.3993	0.003
Mof_C 	C 	0.11643	0.14928	0.38964	-0.035
Mof_H 	H 	0.0842	0.1447	0.3936	0.008
Mof_H 	H 	0.2456	0.2079	0.3883	0.091
Mof_C 	C 	0.02336	0.1835	0.38499	-0.09
Mof_H 	H 	0.0428	0.1571	0.3843	0.03
Mof_H 	H 	0.9735	0.3166	0.3728	0.081
Mof_H 	H 	0.9732	0.3131	0.4533	0.048
Mof_H 	H 	0.2376	0.1997	0.3092	0.071
Mof_C 	C 	0.13304	0.16629	0.34291	-0.003
Mof_H 	H 	0.1093	0.17	0.3205	0.004
Mof_H 	H 	0.2218	0.1842	0.4517	0.178
Mof_H 	H 	0.2572	0.2284	0.3971	-0.092
Mof_O 	O 	0.282	0.24	0.477	0.476
Mof_H 	H 	0.2794	0.2562	0.4534	-0.107
Mof_H 	H 	0.2175	0.2366	0.4788	-0.386
Mof_H 	H 	0.2333	0.2636	0.5135	-0.724
Mof_N 	N 	0.53823	0.73073	0.8861	-0.289
Mof_N 	N 	0.64001	0.69408	0.88172	-0.293
Mof_C 	C 	0.52312	0.7011	0.85506	0.065
Mof_H 	H 	0.5421	0.6826	0.8357	-0.011
Mof_H 	H 	0.5266	0.7843	0.9596	0.063
Mof_H 	H 	0.5268	0.8385	0.8993	0.004
Mof_C 	C 	0.61643	0.64928	0.88964	-0.035
Mof_H 	H 	0.5842	0.6447	0.8936	0.012
Mof_H 	H 	0.7456	0.7079	0.8883	0.092
Mof_C 	C 	0.52336	0.6835	0.88499	-0.068
Mof_H 	H 	0.5428	0.6571	0.8843	0.028
Mof_H 	H 	0.4735	0.8166	0.8728	0.056
Mof_H 	H 	0.4732	0.8131	0.9533	0.036
Mof_H 	H 	0.7376	0.6997	0.8092	0.083
Mof_C 	C 	0.63304	0.66629	0.84291	-0.004
Mof_H 	H 	0.6093	0.67	0.8205	0.007
Mof_H 	H 	0.7218	0.6842	0.9517	0.185
Mof_H 	H 	0.7572	0.7284	0.8971	-0.102
Mof_O 	O 	0.782	0.74	0.977	0.554
Mof_H 	H 	0.7794	0.7562	0.9534	-0.127
Mof_H 	H 	0.7175	0.7366	0.9788	-0.37
Mof_H 	H 	0.7333	0.7636	0.0135	-0.752
Mof_N 	N 	0.03823	0.76927	0.6139	-0.283
Mof_N 	N 	0.14001	0.80592	0.61828	-0.292
Mof_C 	C 	0.02312	0.7989	0.64494	0.044
Mof_H 	H 	0.0421	0.8174	0.6643	-0.008
Mof_H 	H 	0.0266	0.7157	0.5404	0.064
Mof_H 	H 	0.0268	0.6615	0.6007	0.003
Mof_C 	C 	0.11643	0.85072	0.61036	-0.033
Mof_H 	H 	0.0842	0.8553	0.6064	0.01
Mof_H 	H 	0.2456	0.7921	0.6117	0.091
Mof_C 	C 	0.02336	0.8165	0.61501	-0.09
Mof_H 	H 	0.0428	0.8429	0.6157	0.032
Mof_H 	H 	0.9735	0.6834	0.6272	0.082
Mof_H 	H 	0.9732	0.6869	0.5467	0.048
Mof_H 	H 	0.2376	0.8003	0.6908	0.073
Mof_C 	C 	0.13304	0.83371	0.65709	-0.003
Mof_H 	H 	0.1093	0.83	0.6795	0.007
Mof_H 	H 	0.2218	0.8158	0.5483	0.178
Mof_H 	H 	0.2572	0.7716	0.6029	-0.092
Mof_O 	O 	0.282	0.76	0.523	0.476
Mof_H 	H 	0.2794	0.7438	0.5466	-0.107
Mof_H 	H 	0.2175	0.7634	0.5212	-0.386
Mof_H 	H 	0.2333	0.7364	0.4865	-0.724
Mof_N 	N 	0.53823	0.26927	0.1139	-0.288
Mof_N 	N 	0.64001	0.30592	0.11828	-0.292
Mof_C 	C 	0.52312	0.2989	0.14494	0.067
Mof_H 	H 	0.5421	0.3174	0.1643	-0.012
Mof_H 	H 	0.5266	0.2157	0.0404	0.053
Mof_H 	H 	0.5268	0.1615	0.1007	0.001
Mof_C 	C 	0.61643	0.35072	0.11036	-0.035
Mof_H 	H 	0.5842	0.3553	0.1064	0.011
Mof_H 	H 	0.7456	0.2921	0.1117	0.092
Mof_C 	C 	0.52336	0.3165	0.11501	-0.07
Mof_H 	H 	0.5428	0.3429	0.1157	0.027
Mof_H 	H 	0.4735	0.1834	0.1272	0.058
Mof_H 	H 	0.4732	0.1869	0.0467	0.026
Mof_H 	H 	0.7376	0.3003	0.1908	0.084
Mof_C 	C 	0.63304	0.33371	0.15709	-0.003
Mof_H 	H 	0.6093	0.33	0.1795	0.007
Mof_H 	H 	0.7218	0.3158	0.0483	0.177
Mof_H 	H 	0.7572	0.2716	0.1029	-0.104
Mof_O 	O 	0.782	0.26	0.023	0.521
Mof_H 	H 	0.7794	0.2438	0.0466	-0.12
Mof_H 	H 	0.7175	0.2634	0.0212	-0.379
Mof_H 	H 	0.7333	0.2364	0.9865	-0.74
Mof_N 	N 	0.96177	0.76927	0.3861	-0.284
Mof_N 	N 	0.85999	0.80592	0.38172	-0.292
Mof_C 	C 	0.97688	0.7989	0.35506	0.084
Mof_H 	H 	0.9579	0.8174	0.3357	-0.015
Mof_H 	H 	0.9734	0.7157	0.4596	0.077
Mof_H 	H 	0.9732	0.6615	0.3993	0.018
Mof_C 	C 	0.88357	0.85072	0.38964	-0.034
Mof_H 	H 	0.9158	0.8553	0.3936	0.015
Mof_H 	H 	0.7544	0.7921	0.3883	0.09
Mof_C 	C 	0.97664	0.8165	0.38499	-0.043
Mof_H 	H 	0.9572	0.8429	0.3843	0.024
Mof_H 	H 	0.0265	0.6834	0.3728	0.067
Mof_H 	H 	0.0268	0.6869	0.4533	0.035
Mof_H 	H 	0.7624	0.8003	0.3092	0.074
Mof_C 	C 	0.86696	0.83371	0.34291	-0.002
Mof_H 	H 	0.8907	0.83	0.3205	0.009
Mof_H 	H 	0.7782	0.8158	0.4517	0.178
Mof_H 	H 	0.7428	0.7716	0.3971	-0.092
Mof_O 	O 	0.718	0.76	0.477	0.476
Mof_H 	H 	0.7206	0.7438	0.4534	-0.107
Mof_H 	H 	0.7825	0.7634	0.4788	-0.386
Mof_H 	H 	0.7667	0.7364	0.5135	-0.724
Mof_N 	N 	0.46177	0.26927	0.8861	-0.289
Mof_N 	N 	0.35999	0.30592	0.88172	-0.293
Mof_C 	C 	0.47688	0.2989	0.85506	0.065
Mof_H 	H 	0.4579	0.3174	0.8357	-0.011
Mof_H 	H 	0.4734	0.2157	0.9596	0.065
Mof_H 	H 	0.4732	0.1615	0.8993	0.002
Mof_C 	C 	0.38357	0.35072	0.88964	-0.035
Mof_H 	H 	0.4158	0.3553	0.8936	0.012
Mof_H 	H 	0.2544	0.2921	0.8883	0.093
Mof_C 	C 	0.47664	0.3165	0.88499	-0.068
Mof_H 	H 	0.4572	0.3429	0.8843	0.028
Mof_H 	H 	0.5265	0.1834	0.8728	0.057
Mof_H 	H 	0.5268	0.1869	0.9533	0.034
Mof_H 	H 	0.2624	0.3003	0.8092	0.084
Mof_C 	C 	0.36696	0.33371	0.84291	-0.004
Mof_H 	H 	0.3907	0.33	0.8205	0.007
Mof_H 	H 	0.2782	0.3158	0.9517	0.185
Mof_H 	H 	0.2428	0.2716	0.8971	-0.104
Mof_O 	O 	0.218	0.26	0.977	0.554
Mof_H 	H 	0.2206	0.2438	0.9534	-0.13
Mof_H 	H 	0.2825	0.2634	0.9788	-0.369
Mof_H 	H 	0.2667	0.2364	0.0135	-0.751
Mof_N 	N 	0.96177	0.23073	0.6139	-0.284
Mof_N 	N 	0.85999	0.19408	0.61828	-0.292
Mof_C 	C 	0.97688	0.2011	0.64494	0.084
Mof_H 	H 	0.9579	0.1826	0.6643	-0.016
Mof_H 	H 	0.9734	0.2843	0.5404	0.077
Mof_H 	H 	0.9732	0.3385	0.6007	0.018
Mof_C 	C 	0.88357	0.14928	0.61036	-0.036
Mof_H 	H 	0.9158	0.1447	0.6064	0.013
Mof_H 	H 	0.7544	0.2079	0.6117	0.091
Mof_C 	C 	0.97664	0.1835	0.61501	-0.044
Mof_H 	H 	0.9572	0.1571	0.6157	0.022
Mof_H 	H 	0.0265	0.3166	0.6272	0.067
Mof_H 	H 	0.0268	0.3131	0.5467	0.035
Mof_H 	H 	0.7624	0.1997	0.6908	0.073
Mof_C 	C 	0.86696	0.16629	0.65709	-0.002
Mof_H 	H 	0.8907	0.17	0.6795	0.008
Mof_H 	H 	0.7782	0.1842	0.5483	0.178
Mof_H 	H 	0.7428	0.2284	0.6029	-0.092
Mof_O 	O 	0.718	0.24	0.523	0.476
Mof_H 	H 	0.7206	0.2562	0.5466	-0.107
Mof_H 	H 	0.7825	0.2366	0.5212	-0.386
Mof_H 	H 	0.7667	0.2636	0.4865	-0.724
Mof_N 	N 	0.46177	0.73073	0.1139	-0.288
Mof_N 	N 	0.35999	0.69408	0.11828	-0.292
Mof_C 	C 	0.47688	0.7011	0.14494	0.067
Mof_H 	H 	0.4579	0.6826	0.1643	-0.012
Mof_H 	H 	0.4734	0.7843	0.0404	0.052
Mof_H 	H 	0.4732	0.8385	0.1007	0.004
Mof_C 	C 	0.38357	0.64928	0.11036	-0.035
Mof_H 	H 	0.4158	0.6447	0.1064	0.011
Mof_H 	H 	0.2544	0.7079	0.1117	0.092
Mof_C 	C 	0.47664	0.6835	0.11501	-0.07
Mof_H 	H 	0.4572	0.6571	0.1157	0.027
Mof_H 	H 	0.5265	0.8166	0.1272	0.057
Mof_H 	H 	0.5268	0.8131	0.0467	0.029
Mof_H 	H 	0.2624	0.6997	0.1908	0.085
Mof_C 	C 	0.36696	0.66629	0.15709	-0.003
Mof_H 	H 	0.3907	0.67	0.1795	0.007
Mof_H 	H 	0.2782	0.6842	0.0483	0.177
Mof_H 	H 	0.2428	0.7284	0.1029	-0.104
Mof_O 	O 	0.218	0.74	0.023	0.521
Mof_H 	H 	0.2206	0.7562	0.0466	-0.121
Mof_H 	H 	0.2825	0.7366	0.0212	-0.379
Mof_H 	H 	0.2667	0.7636	0.9865	-0.74
Mof_N 	N 	0.3861	0.03823	0.23073	-0.283
Mof_N 	N 	0.38172	0.14001	0.19408	-0.292
Mof_C 	C 	0.35506	0.02312	0.2011	0.044
Mof_H 	H 	0.3357	0.0421	0.1826	-0.01
Mof_H 	H 	0.4596	0.0266	0.2843	0.064
Mof_H 	H 	0.3993	0.0268	0.3385	0.003
Mof_C 	C 	0.38964	0.11643	0.14928	-0.035
Mof_H 	H 	0.3936	0.0842	0.1447	0.008
Mof_H 	H 	0.3883	0.2456	0.2079	0.091
Mof_C 	C 	0.38499	0.02336	0.1835	-0.09
Mof_H 	H 	0.3843	0.0428	0.1571	0.03
Mof_H 	H 	0.3728	0.9735	0.3166	0.081
Mof_H 	H 	0.4533	0.9732	0.3131	0.048
Mof_H 	H 	0.3092	0.2376	0.1997	0.071
Mof_C 	C 	0.34291	0.13304	0.16629	-0.003
Mof_H 	H 	0.3205	0.1093	0.17	0.004
Mof_H 	H 	0.4517	0.2218	0.1842	0.178
Mof_H 	H 	0.3971	0.2572	0.2284	-0.092
Mof_O 	O 	0.477	0.282	0.24	0.476
Mof_H 	H 	0.4534	0.2794	0.2562	-0.107
Mof_H 	H 	0.4788	0.2175	0.2366	-0.386
Mof_H 	H 	0.5135	0.2333	0.2636	-0.724
Mof_N 	N 	0.8861	0.53823	0.73073	-0.289
Mof_N 	N 	0.88172	0.64001	0.69408	-0.293
Mof_C 	C 	0.85506	0.52312	0.7011	0.065
Mof_H 	H 	0.8357	0.5421	0.6826	-0.011
Mof_H 	H 	0.9596	0.5266	0.7843	0.063
Mof_H 	H 	0.8993	0.5268	0.8385	0.004
Mof_C 	C 	0.88964	0.61643	0.64928	-0.035
Mof_H 	H 	0.8936	0.5842	0.6447	0.012
Mof_H 	H 	0.8883	0.7456	0.7079	0.092
Mof_C 	C 	0.88499	0.52336	0.6835	-0.068
Mof_H 	H 	0.8843	0.5428	0.6571	0.028
Mof_H 	H 	0.8728	0.4735	0.8166	0.056
Mof_H 	H 	0.9533	0.4732	0.8131	0.036
Mof_H 	H 	0.8092	0.7376	0.6997	0.083
Mof_C 	C 	0.84291	0.63304	0.66629	-0.004
Mof_H 	H 	0.8205	0.6093	0.67	0.007
Mof_H 	H 	0.9517	0.7218	0.6842	0.185
Mof_H 	H 	0.8971	0.7572	0.7284	-0.102
Mof_O 	O 	0.977	0.782	0.74	0.554
Mof_H 	H 	0.9534	0.7794	0.7562	-0.127
Mof_H 	H 	0.9788	0.7175	0.7366	-0.37
Mof_H 	H 	0.0135	0.7333	0.7636	-0.752
Mof_N 	N 	0.6139	0.03823	0.76927	-0.283
Mof_N 	N 	0.61828	0.14001	0.80592	-0.292
Mof_C 	C 	0.64494	0.02312	0.7989	0.044
Mof_H 	H 	0.6643	0.0421	0.8174	-0.008
Mof_H 	H 	0.5404	0.0266	0.7157	0.064
Mof_H 	H 	0.6007	0.0268	0.6615	0.003
Mof_C 	C 	0.61036	0.11643	0.85072	-0.033
Mof_H 	H 	0.6064	0.0842	0.8553	0.01
Mof_H 	H 	0.6117	0.2456	0.7921	0.091
Mof_C 	C 	0.61501	0.02336	0.8165	-0.09
Mof_H 	H 	0.6157	0.0428	0.8429	0.032
Mof_H 	H 	0.6272	0.9735	0.6834	0.082
Mof_H 	H 	0.5467	0.9732	0.6869	0.048
Mof_H 	H 	0.6908	0.2376	0.8003	0.073
Mof_C 	C 	0.65709	0.13304	0.83371	-0.003
Mof_H 	H 	0.6795	0.1093	0.83	0.007
Mof_H 	H 	0.5483	0.2218	0.8158	0.178
Mof_H 	H 	0.6029	0.2572	0.7716	-0.092
Mof_O 	O 	0.523	0.282	0.76	0.476
Mof_H 	H 	0.5466	0.2794	0.7438	-0.107
Mof_H 	H 	0.5212	0.2175	0.7634	-0.386
Mof_H 	H 	0.4865	0.2333	0.7364	-0.724
Mof_N 	N 	0.1139	0.53823	0.26927	-0.288
Mof_N 	N 	0.11828	0.64001	0.30592	-0.292
Mof_C 	C 	0.14494	0.52312	0.2989	0.067
Mof_H 	H 	0.1643	0.5421	0.3174	-0.012
Mof_H 	H 	0.0404	0.5266	0.2157	0.053
Mof_H 	H 	0.1007	0.5268	0.1615	0.001
Mof_C 	C 	0.11036	0.61643	0.35072	-0.035
Mof_H 	H 	0.1064	0.5842	0.3553	0.011
Mof_H 	H 	0.1117	0.7456	0.2921	0.092
Mof_C 	C 	0.11501	0.52336	0.3165	-0.07
Mof_H 	H 	0.1157	0.5428	0.3429	0.027
Mof_H 	H 	0.1272	0.4735	0.1834	0.058
Mof_H 	H 	0.0467	0.4732	0.1869	0.026
Mof_H 	H 	0.1908	0.7376	0.3003	0.084
Mof_C 	C 	0.15709	0.63304	0.33371	-0.003
Mof_H 	H 	0.1795	0.6093	0.33	0.007
Mof_H 	H 	0.0483	0.7218	0.3158	0.177
Mof_H 	H 	0.1029	0.7572	0.2716	-0.104
Mof_O 	O 	0.023	0.782	0.26	0.521
Mof_H 	H 	0.0466	0.7794	0.2438	-0.12
Mof_H 	H 	0.0212	0.7175	0.2634	-0.379
Mof_H 	H 	0.9865	0.7333	0.2364	-0.74
Mof_N 	N 	0.3861	0.96177	0.76927	-0.284
Mof_N 	N 	0.38172	0.85999	0.80592	-0.292
Mof_C 	C 	0.35506	0.97688	0.7989	0.084
Mof_H 	H 	0.3357	0.9579	0.8174	-0.015
Mof_H 	H 	0.4596	0.9734	0.7157	0.077
Mof_H 	H 	0.3993	0.9732	0.6615	0.018
Mof_C 	C 	0.38964	0.88357	0.85072	-0.034
Mof_H 	H 	0.3936	0.9158	0.8553	0.015
Mof_H 	H 	0.3883	0.7544	0.7921	0.09
Mof_C 	C 	0.38499	0.97664	0.8165	-0.043
Mof_H 	H 	0.3843	0.9572	0.8429	0.024
Mof_H 	H 	0.3728	0.0265	0.6834	0.067
Mof_H 	H 	0.4533	0.0268	0.6869	0.035
Mof_H 	H 	0.3092	0.7624	0.8003	0.074
Mof_C 	C 	0.34291	0.86696	0.83371	-0.002
Mof_H 	H 	0.3205	0.8907	0.83	0.009
Mof_H 	H 	0.4517	0.7782	0.8158	0.178
Mof_H 	H 	0.3971	0.7428	0.7716	-0.092
Mof_O 	O 	0.477	0.718	0.76	0.476
Mof_H 	H 	0.4534	0.7206	0.7438	-0.107
Mof_H 	H 	0.4788	0.7825	0.7634	-0.386
Mof_H 	H 	0.5135	0.7667	0.7364	-0.724
Mof_N 	N 	0.8861	0.46177	0.26927	-0.289
Mof_N 	N 	0.88172	0.35999	0.30592	-0.293
Mof_C 	C 	0.85506	0.47688	0.2989	0.065
Mof_H 	H 	0.8357	0.4579	0.3174	-0.011
Mof_H 	H 	0.9596	0.4734	0.2157	0.065
Mof_H 	H 	0.8993	0.4732	0.1615	0.002
Mof_C 	C 	0.88964	0.38357	0.35072	-0.035
Mof_H 	H 	0.8936	0.4158	0.3553	0.012
Mof_H 	H 	0.8883	0.2544	0.2921	0.093
Mof_C 	C 	0.88499	0.47664	0.3165	-0.068
Mof_H 	H 	0.8843	0.4572	0.3429	0.028
Mof_H 	H 	0.8728	0.5265	0.1834	0.057
Mof_H 	H 	0.9533	0.5268	0.1869	0.034
Mof_H 	H 	0.8092	0.2624	0.3003	0.084
Mof_C 	C 	0.84291	0.36696	0.33371	-0.004
Mof_H 	H 	0.8205	0.3907	0.33	0.007
Mof_H 	H 	0.9517	0.2782	0.3158	0.185
Mof_H 	H 	0.8971	0.2428	0.2716	-0.104
Mof_O 	O 	0.977	0.218	0.26	0.554
Mof_H 	H 	0.9534	0.2206	0.2438	-0.13
Mof_H 	H 	0.9788	0.2825	0.2634	-0.369
Mof_H 	H 	0.0135	0.2667	0.2364	-0.751
Mof_N 	N 	0.6139	0.96177	0.23073	-0.284
Mof_N 	N 	0.61828	0.85999	0.19408	-0.292
Mof_C 	C 	0.64494	0.97688	0.2011	0.084
Mof_H 	H 	0.6643	0.9579	0.1826	-0.016
Mof_H 	H 	0.5404	0.9734	0.2843	0.077
Mof_H 	H 	0.6007	0.9732	0.3385	0.018
Mof_C 	C 	0.61036	0.88357	0.14928	-0.036
Mof_H 	H 	0.6064	0.9158	0.1447	0.013
Mof_H 	H 	0.6117	0.7544	0.2079	0.091
Mof_C 	C 	0.61501	0.97664	0.1835	-0.044
Mof_H 	H 	0.6157	0.9572	0.1571	0.022
Mof_H 	H 	0.6272	0.0265	0.3166	0.067
Mof_H 	H 	0.5467	0.0268	0.3131	0.035
Mof_H 	H 	0.6908	0.7624	0.1997	0.073
Mof_C 	C 	0.65709	0.86696	0.16629	-0.002
Mof_H 	H 	0.6795	0.8907	0.17	0.008
Mof_H 	H 	0.5483	0.7782	0.1842	0.178
Mof_H 	H 	0.6029	0.7428	0.2284	-0.092
Mof_O 	O 	0.523	0.718	0.24	0.476
Mof_H 	H 	0.5466	0.7206	0.2562	-0.107
Mof_H 	H 	0.5212	0.7825	0.2366	-0.386
Mof_H 	H 	0.4865	0.7667	0.2636	-0.724
Mof_N 	N 	0.1139	0.46177	0.73073	-0.288
Mof_N 	N 	0.11828	0.35999	0.69408	-0.292
Mof_C 	C 	0.14494	0.47688	0.7011	0.067
Mof_H 	H 	0.1643	0.4579	0.6826	-0.012
Mof_H 	H 	0.0404	0.4734	0.7843	0.052
Mof_H 	H 	0.1007	0.4732	0.8385	0.004
Mof_C 	C 	0.11036	0.38357	0.64928	-0.035
Mof_H 	H 	0.1064	0.4158	0.6447	0.011
Mof_H 	H 	0.1117	0.2544	0.7079	0.092
Mof_C 	C 	0.11501	0.47664	0.6835	-0.07
Mof_H 	H 	0.1157	0.4572	0.6571	0.027
Mof_H 	H 	0.1272	0.5265	0.8166	0.057
Mof_H 	H 	0.0467	0.5268	0.8131	0.029
Mof_H 	H 	0.1908	0.2624	0.6997	0.085
Mof_C 	C 	0.15709	0.36696	0.66629	-0.003
Mof_H 	H 	0.1795	0.3907	0.67	0.007
Mof_H 	H 	0.0483	0.2782	0.6842	0.177
Mof_H 	H 	0.1029	0.2428	0.7284	-0.104
Mof_O 	O 	0.023	0.218	0.74	0.521
Mof_H 	H 	0.0466	0.2206	0.7562	-0.121
Mof_H 	H 	0.0212	0.2825	0.7366	-0.379
Mof_H 	H 	0.9865	0.2667	0.7636	-0.74
Mof_N 	N 	0.3861	0.23073	0.96177	-0.284
Mof_N 	N 	0.38172	0.19408	0.85999	-0.292
Mof_C 	C 	0.35506	0.2011	0.97688	0.084
Mof_H 	H 	0.3357	0.1826	0.9579	-0.016
Mof_H 	H 	0.4596	0.2843	0.9734	0.077
Mof_H 	H 	0.3993	0.3385	0.9732	0.018
Mof_C 	C 	0.38964	0.14928	0.88357	-0.036
Mof_H 	H 	0.3936	0.1447	0.9158	0.013
Mof_H 	H 	0.3883	0.2079	0.7544	0.091
Mof_C 	C 	0.38499	0.1835	0.97664	-0.044
Mof_H 	H 	0.3843	0.1571	0.9572	0.022
Mof_H 	H 	0.3728	0.3166	0.0265	0.067
Mof_H 	H 	0.4533	0.3131	0.0268	0.035
Mof_H 	H 	0.3092	0.1997	0.7624	0.072
Mof_C 	C 	0.34291	0.16629	0.86696	-0.002
Mof_H 	H 	0.3205	0.17	0.8907	0.007
Mof_H 	H 	0.4517	0.1842	0.7782	0.178
Mof_H 	H 	0.3971	0.2284	0.7428	-0.092
Mof_O 	O 	0.477	0.24	0.718	0.476
Mof_H 	H 	0.4534	0.2562	0.7206	-0.107
Mof_H 	H 	0.4788	0.2366	0.7825	-0.386
Mof_H 	H 	0.5135	0.2636	0.7667	-0.724
Mof_N 	N 	0.8861	0.73073	0.46177	-0.289
Mof_N 	N 	0.88172	0.69408	0.35999	-0.293
Mof_C 	C 	0.85506	0.7011	0.47688	0.065
Mof_H 	H 	0.8357	0.6826	0.4579	-0.011
Mof_H 	H 	0.9596	0.7843	0.4734	0.063
Mof_H 	H 	0.8993	0.8385	0.4732	0.004
Mof_C 	C 	0.88964	0.64928	0.38357	-0.035
Mof_H 	H 	0.8936	0.6447	0.4158	0.012
Mof_H 	H 	0.8883	0.7079	0.2544	0.092
Mof_C 	C 	0.88499	0.6835	0.47664	-0.068
Mof_H 	H 	0.8843	0.6571	0.4572	0.028
Mof_H 	H 	0.8728	0.8166	0.5265	0.056
Mof_H 	H 	0.9533	0.8131	0.5268	0.036
Mof_H 	H 	0.8092	0.6997	0.2624	0.084
Mof_C 	C 	0.84291	0.66629	0.36696	-0.004
Mof_H 	H 	0.8205	0.67	0.3907	0.007
Mof_H 	H 	0.9517	0.6842	0.2782	0.185
Mof_H 	H 	0.8971	0.7284	0.2428	-0.103
Mof_O 	O 	0.977	0.74	0.218	0.554
Mof_H 	H 	0.9534	0.7562	0.2206	-0.128
Mof_H 	H 	0.9788	0.7366	0.2825	-0.37
Mof_H 	H 	0.0135	0.7636	0.2667	-0.751
Mof_N 	N 	0.6139	0.76927	0.96177	-0.284
Mof_N 	N 	0.61828	0.80592	0.85999	-0.292
Mof_C 	C 	0.64494	0.7989	0.97688	0.084
Mof_H 	H 	0.6643	0.8174	0.9579	-0.014
Mof_H 	H 	0.5404	0.7157	0.9734	0.077
Mof_H 	H 	0.6007	0.6615	0.9732	0.018
Mof_C 	C 	0.61036	0.85072	0.88357	-0.034
Mof_H 	H 	0.6064	0.8553	0.9158	0.015
Mof_H 	H 	0.6117	0.7921	0.7544	0.09
Mof_C 	C 	0.61501	0.8165	0.97664	-0.043
Mof_H 	H 	0.6157	0.8429	0.9572	0.024
Mof_H 	H 	0.6272	0.6834	0.0265	0.067
Mof_H 	H 	0.5467	0.6869	0.0268	0.035
Mof_H 	H 	0.6908	0.8003	0.7624	0.074
Mof_C 	C 	0.65709	0.83371	0.86696	-0.002
Mof_H 	H 	0.6795	0.83	0.8907	0.01
Mof_H 	H 	0.5483	0.8158	0.7782	0.178
Mof_H 	H 	0.6029	0.7716	0.7428	-0.092
Mof_O 	O 	0.523	0.76	0.718	0.476
Mof_H 	H 	0.5466	0.7438	0.7206	-0.107
Mof_H 	H 	0.5212	0.7634	0.7825	-0.386
Mof_H 	H 	0.4865	0.7364	0.7667	-0.724
Mof_N 	N 	0.1139	0.26927	0.46177	-0.288
Mof_N 	N 	0.11828	0.30592	0.35999	-0.292
Mof_C 	C 	0.14494	0.2989	0.47688	0.067
Mof_H 	H 	0.1643	0.3174	0.4579	-0.012
Mof_H 	H 	0.0404	0.2157	0.4734	0.053
Mof_H 	H 	0.1007	0.1615	0.4732	0.001
Mof_C 	C 	0.11036	0.35072	0.38357	-0.035
Mof_H 	H 	0.1064	0.3553	0.4158	0.011
Mof_H 	H 	0.1117	0.2921	0.2544	0.093
Mof_C 	C 	0.11501	0.3165	0.47664	-0.07
Mof_H 	H 	0.1157	0.3429	0.4572	0.027
Mof_H 	H 	0.1272	0.1834	0.5265	0.058
Mof_H 	H 	0.0467	0.1869	0.5268	0.026
Mof_H 	H 	0.1908	0.3003	0.2624	0.085
Mof_C 	C 	0.15709	0.33371	0.36696	-0.003
Mof_H 	H 	0.1795	0.33	0.3907	0.007
Mof_H 	H 	0.0483	0.3158	0.2782	0.177
Mof_H 	H 	0.1029	0.2716	0.2428	-0.105
Mof_O 	O 	0.023	0.26	0.218	0.522
Mof_H 	H 	0.0466	0.2438	0.2206	-0.122
Mof_H 	H 	0.0212	0.2634	0.2825	-0.379
Mof_H 	H 	0.9865	0.2364	0.2667	-0.74
Mof_N 	N 	0.3861	0.76927	0.03823	-0.283
Mof_N 	N 	0.38172	0.80592	0.14001	-0.292
Mof_C 	C 	0.35506	0.7989	0.02312	0.044
Mof_H 	H 	0.3357	0.8174	0.0421	-0.008
Mof_H 	H 	0.4596	0.7157	0.0266	0.064
Mof_H 	H 	0.3993	0.6615	0.0268	0.003
Mof_C 	C 	0.38964	0.85072	0.11643	-0.033
Mof_H 	H 	0.3936	0.8553	0.0842	0.009
Mof_H 	H 	0.3883	0.7921	0.2456	0.091
Mof_C 	C 	0.38499	0.8165	0.02336	-0.09
Mof_H 	H 	0.3843	0.8429	0.0428	0.032
Mof_H 	H 	0.3728	0.6834	0.9735	0.082
Mof_H 	H 	0.4533	0.6869	0.9732	0.048
Mof_H 	H 	0.3092	0.8003	0.2376	0.073
Mof_C 	C 	0.34291	0.83371	0.13304	-0.003
Mof_H 	H 	0.3205	0.83	0.1093	0.006
Mof_H 	H 	0.4517	0.8158	0.2218	0.178
Mof_H 	H 	0.3971	0.7716	0.2572	-0.092
Mof_O 	O 	0.477	0.76	0.282	0.476
Mof_H 	H 	0.4534	0.7438	0.2794	-0.107
Mof_H 	H 	0.4788	0.7634	0.2175	-0.386
Mof_H 	H 	0.5135	0.7364	0.2333	-0.724
Mof_N 	N 	0.8861	0.26927	0.53823	-0.289
Mof_N 	N 	0.88172	0.30592	0.64001	-0.293
Mof_C 	C 	0.85506	0.2989	0.52312	0.065
Mof_H 	H 	0.8357	0.3174	0.5421	-0.011
Mof_H 	H 	0.9596	0.2157	0.5266	0.065
Mof_H 	H 	0.8993	0.1615	0.5268	0.002
Mof_C 	C 	0.88964	0.35072	0.61643	-0.035
Mof_H 	H 	0.8936	0.3553	0.5842	0.012
Mof_H 	H 	0.8883	0.2921	0.7456	0.092
Mof_C 	C 	0.88499	0.3165	0.52336	-0.068
Mof_H 	H 	0.8843	0.3429	0.5428	0.028
Mof_H 	H 	0.8728	0.1834	0.4735	0.057
Mof_H 	H 	0.9533	0.1869	0.4732	0.034
Mof_H 	H 	0.8092	0.3003	0.7376	0.083
Mof_C 	C 	0.84291	0.33371	0.63304	-0.004
Mof_H 	H 	0.8205	0.33	0.6093	0.007
Mof_H 	H 	0.9517	0.3158	0.7218	0.185
Mof_H 	H 	0.8971	0.2716	0.7572	-0.103
Mof_O 	O 	0.977	0.26	0.782	0.554
Mof_H 	H 	0.9534	0.2438	0.7794	-0.128
Mof_H 	H 	0.9788	0.2634	0.7175	-0.37
Mof_H 	H 	0.0135	0.2364	0.7333	-0.751
Mof_N 	N 	0.6139	0.23073	0.03823	-0.283
Mof_N 	N 	0.61828	0.19408	0.14001	-0.292
Mof_C 	C 	0.64494	0.2011	0.02312	0.044
Mof_H 	H 	0.6643	0.1826	0.0421	-0.009
Mof_H 	H 	0.5404	0.2843	0.0266	0.064
Mof_H 	H 	0.6007	0.3385	0.0268	0.003
Mof_C 	C 	0.61036	0.14928	0.11643	-0.035
Mof_H 	H 	0.6064	0.1447	0.0842	0.008
Mof_H 	H 	0.6117	0.2079	0.2456	0.091
Mof_C 	C 	0.61501	0.1835	0.02336	-0.09
Mof_H 	H 	0.6157	0.1571	0.0428	0.03
Mof_H 	H 	0.6272	0.3166	0.9735	0.081
Mof_H 	H 	0.5467	0.3131	0.9732	0.048
Mof_H 	H 	0.6908	0.1997	0.2376	0.071
Mof_C 	C 	0.65709	0.16629	0.13304	-0.003
Mof_H 	H 	0.6795	0.17	0.1093	0.005
Mof_H 	H 	0.5483	0.1842	0.2218	0.178
Mof_H 	H 	0.6029	0.2284	0.2572	-0.092
Mof_O 	O 	0.523	0.24	0.282	0.476
Mof_H 	H 	0.5466	0.2562	0.2794	-0.107
Mof_H 	H 	0.5212	0.2366	0.2175	-0.386
Mof_H 	H 	0.4865	0.2636	0.2333	-0.724
Mof_N 	N 	0.1139	0.73073	0.53823	-0.288
Mof_N 	N 	0.11828	0.69408	0.64001	-0.292
Mof_C 	C 	0.14494	0.7011	0.52312	0.067
Mof_H 	H 	0.1643	0.6826	0.5421	-0.012
Mof_H 	H 	0.0404	0.7843	0.5266	0.052
Mof_H 	H 	0.1007	0.8385	0.5268	0.004
Mof_C 	C 	0.11036	0.64928	0.61643	-0.035
Mof_H 	H 	0.1064	0.6447	0.5842	0.011
Mof_H 	H 	0.1117	0.7079	0.7456	0.092
Mof_C 	C 	0.11501	0.6835	0.52336	-0.07
Mof_H 	H 	0.1157	0.6571	0.5428	0.027
Mof_H 	H 	0.1272	0.8166	0.4735	0.057
Mof_H 	H 	0.0467	0.8131	0.4732	0.029
Mof_H 	H 	0.1908	0.6997	0.7376	0.084
Mof_C 	C 	0.15709	0.66629	0.63304	-0.003
Mof_H 	H 	0.1795	0.67	0.6093	0.007
Mof_H 	H 	0.0483	0.6842	0.7218	0.177
Mof_H 	H 	0.1029	0.7284	0.7572	-0.103
Mof_O 	O 	0.023	0.74	0.782	0.521
Mof_H 	H 	0.0466	0.7562	0.7794	-0.119
Mof_H 	H 	0.0212	0.7366	0.7175	-0.379
Mof_H 	H 	0.9865	0.7636	0.7333	-0.741
Mof_N 	N 	0.23073	0.03823	0.6139	-0.283
Mof_N 	N 	0.19408	0.14001	0.61828	-0.292
Mof_C 	C 	0.2011	0.02312	0.64494	0.044
Mof_H 	H 	0.1826	0.0421	0.6643	-0.009
Mof_H 	H 	0.2843	0.0266	0.5404	0.064
Mof_H 	H 	0.3385	0.0268	0.6007	0.003
Mof_C 	C 	0.14928	0.11643	0.61036	-0.035
Mof_H 	H 	0.1447	0.0842	0.6064	0.008
Mof_H 	H 	0.2079	0.2456	0.6117	0.091
Mof_C 	C 	0.1835	0.02336	0.61501	-0.09
Mof_H 	H 	0.1571	0.0428	0.6157	0.03
Mof_H 	H 	0.3166	0.9735	0.6272	0.081
Mof_H 	H 	0.3131	0.9732	0.5467	0.048
Mof_H 	H 	0.1997	0.2376	0.6908	0.071
Mof_C 	C 	0.16629	0.13304	0.65709	-0.003
Mof_H 	H 	0.17	0.1093	0.6795	0.005
Mof_H 	H 	0.1842	0.2218	0.5483	0.178
Mof_H 	H 	0.2284	0.2572	0.6029	-0.092
Mof_O 	O 	0.24	0.282	0.523	0.476
Mof_H 	H 	0.2562	0.2794	0.5466	-0.107
Mof_H 	H 	0.2366	0.2175	0.5212	-0.386
Mof_H 	H 	0.2636	0.2333	0.4865	-0.724
Mof_N 	N 	0.73073	0.53823	0.1139	-0.288
Mof_N 	N 	0.69408	0.64001	0.11828	-0.292
Mof_C 	C 	0.7011	0.52312	0.14494	0.067
Mof_H 	H 	0.6826	0.5421	0.1643	-0.012
Mof_H 	H 	0.7843	0.5266	0.0404	0.052
Mof_H 	H 	0.8385	0.5268	0.1007	0.004
Mof_C 	C 	0.64928	0.61643	0.11036	-0.035
Mof_H 	H 	0.6447	0.5842	0.1064	0.011
Mof_H 	H 	0.7079	0.7456	0.1117	0.092
Mof_C 	C 	0.6835	0.52336	0.11501	-0.07
Mof_H 	H 	0.6571	0.5428	0.1157	0.027
Mof_H 	H 	0.8166	0.4735	0.1272	0.057
Mof_H 	H 	0.8131	0.4732	0.0467	0.029
Mof_H 	H 	0.6997	0.7376	0.1908	0.084
Mof_C 	C 	0.66629	0.63304	0.15709	-0.003
Mof_H 	H 	0.67	0.6093	0.1795	0.007
Mof_H 	H 	0.6842	0.7218	0.0483	0.177
Mof_H 	H 	0.7284	0.7572	0.1029	-0.103
Mof_O 	O 	0.74	0.782	0.023	0.521
Mof_H 	H 	0.7562	0.7794	0.0466	-0.119
Mof_H 	H 	0.7366	0.7175	0.0212	-0.379
Mof_H 	H 	0.7636	0.7333	0.9865	-0.741
Mof_N 	N 	0.76927	0.03823	0.3861	-0.283
Mof_N 	N 	0.80592	0.14001	0.38172	-0.292
Mof_C 	C 	0.7989	0.02312	0.35506	0.044
Mof_H 	H 	0.8174	0.0421	0.3357	-0.008
Mof_H 	H 	0.7157	0.0266	0.4596	0.064
Mof_H 	H 	0.6615	0.0268	0.3993	0.003
Mof_C 	C 	0.85072	0.11643	0.38964	-0.033
Mof_H 	H 	0.8553	0.0842	0.3936	0.009
Mof_H 	H 	0.7921	0.2456	0.3883	0.091
Mof_C 	C 	0.8165	0.02336	0.38499	-0.09
Mof_H 	H 	0.8429	0.0428	0.3843	0.032
Mof_H 	H 	0.6834	0.9735	0.3728	0.082
Mof_H 	H 	0.6869	0.9732	0.4533	0.048
Mof_H 	H 	0.8003	0.2376	0.3092	0.073
Mof_C 	C 	0.83371	0.13304	0.34291	-0.003
Mof_H 	H 	0.83	0.1093	0.3205	0.006
Mof_H 	H 	0.8158	0.2218	0.4517	0.178
Mof_H 	H 	0.7716	0.2572	0.3971	-0.092
Mof_O 	O 	0.76	0.282	0.477	0.476
Mof_H 	H 	0.7438	0.2794	0.4534	-0.107
Mof_H 	H 	0.7634	0.2175	0.4788	-0.386
Mof_H 	H 	0.7364	0.2333	0.5135	-0.724
Mof_N 	N 	0.26927	0.53823	0.8861	-0.289
Mof_N 	N 	0.30592	0.64001	0.88172	-0.293
Mof_C 	C 	0.2989	0.52312	0.85506	0.065
Mof_H 	H 	0.3174	0.5421	0.8357	-0.011
Mof_H 	H 	0.2157	0.5266	0.9596	0.065
Mof_H 	H 	0.1615	0.5268	0.8993	0.002
Mof_C 	C 	0.35072	0.61643	0.88964	-0.035
Mof_H 	H 	0.3553	0.5842	0.8936	0.012
Mof_H 	H 	0.2921	0.7456	0.8883	0.092
Mof_C 	C 	0.3165	0.52336	0.88499	-0.068
Mof_H 	H 	0.3429	0.5428	0.8843	0.028
Mof_H 	H 	0.1834	0.4735	0.8728	0.057
Mof_H 	H 	0.1869	0.4732	0.9533	0.034
Mof_H 	H 	0.3003	0.7376	0.8092	0.083
Mof_C 	C 	0.33371	0.63304	0.84291	-0.004
Mof_H 	H 	0.33	0.6093	0.8205	0.007
Mof_H 	H 	0.3158	0.7218	0.9517	0.185
Mof_H 	H 	0.2716	0.7572	0.8971	-0.103
Mof_O 	O 	0.26	0.782	0.977	0.554
Mof_H 	H 	0.2438	0.7794	0.9534	-0.128
Mof_H 	H 	0.2634	0.7175	0.9788	-0.37
Mof_H 	H 	0.2364	0.7333	0.0135	-0.751
Mof_N 	N 	0.76927	0.96177	0.6139	-0.284
Mof_N 	N 	0.80592	0.85999	0.61828	-0.292
Mof_C 	C 	0.7989	0.97688	0.64494	0.084
Mof_H 	H 	0.8174	0.9579	0.6643	-0.014
Mof_H 	H 	0.7157	0.9734	0.5404	0.077
Mof_H 	H 	0.6615	0.9732	0.6007	0.018
Mof_C 	C 	0.85072	0.88357	0.61036	-0.034
Mof_H 	H 	0.8553	0.9158	0.6064	0.015
Mof_H 	H 	0.7921	0.7544	0.6117	0.09
Mof_C 	C 	0.8165	0.97664	0.61501	-0.043
Mof_H 	H 	0.8429	0.9572	0.6157	0.024
Mof_H 	H 	0.6834	0.0265	0.6272	0.067
Mof_H 	H 	0.6869	0.0268	0.5467	0.035
Mof_H 	H 	0.8003	0.7624	0.6908	0.074
Mof_C 	C 	0.83371	0.86696	0.65709	-0.002
Mof_H 	H 	0.83	0.8907	0.6795	0.01
Mof_H 	H 	0.8158	0.7782	0.5483	0.178
Mof_H 	H 	0.7716	0.7428	0.6029	-0.092
Mof_O 	O 	0.76	0.718	0.523	0.476
Mof_H 	H 	0.7438	0.7206	0.5466	-0.107
Mof_H 	H 	0.7634	0.7825	0.5212	-0.386
Mof_H 	H 	0.7364	0.7667	0.4865	-0.724
Mof_N 	N 	0.26927	0.46177	0.1139	-0.288
Mof_N 	N 	0.30592	0.35999	0.11828	-0.292
Mof_C 	C 	0.2989	0.47688	0.14494	0.067
Mof_H 	H 	0.3174	0.4579	0.1643	-0.012
Mof_H 	H 	0.2157	0.4734	0.0404	0.053
Mof_H 	H 	0.1615	0.4732	0.1007	0.001
Mof_C 	C 	0.35072	0.38357	0.11036	-0.035
Mof_H 	H 	0.3553	0.4158	0.1064	0.011
Mof_H 	H 	0.2921	0.2544	0.1117	0.093
Mof_C 	C 	0.3165	0.47664	0.11501	-0.07
Mof_H 	H 	0.3429	0.4572	0.1157	0.027
Mof_H 	H 	0.1834	0.5265	0.1272	0.058
Mof_H 	H 	0.1869	0.5268	0.0467	0.026
Mof_H 	H 	0.3003	0.2624	0.1908	0.085
Mof_C 	C 	0.33371	0.36696	0.15709	-0.003
Mof_H 	H 	0.33	0.3907	0.1795	0.007
Mof_H 	H 	0.3158	0.2782	0.0483	0.177
Mof_H 	H 	0.2716	0.2428	0.1029	-0.105
Mof_O 	O 	0.26	0.218	0.023	0.522
Mof_H 	H 	0.2438	0.2206	0.0466	-0.122
Mof_H 	H 	0.2634	0.2825	0.0212	-0.379
Mof_H 	H 	0.2364	0.2667	0.9865	-0.74
Mof_N 	N 	0.23073	0.96177	0.3861	-0.284
Mof_N 	N 	0.19408	0.85999	0.38172	-0.292
Mof_C 	C 	0.2011	0.97688	0.35506	0.084
Mof_H 	H 	0.1826	0.9579	0.3357	-0.016
Mof_H 	H 	0.2843	0.9734	0.4596	0.077
Mof_H 	H 	0.3385	0.9732	0.3993	0.018
Mof_C 	C 	0.14928	0.88357	0.38964	-0.036
Mof_H 	H 	0.1447	0.9158	0.3936	0.013
Mof_H 	H 	0.2079	0.7544	0.3883	0.091
Mof_C 	C 	0.1835	0.97664	0.38499	-0.044
Mof_H 	H 	0.1571	0.9572	0.3843	0.022
Mof_H 	H 	0.3166	0.0265	0.3728	0.067
Mof_H 	H 	0.3131	0.0268	0.4533	0.035
Mof_H 	H 	0.1997	0.7624	0.3092	0.072
Mof_C 	C 	0.16629	0.86696	0.34291	-0.002
Mof_H 	H 	0.17	0.8907	0.3205	0.007
Mof_H 	H 	0.1842	0.7782	0.4517	0.178
Mof_H 	H 	0.2284	0.7428	0.3971	-0.092
Mof_O 	O 	0.24	0.718	0.477	0.476
Mof_H 	H 	0.2562	0.7206	0.4534	-0.107
Mof_H 	H 	0.2366	0.7825	0.4788	-0.386
Mof_H 	H 	0.2636	0.7667	0.5135	-0.724
Mof_N 	N 	0.73073	0.46177	0.8861	-0.289
Mof_N 	N 	0.69408	0.35999	0.88172	-0.293
Mof_C 	C 	0.7011	0.47688	0.85506	0.065
Mof_H 	H 	0.6826	0.4579	0.8357	-0.011
Mof_H 	H 	0.7843	0.4734	0.9596	0.063
Mof_H 	H 	0.8385	0.4732	0.8993	0.004
Mof_C 	C 	0.64928	0.38357	0.88964	-0.035
Mof_H 	H 	0.6447	0.4158	0.8936	0.012
Mof_H 	H 	0.7079	0.2544	0.8883	0.092
Mof_C 	C 	0.6835	0.47664	0.88499	-0.068
Mof_H 	H 	0.6571	0.4572	0.8843	0.028
Mof_H 	H 	0.8166	0.5265	0.8728	0.056
Mof_H 	H 	0.8131	0.5268	0.9533	0.036
Mof_H 	H 	0.6997	0.2624	0.8092	0.084
Mof_C 	C 	0.66629	0.36696	0.84291	-0.004
Mof_H 	H 	0.67	0.3907	0.8205	0.007
Mof_H 	H 	0.6842	0.2782	0.9517	0.185
Mof_H 	H 	0.7284	0.2428	0.8971	-0.103
Mof_O 	O 	0.74	0.218	0.977	0.554
Mof_H 	H 	0.7562	0.2206	0.9534	-0.128
Mof_H 	H 	0.7366	0.2825	0.9788	-0.37
Mof_H 	H 	0.7636	0.2667	0.0135	-0.751
Mof_N 	N 	0.03823	0.3861	0.76927	-0.283
Mof_N 	N 	0.14001	0.38172	0.80592	-0.292
Mof_C 	C 	0.02312	0.35506	0.7989	0.044
Mof_H 	H 	0.0421	0.3357	0.8174	-0.008
Mof_H 	H 	0.0266	0.4596	0.7157	0.064
Mof_H 	H 	0.0268	0.3993	0.6615	0.003
Mof_C 	C 	0.11643	0.38964	0.85072	-0.033
Mof_H 	H 	0.0842	0.3936	0.8553	0.009
Mof_H 	H 	0.2456	0.3883	0.7921	0.091
Mof_C 	C 	0.02336	0.38499	0.8165	-0.09
Mof_H 	H 	0.0428	0.3843	0.8429	0.032
Mof_H 	H 	0.9735	0.3728	0.6834	0.082
Mof_H 	H 	0.9732	0.4533	0.6869	0.048
Mof_H 	H 	0.2376	0.3092	0.8003	0.073
Mof_C 	C 	0.13304	0.34291	0.83371	-0.003
Mof_H 	H 	0.1093	0.3205	0.83	0.006
Mof_H 	H 	0.2218	0.4517	0.8158	0.178
Mof_H 	H 	0.2572	0.3971	0.7716	-0.092
Mof_O 	O 	0.282	0.477	0.76	0.476
Mof_H 	H 	0.2794	0.4534	0.7438	-0.107
Mof_H 	H 	0.2175	0.4788	0.7634	-0.386
Mof_H 	H 	0.2333	0.5135	0.7364	-0.724
Mof_N 	N 	0.53823	0.8861	0.26927	-0.289
Mof_N 	N 	0.64001	0.88172	0.30592	-0.293
Mof_C 	C 	0.52312	0.85506	0.2989	0.065
Mof_H 	H 	0.5421	0.8357	0.3174	-0.011
Mof_H 	H 	0.5266	0.9596	0.2157	0.065
Mof_H 	H 	0.5268	0.8993	0.1615	0.002
Mof_C 	C 	0.61643	0.88964	0.35072	-0.035
Mof_H 	H 	0.5842	0.8936	0.3553	0.012
Mof_H 	H 	0.7456	0.8883	0.2921	0.092
Mof_C 	C 	0.52336	0.88499	0.3165	-0.068
Mof_H 	H 	0.5428	0.8843	0.3429	0.028
Mof_H 	H 	0.4735	0.8728	0.1834	0.057
Mof_H 	H 	0.4732	0.9533	0.1869	0.034
Mof_H 	H 	0.7376	0.8092	0.3003	0.083
Mof_C 	C 	0.63304	0.84291	0.33371	-0.004
Mof_H 	H 	0.6093	0.8205	0.33	0.007
Mof_H 	H 	0.7218	0.9517	0.3158	0.185
Mof_H 	H 	0.7572	0.8971	0.2716	-0.103
Mof_O 	O 	0.782	0.977	0.26	0.554
Mof_H 	H 	0.7794	0.9534	0.2438	-0.128
Mof_H 	H 	0.7175	0.9788	0.2634	-0.37
Mof_H 	H 	0.7333	0.0135	0.2364	-0.751
Mof_N 	N 	0.03823	0.6139	0.23073	-0.283
Mof_N 	N 	0.14001	0.61828	0.19408	-0.292
Mof_C 	C 	0.02312	0.64494	0.2011	0.044
Mof_H 	H 	0.0421	0.6643	0.1826	-0.009
Mof_H 	H 	0.0266	0.5404	0.2843	0.064
Mof_H 	H 	0.0268	0.6007	0.3385	0.003
Mof_C 	C 	0.11643	0.61036	0.14928	-0.035
Mof_H 	H 	0.0842	0.6064	0.1447	0.008
Mof_H 	H 	0.2456	0.6117	0.2079	0.091
Mof_C 	C 	0.02336	0.61501	0.1835	-0.09
Mof_H 	H 	0.0428	0.6157	0.1571	0.03
Mof_H 	H 	0.9735	0.6272	0.3166	0.081
Mof_H 	H 	0.9732	0.5467	0.3131	0.048
Mof_H 	H 	0.2376	0.6908	0.1997	0.071
Mof_C 	C 	0.13304	0.65709	0.16629	-0.003
Mof_H 	H 	0.1093	0.6795	0.17	0.005
Mof_H 	H 	0.2218	0.5483	0.1842	0.178
Mof_H 	H 	0.2572	0.6029	0.2284	-0.092
Mof_O 	O 	0.282	0.523	0.24	0.476
Mof_H 	H 	0.2794	0.5466	0.2562	-0.107
Mof_H 	H 	0.2175	0.5212	0.2366	-0.386
Mof_H 	H 	0.2333	0.4865	0.2636	-0.724
Mof_N 	N 	0.53823	0.1139	0.73073	-0.288
Mof_N 	N 	0.64001	0.11828	0.69408	-0.292
Mof_C 	C 	0.52312	0.14494	0.7011	0.067
Mof_H 	H 	0.5421	0.1643	0.6826	-0.012
Mof_H 	H 	0.5266	0.0404	0.7843	0.052
Mof_H 	H 	0.5268	0.1007	0.8385	0.004
Mof_C 	C 	0.61643	0.11036	0.64928	-0.035
Mof_H 	H 	0.5842	0.1064	0.6447	0.011
Mof_H 	H 	0.7456	0.1117	0.7079	0.092
Mof_C 	C 	0.52336	0.11501	0.6835	-0.07
Mof_H 	H 	0.5428	0.1157	0.6571	0.027
Mof_H 	H 	0.4735	0.1272	0.8166	0.057
Mof_H 	H 	0.4732	0.0467	0.8131	0.029
Mof_H 	H 	0.7376	0.1908	0.6997	0.084
Mof_C 	C 	0.63304	0.15709	0.66629	-0.003
Mof_H 	H 	0.6093	0.1795	0.67	0.007
Mof_H 	H 	0.7218	0.0483	0.6842	0.177
Mof_H 	H 	0.7572	0.1029	0.7284	-0.103
Mof_O 	O 	0.782	0.023	0.74	0.521
Mof_H 	H 	0.7794	0.0466	0.7562	-0.119
Mof_H 	H 	0.7175	0.0212	0.7366	-0.379
Mof_H 	H 	0.7333	0.9865	0.7636	-0.741
Mof_N 	N 	0.96177	0.3861	0.23073	-0.284
Mof_N 	N 	0.85999	0.38172	0.19408	-0.292
Mof_C 	C 	0.97688	0.35506	0.2011	0.084
Mof_H 	H 	0.9579	0.3357	0.1826	-0.016
Mof_H 	H 	0.9734	0.4596	0.2843	0.077
Mof_H 	H 	0.9732	0.3993	0.3385	0.018
Mof_C 	C 	0.88357	0.38964	0.14928	-0.036
Mof_H 	H 	0.9158	0.3936	0.1447	0.013
Mof_H 	H 	0.7544	0.3883	0.2079	0.091
Mof_C 	C 	0.97664	0.38499	0.1835	-0.044
Mof_H 	H 	0.9572	0.3843	0.1571	0.022
Mof_H 	H 	0.0265	0.3728	0.3166	0.067
Mof_H 	H 	0.0268	0.4533	0.3131	0.035
Mof_H 	H 	0.7624	0.3092	0.1997	0.072
Mof_C 	C 	0.86696	0.34291	0.16629	-0.002
Mof_H 	H 	0.8907	0.3205	0.17	0.007
Mof_H 	H 	0.7782	0.4517	0.1842	0.178
Mof_H 	H 	0.7428	0.3971	0.2284	-0.092
Mof_O 	O 	0.718	0.477	0.24	0.476
Mof_H 	H 	0.7206	0.4534	0.2562	-0.107
Mof_H 	H 	0.7825	0.4788	0.2366	-0.386
Mof_H 	H 	0.7667	0.5135	0.2636	-0.724
Mof_N 	N 	0.46177	0.8861	0.73073	-0.289
Mof_N 	N 	0.35999	0.88172	0.69408	-0.293
Mof_C 	C 	0.47688	0.85506	0.7011	0.065
Mof_H 	H 	0.4579	0.8357	0.6826	-0.011
Mof_H 	H 	0.4734	0.9596	0.7843	0.063
Mof_H 	H 	0.4732	0.8993	0.8385	0.004
Mof_C 	C 	0.38357	0.88964	0.64928	-0.035
Mof_H 	H 	0.4158	0.8936	0.6447	0.012
Mof_H 	H 	0.2544	0.8883	0.7079	0.092
Mof_C 	C 	0.47664	0.88499	0.6835	-0.068
Mof_H 	H 	0.4572	0.8843	0.6571	0.028
Mof_H 	H 	0.5265	0.8728	0.8166	0.056
Mof_H 	H 	0.5268	0.9533	0.8131	0.036
Mof_H 	H 	0.2624	0.8092	0.6997	0.084
Mof_C 	C 	0.36696	0.84291	0.66629	-0.004
Mof_H 	H 	0.3907	0.8205	0.67	0.007
Mof_H 	H 	0.2782	0.9517	0.6842	0.185
Mof_H 	H 	0.2428	0.8971	0.7284	-0.103
Mof_O 	O 	0.218	0.977	0.74	0.554
Mof_H 	H 	0.2206	0.9534	0.7562	-0.128
Mof_H 	H 	0.2825	0.9788	0.7366	-0.37
Mof_H 	H 	0.2667	0.0135	0.7636	-0.751
Mof_N 	N 	0.96177	0.6139	0.76927	-0.284
Mof_N 	N 	0.85999	0.61828	0.80592	-0.292
Mof_C 	C 	0.97688	0.64494	0.7989	0.084
Mof_H 	H 	0.9579	0.6643	0.8174	-0.014
Mof_H 	H 	0.9734	0.5404	0.7157	0.077
Mof_H 	H 	0.9732	0.6007	0.6615	0.018
Mof_C 	C 	0.88357	0.61036	0.85072	-0.034
Mof_H 	H 	0.9158	0.6064	0.8553	0.015
Mof_H 	H 	0.7544	0.6117	0.7921	0.09
Mof_C 	C 	0.97664	0.61501	0.8165	-0.043
Mof_H 	H 	0.9572	0.6157	0.8429	0.024
Mof_H 	H 	0.0265	0.6272	0.6834	0.067
Mof_H 	H 	0.0268	0.5467	0.6869	0.035
Mof_H 	H 	0.7624	0.6908	0.8003	0.074
Mof_C 	C 	0.86696	0.65709	0.83371	-0.002
Mof_H 	H 	0.8907	0.6795	0.83	0.01
Mof_H 	H 	0.7782	0.5483	0.8158	0.178
Mof_H 	H 	0.7428	0.6029	0.7716	-0.092
Mof_O 	O 	0.718	0.523	0.76	0.476
Mof_H 	H 	0.7206	0.5466	0.7438	-0.107
Mof_H 	H 	0.7825	0.5212	0.7634	-0.386
Mof_H 	H 	0.7667	0.4865	0.7364	-0.724
Mof_N 	N 	0.46177	0.1139	0.26927	-0.288
Mof_N 	N 	0.35999	0.11828	0.30592	-0.292
Mof_C 	C 	0.47688	0.14494	0.2989	0.067
Mof_H 	H 	0.4579	0.1643	0.3174	-0.012
Mof_H 	H 	0.4734	0.0404	0.2157	0.053
Mof_H 	H 	0.4732	0.1007	0.1615	0.001
Mof_C 	C 	0.38357	0.11036	0.35072	-0.035
Mof_H 	H 	0.4158	0.1064	0.3553	0.011
Mof_H 	H 	0.2544	0.1117	0.2921	0.093
Mof_C 	C 	0.47664	0.11501	0.3165	-0.07
Mof_H 	H 	0.4572	0.1157	0.3429	0.027
Mof_H 	H 	0.5265	0.1272	0.1834	0.058
Mof_H 	H 	0.5268	0.0467	0.1869	0.026
Mof_H 	H 	0.2624	0.1908	0.3003	0.085
Mof_C 	C 	0.36696	0.15709	0.33371	-0.003
Mof_H 	H 	0.3907	0.1795	0.33	0.007
Mof_H 	H 	0.2782	0.0483	0.3158	0.177
Mof_H 	H 	0.2428	0.1029	0.2716	-0.105
Mof_O 	O 	0.218	0.023	0.26	0.522
Mof_H 	H 	0.2206	0.0466	0.2438	-0.122
Mof_H 	H 	0.2825	0.0212	0.2634	-0.379
Mof_H 	H 	0.2667	0.9865	0.2364	-0.74
Mof_N 	N 	0.76927	0.6139	0.96177	-0.284
Mof_N 	N 	0.80592	0.61828	0.85999	-0.292
Mof_C 	C 	0.7989	0.64494	0.97688	0.084
Mof_H 	H 	0.8174	0.6643	0.9579	-0.014
Mof_H 	H 	0.7157	0.5404	0.9734	0.077
Mof_H 	H 	0.6615	0.6007	0.9732	0.018
Mof_C 	C 	0.85072	0.61036	0.88357	-0.034
Mof_H 	H 	0.8553	0.6064	0.9158	0.015
Mof_H 	H 	0.7921	0.6117	0.7544	0.09
Mof_C 	C 	0.8165	0.61501	0.97664	-0.043
Mof_H 	H 	0.8429	0.6157	0.9572	0.024
Mof_H 	H 	0.6834	0.6272	0.0265	0.067
Mof_H 	H 	0.6869	0.5467	0.0268	0.035
Mof_H 	H 	0.8003	0.6908	0.7624	0.074
Mof_C 	C 	0.83371	0.65709	0.86696	-0.002
Mof_H 	H 	0.83	0.6795	0.8907	0.01
Mof_H 	H 	0.8158	0.5483	0.7782	0.178
Mof_H 	H 	0.7716	0.6029	0.7428	-0.092
Mof_O 	O 	0.76	0.523	0.718	0.476
Mof_H 	H 	0.7438	0.5466	0.7206	-0.107
Mof_H 	H 	0.7634	0.5212	0.7825	-0.386
Mof_H 	H 	0.7364	0.4865	0.7667	-0.724
Mof_N 	N 	0.26927	0.1139	0.46177	-0.288
Mof_N 	N 	0.30592	0.11828	0.35999	-0.292
Mof_C 	C 	0.2989	0.14494	0.47688	0.067
Mof_H 	H 	0.3174	0.1643	0.4579	-0.012
Mof_H 	H 	0.2157	0.0404	0.4734	0.053
Mof_H 	H 	0.1615	0.1007	0.4732	0.001
Mof_C 	C 	0.35072	0.11036	0.38357	-0.035
Mof_H 	H 	0.3553	0.1064	0.4158	0.011
Mof_H 	H 	0.2921	0.1117	0.2544	0.093
Mof_C 	C 	0.3165	0.11501	0.47664	-0.07
Mof_H 	H 	0.3429	0.1157	0.4572	0.027
Mof_H 	H 	0.1834	0.1272	0.5265	0.058
Mof_H 	H 	0.1869	0.0467	0.5268	0.026
Mof_H 	H 	0.3003	0.1908	0.2624	0.085
Mof_C 	C 	0.33371	0.15709	0.36696	-0.003
Mof_H 	H 	0.33	0.1795	0.3907	0.007
Mof_H 	H 	0.3158	0.0483	0.2782	0.177
Mof_H 	H 	0.2716	0.1029	0.2428	-0.105
Mof_O 	O 	0.26	0.023	0.218	0.522
Mof_H 	H 	0.2438	0.0466	0.2206	-0.122
Mof_H 	H 	0.2634	0.0212	0.2825	-0.379
Mof_H 	H 	0.2364	0.9865	0.2667	-0.74
Mof_N 	N 	0.23073	0.3861	0.96177	-0.284
Mof_N 	N 	0.19408	0.38172	0.85999	-0.292
Mof_C 	C 	0.2011	0.35506	0.97688	0.084
Mof_H 	H 	0.1826	0.3357	0.9579	-0.016
Mof_H 	H 	0.2843	0.4596	0.9734	0.077
Mof_H 	H 	0.3385	0.3993	0.9732	0.018
Mof_C 	C 	0.14928	0.38964	0.88357	-0.036
Mof_H 	H 	0.1447	0.3936	0.9158	0.013
Mof_H 	H 	0.2079	0.3883	0.7544	0.091
Mof_C 	C 	0.1835	0.38499	0.97664	-0.044
Mof_H 	H 	0.1571	0.3843	0.9572	0.022
Mof_H 	H 	0.3166	0.3728	0.0265	0.067
Mof_H 	H 	0.3131	0.4533	0.0268	0.035
Mof_H 	H 	0.1997	0.3092	0.7624	0.072
Mof_C 	C 	0.16629	0.34291	0.86696	-0.002
Mof_H 	H 	0.17	0.3205	0.8907	0.007
Mof_H 	H 	0.1842	0.4517	0.7782	0.178
Mof_H 	H 	0.2284	0.3971	0.7428	-0.092
Mof_O 	O 	0.24	0.477	0.718	0.476
Mof_H 	H 	0.2562	0.4534	0.7206	-0.107
Mof_H 	H 	0.2366	0.4788	0.7825	-0.386
Mof_H 	H 	0.2636	0.5135	0.7667	-0.724
Mof_N 	N 	0.73073	0.8861	0.46177	-0.289
Mof_N 	N 	0.69408	0.88172	0.35999	-0.293
Mof_C 	C 	0.7011	0.85506	0.47688	0.065
Mof_H 	H 	0.6826	0.8357	0.4579	-0.011
Mof_H 	H 	0.7843	0.9596	0.4734	0.063
Mof_H 	H 	0.8385	0.8993	0.4732	0.004
Mof_C 	C 	0.64928	0.88964	0.38357	-0.035
Mof_H 	H 	0.6447	0.8936	0.4158	0.012
Mof_H 	H 	0.7079	0.8883	0.2544	0.092
Mof_C 	C 	0.6835	0.88499	0.47664	-0.068
Mof_H 	H 	0.6571	0.8843	0.4572	0.028
Mof_H 	H 	0.8166	0.8728	0.5265	0.056
Mof_H 	H 	0.8131	0.9533	0.5268	0.036
Mof_H 	H 	0.6997	0.8092	0.2624	0.084
Mof_C 	C 	0.66629	0.84291	0.36696	-0.004
Mof_H 	H 	0.67	0.8205	0.3907	0.007
Mof_H 	H 	0.6842	0.9517	0.2782	0.185
Mof_H 	H 	0.7284	0.8971	0.2428	-0.103
Mof_O 	O 	0.74	0.977	0.218	0.554
Mof_H 	H 	0.7562	0.9534	0.2206	-0.128
Mof_H 	H 	0.7366	0.9788	0.2825	-0.37
Mof_H 	H 	0.7636	0.0135	0.2667	-0.751
Mof_N 	N 	0.23073	0.6139	0.03823	-0.283
Mof_N 	N 	0.19408	0.61828	0.14001	-0.292
Mof_C 	C 	0.2011	0.64494	0.02312	0.044
Mof_H 	H 	0.1826	0.6643	0.0421	-0.009
Mof_H 	H 	0.2843	0.5404	0.0266	0.064
Mof_H 	H 	0.3385	0.6007	0.0268	0.003
Mof_C 	C 	0.14928	0.61036	0.11643	-0.035
Mof_H 	H 	0.1447	0.6064	0.0842	0.008
Mof_H 	H 	0.2079	0.6117	0.2456	0.091
Mof_C 	C 	0.1835	0.61501	0.02336	-0.09
Mof_H 	H 	0.1571	0.6157	0.0428	0.03
Mof_H 	H 	0.3166	0.6272	0.9735	0.081
Mof_H 	H 	0.3131	0.5467	0.9732	0.048
Mof_H 	H 	0.1997	0.6908	0.2376	0.071
Mof_C 	C 	0.16629	0.65709	0.13304	-0.003
Mof_H 	H 	0.17	0.6795	0.1093	0.005
Mof_H 	H 	0.1842	0.5483	0.2218	0.178
Mof_H 	H 	0.2284	0.6029	0.2572	-0.092
Mof_O 	O 	0.24	0.523	0.282	0.476
Mof_H 	H 	0.2562	0.5466	0.2794	-0.107
Mof_H 	H 	0.2366	0.5212	0.2175	-0.386
Mof_H 	H 	0.2636	0.4865	0.2333	-0.724
Mof_N 	N 	0.73073	0.1139	0.53823	-0.288
Mof_N 	N 	0.69408	0.11828	0.64001	-0.292
Mof_C 	C 	0.7011	0.14494	0.52312	0.067
Mof_H 	H 	0.6826	0.1643	0.5421	-0.012
Mof_H 	H 	0.7843	0.0404	0.5266	0.052
Mof_H 	H 	0.8385	0.1007	0.5268	0.004
Mof_C 	C 	0.64928	0.11036	0.61643	-0.035
Mof_H 	H 	0.6447	0.1064	0.5842	0.011
Mof_H 	H 	0.7079	0.1117	0.7456	0.092
Mof_C 	C 	0.6835	0.11501	0.52336	-0.07
Mof_H 	H 	0.6571	0.1157	0.5428	0.027
Mof_H 	H 	0.8166	0.1272	0.4735	0.057
Mof_H 	H 	0.8131	0.0467	0.4732	0.029
Mof_H 	H 	0.6997	0.1908	0.7376	0.084
Mof_C 	C 	0.66629	0.15709	0.63304	-0.003
Mof_H 	H 	0.67	0.1795	0.6093	0.007
Mof_H 	H 	0.6842	0.0483	0.7218	0.177
Mof_H 	H 	0.7284	0.1029	0.7572	-0.103
Mof_O 	O 	0.74	0.023	0.782	0.521
Mof_H 	H 	0.7562	0.0466	0.7794	-0.119
Mof_H 	H 	0.7366	0.0212	0.7175	-0.379
Mof_H 	H 	0.7636	0.9865	0.7333	-0.741
Mof_N 	N 	0.76927	0.3861	0.03823	-0.283
Mof_N 	N 	0.80592	0.38172	0.14001	-0.292
Mof_C 	C 	0.7989	0.35506	0.02312	0.044
Mof_H 	H 	0.8174	0.3357	0.0421	-0.008
Mof_H 	H 	0.7157	0.4596	0.0266	0.064
Mof_H 	H 	0.6615	0.3993	0.0268	0.003
Mof_C 	C 	0.85072	0.38964	0.11643	-0.033
Mof_H 	H 	0.8553	0.3936	0.0842	0.009
Mof_H 	H 	0.7921	0.3883	0.2456	0.091
Mof_C 	C 	0.8165	0.38499	0.02336	-0.09
Mof_H 	H 	0.8429	0.3843	0.0428	0.032
Mof_H 	H 	0.6834	0.3728	0.9735	0.082
Mof_H 	H 	0.6869	0.4533	0.9732	0.048
Mof_H 	H 	0.8003	0.3092	0.2376	0.073
Mof_C 	C 	0.83371	0.34291	0.13304	-0.003
Mof_H 	H 	0.83	0.3205	0.1093	0.006
Mof_H 	H 	0.8158	0.4517	0.2218	0.178
Mof_H 	H 	0.7716	0.3971	0.2572	-0.092
Mof_O 	O 	0.76	0.477	0.282	0.476
Mof_H 	H 	0.7438	0.4534	0.2794	-0.107
Mof_H 	H 	0.7634	0.4788	0.2175	-0.386
Mof_H 	H 	0.7364	0.5135	0.2333	-0.724
Mof_N 	N 	0.26927	0.8861	0.53823	-0.289
Mof_N 	N 	0.30592	0.88172	0.64001	-0.293
Mof_C 	C 	0.2989	0.85506	0.52312	0.065
Mof_H 	H 	0.3174	0.8357	0.5421	-0.011
Mof_H 	H 	0.2157	0.9596	0.5266	0.065
Mof_H 	H 	0.1615	0.8993	0.5268	0.002
Mof_C 	C 	0.35072	0.88964	0.61643	-0.035
Mof_H 	H 	0.3553	0.8936	0.5842	0.012
Mof_H 	H 	0.2921	0.8883	0.7456	0.092
Mof_C 	C 	0.3165	0.88499	0.52336	-0.068
Mof_H 	H 	0.3429	0.8843	0.5428	0.028
Mof_H 	H 	0.1834	0.8728	0.4735	0.057
Mof_H 	H 	0.1869	0.9533	0.4732	0.034
Mof_H 	H 	0.3003	0.8092	0.7376	0.083
Mof_C 	C 	0.33371	0.84291	0.63304	-0.004
Mof_H 	H 	0.33	0.8205	0.6093	0.007
Mof_H 	H 	0.3158	0.9517	0.7218	0.185
Mof_H 	H 	0.2716	0.8971	0.7572	-0.103
Mof_O 	O 	0.26	0.977	0.782	0.554
Mof_H 	H 	0.2438	0.9534	0.7794	-0.128
Mof_H 	H 	0.2634	0.9788	0.7175	-0.37
Mof_H 	H 	0.2364	0.0135	0.7333	-0.751
Mof_N 	N 	0.96177	0.76927	0.6139	-0.284
Mof_N 	N 	0.85999	0.80592	0.61828	-0.292
Mof_C 	C 	0.97688	0.7989	0.64494	0.084
Mof_H 	H 	0.9579	0.8174	0.6643	-0.014
Mof_H 	H 	0.9734	0.7157	0.5404	0.077
Mof_H 	H 	0.9732	0.6615	0.6007	0.018
Mof_C 	C 	0.88357	0.85072	0.61036	-0.034
Mof_H 	H 	0.9158	0.8553	0.6064	0.015
Mof_H 	H 	0.7544	0.7921	0.6117	0.09
Mof_C 	C 	0.97664	0.8165	0.61501	-0.043
Mof_H 	H 	0.9572	0.8429	0.6157	0.024
Mof_H 	H 	0.0265	0.6834	0.6272	0.067
Mof_H 	H 	0.0268	0.6869	0.5467	0.035
Mof_H 	H 	0.7624	0.8003	0.6908	0.074
Mof_C 	C 	0.86696	0.83371	0.65709	-0.002
Mof_H 	H 	0.8907	0.83	0.6795	0.01
Mof_H 	H 	0.7782	0.8158	0.5483	0.178
Mof_H 	H 	0.7428	0.7716	0.6029	-0.092
Mof_O 	O 	0.718	0.76	0.523	0.476
Mof_H 	H 	0.7206	0.7438	0.5466	-0.107
Mof_H 	H 	0.7825	0.7634	0.5212	-0.386
Mof_H 	H 	0.7667	0.7364	0.4865	-0.724
Mof_N 	N 	0.46177	0.26927	0.1139	-0.288
Mof_N 	N 	0.35999	0.30592	0.11828	-0.292
Mof_C 	C 	0.47688	0.2989	0.14494	0.067
Mof_H 	H 	0.4579	0.3174	0.1643	-0.012
Mof_H 	H 	0.4734	0.2157	0.0404	0.053
Mof_H 	H 	0.4732	0.1615	0.1007	0.001
Mof_C 	C 	0.38357	0.35072	0.11036	-0.035
Mof_H 	H 	0.4158	0.3553	0.1064	0.011
Mof_H 	H 	0.2544	0.2921	0.1117	0.093
Mof_C 	C 	0.47664	0.3165	0.11501	-0.07
Mof_H 	H 	0.4572	0.3429	0.1157	0.027
Mof_H 	H 	0.5265	0.1834	0.1272	0.058
Mof_H 	H 	0.5268	0.1869	0.0467	0.026
Mof_H 	H 	0.2624	0.3003	0.1908	0.085
Mof_C 	C 	0.36696	0.33371	0.15709	-0.003
Mof_H 	H 	0.3907	0.33	0.1795	0.007
Mof_H 	H 	0.2782	0.3158	0.0483	0.177
Mof_H 	H 	0.2428	0.2716	0.1029	-0.105
Mof_O 	O 	0.218	0.26	0.023	0.522
Mof_H 	H 	0.2206	0.2438	0.0466	-0.122
Mof_H 	H 	0.2825	0.2634	0.0212	-0.379
Mof_H 	H 	0.2667	0.2364	0.9865	-0.74
Mof_N 	N 	0.96177	0.23073	0.3861	-0.284
Mof_N 	N 	0.85999	0.19408	0.38172	-0.292
Mof_C 	C 	0.97688	0.2011	0.35506	0.084
Mof_H 	H 	0.9579	0.1826	0.3357	-0.016
Mof_H 	H 	0.9734	0.2843	0.4596	0.077
Mof_H 	H 	0.9732	0.3385	0.3993	0.018
Mof_C 	C 	0.88357	0.14928	0.38964	-0.036
Mof_H 	H 	0.9158	0.1447	0.3936	0.013
Mof_H 	H 	0.7544	0.2079	0.3883	0.091
Mof_C 	C 	0.97664	0.1835	0.38499	-0.044
Mof_H 	H 	0.9572	0.1571	0.3843	0.022
Mof_H 	H 	0.0265	0.3166	0.3728	0.067
Mof_H 	H 	0.0268	0.3131	0.4533	0.035
Mof_H 	H 	0.7624	0.1997	0.3092	0.072
Mof_C 	C 	0.86696	0.16629	0.34291	-0.002
Mof_H 	H 	0.8907	0.17	0.3205	0.007
Mof_H 	H 	0.7782	0.1842	0.4517	0.178
Mof_H 	H 	0.7428	0.2284	0.3971	-0.092
Mof_O 	O 	0.718	0.24	0.477	0.476
Mof_H 	H 	0.7206	0.2562	0.4534	-0.107
Mof_H 	H 	0.7825	0.2366	0.4788	-0.386
Mof_H 	H 	0.7667	0.2636	0.5135	-0.724
Mof_N 	N 	0.46177	0.73073	0.8861	-0.289
Mof_N 	N 	0.35999	0.69408	0.88172	-0.293
Mof_C 	C 	0.47688	0.7011	0.85506	0.065
Mof_H 	H 	0.4579	0.6826	0.8357	-0.011
Mof_H 	H 	0.4734	0.7843	0.9596	0.063
Mof_H 	H 	0.4732	0.8385	0.8993	0.004
Mof_C 	C 	0.38357	0.64928	0.88964	-0.035
Mof_H 	H 	0.4158	0.6447	0.8936	0.012
Mof_H 	H 	0.2544	0.7079	0.8883	0.092
Mof_C 	C 	0.47664	0.6835	0.88499	-0.068
Mof_H 	H 	0.4572	0.6571	0.8843	0.028
Mof_H 	H 	0.5265	0.8166	0.8728	0.056
Mof_H 	H 	0.5268	0.8131	0.9533	0.036
Mof_H 	H 	0.2624	0.6997	0.8092	0.084
Mof_C 	C 	0.36696	0.66629	0.84291	-0.004
Mof_H 	H 	0.3907	0.67	0.8205	0.007
Mof_H 	H 	0.2782	0.6842	0.9517	0.185
Mof_H 	H 	0.2428	0.7284	0.8971	-0.103
Mof_O 	O 	0.218	0.74	0.977	0.554
Mof_H 	H 	0.2206	0.7562	0.9534	-0.128
Mof_H 	H 	0.2825	0.7366	0.9788	-0.37
Mof_H 	H 	0.2667	0.7636	0.0135	-0.751
Mof_N 	N 	0.03823	0.23073	0.6139	-0.283
Mof_N 	N 	0.14001	0.19408	0.61828	-0.292
Mof_C 	C 	0.02312	0.2011	0.64494	0.044
Mof_H 	H 	0.0421	0.1826	0.6643	-0.009
Mof_H 	H 	0.0266	0.2843	0.5404	0.064
Mof_H 	H 	0.0268	0.3385	0.6007	0.003
Mof_C 	C 	0.11643	0.14928	0.61036	-0.035
Mof_H 	H 	0.0842	0.1447	0.6064	0.008
Mof_H 	H 	0.2456	0.2079	0.6117	0.091
Mof_C 	C 	0.02336	0.1835	0.61501	-0.09
Mof_H 	H 	0.0428	0.1571	0.6157	0.03
Mof_H 	H 	0.9735	0.3166	0.6272	0.081
Mof_H 	H 	0.9732	0.3131	0.5467	0.048
Mof_H 	H 	0.2376	0.1997	0.6908	0.071
Mof_C 	C 	0.13304	0.16629	0.65709	-0.003
Mof_H 	H 	0.1093	0.17	0.6795	0.005
Mof_H 	H 	0.2218	0.1842	0.5483	0.178
Mof_H 	H 	0.2572	0.2284	0.6029	-0.092
Mof_O 	O 	0.282	0.24	0.523	0.476
Mof_H 	H 	0.2794	0.2562	0.5466	-0.107
Mof_H 	H 	0.2175	0.2366	0.5212	-0.386
Mof_H 	H 	0.2333	0.2636	0.4865	-0.724
Mof_N 	N 	0.53823	0.73073	0.1139	-0.288
Mof_N 	N 	0.64001	0.69408	0.11828	-0.292
Mof_C 	C 	0.52312	0.7011	0.14494	0.067
Mof_H 	H 	0.5421	0.6826	0.1643	-0.012
Mof_H 	H 	0.5266	0.7843	0.0404	0.052
Mof_H 	H 	0.5268	0.8385	0.1007	0.004
Mof_C 	C 	0.61643	0.64928	0.11036	-0.035
Mof_H 	H 	0.5842	0.6447	0.1064	0.011
Mof_H 	H 	0.7456	0.7079	0.1117	0.092
Mof_C 	C 	0.52336	0.6835	0.11501	-0.07
Mof_H 	H 	0.5428	0.6571	0.1157	0.027
Mof_H 	H 	0.4735	0.8166	0.1272	0.057
Mof_H 	H 	0.4732	0.8131	0.0467	0.029
Mof_H 	H 	0.7376	0.6997	0.1908	0.084
Mof_C 	C 	0.63304	0.66629	0.15709	-0.003
Mof_H 	H 	0.6093	0.67	0.1795	0.007
Mof_H 	H 	0.7218	0.6842	0.0483	0.177
Mof_H 	H 	0.7572	0.7284	0.1029	-0.103
Mof_O 	O 	0.782	0.74	0.023	0.521
Mof_H 	H 	0.7794	0.7562	0.0466	-0.119
Mof_H 	H 	0.7175	0.7366	0.0212	-0.379
Mof_H 	H 	0.7333	0.7636	0.9865	-0.741
Mof_N 	N 	0.03823	0.76927	0.3861	-0.283
Mof_N 	N 	0.14001	0.80592	0.38172	-0.292
Mof_C 	C 	0.02312	0.7989	0.35506	0.044
Mof_H 	H 	0.0421	0.8174	0.3357	-0.008
Mof_H 	H 	0.0266	0.7157	0.4596	0.064
Mof_H 	H 	0.0268	0.6615	0.3993	0.003
Mof_C 	C 	0.11643	0.85072	0.38964	-0.033
Mof_H 	H 	0.0842	0.8553	0.3936	0.009
Mof_H 	H 	0.2456	0.7921	0.3883	0.091
Mof_C 	C 	0.02336	0.8165	0.38499	-0.09
Mof_H 	H 	0.0428	0.8429	0.3843	0.032
Mof_H 	H 	0.9735	0.6834	0.3728	0.082
Mof_H 	H 	0.9732	0.6869	0.4533	0.048
Mof_H 	H 	0.2376	0.8003	0.3092	0.073
Mof_C 	C 	0.13304	0.83371	0.34291	-0.003
Mof_H 	H 	0.1093	0.83	0.3205	0.006
Mof_H 	H 	0.2218	0.8158	0.4517	0.178
Mof_H 	H 	0.2572	0.7716	0.3971	-0.092
Mof_O 	O 	0.282	0.76	0.477	0.476
Mof_H 	H 	0.2794	0.7438	0.4534	-0.107
Mof_H 	H 	0.2175	0.7634	0.4788	-0.386
Mof_H 	H 	0.2333	0.7364	0.5135	-0.724
Mof_N 	N 	0.53823	0.26927	0.8861	-0.289
Mof_N 	N 	0.64001	0.30592	0.88172	-0.293
Mof_C 	C 	0.52312	0.2989	0.85506	0.065
Mof_H 	H 	0.5421	0.3174	0.8357	-0.011
Mof_H 	H 	0.5266	0.2157	0.9596	0.065
Mof_H 	H 	0.5268	0.1615	0.8993	0.002
Mof_C 	C 	0.61643	0.35072	0.88964	-0.035
Mof_H 	H 	0.5842	0.3553	0.8936	0.012
Mof_H 	H 	0.7456	0.2921	0.8883	0.092
Mof_C 	C 	0.52336	0.3165	0.88499	-0.068
Mof_H 	H 	0.5428	0.3429	0.8843	0.028
Mof_H 	H 	0.4735	0.1834	0.8728	0.057
Mof_H 	H 	0.4732	0.1869	0.9533	0.034
Mof_H 	H 	0.7376	0.3003	0.8092	0.083
Mof_C 	C 	0.63304	0.33371	0.84291	-0.004
Mof_H 	H 	0.6093	0.33	0.8205	0.007
Mof_H 	H 	0.7218	0.3158	0.9517	0.185
Mof_H 	H 	0.7572	0.2716	0.8971	-0.103
Mof_O 	O 	0.782	0.26	0.977	0.554
Mof_H 	H 	0.7794	0.2438	0.9534	-0.128
Mof_H 	H 	0.7175	0.2634	0.9788	-0.37
Mof_H 	H 	0.7333	0.2364	0.0135	-0.751
Mof_N 	N 	0.6139	0.96177	0.76927	-0.284
Mof_N 	N 	0.61828	0.85999	0.80592	-0.292
Mof_C 	C 	0.64494	0.97688	0.7989	0.084
Mof_H 	H 	0.6643	0.9579	0.8174	-0.014
Mof_H 	H 	0.5404	0.9734	0.7157	0.077
Mof_H 	H 	0.6007	0.9732	0.6615	0.018
Mof_C 	C 	0.61036	0.88357	0.85072	-0.034
Mof_H 	H 	0.6064	0.9158	0.8553	0.015
Mof_H 	H 	0.6117	0.7544	0.7921	0.09
Mof_C 	C 	0.61501	0.97664	0.8165	-0.043
Mof_H 	H 	0.6157	0.9572	0.8429	0.024
Mof_H 	H 	0.6272	0.0265	0.6834	0.067
Mof_H 	H 	0.5467	0.0268	0.6869	0.035
Mof_H 	H 	0.6908	0.7624	0.8003	0.074
Mof_C 	C 	0.65709	0.86696	0.83371	-0.002
Mof_H 	H 	0.6795	0.8907	0.83	0.01
Mof_H 	H 	0.5483	0.7782	0.8158	0.178
Mof_H 	H 	0.6029	0.7428	0.7716	-0.092
Mof_O 	O 	0.523	0.718	0.76	0.476
Mof_H 	H 	0.5466	0.7206	0.7438	-0.107
Mof_H 	H 	0.5212	0.7825	0.7634	-0.386
Mof_H 	H 	0.4865	0.7667	0.7364	-0.724
Mof_N 	N 	0.1139	0.46177	0.26927	-0.288
Mof_N 	N 	0.11828	0.35999	0.30592	-0.292
Mof_C 	C 	0.14494	0.47688	0.2989	0.067
Mof_H 	H 	0.1643	0.4579	0.3174	-0.012
Mof_H 	H 	0.0404	0.4734	0.2157	0.053
Mof_H 	H 	0.1007	0.4732	0.1615	0.001
Mof_C 	C 	0.11036	0.38357	0.35072	-0.035
Mof_H 	H 	0.1064	0.4158	0.3553	0.011
Mof_H 	H 	0.1117	0.2544	0.2921	0.093
Mof_C 	C 	0.11501	0.47664	0.3165	-0.07
Mof_H 	H 	0.1157	0.4572	0.3429	0.027
Mof_H 	H 	0.1272	0.5265	0.1834	0.058
Mof_H 	H 	0.0467	0.5268	0.1869	0.026
Mof_H 	H 	0.1908	0.2624	0.3003	0.085
Mof_C 	C 	0.15709	0.36696	0.33371	-0.003
Mof_H 	H 	0.1795	0.3907	0.33	0.007
Mof_H 	H 	0.0483	0.2782	0.3158	0.177
Mof_H 	H 	0.1029	0.2428	0.2716	-0.105
Mof_O 	O 	0.023	0.218	0.26	0.522
Mof_H 	H 	0.0466	0.2206	0.2438	-0.122
Mof_H 	H 	0.0212	0.2825	0.2634	-0.379
Mof_H 	H 	0.9865	0.2667	0.2364	-0.74
Mof_N 	N 	0.3861	0.96177	0.23073	-0.284
Mof_N 	N 	0.38172	0.85999	0.19408	-0.292
Mof_C 	C 	0.35506	0.97688	0.2011	0.084
Mof_H 	H 	0.3357	0.9579	0.1826	-0.016
Mof_H 	H 	0.4596	0.9734	0.2843	0.077
Mof_H 	H 	0.3993	0.9732	0.3385	0.018
Mof_C 	C 	0.38964	0.88357	0.14928	-0.036
Mof_H 	H 	0.3936	0.9158	0.1447	0.013
Mof_H 	H 	0.3883	0.7544	0.2079	0.091
Mof_C 	C 	0.38499	0.97664	0.1835	-0.044
Mof_H 	H 	0.3843	0.9572	0.1571	0.022
Mof_H 	H 	0.3728	0.0265	0.3166	0.067
Mof_H 	H 	0.4533	0.0268	0.3131	0.035
Mof_H 	H 	0.3092	0.7624	0.1997	0.072
Mof_C 	C 	0.34291	0.86696	0.16629	-0.002
Mof_H 	H 	0.3205	0.8907	0.17	0.007
Mof_H 	H 	0.4517	0.7782	0.1842	0.178
Mof_H 	H 	0.3971	0.7428	0.2284	-0.092
Mof_O 	O 	0.477	0.718	0.24	0.476
Mof_H 	H 	0.4534	0.7206	0.2562	-0.107
Mof_H 	H 	0.4788	0.7825	0.2366	-0.386
Mof_H 	H 	0.5135	0.7667	0.2636	-0.724
Mof_N 	N 	0.8861	0.46177	0.73073	-0.289
Mof_N 	N 	0.88172	0.35999	0.69408	-0.293
Mof_C 	C 	0.85506	0.47688	0.7011	0.065
Mof_H 	H 	0.8357	0.4579	0.6826	-0.011
Mof_H 	H 	0.9596	0.4734	0.7843	0.063
Mof_H 	H 	0.8993	0.4732	0.8385	0.004
Mof_C 	C 	0.88964	0.38357	0.64928	-0.035
Mof_H 	H 	0.8936	0.4158	0.6447	0.012
Mof_H 	H 	0.8883	0.2544	0.7079	0.092
Mof_C 	C 	0.88499	0.47664	0.6835	-0.068
Mof_H 	H 	0.8843	0.4572	0.6571	0.028
Mof_H 	H 	0.8728	0.5265	0.8166	0.056
Mof_H 	H 	0.9533	0.5268	0.8131	0.036
Mof_H 	H 	0.8092	0.2624	0.6997	0.084
Mof_C 	C 	0.84291	0.36696	0.66629	-0.004
Mof_H 	H 	0.8205	0.3907	0.67	0.007
Mof_H 	H 	0.9517	0.2782	0.6842	0.185
Mof_H 	H 	0.8971	0.2428	0.7284	-0.103
Mof_O 	O 	0.977	0.218	0.74	0.554
Mof_H 	H 	0.9534	0.2206	0.7562	-0.128
Mof_H 	H 	0.9788	0.2825	0.7366	-0.37
Mof_H 	H 	0.0135	0.2667	0.7636	-0.751
Mof_N 	N 	0.6139	0.03823	0.23073	-0.283
Mof_N 	N 	0.61828	0.14001	0.19408	-0.292
Mof_C 	C 	0.64494	0.02312	0.2011	0.044
Mof_H 	H 	0.6643	0.0421	0.1826	-0.009
Mof_H 	H 	0.5404	0.0266	0.2843	0.064
Mof_H 	H 	0.6007	0.0268	0.3385	0.003
Mof_C 	C 	0.61036	0.11643	0.14928	-0.035
Mof_H 	H 	0.6064	0.0842	0.1447	0.008
Mof_H 	H 	0.6117	0.2456	0.2079	0.091
Mof_C 	C 	0.61501	0.02336	0.1835	-0.09
Mof_H 	H 	0.6157	0.0428	0.1571	0.03
Mof_H 	H 	0.6272	0.9735	0.3166	0.081
Mof_H 	H 	0.5467	0.9732	0.3131	0.048
Mof_H 	H 	0.6908	0.2376	0.1997	0.071
Mof_C 	C 	0.65709	0.13304	0.16629	-0.003
Mof_H 	H 	0.6795	0.1093	0.17	0.005
Mof_H 	H 	0.5483	0.2218	0.1842	0.178
Mof_H 	H 	0.6029	0.2572	0.2284	-0.092
Mof_O 	O 	0.523	0.282	0.24	0.476
Mof_H 	H 	0.5466	0.2794	0.2562	-0.107
Mof_H 	H 	0.5212	0.2175	0.2366	-0.386
Mof_H 	H 	0.4865	0.2333	0.2636	-0.724
Mof_N 	N 	0.1139	0.53823	0.73073	-0.288
Mof_N 	N 	0.11828	0.64001	0.69408	-0.292
Mof_C 	C 	0.14494	0.52312	0.7011	0.067
Mof_H 	H 	0.1643	0.5421	0.6826	-0.012
Mof_H 	H 	0.0404	0.5266	0.7843	0.052
Mof_H 	H 	0.1007	0.5268	0.8385	0.004
Mof_C 	C 	0.11036	0.61643	0.64928	-0.035
Mof_H 	H 	0.1064	0.5842	0.6447	0.011
Mof_H 	H 	0.1117	0.7456	0.7079	0.092
Mof_C 	C 	0.11501	0.52336	0.6835	-0.07
Mof_H 	H 	0.1157	0.5428	0.6571	0.027
Mof_H 	H 	0.1272	0.4735	0.8166	0.057
Mof_H 	H 	0.0467	0.4732	0.8131	0.029
Mof_H 	H 	0.1908	0.7376	0.6997	0.084
Mof_C 	C 	0.15709	0.63304	0.66629	-0.003
Mof_H 	H 	0.1795	0.6093	0.67	0.007
Mof_H 	H 	0.0483	0.7218	0.6842	0.177
Mof_H 	H 	0.1029	0.7572	0.7284	-0.103
Mof_O 	O 	0.023	0.782	0.74	0.521
Mof_H 	H 	0.0466	0.7794	0.7562	-0.119
Mof_H 	H 	0.0212	0.7175	0.7366	-0.379
Mof_H 	H 	0.9865	0.7333	0.7636	-0.741
Mof_N 	N 	0.3861	0.03823	0.76927	-0.283
Mof_N 	N 	0.38172	0.14001	0.80592	-0.292
Mof_C 	C 	0.35506	0.02312	0.7989	0.044
Mof_H 	H 	0.3357	0.0421	0.8174	-0.008
Mof_H 	H 	0.4596	0.0266	0.7157	0.064
Mof_H 	H 	0.3993	0.0268	0.6615	0.003
Mof_C 	C 	0.38964	0.11643	0.85072	-0.033
Mof_H 	H 	0.3936	0.0842	0.8553	0.009
Mof_H 	H 	0.3883	0.2456	0.7921	0.091
Mof_C 	C 	0.38499	0.02336	0.8165	-0.09
Mof_H 	H 	0.3843	0.0428	0.8429	0.032
Mof_H 	H 	0.3728	0.9735	0.6834	0.082
Mof_H 	H 	0.4533	0.9732	0.6869	0.048
Mof_H 	H 	0.3092	0.2376	0.8003	0.073
Mof_C 	C 	0.34291	0.13304	0.83371	-0.003
Mof_H 	H 	0.3205	0.1093	0.83	0.006
Mof_H 	H 	0.4517	0.2218	0.8158	0.178
Mof_H 	H 	0.3971	0.2572	0.7716	-0.092
Mof_O 	O 	0.477	0.282	0.76	0.476
Mof_H 	H 	0.4534	0.2794	0.7438	-0.107
Mof_H 	H 	0.4788	0.2175	0.7634	-0.386
Mof_H 	H 	0.5135	0.2333	0.7364	-0.724
Mof_N 	N 	0.8861	0.53823	0.26927	-0.289
Mof_N 	N 	0.88172	0.64001	0.30592	-0.293
Mof_C 	C 	0.85506	0.52312	0.2989	0.065
Mof_H 	H 	0.8357	0.5421	0.3174	-0.011
Mof_H 	H 	0.9596	0.5266	0.2157	0.065
Mof_H 	H 	0.8993	0.5268	0.1615	0.002
Mof_C 	C 	0.88964	0.61643	0.35072	-0.035
Mof_H 	H 	0.8936	0.5842	0.3553	0.012
Mof_H 	H 	0.8883	0.7456	0.2921	0.092
Mof_C 	C 	0.88499	0.52336	0.3165	-0.068
Mof_H 	H 	0.8843	0.5428	0.3429	0.028
Mof_H 	H 	0.8728	0.4735	0.1834	0.057
Mof_H 	H 	0.9533	0.4732	0.1869	0.034
Mof_H 	H 	0.8092	0.7376	0.3003	0.083
Mof_C 	C 	0.84291	0.63304	0.33371	-0.004
Mof_H 	H 	0.8205	0.6093	0.33	0.007
Mof_H 	H 	0.9517	0.7218	0.3158	0.185
Mof_H 	H 	0.8971	0.7572	0.2716	-0.103
Mof_O 	O 	0.977	0.782	0.26	0.554
Mof_H 	H 	0.9534	0.7794	0.2438	-0.128
Mof_H 	H 	0.9788	0.7175	0.2634	-0.37
Mof_H 	H 	0.0135	0.7333	0.2364	-0.751
Mof_N 	N 	0.6139	0.76927	0.03823	-0.283
Mof_N 	N 	0.61828	0.80592	0.14001	-0.292
Mof_C 	C 	0.64494	0.7989	0.02312	0.044
Mof_H 	H 	0.6643	0.8174	0.0421	-0.008
Mof_H 	H 	0.5404	0.7157	0.0266	0.064
Mof_H 	H 	0.6007	0.6615	0.0268	0.003
Mof_C 	C 	0.61036	0.85072	0.11643	-0.033
Mof_H 	H 	0.6064	0.8553	0.0842	0.01
Mof_H 	H 	0.6117	0.7921	0.2456	0.091
Mof_C 	C 	0.61501	0.8165	0.02336	-0.09
Mof_H 	H 	0.6157	0.8429	0.0428	0.032
Mof_H 	H 	0.6272	0.6834	0.9735	0.082
Mof_H 	H 	0.5467	0.6869	0.9732	0.048
Mof_H 	H 	0.6908	0.8003	0.2376	0.073
Mof_C 	C 	0.65709	0.83371	0.13304	-0.003
Mof_H 	H 	0.6795	0.83	0.1093	0.007
Mof_H 	H 	0.5483	0.8158	0.2218	0.178
Mof_H 	H 	0.6029	0.7716	0.2572	-0.092
Mof_O 	O 	0.523	0.76	0.282	0.476
Mof_H 	H 	0.5466	0.7438	0.2794	-0.107
Mof_H 	H 	0.5212	0.7634	0.2175	-0.386
Mof_H 	H 	0.4865	0.7364	0.2333	-0.724
Mof_N 	N 	0.1139	0.26927	0.53823	-0.288
Mof_N 	N 	0.11828	0.30592	0.64001	-0.292
Mof_C 	C 	0.14494	0.2989	0.52312	0.067
Mof_H 	H 	0.1643	0.3174	0.5421	-0.012
Mof_H 	H 	0.0404	0.2157	0.5266	0.053
Mof_H 	H 	0.1007	0.1615	0.5268	0.001
Mof_C 	C 	0.11036	0.35072	0.61643	-0.035
Mof_H 	H 	0.1064	0.3553	0.5842	0.011
Mof_H 	H 	0.1117	0.2921	0.7456	0.092
Mof_C 	C 	0.11501	0.3165	0.52336	-0.07
Mof_H 	H 	0.1157	0.3429	0.5428	0.027
Mof_H 	H 	0.1272	0.1834	0.4735	0.058
Mof_H 	H 	0.0467	0.1869	0.4732	0.026
Mof_H 	H 	0.1908	0.3003	0.7376	0.084
Mof_C 	C 	0.15709	0.33371	0.63304	-0.003
Mof_H 	H 	0.1795	0.33	0.6093	0.007
Mof_H 	H 	0.0483	0.3158	0.7218	0.177
Mof_H 	H 	0.1029	0.2716	0.7572	-0.104
Mof_O 	O 	0.023	0.26	0.782	0.521
Mof_H 	H 	0.0466	0.2438	0.7794	-0.12
Mof_H 	H 	0.0212	0.2634	0.7175	-0.379
Mof_H 	H 	0.9865	0.2364	0.7333	-0.74
Mof_N 	N 	0.3861	0.23073	0.03823	-0.283
Mof_N 	N 	0.38172	0.19408	0.14001	-0.292
Mof_C 	C 	0.35506	0.2011	0.02312	0.044
Mof_H 	H 	0.3357	0.1826	0.0421	-0.01
Mof_H 	H 	0.4596	0.2843	0.0266	0.064
Mof_H 	H 	0.3993	0.3385	0.0268	0.003
Mof_C 	C 	0.38964	0.14928	0.11643	-0.035
Mof_H 	H 	0.3936	0.1447	0.0842	0.008
Mof_H 	H 	0.3883	0.2079	0.2456	0.091
Mof_C 	C 	0.38499	0.1835	0.02336	-0.09
Mof_H 	H 	0.3843	0.1571	0.0428	0.03
Mof_H 	H 	0.3728	0.3166	0.9735	0.081
Mof_H 	H 	0.4533	0.3131	0.9732	0.048
Mof_H 	H 	0.3092	0.1997	0.2376	0.071
Mof_C 	C 	0.34291	0.16629	0.13304	-0.003
Mof_H 	H 	0.3205	0.17	0.1093	0.004
Mof_H 	H 	0.4517	0.1842	0.2218	0.178
Mof_H 	H 	0.3971	0.2284	0.2572	-0.092
Mof_O 	O 	0.477	0.24	0.282	0.476
Mof_H 	H 	0.4534	0.2562	0.2794	-0.107
Mof_H 	H 	0.4788	0.2366	0.2175	-0.386
Mof_H 	H 	0.5135	0.2636	0.2333	-0.724
Mof_N 	N 	0.8861	0.73073	0.53823	-0.289
Mof_N 	N 	0.88172	0.69408	0.64001	-0.293
Mof_C 	C 	0.85506	0.7011	0.52312	0.065
Mof_H 	H 	0.8357	0.6826	0.5421	-0.011
Mof_H 	H 	0.9596	0.7843	0.5266	0.063
Mof_H 	H 	0.8993	0.8385	0.5268	0.004
Mof_C 	C 	0.88964	0.64928	0.61643	-0.035
Mof_H 	H 	0.8936	0.6447	0.5842	0.012
Mof_H 	H 	0.8883	0.7079	0.7456	0.092
Mof_C 	C 	0.88499	0.6835	0.52336	-0.068
Mof_H 	H 	0.8843	0.6571	0.5428	0.028
Mof_H 	H 	0.8728	0.8166	0.4735	0.056
Mof_H 	H 	0.9533	0.8131	0.4732	0.036
Mof_H 	H 	0.8092	0.6997	0.7376	0.083
Mof_C 	C 	0.84291	0.66629	0.63304	-0.004
Mof_H 	H 	0.8205	0.67	0.6093	0.007
Mof_H 	H 	0.9517	0.6842	0.7218	0.185
Mof_H 	H 	0.8971	0.7284	0.7572	-0.102
Mof_O 	O 	0.977	0.74	0.782	0.554
Mof_H 	H 	0.9534	0.7562	0.7794	-0.127
Mof_H 	H 	0.9788	0.7366	0.7175	-0.37
Mof_H 	H 	0.0135	0.7636	0.7333	-0.752
Mof_N 	N 	0.6139	0.23073	0.96177	-0.284
Mof_N 	N 	0.61828	0.19408	0.85999	-0.292
Mof_C 	C 	0.64494	0.2011	0.97688	0.084
Mof_H 	H 	0.6643	0.1826	0.9579	-0.016
Mof_H 	H 	0.5404	0.2843	0.9734	0.077
Mof_H 	H 	0.6007	0.3385	0.9732	0.018
Mof_C 	C 	0.61036	0.14928	0.88357	-0.036
Mof_H 	H 	0.6064	0.1447	0.9158	0.013
Mof_H 	H 	0.6117	0.2079	0.7544	0.091
Mof_C 	C 	0.61501	0.1835	0.97664	-0.044
Mof_H 	H 	0.6157	0.1571	0.9572	0.022
Mof_H 	H 	0.6272	0.3166	0.0265	0.067
Mof_H 	H 	0.5467	0.3131	0.0268	0.035
Mof_H 	H 	0.6908	0.1997	0.7624	0.073
Mof_C 	C 	0.65709	0.16629	0.86696	-0.002
Mof_H 	H 	0.6795	0.17	0.8907	0.008
Mof_H 	H 	0.5483	0.1842	0.7782	0.178
Mof_H 	H 	0.6029	0.2284	0.7428	-0.092
Mof_O 	O 	0.523	0.24	0.718	0.476
Mof_H 	H 	0.5466	0.2562	0.7206	-0.107
Mof_H 	H 	0.5212	0.2366	0.7825	-0.386
Mof_H 	H 	0.4865	0.2636	0.7667	-0.724
Mof_N 	N 	0.1139	0.73073	0.46177	-0.288
Mof_N 	N 	0.11828	0.69408	0.35999	-0.292
Mof_C 	C 	0.14494	0.7011	0.47688	0.067
Mof_H 	H 	0.1643	0.6826	0.4579	-0.012
Mof_H 	H 	0.0404	0.7843	0.4734	0.052
Mof_H 	H 	0.1007	0.8385	0.4732	0.004
Mof_C 	C 	0.11036	0.64928	0.38357	-0.035
Mof_H 	H 	0.1064	0.6447	0.4158	0.011
Mof_H 	H 	0.1117	0.7079	0.2544	0.092
Mof_C 	C 	0.11501	0.6835	0.47664	-0.07
Mof_H 	H 	0.1157	0.6571	0.4572	0.027
Mof_H 	H 	0.1272	0.8166	0.5265	0.057
Mof_H 	H 	0.0467	0.8131	0.5268	0.029
Mof_H 	H 	0.1908	0.6997	0.2624	0.085
Mof_C 	C 	0.15709	0.66629	0.36696	-0.003
Mof_H 	H 	0.1795	0.67	0.3907	0.007
Mof_H 	H 	0.0483	0.6842	0.2782	0.177
Mof_H 	H 	0.1029	0.7284	0.2428	-0.104
Mof_O 	O 	0.023	0.74	0.218	0.521
Mof_H 	H 	0.0466	0.7562	0.2206	-0.121
Mof_H 	H 	0.0212	0.7366	0.2825	-0.379
Mof_H 	H 	0.9865	0.7636	0.2667	-0.74
Mof_N 	N 	0.3861	0.76927	0.96177	-0.284
Mof_N 	N 	0.38172	0.80592	0.85999	-0.292
Mof_C 	C 	0.35506	0.7989	0.97688	0.084
Mof_H 	H 	0.3357	0.8174	0.9579	-0.015
Mof_H 	H 	0.4596	0.7157	0.9734	0.077
Mof_H 	H 	0.3993	0.6615	0.9732	0.018
Mof_C 	C 	0.38964	0.85072	0.88357	-0.034
Mof_H 	H 	0.3936	0.8553	0.9158	0.015
Mof_H 	H 	0.3883	0.7921	0.7544	0.09
Mof_C 	C 	0.38499	0.8165	0.97664	-0.043
Mof_H 	H 	0.3843	0.8429	0.9572	0.024
Mof_H 	H 	0.3728	0.6834	0.0265	0.067
Mof_H 	H 	0.4533	0.6869	0.0268	0.035
Mof_H 	H 	0.3092	0.8003	0.7624	0.074
Mof_C 	C 	0.34291	0.83371	0.86696	-0.002
Mof_H 	H 	0.3205	0.83	0.8907	0.009
Mof_H 	H 	0.4517	0.8158	0.7782	0.178
Mof_H 	H 	0.3971	0.7716	0.7428	-0.092
Mof_O 	O 	0.477	0.76	0.718	0.476
Mof_H 	H 	0.4534	0.7438	0.7206	-0.107
Mof_H 	H 	0.4788	0.7634	0.7825	-0.386
Mof_H 	H 	0.5135	0.7364	0.7667	-0.724
Mof_N 	N 	0.8861	0.26927	0.46177	-0.289
Mof_N 	N 	0.88172	0.30592	0.35999	-0.293
Mof_C 	C 	0.85506	0.2989	0.47688	0.065
Mof_H 	H 	0.8357	0.3174	0.4579	-0.011
Mof_H 	H 	0.9596	0.2157	0.4734	0.065
Mof_H 	H 	0.8993	0.1615	0.4732	0.002
Mof_C 	C 	0.88964	0.35072	0.38357	-0.035
Mof_H 	H 	0.8936	0.3553	0.4158	0.012
Mof_H 	H 	0.8883	0.2921	0.2544	0.093
Mof_C 	C 	0.88499	0.3165	0.47664	-0.068
Mof_H 	H 	0.8843	0.3429	0.4572	0.028
Mof_H 	H 	0.8728	0.1834	0.5265	0.057
Mof_H 	H 	0.9533	0.1869	0.5268	0.034
Mof_H 	H 	0.8092	0.3003	0.2624	0.084
Mof_C 	C 	0.84291	0.33371	0.36696	-0.004
Mof_H 	H 	0.8205	0.33	0.3907	0.007
Mof_H 	H 	0.9517	0.3158	0.2782	0.185
Mof_H 	H 	0.8971	0.2716	0.2428	-0.104
Mof_O 	O 	0.977	0.26	0.218	0.554
Mof_H 	H 	0.9534	0.2438	0.2206	-0.13
Mof_H 	H 	0.9788	0.2634	0.2825	-0.369
Mof_H 	H 	0.0135	0.2364	0.2667	-0.751
Mof_N 	N 	0.76927	0.96177	0.3861	-0.284
Mof_N 	N 	0.80592	0.85999	0.38172	-0.292
Mof_C 	C 	0.7989	0.97688	0.35506	0.084
Mof_H 	H 	0.8174	0.9579	0.3357	-0.015
Mof_H 	H 	0.7157	0.9734	0.4596	0.077
Mof_H 	H 	0.6615	0.9732	0.3993	0.018
Mof_C 	C 	0.85072	0.88357	0.38964	-0.034
Mof_H 	H 	0.8553	0.9158	0.3936	0.015
Mof_H 	H 	0.7921	0.7544	0.3883	0.09
Mof_C 	C 	0.8165	0.97664	0.38499	-0.043
Mof_H 	H 	0.8429	0.9572	0.3843	0.024
Mof_H 	H 	0.6834	0.0265	0.3728	0.067
Mof_H 	H 	0.6869	0.0268	0.4533	0.035
Mof_H 	H 	0.8003	0.7624	0.3092	0.074
Mof_C 	C 	0.83371	0.86696	0.34291	-0.002
Mof_H 	H 	0.83	0.8907	0.3205	0.009
Mof_H 	H 	0.8158	0.7782	0.4517	0.178
Mof_H 	H 	0.7716	0.7428	0.3971	-0.092
Mof_O 	O 	0.76	0.718	0.477	0.476
Mof_H 	H 	0.7438	0.7206	0.4534	-0.107
Mof_H 	H 	0.7634	0.7825	0.4788	-0.386
Mof_H 	H 	0.7364	0.7667	0.5135	-0.724
Mof_N 	N 	0.26927	0.46177	0.8861	-0.289
Mof_N 	N 	0.30592	0.35999	0.88172	-0.293
Mof_C 	C 	0.2989	0.47688	0.85506	0.065
Mof_H 	H 	0.3174	0.4579	0.8357	-0.011
Mof_H 	H 	0.2157	0.4734	0.9596	0.065
Mof_H 	H 	0.1615	0.4732	0.8993	0.002
Mof_C 	C 	0.35072	0.38357	0.88964	-0.035
Mof_H 	H 	0.3553	0.4158	0.8936	0.012
Mof_H 	H 	0.2921	0.2544	0.8883	0.093
Mof_C 	C 	0.3165	0.47664	0.88499	-0.068
Mof_H 	H 	0.3429	0.4572	0.8843	0.028
Mof_H 	H 	0.1834	0.5265	0.8728	0.057
Mof_H 	H 	0.1869	0.5268	0.9533	0.034
Mof_H 	H 	0.3003	0.2624	0.8092	0.084
Mof_C 	C 	0.33371	0.36696	0.84291	-0.004
Mof_H 	H 	0.33	0.3907	0.8205	0.007
Mof_H 	H 	0.3158	0.2782	0.9517	0.185
Mof_H 	H 	0.2716	0.2428	0.8971	-0.104
Mof_O 	O 	0.26	0.218	0.977	0.554
Mof_H 	H 	0.2438	0.2206	0.9534	-0.13
Mof_H 	H 	0.2634	0.2825	0.9788	-0.369
Mof_H 	H 	0.2364	0.2667	0.0135	-0.751
Mof_N 	N 	0.23073	0.96177	0.6139	-0.284
Mof_N 	N 	0.19408	0.85999	0.61828	-0.292
Mof_C 	C 	0.2011	0.97688	0.64494	0.084
Mof_H 	H 	0.1826	0.9579	0.6643	-0.016
Mof_H 	H 	0.2843	0.9734	0.5404	0.077
Mof_H 	H 	0.3385	0.9732	0.6007	0.018
Mof_C 	C 	0.14928	0.88357	0.61036	-0.036
Mof_H 	H 	0.1447	0.9158	0.6064	0.013
Mof_H 	H 	0.2079	0.7544	0.6117	0.091
Mof_C 	C 	0.1835	0.97664	0.61501	-0.044
Mof_H 	H 	0.1571	0.9572	0.6157	0.022
Mof_H 	H 	0.3166	0.0265	0.6272	0.067
Mof_H 	H 	0.3131	0.0268	0.5467	0.035
Mof_H 	H 	0.1997	0.7624	0.6908	0.073
Mof_C 	C 	0.16629	0.86696	0.65709	-0.002
Mof_H 	H 	0.17	0.8907	0.6795	0.008
Mof_H 	H 	0.1842	0.7782	0.5483	0.178
Mof_H 	H 	0.2284	0.7428	0.6029	-0.092
Mof_O 	O 	0.24	0.718	0.523	0.476
Mof_H 	H 	0.2562	0.7206	0.5466	-0.107
Mof_H 	H 	0.2366	0.7825	0.5212	-0.386
Mof_H 	H 	0.2636	0.7667	0.4865	-0.724
Mof_N 	N 	0.73073	0.46177	0.1139	-0.288
Mof_N 	N 	0.69408	0.35999	0.11828	-0.292
Mof_C 	C 	0.7011	0.47688	0.14494	0.067
Mof_H 	H 	0.6826	0.4579	0.1643	-0.012
Mof_H 	H 	0.7843	0.4734	0.0404	0.052
Mof_H 	H 	0.8385	0.4732	0.1007	0.004
Mof_C 	C 	0.64928	0.38357	0.11036	-0.035
Mof_H 	H 	0.6447	0.4158	0.1064	0.011
Mof_H 	H 	0.7079	0.2544	0.1117	0.092
Mof_C 	C 	0.6835	0.47664	0.11501	-0.07
Mof_H 	H 	0.6571	0.4572	0.1157	0.027
Mof_H 	H 	0.8166	0.5265	0.1272	0.057
Mof_H 	H 	0.8131	0.5268	0.0467	0.029
Mof_H 	H 	0.6997	0.2624	0.1908	0.085
Mof_C 	C 	0.66629	0.36696	0.15709	-0.003
Mof_H 	H 	0.67	0.3907	0.1795	0.007
Mof_H 	H 	0.6842	0.2782	0.0483	0.177
Mof_H 	H 	0.7284	0.2428	0.1029	-0.104
Mof_O 	O 	0.74	0.218	0.023	0.521
Mof_H 	H 	0.7562	0.2206	0.0466	-0.121
Mof_H 	H 	0.7366	0.2825	0.0212	-0.379
Mof_H 	H 	0.7636	0.2667	0.9865	-0.74
Mof_N 	N 	0.23073	0.03823	0.3861	-0.283
Mof_N 	N 	0.19408	0.14001	0.38172	-0.292
Mof_C 	C 	0.2011	0.02312	0.35506	0.044
Mof_H 	H 	0.1826	0.0421	0.3357	-0.01
Mof_H 	H 	0.2843	0.0266	0.4596	0.064
Mof_H 	H 	0.3385	0.0268	0.3993	0.003
Mof_C 	C 	0.14928	0.11643	0.38964	-0.035
Mof_H 	H 	0.1447	0.0842	0.3936	0.008
Mof_H 	H 	0.2079	0.2456	0.3883	0.091
Mof_C 	C 	0.1835	0.02336	0.38499	-0.09
Mof_H 	H 	0.1571	0.0428	0.3843	0.03
Mof_H 	H 	0.3166	0.9735	0.3728	0.081
Mof_H 	H 	0.3131	0.9732	0.4533	0.048
Mof_H 	H 	0.1997	0.2376	0.3092	0.071
Mof_C 	C 	0.16629	0.13304	0.34291	-0.003
Mof_H 	H 	0.17	0.1093	0.3205	0.004
Mof_H 	H 	0.1842	0.2218	0.4517	0.178
Mof_H 	H 	0.2284	0.2572	0.3971	-0.092
Mof_O 	O 	0.24	0.282	0.477	0.476
Mof_H 	H 	0.2562	0.2794	0.4534	-0.107
Mof_H 	H 	0.2366	0.2175	0.4788	-0.386
Mof_H 	H 	0.2636	0.2333	0.5135	-0.724
Mof_N 	N 	0.73073	0.53823	0.8861	-0.289
Mof_N 	N 	0.69408	0.64001	0.88172	-0.293
Mof_C 	C 	0.7011	0.52312	0.85506	0.065
Mof_H 	H 	0.6826	0.5421	0.8357	-0.011
Mof_H 	H 	0.7843	0.5266	0.9596	0.063
Mof_H 	H 	0.8385	0.5268	0.8993	0.004
Mof_C 	C 	0.64928	0.61643	0.88964	-0.035
Mof_H 	H 	0.6447	0.5842	0.8936	0.012
Mof_H 	H 	0.7079	0.7456	0.8883	0.092
Mof_C 	C 	0.6835	0.52336	0.88499	-0.068
Mof_H 	H 	0.6571	0.5428	0.8843	0.028
Mof_H 	H 	0.8166	0.4735	0.8728	0.056
Mof_H 	H 	0.8131	0.4732	0.9533	0.036
Mof_H 	H 	0.6997	0.7376	0.8092	0.083
Mof_C 	C 	0.66629	0.63304	0.84291	-0.004
Mof_H 	H 	0.67	0.6093	0.8205	0.007
Mof_H 	H 	0.6842	0.7218	0.9517	0.185
Mof_H 	H 	0.7284	0.7572	0.8971	-0.102
Mof_O 	O 	0.74	0.782	0.977	0.554
Mof_H 	H 	0.7562	0.7794	0.9534	-0.127
Mof_H 	H 	0.7366	0.7175	0.9788	-0.37
Mof_H 	H 	0.7636	0.7333	0.0135	-0.752
Mof_N 	N 	0.76927	0.03823	0.6139	-0.283
Mof_N 	N 	0.80592	0.14001	0.61828	-0.292
Mof_C 	C 	0.7989	0.02312	0.64494	0.044
Mof_H 	H 	0.8174	0.0421	0.6643	-0.008
Mof_H 	H 	0.7157	0.0266	0.5404	0.064
Mof_H 	H 	0.6615	0.0268	0.6007	0.003
Mof_C 	C 	0.85072	0.11643	0.61036	-0.033
Mof_H 	H 	0.8553	0.0842	0.6064	0.01
Mof_H 	H 	0.7921	0.2456	0.6117	0.091
Mof_C 	C 	0.8165	0.02336	0.61501	-0.09
Mof_H 	H 	0.8429	0.0428	0.6157	0.032
Mof_H 	H 	0.6834	0.9735	0.6272	0.082
Mof_H 	H 	0.6869	0.9732	0.5467	0.048
Mof_H 	H 	0.8003	0.2376	0.6908	0.073
Mof_C 	C 	0.83371	0.13304	0.65709	-0.003
Mof_H 	H 	0.83	0.1093	0.6795	0.007
Mof_H 	H 	0.8158	0.2218	0.5483	0.178
Mof_H 	H 	0.7716	0.2572	0.6029	-0.092
Mof_O 	O 	0.76	0.282	0.523	0.476
Mof_H 	H 	0.7438	0.2794	0.5466	-0.107
Mof_H 	H 	0.7634	0.2175	0.5212	-0.386
Mof_H 	H 	0.7364	0.2333	0.4865	-0.724
Mof_N 	N 	0.26927	0.53823	0.1139	-0.288
Mof_N 	N 	0.30592	0.64001	0.11828	-0.292
Mof_C 	C 	0.2989	0.52312	0.14494	0.067
Mof_H 	H 	0.3174	0.5421	0.1643	-0.012
Mof_H 	H 	0.2157	0.5266	0.0404	0.053
Mof_H 	H 	0.1615	0.5268	0.1007	0.001
Mof_C 	C 	0.35072	0.61643	0.11036	-0.035
Mof_H 	H 	0.3553	0.5842	0.1064	0.011
Mof_H 	H 	0.2921	0.7456	0.1117	0.092
Mof_C 	C 	0.3165	0.52336	0.11501	-0.07
Mof_H 	H 	0.3429	0.5428	0.1157	0.027
Mof_H 	H 	0.1834	0.4735	0.1272	0.058
Mof_H 	H 	0.1869	0.4732	0.0467	0.026
Mof_H 	H 	0.3003	0.7376	0.1908	0.084
Mof_C 	C 	0.33371	0.63304	0.15709	-0.003
Mof_H 	H 	0.33	0.6093	0.1795	0.007
Mof_H 	H 	0.3158	0.7218	0.0483	0.177
Mof_H 	H 	0.2716	0.7572	0.1029	-0.104
Mof_O 	O 	0.26	0.782	0.023	0.521
Mof_H 	H 	0.2438	0.7794	0.0466	-0.12
Mof_H 	H 	0.2634	0.7175	0.0212	-0.379
Mof_H 	H 	0.2364	0.7333	0.9865	-0.74
Mof_N 	N 	0.96177	0.6139	0.23073	-0.284
Mof_N 	N 	0.85999	0.61828	0.19408	-0.292
Mof_C 	C 	0.97688	0.64494	0.2011	0.084
Mof_H 	H 	0.9579	0.6643	0.1826	-0.016
Mof_H 	H 	0.9734	0.5404	0.2843	0.077
Mof_H 	H 	0.9732	0.6007	0.3385	0.018
Mof_C 	C 	0.88357	0.61036	0.14928	-0.036
Mof_H 	H 	0.9158	0.6064	0.1447	0.013
Mof_H 	H 	0.7544	0.6117	0.2079	0.091
Mof_C 	C 	0.97664	0.61501	0.1835	-0.044
Mof_H 	H 	0.9572	0.6157	0.1571	0.022
Mof_H 	H 	0.0265	0.6272	0.3166	0.067
Mof_H 	H 	0.0268	0.5467	0.3131	0.035
Mof_H 	H 	0.7624	0.6908	0.1997	0.073
Mof_C 	C 	0.86696	0.65709	0.16629	-0.002
Mof_H 	H 	0.8907	0.6795	0.17	0.008
Mof_H 	H 	0.7782	0.5483	0.1842	0.178
Mof_H 	H 	0.7428	0.6029	0.2284	-0.092
Mof_O 	O 	0.718	0.523	0.24	0.476
Mof_H 	H 	0.7206	0.5466	0.2562	-0.107
Mof_H 	H 	0.7825	0.5212	0.2366	-0.386
Mof_H 	H 	0.7667	0.4865	0.2636	-0.724
Mof_N 	N 	0.46177	0.1139	0.73073	-0.288
Mof_N 	N 	0.35999	0.11828	0.69408	-0.292
Mof_C 	C 	0.47688	0.14494	0.7011	0.067
Mof_H 	H 	0.4579	0.1643	0.6826	-0.012
Mof_H 	H 	0.4734	0.0404	0.7843	0.052
Mof_H 	H 	0.4732	0.1007	0.8385	0.004
Mof_C 	C 	0.38357	0.11036	0.64928	-0.035
Mof_H 	H 	0.4158	0.1064	0.6447	0.011
Mof_H 	H 	0.2544	0.1117	0.7079	0.092
Mof_C 	C 	0.47664	0.11501	0.6835	-0.07
Mof_H 	H 	0.4572	0.1157	0.6571	0.027
Mof_H 	H 	0.5265	0.1272	0.8166	0.057
Mof_H 	H 	0.5268	0.0467	0.8131	0.029
Mof_H 	H 	0.2624	0.1908	0.6997	0.085
Mof_C 	C 	0.36696	0.15709	0.66629	-0.003
Mof_H 	H 	0.3907	0.1795	0.67	0.007
Mof_H 	H 	0.2782	0.0483	0.6842	0.177
Mof_H 	H 	0.2428	0.1029	0.7284	-0.104
Mof_O 	O 	0.218	0.023	0.74	0.521
Mof_H 	H 	0.2206	0.0466	0.7562	-0.121
Mof_H 	H 	0.2825	0.0212	0.7366	-0.379
Mof_H 	H 	0.2667	0.9865	0.7636	-0.74
Mof_N 	N 	0.96177	0.3861	0.76927	-0.284
Mof_N 	N 	0.85999	0.38172	0.80592	-0.292
Mof_C 	C 	0.97688	0.35506	0.7989	0.084
Mof_H 	H 	0.9579	0.3357	0.8174	-0.015
Mof_H 	H 	0.9734	0.4596	0.7157	0.077
Mof_H 	H 	0.9732	0.3993	0.6615	0.018
Mof_C 	C 	0.88357	0.38964	0.85072	-0.034
Mof_H 	H 	0.9158	0.3936	0.8553	0.015
Mof_H 	H 	0.7544	0.3883	0.7921	0.09
Mof_C 	C 	0.97664	0.38499	0.8165	-0.043
Mof_H 	H 	0.9572	0.3843	0.8429	0.024
Mof_H 	H 	0.0265	0.3728	0.6834	0.067
Mof_H 	H 	0.0268	0.4533	0.6869	0.035
Mof_H 	H 	0.7624	0.3092	0.8003	0.074
Mof_C 	C 	0.86696	0.34291	0.83371	-0.002
Mof_H 	H 	0.8907	0.3205	0.83	0.009
Mof_H 	H 	0.7782	0.4517	0.8158	0.178
Mof_H 	H 	0.7428	0.3971	0.7716	-0.092
Mof_O 	O 	0.718	0.477	0.76	0.476
Mof_H 	H 	0.7206	0.4534	0.7438	-0.107
Mof_H 	H 	0.7825	0.4788	0.7634	-0.386
Mof_H 	H 	0.7667	0.5135	0.7364	-0.724
Mof_N 	N 	0.46177	0.8861	0.26927	-0.289
Mof_N 	N 	0.35999	0.88172	0.30592	-0.293
Mof_C 	C 	0.47688	0.85506	0.2989	0.065
Mof_H 	H 	0.4579	0.8357	0.3174	-0.011
Mof_H 	H 	0.4734	0.9596	0.2157	0.065
Mof_H 	H 	0.4732	0.8993	0.1615	0.002
Mof_C 	C 	0.38357	0.88964	0.35072	-0.035
Mof_H 	H 	0.4158	0.8936	0.3553	0.012
Mof_H 	H 	0.2544	0.8883	0.2921	0.093
Mof_C 	C 	0.47664	0.88499	0.3165	-0.068
Mof_H 	H 	0.4572	0.8843	0.3429	0.028
Mof_H 	H 	0.5265	0.8728	0.1834	0.057
Mof_H 	H 	0.5268	0.9533	0.1869	0.034
Mof_H 	H 	0.2624	0.8092	0.3003	0.084
Mof_C 	C 	0.36696	0.84291	0.33371	-0.004
Mof_H 	H 	0.3907	0.8205	0.33	0.007
Mof_H 	H 	0.2782	0.9517	0.3158	0.185
Mof_H 	H 	0.2428	0.8971	0.2716	-0.104
Mof_O 	O 	0.218	0.977	0.26	0.554
Mof_H 	H 	0.2206	0.9534	0.2438	-0.13
Mof_H 	H 	0.2825	0.9788	0.2634	-0.369
Mof_H 	H 	0.2667	0.0135	0.2364	-0.751
Mof_N 	N 	0.03823	0.6139	0.76927	-0.283
Mof_N 	N 	0.14001	0.61828	0.80592	-0.292
Mof_C 	C 	0.02312	0.64494	0.7989	0.044
Mof_H 	H 	0.0421	0.6643	0.8174	-0.008
Mof_H 	H 	0.0266	0.5404	0.7157	0.064
Mof_H 	H 	0.0268	0.6007	0.6615	0.003
Mof_C 	C 	0.11643	0.61036	0.85072	-0.033
Mof_H 	H 	0.0842	0.6064	0.8553	0.01
Mof_H 	H 	0.2456	0.6117	0.7921	0.091
Mof_C 	C 	0.02336	0.61501	0.8165	-0.09
Mof_H 	H 	0.0428	0.6157	0.8429	0.032
Mof_H 	H 	0.9735	0.6272	0.6834	0.082
Mof_H 	H 	0.9732	0.5467	0.6869	0.048
Mof_H 	H 	0.2376	0.6908	0.8003	0.073
Mof_C 	C 	0.13304	0.65709	0.83371	-0.003
Mof_H 	H 	0.1093	0.6795	0.83	0.007
Mof_H 	H 	0.2218	0.5483	0.8158	0.178
Mof_H 	H 	0.2572	0.6029	0.7716	-0.092
Mof_O 	O 	0.282	0.523	0.76	0.476
Mof_H 	H 	0.2794	0.5466	0.7438	-0.107
Mof_H 	H 	0.2175	0.5212	0.7634	-0.386
Mof_H 	H 	0.2333	0.4865	0.7364	-0.724
Mof_N 	N 	0.53823	0.1139	0.26927	-0.288
Mof_N 	N 	0.64001	0.11828	0.30592	-0.292
Mof_C 	C 	0.52312	0.14494	0.2989	0.067
Mof_H 	H 	0.5421	0.1643	0.3174	-0.012
Mof_H 	H 	0.5266	0.0404	0.2157	0.053
Mof_H 	H 	0.5268	0.1007	0.1615	0.001
Mof_C 	C 	0.61643	0.11036	0.35072	-0.035
Mof_H 	H 	0.5842	0.1064	0.3553	0.011
Mof_H 	H 	0.7456	0.1117	0.2921	0.092
Mof_C 	C 	0.52336	0.11501	0.3165	-0.07
Mof_H 	H 	0.5428	0.1157	0.3429	0.027
Mof_H 	H 	0.4735	0.1272	0.1834	0.058
Mof_H 	H 	0.4732	0.0467	0.1869	0.026
Mof_H 	H 	0.7376	0.1908	0.3003	0.084
Mof_C 	C 	0.63304	0.15709	0.33371	-0.003
Mof_H 	H 	0.6093	0.1795	0.33	0.007
Mof_H 	H 	0.7218	0.0483	0.3158	0.177
Mof_H 	H 	0.7572	0.1029	0.2716	-0.104
Mof_O 	O 	0.782	0.023	0.26	0.521
Mof_H 	H 	0.7794	0.0466	0.2438	-0.12
Mof_H 	H 	0.7175	0.0212	0.2634	-0.379
Mof_H 	H 	0.7333	0.9865	0.2364	-0.74
Mof_N 	N 	0.03823	0.3861	0.23073	-0.283
Mof_N 	N 	0.14001	0.38172	0.19408	-0.292
Mof_C 	C 	0.02312	0.35506	0.2011	0.044
Mof_H 	H 	0.0421	0.3357	0.1826	-0.01
Mof_H 	H 	0.0266	0.4596	0.2843	0.064
Mof_H 	H 	0.0268	0.3993	0.3385	0.003
Mof_C 	C 	0.11643	0.38964	0.14928	-0.035
Mof_H 	H 	0.0842	0.3936	0.1447	0.008
Mof_H 	H 	0.2456	0.3883	0.2079	0.091
Mof_C 	C 	0.02336	0.38499	0.1835	-0.09
Mof_H 	H 	0.0428	0.3843	0.1571	0.03
Mof_H 	H 	0.9735	0.3728	0.3166	0.081
Mof_H 	H 	0.9732	0.4533	0.3131	0.048
Mof_H 	H 	0.2376	0.3092	0.1997	0.071
Mof_C 	C 	0.13304	0.34291	0.16629	-0.003
Mof_H 	H 	0.1093	0.3205	0.17	0.004
Mof_H 	H 	0.2218	0.4517	0.1842	0.178
Mof_H 	H 	0.2572	0.3971	0.2284	-0.092
Mof_O 	O 	0.282	0.477	0.24	0.476
Mof_H 	H 	0.2794	0.4534	0.2562	-0.107
Mof_H 	H 	0.2175	0.4788	0.2366	-0.386
Mof_H 	H 	0.2333	0.5135	0.2636	-0.724
Mof_N 	N 	0.53823	0.8861	0.73073	-0.289
Mof_N 	N 	0.64001	0.88172	0.69408	-0.293
Mof_C 	C 	0.52312	0.85506	0.7011	0.065
Mof_H 	H 	0.5421	0.8357	0.6826	-0.011
Mof_H 	H 	0.5266	0.9596	0.7843	0.063
Mof_H 	H 	0.5268	0.8993	0.8385	0.004
Mof_C 	C 	0.61643	0.88964	0.64928	-0.035
Mof_H 	H 	0.5842	0.8936	0.6447	0.012
Mof_H 	H 	0.7456	0.8883	0.7079	0.092
Mof_C 	C 	0.52336	0.88499	0.6835	-0.068
Mof_H 	H 	0.5428	0.8843	0.6571	0.028
Mof_H 	H 	0.4735	0.8728	0.8166	0.056
Mof_H 	H 	0.4732	0.9533	0.8131	0.036
Mof_H 	H 	0.7376	0.8092	0.6997	0.083
Mof_C 	C 	0.63304	0.84291	0.66629	-0.004
Mof_H 	H 	0.6093	0.8205	0.67	0.007
Mof_H 	H 	0.7218	0.9517	0.6842	0.185
Mof_H 	H 	0.7572	0.8971	0.7284	-0.102
Mof_O 	O 	0.782	0.977	0.74	0.554
Mof_H 	H 	0.7794	0.9534	0.7562	-0.127
Mof_H 	H 	0.7175	0.9788	0.7366	-0.37
Mof_H 	H 	0.7333	0.0135	0.7636	-0.752
Mof_Zn	Zn	0.25	0.39625	0.10375	1.174
Mof_Zn	Zn	0.75	0.60375	0.10375	1.174
Mof_Zn	Zn	0.75	0.39625	0.89625	1.174
Mof_Zn	Zn	0.25	0.60375	0.89625	1.174
Mof_Zn	Zn	0.10375	0.25	0.39625	1.174
Mof_Zn	Zn	0.10375	0.75	0.60375	1.174
Mof_Zn	Zn	0.89625	0.75	0.39625	1.174
Mof_Zn	Zn	0.89625	0.25	0.60375	1.174
Mof_Zn	Zn	0.39625	0.10375	0.25	1.174
Mof_Zn	Zn	0.60375	0.10375	0.75	1.174
Mof_Zn	Zn	0.39625	0.89625	0.75	1.174
Mof_Zn	Zn	0.60375	0.89625	0.25	1.174
Mof_Zn	Zn	0.39625	0.25	0.89625	1.174
Mof_Zn	Zn	0.60375	0.75	0.89625	1.174
Mof_Zn	Zn	0.39625	0.75	0.10375	1.174
Mof_Zn	Zn	0.60375	0.25	0.10375	1.174
Mof_Zn	Zn	0.25	0.10375	0.60375	1.174
Mof_Zn	Zn	0.75	0.10375	0.39625	1.174
Mof_Zn	Zn	0.75	0.89625	0.60375	1.174
Mof_Zn	Zn	0.25	0.89625	0.39625	1.174
Mof_Zn	Zn	0.10375	0.39625	0.75	1.174
Mof_Zn	Zn	0.10375	0.60375	0.25	1.174
Mof_Zn	Zn	0.89625	0.39625	0.25	1.174
Mof_Zn	Zn	0.89625	0.60375	0.75	1.174
Mof_Zn	Zn	0.75	0.60375	0.89625	1.174
Mof_Zn	Zn	0.25	0.10375	0.39625	1.174
Mof_Zn	Zn	0.25	0.39625	0.89625	1.174
Mof_Zn	Zn	0.25	0.60375	0.10375	1.174
Mof_Zn	Zn	0.75	0.39625	0.10375	1.174
Mof_Zn	Zn	0.89625	0.75	0.60375	1.174
Mof_Zn	Zn	0.39625	0.25	0.10375	1.174
Mof_Zn	Zn	0.89625	0.25	0.39625	1.174
Mof_Zn	Zn	0.10375	0.25	0.60375	1.174
Mof_Zn	Zn	0.10375	0.75	0.39625	1.174
Mof_Zn	Zn	0.60375	0.89625	0.75	1.174
Mof_Zn	Zn	0.10375	0.39625	0.25	1.174
Mof_Zn	Zn	0.39625	0.89625	0.25	1.174
Mof_Zn	Zn	0.60375	0.10375	0.25	1.174
Mof_Zn	Zn	0.39625	0.10375	0.75	1.174
Mof_Zn	Zn	0.60375	0.75	0.10375	1.174
Mof_Zn	Zn	0.60375	0.25	0.89625	1.174
Mof_Zn	Zn	0.39625	0.75	0.89625	1.174
Mof_Zn	Zn	0.75	0.89625	0.39625	1.174
Mof_Zn	Zn	0.25	0.89625	0.60375	1.174
Mof_Zn	Zn	0.75	0.10375	0.60375	1.174
Mof_Zn	Zn	0.89625	0.60375	0.25	1.174
Mof_Zn	Zn	0.89625	0.39625	0.75	1.174
Mof_Zn	Zn	0.10375	0.60375	0.75	1.174
Mof_C 	C 	0.2499	0.4046	-0	0.104
Mof_C 	C 	0.2876	0.4406	-0	-0.273
Mof_C 	C 	0.3349	0.4179	-0	0.043
Mof_H 	H 	0.3576	0.4416	-0	-0.011
Mof_C 	C 	0.2545	0.38684	-0	0.041
Mof_C 	C 	0.3055	0.3886	-0	-0.257
Mof_C 	C 	0.3235	0.4374	-0	-0.027
Mof_H 	H 	0.3562	0.4361	-0	-0.005
Mof_C 	C 	0.7499	0.9046	0.5	0.113
Mof_C 	C 	0.7876	0.9406	0.5	-0.24
Mof_C 	C 	0.8349	0.9179	0.5	0.043
Mof_H 	H 	0.8576	0.9416	0.5	-0.004
Mof_C 	C 	0.7545	0.88684	0.5	0.042
Mof_C 	C 	0.8055	0.8886	0.5	-0.206
Mof_C 	C 	0.8235	0.9374	0.5	-0.027
Mof_H 	H 	0.8562	0.9361	0.5	0.005
Mof_C 	C 	0.7501	0.5954	-0	0.104
Mof_C 	C 	0.7124	0.5594	-0	-0.274
Mof_C 	C 	0.6651	0.5821	-0	0.043
Mof_H 	H 	0.6424	0.5584	-0	-0.011
Mof_C 	C 	0.7455	0.61316	-0	0.042
Mof_C 	C 	0.6945	0.6114	-0	-0.257
Mof_C 	C 	0.6765	0.5626	-0	-0.027
Mof_H 	H 	0.6438	0.5639	-0	-0.005
Mof_C 	C 	0.2501	0.0954	0.5	0.119
Mof_C 	C 	0.2124	0.0594	0.5	-0.233
Mof_C 	C 	0.1651	0.0821	0.5	0.045
Mof_H 	H 	0.1424	0.0584	0.5	-0.008
Mof_C 	C 	0.2455	0.11316	0.5	0.035
Mof_C 	C 	0.1945	0.1114	0.5	-0.211
Mof_C 	C 	0.1765	0.0626	0.5	-0.017
Mof_H 	H 	0.1438	0.0639	0.5	-0.004
Mof_C 	C 	0.7501	0.4046	-0	0.104
Mof_C 	C 	0.7124	0.4406	-0	-0.274
Mof_C 	C 	0.6651	0.4179	-0	0.043
Mof_H 	H 	0.6424	0.4416	-0	-0.011
Mof_C 	C 	0.7455	0.38684	-0	0.042
Mof_C 	C 	0.6945	0.3886	-0	-0.257
Mof_C 	C 	0.6765	0.4374	-0	-0.027
Mof_H 	H 	0.6438	0.4361	-0	-0.005
Mof_C 	C 	0.2501	0.9046	0.5	0.113
Mof_C 	C 	0.2124	0.9406	0.5	-0.244
Mof_C 	C 	0.1651	0.9179	0.5	0.048
Mof_H 	H 	0.1424	0.9416	0.5	-0.007
Mof_C 	C 	0.2455	0.88684	0.5	0.043
Mof_C 	C 	0.1945	0.8886	0.5	-0.209
Mof_C 	C 	0.1765	0.9374	0.5	-0.022
Mof_H 	H 	0.1438	0.9361	0.5	0.003
Mof_C 	C 	0.2499	0.5954	-0	0.104
Mof_C 	C 	0.2876	0.5594	-0	-0.273
Mof_C 	C 	0.3349	0.5821	-0	0.043
Mof_H 	H 	0.3576	0.5584	-0	-0.011
Mof_C 	C 	0.2545	0.61316	-0	0.041
Mof_C 	C 	0.3055	0.6114	-0	-0.257
Mof_C 	C 	0.3235	0.5626	-0	-0.027
Mof_H 	H 	0.3562	0.5639	-0	-0.005
Mof_C 	C 	0.7499	0.0954	0.5	0.119
Mof_C 	C 	0.7876	0.0594	0.5	-0.229
Mof_C 	C 	0.8349	0.0821	0.5	0.041
Mof_H 	H 	0.8576	0.0584	0.5	-0.005
Mof_C 	C 	0.7545	0.11316	0.5	0.034
Mof_C 	C 	0.8055	0.1114	0.5	-0.208
Mof_C 	C 	0.8235	0.0626	0.5	-0.021
Mof_H 	H 	0.8562	0.0639	0.5	-0.002
Mof_C 	C 	-2.5145e-33	0.2499	0.4046	0.104
Mof_C 	C 	-6.41103e-33	0.2876	0.4406	-0.273
Mof_C 	C 	1.56687e-33	0.3349	0.4179	0.043
Mof_H 	H 	5.68724e-33	0.3576	0.4416	-0.011
Mof_C 	C 	1.45042e-33	0.2545	0.38684	0.041
Mof_C 	C 	-2.57449e-33	0.3055	0.3886	-0.257
Mof_C 	C 	-2.39152e-33	0.3235	0.4374	-0.027
Mof_H 	H 	1.63511e-33	0.3562	0.4361	-0.005
Mof_C 	C 	0.5	0.7499	0.9046	0.113
Mof_C 	C 	0.5	0.7876	0.9406	-0.24
Mof_C 	C 	0.5	0.8349	0.9179	0.043
Mof_H 	H 	0.5	0.8576	0.9416	-0.004
Mof_C 	C 	0.5	0.7545	0.88684	0.042
Mof_C 	C 	0.5	0.8055	0.8886	-0.206
Mof_C 	C 	0.5	0.8235	0.9374	-0.027
Mof_H 	H 	0.5	0.8562	0.9361	0.005
Mof_C 	C 	2.23239e-33	0.7501	0.5954	0.104
Mof_C 	C 	-1.93409e-33	0.7124	0.5594	-0.274
Mof_C 	C 	1.42771e-32	0.6651	0.5821	0.043
Mof_H 	H 	-1.00009e-32	0.6424	0.5584	-0.011
Mof_C 	C 	-5.76404e-33	0.7455	0.61316	0.042
Mof_C 	C 	2.29238e-33	0.6945	0.6114	-0.257
Mof_C 	C 	1.01724e-32	0.6765	0.5626	-0.027
Mof_H 	H 	-9.98024e-33	0.6438	0.5639	-0.005
Mof_C 	C 	0.5	0.2501	0.0954	0.119
Mof_C 	C 	0.5	0.2124	0.0594	-0.233
Mof_C 	C 	0.5	0.1651	0.0821	0.045
Mof_H 	H 	0.5	0.1424	0.0584	-0.008
Mof_C 	C 	0.5	0.2455	0.11316	0.035
Mof_C 	C 	0.5	0.1945	0.1114	-0.211
Mof_C 	C 	0.5	0.1765	0.0626	-0.017
Mof_H 	H 	0.5	0.1438	0.0639	-0.004
Mof_C 	C 	-2.5145e-33	0.7501	0.4046	0.104
Mof_C 	C 	-1.04425e-32	0.7124	0.4406	-0.274
Mof_C 	C 	9.62989e-33	0.6651	0.4179	0.043
Mof_H 	H 	1.65573e-33	0.6424	0.4416	-0.011
Mof_C 	C 	-2.58109e-33	0.7455	0.38684	0.042
Mof_C 	C 	-2.57449e-33	0.6945	0.3886	-0.257
Mof_C 	C 	1.63999e-33	0.6765	0.4374	-0.027
Mof_H 	H 	-2.3964e-33	0.6438	0.4361	-0.005
Mof_C 	C 	0.5	0.2501	0.9046	0.113
Mof_C 	C 	0.5	0.2124	0.9406	-0.244
Mof_C 	C 	0.5	0.1651	0.9179	0.048
Mof_H 	H 	0.5	0.1424	0.9416	-0.007
Mof_C 	C 	0.5	0.2455	0.88684	0.043
Mof_C 	C 	0.5	0.1945	0.8886	-0.209
Mof_C 	C 	0.5	0.1765	0.9374	-0.022
Mof_H 	H 	0.5	0.1438	0.9361	0.003
Mof_C 	C 	-5.83062e-33	0.2499	0.5954	0.104
Mof_C 	C 	-1.93409e-33	0.2876	0.5594	-0.273
Mof_C 	C 	-5.88049e-33	0.3349	0.5821	0.043
Mof_H 	H 	-1.93784e-33	0.3576	0.5584	-0.011
Mof_C 	C 	2.29898e-33	0.2545	0.61316	0.041
Mof_C 	C 	2.29238e-33	0.3055	0.6114	-0.257
Mof_C 	C 	-5.95361e-33	0.3235	0.5626	-0.027
Mof_H 	H 	-1.91722e-33	0.3562	0.5639	-0.005
Mof_C 	C 	0.5	0.7499	0.0954	0.119
Mof_C 	C 	0.5	0.7876	0.0594	-0.229
Mof_C 	C 	0.5	0.8349	0.0821	0.041
Mof_H 	H 	0.5	0.8576	0.0584	-0.005
Mof_C 	C 	0.5	0.7545	0.11316	0.034
Mof_C 	C 	0.5	0.8055	0.1114	-0.208
Mof_C 	C 	0.5	0.8235	0.0626	-0.021
Mof_H 	H 	0.5	0.8562	0.0639	-0.002
Mof_C 	C 	0.4046	0	0.2499	0.104
Mof_C 	C 	0.4406	-2.01575e-33	0.2876	-0.273
Mof_C 	C 	0.4179	-4.03151e-33	0.3349	0.043
Mof_H 	H 	0.4416	0	0.3576	-0.011
Mof_C 	C 	0.38684	-2.01575e-33	0.2545	0.041
Mof_C 	C 	0.3886	-4.03151e-33	0.3055	-0.257
Mof_C 	C 	0.4374	-4.03151e-33	0.3235	-0.027
Mof_H 	H 	0.4361	0	0.3562	-0.005
Mof_C 	C 	0.9046	0.5	0.7499	0.113
Mof_C 	C 	0.9406	0.5	0.7876	-0.24
Mof_C 	C 	0.9179	0.5	0.8349	0.043
Mof_H 	H 	0.9416	0.5	0.8576	-0.004
Mof_C 	C 	0.88684	0.5	0.7545	0.042
Mof_C 	C 	0.8886	0.5	0.8055	-0.206
Mof_C 	C 	0.9374	0.5	0.8235	-0.027
Mof_H 	H 	0.9361	0.5	0.8562	0.005
Mof_C 	C 	0.5954	-8.06302e-33	0.7501	0.104
Mof_C 	C 	0.5594	0	0.7124	-0.274
Mof_C 	C 	0.5821	0	0.6651	0.043
Mof_H 	H 	0.5584	-8.06302e-33	0.6424	-0.011
Mof_C 	C 	0.61316	-8.06302e-33	0.7455	0.042
Mof_C 	C 	0.6114	0	0.6945	-0.257
Mof_C 	C 	0.5626	0	0.6765	-0.027
Mof_H 	H 	0.5639	0	0.6438	-0.005
Mof_C 	C 	0.0954	0.5	0.2501	0.119
Mof_C 	C 	0.0594	0.5	0.2124	-0.233
Mof_C 	C 	0.0821	0.5	0.1651	0.045
Mof_H 	H 	0.0584	0.5	0.1424	-0.008
Mof_C 	C 	0.11316	0.5	0.2455	0.035
Mof_C 	C 	0.1114	0.5	0.1945	-0.211
Mof_C 	C 	0.0626	0.5	0.1765	-0.017
Mof_H 	H 	0.0639	0.5	0.1438	-0.004
Mof_C 	C 	0.4046	-8.06302e-33	0.7501	0.104
Mof_C 	C 	0.4406	0	0.7124	-0.274
Mof_C 	C 	0.4179	0	0.6651	0.043
Mof_H 	H 	0.4416	-8.06302e-33	0.6424	-0.011
Mof_C 	C 	0.38684	-8.06302e-33	0.7455	0.042
Mof_C 	C 	0.3886	0	0.6945	-0.257
Mof_C 	C 	0.4374	0	0.6765	-0.027
Mof_H 	H 	0.4361	0	0.6438	-0.005
Mof_C 	C 	0.9046	0.5	0.2501	0.113
Mof_C 	C 	0.9406	0.5	0.2124	-0.244
Mof_C 	C 	0.9179	0.5	0.1651	0.048
Mof_H 	H 	0.9416	0.5	0.1424	-0.007
Mof_C 	C 	0.88684	0.5	0.2455	0.043
Mof_C 	C 	0.8886	0.5	0.1945	-0.209
Mof_C 	C 	0.9374	0.5	0.1765	-0.022
Mof_H 	H 	0.9361	0.5	0.1438	0.003
Mof_C 	C 	0.5954	0	0.2499	0.104
Mof_C 	C 	0.5594	-2.01575e-33	0.2876	-0.273
Mof_C 	C 	0.5821	-4.03151e-33	0.3349	0.043
Mof_H 	H 	0.5584	0	0.3576	-0.011
Mof_C 	C 	0.61316	-2.01575e-33	0.2545	0.041
Mof_C 	C 	0.6114	-4.03151e-33	0.3055	-0.257
Mof_C 	C 	0.5626	-4.03151e-33	0.3235	-0.027
Mof_H 	H 	0.5639	0	0.3562	-0.005
Mof_C 	C 	0.0954	0.5	0.7499	0.119
Mof_C 	C 	0.0594	0.5	0.7876	-0.229
Mof_C 	C 	0.0821	0.5	0.8349	0.041
Mof_H 	H 	0.0584	0.5	0.8576	-0.005
Mof_C 	C 	0.11316	0.5	0.7545	0.034
Mof_C 	C 	0.1114	0.5	0.8055	-0.208
Mof_C 	C 	0.0626	0.5	0.8235	-0.021
Mof_H 	H 	0.0639	0.5	0.8562	-0.002
Mof_C 	C 	0.4046	0.2499	-0	0.104
Mof_C 	C 	0.4406	0.2876	-0	-0.273
Mof_C 	C 	0.4179	0.3349	-0	0.043
Mof_H 	H 	0.4416	0.3576	-0	-0.011
Mof_C 	C 	0.38684	0.2545	-0	0.041
Mof_C 	C 	0.3886	0.3055	-0	-0.257
Mof_C 	C 	0.4374	0.3235	-0	-0.027
Mof_H 	H 	0.4361	0.3562	-0	-0.005
Mof_C 	C 	0.9046	0.7499	0.5	0.113
Mof_C 	C 	0.9406	0.7876	0.5	-0.24
Mof_C 	C 	0.9179	0.8349	0.5	0.043
Mof_H 	H 	0.9416	0.8576	0.5	-0.004
Mof_C 	C 	0.88684	0.7545	0.5	0.042
Mof_C 	C 	0.8886	0.8055	0.5	-0.206
Mof_C 	C 	0.9374	0.8235	0.5	-0.027
Mof_H 	H 	0.9361	0.8562	0.5	0.005
Mof_C 	C 	0.5954	0.7501	-0	0.104
Mof_C 	C 	0.5594	0.7124	-0	-0.274
Mof_C 	C 	0.5821	0.6651	-0	0.043
Mof_H 	H 	0.5584	0.6424	-0	-0.011
Mof_C 	C 	0.61316	0.7455	-0	0.042
Mof_C 	C 	0.6114	0.6945	-0	-0.257
Mof_C 	C 	0.5626	0.6765	-0	-0.027
Mof_H 	H 	0.5639	0.6438	-0	-0.005
Mof_C 	C 	0.0954	0.2501	0.5	0.119
Mof_C 	C 	0.0594	0.2124	0.5	-0.233
Mof_C 	C 	0.0821	0.1651	0.5	0.045
Mof_H 	H 	0.0584	0.1424	0.5	-0.008
Mof_C 	C 	0.11316	0.2455	0.5	0.035
Mof_C 	C 	0.1114	0.1945	0.5	-0.211
Mof_C 	C 	0.0626	0.1765	0.5	-0.017
Mof_H 	H 	0.0639	0.1438	0.5	-0.004
Mof_C 	C 	0.4046	0.7501	-0	0.104
Mof_C 	C 	0.4406	0.7124	-0	-0.274
Mof_C 	C 	0.4179	0.6651	-0	0.043
Mof_H 	H 	0.4416	0.6424	-0	-0.011
Mof_C 	C 	0.38684	0.7455	-0	0.042
Mof_C 	C 	0.3886	0.6945	-0	-0.257
Mof_C 	C 	0.4374	0.6765	-0	-0.027
Mof_H 	H 	0.4361	0.6438	-0	-0.005
Mof_C 	C 	0.9046	0.2501	0.5	0.113
Mof_C 	C 	0.9406	0.2124	0.5	-0.244
Mof_C 	C 	0.9179	0.1651	0.5	0.048
Mof_H 	H 	0.9416	0.1424	0.5	-0.007
Mof_C 	C 	0.88684	0.2455	0.5	0.043
Mof_C 	C 	0.8886	0.1945	0.5	-0.209
Mof_C 	C 	0.9374	0.1765	0.5	-0.022
Mof_H 	H 	0.9361	0.1438	0.5	0.003
Mof_C 	C 	0.5954	0.2499	-0	0.104
Mof_C 	C 	0.5594	0.2876	-0	-0.273
Mof_C 	C 	0.5821	0.3349	-0	0.043
Mof_H 	H 	0.5584	0.3576	-0	-0.011
Mof_C 	C 	0.61316	0.2545	-0	0.041
Mof_C 	C 	0.6114	0.3055	-0	-0.257
Mof_C 	C 	0.5626	0.3235	-0	-0.027
Mof_H 	H 	0.5639	0.3562	-0	-0.005
Mof_C 	C 	0.0954	0.7499	0.5	0.119
Mof_C 	C 	0.0594	0.7876	0.5	-0.229
Mof_C 	C 	0.0821	0.8349	0.5	0.041
Mof_H 	H 	0.0584	0.8576	0.5	-0.005
Mof_C 	C 	0.11316	0.7545	0.5	0.034
Mof_C 	C 	0.1114	0.8055	0.5	-0.208
Mof_C 	C 	0.0626	0.8235	0.5	-0.021
Mof_H 	H 	0.0639	0.8562	0.5	-0.002
Mof_C 	C 	0.2499	0	0.5954	0.104
Mof_C 	C 	0.2876	0	0.5594	-0.273
Mof_C 	C 	0.3349	4.03151e-33	0.5821	0.043
Mof_H 	H 	0.3576	0	0.5584	-0.011
Mof_C 	C 	0.2545	0	0.61316	0.041
Mof_C 	C 	0.3055	-8.06302e-33	0.6114	-0.257
Mof_C 	C 	0.3235	0	0.5626	-0.027
Mof_H 	H 	0.3562	0	0.5639	-0.005
Mof_C 	C 	0.7499	0.5	0.0954	0.119
Mof_C 	C 	0.7876	0.5	0.0594	-0.229
Mof_C 	C 	0.8349	0.5	0.0821	0.041
Mof_H 	H 	0.8576	0.5	0.0584	-0.005
Mof_C 	C 	0.7545	0.5	0.11316	0.034
Mof_C 	C 	0.8055	0.5	0.1114	-0.208
Mof_C 	C 	0.8235	0.5	0.0626	-0.021
Mof_H 	H 	0.8562	0.5	0.0639	-0.002
Mof_C 	C 	0.7501	-4.03151e-33	0.4046	0.104
Mof_C 	C 	0.7124	0	0.4406	-0.274
Mof_C 	C 	0.6651	0	0.4179	0.043
Mof_H 	H 	0.6424	4.03151e-33	0.4416	-0.011
Mof_C 	C 	0.7455	0	0.38684	0.042
Mof_C 	C 	0.6945	-4.03151e-33	0.3886	-0.257
Mof_C 	C 	0.6765	0	0.4374	-0.027
Mof_H 	H 	0.6438	0	0.4361	-0.005
Mof_C 	C 	0.2501	0.5	0.9046	0.113
Mof_C 	C 	0.2124	0.5	0.9406	-0.244
Mof_C 	C 	0.1651	0.5	0.9179	0.048
Mof_H 	H 	0.1424	0.5	0.9416	-0.007
Mof_C 	C 	0.2455	0.5	0.88684	0.043
Mof_C 	C 	0.1945	0.5	0.8886	-0.209
Mof_C 	C 	0.1765	0.5	0.9374	-0.022
Mof_H 	H 	0.1438	0.5	0.9361	0.003
Mof_C 	C 	0.7501	0	0.5954	0.104
Mof_C 	C 	0.7124	0	0.5594	-0.274
Mof_C 	C 	0.6651	4.03151e-33	0.5821	0.043
Mof_H 	H 	0.6424	0	0.5584	-0.011
Mof_C 	C 	0.7455	0	0.61316	0.042
Mof_C 	C 	0.6945	-8.06302e-33	0.6114	-0.257
Mof_C 	C 	0.6765	0	0.5626	-0.027
Mof_H 	H 	0.6438	0	0.5639	-0.005
Mof_C 	C 	0.2501	0.5	0.0954	0.119
Mof_C 	C 	0.2124	0.5	0.0594	-0.233
Mof_C 	C 	0.1651	0.5	0.0821	0.045
Mof_H 	H 	0.1424	0.5	0.0584	-0.008
Mof_C 	C 	0.2455	0.5	0.11316	0.035
Mof_C 	C 	0.1945	0.5	0.1114	-0.211
Mof_C 	C 	0.1765	0.5	0.0626	-0.017
Mof_H 	H 	0.1438	0.5	0.0639	-0.004
Mof_C 	C 	0.2499	-4.03151e-33	0.4046	0.104
Mof_C 	C 	0.2876	0	0.4406	-0.273
Mof_C 	C 	0.3349	0	0.4179	0.043
Mof_H 	H 	0.3576	4.03151e-33	0.4416	-0.011
Mof_C 	C 	0.2545	0	0.38684	0.041
Mof_C 	C 	0.3055	-4.03151e-33	0.3886	-0.257
Mof_C 	C 	0.3235	0	0.4374	-0.027
Mof_H 	H 	0.3562	0	0.4361	-0.005
Mof_C 	C 	0.7499	0.5	0.9046	0.113
Mof_C 	C 	0.7876	0.5	0.9406	-0.24
Mof_C 	C 	0.8349	0.5	0.9179	0.043
Mof_H 	H 	0.8576	0.5	0.9416	-0.004
Mof_C 	C 	0.7545	0.5	0.88684	0.042
Mof_C 	C 	0.8055	0.5	0.8886	-0.206
Mof_C 	C 	0.8235	0.5	0.9374	-0.027
Mof_H 	H 	0.8562	0.5	0.9361	0.005
Mof_C 	C 	-5.25059e-33	0.4046	0.7501	0.104
Mof_C 	C 	-1.3455e-32	0.4406	0.7124	-0.274
Mof_C 	C 	1.05567e-32	0.4179	0.6651	0.043
Mof_H 	H 	2.40861e-33	0.4416	0.6424	-0.011
Mof_C 	C 	-5.26784e-33	0.38684	0.7455	0.042
Mof_C 	C 	-5.45906e-33	0.3886	0.6945	-0.257
Mof_C 	C 	2.53647e-33	0.4374	0.6765	-0.027
Mof_H 	H 	-5.64915e-33	0.4361	0.6438	-0.005
Mof_C 	C 	0.5	0.9046	0.2501	0.113
Mof_C 	C 	0.5	0.9406	0.2124	-0.244
Mof_C 	C 	0.5	0.9179	0.1651	0.048
Mof_H 	H 	0.5	0.9416	0.1424	-0.007
Mof_C 	C 	0.5	0.88684	0.2455	0.043
Mof_C 	C 	0.5	0.8886	0.1945	-0.209
Mof_C 	C 	0.5	0.9374	0.1765	-0.022
Mof_H 	H 	0.5	0.9361	0.1438	0.003
Mof_C 	C 	-5.11029e-33	0.5954	0.2499	0.104
Mof_C 	C 	1.07833e-33	0.5594	0.2876	-0.273
Mof_C 	C 	-2.77583e-33	0.5821	0.3349	0.043
Mof_H 	H 	1.34079e-33	0.5584	0.3576	-0.011
Mof_C 	C 	-3.07729e-33	0.61316	0.2545	0.041
Mof_C 	C 	1.14544e-33	0.6114	0.3055	-0.257
Mof_C 	C 	-2.81858e-33	0.5626	0.3235	-0.027
Mof_H 	H 	1.33554e-33	0.5639	0.3562	-0.005
Mof_C 	C 	0.5	0.0954	0.7499	0.119
Mof_C 	C 	0.5	0.0594	0.7876	-0.229
Mof_C 	C 	0.5	0.0821	0.8349	0.041
Mof_H 	H 	0.5	0.0584	0.8576	-0.005
Mof_C 	C 	0.5	0.11316	0.7545	0.034
Mof_C 	C 	0.5	0.1114	0.8055	-0.208
Mof_C 	C 	0.5	0.0626	0.8235	-0.021
Mof_H 	H 	0.5	0.0639	0.8562	-0.002
Mof_C 	C 	-1.07878e-33	0.4046	0.2499	0.104
Mof_C 	C 	-6.98469e-33	0.4406	0.2876	-0.273
Mof_C 	C 	1.25567e-33	0.4179	0.3349	0.043
Mof_H 	H 	5.37229e-33	0.4416	0.3576	-0.011
Mof_C 	C 	9.54222e-34	0.38684	0.2545	0.041
Mof_C 	C 	-2.88607e-33	0.3886	0.3055	-0.257
Mof_C 	C 	-2.81858e-33	0.4374	0.3235	-0.027
Mof_H 	H 	1.33554e-33	0.4361	0.3562	-0.005
Mof_C 	C 	0.5	0.9046	0.7499	0.113
Mof_C 	C 	0.5	0.9406	0.7876	-0.24
Mof_C 	C 	0.5	0.9179	0.8349	0.043
Mof_H 	H 	0.5	0.9416	0.8576	-0.004
Mof_C 	C 	0.5	0.88684	0.7545	0.042
Mof_C 	C 	0.5	0.8886	0.8055	-0.206
Mof_C 	C 	0.5	0.9374	0.8235	-0.027
Mof_H 	H 	0.5	0.9361	0.8562	0.005
Mof_C 	C 	2.81242e-33	0.5954	0.7501	0.104
Mof_C 	C 	-5.39195e-33	0.5594	0.7124	-0.274
Mof_C 	C 	1.05567e-32	0.5821	0.6651	0.043
Mof_H 	H 	-1.37174e-32	0.5584	0.6424	-0.011
Mof_C 	C 	-5.26784e-33	0.61316	0.7455	0.042
Mof_C 	C 	2.60396e-33	0.6114	0.6945	-0.257
Mof_C 	C 	1.05995e-32	0.5626	0.6765	-0.027
Mof_H 	H 	-1.37122e-32	0.5639	0.6438	-0.005
Mof_C 	C 	0.5	0.0954	0.2501	0.119
Mof_C 	C 	0.5	0.0594	0.2124	-0.233
Mof_C 	C 	0.5	0.0821	0.1651	0.045
Mof_H 	H 	0.5	0.0584	0.1424	-0.008
Mof_C 	C 	0.5	0.11316	0.2455	0.035
Mof_C 	C 	0.5	0.1114	0.1945	-0.211
Mof_C 	C 	0.5	0.0626	0.1765	-0.017
Mof_H 	H 	0.5	0.0639	0.1438	-0.004
Mof_C 	C 	0.1813	0.37994	0.1813	0.05
Mof_C 	C 	0.2177	0.3737	0.2177	-0.157
Mof_C 	C 	0.2272	0.3237	0.2272	-0.252
Mof_H 	H 	0.2504	0.321	0.2504	0.092
Mof_C 	C 	0.1822	0.3958	0.1822	0.136
Mof_C 	C 	0.2062	0.4329	0.2062	-0.345
Mof_C 	C 	0.2401	0.4154	0.2401	0.191
Mof_H 	H 	0.2556	0.4404	0.2556	0.081
Mof_C 	C 	0.6813	0.87994	0.6813	0.058
Mof_C 	C 	0.7177	0.8737	0.7177	-0.15
Mof_C 	C 	0.7272	0.8237	0.7272	-0.276
Mof_H 	H 	0.7504	0.821	0.7504	0.102
Mof_C 	C 	0.6822	0.8958	0.6822	0.13
Mof_C 	C 	0.7062	0.9329	0.7062	-0.366
Mof_C 	C 	0.7401	0.9154	0.7401	0.219
Mof_H 	H 	0.7556	0.9404	0.7556	0.081
Mof_C 	C 	0.8187	0.62006	0.1813	0.051
Mof_C 	C 	0.7823	0.6263	0.2177	-0.155
Mof_C 	C 	0.7728	0.6763	0.2272	-0.255
Mof_H 	H 	0.7496	0.679	0.2504	0.093
Mof_C 	C 	0.8178	0.6042	0.1822	0.135
Mof_C 	C 	0.7938	0.5671	0.2062	-0.346
Mof_C 	C 	0.7599	0.5846	0.2401	0.192
Mof_H 	H 	0.7444	0.5596	0.2556	0.08
Mof_C 	C 	0.3187	0.12006	0.6813	0.054
Mof_C 	C 	0.2823	0.1263	0.7177	-0.15
Mof_C 	C 	0.2728	0.1763	0.7272	-0.278
Mof_H 	H 	0.2496	0.179	0.7504	0.101
Mof_C 	C 	0.3178	0.1042	0.6822	0.133
Mof_C 	C 	0.2938	0.0671	0.7062	-0.357
Mof_C 	C 	0.2599	0.0846	0.7401	0.219
Mof_H 	H 	0.2444	0.0596	0.7556	0.079
Mof_C 	C 	0.8187	0.37994	0.8187	0.051
Mof_C 	C 	0.7823	0.3737	0.7823	-0.153
Mof_C 	C 	0.7728	0.3237	0.7728	-0.259
Mof_H 	H 	0.7496	0.321	0.7496	0.094
Mof_C 	C 	0.8178	0.3958	0.8178	0.135
Mof_C 	C 	0.7938	0.4329	0.7938	-0.346
Mof_C 	C 	0.7599	0.4154	0.7599	0.193
Mof_H 	H 	0.7444	0.4404	0.7444	0.08
Mof_C 	C 	0.3187	0.87994	0.3187	0.059
Mof_C 	C 	0.2823	0.8737	0.2823	-0.151
Mof_C 	C 	0.2728	0.8237	0.2728	-0.276
Mof_H 	H 	0.2496	0.821	0.2496	0.101
Mof_C 	C 	0.3178	0.8958	0.3178	0.13
Mof_C 	C 	0.2938	0.9329	0.2938	-0.366
Mof_C 	C 	0.2599	0.9154	0.2599	0.219
Mof_H 	H 	0.2444	0.9404	0.2444	0.082
Mof_C 	C 	0.1813	0.62006	0.8187	0.051
Mof_C 	C 	0.2177	0.6263	0.7823	-0.155
Mof_C 	C 	0.2272	0.6763	0.7728	-0.255
Mof_H 	H 	0.2504	0.679	0.7496	0.093
Mof_C 	C 	0.1822	0.6042	0.8178	0.135
Mof_C 	C 	0.2062	0.5671	0.7938	-0.346
Mof_C 	C 	0.2401	0.5846	0.7599	0.192
Mof_H 	H 	0.2556	0.5596	0.7444	0.08
Mof_C 	C 	0.6813	0.12006	0.3187	0.054
Mof_C 	C 	0.7177	0.1263	0.2823	-0.15
Mof_C 	C 	0.7272	0.1763	0.2728	-0.278
Mof_H 	H 	0.7504	0.179	0.2496	0.101
Mof_C 	C 	0.6822	0.1042	0.3178	0.133
Mof_C 	C 	0.7062	0.0671	0.2938	-0.357
Mof_C 	C 	0.7401	0.0846	0.2599	0.219
Mof_H 	H 	0.7556	0.0596	0.2444	0.079
Mof_C 	C 	0.1813	0.1813	0.37994	0.05
Mof_C 	C 	0.2177	0.2177	0.3737	-0.157
Mof_C 	C 	0.2272	0.2272	0.3237	-0.252
Mof_H 	H 	0.2504	0.2504	0.321	0.092
Mof_C 	C 	0.1822	0.1822	0.3958	0.136
Mof_C 	C 	0.2062	0.2062	0.4329	-0.345
Mof_C 	C 	0.2401	0.2401	0.4154	0.191
Mof_H 	H 	0.2556	0.2556	0.4404	0.081
Mof_C 	C 	0.6813	0.6813	0.87994	0.058
Mof_C 	C 	0.7177	0.7177	0.8737	-0.15
Mof_C 	C 	0.7272	0.7272	0.8237	-0.276
Mof_H 	H 	0.7504	0.7504	0.821	0.102
Mof_C 	C 	0.6822	0.6822	0.8958	0.13
Mof_C 	C 	0.7062	0.7062	0.9329	-0.366
Mof_C 	C 	0.7401	0.7401	0.9154	0.219
Mof_H 	H 	0.7556	0.7556	0.9404	0.081
Mof_C 	C 	0.1813	0.8187	0.62006	0.051
Mof_C 	C 	0.2177	0.7823	0.6263	-0.155
Mof_C 	C 	0.2272	0.7728	0.6763	-0.255
Mof_H 	H 	0.2504	0.7496	0.679	0.093
Mof_C 	C 	0.1822	0.8178	0.6042	0.135
Mof_C 	C 	0.2062	0.7938	0.5671	-0.346
Mof_C 	C 	0.2401	0.7599	0.5846	0.192
Mof_H 	H 	0.2556	0.7444	0.5596	0.08
Mof_C 	C 	0.6813	0.3187	0.12006	0.054
Mof_C 	C 	0.7177	0.2823	0.1263	-0.15
Mof_C 	C 	0.7272	0.2728	0.1763	-0.278
Mof_H 	H 	0.7504	0.2496	0.179	0.101
Mof_C 	C 	0.6822	0.3178	0.1042	0.133
Mof_C 	C 	0.7062	0.2938	0.0671	-0.357
Mof_C 	C 	0.7401	0.2599	0.0846	0.219
Mof_H 	H 	0.7556	0.2444	0.0596	0.079
Mof_C 	C 	0.8187	0.8187	0.37994	0.051
Mof_C 	C 	0.7823	0.7823	0.3737	-0.153
Mof_C 	C 	0.7728	0.7728	0.3237	-0.259
Mof_H 	H 	0.7496	0.7496	0.321	0.094
Mof_C 	C 	0.8178	0.8178	0.3958	0.135
Mof_C 	C 	0.7938	0.7938	0.4329	-0.346
Mof_C 	C 	0.7599	0.7599	0.4154	0.193
Mof_H 	H 	0.7444	0.7444	0.4404	0.08
Mof_C 	C 	0.3187	0.3187	0.87994	0.059
Mof_C 	C 	0.2823	0.2823	0.8737	-0.151
Mof_C 	C 	0.2728	0.2728	0.8237	-0.276
Mof_H 	H 	0.2496	0.2496	0.821	0.101
Mof_C 	C 	0.3178	0.3178	0.8958	0.13
Mof_C 	C 	0.2938	0.2938	0.9329	-0.366
Mof_C 	C 	0.2599	0.2599	0.9154	0.219
Mof_H 	H 	0.2444	0.2444	0.9404	0.082
Mof_C 	C 	0.8187	0.1813	0.62006	0.051
Mof_C 	C 	0.7823	0.2177	0.6263	-0.155
Mof_C 	C 	0.7728	0.2272	0.6763	-0.255
Mof_H 	H 	0.7496	0.2504	0.679	0.093
Mof_C 	C 	0.8178	0.1822	0.6042	0.135
Mof_C 	C 	0.7938	0.2062	0.5671	-0.346
Mof_C 	C 	0.7599	0.2401	0.5846	0.192
Mof_H 	H 	0.7444	0.2556	0.5596	0.08
Mof_C 	C 	0.3187	0.6813	0.12006	0.054
Mof_C 	C 	0.2823	0.7177	0.1263	-0.15
Mof_C 	C 	0.2728	0.7272	0.1763	-0.278
Mof_H 	H 	0.2496	0.7504	0.179	0.101
Mof_C 	C 	0.3178	0.6822	0.1042	0.133
Mof_C 	C 	0.2938	0.7062	0.0671	-0.357
Mof_C 	C 	0.2599	0.7401	0.0846	0.219
Mof_H 	H 	0.2444	0.7556	0.0596	0.079
Mof_C 	C 	0.37994	0.1813	0.1813	0.05
Mof_C 	C 	0.3737	0.2177	0.2177	-0.157
Mof_C 	C 	0.3237	0.2272	0.2272	-0.252
Mof_H 	H 	0.321	0.2504	0.2504	0.092
Mof_C 	C 	0.3958	0.1822	0.1822	0.136
Mof_C 	C 	0.4329	0.2062	0.2062	-0.345
Mof_C 	C 	0.4154	0.2401	0.2401	0.191
Mof_H 	H 	0.4404	0.2556	0.2556	0.081
Mof_C 	C 	0.87994	0.6813	0.6813	0.058
Mof_C 	C 	0.8737	0.7177	0.7177	-0.15
Mof_C 	C 	0.8237	0.7272	0.7272	-0.276
Mof_H 	H 	0.821	0.7504	0.7504	0.102
Mof_C 	C 	0.8958	0.6822	0.6822	0.13
Mof_C 	C 	0.9329	0.7062	0.7062	-0.366
Mof_C 	C 	0.9154	0.7401	0.7401	0.219
Mof_H 	H 	0.9404	0.7556	0.7556	0.081
Mof_C 	C 	0.62006	0.1813	0.8187	0.051
Mof_C 	C 	0.6263	0.2177	0.7823	-0.155
Mof_C 	C 	0.6763	0.2272	0.7728	-0.255
Mof_H 	H 	0.679	0.2504	0.7496	0.093
Mof_C 	C 	0.6042	0.1822	0.8178	0.135
Mof_C 	C 	0.5671	0.2062	0.7938	-0.346
Mof_C 	C 	0.5846	0.2401	0.7599	0.192
Mof_H 	H 	0.5596	0.2556	0.7444	0.08
Mof_C 	C 	0.12006	0.6813	0.3187	0.054
Mof_C 	C 	0.1263	0.7177	0.2823	-0.15
Mof_C 	C 	0.1763	0.7272	0.2728	-0.278
Mof_H 	H 	0.179	0.7504	0.2496	0.101
Mof_C 	C 	0.1042	0.6822	0.3178	0.133
Mof_C 	C 	0.0671	0.7062	0.2938	-0.357
Mof_C 	C 	0.0846	0.7401	0.2599	0.219
Mof_H 	H 	0.0596	0.7556	0.2444	0.079
Mof_C 	C 	0.37994	0.8187	0.8187	0.051
Mof_C 	C 	0.3737	0.7823	0.7823	-0.153
Mof_C 	C 	0.3237	0.7728	0.7728	-0.259
Mof_H 	H 	0.321	0.7496	0.7496	0.094
Mof_C 	C 	0.3958	0.8178	0.8178	0.135
Mof_C 	C 	0.4329	0.7938	0.7938	-0.346
Mof_C 	C 	0.4154	0.7599	0.7599	0.193
Mof_H 	H 	0.4404	0.7444	0.7444	0.08
Mof_C 	C 	0.87994	0.3187	0.3187	0.059
Mof_C 	C 	0.8737	0.2823	0.2823	-0.151
Mof_C 	C 	0.8237	0.2728	0.2728	-0.276
Mof_H 	H 	0.821	0.2496	0.2496	0.101
Mof_C 	C 	0.8958	0.3178	0.3178	0.13
Mof_C 	C 	0.9329	0.2938	0.2938	-0.366
Mof_C 	C 	0.9154	0.2599	0.2599	0.219
Mof_H 	H 	0.9404	0.2444	0.2444	0.082
Mof_C 	C 	0.62006	0.8187	0.1813	0.051
Mof_C 	C 	0.6263	0.7823	0.2177	-0.155
Mof_C 	C 	0.6763	0.7728	0.2272	-0.255
Mof_H 	H 	0.679	0.7496	0.2504	0.093
Mof_C 	C 	0.6042	0.8178	0.1822	0.135
Mof_C 	C 	0.5671	0.7938	0.2062	-0.346
Mof_C 	C 	0.5846	0.7599	0.2401	0.192
Mof_H 	H 	0.5596	0.7444	0.2556	0.08
Mof_C 	C 	0.12006	0.3187	0.6813	0.054
Mof_C 	C 	0.1263	0.2823	0.7177	-0.15
Mof_C 	C 	0.1763	0.2728	0.7272	-0.278
Mof_H 	H 	0.179	0.2496	0.7504	0.101
Mof_C 	C 	0.1042	0.3178	0.6822	0.133
Mof_C 	C 	0.0671	0.2938	0.7062	-0.357
Mof_C 	C 	0.0846	0.2599	0.7401	0.219
Mof_H 	H 	0.0596	0.2444	0.7556	0.079
Mof_C 	C 	0.37994	0.1813	0.8187	0.051
Mof_C 	C 	0.3737	0.2177	0.7823	-0.155
Mof_C 	C 	0.3237	0.2272	0.7728	-0.255
Mof_H 	H 	0.321	0.2504	0.7496	0.093
Mof_C 	C 	0.3958	0.1822	0.8178	0.135
Mof_C 	C 	0.4329	0.2062	0.7938	-0.346
Mof_C 	C 	0.4154	0.2401	0.7599	0.192
Mof_H 	H 	0.4404	0.2556	0.7444	0.08
Mof_C 	C 	0.87994	0.6813	0.3187	0.059
Mof_C 	C 	0.8737	0.7177	0.2823	-0.151
Mof_C 	C 	0.8237	0.7272	0.2728	-0.276
Mof_H 	H 	0.821	0.7504	0.2496	0.102
Mof_C 	C 	0.8958	0.6822	0.3178	0.13
Mof_C 	C 	0.9329	0.7062	0.2938	-0.366
Mof_C 	C 	0.9154	0.7401	0.2599	0.219
Mof_H 	H 	0.9404	0.7556	0.2444	0.082
Mof_C 	C 	0.62006	0.8187	0.8187	0.051
Mof_C 	C 	0.6263	0.7823	0.7823	-0.153
Mof_C 	C 	0.6763	0.7728	0.7728	-0.259
Mof_H 	H 	0.679	0.7496	0.7496	0.094
Mof_C 	C 	0.6042	0.8178	0.8178	0.135
Mof_C 	C 	0.5671	0.7938	0.7938	-0.346
Mof_C 	C 	0.5846	0.7599	0.7599	0.193
Mof_H 	H 	0.5596	0.7444	0.7444	0.08
Mof_C 	C 	0.12006	0.3187	0.3187	0.054
Mof_C 	C 	0.1263	0.2823	0.2823	-0.151
Mof_C 	C 	0.1763	0.2728	0.2728	-0.277
Mof_H 	H 	0.179	0.2496	0.2496	0.1
Mof_C 	C 	0.1042	0.3178	0.3178	0.133
Mof_C 	C 	0.0671	0.2938	0.2938	-0.357
Mof_C 	C 	0.0846	0.2599	0.2599	0.219
Mof_H 	H 	0.0596	0.2444	0.2444	0.079
Mof_C 	C 	0.37994	0.8187	0.1813	0.051
Mof_C 	C 	0.3737	0.7823	0.2177	-0.155
Mof_C 	C 	0.3237	0.7728	0.2272	-0.255
Mof_H 	H 	0.321	0.7496	0.2504	0.093
Mof_C 	C 	0.3958	0.8178	0.1822	0.135
Mof_C 	C 	0.4329	0.7938	0.2062	-0.346
Mof_C 	C 	0.4154	0.7599	0.2401	0.192
Mof_H 	H 	0.4404	0.7444	0.2556	0.08
Mof_C 	C 	0.87994	0.3187	0.6813	0.059
Mof_C 	C 	0.8737	0.2823	0.7177	-0.151
Mof_C 	C 	0.8237	0.2728	0.7272	-0.276
Mof_H 	H 	0.821	0.2496	0.7504	0.102
Mof_C 	C 	0.8958	0.3178	0.6822	0.13
Mof_C 	C 	0.9329	0.2938	0.7062	-0.366
Mof_C 	C 	0.9154	0.2599	0.7401	0.219
Mof_H 	H 	0.9404	0.2444	0.7556	0.082
Mof_C 	C 	0.62006	0.1813	0.1813	0.05
Mof_C 	C 	0.6263	0.2177	0.2177	-0.156
Mof_C 	C 	0.6763	0.2272	0.2272	-0.252
Mof_H 	H 	0.679	0.2504	0.2504	0.092
Mof_C 	C 	0.6042	0.1822	0.1822	0.136
Mof_C 	C 	0.5671	0.2062	0.2062	-0.345
Mof_C 	C 	0.5846	0.2401	0.2401	0.191
Mof_H 	H 	0.5596	0.2556	0.2556	0.081
Mof_C 	C 	0.12006	0.6813	0.6813	0.054
Mof_C 	C 	0.1263	0.7177	0.7177	-0.15
Mof_C 	C 	0.1763	0.7272	0.7272	-0.278
Mof_H 	H 	0.179	0.7504	0.7504	0.102
Mof_C 	C 	0.1042	0.6822	0.6822	0.133
Mof_C 	C 	0.0671	0.7062	0.7062	-0.357
Mof_C 	C 	0.0846	0.7401	0.7401	0.219
Mof_H 	H 	0.0596	0.7556	0.7556	0.078
Mof_C 	C 	0.1813	0.1813	0.62006	0.05
Mof_C 	C 	0.2177	0.2177	0.6263	-0.156
Mof_C 	C 	0.2272	0.2272	0.6763	-0.252
Mof_H 	H 	0.2504	0.2504	0.679	0.092
Mof_C 	C 	0.1822	0.1822	0.6042	0.136
Mof_C 	C 	0.2062	0.2062	0.5671	-0.345
Mof_C 	C 	0.2401	0.2401	0.5846	0.191
Mof_H 	H 	0.2556	0.2556	0.5596	0.081
Mof_C 	C 	0.6813	0.6813	0.12006	0.054
Mof_C 	C 	0.7177	0.7177	0.1263	-0.15
Mof_C 	C 	0.7272	0.7272	0.1763	-0.278
Mof_H 	H 	0.7504	0.7504	0.179	0.102
Mof_C 	C 	0.6822	0.6822	0.1042	0.133
Mof_C 	C 	0.7062	0.7062	0.0671	-0.357
Mof_C 	C 	0.7401	0.7401	0.0846	0.219
Mof_H 	H 	0.7556	0.7556	0.0596	0.078
Mof_C 	C 	0.8187	0.1813	0.37994	0.051
Mof_C 	C 	0.7823	0.2177	0.3737	-0.155
Mof_C 	C 	0.7728	0.2272	0.3237	-0.255
Mof_H 	H 	0.7496	0.2504	0.321	0.093
Mof_C 	C 	0.8178	0.1822	0.3958	0.135
Mof_C 	C 	0.7938	0.2062	0.4329	-0.346
Mof_C 	C 	0.7599	0.2401	0.4154	0.192
Mof_H 	H 	0.7444	0.2556	0.4404	0.08
Mof_C 	C 	0.3187	0.6813	0.87994	0.059
Mof_C 	C 	0.2823	0.7177	0.8737	-0.151
Mof_C 	C 	0.2728	0.7272	0.8237	-0.276
Mof_H 	H 	0.2496	0.7504	0.821	0.102
Mof_C 	C 	0.3178	0.6822	0.8958	0.13
Mof_C 	C 	0.2938	0.7062	0.9329	-0.366
Mof_C 	C 	0.2599	0.7401	0.9154	0.219
Mof_H 	H 	0.2444	0.7556	0.9404	0.082
Mof_C 	C 	0.8187	0.8187	0.62006	0.051
Mof_C 	C 	0.7823	0.7823	0.6263	-0.153
Mof_C 	C 	0.7728	0.7728	0.6763	-0.259
Mof_H 	H 	0.7496	0.7496	0.679	0.094
Mof_C 	C 	0.8178	0.8178	0.6042	0.135
Mof_C 	C 	0.7938	0.7938	0.5671	-0.346
Mof_C 	C 	0.7599	0.7599	0.5846	0.193
Mof_H 	H 	0.7444	0.7444	0.5596	0.08
Mof_C 	C 	0.3187	0.3187	0.12006	0.054
Mof_C 	C 	0.2823	0.2823	0.1263	-0.151
Mof_C 	C 	0.2728	0.2728	0.1763	-0.277
Mof_H 	H 	0.2496	0.2496	0.179	0.1
Mof_C 	C 	0.3178	0.3178	0.1042	0.133
Mof_C 	C 	0.2938	0.2938	0.0671	-0.357
Mof_C 	C 	0.2599	0.2599	0.0846	0.219
Mof_H 	H 	0.2444	0.2444	0.0596	0.079
Mof_C 	C 	0.1813	0.8187	0.37994	0.051
Mof_C 	C 	0.2177	0.7823	0.3737	-0.155
Mof_C 	C 	0.2272	0.7728	0.3237	-0.255
Mof_H 	H 	0.2504	0.7496	0.321	0.093
Mof_C 	C 	0.1822	0.8178	0.3958	0.135
Mof_C 	C 	0.2062	0.7938	0.4329	-0.346
Mof_C 	C 	0.2401	0.7599	0.4154	0.192
Mof_H 	H 	0.2556	0.7444	0.4404	0.08
Mof_C 	C 	0.6813	0.3187	0.87994	0.059
Mof_C 	C 	0.7177	0.2823	0.8737	-0.151
Mof_C 	C 	0.7272	0.2728	0.8237	-0.276
Mof_H 	H 	0.7504	0.2496	0.821	0.102
Mof_C 	C 	0.6822	0.3178	0.8958	0.13
Mof_C 	C 	0.7062	0.2938	0.9329	-0.366
Mof_C 	C 	0.7401	0.2599	0.9154	0.219
Mof_H 	H 	0.7556	0.2444	0.9404	0.082
Mof_C 	C 	0.1813	0.37994	0.8187	0.051
Mof_C 	C 	0.2177	0.3737	0.7823	-0.155
Mof_C 	C 	0.2272	0.3237	0.7728	-0.255
Mof_H 	H 	0.2504	0.321	0.7496	0.093
Mof_C 	C 	0.1822	0.3958	0.8178	0.135
Mof_C 	C 	0.2062	0.4329	0.7938	-0.346
Mof_C 	C 	0.2401	0.4154	0.7599	0.192
Mof_H 	H 	0.2556	0.4404	0.7444	0.08
Mof_C 	C 	0.6813	0.87994	0.3187	0.059
Mof_C 	C 	0.7177	0.8737	0.2823	-0.151
Mof_C 	C 	0.7272	0.8237	0.2728	-0.276
Mof_H 	H 	0.7504	0.821	0.2496	0.102
Mof_C 	C 	0.6822	0.8958	0.3178	0.13
Mof_C 	C 	0.7062	0.9329	0.2938	-0.366
Mof_C 	C 	0.7401	0.9154	0.2599	0.219
Mof_H 	H 	0.7556	0.9404	0.2444	0.082
Mof_C 	C 	0.1813	0.62006	0.1813	0.05
Mof_C 	C 	0.2177	0.6263	0.2177	-0.156
Mof_C 	C 	0.2272	0.6763	0.2272	-0.252
Mof_H 	H 	0.2504	0.679	0.2504	0.092
Mof_C 	C 	0.1822	0.6042	0.1822	0.136
Mof_C 	C 	0.2062	0.5671	0.2062	-0.345
Mof_C 	C 	0.2401	0.5846	0.2401	0.191
Mof_H 	H 	0.2556	0.5596	0.2556	0.081
Mof_C 	C 	0.6813	0.12006	0.6813	0.054
Mof_C 	C 	0.7177	0.1263	0.7177	-0.15
Mof_C 	C 	0.7272	0.1763	0.7272	-0.278
Mof_H 	H 	0.7504	0.179	0.7504	0.102
Mof_C 	C 	0.6822	0.1042	0.6822	0.133
Mof_C 	C 	0.7062	0.0671	0.7062	-0.357
Mof_C 	C 	0.7401	0.0846	0.7401	0.219
Mof_H 	H 	0.7556	0.0596	0.7556	0.078
Mof_C 	C 	0.8187	0.37994	0.1813	0.051
Mof_C 	C 	0.7823	0.3737	0.2177	-0.155
Mof_C 	C 	0.7728	0.3237	0.2272	-0.255
Mof_H 	H 	0.7496	0.321	0.2504	0.093
Mof_C 	C 	0.8178	0.3958	0.1822	0.135
Mof_C 	C 	0.7938	0.4329	0.2062	-0.346
Mof_C 	C 	0.7599	0.4154	0.2401	0.192
Mof_H 	H 	0.7444	0.4404	0.2556	0.08
Mof_C 	C 	0.3187	0.87994	0.6813	0.059
Mof_C 	C 	0.2823	0.8737	0.7177	-0.151
Mof_C 	C 	0.2728	0.8237	0.7272	-0.276
Mof_H 	H 	0.2496	0.821	0.7504	0.102
Mof_C 	C 	0.3178	0.8958	0.6822	0.13
Mof_C 	C 	0.2938	0.9329	0.7062	-0.366
Mof_C 	C 	0.2599	0.9154	0.7401	0.219
Mof_H 	H 	0.2444	0.9404	0.7556	0.082
Mof_C 	C 	0.8187	0.62006	0.8187	0.051
Mof_C 	C 	0.7823	0.6263	0.7823	-0.153
Mof_C 	C 	0.7728	0.6763	0.7728	-0.259
Mof_H 	H 	0.7496	0.679	0.7496	0.094
Mof_C 	C 	0.8178	0.6042	0.8178	0.135
Mof_C 	C 	0.7938	0.5671	0.7938	-0.346
Mof_C 	C 	0.7599	0.5846	0.7599	0.193
Mof_H 	H 	0.7444	0.5596	0.7444	0.08
Mof_C 	C 	0.3187	0.12006	0.3187	0.054
Mof_C 	C 	0.2823	0.1263	0.2823	-0.151
Mof_C 	C 	0.2728	0.1763	0.2728	-0.277
Mof_H 	H 	0.2496	0.179	0.2496	0.1
Mof_C 	C 	0.3178	0.1042	0.3178	0.133
Mof_C 	C 	0.2938	0.0671	0.2938	-0.357
Mof_C 	C 	0.2599	0.0846	0.2599	0.219
Mof_H 	H 	0.2444	0.0596	0.2444	0.079
Mof_O 	O 	0.2382	0.5	0.2382	2.596
Mof_O 	O 	0.7382	-8.06302e-33	0.7382	2.563
Mof_O 	O 	0.7618	0.5	0.2382	2.596
Mof_O 	O 	0.2618	-8.06302e-33	0.7382	2.561
Mof_O 	O 	0.7618	0.5	0.7618	2.596
Mof_O 	O 	0.2618	0	0.2618	2.558
Mof_O 	O 	0.2382	0.5	0.7618	2.596
Mof_O 	O 	0.7382	0	0.2618	2.561
Mof_O 	O 	0.2382	0.2382	0.5	2.596
Mof_O 	O 	0.7382	0.7382	-0	2.563
Mof_O 	O 	0.2382	0.7618	0.5	2.596
Mof_O 	O 	0.7382	0.2618	-0	2.561
Mof_O 	O 	0.7618	0.7618	0.5	2.596
Mof_O 	O 	0.2618	0.2618	-0	2.558
Mof_O 	O 	0.7618	0.2382	0.5	2.596
Mof_O 	O 	0.2618	0.7382	-0	2.561
Mof_O 	O 	0.5	0.2382	0.2382	2.596
Mof_O 	O 	2.76781e-33	0.7382	0.7382	2.563
Mof_O 	O 	0.5	0.2382	0.7618	2.596
Mof_O 	O 	-7.08142e-33	0.7382	0.2618	2.561
Mof_O 	O 	0.5	0.7618	0.7618	2.596
Mof_O 	O 	-5.06567e-33	0.2618	0.2618	2.558
Mof_O 	O 	0.5	0.7618	0.2382	2.596
Mof_O 	O 	-5.29521e-33	0.2618	0.7382	2.561
Mof_H 	H 	0.2543	0.5	0.2996	-0.138
Mof_H 	H 	0.7543	-8.06302e-33	0.7996	-0.184
Mof_H 	H 	0.7457	0.5	0.2996	-0.138
Mof_H 	H 	0.2457	-8.06302e-33	0.7996	-0.186
Mof_H 	H 	0.7457	0.5	0.7004	-0.138
Mof_H 	H 	0.2457	0	0.2004	-0.189
Mof_H 	H 	0.2543	0.5	0.7004	-0.138
Mof_H 	H 	0.7543	0	0.2004	-0.187
Mof_H 	H 	0.2996	0.2543	0.5	-0.138
Mof_H 	H 	0.7996	0.7543	-0	-0.184
Mof_H 	H 	0.2996	0.7457	0.5	-0.138
Mof_H 	H 	0.7996	0.2457	-0	-0.186
Mof_H 	H 	0.7004	0.7457	0.5	-0.138
Mof_H 	H 	0.2004	0.2457	-0	-0.189
Mof_H 	H 	0.7004	0.2543	0.5	-0.138
Mof_H 	H 	0.2004	0.7543	-0	-0.187
Mof_H 	H 	0.5	0.2996	0.2543	-0.138
Mof_H 	H 	-1.32979e-32	0.7996	0.7543	-0.184
Mof_H 	H 	0.5	0.2996	0.7457	-0.138
Mof_H 	H 	-7.14179e-33	0.7996	0.2457	-0.186
Mof_H 	H 	0.5	0.7004	0.7457	-0.138
Mof_H 	H 	2.93698e-33	0.2004	0.2457	-0.189
Mof_H 	H 	0.5	0.7004	0.2543	-0.138
Mof_H 	H 	-5.23485e-33	0.2004	0.7543	-0.187
Mof_H 	H 	0.5	0.2543	0.7004	-0.138
Mof_H 	H 	-5.29588e-33	0.7543	0.2004	-0.187
Mof_H 	H 	0.5	0.7457	0.7004	-0.138
Mof_H 	H 	2.76713e-33	0.2457	0.2004	-0.189
Mof_H 	H 	0.5	0.7457	0.2996	-0.138
Mof_H 	H 	-1.3128e-32	0.2457	0.7996	-0.186
Mof_H 	H 	0.5	0.2543	0.2996	-0.138
Mof_H 	H 	-1.3128e-32	0.7543	0.7996	-0.184
Mof_H 	H 	0.2543	0.2996	0.5	-0.138
Mof_H 	H 	0.7543	0.7996	-0	-0.184
Mof_H 	H 	0.7457	0.2996	0.5	-0.138
Mof_H 	H 	0.2457	0.7996	-0	-0.186
Mof_H 	H 	0.7457	0.7004	0.5	-0.138
Mof_H 	H 	0.2457	0.2004	-0	-0.189
Mof_H 	H 	0.2543	0.7004	0.5	-0.138
Mof_H 	H 	0.7543	0.2004	-0	-0.187
Mof_H 	H 	0.2996	0.5	0.7457	-0.138
Mof_H 	H 	0.7996	-2.01575e-33	0.2457	-0.186
Mof_H 	H 	0.2996	0.5	0.2543	-0.138
Mof_H 	H 	0.7996	-8.06302e-33	0.7543	-0.184
Mof_H 	H 	0.7004	0.5	0.2543	-0.138
Mof_H 	H 	0.2004	-8.06302e-33	0.7543	-0.187
Mof_H 	H 	0.7004	0.5	0.7457	-0.138
Mof_H 	H 	0.2004	-2.01575e-33	0.2457	-0.189
_end
