data_functionalizedCrystal
_audit_creation_method	'EQeq! by Chris Wilmer'
_symmetry_space_group_name_H-M	'P1'
_symmetry_Int_Tables_number	1
_symmetry_cell_setting	triclinic
loop_
_symmetry_equiv_pos_as_xyz
  x,y,z
_cell_length_a	6.4059
_cell_length_b	16.3502
_cell_length_c	17.8196
_cell_angle_alpha	98.109
_cell_angle_beta	94.056
_cell_angle_gamma	95.651
loop_
_atom_site_label
_atom_site_type_symbol
_atom_site_fract_x
_atom_site_fract_y
_atom_site_fract_z
_atom_site_charge
Mof_Na	Na	0.57075	0.3964	0.51929	2.027
Mof_Na	Na	0.87431	0.50879	0.41351	1.839
Mof_Na	Na	0.8496	0.41205	0.72859	2.144
Mof_Na	Na	0.2734	0.311	0.64102	2.046
Mof_O 	O 	0.2193	0.51455	0.3742	-1.16
Mof_O 	O 	0.5123	0.46547	0.41404	-1.118
Mof_O 	O 	0.9061	0.39056	0.46913	-1.109
Mof_O 	O 	0.2011	0.35814	0.52434	-1.209
Mof_O 	O 	0.1956	0.45561	0.70761	-1.129
Mof_O 	O 	0.491	0.40385	0.73876	-1.023
Mof_O 	O 	0.9202	0.2791	0.67965	-0.926
Mof_O 	O 	0.1485	0.1894	0.6973	-0.59
Mof_O 	O 	0.5782	0.27503	0.5786	-1.18
Mof_H 	H 	0.6921	0.2798	0.6121	0.267
Mof_H 	H 	0.5456	0.2271	0.5466	0.283
Mof_N 	N 	0.1333	0.95369	0.90141	-0.224
Mof_H 	H 	0.0757	0.9737	0.9427	0.137
Mof_N 	N 	0.2346	0.09506	0.02316	-0.15
Mof_C 	C 	0.3437	0.45905	0.37258	0.658
Mof_C 	C 	0.2869	0.38064	0.31548	-0.475
Mof_C 	C 	0.036	0.34001	0.47952	0.787
Mof_C 	C 	0.4249	0.32026	0.30693	0.266
Mof_H 	H 	0.5534	0.327	0.3383	-0.164
Mof_C 	C 	0.0469	0.2984	0.2168	-0.341
Mof_H 	H 	0.9159	0.2907	0.1868	0.11
Mof_C 	C 	0.187	0.2389	0.2064	0.213
Mof_C 	C 	0.2982	0.9952	0.8719	0.132
Mof_C 	C 	0.0968	0.3693	0.2709	0.247
Mof_H 	H 	0.0005	0.4098	0.2773	-0.205
Mof_C 	C 	0.364	0.4569	0.7489	0.705
Mof_C 	C 	0.3895	0.1137	0.977	0.105
Mof_C 	C 	0.4181	0.0687	0.9063	-0.144
Mof_C 	C 	0.0458	0.8877	0.8484	0.137
Mof_C 	C 	0.1338	0.1657	0.1451	-0.176
Mof_C 	C 	0.3756	0.2503	0.2528	-0.345
Mof_H 	H 	0.4713	0.2094	0.2472	0.123
Mof_C 	C 	0.165	0.8863	0.784	-0.1
Mof_H 	H 	0.1415	0.8466	0.739	0.037
Mof_C 	C 	0.2643	0.1572	0.0847	0.112
Mof_C 	C 	0.5724	0.1077	0.8585	0.167
Mof_C 	C 	0.3191	0.9518	0.7977	-0.088
Mof_H 	H 	0.4213	0.9659	0.7642	0.045
Mof_C 	C 	0.9803	0.2187	0.7093	0.452
Mof_C 	C 	0.8401	0.1799	0.7623	-0.3
Mof_C 	C 	0.5211	0.1878	0.0109	-0.084
Mof_H 	H 	0.6403	0.2127	0.9904	0.03
Mof_C 	C 	0.4444	0.2153	0.0768	-0.098
Mof_H 	H 	0.498	0.2635	0.1116	0.034
Mof_C 	C 	0.9947	0.2535	0.4358	-0.847
Mof_H 	H 	0.8442	0.2344	0.4333	0.182
Mof_H 	H 	0.0753	0.2159	0.4615	0.163
Mof_H 	H 	0.0379	0.2537	0.3841	0.217
Mof_C 	C 	0.4114	0.5267	0.8154	-0.772
Mof_H 	H 	0.3229	0.5155	0.8562	0.14
Mof_H 	H 	0.382	0.5793	0.7987	0.192
Mof_H 	H 	0.5601	0.5304	0.8342	0.139
Mof_C 	C 	0.7637	0.0778	0.8446	-0.239
Mof_H 	H 	0.8042	0.0323	0.8678	0.114
Mof_C 	C 	0.8959	0.1137	0.7971	0.148
Mof_H 	H 	0.0264	0.0926	0.7883	-0.021
Mof_C 	C 	0.6516	0.2113	0.7779	0.182
Mof_H 	H 	0.613	0.2582	0.7564	-0.182
Mof_C 	C 	0.5202	0.1745	0.8247	-0.259
Mof_H 	H 	0.3901	0.1959	0.8338	0.079
Mof_Na	Na	0.42925	0.6036	0.48071	2.026
Mof_Na	Na	0.12569	0.49121	0.58649	1.838
Mof_Na	Na	0.1504	0.58795	0.27141	2.144
Mof_Na	Na	0.7266	0.689	0.35898	2.046
Mof_O 	O 	0.7807	0.48545	0.6258	-1.16
Mof_O 	O 	0.4877	0.53453	0.58596	-1.118
Mof_O 	O 	0.0939	0.60944	0.53087	-1.109
Mof_O 	O 	0.7989	0.64186	0.47566	-1.209
Mof_O 	O 	0.8044	0.54439	0.29239	-1.129
Mof_O 	O 	0.509	0.59615	0.26124	-1.023
Mof_O 	O 	0.0798	0.7209	0.32035	-0.926
Mof_O 	O 	0.8515	0.8106	0.3027	-0.59
Mof_O 	O 	0.4218	0.72497	0.4214	-1.18
Mof_H 	H 	0.3079	0.7202	0.3879	0.267
Mof_H 	H 	0.4544	0.7729	0.4534	0.283
Mof_N 	N 	0.8667	0.04631	0.09859	-0.224
Mof_H 	H 	0.9243	0.0263	0.0573	0.137
Mof_N 	N 	0.7654	0.90494	0.97684	-0.15
Mof_C 	C 	0.6563	0.54095	0.62742	0.658
Mof_C 	C 	0.7131	0.61936	0.68452	-0.475
Mof_C 	C 	0.964	0.65999	0.52048	0.787
Mof_C 	C 	0.5751	0.67974	0.69307	0.266
Mof_H 	H 	0.4466	0.673	0.6617	-0.164
Mof_C 	C 	0.9531	0.7016	0.7832	-0.341
Mof_H 	H 	0.0841	0.7093	0.8132	0.11
Mof_C 	C 	0.813	0.7611	0.7936	0.213
Mof_C 	C 	0.7018	0.0048	0.1281	0.132
Mof_C 	C 	0.9032	0.6307	0.7291	0.247
Mof_H 	H 	0.9995	0.5902	0.7227	-0.205
Mof_C 	C 	0.636	0.5431	0.2511	0.705
Mof_C 	C 	0.6105	0.8863	0.023	0.105
Mof_C 	C 	0.5819	0.9313	0.0937	-0.144
Mof_C 	C 	0.9542	0.1123	0.1516	0.137
Mof_C 	C 	0.8662	0.8343	0.8549	-0.176
Mof_C 	C 	0.6244	0.7497	0.7472	-0.345
Mof_H 	H 	0.5287	0.7906	0.7528	0.123
Mof_C 	C 	0.835	0.1137	0.216	-0.1
Mof_H 	H 	0.8585	0.1534	0.261	0.037
Mof_C 	C 	0.7357	0.8428	0.9153	0.112
Mof_C 	C 	0.4276	0.8923	0.1415	0.167
Mof_C 	C 	0.6809	0.0482	0.2023	-0.088
Mof_H 	H 	0.5787	0.0341	0.2358	0.045
Mof_C 	C 	0.0197	0.7813	0.2907	0.452
Mof_C 	C 	0.1599	0.8201	0.2377	-0.3
Mof_C 	C 	0.4789	0.8122	0.9891	-0.084
Mof_H 	H 	0.3597	0.7873	0.0096	0.03
Mof_C 	C 	0.5556	0.7847	0.9232	-0.098
Mof_H 	H 	0.502	0.7365	0.8884	0.034
Mof_C 	C 	0.0053	0.7465	0.5642	-0.847
Mof_H 	H 	0.1558	0.7656	0.5667	0.182
Mof_H 	H 	0.9247	0.7841	0.5385	0.163
Mof_H 	H 	0.9621	0.7463	0.6159	0.217
Mof_C 	C 	0.5886	0.4733	0.1846	-0.772
Mof_H 	H 	0.6771	0.4845	0.1438	0.14
Mof_H 	H 	0.618	0.4207	0.2013	0.192
Mof_H 	H 	0.4399	0.4696	0.1658	0.139
Mof_C 	C 	0.2363	0.9222	0.1554	-0.239
Mof_H 	H 	0.1958	0.9677	0.1322	0.114
Mof_C 	C 	0.1041	0.8863	0.2029	0.148
Mof_H 	H 	0.9736	0.9074	0.2117	-0.021
Mof_C 	C 	0.3484	0.7887	0.2221	0.182
Mof_H 	H 	0.387	0.7418	0.2436	-0.182
Mof_C 	C 	0.4798	0.8255	0.1753	-0.259
Mof_H 	H 	0.6099	0.8041	0.1662	0.079
_end
