data_functionalizedCrystal
_audit_creation_method	'EQeq! by Chris Wilmer'
_symmetry_space_group_name_H-M	'P1'
_symmetry_Int_Tables_number	1
_symmetry_cell_setting	triclinic
loop_
_symmetry_equiv_pos_as_xyz
  x,y,z
_cell_length_a	7.1491
_cell_length_b	10.7063
_cell_length_c	17.1197
_cell_angle_alpha	97.097
_cell_angle_beta	90
_cell_angle_gamma	90
loop_
_atom_site_label
_atom_site_type_symbol
_atom_site_fract_x
_atom_site_fract_y
_atom_site_fract_z
_atom_site_charge
Mof_Dy	Dy	0.02016	0.17632	0.74667	2.027
Mof_Dy	Dy	0.52016	0.32368	0.75333	2.05
Mof_Dy	Dy	0.97984	0.82368	0.25333	2.027
Mof_Dy	Dy	0.47984	0.67632	0.24667	2.05
Mof_H 	H 	0.1792	0.995	0.5219	0.058
Mof_H 	H 	0.4616	0.6925	0.5634	0.228
Mof_H 	H 	0.1599	0.3372	0.5517	0.046
Mof_H 	H 	0.6792	0.505	0.9781	0.057
Mof_H 	H 	0.9616	0.8075	0.9366	0.224
Mof_H 	H 	0.6599	0.1628	0.9483	0.047
Mof_H 	H 	0.8208	0.005	0.4781	0.058
Mof_H 	H 	0.5384	0.3075	0.4366	0.228
Mof_H 	H 	0.8401	0.6628	0.4483	0.046
Mof_H 	H 	0.3208	0.495	0.0219	0.057
Mof_H 	H 	0.0384	0.1925	0.0634	0.224
Mof_H 	H 	0.3401	0.8372	0.0517	0.047
Mof_C 	C 	0.3262	0.085	0.64909	0.367
Mof_C 	C 	0.4251	0.0427	0.57364	-0.058
Mof_C 	C 	0.3095	0.9941	0.51204	0.009
Mof_C 	C 	0.7523	0.0961	0.62582	0.389
Mof_C 	C 	0.618	0.0486	0.56196	-0.072
Mof_C 	C 	0.8524	0.3909	0.6348	0.476
Mof_C 	C 	0.9276	0.4526	0.56695	-0.093
Mof_C 	C 	0.8395	0.5532	0.53699	-0.034
Mof_C 	C 	0.6792	0.6216	0.57911	0.341
Mof_C 	C 	0.0892	0.4014	0.52972	0.016
Mof_C 	C 	0.8262	0.415	0.85091	0.365
Mof_C 	C 	0.9251	0.4573	0.92636	-0.05
Mof_C 	C 	0.8095	0.5059	0.98796	0.009
Mof_C 	C 	0.2523	0.4039	0.87418	0.391
Mof_C 	C 	0.118	0.4514	0.93804	-0.078
Mof_C 	C 	0.3524	0.1091	0.8652	0.478
Mof_C 	C 	0.4276	0.0474	0.93305	-0.1
Mof_C 	C 	0.3395	0.9468	0.96301	-0.031
Mof_C 	C 	0.1792	0.8784	0.92089	0.339
Mof_C 	C 	0.5892	0.0986	0.97028	0.018
Mof_C 	C 	0.6738	0.915	0.35091	0.367
Mof_C 	C 	0.5749	0.9573	0.42636	-0.058
Mof_C 	C 	0.6905	0.0059	0.48796	0.009
Mof_C 	C 	0.2477	0.9039	0.37418	0.389
Mof_C 	C 	0.382	0.9514	0.43804	-0.072
Mof_C 	C 	0.1476	0.6091	0.3652	0.476
Mof_C 	C 	0.0724	0.5474	0.43305	-0.093
Mof_C 	C 	0.1605	0.4468	0.46301	-0.034
Mof_C 	C 	0.3208	0.3784	0.42089	0.341
Mof_C 	C 	0.9108	0.5986	0.47028	0.016
Mof_C 	C 	0.1738	0.585	0.14909	0.365
Mof_C 	C 	0.0749	0.5427	0.07364	-0.05
Mof_C 	C 	0.1905	0.4941	0.01204	0.009
Mof_C 	C 	0.7477	0.5961	0.12582	0.391
Mof_C 	C 	0.882	0.5486	0.06196	-0.078
Mof_C 	C 	0.6476	0.8909	0.1348	0.478
Mof_C 	C 	0.5724	0.9526	0.06695	-0.1
Mof_C 	C 	0.6605	0.0532	0.03699	-0.031
Mof_C 	C 	0.8208	0.1216	0.07911	0.339
Mof_C 	C 	0.4108	0.9014	0.02972	0.018
Mof_O 	O 	0.9704	0.34474	0.67664	-0.52
Mof_O 	O 	0.3077	0.20349	0.67092	-0.605
Mof_O 	O 	0.69	0.14503	0.6927	-0.584
Mof_O 	O 	0.2455	0.00645	0.68509	-0.4
Mof_O 	O 	0.9227	0.08483	0.61411	-0.436
Mof_O 	O 	0.6784	0.38662	0.64399	-0.503
Mof_O 	O 	0.6802	0.65253	0.6501	-0.265
Mof_O 	O 	0.545	0.6486	0.53277	-0.395
Mof_O 	O 	0.4704	0.15526	0.82336	-0.526
Mof_O 	O 	0.8077	0.29651	0.82908	-0.6
Mof_O 	O 	0.19	0.35497	0.8073	-0.587
Mof_O 	O 	0.7455	0.49355	0.81491	-0.397
Mof_O 	O 	0.4227	0.41517	0.88589	-0.443
Mof_O 	O 	0.1784	0.11338	0.85601	-0.505
Mof_O 	O 	0.1802	0.84747	0.8499	-0.263
Mof_O 	O 	0.045	0.8514	0.96723	-0.39
Mof_O 	O 	0.0296	0.65526	0.32336	-0.52
Mof_O 	O 	0.6923	0.79651	0.32908	-0.605
Mof_O 	O 	0.31	0.85497	0.3073	-0.584
Mof_O 	O 	0.7545	0.99355	0.31491	-0.4
Mof_O 	O 	0.0773	0.91517	0.38589	-0.436
Mof_O 	O 	0.3216	0.61338	0.35601	-0.503
Mof_O 	O 	0.3198	0.34747	0.3499	-0.265
Mof_O 	O 	0.455	0.3514	0.46723	-0.395
Mof_O 	O 	0.5296	0.84474	0.17664	-0.526
Mof_O 	O 	0.1923	0.70349	0.17092	-0.6
Mof_O 	O 	0.81	0.64503	0.1927	-0.587
Mof_O 	O 	0.2545	0.50645	0.18509	-0.397
Mof_O 	O 	0.5773	0.58483	0.11411	-0.443
Mof_O 	O 	0.8216	0.88662	0.14399	-0.505
Mof_O 	O 	0.8198	0.15253	0.1501	-0.263
Mof_O 	O 	0.955	0.1486	0.03277	-0.39
_end
