data_functionalizedCrystal
_audit_creation_method	'EQeq! by Chris Wilmer'
_symmetry_space_group_name_H-M	'P1'
_symmetry_Int_Tables_number	1
_symmetry_cell_setting	triclinic
loop_
_symmetry_equiv_pos_as_xyz
  x,y,z
_cell_length_a	15.5653
_cell_length_b	15.3856
_cell_length_c	14.8364
_cell_angle_alpha	90
_cell_angle_beta	109.725
_cell_angle_gamma	90
loop_
_atom_site_label
_atom_site_type_symbol
_atom_site_fract_x
_atom_site_fract_y
_atom_site_fract_z
_atom_site_charge
Mof_Cd	Cd	0.62229	0.85035	0.74346	0.391
Mof_Cd	Cd	0.82242	0.67823	0.76684	0.388
Mof_N 	N 	0.4714	0.2545	0.3518	-0.152
Mof_N 	N 	0.7279	0.9431	0.8465	-0.152
Mof_N 	N 	0.7393	0.5756	0.6615	-0.152
Mof_N 	N 	0.8194	0.5952	0.9042	-0.143
Mof_N 	N 	0.0659	0.2286	0.1379	-0.155
Mof_C 	C 	0.4856	0.3306	0.3181	0.077
Mof_H 	H 	0.4573	0.3418	0.2532	0.017
Mof_C 	C 	0.5406	0.3944	0.3748	-0.129
Mof_H 	H 	0.5478	0.4473	0.348	0.074
Mof_C 	C 	0.5849	0.3792	0.4718	0.057
Mof_C 	C 	0.5715	0.2986	0.5049	-0.133
Mof_H 	H 	0.6011	0.2842	0.5687	0.077
Mof_C 	C 	0.5145	0.2389	0.4443	0.08
Mof_H 	H 	0.5058	0.1854	0.4691	0.019
Mof_C 	C 	0.791	0.9175	0.9279	0.08
Mof_H 	H 	0.791	0.8596	0.9458	0.018
Mof_C 	C 	0.8559	0.9718	0.9869	-0.128
Mof_H 	H 	0.8994	0.9498	0.0418	0.075
Mof_C 	C 	0.8569	0.059	0.9648	0.053
Mof_C 	C 	0.7902	0.0868	0.8809	-0.129
Mof_H 	H 	0.7871	0.1449	0.8632	0.073
Mof_C 	C 	0.7287	0.028	0.8242	0.071
Mof_H 	H 	0.6856	0.0479	0.7678	0.009
Mof_C 	C 	0.0249	0.242	0.0438	0.071
Mof_H 	H 	0.0435	0.2892	0.0157	0.008
Mof_C 	C 	0.9565	0.1892	0.9867	-0.135
Mof_H 	H 	0.9301	0.2014	0.9218	0.073
Mof_C 	C 	0.9273	0.1188	0.0253	0.055
Mof_C 	C 	0.969	0.1054	0.1233	-0.133
Mof_H 	H 	0.9512	0.0591	0.1532	0.073
Mof_C 	C 	0.0367	0.161	0.1757	0.075
Mof_H 	H 	0.0635	0.1509	0.2411	0.009
Mof_C 	C 	0.6721	0.5966	0.5806	0.067
Mof_H 	H 	0.6589	0.6549	0.5662	0.036
Mof_C 	C 	0.6215	0.5343	0.5177	-0.12
Mof_H 	H 	0.5749	0.5512	0.4625	0.074
Mof_C 	C 	0.6399	0.4467	0.5366	0.051
Mof_C 	C 	0.7117	0.4259	0.619	-0.13
Mof_H 	H 	0.7282	0.3681	0.6334	0.073
Mof_C 	C 	0.7583	0.4909	0.6794	0.072
Mof_H 	H 	0.8051	0.4755	0.7352	-0
Mof_C 	C 	0.704	0.7024	0.9049	0.27
Mof_C 	C 	0.7711	0.6309	0.955	0.029
Mof_C 	C 	0.7784	0.6033	0.0466	-0.095
Mof_C 	C 	0.8342	0.5321	0.0827	0.043
Mof_H 	H 	0.8401	0.5106	0.143	0.019
Mof_C 	C 	0.8809	0.4934	0.0294	-0.131
Mof_H 	H 	0.9178	0.4452	0.0527	0.071
Mof_C 	C 	0.8719	0.5274	0.9413	0.073
Mof_H 	H 	0.9042	0.5016	0.9059	-0.001
Mof_C 	C 	0.7325	0.6456	0.1107	0.343
Mof_O 	O 	0.7124	0.7342	0.8284	-0.287
Mof_O 	O 	0.6458	0.7236	0.9397	-0.247
Mof_O 	O 	0.6688	0.6022	0.1228	-0.287
Mof_O 	O 	0.7646	0.7139	0.1515	-0.297
Mof_Cd	Cd	0.37771	0.35035	0.75654	0.39
Mof_Cd	Cd	0.17758	0.17823	0.73316	0.387
Mof_N 	N 	0.5286	0.7545	0.1482	-0.153
Mof_N 	N 	0.2721	0.4431	0.6535	-0.153
Mof_N 	N 	0.2607	0.0756	0.8385	-0.154
Mof_N 	N 	0.1806	0.0952	0.5958	-0.143
Mof_N 	N 	0.9341	0.7286	0.3621	-0.156
Mof_C 	C 	0.5144	0.8306	0.1819	0.076
Mof_H 	H 	0.5427	0.8418	0.2468	0.017
Mof_C 	C 	0.4594	0.8944	0.1252	-0.129
Mof_H 	H 	0.4522	0.9473	0.152	0.073
Mof_C 	C 	0.4151	0.8792	0.0282	0.055
Mof_C 	C 	0.4285	0.7986	0.9951	-0.132
Mof_H 	H 	0.3989	0.7842	0.9313	0.077
Mof_C 	C 	0.4855	0.7389	0.0557	0.08
Mof_H 	H 	0.4942	0.6854	0.0309	0.019
Mof_C 	C 	0.209	0.4175	0.5721	0.08
Mof_H 	H 	0.209	0.3596	0.5542	0.017
Mof_C 	C 	0.1441	0.4718	0.5131	-0.128
Mof_H 	H 	0.1006	0.4498	0.4582	0.076
Mof_C 	C 	0.1431	0.559	0.5352	0.053
Mof_C 	C 	0.2098	0.5868	0.6191	-0.129
Mof_H 	H 	0.2129	0.6449	0.6368	0.073
Mof_C 	C 	0.2713	0.528	0.6758	0.071
Mof_H 	H 	0.3144	0.5479	0.7322	0.009
Mof_C 	C 	0.9751	0.742	0.4562	0.071
Mof_H 	H 	0.9565	0.7892	0.4843	0.008
Mof_C 	C 	0.0435	0.6892	0.5133	-0.135
Mof_H 	H 	0.0699	0.7014	0.5782	0.073
Mof_C 	C 	0.0727	0.6188	0.4747	0.055
Mof_C 	C 	0.031	0.6054	0.3767	-0.133
Mof_H 	H 	0.0488	0.5591	0.3468	0.073
Mof_C 	C 	0.9633	0.661	0.3243	0.075
Mof_H 	H 	0.9365	0.6509	0.2589	0.009
Mof_C 	C 	0.3279	0.0966	0.9194	0.068
Mof_H 	H 	0.3411	0.1549	0.9338	0.035
Mof_C 	C 	0.3785	0.0343	0.9823	-0.121
Mof_H 	H 	0.4251	0.0512	0.0375	0.075
Mof_C 	C 	0.3601	0.9467	0.9634	0.052
Mof_C 	C 	0.2883	0.9259	0.881	-0.131
Mof_H 	H 	0.2718	0.8681	0.8666	0.073
Mof_C 	C 	0.2417	0.9909	0.8206	0.073
Mof_H 	H 	0.1949	0.9755	0.7648	-0
Mof_C 	C 	0.296	0.2024	0.5951	0.27
Mof_C 	C 	0.2289	0.1309	0.545	0.028
Mof_C 	C 	0.2216	0.1033	0.4534	-0.094
Mof_C 	C 	0.1658	0.0321	0.4173	0.041
Mof_H 	H 	0.1599	0.0106	0.357	0.019
Mof_C 	C 	0.1191	0.9934	0.4706	-0.129
Mof_H 	H 	0.0822	0.9452	0.4473	0.071
Mof_C 	C 	0.1281	0.0274	0.5587	0.072
Mof_H 	H 	0.0958	0.0016	0.5941	-0.001
Mof_C 	C 	0.2675	0.1456	0.3893	0.343
Mof_O 	O 	0.2876	0.2342	0.6716	-0.287
Mof_O 	O 	0.3542	0.2236	0.5603	-0.247
Mof_O 	O 	0.3312	0.1022	0.3772	-0.287
Mof_O 	O 	0.2354	0.2139	0.3485	-0.297
Mof_Cd	Cd	0.37771	0.14965	0.25654	0.39
Mof_Cd	Cd	0.17758	0.32177	0.23316	0.387
Mof_N 	N 	0.5286	0.7455	0.6482	-0.153
Mof_N 	N 	0.2721	0.0569	0.1535	-0.153
Mof_N 	N 	0.2607	0.4244	0.3385	-0.153
Mof_N 	N 	0.1806	0.4048	0.0958	-0.144
Mof_N 	N 	0.9341	0.7714	0.8621	-0.156
Mof_C 	C 	0.5144	0.6694	0.6819	0.076
Mof_H 	H 	0.5427	0.6582	0.7468	0.016
Mof_C 	C 	0.4594	0.6056	0.6252	-0.13
Mof_H 	H 	0.4522	0.5527	0.652	0.073
Mof_C 	C 	0.4151	0.6208	0.5282	0.056
Mof_C 	C 	0.4285	0.7014	0.4951	-0.133
Mof_H 	H 	0.3989	0.7158	0.4313	0.077
Mof_C 	C 	0.4855	0.7611	0.5557	0.08
Mof_H 	H 	0.4942	0.8146	0.5309	0.019
Mof_C 	C 	0.209	0.0825	0.0721	0.08
Mof_H 	H 	0.209	0.1404	0.0542	0.018
Mof_C 	C 	0.1441	0.0282	0.0131	-0.128
Mof_H 	H 	0.1006	0.0502	0.9582	0.075
Mof_C 	C 	0.1431	0.941	0.0352	0.053
Mof_C 	C 	0.2098	0.9132	0.1191	-0.129
Mof_H 	H 	0.2129	0.8551	0.1368	0.073
Mof_C 	C 	0.2713	0.972	0.1758	0.071
Mof_H 	H 	0.3144	0.9521	0.2322	0.009
Mof_C 	C 	0.9751	0.758	0.9562	0.071
Mof_H 	H 	0.9565	0.7108	0.9843	0.008
Mof_C 	C 	0.0435	0.8108	0.0133	-0.135
Mof_H 	H 	0.0699	0.7986	0.0782	0.073
Mof_C 	C 	0.0727	0.8812	0.9747	0.055
Mof_C 	C 	0.031	0.8946	0.8767	-0.133
Mof_H 	H 	0.0488	0.9409	0.8468	0.073
Mof_C 	C 	0.9633	0.839	0.8243	0.075
Mof_H 	H 	0.9365	0.8491	0.7589	0.009
Mof_C 	C 	0.3279	0.4034	0.4194	0.067
Mof_H 	H 	0.3411	0.3451	0.4338	0.036
Mof_C 	C 	0.3785	0.4657	0.4823	-0.12
Mof_H 	H 	0.4251	0.4488	0.5375	0.074
Mof_C 	C 	0.3601	0.5533	0.4634	0.051
Mof_C 	C 	0.2883	0.5741	0.381	-0.13
Mof_H 	H 	0.2718	0.6319	0.3666	0.073
Mof_C 	C 	0.2417	0.5091	0.3206	0.072
Mof_H 	H 	0.1949	0.5245	0.2648	-0
Mof_C 	C 	0.296	0.2976	0.0951	0.27
Mof_C 	C 	0.2289	0.3691	0.045	0.029
Mof_C 	C 	0.2216	0.3967	0.9534	-0.095
Mof_C 	C 	0.1658	0.4679	0.9173	0.043
Mof_H 	H 	0.1599	0.4894	0.857	0.019
Mof_C 	C 	0.1191	0.5066	0.9706	-0.131
Mof_H 	H 	0.0822	0.5548	0.9473	0.071
Mof_C 	C 	0.1281	0.4726	0.0587	0.073
Mof_H 	H 	0.0958	0.4984	0.0941	-0.001
Mof_C 	C 	0.2675	0.3544	0.8893	0.343
Mof_O 	O 	0.2876	0.2658	0.1716	-0.287
Mof_O 	O 	0.3542	0.2764	0.0603	-0.247
Mof_O 	O 	0.3312	0.3978	0.8772	-0.287
Mof_O 	O 	0.2354	0.2861	0.8485	-0.297
Mof_Cd	Cd	0.62229	0.64965	0.24346	0.39
Mof_Cd	Cd	0.82242	0.82177	0.26684	0.387
Mof_N 	N 	0.4714	0.2455	0.8518	-0.153
Mof_N 	N 	0.7279	0.5569	0.3465	-0.153
Mof_N 	N 	0.7393	0.9244	0.1615	-0.154
Mof_N 	N 	0.8194	0.9048	0.4042	-0.143
Mof_N 	N 	0.0659	0.2714	0.6379	-0.156
Mof_C 	C 	0.4856	0.1694	0.8181	0.076
Mof_H 	H 	0.4573	0.1582	0.7532	0.017
Mof_C 	C 	0.5406	0.1056	0.8748	-0.129
Mof_H 	H 	0.5478	0.0527	0.848	0.073
Mof_C 	C 	0.5849	0.1208	0.9718	0.055
Mof_C 	C 	0.5715	0.2014	0.0049	-0.132
Mof_H 	H 	0.6011	0.2158	0.0687	0.077
Mof_C 	C 	0.5145	0.2611	0.9443	0.08
Mof_H 	H 	0.5058	0.3146	0.9691	0.019
Mof_C 	C 	0.791	0.5825	0.4279	0.08
Mof_H 	H 	0.791	0.6404	0.4458	0.017
Mof_C 	C 	0.8559	0.5282	0.4869	-0.128
Mof_H 	H 	0.8994	0.5502	0.5418	0.076
Mof_C 	C 	0.8569	0.441	0.4648	0.053
Mof_C 	C 	0.7902	0.4132	0.3809	-0.129
Mof_H 	H 	0.7871	0.3551	0.3632	0.073
Mof_C 	C 	0.7287	0.472	0.3242	0.071
Mof_H 	H 	0.6856	0.4521	0.2678	0.009
Mof_C 	C 	0.0249	0.258	0.5438	0.071
Mof_H 	H 	0.0435	0.2108	0.5157	0.008
Mof_C 	C 	0.9565	0.3108	0.4867	-0.135
Mof_H 	H 	0.9301	0.2986	0.4218	0.073
Mof_C 	C 	0.9273	0.3812	0.5253	0.055
Mof_C 	C 	0.969	0.3946	0.6233	-0.133
Mof_H 	H 	0.9512	0.4409	0.6532	0.073
Mof_C 	C 	0.0367	0.339	0.6757	0.075
Mof_H 	H 	0.0635	0.3491	0.7411	0.009
Mof_C 	C 	0.6721	0.9034	0.0806	0.068
Mof_H 	H 	0.6589	0.8451	0.0662	0.035
Mof_C 	C 	0.6215	0.9657	0.0177	-0.121
Mof_H 	H 	0.5749	0.9488	0.9625	0.075
Mof_C 	C 	0.6399	0.0533	0.0366	0.052
Mof_C 	C 	0.7117	0.0741	0.119	-0.131
Mof_H 	H 	0.7282	0.1319	0.1334	0.073
Mof_C 	C 	0.7583	0.0091	0.1794	0.073
Mof_H 	H 	0.8051	0.0245	0.2352	-0
Mof_C 	C 	0.704	0.7976	0.4049	0.27
Mof_C 	C 	0.7711	0.8691	0.455	0.028
Mof_C 	C 	0.7784	0.8967	0.5466	-0.094
Mof_C 	C 	0.8342	0.9679	0.5827	0.041
Mof_H 	H 	0.8401	0.9894	0.643	0.019
Mof_C 	C 	0.8809	0.0066	0.5294	-0.129
Mof_H 	H 	0.9178	0.0548	0.5527	0.071
Mof_C 	C 	0.8719	0.9726	0.4413	0.072
Mof_H 	H 	0.9042	0.9984	0.4059	-0.001
Mof_C 	C 	0.7325	0.8544	0.6107	0.343
Mof_O 	O 	0.7124	0.7658	0.3284	-0.287
Mof_O 	O 	0.6458	0.7764	0.4397	-0.247
Mof_O 	O 	0.6688	0.8978	0.6228	-0.287
Mof_O 	O 	0.7646	0.7861	0.6515	-0.297
_end
