data_functionalizedCrystal
_audit_creation_method	'EQeq! by Chris Wilmer'
_symmetry_space_group_name_H-M	'P1'
_symmetry_Int_Tables_number	1
_symmetry_cell_setting	triclinic
loop_
_symmetry_equiv_pos_as_xyz
  x,y,z
_cell_length_a	15.175
_cell_length_b	10.927
_cell_length_c	20.718
_cell_angle_alpha	90
_cell_angle_beta	108.441
_cell_angle_gamma	90
loop_
_atom_site_label
_atom_site_type_symbol
_atom_site_fract_x
_atom_site_fract_y
_atom_site_fract_z
_atom_site_charge
Mof_Tb	Tb	0.61369	0.03561	0.96709	2.282
Mof_C 	C 	0.7859	0.1492	0.0241	0.343
Mof_C 	C 	0.8709	0.2195	0.0625	-0.135
Mof_C 	C 	0.9301	0.1763	0.1234	0.084
Mof_H 	H 	0.9171	0.1027	0.1411	0.017
Mof_C 	C 	0.8906	0.3309	0.0375	0.083
Mof_H 	H 	0.8504	0.3618	0.997	0.014
Mof_C 	C 	0.9697	0.3963	0.0723	-0.187
Mof_H 	H 	0.9822	0.4708	0.0552	0.09
Mof_C 	C 	0.0307	0.3506	0.1331	0.144
Mof_C 	C 	0.0086	0.2415	0.1582	-0.188
Mof_H 	H 	0.0474	0.2115	0.1994	0.105
Mof_C 	C 	0.1156	0.4249	0.1699	-0.186
Mof_H 	H 	0.1561	0.4277	0.1419	0.091
Mof_H 	H 	0.0961	0.5081	0.1745	0.088
Mof_C 	C 	0.2341	0.289	0.2449	0.052
Mof_C 	C 	0.2485	0.2295	0.1886	-0.056
Mof_H 	H 	0.2127	0.2516	0.1448	0.066
Mof_C 	C 	0.2901	0.2511	0.3107	-0.026
Mof_H 	H 	0.2806	0.2857	0.349	0.054
Mof_C 	C 	0.3583	0.1638	0.3186	-0.122
Mof_C 	C 	0.4177	0.1273	0.389	0.494
Mof_C 	C 	0.3724	0.1069	0.2627	0.031
Mof_H 	H 	0.4191	0.0489	0.2686	0.047
Mof_C 	C 	0.315	0.1386	0.1975	-0.058
Mof_C 	C 	0.328	0.0747	0.1365	0.325
Mof_C 	C 	0.1556	0.4433	0.2952	-0.227
Mof_H 	H 	0.156	0.383	0.3297	0.105
Mof_H 	H 	0.095	0.482	0.2811	0.099
Mof_C 	C 	0.2287	0.5399	0.3268	0.226
Mof_C 	C 	0.2173	0.6154	0.377	-0.281
Mof_H 	H 	0.1653	0.605	0.391	0.128
Mof_C 	C 	0.3071	0.5565	0.309	-0.276
Mof_H 	H 	0.3169	0.5068	0.2755	0.14
Mof_C 	C 	0.2799	0.705	0.4067	0.207
Mof_H 	H 	0.2684	0.7567	0.4388	-0.036
Mof_C 	C 	0.372	0.6443	0.3389	0.201
Mof_H 	H 	0.4242	0.6531	0.325	-0.018
Mof_C 	C 	0.361	0.7197	0.3893	-0.271
Mof_C 	C 	0.4327	0.8132	0.423	0.552
Mof_N 	N 	0.1689	0.3806	0.2368	-0.071
Mof_O 	O 	0.7258	0.1979	0.9742	-0.433
Mof_O 	O 	0.7748	0.0424	0.0429	-0.431
Mof_O 	O 	0.3075	0.1275	0.08	-0.41
Mof_O 	O 	0.3611	0.9685	0.1436	-0.42
Mof_O 	O 	0.4931	0.0759	0.3929	-0.545
Mof_O 	O 	0.3892	0.1527	0.4376	-0.535
Mof_O 	O 	0.5083	0.8107	0.4119	-0.537
Mof_O 	O 	0.413	0.8891	0.4623	-0.628
Mof_Tb	Tb	0.38631	0.03561	0.53291	2.295
Mof_C 	C 	0.2141	0.1492	0.4759	0.337
Mof_C 	C 	0.1291	0.2195	0.4375	-0.128
Mof_C 	C 	0.0699	0.1763	0.3766	0.077
Mof_H 	H 	0.0829	0.1027	0.3589	0.019
Mof_C 	C 	0.1094	0.3309	0.4625	0.073
Mof_H 	H 	0.1496	0.3618	0.503	0.019
Mof_C 	C 	0.0303	0.3963	0.4277	-0.183
Mof_H 	H 	0.0178	0.4708	0.4448	0.088
Mof_C 	C 	0.9693	0.3506	0.3669	0.141
Mof_C 	C 	0.9914	0.2415	0.3418	-0.18
Mof_H 	H 	0.9526	0.2115	0.3006	0.103
Mof_C 	C 	0.8844	0.4249	0.3301	-0.184
Mof_H 	H 	0.8439	0.4277	0.3581	0.09
Mof_H 	H 	0.9039	0.5081	0.3255	0.087
Mof_C 	C 	0.7659	0.289	0.2551	0.052
Mof_C 	C 	0.7515	0.2295	0.3114	-0.057
Mof_H 	H 	0.7873	0.2516	0.3552	0.066
Mof_C 	C 	0.7099	0.2511	0.1893	-0.027
Mof_H 	H 	0.7194	0.2857	0.151	0.055
Mof_C 	C 	0.6417	0.1638	0.1814	-0.12
Mof_C 	C 	0.5823	0.1273	0.111	0.492
Mof_C 	C 	0.6276	0.1069	0.2373	0.03
Mof_H 	H 	0.5809	0.0489	0.2314	0.047
Mof_C 	C 	0.685	0.1386	0.3025	-0.057
Mof_C 	C 	0.672	0.0747	0.3635	0.323
Mof_C 	C 	0.8444	0.4433	0.2048	-0.227
Mof_H 	H 	0.844	0.383	0.1703	0.105
Mof_H 	H 	0.905	0.482	0.2189	0.099
Mof_C 	C 	0.7713	0.5399	0.1732	0.226
Mof_C 	C 	0.7827	0.6154	0.123	-0.281
Mof_H 	H 	0.8347	0.605	0.109	0.128
Mof_C 	C 	0.6929	0.5565	0.191	-0.276
Mof_H 	H 	0.6831	0.5068	0.2245	0.14
Mof_C 	C 	0.7201	0.705	0.0933	0.207
Mof_H 	H 	0.7316	0.7567	0.0612	-0.036
Mof_C 	C 	0.628	0.6443	0.1611	0.201
Mof_H 	H 	0.5758	0.6531	0.175	-0.018
Mof_C 	C 	0.639	0.7197	0.1107	-0.271
Mof_C 	C 	0.5673	0.8132	0.077	0.551
Mof_N 	N 	0.8311	0.3806	0.2632	-0.071
Mof_O 	O 	0.2742	0.1979	0.5258	-0.429
Mof_O 	O 	0.2252	0.0424	0.4571	-0.433
Mof_O 	O 	0.6925	0.1275	0.42	-0.412
Mof_O 	O 	0.6389	0.9685	0.3564	-0.419
Mof_O 	O 	0.5069	0.0759	0.1071	-0.541
Mof_O 	O 	0.6108	0.1527	0.0624	-0.531
Mof_O 	O 	0.4917	0.8107	0.0881	-0.536
Mof_O 	O 	0.587	0.8891	0.0377	-0.627
Mof_Tb	Tb	0.38631	0.96439	0.03291	2.283
Mof_C 	C 	0.2141	0.8508	0.9759	0.344
Mof_C 	C 	0.1291	0.7805	0.9375	-0.134
Mof_C 	C 	0.0699	0.8237	0.8766	0.085
Mof_H 	H 	0.0829	0.8973	0.8589	0.017
Mof_C 	C 	0.1094	0.6691	0.9625	0.083
Mof_H 	H 	0.1496	0.6382	0.003	0.014
Mof_C 	C 	0.0303	0.6037	0.9277	-0.187
Mof_H 	H 	0.0178	0.5292	0.9448	0.09
Mof_C 	C 	0.9693	0.6494	0.8669	0.144
Mof_C 	C 	0.9914	0.7585	0.8418	-0.188
Mof_H 	H 	0.9526	0.7885	0.8006	0.105
Mof_C 	C 	0.8844	0.5751	0.8301	-0.186
Mof_H 	H 	0.8439	0.5723	0.8581	0.091
Mof_H 	H 	0.9039	0.4919	0.8255	0.088
Mof_C 	C 	0.7659	0.711	0.7551	0.052
Mof_C 	C 	0.7515	0.7705	0.8114	-0.056
Mof_H 	H 	0.7873	0.7484	0.8552	0.066
Mof_C 	C 	0.7099	0.7489	0.6893	-0.026
Mof_H 	H 	0.7194	0.7143	0.651	0.054
Mof_C 	C 	0.6417	0.8362	0.6814	-0.122
Mof_C 	C 	0.5823	0.8727	0.611	0.494
Mof_C 	C 	0.6276	0.8931	0.7373	0.031
Mof_H 	H 	0.5809	0.9511	0.7314	0.047
Mof_C 	C 	0.685	0.8614	0.8025	-0.058
Mof_C 	C 	0.672	0.9253	0.8635	0.325
Mof_C 	C 	0.8444	0.5567	0.7048	-0.227
Mof_H 	H 	0.844	0.617	0.6703	0.105
Mof_H 	H 	0.905	0.518	0.7189	0.099
Mof_C 	C 	0.7713	0.4601	0.6732	0.226
Mof_C 	C 	0.7827	0.3846	0.623	-0.281
Mof_H 	H 	0.8347	0.395	0.609	0.128
Mof_C 	C 	0.6929	0.4435	0.691	-0.276
Mof_H 	H 	0.6831	0.4932	0.7245	0.14
Mof_C 	C 	0.7201	0.295	0.5933	0.207
Mof_H 	H 	0.7316	0.2433	0.5612	-0.036
Mof_C 	C 	0.628	0.3557	0.6611	0.201
Mof_H 	H 	0.5758	0.3469	0.675	-0.018
Mof_C 	C 	0.639	0.2803	0.6107	-0.271
Mof_C 	C 	0.5673	0.1868	0.577	0.552
Mof_N 	N 	0.8311	0.6194	0.7632	-0.071
Mof_O 	O 	0.2742	0.8021	0.0258	-0.433
Mof_O 	O 	0.2252	0.9576	0.9571	-0.431
Mof_O 	O 	0.6925	0.8725	0.92	-0.41
Mof_O 	O 	0.6389	0.0315	0.8564	-0.42
Mof_O 	O 	0.5069	0.9241	0.6071	-0.545
Mof_O 	O 	0.6108	0.8473	0.5624	-0.535
Mof_O 	O 	0.4917	0.1893	0.5881	-0.537
Mof_O 	O 	0.587	0.1109	0.5377	-0.628
Mof_Tb	Tb	0.61369	0.96439	0.46709	2.295
Mof_C 	C 	0.7859	0.8508	0.5241	0.337
Mof_C 	C 	0.8709	0.7805	0.5625	-0.128
Mof_C 	C 	0.9301	0.8237	0.6234	0.077
Mof_H 	H 	0.9171	0.8973	0.6411	0.019
Mof_C 	C 	0.8906	0.6691	0.5375	0.073
Mof_H 	H 	0.8504	0.6382	0.497	0.019
Mof_C 	C 	0.9697	0.6037	0.5723	-0.183
Mof_H 	H 	0.9822	0.5292	0.5552	0.088
Mof_C 	C 	0.0307	0.6494	0.6331	0.141
Mof_C 	C 	0.0086	0.7585	0.6582	-0.18
Mof_H 	H 	0.0474	0.7885	0.6994	0.103
Mof_C 	C 	0.1156	0.5751	0.6699	-0.184
Mof_H 	H 	0.1561	0.5723	0.6419	0.09
Mof_H 	H 	0.0961	0.4919	0.6745	0.087
Mof_C 	C 	0.2341	0.711	0.7449	0.052
Mof_C 	C 	0.2485	0.7705	0.6886	-0.057
Mof_H 	H 	0.2127	0.7484	0.6448	0.066
Mof_C 	C 	0.2901	0.7489	0.8107	-0.027
Mof_H 	H 	0.2806	0.7143	0.849	0.055
Mof_C 	C 	0.3583	0.8362	0.8186	-0.12
Mof_C 	C 	0.4177	0.8727	0.889	0.492
Mof_C 	C 	0.3724	0.8931	0.7627	0.03
Mof_H 	H 	0.4191	0.9511	0.7686	0.047
Mof_C 	C 	0.315	0.8614	0.6975	-0.057
Mof_C 	C 	0.328	0.9253	0.6365	0.323
Mof_C 	C 	0.1556	0.5567	0.7952	-0.227
Mof_H 	H 	0.156	0.617	0.8297	0.105
Mof_H 	H 	0.095	0.518	0.7811	0.099
Mof_C 	C 	0.2287	0.4601	0.8268	0.226
Mof_C 	C 	0.2173	0.3846	0.877	-0.281
Mof_H 	H 	0.1653	0.395	0.891	0.128
Mof_C 	C 	0.3071	0.4435	0.809	-0.276
Mof_H 	H 	0.3169	0.4932	0.7755	0.14
Mof_C 	C 	0.2799	0.295	0.9067	0.207
Mof_H 	H 	0.2684	0.2433	0.9388	-0.036
Mof_C 	C 	0.372	0.3557	0.8389	0.201
Mof_H 	H 	0.4242	0.3469	0.825	-0.018
Mof_C 	C 	0.361	0.2803	0.8893	-0.271
Mof_C 	C 	0.4327	0.1868	0.923	0.551
Mof_N 	N 	0.1689	0.6194	0.7368	-0.071
Mof_O 	O 	0.7258	0.8021	0.4742	-0.429
Mof_O 	O 	0.7748	0.9576	0.5429	-0.433
Mof_O 	O 	0.3075	0.8725	0.58	-0.412
Mof_O 	O 	0.3611	0.0315	0.6436	-0.419
Mof_O 	O 	0.4931	0.9241	0.8929	-0.541
Mof_O 	O 	0.3892	0.8473	0.9376	-0.531
Mof_O 	O 	0.5083	0.1893	0.9119	-0.536
Mof_O 	O 	0.413	0.1109	0.9623	-0.627
_end
