data_functionalizedCrystal
_audit_creation_method	'EQeq! by Chris Wilmer'
_symmetry_space_group_name_H-M	'P1'
_symmetry_Int_Tables_number	1
_symmetry_cell_setting	triclinic
loop_
_symmetry_equiv_pos_as_xyz
  x,y,z
_cell_length_a	8.5164
_cell_length_b	9.0562
_cell_length_c	11.9772
_cell_angle_alpha	90
_cell_angle_beta	90
_cell_angle_gamma	90
loop_
_atom_site_label
_atom_site_type_symbol
_atom_site_fract_x
_atom_site_fract_y
_atom_site_fract_z
_atom_site_charge
Mof_Mn	Mn	0.25186	0.25	0.25	1.056
Mof_Mn	Mn	0.75186	0.75	0.25	1.056
Mof_Mn	Mn	0.74814	0.75	0.75	1.064
Mof_Mn	Mn	0.24814	0.25	0.75	1.065
Mof_H 	H 	0.75	0.7076	0.5	-0.106
Mof_H 	H 	0.75	0.7924	-0	-0.09
Mof_H 	H 	0.5835	0.4358	0.2323	-0.121
Mof_H 	H 	0.25	0.2924	0.5	-0.106
Mof_H 	H 	0.9165	0.0642	0.7323	-0.107
Mof_H 	H 	0.0835	0.9358	0.2677	-0.111
Mof_H 	H 	0.25	0.2076	-0	-0.089
Mof_H 	H 	0.0835	0.5642	0.2323	-0.121
Mof_H 	H 	0.4165	0.9358	0.7323	-0.113
Mof_H 	H 	0.5835	0.0642	0.2677	-0.117
Mof_H 	H 	0.4165	0.5642	0.7677	-0.111
Mof_H 	H 	0.9165	0.4358	0.7677	-0.111
Mof_C 	C 	0.48014	0.51534	0.71657	0.512
Mof_C 	C 	0.51986	0.01534	0.21657	0.51
Mof_C 	C 	0.01986	0.98466	0.21657	0.488
Mof_C 	C 	0.75	0.6897	-0	0.387
Mof_C 	C 	0.51986	0.48466	0.28343	0.511
Mof_C 	C 	0.25	0.1897	0.5	0.494
Mof_C 	C 	0.48014	0.98466	0.78343	0.508
Mof_C 	C 	0.25	0.3103	-0	0.382
Mof_C 	C 	0.98014	0.48466	0.71657	0.507
Mof_C 	C 	0.75	0.8103	0.5	0.494
Mof_C 	C 	0.98014	0.01534	0.78343	0.484
Mof_C 	C 	0.01986	0.51534	0.28343	0.509
Mof_O 	O 	0.25645	0.12847	0.4075	-0.37
Mof_O 	O 	0.90452	0.9161	0.17962	-0.38
Mof_O 	O 	0.09548	0.0839	0.82038	-0.356
Mof_O 	O 	0.40452	0.4161	0.32038	-0.384
Mof_O 	O 	0.5573	0.61229	0.30883	-0.369
Mof_O 	O 	0.4427	0.38771	0.69117	-0.366
Mof_O 	O 	0.25645	0.37153	0.0925	-0.355
Mof_O 	O 	0.9427	0.61229	0.69117	-0.364
Mof_O 	O 	0.09548	0.4161	0.67962	-0.38
Mof_O 	O 	0.74355	0.62847	0.9075	-0.304
Mof_O 	O 	0.0573	0.11229	0.19117	-0.364
Mof_O 	O 	0.59548	0.5839	0.67962	-0.382
Mof_O 	O 	0.24355	0.12847	0.5925	-0.371
Mof_O 	O 	0.24355	0.37153	0.9075	-0.301
Mof_O 	O 	0.0573	0.38771	0.30883	-0.368
Mof_O 	O 	0.9427	0.88771	0.80883	-0.344
Mof_O 	O 	0.74355	0.87153	0.5925	-0.371
Mof_O 	O 	0.90452	0.5839	0.32038	-0.383
Mof_O 	O 	0.75645	0.62847	0.0925	-0.356
Mof_O 	O 	0.40452	0.0839	0.17962	-0.391
Mof_O 	O 	0.5573	0.88771	0.19117	-0.374
Mof_O 	O 	0.59548	0.9161	0.82038	-0.368
Mof_O 	O 	0.4427	0.11229	0.80883	-0.353
Mof_O 	O 	0.75645	0.87153	0.4075	-0.37
_end
