data_functionalizedCrystal
_audit_creation_method	'EQeq! by Chris Wilmer'
_symmetry_space_group_name_H-M	'P1'
_symmetry_Int_Tables_number	1
_symmetry_cell_setting	triclinic
loop_
_symmetry_equiv_pos_as_xyz
  x,y,z
_cell_length_a	19.1692
_cell_length_b	19.1692
_cell_length_c	35.986
_cell_angle_alpha	90
_cell_angle_beta	90
_cell_angle_gamma	120
loop_
_atom_site_label
_atom_site_type_symbol
_atom_site_fract_x
_atom_site_fract_y
_atom_site_fract_z
_atom_site_charge
Mof_H 	H 	0.1029	0.2843	0.8731	0.137
Mof_H 	H 	0.0756	0.3574	0.5804	0.077
Mof_H 	H 	0.8585	0.3255	0.8477	0.036
Mof_H 	H 	0.5542	0.9102	0.4072	0.012
Mof_C 	C 	0.7225	0.5696	0.04097	-0.051
Mof_C 	C 	0.8677	0.4944	0.64069	-0.007
Mof_C 	C 	0.545	0.9029	0.97649	0.379
Mof_C 	C 	0.3922	0.494	0.10487	0.029
Mof_C 	C 	0.2488	0.8723	0.5709	-0.104
Mof_O 	O 	0.45756	0.79856	0.21015	-0.68
Mof_O 	O 	0.96175	0.40575	0.0426	-0.47
Mof_O 	O 	0.88676	0.36947	0.50864	-0.457
Mof_H 	H 	0.7157	0.8186	0.8731	0.137
Mof_H 	H 	0.6426	0.7182	0.5804	0.077
Mof_H 	H 	0.6745	0.533	0.8477	0.036
Mof_H 	H 	0.0898	0.644	0.4072	0.012
Mof_C 	C 	0.4304	0.1529	0.04097	-0.051
Mof_C 	C 	0.5056	0.3733	0.64069	-0.007
Mof_C 	C 	0.0971	0.6421	0.97649	0.379
Mof_C 	C 	0.506	0.8982	0.10487	0.029
Mof_C 	C 	0.1277	0.3765	0.5709	-0.104
Mof_O 	O 	0.20144	0.659	0.21015	-0.68
Mof_O 	O 	0.59425	0.556	0.0426	-0.47
Mof_O 	O 	0.63053	0.51729	0.50864	-0.457
Mof_H 	H 	0.1814	0.8971	0.8731	0.137
Mof_H 	H 	0.2818	0.9244	0.5804	0.077
Mof_H 	H 	0.467	0.1415	0.8477	0.036
Mof_H 	H 	0.356	0.4458	0.4072	0.012
Mof_C 	C 	0.8471	0.2775	0.04097	-0.051
Mof_C 	C 	0.6267	0.1323	0.64069	-0.007
Mof_C 	C 	0.3579	0.455	0.97649	0.379
Mof_C 	C 	0.1018	0.6078	0.10487	0.029
Mof_C 	C 	0.6235	0.7512	0.5709	-0.103
Mof_O 	O 	0.341	0.54244	0.21015	-0.679
Mof_O 	O 	0.444	0.03825	0.0426	-0.469
Mof_O 	O 	0.48271	0.11324	0.50864	-0.456
Mof_H 	H 	0.8971	0.7157	0.3731	0.138
Mof_H 	H 	0.9244	0.6426	0.0804	0.078
Mof_H 	H 	0.1415	0.6745	0.3477	0.037
Mof_H 	H 	0.4458	0.0898	0.9072	0.013
Mof_C 	C 	0.2775	0.4304	0.54097	-0.05
Mof_C 	C 	0.1323	0.5056	0.14069	-0.006
Mof_C 	C 	0.455	0.0971	0.47649	0.38
Mof_C 	C 	0.6078	0.506	0.60487	0.03
Mof_C 	C 	0.7512	0.1277	0.0709	-0.103
Mof_O 	O 	0.54244	0.20144	0.71015	-0.679
Mof_O 	O 	0.03825	0.59425	0.5426	-0.469
Mof_O 	O 	0.11324	0.63053	0.00864	-0.456
Mof_H 	H 	0.2843	0.1814	0.3731	0.138
Mof_H 	H 	0.3574	0.2818	0.0804	0.078
Mof_H 	H 	0.3255	0.467	0.3477	0.037
Mof_H 	H 	0.9102	0.356	0.9072	0.013
Mof_C 	C 	0.5696	0.8471	0.54097	-0.05
Mof_C 	C 	0.4944	0.6267	0.14069	-0.006
Mof_C 	C 	0.9029	0.3579	0.47649	0.38
Mof_C 	C 	0.494	0.1018	0.60487	0.03
Mof_C 	C 	0.8723	0.6235	0.0709	-0.103
Mof_O 	O 	0.79856	0.341	0.71015	-0.679
Mof_O 	O 	0.40575	0.444	0.5426	-0.469
Mof_O 	O 	0.36947	0.48271	0.00864	-0.456
Mof_H 	H 	0.8186	0.1029	0.3731	0.138
Mof_H 	H 	0.7182	0.0756	0.0804	0.078
Mof_H 	H 	0.533	0.8585	0.3477	0.037
Mof_H 	H 	0.644	0.5542	0.9072	0.013
Mof_C 	C 	0.1529	0.7225	0.54097	-0.05
Mof_C 	C 	0.3733	0.8677	0.14069	-0.006
Mof_C 	C 	0.6421	0.545	0.47649	0.38
Mof_C 	C 	0.8982	0.3922	0.60487	0.03
Mof_C 	C 	0.3765	0.2488	0.0709	-0.103
Mof_O 	O 	0.659	0.45756	0.71015	-0.679
Mof_O 	O 	0.556	0.96175	0.5426	-0.469
Mof_O 	O 	0.51729	0.88676	0.00864	-0.456
Mof_H 	H 	0.2843	0.1029	0.1269	0.138
Mof_H 	H 	0.3574	0.0756	0.4196	0.078
Mof_H 	H 	0.3255	0.8585	0.1523	0.037
Mof_H 	H 	0.9102	0.5542	0.5928	0.013
Mof_C 	C 	0.5696	0.7225	0.95903	-0.05
Mof_C 	C 	0.4944	0.8677	0.35931	-0.006
Mof_C 	C 	0.9029	0.545	0.02351	0.38
Mof_C 	C 	0.494	0.3922	0.89513	0.03
Mof_C 	C 	0.8723	0.2488	0.4291	-0.103
Mof_O 	O 	0.79856	0.45756	0.78985	-0.679
Mof_O 	O 	0.40575	0.96175	0.9574	-0.469
Mof_O 	O 	0.36947	0.88676	0.49136	-0.456
Mof_H 	H 	0.8186	0.7157	0.1269	0.138
Mof_H 	H 	0.7182	0.6426	0.4196	0.078
Mof_H 	H 	0.533	0.6745	0.1523	0.037
Mof_H 	H 	0.644	0.0898	0.5928	0.013
Mof_C 	C 	0.1529	0.4304	0.95903	-0.05
Mof_C 	C 	0.3733	0.5056	0.35931	-0.006
Mof_C 	C 	0.6421	0.0971	0.02351	0.38
Mof_C 	C 	0.8982	0.506	0.89513	0.03
Mof_C 	C 	0.3765	0.1277	0.4291	-0.103
Mof_O 	O 	0.659	0.20144	0.78985	-0.679
Mof_O 	O 	0.556	0.59425	0.9574	-0.469
Mof_O 	O 	0.51729	0.63053	0.49136	-0.456
Mof_H 	H 	0.8971	0.1814	0.1269	0.138
Mof_H 	H 	0.9244	0.2818	0.4196	0.078
Mof_H 	H 	0.1415	0.467	0.1523	0.037
Mof_H 	H 	0.4458	0.356	0.5928	0.013
Mof_C 	C 	0.2775	0.8471	0.95903	-0.05
Mof_C 	C 	0.1323	0.6267	0.35931	-0.006
Mof_C 	C 	0.455	0.3579	0.02351	0.38
Mof_C 	C 	0.6078	0.1018	0.89513	0.03
Mof_C 	C 	0.7512	0.6235	0.4291	-0.103
Mof_O 	O 	0.54244	0.341	0.78985	-0.679
Mof_O 	O 	0.03825	0.444	0.9574	-0.469
Mof_O 	O 	0.11324	0.48271	0.49136	-0.456
Mof_H 	H 	0.7157	0.8971	0.6269	0.138
Mof_H 	H 	0.6426	0.9244	0.9196	0.078
Mof_H 	H 	0.6745	0.1415	0.6523	0.037
Mof_H 	H 	0.0898	0.4458	0.0928	0.013
Mof_C 	C 	0.4304	0.2775	0.45903	-0.05
Mof_C 	C 	0.5056	0.1323	0.85931	-0.006
Mof_C 	C 	0.0971	0.455	0.52351	0.38
Mof_C 	C 	0.506	0.6078	0.39513	0.03
Mof_C 	C 	0.1277	0.7512	0.9291	-0.103
Mof_O 	O 	0.20144	0.54244	0.28985	-0.679
Mof_O 	O 	0.59425	0.03825	0.4574	-0.469
Mof_O 	O 	0.63053	0.11324	0.99136	-0.456
Mof_H 	H 	0.1814	0.2843	0.6269	0.138
Mof_H 	H 	0.2818	0.3574	0.9196	0.078
Mof_H 	H 	0.467	0.3255	0.6523	0.037
Mof_H 	H 	0.356	0.9102	0.0928	0.013
Mof_C 	C 	0.8471	0.5696	0.45903	-0.05
Mof_C 	C 	0.6267	0.4944	0.85931	-0.006
Mof_C 	C 	0.3579	0.9029	0.52351	0.38
Mof_C 	C 	0.1018	0.494	0.39513	0.03
Mof_C 	C 	0.6235	0.8723	0.9291	-0.103
Mof_O 	O 	0.341	0.79856	0.28985	-0.679
Mof_O 	O 	0.444	0.40575	0.4574	-0.469
Mof_O 	O 	0.48271	0.36947	0.99136	-0.456
Mof_H 	H 	0.1029	0.8186	0.6269	0.138
Mof_H 	H 	0.0756	0.7182	0.9196	0.078
Mof_H 	H 	0.8585	0.533	0.6523	0.037
Mof_H 	H 	0.5542	0.644	0.0928	0.013
Mof_C 	C 	0.7225	0.1529	0.45903	-0.05
Mof_C 	C 	0.8677	0.3733	0.85931	-0.006
Mof_C 	C 	0.545	0.6421	0.52351	0.38
Mof_C 	C 	0.3922	0.8982	0.39513	0.03
Mof_C 	C 	0.2488	0.3765	0.9291	-0.103
Mof_O 	O 	0.45756	0.659	0.28985	-0.679
Mof_O 	O 	0.96175	0.556	0.4574	-0.469
Mof_O 	O 	0.88676	0.51729	0.99136	-0.456
Mof_H 	H 	0.8971	0.7157	0.1269	0.138
Mof_H 	H 	0.9244	0.6426	0.4196	0.078
Mof_H 	H 	0.1415	0.6745	0.1523	0.037
Mof_H 	H 	0.4458	0.0898	0.5928	0.013
Mof_C 	C 	0.2775	0.4304	0.95903	-0.05
Mof_C 	C 	0.1323	0.5056	0.35931	-0.006
Mof_C 	C 	0.455	0.0971	0.02351	0.38
Mof_C 	C 	0.6078	0.506	0.89513	0.03
Mof_C 	C 	0.7512	0.1277	0.4291	-0.103
Mof_O 	O 	0.54244	0.20144	0.78985	-0.679
Mof_O 	O 	0.03825	0.59425	0.9574	-0.469
Mof_O 	O 	0.11324	0.63053	0.49136	-0.456
Mof_H 	H 	0.2843	0.1814	0.1269	0.138
Mof_H 	H 	0.3574	0.2818	0.4196	0.078
Mof_H 	H 	0.3255	0.467	0.1523	0.037
Mof_H 	H 	0.9102	0.356	0.5928	0.013
Mof_C 	C 	0.5696	0.8471	0.95903	-0.05
Mof_C 	C 	0.4944	0.6267	0.35931	-0.006
Mof_C 	C 	0.9029	0.3579	0.02351	0.38
Mof_C 	C 	0.494	0.1018	0.89513	0.03
Mof_C 	C 	0.8723	0.6235	0.4291	-0.103
Mof_O 	O 	0.79856	0.341	0.78985	-0.679
Mof_O 	O 	0.40575	0.444	0.9574	-0.469
Mof_O 	O 	0.36947	0.48271	0.49136	-0.456
Mof_H 	H 	0.8186	0.1029	0.1269	0.138
Mof_H 	H 	0.7182	0.0756	0.4196	0.078
Mof_H 	H 	0.533	0.8585	0.1523	0.037
Mof_H 	H 	0.644	0.5542	0.5928	0.013
Mof_C 	C 	0.1529	0.7225	0.95903	-0.05
Mof_C 	C 	0.3733	0.8677	0.35931	-0.006
Mof_C 	C 	0.6421	0.545	0.02351	0.38
Mof_C 	C 	0.8982	0.3922	0.89513	0.03
Mof_C 	C 	0.3765	0.2488	0.4291	-0.103
Mof_O 	O 	0.659	0.45756	0.78985	-0.679
Mof_O 	O 	0.556	0.96175	0.9574	-0.469
Mof_O 	O 	0.51729	0.88676	0.49136	-0.456
Mof_H 	H 	0.1029	0.2843	0.6269	0.138
Mof_H 	H 	0.0756	0.3574	0.9196	0.078
Mof_H 	H 	0.8585	0.3255	0.6523	0.037
Mof_H 	H 	0.5542	0.9102	0.0928	0.013
Mof_C 	C 	0.7225	0.5696	0.45903	-0.05
Mof_C 	C 	0.8677	0.4944	0.85931	-0.006
Mof_C 	C 	0.545	0.9029	0.52351	0.38
Mof_C 	C 	0.3922	0.494	0.39513	0.03
Mof_C 	C 	0.2488	0.8723	0.9291	-0.103
Mof_O 	O 	0.45756	0.79856	0.28985	-0.679
Mof_O 	O 	0.96175	0.40575	0.4574	-0.469
Mof_O 	O 	0.88676	0.36947	0.99136	-0.456
Mof_H 	H 	0.7157	0.8186	0.6269	0.138
Mof_H 	H 	0.6426	0.7182	0.9196	0.078
Mof_H 	H 	0.6745	0.533	0.6523	0.037
Mof_H 	H 	0.0898	0.644	0.0928	0.013
Mof_C 	C 	0.4304	0.1529	0.45903	-0.05
Mof_C 	C 	0.5056	0.3733	0.85931	-0.006
Mof_C 	C 	0.0971	0.6421	0.52351	0.38
Mof_C 	C 	0.506	0.8982	0.39513	0.03
Mof_C 	C 	0.1277	0.3765	0.9291	-0.103
Mof_O 	O 	0.20144	0.659	0.28985	-0.679
Mof_O 	O 	0.59425	0.556	0.4574	-0.469
Mof_O 	O 	0.63053	0.51729	0.99136	-0.456
Mof_H 	H 	0.1814	0.8971	0.6269	0.138
Mof_H 	H 	0.2818	0.9244	0.9196	0.078
Mof_H 	H 	0.467	0.1415	0.6523	0.037
Mof_H 	H 	0.356	0.4458	0.0928	0.013
Mof_C 	C 	0.8471	0.2775	0.45903	-0.05
Mof_C 	C 	0.6267	0.1323	0.85931	-0.006
Mof_C 	C 	0.3579	0.455	0.52351	0.38
Mof_C 	C 	0.1018	0.6078	0.39513	0.03
Mof_C 	C 	0.6235	0.7512	0.9291	-0.103
Mof_O 	O 	0.341	0.54244	0.28985	-0.679
Mof_O 	O 	0.444	0.03825	0.4574	-0.469
Mof_O 	O 	0.48271	0.11324	0.99136	-0.456
Mof_H 	H 	0.7157	0.8971	0.8731	0.138
Mof_H 	H 	0.6426	0.9244	0.5804	0.078
Mof_H 	H 	0.6745	0.1415	0.8477	0.037
Mof_H 	H 	0.0898	0.4458	0.4072	0.013
Mof_C 	C 	0.4304	0.2775	0.04097	-0.05
Mof_C 	C 	0.5056	0.1323	0.64069	-0.006
Mof_C 	C 	0.0971	0.455	0.97649	0.38
Mof_C 	C 	0.506	0.6078	0.10487	0.03
Mof_C 	C 	0.1277	0.7512	0.5709	-0.103
Mof_O 	O 	0.20144	0.54244	0.21015	-0.679
Mof_O 	O 	0.59425	0.03825	0.0426	-0.469
Mof_O 	O 	0.63053	0.11324	0.50864	-0.456
Mof_H 	H 	0.1814	0.2843	0.8731	0.138
Mof_H 	H 	0.2818	0.3574	0.5804	0.078
Mof_H 	H 	0.467	0.3255	0.8477	0.037
Mof_H 	H 	0.356	0.9102	0.4072	0.013
Mof_C 	C 	0.8471	0.5696	0.04097	-0.05
Mof_C 	C 	0.6267	0.4944	0.64069	-0.006
Mof_C 	C 	0.3579	0.9029	0.97649	0.38
Mof_C 	C 	0.1018	0.494	0.10487	0.03
Mof_C 	C 	0.6235	0.8723	0.5709	-0.103
Mof_O 	O 	0.341	0.79856	0.21015	-0.679
Mof_O 	O 	0.444	0.40575	0.0426	-0.469
Mof_O 	O 	0.48271	0.36947	0.50864	-0.456
Mof_H 	H 	0.1029	0.8186	0.8731	0.138
Mof_H 	H 	0.0756	0.7182	0.5804	0.078
Mof_H 	H 	0.8585	0.533	0.8477	0.037
Mof_H 	H 	0.5542	0.644	0.4072	0.013
Mof_C 	C 	0.7225	0.1529	0.04097	-0.05
Mof_C 	C 	0.8677	0.3733	0.64069	-0.006
Mof_C 	C 	0.545	0.6421	0.97649	0.38
Mof_C 	C 	0.3922	0.8982	0.10487	0.03
Mof_C 	C 	0.2488	0.3765	0.5709	-0.103
Mof_O 	O 	0.45756	0.659	0.21015	-0.679
Mof_O 	O 	0.96175	0.556	0.0426	-0.469
Mof_O 	O 	0.88676	0.51729	0.50864	-0.456
Mof_H 	H 	0.2843	0.1029	0.3731	0.138
Mof_H 	H 	0.3574	0.0756	0.0804	0.078
Mof_H 	H 	0.3255	0.8585	0.3477	0.037
Mof_H 	H 	0.9102	0.5542	0.9072	0.013
Mof_C 	C 	0.5696	0.7225	0.54097	-0.05
Mof_C 	C 	0.4944	0.8677	0.14069	-0.006
Mof_C 	C 	0.9029	0.545	0.47649	0.38
Mof_C 	C 	0.494	0.3922	0.60487	0.03
Mof_C 	C 	0.8723	0.2488	0.0709	-0.103
Mof_O 	O 	0.79856	0.45756	0.71015	-0.679
Mof_O 	O 	0.40575	0.96175	0.5426	-0.469
Mof_O 	O 	0.36947	0.88676	0.00864	-0.456
Mof_H 	H 	0.8186	0.7157	0.3731	0.138
Mof_H 	H 	0.7182	0.6426	0.0804	0.078
Mof_H 	H 	0.533	0.6745	0.3477	0.037
Mof_H 	H 	0.644	0.0898	0.9072	0.013
Mof_C 	C 	0.1529	0.4304	0.54097	-0.05
Mof_C 	C 	0.3733	0.5056	0.14069	-0.006
Mof_C 	C 	0.6421	0.0971	0.47649	0.38
Mof_C 	C 	0.8982	0.506	0.60487	0.03
Mof_C 	C 	0.3765	0.1277	0.0709	-0.103
Mof_O 	O 	0.659	0.20144	0.71015	-0.679
Mof_O 	O 	0.556	0.59425	0.5426	-0.469
Mof_O 	O 	0.51729	0.63053	0.00864	-0.456
Mof_H 	H 	0.8971	0.1814	0.3731	0.138
Mof_H 	H 	0.9244	0.2818	0.0804	0.078
Mof_H 	H 	0.1415	0.467	0.3477	0.037
Mof_H 	H 	0.4458	0.356	0.9072	0.013
Mof_C 	C 	0.2775	0.8471	0.54097	-0.05
Mof_C 	C 	0.1323	0.6267	0.14069	-0.006
Mof_C 	C 	0.455	0.3579	0.47649	0.38
Mof_C 	C 	0.6078	0.1018	0.60487	0.03
Mof_C 	C 	0.7512	0.6235	0.0709	-0.103
Mof_O 	O 	0.54244	0.341	0.71015	-0.679
Mof_O 	O 	0.03825	0.444	0.5426	-0.469
Mof_O 	O 	0.11324	0.48271	0.00864	-0.456
Mof_Zn	Zn	0.046	0.523	0.46576	1.217
Mof_Zn	Zn	0.477	0.523	0.46576	1.217
Mof_Zn	Zn	0.477	0.954	0.46576	1.217
Mof_Zn	Zn	0.954	0.477	0.96576	1.217
Mof_Zn	Zn	0.523	0.477	0.96576	1.217
Mof_Zn	Zn	0.523	0.046	0.96576	1.217
Mof_Zn	Zn	0.523	0.046	0.53424	1.217
Mof_Zn	Zn	0.523	0.477	0.53424	1.217
Mof_Zn	Zn	0.954	0.477	0.53424	1.217
Mof_Zn	Zn	0.477	0.954	0.03424	1.217
Mof_Zn	Zn	0.477	0.523	0.03424	1.217
Mof_Zn	Zn	0.046	0.523	0.03424	1.217
Mof_Cr	Cr	0.72416	0.44832	0.75	2.11
Mof_Cr	Cr	0.55168	0.27584	0.75	2.11
Mof_Cr	Cr	0.72416	0.27584	0.75	2.11
Mof_Cr	Cr	0.27584	0.55168	0.25	2.11
Mof_Cr	Cr	0.44832	0.72416	0.25	2.11
Mof_Cr	Cr	0.27584	0.72416	0.25	2.11
Mof_H 	H 	0.76275	0.23725	0.0002	0.063
Mof_C 	C 	0.17515	0.82485	0.587	0.141
Mof_N 	N 	0.54444	0.45556	0.91296	-0.235
Mof_H 	H 	0.76275	0.5255	0.0002	0.063
Mof_C 	C 	0.17515	0.3503	0.587	0.141
Mof_N 	N 	0.54444	0.08888	0.91296	-0.235
Mof_H 	H 	0.4745	0.23725	0.0002	0.063
Mof_C 	C 	0.6497	0.82485	0.587	0.141
Mof_N 	N 	0.91112	0.45556	0.91296	-0.235
Mof_H 	H 	0.23725	0.76275	0.5002	0.063
Mof_C 	C 	0.82485	0.17515	0.087	0.141
Mof_N 	N 	0.45556	0.54444	0.41296	-0.235
Mof_H 	H 	0.23725	0.4745	0.5002	0.063
Mof_C 	C 	0.82485	0.6497	0.087	0.141
Mof_N 	N 	0.45556	0.91112	0.41296	-0.235
Mof_H 	H 	0.5255	0.76275	0.5002	0.063
Mof_C 	C 	0.3503	0.17515	0.087	0.141
Mof_N 	N 	0.08888	0.54444	0.41296	-0.235
Mof_H 	H 	0.23725	0.76275	0.9998	0.063
Mof_C 	C 	0.82485	0.17515	0.413	0.141
Mof_N 	N 	0.45556	0.54444	0.08704	-0.235
Mof_H 	H 	0.5255	0.76275	0.9998	0.063
Mof_C 	C 	0.3503	0.17515	0.413	0.141
Mof_N 	N 	0.08888	0.54444	0.08704	-0.235
Mof_H 	H 	0.23725	0.4745	0.9998	0.063
Mof_C 	C 	0.82485	0.6497	0.413	0.141
Mof_N 	N 	0.45556	0.91112	0.08704	-0.235
Mof_H 	H 	0.76275	0.23725	0.4998	0.063
Mof_C 	C 	0.17515	0.82485	0.913	0.141
Mof_N 	N 	0.54444	0.45556	0.58704	-0.235
Mof_H 	H 	0.4745	0.23725	0.4998	0.063
Mof_C 	C 	0.6497	0.82485	0.913	0.141
Mof_N 	N 	0.91112	0.45556	0.58704	-0.235
Mof_H 	H 	0.76275	0.5255	0.4998	0.063
Mof_C 	C 	0.17515	0.3503	0.913	0.141
Mof_N 	N 	0.54444	0.08888	0.58704	-0.235
Mof_C 	C 	0.85184	0.42592	0.84171	-0.14
Mof_C 	C 	0.4492	0.2246	0.47645	-0.006
Mof_N 	N 	0.3003	0.15015	0.1173	-0.304
Mof_C 	C 	0.57408	0.42592	0.84171	-0.14
Mof_C 	C 	0.7754	0.2246	0.47645	-0.006
Mof_N 	N 	0.84985	0.15015	0.1173	-0.304
Mof_C 	C 	0.57408	0.14816	0.84171	-0.14
Mof_C 	C 	0.7754	0.5508	0.47645	-0.006
Mof_N 	N 	0.84985	0.6997	0.1173	-0.304
Mof_C 	C 	0.14816	0.57408	0.34171	-0.14
Mof_C 	C 	0.5508	0.7754	0.97645	-0.006
Mof_N 	N 	0.6997	0.84985	0.6173	-0.304
Mof_C 	C 	0.42592	0.57408	0.34171	-0.14
Mof_C 	C 	0.2246	0.7754	0.97645	-0.006
Mof_N 	N 	0.15015	0.84985	0.6173	-0.304
Mof_C 	C 	0.42592	0.85184	0.34171	-0.14
Mof_C 	C 	0.2246	0.4492	0.97645	-0.006
Mof_N 	N 	0.15015	0.3003	0.6173	-0.304
Mof_C 	C 	0.42592	0.85184	0.15829	-0.14
Mof_C 	C 	0.2246	0.4492	0.52355	-0.006
Mof_N 	N 	0.15015	0.3003	0.8827	-0.304
Mof_C 	C 	0.42592	0.57408	0.15829	-0.14
Mof_C 	C 	0.2246	0.7754	0.52355	-0.006
Mof_N 	N 	0.15015	0.84985	0.8827	-0.304
Mof_C 	C 	0.14816	0.57408	0.15829	-0.14
Mof_C 	C 	0.5508	0.7754	0.52355	-0.006
Mof_N 	N 	0.6997	0.84985	0.8827	-0.304
Mof_C 	C 	0.57408	0.14816	0.65829	-0.14
Mof_C 	C 	0.7754	0.5508	0.02355	-0.006
Mof_N 	N 	0.84985	0.6997	0.3827	-0.304
Mof_C 	C 	0.57408	0.42592	0.65829	-0.14
Mof_C 	C 	0.7754	0.2246	0.02355	-0.006
Mof_N 	N 	0.84985	0.15015	0.3827	-0.304
Mof_C 	C 	0.85184	0.42592	0.65829	-0.14
Mof_C 	C 	0.4492	0.2246	0.02355	-0.006
Mof_N 	N 	0.3003	0.15015	0.3827	-0.304
Mof_C 	C 	0.40668	0.81336	0.19635	0.578
Mof_C 	C 	0.18664	0.59332	0.19635	0.578
Mof_C 	C 	0.40668	0.59332	0.19635	0.578
Mof_C 	C 	0.59332	0.18664	0.69635	0.578
Mof_C 	C 	0.81336	0.40668	0.69635	0.578
Mof_C 	C 	0.59332	0.40668	0.69635	0.578
Mof_C 	C 	0.81336	0.40668	0.80365	0.578
Mof_C 	C 	0.59332	0.18664	0.80365	0.578
Mof_C 	C 	0.59332	0.40668	0.80365	0.578
Mof_C 	C 	0.18664	0.59332	0.30365	0.578
Mof_C 	C 	0.40668	0.81336	0.30365	0.578
Mof_C 	C 	0.40668	0.59332	0.30365	0.578
Mof_O 	O 	0.66667	0.33333	0.75	-1.154
Mof_O 	O 	0.33333	0.66667	0.25	-1.154
_end
