data_functionalizedCrystal
_audit_creation_method	'EQeq! by Chris Wilmer'
_symmetry_space_group_name_H-M	'P1'
_symmetry_Int_Tables_number	1
_symmetry_cell_setting	triclinic
loop_
_symmetry_equiv_pos_as_xyz
  x,y,z
_cell_length_a	10.3287
_cell_length_b	11.7366
_cell_length_c	20.3354
_cell_angle_alpha	90
_cell_angle_beta	90
_cell_angle_gamma	90
loop_
_atom_site_label
_atom_site_type_symbol
_atom_site_fract_x
_atom_site_fract_y
_atom_site_fract_z
_atom_site_charge
Mof_Zn	Zn	0.96092	0.42088	0.50681	1.212
Mof_Zn	Zn	0.64691	0.32501	0.51018	1.237
Mof_O 	O 	0.8448	0.2708	0.50718	-0.552
Mof_O 	O 	0.9627	0.1231	0.47352	-0.437
Mof_O 	O 	0.6247	0.1607	0.49312	-0.575
Mof_C 	C 	0.8581	0.1712	0.48392	0.315
Mof_C 	C 	0.7346	0.1072	0.4652	0.127
Mof_H 	H 	0.7404	0.0277	0.4826	-0.028
Mof_C 	C 	0.7249	0.1019	0.39	-0.519
Mof_H 	H 	0.6464	0.0603	0.3775	0.162
Mof_H 	H 	0.801	0.0625	0.3723	0.178
Mof_H 	H 	0.7212	0.1794	0.3722	0.168
Mof_O 	O 	0.8765	0.4578	0.42154	-0.511
Mof_O 	O 	0.6649	0.4154	0.42778	-0.481
Mof_C 	C 	0.7653	0.4472	0.39811	0.397
Mof_C 	C 	0.7499	0.4761	0.3263	-0.095
Mof_C 	C 	0.8568	0.5109	0.29	-0.019
Mof_H 	H 	0.9388	0.5183	0.3107	0.037
Mof_C 	C 	0.8437	0.5352	0.2232	-0.012
Mof_H 	H 	0.9174	0.5571	0.1983	0.039
Mof_C 	C 	0.725	0.5276	0.1931	-0.101
Mof_C 	C 	0.6173	0.4925	0.229	-0.011
Mof_H 	H 	0.535	0.4868	0.2083	0.033
Mof_C 	C 	0.6308	0.4657	0.2954	-0.02
Mof_H 	H 	0.5578	0.4401	0.3196	0.042
Mof_C 	C 	0.7119	0.5555	0.1211	0.408
Mof_O 	O 	0.6053	0.5357	0.09471	-0.512
Mof_O 	O 	0.811	0.5962	0.09416	-0.484
Mof_Zn	Zn	0.53908	0.57912	0.00681	1.211
Mof_Zn	Zn	0.85309	0.67499	0.01018	1.235
Mof_O 	O 	0.6552	0.7292	0.00718	-0.554
Mof_O 	O 	0.5373	0.8769	0.97352	-0.438
Mof_O 	O 	0.8753	0.8393	0.99312	-0.574
Mof_C 	C 	0.6419	0.8288	0.98392	0.316
Mof_C 	C 	0.7654	0.8928	0.9652	0.126
Mof_H 	H 	0.7596	0.9723	0.9826	-0.027
Mof_C 	C 	0.7751	0.8981	0.89	-0.519
Mof_H 	H 	0.8536	0.9397	0.8775	0.163
Mof_H 	H 	0.699	0.9375	0.8723	0.178
Mof_H 	H 	0.7788	0.8206	0.8722	0.169
Mof_O 	O 	0.6235	0.5422	0.92154	-0.51
Mof_O 	O 	0.8351	0.5846	0.92778	-0.48
Mof_C 	C 	0.7347	0.5528	0.89811	0.397
Mof_C 	C 	0.7501	0.5239	0.8263	-0.095
Mof_C 	C 	0.6432	0.4891	0.79	-0.019
Mof_H 	H 	0.5612	0.4817	0.8107	0.038
Mof_C 	C 	0.6563	0.4648	0.7232	-0.012
Mof_H 	H 	0.5826	0.4429	0.6983	0.04
Mof_C 	C 	0.775	0.4724	0.6931	-0.1
Mof_C 	C 	0.8827	0.5075	0.729	-0.011
Mof_H 	H 	0.965	0.5132	0.7083	0.033
Mof_C 	C 	0.8692	0.5343	0.7954	-0.02
Mof_H 	H 	0.9422	0.5599	0.8196	0.042
Mof_C 	C 	0.7881	0.4445	0.6211	0.408
Mof_O 	O 	0.8947	0.4643	0.59471	-0.511
Mof_O 	O 	0.689	0.4038	0.59416	-0.482
Mof_Zn	Zn	0.03908	0.92088	0.99319	1.21
Mof_Zn	Zn	0.35309	0.82501	0.98982	1.236
Mof_O 	O 	0.1552	0.7708	0.99282	-0.555
Mof_O 	O 	0.0373	0.6231	0.02648	-0.436
Mof_O 	O 	0.3753	0.6607	0.00688	-0.575
Mof_C 	C 	0.1419	0.6712	0.01608	0.317
Mof_C 	C 	0.2654	0.6072	0.0348	0.126
Mof_H 	H 	0.2596	0.5277	0.0174	-0.027
Mof_C 	C 	0.2751	0.6019	0.11	-0.519
Mof_H 	H 	0.3536	0.5603	0.1225	0.162
Mof_H 	H 	0.199	0.5625	0.1277	0.179
Mof_H 	H 	0.2788	0.6794	0.1278	0.169
Mof_O 	O 	0.1235	0.9578	0.07846	-0.508
Mof_O 	O 	0.3351	0.9154	0.07222	-0.48
Mof_C 	C 	0.2347	0.9472	0.10189	0.396
Mof_C 	C 	0.2501	0.9761	0.1737	-0.092
Mof_C 	C 	0.1432	0.0109	0.21	-0.022
Mof_H 	H 	0.0612	0.0183	0.1893	0.039
Mof_C 	C 	0.1563	0.0352	0.2768	-0.01
Mof_H 	H 	0.0826	0.0571	0.3017	0.04
Mof_C 	C 	0.275	0.0276	0.3069	-0.103
Mof_C 	C 	0.3827	0.9925	0.271	-0.008
Mof_H 	H 	0.465	0.9868	0.2917	0.032
Mof_C 	C 	0.3692	0.9657	0.2046	-0.022
Mof_H 	H 	0.4422	0.9401	0.1804	0.042
Mof_C 	C 	0.2881	0.0555	0.3789	0.408
Mof_O 	O 	0.3947	0.0357	0.40529	-0.512
Mof_O 	O 	0.189	0.0962	0.40584	-0.482
Mof_Zn	Zn	0.46092	0.07912	0.49319	1.211
Mof_Zn	Zn	0.14691	0.17499	0.48982	1.237
Mof_O 	O 	0.3448	0.2292	0.49282	-0.553
Mof_O 	O 	0.4627	0.3769	0.52648	-0.437
Mof_O 	O 	0.1247	0.3393	0.50688	-0.576
Mof_C 	C 	0.3581	0.3288	0.51608	0.314
Mof_C 	C 	0.2346	0.3928	0.5348	0.126
Mof_H 	H 	0.2404	0.4723	0.5174	-0.028
Mof_C 	C 	0.2249	0.3981	0.61	-0.519
Mof_H 	H 	0.1464	0.4397	0.6225	0.162
Mof_H 	H 	0.301	0.4375	0.6277	0.178
Mof_H 	H 	0.2212	0.3206	0.6278	0.169
Mof_O 	O 	0.3765	0.0422	0.57846	-0.511
Mof_O 	O 	0.1649	0.0846	0.57222	-0.481
Mof_C 	C 	0.2653	0.0528	0.60189	0.397
Mof_C 	C 	0.2499	0.0239	0.6737	-0.094
Mof_C 	C 	0.3568	0.9891	0.71	-0.021
Mof_H 	H 	0.4388	0.9817	0.6893	0.038
Mof_C 	C 	0.3437	0.9648	0.7768	-0.01
Mof_H 	H 	0.4174	0.9429	0.8017	0.039
Mof_C 	C 	0.225	0.9724	0.8069	-0.103
Mof_C 	C 	0.1173	0.0075	0.771	-0.009
Mof_H 	H 	0.035	0.0132	0.7917	0.032
Mof_C 	C 	0.1308	0.0343	0.7046	-0.022
Mof_H 	H 	0.0578	0.0599	0.6804	0.042
Mof_C 	C 	0.2119	0.9445	0.8789	0.408
Mof_O 	O 	0.1053	0.9643	0.90529	-0.513
Mof_O 	O 	0.311	0.9038	0.90584	-0.483
_end
