data_functionalizedCrystal
_audit_creation_method	'EQeq! by Chris Wilmer'
_symmetry_space_group_name_H-M	'P1'
_symmetry_Int_Tables_number	1
_symmetry_cell_setting	triclinic
loop_
_symmetry_equiv_pos_as_xyz
  x,y,z
_cell_length_a	8.7157
_cell_length_b	11.2406
_cell_length_c	17.7265
_cell_angle_alpha	84.5311
_cell_angle_beta	75.7689
_cell_angle_gamma	67.1893
loop_
_atom_site_label
_atom_site_type_symbol
_atom_site_fract_x
_atom_site_fract_y
_atom_site_fract_z
_atom_site_charge
Mof_Sc	Sc	0.61445	0.75	0.2711	1.954
Mof_Sc	Sc	0.13555	0.75	0.2289	1.954
Mof_Sc	Sc	0.38555	0.25	0.7289	1.954
Mof_Sc	Sc	0.86445	0.25	0.7711	1.955
Mof_C 	C 	0.45181	0.31714	0.24976	0.022
Mof_C 	C 	0.8969	0.63924	0.36756	0.556
Mof_C 	C 	0.95264	0.5629	0.43602	-0.166
Mof_C 	C 	0.83106	0.53056	0.49152	0.013
Mof_C 	C 	0.11466	0.5392	0.44408	0.022
Mof_C 	C 	0.79843	0.18286	0.24976	0.022
Mof_C 	C 	0.23554	0.86076	0.36756	0.556
Mof_C 	C 	0.11134	0.9371	0.43602	-0.167
Mof_C 	C 	0.17742	0.96944	0.49152	0.013
Mof_C 	C 	0.94126	0.9608	0.44408	0.024
Mof_C 	C 	0.73105	0.31714	0.25024	0.022
Mof_C 	C 	0.96386	0.63924	0.13244	0.556
Mof_C 	C 	0.98446	0.5629	0.06398	-0.166
Mof_C 	C 	0.13838	0.53056	0.00848	0.014
Mof_C 	C 	0.84614	0.5392	0.05592	0.023
Mof_C 	C 	0.51871	0.18286	0.25024	0.022
Mof_C 	C 	0.4037	0.86076	0.13244	0.555
Mof_C 	C 	0.45156	0.9371	0.06398	-0.166
Mof_C 	C 	0.35314	0.96944	0.00848	0.013
Mof_C 	C 	0.59794	0.9608	0.05592	0.023
Mof_C 	C 	0.54819	0.68286	0.75024	0.022
Mof_C 	C 	0.1031	0.36076	0.63244	0.556
Mof_C 	C 	0.04736	0.4371	0.56398	-0.166
Mof_C 	C 	0.16894	0.46944	0.50848	0.015
Mof_C 	C 	0.88534	0.4608	0.55592	0.023
Mof_C 	C 	0.20157	0.81714	0.75024	0.021
Mof_C 	C 	0.76446	0.13924	0.63244	0.556
Mof_C 	C 	0.88866	0.0629	0.56398	-0.167
Mof_C 	C 	0.82258	0.03056	0.50848	0.013
Mof_C 	C 	0.05874	0.0392	0.55592	0.024
Mof_C 	C 	0.26895	0.68286	0.74976	0.022
Mof_C 	C 	0.03614	0.36076	0.86756	0.556
Mof_C 	C 	0.01554	0.4371	0.93602	-0.166
Mof_C 	C 	0.86162	0.46944	0.99152	0.014
Mof_C 	C 	0.15386	0.4608	0.94408	0.023
Mof_C 	C 	0.48129	0.81714	0.74976	0.022
Mof_C 	C 	0.5963	0.13924	0.86756	0.556
Mof_C 	C 	0.54844	0.0629	0.93602	-0.166
Mof_C 	C 	0.64686	0.03056	0.99152	0.014
Mof_C 	C 	0.40206	0.0392	0.94408	0.024
Mof_C 	C 	0.4895	0.521	0.25	0.554
Mof_C 	C 	0.55964	0.38072	0.25	-0.175
Mof_C 	C 	0.7605	0.979	0.25	0.554
Mof_C 	C 	0.69036	0.11928	0.25	-0.175
Mof_C 	C 	0.5105	0.479	0.75	0.554
Mof_C 	C 	0.44036	0.61928	0.75	-0.175
Mof_C 	C 	0.2395	0.021	0.75	0.554
Mof_C 	C 	0.30964	0.88072	0.75	-0.175
Mof_O 	O 	0.5651	0.58256	0.27084	-0.563
Mof_O 	O 	0.74986	0.66928	0.35852	-0.556
Mof_O 	O 	0.00309	0.66862	0.31544	-0.586
Mof_O 	O 	0.66406	0.91744	0.27084	-0.563
Mof_O 	O 	0.39162	0.83072	0.35852	-0.556
Mof_O 	O 	0.18147	0.83138	0.31544	-0.586
Mof_O 	O 	0.35234	0.58256	0.22916	-0.563
Mof_O 	O 	0.08086	0.66928	0.14148	-0.556
Mof_O 	O 	0.82829	0.66862	0.18456	-0.586
Mof_O 	O 	0.9185	0.91744	0.22916	-0.563
Mof_O 	O 	0.27766	0.83072	0.14148	-0.556
Mof_O 	O 	0.48715	0.83138	0.18456	-0.586
Mof_O 	O 	0.4349	0.41744	0.72916	-0.563
Mof_O 	O 	0.25014	0.33072	0.64148	-0.555
Mof_O 	O 	0.99691	0.33138	0.68456	-0.586
Mof_O 	O 	0.33594	0.08256	0.72916	-0.563
Mof_O 	O 	0.60838	0.16928	0.64148	-0.556
Mof_O 	O 	0.81853	0.16862	0.68456	-0.586
Mof_O 	O 	0.64766	0.41744	0.77084	-0.563
Mof_O 	O 	0.91914	0.33072	0.85852	-0.556
Mof_O 	O 	0.17171	0.33138	0.81544	-0.586
Mof_O 	O 	0.0815	0.08256	0.77084	-0.563
Mof_O 	O 	0.72234	0.16928	0.85852	-0.555
Mof_O 	O 	0.51285	0.16862	0.81544	-0.586
Mof_H 	H 	0.31132	0.37215	0.24918	0.029
Mof_H 	H 	0.69559	0.56102	0.48293	0.037
Mof_H 	H 	0.20303	0.57635	0.3985	0.024
Mof_H 	H 	0.93949	0.12785	0.24918	0.029
Mof_H 	H 	0.32149	0.93898	0.48293	0.037
Mof_H 	H 	0.89847	0.92365	0.3985	0.024
Mof_H 	H 	0.81653	0.37215	0.25082	0.029
Mof_H 	H 	0.24339	0.56102	0.01707	0.037
Mof_H 	H 	0.72062	0.57635	0.1015	0.024
Mof_H 	H 	0.43265	0.12785	0.25082	0.029
Mof_H 	H 	0.23954	0.93898	0.01707	0.037
Mof_H 	H 	0.67788	0.92365	0.1015	0.024
Mof_H 	H 	0.68868	0.62785	0.75082	0.029
Mof_H 	H 	0.30643	0.44202	0.5135	0.036
Mof_H 	H 	0.79697	0.42365	0.6015	0.024
Mof_H 	H 	0.06051	0.87215	0.75082	0.029
Mof_H 	H 	0.67851	0.06102	0.51707	0.037
Mof_H 	H 	0.10347	0.07573	0.60102	0.024
Mof_H 	H 	0.18347	0.62785	0.74918	0.029
Mof_H 	H 	0.75661	0.43898	0.98293	0.037
Mof_H 	H 	0.28021	0.42427	0.89898	0.024
Mof_H 	H 	0.56735	0.87215	0.74918	0.029
Mof_H 	H 	0.76194	0.05798	0.9865	0.036
Mof_H 	H 	0.32081	0.07573	0.89898	0.024
_end
