data_functionalizedCrystal
_audit_creation_method	'EQeq! by Chris Wilmer'
_symmetry_space_group_name_H-M	'P1'
_symmetry_Int_Tables_number	1
_symmetry_cell_setting	triclinic
loop_
_symmetry_equiv_pos_as_xyz
  x,y,z
_cell_length_a	26.522
_cell_length_b	26.522
_cell_length_c	4.9344
_cell_angle_alpha	90
_cell_angle_beta	90
_cell_angle_gamma	90
loop_
_atom_site_label
_atom_site_type_symbol
_atom_site_fract_x
_atom_site_fract_y
_atom_site_fract_z
_atom_site_charge
Mof_Zn	Zn	0.27369	0.21377	0.8956	1.225
Mof_O 	O 	0.2182	0.2502	0.06	-0.779
Mof_H 	H 	0.1971	0.2614	0.9455	0.29
Mof_N 	N 	0.2521	0.144	0.88	-0.289
Mof_C 	C 	0.2679	0.1066	0.03	0.105
Mof_H 	H 	0.294	0.1098	0.1541	-0.018
Mof_N 	N 	0.2429	0.0626	0.987	-0.16
Mof_C 	C 	0.213	0.1225	0.729	0.049
Mof_O 	O 	0.2743	0.8364	0.399	-0.539
Mof_C 	C 	0.1823	0.1446	0.536	-0.143
Mof_H 	H 	0.1862	0.1784	0.4908	0.045
Mof_O 	O 	0.3114	0.8631	0.708	-0.259
Mof_C 	C 	0.1459	0.1155	0.41	0.053
Mof_C 	C 	0.1153	0.1376	0.217	-0.104
Mof_H 	H 	0.12	0.1715	0.1767	0.064
Mof_C 	C 	0.0779	0.1113	0.082	-0.005
Mof_H 	H 	0.0577	0.127	0.9533	0.024
Mof_C 	C 	0.0717	0.0609	0.146	-0.039
Mof_H 	H 	0.0471	0.0419	0.0585	0.038
Mof_C 	C 	0.1022	0.0388	0.339	-0.08
Mof_H 	H 	0.0974	0.005	0.3804	0.057
Mof_C 	C 	0.1396	0.0651	0.474	0.038
Mof_C 	C 	0.1701	0.0427	0.667	-0.125
Mof_H 	H 	0.1663	0.0088	0.7113	0.074
Mof_C 	C 	0.2065	0.072	0.791	0.07
Mof_C 	C 	0.2571	0.0141	0.102	0.161
Mof_C 	C 	0.2849	0.9258	0.334	-0.18
Mof_C 	C 	0.2799	0.0139	0.354	-0.407
Mof_H 	H 	0.2857	0.0443	0.4425	0.178
Mof_C 	C 	0.2943	0.9695	0.475	0.316
Mof_H 	H 	0.3098	0.969	0.6444	-0.064
Mof_C 	C 	0.2625	0.924	0.084	0.263
Mof_H 	H 	0.2569	0.8935	0.9958	-0.039
Mof_C 	C 	0.2486	0.9692	0.971	-0.338
Mof_H 	H 	0.2332	0.9695	0.8014	0.148
Mof_C 	C 	0.2918	0.8755	0.474	0.479
Mof_O 	O 	0.3392	0.8782	0.55	-0.192
Mof_C 	C 	0.3071	0.0054	0.157	0.185
Mof_H 	H 	0.3308	0.03	0.1135	-0.029
Mof_C 	C 	0.3229	0.9605	0.276	-0.219
Mof_H 	H 	0.3566	0.9541	0.3142	0.123
Mof_C 	C 	0.2333	0.9306	0.287	-0.217
Mof_H 	H 	0.2095	0.9061	0.3298	0.102
Mof_C 	C 	0.222	0.9769	0.168	0.149
Mof_H 	H 	0.1883	0.9836	0.1298	-0.024
Mof_Zn	Zn	0.77369	0.71377	0.3956	1.229
Mof_O 	O 	0.7182	0.7502	0.56	-0.803
Mof_H 	H 	0.6971	0.7614	0.4455	0.31
Mof_N 	N 	0.7521	0.644	0.38	-0.282
Mof_C 	C 	0.7679	0.6066	0.53	0.11
Mof_H 	H 	0.794	0.6098	0.6541	-0.02
Mof_N 	N 	0.7429	0.5626	0.487	-0.166
Mof_C 	C 	0.713	0.6225	0.229	0.031
Mof_O 	O 	0.7743	0.3364	0.899	-0.532
Mof_C 	C 	0.6823	0.6446	0.036	-0.078
Mof_H 	H 	0.6862	0.6784	0.9908	0.018
Mof_O 	O 	0.8114	0.3631	0.208	-0.267
Mof_C 	C 	0.6459	0.6155	0.91	0.002
Mof_C 	C 	0.6153	0.6376	0.717	-0.055
Mof_H 	H 	0.62	0.6715	0.6767	0.046
Mof_C 	C 	0.5779	0.6113	0.582	-0.054
Mof_H 	H 	0.5577	0.627	0.4533	0.042
Mof_C 	C 	0.5717	0.5609	0.646	-0.002
Mof_H 	H 	0.5471	0.5419	0.5585	0.025
Mof_C 	C 	0.6022	0.5388	0.839	-0.113
Mof_H 	H 	0.5974	0.505	0.8804	0.067
Mof_C 	C 	0.6396	0.5651	0.974	0.064
Mof_C 	C 	0.6701	0.5427	0.167	-0.141
Mof_H 	H 	0.6663	0.5088	0.2113	0.079
Mof_C 	C 	0.7065	0.572	0.291	0.087
Mof_C 	C 	0.7571	0.5141	0.602	0.173
Mof_C 	C 	0.7849	0.4258	0.834	-0.172
Mof_C 	C 	0.7799	0.5139	0.854	0.036
Mof_H 	H 	0.7857	0.5443	0.9425	0.019
Mof_C 	C 	0.7943	0.4695	0.975	-0.109
Mof_H 	H 	0.8098	0.469	0.1444	0.087
Mof_C 	C 	0.7625	0.424	0.584	0.038
Mof_H 	H 	0.7569	0.3935	0.4958	0.027
Mof_C 	C 	0.7486	0.4692	0.471	-0.082
Mof_H 	H 	0.7332	0.4695	0.3014	0.061
Mof_C 	C 	0.7918	0.3755	0.974	0.474
Mof_O 	O 	0.8392	0.3782	0.05	-0.186
Mof_C 	C 	0.8071	0.5054	0.657	-0.251
Mof_H 	H 	0.8308	0.53	0.6135	0.124
Mof_C 	C 	0.8229	0.4605	0.776	0.189
Mof_H 	H 	0.8566	0.4541	0.8142	-0.022
Mof_C 	C 	0.7333	0.4306	0.787	0.043
Mof_H 	H 	0.7095	0.4061	0.8298	0.013
Mof_C 	C 	0.722	0.4769	0.668	-0.13
Mof_H 	H 	0.6883	0.4836	0.6298	0.072
Mof_Zn	Zn	0.72631	0.78623	0.8956	1.226
Mof_O 	O 	0.7818	0.7498	0.06	-0.778
Mof_H 	H 	0.8029	0.7386	0.9455	0.291
Mof_N 	N 	0.7479	0.856	0.88	-0.288
Mof_C 	C 	0.7321	0.8934	0.03	0.106
Mof_H 	H 	0.706	0.8902	0.1541	-0.017
Mof_N 	N 	0.7571	0.9374	0.987	-0.159
Mof_C 	C 	0.787	0.8775	0.729	0.05
Mof_O 	O 	0.7257	0.1636	0.399	-0.538
Mof_C 	C 	0.8177	0.8554	0.536	-0.142
Mof_H 	H 	0.8138	0.8216	0.4908	0.046
Mof_O 	O 	0.6886	0.1369	0.708	-0.258
Mof_C 	C 	0.8541	0.8845	0.41	0.054
Mof_C 	C 	0.8847	0.8624	0.217	-0.103
Mof_H 	H 	0.88	0.8285	0.1767	0.065
Mof_C 	C 	0.9221	0.8887	0.082	-0.004
Mof_H 	H 	0.9423	0.873	0.9533	0.024
Mof_C 	C 	0.9283	0.9391	0.146	-0.039
Mof_H 	H 	0.9529	0.9581	0.0585	0.038
Mof_C 	C 	0.8978	0.9612	0.339	-0.08
Mof_H 	H 	0.9026	0.995	0.3804	0.057
Mof_C 	C 	0.8604	0.9349	0.474	0.038
Mof_C 	C 	0.8299	0.9573	0.667	-0.125
Mof_H 	H 	0.8337	0.9912	0.7113	0.074
Mof_C 	C 	0.7935	0.928	0.791	0.07
Mof_C 	C 	0.7429	0.9859	0.102	0.161
Mof_C 	C 	0.7151	0.0742	0.334	-0.18
Mof_C 	C 	0.7201	0.9861	0.354	-0.407
Mof_H 	H 	0.7143	0.9557	0.4425	0.178
Mof_C 	C 	0.7057	0.0305	0.475	0.316
Mof_H 	H 	0.6902	0.031	0.6444	-0.064
Mof_C 	C 	0.7375	0.076	0.084	0.263
Mof_H 	H 	0.7431	0.1065	0.9958	-0.039
Mof_C 	C 	0.7514	0.0308	0.971	-0.338
Mof_H 	H 	0.7668	0.0305	0.8014	0.148
Mof_C 	C 	0.7082	0.1245	0.474	0.479
Mof_O 	O 	0.6608	0.1218	0.55	-0.192
Mof_C 	C 	0.6929	0.9946	0.157	0.185
Mof_H 	H 	0.6692	0.97	0.1135	-0.029
Mof_C 	C 	0.6771	0.0395	0.276	-0.219
Mof_H 	H 	0.6434	0.0459	0.3142	0.123
Mof_C 	C 	0.7667	0.0694	0.287	-0.217
Mof_H 	H 	0.7905	0.0939	0.3298	0.102
Mof_C 	C 	0.778	0.0231	0.168	0.149
Mof_H 	H 	0.8117	0.0164	0.1298	-0.024
Mof_Zn	Zn	0.22631	0.28623	0.3956	1.229
Mof_O 	O 	0.2818	0.2498	0.56	-0.803
Mof_H 	H 	0.3029	0.2386	0.4455	0.31
Mof_N 	N 	0.2479	0.356	0.38	-0.282
Mof_C 	C 	0.2321	0.3934	0.53	0.11
Mof_H 	H 	0.206	0.3902	0.6541	-0.02
Mof_N 	N 	0.2571	0.4374	0.487	-0.166
Mof_C 	C 	0.287	0.3775	0.229	0.031
Mof_O 	O 	0.2257	0.6636	0.899	-0.532
Mof_C 	C 	0.3177	0.3554	0.036	-0.078
Mof_H 	H 	0.3138	0.3216	0.9908	0.018
Mof_O 	O 	0.1886	0.6369	0.208	-0.267
Mof_C 	C 	0.3541	0.3845	0.91	0.002
Mof_C 	C 	0.3847	0.3624	0.717	-0.055
Mof_H 	H 	0.38	0.3285	0.6767	0.046
Mof_C 	C 	0.4221	0.3887	0.582	-0.054
Mof_H 	H 	0.4423	0.373	0.4533	0.042
Mof_C 	C 	0.4283	0.4391	0.646	-0.002
Mof_H 	H 	0.4529	0.4581	0.5585	0.025
Mof_C 	C 	0.3978	0.4612	0.839	-0.113
Mof_H 	H 	0.4026	0.495	0.8804	0.067
Mof_C 	C 	0.3604	0.4349	0.974	0.064
Mof_C 	C 	0.3299	0.4573	0.167	-0.141
Mof_H 	H 	0.3337	0.4912	0.2113	0.079
Mof_C 	C 	0.2935	0.428	0.291	0.087
Mof_C 	C 	0.2429	0.4859	0.602	0.173
Mof_C 	C 	0.2151	0.5742	0.834	-0.172
Mof_C 	C 	0.2201	0.4861	0.854	0.036
Mof_H 	H 	0.2143	0.4557	0.9425	0.019
Mof_C 	C 	0.2057	0.5305	0.975	-0.109
Mof_H 	H 	0.1902	0.531	0.1444	0.087
Mof_C 	C 	0.2375	0.576	0.584	0.038
Mof_H 	H 	0.2431	0.6065	0.4958	0.027
Mof_C 	C 	0.2514	0.5308	0.471	-0.082
Mof_H 	H 	0.2668	0.5305	0.3014	0.061
Mof_C 	C 	0.2082	0.6245	0.974	0.474
Mof_O 	O 	0.1608	0.6218	0.05	-0.186
Mof_C 	C 	0.1929	0.4946	0.657	-0.251
Mof_H 	H 	0.1692	0.47	0.6135	0.124
Mof_C 	C 	0.1771	0.5395	0.776	0.189
Mof_H 	H 	0.1434	0.5459	0.8142	-0.022
Mof_C 	C 	0.2667	0.5694	0.787	0.043
Mof_H 	H 	0.2905	0.5939	0.8298	0.013
Mof_C 	C 	0.278	0.5231	0.668	-0.13
Mof_H 	H 	0.3117	0.5164	0.6298	0.072
Mof_Zn	Zn	0.21377	0.72631	0.1044	1.226
Mof_O 	O 	0.2502	0.7818	0.94	-0.778
Mof_H 	H 	0.2614	0.8029	0.0545	0.291
Mof_N 	N 	0.144	0.7479	0.12	-0.288
Mof_C 	C 	0.1066	0.7321	0.97	0.106
Mof_H 	H 	0.1098	0.706	0.8459	-0.017
Mof_N 	N 	0.0626	0.7571	0.013	-0.159
Mof_C 	C 	0.1225	0.787	0.271	0.05
Mof_O 	O 	0.8364	0.7257	0.601	-0.538
Mof_C 	C 	0.1446	0.8177	0.464	-0.142
Mof_H 	H 	0.1784	0.8138	0.5092	0.046
Mof_O 	O 	0.8631	0.6886	0.292	-0.258
Mof_C 	C 	0.1155	0.8541	0.59	0.054
Mof_C 	C 	0.1376	0.8847	0.783	-0.103
Mof_H 	H 	0.1715	0.88	0.8233	0.065
Mof_C 	C 	0.1113	0.9221	0.918	-0.004
Mof_H 	H 	0.127	0.9423	0.0467	0.024
Mof_C 	C 	0.0609	0.9283	0.854	-0.039
Mof_H 	H 	0.0419	0.9529	0.9415	0.038
Mof_C 	C 	0.0388	0.8978	0.661	-0.08
Mof_H 	H 	0.005	0.9026	0.6196	0.057
Mof_C 	C 	0.0651	0.8604	0.526	0.038
Mof_C 	C 	0.0427	0.8299	0.333	-0.125
Mof_H 	H 	0.0088	0.8337	0.2887	0.074
Mof_C 	C 	0.072	0.7935	0.209	0.07
Mof_C 	C 	0.0141	0.7429	0.898	0.161
Mof_C 	C 	0.9258	0.7151	0.666	-0.18
Mof_C 	C 	0.0139	0.7201	0.646	-0.407
Mof_H 	H 	0.0443	0.7143	0.5575	0.178
Mof_C 	C 	0.9695	0.7057	0.525	0.316
Mof_H 	H 	0.969	0.6902	0.3556	-0.064
Mof_C 	C 	0.924	0.7375	0.916	0.263
Mof_H 	H 	0.8935	0.7431	0.0042	-0.039
Mof_C 	C 	0.9692	0.7514	0.029	-0.338
Mof_H 	H 	0.9695	0.7668	0.1986	0.148
Mof_C 	C 	0.8755	0.7082	0.526	0.479
Mof_O 	O 	0.8782	0.6608	0.45	-0.192
Mof_C 	C 	0.0054	0.6929	0.843	0.185
Mof_H 	H 	0.03	0.6692	0.8865	-0.029
Mof_C 	C 	0.9605	0.6771	0.724	-0.219
Mof_H 	H 	0.9541	0.6434	0.6858	0.123
Mof_C 	C 	0.9306	0.7667	0.713	-0.217
Mof_H 	H 	0.9061	0.7905	0.6702	0.102
Mof_C 	C 	0.9769	0.778	0.832	0.149
Mof_H 	H 	0.9836	0.8117	0.8702	-0.024
Mof_Zn	Zn	0.71377	0.22631	0.6044	1.229
Mof_O 	O 	0.7502	0.2818	0.44	-0.803
Mof_H 	H 	0.7614	0.3029	0.5545	0.31
Mof_N 	N 	0.644	0.2479	0.62	-0.282
Mof_C 	C 	0.6066	0.2321	0.47	0.11
Mof_H 	H 	0.6098	0.206	0.3459	-0.02
Mof_N 	N 	0.5626	0.2571	0.513	-0.166
Mof_C 	C 	0.6225	0.287	0.771	0.031
Mof_O 	O 	0.3364	0.2257	0.101	-0.532
Mof_C 	C 	0.6446	0.3177	0.964	-0.078
Mof_H 	H 	0.6784	0.3138	0.0092	0.018
Mof_O 	O 	0.3631	0.1886	0.792	-0.267
Mof_C 	C 	0.6155	0.3541	0.09	0.002
Mof_C 	C 	0.6376	0.3847	0.283	-0.055
Mof_H 	H 	0.6715	0.38	0.3233	0.046
Mof_C 	C 	0.6113	0.4221	0.418	-0.054
Mof_H 	H 	0.627	0.4423	0.5467	0.042
Mof_C 	C 	0.5609	0.4283	0.354	-0.002
Mof_H 	H 	0.5419	0.4529	0.4415	0.025
Mof_C 	C 	0.5388	0.3978	0.161	-0.113
Mof_H 	H 	0.505	0.4026	0.1196	0.067
Mof_C 	C 	0.5651	0.3604	0.026	0.064
Mof_C 	C 	0.5427	0.3299	0.833	-0.141
Mof_H 	H 	0.5088	0.3337	0.7887	0.079
Mof_C 	C 	0.572	0.2935	0.709	0.087
Mof_C 	C 	0.5141	0.2429	0.398	0.173
Mof_C 	C 	0.4258	0.2151	0.166	-0.172
Mof_C 	C 	0.5139	0.2201	0.146	0.036
Mof_H 	H 	0.5443	0.2143	0.0575	0.019
Mof_C 	C 	0.4695	0.2057	0.025	-0.109
Mof_H 	H 	0.469	0.1902	0.8556	0.087
Mof_C 	C 	0.424	0.2375	0.416	0.038
Mof_H 	H 	0.3935	0.2431	0.5042	0.027
Mof_C 	C 	0.4692	0.2514	0.529	-0.082
Mof_H 	H 	0.4695	0.2668	0.6986	0.061
Mof_C 	C 	0.3755	0.2082	0.026	0.474
Mof_O 	O 	0.3782	0.1608	0.95	-0.186
Mof_C 	C 	0.5054	0.1929	0.343	-0.251
Mof_H 	H 	0.53	0.1692	0.3865	0.124
Mof_C 	C 	0.4605	0.1771	0.224	0.189
Mof_H 	H 	0.4541	0.1434	0.1858	-0.022
Mof_C 	C 	0.4306	0.2667	0.213	0.043
Mof_H 	H 	0.4061	0.2905	0.1702	0.013
Mof_C 	C 	0.4769	0.278	0.332	-0.13
Mof_H 	H 	0.4836	0.3117	0.3702	0.072
Mof_Zn	Zn	0.78623	0.27369	0.1044	1.226
Mof_O 	O 	0.7498	0.2182	0.94	-0.778
Mof_H 	H 	0.7386	0.1971	0.0545	0.291
Mof_N 	N 	0.856	0.2521	0.12	-0.288
Mof_C 	C 	0.8934	0.2679	0.97	0.106
Mof_H 	H 	0.8902	0.294	0.8459	-0.017
Mof_N 	N 	0.9374	0.2429	0.013	-0.159
Mof_C 	C 	0.8775	0.213	0.271	0.05
Mof_O 	O 	0.1636	0.2743	0.601	-0.538
Mof_C 	C 	0.8554	0.1823	0.464	-0.142
Mof_H 	H 	0.8216	0.1862	0.5092	0.046
Mof_O 	O 	0.1369	0.3114	0.292	-0.258
Mof_C 	C 	0.8845	0.1459	0.59	0.054
Mof_C 	C 	0.8624	0.1153	0.783	-0.103
Mof_H 	H 	0.8285	0.12	0.8233	0.065
Mof_C 	C 	0.8887	0.0779	0.918	-0.004
Mof_H 	H 	0.873	0.0577	0.0467	0.024
Mof_C 	C 	0.9391	0.0717	0.854	-0.039
Mof_H 	H 	0.9581	0.0471	0.9415	0.038
Mof_C 	C 	0.9612	0.1022	0.661	-0.08
Mof_H 	H 	0.995	0.0974	0.6196	0.057
Mof_C 	C 	0.9349	0.1396	0.526	0.038
Mof_C 	C 	0.9573	0.1701	0.333	-0.125
Mof_H 	H 	0.9912	0.1663	0.2887	0.074
Mof_C 	C 	0.928	0.2065	0.209	0.07
Mof_C 	C 	0.9859	0.2571	0.898	0.161
Mof_C 	C 	0.0742	0.2849	0.666	-0.18
Mof_C 	C 	0.9861	0.2799	0.646	-0.407
Mof_H 	H 	0.9557	0.2857	0.5575	0.178
Mof_C 	C 	0.0305	0.2943	0.525	0.316
Mof_H 	H 	0.031	0.3098	0.3556	-0.064
Mof_C 	C 	0.076	0.2625	0.916	0.263
Mof_H 	H 	0.1065	0.2569	0.0042	-0.039
Mof_C 	C 	0.0308	0.2486	0.029	-0.338
Mof_H 	H 	0.0305	0.2332	0.1986	0.148
Mof_C 	C 	0.1245	0.2918	0.526	0.479
Mof_O 	O 	0.1218	0.3392	0.45	-0.192
Mof_C 	C 	0.9946	0.3071	0.843	0.185
Mof_H 	H 	0.97	0.3308	0.8865	-0.029
Mof_C 	C 	0.0395	0.3229	0.724	-0.219
Mof_H 	H 	0.0459	0.3566	0.6858	0.123
Mof_C 	C 	0.0694	0.2333	0.713	-0.217
Mof_H 	H 	0.0939	0.2095	0.6702	0.102
Mof_C 	C 	0.0231	0.222	0.832	0.149
Mof_H 	H 	0.0164	0.1883	0.8702	-0.024
Mof_Zn	Zn	0.28623	0.77369	0.6044	1.229
Mof_O 	O 	0.2498	0.7182	0.44	-0.803
Mof_H 	H 	0.2386	0.6971	0.5545	0.31
Mof_N 	N 	0.356	0.7521	0.62	-0.282
Mof_C 	C 	0.3934	0.7679	0.47	0.11
Mof_H 	H 	0.3902	0.794	0.3459	-0.02
Mof_N 	N 	0.4374	0.7429	0.513	-0.166
Mof_C 	C 	0.3775	0.713	0.771	0.031
Mof_O 	O 	0.6636	0.7743	0.101	-0.532
Mof_C 	C 	0.3554	0.6823	0.964	-0.078
Mof_H 	H 	0.3216	0.6862	0.0092	0.018
Mof_O 	O 	0.6369	0.8114	0.792	-0.267
Mof_C 	C 	0.3845	0.6459	0.09	0.002
Mof_C 	C 	0.3624	0.6153	0.283	-0.055
Mof_H 	H 	0.3285	0.62	0.3233	0.046
Mof_C 	C 	0.3887	0.5779	0.418	-0.054
Mof_H 	H 	0.373	0.5577	0.5467	0.042
Mof_C 	C 	0.4391	0.5717	0.354	-0.002
Mof_H 	H 	0.4581	0.5471	0.4415	0.025
Mof_C 	C 	0.4612	0.6022	0.161	-0.113
Mof_H 	H 	0.495	0.5974	0.1196	0.067
Mof_C 	C 	0.4349	0.6396	0.026	0.064
Mof_C 	C 	0.4573	0.6701	0.833	-0.141
Mof_H 	H 	0.4912	0.6663	0.7887	0.079
Mof_C 	C 	0.428	0.7065	0.709	0.087
Mof_C 	C 	0.4859	0.7571	0.398	0.173
Mof_C 	C 	0.5742	0.7849	0.166	-0.172
Mof_C 	C 	0.4861	0.7799	0.146	0.036
Mof_H 	H 	0.4557	0.7857	0.0575	0.019
Mof_C 	C 	0.5305	0.7943	0.025	-0.109
Mof_H 	H 	0.531	0.8098	0.8556	0.087
Mof_C 	C 	0.576	0.7625	0.416	0.038
Mof_H 	H 	0.6065	0.7569	0.5042	0.027
Mof_C 	C 	0.5308	0.7486	0.529	-0.082
Mof_H 	H 	0.5305	0.7332	0.6986	0.061
Mof_C 	C 	0.6245	0.7918	0.026	0.474
Mof_O 	O 	0.6218	0.8392	0.95	-0.186
Mof_C 	C 	0.4946	0.8071	0.343	-0.251
Mof_H 	H 	0.47	0.8308	0.3865	0.124
Mof_C 	C 	0.5395	0.8229	0.224	0.189
Mof_H 	H 	0.5459	0.8566	0.1858	-0.022
Mof_C 	C 	0.5694	0.7333	0.213	0.043
Mof_H 	H 	0.5939	0.7095	0.1702	0.013
Mof_C 	C 	0.5231	0.722	0.332	-0.13
Mof_H 	H 	0.5164	0.6883	0.3702	0.072
_end
