data_functionalizedCrystal
_audit_creation_method	'EQeq! by Chris Wilmer'
_symmetry_space_group_name_H-M	'P1'
_symmetry_Int_Tables_number	1
_symmetry_cell_setting	triclinic
loop_
_symmetry_equiv_pos_as_xyz
  x,y,z
_cell_length_a	18.99
_cell_length_b	34.418
_cell_length_c	38.393
_cell_angle_alpha	90
_cell_angle_beta	90
_cell_angle_gamma	90
loop_
_atom_site_label
_atom_site_type_symbol
_atom_site_fract_x
_atom_site_fract_y
_atom_site_fract_z
_atom_site_charge
Mof_H 	H 	0.295	0.2772	0.8713	0.158
Mof_C 	C 	0.3545	0.16071	0.83473	0.374
Mof_C 	C 	0.2594	0.0782	0.83661	0.386
Mof_C 	C 	0.3777	0.11908	0.83006	-0.166
Mof_C 	C 	0.3359	0.08385	0.83073	-0.178
Mof_C 	C 	0.382	0.05381	0.82458	0.312
Mof_C 	C 	0.4459	0.10936	0.82335	0.324
Mof_C 	C 	0.512	0.1328	0.81898	-0.882
Mof_H 	H 	0.5017	0.1598	0.8226	0.316
Mof_H 	H 	0.5302	0.1292	0.7959	0.293
Mof_H 	H 	0.5464	0.1245	0.8357	0.304
Mof_C 	C 	0.3714	0.0108	0.8234	-0.828
Mof_H 	H 	0.4152	0.9983	0.818	0.277
Mof_H 	H 	0.3372	0.0045	0.8059	0.282
Mof_H 	H 	0.3549	0.0019	0.8457	0.271
Mof_C 	C 	0.5085	0.04821	0.80688	0.109
Mof_C 	C 	0.5102	0.03591	0.77279	-0.107
Mof_H 	H 	0.4709	0.0392	0.7587	0.073
Mof_C 	C 	0.5704	0.0187	0.75945	-0.048
Mof_C 	C 	0.6307	0.01429	0.78003	-0.028
Mof_H 	H 	0.6719	0.0042	0.7706	0.066
Mof_C 	C 	0.6278	0.0254	0.81516	-0.046
Mof_C 	C 	0.5675	0.04269	0.82844	-0.114
Mof_H 	H 	0.5661	0.0506	0.8516	0.098
Mof_C 	C 	0.6916	0.01925	0.83818	0.339
Mof_C 	C 	0.5737	0.00681	0.72166	0.35
Mof_Cu	Cu	0.40952	0.24751	0.84067	0.927
Mof_Cu	Cu	0.2394	0.22641	0.83817	0.913
Mof_N 	N 	0.448	0.0692	0.81952	-0.231
Mof_O 	O 	0.3139	0.25644	0.86008	-0.643
Mof_O 	O 	0.401	0.18622	0.835	-0.4
Mof_O 	O 	0.2882	0.16779	0.83662	-0.388
Mof_O 	O 	0.2191	0.10771	0.84132	-0.44
Mof_O 	O 	0.2336	0.04533	0.83725	-0.286
Mof_O 	O 	0.6851	0.03046	0.86884	-0.419
Mof_O 	O 	0.7438	0.00299	0.82434	-0.406
Mof_O 	O 	0.6322	0.00924	0.70733	-0.399
Mof_O 	O 	0.5161	0.99563	0.70846	-0.415
Mof_H 	H 	0.247	0.1272	0.8458	0.269
Mof_H 	H 	0.295	0.7772	0.3713	0.157
Mof_C 	C 	0.3545	0.66071	0.33473	0.373
Mof_C 	C 	0.2594	0.5782	0.33661	0.385
Mof_C 	C 	0.3777	0.61908	0.33006	-0.167
Mof_C 	C 	0.3359	0.58385	0.33073	-0.179
Mof_C 	C 	0.382	0.55381	0.32458	0.311
Mof_C 	C 	0.4459	0.60936	0.32335	0.323
Mof_C 	C 	0.512	0.6328	0.31898	-0.883
Mof_H 	H 	0.5017	0.6598	0.3226	0.315
Mof_H 	H 	0.5302	0.6292	0.2959	0.292
Mof_H 	H 	0.5464	0.6245	0.3357	0.303
Mof_C 	C 	0.3714	0.5108	0.3234	-0.829
Mof_H 	H 	0.4152	0.4983	0.318	0.276
Mof_H 	H 	0.3372	0.5045	0.3059	0.281
Mof_H 	H 	0.3549	0.5019	0.3457	0.27
Mof_C 	C 	0.5085	0.54821	0.30688	0.108
Mof_C 	C 	0.5102	0.53591	0.27279	-0.108
Mof_H 	H 	0.4709	0.5392	0.2587	0.072
Mof_C 	C 	0.5704	0.5187	0.25945	-0.048
Mof_C 	C 	0.6307	0.51429	0.28003	-0.028
Mof_H 	H 	0.6719	0.5042	0.2706	0.066
Mof_C 	C 	0.6278	0.5254	0.31516	-0.046
Mof_C 	C 	0.5675	0.54269	0.32844	-0.114
Mof_H 	H 	0.5661	0.5506	0.3516	0.098
Mof_C 	C 	0.6916	0.51925	0.33818	0.339
Mof_C 	C 	0.5737	0.50681	0.22166	0.35
Mof_Cu	Cu	0.40952	0.74751	0.34067	0.927
Mof_Cu	Cu	0.2394	0.72641	0.33817	0.913
Mof_N 	N 	0.448	0.5692	0.31952	-0.231
Mof_O 	O 	0.3139	0.75644	0.36008	-0.643
Mof_O 	O 	0.401	0.68622	0.335	-0.4
Mof_O 	O 	0.2882	0.66779	0.33662	-0.388
Mof_O 	O 	0.2191	0.60771	0.34132	-0.44
Mof_O 	O 	0.2336	0.54533	0.33725	-0.286
Mof_O 	O 	0.6851	0.53046	0.36884	-0.419
Mof_O 	O 	0.7438	0.50299	0.32434	-0.406
Mof_O 	O 	0.6322	0.50924	0.20733	-0.399
Mof_O 	O 	0.5161	0.49563	0.20846	-0.415
Mof_H 	H 	0.247	0.6272	0.3458	0.269
Mof_H 	H 	0.795	0.2772	0.3713	0.157
Mof_C 	C 	0.8545	0.16071	0.33473	0.373
Mof_C 	C 	0.7594	0.0782	0.33661	0.385
Mof_C 	C 	0.8777	0.11908	0.33006	-0.167
Mof_C 	C 	0.8359	0.08385	0.33073	-0.179
Mof_C 	C 	0.882	0.05381	0.32458	0.312
Mof_C 	C 	0.9459	0.10936	0.32335	0.323
Mof_C 	C 	0.012	0.1328	0.31898	-0.882
Mof_H 	H 	0.0017	0.1598	0.3226	0.315
Mof_H 	H 	0.0302	0.1292	0.2959	0.292
Mof_H 	H 	0.0464	0.1245	0.3357	0.303
Mof_C 	C 	0.8714	0.0108	0.3234	-0.83
Mof_H 	H 	0.9152	0.9983	0.318	0.276
Mof_H 	H 	0.8372	0.0045	0.3059	0.281
Mof_H 	H 	0.8549	0.0019	0.3457	0.27
Mof_C 	C 	0.0085	0.04821	0.30688	0.108
Mof_C 	C 	0.0102	0.03591	0.27279	-0.107
Mof_H 	H 	0.9709	0.0392	0.2587	0.072
Mof_C 	C 	0.0704	0.0187	0.25945	-0.048
Mof_C 	C 	0.1307	0.01429	0.28003	-0.028
Mof_H 	H 	0.1719	0.0042	0.2706	0.066
Mof_C 	C 	0.1278	0.0254	0.31516	-0.046
Mof_C 	C 	0.0675	0.04269	0.32844	-0.114
Mof_H 	H 	0.0661	0.0506	0.3516	0.098
Mof_C 	C 	0.1916	0.01925	0.33818	0.339
Mof_C 	C 	0.0737	0.00681	0.22166	0.35
Mof_Cu	Cu	0.90952	0.24751	0.34067	0.927
Mof_Cu	Cu	0.7394	0.22641	0.33817	0.913
Mof_N 	N 	0.948	0.0692	0.31952	-0.231
Mof_O 	O 	0.8139	0.25644	0.36008	-0.643
Mof_O 	O 	0.901	0.18622	0.335	-0.4
Mof_O 	O 	0.7882	0.16779	0.33662	-0.388
Mof_O 	O 	0.7191	0.10771	0.34132	-0.44
Mof_O 	O 	0.7336	0.04533	0.33725	-0.286
Mof_O 	O 	0.1851	0.03046	0.36884	-0.419
Mof_O 	O 	0.2438	0.00299	0.32434	-0.406
Mof_O 	O 	0.1322	0.00924	0.20733	-0.399
Mof_O 	O 	0.0161	0.99563	0.20846	-0.415
Mof_H 	H 	0.747	0.1272	0.3458	0.269
Mof_H 	H 	0.795	0.7772	0.8713	0.157
Mof_C 	C 	0.8545	0.66071	0.83473	0.373
Mof_C 	C 	0.7594	0.5782	0.83661	0.385
Mof_C 	C 	0.8777	0.61908	0.83006	-0.167
Mof_C 	C 	0.8359	0.58385	0.83073	-0.179
Mof_C 	C 	0.882	0.55381	0.82458	0.311
Mof_C 	C 	0.9459	0.60936	0.82335	0.323
Mof_C 	C 	0.012	0.6328	0.81898	-0.883
Mof_H 	H 	0.0017	0.6598	0.8226	0.315
Mof_H 	H 	0.0302	0.6292	0.7959	0.292
Mof_H 	H 	0.0464	0.6245	0.8357	0.303
Mof_C 	C 	0.8714	0.5108	0.8234	-0.829
Mof_H 	H 	0.9152	0.4983	0.818	0.276
Mof_H 	H 	0.8372	0.5045	0.8059	0.281
Mof_H 	H 	0.8549	0.5019	0.8457	0.27
Mof_C 	C 	0.0085	0.54821	0.80688	0.108
Mof_C 	C 	0.0102	0.53591	0.77279	-0.108
Mof_H 	H 	0.9709	0.5392	0.7587	0.072
Mof_C 	C 	0.0704	0.5187	0.75945	-0.048
Mof_C 	C 	0.1307	0.51429	0.78003	-0.028
Mof_H 	H 	0.1719	0.5042	0.7706	0.066
Mof_C 	C 	0.1278	0.5254	0.81516	-0.046
Mof_C 	C 	0.0675	0.54269	0.82844	-0.114
Mof_H 	H 	0.0661	0.5506	0.8516	0.098
Mof_C 	C 	0.1916	0.51925	0.83818	0.339
Mof_C 	C 	0.0737	0.50681	0.72166	0.35
Mof_Cu	Cu	0.90952	0.74751	0.84067	0.927
Mof_Cu	Cu	0.7394	0.72641	0.83817	0.913
Mof_N 	N 	0.948	0.5692	0.81952	-0.231
Mof_O 	O 	0.8139	0.75644	0.86008	-0.643
Mof_O 	O 	0.901	0.68622	0.835	-0.4
Mof_O 	O 	0.7882	0.66779	0.83662	-0.388
Mof_O 	O 	0.7191	0.60771	0.84132	-0.44
Mof_O 	O 	0.7336	0.54533	0.83725	-0.286
Mof_O 	O 	0.1851	0.53046	0.86884	-0.419
Mof_O 	O 	0.2438	0.50299	0.82434	-0.406
Mof_O 	O 	0.1322	0.50924	0.70733	-0.399
Mof_O 	O 	0.0161	0.49563	0.70846	-0.415
Mof_H 	H 	0.747	0.6272	0.8458	0.269
Mof_H 	H 	0.455	0.4728	0.8713	0.157
Mof_C 	C 	0.3955	0.58929	0.83473	0.373
Mof_C 	C 	0.4906	0.6718	0.83661	0.385
Mof_C 	C 	0.3723	0.63092	0.83006	-0.167
Mof_C 	C 	0.4141	0.66615	0.83073	-0.179
Mof_C 	C 	0.368	0.69619	0.82458	0.311
Mof_C 	C 	0.3041	0.64064	0.82335	0.323
Mof_C 	C 	0.238	0.6172	0.81898	-0.883
Mof_H 	H 	0.2483	0.5902	0.8226	0.315
Mof_H 	H 	0.2198	0.6208	0.7959	0.292
Mof_H 	H 	0.2036	0.6255	0.8357	0.303
Mof_C 	C 	0.3786	0.7392	0.8234	-0.829
Mof_H 	H 	0.3348	0.7517	0.818	0.276
Mof_H 	H 	0.4128	0.7455	0.8059	0.281
Mof_H 	H 	0.3951	0.7481	0.8457	0.27
Mof_C 	C 	0.2415	0.70179	0.80688	0.108
Mof_C 	C 	0.2398	0.71409	0.77279	-0.108
Mof_H 	H 	0.2791	0.7108	0.7587	0.072
Mof_C 	C 	0.1796	0.7313	0.75945	-0.048
Mof_C 	C 	0.1193	0.73571	0.78003	-0.028
Mof_H 	H 	0.0781	0.7458	0.7706	0.066
Mof_C 	C 	0.1222	0.7246	0.81516	-0.046
Mof_C 	C 	0.1825	0.70731	0.82844	-0.114
Mof_H 	H 	0.1839	0.6994	0.8516	0.098
Mof_C 	C 	0.0584	0.73075	0.83818	0.339
Mof_C 	C 	0.1763	0.74319	0.72166	0.35
Mof_Cu	Cu	0.34048	0.50249	0.84067	0.927
Mof_Cu	Cu	0.5106	0.52359	0.83817	0.913
Mof_N 	N 	0.302	0.6808	0.81952	-0.231
Mof_O 	O 	0.4361	0.49356	0.86008	-0.643
Mof_O 	O 	0.349	0.56378	0.835	-0.4
Mof_O 	O 	0.4618	0.58221	0.83662	-0.388
Mof_O 	O 	0.5309	0.64229	0.84132	-0.44
Mof_O 	O 	0.5164	0.70467	0.83725	-0.286
Mof_O 	O 	0.0649	0.71954	0.86884	-0.419
Mof_O 	O 	0.0062	0.74701	0.82434	-0.406
Mof_O 	O 	0.1178	0.74076	0.70733	-0.399
Mof_O 	O 	0.2339	0.75437	0.70846	-0.415
Mof_H 	H 	0.503	0.6228	0.8458	0.269
Mof_H 	H 	0.455	0.9728	0.3713	0.157
Mof_C 	C 	0.3955	0.08929	0.33473	0.373
Mof_C 	C 	0.4906	0.1718	0.33661	0.385
Mof_C 	C 	0.3723	0.13092	0.33006	-0.167
Mof_C 	C 	0.4141	0.16615	0.33073	-0.179
Mof_C 	C 	0.368	0.19619	0.32458	0.311
Mof_C 	C 	0.3041	0.14064	0.32335	0.323
Mof_C 	C 	0.238	0.1172	0.31898	-0.883
Mof_H 	H 	0.2483	0.0902	0.3226	0.315
Mof_H 	H 	0.2198	0.1208	0.2959	0.292
Mof_H 	H 	0.2036	0.1255	0.3357	0.303
Mof_C 	C 	0.3786	0.2392	0.3234	-0.829
Mof_H 	H 	0.3348	0.2517	0.318	0.276
Mof_H 	H 	0.4128	0.2455	0.3059	0.281
Mof_H 	H 	0.3951	0.2481	0.3457	0.27
Mof_C 	C 	0.2415	0.20179	0.30688	0.108
Mof_C 	C 	0.2398	0.21409	0.27279	-0.108
Mof_H 	H 	0.2791	0.2108	0.2587	0.072
Mof_C 	C 	0.1796	0.2313	0.25945	-0.048
Mof_C 	C 	0.1193	0.23571	0.28003	-0.028
Mof_H 	H 	0.0781	0.2458	0.2706	0.066
Mof_C 	C 	0.1222	0.2246	0.31516	-0.046
Mof_C 	C 	0.1825	0.20731	0.32844	-0.114
Mof_H 	H 	0.1839	0.1994	0.3516	0.098
Mof_C 	C 	0.0584	0.23075	0.33818	0.339
Mof_C 	C 	0.1763	0.24319	0.22166	0.35
Mof_Cu	Cu	0.34048	0.00249	0.34067	0.927
Mof_Cu	Cu	0.5106	0.02359	0.33817	0.913
Mof_N 	N 	0.302	0.1808	0.31952	-0.231
Mof_O 	O 	0.4361	0.99356	0.36008	-0.643
Mof_O 	O 	0.349	0.06378	0.335	-0.4
Mof_O 	O 	0.4618	0.08221	0.33662	-0.388
Mof_O 	O 	0.5309	0.14229	0.34132	-0.44
Mof_O 	O 	0.5164	0.20467	0.33725	-0.286
Mof_O 	O 	0.0649	0.21954	0.36884	-0.419
Mof_O 	O 	0.0062	0.24701	0.32434	-0.406
Mof_O 	O 	0.1178	0.24076	0.20733	-0.399
Mof_O 	O 	0.2339	0.25437	0.20846	-0.415
Mof_H 	H 	0.503	0.1228	0.3458	0.269
Mof_H 	H 	0.955	0.4728	0.3713	0.157
Mof_C 	C 	0.8955	0.58929	0.33473	0.373
Mof_C 	C 	0.9906	0.6718	0.33661	0.385
Mof_C 	C 	0.8723	0.63092	0.33006	-0.167
Mof_C 	C 	0.9141	0.66615	0.33073	-0.179
Mof_C 	C 	0.868	0.69619	0.32458	0.312
Mof_C 	C 	0.8041	0.64064	0.32335	0.323
Mof_C 	C 	0.738	0.6172	0.31898	-0.883
Mof_H 	H 	0.7483	0.5902	0.3226	0.315
Mof_H 	H 	0.7198	0.6208	0.2959	0.292
Mof_H 	H 	0.7036	0.6255	0.3357	0.303
Mof_C 	C 	0.8786	0.7392	0.3234	-0.829
Mof_H 	H 	0.8348	0.7517	0.318	0.276
Mof_H 	H 	0.9128	0.7455	0.3059	0.281
Mof_H 	H 	0.8951	0.7481	0.3457	0.27
Mof_C 	C 	0.7415	0.70179	0.30688	0.108
Mof_C 	C 	0.7398	0.71409	0.27279	-0.108
Mof_H 	H 	0.7791	0.7108	0.2587	0.072
Mof_C 	C 	0.6796	0.7313	0.25945	-0.048
Mof_C 	C 	0.6193	0.73571	0.28003	-0.028
Mof_H 	H 	0.5781	0.7458	0.2706	0.066
Mof_C 	C 	0.6222	0.7246	0.31516	-0.046
Mof_C 	C 	0.6825	0.70731	0.32844	-0.114
Mof_H 	H 	0.6839	0.6994	0.3516	0.098
Mof_C 	C 	0.5584	0.73075	0.33818	0.339
Mof_C 	C 	0.6763	0.74319	0.22166	0.35
Mof_Cu	Cu	0.84048	0.50249	0.34067	0.927
Mof_Cu	Cu	0.0106	0.52359	0.33817	0.913
Mof_N 	N 	0.802	0.6808	0.31952	-0.231
Mof_O 	O 	0.9361	0.49356	0.36008	-0.643
Mof_O 	O 	0.849	0.56378	0.335	-0.4
Mof_O 	O 	0.9618	0.58221	0.33662	-0.388
Mof_O 	O 	0.0309	0.64229	0.34132	-0.44
Mof_O 	O 	0.0164	0.70467	0.33725	-0.286
Mof_O 	O 	0.5649	0.71954	0.36884	-0.419
Mof_O 	O 	0.5062	0.74701	0.32434	-0.406
Mof_O 	O 	0.6178	0.74076	0.20733	-0.399
Mof_O 	O 	0.7339	0.75437	0.20846	-0.415
Mof_H 	H 	0.003	0.6228	0.3458	0.269
Mof_H 	H 	0.955	0.9728	0.8713	0.157
Mof_C 	C 	0.8955	0.08929	0.83473	0.373
Mof_C 	C 	0.9906	0.1718	0.83661	0.385
Mof_C 	C 	0.8723	0.13092	0.83006	-0.167
Mof_C 	C 	0.9141	0.16615	0.83073	-0.179
Mof_C 	C 	0.868	0.19619	0.82458	0.311
Mof_C 	C 	0.8041	0.14064	0.82335	0.323
Mof_C 	C 	0.738	0.1172	0.81898	-0.883
Mof_H 	H 	0.7483	0.0902	0.8226	0.315
Mof_H 	H 	0.7198	0.1208	0.7959	0.292
Mof_H 	H 	0.7036	0.1255	0.8357	0.303
Mof_C 	C 	0.8786	0.2392	0.8234	-0.829
Mof_H 	H 	0.8348	0.2517	0.818	0.276
Mof_H 	H 	0.9128	0.2455	0.8059	0.281
Mof_H 	H 	0.8951	0.2481	0.8457	0.27
Mof_C 	C 	0.7415	0.20179	0.80688	0.108
Mof_C 	C 	0.7398	0.21409	0.77279	-0.108
Mof_H 	H 	0.7791	0.2108	0.7587	0.072
Mof_C 	C 	0.6796	0.2313	0.75945	-0.048
Mof_C 	C 	0.6193	0.23571	0.78003	-0.028
Mof_H 	H 	0.5781	0.2458	0.7706	0.066
Mof_C 	C 	0.6222	0.2246	0.81516	-0.046
Mof_C 	C 	0.6825	0.20731	0.82844	-0.114
Mof_H 	H 	0.6839	0.1994	0.8516	0.098
Mof_C 	C 	0.5584	0.23075	0.83818	0.339
Mof_C 	C 	0.6763	0.24319	0.72166	0.35
Mof_Cu	Cu	0.84048	0.00249	0.84067	0.927
Mof_Cu	Cu	0.0106	0.02359	0.83817	0.913
Mof_N 	N 	0.802	0.1808	0.81952	-0.231
Mof_O 	O 	0.9361	0.99356	0.86008	-0.643
Mof_O 	O 	0.849	0.06378	0.835	-0.4
Mof_O 	O 	0.9618	0.08221	0.83662	-0.388
Mof_O 	O 	0.0309	0.14229	0.84132	-0.439
Mof_O 	O 	0.0164	0.20467	0.83725	-0.286
Mof_O 	O 	0.5649	0.21954	0.86884	-0.419
Mof_O 	O 	0.5062	0.24701	0.82434	-0.406
Mof_O 	O 	0.6178	0.24076	0.70733	-0.399
Mof_O 	O 	0.7339	0.25437	0.70846	-0.415
Mof_H 	H 	0.003	0.1228	0.8458	0.27
Mof_H 	H 	0.455	0.2772	0.8787	0.157
Mof_C 	C 	0.3955	0.16071	0.91527	0.373
Mof_C 	C 	0.4906	0.0782	0.91339	0.385
Mof_C 	C 	0.3723	0.11908	0.91994	-0.167
Mof_C 	C 	0.4141	0.08385	0.91927	-0.179
Mof_C 	C 	0.368	0.05381	0.92542	0.311
Mof_C 	C 	0.3041	0.10936	0.92665	0.323
Mof_C 	C 	0.238	0.1328	0.93102	-0.883
Mof_H 	H 	0.2483	0.1598	0.9274	0.315
Mof_H 	H 	0.2198	0.1292	0.9541	0.292
Mof_H 	H 	0.2036	0.1245	0.9143	0.303
Mof_C 	C 	0.3786	0.0108	0.9266	-0.829
Mof_H 	H 	0.3348	0.9983	0.932	0.276
Mof_H 	H 	0.4128	0.0045	0.9441	0.281
Mof_H 	H 	0.3951	0.0019	0.9043	0.27
Mof_C 	C 	0.2415	0.04821	0.94312	0.108
Mof_C 	C 	0.2398	0.03591	0.97721	-0.108
Mof_H 	H 	0.2791	0.0392	0.9913	0.072
Mof_C 	C 	0.1796	0.0187	0.99055	-0.048
Mof_C 	C 	0.1193	0.01429	0.96997	-0.028
Mof_H 	H 	0.0781	0.0042	0.9794	0.066
Mof_C 	C 	0.1222	0.0254	0.93484	-0.046
Mof_C 	C 	0.1825	0.04269	0.92156	-0.114
Mof_H 	H 	0.1839	0.0506	0.8984	0.098
Mof_C 	C 	0.0584	0.01925	0.91182	0.339
Mof_C 	C 	0.1763	0.00681	0.02834	0.35
Mof_Cu	Cu	0.34048	0.24751	0.90933	0.927
Mof_Cu	Cu	0.5106	0.22641	0.91183	0.913
Mof_N 	N 	0.302	0.0692	0.93048	-0.231
Mof_O 	O 	0.4361	0.25644	0.88992	-0.643
Mof_O 	O 	0.349	0.18622	0.915	-0.4
Mof_O 	O 	0.4618	0.16779	0.91338	-0.388
Mof_O 	O 	0.5309	0.10771	0.90868	-0.44
Mof_O 	O 	0.5164	0.04533	0.91275	-0.286
Mof_O 	O 	0.0649	0.03046	0.88116	-0.419
Mof_O 	O 	0.0062	0.00299	0.92566	-0.406
Mof_O 	O 	0.1178	0.00924	0.04267	-0.399
Mof_O 	O 	0.2339	0.99563	0.04154	-0.415
Mof_H 	H 	0.503	0.1272	0.9042	0.269
Mof_H 	H 	0.455	0.7772	0.3787	0.157
Mof_C 	C 	0.3955	0.66071	0.41527	0.373
Mof_C 	C 	0.4906	0.5782	0.41339	0.385
Mof_C 	C 	0.3723	0.61908	0.41994	-0.167
Mof_C 	C 	0.4141	0.58385	0.41927	-0.179
Mof_C 	C 	0.368	0.55381	0.42542	0.311
Mof_C 	C 	0.3041	0.60936	0.42665	0.323
Mof_C 	C 	0.238	0.6328	0.43102	-0.883
Mof_H 	H 	0.2483	0.6598	0.4274	0.315
Mof_H 	H 	0.2198	0.6292	0.4541	0.292
Mof_H 	H 	0.2036	0.6245	0.4143	0.303
Mof_C 	C 	0.3786	0.5108	0.4266	-0.829
Mof_H 	H 	0.3348	0.4983	0.432	0.276
Mof_H 	H 	0.4128	0.5045	0.4441	0.281
Mof_H 	H 	0.3951	0.5019	0.4043	0.27
Mof_C 	C 	0.2415	0.54821	0.44312	0.108
Mof_C 	C 	0.2398	0.53591	0.47721	-0.108
Mof_H 	H 	0.2791	0.5392	0.4913	0.072
Mof_C 	C 	0.1796	0.5187	0.49055	-0.048
Mof_C 	C 	0.1193	0.51429	0.46997	-0.028
Mof_H 	H 	0.0781	0.5042	0.4794	0.066
Mof_C 	C 	0.1222	0.5254	0.43484	-0.046
Mof_C 	C 	0.1825	0.54269	0.42156	-0.114
Mof_H 	H 	0.1839	0.5506	0.3984	0.098
Mof_C 	C 	0.0584	0.51925	0.41182	0.339
Mof_C 	C 	0.1763	0.50681	0.52834	0.35
Mof_Cu	Cu	0.34048	0.74751	0.40933	0.927
Mof_Cu	Cu	0.5106	0.72641	0.41183	0.913
Mof_N 	N 	0.302	0.5692	0.43048	-0.231
Mof_O 	O 	0.4361	0.75644	0.38992	-0.643
Mof_O 	O 	0.349	0.68622	0.415	-0.4
Mof_O 	O 	0.4618	0.66779	0.41338	-0.388
Mof_O 	O 	0.5309	0.60771	0.40868	-0.44
Mof_O 	O 	0.5164	0.54533	0.41275	-0.286
Mof_O 	O 	0.0649	0.53046	0.38116	-0.419
Mof_O 	O 	0.0062	0.50299	0.42566	-0.406
Mof_O 	O 	0.1178	0.50924	0.54267	-0.399
Mof_O 	O 	0.2339	0.49563	0.54154	-0.415
Mof_H 	H 	0.503	0.6272	0.4042	0.269
Mof_H 	H 	0.955	0.2772	0.3787	0.157
Mof_C 	C 	0.8955	0.16071	0.41527	0.373
Mof_C 	C 	0.9906	0.0782	0.41339	0.385
Mof_C 	C 	0.8723	0.11908	0.41994	-0.167
Mof_C 	C 	0.9141	0.08385	0.41927	-0.179
Mof_C 	C 	0.868	0.05381	0.42542	0.312
Mof_C 	C 	0.8041	0.10936	0.42665	0.323
Mof_C 	C 	0.738	0.1328	0.43102	-0.883
Mof_H 	H 	0.7483	0.1598	0.4274	0.315
Mof_H 	H 	0.7198	0.1292	0.4541	0.292
Mof_H 	H 	0.7036	0.1245	0.4143	0.303
Mof_C 	C 	0.8786	0.0108	0.4266	-0.83
Mof_H 	H 	0.8348	0.9983	0.432	0.276
Mof_H 	H 	0.9128	0.0045	0.4441	0.281
Mof_H 	H 	0.8951	0.0019	0.4043	0.27
Mof_C 	C 	0.7415	0.04821	0.44312	0.108
Mof_C 	C 	0.7398	0.03591	0.47721	-0.108
Mof_H 	H 	0.7791	0.0392	0.4913	0.072
Mof_C 	C 	0.6796	0.0187	0.49055	-0.047
Mof_C 	C 	0.6193	0.01429	0.46997	-0.028
Mof_H 	H 	0.5781	0.0042	0.4794	0.066
Mof_C 	C 	0.6222	0.0254	0.43484	-0.046
Mof_C 	C 	0.6825	0.04269	0.42156	-0.114
Mof_H 	H 	0.6839	0.0506	0.3984	0.098
Mof_C 	C 	0.5584	0.01925	0.41182	0.339
Mof_C 	C 	0.6763	0.00681	0.52834	0.349
Mof_Cu	Cu	0.84048	0.24751	0.40933	0.927
Mof_Cu	Cu	0.0106	0.22641	0.41183	0.913
Mof_N 	N 	0.802	0.0692	0.43048	-0.231
Mof_O 	O 	0.9361	0.25644	0.38992	-0.643
Mof_O 	O 	0.849	0.18622	0.415	-0.4
Mof_O 	O 	0.9618	0.16779	0.41338	-0.388
Mof_O 	O 	0.0309	0.10771	0.40868	-0.439
Mof_O 	O 	0.0164	0.04533	0.41275	-0.286
Mof_O 	O 	0.5649	0.03046	0.38116	-0.419
Mof_O 	O 	0.5062	0.00299	0.42566	-0.406
Mof_O 	O 	0.6178	0.00924	0.54267	-0.399
Mof_O 	O 	0.7339	0.99563	0.54154	-0.415
Mof_H 	H 	0.003	0.1272	0.4042	0.269
Mof_H 	H 	0.955	0.7772	0.8787	0.157
Mof_C 	C 	0.8955	0.66071	0.91527	0.373
Mof_C 	C 	0.9906	0.5782	0.91339	0.385
Mof_C 	C 	0.8723	0.61908	0.91994	-0.167
Mof_C 	C 	0.9141	0.58385	0.91927	-0.179
Mof_C 	C 	0.868	0.55381	0.92542	0.311
Mof_C 	C 	0.8041	0.60936	0.92665	0.323
Mof_C 	C 	0.738	0.6328	0.93102	-0.883
Mof_H 	H 	0.7483	0.6598	0.9274	0.315
Mof_H 	H 	0.7198	0.6292	0.9541	0.292
Mof_H 	H 	0.7036	0.6245	0.9143	0.303
Mof_C 	C 	0.8786	0.5108	0.9266	-0.829
Mof_H 	H 	0.8348	0.4983	0.932	0.276
Mof_H 	H 	0.9128	0.5045	0.9441	0.281
Mof_H 	H 	0.8951	0.5019	0.9043	0.27
Mof_C 	C 	0.7415	0.54821	0.94312	0.108
Mof_C 	C 	0.7398	0.53591	0.97721	-0.108
Mof_H 	H 	0.7791	0.5392	0.9913	0.072
Mof_C 	C 	0.6796	0.5187	0.99055	-0.048
Mof_C 	C 	0.6193	0.51429	0.96997	-0.028
Mof_H 	H 	0.5781	0.5042	0.9794	0.066
Mof_C 	C 	0.6222	0.5254	0.93484	-0.046
Mof_C 	C 	0.6825	0.54269	0.92156	-0.114
Mof_H 	H 	0.6839	0.5506	0.8984	0.098
Mof_C 	C 	0.5584	0.51925	0.91182	0.339
Mof_C 	C 	0.6763	0.50681	0.02834	0.35
Mof_Cu	Cu	0.84048	0.74751	0.90933	0.927
Mof_Cu	Cu	0.0106	0.72641	0.91183	0.913
Mof_N 	N 	0.802	0.5692	0.93048	-0.231
Mof_O 	O 	0.9361	0.75644	0.88992	-0.643
Mof_O 	O 	0.849	0.68622	0.915	-0.4
Mof_O 	O 	0.9618	0.66779	0.91338	-0.388
Mof_O 	O 	0.0309	0.60771	0.90868	-0.44
Mof_O 	O 	0.0164	0.54533	0.91275	-0.286
Mof_O 	O 	0.5649	0.53046	0.88116	-0.419
Mof_O 	O 	0.5062	0.50299	0.92566	-0.406
Mof_O 	O 	0.6178	0.50924	0.04267	-0.399
Mof_O 	O 	0.7339	0.49563	0.04154	-0.415
Mof_H 	H 	0.003	0.6272	0.9042	0.269
Mof_H 	H 	0.295	0.4728	0.8787	0.157
Mof_C 	C 	0.3545	0.58929	0.91527	0.373
Mof_C 	C 	0.2594	0.6718	0.91339	0.385
Mof_C 	C 	0.3777	0.63092	0.91994	-0.167
Mof_C 	C 	0.3359	0.66615	0.91927	-0.179
Mof_C 	C 	0.382	0.69619	0.92542	0.311
Mof_C 	C 	0.4459	0.64064	0.92665	0.323
Mof_C 	C 	0.512	0.6172	0.93102	-0.883
Mof_H 	H 	0.5017	0.5902	0.9274	0.315
Mof_H 	H 	0.5302	0.6208	0.9541	0.292
Mof_H 	H 	0.5464	0.6255	0.9143	0.303
Mof_C 	C 	0.3714	0.7392	0.9266	-0.829
Mof_H 	H 	0.4152	0.7517	0.932	0.276
Mof_H 	H 	0.3372	0.7455	0.9441	0.281
Mof_H 	H 	0.3549	0.7481	0.9043	0.27
Mof_C 	C 	0.5085	0.70179	0.94312	0.108
Mof_C 	C 	0.5102	0.71409	0.97721	-0.108
Mof_H 	H 	0.4709	0.7108	0.9913	0.072
Mof_C 	C 	0.5704	0.7313	0.99055	-0.048
Mof_C 	C 	0.6307	0.73571	0.96997	-0.028
Mof_H 	H 	0.6719	0.7458	0.9794	0.066
Mof_C 	C 	0.6278	0.7246	0.93484	-0.046
Mof_C 	C 	0.5675	0.70731	0.92156	-0.114
Mof_H 	H 	0.5661	0.6994	0.8984	0.098
Mof_C 	C 	0.6916	0.73075	0.91182	0.339
Mof_C 	C 	0.5737	0.74319	0.02834	0.35
Mof_Cu	Cu	0.40952	0.50249	0.90933	0.927
Mof_Cu	Cu	0.2394	0.52359	0.91183	0.913
Mof_N 	N 	0.448	0.6808	0.93048	-0.231
Mof_O 	O 	0.3139	0.49356	0.88992	-0.643
Mof_O 	O 	0.401	0.56378	0.915	-0.4
Mof_O 	O 	0.2882	0.58221	0.91338	-0.388
Mof_O 	O 	0.2191	0.64229	0.90868	-0.44
Mof_O 	O 	0.2336	0.70467	0.91275	-0.286
Mof_O 	O 	0.6851	0.71954	0.88116	-0.419
Mof_O 	O 	0.7438	0.74701	0.92566	-0.406
Mof_O 	O 	0.6322	0.74076	0.04267	-0.399
Mof_O 	O 	0.5161	0.75437	0.04154	-0.415
Mof_H 	H 	0.247	0.6228	0.9042	0.269
Mof_H 	H 	0.295	0.9728	0.3787	0.157
Mof_C 	C 	0.3545	0.08929	0.41527	0.373
Mof_C 	C 	0.2594	0.1718	0.41339	0.385
Mof_C 	C 	0.3777	0.13092	0.41994	-0.167
Mof_C 	C 	0.3359	0.16615	0.41927	-0.179
Mof_C 	C 	0.382	0.19619	0.42542	0.311
Mof_C 	C 	0.4459	0.14064	0.42665	0.323
Mof_C 	C 	0.512	0.1172	0.43102	-0.883
Mof_H 	H 	0.5017	0.0902	0.4274	0.315
Mof_H 	H 	0.5302	0.1208	0.4541	0.292
Mof_H 	H 	0.5464	0.1255	0.4143	0.303
Mof_C 	C 	0.3714	0.2392	0.4266	-0.829
Mof_H 	H 	0.4152	0.2517	0.432	0.276
Mof_H 	H 	0.3372	0.2455	0.4441	0.281
Mof_H 	H 	0.3549	0.2481	0.4043	0.27
Mof_C 	C 	0.5085	0.20179	0.44312	0.108
Mof_C 	C 	0.5102	0.21409	0.47721	-0.108
Mof_H 	H 	0.4709	0.2108	0.4913	0.072
Mof_C 	C 	0.5704	0.2313	0.49055	-0.048
Mof_C 	C 	0.6307	0.23571	0.46997	-0.028
Mof_H 	H 	0.6719	0.2458	0.4794	0.066
Mof_C 	C 	0.6278	0.2246	0.43484	-0.046
Mof_C 	C 	0.5675	0.20731	0.42156	-0.114
Mof_H 	H 	0.5661	0.1994	0.3984	0.098
Mof_C 	C 	0.6916	0.23075	0.41182	0.339
Mof_C 	C 	0.5737	0.24319	0.52834	0.35
Mof_Cu	Cu	0.40952	0.00249	0.40933	0.927
Mof_Cu	Cu	0.2394	0.02359	0.41183	0.913
Mof_N 	N 	0.448	0.1808	0.43048	-0.231
Mof_O 	O 	0.3139	0.99356	0.38992	-0.643
Mof_O 	O 	0.401	0.06378	0.415	-0.4
Mof_O 	O 	0.2882	0.08221	0.41338	-0.388
Mof_O 	O 	0.2191	0.14229	0.40868	-0.44
Mof_O 	O 	0.2336	0.20467	0.41275	-0.286
Mof_O 	O 	0.6851	0.21954	0.38116	-0.419
Mof_O 	O 	0.7438	0.24701	0.42566	-0.406
Mof_O 	O 	0.6322	0.24076	0.54267	-0.399
Mof_O 	O 	0.5161	0.25437	0.54154	-0.415
Mof_H 	H 	0.247	0.1228	0.4042	0.269
Mof_H 	H 	0.795	0.4728	0.3787	0.157
Mof_C 	C 	0.8545	0.58929	0.41527	0.373
Mof_C 	C 	0.7594	0.6718	0.41339	0.385
Mof_C 	C 	0.8777	0.63092	0.41994	-0.167
Mof_C 	C 	0.8359	0.66615	0.41927	-0.179
Mof_C 	C 	0.882	0.69619	0.42542	0.311
Mof_C 	C 	0.9459	0.64064	0.42665	0.323
Mof_C 	C 	0.012	0.6172	0.43102	-0.883
Mof_H 	H 	0.0017	0.5902	0.4274	0.315
Mof_H 	H 	0.0302	0.6208	0.4541	0.292
Mof_H 	H 	0.0464	0.6255	0.4143	0.303
Mof_C 	C 	0.8714	0.7392	0.4266	-0.829
Mof_H 	H 	0.9152	0.7517	0.432	0.276
Mof_H 	H 	0.8372	0.7455	0.4441	0.281
Mof_H 	H 	0.8549	0.7481	0.4043	0.27
Mof_C 	C 	0.0085	0.70179	0.44312	0.108
Mof_C 	C 	0.0102	0.71409	0.47721	-0.108
Mof_H 	H 	0.9709	0.7108	0.4913	0.072
Mof_C 	C 	0.0704	0.7313	0.49055	-0.048
Mof_C 	C 	0.1307	0.73571	0.46997	-0.028
Mof_H 	H 	0.1719	0.7458	0.4794	0.066
Mof_C 	C 	0.1278	0.7246	0.43484	-0.046
Mof_C 	C 	0.0675	0.70731	0.42156	-0.114
Mof_H 	H 	0.0661	0.6994	0.3984	0.098
Mof_C 	C 	0.1916	0.73075	0.41182	0.339
Mof_C 	C 	0.0737	0.74319	0.52834	0.35
Mof_Cu	Cu	0.90952	0.50249	0.40933	0.927
Mof_Cu	Cu	0.7394	0.52359	0.41183	0.913
Mof_N 	N 	0.948	0.6808	0.43048	-0.231
Mof_O 	O 	0.8139	0.49356	0.38992	-0.643
Mof_O 	O 	0.901	0.56378	0.415	-0.4
Mof_O 	O 	0.7882	0.58221	0.41338	-0.388
Mof_O 	O 	0.7191	0.64229	0.40868	-0.44
Mof_O 	O 	0.7336	0.70467	0.41275	-0.286
Mof_O 	O 	0.1851	0.71954	0.38116	-0.419
Mof_O 	O 	0.2438	0.74701	0.42566	-0.406
Mof_O 	O 	0.1322	0.74076	0.54267	-0.399
Mof_O 	O 	0.0161	0.75437	0.54154	-0.415
Mof_H 	H 	0.747	0.6228	0.4042	0.269
Mof_H 	H 	0.795	0.9728	0.8787	0.157
Mof_C 	C 	0.8545	0.08929	0.91527	0.373
Mof_C 	C 	0.7594	0.1718	0.91339	0.385
Mof_C 	C 	0.8777	0.13092	0.91994	-0.167
Mof_C 	C 	0.8359	0.16615	0.91927	-0.179
Mof_C 	C 	0.882	0.19619	0.92542	0.311
Mof_C 	C 	0.9459	0.14064	0.92665	0.323
Mof_C 	C 	0.012	0.1172	0.93102	-0.882
Mof_H 	H 	0.0017	0.0902	0.9274	0.315
Mof_H 	H 	0.0302	0.1208	0.9541	0.292
Mof_H 	H 	0.0464	0.1255	0.9143	0.303
Mof_C 	C 	0.8714	0.2392	0.9266	-0.829
Mof_H 	H 	0.9152	0.2517	0.932	0.276
Mof_H 	H 	0.8372	0.2455	0.9441	0.281
Mof_H 	H 	0.8549	0.2481	0.9043	0.27
Mof_C 	C 	0.0085	0.20179	0.94312	0.108
Mof_C 	C 	0.0102	0.21409	0.97721	-0.108
Mof_H 	H 	0.9709	0.2108	0.9913	0.072
Mof_C 	C 	0.0704	0.2313	0.99055	-0.048
Mof_C 	C 	0.1307	0.23571	0.96997	-0.028
Mof_H 	H 	0.1719	0.2458	0.9794	0.066
Mof_C 	C 	0.1278	0.2246	0.93484	-0.046
Mof_C 	C 	0.0675	0.20731	0.92156	-0.114
Mof_H 	H 	0.0661	0.1994	0.8984	0.098
Mof_C 	C 	0.1916	0.23075	0.91182	0.339
Mof_C 	C 	0.0737	0.24319	0.02834	0.35
Mof_Cu	Cu	0.90952	0.00249	0.90933	0.927
Mof_Cu	Cu	0.7394	0.02359	0.91183	0.913
Mof_N 	N 	0.948	0.1808	0.93048	-0.231
Mof_O 	O 	0.8139	0.99356	0.88992	-0.643
Mof_O 	O 	0.901	0.06378	0.915	-0.4
Mof_O 	O 	0.7882	0.08221	0.91338	-0.388
Mof_O 	O 	0.7191	0.14229	0.90868	-0.44
Mof_O 	O 	0.7336	0.20467	0.91275	-0.286
Mof_O 	O 	0.1851	0.21954	0.88116	-0.419
Mof_O 	O 	0.2438	0.24701	0.92566	-0.406
Mof_O 	O 	0.1322	0.24076	0.04267	-0.399
Mof_O 	O 	0.0161	0.25437	0.04154	-0.415
Mof_H 	H 	0.747	0.1228	0.9042	0.269
Mof_H 	H 	0.705	0.7228	0.1287	0.157
Mof_C 	C 	0.6455	0.83929	0.16527	0.373
Mof_C 	C 	0.7406	0.9218	0.16339	0.385
Mof_C 	C 	0.6223	0.88092	0.16994	-0.167
Mof_C 	C 	0.6641	0.91615	0.16927	-0.179
Mof_C 	C 	0.618	0.94619	0.17542	0.311
Mof_C 	C 	0.5541	0.89064	0.17665	0.323
Mof_C 	C 	0.488	0.8672	0.18102	-0.883
Mof_H 	H 	0.4983	0.8402	0.1774	0.315
Mof_H 	H 	0.4698	0.8708	0.2041	0.292
Mof_H 	H 	0.4536	0.8755	0.1643	0.303
Mof_C 	C 	0.6286	0.9892	0.1766	-0.829
Mof_H 	H 	0.5848	0.0017	0.182	0.276
Mof_H 	H 	0.6628	0.9955	0.1941	0.281
Mof_H 	H 	0.6451	0.9981	0.1543	0.27
Mof_C 	C 	0.4915	0.95179	0.19312	0.108
Mof_C 	C 	0.4898	0.96409	0.22721	-0.108
Mof_H 	H 	0.5291	0.9608	0.2413	0.072
Mof_C 	C 	0.4296	0.9813	0.24055	-0.048
Mof_C 	C 	0.3693	0.98571	0.21997	-0.028
Mof_H 	H 	0.3281	0.9958	0.2294	0.066
Mof_C 	C 	0.3722	0.9746	0.18484	-0.046
Mof_C 	C 	0.4325	0.95731	0.17156	-0.114
Mof_H 	H 	0.4339	0.9494	0.1484	0.098
Mof_C 	C 	0.3084	0.98075	0.16182	0.339
Mof_C 	C 	0.4263	0.99319	0.27834	0.35
Mof_Cu	Cu	0.59048	0.75249	0.15933	0.927
Mof_Cu	Cu	0.7606	0.77359	0.16183	0.913
Mof_N 	N 	0.552	0.9308	0.18048	-0.231
Mof_O 	O 	0.6861	0.74356	0.13992	-0.643
Mof_O 	O 	0.599	0.81378	0.165	-0.4
Mof_O 	O 	0.7118	0.83221	0.16338	-0.388
Mof_O 	O 	0.7809	0.89229	0.15868	-0.44
Mof_O 	O 	0.7664	0.95467	0.16275	-0.286
Mof_O 	O 	0.3149	0.96954	0.13116	-0.419
Mof_O 	O 	0.2562	0.99701	0.17566	-0.406
Mof_O 	O 	0.3678	0.99076	0.29267	-0.399
Mof_O 	O 	0.4839	0.00437	0.29154	-0.415
Mof_H 	H 	0.753	0.8728	0.1542	0.269
Mof_H 	H 	0.705	0.2228	0.6287	0.157
Mof_C 	C 	0.6455	0.33929	0.66527	0.373
Mof_C 	C 	0.7406	0.4218	0.66339	0.385
Mof_C 	C 	0.6223	0.38092	0.66994	-0.167
Mof_C 	C 	0.6641	0.41615	0.66927	-0.179
Mof_C 	C 	0.618	0.44619	0.67542	0.311
Mof_C 	C 	0.5541	0.39064	0.67665	0.323
Mof_C 	C 	0.488	0.3672	0.68102	-0.883
Mof_H 	H 	0.4983	0.3402	0.6774	0.315
Mof_H 	H 	0.4698	0.3708	0.7041	0.292
Mof_H 	H 	0.4536	0.3755	0.6643	0.303
Mof_C 	C 	0.6286	0.4892	0.6766	-0.829
Mof_H 	H 	0.5848	0.5017	0.682	0.276
Mof_H 	H 	0.6628	0.4955	0.6941	0.281
Mof_H 	H 	0.6451	0.4981	0.6543	0.27
Mof_C 	C 	0.4915	0.45179	0.69312	0.108
Mof_C 	C 	0.4898	0.46409	0.72721	-0.108
Mof_H 	H 	0.5291	0.4608	0.7413	0.072
Mof_C 	C 	0.4296	0.4813	0.74055	-0.048
Mof_C 	C 	0.3693	0.48571	0.71997	-0.028
Mof_H 	H 	0.3281	0.4958	0.7294	0.066
Mof_C 	C 	0.3722	0.4746	0.68484	-0.046
Mof_C 	C 	0.4325	0.45731	0.67156	-0.114
Mof_H 	H 	0.4339	0.4494	0.6484	0.098
Mof_C 	C 	0.3084	0.48075	0.66182	0.339
Mof_C 	C 	0.4263	0.49319	0.77834	0.35
Mof_Cu	Cu	0.59048	0.25249	0.65933	0.927
Mof_Cu	Cu	0.7606	0.27359	0.66183	0.913
Mof_N 	N 	0.552	0.4308	0.68048	-0.231
Mof_O 	O 	0.6861	0.24356	0.63992	-0.643
Mof_O 	O 	0.599	0.31378	0.665	-0.4
Mof_O 	O 	0.7118	0.33221	0.66338	-0.388
Mof_O 	O 	0.7809	0.39229	0.65868	-0.44
Mof_O 	O 	0.7664	0.45467	0.66275	-0.286
Mof_O 	O 	0.3149	0.46954	0.63116	-0.419
Mof_O 	O 	0.2562	0.49701	0.67566	-0.406
Mof_O 	O 	0.3678	0.49076	0.79267	-0.399
Mof_O 	O 	0.4839	0.50437	0.79154	-0.415
Mof_H 	H 	0.753	0.3728	0.6542	0.269
Mof_H 	H 	0.205	0.7228	0.6287	0.157
Mof_C 	C 	0.1455	0.83929	0.66527	0.373
Mof_C 	C 	0.2406	0.9218	0.66339	0.385
Mof_C 	C 	0.1223	0.88092	0.66994	-0.167
Mof_C 	C 	0.1641	0.91615	0.66927	-0.179
Mof_C 	C 	0.118	0.94619	0.67542	0.312
Mof_C 	C 	0.0541	0.89064	0.67665	0.323
Mof_C 	C 	0.988	0.8672	0.68102	-0.882
Mof_H 	H 	0.9983	0.8402	0.6774	0.315
Mof_H 	H 	0.9698	0.8708	0.7041	0.292
Mof_H 	H 	0.9536	0.8755	0.6643	0.303
Mof_C 	C 	0.1286	0.9892	0.6766	-0.83
Mof_H 	H 	0.0848	0.0017	0.682	0.276
Mof_H 	H 	0.1628	0.9955	0.6941	0.281
Mof_H 	H 	0.1451	0.9981	0.6543	0.27
Mof_C 	C 	0.9915	0.95179	0.69312	0.108
Mof_C 	C 	0.9898	0.96409	0.72721	-0.107
Mof_H 	H 	0.0291	0.9608	0.7413	0.072
Mof_C 	C 	0.9296	0.9813	0.74055	-0.048
Mof_C 	C 	0.8693	0.98571	0.71997	-0.028
Mof_H 	H 	0.8281	0.9958	0.7294	0.066
Mof_C 	C 	0.8722	0.9746	0.68484	-0.046
Mof_C 	C 	0.9325	0.95731	0.67156	-0.114
Mof_H 	H 	0.9339	0.9494	0.6484	0.098
Mof_C 	C 	0.8084	0.98075	0.66182	0.339
Mof_C 	C 	0.9263	0.99319	0.77834	0.35
Mof_Cu	Cu	0.09048	0.75249	0.65933	0.927
Mof_Cu	Cu	0.2606	0.77359	0.66183	0.913
Mof_N 	N 	0.052	0.9308	0.68048	-0.231
Mof_O 	O 	0.1861	0.74356	0.63992	-0.643
Mof_O 	O 	0.099	0.81378	0.665	-0.4
Mof_O 	O 	0.2118	0.83221	0.66338	-0.388
Mof_O 	O 	0.2809	0.89229	0.65868	-0.44
Mof_O 	O 	0.2664	0.95467	0.66275	-0.286
Mof_O 	O 	0.8149	0.96954	0.63116	-0.419
Mof_O 	O 	0.7562	0.99701	0.67566	-0.406
Mof_O 	O 	0.8678	0.99076	0.79267	-0.399
Mof_O 	O 	0.9839	0.00437	0.79154	-0.415
Mof_H 	H 	0.253	0.8728	0.6542	0.269
Mof_H 	H 	0.205	0.2228	0.1287	0.157
Mof_C 	C 	0.1455	0.33929	0.16527	0.373
Mof_C 	C 	0.2406	0.4218	0.16339	0.385
Mof_C 	C 	0.1223	0.38092	0.16994	-0.167
Mof_C 	C 	0.1641	0.41615	0.16927	-0.179
Mof_C 	C 	0.118	0.44619	0.17542	0.311
Mof_C 	C 	0.0541	0.39064	0.17665	0.323
Mof_C 	C 	0.988	0.3672	0.18102	-0.883
Mof_H 	H 	0.9983	0.3402	0.1774	0.315
Mof_H 	H 	0.9698	0.3708	0.2041	0.292
Mof_H 	H 	0.9536	0.3755	0.1643	0.303
Mof_C 	C 	0.1286	0.4892	0.1766	-0.829
Mof_H 	H 	0.0848	0.5017	0.182	0.276
Mof_H 	H 	0.1628	0.4955	0.1941	0.281
Mof_H 	H 	0.1451	0.4981	0.1543	0.27
Mof_C 	C 	0.9915	0.45179	0.19312	0.108
Mof_C 	C 	0.9898	0.46409	0.22721	-0.108
Mof_H 	H 	0.0291	0.4608	0.2413	0.072
Mof_C 	C 	0.9296	0.4813	0.24055	-0.048
Mof_C 	C 	0.8693	0.48571	0.21997	-0.028
Mof_H 	H 	0.8281	0.4958	0.2294	0.066
Mof_C 	C 	0.8722	0.4746	0.18484	-0.046
Mof_C 	C 	0.9325	0.45731	0.17156	-0.114
Mof_H 	H 	0.9339	0.4494	0.1484	0.098
Mof_C 	C 	0.8084	0.48075	0.16182	0.339
Mof_C 	C 	0.9263	0.49319	0.27834	0.35
Mof_Cu	Cu	0.09048	0.25249	0.15933	0.927
Mof_Cu	Cu	0.2606	0.27359	0.16183	0.913
Mof_N 	N 	0.052	0.4308	0.18048	-0.231
Mof_O 	O 	0.1861	0.24356	0.13992	-0.643
Mof_O 	O 	0.099	0.31378	0.165	-0.4
Mof_O 	O 	0.2118	0.33221	0.16338	-0.388
Mof_O 	O 	0.2809	0.39229	0.15868	-0.44
Mof_O 	O 	0.2664	0.45467	0.16275	-0.286
Mof_O 	O 	0.8149	0.46954	0.13116	-0.419
Mof_O 	O 	0.7562	0.49701	0.17566	-0.406
Mof_O 	O 	0.8678	0.49076	0.29267	-0.399
Mof_O 	O 	0.9839	0.50437	0.29154	-0.415
Mof_H 	H 	0.253	0.3728	0.1542	0.269
Mof_H 	H 	0.545	0.5272	0.1287	0.157
Mof_C 	C 	0.6045	0.41071	0.16527	0.373
Mof_C 	C 	0.5094	0.3282	0.16339	0.385
Mof_C 	C 	0.6277	0.36908	0.16994	-0.167
Mof_C 	C 	0.5859	0.33385	0.16927	-0.179
Mof_C 	C 	0.632	0.30381	0.17542	0.311
Mof_C 	C 	0.6959	0.35936	0.17665	0.323
Mof_C 	C 	0.762	0.3828	0.18102	-0.883
Mof_H 	H 	0.7517	0.4098	0.1774	0.315
Mof_H 	H 	0.7802	0.3792	0.2041	0.292
Mof_H 	H 	0.7964	0.3745	0.1643	0.303
Mof_C 	C 	0.6214	0.2608	0.1766	-0.829
Mof_H 	H 	0.6652	0.2483	0.182	0.276
Mof_H 	H 	0.5872	0.2545	0.1941	0.281
Mof_H 	H 	0.6049	0.2519	0.1543	0.27
Mof_C 	C 	0.7585	0.29821	0.19312	0.108
Mof_C 	C 	0.7602	0.28591	0.22721	-0.108
Mof_H 	H 	0.7209	0.2892	0.2413	0.072
Mof_C 	C 	0.8204	0.2687	0.24055	-0.048
Mof_C 	C 	0.8807	0.26429	0.21997	-0.028
Mof_H 	H 	0.9219	0.2542	0.2294	0.066
Mof_C 	C 	0.8778	0.2754	0.18484	-0.046
Mof_C 	C 	0.8175	0.29269	0.17156	-0.114
Mof_H 	H 	0.8161	0.3006	0.1484	0.098
Mof_C 	C 	0.9416	0.26925	0.16182	0.339
Mof_C 	C 	0.8237	0.25681	0.27834	0.35
Mof_Cu	Cu	0.65952	0.49751	0.15933	0.927
Mof_Cu	Cu	0.4894	0.47641	0.16183	0.913
Mof_N 	N 	0.698	0.3192	0.18048	-0.231
Mof_O 	O 	0.5639	0.50644	0.13992	-0.643
Mof_O 	O 	0.651	0.43622	0.165	-0.4
Mof_O 	O 	0.5382	0.41779	0.16338	-0.388
Mof_O 	O 	0.4691	0.35771	0.15868	-0.44
Mof_O 	O 	0.4836	0.29533	0.16275	-0.286
Mof_O 	O 	0.9351	0.28046	0.13116	-0.419
Mof_O 	O 	0.9938	0.25299	0.17566	-0.406
Mof_O 	O 	0.8822	0.25924	0.29267	-0.399
Mof_O 	O 	0.7661	0.24563	0.29154	-0.415
Mof_H 	H 	0.497	0.3772	0.1542	0.269
Mof_H 	H 	0.545	0.0272	0.6287	0.157
Mof_C 	C 	0.6045	0.91071	0.66527	0.373
Mof_C 	C 	0.5094	0.8282	0.66339	0.385
Mof_C 	C 	0.6277	0.86908	0.66994	-0.167
Mof_C 	C 	0.5859	0.83385	0.66927	-0.179
Mof_C 	C 	0.632	0.80381	0.67542	0.311
Mof_C 	C 	0.6959	0.85936	0.67665	0.323
Mof_C 	C 	0.762	0.8828	0.68102	-0.883
Mof_H 	H 	0.7517	0.9098	0.6774	0.315
Mof_H 	H 	0.7802	0.8792	0.7041	0.292
Mof_H 	H 	0.7964	0.8745	0.6643	0.303
Mof_C 	C 	0.6214	0.7608	0.6766	-0.829
Mof_H 	H 	0.6652	0.7483	0.682	0.276
Mof_H 	H 	0.5872	0.7545	0.6941	0.281
Mof_H 	H 	0.6049	0.7519	0.6543	0.27
Mof_C 	C 	0.7585	0.79821	0.69312	0.108
Mof_C 	C 	0.7602	0.78591	0.72721	-0.108
Mof_H 	H 	0.7209	0.7892	0.7413	0.072
Mof_C 	C 	0.8204	0.7687	0.74055	-0.048
Mof_C 	C 	0.8807	0.76429	0.71997	-0.028
Mof_H 	H 	0.9219	0.7542	0.7294	0.066
Mof_C 	C 	0.8778	0.7754	0.68484	-0.046
Mof_C 	C 	0.8175	0.79269	0.67156	-0.114
Mof_H 	H 	0.8161	0.8006	0.6484	0.098
Mof_C 	C 	0.9416	0.76925	0.66182	0.339
Mof_C 	C 	0.8237	0.75681	0.77834	0.35
Mof_Cu	Cu	0.65952	0.99751	0.65933	0.927
Mof_Cu	Cu	0.4894	0.97641	0.66183	0.913
Mof_N 	N 	0.698	0.8192	0.68048	-0.231
Mof_O 	O 	0.5639	0.00644	0.63992	-0.643
Mof_O 	O 	0.651	0.93622	0.665	-0.4
Mof_O 	O 	0.5382	0.91779	0.66338	-0.388
Mof_O 	O 	0.4691	0.85771	0.65868	-0.44
Mof_O 	O 	0.4836	0.79533	0.66275	-0.286
Mof_O 	O 	0.9351	0.78046	0.63116	-0.419
Mof_O 	O 	0.9938	0.75299	0.67566	-0.406
Mof_O 	O 	0.8822	0.75924	0.79267	-0.399
Mof_O 	O 	0.7661	0.74563	0.79154	-0.415
Mof_H 	H 	0.497	0.8772	0.6542	0.269
Mof_H 	H 	0.045	0.5272	0.6287	0.157
Mof_C 	C 	0.1045	0.41071	0.66527	0.373
Mof_C 	C 	0.0094	0.3282	0.66339	0.385
Mof_C 	C 	0.1277	0.36908	0.66994	-0.167
Mof_C 	C 	0.0859	0.33385	0.66927	-0.179
Mof_C 	C 	0.132	0.30381	0.67542	0.312
Mof_C 	C 	0.1959	0.35936	0.67665	0.323
Mof_C 	C 	0.262	0.3828	0.68102	-0.883
Mof_H 	H 	0.2517	0.4098	0.6774	0.315
Mof_H 	H 	0.2802	0.3792	0.7041	0.292
Mof_H 	H 	0.2964	0.3745	0.6643	0.303
Mof_C 	C 	0.1214	0.2608	0.6766	-0.829
Mof_H 	H 	0.1652	0.2483	0.682	0.276
Mof_H 	H 	0.0872	0.2545	0.6941	0.281
Mof_H 	H 	0.1049	0.2519	0.6543	0.27
Mof_C 	C 	0.2585	0.29821	0.69312	0.108
Mof_C 	C 	0.2602	0.28591	0.72721	-0.108
Mof_H 	H 	0.2209	0.2892	0.7413	0.072
Mof_C 	C 	0.3204	0.2687	0.74055	-0.048
Mof_C 	C 	0.3807	0.26429	0.71997	-0.028
Mof_H 	H 	0.4219	0.2542	0.7294	0.066
Mof_C 	C 	0.3778	0.2754	0.68484	-0.046
Mof_C 	C 	0.3175	0.29269	0.67156	-0.114
Mof_H 	H 	0.3161	0.3006	0.6484	0.098
Mof_C 	C 	0.4416	0.26925	0.66182	0.339
Mof_C 	C 	0.3237	0.25681	0.77834	0.35
Mof_Cu	Cu	0.15952	0.49751	0.65933	0.927
Mof_Cu	Cu	0.9894	0.47641	0.66183	0.913
Mof_N 	N 	0.198	0.3192	0.68048	-0.231
Mof_O 	O 	0.0639	0.50644	0.63992	-0.643
Mof_O 	O 	0.151	0.43622	0.665	-0.4
Mof_O 	O 	0.0382	0.41779	0.66338	-0.388
Mof_O 	O 	0.9691	0.35771	0.65868	-0.44
Mof_O 	O 	0.9836	0.29533	0.66275	-0.286
Mof_O 	O 	0.4351	0.28046	0.63116	-0.419
Mof_O 	O 	0.4938	0.25299	0.67566	-0.406
Mof_O 	O 	0.3822	0.25924	0.79267	-0.399
Mof_O 	O 	0.2661	0.24563	0.79154	-0.415
Mof_H 	H 	0.997	0.3772	0.6542	0.269
Mof_H 	H 	0.045	0.0272	0.1287	0.157
Mof_C 	C 	0.1045	0.91071	0.16527	0.373
Mof_C 	C 	0.0094	0.8282	0.16339	0.385
Mof_C 	C 	0.1277	0.86908	0.16994	-0.167
Mof_C 	C 	0.0859	0.83385	0.16927	-0.179
Mof_C 	C 	0.132	0.80381	0.17542	0.311
Mof_C 	C 	0.1959	0.85936	0.17665	0.323
Mof_C 	C 	0.262	0.8828	0.18102	-0.883
Mof_H 	H 	0.2517	0.9098	0.1774	0.315
Mof_H 	H 	0.2802	0.8792	0.2041	0.292
Mof_H 	H 	0.2964	0.8745	0.1643	0.303
Mof_C 	C 	0.1214	0.7608	0.1766	-0.829
Mof_H 	H 	0.1652	0.7483	0.182	0.276
Mof_H 	H 	0.0872	0.7545	0.1941	0.281
Mof_H 	H 	0.1049	0.7519	0.1543	0.27
Mof_C 	C 	0.2585	0.79821	0.19312	0.108
Mof_C 	C 	0.2602	0.78591	0.22721	-0.108
Mof_H 	H 	0.2209	0.7892	0.2413	0.072
Mof_C 	C 	0.3204	0.7687	0.24055	-0.048
Mof_C 	C 	0.3807	0.76429	0.21997	-0.028
Mof_H 	H 	0.4219	0.7542	0.2294	0.066
Mof_C 	C 	0.3778	0.7754	0.18484	-0.046
Mof_C 	C 	0.3175	0.79269	0.17156	-0.114
Mof_H 	H 	0.3161	0.8006	0.1484	0.098
Mof_C 	C 	0.4416	0.76925	0.16182	0.339
Mof_C 	C 	0.3237	0.75681	0.27834	0.35
Mof_Cu	Cu	0.15952	0.99751	0.15933	0.927
Mof_Cu	Cu	0.9894	0.97641	0.16183	0.913
Mof_N 	N 	0.198	0.8192	0.18048	-0.231
Mof_O 	O 	0.0639	0.00644	0.13992	-0.643
Mof_O 	O 	0.151	0.93622	0.165	-0.4
Mof_O 	O 	0.0382	0.91779	0.16338	-0.388
Mof_O 	O 	0.9691	0.85771	0.15868	-0.439
Mof_O 	O 	0.9836	0.79533	0.16275	-0.286
Mof_O 	O 	0.4351	0.78046	0.13116	-0.419
Mof_O 	O 	0.4938	0.75299	0.17566	-0.406
Mof_O 	O 	0.3822	0.75924	0.29267	-0.399
Mof_O 	O 	0.2661	0.74563	0.29154	-0.415
Mof_H 	H 	0.997	0.8772	0.1542	0.27
Mof_H 	H 	0.545	0.7228	0.1213	0.157
Mof_C 	C 	0.6045	0.83929	0.08473	0.373
Mof_C 	C 	0.5094	0.9218	0.08661	0.385
Mof_C 	C 	0.6277	0.88092	0.08006	-0.167
Mof_C 	C 	0.5859	0.91615	0.08073	-0.179
Mof_C 	C 	0.632	0.94619	0.07458	0.311
Mof_C 	C 	0.6959	0.89064	0.07335	0.323
Mof_C 	C 	0.762	0.8672	0.06898	-0.883
Mof_H 	H 	0.7517	0.8402	0.0726	0.315
Mof_H 	H 	0.7802	0.8708	0.0459	0.292
Mof_H 	H 	0.7964	0.8755	0.0857	0.303
Mof_C 	C 	0.6214	0.9892	0.0734	-0.829
Mof_H 	H 	0.6652	0.0017	0.068	0.276
Mof_H 	H 	0.5872	0.9955	0.0559	0.281
Mof_H 	H 	0.6049	0.9981	0.0957	0.27
Mof_C 	C 	0.7585	0.95179	0.05688	0.108
Mof_C 	C 	0.7602	0.96409	0.02279	-0.108
Mof_H 	H 	0.7209	0.9608	0.0087	0.072
Mof_C 	C 	0.8204	0.9813	0.00945	-0.048
Mof_C 	C 	0.8807	0.98571	0.03003	-0.028
Mof_H 	H 	0.9219	0.9958	0.0206	0.066
Mof_C 	C 	0.8778	0.9746	0.06516	-0.046
Mof_C 	C 	0.8175	0.95731	0.07844	-0.114
Mof_H 	H 	0.8161	0.9494	0.1016	0.098
Mof_C 	C 	0.9416	0.98075	0.08818	0.339
Mof_C 	C 	0.8237	0.99319	0.97166	0.35
Mof_Cu	Cu	0.65952	0.75249	0.09067	0.927
Mof_Cu	Cu	0.4894	0.77359	0.08817	0.913
Mof_N 	N 	0.698	0.9308	0.06952	-0.231
Mof_O 	O 	0.5639	0.74356	0.11008	-0.643
Mof_O 	O 	0.651	0.81378	0.085	-0.4
Mof_O 	O 	0.5382	0.83221	0.08662	-0.388
Mof_O 	O 	0.4691	0.89229	0.09132	-0.44
Mof_O 	O 	0.4836	0.95467	0.08725	-0.286
Mof_O 	O 	0.9351	0.96954	0.11884	-0.419
Mof_O 	O 	0.9938	0.99701	0.07434	-0.406
Mof_O 	O 	0.8822	0.99076	0.95733	-0.399
Mof_O 	O 	0.7661	0.00437	0.95846	-0.415
Mof_H 	H 	0.497	0.8728	0.0958	0.269
Mof_H 	H 	0.545	0.2228	0.6213	0.157
Mof_C 	C 	0.6045	0.33929	0.58473	0.373
Mof_C 	C 	0.5094	0.4218	0.58661	0.385
Mof_C 	C 	0.6277	0.38092	0.58006	-0.167
Mof_C 	C 	0.5859	0.41615	0.58073	-0.179
Mof_C 	C 	0.632	0.44619	0.57458	0.311
Mof_C 	C 	0.6959	0.39064	0.57335	0.323
Mof_C 	C 	0.762	0.3672	0.56898	-0.883
Mof_H 	H 	0.7517	0.3402	0.5726	0.315
Mof_H 	H 	0.7802	0.3708	0.5459	0.292
Mof_H 	H 	0.7964	0.3755	0.5857	0.303
Mof_C 	C 	0.6214	0.4892	0.5734	-0.829
Mof_H 	H 	0.6652	0.5017	0.568	0.276
Mof_H 	H 	0.5872	0.4955	0.5559	0.281
Mof_H 	H 	0.6049	0.4981	0.5957	0.27
Mof_C 	C 	0.7585	0.45179	0.55688	0.108
Mof_C 	C 	0.7602	0.46409	0.52279	-0.108
Mof_H 	H 	0.7209	0.4608	0.5087	0.072
Mof_C 	C 	0.8204	0.4813	0.50945	-0.048
Mof_C 	C 	0.8807	0.48571	0.53003	-0.028
Mof_H 	H 	0.9219	0.4958	0.5206	0.066
Mof_C 	C 	0.8778	0.4746	0.56516	-0.046
Mof_C 	C 	0.8175	0.45731	0.57844	-0.114
Mof_H 	H 	0.8161	0.4494	0.6016	0.098
Mof_C 	C 	0.9416	0.48075	0.58818	0.339
Mof_C 	C 	0.8237	0.49319	0.47166	0.35
Mof_Cu	Cu	0.65952	0.25249	0.59067	0.927
Mof_Cu	Cu	0.4894	0.27359	0.58817	0.913
Mof_N 	N 	0.698	0.4308	0.56952	-0.231
Mof_O 	O 	0.5639	0.24356	0.61008	-0.643
Mof_O 	O 	0.651	0.31378	0.585	-0.4
Mof_O 	O 	0.5382	0.33221	0.58662	-0.388
Mof_O 	O 	0.4691	0.39229	0.59132	-0.44
Mof_O 	O 	0.4836	0.45467	0.58725	-0.286
Mof_O 	O 	0.9351	0.46954	0.61884	-0.419
Mof_O 	O 	0.9938	0.49701	0.57434	-0.406
Mof_O 	O 	0.8822	0.49076	0.45733	-0.399
Mof_O 	O 	0.7661	0.50437	0.45846	-0.415
Mof_H 	H 	0.497	0.3728	0.5958	0.269
Mof_H 	H 	0.045	0.7228	0.6213	0.157
Mof_C 	C 	0.1045	0.83929	0.58473	0.373
Mof_C 	C 	0.0094	0.9218	0.58661	0.385
Mof_C 	C 	0.1277	0.88092	0.58006	-0.167
Mof_C 	C 	0.0859	0.91615	0.58073	-0.179
Mof_C 	C 	0.132	0.94619	0.57458	0.312
Mof_C 	C 	0.1959	0.89064	0.57335	0.323
Mof_C 	C 	0.262	0.8672	0.56898	-0.883
Mof_H 	H 	0.2517	0.8402	0.5726	0.315
Mof_H 	H 	0.2802	0.8708	0.5459	0.292
Mof_H 	H 	0.2964	0.8755	0.5857	0.303
Mof_C 	C 	0.1214	0.9892	0.5734	-0.83
Mof_H 	H 	0.1652	0.0017	0.568	0.276
Mof_H 	H 	0.0872	0.9955	0.5559	0.281
Mof_H 	H 	0.1049	0.9981	0.5957	0.27
Mof_C 	C 	0.2585	0.95179	0.55688	0.108
Mof_C 	C 	0.2602	0.96409	0.52279	-0.108
Mof_H 	H 	0.2209	0.9608	0.5087	0.072
Mof_C 	C 	0.3204	0.9813	0.50945	-0.047
Mof_C 	C 	0.3807	0.98571	0.53003	-0.028
Mof_H 	H 	0.4219	0.9958	0.5206	0.066
Mof_C 	C 	0.3778	0.9746	0.56516	-0.046
Mof_C 	C 	0.3175	0.95731	0.57844	-0.114
Mof_H 	H 	0.3161	0.9494	0.6016	0.098
Mof_C 	C 	0.4416	0.98075	0.58818	0.339
Mof_C 	C 	0.3237	0.99319	0.47166	0.349
Mof_Cu	Cu	0.15952	0.75249	0.59067	0.927
Mof_Cu	Cu	0.9894	0.77359	0.58817	0.913
Mof_N 	N 	0.198	0.9308	0.56952	-0.231
Mof_O 	O 	0.0639	0.74356	0.61008	-0.643
Mof_O 	O 	0.151	0.81378	0.585	-0.4
Mof_O 	O 	0.0382	0.83221	0.58662	-0.388
Mof_O 	O 	0.9691	0.89229	0.59132	-0.439
Mof_O 	O 	0.9836	0.95467	0.58725	-0.286
Mof_O 	O 	0.4351	0.96954	0.61884	-0.419
Mof_O 	O 	0.4938	0.99701	0.57434	-0.406
Mof_O 	O 	0.3822	0.99076	0.45733	-0.399
Mof_O 	O 	0.2661	0.00437	0.45846	-0.415
Mof_H 	H 	0.997	0.8728	0.5958	0.269
Mof_H 	H 	0.045	0.2228	0.1213	0.157
Mof_C 	C 	0.1045	0.33929	0.08473	0.373
Mof_C 	C 	0.0094	0.4218	0.08661	0.385
Mof_C 	C 	0.1277	0.38092	0.08006	-0.167
Mof_C 	C 	0.0859	0.41615	0.08073	-0.179
Mof_C 	C 	0.132	0.44619	0.07458	0.311
Mof_C 	C 	0.1959	0.39064	0.07335	0.323
Mof_C 	C 	0.262	0.3672	0.06898	-0.883
Mof_H 	H 	0.2517	0.3402	0.0726	0.315
Mof_H 	H 	0.2802	0.3708	0.0459	0.292
Mof_H 	H 	0.2964	0.3755	0.0857	0.303
Mof_C 	C 	0.1214	0.4892	0.0734	-0.829
Mof_H 	H 	0.1652	0.5017	0.068	0.276
Mof_H 	H 	0.0872	0.4955	0.0559	0.281
Mof_H 	H 	0.1049	0.4981	0.0957	0.27
Mof_C 	C 	0.2585	0.45179	0.05688	0.108
Mof_C 	C 	0.2602	0.46409	0.02279	-0.108
Mof_H 	H 	0.2209	0.4608	0.0087	0.072
Mof_C 	C 	0.3204	0.4813	0.00945	-0.048
Mof_C 	C 	0.3807	0.48571	0.03003	-0.028
Mof_H 	H 	0.4219	0.4958	0.0206	0.066
Mof_C 	C 	0.3778	0.4746	0.06516	-0.046
Mof_C 	C 	0.3175	0.45731	0.07844	-0.114
Mof_H 	H 	0.3161	0.4494	0.1016	0.098
Mof_C 	C 	0.4416	0.48075	0.08818	0.339
Mof_C 	C 	0.3237	0.49319	0.97166	0.35
Mof_Cu	Cu	0.15952	0.25249	0.09067	0.927
Mof_Cu	Cu	0.9894	0.27359	0.08817	0.913
Mof_N 	N 	0.198	0.4308	0.06952	-0.231
Mof_O 	O 	0.0639	0.24356	0.11008	-0.643
Mof_O 	O 	0.151	0.31378	0.085	-0.4
Mof_O 	O 	0.0382	0.33221	0.08662	-0.388
Mof_O 	O 	0.9691	0.39229	0.09132	-0.44
Mof_O 	O 	0.9836	0.45467	0.08725	-0.286
Mof_O 	O 	0.4351	0.46954	0.11884	-0.419
Mof_O 	O 	0.4938	0.49701	0.07434	-0.406
Mof_O 	O 	0.3822	0.49076	0.95733	-0.399
Mof_O 	O 	0.2661	0.50437	0.95846	-0.415
Mof_H 	H 	0.997	0.3728	0.0958	0.269
Mof_H 	H 	0.705	0.5272	0.1213	0.157
Mof_C 	C 	0.6455	0.41071	0.08473	0.373
Mof_C 	C 	0.7406	0.3282	0.08661	0.385
Mof_C 	C 	0.6223	0.36908	0.08006	-0.167
Mof_C 	C 	0.6641	0.33385	0.08073	-0.179
Mof_C 	C 	0.618	0.30381	0.07458	0.311
Mof_C 	C 	0.5541	0.35936	0.07335	0.323
Mof_C 	C 	0.488	0.3828	0.06898	-0.883
Mof_H 	H 	0.4983	0.4098	0.0726	0.315
Mof_H 	H 	0.4698	0.3792	0.0459	0.292
Mof_H 	H 	0.4536	0.3745	0.0857	0.303
Mof_C 	C 	0.6286	0.2608	0.0734	-0.829
Mof_H 	H 	0.5848	0.2483	0.068	0.276
Mof_H 	H 	0.6628	0.2545	0.0559	0.281
Mof_H 	H 	0.6451	0.2519	0.0957	0.27
Mof_C 	C 	0.4915	0.29821	0.05688	0.108
Mof_C 	C 	0.4898	0.28591	0.02279	-0.108
Mof_H 	H 	0.5291	0.2892	0.0087	0.072
Mof_C 	C 	0.4296	0.2687	0.00945	-0.048
Mof_C 	C 	0.3693	0.26429	0.03003	-0.028
Mof_H 	H 	0.3281	0.2542	0.0206	0.066
Mof_C 	C 	0.3722	0.2754	0.06516	-0.046
Mof_C 	C 	0.4325	0.29269	0.07844	-0.114
Mof_H 	H 	0.4339	0.3006	0.1016	0.098
Mof_C 	C 	0.3084	0.26925	0.08818	0.339
Mof_C 	C 	0.4263	0.25681	0.97166	0.35
Mof_Cu	Cu	0.59048	0.49751	0.09067	0.927
Mof_Cu	Cu	0.7606	0.47641	0.08817	0.913
Mof_N 	N 	0.552	0.3192	0.06952	-0.231
Mof_O 	O 	0.6861	0.50644	0.11008	-0.643
Mof_O 	O 	0.599	0.43622	0.085	-0.4
Mof_O 	O 	0.7118	0.41779	0.08662	-0.388
Mof_O 	O 	0.7809	0.35771	0.09132	-0.44
Mof_O 	O 	0.7664	0.29533	0.08725	-0.286
Mof_O 	O 	0.3149	0.28046	0.11884	-0.419
Mof_O 	O 	0.2562	0.25299	0.07434	-0.406
Mof_O 	O 	0.3678	0.25924	0.95733	-0.399
Mof_O 	O 	0.4839	0.24563	0.95846	-0.415
Mof_H 	H 	0.753	0.3772	0.0958	0.269
Mof_H 	H 	0.705	0.0272	0.6213	0.157
Mof_C 	C 	0.6455	0.91071	0.58473	0.373
Mof_C 	C 	0.7406	0.8282	0.58661	0.385
Mof_C 	C 	0.6223	0.86908	0.58006	-0.167
Mof_C 	C 	0.6641	0.83385	0.58073	-0.179
Mof_C 	C 	0.618	0.80381	0.57458	0.311
Mof_C 	C 	0.5541	0.85936	0.57335	0.323
Mof_C 	C 	0.488	0.8828	0.56898	-0.883
Mof_H 	H 	0.4983	0.9098	0.5726	0.315
Mof_H 	H 	0.4698	0.8792	0.5459	0.292
Mof_H 	H 	0.4536	0.8745	0.5857	0.303
Mof_C 	C 	0.6286	0.7608	0.5734	-0.829
Mof_H 	H 	0.5848	0.7483	0.568	0.276
Mof_H 	H 	0.6628	0.7545	0.5559	0.281
Mof_H 	H 	0.6451	0.7519	0.5957	0.27
Mof_C 	C 	0.4915	0.79821	0.55688	0.108
Mof_C 	C 	0.4898	0.78591	0.52279	-0.108
Mof_H 	H 	0.5291	0.7892	0.5087	0.072
Mof_C 	C 	0.4296	0.7687	0.50945	-0.048
Mof_C 	C 	0.3693	0.76429	0.53003	-0.028
Mof_H 	H 	0.3281	0.7542	0.5206	0.066
Mof_C 	C 	0.3722	0.7754	0.56516	-0.046
Mof_C 	C 	0.4325	0.79269	0.57844	-0.114
Mof_H 	H 	0.4339	0.8006	0.6016	0.098
Mof_C 	C 	0.3084	0.76925	0.58818	0.339
Mof_C 	C 	0.4263	0.75681	0.47166	0.35
Mof_Cu	Cu	0.59048	0.99751	0.59067	0.927
Mof_Cu	Cu	0.7606	0.97641	0.58817	0.913
Mof_N 	N 	0.552	0.8192	0.56952	-0.231
Mof_O 	O 	0.6861	0.00644	0.61008	-0.643
Mof_O 	O 	0.599	0.93622	0.585	-0.4
Mof_O 	O 	0.7118	0.91779	0.58662	-0.388
Mof_O 	O 	0.7809	0.85771	0.59132	-0.44
Mof_O 	O 	0.7664	0.79533	0.58725	-0.286
Mof_O 	O 	0.3149	0.78046	0.61884	-0.419
Mof_O 	O 	0.2562	0.75299	0.57434	-0.406
Mof_O 	O 	0.3678	0.75924	0.45733	-0.399
Mof_O 	O 	0.4839	0.74563	0.45846	-0.415
Mof_H 	H 	0.753	0.8772	0.5958	0.269
Mof_H 	H 	0.205	0.5272	0.6213	0.157
Mof_C 	C 	0.1455	0.41071	0.58473	0.373
Mof_C 	C 	0.2406	0.3282	0.58661	0.385
Mof_C 	C 	0.1223	0.36908	0.58006	-0.167
Mof_C 	C 	0.1641	0.33385	0.58073	-0.179
Mof_C 	C 	0.118	0.30381	0.57458	0.311
Mof_C 	C 	0.0541	0.35936	0.57335	0.323
Mof_C 	C 	0.988	0.3828	0.56898	-0.883
Mof_H 	H 	0.9983	0.4098	0.5726	0.315
Mof_H 	H 	0.9698	0.3792	0.5459	0.292
Mof_H 	H 	0.9536	0.3745	0.5857	0.303
Mof_C 	C 	0.1286	0.2608	0.5734	-0.829
Mof_H 	H 	0.0848	0.2483	0.568	0.276
Mof_H 	H 	0.1628	0.2545	0.5559	0.281
Mof_H 	H 	0.1451	0.2519	0.5957	0.27
Mof_C 	C 	0.9915	0.29821	0.55688	0.108
Mof_C 	C 	0.9898	0.28591	0.52279	-0.108
Mof_H 	H 	0.0291	0.2892	0.5087	0.072
Mof_C 	C 	0.9296	0.2687	0.50945	-0.048
Mof_C 	C 	0.8693	0.26429	0.53003	-0.028
Mof_H 	H 	0.8281	0.2542	0.5206	0.066
Mof_C 	C 	0.8722	0.2754	0.56516	-0.046
Mof_C 	C 	0.9325	0.29269	0.57844	-0.114
Mof_H 	H 	0.9339	0.3006	0.6016	0.098
Mof_C 	C 	0.8084	0.26925	0.58818	0.339
Mof_C 	C 	0.9263	0.25681	0.47166	0.35
Mof_Cu	Cu	0.09048	0.49751	0.59067	0.927
Mof_Cu	Cu	0.2606	0.47641	0.58817	0.913
Mof_N 	N 	0.052	0.3192	0.56952	-0.231
Mof_O 	O 	0.1861	0.50644	0.61008	-0.643
Mof_O 	O 	0.099	0.43622	0.585	-0.4
Mof_O 	O 	0.2118	0.41779	0.58662	-0.388
Mof_O 	O 	0.2809	0.35771	0.59132	-0.44
Mof_O 	O 	0.2664	0.29533	0.58725	-0.286
Mof_O 	O 	0.8149	0.28046	0.61884	-0.419
Mof_O 	O 	0.7562	0.25299	0.57434	-0.406
Mof_O 	O 	0.8678	0.25924	0.45733	-0.399
Mof_O 	O 	0.9839	0.24563	0.45846	-0.415
Mof_H 	H 	0.253	0.3772	0.5958	0.269
Mof_H 	H 	0.205	0.0272	0.1213	0.157
Mof_C 	C 	0.1455	0.91071	0.08473	0.373
Mof_C 	C 	0.2406	0.8282	0.08661	0.385
Mof_C 	C 	0.1223	0.86908	0.08006	-0.167
Mof_C 	C 	0.1641	0.83385	0.08073	-0.179
Mof_C 	C 	0.118	0.80381	0.07458	0.311
Mof_C 	C 	0.0541	0.85936	0.07335	0.323
Mof_C 	C 	0.988	0.8828	0.06898	-0.882
Mof_H 	H 	0.9983	0.9098	0.0726	0.315
Mof_H 	H 	0.9698	0.8792	0.0459	0.292
Mof_H 	H 	0.9536	0.8745	0.0857	0.303
Mof_C 	C 	0.1286	0.7608	0.0734	-0.829
Mof_H 	H 	0.0848	0.7483	0.068	0.276
Mof_H 	H 	0.1628	0.7545	0.0559	0.281
Mof_H 	H 	0.1451	0.7519	0.0957	0.27
Mof_C 	C 	0.9915	0.79821	0.05688	0.108
Mof_C 	C 	0.9898	0.78591	0.02279	-0.108
Mof_H 	H 	0.0291	0.7892	0.0087	0.072
Mof_C 	C 	0.9296	0.7687	0.00945	-0.048
Mof_C 	C 	0.8693	0.76429	0.03003	-0.028
Mof_H 	H 	0.8281	0.7542	0.0206	0.066
Mof_C 	C 	0.8722	0.7754	0.06516	-0.046
Mof_C 	C 	0.9325	0.79269	0.07844	-0.114
Mof_H 	H 	0.9339	0.8006	0.1016	0.098
Mof_C 	C 	0.8084	0.76925	0.08818	0.339
Mof_C 	C 	0.9263	0.75681	0.97166	0.35
Mof_Cu	Cu	0.09048	0.99751	0.09067	0.927
Mof_Cu	Cu	0.2606	0.97641	0.08817	0.913
Mof_N 	N 	0.052	0.8192	0.06952	-0.231
Mof_O 	O 	0.1861	0.00644	0.11008	-0.643
Mof_O 	O 	0.099	0.93622	0.085	-0.4
Mof_O 	O 	0.2118	0.91779	0.08662	-0.388
Mof_O 	O 	0.2809	0.85771	0.09132	-0.44
Mof_O 	O 	0.2664	0.79533	0.08725	-0.286
Mof_O 	O 	0.8149	0.78046	0.11884	-0.419
Mof_O 	O 	0.7562	0.75299	0.07434	-0.406
Mof_O 	O 	0.8678	0.75924	0.95733	-0.399
Mof_O 	O 	0.9839	0.74563	0.95846	-0.415
Mof_H 	H 	0.253	0.8772	0.0958	0.269
_end
