data_functionalizedCrystal
_audit_creation_method	'EQeq! by Chris Wilmer'
_symmetry_space_group_name_H-M	'P1'
_symmetry_Int_Tables_number	1
_symmetry_cell_setting	triclinic
loop_
_symmetry_equiv_pos_as_xyz
  x,y,z
_cell_length_a	14.3389
_cell_length_b	21.2398
_cell_length_c	20.8514
_cell_angle_alpha	90
_cell_angle_beta	90
_cell_angle_gamma	90
loop_
_atom_site_label
_atom_site_type_symbol
_atom_site_fract_x
_atom_site_fract_y
_atom_site_fract_z
_atom_site_charge
Mof_Re	Re	0.90385	0.63846	0.4414	0.434
Mof_S 	S 	0.86931	0.73685	0.48855	-0.301
Mof_N 	N 	0.853	0.6574	0.6526	-0.218
Mof_C 	C 	0.9044	0.7869	0.3558	-0.05
Mof_C 	C 	0.9042	0.669	0.6127	-0.038
Mof_N 	N 	0.8525	0.8085	0.3202	-0.214
Mof_C 	C 	0.888	0.5512	0.3947	-0.062
Mof_C 	C 	0.7914	0.6594	0.3802	-0.063
Mof_N 	N 	0.7313	0.6703	0.3461	-0.124
Mof_C 	C 	0.7924	0.6028	0.4966	-0.052
Mof_N 	N 	0.8811	0.5059	0.3657	-0.132
Mof_N 	N 	0.7321	0.5821	0.5252	-0.247
Mof_Re	Re	0.40385	0.13846	0.4414	0.453
Mof_S 	S 	0.36931	0.23685	0.48855	-0.298
Mof_N 	N 	0.353	0.1574	0.6526	-0.222
Mof_C 	C 	0.4044	0.2869	0.3558	-0.049
Mof_C 	C 	0.4042	0.169	0.6127	-0.038
Mof_N 	N 	0.3525	0.3085	0.3202	-0.216
Mof_C 	C 	0.388	0.0512	0.3947	-0.076
Mof_C 	C 	0.2914	0.1594	0.3802	-0.065
Mof_N 	N 	0.2313	0.1703	0.3461	-0.124
Mof_C 	C 	0.2924	0.1028	0.4966	-0.065
Mof_N 	N 	0.3811	0.0059	0.3657	-0.164
Mof_N 	N 	0.2321	0.0821	0.5252	-0.252
Mof_Re	Re	0.09615	0.36154	0.9414	0.474
Mof_S 	S 	0.13069	0.26315	0.98855	-0.227
Mof_N 	N 	0.147	0.3426	0.1526	-0.22
Mof_C 	C 	0.0956	0.2131	0.8558	-0.046
Mof_C 	C 	0.0958	0.331	0.1127	-0.032
Mof_N 	N 	0.1475	0.1915	0.8202	-0.211
Mof_C 	C 	0.112	0.4488	0.8947	-0.045
Mof_C 	C 	0.2086	0.3406	0.8802	-0.061
Mof_N 	N 	0.2687	0.3297	0.8461	-0.116
Mof_C 	C 	0.2076	0.3972	0.9966	0.042
Mof_N 	N 	0.1189	0.4941	0.8657	-0.126
Mof_N 	N 	0.2679	0.4179	0.0252	-0.296
Mof_Re	Re	0.59615	0.86154	0.9414	0.472
Mof_S 	S 	0.63069	0.76315	0.98855	-0.227
Mof_N 	N 	0.647	0.8426	0.1526	-0.217
Mof_C 	C 	0.5956	0.7131	0.8558	-0.046
Mof_C 	C 	0.5958	0.831	0.1127	-0.021
Mof_N 	N 	0.6475	0.6915	0.8202	-0.214
Mof_C 	C 	0.612	0.9488	0.8947	-0.019
Mof_C 	C 	0.7086	0.8406	0.8802	-0.049
Mof_N 	N 	0.7687	0.8297	0.8461	-0.108
Mof_C 	C 	0.7076	0.8972	0.9966	0.058
Mof_N 	N 	0.6189	0.9941	0.8657	-0.088
Mof_N 	N 	0.7679	0.9179	0.0252	-0.24
Mof_Re	Re	0.09615	0.63846	0.0586	0.424
Mof_S 	S 	0.13069	0.73685	0.01145	-0.358
Mof_N 	N 	0.147	0.6574	0.8474	-0.215
Mof_C 	C 	0.0956	0.7869	0.1442	-0.038
Mof_C 	C 	0.0958	0.669	0.8873	-0.022
Mof_N 	N 	0.1475	0.8085	0.1798	-0.216
Mof_C 	C 	0.112	0.5512	0.1053	-0.062
Mof_C 	C 	0.2086	0.6594	0.1198	-0.06
Mof_N 	N 	0.2687	0.6703	0.1539	-0.126
Mof_C 	C 	0.2076	0.6028	0.0034	-0.14
Mof_N 	N 	0.1189	0.5059	0.1343	-0.129
Mof_N 	N 	0.2679	0.5821	0.9748	-0.17
Mof_Re	Re	0.59615	0.13846	0.0586	0.427
Mof_S 	S 	0.63069	0.23685	0.01145	-0.362
Mof_N 	N 	0.647	0.1574	0.8474	-0.218
Mof_C 	C 	0.5956	0.2869	0.1442	-0.048
Mof_C 	C 	0.5958	0.169	0.8873	-0.033
Mof_N 	N 	0.6475	0.3085	0.1798	-0.216
Mof_C 	C 	0.612	0.0512	0.1053	-0.079
Mof_C 	C 	0.7086	0.1594	0.1198	-0.06
Mof_N 	N 	0.7687	0.1703	0.1539	-0.127
Mof_C 	C 	0.7076	0.1028	0.0034	-0.154
Mof_N 	N 	0.6189	0.0059	0.1343	-0.162
Mof_N 	N 	0.7679	0.0821	0.9748	-0.156
Mof_Re	Re	0.90385	0.36154	0.5586	0.435
Mof_S 	S 	0.86931	0.26315	0.51145	-0.305
Mof_N 	N 	0.853	0.3426	0.3474	-0.217
Mof_C 	C 	0.9044	0.2131	0.6442	-0.06
Mof_C 	C 	0.9042	0.331	0.3873	-0.039
Mof_N 	N 	0.8525	0.1915	0.6798	-0.212
Mof_C 	C 	0.888	0.4488	0.6053	-0.062
Mof_C 	C 	0.7914	0.3406	0.6198	-0.062
Mof_N 	N 	0.7313	0.3297	0.6539	-0.122
Mof_C 	C 	0.7924	0.3972	0.5034	-0.051
Mof_N 	N 	0.8811	0.4941	0.6343	-0.132
Mof_N 	N 	0.7321	0.4179	0.4748	-0.247
Mof_Re	Re	0.40385	0.86154	0.5586	0.447
Mof_S 	S 	0.36931	0.76315	0.51145	-0.297
Mof_N 	N 	0.353	0.8426	0.3474	-0.216
Mof_C 	C 	0.4044	0.7131	0.6442	-0.049
Mof_C 	C 	0.4042	0.831	0.3873	-0.018
Mof_N 	N 	0.3525	0.6915	0.6798	-0.216
Mof_C 	C 	0.388	0.9488	0.6053	-0.032
Mof_C 	C 	0.2914	0.8406	0.6198	-0.052
Mof_N 	N 	0.2313	0.8297	0.6539	-0.113
Mof_C 	C 	0.2924	0.8972	0.5034	-0.032
Mof_N 	N 	0.3811	0.9941	0.6343	-0.091
Mof_N 	N 	0.2321	0.9179	0.4748	-0.211
Mof_Re	Re	0.09615	0.36154	0.5586	0.449
Mof_S 	S 	0.13069	0.26315	0.51145	-0.299
Mof_N 	N 	0.147	0.3426	0.3474	-0.218
Mof_C 	C 	0.0956	0.2131	0.6442	-0.049
Mof_C 	C 	0.0958	0.331	0.3873	-0.028
Mof_N 	N 	0.1475	0.1915	0.6798	-0.213
Mof_C 	C 	0.112	0.4488	0.6053	-0.056
Mof_C 	C 	0.2086	0.3406	0.6198	-0.062
Mof_N 	N 	0.2687	0.3297	0.6539	-0.121
Mof_C 	C 	0.2076	0.3972	0.5034	-0.052
Mof_N 	N 	0.1189	0.4941	0.6343	-0.129
Mof_N 	N 	0.2679	0.4179	0.4748	-0.247
Mof_Re	Re	0.59615	0.86154	0.5586	0.448
Mof_S 	S 	0.63069	0.76315	0.51145	-0.296
Mof_N 	N 	0.647	0.8426	0.3474	-0.215
Mof_C 	C 	0.5956	0.7131	0.6442	-0.049
Mof_C 	C 	0.5958	0.831	0.3873	-0.017
Mof_N 	N 	0.6475	0.6915	0.6798	-0.216
Mof_C 	C 	0.612	0.9488	0.6053	-0.029
Mof_C 	C 	0.7086	0.8406	0.6198	-0.05
Mof_N 	N 	0.7687	0.8297	0.6539	-0.113
Mof_C 	C 	0.7076	0.8972	0.5034	-0.031
Mof_N 	N 	0.6189	0.9941	0.6343	-0.09
Mof_N 	N 	0.7679	0.9179	0.4748	-0.194
Mof_Re	Re	0.90385	0.63846	0.0586	0.41
Mof_S 	S 	0.86931	0.73685	0.01145	-0.364
Mof_N 	N 	0.853	0.6574	0.8474	-0.214
Mof_C 	C 	0.9044	0.7869	0.1442	-0.049
Mof_C 	C 	0.9042	0.669	0.8873	-0.033
Mof_N 	N 	0.8525	0.8085	0.1798	-0.215
Mof_C 	C 	0.888	0.5512	0.1053	-0.068
Mof_C 	C 	0.7914	0.6594	0.1198	-0.059
Mof_N 	N 	0.7313	0.6703	0.1539	-0.127
Mof_C 	C 	0.7924	0.6028	0.0034	-0.14
Mof_N 	N 	0.8811	0.5059	0.1343	-0.132
Mof_N 	N 	0.7321	0.5821	0.9748	-0.17
Mof_Re	Re	0.40385	0.13846	0.0586	0.427
Mof_S 	S 	0.36931	0.23685	0.01145	-0.363
Mof_N 	N 	0.353	0.1574	0.8474	-0.218
Mof_C 	C 	0.4044	0.2869	0.1442	-0.048
Mof_C 	C 	0.4042	0.169	0.8873	-0.033
Mof_N 	N 	0.3525	0.3085	0.1798	-0.217
Mof_C 	C 	0.388	0.0512	0.1053	-0.082
Mof_C 	C 	0.2914	0.1594	0.1198	-0.061
Mof_N 	N 	0.2313	0.1703	0.1539	-0.127
Mof_C 	C 	0.2924	0.1028	0.0034	-0.156
Mof_N 	N 	0.3811	0.0059	0.1343	-0.164
Mof_N 	N 	0.2321	0.0821	0.9748	-0.173
Mof_Re	Re	0.90385	0.36154	0.9414	0.461
Mof_S 	S 	0.86931	0.26315	0.98855	-0.233
Mof_N 	N 	0.853	0.3426	0.1526	-0.22
Mof_C 	C 	0.9044	0.2131	0.8558	-0.057
Mof_C 	C 	0.9042	0.331	0.1127	-0.043
Mof_N 	N 	0.8525	0.1915	0.8202	-0.21
Mof_C 	C 	0.888	0.4488	0.8947	-0.051
Mof_C 	C 	0.7914	0.3406	0.8802	-0.06
Mof_N 	N 	0.7313	0.3297	0.8461	-0.117
Mof_C 	C 	0.7924	0.3972	0.9966	0.043
Mof_N 	N 	0.8811	0.4941	0.8657	-0.129
Mof_N 	N 	0.7321	0.4179	0.0252	-0.296
Mof_Re	Re	0.40385	0.86154	0.9414	0.472
Mof_S 	S 	0.36931	0.76315	0.98855	-0.228
Mof_N 	N 	0.353	0.8426	0.1526	-0.218
Mof_C 	C 	0.4044	0.7131	0.8558	-0.046
Mof_C 	C 	0.4042	0.831	0.1127	-0.021
Mof_N 	N 	0.3525	0.6915	0.8202	-0.214
Mof_C 	C 	0.388	0.9488	0.8947	-0.022
Mof_C 	C 	0.2914	0.8406	0.8802	-0.051
Mof_N 	N 	0.2313	0.8297	0.8461	-0.108
Mof_C 	C 	0.2924	0.8972	0.9966	0.057
Mof_N 	N 	0.3811	0.9941	0.8657	-0.089
Mof_N 	N 	0.2321	0.9179	0.0252	-0.257
Mof_Re	Re	0.09615	0.63846	0.4414	0.449
Mof_S 	S 	0.13069	0.73685	0.48855	-0.295
Mof_N 	N 	0.147	0.6574	0.6526	-0.219
Mof_C 	C 	0.0956	0.7869	0.3558	-0.039
Mof_C 	C 	0.0958	0.669	0.6127	-0.027
Mof_N 	N 	0.1475	0.8085	0.3202	-0.215
Mof_C 	C 	0.112	0.5512	0.3947	-0.056
Mof_C 	C 	0.2086	0.6594	0.3802	-0.063
Mof_N 	N 	0.2687	0.6703	0.3461	-0.124
Mof_C 	C 	0.2076	0.6028	0.4966	-0.052
Mof_N 	N 	0.1189	0.5059	0.3657	-0.129
Mof_N 	N 	0.2679	0.5821	0.5252	-0.247
Mof_Re	Re	0.59615	0.13846	0.4414	0.453
Mof_S 	S 	0.63069	0.23685	0.48855	-0.297
Mof_N 	N 	0.647	0.1574	0.6526	-0.221
Mof_C 	C 	0.5956	0.2869	0.3558	-0.049
Mof_C 	C 	0.5958	0.169	0.6127	-0.038
Mof_N 	N 	0.6475	0.3085	0.3202	-0.216
Mof_C 	C 	0.612	0.0512	0.3947	-0.073
Mof_C 	C 	0.7086	0.1594	0.3802	-0.063
Mof_N 	N 	0.7687	0.1703	0.3461	-0.125
Mof_C 	C 	0.7076	0.1028	0.4966	-0.064
Mof_N 	N 	0.6189	0.0059	0.3657	-0.162
Mof_N 	N 	0.7679	0.0821	0.5252	-0.235
Mof_Re	Re	1.08976e-32	0.69366	0.54058	0.448
Mof_Re	Re	2.2969e-33	0.74892	0.42127	0.45
Mof_S 	S 	1.07637e-32	0.58398	0.51602	-0.268
Mof_S 	S 	5.89765e-33	0.66116	0.35261	-0.272
Mof_C 	C 	-4.71263e-33	0.7777	0.5938	-0.05
Mof_N 	N 	-1.24987e-32	0.8228	0.6239	-0.132
Mof_C 	C 	-5.49013e-33	0.8424	0.4512	-0.035
Mof_N 	N 	-5.42089e-33	0.8944	0.4639	-0.332
Mof_Re	Re	0.5	0.19366	0.54058	0.441
Mof_Re	Re	0.5	0.24892	0.42127	0.438
Mof_S 	S 	0.5	0.08398	0.51602	-0.332
Mof_S 	S 	0.5	0.16116	0.35261	-0.288
Mof_C 	C 	0.5	0.2777	0.5938	-0.06
Mof_N 	N 	0.5	0.3228	0.6239	-0.154
Mof_C 	C 	0.5	0.3424	0.4512	-0.045
Mof_N 	N 	0.5	0.3944	0.4639	-0.402
Mof_Re	Re	-3.25696e-33	0.30634	0.04058	0.366
Mof_Re	Re	-1.08774e-32	0.25109	0.92127	0.452
Mof_S 	S 	-5.87532e-33	0.41602	0.01602	-0.342
Mof_S 	S 	4.6487e-33	0.33884	0.85261	-0.275
Mof_C 	C 	-1.47613e-33	0.2223	0.0938	-0.07
Mof_N 	N 	2.6631e-33	0.1772	0.1239	-0.152
Mof_C 	C 	5.18624e-33	0.1576	0.9512	-0.03
Mof_N 	N 	5.25549e-33	0.1056	0.9639	-0.328
Mof_Re	Re	0.5	0.80634	0.04058	0.351
Mof_Re	Re	0.5	0.75109	0.92127	0.438
Mof_S 	S 	0.5	0.91602	0.01602	-0.291
Mof_S 	S 	0.5	0.83884	0.85261	-0.278
Mof_C 	C 	0.5	0.7223	0.0938	-0.076
Mof_N 	N 	0.5	0.6772	0.1239	-0.156
Mof_C 	C 	0.5	0.6576	0.9512	-0.03
Mof_N 	N 	0.5	0.6056	0.9639	-0.36
Mof_Re	Re	3.70319e-32	0.69366	0.95942	0.528
Mof_Re	Re	6.39192e-33	0.74892	0.07873	0.45
Mof_S 	S 	5.36497e-33	0.58398	0.98398	-0.19
Mof_S 	S 	8.03617e-34	0.66116	0.14739	-0.268
Mof_C 	C 	-1.09595e-32	0.7777	0.9062	-0.032
Mof_N 	N 	4.77677e-33	0.8228	0.8761	-0.121
Mof_C 	C 	4.73807e-33	0.8424	0.0488	-0.048
Mof_N 	N 	7.15327e-33	0.8944	0.0361	-0.316
Mof_Re	Re	0.5	0.19366	0.95942	0.525
Mof_Re	Re	0.5	0.24892	0.07873	0.438
Mof_S 	S 	0.5	0.08398	0.98398	-0.249
Mof_S 	S 	0.5	0.16116	0.14739	-0.283
Mof_C 	C 	0.5	0.2777	0.9062	-0.04
Mof_N 	N 	0.5	0.3228	0.8761	-0.144
Mof_C 	C 	0.5	0.3424	0.0488	-0.06
Mof_N 	N 	0.5	0.3944	0.0361	-0.387
Mof_Re	Re	-5.44531e-33	0.30634	0.45942	0.449
Mof_Re	Re	3.15542e-33	0.25109	0.57873	0.451
Mof_S 	S 	-5.3114e-33	0.41602	0.48398	-0.267
Mof_S 	S 	-1.23707e-32	0.33884	0.64739	-0.271
Mof_C 	C 	2.21473e-33	0.2223	0.4062	-0.054
Mof_N 	N 	2.05062e-33	0.1772	0.3761	-0.152
Mof_C 	C 	-4.95798e-33	0.1576	0.5488	-0.045
Mof_N 	N 	-5.02723e-33	0.1056	0.5361	-0.37
Mof_Re	Re	0.5	0.80634	0.45942	0.431
Mof_Re	Re	0.5	0.75109	0.57873	0.436
Mof_S 	S 	0.5	0.91602	0.48398	-0.218
Mof_S 	S 	0.5	0.83884	0.64739	-0.274
Mof_C 	C 	0.5	0.7223	0.4062	-0.061
Mof_N 	N 	0.5	0.6772	0.3761	-0.156
Mof_C 	C 	0.5	0.6576	0.5488	-0.045
Mof_N 	N 	0.5	0.6056	0.5361	-0.402
Mof_Ho	Ho	0.7628	0.64156	0.75	1.057
Mof_Ho	Ho	0.2628	0.14156	0.75	1.004
Mof_Ho	Ho	0.2372	0.35844	0.25	1.053
Mof_Ho	Ho	0.7372	0.85844	0.25	1.136
Mof_Ho	Ho	0.2372	0.64156	0.75	1.065
Mof_Ho	Ho	0.7372	0.14156	0.75	1.001
Mof_Ho	Ho	0.7628	0.35844	0.25	1.044
Mof_Ho	Ho	0.2628	0.85844	0.25	1.139
Mof_K 	K 	0.58466	0.5	0.5	1.365
Mof_K 	K 	0.08466	0	0.5	1.296
Mof_K 	K 	0.41534	0.5	-0	1.244
Mof_K 	K 	0.91534	0	-0	0.904
Mof_K 	K 	0.41534	0.5	0.5	1.37
Mof_K 	K 	0.91534	0	0.5	1.029
Mof_K 	K 	0.58466	0.5	-0	1.239
Mof_K 	K 	0.08466	0	-0	1.17
_end
