data_functionalizedCrystal
_audit_creation_method	'EQeq! by Chris Wilmer'
_symmetry_space_group_name_H-M	'P1'
_symmetry_Int_Tables_number	1
_symmetry_cell_setting	triclinic
loop_
_symmetry_equiv_pos_as_xyz
  x,y,z
_cell_length_a	35.5387
_cell_length_b	35.5387
_cell_length_c	53.2607
_cell_angle_alpha	90
_cell_angle_beta	90
_cell_angle_gamma	90
loop_
_atom_site_label
_atom_site_type_symbol
_atom_site_fract_x
_atom_site_fract_y
_atom_site_fract_z
_atom_site_charge
Mof_Cd	Cd	0.1987	0.07812	0.14955	0.282
Mof_Cd	Cd	0.12509	0.99128	0.159	0.264
Mof_Cd	Cd	0.08943	0.10622	0.16931	0.266
Mof_Cd	Cd	0.16802	0.05573	0.221	0.26
Mof_Cd	Cd	0.97798	0.06007	0.16386	0.244
Mof_Cd	Cd	0.0995	0.91172	0.21577	0.244
Mof_Cd	Cd	0.05355	0.02219	0.2191	0.208
Mof_Cd	Cd	0.13089	0.98961	0.27757	0.239
Mof_Cd	Cd	0.00505	0.13376	0.21666	0.245
Mof_Cd	Cd	0.09279	0.09592	0.27512	0.242
Mof_Cd	Cd	0.92863	0.16112	0.27146	0.264
Mof_Cd	Cd	0.97965	0.05427	0.27322	0.204
Mof_Cd	Cd	0.90944	0.08543	0.3327	0.262
Mof_Cd	Cd	0.94172	0.97486	0.32958	0.241
Mof_Cd	Cd	0.01861	0.13484	0.32646	0.266
Mof_Cd	Cd	0.92638	0.19705	0.34567	0.283
Mof_Se	Se	0.11045	0.04422	0.19187	-0.201
Mof_Se	Se	0.07827	0.96633	0.24628	-0.217
Mof_Se	Se	0.03438	0.08089	0.24568	-0.211
Mof_Se	Se	0.95949	0.11135	0.30112	-0.203
Mof_Se	Se	0.95042	0.11775	0.18644	-0.139
Mof_Se	Se	0.11802	0.04626	0.30631	-0.145
Mof_S 	S 	0.8967	0.2516	0.3694	-0.112
Mof_S 	S 	0.1777	0.0166	0.13132	-0.121
Mof_S 	S 	0.1471	0.127	0.14607	-0.124
Mof_S 	S 	0.2246	0.074	0.19362	-0.128
Mof_S 	S 	0.9305	0.0282	0.13353	-0.123
Mof_S 	S 	0.1526	0.9435	0.18987	-0.136
Mof_S 	S 	0.0389	0.0779	0.14053	-0.131
Mof_S 	S 	0.1878	0.0028	0.24889	-0.131
Mof_S 	S 	0.0599	0.1601	0.191	-0.129
Mof_S 	S 	0.1412	0.1144	0.24213	-0.143
Mof_S 	S 	0.8736	0.1368	0.24725	-0.128
Mof_S 	S 	0.8572	0.0733	0.30064	-0.135
Mof_S 	S 	0.9866	0.1858	0.24757	-0.129
Mof_S 	S 	0.0699	0.1552	0.29813	-0.131
Mof_S 	S 	0.9115	0.2154	0.30081	-0.115
Mof_S 	S 	0.9316	0.0313	0.3592	-0.127
Mof_S 	S 	0.8905	0.1405	0.35956	-0.123
Mof_S 	S 	0.0306	0.0807	0.35512	-0.133
Mof_S 	S 	0.9969	0.1923	0.35189	-0.126
Mof_C 	C 	0.1601	0.0337	0.1029	0.016
Mof_C 	C 	0.1891	0.0395	0.0846	-0.018
Mof_C 	C 	0.1748	0.0555	0.061	0.002
Mof_C 	C 	0.1314	0.0651	0.056	-0.004
Mof_C 	C 	0.1092	0.057	0.0771	0.007
Mof_C 	C 	0.1232	0.0447	0.1027	-0.031
Mof_C 	C 	0.9098	0.0649	0.1138	0.009
Mof_C 	C 	0.9088	0.058	0.0881	-0.006
Mof_C 	C 	0.8919	0.0838	0.0721	0.002
Mof_C 	C 	0.8761	0.1165	0.0817	-0.005
Mof_C 	C 	0.877	0.1234	0.1074	0.005
Mof_C 	C 	0.8939	0.0976	0.1234	-0.029
Mof_C 	C 	0.1772	0.9111	0.1714	0.019
Mof_C 	C 	0.166	0.8705	0.1771	-0.024
Mof_C 	C 	0.192	0.8391	0.1614	0.001
Mof_C 	C 	0.22	0.8518	0.1453	-0.007
Mof_C 	C 	0.2261	0.9013	0.1487	0.004
Mof_C 	C 	0.2046	0.9242	0.1569	-0.025
Mof_C 	C 	0.0269	0.1128	0.1205	0.022
Mof_C 	C 	0.9902	0.1251	0.1168	-0.031
Mof_C 	C 	0.9818	0.149	0.0969	0.005
Mof_C 	C 	0.0101	0.1606	0.0807	-0.003
Mof_C 	C 	0.0469	0.1483	0.0844	0.004
Mof_C 	C 	0.0552	0.1244	0.1042	-0.019
Mof_C 	C 	0.8519	0.1761	0.2318	0.011
Mof_C 	C 	0.8695	0.1967	0.2156	-0.025
Mof_C 	C 	0.9696	0.2267	0.2327	0.014
Mof_C 	C 	0.9575	0.2554	0.2482	-0.015
Mof_C 	C 	0.9426	0.2892	0.2355	0.002
Mof_C 	C 	0.9481	0.2875	0.2079	-0.003
Mof_C 	C 	0.9568	0.259	0.1909	0.001
Mof_C 	C 	0.9737	0.2296	0.2054	-0.023
Mof_C 	C 	0.8596	0.2192	0.2988	0.005
Mof_C 	C 	0.8357	0.1869	0.302	-0.025
Mof_C 	C 	0.7962	0.1897	0.301	0.002
Mof_C 	C 	0.7847	0.2253	0.2955	-0.007
Mof_C 	C 	0.8083	0.253	0.2859	-0
Mof_C 	C 	0.8445	0.2568	0.2897	-0.006
Mof_C 	C 	0.8878	0.0259	0.3809	0.003
Mof_C 	C 	0.8566	0.0149	0.3695	-0.03
Mof_C 	C 	0.9066	0.1288	0.393	-0.016
Mof_C 	C 	0.0642	0.0978	0.3798	-0.002
Mof_C 	C 	0.1015	0.0722	0.3805	-0.023
Mof_C 	C 	0.0185	0.2308	0.334	0.011
Mof_C 	C 	0.0109	0.2346	0.3086	-0.029
Mof_C 	C 	0.025	0.2652	0.2953	0.008
Mof_C 	C 	0.0468	0.292	0.3076	-0.004
Mof_C 	C 	0.0545	0.2882	0.3331	0.002
Mof_C 	C 	0.0403	0.2576	0.3463	-0.01
Mof_Cd	Cd	0.6987	0.57812	0.64955	0.282
Mof_Cd	Cd	0.62509	0.49128	0.659	0.267
Mof_Cd	Cd	0.58943	0.60622	0.66931	0.267
Mof_Cd	Cd	0.66802	0.55573	0.721	0.261
Mof_Cd	Cd	0.47798	0.56007	0.66386	0.246
Mof_Cd	Cd	0.5995	0.41172	0.71577	0.245
Mof_Cd	Cd	0.55355	0.52219	0.7191	0.208
Mof_Cd	Cd	0.63089	0.48961	0.77757	0.243
Mof_Cd	Cd	0.50505	0.63376	0.71666	0.244
Mof_Cd	Cd	0.59279	0.59592	0.77512	0.243
Mof_Cd	Cd	0.42863	0.66112	0.77146	0.265
Mof_Cd	Cd	0.47965	0.55427	0.77322	0.207
Mof_Cd	Cd	0.40944	0.58543	0.8327	0.263
Mof_Cd	Cd	0.44172	0.47486	0.82958	0.245
Mof_Cd	Cd	0.51861	0.63484	0.82646	0.265
Mof_Cd	Cd	0.42638	0.69705	0.84567	0.284
Mof_Se	Se	0.61045	0.54422	0.69187	-0.203
Mof_Se	Se	0.57827	0.46633	0.74628	-0.216
Mof_Se	Se	0.53438	0.58089	0.74568	-0.213
Mof_Se	Se	0.45949	0.61135	0.80112	-0.201
Mof_Se	Se	0.45042	0.61775	0.68644	-0.138
Mof_Se	Se	0.61802	0.54626	0.80631	-0.147
Mof_S 	S 	0.3967	0.7516	0.8694	-0.112
Mof_S 	S 	0.6777	0.5166	0.63132	-0.123
Mof_S 	S 	0.6471	0.627	0.64607	-0.124
Mof_S 	S 	0.7246	0.574	0.69362	-0.128
Mof_S 	S 	0.4305	0.5282	0.63353	-0.124
Mof_S 	S 	0.6526	0.4435	0.68987	-0.135
Mof_S 	S 	0.5389	0.5779	0.64053	-0.133
Mof_S 	S 	0.6878	0.5028	0.74889	-0.133
Mof_S 	S 	0.5599	0.6601	0.691	-0.129
Mof_S 	S 	0.6412	0.6144	0.74213	-0.143
Mof_S 	S 	0.3736	0.6368	0.74725	-0.128
Mof_S 	S 	0.3572	0.5733	0.80064	-0.135
Mof_S 	S 	0.4866	0.6858	0.74757	-0.127
Mof_S 	S 	0.5699	0.6552	0.79813	-0.132
Mof_S 	S 	0.4115	0.7154	0.80081	-0.114
Mof_S 	S 	0.4316	0.5313	0.8592	-0.128
Mof_S 	S 	0.3905	0.6405	0.85956	-0.123
Mof_S 	S 	0.5306	0.5807	0.85512	-0.135
Mof_S 	S 	0.4969	0.6923	0.85189	-0.123
Mof_C 	C 	0.6601	0.5337	0.6029	0.016
Mof_C 	C 	0.6891	0.5395	0.5846	-0.019
Mof_C 	C 	0.6748	0.5555	0.561	0.002
Mof_C 	C 	0.6314	0.5651	0.556	-0.005
Mof_C 	C 	0.6092	0.557	0.5771	0.006
Mof_C 	C 	0.6232	0.5447	0.6027	-0.032
Mof_C 	C 	0.4098	0.5649	0.6138	0.01
Mof_C 	C 	0.4088	0.558	0.5881	-0.006
Mof_C 	C 	0.3919	0.5838	0.5721	0.002
Mof_C 	C 	0.3761	0.6165	0.5817	-0.005
Mof_C 	C 	0.377	0.6234	0.6074	0.005
Mof_C 	C 	0.3939	0.5976	0.6234	-0.029
Mof_C 	C 	0.6772	0.4111	0.6714	0.019
Mof_C 	C 	0.666	0.3705	0.6771	-0.024
Mof_C 	C 	0.692	0.3391	0.6614	0.001
Mof_C 	C 	0.72	0.3518	0.6453	-0.007
Mof_C 	C 	0.7261	0.4013	0.6487	0.004
Mof_C 	C 	0.7046	0.4242	0.6569	-0.024
Mof_C 	C 	0.5269	0.6128	0.6205	0.02
Mof_C 	C 	0.4902	0.6251	0.6168	-0.029
Mof_C 	C 	0.4818	0.649	0.5969	0.007
Mof_C 	C 	0.5101	0.6606	0.5807	-0.006
Mof_C 	C 	0.5469	0.6483	0.5844	0.004
Mof_C 	C 	0.5552	0.6244	0.6042	-0.019
Mof_C 	C 	0.3519	0.6761	0.7318	0.011
Mof_C 	C 	0.3695	0.6967	0.7156	-0.025
Mof_C 	C 	0.4696	0.7267	0.7327	0.014
Mof_C 	C 	0.4575	0.7554	0.7482	-0.014
Mof_C 	C 	0.4426	0.7892	0.7355	0.002
Mof_C 	C 	0.4481	0.7875	0.7079	-0.003
Mof_C 	C 	0.4568	0.759	0.6909	0.001
Mof_C 	C 	0.4737	0.7296	0.7054	-0.022
Mof_C 	C 	0.3596	0.7192	0.7988	0.005
Mof_C 	C 	0.3357	0.6869	0.802	-0.025
Mof_C 	C 	0.2962	0.6897	0.801	0.002
Mof_C 	C 	0.2847	0.7253	0.7955	-0.007
Mof_C 	C 	0.3083	0.753	0.7859	-0.001
Mof_C 	C 	0.3445	0.7568	0.7897	-0.006
Mof_C 	C 	0.3878	0.5259	0.8809	0.003
Mof_C 	C 	0.3566	0.5149	0.8695	-0.031
Mof_C 	C 	0.4066	0.6288	0.893	-0.016
Mof_C 	C 	0.5642	0.5978	0.8798	-0.002
Mof_C 	C 	0.6015	0.5722	0.8805	-0.024
Mof_C 	C 	0.5185	0.7308	0.834	0.009
Mof_C 	C 	0.5109	0.7346	0.8086	-0.03
Mof_C 	C 	0.525	0.7652	0.7953	0.007
Mof_C 	C 	0.5468	0.792	0.8076	-0.005
Mof_C 	C 	0.5545	0.7882	0.8331	0.002
Mof_C 	C 	0.5403	0.7576	0.8463	-0.01
Mof_Cd	Cd	0.8013	0.92188	0.14955	0.282
Mof_Cd	Cd	0.87491	0.00872	0.159	0.268
Mof_Cd	Cd	0.91057	0.89378	0.16931	0.267
Mof_Cd	Cd	0.83198	0.94427	0.221	0.261
Mof_Cd	Cd	0.02202	0.93993	0.16386	0.247
Mof_Cd	Cd	0.9005	0.08828	0.21577	0.245
Mof_Cd	Cd	0.94645	0.97781	0.2191	0.205
Mof_Cd	Cd	0.86911	0.01039	0.27757	0.244
Mof_Cd	Cd	0.99495	0.86624	0.21666	0.242
Mof_Cd	Cd	0.90721	0.90408	0.27512	0.243
Mof_Cd	Cd	0.07137	0.83888	0.27146	0.265
Mof_Cd	Cd	0.02035	0.94573	0.27322	0.207
Mof_Cd	Cd	0.09056	0.91457	0.3327	0.263
Mof_Cd	Cd	0.05828	0.02514	0.32958	0.246
Mof_Cd	Cd	0.98139	0.86516	0.32646	0.263
Mof_Cd	Cd	0.07362	0.80295	0.34567	0.284
Mof_Se	Se	0.88955	0.95578	0.19187	-0.204
Mof_Se	Se	0.92173	0.03367	0.24628	-0.215
Mof_Se	Se	0.96562	0.91911	0.24568	-0.214
Mof_Se	Se	0.04051	0.88865	0.30112	-0.2
Mof_Se	Se	0.04958	0.88225	0.18644	-0.137
Mof_Se	Se	0.88198	0.95374	0.30631	-0.148
Mof_S 	S 	0.1033	0.7484	0.3694	-0.112
Mof_S 	S 	0.8223	0.9834	0.13132	-0.125
Mof_S 	S 	0.8529	0.873	0.14607	-0.124
Mof_S 	S 	0.7754	0.926	0.19362	-0.129
Mof_S 	S 	0.0695	0.9718	0.13353	-0.125
Mof_S 	S 	0.8474	0.0565	0.18987	-0.134
Mof_S 	S 	0.9611	0.9221	0.14053	-0.134
Mof_S 	S 	0.8122	0.9972	0.24889	-0.135
Mof_S 	S 	0.9401	0.8399	0.191	-0.13
Mof_S 	S 	0.8588	0.8856	0.24213	-0.143
Mof_S 	S 	0.1264	0.8632	0.24725	-0.128
Mof_S 	S 	0.1428	0.9267	0.30064	-0.136
Mof_S 	S 	0.0134	0.8142	0.24757	-0.125
Mof_S 	S 	0.9301	0.8448	0.29813	-0.132
Mof_S 	S 	0.0885	0.7846	0.30081	-0.114
Mof_S 	S 	0.0684	0.9687	0.3592	-0.128
Mof_S 	S 	0.1095	0.8595	0.35956	-0.123
Mof_S 	S 	0.9694	0.9193	0.35512	-0.136
Mof_S 	S 	0.0031	0.8077	0.35189	-0.12
Mof_C 	C 	0.8399	0.9663	0.1029	0.016
Mof_C 	C 	0.8109	0.9605	0.0846	-0.02
Mof_C 	C 	0.8252	0.9445	0.061	0.001
Mof_C 	C 	0.8686	0.9349	0.056	-0.005
Mof_C 	C 	0.8908	0.943	0.0771	0.006
Mof_C 	C 	0.8768	0.9553	0.1027	-0.033
Mof_C 	C 	0.0902	0.9351	0.1138	0.01
Mof_C 	C 	0.0912	0.942	0.0881	-0.007
Mof_C 	C 	0.1081	0.9162	0.0721	0.002
Mof_C 	C 	0.1239	0.8835	0.0817	-0.005
Mof_C 	C 	0.123	0.8766	0.1074	0.005
Mof_C 	C 	0.1061	0.9024	0.1234	-0.029
Mof_C 	C 	0.8228	0.0889	0.1714	0.019
Mof_C 	C 	0.834	0.1295	0.1771	-0.024
Mof_C 	C 	0.808	0.1609	0.1614	0.001
Mof_C 	C 	0.78	0.1482	0.1453	-0.007
Mof_C 	C 	0.7739	0.0987	0.1487	0.005
Mof_C 	C 	0.7954	0.0758	0.1569	-0.023
Mof_C 	C 	0.9731	0.8872	0.1205	0.018
Mof_C 	C 	0.0098	0.8749	0.1168	-0.028
Mof_C 	C 	0.0182	0.851	0.0969	0.008
Mof_C 	C 	0.9899	0.8394	0.0807	-0.009
Mof_C 	C 	0.9531	0.8517	0.0844	0.004
Mof_C 	C 	0.9448	0.8756	0.1042	-0.019
Mof_C 	C 	0.1481	0.8239	0.2318	0.01
Mof_C 	C 	0.1305	0.8033	0.2156	-0.025
Mof_C 	C 	0.0304	0.7733	0.2327	0.013
Mof_C 	C 	0.0425	0.7446	0.2482	-0.014
Mof_C 	C 	0.0574	0.7108	0.2355	0.002
Mof_C 	C 	0.0519	0.7125	0.2079	-0.003
Mof_C 	C 	0.0432	0.741	0.1909	0.001
Mof_C 	C 	0.0263	0.7704	0.2054	-0.021
Mof_C 	C 	0.1404	0.7808	0.2988	0.005
Mof_C 	C 	0.1643	0.8131	0.302	-0.025
Mof_C 	C 	0.2038	0.8103	0.301	0.002
Mof_C 	C 	0.2153	0.7747	0.2955	-0.007
Mof_C 	C 	0.1917	0.747	0.2859	-0.001
Mof_C 	C 	0.1555	0.7432	0.2897	-0.006
Mof_C 	C 	0.1122	0.9741	0.3809	0.003
Mof_C 	C 	0.1434	0.9851	0.3695	-0.032
Mof_C 	C 	0.0934	0.8712	0.393	-0.016
Mof_C 	C 	0.9358	0.9022	0.3798	-0.003
Mof_C 	C 	0.8985	0.9278	0.3805	-0.024
Mof_C 	C 	0.9815	0.7692	0.334	0.008
Mof_C 	C 	0.9891	0.7654	0.3086	-0.031
Mof_C 	C 	0.975	0.7348	0.2953	0.007
Mof_C 	C 	0.9532	0.708	0.3076	-0.005
Mof_C 	C 	0.9455	0.7118	0.3331	0.002
Mof_C 	C 	0.9597	0.7424	0.3463	-0.01
Mof_Cd	Cd	0.3013	0.42188	0.64955	0.282
Mof_Cd	Cd	0.37491	0.50872	0.659	0.267
Mof_Cd	Cd	0.41057	0.39378	0.66931	0.267
Mof_Cd	Cd	0.33198	0.44427	0.721	0.261
Mof_Cd	Cd	0.52202	0.43993	0.66386	0.246
Mof_Cd	Cd	0.4005	0.58828	0.71577	0.245
Mof_Cd	Cd	0.44645	0.47781	0.7191	0.208
Mof_Cd	Cd	0.36911	0.51039	0.77757	0.243
Mof_Cd	Cd	0.49495	0.36624	0.71666	0.244
Mof_Cd	Cd	0.40721	0.40408	0.77512	0.243
Mof_Cd	Cd	0.57137	0.33888	0.77146	0.265
Mof_Cd	Cd	0.52035	0.44573	0.77322	0.207
Mof_Cd	Cd	0.59056	0.41457	0.8327	0.263
Mof_Cd	Cd	0.55828	0.52514	0.82958	0.245
Mof_Cd	Cd	0.48139	0.36516	0.82646	0.265
Mof_Cd	Cd	0.57362	0.30295	0.84567	0.284
Mof_Se	Se	0.38955	0.45578	0.69187	-0.203
Mof_Se	Se	0.42173	0.53367	0.74628	-0.216
Mof_Se	Se	0.46562	0.41911	0.74568	-0.213
Mof_Se	Se	0.54051	0.38865	0.80112	-0.201
Mof_Se	Se	0.54958	0.38225	0.68644	-0.138
Mof_Se	Se	0.38198	0.45374	0.80631	-0.147
Mof_S 	S 	0.6033	0.2484	0.8694	-0.112
Mof_S 	S 	0.3223	0.4834	0.63132	-0.123
Mof_S 	S 	0.3529	0.373	0.64607	-0.124
Mof_S 	S 	0.2754	0.426	0.69362	-0.128
Mof_S 	S 	0.5695	0.4718	0.63353	-0.124
Mof_S 	S 	0.3474	0.5565	0.68987	-0.135
Mof_S 	S 	0.4611	0.4221	0.64053	-0.133
Mof_S 	S 	0.3122	0.4972	0.74889	-0.133
Mof_S 	S 	0.4401	0.3399	0.691	-0.129
Mof_S 	S 	0.3588	0.3856	0.74213	-0.143
Mof_S 	S 	0.6264	0.3632	0.74725	-0.128
Mof_S 	S 	0.6428	0.4267	0.80064	-0.135
Mof_S 	S 	0.5134	0.3142	0.74757	-0.127
Mof_S 	S 	0.4301	0.3448	0.79813	-0.132
Mof_S 	S 	0.5885	0.2846	0.80081	-0.114
Mof_S 	S 	0.5684	0.4687	0.8592	-0.128
Mof_S 	S 	0.6095	0.3595	0.85956	-0.123
Mof_S 	S 	0.4694	0.4193	0.85512	-0.135
Mof_S 	S 	0.5031	0.3077	0.85189	-0.123
Mof_C 	C 	0.3399	0.4663	0.6029	0.016
Mof_C 	C 	0.3109	0.4605	0.5846	-0.019
Mof_C 	C 	0.3252	0.4445	0.561	0.002
Mof_C 	C 	0.3686	0.4349	0.556	-0.005
Mof_C 	C 	0.3908	0.443	0.5771	0.006
Mof_C 	C 	0.3768	0.4553	0.6027	-0.032
Mof_C 	C 	0.5902	0.4351	0.6138	0.01
Mof_C 	C 	0.5912	0.442	0.5881	-0.006
Mof_C 	C 	0.6081	0.4162	0.5721	0.002
Mof_C 	C 	0.6239	0.3835	0.5817	-0.005
Mof_C 	C 	0.623	0.3766	0.6074	0.005
Mof_C 	C 	0.6061	0.4024	0.6234	-0.029
Mof_C 	C 	0.3228	0.5889	0.6714	0.019
Mof_C 	C 	0.334	0.6295	0.6771	-0.024
Mof_C 	C 	0.308	0.6609	0.6614	0.001
Mof_C 	C 	0.28	0.6482	0.6453	-0.007
Mof_C 	C 	0.2739	0.5987	0.6487	0.005
Mof_C 	C 	0.2954	0.5758	0.6569	-0.024
Mof_C 	C 	0.4731	0.3872	0.6205	0.02
Mof_C 	C 	0.5098	0.3749	0.6168	-0.029
Mof_C 	C 	0.5182	0.351	0.5969	0.007
Mof_C 	C 	0.4899	0.3394	0.5807	-0.006
Mof_C 	C 	0.4531	0.3517	0.5844	0.004
Mof_C 	C 	0.4448	0.3756	0.6042	-0.019
Mof_C 	C 	0.6481	0.3239	0.7318	0.01
Mof_C 	C 	0.6305	0.3033	0.7156	-0.025
Mof_C 	C 	0.5304	0.2733	0.7327	0.014
Mof_C 	C 	0.5425	0.2446	0.7482	-0.014
Mof_C 	C 	0.5574	0.2108	0.7355	0.002
Mof_C 	C 	0.5519	0.2125	0.7079	-0.003
Mof_C 	C 	0.5432	0.241	0.6909	0.001
Mof_C 	C 	0.5263	0.2704	0.7054	-0.022
Mof_C 	C 	0.6404	0.2808	0.7988	0.005
Mof_C 	C 	0.6643	0.3131	0.802	-0.025
Mof_C 	C 	0.7038	0.3103	0.801	0.002
Mof_C 	C 	0.7153	0.2747	0.7955	-0.007
Mof_C 	C 	0.6917	0.247	0.7859	-0
Mof_C 	C 	0.6555	0.2432	0.7897	-0.006
Mof_C 	C 	0.6122	0.4741	0.8809	0.003
Mof_C 	C 	0.6434	0.4851	0.8695	-0.031
Mof_C 	C 	0.5934	0.3712	0.893	-0.016
Mof_C 	C 	0.4358	0.4022	0.8798	-0.003
Mof_C 	C 	0.3985	0.4278	0.8805	-0.024
Mof_C 	C 	0.4815	0.2692	0.834	0.009
Mof_C 	C 	0.4891	0.2654	0.8086	-0.03
Mof_C 	C 	0.475	0.2348	0.7953	0.007
Mof_C 	C 	0.4532	0.208	0.8076	-0.005
Mof_C 	C 	0.4455	0.2118	0.8331	0.002
Mof_C 	C 	0.4597	0.2424	0.8463	-0.01
Mof_Cd	Cd	0.42188	0.8013	0.89955	0.282
Mof_Cd	Cd	0.50872	0.87491	0.909	0.267
Mof_Cd	Cd	0.39378	0.91057	0.91931	0.267
Mof_Cd	Cd	0.44427	0.83198	0.971	0.261
Mof_Cd	Cd	0.43993	0.02202	0.91386	0.247
Mof_Cd	Cd	0.58828	0.9005	0.96577	0.245
Mof_Cd	Cd	0.47781	0.94645	0.9691	0.207
Mof_Cd	Cd	0.51039	0.86911	0.02757	0.243
Mof_Cd	Cd	0.36624	0.99495	0.96666	0.242
Mof_Cd	Cd	0.40408	0.90721	0.02512	0.243
Mof_Cd	Cd	0.33888	0.07137	0.02146	0.265
Mof_Cd	Cd	0.44573	0.02035	0.02322	0.208
Mof_Cd	Cd	0.41457	0.09056	0.0827	0.263
Mof_Cd	Cd	0.52514	0.05828	0.07958	0.245
Mof_Cd	Cd	0.36516	0.98139	0.07646	0.263
Mof_Cd	Cd	0.30295	0.07362	0.09567	0.284
Mof_Se	Se	0.45578	0.88955	0.94187	-0.203
Mof_Se	Se	0.53367	0.92173	0.99628	-0.216
Mof_Se	Se	0.41911	0.96562	0.99568	-0.214
Mof_Se	Se	0.38865	0.04051	0.05112	-0.2
Mof_Se	Se	0.38225	0.04958	0.93644	-0.137
Mof_Se	Se	0.45374	0.88198	0.05631	-0.147
Mof_S 	S 	0.2484	0.1033	0.1194	-0.112
Mof_S 	S 	0.4834	0.8223	0.88132	-0.123
Mof_S 	S 	0.373	0.8529	0.89607	-0.125
Mof_S 	S 	0.426	0.7754	0.94362	-0.128
Mof_S 	S 	0.4718	0.0695	0.88353	-0.124
Mof_S 	S 	0.5565	0.8474	0.93987	-0.135
Mof_S 	S 	0.4221	0.9611	0.89053	-0.134
Mof_S 	S 	0.4972	0.8122	0.99889	-0.133
Mof_S 	S 	0.3399	0.9401	0.941	-0.13
Mof_S 	S 	0.3856	0.8588	0.99213	-0.143
Mof_S 	S 	0.3632	0.1264	0.99725	-0.128
Mof_S 	S 	0.4267	0.1428	0.05064	-0.135
Mof_S 	S 	0.3142	0.0134	0.99757	-0.125
Mof_S 	S 	0.3448	0.9301	0.04813	-0.132
Mof_S 	S 	0.2846	0.0885	0.05081	-0.114
Mof_S 	S 	0.4687	0.0684	0.1092	-0.127
Mof_S 	S 	0.3595	0.1095	0.10956	-0.123
Mof_S 	S 	0.4193	0.9694	0.10512	-0.136
Mof_S 	S 	0.3077	0.0031	0.10189	-0.12
Mof_C 	C 	0.4663	0.8399	0.8529	0.016
Mof_C 	C 	0.4605	0.8109	0.8346	-0.019
Mof_C 	C 	0.4445	0.8252	0.811	0.002
Mof_C 	C 	0.4349	0.8686	0.806	-0.005
Mof_C 	C 	0.443	0.8908	0.8271	0.006
Mof_C 	C 	0.4553	0.8768	0.8527	-0.032
Mof_C 	C 	0.4351	0.0902	0.8638	0.009
Mof_C 	C 	0.442	0.0912	0.8381	-0.006
Mof_C 	C 	0.4162	0.1081	0.8221	0.002
Mof_C 	C 	0.3835	0.1239	0.8317	-0.005
Mof_C 	C 	0.3766	0.123	0.8574	0.005
Mof_C 	C 	0.4024	0.1061	0.8734	-0.029
Mof_C 	C 	0.5889	0.8228	0.9214	0.019
Mof_C 	C 	0.6295	0.834	0.9271	-0.024
Mof_C 	C 	0.6609	0.808	0.9114	0.001
Mof_C 	C 	0.6482	0.78	0.8953	-0.007
Mof_C 	C 	0.5987	0.7739	0.8987	0.004
Mof_C 	C 	0.5758	0.7954	0.9069	-0.024
Mof_C 	C 	0.3872	0.9731	0.8705	0.018
Mof_C 	C 	0.3749	0.0098	0.8668	-0.028
Mof_C 	C 	0.351	0.0182	0.8469	0.008
Mof_C 	C 	0.3394	0.9899	0.8307	-0.009
Mof_C 	C 	0.3517	0.9531	0.8344	0.004
Mof_C 	C 	0.3756	0.9448	0.8542	-0.019
Mof_C 	C 	0.3239	0.1481	0.9818	0.01
Mof_C 	C 	0.3033	0.1305	0.9656	-0.025
Mof_C 	C 	0.2733	0.0304	0.9827	0.013
Mof_C 	C 	0.2446	0.0425	0.9982	-0.014
Mof_C 	C 	0.2108	0.0574	0.9855	0.002
Mof_C 	C 	0.2125	0.0519	0.9579	-0.003
Mof_C 	C 	0.241	0.0432	0.9409	0.001
Mof_C 	C 	0.2704	0.0263	0.9554	-0.021
Mof_C 	C 	0.2808	0.1404	0.0488	0.005
Mof_C 	C 	0.3131	0.1643	0.052	-0.025
Mof_C 	C 	0.3103	0.2038	0.051	0.002
Mof_C 	C 	0.2747	0.2153	0.0455	-0.007
Mof_C 	C 	0.247	0.1917	0.0359	-0
Mof_C 	C 	0.2432	0.1555	0.0397	-0.006
Mof_C 	C 	0.4741	0.1122	0.1309	0.003
Mof_C 	C 	0.4851	0.1434	0.1195	-0.031
Mof_C 	C 	0.3712	0.0934	0.143	-0.016
Mof_C 	C 	0.4022	0.9358	0.1298	-0.003
Mof_C 	C 	0.4278	0.8985	0.1305	-0.024
Mof_C 	C 	0.2692	0.9815	0.084	0.008
Mof_C 	C 	0.2654	0.9891	0.0586	-0.031
Mof_C 	C 	0.2348	0.975	0.0453	0.007
Mof_C 	C 	0.208	0.9532	0.0576	-0.005
Mof_C 	C 	0.2118	0.9455	0.0831	0.002
Mof_C 	C 	0.2424	0.9597	0.0963	-0.01
Mof_Cd	Cd	0.92188	0.3013	0.39955	0.282
Mof_Cd	Cd	0.00872	0.37491	0.409	0.268
Mof_Cd	Cd	0.89378	0.41057	0.41931	0.267
Mof_Cd	Cd	0.94427	0.33198	0.471	0.261
Mof_Cd	Cd	0.93993	0.52202	0.41386	0.246
Mof_Cd	Cd	0.08828	0.4005	0.46577	0.245
Mof_Cd	Cd	0.97781	0.44645	0.4691	0.206
Mof_Cd	Cd	0.01039	0.36911	0.52757	0.245
Mof_Cd	Cd	0.86624	0.49495	0.46666	0.244
Mof_Cd	Cd	0.90408	0.40721	0.52512	0.243
Mof_Cd	Cd	0.83888	0.57137	0.52146	0.265
Mof_Cd	Cd	0.94573	0.52035	0.52322	0.206
Mof_Cd	Cd	0.91457	0.59056	0.5827	0.263
Mof_Cd	Cd	0.02514	0.55828	0.57958	0.246
Mof_Cd	Cd	0.86516	0.48139	0.57646	0.265
Mof_Cd	Cd	0.80295	0.57362	0.59567	0.284
Mof_Se	Se	0.95578	0.38955	0.44187	-0.204
Mof_Se	Se	0.03367	0.42173	0.49628	-0.214
Mof_Se	Se	0.91911	0.46562	0.49568	-0.213
Mof_Se	Se	0.88865	0.54051	0.55112	-0.201
Mof_Se	Se	0.88225	0.54958	0.43644	-0.138
Mof_Se	Se	0.95374	0.38198	0.55631	-0.148
Mof_S 	S 	0.7484	0.6033	0.6194	-0.112
Mof_S 	S 	0.9834	0.3223	0.38132	-0.125
Mof_S 	S 	0.873	0.3529	0.39607	-0.124
Mof_S 	S 	0.926	0.2754	0.44362	-0.129
Mof_S 	S 	0.9718	0.5695	0.38353	-0.125
Mof_S 	S 	0.0565	0.3474	0.43987	-0.134
Mof_S 	S 	0.9221	0.4611	0.39053	-0.133
Mof_S 	S 	0.9972	0.3122	0.49889	-0.135
Mof_S 	S 	0.8399	0.4401	0.441	-0.129
Mof_S 	S 	0.8856	0.3588	0.49213	-0.143
Mof_S 	S 	0.8632	0.6264	0.49725	-0.128
Mof_S 	S 	0.9267	0.6428	0.55064	-0.135
Mof_S 	S 	0.8142	0.5134	0.49757	-0.127
Mof_S 	S 	0.8448	0.4301	0.54813	-0.132
Mof_S 	S 	0.7846	0.5885	0.55081	-0.114
Mof_S 	S 	0.9687	0.5684	0.6092	-0.129
Mof_S 	S 	0.8595	0.6095	0.60956	-0.123
Mof_S 	S 	0.9193	0.4694	0.60512	-0.135
Mof_S 	S 	0.8077	0.5031	0.60189	-0.123
Mof_C 	C 	0.9663	0.3399	0.3529	0.016
Mof_C 	C 	0.9605	0.3109	0.3346	-0.02
Mof_C 	C 	0.9445	0.3252	0.311	0.002
Mof_C 	C 	0.9349	0.3686	0.306	-0.005
Mof_C 	C 	0.943	0.3908	0.3271	0.006
Mof_C 	C 	0.9553	0.3768	0.3527	-0.032
Mof_C 	C 	0.9351	0.5902	0.3638	0.01
Mof_C 	C 	0.942	0.5912	0.3381	-0.007
Mof_C 	C 	0.9162	0.6081	0.3221	0.002
Mof_C 	C 	0.8835	0.6239	0.3317	-0.005
Mof_C 	C 	0.8766	0.623	0.3574	0.005
Mof_C 	C 	0.9024	0.6061	0.3734	-0.029
Mof_C 	C 	0.0889	0.3228	0.4214	0.019
Mof_C 	C 	0.1295	0.334	0.4271	-0.024
Mof_C 	C 	0.1609	0.308	0.4114	0.001
Mof_C 	C 	0.1482	0.28	0.3953	-0.007
Mof_C 	C 	0.0987	0.2739	0.3987	0.005
Mof_C 	C 	0.0758	0.2954	0.4069	-0.023
Mof_C 	C 	0.8872	0.4731	0.3705	0.02
Mof_C 	C 	0.8749	0.5098	0.3668	-0.03
Mof_C 	C 	0.851	0.5182	0.3469	0.007
Mof_C 	C 	0.8394	0.4899	0.3307	-0.006
Mof_C 	C 	0.8517	0.4531	0.3344	0.004
Mof_C 	C 	0.8756	0.4448	0.3542	-0.019
Mof_C 	C 	0.8239	0.6481	0.4818	0.01
Mof_C 	C 	0.8033	0.6305	0.4656	-0.025
Mof_C 	C 	0.7733	0.5304	0.4827	0.014
Mof_C 	C 	0.7446	0.5425	0.4982	-0.014
Mof_C 	C 	0.7108	0.5574	0.4855	0.002
Mof_C 	C 	0.7125	0.5519	0.4579	-0.003
Mof_C 	C 	0.741	0.5432	0.4409	0.001
Mof_C 	C 	0.7704	0.5263	0.4554	-0.022
Mof_C 	C 	0.7808	0.6404	0.5488	0.005
Mof_C 	C 	0.8131	0.6643	0.552	-0.025
Mof_C 	C 	0.8103	0.7038	0.551	0.002
Mof_C 	C 	0.7747	0.7153	0.5455	-0.007
Mof_C 	C 	0.747	0.6917	0.5359	-0.001
Mof_C 	C 	0.7432	0.6555	0.5397	-0.006
Mof_C 	C 	0.9741	0.6122	0.6309	0.003
Mof_C 	C 	0.9851	0.6434	0.6195	-0.032
Mof_C 	C 	0.8712	0.5934	0.643	-0.016
Mof_C 	C 	0.9022	0.4358	0.6298	-0.003
Mof_C 	C 	0.9278	0.3985	0.6305	-0.024
Mof_C 	C 	0.7692	0.4815	0.584	0.009
Mof_C 	C 	0.7654	0.4891	0.5586	-0.03
Mof_C 	C 	0.7348	0.475	0.5453	0.007
Mof_C 	C 	0.708	0.4532	0.5576	-0.005
Mof_C 	C 	0.7118	0.4455	0.5831	0.002
Mof_C 	C 	0.7424	0.4597	0.5963	-0.01
Mof_Cd	Cd	0.57812	0.1987	0.89955	0.282
Mof_Cd	Cd	0.49128	0.12509	0.909	0.266
Mof_Cd	Cd	0.60622	0.08943	0.91931	0.267
Mof_Cd	Cd	0.55573	0.16802	0.971	0.261
Mof_Cd	Cd	0.56007	0.97798	0.91386	0.245
Mof_Cd	Cd	0.41172	0.0995	0.96577	0.245
Mof_Cd	Cd	0.52219	0.05355	0.9691	0.208
Mof_Cd	Cd	0.48961	0.13089	0.02757	0.242
Mof_Cd	Cd	0.63376	0.00505	0.96666	0.246
Mof_Cd	Cd	0.59592	0.09279	0.02512	0.243
Mof_Cd	Cd	0.66112	0.92863	0.02146	0.265
Mof_Cd	Cd	0.55427	0.97965	0.02322	0.205
Mof_Cd	Cd	0.58543	0.90944	0.0827	0.263
Mof_Cd	Cd	0.47486	0.94172	0.07958	0.244
Mof_Cd	Cd	0.63484	0.01861	0.07646	0.267
Mof_Cd	Cd	0.69705	0.92638	0.09567	0.284
Mof_Se	Se	0.54422	0.11045	0.94187	-0.203
Mof_Se	Se	0.46633	0.07827	0.99628	-0.215
Mof_Se	Se	0.58089	0.03438	0.99568	-0.211
Mof_Se	Se	0.61135	0.95949	0.05112	-0.203
Mof_Se	Se	0.61775	0.95042	0.93644	-0.139
Mof_Se	Se	0.54626	0.11802	0.05631	-0.147
Mof_S 	S 	0.7516	0.8967	0.1194	-0.112
Mof_S 	S 	0.5166	0.1777	0.88132	-0.123
Mof_S 	S 	0.627	0.1471	0.89607	-0.124
Mof_S 	S 	0.574	0.2246	0.94362	-0.128
Mof_S 	S 	0.5282	0.9305	0.88353	-0.124
Mof_S 	S 	0.4435	0.1526	0.93987	-0.135
Mof_S 	S 	0.5779	0.0389	0.89053	-0.132
Mof_S 	S 	0.5028	0.1878	0.99889	-0.133
Mof_S 	S 	0.6601	0.0599	0.941	-0.129
Mof_S 	S 	0.6144	0.1412	0.99213	-0.143
Mof_S 	S 	0.6368	0.8736	0.99725	-0.128
Mof_S 	S 	0.5733	0.8572	0.05064	-0.135
Mof_S 	S 	0.6858	0.9866	0.99757	-0.129
Mof_S 	S 	0.6552	0.0699	0.04813	-0.131
Mof_S 	S 	0.7154	0.9115	0.05081	-0.115
Mof_S 	S 	0.5313	0.9316	0.1092	-0.128
Mof_S 	S 	0.6405	0.8905	0.10956	-0.123
Mof_S 	S 	0.5807	0.0306	0.10512	-0.134
Mof_S 	S 	0.6923	0.9969	0.10189	-0.126
Mof_C 	C 	0.5337	0.1601	0.8529	0.016
Mof_C 	C 	0.5395	0.1891	0.8346	-0.019
Mof_C 	C 	0.5555	0.1748	0.811	0.002
Mof_C 	C 	0.5651	0.1314	0.806	-0.004
Mof_C 	C 	0.557	0.1092	0.8271	0.006
Mof_C 	C 	0.5447	0.1232	0.8527	-0.032
Mof_C 	C 	0.5649	0.9098	0.8638	0.01
Mof_C 	C 	0.558	0.9088	0.8381	-0.007
Mof_C 	C 	0.5838	0.8919	0.8221	0.002
Mof_C 	C 	0.6165	0.8761	0.8317	-0.005
Mof_C 	C 	0.6234	0.877	0.8574	0.005
Mof_C 	C 	0.5976	0.8939	0.8734	-0.029
Mof_C 	C 	0.4111	0.1772	0.9214	0.019
Mof_C 	C 	0.3705	0.166	0.9271	-0.024
Mof_C 	C 	0.3391	0.192	0.9114	0.001
Mof_C 	C 	0.3518	0.22	0.8953	-0.007
Mof_C 	C 	0.4013	0.2261	0.8987	0.004
Mof_C 	C 	0.4242	0.2046	0.9069	-0.024
Mof_C 	C 	0.6128	0.0269	0.8705	0.022
Mof_C 	C 	0.6251	0.9902	0.8668	-0.031
Mof_C 	C 	0.649	0.9818	0.8469	0.005
Mof_C 	C 	0.6606	0.0101	0.8307	-0.004
Mof_C 	C 	0.6483	0.0469	0.8344	0.004
Mof_C 	C 	0.6244	0.0552	0.8542	-0.019
Mof_C 	C 	0.6761	0.8519	0.9818	0.011
Mof_C 	C 	0.6967	0.8695	0.9656	-0.025
Mof_C 	C 	0.7267	0.9696	0.9827	0.014
Mof_C 	C 	0.7554	0.9575	0.9982	-0.015
Mof_C 	C 	0.7892	0.9426	0.9855	0.002
Mof_C 	C 	0.7875	0.9481	0.9579	-0.003
Mof_C 	C 	0.759	0.9568	0.9409	0.001
Mof_C 	C 	0.7296	0.9737	0.9554	-0.023
Mof_C 	C 	0.7192	0.8596	0.0488	0.005
Mof_C 	C 	0.6869	0.8357	0.052	-0.025
Mof_C 	C 	0.6897	0.7962	0.051	0.002
Mof_C 	C 	0.7253	0.7847	0.0455	-0.007
Mof_C 	C 	0.753	0.8083	0.0359	-0.001
Mof_C 	C 	0.7568	0.8445	0.0397	-0.006
Mof_C 	C 	0.5259	0.8878	0.1309	0.003
Mof_C 	C 	0.5149	0.8566	0.1195	-0.031
Mof_C 	C 	0.6288	0.9066	0.143	-0.017
Mof_C 	C 	0.5978	0.0642	0.1298	-0.002
Mof_C 	C 	0.5722	0.1015	0.1305	-0.023
Mof_C 	C 	0.7308	0.0185	0.084	0.011
Mof_C 	C 	0.7346	0.0109	0.0586	-0.029
Mof_C 	C 	0.7652	0.025	0.0453	0.008
Mof_C 	C 	0.792	0.0468	0.0576	-0.004
Mof_C 	C 	0.7882	0.0545	0.0831	0.002
Mof_C 	C 	0.7576	0.0403	0.0963	-0.01
Mof_Cd	Cd	0.07812	0.6987	0.39955	0.283
Mof_Cd	Cd	0.99128	0.62509	0.409	0.265
Mof_Cd	Cd	0.10622	0.58943	0.41931	0.267
Mof_Cd	Cd	0.05573	0.66802	0.471	0.261
Mof_Cd	Cd	0.06007	0.47798	0.41386	0.246
Mof_Cd	Cd	0.91172	0.5995	0.46577	0.245
Mof_Cd	Cd	0.02219	0.55355	0.4691	0.209
Mof_Cd	Cd	0.98961	0.63089	0.52757	0.241
Mof_Cd	Cd	0.13376	0.50505	0.46666	0.244
Mof_Cd	Cd	0.09592	0.59279	0.52512	0.243
Mof_Cd	Cd	0.16112	0.42863	0.52146	0.265
Mof_Cd	Cd	0.05427	0.47965	0.52322	0.207
Mof_Cd	Cd	0.08543	0.40944	0.5827	0.263
Mof_Cd	Cd	0.97486	0.44172	0.57958	0.243
Mof_Cd	Cd	0.13484	0.51861	0.57646	0.265
Mof_Cd	Cd	0.19705	0.42638	0.59567	0.284
Mof_Se	Se	0.04422	0.61045	0.44187	-0.201
Mof_Se	Se	0.96633	0.57827	0.49628	-0.217
Mof_Se	Se	0.08089	0.53438	0.49568	-0.213
Mof_Se	Se	0.11135	0.45949	0.55112	-0.201
Mof_Se	Se	0.11775	0.45042	0.43644	-0.138
Mof_Se	Se	0.04626	0.61802	0.55631	-0.145
Mof_S 	S 	0.2516	0.3967	0.6194	-0.112
Mof_S 	S 	0.0166	0.6777	0.38132	-0.121
Mof_S 	S 	0.127	0.6471	0.39607	-0.124
Mof_S 	S 	0.074	0.7246	0.44362	-0.128
Mof_S 	S 	0.0282	0.4305	0.38353	-0.123
Mof_S 	S 	0.9435	0.6526	0.43987	-0.136
Mof_S 	S 	0.0779	0.5389	0.39053	-0.132
Mof_S 	S 	0.0028	0.6878	0.49889	-0.131
Mof_S 	S 	0.1601	0.5599	0.441	-0.129
Mof_S 	S 	0.1144	0.6412	0.49213	-0.143
Mof_S 	S 	0.1368	0.3736	0.49725	-0.128
Mof_S 	S 	0.0733	0.3572	0.55064	-0.135
Mof_S 	S 	0.1858	0.4866	0.49757	-0.127
Mof_S 	S 	0.1552	0.5699	0.54813	-0.132
Mof_S 	S 	0.2154	0.4115	0.55081	-0.114
Mof_S 	S 	0.0313	0.4316	0.6092	-0.126
Mof_S 	S 	0.1405	0.3905	0.60956	-0.123
Mof_S 	S 	0.0807	0.5306	0.60512	-0.134
Mof_S 	S 	0.1923	0.4969	0.60189	-0.123
Mof_C 	C 	0.0337	0.6601	0.3529	0.016
Mof_C 	C 	0.0395	0.6891	0.3346	-0.018
Mof_C 	C 	0.0555	0.6748	0.311	0.002
Mof_C 	C 	0.0651	0.6314	0.306	-0.004
Mof_C 	C 	0.057	0.6092	0.3271	0.006
Mof_C 	C 	0.0447	0.6232	0.3527	-0.031
Mof_C 	C 	0.0649	0.4098	0.3638	0.009
Mof_C 	C 	0.058	0.4088	0.3381	-0.006
Mof_C 	C 	0.0838	0.3919	0.3221	0.002
Mof_C 	C 	0.1165	0.3761	0.3317	-0.005
Mof_C 	C 	0.1234	0.377	0.3574	0.005
Mof_C 	C 	0.0976	0.3939	0.3734	-0.029
Mof_C 	C 	0.9111	0.6772	0.4214	0.019
Mof_C 	C 	0.8705	0.666	0.4271	-0.024
Mof_C 	C 	0.8391	0.692	0.4114	0.001
Mof_C 	C 	0.8518	0.72	0.3953	-0.007
Mof_C 	C 	0.9013	0.7261	0.3987	0.004
Mof_C 	C 	0.9242	0.7046	0.4069	-0.025
Mof_C 	C 	0.1128	0.5269	0.3705	0.02
Mof_C 	C 	0.1251	0.4902	0.3668	-0.029
Mof_C 	C 	0.149	0.4818	0.3469	0.007
Mof_C 	C 	0.1606	0.5101	0.3307	-0.006
Mof_C 	C 	0.1483	0.5469	0.3344	0.004
Mof_C 	C 	0.1244	0.5552	0.3542	-0.019
Mof_C 	C 	0.1761	0.3519	0.4818	0.011
Mof_C 	C 	0.1967	0.3695	0.4656	-0.025
Mof_C 	C 	0.2267	0.4696	0.4827	0.014
Mof_C 	C 	0.2554	0.4575	0.4982	-0.014
Mof_C 	C 	0.2892	0.4426	0.4855	0.002
Mof_C 	C 	0.2875	0.4481	0.4579	-0.003
Mof_C 	C 	0.259	0.4568	0.4409	0.001
Mof_C 	C 	0.2296	0.4737	0.4554	-0.022
Mof_C 	C 	0.2192	0.3596	0.5488	0.005
Mof_C 	C 	0.1869	0.3357	0.552	-0.025
Mof_C 	C 	0.1897	0.2962	0.551	0.002
Mof_C 	C 	0.2253	0.2847	0.5455	-0.007
Mof_C 	C 	0.253	0.3083	0.5359	-0
Mof_C 	C 	0.2568	0.3445	0.5397	-0.006
Mof_C 	C 	0.0259	0.3878	0.6309	0.003
Mof_C 	C 	0.0149	0.3566	0.6195	-0.03
Mof_C 	C 	0.1288	0.4066	0.643	-0.016
Mof_C 	C 	0.0978	0.5642	0.6298	-0.002
Mof_C 	C 	0.0722	0.6015	0.6305	-0.023
Mof_C 	C 	0.2308	0.5185	0.584	0.009
Mof_C 	C 	0.2346	0.5109	0.5586	-0.03
Mof_C 	C 	0.2652	0.525	0.5453	0.007
Mof_C 	C 	0.292	0.5468	0.5576	-0.005
Mof_C 	C 	0.2882	0.5545	0.5831	0.002
Mof_C 	C 	0.2576	0.5403	0.5963	-0.01
Mof_Se	Se	4.06516e-33	0	0.18918	-0.208
Mof_Se	Se	7.70894e-33	0	0.30337	-0.21
Mof_Se	Se	0.5	0.5	0.68918	-0.213
Mof_Se	Se	0.5	0.5	0.80337	-0.215
Mof_Se	Se	0.5	0	0.93918	-0.211
Mof_Se	Se	0.5	0	0.05337	-0.212
Mof_Se	Se	-3.53648e-33	0.5	0.43918	-0.211
Mof_Se	Se	3.10944e-33	0.5	0.55337	-0.212
Mof_Cd	Cd	0.07812	0.8013	0.85045	0.283
Mof_Cd	Cd	0.99128	0.87491	0.841	0.265
Mof_Cd	Cd	0.10622	0.91057	0.83069	0.267
Mof_Cd	Cd	0.05573	0.83198	0.779	0.261
Mof_Cd	Cd	0.06007	0.02202	0.83614	0.247
Mof_Cd	Cd	0.91172	0.9005	0.78423	0.245
Mof_Cd	Cd	0.02219	0.94645	0.7809	0.208
Mof_Cd	Cd	0.98961	0.86911	0.72243	0.241
Mof_Cd	Cd	0.13376	0.99495	0.78334	0.242
Mof_Cd	Cd	0.09592	0.90721	0.72488	0.243
Mof_Cd	Cd	0.16112	0.07137	0.72854	0.265
Mof_Cd	Cd	0.05427	0.02035	0.72678	0.208
Mof_Cd	Cd	0.08543	0.09056	0.6673	0.263
Mof_Cd	Cd	0.97486	0.05828	0.67042	0.243
Mof_Cd	Cd	0.13484	0.98139	0.67354	0.263
Mof_Cd	Cd	0.19705	0.07362	0.65433	0.284
Mof_Se	Se	0.04422	0.88955	0.80813	-0.201
Mof_Se	Se	0.96633	0.92173	0.75372	-0.217
Mof_Se	Se	0.08089	0.96562	0.75432	-0.214
Mof_Se	Se	0.11135	0.04051	0.69888	-0.2
Mof_Se	Se	0.11775	0.04958	0.81356	-0.137
Mof_Se	Se	0.04626	0.88198	0.69369	-0.145
Mof_S 	S 	0.2516	0.1033	0.6306	-0.112
Mof_S 	S 	0.0166	0.8223	0.86868	-0.121
Mof_S 	S 	0.127	0.8529	0.85393	-0.125
Mof_S 	S 	0.074	0.7754	0.80638	-0.128
Mof_S 	S 	0.0282	0.0695	0.86647	-0.122
Mof_S 	S 	0.9435	0.8474	0.81013	-0.136
Mof_S 	S 	0.0779	0.9611	0.85947	-0.133
Mof_S 	S 	0.0028	0.8122	0.75111	-0.131
Mof_S 	S 	0.1601	0.9401	0.809	-0.13
Mof_S 	S 	0.1144	0.8588	0.75787	-0.143
Mof_S 	S 	0.1368	0.1264	0.75275	-0.128
Mof_S 	S 	0.0733	0.1428	0.69936	-0.135
Mof_S 	S 	0.1858	0.0134	0.75243	-0.125
Mof_S 	S 	0.1552	0.9301	0.70187	-0.132
Mof_S 	S 	0.2154	0.0885	0.69919	-0.114
Mof_S 	S 	0.0313	0.0684	0.6408	-0.126
Mof_S 	S 	0.1405	0.1095	0.64044	-0.123
Mof_S 	S 	0.0807	0.9694	0.64488	-0.135
Mof_S 	S 	0.1923	0.0031	0.64811	-0.12
Mof_C 	C 	0.0337	0.8399	0.8971	0.016
Mof_C 	C 	0.0395	0.8109	0.9154	-0.018
Mof_C 	C 	0.0555	0.8252	0.939	0.002
Mof_C 	C 	0.0651	0.8686	0.944	-0.004
Mof_C 	C 	0.057	0.8908	0.9229	0.006
Mof_C 	C 	0.0447	0.8768	0.8973	-0.031
Mof_C 	C 	0.0649	0.0902	0.8862	0.009
Mof_C 	C 	0.058	0.0912	0.9119	-0.005
Mof_C 	C 	0.0838	0.1081	0.9279	0.003
Mof_C 	C 	0.1165	0.1239	0.9183	-0.005
Mof_C 	C 	0.1234	0.123	0.8926	0.005
Mof_C 	C 	0.0976	0.1061	0.8766	-0.029
Mof_C 	C 	0.9111	0.8228	0.8286	0.019
Mof_C 	C 	0.8705	0.834	0.8229	-0.024
Mof_C 	C 	0.8391	0.808	0.8386	0.001
Mof_C 	C 	0.8518	0.78	0.8547	-0.007
Mof_C 	C 	0.9013	0.7739	0.8513	0.004
Mof_C 	C 	0.9242	0.7954	0.8431	-0.025
Mof_C 	C 	0.1128	0.9731	0.8795	0.018
Mof_C 	C 	0.1251	0.0098	0.8832	-0.028
Mof_C 	C 	0.149	0.0182	0.9031	0.008
Mof_C 	C 	0.1606	0.9899	0.9193	-0.009
Mof_C 	C 	0.1483	0.9531	0.9156	0.004
Mof_C 	C 	0.1244	0.9448	0.8958	-0.018
Mof_C 	C 	0.1761	0.1481	0.7682	0.011
Mof_C 	C 	0.1967	0.1305	0.7844	-0.025
Mof_C 	C 	0.2267	0.0304	0.7673	0.013
Mof_C 	C 	0.2554	0.0425	0.7518	-0.014
Mof_C 	C 	0.2892	0.0574	0.7645	0.002
Mof_C 	C 	0.2875	0.0519	0.7921	-0.003
Mof_C 	C 	0.259	0.0432	0.8091	0.001
Mof_C 	C 	0.2296	0.0263	0.7946	-0.021
Mof_C 	C 	0.2192	0.1404	0.7012	0.005
Mof_C 	C 	0.1869	0.1643	0.698	-0.025
Mof_C 	C 	0.1897	0.2038	0.699	0.002
Mof_C 	C 	0.2253	0.2153	0.7045	-0.007
Mof_C 	C 	0.253	0.1917	0.7141	-0
Mof_C 	C 	0.2568	0.1555	0.7103	-0.006
Mof_C 	C 	0.0259	0.1122	0.6191	0.003
Mof_C 	C 	0.0149	0.1434	0.6305	-0.03
Mof_C 	C 	0.1288	0.0934	0.607	-0.016
Mof_C 	C 	0.0978	0.9358	0.6202	-0.003
Mof_C 	C 	0.0722	0.8985	0.6195	-0.023
Mof_C 	C 	0.2308	0.9815	0.666	0.008
Mof_C 	C 	0.2346	0.9891	0.6914	-0.031
Mof_C 	C 	0.2652	0.975	0.7047	0.007
Mof_C 	C 	0.292	0.9532	0.6924	-0.005
Mof_C 	C 	0.2882	0.9455	0.6669	0.002
Mof_C 	C 	0.2576	0.9597	0.6537	-0.01
Mof_Cd	Cd	0.57812	0.3013	0.35045	0.282
Mof_Cd	Cd	0.49128	0.37491	0.341	0.267
Mof_Cd	Cd	0.60622	0.41057	0.33069	0.267
Mof_Cd	Cd	0.55573	0.33198	0.279	0.261
Mof_Cd	Cd	0.56007	0.52202	0.33614	0.246
Mof_Cd	Cd	0.41172	0.4005	0.28423	0.245
Mof_Cd	Cd	0.52219	0.44645	0.2809	0.208
Mof_Cd	Cd	0.48961	0.36911	0.22243	0.243
Mof_Cd	Cd	0.63376	0.49495	0.28334	0.244
Mof_Cd	Cd	0.59592	0.40721	0.22488	0.243
Mof_Cd	Cd	0.66112	0.57137	0.22854	0.265
Mof_Cd	Cd	0.55427	0.52035	0.22678	0.207
Mof_Cd	Cd	0.58543	0.59056	0.1673	0.263
Mof_Cd	Cd	0.47486	0.55828	0.17042	0.245
Mof_Cd	Cd	0.63484	0.48139	0.17354	0.265
Mof_Cd	Cd	0.69705	0.57362	0.15433	0.284
Mof_Se	Se	0.54422	0.38955	0.30813	-0.203
Mof_Se	Se	0.46633	0.42173	0.25372	-0.216
Mof_Se	Se	0.58089	0.46562	0.25432	-0.213
Mof_Se	Se	0.61135	0.54051	0.19888	-0.201
Mof_Se	Se	0.61775	0.54958	0.31356	-0.138
Mof_Se	Se	0.54626	0.38198	0.19369	-0.147
Mof_S 	S 	0.7516	0.6033	0.1306	-0.112
Mof_S 	S 	0.5166	0.3223	0.36868	-0.123
Mof_S 	S 	0.627	0.3529	0.35393	-0.124
Mof_S 	S 	0.574	0.2754	0.30638	-0.128
Mof_S 	S 	0.5282	0.5695	0.36647	-0.124
Mof_S 	S 	0.4435	0.3474	0.31013	-0.135
Mof_S 	S 	0.5779	0.4611	0.35947	-0.133
Mof_S 	S 	0.5028	0.3122	0.25111	-0.133
Mof_S 	S 	0.6601	0.4401	0.309	-0.129
Mof_S 	S 	0.6144	0.3588	0.25787	-0.143
Mof_S 	S 	0.6368	0.6264	0.25275	-0.128
Mof_S 	S 	0.5733	0.6428	0.19936	-0.135
Mof_S 	S 	0.6858	0.5134	0.25243	-0.127
Mof_S 	S 	0.6552	0.4301	0.20187	-0.132
Mof_S 	S 	0.7154	0.5885	0.19919	-0.114
Mof_S 	S 	0.5313	0.5684	0.1408	-0.128
Mof_S 	S 	0.6405	0.6095	0.14044	-0.123
Mof_S 	S 	0.5807	0.4694	0.14488	-0.135
Mof_S 	S 	0.6923	0.5031	0.14811	-0.123
Mof_C 	C 	0.5337	0.3399	0.3971	0.016
Mof_C 	C 	0.5395	0.3109	0.4154	-0.019
Mof_C 	C 	0.5555	0.3252	0.439	0.002
Mof_C 	C 	0.5651	0.3686	0.444	-0.005
Mof_C 	C 	0.557	0.3908	0.4229	0.006
Mof_C 	C 	0.5447	0.3768	0.3973	-0.032
Mof_C 	C 	0.5649	0.5902	0.3862	0.01
Mof_C 	C 	0.558	0.5912	0.4119	-0.006
Mof_C 	C 	0.5838	0.6081	0.4279	0.002
Mof_C 	C 	0.6165	0.6239	0.4183	-0.005
Mof_C 	C 	0.6234	0.623	0.3926	0.005
Mof_C 	C 	0.5976	0.6061	0.3766	-0.029
Mof_C 	C 	0.4111	0.3228	0.3286	0.019
Mof_C 	C 	0.3705	0.334	0.3229	-0.024
Mof_C 	C 	0.3391	0.308	0.3386	0.001
Mof_C 	C 	0.3518	0.28	0.3547	-0.007
Mof_C 	C 	0.4013	0.2739	0.3513	0.005
Mof_C 	C 	0.4242	0.2954	0.3431	-0.024
Mof_C 	C 	0.6128	0.4731	0.3795	0.02
Mof_C 	C 	0.6251	0.5098	0.3832	-0.029
Mof_C 	C 	0.649	0.5182	0.4031	0.007
Mof_C 	C 	0.6606	0.4899	0.4193	-0.006
Mof_C 	C 	0.6483	0.4531	0.4156	0.004
Mof_C 	C 	0.6244	0.4448	0.3958	-0.019
Mof_C 	C 	0.6761	0.6481	0.2682	0.01
Mof_C 	C 	0.6967	0.6305	0.2844	-0.025
Mof_C 	C 	0.7267	0.5304	0.2673	0.014
Mof_C 	C 	0.7554	0.5425	0.2518	-0.014
Mof_C 	C 	0.7892	0.5574	0.2645	0.002
Mof_C 	C 	0.7875	0.5519	0.2921	-0.003
Mof_C 	C 	0.759	0.5432	0.3091	0.001
Mof_C 	C 	0.7296	0.5263	0.2946	-0.022
Mof_C 	C 	0.7192	0.6404	0.2012	0.005
Mof_C 	C 	0.6869	0.6643	0.198	-0.025
Mof_C 	C 	0.6897	0.7038	0.199	0.002
Mof_C 	C 	0.7253	0.7153	0.2045	-0.007
Mof_C 	C 	0.753	0.6917	0.2141	-0.001
Mof_C 	C 	0.7568	0.6555	0.2103	-0.006
Mof_C 	C 	0.5259	0.6122	0.1191	0.003
Mof_C 	C 	0.5149	0.6434	0.1305	-0.031
Mof_C 	C 	0.6288	0.5934	0.107	-0.016
Mof_C 	C 	0.5978	0.4358	0.1202	-0.002
Mof_C 	C 	0.5722	0.3985	0.1195	-0.024
Mof_C 	C 	0.7308	0.4815	0.166	0.009
Mof_C 	C 	0.7346	0.4891	0.1914	-0.03
Mof_C 	C 	0.7652	0.475	0.2047	0.007
Mof_C 	C 	0.792	0.4532	0.1924	-0.005
Mof_C 	C 	0.7882	0.4455	0.1669	0.002
Mof_C 	C 	0.7576	0.4597	0.1537	-0.01
Mof_Cd	Cd	0.92188	0.1987	0.85045	0.282
Mof_Cd	Cd	0.00872	0.12509	0.841	0.268
Mof_Cd	Cd	0.89378	0.08943	0.83069	0.267
Mof_Cd	Cd	0.94427	0.16802	0.779	0.261
Mof_Cd	Cd	0.93993	0.97798	0.83614	0.244
Mof_Cd	Cd	0.08828	0.0995	0.78423	0.245
Mof_Cd	Cd	0.97781	0.05355	0.7809	0.206
Mof_Cd	Cd	0.01039	0.13089	0.72243	0.244
Mof_Cd	Cd	0.86624	0.00505	0.78334	0.246
Mof_Cd	Cd	0.90408	0.09279	0.72488	0.243
Mof_Cd	Cd	0.83888	0.92863	0.72854	0.265
Mof_Cd	Cd	0.94573	0.97965	0.72678	0.204
Mof_Cd	Cd	0.91457	0.90944	0.6673	0.263
Mof_Cd	Cd	0.02514	0.94172	0.67042	0.245
Mof_Cd	Cd	0.86516	0.01861	0.67354	0.267
Mof_Cd	Cd	0.80295	0.92638	0.65433	0.284
Mof_Se	Se	0.95578	0.11045	0.80813	-0.204
Mof_Se	Se	0.03367	0.07827	0.75372	-0.214
Mof_Se	Se	0.91911	0.03438	0.75432	-0.212
Mof_Se	Se	0.88865	0.95949	0.69888	-0.203
Mof_Se	Se	0.88225	0.95042	0.81356	-0.139
Mof_Se	Se	0.95374	0.11802	0.69369	-0.148
Mof_S 	S 	0.7484	0.8967	0.6306	-0.112
Mof_S 	S 	0.9834	0.1777	0.86868	-0.125
Mof_S 	S 	0.873	0.1471	0.85393	-0.124
Mof_S 	S 	0.926	0.2246	0.80638	-0.129
Mof_S 	S 	0.9718	0.9305	0.86647	-0.126
Mof_S 	S 	0.0565	0.1526	0.81013	-0.134
Mof_S 	S 	0.9221	0.0389	0.85947	-0.133
Mof_S 	S 	0.9972	0.1878	0.75111	-0.135
Mof_S 	S 	0.8399	0.0599	0.809	-0.128
Mof_S 	S 	0.8856	0.1412	0.75787	-0.143
Mof_S 	S 	0.8632	0.8736	0.75275	-0.128
Mof_S 	S 	0.9267	0.8572	0.69936	-0.135
Mof_S 	S 	0.8142	0.9866	0.75243	-0.129
Mof_S 	S 	0.8448	0.0699	0.70187	-0.131
Mof_S 	S 	0.7846	0.9115	0.69919	-0.115
Mof_S 	S 	0.9687	0.9316	0.6408	-0.13
Mof_S 	S 	0.8595	0.8905	0.64044	-0.123
Mof_S 	S 	0.9193	0.0306	0.64488	-0.134
Mof_S 	S 	0.8077	0.9969	0.64811	-0.126
Mof_C 	C 	0.9663	0.1601	0.8971	0.016
Mof_C 	C 	0.9605	0.1891	0.9154	-0.02
Mof_C 	C 	0.9445	0.1748	0.939	0.002
Mof_C 	C 	0.9349	0.1314	0.944	-0.005
Mof_C 	C 	0.943	0.1092	0.9229	0.006
Mof_C 	C 	0.9553	0.1232	0.8973	-0.032
Mof_C 	C 	0.9351	0.9098	0.8862	0.01
Mof_C 	C 	0.942	0.9088	0.9119	-0.007
Mof_C 	C 	0.9162	0.8919	0.9279	0.002
Mof_C 	C 	0.8835	0.8761	0.9183	-0.005
Mof_C 	C 	0.8766	0.877	0.8926	0.005
Mof_C 	C 	0.9024	0.8939	0.8766	-0.029
Mof_C 	C 	0.0889	0.1772	0.8286	0.019
Mof_C 	C 	0.1295	0.166	0.8229	-0.024
Mof_C 	C 	0.1609	0.192	0.8386	0.001
Mof_C 	C 	0.1482	0.22	0.8547	-0.007
Mof_C 	C 	0.0987	0.2261	0.8513	0.005
Mof_C 	C 	0.0758	0.2046	0.8431	-0.023
Mof_C 	C 	0.8872	0.0269	0.8795	0.022
Mof_C 	C 	0.8749	0.9902	0.8832	-0.031
Mof_C 	C 	0.851	0.9818	0.9031	0.005
Mof_C 	C 	0.8394	0.0101	0.9193	-0.004
Mof_C 	C 	0.8517	0.0469	0.9156	0.004
Mof_C 	C 	0.8756	0.0552	0.8958	-0.019
Mof_C 	C 	0.8239	0.8519	0.7682	0.01
Mof_C 	C 	0.8033	0.8695	0.7844	-0.025
Mof_C 	C 	0.7733	0.9696	0.7673	0.014
Mof_C 	C 	0.7446	0.9575	0.7518	-0.015
Mof_C 	C 	0.7108	0.9426	0.7645	0.002
Mof_C 	C 	0.7125	0.9481	0.7921	-0.003
Mof_C 	C 	0.741	0.9568	0.8091	0.001
Mof_C 	C 	0.7704	0.9737	0.7946	-0.023
Mof_C 	C 	0.7808	0.8596	0.7012	0.005
Mof_C 	C 	0.8131	0.8357	0.698	-0.025
Mof_C 	C 	0.8103	0.7962	0.699	0.002
Mof_C 	C 	0.7747	0.7847	0.7045	-0.007
Mof_C 	C 	0.747	0.8083	0.7141	-0
Mof_C 	C 	0.7432	0.8445	0.7103	-0.006
Mof_C 	C 	0.9741	0.8878	0.6191	0.003
Mof_C 	C 	0.9851	0.8566	0.6305	-0.032
Mof_C 	C 	0.8712	0.9066	0.607	-0.017
Mof_C 	C 	0.9022	0.0642	0.6202	-0.002
Mof_C 	C 	0.9278	0.1015	0.6195	-0.024
Mof_C 	C 	0.7692	0.0185	0.666	0.011
Mof_C 	C 	0.7654	0.0109	0.6914	-0.029
Mof_C 	C 	0.7348	0.025	0.7047	0.008
Mof_C 	C 	0.708	0.0468	0.6924	-0.004
Mof_C 	C 	0.7118	0.0545	0.6669	0.002
Mof_C 	C 	0.7424	0.0403	0.6537	-0.01
Mof_Cd	Cd	0.42188	0.6987	0.35045	0.282
Mof_Cd	Cd	0.50872	0.62509	0.341	0.267
Mof_Cd	Cd	0.39378	0.58943	0.33069	0.267
Mof_Cd	Cd	0.44427	0.66802	0.279	0.261
Mof_Cd	Cd	0.43993	0.47798	0.33614	0.246
Mof_Cd	Cd	0.58828	0.5995	0.28423	0.245
Mof_Cd	Cd	0.47781	0.55355	0.2809	0.208
Mof_Cd	Cd	0.51039	0.63089	0.22243	0.243
Mof_Cd	Cd	0.36624	0.50505	0.28334	0.244
Mof_Cd	Cd	0.40408	0.59279	0.22488	0.243
Mof_Cd	Cd	0.33888	0.42863	0.22854	0.265
Mof_Cd	Cd	0.44573	0.47965	0.22678	0.207
Mof_Cd	Cd	0.41457	0.40944	0.1673	0.263
Mof_Cd	Cd	0.52514	0.44172	0.17042	0.245
Mof_Cd	Cd	0.36516	0.51861	0.17354	0.265
Mof_Cd	Cd	0.30295	0.42638	0.15433	0.284
Mof_Se	Se	0.45578	0.61045	0.30813	-0.203
Mof_Se	Se	0.53367	0.57827	0.25372	-0.216
Mof_Se	Se	0.41911	0.53438	0.25432	-0.213
Mof_Se	Se	0.38865	0.45949	0.19888	-0.201
Mof_Se	Se	0.38225	0.45042	0.31356	-0.138
Mof_Se	Se	0.45374	0.61802	0.19369	-0.147
Mof_S 	S 	0.2484	0.3967	0.1306	-0.112
Mof_S 	S 	0.4834	0.6777	0.36868	-0.123
Mof_S 	S 	0.373	0.6471	0.35393	-0.124
Mof_S 	S 	0.426	0.7246	0.30638	-0.128
Mof_S 	S 	0.4718	0.4305	0.36647	-0.124
Mof_S 	S 	0.5565	0.6526	0.31013	-0.135
Mof_S 	S 	0.4221	0.5389	0.35947	-0.133
Mof_S 	S 	0.4972	0.6878	0.25111	-0.133
Mof_S 	S 	0.3399	0.5599	0.309	-0.129
Mof_S 	S 	0.3856	0.6412	0.25787	-0.143
Mof_S 	S 	0.3632	0.3736	0.25275	-0.128
Mof_S 	S 	0.4267	0.3572	0.19936	-0.135
Mof_S 	S 	0.3142	0.4866	0.25243	-0.127
Mof_S 	S 	0.3448	0.5699	0.20187	-0.132
Mof_S 	S 	0.2846	0.4115	0.19919	-0.114
Mof_S 	S 	0.4687	0.4316	0.1408	-0.128
Mof_S 	S 	0.3595	0.3905	0.14044	-0.123
Mof_S 	S 	0.4193	0.5306	0.14488	-0.135
Mof_S 	S 	0.3077	0.4969	0.14811	-0.123
Mof_C 	C 	0.4663	0.6601	0.3971	0.016
Mof_C 	C 	0.4605	0.6891	0.4154	-0.019
Mof_C 	C 	0.4445	0.6748	0.439	0.002
Mof_C 	C 	0.4349	0.6314	0.444	-0.005
Mof_C 	C 	0.443	0.6092	0.4229	0.006
Mof_C 	C 	0.4553	0.6232	0.3973	-0.032
Mof_C 	C 	0.4351	0.4098	0.3862	0.01
Mof_C 	C 	0.442	0.4088	0.4119	-0.006
Mof_C 	C 	0.4162	0.3919	0.4279	0.002
Mof_C 	C 	0.3835	0.3761	0.4183	-0.005
Mof_C 	C 	0.3766	0.377	0.3926	0.005
Mof_C 	C 	0.4024	0.3939	0.3766	-0.029
Mof_C 	C 	0.5889	0.6772	0.3286	0.019
Mof_C 	C 	0.6295	0.666	0.3229	-0.024
Mof_C 	C 	0.6609	0.692	0.3386	0.001
Mof_C 	C 	0.6482	0.72	0.3547	-0.007
Mof_C 	C 	0.5987	0.7261	0.3513	0.004
Mof_C 	C 	0.5758	0.7046	0.3431	-0.024
Mof_C 	C 	0.3872	0.5269	0.3795	0.02
Mof_C 	C 	0.3749	0.4902	0.3832	-0.029
Mof_C 	C 	0.351	0.4818	0.4031	0.007
Mof_C 	C 	0.3394	0.5101	0.4193	-0.006
Mof_C 	C 	0.3517	0.5469	0.4156	0.004
Mof_C 	C 	0.3756	0.5552	0.3958	-0.019
Mof_C 	C 	0.3239	0.3519	0.2682	0.011
Mof_C 	C 	0.3033	0.3695	0.2844	-0.025
Mof_C 	C 	0.2733	0.4696	0.2673	0.014
Mof_C 	C 	0.2446	0.4575	0.2518	-0.014
Mof_C 	C 	0.2108	0.4426	0.2645	0.002
Mof_C 	C 	0.2125	0.4481	0.2921	-0.003
Mof_C 	C 	0.241	0.4568	0.3091	0.001
Mof_C 	C 	0.2704	0.4737	0.2946	-0.022
Mof_C 	C 	0.2808	0.3596	0.2012	0.005
Mof_C 	C 	0.3131	0.3357	0.198	-0.025
Mof_C 	C 	0.3103	0.2962	0.199	0.002
Mof_C 	C 	0.2747	0.2847	0.2045	-0.007
Mof_C 	C 	0.247	0.3083	0.2141	-0
Mof_C 	C 	0.2432	0.3445	0.2103	-0.006
Mof_C 	C 	0.4741	0.3878	0.1191	0.003
Mof_C 	C 	0.4851	0.3566	0.1305	-0.031
Mof_C 	C 	0.3712	0.4066	0.107	-0.016
Mof_C 	C 	0.4022	0.5642	0.1202	-0.003
Mof_C 	C 	0.4278	0.6015	0.1195	-0.024
Mof_C 	C 	0.2692	0.5185	0.166	0.009
Mof_C 	C 	0.2654	0.5109	0.1914	-0.03
Mof_C 	C 	0.2348	0.525	0.2047	0.007
Mof_C 	C 	0.208	0.5468	0.1924	-0.005
Mof_C 	C 	0.2118	0.5545	0.1669	0.002
Mof_C 	C 	0.2424	0.5403	0.1537	-0.01
Mof_Cd	Cd	0.3013	0.07812	0.60045	0.283
Mof_Cd	Cd	0.37491	0.99128	0.591	0.265
Mof_Cd	Cd	0.41057	0.10622	0.58069	0.267
Mof_Cd	Cd	0.33198	0.05573	0.529	0.261
Mof_Cd	Cd	0.52202	0.06007	0.58614	0.246
Mof_Cd	Cd	0.4005	0.91172	0.53423	0.245
Mof_Cd	Cd	0.44645	0.02219	0.5309	0.209
Mof_Cd	Cd	0.36911	0.98961	0.47243	0.241
Mof_Cd	Cd	0.49495	0.13376	0.53334	0.244
Mof_Cd	Cd	0.40721	0.09592	0.47488	0.243
Mof_Cd	Cd	0.57137	0.16112	0.47854	0.265
Mof_Cd	Cd	0.52035	0.05427	0.47678	0.207
Mof_Cd	Cd	0.59056	0.08543	0.4173	0.263
Mof_Cd	Cd	0.55828	0.97486	0.42042	0.243
Mof_Cd	Cd	0.48139	0.13484	0.42354	0.265
Mof_Cd	Cd	0.57362	0.19705	0.40433	0.284
Mof_Se	Se	0.38955	0.04422	0.55813	-0.201
Mof_Se	Se	0.42173	0.96633	0.50372	-0.217
Mof_Se	Se	0.46562	0.08089	0.50432	-0.213
Mof_Se	Se	0.54051	0.11135	0.44888	-0.201
Mof_Se	Se	0.54958	0.11775	0.56356	-0.138
Mof_Se	Se	0.38198	0.04626	0.44369	-0.145
Mof_S 	S 	0.6033	0.2516	0.3806	-0.112
Mof_S 	S 	0.3223	0.0166	0.61868	-0.121
Mof_S 	S 	0.3529	0.127	0.60393	-0.124
Mof_S 	S 	0.2754	0.074	0.55638	-0.128
Mof_S 	S 	0.5695	0.0282	0.61647	-0.123
Mof_S 	S 	0.3474	0.9435	0.56013	-0.136
Mof_S 	S 	0.4611	0.0779	0.60947	-0.132
Mof_S 	S 	0.3122	0.0028	0.50111	-0.131
Mof_S 	S 	0.4401	0.1601	0.559	-0.129
Mof_S 	S 	0.3588	0.1144	0.50787	-0.143
Mof_S 	S 	0.6264	0.1368	0.50275	-0.128
Mof_S 	S 	0.6428	0.0733	0.44936	-0.135
Mof_S 	S 	0.5134	0.1858	0.50243	-0.127
Mof_S 	S 	0.4301	0.1552	0.45187	-0.132
Mof_S 	S 	0.5885	0.2154	0.44919	-0.114
Mof_S 	S 	0.5684	0.0313	0.3908	-0.126
Mof_S 	S 	0.6095	0.1405	0.39044	-0.123
Mof_S 	S 	0.4694	0.0807	0.39488	-0.134
Mof_S 	S 	0.5031	0.1923	0.39811	-0.123
Mof_C 	C 	0.3399	0.0337	0.6471	0.016
Mof_C 	C 	0.3109	0.0395	0.6654	-0.018
Mof_C 	C 	0.3252	0.0555	0.689	0.002
Mof_C 	C 	0.3686	0.0651	0.694	-0.004
Mof_C 	C 	0.3908	0.057	0.6729	0.006
Mof_C 	C 	0.3768	0.0447	0.6473	-0.031
Mof_C 	C 	0.5902	0.0649	0.6362	0.009
Mof_C 	C 	0.5912	0.058	0.6619	-0.006
Mof_C 	C 	0.6081	0.0838	0.6779	0.002
Mof_C 	C 	0.6239	0.1165	0.6683	-0.005
Mof_C 	C 	0.623	0.1234	0.6426	0.005
Mof_C 	C 	0.6061	0.0976	0.6266	-0.029
Mof_C 	C 	0.3228	0.9111	0.5786	0.019
Mof_C 	C 	0.334	0.8705	0.5729	-0.024
Mof_C 	C 	0.308	0.8391	0.5886	0.001
Mof_C 	C 	0.28	0.8518	0.6047	-0.007
Mof_C 	C 	0.2739	0.9013	0.6013	0.004
Mof_C 	C 	0.2954	0.9242	0.5931	-0.025
Mof_C 	C 	0.4731	0.1128	0.6295	0.02
Mof_C 	C 	0.5098	0.1251	0.6332	-0.029
Mof_C 	C 	0.5182	0.149	0.6531	0.007
Mof_C 	C 	0.4899	0.1606	0.6693	-0.006
Mof_C 	C 	0.4531	0.1483	0.6656	0.004
Mof_C 	C 	0.4448	0.1244	0.6458	-0.019
Mof_C 	C 	0.6481	0.1761	0.5182	0.011
Mof_C 	C 	0.6305	0.1967	0.5344	-0.025
Mof_C 	C 	0.5304	0.2267	0.5173	0.014
Mof_C 	C 	0.5425	0.2554	0.5018	-0.014
Mof_C 	C 	0.5574	0.2892	0.5145	0.002
Mof_C 	C 	0.5519	0.2875	0.5421	-0.003
Mof_C 	C 	0.5432	0.259	0.5591	0.001
Mof_C 	C 	0.5263	0.2296	0.5446	-0.022
Mof_C 	C 	0.6404	0.2192	0.4512	0.005
Mof_C 	C 	0.6643	0.1869	0.448	-0.025
Mof_C 	C 	0.7038	0.1897	0.449	0.002
Mof_C 	C 	0.7153	0.2253	0.4545	-0.007
Mof_C 	C 	0.6917	0.253	0.4641	-0
Mof_C 	C 	0.6555	0.2568	0.4603	-0.006
Mof_C 	C 	0.6122	0.0259	0.3691	0.003
Mof_C 	C 	0.6434	0.0149	0.3805	-0.03
Mof_C 	C 	0.5934	0.1288	0.357	-0.016
Mof_C 	C 	0.4358	0.0978	0.3702	-0.002
Mof_C 	C 	0.3985	0.0722	0.3695	-0.023
Mof_C 	C 	0.4815	0.2308	0.416	0.009
Mof_C 	C 	0.4891	0.2346	0.4414	-0.03
Mof_C 	C 	0.475	0.2652	0.4547	0.007
Mof_C 	C 	0.4532	0.292	0.4424	-0.005
Mof_C 	C 	0.4455	0.2882	0.4169	0.002
Mof_C 	C 	0.4597	0.2576	0.4037	-0.01
Mof_Cd	Cd	0.8013	0.57812	0.10045	0.282
Mof_Cd	Cd	0.87491	0.49128	0.091	0.267
Mof_Cd	Cd	0.91057	0.60622	0.08069	0.267
Mof_Cd	Cd	0.83198	0.55573	0.029	0.261
Mof_Cd	Cd	0.02202	0.56007	0.08614	0.247
Mof_Cd	Cd	0.9005	0.41172	0.03423	0.245
Mof_Cd	Cd	0.94645	0.52219	0.0309	0.207
Mof_Cd	Cd	0.86911	0.48961	0.97243	0.243
Mof_Cd	Cd	0.99495	0.63376	0.03334	0.242
Mof_Cd	Cd	0.90721	0.59592	0.97488	0.243
Mof_Cd	Cd	0.07137	0.66112	0.97854	0.265
Mof_Cd	Cd	0.02035	0.55427	0.97678	0.208
Mof_Cd	Cd	0.09056	0.58543	0.9173	0.263
Mof_Cd	Cd	0.05828	0.47486	0.92042	0.245
Mof_Cd	Cd	0.98139	0.63484	0.92354	0.263
Mof_Cd	Cd	0.07362	0.69705	0.90433	0.284
Mof_Se	Se	0.88955	0.54422	0.05813	-0.203
Mof_Se	Se	0.92173	0.46633	0.00372	-0.216
Mof_Se	Se	0.96562	0.58089	0.00432	-0.214
Mof_Se	Se	0.04051	0.61135	0.94888	-0.2
Mof_Se	Se	0.04958	0.61775	0.06356	-0.137
Mof_Se	Se	0.88198	0.54626	0.94369	-0.147
Mof_S 	S 	0.1033	0.7516	0.8806	-0.112
Mof_S 	S 	0.8223	0.5166	0.11868	-0.123
Mof_S 	S 	0.8529	0.627	0.10393	-0.124
Mof_S 	S 	0.7754	0.574	0.05638	-0.128
Mof_S 	S 	0.0695	0.5282	0.11647	-0.124
Mof_S 	S 	0.8474	0.4435	0.06013	-0.135
Mof_S 	S 	0.9611	0.5779	0.10947	-0.134
Mof_S 	S 	0.8122	0.5028	0.00111	-0.133
Mof_S 	S 	0.9401	0.6601	0.059	-0.13
Mof_S 	S 	0.8588	0.6144	0.00787	-0.143
Mof_S 	S 	0.1264	0.6368	0.00275	-0.128
Mof_S 	S 	0.1428	0.5733	0.94936	-0.135
Mof_S 	S 	0.0134	0.6858	0.00243	-0.125
Mof_S 	S 	0.9301	0.6552	0.95187	-0.132
Mof_S 	S 	0.0885	0.7154	0.94919	-0.114
Mof_S 	S 	0.0684	0.5313	0.8908	-0.127
Mof_S 	S 	0.1095	0.6405	0.89044	-0.123
Mof_S 	S 	0.9694	0.5807	0.89488	-0.136
Mof_S 	S 	0.0031	0.6923	0.89811	-0.12
Mof_C 	C 	0.8399	0.5337	0.1471	0.016
Mof_C 	C 	0.8109	0.5395	0.1654	-0.019
Mof_C 	C 	0.8252	0.5555	0.189	0.002
Mof_C 	C 	0.8686	0.5651	0.194	-0.005
Mof_C 	C 	0.8908	0.557	0.1729	0.006
Mof_C 	C 	0.8768	0.5447	0.1473	-0.032
Mof_C 	C 	0.0902	0.5649	0.1362	0.009
Mof_C 	C 	0.0912	0.558	0.1619	-0.006
Mof_C 	C 	0.1081	0.5838	0.1779	0.002
Mof_C 	C 	0.1239	0.6165	0.1683	-0.005
Mof_C 	C 	0.123	0.6234	0.1426	0.005
Mof_C 	C 	0.1061	0.5976	0.1266	-0.029
Mof_C 	C 	0.8228	0.4111	0.0786	0.019
Mof_C 	C 	0.834	0.3705	0.0729	-0.024
Mof_C 	C 	0.808	0.3391	0.0886	0.001
Mof_C 	C 	0.78	0.3518	0.1047	-0.007
Mof_C 	C 	0.7739	0.4013	0.1013	0.004
Mof_C 	C 	0.7954	0.4242	0.0931	-0.024
Mof_C 	C 	0.9731	0.6128	0.1295	0.018
Mof_C 	C 	0.0098	0.6251	0.1332	-0.028
Mof_C 	C 	0.0182	0.649	0.1531	0.008
Mof_C 	C 	0.9899	0.6606	0.1693	-0.009
Mof_C 	C 	0.9531	0.6483	0.1656	0.004
Mof_C 	C 	0.9448	0.6244	0.1458	-0.019
Mof_C 	C 	0.1481	0.6761	0.0182	0.01
Mof_C 	C 	0.1305	0.6967	0.0344	-0.025
Mof_C 	C 	0.0304	0.7267	0.0173	0.013
Mof_C 	C 	0.0425	0.7554	0.0018	-0.014
Mof_C 	C 	0.0574	0.7892	0.0145	0.002
Mof_C 	C 	0.0519	0.7875	0.0421	-0.003
Mof_C 	C 	0.0432	0.759	0.0591	0.001
Mof_C 	C 	0.0263	0.7296	0.0446	-0.021
Mof_C 	C 	0.1404	0.7192	0.9512	0.005
Mof_C 	C 	0.1643	0.6869	0.948	-0.025
Mof_C 	C 	0.2038	0.6897	0.949	0.002
Mof_C 	C 	0.2153	0.7253	0.9545	-0.007
Mof_C 	C 	0.1917	0.753	0.9641	-0.001
Mof_C 	C 	0.1555	0.7568	0.9603	-0.006
Mof_C 	C 	0.1122	0.5259	0.8691	0.003
Mof_C 	C 	0.1434	0.5149	0.8805	-0.031
Mof_C 	C 	0.0934	0.6288	0.857	-0.016
Mof_C 	C 	0.9358	0.5978	0.8702	-0.003
Mof_C 	C 	0.8985	0.5722	0.8695	-0.024
Mof_C 	C 	0.9815	0.7308	0.916	0.008
Mof_C 	C 	0.9891	0.7346	0.9414	-0.031
Mof_C 	C 	0.975	0.7652	0.9547	0.007
Mof_C 	C 	0.9532	0.792	0.9424	-0.005
Mof_C 	C 	0.9455	0.7882	0.9169	0.002
Mof_C 	C 	0.9597	0.7576	0.9037	-0.01
Mof_Cd	Cd	0.6987	0.92188	0.60045	0.282
Mof_Cd	Cd	0.62509	0.00872	0.591	0.268
Mof_Cd	Cd	0.58943	0.89378	0.58069	0.267
Mof_Cd	Cd	0.66802	0.94427	0.529	0.261
Mof_Cd	Cd	0.47798	0.93993	0.58614	0.246
Mof_Cd	Cd	0.5995	0.08828	0.53423	0.245
Mof_Cd	Cd	0.55355	0.97781	0.5309	0.206
Mof_Cd	Cd	0.63089	0.01039	0.47243	0.245
Mof_Cd	Cd	0.50505	0.86624	0.53334	0.244
Mof_Cd	Cd	0.59279	0.90408	0.47488	0.243
Mof_Cd	Cd	0.42863	0.83888	0.47854	0.265
Mof_Cd	Cd	0.47965	0.94573	0.47678	0.206
Mof_Cd	Cd	0.40944	0.91457	0.4173	0.263
Mof_Cd	Cd	0.44172	0.02514	0.42042	0.246
Mof_Cd	Cd	0.51861	0.86516	0.42354	0.265
Mof_Cd	Cd	0.42638	0.80295	0.40433	0.284
Mof_Se	Se	0.61045	0.95578	0.55813	-0.204
Mof_Se	Se	0.57827	0.03367	0.50372	-0.214
Mof_Se	Se	0.53438	0.91911	0.50432	-0.213
Mof_Se	Se	0.45949	0.88865	0.44888	-0.201
Mof_Se	Se	0.45042	0.88225	0.56356	-0.138
Mof_Se	Se	0.61802	0.95374	0.44369	-0.148
Mof_S 	S 	0.3967	0.7484	0.3806	-0.112
Mof_S 	S 	0.6777	0.9834	0.61868	-0.125
Mof_S 	S 	0.6471	0.873	0.60393	-0.124
Mof_S 	S 	0.7246	0.926	0.55638	-0.129
Mof_S 	S 	0.4305	0.9718	0.61647	-0.125
Mof_S 	S 	0.6526	0.0565	0.56013	-0.134
Mof_S 	S 	0.5389	0.9221	0.60947	-0.133
Mof_S 	S 	0.6878	0.9972	0.50111	-0.135
Mof_S 	S 	0.5599	0.8399	0.559	-0.129
Mof_S 	S 	0.6412	0.8856	0.50787	-0.143
Mof_S 	S 	0.3736	0.8632	0.50275	-0.128
Mof_S 	S 	0.3572	0.9267	0.44936	-0.135
Mof_S 	S 	0.4866	0.8142	0.50243	-0.127
Mof_S 	S 	0.5699	0.8448	0.45187	-0.132
Mof_S 	S 	0.4115	0.7846	0.44919	-0.114
Mof_S 	S 	0.4316	0.9687	0.3908	-0.129
Mof_S 	S 	0.3905	0.8595	0.39044	-0.123
Mof_S 	S 	0.5306	0.9193	0.39488	-0.135
Mof_S 	S 	0.4969	0.8077	0.39811	-0.123
Mof_C 	C 	0.6601	0.9663	0.6471	0.016
Mof_C 	C 	0.6891	0.9605	0.6654	-0.02
Mof_C 	C 	0.6748	0.9445	0.689	0.002
Mof_C 	C 	0.6314	0.9349	0.694	-0.005
Mof_C 	C 	0.6092	0.943	0.6729	0.006
Mof_C 	C 	0.6232	0.9553	0.6473	-0.032
Mof_C 	C 	0.4098	0.9351	0.6362	0.01
Mof_C 	C 	0.4088	0.942	0.6619	-0.007
Mof_C 	C 	0.3919	0.9162	0.6779	0.002
Mof_C 	C 	0.3761	0.8835	0.6683	-0.005
Mof_C 	C 	0.377	0.8766	0.6426	0.005
Mof_C 	C 	0.3939	0.9024	0.6266	-0.029
Mof_C 	C 	0.6772	0.0889	0.5786	0.019
Mof_C 	C 	0.666	0.1295	0.5729	-0.024
Mof_C 	C 	0.692	0.1609	0.5886	0.001
Mof_C 	C 	0.72	0.1482	0.6047	-0.007
Mof_C 	C 	0.7261	0.0987	0.6013	0.005
Mof_C 	C 	0.7046	0.0758	0.5931	-0.023
Mof_C 	C 	0.5269	0.8872	0.6295	0.02
Mof_C 	C 	0.4902	0.8749	0.6332	-0.03
Mof_C 	C 	0.4818	0.851	0.6531	0.007
Mof_C 	C 	0.5101	0.8394	0.6693	-0.006
Mof_C 	C 	0.5469	0.8517	0.6656	0.004
Mof_C 	C 	0.5552	0.8756	0.6458	-0.019
Mof_C 	C 	0.3519	0.8239	0.5182	0.01
Mof_C 	C 	0.3695	0.8033	0.5344	-0.025
Mof_C 	C 	0.4696	0.7733	0.5173	0.014
Mof_C 	C 	0.4575	0.7446	0.5018	-0.014
Mof_C 	C 	0.4426	0.7108	0.5145	0.002
Mof_C 	C 	0.4481	0.7125	0.5421	-0.003
Mof_C 	C 	0.4568	0.741	0.5591	0.001
Mof_C 	C 	0.4737	0.7704	0.5446	-0.022
Mof_C 	C 	0.3596	0.7808	0.4512	0.005
Mof_C 	C 	0.3357	0.8131	0.448	-0.025
Mof_C 	C 	0.2962	0.8103	0.449	0.002
Mof_C 	C 	0.2847	0.7747	0.4545	-0.007
Mof_C 	C 	0.3083	0.747	0.4641	-0
Mof_C 	C 	0.3445	0.7432	0.4603	-0.006
Mof_C 	C 	0.3878	0.9741	0.3691	0.003
Mof_C 	C 	0.3566	0.9851	0.3805	-0.032
Mof_C 	C 	0.4066	0.8712	0.357	-0.016
Mof_C 	C 	0.5642	0.9022	0.3702	-0.003
Mof_C 	C 	0.6015	0.9278	0.3695	-0.024
Mof_C 	C 	0.5185	0.7692	0.416	0.009
Mof_C 	C 	0.5109	0.7654	0.4414	-0.03
Mof_C 	C 	0.525	0.7348	0.4547	0.007
Mof_C 	C 	0.5468	0.708	0.4424	-0.005
Mof_C 	C 	0.5545	0.7118	0.4169	0.002
Mof_C 	C 	0.5403	0.7424	0.4037	-0.01
Mof_Cd	Cd	0.1987	0.42188	0.10045	0.282
Mof_Cd	Cd	0.12509	0.50872	0.091	0.266
Mof_Cd	Cd	0.08943	0.39378	0.08069	0.267
Mof_Cd	Cd	0.16802	0.44427	0.029	0.261
Mof_Cd	Cd	0.97798	0.43993	0.08614	0.245
Mof_Cd	Cd	0.0995	0.58828	0.03423	0.245
Mof_Cd	Cd	0.05355	0.47781	0.0309	0.208
Mof_Cd	Cd	0.13089	0.51039	0.97243	0.242
Mof_Cd	Cd	0.00505	0.36624	0.03334	0.246
Mof_Cd	Cd	0.09279	0.40408	0.97488	0.243
Mof_Cd	Cd	0.92863	0.33888	0.97854	0.265
Mof_Cd	Cd	0.97965	0.44573	0.97678	0.205
Mof_Cd	Cd	0.90944	0.41457	0.9173	0.263
Mof_Cd	Cd	0.94172	0.52514	0.92042	0.244
Mof_Cd	Cd	0.01861	0.36516	0.92354	0.267
Mof_Cd	Cd	0.92638	0.30295	0.90433	0.284
Mof_Se	Se	0.11045	0.45578	0.05813	-0.203
Mof_Se	Se	0.07827	0.53367	0.00372	-0.215
Mof_Se	Se	0.03438	0.41911	0.00432	-0.211
Mof_Se	Se	0.95949	0.38865	0.94888	-0.203
Mof_Se	Se	0.95042	0.38225	0.06356	-0.139
Mof_Se	Se	0.11802	0.45374	0.94369	-0.147
Mof_S 	S 	0.8967	0.2484	0.8806	-0.112
Mof_S 	S 	0.1777	0.4834	0.11868	-0.123
Mof_S 	S 	0.1471	0.373	0.10393	-0.124
Mof_S 	S 	0.2246	0.426	0.05638	-0.128
Mof_S 	S 	0.9305	0.4718	0.11647	-0.124
Mof_S 	S 	0.1526	0.5565	0.06013	-0.135
Mof_S 	S 	0.0389	0.4221	0.10947	-0.132
Mof_S 	S 	0.1878	0.4972	0.00111	-0.133
Mof_S 	S 	0.0599	0.3399	0.059	-0.129
Mof_S 	S 	0.1412	0.3856	0.00787	-0.143
Mof_S 	S 	0.8736	0.3632	0.00275	-0.128
Mof_S 	S 	0.8572	0.4267	0.94936	-0.135
Mof_S 	S 	0.9866	0.3142	0.00243	-0.129
Mof_S 	S 	0.0699	0.3448	0.95187	-0.131
Mof_S 	S 	0.9115	0.2846	0.94919	-0.115
Mof_S 	S 	0.9316	0.4687	0.8908	-0.128
Mof_S 	S 	0.8905	0.3595	0.89044	-0.123
Mof_S 	S 	0.0306	0.4193	0.89488	-0.134
Mof_S 	S 	0.9969	0.3077	0.89811	-0.126
Mof_C 	C 	0.1601	0.4663	0.1471	0.016
Mof_C 	C 	0.1891	0.4605	0.1654	-0.019
Mof_C 	C 	0.1748	0.4445	0.189	0.002
Mof_C 	C 	0.1314	0.4349	0.194	-0.004
Mof_C 	C 	0.1092	0.443	0.1729	0.006
Mof_C 	C 	0.1232	0.4553	0.1473	-0.032
Mof_C 	C 	0.9098	0.4351	0.1362	0.01
Mof_C 	C 	0.9088	0.442	0.1619	-0.007
Mof_C 	C 	0.8919	0.4162	0.1779	0.002
Mof_C 	C 	0.8761	0.3835	0.1683	-0.005
Mof_C 	C 	0.877	0.3766	0.1426	0.005
Mof_C 	C 	0.8939	0.4024	0.1266	-0.029
Mof_C 	C 	0.1772	0.5889	0.0786	0.019
Mof_C 	C 	0.166	0.6295	0.0729	-0.024
Mof_C 	C 	0.192	0.6609	0.0886	0.001
Mof_C 	C 	0.22	0.6482	0.1047	-0.007
Mof_C 	C 	0.2261	0.5987	0.1013	0.004
Mof_C 	C 	0.2046	0.5758	0.0931	-0.024
Mof_C 	C 	0.0269	0.3872	0.1295	0.022
Mof_C 	C 	0.9902	0.3749	0.1332	-0.031
Mof_C 	C 	0.9818	0.351	0.1531	0.005
Mof_C 	C 	0.0101	0.3394	0.1693	-0.004
Mof_C 	C 	0.0469	0.3517	0.1656	0.004
Mof_C 	C 	0.0552	0.3756	0.1458	-0.019
Mof_C 	C 	0.8519	0.3239	0.0182	0.011
Mof_C 	C 	0.8695	0.3033	0.0344	-0.025
Mof_C 	C 	0.9696	0.2733	0.0173	0.014
Mof_C 	C 	0.9575	0.2446	0.0018	-0.015
Mof_C 	C 	0.9426	0.2108	0.0145	0.002
Mof_C 	C 	0.9481	0.2125	0.0421	-0.003
Mof_C 	C 	0.9568	0.241	0.0591	0.001
Mof_C 	C 	0.9737	0.2704	0.0446	-0.023
Mof_C 	C 	0.8596	0.2808	0.9512	0.005
Mof_C 	C 	0.8357	0.3131	0.948	-0.025
Mof_C 	C 	0.7962	0.3103	0.949	0.002
Mof_C 	C 	0.7847	0.2747	0.9545	-0.007
Mof_C 	C 	0.8083	0.247	0.9641	-0
Mof_C 	C 	0.8445	0.2432	0.9603	-0.006
Mof_C 	C 	0.8878	0.4741	0.8691	0.003
Mof_C 	C 	0.8566	0.4851	0.8805	-0.031
Mof_C 	C 	0.9066	0.3712	0.857	-0.017
Mof_C 	C 	0.0642	0.4022	0.8702	-0.002
Mof_C 	C 	0.1015	0.4278	0.8695	-0.023
Mof_C 	C 	0.0185	0.2692	0.916	0.011
Mof_C 	C 	0.0109	0.2654	0.9414	-0.029
Mof_C 	C 	0.025	0.2348	0.9547	0.008
Mof_C 	C 	0.0468	0.208	0.9424	-0.004
Mof_C 	C 	0.0545	0.2118	0.9169	0.002
Mof_C 	C 	0.0403	0.2424	0.9037	-0.01
Mof_Se	Se	1.65646e-32	0	0.81082	-0.208
Mof_Se	Se	1.5923e-32	0	0.69663	-0.21
Mof_Se	Se	0.5	0.5	0.31082	-0.213
Mof_Se	Se	0.5	0.5	0.19663	-0.215
Mof_Se	Se	0.5	0	0.56082	-0.211
Mof_Se	Se	0.5	0	0.44663	-0.212
Mof_Se	Se	-4.91199e-33	0.5	0.06082	-0.211
Mof_Se	Se	5.31921e-33	0.5	0.94663	-0.212
_end
