data_functionalizedCrystal
_audit_creation_method	'EQeq! by Chris Wilmer'
_symmetry_space_group_name_H-M	'P1'
_symmetry_Int_Tables_number	1
_symmetry_cell_setting	triclinic
loop_
_symmetry_equiv_pos_as_xyz
  x,y,z
_cell_length_a	15.484
_cell_length_b	30.163
_cell_length_c	30.163
_cell_angle_alpha	90
_cell_angle_beta	90
_cell_angle_gamma	90
loop_
_atom_site_label
_atom_site_type_symbol
_atom_site_fract_x
_atom_site_fract_y
_atom_site_fract_z
_atom_site_charge
Mof_Co	Co	0.62251	0.7528	0.98296	1.202
Mof_Co	Co	0.62251	0.2472	0.01704	1.199
Mof_Co	Co	0.62251	0.01704	0.7528	1.199
Mof_Co	Co	0.62251	0.98296	0.2472	1.202
Mof_Co	Co	0.37749	0.7472	0.48296	1.2
Mof_Co	Co	0.37749	0.2528	0.51704	1.201
Mof_Co	Co	0.37749	0.48296	0.2528	1.201
Mof_Co	Co	0.37749	0.51704	0.7472	1.201
Mof_Co	Co	0.37749	0.2472	0.01704	1.2
Mof_Co	Co	0.37749	0.7528	0.98296	1.202
Mof_Co	Co	0.37749	0.98296	0.2472	1.202
Mof_Co	Co	0.37749	0.01704	0.7528	1.2
Mof_Co	Co	0.62251	0.2528	0.51704	1.201
Mof_Co	Co	0.62251	0.7472	0.48296	1.202
Mof_Co	Co	0.62251	0.51704	0.7472	1.202
Mof_Co	Co	0.62251	0.48296	0.2528	1.201
Mof_Co	Co	-0	0.5	-0	1.108
Mof_Co	Co	-3.51574e-33	3.58384e-33	0.5	1.108
Mof_Co	Co	0.5	0.83867	0.9897	1.181
Mof_Co	Co	0.5	0.16133	0.0103	1.178
Mof_Co	Co	0.5	0.0103	0.83867	1.178
Mof_Co	Co	0.5	0.9897	0.16133	1.181
Mof_Co	Co	0.5	0.66133	0.4897	1.179
Mof_Co	Co	0.5	0.33867	0.5103	1.179
Mof_Co	Co	0.5	0.4897	0.33867	1.179
Mof_Co	Co	0.5	0.5103	0.66133	1.179
Mof_Co	Co	-1.82674e-33	0.74057	0.24057	1.095
Mof_Co	Co	-8.78857e-33	0.25943	0.75943	1.095
Mof_Co	Co	-8.92632e-33	0.75943	0.74057	1.095
Mof_Co	Co	1.89484e-33	0.24057	0.25943	1.095
Mof_H 	H 	0.7622	0.6305	0.9633	0.067
Mof_H 	H 	0.6055	0.8824	0.0991	0.034
Mof_H 	H 	0.766	0.8697	0.2041	0.057
Mof_H 	H 	0.7646	0.7785	0.1075	0.053
Mof_H 	H 	0.6817	0.7657	0.207	0.064
Mof_H 	H 	0.9196	0.8569	0.1258	0.05
Mof_H 	H 	0.7622	0.3695	0.0367	0.066
Mof_H 	H 	0.6055	0.1176	0.9009	0.035
Mof_H 	H 	0.766	0.1303	0.7959	0.057
Mof_H 	H 	0.7646	0.2215	0.8925	0.054
Mof_H 	H 	0.6817	0.2343	0.793	0.065
Mof_H 	H 	0.9196	0.1431	0.8742	0.05
Mof_H 	H 	0.7622	0.0367	0.6305	0.066
Mof_H 	H 	0.6055	0.9009	0.8824	0.035
Mof_H 	H 	0.766	0.7959	0.8697	0.058
Mof_H 	H 	0.7646	0.8925	0.7785	0.054
Mof_H 	H 	0.6817	0.793	0.7657	0.065
Mof_H 	H 	0.9196	0.8742	0.8569	0.051
Mof_H 	H 	0.7622	0.9633	0.3695	0.067
Mof_H 	H 	0.6055	0.0991	0.1176	0.034
Mof_H 	H 	0.766	0.2041	0.1303	0.057
Mof_H 	H 	0.7646	0.1075	0.2215	0.053
Mof_H 	H 	0.6817	0.207	0.2343	0.064
Mof_H 	H 	0.9196	0.1258	0.1431	0.049
Mof_H 	H 	0.2378	0.8695	0.4633	0.062
Mof_H 	H 	0.3945	0.6176	0.5991	0.033
Mof_H 	H 	0.234	0.6303	0.7041	0.053
Mof_H 	H 	0.2354	0.7215	0.6075	0.049
Mof_H 	H 	0.3183	0.7343	0.707	0.064
Mof_H 	H 	0.0804	0.6431	0.6258	0.077
Mof_H 	H 	0.2378	0.1305	0.5367	0.062
Mof_H 	H 	0.3945	0.3824	0.4009	0.033
Mof_H 	H 	0.234	0.3697	0.2959	0.053
Mof_H 	H 	0.2354	0.2785	0.3925	0.049
Mof_H 	H 	0.3183	0.2657	0.293	0.064
Mof_H 	H 	0.0804	0.3569	0.3742	0.077
Mof_H 	H 	0.2378	0.4633	0.1305	0.062
Mof_H 	H 	0.3945	0.5991	0.3824	0.033
Mof_H 	H 	0.234	0.7041	0.3697	0.053
Mof_H 	H 	0.2354	0.6075	0.2785	0.049
Mof_H 	H 	0.3183	0.707	0.2657	0.064
Mof_H 	H 	0.0804	0.6258	0.3569	0.077
Mof_H 	H 	0.2378	0.5367	0.8695	0.062
Mof_H 	H 	0.3945	0.4009	0.6176	0.033
Mof_H 	H 	0.234	0.2959	0.6303	0.053
Mof_H 	H 	0.2354	0.3925	0.7215	0.049
Mof_H 	H 	0.3183	0.293	0.7343	0.064
Mof_H 	H 	0.0804	0.3742	0.6431	0.077
Mof_H 	H 	0.2378	0.3695	0.0367	0.061
Mof_H 	H 	0.3945	0.1176	0.9009	0.033
Mof_H 	H 	0.234	0.1303	0.7959	0.053
Mof_H 	H 	0.2354	0.2215	0.8925	0.049
Mof_H 	H 	0.3183	0.2343	0.793	0.064
Mof_H 	H 	0.0804	0.1431	0.8742	0.077
Mof_H 	H 	0.2378	0.6305	0.9633	0.063
Mof_H 	H 	0.3945	0.8824	0.0991	0.033
Mof_H 	H 	0.234	0.8697	0.2041	0.053
Mof_H 	H 	0.2354	0.7785	0.1075	0.048
Mof_H 	H 	0.3183	0.7657	0.207	0.064
Mof_H 	H 	0.0804	0.8569	0.1258	0.077
Mof_H 	H 	0.2378	0.9633	0.3695	0.063
Mof_H 	H 	0.3945	0.0991	0.1176	0.032
Mof_H 	H 	0.234	0.2041	0.1303	0.053
Mof_H 	H 	0.2354	0.1075	0.2215	0.048
Mof_H 	H 	0.3183	0.207	0.2343	0.064
Mof_H 	H 	0.0804	0.1258	0.1431	0.076
Mof_H 	H 	0.2378	0.0367	0.6305	0.061
Mof_H 	H 	0.3945	0.9009	0.8824	0.034
Mof_H 	H 	0.234	0.7959	0.8697	0.053
Mof_H 	H 	0.2354	0.8925	0.7785	0.05
Mof_H 	H 	0.3183	0.793	0.7657	0.064
Mof_H 	H 	0.0804	0.8742	0.8569	0.077
Mof_H 	H 	0.7622	0.1305	0.5367	0.066
Mof_H 	H 	0.6055	0.3824	0.4009	0.034
Mof_H 	H 	0.766	0.3697	0.2959	0.057
Mof_H 	H 	0.7646	0.2785	0.3925	0.053
Mof_H 	H 	0.6817	0.2657	0.293	0.064
Mof_H 	H 	0.9196	0.3569	0.3742	0.05
Mof_H 	H 	0.7622	0.8695	0.4633	0.066
Mof_H 	H 	0.6055	0.6176	0.5991	0.034
Mof_H 	H 	0.766	0.6303	0.7041	0.057
Mof_H 	H 	0.7646	0.7215	0.6075	0.054
Mof_H 	H 	0.6817	0.7343	0.707	0.064
Mof_H 	H 	0.9196	0.6431	0.6258	0.05
Mof_H 	H 	0.7622	0.5367	0.8695	0.066
Mof_H 	H 	0.6055	0.4009	0.6176	0.034
Mof_H 	H 	0.766	0.2959	0.6303	0.057
Mof_H 	H 	0.7646	0.3925	0.7215	0.054
Mof_H 	H 	0.6817	0.293	0.7343	0.064
Mof_H 	H 	0.9196	0.3742	0.6431	0.05
Mof_H 	H 	0.7622	0.4633	0.1305	0.066
Mof_H 	H 	0.6055	0.5991	0.3824	0.034
Mof_H 	H 	0.766	0.7041	0.3697	0.057
Mof_H 	H 	0.7646	0.6075	0.2785	0.053
Mof_H 	H 	0.6817	0.707	0.2657	0.064
Mof_H 	H 	0.9196	0.6258	0.3569	0.05
Mof_H 	H 	0.9205	0.616	0.884	0.042
Mof_H 	H 	0.6771	0.5293	0.9707	0.058
Mof_H 	H 	0.5942	0.6363	0.8637	0.058
Mof_H 	H 	0.9205	0.384	0.116	0.041
Mof_H 	H 	0.6771	0.4707	0.0293	0.061
Mof_H 	H 	0.5942	0.3637	0.1363	0.058
Mof_H 	H 	0.9205	0.116	0.616	0.042
Mof_H 	H 	0.6771	0.0293	0.5293	0.061
Mof_H 	H 	0.5942	0.1363	0.6363	0.058
Mof_H 	H 	0.9205	0.884	0.384	0.042
Mof_H 	H 	0.6771	0.9707	0.4707	0.058
Mof_H 	H 	0.5942	0.8637	0.3637	0.058
Mof_H 	H 	0.0795	0.884	0.384	0.073
Mof_H 	H 	0.3229	0.9707	0.4707	0.058
Mof_H 	H 	0.4058	0.8637	0.3637	0.058
Mof_H 	H 	0.0795	0.116	0.616	0.073
Mof_H 	H 	0.3229	0.0293	0.5293	0.061
Mof_H 	H 	0.4058	0.1363	0.6363	0.057
Mof_H 	H 	0.0795	0.384	0.116	0.073
Mof_H 	H 	0.3229	0.4707	0.0293	0.061
Mof_H 	H 	0.4058	0.3637	0.1363	0.057
Mof_H 	H 	0.0795	0.616	0.884	0.073
Mof_H 	H 	0.3229	0.5293	0.9707	0.058
Mof_H 	H 	0.4058	0.6363	0.8637	0.058
Mof_C 	C 	0.7409	0.6193	0.9359	-0.058
Mof_C 	C 	0.6758	0.6404	0.9155	-0.065
Mof_C 	C 	0.6402	0.6835	0.9341	0.34
Mof_C 	C 	0.646	0.8099	0.0542	0.407
Mof_C 	C 	0.6796	0.8284	0.0975	-0.115
Mof_C 	C 	0.6495	0.8665	0.1142	0.064
Mof_C 	C 	0.683	0.8827	0.1538	-0.124
Mof_C 	C 	0.7452	0.8592	0.1764	-0.018
Mof_C 	C 	0.7765	0.8211	0.1589	0.037
Mof_C 	C 	0.7433	0.8055	0.1196	-0.027
Mof_C 	C 	0.6454	0.9236	0.1731	0.453
Mof_C 	C 	0.843	0.797	0.1829	-0.117
Mof_C 	C 	0.8184	0.7638	0.2112	0.09
Mof_C 	C 	0.7312	0.753	0.2205	-0.075
Mof_C 	C 	0.9277	0.8068	0.175	0.102
Mof_C 	C 	0.9557	0.8387	0.1436	-0.017
Mof_C 	C 	0.7409	0.3807	0.0641	-0.058
Mof_C 	C 	0.6758	0.3596	0.0845	-0.066
Mof_C 	C 	0.6402	0.3165	0.0659	0.34
Mof_C 	C 	0.646	0.1901	0.9458	0.406
Mof_C 	C 	0.6796	0.1716	0.9025	-0.113
Mof_C 	C 	0.6495	0.1335	0.8858	0.063
Mof_C 	C 	0.683	0.1173	0.8462	-0.124
Mof_C 	C 	0.7452	0.1408	0.8236	-0.019
Mof_C 	C 	0.7765	0.1789	0.8411	0.038
Mof_C 	C 	0.7433	0.1945	0.8804	-0.028
Mof_C 	C 	0.6454	0.0764	0.8269	0.453
Mof_C 	C 	0.843	0.203	0.8171	-0.117
Mof_C 	C 	0.8184	0.2362	0.7888	0.09
Mof_C 	C 	0.7312	0.247	0.7795	-0.075
Mof_C 	C 	0.9277	0.1932	0.825	0.103
Mof_C 	C 	0.9557	0.1613	0.8564	-0.017
Mof_C 	C 	0.7409	0.0641	0.6193	-0.058
Mof_C 	C 	0.6758	0.0845	0.6404	-0.066
Mof_C 	C 	0.6402	0.0659	0.6835	0.34
Mof_C 	C 	0.646	0.9458	0.8099	0.406
Mof_C 	C 	0.6796	0.9025	0.8284	-0.113
Mof_C 	C 	0.6495	0.8858	0.8665	0.063
Mof_C 	C 	0.683	0.8462	0.8827	-0.123
Mof_C 	C 	0.7452	0.8236	0.8592	-0.019
Mof_C 	C 	0.7765	0.8411	0.8211	0.038
Mof_C 	C 	0.7433	0.8804	0.8055	-0.028
Mof_C 	C 	0.6454	0.8269	0.9236	0.453
Mof_C 	C 	0.843	0.8171	0.797	-0.117
Mof_C 	C 	0.8184	0.7888	0.7638	0.09
Mof_C 	C 	0.7312	0.7795	0.753	-0.075
Mof_C 	C 	0.9277	0.825	0.8068	0.103
Mof_C 	C 	0.9557	0.8564	0.8387	-0.017
Mof_C 	C 	0.7409	0.9359	0.3807	-0.058
Mof_C 	C 	0.6758	0.9155	0.3596	-0.065
Mof_C 	C 	0.6402	0.9341	0.3165	0.34
Mof_C 	C 	0.646	0.0542	0.1901	0.408
Mof_C 	C 	0.6796	0.0975	0.1716	-0.115
Mof_C 	C 	0.6495	0.1142	0.1335	0.064
Mof_C 	C 	0.683	0.1538	0.1173	-0.125
Mof_C 	C 	0.7452	0.1764	0.1408	-0.018
Mof_C 	C 	0.7765	0.1589	0.1789	0.037
Mof_C 	C 	0.7433	0.1196	0.1945	-0.027
Mof_C 	C 	0.6454	0.1731	0.0764	0.453
Mof_C 	C 	0.843	0.1829	0.203	-0.117
Mof_C 	C 	0.8184	0.2112	0.2362	0.09
Mof_C 	C 	0.7312	0.2205	0.247	-0.075
Mof_C 	C 	0.9277	0.175	0.1932	0.102
Mof_C 	C 	0.9557	0.1436	0.1613	-0.016
Mof_C 	C 	0.2591	0.8807	0.4359	-0.059
Mof_C 	C 	0.3242	0.8596	0.4155	-0.068
Mof_C 	C 	0.3598	0.8165	0.4341	0.34
Mof_C 	C 	0.354	0.6901	0.5542	0.406
Mof_C 	C 	0.3204	0.6716	0.5975	-0.117
Mof_C 	C 	0.3505	0.6335	0.6142	0.064
Mof_C 	C 	0.317	0.6173	0.6538	-0.128
Mof_C 	C 	0.2548	0.6408	0.6764	-0.019
Mof_C 	C 	0.2235	0.6789	0.6589	0.038
Mof_C 	C 	0.2567	0.6945	0.6196	-0.029
Mof_C 	C 	0.3546	0.5764	0.6731	0.453
Mof_C 	C 	0.157	0.703	0.6829	-0.127
Mof_C 	C 	0.1816	0.7362	0.7112	0.086
Mof_C 	C 	0.2688	0.747	0.7205	-0.076
Mof_C 	C 	0.0723	0.6932	0.675	0.104
Mof_C 	C 	0.0443	0.6613	0.6436	-0.142
Mof_C 	C 	0.2591	0.1193	0.5641	-0.059
Mof_C 	C 	0.3242	0.1404	0.5845	-0.069
Mof_C 	C 	0.3598	0.1835	0.5659	0.34
Mof_C 	C 	0.354	0.3099	0.4458	0.406
Mof_C 	C 	0.3204	0.3284	0.4025	-0.117
Mof_C 	C 	0.3505	0.3665	0.3858	0.064
Mof_C 	C 	0.317	0.3827	0.3462	-0.128
Mof_C 	C 	0.2548	0.3592	0.3236	-0.019
Mof_C 	C 	0.2235	0.3211	0.3411	0.038
Mof_C 	C 	0.2567	0.3055	0.3804	-0.028
Mof_C 	C 	0.3546	0.4236	0.3269	0.453
Mof_C 	C 	0.157	0.297	0.3171	-0.127
Mof_C 	C 	0.1816	0.2638	0.2888	0.085
Mof_C 	C 	0.2688	0.253	0.2795	-0.076
Mof_C 	C 	0.0723	0.3068	0.325	0.104
Mof_C 	C 	0.0443	0.3387	0.3564	-0.143
Mof_C 	C 	0.2591	0.4359	0.1193	-0.059
Mof_C 	C 	0.3242	0.4155	0.1404	-0.069
Mof_C 	C 	0.3598	0.4341	0.1835	0.34
Mof_C 	C 	0.354	0.5542	0.3099	0.406
Mof_C 	C 	0.3204	0.5975	0.3284	-0.117
Mof_C 	C 	0.3505	0.6142	0.3665	0.064
Mof_C 	C 	0.317	0.6538	0.3827	-0.128
Mof_C 	C 	0.2548	0.6764	0.3592	-0.019
Mof_C 	C 	0.2235	0.6589	0.3211	0.038
Mof_C 	C 	0.2567	0.6196	0.3055	-0.028
Mof_C 	C 	0.3546	0.6731	0.4236	0.453
Mof_C 	C 	0.157	0.6829	0.297	-0.127
Mof_C 	C 	0.1816	0.7112	0.2638	0.085
Mof_C 	C 	0.2688	0.7205	0.253	-0.076
Mof_C 	C 	0.0723	0.675	0.3068	0.104
Mof_C 	C 	0.0443	0.6436	0.3387	-0.142
Mof_C 	C 	0.2591	0.5641	0.8807	-0.059
Mof_C 	C 	0.3242	0.5845	0.8596	-0.068
Mof_C 	C 	0.3598	0.5659	0.8165	0.34
Mof_C 	C 	0.354	0.4458	0.6901	0.406
Mof_C 	C 	0.3204	0.4025	0.6716	-0.117
Mof_C 	C 	0.3505	0.3858	0.6335	0.064
Mof_C 	C 	0.317	0.3462	0.6173	-0.128
Mof_C 	C 	0.2548	0.3236	0.6408	-0.019
Mof_C 	C 	0.2235	0.3411	0.6789	0.038
Mof_C 	C 	0.2567	0.3804	0.6945	-0.029
Mof_C 	C 	0.3546	0.3269	0.5764	0.453
Mof_C 	C 	0.157	0.3171	0.703	-0.127
Mof_C 	C 	0.1816	0.2888	0.7362	0.086
Mof_C 	C 	0.2688	0.2795	0.747	-0.076
Mof_C 	C 	0.0723	0.325	0.6932	0.104
Mof_C 	C 	0.0443	0.3564	0.6613	-0.142
Mof_C 	C 	0.2591	0.3807	0.0641	-0.059
Mof_C 	C 	0.3242	0.3596	0.0845	-0.069
Mof_C 	C 	0.3598	0.3165	0.0659	0.34
Mof_C 	C 	0.354	0.1901	0.9458	0.406
Mof_C 	C 	0.3204	0.1716	0.9025	-0.116
Mof_C 	C 	0.3505	0.1335	0.8858	0.063
Mof_C 	C 	0.317	0.1173	0.8462	-0.128
Mof_C 	C 	0.2548	0.1408	0.8236	-0.019
Mof_C 	C 	0.2235	0.1789	0.8411	0.038
Mof_C 	C 	0.2567	0.1945	0.8804	-0.029
Mof_C 	C 	0.3546	0.0764	0.8269	0.453
Mof_C 	C 	0.157	0.203	0.8171	-0.127
Mof_C 	C 	0.1816	0.2362	0.7888	0.086
Mof_C 	C 	0.2688	0.247	0.7795	-0.076
Mof_C 	C 	0.0723	0.1932	0.825	0.104
Mof_C 	C 	0.0443	0.1613	0.8564	-0.142
Mof_C 	C 	0.2591	0.6193	0.9359	-0.059
Mof_C 	C 	0.3242	0.6404	0.9155	-0.068
Mof_C 	C 	0.3598	0.6835	0.9341	0.339
Mof_C 	C 	0.354	0.8099	0.0542	0.407
Mof_C 	C 	0.3204	0.8284	0.0975	-0.118
Mof_C 	C 	0.3505	0.8665	0.1142	0.064
Mof_C 	C 	0.317	0.8827	0.1538	-0.128
Mof_C 	C 	0.2548	0.8592	0.1764	-0.019
Mof_C 	C 	0.2235	0.8211	0.1589	0.037
Mof_C 	C 	0.2567	0.8055	0.1196	-0.028
Mof_C 	C 	0.3546	0.9236	0.1731	0.453
Mof_C 	C 	0.157	0.797	0.1829	-0.127
Mof_C 	C 	0.1816	0.7638	0.2112	0.085
Mof_C 	C 	0.2688	0.753	0.2205	-0.076
Mof_C 	C 	0.0723	0.8068	0.175	0.104
Mof_C 	C 	0.0443	0.8387	0.1436	-0.142
Mof_C 	C 	0.2591	0.9359	0.3807	-0.059
Mof_C 	C 	0.3242	0.9155	0.3596	-0.068
Mof_C 	C 	0.3598	0.9341	0.3165	0.339
Mof_C 	C 	0.354	0.0542	0.1901	0.407
Mof_C 	C 	0.3204	0.0975	0.1716	-0.119
Mof_C 	C 	0.3505	0.1142	0.1335	0.064
Mof_C 	C 	0.317	0.1538	0.1173	-0.129
Mof_C 	C 	0.2548	0.1764	0.1408	-0.019
Mof_C 	C 	0.2235	0.1589	0.1789	0.037
Mof_C 	C 	0.2567	0.1196	0.1945	-0.028
Mof_C 	C 	0.3546	0.1731	0.0764	0.453
Mof_C 	C 	0.157	0.1829	0.203	-0.127
Mof_C 	C 	0.1816	0.2112	0.2362	0.085
Mof_C 	C 	0.2688	0.2205	0.247	-0.076
Mof_C 	C 	0.0723	0.175	0.1932	0.104
Mof_C 	C 	0.0443	0.1436	0.1613	-0.143
Mof_C 	C 	0.2591	0.0641	0.6193	-0.059
Mof_C 	C 	0.3242	0.0845	0.6404	-0.069
Mof_C 	C 	0.3598	0.0659	0.6835	0.34
Mof_C 	C 	0.354	0.9458	0.8099	0.406
Mof_C 	C 	0.3204	0.9025	0.8284	-0.116
Mof_C 	C 	0.3505	0.8858	0.8665	0.063
Mof_C 	C 	0.317	0.8462	0.8827	-0.127
Mof_C 	C 	0.2548	0.8236	0.8592	-0.02
Mof_C 	C 	0.2235	0.8411	0.8211	0.038
Mof_C 	C 	0.2567	0.8804	0.8055	-0.029
Mof_C 	C 	0.3546	0.8269	0.9236	0.452
Mof_C 	C 	0.157	0.8171	0.797	-0.127
Mof_C 	C 	0.1816	0.7888	0.7638	0.086
Mof_C 	C 	0.2688	0.7795	0.753	-0.076
Mof_C 	C 	0.0723	0.825	0.8068	0.104
Mof_C 	C 	0.0443	0.8564	0.8387	-0.141
Mof_C 	C 	0.7409	0.1193	0.5641	-0.058
Mof_C 	C 	0.6758	0.1404	0.5845	-0.066
Mof_C 	C 	0.6402	0.1835	0.5659	0.34
Mof_C 	C 	0.646	0.3099	0.4458	0.407
Mof_C 	C 	0.6796	0.3284	0.4025	-0.114
Mof_C 	C 	0.6495	0.3665	0.3858	0.063
Mof_C 	C 	0.683	0.3827	0.3462	-0.124
Mof_C 	C 	0.7452	0.3592	0.3236	-0.018
Mof_C 	C 	0.7765	0.3211	0.3411	0.038
Mof_C 	C 	0.7433	0.3055	0.3804	-0.027
Mof_C 	C 	0.6454	0.4236	0.3269	0.453
Mof_C 	C 	0.843	0.297	0.3171	-0.117
Mof_C 	C 	0.8184	0.2638	0.2888	0.09
Mof_C 	C 	0.7312	0.253	0.2795	-0.075
Mof_C 	C 	0.9277	0.3068	0.325	0.103
Mof_C 	C 	0.9557	0.3387	0.3564	-0.016
Mof_C 	C 	0.7409	0.8807	0.4359	-0.058
Mof_C 	C 	0.6758	0.8596	0.4155	-0.065
Mof_C 	C 	0.6402	0.8165	0.4341	0.34
Mof_C 	C 	0.646	0.6901	0.5542	0.407
Mof_C 	C 	0.6796	0.6716	0.5975	-0.114
Mof_C 	C 	0.6495	0.6335	0.6142	0.063
Mof_C 	C 	0.683	0.6173	0.6538	-0.124
Mof_C 	C 	0.7452	0.6408	0.6764	-0.018
Mof_C 	C 	0.7765	0.6789	0.6589	0.038
Mof_C 	C 	0.7433	0.6945	0.6196	-0.027
Mof_C 	C 	0.6454	0.5764	0.6731	0.453
Mof_C 	C 	0.843	0.703	0.6829	-0.117
Mof_C 	C 	0.8184	0.7362	0.7112	0.09
Mof_C 	C 	0.7312	0.747	0.7205	-0.075
Mof_C 	C 	0.9277	0.6932	0.675	0.102
Mof_C 	C 	0.9557	0.6613	0.6436	-0.017
Mof_C 	C 	0.7409	0.5641	0.8807	-0.058
Mof_C 	C 	0.6758	0.5845	0.8596	-0.065
Mof_C 	C 	0.6402	0.5659	0.8165	0.34
Mof_C 	C 	0.646	0.4458	0.6901	0.407
Mof_C 	C 	0.6796	0.4025	0.6716	-0.114
Mof_C 	C 	0.6495	0.3858	0.6335	0.063
Mof_C 	C 	0.683	0.3462	0.6173	-0.124
Mof_C 	C 	0.7452	0.3236	0.6408	-0.018
Mof_C 	C 	0.7765	0.3411	0.6789	0.038
Mof_C 	C 	0.7433	0.3804	0.6945	-0.027
Mof_C 	C 	0.6454	0.3269	0.5764	0.453
Mof_C 	C 	0.843	0.3171	0.703	-0.117
Mof_C 	C 	0.8184	0.2888	0.7362	0.09
Mof_C 	C 	0.7312	0.2795	0.747	-0.075
Mof_C 	C 	0.9277	0.325	0.6932	0.102
Mof_C 	C 	0.9557	0.3564	0.6613	-0.017
Mof_C 	C 	0.7409	0.4359	0.1193	-0.058
Mof_C 	C 	0.6758	0.4155	0.1404	-0.066
Mof_C 	C 	0.6402	0.4341	0.1835	0.34
Mof_C 	C 	0.646	0.5542	0.3099	0.407
Mof_C 	C 	0.6796	0.5975	0.3284	-0.114
Mof_C 	C 	0.6495	0.6142	0.3665	0.063
Mof_C 	C 	0.683	0.6538	0.3827	-0.124
Mof_C 	C 	0.7452	0.6764	0.3592	-0.018
Mof_C 	C 	0.7765	0.6589	0.3211	0.038
Mof_C 	C 	0.7433	0.6196	0.3055	-0.027
Mof_C 	C 	0.6454	0.6731	0.4236	0.453
Mof_C 	C 	0.843	0.6829	0.297	-0.117
Mof_C 	C 	0.8184	0.7112	0.2638	0.09
Mof_C 	C 	0.7312	0.7205	0.253	-0.075
Mof_C 	C 	0.9277	0.675	0.3068	0.102
Mof_C 	C 	0.9557	0.6436	0.3387	-0.017
Mof_C 	C 	0.9567	0.598	0.902	-0.009
Mof_C 	C 	0.9286	0.5661	0.9339	0.09
Mof_C 	C 	0.8429	0.5573	0.9427	-0.109
Mof_C 	C 	0.8167	0.5258	0.9742	0.081
Mof_C 	C 	0.7263	0.516	0.984	-0.065
Mof_C 	C 	0.7771	0.5821	0.9179	0.057
Mof_C 	C 	0.6419	0.6224	0.8776	0.003
Mof_C 	C 	0.9567	0.402	0.098	-0.008
Mof_C 	C 	0.9286	0.4339	0.0661	0.09
Mof_C 	C 	0.8429	0.4427	0.0573	-0.11
Mof_C 	C 	0.8167	0.4742	0.0258	0.081
Mof_C 	C 	0.7263	0.484	0.016	-0.08
Mof_C 	C 	0.7771	0.4179	0.0821	0.056
Mof_C 	C 	0.6419	0.3776	0.1224	0.003
Mof_C 	C 	0.9567	0.098	0.598	-0.008
Mof_C 	C 	0.9286	0.0661	0.5661	0.09
Mof_C 	C 	0.8429	0.0573	0.5573	-0.11
Mof_C 	C 	0.8167	0.0258	0.5258	0.081
Mof_C 	C 	0.7263	0.016	0.516	-0.08
Mof_C 	C 	0.7771	0.0821	0.5821	0.056
Mof_C 	C 	0.6419	0.1224	0.6224	0.003
Mof_C 	C 	0.9567	0.902	0.402	-0.009
Mof_C 	C 	0.9286	0.9339	0.4339	0.09
Mof_C 	C 	0.8429	0.9427	0.4427	-0.109
Mof_C 	C 	0.8167	0.9742	0.4742	0.081
Mof_C 	C 	0.7263	0.984	0.484	-0.065
Mof_C 	C 	0.7771	0.9179	0.4179	0.057
Mof_C 	C 	0.6419	0.8776	0.3776	0.003
Mof_C 	C 	0.0433	0.902	0.402	-0.145
Mof_C 	C 	0.0714	0.9339	0.4339	0.094
Mof_C 	C 	0.1571	0.9427	0.4427	-0.12
Mof_C 	C 	0.1833	0.9742	0.4742	0.077
Mof_C 	C 	0.2737	0.984	0.484	-0.066
Mof_C 	C 	0.2229	0.9179	0.4179	0.057
Mof_C 	C 	0.3581	0.8776	0.3776	0.003
Mof_C 	C 	0.0433	0.098	0.598	-0.146
Mof_C 	C 	0.0714	0.0661	0.5661	0.093
Mof_C 	C 	0.1571	0.0573	0.5573	-0.121
Mof_C 	C 	0.1833	0.0258	0.5258	0.077
Mof_C 	C 	0.2737	0.016	0.516	-0.082
Mof_C 	C 	0.2229	0.0821	0.5821	0.056
Mof_C 	C 	0.3581	0.1224	0.6224	0.004
Mof_C 	C 	0.0433	0.402	0.098	-0.146
Mof_C 	C 	0.0714	0.4339	0.0661	0.093
Mof_C 	C 	0.1571	0.4427	0.0573	-0.121
Mof_C 	C 	0.1833	0.4742	0.0258	0.077
Mof_C 	C 	0.2737	0.484	0.016	-0.082
Mof_C 	C 	0.2229	0.4179	0.0821	0.056
Mof_C 	C 	0.3581	0.3776	0.1224	0.004
Mof_C 	C 	0.0433	0.598	0.902	-0.144
Mof_C 	C 	0.0714	0.5661	0.9339	0.094
Mof_C 	C 	0.1571	0.5573	0.9427	-0.12
Mof_C 	C 	0.1833	0.5258	0.9742	0.077
Mof_C 	C 	0.2737	0.516	0.984	-0.066
Mof_C 	C 	0.2229	0.5821	0.9179	0.057
Mof_C 	C 	0.3581	0.6224	0.8776	0.003
Mof_N 	N 	0.8769	0.5	-0	-0.275
Mof_N 	N 	0.8769	3.58384e-33	0.5	-0.275
Mof_N 	N 	0.1231	3.58384e-33	0.5	-0.288
Mof_N 	N 	0.1231	0.5	-0	-0.288
Mof_N 	N 	-7.35869e-33	0.5448	0.9552	-0.302
Mof_N 	N 	-5.68746e-34	0.4552	0.0448	-0.304
Mof_N 	N 	-1.03562e-32	0.0448	0.5448	-0.304
Mof_N 	N 	3.32472e-33	0.9552	0.4552	-0.302
Mof_N 	N 	0.8741	0.739	0.239	-0.273
Mof_N 	N 	0.8741	0.261	0.761	-0.273
Mof_N 	N 	0.8741	0.761	0.739	-0.273
Mof_N 	N 	0.8741	0.239	0.261	-0.273
Mof_N 	N 	0.1259	0.761	0.739	-0.285
Mof_N 	N 	0.1259	0.239	0.261	-0.285
Mof_N 	N 	0.1259	0.739	0.239	-0.285
Mof_N 	N 	0.1259	0.261	0.761	-0.285
Mof_N 	N 	-5.75364e-33	0.7875	0.1936	-0.298
Mof_N 	N 	5.88984e-33	0.2125	0.8064	-0.298
Mof_N 	N 	-8.58355e-33	0.8064	0.7875	-0.298
Mof_N 	N 	1.55207e-33	0.1936	0.2125	-0.298
Mof_N 	N 	1.94013e-32	0.7125	0.6936	-0.298
Mof_N 	N 	2.23791e-33	0.2875	0.3064	-0.298
Mof_N 	N 	-5.06781e-33	0.6936	0.2875	-0.298
Mof_N 	N 	5.20401e-33	0.3064	0.7125	-0.298
Mof_O 	O 	0.6671	0.6977	0.9721	-0.448
Mof_O 	O 	0.5883	0.7073	0.9176	-0.317
Mof_O 	O 	0.6643	0.7741	0.0386	-0.493
Mof_O 	O 	0.5955	0.8376	0.035	-0.464
Mof_O 	O 	0.5898	0.9417	0.1515	-0.47
Mof_O 	O 	0.6712	0.9365	0.2095	-0.464
Mof_O 	O 	0.6671	0.3023	0.0279	-0.45
Mof_O 	O 	0.5883	0.2927	0.0824	-0.318
Mof_O 	O 	0.6643	0.2259	0.9614	-0.488
Mof_O 	O 	0.5955	0.1624	0.965	-0.461
Mof_O 	O 	0.5898	0.0583	0.8485	-0.471
Mof_O 	O 	0.6712	0.0635	0.7905	-0.465
Mof_O 	O 	0.6671	0.0279	0.6977	-0.45
Mof_O 	O 	0.5883	0.0824	0.7073	-0.318
Mof_O 	O 	0.6643	0.9614	0.7741	-0.488
Mof_O 	O 	0.5955	0.965	0.8376	-0.46
Mof_O 	O 	0.5898	0.8485	0.9417	-0.47
Mof_O 	O 	0.6712	0.7905	0.9365	-0.464
Mof_O 	O 	0.6671	0.9721	0.3023	-0.448
Mof_O 	O 	0.5883	0.9176	0.2927	-0.317
Mof_O 	O 	0.6643	0.0386	0.2259	-0.493
Mof_O 	O 	0.5955	0.035	0.1624	-0.465
Mof_O 	O 	0.5898	0.1515	0.0583	-0.472
Mof_O 	O 	0.6712	0.2095	0.0635	-0.466
Mof_O 	O 	0.3329	0.8023	0.4721	-0.453
Mof_O 	O 	0.4117	0.7927	0.4176	-0.318
Mof_O 	O 	0.3357	0.7259	0.5386	-0.495
Mof_O 	O 	0.4045	0.6624	0.535	-0.464
Mof_O 	O 	0.4102	0.5583	0.6515	-0.472
Mof_O 	O 	0.3288	0.5635	0.7095	-0.469
Mof_O 	O 	0.3329	0.1977	0.5279	-0.453
Mof_O 	O 	0.4117	0.2073	0.5824	-0.318
Mof_O 	O 	0.3357	0.2741	0.4614	-0.495
Mof_O 	O 	0.4045	0.3376	0.465	-0.464
Mof_O 	O 	0.4102	0.4417	0.3485	-0.472
Mof_O 	O 	0.3288	0.4365	0.2905	-0.469
Mof_O 	O 	0.3329	0.4721	0.1977	-0.453
Mof_O 	O 	0.4117	0.4176	0.2073	-0.318
Mof_O 	O 	0.3357	0.5386	0.2741	-0.495
Mof_O 	O 	0.4045	0.535	0.3376	-0.464
Mof_O 	O 	0.4102	0.6515	0.4417	-0.472
Mof_O 	O 	0.3288	0.7095	0.4365	-0.469
Mof_O 	O 	0.3329	0.5279	0.8023	-0.453
Mof_O 	O 	0.4117	0.5824	0.7927	-0.318
Mof_O 	O 	0.3357	0.4614	0.7259	-0.495
Mof_O 	O 	0.4045	0.465	0.6624	-0.464
Mof_O 	O 	0.4102	0.3485	0.5583	-0.472
Mof_O 	O 	0.3288	0.2905	0.5635	-0.469
Mof_O 	O 	0.3329	0.3023	0.0279	-0.454
Mof_O 	O 	0.4117	0.2927	0.0824	-0.318
Mof_O 	O 	0.3357	0.2259	0.9614	-0.492
Mof_O 	O 	0.4045	0.1624	0.965	-0.462
Mof_O 	O 	0.4102	0.0583	0.8485	-0.473
Mof_O 	O 	0.3288	0.0635	0.7905	-0.469
Mof_O 	O 	0.3329	0.6977	0.9721	-0.451
Mof_O 	O 	0.4117	0.7073	0.9176	-0.318
Mof_O 	O 	0.3357	0.7741	0.0386	-0.497
Mof_O 	O 	0.4045	0.8376	0.035	-0.466
Mof_O 	O 	0.4102	0.9417	0.1515	-0.472
Mof_O 	O 	0.3288	0.9365	0.2095	-0.468
Mof_O 	O 	0.3329	0.9721	0.3023	-0.451
Mof_O 	O 	0.4117	0.9176	0.2927	-0.318
Mof_O 	O 	0.3357	0.0386	0.2259	-0.497
Mof_O 	O 	0.4045	0.035	0.1624	-0.467
Mof_O 	O 	0.4102	0.1515	0.0583	-0.474
Mof_O 	O 	0.3288	0.2095	0.0635	-0.47
Mof_O 	O 	0.3329	0.0279	0.6977	-0.454
Mof_O 	O 	0.4117	0.0824	0.7073	-0.318
Mof_O 	O 	0.3357	0.9614	0.7741	-0.492
Mof_O 	O 	0.4045	0.965	0.8376	-0.462
Mof_O 	O 	0.4102	0.8485	0.9417	-0.471
Mof_O 	O 	0.3288	0.7905	0.9365	-0.468
Mof_O 	O 	0.6671	0.1977	0.5279	-0.449
Mof_O 	O 	0.5883	0.2073	0.5824	-0.318
Mof_O 	O 	0.6643	0.2741	0.4614	-0.491
Mof_O 	O 	0.5955	0.3376	0.465	-0.463
Mof_O 	O 	0.5898	0.4417	0.3485	-0.471
Mof_O 	O 	0.6712	0.4365	0.2905	-0.465
Mof_O 	O 	0.6671	0.8023	0.4721	-0.449
Mof_O 	O 	0.5883	0.7927	0.4176	-0.317
Mof_O 	O 	0.6643	0.7259	0.5386	-0.491
Mof_O 	O 	0.5955	0.6624	0.535	-0.463
Mof_O 	O 	0.5898	0.5583	0.6515	-0.471
Mof_O 	O 	0.6712	0.5635	0.7095	-0.465
Mof_O 	O 	0.6671	0.5279	0.8023	-0.449
Mof_O 	O 	0.5883	0.5824	0.7927	-0.317
Mof_O 	O 	0.6643	0.4614	0.7259	-0.491
Mof_O 	O 	0.5955	0.465	0.6624	-0.463
Mof_O 	O 	0.5898	0.3485	0.5583	-0.471
Mof_O 	O 	0.6712	0.2905	0.5635	-0.465
Mof_O 	O 	0.6671	0.4721	0.1977	-0.449
Mof_O 	O 	0.5883	0.4176	0.2073	-0.318
Mof_O 	O 	0.6643	0.5386	0.2741	-0.491
Mof_O 	O 	0.5955	0.535	0.3376	-0.463
Mof_O 	O 	0.5898	0.6515	0.4417	-0.471
Mof_O 	O 	0.6712	0.7095	0.4365	-0.465
Mof_O 	O 	0.5	0.7706	0.9793	-0.614
Mof_O 	O 	0.5	0.2294	0.0207	-0.616
Mof_O 	O 	0.5	0.0207	0.7706	-0.616
Mof_O 	O 	0.5	0.9793	0.2294	-0.614
Mof_O 	O 	0.5	0.7294	0.4793	-0.615
Mof_O 	O 	0.5	0.2706	0.5207	-0.615
Mof_O 	O 	0.5	0.4793	0.2706	-0.615
Mof_O 	O 	0.5	0.5207	0.7294	-0.615
_end
