data_functionalizedCrystal
_audit_creation_method	'EQeq! by Chris Wilmer'
_symmetry_space_group_name_H-M	'P1'
_symmetry_Int_Tables_number	1
_symmetry_cell_setting	triclinic
loop_
_symmetry_equiv_pos_as_xyz
  x,y,z
_cell_length_a	17.9958
_cell_length_b	12.8531
_cell_length_c	11.0394
_cell_angle_alpha	90
_cell_angle_beta	103.588
_cell_angle_gamma	90
loop_
_atom_site_label
_atom_site_type_symbol
_atom_site_fract_x
_atom_site_fract_y
_atom_site_fract_z
_atom_site_charge
Mof_Mg	Mg	0.41464	0.53577	0.45809	1.476
Mof_O 	O 	0.52131	0.58608	0.44628	-1.16
Mof_H 	H 	0.5372	0.6362	0.474	0.521
Mof_O 	O 	0.36506	0.41384	0.09729	-0.51
Mof_O 	O 	0.08303	0.20798	0.27519	-0.559
Mof_O 	O 	0.14517	0.1652	0.12839	-0.506
Mof_O 	O 	0.4233	0.48576	0.27891	-0.662
Mof_C 	C 	0.30926	0.39449	0.27046	-0.101
Mof_N 	N 	0.31386	0.43302	0.38578	-0.202
Mof_C 	C 	0.13655	0.21628	0.22092	0.409
Mof_C 	C 	0.25285	0.32559	0.21243	0.038
Mof_H 	H 	0.2539	0.2994	0.132	0.04
Mof_C 	C 	0.19803	0.29536	0.27529	-0.112
Mof_C 	C 	0.20159	0.33673	0.39237	-0.021
Mof_H 	H 	0.1646	0.3194	0.436	0.03
Mof_C 	C 	0.37057	0.43374	0.20905	0.437
Mof_C 	C 	0.26001	0.40442	0.44415	0.014
Mof_H 	H 	0.2641	0.4341	0.526	0.013
Mof_Mg	Mg	0.91464	0.03577	0.45809	1.48
Mof_O 	O 	0.02131	0.08608	0.44628	-1.25
Mof_H 	H 	0.0372	0.1362	0.474	0.527
Mof_O 	O 	0.86506	0.91384	0.09729	-0.477
Mof_O 	O 	0.58303	0.70798	0.27519	-0.511
Mof_O 	O 	0.64517	0.6652	0.12839	-0.477
Mof_O 	O 	0.9233	0.98576	0.27891	-0.605
Mof_C 	C 	0.80926	0.89449	0.27046	-0.082
Mof_N 	N 	0.81386	0.93302	0.38578	-0.202
Mof_C 	C 	0.63655	0.71628	0.22092	0.404
Mof_C 	C 	0.75285	0.82559	0.21243	0.031
Mof_H 	H 	0.7539	0.7994	0.132	0.053
Mof_C 	C 	0.69803	0.79536	0.27529	-0.09
Mof_C 	C 	0.70159	0.83673	0.39237	-0.028
Mof_H 	H 	0.6646	0.8194	0.436	0.046
Mof_C 	C 	0.87057	0.93374	0.20905	0.427
Mof_C 	C 	0.76001	0.90442	0.44415	0.027
Mof_H 	H 	0.7641	0.9341	0.526	0.014
Mof_Mg	Mg	0.58536	0.53577	0.04191	1.476
Mof_O 	O 	0.47869	0.58608	0.05372	-1.162
Mof_H 	H 	0.4628	0.6362	0.026	0.522
Mof_O 	O 	0.63494	0.41384	0.40271	-0.505
Mof_O 	O 	0.91697	0.20798	0.22481	-0.462
Mof_O 	O 	0.85483	0.1652	0.37161	-0.459
Mof_O 	O 	0.5767	0.48576	0.22109	-0.661
Mof_C 	C 	0.69074	0.39449	0.22954	-0.091
Mof_N 	N 	0.68614	0.43302	0.11422	-0.204
Mof_C 	C 	0.86345	0.21628	0.27908	0.4
Mof_C 	C 	0.74715	0.32559	0.28757	0.031
Mof_H 	H 	0.7461	0.2994	0.368	0.051
Mof_C 	C 	0.80197	0.29536	0.22471	-0.08
Mof_C 	C 	0.79841	0.33673	0.10763	-0.032
Mof_H 	H 	0.8354	0.3194	0.064	0.061
Mof_C 	C 	0.62943	0.43374	0.29095	0.435
Mof_C 	C 	0.73999	0.40442	0.05585	0.036
Mof_H 	H 	0.7359	0.4341	0.974	0.017
Mof_Mg	Mg	0.08536	0.03577	0.04191	1.47
Mof_O 	O 	0.97869	0.08608	0.05372	-1.072
Mof_H 	H 	0.9628	0.1362	0.026	0.514
Mof_O 	O 	0.13494	0.91384	0.40271	-0.53
Mof_O 	O 	0.41697	0.70798	0.22481	-0.511
Mof_O 	O 	0.35483	0.6652	0.37161	-0.483
Mof_O 	O 	0.0767	0.98576	0.22109	-0.708
Mof_C 	C 	0.19074	0.89449	0.22954	-0.105
Mof_N 	N 	0.18614	0.93302	0.11422	-0.205
Mof_C 	C 	0.36345	0.71628	0.27908	0.404
Mof_C 	C 	0.24715	0.82559	0.28757	0.034
Mof_H 	H 	0.2461	0.7994	0.368	0.042
Mof_C 	C 	0.30197	0.79536	0.22471	-0.096
Mof_C 	C 	0.29841	0.83673	0.10763	-0.031
Mof_H 	H 	0.3354	0.8194	0.064	0.049
Mof_C 	C 	0.12943	0.93374	0.29095	0.442
Mof_C 	C 	0.23999	0.90442	0.05585	0.035
Mof_H 	H 	0.2359	0.9341	0.974	0.008
Mof_Mg	Mg	0.58536	0.46423	0.54191	1.476
Mof_O 	O 	0.47869	0.41392	0.55372	-1.162
Mof_H 	H 	0.4628	0.3638	0.526	0.521
Mof_O 	O 	0.63494	0.58616	0.90271	-0.507
Mof_O 	O 	0.91697	0.79202	0.72481	-0.464
Mof_O 	O 	0.85483	0.8348	0.87161	-0.463
Mof_O 	O 	0.5767	0.51424	0.72109	-0.661
Mof_C 	C 	0.69074	0.60551	0.72954	-0.092
Mof_N 	N 	0.68614	0.56698	0.61422	-0.204
Mof_C 	C 	0.86345	0.78372	0.77908	0.401
Mof_C 	C 	0.74715	0.67441	0.78757	0.032
Mof_H 	H 	0.7461	0.7006	0.868	0.049
Mof_C 	C 	0.80197	0.70464	0.72471	-0.082
Mof_C 	C 	0.79841	0.66327	0.60763	-0.029
Mof_H 	H 	0.8354	0.6806	0.564	0.06
Mof_C 	C 	0.62943	0.56626	0.79095	0.436
Mof_C 	C 	0.73999	0.59558	0.55585	0.032
Mof_H 	H 	0.7359	0.5659	0.474	0.019
Mof_Mg	Mg	0.08536	0.96423	0.54191	1.47
Mof_O 	O 	0.97869	0.91392	0.55372	-1.071
Mof_H 	H 	0.9628	0.8638	0.526	0.514
Mof_O 	O 	0.13494	0.08616	0.90271	-0.524
Mof_O 	O 	0.41697	0.29202	0.72481	-0.512
Mof_O 	O 	0.35483	0.3348	0.87161	-0.482
Mof_O 	O 	0.0767	0.01424	0.72109	-0.707
Mof_C 	C 	0.19074	0.10551	0.72954	-0.105
Mof_N 	N 	0.18614	0.06698	0.61422	-0.204
Mof_C 	C 	0.36345	0.28372	0.77908	0.405
Mof_C 	C 	0.24715	0.17441	0.78757	0.036
Mof_H 	H 	0.2461	0.2006	0.868	0.043
Mof_C 	C 	0.30197	0.20464	0.72471	-0.099
Mof_C 	C 	0.29841	0.16327	0.60763	-0.024
Mof_H 	H 	0.3354	0.1806	0.564	0.045
Mof_C 	C 	0.12943	0.06626	0.79095	0.442
Mof_C 	C 	0.23999	0.09558	0.55585	0.021
Mof_H 	H 	0.2359	0.0659	0.474	0.017
Mof_Mg	Mg	0.41464	0.46423	0.95809	1.476
Mof_O 	O 	0.52131	0.41392	0.94628	-1.162
Mof_H 	H 	0.5372	0.3638	0.974	0.521
Mof_O 	O 	0.36506	0.58616	0.59729	-0.509
Mof_O 	O 	0.08303	0.79202	0.77519	-0.558
Mof_O 	O 	0.14517	0.8348	0.62839	-0.503
Mof_O 	O 	0.4233	0.51424	0.77891	-0.662
Mof_C 	C 	0.30926	0.60551	0.77046	-0.101
Mof_N 	N 	0.31386	0.56698	0.88578	-0.203
Mof_C 	C 	0.13655	0.78372	0.72092	0.408
Mof_C 	C 	0.25285	0.67441	0.71243	0.037
Mof_H 	H 	0.2539	0.7006	0.632	0.041
Mof_C 	C 	0.19803	0.70464	0.77529	-0.111
Mof_C 	C 	0.20159	0.66327	0.89237	-0.022
Mof_H 	H 	0.1646	0.6806	0.936	0.03
Mof_C 	C 	0.37057	0.56626	0.70905	0.436
Mof_C 	C 	0.26001	0.59558	0.94415	0.015
Mof_H 	H 	0.2641	0.5659	0.026	0.013
Mof_Mg	Mg	0.91464	0.96423	0.95809	1.479
Mof_O 	O 	0.02131	0.91392	0.94628	-1.251
Mof_H 	H 	0.0372	0.8638	0.974	0.527
Mof_O 	O 	0.86506	0.08616	0.59729	-0.483
Mof_O 	O 	0.58303	0.29202	0.77519	-0.511
Mof_O 	O 	0.64517	0.3348	0.62839	-0.478
Mof_O 	O 	0.9233	0.01424	0.77891	-0.607
Mof_C 	C 	0.80926	0.10551	0.77046	-0.083
Mof_N 	N 	0.81386	0.06698	0.88578	-0.204
Mof_C 	C 	0.63655	0.28372	0.72092	0.403
Mof_C 	C 	0.75285	0.17441	0.71243	0.03
Mof_H 	H 	0.7539	0.2006	0.632	0.052
Mof_C 	C 	0.69803	0.20464	0.77529	-0.089
Mof_C 	C 	0.70159	0.16327	0.89237	-0.033
Mof_H 	H 	0.6646	0.1806	0.936	0.049
Mof_C 	C 	0.87057	0.06626	0.70905	0.428
Mof_C 	C 	0.76001	0.09558	0.94415	0.037
Mof_H 	H 	0.7641	0.0659	0.026	0.007
Mof_Mg	Mg	0.5	0.59773	0.25	1.48
Mof_Mg	Mg	5.72565e-18	0.09773	0.25	1.466
Mof_Mg	Mg	0.5	0.40227	0.75	1.48
Mof_Mg	Mg	2.29026e-17	0.90227	0.75	1.466
_end
