data_functionalizedCrystal
_audit_creation_method	'EQeq! by Chris Wilmer'
_symmetry_space_group_name_H-M	'P1'
_symmetry_Int_Tables_number	1
_symmetry_cell_setting	triclinic
loop_
_symmetry_equiv_pos_as_xyz
  x,y,z
_cell_length_a	22.045
_cell_length_b	22.045
_cell_length_c	21.768
_cell_angle_alpha	90
_cell_angle_beta	90
_cell_angle_gamma	120
loop_
_atom_site_label
_atom_site_type_symbol
_atom_site_fract_x
_atom_site_fract_y
_atom_site_fract_z
_atom_site_charge
Mof_O 	O 	0.59406	0.20389	0.18512	-0.689
Mof_O 	O 	0.53641	0.2637	0.1858	-0.689
Mof_C 	C 	0.5486	0.2171	0.1662	0.614
Mof_C 	C 	0.5036	0.1736	0.1139	-0.223
Mof_C 	C 	0.5172	0.126	0.0857	0.129
Mof_H 	H 	0.5557	0.1219	0.0999	0.014
Mof_N 	N 	0.4783	0.0846	0.0387	-0.182
Mof_C 	C 	0.4229	0.0907	0.0212	0.03
Mof_H 	H 	0.3939	0.0611	0.9892	0.054
Mof_C 	C 	0.4058	0.1371	0.0467	-0.13
Mof_H 	H 	0.3667	0.1399	0.0319	0.062
Mof_C 	C 	0.4465	0.1799	0.0945	0.099
Mof_H 	H 	0.4358	0.2123	0.1134	0.007
Mof_O 	O 	0.79611	0.39017	0.18512	-0.69
Mof_O 	O 	0.7363	0.27271	0.1858	-0.69
Mof_C 	C 	0.7829	0.3315	0.1662	0.613
Mof_C 	C 	0.8264	0.33	0.1139	-0.225
Mof_C 	C 	0.874	0.3912	0.0857	0.128
Mof_H 	H 	0.8781	0.4338	0.0999	0.013
Mof_N 	N 	0.9154	0.3937	0.0387	-0.183
Mof_C 	C 	0.9093	0.3322	0.0212	0.033
Mof_H 	H 	0.9389	0.3328	0.9892	0.051
Mof_C 	C 	0.8629	0.2687	0.0467	-0.131
Mof_H 	H 	0.8601	0.2268	0.0319	0.063
Mof_C 	C 	0.8201	0.2666	0.0945	0.1
Mof_H 	H 	0.7877	0.2235	0.1134	0.007
Mof_O 	O 	0.60983	0.40594	0.18512	-0.69
Mof_O 	O 	0.72729	0.46359	0.1858	-0.69
Mof_C 	C 	0.6685	0.4514	0.1662	0.613
Mof_C 	C 	0.67	0.4964	0.1139	-0.225
Mof_C 	C 	0.6088	0.4828	0.0857	0.128
Mof_H 	H 	0.5662	0.4443	0.0999	0.013
Mof_N 	N 	0.6063	0.5217	0.0387	-0.183
Mof_C 	C 	0.6678	0.5771	0.0212	0.031
Mof_H 	H 	0.6672	0.6061	0.9892	0.052
Mof_C 	C 	0.7313	0.5942	0.0467	-0.131
Mof_H 	H 	0.7732	0.6333	0.0319	0.062
Mof_C 	C 	0.7334	0.5535	0.0945	0.1
Mof_H 	H 	0.7765	0.5642	0.1134	0.007
Mof_O 	O 	0.40594	0.79611	0.68512	-0.69
Mof_O 	O 	0.46359	0.7363	0.6858	-0.691
Mof_C 	C 	0.4514	0.7829	0.6662	0.618
Mof_C 	C 	0.4964	0.8264	0.6139	-0.235
Mof_C 	C 	0.4828	0.874	0.5857	0.138
Mof_H 	H 	0.4443	0.8781	0.5999	0.012
Mof_N 	N 	0.5217	0.9154	0.5387	-0.193
Mof_C 	C 	0.5771	0.9093	0.5212	0.099
Mof_H 	H 	0.6061	0.9389	0.4892	0.01
Mof_C 	C 	0.5942	0.8629	0.5467	-0.168
Mof_H 	H 	0.6333	0.8601	0.5319	0.085
Mof_C 	C 	0.5535	0.8201	0.5945	0.124
Mof_H 	H 	0.5642	0.7877	0.6134	0.002
Mof_O 	O 	0.20389	0.60983	0.68512	-0.69
Mof_O 	O 	0.2637	0.72729	0.6858	-0.691
Mof_C 	C 	0.2171	0.6685	0.6662	0.618
Mof_C 	C 	0.1736	0.67	0.6139	-0.235
Mof_C 	C 	0.126	0.6088	0.5857	0.138
Mof_H 	H 	0.1219	0.5662	0.5999	0.012
Mof_N 	N 	0.0846	0.6063	0.5387	-0.193
Mof_C 	C 	0.0907	0.6678	0.5212	0.099
Mof_H 	H 	0.0611	0.6672	0.4892	0.011
Mof_C 	C 	0.1371	0.7313	0.5467	-0.167
Mof_H 	H 	0.1399	0.7732	0.5319	0.085
Mof_C 	C 	0.1799	0.7334	0.5945	0.125
Mof_H 	H 	0.2123	0.7765	0.6134	0.002
Mof_O 	O 	0.39017	0.59406	0.68512	-0.69
Mof_O 	O 	0.27271	0.53641	0.6858	-0.69
Mof_C 	C 	0.3315	0.5486	0.6662	0.618
Mof_C 	C 	0.33	0.5036	0.6139	-0.235
Mof_C 	C 	0.3912	0.5172	0.5857	0.138
Mof_H 	H 	0.4338	0.5557	0.5999	0.012
Mof_N 	N 	0.3937	0.4783	0.5387	-0.193
Mof_C 	C 	0.3322	0.4229	0.5212	0.099
Mof_H 	H 	0.3328	0.3939	0.4892	0.01
Mof_C 	C 	0.2687	0.4058	0.5467	-0.167
Mof_H 	H 	0.2268	0.3667	0.5319	0.085
Mof_C 	C 	0.2666	0.4465	0.5945	0.125
Mof_H 	H 	0.2235	0.4358	0.6134	0.002
Mof_O 	O 	0.20389	0.59406	0.31488	-0.69
Mof_O 	O 	0.2637	0.53641	0.3142	-0.69
Mof_C 	C 	0.2171	0.5486	0.3338	0.618
Mof_C 	C 	0.1736	0.5036	0.3861	-0.235
Mof_C 	C 	0.126	0.5172	0.4143	0.138
Mof_H 	H 	0.1219	0.5557	0.4001	0.012
Mof_N 	N 	0.0846	0.4783	0.4613	-0.193
Mof_C 	C 	0.0907	0.4229	0.4788	0.099
Mof_H 	H 	0.0611	0.3939	0.5108	0.011
Mof_C 	C 	0.1371	0.4058	0.4533	-0.168
Mof_H 	H 	0.1399	0.3667	0.4681	0.085
Mof_C 	C 	0.1799	0.4465	0.4055	0.124
Mof_H 	H 	0.2123	0.4358	0.3866	0.002
Mof_O 	O 	0.39017	0.79611	0.31488	-0.69
Mof_O 	O 	0.27271	0.7363	0.3142	-0.69
Mof_C 	C 	0.3315	0.7829	0.3338	0.618
Mof_C 	C 	0.33	0.8264	0.3861	-0.235
Mof_C 	C 	0.3912	0.874	0.4143	0.138
Mof_H 	H 	0.4338	0.8781	0.4001	0.012
Mof_N 	N 	0.3937	0.9154	0.4613	-0.193
Mof_C 	C 	0.3322	0.9093	0.4788	0.099
Mof_H 	H 	0.3328	0.9389	0.5108	0.01
Mof_C 	C 	0.2687	0.8629	0.4533	-0.168
Mof_H 	H 	0.2268	0.8601	0.4681	0.085
Mof_C 	C 	0.2666	0.8201	0.4055	0.124
Mof_H 	H 	0.2235	0.7877	0.3866	0.002
Mof_O 	O 	0.40594	0.60983	0.31488	-0.69
Mof_O 	O 	0.46359	0.72729	0.3142	-0.69
Mof_C 	C 	0.4514	0.6685	0.3338	0.618
Mof_C 	C 	0.4964	0.67	0.3861	-0.235
Mof_C 	C 	0.4828	0.6088	0.4143	0.138
Mof_H 	H 	0.4443	0.5662	0.4001	0.012
Mof_N 	N 	0.5217	0.6063	0.4613	-0.193
Mof_C 	C 	0.5771	0.6678	0.4788	0.099
Mof_H 	H 	0.6061	0.6672	0.5108	0.011
Mof_C 	C 	0.5942	0.7313	0.4533	-0.168
Mof_H 	H 	0.6333	0.7732	0.4681	0.085
Mof_C 	C 	0.5535	0.7334	0.4055	0.124
Mof_H 	H 	0.5642	0.7765	0.3866	0.001
Mof_O 	O 	0.79611	0.40594	0.81488	-0.69
Mof_O 	O 	0.7363	0.46359	0.8142	-0.69
Mof_C 	C 	0.7829	0.4514	0.8338	0.622
Mof_C 	C 	0.8264	0.4964	0.8861	-0.244
Mof_C 	C 	0.874	0.4828	0.9143	0.147
Mof_H 	H 	0.8781	0.4443	0.9001	0.013
Mof_N 	N 	0.9154	0.5217	0.9613	-0.195
Mof_C 	C 	0.9093	0.5771	0.9788	0.164
Mof_H 	H 	0.9389	0.6061	0.0108	-0.029
Mof_C 	C 	0.8629	0.5942	0.9533	-0.203
Mof_H 	H 	0.8601	0.6333	0.9681	0.107
Mof_C 	C 	0.8201	0.5535	0.9055	0.148
Mof_H 	H 	0.7877	0.5642	0.8866	-0.003
Mof_O 	O 	0.60983	0.20389	0.81488	-0.69
Mof_O 	O 	0.72729	0.2637	0.8142	-0.69
Mof_C 	C 	0.6685	0.2171	0.8338	0.623
Mof_C 	C 	0.67	0.1736	0.8861	-0.244
Mof_C 	C 	0.6088	0.126	0.9143	0.147
Mof_H 	H 	0.5662	0.1219	0.9001	0.014
Mof_N 	N 	0.6063	0.0846	0.9613	-0.195
Mof_C 	C 	0.6678	0.0907	0.9788	0.166
Mof_H 	H 	0.6672	0.0611	0.0108	-0.029
Mof_C 	C 	0.7313	0.1371	0.9533	-0.204
Mof_H 	H 	0.7732	0.1399	0.9681	0.107
Mof_C 	C 	0.7334	0.1799	0.9055	0.149
Mof_H 	H 	0.7765	0.2123	0.8866	-0.003
Mof_O 	O 	0.59406	0.39017	0.81488	-0.69
Mof_O 	O 	0.53641	0.27271	0.8142	-0.69
Mof_C 	C 	0.5486	0.3315	0.8338	0.623
Mof_C 	C 	0.5036	0.33	0.8861	-0.244
Mof_C 	C 	0.5172	0.3912	0.9143	0.147
Mof_H 	H 	0.5557	0.4338	0.9001	0.014
Mof_N 	N 	0.4783	0.3937	0.9613	-0.195
Mof_C 	C 	0.4229	0.3322	0.9788	0.167
Mof_H 	H 	0.3939	0.3328	0.0108	-0.03
Mof_C 	C 	0.4058	0.2687	0.9533	-0.204
Mof_H 	H 	0.3667	0.2268	0.9681	0.108
Mof_C 	C 	0.4465	0.2666	0.9055	0.149
Mof_H 	H 	0.4358	0.2235	0.8866	-0.003
Mof_O 	O 	0.40594	0.79611	0.81488	-0.69
Mof_O 	O 	0.46359	0.7363	0.8142	-0.69
Mof_C 	C 	0.4514	0.7829	0.8338	0.622
Mof_C 	C 	0.4964	0.8264	0.8861	-0.244
Mof_C 	C 	0.4828	0.874	0.9143	0.147
Mof_H 	H 	0.4443	0.8781	0.9001	0.013
Mof_N 	N 	0.5217	0.9154	0.9613	-0.195
Mof_C 	C 	0.5771	0.9093	0.9788	0.164
Mof_H 	H 	0.6061	0.9389	0.0108	-0.029
Mof_C 	C 	0.5942	0.8629	0.9533	-0.203
Mof_H 	H 	0.6333	0.8601	0.9681	0.107
Mof_C 	C 	0.5535	0.8201	0.9055	0.148
Mof_H 	H 	0.5642	0.7877	0.8866	-0.003
Mof_O 	O 	0.20389	0.60983	0.81488	-0.69
Mof_O 	O 	0.2637	0.72729	0.8142	-0.69
Mof_C 	C 	0.2171	0.6685	0.8338	0.623
Mof_C 	C 	0.1736	0.67	0.8861	-0.244
Mof_C 	C 	0.126	0.6088	0.9143	0.147
Mof_H 	H 	0.1219	0.5662	0.9001	0.014
Mof_N 	N 	0.0846	0.6063	0.9613	-0.195
Mof_C 	C 	0.0907	0.6678	0.9788	0.166
Mof_H 	H 	0.0611	0.6672	0.0108	-0.029
Mof_C 	C 	0.1371	0.7313	0.9533	-0.204
Mof_H 	H 	0.1399	0.7732	0.9681	0.107
Mof_C 	C 	0.1799	0.7334	0.9055	0.149
Mof_H 	H 	0.2123	0.7765	0.8866	-0.003
Mof_O 	O 	0.39017	0.59406	0.81488	-0.69
Mof_O 	O 	0.27271	0.53641	0.8142	-0.69
Mof_C 	C 	0.3315	0.5486	0.8338	0.623
Mof_C 	C 	0.33	0.5036	0.8861	-0.244
Mof_C 	C 	0.3912	0.5172	0.9143	0.147
Mof_H 	H 	0.4338	0.5557	0.9001	0.014
Mof_N 	N 	0.3937	0.4783	0.9613	-0.195
Mof_C 	C 	0.3322	0.4229	0.9788	0.167
Mof_H 	H 	0.3328	0.3939	0.0108	-0.03
Mof_C 	C 	0.2687	0.4058	0.9533	-0.204
Mof_H 	H 	0.2268	0.3667	0.9681	0.108
Mof_C 	C 	0.2666	0.4465	0.9055	0.149
Mof_H 	H 	0.2235	0.4358	0.8866	-0.003
Mof_O 	O 	0.59406	0.20389	0.31488	-0.69
Mof_O 	O 	0.53641	0.2637	0.3142	-0.69
Mof_C 	C 	0.5486	0.2171	0.3338	0.618
Mof_C 	C 	0.5036	0.1736	0.3861	-0.235
Mof_C 	C 	0.5172	0.126	0.4143	0.138
Mof_H 	H 	0.5557	0.1219	0.4001	0.012
Mof_N 	N 	0.4783	0.0846	0.4613	-0.193
Mof_C 	C 	0.4229	0.0907	0.4788	0.099
Mof_H 	H 	0.3939	0.0611	0.5108	0.011
Mof_C 	C 	0.4058	0.1371	0.4533	-0.168
Mof_H 	H 	0.3667	0.1399	0.4681	0.085
Mof_C 	C 	0.4465	0.1799	0.4055	0.124
Mof_H 	H 	0.4358	0.2123	0.3866	0.002
Mof_O 	O 	0.79611	0.39017	0.31488	-0.69
Mof_O 	O 	0.7363	0.27271	0.3142	-0.69
Mof_C 	C 	0.7829	0.3315	0.3338	0.618
Mof_C 	C 	0.8264	0.33	0.3861	-0.235
Mof_C 	C 	0.874	0.3912	0.4143	0.138
Mof_H 	H 	0.8781	0.4338	0.4001	0.012
Mof_N 	N 	0.9154	0.3937	0.4613	-0.193
Mof_C 	C 	0.9093	0.3322	0.4788	0.099
Mof_H 	H 	0.9389	0.3328	0.5108	0.01
Mof_C 	C 	0.8629	0.2687	0.4533	-0.168
Mof_H 	H 	0.8601	0.2268	0.4681	0.085
Mof_C 	C 	0.8201	0.2666	0.4055	0.124
Mof_H 	H 	0.7877	0.2235	0.3866	0.002
Mof_O 	O 	0.60983	0.40594	0.31488	-0.69
Mof_O 	O 	0.72729	0.46359	0.3142	-0.69
Mof_C 	C 	0.6685	0.4514	0.3338	0.618
Mof_C 	C 	0.67	0.4964	0.3861	-0.235
Mof_C 	C 	0.6088	0.4828	0.4143	0.138
Mof_H 	H 	0.5662	0.4443	0.4001	0.012
Mof_N 	N 	0.6063	0.5217	0.4613	-0.193
Mof_C 	C 	0.6678	0.5771	0.4788	0.099
Mof_H 	H 	0.6672	0.6061	0.5108	0.011
Mof_C 	C 	0.7313	0.5942	0.4533	-0.168
Mof_H 	H 	0.7732	0.6333	0.4681	0.085
Mof_C 	C 	0.7334	0.5535	0.4055	0.124
Mof_H 	H 	0.7765	0.5642	0.3866	0.001
Mof_O 	O 	0.79611	0.40594	0.68512	-0.69
Mof_O 	O 	0.7363	0.46359	0.6858	-0.691
Mof_C 	C 	0.7829	0.4514	0.6662	0.618
Mof_C 	C 	0.8264	0.4964	0.6139	-0.235
Mof_C 	C 	0.874	0.4828	0.5857	0.138
Mof_H 	H 	0.8781	0.4443	0.5999	0.012
Mof_N 	N 	0.9154	0.5217	0.5387	-0.193
Mof_C 	C 	0.9093	0.5771	0.5212	0.099
Mof_H 	H 	0.9389	0.6061	0.4892	0.01
Mof_C 	C 	0.8629	0.5942	0.5467	-0.168
Mof_H 	H 	0.8601	0.6333	0.5319	0.085
Mof_C 	C 	0.8201	0.5535	0.5945	0.124
Mof_H 	H 	0.7877	0.5642	0.6134	0.002
Mof_O 	O 	0.60983	0.20389	0.68512	-0.69
Mof_O 	O 	0.72729	0.2637	0.6858	-0.691
Mof_C 	C 	0.6685	0.2171	0.6662	0.618
Mof_C 	C 	0.67	0.1736	0.6139	-0.235
Mof_C 	C 	0.6088	0.126	0.5857	0.138
Mof_H 	H 	0.5662	0.1219	0.5999	0.012
Mof_N 	N 	0.6063	0.0846	0.5387	-0.193
Mof_C 	C 	0.6678	0.0907	0.5212	0.099
Mof_H 	H 	0.6672	0.0611	0.4892	0.011
Mof_C 	C 	0.7313	0.1371	0.5467	-0.167
Mof_H 	H 	0.7732	0.1399	0.5319	0.085
Mof_C 	C 	0.7334	0.1799	0.5945	0.125
Mof_H 	H 	0.7765	0.2123	0.6134	0.002
Mof_O 	O 	0.59406	0.39017	0.68512	-0.69
Mof_O 	O 	0.53641	0.27271	0.6858	-0.69
Mof_C 	C 	0.5486	0.3315	0.6662	0.618
Mof_C 	C 	0.5036	0.33	0.6139	-0.235
Mof_C 	C 	0.5172	0.3912	0.5857	0.138
Mof_H 	H 	0.5557	0.4338	0.5999	0.012
Mof_N 	N 	0.4783	0.3937	0.5387	-0.193
Mof_C 	C 	0.4229	0.3322	0.5212	0.099
Mof_H 	H 	0.3939	0.3328	0.4892	0.01
Mof_C 	C 	0.4058	0.2687	0.5467	-0.167
Mof_H 	H 	0.3667	0.2268	0.5319	0.085
Mof_C 	C 	0.4465	0.2666	0.5945	0.125
Mof_H 	H 	0.4358	0.2235	0.6134	0.002
Mof_O 	O 	0.20389	0.59406	0.18512	-0.69
Mof_O 	O 	0.2637	0.53641	0.1858	-0.69
Mof_C 	C 	0.2171	0.5486	0.1662	0.613
Mof_C 	C 	0.1736	0.5036	0.1139	-0.224
Mof_C 	C 	0.126	0.5172	0.0857	0.128
Mof_H 	H 	0.1219	0.5557	0.0999	0.013
Mof_N 	N 	0.0846	0.4783	0.0387	-0.182
Mof_C 	C 	0.0907	0.4229	0.0212	0.03
Mof_H 	H 	0.0611	0.3939	0.9892	0.054
Mof_C 	C 	0.1371	0.4058	0.0467	-0.13
Mof_H 	H 	0.1399	0.3667	0.0319	0.062
Mof_C 	C 	0.1799	0.4465	0.0945	0.099
Mof_H 	H 	0.2123	0.4358	0.1134	0.007
Mof_O 	O 	0.39017	0.79611	0.18512	-0.69
Mof_O 	O 	0.27271	0.7363	0.1858	-0.69
Mof_C 	C 	0.3315	0.7829	0.1662	0.613
Mof_C 	C 	0.33	0.8264	0.1139	-0.225
Mof_C 	C 	0.3912	0.874	0.0857	0.128
Mof_H 	H 	0.4338	0.8781	0.0999	0.013
Mof_N 	N 	0.3937	0.9154	0.0387	-0.183
Mof_C 	C 	0.3322	0.9093	0.0212	0.033
Mof_H 	H 	0.3328	0.9389	0.9892	0.051
Mof_C 	C 	0.2687	0.8629	0.0467	-0.131
Mof_H 	H 	0.2268	0.8601	0.0319	0.063
Mof_C 	C 	0.2666	0.8201	0.0945	0.1
Mof_H 	H 	0.2235	0.7877	0.1134	0.007
Mof_O 	O 	0.40594	0.60983	0.18512	-0.69
Mof_O 	O 	0.46359	0.72729	0.1858	-0.69
Mof_C 	C 	0.4514	0.6685	0.1662	0.613
Mof_C 	C 	0.4964	0.67	0.1139	-0.225
Mof_C 	C 	0.4828	0.6088	0.0857	0.128
Mof_H 	H 	0.4443	0.5662	0.0999	0.013
Mof_N 	N 	0.5217	0.6063	0.0387	-0.183
Mof_C 	C 	0.5771	0.6678	0.0212	0.031
Mof_H 	H 	0.6061	0.6672	0.9892	0.052
Mof_C 	C 	0.5942	0.7313	0.0467	-0.131
Mof_H 	H 	0.6333	0.7732	0.0319	0.062
Mof_C 	C 	0.5535	0.7334	0.0945	0.1
Mof_H 	H 	0.5642	0.7765	0.1134	0.007
Mof_Mn	Mn	0.5	0	-0	0.792
Mof_Mn	Mn	-0	0.5	-0	0.792
Mof_Mn	Mn	0.5	0.5	-0	0.791
Mof_Mn	Mn	0.5	1.10215e-32	0.5	0.83
Mof_Mn	Mn	3.881e-17	0.5	0.5	0.83
Mof_Mn	Mn	0.5	0.5	0.5	0.829
Mof_Cl	Cl	0.55939	0	0.09714	-0.427
Mof_Cl	Cl	3.78897e-17	0.55939	0.09714	-0.427
Mof_Cl	Cl	0.44061	0.44061	0.09714	-0.428
Mof_Cl	Cl	0.44061	0	0.59714	-0.424
Mof_Cl	Cl	5.18815e-17	0.44061	0.59714	-0.424
Mof_Cl	Cl	0.55939	0.55939	0.59714	-0.425
Mof_Cl	Cl	1.00193e-16	0.55939	0.40286	-0.425
Mof_Cl	Cl	0.55939	5.51075e-33	0.40286	-0.425
Mof_Cl	Cl	0.44061	0.44061	0.40286	-0.426
Mof_Cl	Cl	1.4912e-17	0.44061	0.90286	-0.41
Mof_Cl	Cl	0.44061	2.2043e-32	0.90286	-0.41
Mof_Cl	Cl	0.55939	0.55939	0.90286	-0.411
Mof_Cr	Cr	0.66517	0.24606	0.25	2.177
Mof_Cr	Cr	0.75394	0.41911	0.25	2.177
Mof_Cr	Cr	0.58089	0.33483	0.25	2.177
Mof_Cr	Cr	0.33483	0.75394	0.75	2.181
Mof_Cr	Cr	0.24606	0.58089	0.75	2.181
Mof_Cr	Cr	0.41911	0.66517	0.75	2.181
Mof_Cr	Cr	0.24606	0.66517	0.25	2.177
Mof_Cr	Cr	0.41911	0.75394	0.25	2.177
Mof_Cr	Cr	0.33483	0.58089	0.25	2.177
Mof_Cr	Cr	0.75394	0.33483	0.75	2.181
Mof_Cr	Cr	0.58089	0.24606	0.75	2.181
Mof_Cr	Cr	0.66517	0.41911	0.75	2.181
Mof_O 	O 	0.66667	0.33333	0.25	-1.184
Mof_O 	O 	0.33333	0.66667	0.75	-1.186
Mof_O 	O 	0.33333	0.66667	0.25	-1.184
Mof_O 	O 	0.66667	0.33333	0.75	-1.186
_end
