data_functionalizedCrystal
_audit_creation_method	'EQeq! by Chris Wilmer'
_symmetry_space_group_name_H-M	'P1'
_symmetry_Int_Tables_number	1
_symmetry_cell_setting	triclinic
loop_
_symmetry_equiv_pos_as_xyz
  x,y,z
_cell_length_a	19.5995
_cell_length_b	28.7424
_cell_length_c	20.4414
_cell_angle_alpha	90
_cell_angle_beta	91.627
_cell_angle_gamma	90
loop_
_atom_site_label
_atom_site_type_symbol
_atom_site_fract_x
_atom_site_fract_y
_atom_site_fract_z
_atom_site_charge
Mof_Cd	Cd	0.86022	0.17935	0.76594	0.453
Mof_Cd	Cd	0.34748	0.89819	0.75043	0.459
Mof_Cd	Cd	0.27285	0.64592	0.34697	0.456
Mof_Cd	Cd	0.21578	0.93083	0.86079	0.457
Mof_O 	O 	0.2475	0.259	0.8942	-0.381
Mof_H 	H 	0.2606	0.2396	0.9225	0.245
Mof_O 	O 	0.3416	0.2449	0.8002	-0.219
Mof_O 	O 	0.3741	0.1704	0.8978	-0.368
Mof_H 	H 	0.3663	0.1894	0.8672	0.238
Mof_O 	O 	0.3018	0.1921	0.0025	-0.206
Mof_O 	O 	0.9628	0.2156	0.7533	-0.267
Mof_O 	O 	0.9403	0.1939	0.8599	-0.257
Mof_O 	O 	0.3258	0.9592	0.8246	-0.267
Mof_O 	O 	0.4038	0.9762	0.7526	-0.286
Mof_O 	O 	0.7356	0.82	0.6367	-0.381
Mof_H 	H 	0.7489	0.8378	0.607	0.244
Mof_O 	O 	0.8321	0.8361	0.7409	-0.219
Mof_O 	O 	0.8624	0.9034	0.6432	-0.401
Mof_H 	H 	0.846	0.8867	0.6726	0.252
Mof_O 	O 	0.7828	0.8833	0.529	-0.22
Mof_O 	O 	0.4291	0.8864	0.6648	-0.243
Mof_O 	O 	0.4524	0.8618	0.7669	-0.272
Mof_O 	O 	0.8371	0.1177	0.6971	-0.287
Mof_O 	O 	0.9115	0.1002	0.7717	-0.257
Mof_O 	O 	0.3444	0.572	0.7347	-0.39
Mof_H 	H 	0.3096	0.576	0.7571	0.255
Mof_O 	O 	0.2276	0.5862	0.8108	-0.195
Mof_O 	O 	0.3302	0.652	0.8562	-0.382
Mof_H 	H 	0.3679	0.6485	0.8382	0.25
Mof_O 	O 	0.4507	0.6282	0.8036	-0.215
Mof_O 	O 	0.3551	0.6278	0.4356	-0.245
Mof_O 	O 	0.2444	0.6166	0.4463	-0.293
Mof_O 	O 	0.2934	0.8688	0.8431	-0.328
Mof_O 	O 	0.2028	0.8492	0.898	-0.261
Mof_O 	O 	0.1401	0.0064	0.2442	-0.371
Mof_H 	H 	0.1751	0.0007	0.2674	0.251
Mof_O 	O 	0.25	0.9914	0.3261	-0.224
Mof_O 	O 	0.1502	0.9232	0.3703	-0.388
Mof_H 	H 	0.1136	0.9285	0.3493	0.252
Mof_O 	O 	0.0312	0.9477	0.3048	-0.213
Mof_O 	O 	0.2409	0.9578	0.9592	-0.287
Mof_O 	O 	0.1315	0.9421	0.9444	-0.244
Mof_O 	O 	0.1952	0.7071	0.331	-0.292
Mof_O 	O 	0.2866	0.7266	0.3875	-0.284
Mof_N 	N 	0.7841	0.1514	0.8431	-0.118
Mof_N 	N 	0.8049	0.2418	0.8191	-0.134
Mof_N 	N 	0.2924	0.8403	0.6891	-0.116
Mof_N 	N 	0.2721	0.9276	0.675	-0.13
Mof_N 	N 	0.3426	0.6703	0.2648	-0.125
Mof_N 	N 	0.3174	0.5832	0.2945	-0.12
Mof_N 	N 	0.1489	0.9097	0.7707	-0.12
Mof_N 	N 	0.1702	0.9949	0.8063	-0.145
Mof_C 	C 	0.2455	0.2329	0.7274	0.061
Mof_C 	C 	0.2095	0.2746	0.7552	-0.166
Mof_H 	H 	0.182	0.2906	0.7206	0.071
Mof_H 	H 	0.243	0.297	0.7741	0.091
Mof_C 	C 	0.162	0.2553	0.8099	0.001
Mof_C 	C 	0.0954	0.2439	0.7883	-0.064
Mof_H 	H 	0.0808	0.2491	0.7442	0.053
Mof_C 	C 	0.0515	0.2248	0.833	-0.03
Mof_C 	C 	0.071	0.2237	0.9004	-0.068
Mof_H 	H 	0.038	0.2166	0.9321	0.064
Mof_C 	C 	0.138	0.233	0.9205	0.002
Mof_C 	C 	0.1594	0.2236	0.9896	-0.18
Mof_H 	H 	0.121	0.2298	0.0187	0.08
Mof_H 	H 	0.1978	0.2442	0.0027	0.088
Mof_C 	C 	0.1815	0.1728	0.9959	0.053
Mof_C 	C 	0.1309	0.1384	0.9944	-0.115
Mof_H 	H 	0.0845	0.1481	0.9944	0.069
Mof_C 	C 	0.1443	0.0905	0.993	0.031
Mof_H 	H 	0.1099	0.0672	0.9927	0.022
Mof_C 	C 	0.2138	0.0809	0.9921	-0.13
Mof_H 	H 	0.2252	0.0488	0.9901	0.081
Mof_C 	C 	0.2696	0.1113	0.9938	0.08
Mof_C 	C 	0.3397	0.0969	0.9835	-0.213
Mof_H 	H 	0.3708	0.1213	0.0011	0.107
Mof_H 	H 	0.3489	0.0681	0.0088	0.082
Mof_C 	C 	0.3547	0.0888	0.9184	0.046
Mof_C 	C 	0.352	0.044	0.8915	-0.083
Mof_H 	H 	0.3387	0.0186	0.9181	0.072
Mof_C 	C 	0.3688	0.0357	0.8254	-0.039
Mof_C 	C 	0.3877	0.0728	0.7861	-0.06
Mof_H 	H 	0.4015	0.0671	0.7427	0.06
Mof_C 	C 	0.3866	0.1195	0.81	0.008
Mof_C 	C 	0.4041	0.1579	0.7638	-0.174
Mof_H 	H 	0.433	0.1454	0.7289	0.084
Mof_H 	H 	0.4304	0.1822	0.7877	0.086
Mof_C 	C 	0.3387	0.1796	0.7325	0.042
Mof_C 	C 	0.3045	0.1558	0.6788	-0.109
Mof_H 	H 	0.3251	0.1284	0.6622	0.061
Mof_C 	C 	0.244	0.1704	0.6503	0.016
Mof_H 	H 	0.2219	0.1545	0.615	0.001
Mof_C 	C 	0.2181	0.2109	0.6778	-0.128
Mof_H 	H 	0.1772	0.2233	0.6589	0.061
Mof_C 	C 	0.1838	0.2489	0.8741	0.136
Mof_C 	C 	0.306	0.2193	0.7512	0.043
Mof_C 	C 	0.3696	0.1259	0.874	0.104
Mof_C 	C 	0.2479	0.1576	0.9979	0.025
Mof_C 	C 	0.9763	0.2093	0.8174	0.249
Mof_C 	C 	0.3727	0.9881	0.7967	0.283
Mof_C 	C 	0.3769	0.2824	0.7754	0.131
Mof_H 	H 	0.3472	0.3004	0.7447	-0.01
Mof_H 	H 	0.4174	0.2717	0.7519	-0.009
Mof_C 	C 	0.3989	0.3129	0.8353	-0.272
Mof_H 	H 	0.3584	0.3205	0.861	0.117
Mof_H 	H 	0.4312	0.2952	0.8638	0.103
Mof_C 	C 	0.4331	0.3584	0.8135	0.135
Mof_H 	H 	0.3988	0.3802	0.7947	-0.031
Mof_H 	H 	0.4678	0.352	0.7804	-0.023
Mof_C 	C 	0.4673	0.3791	0.877	-0.471
Mof_H 	H 	0.4904	0.4083	0.8664	0.146
Mof_H 	H 	0.5007	0.3569	0.8951	0.145
Mof_H 	H 	0.4323	0.3851	0.9092	0.145
Mof_C 	C 	0.3183	0.1998	0.0681	0.12
Mof_H 	H 	0.3295	0.1701	0.0905	-0.007
Mof_H 	H 	0.2798	0.2147	0.0904	-0.006
Mof_C 	C 	0.3803	0.2319	0.0685	-0.248
Mof_H 	H 	0.4183	0.2167	0.0458	0.103
Mof_H 	H 	0.3956	0.2384	0.1142	0.091
Mof_C 	C 	0.361	0.2773	0.0338	0.116
Mof_H 	H 	0.3227	0.2924	0.0562	-0.009
Mof_H 	H 	0.3462	0.2708	0.988	0.006
Mof_C 	C 	0.4248	0.3103	0.0352	-0.458
Mof_H 	H 	0.4127	0.3398	0.0138	0.144
Mof_H 	H 	0.462	0.2955	0.0119	0.146
Mof_H 	H 	0.4395	0.3162	0.0807	0.151
Mof_C 	C 	0.7386	0.8482	0.805	0.051
Mof_C 	C 	0.7034	0.8111	0.7748	-0.167
Mof_H 	H 	0.6769	0.7947	0.8082	0.073
Mof_H 	H 	0.7372	0.7888	0.7579	0.1
Mof_C 	C 	0.6523	0.8259	0.7155	-0.011
Mof_C 	C 	0.5877	0.8361	0.7362	-0.043
Mof_H 	H 	0.576	0.8312	0.7804	0.044
Mof_C 	C 	0.539	0.8541	0.6903	-0.061
Mof_C 	C 	0.5576	0.8569	0.6265	-0.039
Mof_H 	H 	0.524	0.864	0.5936	0.055
Mof_C 	C 	0.6244	0.8495	0.6089	-0.023
Mof_C 	C 	0.646	0.8549	0.5374	-0.16
Mof_H 	H 	0.6827	0.8325	0.5277	0.084
Mof_H 	H 	0.6067	0.8489	0.5071	0.075
Mof_C 	C 	0.6709	0.9036	0.5291	0.036
Mof_C 	C 	0.626	0.9412	0.528	-0.105
Mof_H 	H 	0.5783	0.9354	0.5291	0.067
Mof_C 	C 	0.6497	0.9891	0.5252	0.016
Mof_H 	H 	0.6188	0.0144	0.5202	0.031
Mof_C 	C 	0.7208	0.9961	0.5304	-0.124
Mof_H 	H 	0.7364	0.0273	0.5312	0.081
Mof_C 	C 	0.7698	0.9617	0.5343	0.071
Mof_C 	C 	0.837	0.9725	0.5342	-0.173
Mof_H 	H 	0.8454	0.0009	0.5083	0.072
Mof_H 	H 	0.8644	0.9466	0.5169	0.09
Mof_C 	C 	0.8554	0.9819	0.62	-0.028
Mof_C 	C 	0.856	0.0301	0.637	-0.037
Mof_H 	H 	0.8444	0.0541	0.6067	0.057
Mof_C 	C 	0.875	0.0386	0.7016	-0.067
Mof_C 	C 	0.8925	0.003	0.7444	-0.04
Mof_H 	H 	0.9098	0.0109	0.7869	0.054
Mof_C 	C 	0.8861	0.9562	0.7281	-0.009
Mof_C 	C 	0.9054	0.9182	0.771	-0.191
Mof_H 	H 	0.9301	0.894	0.7467	0.096
Mof_H 	H 	0.9353	0.9294	0.8075	0.089
Mof_C 	C 	0.8439	0.9001	0.7952	0.06
Mof_C 	C 	0.81	0.9242	0.8418	-0.127
Mof_H 	H 	0.8321	0.9519	0.8567	0.066
Mof_C 	C 	0.7485	0.9148	0.8709	0.022
Mof_H 	H 	0.7331	0.9347	0.9045	0.005
Mof_C 	C 	0.709	0.877	0.8519	-0.126
Mof_H 	H 	0.6654	0.871	0.8692	0.06
Mof_C 	C 	0.6725	0.832	0.6533	0.15
Mof_C 	C 	0.8012	0.8615	0.7804	0.066
Mof_C 	C 	0.8671	0.9462	0.6636	0.16
Mof_C 	C 	0.7389	0.917	0.5295	0.066
Mof_C 	C 	0.4719	0.8694	0.7089	0.258
Mof_C 	C 	0.8734	0.0863	0.7237	0.28
Mof_C 	C 	0.88	0.7493	0.68	0.115
Mof_H 	H 	0.8766	0.7684	0.6397	-0.002
Mof_H 	H 	0.8328	0.7445	0.6956	0.006
Mof_C 	C 	0.912	0.7018	0.664	-0.463
Mof_H 	H 	0.8799	0.6833	0.6377	0.144
Mof_H 	H 	0.9229	0.6853	0.7054	0.145
Mof_H 	H 	0.954	0.7067	0.6404	0.145
Mof_C 	C 	0.8097	0.8666	0.465	0.098
Mof_H 	H 	0.8212	0.8939	0.4377	-0.004
Mof_H 	H 	0.7737	0.8487	0.4413	0.002
Mof_C 	C 	0.8735	0.836	0.4746	-0.266
Mof_H 	H 	0.9125	0.8511	0.4534	0.095
Mof_H 	H 	0.8849	0.8334	0.5219	0.115
Mof_C 	C 	0.2868	0.024	0.3675	0.128
Mof_H 	H 	0.323	0.0397	0.343	-0.008
Mof_H 	H 	0.3081	0.0079	0.4057	-0.004
Mof_C 	C 	0.1671	0.6082	0.7141	0.022
Mof_C 	C 	0.2024	0.5662	0.679	-0.146
Mof_H 	H 	0.1683	0.5517	0.6487	0.061
Mof_H 	H 	0.2148	0.5427	0.7127	0.068
Mof_C 	C 	0.2685	0.5774	0.639	-0.029
Mof_C 	C 	0.2579	0.5881	0.5733	-0.042
Mof_H 	H 	0.2145	0.5848	0.5519	0.048
Mof_C 	C 	0.3124	0.6035	0.5422	-0.047
Mof_C 	C 	0.3772	0.6089	0.5709	-0.055
Mof_H 	H 	0.4146	0.6196	0.5465	0.059
Mof_C 	C 	0.3847	0.5975	0.6378	0
Mof_C 	C 	0.4564	0.6035	0.6685	-0.165
Mof_H 	H 	0.4632	0.5807	0.7044	0.097
Mof_H 	H 	0.4908	0.5972	0.6351	0.075
Mof_C 	C 	0.4665	0.6516	0.6947	0.057
Mof_C 	C 	0.4776	0.6884	0.6509	-0.123
Mof_H 	H 	0.4852	0.6823	0.606	0.071
Mof_C 	C 	0.4772	0.7343	0.6743	0.034
Mof_H 	H 	0.4829	0.7596	0.6452	0.023
Mof_C 	C 	0.4684	0.7421	0.7401	-0.132
Mof_H 	H 	0.4703	0.7732	0.7557	0.085
Mof_C 	C 	0.4575	0.7086	0.782	0.06
Mof_C 	C 	0.442	0.7184	0.8533	-0.177
Mof_H 	H 	0.4722	0.7435	0.8703	0.071
Mof_H 	H 	0.4506	0.6901	0.8799	0.078
Mof_C 	C 	0.367	0.7332	0.8585	-0
Mof_C 	C 	0.3473	0.78	0.8624	-0.066
Mof_H 	H 	0.3798	0.8044	0.8601	0.061
Mof_C 	C 	0.2784	0.7892	0.8697	-0.043
Mof_C 	C 	0.2286	0.7556	0.8752	-0.067
Mof_H 	H 	0.1826	0.7639	0.8828	0.064
Mof_C 	C 	0.2475	0.7095	0.8695	0.029
Mof_C 	C 	0.1972	0.6683	0.8734	-0.2
Mof_H 	H 	0.2214	0.6405	0.8907	0.115
Mof_H 	H 	0.1603	0.6761	0.9037	0.088
Mof_C 	C 	0.1686	0.6586	0.8103	0.068
Mof_C 	C 	0.123	0.6862	0.7723	-0.124
Mof_H 	H 	0.1054	0.7127	0.7939	0.062
Mof_C 	C 	0.1007	0.6804	0.7092	0.02
Mof_H 	H 	0.071	0.7013	0.6864	-0.002
Mof_C 	C 	0.1257	0.6416	0.6834	-0.118
Mof_H 	H 	0.1138	0.6361	0.6387	0.05
Mof_C 	C 	0.3303	0.5837	0.673	0.153
Mof_C 	C 	0.1879	0.6174	0.778	0.047
Mof_C 	C 	0.3159	0.6994	0.8613	0.103
Mof_C 	C 	0.4613	0.6636	0.7588	0.038
Mof_C 	C 	0.2998	0.6183	0.4705	0.276
Mof_C 	C 	0.2612	0.8414	0.8689	0.31
Mof_C 	C 	0.312	0.9718	0.2314	0.033
Mof_C 	C 	0.2784	0.0132	0.1933	-0.163
Mof_H 	H 	0.2662	0.0378	0.2248	0.081
Mof_H 	H 	0.3118	0.0264	0.1631	0.07
Mof_C 	C 	0.216	0.9989	0.1552	-0
Mof_C 	C 	0.2266	0.9838	0.09	-0.066
Mof_H 	H 	0.2712	0.9817	0.0731	0.054
Mof_C 	C 	0.1692	0.9721	0.0518	-0.035
Mof_C 	C 	0.1061	0.9718	0.0771	-0.069
Mof_H 	H 	0.0679	0.9633	0.0501	0.062
Mof_C 	C 	0.0965	0.9836	0.1417	0.017
Mof_C 	C 	0.0239	0.9745	0.1709	-0.174
Mof_H 	H 	0.0166	0.9964	0.2074	0.097
Mof_H 	H 	0.9882	0.9805	0.1367	0.069
Mof_C 	C 	0.017	0.9273	0.1945	0.06
Mof_C 	C 	0.0026	0.8924	0.1469	-0.121
Mof_H 	H 	0.9939	0.9001	0.1023	0.069
Mof_C 	C 	0.0015	0.8462	0.1686	0.027
Mof_H 	H 	0.9923	0.8221	0.1378	0.025
Mof_C 	C 	0.0138	0.8345	0.2348	-0.126
Mof_H 	H 	0.0146	0.8027	0.2475	0.082
Mof_C 	C 	0.0242	0.8678	0.2802	0.054
Mof_C 	C 	0.039	0.8533	0.3481	-0.167
Mof_H 	H 	0.0118	0.8253	0.3581	0.064
Mof_H 	H 	0.0257	0.8784	0.3783	0.074
Mof_C 	C 	0.1165	0.8423	0.3588	-0.015
Mof_C 	C 	0.1371	0.797	0.3555	-0.053
Mof_H 	H 	0.1047	0.7729	0.3474	0.056
Mof_C 	C 	0.2052	0.7864	0.3638	-0.047
Mof_C 	C 	0.2537	0.8209	0.3777	-0.071
Mof_H 	H 	0.2999	0.8126	0.3865	0.063
Mof_C 	C 	0.2344	0.868	0.3786	0.033
Mof_C 	C 	0.2859	0.9031	0.3909	-0.182
Mof_H 	H 	0.3236	0.8897	0.418	0.084
Mof_H 	H 	0.2659	0.9292	0.4156	0.105
Mof_C 	C 	0.3138	0.9214	0.327	0.054
Mof_C 	C 	0.3575	0.8922	0.292	-0.108
Mof_H 	H 	0.374	0.8646	0.3126	0.061
Mof_C 	C 	0.3775	0.9018	0.2291	0.001
Mof_H 	H 	0.4052	0.8803	0.2066	0.012
Mof_C 	C 	0.3564	0.9445	0.1976	-0.107
Mof_H 	H 	0.3723	0.9532	0.1559	0.048
Mof_C 	C 	0.153	0.9961	0.1781	0.111
Mof_C 	C 	0.2948	0.9615	0.2935	0.049
Mof_C 	C 	0.1644	0.8766	0.3685	0.118
Mof_C 	C 	0.0244	0.9128	0.2584	0.036
Mof_C 	C 	0.1842	0.956	0.9819	0.257
Mof_C 	C 	0.2332	0.7368	0.3619	0.298
Mof_C 	C 	0.7705	0.1051	0.8549	-0.039
Mof_H 	H 	0.79	0.0827	0.8268	0.056
Mof_C 	C 	0.7328	0.09	0.902	0.075
Mof_C 	C 	0.7038	0.1239	0.9478	0.065
Mof_C 	C 	0.716	0.1709	0.9342	-0.024
Mof_C 	C 	0.6861	0.2074	0.9755	-0.07
Mof_H 	H 	0.6589	0.2	0.0118	0.051
Mof_C 	C 	0.6992	0.2506	0.9596	0.009
Mof_H 	H 	0.6775	0.2744	0.9839	0.015
Mof_C 	C 	0.7409	0.2643	0.9115	-0.088
Mof_C 	C 	0.7527	0.3109	0.8953	0.121
Mof_C 	C 	0.7916	0.3226	0.8436	0.016
Mof_C 	C 	0.8175	0.2866	0.8083	-0.005
Mof_H 	H 	0.8467	0.2941	0.7735	0.044
Mof_C 	C 	0.7686	0.2338	0.8711	0.079
Mof_C 	C 	0.752	0.1825	0.8822	0.042
Mof_C 	C 	0.7295	0.0374	0.9065	-0.438
Mof_H 	H 	0.7002	0.0285	0.9425	0.14
Mof_H 	H 	0.7755	0.025	0.9147	0.148
Mof_H 	H 	0.7107	0.0247	0.8653	0.153
Mof_C 	C 	0.6478	0.112	0.996	-0.446
Mof_H 	H 	0.645	0.0782	0.0011	0.147
Mof_H 	H 	0.6039	0.1239	0.9791	0.15
Mof_H 	H 	0.6587	0.1263	0.0386	0.171
Mof_C 	C 	0.726	0.349	0.9369	-0.508
Mof_H 	H 	0.6995	0.3355	0.9722	0.176
Mof_H 	H 	0.6967	0.3695	0.9101	0.169
Mof_H 	H 	0.7643	0.3669	0.9558	0.189
Mof_C 	C 	0.8115	0.3743	0.819	-0.415
Mof_H 	H 	0.8398	0.372	0.7804	0.16
Mof_H 	H 	0.837	0.3906	0.8541	0.156
Mof_H 	H 	0.7698	0.3917	0.8078	0.155
Mof_C 	C 	0.3039	0.7923	0.6976	-0.059
Mof_H 	H 	0.3304	0.7823	0.7347	0.062
Mof_C 	C 	0.2786	0.7588	0.6545	0.102
Mof_C 	C 	0.2388	0.7735	0.5987	0.048
Mof_C 	C 	0.2266	0.8207	0.5894	-0.034
Mof_C 	C 	0.1891	0.8442	0.5382	-0.045
Mof_H 	H 	0.1694	0.825	0.5049	0.041
Mof_C 	C 	0.179	0.8878	0.5317	-0.03
Mof_H 	H 	0.1522	0.8985	0.4953	0.04
Mof_C 	C 	0.205	0.9196	0.5751	-0.051
Mof_C 	C 	0.1943	0.9697	0.5686	0.094
Mof_C 	C 	0.2235	0.9946	0.616	0.047
Mof_C 	C 	0.259	0.9765	0.6646	-0.03
Mof_H 	H 	0.2781	0.9974	0.6961	0.055
Mof_C 	C 	0.2438	0.9031	0.6298	0.071
Mof_C 	C 	0.2542	0.853	0.6359	0.041
Mof_C 	C 	0.2892	0.7087	0.6711	-0.502
Mof_H 	H 	0.2897	0.7049	0.7188	0.183
Mof_H 	H 	0.3328	0.6982	0.6541	0.183
Mof_H 	H 	0.252	0.6902	0.6514	0.173
Mof_C 	C 	0.2145	0.7354	0.5509	-0.435
Mof_H 	H 	0.2005	0.7079	0.5755	0.145
Mof_H 	H 	0.2518	0.727	0.5222	0.169
Mof_H 	H 	0.1757	0.7469	0.5243	0.151
Mof_C 	C 	0.1526	0.9865	0.5109	-0.477
Mof_H 	H 	0.1041	0.9857	0.5212	0.158
Mof_H 	H 	0.1606	0.9664	0.4732	0.18
Mof_H 	H 	0.1658	0.0185	0.5004	0.154
Mof_C 	C 	0.2156	0.0486	0.6136	-0.416
Mof_H 	H 	0.2239	0.0615	0.6574	0.147
Mof_H 	H 	0.1692	0.0565	0.5982	0.137
Mof_H 	H 	0.2486	0.0616	0.5835	0.143
Mof_C 	C 	0.3585	0.719	0.2479	-0.056
Mof_H 	H 	0.3393	0.7437	0.2723	0.061
Mof_C 	C 	0.3992	0.7287	0.1993	0.097
Mof_C 	C 	0.4278	0.7012	0.162	0.035
Mof_C 	C 	0.4141	0.6509	0.1761	-0.026
Mof_C 	C 	0.4518	0.612	0.1441	-0.055
Mof_H 	H 	0.4831	0.6187	0.1108	0.043
Mof_C 	C 	0.4413	0.5679	0.1623	-0.022
Mof_H 	H 	0.4642	0.5437	0.1403	0.031
Mof_C 	C 	0.3983	0.5565	0.212	-0.052
Mof_C 	C 	0.3862	0.5112	0.2283	0.072
Mof_C 	C 	0.3368	0.5013	0.2788	0.098
Mof_C 	C 	0.3061	0.5382	0.3077	-0.05
Mof_H 	H 	0.2738	0.5314	0.3401	0.057
Mof_C 	C 	0.3657	0.5889	0.2444	0.044
Mof_C 	C 	0.3745	0.6405	0.2304	0.057
Mof_C 	C 	0.4004	0.7806	0.1908	-0.46
Mof_H 	H 	0.4357	0.794	0.22	0.156
Mof_H 	H 	0.3558	0.7936	0.2015	0.16
Mof_H 	H 	0.4105	0.7881	0.1453	0.149
Mof_C 	C 	0.4693	0.7129	0.1015	-0.403
Mof_H 	H 	0.4482	0.7393	0.0783	0.13
Mof_H 	H 	0.4699	0.6858	0.0723	0.142
Mof_H 	H 	0.5161	0.7209	0.1152	0.147
Mof_C 	C 	0.4225	0.4703	0.1991	-0.469
Mof_H 	H 	0.4626	0.4624	0.2266	0.182
Mof_H 	H 	0.4369	0.4783	0.155	0.159
Mof_H 	H 	0.3915	0.4436	0.1967	0.158
Mof_C 	C 	0.3213	0.4539	0.3008	-0.504
Mof_H 	H 	0.3079	0.4347	0.263	0.175
Mof_H 	H 	0.2837	0.455	0.3315	0.182
Mof_H 	H 	0.3618	0.4405	0.3228	0.181
Mof_C 	C 	0.1361	0.8634	0.7499	-0.052
Mof_H 	H 	0.1589	0.8391	0.7732	0.061
Mof_C 	C 	0.0956	0.8518	0.7013	0.081
Mof_C 	C 	0.063	0.8842	0.667	0.04
Mof_C 	C 	0.0726	0.9356	0.6854	-0.015
Mof_C 	C 	0.0393	0.9732	0.6515	-0.063
Mof_H 	H 	0.0093	0.9669	0.6154	0.044
Mof_C 	C 	0.0505	0.0187	0.6709	-0.006
Mof_H 	H 	0.0274	0.0428	0.6475	0.02
Mof_C 	C 	0.0969	0.0316	0.7265	-0.099
Mof_C 	C 	0.1102	0.0736	0.7469	0.157
Mof_C 	C 	0.1546	0.0772	0.7985	0.008
Mof_C 	C 	0.182	0.037	0.8257	0.007
Mof_H 	H 	0.2126	0.0407	0.8623	0.04
Mof_C 	C 	0.1298	0.9909	0.7591	0.087
Mof_C 	C 	0.1142	0.9412	0.7345	0.036
Mof_C 	C 	0.088	0.7998	0.6829	-0.44
Mof_H 	H 	0.132	0.7878	0.6688	0.156
Mof_H 	H 	0.0539	0.7964	0.6472	0.141
Mof_H 	H 	0.0734	0.7822	0.7211	0.146
Mof_C 	C 	0.0148	0.8744	0.6049	-0.411
Mof_H 	H 	0.9885	0.8459	0.612	0.14
Mof_H 	H 	0.0426	0.8707	0.5662	0.14
Mof_H 	H 	0.9834	0.9007	0.5982	0.157
Mof_C 	C 	0.0772	0.1136	0.7155	-0.548
Mof_H 	H 	0.1107	0.1309	0.6903	0.176
Mof_H 	H 	0.0585	0.134	0.7489	0.199
Mof_H 	H 	0.0401	0.1029	0.686	0.19
Mof_C 	C 	0.1765	0.1264	0.8238	-0.415
Mof_H 	H 	0.2143	0.1232	0.856	0.159
Mof_H 	H 	0.1378	0.1415	0.8444	0.156
Mof_H 	H 	0.1914	0.1453	0.787	0.153
Mof_C 	C 	0.878	0.8026	0.7789	0.078
Mof_H 	H 	0.908	0.8203	0.8101	0.007
Mof_H 	H 	0.8503	0.7809	0.8044	0.007
Mof_C 	C 	0.9226	0.7752	0.7328	-0.23
Mof_H 	H 	0.9501	0.7523	0.7584	0.084
Mof_H 	H 	0.9544	0.7967	0.7113	0.091
Mof_C 	C 	0.5169	0.611	0.8311	0.098
Mof_H 	H 	0.5479	0.6372	0.8423	-0.004
Mof_H 	H 	0.5395	0.5902	0.7998	-0.002
Mof_C 	C 	0.4967	0.5849	0.8919	-0.253
Mof_H 	H 	0.4759	0.607	0.9226	0.094
Mof_H 	H 	0.5384	0.5721	0.9137	0.089
Mof_C 	C 	0.4469	0.5453	0.8785	0.153
Mof_H 	H 	0.4032	0.5583	0.8614	0
Mof_H 	H 	0.4379	0.5291	0.9201	-0.035
Mof_C 	C 	0.474	0.5096	0.8289	-0.498
Mof_H 	H 	0.4396	0.4851	0.8217	0.161
Mof_H 	H 	0.5163	0.4958	0.8461	0.161
Mof_H 	H 	0.4822	0.5253	0.7873	0.18
Mof_C 	C 	0.9809	0.9966	0.3901	-0.244
Mof_H 	H 	0.0123	0.9822	0.423	0.093
Mof_H 	H 	0.9382	0.0051	0.4119	0.086
Mof_C 	C 	0.9653	0.9621	0.3344	0.085
Mof_H 	H 	0.9416	0.9344	0.3517	-0.005
Mof_H 	H 	0.9351	0.9768	0.3008	-0.002
Mof_C 	C 	0.233	0.0593	0.3897	-0.308
Mof_H 	H 	0.215	0.0773	0.3517	0.117
Mof_H 	H 	0.1946	0.0429	0.4099	0.116
Mof_C 	C 	0.2678	0.092	0.4394	0.214
Mof_H 	H 	0.2824	0.0738	0.4784	-0.045
Mof_H 	H 	0.3091	0.1053	0.42	-0.038
Mof_C 	C 	0.2227	0.131	0.4605	-0.568
Mof_H 	H 	0.2476	0.1505	0.4923	0.185
Mof_H 	H 	0.182	0.1181	0.4807	0.171
Mof_H 	H 	0.2089	0.1497	0.4223	0.178
Mof_C 	C 	0.193	0.5489	0.8458	-0.077
Mof_H 	H 	0.1577	0.5353	0.8159	0.169
Mof_H 	H 	0.1692	0.5629	0.883	0.028
Mof_C 	C 	0.0143	0.0408	0.3613	0.118
Mof_H 	H 	0.0342	0.0546	0.4019	-0.017
Mof_H 	H 	0.0537	0.0264	0.3398	0.019
Mof_C 	C 	0.263	0.4771	0.818	0.029
Mof_H 	H 	0.2225	0.4622	0.7962	0.054
Mof_H 	H 	0.2856	0.4961	0.7844	0.032
Mof_C 	C 	0.239	0.5091	0.8723	-0.267
Mof_H 	H 	0.2789	0.5226	0.8958	0.083
Mof_H 	H 	0.2128	0.4906	0.9041	0.09
Mof_C 	C 	0.006	0.0848	0.3197	-0.485
Mof_H 	H 	0.0493	0.1023	0.3211	0.154
Mof_H 	H 	0.9698	0.1042	0.337	0.162
Mof_H 	H 	0.9948	0.0762	0.2743	0.167
Mof_C 	C 	0.312	0.4394	0.842	-0.425
Mof_H 	H 	0.3215	0.418	0.8063	0.141
Mof_H 	H 	0.2911	0.4222	0.8779	0.14
Mof_H 	H 	0.3544	0.4538	0.8582	0.139
Mof_C 	C 	0.8639	0.7871	0.446	0.146
Mof_H 	H 	0.843	0.7893	0.4016	-0.024
Mof_H 	H 	0.8325	0.7692	0.4737	-0.019
Mof_C 	C 	0.9331	0.7615	0.443	-0.492
Mof_H 	H 	0.9278	0.7335	0.4162	0.159
Mof_H 	H 	0.9484	0.7527	0.4876	0.153
Mof_H 	H 	0.967	0.7821	0.424	0.159
Mof_C 	C 	0.222	0.4655	0.814	0.108
Mof_H 	H 	0.221	0.4535	0.8589	0.003
Mof_H 	H 	0.2691	0.4767	0.8059	0.001
Mof_C 	C 	0.204	0.4255	0.765	-0.54
Mof_H 	H 	0.2389	0.401	0.7692	0.172
Mof_H 	H 	0.2038	0.4377	0.72	0.174
Mof_H 	H 	0.1595	0.4128	0.7745	0.185
Mof_C 	C 	0.1721	0.5061	0.806	-0.355
Mof_H 	H 	0.1684	0.5149	0.7589	0.109
Mof_H 	H 	0.1264	0.4958	0.8192	0.103
Mof_H 	H 	0.1515	0.5621	0.8651	-0.006
Mof_H 	H 	0.2235	0.5386	0.8824	0.14
Mof_Cd	Cd	0.13978	0.67935	0.23406	0.452
Mof_Cd	Cd	0.65252	0.39819	0.24957	0.458
Mof_Cd	Cd	0.72715	0.14592	0.65303	0.455
Mof_Cd	Cd	0.78422	0.43083	0.13921	0.456
Mof_O 	O 	0.7525	0.759	0.1058	-0.382
Mof_H 	H 	0.7394	0.7396	0.0775	0.244
Mof_O 	O 	0.6584	0.7449	0.1998	-0.22
Mof_O 	O 	0.6259	0.6704	0.1022	-0.369
Mof_H 	H 	0.6337	0.6894	0.1328	0.237
Mof_O 	O 	0.6982	0.6921	0.9975	-0.207
Mof_O 	O 	0.0372	0.7156	0.2467	-0.267
Mof_O 	O 	0.0597	0.6939	0.1401	-0.257
Mof_O 	O 	0.6742	0.4592	0.1754	-0.267
Mof_O 	O 	0.5962	0.4762	0.2474	-0.286
Mof_O 	O 	0.2644	0.32	0.3633	-0.381
Mof_H 	H 	0.2511	0.3378	0.393	0.244
Mof_O 	O 	0.1679	0.3361	0.2591	-0.219
Mof_O 	O 	0.1376	0.4034	0.3568	-0.401
Mof_H 	H 	0.154	0.3867	0.3274	0.252
Mof_O 	O 	0.2172	0.3833	0.471	-0.22
Mof_O 	O 	0.5709	0.3864	0.3352	-0.243
Mof_O 	O 	0.5476	0.3618	0.2331	-0.272
Mof_O 	O 	0.1629	0.6177	0.3029	-0.287
Mof_O 	O 	0.0885	0.6002	0.2283	-0.257
Mof_O 	O 	0.6556	0.072	0.2653	-0.391
Mof_H 	H 	0.6904	0.076	0.2429	0.255
Mof_O 	O 	0.7724	0.0862	0.1892	-0.195
Mof_O 	O 	0.6698	0.152	0.1438	-0.382
Mof_H 	H 	0.6321	0.1485	0.1618	0.25
Mof_O 	O 	0.5493	0.1282	0.1964	-0.215
Mof_O 	O 	0.6449	0.1278	0.5644	-0.245
Mof_O 	O 	0.7556	0.1166	0.5537	-0.293
Mof_O 	O 	0.7066	0.3688	0.1569	-0.328
Mof_O 	O 	0.7972	0.3492	0.102	-0.261
Mof_O 	O 	0.8599	0.5064	0.7558	-0.371
Mof_H 	H 	0.8249	0.5007	0.7326	0.251
Mof_O 	O 	0.75	0.4914	0.6739	-0.224
Mof_O 	O 	0.8498	0.4232	0.6297	-0.388
Mof_H 	H 	0.8864	0.4285	0.6507	0.252
Mof_O 	O 	0.9688	0.4477	0.6952	-0.213
Mof_O 	O 	0.7591	0.4578	0.0408	-0.287
Mof_O 	O 	0.8685	0.4421	0.0556	-0.244
Mof_O 	O 	0.8048	0.2071	0.669	-0.292
Mof_O 	O 	0.7134	0.2266	0.6125	-0.284
Mof_N 	N 	0.2159	0.6514	0.1569	-0.118
Mof_N 	N 	0.1951	0.7418	0.1809	-0.134
Mof_N 	N 	0.7076	0.3403	0.3109	-0.116
Mof_N 	N 	0.7279	0.4276	0.325	-0.13
Mof_N 	N 	0.6574	0.1703	0.7352	-0.125
Mof_N 	N 	0.6826	0.0832	0.7055	-0.12
Mof_N 	N 	0.8511	0.4097	0.2293	-0.12
Mof_N 	N 	0.8298	0.4949	0.1937	-0.146
Mof_C 	C 	0.7545	0.7329	0.2726	0.061
Mof_C 	C 	0.7905	0.7746	0.2448	-0.166
Mof_H 	H 	0.818	0.7906	0.2794	0.071
Mof_H 	H 	0.757	0.797	0.2259	0.091
Mof_C 	C 	0.838	0.7553	0.1901	0.001
Mof_C 	C 	0.9046	0.7439	0.2117	-0.064
Mof_H 	H 	0.9192	0.7491	0.2558	0.053
Mof_C 	C 	0.9485	0.7248	0.167	-0.03
Mof_C 	C 	0.929	0.7237	0.0996	-0.068
Mof_H 	H 	0.962	0.7166	0.0679	0.064
Mof_C 	C 	0.862	0.733	0.0795	0.002
Mof_C 	C 	0.8406	0.7236	0.0104	-0.18
Mof_H 	H 	0.879	0.7298	0.9813	0.079
Mof_H 	H 	0.8022	0.7442	0.9973	0.088
Mof_C 	C 	0.8185	0.6728	0.0041	0.053
Mof_C 	C 	0.8691	0.6384	0.0056	-0.115
Mof_H 	H 	0.9155	0.6481	0.0056	0.069
Mof_C 	C 	0.8557	0.5905	0.007	0.031
Mof_H 	H 	0.8901	0.5672	0.0073	0.023
Mof_C 	C 	0.7862	0.5809	0.0079	-0.13
Mof_H 	H 	0.7748	0.5488	0.0099	0.082
Mof_C 	C 	0.7304	0.6113	0.0062	0.08
Mof_C 	C 	0.6603	0.5969	0.0165	-0.213
Mof_H 	H 	0.6292	0.6213	0.9989	0.107
Mof_H 	H 	0.6511	0.5681	0.9912	0.082
Mof_C 	C 	0.6453	0.5888	0.0816	0.046
Mof_C 	C 	0.648	0.544	0.1085	-0.083
Mof_H 	H 	0.6613	0.5186	0.0819	0.072
Mof_C 	C 	0.6312	0.5357	0.1746	-0.039
Mof_C 	C 	0.6123	0.5728	0.2139	-0.06
Mof_H 	H 	0.5985	0.5671	0.2573	0.06
Mof_C 	C 	0.6134	0.6195	0.19	0.008
Mof_C 	C 	0.5959	0.6579	0.2362	-0.174
Mof_H 	H 	0.567	0.6454	0.2711	0.084
Mof_H 	H 	0.5696	0.6822	0.2123	0.086
Mof_C 	C 	0.6613	0.6796	0.2675	0.042
Mof_C 	C 	0.6955	0.6558	0.3212	-0.109
Mof_H 	H 	0.6749	0.6284	0.3378	0.061
Mof_C 	C 	0.756	0.6704	0.3497	0.016
Mof_H 	H 	0.7781	0.6545	0.385	0.001
Mof_C 	C 	0.7819	0.7109	0.3222	-0.128
Mof_H 	H 	0.8228	0.7233	0.3411	0.061
Mof_C 	C 	0.8162	0.7489	0.1259	0.136
Mof_C 	C 	0.694	0.7193	0.2488	0.043
Mof_C 	C 	0.6304	0.6259	0.126	0.104
Mof_C 	C 	0.7521	0.6576	0.0021	0.026
Mof_C 	C 	0.0237	0.7093	0.1826	0.249
Mof_C 	C 	0.6273	0.4881	0.2033	0.283
Mof_C 	C 	0.6231	0.7824	0.2246	0.131
Mof_H 	H 	0.6528	0.8004	0.2553	-0.01
Mof_H 	H 	0.5826	0.7717	0.2481	-0.009
Mof_C 	C 	0.6011	0.8129	0.1647	-0.272
Mof_H 	H 	0.6416	0.8205	0.139	0.117
Mof_H 	H 	0.5688	0.7952	0.1362	0.103
Mof_C 	C 	0.5669	0.8584	0.1865	0.135
Mof_H 	H 	0.6012	0.8802	0.2053	-0.031
Mof_H 	H 	0.5322	0.852	0.2196	-0.023
Mof_C 	C 	0.5327	0.8791	0.123	-0.471
Mof_H 	H 	0.5096	0.9083	0.1336	0.146
Mof_H 	H 	0.4993	0.8569	0.1049	0.145
Mof_H 	H 	0.5677	0.8851	0.0908	0.145
Mof_C 	C 	0.6817	0.6998	0.9319	0.12
Mof_H 	H 	0.6705	0.6701	0.9095	-0.007
Mof_H 	H 	0.7202	0.7147	0.9096	-0.006
Mof_C 	C 	0.6197	0.7319	0.9315	-0.248
Mof_H 	H 	0.5817	0.7167	0.9542	0.103
Mof_H 	H 	0.6044	0.7384	0.8858	0.091
Mof_C 	C 	0.639	0.7773	0.9662	0.116
Mof_H 	H 	0.6773	0.7924	0.9438	-0.009
Mof_H 	H 	0.6538	0.7708	0.012	0.006
Mof_C 	C 	0.5752	0.8103	0.9648	-0.458
Mof_H 	H 	0.5873	0.8398	0.9862	0.144
Mof_H 	H 	0.538	0.7955	0.9881	0.146
Mof_H 	H 	0.5605	0.8162	0.9193	0.151
Mof_C 	C 	0.2614	0.3482	0.195	0.051
Mof_C 	C 	0.2966	0.3111	0.2252	-0.167
Mof_H 	H 	0.3231	0.2947	0.1918	0.073
Mof_H 	H 	0.2628	0.2888	0.2421	0.1
Mof_C 	C 	0.3477	0.3259	0.2845	-0.011
Mof_C 	C 	0.4123	0.3361	0.2638	-0.043
Mof_H 	H 	0.424	0.3312	0.2196	0.044
Mof_C 	C 	0.461	0.3541	0.3097	-0.061
Mof_C 	C 	0.4424	0.3569	0.3735	-0.039
Mof_H 	H 	0.476	0.364	0.4064	0.055
Mof_C 	C 	0.3756	0.3495	0.3911	-0.023
Mof_C 	C 	0.354	0.3549	0.4626	-0.16
Mof_H 	H 	0.3173	0.3325	0.4723	0.084
Mof_H 	H 	0.3933	0.3489	0.4929	0.075
Mof_C 	C 	0.3291	0.4036	0.4709	0.036
Mof_C 	C 	0.374	0.4412	0.472	-0.105
Mof_H 	H 	0.4217	0.4354	0.4709	0.067
Mof_C 	C 	0.3503	0.4891	0.4748	0.016
Mof_H 	H 	0.3812	0.5144	0.4798	0.031
Mof_C 	C 	0.2792	0.4961	0.4696	-0.124
Mof_H 	H 	0.2636	0.5273	0.4688	0.081
Mof_C 	C 	0.2302	0.4617	0.4657	0.07
Mof_C 	C 	0.163	0.4725	0.4658	-0.173
Mof_H 	H 	0.1546	0.5009	0.4917	0.072
Mof_H 	H 	0.1356	0.4466	0.4831	0.09
Mof_C 	C 	0.1446	0.4819	0.38	-0.028
Mof_C 	C 	0.144	0.5301	0.363	-0.037
Mof_H 	H 	0.1556	0.5541	0.3933	0.057
Mof_C 	C 	0.125	0.5386	0.2984	-0.067
Mof_C 	C 	0.1075	0.503	0.2556	-0.04
Mof_H 	H 	0.0902	0.5109	0.2131	0.054
Mof_C 	C 	0.1139	0.4562	0.2719	-0.009
Mof_C 	C 	0.0946	0.4182	0.229	-0.191
Mof_H 	H 	0.0699	0.394	0.2533	0.096
Mof_H 	H 	0.0647	0.4294	0.1925	0.089
Mof_C 	C 	0.1561	0.4001	0.2048	0.06
Mof_C 	C 	0.19	0.4242	0.1582	-0.127
Mof_H 	H 	0.1679	0.4519	0.1433	0.066
Mof_C 	C 	0.2515	0.4148	0.1291	0.022
Mof_H 	H 	0.2669	0.4347	0.0955	0.005
Mof_C 	C 	0.291	0.377	0.1481	-0.126
Mof_H 	H 	0.3346	0.371	0.1308	0.06
Mof_C 	C 	0.3275	0.332	0.3467	0.15
Mof_C 	C 	0.1988	0.3615	0.2196	0.066
Mof_C 	C 	0.1329	0.4462	0.3364	0.16
Mof_C 	C 	0.2611	0.417	0.4705	0.066
Mof_C 	C 	0.5281	0.3694	0.2911	0.258
Mof_C 	C 	0.1266	0.5863	0.2763	0.28
Mof_C 	C 	0.12	0.2493	0.32	0.115
Mof_H 	H 	0.1234	0.2684	0.3603	-0.002
Mof_H 	H 	0.1672	0.2445	0.3044	0.006
Mof_C 	C 	0.088	0.2018	0.336	-0.463
Mof_H 	H 	0.1201	0.1833	0.3623	0.144
Mof_H 	H 	0.0771	0.1853	0.2946	0.145
Mof_H 	H 	0.046	0.2067	0.3596	0.145
Mof_C 	C 	0.1903	0.3666	0.535	0.098
Mof_H 	H 	0.1788	0.3939	0.5623	-0.004
Mof_H 	H 	0.2263	0.3487	0.5587	0.002
Mof_C 	C 	0.1265	0.336	0.5254	-0.266
Mof_H 	H 	0.0875	0.3511	0.5466	0.095
Mof_H 	H 	0.1151	0.3334	0.4781	0.115
Mof_C 	C 	0.7132	0.524	0.6325	0.129
Mof_H 	H 	0.677	0.5397	0.657	-0.008
Mof_H 	H 	0.6919	0.5079	0.5943	-0.004
Mof_C 	C 	0.8329	0.1082	0.2859	0.022
Mof_C 	C 	0.7976	0.0662	0.321	-0.146
Mof_H 	H 	0.8317	0.0517	0.3513	0.061
Mof_H 	H 	0.7852	0.0427	0.2873	0.068
Mof_C 	C 	0.7315	0.0774	0.361	-0.029
Mof_C 	C 	0.7421	0.0881	0.4267	-0.042
Mof_H 	H 	0.7855	0.0848	0.4481	0.048
Mof_C 	C 	0.6876	0.1035	0.4578	-0.047
Mof_C 	C 	0.6228	0.1089	0.4291	-0.055
Mof_H 	H 	0.5854	0.1196	0.4535	0.059
Mof_C 	C 	0.6153	0.0975	0.3622	0
Mof_C 	C 	0.5436	0.1035	0.3315	-0.165
Mof_H 	H 	0.5368	0.0807	0.2956	0.097
Mof_H 	H 	0.5092	0.0972	0.3649	0.075
Mof_C 	C 	0.5335	0.1516	0.3053	0.057
Mof_C 	C 	0.5224	0.1884	0.3491	-0.123
Mof_H 	H 	0.5148	0.1823	0.394	0.071
Mof_C 	C 	0.5228	0.2343	0.3257	0.034
Mof_H 	H 	0.5171	0.2596	0.3548	0.023
Mof_C 	C 	0.5316	0.2421	0.2599	-0.132
Mof_H 	H 	0.5297	0.2732	0.2443	0.085
Mof_C 	C 	0.5425	0.2086	0.218	0.06
Mof_C 	C 	0.558	0.2184	0.1467	-0.177
Mof_H 	H 	0.5278	0.2435	0.1297	0.071
Mof_H 	H 	0.5494	0.1901	0.1201	0.078
Mof_C 	C 	0.633	0.2332	0.1415	-0
Mof_C 	C 	0.6527	0.28	0.1376	-0.066
Mof_H 	H 	0.6202	0.3044	0.1399	0.061
Mof_C 	C 	0.7216	0.2892	0.1303	-0.043
Mof_C 	C 	0.7714	0.2556	0.1248	-0.067
Mof_H 	H 	0.8174	0.2639	0.1172	0.064
Mof_C 	C 	0.7525	0.2095	0.1305	0.029
Mof_C 	C 	0.8028	0.1683	0.1266	-0.2
Mof_H 	H 	0.7786	0.1405	0.1093	0.115
Mof_H 	H 	0.8397	0.1761	0.0963	0.088
Mof_C 	C 	0.8314	0.1586	0.1897	0.068
Mof_C 	C 	0.877	0.1862	0.2277	-0.124
Mof_H 	H 	0.8946	0.2127	0.2061	0.062
Mof_C 	C 	0.8993	0.1804	0.2908	0.02
Mof_H 	H 	0.929	0.2013	0.3136	-0.002
Mof_C 	C 	0.8743	0.1416	0.3166	-0.118
Mof_H 	H 	0.8862	0.1361	0.3613	0.05
Mof_C 	C 	0.6697	0.0837	0.327	0.153
Mof_C 	C 	0.8121	0.1174	0.222	0.047
Mof_C 	C 	0.6841	0.1994	0.1387	0.103
Mof_C 	C 	0.5387	0.1636	0.2412	0.038
Mof_C 	C 	0.7002	0.1183	0.5295	0.276
Mof_C 	C 	0.7388	0.3414	0.1311	0.31
Mof_C 	C 	0.688	0.4718	0.7686	0.032
Mof_C 	C 	0.7216	0.5132	0.8067	-0.162
Mof_H 	H 	0.7338	0.5378	0.7752	0.081
Mof_H 	H 	0.6882	0.5264	0.8369	0.069
Mof_C 	C 	0.784	0.4989	0.8448	-0.001
Mof_C 	C 	0.7734	0.4838	0.91	-0.065
Mof_H 	H 	0.7288	0.4817	0.9269	0.054
Mof_C 	C 	0.8308	0.4721	0.9482	-0.035
Mof_C 	C 	0.8939	0.4718	0.9229	-0.069
Mof_H 	H 	0.9321	0.4633	0.9499	0.062
Mof_C 	C 	0.9035	0.4836	0.8583	0.017
Mof_C 	C 	0.9761	0.4745	0.8291	-0.174
Mof_H 	H 	0.9834	0.4964	0.7926	0.097
Mof_H 	H 	0.0118	0.4805	0.8633	0.069
Mof_C 	C 	0.983	0.4273	0.8055	0.06
Mof_C 	C 	0.9974	0.3924	0.8531	-0.122
Mof_H 	H 	0.0061	0.4001	0.8977	0.069
Mof_C 	C 	0.9985	0.3462	0.8314	0.027
Mof_H 	H 	0.0077	0.3221	0.8622	0.025
Mof_C 	C 	0.9862	0.3345	0.7652	-0.126
Mof_H 	H 	0.9854	0.3027	0.7525	0.082
Mof_C 	C 	0.9758	0.3678	0.7198	0.054
Mof_C 	C 	0.961	0.3533	0.6519	-0.167
Mof_H 	H 	0.9882	0.3253	0.6419	0.064
Mof_H 	H 	0.9743	0.3784	0.6217	0.074
Mof_C 	C 	0.8835	0.3423	0.6412	-0.015
Mof_C 	C 	0.8629	0.297	0.6445	-0.053
Mof_H 	H 	0.8953	0.2729	0.6526	0.056
Mof_C 	C 	0.7948	0.2864	0.6362	-0.047
Mof_C 	C 	0.7463	0.3209	0.6223	-0.071
Mof_H 	H 	0.7001	0.3126	0.6135	0.063
Mof_C 	C 	0.7656	0.368	0.6214	0.033
Mof_C 	C 	0.7141	0.4031	0.6091	-0.182
Mof_H 	H 	0.6764	0.3897	0.582	0.084
Mof_H 	H 	0.7341	0.4292	0.5844	0.105
Mof_C 	C 	0.6862	0.4214	0.673	0.054
Mof_C 	C 	0.6425	0.3922	0.708	-0.108
Mof_H 	H 	0.626	0.3646	0.6874	0.061
Mof_C 	C 	0.6225	0.4018	0.7709	0.001
Mof_H 	H 	0.5948	0.3803	0.7934	0.012
Mof_C 	C 	0.6436	0.4445	0.8024	-0.107
Mof_H 	H 	0.6277	0.4532	0.8441	0.048
Mof_C 	C 	0.847	0.4961	0.8219	0.111
Mof_C 	C 	0.7052	0.4615	0.7065	0.049
Mof_C 	C 	0.8356	0.3766	0.6315	0.118
Mof_C 	C 	0.9756	0.4128	0.7416	0.036
Mof_C 	C 	0.8158	0.456	0.0181	0.257
Mof_C 	C 	0.7668	0.2368	0.6381	0.298
Mof_C 	C 	0.2295	0.6051	0.1451	-0.039
Mof_H 	H 	0.21	0.5827	0.1732	0.057
Mof_C 	C 	0.2672	0.59	0.098	0.075
Mof_C 	C 	0.2962	0.6239	0.0522	0.065
Mof_C 	C 	0.284	0.6709	0.0658	-0.024
Mof_C 	C 	0.3139	0.7074	0.0245	-0.069
Mof_H 	H 	0.3411	0.7	0.9882	0.051
Mof_C 	C 	0.3008	0.7506	0.0404	0.009
Mof_H 	H 	0.3225	0.7744	0.0161	0.015
Mof_C 	C 	0.2591	0.7643	0.0885	-0.088
Mof_C 	C 	0.2473	0.8109	0.1047	0.121
Mof_C 	C 	0.2084	0.8226	0.1564	0.016
Mof_C 	C 	0.1825	0.7866	0.1917	-0.005
Mof_H 	H 	0.1533	0.7941	0.2265	0.044
Mof_C 	C 	0.2314	0.7338	0.1289	0.079
Mof_C 	C 	0.248	0.6825	0.1178	0.042
Mof_C 	C 	0.2705	0.5374	0.0935	-0.438
Mof_H 	H 	0.2998	0.5285	0.0575	0.14
Mof_H 	H 	0.2245	0.525	0.0853	0.148
Mof_H 	H 	0.2893	0.5247	0.1347	0.153
Mof_C 	C 	0.3522	0.612	0.004	-0.445
Mof_H 	H 	0.355	0.5782	0.9989	0.146
Mof_H 	H 	0.3961	0.6239	0.0209	0.149
Mof_H 	H 	0.3413	0.6263	0.9614	0.171
Mof_C 	C 	0.274	0.849	0.0631	-0.508
Mof_H 	H 	0.3005	0.8355	0.0278	0.176
Mof_H 	H 	0.3033	0.8695	0.0899	0.169
Mof_H 	H 	0.2357	0.8669	0.0442	0.189
Mof_C 	C 	0.1885	0.8743	0.181	-0.415
Mof_H 	H 	0.1602	0.872	0.2196	0.16
Mof_H 	H 	0.163	0.8906	0.1459	0.156
Mof_H 	H 	0.2302	0.8917	0.1922	0.155
Mof_C 	C 	0.6961	0.2923	0.3024	-0.059
Mof_H 	H 	0.6696	0.2823	0.2653	0.062
Mof_C 	C 	0.7214	0.2588	0.3455	0.102
Mof_C 	C 	0.7612	0.2735	0.4013	0.048
Mof_C 	C 	0.7734	0.3207	0.4106	-0.034
Mof_C 	C 	0.8109	0.3442	0.4618	-0.046
Mof_H 	H 	0.8306	0.325	0.4951	0.041
Mof_C 	C 	0.821	0.3878	0.4683	-0.03
Mof_H 	H 	0.8478	0.3985	0.5047	0.04
Mof_C 	C 	0.795	0.4196	0.4249	-0.052
Mof_C 	C 	0.8057	0.4697	0.4314	0.095
Mof_C 	C 	0.7765	0.4946	0.384	0.045
Mof_C 	C 	0.741	0.4765	0.3354	-0.029
Mof_H 	H 	0.7219	0.4974	0.3039	0.054
Mof_C 	C 	0.7562	0.4031	0.3702	0.071
Mof_C 	C 	0.7458	0.353	0.3641	0.041
Mof_C 	C 	0.7108	0.2087	0.3289	-0.502
Mof_H 	H 	0.7103	0.2049	0.2812	0.183
Mof_H 	H 	0.6672	0.1982	0.3459	0.183
Mof_H 	H 	0.748	0.1902	0.3486	0.173
Mof_C 	C 	0.7855	0.2354	0.4491	-0.435
Mof_H 	H 	0.7995	0.2079	0.4245	0.145
Mof_H 	H 	0.7482	0.227	0.4778	0.169
Mof_H 	H 	0.8243	0.2469	0.4757	0.151
Mof_C 	C 	0.8474	0.4865	0.4891	-0.48
Mof_H 	H 	0.8959	0.4857	0.4788	0.159
Mof_H 	H 	0.8394	0.4664	0.5268	0.181
Mof_H 	H 	0.8342	0.5185	0.4996	0.155
Mof_C 	C 	0.7844	0.5486	0.3864	-0.415
Mof_H 	H 	0.7761	0.5615	0.3426	0.147
Mof_H 	H 	0.8308	0.5565	0.4018	0.137
Mof_H 	H 	0.7514	0.5616	0.4165	0.143
Mof_C 	C 	0.6415	0.219	0.7521	-0.056
Mof_H 	H 	0.6607	0.2437	0.7277	0.061
Mof_C 	C 	0.6008	0.2287	0.8007	0.097
Mof_C 	C 	0.5722	0.2012	0.838	0.035
Mof_C 	C 	0.5859	0.1509	0.8239	-0.026
Mof_C 	C 	0.5482	0.112	0.8559	-0.055
Mof_H 	H 	0.5169	0.1187	0.8892	0.043
Mof_C 	C 	0.5587	0.0679	0.8377	-0.022
Mof_H 	H 	0.5358	0.0437	0.8597	0.031
Mof_C 	C 	0.6017	0.0565	0.788	-0.052
Mof_C 	C 	0.6138	0.0112	0.7717	0.072
Mof_C 	C 	0.6632	0.0013	0.7212	0.098
Mof_C 	C 	0.6939	0.0382	0.6923	-0.05
Mof_H 	H 	0.7262	0.0314	0.6599	0.057
Mof_C 	C 	0.6343	0.0889	0.7556	0.044
Mof_C 	C 	0.6255	0.1405	0.7696	0.057
Mof_C 	C 	0.5996	0.2806	0.8092	-0.46
Mof_H 	H 	0.5643	0.294	0.78	0.156
Mof_H 	H 	0.6442	0.2936	0.7985	0.16
Mof_H 	H 	0.5895	0.2881	0.8547	0.149
Mof_C 	C 	0.5307	0.2129	0.8985	-0.403
Mof_H 	H 	0.5518	0.2393	0.9217	0.13
Mof_H 	H 	0.5301	0.1858	0.9277	0.141
Mof_H 	H 	0.4839	0.2209	0.8848	0.147
Mof_C 	C 	0.5775	0.9703	0.8009	-0.469
Mof_H 	H 	0.5374	0.9624	0.7734	0.181
Mof_H 	H 	0.5631	0.9783	0.845	0.159
Mof_H 	H 	0.6085	0.9436	0.8033	0.158
Mof_C 	C 	0.6787	0.9539	0.6992	-0.504
Mof_H 	H 	0.6921	0.9347	0.737	0.175
Mof_H 	H 	0.7163	0.955	0.6685	0.182
Mof_H 	H 	0.6382	0.9405	0.6772	0.181
Mof_C 	C 	0.8639	0.3634	0.2501	-0.052
Mof_H 	H 	0.8411	0.3391	0.2268	0.061
Mof_C 	C 	0.9044	0.3518	0.2987	0.082
Mof_C 	C 	0.937	0.3842	0.333	0.04
Mof_C 	C 	0.9274	0.4356	0.3146	-0.015
Mof_C 	C 	0.9607	0.4732	0.3485	-0.064
Mof_H 	H 	0.9907	0.4669	0.3846	0.045
Mof_C 	C 	0.9495	0.5187	0.3291	-0.005
Mof_H 	H 	0.9726	0.5428	0.3525	0.02
Mof_C 	C 	0.9031	0.5316	0.2735	-0.099
Mof_C 	C 	0.8898	0.5736	0.2531	0.157
Mof_C 	C 	0.8454	0.5772	0.2015	0.008
Mof_C 	C 	0.818	0.537	0.1743	0.008
Mof_H 	H 	0.7874	0.5407	0.1377	0.039
Mof_C 	C 	0.8702	0.4909	0.2409	0.087
Mof_C 	C 	0.8858	0.4412	0.2655	0.036
Mof_C 	C 	0.912	0.2998	0.3171	-0.44
Mof_H 	H 	0.868	0.2878	0.3312	0.156
Mof_H 	H 	0.9461	0.2964	0.3528	0.141
Mof_H 	H 	0.9266	0.2822	0.2789	0.147
Mof_C 	C 	0.9852	0.3744	0.3951	-0.411
Mof_H 	H 	0.0115	0.3459	0.388	0.141
Mof_H 	H 	0.9574	0.3707	0.4338	0.14
Mof_H 	H 	0.0166	0.4007	0.4018	0.157
Mof_C 	C 	0.9228	0.6136	0.2845	-0.548
Mof_H 	H 	0.8893	0.6309	0.3097	0.176
Mof_H 	H 	0.9415	0.634	0.2511	0.199
Mof_H 	H 	0.9599	0.6029	0.314	0.19
Mof_C 	C 	0.8235	0.6264	0.1762	-0.415
Mof_H 	H 	0.7857	0.6232	0.144	0.159
Mof_H 	H 	0.8622	0.6415	0.1556	0.155
Mof_H 	H 	0.8086	0.6453	0.213	0.152
Mof_C 	C 	0.122	0.3026	0.2211	0.078
Mof_H 	H 	0.092	0.3203	0.1899	0.007
Mof_H 	H 	0.1497	0.2809	0.1956	0.007
Mof_C 	C 	0.0774	0.2752	0.2672	-0.23
Mof_H 	H 	0.0499	0.2523	0.2416	0.084
Mof_H 	H 	0.0456	0.2967	0.2887	0.091
Mof_C 	C 	0.4831	0.111	0.1689	0.098
Mof_H 	H 	0.4521	0.1372	0.1577	-0.004
Mof_H 	H 	0.4605	0.0902	0.2002	-0.002
Mof_C 	C 	0.5033	0.0849	0.1081	-0.253
Mof_H 	H 	0.5241	0.107	0.0774	0.095
Mof_H 	H 	0.4616	0.0721	0.0863	0.09
Mof_C 	C 	0.5531	0.0453	0.1215	0.154
Mof_H 	H 	0.5968	0.0583	0.1386	-0
Mof_H 	H 	0.5621	0.0291	0.0799	-0.036
Mof_C 	C 	0.526	0.0096	0.1711	-0.499
Mof_H 	H 	0.5604	0.9851	0.1783	0.161
Mof_H 	H 	0.4837	0.9958	0.1539	0.161
Mof_H 	H 	0.5178	0.0253	0.2127	0.18
Mof_C 	C 	0.0191	0.4966	0.6099	-0.243
Mof_H 	H 	0.9877	0.4822	0.577	0.092
Mof_H 	H 	0.0618	0.5051	0.5881	0.085
Mof_C 	C 	0.0347	0.4621	0.6656	0.085
Mof_H 	H 	0.0584	0.4344	0.6483	-0.005
Mof_H 	H 	0.0649	0.4768	0.6992	-0.002
Mof_C 	C 	0.767	0.5593	0.6103	-0.308
Mof_H 	H 	0.785	0.5773	0.6483	0.117
Mof_H 	H 	0.8054	0.5429	0.5901	0.116
Mof_C 	C 	0.7322	0.592	0.5606	0.214
Mof_H 	H 	0.7176	0.5738	0.5216	-0.045
Mof_H 	H 	0.6909	0.6053	0.58	-0.038
Mof_C 	C 	0.7773	0.631	0.5395	-0.568
Mof_H 	H 	0.7524	0.6505	0.5077	0.185
Mof_H 	H 	0.818	0.6181	0.5193	0.172
Mof_H 	H 	0.7911	0.6497	0.5777	0.178
Mof_C 	C 	0.807	0.0489	0.1542	-0.077
Mof_H 	H 	0.8423	0.0353	0.1841	0.169
Mof_H 	H 	0.8308	0.0629	0.117	0.028
Mof_C 	C 	0.9857	0.5408	0.6387	0.117
Mof_H 	H 	0.9658	0.5546	0.5981	-0.016
Mof_H 	H 	0.9463	0.5264	0.6602	0.02
Mof_C 	C 	0.737	0.9771	0.182	0.029
Mof_H 	H 	0.7775	0.9622	0.2038	0.054
Mof_H 	H 	0.7144	0.9961	0.2156	0.032
Mof_C 	C 	0.761	0.0091	0.1277	-0.267
Mof_H 	H 	0.7211	0.0226	0.1042	0.083
Mof_H 	H 	0.7872	0.9906	0.0959	0.089
Mof_C 	C 	0.994	0.5848	0.6803	-0.482
Mof_H 	H 	0.9507	0.6023	0.6789	0.153
Mof_H 	H 	0.0302	0.6042	0.663	0.161
Mof_H 	H 	0.0052	0.5762	0.7257	0.166
Mof_C 	C 	0.688	0.9394	0.158	-0.425
Mof_H 	H 	0.6785	0.918	0.1937	0.141
Mof_H 	H 	0.7089	0.9222	0.1221	0.14
Mof_H 	H 	0.6456	0.9538	0.1418	0.139
Mof_C 	C 	0.1361	0.2871	0.554	0.146
Mof_H 	H 	0.157	0.2893	0.5984	-0.024
Mof_H 	H 	0.1675	0.2692	0.5263	-0.019
Mof_C 	C 	0.0669	0.2615	0.557	-0.492
Mof_H 	H 	0.0722	0.2335	0.5838	0.159
Mof_H 	H 	0.0516	0.2527	0.5124	0.153
Mof_H 	H 	0.033	0.2821	0.576	0.159
Mof_C 	C 	0.778	0.9655	0.186	0.109
Mof_H 	H 	0.779	0.9535	0.1411	0.003
Mof_H 	H 	0.7309	0.9767	0.1941	0.001
Mof_C 	C 	0.796	0.9255	0.235	-0.54
Mof_H 	H 	0.7611	0.901	0.2308	0.172
Mof_H 	H 	0.7962	0.9377	0.28	0.174
Mof_H 	H 	0.8405	0.9128	0.2255	0.185
Mof_C 	C 	0.8279	0.0061	0.194	-0.355
Mof_H 	H 	0.8316	0.0149	0.2411	0.108
Mof_H 	H 	0.8736	0.9958	0.1808	0.103
Mof_H 	H 	0.8485	0.0621	0.1349	-0.006
Mof_H 	H 	0.7765	0.0386	0.1176	0.14
_end
