data_functionalizedCrystal
_audit_creation_method	'EQeq! by Chris Wilmer'
_symmetry_space_group_name_H-M	'P1'
_symmetry_Int_Tables_number	1
_symmetry_cell_setting	triclinic
loop_
_symmetry_equiv_pos_as_xyz
  x,y,z
_cell_length_a	8.3567
_cell_length_b	9.0434
_cell_length_c	12.055
_cell_angle_alpha	90
_cell_angle_beta	90
_cell_angle_gamma	90
loop_
_atom_site_label
_atom_site_type_symbol
_atom_site_fract_x
_atom_site_fract_y
_atom_site_fract_z
_atom_site_charge
Mof_Ni	Ni	0.12879	0.81024	0.68074	1.045
Mof_O 	O 	0.05948	0.59132	0.6937	-0.464
Mof_N 	N 	0.38051	0.58384	0.61242	-0.07
Mof_N 	N 	0.34219	0.73128	0.6098	-0.227
Mof_C 	C 	0.1421	0.47855	0.71404	0.404
Mof_C 	C 	0.3241	0.4818	0.6983	-0.317
Mof_H 	H 	0.3733	0.509	0.7683	0.103
Mof_H 	H 	0.3601	0.3829	0.6798	0.118
Mof_C 	C 	0.482	0.5548	0.53035	0.061
Mof_H 	H 	0.525	0.4621	0.5152	-0.029
Mof_N 	N 	0.51345	0.67692	0.47305	-0.239
Mof_O 	O 	0.09179	0.35828	0.7523	-0.455
Mof_C 	C 	0.4248	0.78168	0.52402	0.099
Mof_H 	H 	0.422	0.8798	0.5011	-0.032
Mof_Ni	Ni	0.37121	0.18976	0.18074	1.046
Mof_O 	O 	0.44052	0.40868	0.1937	-0.463
Mof_N 	N 	0.11949	0.41616	0.11242	-0.069
Mof_N 	N 	0.15781	0.26872	0.1098	-0.227
Mof_C 	C 	0.3579	0.52145	0.21404	0.405
Mof_C 	C 	0.1759	0.5182	0.1983	-0.317
Mof_H 	H 	0.1267	0.491	0.2683	0.103
Mof_H 	H 	0.1399	0.6171	0.1798	0.118
Mof_C 	C 	0.018	0.4452	0.03035	0.063
Mof_H 	H 	0.975	0.5379	0.0152	-0.03
Mof_N 	N 	0.98655	0.32308	0.97305	-0.24
Mof_O 	O 	0.40821	0.64172	0.2523	-0.455
Mof_C 	C 	0.0752	0.21832	0.02402	0.1
Mof_H 	H 	0.078	0.1202	0.0011	-0.032
Mof_Ni	Ni	0.87121	0.31024	0.81926	1.046
Mof_O 	O 	0.94052	0.09132	0.8063	-0.463
Mof_N 	N 	0.61949	0.08384	0.88758	-0.069
Mof_N 	N 	0.65781	0.23128	0.8902	-0.227
Mof_C 	C 	0.8579	0.97855	0.78596	0.405
Mof_C 	C 	0.6759	0.9818	0.8017	-0.318
Mof_H 	H 	0.6267	0.009	0.7317	0.103
Mof_H 	H 	0.6399	0.8829	0.8202	0.117
Mof_C 	C 	0.518	0.0548	0.96965	0.063
Mof_H 	H 	0.475	0.9621	0.9848	-0.03
Mof_N 	N 	0.48655	0.17692	0.02695	-0.24
Mof_O 	O 	0.90821	0.85828	0.7477	-0.456
Mof_C 	C 	0.5752	0.28168	0.97598	0.1
Mof_H 	H 	0.578	0.3798	0.9989	-0.032
Mof_Ni	Ni	0.62879	0.68976	0.31926	1.046
Mof_O 	O 	0.55948	0.90868	0.3063	-0.462
Mof_N 	N 	0.88051	0.91616	0.38758	-0.068
Mof_N 	N 	0.84219	0.76872	0.3902	-0.227
Mof_C 	C 	0.6421	0.02145	0.28596	0.404
Mof_C 	C 	0.8241	0.0182	0.3017	-0.32
Mof_H 	H 	0.8733	0.991	0.2317	0.105
Mof_H 	H 	0.8601	0.1171	0.3202	0.118
Mof_C 	C 	0.982	0.9452	0.46965	0.061
Mof_H 	H 	0.025	0.0379	0.4848	-0.029
Mof_N 	N 	0.01345	0.82308	0.52695	-0.238
Mof_O 	O 	0.59179	0.14172	0.2477	-0.455
Mof_C 	C 	0.9248	0.71832	0.47598	0.099
Mof_H 	H 	0.922	0.6202	0.4989	-0.032
_end
