data_functionalizedCrystal
_audit_creation_method	'EQeq! by Chris Wilmer'
_symmetry_space_group_name_H-M	'P1'
_symmetry_Int_Tables_number	1
_symmetry_cell_setting	triclinic
loop_
_symmetry_equiv_pos_as_xyz
  x,y,z
_cell_length_a	20.463
_cell_length_b	20.463
_cell_length_c	17.989
_cell_angle_alpha	90
_cell_angle_beta	90
_cell_angle_gamma	120
loop_
_atom_site_label
_atom_site_type_symbol
_atom_site_fract_x
_atom_site_fract_y
_atom_site_fract_z
_atom_site_charge
Mof_Cu	Cu	0.09222	0.34004	0.48494	0.787
Mof_N 	N 	0.1358	0.3398	0.382	-0.211
Mof_N 	N 	0.0377	0.4019	0.4894	-0.211
Mof_C 	C 	0.0997	0.3326	0.3189	0.04
Mof_C 	C 	0.0264	0.333	0.3208	-0.04
Mof_H 	H 	0.0365	0.3841	0.3244	0.036
Mof_H 	H 	0.998	0.306	0.3638	-0.034
Mof_C 	C 	0.0738	0.4762	0.4775	0.113
Mof_C 	C 	0.154	0.5148	0.451	-0.28
Mof_H 	H 	0.1546	0.5093	0.398	0.099
Mof_H 	H 	0.1794	0.4909	0.473	0.078
Mof_Cu	Cu	0.65996	0.75218	0.48494	0.785
Mof_N 	N 	0.6602	0.796	0.382	-0.223
Mof_N 	N 	0.5981	0.6358	0.4894	-0.222
Mof_C 	C 	0.6674	0.7671	0.3189	0.086
Mof_C 	C 	0.667	0.6934	0.3208	-0.216
Mof_H 	H 	0.6159	0.6524	0.3244	0.083
Mof_H 	H 	0.694	0.692	0.3638	0.036
Mof_C 	C 	0.5238	0.5976	0.4775	0.12
Mof_C 	C 	0.4852	0.6392	0.451	-0.288
Mof_H 	H 	0.4907	0.6453	0.398	0.099
Mof_H 	H 	0.5091	0.6885	0.473	0.08
Mof_Cu	Cu	0.24782	0.90778	0.48494	0.779
Mof_N 	N 	0.204	0.8642	0.382	-0.244
Mof_N 	N 	0.3642	0.9623	0.4894	-0.236
Mof_C 	C 	0.2329	0.9003	0.3189	0.174
Mof_C 	C 	0.3066	0.9736	0.3208	-0.447
Mof_H 	H 	0.3476	0.9635	0.3244	0.145
Mof_H 	H 	0.308	0.002	0.3638	0.123
Mof_C 	C 	0.4024	0.9262	0.4775	0.128
Mof_C 	C 	0.3608	0.846	0.451	-0.298
Mof_H 	H 	0.3547	0.8454	0.398	0.099
Mof_H 	H 	0.3115	0.8206	0.473	0.083
Mof_Cu	Cu	0.90778	0.65996	0.98494	0.757
Mof_N 	N 	0.8642	0.6602	0.882	-0.244
Mof_N 	N 	0.9623	0.5981	0.9894	-0.253
Mof_C 	C 	0.9003	0.6674	0.8189	0.147
Mof_C 	C 	0.9736	0.667	0.8208	-0.393
Mof_H 	H 	0.9635	0.6159	0.8244	0.129
Mof_H 	H 	0.002	0.694	0.8638	0.096
Mof_C 	C 	0.9262	0.5238	0.9775	0.082
Mof_C 	C 	0.846	0.4852	0.951	-0.157
Mof_H 	H 	0.8454	0.4907	0.898	0.059
Mof_H 	H 	0.8206	0.5091	0.973	0.026
Mof_Cu	Cu	0.34004	0.24782	0.98494	0.76
Mof_N 	N 	0.3398	0.204	0.882	-0.233
Mof_N 	N 	0.4019	0.3642	0.9894	-0.242
Mof_C 	C 	0.3326	0.2329	0.8189	0.104
Mof_C 	C 	0.333	0.3066	0.8208	-0.225
Mof_H 	H 	0.3841	0.3476	0.8244	0.085
Mof_H 	H 	0.306	0.308	0.8638	0.03
Mof_C 	C 	0.4762	0.4024	0.9775	0.074
Mof_C 	C 	0.5148	0.3608	0.951	-0.148
Mof_H 	H 	0.5093	0.3547	0.898	0.059
Mof_H 	H 	0.4909	0.3115	0.973	0.023
Mof_Cu	Cu	0.75218	0.09222	0.98494	0.761
Mof_N 	N 	0.796	0.1358	0.882	-0.215
Mof_N 	N 	0.6358	0.0377	0.9894	-0.229
Mof_C 	C 	0.7671	0.0997	0.8189	0.024
Mof_C 	C 	0.6934	0.0264	0.8208	-0.022
Mof_H 	H 	0.6524	0.0365	0.8244	0.03
Mof_H 	H 	0.692	0.998	0.8638	-0.048
Mof_C 	C 	0.5976	0.0738	0.9775	0.065
Mof_C 	C 	0.6392	0.154	0.951	-0.136
Mof_H 	H 	0.6453	0.1546	0.898	0.058
Mof_H 	H 	0.6885	0.1794	0.973	0.02
Mof_Cu	Cu	0.34004	0.09222	0.51506	0.786
Mof_N 	N 	0.3398	0.1358	0.618	-0.212
Mof_N 	N 	0.4019	0.0377	0.5106	-0.209
Mof_C 	C 	0.3326	0.0997	0.6811	0.037
Mof_C 	C 	0.333	0.0264	0.6792	-0.029
Mof_H 	H 	0.3841	0.0365	0.6756	0.033
Mof_H 	H 	0.306	0.998	0.6362	-0.039
Mof_C 	C 	0.4762	0.0738	0.5225	0.113
Mof_C 	C 	0.5148	0.154	0.549	-0.28
Mof_H 	H 	0.5093	0.1546	0.602	0.1
Mof_H 	H 	0.4909	0.1794	0.527	0.078
Mof_Cu	Cu	0.75218	0.65996	0.51506	0.785
Mof_N 	N 	0.796	0.6602	0.618	-0.223
Mof_N 	N 	0.6358	0.5981	0.5106	-0.222
Mof_C 	C 	0.7671	0.6674	0.6811	0.086
Mof_C 	C 	0.6934	0.667	0.6792	-0.212
Mof_H 	H 	0.6524	0.6159	0.6756	0.082
Mof_H 	H 	0.692	0.694	0.6362	0.035
Mof_C 	C 	0.5976	0.5238	0.5225	0.121
Mof_C 	C 	0.6392	0.4852	0.549	-0.289
Mof_H 	H 	0.6453	0.4907	0.602	0.1
Mof_H 	H 	0.6885	0.5091	0.527	0.08
Mof_Cu	Cu	0.90778	0.24782	0.51506	0.779
Mof_N 	N 	0.8642	0.204	0.618	-0.242
Mof_N 	N 	0.9623	0.3642	0.5106	-0.235
Mof_C 	C 	0.9003	0.2329	0.6811	0.162
Mof_C 	C 	0.9736	0.3066	0.6792	-0.41
Mof_H 	H 	0.9635	0.3476	0.6756	0.135
Mof_H 	H 	0.002	0.308	0.6362	0.109
Mof_C 	C 	0.9262	0.4024	0.5225	0.128
Mof_C 	C 	0.846	0.3608	0.549	-0.298
Mof_H 	H 	0.8454	0.3547	0.602	0.1
Mof_H 	H 	0.8206	0.3115	0.527	0.083
Mof_Cu	Cu	0.65996	0.90778	0.01506	0.792
Mof_N 	N 	0.6602	0.8642	0.118	-0.241
Mof_N 	N 	0.5981	0.9623	0.0106	-0.218
Mof_C 	C 	0.6674	0.9003	0.1811	0.162
Mof_C 	C 	0.667	0.9736	0.1792	-0.437
Mof_H 	H 	0.6159	0.9635	0.1756	0.143
Mof_H 	H 	0.694	0.002	0.1362	0.123
Mof_C 	C 	0.5238	0.9262	0.0225	0.173
Mof_C 	C 	0.4852	0.846	0.049	-0.433
Mof_H 	H 	0.4907	0.8454	0.102	0.139
Mof_H 	H 	0.5091	0.8206	0.027	0.137
Mof_Cu	Cu	0.24782	0.34004	0.01506	0.798
Mof_N 	N 	0.204	0.3398	0.118	-0.228
Mof_N 	N 	0.3642	0.4019	0.0106	-0.203
Mof_C 	C 	0.2329	0.3326	0.1811	0.109
Mof_C 	C 	0.3066	0.333	0.1792	-0.237
Mof_H 	H 	0.3476	0.3841	0.1756	0.09
Mof_H 	H 	0.308	0.306	0.1362	0.046
Mof_C 	C 	0.4024	0.4762	0.0225	0.167
Mof_C 	C 	0.3608	0.5148	0.049	-0.428
Mof_H 	H 	0.3547	0.5093	0.102	0.141
Mof_H 	H 	0.3115	0.4909	0.027	0.137
Mof_Cu	Cu	0.09222	0.75218	0.01506	0.799
Mof_N 	N 	0.1358	0.796	0.118	-0.21
Mof_N 	N 	0.0377	0.6358	0.0106	-0.193
Mof_C 	C 	0.0997	0.7671	0.1811	0.029
Mof_C 	C 	0.0264	0.6934	0.1792	-0.038
Mof_H 	H 	0.0365	0.6524	0.1756	0.036
Mof_H 	H 	0.998	0.692	0.1362	-0.031
Mof_C 	C 	0.0738	0.5976	0.0225	0.16
Mof_C 	C 	0.154	0.6392	0.049	-0.419
Mof_H 	H 	0.1546	0.6453	0.102	0.14
Mof_H 	H 	0.1794	0.6885	0.027	0.134
Mof_Cu	Cu	0.90778	0.65996	0.51506	0.78
Mof_N 	N 	0.8642	0.6602	0.618	-0.239
Mof_N 	N 	0.9623	0.5981	0.5106	-0.234
Mof_C 	C 	0.9003	0.6674	0.6811	0.15
Mof_C 	C 	0.9736	0.667	0.6792	-0.398
Mof_H 	H 	0.9635	0.6159	0.6756	0.132
Mof_H 	H 	0.002	0.694	0.6362	0.105
Mof_C 	C 	0.9262	0.5238	0.5225	0.128
Mof_C 	C 	0.846	0.4852	0.549	-0.298
Mof_H 	H 	0.8454	0.4907	0.602	0.1
Mof_H 	H 	0.8206	0.5091	0.527	0.083
Mof_Cu	Cu	0.34004	0.24782	0.51506	0.784
Mof_N 	N 	0.3398	0.204	0.618	-0.228
Mof_N 	N 	0.4019	0.3642	0.5106	-0.222
Mof_C 	C 	0.3326	0.2329	0.6811	0.108
Mof_C 	C 	0.333	0.3066	0.6792	-0.23
Mof_H 	H 	0.3841	0.3476	0.6756	0.087
Mof_H 	H 	0.306	0.308	0.6362	0.04
Mof_C 	C 	0.4762	0.4024	0.5225	0.121
Mof_C 	C 	0.5148	0.3608	0.549	-0.289
Mof_H 	H 	0.5093	0.3547	0.602	0.1
Mof_H 	H 	0.4909	0.3115	0.527	0.08
Mof_Cu	Cu	0.75218	0.09222	0.51506	0.786
Mof_N 	N 	0.796	0.1358	0.618	-0.21
Mof_N 	N 	0.6358	0.0377	0.5106	-0.209
Mof_C 	C 	0.7671	0.0997	0.6811	0.027
Mof_C 	C 	0.6934	0.0264	0.6792	-0.023
Mof_H 	H 	0.6524	0.0365	0.6756	0.032
Mof_H 	H 	0.692	0.998	0.6362	-0.04
Mof_C 	C 	0.5976	0.0738	0.5225	0.113
Mof_C 	C 	0.6392	0.154	0.549	-0.28
Mof_H 	H 	0.6453	0.1546	0.602	0.1
Mof_H 	H 	0.6885	0.1794	0.527	0.078
Mof_Cu	Cu	0.09222	0.34004	0.01506	0.8
Mof_N 	N 	0.1358	0.3398	0.118	-0.212
Mof_N 	N 	0.0377	0.4019	0.0106	-0.192
Mof_C 	C 	0.0997	0.3326	0.1811	0.04
Mof_C 	C 	0.0264	0.333	0.1792	-0.042
Mof_H 	H 	0.0365	0.3841	0.1756	0.037
Mof_H 	H 	0.998	0.306	0.1362	-0.03
Mof_C 	C 	0.0738	0.4762	0.0225	0.16
Mof_C 	C 	0.154	0.5148	0.049	-0.419
Mof_H 	H 	0.1546	0.5093	0.102	0.14
Mof_H 	H 	0.1794	0.4909	0.027	0.134
Mof_Cu	Cu	0.65996	0.75218	0.01506	0.798
Mof_N 	N 	0.6602	0.796	0.118	-0.223
Mof_N 	N 	0.5981	0.6358	0.0106	-0.204
Mof_C 	C 	0.6674	0.7671	0.1811	0.085
Mof_C 	C 	0.667	0.6934	0.1792	-0.217
Mof_H 	H 	0.6159	0.6524	0.1756	0.084
Mof_H 	H 	0.694	0.692	0.1362	0.04
Mof_C 	C 	0.5238	0.5976	0.0225	0.167
Mof_C 	C 	0.4852	0.6392	0.049	-0.428
Mof_H 	H 	0.4907	0.6453	0.102	0.141
Mof_H 	H 	0.5091	0.6885	0.027	0.136
Mof_Cu	Cu	0.24782	0.90778	0.01506	0.792
Mof_N 	N 	0.204	0.8642	0.118	-0.244
Mof_N 	N 	0.3642	0.9623	0.0106	-0.218
Mof_C 	C 	0.2329	0.9003	0.1811	0.174
Mof_C 	C 	0.3066	0.9736	0.1792	-0.452
Mof_H 	H 	0.3476	0.9635	0.1756	0.147
Mof_H 	H 	0.308	0.002	0.1362	0.128
Mof_C 	C 	0.4024	0.9262	0.0225	0.173
Mof_C 	C 	0.3608	0.846	0.049	-0.433
Mof_H 	H 	0.3547	0.8454	0.102	0.139
Mof_H 	H 	0.3115	0.8206	0.027	0.137
Mof_Cu	Cu	0.65996	0.90778	0.48494	0.779
Mof_N 	N 	0.6602	0.8642	0.382	-0.241
Mof_N 	N 	0.5981	0.9623	0.4894	-0.236
Mof_C 	C 	0.6674	0.9003	0.3189	0.161
Mof_C 	C 	0.667	0.9736	0.3208	-0.433
Mof_H 	H 	0.6159	0.9635	0.3244	0.141
Mof_H 	H 	0.694	0.002	0.3638	0.118
Mof_C 	C 	0.5238	0.9262	0.4775	0.128
Mof_C 	C 	0.4852	0.846	0.451	-0.298
Mof_H 	H 	0.4907	0.8454	0.398	0.099
Mof_H 	H 	0.5091	0.8206	0.473	0.082
Mof_Cu	Cu	0.24782	0.34004	0.48494	0.784
Mof_N 	N 	0.204	0.3398	0.382	-0.228
Mof_N 	N 	0.3642	0.4019	0.4894	-0.222
Mof_C 	C 	0.2329	0.3326	0.3189	0.109
Mof_C 	C 	0.3066	0.333	0.3208	-0.235
Mof_H 	H 	0.3476	0.3841	0.3244	0.089
Mof_H 	H 	0.308	0.306	0.3638	0.042
Mof_C 	C 	0.4024	0.4762	0.4775	0.12
Mof_C 	C 	0.3608	0.5148	0.451	-0.289
Mof_H 	H 	0.3547	0.5093	0.398	0.099
Mof_H 	H 	0.3115	0.4909	0.473	0.08
Mof_Cu	Cu	0.09222	0.75218	0.48494	0.786
Mof_N 	N 	0.1358	0.796	0.382	-0.21
Mof_N 	N 	0.0377	0.6358	0.4894	-0.211
Mof_C 	C 	0.0997	0.7671	0.3189	0.029
Mof_C 	C 	0.0264	0.6934	0.3208	-0.036
Mof_H 	H 	0.0365	0.6524	0.3244	0.035
Mof_H 	H 	0.998	0.692	0.3638	-0.035
Mof_C 	C 	0.0738	0.5976	0.4775	0.113
Mof_C 	C 	0.154	0.6392	0.451	-0.28
Mof_H 	H 	0.1546	0.6453	0.398	0.099
Mof_H 	H 	0.1794	0.6885	0.473	0.078
Mof_Cu	Cu	0.34004	0.09222	0.98494	0.761
Mof_N 	N 	0.3398	0.1358	0.882	-0.217
Mof_N 	N 	0.4019	0.0377	0.9894	-0.229
Mof_C 	C 	0.3326	0.0997	0.8189	0.033
Mof_C 	C 	0.333	0.0264	0.8208	-0.027
Mof_H 	H 	0.3841	0.0365	0.8244	0.032
Mof_H 	H 	0.306	0.998	0.8638	-0.046
Mof_C 	C 	0.4762	0.0738	0.9775	0.065
Mof_C 	C 	0.5148	0.154	0.951	-0.136
Mof_H 	H 	0.5093	0.1546	0.898	0.058
Mof_H 	H 	0.4909	0.1794	0.973	0.02
Mof_Cu	Cu	0.75218	0.65996	0.98494	0.762
Mof_N 	N 	0.796	0.6602	0.882	-0.228
Mof_N 	N 	0.6358	0.5981	0.9894	-0.241
Mof_C 	C 	0.7671	0.6674	0.8189	0.082
Mof_C 	C 	0.6934	0.667	0.8208	-0.208
Mof_H 	H 	0.6524	0.6159	0.8244	0.08
Mof_H 	H 	0.692	0.694	0.8638	0.025
Mof_C 	C 	0.5976	0.5238	0.9775	0.075
Mof_C 	C 	0.6392	0.4852	0.951	-0.148
Mof_H 	H 	0.6453	0.4907	0.898	0.059
Mof_H 	H 	0.6885	0.5091	0.973	0.024
Mof_Cu	Cu	0.90778	0.24782	0.98494	0.756
Mof_N 	N 	0.8642	0.204	0.882	-0.247
Mof_N 	N 	0.9623	0.3642	0.9894	-0.254
Mof_C 	C 	0.9003	0.2329	0.8189	0.158
Mof_C 	C 	0.9736	0.3066	0.8208	-0.404
Mof_H 	H 	0.9635	0.3476	0.8244	0.133
Mof_H 	H 	0.002	0.308	0.8638	0.099
Mof_C 	C 	0.9262	0.4024	0.9775	0.081
Mof_C 	C 	0.846	0.3608	0.951	-0.157
Mof_H 	H 	0.8454	0.3547	0.898	0.059
Mof_H 	H 	0.8206	0.3115	0.973	0.026
Mof_Cu	Cu	0.87657	0.12343	0.42372	0.803
Mof_I 	I 	0.80511	0.19489	0.40782	-0.617
Mof_N 	N 	0.9024	0.0976	0.3221	-0.234
Mof_Cu	Cu	0.87657	0.75314	0.42372	0.802
Mof_I 	I 	0.80511	0.61022	0.40782	-0.619
Mof_N 	N 	0.9024	0.8048	0.3221	-0.237
Mof_Cu	Cu	0.24686	0.12343	0.42372	0.807
Mof_I 	I 	0.38978	0.19489	0.40782	-0.614
Mof_N 	N 	0.1952	0.0976	0.3221	-0.229
Mof_Cu	Cu	0.12343	0.87657	0.92372	0.779
Mof_I 	I 	0.19489	0.80511	0.90782	-0.674
Mof_N 	N 	0.0976	0.9024	0.8221	-0.243
Mof_Cu	Cu	0.12343	0.24686	0.92372	0.782
Mof_I 	I 	0.19489	0.38978	0.90782	-0.674
Mof_N 	N 	0.0976	0.1952	0.8221	-0.239
Mof_Cu	Cu	0.75314	0.87657	0.92372	0.779
Mof_I 	I 	0.61022	0.80511	0.90782	-0.676
Mof_N 	N 	0.8048	0.9024	0.8221	-0.246
Mof_Cu	Cu	0.12343	0.87657	0.57628	0.802
Mof_I 	I 	0.19489	0.80511	0.59218	-0.619
Mof_N 	N 	0.0976	0.9024	0.6779	-0.235
Mof_Cu	Cu	0.75314	0.87657	0.57628	0.802
Mof_I 	I 	0.61022	0.80511	0.59218	-0.621
Mof_N 	N 	0.8048	0.9024	0.6779	-0.238
Mof_Cu	Cu	0.12343	0.24686	0.57628	0.807
Mof_I 	I 	0.19489	0.38978	0.59218	-0.616
Mof_N 	N 	0.0976	0.1952	0.6779	-0.23
Mof_Cu	Cu	0.87657	0.12343	0.07628	0.805
Mof_I 	I 	0.80511	0.19489	0.09218	-0.565
Mof_N 	N 	0.9024	0.0976	0.1779	-0.235
Mof_Cu	Cu	0.24686	0.12343	0.07628	0.809
Mof_I 	I 	0.38978	0.19489	0.09218	-0.562
Mof_N 	N 	0.1952	0.0976	0.1779	-0.23
Mof_Cu	Cu	0.87657	0.75314	0.07628	0.805
Mof_I 	I 	0.80511	0.61022	0.09218	-0.569
Mof_N 	N 	0.9024	0.8048	0.1779	-0.238
Mof_I 	I 	-1.89744e-17	0.19454	0.5	-0.74
Mof_I 	I 	0.80546	0.80546	0.5	-0.781
Mof_I 	I 	0.19454	7.73934e-33	0.5	-0.738
Mof_I 	I 	-6.97098e-17	0.80546	-0	-0.703
Mof_I 	I 	0.19454	0.19454	-0	-0.707
Mof_I 	I 	0.80546	0	-0	-0.694
Mof_I 	I 	-5.38293e-17	0.80546	0.5	-0.752
Mof_I 	I 	0.19454	0.19454	0.5	-0.761
Mof_I 	I 	0.80546	7.73934e-33	0.5	-0.748
Mof_I 	I 	-0	0.19454	-0	-0.687
Mof_I 	I 	0.80546	0.80546	-0	-0.73
Mof_I 	I 	0.19454	0	-0	-0.684
Mof_C 	C 	0.1311	0.3292	0.25	-0
Mof_C 	C 	0.9802	0.2962	0.25	-0.191
Mof_H 	H 	0.9358	0.3009	0.25	0.092
Mof_H 	H 	0.9644	0.2435	0.25	0.076
Mof_C 	C 	0.6708	0.8019	0.25	-0.026
Mof_C 	C 	0.7038	0.684	0.25	0.006
Mof_H 	H 	0.6991	0.6349	0.25	0.033
Mof_H 	H 	0.7565	0.7209	0.25	0.02
Mof_C 	C 	0.1981	0.8689	0.25	-0.124
Mof_C 	C 	0.316	0.0198	0.25	0.262
Mof_H 	H 	0.3651	0.0642	0.25	-0.042
Mof_H 	H 	0.2791	0.0356	0.25	-0.053
Mof_C 	C 	0.8689	0.6708	0.75	-0.094
Mof_C 	C 	0.0198	0.7038	0.75	0.204
Mof_H 	H 	0.0642	0.6991	0.75	-0.027
Mof_H 	H 	0.0356	0.7565	0.75	-0.037
Mof_C 	C 	0.3292	0.1981	0.75	-0.069
Mof_C 	C 	0.2962	0.316	0.75	0.016
Mof_H 	H 	0.3009	0.3651	0.75	0.029
Mof_H 	H 	0.2435	0.2791	0.75	0.017
Mof_C 	C 	0.8019	0.1311	0.75	0.021
Mof_C 	C 	0.684	0.9802	0.75	-0.21
Mof_H 	H 	0.6349	0.9358	0.75	0.095
Mof_H 	H 	0.7209	0.9644	0.75	0.079
Mof_C 	C 	0.3292	0.1311	0.75	0.002
Mof_C 	C 	0.2962	0.9802	0.75	-0.205
Mof_H 	H 	0.3009	0.9358	0.75	0.094
Mof_H 	H 	0.2435	0.9644	0.75	0.079
Mof_C 	C 	0.8019	0.6708	0.75	-0.029
Mof_C 	C 	0.684	0.7038	0.75	-0.001
Mof_H 	H 	0.6349	0.6991	0.75	0.034
Mof_H 	H 	0.7209	0.7565	0.75	0.021
Mof_C 	C 	0.8689	0.1981	0.75	-0.115
Mof_C 	C 	0.0198	0.316	0.75	0.215
Mof_H 	H 	0.0642	0.3651	0.75	-0.03
Mof_H 	H 	0.0356	0.2791	0.75	-0.04
Mof_C 	C 	0.6708	0.8689	0.25	-0.103
Mof_C 	C 	0.7038	0.0198	0.25	0.247
Mof_H 	H 	0.6991	0.0642	0.25	-0.038
Mof_H 	H 	0.7565	0.0356	0.25	-0.049
Mof_C 	C 	0.1981	0.3292	0.25	-0.069
Mof_C 	C 	0.316	0.2962	0.25	0.024
Mof_H 	H 	0.3651	0.3009	0.25	0.028
Mof_H 	H 	0.2791	0.2435	0.25	0.016
Mof_C 	C 	0.1311	0.8019	0.25	0.021
Mof_C 	C 	0.9802	0.684	0.25	-0.194
Mof_H 	H 	0.9358	0.6349	0.25	0.092
Mof_H 	H 	0.9644	0.7209	0.25	0.076
Mof_C 	C 	0.0372	0.5186	0.488	-0.025
Mof_C 	C 	0.1957	0.59785	0.4707	0.091
Mof_H 	H 	0.2435	0.62175	0.4456	-0.008
Mof_H 	H 	0.2055	0.60275	0.5232	0.01
Mof_C 	C 	0.4814	0.5186	0.488	-0.057
Mof_C 	C 	0.40215	0.59785	0.4707	0.099
Mof_H 	H 	0.37825	0.62175	0.4456	-0.011
Mof_H 	H 	0.39725	0.60275	0.5232	0.007
Mof_C 	C 	0.4814	0.9628	0.488	-0.094
Mof_C 	C 	0.40215	0.8043	0.4707	0.108
Mof_H 	H 	0.37825	0.7565	0.4456	-0.014
Mof_H 	H 	0.39725	0.7945	0.5232	0.004
Mof_C 	C 	0.9628	0.4814	0.988	-0.115
Mof_C 	C 	0.8043	0.40215	0.9707	-0.141
Mof_H 	H 	0.7565	0.37825	0.9456	0.053
Mof_H 	H 	0.7945	0.39725	0.0232	0.122
Mof_C 	C 	0.5186	0.4814	0.988	-0.084
Mof_C 	C 	0.59785	0.40215	0.9707	-0.15
Mof_H 	H 	0.62175	0.37825	0.9456	0.056
Mof_H 	H 	0.60275	0.39725	0.0232	0.126
Mof_C 	C 	0.5186	0.0372	0.988	-0.047
Mof_C 	C 	0.59785	0.1957	0.9707	-0.164
Mof_H 	H 	0.62175	0.2435	0.9456	0.06
Mof_H 	H 	0.60275	0.2055	0.0232	0.131
Mof_C 	C 	0.5186	0.0372	0.512	-0.021
Mof_C 	C 	0.59785	0.1957	0.5293	0.09
Mof_H 	H 	0.62175	0.2435	0.5544	-0.008
Mof_H 	H 	0.60275	0.2055	0.4768	0.011
Mof_C 	C 	0.5186	0.4814	0.512	-0.057
Mof_C 	C 	0.59785	0.40215	0.5293	0.1
Mof_H 	H 	0.62175	0.37825	0.5544	-0.011
Mof_H 	H 	0.60275	0.39725	0.4768	0.008
Mof_C 	C 	0.9628	0.4814	0.512	-0.09
Mof_C 	C 	0.8043	0.40215	0.5293	0.108
Mof_H 	H 	0.7565	0.37825	0.5544	-0.013
Mof_H 	H 	0.7945	0.39725	0.4768	0.005
Mof_C 	C 	0.4814	0.9628	0.012	-0.067
Mof_C 	C 	0.40215	0.8043	0.0293	0.348
Mof_H 	H 	0.37825	0.7565	0.0544	-0.077
Mof_H 	H 	0.39725	0.7945	0.9768	-0.108
Mof_C 	C 	0.4814	0.5186	0.012	-0.03
Mof_C 	C 	0.40215	0.59785	0.0293	0.346
Mof_H 	H 	0.37825	0.62175	0.0544	-0.077
Mof_H 	H 	0.39725	0.60275	0.9768	-0.109
Mof_C 	C 	0.0372	0.5186	0.012	0
Mof_C 	C 	0.1957	0.59785	0.0293	0.337
Mof_H 	H 	0.2435	0.62175	0.0544	-0.074
Mof_H 	H 	0.2055	0.60275	0.9768	-0.105
Mof_C 	C 	0.9096	0.0904	0.25	0.122
Mof_C 	C 	0.9096	0.8192	0.25	0.109
Mof_C 	C 	0.1808	0.0904	0.25	0.134
Mof_C 	C 	0.0904	0.9096	0.75	0.116
Mof_C 	C 	0.0904	0.1808	0.75	0.128
Mof_C 	C 	0.8192	0.9096	0.75	0.105
_end
