data_functionalizedCrystal
_audit_creation_method	'EQeq! by Chris Wilmer'
_symmetry_space_group_name_H-M	'P1'
_symmetry_Int_Tables_number	1
_symmetry_cell_setting	triclinic
loop_
_symmetry_equiv_pos_as_xyz
  x,y,z
_cell_length_a	8.6514
_cell_length_b	10.1531
_cell_length_c	11.1703
_cell_angle_alpha	65.437
_cell_angle_beta	71.666
_cell_angle_gamma	78.421
loop_
_atom_site_label
_atom_site_type_symbol
_atom_site_fract_x
_atom_site_fract_y
_atom_site_fract_z
_atom_site_charge
Mof_Tm	Tm	0.13211	0.44027	0.65278	1.459
Mof_Tm	Tm	0.86789	0.55973	0.34722	1.459
Mof_H 	H 	0.6336	0.1118	0.7731	0.045
Mof_H 	H 	0.2303	0.0702	0.0811	0.058
Mof_H 	H 	0.5439	0.3545	0.8769	0.049
Mof_H 	H 	0.7132	0.6183	0.9847	0.057
Mof_H 	H 	0.9259	0.7821	0.6801	0.04
Mof_H 	H 	0.0207	0.0271	0.2795	0.05
Mof_H 	H 	0.3664	0.8882	0.2269	0.045
Mof_H 	H 	0.7697	0.9298	0.9189	0.058
Mof_H 	H 	0.4561	0.6455	0.1231	0.049
Mof_H 	H 	0.2868	0.3817	0.0153	0.057
Mof_H 	H 	0.0741	0.2179	0.3199	0.04
Mof_H 	H 	0.9793	0.9729	0.7205	0.05
Mof_C 	C 	0.3258	0.2314	0.8209	0.305
Mof_C 	C 	0.4181	0.1118	0.911	-0.06
Mof_C 	C 	0.5793	0.0674	0.8644	-0.017
Mof_C 	C 	0.3393	0.0422	0.0481	-0.026
Mof_C 	C 	0.8202	0.4615	0.8309	0.307
Mof_C 	C 	0.6542	0.4829	0.9174	-0.061
Mof_C 	C 	0.5261	0.4129	0.9266	-0.029
Mof_C 	C 	0.6279	0.5708	0.9909	-0.031
Mof_C 	C 	0.9299	0.7661	0.4476	0.353
Mof_C 	C 	0.9661	0.886	0.4764	-0.094
Mof_C 	C 	0.9551	0.8692	0.608	-0.026
Mof_C 	C 	0.012	0.0165	0.3681	-0.02
Mof_C 	C 	0.6742	0.7686	0.1791	0.305
Mof_C 	C 	0.5819	0.8882	0.089	-0.06
Mof_C 	C 	0.4207	0.9326	0.1356	-0.017
Mof_C 	C 	0.6607	0.9578	0.9519	-0.026
Mof_C 	C 	0.1798	0.5385	0.1691	0.307
Mof_C 	C 	0.3458	0.5171	0.0826	-0.061
Mof_C 	C 	0.4739	0.5871	0.0734	-0.029
Mof_C 	C 	0.3721	0.4292	0.0091	-0.031
Mof_C 	C 	0.0701	0.2339	0.5524	0.353
Mof_C 	C 	0.0339	0.114	0.5236	-0.094
Mof_C 	C 	0.0449	0.1308	0.392	-0.026
Mof_C 	C 	0.988	0.9835	0.6319	-0.02
Mof_O 	O 	0.3978	0.2989	0.6961	-0.39
Mof_O 	O 	0.1787	0.2656	0.8685	-0.367
Mof_O 	O 	0.8433	0.3813	0.7637	-0.364
Mof_O 	O 	0.9355	0.5236	0.8251	-0.374
Mof_O 	O 	0.9623	0.6343	0.5189	-0.485
Mof_O 	O 	0.868	0.7994	0.35	-0.379
Mof_O 	O 	0.6022	0.7011	0.3039	-0.39
Mof_O 	O 	0.8213	0.7344	0.1315	-0.367
Mof_O 	O 	0.1567	0.6187	0.2363	-0.364
Mof_O 	O 	0.0645	0.4764	0.1749	-0.374
Mof_O 	O 	0.0377	0.3657	0.4811	-0.485
Mof_O 	O 	0.132	0.2006	0.65	-0.379
_end
