data_functionalizedCrystal
_audit_creation_method	'EQeq! by Chris Wilmer'
_symmetry_space_group_name_H-M	'P1'
_symmetry_Int_Tables_number	1
_symmetry_cell_setting	triclinic
loop_
_symmetry_equiv_pos_as_xyz
  x,y,z
_cell_length_a	12.3989
_cell_length_b	33.418
_cell_length_c	12.9445
_cell_angle_alpha	90
_cell_angle_beta	98.312
_cell_angle_gamma	90
loop_
_atom_site_label
_atom_site_type_symbol
_atom_site_fract_x
_atom_site_fract_y
_atom_site_fract_z
_atom_site_charge
Mof_Mn	Mn	0.29943	0.43072	0.89393	0.898
Mof_N 	N 	0.1133	0.3679	0.8045	-0.134
Mof_O 	O 	0.3051	0.42384	0.0556	-0.436
Mof_O 	O 	0.4451	0.37835	0.913	-0.324
Mof_O 	O 	0.4732	0.44327	0.9071	-0.433
Mof_O 	O 	0.2299	0.48671	0.851	-0.407
Mof_O 	O 	0.3695	0.52716	0.9031	-0.395
Mof_N 	N 	0.2997	0.41176	0.7245	-0.183
Mof_O 	O 	0.397	0.47876	0.1083	-0.41
Mof_N 	N 	0.2392	0.37956	0.6848	-0.135
Mof_N 	N 	0.1376	0.40029	0.8692	-0.174
Mof_N 	N 	0.9307	0.71468	0.6811	-0.139
Mof_C 	C 	0.3006	0.42115	0.4416	0.178
Mof_N 	N 	0.8687	0.70622	0.7585	-0.262
Mof_C 	C 	0.0435	0.4121	0.8981	0.206
Mof_C 	C 	0.8421	0.39061	0.8642	0.152
Mof_C 	C 	0.3284	0.43085	0.6423	0.272
Mof_C 	C 	0.346	0.4478	0.1234	0.42
Mof_C 	C 	0.9582	0.38658	0.8517	-0.203
Mof_C 	C 	0.3311	0.43887	0.235	-0.191
Mof_C 	C 	0.273	0.52066	0.8647	0.404
Mof_C 	C 	0.6254	0.40069	0.8941	-0.149
Mof_C 	C 	0.6848	0.43276	0.8655	0.084
Mof_H 	H 	0.6516	0.4584	0.8558	0.017
Mof_C 	C 	0.5088	0.40727	0.9071	0.353
Mof_C 	C 	0.2008	0.35151	0.7568	0.023
Mof_H 	H 	0.1757	0.3267	0.7188	0.007
Mof_H 	H 	0.2619	0.3444	0.8117	0.021
Mof_C 	C 	0.0144	0.68759	0.6809	0.236
Mof_C 	C 	0.091	0.55224	0.7978	0.091
Mof_H 	H 	0.0596	0.5263	0.7911	-0.003
Mof_C 	C 	0.7915	0.42787	0.851	-0.178
Mof_H 	H 	0.8315	0.4502	0.8316	0.087
Mof_C 	C 	0.2018	0.55669	0.8323	-0.172
Mof_C 	C 	0.2853	0.41089	0.5495	-0.252
Mof_C 	C 	0.0062	0.35888	0.7936	0.218
Mof_C 	C 	0.0025	0.66044	0.7572	-0.24
Mof_C 	C 	0.0265	0.58579	0.7733	-0.207
Mof_H 	H 	0.9506	0.5826	0.7504	0.094
Mof_C 	C 	0.0712	0.62405	0.7816	0.169
Mof_C 	C 	0.0403	0.4469	0.9714	-0.434
Mof_H 	H 	0.0265	0.4716	0.931	0.151
Mof_H 	H 	0.1104	0.449	0.0171	0.131
Mof_H 	H 	0.9819	0.4427	0.0139	0.136
Mof_C 	C 	0.9131	0.67214	0.8056	0.234
Mof_C 	C 	0.6726	0.36292	0.9076	0.079
Mof_H 	H 	0.6312	0.3407	0.925	0.004
Mof_C 	C 	0.7823	0.35824	0.895	-0.176
Mof_H 	H 	0.8164	0.3329	0.9073	0.079
Mof_C 	C 	0.2282	0.37856	0.5797	0.255
Mof_C 	C 	0.3306	0.39924	0.2689	0.105
Mof_H 	H 	0.3392	0.3782	0.2215	-0.028
Mof_C 	C 	0.3157	0.46918	0.3045	0.106
Mof_H 	H 	0.3161	0.4963	0.2823	-0.008
Mof_C 	C 	0.2479	0.59433	0.8404	0.095
Mof_H 	H 	0.3239	0.5973	0.8626	0.01
Mof_C 	C 	0.3179	0.39032	0.3702	-0.209
Mof_H 	H 	0.3208	0.3632	0.3926	0.073
Mof_C 	C 	0.8744	0.65439	0.8987	-0.611
Mof_H 	H 	0.8098	0.6689	0.9138	0.15
Mof_H 	H 	0.9321	0.6563	0.9588	0.2
Mof_H 	H 	0.8558	0.6262	0.8851	0.207
Mof_C 	C 	0.2998	0.46043	0.4064	-0.21
Mof_H 	H 	0.2881	0.4816	0.4525	0.091
Mof_C 	C 	0.1823	0.62824	0.8159	-0.192
Mof_H 	H 	0.214	0.6542	0.8227	0.087
Mof_C 	C 	0.397	0.46797	0.6557	-0.634
Mof_H 	H 	0.4326	0.4699	0.7282	0.215
Mof_H 	H 	0.3506	0.4915	0.6386	0.206
Mof_H 	H 	0.4525	0.4668	0.6091	0.206
Mof_C 	C 	0.0942	0.69115	0.6061	-0.578
Mof_H 	H 	0.1454	0.7129	0.6283	0.172
Mof_H 	H 	0.0555	0.6969	0.5363	0.169
Mof_H 	H 	0.1344	0.666	0.6046	0.181
Mof_C 	C 	0.9568	0.32536	0.7266	-0.546
Mof_H 	H 	0.9859	0.2998	0.7557	0.162
Mof_H 	H 	0.9745	0.3285	0.6557	0.164
Mof_H 	H 	0.8775	0.3257	0.7246	0.171
Mof_C 	C 	0.1595	0.348	0.5168	-0.6
Mof_H 	H 	0.086	0.3482	0.5363	0.185
Mof_H 	H 	0.192	0.3215	0.5305	0.181
Mof_H 	H 	0.1554	0.3543	0.4424	0.196
Mof_Mn	Mn	0.70057	0.93072	0.10607	0.865
Mof_N 	N 	0.8867	0.8679	0.1955	-0.14
Mof_O 	O 	0.6949	0.92384	0.9444	-0.409
Mof_O 	O 	0.5549	0.87835	0.087	-0.334
Mof_O 	O 	0.5268	0.94327	0.0929	-0.438
Mof_O 	O 	0.7701	0.98671	0.149	-0.402
Mof_O 	O 	0.6305	0.02716	0.0969	-0.409
Mof_N 	N 	0.7003	0.91176	0.2755	-0.18
Mof_O 	O 	0.603	0.97876	0.8917	-0.388
Mof_N 	N 	0.7608	0.87956	0.3152	-0.135
Mof_N 	N 	0.8624	0.90029	0.1308	-0.197
Mof_N 	N 	0.0693	0.21468	0.3189	-0.141
Mof_C 	C 	0.6994	0.92115	0.5584	0.177
Mof_N 	N 	0.1313	0.20622	0.2415	-0.261
Mof_C 	C 	0.9565	0.9121	0.1019	0.302
Mof_C 	C 	0.1579	0.89061	0.1358	0.175
Mof_C 	C 	0.6716	0.93085	0.3577	0.275
Mof_C 	C 	0.654	0.9478	0.8766	0.412
Mof_C 	C 	0.0418	0.88658	0.1483	-0.268
Mof_C 	C 	0.6689	0.93887	0.765	-0.184
Mof_C 	C 	0.727	0.02066	0.1353	0.388
Mof_C 	C 	0.3746	0.90069	0.1059	-0.166
Mof_C 	C 	0.3152	0.93276	0.1345	0.093
Mof_H 	H 	0.3484	0.9584	0.1442	0.013
Mof_C 	C 	0.4912	0.90727	0.0929	0.352
Mof_C 	C 	0.7992	0.85151	0.2432	0.028
Mof_H 	H 	0.8243	0.8267	0.2812	0.004
Mof_H 	H 	0.7381	0.8444	0.1883	0.015
Mof_C 	C 	0.9856	0.18759	0.3191	0.235
Mof_C 	C 	0.909	0.05224	0.2022	0.084
Mof_H 	H 	0.9404	0.0263	0.2089	-0.005
Mof_C 	C 	0.2085	0.92787	0.149	-0.203
Mof_H 	H 	0.1685	0.9502	0.1684	0.093
Mof_C 	C 	0.7982	0.05669	0.1677	-0.17
Mof_C 	C 	0.7147	0.91089	0.4505	-0.252
Mof_C 	C 	0.9938	0.85888	0.2064	0.245
Mof_C 	C 	0.9975	0.16044	0.2428	-0.228
Mof_C 	C 	0.9735	0.08579	0.2267	-0.19
Mof_H 	H 	0.0494	0.0826	0.2496	0.086
Mof_C 	C 	0.9288	0.12405	0.2184	0.157
Mof_C 	C 	0.9597	0.9469	0.0286	-0.802
Mof_H 	H 	0.9735	0.9716	0.069	0.253
Mof_H 	H 	0.8896	0.949	0.9829	0.268
Mof_H 	H 	0.0181	0.9427	0.9861	0.272
Mof_C 	C 	0.0869	0.17214	0.1944	0.212
Mof_C 	C 	0.3274	0.86292	0.0924	0.087
Mof_H 	H 	0.3688	0.8407	0.075	-0.008
Mof_C 	C 	0.2177	0.85824	0.105	-0.2
Mof_H 	H 	0.1836	0.8329	0.0927	0.077
Mof_C 	C 	0.7718	0.87856	0.4203	0.256
Mof_C 	C 	0.6694	0.89924	0.7311	0.101
Mof_H 	H 	0.6608	0.8782	0.7785	-0.023
Mof_C 	C 	0.6843	0.96918	0.6955	0.103
Mof_H 	H 	0.6839	0.9963	0.7177	-0.004
Mof_C 	C 	0.7521	0.09433	0.1596	0.086
Mof_H 	H 	0.6761	0.0973	0.1374	0.003
Mof_C 	C 	0.6821	0.89032	0.6298	-0.205
Mof_H 	H 	0.6792	0.8632	0.6074	0.073
Mof_C 	C 	0.1256	0.15439	0.1013	-0.572
Mof_H 	H 	0.1902	0.1689	0.0862	0.129
Mof_H 	H 	0.0679	0.1563	0.0412	0.172
Mof_H 	H 	0.1442	0.1262	0.1149	0.192
Mof_C 	C 	0.7002	0.96043	0.5936	-0.207
Mof_H 	H 	0.7119	0.9816	0.5475	0.093
Mof_C 	C 	0.8177	0.12824	0.1841	-0.189
Mof_H 	H 	0.786	0.1542	0.1773	0.078
Mof_C 	C 	0.603	0.96797	0.3443	-0.642
Mof_H 	H 	0.5674	0.9699	0.2718	0.221
Mof_H 	H 	0.6494	0.9915	0.3614	0.211
Mof_H 	H 	0.5475	0.9668	0.3909	0.211
Mof_C 	C 	0.9058	0.19115	0.3939	-0.575
Mof_H 	H 	0.8546	0.2129	0.3717	0.17
Mof_H 	H 	0.9445	0.1969	0.4637	0.17
Mof_H 	H 	0.8656	0.166	0.3954	0.18
Mof_C 	C 	0.0432	0.82536	0.2734	-0.573
Mof_H 	H 	0.0141	0.7998	0.2443	0.163
Mof_H 	H 	0.0255	0.8285	0.3443	0.169
Mof_H 	H 	0.1225	0.8257	0.2754	0.178
Mof_C 	C 	0.8405	0.848	0.4832	-0.602
Mof_H 	H 	0.914	0.8482	0.4637	0.187
Mof_H 	H 	0.808	0.8215	0.4695	0.182
Mof_H 	H 	0.8446	0.8543	0.5576	0.197
Mof_Mn	Mn	0.70057	0.56928	0.10607	0.864
Mof_N 	N 	0.8867	0.6321	0.1955	-0.14
Mof_O 	O 	0.6949	0.57616	0.9444	-0.41
Mof_O 	O 	0.5549	0.62165	0.087	-0.335
Mof_O 	O 	0.5268	0.55673	0.0929	-0.442
Mof_O 	O 	0.7701	0.51329	0.149	-0.412
Mof_O 	O 	0.6305	0.47284	0.0969	-0.411
Mof_N 	N 	0.7003	0.58824	0.2755	-0.18
Mof_O 	O 	0.603	0.52124	0.8917	-0.395
Mof_N 	N 	0.7608	0.62044	0.3152	-0.135
Mof_N 	N 	0.8624	0.59971	0.1308	-0.197
Mof_N 	N 	0.0693	0.28532	0.3189	-0.141
Mof_C 	C 	0.6994	0.57885	0.5584	0.176
Mof_N 	N 	0.1313	0.29378	0.2415	-0.261
Mof_C 	C 	0.9565	0.5879	0.1019	0.302
Mof_C 	C 	0.1579	0.60939	0.1358	0.175
Mof_C 	C 	0.6716	0.56915	0.3577	0.272
Mof_C 	C 	0.654	0.5522	0.8766	0.413
Mof_C 	C 	0.0418	0.61342	0.1483	-0.268
Mof_C 	C 	0.6689	0.56113	0.765	-0.186
Mof_C 	C 	0.727	0.47934	0.1353	0.401
Mof_C 	C 	0.3746	0.59931	0.1059	-0.167
Mof_C 	C 	0.3152	0.56724	0.1345	0.094
Mof_H 	H 	0.3484	0.5416	0.1442	0.009
Mof_C 	C 	0.4912	0.59273	0.0929	0.353
Mof_C 	C 	0.7992	0.64849	0.2432	0.027
Mof_H 	H 	0.8243	0.6733	0.2812	0.004
Mof_H 	H 	0.7381	0.6556	0.1883	0.015
Mof_C 	C 	0.9856	0.31241	0.3191	0.235
Mof_C 	C 	0.909	0.44776	0.2022	0.087
Mof_H 	H 	0.9404	0.4737	0.2089	-0.003
Mof_C 	C 	0.2085	0.57213	0.149	-0.204
Mof_H 	H 	0.1685	0.5498	0.1684	0.091
Mof_C 	C 	0.7982	0.44331	0.1677	-0.173
Mof_C 	C 	0.7147	0.58911	0.4505	-0.251
Mof_C 	C 	0.9938	0.64112	0.2064	0.245
Mof_C 	C 	0.9975	0.33956	0.2428	-0.228
Mof_C 	C 	0.9735	0.41421	0.2267	-0.192
Mof_H 	H 	0.0494	0.4174	0.2496	0.087
Mof_C 	C 	0.9288	0.37595	0.2184	0.159
Mof_C 	C 	0.9597	0.5531	0.0286	-0.801
Mof_H 	H 	0.9735	0.5284	0.069	0.25
Mof_H 	H 	0.8896	0.551	0.9829	0.268
Mof_H 	H 	0.0181	0.5573	0.9861	0.271
Mof_C 	C 	0.0869	0.32786	0.1944	0.212
Mof_C 	C 	0.3274	0.63708	0.0924	0.088
Mof_H 	H 	0.3688	0.6593	0.075	-0.009
Mof_C 	C 	0.2177	0.64176	0.105	-0.2
Mof_H 	H 	0.1836	0.6671	0.0927	0.077
Mof_C 	C 	0.7718	0.62144	0.4203	0.256
Mof_C 	C 	0.6694	0.60076	0.7311	0.102
Mof_H 	H 	0.6608	0.6218	0.7785	-0.023
Mof_C 	C 	0.6843	0.53082	0.6955	0.103
Mof_H 	H 	0.6839	0.5037	0.7177	-0.007
Mof_C 	C 	0.7521	0.40567	0.1596	0.088
Mof_H 	H 	0.6761	0.4027	0.1374	0.003
Mof_C 	C 	0.6821	0.60968	0.6298	-0.206
Mof_H 	H 	0.6792	0.6368	0.6074	0.073
Mof_C 	C 	0.1256	0.34561	0.1013	-0.572
Mof_H 	H 	0.1902	0.3311	0.0862	0.13
Mof_H 	H 	0.0679	0.3437	0.0412	0.173
Mof_H 	H 	0.1442	0.3738	0.1149	0.192
Mof_C 	C 	0.7002	0.53957	0.5936	-0.208
Mof_H 	H 	0.7119	0.5184	0.5475	0.091
Mof_C 	C 	0.8177	0.37176	0.1841	-0.191
Mof_H 	H 	0.786	0.3458	0.1773	0.078
Mof_C 	C 	0.603	0.53203	0.3443	-0.635
Mof_H 	H 	0.5674	0.5301	0.2718	0.216
Mof_H 	H 	0.6494	0.5085	0.3614	0.206
Mof_H 	H 	0.5475	0.5332	0.3909	0.206
Mof_C 	C 	0.9058	0.30885	0.3939	-0.576
Mof_H 	H 	0.8546	0.2871	0.3717	0.17
Mof_H 	H 	0.9445	0.3031	0.4637	0.17
Mof_H 	H 	0.8656	0.334	0.3954	0.18
Mof_C 	C 	0.0432	0.67464	0.2734	-0.572
Mof_H 	H 	0.0141	0.7002	0.2443	0.163
Mof_H 	H 	0.0255	0.6715	0.3443	0.169
Mof_H 	H 	0.1225	0.6743	0.2754	0.178
Mof_C 	C 	0.8405	0.652	0.4832	-0.601
Mof_H 	H 	0.914	0.6518	0.4637	0.186
Mof_H 	H 	0.808	0.6785	0.4695	0.182
Mof_H 	H 	0.8446	0.6457	0.5576	0.197
Mof_Mn	Mn	0.29943	0.06928	0.89393	0.899
Mof_N 	N 	0.1133	0.1321	0.8045	-0.133
Mof_O 	O 	0.3051	0.07616	0.0556	-0.435
Mof_O 	O 	0.4451	0.12165	0.913	-0.322
Mof_O 	O 	0.4732	0.05673	0.9071	-0.432
Mof_O 	O 	0.2299	0.01329	0.851	-0.416
Mof_O 	O 	0.3695	0.97284	0.9031	-0.393
Mof_N 	N 	0.2997	0.08824	0.7245	-0.182
Mof_O 	O 	0.397	0.02124	0.1083	-0.413
Mof_N 	N 	0.2392	0.12044	0.6848	-0.135
Mof_N 	N 	0.1376	0.09971	0.8692	-0.174
Mof_N 	N 	0.9307	0.78532	0.6811	-0.139
Mof_C 	C 	0.3006	0.07885	0.4416	0.177
Mof_N 	N 	0.8687	0.79378	0.7585	-0.262
Mof_C 	C 	0.0435	0.0879	0.8981	0.204
Mof_C 	C 	0.8421	0.10939	0.8642	0.152
Mof_C 	C 	0.3284	0.06915	0.6423	0.269
Mof_C 	C 	0.346	0.0522	0.1234	0.42
Mof_C 	C 	0.9582	0.11342	0.8517	-0.202
Mof_C 	C 	0.3311	0.06113	0.235	-0.192
Mof_C 	C 	0.273	0.97934	0.8647	0.415
Mof_C 	C 	0.6254	0.09931	0.8941	-0.149
Mof_C 	C 	0.6848	0.06724	0.8655	0.084
Mof_H 	H 	0.6516	0.0416	0.8558	0.015
Mof_C 	C 	0.5088	0.09273	0.9071	0.353
Mof_C 	C 	0.2008	0.14849	0.7568	0.023
Mof_H 	H 	0.1757	0.1733	0.7188	0.007
Mof_H 	H 	0.2619	0.1556	0.8117	0.022
Mof_C 	C 	0.0144	0.81241	0.6809	0.237
Mof_C 	C 	0.091	0.94776	0.7978	0.093
Mof_H 	H 	0.0596	0.9737	0.7911	-0
Mof_C 	C 	0.7915	0.07213	0.851	-0.178
Mof_H 	H 	0.8315	0.0498	0.8316	0.085
Mof_C 	C 	0.2018	0.94331	0.8323	-0.174
Mof_C 	C 	0.2853	0.08911	0.5495	-0.251
Mof_C 	C 	0.0062	0.14112	0.7936	0.218
Mof_C 	C 	0.0025	0.83956	0.7572	-0.24
Mof_C 	C 	0.0265	0.91421	0.7733	-0.208
Mof_H 	H 	0.9506	0.9174	0.7504	0.095
Mof_C 	C 	0.0712	0.87595	0.7816	0.17
Mof_C 	C 	0.0403	0.0531	0.9714	-0.426
Mof_H 	H 	0.0265	0.0284	0.931	0.147
Mof_H 	H 	0.1104	0.051	0.0171	0.127
Mof_H 	H 	0.9819	0.0573	0.0139	0.132
Mof_C 	C 	0.9131	0.82786	0.8056	0.234
Mof_C 	C 	0.6726	0.13708	0.9076	0.079
Mof_H 	H 	0.6312	0.1593	0.925	0.004
Mof_C 	C 	0.7823	0.14176	0.895	-0.175
Mof_H 	H 	0.8164	0.1671	0.9073	0.079
Mof_C 	C 	0.2282	0.12144	0.5797	0.255
Mof_C 	C 	0.3306	0.10076	0.2689	0.106
Mof_H 	H 	0.3392	0.1218	0.2215	-0.028
Mof_C 	C 	0.3157	0.03082	0.3045	0.106
Mof_H 	H 	0.3161	0.0037	0.2823	-0.011
Mof_C 	C 	0.2479	0.90567	0.8404	0.097
Mof_H 	H 	0.3239	0.9027	0.8626	0.01
Mof_C 	C 	0.3179	0.10968	0.3702	-0.209
Mof_H 	H 	0.3208	0.1368	0.3926	0.073
Mof_C 	C 	0.8744	0.84561	0.8987	-0.611
Mof_H 	H 	0.8098	0.8311	0.9138	0.15
Mof_H 	H 	0.9321	0.8437	0.9588	0.199
Mof_H 	H 	0.8558	0.8738	0.8851	0.207
Mof_C 	C 	0.2998	0.03957	0.4064	-0.211
Mof_H 	H 	0.2881	0.0184	0.4525	0.09
Mof_C 	C 	0.1823	0.87176	0.8159	-0.193
Mof_H 	H 	0.214	0.8458	0.8227	0.087
Mof_C 	C 	0.397	0.03203	0.6557	-0.627
Mof_H 	H 	0.4326	0.0301	0.7282	0.211
Mof_H 	H 	0.3506	0.0085	0.6386	0.201
Mof_H 	H 	0.4525	0.0332	0.6091	0.202
Mof_C 	C 	0.0942	0.80885	0.6061	-0.579
Mof_H 	H 	0.1454	0.7871	0.6283	0.172
Mof_H 	H 	0.0555	0.8031	0.5363	0.169
Mof_H 	H 	0.1344	0.834	0.6046	0.181
Mof_C 	C 	0.9568	0.17464	0.7266	-0.545
Mof_H 	H 	0.9859	0.2002	0.7557	0.162
Mof_H 	H 	0.9745	0.1715	0.6557	0.163
Mof_H 	H 	0.8775	0.1743	0.7246	0.171
Mof_C 	C 	0.1595	0.152	0.5168	-0.599
Mof_H 	H 	0.086	0.1518	0.5363	0.185
Mof_H 	H 	0.192	0.1785	0.5305	0.181
Mof_H 	H 	0.1554	0.1457	0.4424	0.196
Mof_Mn	Mn	0.5	0.5	-0	0.977
Mof_Mn	Mn	0.5	0	-0	0.963
Mof_Co	Co	0.75474	0.75	0.80074	0.997
Mof_C 	C 	0.907	0.75	0.6202	0.002
Mof_H 	H 	0.829	0.75	0.5899	-0.022
Mof_H 	H 	0.9506	0.75	0.5619	0.01
Mof_Co	Co	0.24526	0.25	0.19926	0.991
Mof_C 	C 	0.093	0.25	0.3798	0.001
Mof_H 	H 	0.171	0.25	0.4101	-0.022
Mof_H 	H 	0.0494	0.25	0.4381	0.009
_end
