data_functionalizedCrystal
_audit_creation_method	'EQeq! by Chris Wilmer'
_symmetry_space_group_name_H-M	'P1'
_symmetry_Int_Tables_number	1
_symmetry_cell_setting	triclinic
loop_
_symmetry_equiv_pos_as_xyz
  x,y,z
_cell_length_a	11.1066
_cell_length_b	12.9842
_cell_length_c	13.4294
_cell_angle_alpha	117.345
_cell_angle_beta	93.688
_cell_angle_gamma	93.879
loop_
_atom_site_label
_atom_site_type_symbol
_atom_site_fract_x
_atom_site_fract_y
_atom_site_fract_z
_atom_site_charge
Mof_As	As	0.9917	0.5869	0.8838	0.472
Mof_As	As	0.228	0.8244	0.7672	0.383
Mof_As	As	0.0699	0.9195	0.1053	0.478
Mof_As	As	0.2489	0.3335	0.7514	0.39
Mof_As	As	0.5523	0.943	0.6229	0.488
Mof_As	As	0.5718	0.451	0.6307	0.503
Mof_Fe	Fe	0.9456	0.798	0.8229	0.978
Mof_Fe	Fe	0.4966	0.2058	0.6567	0.992
Mof_Fe	Fe	0.9749	0.3082	0.8341	0.986
Mof_Fe	Fe	0.4703	0.6999	0.6465	0.985
Mof_O 	O 	0.982	0.4422	0.8068	-0.343
Mof_O 	O 	0.9498	0.6274	0.0132	-0.347
Mof_O 	O 	0.9075	0.6349	0.8081	-0.3
Mof_O 	O 	0.089	0.7517	0.7427	-0.316
Mof_O 	O 	0.325	0.7215	0.7237	-0.313
Mof_O 	O 	0.9939	0.8472	0.9791	-0.373
Mof_O 	O 	0.0303	0.0525	0.1802	-0.338
Mof_O 	O 	0.0538	0.853	0.1859	-0.322
Mof_O 	O 	0.1191	0.2621	0.7554	-0.298
Mof_O 	O 	0.3538	0.2406	0.7385	-0.299
Mof_O 	O 	0.5829	0.9029	0.4913	-0.341
Mof_O 	O 	0.5034	0.0732	0.6947	-0.315
Mof_O 	O 	0.4533	0.8437	0.6297	-0.331
Mof_O 	O 	0.4818	0.3481	0.6376	-0.343
Mof_O 	O 	0.5141	0.5778	0.6928	-0.315
Mof_O 	O 	0.6047	0.4145	0.5004	-0.343
Mof_O 	O 	0.7716	0.8344	0.8679	-0.305
Mof_O 	O 	0.8408	0.7259	0.6627	-0.268
Mof_O 	O 	0.6047	0.3081	0.8081	-0.298
Mof_O 	O 	0.6693	0.1859	0.6017	-0.3
Mof_O 	O 	0.8003	0.3423	0.8811	-0.32
Mof_O 	O 	0.8661	0.2278	0.6717	-0.261
Mof_O 	O 	0.5788	0.8084	0.7953	-0.301
Mof_O 	O 	0.6457	0.6891	0.5867	-0.287
Mof_C 	C 	0.7186	0.3013	0.801	0.24
Mof_C 	C 	0.7553	0.2329	0.6806	0.226
Mof_C 	C 	0.691	0.7975	0.787	0.239
Mof_C 	C 	0.7286	0.7329	0.6683	0.218
Mof_As	As	0.0083	0.4131	0.1162	0.471
Mof_As	As	0.772	0.1756	0.2328	0.382
Mof_As	As	0.9301	0.0805	0.8947	0.478
Mof_As	As	0.7511	0.6665	0.2486	0.39
Mof_As	As	0.4477	0.057	0.3771	0.488
Mof_As	As	0.4282	0.549	0.3693	0.503
Mof_Fe	Fe	0.0544	0.202	0.1771	0.978
Mof_Fe	Fe	0.5034	0.7942	0.3433	0.992
Mof_Fe	Fe	0.0251	0.6918	0.1659	0.986
Mof_Fe	Fe	0.5297	0.3001	0.3535	0.985
Mof_O 	O 	0.018	0.5578	0.1932	-0.343
Mof_O 	O 	0.0502	0.3726	0.9868	-0.347
Mof_O 	O 	0.0925	0.3651	0.1919	-0.3
Mof_O 	O 	0.911	0.2483	0.2573	-0.316
Mof_O 	O 	0.675	0.2785	0.2763	-0.313
Mof_O 	O 	0.0061	0.1528	0.0209	-0.373
Mof_O 	O 	0.9697	0.9475	0.8198	-0.338
Mof_O 	O 	0.9462	0.147	0.8141	-0.322
Mof_O 	O 	0.8809	0.7379	0.2446	-0.298
Mof_O 	O 	0.6462	0.7594	0.2615	-0.299
Mof_O 	O 	0.4171	0.0971	0.5087	-0.341
Mof_O 	O 	0.4966	0.9268	0.3053	-0.315
Mof_O 	O 	0.5467	0.1563	0.3703	-0.331
Mof_O 	O 	0.5182	0.6519	0.3624	-0.343
Mof_O 	O 	0.4859	0.4222	0.3072	-0.315
Mof_O 	O 	0.3953	0.5855	0.4996	-0.343
Mof_O 	O 	0.2284	0.1656	0.1321	-0.305
Mof_O 	O 	0.1592	0.2741	0.3373	-0.268
Mof_O 	O 	0.3953	0.6919	0.1919	-0.298
Mof_O 	O 	0.3307	0.8141	0.3983	-0.3
Mof_O 	O 	0.1997	0.6577	0.1189	-0.32
Mof_O 	O 	0.1339	0.7722	0.3283	-0.261
Mof_O 	O 	0.4212	0.1916	0.2047	-0.301
Mof_O 	O 	0.3543	0.3109	0.4133	-0.287
Mof_C 	C 	0.2814	0.6987	0.199	0.24
Mof_C 	C 	0.2447	0.7671	0.3194	0.226
Mof_C 	C 	0.309	0.2025	0.213	0.239
Mof_C 	C 	0.2714	0.2671	0.3317	0.218
_end
