data_functionalizedCrystal
_audit_creation_method	'EQeq! by Chris Wilmer'
_symmetry_space_group_name_H-M	'P1'
_symmetry_Int_Tables_number	1
_symmetry_cell_setting	triclinic
loop_
_symmetry_equiv_pos_as_xyz
  x,y,z
_cell_length_a	11.7302
_cell_length_b	11.9026
_cell_length_c	12.5335
_cell_angle_alpha	106.769
_cell_angle_beta	106.195
_cell_angle_gamma	113.462
loop_
_atom_site_label
_atom_site_type_symbol
_atom_site_fract_x
_atom_site_fract_y
_atom_site_fract_z
_atom_site_charge
Mof_Ag	Ag	0.40852	0.23169	0.60612	0.456
Mof_Ag	Ag	0.73222	0.27957	0.87468	0.521
Mof_Ag	Ag	0.6976	0.37443	0.60612	0.455
Mof_Ag	Ag	0.64246	0.59511	0.87468	0.523
Mof_Ag	Ag	0.59148	0.76831	0.39388	0.456
Mof_Ag	Ag	0.26778	0.72043	0.12532	0.521
Mof_Ag	Ag	0.3024	0.62557	0.39388	0.455
Mof_Ag	Ag	0.35754	0.40489	0.12532	0.523
Mof_H 	H 	0.5917	0.3261	0.0732	-0.037
Mof_H 	H 	0.2694	0.3562	0.7432	0.006
Mof_H 	H 	0.234	0.3659	0.8558	0.004
Mof_H 	H 	0.0473	0.1801	0.6756	0.133
Mof_H 	H 	0.1394	0.1184	0.6544	0.117
Mof_H 	H 	0.1039	0.1281	0.7672	0.128
Mof_H 	H 	0.4792	0.707	0.6932	-0.041
Mof_H 	H 	0.2388	0.3286	0.304	-0.019
Mof_H 	H 	0.2724	0.2347	0.356	-0.015
Mof_H 	H 	0.0365	0.1457	0.2674	0.14
Mof_H 	H 	0.0583	0.2827	0.3584	0.14
Mof_H 	H 	0.092	0.1889	0.4106	0.138
Mof_H 	H 	0.9815	0.7471	0.0732	-0.031
Mof_H 	H 	0.9738	0.387	0.7432	-0.004
Mof_H 	H 	0.1218	0.4899	0.8558	-0.004
Mof_H 	H 	0.1283	0.4955	0.6756	0.14
Mof_H 	H 	0.015	0.536	0.6544	0.125
Mof_H 	H 	0.1633	0.6391	0.7672	0.136
Mof_H 	H 	0.714	0.9862	0.6932	-0.04
Mof_H 	H 	0.5652	0.9754	0.304	-0.02
Mof_H 	H 	0.5836	0.1213	0.356	-0.016
Mof_H 	H 	0.7309	0.1217	0.2674	0.142
Mof_H 	H 	0.8001	0.0757	0.3584	0.142
Mof_H 	H 	0.8186	0.2217	0.4106	0.139
Mof_H 	H 	0.4083	0.6739	0.9268	-0.037
Mof_H 	H 	0.7306	0.6438	0.2568	0.006
Mof_H 	H 	0.766	0.6341	0.1442	0.004
Mof_H 	H 	0.9527	0.8199	0.3244	0.133
Mof_H 	H 	0.8606	0.8816	0.3456	0.117
Mof_H 	H 	0.8961	0.8719	0.2328	0.128
Mof_H 	H 	0.5208	0.293	0.3068	-0.041
Mof_H 	H 	0.7612	0.6714	0.696	-0.019
Mof_H 	H 	0.7276	0.7653	0.644	-0.015
Mof_H 	H 	0.9635	0.8543	0.7326	0.14
Mof_H 	H 	0.9417	0.7173	0.6416	0.14
Mof_H 	H 	0.908	0.8111	0.5894	0.138
Mof_H 	H 	0.0185	0.2529	0.9268	-0.031
Mof_H 	H 	0.0262	0.613	0.2568	-0.004
Mof_H 	H 	0.8782	0.5101	0.1442	-0.004
Mof_H 	H 	0.8717	0.5045	0.3244	0.14
Mof_H 	H 	0.985	0.464	0.3456	0.125
Mof_H 	H 	0.8367	0.3609	0.2328	0.136
Mof_H 	H 	0.286	0.0138	0.3068	-0.04
Mof_H 	H 	0.4348	0.0246	0.696	-0.02
Mof_H 	H 	0.4164	0.8787	0.644	-0.016
Mof_H 	H 	0.2691	0.8783	0.7326	0.142
Mof_H 	H 	0.1999	0.9243	0.6416	0.142
Mof_H 	H 	0.1814	0.7783	0.5894	0.139
Mof_C 	C 	0.3784	0.3122	0.8634	0.073
Mof_C 	C 	0.53639	0.31849	0.99878	0.093
Mof_C 	C 	0.2515	0.3118	0.7954	-0.014
Mof_C 	C 	0.1242	0.1722	0.7162	-0.419
Mof_C 	C 	0.33341	0.41761	0.49302	0.071
Mof_C 	C 	0.44414	0.61434	0.64508	0.097
Mof_C 	C 	0.2382	0.2971	0.3672	0.029
Mof_C 	C 	0.0935	0.222	0.3494	-0.466
Mof_C 	C 	0.985	0.5512	0.8634	0.061
Mof_C 	C 	0.96239	0.68029	0.99878	0.084
Mof_C 	C 	0.0439	0.4836	0.7954	0.012
Mof_C 	C 	0.092	0.544	0.7162	-0.445
Mof_C 	C 	0.65961	0.07541	0.49302	0.069
Mof_C 	C 	0.70094	0.03074	0.64508	0.095
Mof_C 	C 	0.629	0.0701	0.3672	0.033
Mof_C 	C 	0.7559	0.1274	0.3494	-0.471
Mof_C 	C 	0.6216	0.6878	0.1366	0.073
Mof_C 	C 	0.46361	0.68151	0.00122	0.093
Mof_C 	C 	0.7485	0.6882	0.2046	-0.014
Mof_C 	C 	0.8758	0.8278	0.2838	-0.419
Mof_C 	C 	0.66659	0.58239	0.50698	0.071
Mof_C 	C 	0.55586	0.38566	0.35492	0.097
Mof_C 	C 	0.7618	0.7029	0.6328	0.029
Mof_C 	C 	0.9065	0.778	0.6506	-0.466
Mof_C 	C 	0.015	0.4488	0.1366	0.061
Mof_C 	C 	0.03761	0.31971	0.00122	0.084
Mof_C 	C 	0.9561	0.5164	0.2046	0.012
Mof_C 	C 	0.908	0.456	0.2838	-0.445
Mof_C 	C 	0.34039	0.92459	0.50698	0.069
Mof_C 	C 	0.29906	0.96926	0.35492	0.095
Mof_C 	C 	0.371	0.9299	0.6328	0.033
Mof_C 	C 	0.2441	0.8726	0.6506	-0.471
Mof_N 	N 	0.45849	0.29299	0.81218	-0.178
Mof_N 	N 	0.56217	0.29747	0.90194	-0.19
Mof_N 	N 	0.42274	0.32834	0.98088	-0.207
Mof_N 	N 	0.40351	0.40971	0.59022	-0.173
Mof_N 	N 	0.47662	0.53872	0.68984	-0.177
Mof_N 	N 	0.355	0.5449	0.5222	-0.211
Mof_N 	N 	0.85369	0.51919	0.81218	-0.176
Mof_N 	N 	0.83977	0.60447	0.90194	-0.188
Mof_N 	N 	0.05814	0.65254	0.98088	-0.2
Mof_N 	N 	0.68671	0.18051	0.59022	-0.173
Mof_N 	N 	0.71322	0.15112	0.68984	-0.177
Mof_N 	N 	0.6672	0.9773	0.5222	-0.21
Mof_N 	N 	0.54151	0.70701	0.18782	-0.178
Mof_N 	N 	0.43783	0.70253	0.09806	-0.19
Mof_N 	N 	0.57726	0.67166	0.01912	-0.207
Mof_N 	N 	0.59649	0.59029	0.40978	-0.173
Mof_N 	N 	0.52338	0.46128	0.31016	-0.177
Mof_N 	N 	0.645	0.4551	0.4778	-0.211
Mof_N 	N 	0.14631	0.48081	0.18782	-0.176
Mof_N 	N 	0.16023	0.39553	0.09806	-0.188
Mof_N 	N 	0.94186	0.34746	0.01912	-0.2
Mof_N 	N 	0.31329	0.81949	0.40978	-0.173
Mof_N 	N 	0.28678	0.84888	0.31016	-0.177
Mof_N 	N 	0.3328	0.0227	0.4778	-0.21
_end
