data_functionalizedCrystal
_audit_creation_method	'EQeq! by Chris Wilmer'
_symmetry_space_group_name_H-M	'P1'
_symmetry_Int_Tables_number	1
_symmetry_cell_setting	triclinic
loop_
_symmetry_equiv_pos_as_xyz
  x,y,z
_cell_length_a	19.144
_cell_length_b	23.388
_cell_length_c	22.86
_cell_angle_alpha	90
_cell_angle_beta	102.838
_cell_angle_gamma	90
loop_
_atom_site_label
_atom_site_type_symbol
_atom_site_fract_x
_atom_site_fract_y
_atom_site_fract_z
_atom_site_charge
Mof_W 	W 	0.6697	0.81376	0.99447	1.046
Mof_O 	O 	0.7424	0.7601	0.0313	-0.493
Mof_O 	O 	0.7236	0.8704	0.0503	-0.523
Mof_O 	O 	0.6497	0.7936	0.0911	-0.438
Mof_O 	O 	0.5907	0.8609	0.9885	-0.468
Mof_O 	O 	0.6078	0.7517	0.9696	-0.488
Mof_W 	W 	0.74784	0.73007	0.11233	1.356
Mof_W 	W 	0.72457	0.87134	0.13315	1.346
Mof_P 	P 	0.5744	0.7788	0.105	0.582
Mof_W 	W 	0.48727	0.86861	0.98844	1.371
Mof_W 	W 	0.51375	0.71545	0.96268	1.34
Mof_O 	O 	0.7838	0.8042	0.1411	-0.582
Mof_O 	O 	0.7196	0.717	0.1839	-0.499
Mof_O 	O 	0.681	0.6745	0.0777	-0.495
Mof_O 	O 	0.8273	0.6963	0.1259	-0.573
Mof_O 	O 	0.7888	0.9223	0.1581	-0.967
Mof_O 	O 	0.7003	0.8482	0.2063	-0.544
Mof_O 	O 	0.6372	0.911	0.1176	-0.516
Mof_O 	O 	0.5844	0.7674	0.1723	-0.357
Mof_O 	O 	0.5456	0.7267	0.0688	-0.36
Mof_O 	O 	0.5273	0.8307	0.0855	-0.396
Mof_O 	O 	0.479	0.7907	0.9651	-0.508
Mof_O 	O 	0.4652	0.9027	0.92	-0.549
Mof_O 	O 	0.5129	0.9319	0.0412	-0.488
Mof_O 	O 	0.3976	0.8659	0.007	-0.488
Mof_O 	O 	0.5009	0.7012	0.8875	-0.601
Mof_O 	O 	0.5637	0.6469	0.994	-0.524
Mof_O 	O 	0.4273	0.6888	0.9758	-0.498
Mof_W 	W 	0.65106	0.69138	0.22993	0.996
Mof_W 	W 	0.59262	0.63183	0.07858	0.963
Mof_Co	Co	0.91575	0.65762	0.19153	1.124
Mof_W 	W 	0.62917	0.83144	0.25152	1.371
Mof_W 	W 	0.53977	0.92355	0.12642	1.408
Mof_Co	Co	0.41222	0.92175	0.83169	1.129
Mof_W 	W 	0.30712	0.83779	0.02047	0.983
Mof_Na	Na	0.5434	0.6314	0.8245	0.895
Mof_W 	W 	0.33207	0.68534	0.99314	0.983
Mof_O 	O 	0.6129	0.6465	0.1617	-0.496
Mof_O 	O 	0.6721	0.7604	0.2769	-0.491
Mof_O 	O 	0.5663	0.6806	0.257	-0.48
Mof_O 	O 	0.4997	0.6129	0.0809	-0.494
Mof_O 	O 	0.5709	0.8853	0.2003	-0.511
Mof_O 	O 	0.5454	0.8076	0.2746	-0.49
Mof_O 	O 	0.6678	0.8735	0.3132	-0.586
Mof_O 	O 	0.5519	0.9934	0.1472	-0.548
Mof_O 	O 	0.4447	0.9153	0.1306	-0.488
Mof_N 	N 	0.5044	0.9081	0.7998	-0.218
Mof_N 	N 	0.355	0.946	0.7467	-0.25
Mof_N 	N 	0.378	0.8375	0.8175	-0.241
Mof_O 	O 	0.3075	0.8989	0.0774	-0.483
Mof_O 	O 	0.3775	0.8061	0.1113	-0.362
Mof_O 	O 	0.233	0.7976	0.0487	-0.463
Mof_O 	O 	0.3293	0.7652	0.9892	-0.443
Mof_N 	N 	0.518	0.6828	0.7494	-0.328
Mof_O 	O 	0.3569	0.6132	0.0295	-0.514
Mof_O 	O 	0.3967	0.7003	0.0935	-0.327
Mof_O 	O 	0.252	0.6891	0.0307	-0.464
Mof_W 	W 	0.47053	0.65816	0.25901	0.943
Mof_W 	W 	0.41234	0.60056	0.10803	0.924
Mof_W 	W 	0.44764	0.79749	0.28018	1.396
Mof_Co	Co	0.7371	0.9249	0.3792	1.013
Mof_W 	W 	0.35919	0.89259	0.15792	1.344
Mof_C 	C 	0.5649	0.9356	0.8121	0.124
Mof_N 	N 	0.5038	0.8798	0.7481	-0.225
Mof_C 	C 	0.318	0.9903	0.7324	0.128
Mof_N 	N 	0.3498	0.9146	0.697	-0.22
Mof_C 	C 	0.3523	0.8014	0.8545	0.083
Mof_N 	N 	0.3805	0.8055	0.7678	-0.231
Mof_P 	P 	0.3833	0.7452	0.1372	0.563
Mof_W 	W 	0.1973	0.72982	0.07736	0.986
Mof_C 	C 	0.516	0.744	0.744	0.077
Mof_N 	N 	0.484	0.6652	0.6911	-0.354
Mof_O 	O 	0.4644	0.6207	0.1863	-0.512
Mof_O 	O 	0.4667	0.7236	0.311	-0.476
Mof_O 	O 	0.4377	0.7417	0.1965	-0.362
Mof_O 	O 	0.3679	0.6525	0.2457	-0.497
Mof_O 	O 	0.3248	0.6098	0.1378	-0.487
Mof_O 	O 	0.4234	0.8588	0.2246	-0.498
Mof_O 	O 	0.4544	0.8324	0.3468	-0.555
Mof_O 	O 	0.3486	0.7828	0.2667	-0.488
Mof_N 	N 	0.6587	0.9154	0.4308	-0.274
Mof_N 	N 	0.7044	0.0051	0.3283	-0.293
Mof_O 	O 	0.2852	0.8494	0.1798	-0.513
Mof_O 	O 	0.3404	0.9575	0.1876	-0.567
Mof_H 	H 	0.5778	0.9578	0.8465	-0.017
Mof_N 	N 	0.6072	0.9309	0.7742	-0.261
Mof_C 	C 	0.5692	0.8905	0.7358	0.068
Mof_H 	H 	0.3078	0.0166	0.7598	-0.105
Mof_C 	C 	0.3131	0.9448	0.6507	0.07
Mof_H 	H 	0.3474	0.8107	0.8929	-0.03
Mof_N 	N 	0.335	0.7503	0.8278	-0.186
Mof_C 	C 	0.3558	0.755	0.7746	0.137
Mof_O 	O 	0.3061	0.73	0.1511	-0.393
Mof_O 	O 	0.1977	0.663	0.126	-0.454
Mof_O 	O 	0.1792	0.7735	0.1448	-0.438
Mof_H 	H 	0.5431	0.7677	0.7722	-0.039
Mof_N 	N 	0.471	0.7635	0.6915	-0.244
Mof_C 	C 	0.453	0.717	0.658	0.04
Mof_K 	K 	0.5022	0.5831	0.6637	-0.987
Mof_W 	W 	0.27682	0.64466	0.19263	1.293
Mof_Co	Co	0.44821	0.85685	0.43237	1.146
Mof_W 	W 	0.25247	0.78668	0.21601	0.98
Mof_C 	C 	0.6079	0.8745	0.4239	0.105
Mof_C 	C 	0.631	0.9589	0.461	0.085
Mof_Co	Co	0.3035	0.0243	0.238	1.088
Mof_H 	H 	0.5861	0.8727	0.7053	-0.015
Mof_N 	N 	0.4441	0.8765	0.6108	-0.262
Mof_H 	H 	0.3017	0.9331	0.6108	-0.049
Mof_H 	H 	0.3526	0.7256	0.7467	-0.096
Mof_H 	H 	0.4247	0.7176	0.6191	-0.039
Mof_O 	O 	0.5132	0.5938	0.6291	-0.238
Mof_O 	O 	0.2419	0.7064	0.2355	-0.457
Mof_O 	O 	0.2414	0.5879	0.2222	-0.622
Mof_N 	N 	0.5508	0.8919	0.4437	-0.214
Mof_N 	N 	0.4493	0.8792	0.521	-0.24
Mof_N 	N 	0.4051	0.9342	0.3978	-0.235
Mof_O 	O 	0.4825	0.7841	0.4523	-0.551
Mof_H 	H 	0.6121	0.8386	0.4074	-0.032
Mof_H 	H 	0.6553	0.9922	0.4753	-0.05
Mof_N 	N 	0.5663	0.9463	0.4663	-0.225
Mof_N 	N 	0.3494	0.9949	0.3314	-0.238
Mof_C 	C 	0.4366	0.8469	0.5641	0.125
Mof_N 	N 	0.4643	0.9328	0.5451	-0.234
Mof_C 	C 	0.3638	0.9426	0.343	0.101
Mof_N 	N 	0.4197	0.9865	0.4236	-0.208
Mof_H 	H 	0.5227	0.7839	0.4774	0.208
Mof_C 	C 	0.3836	0.0231	0.3817	0.049
Mof_H 	H 	0.4241	0.8084	0.5607	-0.042
Mof_C 	C 	0.461	0.9276	0.6002	0.137
Mof_H 	H 	0.3473	0.9131	0.3162	-0.064
Mof_H 	H 	0.3823	0.0625	0.3866	-0.002
Mof_H 	H 	0.4696	0.9569	0.6284	-0.041
Mof_K 	K 	0.9193	0.9214	0.1867	3.324
Mof_W 	W 	0.8303	0.31376	0.50553	1.023
Mof_O 	O 	0.7576	0.2601	0.4687	-0.483
Mof_O 	O 	0.7764	0.3704	0.4497	-0.515
Mof_O 	O 	0.8503	0.2936	0.4089	-0.433
Mof_O 	O 	0.9093	0.3609	0.5115	-0.46
Mof_O 	O 	0.8922	0.2517	0.5304	-0.489
Mof_W 	W 	0.75216	0.23007	0.38767	1.357
Mof_W 	W 	0.77543	0.37134	0.36685	1.346
Mof_P 	P 	0.9256	0.2788	0.395	0.583
Mof_W 	W 	0.01273	0.36861	0.51156	1.325
Mof_W 	W 	0.98625	0.21545	0.53732	1.357
Mof_O 	O 	0.7162	0.3042	0.3589	-0.581
Mof_O 	O 	0.7804	0.217	0.3161	-0.499
Mof_O 	O 	0.819	0.1745	0.4223	-0.495
Mof_O 	O 	0.6727	0.1963	0.3741	-0.572
Mof_O 	O 	0.7112	0.4223	0.3419	-0.966
Mof_O 	O 	0.7997	0.3482	0.2937	-0.544
Mof_O 	O 	0.8628	0.411	0.3824	-0.517
Mof_O 	O 	0.9156	0.2674	0.3277	-0.354
Mof_O 	O 	0.9544	0.2267	0.4312	-0.35
Mof_O 	O 	0.9727	0.3307	0.4145	-0.384
Mof_O 	O 	0.021	0.2907	0.5349	-0.516
Mof_O 	O 	0.0348	0.4027	0.58	-0.552
Mof_O 	O 	0.9871	0.4319	0.4588	-0.473
Mof_O 	O 	0.1024	0.3659	0.493	-0.479
Mof_O 	O 	0.9991	0.2012	0.6125	-0.601
Mof_O 	O 	0.9363	0.1469	0.506	-0.535
Mof_O 	O 	0.0727	0.1888	0.5242	-0.51
Mof_W 	W 	0.84894	0.19138	0.27007	0.994
Mof_W 	W 	0.90738	0.13183	0.42142	0.986
Mof_Co	Co	0.58425	0.15762	0.30847	1.122
Mof_W 	W 	0.87083	0.33144	0.24848	1.371
Mof_W 	W 	0.96023	0.42355	0.37358	1.418
Mof_Co	Co	0.08778	0.42175	0.66831	1.123
Mof_W 	W 	0.19288	0.33779	0.47953	0.991
Mof_Na	Na	0.9566	0.1314	0.6755	0.919
Mof_W 	W 	0.16793	0.18534	0.50686	0.96
Mof_O 	O 	0.8871	0.1465	0.3383	-0.496
Mof_O 	O 	0.8279	0.2604	0.2231	-0.491
Mof_O 	O 	0.9337	0.1806	0.243	-0.471
Mof_O 	O 	0.0003	0.1129	0.4191	-0.505
Mof_O 	O 	0.9291	0.3853	0.2997	-0.51
Mof_O 	O 	0.9546	0.3076	0.2254	-0.481
Mof_O 	O 	0.8322	0.3735	0.1868	-0.587
Mof_O 	O 	0.9481	0.4934	0.3528	-0.555
Mof_O 	O 	0.0553	0.4153	0.3694	-0.499
Mof_N 	N 	0.9956	0.4081	0.7002	-0.214
Mof_N 	N 	0.145	0.446	0.7533	-0.248
Mof_N 	N 	0.122	0.3375	0.6825	-0.243
Mof_O 	O 	0.1925	0.3989	0.4226	-0.486
Mof_O 	O 	0.1225	0.3061	0.3887	-0.363
Mof_O 	O 	0.267	0.2976	0.4513	-0.462
Mof_O 	O 	0.1707	0.2652	0.5108	-0.449
Mof_N 	N 	0.982	0.1828	0.7506	-0.325
Mof_O 	O 	0.1431	0.1132	0.4705	-0.507
Mof_O 	O 	0.1033	0.2003	0.4065	-0.324
Mof_O 	O 	0.248	0.1891	0.4693	-0.456
Mof_W 	W 	0.02947	0.15816	0.24099	0.921
Mof_W 	W 	0.08766	0.10056	0.39197	0.917
Mof_W 	W 	0.05236	0.29749	0.21982	1.385
Mof_Co	Co	0.7629	0.4249	0.1208	1.008
Mof_W 	W 	0.14081	0.39259	0.34208	1.343
Mof_C 	C 	0.9351	0.4356	0.6879	0.124
Mof_N 	N 	0.9962	0.3798	0.7519	-0.22
Mof_C 	C 	0.182	0.4903	0.7676	0.095
Mof_N 	N 	0.1502	0.4146	0.803	-0.221
Mof_C 	C 	0.1477	0.3014	0.6455	0.081
Mof_N 	N 	0.1195	0.3055	0.7322	-0.232
Mof_P 	P 	0.1167	0.2452	0.3628	0.562
Mof_W 	W 	0.3027	0.22982	0.42264	0.99
Mof_C 	C 	0.984	0.244	0.756	0.095
Mof_N 	N 	0.016	0.1652	0.8089	-0.354
Mof_O 	O 	0.0356	0.1207	0.3137	-0.516
Mof_O 	O 	0.0333	0.2236	0.189	-0.479
Mof_O 	O 	0.0623	0.2417	0.3035	-0.364
Mof_O 	O 	0.1321	0.1525	0.2543	-0.497
Mof_O 	O 	0.1752	0.1098	0.3622	-0.488
Mof_O 	O 	0.0766	0.3588	0.2754	-0.501
Mof_O 	O 	0.0456	0.3324	0.1532	-0.558
Mof_O 	O 	0.1514	0.2828	0.2333	-0.487
Mof_N 	N 	0.8413	0.4154	0.0692	-0.276
Mof_N 	N 	0.7956	0.5051	0.1717	-0.293
Mof_O 	O 	0.2148	0.3494	0.3202	-0.513
Mof_O 	O 	0.1596	0.4575	0.3124	-0.576
Mof_H 	H 	0.9222	0.4578	0.6535	-0.02
Mof_N 	N 	0.8928	0.4309	0.7258	-0.262
Mof_C 	C 	0.9308	0.3905	0.7642	0.069
Mof_H 	H 	0.1922	0.5166	0.7402	-0.084
Mof_C 	C 	0.1869	0.4448	0.8493	0.069
Mof_H 	H 	0.1526	0.3107	0.6071	-0.031
Mof_N 	N 	0.165	0.2503	0.6722	-0.187
Mof_C 	C 	0.1442	0.255	0.7254	0.134
Mof_O 	O 	0.1939	0.23	0.3489	-0.392
Mof_O 	O 	0.3023	0.163	0.374	-0.453
Mof_O 	O 	0.3208	0.2735	0.3552	-0.436
Mof_H 	H 	0.9569	0.2677	0.7278	-0.043
Mof_N 	N 	0.029	0.2635	0.8085	-0.253
Mof_C 	C 	0.047	0.217	0.842	0.036
Mof_K 	K 	0.9978	0.0831	0.8363	-1.069
Mof_W 	W 	0.22318	0.14466	0.30737	1.291
Mof_Co	Co	0.05179	0.35685	0.06763	1.141
Mof_W 	W 	0.24753	0.28668	0.28399	0.979
Mof_C 	C 	0.8921	0.3745	0.0761	0.103
Mof_C 	C 	0.869	0.4589	0.039	0.081
Mof_Co	Co	0.1965	0.5243	0.262	1.096
Mof_H 	H 	0.9139	0.3727	0.7947	-0.013
Mof_N 	N 	0.0559	0.3765	0.8892	-0.263
Mof_H 	H 	0.1983	0.4331	0.8892	-0.051
Mof_H 	H 	0.1474	0.2256	0.7533	-0.097
Mof_H 	H 	0.0753	0.2176	0.8809	-0.038
Mof_O 	O 	0.9868	0.0938	0.8709	-0.186
Mof_O 	O 	0.2581	0.2064	0.2645	-0.458
Mof_O 	O 	0.2586	0.0879	0.2778	-0.626
Mof_N 	N 	0.9492	0.3919	0.0563	-0.212
Mof_N 	N 	0.0507	0.3792	0.979	-0.238
Mof_N 	N 	0.0949	0.4342	0.1022	-0.239
Mof_O 	O 	0.0175	0.2841	0.0477	-0.573
Mof_H 	H 	0.8879	0.3386	0.0926	-0.032
Mof_H 	H 	0.8447	0.4922	0.0247	-0.058
Mof_N 	N 	0.9337	0.4463	0.0337	-0.228
Mof_N 	N 	0.1506	0.4949	0.1686	-0.255
Mof_C 	C 	0.0634	0.3469	0.9359	0.124
Mof_N 	N 	0.0357	0.4328	0.9549	-0.237
Mof_C 	C 	0.1362	0.4426	0.157	0.097
Mof_N 	N 	0.0803	0.4865	0.0764	-0.228
Mof_H 	H 	0.9773	0.2839	0.0226	0.221
Mof_C 	C 	0.1164	0.5231	0.1183	0.081
Mof_H 	H 	0.0759	0.3084	0.9393	-0.041
Mof_C 	C 	0.039	0.4276	0.8998	0.134
Mof_H 	H 	0.1527	0.4131	0.1838	-0.065
Mof_H 	H 	0.1177	0.5625	0.1134	-0.014
Mof_H 	H 	0.0304	0.4569	0.8716	-0.048
Mof_K 	K 	0.5807	0.4214	0.3133	3.302
Mof_W 	W 	0.3303	0.18624	0.00553	0.994
Mof_O 	O 	0.2576	0.2399	0.9687	-0.471
Mof_O 	O 	0.2764	0.1296	0.9497	-0.505
Mof_O 	O 	0.3503	0.2064	0.9089	-0.427
Mof_O 	O 	0.4093	0.1391	0.0115	-0.468
Mof_O 	O 	0.3922	0.2483	0.0304	-0.487
Mof_W 	W 	0.25216	0.26993	0.88767	1.356
Mof_W 	W 	0.27543	0.12866	0.86685	1.344
Mof_P 	P 	0.4256	0.2212	0.895	0.583
Mof_W 	W 	0.51273	0.13139	0.01156	1.316
Mof_W 	W 	0.48625	0.28455	0.03732	1.324
Mof_O 	O 	0.2162	0.1958	0.8589	-0.58
Mof_O 	O 	0.2804	0.283	0.8161	-0.499
Mof_O 	O 	0.319	0.3255	0.9223	-0.49
Mof_O 	O 	0.1727	0.3037	0.8741	-0.571
Mof_O 	O 	0.2112	0.0777	0.8419	-0.964
Mof_O 	O 	0.2997	0.1518	0.7937	-0.545
Mof_O 	O 	0.3628	0.089	0.8824	-0.514
Mof_O 	O 	0.4156	0.2326	0.8277	-0.357
Mof_O 	O 	0.4544	0.2733	0.9312	-0.348
Mof_O 	O 	0.4727	0.1693	0.9145	-0.385
Mof_O 	O 	0.521	0.2093	0.0349	-0.505
Mof_O 	O 	0.5348	0.0973	0.08	-0.552
Mof_O 	O 	0.4871	0.0681	0.9588	-0.474
Mof_O 	O 	0.6024	0.1341	0.993	-0.468
Mof_O 	O 	0.4991	0.2988	0.1125	-0.597
Mof_O 	O 	0.4363	0.3531	0.006	-0.542
Mof_O 	O 	0.5727	0.3112	0.0242	-0.5
Mof_W 	W 	0.34894	0.30862	0.77007	0.997
Mof_W 	W 	0.40738	0.36817	0.92142	0.987
Mof_Co	Co	0.08425	0.34238	0.80847	1.119
Mof_W 	W 	0.37083	0.16856	0.74848	1.37
Mof_W 	W 	0.46023	0.07645	0.87358	1.406
Mof_Co	Co	0.58778	0.07825	0.16831	1.121
Mof_W 	W 	0.69288	0.16221	0.97953	1.007
Mof_Na	Na	0.4566	0.3686	0.1755	0.883
Mof_W 	W 	0.66793	0.31466	0.00686	0.935
Mof_O 	O 	0.3871	0.3535	0.8383	-0.499
Mof_O 	O 	0.3279	0.2396	0.7231	-0.491
Mof_O 	O 	0.4337	0.3194	0.743	-0.481
Mof_O 	O 	0.5003	0.3871	0.9191	-0.49
Mof_O 	O 	0.4291	0.1147	0.7997	-0.513
Mof_O 	O 	0.4546	0.1924	0.7254	-0.491
Mof_O 	O 	0.3322	0.1265	0.6868	-0.59
Mof_O 	O 	0.4481	0.0066	0.8528	-0.564
Mof_O 	O 	0.5553	0.0847	0.8694	-0.491
Mof_N 	N 	0.4956	0.0919	0.2002	-0.221
Mof_N 	N 	0.645	0.054	0.2533	-0.243
Mof_N 	N 	0.622	0.1625	0.1825	-0.242
Mof_O 	O 	0.6925	0.1011	0.9226	-0.486
Mof_O 	O 	0.6225	0.1939	0.8887	-0.36
Mof_O 	O 	0.767	0.2024	0.9513	-0.459
Mof_O 	O 	0.6707	0.2348	0.0108	-0.458
Mof_N 	N 	0.482	0.3172	0.2506	-0.327
Mof_O 	O 	0.6431	0.3868	0.9705	-0.492
Mof_O 	O 	0.6033	0.2997	0.9065	-0.318
Mof_O 	O 	0.748	0.3109	0.9693	-0.444
Mof_W 	W 	0.52947	0.34184	0.74099	0.943
Mof_W 	W 	0.58766	0.39944	0.89197	0.928
Mof_W 	W 	0.55236	0.20251	0.71982	1.396
Mof_Co	Co	0.2629	0.0751	0.6208	1.004
Mof_W 	W 	0.64081	0.10741	0.84208	1.343
Mof_C 	C 	0.4351	0.0644	0.1879	0.122
Mof_N 	N 	0.4962	0.1202	0.2519	-0.226
Mof_C 	C 	0.682	0.0097	0.2676	0.064
Mof_N 	N 	0.6502	0.0854	0.303	-0.221
Mof_C 	C 	0.6477	0.1986	0.1455	0.083
Mof_N 	N 	0.6195	0.1945	0.2322	-0.231
Mof_P 	P 	0.6167	0.2548	0.8628	0.563
Mof_W 	W 	0.8027	0.27018	0.92264	0.998
Mof_C 	C 	0.484	0.256	0.256	0.077
Mof_N 	N 	0.516	0.3348	0.3089	-0.355
Mof_O 	O 	0.5356	0.3793	0.8137	-0.513
Mof_O 	O 	0.5333	0.2764	0.689	-0.476
Mof_O 	O 	0.5623	0.2583	0.8035	-0.362
Mof_O 	O 	0.6321	0.3475	0.7543	-0.497
Mof_O 	O 	0.6752	0.3902	0.8622	-0.486
Mof_O 	O 	0.5766	0.1412	0.7754	-0.5
Mof_O 	O 	0.5456	0.1676	0.6532	-0.556
Mof_O 	O 	0.6514	0.2172	0.7333	-0.489
Mof_N 	N 	0.3413	0.0846	0.5692	-0.276
Mof_N 	N 	0.2956	0.9949	0.6717	-0.292
Mof_O 	O 	0.7148	0.1506	0.8202	-0.513
Mof_O 	O 	0.6596	0.0425	0.8124	-0.579
Mof_H 	H 	0.4222	0.0422	0.1535	-0.028
Mof_N 	N 	0.3928	0.0691	0.2258	-0.266
Mof_C 	C 	0.4308	0.1095	0.2642	0.066
Mof_H 	H 	0.6922	0.9834	0.2402	-0.064
Mof_C 	C 	0.6869	0.0552	0.3493	0.068
Mof_H 	H 	0.6526	0.1893	0.1071	-0.034
Mof_N 	N 	0.665	0.2497	0.1722	-0.186
Mof_C 	C 	0.6442	0.245	0.2254	0.137
Mof_O 	O 	0.6939	0.27	0.8489	-0.393
Mof_O 	O 	0.8023	0.337	0.874	-0.451
Mof_O 	O 	0.8208	0.2265	0.8552	-0.434
Mof_H 	H 	0.4569	0.2323	0.2278	-0.039
Mof_N 	N 	0.529	0.2365	0.3085	-0.244
Mof_C 	C 	0.547	0.283	0.342	0.04
Mof_K 	K 	0.4978	0.4169	0.3363	-0.987
Mof_W 	W 	0.72318	0.35534	0.80737	1.293
Mof_Co	Co	0.55179	0.14315	0.56763	1.145
Mof_W 	W 	0.74753	0.21332	0.78399	0.98
Mof_C 	C 	0.3921	0.1255	0.5761	0.103
Mof_C 	C 	0.369	0.0411	0.539	0.081
Mof_Co	Co	0.6965	0.9757	0.762	1.102
Mof_H 	H 	0.4139	0.1273	0.2947	-0.016
Mof_N 	N 	0.5559	0.1235	0.3892	-0.262
Mof_H 	H 	0.6983	0.0669	0.3892	-0.054
Mof_H 	H 	0.6474	0.2744	0.2533	-0.096
Mof_H 	H 	0.5753	0.2824	0.3809	-0.039
Mof_O 	O 	0.4868	0.4062	0.3709	-0.238
Mof_O 	O 	0.7581	0.2936	0.7645	-0.457
Mof_O 	O 	0.7586	0.4121	0.7778	-0.621
Mof_N 	N 	0.4492	0.1081	0.5563	-0.215
Mof_N 	N 	0.5507	0.1208	0.479	-0.241
Mof_N 	N 	0.5949	0.0658	0.6022	-0.237
Mof_O 	O 	0.5175	0.2159	0.5477	-0.551
Mof_H 	H 	0.3879	0.1614	0.5926	-0.032
Mof_H 	H 	0.3447	0.0078	0.5247	-0.06
Mof_N 	N 	0.4337	0.0537	0.5337	-0.231
Mof_N 	N 	0.6506	0.0051	0.6686	-0.266
Mof_C 	C 	0.5634	0.1531	0.4359	0.124
Mof_N 	N 	0.5357	0.0672	0.4549	-0.24
Mof_C 	C 	0.6362	0.0574	0.657	0.096
Mof_N 	N 	0.5803	0.0135	0.5764	-0.236
Mof_H 	H 	0.4773	0.2161	0.5226	0.208
Mof_C 	C 	0.6164	0.9769	0.6183	0.112
Mof_H 	H 	0.5759	0.1916	0.4393	-0.042
Mof_C 	C 	0.539	0.0724	0.3998	0.135
Mof_H 	H 	0.6527	0.0869	0.6838	-0.065
Mof_H 	H 	0.6177	0.9375	0.6134	-0.02
Mof_H 	H 	0.5304	0.0431	0.3716	-0.048
Mof_K 	K 	0.0807	0.0786	0.8133	3.278
Mof_W 	W 	0.1697	0.68624	0.49447	1.023
Mof_O 	O 	0.2424	0.7399	0.5313	-0.482
Mof_O 	O 	0.2236	0.6296	0.5503	-0.515
Mof_O 	O 	0.1497	0.7064	0.5911	-0.432
Mof_O 	O 	0.0907	0.6391	0.4885	-0.474
Mof_O 	O 	0.1078	0.7483	0.4696	-0.486
Mof_W 	W 	0.24784	0.76993	0.61233	1.357
Mof_W 	W 	0.22457	0.62866	0.63315	1.345
Mof_P 	P 	0.0744	0.7212	0.605	0.583
Mof_W 	W 	0.98727	0.63139	0.48844	1.368
Mof_W 	W 	0.01375	0.78455	0.46268	1.316
Mof_O 	O 	0.2838	0.6958	0.6411	-0.581
Mof_O 	O 	0.2196	0.783	0.6839	-0.499
Mof_O 	O 	0.181	0.8255	0.5777	-0.491
Mof_O 	O 	0.3273	0.8037	0.6259	-0.572
Mof_O 	O 	0.2888	0.5777	0.6581	-0.965
Mof_O 	O 	0.2003	0.6518	0.7063	-0.544
Mof_O 	O 	0.1372	0.589	0.6176	-0.514
Mof_O 	O 	0.0844	0.7326	0.6723	-0.359
Mof_O 	O 	0.0456	0.7733	0.5688	-0.358
Mof_O 	O 	0.0273	0.6693	0.5855	-0.397
Mof_O 	O 	0.979	0.7093	0.4651	-0.5
Mof_O 	O 	0.9652	0.5973	0.42	-0.549
Mof_O 	O 	0.0129	0.5681	0.5412	-0.492
Mof_O 	O 	0.8976	0.6341	0.507	-0.481
Mof_O 	O 	0.0009	0.7988	0.3875	-0.6
Mof_O 	O 	0.0637	0.8531	0.494	-0.53
Mof_O 	O 	0.9273	0.8112	0.4758	-0.491
Mof_W 	W 	0.15106	0.80862	0.72993	0.998
Mof_W 	W 	0.09262	0.86817	0.57858	0.97
Mof_Co	Co	0.41575	0.84238	0.69153	1.122
Mof_W 	W 	0.12917	0.66856	0.75152	1.371
Mof_W 	W 	0.03977	0.57645	0.62642	1.396
Mof_Co	Co	0.91222	0.57825	0.33169	1.128
Mof_W 	W 	0.80712	0.66221	0.52047	0.993
Mof_Na	Na	0.0434	0.8686	0.3245	0.879
Mof_W 	W 	0.83207	0.81466	0.49314	0.962
Mof_O 	O 	0.1129	0.8535	0.6617	-0.498
Mof_O 	O 	0.1721	0.7396	0.7769	-0.491
Mof_O 	O 	0.0663	0.8194	0.757	-0.487
Mof_O 	O 	0.9997	0.8871	0.5809	-0.483
Mof_O 	O 	0.0709	0.6147	0.7003	-0.514
Mof_O 	O 	0.0454	0.6924	0.7746	-0.499
Mof_O 	O 	0.1678	0.6265	0.8132	-0.588
Mof_O 	O 	0.0519	0.5066	0.6472	-0.56
Mof_O 	O 	0.9447	0.5847	0.6306	-0.481
Mof_N 	N 	0.0044	0.5919	0.2998	-0.224
Mof_N 	N 	0.855	0.554	0.2467	-0.246
Mof_N 	N 	0.878	0.6625	0.3175	-0.241
Mof_O 	O 	0.8075	0.6011	0.5774	-0.485
Mof_O 	O 	0.8775	0.6939	0.6113	-0.359
Mof_O 	O 	0.733	0.7024	0.5487	-0.462
Mof_O 	O 	0.8293	0.7348	0.4892	-0.449
Mof_N 	N 	0.018	0.8172	0.2494	-0.33
Mof_O 	O 	0.8569	0.8868	0.5295	-0.503
Mof_O 	O 	0.8967	0.7997	0.5935	-0.322
Mof_O 	O 	0.752	0.8109	0.5307	-0.455
Mof_W 	W 	0.97053	0.84184	0.75901	0.96
Mof_W 	W 	0.91234	0.89944	0.60803	0.933
Mof_W 	W 	0.94764	0.70251	0.78018	1.406
Mof_Co	Co	0.2371	0.5751	0.8792	1.01
Mof_W 	W 	0.85919	0.60741	0.65792	1.344
Mof_C 	C 	0.0649	0.5644	0.3121	0.122
Mof_N 	N 	0.0038	0.6202	0.2481	-0.229
Mof_C 	C 	0.818	0.5097	0.2324	0.096
Mof_N 	N 	0.8498	0.5854	0.197	-0.22
Mof_C 	C 	0.8523	0.6986	0.3545	0.084
Mof_N 	N 	0.8805	0.6945	0.2678	-0.229
Mof_P 	P 	0.8833	0.7548	0.6372	0.563
Mof_W 	W 	0.6973	0.77018	0.57736	0.991
Mof_C 	C 	0.016	0.756	0.244	0.065
Mof_N 	N 	0.984	0.8348	0.1911	-0.355
Mof_O 	O 	0.9644	0.8793	0.6863	-0.51
Mof_O 	O 	0.9667	0.7764	0.811	-0.473
Mof_O 	O 	0.9377	0.7583	0.6965	-0.36
Mof_O 	O 	0.8679	0.8475	0.7457	-0.497
Mof_O 	O 	0.8248	0.8902	0.6378	-0.485
Mof_O 	O 	0.9234	0.6412	0.7246	-0.497
Mof_O 	O 	0.9544	0.6676	0.8468	-0.553
Mof_O 	O 	0.8486	0.7172	0.7667	-0.49
Mof_N 	N 	0.1587	0.5846	0.9308	-0.274
Mof_N 	N 	0.2044	0.4949	0.8283	-0.293
Mof_O 	O 	0.7852	0.6506	0.6798	-0.513
Mof_O 	O 	0.8404	0.5425	0.6876	-0.574
Mof_H 	H 	0.0778	0.5422	0.3465	-0.024
Mof_N 	N 	0.1072	0.5691	0.2742	-0.263
Mof_C 	C 	0.0692	0.6095	0.2358	0.066
Mof_H 	H 	0.8078	0.4834	0.2598	-0.084
Mof_C 	C 	0.8131	0.5552	0.1507	0.07
Mof_H 	H 	0.8474	0.6893	0.3929	-0.032
Mof_N 	N 	0.835	0.7497	0.3278	-0.186
Mof_C 	C 	0.8558	0.745	0.2746	0.139
Mof_O 	O 	0.8061	0.77	0.6511	-0.393
Mof_O 	O 	0.6977	0.837	0.626	-0.452
Mof_O 	O 	0.6792	0.7265	0.6448	-0.437
Mof_H 	H 	0.0431	0.7323	0.2722	-0.037
Mof_N 	N 	0.971	0.7365	0.1915	-0.238
Mof_C 	C 	0.953	0.783	0.158	0.043
Mof_K 	K 	0.0022	0.9169	0.1637	-0.947
Mof_W 	W 	0.77682	0.85534	0.69263	1.295
Mof_Co	Co	0.94821	0.64315	0.93237	1.15
Mof_W 	W 	0.75247	0.71332	0.71601	0.981
Mof_C 	C 	0.1079	0.6255	0.9239	0.105
Mof_C 	C 	0.131	0.5411	0.961	0.084
Mof_Co	Co	0.8035	0.4757	0.738	1.097
Mof_H 	H 	0.0861	0.6273	0.2053	-0.017
Mof_N 	N 	0.9441	0.6235	0.1108	-0.261
Mof_H 	H 	0.8017	0.5669	0.1108	-0.053
Mof_H 	H 	0.8526	0.7744	0.2467	-0.096
Mof_H 	H 	0.9247	0.7824	0.1191	-0.041
Mof_O 	O 	0.0132	0.9062	0.1291	-0.264
Mof_O 	O 	0.7419	0.7936	0.7355	-0.457
Mof_O 	O 	0.7414	0.9121	0.7222	-0.618
Mof_N 	N 	0.0508	0.6081	0.9437	-0.217
Mof_N 	N 	0.9493	0.6208	0.021	-0.244
Mof_N 	N 	0.9051	0.5658	0.8978	-0.233
Mof_O 	O 	0.9825	0.7159	0.9523	-0.53
Mof_H 	H 	0.1121	0.6614	0.9074	-0.033
Mof_H 	H 	0.1553	0.5078	0.9753	-0.052
Mof_N 	N 	0.0663	0.5537	0.9663	-0.228
Mof_N 	N 	0.8494	0.5051	0.8314	-0.254
Mof_C 	C 	0.9366	0.6531	0.0641	0.125
Mof_N 	N 	0.9643	0.5672	0.0451	-0.237
Mof_C 	C 	0.8638	0.5574	0.843	0.1
Mof_N 	N 	0.9197	0.5135	0.9236	-0.217
Mof_H 	H 	0.0227	0.7161	0.9774	0.196
Mof_C 	C 	0.8836	0.4769	0.8817	0.086
Mof_H 	H 	0.9241	0.6916	0.0607	-0.044
Mof_C 	C 	0.961	0.5724	0.1002	0.138
Mof_H 	H 	0.8473	0.5869	0.8162	-0.065
Mof_H 	H 	0.8823	0.4375	0.8866	-0.009
Mof_H 	H 	0.9696	0.5431	0.1284	-0.041
Mof_K 	K 	0.4193	0.5786	0.6867	3.3
Mof_Co	Co	0.5	5.05909e-33	0.5	1.113
Mof_Co	Co	-0	0.5	-0	1.108
_end
