data_functionalizedCrystal
_audit_creation_method	'EQeq! by Chris Wilmer'
_symmetry_space_group_name_H-M	'P1'
_symmetry_Int_Tables_number	1
_symmetry_cell_setting	triclinic
loop_
_symmetry_equiv_pos_as_xyz
  x,y,z
_cell_length_a	6.568
_cell_length_b	16.3885
_cell_length_c	13.1682
_cell_angle_alpha	90
_cell_angle_beta	90
_cell_angle_gamma	90
loop_
_atom_site_label
_atom_site_type_symbol
_atom_site_fract_x
_atom_site_fract_y
_atom_site_fract_z
_atom_site_charge
Mof_O 	O 	0.1692	0.16741	0.8387	-1.673
Mof_C 	C 	0.8083	0.0277	0.9566	0.024
Mof_O 	O 	0.6692	0.66741	0.3387	-1.663
Mof_C 	C 	0.3083	0.5277	0.4566	0.073
Mof_O 	O 	0.8308	0.33259	0.8387	-1.696
Mof_C 	C 	0.1917	0.4723	0.9566	0.059
Mof_O 	O 	0.3308	0.83259	0.3387	-1.664
Mof_C 	C 	0.6917	0.9723	0.4566	0.049
Mof_O 	O 	0.8308	0.66741	0.1613	-1.696
Mof_C 	C 	0.1917	0.5277	0.0434	0.059
Mof_O 	O 	0.3308	0.16741	0.6613	-1.664
Mof_C 	C 	0.6917	0.0277	0.5434	0.049
Mof_O 	O 	0.1692	0.83259	0.1613	-1.674
Mof_C 	C 	0.8083	0.9723	0.0434	0.023
Mof_O 	O 	0.6692	0.33259	0.6613	-1.663
Mof_C 	C 	0.3083	0.4723	0.5434	0.073
Mof_O 	O 	0.8308	0.83259	0.1613	-1.696
Mof_C 	C 	0.1917	0.9723	0.0434	0.059
Mof_O 	O 	0.3308	0.33259	0.6613	-1.664
Mof_C 	C 	0.6917	0.4723	0.5434	0.049
Mof_O 	O 	0.1692	0.66741	0.1613	-1.674
Mof_C 	C 	0.8083	0.5277	0.0434	0.023
Mof_O 	O 	0.6692	0.16741	0.6613	-1.663
Mof_C 	C 	0.3083	0.0277	0.5434	0.073
Mof_O 	O 	0.1692	0.33259	0.8387	-1.674
Mof_C 	C 	0.8083	0.4723	0.9566	0.023
Mof_O 	O 	0.6692	0.83259	0.3387	-1.663
Mof_C 	C 	0.3083	0.9723	0.4566	0.073
Mof_O 	O 	0.8308	0.16741	0.8387	-1.696
Mof_C 	C 	0.1917	0.0277	0.9566	0.059
Mof_O 	O 	0.3308	0.66741	0.3387	-1.664
Mof_C 	C 	0.6917	0.5277	0.4566	0.049
Mof_Al	Al	0.25	0.25	0.75	7.079
Mof_Al	Al	0.75	0.25	0.75	6.976
Mof_Al	Al	0.75	0.75	0.25	6.976
Mof_Al	Al	0.25	0.75	0.25	7.079
Mof_F 	F 	-1.25993e-32	0.25	0.6931	-2.342
Mof_F 	F 	0.5	0.75	0.1931	-2.367
Mof_F 	F 	2.30702e-33	0.75	0.3069	-2.342
Mof_F 	F 	0.5	0.25	0.8069	-2.367
Mof_C 	C 	-2.851e-32	0.0637	0.9457	-0.259
Mof_C 	C 	-2.90385e-32	0.1411	0.8754	1.213
Mof_C 	C 	0.5	0.5637	0.4457	-0.3
Mof_C 	C 	0.5	0.6411	0.3754	1.165
Mof_C 	C 	-2.851e-32	0.4363	0.9457	-0.258
Mof_C 	C 	-1.1229e-32	0.3589	0.8754	1.213
Mof_C 	C 	0.5	0.9363	0.4457	-0.3
Mof_C 	C 	0.5	0.8589	0.3754	1.165
Mof_C 	C 	-6.27038e-33	0.5637	0.0543	-0.258
Mof_C 	C 	3.16283e-33	0.6411	0.1246	1.213
Mof_C 	C 	0.5	0.0637	0.5543	-0.3
Mof_C 	C 	0.5	0.1411	0.6246	1.165
Mof_C 	C 	-4.18894e-32	0.9363	0.0543	-0.259
Mof_C 	C 	-1.46467e-32	0.8589	0.1246	1.213
Mof_C 	C 	0.5	0.4363	0.5543	-0.3
Mof_C 	C 	0.5	0.3589	0.6246	1.165
_end
