data_functionalizedCrystal
_audit_creation_method	'EQeq! by Chris Wilmer'
_symmetry_space_group_name_H-M	'P1'
_symmetry_Int_Tables_number	1
_symmetry_cell_setting	triclinic
loop_
_symmetry_equiv_pos_as_xyz
  x,y,z
_cell_length_a	29.601
_cell_length_b	29.601
_cell_length_c	3.4496
_cell_angle_alpha	90
_cell_angle_beta	90
_cell_angle_gamma	90
loop_
_atom_site_label
_atom_site_type_symbol
_atom_site_fract_x
_atom_site_fract_y
_atom_site_fract_z
_atom_site_charge
Mof_C 	C 	0.34266	0.2854	0.4527	0.92
Mof_N 	N 	0.38334	0.27323	0.3267	-0.357
Mof_N 	N 	0.3306	0.3339	0.491	1.329
Mof_H 	H 	0.35	0.3544	0.4323	-0.346
Mof_H 	H 	0.3042	0.3414	0.5732	-0.294
Mof_H 	H 	0.3331	0.3162	0.4815	-1.34
Mof_C 	C 	0.84266	0.7854	0.9527	0.955
Mof_N 	N 	0.88334	0.77323	0.8267	-0.37
Mof_N 	N 	0.8306	0.8339	0.991	1.451
Mof_H 	H 	0.85	0.8544	0.9323	-0.382
Mof_H 	H 	0.8042	0.8414	0.0732	-0.305
Mof_H 	H 	0.8331	0.8162	0.9815	-1.459
Mof_C 	C 	0.15734	0.7146	0.9527	0.954
Mof_N 	N 	0.11666	0.72677	0.8267	-0.371
Mof_N 	N 	0.1694	0.6661	0.991	1.447
Mof_H 	H 	0.15	0.6456	0.9323	-0.382
Mof_H 	H 	0.1958	0.6586	0.0732	-0.305
Mof_H 	H 	0.1669	0.6838	0.9815	-1.456
Mof_C 	C 	0.65734	0.2146	0.4527	0.921
Mof_N 	N 	0.61666	0.22677	0.3267	-0.355
Mof_N 	N 	0.6694	0.1661	0.491	1.329
Mof_H 	H 	0.65	0.1456	0.4323	-0.346
Mof_H 	H 	0.6958	0.1586	0.5732	-0.294
Mof_H 	H 	0.6669	0.1838	0.4815	-1.338
Mof_C 	C 	0.9646	0.09266	0.7027	0.94
Mof_N 	N 	0.97677	0.13334	0.5767	-0.366
Mof_N 	N 	0.9161	0.0806	0.741	1.366
Mof_H 	H 	0.8956	0.1	0.6823	-0.341
Mof_H 	H 	0.9086	0.0542	0.8232	-0.296
Mof_H 	H 	0.9338	0.0831	0.7315	-1.37
Mof_C 	C 	0.4646	0.59266	0.2027	0.929
Mof_N 	N 	0.47677	0.63334	0.0767	-0.347
Mof_N 	N 	0.4161	0.5806	0.241	1.341
Mof_H 	H 	0.3956	0.6	0.1823	-0.34
Mof_H 	H 	0.4086	0.5542	0.3232	-0.299
Mof_H 	H 	0.4338	0.5831	0.2315	-1.349
Mof_C 	C 	0.5354	0.90734	0.2027	0.935
Mof_N 	N 	0.52323	0.86666	0.0767	-0.348
Mof_N 	N 	0.5839	0.9194	0.241	1.349
Mof_H 	H 	0.6044	0.9	0.1823	-0.341
Mof_H 	H 	0.5914	0.9458	0.3232	-0.296
Mof_H 	H 	0.5662	0.9169	0.2315	-1.357
Mof_C 	C 	0.0354	0.40734	0.7027	0.945
Mof_N 	N 	0.02323	0.36666	0.5767	-0.358
Mof_N 	N 	0.0839	0.4194	0.741	1.35
Mof_H 	H 	0.1044	0.4	0.6823	-0.336
Mof_H 	H 	0.0914	0.4458	0.8232	-0.288
Mof_H 	H 	0.0662	0.4169	0.7315	-1.359
Mof_C 	C 	0.15734	0.2854	0.0473	0.99
Mof_N 	N 	0.11666	0.27323	0.1733	-0.381
Mof_N 	N 	0.1694	0.3339	0.009	1.556
Mof_H 	H 	0.15	0.3544	0.0677	-0.426
Mof_H 	H 	0.1958	0.3414	0.9268	-0.31
Mof_H 	H 	0.1669	0.3162	0.0185	-1.566
Mof_C 	C 	0.65734	0.7854	0.5473	0.924
Mof_N 	N 	0.61666	0.77323	0.6733	-0.358
Mof_N 	N 	0.6694	0.8339	0.509	1.332
Mof_H 	H 	0.65	0.8544	0.5677	-0.343
Mof_H 	H 	0.6958	0.8414	0.4268	-0.293
Mof_H 	H 	0.6669	0.8162	0.5185	-1.341
Mof_C 	C 	0.34266	0.7146	0.5473	0.923
Mof_N 	N 	0.38334	0.72677	0.6733	-0.357
Mof_N 	N 	0.3306	0.6661	0.509	1.33
Mof_H 	H 	0.35	0.6456	0.5677	-0.344
Mof_H 	H 	0.3042	0.6586	0.4268	-0.294
Mof_H 	H 	0.3331	0.6838	0.5185	-1.34
Mof_C 	C 	0.84266	0.2146	0.0473	0.99
Mof_N 	N 	0.88334	0.22677	0.1733	-0.38
Mof_N 	N 	0.8306	0.1661	0.009	1.557
Mof_H 	H 	0.85	0.1456	0.0677	-0.426
Mof_H 	H 	0.8042	0.1586	0.9268	-0.31
Mof_H 	H 	0.8331	0.1838	0.0185	-1.567
Mof_C 	C 	0.5354	0.09266	0.7973	0.933
Mof_N 	N 	0.52323	0.13334	0.9233	-0.339
Mof_N 	N 	0.5839	0.0806	0.759	1.348
Mof_H 	H 	0.6044	0.1	0.8177	-0.338
Mof_H 	H 	0.5914	0.0542	0.6768	-0.302
Mof_H 	H 	0.5662	0.0831	0.7685	-1.355
Mof_C 	C 	0.0354	0.59266	0.2973	0.928
Mof_N 	N 	0.02323	0.63334	0.4233	-0.355
Mof_N 	N 	0.0839	0.5806	0.259	1.331
Mof_H 	H 	0.1044	0.6	0.3177	-0.337
Mof_H 	H 	0.0914	0.5542	0.1768	-0.295
Mof_H 	H 	0.0662	0.5831	0.2685	-1.34
Mof_C 	C 	0.9646	0.90734	0.2973	0.931
Mof_N 	N 	0.97677	0.86666	0.4233	-0.365
Mof_N 	N 	0.9161	0.9194	0.259	1.356
Mof_H 	H 	0.8956	0.9	0.3177	-0.343
Mof_H 	H 	0.9086	0.9458	0.1768	-0.298
Mof_H 	H 	0.9338	0.9169	0.2685	-1.36
Mof_C 	C 	0.4646	0.40734	0.7973	0.935
Mof_N 	N 	0.47677	0.36666	0.9233	-0.34
Mof_N 	N 	0.4161	0.4194	0.759	1.349
Mof_H 	H 	0.3956	0.4	0.8177	-0.337
Mof_H 	H 	0.4086	0.4458	0.6768	-0.3
Mof_H 	H 	0.4338	0.4169	0.7685	-1.356
Mof_C 	C 	0.65734	0.7146	0.5473	0.922
Mof_N 	N 	0.61666	0.72677	0.6733	-0.357
Mof_N 	N 	0.6694	0.6661	0.509	1.33
Mof_H 	H 	0.65	0.6456	0.5677	-0.344
Mof_H 	H 	0.6958	0.6586	0.4268	-0.294
Mof_H 	H 	0.6669	0.6838	0.5185	-1.34
Mof_C 	C 	0.15734	0.2146	0.0473	0.989
Mof_N 	N 	0.11666	0.22677	0.1733	-0.381
Mof_N 	N 	0.1694	0.1661	0.009	1.555
Mof_H 	H 	0.15	0.1456	0.0677	-0.426
Mof_H 	H 	0.1958	0.1586	0.9268	-0.31
Mof_H 	H 	0.1669	0.1838	0.0185	-1.566
Mof_C 	C 	0.84266	0.2854	0.0473	0.991
Mof_N 	N 	0.88334	0.27323	0.1733	-0.38
Mof_N 	N 	0.8306	0.3339	0.009	1.557
Mof_H 	H 	0.85	0.3544	0.0677	-0.426
Mof_H 	H 	0.8042	0.3414	0.9268	-0.31
Mof_H 	H 	0.8331	0.3162	0.0185	-1.568
Mof_C 	C 	0.34266	0.7854	0.5473	0.924
Mof_N 	N 	0.38334	0.77323	0.6733	-0.358
Mof_N 	N 	0.3306	0.8339	0.509	1.332
Mof_H 	H 	0.35	0.8544	0.5677	-0.343
Mof_H 	H 	0.3042	0.8414	0.4268	-0.293
Mof_H 	H 	0.3331	0.8162	0.5185	-1.341
Mof_C 	C 	0.0354	0.90734	0.2973	0.935
Mof_N 	N 	0.02323	0.86666	0.4233	-0.356
Mof_N 	N 	0.0839	0.9194	0.259	1.339
Mof_H 	H 	0.1044	0.9	0.3177	-0.339
Mof_H 	H 	0.0914	0.9458	0.1768	-0.292
Mof_H 	H 	0.0662	0.9169	0.2685	-1.348
Mof_C 	C 	0.5354	0.40734	0.7973	0.935
Mof_N 	N 	0.52323	0.36666	0.9233	-0.34
Mof_N 	N 	0.5839	0.4194	0.759	1.349
Mof_H 	H 	0.6044	0.4	0.8177	-0.337
Mof_H 	H 	0.5914	0.4458	0.6768	-0.3
Mof_H 	H 	0.5662	0.4169	0.7685	-1.356
Mof_C 	C 	0.4646	0.09266	0.7973	0.933
Mof_N 	N 	0.47677	0.13334	0.9233	-0.339
Mof_N 	N 	0.4161	0.0806	0.759	1.348
Mof_H 	H 	0.3956	0.1	0.8177	-0.338
Mof_H 	H 	0.4086	0.0542	0.6768	-0.302
Mof_H 	H 	0.4338	0.0831	0.7685	-1.355
Mof_C 	C 	0.9646	0.59266	0.2973	0.925
Mof_N 	N 	0.97677	0.63334	0.4233	-0.363
Mof_N 	N 	0.9161	0.5806	0.259	1.348
Mof_H 	H 	0.8956	0.6	0.3177	-0.342
Mof_H 	H 	0.9086	0.5542	0.1768	-0.301
Mof_H 	H 	0.9338	0.5831	0.2685	-1.353
Mof_C 	C 	0.84266	0.7146	0.9527	0.955
Mof_N 	N 	0.88334	0.72677	0.8267	-0.37
Mof_N 	N 	0.8306	0.6661	0.991	1.449
Mof_H 	H 	0.85	0.6456	0.9323	-0.382
Mof_H 	H 	0.8042	0.6586	0.0732	-0.305
Mof_H 	H 	0.8331	0.6838	0.9815	-1.458
Mof_C 	C 	0.34266	0.2146	0.4527	0.921
Mof_N 	N 	0.38334	0.22677	0.3267	-0.355
Mof_N 	N 	0.3306	0.1661	0.491	1.329
Mof_H 	H 	0.35	0.1456	0.4323	-0.346
Mof_H 	H 	0.3042	0.1586	0.5732	-0.294
Mof_H 	H 	0.3331	0.1838	0.4815	-1.338
Mof_C 	C 	0.65734	0.2854	0.4527	0.921
Mof_N 	N 	0.61666	0.27323	0.3267	-0.356
Mof_N 	N 	0.6694	0.3339	0.491	1.33
Mof_H 	H 	0.65	0.3544	0.4323	-0.345
Mof_H 	H 	0.6958	0.3414	0.5732	-0.293
Mof_H 	H 	0.6669	0.3162	0.4815	-1.339
Mof_C 	C 	0.15734	0.7854	0.9527	0.955
Mof_N 	N 	0.11666	0.77323	0.8267	-0.371
Mof_N 	N 	0.1694	0.8339	0.991	1.449
Mof_H 	H 	0.15	0.8544	0.9323	-0.382
Mof_H 	H 	0.1958	0.8414	0.0732	-0.304
Mof_H 	H 	0.1669	0.8162	0.9815	-1.458
Mof_C 	C 	0.4646	0.90734	0.2027	0.935
Mof_N 	N 	0.47677	0.86666	0.0767	-0.348
Mof_N 	N 	0.4161	0.9194	0.241	1.349
Mof_H 	H 	0.3956	0.9	0.1823	-0.341
Mof_H 	H 	0.4086	0.9458	0.3232	-0.296
Mof_H 	H 	0.4338	0.9169	0.2315	-1.357
Mof_C 	C 	0.9646	0.40734	0.7027	0.941
Mof_N 	N 	0.97677	0.36666	0.5767	-0.366
Mof_N 	N 	0.9161	0.4194	0.741	1.367
Mof_H 	H 	0.8956	0.4	0.6823	-0.34
Mof_H 	H 	0.9086	0.4458	0.8232	-0.294
Mof_H 	H 	0.9338	0.4169	0.7315	-1.372
Mof_C 	C 	0.0354	0.09266	0.7027	0.943
Mof_N 	N 	0.02323	0.13334	0.5767	-0.358
Mof_N 	N 	0.0839	0.0806	0.741	1.349
Mof_H 	H 	0.1044	0.1	0.6823	-0.337
Mof_H 	H 	0.0914	0.0542	0.8232	-0.29
Mof_H 	H 	0.0662	0.0831	0.7315	-1.358
Mof_C 	C 	0.5354	0.59266	0.2027	0.929
Mof_N 	N 	0.52323	0.63334	0.0767	-0.347
Mof_N 	N 	0.5839	0.5806	0.241	1.341
Mof_H 	H 	0.6044	0.6	0.1823	-0.34
Mof_H 	H 	0.5914	0.5542	0.3232	-0.299
Mof_H 	H 	0.5662	0.5831	0.2315	-1.349
Mof_Ag	Ag	0.43961	0.31039	0.125	0.357
Mof_Ag	Ag	0.06039	0.68961	0.625	0.407
Mof_Ag	Ag	0.93961	0.18961	0.375	0.397
Mof_Ag	Ag	0.56039	0.81039	0.875	0.372
Mof_Ag	Ag	0.06039	0.31039	0.375	0.408
Mof_Ag	Ag	0.43961	0.68961	0.875	0.371
Mof_Ag	Ag	0.56039	0.18961	0.125	0.356
Mof_Ag	Ag	0.93961	0.81039	0.625	0.397
Mof_Ag	Ag	0.56039	0.68961	0.875	0.371
Mof_Ag	Ag	0.93961	0.31039	0.375	0.397
Mof_Ag	Ag	0.06039	0.81039	0.625	0.408
Mof_Ag	Ag	0.43961	0.18961	0.125	0.356
Mof_Ag	Ag	0.93961	0.68961	0.625	0.396
Mof_Ag	Ag	0.56039	0.31039	0.125	0.356
Mof_Ag	Ag	0.43961	0.81039	0.875	0.372
Mof_Ag	Ag	0.06039	0.18961	0.375	0.407
Mof_Ag	Ag	0.25	0.25	0.75	0.696
Mof_Ag	Ag	0.25	0.75	0.25	0.68
Mof_Ag	Ag	-0	0	-0	0.6
Mof_Ag	Ag	0.5	0.5	0.5	0.647
Mof_Ag	Ag	0.5	5.21974e-34	0.5	0.627
Mof_Ag	Ag	-0	0.5	-0	0.62
Mof_Ag	Ag	0.75	0.25	0.75	0.696
Mof_Ag	Ag	0.75	0.75	0.25	0.68
Mof_N 	N 	0.3165	0.25	0.534	-0.557
Mof_N 	N 	0.1835	0.75	0.034	-0.539
Mof_N 	N 	-7.01385e-34	0.0665	0.784	-0.539
Mof_N 	N 	0.5	0.5665	0.284	-0.556
Mof_N 	N 	0.5	0.9335	0.284	-0.552
Mof_N 	N 	3.42563e-34	0.4335	0.784	-0.541
Mof_N 	N 	0.1835	0.25	0.966	-0.53
Mof_N 	N 	0.3165	0.75	0.466	-0.555
Mof_N 	N 	0.8165	0.25	0.966	-0.53
Mof_N 	N 	0.5	0.0665	0.716	-0.556
Mof_N 	N 	-6.69128e-33	0.5665	0.216	-0.544
Mof_N 	N 	1.6603e-33	0.9335	0.216	-0.54
Mof_N 	N 	0.5	0.4335	0.716	-0.558
Mof_N 	N 	0.6835	0.75	0.466	-0.556
Mof_N 	N 	0.8165	0.75	0.034	-0.54
Mof_N 	N 	0.6835	0.25	0.534	-0.557
_end
