data_functionalizedCrystal
_audit_creation_method	'EQeq! by Chris Wilmer'
_symmetry_space_group_name_H-M	'P1'
_symmetry_Int_Tables_number	1
_symmetry_cell_setting	triclinic
loop_
_symmetry_equiv_pos_as_xyz
  x,y,z
_cell_length_a	32.99
_cell_length_b	32.99
_cell_length_c	32.99
_cell_angle_alpha	90
_cell_angle_beta	90
_cell_angle_gamma	90
loop_
_atom_site_label
_atom_site_type_symbol
_atom_site_fract_x
_atom_site_fract_y
_atom_site_fract_z
_atom_site_charge
Mof_O 	O 	0.96666	0.30043	0.71821	-0.405
Mof_O 	O 	0.03575	0.3001	0.71802	-0.415
Mof_C 	C 	0.00197	0.31368	0.71057	0.348
Mof_C 	C 	0.00094	0.35146	0.68294	-0.073
Mof_C 	C 	0.96715	0.36763	0.6716	-0.018
Mof_H 	H 	0.9429	0.3562	0.6804	0.054
Mof_C 	C 	0.96577	0.4029	0.6456	-0.021
Mof_C 	C 	0.00207	0.41866	0.63203	0.077
Mof_C 	C 	0.03819	0.40237	0.64519	-0.12
Mof_H 	H 	0.0625	0.4143	0.6374	0.075
Mof_C 	C 	0.03862	0.36786	0.67033	0.019
Mof_H 	H 	0.063	0.3562	0.6784	0.039
Mof_C 	C 	0.92898	0.42123	0.63307	-0.027
Mof_H 	H 	0.9044	0.411	0.6424	0.039
Mof_C 	C 	0.92928	0.4535	0.60756	-0.086
Mof_H 	H 	0.9049	0.465	0.5995	0.059
Mof_C 	C 	0.966	0.46978	0.59315	0.043
Mof_C 	C 	0.00073	0.4534	0.60536	-0.133
Mof_H 	H 	0.025	0.4647	0.5964	0.079
Mof_C 	C 	0.96552	0.50306	0.56358	0.038
Mof_C 	C 	0.93606	0.50397	0.5335	-0.106
Mof_H 	H 	0.9158	0.4844	0.5333	0.067
Mof_O 	O 	0.53334	0.19957	0.71821	-0.405
Mof_O 	O 	0.46425	0.1999	0.71802	-0.415
Mof_C 	C 	0.49803	0.18632	0.71057	0.348
Mof_C 	C 	0.49906	0.14854	0.68294	-0.073
Mof_C 	C 	0.53285	0.13237	0.6716	-0.018
Mof_H 	H 	0.5571	0.1438	0.6804	0.054
Mof_C 	C 	0.53423	0.0971	0.6456	-0.021
Mof_C 	C 	0.49793	0.08134	0.63203	0.077
Mof_C 	C 	0.46181	0.09763	0.64519	-0.12
Mof_H 	H 	0.4375	0.0857	0.6374	0.075
Mof_C 	C 	0.46138	0.13214	0.67033	0.019
Mof_H 	H 	0.437	0.1438	0.6784	0.039
Mof_C 	C 	0.57102	0.07877	0.63307	-0.027
Mof_H 	H 	0.5956	0.089	0.6424	0.039
Mof_C 	C 	0.57072	0.0465	0.60756	-0.086
Mof_H 	H 	0.5951	0.035	0.5995	0.059
Mof_C 	C 	0.534	0.03022	0.59315	0.043
Mof_C 	C 	0.49927	0.0466	0.60536	-0.133
Mof_H 	H 	0.475	0.0353	0.5964	0.079
Mof_C 	C 	0.53448	0.99694	0.56358	0.038
Mof_C 	C 	0.56394	0.99603	0.5335	-0.106
Mof_H 	H 	0.5842	0.0156	0.5333	0.067
Mof_O 	O 	0.53334	0.30043	0.78179	-0.405
Mof_O 	O 	0.46425	0.3001	0.78198	-0.415
Mof_C 	C 	0.49803	0.31368	0.78943	0.348
Mof_C 	C 	0.49906	0.35146	0.81706	-0.073
Mof_C 	C 	0.53285	0.36763	0.8284	-0.018
Mof_H 	H 	0.5571	0.3562	0.8196	0.054
Mof_C 	C 	0.53423	0.4029	0.8544	-0.021
Mof_C 	C 	0.49793	0.41866	0.86797	0.077
Mof_C 	C 	0.46181	0.40237	0.85481	-0.12
Mof_H 	H 	0.4375	0.4143	0.8626	0.075
Mof_C 	C 	0.46138	0.36786	0.82967	0.019
Mof_H 	H 	0.437	0.3562	0.8216	0.039
Mof_C 	C 	0.57102	0.42123	0.86693	-0.027
Mof_H 	H 	0.5956	0.411	0.8576	0.039
Mof_C 	C 	0.57072	0.4535	0.89244	-0.086
Mof_H 	H 	0.5951	0.465	0.9005	0.059
Mof_C 	C 	0.534	0.46978	0.90685	0.043
Mof_C 	C 	0.49927	0.4534	0.89464	-0.133
Mof_H 	H 	0.475	0.4647	0.9036	0.079
Mof_C 	C 	0.53448	0.50306	0.93642	0.038
Mof_C 	C 	0.56394	0.50397	0.9665	-0.106
Mof_H 	H 	0.5842	0.4844	0.9667	0.067
Mof_O 	O 	0.96666	0.19957	0.78179	-0.405
Mof_O 	O 	0.03575	0.1999	0.78198	-0.415
Mof_C 	C 	0.00197	0.18632	0.78943	0.348
Mof_C 	C 	0.00094	0.14854	0.81706	-0.073
Mof_C 	C 	0.96715	0.13237	0.8284	-0.018
Mof_H 	H 	0.9429	0.1438	0.8196	0.054
Mof_C 	C 	0.96577	0.0971	0.8544	-0.021
Mof_C 	C 	0.00207	0.08134	0.86797	0.077
Mof_C 	C 	0.03819	0.09763	0.85481	-0.12
Mof_H 	H 	0.0625	0.0857	0.8626	0.075
Mof_C 	C 	0.03862	0.13214	0.82967	0.019
Mof_H 	H 	0.063	0.1438	0.8216	0.039
Mof_C 	C 	0.92898	0.07877	0.86693	-0.027
Mof_H 	H 	0.9044	0.089	0.8576	0.039
Mof_C 	C 	0.92928	0.0465	0.89244	-0.086
Mof_H 	H 	0.9049	0.035	0.9005	0.059
Mof_C 	C 	0.966	0.03022	0.90685	0.043
Mof_C 	C 	0.00073	0.0466	0.89464	-0.133
Mof_H 	H 	0.025	0.0353	0.9036	0.079
Mof_C 	C 	0.96552	0.99694	0.93642	0.038
Mof_C 	C 	0.93606	0.99603	0.9665	-0.106
Mof_H 	H 	0.9158	0.0156	0.9667	0.067
Mof_O 	O 	0.71821	0.96666	0.30043	-0.405
Mof_O 	O 	0.71802	0.03575	0.3001	-0.415
Mof_C 	C 	0.71057	0.00197	0.31368	0.348
Mof_C 	C 	0.68294	0.00094	0.35146	-0.073
Mof_C 	C 	0.6716	0.96715	0.36763	-0.018
Mof_H 	H 	0.6804	0.9429	0.3562	0.054
Mof_C 	C 	0.6456	0.96577	0.4029	-0.021
Mof_C 	C 	0.63203	0.00207	0.41866	0.077
Mof_C 	C 	0.64519	0.03819	0.40237	-0.12
Mof_H 	H 	0.6374	0.0625	0.4143	0.075
Mof_C 	C 	0.67033	0.03862	0.36786	0.019
Mof_H 	H 	0.6784	0.063	0.3562	0.039
Mof_C 	C 	0.63307	0.92898	0.42123	-0.027
Mof_H 	H 	0.6424	0.9044	0.411	0.039
Mof_C 	C 	0.60756	0.92928	0.4535	-0.086
Mof_H 	H 	0.5995	0.9049	0.465	0.059
Mof_C 	C 	0.59315	0.966	0.46978	0.043
Mof_C 	C 	0.60536	0.00073	0.4534	-0.133
Mof_H 	H 	0.5964	0.025	0.4647	0.079
Mof_C 	C 	0.56358	0.96552	0.50306	0.038
Mof_C 	C 	0.5335	0.93606	0.50397	-0.106
Mof_H 	H 	0.5333	0.9158	0.4844	0.067
Mof_O 	O 	0.71821	0.53334	0.19957	-0.405
Mof_O 	O 	0.71802	0.46425	0.1999	-0.415
Mof_C 	C 	0.71057	0.49803	0.18632	0.348
Mof_C 	C 	0.68294	0.49906	0.14854	-0.073
Mof_C 	C 	0.6716	0.53285	0.13237	-0.018
Mof_H 	H 	0.6804	0.5571	0.1438	0.054
Mof_C 	C 	0.6456	0.53423	0.0971	-0.021
Mof_C 	C 	0.63203	0.49793	0.08134	0.077
Mof_C 	C 	0.64519	0.46181	0.09763	-0.12
Mof_H 	H 	0.6374	0.4375	0.0857	0.075
Mof_C 	C 	0.67033	0.46138	0.13214	0.019
Mof_H 	H 	0.6784	0.437	0.1438	0.039
Mof_C 	C 	0.63307	0.57102	0.07877	-0.027
Mof_H 	H 	0.6424	0.5956	0.089	0.039
Mof_C 	C 	0.60756	0.57072	0.0465	-0.086
Mof_H 	H 	0.5995	0.5951	0.035	0.059
Mof_C 	C 	0.59315	0.534	0.03022	0.043
Mof_C 	C 	0.60536	0.49927	0.0466	-0.133
Mof_H 	H 	0.5964	0.475	0.0353	0.079
Mof_C 	C 	0.56358	0.53448	0.99694	0.038
Mof_C 	C 	0.5335	0.56394	0.99603	-0.106
Mof_H 	H 	0.5333	0.5842	0.0156	0.067
Mof_O 	O 	0.78179	0.53334	0.30043	-0.405
Mof_O 	O 	0.78198	0.46425	0.3001	-0.415
Mof_C 	C 	0.78943	0.49803	0.31368	0.348
Mof_C 	C 	0.81706	0.49906	0.35146	-0.073
Mof_C 	C 	0.8284	0.53285	0.36763	-0.018
Mof_H 	H 	0.8196	0.5571	0.3562	0.054
Mof_C 	C 	0.8544	0.53423	0.4029	-0.021
Mof_C 	C 	0.86797	0.49793	0.41866	0.077
Mof_C 	C 	0.85481	0.46181	0.40237	-0.12
Mof_H 	H 	0.8626	0.4375	0.4143	0.075
Mof_C 	C 	0.82967	0.46138	0.36786	0.019
Mof_H 	H 	0.8216	0.437	0.3562	0.039
Mof_C 	C 	0.86693	0.57102	0.42123	-0.027
Mof_H 	H 	0.8576	0.5956	0.411	0.039
Mof_C 	C 	0.89244	0.57072	0.4535	-0.086
Mof_H 	H 	0.9005	0.5951	0.465	0.059
Mof_C 	C 	0.90685	0.534	0.46978	0.043
Mof_C 	C 	0.89464	0.49927	0.4534	-0.133
Mof_H 	H 	0.9036	0.475	0.4647	0.079
Mof_C 	C 	0.93642	0.53448	0.50306	0.038
Mof_C 	C 	0.9665	0.56394	0.50397	-0.106
Mof_H 	H 	0.9667	0.5842	0.4844	0.067
Mof_O 	O 	0.78179	0.96666	0.19957	-0.405
Mof_O 	O 	0.78198	0.03575	0.1999	-0.415
Mof_C 	C 	0.78943	0.00197	0.18632	0.348
Mof_C 	C 	0.81706	0.00094	0.14854	-0.073
Mof_C 	C 	0.8284	0.96715	0.13237	-0.018
Mof_H 	H 	0.8196	0.9429	0.1438	0.054
Mof_C 	C 	0.8544	0.96577	0.0971	-0.021
Mof_C 	C 	0.86797	0.00207	0.08134	0.077
Mof_C 	C 	0.85481	0.03819	0.09763	-0.119
Mof_H 	H 	0.8626	0.0625	0.0857	0.076
Mof_C 	C 	0.82967	0.03862	0.13214	0.02
Mof_H 	H 	0.8216	0.063	0.1438	0.04
Mof_C 	C 	0.86693	0.92898	0.07877	-0.026
Mof_H 	H 	0.8576	0.9044	0.089	0.04
Mof_C 	C 	0.89244	0.92928	0.0465	-0.085
Mof_H 	H 	0.9005	0.9049	0.035	0.06
Mof_C 	C 	0.90685	0.966	0.03022	0.044
Mof_C 	C 	0.89464	0.00073	0.0466	-0.132
Mof_H 	H 	0.9036	0.025	0.0353	0.08
Mof_C 	C 	0.93642	0.96552	0.99694	0.039
Mof_C 	C 	0.9665	0.93606	0.99603	-0.105
Mof_H 	H 	0.9667	0.9158	0.0156	0.068
Mof_O 	O 	0.30043	0.71821	0.96666	-0.404
Mof_O 	O 	0.3001	0.71802	0.03575	-0.414
Mof_C 	C 	0.31368	0.71057	0.00197	0.349
Mof_C 	C 	0.35146	0.68294	0.00094	-0.072
Mof_C 	C 	0.36763	0.6716	0.96715	-0.017
Mof_H 	H 	0.3562	0.6804	0.9429	0.055
Mof_C 	C 	0.4029	0.6456	0.96577	-0.02
Mof_C 	C 	0.41866	0.63203	0.00207	0.078
Mof_C 	C 	0.40237	0.64519	0.03819	-0.119
Mof_H 	H 	0.4143	0.6374	0.0625	0.076
Mof_C 	C 	0.36786	0.67033	0.03862	0.02
Mof_H 	H 	0.3562	0.6784	0.063	0.04
Mof_C 	C 	0.42123	0.63307	0.92898	-0.026
Mof_H 	H 	0.411	0.6424	0.9044	0.04
Mof_C 	C 	0.4535	0.60756	0.92928	-0.085
Mof_H 	H 	0.465	0.5995	0.9049	0.06
Mof_C 	C 	0.46978	0.59315	0.966	0.044
Mof_C 	C 	0.4534	0.60536	0.00073	-0.132
Mof_H 	H 	0.4647	0.5964	0.025	0.08
Mof_C 	C 	0.50306	0.56358	0.96552	0.039
Mof_C 	C 	0.50397	0.5335	0.93606	-0.105
Mof_H 	H 	0.4844	0.5333	0.9158	0.068
Mof_O 	O 	0.19957	0.71821	0.53334	-0.404
Mof_O 	O 	0.1999	0.71802	0.46425	-0.414
Mof_C 	C 	0.18632	0.71057	0.49803	0.349
Mof_C 	C 	0.14854	0.68294	0.49906	-0.072
Mof_C 	C 	0.13237	0.6716	0.53285	-0.017
Mof_H 	H 	0.1438	0.6804	0.5571	0.055
Mof_C 	C 	0.0971	0.6456	0.53423	-0.02
Mof_C 	C 	0.08134	0.63203	0.49793	0.078
Mof_C 	C 	0.09763	0.64519	0.46181	-0.119
Mof_H 	H 	0.0857	0.6374	0.4375	0.076
Mof_C 	C 	0.13214	0.67033	0.46138	0.02
Mof_H 	H 	0.1438	0.6784	0.437	0.04
Mof_C 	C 	0.07877	0.63307	0.57102	-0.026
Mof_H 	H 	0.089	0.6424	0.5956	0.04
Mof_C 	C 	0.0465	0.60756	0.57072	-0.085
Mof_H 	H 	0.035	0.5995	0.5951	0.06
Mof_C 	C 	0.03022	0.59315	0.534	0.044
Mof_C 	C 	0.0466	0.60536	0.49927	-0.132
Mof_H 	H 	0.0353	0.5964	0.475	0.08
Mof_C 	C 	0.99694	0.56358	0.53448	0.039
Mof_C 	C 	0.99603	0.5335	0.56394	-0.105
Mof_H 	H 	0.0156	0.5333	0.5842	0.068
Mof_O 	O 	0.30043	0.78179	0.53334	-0.404
Mof_O 	O 	0.3001	0.78198	0.46425	-0.414
Mof_C 	C 	0.31368	0.78943	0.49803	0.349
Mof_C 	C 	0.35146	0.81706	0.49906	-0.072
Mof_C 	C 	0.36763	0.8284	0.53285	-0.017
Mof_H 	H 	0.3562	0.8196	0.5571	0.055
Mof_C 	C 	0.4029	0.8544	0.53423	-0.02
Mof_C 	C 	0.41866	0.86797	0.49793	0.078
Mof_C 	C 	0.40237	0.85481	0.46181	-0.119
Mof_H 	H 	0.4143	0.8626	0.4375	0.076
Mof_C 	C 	0.36786	0.82967	0.46138	0.02
Mof_H 	H 	0.3562	0.8216	0.437	0.04
Mof_C 	C 	0.42123	0.86693	0.57102	-0.026
Mof_H 	H 	0.411	0.8576	0.5956	0.04
Mof_C 	C 	0.4535	0.89244	0.57072	-0.085
Mof_H 	H 	0.465	0.9005	0.5951	0.06
Mof_C 	C 	0.46978	0.90685	0.534	0.044
Mof_C 	C 	0.4534	0.89464	0.49927	-0.132
Mof_H 	H 	0.4647	0.9036	0.475	0.08
Mof_C 	C 	0.50306	0.93642	0.53448	0.039
Mof_C 	C 	0.50397	0.9665	0.56394	-0.105
Mof_H 	H 	0.4844	0.9667	0.5842	0.068
Mof_O 	O 	0.19957	0.78179	0.96666	-0.404
Mof_O 	O 	0.1999	0.78198	0.03575	-0.414
Mof_C 	C 	0.18632	0.78943	0.00197	0.349
Mof_C 	C 	0.14854	0.81706	0.00094	-0.072
Mof_C 	C 	0.13237	0.8284	0.96715	-0.017
Mof_H 	H 	0.1438	0.8196	0.9429	0.055
Mof_C 	C 	0.0971	0.8544	0.96577	-0.02
Mof_C 	C 	0.08134	0.86797	0.00207	0.078
Mof_C 	C 	0.09763	0.85481	0.03819	-0.119
Mof_H 	H 	0.0857	0.8626	0.0625	0.076
Mof_C 	C 	0.13214	0.82967	0.03862	0.02
Mof_H 	H 	0.1438	0.8216	0.063	0.04
Mof_C 	C 	0.07877	0.86693	0.92898	-0.026
Mof_H 	H 	0.089	0.8576	0.9044	0.04
Mof_C 	C 	0.0465	0.89244	0.92928	-0.085
Mof_H 	H 	0.035	0.9005	0.9049	0.06
Mof_C 	C 	0.03022	0.90685	0.966	0.044
Mof_C 	C 	0.0466	0.89464	0.00073	-0.132
Mof_H 	H 	0.0353	0.9036	0.025	0.08
Mof_C 	C 	0.99694	0.93642	0.96552	0.039
Mof_C 	C 	0.99603	0.9665	0.93606	-0.105
Mof_H 	H 	0.0156	0.9667	0.9158	0.068
Mof_O 	O 	0.69957	0.03334	0.21821	-0.404
Mof_O 	O 	0.6999	0.96425	0.21802	-0.414
Mof_C 	C 	0.68632	0.99803	0.21057	0.349
Mof_C 	C 	0.64854	0.99906	0.18294	-0.072
Mof_C 	C 	0.63237	0.03285	0.1716	-0.017
Mof_H 	H 	0.6438	0.0571	0.1804	0.055
Mof_C 	C 	0.5971	0.03423	0.1456	-0.02
Mof_C 	C 	0.58134	0.99793	0.13203	0.078
Mof_C 	C 	0.59763	0.96181	0.14519	-0.119
Mof_H 	H 	0.5857	0.9375	0.1374	0.076
Mof_C 	C 	0.63214	0.96138	0.17033	0.02
Mof_H 	H 	0.6438	0.937	0.1784	0.04
Mof_C 	C 	0.57877	0.07102	0.13307	-0.026
Mof_H 	H 	0.589	0.0956	0.1424	0.04
Mof_C 	C 	0.5465	0.07072	0.10756	-0.085
Mof_H 	H 	0.535	0.0951	0.0995	0.06
Mof_C 	C 	0.53022	0.034	0.09315	0.044
Mof_C 	C 	0.5466	0.99927	0.10536	-0.132
Mof_H 	H 	0.5353	0.975	0.0964	0.08
Mof_C 	C 	0.49694	0.03448	0.06358	0.038
Mof_C 	C 	0.49603	0.06394	0.0335	-0.105
Mof_H 	H 	0.5156	0.0842	0.0333	0.068
Mof_O 	O 	0.80043	0.46666	0.21821	-0.404
Mof_O 	O 	0.8001	0.53575	0.21802	-0.414
Mof_C 	C 	0.81368	0.50197	0.21057	0.349
Mof_C 	C 	0.85146	0.50094	0.18294	-0.072
Mof_C 	C 	0.86763	0.46715	0.1716	-0.017
Mof_H 	H 	0.8562	0.4429	0.1804	0.055
Mof_C 	C 	0.9029	0.46577	0.1456	-0.02
Mof_C 	C 	0.91866	0.50207	0.13203	0.078
Mof_C 	C 	0.90237	0.53819	0.14519	-0.119
Mof_H 	H 	0.9143	0.5625	0.1374	0.076
Mof_C 	C 	0.86786	0.53862	0.17033	0.02
Mof_H 	H 	0.8562	0.563	0.1784	0.04
Mof_C 	C 	0.92123	0.42898	0.13307	-0.026
Mof_H 	H 	0.911	0.4044	0.1424	0.04
Mof_C 	C 	0.9535	0.42928	0.10756	-0.085
Mof_H 	H 	0.965	0.4049	0.0995	0.06
Mof_C 	C 	0.96978	0.466	0.09315	0.044
Mof_C 	C 	0.9534	0.50073	0.10536	-0.132
Mof_H 	H 	0.9647	0.525	0.0964	0.08
Mof_C 	C 	0.00306	0.46552	0.06358	0.039
Mof_C 	C 	0.00397	0.43606	0.0335	-0.105
Mof_H 	H 	0.9844	0.4158	0.0333	0.068
Mof_O 	O 	0.69957	0.46666	0.28179	-0.404
Mof_O 	O 	0.6999	0.53575	0.28198	-0.414
Mof_C 	C 	0.68632	0.50197	0.28943	0.349
Mof_C 	C 	0.64854	0.50094	0.31706	-0.072
Mof_C 	C 	0.63237	0.46715	0.3284	-0.017
Mof_H 	H 	0.6438	0.4429	0.3196	0.055
Mof_C 	C 	0.5971	0.46577	0.3544	-0.02
Mof_C 	C 	0.58134	0.50207	0.36797	0.078
Mof_C 	C 	0.59763	0.53819	0.35481	-0.119
Mof_H 	H 	0.5857	0.5625	0.3626	0.076
Mof_C 	C 	0.63214	0.53862	0.32967	0.02
Mof_H 	H 	0.6438	0.563	0.3216	0.04
Mof_C 	C 	0.57877	0.42898	0.36693	-0.026
Mof_H 	H 	0.589	0.4044	0.3576	0.04
Mof_C 	C 	0.5465	0.42928	0.39244	-0.085
Mof_H 	H 	0.535	0.4049	0.4005	0.06
Mof_C 	C 	0.53022	0.466	0.40685	0.044
Mof_C 	C 	0.5466	0.50073	0.39464	-0.132
Mof_H 	H 	0.5353	0.525	0.4036	0.08
Mof_C 	C 	0.49694	0.46552	0.43642	0.039
Mof_C 	C 	0.49603	0.43606	0.4665	-0.105
Mof_H 	H 	0.5156	0.4158	0.4667	0.068
Mof_O 	O 	0.80043	0.03334	0.28179	-0.404
Mof_O 	O 	0.8001	0.96425	0.28198	-0.414
Mof_C 	C 	0.81368	0.99803	0.28943	0.349
Mof_C 	C 	0.85146	0.99906	0.31706	-0.072
Mof_C 	C 	0.86763	0.03285	0.3284	-0.017
Mof_H 	H 	0.8562	0.0571	0.3196	0.055
Mof_C 	C 	0.9029	0.03423	0.3544	-0.02
Mof_C 	C 	0.91866	0.99793	0.36797	0.078
Mof_C 	C 	0.90237	0.96181	0.35481	-0.119
Mof_H 	H 	0.9143	0.9375	0.3626	0.076
Mof_C 	C 	0.86786	0.96138	0.32967	0.02
Mof_H 	H 	0.8562	0.937	0.3216	0.04
Mof_C 	C 	0.92123	0.07102	0.36693	-0.026
Mof_H 	H 	0.911	0.0956	0.3576	0.04
Mof_C 	C 	0.9535	0.07072	0.39244	-0.085
Mof_H 	H 	0.965	0.0951	0.4005	0.06
Mof_C 	C 	0.96978	0.034	0.40685	0.044
Mof_C 	C 	0.9534	0.99927	0.39464	-0.132
Mof_H 	H 	0.9647	0.975	0.4036	0.08
Mof_C 	C 	0.00306	0.03448	0.43642	0.039
Mof_C 	C 	0.00397	0.06394	0.4665	-0.105
Mof_H 	H 	0.9844	0.0842	0.4667	0.068
Mof_O 	O 	0.03334	0.28179	0.80043	-0.404
Mof_O 	O 	0.96425	0.28198	0.8001	-0.414
Mof_C 	C 	0.99803	0.28943	0.81368	0.349
Mof_C 	C 	0.99906	0.31706	0.85146	-0.072
Mof_C 	C 	0.03285	0.3284	0.86763	-0.017
Mof_H 	H 	0.0571	0.3196	0.8562	0.055
Mof_C 	C 	0.03423	0.3544	0.9029	-0.02
Mof_C 	C 	0.99793	0.36797	0.91866	0.078
Mof_C 	C 	0.96181	0.35481	0.90237	-0.119
Mof_H 	H 	0.9375	0.3626	0.9143	0.076
Mof_C 	C 	0.96138	0.32967	0.86786	0.02
Mof_H 	H 	0.937	0.3216	0.8562	0.04
Mof_C 	C 	0.07102	0.36693	0.92123	-0.026
Mof_H 	H 	0.0956	0.3576	0.911	0.04
Mof_C 	C 	0.07072	0.39244	0.9535	-0.085
Mof_H 	H 	0.0951	0.4005	0.965	0.06
Mof_C 	C 	0.034	0.40685	0.96978	0.044
Mof_C 	C 	0.99927	0.39464	0.9534	-0.132
Mof_H 	H 	0.975	0.4036	0.9647	0.08
Mof_C 	C 	0.03448	0.43642	0.00306	0.039
Mof_C 	C 	0.06394	0.4665	0.00397	-0.105
Mof_H 	H 	0.0842	0.4667	0.9844	0.068
Mof_O 	O 	0.46666	0.28179	0.69957	-0.404
Mof_O 	O 	0.53575	0.28198	0.6999	-0.414
Mof_C 	C 	0.50197	0.28943	0.68632	0.349
Mof_C 	C 	0.50094	0.31706	0.64854	-0.072
Mof_C 	C 	0.46715	0.3284	0.63237	-0.017
Mof_H 	H 	0.4429	0.3196	0.6438	0.055
Mof_C 	C 	0.46577	0.3544	0.5971	-0.02
Mof_C 	C 	0.50207	0.36797	0.58134	0.078
Mof_C 	C 	0.53819	0.35481	0.59763	-0.119
Mof_H 	H 	0.5625	0.3626	0.5857	0.076
Mof_C 	C 	0.53862	0.32967	0.63214	0.02
Mof_H 	H 	0.563	0.3216	0.6438	0.04
Mof_C 	C 	0.42898	0.36693	0.57877	-0.026
Mof_H 	H 	0.4044	0.3576	0.589	0.04
Mof_C 	C 	0.42928	0.39244	0.5465	-0.085
Mof_H 	H 	0.4049	0.4005	0.535	0.06
Mof_C 	C 	0.466	0.40685	0.53022	0.044
Mof_C 	C 	0.50073	0.39464	0.5466	-0.132
Mof_H 	H 	0.525	0.4036	0.5353	0.08
Mof_C 	C 	0.46552	0.43642	0.49694	0.039
Mof_C 	C 	0.43606	0.4665	0.49603	-0.105
Mof_H 	H 	0.4158	0.4667	0.5156	0.068
Mof_O 	O 	0.46666	0.21821	0.80043	-0.404
Mof_O 	O 	0.53575	0.21802	0.8001	-0.414
Mof_C 	C 	0.50197	0.21057	0.81368	0.349
Mof_C 	C 	0.50094	0.18294	0.85146	-0.072
Mof_C 	C 	0.46715	0.1716	0.86763	-0.017
Mof_H 	H 	0.4429	0.1804	0.8562	0.055
Mof_C 	C 	0.46577	0.1456	0.9029	-0.02
Mof_C 	C 	0.50207	0.13203	0.91866	0.078
Mof_C 	C 	0.53819	0.14519	0.90237	-0.119
Mof_H 	H 	0.5625	0.1374	0.9143	0.076
Mof_C 	C 	0.53862	0.17033	0.86786	0.02
Mof_H 	H 	0.563	0.1784	0.8562	0.04
Mof_C 	C 	0.42898	0.13307	0.92123	-0.026
Mof_H 	H 	0.4044	0.1424	0.911	0.04
Mof_C 	C 	0.42928	0.10756	0.9535	-0.085
Mof_H 	H 	0.4049	0.0995	0.965	0.06
Mof_C 	C 	0.466	0.09315	0.96978	0.044
Mof_C 	C 	0.50073	0.10536	0.9534	-0.132
Mof_H 	H 	0.525	0.0964	0.9647	0.08
Mof_C 	C 	0.46552	0.06358	0.00306	0.039
Mof_C 	C 	0.43606	0.0335	0.00397	-0.105
Mof_H 	H 	0.4158	0.0333	0.9844	0.068
Mof_O 	O 	0.03334	0.21821	0.69957	-0.404
Mof_O 	O 	0.96425	0.21802	0.6999	-0.414
Mof_C 	C 	0.99803	0.21057	0.68632	0.349
Mof_C 	C 	0.99906	0.18294	0.64854	-0.072
Mof_C 	C 	0.03285	0.1716	0.63237	-0.017
Mof_H 	H 	0.0571	0.1804	0.6438	0.055
Mof_C 	C 	0.03423	0.1456	0.5971	-0.02
Mof_C 	C 	0.99793	0.13203	0.58134	0.078
Mof_C 	C 	0.96181	0.14519	0.59763	-0.119
Mof_H 	H 	0.9375	0.1374	0.5857	0.076
Mof_C 	C 	0.96138	0.17033	0.63214	0.02
Mof_H 	H 	0.937	0.1784	0.6438	0.04
Mof_C 	C 	0.07102	0.13307	0.57877	-0.026
Mof_H 	H 	0.0956	0.1424	0.589	0.04
Mof_C 	C 	0.07072	0.10756	0.5465	-0.085
Mof_H 	H 	0.0951	0.0995	0.535	0.06
Mof_C 	C 	0.034	0.09315	0.53022	0.044
Mof_C 	C 	0.99927	0.10536	0.5466	-0.132
Mof_H 	H 	0.975	0.0964	0.5353	0.08
Mof_C 	C 	0.03448	0.06358	0.49694	0.038
Mof_C 	C 	0.06394	0.0335	0.49603	-0.105
Mof_H 	H 	0.0842	0.0333	0.5156	0.068
Mof_O 	O 	0.28179	0.69957	0.46666	-0.404
Mof_O 	O 	0.28198	0.6999	0.53575	-0.414
Mof_C 	C 	0.28943	0.68632	0.50197	0.349
Mof_C 	C 	0.31706	0.64854	0.50094	-0.072
Mof_C 	C 	0.3284	0.63237	0.46715	-0.017
Mof_H 	H 	0.3196	0.6438	0.4429	0.055
Mof_C 	C 	0.3544	0.5971	0.46577	-0.02
Mof_C 	C 	0.36797	0.58134	0.50207	0.078
Mof_C 	C 	0.35481	0.59763	0.53819	-0.119
Mof_H 	H 	0.3626	0.5857	0.5625	0.076
Mof_C 	C 	0.32967	0.63214	0.53862	0.02
Mof_H 	H 	0.3216	0.6438	0.563	0.04
Mof_C 	C 	0.36693	0.57877	0.42898	-0.026
Mof_H 	H 	0.3576	0.589	0.4044	0.04
Mof_C 	C 	0.39244	0.5465	0.42928	-0.085
Mof_H 	H 	0.4005	0.535	0.4049	0.06
Mof_C 	C 	0.40685	0.53022	0.466	0.044
Mof_C 	C 	0.39464	0.5466	0.50073	-0.132
Mof_H 	H 	0.4036	0.5353	0.525	0.08
Mof_C 	C 	0.43642	0.49694	0.46552	0.039
Mof_C 	C 	0.4665	0.49603	0.43606	-0.105
Mof_H 	H 	0.4667	0.5156	0.4158	0.068
Mof_O 	O 	0.28179	0.80043	0.03334	-0.404
Mof_O 	O 	0.28198	0.8001	0.96425	-0.414
Mof_C 	C 	0.28943	0.81368	0.99803	0.349
Mof_C 	C 	0.31706	0.85146	0.99906	-0.072
Mof_C 	C 	0.3284	0.86763	0.03285	-0.017
Mof_H 	H 	0.3196	0.8562	0.0571	0.055
Mof_C 	C 	0.3544	0.9029	0.03423	-0.02
Mof_C 	C 	0.36797	0.91866	0.99793	0.078
Mof_C 	C 	0.35481	0.90237	0.96181	-0.119
Mof_H 	H 	0.3626	0.9143	0.9375	0.076
Mof_C 	C 	0.32967	0.86786	0.96138	0.02
Mof_H 	H 	0.3216	0.8562	0.937	0.04
Mof_C 	C 	0.36693	0.92123	0.07102	-0.026
Mof_H 	H 	0.3576	0.911	0.0956	0.04
Mof_C 	C 	0.39244	0.9535	0.07072	-0.085
Mof_H 	H 	0.4005	0.965	0.0951	0.06
Mof_C 	C 	0.40685	0.96978	0.034	0.044
Mof_C 	C 	0.39464	0.9534	0.99927	-0.132
Mof_H 	H 	0.4036	0.9647	0.975	0.08
Mof_C 	C 	0.43642	0.00306	0.03448	0.039
Mof_C 	C 	0.4665	0.00397	0.06394	-0.105
Mof_H 	H 	0.4667	0.9844	0.0842	0.068
Mof_O 	O 	0.21821	0.69957	0.03334	-0.404
Mof_O 	O 	0.21802	0.6999	0.96425	-0.414
Mof_C 	C 	0.21057	0.68632	0.99803	0.349
Mof_C 	C 	0.18294	0.64854	0.99906	-0.072
Mof_C 	C 	0.1716	0.63237	0.03285	-0.017
Mof_H 	H 	0.1804	0.6438	0.0571	0.055
Mof_C 	C 	0.1456	0.5971	0.03423	-0.02
Mof_C 	C 	0.13203	0.58134	0.99793	0.078
Mof_C 	C 	0.14519	0.59763	0.96181	-0.119
Mof_H 	H 	0.1374	0.5857	0.9375	0.076
Mof_C 	C 	0.17033	0.63214	0.96138	0.02
Mof_H 	H 	0.1784	0.6438	0.937	0.04
Mof_C 	C 	0.13307	0.57877	0.07102	-0.026
Mof_H 	H 	0.1424	0.589	0.0956	0.04
Mof_C 	C 	0.10756	0.5465	0.07072	-0.085
Mof_H 	H 	0.0995	0.535	0.0951	0.06
Mof_C 	C 	0.09315	0.53022	0.034	0.044
Mof_C 	C 	0.10536	0.5466	0.99927	-0.132
Mof_H 	H 	0.0964	0.5353	0.975	0.08
Mof_C 	C 	0.06358	0.49694	0.03448	0.038
Mof_C 	C 	0.0335	0.49603	0.06394	-0.105
Mof_H 	H 	0.0333	0.5156	0.0842	0.068
Mof_O 	O 	0.21821	0.80043	0.46666	-0.404
Mof_O 	O 	0.21802	0.8001	0.53575	-0.414
Mof_C 	C 	0.21057	0.81368	0.50197	0.349
Mof_C 	C 	0.18294	0.85146	0.50094	-0.072
Mof_C 	C 	0.1716	0.86763	0.46715	-0.017
Mof_H 	H 	0.1804	0.8562	0.4429	0.055
Mof_C 	C 	0.1456	0.9029	0.46577	-0.02
Mof_C 	C 	0.13203	0.91866	0.50207	0.078
Mof_C 	C 	0.14519	0.90237	0.53819	-0.119
Mof_H 	H 	0.1374	0.9143	0.5625	0.076
Mof_C 	C 	0.17033	0.86786	0.53862	0.02
Mof_H 	H 	0.1784	0.8562	0.563	0.04
Mof_C 	C 	0.13307	0.92123	0.42898	-0.026
Mof_H 	H 	0.1424	0.911	0.4044	0.04
Mof_C 	C 	0.10756	0.9535	0.42928	-0.085
Mof_H 	H 	0.0995	0.965	0.4049	0.06
Mof_C 	C 	0.09315	0.96978	0.466	0.044
Mof_C 	C 	0.10536	0.9534	0.50073	-0.132
Mof_H 	H 	0.0964	0.9647	0.525	0.08
Mof_C 	C 	0.06358	0.00306	0.46552	0.039
Mof_C 	C 	0.0335	0.00397	0.43606	-0.105
Mof_H 	H 	0.0333	0.9844	0.4158	0.068
Mof_Cu	Cu	0.96026	0.25	0.75	0.897
Mof_Cu	Cu	0.53974	0.25	0.75	0.897
Mof_Cu	Cu	0.75	0.96026	0.25	0.897
Mof_Cu	Cu	0.75	0.53974	0.25	0.897
Mof_Cu	Cu	0.25	0.75	0.96026	0.897
Mof_Cu	Cu	0.25	0.75	0.53974	0.897
Mof_Cu	Cu	0.75	0.03974	0.25	0.897
Mof_Cu	Cu	0.75	0.46026	0.25	0.897
Mof_Cu	Cu	0.03974	0.25	0.75	0.897
Mof_Cu	Cu	0.46026	0.25	0.75	0.897
Mof_Cu	Cu	0.25	0.75	0.46026	0.897
Mof_Cu	Cu	0.25	0.75	0.03974	0.897
Mof_O 	O 	0.30043	0.96666	0.78179	-0.404
Mof_O 	O 	0.3001	0.03575	0.78198	-0.414
Mof_C 	C 	0.31368	0.00197	0.78943	0.349
Mof_C 	C 	0.35146	0.00094	0.81706	-0.072
Mof_C 	C 	0.36763	0.96715	0.8284	-0.017
Mof_H 	H 	0.3562	0.9429	0.8196	0.055
Mof_C 	C 	0.4029	0.96577	0.8544	-0.02
Mof_C 	C 	0.41866	0.00207	0.86797	0.078
Mof_C 	C 	0.40237	0.03819	0.85481	-0.119
Mof_H 	H 	0.4143	0.0625	0.8626	0.076
Mof_C 	C 	0.36786	0.03862	0.82967	0.02
Mof_H 	H 	0.3562	0.063	0.8216	0.04
Mof_C 	C 	0.42123	0.92898	0.86693	-0.026
Mof_H 	H 	0.411	0.9044	0.8576	0.04
Mof_C 	C 	0.4535	0.92928	0.89244	-0.085
Mof_H 	H 	0.465	0.9049	0.9005	0.06
Mof_C 	C 	0.46978	0.966	0.90685	0.044
Mof_C 	C 	0.4534	0.00073	0.89464	-0.132
Mof_H 	H 	0.4647	0.025	0.9036	0.08
Mof_C 	C 	0.50306	0.96552	0.93642	0.038
Mof_C 	C 	0.50397	0.93606	0.9665	-0.105
Mof_H 	H 	0.4844	0.9158	0.9667	0.068
Mof_O 	O 	0.19957	0.53334	0.78179	-0.404
Mof_O 	O 	0.1999	0.46425	0.78198	-0.414
Mof_C 	C 	0.18632	0.49803	0.78943	0.349
Mof_C 	C 	0.14854	0.49906	0.81706	-0.072
Mof_C 	C 	0.13237	0.53285	0.8284	-0.017
Mof_H 	H 	0.1438	0.5571	0.8196	0.055
Mof_C 	C 	0.0971	0.53423	0.8544	-0.02
Mof_C 	C 	0.08134	0.49793	0.86797	0.078
Mof_C 	C 	0.09763	0.46181	0.85481	-0.119
Mof_H 	H 	0.0857	0.4375	0.8626	0.076
Mof_C 	C 	0.13214	0.46138	0.82967	0.02
Mof_H 	H 	0.1438	0.437	0.8216	0.04
Mof_C 	C 	0.07877	0.57102	0.86693	-0.026
Mof_H 	H 	0.089	0.5956	0.8576	0.04
Mof_C 	C 	0.0465	0.57072	0.89244	-0.085
Mof_H 	H 	0.035	0.5951	0.9005	0.06
Mof_C 	C 	0.03022	0.534	0.90685	0.044
Mof_C 	C 	0.0466	0.49927	0.89464	-0.132
Mof_H 	H 	0.0353	0.475	0.9036	0.08
Mof_C 	C 	0.99694	0.53448	0.93642	0.039
Mof_C 	C 	0.99603	0.56394	0.9665	-0.105
Mof_H 	H 	0.0156	0.5842	0.9667	0.068
Mof_O 	O 	0.30043	0.53334	0.71821	-0.404
Mof_O 	O 	0.3001	0.46425	0.71802	-0.414
Mof_C 	C 	0.31368	0.49803	0.71057	0.349
Mof_C 	C 	0.35146	0.49906	0.68294	-0.072
Mof_C 	C 	0.36763	0.53285	0.6716	-0.017
Mof_H 	H 	0.3562	0.5571	0.6804	0.055
Mof_C 	C 	0.4029	0.53423	0.6456	-0.02
Mof_C 	C 	0.41866	0.49793	0.63203	0.078
Mof_C 	C 	0.40237	0.46181	0.64519	-0.119
Mof_H 	H 	0.4143	0.4375	0.6374	0.076
Mof_C 	C 	0.36786	0.46138	0.67033	0.02
Mof_H 	H 	0.3562	0.437	0.6784	0.04
Mof_C 	C 	0.42123	0.57102	0.63307	-0.026
Mof_H 	H 	0.411	0.5956	0.6424	0.04
Mof_C 	C 	0.4535	0.57072	0.60756	-0.085
Mof_H 	H 	0.465	0.5951	0.5995	0.06
Mof_C 	C 	0.46978	0.534	0.59315	0.044
Mof_C 	C 	0.4534	0.49927	0.60536	-0.132
Mof_H 	H 	0.4647	0.475	0.5964	0.08
Mof_C 	C 	0.50306	0.53448	0.56358	0.039
Mof_C 	C 	0.50397	0.56394	0.5335	-0.105
Mof_H 	H 	0.4844	0.5842	0.5333	0.068
Mof_O 	O 	0.19957	0.96666	0.71821	-0.404
Mof_O 	O 	0.1999	0.03575	0.71802	-0.414
Mof_C 	C 	0.18632	0.00197	0.71057	0.349
Mof_C 	C 	0.14854	0.00094	0.68294	-0.072
Mof_C 	C 	0.13237	0.96715	0.6716	-0.017
Mof_H 	H 	0.1438	0.9429	0.6804	0.055
Mof_C 	C 	0.0971	0.96577	0.6456	-0.02
Mof_C 	C 	0.08134	0.00207	0.63203	0.078
Mof_C 	C 	0.09763	0.03819	0.64519	-0.119
Mof_H 	H 	0.0857	0.0625	0.6374	0.076
Mof_C 	C 	0.13214	0.03862	0.67033	0.02
Mof_H 	H 	0.1438	0.063	0.6784	0.04
Mof_C 	C 	0.07877	0.92898	0.63307	-0.026
Mof_H 	H 	0.089	0.9044	0.6424	0.04
Mof_C 	C 	0.0465	0.92928	0.60756	-0.085
Mof_H 	H 	0.035	0.9049	0.5995	0.06
Mof_C 	C 	0.03022	0.966	0.59315	0.044
Mof_C 	C 	0.0466	0.00073	0.60536	-0.132
Mof_H 	H 	0.0353	0.025	0.5964	0.08
Mof_C 	C 	0.99694	0.96552	0.56358	0.039
Mof_C 	C 	0.99603	0.93606	0.5335	-0.105
Mof_H 	H 	0.0156	0.9158	0.5333	0.068
Mof_O 	O 	0.96666	0.71821	0.19957	-0.404
Mof_O 	O 	0.03575	0.71802	0.1999	-0.414
Mof_C 	C 	0.00197	0.71057	0.18632	0.349
Mof_C 	C 	0.00094	0.68294	0.14854	-0.072
Mof_C 	C 	0.96715	0.6716	0.13237	-0.017
Mof_H 	H 	0.9429	0.6804	0.1438	0.055
Mof_C 	C 	0.96577	0.6456	0.0971	-0.02
Mof_C 	C 	0.00207	0.63203	0.08134	0.078
Mof_C 	C 	0.03819	0.64519	0.09763	-0.119
Mof_H 	H 	0.0625	0.6374	0.0857	0.076
Mof_C 	C 	0.03862	0.67033	0.13214	0.02
Mof_H 	H 	0.063	0.6784	0.1438	0.04
Mof_C 	C 	0.92898	0.63307	0.07877	-0.026
Mof_H 	H 	0.9044	0.6424	0.089	0.04
Mof_C 	C 	0.92928	0.60756	0.0465	-0.085
Mof_H 	H 	0.9049	0.5995	0.035	0.06
Mof_C 	C 	0.966	0.59315	0.03022	0.044
Mof_C 	C 	0.00073	0.60536	0.0466	-0.132
Mof_H 	H 	0.025	0.5964	0.0353	0.08
Mof_C 	C 	0.96552	0.56358	0.99694	0.039
Mof_C 	C 	0.93606	0.5335	0.99603	-0.105
Mof_H 	H 	0.9158	0.5333	0.0156	0.068
Mof_O 	O 	0.53334	0.71821	0.30043	-0.404
Mof_O 	O 	0.46425	0.71802	0.3001	-0.414
Mof_C 	C 	0.49803	0.71057	0.31368	0.349
Mof_C 	C 	0.49906	0.68294	0.35146	-0.072
Mof_C 	C 	0.53285	0.6716	0.36763	-0.017
Mof_H 	H 	0.5571	0.6804	0.3562	0.055
Mof_C 	C 	0.53423	0.6456	0.4029	-0.02
Mof_C 	C 	0.49793	0.63203	0.41866	0.078
Mof_C 	C 	0.46181	0.64519	0.40237	-0.119
Mof_H 	H 	0.4375	0.6374	0.4143	0.076
Mof_C 	C 	0.46138	0.67033	0.36786	0.02
Mof_H 	H 	0.437	0.6784	0.3562	0.04
Mof_C 	C 	0.57102	0.63307	0.42123	-0.026
Mof_H 	H 	0.5956	0.6424	0.411	0.04
Mof_C 	C 	0.57072	0.60756	0.4535	-0.085
Mof_H 	H 	0.5951	0.5995	0.465	0.06
Mof_C 	C 	0.534	0.59315	0.46978	0.044
Mof_C 	C 	0.49927	0.60536	0.4534	-0.132
Mof_H 	H 	0.475	0.5964	0.4647	0.08
Mof_C 	C 	0.53448	0.56358	0.50306	0.039
Mof_C 	C 	0.56394	0.5335	0.50397	-0.105
Mof_H 	H 	0.5842	0.5333	0.4844	0.068
Mof_O 	O 	0.53334	0.78179	0.19957	-0.404
Mof_O 	O 	0.46425	0.78198	0.1999	-0.414
Mof_C 	C 	0.49803	0.78943	0.18632	0.349
Mof_C 	C 	0.49906	0.81706	0.14854	-0.072
Mof_C 	C 	0.53285	0.8284	0.13237	-0.017
Mof_H 	H 	0.5571	0.8196	0.1438	0.055
Mof_C 	C 	0.53423	0.8544	0.0971	-0.02
Mof_C 	C 	0.49793	0.86797	0.08134	0.078
Mof_C 	C 	0.46181	0.85481	0.09763	-0.119
Mof_H 	H 	0.4375	0.8626	0.0857	0.076
Mof_C 	C 	0.46138	0.82967	0.13214	0.02
Mof_H 	H 	0.437	0.8216	0.1438	0.04
Mof_C 	C 	0.57102	0.86693	0.07877	-0.026
Mof_H 	H 	0.5956	0.8576	0.089	0.04
Mof_C 	C 	0.57072	0.89244	0.0465	-0.085
Mof_H 	H 	0.5951	0.9005	0.035	0.06
Mof_C 	C 	0.534	0.90685	0.03022	0.044
Mof_C 	C 	0.49927	0.89464	0.0466	-0.132
Mof_H 	H 	0.475	0.9036	0.0353	0.08
Mof_C 	C 	0.53448	0.93642	0.99694	0.039
Mof_C 	C 	0.56394	0.9665	0.99603	-0.105
Mof_H 	H 	0.5842	0.9667	0.0156	0.068
Mof_O 	O 	0.96666	0.78179	0.30043	-0.404
Mof_O 	O 	0.03575	0.78198	0.3001	-0.414
Mof_C 	C 	0.00197	0.78943	0.31368	0.349
Mof_C 	C 	0.00094	0.81706	0.35146	-0.072
Mof_C 	C 	0.96715	0.8284	0.36763	-0.017
Mof_H 	H 	0.9429	0.8196	0.3562	0.055
Mof_C 	C 	0.96577	0.8544	0.4029	-0.02
Mof_C 	C 	0.00207	0.86797	0.41866	0.078
Mof_C 	C 	0.03819	0.85481	0.40237	-0.119
Mof_H 	H 	0.0625	0.8626	0.4143	0.076
Mof_C 	C 	0.03862	0.82967	0.36786	0.02
Mof_H 	H 	0.063	0.8216	0.3562	0.04
Mof_C 	C 	0.92898	0.86693	0.42123	-0.026
Mof_H 	H 	0.9044	0.8576	0.411	0.04
Mof_C 	C 	0.92928	0.89244	0.4535	-0.085
Mof_H 	H 	0.9049	0.9005	0.465	0.06
Mof_C 	C 	0.966	0.90685	0.46978	0.044
Mof_C 	C 	0.00073	0.89464	0.4534	-0.132
Mof_H 	H 	0.025	0.9036	0.4647	0.08
Mof_C 	C 	0.96552	0.93642	0.50306	0.038
Mof_C 	C 	0.93606	0.9665	0.50397	-0.105
Mof_H 	H 	0.9158	0.9667	0.4844	0.068
Mof_O 	O 	0.71821	0.30043	0.53334	-0.404
Mof_O 	O 	0.71802	0.3001	0.46425	-0.414
Mof_C 	C 	0.71057	0.31368	0.49803	0.349
Mof_C 	C 	0.68294	0.35146	0.49906	-0.072
Mof_C 	C 	0.6716	0.36763	0.53285	-0.017
Mof_H 	H 	0.6804	0.3562	0.5571	0.055
Mof_C 	C 	0.6456	0.4029	0.53423	-0.02
Mof_C 	C 	0.63203	0.41866	0.49793	0.078
Mof_C 	C 	0.64519	0.40237	0.46181	-0.119
Mof_H 	H 	0.6374	0.4143	0.4375	0.076
Mof_C 	C 	0.67033	0.36786	0.46138	0.02
Mof_H 	H 	0.6784	0.3562	0.437	0.04
Mof_C 	C 	0.63307	0.42123	0.57102	-0.026
Mof_H 	H 	0.6424	0.411	0.5956	0.04
Mof_C 	C 	0.60756	0.4535	0.57072	-0.085
Mof_H 	H 	0.5995	0.465	0.5951	0.06
Mof_C 	C 	0.59315	0.46978	0.534	0.044
Mof_C 	C 	0.60536	0.4534	0.49927	-0.132
Mof_H 	H 	0.5964	0.4647	0.475	0.08
Mof_C 	C 	0.56358	0.50306	0.53448	0.039
Mof_C 	C 	0.5335	0.50397	0.56394	-0.105
Mof_H 	H 	0.5333	0.4844	0.5842	0.068
Mof_O 	O 	0.71821	0.19957	0.96666	-0.404
Mof_O 	O 	0.71802	0.1999	0.03575	-0.414
Mof_C 	C 	0.71057	0.18632	0.00197	0.349
Mof_C 	C 	0.68294	0.14854	0.00094	-0.072
Mof_C 	C 	0.6716	0.13237	0.96715	-0.017
Mof_H 	H 	0.6804	0.1438	0.9429	0.055
Mof_C 	C 	0.6456	0.0971	0.96577	-0.02
Mof_C 	C 	0.63203	0.08134	0.00207	0.078
Mof_C 	C 	0.64519	0.09763	0.03819	-0.119
Mof_H 	H 	0.6374	0.0857	0.0625	0.076
Mof_C 	C 	0.67033	0.13214	0.03862	0.02
Mof_H 	H 	0.6784	0.1438	0.063	0.04
Mof_C 	C 	0.63307	0.07877	0.92898	-0.026
Mof_H 	H 	0.6424	0.089	0.9044	0.04
Mof_C 	C 	0.60756	0.0465	0.92928	-0.085
Mof_H 	H 	0.5995	0.035	0.9049	0.06
Mof_C 	C 	0.59315	0.03022	0.966	0.044
Mof_C 	C 	0.60536	0.0466	0.00073	-0.132
Mof_H 	H 	0.5964	0.0353	0.025	0.08
Mof_C 	C 	0.56358	0.99694	0.96552	0.039
Mof_C 	C 	0.5335	0.99603	0.93606	-0.105
Mof_H 	H 	0.5333	0.0156	0.9158	0.068
Mof_O 	O 	0.78179	0.30043	0.96666	-0.404
Mof_O 	O 	0.78198	0.3001	0.03575	-0.414
Mof_C 	C 	0.78943	0.31368	0.00197	0.349
Mof_C 	C 	0.81706	0.35146	0.00094	-0.072
Mof_C 	C 	0.8284	0.36763	0.96715	-0.017
Mof_H 	H 	0.8196	0.3562	0.9429	0.055
Mof_C 	C 	0.8544	0.4029	0.96577	-0.02
Mof_C 	C 	0.86797	0.41866	0.00207	0.078
Mof_C 	C 	0.85481	0.40237	0.03819	-0.119
Mof_H 	H 	0.8626	0.4143	0.0625	0.076
Mof_C 	C 	0.82967	0.36786	0.03862	0.02
Mof_H 	H 	0.8216	0.3562	0.063	0.04
Mof_C 	C 	0.86693	0.42123	0.92898	-0.026
Mof_H 	H 	0.8576	0.411	0.9044	0.04
Mof_C 	C 	0.89244	0.4535	0.92928	-0.085
Mof_H 	H 	0.9005	0.465	0.9049	0.06
Mof_C 	C 	0.90685	0.46978	0.966	0.044
Mof_C 	C 	0.89464	0.4534	0.00073	-0.132
Mof_H 	H 	0.9036	0.4647	0.025	0.08
Mof_C 	C 	0.93642	0.50306	0.96552	0.038
Mof_C 	C 	0.9665	0.50397	0.93606	-0.105
Mof_H 	H 	0.9667	0.4844	0.9158	0.068
Mof_O 	O 	0.78179	0.19957	0.53334	-0.404
Mof_O 	O 	0.78198	0.1999	0.46425	-0.414
Mof_C 	C 	0.78943	0.18632	0.49803	0.349
Mof_C 	C 	0.81706	0.14854	0.49906	-0.072
Mof_C 	C 	0.8284	0.13237	0.53285	-0.017
Mof_H 	H 	0.8196	0.1438	0.5571	0.055
Mof_C 	C 	0.8544	0.0971	0.53423	-0.02
Mof_C 	C 	0.86797	0.08134	0.49793	0.078
Mof_C 	C 	0.85481	0.09763	0.46181	-0.119
Mof_H 	H 	0.8626	0.0857	0.4375	0.076
Mof_C 	C 	0.82967	0.13214	0.46138	0.02
Mof_H 	H 	0.8216	0.1438	0.437	0.04
Mof_C 	C 	0.86693	0.07877	0.57102	-0.026
Mof_H 	H 	0.8576	0.089	0.5956	0.04
Mof_C 	C 	0.89244	0.0465	0.57072	-0.085
Mof_H 	H 	0.9005	0.035	0.5951	0.06
Mof_C 	C 	0.90685	0.03022	0.534	0.044
Mof_C 	C 	0.89464	0.0466	0.49927	-0.132
Mof_H 	H 	0.9036	0.0353	0.475	0.08
Mof_C 	C 	0.93642	0.99694	0.53448	0.039
Mof_C 	C 	0.9665	0.99603	0.56394	-0.105
Mof_H 	H 	0.9667	0.0156	0.5842	0.068
Mof_O 	O 	0.03334	0.69957	0.28179	-0.404
Mof_O 	O 	0.96425	0.6999	0.28198	-0.414
Mof_C 	C 	0.99803	0.68632	0.28943	0.349
Mof_C 	C 	0.99906	0.64854	0.31706	-0.072
Mof_C 	C 	0.03285	0.63237	0.3284	-0.017
Mof_H 	H 	0.0571	0.6438	0.3196	0.055
Mof_C 	C 	0.03423	0.5971	0.3544	-0.02
Mof_C 	C 	0.99793	0.58134	0.36797	0.078
Mof_C 	C 	0.96181	0.59763	0.35481	-0.119
Mof_H 	H 	0.9375	0.5857	0.3626	0.076
Mof_C 	C 	0.96138	0.63214	0.32967	0.02
Mof_H 	H 	0.937	0.6438	0.3216	0.04
Mof_C 	C 	0.07102	0.57877	0.36693	-0.026
Mof_H 	H 	0.0956	0.589	0.3576	0.04
Mof_C 	C 	0.07072	0.5465	0.39244	-0.085
Mof_H 	H 	0.0951	0.535	0.4005	0.06
Mof_C 	C 	0.034	0.53022	0.40685	0.044
Mof_C 	C 	0.99927	0.5466	0.39464	-0.132
Mof_H 	H 	0.975	0.5353	0.4036	0.08
Mof_C 	C 	0.03448	0.49694	0.43642	0.039
Mof_C 	C 	0.06394	0.49603	0.4665	-0.105
Mof_H 	H 	0.0842	0.5156	0.4667	0.068
Mof_O 	O 	0.46666	0.80043	0.28179	-0.404
Mof_O 	O 	0.53575	0.8001	0.28198	-0.414
Mof_C 	C 	0.50197	0.81368	0.28943	0.349
Mof_C 	C 	0.50094	0.85146	0.31706	-0.072
Mof_C 	C 	0.46715	0.86763	0.3284	-0.017
Mof_H 	H 	0.4429	0.8562	0.3196	0.055
Mof_C 	C 	0.46577	0.9029	0.3544	-0.02
Mof_C 	C 	0.50207	0.91866	0.36797	0.078
Mof_C 	C 	0.53819	0.90237	0.35481	-0.119
Mof_H 	H 	0.5625	0.9143	0.3626	0.076
Mof_C 	C 	0.53862	0.86786	0.32967	0.02
Mof_H 	H 	0.563	0.8562	0.3216	0.04
Mof_C 	C 	0.42898	0.92123	0.36693	-0.026
Mof_H 	H 	0.4044	0.911	0.3576	0.04
Mof_C 	C 	0.42928	0.9535	0.39244	-0.085
Mof_H 	H 	0.4049	0.965	0.4005	0.06
Mof_C 	C 	0.466	0.96978	0.40685	0.044
Mof_C 	C 	0.50073	0.9534	0.39464	-0.132
Mof_H 	H 	0.525	0.9647	0.4036	0.08
Mof_C 	C 	0.46552	0.00306	0.43642	0.039
Mof_C 	C 	0.43606	0.00397	0.4665	-0.105
Mof_H 	H 	0.4158	0.9844	0.4667	0.068
Mof_O 	O 	0.46666	0.69957	0.21821	-0.404
Mof_O 	O 	0.53575	0.6999	0.21802	-0.414
Mof_C 	C 	0.50197	0.68632	0.21057	0.349
Mof_C 	C 	0.50094	0.64854	0.18294	-0.072
Mof_C 	C 	0.46715	0.63237	0.1716	-0.017
Mof_H 	H 	0.4429	0.6438	0.1804	0.055
Mof_C 	C 	0.46577	0.5971	0.1456	-0.02
Mof_C 	C 	0.50207	0.58134	0.13203	0.078
Mof_C 	C 	0.53819	0.59763	0.14519	-0.119
Mof_H 	H 	0.5625	0.5857	0.1374	0.076
Mof_C 	C 	0.53862	0.63214	0.17033	0.02
Mof_H 	H 	0.563	0.6438	0.1784	0.04
Mof_C 	C 	0.42898	0.57877	0.13307	-0.026
Mof_H 	H 	0.4044	0.589	0.1424	0.04
Mof_C 	C 	0.42928	0.5465	0.10756	-0.085
Mof_H 	H 	0.4049	0.535	0.0995	0.06
Mof_C 	C 	0.466	0.53022	0.09315	0.044
Mof_C 	C 	0.50073	0.5466	0.10536	-0.132
Mof_H 	H 	0.525	0.5353	0.0964	0.08
Mof_C 	C 	0.46552	0.49694	0.06358	0.039
Mof_C 	C 	0.43606	0.49603	0.0335	-0.105
Mof_H 	H 	0.4158	0.5156	0.0333	0.068
Mof_O 	O 	0.03334	0.80043	0.21821	-0.404
Mof_O 	O 	0.96425	0.8001	0.21802	-0.414
Mof_C 	C 	0.99803	0.81368	0.21057	0.349
Mof_C 	C 	0.99906	0.85146	0.18294	-0.072
Mof_C 	C 	0.03285	0.86763	0.1716	-0.017
Mof_H 	H 	0.0571	0.8562	0.1804	0.055
Mof_C 	C 	0.03423	0.9029	0.1456	-0.02
Mof_C 	C 	0.99793	0.91866	0.13203	0.078
Mof_C 	C 	0.96181	0.90237	0.14519	-0.119
Mof_H 	H 	0.9375	0.9143	0.1374	0.076
Mof_C 	C 	0.96138	0.86786	0.17033	0.02
Mof_H 	H 	0.937	0.8562	0.1784	0.04
Mof_C 	C 	0.07102	0.92123	0.13307	-0.026
Mof_H 	H 	0.0956	0.911	0.1424	0.04
Mof_C 	C 	0.07072	0.9535	0.10756	-0.085
Mof_H 	H 	0.0951	0.965	0.0995	0.06
Mof_C 	C 	0.034	0.96978	0.09315	0.044
Mof_C 	C 	0.99927	0.9534	0.10536	-0.132
Mof_H 	H 	0.975	0.9647	0.0964	0.08
Mof_C 	C 	0.03448	0.00306	0.06358	0.039
Mof_C 	C 	0.06394	0.00397	0.0335	-0.105
Mof_H 	H 	0.0842	0.9844	0.0333	0.068
Mof_O 	O 	0.28179	0.03334	0.69957	-0.404
Mof_O 	O 	0.28198	0.96425	0.6999	-0.414
Mof_C 	C 	0.28943	0.99803	0.68632	0.349
Mof_C 	C 	0.31706	0.99906	0.64854	-0.072
Mof_C 	C 	0.3284	0.03285	0.63237	-0.017
Mof_H 	H 	0.3196	0.0571	0.6438	0.055
Mof_C 	C 	0.3544	0.03423	0.5971	-0.02
Mof_C 	C 	0.36797	0.99793	0.58134	0.078
Mof_C 	C 	0.35481	0.96181	0.59763	-0.119
Mof_H 	H 	0.3626	0.9375	0.5857	0.076
Mof_C 	C 	0.32967	0.96138	0.63214	0.02
Mof_H 	H 	0.3216	0.937	0.6438	0.04
Mof_C 	C 	0.36693	0.07102	0.57877	-0.026
Mof_H 	H 	0.3576	0.0956	0.589	0.04
Mof_C 	C 	0.39244	0.07072	0.5465	-0.085
Mof_H 	H 	0.4005	0.0951	0.535	0.06
Mof_C 	C 	0.40685	0.034	0.53022	0.044
Mof_C 	C 	0.39464	0.99927	0.5466	-0.132
Mof_H 	H 	0.4036	0.975	0.5353	0.08
Mof_C 	C 	0.43642	0.03448	0.49694	0.039
Mof_C 	C 	0.4665	0.06394	0.49603	-0.105
Mof_H 	H 	0.4667	0.0842	0.5156	0.068
Mof_O 	O 	0.28179	0.46666	0.80043	-0.404
Mof_O 	O 	0.28198	0.53575	0.8001	-0.414
Mof_C 	C 	0.28943	0.50197	0.81368	0.349
Mof_C 	C 	0.31706	0.50094	0.85146	-0.072
Mof_C 	C 	0.3284	0.46715	0.86763	-0.017
Mof_H 	H 	0.3196	0.4429	0.8562	0.055
Mof_C 	C 	0.3544	0.46577	0.9029	-0.02
Mof_C 	C 	0.36797	0.50207	0.91866	0.078
Mof_C 	C 	0.35481	0.53819	0.90237	-0.119
Mof_H 	H 	0.3626	0.5625	0.9143	0.076
Mof_C 	C 	0.32967	0.53862	0.86786	0.02
Mof_H 	H 	0.3216	0.563	0.8562	0.04
Mof_C 	C 	0.36693	0.42898	0.92123	-0.026
Mof_H 	H 	0.3576	0.4044	0.911	0.04
Mof_C 	C 	0.39244	0.42928	0.9535	-0.085
Mof_H 	H 	0.4005	0.4049	0.965	0.06
Mof_C 	C 	0.40685	0.466	0.96978	0.044
Mof_C 	C 	0.39464	0.50073	0.9534	-0.132
Mof_H 	H 	0.4036	0.525	0.9647	0.08
Mof_C 	C 	0.43642	0.46552	0.00306	0.039
Mof_C 	C 	0.4665	0.43606	0.00397	-0.105
Mof_H 	H 	0.4667	0.4158	0.9844	0.068
Mof_O 	O 	0.21821	0.46666	0.69957	-0.404
Mof_O 	O 	0.21802	0.53575	0.6999	-0.414
Mof_C 	C 	0.21057	0.50197	0.68632	0.349
Mof_C 	C 	0.18294	0.50094	0.64854	-0.072
Mof_C 	C 	0.1716	0.46715	0.63237	-0.017
Mof_H 	H 	0.1804	0.4429	0.6438	0.055
Mof_C 	C 	0.1456	0.46577	0.5971	-0.02
Mof_C 	C 	0.13203	0.50207	0.58134	0.078
Mof_C 	C 	0.14519	0.53819	0.59763	-0.119
Mof_H 	H 	0.1374	0.5625	0.5857	0.076
Mof_C 	C 	0.17033	0.53862	0.63214	0.02
Mof_H 	H 	0.1784	0.563	0.6438	0.04
Mof_C 	C 	0.13307	0.42898	0.57877	-0.026
Mof_H 	H 	0.1424	0.4044	0.589	0.04
Mof_C 	C 	0.10756	0.42928	0.5465	-0.085
Mof_H 	H 	0.0995	0.4049	0.535	0.06
Mof_C 	C 	0.09315	0.466	0.53022	0.044
Mof_C 	C 	0.10536	0.50073	0.5466	-0.132
Mof_H 	H 	0.0964	0.525	0.5353	0.08
Mof_C 	C 	0.06358	0.46552	0.49694	0.039
Mof_C 	C 	0.0335	0.43606	0.49603	-0.105
Mof_H 	H 	0.0333	0.4158	0.5156	0.068
Mof_O 	O 	0.21821	0.03334	0.80043	-0.404
Mof_O 	O 	0.21802	0.96425	0.8001	-0.414
Mof_C 	C 	0.21057	0.99803	0.81368	0.349
Mof_C 	C 	0.18294	0.99906	0.85146	-0.072
Mof_C 	C 	0.1716	0.03285	0.86763	-0.017
Mof_H 	H 	0.1804	0.0571	0.8562	0.055
Mof_C 	C 	0.1456	0.03423	0.9029	-0.02
Mof_C 	C 	0.13203	0.99793	0.91866	0.078
Mof_C 	C 	0.14519	0.96181	0.90237	-0.119
Mof_H 	H 	0.1374	0.9375	0.9143	0.076
Mof_C 	C 	0.17033	0.96138	0.86786	0.02
Mof_H 	H 	0.1784	0.937	0.8562	0.04
Mof_C 	C 	0.13307	0.07102	0.92123	-0.026
Mof_H 	H 	0.1424	0.0956	0.911	0.04
Mof_C 	C 	0.10756	0.07072	0.9535	-0.085
Mof_H 	H 	0.0995	0.0951	0.965	0.06
Mof_C 	C 	0.09315	0.034	0.96978	0.044
Mof_C 	C 	0.10536	0.99927	0.9534	-0.132
Mof_H 	H 	0.0964	0.975	0.9647	0.08
Mof_C 	C 	0.06358	0.03448	0.00306	0.039
Mof_C 	C 	0.0335	0.06394	0.00397	-0.105
Mof_H 	H 	0.0333	0.0842	0.9844	0.068
Mof_O 	O 	0.69957	0.28179	0.03334	-0.404
Mof_O 	O 	0.6999	0.28198	0.96425	-0.414
Mof_C 	C 	0.68632	0.28943	0.99803	0.349
Mof_C 	C 	0.64854	0.31706	0.99906	-0.072
Mof_C 	C 	0.63237	0.3284	0.03285	-0.017
Mof_H 	H 	0.6438	0.3196	0.0571	0.055
Mof_C 	C 	0.5971	0.3544	0.03423	-0.02
Mof_C 	C 	0.58134	0.36797	0.99793	0.078
Mof_C 	C 	0.59763	0.35481	0.96181	-0.119
Mof_H 	H 	0.5857	0.3626	0.9375	0.076
Mof_C 	C 	0.63214	0.32967	0.96138	0.02
Mof_H 	H 	0.6438	0.3216	0.937	0.04
Mof_C 	C 	0.57877	0.36693	0.07102	-0.026
Mof_H 	H 	0.589	0.3576	0.0956	0.04
Mof_C 	C 	0.5465	0.39244	0.07072	-0.085
Mof_H 	H 	0.535	0.4005	0.0951	0.06
Mof_C 	C 	0.53022	0.40685	0.034	0.044
Mof_C 	C 	0.5466	0.39464	0.99927	-0.132
Mof_H 	H 	0.5353	0.4036	0.975	0.08
Mof_C 	C 	0.49694	0.43642	0.03448	0.039
Mof_C 	C 	0.49603	0.4665	0.06394	-0.105
Mof_H 	H 	0.5156	0.4667	0.0842	0.068
Mof_O 	O 	0.80043	0.28179	0.46666	-0.404
Mof_O 	O 	0.8001	0.28198	0.53575	-0.414
Mof_C 	C 	0.81368	0.28943	0.50197	0.349
Mof_C 	C 	0.85146	0.31706	0.50094	-0.072
Mof_C 	C 	0.86763	0.3284	0.46715	-0.017
Mof_H 	H 	0.8562	0.3196	0.4429	0.055
Mof_C 	C 	0.9029	0.3544	0.46577	-0.02
Mof_C 	C 	0.91866	0.36797	0.50207	0.078
Mof_C 	C 	0.90237	0.35481	0.53819	-0.119
Mof_H 	H 	0.9143	0.3626	0.5625	0.076
Mof_C 	C 	0.86786	0.32967	0.53862	0.02
Mof_H 	H 	0.8562	0.3216	0.563	0.04
Mof_C 	C 	0.92123	0.36693	0.42898	-0.026
Mof_H 	H 	0.911	0.3576	0.4044	0.04
Mof_C 	C 	0.9535	0.39244	0.42928	-0.085
Mof_H 	H 	0.965	0.4005	0.4049	0.06
Mof_C 	C 	0.96978	0.40685	0.466	0.044
Mof_C 	C 	0.9534	0.39464	0.50073	-0.132
Mof_H 	H 	0.9647	0.4036	0.525	0.08
Mof_C 	C 	0.00306	0.43642	0.46552	0.039
Mof_C 	C 	0.00397	0.4665	0.43606	-0.105
Mof_H 	H 	0.9844	0.4667	0.4158	0.068
Mof_O 	O 	0.69957	0.21821	0.46666	-0.404
Mof_O 	O 	0.6999	0.21802	0.53575	-0.414
Mof_C 	C 	0.68632	0.21057	0.50197	0.349
Mof_C 	C 	0.64854	0.18294	0.50094	-0.072
Mof_C 	C 	0.63237	0.1716	0.46715	-0.017
Mof_H 	H 	0.6438	0.1804	0.4429	0.055
Mof_C 	C 	0.5971	0.1456	0.46577	-0.02
Mof_C 	C 	0.58134	0.13203	0.50207	0.078
Mof_C 	C 	0.59763	0.14519	0.53819	-0.119
Mof_H 	H 	0.5857	0.1374	0.5625	0.076
Mof_C 	C 	0.63214	0.17033	0.53862	0.02
Mof_H 	H 	0.6438	0.1784	0.563	0.04
Mof_C 	C 	0.57877	0.13307	0.42898	-0.026
Mof_H 	H 	0.589	0.1424	0.4044	0.04
Mof_C 	C 	0.5465	0.10756	0.42928	-0.085
Mof_H 	H 	0.535	0.0995	0.4049	0.06
Mof_C 	C 	0.53022	0.09315	0.466	0.044
Mof_C 	C 	0.5466	0.10536	0.50073	-0.132
Mof_H 	H 	0.5353	0.0964	0.525	0.08
Mof_C 	C 	0.49694	0.06358	0.46552	0.039
Mof_C 	C 	0.49603	0.0335	0.43606	-0.105
Mof_H 	H 	0.5156	0.0333	0.4158	0.068
Mof_O 	O 	0.80043	0.21821	0.03334	-0.404
Mof_O 	O 	0.8001	0.21802	0.96425	-0.414
Mof_C 	C 	0.81368	0.21057	0.99803	0.349
Mof_C 	C 	0.85146	0.18294	0.99906	-0.072
Mof_C 	C 	0.86763	0.1716	0.03285	-0.017
Mof_H 	H 	0.8562	0.1804	0.0571	0.055
Mof_C 	C 	0.9029	0.1456	0.03423	-0.02
Mof_C 	C 	0.91866	0.13203	0.99793	0.078
Mof_C 	C 	0.90237	0.14519	0.96181	-0.119
Mof_H 	H 	0.9143	0.1374	0.9375	0.076
Mof_C 	C 	0.86786	0.17033	0.96138	0.02
Mof_H 	H 	0.8562	0.1784	0.937	0.04
Mof_C 	C 	0.92123	0.13307	0.07102	-0.026
Mof_H 	H 	0.911	0.1424	0.0956	0.04
Mof_C 	C 	0.9535	0.10756	0.07072	-0.085
Mof_H 	H 	0.965	0.0995	0.0951	0.06
Mof_C 	C 	0.96978	0.09315	0.034	0.044
Mof_C 	C 	0.9534	0.10536	0.99927	-0.132
Mof_H 	H 	0.9647	0.0964	0.975	0.08
Mof_C 	C 	0.00306	0.06358	0.03448	0.039
Mof_C 	C 	0.00397	0.0335	0.06394	-0.105
Mof_H 	H 	0.9844	0.0333	0.0842	0.068
Mof_Cu	Cu	0.25	0.96026	0.75	0.897
Mof_Cu	Cu	0.25	0.53974	0.75	0.897
Mof_Cu	Cu	0.96026	0.75	0.25	0.897
Mof_Cu	Cu	0.53974	0.75	0.25	0.897
Mof_Cu	Cu	0.75	0.25	0.53974	0.897
Mof_Cu	Cu	0.75	0.25	0.96026	0.897
Mof_Cu	Cu	0.03974	0.75	0.25	0.897
Mof_Cu	Cu	0.46026	0.75	0.25	0.897
Mof_Cu	Cu	0.25	0.03974	0.75	0.897
Mof_Cu	Cu	0.25	0.46026	0.75	0.897
Mof_Cu	Cu	0.75	0.25	0.03974	0.897
Mof_Cu	Cu	0.75	0.25	0.46026	0.897
_end
