data_functionalizedCrystal
_audit_creation_method	'EQeq! by Chris Wilmer'
_symmetry_space_group_name_H-M	'P1'
_symmetry_Int_Tables_number	1
_symmetry_cell_setting	triclinic
loop_
_symmetry_equiv_pos_as_xyz
  x,y,z
_cell_length_a	11.6667
_cell_length_b	5.5586
_cell_length_c	22.935
_cell_angle_alpha	90
_cell_angle_beta	101.011
_cell_angle_gamma	90
loop_
_atom_site_label
_atom_site_type_symbol
_atom_site_fract_x
_atom_site_fract_y
_atom_site_fract_z
_atom_site_charge
Mof_S 	S 	0.39611	0.0346	0.10598	0.298
Mof_O 	O 	0.9869	0.4756	0.2471	-0.476
Mof_O 	O 	0.2595	0.0834	0.8097	-0.577
Mof_O 	O 	0.9588	0.0802	0.2556	-0.495
Mof_O 	O 	0.2641	0.4768	0.82727	-0.513
Mof_O 	O 	0.4127	0.7755	0.11	-0.244
Mof_O 	O 	0.4936	0.1964	0.12913	-0.353
Mof_C 	C 	0.1886	0.9422	0.1392	-0.086
Mof_H 	H 	0.1877	0.797	0.1173	0.066
Mof_C 	C 	0.2792	0.1094	0.1409	-0.009
Mof_C 	C 	0.2906	0.9406	0.9913	-0.096
Mof_H 	H 	0.2676	0.7928	0.0064	0.069
Mof_C 	C 	0.352	0.1097	0.029	0.013
Mof_C 	C 	0.2781	0.3294	0.1705	-0.086
Mof_H 	H 	0.3385	0.4439	0.1703	0.073
Mof_C 	C 	0.3806	0.3352	0.0106	-0.103
Mof_H 	H 	0.4179	0.4521	0.038	0.088
Mof_C 	C 	0.2635	0.9898	0.9315	0.058
Mof_H 	H 	0.2228	0.8746	0.9046	0.009
Mof_C 	C 	0.1003	0.9929	0.1701	0.055
Mof_H 	H 	0.0401	0.8783	0.1707	0.008
Mof_C 	C 	0.1882	0.3771	0.1998	0.051
Mof_H 	H 	0.1872	0.5263	0.22	0.025
Mof_C 	C 	0.3521	0.3827	0.9496	0.066
Mof_H 	H 	0.3713	0.5348	0.9351	0.015
Mof_C 	C 	0.2738	0.2606	0.845	0.443
Mof_C 	C 	0.0061	0.2562	0.2372	0.472
Mof_C 	C 	0.0987	0.2128	0.2008	-0.165
Mof_C 	C 	0.2966	0.2131	0.91	-0.167
Mof_Ca	Ca	0.63659	0.24372	0.22129	1.561
Mof_S 	S 	0.10389	0.5346	0.39402	0.299
Mof_O 	O 	0.5131	0.9756	0.2529	-0.477
Mof_O 	O 	0.2405	0.5834	0.6903	-0.578
Mof_O 	O 	0.5412	0.5802	0.2444	-0.498
Mof_O 	O 	0.2359	0.9768	0.67273	-0.513
Mof_O 	O 	0.0873	0.2755	0.39	-0.246
Mof_O 	O 	0.0064	0.6964	0.37087	-0.353
Mof_C 	C 	0.3114	0.4422	0.3608	-0.091
Mof_H 	H 	0.3123	0.297	0.3827	0.067
Mof_C 	C 	0.2208	0.6094	0.3591	-0.004
Mof_C 	C 	0.2094	0.4406	0.5087	-0.101
Mof_H 	H 	0.2324	0.2928	0.4936	0.07
Mof_C 	C 	0.148	0.6097	0.471	0.017
Mof_C 	C 	0.2219	0.8294	0.3295	-0.091
Mof_H 	H 	0.1615	0.9439	0.3297	0.076
Mof_C 	C 	0.1194	0.8352	0.4894	-0.107
Mof_H 	H 	0.0821	0.9521	0.462	0.09
Mof_C 	C 	0.2365	0.4898	0.5685	0.061
Mof_H 	H 	0.2772	0.3746	0.5954	0.008
Mof_C 	C 	0.3997	0.4929	0.3299	0.054
Mof_H 	H 	0.4599	0.3783	0.3293	0.008
Mof_C 	C 	0.3118	0.8771	0.3002	0.058
Mof_H 	H 	0.3128	0.0263	0.28	0.021
Mof_C 	C 	0.1479	0.8827	0.5504	0.071
Mof_H 	H 	0.1287	0.0348	0.5649	0.012
Mof_C 	C 	0.2262	0.7606	0.655	0.444
Mof_C 	C 	0.4939	0.7562	0.2628	0.477
Mof_C 	C 	0.4013	0.7128	0.2992	-0.165
Mof_C 	C 	0.2034	0.7131	0.59	-0.169
Mof_Ca	Ca	0.86341	0.74372	0.27871	1.56
Mof_S 	S 	0.60389	0.9654	0.89402	0.298
Mof_O 	O 	0.0131	0.5244	0.7529	-0.476
Mof_O 	O 	0.7405	0.9166	0.1903	-0.577
Mof_O 	O 	0.0412	0.9198	0.7444	-0.495
Mof_O 	O 	0.7359	0.5232	0.17273	-0.513
Mof_O 	O 	0.5873	0.2245	0.89	-0.244
Mof_O 	O 	0.5064	0.8036	0.87087	-0.353
Mof_C 	C 	0.8114	0.0578	0.8608	-0.086
Mof_H 	H 	0.8123	0.203	0.8827	0.066
Mof_C 	C 	0.7208	0.8906	0.8591	-0.009
Mof_C 	C 	0.7094	0.0594	0.0087	-0.096
Mof_H 	H 	0.7324	0.2072	0.9936	0.069
Mof_C 	C 	0.648	0.8903	0.971	0.013
Mof_C 	C 	0.7219	0.6706	0.8295	-0.086
Mof_H 	H 	0.6615	0.5561	0.8297	0.073
Mof_C 	C 	0.6194	0.6648	0.9894	-0.103
Mof_H 	H 	0.5821	0.5479	0.962	0.088
Mof_C 	C 	0.7365	0.0102	0.0685	0.058
Mof_H 	H 	0.7772	0.1254	0.0954	0.009
Mof_C 	C 	0.8997	0.0071	0.8299	0.055
Mof_H 	H 	0.9599	0.1217	0.8293	0.008
Mof_C 	C 	0.8118	0.6229	0.8002	0.051
Mof_H 	H 	0.8128	0.4737	0.78	0.025
Mof_C 	C 	0.6479	0.6173	0.0504	0.066
Mof_H 	H 	0.6287	0.4652	0.0649	0.015
Mof_C 	C 	0.7262	0.7394	0.155	0.443
Mof_C 	C 	0.9939	0.7438	0.7628	0.472
Mof_C 	C 	0.9013	0.7872	0.7992	-0.165
Mof_C 	C 	0.7034	0.7869	0.09	-0.167
Mof_Ca	Ca	0.36341	0.75628	0.77871	1.561
Mof_S 	S 	0.89611	0.4654	0.60598	0.299
Mof_O 	O 	0.4869	0.0244	0.7471	-0.477
Mof_O 	O 	0.7595	0.4166	0.3097	-0.578
Mof_O 	O 	0.4588	0.4198	0.7556	-0.498
Mof_O 	O 	0.7641	0.0232	0.32727	-0.513
Mof_O 	O 	0.9127	0.7245	0.61	-0.246
Mof_O 	O 	0.9936	0.3036	0.62913	-0.353
Mof_C 	C 	0.6886	0.5578	0.6392	-0.091
Mof_H 	H 	0.6877	0.703	0.6173	0.067
Mof_C 	C 	0.7792	0.3906	0.6409	-0.004
Mof_C 	C 	0.7906	0.5594	0.4913	-0.101
Mof_H 	H 	0.7676	0.7072	0.5064	0.07
Mof_C 	C 	0.852	0.3903	0.529	0.017
Mof_C 	C 	0.7781	0.1706	0.6705	-0.091
Mof_H 	H 	0.8385	0.0561	0.6703	0.076
Mof_C 	C 	0.8806	0.1648	0.5106	-0.107
Mof_H 	H 	0.9179	0.0479	0.538	0.09
Mof_C 	C 	0.7635	0.5102	0.4315	0.061
Mof_H 	H 	0.7228	0.6254	0.4046	0.008
Mof_C 	C 	0.6003	0.5071	0.6701	0.054
Mof_H 	H 	0.5401	0.6217	0.6707	0.008
Mof_C 	C 	0.6882	0.1229	0.6998	0.058
Mof_H 	H 	0.6872	0.9737	0.72	0.021
Mof_C 	C 	0.8521	0.1173	0.4496	0.071
Mof_H 	H 	0.8713	0.9652	0.4351	0.012
Mof_C 	C 	0.7738	0.2394	0.345	0.444
Mof_C 	C 	0.5061	0.2438	0.7372	0.477
Mof_C 	C 	0.5987	0.2872	0.7008	-0.165
Mof_C 	C 	0.7966	0.2869	0.41	-0.169
Mof_Ca	Ca	0.13659	0.25628	0.72129	1.56
_end
