data_functionalizedCrystal
_audit_creation_method	'EQeq! by Chris Wilmer'
_symmetry_space_group_name_H-M	'P1'
_symmetry_Int_Tables_number	1
_symmetry_cell_setting	triclinic
loop_
_symmetry_equiv_pos_as_xyz
  x,y,z
_cell_length_a	36.102
_cell_length_b	36.102
_cell_length_c	9.93
_cell_angle_alpha	90
_cell_angle_beta	90
_cell_angle_gamma	90
loop_
_atom_site_label
_atom_site_type_symbol
_atom_site_fract_x
_atom_site_fract_y
_atom_site_fract_z
_atom_site_charge
Mof_N 	N 	0.94733	0.46218	0.0567	-0.162
Mof_N 	N 	0.94721	0.45093	0.1909	-0.386
Mof_C 	C 	0.91861	0.44525	0.0035	0.105
Mof_H 	H 	0.912	0.4474	0.9133	-0.012
Mof_C 	C 	0.91833	0.42875	0.2092	0.187
Mof_H 	H 	0.912	0.4178	0.2908	-0.041
Mof_N 	N 	0.89948	0.42423	0.0939	-0.21
Mof_N 	N 	0.0278	0.46246	0.1076	-0.207
Mof_N 	N 	0.01507	0.44934	0.2292	-0.375
Mof_C 	C 	0.05906	0.44545	0.087	0.119
Mof_H 	H 	0.0738	0.4497	0.0118	-0.024
Mof_C 	C 	0.03989	0.42449	0.2727	0.18
Mof_H 	H 	0.0379	0.4113	0.3529	-0.045
Mof_N 	N 	0.06808	0.42116	0.1849	-0.209
Mof_N 	N 	0.98848	0.52545	0.1785	-0.192
Mof_N 	N 	0.97929	0.5052	0.2912	-0.376
Mof_C 	C 	0.9849	0.56017	0.2198	0.103
Mof_H 	H 	0.9895	0.5804	0.1641	-0.007
Mof_C 	C 	0.97025	0.52877	0.3892	0.184
Mof_H 	H 	0.9623	0.5216	0.4743	-0.049
Mof_N 	N 	0.97402	0.56394	0.3502	-0.154
Mof_B 	B 	0.9777	0.46249	0.2889	1.512
Mof_H 	H 	0.9735	0.4523	0.3791	-0.556
Mof_Mn	Mn	0.86414	0.37165	0.07845	0.982
Mof_N 	N 	0.8746	0.36931	0.8816	-0.213
Mof_C 	C 	0.90623	0.36215	0.8267	0.088
Mof_H 	H 	0.9081	0.3628	0.7333	0.002
Mof_C 	C 	0.93893	0.35309	0.9046	-0.155
Mof_C 	C 	0.9728	0.3511	0.8359	0.084
Mof_H 	H 	0.9735	0.3547	0.7432	0.005
Mof_C 	C 	0.0052	0.3439	0.9047	-0.182
Mof_H 	H 	0.0275	0.3427	0.8585	0.099
Mof_C 	C 	0.0045	0.3386	0.0382	0.115
Mof_H 	H 	0.0266	0.3344	0.0837	0
Mof_C 	C 	0.9716	0.3392	0.1101	-0.246
Mof_H 	H 	0.9718	0.3348	0.2024	0.128
Mof_C 	C 	0.93872	0.34638	0.0447	0.258
Mof_O 	O 	0.90745	0.34547	0.1204	-0.387
Mof_N 	N 	0.82098	0.40082	0.0146	-0.22
Mof_C 	C 	0.79459	0.41333	0.0904	0.087
Mof_H 	H 	0.7765	0.4278	0.0496	-0.004
Mof_C 	C 	0.79104	0.40658	0.2336	-0.168
Mof_C 	C 	0.7579	0.4178	0.2979	0.083
Mof_H 	H 	0.7404	0.4311	0.2492	-0.003
Mof_C 	C 	0.7511	0.4096	0.4312	-0.189
Mof_H 	H 	0.7291	0.4173	0.4711	0.095
Mof_C 	C 	0.7768	0.39	0.5059	0.139
Mof_H 	H 	0.7718	0.384	0.5952	-0.026
Mof_C 	C 	0.8096	0.3795	0.4474	-0.272
Mof_H 	H 	0.827	0.3668	0.4988	0.134
Mof_C 	C 	0.81771	0.38748	0.3129	0.279
Mof_O 	O 	0.84966	0.37578	0.2614	-0.391
Mof_C 	C 	0.84233	0.37977	0.7981	-0.061
Mof_H 	H 	0.826	0.3587	0.7864	0.043
Mof_H 	H 	0.8505	0.388	0.7099	0.045
Mof_C 	C 	0.82247	0.41044	0.8696	-0.053
Mof_H 	H 	0.8356	0.4336	0.857	0.041
Mof_H 	H 	0.7976	0.4132	0.8339	0.043
Mof_N 	N 	0.44733	0.96218	0.5567	-0.161
Mof_N 	N 	0.44721	0.95093	0.6909	-0.385
Mof_C 	C 	0.41861	0.94525	0.5035	0.118
Mof_H 	H 	0.412	0.9474	0.4133	-0.019
Mof_C 	C 	0.41833	0.92875	0.7092	0.188
Mof_H 	H 	0.412	0.9178	0.7908	-0.04
Mof_N 	N 	0.39948	0.92423	0.5939	-0.21
Mof_N 	N 	0.5278	0.96246	0.6076	-0.202
Mof_N 	N 	0.51507	0.94934	0.7292	-0.371
Mof_C 	C 	0.55906	0.94545	0.587	0.121
Mof_H 	H 	0.5738	0.9497	0.5118	-0.02
Mof_C 	C 	0.53989	0.92449	0.7727	0.183
Mof_H 	H 	0.5379	0.9113	0.8529	-0.042
Mof_N 	N 	0.56808	0.92116	0.6849	-0.209
Mof_N 	N 	0.48848	0.02545	0.6785	-0.193
Mof_N 	N 	0.47929	0.0052	0.7912	-0.379
Mof_C 	C 	0.4849	0.06017	0.7198	0.103
Mof_H 	H 	0.4895	0.0804	0.6641	-0.007
Mof_C 	C 	0.47025	0.02877	0.8892	0.183
Mof_H 	H 	0.4623	0.0216	0.9743	-0.05
Mof_N 	N 	0.47402	0.06394	0.8502	-0.154
Mof_B 	B 	0.4777	0.96249	0.7889	1.513
Mof_H 	H 	0.4735	0.9523	0.8791	-0.556
Mof_Mn	Mn	0.36414	0.87165	0.57845	0.984
Mof_N 	N 	0.3746	0.86931	0.3816	-0.216
Mof_C 	C 	0.40623	0.86215	0.3267	0.094
Mof_H 	H 	0.4081	0.8628	0.2333	-0.001
Mof_C 	C 	0.43893	0.85309	0.4046	-0.17
Mof_C 	C 	0.4728	0.8511	0.3359	0.094
Mof_H 	H 	0.4735	0.8547	0.2432	-0.002
Mof_C 	C 	0.5052	0.8439	0.4047	-0.203
Mof_H 	H 	0.5275	0.8427	0.3585	0.106
Mof_C 	C 	0.5045	0.8386	0.5382	0.149
Mof_H 	H 	0.5266	0.8344	0.5837	-0.01
Mof_C 	C 	0.4716	0.8392	0.6101	-0.274
Mof_H 	H 	0.4718	0.8348	0.7024	0.136
Mof_C 	C 	0.43872	0.84638	0.5447	0.275
Mof_O 	O 	0.40745	0.84547	0.6204	-0.391
Mof_N 	N 	0.32098	0.90082	0.5146	-0.215
Mof_C 	C 	0.29459	0.91333	0.5904	0.079
Mof_H 	H 	0.2765	0.9278	0.5496	0.001
Mof_C 	C 	0.29104	0.90658	0.7336	-0.152
Mof_C 	C 	0.2579	0.9178	0.7979	0.058
Mof_H 	H 	0.2404	0.9311	0.7492	0.007
Mof_C 	C 	0.2511	0.9096	0.9312	-0.149
Mof_H 	H 	0.2291	0.9173	0.9711	0.083
Mof_C 	C 	0.2768	0.89	0.0059	0.09
Mof_H 	H 	0.2718	0.884	0.0952	-0.011
Mof_C 	C 	0.3096	0.8795	0.9474	-0.235
Mof_H 	H 	0.327	0.8668	0.9988	0.124
Mof_C 	C 	0.31771	0.88748	0.8129	0.261
Mof_O 	O 	0.34966	0.87578	0.7614	-0.387
Mof_C 	C 	0.34233	0.87977	0.2981	-0.058
Mof_H 	H 	0.326	0.8587	0.2864	0.041
Mof_H 	H 	0.3505	0.888	0.2099	0.043
Mof_C 	C 	0.32247	0.91044	0.3696	-0.06
Mof_H 	H 	0.3356	0.9336	0.357	0.043
Mof_H 	H 	0.2976	0.9132	0.3339	0.044
Mof_N 	N 	0.55267	0.53782	0.5567	-0.162
Mof_N 	N 	0.55279	0.54907	0.6909	-0.384
Mof_C 	C 	0.58139	0.55475	0.5035	0.117
Mof_H 	H 	0.588	0.5526	0.4133	-0.02
Mof_C 	C 	0.58167	0.57125	0.7092	0.187
Mof_H 	H 	0.588	0.5822	0.7908	-0.04
Mof_N 	N 	0.60052	0.57577	0.5939	-0.21
Mof_N 	N 	0.4722	0.53754	0.6076	-0.204
Mof_N 	N 	0.48493	0.55066	0.7292	-0.37
Mof_C 	C 	0.44094	0.55455	0.587	0.121
Mof_H 	H 	0.4262	0.5503	0.5118	-0.02
Mof_C 	C 	0.46011	0.57551	0.7727	0.182
Mof_H 	H 	0.4621	0.5887	0.8529	-0.042
Mof_N 	N 	0.43192	0.57884	0.6849	-0.209
Mof_N 	N 	0.51152	0.47455	0.6785	-0.192
Mof_N 	N 	0.52071	0.4948	0.7912	-0.375
Mof_C 	C 	0.5151	0.43983	0.7198	0.103
Mof_H 	H 	0.5105	0.4196	0.6641	-0.007
Mof_C 	C 	0.52975	0.47123	0.8892	0.183
Mof_H 	H 	0.5377	0.4784	0.9743	-0.049
Mof_N 	N 	0.52598	0.43606	0.8502	-0.154
Mof_B 	B 	0.5223	0.53751	0.7889	1.504
Mof_H 	H 	0.5265	0.5477	0.8791	-0.554
Mof_Mn	Mn	0.63586	0.62835	0.57845	0.984
Mof_N 	N 	0.6254	0.63069	0.3816	-0.216
Mof_C 	C 	0.59377	0.63785	0.3267	0.093
Mof_H 	H 	0.5919	0.6372	0.2333	-0.001
Mof_C 	C 	0.56107	0.64691	0.4046	-0.17
Mof_C 	C 	0.5272	0.6489	0.3359	0.094
Mof_H 	H 	0.5265	0.6453	0.2432	-0.002
Mof_C 	C 	0.4948	0.6561	0.4047	-0.203
Mof_H 	H 	0.4725	0.6573	0.3585	0.106
Mof_C 	C 	0.4955	0.6614	0.5382	0.149
Mof_H 	H 	0.4734	0.6656	0.5837	-0.01
Mof_C 	C 	0.5284	0.6608	0.6101	-0.274
Mof_H 	H 	0.5282	0.6652	0.7024	0.136
Mof_C 	C 	0.56128	0.65362	0.5447	0.275
Mof_O 	O 	0.59255	0.65453	0.6204	-0.391
Mof_N 	N 	0.67902	0.59918	0.5146	-0.216
Mof_C 	C 	0.70541	0.58667	0.5904	0.079
Mof_H 	H 	0.7235	0.5722	0.5496	0.001
Mof_C 	C 	0.70896	0.59342	0.7336	-0.152
Mof_C 	C 	0.7421	0.5822	0.7979	0.058
Mof_H 	H 	0.7596	0.5689	0.7492	0.007
Mof_C 	C 	0.7489	0.5904	0.9312	-0.149
Mof_H 	H 	0.7709	0.5827	0.9711	0.083
Mof_C 	C 	0.7232	0.61	0.0059	0.09
Mof_H 	H 	0.7282	0.616	0.0952	-0.011
Mof_C 	C 	0.6904	0.6205	0.9474	-0.235
Mof_H 	H 	0.673	0.6332	0.9988	0.124
Mof_C 	C 	0.68229	0.61252	0.8129	0.261
Mof_O 	O 	0.65034	0.62422	0.7614	-0.387
Mof_C 	C 	0.65767	0.62023	0.2981	-0.058
Mof_H 	H 	0.674	0.6413	0.2864	0.041
Mof_H 	H 	0.6495	0.612	0.2099	0.043
Mof_C 	C 	0.67753	0.58956	0.3696	-0.059
Mof_H 	H 	0.6644	0.5664	0.357	0.042
Mof_H 	H 	0.7024	0.5868	0.3339	0.043
Mof_N 	N 	0.05267	0.03782	0.0567	-0.164
Mof_N 	N 	0.05279	0.04907	0.1909	-0.382
Mof_C 	C 	0.08139	0.05475	0.0035	0.104
Mof_H 	H 	0.088	0.0526	0.9133	-0.013
Mof_C 	C 	0.08167	0.07125	0.2092	0.185
Mof_H 	H 	0.088	0.0822	0.2908	-0.04
Mof_N 	N 	0.10052	0.07577	0.0939	-0.209
Mof_N 	N 	0.9722	0.03754	0.1076	-0.204
Mof_N 	N 	0.98493	0.05066	0.2292	-0.365
Mof_C 	C 	0.94094	0.05455	0.087	0.12
Mof_H 	H 	0.9262	0.0503	0.0118	-0.023
Mof_C 	C 	0.96011	0.07551	0.2727	0.181
Mof_H 	H 	0.9621	0.0887	0.3529	-0.041
Mof_N 	N 	0.93192	0.07884	0.1849	-0.209
Mof_N 	N 	0.01152	0.97455	0.1785	-0.193
Mof_N 	N 	0.02071	0.9948	0.2912	-0.37
Mof_C 	C 	0.0151	0.93983	0.2198	0.101
Mof_H 	H 	0.0105	0.9196	0.1641	-0.009
Mof_C 	C 	0.02975	0.97123	0.3892	0.181
Mof_H 	H 	0.0377	0.9784	0.4743	-0.049
Mof_N 	N 	0.02598	0.93606	0.3502	-0.155
Mof_B 	B 	0.0223	0.03751	0.2889	1.484
Mof_H 	H 	0.0265	0.0477	0.3791	-0.551
Mof_Mn	Mn	0.13586	0.12835	0.07845	0.981
Mof_N 	N 	0.1254	0.13069	0.8816	-0.213
Mof_C 	C 	0.09377	0.13785	0.8267	0.086
Mof_H 	H 	0.0919	0.1372	0.7333	0.002
Mof_C 	C 	0.06107	0.14691	0.9046	-0.153
Mof_C 	C 	0.0272	0.1489	0.8359	0.068
Mof_H 	H 	0.0265	0.1453	0.7432	0.007
Mof_C 	C 	0.9948	0.1561	0.9047	-0.17
Mof_H 	H 	0.9725	0.1573	0.8585	0.097
Mof_C 	C 	0.9955	0.1614	0.0382	0.131
Mof_H 	H 	0.9734	0.1656	0.0837	-0.003
Mof_C 	C 	0.0284	0.1608	0.1101	-0.265
Mof_H 	H 	0.0282	0.1652	0.2024	0.131
Mof_C 	C 	0.06128	0.15362	0.0447	0.262
Mof_O 	O 	0.09255	0.15453	0.1204	-0.388
Mof_N 	N 	0.17902	0.09918	0.0146	-0.22
Mof_C 	C 	0.20541	0.08667	0.0904	0.087
Mof_H 	H 	0.2235	0.0722	0.0496	-0.004
Mof_C 	C 	0.20896	0.09342	0.2336	-0.169
Mof_C 	C 	0.2421	0.0822	0.2979	0.083
Mof_H 	H 	0.2596	0.0689	0.2492	-0.003
Mof_C 	C 	0.2489	0.0904	0.4312	-0.19
Mof_H 	H 	0.2709	0.0827	0.4711	0.095
Mof_C 	C 	0.2232	0.11	0.5059	0.139
Mof_H 	H 	0.2282	0.116	0.5952	-0.027
Mof_C 	C 	0.1904	0.1205	0.4474	-0.272
Mof_H 	H 	0.173	0.1332	0.4988	0.134
Mof_C 	C 	0.18229	0.11252	0.3129	0.278
Mof_O 	O 	0.15034	0.12422	0.2614	-0.391
Mof_C 	C 	0.15767	0.12023	0.7981	-0.062
Mof_H 	H 	0.174	0.1413	0.7864	0.043
Mof_H 	H 	0.1495	0.112	0.7099	0.045
Mof_C 	C 	0.17753	0.08956	0.8696	-0.052
Mof_H 	H 	0.1644	0.0664	0.857	0.04
Mof_H 	H 	0.2024	0.0868	0.8339	0.042
Mof_N 	N 	0.28782	0.19733	0.3067	-0.162
Mof_N 	N 	0.29907	0.19721	0.4409	-0.384
Mof_C 	C 	0.30475	0.16861	0.2535	0.117
Mof_H 	H 	0.3026	0.162	0.1633	-0.02
Mof_C 	C 	0.32125	0.16833	0.4592	0.187
Mof_H 	H 	0.3322	0.162	0.5408	-0.04
Mof_N 	N 	0.32577	0.14948	0.3439	-0.21
Mof_N 	N 	0.28754	0.2778	0.3576	-0.204
Mof_N 	N 	0.30066	0.26507	0.4792	-0.37
Mof_C 	C 	0.30455	0.30906	0.337	0.121
Mof_H 	H 	0.3003	0.3238	0.2618	-0.021
Mof_C 	C 	0.32551	0.28989	0.5227	0.182
Mof_H 	H 	0.3387	0.2879	0.6029	-0.043
Mof_N 	N 	0.32884	0.31808	0.4349	-0.209
Mof_N 	N 	0.22455	0.23848	0.4285	-0.192
Mof_N 	N 	0.2448	0.22929	0.5412	-0.375
Mof_C 	C 	0.18983	0.2349	0.4698	0.103
Mof_H 	H 	0.1696	0.2395	0.4141	-0.007
Mof_C 	C 	0.22123	0.22025	0.6392	0.183
Mof_H 	H 	0.2284	0.2123	0.7243	-0.05
Mof_N 	N 	0.18606	0.22402	0.6002	-0.155
Mof_B 	B 	0.28751	0.2277	0.5389	1.504
Mof_H 	H 	0.2977	0.2235	0.6291	-0.555
Mof_Mn	Mn	0.37835	0.11414	0.32845	0.985
Mof_N 	N 	0.38069	0.1246	0.1316	-0.214
Mof_C 	C 	0.38785	0.15623	0.0767	0.088
Mof_H 	H 	0.3872	0.1581	0.9833	0.003
Mof_C 	C 	0.39691	0.18893	0.1546	-0.165
Mof_C 	C 	0.3989	0.2228	0.0859	0.088
Mof_H 	H 	0.3953	0.2235	0.9932	0.002
Mof_C 	C 	0.4061	0.2552	0.1547	-0.197
Mof_H 	H 	0.4073	0.2775	0.1085	0.104
Mof_C 	C 	0.4114	0.2545	0.2882	0.144
Mof_H 	H 	0.4156	0.2766	0.3337	-0.008
Mof_C 	C 	0.4108	0.2216	0.3601	-0.27
Mof_H 	H 	0.4152	0.2218	0.4524	0.134
Mof_C 	C 	0.40362	0.18872	0.2947	0.272
Mof_O 	O 	0.40453	0.15745	0.3704	-0.39
Mof_N 	N 	0.34918	0.07098	0.2646	-0.218
Mof_C 	C 	0.33667	0.04459	0.3404	0.086
Mof_H 	H 	0.3222	0.0265	0.2996	-0.004
Mof_C 	C 	0.34342	0.04104	0.4836	-0.168
Mof_C 	C 	0.3322	0.0079	0.5479	0.077
Mof_H 	H 	0.3189	0.9904	0.4992	0.004
Mof_C 	C 	0.3404	0.0011	0.6812	-0.2
Mof_H 	H 	0.3327	0.9791	0.7211	0.103
Mof_C 	C 	0.36	0.0268	0.7559	0.144
Mof_H 	H 	0.366	0.0218	0.8452	-0.029
Mof_C 	C 	0.3705	0.0596	0.6974	-0.275
Mof_H 	H 	0.3832	0.077	0.7488	0.135
Mof_C 	C 	0.36252	0.06771	0.5629	0.279
Mof_O 	O 	0.37422	0.09966	0.5114	-0.392
Mof_C 	C 	0.37023	0.09233	0.0481	-0.067
Mof_H 	H 	0.3913	0.076	0.0364	0.043
Mof_H 	H 	0.362	0.1005	0.9599	0.048
Mof_C 	C 	0.33956	0.07247	0.1196	-0.054
Mof_H 	H 	0.3164	0.0856	0.107	0.04
Mof_H 	H 	0.3368	0.0476	0.0839	0.04
Mof_N 	N 	0.78782	0.69733	0.8067	-0.162
Mof_N 	N 	0.79907	0.69721	0.9409	-0.38
Mof_C 	C 	0.80475	0.66861	0.7535	0.117
Mof_H 	H 	0.8026	0.662	0.6633	-0.019
Mof_C 	C 	0.82125	0.66833	0.9592	0.202
Mof_H 	H 	0.8322	0.662	0.0408	-0.051
Mof_N 	N 	0.82577	0.64948	0.8439	-0.212
Mof_N 	N 	0.78754	0.7778	0.8576	-0.203
Mof_N 	N 	0.80066	0.76507	0.9792	-0.358
Mof_C 	C 	0.80455	0.80906	0.837	0.122
Mof_H 	H 	0.8003	0.8238	0.7618	-0.021
Mof_C 	C 	0.82551	0.78989	0.0227	0.162
Mof_H 	H 	0.8387	0.7879	0.1029	-0.038
Mof_N 	N 	0.82884	0.81808	0.9349	-0.202
Mof_N 	N 	0.72455	0.73848	0.9285	-0.191
Mof_N 	N 	0.7448	0.72929	0.0412	-0.375
Mof_C 	C 	0.68983	0.7349	0.9698	0.112
Mof_H 	H 	0.6696	0.7395	0.9141	-0.009
Mof_C 	C 	0.72123	0.72025	0.1392	0.18
Mof_H 	H 	0.7284	0.7123	0.2243	-0.049
Mof_N 	N 	0.68606	0.72402	0.1002	-0.159
Mof_B 	B 	0.78751	0.7277	0.0389	1.477
Mof_H 	H 	0.7977	0.7235	0.1291	-0.547
Mof_Mn	Mn	0.87835	0.61414	0.82845	0.99
Mof_N 	N 	0.88069	0.6246	0.6316	-0.217
Mof_C 	C 	0.88785	0.65623	0.5767	0.094
Mof_H 	H 	0.8872	0.6581	0.4833	-0.001
Mof_C 	C 	0.89691	0.68893	0.6546	-0.17
Mof_C 	C 	0.8989	0.7228	0.5859	0.095
Mof_H 	H 	0.8953	0.7235	0.4932	-0.001
Mof_C 	C 	0.9061	0.7552	0.6547	-0.203
Mof_H 	H 	0.9073	0.7775	0.6085	0.107
Mof_C 	C 	0.9114	0.7545	0.7882	0.15
Mof_H 	H 	0.9156	0.7766	0.8337	-0.009
Mof_C 	C 	0.9108	0.7216	0.8601	-0.273
Mof_H 	H 	0.9152	0.7218	0.9524	0.138
Mof_C 	C 	0.90362	0.68872	0.7947	0.276
Mof_O 	O 	0.90453	0.65745	0.8704	-0.389
Mof_N 	N 	0.84918	0.57098	0.7646	-0.214
Mof_C 	C 	0.83667	0.54459	0.8404	0.073
Mof_H 	H 	0.8222	0.5265	0.7996	0.003
Mof_C 	C 	0.84342	0.54104	0.9836	-0.134
Mof_C 	C 	0.8322	0.5079	0.0479	0.036
Mof_H 	H 	0.8189	0.4904	0.9992	0.018
Mof_C 	C 	0.8404	0.5011	0.1812	-0.155
Mof_H 	H 	0.8327	0.4791	0.2211	0.082
Mof_C 	C 	0.86	0.5268	0.2559	0.11
Mof_H 	H 	0.866	0.5218	0.3452	-0.017
Mof_C 	C 	0.8705	0.5596	0.1974	-0.248
Mof_H 	H 	0.8832	0.577	0.2488	0.125
Mof_C 	C 	0.86252	0.56771	0.0629	0.254
Mof_O 	O 	0.87422	0.59966	0.0114	-0.392
Mof_C 	C 	0.87023	0.59233	0.5481	-0.059
Mof_H 	H 	0.8913	0.576	0.5364	0.042
Mof_H 	H 	0.862	0.6005	0.4599	0.044
Mof_C 	C 	0.83956	0.57247	0.6196	-0.06
Mof_H 	H 	0.8164	0.5856	0.607	0.042
Mof_H 	H 	0.8368	0.5476	0.5839	0.044
Mof_N 	N 	0.21218	0.80267	0.8067	-0.162
Mof_N 	N 	0.20093	0.80279	0.9409	-0.38
Mof_C 	C 	0.19525	0.83139	0.7535	0.117
Mof_H 	H 	0.1974	0.838	0.6633	-0.019
Mof_C 	C 	0.17875	0.83167	0.9592	0.202
Mof_H 	H 	0.1678	0.838	0.0408	-0.051
Mof_N 	N 	0.17423	0.85052	0.8439	-0.212
Mof_N 	N 	0.21246	0.7222	0.8576	-0.203
Mof_N 	N 	0.19934	0.73493	0.9792	-0.357
Mof_C 	C 	0.19545	0.69094	0.837	0.122
Mof_H 	H 	0.1997	0.6762	0.7618	-0.021
Mof_C 	C 	0.17449	0.71011	0.0227	0.162
Mof_H 	H 	0.1613	0.7121	0.1029	-0.038
Mof_N 	N 	0.17116	0.68192	0.9349	-0.202
Mof_N 	N 	0.27545	0.76152	0.9285	-0.191
Mof_N 	N 	0.2552	0.77071	0.0412	-0.375
Mof_C 	C 	0.31017	0.7651	0.9698	0.112
Mof_H 	H 	0.3304	0.7605	0.9141	-0.009
Mof_C 	C 	0.27877	0.77975	0.1392	0.18
Mof_H 	H 	0.2716	0.7877	0.2243	-0.049
Mof_N 	N 	0.31394	0.77598	0.1002	-0.159
Mof_B 	B 	0.21249	0.7723	0.0389	1.477
Mof_H 	H 	0.2023	0.7765	0.1291	-0.547
Mof_Mn	Mn	0.12165	0.88586	0.82845	0.989
Mof_N 	N 	0.11931	0.8754	0.6316	-0.217
Mof_C 	C 	0.11215	0.84377	0.5767	0.093
Mof_H 	H 	0.1128	0.8419	0.4833	-0.001
Mof_C 	C 	0.10309	0.81107	0.6546	-0.17
Mof_C 	C 	0.1011	0.7772	0.5859	0.094
Mof_H 	H 	0.1047	0.7765	0.4932	-0.002
Mof_C 	C 	0.0939	0.7448	0.6547	-0.203
Mof_H 	H 	0.0927	0.7225	0.6085	0.106
Mof_C 	C 	0.0886	0.7455	0.7882	0.149
Mof_H 	H 	0.0844	0.7234	0.8337	-0.009
Mof_C 	C 	0.0892	0.7784	0.8601	-0.273
Mof_H 	H 	0.0848	0.7782	0.9524	0.138
Mof_C 	C 	0.09638	0.81128	0.7947	0.275
Mof_O 	O 	0.09547	0.84255	0.8704	-0.389
Mof_N 	N 	0.15082	0.92902	0.7646	-0.214
Mof_C 	C 	0.16333	0.95541	0.8404	0.073
Mof_H 	H 	0.1778	0.9735	0.7996	0.004
Mof_C 	C 	0.15658	0.95896	0.9836	-0.134
Mof_C 	C 	0.1678	0.9921	0.0479	0.041
Mof_H 	H 	0.1811	0.0096	0.9992	0.013
Mof_C 	C 	0.1596	0.9989	0.1812	-0.142
Mof_H 	H 	0.1673	0.0209	0.2211	0.074
Mof_C 	C 	0.14	0.9732	0.2559	0.103
Mof_H 	H 	0.134	0.9782	0.3452	-0.013
Mof_C 	C 	0.1295	0.9404	0.1974	-0.244
Mof_H 	H 	0.1168	0.923	0.2488	0.124
Mof_C 	C 	0.13748	0.93229	0.0629	0.253
Mof_O 	O 	0.12578	0.90034	0.0114	-0.392
Mof_C 	C 	0.12977	0.90767	0.5481	-0.059
Mof_H 	H 	0.1087	0.924	0.5364	0.042
Mof_H 	H 	0.138	0.8995	0.4599	0.044
Mof_C 	C 	0.16044	0.92753	0.6196	-0.06
Mof_H 	H 	0.1836	0.9144	0.607	0.043
Mof_H 	H 	0.1632	0.9524	0.5839	0.044
Mof_N 	N 	0.71218	0.30267	0.3067	-0.162
Mof_N 	N 	0.70093	0.30279	0.4409	-0.384
Mof_C 	C 	0.69525	0.33139	0.2535	0.117
Mof_H 	H 	0.6974	0.338	0.1633	-0.02
Mof_C 	C 	0.67875	0.33167	0.4592	0.187
Mof_H 	H 	0.6678	0.338	0.5408	-0.04
Mof_N 	N 	0.67423	0.35052	0.3439	-0.21
Mof_N 	N 	0.71246	0.2222	0.3576	-0.204
Mof_N 	N 	0.69934	0.23493	0.4792	-0.37
Mof_C 	C 	0.69545	0.19094	0.337	0.121
Mof_H 	H 	0.6997	0.1762	0.2618	-0.02
Mof_C 	C 	0.67449	0.21011	0.5227	0.182
Mof_H 	H 	0.6613	0.2121	0.6029	-0.043
Mof_N 	N 	0.67116	0.18192	0.4349	-0.209
Mof_N 	N 	0.77545	0.26152	0.4285	-0.192
Mof_N 	N 	0.7552	0.27071	0.5412	-0.375
Mof_C 	C 	0.81017	0.2651	0.4698	0.103
Mof_H 	H 	0.8304	0.2605	0.4141	-0.007
Mof_C 	C 	0.77877	0.27975	0.6392	0.183
Mof_H 	H 	0.7716	0.2877	0.7243	-0.05
Mof_N 	N 	0.81394	0.27598	0.6002	-0.154
Mof_B 	B 	0.71249	0.2723	0.5389	1.504
Mof_H 	H 	0.7023	0.2765	0.6291	-0.555
Mof_Mn	Mn	0.62165	0.38586	0.32845	0.985
Mof_N 	N 	0.61931	0.3754	0.1316	-0.214
Mof_C 	C 	0.61215	0.34377	0.0767	0.088
Mof_H 	H 	0.6128	0.3419	0.9833	0.003
Mof_C 	C 	0.60309	0.31107	0.1546	-0.166
Mof_C 	C 	0.6011	0.2772	0.0859	0.088
Mof_H 	H 	0.6047	0.2765	0.9932	0.002
Mof_C 	C 	0.5939	0.2448	0.1547	-0.198
Mof_H 	H 	0.5927	0.2225	0.1085	0.104
Mof_C 	C 	0.5886	0.2455	0.2882	0.144
Mof_H 	H 	0.5844	0.2234	0.3337	-0.008
Mof_C 	C 	0.5892	0.2784	0.3601	-0.27
Mof_H 	H 	0.5848	0.2782	0.4524	0.134
Mof_C 	C 	0.59638	0.31128	0.2947	0.272
Mof_O 	O 	0.59547	0.34255	0.3704	-0.39
Mof_N 	N 	0.65082	0.42902	0.2646	-0.218
Mof_C 	C 	0.66333	0.45541	0.3404	0.087
Mof_H 	H 	0.6778	0.4735	0.2996	-0.002
Mof_C 	C 	0.65658	0.45896	0.4836	-0.168
Mof_C 	C 	0.6678	0.4921	0.5479	0.083
Mof_H 	H 	0.6811	0.5096	0.4992	-0.002
Mof_C 	C 	0.6596	0.4989	0.6812	-0.189
Mof_H 	H 	0.6673	0.5209	0.7211	0.095
Mof_C 	C 	0.64	0.4732	0.7559	0.138
Mof_H 	H 	0.634	0.4782	0.8452	-0.026
Mof_C 	C 	0.6295	0.4404	0.6974	-0.271
Mof_H 	H 	0.6168	0.423	0.7488	0.134
Mof_C 	C 	0.63748	0.43229	0.5629	0.278
Mof_O 	O 	0.62578	0.40034	0.5114	-0.392
Mof_C 	C 	0.62977	0.40767	0.0481	-0.067
Mof_H 	H 	0.6087	0.424	0.0364	0.043
Mof_H 	H 	0.638	0.3995	0.9599	0.048
Mof_C 	C 	0.66044	0.42753	0.1196	-0.054
Mof_H 	H 	0.6836	0.4144	0.107	0.04
Mof_H 	H 	0.6632	0.4524	0.0839	0.041
Mof_N 	N 	0.05267	0.53782	0.9433	-0.164
Mof_N 	N 	0.05279	0.54907	0.8091	-0.383
Mof_C 	C 	0.08139	0.55475	0.9965	0.132
Mof_H 	H 	0.088	0.5526	0.0867	-0.029
Mof_C 	C 	0.08167	0.57125	0.7908	0.186
Mof_H 	H 	0.088	0.5822	0.7092	-0.04
Mof_N 	N 	0.10052	0.57577	0.9061	-0.212
Mof_N 	N 	0.9722	0.53754	0.8924	-0.2
Mof_N 	N 	0.98493	0.55066	0.7708	-0.367
Mof_C 	C 	0.94094	0.55455	0.913	0.121
Mof_H 	H 	0.9262	0.5503	0.9882	-0.017
Mof_C 	C 	0.96011	0.57551	0.7273	0.182
Mof_H 	H 	0.9621	0.5887	0.6471	-0.042
Mof_N 	N 	0.93192	0.57884	0.8151	-0.208
Mof_N 	N 	0.01152	0.47455	0.8215	-0.192
Mof_N 	N 	0.02071	0.4948	0.7088	-0.374
Mof_C 	C 	0.0151	0.43983	0.7802	0.102
Mof_H 	H 	0.0105	0.4196	0.8359	-0.007
Mof_C 	C 	0.02975	0.47123	0.6108	0.182
Mof_H 	H 	0.0377	0.4784	0.5257	-0.051
Mof_N 	N 	0.02598	0.43606	0.6498	-0.155
Mof_B 	B 	0.0223	0.53751	0.7111	1.496
Mof_H 	H 	0.0265	0.5477	0.6209	-0.554
Mof_Mn	Mn	0.13586	0.62835	0.92155	0.993
Mof_N 	N 	0.1254	0.63069	0.1184	-0.222
Mof_C 	C 	0.09377	0.63785	0.1733	0.105
Mof_H 	H 	0.0919	0.6372	0.2667	-0.005
Mof_C 	C 	0.06107	0.64691	0.0954	-0.2
Mof_C 	C 	0.0272	0.6489	0.1641	0.121
Mof_H 	H 	0.0265	0.6453	0.2568	-0.012
Mof_C 	C 	0.9948	0.6561	0.0953	-0.249
Mof_H 	H 	0.9725	0.6573	0.1415	0.121
Mof_C 	C 	0.9955	0.6614	0.9618	0.208
Mof_H 	H 	0.9734	0.6656	0.9163	-0.028
Mof_C 	C 	0.0284	0.6608	0.8899	-0.318
Mof_H 	H 	0.0282	0.6652	0.7976	0.149
Mof_C 	C 	0.06128	0.65362	0.9553	0.307
Mof_O 	O 	0.09255	0.65453	0.8796	-0.398
Mof_N 	N 	0.17902	0.59918	0.9854	-0.213
Mof_C 	C 	0.20541	0.58667	0.9096	0.086
Mof_H 	H 	0.2235	0.5722	0.9504	0
Mof_C 	C 	0.20896	0.59342	0.7664	-0.168
Mof_C 	C 	0.2421	0.5822	0.7021	0.083
Mof_H 	H 	0.2596	0.5689	0.7508	-0.002
Mof_C 	C 	0.2489	0.5904	0.5688	-0.189
Mof_H 	H 	0.2709	0.5827	0.5289	0.095
Mof_C 	C 	0.2232	0.61	0.4941	0.139
Mof_H 	H 	0.2282	0.616	0.4048	-0.027
Mof_C 	C 	0.1904	0.6205	0.5526	-0.272
Mof_H 	H 	0.173	0.6332	0.5012	0.134
Mof_C 	C 	0.18229	0.61252	0.6871	0.279
Mof_O 	O 	0.15034	0.62422	0.7386	-0.393
Mof_C 	C 	0.15767	0.62023	0.2019	-0.055
Mof_H 	H 	0.174	0.6413	0.2136	0.04
Mof_H 	H 	0.1495	0.612	0.2901	0.043
Mof_C 	C 	0.17753	0.58956	0.1304	-0.067
Mof_H 	H 	0.1644	0.5664	0.143	0.044
Mof_H 	H 	0.2024	0.5868	0.1661	0.045
Mof_N 	N 	0.55267	0.03782	0.4433	-0.163
Mof_N 	N 	0.55279	0.04907	0.3091	-0.383
Mof_C 	C 	0.58139	0.05475	0.4965	0.116
Mof_H 	H 	0.588	0.0526	0.5867	-0.02
Mof_C 	C 	0.58167	0.07125	0.2908	0.186
Mof_H 	H 	0.588	0.0822	0.2092	-0.04
Mof_N 	N 	0.60052	0.07577	0.4061	-0.21
Mof_N 	N 	0.4722	0.03754	0.3924	-0.205
Mof_N 	N 	0.48493	0.05066	0.2708	-0.37
Mof_C 	C 	0.44094	0.05455	0.413	0.12
Mof_H 	H 	0.4262	0.0503	0.4882	-0.021
Mof_C 	C 	0.46011	0.07551	0.2273	0.181
Mof_H 	H 	0.4621	0.0887	0.1471	-0.043
Mof_N 	N 	0.43192	0.07884	0.3151	-0.209
Mof_N 	N 	0.51152	0.97455	0.3215	-0.191
Mof_N 	N 	0.52071	0.9948	0.2088	-0.371
Mof_C 	C 	0.5151	0.93983	0.2802	0.102
Mof_H 	H 	0.5105	0.9196	0.3359	-0.007
Mof_C 	C 	0.52975	0.97123	0.1108	0.182
Mof_H 	H 	0.5377	0.9784	0.0257	-0.05
Mof_N 	N 	0.52598	0.93606	0.1498	-0.155
Mof_B 	B 	0.5223	0.03751	0.2111	1.494
Mof_H 	H 	0.5265	0.0477	0.1209	-0.553
Mof_Mn	Mn	0.63586	0.12835	0.42155	0.986
Mof_N 	N 	0.6254	0.13069	0.6184	-0.216
Mof_C 	C 	0.59377	0.13785	0.6733	0.093
Mof_H 	H 	0.5919	0.1372	0.7667	-0
Mof_C 	C 	0.56107	0.14691	0.5954	-0.169
Mof_C 	C 	0.5272	0.1489	0.6641	0.093
Mof_H 	H 	0.5265	0.1453	0.7568	-0
Mof_C 	C 	0.4948	0.1561	0.5953	-0.202
Mof_H 	H 	0.4725	0.1573	0.6415	0.106
Mof_C 	C 	0.4955	0.1614	0.4618	0.148
Mof_H 	H 	0.4734	0.1656	0.4163	-0.009
Mof_C 	C 	0.5284	0.1608	0.3899	-0.273
Mof_H 	H 	0.5282	0.1652	0.2976	0.135
Mof_C 	C 	0.56128	0.15362	0.4553	0.275
Mof_O 	O 	0.59255	0.15453	0.3796	-0.391
Mof_N 	N 	0.67902	0.09918	0.4854	-0.218
Mof_C 	C 	0.70541	0.08667	0.4096	0.09
Mof_H 	H 	0.7235	0.0722	0.4504	-0.003
Mof_C 	C 	0.70896	0.09342	0.2664	-0.174
Mof_C 	C 	0.7421	0.0822	0.2021	0.092
Mof_H 	H 	0.7596	0.0689	0.2508	-0.006
Mof_C 	C 	0.7489	0.0904	0.0688	-0.204
Mof_H 	H 	0.7709	0.0827	0.0289	0.099
Mof_C 	C 	0.7232	0.11	0.9941	0.156
Mof_H 	H 	0.7282	0.116	0.9048	-0.032
Mof_C 	C 	0.6904	0.1205	0.0526	-0.285
Mof_H 	H 	0.673	0.1332	0.0012	0.137
Mof_C 	C 	0.68229	0.11252	0.1871	0.285
Mof_O 	O 	0.65034	0.12422	0.2386	-0.393
Mof_C 	C 	0.65767	0.12023	0.7019	-0.06
Mof_H 	H 	0.674	0.1413	0.7136	0.042
Mof_H 	H 	0.6495	0.112	0.7901	0.044
Mof_C 	C 	0.67753	0.08956	0.6304	-0.057
Mof_H 	H 	0.6644	0.0664	0.643	0.041
Mof_H 	H 	0.7024	0.0868	0.6661	0.043
Mof_N 	N 	0.44733	0.46218	0.4433	-0.162
Mof_N 	N 	0.44721	0.45093	0.3091	-0.384
Mof_C 	C 	0.41861	0.44525	0.4965	0.117
Mof_H 	H 	0.412	0.4474	0.5867	-0.019
Mof_C 	C 	0.41833	0.42875	0.2908	0.187
Mof_H 	H 	0.412	0.4178	0.2092	-0.04
Mof_N 	N 	0.39948	0.42423	0.4061	-0.21
Mof_N 	N 	0.5278	0.46246	0.3924	-0.204
Mof_N 	N 	0.51507	0.44934	0.2708	-0.371
Mof_C 	C 	0.55906	0.44545	0.413	0.121
Mof_H 	H 	0.5738	0.4497	0.4882	-0.02
Mof_C 	C 	0.53989	0.42449	0.2273	0.181
Mof_H 	H 	0.5379	0.4113	0.1471	-0.043
Mof_N 	N 	0.56808	0.42116	0.3151	-0.209
Mof_N 	N 	0.48848	0.52545	0.3215	-0.192
Mof_N 	N 	0.47929	0.5052	0.2088	-0.375
Mof_C 	C 	0.4849	0.56017	0.2802	0.102
Mof_H 	H 	0.4895	0.5804	0.3359	-0.007
Mof_C 	C 	0.47025	0.52877	0.1108	0.182
Mof_H 	H 	0.4623	0.5216	0.0257	-0.051
Mof_N 	N 	0.47402	0.56394	0.1498	-0.156
Mof_B 	B 	0.4777	0.46249	0.2111	1.503
Mof_H 	H 	0.4735	0.4523	0.1209	-0.555
Mof_Mn	Mn	0.36414	0.37165	0.42155	0.986
Mof_N 	N 	0.3746	0.36931	0.6184	-0.216
Mof_C 	C 	0.40623	0.36215	0.6733	0.093
Mof_H 	H 	0.4081	0.3628	0.7667	0
Mof_C 	C 	0.43893	0.35309	0.5954	-0.169
Mof_C 	C 	0.4728	0.3511	0.6641	0.093
Mof_H 	H 	0.4735	0.3547	0.7568	-0
Mof_C 	C 	0.5052	0.3439	0.5953	-0.202
Mof_H 	H 	0.5275	0.3427	0.6415	0.106
Mof_C 	C 	0.5045	0.3386	0.4618	0.148
Mof_H 	H 	0.5266	0.3344	0.4163	-0.009
Mof_C 	C 	0.4716	0.3392	0.3899	-0.273
Mof_H 	H 	0.4718	0.3348	0.2976	0.135
Mof_C 	C 	0.43872	0.34638	0.4553	0.274
Mof_O 	O 	0.40745	0.34547	0.3796	-0.391
Mof_N 	N 	0.32098	0.40082	0.4854	-0.218
Mof_C 	C 	0.29459	0.41333	0.4096	0.089
Mof_H 	H 	0.2765	0.4278	0.4504	-0.003
Mof_C 	C 	0.29104	0.40658	0.2664	-0.174
Mof_C 	C 	0.2579	0.4178	0.2021	0.092
Mof_H 	H 	0.2404	0.4311	0.2508	-0.005
Mof_C 	C 	0.2511	0.4096	0.0688	-0.204
Mof_H 	H 	0.2291	0.4173	0.0289	0.099
Mof_C 	C 	0.2768	0.39	0.9941	0.156
Mof_H 	H 	0.2718	0.384	0.9048	-0.032
Mof_C 	C 	0.3096	0.3795	0.0526	-0.285
Mof_H 	H 	0.327	0.3668	0.0012	0.138
Mof_C 	C 	0.31771	0.38748	0.1871	0.285
Mof_O 	O 	0.34966	0.37578	0.2386	-0.393
Mof_C 	C 	0.34233	0.37977	0.7019	-0.059
Mof_H 	H 	0.326	0.3587	0.7136	0.042
Mof_H 	H 	0.3505	0.388	0.7901	0.045
Mof_C 	C 	0.32247	0.41044	0.6304	-0.058
Mof_H 	H 	0.3356	0.4336	0.643	0.042
Mof_H 	H 	0.2976	0.4132	0.6661	0.044
Mof_N 	N 	0.94733	0.96218	0.9433	-0.16
Mof_N 	N 	0.94721	0.95093	0.8091	-0.386
Mof_C 	C 	0.91861	0.94525	0.9965	0.132
Mof_H 	H 	0.912	0.9474	0.0867	-0.027
Mof_C 	C 	0.91833	0.92875	0.7908	0.189
Mof_H 	H 	0.912	0.9178	0.7092	-0.04
Mof_N 	N 	0.89948	0.92423	0.9061	-0.212
Mof_N 	N 	0.0278	0.96246	0.8924	-0.201
Mof_N 	N 	0.01507	0.94934	0.7708	-0.375
Mof_C 	C 	0.05906	0.94545	0.913	0.122
Mof_H 	H 	0.0738	0.9497	0.9882	-0.017
Mof_C 	C 	0.03989	0.92449	0.7273	0.183
Mof_H 	H 	0.0379	0.9113	0.6471	-0.044
Mof_N 	N 	0.06808	0.92116	0.8151	-0.208
Mof_N 	N 	0.98848	0.02545	0.8215	-0.19
Mof_N 	N 	0.97929	0.0052	0.7088	-0.379
Mof_C 	C 	0.9849	0.06017	0.7802	0.104
Mof_H 	H 	0.9895	0.0804	0.8359	-0.004
Mof_C 	C 	0.97025	0.02877	0.6108	0.184
Mof_H 	H 	0.9623	0.0216	0.5257	-0.051
Mof_N 	N 	0.97402	0.06394	0.6498	-0.154
Mof_B 	B 	0.9777	0.96249	0.7111	1.523
Mof_H 	H 	0.9735	0.9523	0.6209	-0.559
Mof_Mn	Mn	0.86414	0.87165	0.92155	0.993
Mof_N 	N 	0.8746	0.86931	0.1184	-0.222
Mof_C 	C 	0.90623	0.86215	0.1733	0.107
Mof_H 	H 	0.9081	0.8628	0.2667	-0.005
Mof_C 	C 	0.93893	0.85309	0.0954	-0.203
Mof_C 	C 	0.9728	0.8511	0.1641	0.14
Mof_H 	H 	0.9735	0.8547	0.2568	-0.015
Mof_C 	C 	0.0052	0.8439	0.0953	-0.264
Mof_H 	H 	0.0275	0.8427	0.1415	0.125
Mof_C 	C 	0.0045	0.8386	0.9618	0.196
Mof_H 	H 	0.0266	0.8344	0.9163	-0.026
Mof_C 	C 	0.9716	0.8392	0.8899	-0.302
Mof_H 	H 	0.9718	0.8348	0.7976	0.147
Mof_C 	C 	0.93872	0.84638	0.9553	0.305
Mof_O 	O 	0.90745	0.84547	0.8796	-0.397
Mof_N 	N 	0.82098	0.90082	0.9854	-0.213
Mof_C 	C 	0.79459	0.91333	0.9096	0.086
Mof_H 	H 	0.7765	0.9278	0.9504	0.001
Mof_C 	C 	0.79104	0.90658	0.7664	-0.168
Mof_C 	C 	0.7579	0.9178	0.7021	0.083
Mof_H 	H 	0.7404	0.9311	0.7508	-0.001
Mof_C 	C 	0.7511	0.9096	0.5688	-0.189
Mof_H 	H 	0.7291	0.9173	0.5289	0.095
Mof_C 	C 	0.7768	0.89	0.4941	0.139
Mof_H 	H 	0.7718	0.884	0.4048	-0.027
Mof_C 	C 	0.8096	0.8795	0.5526	-0.272
Mof_H 	H 	0.827	0.8668	0.5012	0.134
Mof_C 	C 	0.81771	0.88748	0.6871	0.279
Mof_O 	O 	0.84966	0.87578	0.7386	-0.392
Mof_C 	C 	0.84233	0.87977	0.2019	-0.055
Mof_H 	H 	0.826	0.8587	0.2136	0.04
Mof_H 	H 	0.8505	0.888	0.2901	0.043
Mof_C 	C 	0.82247	0.91044	0.1304	-0.068
Mof_H 	H 	0.8356	0.9336	0.143	0.045
Mof_H 	H 	0.7976	0.9132	0.1661	0.045
Mof_N 	N 	0.71218	0.80267	0.6933	-0.162
Mof_N 	N 	0.70093	0.80279	0.5591	-0.384
Mof_C 	C 	0.69525	0.83139	0.7465	0.117
Mof_H 	H 	0.6974	0.838	0.8367	-0.018
Mof_C 	C 	0.67875	0.83167	0.5408	0.187
Mof_H 	H 	0.6678	0.838	0.4592	-0.04
Mof_N 	N 	0.67423	0.85052	0.6561	-0.21
Mof_N 	N 	0.71246	0.7222	0.6424	-0.204
Mof_N 	N 	0.69934	0.73493	0.5208	-0.371
Mof_C 	C 	0.69545	0.69094	0.663	0.121
Mof_H 	H 	0.6997	0.6762	0.7382	-0.02
Mof_C 	C 	0.67449	0.71011	0.4773	0.182
Mof_H 	H 	0.6613	0.7121	0.3971	-0.043
Mof_N 	N 	0.67116	0.68192	0.5651	-0.209
Mof_N 	N 	0.77545	0.76152	0.5715	-0.192
Mof_N 	N 	0.7552	0.77071	0.4588	-0.375
Mof_C 	C 	0.81017	0.7651	0.5302	0.102
Mof_H 	H 	0.8304	0.7605	0.5859	-0.007
Mof_C 	C 	0.77877	0.77975	0.3608	0.183
Mof_H 	H 	0.7716	0.7877	0.2757	-0.051
Mof_N 	N 	0.81394	0.77598	0.3998	-0.155
Mof_B 	B 	0.71249	0.7723	0.4611	1.503
Mof_H 	H 	0.7023	0.7765	0.3709	-0.555
Mof_Mn	Mn	0.62165	0.88586	0.67155	0.986
Mof_N 	N 	0.61931	0.8754	0.8684	-0.222
Mof_C 	C 	0.61215	0.84377	0.9233	0.115
Mof_H 	H 	0.6128	0.8419	0.0167	-0.012
Mof_C 	C 	0.60309	0.81107	0.8454	-0.189
Mof_C 	C 	0.6011	0.7772	0.9141	0.128
Mof_H 	H 	0.6047	0.7765	0.0068	-0.018
Mof_C 	C 	0.5939	0.7448	0.8453	-0.229
Mof_H 	H 	0.5927	0.7225	0.8915	0.117
Mof_C 	C 	0.5886	0.7455	0.7118	0.17
Mof_H 	H 	0.5844	0.7234	0.6663	-0.017
Mof_C 	C 	0.5892	0.7784	0.6399	-0.289
Mof_H 	H 	0.5848	0.7782	0.5476	0.141
Mof_C 	C 	0.59638	0.81128	0.7053	0.287
Mof_O 	O 	0.59547	0.84255	0.6296	-0.394
Mof_N 	N 	0.65082	0.92902	0.7354	-0.216
Mof_C 	C 	0.66333	0.95541	0.6596	0.087
Mof_H 	H 	0.6778	0.9735	0.7004	-0
Mof_C 	C 	0.65658	0.95896	0.5164	-0.169
Mof_C 	C 	0.6678	0.9921	0.4521	0.089
Mof_H 	H 	0.6811	0.0096	0.5008	-0.008
Mof_C 	C 	0.6596	0.9989	0.3188	-0.178
Mof_H 	H 	0.6673	0.0209	0.2789	0.087
Mof_C 	C 	0.64	0.9732	0.2441	0.133
Mof_H 	H 	0.634	0.9782	0.1548	-0.024
Mof_C 	C 	0.6295	0.9404	0.3026	-0.269
Mof_H 	H 	0.6168	0.923	0.2512	0.132
Mof_C 	C 	0.63748	0.93229	0.4371	0.277
Mof_O 	O 	0.62578	0.90034	0.4886	-0.392
Mof_C 	C 	0.62977	0.90767	0.9519	-0.042
Mof_H 	H 	0.6087	0.924	0.9636	0.039
Mof_H 	H 	0.638	0.8995	0.0401	0.035
Mof_C 	C 	0.66044	0.92753	0.8804	-0.067
Mof_H 	H 	0.6836	0.9144	0.893	0.046
Mof_H 	H 	0.6632	0.9524	0.9161	0.048
Mof_N 	N 	0.21218	0.30267	0.1933	-0.163
Mof_N 	N 	0.20093	0.30279	0.0591	-0.385
Mof_C 	C 	0.19525	0.33139	0.2465	0.117
Mof_H 	H 	0.1974	0.338	0.3367	-0.019
Mof_C 	C 	0.17875	0.33167	0.0408	0.182
Mof_H 	H 	0.1678	0.338	0.9592	-0.036
Mof_N 	N 	0.17423	0.35052	0.1561	-0.21
Mof_N 	N 	0.21246	0.2222	0.1424	-0.204
Mof_N 	N 	0.19934	0.23493	0.0208	-0.375
Mof_C 	C 	0.19545	0.19094	0.163	0.12
Mof_H 	H 	0.1997	0.1762	0.2382	-0.02
Mof_C 	C 	0.17449	0.21011	0.9773	0.188
Mof_H 	H 	0.1613	0.2121	0.8971	-0.044
Mof_N 	N 	0.17116	0.18192	0.0651	-0.211
Mof_N 	N 	0.27545	0.26152	0.0715	-0.193
Mof_N 	N 	0.2552	0.27071	0.9588	-0.375
Mof_C 	C 	0.31017	0.2651	0.0302	0.101
Mof_H 	H 	0.3304	0.2605	0.0859	-0.007
Mof_C 	C 	0.27877	0.27975	0.8608	0.184
Mof_H 	H 	0.2716	0.2877	0.7757	-0.05
Mof_N 	N 	0.31394	0.27598	0.8998	-0.154
Mof_B 	B 	0.21249	0.2723	0.9611	1.511
Mof_H 	H 	0.2023	0.2765	0.8709	-0.557
Mof_Mn	Mn	0.12165	0.38586	0.17155	0.984
Mof_N 	N 	0.11931	0.3754	0.3684	-0.216
Mof_C 	C 	0.11215	0.34377	0.4233	0.093
Mof_H 	H 	0.1128	0.3419	0.5167	-0
Mof_C 	C 	0.10309	0.31107	0.3454	-0.169
Mof_C 	C 	0.1011	0.2772	0.4141	0.093
Mof_H 	H 	0.1047	0.2765	0.5068	-0
Mof_C 	C 	0.0939	0.2448	0.3453	-0.202
Mof_H 	H 	0.0927	0.2225	0.3915	0.106
Mof_C 	C 	0.0886	0.2455	0.2118	0.147
Mof_H 	H 	0.0844	0.2234	0.1663	-0.01
Mof_C 	C 	0.0892	0.2784	0.1399	-0.273
Mof_H 	H 	0.0848	0.2782	0.0476	0.134
Mof_C 	C 	0.09638	0.31128	0.2053	0.274
Mof_O 	O 	0.09547	0.34255	0.1296	-0.392
Mof_N 	N 	0.15082	0.42902	0.2354	-0.22
Mof_C 	C 	0.16333	0.45541	0.1596	0.098
Mof_H 	H 	0.1778	0.4735	0.2004	-0.006
Mof_C 	C 	0.15658	0.45896	0.0164	-0.195
Mof_C 	C 	0.1678	0.4921	0.9521	0.121
Mof_H 	H 	0.1811	0.5096	0.0008	-0.019
Mof_C 	C 	0.1596	0.4989	0.8188	-0.217
Mof_H 	H 	0.1673	0.5209	0.7789	0.105
Mof_C 	C 	0.14	0.4732	0.7441	0.161
Mof_H 	H 	0.134	0.4782	0.6548	-0.035
Mof_C 	C 	0.1295	0.4404	0.8026	-0.29
Mof_H 	H 	0.1168	0.423	0.7512	0.14
Mof_C 	C 	0.13748	0.43229	0.9371	0.297
Mof_O 	O 	0.12578	0.40034	0.9886	-0.393
Mof_C 	C 	0.12977	0.40767	0.4519	-0.06
Mof_H 	H 	0.1087	0.424	0.4636	0.042
Mof_H 	H 	0.138	0.3995	0.5401	0.044
Mof_C 	C 	0.16044	0.42753	0.3804	-0.057
Mof_H 	H 	0.1836	0.4144	0.393	0.042
Mof_H 	H 	0.1632	0.4524	0.4161	0.043
Mof_N 	N 	0.78782	0.19733	0.1933	-0.163
Mof_N 	N 	0.79907	0.19721	0.0591	-0.385
Mof_C 	C 	0.80475	0.16861	0.2465	0.117
Mof_H 	H 	0.8026	0.162	0.3367	-0.019
Mof_C 	C 	0.82125	0.16833	0.0408	0.182
Mof_H 	H 	0.8322	0.162	0.9592	-0.036
Mof_N 	N 	0.82577	0.14948	0.1561	-0.21
Mof_N 	N 	0.78754	0.2778	0.1424	-0.204
Mof_N 	N 	0.80066	0.26507	0.0208	-0.374
Mof_C 	C 	0.80455	0.30906	0.163	0.12
Mof_H 	H 	0.8003	0.3238	0.2382	-0.02
Mof_C 	C 	0.82551	0.28989	0.9773	0.188
Mof_H 	H 	0.8387	0.2879	0.8971	-0.044
Mof_N 	N 	0.82884	0.31808	0.0651	-0.211
Mof_N 	N 	0.72455	0.23848	0.0715	-0.193
Mof_N 	N 	0.7448	0.22929	0.9588	-0.375
Mof_C 	C 	0.68983	0.2349	0.0302	0.101
Mof_H 	H 	0.6696	0.2395	0.0859	-0.007
Mof_C 	C 	0.72123	0.22025	0.8608	0.184
Mof_H 	H 	0.7284	0.2123	0.7757	-0.05
Mof_N 	N 	0.68606	0.22402	0.8998	-0.154
Mof_B 	B 	0.78751	0.2277	0.9611	1.511
Mof_H 	H 	0.7977	0.2235	0.8709	-0.557
Mof_Mn	Mn	0.87835	0.11414	0.17155	0.984
Mof_N 	N 	0.88069	0.1246	0.3684	-0.216
Mof_C 	C 	0.88785	0.15623	0.4233	0.093
Mof_H 	H 	0.8872	0.1581	0.5167	0
Mof_C 	C 	0.89691	0.18893	0.3454	-0.169
Mof_C 	C 	0.8989	0.2228	0.4141	0.094
Mof_H 	H 	0.8953	0.2235	0.5068	0
Mof_C 	C 	0.9061	0.2552	0.3453	-0.202
Mof_H 	H 	0.9073	0.2775	0.3915	0.106
Mof_C 	C 	0.9114	0.2545	0.2118	0.148
Mof_H 	H 	0.9156	0.2766	0.1663	-0.01
Mof_C 	C 	0.9108	0.2216	0.1399	-0.273
Mof_H 	H 	0.9152	0.2218	0.0476	0.135
Mof_C 	C 	0.90362	0.18872	0.2053	0.275
Mof_O 	O 	0.90453	0.15745	0.1296	-0.392
Mof_N 	N 	0.84918	0.07098	0.2354	-0.22
Mof_C 	C 	0.83667	0.04459	0.1596	0.097
Mof_H 	H 	0.8222	0.0265	0.2004	-0.007
Mof_C 	C 	0.84342	0.04104	0.0164	-0.194
Mof_C 	C 	0.8322	0.0079	0.9521	0.115
Mof_H 	H 	0.8189	0.9904	0.0008	-0.013
Mof_C 	C 	0.8404	0.0011	0.8188	-0.227
Mof_H 	H 	0.8327	0.9791	0.7789	0.112
Mof_C 	C 	0.86	0.0268	0.7441	0.167
Mof_H 	H 	0.866	0.0218	0.6548	-0.038
Mof_C 	C 	0.8705	0.0596	0.8026	-0.293
Mof_H 	H 	0.8832	0.077	0.7512	0.141
Mof_C 	C 	0.86252	0.06771	0.9371	0.298
Mof_O 	O 	0.87422	0.09966	0.9886	-0.393
Mof_C 	C 	0.87023	0.09233	0.4519	-0.06
Mof_H 	H 	0.8913	0.076	0.4636	0.042
Mof_H 	H 	0.862	0.1005	0.5401	0.044
Mof_C 	C 	0.83956	0.07247	0.3804	-0.057
Mof_H 	H 	0.8164	0.0856	0.393	0.042
Mof_H 	H 	0.8368	0.0476	0.4161	0.042
Mof_N 	N 	0.28782	0.69733	0.6933	-0.162
Mof_N 	N 	0.29907	0.69721	0.5591	-0.384
Mof_C 	C 	0.30475	0.66861	0.7465	0.117
Mof_H 	H 	0.3026	0.662	0.8367	-0.018
Mof_C 	C 	0.32125	0.66833	0.5408	0.187
Mof_H 	H 	0.3322	0.662	0.4592	-0.04
Mof_N 	N 	0.32577	0.64948	0.6561	-0.21
Mof_N 	N 	0.28754	0.7778	0.6424	-0.204
Mof_N 	N 	0.30066	0.76507	0.5208	-0.371
Mof_C 	C 	0.30455	0.80906	0.663	0.121
Mof_H 	H 	0.3003	0.8238	0.7382	-0.02
Mof_C 	C 	0.32551	0.78989	0.4773	0.182
Mof_H 	H 	0.3387	0.7879	0.3971	-0.043
Mof_N 	N 	0.32884	0.81808	0.5651	-0.209
Mof_N 	N 	0.22455	0.73848	0.5715	-0.192
Mof_N 	N 	0.2448	0.72929	0.4588	-0.375
Mof_C 	C 	0.18983	0.7349	0.5302	0.102
Mof_H 	H 	0.1696	0.7395	0.5859	-0.007
Mof_C 	C 	0.22123	0.72025	0.3608	0.183
Mof_H 	H 	0.2284	0.7123	0.2757	-0.051
Mof_N 	N 	0.18606	0.72402	0.3998	-0.155
Mof_B 	B 	0.28751	0.7277	0.4611	1.503
Mof_H 	H 	0.2977	0.7235	0.3709	-0.555
Mof_Mn	Mn	0.37835	0.61414	0.67155	0.986
Mof_N 	N 	0.38069	0.6246	0.8684	-0.222
Mof_C 	C 	0.38785	0.65623	0.9233	0.115
Mof_H 	H 	0.3872	0.6581	0.0167	-0.012
Mof_C 	C 	0.39691	0.68893	0.8454	-0.189
Mof_C 	C 	0.3989	0.7228	0.9141	0.128
Mof_H 	H 	0.3953	0.7235	0.0068	-0.018
Mof_C 	C 	0.4061	0.7552	0.8453	-0.229
Mof_H 	H 	0.4073	0.7775	0.8915	0.117
Mof_C 	C 	0.4114	0.7545	0.7118	0.17
Mof_H 	H 	0.4156	0.7766	0.6663	-0.017
Mof_C 	C 	0.4108	0.7216	0.6399	-0.289
Mof_H 	H 	0.4152	0.7218	0.5476	0.141
Mof_C 	C 	0.40362	0.68872	0.7053	0.287
Mof_O 	O 	0.40453	0.65745	0.6296	-0.394
Mof_N 	N 	0.34918	0.57098	0.7354	-0.216
Mof_C 	C 	0.33667	0.54459	0.6596	0.086
Mof_H 	H 	0.3222	0.5265	0.7004	-0.001
Mof_C 	C 	0.34342	0.54104	0.5164	-0.168
Mof_C 	C 	0.3322	0.5079	0.4521	0.083
Mof_H 	H 	0.3189	0.4904	0.5008	-0.002
Mof_C 	C 	0.3404	0.5011	0.3188	-0.19
Mof_H 	H 	0.3327	0.4791	0.2789	0.095
Mof_C 	C 	0.36	0.5268	0.2441	0.139
Mof_H 	H 	0.366	0.5218	0.1548	-0.028
Mof_C 	C 	0.3705	0.5596	0.3026	-0.272
Mof_H 	H 	0.3832	0.577	0.2512	0.133
Mof_C 	C 	0.36252	0.56771	0.4371	0.278
Mof_O 	O 	0.37422	0.59966	0.4886	-0.392
Mof_C 	C 	0.37023	0.59233	0.9519	-0.042
Mof_H 	H 	0.3913	0.576	0.9636	0.038
Mof_H 	H 	0.362	0.6005	0.0401	0.035
Mof_C 	C 	0.33956	0.57247	0.8804	-0.067
Mof_H 	H 	0.3164	0.5856	0.893	0.046
Mof_H 	H 	0.3368	0.5476	0.9161	0.047
Mof_Cu	Cu	-3.90093e-33	0.5	-0	0.846
Mof_Cu	Cu	0.5	0	0.5	0.849
Mof_Cu	Cu	0.5	0.5	0.5	0.852
Mof_Cu	Cu	-0	0	-0	0.843
Mof_Cu	Cu	0.25	0.25	0.25	0.851
Mof_Cu	Cu	0.25	0.75	0.75	0.852
Mof_Cu	Cu	0.75	0.75	0.75	0.852
Mof_Cu	Cu	0.75	0.25	0.25	0.851
_end
