data_functionalizedCrystal
_audit_creation_method	'EQeq! by Chris Wilmer'
_symmetry_space_group_name_H-M	'P1'
_symmetry_Int_Tables_number	1
_symmetry_cell_setting	triclinic
loop_
_symmetry_equiv_pos_as_xyz
  x,y,z
_cell_length_a	11.8051
_cell_length_b	14.1508
_cell_length_c	7.6915
_cell_angle_alpha	90
_cell_angle_beta	91.038
_cell_angle_gamma	90
loop_
_atom_site_label
_atom_site_type_symbol
_atom_site_fract_x
_atom_site_fract_y
_atom_site_fract_z
_atom_site_charge
Mof_O 	O 	0.3766	0.3927	0.2231	-0.442
Mof_O 	O 	0.4043	0.4387	0.4884	-0.569
Mof_N 	N 	0.2888	0.2243	0.3171	-0.084
Mof_N 	N 	0.243	0.157	0.079	-0.107
Mof_C 	C 	0.3663	0.3807	0.3772	0.463
Mof_C 	C 	0.3001	0.2978	0.4475	-0.303
Mof_H 	H 	0.3387	0.2727	0.5498	0.101
Mof_H 	H 	0.2254	0.3189	0.4813	0.117
Mof_C 	C 	0.3592	0.1507	0.2996	-0.004
Mof_H 	H 	0.4189	0.136	0.3754	0.022
Mof_C 	C 	0.3309	0.1015	0.1574	-0.018
Mof_H 	H 	0.3612	0.0448	0.1187	0.028
Mof_C 	C 	0.2209	0.2275	0.1796	0.086
Mof_H 	H 	0.1658	0.2732	0.1583	0.007
Mof_C 	C 	0.1813	0.1302	0.9203	-0.124
Mof_H 	H 	0.2332	0.1009	0.8402	0.064
Mof_H 	H 	0.1504	0.1864	0.865	0.064
Mof_C 	C 	0.0862	0.0623	0.9589	0.067
Mof_C 	C 	0.9827	0.0979	0.9969	-0.075
Mof_H 	H 	0.9698	0.1627	0.9967	0.053
Mof_C 	C 	0.8932	0.0326	0.0376	-0.07
Mof_H 	H 	0.8212	0.0552	0.0616	0.06
Mof_O 	O 	0.4058	0.3329	0.8699	-0.612
Mof_H 	H 	0.3891	0.282	0.8161	0.264
Mof_H 	H 	0.4541	0.3192	0.9535	0.238
Mof_O 	O 	0.3237	0.3853	0.8638	-0.252
Mof_H 	H 	0.2411	0.3982	0.8852	0.098
Mof_H 	H 	0.3476	0.4278	0.934	0.127
Mof_O 	O 	0.6234	0.3927	0.2769	-0.442
Mof_O 	O 	0.5957	0.4387	0.0116	-0.569
Mof_N 	N 	0.7112	0.2243	0.1829	-0.084
Mof_N 	N 	0.757	0.157	0.421	-0.107
Mof_C 	C 	0.6337	0.3807	0.1228	0.463
Mof_C 	C 	0.6999	0.2978	0.0525	-0.301
Mof_H 	H 	0.6613	0.2727	0.9502	0.099
Mof_H 	H 	0.7746	0.3189	0.0187	0.116
Mof_C 	C 	0.6408	0.1507	0.2004	-0.003
Mof_H 	H 	0.5811	0.136	0.1246	0.022
Mof_C 	C 	0.6691	0.1015	0.3426	-0.018
Mof_H 	H 	0.6388	0.0448	0.3813	0.028
Mof_C 	C 	0.7791	0.2275	0.3204	0.086
Mof_H 	H 	0.8342	0.2732	0.3417	0.007
Mof_C 	C 	0.8187	0.1302	0.5797	-0.123
Mof_H 	H 	0.7668	0.1009	0.6598	0.064
Mof_H 	H 	0.8496	0.1864	0.635	0.064
Mof_C 	C 	0.9138	0.0623	0.5411	0.068
Mof_C 	C 	0.0173	0.0979	0.5031	-0.072
Mof_H 	H 	0.0302	0.1627	0.5033	0.052
Mof_C 	C 	0.1068	0.0326	0.4624	-0.074
Mof_H 	H 	0.1788	0.0552	0.4384	0.061
Mof_O 	O 	0.5942	0.3329	0.6301	-0.612
Mof_H 	H 	0.6109	0.282	0.6839	0.265
Mof_H 	H 	0.5459	0.3192	0.5465	0.238
Mof_O 	O 	0.6763	0.3853	0.6362	-0.252
Mof_H 	H 	0.7589	0.3982	0.6148	0.098
Mof_H 	H 	0.6524	0.4278	0.566	0.127
Mof_O 	O 	0.6234	0.6073	0.7769	-0.442
Mof_O 	O 	0.5957	0.5613	0.5116	-0.569
Mof_N 	N 	0.7112	0.7757	0.6829	-0.084
Mof_N 	N 	0.757	0.843	0.921	-0.107
Mof_C 	C 	0.6337	0.6193	0.6228	0.463
Mof_C 	C 	0.6999	0.7022	0.5525	-0.303
Mof_H 	H 	0.6613	0.7273	0.4502	0.101
Mof_H 	H 	0.7746	0.6811	0.5187	0.117
Mof_C 	C 	0.6408	0.8493	0.7004	-0.004
Mof_H 	H 	0.5811	0.864	0.6246	0.022
Mof_C 	C 	0.6691	0.8985	0.8426	-0.018
Mof_H 	H 	0.6388	0.9552	0.8813	0.028
Mof_C 	C 	0.7791	0.7725	0.8204	0.086
Mof_H 	H 	0.8342	0.7268	0.8417	0.007
Mof_C 	C 	0.8187	0.8698	0.0797	-0.124
Mof_H 	H 	0.7668	0.8991	0.1598	0.064
Mof_H 	H 	0.8496	0.8136	0.135	0.064
Mof_C 	C 	0.9138	0.9377	0.0411	0.067
Mof_C 	C 	0.0173	0.9021	0.0031	-0.075
Mof_H 	H 	0.0302	0.8373	0.0033	0.053
Mof_C 	C 	0.1068	0.9674	0.9624	-0.07
Mof_H 	H 	0.1788	0.9448	0.9384	0.06
Mof_O 	O 	0.5942	0.6671	0.1301	-0.612
Mof_H 	H 	0.6109	0.718	0.1839	0.264
Mof_H 	H 	0.5459	0.6808	0.0465	0.238
Mof_O 	O 	0.6763	0.6147	0.1362	-0.252
Mof_H 	H 	0.7589	0.6018	0.1148	0.098
Mof_H 	H 	0.6524	0.5722	0.066	0.127
Mof_O 	O 	0.3766	0.6073	0.7231	-0.442
Mof_O 	O 	0.4043	0.5613	0.9884	-0.569
Mof_N 	N 	0.2888	0.7757	0.8171	-0.084
Mof_N 	N 	0.243	0.843	0.579	-0.107
Mof_C 	C 	0.3663	0.6193	0.8772	0.463
Mof_C 	C 	0.3001	0.7022	0.9475	-0.301
Mof_H 	H 	0.3387	0.7273	0.0498	0.099
Mof_H 	H 	0.2254	0.6811	0.9813	0.116
Mof_C 	C 	0.3592	0.8493	0.7996	-0.003
Mof_H 	H 	0.4189	0.864	0.8754	0.022
Mof_C 	C 	0.3309	0.8985	0.6574	-0.018
Mof_H 	H 	0.3612	0.9552	0.6187	0.028
Mof_C 	C 	0.2209	0.7725	0.6796	0.086
Mof_H 	H 	0.1658	0.7268	0.6583	0.007
Mof_C 	C 	0.1813	0.8698	0.4203	-0.123
Mof_H 	H 	0.2332	0.8991	0.3402	0.064
Mof_H 	H 	0.1504	0.8136	0.365	0.064
Mof_C 	C 	0.0862	0.9377	0.4589	0.068
Mof_C 	C 	0.9827	0.9021	0.4969	-0.072
Mof_H 	H 	0.9698	0.8373	0.4967	0.052
Mof_C 	C 	0.8932	0.9674	0.5376	-0.074
Mof_H 	H 	0.8212	0.9448	0.5616	0.061
Mof_O 	O 	0.4058	0.6671	0.3699	-0.612
Mof_H 	H 	0.3891	0.718	0.3161	0.265
Mof_H 	H 	0.4541	0.6808	0.4535	0.238
Mof_O 	O 	0.3237	0.6147	0.3638	-0.252
Mof_H 	H 	0.2411	0.6018	0.3852	0.098
Mof_H 	H 	0.3476	0.5722	0.434	0.127
Mof_Ca	Ca	0.5	0.46819	0.75	1.6
Mof_Ca	Ca	0.5	0.53181	0.25	1.6
_end
