data_functionalizedCrystal
_audit_creation_method	'EQeq! by Chris Wilmer'
_symmetry_space_group_name_H-M	'P1'
_symmetry_Int_Tables_number	1
_symmetry_cell_setting	triclinic
loop_
_symmetry_equiv_pos_as_xyz
  x,y,z
_cell_length_a	12.766
_cell_length_b	23.34
_cell_length_c	14.903
_cell_angle_alpha	90
_cell_angle_beta	90
_cell_angle_gamma	90
loop_
_atom_site_label
_atom_site_type_symbol
_atom_site_fract_x
_atom_site_fract_y
_atom_site_fract_z
_atom_site_charge
Mof_Zn	Zn	0.84944	0.09863	0.48828	1.17
Mof_Zn	Zn	0.74746	0.98468	0.6058	1.234
Mof_Zn	Zn	0.15056	0.90137	0.98828	1.129
Mof_Zn	Zn	0.25254	0.01532	0.1058	1.246
Mof_Zn	Zn	0.65056	0.59863	0.48828	1.171
Mof_Zn	Zn	0.75254	0.48468	0.6058	1.236
Mof_Zn	Zn	0.34944	0.40137	0.98828	1.129
Mof_Zn	Zn	0.24746	0.51532	0.1058	1.247
Mof_H 	H 	0.9321	0.1694	0.7336	0.027
Mof_H 	H 	0.9784	0.0118	0.8312	0.02
Mof_H 	H 	0.1014	0.1509	0.9516	0.004
Mof_H 	H 	0.123	0.3549	0.956	-0.04
Mof_H 	H 	0.0028	0.5006	0.8604	0.042
Mof_H 	H 	0.9217	0.3497	0.7561	0.043
Mof_H 	H 	0.0679	0.8306	0.2336	0.031
Mof_H 	H 	0.0216	0.9882	0.3312	0.017
Mof_H 	H 	0.8986	0.8491	0.4516	0.029
Mof_H 	H 	0.877	0.6451	0.456	-0.014
Mof_H 	H 	0.9972	0.4994	0.3604	0.05
Mof_H 	H 	0.0783	0.6503	0.2561	0.051
Mof_H 	H 	0.5679	0.6694	0.7336	0.026
Mof_H 	H 	0.5216	0.5118	0.8312	0.017
Mof_H 	H 	0.3986	0.6509	0.9516	0.001
Mof_H 	H 	0.377	0.8549	0.956	-0.04
Mof_H 	H 	0.4972	0.0006	0.8604	0.049
Mof_H 	H 	0.5783	0.8497	0.7561	0.044
Mof_H 	H 	0.4321	0.3306	0.2336	0.033
Mof_H 	H 	0.4784	0.4882	0.3312	0.021
Mof_H 	H 	0.6014	0.3491	0.4516	0.031
Mof_H 	H 	0.623	0.1451	0.456	-0.015
Mof_H 	H 	0.5028	0.9994	0.3604	0.048
Mof_H 	H 	0.4217	0.1503	0.2561	0.05
Mof_Pt	Pt	0.02666	0.25589	0.85073	0.398
Mof_Pt	Pt	0.97334	0.74411	0.35073	0.486
Mof_Pt	Pt	0.47334	0.75589	0.85073	0.388
Mof_Pt	Pt	0.52666	0.24411	0.35073	0.495
Mof_C 	C 	0.9631	0.1454	0.776	0.094
Mof_C 	C 	0.9489	0.087	0.7678	-0.147
Mof_C 	C 	0.9904	0.051	0.8331	0.067
Mof_C 	C 	0.0501	0.0752	0.9013	-0.117
Mof_C 	C 	0.0626	0.1344	0.9057	0.077
Mof_C 	C 	0.894	0.065	0.6852	0.412
Mof_C 	C 	0.1054	0.0368	0.968	0.261
Mof_C 	C 	0.0805	0.374	0.9151	0.065
Mof_C 	C 	0.0743	0.4331	0.9177	-0.129
Mof_C 	C 	0.0093	0.4611	0.8586	0.056
Mof_C 	C 	0.9542	0.4289	0.7962	-0.108
Mof_C 	C 	0.9613	0.3706	0.7964	0.071
Mof_C 	C 	0.1339	0.4672	0.9848	0.205
Mof_C 	C 	0.8839	0.458	0.7273	0.31
Mof_C 	C 	0.0369	0.8546	0.276	0.128
Mof_C 	C 	0.0511	0.913	0.2678	-0.154
Mof_C 	C 	0.0096	0.949	0.3331	0.121
Mof_C 	C 	0.9499	0.9248	0.4013	-0.166
Mof_C 	C 	0.9374	0.8656	0.4057	0.119
Mof_C 	C 	0.106	0.935	0.1852	0.419
Mof_C 	C 	0.8946	0.9632	0.468	0.417
Mof_C 	C 	0.9195	0.626	0.4151	0.094
Mof_C 	C 	0.9257	0.5669	0.4177	-0.15
Mof_C 	C 	0.9907	0.5389	0.3586	0.06
Mof_C 	C 	0.0458	0.5711	0.2962	-0.086
Mof_C 	C 	0.0387	0.6294	0.2964	0.093
Mof_C 	C 	0.8661	0.5328	0.4848	0.348
Mof_C 	C 	0.1161	0.542	0.2273	0.311
Mof_C 	C 	0.5369	0.6454	0.776	0.101
Mof_C 	C 	0.5511	0.587	0.7678	-0.152
Mof_C 	C 	0.5096	0.551	0.8331	0.075
Mof_C 	C 	0.4499	0.5752	0.9013	-0.124
Mof_C 	C 	0.4374	0.6344	0.9057	0.078
Mof_C 	C 	0.606	0.565	0.6852	0.414
Mof_C 	C 	0.3946	0.5368	0.968	0.254
Mof_C 	C 	0.4195	0.874	0.9151	0.058
Mof_C 	C 	0.4257	0.9331	0.9177	-0.12
Mof_C 	C 	0.4907	0.9611	0.8586	0.034
Mof_C 	C 	0.5458	0.9289	0.7962	-0.095
Mof_C 	C 	0.5387	0.8706	0.7964	0.071
Mof_C 	C 	0.3661	0.9672	0.9848	0.195
Mof_C 	C 	0.6161	0.958	0.7273	0.303
Mof_C 	C 	0.4631	0.3546	0.276	0.114
Mof_C 	C 	0.4489	0.413	0.2678	-0.146
Mof_C 	C 	0.4904	0.449	0.3331	0.103
Mof_C 	C 	0.5501	0.4248	0.4013	-0.151
Mof_C 	C 	0.5626	0.3656	0.4057	0.115
Mof_C 	C 	0.394	0.435	0.1852	0.416
Mof_C 	C 	0.6054	0.4632	0.468	0.416
Mof_C 	C 	0.5805	0.126	0.4151	0.098
Mof_C 	C 	0.5743	0.0669	0.4177	-0.154
Mof_C 	C 	0.5093	0.0389	0.3586	0.072
Mof_C 	C 	0.4542	0.0711	0.2962	-0.094
Mof_C 	C 	0.4613	0.1294	0.2964	0.088
Mof_C 	C 	0.6339	0.0328	0.4848	0.351
Mof_C 	C 	0.3839	0.042	0.2273	0.311
Mof_N 	N 	0.0193	0.16872	0.8429	-0.158
Mof_N 	N 	0.0243	0.34225	0.8537	-0.156
Mof_N 	N 	0.9807	0.83128	0.3429	-0.169
Mof_N 	N 	0.9757	0.65775	0.3537	-0.161
Mof_N 	N 	0.4807	0.66872	0.8429	-0.161
Mof_N 	N 	0.4757	0.84225	0.8537	-0.157
Mof_N 	N 	0.5193	0.33128	0.3429	-0.162
Mof_N 	N 	0.5243	0.15775	0.3537	-0.159
Mof_Cl	Cl	0.0578	0.26113	0.69838	-0.358
Mof_Cl	Cl	0.99403	0.2512	0.00227	-0.233
Mof_Cl	Cl	0.9422	0.73887	0.19838	-0.335
Mof_Cl	Cl	0.00597	0.7488	0.50227	-0.356
Mof_Cl	Cl	0.4422	0.76113	0.69838	-0.36
Mof_Cl	Cl	0.50597	0.7512	0.00227	-0.22
Mof_Cl	Cl	0.5578	0.23887	0.19838	-0.332
Mof_Cl	Cl	0.49403	0.2488	0.50227	-0.365
Mof_O 	O 	0.8937	0.09793	0.6185	-0.494
Mof_O 	O 	0.8509	0.01622	0.6919	-0.462
Mof_O 	O 	0.0928	0.9839	0.9578	-0.498
Mof_O 	O 	0.1609	0.06181	0.0254	-0.311
Mof_O 	O 	0.2077	0.4423	0.0299	-0.419
Mof_O 	O 	0.1122	0.5179	0.9976	-0.368
Mof_O 	O 	0.8913	0.5104	0.7152	-0.32
Mof_O 	O 	0.8229	0.4253	0.6829	-0.397
Mof_O 	O 	0.1063	0.90207	0.1185	-0.449
Mof_O 	O 	0.1491	0.98378	0.1919	-0.444
Mof_O 	O 	0.9072	0.0161	0.4578	-0.491
Mof_O 	O 	0.8391	0.93819	0.5254	-0.453
Mof_O 	O 	0.7923	0.5577	0.5299	-0.559
Mof_O 	O 	0.8878	0.4821	0.4976	-0.344
Mof_O 	O 	0.1087	0.4896	0.2152	-0.289
Mof_O 	O 	0.1771	0.5747	0.1829	-0.37
Mof_O 	O 	0.6063	0.59793	0.6185	-0.494
Mof_O 	O 	0.6491	0.51622	0.6919	-0.464
Mof_O 	O 	0.4072	0.4839	0.9578	-0.496
Mof_O 	O 	0.3391	0.56181	0.0254	-0.305
Mof_O 	O 	0.2923	0.9423	0.0299	-0.414
Mof_O 	O 	0.3878	0.0179	0.9976	-0.363
Mof_O 	O 	0.6087	0.0104	0.7152	-0.314
Mof_O 	O 	0.6771	0.9253	0.6829	-0.395
Mof_O 	O 	0.3937	0.40207	0.1185	-0.45
Mof_O 	O 	0.3509	0.48378	0.1919	-0.445
Mof_O 	O 	0.5928	0.5161	0.4578	-0.489
Mof_O 	O 	0.6609	0.43819	0.5254	-0.451
Mof_O 	O 	0.7077	0.0577	0.5299	-0.559
Mof_O 	O 	0.6122	0.9821	0.4976	-0.345
Mof_O 	O 	0.3913	0.9896	0.2152	-0.29
Mof_O 	O 	0.3229	0.0747	0.1829	-0.372
_end
