data_functionalizedCrystal
_audit_creation_method	'EQeq! by Chris Wilmer'
_symmetry_space_group_name_H-M	'P1'
_symmetry_Int_Tables_number	1
_symmetry_cell_setting	triclinic
loop_
_symmetry_equiv_pos_as_xyz
  x,y,z
_cell_length_a	21.1373
_cell_length_b	21.1373
_cell_length_c	21.1373
_cell_angle_alpha	90
_cell_angle_beta	90
_cell_angle_gamma	90
loop_
_atom_site_label
_atom_site_type_symbol
_atom_site_fract_x
_atom_site_fract_y
_atom_site_fract_z
_atom_site_charge
Mof_N 	N 	0.13138	0.3089	0.26276	-0.207
Mof_C 	C 	0.0822	0.3454	0.2735	0.097
Mof_H 	H 	0.0698	0.3795	0.2486	0.002
Mof_H 	H 	0.9921	0.3963	0.3438	0.127
Mof_N 	N 	0.63138	0.8089	0.76276	-0.207
Mof_C 	C 	0.5822	0.8454	0.7735	0.097
Mof_H 	H 	0.5698	0.8795	0.7486	0.002
Mof_H 	H 	0.4921	0.8963	0.8438	0.127
Mof_N 	N 	0.86862	0.6911	0.26276	-0.208
Mof_C 	C 	0.9178	0.6546	0.2735	0.096
Mof_H 	H 	0.9302	0.6205	0.2486	0.001
Mof_H 	H 	0.0079	0.6037	0.3438	0.126
Mof_N 	N 	0.36862	0.1911	0.76276	-0.208
Mof_C 	C 	0.4178	0.1546	0.7735	0.096
Mof_H 	H 	0.4302	0.1205	0.7486	0.001
Mof_H 	H 	0.5079	0.1037	0.8438	0.126
Mof_N 	N 	0.86862	0.3089	0.73724	-0.208
Mof_C 	C 	0.9178	0.3454	0.7265	0.096
Mof_H 	H 	0.9302	0.3795	0.7514	0.001
Mof_H 	H 	0.0079	0.3963	0.6562	0.126
Mof_N 	N 	0.36862	0.8089	0.23724	-0.208
Mof_C 	C 	0.4178	0.8454	0.2265	0.096
Mof_H 	H 	0.4302	0.8795	0.2514	0.001
Mof_H 	H 	0.5079	0.8963	0.1562	0.126
Mof_N 	N 	0.13138	0.6911	0.73724	-0.208
Mof_C 	C 	0.0822	0.6546	0.7265	0.096
Mof_H 	H 	0.0698	0.6205	0.7514	0.001
Mof_H 	H 	0.9921	0.6037	0.6562	0.126
Mof_N 	N 	0.63138	0.1911	0.23724	-0.208
Mof_C 	C 	0.5822	0.1546	0.2265	0.096
Mof_H 	H 	0.5698	0.1205	0.2514	0.001
Mof_H 	H 	0.4921	0.1037	0.1562	0.126
Mof_N 	N 	0.26276	0.13138	0.3089	-0.208
Mof_C 	C 	0.2735	0.0822	0.3454	0.096
Mof_H 	H 	0.2486	0.0698	0.3795	0.001
Mof_H 	H 	0.3438	0.9921	0.3963	0.126
Mof_N 	N 	0.76276	0.63138	0.8089	-0.208
Mof_C 	C 	0.7735	0.5822	0.8454	0.096
Mof_H 	H 	0.7486	0.5698	0.8795	0.001
Mof_H 	H 	0.8438	0.4921	0.8963	0.126
Mof_N 	N 	0.26276	0.86862	0.6911	-0.208
Mof_C 	C 	0.2735	0.9178	0.6546	0.096
Mof_H 	H 	0.2486	0.9302	0.6205	0.001
Mof_H 	H 	0.3438	0.0079	0.6037	0.126
Mof_N 	N 	0.76276	0.36862	0.1911	-0.208
Mof_C 	C 	0.7735	0.4178	0.1546	0.096
Mof_H 	H 	0.7486	0.4302	0.1205	0.001
Mof_H 	H 	0.8438	0.5079	0.1037	0.126
Mof_N 	N 	0.73724	0.86862	0.3089	-0.208
Mof_C 	C 	0.7265	0.9178	0.3454	0.096
Mof_H 	H 	0.7514	0.9302	0.3795	0.001
Mof_H 	H 	0.6562	0.0079	0.3963	0.126
Mof_N 	N 	0.23724	0.36862	0.8089	-0.208
Mof_C 	C 	0.2265	0.4178	0.8454	0.096
Mof_H 	H 	0.2514	0.4302	0.8795	0.001
Mof_H 	H 	0.1562	0.5079	0.8963	0.126
Mof_N 	N 	0.73724	0.13138	0.6911	-0.208
Mof_C 	C 	0.7265	0.0822	0.6546	0.096
Mof_H 	H 	0.7514	0.0698	0.6205	0.001
Mof_H 	H 	0.6562	0.9921	0.6037	0.126
Mof_N 	N 	0.23724	0.63138	0.1911	-0.208
Mof_C 	C 	0.2265	0.5822	0.1546	0.096
Mof_H 	H 	0.2514	0.5698	0.1205	0.001
Mof_H 	H 	0.1562	0.4921	0.1037	0.126
Mof_N 	N 	0.3089	0.26276	0.13138	-0.208
Mof_C 	C 	0.3454	0.2735	0.0822	0.096
Mof_H 	H 	0.3795	0.2486	0.0698	0.001
Mof_H 	H 	0.3963	0.3438	0.9921	0.126
Mof_N 	N 	0.8089	0.76276	0.63138	-0.208
Mof_C 	C 	0.8454	0.7735	0.5822	0.096
Mof_H 	H 	0.8795	0.7486	0.5698	0.001
Mof_H 	H 	0.8963	0.8438	0.4921	0.126
Mof_N 	N 	0.6911	0.26276	0.86862	-0.208
Mof_C 	C 	0.6546	0.2735	0.9178	0.096
Mof_H 	H 	0.6205	0.2486	0.9302	0.001
Mof_H 	H 	0.6037	0.3438	0.0079	0.126
Mof_N 	N 	0.1911	0.76276	0.36862	-0.208
Mof_C 	C 	0.1546	0.7735	0.4178	0.096
Mof_H 	H 	0.1205	0.7486	0.4302	0.001
Mof_H 	H 	0.1037	0.8438	0.5079	0.126
Mof_N 	N 	0.3089	0.73724	0.86862	-0.208
Mof_C 	C 	0.3454	0.7265	0.9178	0.096
Mof_H 	H 	0.3795	0.7514	0.9302	0.001
Mof_H 	H 	0.3963	0.6562	0.0079	0.126
Mof_N 	N 	0.8089	0.23724	0.36862	-0.208
Mof_C 	C 	0.8454	0.2265	0.4178	0.096
Mof_H 	H 	0.8795	0.2514	0.4302	0.001
Mof_H 	H 	0.8963	0.1562	0.5079	0.126
Mof_N 	N 	0.6911	0.73724	0.13138	-0.208
Mof_C 	C 	0.6546	0.7265	0.0822	0.096
Mof_H 	H 	0.6205	0.7514	0.0698	0.001
Mof_H 	H 	0.6037	0.6562	0.9921	0.126
Mof_N 	N 	0.1911	0.23724	0.63138	-0.208
Mof_C 	C 	0.1546	0.2265	0.5822	0.096
Mof_H 	H 	0.1205	0.2514	0.5698	0.001
Mof_H 	H 	0.1037	0.1562	0.4921	0.126
Mof_N 	N 	0.3089	0.13138	0.26276	-0.208
Mof_C 	C 	0.3454	0.0822	0.2735	0.096
Mof_H 	H 	0.3795	0.0698	0.2486	0.001
Mof_H 	H 	0.3963	0.9921	0.3438	0.126
Mof_N 	N 	0.8089	0.63138	0.76276	-0.208
Mof_C 	C 	0.8454	0.5822	0.7735	0.096
Mof_H 	H 	0.8795	0.5698	0.7486	0.001
Mof_H 	H 	0.8963	0.4921	0.8438	0.126
Mof_N 	N 	0.6911	0.86862	0.26276	-0.208
Mof_C 	C 	0.6546	0.9178	0.2735	0.096
Mof_H 	H 	0.6205	0.9302	0.2486	0.001
Mof_H 	H 	0.6037	0.0079	0.3438	0.126
Mof_N 	N 	0.1911	0.36862	0.76276	-0.208
Mof_C 	C 	0.1546	0.4178	0.7735	0.096
Mof_H 	H 	0.1205	0.4302	0.7486	0.001
Mof_H 	H 	0.1037	0.5079	0.8438	0.126
Mof_N 	N 	0.3089	0.86862	0.73724	-0.208
Mof_C 	C 	0.3454	0.9178	0.7265	0.096
Mof_H 	H 	0.3795	0.9302	0.7514	0.001
Mof_H 	H 	0.3963	0.0079	0.6562	0.126
Mof_N 	N 	0.8089	0.36862	0.23724	-0.208
Mof_C 	C 	0.8454	0.4178	0.2265	0.096
Mof_H 	H 	0.8795	0.4302	0.2514	0.001
Mof_H 	H 	0.8963	0.5079	0.1562	0.126
Mof_N 	N 	0.6911	0.13138	0.73724	-0.208
Mof_C 	C 	0.6546	0.0822	0.7265	0.096
Mof_H 	H 	0.6205	0.0698	0.7514	0.001
Mof_H 	H 	0.6037	0.9921	0.6562	0.126
Mof_N 	N 	0.1911	0.63138	0.23724	-0.208
Mof_C 	C 	0.1546	0.5822	0.2265	0.096
Mof_H 	H 	0.1205	0.5698	0.2514	0.001
Mof_H 	H 	0.1037	0.4921	0.1562	0.126
Mof_N 	N 	0.13138	0.26276	0.3089	-0.208
Mof_C 	C 	0.0822	0.2735	0.3454	0.096
Mof_H 	H 	0.0698	0.2486	0.3795	0.001
Mof_H 	H 	0.9921	0.3438	0.3963	0.126
Mof_N 	N 	0.63138	0.76276	0.8089	-0.208
Mof_C 	C 	0.5822	0.7735	0.8454	0.096
Mof_H 	H 	0.5698	0.7486	0.8795	0.001
Mof_H 	H 	0.4921	0.8438	0.8963	0.126
Mof_N 	N 	0.86862	0.26276	0.6911	-0.208
Mof_C 	C 	0.9178	0.2735	0.6546	0.096
Mof_H 	H 	0.9302	0.2486	0.6205	0.001
Mof_H 	H 	0.0079	0.3438	0.6037	0.126
Mof_N 	N 	0.36862	0.76276	0.1911	-0.208
Mof_C 	C 	0.4178	0.7735	0.1546	0.096
Mof_H 	H 	0.4302	0.7486	0.1205	0.001
Mof_H 	H 	0.5079	0.8438	0.1037	0.126
Mof_N 	N 	0.86862	0.73724	0.3089	-0.208
Mof_C 	C 	0.9178	0.7265	0.3454	0.096
Mof_H 	H 	0.9302	0.7514	0.3795	0.001
Mof_H 	H 	0.0079	0.6562	0.3963	0.126
Mof_N 	N 	0.36862	0.23724	0.8089	-0.208
Mof_C 	C 	0.4178	0.2265	0.8454	0.096
Mof_H 	H 	0.4302	0.2514	0.8795	0.001
Mof_H 	H 	0.5079	0.1562	0.8963	0.126
Mof_N 	N 	0.13138	0.73724	0.6911	-0.208
Mof_C 	C 	0.0822	0.7265	0.6546	0.096
Mof_H 	H 	0.0698	0.7514	0.6205	0.001
Mof_H 	H 	0.9921	0.6562	0.6037	0.126
Mof_N 	N 	0.63138	0.23724	0.1911	-0.208
Mof_C 	C 	0.5822	0.2265	0.1546	0.096
Mof_H 	H 	0.5698	0.2514	0.1205	0.001
Mof_H 	H 	0.4921	0.1562	0.1037	0.126
Mof_N 	N 	0.26276	0.3089	0.13138	-0.208
Mof_C 	C 	0.2735	0.3454	0.0822	0.096
Mof_H 	H 	0.2486	0.3795	0.0698	0.001
Mof_H 	H 	0.3438	0.3963	0.9921	0.126
Mof_N 	N 	0.76276	0.8089	0.63138	-0.208
Mof_C 	C 	0.7735	0.8454	0.5822	0.096
Mof_H 	H 	0.7486	0.8795	0.5698	0.001
Mof_H 	H 	0.8438	0.8963	0.4921	0.126
Mof_N 	N 	0.26276	0.6911	0.86862	-0.208
Mof_C 	C 	0.2735	0.6546	0.9178	0.096
Mof_H 	H 	0.2486	0.6205	0.9302	0.001
Mof_H 	H 	0.3438	0.6037	0.0079	0.126
Mof_N 	N 	0.76276	0.1911	0.36862	-0.208
Mof_C 	C 	0.7735	0.1546	0.4178	0.096
Mof_H 	H 	0.7486	0.1205	0.4302	0.001
Mof_H 	H 	0.8438	0.1037	0.5079	0.126
Mof_N 	N 	0.73724	0.3089	0.86862	-0.208
Mof_C 	C 	0.7265	0.3454	0.9178	0.096
Mof_H 	H 	0.7514	0.3795	0.9302	0.001
Mof_H 	H 	0.6562	0.3963	0.0079	0.126
Mof_N 	N 	0.23724	0.8089	0.36862	-0.208
Mof_C 	C 	0.2265	0.8454	0.4178	0.096
Mof_H 	H 	0.2514	0.8795	0.4302	0.001
Mof_H 	H 	0.1562	0.8963	0.5079	0.126
Mof_N 	N 	0.73724	0.6911	0.13138	-0.208
Mof_C 	C 	0.7265	0.6546	0.0822	0.096
Mof_H 	H 	0.7514	0.6205	0.0698	0.001
Mof_H 	H 	0.6562	0.6037	0.9921	0.126
Mof_N 	N 	0.23724	0.1911	0.63138	-0.208
Mof_C 	C 	0.2265	0.1546	0.5822	0.096
Mof_H 	H 	0.2514	0.1205	0.5698	0.001
Mof_H 	H 	0.1562	0.1037	0.4921	0.126
Mof_Cu	Cu	0.1933	0.30688	0.1933	0.877
Mof_Cu	Cu	0.6933	0.80688	0.6933	0.877
Mof_Cu	Cu	0.8067	0.69312	0.1933	0.877
Mof_Cu	Cu	0.3067	0.19312	0.6933	0.877
Mof_Cu	Cu	0.8067	0.30688	0.8067	0.877
Mof_Cu	Cu	0.3067	0.80688	0.3067	0.877
Mof_Cu	Cu	0.1933	0.69312	0.8067	0.877
Mof_Cu	Cu	0.6933	0.19312	0.3067	0.877
Mof_Cu	Cu	0.1933	0.1933	0.30688	0.877
Mof_Cu	Cu	0.6933	0.6933	0.80688	0.877
Mof_Cu	Cu	0.1933	0.8067	0.69312	0.877
Mof_Cu	Cu	0.6933	0.3067	0.19312	0.877
Mof_Cu	Cu	0.8067	0.8067	0.30688	0.877
Mof_Cu	Cu	0.3067	0.3067	0.80688	0.877
Mof_Cu	Cu	0.8067	0.1933	0.69312	0.877
Mof_Cu	Cu	0.3067	0.6933	0.19312	0.877
Mof_Cu	Cu	0.30688	0.1933	0.1933	0.877
Mof_Cu	Cu	0.80688	0.6933	0.6933	0.877
Mof_Cu	Cu	0.69312	0.1933	0.8067	0.877
Mof_Cu	Cu	0.19312	0.6933	0.3067	0.877
Mof_Cu	Cu	0.30688	0.8067	0.8067	0.877
Mof_Cu	Cu	0.80688	0.3067	0.3067	0.877
Mof_Cu	Cu	0.69312	0.8067	0.1933	0.877
Mof_Cu	Cu	0.19312	0.3067	0.6933	0.877
Mof_N 	N 	0.053	0.32554	0.32554	-0.099
Mof_O 	O 	0.9404	0.28035	0.28035	-0.314
Mof_O 	O 	0.8842	0.34333	0.34333	-0.424
Mof_C 	C 	0.9932	0.3515	0.3515	-0.287
Mof_C 	C 	0.9356	0.3217	0.3217	0.386
Mof_N 	N 	0.553	0.82554	0.82554	-0.099
Mof_O 	O 	0.4404	0.78035	0.78035	-0.314
Mof_O 	O 	0.3842	0.84333	0.84333	-0.424
Mof_C 	C 	0.4932	0.8515	0.8515	-0.287
Mof_C 	C 	0.4356	0.8217	0.8217	0.386
Mof_N 	N 	0.947	0.67446	0.32554	-0.099
Mof_O 	O 	0.0596	0.71965	0.28035	-0.314
Mof_O 	O 	0.1158	0.65667	0.34333	-0.424
Mof_C 	C 	0.0068	0.6485	0.3515	-0.287
Mof_C 	C 	0.0644	0.6783	0.3217	0.386
Mof_N 	N 	0.447	0.17446	0.82554	-0.099
Mof_O 	O 	0.5596	0.21965	0.78035	-0.314
Mof_O 	O 	0.6158	0.15667	0.84333	-0.424
Mof_C 	C 	0.5068	0.1485	0.8515	-0.287
Mof_C 	C 	0.5644	0.1783	0.8217	0.386
Mof_N 	N 	0.947	0.32554	0.67446	-0.099
Mof_O 	O 	0.0596	0.28035	0.71965	-0.314
Mof_O 	O 	0.1158	0.34333	0.65667	-0.424
Mof_C 	C 	0.0068	0.3515	0.6485	-0.287
Mof_C 	C 	0.0644	0.3217	0.6783	0.386
Mof_N 	N 	0.447	0.82554	0.17446	-0.099
Mof_O 	O 	0.5596	0.78035	0.21965	-0.314
Mof_O 	O 	0.6158	0.84333	0.15667	-0.424
Mof_C 	C 	0.5068	0.8515	0.1485	-0.287
Mof_C 	C 	0.5644	0.8217	0.1783	0.386
Mof_N 	N 	0.053	0.67446	0.67446	-0.099
Mof_O 	O 	0.9404	0.71965	0.71965	-0.314
Mof_O 	O 	0.8842	0.65667	0.65667	-0.424
Mof_C 	C 	0.9932	0.6485	0.6485	-0.287
Mof_C 	C 	0.9356	0.6783	0.6783	0.386
Mof_N 	N 	0.553	0.17446	0.17446	-0.099
Mof_O 	O 	0.4404	0.21965	0.21965	-0.314
Mof_O 	O 	0.3842	0.15667	0.15667	-0.424
Mof_C 	C 	0.4932	0.1485	0.1485	-0.287
Mof_C 	C 	0.4356	0.1783	0.1783	0.386
Mof_N 	N 	0.32554	0.053	0.32554	-0.099
Mof_O 	O 	0.28035	0.9404	0.28035	-0.314
Mof_O 	O 	0.34333	0.8842	0.34333	-0.424
Mof_C 	C 	0.3515	0.9932	0.3515	-0.287
Mof_C 	C 	0.3217	0.9356	0.3217	0.386
Mof_N 	N 	0.82554	0.553	0.82554	-0.099
Mof_O 	O 	0.78035	0.4404	0.78035	-0.314
Mof_O 	O 	0.84333	0.3842	0.84333	-0.424
Mof_C 	C 	0.8515	0.4932	0.8515	-0.287
Mof_C 	C 	0.8217	0.4356	0.8217	0.386
Mof_N 	N 	0.32554	0.947	0.67446	-0.099
Mof_O 	O 	0.28035	0.0596	0.71965	-0.314
Mof_O 	O 	0.34333	0.1158	0.65667	-0.424
Mof_C 	C 	0.3515	0.0068	0.6485	-0.287
Mof_C 	C 	0.3217	0.0644	0.6783	0.386
Mof_N 	N 	0.82554	0.447	0.17446	-0.099
Mof_O 	O 	0.78035	0.5596	0.21965	-0.314
Mof_O 	O 	0.84333	0.6158	0.15667	-0.424
Mof_C 	C 	0.8515	0.5068	0.1485	-0.287
Mof_C 	C 	0.8217	0.5644	0.1783	0.386
Mof_N 	N 	0.67446	0.947	0.32554	-0.099
Mof_O 	O 	0.71965	0.0596	0.28035	-0.314
Mof_O 	O 	0.65667	0.1158	0.34333	-0.424
Mof_C 	C 	0.6485	0.0068	0.3515	-0.287
Mof_C 	C 	0.6783	0.0644	0.3217	0.386
Mof_N 	N 	0.17446	0.447	0.82554	-0.099
Mof_O 	O 	0.21965	0.5596	0.78035	-0.314
Mof_O 	O 	0.15667	0.6158	0.84333	-0.424
Mof_C 	C 	0.1485	0.5068	0.8515	-0.287
Mof_C 	C 	0.1783	0.5644	0.8217	0.386
Mof_N 	N 	0.67446	0.053	0.67446	-0.099
Mof_O 	O 	0.71965	0.9404	0.71965	-0.314
Mof_O 	O 	0.65667	0.8842	0.65667	-0.424
Mof_C 	C 	0.6485	0.9932	0.6485	-0.287
Mof_C 	C 	0.6783	0.9356	0.6783	0.386
Mof_N 	N 	0.17446	0.553	0.17446	-0.099
Mof_O 	O 	0.21965	0.4404	0.21965	-0.314
Mof_O 	O 	0.15667	0.3842	0.15667	-0.424
Mof_C 	C 	0.1485	0.4932	0.1485	-0.287
Mof_C 	C 	0.1783	0.4356	0.1783	0.386
Mof_N 	N 	0.32554	0.32554	0.053	-0.099
Mof_O 	O 	0.28035	0.28035	0.9404	-0.314
Mof_O 	O 	0.34333	0.34333	0.8842	-0.424
Mof_C 	C 	0.3515	0.3515	0.9932	-0.287
Mof_C 	C 	0.3217	0.3217	0.9356	0.386
Mof_N 	N 	0.82554	0.82554	0.553	-0.099
Mof_O 	O 	0.78035	0.78035	0.4404	-0.314
Mof_O 	O 	0.84333	0.84333	0.3842	-0.424
Mof_C 	C 	0.8515	0.8515	0.4932	-0.287
Mof_C 	C 	0.8217	0.8217	0.4356	0.386
Mof_N 	N 	0.67446	0.32554	0.947	-0.099
Mof_O 	O 	0.71965	0.28035	0.0596	-0.314
Mof_O 	O 	0.65667	0.34333	0.1158	-0.424
Mof_C 	C 	0.6485	0.3515	0.0068	-0.287
Mof_C 	C 	0.6783	0.3217	0.0644	0.386
Mof_N 	N 	0.17446	0.82554	0.447	-0.099
Mof_O 	O 	0.21965	0.78035	0.5596	-0.314
Mof_O 	O 	0.15667	0.84333	0.6158	-0.424
Mof_C 	C 	0.1485	0.8515	0.5068	-0.287
Mof_C 	C 	0.1783	0.8217	0.5644	0.386
Mof_N 	N 	0.32554	0.67446	0.947	-0.099
Mof_O 	O 	0.28035	0.71965	0.0596	-0.314
Mof_O 	O 	0.34333	0.65667	0.1158	-0.424
Mof_C 	C 	0.3515	0.6485	0.0068	-0.287
Mof_C 	C 	0.3217	0.6783	0.0644	0.386
Mof_N 	N 	0.82554	0.17446	0.447	-0.099
Mof_O 	O 	0.78035	0.21965	0.5596	-0.314
Mof_O 	O 	0.84333	0.15667	0.6158	-0.424
Mof_C 	C 	0.8515	0.1485	0.5068	-0.287
Mof_C 	C 	0.8217	0.1783	0.5644	0.386
Mof_N 	N 	0.67446	0.67446	0.053	-0.099
Mof_O 	O 	0.71965	0.71965	0.9404	-0.314
Mof_O 	O 	0.65667	0.65667	0.8842	-0.424
Mof_C 	C 	0.6485	0.6485	0.9932	-0.287
Mof_C 	C 	0.6783	0.6783	0.9356	0.386
Mof_N 	N 	0.17446	0.17446	0.553	-0.099
Mof_O 	O 	0.21965	0.21965	0.4404	-0.314
Mof_O 	O 	0.15667	0.15667	0.3842	-0.424
Mof_C 	C 	0.1485	0.1485	0.4932	-0.287
Mof_C 	C 	0.1783	0.1783	0.4356	0.386
Mof_O 	O 	0.2432	0.2432	0.2432	-0.717
Mof_H 	H 	0.267	0.267	0.267	0.209
Mof_O 	O 	0.7432	0.7432	0.7432	-0.717
Mof_H 	H 	0.767	0.767	0.767	0.209
Mof_O 	O 	0.7568	0.7568	0.2432	-0.717
Mof_H 	H 	0.733	0.733	0.267	0.209
Mof_O 	O 	0.2568	0.2568	0.7432	-0.717
Mof_H 	H 	0.233	0.233	0.767	0.209
Mof_O 	O 	0.7568	0.2432	0.7568	-0.717
Mof_H 	H 	0.733	0.267	0.733	0.209
Mof_O 	O 	0.2568	0.7432	0.2568	-0.717
Mof_H 	H 	0.233	0.767	0.233	0.209
Mof_O 	O 	0.2432	0.7568	0.7568	-0.717
Mof_H 	H 	0.267	0.733	0.733	0.209
Mof_O 	O 	0.7432	0.2568	0.2568	-0.717
Mof_H 	H 	0.767	0.233	0.233	0.209
_end
