data_functionalizedCrystal
_audit_creation_method	'EQeq! by Chris Wilmer'
_symmetry_space_group_name_H-M	'P1'
_symmetry_Int_Tables_number	1
_symmetry_cell_setting	triclinic
loop_
_symmetry_equiv_pos_as_xyz
  x,y,z
_cell_length_a	6.7507
_cell_length_b	16.9798
_cell_length_c	12.9232
_cell_angle_alpha	90
_cell_angle_beta	90
_cell_angle_gamma	90
loop_
_atom_site_label
_atom_site_type_symbol
_atom_site_fract_x
_atom_site_fract_y
_atom_site_fract_z
_atom_site_charge
Mof_O 	O 	0.6529	0.1664	0.1643	-0.529
Mof_O 	O 	0.3222	0.1674	0.1465	-0.535
Mof_C 	C 	0.502	0.066	0.0637	-0.158
Mof_C 	C 	0.6598	0.0114	0.0709	0.256
Mof_C 	C 	0.3487	0.0522	0.9955	-0.142
Mof_H 	H 	0.2444	0.0879	0.9941	0.086
Mof_C 	C 	0.4925	0.1392	0.1289	0.435
Mof_C 	C 	0.831	0.0185	0.1465	-0.793
Mof_H 	H 	0.8161	0.0658	0.1864	0.287
Mof_H 	H 	0.9535	0.0205	0.1089	0.265
Mof_H 	H 	0.8315	0.9738	0.1919	0.257
Mof_O 	O 	0.8471	0.8336	0.6643	-0.531
Mof_O 	O 	0.1778	0.8326	0.6465	-0.536
Mof_C 	C 	0.998	0.934	0.5637	-0.161
Mof_C 	C 	0.8402	0.9886	0.5709	0.253
Mof_C 	C 	0.1513	0.9478	0.4955	-0.135
Mof_H 	H 	0.2556	0.9121	0.4941	0.084
Mof_C 	C 	0.0075	0.8608	0.6289	0.436
Mof_C 	C 	0.669	0.9815	0.6465	-0.793
Mof_H 	H 	0.6839	0.9342	0.6864	0.287
Mof_H 	H 	0.5465	0.9795	0.6089	0.264
Mof_H 	H 	0.6685	0.0262	0.6919	0.257
Mof_O 	O 	0.3471	0.6664	0.8357	-0.531
Mof_O 	O 	0.6778	0.6674	0.8535	-0.536
Mof_C 	C 	0.498	0.566	0.9363	-0.16
Mof_C 	C 	0.3402	0.5114	0.9291	0.254
Mof_C 	C 	0.6513	0.5522	0.0045	-0.136
Mof_H 	H 	0.7556	0.5879	0.0059	0.085
Mof_C 	C 	0.5075	0.6392	0.8711	0.435
Mof_C 	C 	0.169	0.5185	0.8535	-0.798
Mof_H 	H 	0.1839	0.5658	0.8136	0.289
Mof_H 	H 	0.0465	0.5205	0.8911	0.266
Mof_H 	H 	0.1685	0.4738	0.8081	0.26
Mof_O 	O 	0.1529	0.3336	0.3357	-0.531
Mof_O 	O 	0.8222	0.3326	0.3535	-0.536
Mof_C 	C 	0.002	0.434	0.4363	-0.161
Mof_C 	C 	0.1598	0.4886	0.4291	0.254
Mof_C 	C 	0.8487	0.4478	0.5045	-0.136
Mof_H 	H 	0.7444	0.4121	0.5059	0.085
Mof_C 	C 	0.9925	0.3608	0.3711	0.436
Mof_C 	C 	0.331	0.4815	0.3535	-0.797
Mof_H 	H 	0.3161	0.4342	0.3136	0.288
Mof_H 	H 	0.4535	0.4795	0.3911	0.265
Mof_H 	H 	0.3315	0.5262	0.3081	0.259
Mof_O 	O 	0.3471	0.8336	0.8357	-0.53
Mof_O 	O 	0.6778	0.8326	0.8535	-0.536
Mof_C 	C 	0.498	0.934	0.9363	-0.158
Mof_C 	C 	0.3402	0.9886	0.9291	0.256
Mof_C 	C 	0.6513	0.9478	0.0045	-0.142
Mof_H 	H 	0.7556	0.9121	0.0059	0.086
Mof_C 	C 	0.5075	0.8608	0.8711	0.435
Mof_C 	C 	0.169	0.9815	0.8535	-0.793
Mof_H 	H 	0.1839	0.9342	0.8136	0.287
Mof_H 	H 	0.0465	0.9795	0.8911	0.265
Mof_H 	H 	0.1685	0.0262	0.8081	0.257
Mof_O 	O 	0.1529	0.1664	0.3357	-0.531
Mof_O 	O 	0.8222	0.1674	0.3535	-0.536
Mof_C 	C 	0.002	0.066	0.4363	-0.161
Mof_C 	C 	0.1598	0.0114	0.4291	0.253
Mof_C 	C 	0.8487	0.0522	0.5045	-0.135
Mof_H 	H 	0.7444	0.0879	0.5059	0.084
Mof_C 	C 	0.9925	0.1392	0.3711	0.436
Mof_C 	C 	0.331	0.0185	0.3535	-0.793
Mof_H 	H 	0.3161	0.0658	0.3136	0.287
Mof_H 	H 	0.4535	0.0205	0.3911	0.264
Mof_H 	H 	0.3315	0.9738	0.3081	0.257
Mof_O 	O 	0.6529	0.3336	0.1643	-0.531
Mof_O 	O 	0.3222	0.3326	0.1465	-0.536
Mof_C 	C 	0.502	0.434	0.0637	-0.16
Mof_C 	C 	0.6598	0.4886	0.0709	0.254
Mof_C 	C 	0.3487	0.4478	0.9955	-0.136
Mof_H 	H 	0.2444	0.4121	0.9941	0.085
Mof_C 	C 	0.4925	0.3608	0.1289	0.435
Mof_C 	C 	0.831	0.4815	0.1465	-0.798
Mof_H 	H 	0.8161	0.4342	0.1864	0.289
Mof_H 	H 	0.9535	0.4795	0.1089	0.266
Mof_H 	H 	0.8315	0.5262	0.1919	0.26
Mof_O 	O 	0.8471	0.6664	0.6643	-0.531
Mof_O 	O 	0.1778	0.6674	0.6465	-0.536
Mof_C 	C 	0.998	0.566	0.5637	-0.161
Mof_C 	C 	0.8402	0.5114	0.5709	0.254
Mof_C 	C 	0.1513	0.5522	0.4955	-0.136
Mof_H 	H 	0.2556	0.5879	0.4941	0.085
Mof_C 	C 	0.0075	0.6392	0.6289	0.436
Mof_C 	C 	0.669	0.5185	0.6465	-0.797
Mof_H 	H 	0.6839	0.5658	0.6864	0.288
Mof_H 	H 	0.5465	0.5205	0.6089	0.265
Mof_H 	H 	0.6685	0.4738	0.6919	0.259
Mof_V 	V 	0.7047	0.25	0.26655	1.838
Mof_O 	O 	0.4825	0.25	0.3134	-0.691
Mof_V 	V 	0.7953	0.75	0.76655	1.837
Mof_O 	O 	0.0175	0.75	0.8134	-0.691
Mof_V 	V 	0.2953	0.75	0.73345	1.838
Mof_O 	O 	0.5175	0.75	0.6866	-0.691
Mof_V 	V 	0.2047	0.25	0.23345	1.837
Mof_O 	O 	0.9825	0.25	0.1866	-0.691
_end
