data_functionalizedCrystal
_audit_creation_method	'EQeq! by Chris Wilmer'
_symmetry_space_group_name_H-M	'P1'
_symmetry_Int_Tables_number	1
_symmetry_cell_setting	triclinic
loop_
_symmetry_equiv_pos_as_xyz
  x,y,z
_cell_length_a	10.553
_cell_length_b	12.789
_cell_length_c	14.443
_cell_angle_alpha	112.206
_cell_angle_beta	90.401
_cell_angle_gamma	94.839
loop_
_atom_site_label
_atom_site_type_symbol
_atom_site_fract_x
_atom_site_fract_y
_atom_site_fract_z
_atom_site_charge
Mof_Co	Co	0.26373	0.42354	0.22962	1.16
Mof_Co	Co	0.81787	0.27114	0.67833	1.136
Mof_O 	O 	0.2989	0.3987	0.3582	-0.412
Mof_O 	O 	0.3607	0.5676	0.47621	-0.308
Mof_O 	O 	0.2327	0.0594	0.4393	-0.272
Mof_O 	O 	0.2686	0.0779	0.5944	-0.259
Mof_O 	O 	0.5441	0.5944	0.8129	-0.402
Mof_O 	O 	0.494	0.4191	0.8079	-0.318
Mof_O 	O 	0.2451	0.7012	0.17203	-0.399
Mof_O 	O 	0.1248	0.8102	0.1262	-0.288
Mof_O 	O 	0.9666	0.3896	0.75333	-0.438
Mof_O 	O 	0.9309	0.5577	0.74731	-0.434
Mof_O 	O 	0.3129	0.6063	0.31175	-1.011
Mof_H 	H 	0.337	0.602	0.366	0.407
Mof_H 	H 	0.376	0.612	0.278	0.405
Mof_N 	N 	0.222	0.2476	0.1556	-0.226
Mof_N 	N 	0.1793	0.0842	0.0281	-0.13
Mof_N 	N 	0.101	0.7908	0.6245	-0.13
Mof_N 	N 	0.1214	0.7315	0.4611	-0.237
Mof_C 	C 	0.3204	0.4646	0.4478	0.343
Mof_C 	C 	0.2944	0.4125	0.5241	-0.072
Mof_C 	C 	0.2805	0.2958	0.4945	0.012
Mof_H 	H 	0.289	0.2503	0.4276	0.055
Mof_C 	C 	0.2544	0.2457	0.5628	-0.068
Mof_C 	C 	0.2369	0.3144	0.6624	-0.022
Mof_H 	H 	0.2177	0.2814	0.7086	0.057
Mof_C 	C 	0.2481	0.4318	0.6929	-0.011
Mof_C 	C 	0.2782	0.4806	0.6237	-0.022
Mof_H 	H 	0.2876	0.5592	0.6441	0.06
Mof_C 	C 	0.2487	0.1174	0.5301	0.305
Mof_C 	C 	0.2336	0.5086	0.8001	0.098
Mof_C 	C 	0.3417	0.5531	0.8655	-0.126
Mof_C 	C 	0.3297	0.6248	0.9647	0.066
Mof_H 	H 	0.4011	0.65	0.0082	0.027
Mof_C 	C 	0.2121	0.6584	0.9987	-0.124
Mof_C 	C 	0.1055	0.621	0.9336	0.068
Mof_H 	H 	0.0274	0.6478	0.9551	0.008
Mof_C 	C 	0.1157	0.5432	0.8357	-0.15
Mof_C 	C 	0.4702	0.5193	0.8262	0.344
Mof_C 	C 	0.1939	0.7307	0.1078	0.343
Mof_C 	C 	0.9943	0.4932	0.773	0.382
Mof_C 	C 	0.204	0.1978	0.0577	0.101
Mof_H 	H 	0.2079	0.2362	0.0143	-0.019
Mof_C 	C 	0.207	0.1622	0.1908	0.026
Mof_H 	H 	0.2137	0.1718	0.2578	0.037
Mof_C 	C 	0.1808	0.0608	0.1129	0
Mof_H 	H 	0.1668	0.9898	0.1168	0.056
Mof_C 	C 	0.1575	0.0075	0.9262	0.091
Mof_C 	C 	0.1551	0.0501	0.852	-0.064
Mof_H 	H 	0.1683	0.128	0.8689	0.067
Mof_C 	C 	0.1332	0.979	0.7527	-0.078
Mof_H 	H 	0.1288	0.0088	0.7033	0.078
Mof_C 	C 	0.1181	0.8632	0.7278	0.102
Mof_C 	C 	0.1189	0.82	0.8016	-0.081
Mof_H 	H 	0.1059	0.742	0.7846	0.077
Mof_C 	C 	0.139	0.8919	0.9015	-0.066
Mof_H 	H 	0.1401	0.8623	0.9512	0.073
Mof_C 	C 	0.1453	0.817	0.5472	0.089
Mof_H 	H 	0.1871	0.8867	0.5542	0.001
Mof_C 	C 	0.0449	0.6809	0.5839	-0.002
Mof_H 	H 	0.0059	0.6392	0.6182	0.047
Mof_C 	C 	0.058	0.6464	0.4843	0.017
Mof_H 	H 	0.0285	0.5752	0.4378	0.029
Mof_Co	Co	0.73627	0.57646	0.77038	1.161
Mof_Co	Co	0.18213	0.72886	0.32167	1.137
Mof_O 	O 	0.7011	0.6013	0.6418	-0.411
Mof_O 	O 	0.6393	0.4324	0.52379	-0.307
Mof_O 	O 	0.7673	0.9406	0.5607	-0.272
Mof_O 	O 	0.7314	0.9221	0.4056	-0.259
Mof_O 	O 	0.4559	0.4056	0.1871	-0.402
Mof_O 	O 	0.506	0.5809	0.1921	-0.318
Mof_O 	O 	0.7549	0.2988	0.82797	-0.399
Mof_O 	O 	0.8752	0.1898	0.8738	-0.288
Mof_O 	O 	0.0334	0.6104	0.24667	-0.438
Mof_O 	O 	0.0691	0.4423	0.25269	-0.434
Mof_O 	O 	0.6871	0.3937	0.68825	-1.011
Mof_H 	H 	0.663	0.398	0.634	0.407
Mof_H 	H 	0.624	0.388	0.722	0.405
Mof_N 	N 	0.778	0.7524	0.8444	-0.226
Mof_N 	N 	0.8207	0.9158	0.9719	-0.13
Mof_N 	N 	0.899	0.2092	0.3755	-0.13
Mof_N 	N 	0.8786	0.2685	0.5389	-0.237
Mof_C 	C 	0.6796	0.5354	0.5522	0.343
Mof_C 	C 	0.7056	0.5875	0.4759	-0.072
Mof_C 	C 	0.7195	0.7042	0.5055	0.012
Mof_H 	H 	0.711	0.7497	0.5724	0.055
Mof_C 	C 	0.7456	0.7543	0.4372	-0.068
Mof_C 	C 	0.7631	0.6856	0.3376	-0.022
Mof_H 	H 	0.7823	0.7186	0.2914	0.057
Mof_C 	C 	0.7519	0.5682	0.3071	-0.011
Mof_C 	C 	0.7218	0.5194	0.3763	-0.022
Mof_H 	H 	0.7124	0.4408	0.3559	0.06
Mof_C 	C 	0.7513	0.8826	0.4699	0.305
Mof_C 	C 	0.7664	0.4914	0.1999	0.098
Mof_C 	C 	0.6583	0.4469	0.1345	-0.126
Mof_C 	C 	0.6703	0.3752	0.0353	0.066
Mof_H 	H 	0.5989	0.35	0.9918	0.027
Mof_C 	C 	0.7879	0.3416	0.0013	-0.124
Mof_C 	C 	0.8945	0.379	0.0664	0.068
Mof_H 	H 	0.9726	0.3522	0.0449	0.008
Mof_C 	C 	0.8843	0.4568	0.1643	-0.15
Mof_C 	C 	0.5298	0.4807	0.1738	0.344
Mof_C 	C 	0.8061	0.2693	0.8922	0.343
Mof_C 	C 	0.0057	0.5068	0.227	0.382
Mof_C 	C 	0.796	0.8022	0.9423	0.101
Mof_H 	H 	0.7921	0.7638	0.9857	-0.019
Mof_C 	C 	0.793	0.8378	0.8092	0.026
Mof_H 	H 	0.7863	0.8282	0.7422	0.037
Mof_C 	C 	0.8192	0.9392	0.8871	0
Mof_H 	H 	0.8332	0.0102	0.8832	0.056
Mof_C 	C 	0.8425	0.9925	0.0738	0.091
Mof_C 	C 	0.8449	0.9499	0.148	-0.064
Mof_H 	H 	0.8317	0.872	0.1311	0.067
Mof_C 	C 	0.8668	0.021	0.2473	-0.078
Mof_H 	H 	0.8712	0.9912	0.2967	0.078
Mof_C 	C 	0.8819	0.1368	0.2722	0.102
Mof_C 	C 	0.8811	0.18	0.1984	-0.081
Mof_H 	H 	0.8941	0.258	0.2154	0.077
Mof_C 	C 	0.861	0.1081	0.0985	-0.066
Mof_H 	H 	0.8599	0.1377	0.0488	0.073
Mof_C 	C 	0.8547	0.183	0.4528	0.089
Mof_H 	H 	0.8129	0.1133	0.4458	0.001
Mof_C 	C 	0.9551	0.3191	0.4161	-0.002
Mof_H 	H 	0.9941	0.3608	0.3818	0.047
Mof_C 	C 	0.942	0.3536	0.5157	0.017
Mof_H 	H 	0.9715	0.4248	0.5622	0.029
_end
