data_functionalizedCrystal
_audit_creation_method	'EQeq! by Chris Wilmer'
_symmetry_space_group_name_H-M	'P1'
_symmetry_Int_Tables_number	1
_symmetry_cell_setting	triclinic
loop_
_symmetry_equiv_pos_as_xyz
  x,y,z
_cell_length_a	9.91
_cell_length_b	10.745
_cell_length_c	11.079
_cell_angle_alpha	63.177
_cell_angle_beta	65.556
_cell_angle_gamma	66.664
loop_
_atom_site_label
_atom_site_type_symbol
_atom_site_fract_x
_atom_site_fract_y
_atom_site_fract_z
_atom_site_charge
Mof_La	La	0.28281	0.00947	0.5103	2.191
Mof_La	La	0.71719	0.99053	0.4897	2.191
Mof_H 	H 	0.5283	0.6056	0.3304	0.048
Mof_H 	H 	0.6793	0.372	0.341	0.017
Mof_H 	H 	0.0013	0.4474	0.4159	0.016
Mof_H 	H 	0.8457	0.6786	0.4115	-0.011
Mof_H 	H 	0.7051	0.606	0.8895	0.036
Mof_H 	H 	0.2879	0.6011	0.9141	0.032
Mof_H 	H 	0.4717	0.3944	0.6696	0.048
Mof_H 	H 	0.3207	0.628	0.659	0.017
Mof_H 	H 	0.9987	0.5526	0.5841	0.016
Mof_H 	H 	0.1543	0.3214	0.5885	-0.011
Mof_H 	H 	0.2949	0.394	0.1105	0.036
Mof_H 	H 	0.7121	0.3989	0.0859	0.032
Mof_C 	C 	0.559	0.802	0.3911	0.414
Mof_C 	C 	0.6691	0.6601	0.3775	-0.113
Mof_C 	C 	0.6229	0.5717	0.3516	-0.032
Mof_C 	C 	0.7135	0.4333	0.3563	0.026
Mof_C 	C 	0.8539	0.3846	0.3834	-0.164
Mof_C 	C 	0.9034	0.4781	0.4015	0.005
Mof_C 	C 	0.8112	0.6157	0.3988	-0.01
Mof_C 	C 	0.0554	0.7698	0.5961	0.518
Mof_C 	C 	0.4863	0.7645	0.7576	0.463
Mof_C 	C 	0.4942	0.6262	0.8822	-0.124
Mof_C 	C 	0.6214	0.5631	0.9347	-0.011
Mof_C 	C 	0.3743	0.5601	0.9493	-0.009
Mof_C 	C 	0.441	0.198	0.6089	0.414
Mof_C 	C 	0.3309	0.3399	0.6225	-0.113
Mof_C 	C 	0.3771	0.4283	0.6484	-0.032
Mof_C 	C 	0.2865	0.5667	0.6437	0.026
Mof_C 	C 	0.1461	0.6154	0.6166	-0.164
Mof_C 	C 	0.0966	0.5219	0.5985	0.005
Mof_C 	C 	0.1888	0.3843	0.6012	-0.01
Mof_C 	C 	0.9446	0.2302	0.4039	0.518
Mof_C 	C 	0.5137	0.2355	0.2424	0.463
Mof_C 	C 	0.5058	0.3738	0.1178	-0.124
Mof_C 	C 	0.3786	0.4369	0.0653	-0.011
Mof_C 	C 	0.6257	0.4399	0.0507	-0.009
Mof_O 	O 	0.4309	0.8383	0.3724	-0.478
Mof_O 	O 	0.597	0.8769	0.4269	-0.62
Mof_O 	O 	0.9226	0.8051	0.584	-0.568
Mof_O 	O 	0.1136	0.8542	0.5933	-0.567
Mof_O 	O 	0.3748	0.8087	0.7088	-0.533
Mof_O 	O 	0.5919	0.8248	0.711	-0.526
Mof_O 	O 	0.5691	0.1617	0.6276	-0.478
Mof_O 	O 	0.403	0.1231	0.5731	-0.62
Mof_O 	O 	0.0774	0.1949	0.416	-0.568
Mof_O 	O 	0.8864	0.1458	0.4067	-0.567
Mof_O 	O 	0.6252	0.1913	0.2912	-0.533
Mof_O 	O 	0.4081	0.1752	0.289	-0.526
_end
