data_functionalizedCrystal
_audit_creation_method	'EQeq! by Chris Wilmer'
_symmetry_space_group_name_H-M	'P1'
_symmetry_Int_Tables_number	1
_symmetry_cell_setting	triclinic
loop_
_symmetry_equiv_pos_as_xyz
  x,y,z
_cell_length_a	10.471
_cell_length_b	10.471
_cell_length_c	14.645
_cell_angle_alpha	90
_cell_angle_beta	90
_cell_angle_gamma	90
loop_
_atom_site_label
_atom_site_type_symbol
_atom_site_fract_x
_atom_site_fract_y
_atom_site_fract_z
_atom_site_charge
Mof_Gd	Gd	0.14273	0.85727	0.875	1.832
Mof_Gd	Gd	0.85727	0.14273	0.375	1.815
Mof_Gd	Gd	0.14273	0.14273	0.625	1.768
Mof_Gd	Gd	0.85727	0.85727	0.125	1.84
Mof_H 	H 	0.0643	0.444	0.8692	-0.008
Mof_H 	H 	0.9357	0.556	0.3692	-0.004
Mof_H 	H 	0.556	0.0643	0.6192	-0
Mof_H 	H 	0.444	0.9357	0.1192	-0.012
Mof_H 	H 	0.9357	0.444	0.1308	-0.008
Mof_H 	H 	0.0643	0.556	0.6308	-0
Mof_H 	H 	0.444	0.0643	0.3808	-0.005
Mof_H 	H 	0.556	0.9357	0.8808	0
Mof_H 	H 	-0	0.1095	-0	-0.037
Mof_H 	H 	1.04826e-32	0.8905	0.5	-0.013
Mof_H 	H 	0.8905	0	0.75	-0.012
Mof_H 	H 	0.1095	0	0.25	-0.037
Mof_C 	C 	0.0755	0.1897	0.8367	0.478
Mof_C 	C 	0.0384	0.3995	0.9209	0.147
Mof_C 	C 	0.0376	0.2649	0.9206	-0.206
Mof_C 	C 	0.9245	0.8103	0.3367	0.475
Mof_C 	C 	0.9616	0.6005	0.4209	0.154
Mof_C 	C 	0.9624	0.7351	0.4206	-0.178
Mof_C 	C 	0.8103	0.0755	0.5867	0.472
Mof_C 	C 	0.6005	0.0384	0.6709	0.122
Mof_C 	C 	0.7351	0.0376	0.6706	-0.201
Mof_C 	C 	0.1897	0.9245	0.0867	0.485
Mof_C 	C 	0.3995	0.9616	0.1709	0.163
Mof_C 	C 	0.2649	0.9624	0.1706	-0.199
Mof_C 	C 	0.9245	0.1897	0.1633	0.481
Mof_C 	C 	0.9616	0.3995	0.0791	0.157
Mof_C 	C 	0.9624	0.2649	0.0794	-0.197
Mof_C 	C 	0.0755	0.8103	0.6633	0.472
Mof_C 	C 	0.0384	0.6005	0.5791	0.123
Mof_C 	C 	0.0376	0.7351	0.5794	-0.203
Mof_C 	C 	0.1897	0.0755	0.4133	0.48
Mof_C 	C 	0.3995	0.0384	0.3291	0.132
Mof_C 	C 	0.2649	0.0376	0.3294	-0.222
Mof_C 	C 	0.8103	0.9245	0.9133	0.475
Mof_C 	C 	0.6005	0.9616	0.8291	0.152
Mof_C 	C 	0.7351	0.9624	0.8294	-0.174
Mof_C 	C 	-0	0.6127	-0	0.439
Mof_C 	C 	-0	0.4669	-0	-0.246
Mof_C 	C 	-0	0.1983	-0	0.092
Mof_C 	C 	2.622e-33	0.3873	0.5	0.448
Mof_C 	C 	-1.30992e-32	0.5331	0.5	-0.225
Mof_C 	C 	2.622e-33	0.8017	0.5	0.101
Mof_C 	C 	0.3873	0	0.75	0.448
Mof_C 	C 	0.5331	0	0.75	-0.222
Mof_C 	C 	0.8017	0	0.75	0.1
Mof_C 	C 	0.6127	0	0.25	0.453
Mof_C 	C 	0.4669	0	0.25	-0.236
Mof_C 	C 	0.1983	0	0.25	0.112
Mof_O 	O 	0.0686	0.6682	0.9408	-0.488
Mof_O 	O 	0.0757	0.2475	0.7607	-0.484
Mof_O 	O 	0.1028	0.0762	0.843	-0.53
Mof_O 	O 	0.9314	0.3318	0.4408	-0.472
Mof_O 	O 	0.9243	0.7525	0.2607	-0.473
Mof_O 	O 	0.8972	0.9238	0.343	-0.483
Mof_O 	O 	0.3318	0.0686	0.6908	-0.495
Mof_O 	O 	0.7525	0.0757	0.5107	-0.481
Mof_O 	O 	0.9238	0.1028	0.593	-0.492
Mof_O 	O 	0.6682	0.9314	0.1908	-0.481
Mof_O 	O 	0.2475	0.9243	0.0107	-0.489
Mof_O 	O 	0.0762	0.8972	0.093	-0.525
Mof_O 	O 	0.9314	0.6682	0.0592	-0.482
Mof_O 	O 	0.9243	0.2475	0.2393	-0.477
Mof_O 	O 	0.8972	0.0762	0.157	-0.523
Mof_O 	O 	0.0686	0.3318	0.5592	-0.495
Mof_O 	O 	0.0757	0.7525	0.7393	-0.483
Mof_O 	O 	0.1028	0.9238	0.657	-0.494
Mof_O 	O 	0.6682	0.0686	0.3092	-0.503
Mof_O 	O 	0.2475	0.0757	0.4893	-0.484
Mof_O 	O 	0.0762	0.1028	0.407	-0.532
Mof_O 	O 	0.3318	0.9314	0.8092	-0.471
Mof_O 	O 	0.7525	0.9243	0.9893	-0.458
Mof_O 	O 	0.9238	0.8972	0.907	-0.476
_end
