data_functionalizedCrystal
_audit_creation_method	'EQeq! by Chris Wilmer'
_symmetry_space_group_name_H-M	'P1'
_symmetry_Int_Tables_number	1
_symmetry_cell_setting	triclinic
loop_
_symmetry_equiv_pos_as_xyz
  x,y,z
_cell_length_a	8.944
_cell_length_b	10.776
_cell_length_c	13.789
_cell_angle_alpha	68.768
_cell_angle_beta	78.142
_cell_angle_gamma	79.991
loop_
_atom_site_label
_atom_site_type_symbol
_atom_site_fract_x
_atom_site_fract_y
_atom_site_fract_z
_atom_site_charge
Mof_Ni	Ni	0.31062	0.90013	0.14913	1.099
Mof_N 	N 	0.9077	0.02	0.8044	-0.213
Mof_N 	N 	0.148	0.9283	0.813	-0.1
Mof_N 	N 	0.3609	0.8147	0.3022	-0.227
Mof_N 	N 	0.4844	0.5553	0.8376	-0.2
Mof_O 	O 	0.2666	0.9721	0.9889	-0.427
Mof_H 	H 	0.2259	0.0488	0.9546	0.25
Mof_O 	O 	0.5892	0.6767	0.9682	-0.342
Mof_O 	O 	0.5324	0.8403	0.0725	-0.383
Mof_O 	O 	0.6131	0.9231	0.8724	-0.364
Mof_O 	O 	0.0387	0.7512	0.0402	-0.455
Mof_H 	H 	0.0247	0.7488	0.9818	0.3
Mof_O 	O 	0.2759	0.5909	0.0237	-0.384
Mof_O 	O 	0.2342	0.7231	0.1548	-0.36
Mof_P 	P 	0.53205	0.81894	0.96769	0.442
Mof_P 	P 	0.21761	0.71696	0.04987	0.386
Mof_C 	C 	0.324	0.8571	0.9531	0.016
Mof_C 	C 	0.3061	0.8955	0.8371	-0.087
Mof_H 	H 	0.3622	0.9721	0.7964	0.072
Mof_H 	H 	0.3548	0.8218	0.8131	0.065
Mof_C 	C 	0.0335	0.0123	0.8436	0.079
Mof_H 	H 	0.042	0.059	0.8869	0.025
Mof_C 	C 	0.9451	0.9369	0.745	0.026
Mof_H 	H 	0.879	0.9219	0.7074	0.023
Mof_C 	C 	0.0931	0.8799	0.7493	-0.019
Mof_H 	H 	0.146	0.8204	0.7159	0.045
Mof_C 	C 	0.3478	0.6877	0.3587	0.078
Mof_H 	H 	0.3244	0.633	0.3263	0.01
Mof_C 	C 	0.367	0.6305	0.4646	-0.134
Mof_H 	H 	0.3499	0.5418	0.5019	0.081
Mof_C 	C 	0.4115	0.7068	0.5135	0.056
Mof_C 	C 	0.423	0.8412	0.4545	-0.128
Mof_H 	H 	0.4493	0.8973	0.4846	0.072
Mof_C 	C 	0.3957	0.8923	0.3515	0.064
Mof_H 	H 	0.4013	0.9831	0.3146	0.004
Mof_C 	C 	0.3718	0.5156	0.8079	0.064
Mof_H 	H 	0.3082	0.4561	0.8589	0.035
Mof_C 	C 	0.3473	0.5606	0.7034	-0.117
Mof_H 	H 	0.2687	0.5305	0.6857	0.078
Mof_C 	C 	0.4402	0.6506	0.6254	0.045
Mof_C 	C 	0.5575	0.6889	0.6567	-0.121
Mof_H 	H 	0.6225	0.7485	0.6072	0.073
Mof_C 	C 	0.5784	0.6386	0.7616	0.064
Mof_H 	H 	0.6601	0.6632	0.7803	0.021
Mof_Ni	Ni	0.68938	0.09987	0.85087	1.112
Mof_N 	N 	0.0923	0.98	0.1956	-0.219
Mof_N 	N 	0.852	0.0717	0.187	-0.108
Mof_N 	N 	0.6391	0.1853	0.6978	-0.228
Mof_N 	N 	0.5156	0.4447	0.1624	-0.217
Mof_O 	O 	0.7334	0.0279	0.0111	-0.478
Mof_H 	H 	0.7741	0.9512	0.0454	0.251
Mof_O 	O 	0.4108	0.3233	0.0318	-0.379
Mof_O 	O 	0.4676	0.1597	0.9275	-0.315
Mof_O 	O 	0.3869	0.0769	0.1276	-0.369
Mof_O 	O 	0.9613	0.2488	0.9598	-0.319
Mof_H 	H 	0.9753	0.2512	0.0182	0.176
Mof_O 	O 	0.7241	0.4091	0.9763	-0.335
Mof_O 	O 	0.7658	0.2769	0.8452	-0.355
Mof_P 	P 	0.46795	0.18106	0.03231	0.367
Mof_P 	P 	0.78239	0.28304	0.95013	0.429
Mof_C 	C 	0.676	0.1429	0.0469	-0.032
Mof_C 	C 	0.6939	0.1045	0.1629	-0.077
Mof_H 	H 	0.6378	0.0279	0.2036	0.071
Mof_H 	H 	0.6452	0.1782	0.1869	0.057
Mof_C 	C 	0.9665	0.9877	0.1564	0.08
Mof_H 	H 	0.958	0.941	0.1131	0.012
Mof_C 	C 	0.0549	0.0631	0.255	0.014
Mof_H 	H 	0.121	0.0781	0.2926	0.024
Mof_C 	C 	0.9069	0.1201	0.2507	-0.014
Mof_H 	H 	0.854	0.1796	0.2841	0.041
Mof_C 	C 	0.6522	0.3123	0.6413	0.078
Mof_H 	H 	0.6756	0.367	0.6737	0.011
Mof_C 	C 	0.633	0.3695	0.5354	-0.134
Mof_H 	H 	0.6501	0.4582	0.4981	0.081
Mof_C 	C 	0.5885	0.2932	0.4865	0.055
Mof_C 	C 	0.577	0.1588	0.5455	-0.127
Mof_H 	H 	0.5507	0.1027	0.5154	0.071
Mof_C 	C 	0.6043	0.1077	0.6485	0.064
Mof_H 	H 	0.5987	0.0169	0.6854	0.002
Mof_C 	C 	0.6282	0.4844	0.1921	0.064
Mof_H 	H 	0.6918	0.5439	0.1411	0.012
Mof_C 	C 	0.6527	0.4394	0.2966	-0.122
Mof_H 	H 	0.7313	0.4695	0.3143	0.079
Mof_C 	C 	0.5598	0.3494	0.3746	0.047
Mof_C 	C 	0.4425	0.3111	0.3433	-0.124
Mof_H 	H 	0.3775	0.2515	0.3928	0.073
Mof_C 	C 	0.4216	0.3614	0.2384	0.067
Mof_H 	H 	0.3399	0.3368	0.2197	0.017
Mof_Ni	Ni	0.5	0.5	-0	1.085
_end
