data_functionalizedCrystal
_audit_creation_method	'EQeq! by Chris Wilmer'
_symmetry_space_group_name_H-M	'P1'
_symmetry_Int_Tables_number	1
_symmetry_cell_setting	triclinic
loop_
_symmetry_equiv_pos_as_xyz
  x,y,z
_cell_length_a	11.9183
_cell_length_b	16.9983
_cell_length_c	15.4986
_cell_angle_alpha	90
_cell_angle_beta	90
_cell_angle_gamma	90
loop_
_atom_site_label
_atom_site_type_symbol
_atom_site_fract_x
_atom_site_fract_y
_atom_site_fract_z
_atom_site_charge
Mof_N 	N 	0.6245	0.1599	0.3867	-0.185
Mof_C 	C 	0.6714	0.1028	0.39	0.055
Mof_N 	N 	0.1245	0.6599	0.3867	-0.184
Mof_C 	C 	0.1714	0.6028	0.39	0.048
Mof_N 	N 	0.3755	0.3401	0.3867	-0.184
Mof_C 	C 	0.3286	0.3972	0.39	0.053
Mof_N 	N 	0.8755	0.8401	0.3867	-0.172
Mof_C 	C 	0.8286	0.8972	0.39	0.067
Mof_N 	N 	0.6245	0.3401	0.3867	-0.183
Mof_C 	C 	0.6714	0.3972	0.39	0.054
Mof_N 	N 	0.1245	0.8401	0.3867	-0.185
Mof_C 	C 	0.1714	0.8972	0.39	0.057
Mof_N 	N 	0.3755	0.1599	0.3867	-0.184
Mof_C 	C 	0.3286	0.1028	0.39	0.054
Mof_N 	N 	0.8755	0.6599	0.3867	-0.17
Mof_C 	C 	0.8286	0.6028	0.39	0.058
Mof_Au	Au	0.75	0	0.39434	0.047
Mof_Au	Au	0.25	0.5	0.39434	0.041
Mof_Au	Au	0.75	0.5	0.39434	0.058
Mof_Au	Au	0.25	0	0.39434	0.03
Mof_Fe	Fe	0.5	0.25	0.38594	0.662
Mof_N 	N 	0.5	0.25	0.2424	-0.199
Mof_N 	N 	0.5	0.25	0.5269	-0.199
Mof_C 	C 	0.5	0.25	0.0638	0.101
Mof_C 	C 	0.5	0.25	0.9689	0.073
Mof_C 	C 	0.5	0.25	0.8051	0.092
Mof_C 	C 	0.5	0.25	0.7076	0.088
Mof_Fe	Fe	1.88174e-33	0.75	0.38594	0.628
Mof_N 	N 	1.18188e-33	0.75	0.2424	-0.215
Mof_N 	N 	2.56902e-33	0.75	0.5269	-0.214
Mof_C 	C 	6.34082e-33	0.75	0.0638	0.057
Mof_C 	C 	2.08034e-32	0.75	0.9689	0.056
Mof_C 	C 	1.19651e-32	0.75	0.8051	0.073
Mof_C 	C 	-4.5896e-33	0.75	0.7076	0.041
Mof_N 	N 	0.6002	0.25	0.9273	-0.082
Mof_N 	N 	0.5982	0.25	0.8409	-0.091
Mof_C 	C 	0.5934	0.25	0.199	0.12
Mof_H 	H 	0.6605	0.25	0.2296	-0.007
Mof_C 	C 	0.5984	0.25	0.1095	-0.172
Mof_H 	H 	0.6671	0.25	0.0811	0.113
Mof_C 	C 	0.597	0.25	0.6625	-0.162
Mof_H 	H 	0.6658	0.25	0.6909	0.098
Mof_C 	C 	0.592	0.25	0.5714	0.103
Mof_H 	H 	0.6595	0.25	0.5413	-0.006
Mof_N 	N 	0.1002	0.75	0.9273	-0.083
Mof_N 	N 	0.0982	0.75	0.8409	-0.091
Mof_C 	C 	0.0934	0.75	0.199	0.104
Mof_H 	H 	0.1605	0.75	0.2296	-0.004
Mof_C 	C 	0.0984	0.75	0.1095	-0.155
Mof_H 	H 	0.1671	0.75	0.0811	0.104
Mof_C 	C 	0.097	0.75	0.6625	-0.143
Mof_H 	H 	0.1658	0.75	0.6909	0.089
Mof_C 	C 	0.092	0.75	0.5714	0.087
Mof_H 	H 	0.1595	0.75	0.5413	-0.002
Mof_N 	N 	0.3998	0.25	0.9273	-0.084
Mof_N 	N 	0.4018	0.25	0.8409	-0.092
Mof_C 	C 	0.4066	0.25	0.199	0.119
Mof_H 	H 	0.3395	0.25	0.2296	-0.01
Mof_C 	C 	0.4016	0.25	0.1095	-0.172
Mof_H 	H 	0.3329	0.25	0.0811	0.11
Mof_C 	C 	0.403	0.25	0.6625	-0.162
Mof_H 	H 	0.3342	0.25	0.6909	0.096
Mof_C 	C 	0.408	0.25	0.5714	0.104
Mof_H 	H 	0.3405	0.25	0.5413	-0.007
Mof_N 	N 	0.8998	0.75	0.9273	-0.065
Mof_N 	N 	0.9018	0.75	0.8409	-0.072
Mof_C 	C 	0.9066	0.75	0.199	0.141
Mof_H 	H 	0.8395	0.75	0.2296	-0.011
Mof_C 	C 	0.9016	0.75	0.1095	-0.124
Mof_H 	H 	0.8329	0.75	0.0811	0.101
Mof_C 	C 	0.903	0.75	0.6625	-0.111
Mof_H 	H 	0.8342	0.75	0.6909	0.084
Mof_C 	C 	0.908	0.75	0.5714	0.125
Mof_H 	H 	0.8405	0.75	0.5413	-0.01
Mof_N 	N 	0.3755	0.6599	0.6133	-0.184
Mof_C 	C 	0.3286	0.6028	0.61	0.053
Mof_N 	N 	0.8755	0.1599	0.6133	-0.171
Mof_C 	C 	0.8286	0.1028	0.61	0.059
Mof_N 	N 	0.6245	0.8401	0.6133	-0.184
Mof_C 	C 	0.6714	0.8972	0.61	0.063
Mof_N 	N 	0.1245	0.3401	0.6133	-0.184
Mof_C 	C 	0.1714	0.3972	0.61	0.048
Mof_N 	N 	0.3755	0.8401	0.6133	-0.185
Mof_C 	C 	0.3286	0.8972	0.61	0.062
Mof_N 	N 	0.8755	0.3401	0.6133	-0.17
Mof_C 	C 	0.8286	0.3972	0.61	0.058
Mof_N 	N 	0.6245	0.6599	0.6133	-0.183
Mof_C 	C 	0.6714	0.6028	0.61	0.054
Mof_N 	N 	0.1245	0.1599	0.6133	-0.184
Mof_C 	C 	0.1714	0.1028	0.61	0.049
Mof_Au	Au	0.25	0.5	0.60566	0.041
Mof_Au	Au	0.75	0	0.60566	0.047
Mof_Au	Au	0.25	0	0.60566	0.03
Mof_Au	Au	0.75	0.5	0.60566	0.058
Mof_Fe	Fe	0.5	0.75	0.61406	0.664
Mof_N 	N 	0.5	0.75	0.7576	-0.199
Mof_N 	N 	0.5	0.75	0.4731	-0.199
Mof_C 	C 	0.5	0.75	0.9362	0.102
Mof_C 	C 	0.5	0.75	0.0311	0.074
Mof_C 	C 	0.5	0.75	0.1949	0.093
Mof_C 	C 	0.5	0.75	0.2924	0.088
Mof_Fe	Fe	-1.30853e-32	0.25	0.61406	0.627
Mof_N 	N 	3.69385e-33	0.25	0.7576	-0.215
Mof_N 	N 	-1.37726e-32	0.25	0.4731	-0.214
Mof_C 	C 	4.56466e-33	0.25	0.9362	0.056
Mof_C 	C 	1.65907e-33	0.25	0.0311	0.056
Mof_C 	C 	6.98003e-33	0.25	0.1949	0.072
Mof_C 	C 	-2.59417e-33	0.25	0.2924	0.04
Mof_N 	N 	0.3998	0.75	0.0727	-0.083
Mof_N 	N 	0.4018	0.75	0.1591	-0.092
Mof_C 	C 	0.4066	0.75	0.801	0.12
Mof_H 	H 	0.3395	0.75	0.7704	-0.009
Mof_C 	C 	0.4016	0.75	0.8905	-0.172
Mof_H 	H 	0.3329	0.75	0.9189	0.111
Mof_C 	C 	0.403	0.75	0.3375	-0.162
Mof_H 	H 	0.3342	0.75	0.3091	0.096
Mof_C 	C 	0.408	0.75	0.4286	0.104
Mof_H 	H 	0.3405	0.75	0.4587	-0.007
Mof_N 	N 	0.8998	0.25	0.0727	-0.065
Mof_N 	N 	0.9018	0.25	0.1591	-0.072
Mof_C 	C 	0.9066	0.25	0.801	0.14
Mof_H 	H 	0.8395	0.25	0.7704	-0.011
Mof_C 	C 	0.9016	0.25	0.8905	-0.125
Mof_H 	H 	0.8329	0.25	0.9189	0.1
Mof_C 	C 	0.903	0.25	0.3375	-0.112
Mof_H 	H 	0.8342	0.25	0.3091	0.084
Mof_C 	C 	0.908	0.25	0.4286	0.124
Mof_H 	H 	0.8405	0.25	0.4587	-0.01
Mof_N 	N 	0.6002	0.75	0.0727	-0.081
Mof_N 	N 	0.5982	0.75	0.1591	-0.091
Mof_C 	C 	0.5934	0.75	0.801	0.121
Mof_H 	H 	0.6605	0.75	0.7704	-0.007
Mof_C 	C 	0.5984	0.75	0.8905	-0.171
Mof_H 	H 	0.6671	0.75	0.9189	0.113
Mof_C 	C 	0.597	0.75	0.3375	-0.162
Mof_H 	H 	0.6658	0.75	0.3091	0.098
Mof_C 	C 	0.592	0.75	0.4286	0.104
Mof_H 	H 	0.6595	0.75	0.4587	-0.006
Mof_N 	N 	0.1002	0.25	0.0727	-0.084
Mof_N 	N 	0.0982	0.25	0.1591	-0.091
Mof_C 	C 	0.0934	0.25	0.801	0.103
Mof_H 	H 	0.1605	0.25	0.7704	-0.005
Mof_C 	C 	0.0984	0.25	0.8905	-0.155
Mof_H 	H 	0.1671	0.25	0.9189	0.104
Mof_C 	C 	0.097	0.25	0.3375	-0.143
Mof_H 	H 	0.1658	0.25	0.3091	0.089
Mof_C 	C 	0.092	0.25	0.4286	0.086
Mof_H 	H 	0.1595	0.25	0.4587	-0.002
_end
