data_functionalizedCrystal
_audit_creation_method	'EQeq! by Chris Wilmer'
_symmetry_space_group_name_H-M	'P1'
_symmetry_Int_Tables_number	1
_symmetry_cell_setting	triclinic
loop_
_symmetry_equiv_pos_as_xyz
  x,y,z
_cell_length_a	40.376
_cell_length_b	40.376
_cell_length_c	17.567
_cell_angle_alpha	90
_cell_angle_beta	90
_cell_angle_gamma	90
loop_
_atom_site_label
_atom_site_type_symbol
_atom_site_fract_x
_atom_site_fract_y
_atom_site_fract_z
_atom_site_charge
Mof_Mn	Mn	0.72027	0.13581	0.27818	1.066
Mof_O 	O 	0.74032	0.09797	0.31305	-0.436
Mof_O 	O 	0.803	0.13408	0.13892	-0.392
Mof_O 	O 	0.70545	0.17652	0.23101	-0.397
Mof_N 	N 	0.75612	0.14303	0.2073	-0.257
Mof_N 	N 	0.75394	0.17329	0.1647	-0.201
Mof_N 	N 	0.68864	0.10813	0.1924	-0.213
Mof_C 	C 	0.7659	0.08064	0.2846	0.318
Mof_C 	C 	0.77264	0.04953	0.316	-0.286
Mof_H 	H 	0.7591	0.0413	0.3561	0.135
Mof_C 	C 	0.79848	0.03068	0.2897	0.159
Mof_H 	H 	0.8028	0.0098	0.3124	-0.031
Mof_C 	C 	0.81824	0.04152	0.2307	-0.221
Mof_H 	H 	0.8354	0.0279	0.2112	0.114
Mof_C 	C 	0.81267	0.07219	0.2009	0.146
Mof_H 	H 	0.827	0.0801	0.1621	0.009
Mof_C 	C 	0.78651	0.09253	0.2253	-0.249
Mof_C 	C 	0.782	0.12477	0.1885	0.315
Mof_C 	C 	0.72638	0.18801	0.182	0.276
Mof_C 	C 	0.71712	0.22021	0.1435	-0.264
Mof_H 	H 	0.7367	0.2299	0.118	0.107
Mof_H 	H 	0.709	0.2363	0.1817	0.108
Mof_C 	C 	0.66827	0.08454	0.2128	0.137
Mof_H 	H 	0.6678	0.0786	0.2651	-0.006
Mof_C 	C 	0.64753	0.06779	0.1645	-0.22
Mof_H 	H 	0.6345	0.0498	0.182	0.112
Mof_C 	C 	0.64624	0.07799	0.0894	0.157
Mof_C 	C 	0.66779	0.10253	0.0688	-0.225
Mof_H 	H 	0.668	0.11	0.0176	0.102
Mof_C 	C 	0.68831	0.11611	0.1184	0.143
Mof_H 	H 	0.7035	0.1323	0.1007	-0.016
Mof_C 	C 	0.62281	0.0617	0.0343	-0.147
Mof_H 	H 	0.604	0.052	0.063	0.071
Mof_H 	H 	0.6138	0.0787	0.9994	0.064
Mof_Mn	Mn	0.79573	0.17531	0.08203	1.016
Mof_O 	O 	0.77028	0.15369	0.0084	-0.435
Mof_O 	O 	0.77569	0.25408	0.93783	-0.377
Mof_O 	O 	0.82068	0.20431	0.14907	-0.394
Mof_N 	N 	0.78911	0.2169	0.0302	-0.257
Mof_N 	N 	0.80507	0.24448	0.06572	-0.197
Mof_C 	C 	0.75357	0.16624	0.9507	0.341
Mof_C 	C 	0.7332	0.1437	0.9103	-0.318
Mof_H 	H 	0.7322	0.1213	0.9261	0.142
Mof_C 	C 	0.7157	0.1534	0.8517	0.185
Mof_H 	H 	0.6971	0.1409	0.8353	-0.037
Mof_C 	C 	0.7248	0.1823	0.8138	-0.216
Mof_H 	H 	0.7227	0.1848	0.7602	0.108
Mof_C 	C 	0.7378	0.2081	0.8624	0.138
Mof_H 	H 	0.7345	0.2309	0.851	-0.001
Mof_C 	C 	0.75529	0.19827	0.9262	-0.261
Mof_C 	C 	0.77468	0.22437	0.9664	0.302
Mof_C 	C 	0.82043	0.23458	0.1263	0.24
Mof_C 	C 	0.83815	0.26056	0.1728	-0.158
Mof_H 	H 	0.8214	0.2749	0.1974	0.077
Mof_H 	H 	0.8514	0.2746	0.1381	0.068
Mof_C 	C 	0.8611	0.2465	0.2345	-0.254
Mof_H 	H 	0.8482	0.2328	0.2698	0.104
Mof_H 	H 	0.8714	0.2648	0.2625	0.1
Mof_H 	H 	0.8784	0.233	0.2106	0.101
Mof_Mn	Mn	0.71151	0.20922	0.49449	1.062
Mof_O 	O 	0.66935	0.20132	0.53273	-0.433
Mof_O 	O 	0.68229	0.13381	0.34906	-0.382
Mof_O 	O 	0.75423	0.21141	0.44491	-0.385
Mof_N 	N 	0.70671	0.17387	0.42132	-0.251
Mof_N 	N 	0.73522	0.16787	0.3769	-0.193
Mof_C 	C 	0.64693	0.17926	0.5113	0.33
Mof_C 	C 	0.61668	0.17889	0.5504	-0.295
Mof_H 	H 	0.6131	0.1944	0.5903	0.137
Mof_C 	C 	0.5919	0.1566	0.5323	0.175
Mof_H 	H 	0.5715	0.1571	0.5594	-0.038
Mof_C 	C 	0.59651	0.13412	0.4764	-0.242
Mof_H 	H 	0.5799	0.1181	0.4659	0.115
Mof_C 	C 	0.62534	0.13464	0.4348	0.158
Mof_H 	H 	0.6278	0.1195	0.3938	-0.004
Mof_C 	C 	0.65114	0.15665	0.451	-0.261
Mof_C 	C 	0.68084	0.15461	0.4043	0.304
Mof_C 	C 	0.75811	0.18874	0.3937	0.236
Mof_C 	C 	0.79165	0.18558	0.3574	-0.135
Mof_H 	H 	0.7957	0.2051	0.3248	0.065
Mof_H 	H 	0.7919	0.1657	0.3245	0.059
Mof_C 	C 	0.81888	0.1829	0.4151	-0.274
Mof_H 	H 	0.8157	0.1628	0.4456	0.106
Mof_H 	H 	0.8403	0.1817	0.3889	0.101
Mof_H 	H 	0.8185	0.2024	0.4484	0.115
Mof_N 	N 	0.57408	0.98651	0.8314	-0.239
Mof_C 	C 	0.56372	0.01699	0.8603	0.098
Mof_H 	H 	0.5418	0.0246	0.851	0.006
Mof_C 	C 	0.5856	0.0364	0.903	-0.198
Mof_H 	H 	0.5817	0.0592	0.9123	0.091
Mof_C 	C 	0.6155	0.0191	0.9331	0.207
Mof_C 	C 	0.6243	0.995	0.8955	-0.325
Mof_H 	H 	0.6458	0.9858	0.9015	0.134
Mof_C 	C 	0.6021	0.9819	0.8444	0.239
Mof_H 	H 	0.6117	0.9655	0.8126	-0.053
Mof_C 	C 	0.6385	0.0358	0.9896	-0.192
Mof_H 	H 	0.6574	0.0455	0.9616	0.08
Mof_H 	H 	0.6474	0.0188	0.0247	0.082
Mof_Mn	Mn	0.22027	0.63581	0.77818	1.067
Mof_O 	O 	0.24032	0.59797	0.81305	-0.435
Mof_O 	O 	0.303	0.63408	0.63892	-0.391
Mof_O 	O 	0.20545	0.67652	0.73101	-0.396
Mof_N 	N 	0.25612	0.64303	0.7073	-0.256
Mof_N 	N 	0.25394	0.67329	0.6647	-0.2
Mof_N 	N 	0.18864	0.60813	0.6924	-0.213
Mof_C 	C 	0.2659	0.58064	0.7846	0.318
Mof_C 	C 	0.27264	0.54953	0.816	-0.286
Mof_H 	H 	0.2591	0.5413	0.8561	0.135
Mof_C 	C 	0.29848	0.53068	0.7897	0.159
Mof_H 	H 	0.3028	0.5098	0.8124	-0.031
Mof_C 	C 	0.31824	0.54152	0.7307	-0.221
Mof_H 	H 	0.3354	0.5279	0.7112	0.114
Mof_C 	C 	0.31267	0.57219	0.7009	0.146
Mof_H 	H 	0.327	0.5801	0.6621	0.009
Mof_C 	C 	0.28651	0.59253	0.7253	-0.249
Mof_C 	C 	0.282	0.62477	0.6885	0.315
Mof_C 	C 	0.22638	0.68801	0.682	0.276
Mof_C 	C 	0.21712	0.72021	0.6435	-0.264
Mof_H 	H 	0.2367	0.7299	0.618	0.107
Mof_H 	H 	0.209	0.7363	0.6817	0.108
Mof_C 	C 	0.16827	0.58454	0.7128	0.137
Mof_H 	H 	0.1678	0.5786	0.7651	-0.006
Mof_C 	C 	0.14753	0.56779	0.6645	-0.22
Mof_H 	H 	0.1345	0.5498	0.682	0.112
Mof_C 	C 	0.14624	0.57799	0.5894	0.156
Mof_C 	C 	0.16779	0.60253	0.5688	-0.224
Mof_H 	H 	0.168	0.61	0.5176	0.102
Mof_C 	C 	0.18831	0.61611	0.6184	0.143
Mof_H 	H 	0.2035	0.6323	0.6007	-0.016
Mof_C 	C 	0.12281	0.5617	0.5343	-0.147
Mof_H 	H 	0.104	0.552	0.563	0.071
Mof_H 	H 	0.1138	0.5787	0.4994	0.064
Mof_Mn	Mn	0.29573	0.67531	0.58203	1.016
Mof_O 	O 	0.27028	0.65369	0.5084	-0.435
Mof_O 	O 	0.27569	0.75408	0.43783	-0.377
Mof_O 	O 	0.32068	0.70431	0.64907	-0.394
Mof_N 	N 	0.28911	0.7169	0.5302	-0.257
Mof_N 	N 	0.30507	0.74448	0.56572	-0.197
Mof_C 	C 	0.25357	0.66624	0.4507	0.34
Mof_C 	C 	0.2332	0.6437	0.4103	-0.318
Mof_H 	H 	0.2322	0.6213	0.4261	0.142
Mof_C 	C 	0.2157	0.6534	0.3517	0.185
Mof_H 	H 	0.1971	0.6409	0.3353	-0.037
Mof_C 	C 	0.2248	0.6823	0.3138	-0.215
Mof_H 	H 	0.2227	0.6848	0.2602	0.108
Mof_C 	C 	0.2378	0.7081	0.3624	0.138
Mof_H 	H 	0.2345	0.7309	0.351	-0.001
Mof_C 	C 	0.25529	0.69827	0.4262	-0.261
Mof_C 	C 	0.27468	0.72437	0.4664	0.301
Mof_C 	C 	0.32043	0.73458	0.6263	0.24
Mof_C 	C 	0.33815	0.76056	0.6728	-0.158
Mof_H 	H 	0.3214	0.7749	0.6974	0.077
Mof_H 	H 	0.3514	0.7746	0.6381	0.068
Mof_C 	C 	0.3611	0.7465	0.7345	-0.254
Mof_H 	H 	0.3482	0.7328	0.7698	0.104
Mof_H 	H 	0.3714	0.7648	0.7625	0.1
Mof_H 	H 	0.3784	0.733	0.7106	0.101
Mof_Mn	Mn	0.21151	0.70922	0.99449	1.062
Mof_O 	O 	0.16935	0.70132	0.03273	-0.433
Mof_O 	O 	0.18229	0.63381	0.84906	-0.382
Mof_O 	O 	0.25423	0.71141	0.94491	-0.385
Mof_N 	N 	0.20671	0.67387	0.92132	-0.251
Mof_N 	N 	0.23522	0.66787	0.8769	-0.193
Mof_C 	C 	0.14693	0.67926	0.0113	0.33
Mof_C 	C 	0.11668	0.67889	0.0504	-0.295
Mof_H 	H 	0.1131	0.6944	0.0903	0.137
Mof_C 	C 	0.0919	0.6566	0.0323	0.175
Mof_H 	H 	0.0715	0.6571	0.0594	-0.038
Mof_C 	C 	0.09651	0.63412	0.9764	-0.242
Mof_H 	H 	0.0799	0.6181	0.9659	0.115
Mof_C 	C 	0.12534	0.63464	0.9348	0.159
Mof_H 	H 	0.1278	0.6195	0.8938	-0.004
Mof_C 	C 	0.15114	0.65665	0.951	-0.261
Mof_C 	C 	0.18084	0.65461	0.9043	0.304
Mof_C 	C 	0.25811	0.68874	0.8937	0.236
Mof_C 	C 	0.29165	0.68558	0.8574	-0.135
Mof_H 	H 	0.2957	0.7051	0.8248	0.065
Mof_H 	H 	0.2919	0.6657	0.8245	0.059
Mof_C 	C 	0.31888	0.6829	0.9151	-0.274
Mof_H 	H 	0.3157	0.6628	0.9456	0.106
Mof_H 	H 	0.3403	0.6817	0.8889	0.101
Mof_H 	H 	0.3185	0.7024	0.9484	0.115
Mof_N 	N 	0.07408	0.48651	0.3314	-0.239
Mof_C 	C 	0.06372	0.51699	0.3603	0.098
Mof_H 	H 	0.0418	0.5246	0.351	0.006
Mof_C 	C 	0.0856	0.5364	0.403	-0.198
Mof_H 	H 	0.0817	0.5592	0.4123	0.091
Mof_C 	C 	0.1155	0.5191	0.4331	0.207
Mof_C 	C 	0.1243	0.495	0.3955	-0.326
Mof_H 	H 	0.1458	0.4858	0.4015	0.135
Mof_C 	C 	0.1021	0.4819	0.3444	0.239
Mof_H 	H 	0.1117	0.4655	0.3126	-0.053
Mof_C 	C 	0.1385	0.5358	0.4896	-0.192
Mof_H 	H 	0.1574	0.5455	0.4616	0.08
Mof_H 	H 	0.1474	0.5188	0.5247	0.082
Mof_Mn	Mn	0.77973	0.86419	0.77818	1.067
Mof_O 	O 	0.75968	0.90203	0.81305	-0.435
Mof_O 	O 	0.697	0.86592	0.63892	-0.391
Mof_O 	O 	0.79455	0.82348	0.73101	-0.396
Mof_N 	N 	0.74388	0.85697	0.7073	-0.256
Mof_N 	N 	0.74606	0.82671	0.6647	-0.2
Mof_N 	N 	0.81136	0.89187	0.6924	-0.213
Mof_C 	C 	0.7341	0.91936	0.7846	0.318
Mof_C 	C 	0.72736	0.95047	0.816	-0.286
Mof_H 	H 	0.7409	0.9587	0.8561	0.135
Mof_C 	C 	0.70152	0.96932	0.7897	0.159
Mof_H 	H 	0.6972	0.9902	0.8124	-0.031
Mof_C 	C 	0.68176	0.95848	0.7307	-0.221
Mof_H 	H 	0.6646	0.9721	0.7112	0.114
Mof_C 	C 	0.68733	0.92781	0.7009	0.146
Mof_H 	H 	0.673	0.9199	0.6621	0.009
Mof_C 	C 	0.71349	0.90747	0.7253	-0.249
Mof_C 	C 	0.718	0.87523	0.6885	0.315
Mof_C 	C 	0.77362	0.81199	0.682	0.276
Mof_C 	C 	0.78288	0.77979	0.6435	-0.264
Mof_H 	H 	0.7633	0.7701	0.618	0.107
Mof_H 	H 	0.791	0.7637	0.6817	0.108
Mof_C 	C 	0.83173	0.91546	0.7128	0.137
Mof_H 	H 	0.8322	0.9214	0.7651	-0.006
Mof_C 	C 	0.85247	0.93221	0.6645	-0.22
Mof_H 	H 	0.8655	0.9502	0.682	0.112
Mof_C 	C 	0.85376	0.92201	0.5894	0.156
Mof_C 	C 	0.83221	0.89747	0.5688	-0.224
Mof_H 	H 	0.832	0.89	0.5176	0.102
Mof_C 	C 	0.81169	0.88389	0.6184	0.143
Mof_H 	H 	0.7965	0.8677	0.6007	-0.016
Mof_C 	C 	0.87719	0.9383	0.5343	-0.147
Mof_H 	H 	0.896	0.948	0.563	0.071
Mof_H 	H 	0.8862	0.9213	0.4994	0.064
Mof_Mn	Mn	0.70427	0.82469	0.58203	1.016
Mof_O 	O 	0.72972	0.84631	0.5084	-0.435
Mof_O 	O 	0.72431	0.74592	0.43783	-0.377
Mof_O 	O 	0.67932	0.79569	0.64907	-0.394
Mof_N 	N 	0.71089	0.7831	0.5302	-0.257
Mof_N 	N 	0.69493	0.75552	0.56572	-0.197
Mof_C 	C 	0.74643	0.83376	0.4507	0.34
Mof_C 	C 	0.7668	0.8563	0.4103	-0.318
Mof_H 	H 	0.7678	0.8787	0.4261	0.142
Mof_C 	C 	0.7843	0.8466	0.3517	0.185
Mof_H 	H 	0.8029	0.8591	0.3353	-0.037
Mof_C 	C 	0.7752	0.8177	0.3138	-0.215
Mof_H 	H 	0.7773	0.8152	0.2602	0.108
Mof_C 	C 	0.7622	0.7919	0.3624	0.138
Mof_H 	H 	0.7655	0.7691	0.351	-0.001
Mof_C 	C 	0.74471	0.80173	0.4262	-0.261
Mof_C 	C 	0.72532	0.77563	0.4664	0.301
Mof_C 	C 	0.67957	0.76542	0.6263	0.24
Mof_C 	C 	0.66185	0.73944	0.6728	-0.158
Mof_H 	H 	0.6786	0.7251	0.6974	0.077
Mof_H 	H 	0.6486	0.7254	0.6381	0.068
Mof_C 	C 	0.6389	0.7535	0.7345	-0.254
Mof_H 	H 	0.6518	0.7672	0.7698	0.104
Mof_H 	H 	0.6286	0.7352	0.7625	0.1
Mof_H 	H 	0.6216	0.767	0.7106	0.101
Mof_Mn	Mn	0.78849	0.79078	0.99449	1.062
Mof_O 	O 	0.83065	0.79868	0.03273	-0.433
Mof_O 	O 	0.81771	0.86619	0.84906	-0.382
Mof_O 	O 	0.74577	0.78859	0.94491	-0.385
Mof_N 	N 	0.79329	0.82613	0.92132	-0.251
Mof_N 	N 	0.76478	0.83213	0.8769	-0.193
Mof_C 	C 	0.85307	0.82074	0.0113	0.33
Mof_C 	C 	0.88332	0.82111	0.0504	-0.295
Mof_H 	H 	0.8869	0.8056	0.0903	0.137
Mof_C 	C 	0.9081	0.8434	0.0323	0.175
Mof_H 	H 	0.9285	0.8429	0.0594	-0.038
Mof_C 	C 	0.90349	0.86588	0.9764	-0.242
Mof_H 	H 	0.9201	0.8819	0.9659	0.115
Mof_C 	C 	0.87466	0.86536	0.9348	0.159
Mof_H 	H 	0.8722	0.8805	0.8938	-0.004
Mof_C 	C 	0.84886	0.84335	0.951	-0.261
Mof_C 	C 	0.81916	0.84539	0.9043	0.304
Mof_C 	C 	0.74189	0.81126	0.8937	0.236
Mof_C 	C 	0.70835	0.81442	0.8574	-0.135
Mof_H 	H 	0.7043	0.7949	0.8248	0.065
Mof_H 	H 	0.7081	0.8343	0.8245	0.059
Mof_C 	C 	0.68112	0.8171	0.9151	-0.274
Mof_H 	H 	0.6843	0.8372	0.9456	0.106
Mof_H 	H 	0.6597	0.8183	0.8889	0.101
Mof_H 	H 	0.6815	0.7976	0.9484	0.115
Mof_N 	N 	0.92592	0.01349	0.3314	-0.239
Mof_C 	C 	0.93628	0.98301	0.3603	0.098
Mof_H 	H 	0.9582	0.9754	0.351	0.006
Mof_C 	C 	0.9144	0.9636	0.403	-0.198
Mof_H 	H 	0.9183	0.9408	0.4123	0.091
Mof_C 	C 	0.8845	0.9809	0.4331	0.207
Mof_C 	C 	0.8757	0.005	0.3955	-0.326
Mof_H 	H 	0.8542	0.0142	0.4015	0.135
Mof_C 	C 	0.8979	0.0181	0.3444	0.239
Mof_H 	H 	0.8883	0.0345	0.3126	-0.053
Mof_C 	C 	0.8615	0.9642	0.4896	-0.192
Mof_H 	H 	0.8426	0.9545	0.4616	0.08
Mof_H 	H 	0.8526	0.9812	0.5247	0.082
Mof_Mn	Mn	0.27973	0.36419	0.27818	1.067
Mof_O 	O 	0.25968	0.40203	0.31305	-0.435
Mof_O 	O 	0.197	0.36592	0.13892	-0.391
Mof_O 	O 	0.29455	0.32348	0.23101	-0.396
Mof_N 	N 	0.24388	0.35697	0.2073	-0.256
Mof_N 	N 	0.24606	0.32671	0.1647	-0.2
Mof_N 	N 	0.31136	0.39187	0.1924	-0.213
Mof_C 	C 	0.2341	0.41936	0.2846	0.318
Mof_C 	C 	0.22736	0.45047	0.316	-0.286
Mof_H 	H 	0.2409	0.4587	0.3561	0.135
Mof_C 	C 	0.20152	0.46932	0.2897	0.159
Mof_H 	H 	0.1972	0.4902	0.3124	-0.031
Mof_C 	C 	0.18176	0.45848	0.2307	-0.221
Mof_H 	H 	0.1646	0.4721	0.2112	0.114
Mof_C 	C 	0.18733	0.42781	0.2009	0.146
Mof_H 	H 	0.173	0.4199	0.1621	0.009
Mof_C 	C 	0.21349	0.40747	0.2253	-0.249
Mof_C 	C 	0.218	0.37523	0.1885	0.315
Mof_C 	C 	0.27362	0.31199	0.182	0.276
Mof_C 	C 	0.28288	0.27979	0.1435	-0.264
Mof_H 	H 	0.2633	0.2701	0.118	0.107
Mof_H 	H 	0.291	0.2637	0.1817	0.108
Mof_C 	C 	0.33173	0.41546	0.2128	0.137
Mof_H 	H 	0.3322	0.4214	0.2651	-0.006
Mof_C 	C 	0.35247	0.43221	0.1645	-0.22
Mof_H 	H 	0.3655	0.4502	0.182	0.112
Mof_C 	C 	0.35376	0.42201	0.0894	0.157
Mof_C 	C 	0.33221	0.39747	0.0688	-0.225
Mof_H 	H 	0.332	0.39	0.0176	0.102
Mof_C 	C 	0.31169	0.38389	0.1184	0.143
Mof_H 	H 	0.2965	0.3677	0.1007	-0.016
Mof_C 	C 	0.37719	0.4383	0.0343	-0.147
Mof_H 	H 	0.396	0.448	0.063	0.071
Mof_H 	H 	0.3862	0.4213	0.9994	0.064
Mof_Mn	Mn	0.20427	0.32469	0.08203	1.016
Mof_O 	O 	0.22972	0.34631	0.0084	-0.435
Mof_O 	O 	0.22431	0.24592	0.93783	-0.377
Mof_O 	O 	0.17932	0.29569	0.14907	-0.394
Mof_N 	N 	0.21089	0.2831	0.0302	-0.257
Mof_N 	N 	0.19493	0.25552	0.06572	-0.197
Mof_C 	C 	0.24643	0.33376	0.9507	0.341
Mof_C 	C 	0.2668	0.3563	0.9103	-0.318
Mof_H 	H 	0.2678	0.3787	0.9261	0.142
Mof_C 	C 	0.2843	0.3466	0.8517	0.185
Mof_H 	H 	0.3029	0.3591	0.8353	-0.037
Mof_C 	C 	0.2752	0.3177	0.8138	-0.216
Mof_H 	H 	0.2773	0.3152	0.7602	0.108
Mof_C 	C 	0.2622	0.2919	0.8624	0.138
Mof_H 	H 	0.2655	0.2691	0.851	-0.001
Mof_C 	C 	0.24471	0.30173	0.9262	-0.261
Mof_C 	C 	0.22532	0.27563	0.9664	0.302
Mof_C 	C 	0.17957	0.26542	0.1263	0.24
Mof_C 	C 	0.16185	0.23944	0.1728	-0.158
Mof_H 	H 	0.1786	0.2251	0.1974	0.077
Mof_H 	H 	0.1486	0.2254	0.1381	0.068
Mof_C 	C 	0.1389	0.2535	0.2345	-0.254
Mof_H 	H 	0.1518	0.2672	0.2698	0.104
Mof_H 	H 	0.1286	0.2352	0.2625	0.1
Mof_H 	H 	0.1216	0.267	0.2106	0.101
Mof_Mn	Mn	0.28849	0.29078	0.49449	1.062
Mof_O 	O 	0.33065	0.29868	0.53273	-0.433
Mof_O 	O 	0.31771	0.36619	0.34906	-0.382
Mof_O 	O 	0.24577	0.28859	0.44491	-0.385
Mof_N 	N 	0.29329	0.32613	0.42132	-0.251
Mof_N 	N 	0.26478	0.33213	0.3769	-0.193
Mof_C 	C 	0.35307	0.32074	0.5113	0.33
Mof_C 	C 	0.38332	0.32111	0.5504	-0.295
Mof_H 	H 	0.3869	0.3056	0.5903	0.137
Mof_C 	C 	0.4081	0.3434	0.5323	0.175
Mof_H 	H 	0.4285	0.3429	0.5594	-0.038
Mof_C 	C 	0.40349	0.36588	0.4764	-0.242
Mof_H 	H 	0.4201	0.3819	0.4659	0.115
Mof_C 	C 	0.37466	0.36536	0.4348	0.158
Mof_H 	H 	0.3722	0.3805	0.3938	-0.004
Mof_C 	C 	0.34886	0.34335	0.451	-0.261
Mof_C 	C 	0.31916	0.34539	0.4043	0.304
Mof_C 	C 	0.24189	0.31126	0.3937	0.236
Mof_C 	C 	0.20835	0.31442	0.3574	-0.135
Mof_H 	H 	0.2043	0.2949	0.3248	0.065
Mof_H 	H 	0.2081	0.3343	0.3245	0.059
Mof_C 	C 	0.18112	0.3171	0.4151	-0.274
Mof_H 	H 	0.1843	0.3372	0.4456	0.106
Mof_H 	H 	0.1597	0.3183	0.3889	0.101
Mof_H 	H 	0.1815	0.2976	0.4484	0.115
Mof_N 	N 	0.42592	0.51349	0.8314	-0.239
Mof_C 	C 	0.43628	0.48301	0.8603	0.098
Mof_H 	H 	0.4582	0.4754	0.851	0.006
Mof_C 	C 	0.4144	0.4636	0.903	-0.198
Mof_H 	H 	0.4183	0.4408	0.9123	0.091
Mof_C 	C 	0.3845	0.4809	0.9331	0.207
Mof_C 	C 	0.3757	0.505	0.8955	-0.325
Mof_H 	H 	0.3542	0.5142	0.9015	0.134
Mof_C 	C 	0.3979	0.5181	0.8444	0.239
Mof_H 	H 	0.3883	0.5345	0.8126	-0.053
Mof_C 	C 	0.3615	0.4642	0.9896	-0.192
Mof_H 	H 	0.3426	0.4545	0.9616	0.08
Mof_H 	H 	0.3526	0.4812	0.0247	0.082
Mof_Mn	Mn	0.61419	0.97027	0.52818	1.067
Mof_O 	O 	0.65203	0.99032	0.56305	-0.435
Mof_O 	O 	0.61592	0.053	0.38892	-0.391
Mof_O 	O 	0.57348	0.95545	0.48101	-0.396
Mof_N 	N 	0.60697	0.00612	0.4573	-0.256
Mof_N 	N 	0.57671	0.00394	0.4147	-0.2
Mof_N 	N 	0.64187	0.93864	0.4424	-0.213
Mof_C 	C 	0.66936	0.0159	0.5346	0.318
Mof_C 	C 	0.70047	0.02264	0.566	-0.286
Mof_H 	H 	0.7087	0.0091	0.6061	0.135
Mof_C 	C 	0.71932	0.04848	0.5397	0.159
Mof_H 	H 	0.7402	0.0528	0.5624	-0.031
Mof_C 	C 	0.70848	0.06824	0.4807	-0.221
Mof_H 	H 	0.7221	0.0854	0.4612	0.114
Mof_C 	C 	0.67781	0.06267	0.4509	0.146
Mof_H 	H 	0.6699	0.077	0.4121	0.009
Mof_C 	C 	0.65747	0.03651	0.4753	-0.249
Mof_C 	C 	0.62523	0.032	0.4385	0.315
Mof_C 	C 	0.56199	0.97638	0.432	0.276
Mof_C 	C 	0.52979	0.96712	0.3935	-0.264
Mof_H 	H 	0.5201	0.9867	0.368	0.107
Mof_H 	H 	0.5137	0.959	0.4317	0.108
Mof_C 	C 	0.66546	0.91827	0.4628	0.137
Mof_H 	H 	0.6714	0.9178	0.5151	-0.006
Mof_C 	C 	0.68221	0.89753	0.4145	-0.22
Mof_H 	H 	0.7002	0.8845	0.432	0.112
Mof_C 	C 	0.67201	0.89624	0.3394	0.156
Mof_C 	C 	0.64747	0.91779	0.3188	-0.225
Mof_H 	H 	0.64	0.918	0.2676	0.102
Mof_C 	C 	0.63389	0.93831	0.3684	0.143
Mof_H 	H 	0.6177	0.9535	0.3507	-0.016
Mof_C 	C 	0.6883	0.87281	0.2843	-0.147
Mof_H 	H 	0.698	0.854	0.313	0.071
Mof_H 	H 	0.6713	0.8638	0.2494	0.064
Mof_Mn	Mn	0.57469	0.04573	0.33203	1.016
Mof_O 	O 	0.59631	0.02028	0.2584	-0.435
Mof_O 	O 	0.49592	0.02569	0.18783	-0.377
Mof_O 	O 	0.54569	0.07068	0.39907	-0.394
Mof_N 	N 	0.5331	0.03911	0.2802	-0.257
Mof_N 	N 	0.50552	0.05507	0.31572	-0.197
Mof_C 	C 	0.58376	0.00357	0.2007	0.34
Mof_C 	C 	0.6063	0.9832	0.1603	-0.318
Mof_H 	H 	0.6287	0.9822	0.1761	0.142
Mof_C 	C 	0.5966	0.9657	0.1017	0.185
Mof_H 	H 	0.6091	0.9471	0.0853	-0.037
Mof_C 	C 	0.5677	0.9748	0.0638	-0.215
Mof_H 	H 	0.5652	0.9727	0.0102	0.108
Mof_C 	C 	0.5419	0.9878	0.1124	0.138
Mof_H 	H 	0.5191	0.9845	0.101	-0.001
Mof_C 	C 	0.55173	0.00529	0.1762	-0.261
Mof_C 	C 	0.52563	0.02468	0.2164	0.301
Mof_C 	C 	0.51542	0.07043	0.3763	0.24
Mof_C 	C 	0.48944	0.08815	0.4228	-0.158
Mof_H 	H 	0.4751	0.0714	0.4474	0.077
Mof_H 	H 	0.4754	0.1014	0.3881	0.068
Mof_C 	C 	0.5035	0.1111	0.4845	-0.254
Mof_H 	H 	0.5172	0.0982	0.5198	0.104
Mof_H 	H 	0.4852	0.1214	0.5125	0.1
Mof_H 	H 	0.517	0.1284	0.4606	0.101
Mof_Mn	Mn	0.54078	0.96151	0.74449	1.062
Mof_O 	O 	0.54868	0.91935	0.78273	-0.433
Mof_O 	O 	0.61619	0.93229	0.59906	-0.382
Mof_O 	O 	0.53859	0.00423	0.69491	-0.385
Mof_N 	N 	0.57613	0.95671	0.67132	-0.251
Mof_N 	N 	0.58213	0.98522	0.6269	-0.193
Mof_C 	C 	0.57074	0.89693	0.7613	0.33
Mof_C 	C 	0.57111	0.86668	0.8004	-0.295
Mof_H 	H 	0.5556	0.8631	0.8403	0.137
Mof_C 	C 	0.5934	0.8419	0.7823	0.175
Mof_H 	H 	0.5929	0.8215	0.8094	-0.038
Mof_C 	C 	0.61588	0.84651	0.7264	-0.242
Mof_H 	H 	0.6319	0.8299	0.7159	0.115
Mof_C 	C 	0.61536	0.87534	0.6848	0.158
Mof_H 	H 	0.6305	0.8778	0.6438	-0.004
Mof_C 	C 	0.59335	0.90114	0.701	-0.261
Mof_C 	C 	0.59539	0.93084	0.6543	0.304
Mof_C 	C 	0.56126	0.00811	0.6437	0.236
Mof_C 	C 	0.56442	0.04165	0.6074	-0.135
Mof_H 	H 	0.5449	0.0457	0.5748	0.065
Mof_H 	H 	0.5843	0.0419	0.5745	0.059
Mof_C 	C 	0.5671	0.06888	0.6651	-0.274
Mof_H 	H 	0.5872	0.0657	0.6956	0.106
Mof_H 	H 	0.5683	0.0903	0.6389	0.101
Mof_H 	H 	0.5476	0.0685	0.6984	0.115
Mof_N 	N 	0.76349	0.82408	0.0814	-0.239
Mof_C 	C 	0.73301	0.81372	0.1103	0.098
Mof_H 	H 	0.7254	0.7918	0.101	0.006
Mof_C 	C 	0.7136	0.8356	0.153	-0.198
Mof_H 	H 	0.6908	0.8317	0.1623	0.091
Mof_C 	C 	0.7309	0.8655	0.1831	0.207
Mof_C 	C 	0.755	0.8743	0.1455	-0.326
Mof_H 	H 	0.7642	0.8958	0.1515	0.135
Mof_C 	C 	0.7681	0.8521	0.0944	0.239
Mof_H 	H 	0.7845	0.8617	0.0626	-0.053
Mof_C 	C 	0.7142	0.8885	0.2396	-0.192
Mof_H 	H 	0.7045	0.9074	0.2116	0.08
Mof_H 	H 	0.7312	0.8974	0.2747	0.082
Mof_Mn	Mn	0.11419	0.47027	0.02818	1.067
Mof_O 	O 	0.15203	0.49032	0.06305	-0.435
Mof_O 	O 	0.11592	0.553	0.88892	-0.391
Mof_O 	O 	0.07348	0.45545	0.98101	-0.396
Mof_N 	N 	0.10697	0.50612	0.9573	-0.256
Mof_N 	N 	0.07671	0.50394	0.9147	-0.2
Mof_N 	N 	0.14187	0.43864	0.9424	-0.213
Mof_C 	C 	0.16936	0.5159	0.0346	0.318
Mof_C 	C 	0.20047	0.52264	0.066	-0.286
Mof_H 	H 	0.2087	0.5091	0.1061	0.135
Mof_C 	C 	0.21932	0.54848	0.0397	0.159
Mof_H 	H 	0.2402	0.5528	0.0624	-0.031
Mof_C 	C 	0.20848	0.56824	0.9807	-0.221
Mof_H 	H 	0.2221	0.5854	0.9612	0.114
Mof_C 	C 	0.17781	0.56267	0.9509	0.146
Mof_H 	H 	0.1699	0.577	0.9121	0.009
Mof_C 	C 	0.15747	0.53651	0.9753	-0.249
Mof_C 	C 	0.12523	0.532	0.9385	0.315
Mof_C 	C 	0.06199	0.47638	0.932	0.276
Mof_C 	C 	0.02979	0.46712	0.8935	-0.264
Mof_H 	H 	0.0201	0.4867	0.868	0.107
Mof_H 	H 	0.0137	0.459	0.9317	0.108
Mof_C 	C 	0.16546	0.41827	0.9628	0.137
Mof_H 	H 	0.1714	0.4178	0.0151	-0.006
Mof_C 	C 	0.18221	0.39753	0.9145	-0.22
Mof_H 	H 	0.2002	0.3845	0.932	0.112
Mof_C 	C 	0.17201	0.39624	0.8394	0.157
Mof_C 	C 	0.14747	0.41779	0.8188	-0.225
Mof_H 	H 	0.14	0.418	0.7676	0.102
Mof_C 	C 	0.13389	0.43831	0.8684	0.143
Mof_H 	H 	0.1177	0.4535	0.8507	-0.016
Mof_C 	C 	0.1883	0.37281	0.7843	-0.147
Mof_H 	H 	0.198	0.354	0.813	0.071
Mof_H 	H 	0.1713	0.3638	0.7494	0.064
Mof_Mn	Mn	0.07469	0.54573	0.83203	1.016
Mof_O 	O 	0.09631	0.52028	0.7584	-0.435
Mof_O 	O 	0.99592	0.52569	0.68783	-0.377
Mof_O 	O 	0.04569	0.57068	0.89907	-0.394
Mof_N 	N 	0.0331	0.53911	0.7802	-0.257
Mof_N 	N 	0.00552	0.55507	0.81572	-0.197
Mof_C 	C 	0.08376	0.50357	0.7007	0.34
Mof_C 	C 	0.1063	0.4832	0.6603	-0.318
Mof_H 	H 	0.1287	0.4822	0.6761	0.142
Mof_C 	C 	0.0966	0.4657	0.6017	0.185
Mof_H 	H 	0.1091	0.4471	0.5853	-0.037
Mof_C 	C 	0.0677	0.4748	0.5638	-0.215
Mof_H 	H 	0.0652	0.4727	0.5102	0.108
Mof_C 	C 	0.0419	0.4878	0.6124	0.138
Mof_H 	H 	0.0191	0.4845	0.601	-0.001
Mof_C 	C 	0.05173	0.50529	0.6762	-0.261
Mof_C 	C 	0.02563	0.52468	0.7164	0.301
Mof_C 	C 	0.01542	0.57043	0.8763	0.24
Mof_C 	C 	0.98944	0.58815	0.9228	-0.157
Mof_H 	H 	0.9751	0.5714	0.9474	0.077
Mof_H 	H 	0.9754	0.6014	0.8881	0.068
Mof_C 	C 	0.0035	0.6111	0.9845	-0.255
Mof_H 	H 	0.0172	0.5982	0.0198	0.104
Mof_H 	H 	0.9852	0.6214	0.0125	0.1
Mof_H 	H 	0.017	0.6284	0.9606	0.102
Mof_Mn	Mn	0.04078	0.46151	0.24449	1.062
Mof_O 	O 	0.04868	0.41935	0.28273	-0.433
Mof_O 	O 	0.11619	0.43229	0.09906	-0.382
Mof_O 	O 	0.03859	0.50423	0.19491	-0.385
Mof_N 	N 	0.07613	0.45671	0.17132	-0.251
Mof_N 	N 	0.08213	0.48522	0.1269	-0.193
Mof_C 	C 	0.07074	0.39693	0.2613	0.33
Mof_C 	C 	0.07111	0.36668	0.3004	-0.295
Mof_H 	H 	0.0556	0.3631	0.3403	0.137
Mof_C 	C 	0.0934	0.3419	0.2823	0.175
Mof_H 	H 	0.0929	0.3215	0.3094	-0.038
Mof_C 	C 	0.11588	0.34651	0.2264	-0.242
Mof_H 	H 	0.1319	0.3299	0.2159	0.115
Mof_C 	C 	0.11536	0.37534	0.1848	0.158
Mof_H 	H 	0.1305	0.3778	0.1438	-0.004
Mof_C 	C 	0.09335	0.40114	0.201	-0.261
Mof_C 	C 	0.09539	0.43084	0.1543	0.304
Mof_C 	C 	0.06126	0.50811	0.1437	0.236
Mof_C 	C 	0.06442	0.54165	0.1074	-0.135
Mof_H 	H 	0.0449	0.5457	0.0748	0.065
Mof_H 	H 	0.0843	0.5419	0.0745	0.059
Mof_C 	C 	0.0671	0.56888	0.1651	-0.274
Mof_H 	H 	0.0872	0.5657	0.1956	0.106
Mof_H 	H 	0.0683	0.5903	0.1389	0.101
Mof_H 	H 	0.0476	0.5685	0.1984	0.115
Mof_N 	N 	0.26349	0.32408	0.5814	-0.239
Mof_C 	C 	0.23301	0.31372	0.6103	0.098
Mof_H 	H 	0.2254	0.2918	0.601	0.006
Mof_C 	C 	0.2136	0.3356	0.653	-0.198
Mof_H 	H 	0.1908	0.3317	0.6623	0.091
Mof_C 	C 	0.2309	0.3655	0.6831	0.207
Mof_C 	C 	0.255	0.3743	0.6455	-0.326
Mof_H 	H 	0.2642	0.3958	0.6515	0.135
Mof_C 	C 	0.2681	0.3521	0.5944	0.239
Mof_H 	H 	0.2845	0.3617	0.5626	-0.053
Mof_C 	C 	0.2142	0.3885	0.7396	-0.192
Mof_H 	H 	0.2045	0.4074	0.7116	0.08
Mof_H 	H 	0.2312	0.3974	0.7747	0.082
Mof_Mn	Mn	0.88581	0.02973	0.02818	1.067
Mof_O 	O 	0.84797	0.00968	0.06305	-0.435
Mof_O 	O 	0.88408	0.947	0.88892	-0.391
Mof_O 	O 	0.92652	0.04455	0.98101	-0.396
Mof_N 	N 	0.89303	0.99388	0.9573	-0.256
Mof_N 	N 	0.92329	0.99606	0.9147	-0.2
Mof_N 	N 	0.85813	0.06136	0.9424	-0.213
Mof_C 	C 	0.83064	0.9841	0.0346	0.318
Mof_C 	C 	0.79953	0.97736	0.066	-0.286
Mof_H 	H 	0.7913	0.9909	0.1061	0.135
Mof_C 	C 	0.78068	0.95152	0.0397	0.159
Mof_H 	H 	0.7598	0.9472	0.0624	-0.031
Mof_C 	C 	0.79152	0.93176	0.9807	-0.221
Mof_H 	H 	0.7779	0.9146	0.9612	0.114
Mof_C 	C 	0.82219	0.93733	0.9509	0.146
Mof_H 	H 	0.8301	0.923	0.9121	0.009
Mof_C 	C 	0.84253	0.96349	0.9753	-0.249
Mof_C 	C 	0.87477	0.968	0.9385	0.315
Mof_C 	C 	0.93801	0.02362	0.932	0.276
Mof_C 	C 	0.97021	0.03288	0.8935	-0.264
Mof_H 	H 	0.9799	0.0133	0.868	0.106
Mof_H 	H 	0.9863	0.041	0.9317	0.108
Mof_C 	C 	0.83454	0.08173	0.9628	0.137
Mof_H 	H 	0.8286	0.0822	0.0151	-0.006
Mof_C 	C 	0.81779	0.10247	0.9145	-0.22
Mof_H 	H 	0.7998	0.1155	0.932	0.112
Mof_C 	C 	0.82799	0.10376	0.8394	0.156
Mof_C 	C 	0.85253	0.08221	0.8188	-0.225
Mof_H 	H 	0.86	0.082	0.7676	0.102
Mof_C 	C 	0.86611	0.06169	0.8684	0.143
Mof_H 	H 	0.8823	0.0465	0.8507	-0.016
Mof_C 	C 	0.8117	0.12719	0.7843	-0.147
Mof_H 	H 	0.802	0.146	0.813	0.071
Mof_H 	H 	0.8287	0.1362	0.7494	0.064
Mof_Mn	Mn	0.92531	0.95427	0.83203	1.016
Mof_O 	O 	0.90369	0.97972	0.7584	-0.435
Mof_O 	O 	0.00408	0.97431	0.68783	-0.377
Mof_O 	O 	0.95431	0.92932	0.89907	-0.394
Mof_N 	N 	0.9669	0.96089	0.7802	-0.257
Mof_N 	N 	0.99448	0.94493	0.81572	-0.197
Mof_C 	C 	0.91624	0.99643	0.7007	0.34
Mof_C 	C 	0.8937	0.0168	0.6603	-0.318
Mof_H 	H 	0.8713	0.0178	0.6761	0.142
Mof_C 	C 	0.9034	0.0343	0.6017	0.185
Mof_H 	H 	0.8909	0.0529	0.5853	-0.037
Mof_C 	C 	0.9323	0.0252	0.5638	-0.215
Mof_H 	H 	0.9348	0.0273	0.5102	0.107
Mof_C 	C 	0.9581	0.0122	0.6124	0.138
Mof_H 	H 	0.9809	0.0155	0.601	-0.001
Mof_C 	C 	0.94827	0.99471	0.6762	-0.261
Mof_C 	C 	0.97437	0.97532	0.7164	0.301
Mof_C 	C 	0.98458	0.92957	0.8763	0.24
Mof_C 	C 	0.01056	0.91185	0.9228	-0.157
Mof_H 	H 	0.0249	0.9286	0.9474	0.077
Mof_H 	H 	0.0246	0.8986	0.8881	0.068
Mof_C 	C 	0.9965	0.8889	0.9845	-0.254
Mof_H 	H 	0.9828	0.9018	0.0198	0.104
Mof_H 	H 	0.0148	0.8786	0.0125	0.1
Mof_H 	H 	0.983	0.8716	0.9606	0.102
Mof_Mn	Mn	0.95922	0.03849	0.24449	1.062
Mof_O 	O 	0.95132	0.08065	0.28273	-0.433
Mof_O 	O 	0.88381	0.06771	0.09906	-0.382
Mof_O 	O 	0.96141	0.99577	0.19491	-0.385
Mof_N 	N 	0.92387	0.04329	0.17132	-0.251
Mof_N 	N 	0.91787	0.01478	0.1269	-0.193
Mof_C 	C 	0.92926	0.10307	0.2613	0.33
Mof_C 	C 	0.92889	0.13332	0.3004	-0.295
Mof_H 	H 	0.9444	0.1369	0.3403	0.137
Mof_C 	C 	0.9066	0.1581	0.2823	0.175
Mof_H 	H 	0.9071	0.1785	0.3094	-0.038
Mof_C 	C 	0.88412	0.15349	0.2264	-0.242
Mof_H 	H 	0.8681	0.1701	0.2159	0.115
Mof_C 	C 	0.88464	0.12466	0.1848	0.158
Mof_H 	H 	0.8695	0.1222	0.1438	-0.004
Mof_C 	C 	0.90665	0.09886	0.201	-0.261
Mof_C 	C 	0.90461	0.06916	0.1543	0.304
Mof_C 	C 	0.93874	0.99189	0.1437	0.236
Mof_C 	C 	0.93558	0.95835	0.1074	-0.135
Mof_H 	H 	0.9551	0.9543	0.0748	0.065
Mof_H 	H 	0.9157	0.9581	0.0745	0.059
Mof_C 	C 	0.9329	0.93112	0.1651	-0.274
Mof_H 	H 	0.9128	0.9343	0.1956	0.106
Mof_H 	H 	0.9317	0.9097	0.1389	0.101
Mof_H 	H 	0.9524	0.9315	0.1984	0.115
Mof_N 	N 	0.73651	0.17592	0.5814	-0.239
Mof_C 	C 	0.76699	0.18628	0.6103	0.098
Mof_H 	H 	0.7746	0.2082	0.601	0.006
Mof_C 	C 	0.7864	0.1644	0.653	-0.198
Mof_H 	H 	0.8092	0.1683	0.6623	0.091
Mof_C 	C 	0.7691	0.1345	0.6831	0.207
Mof_C 	C 	0.745	0.1257	0.6455	-0.326
Mof_H 	H 	0.7358	0.1042	0.6515	0.135
Mof_C 	C 	0.7319	0.1479	0.5944	0.239
Mof_H 	H 	0.7155	0.1383	0.5626	-0.053
Mof_C 	C 	0.7858	0.1115	0.7396	-0.192
Mof_H 	H 	0.7955	0.0926	0.7116	0.08
Mof_H 	H 	0.7688	0.1026	0.7747	0.082
Mof_Mn	Mn	0.38581	0.52973	0.52818	1.067
Mof_O 	O 	0.34797	0.50968	0.56305	-0.435
Mof_O 	O 	0.38408	0.447	0.38892	-0.391
Mof_O 	O 	0.42652	0.54455	0.48101	-0.396
Mof_N 	N 	0.39303	0.49388	0.4573	-0.256
Mof_N 	N 	0.42329	0.49606	0.4147	-0.2
Mof_N 	N 	0.35813	0.56136	0.4424	-0.213
Mof_C 	C 	0.33064	0.4841	0.5346	0.318
Mof_C 	C 	0.29953	0.47736	0.566	-0.286
Mof_H 	H 	0.2913	0.4909	0.6061	0.135
Mof_C 	C 	0.28068	0.45152	0.5397	0.159
Mof_H 	H 	0.2598	0.4472	0.5624	-0.031
Mof_C 	C 	0.29152	0.43176	0.4807	-0.221
Mof_H 	H 	0.2779	0.4146	0.4612	0.114
Mof_C 	C 	0.32219	0.43733	0.4509	0.146
Mof_H 	H 	0.3301	0.423	0.4121	0.009
Mof_C 	C 	0.34253	0.46349	0.4753	-0.249
Mof_C 	C 	0.37477	0.468	0.4385	0.315
Mof_C 	C 	0.43801	0.52362	0.432	0.276
Mof_C 	C 	0.47021	0.53288	0.3935	-0.264
Mof_H 	H 	0.4799	0.5133	0.368	0.107
Mof_H 	H 	0.4863	0.541	0.4317	0.108
Mof_C 	C 	0.33454	0.58173	0.4628	0.137
Mof_H 	H 	0.3286	0.5822	0.5151	-0.006
Mof_C 	C 	0.31779	0.60247	0.4145	-0.22
Mof_H 	H 	0.2998	0.6155	0.432	0.112
Mof_C 	C 	0.32799	0.60376	0.3394	0.156
Mof_C 	C 	0.35253	0.58221	0.3188	-0.224
Mof_H 	H 	0.36	0.582	0.2676	0.102
Mof_C 	C 	0.36611	0.56169	0.3684	0.143
Mof_H 	H 	0.3823	0.5465	0.3507	-0.016
Mof_C 	C 	0.3117	0.62719	0.2843	-0.147
Mof_H 	H 	0.302	0.646	0.313	0.071
Mof_H 	H 	0.3287	0.6362	0.2494	0.064
Mof_Mn	Mn	0.42531	0.45427	0.33203	1.016
Mof_O 	O 	0.40369	0.47972	0.2584	-0.435
Mof_O 	O 	0.50408	0.47431	0.18783	-0.377
Mof_O 	O 	0.45431	0.42932	0.39907	-0.394
Mof_N 	N 	0.4669	0.46089	0.2802	-0.257
Mof_N 	N 	0.49448	0.44493	0.31572	-0.197
Mof_C 	C 	0.41624	0.49643	0.2007	0.34
Mof_C 	C 	0.3937	0.5168	0.1603	-0.318
Mof_H 	H 	0.3713	0.5178	0.1761	0.142
Mof_C 	C 	0.4034	0.5343	0.1017	0.185
Mof_H 	H 	0.3909	0.5529	0.0853	-0.037
Mof_C 	C 	0.4323	0.5252	0.0638	-0.215
Mof_H 	H 	0.4348	0.5273	0.0102	0.108
Mof_C 	C 	0.4581	0.5122	0.1124	0.138
Mof_H 	H 	0.4809	0.5155	0.101	-0.001
Mof_C 	C 	0.44827	0.49471	0.1762	-0.261
Mof_C 	C 	0.47437	0.47532	0.2164	0.301
Mof_C 	C 	0.48458	0.42957	0.3763	0.24
Mof_C 	C 	0.51056	0.41185	0.4228	-0.158
Mof_H 	H 	0.5249	0.4286	0.4474	0.077
Mof_H 	H 	0.5246	0.3986	0.3881	0.068
Mof_C 	C 	0.4965	0.3889	0.4845	-0.254
Mof_H 	H 	0.4828	0.4018	0.5198	0.104
Mof_H 	H 	0.5148	0.3786	0.5125	0.1
Mof_H 	H 	0.483	0.3716	0.4606	0.101
Mof_Mn	Mn	0.45922	0.53849	0.74449	1.062
Mof_O 	O 	0.45132	0.58065	0.78273	-0.433
Mof_O 	O 	0.38381	0.56771	0.59906	-0.382
Mof_O 	O 	0.46141	0.49577	0.69491	-0.385
Mof_N 	N 	0.42387	0.54329	0.67132	-0.251
Mof_N 	N 	0.41787	0.51478	0.6269	-0.193
Mof_C 	C 	0.42926	0.60307	0.7613	0.33
Mof_C 	C 	0.42889	0.63332	0.8004	-0.295
Mof_H 	H 	0.4444	0.6369	0.8403	0.137
Mof_C 	C 	0.4066	0.6581	0.7823	0.175
Mof_H 	H 	0.4071	0.6785	0.8094	-0.038
Mof_C 	C 	0.38412	0.65349	0.7264	-0.242
Mof_H 	H 	0.3681	0.6701	0.7159	0.115
Mof_C 	C 	0.38464	0.62466	0.6848	0.158
Mof_H 	H 	0.3695	0.6222	0.6438	-0.004
Mof_C 	C 	0.40665	0.59886	0.701	-0.261
Mof_C 	C 	0.40461	0.56916	0.6543	0.304
Mof_C 	C 	0.43874	0.49189	0.6437	0.236
Mof_C 	C 	0.43558	0.45835	0.6074	-0.135
Mof_H 	H 	0.4551	0.4543	0.5748	0.065
Mof_H 	H 	0.4157	0.4581	0.5745	0.059
Mof_C 	C 	0.4329	0.43112	0.6651	-0.274
Mof_H 	H 	0.4128	0.4343	0.6956	0.106
Mof_H 	H 	0.4317	0.4097	0.6389	0.101
Mof_H 	H 	0.4524	0.4315	0.6984	0.115
Mof_N 	N 	0.23651	0.67592	0.0814	-0.239
Mof_C 	C 	0.26699	0.68628	0.1103	0.098
Mof_H 	H 	0.2746	0.7082	0.101	0.006
Mof_C 	C 	0.2864	0.6644	0.153	-0.198
Mof_H 	H 	0.3092	0.6683	0.1623	0.091
Mof_C 	C 	0.2691	0.6345	0.1831	0.207
Mof_C 	C 	0.245	0.6257	0.1455	-0.326
Mof_H 	H 	0.2358	0.6042	0.1515	0.135
Mof_C 	C 	0.2319	0.6479	0.0944	0.239
Mof_H 	H 	0.2155	0.6383	0.0626	-0.053
Mof_C 	C 	0.2858	0.6115	0.2396	-0.192
Mof_H 	H 	0.2955	0.5926	0.2116	0.08
Mof_H 	H 	0.2688	0.6026	0.2747	0.082
Mof_Mn	Mn	0.27973	0.86419	0.72182	1.067
Mof_O 	O 	0.25968	0.90203	0.68695	-0.435
Mof_O 	O 	0.197	0.86592	0.86108	-0.391
Mof_O 	O 	0.29455	0.82348	0.76899	-0.396
Mof_N 	N 	0.24388	0.85697	0.7927	-0.256
Mof_N 	N 	0.24606	0.82671	0.8353	-0.2
Mof_N 	N 	0.31136	0.89187	0.8076	-0.213
Mof_C 	C 	0.2341	0.91936	0.7154	0.318
Mof_C 	C 	0.22736	0.95047	0.684	-0.286
Mof_H 	H 	0.2409	0.9587	0.6439	0.135
Mof_C 	C 	0.20152	0.96932	0.7103	0.159
Mof_H 	H 	0.1972	0.9902	0.6876	-0.031
Mof_C 	C 	0.18176	0.95848	0.7693	-0.221
Mof_H 	H 	0.1646	0.9721	0.7888	0.114
Mof_C 	C 	0.18733	0.92781	0.7991	0.146
Mof_H 	H 	0.173	0.9199	0.8379	0.009
Mof_C 	C 	0.21349	0.90747	0.7747	-0.249
Mof_C 	C 	0.218	0.87523	0.8115	0.315
Mof_C 	C 	0.27362	0.81199	0.818	0.276
Mof_C 	C 	0.28288	0.77979	0.8565	-0.264
Mof_H 	H 	0.2633	0.7701	0.882	0.107
Mof_H 	H 	0.291	0.7637	0.8183	0.108
Mof_C 	C 	0.33173	0.91546	0.7872	0.137
Mof_H 	H 	0.3322	0.9214	0.7349	-0.006
Mof_C 	C 	0.35247	0.93221	0.8355	-0.22
Mof_H 	H 	0.3655	0.9502	0.818	0.112
Mof_C 	C 	0.35376	0.92201	0.9106	0.157
Mof_C 	C 	0.33221	0.89747	0.9312	-0.225
Mof_H 	H 	0.332	0.89	0.9824	0.102
Mof_C 	C 	0.31169	0.88389	0.8816	0.143
Mof_H 	H 	0.2965	0.8677	0.8993	-0.016
Mof_C 	C 	0.37719	0.9383	0.9657	-0.147
Mof_H 	H 	0.396	0.948	0.937	0.071
Mof_H 	H 	0.3862	0.9213	0.0006	0.064
Mof_Mn	Mn	0.20427	0.82469	0.91797	1.016
Mof_O 	O 	0.22972	0.84631	0.9916	-0.435
Mof_O 	O 	0.22431	0.74592	0.06217	-0.377
Mof_O 	O 	0.17932	0.79569	0.85093	-0.394
Mof_N 	N 	0.21089	0.7831	0.9698	-0.257
Mof_N 	N 	0.19493	0.75552	0.93428	-0.197
Mof_C 	C 	0.24643	0.83376	0.0493	0.341
Mof_C 	C 	0.2668	0.8563	0.0897	-0.318
Mof_H 	H 	0.2678	0.8787	0.0739	0.142
Mof_C 	C 	0.2843	0.8466	0.1483	0.185
Mof_H 	H 	0.3029	0.8591	0.1647	-0.037
Mof_C 	C 	0.2752	0.8177	0.1862	-0.216
Mof_H 	H 	0.2773	0.8152	0.2398	0.108
Mof_C 	C 	0.2622	0.7919	0.1376	0.138
Mof_H 	H 	0.2655	0.7691	0.149	-0.001
Mof_C 	C 	0.24471	0.80173	0.0738	-0.261
Mof_C 	C 	0.22532	0.77563	0.0336	0.302
Mof_C 	C 	0.17957	0.76542	0.8737	0.24
Mof_C 	C 	0.16185	0.73944	0.8272	-0.158
Mof_H 	H 	0.1786	0.7251	0.8026	0.077
Mof_H 	H 	0.1486	0.7254	0.8619	0.068
Mof_C 	C 	0.1389	0.7535	0.7655	-0.254
Mof_H 	H 	0.1518	0.7672	0.7302	0.104
Mof_H 	H 	0.1286	0.7352	0.7375	0.1
Mof_H 	H 	0.1216	0.767	0.7894	0.101
Mof_Mn	Mn	0.28849	0.79078	0.50551	1.062
Mof_O 	O 	0.33065	0.79868	0.46727	-0.433
Mof_O 	O 	0.31771	0.86619	0.65094	-0.382
Mof_O 	O 	0.24577	0.78859	0.55509	-0.385
Mof_N 	N 	0.29329	0.82613	0.57868	-0.251
Mof_N 	N 	0.26478	0.83213	0.6231	-0.193
Mof_C 	C 	0.35307	0.82074	0.4887	0.33
Mof_C 	C 	0.38332	0.82111	0.4496	-0.295
Mof_H 	H 	0.3869	0.8056	0.4097	0.137
Mof_C 	C 	0.4081	0.8434	0.4677	0.175
Mof_H 	H 	0.4285	0.8429	0.4406	-0.038
Mof_C 	C 	0.40349	0.86588	0.5236	-0.242
Mof_H 	H 	0.4201	0.8819	0.5341	0.115
Mof_C 	C 	0.37466	0.86536	0.5652	0.158
Mof_H 	H 	0.3722	0.8805	0.6062	-0.004
Mof_C 	C 	0.34886	0.84335	0.549	-0.261
Mof_C 	C 	0.31916	0.84539	0.5957	0.304
Mof_C 	C 	0.24189	0.81126	0.6063	0.236
Mof_C 	C 	0.20835	0.81442	0.6426	-0.135
Mof_H 	H 	0.2043	0.7949	0.6752	0.065
Mof_H 	H 	0.2081	0.8343	0.6755	0.059
Mof_C 	C 	0.18112	0.8171	0.5849	-0.274
Mof_H 	H 	0.1843	0.8372	0.5544	0.106
Mof_H 	H 	0.1597	0.8183	0.6111	0.101
Mof_H 	H 	0.1815	0.7976	0.5516	0.115
Mof_N 	N 	0.42592	0.01349	0.1686	-0.239
Mof_C 	C 	0.43628	0.98301	0.1397	0.098
Mof_H 	H 	0.4582	0.9754	0.149	0.006
Mof_C 	C 	0.4144	0.9636	0.097	-0.198
Mof_H 	H 	0.4183	0.9408	0.0877	0.091
Mof_C 	C 	0.3845	0.9809	0.0669	0.207
Mof_C 	C 	0.3757	0.005	0.1045	-0.325
Mof_H 	H 	0.3542	0.0142	0.0985	0.134
Mof_C 	C 	0.3979	0.0181	0.1556	0.239
Mof_H 	H 	0.3883	0.0345	0.1874	-0.053
Mof_C 	C 	0.3615	0.9642	0.0104	-0.192
Mof_H 	H 	0.3426	0.9545	0.0384	0.08
Mof_H 	H 	0.3526	0.9812	0.9753	0.082
Mof_Mn	Mn	0.77973	0.36419	0.22182	1.067
Mof_O 	O 	0.75968	0.40203	0.18695	-0.435
Mof_O 	O 	0.697	0.36592	0.36108	-0.391
Mof_O 	O 	0.79455	0.32348	0.26899	-0.396
Mof_N 	N 	0.74388	0.35697	0.2927	-0.256
Mof_N 	N 	0.74606	0.32671	0.3353	-0.2
Mof_N 	N 	0.81136	0.39187	0.3076	-0.213
Mof_C 	C 	0.7341	0.41936	0.2154	0.318
Mof_C 	C 	0.72736	0.45047	0.184	-0.286
Mof_H 	H 	0.7409	0.4587	0.1439	0.135
Mof_C 	C 	0.70152	0.46932	0.2103	0.159
Mof_H 	H 	0.6972	0.4902	0.1876	-0.031
Mof_C 	C 	0.68176	0.45848	0.2693	-0.221
Mof_H 	H 	0.6646	0.4721	0.2888	0.114
Mof_C 	C 	0.68733	0.42781	0.2991	0.146
Mof_H 	H 	0.673	0.4199	0.3379	0.009
Mof_C 	C 	0.71349	0.40747	0.2747	-0.249
Mof_C 	C 	0.718	0.37523	0.3115	0.315
Mof_C 	C 	0.77362	0.31199	0.318	0.276
Mof_C 	C 	0.78288	0.27979	0.3565	-0.264
Mof_H 	H 	0.7633	0.2701	0.382	0.107
Mof_H 	H 	0.791	0.2637	0.3183	0.108
Mof_C 	C 	0.83173	0.41546	0.2872	0.137
Mof_H 	H 	0.8322	0.4214	0.2349	-0.006
Mof_C 	C 	0.85247	0.43221	0.3355	-0.22
Mof_H 	H 	0.8655	0.4502	0.318	0.112
Mof_C 	C 	0.85376	0.42201	0.4106	0.156
Mof_C 	C 	0.83221	0.39747	0.4312	-0.224
Mof_H 	H 	0.832	0.39	0.4824	0.102
Mof_C 	C 	0.81169	0.38389	0.3816	0.143
Mof_H 	H 	0.7965	0.3677	0.3993	-0.016
Mof_C 	C 	0.87719	0.4383	0.4657	-0.147
Mof_H 	H 	0.896	0.448	0.437	0.071
Mof_H 	H 	0.8862	0.4213	0.5006	0.064
Mof_Mn	Mn	0.70427	0.32469	0.41797	1.016
Mof_O 	O 	0.72972	0.34631	0.4916	-0.435
Mof_O 	O 	0.72431	0.24592	0.56217	-0.377
Mof_O 	O 	0.67932	0.29569	0.35093	-0.394
Mof_N 	N 	0.71089	0.2831	0.4698	-0.257
Mof_N 	N 	0.69493	0.25552	0.43428	-0.197
Mof_C 	C 	0.74643	0.33376	0.5493	0.34
Mof_C 	C 	0.7668	0.3563	0.5897	-0.318
Mof_H 	H 	0.7678	0.3787	0.5739	0.142
Mof_C 	C 	0.7843	0.3466	0.6483	0.185
Mof_H 	H 	0.8029	0.3591	0.6647	-0.037
Mof_C 	C 	0.7752	0.3177	0.6862	-0.215
Mof_H 	H 	0.7773	0.3152	0.7398	0.108
Mof_C 	C 	0.7622	0.2919	0.6376	0.138
Mof_H 	H 	0.7655	0.2691	0.649	-0.001
Mof_C 	C 	0.74471	0.30173	0.5738	-0.261
Mof_C 	C 	0.72532	0.27563	0.5336	0.301
Mof_C 	C 	0.67957	0.26542	0.3737	0.24
Mof_C 	C 	0.66185	0.23944	0.3272	-0.158
Mof_H 	H 	0.6786	0.2251	0.3026	0.077
Mof_H 	H 	0.6486	0.2254	0.3619	0.068
Mof_C 	C 	0.6389	0.2535	0.2655	-0.254
Mof_H 	H 	0.6518	0.2672	0.2302	0.104
Mof_H 	H 	0.6286	0.2352	0.2375	0.1
Mof_H 	H 	0.6216	0.267	0.2894	0.101
Mof_Mn	Mn	0.78849	0.29078	0.00551	1.062
Mof_O 	O 	0.83065	0.29868	0.96727	-0.433
Mof_O 	O 	0.81771	0.36619	0.15094	-0.382
Mof_O 	O 	0.74577	0.28859	0.05509	-0.385
Mof_N 	N 	0.79329	0.32613	0.07868	-0.251
Mof_N 	N 	0.76478	0.33213	0.1231	-0.193
Mof_C 	C 	0.85307	0.32074	0.9887	0.33
Mof_C 	C 	0.88332	0.32111	0.9496	-0.295
Mof_H 	H 	0.8869	0.3056	0.9097	0.137
Mof_C 	C 	0.9081	0.3434	0.9677	0.175
Mof_H 	H 	0.9285	0.3429	0.9406	-0.038
Mof_C 	C 	0.90349	0.36588	0.0236	-0.242
Mof_H 	H 	0.9201	0.3819	0.0341	0.115
Mof_C 	C 	0.87466	0.36536	0.0652	0.159
Mof_H 	H 	0.8722	0.3805	0.1062	-0.004
Mof_C 	C 	0.84886	0.34335	0.049	-0.261
Mof_C 	C 	0.81916	0.34539	0.0957	0.304
Mof_C 	C 	0.74189	0.31126	0.1063	0.236
Mof_C 	C 	0.70835	0.31442	0.1426	-0.135
Mof_H 	H 	0.7043	0.2949	0.1752	0.065
Mof_H 	H 	0.7081	0.3343	0.1755	0.059
Mof_C 	C 	0.68112	0.3171	0.0849	-0.274
Mof_H 	H 	0.6843	0.3372	0.0544	0.106
Mof_H 	H 	0.6597	0.3183	0.1111	0.101
Mof_H 	H 	0.6815	0.2976	0.0516	0.115
Mof_N 	N 	0.92592	0.51349	0.6686	-0.239
Mof_C 	C 	0.93628	0.48301	0.6397	0.098
Mof_H 	H 	0.9582	0.4754	0.649	0.006
Mof_C 	C 	0.9144	0.4636	0.597	-0.198
Mof_H 	H 	0.9183	0.4408	0.5877	0.091
Mof_C 	C 	0.8845	0.4809	0.5669	0.207
Mof_C 	C 	0.8757	0.505	0.6045	-0.326
Mof_H 	H 	0.8542	0.5142	0.5985	0.135
Mof_C 	C 	0.8979	0.5181	0.6556	0.239
Mof_H 	H 	0.8883	0.5345	0.6874	-0.053
Mof_C 	C 	0.8615	0.4642	0.5104	-0.192
Mof_H 	H 	0.8426	0.4545	0.5384	0.08
Mof_H 	H 	0.8526	0.4812	0.4753	0.082
Mof_Mn	Mn	0.22027	0.13581	0.22182	1.067
Mof_O 	O 	0.24032	0.09797	0.18695	-0.435
Mof_O 	O 	0.303	0.13408	0.36108	-0.391
Mof_O 	O 	0.20545	0.17652	0.26899	-0.396
Mof_N 	N 	0.25612	0.14303	0.2927	-0.256
Mof_N 	N 	0.25394	0.17329	0.3353	-0.2
Mof_N 	N 	0.18864	0.10813	0.3076	-0.213
Mof_C 	C 	0.2659	0.08064	0.2154	0.318
Mof_C 	C 	0.27264	0.04953	0.184	-0.286
Mof_H 	H 	0.2591	0.0413	0.1439	0.135
Mof_C 	C 	0.29848	0.03068	0.2103	0.159
Mof_H 	H 	0.3028	0.0098	0.1876	-0.031
Mof_C 	C 	0.31824	0.04152	0.2693	-0.221
Mof_H 	H 	0.3354	0.0279	0.2888	0.114
Mof_C 	C 	0.31267	0.07219	0.2991	0.146
Mof_H 	H 	0.327	0.0801	0.3379	0.009
Mof_C 	C 	0.28651	0.09253	0.2747	-0.249
Mof_C 	C 	0.282	0.12477	0.3115	0.315
Mof_C 	C 	0.22638	0.18801	0.318	0.276
Mof_C 	C 	0.21712	0.22021	0.3565	-0.264
Mof_H 	H 	0.2367	0.2299	0.382	0.107
Mof_H 	H 	0.209	0.2363	0.3183	0.108
Mof_C 	C 	0.16827	0.08454	0.2872	0.137
Mof_H 	H 	0.1678	0.0786	0.2349	-0.006
Mof_C 	C 	0.14753	0.06779	0.3355	-0.22
Mof_H 	H 	0.1345	0.0498	0.318	0.112
Mof_C 	C 	0.14624	0.07799	0.4106	0.156
Mof_C 	C 	0.16779	0.10253	0.4312	-0.224
Mof_H 	H 	0.168	0.11	0.4824	0.102
Mof_C 	C 	0.18831	0.11611	0.3816	0.143
Mof_H 	H 	0.2035	0.1323	0.3993	-0.016
Mof_C 	C 	0.12281	0.0617	0.4657	-0.147
Mof_H 	H 	0.104	0.052	0.437	0.071
Mof_H 	H 	0.1138	0.0787	0.5006	0.064
Mof_Mn	Mn	0.29573	0.17531	0.41797	1.016
Mof_O 	O 	0.27028	0.15369	0.4916	-0.435
Mof_O 	O 	0.27569	0.25408	0.56217	-0.377
Mof_O 	O 	0.32068	0.20431	0.35093	-0.394
Mof_N 	N 	0.28911	0.2169	0.4698	-0.257
Mof_N 	N 	0.30507	0.24448	0.43428	-0.197
Mof_C 	C 	0.25357	0.16624	0.5493	0.34
Mof_C 	C 	0.2332	0.1437	0.5897	-0.318
Mof_H 	H 	0.2322	0.1213	0.5739	0.142
Mof_C 	C 	0.2157	0.1534	0.6483	0.185
Mof_H 	H 	0.1971	0.1409	0.6647	-0.037
Mof_C 	C 	0.2248	0.1823	0.6862	-0.215
Mof_H 	H 	0.2227	0.1848	0.7398	0.108
Mof_C 	C 	0.2378	0.2081	0.6376	0.138
Mof_H 	H 	0.2345	0.2309	0.649	-0.001
Mof_C 	C 	0.25529	0.19827	0.5738	-0.261
Mof_C 	C 	0.27468	0.22437	0.5336	0.301
Mof_C 	C 	0.32043	0.23458	0.3737	0.24
Mof_C 	C 	0.33815	0.26056	0.3272	-0.158
Mof_H 	H 	0.3214	0.2749	0.3026	0.077
Mof_H 	H 	0.3514	0.2746	0.3619	0.068
Mof_C 	C 	0.3611	0.2465	0.2655	-0.254
Mof_H 	H 	0.3482	0.2328	0.2302	0.104
Mof_H 	H 	0.3714	0.2648	0.2375	0.1
Mof_H 	H 	0.3784	0.233	0.2894	0.101
Mof_Mn	Mn	0.21151	0.20922	0.00551	1.062
Mof_O 	O 	0.16935	0.20132	0.96727	-0.433
Mof_O 	O 	0.18229	0.13381	0.15094	-0.382
Mof_O 	O 	0.25423	0.21141	0.05509	-0.385
Mof_N 	N 	0.20671	0.17387	0.07868	-0.251
Mof_N 	N 	0.23522	0.16787	0.1231	-0.193
Mof_C 	C 	0.14693	0.17926	0.9887	0.33
Mof_C 	C 	0.11668	0.17889	0.9496	-0.295
Mof_H 	H 	0.1131	0.1944	0.9097	0.137
Mof_C 	C 	0.0919	0.1566	0.9677	0.175
Mof_H 	H 	0.0715	0.1571	0.9406	-0.038
Mof_C 	C 	0.09651	0.13412	0.0236	-0.242
Mof_H 	H 	0.0799	0.1181	0.0341	0.115
Mof_C 	C 	0.12534	0.13464	0.0652	0.159
Mof_H 	H 	0.1278	0.1195	0.1062	-0.004
Mof_C 	C 	0.15114	0.15665	0.049	-0.261
Mof_C 	C 	0.18084	0.15461	0.0957	0.304
Mof_C 	C 	0.25811	0.18874	0.1063	0.236
Mof_C 	C 	0.29165	0.18558	0.1426	-0.135
Mof_H 	H 	0.2957	0.2051	0.1752	0.065
Mof_H 	H 	0.2919	0.1657	0.1755	0.059
Mof_C 	C 	0.31888	0.1829	0.0849	-0.274
Mof_H 	H 	0.3157	0.1628	0.0544	0.106
Mof_H 	H 	0.3403	0.1817	0.1111	0.101
Mof_H 	H 	0.3185	0.2024	0.0516	0.115
Mof_N 	N 	0.07408	0.98651	0.6686	-0.239
Mof_C 	C 	0.06372	0.01699	0.6397	0.098
Mof_H 	H 	0.0418	0.0246	0.649	0.006
Mof_C 	C 	0.0856	0.0364	0.597	-0.198
Mof_H 	H 	0.0817	0.0592	0.5877	0.091
Mof_C 	C 	0.1155	0.0191	0.5669	0.207
Mof_C 	C 	0.1243	0.995	0.6045	-0.326
Mof_H 	H 	0.1458	0.9858	0.5985	0.135
Mof_C 	C 	0.1021	0.9819	0.6556	0.239
Mof_H 	H 	0.1117	0.9655	0.6874	-0.053
Mof_C 	C 	0.1385	0.0358	0.5104	-0.192
Mof_H 	H 	0.1574	0.0455	0.5384	0.08
Mof_H 	H 	0.1474	0.0188	0.4753	0.082
Mof_Mn	Mn	0.72027	0.63581	0.72182	1.067
Mof_O 	O 	0.74032	0.59797	0.68695	-0.435
Mof_O 	O 	0.803	0.63408	0.86108	-0.391
Mof_O 	O 	0.70545	0.67652	0.76899	-0.396
Mof_N 	N 	0.75612	0.64303	0.7927	-0.256
Mof_N 	N 	0.75394	0.67329	0.8353	-0.2
Mof_N 	N 	0.68864	0.60813	0.8076	-0.213
Mof_C 	C 	0.7659	0.58064	0.7154	0.318
Mof_C 	C 	0.77264	0.54953	0.684	-0.286
Mof_H 	H 	0.7591	0.5413	0.6439	0.135
Mof_C 	C 	0.79848	0.53068	0.7103	0.159
Mof_H 	H 	0.8028	0.5098	0.6876	-0.031
Mof_C 	C 	0.81824	0.54152	0.7693	-0.221
Mof_H 	H 	0.8354	0.5279	0.7888	0.114
Mof_C 	C 	0.81267	0.57219	0.7991	0.146
Mof_H 	H 	0.827	0.5801	0.8379	0.009
Mof_C 	C 	0.78651	0.59253	0.7747	-0.249
Mof_C 	C 	0.782	0.62477	0.8115	0.315
Mof_C 	C 	0.72638	0.68801	0.818	0.276
Mof_C 	C 	0.71712	0.72021	0.8565	-0.264
Mof_H 	H 	0.7367	0.7299	0.882	0.107
Mof_H 	H 	0.709	0.7363	0.8183	0.108
Mof_C 	C 	0.66827	0.58454	0.7872	0.137
Mof_H 	H 	0.6678	0.5786	0.7349	-0.006
Mof_C 	C 	0.64753	0.56779	0.8355	-0.22
Mof_H 	H 	0.6345	0.5498	0.818	0.112
Mof_C 	C 	0.64624	0.57799	0.9106	0.157
Mof_C 	C 	0.66779	0.60253	0.9312	-0.225
Mof_H 	H 	0.668	0.61	0.9824	0.102
Mof_C 	C 	0.68831	0.61611	0.8816	0.143
Mof_H 	H 	0.7035	0.6323	0.8993	-0.016
Mof_C 	C 	0.62281	0.5617	0.9657	-0.147
Mof_H 	H 	0.604	0.552	0.937	0.071
Mof_H 	H 	0.6138	0.5787	0.0006	0.064
Mof_Mn	Mn	0.79573	0.67531	0.91797	1.016
Mof_O 	O 	0.77028	0.65369	0.9916	-0.435
Mof_O 	O 	0.77569	0.75408	0.06217	-0.377
Mof_O 	O 	0.82068	0.70431	0.85093	-0.394
Mof_N 	N 	0.78911	0.7169	0.9698	-0.257
Mof_N 	N 	0.80507	0.74448	0.93428	-0.197
Mof_C 	C 	0.75357	0.66624	0.0493	0.341
Mof_C 	C 	0.7332	0.6437	0.0897	-0.318
Mof_H 	H 	0.7322	0.6213	0.0739	0.142
Mof_C 	C 	0.7157	0.6534	0.1483	0.185
Mof_H 	H 	0.6971	0.6409	0.1647	-0.037
Mof_C 	C 	0.7248	0.6823	0.1862	-0.216
Mof_H 	H 	0.7227	0.6848	0.2398	0.108
Mof_C 	C 	0.7378	0.7081	0.1376	0.138
Mof_H 	H 	0.7345	0.7309	0.149	-0.001
Mof_C 	C 	0.75529	0.69827	0.0738	-0.261
Mof_C 	C 	0.77468	0.72437	0.0336	0.302
Mof_C 	C 	0.82043	0.73458	0.8737	0.24
Mof_C 	C 	0.83815	0.76056	0.8272	-0.158
Mof_H 	H 	0.8214	0.7749	0.8026	0.077
Mof_H 	H 	0.8514	0.7746	0.8619	0.068
Mof_C 	C 	0.8611	0.7465	0.7655	-0.254
Mof_H 	H 	0.8482	0.7328	0.7302	0.104
Mof_H 	H 	0.8714	0.7648	0.7375	0.1
Mof_H 	H 	0.8784	0.733	0.7894	0.101
Mof_Mn	Mn	0.71151	0.70922	0.50551	1.062
Mof_O 	O 	0.66935	0.70132	0.46727	-0.433
Mof_O 	O 	0.68229	0.63381	0.65094	-0.382
Mof_O 	O 	0.75423	0.71141	0.55509	-0.385
Mof_N 	N 	0.70671	0.67387	0.57868	-0.251
Mof_N 	N 	0.73522	0.66787	0.6231	-0.193
Mof_C 	C 	0.64693	0.67926	0.4887	0.33
Mof_C 	C 	0.61668	0.67889	0.4496	-0.295
Mof_H 	H 	0.6131	0.6944	0.4097	0.137
Mof_C 	C 	0.5919	0.6566	0.4677	0.175
Mof_H 	H 	0.5715	0.6571	0.4406	-0.038
Mof_C 	C 	0.59651	0.63412	0.5236	-0.242
Mof_H 	H 	0.5799	0.6181	0.5341	0.115
Mof_C 	C 	0.62534	0.63464	0.5652	0.158
Mof_H 	H 	0.6278	0.6195	0.6062	-0.004
Mof_C 	C 	0.65114	0.65665	0.549	-0.261
Mof_C 	C 	0.68084	0.65461	0.5957	0.304
Mof_C 	C 	0.75811	0.68874	0.6063	0.236
Mof_C 	C 	0.79165	0.68558	0.6426	-0.135
Mof_H 	H 	0.7957	0.7051	0.6752	0.065
Mof_H 	H 	0.7919	0.6657	0.6755	0.059
Mof_C 	C 	0.81888	0.6829	0.5849	-0.274
Mof_H 	H 	0.8157	0.6628	0.5544	0.106
Mof_H 	H 	0.8403	0.6817	0.6111	0.101
Mof_H 	H 	0.8185	0.7024	0.5516	0.115
Mof_N 	N 	0.57408	0.48651	0.1686	-0.239
Mof_C 	C 	0.56372	0.51699	0.1397	0.098
Mof_H 	H 	0.5418	0.5246	0.149	0.006
Mof_C 	C 	0.5856	0.5364	0.097	-0.198
Mof_H 	H 	0.5817	0.5592	0.0877	0.091
Mof_C 	C 	0.6155	0.5191	0.0669	0.207
Mof_C 	C 	0.6243	0.495	0.1045	-0.325
Mof_H 	H 	0.6458	0.4858	0.0985	0.134
Mof_C 	C 	0.6021	0.4819	0.1556	0.239
Mof_H 	H 	0.6117	0.4655	0.1874	-0.053
Mof_C 	C 	0.6385	0.5358	0.0104	-0.192
Mof_H 	H 	0.6574	0.5455	0.0384	0.08
Mof_H 	H 	0.6474	0.5188	0.9753	0.082
Mof_Mn	Mn	0.38581	0.02973	0.47182	1.067
Mof_O 	O 	0.34797	0.00968	0.43695	-0.435
Mof_O 	O 	0.38408	0.947	0.61108	-0.391
Mof_O 	O 	0.42652	0.04455	0.51899	-0.396
Mof_N 	N 	0.39303	0.99388	0.5427	-0.256
Mof_N 	N 	0.42329	0.99606	0.5853	-0.2
Mof_N 	N 	0.35813	0.06136	0.5576	-0.213
Mof_C 	C 	0.33064	0.9841	0.4654	0.318
Mof_C 	C 	0.29953	0.97736	0.434	-0.286
Mof_H 	H 	0.2913	0.9909	0.3939	0.135
Mof_C 	C 	0.28068	0.95152	0.4603	0.159
Mof_H 	H 	0.2598	0.9472	0.4376	-0.031
Mof_C 	C 	0.29152	0.93176	0.5193	-0.221
Mof_H 	H 	0.2779	0.9146	0.5388	0.114
Mof_C 	C 	0.32219	0.93733	0.5491	0.146
Mof_H 	H 	0.3301	0.923	0.5879	0.009
Mof_C 	C 	0.34253	0.96349	0.5247	-0.249
Mof_C 	C 	0.37477	0.968	0.5615	0.315
Mof_C 	C 	0.43801	0.02362	0.568	0.276
Mof_C 	C 	0.47021	0.03288	0.6065	-0.264
Mof_H 	H 	0.4799	0.0133	0.632	0.107
Mof_H 	H 	0.4863	0.041	0.5683	0.108
Mof_C 	C 	0.33454	0.08173	0.5372	0.137
Mof_H 	H 	0.3286	0.0822	0.4849	-0.006
Mof_C 	C 	0.31779	0.10247	0.5855	-0.22
Mof_H 	H 	0.2998	0.1155	0.568	0.112
Mof_C 	C 	0.32799	0.10376	0.6606	0.156
Mof_C 	C 	0.35253	0.08221	0.6812	-0.225
Mof_H 	H 	0.36	0.082	0.7324	0.102
Mof_C 	C 	0.36611	0.06169	0.6316	0.143
Mof_H 	H 	0.3823	0.0465	0.6493	-0.016
Mof_C 	C 	0.3117	0.12719	0.7157	-0.147
Mof_H 	H 	0.302	0.146	0.687	0.071
Mof_H 	H 	0.3287	0.1362	0.7506	0.064
Mof_Mn	Mn	0.42531	0.95427	0.66797	1.016
Mof_O 	O 	0.40369	0.97972	0.7416	-0.435
Mof_O 	O 	0.50408	0.97431	0.81217	-0.377
Mof_O 	O 	0.45431	0.92932	0.60093	-0.394
Mof_N 	N 	0.4669	0.96089	0.7198	-0.257
Mof_N 	N 	0.49448	0.94493	0.68428	-0.197
Mof_C 	C 	0.41624	0.99643	0.7993	0.34
Mof_C 	C 	0.3937	0.0168	0.8397	-0.318
Mof_H 	H 	0.3713	0.0178	0.8239	0.142
Mof_C 	C 	0.4034	0.0343	0.8983	0.185
Mof_H 	H 	0.3909	0.0529	0.9147	-0.037
Mof_C 	C 	0.4323	0.0252	0.9362	-0.215
Mof_H 	H 	0.4348	0.0273	0.9898	0.108
Mof_C 	C 	0.4581	0.0122	0.8876	0.138
Mof_H 	H 	0.4809	0.0155	0.899	-0.001
Mof_C 	C 	0.44827	0.99471	0.8238	-0.261
Mof_C 	C 	0.47437	0.97532	0.7836	0.301
Mof_C 	C 	0.48458	0.92957	0.6237	0.24
Mof_C 	C 	0.51056	0.91185	0.5772	-0.158
Mof_H 	H 	0.5249	0.9286	0.5526	0.077
Mof_H 	H 	0.5246	0.8986	0.6119	0.068
Mof_C 	C 	0.4965	0.8889	0.5155	-0.254
Mof_H 	H 	0.4828	0.9018	0.4802	0.104
Mof_H 	H 	0.5148	0.8786	0.4875	0.1
Mof_H 	H 	0.483	0.8716	0.5394	0.101
Mof_Mn	Mn	0.45922	0.03849	0.25551	1.062
Mof_O 	O 	0.45132	0.08065	0.21727	-0.433
Mof_O 	O 	0.38381	0.06771	0.40094	-0.382
Mof_O 	O 	0.46141	0.99577	0.30509	-0.385
Mof_N 	N 	0.42387	0.04329	0.32868	-0.251
Mof_N 	N 	0.41787	0.01478	0.3731	-0.193
Mof_C 	C 	0.42926	0.10307	0.2387	0.33
Mof_C 	C 	0.42889	0.13332	0.1996	-0.295
Mof_H 	H 	0.4444	0.1369	0.1597	0.137
Mof_C 	C 	0.4066	0.1581	0.2177	0.175
Mof_H 	H 	0.4071	0.1785	0.1906	-0.038
Mof_C 	C 	0.38412	0.15349	0.2736	-0.242
Mof_H 	H 	0.3681	0.1701	0.2841	0.115
Mof_C 	C 	0.38464	0.12466	0.3152	0.158
Mof_H 	H 	0.3695	0.1222	0.3562	-0.004
Mof_C 	C 	0.40665	0.09886	0.299	-0.261
Mof_C 	C 	0.40461	0.06916	0.3457	0.304
Mof_C 	C 	0.43874	0.99189	0.3563	0.236
Mof_C 	C 	0.43558	0.95835	0.3926	-0.135
Mof_H 	H 	0.4551	0.9543	0.4252	0.065
Mof_H 	H 	0.4157	0.9581	0.4255	0.059
Mof_C 	C 	0.4329	0.93112	0.3349	-0.274
Mof_H 	H 	0.4128	0.9343	0.3044	0.106
Mof_H 	H 	0.4317	0.9097	0.3611	0.101
Mof_H 	H 	0.4524	0.9315	0.3016	0.115
Mof_N 	N 	0.23651	0.17592	0.9186	-0.239
Mof_C 	C 	0.26699	0.18628	0.8897	0.098
Mof_H 	H 	0.2746	0.2082	0.899	0.006
Mof_C 	C 	0.2864	0.1644	0.847	-0.198
Mof_H 	H 	0.3092	0.1683	0.8377	0.091
Mof_C 	C 	0.2691	0.1345	0.8169	0.207
Mof_C 	C 	0.245	0.1257	0.8545	-0.326
Mof_H 	H 	0.2358	0.1042	0.8485	0.135
Mof_C 	C 	0.2319	0.1479	0.9056	0.239
Mof_H 	H 	0.2155	0.1383	0.9374	-0.053
Mof_C 	C 	0.2858	0.1115	0.7604	-0.192
Mof_H 	H 	0.2955	0.0926	0.7884	0.08
Mof_H 	H 	0.2688	0.1026	0.7253	0.082
Mof_Mn	Mn	0.88581	0.52973	0.97182	1.067
Mof_O 	O 	0.84797	0.50968	0.93695	-0.435
Mof_O 	O 	0.88408	0.447	0.11108	-0.391
Mof_O 	O 	0.92652	0.54455	0.01899	-0.396
Mof_N 	N 	0.89303	0.49388	0.0427	-0.256
Mof_N 	N 	0.92329	0.49606	0.0853	-0.2
Mof_N 	N 	0.85813	0.56136	0.0576	-0.213
Mof_C 	C 	0.83064	0.4841	0.9654	0.318
Mof_C 	C 	0.79953	0.47736	0.934	-0.286
Mof_H 	H 	0.7913	0.4909	0.8939	0.135
Mof_C 	C 	0.78068	0.45152	0.9603	0.159
Mof_H 	H 	0.7598	0.4472	0.9376	-0.031
Mof_C 	C 	0.79152	0.43176	0.0193	-0.221
Mof_H 	H 	0.7779	0.4146	0.0388	0.114
Mof_C 	C 	0.82219	0.43733	0.0491	0.146
Mof_H 	H 	0.8301	0.423	0.0879	0.009
Mof_C 	C 	0.84253	0.46349	0.0247	-0.249
Mof_C 	C 	0.87477	0.468	0.0615	0.315
Mof_C 	C 	0.93801	0.52362	0.068	0.276
Mof_C 	C 	0.97021	0.53288	0.1065	-0.264
Mof_H 	H 	0.9799	0.5133	0.132	0.107
Mof_H 	H 	0.9863	0.541	0.0683	0.108
Mof_C 	C 	0.83454	0.58173	0.0372	0.137
Mof_H 	H 	0.8286	0.5822	0.9849	-0.006
Mof_C 	C 	0.81779	0.60247	0.0855	-0.22
Mof_H 	H 	0.7998	0.6155	0.068	0.112
Mof_C 	C 	0.82799	0.60376	0.1606	0.157
Mof_C 	C 	0.85253	0.58221	0.1812	-0.225
Mof_H 	H 	0.86	0.582	0.2324	0.102
Mof_C 	C 	0.86611	0.56169	0.1316	0.143
Mof_H 	H 	0.8823	0.5465	0.1493	-0.016
Mof_C 	C 	0.8117	0.62719	0.2157	-0.147
Mof_H 	H 	0.802	0.646	0.187	0.071
Mof_H 	H 	0.8287	0.6362	0.2506	0.064
Mof_Mn	Mn	0.92531	0.45427	0.16797	1.016
Mof_O 	O 	0.90369	0.47972	0.2416	-0.435
Mof_O 	O 	0.00408	0.47431	0.31217	-0.377
Mof_O 	O 	0.95431	0.42932	0.10093	-0.394
Mof_N 	N 	0.9669	0.46089	0.2198	-0.257
Mof_N 	N 	0.99448	0.44493	0.18428	-0.197
Mof_C 	C 	0.91624	0.49643	0.2993	0.34
Mof_C 	C 	0.8937	0.5168	0.3397	-0.318
Mof_H 	H 	0.8713	0.5178	0.3239	0.142
Mof_C 	C 	0.9034	0.5343	0.3983	0.185
Mof_H 	H 	0.8909	0.5529	0.4147	-0.037
Mof_C 	C 	0.9323	0.5252	0.4362	-0.215
Mof_H 	H 	0.9348	0.5273	0.4898	0.108
Mof_C 	C 	0.9581	0.5122	0.3876	0.138
Mof_H 	H 	0.9809	0.5155	0.399	-0.001
Mof_C 	C 	0.94827	0.49471	0.3238	-0.261
Mof_C 	C 	0.97437	0.47532	0.2836	0.301
Mof_C 	C 	0.98458	0.42957	0.1237	0.24
Mof_C 	C 	0.01056	0.41185	0.0772	-0.157
Mof_H 	H 	0.0249	0.4286	0.0526	0.077
Mof_H 	H 	0.0246	0.3986	0.1119	0.068
Mof_C 	C 	0.9965	0.3889	0.0155	-0.255
Mof_H 	H 	0.9828	0.4018	0.9802	0.104
Mof_H 	H 	0.0148	0.3786	0.9875	0.1
Mof_H 	H 	0.983	0.3716	0.0394	0.102
Mof_Mn	Mn	0.95922	0.53849	0.75551	1.062
Mof_O 	O 	0.95132	0.58065	0.71727	-0.433
Mof_O 	O 	0.88381	0.56771	0.90094	-0.382
Mof_O 	O 	0.96141	0.49577	0.80509	-0.385
Mof_N 	N 	0.92387	0.54329	0.82868	-0.251
Mof_N 	N 	0.91787	0.51478	0.8731	-0.193
Mof_C 	C 	0.92926	0.60307	0.7387	0.33
Mof_C 	C 	0.92889	0.63332	0.6996	-0.295
Mof_H 	H 	0.9444	0.6369	0.6597	0.137
Mof_C 	C 	0.9066	0.6581	0.7177	0.175
Mof_H 	H 	0.9071	0.6785	0.6906	-0.038
Mof_C 	C 	0.88412	0.65349	0.7736	-0.242
Mof_H 	H 	0.8681	0.6701	0.7841	0.115
Mof_C 	C 	0.88464	0.62466	0.8152	0.158
Mof_H 	H 	0.8695	0.6222	0.8562	-0.004
Mof_C 	C 	0.90665	0.59886	0.799	-0.261
Mof_C 	C 	0.90461	0.56916	0.8457	0.304
Mof_C 	C 	0.93874	0.49189	0.8563	0.236
Mof_C 	C 	0.93558	0.45835	0.8926	-0.135
Mof_H 	H 	0.9551	0.4543	0.9252	0.065
Mof_H 	H 	0.9157	0.4581	0.9255	0.059
Mof_C 	C 	0.9329	0.43112	0.8349	-0.274
Mof_H 	H 	0.9128	0.4343	0.8044	0.106
Mof_H 	H 	0.9317	0.4097	0.8611	0.101
Mof_H 	H 	0.9524	0.4315	0.8016	0.115
Mof_N 	N 	0.73651	0.67592	0.4186	-0.239
Mof_C 	C 	0.76699	0.68628	0.3897	0.098
Mof_H 	H 	0.7746	0.7082	0.399	0.006
Mof_C 	C 	0.7864	0.6644	0.347	-0.198
Mof_H 	H 	0.8092	0.6683	0.3377	0.091
Mof_C 	C 	0.7691	0.6345	0.3169	0.207
Mof_C 	C 	0.745	0.6257	0.3545	-0.326
Mof_H 	H 	0.7358	0.6042	0.3485	0.135
Mof_C 	C 	0.7319	0.6479	0.4056	0.239
Mof_H 	H 	0.7155	0.6383	0.4374	-0.053
Mof_C 	C 	0.7858	0.6115	0.2604	-0.192
Mof_H 	H 	0.7955	0.5926	0.2884	0.08
Mof_H 	H 	0.7688	0.6026	0.2253	0.082
Mof_Mn	Mn	0.11419	0.97027	0.97182	1.067
Mof_O 	O 	0.15203	0.99032	0.93695	-0.435
Mof_O 	O 	0.11592	0.053	0.11108	-0.391
Mof_O 	O 	0.07348	0.95545	0.01899	-0.396
Mof_N 	N 	0.10697	0.00612	0.0427	-0.256
Mof_N 	N 	0.07671	0.00394	0.0853	-0.2
Mof_N 	N 	0.14187	0.93864	0.0576	-0.213
Mof_C 	C 	0.16936	0.0159	0.9654	0.318
Mof_C 	C 	0.20047	0.02264	0.934	-0.286
Mof_H 	H 	0.2087	0.0091	0.8939	0.135
Mof_C 	C 	0.21932	0.04848	0.9603	0.159
Mof_H 	H 	0.2402	0.0528	0.9376	-0.031
Mof_C 	C 	0.20848	0.06824	0.0193	-0.221
Mof_H 	H 	0.2221	0.0854	0.0388	0.114
Mof_C 	C 	0.17781	0.06267	0.0491	0.146
Mof_H 	H 	0.1699	0.077	0.0879	0.009
Mof_C 	C 	0.15747	0.03651	0.0247	-0.249
Mof_C 	C 	0.12523	0.032	0.0615	0.315
Mof_C 	C 	0.06199	0.97638	0.068	0.276
Mof_C 	C 	0.02979	0.96712	0.1065	-0.264
Mof_H 	H 	0.0201	0.9867	0.132	0.106
Mof_H 	H 	0.0137	0.959	0.0683	0.108
Mof_C 	C 	0.16546	0.91827	0.0372	0.137
Mof_H 	H 	0.1714	0.9178	0.9849	-0.006
Mof_C 	C 	0.18221	0.89753	0.0855	-0.22
Mof_H 	H 	0.2002	0.8845	0.068	0.112
Mof_C 	C 	0.17201	0.89624	0.1606	0.156
Mof_C 	C 	0.14747	0.91779	0.1812	-0.225
Mof_H 	H 	0.14	0.918	0.2324	0.102
Mof_C 	C 	0.13389	0.93831	0.1316	0.143
Mof_H 	H 	0.1177	0.9535	0.1493	-0.016
Mof_C 	C 	0.1883	0.87281	0.2157	-0.147
Mof_H 	H 	0.198	0.854	0.187	0.071
Mof_H 	H 	0.1713	0.8638	0.2506	0.064
Mof_Mn	Mn	0.07469	0.04573	0.16797	1.016
Mof_O 	O 	0.09631	0.02028	0.2416	-0.435
Mof_O 	O 	0.99592	0.02569	0.31217	-0.377
Mof_O 	O 	0.04569	0.07068	0.10093	-0.394
Mof_N 	N 	0.0331	0.03911	0.2198	-0.257
Mof_N 	N 	0.00552	0.05507	0.18428	-0.197
Mof_C 	C 	0.08376	0.00357	0.2993	0.34
Mof_C 	C 	0.1063	0.9832	0.3397	-0.318
Mof_H 	H 	0.1287	0.9822	0.3239	0.142
Mof_C 	C 	0.0966	0.9657	0.3983	0.185
Mof_H 	H 	0.1091	0.9471	0.4147	-0.037
Mof_C 	C 	0.0677	0.9748	0.4362	-0.215
Mof_H 	H 	0.0652	0.9727	0.4898	0.107
Mof_C 	C 	0.0419	0.9878	0.3876	0.138
Mof_H 	H 	0.0191	0.9845	0.399	-0.001
Mof_C 	C 	0.05173	0.00529	0.3238	-0.261
Mof_C 	C 	0.02563	0.02468	0.2836	0.301
Mof_C 	C 	0.01542	0.07043	0.1237	0.24
Mof_C 	C 	0.98944	0.08815	0.0772	-0.157
Mof_H 	H 	0.9751	0.0714	0.0526	0.077
Mof_H 	H 	0.9754	0.1014	0.1119	0.068
Mof_C 	C 	0.0035	0.1111	0.0155	-0.254
Mof_H 	H 	0.0172	0.0982	0.9802	0.104
Mof_H 	H 	0.9852	0.1214	0.9875	0.1
Mof_H 	H 	0.017	0.1284	0.0394	0.102
Mof_Mn	Mn	0.04078	0.96151	0.75551	1.062
Mof_O 	O 	0.04868	0.91935	0.71727	-0.433
Mof_O 	O 	0.11619	0.93229	0.90094	-0.382
Mof_O 	O 	0.03859	0.00423	0.80509	-0.385
Mof_N 	N 	0.07613	0.95671	0.82868	-0.251
Mof_N 	N 	0.08213	0.98522	0.8731	-0.193
Mof_C 	C 	0.07074	0.89693	0.7387	0.33
Mof_C 	C 	0.07111	0.86668	0.6996	-0.295
Mof_H 	H 	0.0556	0.8631	0.6597	0.137
Mof_C 	C 	0.0934	0.8419	0.7177	0.175
Mof_H 	H 	0.0929	0.8215	0.6906	-0.038
Mof_C 	C 	0.11588	0.84651	0.7736	-0.242
Mof_H 	H 	0.1319	0.8299	0.7841	0.115
Mof_C 	C 	0.11536	0.87534	0.8152	0.158
Mof_H 	H 	0.1305	0.8778	0.8562	-0.004
Mof_C 	C 	0.09335	0.90114	0.799	-0.261
Mof_C 	C 	0.09539	0.93084	0.8457	0.304
Mof_C 	C 	0.06126	0.00811	0.8563	0.236
Mof_C 	C 	0.06442	0.04165	0.8926	-0.135
Mof_H 	H 	0.0449	0.0457	0.9252	0.065
Mof_H 	H 	0.0843	0.0419	0.9255	0.059
Mof_C 	C 	0.0671	0.06888	0.8349	-0.274
Mof_H 	H 	0.0872	0.0657	0.8044	0.106
Mof_H 	H 	0.0683	0.0903	0.8611	0.101
Mof_H 	H 	0.0476	0.0685	0.8016	0.115
Mof_N 	N 	0.26349	0.82408	0.4186	-0.239
Mof_C 	C 	0.23301	0.81372	0.3897	0.098
Mof_H 	H 	0.2254	0.7918	0.399	0.006
Mof_C 	C 	0.2136	0.8356	0.347	-0.198
Mof_H 	H 	0.1908	0.8317	0.3377	0.091
Mof_C 	C 	0.2309	0.8655	0.3169	0.207
Mof_C 	C 	0.255	0.8743	0.3545	-0.326
Mof_H 	H 	0.2642	0.8958	0.3485	0.135
Mof_C 	C 	0.2681	0.8521	0.4056	0.239
Mof_H 	H 	0.2845	0.8617	0.4374	-0.053
Mof_C 	C 	0.2142	0.8885	0.2604	-0.192
Mof_H 	H 	0.2045	0.9074	0.2884	0.08
Mof_H 	H 	0.2312	0.8974	0.2253	0.082
Mof_Mn	Mn	0.61419	0.47027	0.47182	1.067
Mof_O 	O 	0.65203	0.49032	0.43695	-0.435
Mof_O 	O 	0.61592	0.553	0.61108	-0.391
Mof_O 	O 	0.57348	0.45545	0.51899	-0.396
Mof_N 	N 	0.60697	0.50612	0.5427	-0.256
Mof_N 	N 	0.57671	0.50394	0.5853	-0.2
Mof_N 	N 	0.64187	0.43864	0.5576	-0.213
Mof_C 	C 	0.66936	0.5159	0.4654	0.318
Mof_C 	C 	0.70047	0.52264	0.434	-0.286
Mof_H 	H 	0.7087	0.5091	0.3939	0.135
Mof_C 	C 	0.71932	0.54848	0.4603	0.159
Mof_H 	H 	0.7402	0.5528	0.4376	-0.031
Mof_C 	C 	0.70848	0.56824	0.5193	-0.221
Mof_H 	H 	0.7221	0.5854	0.5388	0.114
Mof_C 	C 	0.67781	0.56267	0.5491	0.146
Mof_H 	H 	0.6699	0.577	0.5879	0.009
Mof_C 	C 	0.65747	0.53651	0.5247	-0.249
Mof_C 	C 	0.62523	0.532	0.5615	0.315
Mof_C 	C 	0.56199	0.47638	0.568	0.276
Mof_C 	C 	0.52979	0.46712	0.6065	-0.264
Mof_H 	H 	0.5201	0.4867	0.632	0.107
Mof_H 	H 	0.5137	0.459	0.5683	0.108
Mof_C 	C 	0.66546	0.41827	0.5372	0.137
Mof_H 	H 	0.6714	0.4178	0.4849	-0.006
Mof_C 	C 	0.68221	0.39753	0.5855	-0.22
Mof_H 	H 	0.7002	0.3845	0.568	0.112
Mof_C 	C 	0.67201	0.39624	0.6606	0.156
Mof_C 	C 	0.64747	0.41779	0.6812	-0.224
Mof_H 	H 	0.64	0.418	0.7324	0.102
Mof_C 	C 	0.63389	0.43831	0.6316	0.143
Mof_H 	H 	0.6177	0.4535	0.6493	-0.016
Mof_C 	C 	0.6883	0.37281	0.7157	-0.147
Mof_H 	H 	0.698	0.354	0.687	0.071
Mof_H 	H 	0.6713	0.3638	0.7506	0.064
Mof_Mn	Mn	0.57469	0.54573	0.66797	1.016
Mof_O 	O 	0.59631	0.52028	0.7416	-0.435
Mof_O 	O 	0.49592	0.52569	0.81217	-0.377
Mof_O 	O 	0.54569	0.57068	0.60093	-0.394
Mof_N 	N 	0.5331	0.53911	0.7198	-0.257
Mof_N 	N 	0.50552	0.55507	0.68428	-0.197
Mof_C 	C 	0.58376	0.50357	0.7993	0.34
Mof_C 	C 	0.6063	0.4832	0.8397	-0.318
Mof_H 	H 	0.6287	0.4822	0.8239	0.142
Mof_C 	C 	0.5966	0.4657	0.8983	0.185
Mof_H 	H 	0.6091	0.4471	0.9147	-0.037
Mof_C 	C 	0.5677	0.4748	0.9362	-0.215
Mof_H 	H 	0.5652	0.4727	0.9898	0.108
Mof_C 	C 	0.5419	0.4878	0.8876	0.138
Mof_H 	H 	0.5191	0.4845	0.899	-0.001
Mof_C 	C 	0.55173	0.50529	0.8238	-0.261
Mof_C 	C 	0.52563	0.52468	0.7836	0.301
Mof_C 	C 	0.51542	0.57043	0.6237	0.24
Mof_C 	C 	0.48944	0.58815	0.5772	-0.158
Mof_H 	H 	0.4751	0.5714	0.5526	0.077
Mof_H 	H 	0.4754	0.6014	0.6119	0.068
Mof_C 	C 	0.5035	0.6111	0.5155	-0.254
Mof_H 	H 	0.5172	0.5982	0.4802	0.104
Mof_H 	H 	0.4852	0.6214	0.4875	0.1
Mof_H 	H 	0.517	0.6284	0.5394	0.101
Mof_Mn	Mn	0.54078	0.46151	0.25551	1.062
Mof_O 	O 	0.54868	0.41935	0.21727	-0.433
Mof_O 	O 	0.61619	0.43229	0.40094	-0.382
Mof_O 	O 	0.53859	0.50423	0.30509	-0.385
Mof_N 	N 	0.57613	0.45671	0.32868	-0.251
Mof_N 	N 	0.58213	0.48522	0.3731	-0.193
Mof_C 	C 	0.57074	0.39693	0.2387	0.33
Mof_C 	C 	0.57111	0.36668	0.1996	-0.295
Mof_H 	H 	0.5556	0.3631	0.1597	0.137
Mof_C 	C 	0.5934	0.3419	0.2177	0.175
Mof_H 	H 	0.5929	0.3215	0.1906	-0.038
Mof_C 	C 	0.61588	0.34651	0.2736	-0.242
Mof_H 	H 	0.6319	0.3299	0.2841	0.115
Mof_C 	C 	0.61536	0.37534	0.3152	0.158
Mof_H 	H 	0.6305	0.3778	0.3562	-0.004
Mof_C 	C 	0.59335	0.40114	0.299	-0.261
Mof_C 	C 	0.59539	0.43084	0.3457	0.304
Mof_C 	C 	0.56126	0.50811	0.3563	0.236
Mof_C 	C 	0.56442	0.54165	0.3926	-0.135
Mof_H 	H 	0.5449	0.5457	0.4252	0.065
Mof_H 	H 	0.5843	0.5419	0.4255	0.059
Mof_C 	C 	0.5671	0.56888	0.3349	-0.274
Mof_H 	H 	0.5872	0.5657	0.3044	0.106
Mof_H 	H 	0.5683	0.5903	0.3611	0.101
Mof_H 	H 	0.5476	0.5685	0.3016	0.115
Mof_N 	N 	0.76349	0.32408	0.9186	-0.239
Mof_C 	C 	0.73301	0.31372	0.8897	0.098
Mof_H 	H 	0.7254	0.2918	0.899	0.006
Mof_C 	C 	0.7136	0.3356	0.847	-0.198
Mof_H 	H 	0.6908	0.3317	0.8377	0.091
Mof_C 	C 	0.7309	0.3655	0.8169	0.207
Mof_C 	C 	0.755	0.3743	0.8545	-0.326
Mof_H 	H 	0.7642	0.3958	0.8485	0.135
Mof_C 	C 	0.7681	0.3521	0.9056	0.239
Mof_H 	H 	0.7845	0.3617	0.9374	-0.053
Mof_C 	C 	0.7142	0.3885	0.7604	-0.192
Mof_H 	H 	0.7045	0.4074	0.7884	0.08
Mof_H 	H 	0.7312	0.3974	0.7253	0.082
_end
