data_functionalizedCrystal
_audit_creation_method	'EQeq! by Chris Wilmer'
_symmetry_space_group_name_H-M	'P1'
_symmetry_Int_Tables_number	1
_symmetry_cell_setting	triclinic
loop_
_symmetry_equiv_pos_as_xyz
  x,y,z
_cell_length_a	12.283
_cell_length_b	13.386
_cell_length_c	13.931
_cell_angle_alpha	102.14
_cell_angle_beta	101.47
_cell_angle_gamma	95.13
loop_
_atom_site_label
_atom_site_type_symbol
_atom_site_fract_x
_atom_site_fract_y
_atom_site_fract_z
_atom_site_charge
Mof_Mn	Mn	0.89857	0.88341	0.75075	0.954
Mof_Mn	Mn	0.0869	0.75711	0.6078	0.819
Mof_O 	O 	0.83773	0.99173	0.89462	-0.351
Mof_O 	O 	0.72285	0.89345	0.75725	-0.359
Mof_O 	O 	0.0536	0.97462	0.855	-0.465
Mof_O 	O 	0.09946	0.89672	0.71669	-0.456
Mof_O 	O 	0.97522	0.83847	0.9925	-0.312
Mof_O 	O 	0.91071	0.76594	0.82729	-0.364
Mof_O 	O 	0.8875	0.32053	0.2762	-0.371
Mof_O 	O 	0.95982	0.48696	0.34331	-0.338
Mof_O 	O 	0.93169	0.64715	0.52553	-0.398
Mof_O 	O 	0.8727	0.78158	0.60899	-0.416
Mof_O 	O 	0.1493	0.6083	0.50239	-0.401
Mof_O 	O 	0.2566	0.75452	0.58739	-0.358
Mof_C 	C 	0.53508	0.96861	0.82108	0.046
Mof_H 	H 	0.5215	0.9101	0.766	0.033
Mof_C 	C 	0.64379	0.01031	0.86905	-0.121
Mof_C 	C 	0.66479	0.09941	0.94967	0.025
Mof_H 	H 	0.7399	0.1281	0.9826	0.045
Mof_C 	C 	0.578	0.14429	0.98024	-0.078
Mof_H 	H 	0.5934	0.2048	0.0332	0.044
Mof_C 	C 	0.37292	0.14314	0.96707	-0.091
Mof_H 	H 	0.3863	0.2041	0.0194	0.05
Mof_C 	C 	0.26565	0.09679	0.92491	0.055
Mof_H 	H 	0.2051	0.1249	0.9489	0.027
Mof_C 	C 	0.24395	0.00681	0.84549	-0.177
Mof_C 	C 	0.33063	0.96648	0.80867	0.069
Mof_H 	H 	0.3151	0.908	0.7534	0.022
Mof_C 	C 	0.44292	0.01172	0.85272	-0.074
Mof_C 	C 	0.46491	0.10148	0.93373	0.074
Mof_C 	C 	0.74006	0.96095	0.83818	0.341
Mof_C 	C 	0.12664	0.95562	0.80338	0.418
Mof_C 	C 	0.9251	0.64337	0.03498	-0.03
Mof_H 	H 	0.9738	0.6944	0.0875	0.067
Mof_C 	C 	0.8926	0.66287	0.94164	-0.059
Mof_C 	C 	0.8187	0.5871	0.8639	0.029
Mof_H 	H 	0.797	0.6	0.7988	0.037
Mof_C 	C 	0.7785	0.4964	0.8813	-0.103
Mof_H 	H 	0.7273	0.4475	0.8287	0.072
Mof_C 	C 	0.7717	0.3788	0.9974	-0.076
Mof_H 	H 	0.7203	0.3285	0.9463	0.065
Mof_C 	C 	0.8069	0.3598	0.0905	0.007
Mof_H 	H 	0.7812	0.2955	0.1028	0.04
Mof_C 	C 	0.8806	0.4343	0.16857	-0.078
Mof_C 	C 	0.9196	0.52596	0.15063	-0.007
Mof_H 	H 	0.9694	0.5758	0.2034	0.064
Mof_C 	C 	0.887	0.54787	0.05427	-0.013
Mof_C 	C 	0.8117	0.4736	0.9764	0.08
Mof_C 	C 	0.9303	0.76407	0.91889	0.364
Mof_C 	C 	0.91307	0.41144	0.27068	0.376
Mof_C 	C 	0.64751	0.69353	0.52804	0.011
Mof_H 	H 	0.6624	0.7514	0.5838	0.041
Mof_C 	C 	0.73518	0.65422	0.49189	-0.133
Mof_C 	C 	0.71407	0.57117	0.40585	0.057
Mof_H 	H 	0.7749	0.5459	0.3801	0.021
Mof_C 	C 	0.60618	0.52693	0.35944	-0.128
Mof_H 	H 	0.5928	0.472	0.3011	0.075
Mof_C 	C 	0.40279	0.51337	0.35742	-0.124
Mof_H 	H 	0.3877	0.4565	0.3006	0.072
Mof_C 	C 	0.31675	0.54643	0.39878	0.038
Mof_H 	H 	0.2427	0.5114	0.3716	0.021
Mof_C 	C 	0.33701	0.63264	0.482	-0.102
Mof_C 	C 	0.44417	0.68316	0.52265	-0.003
Mof_H 	H 	0.457	0.7416	0.5777	0.048
Mof_C 	C 	0.53583	0.64868	0.48305	-0.031
Mof_C 	C 	0.51424	0.56275	0.39807	0.082
Mof_C 	C 	0.85243	0.6966	0.54591	0.397
Mof_C 	C 	0.24212	0.66725	0.52766	0.335
Mof_Mn	Mn	0.10143	0.11659	0.24925	0.818
Mof_Mn	Mn	0.9131	0.24289	0.3922	0.942
Mof_O 	O 	0.16227	0.00827	0.10538	-0.399
Mof_O 	O 	0.27715	0.10655	0.24275	-0.348
Mof_O 	O 	0.9464	0.02538	0.145	-0.388
Mof_O 	O 	0.90054	0.10328	0.28331	-0.406
Mof_O 	O 	0.02478	0.16153	0.0075	-0.403
Mof_O 	O 	0.08929	0.23406	0.17271	-0.399
Mof_O 	O 	0.1125	0.67947	0.7238	-0.392
Mof_O 	O 	0.04018	0.51304	0.65669	-0.398
Mof_O 	O 	0.06831	0.35285	0.47447	-0.482
Mof_O 	O 	0.1273	0.21842	0.39101	-0.454
Mof_O 	O 	0.8507	0.3917	0.49761	-0.362
Mof_O 	O 	0.7434	0.24548	0.41261	-0.364
Mof_C 	C 	0.46492	0.03139	0.17892	-0.082
Mof_H 	H 	0.4785	0.0899	0.234	0.07
Mof_C 	C 	0.35621	0.98969	0.13095	-0.046
Mof_C 	C 	0.33521	0.90059	0.05033	0.021
Mof_H 	H 	0.2601	0.8719	0.0174	0.024
Mof_C 	C 	0.422	0.85571	0.01976	-0.138
Mof_H 	H 	0.4066	0.7952	0.9668	0.09
Mof_C 	C 	0.62708	0.85686	0.03293	-0.143
Mof_H 	H 	0.6137	0.7959	0.9806	0.093
Mof_C 	C 	0.73435	0.90321	0.07509	0.04
Mof_H 	H 	0.7949	0.8751	0.0511	0.025
Mof_C 	C 	0.75605	0.99319	0.15451	-0.078
Mof_C 	C 	0.66937	0.03352	0.19133	-0.065
Mof_H 	H 	0.6849	0.092	0.2466	0.061
Mof_C 	C 	0.55708	0.98828	0.14728	0.036
Mof_C 	C 	0.53509	0.89852	0.06627	0.069
Mof_C 	C 	0.25994	0.03905	0.16182	0.3
Mof_C 	C 	0.87336	0.04438	0.19662	0.361
Mof_C 	C 	0.0749	0.35663	0.96502	0.048
Mof_H 	H 	0.0262	0.3056	0.9125	0.014
Mof_C 	C 	0.1074	0.33713	0.05836	-0.161
Mof_C 	C 	0.1813	0.4129	0.1361	0.062
Mof_H 	H 	0.203	0.4	0.2012	0.014
Mof_C 	C 	0.2215	0.5036	0.1187	-0.156
Mof_H 	H 	0.2727	0.5525	0.1713	0.078
Mof_C 	C 	0.2283	0.6212	0.0026	-0.179
Mof_H 	H 	0.2797	0.6715	0.0537	0.084
Mof_C 	C 	0.1931	0.6402	0.9095	0.087
Mof_H 	H 	0.2188	0.7045	0.8972	0.012
Mof_C 	C 	0.1194	0.5657	0.83143	-0.141
Mof_C 	C 	0.0804	0.47404	0.84937	0.022
Mof_H 	H 	0.0306	0.4242	0.7966	0.019
Mof_C 	C 	0.113	0.45213	0.94573	-0.053
Mof_C 	C 	0.1883	0.5264	0.0236	0.085
Mof_C 	C 	0.0697	0.23593	0.08111	0.379
Mof_C 	C 	0.08693	0.58856	0.72932	0.38
Mof_C 	C 	0.35249	0.30647	0.47196	0.013
Mof_H 	H 	0.3376	0.2486	0.4162	0.038
Mof_C 	C 	0.26482	0.34578	0.50811	-0.144
Mof_C 	C 	0.28593	0.42883	0.59415	0.059
Mof_H 	H 	0.2251	0.4541	0.6199	0.018
Mof_C 	C 	0.39382	0.47307	0.64056	-0.129
Mof_H 	H 	0.4072	0.528	0.6989	0.078
Mof_C 	C 	0.59721	0.48663	0.64258	-0.116
Mof_H 	H 	0.6123	0.5435	0.6994	0.071
Mof_C 	C 	0.68325	0.45357	0.60122	0.03
Mof_H 	H 	0.7573	0.4886	0.6284	0.039
Mof_C 	C 	0.66299	0.36736	0.518	-0.089
Mof_C 	C 	0.55583	0.31684	0.47735	-0.008
Mof_H 	H 	0.543	0.2584	0.4223	0.047
Mof_C 	C 	0.46417	0.35132	0.51695	-0.03
Mof_C 	C 	0.48576	0.43725	0.60193	0.081
Mof_C 	C 	0.14757	0.3034	0.45409	0.403
Mof_C 	C 	0.75788	0.33275	0.47234	0.329
Mof_Mn	Mn	-0	0	-0	0.823
Mof_Mn	Mn	2.77823e-17	0.5	0.5	0.886
_end
