data_functionalizedCrystal
_audit_creation_method	'EQeq! by Chris Wilmer'
_symmetry_space_group_name_H-M	'P1'
_symmetry_Int_Tables_number	1
_symmetry_cell_setting	triclinic
loop_
_symmetry_equiv_pos_as_xyz
  x,y,z
_cell_length_a	30.5536
_cell_length_b	15.643
_cell_length_c	21.9701
_cell_angle_alpha	90
_cell_angle_beta	133.091
_cell_angle_gamma	90
loop_
_atom_site_label
_atom_site_type_symbol
_atom_site_fract_x
_atom_site_fract_y
_atom_site_fract_z
_atom_site_charge
Mof_Nd	Nd	0.33129	0.8717	0.48589	1.825
Mof_Nd	Nd	0.61055	0.86345	0.67363	1.804
Mof_O 	O 	0.25281	0.7691	0.3723	-0.549
Mof_O 	O 	0.2233	0.6521	0.2952	-0.495
Mof_O 	O 	0.4405	0.857	0.5696	-0.536
Mof_O 	O 	0.5205	0.7848	0.6139	-0.565
Mof_O 	O 	0.6339	0.9721	0.6174	-0.572
Mof_O 	O 	0.6733	0.0959	0.6256	-0.545
Mof_O 	O 	0.6223	0.8828	0.7951	-0.532
Mof_O 	O 	0.6573	0.9527	0.9091	-0.577
Mof_N 	N 	0.3665	0.7345	0.4642	-0.19
Mof_N 	N 	0.6617	0.0013	0.7579	-0.184
Mof_C 	C 	0.3276	0.6764	0.4069	-0.094
Mof_C 	C 	0.3459	0.6011	0.3957	0.006
Mof_H 	H 	0.3173	0.5609	0.3541	0.009
Mof_C 	C 	0.4065	0.5865	0.4469	-0.108
Mof_H 	H 	0.4204	0.5351	0.4419	0.032
Mof_C 	C 	0.4466	0.647	0.5049	0.018
Mof_H 	H 	0.4885	0.6385	0.5397	-0.013
Mof_C 	C 	0.4253	0.7204	0.5122	-0.118
Mof_C 	C 	0.2623	0.7011	0.3534	0.409
Mof_C 	C 	0.4652	0.7921	0.5703	0.414
Mof_C 	C 	0.6847	0.0546	0.7385	-0.109
Mof_C 	C 	0.726	0.1179	0.793	0.024
Mof_H 	H 	0.7445	0.1522	0.7802	-0.009
Mof_C 	C 	0.739	0.1286	0.8664	-0.114
Mof_H 	H 	0.7664	0.1717	0.9048	0.028
Mof_C 	C 	0.7122	0.0765	0.8838	0.023
Mof_H 	H 	0.7196	0.0848	0.933	-0.015
Mof_C 	C 	0.6744	0.0123	0.8283	-0.113
Mof_C 	C 	0.6627	0.0405	0.6539	0.431
Mof_C 	C 	0.6495	0.9457	0.8465	0.42
Mof_Nd	Nd	0.83129	0.3717	0.48589	1.824
Mof_Nd	Nd	0.11055	0.36345	0.67363	1.801
Mof_O 	O 	0.75281	0.2691	0.3723	-0.55
Mof_O 	O 	0.7233	0.1521	0.2952	-0.496
Mof_O 	O 	0.9405	0.357	0.5696	-0.537
Mof_O 	O 	0.0205	0.2848	0.6139	-0.566
Mof_O 	O 	0.1339	0.4721	0.6174	-0.572
Mof_O 	O 	0.1733	0.5959	0.6256	-0.545
Mof_O 	O 	0.1223	0.3828	0.7951	-0.532
Mof_O 	O 	0.1573	0.4527	0.9091	-0.579
Mof_N 	N 	0.8665	0.2345	0.4642	-0.19
Mof_N 	N 	0.1617	0.5013	0.7579	-0.184
Mof_C 	C 	0.8276	0.1764	0.4069	-0.094
Mof_C 	C 	0.8459	0.1011	0.3957	0.006
Mof_H 	H 	0.8173	0.0609	0.3541	0.01
Mof_C 	C 	0.9065	0.0865	0.4469	-0.108
Mof_H 	H 	0.9204	0.0351	0.4419	0.032
Mof_C 	C 	0.9466	0.147	0.5049	0.018
Mof_H 	H 	0.9885	0.1385	0.5397	-0.013
Mof_C 	C 	0.9253	0.2204	0.5122	-0.118
Mof_C 	C 	0.7623	0.2011	0.3534	0.409
Mof_C 	C 	0.9652	0.2921	0.5703	0.414
Mof_C 	C 	0.1847	0.5546	0.7385	-0.109
Mof_C 	C 	0.226	0.6179	0.793	0.024
Mof_H 	H 	0.2445	0.6522	0.7802	-0.009
Mof_C 	C 	0.239	0.6286	0.8664	-0.113
Mof_H 	H 	0.2664	0.6717	0.9048	0.029
Mof_C 	C 	0.2122	0.5765	0.8838	0.022
Mof_H 	H 	0.2196	0.5848	0.933	-0.014
Mof_C 	C 	0.1744	0.5123	0.8283	-0.11
Mof_C 	C 	0.1627	0.5405	0.6539	0.432
Mof_C 	C 	0.1495	0.4457	0.8465	0.418
Mof_Nd	Nd	0.66871	0.8717	0.01411	1.821
Mof_Nd	Nd	0.38946	0.86345	0.82637	1.804
Mof_O 	O 	0.74719	0.7691	0.1277	-0.55
Mof_O 	O 	0.7767	0.6521	0.2048	-0.496
Mof_O 	O 	0.5595	0.857	0.9304	-0.536
Mof_O 	O 	0.4795	0.7848	0.8861	-0.565
Mof_O 	O 	0.3661	0.9721	0.8826	-0.57
Mof_O 	O 	0.3267	0.0959	0.8744	-0.545
Mof_O 	O 	0.3777	0.8828	0.7049	-0.532
Mof_O 	O 	0.3427	0.9527	0.5909	-0.579
Mof_N 	N 	0.6335	0.7345	0.0358	-0.19
Mof_N 	N 	0.3383	0.0013	0.7421	-0.185
Mof_C 	C 	0.6724	0.6764	0.0931	-0.095
Mof_C 	C 	0.6541	0.6011	0.1043	0.006
Mof_H 	H 	0.6827	0.5609	0.1459	0.009
Mof_C 	C 	0.5935	0.5865	0.0531	-0.109
Mof_H 	H 	0.5796	0.5351	0.0581	0.032
Mof_C 	C 	0.5534	0.647	0.9951	0.02
Mof_H 	H 	0.5115	0.6385	0.9603	-0.013
Mof_C 	C 	0.5747	0.7204	0.9878	-0.117
Mof_C 	C 	0.7377	0.7011	0.1466	0.409
Mof_C 	C 	0.5348	0.7921	0.9297	0.414
Mof_C 	C 	0.3153	0.0546	0.7615	-0.109
Mof_C 	C 	0.274	0.1179	0.707	0.024
Mof_H 	H 	0.2555	0.1522	0.7198	-0.009
Mof_C 	C 	0.261	0.1286	0.6336	-0.113
Mof_H 	H 	0.2336	0.1717	0.5952	0.028
Mof_C 	C 	0.2878	0.0765	0.6162	0.022
Mof_H 	H 	0.2804	0.0848	0.567	-0.015
Mof_C 	C 	0.3256	0.0123	0.6717	-0.112
Mof_C 	C 	0.3373	0.0405	0.8461	0.429
Mof_C 	C 	0.3505	0.9457	0.6535	0.419
Mof_Nd	Nd	0.16871	0.3717	0.01411	1.827
Mof_Nd	Nd	0.88946	0.36345	0.82637	1.802
Mof_O 	O 	0.24719	0.2691	0.1277	-0.55
Mof_O 	O 	0.2767	0.1521	0.2048	-0.496
Mof_O 	O 	0.0595	0.357	0.9304	-0.538
Mof_O 	O 	0.9795	0.2848	0.8861	-0.566
Mof_O 	O 	0.8661	0.4721	0.8826	-0.572
Mof_O 	O 	0.8267	0.5959	0.8744	-0.546
Mof_O 	O 	0.8777	0.3828	0.7049	-0.532
Mof_O 	O 	0.8427	0.4527	0.5909	-0.578
Mof_N 	N 	0.1335	0.2345	0.0358	-0.189
Mof_N 	N 	0.8383	0.5013	0.7421	-0.184
Mof_C 	C 	0.1724	0.1764	0.0931	-0.094
Mof_C 	C 	0.1541	0.1011	0.1043	0.004
Mof_H 	H 	0.1827	0.0609	0.1459	0.01
Mof_C 	C 	0.0935	0.0865	0.0531	-0.104
Mof_H 	H 	0.0796	0.0351	0.0581	0.031
Mof_C 	C 	0.0534	0.147	0.9951	0.016
Mof_H 	H 	0.0115	0.1385	0.9603	-0.013
Mof_C 	C 	0.0747	0.2204	0.9878	-0.118
Mof_C 	C 	0.2377	0.2011	0.1466	0.409
Mof_C 	C 	0.0348	0.2921	0.9297	0.414
Mof_C 	C 	0.8153	0.5546	0.7615	-0.109
Mof_C 	C 	0.774	0.6179	0.707	0.024
Mof_H 	H 	0.7555	0.6522	0.7198	-0.009
Mof_C 	C 	0.761	0.6286	0.6336	-0.113
Mof_H 	H 	0.7336	0.6717	0.5952	0.028
Mof_C 	C 	0.7878	0.5765	0.6162	0.022
Mof_H 	H 	0.7804	0.5848	0.567	-0.015
Mof_C 	C 	0.8256	0.5123	0.6717	-0.111
Mof_C 	C 	0.8373	0.5405	0.8461	0.432
Mof_C 	C 	0.8505	0.4457	0.6535	0.418
Mof_Nd	Nd	0.66871	0.1283	0.51411	1.824
Mof_Nd	Nd	0.38946	0.13655	0.32637	1.803
Mof_O 	O 	0.74719	0.2309	0.6277	-0.55
Mof_O 	O 	0.7767	0.3479	0.7048	-0.496
Mof_O 	O 	0.5595	0.143	0.4304	-0.537
Mof_O 	O 	0.4795	0.2152	0.3861	-0.565
Mof_O 	O 	0.3661	0.0279	0.3826	-0.572
Mof_O 	O 	0.3267	0.9041	0.3744	-0.545
Mof_O 	O 	0.3777	0.1172	0.2049	-0.532
Mof_O 	O 	0.3427	0.0473	0.0909	-0.577
Mof_N 	N 	0.6335	0.2655	0.5358	-0.19
Mof_N 	N 	0.3383	0.9987	0.2421	-0.184
Mof_C 	C 	0.6724	0.3236	0.5931	-0.094
Mof_C 	C 	0.6541	0.3989	0.6043	0.006
Mof_H 	H 	0.6827	0.4391	0.6459	0.009
Mof_C 	C 	0.5935	0.4135	0.5531	-0.108
Mof_H 	H 	0.5796	0.4649	0.5581	0.032
Mof_C 	C 	0.5534	0.353	0.4951	0.018
Mof_H 	H 	0.5115	0.3615	0.4603	-0.013
Mof_C 	C 	0.5747	0.2796	0.4878	-0.118
Mof_C 	C 	0.7377	0.2989	0.6466	0.409
Mof_C 	C 	0.5348	0.2079	0.4297	0.415
Mof_C 	C 	0.3153	0.9454	0.2615	-0.109
Mof_C 	C 	0.274	0.8821	0.207	0.024
Mof_H 	H 	0.2555	0.8478	0.2198	-0.009
Mof_C 	C 	0.261	0.8714	0.1336	-0.114
Mof_H 	H 	0.2336	0.8283	0.0952	0.028
Mof_C 	C 	0.2878	0.9235	0.1162	0.023
Mof_H 	H 	0.2804	0.9152	0.067	-0.015
Mof_C 	C 	0.3256	0.9877	0.1717	-0.113
Mof_C 	C 	0.3373	0.9595	0.3461	0.431
Mof_C 	C 	0.3505	0.0543	0.1535	0.42
Mof_Nd	Nd	0.16871	0.6283	0.51411	1.824
Mof_Nd	Nd	0.88946	0.63655	0.32637	1.801
Mof_O 	O 	0.24719	0.7309	0.6277	-0.55
Mof_O 	O 	0.2767	0.8479	0.7048	-0.496
Mof_O 	O 	0.0595	0.643	0.4304	-0.537
Mof_O 	O 	0.9795	0.7152	0.3861	-0.566
Mof_O 	O 	0.8661	0.5279	0.3826	-0.572
Mof_O 	O 	0.8267	0.4041	0.3744	-0.545
Mof_O 	O 	0.8777	0.6172	0.2049	-0.532
Mof_O 	O 	0.8427	0.5473	0.0909	-0.579
Mof_N 	N 	0.1335	0.7655	0.5358	-0.19
Mof_N 	N 	0.8383	0.4987	0.2421	-0.184
Mof_C 	C 	0.1724	0.8236	0.5931	-0.094
Mof_C 	C 	0.1541	0.8989	0.6043	0.006
Mof_H 	H 	0.1827	0.9391	0.6459	0.01
Mof_C 	C 	0.0935	0.9135	0.5531	-0.108
Mof_H 	H 	0.0796	0.9649	0.5581	0.032
Mof_C 	C 	0.0534	0.853	0.4951	0.018
Mof_H 	H 	0.0115	0.8615	0.4603	-0.013
Mof_C 	C 	0.0747	0.7796	0.4878	-0.118
Mof_C 	C 	0.2377	0.7989	0.6466	0.409
Mof_C 	C 	0.0348	0.7079	0.4297	0.414
Mof_C 	C 	0.8153	0.4454	0.2615	-0.109
Mof_C 	C 	0.774	0.3821	0.207	0.024
Mof_H 	H 	0.7555	0.3478	0.2198	-0.009
Mof_C 	C 	0.761	0.3714	0.1336	-0.113
Mof_H 	H 	0.7336	0.3283	0.0952	0.029
Mof_C 	C 	0.7878	0.4235	0.1162	0.022
Mof_H 	H 	0.7804	0.4152	0.067	-0.014
Mof_C 	C 	0.8256	0.4877	0.1717	-0.11
Mof_C 	C 	0.8373	0.4595	0.3461	0.432
Mof_C 	C 	0.8505	0.5543	0.1535	0.418
Mof_Nd	Nd	0.33129	0.1283	0.98589	1.821
Mof_Nd	Nd	0.61055	0.13655	0.17363	1.804
Mof_O 	O 	0.25281	0.2309	0.8723	-0.55
Mof_O 	O 	0.2233	0.3479	0.7952	-0.496
Mof_O 	O 	0.4405	0.143	0.0696	-0.536
Mof_O 	O 	0.5205	0.2152	0.1139	-0.565
Mof_O 	O 	0.6339	0.0279	0.1174	-0.57
Mof_O 	O 	0.6733	0.9041	0.1256	-0.545
Mof_O 	O 	0.6223	0.1172	0.2951	-0.532
Mof_O 	O 	0.6573	0.0473	0.4091	-0.579
Mof_N 	N 	0.3665	0.2655	0.9642	-0.19
Mof_N 	N 	0.6617	0.9987	0.2579	-0.185
Mof_C 	C 	0.3276	0.3236	0.9069	-0.095
Mof_C 	C 	0.3459	0.3989	0.8957	0.006
Mof_H 	H 	0.3173	0.4391	0.8541	0.009
Mof_C 	C 	0.4065	0.4135	0.9469	-0.109
Mof_H 	H 	0.4204	0.4649	0.9419	0.032
Mof_C 	C 	0.4466	0.353	0.0049	0.02
Mof_H 	H 	0.4885	0.3615	0.0397	-0.013
Mof_C 	C 	0.4253	0.2796	0.0122	-0.117
Mof_C 	C 	0.2623	0.2989	0.8534	0.409
Mof_C 	C 	0.4652	0.2079	0.0703	0.414
Mof_C 	C 	0.6847	0.9454	0.2385	-0.109
Mof_C 	C 	0.726	0.8821	0.293	0.024
Mof_H 	H 	0.7445	0.8478	0.2802	-0.009
Mof_C 	C 	0.739	0.8714	0.3664	-0.113
Mof_H 	H 	0.7664	0.8283	0.4048	0.028
Mof_C 	C 	0.7122	0.9235	0.3838	0.022
Mof_H 	H 	0.7196	0.9152	0.433	-0.015
Mof_C 	C 	0.6744	0.9877	0.3283	-0.112
Mof_C 	C 	0.6627	0.9595	0.1539	0.429
Mof_C 	C 	0.6495	0.0543	0.3465	0.419
Mof_Nd	Nd	0.83129	0.6283	0.98589	1.827
Mof_Nd	Nd	0.11055	0.63655	0.17363	1.802
Mof_O 	O 	0.75281	0.7309	0.8723	-0.55
Mof_O 	O 	0.7233	0.8479	0.7952	-0.496
Mof_O 	O 	0.9405	0.643	0.0696	-0.538
Mof_O 	O 	0.0205	0.7152	0.1139	-0.566
Mof_O 	O 	0.1339	0.5279	0.1174	-0.572
Mof_O 	O 	0.1733	0.4041	0.1256	-0.546
Mof_O 	O 	0.1223	0.6172	0.2951	-0.532
Mof_O 	O 	0.1573	0.5473	0.4091	-0.578
Mof_N 	N 	0.8665	0.7655	0.9642	-0.189
Mof_N 	N 	0.1617	0.4987	0.2579	-0.184
Mof_C 	C 	0.8276	0.8236	0.9069	-0.094
Mof_C 	C 	0.8459	0.8989	0.8957	0.004
Mof_H 	H 	0.8173	0.9391	0.8541	0.01
Mof_C 	C 	0.9065	0.9135	0.9469	-0.104
Mof_H 	H 	0.9204	0.9649	0.9419	0.031
Mof_C 	C 	0.9466	0.853	0.0049	0.016
Mof_H 	H 	0.9885	0.8615	0.0397	-0.013
Mof_C 	C 	0.9253	0.7796	0.0122	-0.118
Mof_C 	C 	0.7623	0.7989	0.8534	0.409
Mof_C 	C 	0.9652	0.7079	0.0703	0.414
Mof_C 	C 	0.1847	0.4454	0.2385	-0.109
Mof_C 	C 	0.226	0.3821	0.293	0.024
Mof_H 	H 	0.2445	0.3478	0.2802	-0.009
Mof_C 	C 	0.239	0.3714	0.3664	-0.113
Mof_H 	H 	0.2664	0.3283	0.4048	0.028
Mof_C 	C 	0.2122	0.4235	0.3838	0.022
Mof_H 	H 	0.2196	0.4152	0.433	-0.015
Mof_C 	C 	0.1744	0.4877	0.3283	-0.111
Mof_C 	C 	0.1627	0.4595	0.1539	0.432
Mof_C 	C 	0.1495	0.5543	0.3465	0.418
_end
