data_functionalizedCrystal
_audit_creation_method	'EQeq! by Chris Wilmer'
_symmetry_space_group_name_H-M	'P1'
_symmetry_Int_Tables_number	1
_symmetry_cell_setting	triclinic
loop_
_symmetry_equiv_pos_as_xyz
  x,y,z
_cell_length_a	17.6019
_cell_length_b	17.6019
_cell_length_c	17.6019
_cell_angle_alpha	90
_cell_angle_beta	90
_cell_angle_gamma	90
loop_
_atom_site_label
_atom_site_type_symbol
_atom_site_fract_x
_atom_site_fract_y
_atom_site_fract_z
_atom_site_charge
Mof_Zn	Zn	0.625	0.125	0.125	1.144
Mof_Zn	Zn	0.125	0.625	0.125	1.144
Mof_Zn	Zn	0.125	0.125	0.625	1.144
Mof_Zn	Zn	0.625	0.625	0.625	1.152
Mof_Zn	Zn	0.875	0.875	0.375	1.161
Mof_Zn	Zn	0.875	0.375	0.875	1.161
Mof_Zn	Zn	0.375	0.875	0.875	1.161
Mof_Zn	Zn	0.375	0.375	0.375	1.151
Mof_Zn	Zn	0.5	0.25	0.25	1.161
Mof_Zn	Zn	2.81205e-33	0.25	0.75	1.13
Mof_Zn	Zn	0.25	0	0.75	1.13
Mof_Zn	Zn	0.75	0.75	0.5	1.163
Mof_Zn	Zn	0.25	0.75	-0	1.13
Mof_Zn	Zn	4.62884e-33	0.5	-0	1.097
Mof_Zn	Zn	0.25	0.5	0.25	1.161
Mof_Zn	Zn	0.75	2.31442e-33	0.25	1.13
Mof_Zn	Zn	0.75	0.25	-0	1.13
Mof_Zn	Zn	0.5	0.75	0.75	1.163
Mof_Zn	Zn	6.50354e-33	4.62884e-33	0.5	1.097
Mof_Zn	Zn	0.25	0.25	0.5	1.161
Mof_Zn	Zn	5.56619e-33	0.75	0.25	1.13
Mof_Zn	Zn	0.75	0.5	0.75	1.163
Mof_Zn	Zn	0.5	0	-0	1.097
Mof_Zn	Zn	0.5	0.5	0.5	1.162
Mof_N 	N 	0.5021	0.125	0.125	-0.21
Mof_N 	N 	0.5021	0.625	0.625	-0.197
Mof_N 	N 	0.0021	0.125	0.625	-0.287
Mof_N 	N 	0.0021	0.625	0.125	-0.287
Mof_N 	N 	0.2479	0.125	0.625	-0.203
Mof_N 	N 	0.7479	0.625	0.625	-0.196
Mof_N 	N 	0.7479	0.125	0.125	-0.209
Mof_N 	N 	0.125	0.5021	0.125	-0.21
Mof_N 	N 	0.125	0.0021	0.625	-0.287
Mof_N 	N 	0.625	0.0021	0.125	-0.287
Mof_N 	N 	0.625	0.2479	0.125	-0.203
Mof_N 	N 	0.625	0.7479	0.625	-0.196
Mof_N 	N 	0.625	0.5021	0.625	-0.197
Mof_N 	N 	0.125	0.125	0.5021	-0.21
Mof_N 	N 	0.125	0.625	0.0021	-0.287
Mof_N 	N 	0.625	0.125	0.0021	-0.287
Mof_N 	N 	0.125	0.625	0.2479	-0.203
Mof_N 	N 	0.125	0.125	0.7479	-0.209
Mof_N 	N 	0.625	0.625	0.7479	-0.196
Mof_N 	N 	0.625	0.625	0.5021	-0.197
Mof_N 	N 	0.875	0.7521	0.375	-0.189
Mof_N 	N 	0.875	0.2521	0.875	-0.183
Mof_N 	N 	0.875	0.4979	0.875	-0.183
Mof_N 	N 	0.375	0.9979	0.875	-0.106
Mof_N 	N 	0.375	0.4979	0.375	-0.197
Mof_N 	N 	0.375	0.2521	0.375	-0.197
Mof_N 	N 	0.2521	0.375	0.375	-0.197
Mof_N 	N 	0.2521	0.875	0.875	-0.183
Mof_N 	N 	0.9979	0.875	0.375	-0.106
Mof_N 	N 	0.4979	0.875	0.875	-0.183
Mof_N 	N 	0.4979	0.375	0.375	-0.197
Mof_N 	N 	0.7521	0.375	0.875	-0.189
Mof_N 	N 	0.875	0.375	0.9979	-0.106
Mof_N 	N 	0.375	0.375	0.2521	-0.197
Mof_N 	N 	0.875	0.875	0.2521	-0.183
Mof_N 	N 	0.375	0.875	0.7521	-0.189
Mof_N 	N 	0.875	0.875	0.4979	-0.183
Mof_N 	N 	0.7521	0.875	0.375	-0.189
Mof_N 	N 	0.9979	0.375	0.875	-0.106
Mof_N 	N 	0.375	0.7521	0.875	-0.189
Mof_N 	N 	0.875	0.9979	0.375	-0.106
Mof_N 	N 	0.875	0.375	0.7521	-0.189
Mof_N 	N 	0.375	0.875	0.9979	-0.106
Mof_N 	N 	0.375	0.375	0.4979	-0.197
Mof_N 	N 	0.125	0.2479	0.625	-0.203
Mof_N 	N 	0.125	0.7479	0.125	-0.209
Mof_N 	N 	0.2479	0.625	0.125	-0.203
Mof_N 	N 	0.625	0.125	0.2479	-0.203
Mof_N 	N 	0.4584	0.1681	0.1681	-0.223
Mof_C 	C 	0.3871	0.152	0.152	0.016
Mof_C 	C 	0.3117	0.1763	0.1763	0.197
Mof_H 	H 	0.27	0.2	0.2	-0.054
Mof_H 	H 	0.317	0.161	0.161	-0.15
Mof_N 	N 	0.4584	0.6681	0.6681	-0.218
Mof_C 	C 	0.3871	0.652	0.652	0.015
Mof_C 	C 	0.3117	0.6763	0.6763	0.197
Mof_H 	H 	0.27	0.7	0.7	-0.046
Mof_H 	H 	0.317	0.661	0.661	-0.141
Mof_N 	N 	0.9584	0.1681	0.6681	-0.162
Mof_C 	C 	0.8871	0.152	0.652	0.019
Mof_C 	C 	0.8117	0.1763	0.6763	0.195
Mof_H 	H 	0.77	0.2	0.7	-0.048
Mof_H 	H 	0.817	0.161	0.661	-0.143
Mof_N 	N 	0.9584	0.6681	0.1681	-0.162
Mof_C 	C 	0.8871	0.652	0.152	0.019
Mof_C 	C 	0.8117	0.6763	0.1763	0.195
Mof_H 	H 	0.77	0.7	0.2	-0.048
Mof_H 	H 	0.817	0.661	0.161	-0.143
Mof_N 	N 	0.2916	0.0819	0.6681	-0.232
Mof_C 	C 	0.3629	0.098	0.652	-0.005
Mof_C 	C 	0.4383	0.0737	0.6763	0.202
Mof_H 	H 	0.48	0.05	0.7	-0.079
Mof_H 	H 	0.433	0.089	0.661	-0.151
Mof_N 	N 	0.2916	0.5819	0.1681	-0.221
Mof_C 	C 	0.3629	0.598	0.152	0.016
Mof_C 	C 	0.4383	0.5737	0.1763	0.197
Mof_H 	H 	0.48	0.55	0.2	-0.049
Mof_H 	H 	0.433	0.589	0.161	-0.145
Mof_N 	N 	0.7916	0.6681	0.5819	-0.218
Mof_C 	C 	0.8629	0.652	0.598	0.022
Mof_C 	C 	0.9383	0.6763	0.5737	0.21
Mof_H 	H 	0.98	0.7	0.55	-0.002
Mof_H 	H 	0.933	0.661	0.589	-0.138
Mof_N 	N 	0.7916	0.1681	0.0819	-0.234
Mof_C 	C 	0.8629	0.152	0.098	0.002
Mof_C 	C 	0.9383	0.1763	0.0737	0.215
Mof_H 	H 	0.98	0.2	0.05	-0.039
Mof_H 	H 	0.933	0.161	0.089	-0.153
Mof_N 	N 	0.2916	0.1681	0.5819	-0.221
Mof_C 	C 	0.3629	0.152	0.598	0.016
Mof_C 	C 	0.4383	0.1763	0.5737	0.197
Mof_H 	H 	0.48	0.2	0.55	-0.049
Mof_H 	H 	0.433	0.161	0.589	-0.145
Mof_N 	N 	0.9584	0.5819	0.0819	-0.172
Mof_C 	C 	0.8871	0.598	0.098	-0.002
Mof_C 	C 	0.8117	0.5737	0.0737	0.199
Mof_H 	H 	0.77	0.55	0.05	-0.078
Mof_H 	H 	0.817	0.589	0.089	-0.148
Mof_N 	N 	0.4584	0.5819	0.5819	-0.218
Mof_C 	C 	0.3871	0.598	0.598	0.015
Mof_C 	C 	0.3117	0.5737	0.5737	0.197
Mof_H 	H 	0.27	0.55	0.55	-0.046
Mof_H 	H 	0.317	0.589	0.589	-0.141
Mof_N 	N 	0.1681	0.4584	0.1681	-0.223
Mof_C 	C 	0.152	0.3871	0.152	0.016
Mof_C 	C 	0.1763	0.3117	0.1763	0.197
Mof_H 	H 	0.2	0.27	0.2	-0.054
Mof_H 	H 	0.161	0.317	0.161	-0.15
Mof_N 	N 	0.1681	0.9584	0.6681	-0.162
Mof_C 	C 	0.152	0.8871	0.652	0.019
Mof_C 	C 	0.1763	0.8117	0.6763	0.195
Mof_H 	H 	0.2	0.77	0.7	-0.048
Mof_H 	H 	0.161	0.817	0.661	-0.143
Mof_N 	N 	0.6681	0.4584	0.6681	-0.218
Mof_C 	C 	0.652	0.3871	0.652	0.015
Mof_C 	C 	0.6763	0.3117	0.6763	0.197
Mof_H 	H 	0.7	0.27	0.7	-0.046
Mof_H 	H 	0.661	0.317	0.661	-0.141
Mof_N 	N 	0.6681	0.9584	0.1681	-0.162
Mof_C 	C 	0.652	0.8871	0.152	0.019
Mof_C 	C 	0.6763	0.8117	0.1763	0.195
Mof_H 	H 	0.7	0.77	0.2	-0.048
Mof_H 	H 	0.661	0.817	0.161	-0.143
Mof_N 	N 	0.6681	0.2916	0.0819	-0.232
Mof_C 	C 	0.652	0.3629	0.098	-0.005
Mof_C 	C 	0.6763	0.4383	0.0737	0.202
Mof_H 	H 	0.7	0.48	0.05	-0.079
Mof_H 	H 	0.661	0.433	0.089	-0.151
Mof_N 	N 	0.1681	0.2916	0.5819	-0.221
Mof_C 	C 	0.152	0.3629	0.598	0.016
Mof_C 	C 	0.1763	0.4383	0.5737	0.197
Mof_H 	H 	0.2	0.48	0.55	-0.049
Mof_H 	H 	0.161	0.433	0.589	-0.145
Mof_N 	N 	0.5819	0.7916	0.6681	-0.218
Mof_C 	C 	0.598	0.8629	0.652	0.022
Mof_C 	C 	0.5737	0.9383	0.6763	0.21
Mof_H 	H 	0.55	0.98	0.7	-0.002
Mof_H 	H 	0.589	0.933	0.661	-0.138
Mof_N 	N 	0.5819	0.2916	0.1681	-0.221
Mof_C 	C 	0.598	0.3629	0.152	0.016
Mof_C 	C 	0.5737	0.4383	0.1763	0.197
Mof_H 	H 	0.55	0.48	0.2	-0.049
Mof_H 	H 	0.589	0.433	0.161	-0.145
Mof_N 	N 	0.0819	0.9584	0.5819	-0.172
Mof_C 	C 	0.098	0.8871	0.598	-0.002
Mof_C 	C 	0.0737	0.8117	0.5737	0.199
Mof_H 	H 	0.05	0.77	0.55	-0.078
Mof_H 	H 	0.089	0.817	0.589	-0.148
Mof_N 	N 	0.0819	0.4584	0.0819	-0.245
Mof_C 	C 	0.098	0.3871	0.098	-0.026
Mof_C 	C 	0.0737	0.3117	0.0737	0.206
Mof_H 	H 	0.05	0.27	0.05	-0.115
Mof_H 	H 	0.089	0.317	0.089	-0.162
Mof_N 	N 	0.5819	0.4584	0.5819	-0.218
Mof_C 	C 	0.598	0.3871	0.598	0.015
Mof_C 	C 	0.5737	0.3117	0.5737	0.197
Mof_H 	H 	0.55	0.27	0.55	-0.046
Mof_H 	H 	0.589	0.317	0.589	-0.141
Mof_N 	N 	0.1681	0.1681	0.4584	-0.223
Mof_C 	C 	0.152	0.152	0.3871	0.016
Mof_C 	C 	0.1763	0.1763	0.3117	0.197
Mof_H 	H 	0.2	0.2	0.27	-0.054
Mof_H 	H 	0.161	0.161	0.317	-0.15
Mof_N 	N 	0.1681	0.6681	0.9584	-0.162
Mof_C 	C 	0.152	0.652	0.8871	0.019
Mof_C 	C 	0.1763	0.6763	0.8117	0.195
Mof_H 	H 	0.2	0.7	0.77	-0.048
Mof_H 	H 	0.161	0.661	0.817	-0.143
Mof_N 	N 	0.6681	0.1681	0.9584	-0.162
Mof_C 	C 	0.652	0.152	0.8871	0.019
Mof_C 	C 	0.6763	0.1763	0.8117	0.195
Mof_H 	H 	0.7	0.2	0.77	-0.048
Mof_H 	H 	0.661	0.161	0.817	-0.143
Mof_N 	N 	0.6681	0.6681	0.4584	-0.218
Mof_C 	C 	0.652	0.652	0.3871	0.015
Mof_C 	C 	0.6763	0.6763	0.3117	0.197
Mof_H 	H 	0.7	0.7	0.27	-0.046
Mof_H 	H 	0.661	0.661	0.317	-0.141
Mof_N 	N 	0.0819	0.6681	0.2916	-0.232
Mof_C 	C 	0.098	0.652	0.3629	-0.005
Mof_C 	C 	0.0737	0.6763	0.4383	0.202
Mof_H 	H 	0.05	0.7	0.48	-0.079
Mof_H 	H 	0.089	0.661	0.433	-0.151
Mof_N 	N 	0.0819	0.1681	0.7916	-0.234
Mof_C 	C 	0.098	0.152	0.8629	0.002
Mof_C 	C 	0.0737	0.1763	0.9383	0.215
Mof_H 	H 	0.05	0.2	0.98	-0.039
Mof_H 	H 	0.089	0.161	0.933	-0.153
Mof_N 	N 	0.5819	0.1681	0.2916	-0.221
Mof_C 	C 	0.598	0.152	0.3629	0.016
Mof_C 	C 	0.5737	0.1763	0.4383	0.197
Mof_H 	H 	0.55	0.2	0.48	-0.049
Mof_H 	H 	0.589	0.161	0.433	-0.145
Mof_N 	N 	0.6681	0.5819	0.7916	-0.218
Mof_C 	C 	0.652	0.598	0.8629	0.022
Mof_C 	C 	0.6763	0.5737	0.9383	0.21
Mof_H 	H 	0.7	0.55	0.98	-0.002
Mof_H 	H 	0.661	0.589	0.933	-0.138
Mof_N 	N 	0.1681	0.5819	0.2916	-0.221
Mof_C 	C 	0.152	0.598	0.3629	0.016
Mof_C 	C 	0.1763	0.5737	0.4383	0.197
Mof_H 	H 	0.2	0.55	0.48	-0.049
Mof_H 	H 	0.161	0.589	0.433	-0.145
Mof_N 	N 	0.5819	0.0819	0.9584	-0.172
Mof_C 	C 	0.598	0.098	0.8871	-0.002
Mof_C 	C 	0.5737	0.0737	0.8117	0.199
Mof_H 	H 	0.55	0.05	0.77	-0.078
Mof_H 	H 	0.589	0.089	0.817	-0.148
Mof_N 	N 	0.5819	0.5819	0.4584	-0.218
Mof_C 	C 	0.598	0.598	0.3871	0.015
Mof_C 	C 	0.5737	0.5737	0.3117	0.197
Mof_H 	H 	0.55	0.55	0.27	-0.046
Mof_H 	H 	0.589	0.589	0.317	-0.141
Mof_N 	N 	0.9181	0.7084	0.3319	-0.197
Mof_C 	C 	0.902	0.6371	0.348	0.037
Mof_C 	C 	0.9263	0.5617	0.3237	0.192
Mof_H 	H 	0.95	0.52	0.3	-0.01
Mof_H 	H 	0.911	0.567	0.339	-0.128
Mof_N 	N 	0.9181	0.2084	0.8319	-0.195
Mof_C 	C 	0.902	0.1371	0.848	0.029
Mof_C 	C 	0.9263	0.0617	0.8237	0.179
Mof_H 	H 	0.95	0.02	0.8	-0.049
Mof_H 	H 	0.911	0.067	0.839	-0.125
Mof_N 	N 	0.8319	0.5416	0.8319	-0.213
Mof_C 	C 	0.848	0.6129	0.848	0.014
Mof_C 	C 	0.8237	0.6883	0.8237	0.197
Mof_H 	H 	0.8	0.73	0.8	-0.037
Mof_H 	H 	0.839	0.683	0.839	-0.13
Mof_N 	N 	0.8319	0.0416	0.3319	-0.266
Mof_C 	C 	0.848	0.1129	0.348	0.012
Mof_C 	C 	0.8237	0.1883	0.3237	0.198
Mof_H 	H 	0.8	0.23	0.3	-0.042
Mof_H 	H 	0.839	0.183	0.339	-0.136
Mof_N 	N 	0.3319	0.5416	0.3319	-0.218
Mof_C 	C 	0.348	0.6129	0.348	0.015
Mof_C 	C 	0.3237	0.6883	0.3237	0.197
Mof_H 	H 	0.3	0.73	0.3	-0.044
Mof_H 	H 	0.339	0.683	0.339	-0.14
Mof_N 	N 	0.3319	0.0416	0.8319	-0.266
Mof_C 	C 	0.348	0.1129	0.848	0.012
Mof_C 	C 	0.3237	0.1883	0.8237	0.198
Mof_H 	H 	0.3	0.23	0.8	-0.042
Mof_H 	H 	0.339	0.183	0.839	-0.136
Mof_N 	N 	0.4181	0.0416	0.9181	-0.247
Mof_C 	C 	0.402	0.1129	0.902	0.035
Mof_C 	C 	0.4263	0.1883	0.9263	0.192
Mof_H 	H 	0.45	0.23	0.95	-0.01
Mof_H 	H 	0.411	0.183	0.911	-0.129
Mof_N 	N 	0.4181	0.5416	0.4181	-0.218
Mof_C 	C 	0.402	0.6129	0.402	0.015
Mof_C 	C 	0.4263	0.6883	0.4263	0.198
Mof_H 	H 	0.45	0.73	0.45	-0.044
Mof_H 	H 	0.411	0.683	0.411	-0.14
Mof_N 	N 	0.9181	0.5416	0.9181	-0.177
Mof_C 	C 	0.902	0.6129	0.902	0.057
Mof_C 	C 	0.9263	0.6883	0.9263	0.187
Mof_H 	H 	0.95	0.73	0.95	0.023
Mof_H 	H 	0.911	0.683	0.911	-0.117
Mof_N 	N 	0.3319	0.2084	0.4181	-0.219
Mof_C 	C 	0.348	0.1371	0.402	0.009
Mof_C 	C 	0.3237	0.0617	0.4263	0.184
Mof_H 	H 	0.3	0.02	0.45	-0.089
Mof_H 	H 	0.339	0.067	0.411	-0.142
Mof_N 	N 	0.8319	0.2084	0.9181	-0.195
Mof_C 	C 	0.848	0.1371	0.902	0.029
Mof_C 	C 	0.8237	0.0617	0.9263	0.179
Mof_H 	H 	0.8	0.02	0.95	-0.049
Mof_H 	H 	0.839	0.067	0.911	-0.125
Mof_N 	N 	0.2084	0.4181	0.3319	-0.219
Mof_C 	C 	0.1371	0.402	0.348	0.009
Mof_C 	C 	0.0617	0.4263	0.3237	0.184
Mof_H 	H 	0.02	0.45	0.3	-0.089
Mof_H 	H 	0.067	0.411	0.339	-0.142
Mof_N 	N 	0.2084	0.9181	0.8319	-0.195
Mof_C 	C 	0.1371	0.902	0.848	0.029
Mof_C 	C 	0.0617	0.9263	0.8237	0.179
Mof_H 	H 	0.02	0.95	0.8	-0.049
Mof_H 	H 	0.067	0.911	0.839	-0.125
Mof_N 	N 	0.0416	0.9181	0.4181	-0.247
Mof_C 	C 	0.1129	0.902	0.402	0.035
Mof_C 	C 	0.1883	0.9263	0.4263	0.192
Mof_H 	H 	0.23	0.95	0.45	-0.01
Mof_H 	H 	0.183	0.911	0.411	-0.129
Mof_N 	N 	0.5416	0.9181	0.9181	-0.177
Mof_C 	C 	0.6129	0.902	0.902	0.057
Mof_C 	C 	0.6883	0.9263	0.9263	0.187
Mof_H 	H 	0.73	0.95	0.95	0.023
Mof_H 	H 	0.683	0.911	0.911	-0.117
Mof_N 	N 	0.5416	0.8319	0.8319	-0.213
Mof_C 	C 	0.6129	0.848	0.848	0.014
Mof_C 	C 	0.6883	0.8237	0.8237	0.197
Mof_H 	H 	0.73	0.8	0.8	-0.037
Mof_H 	H 	0.683	0.839	0.839	-0.13
Mof_N 	N 	0.5416	0.3319	0.3319	-0.218
Mof_C 	C 	0.6129	0.348	0.348	0.015
Mof_C 	C 	0.6883	0.3237	0.3237	0.197
Mof_H 	H 	0.73	0.3	0.3	-0.044
Mof_H 	H 	0.683	0.339	0.339	-0.14
Mof_N 	N 	0.0416	0.8319	0.3319	-0.266
Mof_C 	C 	0.1129	0.848	0.348	0.012
Mof_C 	C 	0.1883	0.8237	0.3237	0.198
Mof_H 	H 	0.23	0.8	0.3	-0.042
Mof_H 	H 	0.183	0.839	0.339	-0.136
Mof_N 	N 	0.0416	0.3319	0.8319	-0.266
Mof_C 	C 	0.1129	0.348	0.848	0.012
Mof_C 	C 	0.1883	0.3237	0.8237	0.198
Mof_H 	H 	0.23	0.3	0.8	-0.042
Mof_H 	H 	0.183	0.339	0.839	-0.136
Mof_N 	N 	0.7084	0.3319	0.9181	-0.197
Mof_C 	C 	0.6371	0.348	0.902	0.037
Mof_C 	C 	0.5617	0.3237	0.9263	0.192
Mof_H 	H 	0.52	0.3	0.95	-0.01
Mof_H 	H 	0.567	0.339	0.911	-0.128
Mof_N 	N 	0.7084	0.8319	0.4181	-0.216
Mof_C 	C 	0.6371	0.848	0.402	0.014
Mof_C 	C 	0.5617	0.8237	0.4263	0.197
Mof_H 	H 	0.52	0.8	0.45	-0.042
Mof_H 	H 	0.567	0.839	0.411	-0.135
Mof_N 	N 	0.2084	0.8319	0.9181	-0.195
Mof_C 	C 	0.1371	0.848	0.902	0.029
Mof_C 	C 	0.0617	0.8237	0.9263	0.179
Mof_H 	H 	0.02	0.8	0.95	-0.049
Mof_H 	H 	0.067	0.839	0.911	-0.125
Mof_N 	N 	0.9181	0.4181	0.0416	-0.247
Mof_C 	C 	0.902	0.402	0.1129	0.035
Mof_C 	C 	0.9263	0.4263	0.1883	0.192
Mof_H 	H 	0.95	0.45	0.23	-0.01
Mof_H 	H 	0.911	0.411	0.183	-0.129
Mof_N 	N 	0.9181	0.9181	0.5416	-0.177
Mof_C 	C 	0.902	0.902	0.6129	0.057
Mof_C 	C 	0.9263	0.9263	0.6883	0.187
Mof_H 	H 	0.95	0.95	0.73	0.023
Mof_H 	H 	0.911	0.911	0.683	-0.117
Mof_N 	N 	0.4181	0.3319	0.2084	-0.219
Mof_C 	C 	0.402	0.348	0.1371	0.009
Mof_C 	C 	0.4263	0.3237	0.0617	0.184
Mof_H 	H 	0.45	0.3	0.02	-0.089
Mof_H 	H 	0.411	0.339	0.067	-0.142
Mof_N 	N 	0.4181	0.8319	0.7084	-0.216
Mof_C 	C 	0.402	0.848	0.6371	0.014
Mof_C 	C 	0.4263	0.8237	0.5617	0.197
Mof_H 	H 	0.45	0.8	0.52	-0.042
Mof_H 	H 	0.411	0.839	0.567	-0.135
Mof_N 	N 	0.9181	0.8319	0.2084	-0.195
Mof_C 	C 	0.902	0.848	0.1371	0.029
Mof_C 	C 	0.9263	0.8237	0.0617	0.179
Mof_H 	H 	0.95	0.8	0.02	-0.049
Mof_H 	H 	0.911	0.839	0.067	-0.125
Mof_N 	N 	0.3319	0.9181	0.7084	-0.197
Mof_C 	C 	0.348	0.902	0.6371	0.037
Mof_C 	C 	0.3237	0.9263	0.5617	0.192
Mof_H 	H 	0.3	0.95	0.52	-0.01
Mof_H 	H 	0.339	0.911	0.567	-0.128
Mof_N 	N 	0.8319	0.9181	0.2084	-0.195
Mof_C 	C 	0.848	0.902	0.1371	0.029
Mof_C 	C 	0.8237	0.9263	0.0617	0.179
Mof_H 	H 	0.8	0.95	0.02	-0.049
Mof_H 	H 	0.839	0.911	0.067	-0.125
Mof_N 	N 	0.8319	0.8319	0.5416	-0.213
Mof_C 	C 	0.848	0.848	0.6129	0.014
Mof_C 	C 	0.8237	0.8237	0.6883	0.197
Mof_H 	H 	0.8	0.8	0.73	-0.037
Mof_H 	H 	0.839	0.839	0.683	-0.13
Mof_N 	N 	0.8319	0.3319	0.0416	-0.266
Mof_C 	C 	0.848	0.348	0.1129	0.012
Mof_C 	C 	0.8237	0.3237	0.1883	0.198
Mof_H 	H 	0.8	0.3	0.23	-0.042
Mof_H 	H 	0.839	0.339	0.183	-0.136
Mof_N 	N 	0.3319	0.8319	0.0416	-0.266
Mof_C 	C 	0.348	0.848	0.1129	0.012
Mof_C 	C 	0.3237	0.8237	0.1883	0.198
Mof_H 	H 	0.3	0.8	0.23	-0.042
Mof_H 	H 	0.339	0.839	0.183	-0.136
Mof_N 	N 	0.3319	0.3319	0.5416	-0.218
Mof_C 	C 	0.348	0.348	0.6129	0.015
Mof_C 	C 	0.3237	0.3237	0.6883	0.197
Mof_H 	H 	0.3	0.3	0.73	-0.044
Mof_H 	H 	0.339	0.339	0.683	-0.14
Mof_N 	N 	0.7084	0.9181	0.3319	-0.197
Mof_C 	C 	0.6371	0.902	0.348	0.037
Mof_C 	C 	0.5617	0.9263	0.3237	0.192
Mof_H 	H 	0.52	0.95	0.3	-0.01
Mof_H 	H 	0.567	0.911	0.339	-0.128
Mof_N 	N 	0.7084	0.4181	0.8319	-0.216
Mof_C 	C 	0.6371	0.402	0.848	0.014
Mof_C 	C 	0.5617	0.4263	0.8237	0.197
Mof_H 	H 	0.52	0.45	0.8	-0.042
Mof_H 	H 	0.567	0.411	0.839	-0.135
Mof_N 	N 	0.2084	0.3319	0.4181	-0.219
Mof_C 	C 	0.1371	0.348	0.402	0.009
Mof_C 	C 	0.0617	0.3237	0.4263	0.184
Mof_H 	H 	0.02	0.3	0.45	-0.089
Mof_H 	H 	0.067	0.339	0.411	-0.142
Mof_N 	N 	0.0416	0.4181	0.9181	-0.247
Mof_C 	C 	0.1129	0.402	0.902	0.035
Mof_C 	C 	0.1883	0.4263	0.9263	0.192
Mof_H 	H 	0.23	0.45	0.95	-0.01
Mof_H 	H 	0.183	0.411	0.911	-0.129
Mof_N 	N 	0.5416	0.4181	0.4181	-0.218
Mof_C 	C 	0.6129	0.402	0.402	0.015
Mof_C 	C 	0.6883	0.4263	0.4263	0.198
Mof_H 	H 	0.73	0.45	0.45	-0.044
Mof_H 	H 	0.683	0.411	0.411	-0.14
Mof_N 	N 	0.3319	0.7084	0.9181	-0.197
Mof_C 	C 	0.348	0.6371	0.902	0.037
Mof_C 	C 	0.3237	0.5617	0.9263	0.192
Mof_H 	H 	0.3	0.52	0.95	-0.01
Mof_H 	H 	0.339	0.567	0.911	-0.128
Mof_N 	N 	0.8319	0.7084	0.4181	-0.216
Mof_C 	C 	0.848	0.6371	0.402	0.014
Mof_C 	C 	0.8237	0.5617	0.4263	0.197
Mof_H 	H 	0.8	0.52	0.45	-0.042
Mof_H 	H 	0.839	0.567	0.411	-0.135
Mof_N 	N 	0.4181	0.2084	0.3319	-0.219
Mof_C 	C 	0.402	0.1371	0.348	0.009
Mof_C 	C 	0.4263	0.0617	0.3237	0.184
Mof_H 	H 	0.45	0.02	0.3	-0.089
Mof_H 	H 	0.411	0.067	0.339	-0.142
Mof_N 	N 	0.4181	0.7084	0.8319	-0.216
Mof_C 	C 	0.402	0.6371	0.848	0.014
Mof_C 	C 	0.4263	0.5617	0.8237	0.197
Mof_H 	H 	0.45	0.52	0.8	-0.042
Mof_H 	H 	0.411	0.567	0.839	-0.135
Mof_N 	N 	0.9181	0.0416	0.4181	-0.247
Mof_C 	C 	0.902	0.1129	0.402	0.035
Mof_C 	C 	0.9263	0.1883	0.4263	0.192
Mof_H 	H 	0.95	0.23	0.45	-0.01
Mof_H 	H 	0.911	0.183	0.411	-0.129
Mof_N 	N 	0.9181	0.3319	0.7084	-0.197
Mof_C 	C 	0.902	0.348	0.6371	0.037
Mof_C 	C 	0.9263	0.3237	0.5617	0.192
Mof_H 	H 	0.95	0.3	0.52	-0.01
Mof_H 	H 	0.911	0.339	0.567	-0.128
Mof_N 	N 	0.3319	0.4181	0.2084	-0.219
Mof_C 	C 	0.348	0.402	0.1371	0.009
Mof_C 	C 	0.3237	0.4263	0.0617	0.184
Mof_H 	H 	0.3	0.45	0.02	-0.089
Mof_H 	H 	0.339	0.411	0.067	-0.142
Mof_N 	N 	0.8319	0.4181	0.7084	-0.216
Mof_C 	C 	0.848	0.402	0.6371	0.014
Mof_C 	C 	0.8237	0.4263	0.5617	0.197
Mof_H 	H 	0.8	0.45	0.52	-0.042
Mof_H 	H 	0.839	0.411	0.567	-0.135
Mof_N 	N 	0.4181	0.9181	0.0416	-0.247
Mof_C 	C 	0.402	0.902	0.1129	0.035
Mof_C 	C 	0.4263	0.9263	0.1883	0.192
Mof_H 	H 	0.45	0.95	0.23	-0.01
Mof_H 	H 	0.411	0.911	0.183	-0.129
Mof_N 	N 	0.4181	0.4181	0.5416	-0.218
Mof_C 	C 	0.402	0.402	0.6129	0.015
Mof_C 	C 	0.4263	0.4263	0.6883	0.198
Mof_H 	H 	0.45	0.45	0.73	-0.044
Mof_H 	H 	0.411	0.411	0.683	-0.14
Mof_N 	N 	0.0819	0.2916	0.6681	-0.232
Mof_C 	C 	0.098	0.3629	0.652	-0.005
Mof_C 	C 	0.0737	0.4383	0.6763	0.202
Mof_H 	H 	0.05	0.48	0.7	-0.079
Mof_H 	H 	0.089	0.433	0.661	-0.151
Mof_N 	N 	0.0819	0.7916	0.1681	-0.234
Mof_C 	C 	0.098	0.8629	0.152	0.002
Mof_C 	C 	0.0737	0.9383	0.1763	0.215
Mof_H 	H 	0.05	0.98	0.2	-0.039
Mof_H 	H 	0.089	0.933	0.161	-0.153
Mof_N 	N 	0.5819	0.9584	0.0819	-0.172
Mof_C 	C 	0.598	0.8871	0.098	-0.002
Mof_C 	C 	0.5737	0.8117	0.0737	0.199
Mof_H 	H 	0.55	0.77	0.05	-0.078
Mof_H 	H 	0.589	0.817	0.089	-0.148
Mof_N 	N 	0.6681	0.7916	0.5819	-0.218
Mof_C 	C 	0.652	0.8629	0.598	0.022
Mof_C 	C 	0.6763	0.9383	0.5737	0.21
Mof_H 	H 	0.7	0.98	0.55	-0.002
Mof_H 	H 	0.661	0.933	0.589	-0.138
Mof_N 	N 	0.1681	0.7916	0.0819	-0.234
Mof_C 	C 	0.152	0.8629	0.098	0.002
Mof_C 	C 	0.1763	0.9383	0.0737	0.215
Mof_H 	H 	0.2	0.98	0.05	-0.039
Mof_H 	H 	0.161	0.933	0.089	-0.153
Mof_N 	N 	0.7916	0.5819	0.6681	-0.218
Mof_C 	C 	0.8629	0.598	0.652	0.022
Mof_C 	C 	0.9383	0.5737	0.6763	0.21
Mof_H 	H 	0.98	0.55	0.7	-0.002
Mof_H 	H 	0.933	0.589	0.661	-0.138
Mof_N 	N 	0.7916	0.0819	0.1681	-0.234
Mof_C 	C 	0.8629	0.098	0.152	0.002
Mof_C 	C 	0.9383	0.0737	0.1763	0.215
Mof_H 	H 	0.98	0.05	0.2	-0.039
Mof_H 	H 	0.933	0.089	0.161	-0.153
Mof_N 	N 	0.9584	0.0819	0.5819	-0.172
Mof_C 	C 	0.8871	0.098	0.598	-0.002
Mof_C 	C 	0.8117	0.0737	0.5737	0.199
Mof_H 	H 	0.77	0.05	0.55	-0.078
Mof_H 	H 	0.817	0.089	0.589	-0.148
Mof_N 	N 	0.4584	0.0819	0.0819	-0.245
Mof_C 	C 	0.3871	0.098	0.098	-0.026
Mof_C 	C 	0.3117	0.0737	0.0737	0.206
Mof_H 	H 	0.27	0.05	0.05	-0.115
Mof_H 	H 	0.317	0.089	0.089	-0.162
Mof_N 	N 	0.2916	0.6681	0.0819	-0.232
Mof_C 	C 	0.3629	0.652	0.098	-0.005
Mof_C 	C 	0.4383	0.6763	0.0737	0.202
Mof_H 	H 	0.48	0.7	0.05	-0.079
Mof_H 	H 	0.433	0.661	0.089	-0.151
Mof_N 	N 	0.0819	0.5819	0.9584	-0.172
Mof_C 	C 	0.098	0.598	0.8871	-0.002
Mof_C 	C 	0.0737	0.5737	0.8117	0.199
Mof_H 	H 	0.05	0.55	0.77	-0.078
Mof_H 	H 	0.089	0.589	0.817	-0.148
Mof_N 	N 	0.0819	0.0819	0.4584	-0.245
Mof_C 	C 	0.098	0.098	0.3871	-0.026
Mof_C 	C 	0.0737	0.0737	0.3117	0.206
Mof_H 	H 	0.05	0.05	0.27	-0.115
Mof_H 	H 	0.089	0.089	0.317	-0.162
Mof_N 	N 	0.5819	0.6681	0.7916	-0.218
Mof_C 	C 	0.598	0.652	0.8629	0.022
Mof_C 	C 	0.5737	0.6763	0.9383	0.21
Mof_H 	H 	0.55	0.7	0.98	-0.002
Mof_H 	H 	0.589	0.661	0.933	-0.138
Mof_N 	N 	0.6681	0.0819	0.2916	-0.232
Mof_C 	C 	0.652	0.098	0.3629	-0.005
Mof_C 	C 	0.6763	0.0737	0.4383	0.202
Mof_H 	H 	0.7	0.05	0.48	-0.079
Mof_H 	H 	0.661	0.089	0.433	-0.151
Mof_N 	N 	0.1681	0.0819	0.7916	-0.234
Mof_C 	C 	0.152	0.098	0.8629	0.002
Mof_C 	C 	0.1763	0.0737	0.9383	0.215
Mof_H 	H 	0.2	0.05	0.98	-0.039
Mof_H 	H 	0.161	0.089	0.933	-0.153
_end
