data_functionalizedCrystal
_audit_creation_method	'EQeq! by Chris Wilmer'
_symmetry_space_group_name_H-M	'P1'
_symmetry_Int_Tables_number	1
_symmetry_cell_setting	triclinic
loop_
_symmetry_equiv_pos_as_xyz
  x,y,z
_cell_length_a	9.182
_cell_length_b	9.687
_cell_length_c	10.639
_cell_angle_alpha	106.807
_cell_angle_beta	95.625
_cell_angle_gamma	118.06
loop_
_atom_site_label
_atom_site_type_symbol
_atom_site_fract_x
_atom_site_fract_y
_atom_site_fract_z
_atom_site_charge
Mof_Nd	Nd	0.23498	0.45502	0.9818	2.23
Mof_Nd	Nd	0.76502	0.54498	0.0182	2.23
Mof_H 	H 	0.5765	0.4008	0.6514	0.125
Mof_H 	H 	0.3841	0.2621	0.5568	0.116
Mof_H 	H 	0.5323	0.6214	0.6305	0.012
Mof_H 	H 	0.3444	0.4796	0.5303	0.023
Mof_H 	H 	0.9814	0.6258	0.6287	0.14
Mof_H 	H 	0.003	0.4686	0.6176	0.136
Mof_H 	H 	0.2948	0.6573	0.7481	0.007
Mof_H 	H 	0.2597	0.687	0.6109	0.001
Mof_H 	H 	0.2795	0.8971	0.873	0.014
Mof_H 	H 	0.2546	0.9293	0.735	0.006
Mof_H 	H 	0.5213	0.9498	0.7168	0.108
Mof_H 	H 	0.5467	0.944	0.8629	0.129
Mof_H 	H 	0.4235	0.5992	0.3486	0.126
Mof_H 	H 	0.6159	0.7379	0.4432	0.117
Mof_H 	H 	0.4677	0.3786	0.3695	0.012
Mof_H 	H 	0.6556	0.5204	0.4697	0.023
Mof_H 	H 	0.0186	0.3742	0.3713	0.14
Mof_H 	H 	0.997	0.5314	0.3824	0.136
Mof_H 	H 	0.7052	0.3427	0.2519	0.007
Mof_H 	H 	0.7403	0.313	0.3891	0.001
Mof_H 	H 	0.7205	0.1029	0.127	0.014
Mof_H 	H 	0.7454	0.0707	0.265	0.006
Mof_H 	H 	0.4787	0.0502	0.2832	0.108
Mof_H 	H 	0.4533	0.056	0.1371	0.129
Mof_C 	C 	0.3929	0.4016	0.7479	0.474
Mof_C 	C 	0.4592	0.3796	0.6245	-0.366
Mof_C 	C 	0.4628	0.5048	0.5604	-0.003
Mof_C 	C 	0.9907	0.585	0.8076	0.539
Mof_C 	C 	0.0415	0.5858	0.6772	-0.419
Mof_C 	C 	0.2351	0.6983	0.7007	0.035
Mof_C 	C 	0.3076	0.8846	0.7845	-0.013
Mof_C 	C 	0.5025	0.9855	0.8096	-0.338
Mof_C 	C 	0.5832	0.1749	0.8777	0.379
Mof_C 	C 	0.6071	0.5984	0.2521	0.474
Mof_C 	C 	0.5408	0.6204	0.3755	-0.366
Mof_C 	C 	0.5372	0.4952	0.4396	-0.003
Mof_C 	C 	0.0093	0.415	0.1924	0.539
Mof_C 	C 	0.9585	0.4142	0.3228	-0.419
Mof_C 	C 	0.7649	0.3017	0.2993	0.035
Mof_C 	C 	0.6924	0.1154	0.2155	-0.013
Mof_C 	C 	0.4975	0.0145	0.1904	-0.338
Mof_C 	C 	0.4168	0.8251	0.1223	0.379
Mof_O 	O 	0.2374	0.362	0.7338	-0.531
Mof_O 	O 	0.4916	0.4657	0.8671	-0.653
Mof_O 	O 	0.0621	0.5493	0.8895	-0.628
Mof_O 	O 	0.8754	0.6177	0.8304	-0.58
Mof_O 	O 	0.6918	0.2718	0.8301	-0.475
Mof_O 	O 	0.5456	0.2373	0.9821	-0.469
Mof_O 	O 	0.7626	0.638	0.2662	-0.531
Mof_O 	O 	0.5084	0.5343	0.1329	-0.653
Mof_O 	O 	0.9379	0.4507	0.1105	-0.628
Mof_O 	O 	0.1246	0.3823	0.1696	-0.58
Mof_O 	O 	0.3082	0.7282	0.1699	-0.475
Mof_O 	O 	0.4544	0.7627	0.0179	-0.469
_end
