data_functionalizedCrystal
_audit_creation_method	'EQeq! by Chris Wilmer'
_symmetry_space_group_name_H-M	'P1'
_symmetry_Int_Tables_number	1
_symmetry_cell_setting	triclinic
loop_
_symmetry_equiv_pos_as_xyz
  x,y,z
_cell_length_a	20.5308
_cell_length_b	9.1709
_cell_length_c	6.8801
_cell_angle_alpha	90
_cell_angle_beta	113.072
_cell_angle_gamma	90
loop_
_atom_site_label
_atom_site_type_symbol
_atom_site_fract_x
_atom_site_fract_y
_atom_site_fract_z
_atom_site_charge
Mof_Fe	Fe	0.0054	0.0038	0.954	0.993
Mof_O 	O 	0.0714	0.1253	0.6241	-0.419
Mof_O 	O 	0.0885	0.0973	0.9581	-0.413
Mof_O 	O 	0.4201	0.3615	0.9267	-0.367
Mof_O 	O 	0.4372	0.3335	0.2607	-0.349
Mof_C 	C 	0.1858	0.183	0.8829	-0.19
Mof_C 	C 	0.2118	0.215	0.7325	0.074
Mof_C 	C 	0.2803	0.2614	0.792	-0.107
Mof_C 	C 	0.3228	0.2758	0.0019	-0
Mof_C 	C 	0.2968	0.2438	0.1523	-0.084
Mof_C 	C 	0.2283	0.1974	0.0928	0.103
Mof_C 	C 	0.1117	0.1328	0.8187	0.443
Mof_C 	C 	0.3969	0.326	0.0661	0.367
Mof_H 	H 	0.1814	0.2047	0.5823	0.032
Mof_H 	H 	0.299	0.2843	0.6843	0.077
Mof_H 	H 	0.3272	0.2541	0.3025	0.076
Mof_H 	H 	0.2096	0.1745	0.2005	0.024
Mof_O 	O 	0.0067	0.9011	0.696	-0.399
Mof_Fe	Fe	0.5054	0.5038	0.954	1.069
Mof_O 	O 	0.5714	0.6253	0.6241	-0.424
Mof_O 	O 	0.5885	0.5973	0.9581	-0.419
Mof_O 	O 	0.9201	0.8615	0.9267	-0.323
Mof_O 	O 	0.9372	0.8335	0.2607	-0.299
Mof_C 	C 	0.6858	0.683	0.8829	-0.189
Mof_C 	C 	0.7118	0.715	0.7325	0.078
Mof_C 	C 	0.7803	0.7614	0.792	-0.109
Mof_C 	C 	0.8228	0.7758	0.0019	0.01
Mof_C 	C 	0.7968	0.7438	0.1523	-0.088
Mof_C 	C 	0.7283	0.6974	0.0928	0.103
Mof_C 	C 	0.6117	0.6328	0.8187	0.453
Mof_C 	C 	0.8969	0.826	0.0661	0.35
Mof_H 	H 	0.6814	0.7047	0.5823	0.033
Mof_H 	H 	0.799	0.7843	0.6843	0.082
Mof_H 	H 	0.8272	0.7541	0.3025	0.083
Mof_H 	H 	0.7096	0.6745	0.2005	0.024
Mof_O 	O 	0.5067	0.4011	0.696	-0.383
Mof_Fe	Fe	0.0054	0.9962	0.454	1.025
Mof_O 	O 	0.0714	0.8747	0.1241	-0.394
Mof_O 	O 	0.0885	0.9027	0.4581	-0.396
Mof_O 	O 	0.4201	0.6385	0.4267	-0.346
Mof_O 	O 	0.4372	0.6665	0.7607	-0.353
Mof_C 	C 	0.1858	0.817	0.3829	-0.099
Mof_C 	C 	0.2118	0.785	0.2325	0.003
Mof_C 	C 	0.2803	0.7386	0.292	-0.014
Mof_C 	C 	0.3228	0.7242	0.5019	-0.078
Mof_C 	C 	0.2968	0.7562	0.6523	-0.017
Mof_C 	C 	0.2283	0.8026	0.5928	0.002
Mof_C 	C 	0.1117	0.8672	0.3187	0.413
Mof_C 	C 	0.3969	0.674	0.5661	0.358
Mof_H 	H 	0.1814	0.7953	0.0823	0.061
Mof_H 	H 	0.299	0.7157	0.1843	0.057
Mof_H 	H 	0.3272	0.7459	0.8025	0.048
Mof_H 	H 	0.2096	0.8255	0.7005	0.043
Mof_O 	O 	0.0067	0.0989	0.196	-0.374
Mof_Fe	Fe	0.5054	0.4962	0.454	1.105
Mof_O 	O 	0.5714	0.3747	0.1241	-0.395
Mof_O 	O 	0.5885	0.4027	0.4581	-0.401
Mof_O 	O 	0.9201	0.1385	0.4267	-0.299
Mof_O 	O 	0.9372	0.1665	0.7607	-0.302
Mof_C 	C 	0.6858	0.317	0.3829	-0.106
Mof_C 	C 	0.7118	0.285	0.2325	0.015
Mof_C 	C 	0.7803	0.2386	0.292	-0.023
Mof_C 	C 	0.8228	0.2242	0.5019	-0.059
Mof_C 	C 	0.7968	0.2562	0.6523	-0.028
Mof_C 	C 	0.7283	0.3026	0.5928	0.014
Mof_C 	C 	0.6117	0.3672	0.3187	0.427
Mof_C 	C 	0.8969	0.174	0.5661	0.342
Mof_H 	H 	0.6814	0.2953	0.0823	0.06
Mof_H 	H 	0.799	0.2157	0.1843	0.065
Mof_H 	H 	0.8272	0.2459	0.8025	0.057
Mof_H 	H 	0.7096	0.3255	0.7005	0.041
Mof_O 	O 	0.5067	0.5989	0.196	-0.364
_end
