data_functionalizedCrystal
_audit_creation_method	'EQeq! by Chris Wilmer'
_symmetry_space_group_name_H-M	'P1'
_symmetry_Int_Tables_number	1
_symmetry_cell_setting	triclinic
loop_
_symmetry_equiv_pos_as_xyz
  x,y,z
_cell_length_a	45.6736
_cell_length_b	45.6736
_cell_length_c	45.6736
_cell_angle_alpha	94.9819
_cell_angle_beta	94.9819
_cell_angle_gamma	145.722
loop_
_atom_site_label
_atom_site_type_symbol
_atom_site_fract_x
_atom_site_fract_y
_atom_site_fract_z
_atom_site_charge
Mof_Ag	Ag	0.04266	0.47638	0.98158	0.414
Mof_Ag	Ag	0.92681	0.41047	0.98864	0.339
Mof_Ag	Ag	0.02023	0.47337	0.47714	0.336
Mof_Ag	Ag	0.60793	0.81345	0.43466	0.324
Mof_Ag	Ag	0.60028	0.76799	0.36791	0.354
Mof_Ag	Ag	0.38956	0.50564	0.22342	0.412
Mof_Ag	Ag	0.43947	0.03328	0.71273	0.398
Mof_Ag	Ag	0.33775	0.98718	0.72753	0.325
Mof_Ag	Ag	0.3914	0.97358	0.77028	0.369
Mof_Ag	Ag	0.79962	0.63047	0.61043	0.331
Mof_Ag	Ag	0.91434	0.72037	0.66373	0.346
Mof_Ag	Ag	0.87995	0.76024	0.63605	0.415
Mof_Ag	Ag	0.38867	0.70781	0.06262	0.336
Mof_Ag	Ag	0.34053	0.64253	0.11454	0.347
Mof_Ag	Ag	0.4381	0.68374	0.08712	0.414
Mof_Ag	Ag	0.87339	0.14969	0.57202	0.361
Mof_Ag	Ag	0.94492	0.2719	0.59224	0.314
Mof_Ag	Ag	0.81817	0.16523	0.53984	0.405
Mof_Ag	Ag	0.22418	0.35951	0.62329	0.366
Mof_Ag	Ag	0.23908	0.40509	0.69405	0.396
Mof_Ag	Ag	0.35019	0.46935	0.67894	0.318
Mof_Ag	Ag	0.53264	0.80016	0.89898	0.357
Mof_Ag	Ag	0.51395	0.74764	0.83151	0.353
Mof_Ag	Ag	0.44926	0.66803	0.88087	0.372
Mof_Ag	Ag	0.64425	0.03135	0.78836	0.367
Mof_Ag	Ag	0.73377	0.15929	0.80862	0.351
Mof_Ag	Ag	0.76745	0.12169	0.84106	0.386
Mof_Ag	Ag	0.46239	0.52996	0.49749	0.399
Mof_Ag	Ag	0.51733	0.52219	0.54142	0.31
Mof_Ag	Ag	0.58306	0.60032	0.49224	0.373
Mof_N 	N 	0.97124	0.40504	0.94788	-0.198
Mof_N 	N 	0.92598	0.38176	0.95074	-0.2
Mof_N 	N 	0.9321	0.40389	0.50859	-0.209
Mof_N 	N 	0.97538	0.42366	0.50564	-0.207
Mof_N 	N 	0.11469	0.56039	0.04368	-0.199
Mof_N 	N 	0.11325	0.54184	0.01749	-0.201
Mof_N 	N 	0.57699	0.74546	0.42805	-0.209
Mof_N 	N 	0.5741	0.72672	0.40062	-0.199
Mof_N 	N 	0.3147	0.47726	0.17636	-0.2
Mof_N 	N 	0.36599	0.52063	0.19602	-0.202
Mof_N 	N 	0.67216	0.91817	0.42553	-0.201
Mof_N 	N 	0.64807	0.88698	0.44545	-0.205
Mof_N 	N 	0.41331	0.04782	0.68893	-0.201
Mof_N 	N 	0.37035	0.02759	0.69454	-0.205
Mof_N 	N 	0.45196	0.18941	0.64377	-0.212
Mof_N 	N 	0.44778	0.16738	0.61756	-0.207
Mof_N 	N 	0.45595	0.00444	0.76159	-0.206
Mof_N 	N 	0.4757	0.03038	0.73908	-0.207
Mof_N 	N 	0.8211	0.60723	0.62473	-0.208
Mof_N 	N 	0.86766	0.64401	0.64807	-0.209
Mof_N 	N 	0.78086	0.46204	0.6653	-0.208
Mof_N 	N 	0.77939	0.45079	0.63598	-0.204
Mof_N 	N 	0.80464	0.7	0.60344	-0.198
Mof_N 	N 	0.77491	0.65	0.59451	-0.203
Mof_N 	N 	0.32385	0.675	0.07245	-0.21
Mof_N 	N 	0.30259	0.64699	0.09398	-0.208
Mof_N 	N 	0.37133	0.62931	0.13144	-0.204
Mof_N 	N 	0.40936	0.64467	0.12183	-0.199
Mof_N 	N 	0.45682	0.71382	0.04884	-0.2
Mof_N 	N 	0.44225	0.72975	0.043	-0.198
Mof_N 	N 	0.95348	0.21509	0.59817	-0.2
Mof_N 	N 	0.98264	0.26507	0.60731	-0.205
Mof_N 	N 	0.91475	0.28424	0.57139	-0.201
Mof_N 	N 	0.86582	0.24302	0.54904	-0.197
Mof_N 	N 	0.77642	0.09046	0.52508	-0.201
Mof_N 	N 	0.79763	0.08434	0.53977	-0.199
Mof_N 	N 	0.15826	0.32656	0.63242	-0.2
Mof_N 	N 	0.16633	0.34736	0.66109	-0.204
Mof_N 	N 	0.31246	0.47103	0.72709	-0.2
Mof_N 	N 	0.35785	0.49669	0.72194	-0.201
Mof_N 	N 	0.34298	0.44522	0.635	-0.208
Mof_N 	N 	0.29416	0.40204	0.6132	-0.201
Mof_N 	N 	0.57036	0.84726	0.86882	-0.21
Mof_N 	N 	0.55985	0.82347	0.84032	-0.21
Mof_N 	N 	0.46513	0.67042	0.81915	-0.21
Mof_N 	N 	0.43966	0.63764	0.8383	-0.205
Mof_N 	N 	0.45965	0.70116	0.92261	-0.205
Mof_N 	N 	0.49579	0.75452	0.92971	-0.208
Mof_N 	N 	0.61921	0.05172	0.77473	-0.205
Mof_N 	N 	0.65667	0.10521	0.78348	-0.202
Mof_N 	N 	0.80717	0.21591	0.84168	-0.21
Mof_N 	N 	0.81974	0.20098	0.85692	-0.201
Mof_N 	N 	0.70795	0.03953	0.82928	-0.206
Mof_N 	N 	0.66035	0.00472	0.80747	-0.203
Mof_N 	N 	0.42526	0.48764	0.5299	-0.2
Mof_N 	N 	0.44703	0.48296	0.54699	-0.203
Mof_N 	N 	0.59322	0.56919	0.54221	-0.207
Mof_N 	N 	0.62032	0.60192	0.52344	-0.2
Mof_N 	N 	0.55022	0.60675	0.46557	-0.201
Mof_N 	N 	0.50435	0.58188	0.46983	-0.203
Mof_C 	C 	0.99839	0.38575	0.91714	-0.479
Mof_C 	C 	0.95709	0.37168	0.92537	0.159
Mof_C 	C 	0.90107	0.32512	0.91239	-0.113
Mof_C 	C 	0.88317	0.33319	0.92916	0.159
Mof_C 	C 	0.82703	0.29659	0.92682	-0.479
Mof_C 	C 	0.85679	0.33861	0.5318	-0.505
Mof_C 	C 	0.90503	0.36641	0.52344	0.171
Mof_C 	C 	0.93086	0.36077	0.53043	-0.128
Mof_C 	C 	0.97566	0.39859	0.51865	0.176
Mof_C 	C 	0.01844	0.41253	0.51917	-0.513
Mof_C 	C 	0.17538	0.62184	0.09562	-0.471
Mof_C 	C 	0.16169	0.59416	0.06445	0.159
Mof_C 	C 	0.19045	0.59737	0.05202	-0.118
Mof_C 	C 	0.15868	0.56395	0.02203	0.164
Mof_C 	C 	0.1677	0.5503	0.9974	-0.482
Mof_C 	C 	0.56644	0.73061	0.47905	-0.483
Mof_C 	C 	0.5658	0.71829	0.44709	0.161
Mof_C 	C 	0.55517	0.68124	0.43301	-0.122
Mof_C 	C 	0.56153	0.68823	0.40376	0.17
Mof_C 	C 	0.55315	0.65843	0.37718	-0.494
Mof_C 	C 	0.26152	0.45883	0.13275	-0.502
Mof_C 	C 	0.31199	0.4964	0.15719	0.171
Mof_C 	C 	0.36204	0.55254	0.16518	-0.125
Mof_C 	C 	0.39455	0.56601	0.18936	0.169
Mof_C 	C 	0.45169	0.6208	0.20689	-0.482
Mof_C 	C 	0.73702	0.01076	0.42478	-0.491
Mof_C 	C 	0.70511	0.96778	0.44069	0.171
Mof_C 	C 	0.70355	0.96972	0.47107	-0.123
Mof_C 	C 	0.66672	0.91769	0.47321	0.166
Mof_C 	C 	0.64761	0.89498	0.49959	-0.497
Mof_C 	C 	0.48254	0.10931	0.66205	-0.491
Mof_C 	C 	0.43463	0.08114	0.67177	0.177
Mof_C 	C 	0.40671	0.08359	0.6659	-0.126
Mof_C 	C 	0.3662	0.04904	0.68044	0.166
Mof_C 	C 	0.32249	0.03375	0.68184	-0.489
Mof_C 	C 	0.43723	0.17592	0.69455	-0.494
Mof_C 	C 	0.43583	0.16087	0.6635	0.161
Mof_C 	C 	0.42111	0.11996	0.65047	-0.122
Mof_C 	C 	0.42967	0.12648	0.62155	0.173
Mof_C 	C 	0.41956	0.09368	0.59624	-0.5
Mof_C 	C 	0.47975	0.98991	0.80166	-0.503
Mof_C 	C 	0.48893	0.01107	0.775	0.176
Mof_C 	C 	0.53041	0.04131	0.76132	-0.126
Mof_C 	C 	0.52134	0.0536	0.73914	0.173
Mof_C 	C 	0.55223	0.08497	0.7172	-0.504
Mof_C 	C 	0.74245	0.51155	0.5944	-0.491
Mof_C 	C 	0.79519	0.5598	0.61919	0.164
Mof_C 	C 	0.82495	0.56475	0.6391	-0.124
Mof_C 	C 	0.87049	0.61923	0.65692	0.171
Mof_C 	C 	0.91775	0.64952	0.68147	-0.508
Mof_C 	C 	0.80202	0.52521	0.69963	-0.504
Mof_C 	C 	0.79848	0.50481	0.67029	0.168
Mof_C 	C 	0.80887	0.52193	0.6436	-0.12
Mof_C 	C 	0.79596	0.48615	0.62291	0.168
Mof_C 	C 	0.79896	0.48439	0.59075	-0.494
Mof_C 	C 	0.79662	0.74616	0.59618	-0.494
Mof_C 	C 	0.77445	0.69679	0.59044	0.169
Mof_C 	C 	0.72397	0.64421	0.57278	-0.12
Mof_C 	C 	0.72657	0.61622	0.57619	0.158
Mof_C 	C 	0.68453	0.55761	0.56314	-0.479
Mof_C 	C 	0.30119	0.68952	0.03151	-0.532
Mof_C 	C 	0.28819	0.66333	0.05592	0.185
Mof_C 	C 	0.24242	0.62662	0.06644	-0.129
Mof_C 	C 	0.25316	0.61756	0.09072	0.163
Mof_C 	C 	0.21906	0.58214	0.1108	-0.488
Mof_C 	C 	0.30821	0.57191	0.16292	-0.477
Mof_C 	C 	0.35054	0.59539	0.14833	0.155
Mof_C 	C 	0.37498	0.5882	0.14998	-0.111
Mof_C 	C 	0.4118	0.6207	0.1329	0.159
Mof_C 	C 	0.45041	0.62991	0.12632	-0.474
Mof_C 	C 	0.48766	0.69511	0.02397	-0.506
Mof_C 	C 	0.46989	0.71083	0.02492	0.174
Mof_C 	C 	0.4622	0.7245	0.0021	-0.119
Mof_C 	C 	0.44532	0.73586	0.01458	0.158
Mof_C 	C 	0.42909	0.75105	0.00094	-0.475
Mof_C 	C 	0.96794	0.17356	0.5999	-0.528
Mof_C 	C 	0.98752	0.22071	0.60563	0.185
Mof_C 	C 	0.03956	0.27543	0.61979	-0.124
Mof_C 	C 	0.03481	0.30183	0.62044	0.156
Mof_C 	C 	0.07692	0.36086	0.63218	-0.482
Mof_C 	C 	0.99785	0.38434	0.59059	-0.463
Mof_C 	C 	0.94267	0.3312	0.56847	0.147
Mof_C 	C 	0.91349	0.32165	0.54414	-0.111
Mof_C 	C 	0.8649	0.26506	0.53256	0.161
Mof_C 	C 	0.81609	0.23006	0.50695	-0.468
Mof_C 	C 	0.70802	0.04504	0.47766	-0.497
Mof_C 	C 	0.73947	0.0505	0.49877	0.17
Mof_C 	C 	0.73676	0.01766	0.49642	-0.117
Mof_C 	C 	0.7739	0.04027	0.52277	0.158
Mof_C 	C 	0.78866	0.02239	0.53285	-0.474
Mof_C 	C 	0.09261	0.27061	0.58122	-0.5
Mof_C 	C 	0.1116	0.29764	0.61404	0.168
Mof_C 	C 	0.08996	0.30062	0.63118	-0.12
Mof_C 	C 	0.12491	0.33121	0.66032	0.161
Mof_C 	C 	0.12289	0.34853	0.68862	-0.479
Mof_C 	C 	0.28535	0.48175	0.7653	-0.489
Mof_C 	C 	0.32675	0.49929	0.75384	0.173
Mof_C 	C 	0.3829	0.54499	0.76629	-0.118
Mof_C 	C 	0.40092	0.54182	0.74534	0.157
Mof_C 	C 	0.45692	0.57833	0.74645	-0.484
Mof_C 	C 	0.43988	0.51733	0.64041	-0.487
Mof_C 	C 	0.3817	0.46835	0.62205	0.156
Mof_C 	C 	0.35814	0.44045	0.59099	-0.122
Mof_C 	C 	0.3026	0.39859	0.58639	0.175
Mof_C 	C 	0.25644	0.3538	0.55864	-0.509
Mof_C 	C 	0.61944	0.93224	0.89748	-0.503
Mof_C 	C 	0.60352	0.89735	0.86987	0.173
Mof_C 	C 	0.61505	0.90649	0.84174	-0.133
Mof_C 	C 	0.58703	0.85921	0.82404	0.183
Mof_C 	C 	0.58439	0.8448	0.79239	-0.515
Mof_C 	C 	0.47099	0.66769	0.76628	-0.471
Mof_C 	C 	0.45003	0.64186	0.79209	0.158
Mof_C 	C 	0.41394	0.58978	0.79312	-0.124
Mof_C 	C 	0.4089	0.58928	0.82278	0.181
Mof_C 	C 	0.3771	0.54557	0.83807	-0.514
Mof_C 	C 	0.40083	0.62541	0.94564	-0.465
Mof_C 	C 	0.44416	0.68431	0.94747	0.156
Mof_C 	C 	0.47016	0.72638	0.97114	-0.122
Mof_C 	C 	0.50137	0.76921	0.95858	0.173
Mof_C 	C 	0.53831	0.8259	0.97261	-0.5
Mof_C 	C 	0.52014	0.96174	0.75368	-0.498
Mof_C 	C 	0.56943	0.02173	0.76556	0.166
Mof_C 	C 	0.57441	0.05681	0.76862	-0.117
Mof_C 	C 	0.62994	0.10841	0.78015	0.17
Mof_C 	C 	0.6598	0.16208	0.78788	-0.5
Mof_C 	C 	0.83139	0.2885	0.84849	-0.496
Mof_C 	C 	0.83533	0.26183	0.85956	0.168
Mof_C 	C 	0.86745	0.27854	0.88639	-0.121
Mof_C 	C 	0.8567	0.23954	0.88344	0.163
Mof_C 	C 	0.88084	0.23677	0.90541	-0.474
Mof_C 	C 	0.74332	0.0348	0.86912	-0.489
Mof_C 	C 	0.69933	0.00962	0.84415	0.162
Mof_C 	C 	0.64553	0.95473	0.83206	-0.119
Mof_C 	C 	0.62299	0.9539	0.80869	0.174
Mof_C 	C 	0.56731	0.90735	0.78746	-0.507
Mof_C 	C 	0.35799	0.47032	0.52931	-0.523
Mof_C 	C 	0.38926	0.47115	0.54261	0.187
Mof_C 	C 	0.38809	0.45628	0.56837	-0.126
Mof_C 	C 	0.42502	0.46395	0.57017	0.163
Mof_C 	C 	0.43965	0.45312	0.59197	-0.482
Mof_C 	C 	0.6076	0.55073	0.58593	-0.479
Mof_C 	C 	0.62599	0.57984	0.56183	0.155
Mof_C 	C 	0.6766	0.62098	0.55618	-0.12
Mof_C 	C 	0.67108	0.63348	0.53196	0.173
Mof_C 	C 	0.71056	0.67229	0.51465	-0.498
Mof_C 	C 	0.62566	0.68003	0.44389	-0.479
Mof_C 	C 	0.57414	0.64501	0.45155	0.157
Mof_C 	C 	0.54339	0.64504	0.44623	-0.112
Mof_C 	C 	0.50033	0.60491	0.45844	0.161
Mof_C 	C 	0.45453	0.58651	0.45984	-0.48
Mof_H 	H 	0.0347	0.422	0.9299	0.122
Mof_H 	H 	0.9964	0.3851	0.8955	0.139
Mof_H 	H 	0.9908	0.3593	0.9207	0.137
Mof_H 	H 	0.8283	0.3149	0.9414	0.122
Mof_H 	H 	0.8061	0.2634	0.9315	0.135
Mof_H 	H 	0.8098	0.2875	0.9059	0.135
Mof_H 	H 	0.8655	0.3657	0.542	0.146
Mof_H 	H 	0.8466	0.3175	0.5457	0.148
Mof_H 	H 	0.8265	0.3143	0.5132	0.134
Mof_H 	H 	0.0312	0.4242	0.501	0.132
Mof_H 	H 	0.0039	0.3807	0.5192	0.148
Mof_H 	H 	0.0486	0.4419	0.5377	0.149
Mof_H 	H 	0.1525	0.6202	0.0951	0.122
Mof_H 	H 	0.2136	0.6598	0.1018	0.132
Mof_H 	H 	0.169	0.6036	0.1104	0.128
Mof_H 	H 	0.1328	0.5156	0.9826	0.119
Mof_H 	H 	0.1854	0.5475	0.0063	0.139
Mof_H 	H 	0.1908	0.5787	0.9869	0.137
Mof_H 	H 	0.5919	0.7685	0.4858	0.125
Mof_H 	H 	0.5778	0.7246	0.493	0.14
Mof_H 	H 	0.53	0.7067	0.4791	0.137
Mof_H 	H 	0.53	0.6471	0.3587	0.141
Mof_H 	H 	0.5358	0.6265	0.3815	0.147
Mof_H 	H 	0.5883	0.6823	0.374	0.131
Mof_H 	H 	0.2396	0.4225	0.1281	0.128
Mof_H 	H 	0.2706	0.4714	0.1144	0.144
Mof_H 	H 	0.241	0.4578	0.1396	0.14
Mof_H 	H 	0.4643	0.6175	0.2226	0.121
Mof_H 	H 	0.4539	0.6428	0.2167	0.138
Mof_H 	H 	0.4746	0.6383	0.1929	0.136
Mof_H 	H 	0.7476	0.0061	0.4097	0.125
Mof_H 	H 	0.7696	0.0464	0.4398	0.141
Mof_H 	H 	0.7148	0.008	0.4144	0.138
Mof_H 	H 	0.6102	0.8563	0.4921	0.133
Mof_H 	H 	0.6489	0.914	0.5133	0.146
Mof_H 	H 	0.6709	0.8995	0.5108	0.135
Mof_H 	H 	0.5038	0.1146	0.6774	0.125
Mof_H 	H 	0.4699	0.087	0.6423	0.142
Mof_H 	H 	0.5051	0.1445	0.66	0.142
Mof_H 	H 	0.2895	0.9955	0.6814	0.127
Mof_H 	H 	0.334	0.0563	0.7009	0.132
Mof_H 	H 	0.3152	0.0395	0.6643	0.138
Mof_H 	H 	0.4663	0.215	0.7011	0.127
Mof_H 	H 	0.4024	0.1562	0.6938	0.142
Mof_H 	H 	0.444	0.1665	0.7091	0.144
Mof_H 	H 	0.4012	0.0863	0.5767	0.142
Mof_H 	H 	0.4543	0.1141	0.5952	0.135
Mof_H 	H 	0.3967	0.0594	0.6003	0.15
Mof_H 	H 	0.4469	0.9706	0.8059	0.133
Mof_H 	H 	0.4755	0.9651	0.797	0.145
Mof_H 	H 	0.5109	0.0202	0.8197	0.143
Mof_H 	H 	0.5303	0.0785	0.7014	0.128
Mof_H 	H 	0.5858	0.1237	0.7281	0.142
Mof_H 	H 	0.5609	0.0735	0.7076	0.145
Mof_H 	H 	0.7198	0.51	0.595	0.128
Mof_H 	H 	0.7496	0.5148	0.5744	0.145
Mof_H 	H 	0.7235	0.4783	0.5976	0.142
Mof_H 	H 	0.9513	0.6843	0.678	0.146
Mof_H 	H 	0.9151	0.6559	0.7014	0.136
Mof_H 	H 	0.918	0.6282	0.6812	0.149
Mof_H 	H 	0.816	0.5246	0.7166	0.136
Mof_H 	H 	0.8266	0.5626	0.702	0.148
Mof_H 	H 	0.7659	0.5022	0.6997	0.137
Mof_H 	H 	0.8094	0.4728	0.5864	0.129
Mof_H 	H 	0.7635	0.4587	0.5768	0.136
Mof_H 	H 	0.8259	0.5204	0.5879	0.139
Mof_H 	H 	0.819	0.7682	0.6174	0.129
Mof_H 	H 	0.8187	0.7674	0.5823	0.141
Mof_H 	H 	0.7666	0.735	0.5926	0.145
Mof_H 	H 	0.7016	0.5542	0.5566	0.124
Mof_H 	H 	0.6672	0.5386	0.5788	0.128
Mof_H 	H 	0.6571	0.5416	0.5455	0.132
Mof_H 	H 	0.338	0.7285	0.0391	0.154
Mof_H 	H 	0.2753	0.6837	0.0256	0.159
Mof_H 	H 	0.2989	0.6736	0.0137	0.143
Mof_H 	H 	0.2238	0.5654	0.1152	0.127
Mof_H 	H 	0.1808	0.5537	0.1003	0.141
Mof_H 	H 	0.2301	0.6039	0.13	0.138
Mof_H 	H 	0.3131	0.5973	0.1676	0.126
Mof_H 	H 	0.3116	0.5653	0.1819	0.141
Mof_H 	H 	0.2721	0.5376	0.1487	0.128
Mof_H 	H 	0.4555	0.6363	0.1062	0.121
Mof_H 	H 	0.4355	0.5978	0.1265	0.135
Mof_H 	H 	0.4853	0.6615	0.142	0.134
Mof_H 	H 	0.4927	0.692	0.0441	0.13
Mof_H 	H 	0.5221	0.7228	0.0187	0.145
Mof_H 	H 	0.4602	0.6602	0.0086	0.14
Mof_H 	H 	0.4074	0.7441	0.0125	0.119
Mof_H 	H 	0.4077	0.7294	0.9795	0.137
Mof_H 	H 	0.4617	0.7897	0.002	0.134
Mof_H 	H 	0.9349	0.1444	0.6063	0.15
Mof_H 	H 	0.9958	0.1842	0.6116	0.159
Mof_H 	H 	0.96	0.1608	0.578	0.142
Mof_H 	H 	0.0677	0.3696	0.6193	0.125
Mof_H 	H 	0.1125	0.3828	0.6317	0.138
Mof_H 	H 	0.078	0.3686	0.6532	0.133
Mof_H 	H 	0.0003	0.3782	0.6101	0.118
Mof_H 	H 	0.003	0.41	0.594	0.131
Mof_H 	H 	0.026	0.3992	0.582	0.127
Mof_H 	H 	0.7919	0.1926	0.5021	0.117
Mof_H 	H 	0.8273	0.2433	0.4888	0.133
Mof_H 	H 	0.797	0.2313	0.5131	0.134
Mof_H 	H 	0.7212	0.0761	0.4851	0.127
Mof_H 	H 	0.6696	0.0115	0.4767	0.143
Mof_H 	H 	0.7123	0.0438	0.4571	0.142
Mof_H 	H 	0.826	0.0537	0.5461	0.12
Mof_H 	H 	0.7854	0.0058	0.5148	0.137
Mof_H 	H 	0.764	0.9958	0.5442	0.132
Mof_H 	H 	0.1239	0.2933	0.5732	0.13
Mof_H 	H 	0.0725	0.2354	0.5793	0.139
Mof_H 	H 	0.0691	0.2655	0.5696	0.147
Mof_H 	H 	0.1329	0.3452	0.7063	0.125
Mof_H 	H 	0.1483	0.3863	0.692	0.126
Mof_H 	H 	0.0861	0.3253	0.686	0.136
Mof_H 	H 	0.2559	0.4628	0.7479	0.125
Mof_H 	H 	0.2707	0.4573	0.7778	0.143
Mof_H 	H 	0.3023	0.5137	0.7778	0.142
Mof_H 	H 	0.4555	0.5565	0.7384	0.126
Mof_H 	H 	0.4721	0.6029	0.734	0.13
Mof_H 	H 	0.4798	0.5995	0.7677	0.139
Mof_H 	H 	0.4461	0.5386	0.6567	0.124
Mof_H 	H 	0.4488	0.506	0.6494	0.137
Mof_H 	H 	0.4629	0.5396	0.6271	0.142
Mof_H 	H 	0.2255	0.3208	0.5645	0.143
Mof_H 	H 	0.2464	0.3635	0.5483	0.137
Mof_H 	H 	0.2669	0.3476	0.5447	0.151
Mof_H 	H 	0.6232	0.9252	0.916	0.135
Mof_H 	H 	0.6541	0.9705	0.8986	0.146
Mof_H 	H 	0.5915	0.9239	0.896	0.139
Mof_H 	H 	0.5884	0.8267	0.7919	0.143
Mof_H 	H 	0.5493	0.8203	0.7784	0.14
Mof_H 	H 	0.6136	0.8777	0.7859	0.152
Mof_H 	H 	0.4719	0.6899	0.7664	0.119
Mof_H 	H 	0.5077	0.6906	0.7689	0.126
Mof_H 	H 	0.4471	0.6394	0.7467	0.136
Mof_H 	H 	0.3986	0.5612	0.8592	0.145
Mof_H 	H 	0.3436	0.528	0.8382	0.142
Mof_H 	H 	0.3682	0.5187	0.8269	0.154
Mof_H 	H 	0.3943	0.6076	0.9263	0.119
Mof_H 	H 	0.4129	0.6232	0.9629	0.128
Mof_H 	H 	0.3672	0.6073	0.9465	0.132
Mof_H 	H 	0.5729	0.8519	0.9678	0.141
Mof_H 	H 	0.5213	0.8297	0.9642	0.133
Mof_H 	H 	0.5447	0.833	0.9949	0.147
Mof_H 	H 	0.53	0.9507	0.7459	0.134
Mof_H 	H 	0.4941	0.9492	0.7371	0.146
Mof_H 	H 	0.5037	0.9456	0.7703	0.134
Mof_H 	H 	0.6922	0.1874	0.8052	0.131
Mof_H 	H 	0.6363	0.1577	0.7934	0.144
Mof_H 	H 	0.6707	0.1764	0.7701	0.15
Mof_H 	H 	0.8252	0.2816	0.8262	0.135
Mof_H 	H 	0.8653	0.3277	0.8584	0.144
Mof_H 	H 	0.8012	0.2738	0.8536	0.131
Mof_H 	H 	0.854	0.1988	0.9034	0.123
Mof_H 	H 	0.8912	0.2547	0.9265	0.136
Mof_H 	H 	0.913	0.2552	0.9006	0.136
Mof_H 	H 	0.7768	0.061	0.8628	0.129
Mof_H 	H 	0.7328	0.0067	0.8733	0.141
Mof_H 	H 	0.7496	0.0535	0.8877	0.128
Mof_H 	H 	0.5571	0.919	0.7827	0.132
Mof_H 	H 	0.5419	0.8781	0.7972	0.15
Mof_H 	H 	0.5663	0.8944	0.7685	0.153
Mof_H 	H 	0.3786	0.4978	0.5182	0.135
Mof_H 	H 	0.3514	0.4783	0.5457	0.152
Mof_H 	H 	0.3233	0.4345	0.5152	0.153
Mof_H 	H 	0.4472	0.441	0.5812	0.125
Mof_H 	H 	0.4095	0.4248	0.6005	0.134
Mof_H 	H 	0.472	0.4864	0.6086	0.131
Mof_H 	H 	0.5831	0.5437	0.5934	0.124
Mof_H 	H 	0.6392	0.5732	0.603	0.14
Mof_H 	H 	0.5886	0.5163	0.5771	0.134
Mof_H 	H 	0.6909	0.6586	0.4933	0.136
Mof_H 	H 	0.7351	0.6761	0.5152	0.147
Mof_H 	H 	0.7317	0.7077	0.524	0.137
Mof_H 	H 	0.6437	0.6794	0.4563	0.122
Mof_H 	H 	0.6495	0.7172	0.4481	0.139
Mof_H 	H 	0.6174	0.6663	0.4221	0.135
Mof_H 	H 	0.4251	0.5506	0.4633	0.122
Mof_H 	H 	0.4414	0.5847	0.4405	0.135
Mof_H 	H 	0.467	0.6123	0.4767	0.131
Mof_Ag	Ag	0.9948	0.06108	0.51842	0.416
Mof_Ag	Ag	0.92183	0.93817	0.51136	0.338
Mof_Ag	Ag	0.49623	0.54309	0.02286	0.336
Mof_Ag	Ag	0.87879	0.17327	0.06534	0.324
Mof_Ag	Ag	0.90008	0.23237	0.13209	0.354
Mof_Ag	Ag	0.78222	0.16614	0.27658	0.411
Mof_Ag	Ag	0.82055	0.72674	0.78727	0.397
Mof_Ag	Ag	0.75965	0.61022	0.77247	0.324
Mof_Ag	Ag	0.7033	0.62112	0.72972	0.367
Mof_Ag	Ag	0.52004	0.18919	0.88957	0.329
Mof_Ag	Ag	0.55664	0.25061	0.83627	0.346
Mof_Ag	Ag	0.62419	0.2439	0.86395	0.414
Mof_Ag	Ag	0.14519	0.32605	0.43738	0.335
Mof_Ag	Ag	0.02799	0.22599	0.38546	0.345
Mof_Ag	Ag	0.09662	0.35098	0.41288	0.413
Mof_Ag	Ag	0.07767	0.30137	0.92798	0.36
Mof_Ag	Ag	0.17966	0.35268	0.90776	0.312
Mof_Ag	Ag	0.12539	0.27833	0.96016	0.404
Mof_Ag	Ag	0.23622	0.60089	0.87671	0.365
Mof_Ag	Ag	0.21104	0.54503	0.80595	0.395
Mof_Ag	Ag	0.29041	0.67125	0.82106	0.317
Mof_Ag	Ag	0.40118	0.63366	0.60102	0.356
Mof_Ag	Ag	0.41613	0.68244	0.66849	0.352
Mof_Ag	Ag	0.28716	0.56839	0.61913	0.371
Mof_Ag	Ag	0.74299	0.85589	0.71164	0.366
Mof_Ag	Ag	0.85067	0.92515	0.69138	0.349
Mof_Ag	Ag	0.78063	0.92639	0.65894	0.385
Mof_Ag	Ag	0.53247	0.9649	0.00251	0.397
Mof_Ag	Ag	0.48077	0.97591	0.95858	0.309
Mof_Ag	Ag	0.60808	0.09082	0.00776	0.372
Mof_N 	N 	0.95716	0.02336	0.55212	-0.199
Mof_N 	N 	0.93102	0.97524	0.54926	-0.202
Mof_N 	N 	0.3953	0.42351	0.99141	-0.21
Mof_N 	N 	0.41802	0.46974	0.99436	-0.208
Mof_N 	N 	0.01671	0.07101	0.45632	-0.2
Mof_N 	N 	0.02435	0.09576	0.48251	-0.202
Mof_N 	N 	0.81741	0.14894	0.07195	-0.21
Mof_N 	N 	0.8261	0.17348	0.09938	-0.2
Mof_N 	N 	0.8009	0.13834	0.32364	-0.201
Mof_N 	N 	0.82461	0.16997	0.30398	-0.203
Mof_N 	N 	0.99264	0.24663	0.07447	-0.2
Mof_N 	N 	0.94153	0.20262	0.05455	-0.205
Mof_N 	N 	0.85889	0.72438	0.81107	-0.201
Mof_N 	N 	0.83305	0.67581	0.80546	-0.204
Mof_N 	N 	0.04564	0.80819	0.85623	-0.212
Mof_N 	N 	0.04982	0.83022	0.88244	-0.208
Mof_N 	N 	0.74285	0.69436	0.73841	-0.206
Mof_N 	N 	0.7913	0.73662	0.76092	-0.207
Mof_N 	N 	0.4825	0.19637	0.87527	-0.208
Mof_N 	N 	0.49594	0.21959	0.85193	-0.209
Mof_N 	N 	0.29674	0.11556	0.8347	-0.207
Mof_N 	N 	0.31481	0.14341	0.86402	-0.204
Mof_N 	N 	0.59656	0.2012	0.89656	-0.198
Mof_N 	N 	0.55549	0.1804	0.90549	-0.203
Mof_N 	N 	0.10255	0.2514	0.42755	-0.21
Mof_N 	N 	0.05301	0.20861	0.40602	-0.208
Mof_N 	N 	0.99787	0.23989	0.36856	-0.203
Mof_N 	N 	0.02284	0.28753	0.37817	-0.2
Mof_N 	N 	0.16498	0.40798	0.45116	-0.2
Mof_N 	N 	0.18675	0.39925	0.457	-0.198
Mof_N 	N 	0.11692	0.35531	0.90183	-0.2
Mof_N 	N 	0.15776	0.37533	0.89269	-0.205
Mof_N 	N 	0.21285	0.34336	0.92861	-0.201
Mof_N 	N 	0.19398	0.31678	0.95096	-0.197
Mof_N 	N 	0.06538	0.25134	0.97492	-0.201
Mof_N 	N 	0.04457	0.25786	0.96023	-0.199
Mof_N 	N 	0.19414	0.52584	0.86758	-0.2
Mof_N 	N 	0.18627	0.50524	0.83891	-0.204
Mof_N 	N 	0.24394	0.58537	0.77291	-0.2
Mof_N 	N 	0.27475	0.63591	0.77806	-0.201
Mof_N 	N 	0.31022	0.70798	0.865	-0.208
Mof_N 	N 	0.28884	0.68096	0.8868	-0.201
Mof_N 	N 	0.47844	0.70154	0.63118	-0.21
Mof_N 	N 	0.48315	0.71953	0.65968	-0.211
Mof_N 	N 	0.35127	0.64598	0.68085	-0.21
Mof_N 	N 	0.29934	0.60136	0.6617	-0.205
Mof_N 	N 	0.27855	0.53704	0.57739	-0.205
Mof_N 	N 	0.32481	0.56608	0.57029	-0.208
Mof_N 	N 	0.77699	0.84448	0.72527	-0.205
Mof_N 	N 	0.82173	0.87319	0.71652	-0.202
Mof_N 	N 	0.87423	0.96549	0.65832	-0.21
Mof_N 	N 	0.84406	0.96282	0.64308	-0.201
Mof_N 	N 	0.71025	0.87867	0.67072	-0.206
Mof_N 	N 	0.69725	0.85288	0.69253	-0.203
Mof_N 	N 	0.45774	0.89536	0.9701	-0.2
Mof_N 	N 	0.43597	0.90004	0.95301	-0.203
Mof_N 	N 	0.52698	0.05101	0.95779	-0.207
Mof_N 	N 	0.57848	0.09688	0.97656	-0.2
Mof_N 	N 	0.64118	0.08465	0.03443	-0.201
Mof_N 	N 	0.61205	0.03452	0.03017	-0.203
Mof_C 	C 	0.96861	0.08125	0.58286	-0.481
Mof_C 	C 	0.94631	0.03172	0.57463	0.161
Mof_C 	C 	0.91273	0.98868	0.58761	-0.114
Mof_C 	C 	0.90403	0.95401	0.57084	0.159
Mof_C 	C 	0.86977	0.90021	0.57318	-0.479
Mof_C 	C 	0.30681	0.32499	0.9682	-0.505
Mof_C 	C 	0.34297	0.38159	0.97656	0.171
Mof_C 	C 	0.33034	0.40043	0.96957	-0.128
Mof_C 	C 	0.37994	0.45701	0.98135	0.176
Mof_C 	C 	0.39336	0.49927	0.98083	-0.512
Mof_C 	C 	0.02622	0.07976	0.40438	-0.475
Mof_C 	C 	0.02971	0.09724	0.43555	0.16
Mof_C 	C 	0.04535	0.13843	0.44798	-0.119
Mof_C 	C 	0.04192	0.13665	0.47797	0.164
Mof_C 	C 	0.0529	0.1703	0.5026	-0.482
Mof_C 	C 	0.75156	0.08739	0.02095	-0.484
Mof_C 	C 	0.7712	0.11871	0.05291	0.161
Mof_C 	C 	0.74823	0.12216	0.06699	-0.122
Mof_C 	C 	0.78447	0.15777	0.09624	0.17
Mof_C 	C 	0.78125	0.17597	0.12282	-0.494
Mof_C 	C 	0.82608	0.12877	0.36725	-0.502
Mof_C 	C 	0.83921	0.1548	0.34281	0.171
Mof_C 	C 	0.88736	0.19686	0.33482	-0.124
Mof_C 	C 	0.87665	0.20519	0.31064	0.168
Mof_C 	C 	0.91391	0.2448	0.29311	-0.482
Mof_C 	C 	0.08598	0.31224	0.07522	-0.489
Mof_C 	C 	0.02709	0.26442	0.05931	0.169
Mof_C 	C 	0.99865	0.23248	0.02893	-0.12
Mof_C 	C 	0.94448	0.19351	0.02679	0.165
Mof_C 	C 	0.89539	0.14802	0.00041	-0.496
Mof_C 	C 	0.94726	0.82049	0.83795	-0.49
Mof_C 	C 	0.90937	0.76286	0.82823	0.176
Mof_C 	C 	0.91769	0.74081	0.8341	-0.125
Mof_C 	C 	0.8686	0.68576	0.81956	0.165
Mof_C 	C 	0.85191	0.64065	0.81816	-0.487
Mof_C 	C 	0.98137	0.74268	0.80545	-0.497
Mof_C 	C 	0.99737	0.77233	0.8365	0.162
Mof_C 	C 	0.96949	0.77064	0.84953	-0.125
Mof_C 	C 	0.00493	0.80812	0.87845	0.177
Mof_C 	C 	0.99744	0.82332	0.90376	-0.51
Mof_C 	C 	0.68825	0.67809	0.69834	-0.504
Mof_C 	C 	0.73607	0.71393	0.725	0.176
Mof_C 	C 	0.77999	0.76909	0.73868	-0.126
Mof_C 	C 	0.81446	0.7822	0.76086	0.173
Mof_C 	C 	0.86777	0.83503	0.7828	-0.504
Mof_C 	C 	0.41715	0.14805	0.9056	-0.491
Mof_C 	C 	0.44061	0.176	0.88081	0.164
Mof_C 	C 	0.42565	0.18585	0.8609	-0.124
Mof_C 	C 	0.46231	0.21357	0.84308	0.171
Mof_C 	C 	0.46805	0.23628	0.81853	-0.509
Mof_C 	C 	0.32558	0.10239	0.80037	-0.504
Mof_C 	C 	0.33452	0.12819	0.82971	0.168
Mof_C 	C 	0.37833	0.16527	0.8564	-0.12
Mof_C 	C 	0.36324	0.17305	0.87709	0.168
Mof_C 	C 	0.39364	0.20821	0.90925	-0.494
Mof_C 	C 	0.64998	0.20044	0.90382	-0.494
Mof_C 	C 	0.60635	0.18401	0.90956	0.169
Mof_C 	C 	0.57143	0.15119	0.92722	-0.12
Mof_C 	C 	0.54003	0.15038	0.92381	0.158
Mof_C 	C 	0.49447	0.12139	0.93686	-0.479
Mof_C 	C 	0.15801	0.26968	0.46849	-0.531
Mof_C 	C 	0.10741	0.23227	0.44408	0.185
Mof_C 	C 	0.06018	0.17598	0.43356	-0.128
Mof_C 	C 	0.02684	0.16244	0.40928	0.162
Mof_C 	C 	0.97134	0.10826	0.3892	-0.486
Mof_C 	C 	0.90899	0.14529	0.33708	-0.477
Mof_C 	C 	0.94706	0.20221	0.35167	0.155
Mof_C 	C 	0.93822	0.225	0.35002	-0.112
Mof_C 	C 	0.9878	0.2789	0.3671	0.161
Mof_C 	C 	0.00359	0.32409	0.37368	-0.478
Mof_C 	C 	0.17114	0.46369	0.47603	-0.506
Mof_C 	C 	0.18591	0.44497	0.47508	0.174
Mof_C 	C 	0.2224	0.4601	0.4979	-0.119
Mof_C 	C 	0.22128	0.43074	0.48542	0.158
Mof_C 	C 	0.25011	0.42815	0.49906	-0.475
Mof_C 	C 	0.07366	0.36804	0.9001	-0.527
Mof_C 	C 	0.11508	0.38189	0.89437	0.184
Mof_C 	C 	0.15564	0.41977	0.88021	-0.123
Mof_C 	C 	0.18139	0.41437	0.87956	0.157
Mof_C 	C 	0.22868	0.44474	0.86782	-0.482
Mof_C 	C 	0.29375	0.40726	0.90941	-0.466
Mof_C 	C 	0.26273	0.3742	0.93153	0.148
Mof_C 	C 	0.27751	0.36935	0.95586	-0.112
Mof_C 	C 	0.2325	0.33234	0.96744	0.161
Mof_C 	C 	0.22311	0.30914	0.99305	-0.468
Mof_C 	C 	0.06738	0.23036	0.02234	-0.497
Mof_C 	C 	0.05173	0.2407	0.00123	0.171
Mof_C 	C 	0.02124	0.24034	0.00358	-0.119
Mof_C 	C 	0.0175	0.25113	0.97723	0.158
Mof_C 	C 	0.98954	0.25581	0.96715	-0.473
Mof_C 	C 	0.18939	0.51139	0.91878	-0.501
Mof_C 	C 	0.1836	0.49756	0.88596	0.169
Mof_C 	C 	0.16944	0.45878	0.86882	-0.12
Mof_C 	C 	0.17089	0.46459	0.83968	0.161
Mof_C 	C 	0.15991	0.43427	0.81138	-0.479
Mof_C 	C 	0.21645	0.52005	0.7347	-0.489
Mof_C 	C 	0.24545	0.57291	0.74616	0.173
Mof_C 	C 	0.2787	0.61661	0.73371	-0.118
Mof_C 	C 	0.29648	0.65558	0.75466	0.157
Mof_C 	C 	0.33188	0.71047	0.75355	-0.484
Mof_C 	C 	0.37692	0.79947	0.85959	-0.487
Mof_C 	C 	0.3463	0.75965	0.87795	0.156
Mof_C 	C 	0.34946	0.76715	0.90901	-0.122
Mof_C 	C 	0.3122	0.71621	0.91361	0.175
Mof_C 	C 	0.29516	0.6978	0.94136	-0.509
Mof_C 	C 	0.53476	0.72196	0.60252	-0.503
Mof_C 	C 	0.52748	0.73365	0.63013	0.173
Mof_C 	C 	0.56475	0.77331	0.65826	-0.133
Mof_C 	C 	0.53517	0.76299	0.67596	0.184
Mof_C 	C 	0.55241	0.792	0.70761	-0.515
Mof_C 	C 	0.40141	0.70471	0.73372	-0.471
Mof_C 	C 	0.34977	0.65794	0.70791	0.158
Mof_C 	C 	0.29666	0.62082	0.70688	-0.124
Mof_C 	C 	0.2665	0.58612	0.67722	0.181
Mof_C 	C 	0.2075	0.53903	0.66193	-0.514
Mof_C 	C 	0.17977	0.45519	0.55436	-0.465
Mof_C 	C 	0.23684	0.49669	0.55253	0.156
Mof_C 	C 	0.25524	0.49902	0.52886	-0.122
Mof_C 	C 	0.31063	0.54279	0.54142	0.173
Mof_C 	C 	0.35329	0.5657	0.52739	-0.5
Mof_C 	C 	0.70806	0.76646	0.74632	-0.497
Mof_C 	C 	0.75617	0.80387	0.73444	0.165
Mof_C 	C 	0.78819	0.80579	0.73138	-0.117
Mof_C 	C 	0.82826	0.84979	0.71985	0.17
Mof_C 	C 	0.8742	0.87192	0.71212	-0.499
Mof_C 	C 	0.94001	0.9829	0.65151	-0.5
Mof_C 	C 	0.90227	0.97577	0.64044	0.169
Mof_C 	C 	0.89215	0.98106	0.61361	-0.121
Mof_C 	C 	0.8561	0.97326	0.61656	0.164
Mof_C 	C 	0.83136	0.97543	0.59459	-0.476
Mof_C 	C 	0.66568	0.8742	0.63088	-0.488
Mof_C 	C 	0.66547	0.85518	0.65585	0.162
Mof_C 	C 	0.62267	0.81347	0.66794	-0.119
Mof_C 	C 	0.64521	0.8143	0.69131	0.174
Mof_C 	C 	0.61989	0.77985	0.71254	-0.508
Mof_C 	C 	0.44101	0.82868	0.97069	-0.523
Mof_C 	C 	0.42854	0.84665	0.95739	0.187
Mof_C 	C 	0.38791	0.81972	0.93163	-0.126
Mof_C 	C 	0.39378	0.85485	0.92983	0.163
Mof_C 	C 	0.36115	0.84768	0.90803	-0.482
Mof_C 	C 	0.4648	0.02167	0.91407	-0.48
Mof_C 	C 	0.51801	0.06416	0.93817	0.155
Mof_C 	C 	0.5648	0.12042	0.94382	-0.12
Mof_C 	C 	0.60152	0.13912	0.96804	0.173
Mof_C 	C 	0.65764	0.19591	0.98535	-0.498
Mof_C 	C 	0.73614	0.18177	0.05611	-0.479
Mof_C 	C 	0.69346	0.12259	0.04845	0.157
Mof_C 	C 	0.69881	0.09716	0.05377	-0.112
Mof_C 	C 	0.64647	0.04189	0.04156	0.162
Mof_C 	C 	0.62667	0.99469	0.04016	-0.482
Mof_H 	H 	0.9921	0.1048	0.5701	0.122
Mof_H 	H 	0.9896	0.1009	0.6045	0.14
Mof_H 	H 	0.9386	0.0701	0.5793	0.137
Mof_H 	H 	0.8735	0.8869	0.5586	0.122
Mof_H 	H 	0.8319	0.8746	0.5685	0.135
Mof_H 	H 	0.8816	0.9039	0.5941	0.135
Mof_H 	H 	0.3237	0.3235	0.958	0.146
Mof_H 	H 	0.2718	0.3009	0.9543	0.148
Mof_H 	H 	0.3011	0.3133	0.9868	0.134
Mof_H 	H 	0.4232	0.5302	0.999	0.132
Mof_H 	H 	0.3615	0.4847	0.9808	0.148
Mof_H 	H 	0.4042	0.5109	0.9623	0.149
Mof_H 	H 	0.0251	0.0574	0.4049	0.123
Mof_H 	H 	0.058	0.1118	0.3982	0.134
Mof_H 	H 	0.9932	0.0586	0.3896	0.13
Mof_H 	H 	0.033	0.1502	0.5174	0.118
Mof_H 	H 	0.0412	0.1791	0.4937	0.139
Mof_H 	H 	0.0918	0.2039	0.5131	0.137
Mof_H 	H 	0.7827	0.1061	0.0142	0.125
Mof_H 	H 	0.7316	0.0848	0.007	0.14
Mof_H 	H 	0.7276	0.0509	0.0209	0.137
Mof_H 	H 	0.7884	0.1713	0.1413	0.141
Mof_H 	H 	0.745	0.1543	0.1185	0.147
Mof_H 	H 	0.8083	0.2143	0.126	0.131
Mof_H 	H 	0.7944	0.1115	0.3719	0.128
Mof_H 	H 	0.857	0.1562	0.3856	0.145
Mof_H 	H 	0.8182	0.1014	0.3604	0.14
Mof_H 	H 	0.8949	0.2417	0.2774	0.121
Mof_H 	H 	0.9261	0.2372	0.2833	0.138
Mof_H 	H 	0.9454	0.2817	0.3071	0.136
Mof_H 	H 	0.0964	0.3379	0.0903	0.125
Mof_H 	H 	0.1066	0.3298	0.0602	0.14
Mof_H 	H 	0.0936	0.3004	0.0856	0.137
Mof_H 	H 	0.8642	0.1181	0.0079	0.133
Mof_H 	H 	0.9007	0.1356	0.9867	0.146
Mof_H 	H 	0.8887	0.1601	0.9892	0.135
Mof_H 	H 	0.9372	0.8264	0.8226	0.125
Mof_H 	H 	0.9447	0.8276	0.8577	0.141
Mof_H 	H 	0.9845	0.8451	0.84	0.141
Mof_H 	H 	0.8141	0.6081	0.8186	0.126
Mof_H 	H 	0.8554	0.6331	0.7991	0.132
Mof_H 	H 	0.8752	0.6509	0.8357	0.137
Mof_H 	H 	0.0139	0.7652	0.7989	0.129
Mof_H 	H 	0.9624	0.7086	0.8062	0.143
Mof_H 	H 	0.9574	0.7349	0.7909	0.145
Mof_H 	H 	0.0096	0.8245	0.9233	0.145
Mof_H 	H 	0.0189	0.8591	0.9048	0.138
Mof_H 	H 	0.9591	0.7964	0.8997	0.153
Mof_H 	H 	0.6647	0.641	0.6941	0.133
Mof_H 	H 	0.6681	0.6785	0.703	0.145
Mof_H 	H 	0.7005	0.6912	0.6803	0.143
Mof_H 	H 	0.8771	0.8289	0.7986	0.128
Mof_H 	H 	0.8956	0.8577	0.7719	0.142
Mof_H 	H 	0.8659	0.8533	0.7924	0.145
Mof_H 	H 	0.415	0.1248	0.905	0.128
Mof_H 	H 	0.4404	0.1752	0.9256	0.145
Mof_H 	H 	0.3807	0.1259	0.9024	0.142
Mof_H 	H 	0.5063	0.2733	0.822	0.146
Mof_H 	H 	0.4545	0.2137	0.7986	0.137
Mof_H 	H 	0.447	0.2368	0.8188	0.149
Mof_H 	H 	0.308	0.0994	0.7834	0.136
Mof_H 	H 	0.3606	0.1246	0.798	0.148
Mof_H 	H 	0.3025	0.0662	0.8003	0.136
Mof_H 	H 	0.3864	0.223	0.9136	0.129
Mof_H 	H 	0.3819	0.1867	0.9232	0.136
Mof_H 	H 	0.4325	0.238	0.9121	0.139
Mof_H 	H 	0.6508	0.2016	0.8826	0.129
Mof_H 	H 	0.6851	0.2364	0.9177	0.142
Mof_H 	H 	0.6424	0.174	0.9074	0.145
Mof_H 	H 	0.4976	0.145	0.9434	0.124
Mof_H 	H 	0.4598	0.0884	0.9212	0.128
Mof_H 	H 	0.4961	0.1116	0.9545	0.132
Mof_H 	H 	0.1894	0.2989	0.4609	0.154
Mof_H 	H 	0.1581	0.2497	0.4744	0.159
Mof_H 	H 	0.1599	0.2852	0.4863	0.143
Mof_H 	H 	0.9502	0.1086	0.3848	0.127
Mof_H 	H 	0.9534	0.0805	0.3997	0.141
Mof_H 	H 	0.9739	0.1001	0.37	0.138
Mof_H 	H 	0.9297	0.1455	0.3324	0.126
Mof_H 	H 	0.8834	0.1297	0.3181	0.141
Mof_H 	H 	0.8889	0.1234	0.3513	0.128
Mof_H 	H 	0.0301	0.3493	0.3938	0.122
Mof_H 	H 	0.9713	0.309	0.3735	0.136
Mof_H 	H 	0.0195	0.3433	0.358	0.135
Mof_H 	H 	0.1479	0.4486	0.4559	0.13
Mof_H 	H 	0.2041	0.5034	0.4813	0.145
Mof_H 	H 	0.1516	0.4516	0.4914	0.14
Mof_H 	H 	0.2316	0.3949	0.4875	0.119
Mof_H 	H 	0.2499	0.4282	0.5205	0.137
Mof_H 	H 	0.2877	0.4597	0.498	0.134
Mof_H 	H 	0.0381	0.3286	0.8937	0.15
Mof_H 	H 	0.0726	0.3842	0.8884	0.158
Mof_H 	H 	0.0828	0.382	0.922	0.142
Mof_H 	H 	0.2503	0.4484	0.8807	0.125
Mof_H 	H 	0.2511	0.4808	0.8683	0.138
Mof_H 	H 	0.2154	0.4248	0.8468	0.133
Mof_H 	H 	0.2681	0.3902	0.8899	0.119
Mof_H 	H 	0.316	0.409	0.906	0.132
Mof_H 	H 	0.3172	0.444	0.918	0.128
Mof_H 	H 	0.1905	0.2898	0.9979	0.118
Mof_H 	H 	0.2545	0.3385	0.0112	0.133
Mof_H 	H 	0.2182	0.2839	0.9869	0.134
Mof_H 	H 	0.091	0.2361	0.0149	0.127
Mof_H 	H 	0.0348	0.1929	0.0233	0.143
Mof_H 	H 	0.0867	0.2552	0.0429	0.142
Mof_H 	H 	0.0076	0.2799	0.9539	0.119
Mof_H 	H 	0.991	0.2706	0.9852	0.137
Mof_H 	H 	0.9516	0.2198	0.9558	0.132
Mof_H 	H 	0.2201	0.5507	0.9268	0.13
Mof_H 	H 	0.1561	0.4932	0.9207	0.139
Mof_H 	H 	0.1959	0.4995	0.9304	0.147
Mof_H 	H 	0.1389	0.4266	0.7937	0.126
Mof_H 	H 	0.1943	0.4563	0.808	0.126
Mof_H 	H 	0.1393	0.4001	0.814	0.136
Mof_H 	H 	0.2149	0.508	0.7521	0.125
Mof_H 	H 	0.1795	0.4929	0.7222	0.143
Mof_H 	H 	0.2359	0.5245	0.7222	0.142
Mof_H 	H 	0.3181	0.7171	0.7616	0.126
Mof_H 	H 	0.3689	0.7381	0.766	0.13
Mof_H 	H 	0.3318	0.7121	0.7323	0.139
Mof_H 	H 	0.3819	0.7894	0.8433	0.124
Mof_H 	H 	0.3566	0.7994	0.8506	0.137
Mof_H 	H 	0.4125	0.8358	0.8729	0.142
Mof_H 	H 	0.2563	0.661	0.9355	0.143
Mof_H 	H 	0.3152	0.6981	0.9517	0.137
Mof_H 	H 	0.3029	0.7222	0.9553	0.151
Mof_H 	H 	0.5092	0.7072	0.584	0.135
Mof_H 	H 	0.5719	0.7555	0.6014	0.146
Mof_H 	H 	0.5279	0.6955	0.604	0.139
Mof_H 	H 	0.5348	0.7965	0.7081	0.143
Mof_H 	H 	0.5419	0.7709	0.7216	0.14
Mof_H 	H 	0.5918	0.8277	0.7141	0.152
Mof_H 	H 	0.4235	0.7055	0.7336	0.119
Mof_H 	H 	0.4217	0.7388	0.7311	0.126
Mof_H 	H 	0.3927	0.7004	0.7533	0.136
Mof_H 	H 	0.202	0.5394	0.6408	0.145
Mof_H 	H 	0.1898	0.5054	0.6618	0.142
Mof_H 	H 	0.1918	0.5413	0.6731	0.154
Mof_H 	H 	0.1813	0.468	0.5737	0.119
Mof_H 	H 	0.1603	0.45	0.5371	0.128
Mof_H 	H 	0.1608	0.4207	0.5535	0.132
Mof_H 	H 	0.3841	0.6051	0.5322	0.141
Mof_H 	H 	0.3655	0.5571	0.5358	0.133
Mof_H 	H 	0.3381	0.5498	0.5051	0.147
Mof_H 	H 	0.7048	0.7841	0.7541	0.134
Mof_H 	H 	0.7121	0.757	0.7629	0.146
Mof_H 	H 	0.6753	0.7334	0.7297	0.134
Mof_H 	H 	0.8822	0.887	0.6948	0.131
Mof_H 	H 	0.8643	0.8429	0.7066	0.144
Mof_H 	H 	0.9063	0.9006	0.7299	0.15
Mof_H 	H 	0.9554	0.999	0.6738	0.136
Mof_H 	H 	0.9693	0.0069	0.6416	0.146
Mof_H 	H 	0.9202	0.9476	0.6464	0.132
Mof_H 	H 	0.7954	0.9506	0.5966	0.123
Mof_H 	H 	0.8282	0.9647	0.5735	0.136
Mof_H 	H 	0.8546	0.0124	0.5994	0.138
Mof_H 	H 	0.6982	0.914	0.6372	0.129
Mof_H 	H 	0.6334	0.8595	0.6267	0.141
Mof_H 	H 	0.6658	0.8619	0.6123	0.128
Mof_H 	H 	0.6363	0.7744	0.7173	0.132
Mof_H 	H 	0.5809	0.7447	0.7028	0.15
Mof_H 	H 	0.6259	0.7978	0.7315	0.153
Mof_H 	H 	0.4796	0.8604	0.9818	0.135
Mof_H 	H 	0.4326	0.8057	0.9543	0.152
Mof_H 	H 	0.4193	0.8081	0.9848	0.153
Mof_H 	H 	0.3598	0.866	0.9188	0.125
Mof_H 	H 	0.3243	0.809	0.8995	0.134
Mof_H 	H 	0.3778	0.8634	0.8914	0.131
Mof_H 	H 	0.4503	0.9897	0.9066	0.125
Mof_H 	H 	0.4702	0.0362	0.897	0.14
Mof_H 	H 	0.4392	0.0115	0.9229	0.134
Mof_H 	H 	0.6653	0.1976	0.0067	0.136
Mof_H 	H 	0.6609	0.2199	0.9848	0.147
Mof_H 	H 	0.6837	0.2077	0.976	0.137
Mof_H 	H 	0.7231	0.1874	0.0437	0.123
Mof_H 	H 	0.7691	0.2014	0.0519	0.139
Mof_H 	H 	0.7442	0.1953	0.0779	0.135
Mof_H 	H 	0.5873	0.9618	0.0367	0.123
Mof_H 	H 	0.6442	0.0009	0.0595	0.136
Mof_H 	H 	0.6356	0.9903	0.0233	0.131
Mof_Ag	Ag	0.97638	0.4948	0.43372	0.413
Mof_Ag	Ag	0.91047	0.42183	0.48366	0.338
Mof_Ag	Ag	0.97337	0.99623	0.45314	0.335
Mof_Ag	Ag	0.31345	0.37879	0.20552	0.323
Mof_Ag	Ag	0.26799	0.40008	0.16771	0.354
Mof_Ag	Ag	0.00564	0.28222	0.11608	0.409
Mof_Ag	Ag	0.53328	0.32055	0.59381	0.397
Mof_Ag	Ag	0.48718	0.25965	0.64943	0.324
Mof_Ag	Ag	0.47358	0.2033	0.58218	0.367
Mof_Ag	Ag	0.13047	0.02004	0.83085	0.328
Mof_Ag	Ag	0.22037	0.05664	0.80603	0.345
Mof_Ag	Ag	0.26024	0.12419	0.88029	0.414
Mof_Ag	Ag	0.20781	0.64519	0.31914	0.335
Mof_Ag	Ag	0.14253	0.52799	0.302	0.346
Mof_Ag	Ag	0.18374	0.59662	0.24564	0.413
Mof_Ag	Ag	0.64969	0.57767	0.2763	0.36
Mof_Ag	Ag	0.7719	0.67966	0.32698	0.312
Mof_Ag	Ag	0.66523	0.62539	0.34706	0.404
Mof_Ag	Ag	0.85951	0.73622	0.13533	0.365
Mof_Ag	Ag	0.90509	0.71104	0.16601	0.395
Mof_Ag	Ag	0.96935	0.79041	0.11916	0.317
Mof_Ag	Ag	0.30016	0.90118	0.26752	0.356
Mof_Ag	Ag	0.24764	0.91613	0.23369	0.352
Mof_Ag	Ag	0.16803	0.78716	0.21877	0.371
Mof_Ag	Ag	0.53135	0.24299	0.3871	0.366
Mof_Ag	Ag	0.65929	0.35067	0.42552	0.35
Mof_Ag	Ag	0.62169	0.28063	0.35424	0.385
Mof_Ag	Ag	0.02996	0.03247	0.06757	0.397
Mof_Ag	Ag	0.02219	0.98077	0.00486	0.312
Mof_Ag	Ag	0.10032	0.10808	0.01726	0.371
Mof_N 	N 	0.90504	0.45716	0.4338	-0.199
Mof_N 	N 	0.88176	0.43102	0.45578	-0.201
Mof_N 	N 	0.90389	0.8953	0.47179	-0.21
Mof_N 	N 	0.92366	0.91802	0.44828	-0.208
Mof_N 	N 	0.06039	0.51671	0.4457	-0.2
Mof_N 	N 	0.04184	0.52435	0.42859	-0.202
Mof_N 	N 	0.24546	0.31741	0.16847	-0.21
Mof_N 	N 	0.22672	0.3261	0.15262	-0.2
Mof_N 	N 	0.97726	0.3009	0.16256	-0.201
Mof_N 	N 	0.02063	0.32461	0.15464	-0.203
Mof_N 	N 	0.41817	0.49264	0.24601	-0.201
Mof_N 	N 	0.38698	0.44153	0.23891	-0.205
Mof_N 	N 	0.54782	0.35889	0.63451	-0.201
Mof_N 	N 	0.52759	0.33305	0.65724	-0.205
Mof_N 	N 	0.68941	0.54564	0.73745	-0.212
Mof_N 	N 	0.66738	0.54982	0.7196	-0.207
Mof_N 	N 	0.50444	0.24285	0.54849	-0.206
Mof_N 	N 	0.53038	0.2913	0.55468	-0.207
Mof_N 	N 	0.10723	0.9825	0.78613	-0.208
Mof_N 	N 	0.14401	0.99594	0.77635	-0.209
Mof_N 	N 	0.96204	0.79674	0.68118	-0.208
Mof_N 	N 	0.95079	0.81481	0.6714	-0.204
Mof_N 	N 	0.2	0.09656	0.89536	-0.198
Mof_N 	N 	0.15	0.05549	0.87509	-0.202
Mof_N 	N 	0.175	0.60255	0.35115	-0.21
Mof_N 	N 	0.14699	0.55301	0.3444	-0.208
Mof_N 	N 	0.12931	0.49787	0.25798	-0.204
Mof_N 	N 	0.14467	0.52284	0.23531	-0.199
Mof_N 	N 	0.21382	0.66498	0.257	-0.2
Mof_N 	N 	0.22975	0.68675	0.2875	-0.198
Mof_N 	N 	0.71509	0.61692	0.26161	-0.2
Mof_N 	N 	0.76507	0.65776	0.28243	-0.205
Mof_N 	N 	0.78424	0.71285	0.36949	-0.201
Mof_N 	N 	0.74302	0.69398	0.3772	-0.197
Mof_N 	N 	0.59046	0.56538	0.31404	-0.201
Mof_N 	N 	0.58434	0.54457	0.28671	-0.199
Mof_N 	N 	0.82656	0.69414	0.1683	-0.2
Mof_N 	N 	0.84736	0.68627	0.18103	-0.204
Mof_N 	N 	0.97103	0.74394	0.15857	-0.2
Mof_N 	N 	0.99669	0.77475	0.13884	-0.201
Mof_N 	N 	0.94522	0.81022	0.10224	-0.208
Mof_N 	N 	0.90204	0.78884	0.10788	-0.201
Mof_N 	N 	0.34726	0.97844	0.2769	-0.209
Mof_N 	N 	0.32347	0.98315	0.26362	-0.21
Mof_N 	N 	0.17042	0.85127	0.20529	-0.211
Mof_N 	N 	0.13764	0.79934	0.19798	-0.205
Mof_N 	N 	0.20116	0.77855	0.24151	-0.205
Mof_N 	N 	0.25452	0.82481	0.25873	-0.208
Mof_N 	N 	0.55172	0.27699	0.43251	-0.205
Mof_N 	N 	0.60521	0.32173	0.44854	-0.202
Mof_N 	N 	0.71591	0.37423	0.40874	-0.21
Mof_N 	N 	0.70098	0.34406	0.38124	-0.201
Mof_N 	N 	0.53953	0.21025	0.33158	-0.206
Mof_N 	N 	0.50472	0.19725	0.34437	-0.203
Mof_N 	N 	0.98764	0.95774	0.06238	-0.2
Mof_N 	N 	0.98296	0.93597	0.03593	-0.204
Mof_N 	N 	0.06919	0.02698	0.97597	-0.207
Mof_N 	N 	0.10192	0.07848	0.9816	-0.2
Mof_N 	N 	0.10675	0.14118	0.05653	-0.201
Mof_N 	N 	0.08188	0.11205	0.07753	-0.203
Mof_C 	C 	0.88575	0.46861	0.38736	-0.479
Mof_C 	C 	0.87168	0.44631	0.41459	0.159
Mof_C 	C 	0.82512	0.41273	0.42405	-0.113
Mof_C 	C 	0.83319	0.40403	0.45002	0.159
Mof_C 	C 	0.79659	0.36977	0.46956	-0.479
Mof_C 	C 	0.83861	0.80681	0.48182	-0.504
Mof_C 	C 	0.86641	0.84297	0.46138	0.171
Mof_C 	C 	0.86077	0.83034	0.42991	-0.128
Mof_C 	C 	0.89859	0.87994	0.42293	0.176
Mof_C 	C 	0.91253	0.89336	0.39409	-0.512
Mof_C 	C 	0.12184	0.52622	0.44646	-0.471
Mof_C 	C 	0.09416	0.52971	0.43247	0.159
Mof_C 	C 	0.09737	0.54535	0.40692	-0.118
Mof_C 	C 	0.06395	0.54192	0.40527	0.164
Mof_C 	C 	0.0503	0.5529	0.3826	-0.483
Mof_C 	C 	0.23061	0.25156	0.16417	-0.483
Mof_C 	C 	0.21829	0.2712	0.15249	0.161
Mof_C 	C 	0.18124	0.24823	0.12607	-0.122
Mof_C 	C 	0.18823	0.28447	0.1267	0.17
Mof_C 	C 	0.15843	0.28125	0.10528	-0.494
Mof_C 	C 	0.95883	0.32608	0.19731	-0.502
Mof_C 	C 	0.9964	0.33921	0.18441	0.172
Mof_C 	C 	0.05254	0.38736	0.1905	-0.126
Mof_C 	C 	0.06601	0.37665	0.17146	0.169
Mof_C 	C 	0.1208	0.41391	0.16911	-0.482
Mof_C 	C 	0.51076	0.58598	0.27374	-0.491
Mof_C 	C 	0.46778	0.52709	0.26267	0.171
Mof_C 	C 	0.46972	0.49865	0.26617	-0.122
Mof_C 	C 	0.41769	0.44448	0.25097	0.166
Mof_C 	C 	0.39498	0.39539	0.24737	-0.497
Mof_C 	C 	0.60931	0.44726	0.62677	-0.491
Mof_C 	C 	0.58114	0.40937	0.64651	0.177
Mof_C 	C 	0.58359	0.41769	0.67688	-0.126
Mof_C 	C 	0.54904	0.3686	0.68284	0.166
Mof_C 	C 	0.53375	0.35191	0.71126	-0.488
Mof_C 	C 	0.67592	0.48137	0.73869	-0.494
Mof_C 	C 	0.66087	0.49737	0.72504	0.161
Mof_C 	C 	0.61996	0.46949	0.69885	-0.122
Mof_C 	C 	0.62648	0.50493	0.69681	0.173
Mof_C 	C 	0.59368	0.49744	0.67412	-0.5
Mof_C 	C 	0.48991	0.18825	0.51016	-0.503
Mof_C 	C 	0.51107	0.23607	0.52214	0.176
Mof_C 	C 	0.54131	0.27999	0.5109	-0.126
Mof_C 	C 	0.5536	0.31446	0.53226	0.173
Mof_C 	C 	0.58497	0.36777	0.53274	-0.504
Mof_C 	C 	0.01155	0.91715	0.7691	-0.487
Mof_C 	C 	0.0598	0.94061	0.76461	0.163
Mof_C 	C 	0.06475	0.92565	0.7398	-0.124
Mof_C 	C 	0.11923	0.96231	0.74874	0.17
Mof_C 	C 	0.14952	0.96805	0.73177	-0.506
Mof_C 	C 	0.02521	0.82558	0.72319	-0.505
Mof_C 	C 	0.00481	0.83452	0.70633	0.169
Mof_C 	C 	0.02193	0.87833	0.71306	-0.12
Mof_C 	C 	0.98615	0.86324	0.69019	0.168
Mof_C 	C 	0.98439	0.89364	0.68543	-0.498
Mof_C 	C 	0.24616	0.14998	0.94954	-0.494
Mof_C 	C 	0.19679	0.10635	0.92234	0.169
Mof_C 	C 	0.14421	0.07143	0.92024	-0.119
Mof_C 	C 	0.11622	0.04003	0.88965	0.157
Mof_C 	C 	0.05761	0.99447	0.87308	-0.478
Mof_C 	C 	0.18952	0.65801	0.38833	-0.532
Mof_C 	C 	0.16333	0.60741	0.37514	0.185
Mof_C 	C 	0.12662	0.56018	0.3842	-0.129
Mof_C 	C 	0.11756	0.52684	0.3644	0.163
Mof_C 	C 	0.08214	0.47134	0.36308	-0.487
Mof_C 	C 	0.07191	0.40899	0.2637	-0.476
Mof_C 	C 	0.09539	0.44706	0.24485	0.154
Mof_C 	C 	0.0882	0.43822	0.21322	-0.111
Mof_C 	C 	0.1207	0.4878	0.2089	0.159
Mof_C 	C 	0.12991	0.50359	0.1795	-0.474
Mof_C 	C 	0.19511	0.67114	0.20745	-0.506
Mof_C 	C 	0.21083	0.68591	0.24094	0.174
Mof_C 	C 	0.2245	0.7224	0.2623	-0.119
Mof_C 	C 	0.23586	0.72128	0.29054	0.158
Mof_C 	C 	0.25105	0.75011	0.32196	-0.475
Mof_C 	C 	0.67356	0.57366	0.20562	-0.527
Mof_C 	C 	0.72071	0.61508	0.23319	0.184
Mof_C 	C 	0.77543	0.65564	0.23587	-0.123
Mof_C 	C 	0.80183	0.68139	0.26702	0.157
Mof_C 	C 	0.86086	0.72868	0.28394	-0.482
Mof_C 	C 	0.88434	0.79375	0.38649	-0.466
Mof_C 	C 	0.8312	0.76273	0.38853	0.148
Mof_C 	C 	0.82165	0.77751	0.40816	-0.112
Mof_C 	C 	0.76506	0.7325	0.40016	0.161
Mof_C 	C 	0.73006	0.72311	0.41397	-0.468
Mof_C 	C 	0.54504	0.56738	0.33702	-0.497
Mof_C 	C 	0.5505	0.55173	0.31103	0.17
Mof_C 	C 	0.51766	0.52124	0.2809	-0.118
Mof_C 	C 	0.54027	0.5175	0.26637	0.158
Mof_C 	C 	0.52239	0.48954	0.23373	-0.476
Mof_C 	C 	0.77061	0.68939	0.178	-0.501
Mof_C 	C 	0.79764	0.6836	0.18604	0.169
Mof_C 	C 	0.80062	0.66944	0.21066	-0.12
Mof_C 	C 	0.83121	0.67089	0.2063	0.161
Mof_C 	C 	0.84853	0.65991	0.22564	-0.479
Mof_C 	C 	0.98175	0.71645	0.1964	-0.49
Mof_C 	C 	0.99929	0.74545	0.17254	0.173
Mof_C 	C 	0.04499	0.7787	0.16209	-0.117
Mof_C 	C 	0.04182	0.79648	0.1409	0.158
Mof_C 	C 	0.07833	0.83188	0.12141	-0.485
Mof_C 	C 	0.01733	0.87692	0.07745	-0.486
Mof_C 	C 	0.96835	0.8463	0.08665	0.155
Mof_C 	C 	0.94045	0.84946	0.08231	-0.121
Mof_C 	C 	0.89859	0.8122	0.09599	0.175
Mof_C 	C 	0.8538	0.79516	0.09736	-0.509
Mof_C 	C 	0.43224	0.03476	0.3128	-0.503
Mof_C 	C 	0.39735	0.02748	0.29383	0.173
Mof_C 	C 	0.40649	0.06475	0.29144	-0.133
Mof_C 	C 	0.35921	0.03517	0.27218	0.183
Mof_C 	C 	0.3448	0.05241	0.26041	-0.514
Mof_C 	C 	0.16769	0.90141	0.1967	-0.471
Mof_C 	C 	0.14186	0.84977	0.19183	0.158
Mof_C 	C 	0.08978	0.79666	0.17584	-0.125
Mof_C 	C 	0.08928	0.7665	0.18038	0.181
Mof_C 	C 	0.04557	0.7075	0.16847	-0.514
Mof_C 	C 	0.12541	0.67977	0.22458	-0.465
Mof_C 	C 	0.18431	0.73684	0.24015	0.156
Mof_C 	C 	0.22638	0.75524	0.25622	-0.122
Mof_C 	C 	0.26921	0.81063	0.26784	0.173
Mof_C 	C 	0.3259	0.85329	0.28759	-0.5
Mof_C 	C 	0.46174	0.20806	0.4416	-0.497
Mof_C 	C 	0.52173	0.25617	0.4523	0.165
Mof_C 	C 	0.55681	0.28819	0.4824	-0.117
Mof_C 	C 	0.60841	0.32826	0.47847	0.17
Mof_C 	C 	0.66208	0.3742	0.50228	-0.5
Mof_C 	C 	0.7885	0.44001	0.45711	-0.496
Mof_C 	C 	0.76183	0.40227	0.4265	0.168
Mof_C 	C 	0.77854	0.39215	0.41109	-0.121
Mof_C 	C 	0.73954	0.3561	0.38284	0.163
Mof_C 	C 	0.73677	0.33136	0.35593	-0.474
Mof_C 	C 	0.5348	0.16568	0.29148	-0.489
Mof_C 	C 	0.50962	0.16547	0.31029	0.162
Mof_C 	C 	0.45473	0.12267	0.3092	-0.119
Mof_C 	C 	0.4539	0.14521	0.33091	0.174
Mof_C 	C 	0.40735	0.11989	0.34004	-0.507
Mof_C 	C 	0.97032	0.94101	0.11233	-0.523
Mof_C 	C 	0.97115	0.92854	0.08189	0.187
Mof_C 	C 	0.95628	0.88791	0.06819	-0.126
Mof_C 	C 	0.96395	0.89378	0.03893	0.162
Mof_C 	C 	0.95312	0.86115	0.01347	-0.482
Mof_C 	C 	0.05073	0.9648	0.94313	-0.478
Mof_C 	C 	0.07984	0.01801	0.95385	0.154
Mof_C 	C 	0.12098	0.0648	0.94438	-0.12
Mof_C 	C 	0.13348	0.10152	0.9624	0.173
Mof_C 	C 	0.17229	0.15764	0.96173	-0.498
Mof_C 	C 	0.18003	0.23614	0.05437	-0.479
Mof_C 	C 	0.14501	0.19346	0.07087	0.157
Mof_C 	C 	0.14504	0.19881	0.10165	-0.112
Mof_C 	C 	0.10491	0.14647	0.10458	0.161
Mof_C 	C 	0.08651	0.12667	0.13198	-0.479
Mof_H 	H 	0.922	0.4921	0.3873	0.122
Mof_H 	H 	0.8851	0.4896	0.3887	0.139
Mof_H 	H 	0.8593	0.4386	0.3685	0.137
Mof_H 	H 	0.8149	0.3735	0.4866	0.122
Mof_H 	H 	0.7634	0.3319	0.4573	0.135
Mof_H 	H 	0.7875	0.3816	0.4777	0.135
Mof_H 	H 	0.8657	0.8237	0.5002	0.146
Mof_H 	H 	0.8175	0.7718	0.4709	0.148
Mof_H 	H 	0.8143	0.8011	0.4878	0.134
Mof_H 	H 	0.9242	0.9232	0.393	0.132
Mof_H 	H 	0.8807	0.8615	0.3768	0.148
Mof_H 	H 	0.9419	0.9042	0.3933	0.149
Mof_H 	H 	0.1202	0.5251	0.4677	0.122
Mof_H 	H 	0.1598	0.558	0.4462	0.132
Mof_H 	H 	0.1036	0.4932	0.4346	0.128
Mof_H 	H 	0.0156	0.533	0.3828	0.119
Mof_H 	H 	0.0475	0.5412	0.3621	0.139
Mof_H 	H 	0.0787	0.5918	0.3879	0.137
Mof_H 	H 	0.2685	0.2827	0.1766	0.125
Mof_H 	H 	0.2246	0.2316	0.1468	0.14
Mof_H 	H 	0.2067	0.2276	0.1767	0.137
Mof_H 	H 	0.1471	0.2884	0.1171	0.14
Mof_H 	H 	0.1265	0.245	0.0907	0.147
Mof_H 	H 	0.1823	0.3083	0.094	0.131
Mof_H 	H 	0.9225	0.2944	0.1829	0.128
Mof_H 	H 	0.9714	0.357	0.2008	0.145
Mof_H 	H 	0.9578	0.3182	0.2168	0.14
Mof_H 	H 	0.1175	0.3949	0.1532	0.121
Mof_H 	H 	0.1428	0.4261	0.1889	0.138
Mof_H 	H 	0.1383	0.4454	0.1637	0.136
Mof_H 	H 	0.5061	0.5964	0.2585	0.125
Mof_H 	H 	0.5464	0.6066	0.2768	0.141
Mof_H 	H 	0.508	0.5936	0.2932	0.138
Mof_H 	H 	0.3563	0.3642	0.2461	0.133
Mof_H 	H 	0.414	0.4007	0.2651	0.146
Mof_H 	H 	0.3995	0.3887	0.2286	0.135
Mof_H 	H 	0.6146	0.4372	0.6108	0.125
Mof_H 	H 	0.587	0.4447	0.6171	0.142
Mof_H 	H 	0.6445	0.4845	0.6394	0.142
Mof_H 	H 	0.4955	0.3141	0.706	0.126
Mof_H 	H 	0.5563	0.3554	0.7223	0.132
Mof_H 	H 	0.5395	0.3752	0.7243	0.137
Mof_H 	H 	0.715	0.5139	0.7487	0.127
Mof_H 	H 	0.6562	0.4624	0.7538	0.142
Mof_H 	H 	0.6665	0.4574	0.7225	0.144
Mof_H 	H 	0.5863	0.5096	0.6851	0.142
Mof_H 	H 	0.6141	0.5189	0.6598	0.135
Mof_H 	H 	0.5594	0.4591	0.6627	0.15
Mof_H 	H 	0.4706	0.1647	0.5237	0.133
Mof_H 	H 	0.4651	0.1681	0.4896	0.145
Mof_H 	H 	0.5202	0.2005	0.5093	0.143
Mof_H 	H 	0.5785	0.3771	0.5482	0.128
Mof_H 	H 	0.6237	0.3956	0.5379	0.142
Mof_H 	H 	0.5735	0.3659	0.5126	0.145
Mof_H 	H 	0.01	0.915	0.7902	0.128
Mof_H 	H 	0.0148	0.9404	0.7652	0.145
Mof_H 	H 	0.9783	0.8807	0.7548	0.14
Mof_H 	H 	0.1843	0.0063	0.733	0.145
Mof_H 	H 	0.1559	0.9545	0.7408	0.136
Mof_H 	H 	0.1282	0.947	0.7102	0.148
Mof_H 	H 	0.0246	0.808	0.7086	0.136
Mof_H 	H 	0.0626	0.8606	0.736	0.148
Mof_H 	H 	0.0022	0.8025	0.7363	0.137
Mof_H 	H 	0.9728	0.8864	0.6634	0.129
Mof_H 	H 	0.9587	0.8819	0.6952	0.137
Mof_H 	H 	0.0204	0.9325	0.6945	0.141
Mof_H 	H 	0.2682	0.1508	0.9492	0.129
Mof_H 	H 	0.2674	0.1851	0.9487	0.142
Mof_H 	H 	0.235	0.1424	0.9684	0.145
Mof_H 	H 	0.0542	0.9976	0.8526	0.124
Mof_H 	H 	0.0386	0.9598	0.8714	0.128
Mof_H 	H 	0.0416	0.9961	0.8845	0.133
Mof_H 	H 	0.2285	0.6894	0.3905	0.154
Mof_H 	H 	0.1837	0.6581	0.4084	0.159
Mof_H 	H 	0.1736	0.6599	0.3747	0.143
Mof_H 	H 	0.0654	0.4502	0.3416	0.127
Mof_H 	H 	0.0537	0.4534	0.3729	0.14
Mof_H 	H 	0.1039	0.4739	0.3738	0.138
Mof_H 	H 	0.0973	0.4297	0.2842	0.126
Mof_H 	H 	0.0653	0.3834	0.2537	0.14
Mof_H 	H 	0.0376	0.3889	0.2655	0.128
Mof_H 	H 	0.1363	0.5301	0.1808	0.121
Mof_H 	H 	0.0978	0.4713	0.1623	0.135
Mof_H 	H 	0.1615	0.5195	0.1762	0.134
Mof_H 	H 	0.192	0.6479	0.1993	0.13
Mof_H 	H 	0.2228	0.7041	0.2007	0.145
Mof_H 	H 	0.1602	0.6516	0.2	0.14
Mof_H 	H 	0.2441	0.7316	0.3367	0.119
Mof_H 	H 	0.2294	0.7499	0.3217	0.137
Mof_H 	H 	0.2897	0.7877	0.328	0.134
Mof_H 	H 	0.6444	0.5381	0.2095	0.15
Mof_H 	H 	0.6842	0.5726	0.1884	0.158
Mof_H 	H 	0.6608	0.5828	0.2008	0.142
Mof_H 	H 	0.8696	0.7503	0.3019	0.125
Mof_H 	H 	0.8828	0.7511	0.2703	0.138
Mof_H 	H 	0.8686	0.7154	0.2906	0.133
Mof_H 	H 	0.8782	0.7681	0.3779	0.119
Mof_H 	H 	0.91	0.816	0.407	0.132
Mof_H 	H 	0.8992	0.8172	0.3732	0.127
Mof_H 	H 	0.6926	0.6905	0.4007	0.118
Mof_H 	H 	0.7433	0.7545	0.416	0.133
Mof_H 	H 	0.7313	0.7182	0.4343	0.134
Mof_H 	H 	0.5761	0.591	0.3549	0.127
Mof_H 	H 	0.5115	0.5348	0.3419	0.143
Mof_H 	H 	0.5438	0.5867	0.3315	0.142
Mof_H 	H 	0.5537	0.5076	0.2277	0.12
Mof_H 	H 	0.5058	0.491	0.2204	0.137
Mof_H 	H 	0.4958	0.4516	0.2318	0.133
Mof_H 	H 	0.7933	0.7201	0.1694	0.13
Mof_H 	H 	0.7354	0.6561	0.1629	0.139
Mof_H 	H 	0.7655	0.6959	0.1964	0.147
Mof_H 	H 	0.8452	0.6389	0.2123	0.125
Mof_H 	H 	0.8863	0.6943	0.238	0.126
Mof_H 	H 	0.8253	0.6393	0.2392	0.136
Mof_H 	H 	0.9628	0.7149	0.2069	0.125
Mof_H 	H 	0.9573	0.6795	0.1866	0.144
Mof_H 	H 	0.0137	0.7359	0.2114	0.143
Mof_H 	H 	0.0565	0.8181	0.101	0.126
Mof_H 	H 	0.1029	0.8689	0.1308	0.131
Mof_H 	H 	0.0995	0.8318	0.1197	0.139
Mof_H 	H 	0.0386	0.8819	0.0925	0.124
Mof_H 	H 	0.006	0.8566	0.0572	0.137
Mof_H 	H 	0.0396	0.9125	0.0767	0.142
Mof_H 	H 	0.8208	0.7563	0.0953	0.143
Mof_H 	H 	0.8635	0.8152	0.1171	0.137
Mof_H 	H 	0.8476	0.8029	0.0807	0.151
Mof_H 	H 	0.4252	0.0092	0.302	0.135
Mof_H 	H 	0.4705	0.0719	0.3164	0.146
Mof_H 	H 	0.4239	0.0279	0.3324	0.139
Mof_H 	H 	0.3267	0.0348	0.2383	0.143
Mof_H 	H 	0.3203	0.0419	0.271	0.14
Mof_H 	H 	0.3777	0.0918	0.2641	0.152
Mof_H 	H 	0.1899	0.9235	0.218	0.119
Mof_H 	H 	0.1906	0.9217	0.1829	0.126
Mof_H 	H 	0.1394	0.8927	0.1923	0.136
Mof_H 	H 	0.0612	0.702	0.1626	0.145
Mof_H 	H 	0.028	0.6898	0.1844	0.142
Mof_H 	H 	0.0187	0.6918	0.1505	0.154
Mof_H 	H 	0.1076	0.6813	0.2133	0.119
Mof_H 	H 	0.1232	0.6603	0.2103	0.128
Mof_H 	H 	0.1073	0.6608	0.2401	0.132
Mof_H 	H 	0.3519	0.8841	0.279	0.141
Mof_H 	H 	0.3297	0.8655	0.3084	0.133
Mof_H 	H 	0.333	0.8381	0.2883	0.147
Mof_H 	H 	0.4507	0.2048	0.4207	0.134
Mof_H 	H 	0.4492	0.2121	0.4551	0.146
Mof_H 	H 	0.4456	0.1753	0.4419	0.134
Mof_H 	H 	0.6874	0.3822	0.4952	0.131
Mof_H 	H 	0.6577	0.3643	0.5214	0.144
Mof_H 	H 	0.6764	0.4063	0.5057	0.15
Mof_H 	H 	0.7816	0.4554	0.4564	0.135
Mof_H 	H 	0.8277	0.4693	0.4624	0.144
Mof_H 	H 	0.7738	0.4202	0.4726	0.131
Mof_H 	H 	0.6988	0.2954	0.3448	0.123
Mof_H 	H 	0.7547	0.3282	0.3635	0.136
Mof_H 	H 	0.7552	0.3546	0.3422	0.136
Mof_H 	H 	0.561	0.1982	0.2842	0.129
Mof_H 	H 	0.5067	0.1334	0.2739	0.141
Mof_H 	H 	0.5535	0.1658	0.3039	0.128
Mof_H 	H 	0.419	0.1363	0.3619	0.132
Mof_H 	H 	0.3781	0.0809	0.3362	0.15
Mof_H 	H 	0.3944	0.1259	0.3281	0.153
Mof_H 	H 	0.9978	0.9796	0.1192	0.135
Mof_H 	H 	0.9783	0.9326	0.1269	0.152
Mof_H 	H 	0.9345	0.9193	0.1112	0.153
Mof_H 	H 	0.941	0.8598	0.9938	0.125
Mof_H 	H 	0.9248	0.8243	0.0153	0.133
Mof_H 	H 	0.9864	0.8778	0.0144	0.13
Mof_H 	H 	0.0437	0.9503	0.9606	0.124
Mof_H 	H 	0.0732	0.9702	0.934	0.14
Mof_H 	H 	0.0163	0.9392	0.9277	0.134
Mof_H 	H 	0.1586	0.1653	0.9677	0.136
Mof_H 	H 	0.1761	0.1609	0.941	0.147
Mof_H 	H 	0.2077	0.1837	0.976	0.137
Mof_H 	H 	0.1794	0.2231	0.0357	0.123
Mof_H 	H 	0.2172	0.2691	0.0677	0.139
Mof_H 	H 	0.1663	0.2442	0.0489	0.135
Mof_H 	H 	0.0506	0.0873	0.1255	0.122
Mof_H 	H 	0.0847	0.1442	0.1433	0.135
Mof_H 	H 	0.1123	0.1356	0.1453	0.131
Mof_Ag	Ag	0.56108	0.54266	0.06628	0.413
Mof_Ag	Ag	0.43817	0.42681	0.01634	0.338
Mof_Ag	Ag	0.04309	0.52023	0.04686	0.335
Mof_Ag	Ag	0.67327	0.10793	0.29448	0.323
Mof_Ag	Ag	0.73237	0.10028	0.33229	0.354
Mof_Ag	Ag	0.66614	0.88956	0.38392	0.41
Mof_Ag	Ag	0.22674	0.93947	0.90619	0.398
Mof_Ag	Ag	0.11022	0.83775	0.85057	0.324
Mof_Ag	Ag	0.12112	0.8914	0.91782	0.368
Mof_Ag	Ag	0.68919	0.29962	0.66915	0.329
Mof_Ag	Ag	0.75061	0.41434	0.69397	0.346
Mof_Ag	Ag	0.7439	0.37995	0.61971	0.414
Mof_Ag	Ag	0.82605	0.88867	0.18086	0.335
Mof_Ag	Ag	0.72599	0.84053	0.198	0.346
Mof_Ag	Ag	0.85098	0.9381	0.25436	0.412
Mof_Ag	Ag	0.80137	0.37339	0.2237	0.36
Mof_Ag	Ag	0.85268	0.44492	0.17302	0.312
Mof_Ag	Ag	0.77833	0.31817	0.15294	0.404
Mof_Ag	Ag	0.10089	0.72418	0.36467	0.365
Mof_Ag	Ag	0.04503	0.73908	0.33399	0.395
Mof_Ag	Ag	0.17125	0.85019	0.38084	0.317
Mof_Ag	Ag	0.13366	0.03264	0.23248	0.356
Mof_Ag	Ag	0.18244	0.01395	0.26631	0.351
Mof_Ag	Ag	0.06839	0.94926	0.28123	0.373
Mof_Ag	Ag	0.35589	0.14425	0.1129	0.366
Mof_Ag	Ag	0.42515	0.23377	0.07448	0.35
Mof_Ag	Ag	0.42639	0.26745	0.14576	0.385
Mof_Ag	Ag	0.4649	0.96239	0.43243	0.398
Mof_Ag	Ag	0.47591	0.01733	0.49514	0.309
Mof_Ag	Ag	0.59082	0.08306	0.48274	0.372
Mof_N 	N 	0.52336	0.47124	0.0662	-0.199
Mof_N 	N 	0.47524	0.42598	0.04422	-0.201
Mof_N 	N 	0.92351	0.4321	0.02821	-0.21
Mof_N 	N 	0.96974	0.47538	0.05172	-0.208
Mof_N 	N 	0.57101	0.61469	0.0543	-0.2
Mof_N 	N 	0.59576	0.61325	0.07141	-0.202
Mof_N 	N 	0.64894	0.07699	0.33153	-0.21
Mof_N 	N 	0.67348	0.0741	0.34738	-0.2
Mof_N 	N 	0.63834	0.8147	0.33744	-0.201
Mof_N 	N 	0.66997	0.86599	0.34536	-0.203
Mof_N 	N 	0.74663	0.17216	0.25399	-0.201
Mof_N 	N 	0.70262	0.14807	0.26109	-0.205
Mof_N 	N 	0.22438	0.91331	0.86549	-0.201
Mof_N 	N 	0.17581	0.87035	0.84276	-0.204
Mof_N 	N 	0.30819	0.95196	0.76255	-0.212
Mof_N 	N 	0.33022	0.94778	0.7804	-0.207
Mof_N 	N 	0.19436	0.95595	0.95151	-0.205
Mof_N 	N 	0.23662	0.9757	0.94532	-0.207
Mof_N 	N 	0.69637	0.3211	0.71387	-0.208
Mof_N 	N 	0.71959	0.36766	0.72365	-0.209
Mof_N 	N 	0.61556	0.28086	0.81882	-0.208
Mof_N 	N 	0.64341	0.27939	0.8286	-0.204
Mof_N 	N 	0.7012	0.30464	0.60464	-0.198
Mof_N 	N 	0.6804	0.27491	0.62491	-0.203
Mof_N 	N 	0.7514	0.82385	0.14885	-0.21
Mof_N 	N 	0.70861	0.80259	0.1556	-0.208
Mof_N 	N 	0.73989	0.87133	0.24202	-0.204
Mof_N 	N 	0.78753	0.90936	0.26469	-0.199
Mof_N 	N 	0.90798	0.95682	0.243	-0.2
Mof_N 	N 	0.89925	0.94225	0.2125	-0.198
Mof_N 	N 	0.85531	0.45348	0.23839	-0.2
Mof_N 	N 	0.87533	0.48264	0.21757	-0.205
Mof_N 	N 	0.84336	0.41475	0.13051	-0.201
Mof_N 	N 	0.81678	0.36582	0.1228	-0.197
Mof_N 	N 	0.75134	0.27642	0.18596	-0.201
Mof_N 	N 	0.75786	0.29763	0.21329	-0.199
Mof_N 	N 	0.02584	0.65826	0.3317	-0.2
Mof_N 	N 	0.00524	0.66633	0.31897	-0.204
Mof_N 	N 	0.08537	0.81246	0.34143	-0.2
Mof_N 	N 	0.13591	0.85785	0.36116	-0.201
Mof_N 	N 	0.20798	0.84298	0.39776	-0.208
Mof_N 	N 	0.18096	0.79416	0.39212	-0.201
Mof_N 	N 	0.20154	0.07036	0.2231	-0.21
Mof_N 	N 	0.21953	0.05985	0.23638	-0.21
Mof_N 	N 	0.14598	0.96513	0.29471	-0.21
Mof_N 	N 	0.10136	0.93966	0.30202	-0.205
Mof_N 	N 	0.03704	0.95965	0.25849	-0.205
Mof_N 	N 	0.06608	0.99579	0.24127	-0.207
Mof_N 	N 	0.34448	0.11921	0.06749	-0.205
Mof_N 	N 	0.37319	0.15667	0.05146	-0.202
Mof_N 	N 	0.46549	0.30717	0.09126	-0.21
Mof_N 	N 	0.46282	0.31974	0.11876	-0.201
Mof_N 	N 	0.37867	0.20795	0.16842	-0.206
Mof_N 	N 	0.35288	0.16035	0.15563	-0.203
Mof_N 	N 	0.39536	0.92526	0.43762	-0.2
Mof_N 	N 	0.40004	0.94703	0.46407	-0.203
Mof_N 	N 	0.55101	0.09322	0.52403	-0.207
Mof_N 	N 	0.59688	0.12032	0.5184	-0.2
Mof_N 	N 	0.58465	0.05022	0.44347	-0.201
Mof_N 	N 	0.53452	0.00435	0.42247	-0.203
Mof_C 	C 	0.58125	0.49839	0.11264	-0.479
Mof_C 	C 	0.53172	0.45709	0.08541	0.159
Mof_C 	C 	0.48868	0.40107	0.07595	-0.113
Mof_C 	C 	0.45401	0.38317	0.04998	0.159
Mof_C 	C 	0.40021	0.32703	0.03044	-0.479
Mof_C 	C 	0.82499	0.35679	0.01818	-0.504
Mof_C 	C 	0.88159	0.40503	0.03862	0.171
Mof_C 	C 	0.90043	0.43086	0.07009	-0.128
Mof_C 	C 	0.95701	0.47566	0.07707	0.176
Mof_C 	C 	0.99927	0.51844	0.10591	-0.512
Mof_C 	C 	0.57976	0.67538	0.05354	-0.471
Mof_C 	C 	0.59724	0.66169	0.06753	0.159
Mof_C 	C 	0.63843	0.69045	0.09308	-0.118
Mof_C 	C 	0.63665	0.65868	0.09473	0.164
Mof_C 	C 	0.6703	0.6677	0.1174	-0.483
Mof_C 	C 	0.58739	0.06644	0.33583	-0.483
Mof_C 	C 	0.61871	0.0658	0.34751	0.161
Mof_C 	C 	0.62216	0.05517	0.37393	-0.122
Mof_C 	C 	0.65777	0.06153	0.3733	0.171
Mof_C 	C 	0.67597	0.05315	0.39472	-0.494
Mof_C 	C 	0.62877	0.76152	0.30269	-0.502
Mof_C 	C 	0.6548	0.81199	0.31559	0.171
Mof_C 	C 	0.69686	0.86204	0.3095	-0.125
Mof_C 	C 	0.70519	0.89455	0.32854	0.168
Mof_C 	C 	0.7448	0.95169	0.33089	-0.482
Mof_C 	C 	0.81224	0.23702	0.22626	-0.491
Mof_C 	C 	0.76442	0.20511	0.23733	0.171
Mof_C 	C 	0.73248	0.20355	0.23383	-0.122
Mof_C 	C 	0.69351	0.16672	0.24903	0.166
Mof_C 	C 	0.64802	0.14761	0.25263	-0.497
Mof_C 	C 	0.32049	0.98254	0.87323	-0.488
Mof_C 	C 	0.26286	0.93463	0.85349	0.176
Mof_C 	C 	0.24081	0.90671	0.82312	-0.126
Mof_C 	C 	0.18576	0.8662	0.81716	0.166
Mof_C 	C 	0.14065	0.82249	0.78874	-0.488
Mof_C 	C 	0.24268	0.93723	0.76131	-0.495
Mof_C 	C 	0.27233	0.93583	0.77496	0.161
Mof_C 	C 	0.27064	0.92111	0.80115	-0.123
Mof_C 	C 	0.30812	0.92967	0.80319	0.173
Mof_C 	C 	0.32332	0.91956	0.82588	-0.5
Mof_C 	C 	0.17809	0.97975	0.98984	-0.501
Mof_C 	C 	0.21393	0.98893	0.97786	0.176
Mof_C 	C 	0.26909	0.03041	0.9891	-0.127
Mof_C 	C 	0.2822	0.02134	0.96774	0.172
Mof_C 	C 	0.33503	0.05223	0.96726	-0.503
Mof_C 	C 	0.64805	0.24245	0.7309	-0.491
Mof_C 	C 	0.676	0.29519	0.73539	0.164
Mof_C 	C 	0.68585	0.32495	0.7602	-0.124
Mof_C 	C 	0.71357	0.37049	0.75126	0.171
Mof_C 	C 	0.73628	0.41775	0.76823	-0.509
Mof_C 	C 	0.60239	0.30202	0.77681	-0.504
Mof_C 	C 	0.62819	0.29848	0.79367	0.168
Mof_C 	C 	0.66527	0.30887	0.78694	-0.12
Mof_C 	C 	0.67305	0.29596	0.80981	0.168
Mof_C 	C 	0.70821	0.29896	0.81457	-0.494
Mof_C 	C 	0.70044	0.29662	0.55046	-0.494
Mof_C 	C 	0.68401	0.27445	0.57766	0.169
Mof_C 	C 	0.65119	0.22397	0.57976	-0.12
Mof_C 	C 	0.65038	0.22657	0.61035	0.158
Mof_C 	C 	0.62139	0.18453	0.62692	-0.479
Mof_C 	C 	0.76968	0.80119	0.11167	-0.532
Mof_C 	C 	0.73227	0.78819	0.12486	0.185
Mof_C 	C 	0.67598	0.74242	0.1158	-0.129
Mof_C 	C 	0.66244	0.75316	0.1356	0.164
Mof_C 	C 	0.60826	0.71906	0.13692	-0.488
Mof_C 	C 	0.64529	0.80821	0.2363	-0.477
Mof_C 	C 	0.70221	0.85054	0.25515	0.155
Mof_C 	C 	0.725	0.87498	0.28678	-0.111
Mof_C 	C 	0.7789	0.9118	0.2911	0.159
Mof_C 	C 	0.82409	0.95041	0.3205	-0.474
Mof_C 	C 	0.96369	0.98766	0.29255	-0.506
Mof_C 	C 	0.94497	0.96989	0.25906	0.174
Mof_C 	C 	0.9601	0.9622	0.2377	-0.119
Mof_C 	C 	0.93074	0.94532	0.20946	0.158
Mof_C 	C 	0.92815	0.92909	0.17804	-0.475
Mof_C 	C 	0.86804	0.46794	0.29438	-0.527
Mof_C 	C 	0.88189	0.48752	0.26681	0.184
Mof_C 	C 	0.91977	0.53956	0.26413	-0.124
Mof_C 	C 	0.91437	0.53481	0.23298	0.157
Mof_C 	C 	0.94474	0.57692	0.21606	-0.482
Mof_C 	C 	0.90726	0.49785	0.11351	-0.466
Mof_C 	C 	0.8742	0.44267	0.11147	0.148
Mof_C 	C 	0.86935	0.41349	0.09184	-0.112
Mof_C 	C 	0.83234	0.3649	0.09984	0.161
Mof_C 	C 	0.80914	0.31609	0.08603	-0.468
Mof_C 	C 	0.73036	0.20802	0.16298	-0.497
Mof_C 	C 	0.7407	0.23947	0.18897	0.17
Mof_C 	C 	0.74034	0.23676	0.2191	-0.118
Mof_C 	C 	0.75113	0.2739	0.23363	0.158
Mof_C 	C 	0.75581	0.28866	0.26627	-0.476
Mof_C 	C 	0.01139	0.59261	0.322	-0.499
Mof_C 	C 	0.99756	0.6116	0.31396	0.168
Mof_C 	C 	0.95878	0.58996	0.28934	-0.119
Mof_C 	C 	0.96459	0.62491	0.2937	0.16
Mof_C 	C 	0.93427	0.62289	0.27436	-0.479
Mof_C 	C 	0.02005	0.78535	0.3036	-0.487
Mof_C 	C 	0.07291	0.82675	0.32746	0.173
Mof_C 	C 	0.11661	0.8829	0.33791	-0.118
Mof_C 	C 	0.15558	0.90092	0.3591	0.157
Mof_C 	C 	0.21047	0.95692	0.37859	-0.485
Mof_C 	C 	0.29947	0.93988	0.42255	-0.487
Mof_C 	C 	0.25965	0.8817	0.41335	0.156
Mof_C 	C 	0.26715	0.85814	0.41769	-0.122
Mof_C 	C 	0.21621	0.8026	0.40401	0.175
Mof_C 	C 	0.1978	0.75644	0.40264	-0.509
Mof_C 	C 	0.22196	0.11944	0.1872	-0.503
Mof_C 	C 	0.23365	0.10352	0.20617	0.173
Mof_C 	C 	0.27331	0.11505	0.20856	-0.133
Mof_C 	C 	0.26299	0.08703	0.22782	0.183
Mof_C 	C 	0.292	0.08439	0.23959	-0.515
Mof_C 	C 	0.20471	0.97099	0.3033	-0.469
Mof_C 	C 	0.15794	0.95003	0.30817	0.157
Mof_C 	C 	0.12082	0.91394	0.32416	-0.124
Mof_C 	C 	0.08612	0.9089	0.31962	0.181
Mof_C 	C 	0.03903	0.8771	0.33153	-0.515
Mof_C 	C 	0.95519	0.90083	0.27542	-0.463
Mof_C 	C 	0.99669	0.94416	0.25985	0.155
Mof_C 	C 	0.99902	0.97016	0.24378	-0.121
Mof_C 	C 	0.04279	0.00137	0.23216	0.172
Mof_C 	C 	0.0657	0.03831	0.21241	-0.499
Mof_C 	C 	0.26646	0.02014	0.0584	-0.499
Mof_C 	C 	0.30387	0.06943	0.0477	0.166
Mof_C 	C 	0.30579	0.07441	0.0176	-0.117
Mof_C 	C 	0.34979	0.12994	0.02153	0.17
Mof_C 	C 	0.37192	0.1598	0.99772	-0.5
Mof_C 	C 	0.4829	0.33139	0.04289	-0.496
Mof_C 	C 	0.47577	0.33533	0.0735	0.168
Mof_C 	C 	0.48106	0.36745	0.08891	-0.121
Mof_C 	C 	0.47326	0.3567	0.11716	0.163
Mof_C 	C 	0.47543	0.38084	0.14407	-0.474
Mof_C 	C 	0.3742	0.24332	0.20852	-0.489
Mof_C 	C 	0.35518	0.19933	0.18971	0.162
Mof_C 	C 	0.31347	0.14553	0.1908	-0.119
Mof_C 	C 	0.3143	0.12299	0.16909	0.174
Mof_C 	C 	0.27985	0.06731	0.15996	-0.507
Mof_C 	C 	0.32868	0.85799	0.38767	-0.523
Mof_C 	C 	0.34665	0.88926	0.41811	0.187
Mof_C 	C 	0.31972	0.88809	0.43181	-0.126
Mof_C 	C 	0.35485	0.92502	0.46107	0.163
Mof_C 	C 	0.34768	0.93965	0.48653	-0.483
Mof_C 	C 	0.52167	0.1076	0.55687	-0.479
Mof_C 	C 	0.56416	0.12599	0.54615	0.155
Mof_C 	C 	0.62042	0.1766	0.55562	-0.12
Mof_C 	C 	0.63912	0.17108	0.5376	0.173
Mof_C 	C 	0.69591	0.21056	0.53827	-0.498
Mof_C 	C 	0.68177	0.12566	0.44563	-0.479
Mof_C 	C 	0.62259	0.07414	0.42913	0.157
Mof_C 	C 	0.59716	0.04339	0.39835	-0.112
Mof_C 	C 	0.54189	0.00033	0.39542	0.161
Mof_C 	C 	0.49469	0.95453	0.36802	-0.48
Mof_H 	H 	0.6048	0.5347	0.1127	0.122
Mof_H 	H 	0.6009	0.4964	0.1113	0.139
Mof_H 	H 	0.5701	0.4908	0.1315	0.137
Mof_H 	H 	0.3869	0.3283	0.0134	0.122
Mof_H 	H 	0.3746	0.3061	0.0427	0.135
Mof_H 	H 	0.4039	0.3098	0.0223	0.135
Mof_H 	H 	0.8235	0.3655	0.9998	0.146
Mof_H 	H 	0.8009	0.3466	0.0291	0.148
Mof_H 	H 	0.8133	0.3265	0.0122	0.134
Mof_H 	H 	0.0302	0.5312	0.107	0.132
Mof_H 	H 	0.9847	0.5039	0.1232	0.148
Mof_H 	H 	0.0109	0.5486	0.1067	0.149
Mof_H 	H 	0.5574	0.6525	0.0323	0.122
Mof_H 	H 	0.6118	0.7136	0.0538	0.132
Mof_H 	H 	0.5586	0.669	0.0654	0.128
Mof_H 	H 	0.6502	0.6328	0.1172	0.119
Mof_H 	H 	0.6791	0.6854	0.1379	0.139
Mof_H 	H 	0.7039	0.6908	0.1121	0.137
Mof_H 	H 	0.6061	0.0919	0.3234	0.125
Mof_H 	H 	0.5848	0.0778	0.3532	0.14
Mof_H 	H 	0.5509	0.03	0.3233	0.137
Mof_H 	H 	0.6713	0.03	0.3829	0.141
Mof_H 	H 	0.6543	0.0358	0.4093	0.147
Mof_H 	H 	0.7143	0.0883	0.406	0.131
Mof_H 	H 	0.6115	0.7396	0.3171	0.128
Mof_H 	H 	0.6562	0.7706	0.2992	0.144
Mof_H 	H 	0.6014	0.741	0.2832	0.14
Mof_H 	H 	0.7417	0.9643	0.3468	0.121
Mof_H 	H 	0.7372	0.9539	0.3111	0.138
Mof_H 	H 	0.7817	0.9746	0.3363	0.136
Mof_H 	H 	0.8379	0.2476	0.2415	0.125
Mof_H 	H 	0.8298	0.2696	0.2232	0.141
Mof_H 	H 	0.8004	0.2148	0.2068	0.138
Mof_H 	H 	0.6181	0.1102	0.2539	0.133
Mof_H 	H 	0.6356	0.1489	0.2349	0.146
Mof_H 	H 	0.6601	0.1709	0.2714	0.135
Mof_H 	H 	0.3264	0.0038	0.8892	0.124
Mof_H 	H 	0.3276	0.9699	0.8829	0.141
Mof_H 	H 	0.3451	0.0051	0.8606	0.141
Mof_H 	H 	0.1081	0.7895	0.794	0.126
Mof_H 	H 	0.1331	0.834	0.7777	0.132
Mof_H 	H 	0.1509	0.8152	0.7757	0.137
Mof_H 	H 	0.2652	0.9663	0.7513	0.128
Mof_H 	H 	0.2086	0.9024	0.7462	0.142
Mof_H 	H 	0.2349	0.944	0.7775	0.144
Mof_H 	H 	0.3245	0.9012	0.8149	0.142
Mof_H 	H 	0.3591	0.9543	0.8402	0.135
Mof_H 	H 	0.2964	0.8967	0.8373	0.15
Mof_H 	H 	0.141	0.9469	0.9763	0.132
Mof_H 	H 	0.1785	0.9755	0.0104	0.145
Mof_H 	H 	0.1912	0.0109	0.9907	0.142
Mof_H 	H 	0.3289	0.0303	0.9518	0.128
Mof_H 	H 	0.3577	0.0858	0.9621	0.142
Mof_H 	H 	0.3533	0.0609	0.9874	0.145
Mof_H 	H 	0.6248	0.2198	0.7098	0.128
Mof_H 	H 	0.6752	0.2496	0.7348	0.145
Mof_H 	H 	0.6259	0.2235	0.7452	0.142
Mof_H 	H 	0.7733	0.4513	0.767	0.146
Mof_H 	H 	0.7137	0.4151	0.7592	0.137
Mof_H 	H 	0.7368	0.418	0.7898	0.149
Mof_H 	H 	0.5994	0.316	0.7914	0.136
Mof_H 	H 	0.6246	0.3266	0.764	0.148
Mof_H 	H 	0.5662	0.2659	0.7637	0.137
Mof_H 	H 	0.723	0.3094	0.8366	0.129
Mof_H 	H 	0.6867	0.2635	0.8048	0.136
Mof_H 	H 	0.738	0.3259	0.8055	0.139
Mof_H 	H 	0.7016	0.319	0.5508	0.129
Mof_H 	H 	0.7364	0.3187	0.5513	0.142
Mof_H 	H 	0.674	0.2666	0.5316	0.145
Mof_H 	H 	0.645	0.2016	0.6474	0.124
Mof_H 	H 	0.5884	0.1672	0.6286	0.128
Mof_H 	H 	0.6116	0.1571	0.6155	0.132
Mof_H 	H 	0.7989	0.838	0.1095	0.154
Mof_H 	H 	0.7497	0.7753	0.0916	0.159
Mof_H 	H 	0.7852	0.7989	0.1253	0.143
Mof_H 	H 	0.6086	0.7238	0.1584	0.127
Mof_H 	H 	0.5805	0.6808	0.1271	0.141
Mof_H 	H 	0.6001	0.7301	0.1262	0.138
Mof_H 	H 	0.6455	0.8131	0.2158	0.126
Mof_H 	H 	0.6297	0.8116	0.2463	0.141
Mof_H 	H 	0.6234	0.7721	0.2345	0.128
Mof_H 	H 	0.8493	0.9555	0.3192	0.12
Mof_H 	H 	0.809	0.9355	0.3377	0.135
Mof_H 	H 	0.8433	0.9853	0.3238	0.134
Mof_H 	H 	0.9486	0.9927	0.3007	0.129
Mof_H 	H 	0.0034	0.0221	0.2993	0.144
Mof_H 	H 	0.9516	0.9602	0.3	0.14
Mof_H 	H 	0.8949	0.9074	0.1633	0.119
Mof_H 	H 	0.9282	0.9077	0.1783	0.137
Mof_H 	H 	0.9597	0.9617	0.172	0.134
Mof_H 	H 	0.8286	0.4349	0.2905	0.15
Mof_H 	H 	0.8842	0.4958	0.3116	0.158
Mof_H 	H 	0.882	0.46	0.2992	0.142
Mof_H 	H 	0.9484	0.5677	0.1981	0.125
Mof_H 	H 	0.9808	0.6125	0.2297	0.138
Mof_H 	H 	0.9248	0.578	0.2094	0.133
Mof_H 	H 	0.8902	0.5003	0.1221	0.119
Mof_H 	H 	0.909	0.503	0.093	0.132
Mof_H 	H 	0.944	0.526	0.1268	0.128
Mof_H 	H 	0.7898	0.2919	0.0993	0.118
Mof_H 	H 	0.8385	0.3273	0.084	0.133
Mof_H 	H 	0.7839	0.297	0.0657	0.134
Mof_H 	H 	0.7361	0.2212	0.1451	0.127
Mof_H 	H 	0.6929	0.1696	0.1581	0.143
Mof_H 	H 	0.7552	0.2123	0.1685	0.142
Mof_H 	H 	0.7799	0.326	0.2723	0.12
Mof_H 	H 	0.7706	0.2854	0.2796	0.137
Mof_H 	H 	0.7198	0.264	0.2682	0.133
Mof_H 	H 	0.0507	0.6239	0.3306	0.13
Mof_H 	H 	0.9932	0.5725	0.3371	0.139
Mof_H 	H 	0.9995	0.5691	0.3036	0.146
Mof_H 	H 	0.9266	0.6329	0.2877	0.125
Mof_H 	H 	0.9563	0.6483	0.262	0.126
Mof_H 	H 	0.9001	0.5861	0.2608	0.136
Mof_H 	H 	0.008	0.7559	0.2931	0.125
Mof_H 	H 	0.9929	0.7707	0.3134	0.142
Mof_H 	H 	0.0245	0.8023	0.2886	0.141
Mof_H 	H 	0.2171	0.9555	0.399	0.126
Mof_H 	H 	0.2381	0.9721	0.3692	0.131
Mof_H 	H 	0.2121	0.9798	0.3803	0.139
Mof_H 	H 	0.2894	0.9461	0.4075	0.124
Mof_H 	H 	0.2994	0.9488	0.4428	0.137
Mof_H 	H 	0.3358	0.9629	0.4233	0.142
Mof_H 	H 	0.161	0.7255	0.4047	0.143
Mof_H 	H 	0.1981	0.7464	0.3829	0.137
Mof_H 	H 	0.2222	0.7669	0.4193	0.151
Mof_H 	H 	0.2072	0.1232	0.198	0.135
Mof_H 	H 	0.2555	0.1541	0.1836	0.146
Mof_H 	H 	0.1955	0.0915	0.1676	0.139
Mof_H 	H 	0.2965	0.0884	0.2617	0.143
Mof_H 	H 	0.2709	0.0493	0.229	0.14
Mof_H 	H 	0.3277	0.1136	0.2359	0.152
Mof_H 	H 	0.2055	0.9719	0.282	0.118
Mof_H 	H 	0.2388	0.0077	0.3171	0.125
Mof_H 	H 	0.2004	0.9471	0.3077	0.135
Mof_H 	H 	0.0394	0.8986	0.3374	0.145
Mof_H 	H 	0.0054	0.8436	0.3156	0.142
Mof_H 	H 	0.0413	0.8682	0.3495	0.154
Mof_H 	H 	0.968	0.8943	0.2867	0.118
Mof_H 	H 	0.95	0.9129	0.2897	0.128
Mof_H 	H 	0.9207	0.8672	0.2599	0.132
Mof_H 	H 	0.1051	0.0729	0.221	0.141
Mof_H 	H 	0.0571	0.0213	0.1916	0.133
Mof_H 	H 	0.0498	0.0447	0.2117	0.147
Mof_H 	H 	0.2841	0.03	0.0793	0.135
Mof_H 	H 	0.257	0.9941	0.0449	0.146
Mof_H 	H 	0.2334	0.0037	0.0581	0.135
Mof_H 	H 	0.387	0.1922	0.0048	0.131
Mof_H 	H 	0.3429	0.1363	0.9786	0.144
Mof_H 	H 	0.4006	0.1707	0.9943	0.15
Mof_H 	H 	0.499	0.3252	0.0436	0.135
Mof_H 	H 	0.5069	0.3653	0.0376	0.144
Mof_H 	H 	0.4476	0.3012	0.0274	0.131
Mof_H 	H 	0.4506	0.354	0.1552	0.123
Mof_H 	H 	0.4647	0.3912	0.1365	0.136
Mof_H 	H 	0.5124	0.413	0.1578	0.136
Mof_H 	H 	0.414	0.2768	0.2158	0.129
Mof_H 	H 	0.3595	0.2328	0.2261	0.141
Mof_H 	H 	0.3619	0.2496	0.1961	0.128
Mof_H 	H 	0.2744	0.0571	0.1381	0.131
Mof_H 	H 	0.2447	0.0419	0.1638	0.149
Mof_H 	H 	0.2978	0.0663	0.1719	0.153
Mof_H 	H 	0.3604	0.8786	0.3808	0.135
Mof_H 	H 	0.3057	0.8514	0.3731	0.152
Mof_H 	H 	0.3081	0.8233	0.3888	0.153
Mof_H 	H 	0.366	0.9472	0.5062	0.125
Mof_H 	H 	0.309	0.9095	0.4847	0.134
Mof_H 	H 	0.3634	0.972	0.4856	0.131
Mof_H 	H 	0.4897	0.0831	0.5394	0.124
Mof_H 	H 	0.5362	0.1392	0.566	0.14
Mof_H 	H 	0.5115	0.0886	0.5723	0.134
Mof_H 	H 	0.6976	0.1909	0.5323	0.136
Mof_H 	H 	0.7199	0.2351	0.559	0.147
Mof_H 	H 	0.7077	0.2317	0.524	0.137
Mof_H 	H 	0.6874	0.1437	0.4643	0.122
Mof_H 	H 	0.7014	0.1495	0.4323	0.139
Mof_H 	H 	0.6953	0.1174	0.4511	0.135
Mof_H 	H 	0.4618	0.9251	0.3745	0.122
Mof_H 	H 	0.5009	0.9414	0.3567	0.135
Mof_H 	H 	0.4903	0.967	0.3547	0.131
Mof_Ag	Ag	0.95734	0.52362	0.01842	0.413
Mof_Ag	Ag	0.07319	0.58953	0.01136	0.338
Mof_Ag	Ag	0.97977	0.52663	0.52286	0.335
Mof_Ag	Ag	0.39207	0.18655	0.56534	0.323
Mof_Ag	Ag	0.39972	0.23201	0.63209	0.353
Mof_Ag	Ag	0.61044	0.49436	0.77658	0.411
Mof_Ag	Ag	0.56053	0.96672	0.28727	0.397
Mof_Ag	Ag	0.66225	0.01282	0.27247	0.324
Mof_Ag	Ag	0.6086	0.02642	0.22972	0.368
Mof_Ag	Ag	0.20038	0.36953	0.38957	0.33
Mof_Ag	Ag	0.08566	0.27963	0.33627	0.345
Mof_Ag	Ag	0.12005	0.23976	0.36395	0.414
Mof_Ag	Ag	0.61133	0.29219	0.93738	0.335
Mof_Ag	Ag	0.65947	0.35747	0.88546	0.346
Mof_Ag	Ag	0.5619	0.31626	0.91288	0.413
Mof_Ag	Ag	0.12661	0.85031	0.42798	0.36
Mof_Ag	Ag	0.05508	0.7281	0.40776	0.313
Mof_Ag	Ag	0.18183	0.83477	0.46016	0.404
Mof_Ag	Ag	0.77582	0.64049	0.37671	0.365
Mof_Ag	Ag	0.76092	0.59491	0.30595	0.395
Mof_Ag	Ag	0.64981	0.53065	0.32106	0.317
Mof_Ag	Ag	0.46736	0.19984	0.10102	0.356
Mof_Ag	Ag	0.48605	0.25236	0.16849	0.352
Mof_Ag	Ag	0.55074	0.33197	0.11913	0.371
Mof_Ag	Ag	0.35575	0.96865	0.21164	0.366
Mof_Ag	Ag	0.26623	0.84071	0.19138	0.35
Mof_Ag	Ag	0.23255	0.87831	0.15894	0.385
Mof_Ag	Ag	0.53761	0.47004	0.50251	0.398
Mof_Ag	Ag	0.48267	0.47781	0.45858	0.309
Mof_Ag	Ag	0.41694	0.39968	0.50776	0.372
Mof_N 	N 	0.02876	0.59496	0.05212	-0.199
Mof_N 	N 	0.07402	0.61824	0.04926	-0.201
Mof_N 	N 	0.0679	0.59611	0.49141	-0.21
Mof_N 	N 	0.02462	0.57634	0.49436	-0.208
Mof_N 	N 	0.88531	0.43961	0.95632	-0.2
Mof_N 	N 	0.88675	0.45816	0.98251	-0.202
Mof_N 	N 	0.42301	0.25454	0.57195	-0.21
Mof_N 	N 	0.4259	0.27328	0.59938	-0.2
Mof_N 	N 	0.6853	0.52274	0.82364	-0.201
Mof_N 	N 	0.63401	0.47937	0.80398	-0.203
Mof_N 	N 	0.32784	0.08183	0.57447	-0.201
Mof_N 	N 	0.35193	0.11302	0.55455	-0.205
Mof_N 	N 	0.58669	0.95218	0.31107	-0.201
Mof_N 	N 	0.62965	0.97241	0.30546	-0.205
Mof_N 	N 	0.54804	0.81059	0.35623	-0.212
Mof_N 	N 	0.55222	0.83262	0.38244	-0.207
Mof_N 	N 	0.54405	0.99556	0.23841	-0.206
Mof_N 	N 	0.5243	0.96962	0.26092	-0.207
Mof_N 	N 	0.1789	0.39277	0.37527	-0.208
Mof_N 	N 	0.13234	0.35599	0.35193	-0.209
Mof_N 	N 	0.21914	0.53796	0.3347	-0.208
Mof_N 	N 	0.22061	0.54921	0.36402	-0.204
Mof_N 	N 	0.19536	0.3	0.39656	-0.198
Mof_N 	N 	0.22509	0.35	0.40549	-0.203
Mof_N 	N 	0.67615	0.325	0.92755	-0.21
Mof_N 	N 	0.69741	0.35301	0.90602	-0.208
Mof_N 	N 	0.62867	0.37069	0.86856	-0.204
Mof_N 	N 	0.59064	0.35533	0.87817	-0.199
Mof_N 	N 	0.54318	0.28618	0.95116	-0.2
Mof_N 	N 	0.55775	0.27025	0.957	-0.198
Mof_N 	N 	0.04652	0.78491	0.40183	-0.2
Mof_N 	N 	0.01736	0.73493	0.39269	-0.205
Mof_N 	N 	0.08525	0.71576	0.42861	-0.201
Mof_N 	N 	0.13418	0.75698	0.45096	-0.197
Mof_N 	N 	0.22358	0.90954	0.47492	-0.201
Mof_N 	N 	0.20237	0.91566	0.46023	-0.199
Mof_N 	N 	0.84174	0.67344	0.36758	-0.2
Mof_N 	N 	0.83367	0.65264	0.33891	-0.204
Mof_N 	N 	0.68754	0.52897	0.27291	-0.2
Mof_N 	N 	0.64215	0.50331	0.27806	-0.201
Mof_N 	N 	0.65702	0.55478	0.365	-0.208
Mof_N 	N 	0.70584	0.59796	0.3868	-0.201
Mof_N 	N 	0.42964	0.15274	0.13118	-0.21
Mof_N 	N 	0.44015	0.17653	0.15968	-0.21
Mof_N 	N 	0.53487	0.32958	0.18085	-0.21
Mof_N 	N 	0.56034	0.36236	0.1617	-0.205
Mof_N 	N 	0.54035	0.29884	0.07739	-0.205
Mof_N 	N 	0.50421	0.24548	0.07029	-0.208
Mof_N 	N 	0.38079	0.94828	0.22527	-0.205
Mof_N 	N 	0.34333	0.89479	0.21652	-0.202
Mof_N 	N 	0.19283	0.78409	0.15832	-0.21
Mof_N 	N 	0.18026	0.79902	0.14308	-0.201
Mof_N 	N 	0.29205	0.96047	0.17072	-0.206
Mof_N 	N 	0.33965	0.99528	0.19253	-0.203
Mof_N 	N 	0.57474	0.51236	0.4701	-0.2
Mof_N 	N 	0.55297	0.51704	0.45301	-0.203
Mof_N 	N 	0.40678	0.43081	0.45779	-0.207
Mof_N 	N 	0.37968	0.39808	0.47656	-0.2
Mof_N 	N 	0.44978	0.39325	0.53443	-0.201
Mof_N 	N 	0.49565	0.41812	0.53017	-0.203
Mof_C 	C 	0.00161	0.61425	0.08286	-0.479
Mof_C 	C 	0.04291	0.62832	0.07463	0.159
Mof_C 	C 	0.09893	0.67488	0.08761	-0.113
Mof_C 	C 	0.11683	0.66681	0.07084	0.159
Mof_C 	C 	0.17297	0.70341	0.07318	-0.479
Mof_C 	C 	0.14321	0.66139	0.4682	-0.505
Mof_C 	C 	0.09497	0.63359	0.47656	0.171
Mof_C 	C 	0.06914	0.63923	0.46957	-0.128
Mof_C 	C 	0.02434	0.60141	0.48135	0.176
Mof_C 	C 	0.98156	0.58747	0.48083	-0.513
Mof_C 	C 	0.82462	0.37816	0.90438	-0.471
Mof_C 	C 	0.83831	0.40584	0.93555	0.159
Mof_C 	C 	0.80955	0.40263	0.94798	-0.118
Mof_C 	C 	0.84132	0.43605	0.97797	0.164
Mof_C 	C 	0.8323	0.4497	0.0026	-0.482
Mof_C 	C 	0.43356	0.26939	0.52095	-0.483
Mof_C 	C 	0.4342	0.28171	0.55291	0.161
Mof_C 	C 	0.44483	0.31876	0.56699	-0.122
Mof_C 	C 	0.43847	0.31177	0.59624	0.17
Mof_C 	C 	0.44685	0.34157	0.62282	-0.494
Mof_C 	C 	0.73848	0.54117	0.86725	-0.502
Mof_C 	C 	0.68801	0.5036	0.84281	0.171
Mof_C 	C 	0.63796	0.44746	0.83482	-0.125
Mof_C 	C 	0.60545	0.43399	0.81064	0.169
Mof_C 	C 	0.54831	0.3792	0.79311	-0.482
Mof_C 	C 	0.26298	0.98924	0.57522	-0.491
Mof_C 	C 	0.29489	0.03222	0.55931	0.171
Mof_C 	C 	0.29645	0.03028	0.52893	-0.123
Mof_C 	C 	0.33328	0.08231	0.52679	0.166
Mof_C 	C 	0.35239	0.10502	0.50041	-0.497
Mof_C 	C 	0.51746	0.89069	0.33795	-0.491
Mof_C 	C 	0.56537	0.91886	0.32823	0.177
Mof_C 	C 	0.59329	0.91641	0.3341	-0.126
Mof_C 	C 	0.6338	0.95096	0.31956	0.166
Mof_C 	C 	0.67751	0.96625	0.31816	-0.489
Mof_C 	C 	0.56277	0.82408	0.30545	-0.494
Mof_C 	C 	0.56417	0.83913	0.3365	0.161
Mof_C 	C 	0.57889	0.88004	0.34953	-0.122
Mof_C 	C 	0.57033	0.87352	0.37845	0.173
Mof_C 	C 	0.58044	0.90632	0.40376	-0.5
Mof_C 	C 	0.52025	0.01009	0.19834	-0.503
Mof_C 	C 	0.51107	0.98893	0.225	0.176
Mof_C 	C 	0.46959	0.95869	0.23868	-0.126
Mof_C 	C 	0.47866	0.9464	0.26086	0.173
Mof_C 	C 	0.44777	0.91503	0.2828	-0.504
Mof_C 	C 	0.25755	0.48845	0.4056	-0.491
Mof_C 	C 	0.20481	0.4402	0.38081	0.164
Mof_C 	C 	0.17505	0.43525	0.3609	-0.124
Mof_C 	C 	0.12951	0.38077	0.34308	0.171
Mof_C 	C 	0.08225	0.35048	0.31853	-0.508
Mof_C 	C 	0.19798	0.47479	0.30037	-0.504
Mof_C 	C 	0.20152	0.49519	0.32971	0.168
Mof_C 	C 	0.19113	0.47807	0.3564	-0.12
Mof_C 	C 	0.20404	0.51385	0.37709	0.168
Mof_C 	C 	0.20104	0.51561	0.40925	-0.494
Mof_C 	C 	0.20338	0.25384	0.40382	-0.494
Mof_C 	C 	0.22555	0.30321	0.40956	0.169
Mof_C 	C 	0.27603	0.35579	0.42722	-0.12
Mof_C 	C 	0.27343	0.38378	0.42381	0.158
Mof_C 	C 	0.31547	0.44239	0.43686	-0.479
Mof_C 	C 	0.69881	0.31048	0.96849	-0.532
Mof_C 	C 	0.71181	0.33667	0.94408	0.185
Mof_C 	C 	0.75758	0.37338	0.93356	-0.129
Mof_C 	C 	0.74684	0.38244	0.90928	0.163
Mof_C 	C 	0.78094	0.41786	0.8892	-0.488
Mof_C 	C 	0.69179	0.42809	0.83708	-0.477
Mof_C 	C 	0.64946	0.40461	0.85167	0.155
Mof_C 	C 	0.62502	0.4118	0.85002	-0.111
Mof_C 	C 	0.5882	0.3793	0.8671	0.159
Mof_C 	C 	0.54959	0.37009	0.87368	-0.474
Mof_C 	C 	0.51234	0.30489	0.97603	-0.506
Mof_C 	C 	0.53011	0.28917	0.97508	0.174
Mof_C 	C 	0.5378	0.2755	0.9979	-0.119
Mof_C 	C 	0.55468	0.26414	0.98542	0.158
Mof_C 	C 	0.57091	0.24895	0.99906	-0.475
Mof_C 	C 	0.03206	0.82644	0.4001	-0.528
Mof_C 	C 	0.01248	0.77929	0.39437	0.185
Mof_C 	C 	0.96044	0.72457	0.38021	-0.124
Mof_C 	C 	0.96519	0.69817	0.37956	0.156
Mof_C 	C 	0.92308	0.63914	0.36782	-0.482
Mof_C 	C 	0.00215	0.61566	0.40941	-0.463
Mof_C 	C 	0.05733	0.6688	0.43153	0.147
Mof_C 	C 	0.08651	0.67835	0.45586	-0.111
Mof_C 	C 	0.1351	0.73494	0.46744	0.161
Mof_C 	C 	0.18391	0.76994	0.49305	-0.468
Mof_C 	C 	0.29198	0.95496	0.52234	-0.497
Mof_C 	C 	0.26053	0.9495	0.50123	0.17
Mof_C 	C 	0.26324	0.98234	0.50358	-0.117
Mof_C 	C 	0.2261	0.95973	0.47723	0.158
Mof_C 	C 	0.21134	0.97761	0.46715	-0.474
Mof_C 	C 	0.90739	0.72939	0.41878	-0.5
Mof_C 	C 	0.8884	0.70236	0.38596	0.168
Mof_C 	C 	0.91004	0.69938	0.36882	-0.12
Mof_C 	C 	0.87509	0.66879	0.33968	0.161
Mof_C 	C 	0.87711	0.65147	0.31138	-0.479
Mof_C 	C 	0.71465	0.51825	0.2347	-0.489
Mof_C 	C 	0.67325	0.50071	0.24616	0.173
Mof_C 	C 	0.6171	0.45501	0.23371	-0.118
Mof_C 	C 	0.59908	0.45818	0.25466	0.157
Mof_C 	C 	0.54308	0.42167	0.25355	-0.484
Mof_C 	C 	0.56012	0.48267	0.35959	-0.487
Mof_C 	C 	0.6183	0.53165	0.37795	0.156
Mof_C 	C 	0.64186	0.55955	0.40901	-0.122
Mof_C 	C 	0.6974	0.60141	0.41361	0.175
Mof_C 	C 	0.74356	0.6462	0.44136	-0.509
Mof_C 	C 	0.38056	0.06776	0.10252	-0.503
Mof_C 	C 	0.39648	0.10265	0.13013	0.173
Mof_C 	C 	0.38495	0.09351	0.15826	-0.133
Mof_C 	C 	0.41297	0.14079	0.17596	0.183
Mof_C 	C 	0.41561	0.1552	0.20761	-0.515
Mof_C 	C 	0.52901	0.33231	0.23372	-0.471
Mof_C 	C 	0.54997	0.35814	0.20791	0.158
Mof_C 	C 	0.58606	0.41022	0.20688	-0.124
Mof_C 	C 	0.5911	0.41072	0.17722	0.181
Mof_C 	C 	0.6229	0.45443	0.16193	-0.514
Mof_C 	C 	0.59917	0.37459	0.05436	-0.465
Mof_C 	C 	0.55584	0.31569	0.05253	0.156
Mof_C 	C 	0.52984	0.27362	0.02886	-0.122
Mof_C 	C 	0.49863	0.23079	0.04142	0.173
Mof_C 	C 	0.46169	0.1741	0.02739	-0.5
Mof_C 	C 	0.47986	0.03826	0.24632	-0.498
Mof_C 	C 	0.43057	0.97827	0.23444	0.166
Mof_C 	C 	0.42559	0.94319	0.23138	-0.117
Mof_C 	C 	0.37006	0.89159	0.21985	0.17
Mof_C 	C 	0.3402	0.83792	0.21212	-0.5
Mof_C 	C 	0.16861	0.7115	0.15151	-0.496
Mof_C 	C 	0.16467	0.73817	0.14044	0.168
Mof_C 	C 	0.13255	0.72146	0.11361	-0.121
Mof_C 	C 	0.1433	0.76046	0.11656	0.163
Mof_C 	C 	0.11916	0.76323	0.09459	-0.474
Mof_C 	C 	0.25668	0.9652	0.13088	-0.489
Mof_C 	C 	0.30067	0.99038	0.15585	0.162
Mof_C 	C 	0.35447	0.04527	0.16794	-0.119
Mof_C 	C 	0.37701	0.0461	0.19131	0.174
Mof_C 	C 	0.43269	0.09265	0.21254	-0.507
Mof_C 	C 	0.64201	0.52968	0.47069	-0.523
Mof_C 	C 	0.61074	0.52885	0.45739	0.187
Mof_C 	C 	0.61191	0.54372	0.43163	-0.126
Mof_C 	C 	0.57498	0.53605	0.42983	0.163
Mof_C 	C 	0.56035	0.54688	0.40803	-0.482
Mof_C 	C 	0.3924	0.44927	0.41407	-0.479
Mof_C 	C 	0.37401	0.42016	0.43817	0.155
Mof_C 	C 	0.3234	0.37902	0.44382	-0.12
Mof_C 	C 	0.32892	0.36652	0.46804	0.173
Mof_C 	C 	0.28944	0.32771	0.48535	-0.498
Mof_C 	C 	0.37434	0.31997	0.55611	-0.479
Mof_C 	C 	0.42586	0.35499	0.54845	0.157
Mof_C 	C 	0.45661	0.35496	0.55377	-0.112
Mof_C 	C 	0.49967	0.39509	0.54156	0.161
Mof_C 	C 	0.54547	0.41349	0.54016	-0.48
Mof_H 	H 	0.9653	0.578	0.0701	0.122
Mof_H 	H 	0.0036	0.6149	0.1045	0.139
Mof_H 	H 	0.0092	0.6407	0.0793	0.137
Mof_H 	H 	0.1717	0.6851	0.0586	0.122
Mof_H 	H 	0.1939	0.7366	0.0685	0.135
Mof_H 	H 	0.1902	0.7125	0.0941	0.135
Mof_H 	H 	0.1345	0.6343	0.458	0.146
Mof_H 	H 	0.1534	0.6825	0.4543	0.148
Mof_H 	H 	0.1735	0.6857	0.4868	0.134
Mof_H 	H 	0.9688	0.5758	0.499	0.132
Mof_H 	H 	0.9961	0.6193	0.4808	0.148
Mof_H 	H 	0.9514	0.5581	0.4623	0.149
Mof_H 	H 	0.8475	0.3798	0.9049	0.122
Mof_H 	H 	0.7864	0.3402	0.8982	0.132
Mof_H 	H 	0.831	0.3964	0.8896	0.128
Mof_H 	H 	0.8672	0.4844	0.0174	0.119
Mof_H 	H 	0.8146	0.4525	0.9937	0.139
Mof_H 	H 	0.8092	0.4213	0.0131	0.137
Mof_H 	H 	0.4081	0.2315	0.5142	0.125
Mof_H 	H 	0.4222	0.2754	0.507	0.14
Mof_H 	H 	0.47	0.2933	0.5209	0.137
Mof_H 	H 	0.47	0.3529	0.6413	0.141
Mof_H 	H 	0.4642	0.3735	0.6185	0.147
Mof_H 	H 	0.4117	0.3177	0.626	0.131
Mof_H 	H 	0.7604	0.5775	0.8719	0.128
Mof_H 	H 	0.7294	0.5286	0.8856	0.144
Mof_H 	H 	0.759	0.5422	0.8604	0.14
Mof_H 	H 	0.5357	0.3825	0.7774	0.121
Mof_H 	H 	0.5461	0.3572	0.7833	0.138
Mof_H 	H 	0.5254	0.3617	0.8071	0.136
Mof_H 	H 	0.2524	0.9939	0.5903	0.125
Mof_H 	H 	0.2304	0.9536	0.5602	0.141
Mof_H 	H 	0.2852	0.992	0.5856	0.138
Mof_H 	H 	0.3898	0.1437	0.5079	0.133
Mof_H 	H 	0.3511	0.086	0.4867	0.146
Mof_H 	H 	0.3291	0.1005	0.4892	0.135
Mof_H 	H 	0.4962	0.8854	0.3226	0.125
Mof_H 	H 	0.5301	0.913	0.3577	0.142
Mof_H 	H 	0.4949	0.8555	0.34	0.142
Mof_H 	H 	0.7105	0.0045	0.3186	0.127
Mof_H 	H 	0.666	0.9437	0.2991	0.132
Mof_H 	H 	0.6848	0.9605	0.3357	0.138
Mof_H 	H 	0.5337	0.785	0.2989	0.127
Mof_H 	H 	0.5976	0.8438	0.3062	0.142
Mof_H 	H 	0.556	0.8335	0.2909	0.144
Mof_H 	H 	0.5988	0.9137	0.4233	0.142
Mof_H 	H 	0.5457	0.8859	0.4048	0.135
Mof_H 	H 	0.6033	0.9406	0.3997	0.15
Mof_H 	H 	0.5531	0.0294	0.1941	0.133
Mof_H 	H 	0.5245	0.0349	0.203	0.145
Mof_H 	H 	0.4891	0.9798	0.1803	0.143
Mof_H 	H 	0.4697	0.9215	0.2986	0.128
Mof_H 	H 	0.4142	0.8763	0.2719	0.142
Mof_H 	H 	0.4391	0.9265	0.2924	0.145
Mof_H 	H 	0.2802	0.49	0.405	0.128
Mof_H 	H 	0.2504	0.4852	0.4256	0.145
Mof_H 	H 	0.2765	0.5217	0.4024	0.142
Mof_H 	H 	0.0487	0.3157	0.322	0.146
Mof_H 	H 	0.0849	0.3441	0.2986	0.136
Mof_H 	H 	0.082	0.3718	0.3188	0.149
Mof_H 	H 	0.184	0.4754	0.2834	0.136
Mof_H 	H 	0.1734	0.4374	0.298	0.148
Mof_H 	H 	0.2341	0.4978	0.3003	0.137
Mof_H 	H 	0.1906	0.5272	0.4136	0.129
Mof_H 	H 	0.2365	0.5413	0.4232	0.136
Mof_H 	H 	0.1741	0.4796	0.4121	0.139
Mof_H 	H 	0.181	0.2318	0.3826	0.129
Mof_H 	H 	0.1813	0.2326	0.4177	0.141
Mof_H 	H 	0.2334	0.265	0.4074	0.145
Mof_H 	H 	0.2984	0.4458	0.4434	0.124
Mof_H 	H 	0.3328	0.4614	0.4212	0.128
Mof_H 	H 	0.3429	0.4584	0.4545	0.132
Mof_H 	H 	0.662	0.2715	0.9609	0.154
Mof_H 	H 	0.7247	0.3163	0.9744	0.159
Mof_H 	H 	0.7011	0.3264	0.9863	0.143
Mof_H 	H 	0.7762	0.4346	0.8848	0.127
Mof_H 	H 	0.8192	0.4463	0.8997	0.141
Mof_H 	H 	0.7699	0.3961	0.87	0.138
Mof_H 	H 	0.6869	0.4027	0.8324	0.126
Mof_H 	H 	0.6884	0.4347	0.8181	0.141
Mof_H 	H 	0.7279	0.4624	0.8513	0.128
Mof_H 	H 	0.5445	0.3637	0.8938	0.121
Mof_H 	H 	0.5645	0.4022	0.8735	0.135
Mof_H 	H 	0.5147	0.3385	0.858	0.134
Mof_H 	H 	0.5073	0.308	0.9559	0.13
Mof_H 	H 	0.4779	0.2772	0.9813	0.145
Mof_H 	H 	0.5398	0.3398	0.9914	0.14
Mof_H 	H 	0.5926	0.2559	0.9875	0.119
Mof_H 	H 	0.5923	0.2706	0.0205	0.137
Mof_H 	H 	0.5383	0.2103	0.998	0.134
Mof_H 	H 	0.0651	0.8556	0.3937	0.15
Mof_H 	H 	0.0042	0.8158	0.3884	0.159
Mof_H 	H 	0.04	0.8392	0.422	0.142
Mof_H 	H 	0.9323	0.6304	0.3807	0.125
Mof_H 	H 	0.8875	0.6172	0.3683	0.138
Mof_H 	H 	0.922	0.6314	0.3468	0.133
Mof_H 	H 	0.9997	0.6218	0.3899	0.118
Mof_H 	H 	0.997	0.59	0.406	0.131
Mof_H 	H 	0.974	0.6008	0.418	0.127
Mof_H 	H 	0.2081	0.8074	0.4979	0.117
Mof_H 	H 	0.1727	0.7567	0.5112	0.133
Mof_H 	H 	0.203	0.7687	0.4869	0.134
Mof_H 	H 	0.2788	0.9239	0.5149	0.127
Mof_H 	H 	0.3304	0.9885	0.5233	0.143
Mof_H 	H 	0.2877	0.9562	0.5429	0.142
Mof_H 	H 	0.174	0.9463	0.4539	0.12
Mof_H 	H 	0.2146	0.9942	0.4852	0.137
Mof_H 	H 	0.236	0.0042	0.4558	0.132
Mof_H 	H 	0.8761	0.7067	0.4268	0.13
Mof_H 	H 	0.9275	0.7646	0.4207	0.139
Mof_H 	H 	0.9309	0.7345	0.4304	0.147
Mof_H 	H 	0.8671	0.6548	0.2937	0.125
Mof_H 	H 	0.8517	0.6137	0.308	0.126
Mof_H 	H 	0.9139	0.6747	0.314	0.136
Mof_H 	H 	0.7441	0.5372	0.2521	0.125
Mof_H 	H 	0.7293	0.5427	0.2222	0.143
Mof_H 	H 	0.6977	0.4863	0.2222	0.142
Mof_H 	H 	0.5445	0.4435	0.2616	0.126
Mof_H 	H 	0.5279	0.3971	0.266	0.13
Mof_H 	H 	0.5202	0.4005	0.2323	0.139
Mof_H 	H 	0.5539	0.4614	0.3433	0.124
Mof_H 	H 	0.5512	0.494	0.3506	0.137
Mof_H 	H 	0.5371	0.4604	0.3729	0.142
Mof_H 	H 	0.7745	0.6792	0.4355	0.143
Mof_H 	H 	0.7536	0.6365	0.4517	0.137
Mof_H 	H 	0.7331	0.6524	0.4553	0.151
Mof_H 	H 	0.3768	0.0748	0.084	0.135
Mof_H 	H 	0.3459	0.0295	0.1014	0.146
Mof_H 	H 	0.4085	0.0761	0.104	0.139
Mof_H 	H 	0.4116	0.1733	0.2081	0.143
Mof_H 	H 	0.4507	0.1797	0.2216	0.14
Mof_H 	H 	0.3864	0.1223	0.2141	0.152
Mof_H 	H 	0.5281	0.3101	0.2336	0.119
Mof_H 	H 	0.4923	0.3094	0.2311	0.126
Mof_H 	H 	0.5529	0.3606	0.2533	0.136
Mof_H 	H 	0.6014	0.4388	0.1408	0.145
Mof_H 	H 	0.6564	0.472	0.1618	0.142
Mof_H 	H 	0.6318	0.4813	0.1731	0.154
Mof_H 	H 	0.6057	0.3924	0.0737	0.119
Mof_H 	H 	0.5871	0.3768	0.0371	0.128
Mof_H 	H 	0.6328	0.3927	0.0535	0.132
Mof_H 	H 	0.4271	0.1481	0.0322	0.141
Mof_H 	H 	0.4787	0.1703	0.0358	0.133
Mof_H 	H 	0.4553	0.167	0.0051	0.147
Mof_H 	H 	0.47	0.0493	0.2541	0.134
Mof_H 	H 	0.5059	0.0508	0.2629	0.146
Mof_H 	H 	0.4963	0.0544	0.2297	0.134
Mof_H 	H 	0.3078	0.8126	0.1948	0.131
Mof_H 	H 	0.3637	0.8423	0.2066	0.144
Mof_H 	H 	0.3293	0.8236	0.2299	0.15
Mof_H 	H 	0.1748	0.7184	0.1738	0.135
Mof_H 	H 	0.1347	0.6723	0.1416	0.144
Mof_H 	H 	0.1988	0.7262	0.1464	0.131
Mof_H 	H 	0.146	0.8012	0.0966	0.123
Mof_H 	H 	0.1088	0.7453	0.0735	0.136
Mof_H 	H 	0.087	0.7448	0.0994	0.136
Mof_H 	H 	0.2232	0.939	0.1372	0.129
Mof_H 	H 	0.2672	0.9933	0.1267	0.141
Mof_H 	H 	0.2504	0.9465	0.1123	0.128
Mof_H 	H 	0.4429	0.081	0.2173	0.132
Mof_H 	H 	0.4581	0.1219	0.2028	0.15
Mof_H 	H 	0.4337	0.1056	0.2315	0.153
Mof_H 	H 	0.6214	0.5022	0.4818	0.135
Mof_H 	H 	0.6486	0.5217	0.4543	0.152
Mof_H 	H 	0.6767	0.5655	0.4848	0.153
Mof_H 	H 	0.5528	0.559	0.4188	0.125
Mof_H 	H 	0.5905	0.5752	0.3995	0.134
Mof_H 	H 	0.528	0.5136	0.3914	0.131
Mof_H 	H 	0.4169	0.4563	0.4066	0.124
Mof_H 	H 	0.3608	0.4268	0.397	0.14
Mof_H 	H 	0.4114	0.4837	0.4229	0.134
Mof_H 	H 	0.3091	0.3414	0.5067	0.136
Mof_H 	H 	0.2649	0.3239	0.4848	0.147
Mof_H 	H 	0.2683	0.2923	0.476	0.137
Mof_H 	H 	0.3563	0.3206	0.5437	0.122
Mof_H 	H 	0.3505	0.2828	0.5519	0.139
Mof_H 	H 	0.3826	0.3337	0.5779	0.135
Mof_H 	H 	0.5749	0.4494	0.5367	0.122
Mof_H 	H 	0.5586	0.4153	0.5595	0.135
Mof_H 	H 	0.533	0.3877	0.5233	0.131
Mof_Ag	Ag	0.0052	0.93892	0.48158	0.416
Mof_Ag	Ag	0.07817	0.06183	0.48864	0.338
Mof_Ag	Ag	0.50377	0.45691	0.97714	0.336
Mof_Ag	Ag	0.12121	0.82673	0.93466	0.324
Mof_Ag	Ag	0.09992	0.76763	0.86791	0.354
Mof_Ag	Ag	0.21778	0.83386	0.72342	0.411
Mof_Ag	Ag	0.17945	0.27326	0.21273	0.397
Mof_Ag	Ag	0.24035	0.38978	0.22753	0.324
Mof_Ag	Ag	0.2967	0.37888	0.27028	0.367
Mof_Ag	Ag	0.47996	0.81081	0.11043	0.329
Mof_Ag	Ag	0.44336	0.74939	0.16373	0.346
Mof_Ag	Ag	0.37581	0.7561	0.13605	0.414
Mof_Ag	Ag	0.85481	0.67395	0.56262	0.335
Mof_Ag	Ag	0.97201	0.77401	0.61454	0.345
Mof_Ag	Ag	0.90338	0.64902	0.58712	0.413
Mof_Ag	Ag	0.92233	0.69863	0.07202	0.36
Mof_Ag	Ag	0.82034	0.64732	0.09224	0.312
Mof_Ag	Ag	0.87461	0.72167	0.03984	0.404
Mof_Ag	Ag	0.76378	0.39911	0.12329	0.365
Mof_Ag	Ag	0.78896	0.45497	0.19405	0.395
Mof_Ag	Ag	0.70959	0.32875	0.17894	0.317
Mof_Ag	Ag	0.59882	0.36634	0.39898	0.356
Mof_Ag	Ag	0.58387	0.31756	0.33151	0.352
Mof_Ag	Ag	0.71284	0.43161	0.38087	0.371
Mof_Ag	Ag	0.25701	0.14411	0.28836	0.366
Mof_Ag	Ag	0.14933	0.07485	0.30862	0.349
Mof_Ag	Ag	0.21937	0.07361	0.34106	0.385
Mof_Ag	Ag	0.46753	0.0351	0.99749	0.397
Mof_Ag	Ag	0.51923	0.02409	0.04142	0.309
Mof_Ag	Ag	0.39192	0.90918	0.99224	0.372
Mof_N 	N 	0.04284	0.97664	0.44788	-0.199
Mof_N 	N 	0.06898	0.02476	0.45074	-0.202
Mof_N 	N 	0.6047	0.57649	0.00859	-0.21
Mof_N 	N 	0.58198	0.53026	0.00564	-0.208
Mof_N 	N 	0.98329	0.92899	0.54368	-0.2
Mof_N 	N 	0.97565	0.90424	0.51749	-0.202
Mof_N 	N 	0.18259	0.85106	0.92805	-0.21
Mof_N 	N 	0.1739	0.82652	0.90062	-0.2
Mof_N 	N 	0.1991	0.86166	0.67636	-0.201
Mof_N 	N 	0.17539	0.83003	0.69602	-0.203
Mof_N 	N 	0.00736	0.75337	0.92553	-0.2
Mof_N 	N 	0.05847	0.79738	0.94545	-0.205
Mof_N 	N 	0.14111	0.27562	0.18893	-0.201
Mof_N 	N 	0.16695	0.32419	0.19454	-0.204
Mof_N 	N 	0.95436	0.19181	0.14377	-0.212
Mof_N 	N 	0.95018	0.16978	0.11756	-0.208
Mof_N 	N 	0.25715	0.30564	0.26159	-0.206
Mof_N 	N 	0.2087	0.26338	0.23908	-0.207
Mof_N 	N 	0.5175	0.80363	0.12473	-0.208
Mof_N 	N 	0.50406	0.78041	0.14807	-0.209
Mof_N 	N 	0.70326	0.88444	0.1653	-0.207
Mof_N 	N 	0.68519	0.85659	0.13598	-0.204
Mof_N 	N 	0.40344	0.7988	0.10344	-0.198
Mof_N 	N 	0.44451	0.8196	0.09451	-0.203
Mof_N 	N 	0.89745	0.7486	0.57245	-0.21
Mof_N 	N 	0.94699	0.79139	0.59398	-0.208
Mof_N 	N 	0.00213	0.76011	0.63144	-0.203
Mof_N 	N 	0.97716	0.71247	0.62183	-0.2
Mof_N 	N 	0.83502	0.59202	0.54884	-0.2
Mof_N 	N 	0.81325	0.60075	0.543	-0.198
Mof_N 	N 	0.88308	0.64469	0.09817	-0.2
Mof_N 	N 	0.84224	0.62467	0.10731	-0.205
Mof_N 	N 	0.78715	0.65664	0.07139	-0.201
Mof_N 	N 	0.80602	0.68322	0.04904	-0.197
Mof_N 	N 	0.93462	0.74866	0.02508	-0.201
Mof_N 	N 	0.95543	0.74214	0.03977	-0.199
Mof_N 	N 	0.80586	0.47416	0.13242	-0.2
Mof_N 	N 	0.81373	0.49476	0.16109	-0.204
Mof_N 	N 	0.75606	0.41463	0.22709	-0.2
Mof_N 	N 	0.72525	0.36409	0.22194	-0.201
Mof_N 	N 	0.68978	0.29202	0.135	-0.208
Mof_N 	N 	0.71116	0.31904	0.1132	-0.201
Mof_N 	N 	0.52156	0.29846	0.36882	-0.21
Mof_N 	N 	0.51685	0.28047	0.34032	-0.211
Mof_N 	N 	0.64873	0.35402	0.31915	-0.21
Mof_N 	N 	0.70066	0.39864	0.3383	-0.205
Mof_N 	N 	0.72145	0.46296	0.42261	-0.205
Mof_N 	N 	0.67519	0.43392	0.42971	-0.208
Mof_N 	N 	0.22301	0.15552	0.27473	-0.205
Mof_N 	N 	0.17827	0.12681	0.28348	-0.202
Mof_N 	N 	0.12577	0.03451	0.34168	-0.21
Mof_N 	N 	0.15594	0.03718	0.35692	-0.201
Mof_N 	N 	0.28975	0.12133	0.32928	-0.206
Mof_N 	N 	0.30275	0.14712	0.30747	-0.203
Mof_N 	N 	0.54226	0.10464	0.0299	-0.2
Mof_N 	N 	0.56403	0.09996	0.04699	-0.203
Mof_N 	N 	0.47302	0.94899	0.04221	-0.207
Mof_N 	N 	0.42152	0.90312	0.02344	-0.2
Mof_N 	N 	0.35882	0.91535	0.96557	-0.201
Mof_N 	N 	0.38795	0.96548	0.96983	-0.203
Mof_C 	C 	0.03139	0.91875	0.41714	-0.481
Mof_C 	C 	0.05369	0.96828	0.42537	0.161
Mof_C 	C 	0.08727	0.01132	0.41239	-0.114
Mof_C 	C 	0.09597	0.04599	0.42916	0.159
Mof_C 	C 	0.13023	0.09979	0.42682	-0.479
Mof_C 	C 	0.69319	0.67501	0.0318	-0.505
Mof_C 	C 	0.65703	0.61841	0.02344	0.171
Mof_C 	C 	0.66966	0.59957	0.03043	-0.128
Mof_C 	C 	0.62006	0.54299	0.01865	0.176
Mof_C 	C 	0.60664	0.50073	0.01917	-0.512
Mof_C 	C 	0.97378	0.92024	0.59562	-0.475
Mof_C 	C 	0.97029	0.90276	0.56445	0.16
Mof_C 	C 	0.95465	0.86157	0.55202	-0.119
Mof_C 	C 	0.95808	0.86335	0.52203	0.164
Mof_C 	C 	0.9471	0.8297	0.4974	-0.482
Mof_C 	C 	0.24844	0.91261	0.97905	-0.484
Mof_C 	C 	0.2288	0.88129	0.94709	0.161
Mof_C 	C 	0.25177	0.87784	0.93301	-0.122
Mof_C 	C 	0.21553	0.84223	0.90376	0.17
Mof_C 	C 	0.21875	0.82403	0.87718	-0.494
Mof_C 	C 	0.17392	0.87123	0.63275	-0.502
Mof_C 	C 	0.16079	0.8452	0.65719	0.171
Mof_C 	C 	0.11264	0.80314	0.66518	-0.124
Mof_C 	C 	0.12335	0.79481	0.68936	0.168
Mof_C 	C 	0.08609	0.7552	0.70689	-0.482
Mof_C 	C 	0.91402	0.68776	0.92478	-0.489
Mof_C 	C 	0.97291	0.73558	0.94069	0.169
Mof_C 	C 	0.00135	0.76752	0.97107	-0.12
Mof_C 	C 	0.05552	0.80649	0.97321	0.165
Mof_C 	C 	0.10461	0.85198	0.99959	-0.496
Mof_C 	C 	0.05274	0.17951	0.16205	-0.49
Mof_C 	C 	0.09063	0.23714	0.17177	0.176
Mof_C 	C 	0.08231	0.25919	0.1659	-0.125
Mof_C 	C 	0.1314	0.31424	0.18044	0.165
Mof_C 	C 	0.14809	0.35935	0.18184	-0.487
Mof_C 	C 	0.01863	0.25732	0.19455	-0.497
Mof_C 	C 	0.00263	0.22767	0.1635	0.162
Mof_C 	C 	0.03051	0.22936	0.15047	-0.125
Mof_C 	C 	0.99507	0.19188	0.12155	0.177
Mof_C 	C 	0.00256	0.17668	0.09624	-0.51
Mof_C 	C 	0.31175	0.32191	0.30166	-0.504
Mof_C 	C 	0.26393	0.28607	0.275	0.176
Mof_C 	C 	0.22001	0.23091	0.26132	-0.126
Mof_C 	C 	0.18554	0.2178	0.23914	0.173
Mof_C 	C 	0.13223	0.16497	0.2172	-0.504
Mof_C 	C 	0.58285	0.85195	0.0944	-0.491
Mof_C 	C 	0.55939	0.824	0.11919	0.164
Mof_C 	C 	0.57435	0.81415	0.1391	-0.124
Mof_C 	C 	0.53769	0.78643	0.15692	0.171
Mof_C 	C 	0.53195	0.76372	0.18147	-0.509
Mof_C 	C 	0.67442	0.89761	0.19963	-0.504
Mof_C 	C 	0.66548	0.87181	0.17029	0.168
Mof_C 	C 	0.62167	0.83473	0.1436	-0.12
Mof_C 	C 	0.63676	0.82695	0.12291	0.168
Mof_C 	C 	0.60636	0.79179	0.09075	-0.494
Mof_C 	C 	0.35002	0.79956	0.09618	-0.494
Mof_C 	C 	0.39365	0.81599	0.09044	0.169
Mof_C 	C 	0.42857	0.84881	0.07278	-0.12
Mof_C 	C 	0.45997	0.84962	0.07619	0.158
Mof_C 	C 	0.50553	0.87861	0.06314	-0.479
Mof_C 	C 	0.84199	0.73032	0.53151	-0.531
Mof_C 	C 	0.89259	0.76773	0.55592	0.185
Mof_C 	C 	0.93982	0.82402	0.56644	-0.128
Mof_C 	C 	0.97316	0.83756	0.59072	0.162
Mof_C 	C 	0.02866	0.89174	0.6108	-0.486
Mof_C 	C 	0.09101	0.85471	0.66292	-0.477
Mof_C 	C 	0.05294	0.79779	0.64833	0.155
Mof_C 	C 	0.06178	0.775	0.64998	-0.112
Mof_C 	C 	0.0122	0.7211	0.6329	0.161
Mof_C 	C 	0.99641	0.67591	0.62632	-0.478
Mof_C 	C 	0.82886	0.53631	0.52397	-0.506
Mof_C 	C 	0.81409	0.55503	0.52492	0.174
Mof_C 	C 	0.7776	0.5399	0.5021	-0.119
Mof_C 	C 	0.77872	0.56926	0.51458	0.158
Mof_C 	C 	0.74989	0.57185	0.50094	-0.475
Mof_C 	C 	0.92634	0.63196	0.0999	-0.527
Mof_C 	C 	0.88492	0.61811	0.10563	0.184
Mof_C 	C 	0.84436	0.58023	0.11979	-0.123
Mof_C 	C 	0.81861	0.58563	0.12044	0.157
Mof_C 	C 	0.77132	0.55526	0.13218	-0.482
Mof_C 	C 	0.70625	0.59274	0.09059	-0.466
Mof_C 	C 	0.73727	0.6258	0.06847	0.148
Mof_C 	C 	0.72249	0.63065	0.04414	-0.112
Mof_C 	C 	0.7675	0.66766	0.03256	0.161
Mof_C 	C 	0.77689	0.69086	0.00695	-0.468
Mof_C 	C 	0.93262	0.76964	0.97766	-0.497
Mof_C 	C 	0.94827	0.7593	0.99877	0.171
Mof_C 	C 	0.97876	0.75966	0.99642	-0.119
Mof_C 	C 	0.9825	0.74887	0.02277	0.158
Mof_C 	C 	0.01046	0.74419	0.03285	-0.473
Mof_C 	C 	0.81061	0.48861	0.08122	-0.501
Mof_C 	C 	0.8164	0.50244	0.11404	0.169
Mof_C 	C 	0.83056	0.54122	0.13118	-0.12
Mof_C 	C 	0.82911	0.53541	0.16032	0.161
Mof_C 	C 	0.84009	0.56573	0.18862	-0.479
Mof_C 	C 	0.78355	0.47995	0.2653	-0.489
Mof_C 	C 	0.75455	0.42709	0.25384	0.173
Mof_C 	C 	0.7213	0.38339	0.26629	-0.118
Mof_C 	C 	0.70352	0.34442	0.24534	0.157
Mof_C 	C 	0.66812	0.28953	0.24645	-0.484
Mof_C 	C 	0.62308	0.20053	0.14041	-0.487
Mof_C 	C 	0.6537	0.24035	0.12205	0.156
Mof_C 	C 	0.65054	0.23285	0.09099	-0.122
Mof_C 	C 	0.6878	0.28379	0.08639	0.175
Mof_C 	C 	0.70484	0.3022	0.05864	-0.509
Mof_C 	C 	0.46524	0.27804	0.39748	-0.503
Mof_C 	C 	0.47252	0.26635	0.36987	0.173
Mof_C 	C 	0.43525	0.22669	0.34174	-0.133
Mof_C 	C 	0.46483	0.23701	0.32404	0.184
Mof_C 	C 	0.44759	0.208	0.29239	-0.515
Mof_C 	C 	0.59859	0.29529	0.26628	-0.471
Mof_C 	C 	0.65023	0.34206	0.29209	0.158
Mof_C 	C 	0.70334	0.37918	0.29312	-0.124
Mof_C 	C 	0.7335	0.41388	0.32278	0.181
Mof_C 	C 	0.7925	0.46097	0.33807	-0.514
Mof_C 	C 	0.82023	0.54481	0.44564	-0.465
Mof_C 	C 	0.76316	0.50331	0.44747	0.156
Mof_C 	C 	0.74476	0.50098	0.47114	-0.122
Mof_C 	C 	0.68937	0.45721	0.45858	0.173
Mof_C 	C 	0.64671	0.4343	0.47261	-0.5
Mof_C 	C 	0.29194	0.23354	0.25368	-0.497
Mof_C 	C 	0.24383	0.19613	0.26556	0.165
Mof_C 	C 	0.21181	0.19421	0.26862	-0.117
Mof_C 	C 	0.17174	0.15021	0.28015	0.17
Mof_C 	C 	0.1258	0.12808	0.28788	-0.499
Mof_C 	C 	0.05999	0.0171	0.34849	-0.5
Mof_C 	C 	0.09773	0.02423	0.35956	0.169
Mof_C 	C 	0.10785	0.01894	0.38639	-0.121
Mof_C 	C 	0.1439	0.02674	0.38344	0.164
Mof_C 	C 	0.16864	0.02457	0.40541	-0.476
Mof_C 	C 	0.33432	0.1258	0.36912	-0.488
Mof_C 	C 	0.33453	0.14482	0.34415	0.162
Mof_C 	C 	0.37733	0.18653	0.33206	-0.119
Mof_C 	C 	0.35479	0.1857	0.30869	0.174
Mof_C 	C 	0.38011	0.22015	0.28746	-0.508
Mof_C 	C 	0.55899	0.17132	0.02931	-0.523
Mof_C 	C 	0.57146	0.15335	0.04261	0.187
Mof_C 	C 	0.61209	0.18028	0.06837	-0.126
Mof_C 	C 	0.60622	0.14515	0.07017	0.163
Mof_C 	C 	0.63885	0.15232	0.09197	-0.482
Mof_C 	C 	0.5352	0.97833	0.08593	-0.48
Mof_C 	C 	0.48199	0.93584	0.06183	0.155
Mof_C 	C 	0.4352	0.87958	0.05618	-0.12
Mof_C 	C 	0.39848	0.86088	0.03196	0.173
Mof_C 	C 	0.34236	0.80409	0.01465	-0.498
Mof_C 	C 	0.26386	0.81823	0.94389	-0.479
Mof_C 	C 	0.30654	0.87741	0.95155	0.157
Mof_C 	C 	0.30119	0.90284	0.94623	-0.112
Mof_C 	C 	0.35353	0.95811	0.95844	0.162
Mof_C 	C 	0.37333	0.00531	0.95984	-0.482
Mof_H 	H 	0.0079	0.8952	0.4299	0.122
Mof_H 	H 	0.0104	0.8991	0.3955	0.14
Mof_H 	H 	0.0614	0.9299	0.4207	0.137
Mof_H 	H 	0.1265	0.1131	0.4414	0.122
Mof_H 	H 	0.1681	0.1254	0.4315	0.135
Mof_H 	H 	0.1184	0.0961	0.4059	0.135
Mof_H 	H 	0.6763	0.6765	0.042	0.146
Mof_H 	H 	0.7282	0.6991	0.0457	0.148
Mof_H 	H 	0.6989	0.6867	0.0132	0.134
Mof_H 	H 	0.5768	0.4698	0.001	0.132
Mof_H 	H 	0.6385	0.5153	0.0192	0.148
Mof_H 	H 	0.5958	0.4891	0.0377	0.149
Mof_H 	H 	0.9749	0.9426	0.5951	0.123
Mof_H 	H 	0.942	0.8882	0.6018	0.134
Mof_H 	H 	0.0068	0.9414	0.6104	0.13
Mof_H 	H 	0.967	0.8498	0.4826	0.118
Mof_H 	H 	0.9588	0.8209	0.5063	0.139
Mof_H 	H 	0.9082	0.7961	0.4869	0.137
Mof_H 	H 	0.2173	0.8939	0.9858	0.125
Mof_H 	H 	0.2684	0.9152	0.993	0.14
Mof_H 	H 	0.2724	0.9491	0.9791	0.137
Mof_H 	H 	0.2116	0.8287	0.8587	0.141
Mof_H 	H 	0.255	0.8457	0.8815	0.147
Mof_H 	H 	0.1917	0.7857	0.874	0.131
Mof_H 	H 	0.2056	0.8885	0.6281	0.128
Mof_H 	H 	0.143	0.8438	0.6144	0.145
Mof_H 	H 	0.1818	0.8986	0.6396	0.14
Mof_H 	H 	0.1051	0.7583	0.7226	0.121
Mof_H 	H 	0.0739	0.7628	0.7167	0.138
Mof_H 	H 	0.0546	0.7183	0.6929	0.136
Mof_H 	H 	0.9036	0.6621	0.9097	0.125
Mof_H 	H 	0.8934	0.6702	0.9398	0.14
Mof_H 	H 	0.9064	0.6996	0.9144	0.137
Mof_H 	H 	0.1358	0.8819	0.9921	0.133
Mof_H 	H 	0.0993	0.8644	0.0133	0.146
Mof_H 	H 	0.1113	0.8399	0.0108	0.135
Mof_H 	H 	0.0628	0.1736	0.1774	0.125
Mof_H 	H 	0.0553	0.1724	0.1423	0.141
Mof_H 	H 	0.0155	0.1549	0.16	0.141
Mof_H 	H 	0.1859	0.3919	0.1814	0.126
Mof_H 	H 	0.1446	0.3669	0.2009	0.132
Mof_H 	H 	0.1248	0.3491	0.1643	0.137
Mof_H 	H 	0.9861	0.2348	0.2011	0.129
Mof_H 	H 	0.0376	0.2914	0.1938	0.143
Mof_H 	H 	0.0426	0.2651	0.2091	0.145
Mof_H 	H 	0.9904	0.1755	0.0767	0.145
Mof_H 	H 	0.9811	0.1409	0.0952	0.138
Mof_H 	H 	0.0409	0.2036	0.1003	0.153
Mof_H 	H 	0.3353	0.359	0.3059	0.133
Mof_H 	H 	0.3319	0.3215	0.297	0.145
Mof_H 	H 	0.2995	0.3088	0.3197	0.143
Mof_H 	H 	0.1229	0.1711	0.2014	0.128
Mof_H 	H 	0.1044	0.1423	0.2281	0.142
Mof_H 	H 	0.1341	0.1467	0.2076	0.145
Mof_H 	H 	0.585	0.8752	0.095	0.128
Mof_H 	H 	0.5596	0.8248	0.0744	0.145
Mof_H 	H 	0.6193	0.8741	0.0976	0.142
Mof_H 	H 	0.4937	0.7267	0.178	0.146
Mof_H 	H 	0.5455	0.7863	0.2014	0.137
Mof_H 	H 	0.553	0.7632	0.1812	0.149
Mof_H 	H 	0.692	0.9006	0.2166	0.136
Mof_H 	H 	0.6394	0.8754	0.202	0.148
Mof_H 	H 	0.6975	0.9338	0.1997	0.136
Mof_H 	H 	0.6136	0.777	0.0864	0.129
Mof_H 	H 	0.6181	0.8133	0.0768	0.136
Mof_H 	H 	0.5675	0.762	0.0879	0.139
Mof_H 	H 	0.3492	0.7984	0.1174	0.129
Mof_H 	H 	0.3149	0.7636	0.0823	0.142
Mof_H 	H 	0.3576	0.826	0.0926	0.145
Mof_H 	H 	0.5024	0.855	0.0566	0.124
Mof_H 	H 	0.5402	0.9116	0.0788	0.128
Mof_H 	H 	0.5039	0.8884	0.0455	0.132
Mof_H 	H 	0.8106	0.7011	0.5391	0.154
Mof_H 	H 	0.8419	0.7503	0.5256	0.159
Mof_H 	H 	0.8401	0.7148	0.5137	0.143
Mof_H 	H 	0.0498	0.8914	0.6152	0.127
Mof_H 	H 	0.0466	0.9195	0.6003	0.141
Mof_H 	H 	0.0261	0.8999	0.63	0.138
Mof_H 	H 	0.0703	0.8545	0.6676	0.126
Mof_H 	H 	0.1166	0.8703	0.6819	0.141
Mof_H 	H 	0.1111	0.8766	0.6487	0.128
Mof_H 	H 	0.9699	0.6507	0.6062	0.122
Mof_H 	H 	0.0287	0.691	0.6265	0.136
Mof_H 	H 	0.9805	0.6567	0.642	0.135
Mof_H 	H 	0.8521	0.5514	0.5441	0.13
Mof_H 	H 	0.7959	0.4966	0.5187	0.145
Mof_H 	H 	0.8484	0.5484	0.5086	0.14
Mof_H 	H 	0.7684	0.6051	0.5125	0.119
Mof_H 	H 	0.7501	0.5718	0.4795	0.137
Mof_H 	H 	0.7123	0.5403	0.502	0.134
Mof_H 	H 	0.9619	0.6714	0.1063	0.15
Mof_H 	H 	0.9274	0.6158	0.1116	0.158
Mof_H 	H 	0.9172	0.618	0.078	0.142
Mof_H 	H 	0.7497	0.5516	0.1193	0.125
Mof_H 	H 	0.7489	0.5192	0.1317	0.138
Mof_H 	H 	0.7846	0.5752	0.1532	0.133
Mof_H 	H 	0.7319	0.6098	0.1101	0.119
Mof_H 	H 	0.684	0.591	0.094	0.132
Mof_H 	H 	0.6828	0.556	0.082	0.128
Mof_H 	H 	0.8095	0.7102	0.0021	0.118
Mof_H 	H 	0.7455	0.6615	0.9888	0.133
Mof_H 	H 	0.7818	0.7161	0.0131	0.134
Mof_H 	H 	0.909	0.7639	0.9851	0.127
Mof_H 	H 	0.9652	0.8071	0.9767	0.143
Mof_H 	H 	0.9133	0.7448	0.9571	0.142
Mof_H 	H 	0.9924	0.7201	0.0461	0.119
Mof_H 	H 	0.009	0.7294	0.0148	0.137
Mof_H 	H 	0.0484	0.7802	0.0442	0.132
Mof_H 	H 	0.7799	0.4493	0.0732	0.13
Mof_H 	H 	0.8439	0.5068	0.0793	0.139
Mof_H 	H 	0.8041	0.5005	0.0696	0.147
Mof_H 	H 	0.8611	0.5734	0.2063	0.126
Mof_H 	H 	0.8057	0.5437	0.192	0.126
Mof_H 	H 	0.8607	0.5999	0.186	0.136
Mof_H 	H 	0.7851	0.492	0.2479	0.125
Mof_H 	H 	0.8205	0.5071	0.2778	0.143
Mof_H 	H 	0.7641	0.4755	0.2778	0.142
Mof_H 	H 	0.6819	0.2829	0.2384	0.126
Mof_H 	H 	0.6311	0.2619	0.234	0.13
Mof_H 	H 	0.6682	0.2879	0.2677	0.139
Mof_H 	H 	0.6181	0.2106	0.1567	0.124
Mof_H 	H 	0.6434	0.2006	0.1494	0.137
Mof_H 	H 	0.5875	0.1642	0.1271	0.142
Mof_H 	H 	0.7437	0.339	0.0645	0.143
Mof_H 	H 	0.6848	0.3019	0.0483	0.137
Mof_H 	H 	0.6971	0.2778	0.0447	0.151
Mof_H 	H 	0.4908	0.2928	0.416	0.135
Mof_H 	H 	0.4281	0.2445	0.3986	0.146
Mof_H 	H 	0.4721	0.3045	0.396	0.139
Mof_H 	H 	0.4652	0.2035	0.2919	0.143
Mof_H 	H 	0.4581	0.2291	0.2784	0.14
Mof_H 	H 	0.4082	0.1723	0.2859	0.152
Mof_H 	H 	0.5765	0.2945	0.2664	0.119
Mof_H 	H 	0.5783	0.2612	0.2689	0.126
Mof_H 	H 	0.6073	0.2996	0.2467	0.136
Mof_H 	H 	0.798	0.4606	0.3592	0.145
Mof_H 	H 	0.8102	0.4946	0.3382	0.142
Mof_H 	H 	0.8082	0.4587	0.3269	0.154
Mof_H 	H 	0.8187	0.532	0.4263	0.119
Mof_H 	H 	0.8397	0.55	0.4629	0.128
Mof_H 	H 	0.8392	0.5793	0.4465	0.132
Mof_H 	H 	0.6159	0.3949	0.4678	0.141
Mof_H 	H 	0.6345	0.4429	0.4642	0.133
Mof_H 	H 	0.6619	0.4502	0.4949	0.147
Mof_H 	H 	0.2952	0.2159	0.2459	0.134
Mof_H 	H 	0.2879	0.243	0.2371	0.146
Mof_H 	H 	0.3247	0.2666	0.2703	0.134
Mof_H 	H 	0.1178	0.113	0.3052	0.131
Mof_H 	H 	0.1357	0.1571	0.2934	0.144
Mof_H 	H 	0.0937	0.0994	0.2701	0.15
Mof_H 	H 	0.0446	0.001	0.3262	0.136
Mof_H 	H 	0.0307	0.9931	0.3584	0.146
Mof_H 	H 	0.0798	0.0524	0.3536	0.132
Mof_H 	H 	0.2046	0.0494	0.4034	0.123
Mof_H 	H 	0.1718	0.0353	0.4265	0.136
Mof_H 	H 	0.1454	0.9876	0.4006	0.138
Mof_H 	H 	0.3018	0.086	0.3628	0.129
Mof_H 	H 	0.3666	0.1405	0.3733	0.141
Mof_H 	H 	0.3342	0.1381	0.3877	0.128
Mof_H 	H 	0.3637	0.2256	0.2827	0.132
Mof_H 	H 	0.4191	0.2553	0.2972	0.15
Mof_H 	H 	0.3741	0.2022	0.2685	0.153
Mof_H 	H 	0.5204	0.1396	0.0182	0.135
Mof_H 	H 	0.5674	0.1943	0.0457	0.152
Mof_H 	H 	0.5807	0.1919	0.0152	0.153
Mof_H 	H 	0.6402	0.134	0.0812	0.125
Mof_H 	H 	0.6757	0.191	0.1005	0.134
Mof_H 	H 	0.6222	0.1366	0.1086	0.131
Mof_H 	H 	0.5497	0.0103	0.0934	0.125
Mof_H 	H 	0.5298	0.9638	0.103	0.14
Mof_H 	H 	0.5608	0.9885	0.0771	0.134
Mof_H 	H 	0.3347	0.8024	0.9933	0.136
Mof_H 	H 	0.3391	0.7801	0.0152	0.147
Mof_H 	H 	0.3163	0.7923	0.024	0.137
Mof_H 	H 	0.2769	0.8126	0.9563	0.123
Mof_H 	H 	0.2309	0.7986	0.9481	0.139
Mof_H 	H 	0.2558	0.8047	0.9221	0.135
Mof_H 	H 	0.4127	0.0382	0.9633	0.123
Mof_H 	H 	0.3558	0.9991	0.9405	0.136
Mof_H 	H 	0.3644	0.0097	0.9767	0.131
Mof_Ag	Ag	0.02362	0.5052	0.56628	0.413
Mof_Ag	Ag	0.08953	0.57817	0.51634	0.338
Mof_Ag	Ag	0.02663	0.00377	0.54686	0.335
Mof_Ag	Ag	0.68655	0.62121	0.79448	0.323
Mof_Ag	Ag	0.73201	0.59992	0.83229	0.354
Mof_Ag	Ag	0.99436	0.71778	0.88392	0.409
Mof_Ag	Ag	0.46672	0.67945	0.40619	0.397
Mof_Ag	Ag	0.51282	0.74035	0.35057	0.324
Mof_Ag	Ag	0.52642	0.7967	0.41782	0.367
Mof_Ag	Ag	0.86953	0.97996	0.16915	0.328
Mof_Ag	Ag	0.77963	0.94336	0.19397	0.345
Mof_Ag	Ag	0.73976	0.87581	0.11971	0.414
Mof_Ag	Ag	0.79219	0.35481	0.68086	0.335
Mof_Ag	Ag	0.85747	0.47201	0.698	0.346
Mof_Ag	Ag	0.81626	0.40338	0.75436	0.413
Mof_Ag	Ag	0.35031	0.42233	0.7237	0.36
Mof_Ag	Ag	0.2281	0.32034	0.67302	0.312
Mof_Ag	Ag	0.33477	0.37461	0.65294	0.404
Mof_Ag	Ag	0.14049	0.26378	0.86467	0.365
Mof_Ag	Ag	0.09491	0.28896	0.83399	0.395
Mof_Ag	Ag	0.03065	0.20959	0.88084	0.317
Mof_Ag	Ag	0.69984	0.09882	0.73248	0.356
Mof_Ag	Ag	0.75236	0.08387	0.76631	0.352
Mof_Ag	Ag	0.83197	0.21284	0.78123	0.371
Mof_Ag	Ag	0.46865	0.75701	0.6129	0.366
Mof_Ag	Ag	0.34071	0.64933	0.57448	0.35
Mof_Ag	Ag	0.37831	0.71937	0.64576	0.385
Mof_Ag	Ag	0.97004	0.96753	0.93243	0.397
Mof_Ag	Ag	0.97781	0.01923	0.99514	0.312
Mof_Ag	Ag	0.89968	0.89192	0.98274	0.371
Mof_N 	N 	0.09496	0.54284	0.5662	-0.199
Mof_N 	N 	0.11824	0.56898	0.54422	-0.201
Mof_N 	N 	0.09611	0.1047	0.52821	-0.21
Mof_N 	N 	0.07634	0.08198	0.55172	-0.208
Mof_N 	N 	0.93961	0.48329	0.5543	-0.2
Mof_N 	N 	0.95816	0.47565	0.57141	-0.202
Mof_N 	N 	0.75454	0.68259	0.83153	-0.21
Mof_N 	N 	0.77328	0.6739	0.84738	-0.2
Mof_N 	N 	0.02274	0.6991	0.83744	-0.201
Mof_N 	N 	0.97937	0.67539	0.84536	-0.203
Mof_N 	N 	0.58183	0.50736	0.75399	-0.201
Mof_N 	N 	0.61302	0.55847	0.76109	-0.205
Mof_N 	N 	0.45218	0.64111	0.36549	-0.201
Mof_N 	N 	0.47241	0.66695	0.34276	-0.205
Mof_N 	N 	0.31059	0.45436	0.26255	-0.212
Mof_N 	N 	0.33262	0.45018	0.2804	-0.207
Mof_N 	N 	0.49556	0.75715	0.45151	-0.206
Mof_N 	N 	0.46962	0.7087	0.44532	-0.207
Mof_N 	N 	0.89277	0.0175	0.21387	-0.208
Mof_N 	N 	0.85599	0.00406	0.22365	-0.209
Mof_N 	N 	0.03796	0.20326	0.31882	-0.208
Mof_N 	N 	0.04921	0.18519	0.3286	-0.204
Mof_N 	N 	0.8	0.90344	0.10464	-0.198
Mof_N 	N 	0.85	0.94451	0.12491	-0.202
Mof_N 	N 	0.825	0.39745	0.64885	-0.21
Mof_N 	N 	0.85301	0.44699	0.6556	-0.208
Mof_N 	N 	0.87069	0.50213	0.74202	-0.204
Mof_N 	N 	0.85533	0.47716	0.76469	-0.199
Mof_N 	N 	0.78618	0.33502	0.743	-0.2
Mof_N 	N 	0.77025	0.31325	0.7125	-0.198
Mof_N 	N 	0.28491	0.38308	0.73839	-0.2
Mof_N 	N 	0.23493	0.34224	0.71757	-0.205
Mof_N 	N 	0.21576	0.28715	0.63051	-0.201
Mof_N 	N 	0.25698	0.30602	0.6228	-0.197
Mof_N 	N 	0.40954	0.43462	0.68596	-0.201
Mof_N 	N 	0.41566	0.45543	0.71329	-0.199
Mof_N 	N 	0.17344	0.30586	0.8317	-0.2
Mof_N 	N 	0.15264	0.31373	0.81897	-0.204
Mof_N 	N 	0.02897	0.25606	0.84143	-0.2
Mof_N 	N 	0.00331	0.22525	0.86116	-0.201
Mof_N 	N 	0.05478	0.18978	0.89776	-0.208
Mof_N 	N 	0.09796	0.21116	0.89212	-0.201
Mof_N 	N 	0.65274	0.02156	0.7231	-0.209
Mof_N 	N 	0.67653	0.01685	0.73638	-0.21
Mof_N 	N 	0.82958	0.14873	0.79471	-0.211
Mof_N 	N 	0.86236	0.20066	0.80202	-0.205
Mof_N 	N 	0.79884	0.22145	0.75849	-0.205
Mof_N 	N 	0.74548	0.17519	0.74127	-0.208
Mof_N 	N 	0.44828	0.72301	0.56749	-0.205
Mof_N 	N 	0.39479	0.67827	0.55146	-0.202
Mof_N 	N 	0.28409	0.62577	0.59126	-0.21
Mof_N 	N 	0.29902	0.65594	0.61876	-0.201
Mof_N 	N 	0.46047	0.78975	0.66842	-0.206
Mof_N 	N 	0.49528	0.80275	0.65563	-0.203
Mof_N 	N 	0.01236	0.04226	0.93762	-0.2
Mof_N 	N 	0.01704	0.06403	0.96407	-0.204
Mof_N 	N 	0.93081	0.97302	0.02403	-0.207
Mof_N 	N 	0.89808	0.92152	0.0184	-0.2
Mof_N 	N 	0.89325	0.85882	0.94347	-0.201
Mof_N 	N 	0.91812	0.88795	0.92247	-0.203
Mof_C 	C 	0.11425	0.53139	0.61264	-0.479
Mof_C 	C 	0.12832	0.55369	0.58541	0.159
Mof_C 	C 	0.17488	0.58727	0.57595	-0.113
Mof_C 	C 	0.16681	0.59597	0.54998	0.159
Mof_C 	C 	0.20341	0.63023	0.53044	-0.479
Mof_C 	C 	0.16139	0.19319	0.51818	-0.504
Mof_C 	C 	0.13359	0.15703	0.53862	0.171
Mof_C 	C 	0.13923	0.16966	0.57009	-0.128
Mof_C 	C 	0.10141	0.12006	0.57707	0.176
Mof_C 	C 	0.08747	0.10664	0.60591	-0.512
Mof_C 	C 	0.87816	0.47378	0.55354	-0.471
Mof_C 	C 	0.90584	0.47029	0.56753	0.159
Mof_C 	C 	0.90263	0.45465	0.59308	-0.118
Mof_C 	C 	0.93605	0.45808	0.59473	0.164
Mof_C 	C 	0.9497	0.4471	0.6174	-0.483
Mof_C 	C 	0.76939	0.74844	0.83583	-0.483
Mof_C 	C 	0.78171	0.7288	0.84751	0.161
Mof_C 	C 	0.81876	0.75177	0.87393	-0.122
Mof_C 	C 	0.81177	0.71553	0.8733	0.17
Mof_C 	C 	0.84157	0.71875	0.89472	-0.494
Mof_C 	C 	0.04117	0.67392	0.80269	-0.502
Mof_C 	C 	0.0036	0.66079	0.81559	0.172
Mof_C 	C 	0.94746	0.61264	0.8095	-0.126
Mof_C 	C 	0.93399	0.62335	0.82854	0.169
Mof_C 	C 	0.8792	0.58609	0.83089	-0.482
Mof_C 	C 	0.48924	0.41402	0.72626	-0.491
Mof_C 	C 	0.53222	0.47291	0.73733	0.171
Mof_C 	C 	0.53028	0.50135	0.73383	-0.122
Mof_C 	C 	0.58231	0.55552	0.74903	0.166
Mof_C 	C 	0.60502	0.60461	0.75263	-0.497
Mof_C 	C 	0.39069	0.55274	0.37323	-0.491
Mof_C 	C 	0.41886	0.59063	0.35349	0.177
Mof_C 	C 	0.41641	0.58231	0.32312	-0.126
Mof_C 	C 	0.45096	0.6314	0.31716	0.166
Mof_C 	C 	0.46625	0.64809	0.28874	-0.488
Mof_C 	C 	0.32408	0.51863	0.26131	-0.494
Mof_C 	C 	0.33913	0.50263	0.27496	0.161
Mof_C 	C 	0.38004	0.53051	0.30115	-0.122
Mof_C 	C 	0.37352	0.49507	0.30319	0.173
Mof_C 	C 	0.40632	0.50256	0.32588	-0.5
Mof_C 	C 	0.51009	0.81175	0.48984	-0.503
Mof_C 	C 	0.48893	0.76393	0.47786	0.176
Mof_C 	C 	0.45869	0.72001	0.4891	-0.126
Mof_C 	C 	0.4464	0.68554	0.46774	0.173
Mof_C 	C 	0.41503	0.63223	0.46726	-0.504
Mof_C 	C 	0.98845	0.08285	0.2309	-0.487
Mof_C 	C 	0.9402	0.05939	0.23539	0.163
Mof_C 	C 	0.93525	0.07435	0.2602	-0.124
Mof_C 	C 	0.88077	0.03769	0.25126	0.17
Mof_C 	C 	0.85048	0.03195	0.26823	-0.506
Mof_C 	C 	0.97479	0.17442	0.27681	-0.505
Mof_C 	C 	0.99519	0.16548	0.29367	0.169
Mof_C 	C 	0.97807	0.12167	0.28694	-0.12
Mof_C 	C 	0.01385	0.13676	0.30981	0.168
Mof_C 	C 	0.01561	0.10636	0.31457	-0.498
Mof_C 	C 	0.75384	0.85002	0.05046	-0.494
Mof_C 	C 	0.80321	0.89365	0.07766	0.169
Mof_C 	C 	0.85579	0.92857	0.07976	-0.119
Mof_C 	C 	0.88378	0.95997	0.11035	0.157
Mof_C 	C 	0.94239	0.00553	0.12692	-0.478
Mof_C 	C 	0.81048	0.34199	0.61167	-0.532
Mof_C 	C 	0.83667	0.39259	0.62486	0.185
Mof_C 	C 	0.87338	0.43982	0.6158	-0.129
Mof_C 	C 	0.88244	0.47316	0.6356	0.163
Mof_C 	C 	0.91786	0.52866	0.63692	-0.487
Mof_C 	C 	0.92809	0.59101	0.7363	-0.476
Mof_C 	C 	0.90461	0.55294	0.75515	0.154
Mof_C 	C 	0.9118	0.56178	0.78678	-0.111
Mof_C 	C 	0.8793	0.5122	0.7911	0.159
Mof_C 	C 	0.87009	0.49641	0.8205	-0.474
Mof_C 	C 	0.80489	0.32886	0.79255	-0.506
Mof_C 	C 	0.78917	0.31409	0.75906	0.174
Mof_C 	C 	0.7755	0.2776	0.7377	-0.119
Mof_C 	C 	0.76414	0.27872	0.70946	0.158
Mof_C 	C 	0.74895	0.24989	0.67804	-0.475
Mof_C 	C 	0.32644	0.42634	0.79438	-0.527
Mof_C 	C 	0.27929	0.38492	0.76681	0.184
Mof_C 	C 	0.22457	0.34436	0.76413	-0.123
Mof_C 	C 	0.19817	0.31861	0.73298	0.157
Mof_C 	C 	0.13914	0.27132	0.71606	-0.482
Mof_C 	C 	0.11566	0.20625	0.61351	-0.466
Mof_C 	C 	0.1688	0.23727	0.61147	0.148
Mof_C 	C 	0.17835	0.22249	0.59184	-0.112
Mof_C 	C 	0.23494	0.2675	0.59984	0.161
Mof_C 	C 	0.26994	0.27689	0.58603	-0.468
Mof_C 	C 	0.45496	0.43262	0.66298	-0.497
Mof_C 	C 	0.4495	0.44827	0.68897	0.17
Mof_C 	C 	0.48234	0.47876	0.7191	-0.118
Mof_C 	C 	0.45973	0.4825	0.73363	0.158
Mof_C 	C 	0.47761	0.51046	0.76627	-0.476
Mof_C 	C 	0.22939	0.31061	0.822	-0.501
Mof_C 	C 	0.20236	0.3164	0.81396	0.169
Mof_C 	C 	0.19938	0.33056	0.78934	-0.12
Mof_C 	C 	0.16879	0.32911	0.7937	0.161
Mof_C 	C 	0.15147	0.34009	0.77436	-0.479
Mof_C 	C 	0.01825	0.28355	0.8036	-0.49
Mof_C 	C 	0.00071	0.25455	0.82746	0.173
Mof_C 	C 	0.95501	0.2213	0.83791	-0.117
Mof_C 	C 	0.95818	0.20352	0.8591	0.158
Mof_C 	C 	0.92167	0.16812	0.87859	-0.485
Mof_C 	C 	0.98267	0.12308	0.92255	-0.486
Mof_C 	C 	0.03165	0.1537	0.91335	0.155
Mof_C 	C 	0.05955	0.15054	0.91769	-0.121
Mof_C 	C 	0.10141	0.1878	0.90401	0.175
Mof_C 	C 	0.1462	0.20484	0.90264	-0.509
Mof_C 	C 	0.56776	0.96524	0.6872	-0.503
Mof_C 	C 	0.60265	0.97252	0.70617	0.173
Mof_C 	C 	0.59351	0.93525	0.70856	-0.133
Mof_C 	C 	0.64079	0.96483	0.72782	0.183
Mof_C 	C 	0.6552	0.94759	0.73959	-0.514
Mof_C 	C 	0.83231	0.09859	0.8033	-0.471
Mof_C 	C 	0.85814	0.15023	0.80817	0.158
Mof_C 	C 	0.91022	0.20334	0.82416	-0.125
Mof_C 	C 	0.91072	0.2335	0.81962	0.181
Mof_C 	C 	0.95443	0.2925	0.83153	-0.514
Mof_C 	C 	0.87459	0.32023	0.77542	-0.465
Mof_C 	C 	0.81569	0.26316	0.75985	0.156
Mof_C 	C 	0.77362	0.24476	0.74378	-0.122
Mof_C 	C 	0.73079	0.18937	0.73216	0.173
Mof_C 	C 	0.6741	0.14671	0.71241	-0.5
Mof_C 	C 	0.53826	0.79194	0.5584	-0.497
Mof_C 	C 	0.47827	0.74383	0.5477	0.165
Mof_C 	C 	0.44319	0.71181	0.5176	-0.117
Mof_C 	C 	0.39159	0.67174	0.52153	0.17
Mof_C 	C 	0.33792	0.6258	0.49772	-0.5
Mof_C 	C 	0.2115	0.55999	0.54289	-0.496
Mof_C 	C 	0.23817	0.59773	0.5735	0.168
Mof_C 	C 	0.22146	0.60785	0.58891	-0.121
Mof_C 	C 	0.26046	0.6439	0.61716	0.163
Mof_C 	C 	0.26323	0.66864	0.64407	-0.474
Mof_C 	C 	0.4652	0.83432	0.70852	-0.489
Mof_C 	C 	0.49038	0.83453	0.68971	0.162
Mof_C 	C 	0.54527	0.87733	0.6908	-0.119
Mof_C 	C 	0.5461	0.85479	0.66909	0.174
Mof_C 	C 	0.59265	0.88011	0.65996	-0.507
Mof_C 	C 	0.02968	0.05899	0.88767	-0.523
Mof_C 	C 	0.02885	0.07146	0.91811	0.187
Mof_C 	C 	0.04372	0.11209	0.93181	-0.126
Mof_C 	C 	0.03605	0.10622	0.96107	0.162
Mof_C 	C 	0.04688	0.13885	0.98653	-0.482
Mof_C 	C 	0.94927	0.0352	0.05687	-0.478
Mof_C 	C 	0.92016	0.98199	0.04615	0.154
Mof_C 	C 	0.87902	0.9352	0.05562	-0.12
Mof_C 	C 	0.86652	0.89848	0.0376	0.173
Mof_C 	C 	0.82771	0.84236	0.03827	-0.498
Mof_C 	C 	0.81997	0.76386	0.94563	-0.479
Mof_C 	C 	0.85499	0.80654	0.92913	0.157
Mof_C 	C 	0.85496	0.80119	0.89835	-0.112
Mof_C 	C 	0.89509	0.85353	0.89542	0.161
Mof_C 	C 	0.91349	0.87333	0.86802	-0.479
Mof_H 	H 	0.078	0.5079	0.6127	0.122
Mof_H 	H 	0.1149	0.5104	0.6113	0.139
Mof_H 	H 	0.1407	0.5614	0.6315	0.137
Mof_H 	H 	0.1851	0.6265	0.5134	0.122
Mof_H 	H 	0.2366	0.6681	0.5427	0.135
Mof_H 	H 	0.2125	0.6184	0.5223	0.135
Mof_H 	H 	0.1343	0.1763	0.4998	0.146
Mof_H 	H 	0.1825	0.2282	0.5291	0.148
Mof_H 	H 	0.1857	0.1989	0.5122	0.134
Mof_H 	H 	0.0758	0.0768	0.607	0.132
Mof_H 	H 	0.1193	0.1385	0.6232	0.148
Mof_H 	H 	0.0581	0.0958	0.6067	0.149
Mof_H 	H 	0.8798	0.4749	0.5323	0.122
Mof_H 	H 	0.8402	0.442	0.5538	0.132
Mof_H 	H 	0.8964	0.5068	0.5654	0.128
Mof_H 	H 	0.9844	0.467	0.6172	0.119
Mof_H 	H 	0.9525	0.4588	0.6379	0.139
Mof_H 	H 	0.9213	0.4082	0.6121	0.137
Mof_H 	H 	0.7315	0.7173	0.8234	0.125
Mof_H 	H 	0.7754	0.7684	0.8532	0.14
Mof_H 	H 	0.7933	0.7724	0.8233	0.137
Mof_H 	H 	0.8529	0.7116	0.8829	0.14
Mof_H 	H 	0.8735	0.755	0.9093	0.147
Mof_H 	H 	0.8177	0.6917	0.906	0.131
Mof_H 	H 	0.0775	0.7056	0.8171	0.128
Mof_H 	H 	0.0286	0.643	0.7992	0.145
Mof_H 	H 	0.0422	0.6818	0.7832	0.14
Mof_H 	H 	0.8825	0.6051	0.8468	0.121
Mof_H 	H 	0.8572	0.5739	0.8111	0.138
Mof_H 	H 	0.8617	0.5546	0.8363	0.136
Mof_H 	H 	0.4939	0.4036	0.7415	0.125
Mof_H 	H 	0.4536	0.3934	0.7232	0.141
Mof_H 	H 	0.492	0.4064	0.7068	0.138
Mof_H 	H 	0.6437	0.6358	0.7539	0.133
Mof_H 	H 	0.586	0.5993	0.7349	0.146
Mof_H 	H 	0.6005	0.6113	0.7714	0.135
Mof_H 	H 	0.3854	0.5628	0.3892	0.125
Mof_H 	H 	0.413	0.5553	0.3829	0.142
Mof_H 	H 	0.3555	0.5155	0.3606	0.142
Mof_H 	H 	0.5045	0.6859	0.294	0.126
Mof_H 	H 	0.4437	0.6446	0.2777	0.132
Mof_H 	H 	0.4605	0.6248	0.2757	0.137
Mof_H 	H 	0.285	0.4861	0.2513	0.127
Mof_H 	H 	0.3438	0.5376	0.2462	0.142
Mof_H 	H 	0.3335	0.5426	0.2775	0.144
Mof_H 	H 	0.4137	0.4904	0.3149	0.142
Mof_H 	H 	0.3859	0.4811	0.3402	0.135
Mof_H 	H 	0.4406	0.5409	0.3373	0.15
Mof_H 	H 	0.5294	0.8353	0.4763	0.133
Mof_H 	H 	0.5349	0.8319	0.5104	0.145
Mof_H 	H 	0.4798	0.7995	0.4907	0.143
Mof_H 	H 	0.4215	0.6229	0.4518	0.128
Mof_H 	H 	0.3763	0.6044	0.4621	0.142
Mof_H 	H 	0.4265	0.6341	0.4874	0.145
Mof_H 	H 	0.99	0.085	0.2098	0.128
Mof_H 	H 	0.9852	0.0596	0.2348	0.145
Mof_H 	H 	0.0217	0.1193	0.2452	0.14
Mof_H 	H 	0.8157	0.9937	0.267	0.145
Mof_H 	H 	0.8441	0.0455	0.2592	0.136
Mof_H 	H 	0.8718	0.053	0.2898	0.148
Mof_H 	H 	0.9754	0.192	0.2914	0.136
Mof_H 	H 	0.9374	0.1394	0.264	0.148
Mof_H 	H 	0.9978	0.1975	0.2637	0.137
Mof_H 	H 	0.0272	0.1136	0.3366	0.129
Mof_H 	H 	0.0413	0.1181	0.3048	0.137
Mof_H 	H 	0.9796	0.0675	0.3055	0.141
Mof_H 	H 	0.7318	0.8492	0.0508	0.129
Mof_H 	H 	0.7326	0.8149	0.0513	0.142
Mof_H 	H 	0.765	0.8576	0.0316	0.145
Mof_H 	H 	0.9458	0.0024	0.1474	0.124
Mof_H 	H 	0.9614	0.0402	0.1286	0.128
Mof_H 	H 	0.9584	0.0039	0.1155	0.133
Mof_H 	H 	0.7715	0.3106	0.6095	0.154
Mof_H 	H 	0.8163	0.3419	0.5916	0.159
Mof_H 	H 	0.8264	0.3401	0.6253	0.143
Mof_H 	H 	0.9346	0.5498	0.6584	0.127
Mof_H 	H 	0.9463	0.5466	0.6271	0.14
Mof_H 	H 	0.8961	0.5261	0.6262	0.138
Mof_H 	H 	0.9027	0.5703	0.7158	0.126
Mof_H 	H 	0.9347	0.6166	0.7463	0.14
Mof_H 	H 	0.9624	0.6111	0.7345	0.128
Mof_H 	H 	0.8637	0.4699	0.8192	0.121
Mof_H 	H 	0.9022	0.5287	0.8377	0.135
Mof_H 	H 	0.8385	0.4805	0.8238	0.134
Mof_H 	H 	0.808	0.3521	0.8007	0.13
Mof_H 	H 	0.7772	0.2959	0.7993	0.145
Mof_H 	H 	0.8398	0.3484	0.8	0.14
Mof_H 	H 	0.7559	0.2684	0.6633	0.119
Mof_H 	H 	0.7706	0.2501	0.6783	0.137
Mof_H 	H 	0.7103	0.2123	0.672	0.134
Mof_H 	H 	0.3556	0.4619	0.7905	0.15
Mof_H 	H 	0.3158	0.4274	0.8116	0.158
Mof_H 	H 	0.3392	0.4172	0.7992	0.142
Mof_H 	H 	0.1304	0.2497	0.6981	0.125
Mof_H 	H 	0.1172	0.2489	0.7297	0.138
Mof_H 	H 	0.1314	0.2846	0.7094	0.133
Mof_H 	H 	0.1218	0.2319	0.6221	0.119
Mof_H 	H 	0.09	0.184	0.593	0.132
Mof_H 	H 	0.1008	0.1828	0.6268	0.127
Mof_H 	H 	0.3074	0.3095	0.5993	0.118
Mof_H 	H 	0.2567	0.2455	0.584	0.133
Mof_H 	H 	0.2687	0.2818	0.5657	0.134
Mof_H 	H 	0.4239	0.409	0.6451	0.127
Mof_H 	H 	0.4885	0.4652	0.6581	0.143
Mof_H 	H 	0.4562	0.4133	0.6685	0.142
Mof_H 	H 	0.4463	0.4924	0.7723	0.12
Mof_H 	H 	0.4942	0.509	0.7796	0.137
Mof_H 	H 	0.5042	0.5484	0.7682	0.133
Mof_H 	H 	0.2067	0.2799	0.8306	0.13
Mof_H 	H 	0.2646	0.3439	0.8371	0.139
Mof_H 	H 	0.2345	0.3041	0.8036	0.147
Mof_H 	H 	0.1548	0.3611	0.7877	0.125
Mof_H 	H 	0.1137	0.3057	0.762	0.126
Mof_H 	H 	0.1747	0.3607	0.7608	0.136
Mof_H 	H 	0.0372	0.2851	0.7931	0.125
Mof_H 	H 	0.0427	0.3205	0.8134	0.144
Mof_H 	H 	0.9863	0.2641	0.7886	0.143
Mof_H 	H 	0.9435	0.1819	0.899	0.126
Mof_H 	H 	0.8971	0.1311	0.8692	0.131
Mof_H 	H 	0.9005	0.1682	0.8803	0.139
Mof_H 	H 	0.9614	0.1181	0.9075	0.124
Mof_H 	H 	0.994	0.1434	0.9428	0.137
Mof_H 	H 	0.9604	0.0875	0.9233	0.142
Mof_H 	H 	0.1792	0.2437	0.9047	0.143
Mof_H 	H 	0.1365	0.1848	0.8829	0.137
Mof_H 	H 	0.1524	0.1971	0.9193	0.151
Mof_H 	H 	0.5748	0.9908	0.698	0.135
Mof_H 	H 	0.5295	0.9281	0.6836	0.146
Mof_H 	H 	0.5761	0.9721	0.6676	0.139
Mof_H 	H 	0.6733	0.9652	0.7617	0.143
Mof_H 	H 	0.6797	0.9581	0.729	0.14
Mof_H 	H 	0.6223	0.9082	0.7359	0.152
Mof_H 	H 	0.8101	0.0765	0.782	0.119
Mof_H 	H 	0.8094	0.0783	0.8171	0.126
Mof_H 	H 	0.8606	0.1073	0.8077	0.136
Mof_H 	H 	0.9388	0.298	0.8374	0.145
Mof_H 	H 	0.972	0.3102	0.8156	0.142
Mof_H 	H 	0.9813	0.3082	0.8495	0.154
Mof_H 	H 	0.8924	0.3187	0.7867	0.119
Mof_H 	H 	0.8768	0.3397	0.7897	0.128
Mof_H 	H 	0.8927	0.3392	0.7599	0.132
Mof_H 	H 	0.6481	0.1159	0.721	0.141
Mof_H 	H 	0.6703	0.1345	0.6916	0.133
Mof_H 	H 	0.667	0.1619	0.7117	0.147
Mof_H 	H 	0.5493	0.7952	0.5793	0.134
Mof_H 	H 	0.5508	0.7879	0.5449	0.146
Mof_H 	H 	0.5544	0.8247	0.5581	0.134
Mof_H 	H 	0.3126	0.6178	0.5048	0.131
Mof_H 	H 	0.3423	0.6357	0.4786	0.144
Mof_H 	H 	0.3236	0.5937	0.4943	0.15
Mof_H 	H 	0.2184	0.5446	0.5436	0.135
Mof_H 	H 	0.1723	0.5307	0.5376	0.144
Mof_H 	H 	0.2262	0.5798	0.5274	0.131
Mof_H 	H 	0.3012	0.7046	0.6552	0.123
Mof_H 	H 	0.2453	0.6718	0.6365	0.136
Mof_H 	H 	0.2448	0.6454	0.6578	0.136
Mof_H 	H 	0.439	0.8018	0.7158	0.129
Mof_H 	H 	0.4933	0.8666	0.7261	0.141
Mof_H 	H 	0.4465	0.8342	0.6961	0.128
Mof_H 	H 	0.581	0.8637	0.6381	0.132
Mof_H 	H 	0.6219	0.9191	0.6638	0.15
Mof_H 	H 	0.6056	0.8741	0.6719	0.153
Mof_H 	H 	0.0022	0.0204	0.8808	0.135
Mof_H 	H 	0.0217	0.0674	0.8731	0.152
Mof_H 	H 	0.0655	0.0807	0.8888	0.153
Mof_H 	H 	0.059	0.1402	0.0062	0.125
Mof_H 	H 	0.0752	0.1757	0.9847	0.133
Mof_H 	H 	0.0136	0.1222	0.9856	0.13
Mof_H 	H 	0.9563	0.0497	0.0394	0.124
Mof_H 	H 	0.9268	0.0298	0.066	0.14
Mof_H 	H 	0.9837	0.0608	0.0723	0.134
Mof_H 	H 	0.8414	0.8347	0.0323	0.136
Mof_H 	H 	0.8239	0.8391	0.059	0.147
Mof_H 	H 	0.7923	0.8163	0.024	0.137
Mof_H 	H 	0.8206	0.7769	0.9643	0.123
Mof_H 	H 	0.7828	0.7309	0.9323	0.139
Mof_H 	H 	0.8337	0.7558	0.9511	0.135
Mof_H 	H 	0.9494	0.9127	0.8745	0.122
Mof_H 	H 	0.9153	0.8558	0.8567	0.135
Mof_H 	H 	0.8877	0.8644	0.8547	0.131
Mof_Ag	Ag	0.43892	0.45734	0.93372	0.413
Mof_Ag	Ag	0.56183	0.57319	0.98366	0.338
Mof_Ag	Ag	0.95691	0.47977	0.95314	0.335
Mof_Ag	Ag	0.32673	0.89207	0.70552	0.323
Mof_Ag	Ag	0.26763	0.89972	0.66771	0.354
Mof_Ag	Ag	0.33386	0.11044	0.61608	0.41
Mof_Ag	Ag	0.77326	0.06053	0.09381	0.398
Mof_Ag	Ag	0.88978	0.16225	0.14943	0.324
Mof_Ag	Ag	0.87888	0.1086	0.08218	0.368
Mof_Ag	Ag	0.31081	0.70038	0.33085	0.329
Mof_Ag	Ag	0.24939	0.58566	0.30603	0.346
Mof_Ag	Ag	0.2561	0.62005	0.38029	0.414
Mof_Ag	Ag	0.17395	0.11133	0.81914	0.335
Mof_Ag	Ag	0.27401	0.15947	0.802	0.346
Mof_Ag	Ag	0.14902	0.0619	0.74564	0.412
Mof_Ag	Ag	0.19863	0.62661	0.7763	0.36
Mof_Ag	Ag	0.14732	0.55508	0.82698	0.312
Mof_Ag	Ag	0.22167	0.68183	0.84706	0.404
Mof_Ag	Ag	0.89911	0.27582	0.63533	0.365
Mof_Ag	Ag	0.95497	0.26092	0.66601	0.395
Mof_Ag	Ag	0.82875	0.14981	0.61916	0.317
Mof_Ag	Ag	0.86634	0.96736	0.76752	0.356
Mof_Ag	Ag	0.81756	0.98605	0.73369	0.351
Mof_Ag	Ag	0.93161	0.05074	0.71877	0.373
Mof_Ag	Ag	0.64411	0.85575	0.8871	0.366
Mof_Ag	Ag	0.57485	0.76623	0.92552	0.35
Mof_Ag	Ag	0.57361	0.73255	0.85424	0.385
Mof_Ag	Ag	0.5351	0.03761	0.56757	0.398
Mof_Ag	Ag	0.52409	0.98267	0.50486	0.309
Mof_Ag	Ag	0.40918	0.91694	0.51726	0.372
Mof_N 	N 	0.47664	0.52876	0.9338	-0.199
Mof_N 	N 	0.52476	0.57402	0.95578	-0.201
Mof_N 	N 	0.07649	0.5679	0.97179	-0.21
Mof_N 	N 	0.03026	0.52462	0.94828	-0.208
Mof_N 	N 	0.42899	0.38531	0.9457	-0.2
Mof_N 	N 	0.40424	0.38675	0.92859	-0.202
Mof_N 	N 	0.35106	0.92301	0.66847	-0.21
Mof_N 	N 	0.32652	0.9259	0.65262	-0.2
Mof_N 	N 	0.36166	0.1853	0.66256	-0.201
Mof_N 	N 	0.33003	0.13401	0.65464	-0.203
Mof_N 	N 	0.25337	0.82784	0.74601	-0.201
Mof_N 	N 	0.29738	0.85193	0.73891	-0.205
Mof_N 	N 	0.77562	0.08669	0.13451	-0.201
Mof_N 	N 	0.82419	0.12965	0.15724	-0.204
Mof_N 	N 	0.69181	0.04804	0.23745	-0.212
Mof_N 	N 	0.66978	0.05222	0.2196	-0.207
Mof_N 	N 	0.80564	0.04405	0.04849	-0.205
Mof_N 	N 	0.76338	0.0243	0.05468	-0.207
Mof_N 	N 	0.30363	0.6789	0.28613	-0.208
Mof_N 	N 	0.28041	0.63234	0.27635	-0.209
Mof_N 	N 	0.38444	0.71914	0.18118	-0.208
Mof_N 	N 	0.35659	0.72061	0.1714	-0.204
Mof_N 	N 	0.2988	0.69536	0.39536	-0.198
Mof_N 	N 	0.3196	0.72509	0.37509	-0.203
Mof_N 	N 	0.2486	0.17615	0.85115	-0.21
Mof_N 	N 	0.29139	0.19741	0.8444	-0.208
Mof_N 	N 	0.26011	0.12867	0.75798	-0.204
Mof_N 	N 	0.21247	0.09064	0.73531	-0.199
Mof_N 	N 	0.09202	0.04318	0.757	-0.2
Mof_N 	N 	0.10075	0.05775	0.7875	-0.198
Mof_N 	N 	0.14469	0.54652	0.76161	-0.2
Mof_N 	N 	0.12467	0.51736	0.78243	-0.205
Mof_N 	N 	0.15664	0.58525	0.86949	-0.201
Mof_N 	N 	0.18322	0.63418	0.8772	-0.197
Mof_N 	N 	0.24866	0.72358	0.81404	-0.201
Mof_N 	N 	0.24214	0.70237	0.78671	-0.199
Mof_N 	N 	0.97416	0.34174	0.6683	-0.2
Mof_N 	N 	0.99476	0.33367	0.68103	-0.204
Mof_N 	N 	0.91463	0.18754	0.65857	-0.2
Mof_N 	N 	0.86409	0.14215	0.63884	-0.201
Mof_N 	N 	0.79202	0.15702	0.60224	-0.208
Mof_N 	N 	0.81904	0.20584	0.60788	-0.201
Mof_N 	N 	0.79846	0.92964	0.7769	-0.21
Mof_N 	N 	0.78047	0.94015	0.76362	-0.21
Mof_N 	N 	0.85402	0.03487	0.70529	-0.21
Mof_N 	N 	0.89864	0.06034	0.69798	-0.205
Mof_N 	N 	0.96296	0.04035	0.74151	-0.205
Mof_N 	N 	0.93392	0.00421	0.75873	-0.207
Mof_N 	N 	0.65552	0.88079	0.93251	-0.205
Mof_N 	N 	0.62681	0.84333	0.94854	-0.202
Mof_N 	N 	0.53451	0.69283	0.90874	-0.21
Mof_N 	N 	0.53718	0.68026	0.88124	-0.201
Mof_N 	N 	0.62133	0.79205	0.83158	-0.206
Mof_N 	N 	0.64712	0.83965	0.84437	-0.203
Mof_N 	N 	0.60464	0.07474	0.56238	-0.2
Mof_N 	N 	0.59996	0.05297	0.53593	-0.203
Mof_N 	N 	0.44899	0.90678	0.47597	-0.207
Mof_N 	N 	0.40312	0.87968	0.4816	-0.2
Mof_N 	N 	0.41535	0.94978	0.55653	-0.201
Mof_N 	N 	0.46548	0.99565	0.57753	-0.203
Mof_C 	C 	0.41875	0.50161	0.88736	-0.479
Mof_C 	C 	0.46828	0.54291	0.91459	0.159
Mof_C 	C 	0.51132	0.59893	0.92405	-0.113
Mof_C 	C 	0.54599	0.61683	0.95002	0.159
Mof_C 	C 	0.59979	0.67297	0.96956	-0.479
Mof_C 	C 	0.17501	0.64321	0.98182	-0.504
Mof_C 	C 	0.11841	0.59497	0.96138	0.171
Mof_C 	C 	0.09957	0.56914	0.92991	-0.128
Mof_C 	C 	0.04299	0.52434	0.92293	0.176
Mof_C 	C 	0.00073	0.48156	0.89409	-0.512
Mof_C 	C 	0.42024	0.32462	0.94646	-0.471
Mof_C 	C 	0.40276	0.33831	0.93247	0.159
Mof_C 	C 	0.36157	0.30955	0.90692	-0.118
Mof_C 	C 	0.36335	0.34132	0.90527	0.164
Mof_C 	C 	0.3297	0.3323	0.8826	-0.483
Mof_C 	C 	0.41261	0.93356	0.66417	-0.483
Mof_C 	C 	0.38129	0.9342	0.65249	0.161
Mof_C 	C 	0.37784	0.94483	0.62607	-0.122
Mof_C 	C 	0.34223	0.93847	0.6267	0.171
Mof_C 	C 	0.32403	0.94685	0.60528	-0.494
Mof_C 	C 	0.37123	0.23848	0.69731	-0.502
Mof_C 	C 	0.3452	0.18801	0.68441	0.171
Mof_C 	C 	0.30314	0.13796	0.6905	-0.125
Mof_C 	C 	0.29481	0.10545	0.67146	0.168
Mof_C 	C 	0.2552	0.04831	0.66911	-0.482
Mof_C 	C 	0.18776	0.76298	0.77374	-0.491
Mof_C 	C 	0.23558	0.79489	0.76267	0.171
Mof_C 	C 	0.26752	0.79645	0.76617	-0.122
Mof_C 	C 	0.30649	0.83328	0.75097	0.166
Mof_C 	C 	0.35198	0.85239	0.74737	-0.497
Mof_C 	C 	0.67951	0.01746	0.12677	-0.488
Mof_C 	C 	0.73714	0.06537	0.14651	0.176
Mof_C 	C 	0.75919	0.09329	0.17688	-0.126
Mof_C 	C 	0.81424	0.1338	0.18284	0.166
Mof_C 	C 	0.85935	0.17751	0.21126	-0.488
Mof_C 	C 	0.75732	0.06277	0.23869	-0.495
Mof_C 	C 	0.72767	0.06417	0.22504	0.161
Mof_C 	C 	0.72936	0.07889	0.19885	-0.123
Mof_C 	C 	0.69188	0.07033	0.19681	0.173
Mof_C 	C 	0.67668	0.08044	0.17412	-0.5
Mof_C 	C 	0.82191	0.02025	0.01016	-0.501
Mof_C 	C 	0.78607	0.01107	0.02214	0.176
Mof_C 	C 	0.73091	0.96959	0.0109	-0.127
Mof_C 	C 	0.7178	0.97866	0.03226	0.172
Mof_C 	C 	0.66497	0.94777	0.03274	-0.503
Mof_C 	C 	0.35195	0.75755	0.2691	-0.491
Mof_C 	C 	0.324	0.70481	0.26461	0.164
Mof_C 	C 	0.31415	0.67505	0.2398	-0.124
Mof_C 	C 	0.28643	0.62951	0.24874	0.171
Mof_C 	C 	0.26372	0.58225	0.23177	-0.509
Mof_C 	C 	0.39761	0.69798	0.22319	-0.504
Mof_C 	C 	0.37181	0.70152	0.20633	0.168
Mof_C 	C 	0.33473	0.69113	0.21306	-0.12
Mof_C 	C 	0.32695	0.70404	0.19019	0.168
Mof_C 	C 	0.29179	0.70104	0.18543	-0.494
Mof_C 	C 	0.29956	0.70338	0.44954	-0.494
Mof_C 	C 	0.31599	0.72555	0.42234	0.169
Mof_C 	C 	0.34881	0.77603	0.42024	-0.12
Mof_C 	C 	0.34962	0.77343	0.38965	0.158
Mof_C 	C 	0.37861	0.81547	0.37308	-0.479
Mof_C 	C 	0.23032	0.19881	0.88833	-0.532
Mof_C 	C 	0.26773	0.21181	0.87514	0.185
Mof_C 	C 	0.32402	0.25758	0.8842	-0.129
Mof_C 	C 	0.33756	0.24684	0.8644	0.164
Mof_C 	C 	0.39174	0.28094	0.86308	-0.488
Mof_C 	C 	0.35471	0.19179	0.7637	-0.477
Mof_C 	C 	0.29779	0.14946	0.74485	0.155
Mof_C 	C 	0.275	0.12502	0.71322	-0.111
Mof_C 	C 	0.2211	0.0882	0.7089	0.159
Mof_C 	C 	0.17591	0.04959	0.6795	-0.474
Mof_C 	C 	0.03631	0.01234	0.70745	-0.506
Mof_C 	C 	0.05503	0.03011	0.74094	0.174
Mof_C 	C 	0.0399	0.0378	0.7623	-0.119
Mof_C 	C 	0.06926	0.05468	0.79054	0.158
Mof_C 	C 	0.07185	0.07091	0.82196	-0.475
Mof_C 	C 	0.13196	0.53206	0.70562	-0.527
Mof_C 	C 	0.11811	0.51248	0.73319	0.184
Mof_C 	C 	0.08023	0.46044	0.73587	-0.124
Mof_C 	C 	0.08563	0.46519	0.76702	0.157
Mof_C 	C 	0.05526	0.42308	0.78394	-0.482
Mof_C 	C 	0.09274	0.50215	0.88649	-0.466
Mof_C 	C 	0.1258	0.55733	0.88853	0.148
Mof_C 	C 	0.13065	0.58651	0.90816	-0.112
Mof_C 	C 	0.16766	0.6351	0.90016	0.161
Mof_C 	C 	0.19086	0.68391	0.91397	-0.468
Mof_C 	C 	0.26964	0.79198	0.83702	-0.497
Mof_C 	C 	0.2593	0.76053	0.81103	0.17
Mof_C 	C 	0.25966	0.76324	0.7809	-0.118
Mof_C 	C 	0.24887	0.7261	0.76637	0.158
Mof_C 	C 	0.24419	0.71134	0.73373	-0.476
Mof_C 	C 	0.98861	0.40739	0.678	-0.499
Mof_C 	C 	0.00244	0.3884	0.68604	0.168
Mof_C 	C 	0.04122	0.41004	0.71066	-0.119
Mof_C 	C 	0.03541	0.37509	0.7063	0.16
Mof_C 	C 	0.06573	0.37711	0.72564	-0.479
Mof_C 	C 	0.97995	0.21465	0.6964	-0.487
Mof_C 	C 	0.92709	0.17325	0.67254	0.173
Mof_C 	C 	0.88339	0.1171	0.66209	-0.118
Mof_C 	C 	0.84442	0.09908	0.6409	0.157
Mof_C 	C 	0.78953	0.04308	0.62141	-0.485
Mof_C 	C 	0.70053	0.06012	0.57745	-0.487
Mof_C 	C 	0.74035	0.1183	0.58665	0.156
Mof_C 	C 	0.73285	0.14186	0.58231	-0.122
Mof_C 	C 	0.78379	0.1974	0.59599	0.175
Mof_C 	C 	0.8022	0.24356	0.59736	-0.509
Mof_C 	C 	0.77804	0.88056	0.8128	-0.503
Mof_C 	C 	0.76635	0.89648	0.79383	0.173
Mof_C 	C 	0.72669	0.88495	0.79144	-0.133
Mof_C 	C 	0.73701	0.91297	0.77218	0.183
Mof_C 	C 	0.708	0.91561	0.76041	-0.515
Mof_C 	C 	0.79529	0.02901	0.6967	-0.469
Mof_C 	C 	0.84206	0.04997	0.69183	0.157
Mof_C 	C 	0.87918	0.08606	0.67584	-0.124
Mof_C 	C 	0.91388	0.0911	0.68038	0.181
Mof_C 	C 	0.96097	0.1229	0.66847	-0.515
Mof_C 	C 	0.04481	0.09917	0.72458	-0.463
Mof_C 	C 	0.00331	0.05584	0.74015	0.155
Mof_C 	C 	0.00098	0.02984	0.75622	-0.121
Mof_C 	C 	0.95721	0.99863	0.76784	0.172
Mof_C 	C 	0.9343	0.96169	0.78759	-0.499
Mof_C 	C 	0.73354	0.97986	0.9416	-0.499
Mof_C 	C 	0.69613	0.93057	0.9523	0.166
Mof_C 	C 	0.69421	0.92559	0.9824	-0.117
Mof_C 	C 	0.65021	0.87006	0.97847	0.17
Mof_C 	C 	0.62808	0.8402	0.00228	-0.5
Mof_C 	C 	0.5171	0.66861	0.95711	-0.496
Mof_C 	C 	0.52423	0.66467	0.9265	0.168
Mof_C 	C 	0.51894	0.63255	0.91109	-0.121
Mof_C 	C 	0.52674	0.6433	0.88284	0.163
Mof_C 	C 	0.52457	0.61916	0.85593	-0.474
Mof_C 	C 	0.6258	0.75668	0.79148	-0.489
Mof_C 	C 	0.64482	0.80067	0.81029	0.162
Mof_C 	C 	0.68653	0.85447	0.8092	-0.119
Mof_C 	C 	0.6857	0.87701	0.83091	0.174
Mof_C 	C 	0.72015	0.93269	0.84004	-0.507
Mof_C 	C 	0.67132	0.14201	0.61233	-0.523
Mof_C 	C 	0.65335	0.11074	0.58189	0.187
Mof_C 	C 	0.68028	0.11191	0.56819	-0.126
Mof_C 	C 	0.64515	0.07498	0.53893	0.163
Mof_C 	C 	0.65232	0.06035	0.51347	-0.483
Mof_C 	C 	0.47833	0.8924	0.44313	-0.479
Mof_C 	C 	0.43584	0.87401	0.45385	0.155
Mof_C 	C 	0.37958	0.8234	0.44438	-0.12
Mof_C 	C 	0.36088	0.82892	0.4624	0.173
Mof_C 	C 	0.30409	0.78944	0.46173	-0.498
Mof_C 	C 	0.31823	0.87434	0.55437	-0.479
Mof_C 	C 	0.37741	0.92586	0.57087	0.157
Mof_C 	C 	0.40284	0.95661	0.60165	-0.112
Mof_C 	C 	0.45811	0.99967	0.60458	0.161
Mof_C 	C 	0.50531	0.04547	0.63198	-0.48
Mof_H 	H 	0.3952	0.4653	0.8873	0.122
Mof_H 	H 	0.3991	0.5036	0.8887	0.139
Mof_H 	H 	0.4299	0.5092	0.8685	0.137
Mof_H 	H 	0.6131	0.6717	0.9866	0.122
Mof_H 	H 	0.6254	0.6939	0.9573	0.135
Mof_H 	H 	0.5961	0.6902	0.9777	0.135
Mof_H 	H 	0.1765	0.6345	0.0002	0.146
Mof_H 	H 	0.1991	0.6534	0.9709	0.148
Mof_H 	H 	0.1867	0.6735	0.9878	0.134
Mof_H 	H 	0.9698	0.4688	0.893	0.132
Mof_H 	H 	0.0153	0.4961	0.8768	0.148
Mof_H 	H 	0.9891	0.4514	0.8933	0.149
Mof_H 	H 	0.4426	0.3475	0.9677	0.122
Mof_H 	H 	0.3882	0.2864	0.9462	0.132
Mof_H 	H 	0.4414	0.331	0.9346	0.128
Mof_H 	H 	0.3498	0.3672	0.8828	0.119
Mof_H 	H 	0.3209	0.3146	0.8621	0.139
Mof_H 	H 	0.2961	0.3092	0.8879	0.137
Mof_H 	H 	0.3939	0.9081	0.6766	0.125
Mof_H 	H 	0.4152	0.9222	0.6468	0.14
Mof_H 	H 	0.4491	0.97	0.6767	0.137
Mof_H 	H 	0.3287	0.97	0.6171	0.141
Mof_H 	H 	0.3457	0.9642	0.5907	0.147
Mof_H 	H 	0.2857	0.9117	0.594	0.131
Mof_H 	H 	0.3885	0.2604	0.6829	0.128
Mof_H 	H 	0.3438	0.2294	0.7008	0.144
Mof_H 	H 	0.3986	0.259	0.7168	0.14
Mof_H 	H 	0.2583	0.0357	0.6532	0.121
Mof_H 	H 	0.2628	0.0461	0.6889	0.138
Mof_H 	H 	0.2183	0.0254	0.6637	0.136
Mof_H 	H 	0.1621	0.7524	0.7585	0.125
Mof_H 	H 	0.1702	0.7304	0.7768	0.141
Mof_H 	H 	0.1996	0.7852	0.7932	0.138
Mof_H 	H 	0.3819	0.8898	0.7461	0.133
Mof_H 	H 	0.3644	0.8511	0.7651	0.146
Mof_H 	H 	0.3399	0.8291	0.7286	0.135
Mof_H 	H 	0.6736	0.9962	0.1108	0.124
Mof_H 	H 	0.6724	0.0301	0.1171	0.141
Mof_H 	H 	0.6549	0.9949	0.1394	0.141
Mof_H 	H 	0.8919	0.2105	0.206	0.126
Mof_H 	H 	0.8669	0.166	0.2223	0.132
Mof_H 	H 	0.8491	0.1848	0.2243	0.137
Mof_H 	H 	0.7348	0.0337	0.2487	0.128
Mof_H 	H 	0.7914	0.0976	0.2538	0.142
Mof_H 	H 	0.7651	0.056	0.2225	0.144
Mof_H 	H 	0.6755	0.0988	0.1851	0.142
Mof_H 	H 	0.6409	0.0457	0.1598	0.135
Mof_H 	H 	0.7036	0.1033	0.1627	0.15
Mof_H 	H 	0.859	0.0531	0.0237	0.132
Mof_H 	H 	0.8215	0.0245	0.9896	0.145
Mof_H 	H 	0.8088	0.9891	0.0093	0.142
Mof_H 	H 	0.6711	0.9697	0.0482	0.128
Mof_H 	H 	0.6423	0.9142	0.0379	0.142
Mof_H 	H 	0.6467	0.9391	0.0126	0.145
Mof_H 	H 	0.3752	0.7802	0.2902	0.128
Mof_H 	H 	0.3248	0.7504	0.2652	0.145
Mof_H 	H 	0.3741	0.7765	0.2548	0.142
Mof_H 	H 	0.2267	0.5487	0.233	0.146
Mof_H 	H 	0.2863	0.5849	0.2408	0.137
Mof_H 	H 	0.2632	0.582	0.2102	0.149
Mof_H 	H 	0.4006	0.684	0.2086	0.136
Mof_H 	H 	0.3754	0.6734	0.236	0.148
Mof_H 	H 	0.4338	0.7341	0.2363	0.137
Mof_H 	H 	0.277	0.6906	0.1634	0.129
Mof_H 	H 	0.3133	0.7365	0.1952	0.136
Mof_H 	H 	0.262	0.6741	0.1945	0.139
Mof_H 	H 	0.2984	0.681	0.4492	0.129
Mof_H 	H 	0.2636	0.6813	0.4487	0.142
Mof_H 	H 	0.326	0.7334	0.4684	0.145
Mof_H 	H 	0.355	0.7984	0.3526	0.124
Mof_H 	H 	0.4116	0.8328	0.3714	0.128
Mof_H 	H 	0.3884	0.8429	0.3845	0.132
Mof_H 	H 	0.2011	0.162	0.8905	0.154
Mof_H 	H 	0.2503	0.2247	0.9084	0.159
Mof_H 	H 	0.2148	0.2011	0.8747	0.143
Mof_H 	H 	0.3914	0.2762	0.8416	0.127
Mof_H 	H 	0.4195	0.3192	0.8729	0.141
Mof_H 	H 	0.3999	0.2699	0.8738	0.138
Mof_H 	H 	0.3545	0.1869	0.7842	0.126
Mof_H 	H 	0.3703	0.1884	0.7537	0.141
Mof_H 	H 	0.3766	0.2279	0.7655	0.128
Mof_H 	H 	0.1507	0.0445	0.6808	0.12
Mof_H 	H 	0.191	0.0645	0.6623	0.135
Mof_H 	H 	0.1567	0.0147	0.6762	0.134
Mof_H 	H 	0.0514	0.0073	0.6993	0.129
Mof_H 	H 	0.9966	0.9779	0.7007	0.144
Mof_H 	H 	0.0484	0.0398	0.7	0.14
Mof_H 	H 	0.1051	0.0926	0.8367	0.119
Mof_H 	H 	0.0718	0.0923	0.8217	0.137
Mof_H 	H 	0.0403	0.0383	0.828	0.134
Mof_H 	H 	0.1714	0.5651	0.7095	0.15
Mof_H 	H 	0.1158	0.5042	0.6884	0.158
Mof_H 	H 	0.118	0.54	0.7008	0.142
Mof_H 	H 	0.0516	0.4323	0.8019	0.125
Mof_H 	H 	0.0192	0.3875	0.7703	0.138
Mof_H 	H 	0.0752	0.422	0.7906	0.133
Mof_H 	H 	0.1098	0.4997	0.8779	0.119
Mof_H 	H 	0.091	0.497	0.907	0.132
Mof_H 	H 	0.056	0.474	0.8732	0.128
Mof_H 	H 	0.2102	0.7081	0.9007	0.118
Mof_H 	H 	0.1615	0.6727	0.916	0.133
Mof_H 	H 	0.2161	0.703	0.9343	0.134
Mof_H 	H 	0.2639	0.7788	0.8549	0.127
Mof_H 	H 	0.3071	0.8304	0.8419	0.143
Mof_H 	H 	0.2448	0.7877	0.8315	0.142
Mof_H 	H 	0.2201	0.674	0.7277	0.12
Mof_H 	H 	0.2294	0.7146	0.7204	0.137
Mof_H 	H 	0.2802	0.736	0.7318	0.133
Mof_H 	H 	0.9493	0.3761	0.6694	0.13
Mof_H 	H 	0.0068	0.4275	0.6629	0.139
Mof_H 	H 	0.0005	0.4309	0.6964	0.146
Mof_H 	H 	0.0734	0.3671	0.7123	0.125
Mof_H 	H 	0.0437	0.3517	0.738	0.126
Mof_H 	H 	0.0999	0.4139	0.7392	0.136
Mof_H 	H 	0.992	0.2441	0.7069	0.125
Mof_H 	H 	0.0071	0.2293	0.6866	0.142
Mof_H 	H 	0.9755	0.1977	0.7114	0.141
Mof_H 	H 	0.7829	0.0445	0.601	0.126
Mof_H 	H 	0.7619	0.0279	0.6308	0.131
Mof_H 	H 	0.7879	0.0202	0.6197	0.139
Mof_H 	H 	0.7106	0.0539	0.5925	0.124
Mof_H 	H 	0.7006	0.0512	0.5572	0.137
Mof_H 	H 	0.6642	0.0371	0.5767	0.142
Mof_H 	H 	0.839	0.2745	0.5953	0.143
Mof_H 	H 	0.8019	0.2536	0.6171	0.137
Mof_H 	H 	0.7778	0.2331	0.5807	0.151
Mof_H 	H 	0.7928	0.8768	0.802	0.135
Mof_H 	H 	0.7445	0.8459	0.8164	0.146
Mof_H 	H 	0.8045	0.9085	0.8324	0.139
Mof_H 	H 	0.7035	0.9116	0.7383	0.143
Mof_H 	H 	0.7291	0.9507	0.771	0.14
Mof_H 	H 	0.6723	0.8864	0.7641	0.152
Mof_H 	H 	0.7945	0.0281	0.718	0.118
Mof_H 	H 	0.7612	0.9923	0.6829	0.125
Mof_H 	H 	0.7996	0.0529	0.6923	0.135
Mof_H 	H 	0.9606	0.1014	0.6626	0.145
Mof_H 	H 	0.9946	0.1564	0.6844	0.142
Mof_H 	H 	0.9587	0.1318	0.6505	0.154
Mof_H 	H 	0.032	0.1057	0.7133	0.118
Mof_H 	H 	0.05	0.0871	0.7103	0.128
Mof_H 	H 	0.0793	0.1328	0.7401	0.132
Mof_H 	H 	0.8949	0.9271	0.779	0.141
Mof_H 	H 	0.9429	0.9787	0.8084	0.133
Mof_H 	H 	0.9502	0.9553	0.7883	0.147
Mof_H 	H 	0.7159	0.97	0.9207	0.135
Mof_H 	H 	0.743	0.0059	0.9551	0.146
Mof_H 	H 	0.7666	0.9963	0.9419	0.135
Mof_H 	H 	0.613	0.8078	0.9952	0.131
Mof_H 	H 	0.6571	0.8637	0.0214	0.144
Mof_H 	H 	0.5994	0.8293	0.0057	0.15
Mof_H 	H 	0.501	0.6748	0.9564	0.135
Mof_H 	H 	0.4931	0.6347	0.9624	0.144
Mof_H 	H 	0.5524	0.6988	0.9726	0.131
Mof_H 	H 	0.5494	0.646	0.8448	0.123
Mof_H 	H 	0.5353	0.6088	0.8635	0.136
Mof_H 	H 	0.4876	0.587	0.8422	0.136
Mof_H 	H 	0.586	0.7232	0.7842	0.129
Mof_H 	H 	0.6405	0.7672	0.7739	0.141
Mof_H 	H 	0.6381	0.7504	0.8039	0.128
Mof_H 	H 	0.7256	0.9429	0.8619	0.131
Mof_H 	H 	0.7553	0.9581	0.8362	0.149
Mof_H 	H 	0.7022	0.9337	0.8281	0.153
Mof_H 	H 	0.6396	0.1214	0.6192	0.135
Mof_H 	H 	0.6943	0.1486	0.6269	0.152
Mof_H 	H 	0.6919	0.1767	0.6112	0.153
Mof_H 	H 	0.634	0.0528	0.4938	0.125
Mof_H 	H 	0.691	0.0905	0.5153	0.134
Mof_H 	H 	0.6366	0.028	0.5144	0.131
Mof_H 	H 	0.5103	0.9169	0.4606	0.124
Mof_H 	H 	0.4638	0.8608	0.434	0.14
Mof_H 	H 	0.4885	0.9114	0.4277	0.134
Mof_H 	H 	0.3024	0.8091	0.4677	0.136
Mof_H 	H 	0.2801	0.7649	0.441	0.147
Mof_H 	H 	0.2923	0.7683	0.476	0.137
Mof_H 	H 	0.3126	0.8563	0.5357	0.122
Mof_H 	H 	0.2986	0.8505	0.5677	0.139
Mof_H 	H 	0.3047	0.8826	0.5489	0.135
Mof_H 	H 	0.5382	0.0749	0.6255	0.122
Mof_H 	H 	0.4991	0.0586	0.6433	0.135
Mof_H 	H 	0.5097	0.033	0.6453	0.131
_end
