data_functionalizedCrystal
_audit_creation_method	'EQeq! by Chris Wilmer'
_symmetry_space_group_name_H-M	'P1'
_symmetry_Int_Tables_number	1
_symmetry_cell_setting	triclinic
loop_
_symmetry_equiv_pos_as_xyz
  x,y,z
_cell_length_a	22.4261
_cell_length_b	22.4261
_cell_length_c	22.4261
_cell_angle_alpha	92.8245
_cell_angle_beta	118.383
_cell_angle_gamma	118.383
loop_
_atom_site_label
_atom_site_type_symbol
_atom_site_fract_x
_atom_site_fract_y
_atom_site_fract_z
_atom_site_charge
Mof_Cu	Cu	0.4258	0.97992	0.97992	0.904
Mof_Cu	Cu	0.5742	0.55412	0.55412	0.917
Mof_Cu	Cu	4.17993e-17	0.97992	0.55412	0.87
Mof_Cu	Cu	-5.57324e-17	0.55412	0.97992	0.87
Mof_Cu	Cu	-4.17993e-17	0.44588	0.02008	0.878
Mof_Cu	Cu	-5.57324e-17	0.02008	0.44588	0.878
Mof_Cu	Cu	0.4258	0.44588	0.44588	0.913
Mof_Cu	Cu	0.5742	0.02008	0.02008	0.92
Mof_H 	H 	0.5174	0.9568	0.8114	0.038
Mof_H 	H 	0.4844	0.9318	0.6936	0.079
Mof_H 	H 	0.3373	0.9793	0.763	0.044
Mof_H 	H 	0.4826	0.294	0.4394	0.035
Mof_H 	H 	0.5156	0.2092	0.4474	0.079
Mof_H 	H 	0.6627	0.4257	0.642	0.053
Mof_H 	H 	0.8546	0.8114	0.294	0.052
Mof_H 	H 	0.7618	0.6936	0.2092	0.085
Mof_H 	H 	0.7837	0.763	0.4257	0.056
Mof_H 	H 	0.1454	0.4394	0.9568	0.022
Mof_H 	H 	0.2382	0.4474	0.9318	0.073
Mof_H 	H 	0.2163	0.642	0.9793	0.042
Mof_H 	H 	0.1454	0.706	0.1886	0.024
Mof_H 	H 	0.2382	0.7908	0.3064	0.074
Mof_H 	H 	0.2163	0.5743	0.237	0.043
Mof_H 	H 	0.8546	0.0432	0.5606	0.053
Mof_H 	H 	0.7618	0.0682	0.5526	0.086
Mof_H 	H 	0.7837	0.0207	0.358	0.057
Mof_H 	H 	0.5174	0.5606	0.706	0.039
Mof_H 	H 	0.4844	0.5526	0.7908	0.08
Mof_H 	H 	0.3373	0.358	0.5743	0.046
Mof_H 	H 	0.4826	0.1886	0.0432	0.036
Mof_H 	H 	0.5156	0.3064	0.0682	0.08
Mof_H 	H 	0.6627	0.237	0.0207	0.054
Mof_H 	H 	0.4826	0.0432	0.1886	0.036
Mof_H 	H 	0.5156	0.0682	0.3064	0.08
Mof_H 	H 	0.6627	0.0207	0.237	0.054
Mof_H 	H 	0.5174	0.706	0.5606	0.039
Mof_H 	H 	0.4844	0.7908	0.5526	0.08
Mof_H 	H 	0.3373	0.5743	0.358	0.046
Mof_H 	H 	0.1454	0.1886	0.706	0.024
Mof_H 	H 	0.2382	0.3064	0.7908	0.074
Mof_H 	H 	0.2163	0.237	0.5743	0.043
Mof_H 	H 	0.8546	0.5606	0.0432	0.053
Mof_H 	H 	0.7618	0.5526	0.0682	0.086
Mof_H 	H 	0.7837	0.358	0.0207	0.057
Mof_H 	H 	0.8546	0.294	0.8114	0.052
Mof_H 	H 	0.7618	0.2092	0.6936	0.085
Mof_H 	H 	0.7837	0.4257	0.763	0.056
Mof_H 	H 	0.1454	0.9568	0.4394	0.022
Mof_H 	H 	0.2382	0.9318	0.4474	0.073
Mof_H 	H 	0.2163	0.9793	0.642	0.042
Mof_H 	H 	0.4826	0.4394	0.294	0.035
Mof_H 	H 	0.5156	0.4474	0.2092	0.079
Mof_H 	H 	0.6627	0.642	0.4257	0.053
Mof_H 	H 	0.5174	0.8114	0.9568	0.038
Mof_H 	H 	0.4844	0.6936	0.9318	0.079
Mof_H 	H 	0.3373	0.763	0.9793	0.044
Mof_H 	H 	0.4586	0.0241	0.5655	0.101
Mof_H 	H 	0.5414	0.1069	0.5655	0.09
Mof_H 	H 	0.5414	0.5655	0.1069	0.09
Mof_H 	H 	0.4586	0.5655	0.0241	0.101
Mof_H 	H 	0.4586	0.8931	0.4345	0.088
Mof_H 	H 	0.5414	0.9759	0.4345	0.079
Mof_H 	H 	0.4586	0.4345	0.8931	0.088
Mof_H 	H 	0.5414	0.4345	0.9759	0.079
Mof_H 	H 	0.3053	0.8053	0.5	0.103
Mof_H 	H 	0.6947	0.1947	0.5	0.117
Mof_H 	H 	0.6947	0.5	0.1947	0.117
Mof_H 	H 	0.3053	0.5	0.8053	0.103
Mof_C 	C 	0.4705	0.9844	0.8799	0.35
Mof_C 	C 	0.4339	0.9711	0.8034	-0.102
Mof_C 	C 	0.4715	0.9565	0.7762	0.035
Mof_C 	C 	0.4542	0.9412	0.7066	-0.127
Mof_C 	C 	0.3864	0.942	0.659	0.091
Mof_C 	C 	0.3422	0.9559	0.6781	-0.028
Mof_C 	C 	0.3674	0.97	0.7498	0.003
Mof_C 	C 	0.5295	0.4094	0.5139	0.373
Mof_C 	C 	0.5661	0.3695	0.5372	-0.105
Mof_C 	C 	0.5285	0.3047	0.485	0.042
Mof_C 	C 	0.5458	0.2524	0.487	-0.127
Mof_C 	C 	0.6136	0.2726	0.5556	0.097
Mof_C 	C 	0.6578	0.3359	0.6137	-0.025
Mof_C 	C 	0.6326	0.3824	0.6026	0.011
Mof_C 	C 	0.8955	0.8799	0.4094	0.366
Mof_C 	C 	0.8323	0.8034	0.3695	-0.091
Mof_C 	C 	0.8197	0.7762	0.3047	0.038
Mof_C 	C 	0.7654	0.7066	0.2524	-0.118
Mof_C 	C 	0.717	0.659	0.2726	0.096
Mof_C 	C 	0.7222	0.6781	0.3359	-0.019
Mof_C 	C 	0.7798	0.7498	0.3824	0.006
Mof_C 	C 	0.1045	0.5139	0.9844	0.354
Mof_C 	C 	0.1677	0.5372	0.9711	-0.114
Mof_C 	C 	0.1803	0.485	0.9565	0.038
Mof_C 	C 	0.2346	0.487	0.9412	-0.135
Mof_C 	C 	0.283	0.5556	0.942	0.092
Mof_C 	C 	0.2778	0.6137	0.9559	-0.033
Mof_C 	C 	0.2202	0.6026	0.97	0.007
Mof_C 	C 	0.1045	0.5906	0.1201	0.372
Mof_C 	C 	0.1677	0.6305	0.1966	-0.118
Mof_C 	C 	0.1803	0.6953	0.2238	0.042
Mof_C 	C 	0.2346	0.7476	0.2934	-0.136
Mof_C 	C 	0.283	0.7274	0.341	0.093
Mof_C 	C 	0.2778	0.6641	0.3219	-0.032
Mof_C 	C 	0.2202	0.6176	0.2502	0.011
Mof_C 	C 	0.8955	0.0156	0.4861	0.376
Mof_C 	C 	0.8323	0.0289	0.4628	-0.094
Mof_C 	C 	0.8197	0.0435	0.515	0.041
Mof_C 	C 	0.7654	0.0588	0.513	-0.118
Mof_C 	C 	0.717	0.058	0.4444	0.097
Mof_C 	C 	0.7222	0.0441	0.3863	-0.019
Mof_C 	C 	0.7798	0.03	0.3974	0.008
Mof_C 	C 	0.4705	0.4861	0.5906	0.371
Mof_C 	C 	0.4339	0.4628	0.6305	-0.107
Mof_C 	C 	0.4715	0.515	0.6953	0.04
Mof_C 	C 	0.4542	0.513	0.7476	-0.128
Mof_C 	C 	0.3864	0.4444	0.7274	0.093
Mof_C 	C 	0.3422	0.3863	0.6641	-0.028
Mof_C 	C 	0.3674	0.3974	0.6176	0.008
Mof_C 	C 	0.5295	0.1201	0.0156	0.38
Mof_C 	C 	0.5661	0.1966	0.0289	-0.107
Mof_C 	C 	0.5285	0.2238	0.0435	0.044
Mof_C 	C 	0.5458	0.2934	0.0588	-0.127
Mof_C 	C 	0.6136	0.341	0.058	0.097
Mof_C 	C 	0.6578	0.3219	0.0441	-0.024
Mof_C 	C 	0.6326	0.2502	0.03	0.012
Mof_C 	C 	0.5295	0.0156	0.1201	0.38
Mof_C 	C 	0.5661	0.0289	0.1966	-0.107
Mof_C 	C 	0.5285	0.0435	0.2238	0.044
Mof_C 	C 	0.5458	0.0588	0.2934	-0.127
Mof_C 	C 	0.6136	0.058	0.341	0.097
Mof_C 	C 	0.6578	0.0441	0.3219	-0.024
Mof_C 	C 	0.6326	0.03	0.2502	0.012
Mof_C 	C 	0.4705	0.5906	0.4861	0.371
Mof_C 	C 	0.4339	0.6305	0.4628	-0.107
Mof_C 	C 	0.4715	0.6953	0.515	0.04
Mof_C 	C 	0.4542	0.7476	0.513	-0.128
Mof_C 	C 	0.3864	0.7274	0.4444	0.093
Mof_C 	C 	0.3422	0.6641	0.3863	-0.028
Mof_C 	C 	0.3674	0.6176	0.3974	0.008
Mof_C 	C 	0.1045	0.1201	0.5906	0.372
Mof_C 	C 	0.1677	0.1966	0.6305	-0.118
Mof_C 	C 	0.1803	0.2238	0.6953	0.042
Mof_C 	C 	0.2346	0.2934	0.7476	-0.136
Mof_C 	C 	0.283	0.341	0.7274	0.093
Mof_C 	C 	0.2778	0.3219	0.6641	-0.032
Mof_C 	C 	0.2202	0.2502	0.6176	0.011
Mof_C 	C 	0.8955	0.4861	0.0156	0.376
Mof_C 	C 	0.8323	0.4628	0.0289	-0.094
Mof_C 	C 	0.8197	0.515	0.0435	0.041
Mof_C 	C 	0.7654	0.513	0.0588	-0.118
Mof_C 	C 	0.717	0.4444	0.058	0.097
Mof_C 	C 	0.7222	0.3863	0.0441	-0.019
Mof_C 	C 	0.7798	0.3974	0.03	0.008
Mof_C 	C 	0.8955	0.4094	0.8799	0.366
Mof_C 	C 	0.8323	0.3695	0.8034	-0.091
Mof_C 	C 	0.8197	0.3047	0.7762	0.038
Mof_C 	C 	0.7654	0.2524	0.7066	-0.118
Mof_C 	C 	0.717	0.2726	0.659	0.096
Mof_C 	C 	0.7222	0.3359	0.6781	-0.019
Mof_C 	C 	0.7798	0.3824	0.7498	0.006
Mof_C 	C 	0.1045	0.9844	0.5139	0.354
Mof_C 	C 	0.1677	0.9711	0.5372	-0.114
Mof_C 	C 	0.1803	0.9565	0.485	0.038
Mof_C 	C 	0.2346	0.9412	0.487	-0.135
Mof_C 	C 	0.283	0.942	0.5556	0.092
Mof_C 	C 	0.2778	0.9559	0.6137	-0.033
Mof_C 	C 	0.2202	0.97	0.6026	0.007
Mof_C 	C 	0.5295	0.5139	0.4094	0.373
Mof_C 	C 	0.5661	0.5372	0.3695	-0.105
Mof_C 	C 	0.5285	0.485	0.3047	0.042
Mof_C 	C 	0.5458	0.487	0.2524	-0.127
Mof_C 	C 	0.6136	0.5556	0.2726	0.097
Mof_C 	C 	0.6578	0.6137	0.3359	-0.025
Mof_C 	C 	0.6326	0.6026	0.3824	0.011
Mof_C 	C 	0.4705	0.8799	0.9844	0.35
Mof_C 	C 	0.4339	0.8034	0.9711	-0.102
Mof_C 	C 	0.4715	0.7762	0.9565	0.035
Mof_C 	C 	0.4542	0.7066	0.9412	-0.127
Mof_C 	C 	0.3864	0.659	0.942	0.091
Mof_C 	C 	0.3422	0.6781	0.9559	-0.028
Mof_C 	C 	0.3674	0.7498	0.97	0.003
Mof_C 	C 	0.3774	0.91611	0.53871	0.152
Mof_C 	C 	0.438	0.97683	0.53883	-0.181
Mof_C 	C 	0.6226	0.16131	0.53871	0.153
Mof_C 	C 	0.562	0.10083	0.53883	-0.165
Mof_C 	C 	0.6226	0.53871	0.16131	0.153
Mof_C 	C 	0.562	0.53883	0.10083	-0.165
Mof_C 	C 	0.3774	0.53871	0.91611	0.152
Mof_C 	C 	0.438	0.53883	0.97683	-0.181
Mof_C 	C 	0.3774	0.83869	0.46129	0.148
Mof_C 	C 	0.438	0.89917	0.46117	-0.164
Mof_C 	C 	0.6226	0.08389	0.46129	0.149
Mof_C 	C 	0.562	0.02317	0.46117	-0.151
Mof_C 	C 	0.3774	0.46129	0.83869	0.148
Mof_C 	C 	0.438	0.46117	0.89917	-0.164
Mof_C 	C 	0.6226	0.46129	0.08389	0.149
Mof_C 	C 	0.562	0.46117	0.02317	-0.151
Mof_C 	C 	0.3466	0.8466	0.5	-0.203
Mof_C 	C 	0.4686	0.9686	0.5	0.067
Mof_C 	C 	0.6534	0.1534	0.5	-0.2
Mof_C 	C 	0.5314	0.0314	0.5	0.074
Mof_C 	C 	0.6534	0.5	0.1534	-0.2
Mof_C 	C 	0.5314	0.5	0.0314	0.074
Mof_C 	C 	0.3466	0.5	0.8466	-0.203
Mof_C 	C 	0.4686	0.5	0.9686	0.067
Mof_N 	N 	0.3471	0.9293	0.5822	-0.153
Mof_N 	N 	0.6529	0.2351	0.5822	-0.149
Mof_N 	N 	0.6529	0.5822	0.2351	-0.149
Mof_N 	N 	0.3471	0.5822	0.9293	-0.153
Mof_N 	N 	0.3471	0.7649	0.4178	-0.152
Mof_N 	N 	0.6529	0.0707	0.4178	-0.149
Mof_N 	N 	0.3471	0.4178	0.7649	-0.152
Mof_N 	N 	0.6529	0.4178	0.0707	-0.149
Mof_O 	O 	0.4071	0.9714	0.8859	-0.395
Mof_O 	O 	0.5365	0.0024	0.9215	-0.428
Mof_O 	O 	0.5929	0.4788	0.5643	-0.385
Mof_O 	O 	0.4635	0.385	0.4659	-0.449
Mof_O 	O 	0.9145	0.8859	0.4788	-0.348
Mof_O 	O 	0.9191	0.9215	0.385	-0.405
Mof_O 	O 	0.0855	0.5643	0.9714	-0.412
Mof_O 	O 	0.0809	0.4659	0.0024	-0.453
Mof_O 	O 	0.0855	0.5212	0.1141	-0.409
Mof_O 	O 	0.0809	0.615	0.0785	-0.464
Mof_O 	O 	0.9145	0.0286	0.4357	-0.349
Mof_O 	O 	0.9191	0.9976	0.5341	-0.411
Mof_O 	O 	0.4071	0.4357	0.5212	-0.394
Mof_O 	O 	0.5365	0.5341	0.615	-0.444
Mof_O 	O 	0.5929	0.1141	0.0286	-0.384
Mof_O 	O 	0.4635	0.0785	0.9976	-0.451
Mof_O 	O 	0.5929	0.0286	0.1141	-0.384
Mof_O 	O 	0.4635	0.9976	0.0785	-0.451
Mof_O 	O 	0.4071	0.5212	0.4357	-0.394
Mof_O 	O 	0.5365	0.615	0.5341	-0.444
Mof_O 	O 	0.0855	0.1141	0.5212	-0.409
Mof_O 	O 	0.0809	0.0785	0.615	-0.464
Mof_O 	O 	0.9145	0.4357	0.0286	-0.349
Mof_O 	O 	0.9191	0.5341	0.9976	-0.411
Mof_O 	O 	0.9145	0.4788	0.8859	-0.348
Mof_O 	O 	0.9191	0.385	0.9215	-0.405
Mof_O 	O 	0.0855	0.9714	0.5643	-0.412
Mof_O 	O 	0.0809	0.0024	0.4659	-0.453
Mof_O 	O 	0.5929	0.5643	0.4788	-0.385
Mof_O 	O 	0.4635	0.4659	0.385	-0.449
Mof_O 	O 	0.4071	0.8859	0.9714	-0.395
Mof_O 	O 	0.5365	0.9215	0.0024	-0.428
_end
