data_functionalizedCrystal
_audit_creation_method	'EQeq! by Chris Wilmer'
_symmetry_space_group_name_H-M	'P1'
_symmetry_Int_Tables_number	1
_symmetry_cell_setting	triclinic
loop_
_symmetry_equiv_pos_as_xyz
  x,y,z
_cell_length_a	9.398
_cell_length_b	15.307
_cell_length_c	16.751
_cell_angle_alpha	68.756
_cell_angle_beta	79.322
_cell_angle_gamma	89.276
loop_
_atom_site_label
_atom_site_type_symbol
_atom_site_fract_x
_atom_site_fract_y
_atom_site_fract_z
_atom_site_charge
Mof_Nd	Nd	0.00058	0.82258	0.10912	2.363
Mof_Nd	Nd	0.41556	0.32823	0.10791	2.386
Mof_Nd	Nd	0.11638	0.26122	0.52165	2.026
Mof_O 	O 	0.0822	0.802	0.2424	-0.614
Mof_O 	O 	0.1002	0.816	0.3679	-0.556
Mof_O 	O 	0.7484	0.8644	0.0711	-0.447
Mof_O 	O 	0.7474	0.7791	0.2085	-0.447
Mof_O 	O 	0.5328	0.1774	0.0864	-0.45
Mof_O 	O 	0.3501	0.1597	0.1944	-0.481
Mof_O 	O 	0.5141	0.6095	0.0455	-0.662
Mof_O 	O 	0.463	0.4655	0.1399	-0.623
Mof_O 	O 	0.2365	0.4084	0.4393	-0.58
Mof_O 	O 	0.2319	0.5183	0.4953	-0.364
Mof_O 	O 	0.0092	0.6529	0.2037	-0.488
Mof_O 	O 	0.9073	0.6761	0.0907	-0.475
Mof_O 	O 	0.2489	0.3042	0.2471	-0.573
Mof_O 	O 	0.1062	0.2648	0.3762	-0.548
Mof_O 	O 	0.6915	0.3706	0.065	-0.459
Mof_O 	O 	0.6072	0.287	0.2029	-0.439
Mof_O 	O 	0.9843	0.107	0.0432	-0.645
Mof_O 	O 	0.9285	0.9615	0.139	-0.604
Mof_O 	O 	0.8243	0.0278	0.4956	-0.564
Mof_H 	H 	0.7872	0.9875	0.5425	0.3
Mof_O 	O 	0.8685	0.9061	0.456	-0.572
Mof_C 	C 	0.1494	0.8246	0.2911	0.524
Mof_C 	C 	0.3005	0.8706	0.2505	-0.242
Mof_C 	C 	0.4203	0.8235	0.2245	0.133
Mof_C 	C 	0.5479	0.8771	0.1753	-0.175
Mof_C 	C 	0.5546	0.9746	0.1507	0.092
Mof_H 	H 	0.6384	0.0095	0.1154	-0.01
Mof_C 	C 	0.4393	0.0198	0.1779	-0.163
Mof_C 	C 	0.3113	0.9674	0.2297	0.103
Mof_H 	H 	0.234	0.9972	0.25	-0.002
Mof_C 	C 	0.6871	0.8356	0.1496	0.347
Mof_C 	C 	0.4438	0.1253	0.151	0.349
Mof_C 	C 	0.4051	0.7193	0.2434	-0.129
Mof_C 	C 	0.4486	0.6849	0.1766	0.113
Mof_H 	H 	0.49	0.7261	0.1209	-0.023
Mof_C 	C 	0.4306	0.5899	0.1924	-0.26
Mof_C 	C 	0.3703	0.5277	0.2768	0.158
Mof_H 	H 	0.3602	0.4638	0.2878	-0.018
Mof_C 	C 	0.3258	0.5603	0.3435	-0.208
Mof_C 	C 	0.3446	0.6571	0.3272	0.081
Mof_H 	H 	0.3167	0.6794	0.3723	-0.01
Mof_C 	C 	0.4727	0.5509	0.1208	0.609
Mof_C 	C 	0.2597	0.4924	0.4335	0.443
Mof_C 	C 	0.9485	0.6212	0.1581	0.365
Mof_C 	C 	0.9348	0.5178	0.1805	-0.185
Mof_C 	C 	0.0234	0.4596	0.2324	0.125
Mof_H 	H 	0.0875	0.4851	0.2553	-0.024
Mof_C 	C 	0.017	0.3628	0.2503	-0.287
Mof_C 	C 	0.9152	0.3213	0.2216	0.172
Mof_C 	C 	0.8244	0.3804	0.1705	-0.19
Mof_C 	C 	0.8379	0.4775	0.1482	0.115
Mof_H 	H 	0.7813	0.5159	0.1111	-0.02
Mof_C 	C 	0.1331	0.3066	0.2949	0.554
Mof_C 	C 	0.7019	0.3415	0.1445	0.357
Mof_C 	C 	0.9081	0.2182	0.2414	-0.157
Mof_C 	C 	0.9245	0.182	0.1743	0.144
Mof_H 	H 	0.9377	0.2234	0.1166	-0.04
Mof_C 	C 	0.9215	0.0871	0.1921	-0.275
Mof_C 	C 	0.9016	0.0236	0.2786	0.205
Mof_H 	H 	0.9007	0.9593	0.2911	-0.064
Mof_C 	C 	0.8836	0.0582	0.3447	-0.263
Mof_C 	C 	0.8863	0.1538	0.3274	0.142
Mof_H 	H 	0.8734	0.1754	0.3734	-0.001
Mof_C 	C 	0.9457	0.0485	0.1189	0.575
Mof_C 	C 	0.859	0.9898	0.4383	0.557
Mof_Nd	Nd	0.99942	0.17742	0.89088	2.362
Mof_Nd	Nd	0.58444	0.67177	0.89209	2.385
Mof_Nd	Nd	0.88362	0.73878	0.47835	2.026
Mof_O 	O 	0.9178	0.198	0.7576	-0.614
Mof_O 	O 	0.8998	0.184	0.6321	-0.556
Mof_O 	O 	0.2516	0.1356	0.9289	-0.447
Mof_O 	O 	0.2526	0.2209	0.7915	-0.447
Mof_O 	O 	0.4672	0.8226	0.9136	-0.45
Mof_O 	O 	0.6499	0.8403	0.8056	-0.481
Mof_O 	O 	0.4859	0.3905	0.9545	-0.662
Mof_O 	O 	0.537	0.5345	0.8601	-0.623
Mof_O 	O 	0.7635	0.5916	0.5607	-0.58
Mof_O 	O 	0.7681	0.4817	0.5047	-0.364
Mof_O 	O 	0.9908	0.3471	0.7963	-0.488
Mof_O 	O 	0.0927	0.3239	0.9093	-0.475
Mof_O 	O 	0.7511	0.6958	0.7529	-0.573
Mof_O 	O 	0.8938	0.7352	0.6238	-0.548
Mof_O 	O 	0.3085	0.6294	0.935	-0.459
Mof_O 	O 	0.3928	0.713	0.7971	-0.439
Mof_O 	O 	0.0157	0.893	0.9568	-0.645
Mof_O 	O 	0.0715	0.0385	0.861	-0.604
Mof_O 	O 	0.1757	0.9722	0.5044	-0.564
Mof_H 	H 	0.2128	0.0125	0.4575	0.3
Mof_O 	O 	0.1315	0.0939	0.544	-0.572
Mof_C 	C 	0.8506	0.1754	0.7089	0.524
Mof_C 	C 	0.6995	0.1294	0.7495	-0.242
Mof_C 	C 	0.5797	0.1765	0.7755	0.133
Mof_C 	C 	0.4521	0.1229	0.8247	-0.175
Mof_C 	C 	0.4454	0.0254	0.8493	0.092
Mof_H 	H 	0.3616	0.9905	0.8846	-0.01
Mof_C 	C 	0.5607	0.9802	0.8221	-0.163
Mof_C 	C 	0.6887	0.0326	0.7703	0.103
Mof_H 	H 	0.766	0.0028	0.75	-0.002
Mof_C 	C 	0.3129	0.1644	0.8504	0.347
Mof_C 	C 	0.5562	0.8747	0.849	0.349
Mof_C 	C 	0.5949	0.2807	0.7566	-0.129
Mof_C 	C 	0.5514	0.3151	0.8234	0.113
Mof_H 	H 	0.51	0.2739	0.8791	-0.023
Mof_C 	C 	0.5694	0.4101	0.8076	-0.26
Mof_C 	C 	0.6297	0.4723	0.7232	0.158
Mof_H 	H 	0.6398	0.5362	0.7122	-0.018
Mof_C 	C 	0.6742	0.4397	0.6565	-0.208
Mof_C 	C 	0.6554	0.3429	0.6728	0.081
Mof_H 	H 	0.6833	0.3206	0.6277	-0.01
Mof_C 	C 	0.5273	0.4491	0.8792	0.609
Mof_C 	C 	0.7403	0.5076	0.5665	0.443
Mof_C 	C 	0.0515	0.3788	0.8419	0.365
Mof_C 	C 	0.0652	0.4822	0.8195	-0.185
Mof_C 	C 	0.9766	0.5404	0.7676	0.125
Mof_H 	H 	0.9125	0.5149	0.7447	-0.024
Mof_C 	C 	0.983	0.6372	0.7497	-0.287
Mof_C 	C 	0.0848	0.6787	0.7784	0.172
Mof_C 	C 	0.1756	0.6196	0.8295	-0.19
Mof_C 	C 	0.1621	0.5225	0.8518	0.115
Mof_H 	H 	0.2187	0.4841	0.8889	-0.02
Mof_C 	C 	0.8669	0.6934	0.7051	0.554
Mof_C 	C 	0.2981	0.6585	0.8555	0.357
Mof_C 	C 	0.0919	0.7818	0.7586	-0.157
Mof_C 	C 	0.0755	0.818	0.8257	0.144
Mof_H 	H 	0.0623	0.7766	0.8834	-0.04
Mof_C 	C 	0.0785	0.9129	0.8079	-0.275
Mof_C 	C 	0.0984	0.9764	0.7214	0.205
Mof_H 	H 	0.0993	0.0407	0.7089	-0.064
Mof_C 	C 	0.1164	0.9418	0.6553	-0.263
Mof_C 	C 	0.1137	0.8462	0.6726	0.142
Mof_H 	H 	0.1266	0.8246	0.6266	-0.001
Mof_C 	C 	0.0543	0.9515	0.8811	0.575
Mof_C 	C 	0.141	0.0102	0.5617	0.557
_end
