data_functionalizedCrystal
_audit_creation_method	'EQeq! by Chris Wilmer'
_symmetry_space_group_name_H-M	'P1'
_symmetry_Int_Tables_number	1
_symmetry_cell_setting	triclinic
loop_
_symmetry_equiv_pos_as_xyz
  x,y,z
_cell_length_a	24.072
_cell_length_b	24.072
_cell_length_c	13.61
_cell_angle_alpha	90
_cell_angle_beta	90
_cell_angle_gamma	90
loop_
_atom_site_label
_atom_site_type_symbol
_atom_site_fract_x
_atom_site_fract_y
_atom_site_fract_z
_atom_site_charge
Mof_C 	C 	0.3333	0.7076	0.6365	-0.269
Mof_C 	C 	0.3231	0.6886	0.7306	0.208
Mof_H 	H 	0.352	0.6872	0.7759	-0.037
Mof_C 	C 	0.2716	0.6721	0.7576	-0.292
Mof_H 	H 	0.2661	0.6573	0.8199	0.13
Mof_C 	C 	0.2279	0.6767	0.6956	0.221
Mof_C 	C 	0.2373	0.6965	0.6005	-0.267
Mof_H 	H 	0.208	0.699	0.556	0.132
Mof_C 	C 	0.2901	0.7123	0.5728	0.195
Mof_H 	H 	0.2962	0.7262	0.51	-0.027
Mof_C 	C 	0.3926	0.7257	0.6074	0.545
Mof_C 	C 	0.0229	0.6748	0.1834	0.352
Mof_C 	C 	0.17	0.6606	0.7277	-0.196
Mof_H 	H 	0.1694	0.6557	0.7984	0.091
Mof_H 	H 	0.1443	0.6902	0.7113	0.094
Mof_C 	C 	0.109	0.6059	0.6193	0.06
Mof_H 	H 	0.0845	0.6344	0.6035	0.037
Mof_C 	C 	0.9944	0.6344	0.3444	0.602
Mof_H 	H 	0.9615	0.6545	0.3389	-0.147
Mof_C 	C 	0.0917	0.5752	0.3585	-0.519
Mof_H 	H 	0.1251	0.5558	0.3631	0.206
Mof_C 	C 	0.0342	0.6367	0.2698	-0.468
Mof_C 	C 	0.0819	0.6073	0.2788	0.411
Mof_H 	H 	0.1084	0.6093	0.2293	-0.106
Mof_C 	C 	0.1492	0.524	0.6275	-0.026
Mof_H 	H 	0.157	0.4865	0.6182	0.038
Mof_C 	C 	0.1765	0.5599	0.6851	0.01
Mof_H 	H 	0.2077	0.5512	0.7224	0.031
Mof_C 	C 	0.0045	0.6017	0.4278	-0.74
Mof_H 	H 	0.9791	0.6005	0.4791	0.344
Mof_C 	C 	0.0636	0.5341	0.5215	-0.332
Mof_H 	H 	0.0294	0.5312	0.5589	0.11
Mof_H 	H 	0.0736	0.4971	0.4994	0.121
Mof_C 	C 	0.0535	0.5708	0.4321	0.45
Mof_O 	O 	0.0626	0.6915	0.1317	-0.436
Mof_O 	O 	0.9732	0.6887	0.1626	-0.4
Mof_O 	O 	0.4249	0.7367	0.6783	-0.654
Mof_O 	O 	0.4057	0.7273	0.5186	-0.554
Mof_N 	N 	0.1065	0.5548	0.5842	-0.071
Mof_N 	N 	0.1524	0.6106	0.6814	-0.09
Mof_C 	C 	0.8333	0.2076	0.1365	-0.249
Mof_C 	C 	0.8231	0.1886	0.2306	0.19
Mof_H 	H 	0.852	0.1872	0.2759	-0.027
Mof_C 	C 	0.7716	0.1721	0.2576	-0.275
Mof_H 	H 	0.7661	0.1573	0.3199	0.125
Mof_C 	C 	0.7279	0.1767	0.1956	0.208
Mof_C 	C 	0.7373	0.1965	0.1005	-0.252
Mof_H 	H 	0.708	0.199	0.056	0.126
Mof_C 	C 	0.7901	0.2123	0.0728	0.178
Mof_H 	H 	0.7962	0.2262	0.01	-0.021
Mof_C 	C 	0.8926	0.2257	0.1074	0.518
Mof_C 	C 	0.5229	0.1748	0.6834	0.332
Mof_C 	C 	0.67	0.1606	0.2277	-0.185
Mof_H 	H 	0.6694	0.1557	0.2984	0.086
Mof_H 	H 	0.6443	0.1902	0.2113	0.088
Mof_C 	C 	0.609	0.1059	0.1193	0.074
Mof_H 	H 	0.5845	0.1344	0.1035	0.035
Mof_C 	C 	0.4944	0.1344	0.8444	0.071
Mof_H 	H 	0.4615	0.1545	0.8389	0.022
Mof_C 	C 	0.5917	0.0752	0.8585	-0.192
Mof_H 	H 	0.6251	0.0558	0.8631	0.097
Mof_C 	C 	0.5342	0.1367	0.7698	-0.135
Mof_C 	C 	0.5819	0.1073	0.7788	0.092
Mof_H 	H 	0.6084	0.1093	0.7293	0.004
Mof_C 	C 	0.6492	0.024	0.1275	-0.005
Mof_H 	H 	0.657	0.9865	0.1182	0.03
Mof_C 	C 	0.6765	0.0599	0.1851	0.001
Mof_H 	H 	0.7077	0.0512	0.2224	0.035
Mof_C 	C 	0.5045	0.1017	0.9278	-0.173
Mof_H 	H 	0.4791	0.1005	0.9791	0.097
Mof_C 	C 	0.5636	0.0341	0.0215	-0.157
Mof_H 	H 	0.5294	0.0312	0.0589	0.081
Mof_H 	H 	0.5736	0.9971	0.9994	0.076
Mof_C 	C 	0.5535	0.0708	0.9321	0.141
Mof_O 	O 	0.5626	0.1915	0.6317	-0.443
Mof_O 	O 	0.4732	0.1887	0.6626	-0.469
Mof_O 	O 	0.9249	0.2367	0.1783	-0.591
Mof_O 	O 	0.9057	0.2273	0.0186	-0.508
Mof_N 	N 	0.6065	0.0548	0.0842	-0.097
Mof_N 	N 	0.6524	0.1106	0.1814	-0.093
Mof_C 	C 	0.1667	0.2924	0.1365	-0.256
Mof_C 	C 	0.1769	0.3114	0.2306	0.192
Mof_H 	H 	0.148	0.3128	0.2759	-0.033
Mof_C 	C 	0.2284	0.3279	0.2576	-0.279
Mof_H 	H 	0.2339	0.3427	0.3199	0.125
Mof_C 	C 	0.2721	0.3233	0.1956	0.21
Mof_C 	C 	0.2627	0.3035	0.1005	-0.256
Mof_H 	H 	0.292	0.301	0.056	0.127
Mof_C 	C 	0.2099	0.2877	0.0728	0.182
Mof_H 	H 	0.2038	0.2738	0.01	-0.021
Mof_C 	C 	0.1074	0.2743	0.1074	0.522
Mof_C 	C 	0.4771	0.3252	0.6834	0.333
Mof_C 	C 	0.33	0.3394	0.2277	-0.186
Mof_H 	H 	0.3306	0.3443	0.2984	0.086
Mof_H 	H 	0.3557	0.3098	0.2113	0.088
Mof_C 	C 	0.391	0.3941	0.1193	0.073
Mof_H 	H 	0.4155	0.3656	0.1035	0.035
Mof_C 	C 	0.5056	0.3656	0.8444	0.074
Mof_H 	H 	0.5385	0.3455	0.8389	0.021
Mof_C 	C 	0.4083	0.4248	0.8585	-0.196
Mof_H 	H 	0.3749	0.4442	0.8631	0.098
Mof_C 	C 	0.4658	0.3633	0.7698	-0.137
Mof_C 	C 	0.4181	0.3927	0.7788	0.096
Mof_H 	H 	0.3916	0.3907	0.7293	0.003
Mof_C 	C 	0.3508	0.476	0.1275	-0.014
Mof_H 	H 	0.343	0.5135	0.1182	0.036
Mof_C 	C 	0.3235	0.4401	0.1851	0.006
Mof_H 	H 	0.2923	0.4488	0.2224	0.031
Mof_C 	C 	0.4955	0.3983	0.9278	-0.176
Mof_H 	H 	0.5209	0.3995	0.9791	0.099
Mof_C 	C 	0.4364	0.4659	0.0215	-0.166
Mof_H 	H 	0.4706	0.4688	0.0589	0.083
Mof_H 	H 	0.4264	0.5029	0.9994	0.08
Mof_C 	C 	0.4465	0.4292	0.9321	0.146
Mof_O 	O 	0.4374	0.3085	0.6317	-0.443
Mof_O 	O 	0.5268	0.3113	0.6626	-0.469
Mof_O 	O 	0.0751	0.2633	0.1783	-0.628
Mof_O 	O 	0.0943	0.2727	0.0186	-0.53
Mof_N 	N 	0.3935	0.4452	0.0842	-0.095
Mof_N 	N 	0.3476	0.3894	0.1814	-0.094
Mof_C 	C 	0.6667	0.7924	0.6365	-0.269
Mof_C 	C 	0.6769	0.8114	0.7306	0.205
Mof_H 	H 	0.648	0.8128	0.7759	-0.037
Mof_C 	C 	0.7284	0.8279	0.7576	-0.289
Mof_H 	H 	0.7339	0.8427	0.8199	0.129
Mof_C 	C 	0.7721	0.8233	0.6956	0.218
Mof_C 	C 	0.7627	0.8035	0.6005	-0.265
Mof_H 	H 	0.792	0.801	0.556	0.13
Mof_C 	C 	0.7099	0.7877	0.5728	0.193
Mof_H 	H 	0.7038	0.7738	0.51	-0.026
Mof_C 	C 	0.6074	0.7743	0.6074	0.545
Mof_C 	C 	0.9771	0.8252	0.1834	0.309
Mof_C 	C 	0.83	0.8394	0.7277	-0.193
Mof_H 	H 	0.8306	0.8443	0.7984	0.089
Mof_H 	H 	0.8557	0.8098	0.7113	0.093
Mof_C 	C 	0.891	0.8941	0.6193	0.082
Mof_H 	H 	0.9155	0.8656	0.6035	0.039
Mof_C 	C 	0.0056	0.8656	0.3444	-0.45
Mof_H 	H 	0.0385	0.8455	0.3389	0.189
Mof_C 	C 	0.9083	0.9248	0.3585	0.125
Mof_H 	H 	0.8749	0.9442	0.3631	-0.01
Mof_C 	C 	0.9658	0.8633	0.2698	0.194
Mof_C 	C 	0.9181	0.8927	0.2788	-0.218
Mof_H 	H 	0.8916	0.8907	0.2293	0.11
Mof_C 	C 	0.8508	0.976	0.6275	-0.007
Mof_H 	H 	0.843	0.0135	0.6182	0.036
Mof_C 	C 	0.8235	0.9401	0.6851	0.002
Mof_H 	H 	0.7923	0.9488	0.7224	0.033
Mof_C 	C 	0.9955	0.8983	0.4278	0.384
Mof_H 	H 	0.0209	0.8995	0.4791	-0.144
Mof_C 	C 	0.9364	0.9659	0.5215	-0.007
Mof_H 	H 	0.9706	0.9688	0.5589	0.057
Mof_H 	H 	0.9264	0.0029	0.4994	0.043
Mof_C 	C 	0.9465	0.9292	0.4321	-0.154
Mof_O 	O 	0.9374	0.8085	0.1317	-0.406
Mof_O 	O 	0.0268	0.8113	0.1626	-0.489
Mof_O 	O 	0.5751	0.7633	0.6783	-0.654
Mof_O 	O 	0.5943	0.7727	0.5186	-0.554
Mof_N 	N 	0.8935	0.9452	0.5842	-0.116
Mof_N 	N 	0.8476	0.8894	0.6814	-0.094
Mof_C 	C 	0.0424	0.5833	0.8865	-0.264
Mof_C 	C 	0.0614	0.5731	0.9806	0.184
Mof_H 	H 	0.0628	0.602	0.0259	-0.033
Mof_C 	C 	0.0779	0.5216	0.0076	-0.278
Mof_H 	H 	0.0927	0.5161	0.0699	0.118
Mof_C 	C 	0.0733	0.4779	0.9456	0.192
Mof_C 	C 	0.0535	0.4873	0.8505	-0.259
Mof_H 	H 	0.051	0.458	0.806	0.116
Mof_C 	C 	0.0377	0.5401	0.8228	0.175
Mof_H 	H 	0.0238	0.5462	0.76	-0.036
Mof_C 	C 	0.0243	0.6426	0.8574	0.52
Mof_C 	C 	0.0752	0.2729	0.4334	0.332
Mof_C 	C 	0.0894	0.42	0.9777	-0.172
Mof_H 	H 	0.0943	0.4194	0.0484	0.073
Mof_H 	H 	0.0598	0.3943	0.9613	0.069
Mof_C 	C 	0.1441	0.359	0.8693	0.071
Mof_H 	H 	0.1156	0.3345	0.8535	0.034
Mof_C 	C 	0.1156	0.2444	0.5944	0.076
Mof_H 	H 	0.0955	0.2115	0.5889	0.015
Mof_C 	C 	0.1748	0.3417	0.6085	-0.204
Mof_H 	H 	0.1942	0.3751	0.6131	0.1
Mof_C 	C 	0.1133	0.2842	0.5198	-0.148
Mof_C 	C 	0.1427	0.3319	0.5288	0.1
Mof_H 	H 	0.1407	0.3584	0.4793	-0
Mof_C 	C 	0.226	0.3992	0.8775	-0.015
Mof_H 	H 	0.2635	0.407	0.8682	0.036
Mof_C 	C 	0.1901	0.4265	0.9351	0.007
Mof_H 	H 	0.1988	0.4577	0.9724	0.032
Mof_C 	C 	0.1483	0.2545	0.6778	-0.185
Mof_H 	H 	0.1495	0.2291	0.7291	0.103
Mof_C 	C 	0.2159	0.3136	0.7715	-0.17
Mof_H 	H 	0.2188	0.2794	0.8089	0.084
Mof_H 	H 	0.2529	0.3236	0.7494	0.081
Mof_C 	C 	0.1792	0.3035	0.6821	0.15
Mof_O 	O 	0.0585	0.3126	0.3817	-0.444
Mof_O 	O 	0.0613	0.2232	0.4126	-0.464
Mof_O 	O 	0.0133	0.6749	0.9283	-0.642
Mof_O 	O 	0.0227	0.6557	0.7686	-0.545
Mof_N 	N 	0.1952	0.3565	0.8342	-0.094
Mof_N 	N 	0.1394	0.4024	0.9314	-0.096
Mof_C 	C 	0.5424	0.0833	0.3865	-0.269
Mof_C 	C 	0.5614	0.0731	0.4806	0.204
Mof_H 	H 	0.5628	0.102	0.5259	-0.037
Mof_C 	C 	0.5779	0.0216	0.5076	-0.285
Mof_H 	H 	0.5927	0.0161	0.5699	0.128
Mof_C 	C 	0.5733	0.9779	0.4456	0.214
Mof_C 	C 	0.5535	0.9873	0.3505	-0.268
Mof_H 	H 	0.551	0.958	0.306	0.131
Mof_C 	C 	0.5377	0.0401	0.3228	0.198
Mof_H 	H 	0.5238	0.0462	0.26	-0.027
Mof_C 	C 	0.5243	0.1426	0.3574	0.545
Mof_C 	C 	0.5752	0.7729	0.9334	0.334
Mof_C 	C 	0.5894	0.92	0.4777	-0.189
Mof_H 	H 	0.5943	0.9194	0.5484	0.087
Mof_H 	H 	0.5598	0.8943	0.4613	0.089
Mof_C 	C 	0.6441	0.859	0.3693	0.073
Mof_H 	H 	0.6156	0.8345	0.3535	0.035
Mof_C 	C 	0.6156	0.7444	0.0944	0.073
Mof_H 	H 	0.5955	0.7115	0.0889	0.021
Mof_C 	C 	0.6748	0.8417	0.1085	-0.193
Mof_H 	H 	0.6942	0.8751	0.1131	0.096
Mof_C 	C 	0.6133	0.7842	0.0198	-0.136
Mof_C 	C 	0.6427	0.8319	0.0288	0.092
Mof_H 	H 	0.6407	0.8584	0.9793	0.004
Mof_C 	C 	0.726	0.8992	0.3775	-0.015
Mof_H 	H 	0.7635	0.907	0.3682	0.037
Mof_C 	C 	0.6901	0.9265	0.4351	0.006
Mof_H 	H 	0.6988	0.9577	0.4724	0.032
Mof_C 	C 	0.6483	0.7545	0.1778	-0.175
Mof_H 	H 	0.6495	0.7291	0.2291	0.099
Mof_C 	C 	0.7159	0.8136	0.2715	-0.165
Mof_H 	H 	0.7188	0.7794	0.3089	0.082
Mof_H 	H 	0.7529	0.8236	0.2494	0.079
Mof_C 	C 	0.6792	0.8035	0.1821	0.144
Mof_O 	O 	0.5585	0.8126	0.8817	-0.443
Mof_O 	O 	0.5613	0.7232	0.9126	-0.469
Mof_O 	O 	0.5133	0.1749	0.4283	-0.654
Mof_O 	O 	0.5227	0.1557	0.2686	-0.554
Mof_N 	N 	0.6952	0.8565	0.3342	-0.095
Mof_N 	N 	0.6394	0.9024	0.4314	-0.094
Mof_C 	C 	0.4576	0.4167	0.3865	-0.268
Mof_C 	C 	0.4386	0.4269	0.4806	0.205
Mof_H 	H 	0.4372	0.398	0.5259	-0.037
Mof_C 	C 	0.4221	0.4784	0.5076	-0.288
Mof_H 	H 	0.4073	0.4839	0.5699	0.128
Mof_C 	C 	0.4267	0.5221	0.4456	0.216
Mof_C 	C 	0.4465	0.5127	0.3505	-0.264
Mof_H 	H 	0.449	0.542	0.306	0.13
Mof_C 	C 	0.4623	0.4599	0.3228	0.192
Mof_H 	H 	0.4762	0.4538	0.26	-0.026
Mof_C 	C 	0.4757	0.3574	0.3574	0.544
Mof_C 	C 	0.4248	0.7271	0.9334	0.334
Mof_C 	C 	0.4106	0.58	0.4777	-0.19
Mof_H 	H 	0.4057	0.5806	0.5484	0.087
Mof_H 	H 	0.4402	0.6057	0.4613	0.089
Mof_C 	C 	0.3559	0.641	0.3693	0.073
Mof_H 	H 	0.3844	0.6655	0.3535	0.035
Mof_C 	C 	0.3844	0.7556	0.0944	0.074
Mof_H 	H 	0.4045	0.7885	0.0889	0.021
Mof_C 	C 	0.3252	0.6583	0.1085	-0.196
Mof_H 	H 	0.3058	0.6249	0.1131	0.098
Mof_C 	C 	0.3867	0.7158	0.0198	-0.138
Mof_C 	C 	0.3573	0.6681	0.0288	0.095
Mof_H 	H 	0.3593	0.6416	0.9793	0.003
Mof_C 	C 	0.274	0.6008	0.3775	-0.013
Mof_H 	H 	0.2365	0.593	0.3682	0.034
Mof_C 	C 	0.3099	0.5735	0.4351	0.004
Mof_H 	H 	0.3012	0.5423	0.4724	0.032
Mof_C 	C 	0.3517	0.7455	0.1778	-0.177
Mof_H 	H 	0.3505	0.7709	0.2291	0.099
Mof_C 	C 	0.2841	0.6864	0.2715	-0.167
Mof_H 	H 	0.2812	0.7206	0.3089	0.083
Mof_H 	H 	0.2471	0.6764	0.2494	0.081
Mof_C 	C 	0.3208	0.6965	0.1821	0.147
Mof_O 	O 	0.4415	0.6874	0.8817	-0.443
Mof_O 	O 	0.4387	0.7768	0.9126	-0.469
Mof_O 	O 	0.4867	0.3251	0.4283	-0.654
Mof_O 	O 	0.4773	0.3443	0.2686	-0.554
Mof_N 	N 	0.3048	0.6435	0.3342	-0.095
Mof_N 	N 	0.3606	0.5976	0.4314	-0.093
Mof_C 	C 	0.9576	0.9167	0.8865	-0.25
Mof_C 	C 	0.9386	0.9269	0.9806	0.218
Mof_H 	H 	0.9372	0.898	0.0259	-0.035
Mof_C 	C 	0.9221	0.9784	0.0076	-0.298
Mof_H 	H 	0.9073	0.9839	0.0699	0.138
Mof_C 	C 	0.9267	0.0221	0.9456	0.242
Mof_C 	C 	0.9465	0.0127	0.8505	-0.261
Mof_H 	H 	0.949	0.042	0.806	0.142
Mof_C 	C 	0.9623	0.9599	0.8228	0.196
Mof_H 	H 	0.9762	0.9538	0.76	-0.011
Mof_C 	C 	0.9757	0.8574	0.8574	0.523
Mof_C 	C 	0.9248	0.2271	0.4334	0.327
Mof_C 	C 	0.9106	0.08	0.9777	-0.218
Mof_H 	H 	0.9057	0.0806	0.0484	0.109
Mof_H 	H 	0.9402	0.1057	0.9613	0.118
Mof_C 	C 	0.8559	0.141	0.8693	0.071
Mof_H 	H 	0.8844	0.1655	0.8535	0.041
Mof_C 	C 	0.8844	0.2556	0.5944	0.071
Mof_H 	H 	0.9045	0.2885	0.5889	0.029
Mof_C 	C 	0.8252	0.1583	0.6085	-0.186
Mof_H 	H 	0.8058	0.1249	0.6131	0.096
Mof_C 	C 	0.8867	0.2158	0.5198	-0.124
Mof_C 	C 	0.8573	0.1681	0.5288	0.089
Mof_H 	H 	0.8593	0.1416	0.4793	0.006
Mof_C 	C 	0.774	0.1008	0.8775	-0.012
Mof_H 	H 	0.7365	0.093	0.8682	0.035
Mof_C 	C 	0.8099	0.0735	0.9351	0.003
Mof_H 	H 	0.8012	0.0423	0.9724	0.033
Mof_C 	C 	0.8517	0.2455	0.6778	-0.167
Mof_H 	H 	0.8505	0.2709	0.7291	0.096
Mof_C 	C 	0.7841	0.1864	0.7715	-0.163
Mof_H 	H 	0.7812	0.2206	0.8089	0.081
Mof_H 	H 	0.7471	0.1764	0.7494	0.079
Mof_C 	C 	0.8208	0.1965	0.6821	0.142
Mof_O 	O 	0.9415	0.1874	0.3817	-0.397
Mof_O 	O 	0.9387	0.2768	0.4126	-0.425
Mof_O 	O 	0.9867	0.8251	0.9283	-0.577
Mof_O 	O 	0.9773	0.8443	0.7686	-0.494
Mof_N 	N 	0.8048	0.1435	0.8342	-0.095
Mof_N 	N 	0.8606	0.0976	0.9314	-0.088
Mof_C 	C 	0.6667	0.2924	0.3635	-0.269
Mof_C 	C 	0.6769	0.3114	0.2694	0.205
Mof_H 	H 	0.648	0.3128	0.2241	-0.037
Mof_C 	C 	0.7284	0.3279	0.2424	-0.289
Mof_H 	H 	0.7339	0.3427	0.1801	0.129
Mof_C 	C 	0.7721	0.3233	0.3044	0.218
Mof_C 	C 	0.7627	0.3035	0.3995	-0.265
Mof_H 	H 	0.792	0.301	0.444	0.13
Mof_C 	C 	0.7099	0.2877	0.4272	0.193
Mof_H 	H 	0.7038	0.2738	0.49	-0.027
Mof_C 	C 	0.6074	0.2743	0.3926	0.545
Mof_C 	C 	0.9771	0.3252	0.8166	0.308
Mof_C 	C 	0.83	0.3394	0.2723	-0.193
Mof_H 	H 	0.8306	0.3443	0.2016	0.089
Mof_H 	H 	0.8557	0.3098	0.2887	0.093
Mof_C 	C 	0.891	0.3941	0.3807	0.082
Mof_H 	H 	0.9155	0.3656	0.3965	0.038
Mof_C 	C 	0.0056	0.3656	0.6556	-0.451
Mof_H 	H 	0.0385	0.3455	0.6611	0.19
Mof_C 	C 	0.9083	0.4248	0.6415	0.127
Mof_H 	H 	0.8749	0.4442	0.6369	-0.01
Mof_C 	C 	0.9658	0.3633	0.7302	0.195
Mof_C 	C 	0.9181	0.3927	0.7212	-0.22
Mof_H 	H 	0.8916	0.3907	0.7707	0.111
Mof_C 	C 	0.8508	0.476	0.3725	-0.002
Mof_H 	H 	0.843	0.5135	0.3818	0.033
Mof_C 	C 	0.8235	0.4401	0.3149	-0.001
Mof_H 	H 	0.7923	0.4488	0.2776	0.034
Mof_C 	C 	0.9955	0.3983	0.5722	0.387
Mof_H 	H 	0.0209	0.3995	0.5209	-0.144
Mof_C 	C 	0.9364	0.4659	0.4785	-0.002
Mof_H 	H 	0.9706	0.4688	0.4411	0.056
Mof_H 	H 	0.9264	0.5029	0.5006	0.04
Mof_C 	C 	0.9465	0.4292	0.5679	-0.156
Mof_O 	O 	0.9374	0.3085	0.8683	-0.406
Mof_O 	O 	0.0268	0.3113	0.8374	-0.489
Mof_O 	O 	0.5751	0.2633	0.3217	-0.654
Mof_O 	O 	0.5943	0.2727	0.4814	-0.554
Mof_N 	N 	0.8935	0.4452	0.4158	-0.118
Mof_N 	N 	0.8476	0.3894	0.3186	-0.093
Mof_C 	C 	0.1667	0.7924	0.8635	-0.256
Mof_C 	C 	0.1769	0.8114	0.7694	0.192
Mof_H 	H 	0.148	0.8128	0.7241	-0.033
Mof_C 	C 	0.2284	0.8279	0.7424	-0.279
Mof_H 	H 	0.2339	0.8427	0.6801	0.124
Mof_C 	C 	0.2721	0.8233	0.8044	0.209
Mof_C 	C 	0.2627	0.8035	0.8995	-0.255
Mof_H 	H 	0.292	0.801	0.944	0.127
Mof_C 	C 	0.2099	0.7877	0.9272	0.182
Mof_H 	H 	0.2038	0.7738	0.99	-0.021
Mof_C 	C 	0.1074	0.7743	0.8926	0.522
Mof_C 	C 	0.4771	0.8252	0.3166	0.333
Mof_C 	C 	0.33	0.8394	0.7723	-0.186
Mof_H 	H 	0.3306	0.8443	0.7016	0.086
Mof_H 	H 	0.3557	0.8098	0.7887	0.088
Mof_C 	C 	0.391	0.8941	0.8807	0.073
Mof_H 	H 	0.4155	0.8656	0.8965	0.036
Mof_C 	C 	0.5056	0.8656	0.1556	0.074
Mof_H 	H 	0.5385	0.8455	0.1611	0.021
Mof_C 	C 	0.4083	0.9248	0.1415	-0.196
Mof_H 	H 	0.3749	0.9442	0.1369	0.097
Mof_C 	C 	0.4658	0.8633	0.2302	-0.137
Mof_C 	C 	0.4181	0.8927	0.2212	0.096
Mof_H 	H 	0.3916	0.8907	0.2707	0.002
Mof_C 	C 	0.3508	0.976	0.8725	-0.019
Mof_H 	H 	0.343	0.0135	0.8818	0.038
Mof_C 	C 	0.3235	0.9401	0.8149	0.008
Mof_H 	H 	0.2923	0.9488	0.7776	0.03
Mof_C 	C 	0.4955	0.8983	0.0722	-0.177
Mof_H 	H 	0.5209	0.8995	0.0209	0.099
Mof_C 	C 	0.4364	0.9659	0.9785	-0.171
Mof_H 	H 	0.4706	0.9688	0.9411	0.084
Mof_H 	H 	0.4264	0.0029	0.0006	0.084
Mof_C 	C 	0.4465	0.9292	0.0679	0.146
Mof_O 	O 	0.4374	0.8085	0.3683	-0.443
Mof_O 	O 	0.5268	0.8113	0.3374	-0.469
Mof_O 	O 	0.0751	0.7633	0.8217	-0.628
Mof_O 	O 	0.0943	0.7727	0.9814	-0.53
Mof_N 	N 	0.3935	0.9452	0.9158	-0.093
Mof_N 	N 	0.3476	0.8894	0.8186	-0.094
Mof_C 	C 	0.8333	0.7076	0.8635	-0.249
Mof_C 	C 	0.8231	0.6886	0.7694	0.19
Mof_H 	H 	0.852	0.6872	0.7241	-0.027
Mof_C 	C 	0.7716	0.6721	0.7424	-0.275
Mof_H 	H 	0.7661	0.6573	0.6801	0.125
Mof_C 	C 	0.7279	0.6767	0.8044	0.207
Mof_C 	C 	0.7373	0.6965	0.8995	-0.252
Mof_H 	H 	0.708	0.699	0.944	0.126
Mof_C 	C 	0.7901	0.7123	0.9272	0.178
Mof_H 	H 	0.7962	0.7262	0.99	-0.021
Mof_C 	C 	0.8926	0.7257	0.8926	0.518
Mof_C 	C 	0.5229	0.6748	0.3166	0.333
Mof_C 	C 	0.67	0.6606	0.7723	-0.185
Mof_H 	H 	0.6694	0.6557	0.7016	0.086
Mof_H 	H 	0.6443	0.6902	0.7887	0.088
Mof_C 	C 	0.609	0.6059	0.8807	0.073
Mof_H 	H 	0.5845	0.6344	0.8965	0.035
Mof_C 	C 	0.4944	0.6344	0.1556	0.074
Mof_H 	H 	0.4615	0.6545	0.1611	0.021
Mof_C 	C 	0.5917	0.5752	0.1415	-0.196
Mof_H 	H 	0.6251	0.5558	0.1369	0.098
Mof_C 	C 	0.5342	0.6367	0.2302	-0.137
Mof_C 	C 	0.5819	0.6073	0.2212	0.095
Mof_H 	H 	0.6084	0.6093	0.2707	0.003
Mof_C 	C 	0.6492	0.524	0.8725	-0.014
Mof_H 	H 	0.657	0.4865	0.8818	0.035
Mof_C 	C 	0.6765	0.5599	0.8149	0.005
Mof_H 	H 	0.7077	0.5512	0.7776	0.033
Mof_C 	C 	0.5045	0.6017	0.0722	-0.176
Mof_H 	H 	0.4791	0.6005	0.0209	0.099
Mof_C 	C 	0.5636	0.5341	0.9785	-0.166
Mof_H 	H 	0.5294	0.5312	0.9411	0.082
Mof_H 	H 	0.5736	0.4971	0.0006	0.08
Mof_C 	C 	0.5535	0.5708	0.0679	0.146
Mof_O 	O 	0.5626	0.6915	0.3683	-0.443
Mof_O 	O 	0.4732	0.6887	0.3374	-0.469
Mof_O 	O 	0.9249	0.7367	0.8217	-0.591
Mof_O 	O 	0.9057	0.7273	0.9814	-0.508
Mof_N 	N 	0.6065	0.5548	0.9158	-0.095
Mof_N 	N 	0.6524	0.6106	0.8186	-0.094
Mof_C 	C 	0.3333	0.2076	0.3635	-0.27
Mof_C 	C 	0.3231	0.1886	0.2694	0.208
Mof_H 	H 	0.352	0.1872	0.2241	-0.038
Mof_C 	C 	0.2716	0.1721	0.2424	-0.292
Mof_H 	H 	0.2661	0.1573	0.1801	0.13
Mof_C 	C 	0.2279	0.1767	0.3044	0.221
Mof_C 	C 	0.2373	0.1965	0.3995	-0.267
Mof_H 	H 	0.208	0.199	0.444	0.132
Mof_C 	C 	0.2901	0.2123	0.4272	0.195
Mof_H 	H 	0.2962	0.2262	0.49	-0.027
Mof_C 	C 	0.3926	0.2257	0.3926	0.545
Mof_C 	C 	0.0229	0.1748	0.8166	0.351
Mof_C 	C 	0.17	0.1606	0.2723	-0.197
Mof_H 	H 	0.1694	0.1557	0.2016	0.092
Mof_H 	H 	0.1443	0.1902	0.2887	0.095
Mof_C 	C 	0.109	0.1059	0.3807	0.061
Mof_H 	H 	0.0845	0.1344	0.3965	0.036
Mof_C 	C 	0.9944	0.1344	0.6556	0.593
Mof_H 	H 	0.9615	0.1545	0.6611	-0.144
Mof_C 	C 	0.0917	0.0752	0.6415	-0.511
Mof_H 	H 	0.1251	0.0558	0.6369	0.204
Mof_C 	C 	0.0342	0.1367	0.7302	-0.462
Mof_C 	C 	0.0819	0.1073	0.7212	0.404
Mof_H 	H 	0.1084	0.1093	0.7707	-0.104
Mof_C 	C 	0.1492	0.024	0.3725	-0.017
Mof_H 	H 	0.157	0.9865	0.3818	0.033
Mof_C 	C 	0.1765	0.0599	0.3149	0.006
Mof_H 	H 	0.2077	0.0512	0.2776	0.033
Mof_C 	C 	0.0045	0.1017	0.5722	-0.729
Mof_H 	H 	0.9791	0.1005	0.5209	0.34
Mof_C 	C 	0.0636	0.0341	0.4785	-0.322
Mof_H 	H 	0.0294	0.0312	0.4411	0.108
Mof_H 	H 	0.0736	0.9971	0.5006	0.115
Mof_C 	C 	0.0535	0.0708	0.5679	0.442
Mof_O 	O 	0.0626	0.1915	0.8683	-0.435
Mof_O 	O 	0.9732	0.1887	0.8374	-0.4
Mof_O 	O 	0.4249	0.2367	0.3217	-0.654
Mof_O 	O 	0.4057	0.2273	0.4814	-0.554
Mof_N 	N 	0.1065	0.0548	0.4158	-0.073
Mof_N 	N 	0.1524	0.1106	0.3186	-0.09
Mof_C 	C 	0.9576	0.4167	0.1135	-0.245
Mof_C 	C 	0.9386	0.4269	0.0194	0.207
Mof_H 	H 	0.9372	0.398	0.9741	-0.03
Mof_C 	C 	0.9221	0.4784	0.9924	-0.285
Mof_H 	H 	0.9073	0.4839	0.9301	0.135
Mof_C 	C 	0.9267	0.5221	0.0544	0.234
Mof_C 	C 	0.9465	0.5127	0.1495	-0.256
Mof_H 	H 	0.949	0.542	0.194	0.14
Mof_C 	C 	0.9623	0.4599	0.1772	0.192
Mof_H 	H 	0.9762	0.4538	0.24	-0.009
Mof_C 	C 	0.9757	0.3574	0.1426	0.522
Mof_C 	C 	0.9248	0.7271	0.5666	0.327
Mof_C 	C 	0.9106	0.58	0.0223	-0.212
Mof_H 	H 	0.9057	0.5806	0.9516	0.106
Mof_H 	H 	0.9402	0.6057	0.0387	0.116
Mof_C 	C 	0.8559	0.641	0.1307	0.072
Mof_H 	H 	0.8844	0.6655	0.1465	0.041
Mof_C 	C 	0.8844	0.7556	0.4056	0.071
Mof_H 	H 	0.9045	0.7885	0.4111	0.029
Mof_C 	C 	0.8252	0.6583	0.3915	-0.186
Mof_H 	H 	0.8058	0.6249	0.3869	0.096
Mof_C 	C 	0.8867	0.7158	0.4802	-0.124
Mof_C 	C 	0.8573	0.6681	0.4712	0.089
Mof_H 	H 	0.8593	0.6416	0.5207	0.006
Mof_C 	C 	0.774	0.6008	0.1225	-0.013
Mof_H 	H 	0.7365	0.593	0.1318	0.035
Mof_C 	C 	0.8099	0.5735	0.0649	0.003
Mof_H 	H 	0.8012	0.5423	0.0276	0.033
Mof_C 	C 	0.8517	0.7455	0.3222	-0.167
Mof_H 	H 	0.8505	0.7709	0.2709	0.096
Mof_C 	C 	0.7841	0.6864	0.2285	-0.163
Mof_H 	H 	0.7812	0.7206	0.1911	0.081
Mof_H 	H 	0.7471	0.6764	0.2506	0.079
Mof_C 	C 	0.8208	0.6965	0.3179	0.142
Mof_O 	O 	0.9415	0.6874	0.6183	-0.397
Mof_O 	O 	0.9387	0.7768	0.5874	-0.425
Mof_O 	O 	0.9867	0.3251	0.0717	-0.577
Mof_O 	O 	0.9773	0.3443	0.2314	-0.494
Mof_N 	N 	0.8048	0.6435	0.1658	-0.095
Mof_N 	N 	0.8606	0.5976	0.0686	-0.089
Mof_C 	C 	0.4576	0.9167	0.6135	-0.268
Mof_C 	C 	0.4386	0.9269	0.5194	0.206
Mof_H 	H 	0.4372	0.898	0.4741	-0.038
Mof_C 	C 	0.4221	0.9784	0.4924	-0.293
Mof_H 	H 	0.4073	0.9839	0.4301	0.129
Mof_C 	C 	0.4267	0.0221	0.5544	0.22
Mof_C 	C 	0.4465	0.0127	0.6495	-0.262
Mof_H 	H 	0.449	0.042	0.694	0.13
Mof_C 	C 	0.4623	0.9599	0.6772	0.19
Mof_H 	H 	0.4762	0.9538	0.74	-0.026
Mof_C 	C 	0.4757	0.8574	0.6426	0.544
Mof_C 	C 	0.4248	0.2271	0.0666	0.334
Mof_C 	C 	0.4106	0.08	0.5223	-0.192
Mof_H 	H 	0.4057	0.0806	0.4516	0.088
Mof_H 	H 	0.4402	0.1057	0.5387	0.09
Mof_C 	C 	0.3559	0.141	0.6307	0.073
Mof_H 	H 	0.3844	0.1655	0.6465	0.035
Mof_C 	C 	0.3844	0.2556	0.9056	0.074
Mof_H 	H 	0.4045	0.2885	0.9111	0.021
Mof_C 	C 	0.3252	0.1583	0.8915	-0.194
Mof_H 	H 	0.3058	0.1249	0.8869	0.098
Mof_C 	C 	0.3867	0.2158	0.9802	-0.137
Mof_C 	C 	0.3573	0.1681	0.9712	0.093
Mof_H 	H 	0.3593	0.1416	0.0207	0.005
Mof_C 	C 	0.274	0.1008	0.6225	-0.013
Mof_H 	H 	0.2365	0.093	0.6318	0.034
Mof_C 	C 	0.3099	0.0735	0.5649	0.004
Mof_H 	H 	0.3012	0.0423	0.5276	0.033
Mof_C 	C 	0.3517	0.2455	0.8222	-0.176
Mof_H 	H 	0.3505	0.2709	0.7709	0.099
Mof_C 	C 	0.2841	0.1864	0.7285	-0.167
Mof_H 	H 	0.2812	0.2206	0.6911	0.083
Mof_H 	H 	0.2471	0.1764	0.7506	0.081
Mof_C 	C 	0.3208	0.1965	0.8179	0.146
Mof_O 	O 	0.4415	0.1874	0.1183	-0.443
Mof_O 	O 	0.4387	0.2768	0.0874	-0.469
Mof_O 	O 	0.4867	0.8251	0.5717	-0.654
Mof_O 	O 	0.4773	0.8443	0.7314	-0.554
Mof_N 	N 	0.3048	0.1435	0.6658	-0.095
Mof_N 	N 	0.3606	0.0976	0.5686	-0.093
Mof_C 	C 	0.5424	0.5833	0.6135	-0.268
Mof_C 	C 	0.5614	0.5731	0.5194	0.205
Mof_H 	H 	0.5628	0.602	0.4741	-0.037
Mof_C 	C 	0.5779	0.5216	0.4924	-0.288
Mof_H 	H 	0.5927	0.5161	0.4301	0.128
Mof_C 	C 	0.5733	0.4779	0.5544	0.216
Mof_C 	C 	0.5535	0.4873	0.6495	-0.264
Mof_H 	H 	0.551	0.458	0.694	0.13
Mof_C 	C 	0.5377	0.5401	0.6772	0.192
Mof_H 	H 	0.5238	0.5462	0.74	-0.026
Mof_C 	C 	0.5243	0.6426	0.6426	0.544
Mof_C 	C 	0.5752	0.2729	0.0666	0.334
Mof_C 	C 	0.5894	0.42	0.5223	-0.19
Mof_H 	H 	0.5943	0.4194	0.4516	0.087
Mof_H 	H 	0.5598	0.3943	0.5387	0.089
Mof_C 	C 	0.6441	0.359	0.6307	0.073
Mof_H 	H 	0.6156	0.3345	0.6465	0.035
Mof_C 	C 	0.6156	0.2444	0.9056	0.074
Mof_H 	H 	0.5955	0.2115	0.9111	0.021
Mof_C 	C 	0.6748	0.3417	0.8915	-0.195
Mof_H 	H 	0.6942	0.3751	0.8869	0.097
Mof_C 	C 	0.6133	0.2842	0.9802	-0.137
Mof_C 	C 	0.6427	0.3319	0.9712	0.094
Mof_H 	H 	0.6407	0.3584	0.0207	0.003
Mof_C 	C 	0.726	0.3992	0.6225	-0.015
Mof_H 	H 	0.7635	0.407	0.6318	0.038
Mof_C 	C 	0.6901	0.4265	0.5649	0.006
Mof_H 	H 	0.6988	0.4577	0.5276	0.033
Mof_C 	C 	0.6483	0.2545	0.8222	-0.176
Mof_H 	H 	0.6495	0.2291	0.7709	0.099
Mof_C 	C 	0.7159	0.3136	0.7285	-0.165
Mof_H 	H 	0.7188	0.2794	0.6911	0.082
Mof_H 	H 	0.7529	0.3236	0.7506	0.079
Mof_C 	C 	0.6792	0.3035	0.8179	0.145
Mof_O 	O 	0.5585	0.3126	0.1183	-0.443
Mof_O 	O 	0.5613	0.2232	0.0874	-0.469
Mof_O 	O 	0.5133	0.6749	0.5717	-0.654
Mof_O 	O 	0.5227	0.6557	0.7314	-0.554
Mof_N 	N 	0.6952	0.3565	0.6658	-0.095
Mof_N 	N 	0.6394	0.4024	0.5686	-0.093
Mof_C 	C 	0.0424	0.0833	0.1135	-0.271
Mof_C 	C 	0.0614	0.0731	0.0194	0.192
Mof_H 	H 	0.0628	0.102	0.9741	-0.037
Mof_C 	C 	0.0779	0.0216	0.9924	-0.282
Mof_H 	H 	0.0927	0.0161	0.9301	0.12
Mof_C 	C 	0.0733	0.9779	0.0544	0.195
Mof_C 	C 	0.0535	0.9873	0.1495	-0.27
Mof_H 	H 	0.051	0.958	0.194	0.119
Mof_C 	C 	0.0377	0.0401	0.1772	0.187
Mof_H 	H 	0.0238	0.0462	0.24	-0.039
Mof_C 	C 	0.0243	0.1426	0.1426	0.523
Mof_C 	C 	0.0752	0.7729	0.5666	0.332
Mof_C 	C 	0.0894	0.92	0.0223	-0.177
Mof_H 	H 	0.0943	0.9194	0.9516	0.075
Mof_H 	H 	0.0598	0.8943	0.0387	0.07
Mof_C 	C 	0.1441	0.859	0.1307	0.071
Mof_H 	H 	0.1156	0.8345	0.1465	0.034
Mof_C 	C 	0.1156	0.7444	0.4056	0.076
Mof_H 	H 	0.0955	0.7115	0.4111	0.014
Mof_C 	C 	0.1748	0.8417	0.3915	-0.204
Mof_H 	H 	0.1942	0.8751	0.3869	0.1
Mof_C 	C 	0.1133	0.7842	0.4802	-0.148
Mof_C 	C 	0.1427	0.8319	0.4712	0.1
Mof_H 	H 	0.1407	0.8584	0.5207	-0
Mof_C 	C 	0.226	0.8992	0.1225	-0.015
Mof_H 	H 	0.2635	0.907	0.1318	0.035
Mof_C 	C 	0.1901	0.9265	0.0649	0.006
Mof_H 	H 	0.1988	0.9577	0.0276	0.031
Mof_C 	C 	0.1483	0.7545	0.3222	-0.185
Mof_H 	H 	0.1495	0.7291	0.2709	0.103
Mof_C 	C 	0.2159	0.8136	0.2285	-0.17
Mof_H 	H 	0.2188	0.7794	0.1911	0.084
Mof_H 	H 	0.2529	0.8236	0.2506	0.081
Mof_C 	C 	0.1792	0.8035	0.3179	0.15
Mof_O 	O 	0.0585	0.8126	0.6183	-0.444
Mof_O 	O 	0.0613	0.7232	0.5874	-0.464
Mof_O 	O 	0.0133	0.1749	0.0717	-0.642
Mof_O 	O 	0.0227	0.1557	0.2314	-0.545
Mof_N 	N 	0.1952	0.8565	0.1658	-0.094
Mof_N 	N 	0.1394	0.9024	0.0686	-0.095
Mof_Eu	Eu	3.861e-33	0.75	0.02829	2.296
Mof_Eu	Eu	0.5	0.25	0.52829	2.527
Mof_Eu	Eu	2.19037e-33	0.25	0.27829	2.298
Mof_Eu	Eu	0.5	0.75	0.77829	2.528
Mof_Eu	Eu	-4.34185e-33	0.25	0.97171	2.298
Mof_Eu	Eu	0.5	0.75	0.47171	2.527
Mof_Eu	Eu	-1.67094e-33	0.75	0.72171	2.297
Mof_Eu	Eu	0.5	0.25	0.22171	2.528
_end
