data_functionalizedCrystal
_audit_creation_method	'EQeq! by Chris Wilmer'
_symmetry_space_group_name_H-M	'P1'
_symmetry_Int_Tables_number	1
_symmetry_cell_setting	triclinic
loop_
_symmetry_equiv_pos_as_xyz
  x,y,z
_cell_length_a	10.1108
_cell_length_b	10.811
_cell_length_c	13.7409
_cell_angle_alpha	79.139
_cell_angle_beta	78.745
_cell_angle_gamma	86.219
loop_
_atom_site_label
_atom_site_type_symbol
_atom_site_fract_x
_atom_site_fract_y
_atom_site_fract_z
_atom_site_charge
Mof_Dy	Dy	0.18189	0.07745	0.20323	1.864
Mof_Dy	Dy	0.81811	0.92255	0.79677	1.947
Mof_Co	Co	0.5	0.5	-0	1.075
Mof_H 	H 	0.1725	0.3297	0.3466	0.062
Mof_H 	H 	0.1534	0.6717	0.424	0.096
Mof_H 	H 	0.2179	0.6406	0.1318	0.008
Mof_H 	H 	0.1443	0.5455	0.758	0.083
Mof_H 	H 	0.1345	0.4277	0.9157	0.043
Mof_H 	H 	0.145	0.1183	0.8112	0.02
Mof_H 	H 	0.1548	0.2252	0.6498	0.063
Mof_H 	H 	0.8061	0.1469	0.4625	0.111
Mof_H 	H 	0.4109	0.16	0.4597	0.105
Mof_H 	H 	0.6763	0.0865	0.2177	0.047
Mof_H 	H 	0.4912	0.5227	0.6299	0.108
Mof_H 	H 	0.4877	0.5929	0.7775	-0.011
Mof_H 	H 	0.4666	0.2509	0.9293	-0.007
Mof_H 	H 	0.4808	0.1696	0.7845	0.068
Mof_H 	H 	0.1209	0.3536	0.5184	0.138
Mof_H 	H 	0.6188	0.1571	0.6184	0.157
Mof_H 	H 	0.8275	0.6703	0.6534	0.066
Mof_H 	H 	0.8466	0.3283	0.576	0.101
Mof_H 	H 	0.7821	0.3594	0.8682	0.039
Mof_H 	H 	0.8557	0.4545	0.242	0.08
Mof_H 	H 	0.8655	0.5723	0.0843	-0.005
Mof_H 	H 	0.855	0.8817	0.1888	0.006
Mof_H 	H 	0.8452	0.7748	0.3502	0.066
Mof_H 	H 	0.1939	0.8531	0.5375	0.114
Mof_H 	H 	0.5891	0.84	0.5403	0.108
Mof_H 	H 	0.3237	0.9135	0.7823	0.069
Mof_H 	H 	0.5088	0.4773	0.3701	0.11
Mof_H 	H 	0.5123	0.4071	0.2225	-0.024
Mof_H 	H 	0.5334	0.7491	0.0707	-0.055
Mof_H 	H 	0.5192	0.8304	0.2155	0.064
Mof_H 	H 	0.8791	0.6464	0.4816	0.139
Mof_H 	H 	0.3812	0.8429	0.3816	0.157
Mof_C 	C 	0.2008	0.4727	0.227	-0.133
Mof_C 	C 	0.178	0.4168	0.3285	-0.052
Mof_C 	C 	0.1635	0.4901	0.403	0.121
Mof_C 	C 	0.165	0.6213	0.3749	-0.086
Mof_C 	C 	0.1837	0.6753	0.2745	-0.064
Mof_C 	C 	0.2033	0.6027	0.1995	0.032
Mof_C 	C 	0.1872	0.8146	0.2472	0.321
Mof_C 	C 	0.2324	0.3929	0.1466	0.465
Mof_C 	C 	0.1652	0.4827	0.5819	0.224
Mof_C 	C 	0.1517	0.3997	0.6844	0.008
Mof_C 	C 	0.145	0.4581	0.7667	-0.086
Mof_C 	C 	0.1392	0.3865	0.8615	0.059
Mof_C 	C 	0.1453	0.2059	0.7999	0.061
Mof_C 	C 	0.1512	0.2691	0.7024	-0.09
Mof_C 	C 	0.7634	0.1136	0.3316	-0.021
Mof_C 	C 	0.7356	0.1416	0.429	-0.119
Mof_C 	C 	0.6047	0.1613	0.4755	0.165
Mof_C 	C 	0.4996	0.1489	0.4276	-0.123
Mof_C 	C 	0.5266	0.1197	0.331	-0.025
Mof_C 	C 	0.6584	0.1038	0.2828	-0.04
Mof_C 	C 	0.9086	0.0983	0.2835	0.314
Mof_C 	C 	0.4088	0.1087	0.2827	0.294
Mof_C 	C 	0.4958	0.2945	0.5913	0.208
Mof_C 	C 	0.4902	0.3382	0.6904	0.029
Mof_C 	C 	0.4893	0.4653	0.6898	-0.115
Mof_C 	C 	0.4856	0.5067	0.7791	0.08
Mof_C 	C 	0.4747	0.3061	0.8679	0.078
Mof_C 	C 	0.4817	0.2562	0.7814	-0.111
Mof_C 	C 	0.7992	0.5273	0.773	-0.11
Mof_C 	C 	0.822	0.5832	0.6715	-0.064
Mof_C 	C 	0.8365	0.5099	0.597	0.131
Mof_C 	C 	0.835	0.3787	0.6251	-0.098
Mof_C 	C 	0.8163	0.3247	0.7255	-0.045
Mof_C 	C 	0.7967	0.3973	0.8005	0.013
Mof_C 	C 	0.8128	0.1854	0.7528	0.312
Mof_C 	C 	0.7676	0.6071	0.8534	0.455
Mof_C 	C 	0.8348	0.5173	0.4181	0.224
Mof_C 	C 	0.8483	0.6003	0.3156	0.014
Mof_C 	C 	0.855	0.5419	0.2333	-0.1
Mof_C 	C 	0.8608	0.6135	0.1385	0.065
Mof_C 	C 	0.8547	0.7941	0.2001	0.063
Mof_C 	C 	0.8488	0.7309	0.2976	-0.096
Mof_C 	C 	0.2366	0.8864	0.6684	-0.006
Mof_C 	C 	0.2644	0.8584	0.571	-0.128
Mof_C 	C 	0.3953	0.8387	0.5245	0.172
Mof_C 	C 	0.5004	0.8511	0.5724	-0.132
Mof_C 	C 	0.4734	0.8803	0.669	-0.009
Mof_C 	C 	0.3416	0.8962	0.7172	-0.053
Mof_C 	C 	0.0914	0.9017	0.7165	0.306
Mof_C 	C 	0.5912	0.8913	0.7173	0.286
Mof_C 	C 	0.5042	0.7055	0.4087	0.206
Mof_C 	C 	0.5098	0.6618	0.3096	0.035
Mof_C 	C 	0.5107	0.5347	0.3102	-0.123
Mof_C 	C 	0.5144	0.4933	0.2209	0.083
Mof_C 	C 	0.5253	0.6939	0.1321	0.083
Mof_C 	C 	0.5183	0.7438	0.2186	-0.126
Mof_N 	N 	0.1461	0.4304	0.5045	-0.236
Mof_N 	N 	0.14	0.2617	0.8791	-0.123
Mof_N 	N 	0.5792	0.1982	0.5716	-0.248
Mof_N 	N 	0.479	0.4291	0.8679	-0.228
Mof_N 	N 	0.8539	0.5696	0.4955	-0.237
Mof_N 	N 	0.86	0.7383	0.1209	-0.154
Mof_N 	N 	0.4208	0.8018	0.4284	-0.249
Mof_N 	N 	0.521	0.5709	0.1321	-0.258
Mof_O 	O 	0.3069	0.4351	0.0651	-0.517
Mof_O 	O 	0.1801	0.2865	0.1654	-0.558
Mof_O 	O 	0.1708	0.8717	0.1618	-0.459
Mof_O 	O 	0.2072	0.8782	0.3107	-0.418
Mof_O 	O 	0.1921	0.5918	0.5744	-0.229
Mof_O 	O 	0.9427	0.0988	0.1906	-0.428
Mof_O 	O 	0.9976	0.0842	0.3364	-0.408
Mof_O 	O 	0.4265	0.0933	0.1908	-0.446
Mof_O 	O 	0.2917	0.1151	0.3322	-0.411
Mof_O 	O 	0.424	0.3511	0.5331	-0.22
Mof_O 	O 	0.6931	0.5649	0.9349	-0.442
Mof_O 	O 	0.8199	0.7135	0.8346	-0.536
Mof_O 	O 	0.8292	0.1283	0.8382	-0.432
Mof_O 	O 	0.7928	0.1218	0.6893	-0.421
Mof_O 	O 	0.8079	0.4082	0.4256	-0.23
Mof_O 	O 	0.0573	0.9012	0.8094	-0.406
Mof_O 	O 	0.0024	0.9158	0.6636	-0.416
Mof_O 	O 	0.5735	0.9067	0.8092	-0.42
Mof_O 	O 	0.7083	0.8849	0.6678	-0.414
Mof_O 	O 	0.576	0.6489	0.4669	-0.22
_end
