data_functionalizedCrystal
_audit_creation_method	'EQeq! by Chris Wilmer'
_symmetry_space_group_name_H-M	'P1'
_symmetry_Int_Tables_number	1
_symmetry_cell_setting	triclinic
loop_
_symmetry_equiv_pos_as_xyz
  x,y,z
_cell_length_a	28.526
_cell_length_b	20.41
_cell_length_c	18.118
_cell_angle_alpha	90
_cell_angle_beta	104.134
_cell_angle_gamma	90
loop_
_atom_site_label
_atom_site_type_symbol
_atom_site_fract_x
_atom_site_fract_y
_atom_site_fract_z
_atom_site_charge
Mof_Gd	Gd	0.68541	0.27991	0.01658	1.627
Mof_O 	O 	0.68168	0.2308	0.89714	-0.447
Mof_O 	O 	0.74816	0.17516	0.89149	-0.481
Mof_O 	O 	0.79984	0.87249	0.55612	-0.442
Mof_O 	O 	0.73457	0.81241	0.54326	-0.522
Mof_O 	O 	0.38347	0.20519	0.50087	-0.416
Mof_O 	O 	0.39829	0.29685	0.56118	-0.404
Mof_C 	C 	0.70445	0.1905	0.86814	0.436
Mof_C 	C 	0.67643	0.15663	0.79536	-0.108
Mof_C 	C 	0.697	0.10703	0.76388	-0.001
Mof_H 	H 	0.7286	0.0945	0.7862	0.031
Mof_C 	C 	0.67127	0.07479	0.69858	-0.031
Mof_C 	C 	0.69254	0.02041	0.66434	0.095
Mof_C 	C 	0.74216	0.02148	0.66427	-0.163
Mof_H 	H 	0.7612	0.0567	0.6863	0.08
Mof_C 	C 	0.76255	0.97164	0.63235	0.093
Mof_H 	H 	0.7952	0.9736	0.6327	0.006
Mof_C 	C 	0.73506	0.91807	0.59933	-0.186
Mof_C 	C 	0.7579	0.86421	0.56428	0.44
Mof_C 	C 	0.68613	0.91707	0.59985	0.099
Mof_H 	H 	0.667	0.8819	0.5779	-0.006
Mof_C 	C 	0.66604	0.96685	0.63201	-0.172
Mof_H 	H 	0.6335	0.9645	0.6321	0.087
Mof_C 	C 	0.62445	0.09609	0.66542	-0.052
Mof_H 	H 	0.6073	0.0761	0.6209	0.044
Mof_C 	C 	0.60254	0.14633	0.69674	-0.014
Mof_C 	C 	0.62915	0.17592	0.76357	-0.011
Mof_H 	H 	0.6151	0.2086	0.7868	0.045
Mof_C 	C 	0.5185	0.1277	0.6146	-0.048
Mof_H 	H 	0.5263	0.0841	0.6085	0.039
Mof_C 	C 	0.47347	0.1519	0.5803	-0.017
Mof_H 	H 	0.4506	0.1234	0.5521	0.041
Mof_C 	C 	0.4946	0.2585	0.6275	-0.034
Mof_H 	H 	0.4869	0.3025	0.6312	0.042
Mof_C 	C 	0.5414	0.2356	0.6649	-0.09
Mof_H 	H 	0.5642	0.2643	0.6929	0.056
Mof_C 	C 	0.46075	0.21642	0.58604	-0.096
Mof_C 	C 	0.55274	0.17095	0.65937	0.047
Mof_C 	C 	0.4109	0.2421	0.54705	0.341
Mof_C 	C 	0.5308	0.1598	0.5808	-0.067
Mof_H 	H 	0.5477	0.1348	0.5529	0.046
Mof_C 	C 	0.4884	0.1827	0.5455	0.024
Mof_H 	H 	0.4769	0.1763	0.4934	0.017
Mof_C 	C 	0.4842	0.239	0.6563	0.031
Mof_H 	H 	0.4697	0.2706	0.6805	0.017
Mof_C 	C 	0.5284	0.2154	0.6907	-0.016
Mof_H 	H 	0.5431	0.2309	0.7392	0.033
Mof_Gd	Gd	0.18541	0.77991	0.01658	1.624
Mof_O 	O 	0.18168	0.7308	0.89714	-0.445
Mof_O 	O 	0.24816	0.67516	0.89149	-0.48
Mof_O 	O 	0.29984	0.37249	0.55612	-0.441
Mof_O 	O 	0.23457	0.31241	0.54326	-0.521
Mof_O 	O 	0.88347	0.70519	0.50087	-0.415
Mof_O 	O 	0.89829	0.79685	0.56118	-0.404
Mof_C 	C 	0.20445	0.6905	0.86814	0.436
Mof_C 	C 	0.17643	0.65663	0.79536	-0.107
Mof_C 	C 	0.197	0.60703	0.76388	-0.001
Mof_H 	H 	0.2286	0.5945	0.7862	0.031
Mof_C 	C 	0.17127	0.57479	0.69858	-0.031
Mof_C 	C 	0.19254	0.52041	0.66434	0.095
Mof_C 	C 	0.24216	0.52148	0.66427	-0.162
Mof_H 	H 	0.2612	0.5567	0.6863	0.08
Mof_C 	C 	0.26255	0.47164	0.63235	0.093
Mof_H 	H 	0.2952	0.4736	0.6327	0.006
Mof_C 	C 	0.23506	0.41807	0.59933	-0.186
Mof_C 	C 	0.2579	0.36421	0.56428	0.44
Mof_C 	C 	0.18613	0.41707	0.59985	0.099
Mof_H 	H 	0.167	0.3819	0.5779	-0.006
Mof_C 	C 	0.16604	0.46685	0.63201	-0.172
Mof_H 	H 	0.1335	0.4645	0.6321	0.087
Mof_C 	C 	0.12445	0.59609	0.66542	-0.052
Mof_H 	H 	0.1073	0.5761	0.6209	0.044
Mof_C 	C 	0.10254	0.64633	0.69674	-0.014
Mof_C 	C 	0.12915	0.67592	0.76357	-0.012
Mof_H 	H 	0.1151	0.7086	0.7868	0.045
Mof_C 	C 	0.0185	0.6277	0.6146	-0.048
Mof_H 	H 	0.0263	0.5841	0.6085	0.039
Mof_C 	C 	0.97347	0.6519	0.5803	-0.017
Mof_H 	H 	0.9506	0.6234	0.5521	0.041
Mof_C 	C 	0.9946	0.7585	0.6275	-0.034
Mof_H 	H 	0.9869	0.8025	0.6312	0.042
Mof_C 	C 	0.0414	0.7356	0.6649	-0.09
Mof_H 	H 	0.0642	0.7643	0.6929	0.056
Mof_C 	C 	0.96075	0.71642	0.58604	-0.095
Mof_C 	C 	0.05274	0.67095	0.65937	0.047
Mof_C 	C 	0.9109	0.7421	0.54705	0.341
Mof_C 	C 	0.0308	0.6598	0.5808	-0.067
Mof_H 	H 	0.0477	0.6348	0.5529	0.046
Mof_C 	C 	0.9884	0.6827	0.5455	0.024
Mof_H 	H 	0.9769	0.6763	0.4934	0.017
Mof_C 	C 	0.9842	0.739	0.6563	0.031
Mof_H 	H 	0.9697	0.7706	0.6805	0.016
Mof_C 	C 	0.0284	0.7154	0.6907	-0.015
Mof_H 	H 	0.0431	0.7309	0.7392	0.032
Mof_Gd	Gd	0.31459	0.27991	0.48342	1.626
Mof_O 	O 	0.31832	0.2308	0.60286	-0.445
Mof_O 	O 	0.25184	0.17516	0.60851	-0.48
Mof_O 	O 	0.20016	0.87249	0.94388	-0.441
Mof_O 	O 	0.26543	0.81241	0.95674	-0.52
Mof_O 	O 	0.61653	0.20519	0.99913	-0.415
Mof_O 	O 	0.60171	0.29685	0.93882	-0.404
Mof_C 	C 	0.29555	0.1905	0.63186	0.436
Mof_C 	C 	0.32357	0.15663	0.70464	-0.107
Mof_C 	C 	0.303	0.10703	0.73612	-0.001
Mof_H 	H 	0.2714	0.0945	0.7138	0.031
Mof_C 	C 	0.32873	0.07479	0.80142	-0.031
Mof_C 	C 	0.30746	0.02041	0.83566	0.095
Mof_C 	C 	0.25784	0.02148	0.83573	-0.163
Mof_H 	H 	0.2388	0.0567	0.8137	0.08
Mof_C 	C 	0.23745	0.97164	0.86765	0.094
Mof_H 	H 	0.2048	0.9736	0.8673	0.006
Mof_C 	C 	0.26494	0.91807	0.90067	-0.186
Mof_C 	C 	0.2421	0.86421	0.93572	0.441
Mof_C 	C 	0.31387	0.91707	0.90015	0.099
Mof_H 	H 	0.333	0.8819	0.9221	-0.006
Mof_C 	C 	0.33396	0.96685	0.86799	-0.171
Mof_H 	H 	0.3665	0.9645	0.8679	0.087
Mof_C 	C 	0.37555	0.09609	0.83458	-0.052
Mof_H 	H 	0.3927	0.0761	0.8791	0.044
Mof_C 	C 	0.39746	0.14633	0.80326	-0.014
Mof_C 	C 	0.37085	0.17592	0.73643	-0.012
Mof_H 	H 	0.3849	0.2086	0.7132	0.045
Mof_C 	C 	0.4815	0.1277	0.8854	-0.047
Mof_H 	H 	0.4737	0.0841	0.8915	0.039
Mof_C 	C 	0.52653	0.1519	0.9197	-0.018
Mof_H 	H 	0.5494	0.1234	0.9479	0.042
Mof_C 	C 	0.5054	0.2585	0.8725	-0.033
Mof_H 	H 	0.5131	0.3025	0.8688	0.042
Mof_C 	C 	0.4586	0.2356	0.8351	-0.09
Mof_H 	H 	0.4358	0.2643	0.8071	0.056
Mof_C 	C 	0.53925	0.21642	0.91396	-0.095
Mof_C 	C 	0.44726	0.17095	0.84063	0.047
Mof_C 	C 	0.5891	0.2421	0.95295	0.341
Mof_C 	C 	0.4692	0.1598	0.9192	-0.068
Mof_H 	H 	0.4523	0.1348	0.9471	0.047
Mof_C 	C 	0.5116	0.1827	0.9545	0.025
Mof_H 	H 	0.5231	0.1763	0.0066	0.017
Mof_C 	C 	0.5158	0.239	0.8437	0.031
Mof_H 	H 	0.5303	0.2706	0.8195	0.017
Mof_C 	C 	0.4716	0.2154	0.8093	-0.016
Mof_H 	H 	0.4569	0.2309	0.7608	0.033
Mof_Gd	Gd	0.81459	0.77991	0.48342	1.626
Mof_O 	O 	0.81832	0.7308	0.60286	-0.445
Mof_O 	O 	0.75184	0.67516	0.60851	-0.48
Mof_O 	O 	0.70016	0.37249	0.94388	-0.441
Mof_O 	O 	0.76543	0.31241	0.95674	-0.521
Mof_O 	O 	0.11653	0.70519	0.99913	-0.414
Mof_O 	O 	0.10171	0.79685	0.93882	-0.404
Mof_C 	C 	0.79555	0.6905	0.63186	0.436
Mof_C 	C 	0.82357	0.65663	0.70464	-0.108
Mof_C 	C 	0.803	0.60703	0.73612	-0.001
Mof_H 	H 	0.7714	0.5945	0.7138	0.031
Mof_C 	C 	0.82873	0.57479	0.80142	-0.031
Mof_C 	C 	0.80746	0.52041	0.83566	0.096
Mof_C 	C 	0.75784	0.52148	0.83573	-0.163
Mof_H 	H 	0.7388	0.5567	0.8137	0.08
Mof_C 	C 	0.73745	0.47164	0.86765	0.093
Mof_H 	H 	0.7048	0.4736	0.8673	0.006
Mof_C 	C 	0.76494	0.41807	0.90067	-0.186
Mof_C 	C 	0.7421	0.36421	0.93572	0.44
Mof_C 	C 	0.81387	0.41707	0.90015	0.099
Mof_H 	H 	0.833	0.3819	0.9221	-0.006
Mof_C 	C 	0.83396	0.46685	0.86799	-0.172
Mof_H 	H 	0.8665	0.4645	0.8679	0.087
Mof_C 	C 	0.87555	0.59609	0.83458	-0.052
Mof_H 	H 	0.8927	0.5761	0.8791	0.043
Mof_C 	C 	0.89746	0.64633	0.80326	-0.014
Mof_C 	C 	0.87085	0.67592	0.73643	-0.011
Mof_H 	H 	0.8849	0.7086	0.7132	0.045
Mof_C 	C 	0.9815	0.6277	0.8854	-0.053
Mof_H 	H 	0.9737	0.5841	0.8915	0.041
Mof_C 	C 	0.02653	0.6519	0.9197	-0.014
Mof_H 	H 	0.0494	0.6234	0.9479	0.041
Mof_C 	C 	0.0054	0.7585	0.8725	-0.033
Mof_H 	H 	0.0131	0.8025	0.8688	0.042
Mof_C 	C 	0.9586	0.7356	0.8351	-0.091
Mof_H 	H 	0.9358	0.7643	0.8071	0.056
Mof_C 	C 	0.03925	0.71642	0.91396	-0.097
Mof_C 	C 	0.94726	0.67095	0.84063	0.049
Mof_C 	C 	0.0891	0.7421	0.95295	0.342
Mof_C 	C 	0.9692	0.6598	0.9192	-0.065
Mof_H 	H 	0.9523	0.6348	0.9471	0.046
Mof_C 	C 	0.0116	0.6827	0.9545	0.024
Mof_H 	H 	0.0231	0.6763	0.0066	0.016
Mof_C 	C 	0.0158	0.739	0.8437	0.032
Mof_H 	H 	0.0303	0.7706	0.8195	0.016
Mof_C 	C 	0.9716	0.7154	0.8093	-0.017
Mof_H 	H 	0.9569	0.7309	0.7608	0.033
Mof_Gd	Gd	0.31459	0.72009	0.98342	1.628
Mof_O 	O 	0.31832	0.7692	0.10286	-0.446
Mof_O 	O 	0.25184	0.82484	0.10851	-0.48
Mof_O 	O 	0.20016	0.12751	0.44388	-0.441
Mof_O 	O 	0.26543	0.18759	0.45674	-0.521
Mof_O 	O 	0.61653	0.79481	0.49913	-0.415
Mof_O 	O 	0.60171	0.70315	0.43882	-0.404
Mof_C 	C 	0.29555	0.8095	0.13186	0.436
Mof_C 	C 	0.32357	0.84337	0.20464	-0.108
Mof_C 	C 	0.303	0.89297	0.23612	-0.001
Mof_H 	H 	0.2714	0.9055	0.2138	0.031
Mof_C 	C 	0.32873	0.92521	0.30142	-0.031
Mof_C 	C 	0.30746	0.97959	0.33566	0.095
Mof_C 	C 	0.25784	0.97852	0.33573	-0.163
Mof_H 	H 	0.2388	0.9433	0.3137	0.08
Mof_C 	C 	0.23745	0.02836	0.36765	0.093
Mof_H 	H 	0.2048	0.0264	0.3673	0.006
Mof_C 	C 	0.26494	0.08193	0.40067	-0.186
Mof_C 	C 	0.2421	0.13579	0.43572	0.44
Mof_C 	C 	0.31387	0.08293	0.40015	0.099
Mof_H 	H 	0.333	0.1181	0.4221	-0.006
Mof_C 	C 	0.33396	0.03315	0.36799	-0.172
Mof_H 	H 	0.3665	0.0355	0.3679	0.087
Mof_C 	C 	0.37555	0.90391	0.33458	-0.052
Mof_H 	H 	0.3927	0.9239	0.3791	0.044
Mof_C 	C 	0.39746	0.85367	0.30326	-0.014
Mof_C 	C 	0.37085	0.82408	0.23643	-0.011
Mof_H 	H 	0.3849	0.7914	0.2132	0.045
Mof_C 	C 	0.4815	0.8723	0.3854	-0.048
Mof_H 	H 	0.4737	0.9159	0.3915	0.039
Mof_C 	C 	0.52653	0.8481	0.4197	-0.017
Mof_H 	H 	0.5494	0.8766	0.4479	0.041
Mof_C 	C 	0.5054	0.7415	0.3725	-0.034
Mof_H 	H 	0.5131	0.6975	0.3688	0.042
Mof_C 	C 	0.4586	0.7644	0.3351	-0.09
Mof_H 	H 	0.4358	0.7357	0.3071	0.056
Mof_C 	C 	0.53925	0.78358	0.41396	-0.096
Mof_C 	C 	0.44726	0.82905	0.34063	0.047
Mof_C 	C 	0.5891	0.7579	0.45295	0.341
Mof_C 	C 	0.4692	0.8402	0.4192	-0.067
Mof_H 	H 	0.4523	0.8652	0.4471	0.046
Mof_C 	C 	0.5116	0.8173	0.4545	0.024
Mof_H 	H 	0.5231	0.8237	0.5066	0.017
Mof_C 	C 	0.5158	0.761	0.3437	0.031
Mof_H 	H 	0.5303	0.7294	0.3195	0.017
Mof_C 	C 	0.4716	0.7846	0.3093	-0.016
Mof_H 	H 	0.4569	0.7691	0.2608	0.033
Mof_Gd	Gd	0.81459	0.22009	0.98342	1.624
Mof_O 	O 	0.81832	0.2692	0.10286	-0.445
Mof_O 	O 	0.75184	0.32484	0.10851	-0.48
Mof_O 	O 	0.70016	0.62751	0.44388	-0.441
Mof_O 	O 	0.76543	0.68759	0.45674	-0.521
Mof_O 	O 	0.11653	0.29481	0.49913	-0.415
Mof_O 	O 	0.10171	0.20315	0.43882	-0.404
Mof_C 	C 	0.79555	0.3095	0.13186	0.436
Mof_C 	C 	0.82357	0.34337	0.20464	-0.107
Mof_C 	C 	0.803	0.39297	0.23612	-0.001
Mof_H 	H 	0.7714	0.4055	0.2138	0.031
Mof_C 	C 	0.82873	0.42521	0.30142	-0.031
Mof_C 	C 	0.80746	0.47959	0.33566	0.095
Mof_C 	C 	0.75784	0.47852	0.33573	-0.162
Mof_H 	H 	0.7388	0.4433	0.3137	0.08
Mof_C 	C 	0.73745	0.52836	0.36765	0.093
Mof_H 	H 	0.7048	0.5264	0.3673	0.006
Mof_C 	C 	0.76494	0.58193	0.40067	-0.186
Mof_C 	C 	0.7421	0.63579	0.43572	0.44
Mof_C 	C 	0.81387	0.58293	0.40015	0.099
Mof_H 	H 	0.833	0.6181	0.4221	-0.006
Mof_C 	C 	0.83396	0.53315	0.36799	-0.172
Mof_H 	H 	0.8665	0.5355	0.3679	0.087
Mof_C 	C 	0.87555	0.40391	0.33458	-0.052
Mof_H 	H 	0.8927	0.4239	0.3791	0.044
Mof_C 	C 	0.89746	0.35367	0.30326	-0.014
Mof_C 	C 	0.87085	0.32408	0.23643	-0.012
Mof_H 	H 	0.8849	0.2914	0.2132	0.045
Mof_C 	C 	0.9815	0.3723	0.3854	-0.048
Mof_H 	H 	0.9737	0.4159	0.3915	0.039
Mof_C 	C 	0.02653	0.3481	0.4197	-0.017
Mof_H 	H 	0.0494	0.3766	0.4479	0.041
Mof_C 	C 	0.0054	0.2415	0.3725	-0.034
Mof_H 	H 	0.0131	0.1975	0.3688	0.042
Mof_C 	C 	0.9586	0.2644	0.3351	-0.09
Mof_H 	H 	0.9358	0.2357	0.3071	0.056
Mof_C 	C 	0.03925	0.28358	0.41396	-0.095
Mof_C 	C 	0.94726	0.32905	0.34063	0.047
Mof_C 	C 	0.0891	0.2579	0.45295	0.341
Mof_C 	C 	0.9692	0.3402	0.4192	-0.067
Mof_H 	H 	0.9523	0.3652	0.4471	0.046
Mof_C 	C 	0.0116	0.3173	0.4545	0.024
Mof_H 	H 	0.0231	0.3237	0.5066	0.017
Mof_C 	C 	0.0158	0.261	0.3437	0.031
Mof_H 	H 	0.0303	0.2294	0.3195	0.016
Mof_C 	C 	0.9716	0.2846	0.3093	-0.015
Mof_H 	H 	0.9569	0.2691	0.2608	0.032
Mof_Gd	Gd	0.68541	0.72009	0.51658	1.626
Mof_O 	O 	0.68168	0.7692	0.39714	-0.445
Mof_O 	O 	0.74816	0.82484	0.39149	-0.48
Mof_O 	O 	0.79984	0.12751	0.05612	-0.441
Mof_O 	O 	0.73457	0.18759	0.04326	-0.52
Mof_O 	O 	0.38347	0.79481	0.00087	-0.415
Mof_O 	O 	0.39829	0.70315	0.06118	-0.404
Mof_C 	C 	0.70445	0.8095	0.36814	0.436
Mof_C 	C 	0.67643	0.84337	0.29536	-0.107
Mof_C 	C 	0.697	0.89297	0.26388	-0.001
Mof_H 	H 	0.7286	0.9055	0.2862	0.031
Mof_C 	C 	0.67127	0.92521	0.19858	-0.031
Mof_C 	C 	0.69254	0.97959	0.16434	0.095
Mof_C 	C 	0.74216	0.97852	0.16427	-0.163
Mof_H 	H 	0.7612	0.9433	0.1863	0.08
Mof_C 	C 	0.76255	0.02836	0.13235	0.094
Mof_H 	H 	0.7952	0.0264	0.1327	0.006
Mof_C 	C 	0.73506	0.08193	0.09933	-0.186
Mof_C 	C 	0.7579	0.13579	0.06428	0.441
Mof_C 	C 	0.68613	0.08293	0.09985	0.099
Mof_H 	H 	0.667	0.1181	0.0779	-0.006
Mof_C 	C 	0.66604	0.03315	0.13201	-0.171
Mof_H 	H 	0.6335	0.0355	0.1321	0.087
Mof_C 	C 	0.62445	0.90391	0.16542	-0.052
Mof_H 	H 	0.6073	0.9239	0.1209	0.044
Mof_C 	C 	0.60254	0.85367	0.19674	-0.014
Mof_C 	C 	0.62915	0.82408	0.26357	-0.012
Mof_H 	H 	0.6151	0.7914	0.2868	0.045
Mof_C 	C 	0.5185	0.8723	0.1146	-0.047
Mof_H 	H 	0.5263	0.9159	0.1085	0.039
Mof_C 	C 	0.47347	0.8481	0.0803	-0.018
Mof_H 	H 	0.4506	0.8766	0.0521	0.042
Mof_C 	C 	0.4946	0.7415	0.1275	-0.033
Mof_H 	H 	0.4869	0.6975	0.1312	0.042
Mof_C 	C 	0.5414	0.7644	0.1649	-0.09
Mof_H 	H 	0.5642	0.7357	0.1929	0.056
Mof_C 	C 	0.46075	0.78358	0.08604	-0.095
Mof_C 	C 	0.55274	0.82905	0.15937	0.047
Mof_C 	C 	0.4109	0.7579	0.04705	0.341
Mof_C 	C 	0.5308	0.8402	0.0808	-0.068
Mof_H 	H 	0.5477	0.8652	0.0529	0.047
Mof_C 	C 	0.4884	0.8173	0.0455	0.025
Mof_H 	H 	0.4769	0.8237	0.9934	0.017
Mof_C 	C 	0.4842	0.761	0.1563	0.031
Mof_H 	H 	0.4697	0.7294	0.1805	0.017
Mof_C 	C 	0.5284	0.7846	0.1907	-0.016
Mof_H 	H 	0.5431	0.7691	0.2392	0.033
Mof_Gd	Gd	0.18541	0.22009	0.51658	1.626
Mof_O 	O 	0.18168	0.2692	0.39714	-0.445
Mof_O 	O 	0.24816	0.32484	0.39149	-0.48
Mof_O 	O 	0.29984	0.62751	0.05612	-0.441
Mof_O 	O 	0.23457	0.68759	0.04326	-0.521
Mof_O 	O 	0.88347	0.29481	0.00087	-0.414
Mof_O 	O 	0.89829	0.20315	0.06118	-0.404
Mof_C 	C 	0.20445	0.3095	0.36814	0.436
Mof_C 	C 	0.17643	0.34337	0.29536	-0.108
Mof_C 	C 	0.197	0.39297	0.26388	-0.001
Mof_H 	H 	0.2286	0.4055	0.2862	0.031
Mof_C 	C 	0.17127	0.42521	0.19858	-0.031
Mof_C 	C 	0.19254	0.47959	0.16434	0.096
Mof_C 	C 	0.24216	0.47852	0.16427	-0.163
Mof_H 	H 	0.2612	0.4433	0.1863	0.08
Mof_C 	C 	0.26255	0.52836	0.13235	0.093
Mof_H 	H 	0.2952	0.5264	0.1327	0.006
Mof_C 	C 	0.23506	0.58193	0.09933	-0.186
Mof_C 	C 	0.2579	0.63579	0.06428	0.44
Mof_C 	C 	0.18613	0.58293	0.09985	0.099
Mof_H 	H 	0.167	0.6181	0.0779	-0.006
Mof_C 	C 	0.16604	0.53315	0.13201	-0.172
Mof_H 	H 	0.1335	0.5355	0.1321	0.087
Mof_C 	C 	0.12445	0.40391	0.16542	-0.052
Mof_H 	H 	0.1073	0.4239	0.1209	0.043
Mof_C 	C 	0.10254	0.35367	0.19674	-0.014
Mof_C 	C 	0.12915	0.32408	0.26357	-0.011
Mof_H 	H 	0.1151	0.2914	0.2868	0.045
Mof_C 	C 	0.0185	0.3723	0.1146	-0.053
Mof_H 	H 	0.0263	0.4159	0.1085	0.041
Mof_C 	C 	0.97347	0.3481	0.0803	-0.014
Mof_H 	H 	0.9506	0.3766	0.0521	0.041
Mof_C 	C 	0.9946	0.2415	0.1275	-0.033
Mof_H 	H 	0.9869	0.1975	0.1312	0.042
Mof_C 	C 	0.0414	0.2644	0.1649	-0.091
Mof_H 	H 	0.0642	0.2357	0.1929	0.056
Mof_C 	C 	0.96075	0.28358	0.08604	-0.097
Mof_C 	C 	0.05274	0.32905	0.15937	0.049
Mof_C 	C 	0.9109	0.2579	0.04705	0.342
Mof_C 	C 	0.0308	0.3402	0.0808	-0.065
Mof_H 	H 	0.0477	0.3652	0.0529	0.046
Mof_C 	C 	0.9884	0.3173	0.0455	0.024
Mof_H 	H 	0.9769	0.3237	0.9934	0.016
Mof_C 	C 	0.9842	0.261	0.1563	0.032
Mof_H 	H 	0.9697	0.2294	0.1805	0.016
Mof_C 	C 	0.0284	0.2846	0.1907	-0.017
Mof_H 	H 	0.0431	0.2691	0.2392	0.033
_end
