data_functionalizedCrystal
_audit_creation_method	'EQeq! by Chris Wilmer'
_symmetry_space_group_name_H-M	'P1'
_symmetry_Int_Tables_number	1
_symmetry_cell_setting	triclinic
loop_
_symmetry_equiv_pos_as_xyz
  x,y,z
_cell_length_a	12.7832
_cell_length_b	12.7832
_cell_length_c	32.5345
_cell_angle_alpha	90
_cell_angle_beta	90
_cell_angle_gamma	90
loop_
_atom_site_label
_atom_site_type_symbol
_atom_site_fract_x
_atom_site_fract_y
_atom_site_fract_z
_atom_site_charge
Mof_C 	C 	0.5697	0.675	0.791	0.372
Mof_C 	C 	0.9581	0.2539	0.95121	-2.116
Mof_C 	C 	0.9442	0.1472	0.9308	4.914
Mof_C 	C 	0.9605	0.148	0.8869	-6.373
Mof_H 	H 	0.9731	0.078	0.8775	1.854
Mof_H 	H 	0.0198	0.1911	0.8805	1.892
Mof_H 	H 	0.8995	0.1756	0.8735	1.816
Mof_C 	C 	0.0408	0.0835	0.9453	-4.585
Mof_H 	H 	0.022	0.0416	0.9687	1.243
Mof_H 	H 	0.096	0.1307	0.9528	1.338
Mof_H 	H 	0.0642	0.0389	0.9234	1.315
Mof_C 	C 	0.8587	0.0874	0.9464	-6.604
Mof_H 	H 	0.7941	0.1178	0.9373	1.909
Mof_H 	H 	0.861	0.0873	0.9759	1.929
Mof_H 	H 	0.8637	0.0168	0.9365	1.911
Mof_C 	C 	0.4835	0.6499	0.82062	-0.193
Mof_C 	C 	0.4014	0.5845	0.80989	0.01
Mof_H 	H 	0.3983	0.5556	0.7837	-0.016
Mof_C 	C 	0.3241	0.5626	0.83854	-0.162
Mof_H 	H 	0.2696	0.518	0.8314	0.034
Mof_C 	C 	0.3262	0.6044	0.87645	-0.021
Mof_C 	C 	0.409	0.6678	0.88759	-0.194
Mof_H 	H 	0.4128	0.6958	0.9139	0.031
Mof_C 	C 	0.486	0.6888	0.85901	0.025
Mof_H 	H 	0.5417	0.7314	0.8666	-0.022
Mof_C 	C 	0.2442	0.5789	0.90672	0.04
Mof_C 	C 	0.1408	0.589	0.95985	0.116
Mof_C 	C 	0.1231	0.4961	0.93972	0.109
Mof_C 	C 	0.0477	0.4223	0.9543	-0.531
Mof_C 	C 	0.0306	0.3261	0.93538	1.052
Mof_H 	H 	0.068	0.3092	0.9118	-0.505
Mof_C 	C 	0.9004	0.284	0.98532	1.083
Mof_H 	H 	0.8495	0.2388	0.9954	-0.477
Mof_C 	C 	0.9159	0.3789	0.00487	-0.555
Mof_C 	C 	0.9913	0.4505	0.98981	0.212
Mof_N 	N 	0.2202	0.6407	0.93874	-0.24
Mof_H 	H 	0.2481	0.6998	0.9449	0.096
Mof_N 	N 	0.1889	0.4904	0.90642	-0.237
Mof_O 	O 	0.6382	0.7313	0.80116	-0.348
Mof_O 	O 	0.5679	0.6376	0.75644	-0.328
Mof_H 	H 	0.1935	0.4401	0.889	0.059
Mof_C 	C 	0.9303	0.825	0.791	0.371
Mof_C 	C 	0.5419	0.2461	0.95121	-2.157
Mof_C 	C 	0.5558	0.3528	0.9308	4.995
Mof_C 	C 	0.5395	0.352	0.8869	-6.495
Mof_H 	H 	0.5269	0.422	0.8775	1.888
Mof_H 	H 	0.4802	0.3089	0.8805	1.932
Mof_H 	H 	0.6005	0.3244	0.8735	1.852
Mof_C 	C 	0.4592	0.4165	0.9453	-4.65
Mof_H 	H 	0.478	0.4584	0.9687	1.263
Mof_H 	H 	0.404	0.3693	0.9528	1.358
Mof_H 	H 	0.4358	0.4611	0.9234	1.337
Mof_C 	C 	0.6413	0.4126	0.9464	-6.707
Mof_H 	H 	0.7059	0.3822	0.9373	1.94
Mof_H 	H 	0.639	0.4127	0.9759	1.958
Mof_H 	H 	0.6363	0.4832	0.9365	1.94
Mof_C 	C 	0.0165	0.8501	0.82062	-0.191
Mof_C 	C 	0.0986	0.9155	0.80989	0.011
Mof_H 	H 	0.1017	0.9444	0.7837	-0.014
Mof_C 	C 	0.1759	0.9374	0.83854	-0.16
Mof_H 	H 	0.2304	0.982	0.8314	0.036
Mof_C 	C 	0.1738	0.8956	0.87645	-0.021
Mof_C 	C 	0.091	0.8322	0.88759	-0.192
Mof_H 	H 	0.0872	0.8042	0.9139	0.032
Mof_C 	C 	0.014	0.8112	0.85901	0.026
Mof_H 	H 	0.9583	0.7686	0.8666	-0.023
Mof_C 	C 	0.2558	0.9211	0.90672	0.046
Mof_C 	C 	0.3592	0.911	0.95985	0.124
Mof_C 	C 	0.3769	0.0039	0.93972	0.107
Mof_C 	C 	0.4523	0.0777	0.9543	-0.538
Mof_C 	C 	0.4694	0.1739	0.93538	1.077
Mof_H 	H 	0.432	0.1908	0.9118	-0.515
Mof_C 	C 	0.5996	0.216	0.98532	1.106
Mof_H 	H 	0.6505	0.2612	0.9954	-0.487
Mof_C 	C 	0.5841	0.1211	0.00487	-0.564
Mof_C 	C 	0.5087	0.0495	0.98981	0.215
Mof_N 	N 	0.2798	0.8593	0.93874	-0.242
Mof_H 	H 	0.2519	0.8002	0.9449	0.097
Mof_N 	N 	0.3111	0.0096	0.90642	-0.24
Mof_O 	O 	0.8618	0.7687	0.80116	-0.348
Mof_O 	O 	0.9321	0.8624	0.75644	-0.327
Mof_H 	H 	0.3065	0.0599	0.889	0.059
Mof_C 	C 	0.325	0.0697	0.291	0.374
Mof_C 	C 	0.7461	0.4581	0.45121	-2.157
Mof_C 	C 	0.8528	0.4442	0.4308	4.994
Mof_C 	C 	0.852	0.4605	0.3869	-6.493
Mof_H 	H 	0.922	0.4731	0.3775	1.887
Mof_H 	H 	0.8089	0.5198	0.3805	1.932
Mof_H 	H 	0.8244	0.3995	0.3735	1.851
Mof_C 	C 	0.9165	0.5408	0.4453	-4.647
Mof_H 	H 	0.9584	0.522	0.4687	1.262
Mof_H 	H 	0.8693	0.596	0.4528	1.357
Mof_H 	H 	0.9611	0.5642	0.4234	1.335
Mof_C 	C 	0.9126	0.3587	0.4464	-6.706
Mof_H 	H 	0.8822	0.2941	0.4373	1.94
Mof_H 	H 	0.9127	0.361	0.4759	1.958
Mof_H 	H 	0.9832	0.3637	0.4365	1.94
Mof_C 	C 	0.3501	0.9835	0.32062	-0.196
Mof_C 	C 	0.4155	0.9014	0.30989	0.013
Mof_H 	H 	0.4444	0.8983	0.2837	-0.017
Mof_C 	C 	0.4374	0.8241	0.33854	-0.163
Mof_H 	H 	0.482	0.7696	0.3314	0.035
Mof_C 	C 	0.3956	0.8262	0.37645	-0.019
Mof_C 	C 	0.3322	0.909	0.38759	-0.194
Mof_H 	H 	0.3042	0.9128	0.4139	0.032
Mof_C 	C 	0.3112	0.986	0.35901	0.027
Mof_H 	H 	0.2686	0.0417	0.3666	-0.023
Mof_C 	C 	0.4211	0.7442	0.40672	0.04
Mof_C 	C 	0.411	0.6408	0.45985	0.12
Mof_C 	C 	0.5039	0.6231	0.43972	0.112
Mof_C 	C 	0.5777	0.5477	0.4543	-0.54
Mof_C 	C 	0.6739	0.5306	0.43538	1.079
Mof_H 	H 	0.6908	0.568	0.4118	-0.515
Mof_C 	C 	0.716	0.4004	0.48532	1.108
Mof_H 	H 	0.7612	0.3495	0.4954	-0.487
Mof_C 	C 	0.6211	0.4159	0.50487	-0.566
Mof_C 	C 	0.5495	0.4913	0.48981	0.216
Mof_N 	N 	0.3593	0.7202	0.43874	-0.241
Mof_H 	H 	0.3002	0.7481	0.4449	0.096
Mof_N 	N 	0.5096	0.6889	0.40642	-0.237
Mof_O 	O 	0.2687	0.1382	0.30116	-0.349
Mof_O 	O 	0.3624	0.0679	0.25644	-0.327
Mof_H 	H 	0.5599	0.6935	0.389	0.06
Mof_C 	C 	0.175	0.4303	0.291	0.371
Mof_C 	C 	0.7539	0.0419	0.45121	-2.119
Mof_C 	C 	0.6472	0.0558	0.4308	4.917
Mof_C 	C 	0.648	0.0395	0.3869	-6.382
Mof_H 	H 	0.578	0.0269	0.3775	1.856
Mof_H 	H 	0.6911	0.9802	0.3805	1.895
Mof_H 	H 	0.6756	0.1005	0.3735	1.819
Mof_C 	C 	0.5835	0.9592	0.4453	-4.588
Mof_H 	H 	0.5416	0.978	0.4687	1.246
Mof_H 	H 	0.6307	0.904	0.4528	1.339
Mof_H 	H 	0.5389	0.9358	0.4234	1.319
Mof_C 	C 	0.5874	0.1413	0.4464	-6.607
Mof_H 	H 	0.6178	0.2059	0.4373	1.91
Mof_H 	H 	0.5873	0.139	0.4759	1.929
Mof_H 	H 	0.5168	0.1363	0.4365	1.911
Mof_C 	C 	0.1499	0.5165	0.32062	-0.192
Mof_C 	C 	0.0845	0.5986	0.30989	0.01
Mof_H 	H 	0.0556	0.6017	0.2837	-0.015
Mof_C 	C 	0.0626	0.6759	0.33854	-0.161
Mof_H 	H 	0.018	0.7304	0.3314	0.036
Mof_C 	C 	0.1044	0.6738	0.37645	-0.022
Mof_C 	C 	0.1678	0.591	0.38759	-0.193
Mof_H 	H 	0.1958	0.5872	0.4139	0.031
Mof_C 	C 	0.1888	0.514	0.35901	0.024
Mof_H 	H 	0.2314	0.4583	0.3666	-0.022
Mof_C 	C 	0.0789	0.7558	0.40672	0.045
Mof_C 	C 	0.089	0.8592	0.45985	0.123
Mof_C 	C 	0.9961	0.8769	0.43972	0.104
Mof_C 	C 	0.9223	0.9523	0.4543	-0.535
Mof_C 	C 	0.8261	0.9694	0.43538	1.054
Mof_H 	H 	0.8092	0.932	0.4118	-0.505
Mof_C 	C 	0.784	0.0996	0.48532	1.087
Mof_H 	H 	0.7388	0.1505	0.4954	-0.479
Mof_C 	C 	0.8789	0.0841	0.50487	-0.559
Mof_C 	C 	0.9505	0.0087	0.48981	0.217
Mof_N 	N 	0.1407	0.7798	0.43874	-0.242
Mof_H 	H 	0.1998	0.7519	0.4449	0.097
Mof_N 	N 	0.9904	0.8111	0.40642	-0.239
Mof_O 	O 	0.2313	0.3618	0.30116	-0.348
Mof_O 	O 	0.1376	0.4321	0.25644	-0.327
Mof_H 	H 	0.9401	0.8065	0.389	0.058
Mof_C 	C 	0.4303	0.325	0.209	0.371
Mof_C 	C 	0.0419	0.7461	0.04879	-2.117
Mof_C 	C 	0.0558	0.8528	0.0692	4.914
Mof_C 	C 	0.0395	0.852	0.1131	-6.373
Mof_H 	H 	0.0269	0.922	0.1225	1.854
Mof_H 	H 	0.9802	0.8089	0.1195	1.892
Mof_H 	H 	0.1005	0.8244	0.1265	1.816
Mof_C 	C 	0.9592	0.9165	0.0547	-4.585
Mof_H 	H 	0.978	0.9584	0.0313	1.243
Mof_H 	H 	0.904	0.8693	0.0472	1.338
Mof_H 	H 	0.9358	0.9611	0.0766	1.315
Mof_C 	C 	0.1413	0.9126	0.0536	-6.604
Mof_H 	H 	0.2059	0.8822	0.0627	1.909
Mof_H 	H 	0.139	0.9127	0.0241	1.929
Mof_H 	H 	0.1363	0.9832	0.0635	1.911
Mof_C 	C 	0.5165	0.3501	0.17938	-0.193
Mof_C 	C 	0.5986	0.4155	0.19011	0.01
Mof_H 	H 	0.6017	0.4444	0.2163	-0.016
Mof_C 	C 	0.6759	0.4374	0.16146	-0.162
Mof_H 	H 	0.7304	0.482	0.1686	0.034
Mof_C 	C 	0.6738	0.3956	0.12355	-0.021
Mof_C 	C 	0.591	0.3322	0.11241	-0.194
Mof_H 	H 	0.5872	0.3042	0.0861	0.031
Mof_C 	C 	0.514	0.3112	0.14099	0.025
Mof_H 	H 	0.4583	0.2686	0.1334	-0.022
Mof_C 	C 	0.7558	0.4211	0.09328	0.04
Mof_C 	C 	0.8592	0.411	0.04015	0.116
Mof_C 	C 	0.8769	0.5039	0.06028	0.109
Mof_C 	C 	0.9523	0.5777	0.0457	-0.531
Mof_C 	C 	0.9694	0.6739	0.06462	1.052
Mof_H 	H 	0.932	0.6908	0.0882	-0.505
Mof_C 	C 	0.0996	0.716	0.01468	1.083
Mof_H 	H 	0.1505	0.7612	0.0046	-0.477
Mof_C 	C 	0.0841	0.6211	0.99513	-0.555
Mof_C 	C 	0.0087	0.5495	0.01019	0.212
Mof_N 	N 	0.7798	0.3593	0.06126	-0.24
Mof_H 	H 	0.7519	0.3002	0.0551	0.096
Mof_N 	N 	0.8111	0.5096	0.09358	-0.237
Mof_O 	O 	0.3618	0.2687	0.19884	-0.348
Mof_O 	O 	0.4321	0.3624	0.24356	-0.328
Mof_H 	H 	0.8065	0.5599	0.111	0.059
Mof_C 	C 	0.0697	0.175	0.209	0.371
Mof_C 	C 	0.4581	0.7539	0.04879	-2.157
Mof_C 	C 	0.4442	0.6472	0.0692	4.995
Mof_C 	C 	0.4605	0.648	0.1131	-6.495
Mof_H 	H 	0.4731	0.578	0.1225	1.888
Mof_H 	H 	0.5198	0.6911	0.1195	1.932
Mof_H 	H 	0.3995	0.6756	0.1265	1.852
Mof_C 	C 	0.5408	0.5835	0.0547	-4.65
Mof_H 	H 	0.522	0.5416	0.0313	1.263
Mof_H 	H 	0.596	0.6307	0.0472	1.358
Mof_H 	H 	0.5642	0.5389	0.0766	1.337
Mof_C 	C 	0.3587	0.5874	0.0536	-6.707
Mof_H 	H 	0.2941	0.6178	0.0627	1.94
Mof_H 	H 	0.361	0.5873	0.0241	1.958
Mof_H 	H 	0.3637	0.5168	0.0635	1.94
Mof_C 	C 	0.9835	0.1499	0.17938	-0.191
Mof_C 	C 	0.9014	0.0845	0.19011	0.011
Mof_H 	H 	0.8983	0.0556	0.2163	-0.014
Mof_C 	C 	0.8241	0.0626	0.16146	-0.16
Mof_H 	H 	0.7696	0.018	0.1686	0.036
Mof_C 	C 	0.8262	0.1044	0.12355	-0.021
Mof_C 	C 	0.909	0.1678	0.11241	-0.192
Mof_H 	H 	0.9128	0.1958	0.0861	0.032
Mof_C 	C 	0.986	0.1888	0.14099	0.026
Mof_H 	H 	0.0417	0.2314	0.1334	-0.023
Mof_C 	C 	0.7442	0.0789	0.09328	0.046
Mof_C 	C 	0.6408	0.089	0.04015	0.124
Mof_C 	C 	0.6231	0.9961	0.06028	0.107
Mof_C 	C 	0.5477	0.9223	0.0457	-0.538
Mof_C 	C 	0.5306	0.8261	0.06462	1.077
Mof_H 	H 	0.568	0.8092	0.0882	-0.515
Mof_C 	C 	0.4004	0.784	0.01468	1.106
Mof_H 	H 	0.3495	0.7388	0.0046	-0.487
Mof_C 	C 	0.4159	0.8789	0.99513	-0.564
Mof_C 	C 	0.4913	0.9505	0.01019	0.215
Mof_N 	N 	0.7202	0.1407	0.06126	-0.242
Mof_H 	H 	0.7481	0.1998	0.0551	0.097
Mof_N 	N 	0.6889	0.9904	0.09358	-0.24
Mof_O 	O 	0.1382	0.2313	0.19884	-0.348
Mof_O 	O 	0.0679	0.1376	0.24356	-0.327
Mof_H 	H 	0.6935	0.9401	0.111	0.059
Mof_C 	C 	0.675	0.9303	0.709	0.374
Mof_C 	C 	0.2539	0.5419	0.54879	-2.157
Mof_C 	C 	0.1472	0.5558	0.5692	4.994
Mof_C 	C 	0.148	0.5395	0.6131	-6.493
Mof_H 	H 	0.078	0.5269	0.6225	1.887
Mof_H 	H 	0.1911	0.4802	0.6195	1.932
Mof_H 	H 	0.1756	0.6005	0.6265	1.851
Mof_C 	C 	0.0835	0.4592	0.5547	-4.647
Mof_H 	H 	0.0416	0.478	0.5313	1.262
Mof_H 	H 	0.1307	0.404	0.5472	1.357
Mof_H 	H 	0.0389	0.4358	0.5766	1.335
Mof_C 	C 	0.0874	0.6413	0.5536	-6.706
Mof_H 	H 	0.1178	0.7059	0.5627	1.94
Mof_H 	H 	0.0873	0.639	0.5241	1.958
Mof_H 	H 	0.0168	0.6363	0.5635	1.94
Mof_C 	C 	0.6499	0.0165	0.67938	-0.196
Mof_C 	C 	0.5845	0.0986	0.69011	0.013
Mof_H 	H 	0.5556	0.1017	0.7163	-0.017
Mof_C 	C 	0.5626	0.1759	0.66146	-0.163
Mof_H 	H 	0.518	0.2304	0.6686	0.035
Mof_C 	C 	0.6044	0.1738	0.62355	-0.019
Mof_C 	C 	0.6678	0.091	0.61241	-0.194
Mof_H 	H 	0.6958	0.0872	0.5861	0.032
Mof_C 	C 	0.6888	0.014	0.64099	0.027
Mof_H 	H 	0.7314	0.9583	0.6334	-0.023
Mof_C 	C 	0.5789	0.2558	0.59328	0.04
Mof_C 	C 	0.589	0.3592	0.54015	0.12
Mof_C 	C 	0.4961	0.3769	0.56028	0.112
Mof_C 	C 	0.4223	0.4523	0.5457	-0.54
Mof_C 	C 	0.3261	0.4694	0.56462	1.079
Mof_H 	H 	0.3092	0.432	0.5882	-0.515
Mof_C 	C 	0.284	0.5996	0.51468	1.108
Mof_H 	H 	0.2388	0.6505	0.5046	-0.487
Mof_C 	C 	0.3789	0.5841	0.49513	-0.566
Mof_C 	C 	0.4505	0.5087	0.51019	0.216
Mof_N 	N 	0.6407	0.2798	0.56126	-0.241
Mof_H 	H 	0.6998	0.2519	0.5551	0.096
Mof_N 	N 	0.4904	0.3111	0.59358	-0.237
Mof_O 	O 	0.7313	0.8618	0.69884	-0.349
Mof_O 	O 	0.6376	0.9321	0.74356	-0.327
Mof_H 	H 	0.4401	0.3065	0.611	0.06
Mof_C 	C 	0.825	0.5697	0.709	0.371
Mof_C 	C 	0.2461	0.9581	0.54879	-2.119
Mof_C 	C 	0.3528	0.9442	0.5692	4.917
Mof_C 	C 	0.352	0.9605	0.6131	-6.382
Mof_H 	H 	0.422	0.9731	0.6225	1.856
Mof_H 	H 	0.3089	0.0198	0.6195	1.895
Mof_H 	H 	0.3244	0.8995	0.6265	1.819
Mof_C 	C 	0.4165	0.0408	0.5547	-4.588
Mof_H 	H 	0.4584	0.022	0.5313	1.246
Mof_H 	H 	0.3693	0.096	0.5472	1.339
Mof_H 	H 	0.4611	0.0642	0.5766	1.319
Mof_C 	C 	0.4126	0.8587	0.5536	-6.607
Mof_H 	H 	0.3822	0.7941	0.5627	1.91
Mof_H 	H 	0.4127	0.861	0.5241	1.929
Mof_H 	H 	0.4832	0.8637	0.5635	1.911
Mof_C 	C 	0.8501	0.4835	0.67938	-0.192
Mof_C 	C 	0.9155	0.4014	0.69011	0.01
Mof_H 	H 	0.9444	0.3983	0.7163	-0.015
Mof_C 	C 	0.9374	0.3241	0.66146	-0.161
Mof_H 	H 	0.982	0.2696	0.6686	0.036
Mof_C 	C 	0.8956	0.3262	0.62355	-0.022
Mof_C 	C 	0.8322	0.409	0.61241	-0.193
Mof_H 	H 	0.8042	0.4128	0.5861	0.031
Mof_C 	C 	0.8112	0.486	0.64099	0.024
Mof_H 	H 	0.7686	0.5417	0.6334	-0.022
Mof_C 	C 	0.9211	0.2442	0.59328	0.045
Mof_C 	C 	0.911	0.1408	0.54015	0.123
Mof_C 	C 	0.0039	0.1231	0.56028	0.104
Mof_C 	C 	0.0777	0.0477	0.5457	-0.535
Mof_C 	C 	0.1739	0.0306	0.56462	1.054
Mof_H 	H 	0.1908	0.068	0.5882	-0.505
Mof_C 	C 	0.216	0.9004	0.51468	1.087
Mof_H 	H 	0.2612	0.8495	0.5046	-0.479
Mof_C 	C 	0.1211	0.9159	0.49513	-0.559
Mof_C 	C 	0.0495	0.9913	0.51019	0.217
Mof_N 	N 	0.8593	0.2202	0.56126	-0.242
Mof_H 	H 	0.8002	0.2481	0.5551	0.097
Mof_N 	N 	0.0096	0.1889	0.59358	-0.239
Mof_O 	O 	0.7687	0.6382	0.69884	-0.348
Mof_O 	O 	0.8624	0.5679	0.74356	-0.327
Mof_H 	H 	0.0599	0.1935	0.611	0.058
Mof_Cd	Cd	0.75	0.75	0.75	0.495
Mof_Cd	Cd	0.25	0.25	0.25	0.495
_end
