data_functionalizedCrystal
_audit_creation_method	'EQeq! by Chris Wilmer'
_symmetry_space_group_name_H-M	'P1'
_symmetry_Int_Tables_number	1
_symmetry_cell_setting	triclinic
loop_
_symmetry_equiv_pos_as_xyz
  x,y,z
_cell_length_a	18.5765
_cell_length_b	18.5765
_cell_length_c	18.5765
_cell_angle_alpha	60
_cell_angle_beta	60
_cell_angle_gamma	60
loop_
_atom_site_label
_atom_site_type_symbol
_atom_site_fract_x
_atom_site_fract_y
_atom_site_fract_z
_atom_site_charge
Mof_Cu	Cu	0.56702	0.43298	-0	0.799
Mof_Cu	Cu	3.76205e-17	0.56702	0.43298	0.799
Mof_Cu	Cu	2.50803e-17	0.43298	-0	0.683
Mof_Cu	Cu	0.56702	0	-0	0.695
Mof_Cu	Cu	0.43298	0	0.56702	0.799
Mof_Cu	Cu	3.76205e-17	-2.50803e-17	0.43298	0.683
Mof_Cu	Cu	-0	0.56702	-0	0.694
Mof_Cu	Cu	6.27009e-17	0.43298	0.56702	0.798
Mof_Cu	Cu	0.43298	0.56702	-0	0.798
Mof_Cu	Cu	6.27009e-17	0	0.56702	0.694
Mof_Cu	Cu	0.43298	0	-0	0.682
Mof_Cu	Cu	0.56702	-2.50803e-17	0.43298	0.798
Mof_H 	H 	0.9704	0.2712	0.2712	0.056
Mof_H 	H 	0.5128	0.7288	0.7288	0.098
Mof_H 	H 	0.7288	0.7288	0.0296	0.058
Mof_H 	H 	0.4872	0.2712	0.9704	0.08
Mof_H 	H 	0.9704	0.2712	0.4872	0.08
Mof_H 	H 	0.7288	0.5128	0.0296	0.032
Mof_H 	H 	0.4872	0.2712	0.2712	0.008
Mof_H 	H 	0.7288	0.0296	0.5128	0.032
Mof_H 	H 	0.0296	0.5128	0.7288	0.032
Mof_H 	H 	0.7288	0.7288	0.5128	0.098
Mof_H 	H 	0.4872	0.9704	0.2712	0.08
Mof_H 	H 	0.7288	0.0296	0.7288	0.058
Mof_H 	H 	0.2712	0.2712	0.9704	0.056
Mof_H 	H 	0.0296	0.7288	0.5128	0.032
Mof_H 	H 	0.0296	0.7288	0.7288	0.058
Mof_H 	H 	0.2712	0.2712	0.4872	0.008
Mof_H 	H 	0.5128	0.0296	0.7288	0.032
Mof_H 	H 	0.5128	0.7288	0.0296	0.032
Mof_H 	H 	0.2712	0.4872	0.9704	0.08
Mof_H 	H 	0.2712	0.9704	0.4872	0.08
Mof_H 	H 	0.9704	0.4872	0.2712	0.08
Mof_H 	H 	0.7288	0.5128	0.7288	0.098
Mof_H 	H 	0.2712	0.9704	0.2712	0.056
Mof_H 	H 	0.2712	0.4872	0.2712	0.008
Mof_C 	C 	0.38629	0.38629	0.25657	-0.168
Mof_C 	C 	0.29998	0.29998	0.4294	0.077
Mof_C 	C 	0.25657	0.38629	0.97085	-0.073
Mof_C 	C 	0.43092	0.1619	0.43092	0.368
Mof_C 	C 	0.4294	0.29998	0.29998	0.077
Mof_C 	C 	0.38629	0.38629	0.97085	-0.055
Mof_C 	C 	0.29998	0.97064	0.29998	0.032
Mof_C 	C 	0.02374	0.56908	0.8381	0.343
Mof_C 	C 	0.02936	0.70002	0.5706	0.053
Mof_C 	C 	0.70002	0.70002	0.5706	0.015
Mof_C 	C 	0.61371	0.74343	0.61371	-0.029
Mof_C 	C 	0.43092	0.1619	0.97626	0.339
Mof_C 	C 	0.38629	0.25657	0.38629	-0.168
Mof_C 	C 	0.29998	0.97064	0.4294	0.029
Mof_C 	C 	0.5706	0.70002	0.70002	0.015
Mof_C 	C 	0.38629	0.25657	0.97085	-0.073
Mof_C 	C 	0.97085	0.38629	0.25657	-0.073
Mof_C 	C 	0.56908	0.56908	0.02374	0.362
Mof_C 	C 	0.43092	0.97626	0.1619	0.339
Mof_C 	C 	0.29998	0.29998	0.97064	0.032
Mof_C 	C 	0.29998	0.4294	0.97064	0.029
Mof_C 	C 	0.02936	0.70002	0.70002	0.046
Mof_C 	C 	0.38629	0.97085	0.25657	-0.073
Mof_C 	C 	0.70002	0.02936	0.5706	0.053
Mof_C 	C 	0.97626	0.43092	0.1619	0.339
Mof_C 	C 	0.5706	0.02936	0.70002	0.053
Mof_C 	C 	0.61371	0.61371	0.02915	-0.132
Mof_C 	C 	0.56908	0.02374	0.56908	0.362
Mof_C 	C 	0.02936	0.5706	0.70002	0.053
Mof_C 	C 	0.97064	0.29998	0.4294	0.029
Mof_C 	C 	0.1619	0.97626	0.43092	0.339
Mof_C 	C 	0.43092	0.43092	0.97626	0.339
Mof_C 	C 	0.02374	0.8381	0.56908	0.343
Mof_C 	C 	0.74343	0.61371	0.61371	-0.029
Mof_C 	C 	0.02915	0.61371	0.74343	-0.108
Mof_C 	C 	0.43092	0.97626	0.43092	0.339
Mof_C 	C 	0.8381	0.56908	0.02374	0.343
Mof_C 	C 	0.74343	0.02915	0.61371	-0.108
Mof_C 	C 	0.8381	0.56908	0.56908	0.335
Mof_C 	C 	0.56908	0.02374	0.8381	0.343
Mof_C 	C 	0.8381	0.02374	0.56908	0.343
Mof_C 	C 	0.5706	0.70002	0.02936	0.053
Mof_C 	C 	0.61371	0.61371	0.74343	-0.029
Mof_C 	C 	0.29998	0.4294	0.29998	0.077
Mof_C 	C 	0.1619	0.43092	0.43092	0.368
Mof_C 	C 	0.97626	0.43092	0.43092	0.339
Mof_C 	C 	0.61371	0.74343	0.02915	-0.108
Mof_C 	C 	0.56908	0.8381	0.02374	0.343
Mof_C 	C 	0.1619	0.43092	0.97626	0.339
Mof_C 	C 	0.43092	0.43092	0.1619	0.368
Mof_C 	C 	0.97085	0.38629	0.38629	-0.055
Mof_C 	C 	0.02915	0.74343	0.61371	-0.108
Mof_C 	C 	0.97085	0.25657	0.38629	-0.073
Mof_C 	C 	0.70002	0.02936	0.70002	0.046
Mof_C 	C 	0.4294	0.97064	0.29998	0.029
Mof_C 	C 	0.61371	0.02915	0.74343	-0.108
Mof_C 	C 	0.38629	0.97085	0.38629	-0.055
Mof_C 	C 	0.70002	0.5706	0.70002	0.015
Mof_C 	C 	0.97064	0.4294	0.29998	0.029
Mof_C 	C 	0.25657	0.38629	0.38629	-0.168
Mof_C 	C 	0.56908	0.56908	0.8381	0.335
Mof_C 	C 	0.4294	0.29998	0.97064	0.029
Mof_C 	C 	0.97064	0.29998	0.29998	0.032
Mof_C 	C 	0.02915	0.61371	0.61371	-0.132
Mof_C 	C 	0.70002	0.70002	0.02936	0.046
Mof_C 	C 	0.61371	0.02915	0.61371	-0.132
Mof_C 	C 	0.02374	0.56908	0.56908	0.362
Mof_C 	C 	0.25657	0.97085	0.38629	-0.073
Mof_C 	C 	0.74343	0.61371	0.02915	-0.108
Mof_C 	C 	0.56908	0.8381	0.56908	0.335
Mof_C 	C 	0.70002	0.5706	0.02936	0.053
Mof_C 	C 	0.97626	0.1619	0.43092	0.339
Mof_O 	O 	0.02059	0.61255	0.87489	-0.342
Mof_O 	O 	0.49197	0.61255	0.87489	-0.28
Mof_O 	O 	0.38745	0.12511	0.97941	-0.35
Mof_O 	O 	0.50803	0.97941	0.12511	-0.331
Mof_O 	O 	0.12511	0.50803	0.38745	-0.472
Mof_O 	O 	0.97941	0.38745	0.12511	-0.35
Mof_O 	O 	0.12511	0.38745	0.97941	-0.35
Mof_O 	O 	0.12511	0.97941	0.38745	-0.35
Mof_O 	O 	0.61255	0.49197	0.87489	-0.28
Mof_O 	O 	0.02059	0.87489	0.61255	-0.342
Mof_O 	O 	0.87489	0.02059	0.49197	-0.363
Mof_O 	O 	0.12511	0.97941	0.50803	-0.331
Mof_O 	O 	0.97941	0.12511	0.50803	-0.331
Mof_O 	O 	0.02059	0.49197	0.87489	-0.363
Mof_O 	O 	0.50803	0.38745	0.12511	-0.472
Mof_O 	O 	0.49197	0.87489	0.61255	-0.28
Mof_O 	O 	0.61255	0.87489	0.02059	-0.342
Mof_O 	O 	0.50803	0.97941	0.38745	-0.289
Mof_O 	O 	0.49197	0.02059	0.61255	-0.46
Mof_O 	O 	0.97941	0.12511	0.38745	-0.35
Mof_O 	O 	0.38745	0.50803	0.12511	-0.472
Mof_O 	O 	0.49197	0.87489	0.02059	-0.363
Mof_O 	O 	0.61255	0.02059	0.49197	-0.46
Mof_O 	O 	0.38745	0.97941	0.12511	-0.35
Mof_O 	O 	0.97941	0.50803	0.38745	-0.289
Mof_O 	O 	0.02059	0.87489	0.49197	-0.363
Mof_O 	O 	0.02059	0.49197	0.61255	-0.46
Mof_O 	O 	0.12511	0.38745	0.50803	-0.472
Mof_O 	O 	0.50803	0.12511	0.97941	-0.331
Mof_O 	O 	0.50803	0.38745	0.97941	-0.289
Mof_O 	O 	0.38745	0.12511	0.50803	-0.472
Mof_O 	O 	0.38745	0.97941	0.50803	-0.289
Mof_O 	O 	0.12511	0.50803	0.97941	-0.331
Mof_O 	O 	0.87489	0.61255	0.02059	-0.342
Mof_O 	O 	0.02059	0.61255	0.49197	-0.46
Mof_O 	O 	0.87489	0.49197	0.61255	-0.28
Mof_O 	O 	0.50803	0.12511	0.38745	-0.472
Mof_O 	O 	0.49197	0.02059	0.87489	-0.363
Mof_O 	O 	0.38745	0.50803	0.97941	-0.289
Mof_O 	O 	0.87489	0.49197	0.02059	-0.363
Mof_O 	O 	0.61255	0.49197	0.02059	-0.46
Mof_O 	O 	0.97941	0.38745	0.50803	-0.289
Mof_O 	O 	0.87489	0.61255	0.49197	-0.28
Mof_O 	O 	0.87489	0.02059	0.61255	-0.342
Mof_O 	O 	0.49197	0.61255	0.02059	-0.46
Mof_O 	O 	0.97941	0.50803	0.12511	-0.331
Mof_O 	O 	0.61255	0.02059	0.87489	-0.342
Mof_O 	O 	0.61255	0.87489	0.49197	-0.28
_end
