data_functionalizedCrystal
_audit_creation_method	'EQeq! by Chris Wilmer'
_symmetry_space_group_name_H-M	'P1'
_symmetry_Int_Tables_number	1
_symmetry_cell_setting	triclinic
loop_
_symmetry_equiv_pos_as_xyz
  x,y,z
_cell_length_a	9.6416
_cell_length_b	10.973
_cell_length_c	15.997
_cell_angle_alpha	109.52
_cell_angle_beta	91.56
_cell_angle_gamma	109.61
loop_
_atom_site_label
_atom_site_type_symbol
_atom_site_fract_x
_atom_site_fract_y
_atom_site_fract_z
_atom_site_charge
Mof_U 	U 	0.10097	0.29971	0.37978	0.006
Mof_U 	U 	0.85495	0.829	0.9968	0.02
Mof_O 	O 	0.145	0.0911	0.2858	-0.2
Mof_O 	O 	0.0379	0.08	0.403	-0.202
Mof_C 	C 	0.0886	0.0242	0.333	0.245
Mof_C 	C 	0.0845	0.8798	0.3124	0.035
Mof_C 	C 	0.0938	0.8022	0.2264	-0.172
Mof_H 	H 	0.1033	0.842	0.1829	0.12
Mof_C 	C 	0.0897	0.6677	0.2022	0.209
Mof_C 	C 	0.0742	0.6068	0.2674	-0.175
Mof_H 	H 	0.065	0.5147	0.2524	0.125
Mof_C 	C 	0.0728	0.6879	0.3554	0.047
Mof_C 	C 	0.0735	0.8211	0.3793	-0.094
Mof_H 	H 	0.0668	0.8708	0.4379	0.093
Mof_C 	C 	0.071	0.6268	0.4304	0.267
Mof_O 	O 	0.0323	0.6837	0.4997	-0.185
Mof_O 	O 	0.1037	0.5227	0.4136	-0.185
Mof_N 	N 	0.089	0.5884	0.1142	-0.338
Mof_H 	H 	0.0912	0.6227	0.0729	0.174
Mof_H 	H 	0.0864	0.5049	0.1007	0.184
Mof_O 	O 	0.6768	0.6558	0.0473	-0.194
Mof_O 	O 	0.8017	0.8579	0.1491	-0.205
Mof_C 	C 	0.7076	0.7375	0.1283	0.252
Mof_C 	C 	0.6265	0.6972	0.1981	0.043
Mof_C 	C 	0.6846	0.7762	0.2849	-0.17
Mof_H 	H 	0.7697	0.8559	0.2991	0.118
Mof_C 	C 	0.616	0.738	0.3548	0.209
Mof_C 	C 	0.4874	0.6202	0.3308	-0.175
Mof_H 	H 	0.4392	0.5944	0.3752	0.125
Mof_C 	C 	0.4298	0.5398	0.2404	0.047
Mof_C 	C 	0.5	0.5786	0.1744	-0.097
Mof_H 	H 	0.4622	0.5252	0.1142	0.108
Mof_C 	C 	0.2901	0.4113	0.216	0.256
Mof_O 	O 	0.2245	0.3605	0.1389	-0.206
Mof_O 	O 	0.2437	0.3679	0.277	-0.186
Mof_N 	N 	0.6784	0.8168	0.4428	-0.338
Mof_H 	H 	0.6378	0.7936	0.4851	0.184
Mof_H 	H 	0.7583	0.8894	0.4556	0.182
Mof_O 	O 	0.0023	0.9439	0.9136	-0.589
Mof_H 	H 	0.0471	0.9105	0.8781	0.335
Mof_H 	H 	0.9502	0.9436	0.8737	0.329
Mof_U 	U 	0.89903	0.70029	0.62022	0.005
Mof_U 	U 	0.14505	0.171	0.0032	0.019
Mof_O 	O 	0.855	0.9089	0.7142	-0.201
Mof_O 	O 	0.9621	0.92	0.597	-0.203
Mof_C 	C 	0.9114	0.9758	0.667	0.245
Mof_C 	C 	0.9155	0.1202	0.6876	0.035
Mof_C 	C 	0.9062	0.1978	0.7736	-0.172
Mof_H 	H 	0.8967	0.158	0.8171	0.12
Mof_C 	C 	0.9103	0.3323	0.7978	0.209
Mof_C 	C 	0.9258	0.3932	0.7326	-0.175
Mof_H 	H 	0.935	0.4853	0.7476	0.125
Mof_C 	C 	0.9272	0.3121	0.6446	0.047
Mof_C 	C 	0.9265	0.1789	0.6207	-0.094
Mof_H 	H 	0.9332	0.1292	0.5621	0.093
Mof_C 	C 	0.929	0.3732	0.5696	0.267
Mof_O 	O 	0.9677	0.3163	0.5003	-0.185
Mof_O 	O 	0.8963	0.4773	0.5864	-0.185
Mof_N 	N 	0.911	0.4116	0.8858	-0.338
Mof_H 	H 	0.9088	0.3773	0.9271	0.174
Mof_H 	H 	0.9136	0.4951	0.8993	0.184
Mof_O 	O 	0.3232	0.3442	0.9527	-0.194
Mof_O 	O 	0.1983	0.1421	0.8509	-0.205
Mof_C 	C 	0.2924	0.2625	0.8717	0.252
Mof_C 	C 	0.3735	0.3028	0.8019	0.043
Mof_C 	C 	0.3154	0.2238	0.7151	-0.17
Mof_H 	H 	0.2303	0.1441	0.7009	0.118
Mof_C 	C 	0.384	0.262	0.6452	0.209
Mof_C 	C 	0.5126	0.3798	0.6692	-0.175
Mof_H 	H 	0.5608	0.4056	0.6248	0.125
Mof_C 	C 	0.5702	0.4602	0.7596	0.047
Mof_C 	C 	0.5	0.4214	0.8256	-0.097
Mof_H 	H 	0.5378	0.4748	0.8858	0.108
Mof_C 	C 	0.7099	0.5887	0.784	0.256
Mof_O 	O 	0.7755	0.6395	0.8611	-0.206
Mof_O 	O 	0.7563	0.6321	0.723	-0.186
Mof_N 	N 	0.3216	0.1832	0.5572	-0.338
Mof_H 	H 	0.3622	0.2064	0.5149	0.184
Mof_H 	H 	0.2417	0.1106	0.5444	0.182
Mof_O 	O 	0.9977	0.0561	0.0864	-0.589
Mof_H 	H 	0.9529	0.0895	0.1219	0.335
Mof_H 	H 	0.0498	0.0564	0.1263	0.329
_end
