data_functionalizedCrystal
_audit_creation_method	'EQeq! by Chris Wilmer'
_symmetry_space_group_name_H-M	'P1'
_symmetry_Int_Tables_number	1
_symmetry_cell_setting	triclinic
loop_
_symmetry_equiv_pos_as_xyz
  x,y,z
_cell_length_a	11.354
_cell_length_b	11.5836
_cell_length_c	16.247
_cell_angle_alpha	105.469
_cell_angle_beta	110.452
_cell_angle_gamma	90
loop_
_atom_site_label
_atom_site_type_symbol
_atom_site_fract_x
_atom_site_fract_y
_atom_site_fract_z
_atom_site_charge
Mof_V 	V 	0.73512	0.93938	0.28962	1.744
Mof_V 	V 	0.51846	0.6814	0.21522	1.729
Mof_V 	V 	0.4455	0.56062	0.71038	1.732
Mof_V 	V 	0.30324	0.8186	0.78478	1.732
Mof_V 	V 	0.26488	0.06062	0.71038	1.711
Mof_V 	V 	0.48154	0.3186	0.78478	1.731
Mof_V 	V 	0.5545	0.43938	0.28962	1.726
Mof_V 	V 	0.69676	0.1814	0.21522	1.729
Mof_Co	Co	-1.16849e-17	-2.9617e-17	0.5	1.105
Mof_Co	Co	0.5	0.5	0.5	1.145
Mof_Co	Co	0.5	0	-0	1.003
Mof_Co	Co	0.5	0.5	-0	1.028
Mof_H 	H 	0.1865	0.8648	0.4162	-0.001
Mof_H 	H 	0.2804	0.8613	0.3112	0.014
Mof_H 	H 	0.0986	0.1458	0.2572	0.019
Mof_H 	H 	0.0062	0.1367	0.3606	-0.07
Mof_H 	H 	0.1862	0.8065	0.5542	-0.005
Mof_H 	H 	0.1877	0.6148	0.5684	0.031
Mof_H 	H 	0.8206	0.5551	0.4098	0.026
Mof_H 	H 	0.8298	0.748	0.399	-0.028
Mof_H 	H 	0.3905	0.1806	0.1266	-0.112
Mof_H 	H 	0.2871	0.1877	0.2266	0.025
Mof_H 	H 	0.2645	0.8269	0.1588	-0.012
Mof_H 	H 	0.3744	0.8316	0.0652	-0.076
Mof_H 	H 	0.7703	0.6352	0.5838	-0.002
Mof_H 	H 	0.9692	0.6387	0.6888	0.052
Mof_H 	H 	0.8414	0.3542	0.7428	0.06
Mof_H 	H 	0.6456	0.3633	0.6394	-0.068
Mof_H 	H 	0.632	0.6935	0.4458	-0.037
Mof_H 	H 	0.6193	0.8852	0.4316	0.09
Mof_H 	H 	0.4108	0.9449	0.5902	0.097
Mof_H 	H 	0.4308	0.752	0.601	-0.049
Mof_H 	H 	0.2639	0.3194	0.8734	-0.085
Mof_H 	H 	0.0605	0.3123	0.7734	0.014
Mof_H 	H 	0.1057	0.6731	0.8412	0.009
Mof_H 	H 	0.3092	0.6684	0.9348	-0
Mof_H 	H 	0.8135	0.1352	0.5838	0.01
Mof_H 	H 	0.7196	0.1387	0.6888	0.047
Mof_H 	H 	0.9014	0.8542	0.7428	0.058
Mof_H 	H 	0.9938	0.8633	0.6394	-0.054
Mof_H 	H 	0.8138	0.1935	0.4458	-0.043
Mof_H 	H 	0.8123	0.3852	0.4316	0.073
Mof_H 	H 	0.1794	0.4449	0.5902	0.076
Mof_H 	H 	0.1702	0.252	0.601	-0.042
Mof_H 	H 	0.6095	0.8194	0.8734	-0.086
Mof_H 	H 	0.7129	0.8123	0.7734	0.046
Mof_H 	H 	0.7355	0.1731	0.8412	0.042
Mof_H 	H 	0.6256	0.1684	0.9348	-0
Mof_H 	H 	0.2297	0.3648	0.4162	0.009
Mof_H 	H 	0.0308	0.3613	0.3112	0.009
Mof_H 	H 	0.1586	0.6458	0.2572	0.018
Mof_H 	H 	0.3544	0.6367	0.3606	-0.057
Mof_H 	H 	0.368	0.3065	0.5542	-0.013
Mof_H 	H 	0.3807	0.1148	0.5684	0.014
Mof_H 	H 	0.5892	0.0551	0.4098	0.006
Mof_H 	H 	0.5692	0.248	0.399	-0.024
Mof_H 	H 	0.7361	0.6806	0.1266	-0.115
Mof_H 	H 	0.9395	0.6877	0.2266	0.055
Mof_H 	H 	0.8943	0.3269	0.1588	0.021
Mof_H 	H 	0.6908	0.3316	0.0652	-0.077
Mof_C 	C 	0.16852	0.9216	0.38364	0.074
Mof_C 	C 	0.22632	0.9194	0.32084	-0.035
Mof_C 	C 	0.20258	0.0052	0.27216	-0.047
Mof_C 	C 	0.1181	0.0875	0.2884	-0.127
Mof_C 	C 	0.06332	0.0818	0.35144	-0.002
Mof_C 	C 	0.11103	0.7559	0.52566	0.008
Mof_C 	C 	0.11287	0.64	0.53494	-0.086
Mof_C 	C 	0.00181	0.5616	0.49382	-0.059
Mof_C 	C 	0.89609	0.6049	0.44118	-0.045
Mof_C 	C 	0.90225	0.722	0.4349	0.054
Mof_C 	C 	0.36554	0.1086	0.13388	0.017
Mof_C 	C 	0.30313	0.1139	0.19446	-0.145
Mof_C 	C 	0.2649	0.0071	0.2062	-0.025
Mof_C 	C 	0.29071	0.9005	0.15462	-0.083
Mof_C 	C 	0.35526	0.9039	0.09712	0.053
Mof_C 	C 	0.78488	0.5784	0.61636	0.053
Mof_C 	C 	0.90548	0.5806	0.67916	-0.136
Mof_C 	C 	0.93042	0.4948	0.72784	0.083
Mof_C 	C 	0.8297	0.4125	0.7116	-0.168
Mof_C 	C 	0.71188	0.4182	0.64856	0.047
Mof_C 	C 	0.58537	0.7441	0.47434	0.078
Mof_C 	C 	0.57793	0.86	0.46506	-0.205
Mof_C 	C 	0.50799	0.9384	0.50618	0.168
Mof_C 	C 	0.45491	0.8951	0.55882	-0.193
Mof_C 	C 	0.46735	0.778	0.5651	0.104
Mof_C 	C 	0.23166	0.3914	0.86612	0.034
Mof_C 	C 	0.10867	0.3861	0.80554	-0.115
Mof_C 	C 	0.0587	0.4929	0.7938	-0.012
Mof_C 	C 	0.13609	0.5995	0.84538	-0.103
Mof_C 	C 	0.25814	0.5961	0.90288	0.012
Mof_C 	C 	0.83148	0.0784	0.61636	-0.001
Mof_C 	C 	0.77368	0.0806	0.67916	-0.178
Mof_C 	C 	0.79742	0.9948	0.72784	0.089
Mof_C 	C 	0.8819	0.9125	0.7116	-0.154
Mof_C 	C 	0.93668	0.9182	0.64856	0.055
Mof_C 	C 	0.88897	0.2441	0.47434	0.075
Mof_C 	C 	0.88713	0.36	0.46506	-0.193
Mof_C 	C 	0.99819	0.4384	0.50618	0.147
Mof_C 	C 	0.10391	0.3951	0.55882	-0.2
Mof_C 	C 	0.09775	0.278	0.5651	0.07
Mof_C 	C 	0.63446	0.8914	0.86612	0.074
Mof_C 	C 	0.69687	0.8861	0.80554	-0.159
Mof_C 	C 	0.7351	0.9929	0.7938	0.105
Mof_C 	C 	0.70929	0.0995	0.84538	-0.202
Mof_C 	C 	0.64474	0.0961	0.90288	-0.012
Mof_C 	C 	0.21512	0.4216	0.38364	0.014
Mof_C 	C 	0.09452	0.4194	0.32084	-0.08
Mof_C 	C 	0.06958	0.5052	0.27216	-0.036
Mof_C 	C 	0.1703	0.5875	0.2884	-0.114
Mof_C 	C 	0.28812	0.5818	0.35144	0.007
Mof_C 	C 	0.41463	0.2559	0.52566	0.005
Mof_C 	C 	0.42207	0.14	0.53494	-0.076
Mof_C 	C 	0.49201	0.0616	0.49382	-0.079
Mof_C 	C 	0.54509	0.1049	0.44118	-0.054
Mof_C 	C 	0.53265	0.222	0.4349	0.026
Mof_C 	C 	0.76834	0.6086	0.13388	0.057
Mof_C 	C 	0.89133	0.6139	0.19446	-0.188
Mof_C 	C 	0.9413	0.5071	0.2062	0.09
Mof_C 	C 	0.86391	0.4005	0.15462	-0.183
Mof_C 	C 	0.74186	0.4039	0.09712	0.032
Mof_N 	N 	0.08776	0.002	0.39992	-0.277
Mof_N 	N 	0.00765	0.7994	0.4781	-0.22
Mof_N 	N 	0.39173	0.0059	0.08526	-0.32
Mof_N 	N 	0.68784	0.498	0.60008	-0.245
Mof_N 	N 	0.52955	0.7006	0.5219	-0.24
Mof_N 	N 	0.30647	0.4941	0.91474	-0.236
Mof_N 	N 	0.91224	0.998	0.60008	-0.196
Mof_N 	N 	0.99235	0.2006	0.5219	-0.221
Mof_N 	N 	0.60827	0.9941	0.91474	-0.202
Mof_N 	N 	0.31216	0.502	0.39992	-0.233
Mof_N 	N 	0.47045	0.2994	0.4781	-0.213
Mof_N 	N 	0.69353	0.5059	0.08526	-0.293
Mof_O 	O 	0.82691	0.97287	0.40062	-0.699
Mof_O 	O 	0.61463	0.8235	0.26606	-0.867
Mof_O 	O 	0.66397	0.0716	0.26674	-0.914
Mof_O 	O 	0.62182	0.1371	0.10184	-0.852
Mof_O 	O 	0.42629	0.52713	0.59938	-0.745
Mof_O 	O 	0.34857	0.6765	0.73394	-0.873
Mof_O 	O 	0.39723	0.4284	0.73326	-0.883
Mof_O 	O 	0.51998	0.3629	0.89816	-0.765
Mof_O 	O 	0.17309	0.02713	0.59938	-0.781
Mof_O 	O 	0.38537	0.1765	0.73394	-0.886
Mof_O 	O 	0.33603	0.9284	0.73326	-0.855
Mof_O 	O 	0.37818	0.8629	0.89816	-0.743
Mof_O 	O 	0.57371	0.47287	0.40062	-0.746
Mof_O 	O 	0.65143	0.3235	0.26606	-0.879
Mof_O 	O 	0.60277	0.5716	0.26674	-0.89
Mof_O 	O 	0.48002	0.6371	0.10184	-0.842
_end
