data_functionalizedCrystal
_audit_creation_method	'EQeq! by Chris Wilmer'
_symmetry_space_group_name_H-M	'P1'
_symmetry_Int_Tables_number	1
_symmetry_cell_setting	triclinic
loop_
_symmetry_equiv_pos_as_xyz
  x,y,z
_cell_length_a	13.3427
_cell_length_b	13.4047
_cell_length_c	13.562
_cell_angle_alpha	102.339
_cell_angle_beta	104.369
_cell_angle_gamma	90.477
loop_
_atom_site_label
_atom_site_type_symbol
_atom_site_fract_x
_atom_site_fract_y
_atom_site_fract_z
_atom_site_charge
Mof_Cu	Cu	0.74129	0.57282	0.52392	0.879
Mof_O 	O 	0.6454	0.4775	0.5456	-0.626
Mof_H 	H 	0.6627	0.4641	0.6065	0.239
Mof_N 	N 	0.5379	0.5258	0.3733	-0.197
Mof_N 	N 	0.6389	0.5596	0.3824	-0.198
Mof_N 	N 	0.5537	0.5308	0.2186	-0.152
Mof_N 	N 	0.5644	0.6836	0.5884	-0.155
Mof_N 	N 	0.6705	0.7025	0.6094	-0.178
Mof_N 	N 	0.6113	0.8244	0.7102	-0.15
Mof_N 	N 	0.4994	0.2758	0.119	-0.093
Mof_N 	N 	0.5983	0.2689	0.1763	-0.097
Mof_N 	N 	0.572	0.1574	0.0261	-0.151
Mof_N 	N 	0.8446	0.6632	0.4903	-0.209
Mof_N 	N 	0.9438	0.6362	0.4904	-0.221
Mof_N 	N 	0.9355	0.798	0.4882	-0.167
Mof_N 	N 	0.9448	0.4988	0.6269	-0.217
Mof_N 	N 	0.8543	0.5421	0.6417	-0.207
Mof_N 	N 	0.9399	0.5105	0.7888	-0.166
Mof_C 	C 	0.4895	0.5083	0.2737	0.11
Mof_H 	H 	0.4199	0.4835	0.2453	-0.016
Mof_C 	C 	0.6461	0.5618	0.2888	0.103
Mof_H 	H 	0.7065	0.5819	0.2723	-0.014
Mof_C 	C 	0.4311	0.5437	0.0564	-0.082
Mof_H 	H 	0.3853	0.5733	0.0952	0.059
Mof_C 	C 	0.5276	0.5168	0.1066	0.096
Mof_C 	C 	0.5969	0.4737	0.0514	-0.077
Mof_H 	H 	0.6621	0.4564	0.0867	0.062
Mof_C 	C 	0.5317	0.7565	0.6491	0.105
Mof_H 	H 	0.462	0.7622	0.651	0.001
Mof_C 	C 	0.6966	0.7863	0.6826	0.101
Mof_H 	H 	0.7646	0.8156	0.7118	-0.007
Mof_C 	C 	0.4866	0.211	0.031	0.097
Mof_H 	H 	0.4256	0.2019	0.9767	0.005
Mof_C 	C 	0.6393	0.1981	0.1195	0.094
Mof_H 	H 	0.7071	0.1778	0.1406	0.002
Mof_C 	C 	0.6045	0.9132	0.7883	0.089
Mof_C 	C 	0.6805	0.9371	0.8815	-0.068
Mof_H 	H 	0.7387	0.8978	0.892	0.059
Mof_C 	C 	0.6706	0.0189	0.9587	-0.081
Mof_H 	H 	0.7228	0.0363	0.0215	0.06
Mof_C 	C 	0.5842	0.0752	0.9443	0.098
Mof_C 	C 	0.509	0.0508	0.852	-0.084
Mof_H 	H 	0.4501	0.0891	0.8421	0.061
Mof_C 	C 	0.5195	0.9701	0.7733	-0.067
Mof_H 	H 	0.4683	0.9543	0.7096	0.057
Mof_C 	C 	0.8409	0.7596	0.489	0.103
Mof_H 	H 	0.7818	0.7973	0.4886	-0.013
Mof_C 	C 	0.9973	0.7178	0.4895	0.143
Mof_H 	H 	0.0677	0.7207	0.4896	-0.053
Mof_C 	C 	0.9263	0.9801	0.5517	-0.129
Mof_H 	H 	0.8768	0.9662	0.5865	0.078
Mof_C 	C 	0.9677	0.9014	0.4935	0.151
Mof_C 	C 	0.0405	0.9194	0.4424	-0.151
Mof_H 	H 	0.0678	0.8644	0.4038	0.078
Mof_C 	C 	0.9942	0.4795	0.7162	0.139
Mof_H 	H 	0.0579	0.4487	0.7285	-0.045
Mof_C 	C 	0.8535	0.5491	0.7387	0.099
Mof_H 	H 	0.8009	0.5766	0.7692	-0.016
Mof_C 	C 	0.0705	0.5342	0.9533	-0.159
Mof_H 	H 	0.1184	0.5576	0.9215	0.079
Mof_C 	C 	0.9711	0.5052	0.898	0.155
Mof_C 	C 	0.8996	0.4713	0.9421	-0.135
Mof_H 	H 	0.8311	0.4519	0.9023	0.077
Mof_Cu	Cu	0.25871	0.42718	0.47608	0.876
Mof_O 	O 	0.3546	0.5225	0.4544	-0.628
Mof_H 	H 	0.3373	0.5359	0.3935	0.239
Mof_N 	N 	0.4621	0.4742	0.6267	-0.197
Mof_N 	N 	0.3611	0.4404	0.6176	-0.199
Mof_N 	N 	0.4463	0.4692	0.7814	-0.151
Mof_N 	N 	0.4356	0.3164	0.4116	-0.155
Mof_N 	N 	0.3295	0.2975	0.3906	-0.179
Mof_N 	N 	0.3887	0.1756	0.2898	-0.152
Mof_N 	N 	0.5006	0.7242	0.881	-0.093
Mof_N 	N 	0.4017	0.7311	0.8237	-0.099
Mof_N 	N 	0.428	0.8426	0.9739	-0.149
Mof_N 	N 	0.1554	0.3368	0.5097	-0.209
Mof_N 	N 	0.0562	0.3638	0.5096	-0.215
Mof_N 	N 	0.0645	0.202	0.5118	-0.137
Mof_N 	N 	0.0552	0.5012	0.3731	-0.21
Mof_N 	N 	0.1457	0.4579	0.3583	-0.208
Mof_N 	N 	0.0601	0.4895	0.2112	-0.136
Mof_C 	C 	0.5105	0.4917	0.7263	0.109
Mof_H 	H 	0.5801	0.5165	0.7547	-0.016
Mof_C 	C 	0.3539	0.4382	0.7112	0.101
Mof_H 	H 	0.2935	0.4181	0.7277	-0.015
Mof_C 	C 	0.5689	0.4563	0.9436	-0.067
Mof_H 	H 	0.6147	0.4267	0.9048	0.055
Mof_C 	C 	0.4724	0.4832	0.8934	0.087
Mof_C 	C 	0.4031	0.5263	0.9486	-0.063
Mof_H 	H 	0.3379	0.5436	0.9133	0.055
Mof_C 	C 	0.4683	0.2435	0.3509	0.105
Mof_H 	H 	0.538	0.2378	0.349	0.002
Mof_C 	C 	0.3034	0.2137	0.3174	0.101
Mof_H 	H 	0.2354	0.1844	0.2882	-0.011
Mof_C 	C 	0.5134	0.789	0.969	0.103
Mof_H 	H 	0.5744	0.7981	0.0233	0.003
Mof_C 	C 	0.3607	0.8019	0.8805	0.093
Mof_H 	H 	0.2929	0.8222	0.8594	-0.002
Mof_C 	C 	0.3955	0.0868	0.2117	0.096
Mof_C 	C 	0.3195	0.0629	0.1185	-0.08
Mof_H 	H 	0.2613	0.1022	0.108	0.057
Mof_C 	C 	0.3294	0.9811	0.0413	-0.074
Mof_H 	H 	0.2772	0.9637	0.9785	0.056
Mof_C 	C 	0.4158	0.9248	0.0557	0.088
Mof_C 	C 	0.491	0.9492	0.148	-0.069
Mof_H 	H 	0.5499	0.9109	0.1579	0.058
Mof_C 	C 	0.4805	0.0299	0.2267	-0.081
Mof_H 	H 	0.5317	0.0457	0.2904	0.061
Mof_C 	C 	0.1591	0.2404	0.511	0.096
Mof_H 	H 	0.2182	0.2027	0.5114	-0.01
Mof_C 	C 	0.0027	0.2822	0.5105	0.05
Mof_H 	H 	0.9323	0.2793	0.5104	0.007
Mof_C 	C 	0.0737	0.0199	0.4483	-0.027
Mof_H 	H 	0.1232	0.0338	0.4135	0.038
Mof_C 	C 	0.0323	0.0986	0.5065	0.026
Mof_C 	C 	0.9595	0.0806	0.5576	-0.006
Mof_H 	H 	0.9322	0.1356	0.5962	0.039
Mof_C 	C 	0.0058	0.5205	0.2838	0.047
Mof_H 	H 	0.9421	0.5513	0.2715	0.015
Mof_C 	C 	0.1465	0.4509	0.2613	0.09
Mof_H 	H 	0.1991	0.4234	0.2308	-0.014
Mof_C 	C 	0.9295	0.4658	0.0467	0.002
Mof_H 	H 	0.8816	0.4424	0.0785	0.034
Mof_C 	C 	0.0289	0.4948	0.102	0.018
Mof_C 	C 	0.1004	0.5287	0.0579	-0.017
Mof_H 	H 	0.1689	0.5481	0.0977	0.034
Mof_Cu	Cu	0.5	0.5	0.5	0.906
Mof_Cu	Cu	2.42339e-17	0.5	0.5	0.824
_end
