data_functionalizedCrystal
_audit_creation_method	'EQeq! by Chris Wilmer'
_symmetry_space_group_name_H-M	'P1'
_symmetry_Int_Tables_number	1
_symmetry_cell_setting	triclinic
loop_
_symmetry_equiv_pos_as_xyz
  x,y,z
_cell_length_a	22.915
_cell_length_b	14.2802
_cell_length_c	5.6451
_cell_angle_alpha	90
_cell_angle_beta	102.801
_cell_angle_gamma	90
loop_
_atom_site_label
_atom_site_type_symbol
_atom_site_fract_x
_atom_site_fract_y
_atom_site_fract_z
_atom_site_charge
Mof_P 	P 	0.58433	0.1322	0.2736	0.46
Mof_O 	O 	0.5514	0.0381	0.1596	-0.797
Mof_O 	O 	0.5671	0.1998	0.0328	-0.534
Mof_O 	O 	0.5613	0.1619	0.5027	-0.6
Mof_C 	C 	0.6664	0.103	0.3605	-0.042
Mof_C 	C 	0.7646	0.15288	0.4682	0.038
Mof_C 	C 	0.7783	0.0919	0.703	-0.009
Mof_C 	C 	0.69544	0.278	0.3365	0.043
Mof_C 	C 	0.6473	0.355	0.337	0
Mof_N 	N 	0.70145	0.1858	0.4799	-0.107
Mof_P 	P 	0.08433	0.6322	0.2736	0.426
Mof_O 	O 	0.0514	0.5381	0.1596	-0.697
Mof_O 	O 	0.0671	0.6998	0.0328	-0.488
Mof_O 	O 	0.0613	0.6619	0.5027	-0.547
Mof_C 	C 	0.1664	0.603	0.3605	-0.026
Mof_C 	C 	0.2646	0.65288	0.4682	0.035
Mof_C 	C 	0.2783	0.5919	0.703	-0.011
Mof_C 	C 	0.19544	0.778	0.3365	0.045
Mof_C 	C 	0.1473	0.855	0.337	-0.024
Mof_N 	N 	0.20145	0.6858	0.4799	-0.106
Mof_P 	P 	0.41567	0.1322	0.2264	0.465
Mof_O 	O 	0.4486	0.0381	0.3404	-0.8
Mof_O 	O 	0.4329	0.1998	0.4672	-0.541
Mof_O 	O 	0.4387	0.1619	0.9973	-0.607
Mof_C 	C 	0.3336	0.103	0.1395	-0.042
Mof_C 	C 	0.2354	0.15288	0.0318	0.045
Mof_C 	C 	0.2217	0.0919	0.797	-0.023
Mof_C 	C 	0.30456	0.278	0.1635	0.045
Mof_C 	C 	0.3527	0.355	0.163	0.003
Mof_N 	N 	0.29855	0.1858	0.0201	-0.104
Mof_P 	P 	0.91567	0.6322	0.2264	0.444
Mof_O 	O 	0.9486	0.5381	0.3404	-0.568
Mof_O 	O 	0.9329	0.6998	0.4672	-0.385
Mof_O 	O 	0.9387	0.6619	0.9973	-0.436
Mof_C 	C 	0.8336	0.603	0.1395	-0.026
Mof_C 	C 	0.7354	0.65288	0.0318	0.044
Mof_C 	C 	0.7217	0.5919	0.797	-0.016
Mof_C 	C 	0.80456	0.778	0.1635	0.041
Mof_C 	C 	0.8527	0.855	0.163	0.043
Mof_N 	N 	0.79855	0.6858	0.0201	-0.101
Mof_P 	P 	0.41567	0.8678	0.7264	0.459
Mof_O 	O 	0.4486	0.9619	0.8404	-0.803
Mof_O 	O 	0.4329	0.8002	0.9672	-0.545
Mof_O 	O 	0.4387	0.8381	0.4973	-0.601
Mof_C 	C 	0.3336	0.897	0.6395	-0.045
Mof_C 	C 	0.2354	0.84712	0.5318	0.03
Mof_C 	C 	0.2217	0.9081	0.297	-0.012
Mof_C 	C 	0.30456	0.722	0.6635	0.039
Mof_C 	C 	0.3527	0.645	0.663	-0
Mof_N 	N 	0.29855	0.8142	0.5201	-0.105
Mof_P 	P 	0.91567	0.3678	0.7264	0.436
Mof_O 	O 	0.9486	0.4619	0.8404	-0.574
Mof_O 	O 	0.9329	0.3002	0.9672	-0.398
Mof_O 	O 	0.9387	0.3381	0.4973	-0.428
Mof_C 	C 	0.8336	0.397	0.6395	-0.031
Mof_C 	C 	0.7354	0.34712	0.5318	0.03
Mof_C 	C 	0.7217	0.4081	0.297	-0.004
Mof_C 	C 	0.80456	0.222	0.6635	0.035
Mof_C 	C 	0.8527	0.145	0.663	0.039
Mof_N 	N 	0.79855	0.3142	0.5201	-0.102
Mof_P 	P 	0.58433	0.8678	0.7736	0.456
Mof_O 	O 	0.5514	0.9619	0.6596	-0.802
Mof_O 	O 	0.5671	0.8002	0.5328	-0.542
Mof_O 	O 	0.5613	0.8381	0.0027	-0.597
Mof_C 	C 	0.6664	0.897	0.8605	-0.046
Mof_C 	C 	0.7646	0.84712	0.9682	0.023
Mof_C 	C 	0.7783	0.9081	0.203	0.003
Mof_C 	C 	0.69544	0.722	0.8365	0.036
Mof_C 	C 	0.6473	0.645	0.837	-0.003
Mof_N 	N 	0.70145	0.8142	0.9799	-0.107
Mof_P 	P 	0.08433	0.3678	0.7736	0.417
Mof_O 	O 	0.0514	0.4619	0.6596	-0.703
Mof_O 	O 	0.0671	0.3002	0.5328	-0.499
Mof_O 	O 	0.0613	0.3381	0.0027	-0.539
Mof_C 	C 	0.1664	0.397	0.8605	-0.031
Mof_C 	C 	0.2646	0.34712	0.9682	0.021
Mof_C 	C 	0.2783	0.4081	0.203	-0
Mof_C 	C 	0.19544	0.222	0.8365	0.039
Mof_C 	C 	0.1473	0.145	0.837	-0.029
Mof_N 	N 	0.20145	0.3142	0.9799	-0.108
Mof_Ce	Ce	0.5	0.10305	0.75	3.127
Mof_Ce	Ce	8.46236e-34	0.60305	0.75	2.357
Mof_Ce	Ce	0.5	0.89695	0.25	3.154
Mof_Ce	Ce	-1.97226e-18	0.39695	0.25	2.413
_end
