data_functionalizedCrystal
_audit_creation_method	'EQeq! by Chris Wilmer'
_symmetry_space_group_name_H-M	'P1'
_symmetry_Int_Tables_number	1
_symmetry_cell_setting	triclinic
loop_
_symmetry_equiv_pos_as_xyz
  x,y,z
_cell_length_a	48.561
_cell_length_b	66.34
_cell_length_c	10.0376
_cell_angle_alpha	90
_cell_angle_beta	90
_cell_angle_gamma	90
loop_
_atom_site_label
_atom_site_type_symbol
_atom_site_fract_x
_atom_site_fract_y
_atom_site_fract_z
_atom_site_charge
Mof_Zn	Zn	0.23168	0.09141	0.42275	1.231
Mof_Zn	Zn	0.43877	0.98381	0.82937	1.233
Mof_Zn	Zn	0.22796	0.13807	0.92008	1.244
Mof_Zn	Zn	0.22929	0.22749	0.91317	1.244
Mof_Zn	Zn	0.37485	0.0132	0.67287	1.233
Mof_P 	P 	0.31087	0.01145	0.71953	0.69
Mof_P 	P 	0.23438	0.04455	0.46981	0.684
Mof_P 	P 	0.40008	0.9716	0.60135	0.467
Mof_P 	P 	0.21145	0.10988	0.14673	0.512
Mof_P 	P 	0.21266	0.1215	0.64127	0.447
Mof_P 	P 	0.21584	0.18298	0.96133	0.825
Mof_P 	P 	0.416	0.02724	0.89053	0.519
Mof_P 	P 	0.21222	0.25536	0.1422	0.564
Mof_O 	O 	0.28847	0.02702	0.702	-0.951
Mof_O 	O 	0.33699	0.01961	0.6613	-0.472
Mof_O 	O 	0.31506	0.00487	0.8641	-0.835
Mof_O 	O 	0.21318	0.02813	0.4518	-0.949
Mof_O 	O 	0.2434	0.04756	0.6157	-0.934
Mof_O 	O 	0.22291	0.06368	0.4108	-0.473
Mof_O 	O 	0.37921	0.98372	0.678	-0.467
Mof_O 	O 	0.42944	0.97496	0.6503	-0.466
Mof_O 	O 	0.39896	0.974	0.4541	-0.471
Mof_O 	O 	0.21558	0.13126	0.1001	-0.497
Mof_O 	O 	0.21488	0.10928	0.2945	-0.477
Mof_O 	O 	0.22791	0.09456	0.0708	-0.504
Mof_O 	O 	0.21843	0.10033	0.5945	-0.425
Mof_O 	O 	0.21129	0.12111	0.791	-0.423
Mof_O 	O 	0.23207	0.13757	0.582	-0.474
Mof_O 	O 	0.23956	0.18287	0.0558	-0.619
Mof_O 	O 	0.21494	0.16479	0.8757	-0.471
Mof_O 	O 	0.21607	0.20094	0.8712	-0.469
Mof_O 	O 	0.3872	0.02252	0.845	-0.422
Mof_O 	O 	0.41607	0.0285	0.0394	-0.504
Mof_O 	O 	0.43773	0.01314	0.8338	-0.47
Mof_O 	O 	0.23099	0.27181	0.0866	-0.526
Mof_O 	O 	0.21141	0.2545	0.2913	-0.471
Mof_O 	O 	0.21793	0.23448	0.0905	-0.514
Mof_O 	O 	0.47545	0.97464	0.8736	-0.417
Mof_F 	F 	0.24285	0.00516	0.6264	-1.432
Mof_H 	H 	0.3012	0.9955	0.6425	-0.086
Mof_H 	H 	0.2579	0.0393	0.3924	-0.081
Mof_H 	H 	0.396	0.9539	0.6301	-0.04
Mof_H 	H 	0.1898	0.1066	0.1253	-0.091
Mof_H 	H 	0.1991	0.1834	0.0131	-0.291
Mof_H 	H 	0.1885	0.127	0.6038	-0.026
Mof_H 	H 	0.42	0.0451	0.8395	-0.025
Mof_H 	H 	0.1932	0.2577	0.1128	-0.138
Mof_Zn	Zn	0.73168	0.59141	0.42275	1.232
Mof_Zn	Zn	0.93877	0.48381	0.82937	1.234
Mof_Zn	Zn	0.72796	0.63807	0.92008	1.245
Mof_Zn	Zn	0.72929	0.72749	0.91317	1.245
Mof_Zn	Zn	0.87485	0.5132	0.67287	1.234
Mof_P 	P 	0.81087	0.51145	0.71953	0.691
Mof_P 	P 	0.73438	0.54455	0.46981	0.684
Mof_P 	P 	0.90008	0.4716	0.60135	0.467
Mof_P 	P 	0.71145	0.60988	0.14673	0.512
Mof_P 	P 	0.71266	0.6215	0.64127	0.447
Mof_P 	P 	0.71584	0.68298	0.96133	0.825
Mof_P 	P 	0.916	0.52724	0.89053	0.519
Mof_P 	P 	0.71222	0.75536	0.1422	0.564
Mof_O 	O 	0.78847	0.52702	0.702	-0.951
Mof_O 	O 	0.83699	0.51961	0.6613	-0.472
Mof_O 	O 	0.81506	0.50487	0.8641	-0.835
Mof_O 	O 	0.71318	0.52813	0.4518	-0.949
Mof_O 	O 	0.7434	0.54756	0.6157	-0.934
Mof_O 	O 	0.72291	0.56368	0.4108	-0.473
Mof_O 	O 	0.87921	0.48372	0.678	-0.467
Mof_O 	O 	0.92944	0.47496	0.6503	-0.466
Mof_O 	O 	0.89896	0.474	0.4541	-0.471
Mof_O 	O 	0.71558	0.63126	0.1001	-0.497
Mof_O 	O 	0.71488	0.60928	0.2945	-0.477
Mof_O 	O 	0.72791	0.59456	0.0708	-0.504
Mof_O 	O 	0.71843	0.60033	0.5945	-0.425
Mof_O 	O 	0.71129	0.62111	0.791	-0.423
Mof_O 	O 	0.73207	0.63757	0.582	-0.474
Mof_O 	O 	0.73956	0.68287	0.0558	-0.619
Mof_O 	O 	0.71494	0.66479	0.8757	-0.471
Mof_O 	O 	0.71607	0.70094	0.8712	-0.469
Mof_O 	O 	0.8872	0.52252	0.845	-0.422
Mof_O 	O 	0.91607	0.5285	0.0394	-0.504
Mof_O 	O 	0.93773	0.51314	0.8338	-0.47
Mof_O 	O 	0.73099	0.77181	0.0866	-0.526
Mof_O 	O 	0.71141	0.7545	0.2913	-0.471
Mof_O 	O 	0.71793	0.73448	0.0905	-0.514
Mof_O 	O 	0.97545	0.47464	0.8736	-0.417
Mof_F 	F 	0.74285	0.50516	0.6264	-1.432
Mof_H 	H 	0.8012	0.4955	0.6425	-0.086
Mof_H 	H 	0.7579	0.5393	0.3924	-0.081
Mof_H 	H 	0.896	0.4539	0.6301	-0.04
Mof_H 	H 	0.6898	0.6066	0.1253	-0.091
Mof_H 	H 	0.6991	0.6834	0.0131	-0.291
Mof_H 	H 	0.6885	0.627	0.6038	-0.026
Mof_H 	H 	0.92	0.5451	0.8395	-0.025
Mof_H 	H 	0.6932	0.7577	0.1128	-0.138
Mof_Zn	Zn	0.76832	0.40859	0.92275	1.246
Mof_Zn	Zn	0.56123	0.51619	0.32937	1.23
Mof_Zn	Zn	0.77204	0.36193	0.42008	1.231
Mof_Zn	Zn	0.77071	0.27251	0.41317	1.232
Mof_Zn	Zn	0.62515	0.4868	0.17287	1.229
Mof_P 	P 	0.68913	0.48855	0.21953	0.699
Mof_P 	P 	0.76562	0.45545	0.96981	0.728
Mof_P 	P 	0.59992	0.5284	0.10135	0.411
Mof_P 	P 	0.78855	0.39012	0.64673	0.507
Mof_P 	P 	0.78734	0.3785	0.14127	0.447
Mof_P 	P 	0.78416	0.31702	0.46133	0.655
Mof_P 	P 	0.584	0.47276	0.39053	0.461
Mof_P 	P 	0.78778	0.24464	0.6422	0.556
Mof_O 	O 	0.71153	0.47298	0.202	-0.973
Mof_O 	O 	0.66301	0.48039	0.1613	-0.497
Mof_O 	O 	0.68494	0.49513	0.3641	-0.919
Mof_O 	O 	0.78682	0.47187	0.9518	-0.866
Mof_O 	O 	0.7566	0.45244	0.1157	-0.983
Mof_O 	O 	0.77709	0.43632	0.9108	-0.459
Mof_O 	O 	0.62079	0.51628	0.178	-0.477
Mof_O 	O 	0.57056	0.52504	0.1503	-0.476
Mof_O 	O 	0.60104	0.526	0.9541	-0.412
Mof_O 	O 	0.78442	0.36874	0.6001	-0.464
Mof_O 	O 	0.78512	0.39072	0.7945	-0.455
Mof_O 	O 	0.77209	0.40544	0.5708	-0.478
Mof_O 	O 	0.78157	0.39967	0.0945	-0.463
Mof_O 	O 	0.78871	0.37889	0.291	-0.445
Mof_O 	O 	0.76793	0.36243	0.082	-0.499
Mof_O 	O 	0.76044	0.31713	0.5558	-0.543
Mof_O 	O 	0.78506	0.33521	0.3757	-0.466
Mof_O 	O 	0.78393	0.29906	0.3712	-0.464
Mof_O 	O 	0.6128	0.47748	0.345	-0.436
Mof_O 	O 	0.58393	0.4715	0.5394	-0.446
Mof_O 	O 	0.56227	0.48686	0.3338	-0.484
Mof_O 	O 	0.76901	0.22819	0.5866	-0.5
Mof_O 	O 	0.78859	0.2455	0.7913	-0.45
Mof_O 	O 	0.78207	0.26552	0.5905	-0.481
Mof_O 	O 	0.52455	0.52536	0.3736	-0.44
Mof_F 	F 	0.75715	0.49484	0.1264	-1.409
Mof_H 	H 	0.6988	0.5045	0.1425	-0.105
Mof_H 	H 	0.7421	0.4607	0.8924	-0.071
Mof_H 	H 	0.604	0.5461	0.1301	-0.048
Mof_H 	H 	0.8102	0.3934	0.6253	-0.074
Mof_H 	H 	0.8009	0.3166	0.5131	-0.192
Mof_H 	H 	0.8115	0.373	0.1038	-0.045
Mof_H 	H 	0.58	0.4549	0.3395	-0.039
Mof_H 	H 	0.8068	0.2423	0.6128	-0.12
Mof_Zn	Zn	0.26832	0.90859	0.92275	1.246
Mof_Zn	Zn	0.06123	0.01619	0.32937	1.23
Mof_Zn	Zn	0.27204	0.86193	0.42008	1.231
Mof_Zn	Zn	0.27071	0.77251	0.41317	1.232
Mof_Zn	Zn	0.12515	0.9868	0.17287	1.229
Mof_P 	P 	0.18913	0.98855	0.21953	0.699
Mof_P 	P 	0.26562	0.95545	0.96981	0.728
Mof_P 	P 	0.09992	0.0284	0.10135	0.411
Mof_P 	P 	0.28855	0.89012	0.64673	0.507
Mof_P 	P 	0.28734	0.8785	0.14127	0.447
Mof_P 	P 	0.28416	0.81702	0.46133	0.655
Mof_P 	P 	0.084	0.97276	0.39053	0.461
Mof_P 	P 	0.28778	0.74464	0.6422	0.556
Mof_O 	O 	0.21153	0.97298	0.202	-0.973
Mof_O 	O 	0.16301	0.98039	0.1613	-0.497
Mof_O 	O 	0.18494	0.99513	0.3641	-0.919
Mof_O 	O 	0.28682	0.97187	0.9518	-0.866
Mof_O 	O 	0.2566	0.95244	0.1157	-0.983
Mof_O 	O 	0.27709	0.93632	0.9108	-0.459
Mof_O 	O 	0.12079	0.01628	0.178	-0.477
Mof_O 	O 	0.07056	0.02504	0.1503	-0.477
Mof_O 	O 	0.10104	0.026	0.9541	-0.412
Mof_O 	O 	0.28442	0.86874	0.6001	-0.464
Mof_O 	O 	0.28512	0.89072	0.7945	-0.455
Mof_O 	O 	0.27209	0.90544	0.5708	-0.478
Mof_O 	O 	0.28157	0.89967	0.0945	-0.463
Mof_O 	O 	0.28871	0.87889	0.291	-0.445
Mof_O 	O 	0.26793	0.86243	0.082	-0.499
Mof_O 	O 	0.26044	0.81713	0.5558	-0.543
Mof_O 	O 	0.28506	0.83521	0.3757	-0.466
Mof_O 	O 	0.28393	0.79906	0.3712	-0.464
Mof_O 	O 	0.1128	0.97748	0.345	-0.436
Mof_O 	O 	0.08393	0.9715	0.5394	-0.446
Mof_O 	O 	0.06227	0.98686	0.3338	-0.484
Mof_O 	O 	0.26901	0.72819	0.5866	-0.5
Mof_O 	O 	0.28859	0.7455	0.7913	-0.45
Mof_O 	O 	0.28207	0.76552	0.5905	-0.481
Mof_O 	O 	0.02455	0.02536	0.3736	-0.44
Mof_F 	F 	0.25715	0.99484	0.1264	-1.409
Mof_H 	H 	0.1988	0.0045	0.1425	-0.105
Mof_H 	H 	0.2421	0.9607	0.8924	-0.07
Mof_H 	H 	0.104	0.0461	0.1301	-0.048
Mof_H 	H 	0.3102	0.8934	0.6253	-0.074
Mof_H 	H 	0.3009	0.8166	0.5131	-0.192
Mof_H 	H 	0.3115	0.873	0.1038	-0.045
Mof_H 	H 	0.08	0.9549	0.3395	-0.039
Mof_H 	H 	0.3068	0.7423	0.6128	-0.12
Mof_Zn	Zn	0.76832	0.59141	0.07725	1.219
Mof_Zn	Zn	0.56123	0.48381	0.67063	1.232
Mof_Zn	Zn	0.77204	0.63807	0.57992	1.231
Mof_Zn	Zn	0.77071	0.72749	0.58683	1.232
Mof_Zn	Zn	0.62515	0.5132	0.82713	1.237
Mof_P 	P 	0.68913	0.51145	0.78047	0.702
Mof_P 	P 	0.76562	0.54455	0.03019	0.619
Mof_P 	P 	0.59992	0.4716	0.89865	0.526
Mof_P 	P 	0.78855	0.60988	0.35327	0.512
Mof_P 	P 	0.78734	0.6215	0.85873	0.448
Mof_P 	P 	0.78416	0.68298	0.53867	0.656
Mof_P 	P 	0.584	0.52724	0.60947	0.461
Mof_P 	P 	0.78778	0.75536	0.3578	0.563
Mof_O 	O 	0.71153	0.52702	0.798	-0.949
Mof_O 	O 	0.66301	0.51961	0.8387	-0.459
Mof_O 	O 	0.68494	0.50487	0.6359	-0.917
Mof_O 	O 	0.78682	0.52813	0.0482	-0.911
Mof_O 	O 	0.7566	0.54756	0.8843	-0.882
Mof_O 	O 	0.77709	0.56368	0.0892	-0.482
Mof_O 	O 	0.62079	0.48372	0.822	-0.469
Mof_O 	O 	0.57056	0.47496	0.8497	-0.457
Mof_O 	O 	0.60104	0.474	0.0459	-0.529
Mof_O 	O 	0.78442	0.63126	0.3999	-0.475
Mof_O 	O 	0.78512	0.60928	0.2055	-0.492
Mof_O 	O 	0.77209	0.59456	0.4292	-0.478
Mof_O 	O 	0.78157	0.60033	0.9055	-0.397
Mof_O 	O 	0.78871	0.62111	0.709	-0.438
Mof_O 	O 	0.76793	0.63757	0.918	-0.451
Mof_O 	O 	0.76044	0.68287	0.4442	-0.549
Mof_O 	O 	0.78506	0.66479	0.6243	-0.46
Mof_O 	O 	0.78393	0.70094	0.6288	-0.458
Mof_O 	O 	0.6128	0.52252	0.655	-0.431
Mof_O 	O 	0.58393	0.5285	0.4606	-0.446
Mof_O 	O 	0.56227	0.51314	0.6662	-0.472
Mof_O 	O 	0.76901	0.77181	0.4134	-0.503
Mof_O 	O 	0.78859	0.7545	0.2087	-0.487
Mof_O 	O 	0.78207	0.73448	0.4095	-0.491
Mof_O 	O 	0.52455	0.47464	0.6264	-0.437
Mof_F 	F 	0.75715	0.50516	0.8736	-1.368
Mof_H 	H 	0.6988	0.4955	0.8575	-0.074
Mof_H 	H 	0.7421	0.5393	0.1076	-0.083
Mof_H 	H 	0.604	0.4539	0.8699	-0.039
Mof_H 	H 	0.8102	0.6066	0.3747	-0.083
Mof_H 	H 	0.8009	0.6834	0.4869	-0.199
Mof_H 	H 	0.8115	0.627	0.8962	-0.015
Mof_H 	H 	0.58	0.5451	0.6605	-0.025
Mof_H 	H 	0.8068	0.7577	0.3872	-0.129
Mof_Zn	Zn	0.26832	0.09141	0.07725	1.219
Mof_Zn	Zn	0.06123	0.98381	0.67063	1.232
Mof_Zn	Zn	0.27204	0.13807	0.57992	1.231
Mof_Zn	Zn	0.27071	0.22749	0.58683	1.232
Mof_Zn	Zn	0.12515	0.0132	0.82713	1.237
Mof_P 	P 	0.18913	0.01145	0.78047	0.702
Mof_P 	P 	0.26562	0.04455	0.03019	0.619
Mof_P 	P 	0.09992	0.9716	0.89865	0.526
Mof_P 	P 	0.28855	0.10988	0.35327	0.512
Mof_P 	P 	0.28734	0.1215	0.85873	0.448
Mof_P 	P 	0.28416	0.18298	0.53867	0.656
Mof_P 	P 	0.084	0.02724	0.60947	0.461
Mof_P 	P 	0.28778	0.25536	0.3578	0.563
Mof_O 	O 	0.21153	0.02702	0.798	-0.949
Mof_O 	O 	0.16301	0.01961	0.8387	-0.459
Mof_O 	O 	0.18494	0.00487	0.6359	-0.917
Mof_O 	O 	0.28682	0.02813	0.0482	-0.911
Mof_O 	O 	0.2566	0.04756	0.8843	-0.882
Mof_O 	O 	0.27709	0.06368	0.0892	-0.482
Mof_O 	O 	0.12079	0.98372	0.822	-0.469
Mof_O 	O 	0.07056	0.97496	0.8497	-0.457
Mof_O 	O 	0.10104	0.974	0.0459	-0.529
Mof_O 	O 	0.28442	0.13126	0.3999	-0.475
Mof_O 	O 	0.28512	0.10928	0.2055	-0.492
Mof_O 	O 	0.27209	0.09456	0.4292	-0.478
Mof_O 	O 	0.28157	0.10033	0.9055	-0.397
Mof_O 	O 	0.28871	0.12111	0.709	-0.438
Mof_O 	O 	0.26793	0.13757	0.918	-0.451
Mof_O 	O 	0.26044	0.18287	0.4442	-0.549
Mof_O 	O 	0.28506	0.16479	0.6243	-0.46
Mof_O 	O 	0.28393	0.20094	0.6288	-0.458
Mof_O 	O 	0.1128	0.02252	0.655	-0.431
Mof_O 	O 	0.08393	0.0285	0.4606	-0.446
Mof_O 	O 	0.06227	0.01314	0.6662	-0.472
Mof_O 	O 	0.26901	0.27181	0.4134	-0.503
Mof_O 	O 	0.28859	0.2545	0.2087	-0.487
Mof_O 	O 	0.28207	0.23448	0.4095	-0.491
Mof_O 	O 	0.02455	0.97464	0.6264	-0.437
Mof_F 	F 	0.25715	0.00516	0.8736	-1.368
Mof_H 	H 	0.1988	0.9955	0.8575	-0.074
Mof_H 	H 	0.2421	0.0393	0.1076	-0.083
Mof_H 	H 	0.104	0.9539	0.8699	-0.039
Mof_H 	H 	0.3102	0.1066	0.3747	-0.083
Mof_H 	H 	0.3009	0.1834	0.4869	-0.199
Mof_H 	H 	0.3115	0.127	0.8962	-0.015
Mof_H 	H 	0.08	0.0451	0.6605	-0.025
Mof_H 	H 	0.3068	0.2577	0.3872	-0.13
Mof_Zn	Zn	0.23168	0.90859	0.57725	1.232
Mof_Zn	Zn	0.43877	0.01619	0.17063	1.228
Mof_Zn	Zn	0.22796	0.86193	0.07992	1.217
Mof_Zn	Zn	0.22929	0.77251	0.08683	1.219
Mof_Zn	Zn	0.37485	0.9868	0.32713	1.232
Mof_P 	P 	0.31087	0.98855	0.28047	0.691
Mof_P 	P 	0.23438	0.95545	0.53019	0.684
Mof_P 	P 	0.40008	0.0284	0.39865	0.469
Mof_P 	P 	0.21145	0.89012	0.85327	0.506
Mof_P 	P 	0.21266	0.8785	0.35873	0.449
Mof_P 	P 	0.21584	0.81702	0.03867	0.477
Mof_P 	P 	0.416	0.97276	0.10947	0.403
Mof_P 	P 	0.21222	0.74464	0.8578	0.554
Mof_O 	O 	0.28847	0.97298	0.298	-0.961
Mof_O 	O 	0.33699	0.98039	0.3387	-0.482
Mof_O 	O 	0.31506	0.99513	0.1359	-0.89
Mof_O 	O 	0.21318	0.97187	0.5482	-0.946
Mof_O 	O 	0.2434	0.95244	0.3843	-0.938
Mof_O 	O 	0.22291	0.93632	0.5892	-0.471
Mof_O 	O 	0.37921	0.01628	0.322	-0.479
Mof_O 	O 	0.42944	0.02504	0.3497	-0.47
Mof_O 	O 	0.39896	0.026	0.5459	-0.47
Mof_O 	O 	0.21558	0.86874	0.8999	-0.44
Mof_O 	O 	0.21488	0.89072	0.7055	-0.471
Mof_O 	O 	0.22791	0.90544	0.9292	-0.45
Mof_O 	O 	0.21843	0.89967	0.4055	-0.434
Mof_O 	O 	0.21129	0.87889	0.209	-0.461
Mof_O 	O 	0.23207	0.86243	0.418	-0.475
Mof_O 	O 	0.23956	0.81713	0.9442	-0.47
Mof_O 	O 	0.21494	0.83521	0.1243	-0.454
Mof_O 	O 	0.21607	0.79906	0.1288	-0.452
Mof_O 	O 	0.3872	0.97748	0.155	-0.444
Mof_O 	O 	0.41607	0.9715	0.9606	-0.387
Mof_O 	O 	0.43773	0.98686	0.1662	-0.487
Mof_O 	O 	0.23099	0.72819	0.9134	-0.478
Mof_O 	O 	0.21141	0.7455	0.7087	-0.465
Mof_O 	O 	0.21793	0.76552	0.9095	-0.458
Mof_O 	O 	0.47545	0.02536	0.1264	-0.461
Mof_F 	F 	0.24285	0.99484	0.3736	-1.431
Mof_H 	H 	0.3012	0.0045	0.3575	-0.088
Mof_H 	H 	0.2579	0.9607	0.6076	-0.08
Mof_H 	H 	0.396	0.0461	0.3699	-0.048
Mof_H 	H 	0.1898	0.8934	0.8747	-0.065
Mof_H 	H 	0.1991	0.8166	0.9869	-0.095
Mof_H 	H 	0.1885	0.873	0.3962	-0.034
Mof_H 	H 	0.42	0.9549	0.1605	-0.038
Mof_H 	H 	0.1932	0.7423	0.8872	-0.111
Mof_Zn	Zn	0.73168	0.40859	0.57725	1.232
Mof_Zn	Zn	0.93877	0.51619	0.17063	1.228
Mof_Zn	Zn	0.72796	0.36193	0.07992	1.217
Mof_Zn	Zn	0.72929	0.27251	0.08683	1.219
Mof_Zn	Zn	0.87485	0.4868	0.32713	1.232
Mof_P 	P 	0.81087	0.48855	0.28047	0.691
Mof_P 	P 	0.73438	0.45545	0.53019	0.684
Mof_P 	P 	0.90008	0.5284	0.39865	0.469
Mof_P 	P 	0.71145	0.39012	0.85327	0.506
Mof_P 	P 	0.71266	0.3785	0.35873	0.449
Mof_P 	P 	0.71584	0.31702	0.03867	0.477
Mof_P 	P 	0.916	0.47276	0.10947	0.403
Mof_P 	P 	0.71222	0.24464	0.8578	0.554
Mof_O 	O 	0.78847	0.47298	0.298	-0.961
Mof_O 	O 	0.83699	0.48039	0.3387	-0.482
Mof_O 	O 	0.81506	0.49513	0.1359	-0.89
Mof_O 	O 	0.71318	0.47187	0.5482	-0.946
Mof_O 	O 	0.7434	0.45244	0.3843	-0.938
Mof_O 	O 	0.72291	0.43632	0.5892	-0.471
Mof_O 	O 	0.87921	0.51628	0.322	-0.479
Mof_O 	O 	0.92944	0.52504	0.3497	-0.47
Mof_O 	O 	0.89896	0.526	0.5459	-0.47
Mof_O 	O 	0.71558	0.36874	0.8999	-0.44
Mof_O 	O 	0.71488	0.39072	0.7055	-0.471
Mof_O 	O 	0.72791	0.40544	0.9292	-0.45
Mof_O 	O 	0.71843	0.39967	0.4055	-0.434
Mof_O 	O 	0.71129	0.37889	0.209	-0.461
Mof_O 	O 	0.73207	0.36243	0.418	-0.475
Mof_O 	O 	0.73956	0.31713	0.9442	-0.47
Mof_O 	O 	0.71494	0.33521	0.1243	-0.454
Mof_O 	O 	0.71607	0.29906	0.1288	-0.452
Mof_O 	O 	0.8872	0.47748	0.155	-0.444
Mof_O 	O 	0.91607	0.4715	0.9606	-0.387
Mof_O 	O 	0.93773	0.48686	0.1662	-0.487
Mof_O 	O 	0.73099	0.22819	0.9134	-0.478
Mof_O 	O 	0.71141	0.2455	0.7087	-0.465
Mof_O 	O 	0.71793	0.26552	0.9095	-0.458
Mof_O 	O 	0.97545	0.52536	0.1264	-0.461
Mof_F 	F 	0.74285	0.49484	0.3736	-1.431
Mof_H 	H 	0.8012	0.5045	0.3575	-0.088
Mof_H 	H 	0.7579	0.4607	0.6076	-0.08
Mof_H 	H 	0.896	0.5461	0.3699	-0.048
Mof_H 	H 	0.6898	0.3934	0.8747	-0.065
Mof_H 	H 	0.6991	0.3166	0.9869	-0.095
Mof_H 	H 	0.6885	0.373	0.3962	-0.034
Mof_H 	H 	0.92	0.4549	0.1605	-0.038
Mof_H 	H 	0.6932	0.2423	0.8872	-0.111
Mof_Zn	Zn	0.76832	0.90859	0.57725	1.232
Mof_Zn	Zn	0.56123	0.01619	0.17063	1.228
Mof_Zn	Zn	0.77204	0.86193	0.07992	1.217
Mof_Zn	Zn	0.77071	0.77251	0.08683	1.219
Mof_Zn	Zn	0.62515	0.9868	0.32713	1.232
Mof_P 	P 	0.68913	0.98855	0.28047	0.691
Mof_P 	P 	0.76562	0.95545	0.53019	0.684
Mof_P 	P 	0.59992	0.0284	0.39865	0.469
Mof_P 	P 	0.78855	0.89012	0.85327	0.506
Mof_P 	P 	0.78734	0.8785	0.35873	0.449
Mof_P 	P 	0.78416	0.81702	0.03867	0.477
Mof_P 	P 	0.584	0.97276	0.10947	0.403
Mof_P 	P 	0.78778	0.74464	0.8578	0.554
Mof_O 	O 	0.71153	0.97298	0.298	-0.961
Mof_O 	O 	0.66301	0.98039	0.3387	-0.482
Mof_O 	O 	0.68494	0.99513	0.1359	-0.89
Mof_O 	O 	0.78682	0.97187	0.5482	-0.946
Mof_O 	O 	0.7566	0.95244	0.3843	-0.938
Mof_O 	O 	0.77709	0.93632	0.5892	-0.471
Mof_O 	O 	0.62079	0.01628	0.322	-0.479
Mof_O 	O 	0.57056	0.02504	0.3497	-0.47
Mof_O 	O 	0.60104	0.026	0.5459	-0.47
Mof_O 	O 	0.78442	0.86874	0.8999	-0.44
Mof_O 	O 	0.78512	0.89072	0.7055	-0.471
Mof_O 	O 	0.77209	0.90544	0.9292	-0.45
Mof_O 	O 	0.78157	0.89967	0.4055	-0.434
Mof_O 	O 	0.78871	0.87889	0.209	-0.461
Mof_O 	O 	0.76793	0.86243	0.418	-0.475
Mof_O 	O 	0.76044	0.81713	0.9442	-0.47
Mof_O 	O 	0.78506	0.83521	0.1243	-0.454
Mof_O 	O 	0.78393	0.79906	0.1288	-0.452
Mof_O 	O 	0.6128	0.97748	0.155	-0.444
Mof_O 	O 	0.58393	0.9715	0.9606	-0.387
Mof_O 	O 	0.56227	0.98686	0.1662	-0.487
Mof_O 	O 	0.76901	0.72819	0.9134	-0.478
Mof_O 	O 	0.78859	0.7455	0.7087	-0.465
Mof_O 	O 	0.78207	0.76552	0.9095	-0.458
Mof_O 	O 	0.52455	0.02536	0.1264	-0.461
Mof_F 	F 	0.75715	0.99484	0.3736	-1.431
Mof_H 	H 	0.6988	0.0045	0.3575	-0.088
Mof_H 	H 	0.7421	0.9607	0.6076	-0.08
Mof_H 	H 	0.604	0.0461	0.3699	-0.048
Mof_H 	H 	0.8102	0.8934	0.8747	-0.065
Mof_H 	H 	0.8009	0.8166	0.9869	-0.095
Mof_H 	H 	0.8115	0.873	0.3962	-0.034
Mof_H 	H 	0.58	0.9549	0.1605	-0.038
Mof_H 	H 	0.8068	0.7423	0.8872	-0.111
Mof_Zn	Zn	0.26832	0.40859	0.57725	1.232
Mof_Zn	Zn	0.06123	0.51619	0.17063	1.228
Mof_Zn	Zn	0.27204	0.36193	0.07992	1.217
Mof_Zn	Zn	0.27071	0.27251	0.08683	1.219
Mof_Zn	Zn	0.12515	0.4868	0.32713	1.232
Mof_P 	P 	0.18913	0.48855	0.28047	0.691
Mof_P 	P 	0.26562	0.45545	0.53019	0.684
Mof_P 	P 	0.09992	0.5284	0.39865	0.469
Mof_P 	P 	0.28855	0.39012	0.85327	0.506
Mof_P 	P 	0.28734	0.3785	0.35873	0.449
Mof_P 	P 	0.28416	0.31702	0.03867	0.477
Mof_P 	P 	0.084	0.47276	0.10947	0.403
Mof_P 	P 	0.28778	0.24464	0.8578	0.554
Mof_O 	O 	0.21153	0.47298	0.298	-0.961
Mof_O 	O 	0.16301	0.48039	0.3387	-0.482
Mof_O 	O 	0.18494	0.49513	0.1359	-0.89
Mof_O 	O 	0.28682	0.47187	0.5482	-0.946
Mof_O 	O 	0.2566	0.45244	0.3843	-0.938
Mof_O 	O 	0.27709	0.43632	0.5892	-0.471
Mof_O 	O 	0.12079	0.51628	0.322	-0.479
Mof_O 	O 	0.07056	0.52504	0.3497	-0.47
Mof_O 	O 	0.10104	0.526	0.5459	-0.47
Mof_O 	O 	0.28442	0.36874	0.8999	-0.44
Mof_O 	O 	0.28512	0.39072	0.7055	-0.471
Mof_O 	O 	0.27209	0.40544	0.9292	-0.45
Mof_O 	O 	0.28157	0.39967	0.4055	-0.434
Mof_O 	O 	0.28871	0.37889	0.209	-0.461
Mof_O 	O 	0.26793	0.36243	0.418	-0.475
Mof_O 	O 	0.26044	0.31713	0.9442	-0.47
Mof_O 	O 	0.28506	0.33521	0.1243	-0.454
Mof_O 	O 	0.28393	0.29906	0.1288	-0.452
Mof_O 	O 	0.1128	0.47748	0.155	-0.444
Mof_O 	O 	0.08393	0.4715	0.9606	-0.387
Mof_O 	O 	0.06227	0.48686	0.1662	-0.487
Mof_O 	O 	0.26901	0.22819	0.9134	-0.478
Mof_O 	O 	0.28859	0.2455	0.7087	-0.465
Mof_O 	O 	0.28207	0.26552	0.9095	-0.458
Mof_O 	O 	0.02455	0.52536	0.1264	-0.461
Mof_F 	F 	0.25715	0.49484	0.3736	-1.431
Mof_H 	H 	0.1988	0.5045	0.3575	-0.088
Mof_H 	H 	0.2421	0.4607	0.6076	-0.08
Mof_H 	H 	0.104	0.5461	0.3699	-0.048
Mof_H 	H 	0.3102	0.3934	0.8747	-0.065
Mof_H 	H 	0.3009	0.3166	0.9869	-0.095
Mof_H 	H 	0.3115	0.373	0.3962	-0.034
Mof_H 	H 	0.08	0.4549	0.1605	-0.038
Mof_H 	H 	0.3068	0.2423	0.8872	-0.111
Mof_Zn	Zn	0.23168	0.59141	0.07725	1.219
Mof_Zn	Zn	0.43877	0.48381	0.67063	1.232
Mof_Zn	Zn	0.22796	0.63807	0.57992	1.231
Mof_Zn	Zn	0.22929	0.72749	0.58683	1.232
Mof_Zn	Zn	0.37485	0.5132	0.82713	1.237
Mof_P 	P 	0.31087	0.51145	0.78047	0.702
Mof_P 	P 	0.23438	0.54455	0.03019	0.619
Mof_P 	P 	0.40008	0.4716	0.89865	0.526
Mof_P 	P 	0.21145	0.60988	0.35327	0.512
Mof_P 	P 	0.21266	0.6215	0.85873	0.448
Mof_P 	P 	0.21584	0.68298	0.53867	0.656
Mof_P 	P 	0.416	0.52724	0.60947	0.461
Mof_P 	P 	0.21222	0.75536	0.3578	0.563
Mof_O 	O 	0.28847	0.52702	0.798	-0.949
Mof_O 	O 	0.33699	0.51961	0.8387	-0.459
Mof_O 	O 	0.31506	0.50487	0.6359	-0.917
Mof_O 	O 	0.21318	0.52813	0.0482	-0.911
Mof_O 	O 	0.2434	0.54756	0.8843	-0.882
Mof_O 	O 	0.22291	0.56368	0.0892	-0.482
Mof_O 	O 	0.37921	0.48372	0.822	-0.469
Mof_O 	O 	0.42944	0.47496	0.8497	-0.457
Mof_O 	O 	0.39896	0.474	0.0459	-0.529
Mof_O 	O 	0.21558	0.63126	0.3999	-0.475
Mof_O 	O 	0.21488	0.60928	0.2055	-0.492
Mof_O 	O 	0.22791	0.59456	0.4292	-0.478
Mof_O 	O 	0.21843	0.60033	0.9055	-0.397
Mof_O 	O 	0.21129	0.62111	0.709	-0.438
Mof_O 	O 	0.23207	0.63757	0.918	-0.451
Mof_O 	O 	0.23956	0.68287	0.4442	-0.549
Mof_O 	O 	0.21494	0.66479	0.6243	-0.46
Mof_O 	O 	0.21607	0.70094	0.6288	-0.458
Mof_O 	O 	0.3872	0.52252	0.655	-0.431
Mof_O 	O 	0.41607	0.5285	0.4606	-0.446
Mof_O 	O 	0.43773	0.51314	0.6662	-0.472
Mof_O 	O 	0.23099	0.77181	0.4134	-0.503
Mof_O 	O 	0.21141	0.7545	0.2087	-0.487
Mof_O 	O 	0.21793	0.73448	0.4095	-0.491
Mof_O 	O 	0.47545	0.47464	0.6264	-0.437
Mof_F 	F 	0.24285	0.50516	0.8736	-1.368
Mof_H 	H 	0.3012	0.4955	0.8575	-0.074
Mof_H 	H 	0.2579	0.5393	0.1076	-0.083
Mof_H 	H 	0.396	0.4539	0.8699	-0.039
Mof_H 	H 	0.1898	0.6066	0.3747	-0.083
Mof_H 	H 	0.1991	0.6834	0.4869	-0.199
Mof_H 	H 	0.1885	0.627	0.8962	-0.015
Mof_H 	H 	0.42	0.5451	0.6605	-0.025
Mof_H 	H 	0.1932	0.7577	0.3872	-0.13
Mof_Zn	Zn	0.73168	0.09141	0.07725	1.219
Mof_Zn	Zn	0.93877	0.98381	0.67063	1.232
Mof_Zn	Zn	0.72796	0.13807	0.57992	1.231
Mof_Zn	Zn	0.72929	0.22749	0.58683	1.232
Mof_Zn	Zn	0.87485	0.0132	0.82713	1.237
Mof_P 	P 	0.81087	0.01145	0.78047	0.702
Mof_P 	P 	0.73438	0.04455	0.03019	0.619
Mof_P 	P 	0.90008	0.9716	0.89865	0.526
Mof_P 	P 	0.71145	0.10988	0.35327	0.512
Mof_P 	P 	0.71266	0.1215	0.85873	0.448
Mof_P 	P 	0.71584	0.18298	0.53867	0.656
Mof_P 	P 	0.916	0.02724	0.60947	0.461
Mof_P 	P 	0.71222	0.25536	0.3578	0.563
Mof_O 	O 	0.78847	0.02702	0.798	-0.949
Mof_O 	O 	0.83699	0.01961	0.8387	-0.459
Mof_O 	O 	0.81506	0.00487	0.6359	-0.917
Mof_O 	O 	0.71318	0.02813	0.0482	-0.911
Mof_O 	O 	0.7434	0.04756	0.8843	-0.882
Mof_O 	O 	0.72291	0.06368	0.0892	-0.482
Mof_O 	O 	0.87921	0.98372	0.822	-0.469
Mof_O 	O 	0.92944	0.97496	0.8497	-0.457
Mof_O 	O 	0.89896	0.974	0.0459	-0.529
Mof_O 	O 	0.71558	0.13126	0.3999	-0.475
Mof_O 	O 	0.71488	0.10928	0.2055	-0.492
Mof_O 	O 	0.72791	0.09456	0.4292	-0.478
Mof_O 	O 	0.71843	0.10033	0.9055	-0.397
Mof_O 	O 	0.71129	0.12111	0.709	-0.438
Mof_O 	O 	0.73207	0.13757	0.918	-0.451
Mof_O 	O 	0.73956	0.18287	0.4442	-0.549
Mof_O 	O 	0.71494	0.16479	0.6243	-0.46
Mof_O 	O 	0.71607	0.20094	0.6288	-0.458
Mof_O 	O 	0.8872	0.02252	0.655	-0.431
Mof_O 	O 	0.91607	0.0285	0.4606	-0.446
Mof_O 	O 	0.93773	0.01314	0.6662	-0.472
Mof_O 	O 	0.73099	0.27181	0.4134	-0.503
Mof_O 	O 	0.71141	0.2545	0.2087	-0.487
Mof_O 	O 	0.71793	0.23448	0.4095	-0.491
Mof_O 	O 	0.97545	0.97464	0.6264	-0.437
Mof_F 	F 	0.74285	0.00516	0.8736	-1.368
Mof_H 	H 	0.8012	0.9955	0.8575	-0.074
Mof_H 	H 	0.7579	0.0393	0.1076	-0.083
Mof_H 	H 	0.896	0.9539	0.8699	-0.039
Mof_H 	H 	0.6898	0.1066	0.3747	-0.083
Mof_H 	H 	0.6991	0.1834	0.4869	-0.199
Mof_H 	H 	0.6885	0.127	0.8962	-0.015
Mof_H 	H 	0.92	0.0451	0.6605	-0.025
Mof_H 	H 	0.6932	0.2577	0.3872	-0.13
Mof_Zn	Zn	0.23168	0.40859	0.92275	1.246
Mof_Zn	Zn	0.43877	0.51619	0.32937	1.23
Mof_Zn	Zn	0.22796	0.36193	0.42008	1.231
Mof_Zn	Zn	0.22929	0.27251	0.41317	1.232
Mof_Zn	Zn	0.37485	0.4868	0.17287	1.229
Mof_P 	P 	0.31087	0.48855	0.21953	0.699
Mof_P 	P 	0.23438	0.45545	0.96981	0.728
Mof_P 	P 	0.40008	0.5284	0.10135	0.411
Mof_P 	P 	0.21145	0.39012	0.64673	0.507
Mof_P 	P 	0.21266	0.3785	0.14127	0.447
Mof_P 	P 	0.21584	0.31702	0.46133	0.655
Mof_P 	P 	0.416	0.47276	0.39053	0.461
Mof_P 	P 	0.21222	0.24464	0.6422	0.556
Mof_O 	O 	0.28847	0.47298	0.202	-0.973
Mof_O 	O 	0.33699	0.48039	0.1613	-0.497
Mof_O 	O 	0.31506	0.49513	0.3641	-0.919
Mof_O 	O 	0.21318	0.47187	0.9518	-0.866
Mof_O 	O 	0.2434	0.45244	0.1157	-0.983
Mof_O 	O 	0.22291	0.43632	0.9108	-0.459
Mof_O 	O 	0.37921	0.51628	0.178	-0.477
Mof_O 	O 	0.42944	0.52504	0.1503	-0.476
Mof_O 	O 	0.39896	0.526	0.9541	-0.412
Mof_O 	O 	0.21558	0.36874	0.6001	-0.464
Mof_O 	O 	0.21488	0.39072	0.7945	-0.455
Mof_O 	O 	0.22791	0.40544	0.5708	-0.478
Mof_O 	O 	0.21843	0.39967	0.0945	-0.463
Mof_O 	O 	0.21129	0.37889	0.291	-0.445
Mof_O 	O 	0.23207	0.36243	0.082	-0.499
Mof_O 	O 	0.23956	0.31713	0.5558	-0.543
Mof_O 	O 	0.21494	0.33521	0.3757	-0.466
Mof_O 	O 	0.21607	0.29906	0.3712	-0.464
Mof_O 	O 	0.3872	0.47748	0.345	-0.436
Mof_O 	O 	0.41607	0.4715	0.5394	-0.446
Mof_O 	O 	0.43773	0.48686	0.3338	-0.484
Mof_O 	O 	0.23099	0.22819	0.5866	-0.5
Mof_O 	O 	0.21141	0.2455	0.7913	-0.45
Mof_O 	O 	0.21793	0.26552	0.5905	-0.481
Mof_O 	O 	0.47545	0.52536	0.3736	-0.44
Mof_F 	F 	0.24285	0.49484	0.1264	-1.409
Mof_H 	H 	0.3012	0.5045	0.1425	-0.105
Mof_H 	H 	0.2579	0.4607	0.8924	-0.071
Mof_H 	H 	0.396	0.5461	0.1301	-0.048
Mof_H 	H 	0.1898	0.3934	0.6253	-0.074
Mof_H 	H 	0.1991	0.3166	0.5131	-0.192
Mof_H 	H 	0.1885	0.373	0.1038	-0.045
Mof_H 	H 	0.42	0.4549	0.3395	-0.039
Mof_H 	H 	0.1932	0.2423	0.6128	-0.12
Mof_Zn	Zn	0.73168	0.90859	0.92275	1.246
Mof_Zn	Zn	0.93877	0.01619	0.32937	1.23
Mof_Zn	Zn	0.72796	0.86193	0.42008	1.231
Mof_Zn	Zn	0.72929	0.77251	0.41317	1.232
Mof_Zn	Zn	0.87485	0.9868	0.17287	1.229
Mof_P 	P 	0.81087	0.98855	0.21953	0.699
Mof_P 	P 	0.73438	0.95545	0.96981	0.728
Mof_P 	P 	0.90008	0.0284	0.10135	0.411
Mof_P 	P 	0.71145	0.89012	0.64673	0.507
Mof_P 	P 	0.71266	0.8785	0.14127	0.447
Mof_P 	P 	0.71584	0.81702	0.46133	0.655
Mof_P 	P 	0.916	0.97276	0.39053	0.461
Mof_P 	P 	0.71222	0.74464	0.6422	0.556
Mof_O 	O 	0.78847	0.97298	0.202	-0.973
Mof_O 	O 	0.83699	0.98039	0.1613	-0.497
Mof_O 	O 	0.81506	0.99513	0.3641	-0.919
Mof_O 	O 	0.71318	0.97187	0.9518	-0.866
Mof_O 	O 	0.7434	0.95244	0.1157	-0.983
Mof_O 	O 	0.72291	0.93632	0.9108	-0.459
Mof_O 	O 	0.87921	0.01628	0.178	-0.477
Mof_O 	O 	0.92944	0.02504	0.1503	-0.476
Mof_O 	O 	0.89896	0.026	0.9541	-0.412
Mof_O 	O 	0.71558	0.86874	0.6001	-0.464
Mof_O 	O 	0.71488	0.89072	0.7945	-0.455
Mof_O 	O 	0.72791	0.90544	0.5708	-0.478
Mof_O 	O 	0.71843	0.89967	0.0945	-0.463
Mof_O 	O 	0.71129	0.87889	0.291	-0.445
Mof_O 	O 	0.73207	0.86243	0.082	-0.499
Mof_O 	O 	0.73956	0.81713	0.5558	-0.543
Mof_O 	O 	0.71494	0.83521	0.3757	-0.466
Mof_O 	O 	0.71607	0.79906	0.3712	-0.464
Mof_O 	O 	0.8872	0.97748	0.345	-0.436
Mof_O 	O 	0.91607	0.9715	0.5394	-0.446
Mof_O 	O 	0.93773	0.98686	0.3338	-0.484
Mof_O 	O 	0.73099	0.72819	0.5866	-0.5
Mof_O 	O 	0.71141	0.7455	0.7913	-0.45
Mof_O 	O 	0.71793	0.76552	0.5905	-0.481
Mof_O 	O 	0.97545	0.02536	0.3736	-0.44
Mof_F 	F 	0.74285	0.99484	0.1264	-1.409
Mof_H 	H 	0.8012	0.0045	0.1425	-0.105
Mof_H 	H 	0.7579	0.9607	0.8924	-0.07
Mof_H 	H 	0.896	0.0461	0.1301	-0.048
Mof_H 	H 	0.6898	0.8934	0.6253	-0.074
Mof_H 	H 	0.6991	0.8166	0.5131	-0.192
Mof_H 	H 	0.6885	0.873	0.1038	-0.045
Mof_H 	H 	0.92	0.9549	0.3395	-0.039
Mof_H 	H 	0.6932	0.7423	0.6128	-0.12
Mof_Zn	Zn	0.76832	0.09141	0.42275	1.232
Mof_Zn	Zn	0.56123	0.98381	0.82937	1.234
Mof_Zn	Zn	0.77204	0.13807	0.92008	1.245
Mof_Zn	Zn	0.77071	0.22749	0.91317	1.245
Mof_Zn	Zn	0.62515	0.0132	0.67287	1.234
Mof_P 	P 	0.68913	0.01145	0.71953	0.691
Mof_P 	P 	0.76562	0.04455	0.46981	0.684
Mof_P 	P 	0.59992	0.9716	0.60135	0.467
Mof_P 	P 	0.78855	0.10988	0.14673	0.512
Mof_P 	P 	0.78734	0.1215	0.64127	0.447
Mof_P 	P 	0.78416	0.18298	0.96133	0.825
Mof_P 	P 	0.584	0.02724	0.89053	0.519
Mof_P 	P 	0.78778	0.25536	0.1422	0.564
Mof_O 	O 	0.71153	0.02702	0.702	-0.951
Mof_O 	O 	0.66301	0.01961	0.6613	-0.472
Mof_O 	O 	0.68494	0.00487	0.8641	-0.835
Mof_O 	O 	0.78682	0.02813	0.4518	-0.949
Mof_O 	O 	0.7566	0.04756	0.6157	-0.934
Mof_O 	O 	0.77709	0.06368	0.4108	-0.473
Mof_O 	O 	0.62079	0.98372	0.678	-0.467
Mof_O 	O 	0.57056	0.97496	0.6503	-0.466
Mof_O 	O 	0.60104	0.974	0.4541	-0.471
Mof_O 	O 	0.78442	0.13126	0.1001	-0.497
Mof_O 	O 	0.78512	0.10928	0.2945	-0.477
Mof_O 	O 	0.77209	0.09456	0.0708	-0.504
Mof_O 	O 	0.78157	0.10033	0.5945	-0.425
Mof_O 	O 	0.78871	0.12111	0.791	-0.423
Mof_O 	O 	0.76793	0.13757	0.582	-0.474
Mof_O 	O 	0.76044	0.18287	0.0558	-0.619
Mof_O 	O 	0.78506	0.16479	0.8757	-0.471
Mof_O 	O 	0.78393	0.20094	0.8712	-0.469
Mof_O 	O 	0.6128	0.02252	0.845	-0.422
Mof_O 	O 	0.58393	0.0285	0.0394	-0.504
Mof_O 	O 	0.56227	0.01314	0.8338	-0.47
Mof_O 	O 	0.76901	0.27181	0.0866	-0.526
Mof_O 	O 	0.78859	0.2545	0.2913	-0.471
Mof_O 	O 	0.78207	0.23448	0.0905	-0.514
Mof_O 	O 	0.52455	0.97464	0.8736	-0.417
Mof_F 	F 	0.75715	0.00516	0.6264	-1.432
Mof_H 	H 	0.6988	0.9955	0.6425	-0.086
Mof_H 	H 	0.7421	0.0393	0.3924	-0.081
Mof_H 	H 	0.604	0.9539	0.6301	-0.04
Mof_H 	H 	0.8102	0.1066	0.1253	-0.091
Mof_H 	H 	0.8009	0.1834	0.0131	-0.291
Mof_H 	H 	0.8115	0.127	0.6038	-0.026
Mof_H 	H 	0.58	0.0451	0.8395	-0.025
Mof_H 	H 	0.8068	0.2577	0.1128	-0.138
Mof_Zn	Zn	0.26832	0.59141	0.42275	1.232
Mof_Zn	Zn	0.06123	0.48381	0.82937	1.234
Mof_Zn	Zn	0.27204	0.63807	0.92008	1.245
Mof_Zn	Zn	0.27071	0.72749	0.91317	1.245
Mof_Zn	Zn	0.12515	0.5132	0.67287	1.234
Mof_P 	P 	0.18913	0.51145	0.71953	0.691
Mof_P 	P 	0.26562	0.54455	0.46981	0.684
Mof_P 	P 	0.09992	0.4716	0.60135	0.467
Mof_P 	P 	0.28855	0.60988	0.14673	0.512
Mof_P 	P 	0.28734	0.6215	0.64127	0.447
Mof_P 	P 	0.28416	0.68298	0.96133	0.825
Mof_P 	P 	0.084	0.52724	0.89053	0.519
Mof_P 	P 	0.28778	0.75536	0.1422	0.564
Mof_O 	O 	0.21153	0.52702	0.702	-0.951
Mof_O 	O 	0.16301	0.51961	0.6613	-0.472
Mof_O 	O 	0.18494	0.50487	0.8641	-0.835
Mof_O 	O 	0.28682	0.52813	0.4518	-0.949
Mof_O 	O 	0.2566	0.54756	0.6157	-0.934
Mof_O 	O 	0.27709	0.56368	0.4108	-0.473
Mof_O 	O 	0.12079	0.48372	0.678	-0.467
Mof_O 	O 	0.07056	0.47496	0.6503	-0.466
Mof_O 	O 	0.10104	0.474	0.4541	-0.471
Mof_O 	O 	0.28442	0.63126	0.1001	-0.497
Mof_O 	O 	0.28512	0.60928	0.2945	-0.477
Mof_O 	O 	0.27209	0.59456	0.0708	-0.504
Mof_O 	O 	0.28157	0.60033	0.5945	-0.425
Mof_O 	O 	0.28871	0.62111	0.791	-0.423
Mof_O 	O 	0.26793	0.63757	0.582	-0.474
Mof_O 	O 	0.26044	0.68287	0.0558	-0.619
Mof_O 	O 	0.28506	0.66479	0.8757	-0.471
Mof_O 	O 	0.28393	0.70094	0.8712	-0.469
Mof_O 	O 	0.1128	0.52252	0.845	-0.422
Mof_O 	O 	0.08393	0.5285	0.0394	-0.504
Mof_O 	O 	0.06227	0.51314	0.8338	-0.47
Mof_O 	O 	0.26901	0.77181	0.0866	-0.526
Mof_O 	O 	0.28859	0.7545	0.2913	-0.471
Mof_O 	O 	0.28207	0.73448	0.0905	-0.514
Mof_O 	O 	0.02455	0.47464	0.8736	-0.417
Mof_F 	F 	0.25715	0.50516	0.6264	-1.432
Mof_H 	H 	0.1988	0.4955	0.6425	-0.086
Mof_H 	H 	0.2421	0.5393	0.3924	-0.081
Mof_H 	H 	0.104	0.4539	0.6301	-0.04
Mof_H 	H 	0.3102	0.6066	0.1253	-0.091
Mof_H 	H 	0.3009	0.6834	0.0131	-0.291
Mof_H 	H 	0.3115	0.627	0.6038	-0.026
Mof_H 	H 	0.08	0.5451	0.8395	-0.026
Mof_H 	H 	0.3068	0.7577	0.1128	-0.138
Mof_Ga	Ga	0.25	0.02684	0.75	4.33
Mof_Ga	Ga	0.75	0.47316	0.25	4.318
Mof_Ga	Ga	0.75	0.52684	0.75	4.33
Mof_Ga	Ga	0.25	0.97316	0.25	4.318
Mof_Ga	Ga	0.75	0.97316	0.25	4.318
Mof_Ga	Ga	0.25	0.52684	0.75	4.33
Mof_Ga	Ga	0.25	0.47316	0.25	4.318
Mof_Ga	Ga	0.75	0.02684	0.75	4.33
Mof_Ga	Ga	0.21326	0	0.5	4.216
Mof_Ga	Ga	0.71326	0.5	0.5	4.216
Mof_Ga	Ga	0.78674	0.5	-0	3.892
Mof_Ga	Ga	0.28674	0	-0	3.892
Mof_Ga	Ga	0.78674	0	0.5	4.216
Mof_Ga	Ga	0.28674	0.5	0.5	4.216
Mof_Ga	Ga	0.21326	0.5	-0	3.892
Mof_Ga	Ga	0.71326	0	-0	3.892
Mof_Zn	Zn	0.5	0	0.5	1.152
Mof_Zn	Zn	3.87502e-34	0.5	0.5	1.152
Mof_Zn	Zn	0.5	0.5	-0	1.13
Mof_Zn	Zn	-0	0	-0	1.13
Mof_Zn	Zn	0.25	0.18263	0.25	1.15
Mof_Zn	Zn	0.75	0.31737	0.75	1.156
Mof_Zn	Zn	0.75	0.68263	0.25	1.15
Mof_Zn	Zn	0.25	0.81737	0.75	1.156
Mof_Zn	Zn	0.75	0.81737	0.75	1.156
Mof_Zn	Zn	0.25	0.68263	0.25	1.15
Mof_Zn	Zn	0.25	0.31737	0.75	1.156
Mof_Zn	Zn	0.75	0.18263	0.25	1.15
Mof_P 	P 	0.5	0.97474	0.78539	0.5
Mof_O 	O 	0.5	0.99201	0.6906	-0.529
Mof_H 	H 	0.5	0.9581	0.7267	-0.077
Mof_P 	P 	-5.63654e-33	0.47474	0.78539	0.5
Mof_O 	O 	9.90304e-33	0.49201	0.6906	-0.529
Mof_H 	H 	5.63195e-34	0.4581	0.7267	-0.077
Mof_P 	P 	0.5	0.52526	0.28539	0.502
Mof_O 	O 	0.5	0.50799	0.1906	-0.549
Mof_H 	H 	0.5	0.5419	0.2267	-0.089
Mof_P 	P 	-5.59474e-34	0.02526	0.28539	0.501
Mof_O 	O 	-6.32936e-34	0.00799	0.1906	-0.549
Mof_H 	H 	1.75693e-34	0.0419	0.2267	-0.089
Mof_P 	P 	0.5	0.47474	0.71461	0.501
Mof_O 	O 	0.5	0.49201	0.8094	-0.51
Mof_H 	H 	0.5	0.4581	0.7733	-0.07
Mof_P 	P 	5.53826e-34	0.97474	0.71461	0.501
Mof_O 	O 	1.15564e-32	0.99201	0.8094	-0.51
Mof_H 	H 	5.99311e-34	0.9581	0.7733	-0.071
Mof_P 	P 	0.5	0.02526	0.21461	0.504
Mof_O 	O 	0.5	0.00799	0.3094	-0.54
Mof_H 	H 	0.5	0.0419	0.2733	-0.085
Mof_P 	P 	-6.07889e-33	0.52526	0.21461	0.503
Mof_O 	O 	3.36239e-33	0.50799	0.3094	-0.54
Mof_H 	H 	-6.81406e-33	0.5419	0.2733	-0.085
_end
