data_functionalizedCrystal
_audit_creation_method	'EQeq! by Chris Wilmer'
_symmetry_space_group_name_H-M	'P1'
_symmetry_Int_Tables_number	1
_symmetry_cell_setting	triclinic
loop_
_symmetry_equiv_pos_as_xyz
  x,y,z
_cell_length_a	21.9718
_cell_length_b	17.3189
_cell_length_c	17.7104
_cell_angle_alpha	90
_cell_angle_beta	90
_cell_angle_gamma	90
loop_
_atom_site_label
_atom_site_type_symbol
_atom_site_fract_x
_atom_site_fract_y
_atom_site_fract_z
_atom_site_charge
Mof_Cd	Cd	0.37679	0.53771	0.06949	0.393
Mof_Cd	Cd	0.24217	0.59084	0.96765	0.451
Mof_O 	O 	0.2675	0.5166	0.086	-0.29
Mof_O 	O 	0.2099	0.4633	0.9981	-0.299
Mof_O 	O 	0.1971	0.424	0.347	-0.294
Mof_O 	O 	0.2507	0.3172	0.3649	-0.346
Mof_O 	O 	0.1375	0.1461	0.1313	-0.301
Mof_O 	O 	0.1936	0.1732	0.0312	-0.363
Mof_O 	O 	0.1083	0.059	0.4861	-0.323
Mof_O 	O 	0.1676	0.9728	0.4357	-0.362
Mof_N 	N 	0.3956	0.4584	0.1688	-0.442
Mof_N 	N 	0.6573	0.1401	0.4718	-0.258
Mof_C 	C 	0.2224	0.3954	0.1132	-0.128
Mof_C 	C 	0.2079	0.3237	0.0853	0.065
Mof_H 	H 	0.2066	0.3164	0.0333	-0.003
Mof_C 	C 	0.1952	0.2617	0.1326	-0.136
Mof_C 	C 	0.198	0.2716	0.2116	0.063
Mof_C 	C 	0.2143	0.3456	0.24	-0.129
Mof_C 	C 	0.226	0.4051	0.1905	0.059
Mof_H 	H 	0.2366	0.4533	0.2096	0.022
Mof_C 	C 	0.2348	0.4623	0.0613	0.322
Mof_C 	C 	0.2215	0.3615	0.3235	0.327
Mof_C 	C 	0.1749	0.188	0.0954	0.335
Mof_C 	C 	0.1436	0.038	0.4351	0.328
Mof_C 	C 	0.1576	0.0954	0.3727	-0.106
Mof_C 	C 	0.2059	0.086	0.3241	0.029
Mof_H 	H 	0.2295	0.0416	0.3273	0.034
Mof_C 	C 	0.2198	0.1416	0.2705	-0.104
Mof_H 	H 	0.2528	0.1346	0.2382	0.061
Mof_C 	C 	0.1844	0.2076	0.2652	0.051
Mof_C 	C 	0.1349	0.2157	0.3134	-0.098
Mof_H 	H 	0.1101	0.259	0.3095	0.068
Mof_C 	C 	0.1222	0.1605	0.3666	0.043
Mof_H 	H 	0.0892	0.1671	0.3989	0.016
Mof_C 	C 	0.3764	0.3838	0.1651	0.838
Mof_H 	H 	0.3611	0.3651	0.1197	-0.227
Mof_C 	C 	0.379	0.3341	0.2279	-1.575
Mof_H 	H 	0.365	0.2835	0.2243	0.581
Mof_C 	C 	0.4034	0.3625	0.2967	2.606
Mof_C 	C 	0.4242	0.436	0.297	-1.804
Mof_H 	H 	0.4421	0.4557	0.3406	0.678
Mof_C 	C 	0.4192	0.4825	0.2336	0.961
Mof_H 	H 	0.4332	0.5331	0.2367	-0.288
Mof_C 	C 	0.4078	0.3234	0.3734	-2.927
Mof_H 	H 	0.389	0.3578	0.4098	0.674
Mof_H 	H 	0.3826	0.2774	0.3712	2.151
Mof_C 	C 	0.4687	0.2992	0.4058	8.485
Mof_H 	H 	0.4634	0.2836	0.4579	-3.226
Mof_H 	H 	0.4963	0.3429	0.4048	0.336
Mof_C 	C 	0.4964	0.233	0.3614	-3.516
Mof_H 	H 	0.5057	0.25	0.3106	3.123
Mof_H 	H 	0.4673	0.191	0.3581	1.319
Mof_C 	C 	0.6404	0.1254	0.4006	0.269
Mof_H 	H 	0.6657	0.0929	0.373	-0.072
Mof_C 	C 	0.5904	0.1528	0.3642	-0.383
Mof_H 	H 	0.5813	0.1362	0.3156	0.048
Mof_C 	C 	0.5542	0.2047	0.3996	1.325
Mof_C 	C 	0.635	0.2078	0.4934	-0.3
Mof_H 	H 	0.6553	0.2377	0.529	0.123
Mof_C 	C 	0.582	0.2327	0.4624	-0.772
Mof_H 	H 	0.5625	0.2733	0.4868	0.357
Mof_C 	C 	0.4011	0.2932	0.3494	-3.119
Mof_H 	H 	0.3815	0.3068	0.3966	0.501
Mof_H 	H 	0.3788	0.2511	0.3264	0.227
Mof_C 	C 	0.467	0.2702	0.3631	2.325
Mof_H 	H 	0.4843	0.2508	0.3164	-2.399
Mof_H 	H 	0.4901	0.3153	0.3782	-4.896
Mof_C 	C 	0.4723	0.2086	0.4238	-2.666
Mof_H 	H 	0.4572	0.2297	0.4709	1.507
Mof_H 	H 	0.4463	0.1656	0.4102	0.502
Mof_C 	C 	0.6261	0.0998	0.4203	0.157
Mof_H 	H 	0.6424	0.0549	0.3996	-0.035
Mof_C 	C 	0.5702	0.1255	0.3985	-0.726
Mof_H 	H 	0.5539	0.1053	0.3543	0.286
Mof_C 	C 	0.5363	0.1785	0.4366	0.508
Mof_C 	C 	0.6189	0.1782	0.5171	0.679
Mof_H 	H 	0.6336	0.1897	0.5651	-0.201
Mof_C 	C 	0.5612	0.2022	0.5024	-0.176
Mof_H 	H 	0.5399	0.2335	0.5359	0.069
Mof_Cd	Cd	0.12321	0.96229	0.56949	0.392
Mof_Cd	Cd	0.25783	0.90916	0.46765	0.449
Mof_O 	O 	0.2325	0.9834	0.586	-0.288
Mof_O 	O 	0.2901	0.0367	0.4981	-0.303
Mof_O 	O 	0.3029	0.076	0.847	-0.294
Mof_O 	O 	0.2493	0.1828	0.8649	-0.339
Mof_O 	O 	0.3625	0.3539	0.6313	-0.302
Mof_O 	O 	0.3064	0.3268	0.5312	-0.37
Mof_O 	O 	0.3917	0.441	0.9861	-0.321
Mof_O 	O 	0.3324	0.5272	0.9357	-0.359
Mof_N 	N 	0.1044	0.0416	0.6688	-0.416
Mof_N 	N 	0.8427	0.3599	0.9718	-0.248
Mof_C 	C 	0.2776	0.1046	0.6132	-0.131
Mof_C 	C 	0.2921	0.1763	0.5853	0.067
Mof_H 	H 	0.2934	0.1836	0.5333	-0.007
Mof_C 	C 	0.3048	0.2383	0.6326	-0.138
Mof_C 	C 	0.302	0.2284	0.7116	0.064
Mof_C 	C 	0.2857	0.1544	0.74	-0.129
Mof_C 	C 	0.274	0.0949	0.6905	0.06
Mof_H 	H 	0.2634	0.0467	0.7096	0.022
Mof_C 	C 	0.2652	0.0377	0.5613	0.324
Mof_C 	C 	0.2785	0.1385	0.8235	0.325
Mof_C 	C 	0.3251	0.312	0.5954	0.336
Mof_C 	C 	0.3564	0.462	0.9351	0.328
Mof_C 	C 	0.3424	0.4046	0.8727	-0.105
Mof_C 	C 	0.2941	0.414	0.8241	0.029
Mof_H 	H 	0.2705	0.4584	0.8273	0.034
Mof_C 	C 	0.2802	0.3584	0.7705	-0.103
Mof_H 	H 	0.2472	0.3654	0.7382	0.062
Mof_C 	C 	0.3156	0.2924	0.7652	0.051
Mof_C 	C 	0.3651	0.2843	0.8134	-0.097
Mof_H 	H 	0.3899	0.241	0.8095	0.068
Mof_C 	C 	0.3778	0.3395	0.8666	0.043
Mof_H 	H 	0.4108	0.3329	0.8989	0.016
Mof_C 	C 	0.1236	0.1162	0.6651	0.779
Mof_H 	H 	0.1389	0.1349	0.6197	-0.206
Mof_C 	C 	0.121	0.1659	0.7279	-1.45
Mof_H 	H 	0.135	0.2165	0.7243	0.535
Mof_C 	C 	0.0966	0.1375	0.7967	2.384
Mof_C 	C 	0.0758	0.064	0.797	-1.655
Mof_H 	H 	0.0579	0.0443	0.8406	0.624
Mof_C 	C 	0.0808	0.0175	0.7336	0.881
Mof_H 	H 	0.0668	0.9669	0.7367	-0.258
Mof_C 	C 	0.0922	0.1766	0.8734	-2.681
Mof_H 	H 	0.111	0.1422	0.9098	0.621
Mof_H 	H 	0.1174	0.2226	0.8712	1.964
Mof_C 	C 	0.0313	0.2008	0.9058	7.704
Mof_H 	H 	0.0366	0.2164	0.9579	-2.928
Mof_H 	H 	0.0037	0.1571	0.9048	0.306
Mof_C 	C 	0.0036	0.267	0.8614	-3.17
Mof_H 	H 	0.9943	0.25	0.8106	2.833
Mof_H 	H 	0.0327	0.309	0.8581	1.196
Mof_C 	C 	0.8596	0.3746	0.9006	0.257
Mof_H 	H 	0.8343	0.4071	0.873	-0.068
Mof_C 	C 	0.9096	0.3472	0.8642	-0.339
Mof_H 	H 	0.9187	0.3638	0.8156	0.037
Mof_C 	C 	0.9458	0.2953	0.8996	1.192
Mof_C 	C 	0.865	0.2922	0.9934	-0.257
Mof_H 	H 	0.8447	0.2623	0.029	0.112
Mof_C 	C 	0.918	0.2673	0.9624	-0.725
Mof_H 	H 	0.9375	0.2267	0.9868	0.332
Mof_C 	C 	0.0989	0.2068	0.8494	-2.841
Mof_H 	H 	0.1185	0.1932	0.8966	0.463
Mof_H 	H 	0.1212	0.2489	0.8264	0.206
Mof_C 	C 	0.033	0.2298	0.8631	2.11
Mof_H 	H 	0.0157	0.2492	0.8164	-2.19
Mof_H 	H 	0.0099	0.1847	0.8782	-4.444
Mof_C 	C 	0.0277	0.2914	0.9238	-2.461
Mof_H 	H 	0.0428	0.2703	0.9709	1.383
Mof_H 	H 	0.0537	0.3344	0.9102	0.47
Mof_C 	C 	0.8739	0.4002	0.9203	0.132
Mof_H 	H 	0.8576	0.4451	0.8996	-0.026
Mof_C 	C 	0.9298	0.3745	0.8985	-0.678
Mof_H 	H 	0.9461	0.3947	0.8543	0.266
Mof_C 	C 	0.9637	0.3215	0.9366	0.478
Mof_C 	C 	0.8811	0.3218	0.0171	0.603
Mof_H 	H 	0.8664	0.3103	0.0651	-0.175
Mof_C 	C 	0.9388	0.2978	0.0024	-0.146
Mof_H 	H 	0.9601	0.2665	0.0359	0.061
Mof_Cd	Cd	0.62321	0.53771	0.43051	0.394
Mof_Cd	Cd	0.75783	0.59084	0.53235	0.45
Mof_O 	O 	0.7325	0.5166	0.414	-0.29
Mof_O 	O 	0.7901	0.4633	0.5019	-0.305
Mof_O 	O 	0.8029	0.424	0.153	-0.292
Mof_O 	O 	0.7493	0.3172	0.1351	-0.346
Mof_O 	O 	0.8625	0.1461	0.3687	-0.302
Mof_O 	O 	0.8064	0.1732	0.4688	-0.373
Mof_O 	O 	0.8917	0.059	0.0139	-0.317
Mof_O 	O 	0.8324	0.9728	0.0643	-0.358
Mof_N 	N 	0.6044	0.4584	0.3312	-0.442
Mof_N 	N 	0.3427	0.1401	0.0282	-0.257
Mof_C 	C 	0.7776	0.3954	0.3868	-0.132
Mof_C 	C 	0.7921	0.3237	0.4147	0.068
Mof_H 	H 	0.7934	0.3164	0.4667	-0.01
Mof_C 	C 	0.8048	0.2617	0.3674	-0.14
Mof_C 	C 	0.802	0.2716	0.2884	0.065
Mof_C 	C 	0.7857	0.3456	0.26	-0.13
Mof_C 	C 	0.774	0.4051	0.3095	0.061
Mof_H 	H 	0.7634	0.4533	0.2904	0.022
Mof_C 	C 	0.7652	0.4623	0.4387	0.326
Mof_C 	C 	0.7785	0.3615	0.1765	0.326
Mof_C 	C 	0.8251	0.188	0.4046	0.336
Mof_C 	C 	0.8564	0.038	0.0649	0.332
Mof_C 	C 	0.8424	0.0954	0.1273	-0.105
Mof_C 	C 	0.7941	0.086	0.1759	0.028
Mof_H 	H 	0.7705	0.0416	0.1727	0.035
Mof_C 	C 	0.7802	0.1416	0.2295	-0.103
Mof_H 	H 	0.7472	0.1346	0.2618	0.06
Mof_C 	C 	0.8156	0.2076	0.2348	0.05
Mof_C 	C 	0.8651	0.2157	0.1866	-0.097
Mof_H 	H 	0.8899	0.259	0.1905	0.068
Mof_C 	C 	0.8778	0.1605	0.1334	0.042
Mof_H 	H 	0.9108	0.1671	0.1011	0.018
Mof_C 	C 	0.6236	0.3838	0.3349	0.838
Mof_H 	H 	0.6389	0.3651	0.3803	-0.227
Mof_C 	C 	0.621	0.3341	0.2721	-1.576
Mof_H 	H 	0.635	0.2835	0.2757	0.582
Mof_C 	C 	0.5966	0.3625	0.2033	2.608
Mof_C 	C 	0.5758	0.436	0.203	-1.806
Mof_H 	H 	0.5579	0.4557	0.1594	0.679
Mof_C 	C 	0.5808	0.4825	0.2664	0.962
Mof_H 	H 	0.5668	0.5331	0.2633	-0.288
Mof_C 	C 	0.5922	0.3234	0.1266	-2.929
Mof_H 	H 	0.611	0.3578	0.0902	0.675
Mof_H 	H 	0.6174	0.2774	0.1288	2.153
Mof_C 	C 	0.5313	0.2992	0.0942	8.495
Mof_H 	H 	0.5366	0.2836	0.0421	-3.229
Mof_H 	H 	0.5037	0.3429	0.0952	0.335
Mof_C 	C 	0.5036	0.233	0.1386	-3.529
Mof_H 	H 	0.4943	0.25	0.1894	3.123
Mof_H 	H 	0.5327	0.191	0.1419	1.322
Mof_C 	C 	0.3596	0.1254	0.0994	0.26
Mof_H 	H 	0.3343	0.0929	0.127	-0.069
Mof_C 	C 	0.4096	0.1528	0.1358	-0.396
Mof_H 	H 	0.4187	0.1362	0.1844	0.052
Mof_C 	C 	0.4458	0.2047	0.1004	1.336
Mof_C 	C 	0.365	0.2078	0.0066	-0.308
Mof_H 	H 	0.3447	0.2377	0.971	0.126
Mof_C 	C 	0.418	0.2327	0.0376	-0.765
Mof_H 	H 	0.4375	0.2733	0.0132	0.356
Mof_C 	C 	0.5989	0.2932	0.1506	-3.122
Mof_H 	H 	0.6185	0.3068	0.1034	0.502
Mof_H 	H 	0.6212	0.2511	0.1736	0.227
Mof_C 	C 	0.533	0.2702	0.1369	2.325
Mof_H 	H 	0.5157	0.2508	0.1836	-2.394
Mof_H 	H 	0.5099	0.3153	0.1218	-4.899
Mof_C 	C 	0.5277	0.2086	0.0762	-2.658
Mof_H 	H 	0.5428	0.2297	0.0291	1.505
Mof_H 	H 	0.5537	0.1656	0.0898	0.499
Mof_C 	C 	0.3739	0.0998	0.0797	0.166
Mof_H 	H 	0.3576	0.0549	0.1004	-0.038
Mof_C 	C 	0.4298	0.1255	0.1015	-0.715
Mof_H 	H 	0.4461	0.1053	0.1457	0.284
Mof_C 	C 	0.4637	0.1785	0.0634	0.497
Mof_C 	C 	0.3811	0.1782	0.9829	0.686
Mof_H 	H 	0.3664	0.1897	0.9349	-0.203
Mof_C 	C 	0.4388	0.2022	0.9976	-0.183
Mof_H 	H 	0.4601	0.2335	0.9641	0.072
Mof_Cd	Cd	0.87679	0.96229	0.93051	0.397
Mof_Cd	Cd	0.74217	0.90916	0.03235	0.45
Mof_O 	O 	0.7675	0.9834	0.914	-0.287
Mof_O 	O 	0.7099	0.0367	0.0019	-0.298
Mof_O 	O 	0.6971	0.076	0.653	-0.294
Mof_O 	O 	0.7507	0.1828	0.6351	-0.35
Mof_O 	O 	0.6375	0.3539	0.8687	-0.302
Mof_O 	O 	0.6936	0.3268	0.9688	-0.371
Mof_O 	O 	0.6083	0.441	0.5139	-0.321
Mof_O 	O 	0.6676	0.5272	0.5643	-0.359
Mof_N 	N 	0.8956	0.0416	0.8312	-0.456
Mof_N 	N 	0.1573	0.3599	0.5282	-0.264
Mof_C 	C 	0.7224	0.1046	0.8868	-0.129
Mof_C 	C 	0.7079	0.1763	0.9147	0.066
Mof_H 	H 	0.7066	0.1836	0.9667	-0.008
Mof_C 	C 	0.6952	0.2383	0.8674	-0.139
Mof_C 	C 	0.698	0.2284	0.7884	0.064
Mof_C 	C 	0.7143	0.1544	0.76	-0.13
Mof_C 	C 	0.726	0.0949	0.8095	0.059
Mof_H 	H 	0.7366	0.0467	0.7904	0.022
Mof_C 	C 	0.7348	0.0377	0.9387	0.317
Mof_C 	C 	0.7215	0.1385	0.6765	0.328
Mof_C 	C 	0.6749	0.312	0.9046	0.336
Mof_C 	C 	0.6436	0.462	0.5649	0.327
Mof_C 	C 	0.6576	0.4046	0.6273	-0.105
Mof_C 	C 	0.7059	0.414	0.6759	0.027
Mof_H 	H 	0.7295	0.4584	0.6727	0.033
Mof_C 	C 	0.7198	0.3584	0.7295	-0.104
Mof_H 	H 	0.7528	0.3654	0.7618	0.059
Mof_C 	C 	0.6844	0.2924	0.7348	0.05
Mof_C 	C 	0.6349	0.2843	0.6866	-0.097
Mof_H 	H 	0.6101	0.241	0.6905	0.068
Mof_C 	C 	0.6222	0.3395	0.6334	0.042
Mof_H 	H 	0.5892	0.3329	0.6011	0.017
Mof_C 	C 	0.8764	0.1162	0.8349	0.864
Mof_H 	H 	0.8611	0.1349	0.8803	-0.238
Mof_C 	C 	0.879	0.1659	0.7721	-1.639
Mof_H 	H 	0.865	0.2165	0.7757	0.606
Mof_C 	C 	0.9034	0.1375	0.7033	2.722
Mof_C 	C 	0.9242	0.064	0.703	-1.882
Mof_H 	H 	0.9421	0.0443	0.6594	0.705
Mof_C 	C 	0.9192	0.0175	0.7664	0.998
Mof_H 	H 	0.9332	0.9669	0.7633	-0.301
Mof_C 	C 	0.9078	0.1766	0.6266	-3.056
Mof_H 	H 	0.889	0.1422	0.5902	0.702
Mof_H 	H 	0.8826	0.2226	0.6288	2.249
Mof_C 	C 	0.9687	0.2008	0.5942	8.894
Mof_H 	H 	0.9634	0.2164	0.5421	-3.383
Mof_H 	H 	0.9963	0.1571	0.5952	0.354
Mof_C 	C 	0.9964	0.267	0.6386	-3.687
Mof_H 	H 	0.0057	0.25	0.6894	3.282
Mof_H 	H 	0.9673	0.309	0.6419	1.384
Mof_C 	C 	0.1404	0.3746	0.5994	0.293
Mof_H 	H 	0.1657	0.4071	0.627	-0.08
Mof_C 	C 	0.0904	0.3472	0.6358	-0.382
Mof_H 	H 	0.0813	0.3638	0.6844	0.046
Mof_C 	C 	0.0542	0.2953	0.6004	1.375
Mof_C 	C 	0.135	0.2922	0.5066	-0.308
Mof_H 	H 	0.1553	0.2623	0.471	0.125
Mof_C 	C 	0.082	0.2673	0.5376	-0.807
Mof_H 	H 	0.0625	0.2267	0.5132	0.372
Mof_C 	C 	0.9011	0.2068	0.6506	-3.265
Mof_H 	H 	0.8815	0.1932	0.6034	0.521
Mof_H 	H 	0.8788	0.2489	0.6736	0.239
Mof_C 	C 	0.967	0.2298	0.6369	2.444
Mof_H 	H 	0.9843	0.2492	0.6836	-2.516
Mof_H 	H 	0.9901	0.1847	0.6218	-5.138
Mof_C 	C 	0.9723	0.2914	0.5762	-2.793
Mof_H 	H 	0.9572	0.2703	0.5291	1.578
Mof_H 	H 	0.9463	0.3344	0.5898	0.524
Mof_C 	C 	0.1261	0.4002	0.5797	0.151
Mof_H 	H 	0.1424	0.4451	0.6004	-0.033
Mof_C 	C 	0.0702	0.3745	0.6015	-0.774
Mof_H 	H 	0.0539	0.3947	0.6457	0.303
Mof_C 	C 	0.0363	0.3215	0.5634	0.546
Mof_C 	C 	0.1189	0.3218	0.4829	0.703
Mof_H 	H 	0.1336	0.3103	0.4349	-0.209
Mof_C 	C 	0.0612	0.2978	0.4976	-0.184
Mof_H 	H 	0.0399	0.2665	0.4641	0.071
Mof_Cd	Cd	0.62321	0.46229	0.93051	0.393
Mof_Cd	Cd	0.75783	0.40916	0.03235	0.451
Mof_O 	O 	0.7325	0.4834	0.914	-0.29
Mof_O 	O 	0.7901	0.5367	0.0019	-0.299
Mof_O 	O 	0.8029	0.576	0.653	-0.294
Mof_O 	O 	0.7493	0.6828	0.6351	-0.346
Mof_O 	O 	0.8625	0.8539	0.8687	-0.301
Mof_O 	O 	0.8064	0.8268	0.9688	-0.363
Mof_O 	O 	0.8917	0.941	0.5139	-0.323
Mof_O 	O 	0.8324	0.0272	0.5643	-0.362
Mof_N 	N 	0.6044	0.5416	0.8312	-0.442
Mof_N 	N 	0.3427	0.8599	0.5282	-0.258
Mof_C 	C 	0.7776	0.6046	0.8868	-0.128
Mof_C 	C 	0.7921	0.6763	0.9147	0.065
Mof_H 	H 	0.7934	0.6836	0.9667	-0.003
Mof_C 	C 	0.8048	0.7383	0.8674	-0.136
Mof_C 	C 	0.802	0.7284	0.7884	0.063
Mof_C 	C 	0.7857	0.6544	0.76	-0.129
Mof_C 	C 	0.774	0.5949	0.8095	0.059
Mof_H 	H 	0.7634	0.5467	0.7904	0.022
Mof_C 	C 	0.7652	0.5377	0.9387	0.322
Mof_C 	C 	0.7785	0.6385	0.6765	0.327
Mof_C 	C 	0.8251	0.812	0.9046	0.335
Mof_C 	C 	0.8564	0.962	0.5649	0.328
Mof_C 	C 	0.8424	0.9046	0.6273	-0.106
Mof_C 	C 	0.7941	0.914	0.6759	0.029
Mof_H 	H 	0.7705	0.9584	0.6727	0.034
Mof_C 	C 	0.7802	0.8584	0.7295	-0.104
Mof_H 	H 	0.7472	0.8654	0.7618	0.061
Mof_C 	C 	0.8156	0.7924	0.7348	0.051
Mof_C 	C 	0.8651	0.7843	0.6866	-0.098
Mof_H 	H 	0.8899	0.741	0.6905	0.068
Mof_C 	C 	0.8778	0.8395	0.6334	0.043
Mof_H 	H 	0.9108	0.8329	0.6011	0.016
Mof_C 	C 	0.6236	0.6162	0.8349	0.838
Mof_H 	H 	0.6389	0.6349	0.8803	-0.227
Mof_C 	C 	0.621	0.6659	0.7721	-1.575
Mof_H 	H 	0.635	0.7165	0.7757	0.581
Mof_C 	C 	0.5966	0.6375	0.7033	2.606
Mof_C 	C 	0.5758	0.564	0.703	-1.804
Mof_H 	H 	0.5579	0.5443	0.6594	0.678
Mof_C 	C 	0.5808	0.5175	0.7664	0.961
Mof_H 	H 	0.5668	0.4669	0.7633	-0.288
Mof_C 	C 	0.5922	0.6766	0.6266	-2.927
Mof_H 	H 	0.611	0.6422	0.5902	0.674
Mof_H 	H 	0.6174	0.7226	0.6288	2.151
Mof_C 	C 	0.5313	0.7008	0.5942	8.485
Mof_H 	H 	0.5366	0.7164	0.5421	-3.226
Mof_H 	H 	0.5037	0.6571	0.5952	0.336
Mof_C 	C 	0.5036	0.767	0.6386	-3.516
Mof_H 	H 	0.4943	0.75	0.6894	3.123
Mof_H 	H 	0.5327	0.809	0.6419	1.319
Mof_C 	C 	0.3596	0.8746	0.5994	0.269
Mof_H 	H 	0.3343	0.9071	0.627	-0.072
Mof_C 	C 	0.4096	0.8472	0.6358	-0.383
Mof_H 	H 	0.4187	0.8638	0.6844	0.048
Mof_C 	C 	0.4458	0.7953	0.6004	1.325
Mof_C 	C 	0.365	0.7922	0.5066	-0.3
Mof_H 	H 	0.3447	0.7623	0.471	0.123
Mof_C 	C 	0.418	0.7673	0.5376	-0.772
Mof_H 	H 	0.4375	0.7267	0.5132	0.357
Mof_C 	C 	0.5989	0.7068	0.6506	-3.119
Mof_H 	H 	0.6185	0.6932	0.6034	0.501
Mof_H 	H 	0.6212	0.7489	0.6736	0.227
Mof_C 	C 	0.533	0.7298	0.6369	2.325
Mof_H 	H 	0.5157	0.7492	0.6836	-2.399
Mof_H 	H 	0.5099	0.6847	0.6218	-4.896
Mof_C 	C 	0.5277	0.7914	0.5762	-2.666
Mof_H 	H 	0.5428	0.7703	0.5291	1.507
Mof_H 	H 	0.5537	0.8344	0.5898	0.502
Mof_C 	C 	0.3739	0.9002	0.5797	0.157
Mof_H 	H 	0.3576	0.9451	0.6004	-0.035
Mof_C 	C 	0.4298	0.8745	0.6015	-0.726
Mof_H 	H 	0.4461	0.8947	0.6457	0.286
Mof_C 	C 	0.4637	0.8215	0.5634	0.508
Mof_C 	C 	0.3811	0.8218	0.4829	0.679
Mof_H 	H 	0.3664	0.8103	0.4349	-0.201
Mof_C 	C 	0.4388	0.7978	0.4976	-0.176
Mof_H 	H 	0.4601	0.7665	0.4641	0.069
Mof_Cd	Cd	0.87679	0.03771	0.43051	0.392
Mof_Cd	Cd	0.74217	0.09084	0.53235	0.449
Mof_O 	O 	0.7675	0.0166	0.414	-0.288
Mof_O 	O 	0.7099	0.9633	0.5019	-0.303
Mof_O 	O 	0.6971	0.924	0.153	-0.294
Mof_O 	O 	0.7507	0.8172	0.1351	-0.339
Mof_O 	O 	0.6375	0.6461	0.3687	-0.302
Mof_O 	O 	0.6936	0.6732	0.4688	-0.37
Mof_O 	O 	0.6083	0.559	0.0139	-0.321
Mof_O 	O 	0.6676	0.4728	0.0643	-0.359
Mof_N 	N 	0.8956	0.9584	0.3312	-0.416
Mof_N 	N 	0.1573	0.6401	0.0282	-0.248
Mof_C 	C 	0.7224	0.8954	0.3868	-0.131
Mof_C 	C 	0.7079	0.8237	0.4147	0.067
Mof_H 	H 	0.7066	0.8164	0.4667	-0.007
Mof_C 	C 	0.6952	0.7617	0.3674	-0.138
Mof_C 	C 	0.698	0.7716	0.2884	0.064
Mof_C 	C 	0.7143	0.8456	0.26	-0.129
Mof_C 	C 	0.726	0.9051	0.3095	0.06
Mof_H 	H 	0.7366	0.9533	0.2904	0.022
Mof_C 	C 	0.7348	0.9623	0.4387	0.324
Mof_C 	C 	0.7215	0.8615	0.1765	0.325
Mof_C 	C 	0.6749	0.688	0.4046	0.336
Mof_C 	C 	0.6436	0.538	0.0649	0.328
Mof_C 	C 	0.6576	0.5954	0.1273	-0.105
Mof_C 	C 	0.7059	0.586	0.1759	0.029
Mof_H 	H 	0.7295	0.5416	0.1727	0.034
Mof_C 	C 	0.7198	0.6416	0.2295	-0.103
Mof_H 	H 	0.7528	0.6346	0.2618	0.062
Mof_C 	C 	0.6844	0.7076	0.2348	0.051
Mof_C 	C 	0.6349	0.7157	0.1866	-0.097
Mof_H 	H 	0.6101	0.759	0.1905	0.068
Mof_C 	C 	0.6222	0.6605	0.1334	0.043
Mof_H 	H 	0.5892	0.6671	0.1011	0.016
Mof_C 	C 	0.8764	0.8838	0.3349	0.779
Mof_H 	H 	0.8611	0.8651	0.3803	-0.206
Mof_C 	C 	0.879	0.8341	0.2721	-1.45
Mof_H 	H 	0.865	0.7835	0.2757	0.535
Mof_C 	C 	0.9034	0.8625	0.2033	2.384
Mof_C 	C 	0.9242	0.936	0.203	-1.655
Mof_H 	H 	0.9421	0.9557	0.1594	0.624
Mof_C 	C 	0.9192	0.9825	0.2664	0.881
Mof_H 	H 	0.9332	0.0331	0.2633	-0.258
Mof_C 	C 	0.9078	0.8234	0.1266	-2.681
Mof_H 	H 	0.889	0.8578	0.0902	0.621
Mof_H 	H 	0.8826	0.7774	0.1288	1.964
Mof_C 	C 	0.9687	0.7992	0.0942	7.704
Mof_H 	H 	0.9634	0.7836	0.0421	-2.928
Mof_H 	H 	0.9963	0.8429	0.0952	0.306
Mof_C 	C 	0.9964	0.733	0.1386	-3.17
Mof_H 	H 	0.0057	0.75	0.1894	2.833
Mof_H 	H 	0.9673	0.691	0.1419	1.196
Mof_C 	C 	0.1404	0.6254	0.0994	0.257
Mof_H 	H 	0.1657	0.5929	0.127	-0.068
Mof_C 	C 	0.0904	0.6528	0.1358	-0.339
Mof_H 	H 	0.0813	0.6362	0.1844	0.037
Mof_C 	C 	0.0542	0.7047	0.1004	1.192
Mof_C 	C 	0.135	0.7078	0.0066	-0.257
Mof_H 	H 	0.1553	0.7377	0.971	0.112
Mof_C 	C 	0.082	0.7327	0.0376	-0.725
Mof_H 	H 	0.0625	0.7733	0.0132	0.332
Mof_C 	C 	0.9011	0.7932	0.1506	-2.841
Mof_H 	H 	0.8815	0.8068	0.1034	0.463
Mof_H 	H 	0.8788	0.7511	0.1736	0.206
Mof_C 	C 	0.967	0.7702	0.1369	2.11
Mof_H 	H 	0.9843	0.7508	0.1836	-2.19
Mof_H 	H 	0.9901	0.8153	0.1218	-4.444
Mof_C 	C 	0.9723	0.7086	0.0762	-2.461
Mof_H 	H 	0.9572	0.7297	0.0291	1.383
Mof_H 	H 	0.9463	0.6656	0.0898	0.47
Mof_C 	C 	0.1261	0.5998	0.0797	0.132
Mof_H 	H 	0.1424	0.5549	0.1004	-0.026
Mof_C 	C 	0.0702	0.6255	0.1015	-0.678
Mof_H 	H 	0.0539	0.6053	0.1457	0.266
Mof_C 	C 	0.0363	0.6785	0.0634	0.478
Mof_C 	C 	0.1189	0.6782	0.9829	0.603
Mof_H 	H 	0.1336	0.6897	0.9349	-0.175
Mof_C 	C 	0.0612	0.7022	0.9976	-0.146
Mof_H 	H 	0.0399	0.7335	0.9641	0.061
Mof_Cd	Cd	0.37679	0.46229	0.56949	0.394
Mof_Cd	Cd	0.24217	0.40916	0.46765	0.45
Mof_O 	O 	0.2675	0.4834	0.586	-0.29
Mof_O 	O 	0.2099	0.5367	0.4981	-0.305
Mof_O 	O 	0.1971	0.576	0.847	-0.292
Mof_O 	O 	0.2507	0.6828	0.8649	-0.346
Mof_O 	O 	0.1375	0.8539	0.6313	-0.302
Mof_O 	O 	0.1936	0.8268	0.5312	-0.373
Mof_O 	O 	0.1083	0.941	0.9861	-0.317
Mof_O 	O 	0.1676	0.0272	0.9357	-0.358
Mof_N 	N 	0.3956	0.5416	0.6688	-0.442
Mof_N 	N 	0.6573	0.8599	0.9718	-0.257
Mof_C 	C 	0.2224	0.6046	0.6132	-0.132
Mof_C 	C 	0.2079	0.6763	0.5853	0.068
Mof_H 	H 	0.2066	0.6836	0.5333	-0.01
Mof_C 	C 	0.1952	0.7383	0.6326	-0.14
Mof_C 	C 	0.198	0.7284	0.7116	0.065
Mof_C 	C 	0.2143	0.6544	0.74	-0.13
Mof_C 	C 	0.226	0.5949	0.6905	0.061
Mof_H 	H 	0.2366	0.5467	0.7096	0.022
Mof_C 	C 	0.2348	0.5377	0.5613	0.326
Mof_C 	C 	0.2215	0.6385	0.8235	0.326
Mof_C 	C 	0.1749	0.812	0.5954	0.336
Mof_C 	C 	0.1436	0.962	0.9351	0.332
Mof_C 	C 	0.1576	0.9046	0.8727	-0.105
Mof_C 	C 	0.2059	0.914	0.8241	0.028
Mof_H 	H 	0.2295	0.9584	0.8273	0.035
Mof_C 	C 	0.2198	0.8584	0.7705	-0.103
Mof_H 	H 	0.2528	0.8654	0.7382	0.06
Mof_C 	C 	0.1844	0.7924	0.7652	0.05
Mof_C 	C 	0.1349	0.7843	0.8134	-0.097
Mof_H 	H 	0.1101	0.741	0.8095	0.068
Mof_C 	C 	0.1222	0.8395	0.8666	0.042
Mof_H 	H 	0.0892	0.8329	0.8989	0.018
Mof_C 	C 	0.3764	0.6162	0.6651	0.838
Mof_H 	H 	0.3611	0.6349	0.6197	-0.227
Mof_C 	C 	0.379	0.6659	0.7279	-1.576
Mof_H 	H 	0.365	0.7165	0.7243	0.582
Mof_C 	C 	0.4034	0.6375	0.7967	2.608
Mof_C 	C 	0.4242	0.564	0.797	-1.806
Mof_H 	H 	0.4421	0.5443	0.8406	0.679
Mof_C 	C 	0.4192	0.5175	0.7336	0.962
Mof_H 	H 	0.4332	0.4669	0.7367	-0.288
Mof_C 	C 	0.4078	0.6766	0.8734	-2.929
Mof_H 	H 	0.389	0.6422	0.9098	0.675
Mof_H 	H 	0.3826	0.7226	0.8712	2.153
Mof_C 	C 	0.4687	0.7008	0.9058	8.495
Mof_H 	H 	0.4634	0.7164	0.9579	-3.229
Mof_H 	H 	0.4963	0.6571	0.9048	0.335
Mof_C 	C 	0.4964	0.767	0.8614	-3.529
Mof_H 	H 	0.5057	0.75	0.8106	3.123
Mof_H 	H 	0.4673	0.809	0.8581	1.322
Mof_C 	C 	0.6404	0.8746	0.9006	0.26
Mof_H 	H 	0.6657	0.9071	0.873	-0.069
Mof_C 	C 	0.5904	0.8472	0.8642	-0.396
Mof_H 	H 	0.5813	0.8638	0.8156	0.052
Mof_C 	C 	0.5542	0.7953	0.8996	1.336
Mof_C 	C 	0.635	0.7922	0.9934	-0.308
Mof_H 	H 	0.6553	0.7623	0.029	0.126
Mof_C 	C 	0.582	0.7673	0.9624	-0.765
Mof_H 	H 	0.5625	0.7267	0.9868	0.356
Mof_C 	C 	0.4011	0.7068	0.8494	-3.122
Mof_H 	H 	0.3815	0.6932	0.8966	0.502
Mof_H 	H 	0.3788	0.7489	0.8264	0.227
Mof_C 	C 	0.467	0.7298	0.8631	2.325
Mof_H 	H 	0.4843	0.7492	0.8164	-2.394
Mof_H 	H 	0.4901	0.6847	0.8782	-4.899
Mof_C 	C 	0.4723	0.7914	0.9238	-2.658
Mof_H 	H 	0.4572	0.7703	0.9709	1.505
Mof_H 	H 	0.4463	0.8344	0.9102	0.499
Mof_C 	C 	0.6261	0.9002	0.9203	0.166
Mof_H 	H 	0.6424	0.9451	0.8996	-0.038
Mof_C 	C 	0.5702	0.8745	0.8985	-0.715
Mof_H 	H 	0.5539	0.8947	0.8543	0.284
Mof_C 	C 	0.5363	0.8215	0.9366	0.497
Mof_C 	C 	0.6189	0.8218	0.0171	0.686
Mof_H 	H 	0.6336	0.8103	0.0651	-0.203
Mof_C 	C 	0.5612	0.7978	0.0024	-0.183
Mof_H 	H 	0.5399	0.7665	0.0359	0.072
Mof_Cd	Cd	0.12321	0.03771	0.06949	0.397
Mof_Cd	Cd	0.25783	0.09084	0.96765	0.45
Mof_O 	O 	0.2325	0.0166	0.086	-0.287
Mof_O 	O 	0.2901	0.9633	0.9981	-0.298
Mof_O 	O 	0.3029	0.924	0.347	-0.294
Mof_O 	O 	0.2493	0.8172	0.3649	-0.35
Mof_O 	O 	0.3625	0.6461	0.1313	-0.302
Mof_O 	O 	0.3064	0.6732	0.0312	-0.371
Mof_O 	O 	0.3917	0.559	0.4861	-0.321
Mof_O 	O 	0.3324	0.4728	0.4357	-0.359
Mof_N 	N 	0.1044	0.9584	0.1688	-0.456
Mof_N 	N 	0.8427	0.6401	0.4718	-0.264
Mof_C 	C 	0.2776	0.8954	0.1132	-0.129
Mof_C 	C 	0.2921	0.8237	0.0853	0.066
Mof_H 	H 	0.2934	0.8164	0.0333	-0.008
Mof_C 	C 	0.3048	0.7617	0.1326	-0.139
Mof_C 	C 	0.302	0.7716	0.2116	0.064
Mof_C 	C 	0.2857	0.8456	0.24	-0.13
Mof_C 	C 	0.274	0.9051	0.1905	0.059
Mof_H 	H 	0.2634	0.9533	0.2096	0.022
Mof_C 	C 	0.2652	0.9623	0.0613	0.317
Mof_C 	C 	0.2785	0.8615	0.3235	0.328
Mof_C 	C 	0.3251	0.688	0.0954	0.336
Mof_C 	C 	0.3564	0.538	0.4351	0.327
Mof_C 	C 	0.3424	0.5954	0.3727	-0.105
Mof_C 	C 	0.2941	0.586	0.3241	0.027
Mof_H 	H 	0.2705	0.5416	0.3273	0.033
Mof_C 	C 	0.2802	0.6416	0.2705	-0.104
Mof_H 	H 	0.2472	0.6346	0.2382	0.059
Mof_C 	C 	0.3156	0.7076	0.2652	0.05
Mof_C 	C 	0.3651	0.7157	0.3134	-0.097
Mof_H 	H 	0.3899	0.759	0.3095	0.068
Mof_C 	C 	0.3778	0.6605	0.3666	0.042
Mof_H 	H 	0.4108	0.6671	0.3989	0.017
Mof_C 	C 	0.1236	0.8838	0.1651	0.864
Mof_H 	H 	0.1389	0.8651	0.1197	-0.238
Mof_C 	C 	0.121	0.8341	0.2279	-1.639
Mof_H 	H 	0.135	0.7835	0.2243	0.606
Mof_C 	C 	0.0966	0.8625	0.2967	2.722
Mof_C 	C 	0.0758	0.936	0.297	-1.882
Mof_H 	H 	0.0579	0.9557	0.3406	0.705
Mof_C 	C 	0.0808	0.9825	0.2336	0.998
Mof_H 	H 	0.0668	0.0331	0.2367	-0.301
Mof_C 	C 	0.0922	0.8234	0.3734	-3.056
Mof_H 	H 	0.111	0.8578	0.4098	0.702
Mof_H 	H 	0.1174	0.7774	0.3712	2.249
Mof_C 	C 	0.0313	0.7992	0.4058	8.894
Mof_H 	H 	0.0366	0.7836	0.4579	-3.383
Mof_H 	H 	0.0037	0.8429	0.4048	0.354
Mof_C 	C 	0.0036	0.733	0.3614	-3.687
Mof_H 	H 	0.9943	0.75	0.3106	3.282
Mof_H 	H 	0.0327	0.691	0.3581	1.384
Mof_C 	C 	0.8596	0.6254	0.4006	0.293
Mof_H 	H 	0.8343	0.5929	0.373	-0.08
Mof_C 	C 	0.9096	0.6528	0.3642	-0.382
Mof_H 	H 	0.9187	0.6362	0.3156	0.046
Mof_C 	C 	0.9458	0.7047	0.3996	1.375
Mof_C 	C 	0.865	0.7078	0.4934	-0.308
Mof_H 	H 	0.8447	0.7377	0.529	0.125
Mof_C 	C 	0.918	0.7327	0.4624	-0.807
Mof_H 	H 	0.9375	0.7733	0.4868	0.372
Mof_C 	C 	0.0989	0.7932	0.3494	-3.265
Mof_H 	H 	0.1185	0.8068	0.3966	0.521
Mof_H 	H 	0.1212	0.7511	0.3264	0.239
Mof_C 	C 	0.033	0.7702	0.3631	2.444
Mof_H 	H 	0.0157	0.7508	0.3164	-2.516
Mof_H 	H 	0.0099	0.8153	0.3782	-5.138
Mof_C 	C 	0.0277	0.7086	0.4238	-2.793
Mof_H 	H 	0.0428	0.7297	0.4709	1.578
Mof_H 	H 	0.0537	0.6656	0.4102	0.524
Mof_C 	C 	0.8739	0.5998	0.4203	0.151
Mof_H 	H 	0.8576	0.5549	0.3996	-0.033
Mof_C 	C 	0.9298	0.6255	0.3985	-0.774
Mof_H 	H 	0.9461	0.6053	0.3543	0.303
Mof_C 	C 	0.9637	0.6785	0.4366	0.546
Mof_C 	C 	0.8811	0.6782	0.5171	0.703
Mof_H 	H 	0.8664	0.6897	0.5651	-0.209
Mof_C 	C 	0.9388	0.7022	0.5024	-0.184
Mof_H 	H 	0.9601	0.7335	0.5359	0.071
_end
