data_functionalizedCrystal
_audit_creation_method	'EQeq! by Chris Wilmer'
_symmetry_space_group_name_H-M	'P1'
_symmetry_Int_Tables_number	1
_symmetry_cell_setting	triclinic
loop_
_symmetry_equiv_pos_as_xyz
  x,y,z
_cell_length_a	42.1589
_cell_length_b	42.1589
_cell_length_c	52.5682
_cell_angle_alpha	90
_cell_angle_beta	90
_cell_angle_gamma	120
loop_
_atom_site_label
_atom_site_type_symbol
_atom_site_fract_x
_atom_site_fract_y
_atom_site_fract_z
_atom_site_charge
Mof_Zn	Zn	0.62313	0.53808	0.58314	1.213
Mof_Zn	Zn	0.65557	0.61069	0.54962	1.213
Mof_Zn	Zn	0.70774	0.58182	0.5713	1.212
Mof_Zn	Zn	0.67294	0.61543	0.60823	1.219
Mof_Zn	Zn	0.71073	0.73619	0.21973	1.219
Mof_S 	S 	0.54509	0.55091	0.5003	-0.008
Mof_S 	S 	0.51839	0.48556	0.53058	-0.028
Mof_H 	H 	0.5151	0.4676	0.5428	0.052
Mof_H 	H 	0.5626	0.5815	0.4921	0.039
Mof_C 	C 	0.69593	0.85563	0.19052	-0.044
Mof_S 	S 	0.6643	0.78941	0.16068	-0.064
Mof_H 	H 	0.6573	0.7655	0.1547	0.067
Mof_H 	H 	0.7088	0.8736	0.2032	0.066
Mof_C 	C 	0.63405	0.82082	0.12675	-0.034
Mof_S 	S 	0.66617	0.88609	0.15697	-0.042
Mof_H 	H 	0.6741	0.9099	0.1635	0.059
Mof_H 	H 	0.6213	0.8032	0.1139	0.054
Mof_O 	O 	0.66487	0.58647	0.57794	-0.961
Mof_O 	O 	0.60729	0.5798	0.53475	-0.501
Mof_O 	O 	0.58505	0.52742	0.55787	-0.5
Mof_O 	O 	0.60205	0.53511	0.61672	-0.512
Mof_O 	O 	0.63684	0.58984	0.63376	-0.54
Mof_O 	O 	0.67069	0.65973	0.60116	-0.532
Mof_O 	O 	0.65875	0.6564	0.56025	-0.532
Mof_O 	O 	0.69213	0.62215	0.52283	-0.522
Mof_O 	O 	0.7263	0.60087	0.53756	-0.533
Mof_O 	O 	0.69491	0.53047	0.57154	-0.529
Mof_O 	O 	0.6364	0.50049	0.58185	-0.529
Mof_O 	O 	0.7462	0.60818	0.59753	-0.494
Mof_O 	O 	0.72005	0.63028	0.62265	-0.512
Mof_O 	O 	0.7231	0.81862	0.22056	-0.473
Mof_O 	O 	0.69634	0.76523	0.19875	-0.498
Mof_O 	O 	0.78995	0.73774	0.28015	-0.536
Mof_O 	O 	0.74015	0.72346	0.30123	-0.558
Mof_O 	O 	0.66786	0.69146	0.22881	-0.562
Mof_C 	C 	0.5843	0.547	0.53997	0.391
Mof_C 	C 	0.5516	0.5279	0.52579	-0.092
Mof_C 	C 	0.50579	0.51476	0.49182	0.008
Mof_C 	C 	0.6659	0.5013	0.57598	0.473
Mof_C 	C 	0.6666	0.4664	0.57496	-0.296
Mof_C 	C 	0.6389	0.4373	0.5836	0.224
Mof_H 	H 	0.6192	0.4383	0.5916	-0.03
Mof_C 	C 	0.6382	0.4045	0.5811	-0.268
Mof_H 	H 	0.6161	0.3823	0.5844	0.12
Mof_C 	C 	0.6675	0.4028	0.57416	0.197
Mof_C 	C 	0.6955	0.4325	0.5653	-0.26
Mof_H 	H 	0.7159	0.4318	0.5582	0.117
Mof_C 	C 	0.6951	0.4658	0.5665	0.209
Mof_H 	H 	0.7158	0.4879	0.5609	-0.024
Mof_C 	C 	0.6669	0.366	0.5731	-0.067
Mof_C 	C 	0.6987	0.3654	0.5721	0
Mof_H 	H 	0.7212	0.3878	0.5707	0.024
Mof_C 	C 	0.6119	0.5588	0.63459	0.438
Mof_C 	C 	0.5886	0.5452	0.65799	-0.146
Mof_C 	C 	0.5944	0.57	0.6763	0.059
Mof_H 	H 	0.6112	0.5951	0.6732	0.027
Mof_C 	C 	0.5759	0.5591	0.70004	-0.118
Mof_H 	H 	0.5799	0.5761	0.7133	0.071
Mof_C 	C 	0.5512	0.5213	0.7025	0.063
Mof_C 	C 	0.5438	0.4943	0.6835	-0.115
Mof_H 	H 	0.5264	0.4692	0.686	0.07
Mof_C 	C 	0.5641	0.5073	0.66056	0.052
Mof_H 	H 	0.5612	0.4908	0.6473	0.028
Mof_C 	C 	0.7181	0.6159	0.5203	0.476
Mof_C 	C 	0.7393	0.6279	0.49781	-0.233
Mof_C 	C 	0.7369	0.6495	0.4797	0.145
Mof_H 	H 	0.7207	0.6588	0.4821	-0.005
Mof_C 	C 	0.7579	0.6582	0.45769	-0.196
Mof_H 	H 	0.7543	0.6725	0.4453	0.096
Mof_C 	C 	0.7822	0.6485	0.45247	0.133
Mof_C 	C 	0.7808	0.6231	0.4702	-0.167
Mof_H 	H 	0.7943	0.6111	0.4662	0.086
Mof_C 	C 	0.7612	0.6134	0.49351	0.119
Mof_H 	H 	0.7634	0.5976	0.5055	0.004
Mof_C 	C 	0.804	0.6597	0.43047	-0.058
Mof_C 	C 	0.7936	0.6701	0.40846	0.021
Mof_H 	H 	0.7715	0.6708	0.4076	0.013
Mof_C 	C 	0.8162	0.6792	0.38824	-0.116
Mof_C 	C 	0.8499	0.6802	0.3885	0.011
Mof_H 	H 	0.8654	0.6878	0.374	0.019
Mof_C 	C 	0.8601	0.6694	0.41115	-0.053
Mof_C 	C 	0.8391	0.6605	0.43248	-0.017
Mof_H 	H 	0.8468	0.655	0.448	0.034
Mof_C 	C 	0.8946	0.6689	0.41276	0.147
Mof_C 	C 	0.9102	0.67	0.4355	-0.184
Mof_H 	H 	0.9002	0.6736	0.4507	0.093
Mof_C 	C 	0.942	0.6656	0.4366	0.125
Mof_H 	H 	0.9502	0.6617	0.4525	0.005
Mof_C 	C 	0.9598	0.6671	0.41551	-0.224
Mof_C 	C 	0.9454	0.6685	0.39327	0.146
Mof_H 	H 	0.9575	0.6692	0.3778	-0.002
Mof_C 	C 	0.9123	0.669	0.3927	-0.207
Mof_H 	H 	0.9024	0.6695	0.3766	0.1
Mof_C 	C 	0.66528	0.6717	0.58148	0.477
Mof_C 	C 	0.8059	0.692	0.365	0.316
Mof_C 	C 	0.8251	0.7064	0.3449	-0.37
Mof_H 	H 	0.8494	0.7105	0.345	0.152
Mof_C 	C 	0.8137	0.7166	0.32259	0.334
Mof_H 	H 	0.8301	0.7266	0.3086	-0.056
Mof_C 	C 	0.7828	0.7128	0.32106	-0.399
Mof_C 	C 	0.7612	0.6944	0.3399	0.311
Mof_H 	H 	0.7356	0.6854	0.3382	-0.055
Mof_C 	C 	0.7742	0.6873	0.3625	-0.372
Mof_H 	H 	0.7581	0.6785	0.3768	0.151
Mof_C 	C 	0.7709	0.7272	0.29914	0.555
Mof_C 	C 	0.7039	0.7967	0.20259	0.369
Mof_C 	C 	0.6883	0.8143	0.18424	-0.046
Mof_C 	C 	0.6715	0.8524	0.16525	0.019
Mof_C 	C 	0.6571	0.8217	0.15127	0.02
Mof_C 	C 	0.641	0.862	0.13243	-0.09
Mof_C 	C 	0.7465	0.6256	0.6171	0.403
Mof_C 	C 	0.6073	0.6252	0.23022	0.465
Mof_H 	H 	0.6203	0.6346	0.2148	-0.104
Mof_C 	C 	0.5733	0.5912	0.22928	-0.487
Mof_H 	H 	0.5627	0.5803	0.2134	0.191
Mof_C 	C 	0.5296	0.5062	0.72689	-0.008
Mof_C 	C 	0.494	0.4776	0.72706	-0.012
Mof_H 	H 	0.4818	0.4675	0.7114	0.025
Mof_Zn	Zn	0.46192	0.08505	0.58314	1.212
Mof_Zn	Zn	0.38931	0.04488	0.54962	1.212
Mof_Zn	Zn	0.41818	0.12592	0.5713	1.211
Mof_Zn	Zn	0.38457	0.05751	0.60823	1.218
Mof_Zn	Zn	0.26381	0.97454	0.21973	1.218
Mof_S 	S 	0.44909	0.99418	0.5003	-0.009
Mof_S 	S 	0.51444	0.03283	0.53058	-0.029
Mof_H 	H 	0.5324	0.0475	0.5428	0.051
Mof_H 	H 	0.4185	0.9811	0.4921	0.038
Mof_C 	C 	0.14437	0.8403	0.19052	-0.045
Mof_S 	S 	0.21059	0.87489	0.16068	-0.065
Mof_H 	H 	0.2345	0.8918	0.1547	0.066
Mof_H 	H 	0.1264	0.8352	0.2032	0.065
Mof_C 	C 	0.17918	0.81323	0.12675	-0.035
Mof_S 	S 	0.11391	0.78008	0.15697	-0.043
Mof_H 	H 	0.0901	0.7642	0.1635	0.058
Mof_H 	H 	0.1968	0.8181	0.1139	0.053
Mof_O 	O 	0.41353	0.0784	0.57794	-0.962
Mof_O 	O 	0.4202	0.02749	0.53475	-0.502
Mof_O 	O 	0.47258	0.05763	0.55787	-0.501
Mof_O 	O 	0.46489	0.06694	0.61672	-0.513
Mof_O 	O 	0.41016	0.047	0.63376	-0.541
Mof_O 	O 	0.34027	0.01096	0.60116	-0.533
Mof_O 	O 	0.3436	0.00235	0.56025	-0.533
Mof_O 	O 	0.37785	0.06998	0.52283	-0.523
Mof_O 	O 	0.39913	0.12543	0.53756	-0.534
Mof_O 	O 	0.46953	0.16444	0.57154	-0.53
Mof_O 	O 	0.49951	0.13591	0.58185	-0.53
Mof_O 	O 	0.39182	0.13802	0.59753	-0.495
Mof_O 	O 	0.36972	0.08977	0.62265	-0.513
Mof_O 	O 	0.18138	0.90448	0.22056	-0.474
Mof_O 	O 	0.23477	0.93111	0.19875	-0.499
Mof_O 	O 	0.26226	0.05221	0.28015	-0.537
Mof_O 	O 	0.27654	0.01669	0.30123	-0.559
Mof_O 	O 	0.30854	0.9764	0.22881	-0.563
Mof_C 	C 	0.453	0.0373	0.53997	0.39
Mof_C 	C 	0.4721	0.0237	0.52579	-0.093
Mof_C 	C 	0.48524	0.99103	0.49182	0.007
Mof_C 	C 	0.4987	0.1646	0.57598	0.472
Mof_C 	C 	0.5336	0.2002	0.57496	-0.297
Mof_C 	C 	0.5627	0.2016	0.5836	0.223
Mof_H 	H 	0.5617	0.1809	0.5916	-0.031
Mof_C 	C 	0.5955	0.2337	0.5811	-0.269
Mof_H 	H 	0.6177	0.2338	0.5844	0.119
Mof_C 	C 	0.5972	0.2647	0.57416	0.196
Mof_C 	C 	0.5675	0.263	0.5653	-0.261
Mof_H 	H 	0.5682	0.2841	0.5582	0.116
Mof_C 	C 	0.5342	0.2293	0.5665	0.208
Mof_H 	H 	0.5121	0.2279	0.5609	-0.025
Mof_C 	C 	0.634	0.3009	0.5731	-0.068
Mof_C 	C 	0.6346	0.3333	0.5721	-0.001
Mof_H 	H 	0.6122	0.3334	0.5707	0.023
Mof_C 	C 	0.4412	0.0531	0.63459	0.437
Mof_C 	C 	0.4548	0.0434	0.65799	-0.147
Mof_C 	C 	0.43	0.0244	0.6763	0.058
Mof_H 	H 	0.4049	0.0161	0.6732	0.026
Mof_C 	C 	0.4409	0.0168	0.70004	-0.119
Mof_H 	H 	0.4239	0.0038	0.7133	0.07
Mof_C 	C 	0.4787	0.0299	0.7025	0.062
Mof_C 	C 	0.5057	0.0495	0.6835	-0.116
Mof_H 	H 	0.5308	0.0572	0.686	0.069
Mof_C 	C 	0.4927	0.0568	0.66056	0.051
Mof_H 	H 	0.5092	0.0704	0.6473	0.027
Mof_C 	C 	0.3841	0.1022	0.5203	0.475
Mof_C 	C 	0.3721	0.1114	0.49781	-0.234
Mof_C 	C 	0.3505	0.0874	0.4797	0.144
Mof_H 	H 	0.3412	0.0619	0.4821	-0.006
Mof_C 	C 	0.3418	0.0997	0.45769	-0.197
Mof_H 	H 	0.3275	0.0818	0.4453	0.095
Mof_C 	C 	0.3515	0.1337	0.45247	0.132
Mof_C 	C 	0.3769	0.1577	0.4702	-0.168
Mof_H 	H 	0.3889	0.1832	0.4662	0.085
Mof_C 	C 	0.3866	0.1478	0.49351	0.118
Mof_H 	H 	0.4024	0.1658	0.5055	0.003
Mof_C 	C 	0.3403	0.1443	0.43047	-0.059
Mof_C 	C 	0.3299	0.1235	0.40846	0.02
Mof_H 	H 	0.3292	0.1007	0.4076	0.012
Mof_C 	C 	0.3208	0.137	0.38824	-0.117
Mof_C 	C 	0.3198	0.1697	0.3885	0.01
Mof_H 	H 	0.3122	0.1776	0.374	0.018
Mof_C 	C 	0.3306	0.1907	0.41115	-0.054
Mof_C 	C 	0.3395	0.1786	0.43248	-0.018
Mof_H 	H 	0.345	0.1918	0.448	0.033
Mof_C 	C 	0.3311	0.2257	0.41276	0.146
Mof_C 	C 	0.33	0.2402	0.4355	-0.185
Mof_H 	H 	0.3264	0.2266	0.4507	0.092
Mof_C 	C 	0.3344	0.2764	0.4366	0.124
Mof_H 	H 	0.3383	0.2885	0.4525	0.004
Mof_C 	C 	0.3329	0.2927	0.41551	-0.225
Mof_C 	C 	0.3315	0.2769	0.39327	0.145
Mof_H 	H 	0.3308	0.2883	0.3778	-0.003
Mof_C 	C 	0.331	0.2433	0.3927	-0.208
Mof_H 	H 	0.3305	0.2329	0.3766	0.099
Mof_C 	C 	0.3283	0.99358	0.58148	0.476
Mof_C 	C 	0.308	0.1139	0.365	0.315
Mof_C 	C 	0.2936	0.1187	0.3449	-0.371
Mof_H 	H 	0.2895	0.1389	0.345	0.152
Mof_C 	C 	0.2834	0.0971	0.32259	0.334
Mof_H 	H 	0.2734	0.1035	0.3086	-0.056
Mof_C 	C 	0.2872	0.07	0.32106	-0.399
Mof_C 	C 	0.3056	0.0668	0.3399	0.311
Mof_H 	H 	0.3146	0.0502	0.3382	-0.055
Mof_C 	C 	0.3127	0.0869	0.3625	-0.372
Mof_H 	H 	0.3215	0.0796	0.3768	0.151
Mof_C 	C 	0.2728	0.0437	0.29914	0.555
Mof_C 	C 	0.2033	0.9072	0.20259	0.369
Mof_C 	C 	0.1857	0.874	0.18424	-0.046
Mof_C 	C 	0.1476	0.8191	0.16525	0.019
Mof_C 	C 	0.1783	0.8354	0.15127	0.02
Mof_C 	C 	0.138	0.779	0.13243	-0.09
Mof_C 	C 	0.3744	0.1209	0.6171	0.403
Mof_C 	C 	0.3748	0.9821	0.23022	0.465
Mof_H 	H 	0.3654	0.9857	0.2148	-0.104
Mof_C 	C 	0.4088	0.9821	0.22928	-0.487
Mof_H 	H 	0.4197	0.9824	0.2134	0.191
Mof_C 	C 	0.4938	0.0234	0.72689	-0.008
Mof_C 	C 	0.5224	0.0164	0.72706	-0.012
Mof_H 	H 	0.5325	0.0143	0.7114	0.025
Mof_Zn	Zn	0.91495	0.37687	0.58314	1.212
Mof_Zn	Zn	0.95512	0.34443	0.54962	1.212
Mof_Zn	Zn	0.87408	0.29226	0.5713	1.211
Mof_Zn	Zn	0.94249	0.32706	0.60823	1.218
Mof_Zn	Zn	0.02546	0.28927	0.21973	1.218
Mof_S 	S 	0.00582	0.45491	0.5003	-0.009
Mof_S 	S 	0.96717	0.48161	0.53058	-0.029
Mof_H 	H 	0.9525	0.4849	0.5428	0.051
Mof_H 	H 	0.0189	0.4374	0.4921	0.038
Mof_C 	C 	0.1597	0.30407	0.19052	-0.045
Mof_S 	S 	0.12511	0.3357	0.16068	-0.065
Mof_H 	H 	0.1082	0.3427	0.1547	0.066
Mof_H 	H 	0.1648	0.2912	0.2032	0.065
Mof_C 	C 	0.18677	0.36595	0.12675	-0.035
Mof_S 	S 	0.21992	0.33383	0.15697	-0.043
Mof_H 	H 	0.2358	0.3259	0.1635	0.058
Mof_H 	H 	0.1819	0.3787	0.1139	0.053
Mof_O 	O 	0.9216	0.33513	0.57794	-0.962
Mof_O 	O 	0.97251	0.39271	0.53475	-0.502
Mof_O 	O 	0.94237	0.41495	0.55787	-0.501
Mof_O 	O 	0.93306	0.39795	0.61672	-0.513
Mof_O 	O 	0.953	0.36316	0.63376	-0.541
Mof_O 	O 	0.98904	0.32931	0.60116	-0.533
Mof_O 	O 	0.99765	0.34125	0.56025	-0.533
Mof_O 	O 	0.93002	0.30787	0.52283	-0.523
Mof_O 	O 	0.87457	0.2737	0.53756	-0.534
Mof_O 	O 	0.83556	0.30509	0.57154	-0.53
Mof_O 	O 	0.86409	0.3636	0.58185	-0.53
Mof_O 	O 	0.86198	0.2538	0.59753	-0.495
Mof_O 	O 	0.91023	0.27995	0.62265	-0.513
Mof_O 	O 	0.09552	0.2769	0.22056	-0.474
Mof_O 	O 	0.06889	0.30366	0.19875	-0.499
Mof_O 	O 	0.94779	0.21005	0.28015	-0.537
Mof_O 	O 	0.98331	0.25985	0.30123	-0.559
Mof_O 	O 	0.0236	0.33214	0.22881	-0.563
Mof_C 	C 	0.9627	0.4157	0.53997	0.39
Mof_C 	C 	0.9763	0.4484	0.52579	-0.093
Mof_C 	C 	0.00897	0.49421	0.49182	0.007
Mof_C 	C 	0.8354	0.3341	0.57598	0.472
Mof_C 	C 	0.7998	0.3334	0.57496	-0.297
Mof_C 	C 	0.7984	0.3611	0.5836	0.223
Mof_H 	H 	0.8191	0.3808	0.5916	-0.031
Mof_C 	C 	0.7663	0.3618	0.5811	-0.269
Mof_H 	H 	0.7662	0.3839	0.5844	0.119
Mof_C 	C 	0.7353	0.3325	0.57416	0.196
Mof_C 	C 	0.737	0.3045	0.5653	-0.261
Mof_H 	H 	0.7159	0.2841	0.5582	0.116
Mof_C 	C 	0.7707	0.3049	0.5665	0.208
Mof_H 	H 	0.7721	0.2842	0.5609	-0.025
Mof_C 	C 	0.6991	0.3331	0.5731	-0.068
Mof_C 	C 	0.6667	0.3013	0.5721	-0.001
Mof_H 	H 	0.6666	0.2788	0.5707	0.023
Mof_C 	C 	0.9469	0.3881	0.63459	0.437
Mof_C 	C 	0.9566	0.4114	0.65799	-0.147
Mof_C 	C 	0.9756	0.4056	0.6763	0.058
Mof_H 	H 	0.9839	0.3888	0.6732	0.026
Mof_C 	C 	0.9832	0.4241	0.70004	-0.119
Mof_H 	H 	0.9962	0.4201	0.7133	0.07
Mof_C 	C 	0.9701	0.4488	0.7025	0.062
Mof_C 	C 	0.9505	0.4562	0.6835	-0.116
Mof_H 	H 	0.9428	0.4736	0.686	0.069
Mof_C 	C 	0.9432	0.4359	0.66056	0.051
Mof_H 	H 	0.9296	0.4388	0.6473	0.027
Mof_C 	C 	0.8978	0.2819	0.5203	0.475
Mof_C 	C 	0.8886	0.2607	0.49781	-0.234
Mof_C 	C 	0.9126	0.2631	0.4797	0.144
Mof_H 	H 	0.9381	0.2793	0.4821	-0.006
Mof_C 	C 	0.9003	0.2421	0.45769	-0.197
Mof_H 	H 	0.9182	0.2457	0.4453	0.095
Mof_C 	C 	0.8663	0.2178	0.45247	0.132
Mof_C 	C 	0.8423	0.2192	0.4702	-0.168
Mof_H 	H 	0.8168	0.2057	0.4662	0.085
Mof_C 	C 	0.8522	0.2388	0.49351	0.118
Mof_H 	H 	0.8342	0.2366	0.5055	0.003
Mof_C 	C 	0.8557	0.196	0.43047	-0.059
Mof_C 	C 	0.8765	0.2064	0.40846	0.02
Mof_H 	H 	0.8993	0.2285	0.4076	0.012
Mof_C 	C 	0.863	0.1838	0.38824	-0.117
Mof_C 	C 	0.8303	0.1501	0.3885	0.01
Mof_H 	H 	0.8224	0.1346	0.374	0.018
Mof_C 	C 	0.8093	0.1399	0.41115	-0.054
Mof_C 	C 	0.8214	0.1609	0.43248	-0.018
Mof_H 	H 	0.8082	0.1532	0.448	0.033
Mof_C 	C 	0.7743	0.1054	0.41276	0.146
Mof_C 	C 	0.7598	0.0898	0.4355	-0.185
Mof_H 	H 	0.7734	0.0998	0.4507	0.092
Mof_C 	C 	0.7236	0.058	0.4366	0.124
Mof_H 	H 	0.7115	0.0498	0.4525	0.004
Mof_C 	C 	0.7073	0.0402	0.41551	-0.225
Mof_C 	C 	0.7231	0.0546	0.39327	0.145
Mof_H 	H 	0.7117	0.0425	0.3778	-0.003
Mof_C 	C 	0.7567	0.0877	0.3927	-0.208
Mof_H 	H 	0.7671	0.0976	0.3766	0.099
Mof_C 	C 	0.00642	0.33472	0.58148	0.476
Mof_C 	C 	0.8861	0.1941	0.365	0.315
Mof_C 	C 	0.8813	0.1749	0.3449	-0.371
Mof_H 	H 	0.8611	0.1506	0.345	0.152
Mof_C 	C 	0.9029	0.1863	0.32259	0.334
Mof_H 	H 	0.8965	0.1699	0.3086	-0.056
Mof_C 	C 	0.93	0.2172	0.32106	-0.399
Mof_C 	C 	0.9332	0.2388	0.3399	0.311
Mof_H 	H 	0.9498	0.2644	0.3382	-0.055
Mof_C 	C 	0.9131	0.2258	0.3625	-0.372
Mof_H 	H 	0.9204	0.2419	0.3768	0.151
Mof_C 	C 	0.9563	0.2291	0.29914	0.555
Mof_C 	C 	0.0928	0.2961	0.20259	0.369
Mof_C 	C 	0.126	0.3117	0.18424	-0.046
Mof_C 	C 	0.1809	0.3285	0.16525	0.019
Mof_C 	C 	0.1646	0.3429	0.15127	0.02
Mof_C 	C 	0.221	0.359	0.13243	-0.09
Mof_C 	C 	0.8791	0.2535	0.6171	0.403
Mof_C 	C 	0.0179	0.3927	0.23022	0.465
Mof_H 	H 	0.0143	0.3797	0.2148	-0.104
Mof_C 	C 	0.0179	0.4267	0.22928	-0.487
Mof_H 	H 	0.0176	0.4373	0.2134	0.191
Mof_C 	C 	0.9766	0.4704	0.72689	-0.008
Mof_C 	C 	0.9836	0.506	0.72706	-0.012
Mof_H 	H 	0.9857	0.5182	0.7114	0.025
Mof_Zn	Zn	0.37687	0.46192	0.08314	1.212
Mof_Zn	Zn	0.34443	0.38931	0.04962	1.212
Mof_Zn	Zn	0.29226	0.41818	0.0713	1.211
Mof_Zn	Zn	0.32706	0.38457	0.10823	1.218
Mof_Zn	Zn	0.28927	0.26381	0.71973	1.218
Mof_S 	S 	0.45491	0.44909	0.0003	-0.009
Mof_S 	S 	0.48161	0.51444	0.03058	-0.029
Mof_H 	H 	0.4849	0.5324	0.0428	0.051
Mof_H 	H 	0.4374	0.4185	0.9921	0.038
Mof_C 	C 	0.30407	0.14437	0.69052	-0.045
Mof_S 	S 	0.3357	0.21059	0.66068	-0.065
Mof_H 	H 	0.3427	0.2345	0.6547	0.066
Mof_H 	H 	0.2912	0.1264	0.7032	0.065
Mof_C 	C 	0.36595	0.17918	0.62675	-0.035
Mof_S 	S 	0.33383	0.11391	0.65697	-0.043
Mof_H 	H 	0.3259	0.0901	0.6635	0.058
Mof_H 	H 	0.3787	0.1968	0.6139	0.053
Mof_O 	O 	0.33513	0.41353	0.07794	-0.962
Mof_O 	O 	0.39271	0.4202	0.03475	-0.502
Mof_O 	O 	0.41495	0.47258	0.05787	-0.501
Mof_O 	O 	0.39795	0.46489	0.11672	-0.513
Mof_O 	O 	0.36316	0.41016	0.13376	-0.541
Mof_O 	O 	0.32931	0.34027	0.10116	-0.533
Mof_O 	O 	0.34125	0.3436	0.06025	-0.533
Mof_O 	O 	0.30787	0.37785	0.02283	-0.523
Mof_O 	O 	0.2737	0.39913	0.03756	-0.534
Mof_O 	O 	0.30509	0.46953	0.07154	-0.53
Mof_O 	O 	0.3636	0.49951	0.08185	-0.53
Mof_O 	O 	0.2538	0.39182	0.09753	-0.495
Mof_O 	O 	0.27995	0.36972	0.12265	-0.513
Mof_O 	O 	0.2769	0.18138	0.72056	-0.474
Mof_O 	O 	0.30366	0.23477	0.69875	-0.499
Mof_O 	O 	0.21005	0.26226	0.78015	-0.537
Mof_O 	O 	0.25985	0.27654	0.80123	-0.559
Mof_O 	O 	0.33214	0.30854	0.72881	-0.563
Mof_C 	C 	0.4157	0.453	0.03997	0.39
Mof_C 	C 	0.4484	0.4721	0.02579	-0.093
Mof_C 	C 	0.49421	0.48524	0.99182	0.007
Mof_C 	C 	0.3341	0.4987	0.07598	0.472
Mof_C 	C 	0.3334	0.5336	0.07496	-0.297
Mof_C 	C 	0.3611	0.5627	0.0836	0.223
Mof_H 	H 	0.3808	0.5617	0.0916	-0.031
Mof_C 	C 	0.3618	0.5955	0.0811	-0.269
Mof_H 	H 	0.3839	0.6177	0.0844	0.119
Mof_C 	C 	0.3325	0.5972	0.07416	0.196
Mof_C 	C 	0.3045	0.5675	0.0653	-0.261
Mof_H 	H 	0.2841	0.5682	0.0582	0.116
Mof_C 	C 	0.3049	0.5342	0.0665	0.208
Mof_H 	H 	0.2842	0.5121	0.0609	-0.025
Mof_C 	C 	0.3331	0.634	0.0731	-0.068
Mof_C 	C 	0.3013	0.6346	0.0721	-0.001
Mof_H 	H 	0.2788	0.6122	0.0707	0.023
Mof_C 	C 	0.3881	0.4412	0.13459	0.437
Mof_C 	C 	0.4114	0.4548	0.15799	-0.147
Mof_C 	C 	0.4056	0.43	0.1763	0.058
Mof_H 	H 	0.3888	0.4049	0.1732	0.026
Mof_C 	C 	0.4241	0.4409	0.20004	-0.119
Mof_H 	H 	0.4201	0.4239	0.2133	0.07
Mof_C 	C 	0.4488	0.4787	0.2025	0.062
Mof_C 	C 	0.4562	0.5057	0.1835	-0.116
Mof_H 	H 	0.4736	0.5308	0.186	0.069
Mof_C 	C 	0.4359	0.4927	0.16056	0.051
Mof_H 	H 	0.4388	0.5092	0.1473	0.027
Mof_C 	C 	0.2819	0.3841	0.0203	0.475
Mof_C 	C 	0.2607	0.3721	0.99781	-0.234
Mof_C 	C 	0.2631	0.3505	0.9797	0.144
Mof_H 	H 	0.2793	0.3412	0.9821	-0.006
Mof_C 	C 	0.2421	0.3418	0.95769	-0.197
Mof_H 	H 	0.2457	0.3275	0.9453	0.095
Mof_C 	C 	0.2178	0.3515	0.95247	0.132
Mof_C 	C 	0.2192	0.3769	0.9702	-0.168
Mof_H 	H 	0.2057	0.3889	0.9662	0.085
Mof_C 	C 	0.2388	0.3866	0.99351	0.118
Mof_H 	H 	0.2366	0.4024	0.0055	0.003
Mof_C 	C 	0.196	0.3403	0.93047	-0.059
Mof_C 	C 	0.2064	0.3299	0.90846	0.02
Mof_H 	H 	0.2285	0.3292	0.9076	0.012
Mof_C 	C 	0.1838	0.3208	0.88824	-0.117
Mof_C 	C 	0.1501	0.3198	0.8885	0.01
Mof_H 	H 	0.1346	0.3122	0.874	0.018
Mof_C 	C 	0.1399	0.3306	0.91115	-0.054
Mof_C 	C 	0.1609	0.3395	0.93248	-0.018
Mof_H 	H 	0.1532	0.345	0.948	0.033
Mof_C 	C 	0.1054	0.3311	0.91276	0.146
Mof_C 	C 	0.0898	0.33	0.9355	-0.185
Mof_H 	H 	0.0998	0.3264	0.9507	0.092
Mof_C 	C 	0.058	0.3344	0.9366	0.124
Mof_H 	H 	0.0498	0.3383	0.9525	0.004
Mof_C 	C 	0.0402	0.3329	0.91551	-0.225
Mof_C 	C 	0.0546	0.3315	0.89327	0.145
Mof_H 	H 	0.0425	0.3308	0.8778	-0.003
Mof_C 	C 	0.0877	0.331	0.8927	-0.208
Mof_H 	H 	0.0976	0.3305	0.8766	0.099
Mof_C 	C 	0.33472	0.3283	0.08148	0.476
Mof_C 	C 	0.1941	0.308	0.865	0.315
Mof_C 	C 	0.1749	0.2936	0.8449	-0.371
Mof_H 	H 	0.1506	0.2895	0.845	0.152
Mof_C 	C 	0.1863	0.2834	0.82259	0.334
Mof_H 	H 	0.1699	0.2734	0.8086	-0.056
Mof_C 	C 	0.2172	0.2872	0.82106	-0.399
Mof_C 	C 	0.2388	0.3056	0.8399	0.311
Mof_H 	H 	0.2644	0.3146	0.8382	-0.055
Mof_C 	C 	0.2258	0.3127	0.8625	-0.372
Mof_H 	H 	0.2419	0.3215	0.8768	0.151
Mof_C 	C 	0.2291	0.2728	0.79914	0.555
Mof_C 	C 	0.2961	0.2033	0.70259	0.369
Mof_C 	C 	0.3117	0.1857	0.68424	-0.046
Mof_C 	C 	0.3285	0.1476	0.66525	0.019
Mof_C 	C 	0.3429	0.1783	0.65127	0.02
Mof_C 	C 	0.359	0.138	0.63243	-0.09
Mof_C 	C 	0.2535	0.3744	0.1171	0.403
Mof_C 	C 	0.3927	0.3748	0.73022	0.465
Mof_H 	H 	0.3797	0.3654	0.7148	-0.104
Mof_C 	C 	0.4267	0.4088	0.72928	-0.487
Mof_H 	H 	0.4373	0.4197	0.7134	0.191
Mof_C 	C 	0.4704	0.4938	0.22689	-0.008
Mof_C 	C 	0.506	0.5224	0.22706	-0.012
Mof_H 	H 	0.5182	0.5325	0.2114	0.025
Mof_Zn	Zn	0.53808	0.91495	0.08314	1.212
Mof_Zn	Zn	0.61069	0.95512	0.04962	1.212
Mof_Zn	Zn	0.58182	0.87408	0.0713	1.211
Mof_Zn	Zn	0.61543	0.94249	0.10823	1.218
Mof_Zn	Zn	0.73619	0.02546	0.71973	1.218
Mof_S 	S 	0.55091	0.00582	0.0003	-0.009
Mof_S 	S 	0.48556	0.96717	0.03058	-0.029
Mof_H 	H 	0.4676	0.9525	0.0428	0.051
Mof_H 	H 	0.5815	0.0189	0.9921	0.038
Mof_C 	C 	0.85563	0.1597	0.69052	-0.045
Mof_S 	S 	0.78941	0.12511	0.66068	-0.065
Mof_H 	H 	0.7655	0.1082	0.6547	0.066
Mof_H 	H 	0.8736	0.1648	0.7032	0.065
Mof_C 	C 	0.82082	0.18677	0.62675	-0.035
Mof_S 	S 	0.88609	0.21992	0.65697	-0.043
Mof_H 	H 	0.9099	0.2358	0.6635	0.058
Mof_H 	H 	0.8032	0.1819	0.6139	0.053
Mof_O 	O 	0.58647	0.9216	0.07794	-0.962
Mof_O 	O 	0.5798	0.97251	0.03475	-0.502
Mof_O 	O 	0.52742	0.94237	0.05787	-0.501
Mof_O 	O 	0.53511	0.93306	0.11672	-0.513
Mof_O 	O 	0.58984	0.953	0.13376	-0.541
Mof_O 	O 	0.65973	0.98904	0.10116	-0.533
Mof_O 	O 	0.6564	0.99765	0.06025	-0.533
Mof_O 	O 	0.62215	0.93002	0.02283	-0.523
Mof_O 	O 	0.60087	0.87457	0.03756	-0.534
Mof_O 	O 	0.53047	0.83556	0.07154	-0.53
Mof_O 	O 	0.50049	0.86409	0.08185	-0.53
Mof_O 	O 	0.60818	0.86198	0.09753	-0.495
Mof_O 	O 	0.63028	0.91023	0.12265	-0.513
Mof_O 	O 	0.81862	0.09552	0.72056	-0.474
Mof_O 	O 	0.76523	0.06889	0.69875	-0.499
Mof_O 	O 	0.73774	0.94779	0.78015	-0.537
Mof_O 	O 	0.72346	0.98331	0.80123	-0.559
Mof_O 	O 	0.69146	0.0236	0.72881	-0.563
Mof_C 	C 	0.547	0.9627	0.03997	0.39
Mof_C 	C 	0.5279	0.9763	0.02579	-0.093
Mof_C 	C 	0.51476	0.00897	0.99182	0.007
Mof_C 	C 	0.5013	0.8354	0.07598	0.472
Mof_C 	C 	0.4664	0.7998	0.07496	-0.297
Mof_C 	C 	0.4373	0.7984	0.0836	0.223
Mof_H 	H 	0.4383	0.8191	0.0916	-0.031
Mof_C 	C 	0.4045	0.7663	0.0811	-0.269
Mof_H 	H 	0.3823	0.7662	0.0844	0.119
Mof_C 	C 	0.4028	0.7353	0.07416	0.196
Mof_C 	C 	0.4325	0.737	0.0653	-0.261
Mof_H 	H 	0.4318	0.7159	0.0582	0.116
Mof_C 	C 	0.4658	0.7707	0.0665	0.208
Mof_H 	H 	0.4879	0.7721	0.0609	-0.025
Mof_C 	C 	0.366	0.6991	0.0731	-0.068
Mof_C 	C 	0.3654	0.6667	0.0721	-0.001
Mof_H 	H 	0.3878	0.6666	0.0707	0.023
Mof_C 	C 	0.5588	0.9469	0.13459	0.437
Mof_C 	C 	0.5452	0.9566	0.15799	-0.147
Mof_C 	C 	0.57	0.9756	0.1763	0.058
Mof_H 	H 	0.5951	0.9839	0.1732	0.026
Mof_C 	C 	0.5591	0.9832	0.20004	-0.119
Mof_H 	H 	0.5761	0.9962	0.2133	0.07
Mof_C 	C 	0.5213	0.9701	0.2025	0.062
Mof_C 	C 	0.4943	0.9505	0.1835	-0.116
Mof_H 	H 	0.4692	0.9428	0.186	0.069
Mof_C 	C 	0.5073	0.9432	0.16056	0.051
Mof_H 	H 	0.4908	0.9296	0.1473	0.027
Mof_C 	C 	0.6159	0.8978	0.0203	0.475
Mof_C 	C 	0.6279	0.8886	0.99781	-0.234
Mof_C 	C 	0.6495	0.9126	0.9797	0.144
Mof_H 	H 	0.6588	0.9381	0.9821	-0.006
Mof_C 	C 	0.6582	0.9003	0.95769	-0.197
Mof_H 	H 	0.6725	0.9182	0.9453	0.095
Mof_C 	C 	0.6485	0.8663	0.95247	0.132
Mof_C 	C 	0.6231	0.8423	0.9702	-0.168
Mof_H 	H 	0.6111	0.8168	0.9662	0.085
Mof_C 	C 	0.6134	0.8522	0.99351	0.118
Mof_H 	H 	0.5976	0.8342	0.0055	0.003
Mof_C 	C 	0.6597	0.8557	0.93047	-0.059
Mof_C 	C 	0.6701	0.8765	0.90846	0.02
Mof_H 	H 	0.6708	0.8993	0.9076	0.012
Mof_C 	C 	0.6792	0.863	0.88824	-0.117
Mof_C 	C 	0.6802	0.8303	0.8885	0.01
Mof_H 	H 	0.6878	0.8224	0.874	0.018
Mof_C 	C 	0.6694	0.8093	0.91115	-0.054
Mof_C 	C 	0.6605	0.8214	0.93248	-0.018
Mof_H 	H 	0.655	0.8082	0.948	0.033
Mof_C 	C 	0.6689	0.7743	0.91276	0.146
Mof_C 	C 	0.67	0.7598	0.9355	-0.185
Mof_H 	H 	0.6736	0.7734	0.9507	0.092
Mof_C 	C 	0.6656	0.7236	0.9366	0.124
Mof_H 	H 	0.6617	0.7115	0.9525	0.004
Mof_C 	C 	0.6671	0.7073	0.91551	-0.225
Mof_C 	C 	0.6685	0.7231	0.89327	0.145
Mof_H 	H 	0.6692	0.7117	0.8778	-0.003
Mof_C 	C 	0.669	0.7567	0.8927	-0.208
Mof_H 	H 	0.6695	0.7671	0.8766	0.099
Mof_C 	C 	0.6717	0.00642	0.08148	0.476
Mof_C 	C 	0.692	0.8861	0.865	0.315
Mof_C 	C 	0.7064	0.8813	0.8449	-0.371
Mof_H 	H 	0.7105	0.8611	0.845	0.152
Mof_C 	C 	0.7166	0.9029	0.82259	0.334
Mof_H 	H 	0.7266	0.8965	0.8086	-0.056
Mof_C 	C 	0.7128	0.93	0.82106	-0.399
Mof_C 	C 	0.6944	0.9332	0.8399	0.311
Mof_H 	H 	0.6854	0.9498	0.8382	-0.055
Mof_C 	C 	0.6873	0.9131	0.8625	-0.372
Mof_H 	H 	0.6785	0.9204	0.8768	0.151
Mof_C 	C 	0.7272	0.9563	0.79914	0.555
Mof_C 	C 	0.7967	0.0928	0.70259	0.369
Mof_C 	C 	0.8143	0.126	0.68424	-0.046
Mof_C 	C 	0.8524	0.1809	0.66525	0.019
Mof_C 	C 	0.8217	0.1646	0.65127	0.02
Mof_C 	C 	0.862	0.221	0.63243	-0.09
Mof_C 	C 	0.6256	0.8791	0.1171	0.403
Mof_C 	C 	0.6252	0.0179	0.73022	0.465
Mof_H 	H 	0.6346	0.0143	0.7148	-0.104
Mof_C 	C 	0.5912	0.0179	0.72928	-0.487
Mof_H 	H 	0.5803	0.0176	0.7134	0.191
Mof_C 	C 	0.5062	0.9766	0.22689	-0.008
Mof_C 	C 	0.4776	0.9836	0.22706	-0.012
Mof_H 	H 	0.4675	0.9857	0.2114	0.025
Mof_Zn	Zn	0.08505	0.62313	0.08314	1.212
Mof_Zn	Zn	0.04488	0.65557	0.04962	1.212
Mof_Zn	Zn	0.12592	0.70774	0.0713	1.211
Mof_Zn	Zn	0.05751	0.67294	0.10823	1.218
Mof_Zn	Zn	0.97454	0.71073	0.71973	1.218
Mof_S 	S 	0.99418	0.54509	0.0003	-0.009
Mof_S 	S 	0.03283	0.51839	0.03058	-0.029
Mof_H 	H 	0.0475	0.5151	0.0428	0.051
Mof_H 	H 	0.9811	0.5626	0.9921	0.038
Mof_C 	C 	0.8403	0.69593	0.69052	-0.045
Mof_S 	S 	0.87489	0.6643	0.66068	-0.065
Mof_H 	H 	0.8918	0.6573	0.6547	0.066
Mof_H 	H 	0.8352	0.7088	0.7032	0.065
Mof_C 	C 	0.81323	0.63405	0.62675	-0.035
Mof_S 	S 	0.78008	0.66617	0.65697	-0.043
Mof_H 	H 	0.7642	0.6741	0.6635	0.058
Mof_H 	H 	0.8181	0.6213	0.6139	0.053
Mof_O 	O 	0.0784	0.66487	0.07794	-0.962
Mof_O 	O 	0.02749	0.60729	0.03475	-0.502
Mof_O 	O 	0.05763	0.58505	0.05787	-0.501
Mof_O 	O 	0.06694	0.60205	0.11672	-0.513
Mof_O 	O 	0.047	0.63684	0.13376	-0.541
Mof_O 	O 	0.01096	0.67069	0.10116	-0.533
Mof_O 	O 	0.00235	0.65875	0.06025	-0.533
Mof_O 	O 	0.06998	0.69213	0.02283	-0.523
Mof_O 	O 	0.12543	0.7263	0.03756	-0.534
Mof_O 	O 	0.16444	0.69491	0.07154	-0.53
Mof_O 	O 	0.13591	0.6364	0.08185	-0.53
Mof_O 	O 	0.13802	0.7462	0.09753	-0.495
Mof_O 	O 	0.08977	0.72005	0.12265	-0.513
Mof_O 	O 	0.90448	0.7231	0.72056	-0.474
Mof_O 	O 	0.93111	0.69634	0.69875	-0.499
Mof_O 	O 	0.05221	0.78995	0.78015	-0.537
Mof_O 	O 	0.01669	0.74015	0.80123	-0.559
Mof_O 	O 	0.9764	0.66786	0.72881	-0.563
Mof_C 	C 	0.0373	0.5843	0.03997	0.39
Mof_C 	C 	0.0237	0.5516	0.02579	-0.093
Mof_C 	C 	0.99103	0.50579	0.99182	0.007
Mof_C 	C 	0.1646	0.6659	0.07598	0.472
Mof_C 	C 	0.2002	0.6666	0.07496	-0.297
Mof_C 	C 	0.2016	0.6389	0.0836	0.223
Mof_H 	H 	0.1809	0.6192	0.0916	-0.031
Mof_C 	C 	0.2337	0.6382	0.0811	-0.269
Mof_H 	H 	0.2338	0.6161	0.0844	0.119
Mof_C 	C 	0.2647	0.6675	0.07416	0.196
Mof_C 	C 	0.263	0.6955	0.0653	-0.261
Mof_H 	H 	0.2841	0.7159	0.0582	0.116
Mof_C 	C 	0.2293	0.6951	0.0665	0.208
Mof_H 	H 	0.2279	0.7158	0.0609	-0.025
Mof_C 	C 	0.3009	0.6669	0.0731	-0.068
Mof_C 	C 	0.3333	0.6987	0.0721	-0.001
Mof_H 	H 	0.3334	0.7212	0.0707	0.023
Mof_C 	C 	0.0531	0.6119	0.13459	0.437
Mof_C 	C 	0.0434	0.5886	0.15799	-0.147
Mof_C 	C 	0.0244	0.5944	0.1763	0.058
Mof_H 	H 	0.0161	0.6112	0.1732	0.026
Mof_C 	C 	0.0168	0.5759	0.20004	-0.119
Mof_H 	H 	0.0038	0.5799	0.2133	0.07
Mof_C 	C 	0.0299	0.5512	0.2025	0.062
Mof_C 	C 	0.0495	0.5438	0.1835	-0.116
Mof_H 	H 	0.0572	0.5264	0.186	0.069
Mof_C 	C 	0.0568	0.5641	0.16056	0.051
Mof_H 	H 	0.0704	0.5612	0.1473	0.027
Mof_C 	C 	0.1022	0.7181	0.0203	0.475
Mof_C 	C 	0.1114	0.7393	0.99781	-0.234
Mof_C 	C 	0.0874	0.7369	0.9797	0.144
Mof_H 	H 	0.0619	0.7207	0.9821	-0.006
Mof_C 	C 	0.0997	0.7579	0.95769	-0.197
Mof_H 	H 	0.0818	0.7543	0.9453	0.095
Mof_C 	C 	0.1337	0.7822	0.95247	0.132
Mof_C 	C 	0.1577	0.7808	0.9702	-0.168
Mof_H 	H 	0.1832	0.7943	0.9662	0.085
Mof_C 	C 	0.1478	0.7612	0.99351	0.118
Mof_H 	H 	0.1658	0.7634	0.0055	0.003
Mof_C 	C 	0.1443	0.804	0.93047	-0.059
Mof_C 	C 	0.1235	0.7936	0.90846	0.02
Mof_H 	H 	0.1007	0.7715	0.9076	0.012
Mof_C 	C 	0.137	0.8162	0.88824	-0.117
Mof_C 	C 	0.1697	0.8499	0.8885	0.01
Mof_H 	H 	0.1776	0.8654	0.874	0.018
Mof_C 	C 	0.1907	0.8601	0.91115	-0.054
Mof_C 	C 	0.1786	0.8391	0.93248	-0.018
Mof_H 	H 	0.1918	0.8468	0.948	0.033
Mof_C 	C 	0.2257	0.8946	0.91276	0.146
Mof_C 	C 	0.2402	0.9102	0.9355	-0.185
Mof_H 	H 	0.2266	0.9002	0.9507	0.092
Mof_C 	C 	0.2764	0.942	0.9366	0.124
Mof_H 	H 	0.2885	0.9502	0.9525	0.004
Mof_C 	C 	0.2927	0.9598	0.91551	-0.225
Mof_C 	C 	0.2769	0.9454	0.89327	0.145
Mof_H 	H 	0.2883	0.9575	0.8778	-0.003
Mof_C 	C 	0.2433	0.9123	0.8927	-0.208
Mof_H 	H 	0.2329	0.9024	0.8766	0.099
Mof_C 	C 	0.99358	0.66528	0.08148	0.476
Mof_C 	C 	0.1139	0.8059	0.865	0.315
Mof_C 	C 	0.1187	0.8251	0.8449	-0.371
Mof_H 	H 	0.1389	0.8494	0.845	0.152
Mof_C 	C 	0.0971	0.8137	0.82259	0.334
Mof_H 	H 	0.1035	0.8301	0.8086	-0.056
Mof_C 	C 	0.07	0.7828	0.82106	-0.399
Mof_C 	C 	0.0668	0.7612	0.8399	0.311
Mof_H 	H 	0.0502	0.7356	0.8382	-0.055
Mof_C 	C 	0.0869	0.7742	0.8625	-0.372
Mof_H 	H 	0.0796	0.7581	0.8768	0.151
Mof_C 	C 	0.0437	0.7709	0.79914	0.555
Mof_C 	C 	0.9072	0.7039	0.70259	0.369
Mof_C 	C 	0.874	0.6883	0.68424	-0.046
Mof_C 	C 	0.8191	0.6715	0.66525	0.019
Mof_C 	C 	0.8354	0.6571	0.65127	0.02
Mof_C 	C 	0.779	0.641	0.63243	-0.09
Mof_C 	C 	0.1209	0.7465	0.1171	0.403
Mof_C 	C 	0.9821	0.6073	0.73022	0.465
Mof_H 	H 	0.9857	0.6203	0.7148	-0.104
Mof_C 	C 	0.9821	0.5733	0.72928	-0.487
Mof_H 	H 	0.9824	0.5627	0.7134	0.191
Mof_C 	C 	0.0234	0.5296	0.22689	-0.008
Mof_C 	C 	0.0164	0.494	0.22706	-0.012
Mof_H 	H 	0.0143	0.4818	0.2114	0.025
Mof_Zn	Zn	0.37687	0.46192	0.41686	1.212
Mof_Zn	Zn	0.34443	0.38931	0.45038	1.212
Mof_Zn	Zn	0.29226	0.41818	0.4287	1.211
Mof_Zn	Zn	0.32706	0.38457	0.39177	1.218
Mof_Zn	Zn	0.28927	0.26381	0.78027	1.218
Mof_S 	S 	0.45491	0.44909	0.4997	-0.009
Mof_S 	S 	0.48161	0.51444	0.46942	-0.029
Mof_H 	H 	0.4849	0.5324	0.4572	0.051
Mof_H 	H 	0.4374	0.4185	0.5079	0.038
Mof_C 	C 	0.30407	0.14437	0.80948	-0.045
Mof_S 	S 	0.3357	0.21059	0.83932	-0.065
Mof_H 	H 	0.3427	0.2345	0.8453	0.066
Mof_H 	H 	0.2912	0.1264	0.7968	0.065
Mof_C 	C 	0.36595	0.17918	0.87325	-0.035
Mof_S 	S 	0.33383	0.11391	0.84303	-0.043
Mof_H 	H 	0.3259	0.0901	0.8365	0.058
Mof_H 	H 	0.3787	0.1968	0.8861	0.053
Mof_O 	O 	0.33513	0.41353	0.42206	-0.962
Mof_O 	O 	0.39271	0.4202	0.46525	-0.502
Mof_O 	O 	0.41495	0.47258	0.44213	-0.501
Mof_O 	O 	0.39795	0.46489	0.38328	-0.513
Mof_O 	O 	0.36316	0.41016	0.36624	-0.541
Mof_O 	O 	0.32931	0.34027	0.39884	-0.533
Mof_O 	O 	0.34125	0.3436	0.43975	-0.533
Mof_O 	O 	0.30787	0.37785	0.47717	-0.523
Mof_O 	O 	0.2737	0.39913	0.46244	-0.534
Mof_O 	O 	0.30509	0.46953	0.42846	-0.53
Mof_O 	O 	0.3636	0.49951	0.41815	-0.53
Mof_O 	O 	0.2538	0.39182	0.40247	-0.495
Mof_O 	O 	0.27995	0.36972	0.37735	-0.513
Mof_O 	O 	0.2769	0.18138	0.77944	-0.474
Mof_O 	O 	0.30366	0.23477	0.80125	-0.499
Mof_O 	O 	0.21005	0.26226	0.71985	-0.537
Mof_O 	O 	0.25985	0.27654	0.69877	-0.559
Mof_O 	O 	0.33214	0.30854	0.77119	-0.563
Mof_C 	C 	0.4157	0.453	0.46003	0.39
Mof_C 	C 	0.4484	0.4721	0.47421	-0.093
Mof_C 	C 	0.49421	0.48524	0.50818	0.007
Mof_C 	C 	0.3341	0.4987	0.42402	0.472
Mof_C 	C 	0.3334	0.5336	0.42504	-0.297
Mof_C 	C 	0.3611	0.5627	0.4164	0.223
Mof_H 	H 	0.3808	0.5617	0.4084	-0.031
Mof_C 	C 	0.3618	0.5955	0.4189	-0.269
Mof_H 	H 	0.3839	0.6177	0.4156	0.119
Mof_C 	C 	0.3325	0.5972	0.42584	0.196
Mof_C 	C 	0.3045	0.5675	0.4347	-0.261
Mof_H 	H 	0.2841	0.5682	0.4418	0.116
Mof_C 	C 	0.3049	0.5342	0.4335	0.208
Mof_H 	H 	0.2842	0.5121	0.4391	-0.025
Mof_C 	C 	0.3331	0.634	0.4269	-0.068
Mof_C 	C 	0.3013	0.6346	0.4279	-0.001
Mof_H 	H 	0.2788	0.6122	0.4293	0.023
Mof_C 	C 	0.3881	0.4412	0.36541	0.437
Mof_C 	C 	0.4114	0.4548	0.34201	-0.147
Mof_C 	C 	0.4056	0.43	0.3237	0.058
Mof_H 	H 	0.3888	0.4049	0.3268	0.026
Mof_C 	C 	0.4241	0.4409	0.29996	-0.119
Mof_H 	H 	0.4201	0.4239	0.2867	0.07
Mof_C 	C 	0.4488	0.4787	0.2975	0.062
Mof_C 	C 	0.4562	0.5057	0.3165	-0.116
Mof_H 	H 	0.4736	0.5308	0.314	0.069
Mof_C 	C 	0.4359	0.4927	0.33944	0.051
Mof_H 	H 	0.4388	0.5092	0.3527	0.027
Mof_C 	C 	0.2819	0.3841	0.4797	0.475
Mof_C 	C 	0.2607	0.3721	0.50219	-0.234
Mof_C 	C 	0.2631	0.3505	0.5203	0.144
Mof_H 	H 	0.2793	0.3412	0.5179	-0.006
Mof_C 	C 	0.2421	0.3418	0.54231	-0.197
Mof_H 	H 	0.2457	0.3275	0.5547	0.095
Mof_C 	C 	0.2178	0.3515	0.54753	0.132
Mof_C 	C 	0.2192	0.3769	0.5298	-0.168
Mof_H 	H 	0.2057	0.3889	0.5338	0.085
Mof_C 	C 	0.2388	0.3866	0.50649	0.118
Mof_H 	H 	0.2366	0.4024	0.4945	0.003
Mof_C 	C 	0.196	0.3403	0.56953	-0.059
Mof_C 	C 	0.2064	0.3299	0.59154	0.02
Mof_H 	H 	0.2285	0.3292	0.5924	0.012
Mof_C 	C 	0.1838	0.3208	0.61176	-0.117
Mof_C 	C 	0.1501	0.3198	0.6115	0.01
Mof_H 	H 	0.1346	0.3122	0.626	0.018
Mof_C 	C 	0.1399	0.3306	0.58885	-0.054
Mof_C 	C 	0.1609	0.3395	0.56752	-0.018
Mof_H 	H 	0.1532	0.345	0.552	0.033
Mof_C 	C 	0.1054	0.3311	0.58724	0.146
Mof_C 	C 	0.0898	0.33	0.5645	-0.185
Mof_H 	H 	0.0998	0.3264	0.5493	0.092
Mof_C 	C 	0.058	0.3344	0.5634	0.124
Mof_H 	H 	0.0498	0.3383	0.5475	0.004
Mof_C 	C 	0.0402	0.3329	0.58449	-0.225
Mof_C 	C 	0.0546	0.3315	0.60673	0.145
Mof_H 	H 	0.0425	0.3308	0.6222	-0.003
Mof_C 	C 	0.0877	0.331	0.6073	-0.208
Mof_H 	H 	0.0976	0.3305	0.6234	0.099
Mof_C 	C 	0.33472	0.3283	0.41852	0.476
Mof_C 	C 	0.1941	0.308	0.635	0.315
Mof_C 	C 	0.1749	0.2936	0.6551	-0.371
Mof_H 	H 	0.1506	0.2895	0.655	0.152
Mof_C 	C 	0.1863	0.2834	0.67741	0.334
Mof_H 	H 	0.1699	0.2734	0.6914	-0.056
Mof_C 	C 	0.2172	0.2872	0.67894	-0.399
Mof_C 	C 	0.2388	0.3056	0.6601	0.311
Mof_H 	H 	0.2644	0.3146	0.6618	-0.055
Mof_C 	C 	0.2258	0.3127	0.6375	-0.372
Mof_H 	H 	0.2419	0.3215	0.6232	0.151
Mof_C 	C 	0.2291	0.2728	0.70086	0.555
Mof_C 	C 	0.2961	0.2033	0.79741	0.369
Mof_C 	C 	0.3117	0.1857	0.81576	-0.046
Mof_C 	C 	0.3285	0.1476	0.83475	0.019
Mof_C 	C 	0.3429	0.1783	0.84873	0.02
Mof_C 	C 	0.359	0.138	0.86757	-0.09
Mof_C 	C 	0.2535	0.3744	0.3829	0.403
Mof_C 	C 	0.3927	0.3748	0.76978	0.465
Mof_H 	H 	0.3797	0.3654	0.7852	-0.104
Mof_C 	C 	0.4267	0.4088	0.77072	-0.487
Mof_H 	H 	0.4373	0.4197	0.7866	0.191
Mof_C 	C 	0.4704	0.4938	0.27311	-0.008
Mof_C 	C 	0.506	0.5224	0.27294	-0.012
Mof_H 	H 	0.5182	0.5325	0.2886	0.025
Mof_Zn	Zn	0.53808	0.91495	0.41686	1.212
Mof_Zn	Zn	0.61069	0.95512	0.45038	1.212
Mof_Zn	Zn	0.58182	0.87408	0.4287	1.211
Mof_Zn	Zn	0.61543	0.94249	0.39177	1.218
Mof_Zn	Zn	0.73619	0.02546	0.78027	1.218
Mof_S 	S 	0.55091	0.00582	0.4997	-0.009
Mof_S 	S 	0.48556	0.96717	0.46942	-0.029
Mof_H 	H 	0.4676	0.9525	0.4572	0.051
Mof_H 	H 	0.5815	0.0189	0.5079	0.038
Mof_C 	C 	0.85563	0.1597	0.80948	-0.045
Mof_S 	S 	0.78941	0.12511	0.83932	-0.065
Mof_H 	H 	0.7655	0.1082	0.8453	0.066
Mof_H 	H 	0.8736	0.1648	0.7968	0.065
Mof_C 	C 	0.82082	0.18677	0.87325	-0.035
Mof_S 	S 	0.88609	0.21992	0.84303	-0.043
Mof_H 	H 	0.9099	0.2358	0.8365	0.058
Mof_H 	H 	0.8032	0.1819	0.8861	0.053
Mof_O 	O 	0.58647	0.9216	0.42206	-0.962
Mof_O 	O 	0.5798	0.97251	0.46525	-0.502
Mof_O 	O 	0.52742	0.94237	0.44213	-0.501
Mof_O 	O 	0.53511	0.93306	0.38328	-0.513
Mof_O 	O 	0.58984	0.953	0.36624	-0.541
Mof_O 	O 	0.65973	0.98904	0.39884	-0.533
Mof_O 	O 	0.6564	0.99765	0.43975	-0.533
Mof_O 	O 	0.62215	0.93002	0.47717	-0.523
Mof_O 	O 	0.60087	0.87457	0.46244	-0.534
Mof_O 	O 	0.53047	0.83556	0.42846	-0.53
Mof_O 	O 	0.50049	0.86409	0.41815	-0.53
Mof_O 	O 	0.60818	0.86198	0.40247	-0.495
Mof_O 	O 	0.63028	0.91023	0.37735	-0.513
Mof_O 	O 	0.81862	0.09552	0.77944	-0.474
Mof_O 	O 	0.76523	0.06889	0.80125	-0.499
Mof_O 	O 	0.73774	0.94779	0.71985	-0.537
Mof_O 	O 	0.72346	0.98331	0.69877	-0.559
Mof_O 	O 	0.69146	0.0236	0.77119	-0.563
Mof_C 	C 	0.547	0.9627	0.46003	0.39
Mof_C 	C 	0.5279	0.9763	0.47421	-0.093
Mof_C 	C 	0.51476	0.00897	0.50818	0.007
Mof_C 	C 	0.5013	0.8354	0.42402	0.472
Mof_C 	C 	0.4664	0.7998	0.42504	-0.297
Mof_C 	C 	0.4373	0.7984	0.4164	0.223
Mof_H 	H 	0.4383	0.8191	0.4084	-0.031
Mof_C 	C 	0.4045	0.7663	0.4189	-0.269
Mof_H 	H 	0.3823	0.7662	0.4156	0.119
Mof_C 	C 	0.4028	0.7353	0.42584	0.196
Mof_C 	C 	0.4325	0.737	0.4347	-0.261
Mof_H 	H 	0.4318	0.7159	0.4418	0.116
Mof_C 	C 	0.4658	0.7707	0.4335	0.208
Mof_H 	H 	0.4879	0.7721	0.4391	-0.025
Mof_C 	C 	0.366	0.6991	0.4269	-0.068
Mof_C 	C 	0.3654	0.6667	0.4279	-0.001
Mof_H 	H 	0.3878	0.6666	0.4293	0.023
Mof_C 	C 	0.5588	0.9469	0.36541	0.437
Mof_C 	C 	0.5452	0.9566	0.34201	-0.147
Mof_C 	C 	0.57	0.9756	0.3237	0.058
Mof_H 	H 	0.5951	0.9839	0.3268	0.026
Mof_C 	C 	0.5591	0.9832	0.29996	-0.119
Mof_H 	H 	0.5761	0.9962	0.2867	0.07
Mof_C 	C 	0.5213	0.9701	0.2975	0.062
Mof_C 	C 	0.4943	0.9505	0.3165	-0.116
Mof_H 	H 	0.4692	0.9428	0.314	0.069
Mof_C 	C 	0.5073	0.9432	0.33944	0.051
Mof_H 	H 	0.4908	0.9296	0.3527	0.027
Mof_C 	C 	0.6159	0.8978	0.4797	0.475
Mof_C 	C 	0.6279	0.8886	0.50219	-0.234
Mof_C 	C 	0.6495	0.9126	0.5203	0.144
Mof_H 	H 	0.6588	0.9381	0.5179	-0.006
Mof_C 	C 	0.6582	0.9003	0.54231	-0.197
Mof_H 	H 	0.6725	0.9182	0.5547	0.095
Mof_C 	C 	0.6485	0.8663	0.54753	0.132
Mof_C 	C 	0.6231	0.8423	0.5298	-0.168
Mof_H 	H 	0.6111	0.8168	0.5338	0.085
Mof_C 	C 	0.6134	0.8522	0.50649	0.118
Mof_H 	H 	0.5976	0.8342	0.4945	0.003
Mof_C 	C 	0.6597	0.8557	0.56953	-0.059
Mof_C 	C 	0.6701	0.8765	0.59154	0.02
Mof_H 	H 	0.6708	0.8993	0.5924	0.012
Mof_C 	C 	0.6792	0.863	0.61176	-0.117
Mof_C 	C 	0.6802	0.8303	0.6115	0.01
Mof_H 	H 	0.6878	0.8224	0.626	0.018
Mof_C 	C 	0.6694	0.8093	0.58885	-0.054
Mof_C 	C 	0.6605	0.8214	0.56752	-0.018
Mof_H 	H 	0.655	0.8082	0.552	0.033
Mof_C 	C 	0.6689	0.7743	0.58724	0.146
Mof_C 	C 	0.67	0.7598	0.5645	-0.185
Mof_H 	H 	0.6736	0.7734	0.5493	0.092
Mof_C 	C 	0.6656	0.7236	0.5634	0.124
Mof_H 	H 	0.6617	0.7115	0.5475	0.004
Mof_C 	C 	0.6671	0.7073	0.58449	-0.225
Mof_C 	C 	0.6685	0.7231	0.60673	0.145
Mof_H 	H 	0.6692	0.7117	0.6222	-0.003
Mof_C 	C 	0.669	0.7567	0.6073	-0.208
Mof_H 	H 	0.6695	0.7671	0.6234	0.099
Mof_C 	C 	0.6717	0.00642	0.41852	0.476
Mof_C 	C 	0.692	0.8861	0.635	0.315
Mof_C 	C 	0.7064	0.8813	0.6551	-0.371
Mof_H 	H 	0.7105	0.8611	0.655	0.152
Mof_C 	C 	0.7166	0.9029	0.67741	0.334
Mof_H 	H 	0.7266	0.8965	0.6914	-0.056
Mof_C 	C 	0.7128	0.93	0.67894	-0.399
Mof_C 	C 	0.6944	0.9332	0.6601	0.311
Mof_H 	H 	0.6854	0.9498	0.6618	-0.055
Mof_C 	C 	0.6873	0.9131	0.6375	-0.372
Mof_H 	H 	0.6785	0.9204	0.6232	0.151
Mof_C 	C 	0.7272	0.9563	0.70086	0.555
Mof_C 	C 	0.7967	0.0928	0.79741	0.369
Mof_C 	C 	0.8143	0.126	0.81576	-0.046
Mof_C 	C 	0.8524	0.1809	0.83475	0.019
Mof_C 	C 	0.8217	0.1646	0.84873	0.02
Mof_C 	C 	0.862	0.221	0.86757	-0.09
Mof_C 	C 	0.6256	0.8791	0.3829	0.403
Mof_C 	C 	0.6252	0.0179	0.76978	0.465
Mof_H 	H 	0.6346	0.0143	0.7852	-0.104
Mof_C 	C 	0.5912	0.0179	0.77072	-0.487
Mof_H 	H 	0.5803	0.0176	0.7866	0.191
Mof_C 	C 	0.5062	0.9766	0.27311	-0.008
Mof_C 	C 	0.4776	0.9836	0.27294	-0.012
Mof_H 	H 	0.4675	0.9857	0.2886	0.025
Mof_Zn	Zn	0.08505	0.62313	0.41686	1.212
Mof_Zn	Zn	0.04488	0.65557	0.45038	1.212
Mof_Zn	Zn	0.12592	0.70774	0.4287	1.211
Mof_Zn	Zn	0.05751	0.67294	0.39177	1.218
Mof_Zn	Zn	0.97454	0.71073	0.78027	1.218
Mof_S 	S 	0.99418	0.54509	0.4997	-0.009
Mof_S 	S 	0.03283	0.51839	0.46942	-0.029
Mof_H 	H 	0.0475	0.5151	0.4572	0.051
Mof_H 	H 	0.9811	0.5626	0.5079	0.038
Mof_C 	C 	0.8403	0.69593	0.80948	-0.045
Mof_S 	S 	0.87489	0.6643	0.83932	-0.065
Mof_H 	H 	0.8918	0.6573	0.8453	0.066
Mof_H 	H 	0.8352	0.7088	0.7968	0.065
Mof_C 	C 	0.81323	0.63405	0.87325	-0.035
Mof_S 	S 	0.78008	0.66617	0.84303	-0.043
Mof_H 	H 	0.7642	0.6741	0.8365	0.058
Mof_H 	H 	0.8181	0.6213	0.8861	0.053
Mof_O 	O 	0.0784	0.66487	0.42206	-0.962
Mof_O 	O 	0.02749	0.60729	0.46525	-0.502
Mof_O 	O 	0.05763	0.58505	0.44213	-0.501
Mof_O 	O 	0.06694	0.60205	0.38328	-0.513
Mof_O 	O 	0.047	0.63684	0.36624	-0.541
Mof_O 	O 	0.01096	0.67069	0.39884	-0.533
Mof_O 	O 	0.00235	0.65875	0.43975	-0.533
Mof_O 	O 	0.06998	0.69213	0.47717	-0.523
Mof_O 	O 	0.12543	0.7263	0.46244	-0.534
Mof_O 	O 	0.16444	0.69491	0.42846	-0.53
Mof_O 	O 	0.13591	0.6364	0.41815	-0.53
Mof_O 	O 	0.13802	0.7462	0.40247	-0.495
Mof_O 	O 	0.08977	0.72005	0.37735	-0.513
Mof_O 	O 	0.90448	0.7231	0.77944	-0.474
Mof_O 	O 	0.93111	0.69634	0.80125	-0.499
Mof_O 	O 	0.05221	0.78995	0.71985	-0.537
Mof_O 	O 	0.01669	0.74015	0.69877	-0.559
Mof_O 	O 	0.9764	0.66786	0.77119	-0.563
Mof_C 	C 	0.0373	0.5843	0.46003	0.39
Mof_C 	C 	0.0237	0.5516	0.47421	-0.093
Mof_C 	C 	0.99103	0.50579	0.50818	0.007
Mof_C 	C 	0.1646	0.6659	0.42402	0.472
Mof_C 	C 	0.2002	0.6666	0.42504	-0.297
Mof_C 	C 	0.2016	0.6389	0.4164	0.223
Mof_H 	H 	0.1809	0.6192	0.4084	-0.031
Mof_C 	C 	0.2337	0.6382	0.4189	-0.269
Mof_H 	H 	0.2338	0.6161	0.4156	0.119
Mof_C 	C 	0.2647	0.6675	0.42584	0.196
Mof_C 	C 	0.263	0.6955	0.4347	-0.261
Mof_H 	H 	0.2841	0.7159	0.4418	0.116
Mof_C 	C 	0.2293	0.6951	0.4335	0.208
Mof_H 	H 	0.2279	0.7158	0.4391	-0.025
Mof_C 	C 	0.3009	0.6669	0.4269	-0.068
Mof_C 	C 	0.3333	0.6987	0.4279	-0.001
Mof_H 	H 	0.3334	0.7212	0.4293	0.023
Mof_C 	C 	0.0531	0.6119	0.36541	0.437
Mof_C 	C 	0.0434	0.5886	0.34201	-0.147
Mof_C 	C 	0.0244	0.5944	0.3237	0.058
Mof_H 	H 	0.0161	0.6112	0.3268	0.026
Mof_C 	C 	0.0168	0.5759	0.29996	-0.119
Mof_H 	H 	0.0038	0.5799	0.2867	0.07
Mof_C 	C 	0.0299	0.5512	0.2975	0.062
Mof_C 	C 	0.0495	0.5438	0.3165	-0.116
Mof_H 	H 	0.0572	0.5264	0.314	0.069
Mof_C 	C 	0.0568	0.5641	0.33944	0.051
Mof_H 	H 	0.0704	0.5612	0.3527	0.027
Mof_C 	C 	0.1022	0.7181	0.4797	0.475
Mof_C 	C 	0.1114	0.7393	0.50219	-0.234
Mof_C 	C 	0.0874	0.7369	0.5203	0.144
Mof_H 	H 	0.0619	0.7207	0.5179	-0.006
Mof_C 	C 	0.0997	0.7579	0.54231	-0.197
Mof_H 	H 	0.0818	0.7543	0.5547	0.095
Mof_C 	C 	0.1337	0.7822	0.54753	0.132
Mof_C 	C 	0.1577	0.7808	0.5298	-0.168
Mof_H 	H 	0.1832	0.7943	0.5338	0.085
Mof_C 	C 	0.1478	0.7612	0.50649	0.118
Mof_H 	H 	0.1658	0.7634	0.4945	0.003
Mof_C 	C 	0.1443	0.804	0.56953	-0.059
Mof_C 	C 	0.1235	0.7936	0.59154	0.02
Mof_H 	H 	0.1007	0.7715	0.5924	0.012
Mof_C 	C 	0.137	0.8162	0.61176	-0.117
Mof_C 	C 	0.1697	0.8499	0.6115	0.01
Mof_H 	H 	0.1776	0.8654	0.626	0.018
Mof_C 	C 	0.1907	0.8601	0.58885	-0.054
Mof_C 	C 	0.1786	0.8391	0.56752	-0.018
Mof_H 	H 	0.1918	0.8468	0.552	0.033
Mof_C 	C 	0.2257	0.8946	0.58724	0.146
Mof_C 	C 	0.2402	0.9102	0.5645	-0.185
Mof_H 	H 	0.2266	0.9002	0.5493	0.092
Mof_C 	C 	0.2764	0.942	0.5634	0.124
Mof_H 	H 	0.2885	0.9502	0.5475	0.004
Mof_C 	C 	0.2927	0.9598	0.58449	-0.225
Mof_C 	C 	0.2769	0.9454	0.60673	0.145
Mof_H 	H 	0.2883	0.9575	0.6222	-0.003
Mof_C 	C 	0.2433	0.9123	0.6073	-0.208
Mof_H 	H 	0.2329	0.9024	0.6234	0.099
Mof_C 	C 	0.99358	0.66528	0.41852	0.476
Mof_C 	C 	0.1139	0.8059	0.635	0.315
Mof_C 	C 	0.1187	0.8251	0.6551	-0.371
Mof_H 	H 	0.1389	0.8494	0.655	0.152
Mof_C 	C 	0.0971	0.8137	0.67741	0.334
Mof_H 	H 	0.1035	0.8301	0.6914	-0.056
Mof_C 	C 	0.07	0.7828	0.67894	-0.399
Mof_C 	C 	0.0668	0.7612	0.6601	0.311
Mof_H 	H 	0.0502	0.7356	0.6618	-0.055
Mof_C 	C 	0.0869	0.7742	0.6375	-0.372
Mof_H 	H 	0.0796	0.7581	0.6232	0.151
Mof_C 	C 	0.0437	0.7709	0.70086	0.555
Mof_C 	C 	0.9072	0.7039	0.79741	0.369
Mof_C 	C 	0.874	0.6883	0.81576	-0.046
Mof_C 	C 	0.8191	0.6715	0.83475	0.019
Mof_C 	C 	0.8354	0.6571	0.84873	0.02
Mof_C 	C 	0.779	0.641	0.86757	-0.09
Mof_C 	C 	0.1209	0.7465	0.3829	0.403
Mof_C 	C 	0.9821	0.6073	0.76978	0.465
Mof_H 	H 	0.9857	0.6203	0.7852	-0.104
Mof_C 	C 	0.9821	0.5733	0.77072	-0.487
Mof_H 	H 	0.9824	0.5627	0.7866	0.191
Mof_C 	C 	0.0234	0.5296	0.27311	-0.008
Mof_C 	C 	0.0164	0.494	0.27294	-0.012
Mof_H 	H 	0.0143	0.4818	0.2886	0.025
Mof_Zn	Zn	0.62313	0.53808	0.91686	1.212
Mof_Zn	Zn	0.65557	0.61069	0.95038	1.212
Mof_Zn	Zn	0.70774	0.58182	0.9287	1.211
Mof_Zn	Zn	0.67294	0.61543	0.89177	1.218
Mof_Zn	Zn	0.71073	0.73619	0.28027	1.218
Mof_S 	S 	0.54509	0.55091	0.9997	-0.009
Mof_S 	S 	0.51839	0.48556	0.96942	-0.029
Mof_H 	H 	0.5151	0.4676	0.9572	0.051
Mof_H 	H 	0.5626	0.5815	0.0079	0.038
Mof_C 	C 	0.69593	0.85563	0.30948	-0.045
Mof_S 	S 	0.6643	0.78941	0.33932	-0.065
Mof_H 	H 	0.6573	0.7655	0.3453	0.066
Mof_H 	H 	0.7088	0.8736	0.2968	0.065
Mof_C 	C 	0.63405	0.82082	0.37325	-0.035
Mof_S 	S 	0.66617	0.88609	0.34303	-0.043
Mof_H 	H 	0.6741	0.9099	0.3365	0.058
Mof_H 	H 	0.6213	0.8032	0.3861	0.053
Mof_O 	O 	0.66487	0.58647	0.92206	-0.962
Mof_O 	O 	0.60729	0.5798	0.96525	-0.502
Mof_O 	O 	0.58505	0.52742	0.94213	-0.501
Mof_O 	O 	0.60205	0.53511	0.88328	-0.513
Mof_O 	O 	0.63684	0.58984	0.86624	-0.541
Mof_O 	O 	0.67069	0.65973	0.89884	-0.533
Mof_O 	O 	0.65875	0.6564	0.93975	-0.533
Mof_O 	O 	0.69213	0.62215	0.97717	-0.523
Mof_O 	O 	0.7263	0.60087	0.96244	-0.534
Mof_O 	O 	0.69491	0.53047	0.92846	-0.53
Mof_O 	O 	0.6364	0.50049	0.91815	-0.53
Mof_O 	O 	0.7462	0.60818	0.90247	-0.495
Mof_O 	O 	0.72005	0.63028	0.87735	-0.513
Mof_O 	O 	0.7231	0.81862	0.27944	-0.474
Mof_O 	O 	0.69634	0.76523	0.30125	-0.499
Mof_O 	O 	0.78995	0.73774	0.21985	-0.537
Mof_O 	O 	0.74015	0.72346	0.19877	-0.559
Mof_O 	O 	0.66786	0.69146	0.27119	-0.563
Mof_C 	C 	0.5843	0.547	0.96003	0.39
Mof_C 	C 	0.5516	0.5279	0.97421	-0.093
Mof_C 	C 	0.50579	0.51476	0.00818	0.007
Mof_C 	C 	0.6659	0.5013	0.92402	0.472
Mof_C 	C 	0.6666	0.4664	0.92504	-0.297
Mof_C 	C 	0.6389	0.4373	0.9164	0.223
Mof_H 	H 	0.6192	0.4383	0.9084	-0.031
Mof_C 	C 	0.6382	0.4045	0.9189	-0.269
Mof_H 	H 	0.6161	0.3823	0.9156	0.119
Mof_C 	C 	0.6675	0.4028	0.92584	0.196
Mof_C 	C 	0.6955	0.4325	0.9347	-0.261
Mof_H 	H 	0.7159	0.4318	0.9418	0.116
Mof_C 	C 	0.6951	0.4658	0.9335	0.208
Mof_H 	H 	0.7158	0.4879	0.9391	-0.025
Mof_C 	C 	0.6669	0.366	0.9269	-0.068
Mof_C 	C 	0.6987	0.3654	0.9279	-0.001
Mof_H 	H 	0.7212	0.3878	0.9293	0.023
Mof_C 	C 	0.6119	0.5588	0.86541	0.437
Mof_C 	C 	0.5886	0.5452	0.84201	-0.147
Mof_C 	C 	0.5944	0.57	0.8237	0.058
Mof_H 	H 	0.6112	0.5951	0.8268	0.026
Mof_C 	C 	0.5759	0.5591	0.79996	-0.119
Mof_H 	H 	0.5799	0.5761	0.7867	0.07
Mof_C 	C 	0.5512	0.5213	0.7975	0.062
Mof_C 	C 	0.5438	0.4943	0.8165	-0.116
Mof_H 	H 	0.5264	0.4692	0.814	0.069
Mof_C 	C 	0.5641	0.5073	0.83944	0.051
Mof_H 	H 	0.5612	0.4908	0.8527	0.027
Mof_C 	C 	0.7181	0.6159	0.9797	0.475
Mof_C 	C 	0.7393	0.6279	0.00219	-0.234
Mof_C 	C 	0.7369	0.6495	0.0203	0.144
Mof_H 	H 	0.7207	0.6588	0.0179	-0.006
Mof_C 	C 	0.7579	0.6582	0.04231	-0.197
Mof_H 	H 	0.7543	0.6725	0.0547	0.095
Mof_C 	C 	0.7822	0.6485	0.04753	0.132
Mof_C 	C 	0.7808	0.6231	0.0298	-0.168
Mof_H 	H 	0.7943	0.6111	0.0338	0.085
Mof_C 	C 	0.7612	0.6134	0.00649	0.118
Mof_H 	H 	0.7634	0.5976	0.9945	0.003
Mof_C 	C 	0.804	0.6597	0.06953	-0.059
Mof_C 	C 	0.7936	0.6701	0.09154	0.02
Mof_H 	H 	0.7715	0.6708	0.0924	0.012
Mof_C 	C 	0.8162	0.6792	0.11176	-0.117
Mof_C 	C 	0.8499	0.6802	0.1115	0.01
Mof_H 	H 	0.8654	0.6878	0.126	0.018
Mof_C 	C 	0.8601	0.6694	0.08885	-0.054
Mof_C 	C 	0.8391	0.6605	0.06752	-0.018
Mof_H 	H 	0.8468	0.655	0.052	0.033
Mof_C 	C 	0.8946	0.6689	0.08724	0.146
Mof_C 	C 	0.9102	0.67	0.0645	-0.185
Mof_H 	H 	0.9002	0.6736	0.0493	0.092
Mof_C 	C 	0.942	0.6656	0.0634	0.124
Mof_H 	H 	0.9502	0.6617	0.0475	0.004
Mof_C 	C 	0.9598	0.6671	0.08449	-0.225
Mof_C 	C 	0.9454	0.6685	0.10673	0.145
Mof_H 	H 	0.9575	0.6692	0.1222	-0.003
Mof_C 	C 	0.9123	0.669	0.1073	-0.208
Mof_H 	H 	0.9024	0.6695	0.1234	0.099
Mof_C 	C 	0.66528	0.6717	0.91852	0.476
Mof_C 	C 	0.8059	0.692	0.135	0.315
Mof_C 	C 	0.8251	0.7064	0.1551	-0.371
Mof_H 	H 	0.8494	0.7105	0.155	0.152
Mof_C 	C 	0.8137	0.7166	0.17741	0.334
Mof_H 	H 	0.8301	0.7266	0.1914	-0.056
Mof_C 	C 	0.7828	0.7128	0.17894	-0.399
Mof_C 	C 	0.7612	0.6944	0.1601	0.311
Mof_H 	H 	0.7356	0.6854	0.1618	-0.055
Mof_C 	C 	0.7742	0.6873	0.1375	-0.372
Mof_H 	H 	0.7581	0.6785	0.1232	0.151
Mof_C 	C 	0.7709	0.7272	0.20086	0.555
Mof_C 	C 	0.7039	0.7967	0.29741	0.369
Mof_C 	C 	0.6883	0.8143	0.31576	-0.046
Mof_C 	C 	0.6715	0.8524	0.33475	0.019
Mof_C 	C 	0.6571	0.8217	0.34873	0.02
Mof_C 	C 	0.641	0.862	0.36757	-0.09
Mof_C 	C 	0.7465	0.6256	0.8829	0.403
Mof_C 	C 	0.6073	0.6252	0.26978	0.465
Mof_H 	H 	0.6203	0.6346	0.2852	-0.104
Mof_C 	C 	0.5733	0.5912	0.27072	-0.487
Mof_H 	H 	0.5627	0.5803	0.2866	0.191
Mof_C 	C 	0.5296	0.5062	0.77311	-0.008
Mof_C 	C 	0.494	0.4776	0.77294	-0.012
Mof_H 	H 	0.4818	0.4675	0.7886	0.025
Mof_Zn	Zn	0.46192	0.08505	0.91686	1.212
Mof_Zn	Zn	0.38931	0.04488	0.95038	1.212
Mof_Zn	Zn	0.41818	0.12592	0.9287	1.211
Mof_Zn	Zn	0.38457	0.05751	0.89177	1.218
Mof_Zn	Zn	0.26381	0.97454	0.28027	1.218
Mof_S 	S 	0.44909	0.99418	0.9997	-0.009
Mof_S 	S 	0.51444	0.03283	0.96942	-0.029
Mof_H 	H 	0.5324	0.0475	0.9572	0.051
Mof_H 	H 	0.4185	0.9811	0.0079	0.038
Mof_C 	C 	0.14437	0.8403	0.30948	-0.045
Mof_S 	S 	0.21059	0.87489	0.33932	-0.065
Mof_H 	H 	0.2345	0.8918	0.3453	0.066
Mof_H 	H 	0.1264	0.8352	0.2968	0.065
Mof_C 	C 	0.17918	0.81323	0.37325	-0.035
Mof_S 	S 	0.11391	0.78008	0.34303	-0.043
Mof_H 	H 	0.0901	0.7642	0.3365	0.058
Mof_H 	H 	0.1968	0.8181	0.3861	0.053
Mof_O 	O 	0.41353	0.0784	0.92206	-0.962
Mof_O 	O 	0.4202	0.02749	0.96525	-0.502
Mof_O 	O 	0.47258	0.05763	0.94213	-0.501
Mof_O 	O 	0.46489	0.06694	0.88328	-0.513
Mof_O 	O 	0.41016	0.047	0.86624	-0.541
Mof_O 	O 	0.34027	0.01096	0.89884	-0.533
Mof_O 	O 	0.3436	0.00235	0.93975	-0.533
Mof_O 	O 	0.37785	0.06998	0.97717	-0.523
Mof_O 	O 	0.39913	0.12543	0.96244	-0.534
Mof_O 	O 	0.46953	0.16444	0.92846	-0.53
Mof_O 	O 	0.49951	0.13591	0.91815	-0.53
Mof_O 	O 	0.39182	0.13802	0.90247	-0.495
Mof_O 	O 	0.36972	0.08977	0.87735	-0.513
Mof_O 	O 	0.18138	0.90448	0.27944	-0.474
Mof_O 	O 	0.23477	0.93111	0.30125	-0.499
Mof_O 	O 	0.26226	0.05221	0.21985	-0.537
Mof_O 	O 	0.27654	0.01669	0.19877	-0.559
Mof_O 	O 	0.30854	0.9764	0.27119	-0.563
Mof_C 	C 	0.453	0.0373	0.96003	0.39
Mof_C 	C 	0.4721	0.0237	0.97421	-0.093
Mof_C 	C 	0.48524	0.99103	0.00818	0.007
Mof_C 	C 	0.4987	0.1646	0.92402	0.472
Mof_C 	C 	0.5336	0.2002	0.92504	-0.297
Mof_C 	C 	0.5627	0.2016	0.9164	0.223
Mof_H 	H 	0.5617	0.1809	0.9084	-0.031
Mof_C 	C 	0.5955	0.2337	0.9189	-0.269
Mof_H 	H 	0.6177	0.2338	0.9156	0.119
Mof_C 	C 	0.5972	0.2647	0.92584	0.196
Mof_C 	C 	0.5675	0.263	0.9347	-0.261
Mof_H 	H 	0.5682	0.2841	0.9418	0.116
Mof_C 	C 	0.5342	0.2293	0.9335	0.208
Mof_H 	H 	0.5121	0.2279	0.9391	-0.025
Mof_C 	C 	0.634	0.3009	0.9269	-0.068
Mof_C 	C 	0.6346	0.3333	0.9279	-0.001
Mof_H 	H 	0.6122	0.3334	0.9293	0.023
Mof_C 	C 	0.4412	0.0531	0.86541	0.437
Mof_C 	C 	0.4548	0.0434	0.84201	-0.147
Mof_C 	C 	0.43	0.0244	0.8237	0.058
Mof_H 	H 	0.4049	0.0161	0.8268	0.026
Mof_C 	C 	0.4409	0.0168	0.79996	-0.119
Mof_H 	H 	0.4239	0.0038	0.7867	0.07
Mof_C 	C 	0.4787	0.0299	0.7975	0.062
Mof_C 	C 	0.5057	0.0495	0.8165	-0.116
Mof_H 	H 	0.5308	0.0572	0.814	0.069
Mof_C 	C 	0.4927	0.0568	0.83944	0.051
Mof_H 	H 	0.5092	0.0704	0.8527	0.027
Mof_C 	C 	0.3841	0.1022	0.9797	0.475
Mof_C 	C 	0.3721	0.1114	0.00219	-0.234
Mof_C 	C 	0.3505	0.0874	0.0203	0.144
Mof_H 	H 	0.3412	0.0619	0.0179	-0.006
Mof_C 	C 	0.3418	0.0997	0.04231	-0.197
Mof_H 	H 	0.3275	0.0818	0.0547	0.095
Mof_C 	C 	0.3515	0.1337	0.04753	0.132
Mof_C 	C 	0.3769	0.1577	0.0298	-0.168
Mof_H 	H 	0.3889	0.1832	0.0338	0.085
Mof_C 	C 	0.3866	0.1478	0.00649	0.118
Mof_H 	H 	0.4024	0.1658	0.9945	0.003
Mof_C 	C 	0.3403	0.1443	0.06953	-0.059
Mof_C 	C 	0.3299	0.1235	0.09154	0.02
Mof_H 	H 	0.3292	0.1007	0.0924	0.012
Mof_C 	C 	0.3208	0.137	0.11176	-0.117
Mof_C 	C 	0.3198	0.1697	0.1115	0.01
Mof_H 	H 	0.3122	0.1776	0.126	0.018
Mof_C 	C 	0.3306	0.1907	0.08885	-0.054
Mof_C 	C 	0.3395	0.1786	0.06752	-0.018
Mof_H 	H 	0.345	0.1918	0.052	0.033
Mof_C 	C 	0.3311	0.2257	0.08724	0.146
Mof_C 	C 	0.33	0.2402	0.0645	-0.185
Mof_H 	H 	0.3264	0.2266	0.0493	0.092
Mof_C 	C 	0.3344	0.2764	0.0634	0.124
Mof_H 	H 	0.3383	0.2885	0.0475	0.004
Mof_C 	C 	0.3329	0.2927	0.08449	-0.225
Mof_C 	C 	0.3315	0.2769	0.10673	0.145
Mof_H 	H 	0.3308	0.2883	0.1222	-0.003
Mof_C 	C 	0.331	0.2433	0.1073	-0.208
Mof_H 	H 	0.3305	0.2329	0.1234	0.099
Mof_C 	C 	0.3283	0.99358	0.91852	0.476
Mof_C 	C 	0.308	0.1139	0.135	0.315
Mof_C 	C 	0.2936	0.1187	0.1551	-0.371
Mof_H 	H 	0.2895	0.1389	0.155	0.152
Mof_C 	C 	0.2834	0.0971	0.17741	0.334
Mof_H 	H 	0.2734	0.1035	0.1914	-0.056
Mof_C 	C 	0.2872	0.07	0.17894	-0.399
Mof_C 	C 	0.3056	0.0668	0.1601	0.311
Mof_H 	H 	0.3146	0.0502	0.1618	-0.055
Mof_C 	C 	0.3127	0.0869	0.1375	-0.372
Mof_H 	H 	0.3215	0.0796	0.1232	0.151
Mof_C 	C 	0.2728	0.0437	0.20086	0.555
Mof_C 	C 	0.2033	0.9072	0.29741	0.369
Mof_C 	C 	0.1857	0.874	0.31576	-0.046
Mof_C 	C 	0.1476	0.8191	0.33475	0.019
Mof_C 	C 	0.1783	0.8354	0.34873	0.02
Mof_C 	C 	0.138	0.779	0.36757	-0.09
Mof_C 	C 	0.3744	0.1209	0.8829	0.403
Mof_C 	C 	0.3748	0.9821	0.26978	0.465
Mof_H 	H 	0.3654	0.9857	0.2852	-0.104
Mof_C 	C 	0.4088	0.9821	0.27072	-0.487
Mof_H 	H 	0.4197	0.9824	0.2866	0.191
Mof_C 	C 	0.4938	0.0234	0.77311	-0.008
Mof_C 	C 	0.5224	0.0164	0.77294	-0.012
Mof_H 	H 	0.5325	0.0143	0.7886	0.025
Mof_Zn	Zn	0.91495	0.37687	0.91686	1.212
Mof_Zn	Zn	0.95512	0.34443	0.95038	1.212
Mof_Zn	Zn	0.87408	0.29226	0.9287	1.211
Mof_Zn	Zn	0.94249	0.32706	0.89177	1.218
Mof_Zn	Zn	0.02546	0.28927	0.28027	1.218
Mof_S 	S 	0.00582	0.45491	0.9997	-0.009
Mof_S 	S 	0.96717	0.48161	0.96942	-0.029
Mof_H 	H 	0.9525	0.4849	0.9572	0.051
Mof_H 	H 	0.0189	0.4374	0.0079	0.038
Mof_C 	C 	0.1597	0.30407	0.30948	-0.045
Mof_S 	S 	0.12511	0.3357	0.33932	-0.065
Mof_H 	H 	0.1082	0.3427	0.3453	0.066
Mof_H 	H 	0.1648	0.2912	0.2968	0.065
Mof_C 	C 	0.18677	0.36595	0.37325	-0.035
Mof_S 	S 	0.21992	0.33383	0.34303	-0.043
Mof_H 	H 	0.2358	0.3259	0.3365	0.058
Mof_H 	H 	0.1819	0.3787	0.3861	0.053
Mof_O 	O 	0.9216	0.33513	0.92206	-0.962
Mof_O 	O 	0.97251	0.39271	0.96525	-0.502
Mof_O 	O 	0.94237	0.41495	0.94213	-0.501
Mof_O 	O 	0.93306	0.39795	0.88328	-0.513
Mof_O 	O 	0.953	0.36316	0.86624	-0.541
Mof_O 	O 	0.98904	0.32931	0.89884	-0.533
Mof_O 	O 	0.99765	0.34125	0.93975	-0.533
Mof_O 	O 	0.93002	0.30787	0.97717	-0.523
Mof_O 	O 	0.87457	0.2737	0.96244	-0.534
Mof_O 	O 	0.83556	0.30509	0.92846	-0.53
Mof_O 	O 	0.86409	0.3636	0.91815	-0.53
Mof_O 	O 	0.86198	0.2538	0.90247	-0.495
Mof_O 	O 	0.91023	0.27995	0.87735	-0.513
Mof_O 	O 	0.09552	0.2769	0.27944	-0.474
Mof_O 	O 	0.06889	0.30366	0.30125	-0.499
Mof_O 	O 	0.94779	0.21005	0.21985	-0.537
Mof_O 	O 	0.98331	0.25985	0.19877	-0.559
Mof_O 	O 	0.0236	0.33214	0.27119	-0.563
Mof_C 	C 	0.9627	0.4157	0.96003	0.39
Mof_C 	C 	0.9763	0.4484	0.97421	-0.093
Mof_C 	C 	0.00897	0.49421	0.00818	0.007
Mof_C 	C 	0.8354	0.3341	0.92402	0.472
Mof_C 	C 	0.7998	0.3334	0.92504	-0.297
Mof_C 	C 	0.7984	0.3611	0.9164	0.223
Mof_H 	H 	0.8191	0.3808	0.9084	-0.031
Mof_C 	C 	0.7663	0.3618	0.9189	-0.269
Mof_H 	H 	0.7662	0.3839	0.9156	0.119
Mof_C 	C 	0.7353	0.3325	0.92584	0.196
Mof_C 	C 	0.737	0.3045	0.9347	-0.261
Mof_H 	H 	0.7159	0.2841	0.9418	0.116
Mof_C 	C 	0.7707	0.3049	0.9335	0.208
Mof_H 	H 	0.7721	0.2842	0.9391	-0.025
Mof_C 	C 	0.6991	0.3331	0.9269	-0.068
Mof_C 	C 	0.6667	0.3013	0.9279	-0.001
Mof_H 	H 	0.6666	0.2788	0.9293	0.023
Mof_C 	C 	0.9469	0.3881	0.86541	0.437
Mof_C 	C 	0.9566	0.4114	0.84201	-0.147
Mof_C 	C 	0.9756	0.4056	0.8237	0.058
Mof_H 	H 	0.9839	0.3888	0.8268	0.026
Mof_C 	C 	0.9832	0.4241	0.79996	-0.119
Mof_H 	H 	0.9962	0.4201	0.7867	0.07
Mof_C 	C 	0.9701	0.4488	0.7975	0.062
Mof_C 	C 	0.9505	0.4562	0.8165	-0.116
Mof_H 	H 	0.9428	0.4736	0.814	0.069
Mof_C 	C 	0.9432	0.4359	0.83944	0.051
Mof_H 	H 	0.9296	0.4388	0.8527	0.027
Mof_C 	C 	0.8978	0.2819	0.9797	0.475
Mof_C 	C 	0.8886	0.2607	0.00219	-0.234
Mof_C 	C 	0.9126	0.2631	0.0203	0.144
Mof_H 	H 	0.9381	0.2793	0.0179	-0.006
Mof_C 	C 	0.9003	0.2421	0.04231	-0.197
Mof_H 	H 	0.9182	0.2457	0.0547	0.095
Mof_C 	C 	0.8663	0.2178	0.04753	0.132
Mof_C 	C 	0.8423	0.2192	0.0298	-0.168
Mof_H 	H 	0.8168	0.2057	0.0338	0.085
Mof_C 	C 	0.8522	0.2388	0.00649	0.118
Mof_H 	H 	0.8342	0.2366	0.9945	0.003
Mof_C 	C 	0.8557	0.196	0.06953	-0.059
Mof_C 	C 	0.8765	0.2064	0.09154	0.02
Mof_H 	H 	0.8993	0.2285	0.0924	0.012
Mof_C 	C 	0.863	0.1838	0.11176	-0.117
Mof_C 	C 	0.8303	0.1501	0.1115	0.01
Mof_H 	H 	0.8224	0.1346	0.126	0.018
Mof_C 	C 	0.8093	0.1399	0.08885	-0.054
Mof_C 	C 	0.8214	0.1609	0.06752	-0.018
Mof_H 	H 	0.8082	0.1532	0.052	0.033
Mof_C 	C 	0.7743	0.1054	0.08724	0.146
Mof_C 	C 	0.7598	0.0898	0.0645	-0.185
Mof_H 	H 	0.7734	0.0998	0.0493	0.092
Mof_C 	C 	0.7236	0.058	0.0634	0.124
Mof_H 	H 	0.7115	0.0498	0.0475	0.004
Mof_C 	C 	0.7073	0.0402	0.08449	-0.225
Mof_C 	C 	0.7231	0.0546	0.10673	0.145
Mof_H 	H 	0.7117	0.0425	0.1222	-0.003
Mof_C 	C 	0.7567	0.0877	0.1073	-0.208
Mof_H 	H 	0.7671	0.0976	0.1234	0.099
Mof_C 	C 	0.00642	0.33472	0.91852	0.476
Mof_C 	C 	0.8861	0.1941	0.135	0.315
Mof_C 	C 	0.8813	0.1749	0.1551	-0.371
Mof_H 	H 	0.8611	0.1506	0.155	0.152
Mof_C 	C 	0.9029	0.1863	0.17741	0.334
Mof_H 	H 	0.8965	0.1699	0.1914	-0.056
Mof_C 	C 	0.93	0.2172	0.17894	-0.399
Mof_C 	C 	0.9332	0.2388	0.1601	0.311
Mof_H 	H 	0.9498	0.2644	0.1618	-0.055
Mof_C 	C 	0.9131	0.2258	0.1375	-0.372
Mof_H 	H 	0.9204	0.2419	0.1232	0.151
Mof_C 	C 	0.9563	0.2291	0.20086	0.555
Mof_C 	C 	0.0928	0.2961	0.29741	0.369
Mof_C 	C 	0.126	0.3117	0.31576	-0.046
Mof_C 	C 	0.1809	0.3285	0.33475	0.019
Mof_C 	C 	0.1646	0.3429	0.34873	0.02
Mof_C 	C 	0.221	0.359	0.36757	-0.09
Mof_C 	C 	0.8791	0.2535	0.8829	0.403
Mof_C 	C 	0.0179	0.3927	0.26978	0.465
Mof_H 	H 	0.0143	0.3797	0.2852	-0.104
Mof_C 	C 	0.0179	0.4267	0.27072	-0.487
Mof_H 	H 	0.0176	0.4373	0.2866	0.191
Mof_C 	C 	0.9766	0.4704	0.77311	-0.008
Mof_C 	C 	0.9836	0.506	0.77294	-0.012
Mof_H 	H 	0.9857	0.5182	0.7886	0.025
Mof_Zn	Zn	0.74631	0.8105	0.25	1.232
Mof_Zn	Zn	0.78396	0.76052	0.25	1.237
Mof_O 	O 	0.73828	0.76108	0.25	-0.961
Mof_O 	O 	0.82353	0.811	0.25	-0.94
Mof_O 	O 	0.79839	0.84576	0.25	-1.092
Mof_C 	C 	0.6542	0.6773	0.25	0.6
Mof_C 	C 	0.6207	0.6431	0.25	-0.579
Mof_C 	C 	0.5577	0.5759	0.25	0.398
Mof_C 	C 	0.5241	0.5366	0.25	-0.111
Mof_C 	C 	0.8629	0.8747	0.25	-5.975
Mof_C 	C 	0.8633	0.903	0.25	5.951
Mof_H 	H 	0.8412	0.9039	0.25	-1.899
Mof_C 	C 	0.8989	0.9361	0.25	-5.308
Mof_H 	H 	0.9002	0.9593	0.25	1.794
Mof_C 	C 	0.9291	0.9347	0.25	5.604
Mof_C 	C 	0.9257	0.9037	0.25	-6.065
Mof_H 	H 	0.947	0.9014	0.25	2.059
Mof_C 	C 	0.8911	0.872	0.25	6.136
Mof_H 	H 	0.889	0.8485	0.25	-1.948
Mof_C 	C 	0.9658	0.9688	0.25	-3.764
Mof_C 	C 	0.9977	0.9655	0.25	3.404
Mof_H 	H 	0.9958	0.9421	0.25	-1.327
Mof_C 	C 	0.825	0.8423	0.25	2.489
Mof_Zn	Zn	0.1895	0.93581	0.25	1.232
Mof_Zn	Zn	0.23948	0.02344	0.25	1.237
Mof_O 	O 	0.23892	0.9772	0.25	-0.961
Mof_O 	O 	0.189	0.01253	0.25	-0.94
Mof_O 	O 	0.15424	0.95263	0.25	-1.092
Mof_C 	C 	0.3227	0.9769	0.25	0.6
Mof_C 	C 	0.3569	0.9776	0.25	-0.579
Mof_C 	C 	0.4241	0.9818	0.25	0.398
Mof_C 	C 	0.4634	0.9875	0.25	-0.11
Mof_C 	C 	0.1253	0.9882	0.25	-5.975
Mof_C 	C 	0.097	0.9603	0.25	5.951
Mof_H 	H 	0.0961	0.9373	0.25	-1.899
Mof_C 	C 	0.0639	0.9628	0.25	-5.307
Mof_H 	H 	0.0407	0.9409	0.25	1.794
Mof_C 	C 	0.0653	0.9944	0.25	5.604
Mof_C 	C 	0.0963	0.022	0.25	-6.065
Mof_H 	H 	0.0986	0.0456	0.25	2.059
Mof_C 	C 	0.128	0.0191	0.25	6.136
Mof_H 	H 	0.1515	0.0405	0.25	-1.948
Mof_C 	C 	0.0312	0.997	0.25	-3.764
Mof_C 	C 	0.0345	0.0322	0.25	3.404
Mof_H 	H 	0.0579	0.0537	0.25	-1.327
Mof_C 	C 	0.1577	0.9827	0.25	2.489
Mof_Zn	Zn	0.06419	0.25369	0.25	1.232
Mof_Zn	Zn	0.97656	0.21604	0.25	1.237
Mof_O 	O 	0.0228	0.26172	0.25	-0.961
Mof_O 	O 	0.98747	0.17647	0.25	-0.94
Mof_O 	O 	0.04737	0.20161	0.25	-1.092
Mof_C 	C 	0.0231	0.3458	0.25	0.6
Mof_C 	C 	0.0224	0.3793	0.25	-0.579
Mof_C 	C 	0.0182	0.4423	0.25	0.398
Mof_C 	C 	0.0125	0.4759	0.25	-0.11
Mof_C 	C 	0.0118	0.1371	0.25	-5.975
Mof_C 	C 	0.0397	0.1367	0.25	5.951
Mof_H 	H 	0.0627	0.1588	0.25	-1.899
Mof_C 	C 	0.0372	0.1011	0.25	-5.308
Mof_H 	H 	0.0591	0.0998	0.25	1.794
Mof_C 	C 	0.0056	0.0709	0.25	5.604
Mof_C 	C 	0.978	0.0743	0.25	-6.065
Mof_H 	H 	0.9544	0.053	0.25	2.059
Mof_C 	C 	0.9809	0.1089	0.25	6.136
Mof_H 	H 	0.9595	0.111	0.25	-1.948
Mof_C 	C 	0.003	0.0342	0.25	-3.764
Mof_C 	C 	0.9678	0.0023	0.25	3.404
Mof_H 	H 	0.9463	0.0042	0.25	-1.327
Mof_C 	C 	0.0173	0.175	0.25	2.489
Mof_Zn	Zn	0.25369	0.1895	0.75	1.232
Mof_Zn	Zn	0.21604	0.23948	0.75	1.237
Mof_O 	O 	0.26172	0.23892	0.75	-0.961
Mof_O 	O 	0.17647	0.189	0.75	-0.94
Mof_O 	O 	0.20161	0.15424	0.75	-1.092
Mof_C 	C 	0.3458	0.3227	0.75	0.6
Mof_C 	C 	0.3793	0.3569	0.75	-0.579
Mof_C 	C 	0.4423	0.4241	0.75	0.398
Mof_C 	C 	0.4759	0.4634	0.75	-0.111
Mof_C 	C 	0.1371	0.1253	0.75	-5.975
Mof_C 	C 	0.1367	0.097	0.75	5.951
Mof_H 	H 	0.1588	0.0961	0.75	-1.899
Mof_C 	C 	0.1011	0.0639	0.75	-5.308
Mof_H 	H 	0.0998	0.0407	0.75	1.794
Mof_C 	C 	0.0709	0.0653	0.75	5.604
Mof_C 	C 	0.0743	0.0963	0.75	-6.065
Mof_H 	H 	0.053	0.0986	0.75	2.059
Mof_C 	C 	0.1089	0.128	0.75	6.136
Mof_H 	H 	0.111	0.1515	0.75	-1.948
Mof_C 	C 	0.0342	0.0312	0.75	-3.764
Mof_C 	C 	0.0023	0.0345	0.75	3.404
Mof_H 	H 	0.0042	0.0579	0.75	-1.327
Mof_C 	C 	0.175	0.1577	0.75	2.489
Mof_Zn	Zn	0.8105	0.06419	0.75	1.232
Mof_Zn	Zn	0.76052	0.97656	0.75	1.237
Mof_O 	O 	0.76108	0.0228	0.75	-0.961
Mof_O 	O 	0.811	0.98747	0.75	-0.94
Mof_O 	O 	0.84576	0.04737	0.75	-1.092
Mof_C 	C 	0.6773	0.0231	0.75	0.6
Mof_C 	C 	0.6431	0.0224	0.75	-0.579
Mof_C 	C 	0.5759	0.0182	0.75	0.398
Mof_C 	C 	0.5366	0.0125	0.75	-0.11
Mof_C 	C 	0.8747	0.0118	0.75	-5.975
Mof_C 	C 	0.903	0.0397	0.75	5.951
Mof_H 	H 	0.9039	0.0627	0.75	-1.899
Mof_C 	C 	0.9361	0.0372	0.75	-5.307
Mof_H 	H 	0.9593	0.0591	0.75	1.794
Mof_C 	C 	0.9347	0.0056	0.75	5.604
Mof_C 	C 	0.9037	0.978	0.75	-6.065
Mof_H 	H 	0.9014	0.9544	0.75	2.059
Mof_C 	C 	0.872	0.9809	0.75	6.136
Mof_H 	H 	0.8485	0.9595	0.75	-1.948
Mof_C 	C 	0.9688	0.003	0.75	-3.764
Mof_C 	C 	0.9655	0.9678	0.75	3.404
Mof_H 	H 	0.9421	0.9463	0.75	-1.327
Mof_C 	C 	0.8423	0.0173	0.75	2.489
Mof_Zn	Zn	0.93581	0.74631	0.75	1.232
Mof_Zn	Zn	0.02344	0.78396	0.75	1.237
Mof_O 	O 	0.9772	0.73828	0.75	-0.961
Mof_O 	O 	0.01253	0.82353	0.75	-0.94
Mof_O 	O 	0.95263	0.79839	0.75	-1.092
Mof_C 	C 	0.9769	0.6542	0.75	0.6
Mof_C 	C 	0.9776	0.6207	0.75	-0.579
Mof_C 	C 	0.9818	0.5577	0.75	0.398
Mof_C 	C 	0.9875	0.5241	0.75	-0.11
Mof_C 	C 	0.9882	0.8629	0.75	-5.975
Mof_C 	C 	0.9603	0.8633	0.75	5.951
Mof_H 	H 	0.9373	0.8412	0.75	-1.899
Mof_C 	C 	0.9628	0.8989	0.75	-5.308
Mof_H 	H 	0.9409	0.9002	0.75	1.794
Mof_C 	C 	0.9944	0.9291	0.75	5.604
Mof_C 	C 	0.022	0.9257	0.75	-6.065
Mof_H 	H 	0.0456	0.947	0.75	2.059
Mof_C 	C 	0.0191	0.8911	0.75	6.136
Mof_H 	H 	0.0405	0.889	0.75	-1.948
Mof_C 	C 	0.997	0.9658	0.75	-3.764
Mof_C 	C 	0.0322	0.9977	0.75	3.404
Mof_H 	H 	0.0537	0.9958	0.75	-1.327
Mof_C 	C 	0.9827	0.825	0.75	2.489
Mof_C 	C 	0.5467	0.5227	0.75	-0.058
Mof_H 	H 	0.5696	0.5448	0.75	0.05
Mof_C 	C 	0.4773	0.024	0.75	-0.058
Mof_H 	H 	0.4552	0.0248	0.75	0.05
Mof_C 	C 	0.976	0.4533	0.75	-0.058
Mof_H 	H 	0.9752	0.4304	0.75	0.05
Mof_C 	C 	0.4533	0.4773	0.25	-0.058
Mof_H 	H 	0.4304	0.4552	0.25	0.05
Mof_C 	C 	0.5227	0.976	0.25	-0.058
Mof_H 	H 	0.5448	0.9752	0.25	0.05
Mof_C 	C 	0.024	0.5467	0.25	-0.058
Mof_H 	H 	0.0248	0.5696	0.25	0.05
_end
