data_functionalizedCrystal
_audit_creation_method	'EQeq! by Chris Wilmer'
_symmetry_space_group_name_H-M	'P1'
_symmetry_Int_Tables_number	1
_symmetry_cell_setting	triclinic
loop_
_symmetry_equiv_pos_as_xyz
  x,y,z
_cell_length_a	11.7636
_cell_length_b	16.3609
_cell_length_c	11.589
_cell_angle_alpha	90
_cell_angle_beta	113.314
_cell_angle_gamma	90
loop_
_atom_site_label
_atom_site_type_symbol
_atom_site_fract_x
_atom_site_fract_y
_atom_site_fract_z
_atom_site_charge
Mof_Eu	Eu	0.19022	0.53446	0.57594	2.469
Mof_S 	S 	0.03995	0.78435	0.69768	0.107
Mof_O 	O 	0.0414	0.63797	0.5524	-0.579
Mof_C 	C 	0.6763	0.1726	0.7959	0.323
Mof_C 	C 	0.9455	0.8542	0.7274	-0.131
Mof_C 	C 	0.8229	0.8315	0.6732	-0.006
Mof_H 	H 	0.7586	0.8611	0.6805	0.049
Mof_C 	C 	0.8069	0.7579	0.6053	0.025
Mof_H 	H 	0.7301	0.7337	0.5622	0.036
Mof_C 	C 	0.916	0.7256	0.6092	-0.161
Mof_S 	S 	0.52016	0.30129	0.78743	0.074
Mof_O 	O 	0.9315	0.97599	0.8291	-0.596
Mof_O 	O 	0.1186	0.92921	0.8567	-0.514
Mof_O 	O 	0.3505	0.4472	0.7317	-0.434
Mof_O 	O 	0.8477	0.5987	0.5139	-0.573
Mof_O 	O 	0.6886	0.1592	0.9065	-0.452
Mof_O 	O 	0.718	0.12291	0.7371	-0.434
Mof_O 	O 	0.3841	0.4908	0.5682	-0.446
Mof_C 	C 	0.0025	0.9246	0.8098	0.458
Mof_C 	C 	0.9351	0.6482	0.5536	0.529
Mof_C 	C 	0.6137	0.2474	0.7321	-0.08
Mof_C 	C 	0.6221	0.2849	0.6303	-0.01
Mof_H 	H 	0.6677	0.2642	0.5872	0.061
Mof_C 	C 	0.4047	0.4414	0.6578	0.315
Mof_C 	C 	0.4926	0.374	0.6721	-0.071
Mof_C 	C 	0.5549	0.358	0.598	-0.011
Mof_H 	H 	0.5531	0.3918	0.5328	0.065
Mof_Eu	Eu	0.80978	0.03446	0.92406	2.434
Mof_S 	S 	0.96005	0.28435	0.80232	0.104
Mof_O 	O 	0.9586	0.13797	0.9476	-0.581
Mof_C 	C 	0.3237	0.6726	0.7041	0.324
Mof_C 	C 	0.0545	0.3542	0.7726	-0.134
Mof_C 	C 	0.1771	0.3315	0.8268	-0.004
Mof_H 	H 	0.2414	0.3611	0.8195	0.048
Mof_C 	C 	0.1931	0.2579	0.8947	0.023
Mof_H 	H 	0.2699	0.2337	0.9378	0.036
Mof_C 	C 	0.084	0.2256	0.8908	-0.16
Mof_S 	S 	0.47984	0.80129	0.71257	0.075
Mof_O 	O 	0.0685	0.47599	0.6709	-0.609
Mof_O 	O 	0.8814	0.42921	0.6433	-0.522
Mof_O 	O 	0.6495	0.9472	0.7683	-0.428
Mof_O 	O 	0.1523	0.0987	0.9861	-0.571
Mof_O 	O 	0.3114	0.6592	0.5935	-0.451
Mof_O 	O 	0.282	0.62291	0.7629	-0.435
Mof_O 	O 	0.6159	0.9908	0.9318	-0.438
Mof_C 	C 	0.9975	0.4246	0.6902	0.466
Mof_C 	C 	0.0649	0.1482	0.9464	0.533
Mof_C 	C 	0.3863	0.7474	0.7679	-0.079
Mof_C 	C 	0.3779	0.7849	0.8697	-0.01
Mof_H 	H 	0.3323	0.7642	0.9128	0.063
Mof_C 	C 	0.5953	0.9414	0.8422	0.315
Mof_C 	C 	0.5074	0.874	0.8279	-0.071
Mof_C 	C 	0.4451	0.858	0.902	-0.01
Mof_H 	H 	0.4469	0.8918	0.9672	0.067
Mof_Eu	Eu	0.80978	0.46554	0.42406	2.47
Mof_S 	S 	0.96005	0.21565	0.30232	0.108
Mof_O 	O 	0.9586	0.36203	0.4476	-0.578
Mof_C 	C 	0.3237	0.8274	0.2041	0.324
Mof_C 	C 	0.0545	0.1458	0.2726	-0.131
Mof_C 	C 	0.1771	0.1685	0.3268	-0.006
Mof_H 	H 	0.2414	0.1389	0.3195	0.049
Mof_C 	C 	0.1931	0.2421	0.3947	0.025
Mof_H 	H 	0.2699	0.2663	0.4378	0.036
Mof_C 	C 	0.084	0.2744	0.3908	-0.161
Mof_S 	S 	0.47984	0.69871	0.21257	0.074
Mof_O 	O 	0.0685	0.02401	0.1709	-0.596
Mof_O 	O 	0.8814	0.07079	0.1433	-0.514
Mof_O 	O 	0.6495	0.5528	0.2683	-0.434
Mof_O 	O 	0.1523	0.4013	0.4861	-0.573
Mof_O 	O 	0.3114	0.8408	0.0935	-0.452
Mof_O 	O 	0.282	0.87709	0.2629	-0.434
Mof_O 	O 	0.6159	0.5092	0.4318	-0.446
Mof_C 	C 	0.9975	0.0754	0.1902	0.458
Mof_C 	C 	0.0649	0.3518	0.4464	0.529
Mof_C 	C 	0.3863	0.7526	0.2679	-0.08
Mof_C 	C 	0.3779	0.7151	0.3697	-0.01
Mof_H 	H 	0.3323	0.7358	0.4128	0.061
Mof_C 	C 	0.5953	0.5586	0.3422	0.315
Mof_C 	C 	0.5074	0.626	0.3279	-0.071
Mof_C 	C 	0.4451	0.642	0.402	-0.011
Mof_H 	H 	0.4469	0.6082	0.4672	0.065
Mof_Eu	Eu	0.19022	0.96554	0.07594	2.434
Mof_S 	S 	0.03995	0.71565	0.19768	0.104
Mof_O 	O 	0.0414	0.86203	0.0524	-0.581
Mof_C 	C 	0.6763	0.3274	0.2959	0.324
Mof_C 	C 	0.9455	0.6458	0.2274	-0.134
Mof_C 	C 	0.8229	0.6685	0.1732	-0.004
Mof_H 	H 	0.7586	0.6389	0.1805	0.048
Mof_C 	C 	0.8069	0.7421	0.1053	0.023
Mof_H 	H 	0.7301	0.7663	0.0622	0.036
Mof_C 	C 	0.916	0.7744	0.1092	-0.16
Mof_S 	S 	0.52016	0.19871	0.28743	0.075
Mof_O 	O 	0.9315	0.52401	0.3291	-0.609
Mof_O 	O 	0.1186	0.57079	0.3567	-0.522
Mof_O 	O 	0.3505	0.0528	0.2317	-0.428
Mof_O 	O 	0.8477	0.9013	0.0139	-0.571
Mof_O 	O 	0.6886	0.3408	0.4065	-0.451
Mof_O 	O 	0.718	0.37709	0.2371	-0.435
Mof_O 	O 	0.3841	0.0092	0.0682	-0.438
Mof_C 	C 	0.0025	0.5754	0.3098	0.466
Mof_C 	C 	0.9351	0.8518	0.0536	0.533
Mof_C 	C 	0.6137	0.2526	0.2321	-0.079
Mof_C 	C 	0.6221	0.2151	0.1303	-0.01
Mof_H 	H 	0.6677	0.2358	0.0872	0.063
Mof_C 	C 	0.4047	0.0586	0.1578	0.315
Mof_C 	C 	0.4926	0.126	0.1721	-0.071
Mof_C 	C 	0.5549	0.142	0.098	-0.01
Mof_H 	H 	0.5531	0.1082	0.0328	0.067
_end
