data_functionalizedCrystal
_audit_creation_method	'EQeq! by Chris Wilmer'
_symmetry_space_group_name_H-M	'P1'
_symmetry_Int_Tables_number	1
_symmetry_cell_setting	triclinic
loop_
_symmetry_equiv_pos_as_xyz
  x,y,z
_cell_length_a	7.7664
_cell_length_b	8.261
_cell_length_c	17.3239
_cell_angle_alpha	90
_cell_angle_beta	90
_cell_angle_gamma	108.056
loop_
_atom_site_label
_atom_site_type_symbol
_atom_site_fract_x
_atom_site_fract_y
_atom_site_fract_z
_atom_site_charge
Mof_Er	Er	0.74966	0.77484	0.97763	1.867
Mof_Er	Er	0.75034	0.22516	0.47763	1.872
Mof_Er	Er	0.25034	0.22516	0.02237	1.868
Mof_Er	Er	0.24966	0.77484	0.52237	1.873
Mof_H 	H 	0.1636	0.8708	0.2874	0.03
Mof_H 	H 	0.3364	0.1292	0.7874	0.029
Mof_H 	H 	0.8364	0.1292	0.7126	0.03
Mof_H 	H 	0.6636	0.8708	0.2126	0.029
Mof_C 	C 	0.982	0.56	0.3715	0.502
Mof_C 	C 	0.987	0.623	0.2914	-0.084
Mof_C 	C 	0.085	0.78	0.2607	0.051
Mof_C 	C 	0.045	0.774	0.1832	-0.086
Mof_C 	C 	0.091	0.898	0.1192	0.417
Mof_C 	C 	0.572	0.062	0.026	0.271
Mof_C 	C 	0.518	0.44	0.8715	0.501
Mof_C 	C 	0.513	0.377	0.7914	-0.089
Mof_C 	C 	0.415	0.22	0.7607	0.057
Mof_C 	C 	0.455	0.226	0.6832	-0.086
Mof_C 	C 	0.409	0.102	0.6192	0.431
Mof_C 	C 	0.928	0.938	0.526	0.272
Mof_C 	C 	0.018	0.44	0.6285	0.502
Mof_C 	C 	0.013	0.377	0.7086	-0.084
Mof_C 	C 	0.915	0.22	0.7393	0.051
Mof_C 	C 	0.955	0.226	0.8168	-0.086
Mof_C 	C 	0.909	0.102	0.8808	0.417
Mof_C 	C 	0.428	0.938	0.974	0.271
Mof_C 	C 	0.482	0.56	0.1285	0.501
Mof_C 	C 	0.487	0.623	0.2086	-0.089
Mof_C 	C 	0.585	0.78	0.2393	0.057
Mof_C 	C 	0.545	0.774	0.3168	-0.086
Mof_C 	C 	0.591	0.898	0.3808	0.431
Mof_C 	C 	0.072	0.062	0.474	0.272
Mof_N 	N 	0.921	0.615	0.1687	-0.076
Mof_N 	N 	0.892	0.5278	0.2346	-0.049
Mof_N 	N 	0.579	0.385	0.6687	-0.078
Mof_N 	N 	0.608	0.4722	0.7346	-0.049
Mof_N 	N 	0.079	0.385	0.8313	-0.076
Mof_N 	N 	0.108	0.4722	0.7654	-0.049
Mof_N 	N 	0.421	0.615	0.3313	-0.078
Mof_N 	N 	0.392	0.5278	0.2654	-0.049
Mof_O 	O 	0.0725	0.6536	0.4212	-0.551
Mof_O 	O 	0.8745	0.4077	0.3814	-0.519
Mof_O 	O 	0.2286	0.0259	0.1248	-0.446
Mof_O 	O 	0.9896	0.8676	0.0606	-0.539
Mof_O 	O 	0.7061	0.0139	0.0424	-0.406
Mof_O 	O 	0.4524	0.8014	0.9545	-0.384
Mof_O 	O 	0.4275	0.3464	0.9212	-0.548
Mof_O 	O 	0.6255	0.5923	0.8814	-0.518
Mof_O 	O 	0.2714	0.9741	0.6248	-0.451
Mof_O 	O 	0.5104	0.1324	0.5606	-0.55
Mof_O 	O 	0.7939	0.9861	0.5424	-0.407
Mof_O 	O 	0.0476	0.1986	0.4545	-0.385
Mof_O 	O 	0.9275	0.3464	0.5788	-0.551
Mof_O 	O 	0.1255	0.5923	0.6186	-0.519
Mof_O 	O 	0.7714	0.9741	0.8752	-0.446
Mof_O 	O 	0.0104	0.1324	0.9394	-0.539
Mof_O 	O 	0.2939	0.9861	0.9576	-0.406
Mof_O 	O 	0.5476	0.1986	0.0455	-0.384
Mof_O 	O 	0.5725	0.6536	0.0788	-0.548
Mof_O 	O 	0.3745	0.4077	0.1186	-0.518
Mof_O 	O 	0.7286	0.0259	0.3752	-0.451
Mof_O 	O 	0.4896	0.8676	0.4394	-0.55
Mof_O 	O 	0.2061	0.0139	0.4576	-0.407
Mof_O 	O 	0.9524	0.8014	0.5455	-0.385
_end
