data_functionalizedCrystal
_audit_creation_method	'EQeq! by Chris Wilmer'
_symmetry_space_group_name_H-M	'P1'
_symmetry_Int_Tables_number	1
_symmetry_cell_setting	triclinic
loop_
_symmetry_equiv_pos_as_xyz
  x,y,z
_cell_length_a	11.403
_cell_length_b	14.682
_cell_length_c	22.264
_cell_angle_alpha	90
_cell_angle_beta	91
_cell_angle_gamma	90
loop_
_atom_site_label
_atom_site_type_symbol
_atom_site_fract_x
_atom_site_fract_y
_atom_site_fract_z
_atom_site_charge
Mof_Cu	Cu	0.3893	0.76883	0.69824	0.852
Mof_N 	N 	0.5067	0.7944	0.6364	-0.231
Mof_N 	N 	0.4996	0.6764	0.7353	-0.229
Mof_N 	N 	0.2365	0.2457	0.7444	-0.243
Mof_N 	N 	0.2829	0.8653	0.6599	-0.227
Mof_N 	N 	0.1453	0.9403	0.6129	-0.131
Mof_N 	N 	0.5655	0.8416	0.5483	-0.122
Mof_N 	N 	0.6139	0.5592	0.7388	-0.124
Mof_N 	N 	0.3803	0.278	0.6818	-0.119
Mof_C 	C 	0.598	0.585	0.7951	0.009
Mof_H 	H 	0.6324	0.5579	0.8287	0.022
Mof_C 	C 	0.524	0.6602	0.7964	-0.016
Mof_H 	H 	0.4962	0.6917	0.8296	0.017
Mof_C 	C 	0.6567	0.8535	0.5883	-0.007
Mof_H 	H 	0.7298	0.8778	0.5797	0.027
Mof_C 	C 	0.477	0.814	0.5769	0.079
Mof_H 	H 	0.4022	0.8072	0.5602	-0.014
Mof_C 	C 	0.2873	0.3075	0.7109	0.095
Mof_H 	H 	0.2602	0.3671	0.7079	-0.024
Mof_C 	C 	0.68	0.4796	0.7167	-0.041
Mof_H 	H 	0.7131	0.4938	0.6779	0.036
Mof_H 	H 	0.7444	0.4661	0.7444	0.034
Mof_C 	C 	0.5051	0.4127	0.6621	-0.089
Mof_H 	H 	0.5405	0.4454	0.6291	0.046
Mof_H 	H 	0.4446	0.4513	0.6785	0.054
Mof_C 	C 	0.45	0.328	0.6381	-0.049
Mof_H 	H 	0.5106	0.2878	0.6236	0.041
Mof_H 	H 	0.3992	0.3435	0.6041	0.038
Mof_C 	C 	0.545	0.978	0.4836	-0.098
Mof_H 	H 	0.5323	0.9935	0.4416	0.058
Mof_H 	H 	0.6188	0.0052	0.496	0.058
Mof_C 	C 	0.38	0.1846	0.6958	-0.028
Mof_H 	H 	0.4304	0.1412	0.6804	0.033
Mof_C 	C 	0.5557	0.6174	0.7032	0.089
Mof_H 	H 	0.5553	0.6159	0.6615	-0.02
Mof_C 	C 	0.296	0.1681	0.7343	0.017
Mof_H 	H 	0.2797	0.1119	0.7516	0.001
Mof_C 	C 	0.04	0.959	0.5807	-0.026
Mof_H 	H 	0.9884	0.9067	0.5836	0.033
Mof_H 	H 	0.0011	0.0102	0.5994	0.035
Mof_C 	C 	0.059	0.981	0.5133	-0.112
Mof_H 	H 	0.1208	0.0262	0.5094	0.058
Mof_H 	H 	0.0822	0.9265	0.4919	0.058
Mof_C 	C 	0.188	0.8571	0.6292	0.101
Mof_H 	H 	0.1523	0.8019	0.6193	-0.024
Mof_C 	C 	0.221	0.9991	0.6317	0.023
Mof_H 	H 	0.215	0.0615	0.6253	0.019
Mof_C 	C 	0.599	0.3951	0.7107	-0.111
Mof_H 	H 	0.5616	0.3832	0.7488	0.067
Mof_H 	H 	0.6448	0.342	0.7002	0.056
Mof_C 	C 	0.623	0.825	0.6405	-0.004
Mof_H 	H 	0.6693	0.8242	0.6753	0.014
Mof_C 	C 	0.558	0.879	0.4873	-0.045
Mof_H 	H 	0.6288	0.862	0.4663	0.04
Mof_H 	H 	0.4924	0.8508	0.4664	0.039
Mof_C 	C 	0.3131	0.9581	0.6624	-0.028
Mof_H 	H 	0.3787	0.9852	0.6803	0.015
Mof_Cu	Cu	0.1107	0.26883	0.80176	0.852
Mof_N 	N 	0.9933	0.2944	0.8636	-0.23
Mof_N 	N 	0.0004	0.1764	0.7647	-0.232
Mof_N 	N 	0.2635	0.7457	0.7556	-0.243
Mof_N 	N 	0.2171	0.3653	0.8401	-0.227
Mof_N 	N 	0.3547	0.4403	0.8871	-0.129
Mof_N 	N 	0.9345	0.3416	0.9517	-0.12
Mof_N 	N 	0.8861	0.0592	0.7612	-0.123
Mof_N 	N 	0.1197	0.778	0.8182	-0.12
Mof_C 	C 	0.902	0.085	0.7049	0.007
Mof_H 	H 	0.8676	0.0579	0.6713	0.023
Mof_C 	C 	0.976	0.1602	0.7036	-0.011
Mof_H 	H 	0.0038	0.1917	0.6704	0.014
Mof_C 	C 	0.8433	0.3535	0.9117	-0.007
Mof_H 	H 	0.7702	0.3778	0.9203	0.027
Mof_C 	C 	0.023	0.314	0.9231	0.075
Mof_H 	H 	0.0978	0.3072	0.9398	-0.014
Mof_C 	C 	0.2127	0.8075	0.7891	0.095
Mof_H 	H 	0.2398	0.8671	0.7921	-0.024
Mof_C 	C 	0.82	0.9796	0.7833	-0.045
Mof_H 	H 	0.7869	0.9938	0.8221	0.037
Mof_H 	H 	0.7556	0.9661	0.7556	0.034
Mof_C 	C 	0.9949	0.9127	0.8379	-0.095
Mof_H 	H 	0.9595	0.9454	0.8709	0.048
Mof_H 	H 	0.0554	0.9513	0.8215	0.056
Mof_C 	C 	0.05	0.828	0.8619	-0.045
Mof_H 	H 	0.9894	0.7878	0.8764	0.04
Mof_H 	H 	0.1008	0.8435	0.8959	0.036
Mof_C 	C 	0.955	0.478	0.0164	-0.097
Mof_H 	H 	0.9677	0.4935	0.0584	0.057
Mof_H 	H 	0.8812	0.5052	0.004	0.058
Mof_C 	C 	0.12	0.6846	0.8042	-0.027
Mof_H 	H 	0.0696	0.6412	0.8196	0.033
Mof_C 	C 	0.9443	0.1174	0.7968	0.091
Mof_H 	H 	0.9447	0.1159	0.8385	-0.02
Mof_C 	C 	0.204	0.6681	0.7657	0.017
Mof_H 	H 	0.2203	0.6119	0.7484	0.001
Mof_C 	C 	0.46	0.459	0.9193	-0.033
Mof_H 	H 	0.5116	0.4067	0.9164	0.036
Mof_H 	H 	0.4989	0.5102	0.9006	0.038
Mof_C 	C 	0.441	0.481	0.9867	-0.113
Mof_H 	H 	0.3792	0.5262	0.9906	0.06
Mof_H 	H 	0.4178	0.4265	0.0081	0.058
Mof_C 	C 	0.312	0.3571	0.8708	0.1
Mof_H 	H 	0.3477	0.3019	0.8807	-0.024
Mof_C 	C 	0.279	0.4991	0.8683	0.019
Mof_H 	H 	0.285	0.5615	0.8747	0.021
Mof_C 	C 	0.901	0.8951	0.7893	-0.107
Mof_H 	H 	0.9384	0.8832	0.7512	0.065
Mof_H 	H 	0.8552	0.842	0.7998	0.055
Mof_C 	C 	0.877	0.325	0.8595	-0.004
Mof_H 	H 	0.8307	0.3242	0.8247	0.014
Mof_C 	C 	0.942	0.379	0.0127	-0.047
Mof_H 	H 	0.8712	0.362	0.0337	0.04
Mof_H 	H 	0.0076	0.3508	0.0336	0.04
Mof_C 	C 	0.1869	0.4581	0.8376	-0.027
Mof_H 	H 	0.1213	0.4852	0.8197	0.015
Mof_Cu	Cu	0.6107	0.23117	0.30176	0.852
Mof_N 	N 	0.4933	0.2056	0.3636	-0.231
Mof_N 	N 	0.5004	0.3236	0.2647	-0.229
Mof_N 	N 	0.7635	0.7543	0.2556	-0.243
Mof_N 	N 	0.7171	0.1347	0.3401	-0.227
Mof_N 	N 	0.8547	0.0597	0.3871	-0.131
Mof_N 	N 	0.4345	0.1584	0.4517	-0.122
Mof_N 	N 	0.3861	0.4408	0.2612	-0.124
Mof_N 	N 	0.6197	0.722	0.3182	-0.119
Mof_C 	C 	0.402	0.415	0.2049	0.009
Mof_H 	H 	0.3676	0.4421	0.1713	0.022
Mof_C 	C 	0.476	0.3398	0.2036	-0.016
Mof_H 	H 	0.5038	0.3083	0.1704	0.017
Mof_C 	C 	0.3433	0.1465	0.4117	-0.007
Mof_H 	H 	0.2702	0.1222	0.4203	0.027
Mof_C 	C 	0.523	0.186	0.4231	0.079
Mof_H 	H 	0.5978	0.1928	0.4398	-0.014
Mof_C 	C 	0.7127	0.6925	0.2891	0.095
Mof_H 	H 	0.7398	0.6329	0.2921	-0.024
Mof_C 	C 	0.32	0.5204	0.2833	-0.041
Mof_H 	H 	0.2869	0.5062	0.3221	0.036
Mof_H 	H 	0.2556	0.5339	0.2556	0.034
Mof_C 	C 	0.4949	0.5873	0.3379	-0.089
Mof_H 	H 	0.4595	0.5546	0.3709	0.046
Mof_H 	H 	0.5554	0.5487	0.3215	0.054
Mof_C 	C 	0.55	0.672	0.3619	-0.049
Mof_H 	H 	0.4894	0.7122	0.3764	0.041
Mof_H 	H 	0.6008	0.6565	0.3959	0.038
Mof_C 	C 	0.455	0.022	0.5164	-0.098
Mof_H 	H 	0.4677	0.0065	0.5584	0.058
Mof_H 	H 	0.3812	0.9948	0.504	0.058
Mof_C 	C 	0.62	0.8154	0.3042	-0.028
Mof_H 	H 	0.5696	0.8588	0.3196	0.033
Mof_C 	C 	0.4443	0.3826	0.2968	0.089
Mof_H 	H 	0.4447	0.3841	0.3385	-0.02
Mof_C 	C 	0.704	0.8319	0.2657	0.017
Mof_H 	H 	0.7203	0.8881	0.2484	0.001
Mof_C 	C 	0.96	0.041	0.4193	-0.026
Mof_H 	H 	0.0116	0.0933	0.4164	0.033
Mof_H 	H 	0.9989	0.9898	0.4006	0.035
Mof_C 	C 	0.941	0.019	0.4867	-0.112
Mof_H 	H 	0.8792	0.9738	0.4906	0.058
Mof_H 	H 	0.9178	0.0735	0.5081	0.058
Mof_C 	C 	0.812	0.1429	0.3708	0.101
Mof_H 	H 	0.8477	0.1981	0.3807	-0.024
Mof_C 	C 	0.779	0.0009	0.3683	0.023
Mof_H 	H 	0.785	0.9385	0.3747	0.019
Mof_C 	C 	0.401	0.6049	0.2893	-0.111
Mof_H 	H 	0.4384	0.6168	0.2512	0.067
Mof_H 	H 	0.3552	0.658	0.2998	0.056
Mof_C 	C 	0.377	0.175	0.3595	-0.004
Mof_H 	H 	0.3307	0.1758	0.3247	0.014
Mof_C 	C 	0.442	0.121	0.5127	-0.045
Mof_H 	H 	0.3712	0.138	0.5337	0.04
Mof_H 	H 	0.5076	0.1492	0.5336	0.039
Mof_C 	C 	0.6869	0.0419	0.3376	-0.028
Mof_H 	H 	0.6213	0.0148	0.3197	0.015
Mof_Cu	Cu	0.8893	0.73117	0.19824	0.852
Mof_N 	N 	0.0067	0.7056	0.1364	-0.23
Mof_N 	N 	0.9996	0.8236	0.2353	-0.232
Mof_N 	N 	0.7365	0.2543	0.2444	-0.243
Mof_N 	N 	0.7829	0.6347	0.1599	-0.227
Mof_N 	N 	0.6453	0.5597	0.1129	-0.129
Mof_N 	N 	0.0655	0.6584	0.0483	-0.12
Mof_N 	N 	0.1139	0.9408	0.2388	-0.123
Mof_N 	N 	0.8803	0.222	0.1818	-0.12
Mof_C 	C 	0.098	0.915	0.2951	0.007
Mof_H 	H 	0.1324	0.9421	0.3287	0.023
Mof_C 	C 	0.024	0.8398	0.2964	-0.011
Mof_H 	H 	0.9962	0.8083	0.3296	0.014
Mof_C 	C 	0.1567	0.6465	0.0883	-0.007
Mof_H 	H 	0.2298	0.6222	0.0797	0.027
Mof_C 	C 	0.977	0.686	0.0769	0.075
Mof_H 	H 	0.9022	0.6928	0.0602	-0.014
Mof_C 	C 	0.7873	0.1925	0.2109	0.095
Mof_H 	H 	0.7602	0.1329	0.2079	-0.024
Mof_C 	C 	0.18	0.0204	0.2167	-0.045
Mof_H 	H 	0.2131	0.0062	0.1779	0.037
Mof_H 	H 	0.2444	0.0339	0.2444	0.034
Mof_C 	C 	0.0051	0.0873	0.1621	-0.095
Mof_H 	H 	0.0405	0.0546	0.1291	0.048
Mof_H 	H 	0.9446	0.0487	0.1785	0.056
Mof_C 	C 	0.95	0.172	0.1381	-0.045
Mof_H 	H 	0.0106	0.2122	0.1236	0.04
Mof_H 	H 	0.8992	0.1565	0.1041	0.036
Mof_C 	C 	0.045	0.522	0.9836	-0.097
Mof_H 	H 	0.0323	0.5065	0.9416	0.057
Mof_H 	H 	0.1188	0.4948	0.996	0.058
Mof_C 	C 	0.88	0.3154	0.1958	-0.027
Mof_H 	H 	0.9304	0.3588	0.1804	0.033
Mof_C 	C 	0.0557	0.8826	0.2032	0.091
Mof_H 	H 	0.0553	0.8841	0.1615	-0.02
Mof_C 	C 	0.796	0.3319	0.2343	0.017
Mof_H 	H 	0.7797	0.3881	0.2516	0.001
Mof_C 	C 	0.54	0.541	0.0807	-0.033
Mof_H 	H 	0.4884	0.5933	0.0836	0.036
Mof_H 	H 	0.5011	0.4898	0.0994	0.038
Mof_C 	C 	0.559	0.519	0.0133	-0.113
Mof_H 	H 	0.6208	0.4738	0.0094	0.06
Mof_H 	H 	0.5822	0.5735	0.9919	0.058
Mof_C 	C 	0.688	0.6429	0.1292	0.1
Mof_H 	H 	0.6523	0.6981	0.1193	-0.024
Mof_C 	C 	0.721	0.5009	0.1317	0.019
Mof_H 	H 	0.715	0.4385	0.1253	0.021
Mof_C 	C 	0.099	0.1049	0.2107	-0.107
Mof_H 	H 	0.0616	0.1168	0.2488	0.065
Mof_H 	H 	0.1448	0.158	0.2002	0.055
Mof_C 	C 	0.123	0.675	0.1405	-0.004
Mof_H 	H 	0.1693	0.6758	0.1753	0.014
Mof_C 	C 	0.058	0.621	0.9873	-0.047
Mof_H 	H 	0.1288	0.638	0.9663	0.04
Mof_H 	H 	0.9924	0.6492	0.9664	0.04
Mof_C 	C 	0.8131	0.5419	0.1624	-0.027
Mof_H 	H 	0.8787	0.5148	0.1803	0.015
_end
