data_functionalizedCrystal
_audit_creation_method	'EQeq! by Chris Wilmer'
_symmetry_space_group_name_H-M	'P1'
_symmetry_Int_Tables_number	1
_symmetry_cell_setting	triclinic
loop_
_symmetry_equiv_pos_as_xyz
  x,y,z
_cell_length_a	12.5729
_cell_length_b	12.5729
_cell_length_c	25.944
_cell_angle_alpha	90
_cell_angle_beta	90
_cell_angle_gamma	90
loop_
_atom_site_label
_atom_site_type_symbol
_atom_site_fract_x
_atom_site_fract_y
_atom_site_fract_z
_atom_site_charge
Mof_Ho	Ho	0.14353	0.95724	0.44838	1.839
Mof_Ho	Ho	0.85647	0.04276	0.44838	1.816
Mof_Ho	Ho	0.95724	0.85647	0.55162	1.85
Mof_Ho	Ho	0.04276	0.14353	0.55162	1.797
Mof_Ho	Ho	0.35647	0.45724	0.05162	1.824
Mof_Ho	Ho	0.64353	0.54276	0.05162	1.828
Mof_Ho	Ho	0.54276	0.35647	0.94838	1.826
Mof_Ho	Ho	0.45724	0.64353	0.94838	1.826
Mof_H 	H 	0.9609	0.8393	0.4436	0.298
Mof_H 	H 	0.3435	0.4602	0.2217	-0.053
Mof_H 	H 	0.3472	0.4631	0.3105	0.114
Mof_H 	H 	0.3685	0.5281	0.4502	0.123
Mof_H 	H 	0.2776	0.3951	0.4958	-0.034
Mof_H 	H 	0.391	0.1727	0.4033	-0.049
Mof_H 	H 	0.507	0.2935	0.3654	0.112
Mof_H 	H 	0.0391	0.1607	0.4436	0.296
Mof_H 	H 	0.6565	0.5398	0.2217	-0.052
Mof_H 	H 	0.6528	0.5369	0.3105	0.115
Mof_H 	H 	0.6315	0.4719	0.4502	0.123
Mof_H 	H 	0.7224	0.6049	0.4958	-0.033
Mof_H 	H 	0.609	0.8273	0.4033	-0.046
Mof_H 	H 	0.493	0.7065	0.3654	0.112
Mof_H 	H 	0.8393	0.0391	0.5564	0.296
Mof_H 	H 	0.4602	0.6565	0.7783	-0.052
Mof_H 	H 	0.4631	0.6528	0.6895	0.115
Mof_H 	H 	0.5281	0.6315	0.5498	0.123
Mof_H 	H 	0.3951	0.7224	0.5042	-0.034
Mof_H 	H 	0.1727	0.609	0.5967	-0.049
Mof_H 	H 	0.2935	0.493	0.6346	0.112
Mof_H 	H 	0.1607	0.9609	0.5564	0.298
Mof_H 	H 	0.5398	0.3435	0.7783	-0.053
Mof_H 	H 	0.5369	0.3472	0.6895	0.114
Mof_H 	H 	0.4719	0.3685	0.5498	0.122
Mof_H 	H 	0.6049	0.2776	0.5042	-0.033
Mof_H 	H 	0.8273	0.391	0.5967	-0.045
Mof_H 	H 	0.7065	0.507	0.6346	0.112
Mof_H 	H 	0.5391	0.3393	0.0564	0.296
Mof_H 	H 	0.1565	0.9602	0.2783	-0.052
Mof_H 	H 	0.1528	0.9631	0.1895	0.112
Mof_H 	H 	0.1315	0.0281	0.0498	0.112
Mof_H 	H 	0.2224	0.8951	0.0042	-0.03
Mof_H 	H 	0.109	0.6727	0.0967	-0.052
Mof_H 	H 	0.993	0.7935	0.1346	0.126
Mof_H 	H 	0.4609	0.6607	0.0564	0.297
Mof_H 	H 	0.8435	0.0398	0.2783	-0.054
Mof_H 	H 	0.8472	0.0369	0.1895	0.11
Mof_H 	H 	0.8685	0.9719	0.0498	0.135
Mof_H 	H 	0.7776	0.1049	0.0042	-0.038
Mof_H 	H 	0.891	0.3273	0.0967	-0.044
Mof_H 	H 	0.007	0.2065	0.1346	0.101
Mof_H 	H 	0.6607	0.5391	0.9436	0.297
Mof_H 	H 	0.0398	0.1565	0.7217	-0.053
Mof_H 	H 	0.0369	0.1528	0.8105	0.111
Mof_H 	H 	0.9719	0.1315	0.9502	0.139
Mof_H 	H 	0.1049	0.2224	0.9958	-0.043
Mof_H 	H 	0.3273	0.109	0.9033	-0.057
Mof_H 	H 	0.2065	0.993	0.8654	0.13
Mof_H 	H 	0.3393	0.4609	0.9436	0.296
Mof_H 	H 	0.9602	0.8435	0.7217	-0.052
Mof_H 	H 	0.9631	0.8472	0.8105	0.11
Mof_H 	H 	0.0281	0.8685	0.9502	0.112
Mof_H 	H 	0.8951	0.7776	0.9958	-0.027
Mof_H 	H 	0.6727	0.891	0.9033	-0.041
Mof_H 	H 	0.7935	0.007	0.8654	0.1
Mof_C 	C 	0.4058	0.4763	0.23932	0.184
Mof_C 	C 	0.4094	0.4778	0.29252	-0.274
Mof_C 	C 	0.4437	0.4225	0.40255	0.211
Mof_C 	C 	0.376	0.4566	0.44172	-0.267
Mof_C 	C 	0.3193	0.3754	0.46778	0.177
Mof_C 	C 	0.3215	0.2695	0.45444	-0.303
Mof_C 	C 	0.3898	0.2431	0.4143	0.183
Mof_C 	C 	0.4566	0.3154	0.3894	-0.273
Mof_C 	C 	0.2504	0.191	0.4774	0.549
Mof_C 	C 	0.5942	0.5237	0.23932	0.184
Mof_C 	C 	0.5906	0.5222	0.29252	-0.273
Mof_C 	C 	0.5563	0.5775	0.40255	0.21
Mof_C 	C 	0.624	0.5434	0.44172	-0.265
Mof_C 	C 	0.6807	0.6246	0.46778	0.176
Mof_C 	C 	0.6785	0.7305	0.45444	-0.299
Mof_C 	C 	0.6102	0.7569	0.4143	0.181
Mof_C 	C 	0.5434	0.6846	0.3894	-0.271
Mof_C 	C 	0.7496	0.809	0.4774	0.548
Mof_C 	C 	0.4763	0.5942	0.76068	0.184
Mof_C 	C 	0.4778	0.5906	0.70748	-0.273
Mof_C 	C 	0.4225	0.5563	0.59745	0.211
Mof_C 	C 	0.4566	0.624	0.55828	-0.266
Mof_C 	C 	0.3754	0.6807	0.53222	0.178
Mof_C 	C 	0.2695	0.6785	0.54556	-0.303
Mof_C 	C 	0.2431	0.6102	0.5857	0.183
Mof_C 	C 	0.3154	0.5434	0.6106	-0.273
Mof_C 	C 	0.191	0.7496	0.5226	0.551
Mof_C 	C 	0.5237	0.4058	0.76068	0.184
Mof_C 	C 	0.5222	0.4094	0.70748	-0.273
Mof_C 	C 	0.5775	0.4437	0.59745	0.21
Mof_C 	C 	0.5434	0.376	0.55828	-0.265
Mof_C 	C 	0.6246	0.3193	0.53222	0.175
Mof_C 	C 	0.7305	0.3215	0.54556	-0.299
Mof_C 	C 	0.7569	0.3898	0.5857	0.18
Mof_C 	C 	0.6846	0.4566	0.6106	-0.27
Mof_C 	C 	0.809	0.2504	0.5226	0.546
Mof_C 	C 	0.0942	0.9763	0.26068	0.189
Mof_C 	C 	0.0906	0.9778	0.20748	-0.259
Mof_C 	C 	0.0563	0.9225	0.09745	0.218
Mof_C 	C 	0.124	0.9566	0.05828	-0.253
Mof_C 	C 	0.1807	0.8754	0.03222	0.173
Mof_C 	C 	0.1785	0.7695	0.04556	-0.303
Mof_C 	C 	0.1102	0.7431	0.0857	0.191
Mof_C 	C 	0.0434	0.8154	0.1106	-0.292
Mof_C 	C 	0.2496	0.691	0.0226	0.549
Mof_C 	C 	0.9058	0.0237	0.26068	0.188
Mof_C 	C 	0.9094	0.0222	0.20748	-0.259
Mof_C 	C 	0.9437	0.0775	0.09745	0.218
Mof_C 	C 	0.876	0.0434	0.05828	-0.284
Mof_C 	C 	0.8193	0.1246	0.03222	0.185
Mof_C 	C 	0.8215	0.2305	0.04556	-0.302
Mof_C 	C 	0.8898	0.2569	0.0857	0.177
Mof_C 	C 	0.9566	0.1846	0.1106	-0.257
Mof_C 	C 	0.7504	0.309	0.0226	0.549
Mof_C 	C 	0.0237	0.0942	0.73932	0.18
Mof_C 	C 	0.0222	0.0906	0.79252	-0.267
Mof_C 	C 	0.0775	0.0563	0.90255	0.229
Mof_C 	C 	0.0434	0.124	0.94172	-0.301
Mof_C 	C 	0.1246	0.1807	0.96778	0.199
Mof_C 	C 	0.2305	0.1785	0.95444	-0.319
Mof_C 	C 	0.2569	0.1102	0.9143	0.204
Mof_C 	C 	0.1846	0.0434	0.8894	-0.306
Mof_C 	C 	0.309	0.2496	0.9774	0.555
Mof_C 	C 	0.9763	0.9058	0.73932	0.195
Mof_C 	C 	0.9778	0.9094	0.79252	-0.251
Mof_C 	C 	0.9225	0.9437	0.90255	0.21
Mof_C 	C 	0.9566	0.876	0.94172	-0.244
Mof_C 	C 	0.8754	0.8193	0.96778	0.163
Mof_C 	C 	0.7695	0.8215	0.95444	-0.29
Mof_C 	C 	0.7431	0.8898	0.9143	0.168
Mof_C 	C 	0.8154	0.9566	0.8894	-0.249
Mof_C 	C 	0.691	0.7504	0.9774	0.545
Mof_C 	C 	0.5	0.5	0.1557	0.542
Mof_C 	C 	0.5	0.5	0.21329	-0.289
Mof_C 	C 	0.5	0.5	0.3204	0.215
Mof_C 	C 	0.5	0.5	0.8443	0.542
Mof_C 	C 	0.5	0.5	0.78671	-0.289
Mof_C 	C 	0.5	0.5	0.6796	0.215
Mof_C 	C 	-3.49141e-33	0	0.3443	0.524
Mof_C 	C 	-3.93698e-33	0	0.28671	-0.301
Mof_C 	C 	-1.68807e-33	-3.0776e-33	0.1796	0.192
Mof_C 	C 	-7.23737e-33	1.23104e-32	0.6557	0.521
Mof_C 	C 	-6.79181e-33	0	0.71329	-0.299
Mof_C 	C 	-1.82735e-32	0	0.8204	0.193
Mof_N 	N 	0.5	0.5	0.3754	-0.218
Mof_N 	N 	0.5	0.5	0.6246	-0.218
Mof_N 	N 	-2.11359e-33	0	0.1246	-0.224
Mof_N 	N 	-5.53759e-33	0	0.8754	-0.225
Mof_O 	O 	0.9755	0.8926	0.46252	-0.891
Mof_O 	O 	0.1889	0.2232	0.51126	-0.579
Mof_O 	O 	0.258	0.0965	0.46349	-0.59
Mof_O 	O 	0.5859	0.4946	0.13272	-0.593
Mof_O 	O 	0.0245	0.1074	0.46252	-0.899
Mof_O 	O 	0.8111	0.7768	0.51126	-0.581
Mof_O 	O 	0.742	0.9035	0.46349	-0.581
Mof_O 	O 	0.4141	0.5054	0.13272	-0.593
Mof_O 	O 	0.8926	0.0245	0.53748	-0.895
Mof_O 	O 	0.2232	0.8111	0.48874	-0.582
Mof_O 	O 	0.0965	0.742	0.53651	-0.592
Mof_O 	O 	0.4946	0.4141	0.86728	-0.593
Mof_O 	O 	0.1074	0.9755	0.53748	-0.894
Mof_O 	O 	0.7768	0.1889	0.48874	-0.578
Mof_O 	O 	0.9035	0.258	0.53651	-0.577
Mof_O 	O 	0.5054	0.5859	0.86728	-0.592
Mof_O 	O 	0.5245	0.3926	0.03748	-0.895
Mof_O 	O 	0.3111	0.7232	0.98874	-0.58
Mof_O 	O 	0.242	0.5965	0.03651	-0.586
Mof_O 	O 	0.9141	0.9946	0.36728	-0.573
Mof_O 	O 	0.4755	0.6074	0.03748	-0.895
Mof_O 	O 	0.6889	0.2768	0.98874	-0.581
Mof_O 	O 	0.758	0.4035	0.03651	-0.585
Mof_O 	O 	0.0859	0.0054	0.36728	-0.595
Mof_O 	O 	0.6074	0.5245	0.96252	-0.895
Mof_O 	O 	0.2768	0.3111	0.01126	-0.583
Mof_O 	O 	0.4035	0.242	0.96349	-0.588
Mof_O 	O 	0.0054	0.9141	0.63272	-0.588
Mof_O 	O 	0.3926	0.4755	0.96252	-0.895
Mof_O 	O 	0.7232	0.6889	0.01126	-0.578
Mof_O 	O 	0.5965	0.758	0.96349	-0.583
Mof_O 	O 	0.9946	0.0859	0.63272	-0.577
_end
