data_functionalizedCrystal
_audit_creation_method	'EQeq! by Chris Wilmer'
_symmetry_space_group_name_H-M	'P1'
_symmetry_Int_Tables_number	1
_symmetry_cell_setting	triclinic
loop_
_symmetry_equiv_pos_as_xyz
  x,y,z
_cell_length_a	18.5137
_cell_length_b	18.5137
_cell_length_c	18.5137
_cell_angle_alpha	60
_cell_angle_beta	60
_cell_angle_gamma	60
loop_
_atom_site_label
_atom_site_type_symbol
_atom_site_fract_x
_atom_site_fract_y
_atom_site_fract_z
_atom_site_charge
Mof_Cu	Cu	-1.52019e-16	0.42992	0.57008	0.798
Mof_Cu	Cu	0.42992	0	-0	0.68
Mof_Cu	Cu	0.57008	0	-0	0.693
Mof_Cu	Cu	-1.3935e-16	0.57008	0.42992	0.798
Mof_Cu	Cu	-0	0.57008	-0	0.693
Mof_Cu	Cu	0.42992	2.53364e-17	0.57008	0.798
Mof_Cu	Cu	0.57008	2.53364e-17	0.42992	0.799
Mof_Cu	Cu	-2.53364e-17	0.42992	-0	0.681
Mof_Cu	Cu	-3.80047e-17	2.53364e-17	0.42992	0.681
Mof_Cu	Cu	0.42992	0.57008	-0	0.799
Mof_Cu	Cu	0.57008	0.42992	-0	0.799
Mof_Cu	Cu	-0	2.53364e-17	0.57008	0.694
Mof_H 	H 	0.9703	0.2715	0.4867	0.067
Mof_H 	H 	0.2715	0.9703	0.2715	0.044
Mof_H 	H 	0.4867	0.2715	0.9703	0.067
Mof_H 	H 	0.2715	0.4867	0.2715	0
Mof_H 	H 	0.9703	0.4867	0.2715	0.067
Mof_H 	H 	0.2715	0.2715	0.4867	0
Mof_H 	H 	0.4867	0.9703	0.2715	0.067
Mof_H 	H 	0.2715	0.2715	0.9703	0.044
Mof_H 	H 	0.9703	0.2715	0.2715	0.044
Mof_H 	H 	0.2715	0.4867	0.9703	0.067
Mof_H 	H 	0.4867	0.2715	0.2715	0
Mof_H 	H 	0.2715	0.9703	0.4867	0.067
Mof_H 	H 	0.7285	0.0297	0.5133	0.022
Mof_H 	H 	0.0297	0.7285	0.7285	0.048
Mof_H 	H 	0.7285	0.5133	0.0297	0.022
Mof_H 	H 	0.5133	0.7285	0.7285	0.084
Mof_H 	H 	0.5133	0.0297	0.7285	0.022
Mof_H 	H 	0.7285	0.7285	0.5133	0.084
Mof_H 	H 	0.0297	0.5133	0.7285	0.022
Mof_H 	H 	0.7285	0.7285	0.0297	0.048
Mof_H 	H 	0.7285	0.0297	0.7285	0.048
Mof_H 	H 	0.5133	0.7285	0.0297	0.022
Mof_H 	H 	0.7285	0.5133	0.7285	0.084
Mof_H 	H 	0.0297	0.7285	0.5133	0.022
Mof_C 	C 	0.9676	0.302	0.4284	0.07
Mof_C 	C 	0.302	0.9676	0.302	0.072
Mof_C 	C 	0.4284	0.302	0.9676	0.07
Mof_C 	C 	0.302	0.4284	0.302	0.104
Mof_C 	C 	0.9676	0.4284	0.302	0.07
Mof_C 	C 	0.302	0.302	0.4284	0.104
Mof_C 	C 	0.4284	0.9676	0.302	0.07
Mof_C 	C 	0.302	0.302	0.9676	0.072
Mof_C 	C 	0.9676	0.302	0.302	0.072
Mof_C 	C 	0.302	0.4284	0.9676	0.07
Mof_C 	C 	0.4284	0.302	0.302	0.104
Mof_C 	C 	0.302	0.9676	0.4284	0.07
Mof_C 	C 	0.698	0.0324	0.5716	0.086
Mof_C 	C 	0.0324	0.698	0.698	0.08
Mof_C 	C 	0.698	0.5716	0.0324	0.086
Mof_C 	C 	0.5716	0.698	0.698	0.062
Mof_C 	C 	0.5716	0.0324	0.698	0.086
Mof_C 	C 	0.698	0.698	0.5716	0.062
Mof_C 	C 	0.0324	0.5716	0.698	0.086
Mof_C 	C 	0.698	0.698	0.0324	0.08
Mof_C 	C 	0.698	0.0324	0.698	0.08
Mof_C 	C 	0.5716	0.698	0.0324	0.086
Mof_C 	C 	0.698	0.5716	0.698	0.062
Mof_C 	C 	0.0324	0.698	0.5716	0.086
Mof_C 	C 	0.9652	0.389	0.389	-0.099
Mof_C 	C 	0.9771	0.4305	0.4305	0.372
Mof_C 	C 	0.389	0.9652	0.2568	-0.115
Mof_C 	C 	0.4305	0.9771	0.1619	0.371
Mof_C 	C 	0.389	0.2568	0.9652	-0.115
Mof_C 	C 	0.4305	0.1619	0.9771	0.371
Mof_C 	C 	0.2568	0.389	0.389	-0.197
Mof_C 	C 	0.1619	0.4305	0.4305	0.397
Mof_C 	C 	0.9652	0.389	0.2568	-0.115
Mof_C 	C 	0.9771	0.4305	0.1619	0.371
Mof_C 	C 	0.389	0.2568	0.389	-0.197
Mof_C 	C 	0.4305	0.1619	0.4305	0.397
Mof_C 	C 	0.389	0.9652	0.389	-0.099
Mof_C 	C 	0.4305	0.9771	0.4305	0.372
Mof_C 	C 	0.2568	0.389	0.9652	-0.115
Mof_C 	C 	0.1619	0.4305	0.9771	0.371
Mof_C 	C 	0.9652	0.2568	0.389	-0.115
Mof_C 	C 	0.9771	0.1619	0.4305	0.371
Mof_C 	C 	0.389	0.389	0.9652	-0.099
Mof_C 	C 	0.4305	0.4305	0.9771	0.372
Mof_C 	C 	0.389	0.389	0.2568	-0.197
Mof_C 	C 	0.4305	0.4305	0.1619	0.397
Mof_C 	C 	0.2568	0.9652	0.389	-0.115
Mof_C 	C 	0.1619	0.9771	0.4305	0.371
Mof_C 	C 	0.611	0.0348	0.611	-0.166
Mof_C 	C 	0.5695	0.0229	0.5695	0.392
Mof_C 	C 	0.0348	0.611	0.7432	-0.143
Mof_C 	C 	0.0229	0.5695	0.8381	0.373
Mof_C 	C 	0.7432	0.611	0.0348	-0.143
Mof_C 	C 	0.8381	0.5695	0.0229	0.373
Mof_C 	C 	0.611	0.7432	0.611	-0.078
Mof_C 	C 	0.5695	0.8381	0.5695	0.37
Mof_C 	C 	0.611	0.0348	0.7432	-0.143
Mof_C 	C 	0.5695	0.0229	0.8381	0.373
Mof_C 	C 	0.7432	0.611	0.611	-0.078
Mof_C 	C 	0.8381	0.5695	0.5695	0.37
Mof_C 	C 	0.0348	0.611	0.611	-0.166
Mof_C 	C 	0.0229	0.5695	0.5695	0.392
Mof_C 	C 	0.611	0.7432	0.0348	-0.143
Mof_C 	C 	0.5695	0.8381	0.0229	0.373
Mof_C 	C 	0.7432	0.0348	0.611	-0.143
Mof_C 	C 	0.8381	0.0229	0.5695	0.373
Mof_C 	C 	0.611	0.611	0.0348	-0.166
Mof_C 	C 	0.5695	0.5695	0.0229	0.392
Mof_C 	C 	0.611	0.611	0.7432	-0.078
Mof_C 	C 	0.5695	0.5695	0.8381	0.37
Mof_C 	C 	0.0348	0.7432	0.611	-0.143
Mof_C 	C 	0.0229	0.8381	0.5695	0.373
Mof_O 	O 	0.9791	0.3871	0.5075	-0.298
Mof_O 	O 	0.3871	0.9791	0.1263	-0.359
Mof_O 	O 	0.5075	0.1263	0.9791	-0.34
Mof_O 	O 	0.1263	0.5075	0.3871	-0.481
Mof_O 	O 	0.9791	0.5075	0.1263	-0.34
Mof_O 	O 	0.3871	0.1263	0.5075	-0.481
Mof_O 	O 	0.5075	0.9791	0.3871	-0.298
Mof_O 	O 	0.1263	0.3871	0.9791	-0.359
Mof_O 	O 	0.9791	0.1263	0.3871	-0.359
Mof_O 	O 	0.3871	0.5075	0.9791	-0.298
Mof_O 	O 	0.5075	0.3871	0.1263	-0.481
Mof_O 	O 	0.1263	0.9791	0.5075	-0.34
Mof_O 	O 	0.6129	0.0209	0.4925	-0.469
Mof_O 	O 	0.0209	0.6129	0.8737	-0.351
Mof_O 	O 	0.8737	0.4925	0.0209	-0.371
Mof_O 	O 	0.4925	0.8737	0.6129	-0.29
Mof_O 	O 	0.4925	0.0209	0.8737	-0.371
Mof_O 	O 	0.8737	0.6129	0.4925	-0.29
Mof_O 	O 	0.0209	0.4925	0.6129	-0.469
Mof_O 	O 	0.6129	0.8737	0.0209	-0.351
Mof_O 	O 	0.8737	0.0209	0.6129	-0.351
Mof_O 	O 	0.4925	0.6129	0.0209	-0.469
Mof_O 	O 	0.6129	0.4925	0.8737	-0.29
Mof_O 	O 	0.0209	0.8737	0.4925	-0.371
Mof_O 	O 	0.0209	0.6129	0.4925	-0.469
Mof_O 	O 	0.6129	0.0209	0.8737	-0.351
Mof_O 	O 	0.4925	0.8737	0.0209	-0.371
Mof_O 	O 	0.8737	0.4925	0.6129	-0.29
Mof_O 	O 	0.0209	0.4925	0.8737	-0.371
Mof_O 	O 	0.6129	0.8737	0.4925	-0.29
Mof_O 	O 	0.4925	0.0209	0.6129	-0.469
Mof_O 	O 	0.8737	0.6129	0.0209	-0.351
Mof_O 	O 	0.0209	0.8737	0.6129	-0.351
Mof_O 	O 	0.6129	0.4925	0.0209	-0.469
Mof_O 	O 	0.4925	0.6129	0.8737	-0.29
Mof_O 	O 	0.8737	0.0209	0.4925	-0.371
Mof_O 	O 	0.3871	0.9791	0.5075	-0.298
Mof_O 	O 	0.9791	0.3871	0.1263	-0.359
Mof_O 	O 	0.1263	0.5075	0.9791	-0.34
Mof_O 	O 	0.5075	0.1263	0.3871	-0.481
Mof_O 	O 	0.5075	0.9791	0.1263	-0.34
Mof_O 	O 	0.1263	0.3871	0.5075	-0.481
Mof_O 	O 	0.9791	0.5075	0.3871	-0.298
Mof_O 	O 	0.3871	0.1263	0.9791	-0.359
Mof_O 	O 	0.1263	0.9791	0.3871	-0.359
Mof_O 	O 	0.5075	0.3871	0.9791	-0.298
Mof_O 	O 	0.3871	0.5075	0.1263	-0.481
Mof_O 	O 	0.9791	0.1263	0.5075	-0.34
_end
