data_functionalizedCrystal
_audit_creation_method	'EQeq! by Chris Wilmer'
_symmetry_space_group_name_H-M	'P1'
_symmetry_Int_Tables_number	1
_symmetry_cell_setting	triclinic
loop_
_symmetry_equiv_pos_as_xyz
  x,y,z
_cell_length_a	16.3113
_cell_length_b	16.3113
_cell_length_c	16.3113
_cell_angle_alpha	90
_cell_angle_beta	90
_cell_angle_gamma	90
loop_
_atom_site_label
_atom_site_type_symbol
_atom_site_fract_x
_atom_site_fract_y
_atom_site_fract_z
_atom_site_charge
Mof_N 	N 	0.68707	0.30446	0.58572	-0.176
Mof_C 	C 	0.70786	0.38182	0.60647	-0.128
Mof_H 	H 	0.90906	0.07816	0.24917	0.125
Mof_N 	N 	0.81293	0.19554	0.58572	-0.176
Mof_C 	C 	0.79214	0.11818	0.60647	-0.127
Mof_H 	H 	0.59094	0.42184	0.24917	0.127
Mof_N 	N 	0.81293	0.30446	0.91428	-0.156
Mof_C 	C 	0.79214	0.38182	0.89353	-0.124
Mof_H 	H 	0.59094	0.07816	0.25083	0.121
Mof_N 	N 	0.68707	0.19554	0.91428	-0.158
Mof_C 	C 	0.70786	0.11818	0.89353	-0.126
Mof_H 	H 	0.90906	0.42184	0.25083	0.136
Mof_N 	N 	0.58572	0.68707	0.30446	-0.175
Mof_C 	C 	0.60647	0.70786	0.38182	-0.127
Mof_H 	H 	0.24917	0.90906	0.07816	0.126
Mof_N 	N 	0.58572	0.81293	0.19554	-0.175
Mof_C 	C 	0.60647	0.79214	0.11818	-0.126
Mof_H 	H 	0.24917	0.59094	0.42184	0.128
Mof_N 	N 	0.91428	0.81293	0.30446	-0.156
Mof_C 	C 	0.89353	0.79214	0.38182	-0.124
Mof_H 	H 	0.25083	0.59094	0.07816	0.121
Mof_N 	N 	0.91428	0.68707	0.19554	-0.158
Mof_C 	C 	0.89353	0.70786	0.11818	-0.126
Mof_H 	H 	0.25083	0.90906	0.42184	0.136
Mof_N 	N 	0.30446	0.58572	0.68707	-0.175
Mof_C 	C 	0.38182	0.60647	0.70786	-0.127
Mof_H 	H 	0.07816	0.24917	0.90906	0.126
Mof_N 	N 	0.19554	0.58572	0.81293	-0.175
Mof_C 	C 	0.11818	0.60647	0.79214	-0.126
Mof_H 	H 	0.42184	0.24917	0.59094	0.128
Mof_N 	N 	0.30446	0.91428	0.81293	-0.156
Mof_C 	C 	0.38182	0.89353	0.79214	-0.124
Mof_H 	H 	0.07816	0.25083	0.59094	0.121
Mof_N 	N 	0.19554	0.91428	0.68707	-0.158
Mof_C 	C 	0.11818	0.89353	0.70786	-0.126
Mof_H 	H 	0.42184	0.25083	0.90906	0.136
Mof_N 	N 	0.80446	0.18707	0.41428	-0.175
Mof_C 	C 	0.88182	0.20786	0.39353	-0.127
Mof_H 	H 	0.57816	0.40906	0.75083	0.133
Mof_N 	N 	0.69554	0.31293	0.41428	-0.175
Mof_C 	C 	0.61818	0.29214	0.39353	-0.126
Mof_H 	H 	0.92184	0.09094	0.75083	0.141
Mof_N 	N 	0.80446	0.31293	0.08572	-0.174
Mof_C 	C 	0.88182	0.29214	0.10647	-0.129
Mof_H 	H 	0.57816	0.09094	0.74917	0.125
Mof_N 	N 	0.69554	0.18707	0.08572	-0.175
Mof_C 	C 	0.61818	0.20786	0.10647	-0.132
Mof_H 	H 	0.92184	0.40906	0.74917	0.146
Mof_N 	N 	0.18707	0.08572	0.69554	-0.175
Mof_C 	C 	0.20786	0.10647	0.61818	-0.132
Mof_H 	H 	0.40906	0.74917	0.92184	0.146
Mof_N 	N 	0.31293	0.08572	0.80446	-0.174
Mof_C 	C 	0.29214	0.10647	0.88182	-0.129
Mof_H 	H 	0.09094	0.74917	0.57816	0.125
Mof_N 	N 	0.31293	0.41428	0.69554	-0.175
Mof_C 	C 	0.29214	0.39353	0.61818	-0.126
Mof_H 	H 	0.09094	0.75083	0.92184	0.141
Mof_N 	N 	0.18707	0.41428	0.80446	-0.175
Mof_C 	C 	0.20786	0.39353	0.88182	-0.127
Mof_H 	H 	0.40906	0.75083	0.57816	0.133
Mof_N 	N 	0.08572	0.80446	0.31293	-0.174
Mof_C 	C 	0.10647	0.88182	0.29214	-0.129
Mof_H 	H 	0.74917	0.57816	0.09094	0.125
Mof_N 	N 	0.08572	0.69554	0.18707	-0.175
Mof_C 	C 	0.10647	0.61818	0.20786	-0.132
Mof_H 	H 	0.74917	0.92184	0.40906	0.146
Mof_N 	N 	0.41428	0.80446	0.18707	-0.175
Mof_C 	C 	0.39353	0.88182	0.20786	-0.127
Mof_H 	H 	0.75083	0.57816	0.40906	0.133
Mof_N 	N 	0.41428	0.69554	0.31293	-0.175
Mof_C 	C 	0.39353	0.61818	0.29214	-0.126
Mof_H 	H 	0.75083	0.92184	0.09094	0.141
Mof_N 	N 	0.31293	0.69554	0.41428	-0.175
Mof_C 	C 	0.29214	0.61818	0.39353	-0.126
Mof_H 	H 	0.09094	0.92184	0.75083	0.141
Mof_N 	N 	0.18707	0.80446	0.41428	-0.175
Mof_C 	C 	0.20786	0.88182	0.39353	-0.127
Mof_H 	H 	0.40906	0.57816	0.75083	0.133
Mof_N 	N 	0.18707	0.69554	0.08572	-0.175
Mof_C 	C 	0.20786	0.61818	0.10647	-0.132
Mof_H 	H 	0.40906	0.92184	0.74917	0.146
Mof_N 	N 	0.31293	0.80446	0.08572	-0.174
Mof_C 	C 	0.29214	0.88182	0.10647	-0.129
Mof_H 	H 	0.09094	0.57816	0.74917	0.125
Mof_N 	N 	0.41428	0.31293	0.69554	-0.175
Mof_C 	C 	0.39353	0.29214	0.61818	-0.126
Mof_H 	H 	0.75083	0.09094	0.92184	0.141
Mof_N 	N 	0.41428	0.18707	0.80446	-0.175
Mof_C 	C 	0.39353	0.20786	0.88182	-0.127
Mof_H 	H 	0.75083	0.40906	0.57816	0.133
Mof_N 	N 	0.08572	0.18707	0.69554	-0.175
Mof_C 	C 	0.10647	0.20786	0.61818	-0.132
Mof_H 	H 	0.74917	0.40906	0.92184	0.146
Mof_N 	N 	0.08572	0.31293	0.80446	-0.174
Mof_C 	C 	0.10647	0.29214	0.88182	-0.129
Mof_H 	H 	0.74917	0.09094	0.57816	0.125
Mof_N 	N 	0.69554	0.41428	0.31293	-0.175
Mof_C 	C 	0.61818	0.39353	0.29214	-0.126
Mof_H 	H 	0.92184	0.75083	0.09094	0.141
Mof_N 	N 	0.80446	0.41428	0.18707	-0.175
Mof_C 	C 	0.88182	0.39353	0.20786	-0.127
Mof_H 	H 	0.57816	0.75083	0.40906	0.133
Mof_N 	N 	0.69554	0.08572	0.18707	-0.175
Mof_C 	C 	0.61818	0.10647	0.20786	-0.132
Mof_H 	H 	0.92184	0.74917	0.40906	0.146
Mof_N 	N 	0.80446	0.08572	0.31293	-0.174
Mof_C 	C 	0.88182	0.10647	0.29214	-0.129
Mof_H 	H 	0.57816	0.74917	0.09094	0.125
Mof_N 	N 	0.19554	0.81293	0.58572	-0.175
Mof_C 	C 	0.11818	0.79214	0.60647	-0.126
Mof_H 	H 	0.42184	0.59094	0.24917	0.128
Mof_N 	N 	0.30446	0.68707	0.58572	-0.175
Mof_C 	C 	0.38182	0.70786	0.60647	-0.127
Mof_H 	H 	0.07816	0.90906	0.24917	0.126
Mof_N 	N 	0.19554	0.68707	0.91428	-0.158
Mof_C 	C 	0.11818	0.70786	0.89353	-0.126
Mof_H 	H 	0.42184	0.90906	0.25083	0.136
Mof_N 	N 	0.30446	0.81293	0.91428	-0.156
Mof_C 	C 	0.38182	0.79214	0.89353	-0.124
Mof_H 	H 	0.07816	0.59094	0.25083	0.121
Mof_N 	N 	0.81293	0.91428	0.30446	-0.156
Mof_C 	C 	0.79214	0.89353	0.38182	-0.124
Mof_H 	H 	0.59094	0.25083	0.07816	0.121
Mof_N 	N 	0.68707	0.91428	0.19554	-0.158
Mof_C 	C 	0.70786	0.89353	0.11818	-0.126
Mof_H 	H 	0.90906	0.25083	0.42184	0.136
Mof_N 	N 	0.68707	0.58572	0.30446	-0.175
Mof_C 	C 	0.70786	0.60647	0.38182	-0.127
Mof_H 	H 	0.90906	0.24917	0.07816	0.126
Mof_N 	N 	0.81293	0.58572	0.19554	-0.175
Mof_C 	C 	0.79214	0.60647	0.11818	-0.126
Mof_H 	H 	0.59094	0.24917	0.42184	0.128
Mof_N 	N 	0.91428	0.19554	0.68707	-0.158
Mof_C 	C 	0.89353	0.11818	0.70786	-0.126
Mof_H 	H 	0.25083	0.42184	0.90906	0.136
Mof_N 	N 	0.91428	0.30446	0.81293	-0.156
Mof_C 	C 	0.89353	0.38182	0.79214	-0.124
Mof_H 	H 	0.25083	0.07816	0.59094	0.121
Mof_N 	N 	0.58572	0.19554	0.81293	-0.175
Mof_C 	C 	0.60647	0.11818	0.79214	-0.126
Mof_H 	H 	0.24917	0.42184	0.59094	0.128
Mof_N 	N 	0.58572	0.30446	0.68707	-0.175
Mof_C 	C 	0.60647	0.38182	0.70786	-0.127
Mof_H 	H 	0.24917	0.07816	0.90906	0.126
Mof_Pd	Pd	0.75	0.25	0.5	0.615
Mof_Pd	Pd	0.75	0.25	-0	0.552
Mof_Pd	Pd	0.5	0.75	0.25	0.615
Mof_Pd	Pd	1.54794e-32	0.75	0.25	0.552
Mof_Pd	Pd	0.25	0.5	0.75	0.615
Mof_Pd	Pd	0.25	5.81681e-33	0.75	0.552
Mof_Pd	Pd	0.25	0.75	0.5	0.615
Mof_Pd	Pd	0.25	0.75	-0	0.552
Mof_Pd	Pd	0.5	0.25	0.75	0.615
Mof_Pd	Pd	1.44457e-32	0.25	0.75	0.552
Mof_Pd	Pd	0.75	0.5	0.25	0.615
Mof_Pd	Pd	0.75	2.9084e-33	0.25	0.552
Mof_C 	C 	0.62599	0.26577	0.62599	0.263
Mof_C 	C 	0.66756	0.42051	0.66756	0.384
Mof_O 	O 	0.60675	0.19414	0.60675	-0.237
Mof_F 	F 	0.68835	0.49787	0.68835	-0.371
Mof_C 	C 	0.87401	0.23423	0.62599	0.263
Mof_C 	C 	0.83244	0.07949	0.66756	0.383
Mof_O 	O 	0.89325	0.30586	0.60675	-0.219
Mof_F 	F 	0.81165	0.00213	0.68835	-0.382
Mof_C 	C 	0.87401	0.26577	0.87401	0.267
Mof_C 	C 	0.83244	0.42051	0.83244	0.393
Mof_O 	O 	0.89325	0.19414	0.89325	-0.209
Mof_F 	F 	0.81165	0.49787	0.81165	-0.364
Mof_C 	C 	0.62599	0.23423	0.87401	0.263
Mof_C 	C 	0.66756	0.07949	0.83244	0.383
Mof_O 	O 	0.60675	0.30586	0.89325	-0.219
Mof_F 	F 	0.68835	0.00213	0.81165	-0.382
Mof_C 	C 	0.62599	0.62599	0.26577	0.263
Mof_C 	C 	0.66756	0.66756	0.42051	0.384
Mof_O 	O 	0.60675	0.60675	0.19414	-0.237
Mof_F 	F 	0.68835	0.68835	0.49787	-0.371
Mof_C 	C 	0.62599	0.87401	0.23423	0.263
Mof_C 	C 	0.66756	0.83244	0.07949	0.383
Mof_O 	O 	0.60675	0.89325	0.30586	-0.219
Mof_F 	F 	0.68835	0.81165	0.00213	-0.382
Mof_C 	C 	0.87401	0.87401	0.26577	0.267
Mof_C 	C 	0.83244	0.83244	0.42051	0.393
Mof_O 	O 	0.89325	0.89325	0.19414	-0.209
Mof_F 	F 	0.81165	0.81165	0.49787	-0.364
Mof_C 	C 	0.87401	0.62599	0.23423	0.263
Mof_C 	C 	0.83244	0.66756	0.07949	0.383
Mof_O 	O 	0.89325	0.60675	0.30586	-0.219
Mof_F 	F 	0.81165	0.68835	0.00213	-0.382
Mof_C 	C 	0.26577	0.62599	0.62599	0.263
Mof_C 	C 	0.42051	0.66756	0.66756	0.384
Mof_O 	O 	0.19414	0.60675	0.60675	-0.237
Mof_F 	F 	0.49787	0.68835	0.68835	-0.371
Mof_C 	C 	0.23423	0.62599	0.87401	0.263
Mof_C 	C 	0.07949	0.66756	0.83244	0.383
Mof_O 	O 	0.30586	0.60675	0.89325	-0.219
Mof_F 	F 	0.00213	0.68835	0.81165	-0.382
Mof_C 	C 	0.26577	0.87401	0.87401	0.267
Mof_C 	C 	0.42051	0.83244	0.83244	0.393
Mof_O 	O 	0.19414	0.89325	0.89325	-0.209
Mof_F 	F 	0.49787	0.81165	0.81165	-0.364
Mof_C 	C 	0.23423	0.87401	0.62599	0.263
Mof_C 	C 	0.07949	0.83244	0.66756	0.383
Mof_O 	O 	0.30586	0.89325	0.60675	-0.219
Mof_F 	F 	0.00213	0.81165	0.68835	-0.382
Mof_C 	C 	0.76577	0.12599	0.37401	0.261
Mof_C 	C 	0.92051	0.16756	0.33244	0.385
Mof_O 	O 	0.69414	0.10675	0.39325	-0.241
Mof_F 	F 	0.99787	0.18835	0.31165	-0.371
Mof_C 	C 	0.73423	0.37401	0.37401	0.262
Mof_C 	C 	0.57949	0.33244	0.33244	0.382
Mof_O 	O 	0.80586	0.39325	0.39325	-0.229
Mof_F 	F 	0.50213	0.31165	0.31165	-0.382
Mof_C 	C 	0.76577	0.37401	0.12599	0.261
Mof_C 	C 	0.92051	0.33244	0.16756	0.385
Mof_O 	O 	0.69414	0.39325	0.10675	-0.241
Mof_F 	F 	0.99787	0.31165	0.18835	-0.371
Mof_C 	C 	0.73423	0.12599	0.12599	0.256
Mof_C 	C 	0.57949	0.16756	0.16756	0.377
Mof_O 	O 	0.80586	0.10675	0.10675	-0.244
Mof_F 	F 	0.50213	0.18835	0.18835	-0.39
Mof_C 	C 	0.12599	0.12599	0.73423	0.256
Mof_C 	C 	0.16756	0.16756	0.57949	0.377
Mof_O 	O 	0.10675	0.10675	0.80586	-0.244
Mof_F 	F 	0.18835	0.18835	0.50213	-0.39
Mof_C 	C 	0.37401	0.12599	0.76577	0.261
Mof_C 	C 	0.33244	0.16756	0.92051	0.385
Mof_O 	O 	0.39325	0.10675	0.69414	-0.241
Mof_F 	F 	0.31165	0.18835	0.99787	-0.371
Mof_C 	C 	0.37401	0.37401	0.73423	0.262
Mof_C 	C 	0.33244	0.33244	0.57949	0.382
Mof_O 	O 	0.39325	0.39325	0.80586	-0.229
Mof_F 	F 	0.31165	0.31165	0.50213	-0.382
Mof_C 	C 	0.12599	0.37401	0.76577	0.261
Mof_C 	C 	0.16756	0.33244	0.92051	0.385
Mof_O 	O 	0.10675	0.39325	0.69414	-0.241
Mof_F 	F 	0.18835	0.31165	0.99787	-0.371
Mof_C 	C 	0.12599	0.76577	0.37401	0.261
Mof_C 	C 	0.16756	0.92051	0.33244	0.385
Mof_O 	O 	0.10675	0.69414	0.39325	-0.241
Mof_F 	F 	0.18835	0.99787	0.31165	-0.371
Mof_C 	C 	0.12599	0.73423	0.12599	0.256
Mof_C 	C 	0.16756	0.57949	0.16756	0.377
Mof_O 	O 	0.10675	0.80586	0.10675	-0.244
Mof_F 	F 	0.18835	0.50213	0.18835	-0.39
Mof_C 	C 	0.37401	0.76577	0.12599	0.261
Mof_C 	C 	0.33244	0.92051	0.16756	0.385
Mof_O 	O 	0.39325	0.69414	0.10675	-0.241
Mof_F 	F 	0.31165	0.99787	0.18835	-0.371
Mof_C 	C 	0.37401	0.73423	0.37401	0.262
Mof_C 	C 	0.33244	0.57949	0.33244	0.382
Mof_O 	O 	0.39325	0.80586	0.39325	-0.229
Mof_F 	F 	0.31165	0.50213	0.31165	-0.382
_end
