data_functionalizedCrystal
_audit_creation_method	'EQeq! by Chris Wilmer'
_symmetry_space_group_name_H-M	'P1'
_symmetry_Int_Tables_number	1
_symmetry_cell_setting	triclinic
loop_
_symmetry_equiv_pos_as_xyz
  x,y,z
_cell_length_a	10.5526
_cell_length_b	10.8749
_cell_length_c	15.3643
_cell_angle_alpha	76.545
_cell_angle_beta	82.101
_cell_angle_gamma	79.927
loop_
_atom_site_label
_atom_site_type_symbol
_atom_site_fract_x
_atom_site_fract_y
_atom_site_fract_z
_atom_site_charge
Mof_Cu	Cu	0.15906	0.5102	0.15969	0.875
Mof_Cu	Cu	0.92689	0.76119	0.09159	0.907
Mof_Cu	Cu	0.32016	0.49567	0.34245	0.892
Mof_Cu	Cu	0.61937	0.60361	0.28462	0.911
Mof_O 	O 	0.2089	0.3944	0.3045	-0.472
Mof_O 	O 	0.3138	0.2035	0.3624	-0.3
Mof_O 	O 	0.752	0.4572	0.2686	-0.409
Mof_O 	O 	0.6388	0.341	0.3813	-0.353
Mof_O 	O 	0.163	0.638	0.9811	-0.401
Mof_O 	O 	0.0619	0.8285	0.0026	-0.471
Mof_O 	O 	0.2384	0.2319	0.8289	-0.451
Mof_O 	O 	0.4236	0.2017	0.7493	-0.391
Mof_O 	O 	0.9833	0.5421	0.1205	-0.587
Mof_H 	H 	0.9211	0.4969	0.1642	0.185
Mof_O 	O 	0.4433	0.5809	0.3819	-0.612
Mof_H 	H 	0.3996	0.6671	0.3855	0.155
Mof_N 	N 	0.0305	0.7603	0.1906	-0.173
Mof_N 	N 	0.1083	0.6541	0.2215	-0.167
Mof_N 	N 	0.1693	0.6701	0.2887	-0.156
Mof_N 	N 	0.3486	0.5372	0.1461	-0.176
Mof_N 	N 	0.4074	0.5331	0.2183	-0.158
Mof_N 	N 	0.517	0.5794	0.1928	-0.171
Mof_N 	N 	0.2013	0.3533	0.1076	-0.183
Mof_N 	N 	0.1336	0.3574	0.0396	-0.177
Mof_N 	N 	0.1691	0.2505	0.0103	-0.183
Mof_N 	N 	0.7114	0.6166	0.3864	-0.166
Mof_N 	N 	0.6604	0.5718	0.4684	-0.168
Mof_N 	N 	0.7427	0.5675	0.5285	-0.177
Mof_C 	C 	0.1256	0.7897	0.2989	0.038
Mof_H 	H 	0.1503	0.8276	0.341	0.006
Mof_C 	C 	0.0394	0.8473	0.238	-0.056
Mof_H 	H 	0.9954	0.9303	0.2307	0.066
Mof_C 	C 	0.5308	0.6127	0.1029	0.009
Mof_H 	H 	0.5998	0.6471	0.0669	0.019
Mof_C 	C 	0.4226	0.5861	0.0743	0.007
Mof_H 	H 	0.4048	0.6	0.0149	0.014
Mof_C 	C 	0.2611	0.1767	0.0598	0.001
Mof_H 	H 	0.3034	0.0962	0.0535	0.018
Mof_C 	C 	0.2803	0.2429	0.1206	0.013
Mof_H 	H 	0.3386	0.2156	0.1639	0.026
Mof_C 	C 	0.8468	0.6132	0.4833	0.024
Mof_H 	H 	0.9195	0.623	0.5076	0.03
Mof_C 	C 	0.8272	0.6431	0.3939	0.012
Mof_H 	H 	0.885	0.6764	0.3465	0.038
Mof_C 	C 	0.0916	0.2206	0.3456	-0.158
Mof_C 	C 	0.9786	0.3032	0.3291	0.097
Mof_H 	H 	0.9823	0.39	0.308	0
Mof_C 	C 	0.8595	0.2609	0.3429	-0.121
Mof_C 	C 	0.855	0.1308	0.3751	0.026
Mof_H 	H 	0.7758	0.1006	0.3868	0.037
Mof_C 	C 	0.9674	0.047	0.3896	-0.06
Mof_H 	H 	0.9644	0.9599	0.4089	0.06
Mof_C 	C 	0.0848	0.0918	0.3754	0.002
Mof_H 	H 	0.1603	0.0344	0.3861	0.036
Mof_C 	C 	0.2168	0.2712	0.3376	0.351
Mof_C 	C 	0.7384	0.3588	0.3304	0.345
Mof_C 	C 	0.2423	0.8245	0.8929	-0.168
Mof_C 	C 	0.241	0.956	0.881	0.122
Mof_H 	H 	0.1825	0.0032	0.9163	-0.026
Mof_C 	C 	0.3292	0.0158	0.8149	-0.184
Mof_C 	C 	0.4141	0.9456	0.7629	0.104
Mof_H 	H 	0.4724	0.9858	0.7192	0.019
Mof_C 	C 	0.4144	0.8159	0.7744	-0.161
Mof_H 	H 	0.4718	0.7691	0.7383	0.101
Mof_C 	C 	0.3287	0.7562	0.8402	0.095
Mof_H 	H 	0.3296	0.6685	0.8488	0.017
Mof_C 	C 	0.1501	0.7568	0.9638	0.415
Mof_C 	C 	0.3297	0.1586	0.7978	0.387
Mof_Cu	Cu	0.84094	0.4898	0.84031	0.893
Mof_Cu	Cu	0.07311	0.23881	0.90841	0.903
Mof_Cu	Cu	0.67984	0.50433	0.65755	0.893
Mof_Cu	Cu	0.38063	0.39639	0.71538	0.911
Mof_O 	O 	0.7911	0.6056	0.6955	-0.46
Mof_O 	O 	0.6862	0.7965	0.6376	-0.296
Mof_O 	O 	0.248	0.5428	0.7314	-0.409
Mof_O 	O 	0.3612	0.659	0.6187	-0.354
Mof_O 	O 	0.837	0.362	0.0189	-0.403
Mof_O 	O 	0.9381	0.1715	0.9974	-0.344
Mof_O 	O 	0.7616	0.7681	0.1711	-0.452
Mof_O 	O 	0.5764	0.7983	0.2507	-0.391
Mof_O 	O 	0.0167	0.4579	0.8795	-0.599
Mof_H 	H 	0.0789	0.5031	0.8358	0.183
Mof_O 	O 	0.5567	0.4191	0.6181	-0.611
Mof_H 	H 	0.6004	0.3329	0.6145	0.157
Mof_N 	N 	0.9695	0.2397	0.8094	-0.174
Mof_N 	N 	0.8917	0.3459	0.7785	-0.155
Mof_N 	N 	0.8307	0.3299	0.7113	-0.141
Mof_N 	N 	0.6514	0.4628	0.8539	-0.169
Mof_N 	N 	0.5926	0.4669	0.7817	-0.157
Mof_N 	N 	0.483	0.4206	0.8072	-0.169
Mof_N 	N 	0.7987	0.6467	0.8924	-0.172
Mof_N 	N 	0.8664	0.6426	0.9604	-0.145
Mof_N 	N 	0.8309	0.7495	0.9897	-0.146
Mof_N 	N 	0.2886	0.3834	0.6136	-0.168
Mof_N 	N 	0.3396	0.4282	0.5316	-0.169
Mof_N 	N 	0.2573	0.4325	0.4715	-0.179
Mof_C 	C 	0.8744	0.2103	0.7011	-0.021
Mof_H 	H 	0.8497	0.1724	0.659	0.039
Mof_C 	C 	0.9606	0.1527	0.762	0.089
Mof_H 	H 	0.0046	0.0697	0.7693	-0.021
Mof_C 	C 	0.4692	0.3873	0.8971	0.016
Mof_H 	H 	0.4002	0.3529	0.9331	0.042
Mof_C 	C 	0.5774	0.4139	0.9257	0.017
Mof_H 	H 	0.5952	0.4	0.9851	0.048
Mof_C 	C 	0.7389	0.8233	0.9402	0.016
Mof_H 	H 	0.6966	0.9038	0.9465	0.038
Mof_C 	C 	0.7197	0.7571	0.8794	0.025
Mof_H 	H 	0.6614	0.7844	0.8361	0.029
Mof_C 	C 	0.1532	0.3868	0.5167	0.018
Mof_H 	H 	0.0805	0.377	0.4924	0.014
Mof_C 	C 	0.1728	0.3569	0.6061	0.01
Mof_H 	H 	0.115	0.3236	0.6535	0.022
Mof_C 	C 	0.9084	0.7794	0.6544	-0.116
Mof_C 	C 	0.0214	0.6968	0.6709	0.026
Mof_H 	H 	0.0177	0.61	0.692	0.006
Mof_C 	C 	0.1405	0.7391	0.6571	-0.12
Mof_C 	C 	0.145	0.8692	0.6249	0.057
Mof_H 	H 	0.2242	0.8994	0.6132	0.025
Mof_C 	C 	0.0326	0.953	0.6104	-0.157
Mof_H 	H 	0.0356	0.0401	0.5911	0.075
Mof_C 	C 	0.9152	0.9082	0.6246	0.087
Mof_H 	H 	0.8397	0.9656	0.6139	0.014
Mof_C 	C 	0.7832	0.7288	0.6624	0.343
Mof_C 	C 	0.2616	0.6412	0.6696	0.342
Mof_C 	C 	0.7577	0.1755	0.1071	-0.127
Mof_C 	C 	0.759	0.044	0.119	0.071
Mof_H 	H 	0.8175	0.9968	0.0837	-0.019
Mof_C 	C 	0.6708	0.9842	0.1851	-0.156
Mof_C 	C 	0.5859	0.0544	0.2371	0.069
Mof_H 	H 	0.5276	0.0142	0.2808	0.029
Mof_C 	C 	0.5856	0.1841	0.2256	-0.13
Mof_H 	H 	0.5282	0.2309	0.2617	0.088
Mof_C 	C 	0.6713	0.2438	0.1598	0.052
Mof_H 	H 	0.6704	0.3315	0.1512	0.025
Mof_C 	C 	0.8499	0.2432	0.0362	0.304
Mof_C 	C 	0.6703	0.8414	0.2022	0.374
Mof_Cu	Cu	-0	0.5	-0	0.868
Mof_Cu	Cu	0.5	0.5	0.5	0.888
_end
