data_functionalizedCrystal
_audit_creation_method	'EQeq! by Chris Wilmer'
_symmetry_space_group_name_H-M	'P1'
_symmetry_Int_Tables_number	1
_symmetry_cell_setting	triclinic
loop_
_symmetry_equiv_pos_as_xyz
  x,y,z
_cell_length_a	18.6026
_cell_length_b	18.6026
_cell_length_c	18.6026
_cell_angle_alpha	60
_cell_angle_beta	60
_cell_angle_gamma	60
loop_
_atom_site_label
_atom_site_type_symbol
_atom_site_fract_x
_atom_site_fract_y
_atom_site_fract_z
_atom_site_charge
Mof_Cu	Cu	-3.74624e-17	0.42992	0.57008	0.799
Mof_Cu	Cu	0.42992	0	-0	0.682
Mof_Cu	Cu	0.57008	0	-0	0.695
Mof_Cu	Cu	-6.24373e-17	0.57008	0.42992	0.8
Mof_Cu	Cu	-0	0.57008	-0	0.696
Mof_Cu	Cu	0.42992	0	0.57008	0.8
Mof_Cu	Cu	0.57008	0	0.42992	0.8
Mof_Cu	Cu	-0	0.42992	-0	0.683
Mof_Cu	Cu	3.74624e-17	0	0.42992	0.683
Mof_Cu	Cu	0.42992	0.57008	-0	0.8
Mof_Cu	Cu	0.57008	0.42992	-0	0.8
Mof_Cu	Cu	1.24875e-17	0	0.57008	0.696
Mof_H 	H 	0.9728	0.27	0.4872	0.074
Mof_H 	H 	0.27	0.9728	0.27	0.05
Mof_H 	H 	0.4872	0.27	0.9728	0.074
Mof_H 	H 	0.27	0.4872	0.27	0.003
Mof_H 	H 	0.9728	0.4872	0.27	0.074
Mof_H 	H 	0.27	0.27	0.4872	0.003
Mof_H 	H 	0.4872	0.9728	0.27	0.074
Mof_H 	H 	0.27	0.27	0.9728	0.05
Mof_H 	H 	0.9728	0.27	0.27	0.05
Mof_H 	H 	0.27	0.4872	0.9728	0.074
Mof_H 	H 	0.4872	0.27	0.27	0.003
Mof_H 	H 	0.27	0.9728	0.4872	0.074
Mof_H 	H 	0.73	0.0272	0.5128	0.027
Mof_H 	H 	0.0272	0.73	0.73	0.053
Mof_H 	H 	0.73	0.5128	0.0272	0.027
Mof_H 	H 	0.5128	0.73	0.73	0.092
Mof_H 	H 	0.5128	0.0272	0.73	0.027
Mof_H 	H 	0.73	0.73	0.5128	0.092
Mof_H 	H 	0.0272	0.5128	0.73	0.027
Mof_H 	H 	0.73	0.73	0.0272	0.053
Mof_H 	H 	0.73	0.0272	0.73	0.053
Mof_H 	H 	0.5128	0.73	0.0272	0.027
Mof_H 	H 	0.73	0.5128	0.73	0.092
Mof_H 	H 	0.0272	0.73	0.5128	0.027
Mof_C 	C 	0.97118	0.3	0.42882	0.043
Mof_C 	C 	0.3	0.97118	0.3	0.046
Mof_C 	C 	0.42882	0.3	0.97118	0.043
Mof_C 	C 	0.3	0.42882	0.3	0.086
Mof_C 	C 	0.97118	0.42882	0.3	0.043
Mof_C 	C 	0.3	0.3	0.42882	0.086
Mof_C 	C 	0.42882	0.97118	0.3	0.043
Mof_C 	C 	0.3	0.3	0.97118	0.046
Mof_C 	C 	0.97118	0.3	0.3	0.046
Mof_C 	C 	0.3	0.42882	0.97118	0.043
Mof_C 	C 	0.42882	0.3	0.3	0.086
Mof_C 	C 	0.3	0.97118	0.42882	0.043
Mof_C 	C 	0.7	0.02882	0.57118	0.064
Mof_C 	C 	0.02882	0.7	0.7	0.058
Mof_C 	C 	0.7	0.57118	0.02882	0.064
Mof_C 	C 	0.57118	0.7	0.7	0.032
Mof_C 	C 	0.57118	0.02882	0.7	0.064
Mof_C 	C 	0.7	0.7	0.57118	0.032
Mof_C 	C 	0.02882	0.57118	0.7	0.064
Mof_C 	C 	0.7	0.7	0.02882	0.058
Mof_C 	C 	0.7	0.02882	0.7	0.058
Mof_C 	C 	0.57118	0.7	0.02882	0.064
Mof_C 	C 	0.7	0.57118	0.7	0.032
Mof_C 	C 	0.02882	0.7	0.57118	0.064
Mof_C 	C 	0.97048	0.386	0.386	-0.07
Mof_C 	C 	0.97786	0.4301	0.4301	0.351
Mof_C 	C 	0.386	0.97048	0.25752	-0.086
Mof_C 	C 	0.4301	0.97786	0.16194	0.35
Mof_C 	C 	0.386	0.25752	0.97048	-0.086
Mof_C 	C 	0.4301	0.16194	0.97786	0.35
Mof_C 	C 	0.25752	0.386	0.386	-0.176
Mof_C 	C 	0.16194	0.4301	0.4301	0.376
Mof_C 	C 	0.97048	0.386	0.25752	-0.086
Mof_C 	C 	0.97786	0.4301	0.16194	0.35
Mof_C 	C 	0.386	0.25752	0.386	-0.176
Mof_C 	C 	0.4301	0.16194	0.4301	0.376
Mof_C 	C 	0.386	0.97048	0.386	-0.07
Mof_C 	C 	0.4301	0.97786	0.4301	0.351
Mof_C 	C 	0.25752	0.386	0.97048	-0.086
Mof_C 	C 	0.16194	0.4301	0.97786	0.35
Mof_C 	C 	0.97048	0.25752	0.386	-0.086
Mof_C 	C 	0.97786	0.16194	0.4301	0.35
Mof_C 	C 	0.386	0.386	0.97048	-0.07
Mof_C 	C 	0.4301	0.4301	0.97786	0.351
Mof_C 	C 	0.386	0.386	0.25752	-0.176
Mof_C 	C 	0.4301	0.4301	0.16194	0.376
Mof_C 	C 	0.25752	0.97048	0.386	-0.086
Mof_C 	C 	0.16194	0.97786	0.4301	0.35
Mof_C 	C 	0.614	0.02952	0.614	-0.142
Mof_C 	C 	0.5699	0.02214	0.5699	0.371
Mof_C 	C 	0.02952	0.614	0.74248	-0.118
Mof_C 	C 	0.02214	0.5699	0.83806	0.353
Mof_C 	C 	0.74248	0.614	0.02952	-0.118
Mof_C 	C 	0.83806	0.5699	0.02214	0.353
Mof_C 	C 	0.614	0.74248	0.614	-0.045
Mof_C 	C 	0.5699	0.83806	0.5699	0.349
Mof_C 	C 	0.614	0.02952	0.74248	-0.118
Mof_C 	C 	0.5699	0.02214	0.83806	0.353
Mof_C 	C 	0.74248	0.614	0.614	-0.045
Mof_C 	C 	0.83806	0.5699	0.5699	0.349
Mof_C 	C 	0.02952	0.614	0.614	-0.142
Mof_C 	C 	0.02214	0.5699	0.5699	0.371
Mof_C 	C 	0.614	0.74248	0.02952	-0.118
Mof_C 	C 	0.5699	0.83806	0.02214	0.353
Mof_C 	C 	0.74248	0.02952	0.614	-0.118
Mof_C 	C 	0.83806	0.02214	0.5699	0.353
Mof_C 	C 	0.614	0.614	0.02952	-0.142
Mof_C 	C 	0.5699	0.5699	0.02214	0.371
Mof_C 	C 	0.614	0.614	0.74248	-0.045
Mof_C 	C 	0.5699	0.5699	0.83806	0.349
Mof_C 	C 	0.02952	0.74248	0.614	-0.118
Mof_C 	C 	0.02214	0.83806	0.5699	0.353
Mof_O 	O 	0.98012	0.3872	0.50712	-0.293
Mof_O 	O 	0.3872	0.98012	0.12556	-0.353
Mof_O 	O 	0.50712	0.12556	0.98012	-0.334
Mof_O 	O 	0.12556	0.50712	0.3872	-0.474
Mof_O 	O 	0.98012	0.50712	0.12556	-0.334
Mof_O 	O 	0.3872	0.12556	0.50712	-0.474
Mof_O 	O 	0.50712	0.98012	0.3872	-0.293
Mof_O 	O 	0.12556	0.3872	0.98012	-0.353
Mof_O 	O 	0.98012	0.12556	0.3872	-0.353
Mof_O 	O 	0.3872	0.50712	0.98012	-0.293
Mof_O 	O 	0.50712	0.3872	0.12556	-0.474
Mof_O 	O 	0.12556	0.98012	0.50712	-0.334
Mof_O 	O 	0.6128	0.01988	0.49288	-0.463
Mof_O 	O 	0.01988	0.6128	0.87444	-0.346
Mof_O 	O 	0.87444	0.49288	0.01988	-0.366
Mof_O 	O 	0.49288	0.87444	0.6128	-0.284
Mof_O 	O 	0.49288	0.01988	0.87444	-0.366
Mof_O 	O 	0.87444	0.6128	0.49288	-0.284
Mof_O 	O 	0.01988	0.49288	0.6128	-0.463
Mof_O 	O 	0.6128	0.87444	0.01988	-0.346
Mof_O 	O 	0.87444	0.01988	0.6128	-0.346
Mof_O 	O 	0.49288	0.6128	0.01988	-0.463
Mof_O 	O 	0.6128	0.49288	0.87444	-0.284
Mof_O 	O 	0.01988	0.87444	0.49288	-0.366
Mof_O 	O 	0.01988	0.6128	0.49288	-0.463
Mof_O 	O 	0.6128	0.01988	0.87444	-0.346
Mof_O 	O 	0.49288	0.87444	0.01988	-0.366
Mof_O 	O 	0.87444	0.49288	0.6128	-0.284
Mof_O 	O 	0.01988	0.49288	0.87444	-0.366
Mof_O 	O 	0.6128	0.87444	0.49288	-0.284
Mof_O 	O 	0.49288	0.01988	0.6128	-0.463
Mof_O 	O 	0.87444	0.6128	0.01988	-0.346
Mof_O 	O 	0.01988	0.87444	0.6128	-0.346
Mof_O 	O 	0.6128	0.49288	0.01988	-0.463
Mof_O 	O 	0.49288	0.6128	0.87444	-0.284
Mof_O 	O 	0.87444	0.01988	0.49288	-0.366
Mof_O 	O 	0.3872	0.98012	0.50712	-0.293
Mof_O 	O 	0.98012	0.3872	0.12556	-0.353
Mof_O 	O 	0.12556	0.50712	0.98012	-0.334
Mof_O 	O 	0.50712	0.12556	0.3872	-0.474
Mof_O 	O 	0.50712	0.98012	0.12556	-0.334
Mof_O 	O 	0.12556	0.3872	0.50712	-0.474
Mof_O 	O 	0.98012	0.50712	0.3872	-0.293
Mof_O 	O 	0.3872	0.12556	0.98012	-0.353
Mof_O 	O 	0.12556	0.98012	0.3872	-0.353
Mof_O 	O 	0.50712	0.3872	0.98012	-0.293
Mof_O 	O 	0.3872	0.50712	0.12556	-0.474
Mof_O 	O 	0.98012	0.12556	0.50712	-0.334
_end
