data_functionalizedCrystal
_audit_creation_method	'EQeq! by Chris Wilmer'
_symmetry_space_group_name_H-M	'P1'
_symmetry_Int_Tables_number	1
_symmetry_cell_setting	triclinic
loop_
_symmetry_equiv_pos_as_xyz
  x,y,z
_cell_length_a	88.79
_cell_length_b	13.988
_cell_length_c	27.888
_cell_angle_alpha	90
_cell_angle_beta	90
_cell_angle_gamma	90
loop_
_atom_site_label
_atom_site_type_symbol
_atom_site_fract_x
_atom_site_fract_y
_atom_site_fract_z
_atom_site_charge
Mof_C 	C 	0.1395	0.1292	0.3918	-0.022
Mof_H 	H 	0.1296	0.1249	0.4027	0.04
Mof_C 	C 	0.1485	0.0566	0.3995	-0.092
Mof_H 	H 	0.1446	0.9991	0.4104	0.072
Mof_C 	C 	0.1647	0.0639	0.3914	0.007
Mof_H 	H 	0.1712	0.0166	0.4022	0.018
Mof_C 	C 	0.1701	0.1435	0.367	-0.111
Mof_H 	H 	0.1802	0.1458	0.3588	0.064
Mof_C 	C 	0.1826	0.3196	0.3284	0.135
Mof_C 	C 	0.1911	0.2675	0.293	-0.212
Mof_H 	H 	0.1862	0.22	0.2756	0.102
Mof_C 	C 	0.2062	0.2848	0.2832	0.162
Mof_H 	H 	0.2109	0.2541	0.2576	-0.035
Mof_C 	C 	0.2142	0.3466	0.3112	-0.267
Mof_C 	C 	0.2061	0.3988	0.3504	0.142
Mof_H 	H 	0.2113	0.4421	0.3697	-0.023
Mof_C 	C 	0.1916	0.3826	0.3572	-0.209
Mof_H 	H 	0.1868	0.4142	0.3824	0.099
Mof_C 	C 	0.2298	0.3681	0.3018	0.541
Mof_C 	C 	0.2307	0.4481	0.1995	0.514
Mof_C 	C 	0.2128	0.4718	0.1859	-0.21
Mof_C 	C 	0.2056	0.4318	0.1548	0.187
Mof_H 	H 	0.2105	0.3839	0.1377	-0.037
Mof_C 	C 	0.1914	0.45	0.143	-0.233
Mof_H 	H 	0.1873	0.4217	0.1158	0.106
Mof_C 	C 	0.1824	0.5128	0.1715	0.125
Mof_C 	C 	0.1906	0.5588	0.2092	-0.18
Mof_H 	H 	0.1854	0.5997	0.2296	0.091
Mof_C 	C 	0.2055	0.5465	0.217	0.094
Mof_H 	H 	0.2108	0.5814	0.2398	0.006
Mof_C 	C 	0.1563	0.4472	0.1737	0.038
Mof_C 	C 	0.1403	0.4591	0.1593	0.003
Mof_C 	C 	0.1351	0.5421	0.1441	-0.022
Mof_C 	C 	0.1446	0.6217	0.1369	-0
Mof_C 	C 	0.1611	0.6173	0.1441	0.04
Mof_C 	C 	0.166	0.5236	0.1642	-0.08
Mof_C 	C 	0.1614	0.36	0.1969	-0.083
Mof_H 	H 	0.1712	0.3583	0.2084	0.063
Mof_C 	C 	0.1529	0.2824	0.2029	-0.019
Mof_H 	H 	0.1568	0.2256	0.2152	0.039
Mof_C 	C 	0.1374	0.2927	0.1889	-0.04
Mof_H 	H 	0.1311	0.2402	0.1929	0.046
Mof_C 	C 	0.1313	0.3742	0.1703	-0.059
Mof_H 	H 	0.121	0.376	0.1645	0.055
Mof_C 	C 	0.1391	0.7086	0.1183	-0.056
Mof_H 	H 	0.1289	0.715	0.1127	0.052
Mof_C 	C 	0.1486	0.7858	0.108	-0.055
Mof_H 	H 	0.1448	0.8434	0.0965	0.053
Mof_C 	C 	0.1652	0.7716	0.1166	-0.009
Mof_H 	H 	0.1719	0.8203	0.1084	0.032
Mof_C 	C 	0.1705	0.6925	0.1352	-0.099
Mof_H 	H 	0.1807	0.6875	0.1423	0.062
Mof_C 	C 	0.1183	0.5485	0.1316	0.015
Mof_C 	C 	0.1072	0.556	0.1711	-0.04
Mof_C 	C 	0.0917	0.5524	0.1602	0.077
Mof_C 	C 	0.0862	0.5435	0.1112	-0.156
Mof_C 	C 	0.0978	0.5459	0.0729	0.084
Mof_C 	C 	0.1129	0.5457	0.0887	-0.043
Mof_C 	C 	0.1243	0.5441	0.0458	-0.011
Mof_H 	H 	0.1346	0.5457	0.0512	0.037
Mof_C 	C 	0.1188	0.5403	0.0007	-0.109
Mof_H 	H 	0.1257	0.539	0.9757	0.071
Mof_C 	C 	0.1033	0.5382	0.9887	0.066
Mof_H 	H 	0.1003	0.5319	0.9569	0.011
Mof_C 	C 	0.0937	0.5451	0.0218	-0.155
Mof_H 	H 	0.0836	0.5498	0.0136	0.081
Mof_C 	C 	0.1113	0.5614	0.2213	-0.013
Mof_H 	H 	0.1214	0.5592	0.23	0.04
Mof_C 	C 	0.1009	0.5693	0.255	-0.097
Mof_H 	H 	0.1036	0.5808	0.2866	0.063
Mof_C 	C 	0.0859	0.5606	0.243	0.044
Mof_H 	H 	0.0791	0.5554	0.2683	0.009
Mof_C 	C 	0.0803	0.5587	0.2006	-0.138
Mof_H 	H 	0.07	0.5611	0.1951	0.074
Mof_C 	C 	0.0703	0.5334	0.0971	0.306
Mof_C 	C 	0.0644	0.4493	0.0989	-0.403
Mof_H 	H 	0.07	0.3988	0.1114	0.168
Mof_C 	C 	0.0499	0.4327	0.0826	0.305
Mof_H 	H 	0.0465	0.3701	0.0801	-0.078
Mof_C 	C 	0.0403	0.5064	0.0698	-0.421
Mof_C 	C 	0.0471	0.5965	0.0699	0.313
Mof_H 	H 	0.0418	0.6485	0.0578	-0.103
Mof_C 	C 	0.0613	0.611	0.0871	-0.391
Mof_H 	H 	0.0649	0.6727	0.092	0.159
Mof_C 	C 	0.0247	0.4867	0.0532	0.724
Mof_C 	C 	0.1667	0.3029	0.3377	-0.099
Mof_C 	C 	0.1606	0.2218	0.3541	0.061
Mof_C 	C 	0.1441	0.2145	0.3674	-0.022
Mof_C 	C 	0.1351	0.2906	0.3596	-0.004
Mof_C 	C 	0.1407	0.3759	0.3372	-0.014
Mof_C 	C 	0.1576	0.386	0.3277	0.051
Mof_C 	C 	0.1623	0.4744	0.3058	-0.109
Mof_H 	H 	0.1722	0.4825	0.2957	0.071
Mof_C 	C 	0.1523	0.5441	0.3001	0.013
Mof_H 	H 	0.1556	0.6	0.2855	0.028
Mof_C 	C 	0.1378	0.5402	0.3138	-0.069
Mof_H 	H 	0.1317	0.5937	0.31	0.055
Mof_C 	C 	0.1323	0.4648	0.332	-0.033
Mof_H 	H 	0.1224	0.4662	0.3425	0.046
Mof_C 	C 	0.1191	0.283	0.3711	-0.007
Mof_C 	C 	0.1143	0.2848	0.4215	-0.016
Mof_C 	C 	0.0992	0.2854	0.4349	0.058
Mof_C 	C 	0.0881	0.2835	0.4003	-0.111
Mof_C 	C 	0.0911	0.2821	0.3499	0.064
Mof_C 	C 	0.1074	0.2843	0.3391	-0.014
Mof_C 	C 	0.1118	0.276	0.2887	-0.049
Mof_H 	H 	0.1219	0.2723	0.2801	0.054
Mof_C 	C 	0.0999	0.2749	0.2523	-0.057
Mof_H 	H 	0.1025	0.2702	0.22	0.048
Mof_C 	C 	0.085	0.2805	0.2658	-0.001
Mof_H 	H 	0.0775	0.2846	0.2428	0.023
Mof_C 	C 	0.0815	0.2799	0.315	-0.116
Mof_H 	H 	0.0713	0.2779	0.3231	0.066
Mof_C 	C 	0.0949	0.2868	0.4834	-0.093
Mof_H 	H 	0.0848	0.2821	0.4921	0.064
Mof_C 	C 	0.1066	0.2958	0.5196	-0.024
Mof_H 	H 	0.1043	0.3004	0.5521	0.044
Mof_C 	C 	0.122	0.2972	0.503	-0.037
Mof_H 	H 	0.1294	0.3008	0.5264	0.044
Mof_C 	C 	0.1264	0.2942	0.4601	-0.052
Mof_H 	H 	0.1366	0.2975	0.4523	0.052
Mof_C 	C 	0.0709	0.2909	0.4158	0.208
Mof_C 	C 	0.0645	0.2127	0.4347	-0.289
Mof_H 	H 	0.0697	0.155	0.4366	0.126
Mof_C 	C 	0.0494	0.2219	0.4518	0.212
Mof_H 	H 	0.0449	0.1701	0.4671	-0.047
Mof_C 	C 	0.0415	0.3027	0.4464	-0.324
Mof_C 	C 	0.0491	0.3783	0.4243	0.224
Mof_H 	H 	0.0437	0.4335	0.4174	-0.056
Mof_C 	C 	0.0639	0.3759	0.4124	-0.31
Mof_H 	H 	0.069	0.4305	0.4023	0.136
Mof_C 	C 	0.0253	0.3151	0.4645	0.615
Mof_O 	O 	0.2367	0.5082	0.2288	-0.6
Mof_O 	O 	0.2346	0.3698	0.1819	-0.61
Mof_O 	O 	0.0165	0.5616	0.0551	-0.666
Mof_O 	O 	0.02026	0.4124	0.0452	-0.673
Mof_O 	O 	0.01851	0.3888	0.4579	-0.676
Mof_O 	O 	0.0199	0.2428	0.4865	-0.607
Mof_O 	O 	0.2366	0.4407	0.3214	-0.562
Mof_O 	O 	0.2375	0.3149	0.2758	-0.582
Mof_Tb	Tb	0.25101	0.56192	0.28702	2.075
Mof_C 	C 	0.1395	0.6292	0.8918	-0.05
Mof_H 	H 	0.1296	0.6249	0.9027	0.049
Mof_C 	C 	0.1485	0.5566	0.8995	-0.051
Mof_H 	H 	0.1446	0.4991	0.9104	0.048
Mof_C 	C 	0.1647	0.5639	0.8914	-0.017
Mof_H 	H 	0.1712	0.5166	0.9022	0.03
Mof_C 	C 	0.1701	0.6435	0.867	-0.095
Mof_H 	H 	0.1802	0.6458	0.8588	0.059
Mof_C 	C 	0.1826	0.8196	0.8284	0.131
Mof_C 	C 	0.1911	0.7675	0.793	-0.21
Mof_H 	H 	0.1862	0.72	0.7756	0.1
Mof_C 	C 	0.2062	0.7848	0.7832	0.16
Mof_H 	H 	0.2109	0.7541	0.7576	-0.035
Mof_C 	C 	0.2142	0.8466	0.8112	-0.265
Mof_C 	C 	0.2061	0.8988	0.8504	0.141
Mof_H 	H 	0.2113	0.9421	0.8697	-0.021
Mof_C 	C 	0.1916	0.8826	0.8572	-0.207
Mof_H 	H 	0.1868	0.9142	0.8824	0.1
Mof_C 	C 	0.2298	0.8681	0.8018	0.54
Mof_C 	C 	0.2307	0.9481	0.6995	0.517
Mof_C 	C 	0.2128	0.9718	0.6859	-0.179
Mof_C 	C 	0.2056	0.9318	0.6548	0.149
Mof_H 	H 	0.2105	0.8839	0.6377	-0.024
Mof_C 	C 	0.1914	0.95	0.643	-0.192
Mof_H 	H 	0.1873	0.9217	0.6158	0.095
Mof_C 	C 	0.1824	0.0128	0.6715	0.097
Mof_C 	C 	0.1906	0.0588	0.7092	-0.157
Mof_H 	H 	0.1854	0.0997	0.7296	0.082
Mof_C 	C 	0.2055	0.0465	0.717	0.06
Mof_H 	H 	0.2108	0.0814	0.7398	0.015
Mof_C 	C 	0.1563	0.9472	0.6737	0.041
Mof_C 	C 	0.1403	0.9591	0.6593	0.02
Mof_C 	C 	0.1351	0.0421	0.6441	-0.036
Mof_C 	C 	0.1446	0.1217	0.6369	0.005
Mof_C 	C 	0.1611	0.1173	0.6441	0.035
Mof_C 	C 	0.166	0.0236	0.6642	-0.08
Mof_C 	C 	0.1614	0.86	0.6969	-0.081
Mof_H 	H 	0.1712	0.8583	0.7084	0.064
Mof_C 	C 	0.1529	0.7824	0.7029	-0.023
Mof_H 	H 	0.1568	0.7256	0.7152	0.04
Mof_C 	C 	0.1374	0.7927	0.6889	-0.034
Mof_H 	H 	0.1311	0.7402	0.6929	0.044
Mof_C 	C 	0.1313	0.8742	0.6703	-0.067
Mof_H 	H 	0.121	0.876	0.6645	0.061
Mof_C 	C 	0.1391	0.2086	0.6183	-0.061
Mof_H 	H 	0.1289	0.215	0.6127	0.054
Mof_C 	C 	0.1486	0.2858	0.608	-0.051
Mof_H 	H 	0.1448	0.3434	0.5965	0.05
Mof_C 	C 	0.1652	0.2716	0.6166	-0.013
Mof_H 	H 	0.1719	0.3203	0.6084	0.031
Mof_C 	C 	0.1705	0.1925	0.6352	-0.095
Mof_H 	H 	0.1807	0.1875	0.6423	0.06
Mof_C 	C 	0.1183	0.0485	0.6316	0.011
Mof_C 	C 	0.1072	0.056	0.6711	-0.038
Mof_C 	C 	0.0917	0.0524	0.6602	0.072
Mof_C 	C 	0.0862	0.0435	0.6112	-0.15
Mof_C 	C 	0.0978	0.0459	0.5729	0.065
Mof_C 	C 	0.1129	0.0457	0.5887	-0.031
Mof_C 	C 	0.1243	0.0441	0.5458	-0.04
Mof_H 	H 	0.1346	0.0457	0.5512	0.046
Mof_C 	C 	0.1188	0.0403	0.5007	-0.064
Mof_H 	H 	0.1257	0.039	0.4757	0.05
Mof_C 	C 	0.1033	0.0382	0.4887	0.012
Mof_H 	H 	0.1003	0.0319	0.4569	0.027
Mof_C 	C 	0.0937	0.0451	0.5218	-0.115
Mof_H 	H 	0.0836	0.0498	0.5136	0.067
Mof_C 	C 	0.1113	0.0614	0.7213	-0.017
Mof_H 	H 	0.1214	0.0592	0.73	0.04
Mof_C 	C 	0.1009	0.0693	0.755	-0.095
Mof_H 	H 	0.1036	0.0808	0.7866	0.06
Mof_C 	C 	0.0859	0.0606	0.743	0.04
Mof_H 	H 	0.0791	0.0554	0.7683	0.008
Mof_C 	C 	0.0803	0.0587	0.7006	-0.136
Mof_H 	H 	0.07	0.0611	0.6951	0.071
Mof_C 	C 	0.0703	0.0334	0.5971	0.297
Mof_C 	C 	0.0644	0.9493	0.5989	-0.398
Mof_H 	H 	0.07	0.8988	0.6114	0.169
Mof_C 	C 	0.0499	0.9327	0.5826	0.337
Mof_H 	H 	0.0465	0.8701	0.5801	-0.087
Mof_C 	C 	0.0403	0.0064	0.5698	-0.464
Mof_C 	C 	0.0471	0.0965	0.5699	0.333
Mof_H 	H 	0.0418	0.1485	0.5578	-0.11
Mof_C 	C 	0.0613	0.111	0.5871	-0.399
Mof_H 	H 	0.0649	0.1727	0.592	0.162
Mof_C 	C 	0.0247	0.9867	0.5532	0.767
Mof_C 	C 	0.1667	0.8029	0.8377	-0.092
Mof_C 	C 	0.1606	0.7218	0.8541	0.051
Mof_C 	C 	0.1441	0.7145	0.8674	-0.01
Mof_C 	C 	0.1351	0.7906	0.8596	-0.007
Mof_C 	C 	0.1407	0.8759	0.8372	-0.016
Mof_C 	C 	0.1576	0.886	0.8277	0.048
Mof_C 	C 	0.1623	0.9744	0.8058	-0.094
Mof_H 	H 	0.1722	0.9825	0.7957	0.069
Mof_C 	C 	0.1523	0.0441	0.8001	0.004
Mof_H 	H 	0.1556	0.1	0.7855	0.03
Mof_C 	C 	0.1378	0.0402	0.8138	-0.091
Mof_H 	H 	0.1317	0.0937	0.81	0.061
Mof_C 	C 	0.1323	0.9648	0.832	-0.009
Mof_H 	H 	0.1224	0.9662	0.8425	0.042
Mof_C 	C 	0.1191	0.783	0.8711	-0.005
Mof_C 	C 	0.1143	0.7848	0.9215	-0.019
Mof_C 	C 	0.0992	0.7854	0.9349	0.059
Mof_C 	C 	0.0881	0.7835	0.9003	-0.11
Mof_C 	C 	0.0911	0.7821	0.8499	0.066
Mof_C 	C 	0.1074	0.7843	0.8391	-0.014
Mof_C 	C 	0.1118	0.776	0.7887	-0.047
Mof_H 	H 	0.1219	0.7723	0.7801	0.054
Mof_C 	C 	0.0999	0.7749	0.7523	-0.056
Mof_H 	H 	0.1025	0.7702	0.72	0.049
Mof_C 	C 	0.085	0.7805	0.7658	0.001
Mof_H 	H 	0.0775	0.7846	0.7428	0.025
Mof_C 	C 	0.0815	0.7799	0.815	-0.115
Mof_H 	H 	0.0713	0.7779	0.8231	0.068
Mof_C 	C 	0.0949	0.7868	0.9834	-0.09
Mof_H 	H 	0.0848	0.7821	0.9921	0.065
Mof_C 	C 	0.1066	0.7958	0.0196	-0.024
Mof_H 	H 	0.1043	0.8004	0.0521	0.043
Mof_C 	C 	0.122	0.7972	0.003	-0.048
Mof_H 	H 	0.1294	0.8008	0.0264	0.048
Mof_C 	C 	0.1264	0.7942	0.9601	-0.04
Mof_H 	H 	0.1366	0.7975	0.9523	0.05
Mof_C 	C 	0.0709	0.7909	0.9158	0.207
Mof_C 	C 	0.0645	0.7127	0.9347	-0.285
Mof_H 	H 	0.0697	0.655	0.9366	0.127
Mof_C 	C 	0.0494	0.7219	0.9518	0.209
Mof_H 	H 	0.0449	0.6701	0.9671	-0.044
Mof_C 	C 	0.0415	0.8027	0.9464	-0.317
Mof_C 	C 	0.0491	0.8783	0.9243	0.222
Mof_H 	H 	0.0437	0.9335	0.9174	-0.05
Mof_C 	C 	0.0639	0.8759	0.9124	-0.306
Mof_H 	H 	0.069	0.9305	0.9023	0.139
Mof_C 	C 	0.0253	0.8151	0.9645	0.611
Mof_O 	O 	0.2367	0.0082	0.7288	-0.608
Mof_O 	O 	0.2346	0.8698	0.6819	-0.611
Mof_O 	O 	0.0165	0.0616	0.5551	-0.686
Mof_O 	O 	0.02026	0.9124	0.5452	-0.684
Mof_O 	O 	0.01851	0.8888	0.9579	-0.662
Mof_O 	O 	0.0199	0.7428	0.9865	-0.601
Mof_O 	O 	0.2366	0.9407	0.8214	-0.554
Mof_O 	O 	0.2375	0.8149	0.7758	-0.58
Mof_Tb	Tb	0.25101	0.06192	0.78702	2.063
Mof_C 	C 	0.6395	0.1292	0.8918	-0.023
Mof_H 	H 	0.6296	0.1249	0.9027	0.038
Mof_C 	C 	0.6485	0.0566	0.8995	-0.094
Mof_H 	H 	0.6446	0.9991	0.9104	0.072
Mof_C 	C 	0.6647	0.0639	0.8914	0.006
Mof_H 	H 	0.6712	0.0166	0.9022	0.017
Mof_C 	C 	0.6701	0.1435	0.867	-0.112
Mof_H 	H 	0.6802	0.1458	0.8588	0.063
Mof_C 	C 	0.6826	0.3196	0.8284	0.134
Mof_C 	C 	0.6911	0.2675	0.793	-0.213
Mof_H 	H 	0.6862	0.22	0.7756	0.101
Mof_C 	C 	0.7062	0.2848	0.7832	0.161
Mof_H 	H 	0.7109	0.2541	0.7576	-0.036
Mof_C 	C 	0.7142	0.3466	0.8112	-0.268
Mof_C 	C 	0.7061	0.3988	0.8504	0.141
Mof_H 	H 	0.7113	0.4421	0.8697	-0.024
Mof_C 	C 	0.6916	0.3826	0.8572	-0.21
Mof_H 	H 	0.6868	0.4142	0.8824	0.098
Mof_C 	C 	0.7298	0.3681	0.8018	0.54
Mof_C 	C 	0.7307	0.4481	0.6995	0.514
Mof_C 	C 	0.7128	0.4718	0.6859	-0.21
Mof_C 	C 	0.7056	0.4318	0.6548	0.187
Mof_H 	H 	0.7105	0.3839	0.6377	-0.037
Mof_C 	C 	0.6914	0.45	0.643	-0.233
Mof_H 	H 	0.6873	0.4217	0.6158	0.107
Mof_C 	C 	0.6824	0.5128	0.6715	0.125
Mof_C 	C 	0.6906	0.5588	0.7092	-0.18
Mof_H 	H 	0.6854	0.5997	0.7296	0.091
Mof_C 	C 	0.7055	0.5465	0.717	0.094
Mof_H 	H 	0.7108	0.5814	0.7398	0.006
Mof_C 	C 	0.6563	0.4472	0.6737	0.039
Mof_C 	C 	0.6403	0.4591	0.6593	0.001
Mof_C 	C 	0.6351	0.5421	0.6441	-0.019
Mof_C 	C 	0.6446	0.6217	0.6369	-0.002
Mof_C 	C 	0.6611	0.6173	0.6441	0.041
Mof_C 	C 	0.666	0.5236	0.6642	-0.081
Mof_C 	C 	0.6614	0.36	0.6969	-0.084
Mof_H 	H 	0.6712	0.3583	0.7084	0.064
Mof_C 	C 	0.6529	0.2824	0.7029	-0.018
Mof_H 	H 	0.6568	0.2256	0.7152	0.039
Mof_C 	C 	0.6374	0.2927	0.6889	-0.041
Mof_H 	H 	0.6311	0.2402	0.6929	0.046
Mof_C 	C 	0.6313	0.3742	0.6703	-0.058
Mof_H 	H 	0.621	0.376	0.6645	0.055
Mof_C 	C 	0.6391	0.7086	0.6183	-0.055
Mof_H 	H 	0.6289	0.715	0.6127	0.052
Mof_C 	C 	0.6486	0.7858	0.608	-0.055
Mof_H 	H 	0.6448	0.8434	0.5965	0.054
Mof_C 	C 	0.6652	0.7716	0.6166	-0.008
Mof_H 	H 	0.6719	0.8203	0.6084	0.032
Mof_C 	C 	0.6705	0.6925	0.6352	-0.1
Mof_H 	H 	0.6807	0.6875	0.6423	0.063
Mof_C 	C 	0.6183	0.5485	0.6316	0.007
Mof_C 	C 	0.6072	0.556	0.6711	-0.034
Mof_C 	C 	0.5917	0.5524	0.6602	0.072
Mof_C 	C 	0.5862	0.5435	0.6112	-0.147
Mof_C 	C 	0.5978	0.5459	0.5729	0.065
Mof_C 	C 	0.6129	0.5457	0.5887	-0.026
Mof_C 	C 	0.6243	0.5441	0.5458	-0.04
Mof_H 	H 	0.6346	0.5457	0.5512	0.048
Mof_C 	C 	0.6188	0.5403	0.5007	-0.061
Mof_H 	H 	0.6257	0.539	0.4757	0.051
Mof_C 	C 	0.6033	0.5382	0.4887	0.011
Mof_H 	H 	0.6003	0.5319	0.4569	0.03
Mof_C 	C 	0.5937	0.5451	0.5218	-0.112
Mof_H 	H 	0.5836	0.5498	0.5136	0.068
Mof_C 	C 	0.6113	0.5614	0.7213	-0.018
Mof_H 	H 	0.6214	0.5592	0.73	0.042
Mof_C 	C 	0.6009	0.5693	0.755	-0.091
Mof_H 	H 	0.6036	0.5808	0.7866	0.061
Mof_C 	C 	0.5859	0.5606	0.743	0.038
Mof_H 	H 	0.5791	0.5554	0.7683	0.011
Mof_C 	C 	0.5803	0.5587	0.7006	-0.132
Mof_H 	H 	0.57	0.5611	0.6951	0.072
Mof_C 	C 	0.5703	0.5334	0.5971	0.3
Mof_C 	C 	0.5644	0.4493	0.5989	-0.398
Mof_H 	H 	0.57	0.3988	0.6114	0.166
Mof_C 	C 	0.5499	0.4327	0.5826	0.302
Mof_H 	H 	0.5465	0.3701	0.5801	-0.076
Mof_C 	C 	0.5403	0.5064	0.5698	-0.418
Mof_C 	C 	0.5471	0.5965	0.5699	0.31
Mof_H 	H 	0.5418	0.6485	0.5578	-0.101
Mof_C 	C 	0.5613	0.611	0.5871	-0.385
Mof_H 	H 	0.5649	0.6727	0.592	0.158
Mof_C 	C 	0.5247	0.4867	0.5532	0.724
Mof_C 	C 	0.6667	0.3029	0.8377	-0.099
Mof_C 	C 	0.6606	0.2218	0.8541	0.061
Mof_C 	C 	0.6441	0.2145	0.8674	-0.022
Mof_C 	C 	0.6351	0.2906	0.8596	-0.004
Mof_C 	C 	0.6407	0.3759	0.8372	-0.013
Mof_C 	C 	0.6576	0.386	0.8277	0.051
Mof_C 	C 	0.6623	0.4744	0.8058	-0.109
Mof_H 	H 	0.6722	0.4825	0.7957	0.071
Mof_C 	C 	0.6523	0.5441	0.8001	0.013
Mof_H 	H 	0.6556	0.6	0.7855	0.028
Mof_C 	C 	0.6378	0.5402	0.8138	-0.069
Mof_H 	H 	0.6317	0.5937	0.81	0.055
Mof_C 	C 	0.6323	0.4648	0.832	-0.033
Mof_H 	H 	0.6224	0.4662	0.8425	0.046
Mof_C 	C 	0.6191	0.283	0.8711	-0.006
Mof_C 	C 	0.6143	0.2848	0.9215	-0.019
Mof_C 	C 	0.5992	0.2854	0.9349	0.059
Mof_C 	C 	0.5881	0.2835	0.9003	-0.111
Mof_C 	C 	0.5911	0.2821	0.8499	0.065
Mof_C 	C 	0.6074	0.2843	0.8391	-0.014
Mof_C 	C 	0.6118	0.276	0.7887	-0.049
Mof_H 	H 	0.6219	0.2723	0.7801	0.054
Mof_C 	C 	0.5999	0.2749	0.7523	-0.057
Mof_H 	H 	0.6025	0.2702	0.72	0.048
Mof_C 	C 	0.585	0.2805	0.7658	-0
Mof_H 	H 	0.5775	0.2846	0.7428	0.023
Mof_C 	C 	0.5815	0.2799	0.815	-0.116
Mof_H 	H 	0.5713	0.2779	0.8231	0.066
Mof_C 	C 	0.5949	0.2868	0.9834	-0.09
Mof_H 	H 	0.5848	0.2821	0.9921	0.065
Mof_C 	C 	0.6066	0.2958	0.0196	-0.025
Mof_H 	H 	0.6043	0.3004	0.0521	0.044
Mof_C 	C 	0.622	0.2972	0.003	-0.047
Mof_H 	H 	0.6294	0.3008	0.0264	0.047
Mof_C 	C 	0.6264	0.2942	0.9601	-0.042
Mof_H 	H 	0.6366	0.2975	0.9523	0.049
Mof_C 	C 	0.5709	0.2909	0.9158	0.208
Mof_C 	C 	0.5645	0.2127	0.9347	-0.288
Mof_H 	H 	0.5697	0.155	0.9366	0.126
Mof_C 	C 	0.5494	0.2219	0.9518	0.211
Mof_H 	H 	0.5449	0.1701	0.9671	-0.046
Mof_C 	C 	0.5415	0.3027	0.9464	-0.323
Mof_C 	C 	0.5491	0.3783	0.9243	0.224
Mof_H 	H 	0.5437	0.4335	0.9174	-0.055
Mof_C 	C 	0.5639	0.3759	0.9124	-0.309
Mof_H 	H 	0.569	0.4305	0.9023	0.136
Mof_C 	C 	0.5253	0.3151	0.9645	0.615
Mof_O 	O 	0.7367	0.5082	0.7288	-0.6
Mof_O 	O 	0.7346	0.3698	0.6819	-0.61
Mof_O 	O 	0.5165	0.5616	0.5551	-0.667
Mof_O 	O 	0.52026	0.4124	0.5452	-0.672
Mof_O 	O 	0.51851	0.3888	0.9579	-0.675
Mof_O 	O 	0.5199	0.2428	0.9865	-0.604
Mof_O 	O 	0.7366	0.4407	0.8214	-0.562
Mof_O 	O 	0.7375	0.3149	0.7758	-0.582
Mof_Tb	Tb	0.75101	0.56192	0.78702	2.076
Mof_C 	C 	0.6395	0.6292	0.3918	-0.05
Mof_H 	H 	0.6296	0.6249	0.4027	0.049
Mof_C 	C 	0.6485	0.5566	0.3995	-0.051
Mof_H 	H 	0.6446	0.4991	0.4104	0.049
Mof_C 	C 	0.6647	0.5639	0.3914	-0.017
Mof_H 	H 	0.6712	0.5166	0.4022	0.029
Mof_C 	C 	0.6701	0.6435	0.367	-0.096
Mof_H 	H 	0.6802	0.6458	0.3588	0.059
Mof_C 	C 	0.6826	0.8196	0.3284	0.131
Mof_C 	C 	0.6911	0.7675	0.293	-0.21
Mof_H 	H 	0.6862	0.72	0.2756	0.1
Mof_C 	C 	0.7062	0.7848	0.2832	0.16
Mof_H 	H 	0.7109	0.7541	0.2576	-0.035
Mof_C 	C 	0.7142	0.8466	0.3112	-0.265
Mof_C 	C 	0.7061	0.8988	0.3504	0.141
Mof_H 	H 	0.7113	0.9421	0.3697	-0.021
Mof_C 	C 	0.6916	0.8826	0.3572	-0.207
Mof_H 	H 	0.6868	0.9142	0.3824	0.1
Mof_C 	C 	0.7298	0.8681	0.3018	0.539
Mof_C 	C 	0.7307	0.9481	0.1995	0.517
Mof_C 	C 	0.7128	0.9718	0.1859	-0.18
Mof_C 	C 	0.7056	0.9318	0.1548	0.15
Mof_H 	H 	0.7105	0.8839	0.1377	-0.024
Mof_C 	C 	0.6914	0.95	0.143	-0.193
Mof_H 	H 	0.6873	0.9217	0.1158	0.095
Mof_C 	C 	0.6824	0.0128	0.1715	0.097
Mof_C 	C 	0.6906	0.0588	0.2092	-0.157
Mof_H 	H 	0.6854	0.0997	0.2296	0.082
Mof_C 	C 	0.7055	0.0465	0.217	0.061
Mof_H 	H 	0.7108	0.0814	0.2398	0.015
Mof_C 	C 	0.6563	0.9472	0.1737	0.04
Mof_C 	C 	0.6403	0.9591	0.1593	0.021
Mof_C 	C 	0.6351	0.0421	0.1441	-0.039
Mof_C 	C 	0.6446	0.1217	0.1369	0.007
Mof_C 	C 	0.6611	0.1173	0.1441	0.034
Mof_C 	C 	0.666	0.0236	0.1642	-0.08
Mof_C 	C 	0.6614	0.86	0.1969	-0.08
Mof_H 	H 	0.6712	0.8583	0.2084	0.064
Mof_C 	C 	0.6529	0.7824	0.2029	-0.023
Mof_H 	H 	0.6568	0.7256	0.2152	0.04
Mof_C 	C 	0.6374	0.7927	0.1889	-0.033
Mof_H 	H 	0.6311	0.7402	0.1929	0.044
Mof_C 	C 	0.6313	0.8742	0.1703	-0.068
Mof_H 	H 	0.621	0.876	0.1645	0.061
Mof_C 	C 	0.6391	0.2086	0.1183	-0.062
Mof_H 	H 	0.6289	0.215	0.1127	0.054
Mof_C 	C 	0.6486	0.2858	0.108	-0.051
Mof_H 	H 	0.6448	0.3434	0.0965	0.049
Mof_C 	C 	0.6652	0.2716	0.1166	-0.014
Mof_H 	H 	0.6719	0.3203	0.1084	0.031
Mof_C 	C 	0.6705	0.1925	0.1352	-0.094
Mof_H 	H 	0.6807	0.1875	0.1423	0.06
Mof_C 	C 	0.6183	0.0485	0.1316	0.019
Mof_C 	C 	0.6072	0.056	0.1711	-0.044
Mof_C 	C 	0.5917	0.0524	0.1602	0.077
Mof_C 	C 	0.5862	0.0435	0.1112	-0.157
Mof_C 	C 	0.5978	0.0459	0.0729	0.083
Mof_C 	C 	0.6129	0.0457	0.0887	-0.046
Mof_C 	C 	0.6243	0.0441	0.0458	-0.014
Mof_H 	H 	0.6346	0.0457	0.0512	0.036
Mof_C 	C 	0.6188	0.0403	0.0007	-0.108
Mof_H 	H 	0.6257	0.039	0.9757	0.067
Mof_C 	C 	0.6033	0.0382	0.9887	0.061
Mof_H 	H 	0.6003	0.0319	0.9569	0.01
Mof_C 	C 	0.5937	0.0451	0.0218	-0.154
Mof_H 	H 	0.5836	0.0498	0.0136	0.079
Mof_C 	C 	0.6113	0.0614	0.2213	-0.012
Mof_H 	H 	0.6214	0.0592	0.23	0.038
Mof_C 	C 	0.6009	0.0693	0.255	-0.1
Mof_H 	H 	0.6036	0.0808	0.2866	0.062
Mof_C 	C 	0.5859	0.0606	0.243	0.045
Mof_H 	H 	0.5791	0.0554	0.2683	0.006
Mof_C 	C 	0.5803	0.0587	0.2006	-0.141
Mof_H 	H 	0.57	0.0611	0.1951	0.073
Mof_C 	C 	0.5703	0.0334	0.0971	0.302
Mof_C 	C 	0.5644	0.9493	0.0989	-0.403
Mof_H 	H 	0.57	0.8988	0.1114	0.171
Mof_C 	C 	0.5499	0.9327	0.0826	0.339
Mof_H 	H 	0.5465	0.8701	0.0801	-0.088
Mof_C 	C 	0.5403	0.0064	0.0698	-0.465
Mof_C 	C 	0.5471	0.0965	0.0699	0.335
Mof_H 	H 	0.5418	0.1485	0.0578	-0.111
Mof_C 	C 	0.5613	0.111	0.0871	-0.403
Mof_H 	H 	0.5649	0.1727	0.092	0.163
Mof_C 	C 	0.5247	0.9867	0.0532	0.766
Mof_C 	C 	0.6667	0.8029	0.3377	-0.093
Mof_C 	C 	0.6606	0.7218	0.3541	0.051
Mof_C 	C 	0.6441	0.7145	0.3674	-0.01
Mof_C 	C 	0.6351	0.7906	0.3596	-0.007
Mof_C 	C 	0.6407	0.8759	0.3372	-0.016
Mof_C 	C 	0.6576	0.886	0.3277	0.048
Mof_C 	C 	0.6623	0.9744	0.3058	-0.094
Mof_H 	H 	0.6722	0.9825	0.2957	0.069
Mof_C 	C 	0.6523	0.0441	0.3001	0.005
Mof_H 	H 	0.6556	0.1	0.2855	0.03
Mof_C 	C 	0.6378	0.0402	0.3138	-0.09
Mof_H 	H 	0.6317	0.0937	0.31	0.061
Mof_C 	C 	0.6323	0.9648	0.332	-0.009
Mof_H 	H 	0.6224	0.9662	0.3425	0.042
Mof_C 	C 	0.6191	0.783	0.3711	-0.006
Mof_C 	C 	0.6143	0.7848	0.4215	-0.016
Mof_C 	C 	0.5992	0.7854	0.4349	0.059
Mof_C 	C 	0.5881	0.7835	0.4003	-0.11
Mof_C 	C 	0.5911	0.7821	0.3499	0.065
Mof_C 	C 	0.6074	0.7843	0.3391	-0.014
Mof_C 	C 	0.6118	0.776	0.2887	-0.048
Mof_H 	H 	0.6219	0.7723	0.2801	0.054
Mof_C 	C 	0.5999	0.7749	0.2523	-0.056
Mof_H 	H 	0.6025	0.7702	0.22	0.049
Mof_C 	C 	0.585	0.7805	0.2658	0.001
Mof_H 	H 	0.5775	0.7846	0.2428	0.025
Mof_C 	C 	0.5815	0.7799	0.315	-0.115
Mof_H 	H 	0.5713	0.7779	0.3231	0.068
Mof_C 	C 	0.5949	0.7868	0.4834	-0.093
Mof_H 	H 	0.5848	0.7821	0.4921	0.065
Mof_C 	C 	0.6066	0.7958	0.5196	-0.023
Mof_H 	H 	0.6043	0.8004	0.5521	0.044
Mof_C 	C 	0.622	0.7972	0.503	-0.037
Mof_H 	H 	0.6294	0.8008	0.5264	0.045
Mof_C 	C 	0.6264	0.7942	0.4601	-0.052
Mof_H 	H 	0.6366	0.7975	0.4523	0.053
Mof_C 	C 	0.5709	0.7909	0.4158	0.207
Mof_C 	C 	0.5645	0.7127	0.4347	-0.286
Mof_H 	H 	0.5697	0.655	0.4366	0.127
Mof_C 	C 	0.5494	0.7219	0.4518	0.209
Mof_H 	H 	0.5449	0.6701	0.4671	-0.045
Mof_C 	C 	0.5415	0.8027	0.4464	-0.318
Mof_C 	C 	0.5491	0.8783	0.4243	0.222
Mof_H 	H 	0.5437	0.9335	0.4174	-0.05
Mof_C 	C 	0.5639	0.8759	0.4124	-0.307
Mof_H 	H 	0.569	0.9305	0.4023	0.139
Mof_C 	C 	0.5253	0.8151	0.4645	0.612
Mof_O 	O 	0.7367	0.0082	0.2288	-0.607
Mof_O 	O 	0.7346	0.8698	0.1819	-0.611
Mof_O 	O 	0.5165	0.0616	0.0551	-0.685
Mof_O 	O 	0.52026	0.9124	0.0452	-0.684
Mof_O 	O 	0.51851	0.8888	0.4579	-0.663
Mof_O 	O 	0.5199	0.7428	0.4865	-0.604
Mof_O 	O 	0.7366	0.9407	0.3214	-0.555
Mof_O 	O 	0.7375	0.8149	0.2758	-0.58
Mof_Tb	Tb	0.75101	0.06192	0.28702	2.062
Mof_C 	C 	0.8605	0.8708	0.3918	-0.085
Mof_H 	H 	0.8704	0.8751	0.4027	0.063
Mof_C 	C 	0.8515	0.9434	0.3995	0.002
Mof_H 	H 	0.8554	0.0009	0.4104	0.021
Mof_C 	C 	0.8353	0.9361	0.3914	-0.047
Mof_H 	H 	0.8288	0.9834	0.4022	0.044
Mof_C 	C 	0.8299	0.8565	0.367	-0.075
Mof_H 	H 	0.8198	0.8542	0.3588	0.053
Mof_C 	C 	0.8174	0.6804	0.3284	0.127
Mof_C 	C 	0.8089	0.7325	0.293	-0.208
Mof_H 	H 	0.8138	0.78	0.2756	0.1
Mof_C 	C 	0.7938	0.7152	0.2832	0.159
Mof_H 	H 	0.7891	0.7459	0.2576	-0.035
Mof_C 	C 	0.7858	0.6534	0.3112	-0.266
Mof_C 	C 	0.7939	0.6012	0.3504	0.138
Mof_H 	H 	0.7887	0.5579	0.3697	-0.023
Mof_C 	C 	0.8084	0.6174	0.3572	-0.205
Mof_H 	H 	0.8132	0.5858	0.3824	0.097
Mof_C 	C 	0.7702	0.6319	0.3018	0.54
Mof_C 	C 	0.7693	0.5519	0.1995	0.513
Mof_C 	C 	0.7872	0.5282	0.1859	-0.21
Mof_C 	C 	0.7944	0.5682	0.1548	0.187
Mof_H 	H 	0.7895	0.6161	0.1377	-0.037
Mof_C 	C 	0.8086	0.55	0.143	-0.233
Mof_H 	H 	0.8127	0.5783	0.1158	0.106
Mof_C 	C 	0.8176	0.4872	0.1715	0.125
Mof_C 	C 	0.8094	0.4412	0.2092	-0.18
Mof_H 	H 	0.8146	0.4003	0.2296	0.091
Mof_C 	C 	0.7945	0.4535	0.217	0.093
Mof_H 	H 	0.7892	0.4186	0.2398	0.006
Mof_C 	C 	0.8437	0.5528	0.1737	0.038
Mof_C 	C 	0.8597	0.5409	0.1593	0.003
Mof_C 	C 	0.8649	0.4579	0.1441	-0.023
Mof_C 	C 	0.8554	0.3783	0.1369	0
Mof_C 	C 	0.8389	0.3827	0.1441	0.039
Mof_C 	C 	0.834	0.4764	0.1642	-0.08
Mof_C 	C 	0.8386	0.64	0.1969	-0.083
Mof_H 	H 	0.8288	0.6417	0.2084	0.063
Mof_C 	C 	0.8471	0.7176	0.2029	-0.02
Mof_H 	H 	0.8432	0.7744	0.2152	0.039
Mof_C 	C 	0.8626	0.7073	0.1889	-0.04
Mof_H 	H 	0.8689	0.7598	0.1929	0.046
Mof_C 	C 	0.8687	0.6258	0.1703	-0.06
Mof_H 	H 	0.879	0.624	0.1645	0.055
Mof_C 	C 	0.8609	0.2914	0.1183	-0.058
Mof_H 	H 	0.8711	0.285	0.1127	0.052
Mof_C 	C 	0.8514	0.2142	0.108	-0.054
Mof_H 	H 	0.8552	0.1566	0.0965	0.047
Mof_C 	C 	0.8348	0.2284	0.1166	-0.011
Mof_H 	H 	0.8281	0.1797	0.1084	0.028
Mof_C 	C 	0.8295	0.3075	0.1352	-0.098
Mof_H 	H 	0.8193	0.3125	0.1423	0.061
Mof_C 	C 	0.8817	0.4515	0.1316	0.016
Mof_C 	C 	0.8928	0.444	0.1711	-0.04
Mof_C 	C 	0.9083	0.4476	0.1602	0.077
Mof_C 	C 	0.9138	0.4565	0.1112	-0.156
Mof_C 	C 	0.9022	0.4541	0.0729	0.084
Mof_C 	C 	0.8871	0.4543	0.0887	-0.043
Mof_C 	C 	0.8757	0.4559	0.0458	-0.012
Mof_H 	H 	0.8654	0.4543	0.0512	0.037
Mof_C 	C 	0.8812	0.4597	0.0007	-0.109
Mof_H 	H 	0.8743	0.461	0.9757	0.07
Mof_C 	C 	0.8967	0.4618	0.9887	0.065
Mof_H 	H 	0.8997	0.4681	0.9569	0.011
Mof_C 	C 	0.9063	0.4549	0.0218	-0.155
Mof_H 	H 	0.9164	0.4502	0.0136	0.081
Mof_C 	C 	0.8887	0.4386	0.2213	-0.013
Mof_H 	H 	0.8786	0.4408	0.23	0.04
Mof_C 	C 	0.8991	0.4307	0.255	-0.097
Mof_H 	H 	0.8964	0.4192	0.2866	0.063
Mof_C 	C 	0.9141	0.4394	0.243	0.044
Mof_H 	H 	0.9209	0.4446	0.2683	0.009
Mof_C 	C 	0.9197	0.4413	0.2006	-0.138
Mof_H 	H 	0.93	0.4389	0.1951	0.074
Mof_C 	C 	0.9297	0.4666	0.0971	0.307
Mof_C 	C 	0.9356	0.5507	0.0989	-0.404
Mof_H 	H 	0.93	0.6012	0.1114	0.169
Mof_C 	C 	0.9501	0.5673	0.0826	0.306
Mof_H 	H 	0.9535	0.6299	0.0801	-0.078
Mof_C 	C 	0.9597	0.4936	0.0698	-0.421
Mof_C 	C 	0.9529	0.4035	0.0699	0.314
Mof_H 	H 	0.9582	0.3515	0.0578	-0.104
Mof_C 	C 	0.9387	0.389	0.0871	-0.391
Mof_H 	H 	0.9351	0.3273	0.092	0.159
Mof_C 	C 	0.9753	0.5133	0.0532	0.724
Mof_C 	C 	0.8333	0.6971	0.3377	-0.085
Mof_C 	C 	0.8394	0.7782	0.3541	0.037
Mof_C 	C 	0.8559	0.7855	0.3674	0.009
Mof_C 	C 	0.8649	0.7094	0.3596	-0.02
Mof_C 	C 	0.8593	0.6241	0.3372	-0.002
Mof_C 	C 	0.8424	0.614	0.3277	0.041
Mof_C 	C 	0.8377	0.5256	0.3058	-0.098
Mof_H 	H 	0.8278	0.5175	0.2957	0.067
Mof_C 	C 	0.8477	0.4559	0.3001	-0
Mof_H 	H 	0.8444	0.4	0.2855	0.033
Mof_C 	C 	0.8622	0.4598	0.3138	-0.054
Mof_H 	H 	0.8683	0.4063	0.31	0.05
Mof_C 	C 	0.8677	0.5352	0.332	-0.046
Mof_H 	H 	0.8776	0.5338	0.3425	0.051
Mof_C 	C 	0.8809	0.717	0.3711	-0
Mof_C 	C 	0.8857	0.7152	0.4215	-0.02
Mof_C 	C 	0.9008	0.7146	0.4349	0.06
Mof_C 	C 	0.9119	0.7165	0.4003	-0.113
Mof_C 	C 	0.9089	0.7179	0.3499	0.067
Mof_C 	C 	0.8926	0.7157	0.3391	-0.018
Mof_C 	C 	0.8882	0.724	0.2887	-0.046
Mof_H 	H 	0.8781	0.7277	0.2801	0.053
Mof_C 	C 	0.9001	0.7251	0.2523	-0.059
Mof_H 	H 	0.8975	0.7298	0.22	0.049
Mof_C 	C 	0.915	0.7195	0.2658	0.002
Mof_H 	H 	0.9225	0.7154	0.2428	0.023
Mof_C 	C 	0.9185	0.7201	0.315	-0.118
Mof_H 	H 	0.9287	0.7221	0.3231	0.068
Mof_C 	C 	0.9051	0.7132	0.4834	-0.095
Mof_H 	H 	0.9152	0.7179	0.4921	0.065
Mof_C 	C 	0.8934	0.7042	0.5196	-0.023
Mof_H 	H 	0.8957	0.6996	0.5521	0.043
Mof_C 	C 	0.878	0.7028	0.503	-0.039
Mof_H 	H 	0.8706	0.6992	0.5264	0.044
Mof_C 	C 	0.8736	0.7058	0.4601	-0.05
Mof_H 	H 	0.8634	0.7025	0.4523	0.051
Mof_C 	C 	0.9291	0.7091	0.4158	0.209
Mof_C 	C 	0.9355	0.7873	0.4347	-0.288
Mof_H 	H 	0.9303	0.845	0.4366	0.129
Mof_C 	C 	0.9506	0.7781	0.4518	0.212
Mof_H 	H 	0.9551	0.8299	0.4671	-0.044
Mof_C 	C 	0.9585	0.6973	0.4464	-0.323
Mof_C 	C 	0.9509	0.6217	0.4243	0.225
Mof_H 	H 	0.9563	0.5665	0.4174	-0.056
Mof_C 	C 	0.9361	0.6241	0.4124	-0.31
Mof_H 	H 	0.931	0.5695	0.4023	0.136
Mof_C 	C 	0.9747	0.6849	0.4645	0.616
Mof_O 	O 	0.7633	0.4918	0.2288	-0.6
Mof_O 	O 	0.7654	0.6302	0.1819	-0.611
Mof_O 	O 	0.9835	0.4384	0.0551	-0.667
Mof_O 	O 	0.97974	0.5876	0.0452	-0.673
Mof_O 	O 	0.98149	0.6112	0.4579	-0.675
Mof_O 	O 	0.9801	0.7572	0.4865	-0.607
Mof_O 	O 	0.7634	0.5593	0.3214	-0.561
Mof_O 	O 	0.7625	0.6851	0.2758	-0.581
Mof_Tb	Tb	0.74899	0.43808	0.28702	2.074
Mof_C 	C 	0.8605	0.3708	0.8918	-0.054
Mof_H 	H 	0.8704	0.3751	0.9027	0.051
Mof_C 	C 	0.8515	0.4434	0.8995	-0.048
Mof_H 	H 	0.8554	0.5009	0.9104	0.047
Mof_C 	C 	0.8353	0.4361	0.8914	-0.02
Mof_H 	H 	0.8288	0.4834	0.9022	0.03
Mof_C 	C 	0.8299	0.3565	0.867	-0.093
Mof_H 	H 	0.8198	0.3542	0.8588	0.058
Mof_C 	C 	0.8174	0.1804	0.8284	0.13
Mof_C 	C 	0.8089	0.2325	0.793	-0.211
Mof_H 	H 	0.8138	0.28	0.7756	0.101
Mof_C 	C 	0.7938	0.2152	0.7832	0.16
Mof_H 	H 	0.7891	0.2459	0.7576	-0.036
Mof_C 	C 	0.7858	0.1534	0.8112	-0.268
Mof_C 	C 	0.7939	0.1012	0.8504	0.139
Mof_H 	H 	0.7887	0.0579	0.8697	-0.026
Mof_C 	C 	0.8084	0.1174	0.8572	-0.208
Mof_H 	H 	0.8132	0.0858	0.8824	0.095
Mof_C 	C 	0.7702	0.1319	0.8018	0.541
Mof_C 	C 	0.7693	0.0519	0.6995	0.51
Mof_C 	C 	0.7872	0.0282	0.6859	-0.245
Mof_C 	C 	0.7944	0.0682	0.6548	0.229
Mof_H 	H 	0.7895	0.1161	0.6377	-0.052
Mof_C 	C 	0.8086	0.05	0.643	-0.278
Mof_H 	H 	0.8127	0.0783	0.6158	0.12
Mof_C 	C 	0.8176	0.9872	0.6715	0.156
Mof_C 	C 	0.8094	0.9412	0.7092	-0.206
Mof_H 	H 	0.8146	0.9003	0.7296	0.101
Mof_C 	C 	0.7945	0.9535	0.717	0.13
Mof_H 	H 	0.7892	0.9186	0.7398	-0.005
Mof_C 	C 	0.8437	0.0528	0.6737	0.036
Mof_C 	C 	0.8597	0.0409	0.6593	-0.02
Mof_C 	C 	0.8649	0.9579	0.6441	0.002
Mof_C 	C 	0.8554	0.8783	0.6369	-0.01
Mof_C 	C 	0.8389	0.8827	0.6441	0.047
Mof_C 	C 	0.834	0.9764	0.6642	-0.081
Mof_C 	C 	0.8386	0.14	0.6969	-0.087
Mof_H 	H 	0.8288	0.1417	0.7084	0.063
Mof_C 	C 	0.8471	0.2176	0.7029	-0.014
Mof_H 	H 	0.8432	0.2744	0.7152	0.037
Mof_C 	C 	0.8626	0.2073	0.6889	-0.048
Mof_H 	H 	0.8689	0.2598	0.6929	0.049
Mof_C 	C 	0.8687	0.1258	0.6703	-0.048
Mof_H 	H 	0.879	0.124	0.6645	0.048
Mof_C 	C 	0.8609	0.7914	0.6183	-0.05
Mof_H 	H 	0.8711	0.785	0.6127	0.05
Mof_C 	C 	0.8514	0.7142	0.608	-0.059
Mof_H 	H 	0.8552	0.6566	0.5965	0.053
Mof_C 	C 	0.8348	0.7284	0.6166	-0.004
Mof_H 	H 	0.8281	0.6797	0.6084	0.028
Mof_C 	C 	0.8295	0.8075	0.6352	-0.105
Mof_H 	H 	0.8193	0.8125	0.6423	0.065
Mof_C 	C 	0.8817	0.9515	0.6316	0.002
Mof_C 	C 	0.8928	0.944	0.6711	-0.029
Mof_C 	C 	0.9083	0.9476	0.6602	0.072
Mof_C 	C 	0.9138	0.9565	0.6112	-0.145
Mof_C 	C 	0.9022	0.9541	0.5729	0.065
Mof_C 	C 	0.8871	0.9543	0.5887	-0.021
Mof_C 	C 	0.8757	0.9559	0.5458	-0.04
Mof_H 	H 	0.8654	0.9543	0.5512	0.051
Mof_C 	C 	0.8812	0.9597	0.5007	-0.058
Mof_H 	H 	0.8743	0.961	0.4757	0.053
Mof_C 	C 	0.8967	0.9618	0.4887	0.011
Mof_H 	H 	0.8997	0.9681	0.4569	0.033
Mof_C 	C 	0.9063	0.9549	0.5218	-0.109
Mof_H 	H 	0.9164	0.9502	0.5136	0.069
Mof_C 	C 	0.8887	0.9386	0.7213	-0.02
Mof_H 	H 	0.8786	0.9408	0.73	0.045
Mof_C 	C 	0.8991	0.9307	0.755	-0.086
Mof_H 	H 	0.8964	0.9192	0.7866	0.061
Mof_C 	C 	0.9141	0.9394	0.743	0.036
Mof_H 	H 	0.9209	0.9446	0.7683	0.014
Mof_C 	C 	0.9197	0.9413	0.7006	-0.129
Mof_H 	H 	0.93	0.9389	0.6951	0.073
Mof_C 	C 	0.9297	0.9666	0.5971	0.307
Mof_C 	C 	0.9356	0.0507	0.5989	-0.401
Mof_H 	H 	0.93	0.1012	0.6114	0.164
Mof_C 	C 	0.9501	0.0673	0.5826	0.267
Mof_H 	H 	0.9535	0.1299	0.5801	-0.065
Mof_C 	C 	0.9597	0.9936	0.5698	-0.371
Mof_C 	C 	0.9529	0.9035	0.5699	0.288
Mof_H 	H 	0.9582	0.8515	0.5578	-0.093
Mof_C 	C 	0.9387	0.889	0.5871	-0.374
Mof_H 	H 	0.9351	0.8273	0.592	0.153
Mof_C 	C 	0.9753	0.0133	0.5532	0.679
Mof_C 	C 	0.8333	0.1971	0.8377	-0.092
Mof_C 	C 	0.8394	0.2782	0.8541	0.048
Mof_C 	C 	0.8559	0.2855	0.8674	-0.005
Mof_C 	C 	0.8649	0.2094	0.8596	-0.017
Mof_C 	C 	0.8593	0.1241	0.8372	0.001
Mof_C 	C 	0.8424	0.114	0.8277	0.044
Mof_C 	C 	0.8377	0.0256	0.8058	-0.115
Mof_H 	H 	0.8278	0.0175	0.7957	0.068
Mof_C 	C 	0.8477	0.9559	0.8001	0.009
Mof_H 	H 	0.8444	0.9	0.7855	0.031
Mof_C 	C 	0.8622	0.9598	0.8138	-0.029
Mof_H 	H 	0.8683	0.9063	0.81	0.043
Mof_C 	C 	0.8677	0.0352	0.832	-0.074
Mof_H 	H 	0.8776	0.0338	0.8425	0.056
Mof_C 	C 	0.8809	0.217	0.8711	-0.001
Mof_C 	C 	0.8857	0.2152	0.9215	-0.022
Mof_C 	C 	0.9008	0.2146	0.9349	0.06
Mof_C 	C 	0.9119	0.2165	0.9003	-0.112
Mof_C 	C 	0.9089	0.2179	0.8499	0.066
Mof_C 	C 	0.8926	0.2157	0.8391	-0.018
Mof_C 	C 	0.8882	0.224	0.7887	-0.047
Mof_H 	H 	0.8781	0.2277	0.7801	0.053
Mof_C 	C 	0.9001	0.2251	0.7523	-0.06
Mof_H 	H 	0.8975	0.2298	0.72	0.048
Mof_C 	C 	0.915	0.2195	0.7658	0
Mof_H 	H 	0.9225	0.2154	0.7428	0.021
Mof_C 	C 	0.9185	0.2201	0.815	-0.118
Mof_H 	H 	0.9287	0.2221	0.8231	0.067
Mof_C 	C 	0.9051	0.2132	0.9834	-0.091
Mof_H 	H 	0.9152	0.2179	0.9921	0.065
Mof_C 	C 	0.8934	0.2042	0.0196	-0.025
Mof_H 	H 	0.8957	0.1996	0.0521	0.043
Mof_C 	C 	0.878	0.2028	0.003	-0.049
Mof_H 	H 	0.8706	0.1992	0.0264	0.046
Mof_C 	C 	0.8736	0.2058	0.9601	-0.041
Mof_H 	H 	0.8634	0.2025	0.9523	0.048
Mof_C 	C 	0.9291	0.2091	0.9158	0.207
Mof_C 	C 	0.9355	0.2873	0.9347	-0.287
Mof_H 	H 	0.9303	0.345	0.9366	0.128
Mof_C 	C 	0.9506	0.2781	0.9518	0.211
Mof_H 	H 	0.9551	0.3299	0.9671	-0.045
Mof_C 	C 	0.9585	0.1973	0.9464	-0.322
Mof_C 	C 	0.9509	0.1217	0.9243	0.222
Mof_H 	H 	0.9563	0.0665	0.9174	-0.059
Mof_C 	C 	0.9361	0.1241	0.9124	-0.309
Mof_H 	H 	0.931	0.0695	0.9023	0.132
Mof_C 	C 	0.9747	0.1849	0.9645	0.612
Mof_O 	O 	0.7633	0.9918	0.7288	-0.593
Mof_O 	O 	0.7654	0.1302	0.6819	-0.61
Mof_O 	O 	0.9835	0.9384	0.5551	-0.648
Mof_O 	O 	0.97974	0.0876	0.5452	-0.661
Mof_O 	O 	0.98149	0.1112	0.9579	-0.673
Mof_O 	O 	0.9801	0.2572	0.9865	-0.603
Mof_O 	O 	0.7634	0.0593	0.8214	-0.568
Mof_O 	O 	0.7625	0.1851	0.7758	-0.583
Mof_Tb	Tb	0.74899	0.93808	0.78702	2.088
Mof_C 	C 	0.3605	0.8708	0.8918	-0.085
Mof_H 	H 	0.3704	0.8751	0.9027	0.063
Mof_C 	C 	0.3515	0.9434	0.8995	0.003
Mof_H 	H 	0.3554	0.0009	0.9104	0.02
Mof_C 	C 	0.3353	0.9361	0.8914	-0.047
Mof_H 	H 	0.3288	0.9834	0.9022	0.045
Mof_C 	C 	0.3299	0.8565	0.867	-0.074
Mof_H 	H 	0.3198	0.8542	0.8588	0.053
Mof_C 	C 	0.3174	0.6804	0.8284	0.127
Mof_C 	C 	0.3089	0.7325	0.793	-0.208
Mof_H 	H 	0.3138	0.78	0.7756	0.1
Mof_C 	C 	0.2938	0.7152	0.7832	0.159
Mof_H 	H 	0.2891	0.7459	0.7576	-0.035
Mof_C 	C 	0.2858	0.6534	0.8112	-0.265
Mof_C 	C 	0.2939	0.6012	0.8504	0.138
Mof_H 	H 	0.2887	0.5579	0.8697	-0.022
Mof_C 	C 	0.3084	0.6174	0.8572	-0.205
Mof_H 	H 	0.3132	0.5858	0.8824	0.097
Mof_C 	C 	0.2702	0.6319	0.8018	0.54
Mof_C 	C 	0.2693	0.5519	0.6995	0.514
Mof_C 	C 	0.2872	0.5282	0.6859	-0.21
Mof_C 	C 	0.2944	0.5682	0.6548	0.187
Mof_H 	H 	0.2895	0.6161	0.6377	-0.037
Mof_C 	C 	0.3086	0.55	0.643	-0.233
Mof_H 	H 	0.3127	0.5783	0.6158	0.106
Mof_C 	C 	0.3176	0.4872	0.6715	0.125
Mof_C 	C 	0.3094	0.4412	0.7092	-0.18
Mof_H 	H 	0.3146	0.4003	0.7296	0.091
Mof_C 	C 	0.2945	0.4535	0.717	0.093
Mof_H 	H 	0.2892	0.4186	0.7398	0.006
Mof_C 	C 	0.3437	0.5528	0.6737	0.039
Mof_C 	C 	0.3597	0.5409	0.6593	0.001
Mof_C 	C 	0.3649	0.4579	0.6441	-0.019
Mof_C 	C 	0.3554	0.3783	0.6369	-0.001
Mof_C 	C 	0.3389	0.3827	0.6441	0.04
Mof_C 	C 	0.334	0.4764	0.6642	-0.08
Mof_C 	C 	0.3386	0.64	0.6969	-0.084
Mof_H 	H 	0.3288	0.6417	0.7084	0.064
Mof_C 	C 	0.3471	0.7176	0.7029	-0.019
Mof_H 	H 	0.3432	0.7744	0.7152	0.038
Mof_C 	C 	0.3626	0.7073	0.6889	-0.041
Mof_H 	H 	0.3689	0.7598	0.6929	0.046
Mof_C 	C 	0.3687	0.6258	0.6703	-0.058
Mof_H 	H 	0.379	0.624	0.6645	0.055
Mof_C 	C 	0.3609	0.2914	0.6183	-0.056
Mof_H 	H 	0.3711	0.285	0.6127	0.052
Mof_C 	C 	0.3514	0.2142	0.608	-0.055
Mof_H 	H 	0.3552	0.1566	0.5965	0.048
Mof_C 	C 	0.3348	0.2284	0.6166	-0.01
Mof_H 	H 	0.3281	0.1797	0.6084	0.028
Mof_C 	C 	0.3295	0.3075	0.6352	-0.099
Mof_H 	H 	0.3193	0.3125	0.6423	0.062
Mof_C 	C 	0.3817	0.4515	0.6316	0.007
Mof_C 	C 	0.3928	0.444	0.6711	-0.034
Mof_C 	C 	0.4083	0.4476	0.6602	0.072
Mof_C 	C 	0.4138	0.4565	0.6112	-0.147
Mof_C 	C 	0.4022	0.4541	0.5729	0.065
Mof_C 	C 	0.3871	0.4543	0.5887	-0.026
Mof_C 	C 	0.3757	0.4559	0.5458	-0.04
Mof_H 	H 	0.3654	0.4543	0.5512	0.048
Mof_C 	C 	0.3812	0.4597	0.5007	-0.061
Mof_H 	H 	0.3743	0.461	0.4757	0.051
Mof_C 	C 	0.3967	0.4618	0.4887	0.011
Mof_H 	H 	0.3997	0.4681	0.4569	0.03
Mof_C 	C 	0.4063	0.4549	0.5218	-0.113
Mof_H 	H 	0.4164	0.4502	0.5136	0.068
Mof_C 	C 	0.3887	0.4386	0.7213	-0.018
Mof_H 	H 	0.3786	0.4408	0.73	0.042
Mof_C 	C 	0.3991	0.4307	0.755	-0.091
Mof_H 	H 	0.3964	0.4192	0.7866	0.06
Mof_C 	C 	0.4141	0.4394	0.743	0.038
Mof_H 	H 	0.4209	0.4446	0.7683	0.011
Mof_C 	C 	0.4197	0.4413	0.7006	-0.133
Mof_H 	H 	0.43	0.4389	0.6951	0.072
Mof_C 	C 	0.4297	0.4666	0.5971	0.301
Mof_C 	C 	0.4356	0.5507	0.5989	-0.399
Mof_H 	H 	0.43	0.6012	0.6114	0.167
Mof_C 	C 	0.4501	0.5673	0.5826	0.303
Mof_H 	H 	0.4535	0.6299	0.5801	-0.076
Mof_C 	C 	0.4597	0.4936	0.5698	-0.419
Mof_C 	C 	0.4529	0.4035	0.5699	0.311
Mof_H 	H 	0.4582	0.3515	0.5578	-0.102
Mof_C 	C 	0.4387	0.389	0.5871	-0.386
Mof_H 	H 	0.4351	0.3273	0.592	0.157
Mof_C 	C 	0.4753	0.5133	0.5532	0.724
Mof_C 	C 	0.3333	0.6971	0.8377	-0.085
Mof_C 	C 	0.3394	0.7782	0.8541	0.036
Mof_C 	C 	0.3559	0.7855	0.8674	0.01
Mof_C 	C 	0.3649	0.7094	0.8596	-0.021
Mof_C 	C 	0.3593	0.6241	0.8372	-0.002
Mof_C 	C 	0.3424	0.614	0.8277	0.04
Mof_C 	C 	0.3377	0.5256	0.8058	-0.097
Mof_H 	H 	0.3278	0.5175	0.7957	0.067
Mof_C 	C 	0.3477	0.4559	0.8001	-0.001
Mof_H 	H 	0.3444	0.4	0.7855	0.033
Mof_C 	C 	0.3622	0.4598	0.8138	-0.054
Mof_H 	H 	0.3683	0.4063	0.81	0.05
Mof_C 	C 	0.3677	0.5352	0.832	-0.047
Mof_H 	H 	0.3776	0.5338	0.8425	0.051
Mof_C 	C 	0.3809	0.717	0.8711	0.001
Mof_C 	C 	0.3857	0.7152	0.9215	-0.022
Mof_C 	C 	0.4008	0.7146	0.9349	0.061
Mof_C 	C 	0.4119	0.7165	0.9003	-0.113
Mof_C 	C 	0.4089	0.7179	0.8499	0.067
Mof_C 	C 	0.3926	0.7157	0.8391	-0.018
Mof_C 	C 	0.3882	0.724	0.7887	-0.046
Mof_H 	H 	0.3781	0.7277	0.7801	0.053
Mof_C 	C 	0.4001	0.7251	0.7523	-0.059
Mof_H 	H 	0.3975	0.7298	0.72	0.049
Mof_C 	C 	0.415	0.7195	0.7658	0.003
Mof_H 	H 	0.4225	0.7154	0.7428	0.023
Mof_C 	C 	0.4185	0.7201	0.815	-0.118
Mof_H 	H 	0.4287	0.7221	0.8231	0.068
Mof_C 	C 	0.4051	0.7132	0.9834	-0.091
Mof_H 	H 	0.4152	0.7179	0.9921	0.065
Mof_C 	C 	0.3934	0.7042	0.0196	-0.024
Mof_H 	H 	0.3957	0.6996	0.0521	0.043
Mof_C 	C 	0.378	0.7028	0.003	-0.05
Mof_H 	H 	0.3706	0.6992	0.0264	0.048
Mof_C 	C 	0.3736	0.7058	0.9601	-0.039
Mof_H 	H 	0.3634	0.7025	0.9523	0.049
Mof_C 	C 	0.4291	0.7091	0.9158	0.209
Mof_C 	C 	0.4355	0.7873	0.9347	-0.287
Mof_H 	H 	0.4303	0.845	0.9366	0.129
Mof_C 	C 	0.4506	0.7781	0.9518	0.212
Mof_H 	H 	0.4551	0.8299	0.9671	-0.043
Mof_C 	C 	0.4585	0.6973	0.9464	-0.322
Mof_C 	C 	0.4509	0.6217	0.9243	0.224
Mof_H 	H 	0.4563	0.5665	0.9174	-0.055
Mof_C 	C 	0.4361	0.6241	0.9124	-0.309
Mof_H 	H 	0.431	0.5695	0.9023	0.136
Mof_C 	C 	0.4747	0.6849	0.9645	0.616
Mof_O 	O 	0.2633	0.4918	0.7288	-0.6
Mof_O 	O 	0.2654	0.6302	0.6819	-0.611
Mof_O 	O 	0.4835	0.4384	0.5551	-0.667
Mof_O 	O 	0.47974	0.5876	0.5452	-0.673
Mof_O 	O 	0.48149	0.6112	0.9579	-0.675
Mof_O 	O 	0.4801	0.7572	0.9865	-0.603
Mof_O 	O 	0.2634	0.5593	0.8214	-0.561
Mof_O 	O 	0.2625	0.6851	0.7758	-0.581
Mof_Tb	Tb	0.24899	0.43808	0.78702	2.075
Mof_C 	C 	0.3605	0.3708	0.3918	-0.053
Mof_H 	H 	0.3704	0.3751	0.4027	0.051
Mof_C 	C 	0.3515	0.4434	0.3995	-0.048
Mof_H 	H 	0.3554	0.5009	0.4104	0.048
Mof_C 	C 	0.3353	0.4361	0.3914	-0.02
Mof_H 	H 	0.3288	0.4834	0.4022	0.03
Mof_C 	C 	0.3299	0.3565	0.367	-0.094
Mof_H 	H 	0.3198	0.3542	0.3588	0.058
Mof_C 	C 	0.3174	0.1804	0.3284	0.13
Mof_C 	C 	0.3089	0.2325	0.293	-0.211
Mof_H 	H 	0.3138	0.28	0.2756	0.101
Mof_C 	C 	0.2938	0.2152	0.2832	0.16
Mof_H 	H 	0.2891	0.2459	0.2576	-0.036
Mof_C 	C 	0.2858	0.1534	0.3112	-0.269
Mof_C 	C 	0.2939	0.1012	0.3504	0.139
Mof_H 	H 	0.2887	0.0579	0.3697	-0.026
Mof_C 	C 	0.3084	0.1174	0.3572	-0.208
Mof_H 	H 	0.3132	0.0858	0.3824	0.095
Mof_C 	C 	0.2702	0.1319	0.3018	0.541
Mof_C 	C 	0.2693	0.0519	0.1995	0.51
Mof_C 	C 	0.2872	0.0282	0.1859	-0.244
Mof_C 	C 	0.2944	0.0682	0.1548	0.228
Mof_H 	H 	0.2895	0.1161	0.1377	-0.052
Mof_C 	C 	0.3086	0.05	0.143	-0.277
Mof_H 	H 	0.3127	0.0783	0.1158	0.119
Mof_C 	C 	0.3176	0.9872	0.1715	0.155
Mof_C 	C 	0.3094	0.9412	0.2092	-0.205
Mof_H 	H 	0.3146	0.9003	0.2296	0.1
Mof_C 	C 	0.2945	0.9535	0.217	0.129
Mof_H 	H 	0.2892	0.9186	0.2398	-0.005
Mof_C 	C 	0.3437	0.0528	0.1737	0.035
Mof_C 	C 	0.3597	0.0409	0.1593	-0.018
Mof_C 	C 	0.3649	0.9579	0.1441	-0.003
Mof_C 	C 	0.3554	0.8783	0.1369	-0.008
Mof_C 	C 	0.3389	0.8827	0.1441	0.046
Mof_C 	C 	0.334	0.9764	0.1642	-0.08
Mof_C 	C 	0.3386	0.14	0.1969	-0.086
Mof_H 	H 	0.3288	0.1417	0.2084	0.063
Mof_C 	C 	0.3471	0.2176	0.2029	-0.015
Mof_H 	H 	0.3432	0.2744	0.2152	0.037
Mof_C 	C 	0.3626	0.2073	0.1889	-0.047
Mof_H 	H 	0.3689	0.2598	0.1929	0.048
Mof_C 	C 	0.3687	0.1258	0.1703	-0.049
Mof_H 	H 	0.379	0.124	0.1645	0.048
Mof_C 	C 	0.3609	0.7914	0.1183	-0.051
Mof_H 	H 	0.3711	0.785	0.1127	0.05
Mof_C 	C 	0.3514	0.7142	0.108	-0.059
Mof_H 	H 	0.3552	0.6566	0.0965	0.052
Mof_C 	C 	0.3348	0.7284	0.1166	-0.005
Mof_H 	H 	0.3281	0.6797	0.1084	0.028
Mof_C 	C 	0.3295	0.8075	0.1352	-0.104
Mof_H 	H 	0.3193	0.8125	0.1423	0.064
Mof_C 	C 	0.3817	0.9515	0.1316	0.011
Mof_C 	C 	0.3928	0.944	0.1711	-0.035
Mof_C 	C 	0.4083	0.9476	0.1602	0.078
Mof_C 	C 	0.4138	0.9565	0.1112	-0.154
Mof_C 	C 	0.4022	0.9541	0.0729	0.085
Mof_C 	C 	0.3871	0.9543	0.0887	-0.039
Mof_C 	C 	0.3757	0.9559	0.0458	-0.011
Mof_H 	H 	0.3654	0.9543	0.0512	0.039
Mof_C 	C 	0.3812	0.9597	0.0007	-0.107
Mof_H 	H 	0.3743	0.961	0.9757	0.073
Mof_C 	C 	0.3967	0.9618	0.9887	0.067
Mof_H 	H 	0.3997	0.9681	0.9569	0.014
Mof_C 	C 	0.4063	0.9549	0.0218	-0.153
Mof_H 	H 	0.4164	0.9502	0.0136	0.083
Mof_C 	C 	0.3887	0.9386	0.2213	-0.014
Mof_H 	H 	0.3786	0.9408	0.23	0.043
Mof_C 	C 	0.3991	0.9307	0.255	-0.092
Mof_H 	H 	0.3964	0.9192	0.2866	0.063
Mof_C 	C 	0.4141	0.9394	0.243	0.042
Mof_H 	H 	0.4209	0.9446	0.2683	0.012
Mof_C 	C 	0.4197	0.9413	0.2006	-0.134
Mof_H 	H 	0.43	0.9389	0.1951	0.075
Mof_C 	C 	0.4297	0.9666	0.0971	0.313
Mof_C 	C 	0.4356	0.0507	0.0989	-0.406
Mof_H 	H 	0.43	0.1012	0.1114	0.166
Mof_C 	C 	0.4501	0.0673	0.0826	0.271
Mof_H 	H 	0.4535	0.1299	0.0801	-0.067
Mof_C 	C 	0.4597	0.9936	0.0698	-0.375
Mof_C 	C 	0.4529	0.9035	0.0699	0.291
Mof_H 	H 	0.4582	0.8515	0.0578	-0.095
Mof_C 	C 	0.4387	0.889	0.0871	-0.379
Mof_H 	H 	0.4351	0.8273	0.092	0.155
Mof_C 	C 	0.4753	0.0133	0.0532	0.68
Mof_C 	C 	0.3333	0.1971	0.3377	-0.092
Mof_C 	C 	0.3394	0.2782	0.3541	0.048
Mof_C 	C 	0.3559	0.2855	0.3674	-0.006
Mof_C 	C 	0.3649	0.2094	0.3596	-0.016
Mof_C 	C 	0.3593	0.1241	0.3372	0.001
Mof_C 	C 	0.3424	0.114	0.3277	0.044
Mof_C 	C 	0.3377	0.0256	0.3058	-0.115
Mof_H 	H 	0.3278	0.0175	0.2957	0.069
Mof_C 	C 	0.3477	0.9559	0.3001	0.009
Mof_H 	H 	0.3444	0.9	0.2855	0.031
Mof_C 	C 	0.3622	0.9598	0.3138	-0.03
Mof_H 	H 	0.3683	0.9063	0.31	0.043
Mof_C 	C 	0.3677	0.0352	0.332	-0.073
Mof_H 	H 	0.3776	0.0338	0.3425	0.056
Mof_C 	C 	0.3809	0.217	0.3711	-0.002
Mof_C 	C 	0.3857	0.2152	0.4215	-0.019
Mof_C 	C 	0.4008	0.2146	0.4349	0.059
Mof_C 	C 	0.4119	0.2165	0.4003	-0.112
Mof_C 	C 	0.4089	0.2179	0.3499	0.065
Mof_C 	C 	0.3926	0.2157	0.3391	-0.018
Mof_C 	C 	0.3882	0.224	0.2887	-0.048
Mof_H 	H 	0.3781	0.2277	0.2801	0.053
Mof_C 	C 	0.4001	0.2251	0.2523	-0.06
Mof_H 	H 	0.3975	0.2298	0.22	0.048
Mof_C 	C 	0.415	0.2195	0.2658	0
Mof_H 	H 	0.4225	0.2154	0.2428	0.022
Mof_C 	C 	0.4185	0.2201	0.315	-0.118
Mof_H 	H 	0.4287	0.2221	0.3231	0.067
Mof_C 	C 	0.4051	0.2132	0.4834	-0.094
Mof_H 	H 	0.4152	0.2179	0.4921	0.065
Mof_C 	C 	0.3934	0.2042	0.5196	-0.024
Mof_H 	H 	0.3957	0.1996	0.5521	0.043
Mof_C 	C 	0.378	0.2028	0.503	-0.039
Mof_H 	H 	0.3706	0.1992	0.5264	0.043
Mof_C 	C 	0.3736	0.2058	0.4601	-0.051
Mof_H 	H 	0.3634	0.2025	0.4523	0.05
Mof_C 	C 	0.4291	0.2091	0.4158	0.207
Mof_C 	C 	0.4355	0.2873	0.4347	-0.288
Mof_H 	H 	0.4303	0.345	0.4366	0.128
Mof_C 	C 	0.4506	0.2781	0.4518	0.211
Mof_H 	H 	0.4551	0.3299	0.4671	-0.046
Mof_C 	C 	0.4585	0.1973	0.4464	-0.324
Mof_C 	C 	0.4509	0.1217	0.4243	0.223
Mof_H 	H 	0.4563	0.0665	0.4174	-0.059
Mof_C 	C 	0.4361	0.1241	0.4124	-0.309
Mof_H 	H 	0.431	0.0695	0.4023	0.132
Mof_C 	C 	0.4747	0.1849	0.4645	0.613
Mof_O 	O 	0.2633	0.9918	0.2288	-0.593
Mof_O 	O 	0.2654	0.1302	0.1819	-0.61
Mof_O 	O 	0.4835	0.9384	0.0551	-0.648
Mof_O 	O 	0.47974	0.0876	0.0452	-0.661
Mof_O 	O 	0.48149	0.1112	0.4579	-0.674
Mof_O 	O 	0.4801	0.2572	0.4865	-0.606
Mof_O 	O 	0.2634	0.0593	0.3214	-0.568
Mof_O 	O 	0.2625	0.1851	0.2758	-0.583
Mof_Tb	Tb	0.24899	0.93808	0.28702	2.086
Mof_C 	C 	0.3895	0.1208	0.6418	-0.05
Mof_H 	H 	0.3796	0.1251	0.6527	0.046
Mof_C 	C 	0.3985	0.1934	0.6495	-0.049
Mof_H 	H 	0.3946	0.2509	0.6604	0.048
Mof_C 	C 	0.4147	0.1861	0.6414	-0.025
Mof_H 	H 	0.4212	0.2334	0.6522	0.031
Mof_C 	C 	0.4201	0.1065	0.617	-0.083
Mof_H 	H 	0.4302	0.1042	0.6088	0.051
Mof_C 	C 	0.4326	0.9304	0.5784	0.105
Mof_C 	C 	0.4411	0.9825	0.543	-0.159
Mof_H 	H 	0.4362	0.03	0.5256	0.073
Mof_C 	C 	0.4562	0.9652	0.5332	0.128
Mof_H 	H 	0.4609	0.9959	0.5076	-0.019
Mof_C 	C 	0.4642	0.9034	0.5612	-0.246
Mof_C 	C 	0.4561	0.8512	0.6004	0.121
Mof_H 	H 	0.4613	0.8079	0.6197	-0.016
Mof_C 	C 	0.4416	0.8674	0.6072	-0.185
Mof_H 	H 	0.4368	0.8358	0.6324	0.091
Mof_C 	C 	0.4798	0.8819	0.5518	0.53
Mof_C 	C 	0.4807	0.8019	0.4495	0.511
Mof_C 	C 	0.4628	0.7782	0.4359	-0.207
Mof_C 	C 	0.4556	0.8182	0.4048	0.184
Mof_H 	H 	0.4605	0.8661	0.3877	-0.033
Mof_C 	C 	0.4414	0.8	0.393	-0.23
Mof_H 	H 	0.4373	0.8283	0.3658	0.107
Mof_C 	C 	0.4324	0.7372	0.4215	0.125
Mof_C 	C 	0.4406	0.6912	0.4592	-0.179
Mof_H 	H 	0.4354	0.6503	0.4796	0.091
Mof_C 	C 	0.4555	0.7035	0.467	0.092
Mof_H 	H 	0.4608	0.6686	0.4898	0.006
Mof_C 	C 	0.4063	0.8028	0.4237	0.043
Mof_C 	C 	0.3903	0.7909	0.4093	0.002
Mof_C 	C 	0.3851	0.7079	0.3941	-0.019
Mof_C 	C 	0.3946	0.6283	0.3869	-0.002
Mof_C 	C 	0.4111	0.6327	0.3941	0.041
Mof_C 	C 	0.416	0.7264	0.4142	-0.082
Mof_C 	C 	0.4114	0.89	0.4469	-0.096
Mof_H 	H 	0.4212	0.8917	0.4584	0.071
Mof_C 	C 	0.4029	0.9676	0.4529	0.006
Mof_H 	H 	0.4068	0.0244	0.4652	0.022
Mof_C 	C 	0.3874	0.9573	0.4389	-0.024
Mof_H 	H 	0.3811	0.0098	0.4429	0.031
Mof_C 	C 	0.3813	0.8758	0.4203	-0.064
Mof_H 	H 	0.371	0.874	0.4145	0.059
Mof_C 	C 	0.3891	0.5414	0.3683	-0.055
Mof_H 	H 	0.3789	0.535	0.3627	0.052
Mof_C 	C 	0.3986	0.4642	0.358	-0.055
Mof_H 	H 	0.3948	0.4066	0.3465	0.051
Mof_C 	C 	0.4152	0.4784	0.3666	-0.009
Mof_H 	H 	0.4219	0.4297	0.3584	0.03
Mof_C 	C 	0.4205	0.5575	0.3852	-0.1
Mof_H 	H 	0.4307	0.5625	0.3923	0.063
Mof_C 	C 	0.3683	0.7015	0.3816	0.007
Mof_C 	C 	0.3572	0.694	0.4211	-0.034
Mof_C 	C 	0.3417	0.6976	0.4102	0.072
Mof_C 	C 	0.3362	0.7065	0.3612	-0.147
Mof_C 	C 	0.3478	0.7041	0.3229	0.065
Mof_C 	C 	0.3629	0.7043	0.3387	-0.026
Mof_C 	C 	0.3743	0.7059	0.2958	-0.04
Mof_H 	H 	0.3846	0.7043	0.3012	0.048
Mof_C 	C 	0.3688	0.7097	0.2507	-0.061
Mof_H 	H 	0.3757	0.711	0.2257	0.051
Mof_C 	C 	0.3533	0.7118	0.2387	0.011
Mof_H 	H 	0.3503	0.7181	0.2069	0.03
Mof_C 	C 	0.3437	0.7049	0.2718	-0.112
Mof_H 	H 	0.3336	0.7002	0.2636	0.068
Mof_C 	C 	0.3613	0.6886	0.4713	-0.018
Mof_H 	H 	0.3714	0.6908	0.48	0.042
Mof_C 	C 	0.3509	0.6807	0.505	-0.091
Mof_H 	H 	0.3536	0.6692	0.5366	0.061
Mof_C 	C 	0.3359	0.6894	0.493	0.038
Mof_H 	H 	0.3291	0.6946	0.5183	0.011
Mof_C 	C 	0.3303	0.6913	0.4506	-0.133
Mof_H 	H 	0.32	0.6889	0.4451	0.072
Mof_C 	C 	0.3203	0.7166	0.3471	0.301
Mof_C 	C 	0.3144	0.8007	0.3489	-0.398
Mof_H 	H 	0.32	0.8512	0.3614	0.168
Mof_C 	C 	0.2999	0.8173	0.3326	0.302
Mof_H 	H 	0.2965	0.8799	0.3301	-0.074
Mof_C 	C 	0.2903	0.7436	0.3198	-0.418
Mof_C 	C 	0.2971	0.6535	0.3199	0.31
Mof_H 	H 	0.2918	0.6015	0.3078	-0.101
Mof_C 	C 	0.3113	0.639	0.3371	-0.385
Mof_H 	H 	0.3149	0.5773	0.342	0.157
Mof_C 	C 	0.2747	0.7633	0.3032	0.724
Mof_C 	C 	0.4167	0.9471	0.5877	-0.062
Mof_C 	C 	0.4106	0.0282	0.6041	0.026
Mof_C 	C 	0.3941	0.0355	0.6174	-0.019
Mof_C 	C 	0.3851	0.9594	0.6096	0.001
Mof_C 	C 	0.3907	0.8741	0.5872	-0.006
Mof_C 	C 	0.4076	0.864	0.5777	0.037
Mof_C 	C 	0.4123	0.7756	0.5558	-0.095
Mof_H 	H 	0.4222	0.7675	0.5457	0.066
Mof_C 	C 	0.4023	0.7059	0.5501	-0.001
Mof_H 	H 	0.4056	0.65	0.5355	0.033
Mof_C 	C 	0.3878	0.7098	0.5638	-0.055
Mof_H 	H 	0.3817	0.6563	0.56	0.05
Mof_C 	C 	0.3823	0.7852	0.582	-0.043
Mof_H 	H 	0.3724	0.7838	0.5925	0.05
Mof_C 	C 	0.3691	0.967	0.6211	-0.004
Mof_C 	C 	0.3643	0.9652	0.6715	-0.016
Mof_C 	C 	0.3492	0.9646	0.6849	0.062
Mof_C 	C 	0.3381	0.9665	0.6503	-0.115
Mof_C 	C 	0.3411	0.9679	0.5999	0.069
Mof_C 	C 	0.3574	0.9657	0.5891	-0.014
Mof_C 	C 	0.3618	0.974	0.5387	-0.045
Mof_H 	H 	0.3719	0.9777	0.5301	0.056
Mof_C 	C 	0.3499	0.9751	0.5023	-0.057
Mof_H 	H 	0.3525	0.9798	0.47	0.052
Mof_C 	C 	0.335	0.9695	0.5158	0.003
Mof_H 	H 	0.3275	0.9654	0.4928	0.024
Mof_C 	C 	0.3315	0.9701	0.565	-0.117
Mof_H 	H 	0.3213	0.9721	0.5731	0.07
Mof_C 	C 	0.3449	0.9632	0.7334	-0.094
Mof_H 	H 	0.3348	0.9679	0.7421	0.068
Mof_C 	C 	0.3566	0.9542	0.7696	-0.02
Mof_H 	H 	0.3543	0.9496	0.8021	0.044
Mof_C 	C 	0.372	0.9528	0.753	-0.038
Mof_H 	H 	0.3794	0.9492	0.7764	0.047
Mof_C 	C 	0.3764	0.9558	0.7101	-0.049
Mof_H 	H 	0.3866	0.9525	0.7023	0.054
Mof_C 	C 	0.3209	0.9591	0.6658	0.226
Mof_C 	C 	0.3145	0.0373	0.6847	-0.307
Mof_H 	H 	0.3197	0.095	0.6866	0.131
Mof_C 	C 	0.2994	0.0281	0.7018	0.204
Mof_H 	H 	0.2949	0.0799	0.7171	-0.045
Mof_C 	C 	0.2915	0.9473	0.6964	-0.316
Mof_C 	C 	0.2991	0.8717	0.6743	0.228
Mof_H 	H 	0.2937	0.8165	0.6674	-0.057
Mof_C 	C 	0.3139	0.8741	0.6624	-0.318
Mof_H 	H 	0.319	0.8195	0.6523	0.139
Mof_C 	C 	0.2753	0.9349	0.7145	0.626
Mof_O 	O 	0.4867	0.7418	0.4788	-0.599
Mof_O 	O 	0.4846	0.8802	0.4319	-0.6
Mof_O 	O 	0.2665	0.6884	0.3051	-0.667
Mof_O 	O 	0.27026	0.8376	0.2952	-0.672
Mof_O 	O 	0.26851	0.8612	0.7079	-0.677
Mof_O 	O 	0.2699	0.0072	0.7365	-0.615
Mof_O 	O 	0.4866	0.8093	0.5714	-0.557
Mof_O 	O 	0.4875	0.9351	0.5258	-0.568
Mof_Tb	Tb	0.50101	0.68808	0.53702	2.076
Mof_C 	C 	0.3895	0.6208	0.1418	-0.052
Mof_H 	H 	0.3796	0.6251	0.1527	0.05
Mof_C 	C 	0.3985	0.6934	0.1495	-0.049
Mof_H 	H 	0.3946	0.7509	0.1604	0.048
Mof_C 	C 	0.4147	0.6861	0.1414	-0.019
Mof_H 	H 	0.4212	0.7334	0.1522	0.03
Mof_C 	C 	0.4201	0.6065	0.117	-0.095
Mof_H 	H 	0.4302	0.6042	0.1088	0.059
Mof_C 	C 	0.4326	0.4304	0.0784	0.131
Mof_C 	C 	0.4411	0.4825	0.043	-0.211
Mof_H 	H 	0.4362	0.53	0.0256	0.099
Mof_C 	C 	0.4562	0.4652	0.0332	0.161
Mof_H 	H 	0.4609	0.4959	0.0076	-0.037
Mof_C 	C 	0.4642	0.4034	0.0612	-0.268
Mof_C 	C 	0.4561	0.3512	0.1004	0.14
Mof_H 	H 	0.4613	0.3079	0.1197	-0.024
Mof_C 	C 	0.4416	0.3674	0.1072	-0.208
Mof_H 	H 	0.4368	0.3358	0.1324	0.097
Mof_C 	C 	0.4798	0.3819	0.0518	0.54
Mof_C 	C 	0.4807	0.3019	0.9495	0.513
Mof_C 	C 	0.4628	0.2782	0.9359	-0.211
Mof_C 	C 	0.4556	0.3182	0.9048	0.187
Mof_H 	H 	0.4605	0.3661	0.8877	-0.037
Mof_C 	C 	0.4414	0.3	0.893	-0.234
Mof_H 	H 	0.4373	0.3283	0.8658	0.107
Mof_C 	C 	0.4324	0.2372	0.9215	0.126
Mof_C 	C 	0.4406	0.1912	0.9592	-0.181
Mof_H 	H 	0.4354	0.1503	0.9796	0.091
Mof_C 	C 	0.4555	0.2035	0.967	0.094
Mof_H 	H 	0.4608	0.1686	0.9898	0.005
Mof_C 	C 	0.4063	0.3028	0.9237	0.04
Mof_C 	C 	0.3903	0.2909	0.9093	0.002
Mof_C 	C 	0.3851	0.2079	0.8941	-0.022
Mof_C 	C 	0.3946	0.1283	0.8869	-0.001
Mof_C 	C 	0.4111	0.1327	0.8941	0.048
Mof_C 	C 	0.416	0.2264	0.9142	-0.084
Mof_C 	C 	0.4114	0.39	0.9469	-0.084
Mof_H 	H 	0.4212	0.3917	0.9584	0.065
Mof_C 	C 	0.4029	0.4676	0.9529	-0.018
Mof_H 	H 	0.4068	0.5244	0.9652	0.039
Mof_C 	C 	0.3874	0.4573	0.9389	-0.04
Mof_H 	H 	0.3811	0.5098	0.9429	0.047
Mof_C 	C 	0.3813	0.3758	0.9203	-0.058
Mof_H 	H 	0.371	0.374	0.9145	0.055
Mof_C 	C 	0.3891	0.0414	0.8683	-0.074
Mof_H 	H 	0.3789	0.035	0.8627	0.054
Mof_C 	C 	0.3986	0.9642	0.858	-0.044
Mof_H 	H 	0.3948	0.9066	0.8465	0.049
Mof_C 	C 	0.4152	0.9784	0.8666	0.018
Mof_H 	H 	0.4219	0.9297	0.8584	0.023
Mof_C 	C 	0.4205	0.0575	0.8852	-0.13
Mof_H 	H 	0.4307	0.0625	0.8923	0.069
Mof_C 	C 	0.3683	0.2015	0.8816	0.015
Mof_C 	C 	0.3572	0.194	0.9211	-0.054
Mof_C 	C 	0.3417	0.1976	0.9102	0.089
Mof_C 	C 	0.3362	0.2065	0.8612	-0.156
Mof_C 	C 	0.3478	0.2041	0.8229	0.07
Mof_C 	C 	0.3629	0.2043	0.8387	-0.033
Mof_C 	C 	0.3743	0.2059	0.7958	-0.037
Mof_H 	H 	0.3846	0.2043	0.8012	0.046
Mof_C 	C 	0.3688	0.2097	0.7507	-0.067
Mof_H 	H 	0.3757	0.211	0.7257	0.052
Mof_C 	C 	0.3533	0.2118	0.7387	0.016
Mof_H 	H 	0.3503	0.2181	0.7069	0.027
Mof_C 	C 	0.3437	0.2049	0.7718	-0.119
Mof_H 	H 	0.3336	0.2002	0.7636	0.069
Mof_C 	C 	0.3613	0.1886	0.9713	0.022
Mof_H 	H 	0.3714	0.1908	0.98	0.029
Mof_C 	C 	0.3509	0.1807	0.005	-0.148
Mof_H 	H 	0.3536	0.1692	0.0366	0.079
Mof_C 	C 	0.3359	0.1894	0.993	0.096
Mof_H 	H 	0.3291	0.1946	0.0183	-0.013
Mof_C 	C 	0.3303	0.1913	0.9506	-0.172
Mof_H 	H 	0.32	0.1889	0.9451	0.085
Mof_C 	C 	0.3203	0.2166	0.8471	0.305
Mof_C 	C 	0.3144	0.3007	0.8489	-0.402
Mof_H 	H 	0.32	0.3512	0.8614	0.168
Mof_C 	C 	0.2999	0.3173	0.8326	0.305
Mof_H 	H 	0.2965	0.3799	0.8301	-0.077
Mof_C 	C 	0.2903	0.2436	0.8198	-0.42
Mof_C 	C 	0.2971	0.1535	0.8199	0.312
Mof_H 	H 	0.2918	0.1015	0.8078	-0.103
Mof_C 	C 	0.3113	0.139	0.8371	-0.389
Mof_H 	H 	0.3149	0.0773	0.842	0.155
Mof_C 	C 	0.2747	0.2633	0.8032	0.724
Mof_C 	C 	0.4167	0.4471	0.0877	-0.093
Mof_C 	C 	0.4106	0.5282	0.1041	0.049
Mof_C 	C 	0.3941	0.5355	0.1174	-0.008
Mof_C 	C 	0.3851	0.4594	0.1096	-0.011
Mof_C 	C 	0.3907	0.3741	0.0872	-0.009
Mof_C 	C 	0.4076	0.364	0.0777	0.046
Mof_C 	C 	0.4123	0.2756	0.0558	-0.105
Mof_H 	H 	0.4222	0.2675	0.0457	0.068
Mof_C 	C 	0.4023	0.2059	0.0501	0.006
Mof_H 	H 	0.4056	0.15	0.0355	0.027
Mof_C 	C 	0.3878	0.2098	0.0638	-0.062
Mof_H 	H 	0.3817	0.1563	0.06	0.05
Mof_C 	C 	0.3823	0.2852	0.082	-0.04
Mof_H 	H 	0.3724	0.2838	0.0925	0.048
Mof_C 	C 	0.3691	0.467	0.1211	-0.004
Mof_C 	C 	0.3643	0.4652	0.1715	-0.018
Mof_C 	C 	0.3492	0.4646	0.1849	0.058
Mof_C 	C 	0.3381	0.4665	0.1503	-0.111
Mof_C 	C 	0.3411	0.4679	0.0999	0.064
Mof_C 	C 	0.3574	0.4657	0.0891	-0.016
Mof_C 	C 	0.3618	0.474	0.0387	-0.046
Mof_H 	H 	0.3719	0.4777	0.0301	0.052
Mof_C 	C 	0.3499	0.4751	0.0023	-0.063
Mof_H 	H 	0.3525	0.4798	0.97	0.053
Mof_C 	C 	0.335	0.4695	0.0158	-0.006
Mof_H 	H 	0.3275	0.4654	0.9928	0.029
Mof_C 	C 	0.3315	0.4701	0.065	-0.113
Mof_H 	H 	0.3213	0.4721	0.0731	0.065
Mof_C 	C 	0.3449	0.4632	0.2334	-0.093
Mof_H 	H 	0.3348	0.4679	0.2421	0.065
Mof_C 	C 	0.3566	0.4542	0.2696	-0.024
Mof_H 	H 	0.3543	0.4496	0.3021	0.044
Mof_C 	C 	0.372	0.4528	0.253	-0.038
Mof_H 	H 	0.3794	0.4492	0.2764	0.044
Mof_C 	C 	0.3764	0.4558	0.2101	-0.051
Mof_H 	H 	0.3866	0.4525	0.2023	0.052
Mof_C 	C 	0.3209	0.4591	0.1658	0.208
Mof_C 	C 	0.3145	0.5373	0.1847	-0.288
Mof_H 	H 	0.3197	0.595	0.1866	0.127
Mof_C 	C 	0.2994	0.5281	0.2018	0.211
Mof_H 	H 	0.2949	0.5799	0.2171	-0.046
Mof_C 	C 	0.2915	0.4473	0.1964	-0.323
Mof_C 	C 	0.2991	0.3717	0.1743	0.224
Mof_H 	H 	0.2937	0.3165	0.1674	-0.055
Mof_C 	C 	0.3139	0.3741	0.1624	-0.309
Mof_H 	H 	0.319	0.3195	0.1523	0.136
Mof_C 	C 	0.2753	0.4349	0.2145	0.615
Mof_O 	O 	0.4867	0.2418	0.9788	-0.598
Mof_O 	O 	0.4846	0.3802	0.9319	-0.611
Mof_O 	O 	0.2665	0.1884	0.8051	-0.666
Mof_O 	O 	0.27026	0.3376	0.7952	-0.673
Mof_O 	O 	0.26851	0.3612	0.2079	-0.675
Mof_O 	O 	0.2699	0.5072	0.2365	-0.607
Mof_O 	O 	0.4866	0.3093	0.0714	-0.562
Mof_O 	O 	0.4875	0.4351	0.0258	-0.584
Mof_Tb	Tb	0.50101	0.18808	0.03702	2.062
Mof_C 	C 	0.8895	0.1208	0.1418	-0.05
Mof_H 	H 	0.8796	0.1251	0.1527	0.046
Mof_C 	C 	0.8985	0.1934	0.1495	-0.049
Mof_H 	H 	0.8946	0.2509	0.1604	0.048
Mof_C 	C 	0.9147	0.1861	0.1414	-0.025
Mof_H 	H 	0.9212	0.2334	0.1522	0.031
Mof_C 	C 	0.9201	0.1065	0.117	-0.084
Mof_H 	H 	0.9302	0.1042	0.1088	0.051
Mof_C 	C 	0.9326	0.9304	0.0784	0.105
Mof_C 	C 	0.9411	0.9825	0.043	-0.161
Mof_H 	H 	0.9362	0.03	0.0256	0.073
Mof_C 	C 	0.9562	0.9652	0.0332	0.129
Mof_H 	H 	0.9609	0.9959	0.0076	-0.021
Mof_C 	C 	0.9642	0.9034	0.0612	-0.247
Mof_C 	C 	0.9561	0.8512	0.1004	0.121
Mof_H 	H 	0.9613	0.8079	0.1197	-0.016
Mof_C 	C 	0.9416	0.8674	0.1072	-0.185
Mof_H 	H 	0.9368	0.8358	0.1324	0.091
Mof_C 	C 	0.9798	0.8819	0.0518	0.53
Mof_C 	C 	0.9807	0.8019	0.9495	0.511
Mof_C 	C 	0.9628	0.7782	0.9359	-0.206
Mof_C 	C 	0.9556	0.8182	0.9048	0.183
Mof_H 	H 	0.9605	0.8661	0.8877	-0.033
Mof_C 	C 	0.9414	0.8	0.893	-0.229
Mof_H 	H 	0.9373	0.8283	0.8658	0.107
Mof_C 	C 	0.9324	0.7372	0.9215	0.124
Mof_C 	C 	0.9406	0.6912	0.9592	-0.178
Mof_H 	H 	0.9354	0.6503	0.9796	0.092
Mof_C 	C 	0.9555	0.7035	0.967	0.092
Mof_H 	H 	0.9608	0.6686	0.9898	0.008
Mof_C 	C 	0.9063	0.8028	0.9237	0.042
Mof_C 	C 	0.8903	0.7909	0.9093	0.005
Mof_C 	C 	0.8851	0.7079	0.8941	-0.023
Mof_C 	C 	0.8946	0.6283	0.8869	0
Mof_C 	C 	0.9111	0.6327	0.8941	0.04
Mof_C 	C 	0.916	0.7264	0.9142	-0.081
Mof_C 	C 	0.9114	0.89	0.9469	-0.095
Mof_H 	H 	0.9212	0.8917	0.9584	0.071
Mof_C 	C 	0.9029	0.9676	0.9529	0.006
Mof_H 	H 	0.9068	0.0244	0.9652	0.022
Mof_C 	C 	0.8874	0.9573	0.9389	-0.023
Mof_H 	H 	0.8811	0.0098	0.9429	0.031
Mof_C 	C 	0.8813	0.8758	0.9203	-0.066
Mof_H 	H 	0.871	0.874	0.9145	0.059
Mof_C 	C 	0.8891	0.5414	0.8683	-0.057
Mof_H 	H 	0.8789	0.535	0.8627	0.052
Mof_C 	C 	0.8986	0.4642	0.858	-0.054
Mof_H 	H 	0.8948	0.4066	0.8465	0.051
Mof_C 	C 	0.9152	0.4784	0.8666	-0.009
Mof_H 	H 	0.9219	0.4297	0.8584	0.03
Mof_C 	C 	0.9205	0.5575	0.8852	-0.099
Mof_H 	H 	0.9307	0.5625	0.8923	0.062
Mof_C 	C 	0.8683	0.7015	0.8816	0.017
Mof_C 	C 	0.8572	0.694	0.9211	-0.056
Mof_C 	C 	0.8417	0.6976	0.9102	0.093
Mof_C 	C 	0.8362	0.7065	0.8612	-0.156
Mof_C 	C 	0.8478	0.7041	0.8229	0.072
Mof_C 	C 	0.8629	0.7043	0.8387	-0.033
Mof_C 	C 	0.8743	0.7059	0.7958	-0.035
Mof_H 	H 	0.8846	0.7043	0.8012	0.047
Mof_C 	C 	0.8688	0.7097	0.7507	-0.066
Mof_H 	H 	0.8757	0.711	0.7257	0.053
Mof_C 	C 	0.8533	0.7118	0.7387	0.018
Mof_H 	H 	0.8503	0.7181	0.7069	0.027
Mof_C 	C 	0.8437	0.7049	0.7718	-0.119
Mof_H 	H 	0.8336	0.7002	0.7636	0.07
Mof_C 	C 	0.8613	0.6886	0.9713	0.027
Mof_H 	H 	0.8714	0.6908	0.98	0.028
Mof_C 	C 	0.8509	0.6807	0.005	-0.153
Mof_H 	H 	0.8536	0.6692	0.0366	0.082
Mof_C 	C 	0.8359	0.6894	0.993	0.102
Mof_H 	H 	0.8291	0.6946	0.0183	-0.014
Mof_C 	C 	0.8303	0.6913	0.9506	-0.175
Mof_H 	H 	0.82	0.6889	0.9451	0.088
Mof_C 	C 	0.8203	0.7166	0.8471	0.307
Mof_C 	C 	0.8144	0.8007	0.8489	-0.404
Mof_H 	H 	0.82	0.8512	0.8614	0.171
Mof_C 	C 	0.7999	0.8173	0.8326	0.307
Mof_H 	H 	0.7965	0.8799	0.8301	-0.075
Mof_C 	C 	0.7903	0.7436	0.8198	-0.42
Mof_C 	C 	0.7971	0.6535	0.8199	0.314
Mof_H 	H 	0.7918	0.6015	0.8078	-0.103
Mof_C 	C 	0.8113	0.639	0.8371	-0.391
Mof_H 	H 	0.8149	0.5773	0.842	0.159
Mof_C 	C 	0.7747	0.7633	0.8032	0.726
Mof_C 	C 	0.9167	0.9471	0.0877	-0.063
Mof_C 	C 	0.9106	0.0282	0.1041	0.026
Mof_C 	C 	0.8941	0.0355	0.1174	-0.019
Mof_C 	C 	0.8851	0.9594	0.1096	0.001
Mof_C 	C 	0.8907	0.8741	0.0872	-0.006
Mof_C 	C 	0.9076	0.864	0.0777	0.037
Mof_C 	C 	0.9123	0.7756	0.0558	-0.095
Mof_H 	H 	0.9222	0.7675	0.0457	0.065
Mof_C 	C 	0.9023	0.7059	0.0501	-0.002
Mof_H 	H 	0.9056	0.65	0.0355	0.032
Mof_C 	C 	0.8878	0.7098	0.0638	-0.055
Mof_H 	H 	0.8817	0.6563	0.06	0.05
Mof_C 	C 	0.8823	0.7852	0.082	-0.044
Mof_H 	H 	0.8724	0.7838	0.0925	0.049
Mof_C 	C 	0.8691	0.967	0.1211	-0.005
Mof_C 	C 	0.8643	0.9652	0.1715	-0.016
Mof_C 	C 	0.8492	0.9646	0.1849	0.062
Mof_C 	C 	0.8381	0.9665	0.1503	-0.114
Mof_C 	C 	0.8411	0.9679	0.0999	0.067
Mof_C 	C 	0.8574	0.9657	0.0891	-0.014
Mof_C 	C 	0.8618	0.974	0.0387	-0.044
Mof_H 	H 	0.8719	0.9777	0.0301	0.054
Mof_C 	C 	0.8499	0.9751	0.0023	-0.063
Mof_H 	H 	0.8525	0.9798	0.97	0.056
Mof_C 	C 	0.835	0.9695	0.0158	-0.004
Mof_H 	H 	0.8275	0.9654	0.9928	0.03
Mof_C 	C 	0.8315	0.9701	0.065	-0.113
Mof_H 	H 	0.8213	0.9721	0.0731	0.068
Mof_C 	C 	0.8449	0.9632	0.2334	-0.094
Mof_H 	H 	0.8348	0.9679	0.2421	0.068
Mof_C 	C 	0.8566	0.9542	0.2696	-0.021
Mof_H 	H 	0.8543	0.9496	0.3021	0.044
Mof_C 	C 	0.872	0.9528	0.253	-0.037
Mof_H 	H 	0.8794	0.9492	0.2764	0.046
Mof_C 	C 	0.8764	0.9558	0.2101	-0.049
Mof_H 	H 	0.8866	0.9525	0.2023	0.054
Mof_C 	C 	0.8209	0.9591	0.1658	0.225
Mof_C 	C 	0.8145	0.0373	0.1847	-0.306
Mof_H 	H 	0.8197	0.095	0.1866	0.131
Mof_C 	C 	0.7994	0.0281	0.2018	0.204
Mof_H 	H 	0.7949	0.0799	0.2171	-0.045
Mof_C 	C 	0.7915	0.9473	0.1964	-0.316
Mof_C 	C 	0.7991	0.8717	0.1743	0.228
Mof_H 	H 	0.7937	0.8165	0.1674	-0.057
Mof_C 	C 	0.8139	0.8741	0.1624	-0.318
Mof_H 	H 	0.819	0.8195	0.1523	0.139
Mof_C 	C 	0.7753	0.9349	0.2145	0.626
Mof_O 	O 	0.9867	0.7418	0.9788	-0.595
Mof_O 	O 	0.9846	0.8802	0.9319	-0.6
Mof_O 	O 	0.7665	0.6884	0.8051	-0.667
Mof_O 	O 	0.77026	0.8376	0.7952	-0.672
Mof_O 	O 	0.76851	0.8612	0.2079	-0.677
Mof_O 	O 	0.7699	0.0072	0.2365	-0.615
Mof_O 	O 	0.9866	0.8093	0.0714	-0.557
Mof_O 	O 	0.9875	0.9351	0.0258	-0.571
Mof_Tb	Tb	0.00101	0.68808	0.03702	2.067
Mof_C 	C 	0.8895	0.6208	0.6418	-0.051
Mof_H 	H 	0.8796	0.6251	0.6527	0.05
Mof_C 	C 	0.8985	0.6934	0.6495	-0.05
Mof_H 	H 	0.8946	0.7509	0.6604	0.048
Mof_C 	C 	0.9147	0.6861	0.6414	-0.019
Mof_H 	H 	0.9212	0.7334	0.6522	0.03
Mof_C 	C 	0.9201	0.6065	0.617	-0.095
Mof_H 	H 	0.9302	0.6042	0.6088	0.059
Mof_C 	C 	0.9326	0.4304	0.5784	0.131
Mof_C 	C 	0.9411	0.4825	0.543	-0.211
Mof_H 	H 	0.9362	0.53	0.5256	0.101
Mof_C 	C 	0.9562	0.4652	0.5332	0.161
Mof_H 	H 	0.9609	0.4959	0.5076	-0.036
Mof_C 	C 	0.9642	0.4034	0.5612	-0.267
Mof_C 	C 	0.9561	0.3512	0.6004	0.14
Mof_H 	H 	0.9613	0.3079	0.6197	-0.024
Mof_C 	C 	0.9416	0.3674	0.6072	-0.208
Mof_H 	H 	0.9368	0.3358	0.6324	0.097
Mof_C 	C 	0.9798	0.3819	0.5518	0.54
Mof_C 	C 	0.9807	0.3019	0.4495	0.513
Mof_C 	C 	0.9628	0.2782	0.4359	-0.212
Mof_C 	C 	0.9556	0.3182	0.4048	0.188
Mof_H 	H 	0.9605	0.3661	0.3877	-0.038
Mof_C 	C 	0.9414	0.3	0.393	-0.235
Mof_H 	H 	0.9373	0.3283	0.3658	0.107
Mof_C 	C 	0.9324	0.2372	0.4215	0.127
Mof_C 	C 	0.9406	0.1912	0.4592	-0.182
Mof_H 	H 	0.9354	0.1503	0.4796	0.09
Mof_C 	C 	0.9555	0.2035	0.467	0.094
Mof_H 	H 	0.9608	0.1686	0.4898	0.004
Mof_C 	C 	0.9063	0.3028	0.4237	0.04
Mof_C 	C 	0.8903	0.2909	0.4093	0
Mof_C 	C 	0.8851	0.2079	0.3941	-0.019
Mof_C 	C 	0.8946	0.1283	0.3869	-0.003
Mof_C 	C 	0.9111	0.1327	0.3941	0.049
Mof_C 	C 	0.916	0.2264	0.4142	-0.085
Mof_C 	C 	0.9114	0.39	0.4469	-0.085
Mof_H 	H 	0.9212	0.3917	0.4584	0.064
Mof_C 	C 	0.9029	0.4676	0.4529	-0.018
Mof_H 	H 	0.9068	0.5244	0.4652	0.038
Mof_C 	C 	0.8874	0.4573	0.4389	-0.042
Mof_H 	H 	0.8811	0.5098	0.4429	0.047
Mof_C 	C 	0.8813	0.3758	0.4203	-0.057
Mof_H 	H 	0.871	0.374	0.4145	0.054
Mof_C 	C 	0.8891	0.0414	0.3683	-0.072
Mof_H 	H 	0.8789	0.035	0.3627	0.053
Mof_C 	C 	0.8986	0.9642	0.358	-0.046
Mof_H 	H 	0.8948	0.9066	0.3465	0.049
Mof_C 	C 	0.9152	0.9784	0.3666	0.018
Mof_H 	H 	0.9219	0.9297	0.3584	0.023
Mof_C 	C 	0.9205	0.0575	0.3852	-0.131
Mof_H 	H 	0.9307	0.0625	0.3923	0.069
Mof_C 	C 	0.8683	0.2015	0.3816	0.006
Mof_C 	C 	0.8572	0.194	0.4211	-0.034
Mof_C 	C 	0.8417	0.1976	0.4102	0.07
Mof_C 	C 	0.8362	0.2065	0.3612	-0.147
Mof_C 	C 	0.8478	0.2041	0.3229	0.064
Mof_C 	C 	0.8629	0.2043	0.3387	-0.027
Mof_C 	C 	0.8743	0.2059	0.2958	-0.041
Mof_H 	H 	0.8846	0.2043	0.3012	0.048
Mof_C 	C 	0.8688	0.2097	0.2507	-0.062
Mof_H 	H 	0.8757	0.211	0.2257	0.051
Mof_C 	C 	0.8533	0.2118	0.2387	0.01
Mof_H 	H 	0.8503	0.2181	0.2069	0.029
Mof_C 	C 	0.8437	0.2049	0.2718	-0.113
Mof_H 	H 	0.8336	0.2002	0.2636	0.067
Mof_C 	C 	0.8613	0.1886	0.4713	-0.019
Mof_H 	H 	0.8714	0.1908	0.48	0.041
Mof_C 	C 	0.8509	0.1807	0.505	-0.092
Mof_H 	H 	0.8536	0.1692	0.5366	0.059
Mof_C 	C 	0.8359	0.1894	0.493	0.037
Mof_H 	H 	0.8291	0.1946	0.5183	0.01
Mof_C 	C 	0.8303	0.1913	0.4506	-0.133
Mof_H 	H 	0.82	0.1889	0.4451	0.071
Mof_C 	C 	0.8203	0.2166	0.3471	0.299
Mof_C 	C 	0.8144	0.3007	0.3489	-0.397
Mof_H 	H 	0.82	0.3512	0.3614	0.166
Mof_C 	C 	0.7999	0.3173	0.3326	0.301
Mof_H 	H 	0.7965	0.3799	0.3301	-0.076
Mof_C 	C 	0.7903	0.2436	0.3198	-0.417
Mof_C 	C 	0.7971	0.1535	0.3199	0.308
Mof_H 	H 	0.7918	0.1015	0.3078	-0.102
Mof_C 	C 	0.8113	0.139	0.3371	-0.384
Mof_H 	H 	0.8149	0.0773	0.342	0.153
Mof_C 	C 	0.7747	0.2633	0.3032	0.723
Mof_C 	C 	0.9167	0.4471	0.5877	-0.092
Mof_C 	C 	0.9106	0.5282	0.6041	0.05
Mof_C 	C 	0.8941	0.5355	0.6174	-0.008
Mof_C 	C 	0.8851	0.4594	0.6096	-0.011
Mof_C 	C 	0.8907	0.3741	0.5872	-0.009
Mof_C 	C 	0.9076	0.364	0.5777	0.046
Mof_C 	C 	0.9123	0.2756	0.5558	-0.105
Mof_H 	H 	0.9222	0.2675	0.5457	0.069
Mof_C 	C 	0.9023	0.2059	0.5501	0.007
Mof_H 	H 	0.9056	0.15	0.5355	0.027
Mof_C 	C 	0.8878	0.2098	0.5638	-0.063
Mof_H 	H 	0.8817	0.1563	0.56	0.05
Mof_C 	C 	0.8823	0.2852	0.582	-0.039
Mof_H 	H 	0.8724	0.2838	0.5925	0.048
Mof_C 	C 	0.8691	0.467	0.6211	-0.004
Mof_C 	C 	0.8643	0.4652	0.6715	-0.018
Mof_C 	C 	0.8492	0.4646	0.6849	0.059
Mof_C 	C 	0.8381	0.4665	0.6503	-0.112
Mof_C 	C 	0.8411	0.4679	0.5999	0.066
Mof_C 	C 	0.8574	0.4657	0.5891	-0.016
Mof_C 	C 	0.8618	0.474	0.5387	-0.048
Mof_H 	H 	0.8719	0.4777	0.5301	0.053
Mof_C 	C 	0.8499	0.4751	0.5023	-0.058
Mof_H 	H 	0.8525	0.4798	0.47	0.049
Mof_C 	C 	0.835	0.4695	0.5158	0.001
Mof_H 	H 	0.8275	0.4654	0.4928	0.023
Mof_C 	C 	0.8315	0.4701	0.565	-0.116
Mof_H 	H 	0.8213	0.4721	0.5731	0.067
Mof_C 	C 	0.8449	0.4632	0.7334	-0.094
Mof_H 	H 	0.8348	0.4679	0.7421	0.065
Mof_C 	C 	0.8566	0.4542	0.7696	-0.024
Mof_H 	H 	0.8543	0.4496	0.8021	0.043
Mof_C 	C 	0.872	0.4528	0.753	-0.038
Mof_H 	H 	0.8794	0.4492	0.7764	0.044
Mof_C 	C 	0.8764	0.4558	0.7101	-0.051
Mof_H 	H 	0.8866	0.4525	0.7023	0.052
Mof_C 	C 	0.8209	0.4591	0.6658	0.208
Mof_C 	C 	0.8145	0.5373	0.6847	-0.288
Mof_H 	H 	0.8197	0.595	0.6866	0.128
Mof_C 	C 	0.7994	0.5281	0.7018	0.212
Mof_H 	H 	0.7949	0.5799	0.7171	-0.046
Mof_C 	C 	0.7915	0.4473	0.6964	-0.323
Mof_C 	C 	0.7991	0.3717	0.6743	0.224
Mof_H 	H 	0.7937	0.3165	0.6674	-0.055
Mof_C 	C 	0.8139	0.3741	0.6624	-0.31
Mof_H 	H 	0.819	0.3195	0.6523	0.136
Mof_C 	C 	0.7753	0.4349	0.7145	0.615
Mof_O 	O 	0.9867	0.2418	0.4788	-0.601
Mof_O 	O 	0.9846	0.3802	0.4319	-0.611
Mof_O 	O 	0.7665	0.1884	0.3051	-0.666
Mof_O 	O 	0.77026	0.3376	0.2952	-0.672
Mof_O 	O 	0.76851	0.3612	0.7079	-0.675
Mof_O 	O 	0.7699	0.5072	0.7365	-0.607
Mof_O 	O 	0.9866	0.3093	0.5714	-0.562
Mof_O 	O 	0.9875	0.4351	0.5258	-0.582
Mof_Tb	Tb	0.00101	0.18808	0.53702	2.069
Mof_C 	C 	0.1105	0.3792	0.6418	-0.051
Mof_H 	H 	0.1204	0.3749	0.6527	0.05
Mof_C 	C 	0.1015	0.3066	0.6495	-0.05
Mof_H 	H 	0.1054	0.2491	0.6604	0.048
Mof_C 	C 	0.0853	0.3139	0.6414	-0.018
Mof_H 	H 	0.0788	0.2666	0.6522	0.029
Mof_C 	C 	0.0799	0.3935	0.617	-0.095
Mof_H 	H 	0.0698	0.3958	0.6088	0.059
Mof_C 	C 	0.0674	0.5696	0.5784	0.131
Mof_C 	C 	0.0589	0.5175	0.543	-0.211
Mof_H 	H 	0.0638	0.47	0.5256	0.101
Mof_C 	C 	0.0438	0.5348	0.5332	0.16
Mof_H 	H 	0.0391	0.5041	0.5076	-0.035
Mof_C 	C 	0.0358	0.5966	0.5612	-0.267
Mof_C 	C 	0.0439	0.6488	0.6004	0.14
Mof_H 	H 	0.0387	0.6921	0.6197	-0.023
Mof_C 	C 	0.0584	0.6326	0.6072	-0.207
Mof_H 	H 	0.0632	0.6642	0.6324	0.098
Mof_C 	C 	0.0202	0.6181	0.5518	0.54
Mof_C 	C 	0.0193	0.6981	0.4495	0.514
Mof_C 	C 	0.0372	0.7218	0.4359	-0.208
Mof_C 	C 	0.0444	0.6818	0.4048	0.186
Mof_H 	H 	0.0395	0.6339	0.3877	-0.036
Mof_C 	C 	0.0586	0.7	0.393	-0.231
Mof_H 	H 	0.0627	0.6717	0.3658	0.106
Mof_C 	C 	0.0676	0.7628	0.4215	0.124
Mof_C 	C 	0.0594	0.8088	0.4592	-0.178
Mof_H 	H 	0.0646	0.8497	0.4796	0.092
Mof_C 	C 	0.0445	0.7965	0.467	0.093
Mof_H 	H 	0.0392	0.8314	0.4898	0.007
Mof_C 	C 	0.0937	0.6972	0.4237	0.037
Mof_C 	C 	0.1097	0.7091	0.4093	0.002
Mof_C 	C 	0.1149	0.7921	0.3941	-0.019
Mof_C 	C 	0.1054	0.8717	0.3869	-0.001
Mof_C 	C 	0.0889	0.8673	0.3941	0.034
Mof_C 	C 	0.084	0.7736	0.4142	-0.077
Mof_C 	C 	0.0886	0.61	0.4469	-0.083
Mof_H 	H 	0.0788	0.6083	0.4584	0.063
Mof_C 	C 	0.0971	0.5324	0.4529	-0.02
Mof_H 	H 	0.0932	0.4756	0.4652	0.039
Mof_C 	C 	0.1126	0.5427	0.4389	-0.04
Mof_H 	H 	0.1189	0.4902	0.4429	0.046
Mof_C 	C 	0.1187	0.6242	0.4203	-0.059
Mof_H 	H 	0.129	0.626	0.4145	0.055
Mof_C 	C 	0.1109	0.9586	0.3683	-0.041
Mof_H 	H 	0.1211	0.965	0.3627	0.051
Mof_C 	C 	0.1014	0.0358	0.358	-0.063
Mof_H 	H 	0.1052	0.0934	0.3465	0.053
Mof_C 	C 	0.0848	0.0216	0.3666	-0.033
Mof_H 	H 	0.0781	0.0703	0.3584	0.036
Mof_C 	C 	0.0795	0.9425	0.3852	-0.072
Mof_H 	H 	0.0693	0.9375	0.3923	0.056
Mof_C 	C 	0.1317	0.7985	0.3816	0.007
Mof_C 	C 	0.1428	0.806	0.4211	-0.034
Mof_C 	C 	0.1583	0.8024	0.4102	0.073
Mof_C 	C 	0.1638	0.7935	0.3612	-0.147
Mof_C 	C 	0.1522	0.7959	0.3229	0.066
Mof_C 	C 	0.1371	0.7957	0.3387	-0.026
Mof_C 	C 	0.1257	0.7941	0.2958	-0.039
Mof_H 	H 	0.1154	0.7957	0.3012	0.049
Mof_C 	C 	0.1312	0.7903	0.2507	-0.06
Mof_H 	H 	0.1243	0.789	0.2257	0.052
Mof_C 	C 	0.1467	0.7882	0.2387	0.012
Mof_H 	H 	0.1497	0.7819	0.2069	0.03
Mof_C 	C 	0.1563	0.7951	0.2718	-0.112
Mof_H 	H 	0.1664	0.7998	0.2636	0.069
Mof_C 	C 	0.1387	0.8114	0.4713	-0.017
Mof_H 	H 	0.1286	0.8092	0.48	0.043
Mof_C 	C 	0.1491	0.8193	0.505	-0.09
Mof_H 	H 	0.1464	0.8308	0.5366	0.062
Mof_C 	C 	0.1641	0.8106	0.493	0.039
Mof_H 	H 	0.1709	0.8054	0.5183	0.012
Mof_C 	C 	0.1697	0.8087	0.4506	-0.132
Mof_H 	H 	0.18	0.8111	0.4451	0.073
Mof_C 	C 	0.1797	0.7834	0.3471	0.302
Mof_C 	C 	0.1856	0.6993	0.3489	-0.4
Mof_H 	H 	0.18	0.6488	0.3614	0.167
Mof_C 	C 	0.2001	0.6827	0.3326	0.304
Mof_H 	H 	0.2035	0.6201	0.3301	-0.077
Mof_C 	C 	0.2097	0.7564	0.3198	-0.419
Mof_C 	C 	0.2029	0.8465	0.3199	0.312
Mof_H 	H 	0.2082	0.8985	0.3078	-0.101
Mof_C 	C 	0.1887	0.861	0.3371	-0.387
Mof_H 	H 	0.1851	0.9227	0.342	0.161
Mof_C 	C 	0.2253	0.7367	0.3032	0.725
Mof_C 	C 	0.0833	0.5529	0.5877	-0.092
Mof_C 	C 	0.0894	0.4718	0.6041	0.05
Mof_C 	C 	0.1059	0.4645	0.6174	-0.008
Mof_C 	C 	0.1149	0.5406	0.6096	-0.011
Mof_C 	C 	0.1093	0.6259	0.5872	-0.008
Mof_C 	C 	0.0924	0.636	0.5777	0.046
Mof_C 	C 	0.0877	0.7244	0.5558	-0.103
Mof_H 	H 	0.0778	0.7325	0.5457	0.069
Mof_C 	C 	0.0977	0.7941	0.5501	0.007
Mof_H 	H 	0.0944	0.85	0.5355	0.033
Mof_C 	C 	0.1122	0.7902	0.5638	-0.062
Mof_H 	H 	0.1183	0.8437	0.56	0.055
Mof_C 	C 	0.1177	0.7148	0.582	-0.039
Mof_H 	H 	0.1276	0.7162	0.5925	0.048
Mof_C 	C 	0.1309	0.533	0.6211	-0.004
Mof_C 	C 	0.1357	0.5348	0.6715	-0.018
Mof_C 	C 	0.1508	0.5354	0.6849	0.059
Mof_C 	C 	0.1619	0.5335	0.6503	-0.112
Mof_C 	C 	0.1589	0.5321	0.5999	0.066
Mof_C 	C 	0.1426	0.5343	0.5891	-0.016
Mof_C 	C 	0.1382	0.526	0.5387	-0.048
Mof_H 	H 	0.1281	0.5223	0.5301	0.053
Mof_C 	C 	0.1501	0.5249	0.5023	-0.058
Mof_H 	H 	0.1475	0.5202	0.47	0.049
Mof_C 	C 	0.165	0.5305	0.5158	0.001
Mof_H 	H 	0.1725	0.5346	0.4928	0.023
Mof_C 	C 	0.1685	0.5299	0.565	-0.117
Mof_H 	H 	0.1787	0.5279	0.5731	0.067
Mof_C 	C 	0.1551	0.5368	0.7334	-0.094
Mof_H 	H 	0.1652	0.5321	0.7421	0.065
Mof_C 	C 	0.1434	0.5458	0.7696	-0.024
Mof_H 	H 	0.1457	0.5504	0.8021	0.043
Mof_C 	C 	0.128	0.5472	0.753	-0.038
Mof_H 	H 	0.1206	0.5508	0.7764	0.044
Mof_C 	C 	0.1236	0.5442	0.7101	-0.051
Mof_H 	H 	0.1134	0.5475	0.7023	0.052
Mof_C 	C 	0.1791	0.5409	0.6658	0.209
Mof_C 	C 	0.1855	0.4627	0.6847	-0.289
Mof_H 	H 	0.1803	0.405	0.6866	0.128
Mof_C 	C 	0.2006	0.4719	0.7018	0.212
Mof_H 	H 	0.2051	0.4201	0.7171	-0.046
Mof_C 	C 	0.2085	0.5527	0.6964	-0.324
Mof_C 	C 	0.2009	0.6283	0.6743	0.225
Mof_H 	H 	0.2063	0.6835	0.6674	-0.056
Mof_C 	C 	0.1861	0.6259	0.6624	-0.31
Mof_H 	H 	0.181	0.6805	0.6523	0.136
Mof_C 	C 	0.2247	0.5651	0.7145	0.616
Mof_O 	O 	0.0133	0.7582	0.4788	-0.599
Mof_O 	O 	0.0154	0.6198	0.4319	-0.61
Mof_O 	O 	0.2335	0.8116	0.3051	-0.668
Mof_O 	O 	0.22974	0.6624	0.2952	-0.673
Mof_O 	O 	0.23149	0.6388	0.7079	-0.676
Mof_O 	O 	0.2301	0.4928	0.7365	-0.607
Mof_O 	O 	0.0134	0.6907	0.5714	-0.561
Mof_O 	O 	0.0125	0.5649	0.5258	-0.582
Mof_Tb	Tb	0.99899	0.81192	0.53702	2.08
Mof_C 	C 	0.1105	0.8792	0.1418	-0.053
Mof_H 	H 	0.1204	0.8749	0.1527	0.053
Mof_C 	C 	0.1015	0.8066	0.1495	-0.051
Mof_H 	H 	0.1054	0.7491	0.1604	0.049
Mof_C 	C 	0.0853	0.8139	0.1414	-0.013
Mof_H 	H 	0.0788	0.7666	0.1522	0.028
Mof_C 	C 	0.0799	0.8935	0.117	-0.105
Mof_H 	H 	0.0698	0.8958	0.1088	0.065
Mof_C 	C 	0.0674	0.0696	0.0784	0.152
Mof_C 	C 	0.0589	0.0175	0.043	-0.255
Mof_H 	H 	0.0638	0.97	0.0256	0.123
Mof_C 	C 	0.0438	0.0348	0.0332	0.186
Mof_H 	H 	0.0391	0.0041	0.0076	-0.05
Mof_C 	C 	0.0358	0.0966	0.0612	-0.283
Mof_C 	C 	0.0439	0.1488	0.1004	0.154
Mof_H 	H 	0.0387	0.1921	0.1197	-0.029
Mof_C 	C 	0.0584	0.1326	0.1072	-0.226
Mof_H 	H 	0.0632	0.1642	0.1324	0.103
Mof_C 	C 	0.0202	0.1181	0.0518	0.544
Mof_C 	C 	0.0193	0.1981	0.9495	0.512
Mof_C 	C 	0.0372	0.2218	0.9359	-0.209
Mof_C 	C 	0.0444	0.1818	0.9048	0.186
Mof_H 	H 	0.0395	0.1339	0.8877	-0.039
Mof_C 	C 	0.0586	0.2	0.893	-0.232
Mof_H 	H 	0.0627	0.1717	0.8658	0.105
Mof_C 	C 	0.0676	0.2628	0.9215	0.124
Mof_C 	C 	0.0594	0.3088	0.9592	-0.179
Mof_H 	H 	0.0646	0.3497	0.9796	0.092
Mof_C 	C 	0.0445	0.2965	0.967	0.093
Mof_H 	H 	0.0392	0.3314	0.9898	0.007
Mof_C 	C 	0.0937	0.1972	0.9237	0.034
Mof_C 	C 	0.1097	0.2091	0.9093	0.003
Mof_C 	C 	0.1149	0.2921	0.8941	-0.022
Mof_C 	C 	0.1054	0.3717	0.8869	0.001
Mof_C 	C 	0.0889	0.3673	0.8941	0.039
Mof_C 	C 	0.084	0.2736	0.9142	-0.078
Mof_C 	C 	0.0886	0.11	0.9469	-0.071
Mof_H 	H 	0.0788	0.1083	0.9584	0.058
Mof_C 	C 	0.0971	0.0324	0.9529	-0.041
Mof_H 	H 	0.0932	0.9756	0.9652	0.055
Mof_C 	C 	0.1126	0.0427	0.9389	-0.053
Mof_H 	H 	0.1189	0.9902	0.9429	0.06
Mof_C 	C 	0.1187	0.1242	0.9203	-0.053
Mof_H 	H 	0.129	0.126	0.9145	0.052
Mof_C 	C 	0.1109	0.4586	0.8683	-0.057
Mof_H 	H 	0.1211	0.465	0.8627	0.052
Mof_C 	C 	0.1014	0.5358	0.858	-0.053
Mof_H 	H 	0.1052	0.5934	0.8465	0.05
Mof_C 	C 	0.0848	0.5216	0.8666	-0.01
Mof_H 	H 	0.0781	0.5703	0.8584	0.03
Mof_C 	C 	0.0795	0.4425	0.8852	-0.098
Mof_H 	H 	0.0693	0.4375	0.8923	0.062
Mof_C 	C 	0.1317	0.2985	0.8816	0.016
Mof_C 	C 	0.1428	0.306	0.9211	-0.055
Mof_C 	C 	0.1583	0.3024	0.9102	0.091
Mof_C 	C 	0.1638	0.2935	0.8612	-0.156
Mof_C 	C 	0.1522	0.2959	0.8229	0.072
Mof_C 	C 	0.1371	0.2957	0.8387	-0.033
Mof_C 	C 	0.1257	0.2941	0.7958	-0.036
Mof_H 	H 	0.1154	0.2957	0.8012	0.046
Mof_C 	C 	0.1312	0.2903	0.7507	-0.066
Mof_H 	H 	0.1243	0.289	0.7257	0.053
Mof_C 	C 	0.1467	0.2882	0.7387	0.017
Mof_H 	H 	0.1497	0.2819	0.7069	0.028
Mof_C 	C 	0.1563	0.2951	0.7718	-0.118
Mof_H 	H 	0.1664	0.2998	0.7636	0.07
Mof_C 	C 	0.1387	0.3114	0.9713	0.024
Mof_H 	H 	0.1286	0.3092	0.98	0.029
Mof_C 	C 	0.1491	0.3193	0.005	-0.149
Mof_H 	H 	0.1464	0.3308	0.0366	0.081
Mof_C 	C 	0.1641	0.3106	0.993	0.098
Mof_H 	H 	0.1709	0.3054	0.0183	-0.012
Mof_C 	C 	0.1697	0.3087	0.9506	-0.173
Mof_H 	H 	0.18	0.3111	0.9451	0.087
Mof_C 	C 	0.1797	0.2834	0.8471	0.307
Mof_C 	C 	0.1856	0.1993	0.8489	-0.405
Mof_H 	H 	0.18	0.1488	0.8614	0.167
Mof_C 	C 	0.2001	0.1827	0.8326	0.307
Mof_H 	H 	0.2035	0.1201	0.8301	-0.08
Mof_C 	C 	0.2097	0.2564	0.8198	-0.422
Mof_C 	C 	0.2029	0.3465	0.8199	0.315
Mof_H 	H 	0.2082	0.3985	0.8078	-0.103
Mof_C 	C 	0.1887	0.361	0.8371	-0.391
Mof_H 	H 	0.1851	0.4227	0.842	0.16
Mof_C 	C 	0.2253	0.2367	0.8032	0.725
Mof_C 	C 	0.0833	0.0529	0.0877	-0.119
Mof_C 	C 	0.0894	0.9718	0.1041	0.07
Mof_C 	C 	0.1059	0.9645	0.1174	0.001
Mof_C 	C 	0.1149	0.0406	0.1096	-0.022
Mof_C 	C 	0.1093	0.1259	0.0872	-0.01
Mof_C 	C 	0.0924	0.136	0.0777	0.053
Mof_C 	C 	0.0877	0.2244	0.0558	-0.112
Mof_H 	H 	0.0778	0.2325	0.0457	0.071
Mof_C 	C 	0.0977	0.2941	0.0501	0.013
Mof_H 	H 	0.0944	0.35	0.0355	0.027
Mof_C 	C 	0.1122	0.2902	0.0638	-0.068
Mof_H 	H 	0.1183	0.3437	0.06	0.054
Mof_C 	C 	0.1177	0.2148	0.082	-0.036
Mof_H 	H 	0.1276	0.2162	0.0925	0.047
Mof_C 	C 	0.1309	0.033	0.1211	-0.004
Mof_C 	C 	0.1357	0.0348	0.1715	-0.019
Mof_C 	C 	0.1508	0.0354	0.1849	0.056
Mof_C 	C 	0.1619	0.0335	0.1503	-0.108
Mof_C 	C 	0.1589	0.0321	0.0999	0.061
Mof_C 	C 	0.1426	0.0343	0.0891	-0.017
Mof_C 	C 	0.1382	0.026	0.0387	-0.048
Mof_H 	H 	0.1281	0.0223	0.0301	0.05
Mof_C 	C 	0.1501	0.0249	0.0023	-0.063
Mof_H 	H 	0.1475	0.0202	0.97	0.05
Mof_C 	C 	0.165	0.0305	0.0158	-0.008
Mof_H 	H 	0.1725	0.0346	0.9928	0.027
Mof_C 	C 	0.1685	0.0299	0.065	-0.112
Mof_H 	H 	0.1787	0.0279	0.0731	0.063
Mof_C 	C 	0.1551	0.0368	0.2334	-0.093
Mof_H 	H 	0.1652	0.0321	0.2421	0.062
Mof_C 	C 	0.1434	0.0458	0.2696	-0.027
Mof_H 	H 	0.1457	0.0504	0.3021	0.043
Mof_C 	C 	0.128	0.0472	0.253	-0.038
Mof_H 	H 	0.1206	0.0508	0.2764	0.042
Mof_C 	C 	0.1236	0.0442	0.2101	-0.053
Mof_H 	H 	0.1134	0.0475	0.2023	0.05
Mof_C 	C 	0.1791	0.0409	0.1658	0.193
Mof_C 	C 	0.1855	0.9627	0.1847	-0.273
Mof_H 	H 	0.1803	0.905	0.1866	0.124
Mof_C 	C 	0.2006	0.9719	0.2018	0.219
Mof_H 	H 	0.2051	0.9201	0.2171	-0.047
Mof_C 	C 	0.2085	0.0527	0.1964	-0.331
Mof_C 	C 	0.2009	0.1283	0.1743	0.221
Mof_H 	H 	0.2063	0.1835	0.1674	-0.055
Mof_C 	C 	0.1861	0.1259	0.1624	-0.303
Mof_H 	H 	0.181	0.1805	0.1523	0.134
Mof_C 	C 	0.2247	0.0651	0.2145	0.606
Mof_O 	O 	0.0133	0.2582	0.9788	-0.596
Mof_O 	O 	0.0154	0.1198	0.9319	-0.608
Mof_O 	O 	0.2335	0.3116	0.8051	-0.667
Mof_O 	O 	0.22974	0.1624	0.7952	-0.674
Mof_O 	O 	0.23149	0.1388	0.2079	-0.674
Mof_O 	O 	0.2301	0.9928	0.2365	-0.599
Mof_O 	O 	0.0134	0.1907	0.0714	-0.563
Mof_O 	O 	0.0125	0.0649	0.0258	-0.585
Mof_Tb	Tb	0.99899	0.31192	0.03702	2.064
Mof_C 	C 	0.6105	0.3792	0.1418	-0.051
Mof_H 	H 	0.6204	0.3749	0.1527	0.05
Mof_C 	C 	0.6015	0.3066	0.1495	-0.05
Mof_H 	H 	0.6054	0.2491	0.1604	0.048
Mof_C 	C 	0.5853	0.3139	0.1414	-0.019
Mof_H 	H 	0.5788	0.2666	0.1522	0.029
Mof_C 	C 	0.5799	0.3935	0.117	-0.095
Mof_H 	H 	0.5698	0.3958	0.1088	0.058
Mof_C 	C 	0.5674	0.5696	0.0784	0.13
Mof_C 	C 	0.5589	0.5175	0.043	-0.211
Mof_H 	H 	0.5638	0.47	0.0256	0.099
Mof_C 	C 	0.5438	0.5348	0.0332	0.16
Mof_H 	H 	0.5391	0.5041	0.0076	-0.037
Mof_C 	C 	0.5358	0.5966	0.0612	-0.268
Mof_C 	C 	0.5439	0.6488	0.1004	0.14
Mof_H 	H 	0.5387	0.6921	0.1197	-0.023
Mof_C 	C 	0.5584	0.6326	0.1072	-0.207
Mof_H 	H 	0.5632	0.6642	0.1324	0.098
Mof_C 	C 	0.5202	0.6181	0.0518	0.54
Mof_C 	C 	0.5193	0.6981	0.9495	0.514
Mof_C 	C 	0.5372	0.7218	0.9359	-0.207
Mof_C 	C 	0.5444	0.6818	0.9048	0.185
Mof_H 	H 	0.5395	0.6339	0.8877	-0.036
Mof_C 	C 	0.5586	0.7	0.893	-0.23
Mof_H 	H 	0.5627	0.6717	0.8658	0.106
Mof_C 	C 	0.5676	0.7628	0.9215	0.123
Mof_C 	C 	0.5594	0.8088	0.9592	-0.177
Mof_H 	H 	0.5646	0.8497	0.9796	0.093
Mof_C 	C 	0.5445	0.7965	0.967	0.093
Mof_H 	H 	0.5392	0.8314	0.9898	0.009
Mof_C 	C 	0.5937	0.6972	0.9237	0.037
Mof_C 	C 	0.6097	0.7091	0.9093	0.005
Mof_C 	C 	0.6149	0.7921	0.8941	-0.023
Mof_C 	C 	0.6054	0.8717	0.8869	0.002
Mof_C 	C 	0.5889	0.8673	0.8941	0.033
Mof_C 	C 	0.584	0.7736	0.9142	-0.076
Mof_C 	C 	0.5886	0.61	0.9469	-0.082
Mof_H 	H 	0.5788	0.6083	0.9584	0.064
Mof_C 	C 	0.5971	0.5324	0.9529	-0.02
Mof_H 	H 	0.5932	0.4756	0.9652	0.04
Mof_C 	C 	0.6126	0.5427	0.9389	-0.038
Mof_H 	H 	0.6189	0.4902	0.9429	0.046
Mof_C 	C 	0.6187	0.6242	0.9203	-0.06
Mof_H 	H 	0.629	0.626	0.9145	0.055
Mof_C 	C 	0.6109	0.9586	0.8683	-0.042
Mof_H 	H 	0.6211	0.965	0.8627	0.051
Mof_C 	C 	0.6014	0.0358	0.858	-0.062
Mof_H 	H 	0.6052	0.0934	0.8465	0.052
Mof_C 	C 	0.5848	0.0216	0.8666	-0.034
Mof_H 	H 	0.5781	0.0703	0.8584	0.036
Mof_C 	C 	0.5795	0.9425	0.8852	-0.07
Mof_H 	H 	0.5693	0.9375	0.8923	0.056
Mof_C 	C 	0.6317	0.7985	0.8816	0.017
Mof_C 	C 	0.6428	0.806	0.9211	-0.056
Mof_C 	C 	0.6583	0.8024	0.9102	0.093
Mof_C 	C 	0.6638	0.7935	0.8612	-0.156
Mof_C 	C 	0.6522	0.7959	0.8229	0.073
Mof_C 	C 	0.6371	0.7957	0.8387	-0.033
Mof_C 	C 	0.6257	0.7941	0.7958	-0.035
Mof_H 	H 	0.6154	0.7957	0.8012	0.047
Mof_C 	C 	0.6312	0.7903	0.7507	-0.065
Mof_H 	H 	0.6243	0.789	0.7257	0.054
Mof_C 	C 	0.6467	0.7882	0.7387	0.018
Mof_H 	H 	0.6497	0.7819	0.7069	0.028
Mof_C 	C 	0.6563	0.7951	0.7718	-0.118
Mof_H 	H 	0.6664	0.7998	0.7636	0.071
Mof_C 	C 	0.6387	0.8114	0.9713	0.027
Mof_H 	H 	0.6286	0.8092	0.98	0.029
Mof_C 	C 	0.6491	0.8193	0.005	-0.152
Mof_H 	H 	0.6464	0.8308	0.0366	0.083
Mof_C 	C 	0.6641	0.8106	0.993	0.102
Mof_H 	H 	0.6709	0.8054	0.0183	-0.013
Mof_C 	C 	0.6697	0.8087	0.9506	-0.174
Mof_H 	H 	0.68	0.8111	0.9451	0.089
Mof_C 	C 	0.6797	0.7834	0.8471	0.309
Mof_C 	C 	0.6856	0.6993	0.8489	-0.406
Mof_H 	H 	0.68	0.6488	0.8614	0.169
Mof_C 	C 	0.7001	0.6827	0.8326	0.308
Mof_H 	H 	0.7035	0.6201	0.8301	-0.078
Mof_C 	C 	0.7097	0.7564	0.8198	-0.422
Mof_C 	C 	0.7029	0.8465	0.8199	0.316
Mof_H 	H 	0.7082	0.8985	0.8078	-0.102
Mof_C 	C 	0.6887	0.861	0.8371	-0.393
Mof_H 	H 	0.6851	0.9227	0.842	0.163
Mof_C 	C 	0.7253	0.7367	0.8032	0.726
Mof_C 	C 	0.5833	0.5529	0.0877	-0.092
Mof_C 	C 	0.5894	0.4718	0.1041	0.049
Mof_C 	C 	0.6059	0.4645	0.1174	-0.008
Mof_C 	C 	0.6149	0.5406	0.1096	-0.011
Mof_C 	C 	0.6093	0.6259	0.0872	-0.008
Mof_C 	C 	0.5924	0.636	0.0777	0.046
Mof_C 	C 	0.5877	0.7244	0.0558	-0.103
Mof_H 	H 	0.5778	0.7325	0.0457	0.068
Mof_C 	C 	0.5977	0.7941	0.0501	0.006
Mof_H 	H 	0.5944	0.85	0.0355	0.033
Mof_C 	C 	0.6122	0.7902	0.0638	-0.061
Mof_H 	H 	0.6183	0.8437	0.06	0.054
Mof_C 	C 	0.6177	0.7148	0.082	-0.04
Mof_H 	H 	0.6276	0.7162	0.0925	0.048
Mof_C 	C 	0.6309	0.533	0.1211	-0.004
Mof_C 	C 	0.6357	0.5348	0.1715	-0.018
Mof_C 	C 	0.6508	0.5354	0.1849	0.059
Mof_C 	C 	0.6619	0.5335	0.1503	-0.111
Mof_C 	C 	0.6589	0.5321	0.0999	0.064
Mof_C 	C 	0.6426	0.5343	0.0891	-0.016
Mof_C 	C 	0.6382	0.526	0.0387	-0.046
Mof_H 	H 	0.6281	0.5223	0.0301	0.052
Mof_C 	C 	0.6501	0.5249	0.0023	-0.063
Mof_H 	H 	0.6475	0.5202	0.97	0.053
Mof_C 	C 	0.665	0.5305	0.0158	-0.007
Mof_H 	H 	0.6725	0.5346	0.9928	0.028
Mof_C 	C 	0.6685	0.5299	0.065	-0.113
Mof_H 	H 	0.6787	0.5279	0.0731	0.065
Mof_C 	C 	0.6551	0.5368	0.2334	-0.094
Mof_H 	H 	0.6652	0.5321	0.2421	0.065
Mof_C 	C 	0.6434	0.5458	0.2696	-0.024
Mof_H 	H 	0.6457	0.5504	0.3021	0.044
Mof_C 	C 	0.628	0.5472	0.253	-0.038
Mof_H 	H 	0.6206	0.5508	0.2764	0.044
Mof_C 	C 	0.6236	0.5442	0.2101	-0.051
Mof_H 	H 	0.6134	0.5475	0.2023	0.052
Mof_C 	C 	0.6791	0.5409	0.1658	0.208
Mof_C 	C 	0.6855	0.4627	0.1847	-0.289
Mof_H 	H 	0.6803	0.405	0.1866	0.128
Mof_C 	C 	0.7006	0.4719	0.2018	0.212
Mof_H 	H 	0.7051	0.4201	0.2171	-0.046
Mof_C 	C 	0.7085	0.5527	0.1964	-0.324
Mof_C 	C 	0.7009	0.6283	0.1743	0.224
Mof_H 	H 	0.7063	0.6835	0.1674	-0.056
Mof_C 	C 	0.6861	0.6259	0.1624	-0.31
Mof_H 	H 	0.681	0.6805	0.1523	0.136
Mof_C 	C 	0.7247	0.5651	0.2145	0.616
Mof_O 	O 	0.5133	0.7582	0.9788	-0.596
Mof_O 	O 	0.5154	0.6198	0.9319	-0.61
Mof_O 	O 	0.7335	0.8116	0.8051	-0.668
Mof_O 	O 	0.72974	0.6624	0.7952	-0.673
Mof_O 	O 	0.73149	0.6388	0.2079	-0.676
Mof_O 	O 	0.7301	0.4928	0.2365	-0.607
Mof_O 	O 	0.5134	0.6907	0.0714	-0.561
Mof_O 	O 	0.5125	0.5649	0.0258	-0.584
Mof_Tb	Tb	0.49899	0.81192	0.03702	2.071
Mof_C 	C 	0.6105	0.8792	0.6418	-0.053
Mof_H 	H 	0.6204	0.8749	0.6527	0.053
Mof_C 	C 	0.6015	0.8066	0.6495	-0.051
Mof_H 	H 	0.6054	0.7491	0.6604	0.049
Mof_C 	C 	0.5853	0.8139	0.6414	-0.012
Mof_H 	H 	0.5788	0.7666	0.6522	0.028
Mof_C 	C 	0.5799	0.8935	0.617	-0.105
Mof_H 	H 	0.5698	0.8958	0.6088	0.066
Mof_C 	C 	0.5674	0.0696	0.5784	0.153
Mof_C 	C 	0.5589	0.0175	0.543	-0.256
Mof_H 	H 	0.5638	0.97	0.5256	0.125
Mof_C 	C 	0.5438	0.0348	0.5332	0.187
Mof_H 	H 	0.5391	0.0041	0.5076	-0.049
Mof_C 	C 	0.5358	0.0966	0.5612	-0.283
Mof_C 	C 	0.5439	0.1488	0.6004	0.155
Mof_H 	H 	0.5387	0.1921	0.6197	-0.03
Mof_C 	C 	0.5584	0.1326	0.6072	-0.227
Mof_H 	H 	0.5632	0.1642	0.6324	0.103
Mof_C 	C 	0.5202	0.1181	0.5518	0.544
Mof_C 	C 	0.5193	0.1981	0.4495	0.512
Mof_C 	C 	0.5372	0.2218	0.4359	-0.21
Mof_C 	C 	0.5444	0.1818	0.4048	0.186
Mof_H 	H 	0.5395	0.1339	0.3877	-0.039
Mof_C 	C 	0.5586	0.2	0.393	-0.233
Mof_H 	H 	0.5627	0.1717	0.3658	0.105
Mof_C 	C 	0.5676	0.2628	0.4215	0.124
Mof_C 	C 	0.5594	0.3088	0.4592	-0.18
Mof_H 	H 	0.5646	0.3497	0.4796	0.091
Mof_C 	C 	0.5445	0.2965	0.467	0.093
Mof_H 	H 	0.5392	0.3314	0.4898	0.006
Mof_C 	C 	0.5937	0.1972	0.4237	0.035
Mof_C 	C 	0.6097	0.2091	0.4093	0
Mof_C 	C 	0.6149	0.2921	0.3941	-0.019
Mof_C 	C 	0.6054	0.3717	0.3869	-0.002
Mof_C 	C 	0.5889	0.3673	0.3941	0.04
Mof_C 	C 	0.584	0.2736	0.4142	-0.079
Mof_C 	C 	0.5886	0.11	0.4469	-0.073
Mof_H 	H 	0.5788	0.1083	0.4584	0.058
Mof_C 	C 	0.5971	0.0324	0.4529	-0.041
Mof_H 	H 	0.5932	0.9756	0.4652	0.054
Mof_C 	C 	0.6126	0.0427	0.4389	-0.055
Mof_H 	H 	0.6189	0.9902	0.4429	0.059
Mof_C 	C 	0.6187	0.1242	0.4203	-0.052
Mof_H 	H 	0.629	0.126	0.4145	0.051
Mof_C 	C 	0.6109	0.4586	0.3683	-0.056
Mof_H 	H 	0.6211	0.465	0.3627	0.052
Mof_C 	C 	0.6014	0.5358	0.358	-0.055
Mof_H 	H 	0.6052	0.5934	0.3465	0.051
Mof_C 	C 	0.5848	0.5216	0.3666	-0.01
Mof_H 	H 	0.5781	0.5703	0.3584	0.03
Mof_C 	C 	0.5795	0.4425	0.3852	-0.099
Mof_H 	H 	0.5693	0.4375	0.3923	0.062
Mof_C 	C 	0.6317	0.2985	0.3816	0.006
Mof_C 	C 	0.6428	0.306	0.4211	-0.034
Mof_C 	C 	0.6583	0.3024	0.4102	0.071
Mof_C 	C 	0.6638	0.2935	0.3612	-0.147
Mof_C 	C 	0.6522	0.2959	0.3229	0.065
Mof_C 	C 	0.6371	0.2957	0.3387	-0.026
Mof_C 	C 	0.6257	0.2941	0.2958	-0.041
Mof_H 	H 	0.6154	0.2957	0.3012	0.048
Mof_C 	C 	0.6312	0.2903	0.2507	-0.061
Mof_H 	H 	0.6243	0.289	0.2257	0.051
Mof_C 	C 	0.6467	0.2882	0.2387	0.011
Mof_H 	H 	0.6497	0.2819	0.2069	0.03
Mof_C 	C 	0.6563	0.2951	0.2718	-0.112
Mof_H 	H 	0.6664	0.2998	0.2636	0.068
Mof_C 	C 	0.6387	0.3114	0.4713	-0.018
Mof_H 	H 	0.6286	0.3092	0.48	0.042
Mof_C 	C 	0.6491	0.3193	0.505	-0.091
Mof_H 	H 	0.6464	0.3308	0.5366	0.061
Mof_C 	C 	0.6641	0.3106	0.493	0.038
Mof_H 	H 	0.6709	0.3054	0.5183	0.011
Mof_C 	C 	0.6697	0.3087	0.4506	-0.133
Mof_H 	H 	0.68	0.3111	0.4451	0.072
Mof_C 	C 	0.6797	0.2834	0.3471	0.301
Mof_C 	C 	0.6856	0.1993	0.3489	-0.399
Mof_H 	H 	0.68	0.1488	0.3614	0.165
Mof_C 	C 	0.7001	0.1827	0.3326	0.303
Mof_H 	H 	0.7035	0.1201	0.3301	-0.079
Mof_C 	C 	0.7097	0.2564	0.3198	-0.419
Mof_C 	C 	0.7029	0.3465	0.3199	0.311
Mof_H 	H 	0.7082	0.3985	0.3078	-0.101
Mof_C 	C 	0.6887	0.361	0.3371	-0.386
Mof_H 	H 	0.6851	0.4227	0.342	0.158
Mof_C 	C 	0.7253	0.2367	0.3032	0.724
Mof_C 	C 	0.5833	0.0529	0.5877	-0.119
Mof_C 	C 	0.5894	0.9718	0.6041	0.071
Mof_C 	C 	0.6059	0.9645	0.6174	0.001
Mof_C 	C 	0.6149	0.0406	0.6096	-0.022
Mof_C 	C 	0.6093	0.1259	0.5872	-0.01
Mof_C 	C 	0.5924	0.136	0.5777	0.054
Mof_C 	C 	0.5877	0.2244	0.5558	-0.112
Mof_H 	H 	0.5778	0.2325	0.5457	0.072
Mof_C 	C 	0.5977	0.2941	0.5501	0.014
Mof_H 	H 	0.5944	0.35	0.5355	0.028
Mof_C 	C 	0.6122	0.2902	0.5638	-0.069
Mof_H 	H 	0.6183	0.3437	0.56	0.055
Mof_C 	C 	0.6177	0.2148	0.582	-0.035
Mof_H 	H 	0.6276	0.2162	0.5925	0.047
Mof_C 	C 	0.6309	0.033	0.6211	-0.004
Mof_C 	C 	0.6357	0.0348	0.6715	-0.02
Mof_C 	C 	0.6508	0.0354	0.6849	0.056
Mof_C 	C 	0.6619	0.0335	0.6503	-0.109
Mof_C 	C 	0.6589	0.0321	0.5999	0.062
Mof_C 	C 	0.6426	0.0343	0.5891	-0.017
Mof_C 	C 	0.6382	0.026	0.5387	-0.049
Mof_H 	H 	0.6281	0.0223	0.5301	0.052
Mof_C 	C 	0.6501	0.0249	0.5023	-0.058
Mof_H 	H 	0.6475	0.0202	0.47	0.046
Mof_C 	C 	0.665	0.0305	0.5158	-0.002
Mof_H 	H 	0.6725	0.0346	0.4928	0.022
Mof_C 	C 	0.6685	0.0299	0.565	-0.116
Mof_H 	H 	0.6787	0.0279	0.5731	0.065
Mof_C 	C 	0.6551	0.0368	0.7334	-0.093
Mof_H 	H 	0.6652	0.0321	0.7421	0.062
Mof_C 	C 	0.6434	0.0458	0.7696	-0.027
Mof_H 	H 	0.6457	0.0504	0.8021	0.043
Mof_C 	C 	0.628	0.0472	0.753	-0.038
Mof_H 	H 	0.6206	0.0508	0.7764	0.042
Mof_C 	C 	0.6236	0.0442	0.7101	-0.053
Mof_H 	H 	0.6134	0.0475	0.7023	0.05
Mof_C 	C 	0.6791	0.0409	0.6658	0.193
Mof_C 	C 	0.6855	0.9627	0.6847	-0.272
Mof_H 	H 	0.6803	0.905	0.6866	0.124
Mof_C 	C 	0.7006	0.9719	0.7018	0.22
Mof_H 	H 	0.7051	0.9201	0.7171	-0.047
Mof_C 	C 	0.7085	0.0527	0.6964	-0.331
Mof_C 	C 	0.7009	0.1283	0.6743	0.221
Mof_H 	H 	0.7063	0.1835	0.6674	-0.055
Mof_C 	C 	0.6861	0.1259	0.6624	-0.303
Mof_H 	H 	0.681	0.1805	0.6523	0.134
Mof_C 	C 	0.7247	0.0651	0.7145	0.606
Mof_O 	O 	0.5133	0.2582	0.4788	-0.599
Mof_O 	O 	0.5154	0.1198	0.4319	-0.608
Mof_O 	O 	0.7335	0.3116	0.3051	-0.667
Mof_O 	O 	0.72974	0.1624	0.2952	-0.673
Mof_O 	O 	0.73149	0.1388	0.7079	-0.674
Mof_O 	O 	0.7301	0.9928	0.7365	-0.599
Mof_O 	O 	0.5134	0.1907	0.5714	-0.563
Mof_O 	O 	0.5125	0.0649	0.5258	-0.583
Mof_Tb	Tb	0.49899	0.31192	0.53702	2.072
Mof_Tb	Tb	0.25	0.25	0.20899	2.331
Mof_Tb	Tb	0.25	0.75	0.70899	2.338
Mof_Tb	Tb	0.75	0.75	0.20899	2.337
Mof_Tb	Tb	0.75	0.25	0.70899	2.331
Mof_Tb	Tb	0.5	1.16609e-32	0.45899	2.293
Mof_Tb	Tb	0.5	0.5	0.95899	2.341
Mof_Tb	Tb	-9.17089e-34	0.5	0.45899	2.335
Mof_Tb	Tb	1.12935e-33	0	0.95899	2.299
_end
