data_functionalizedCrystal
_audit_creation_method	'EQeq! by Chris Wilmer'
_symmetry_space_group_name_H-M	'P1'
_symmetry_Int_Tables_number	1
_symmetry_cell_setting	triclinic
loop_
_symmetry_equiv_pos_as_xyz
  x,y,z
_cell_length_a	13.168
_cell_length_b	24.39
_cell_length_c	15.891
_cell_angle_alpha	90
_cell_angle_beta	90
_cell_angle_gamma	90
loop_
_atom_site_label
_atom_site_type_symbol
_atom_site_fract_x
_atom_site_fract_y
_atom_site_fract_z
_atom_site_charge
Mof_Cd	Cd	0.89816	0.72754	0.98623	0.371
Mof_Cd	Cd	0.78599	0.47529	0.11054	0.367
Mof_Cd	Cd	0.60184	0.77246	0.48623	0.371
Mof_Cd	Cd	0.71401	0.02471	0.61054	0.367
Mof_Cd	Cd	0.89816	0.27246	0.51377	0.37
Mof_Cd	Cd	0.78599	0.52471	0.38946	0.366
Mof_Cd	Cd	0.60184	0.22754	0.01377	0.37
Mof_Cd	Cd	0.71401	0.97529	0.88946	0.366
Mof_Cd	Cd	0.10184	0.27246	0.01377	0.37
Mof_Cd	Cd	0.21401	0.52471	0.88946	0.366
Mof_Cd	Cd	0.39816	0.22754	0.51377	0.37
Mof_Cd	Cd	0.28599	0.97529	0.38946	0.366
Mof_Cd	Cd	0.10184	0.72754	0.48623	0.37
Mof_Cd	Cd	0.21401	0.47529	0.61054	0.366
Mof_Cd	Cd	0.39816	0.77246	0.98623	0.37
Mof_Cd	Cd	0.28599	0.02471	0.11054	0.366
Mof_H 	H 	0.9014	0.7533	0.7736	0.009
Mof_H 	H 	0.6184	0.703	0.9981	0.011
Mof_H 	H 	0.8822	0.0747	0.8344	0.014
Mof_H 	H 	0.888	0.6454	0.318	0.018
Mof_H 	H 	0.0517	0.095	0.8335	0.08
Mof_H 	H 	0.1067	0.9415	0.914	0.089
Mof_H 	H 	0.1682	0.0268	0.8727	0.017
Mof_H 	H 	0.8	0.5751	0.7687	0.085
Mof_H 	H 	0.8612	0.7141	0.6475	0.089
Mof_H 	H 	0.8176	0.6228	0.643	0.011
Mof_H 	H 	0.5986	0.7467	0.2736	0.009
Mof_H 	H 	0.8816	0.797	0.4981	0.011
Mof_H 	H 	0.6178	0.4253	0.3344	0.014
Mof_H 	H 	0.612	0.8546	0.818	0.018
Mof_H 	H 	0.4483	0.405	0.3335	0.081
Mof_H 	H 	0.3933	0.5585	0.414	0.09
Mof_H 	H 	0.3318	0.4732	0.3727	0.016
Mof_H 	H 	0.7	0.9249	0.2687	0.085
Mof_H 	H 	0.6388	0.7859	0.1475	0.089
Mof_H 	H 	0.6824	0.8772	0.143	0.011
Mof_H 	H 	0.9014	0.2467	0.7264	0.009
Mof_H 	H 	0.6184	0.297	0.5019	0.011
Mof_H 	H 	0.8822	0.9253	0.6656	0.014
Mof_H 	H 	0.888	0.3546	0.182	0.018
Mof_H 	H 	0.0517	0.905	0.6665	0.08
Mof_H 	H 	0.1067	0.0585	0.586	0.089
Mof_H 	H 	0.1682	0.9732	0.6273	0.017
Mof_H 	H 	0.8	0.4249	0.7313	0.085
Mof_H 	H 	0.8612	0.2859	0.8525	0.089
Mof_H 	H 	0.8176	0.3772	0.857	0.011
Mof_H 	H 	0.5986	0.2533	0.2264	0.009
Mof_H 	H 	0.8816	0.203	0.0019	0.012
Mof_H 	H 	0.6178	0.5747	0.1656	0.014
Mof_H 	H 	0.612	0.1454	0.682	0.018
Mof_H 	H 	0.4483	0.595	0.1665	0.081
Mof_H 	H 	0.3933	0.4415	0.086	0.089
Mof_H 	H 	0.3318	0.5268	0.1273	0.016
Mof_H 	H 	0.7	0.0751	0.2313	0.085
Mof_H 	H 	0.6388	0.2141	0.3525	0.089
Mof_H 	H 	0.6824	0.1228	0.357	0.011
Mof_H 	H 	0.0986	0.2467	0.2264	0.009
Mof_H 	H 	0.3816	0.297	0.0019	0.011
Mof_H 	H 	0.1178	0.9253	0.1656	0.014
Mof_H 	H 	0.112	0.3546	0.682	0.018
Mof_H 	H 	0.9483	0.905	0.1665	0.08
Mof_H 	H 	0.8933	0.0585	0.086	0.089
Mof_H 	H 	0.8318	0.9732	0.1273	0.017
Mof_H 	H 	0.2	0.4249	0.2313	0.085
Mof_H 	H 	0.1388	0.2859	0.3525	0.089
Mof_H 	H 	0.1824	0.3772	0.357	0.011
Mof_H 	H 	0.4014	0.2533	0.7264	0.009
Mof_H 	H 	0.1184	0.203	0.5019	0.011
Mof_H 	H 	0.3822	0.5747	0.6656	0.014
Mof_H 	H 	0.388	0.1454	0.182	0.018
Mof_H 	H 	0.5517	0.595	0.6665	0.081
Mof_H 	H 	0.6067	0.4415	0.586	0.09
Mof_H 	H 	0.6682	0.5268	0.6273	0.016
Mof_H 	H 	0.3	0.0751	0.7313	0.085
Mof_H 	H 	0.3612	0.2141	0.8525	0.089
Mof_H 	H 	0.3176	0.1228	0.857	0.011
Mof_H 	H 	0.0986	0.7533	0.2736	0.009
Mof_H 	H 	0.3816	0.703	0.4981	0.011
Mof_H 	H 	0.1178	0.0747	0.3344	0.014
Mof_H 	H 	0.112	0.6454	0.818	0.018
Mof_H 	H 	0.9483	0.095	0.3335	0.08
Mof_H 	H 	0.8933	0.9415	0.414	0.089
Mof_H 	H 	0.8318	0.0268	0.3727	0.017
Mof_H 	H 	0.2	0.5751	0.2687	0.085
Mof_H 	H 	0.1388	0.7141	0.1475	0.089
Mof_H 	H 	0.1824	0.6228	0.143	0.011
Mof_H 	H 	0.4014	0.7467	0.7736	0.009
Mof_H 	H 	0.1184	0.797	0.9981	0.012
Mof_H 	H 	0.3822	0.4253	0.8344	0.014
Mof_H 	H 	0.388	0.8546	0.318	0.018
Mof_H 	H 	0.5517	0.405	0.8335	0.081
Mof_H 	H 	0.6067	0.5585	0.914	0.089
Mof_H 	H 	0.6682	0.4732	0.8727	0.016
Mof_H 	H 	0.3	0.9249	0.7687	0.085
Mof_H 	H 	0.3612	0.7859	0.6475	0.089
Mof_H 	H 	0.3176	0.8772	0.643	0.011
Mof_C 	C 	0.8799	0.717	0.7727	0.087
Mof_C 	C 	0.7189	0.81219	0.9694	0.076
Mof_C 	C 	0.846	0.59982	0.147	0.081
Mof_C 	C 	0.8378	0.59607	0.056	0.086
Mof_C 	C 	0.8349	0.60978	0.9255	0.082
Mof_C 	C 	0.8433	0.6378	0.8432	0.08
Mof_C 	C 	0.6358	0.7395	0.9892	0.088
Mof_C 	C 	0.9577	0.9602	0.8966	0.072
Mof_C 	C 	0.8085	0.84634	0.9532	0.084
Mof_C 	C 	0.9135	0.90688	0.9217	0.085
Mof_C 	C 	0.9278	0.0477	0.8509	0.077
Mof_C 	C 	0.8707	0.6246	0.2711	0.091
Mof_C 	C 	0.0296	0.0604	0.8497	-0.127
Mof_C 	C 	0.0624	0.9691	0.8975	-0.122
Mof_C 	C 	0.0988	0.0198	0.8732	0.051
Mof_C 	C 	0.8209	0.6115	0.7687	-0.138
Mof_C 	C 	0.8576	0.6936	0.6967	-0.146
Mof_C 	C 	0.8301	0.64	0.6942	0.071
Mof_C 	C 	0.6201	0.783	0.2727	0.087
Mof_C 	C 	0.7811	0.68781	0.4694	0.076
Mof_C 	C 	0.654	0.90018	0.647	0.081
Mof_C 	C 	0.6622	0.90393	0.556	0.085
Mof_C 	C 	0.6651	0.89022	0.4255	0.082
Mof_C 	C 	0.6567	0.8622	0.3432	0.081
Mof_C 	C 	0.8642	0.7605	0.4892	0.088
Mof_C 	C 	0.5423	0.5398	0.3966	0.073
Mof_C 	C 	0.6915	0.65366	0.4532	0.084
Mof_C 	C 	0.5865	0.59312	0.4217	0.085
Mof_C 	C 	0.5722	0.4523	0.3509	0.079
Mof_C 	C 	0.6293	0.8754	0.7711	0.091
Mof_C 	C 	0.4704	0.4396	0.3497	-0.129
Mof_C 	C 	0.4376	0.5309	0.3975	-0.124
Mof_C 	C 	0.4012	0.4802	0.3732	0.053
Mof_C 	C 	0.6791	0.8885	0.2687	-0.138
Mof_C 	C 	0.6424	0.8064	0.1967	-0.146
Mof_C 	C 	0.6699	0.86	0.1942	0.071
Mof_C 	C 	0.8799	0.283	0.7273	0.087
Mof_C 	C 	0.7189	0.18781	0.5306	0.076
Mof_C 	C 	0.846	0.40018	0.353	0.081
Mof_C 	C 	0.8378	0.40393	0.444	0.085
Mof_C 	C 	0.8349	0.39022	0.5745	0.082
Mof_C 	C 	0.8433	0.3622	0.6568	0.08
Mof_C 	C 	0.6358	0.2605	0.5108	0.088
Mof_C 	C 	0.9577	0.0398	0.6034	0.073
Mof_C 	C 	0.8085	0.15366	0.5468	0.084
Mof_C 	C 	0.9135	0.09312	0.5783	0.085
Mof_C 	C 	0.9278	0.9523	0.6491	0.078
Mof_C 	C 	0.8707	0.3754	0.2289	0.091
Mof_C 	C 	0.0296	0.9396	0.6503	-0.128
Mof_C 	C 	0.0624	0.0309	0.6025	-0.124
Mof_C 	C 	0.0988	0.9802	0.6268	0.052
Mof_C 	C 	0.8209	0.3885	0.7313	-0.138
Mof_C 	C 	0.8576	0.3064	0.8033	-0.146
Mof_C 	C 	0.8301	0.36	0.8058	0.071
Mof_C 	C 	0.6201	0.217	0.2273	0.087
Mof_C 	C 	0.7811	0.31219	0.0306	0.076
Mof_C 	C 	0.654	0.09982	0.853	0.081
Mof_C 	C 	0.6622	0.09607	0.944	0.085
Mof_C 	C 	0.6651	0.10978	0.0745	0.082
Mof_C 	C 	0.6567	0.1378	0.1568	0.081
Mof_C 	C 	0.8642	0.2395	0.0108	0.088
Mof_C 	C 	0.5423	0.4602	0.1034	0.073
Mof_C 	C 	0.6915	0.34634	0.0468	0.084
Mof_C 	C 	0.5865	0.40688	0.0783	0.085
Mof_C 	C 	0.5722	0.5477	0.1491	0.079
Mof_C 	C 	0.6293	0.1246	0.7289	0.091
Mof_C 	C 	0.4704	0.5604	0.1503	-0.129
Mof_C 	C 	0.4376	0.4691	0.1025	-0.124
Mof_C 	C 	0.4012	0.5198	0.1268	0.053
Mof_C 	C 	0.6791	0.1115	0.2313	-0.138
Mof_C 	C 	0.6424	0.1936	0.3033	-0.146
Mof_C 	C 	0.6699	0.14	0.3058	0.071
Mof_C 	C 	0.1201	0.283	0.2273	0.087
Mof_C 	C 	0.2811	0.18781	0.0306	0.076
Mof_C 	C 	0.154	0.40018	0.853	0.081
Mof_C 	C 	0.1622	0.40393	0.944	0.086
Mof_C 	C 	0.1651	0.39022	0.0745	0.082
Mof_C 	C 	0.1567	0.3622	0.1568	0.08
Mof_C 	C 	0.3642	0.2605	0.0108	0.088
Mof_C 	C 	0.0423	0.0398	0.1034	0.072
Mof_C 	C 	0.1915	0.15366	0.0468	0.084
Mof_C 	C 	0.0865	0.09312	0.0783	0.085
Mof_C 	C 	0.0722	0.9523	0.1491	0.077
Mof_C 	C 	0.1293	0.3754	0.7289	0.091
Mof_C 	C 	0.9704	0.9396	0.1503	-0.127
Mof_C 	C 	0.9376	0.0309	0.1025	-0.122
Mof_C 	C 	0.9012	0.9802	0.1268	0.051
Mof_C 	C 	0.1791	0.3885	0.2313	-0.138
Mof_C 	C 	0.1424	0.3064	0.3033	-0.146
Mof_C 	C 	0.1699	0.36	0.3058	0.071
Mof_C 	C 	0.3799	0.217	0.7273	0.087
Mof_C 	C 	0.2189	0.31219	0.5306	0.076
Mof_C 	C 	0.346	0.09982	0.353	0.081
Mof_C 	C 	0.3378	0.09607	0.444	0.085
Mof_C 	C 	0.3349	0.10978	0.5745	0.082
Mof_C 	C 	0.3433	0.1378	0.6568	0.081
Mof_C 	C 	0.1358	0.2395	0.5108	0.088
Mof_C 	C 	0.4577	0.4602	0.6034	0.073
Mof_C 	C 	0.3085	0.34634	0.5468	0.084
Mof_C 	C 	0.4135	0.40688	0.5783	0.085
Mof_C 	C 	0.4278	0.5477	0.6491	0.079
Mof_C 	C 	0.3707	0.1246	0.2289	0.091
Mof_C 	C 	0.5296	0.5604	0.6503	-0.129
Mof_C 	C 	0.5624	0.4691	0.6025	-0.124
Mof_C 	C 	0.5988	0.5198	0.6268	0.053
Mof_C 	C 	0.3209	0.1115	0.7313	-0.138
Mof_C 	C 	0.3576	0.1936	0.8033	-0.146
Mof_C 	C 	0.3301	0.14	0.8058	0.071
Mof_C 	C 	0.1201	0.717	0.2727	0.087
Mof_C 	C 	0.2811	0.81219	0.4694	0.076
Mof_C 	C 	0.154	0.59982	0.647	0.081
Mof_C 	C 	0.1622	0.59607	0.556	0.085
Mof_C 	C 	0.1651	0.60978	0.4255	0.082
Mof_C 	C 	0.1567	0.6378	0.3432	0.08
Mof_C 	C 	0.3642	0.7395	0.4892	0.088
Mof_C 	C 	0.0423	0.9602	0.3966	0.073
Mof_C 	C 	0.1915	0.84634	0.4532	0.084
Mof_C 	C 	0.0865	0.90688	0.4217	0.085
Mof_C 	C 	0.0722	0.0477	0.3509	0.078
Mof_C 	C 	0.1293	0.6246	0.7711	0.091
Mof_C 	C 	0.9704	0.0604	0.3497	-0.128
Mof_C 	C 	0.9376	0.9691	0.3975	-0.124
Mof_C 	C 	0.9012	0.0198	0.3732	0.052
Mof_C 	C 	0.1791	0.6115	0.2687	-0.138
Mof_C 	C 	0.1424	0.6936	0.1967	-0.146
Mof_C 	C 	0.1699	0.64	0.1942	0.071
Mof_C 	C 	0.3799	0.783	0.7727	0.087
Mof_C 	C 	0.2189	0.68781	0.9694	0.076
Mof_C 	C 	0.346	0.90018	0.147	0.081
Mof_C 	C 	0.3378	0.90393	0.056	0.085
Mof_C 	C 	0.3349	0.89022	0.9255	0.082
Mof_C 	C 	0.3433	0.8622	0.8432	0.081
Mof_C 	C 	0.1358	0.7605	0.9892	0.088
Mof_C 	C 	0.4577	0.5398	0.8966	0.073
Mof_C 	C 	0.3085	0.65366	0.9532	0.084
Mof_C 	C 	0.4135	0.59312	0.9217	0.085
Mof_C 	C 	0.4278	0.4523	0.8509	0.079
Mof_C 	C 	0.3707	0.8754	0.2711	0.091
Mof_C 	C 	0.5296	0.4396	0.8497	-0.129
Mof_C 	C 	0.5624	0.5309	0.8975	-0.124
Mof_C 	C 	0.5988	0.4802	0.8732	0.053
Mof_C 	C 	0.3209	0.8885	0.7687	-0.138
Mof_C 	C 	0.3576	0.8064	0.6967	-0.146
Mof_C 	C 	0.3301	0.86	0.6942	0.071
Mof_N 	N 	0.732	0.7573	0.9819	-0.152
Mof_N 	N 	0.81	0.55767	0.9352	-0.097
Mof_N 	N 	0.8116	0.54866	0.0204	-0.117
Mof_N 	N 	0.8529	0.63618	0.9994	-0.148
Mof_N 	N 	0.8722	0.69007	0.8463	-0.148
Mof_N 	N 	0.5676	0.77994	0.9823	-0.121
Mof_N 	N 	0.6221	0.82726	0.9699	-0.094
Mof_N 	N 	0.8997	0.82175	0.9514	-0.114
Mof_N 	N 	0.8398	0.57308	0.2757	-0.118
Mof_N 	N 	0.8126	0.89985	0.9344	-0.15
Mof_N 	N 	0.8261	0.55662	0.194	-0.111
Mof_N 	N 	0.89	0.99901	0.8744	-0.147
Mof_N 	N 	0.9688	0.86178	0.9313	-0.094
Mof_N 	N 	0.8747	0.64409	0.1915	-0.129
Mof_N 	N 	0.768	0.7427	0.4819	-0.152
Mof_N 	N 	0.69	0.94233	0.4352	-0.097
Mof_N 	N 	0.6884	0.95134	0.5204	-0.117
Mof_N 	N 	0.6471	0.86382	0.4994	-0.147
Mof_N 	N 	0.6278	0.80993	0.3463	-0.148
Mof_N 	N 	0.9324	0.72006	0.4823	-0.121
Mof_N 	N 	0.8779	0.67274	0.4699	-0.094
Mof_N 	N 	0.6003	0.67825	0.4514	-0.114
Mof_N 	N 	0.6602	0.92692	0.7757	-0.118
Mof_N 	N 	0.6874	0.60015	0.4344	-0.15
Mof_N 	N 	0.6739	0.94338	0.694	-0.111
Mof_N 	N 	0.61	0.50099	0.3744	-0.147
Mof_N 	N 	0.5312	0.63822	0.4313	-0.093
Mof_N 	N 	0.6253	0.85591	0.6915	-0.129
Mof_N 	N 	0.732	0.2427	0.5181	-0.152
Mof_N 	N 	0.81	0.44233	0.5648	-0.097
Mof_N 	N 	0.8116	0.45134	0.4796	-0.117
Mof_N 	N 	0.8529	0.36382	0.5006	-0.147
Mof_N 	N 	0.8722	0.30993	0.6537	-0.148
Mof_N 	N 	0.5676	0.22006	0.5177	-0.121
Mof_N 	N 	0.6221	0.17274	0.5301	-0.094
Mof_N 	N 	0.8997	0.17825	0.5486	-0.114
Mof_N 	N 	0.8398	0.42692	0.2243	-0.118
Mof_N 	N 	0.8126	0.10015	0.5656	-0.15
Mof_N 	N 	0.8261	0.44338	0.306	-0.111
Mof_N 	N 	0.89	0.00099	0.6256	-0.147
Mof_N 	N 	0.9688	0.13822	0.5687	-0.093
Mof_N 	N 	0.8747	0.35591	0.3085	-0.129
Mof_N 	N 	0.768	0.2573	0.0181	-0.152
Mof_N 	N 	0.69	0.05767	0.0648	-0.096
Mof_N 	N 	0.6884	0.04866	0.9796	-0.117
Mof_N 	N 	0.6471	0.13618	0.0006	-0.147
Mof_N 	N 	0.6278	0.19007	0.1537	-0.148
Mof_N 	N 	0.9324	0.27994	0.0177	-0.121
Mof_N 	N 	0.8779	0.32726	0.0301	-0.094
Mof_N 	N 	0.6003	0.32175	0.0486	-0.114
Mof_N 	N 	0.6602	0.07308	0.7243	-0.118
Mof_N 	N 	0.6874	0.39985	0.0656	-0.15
Mof_N 	N 	0.6739	0.05662	0.806	-0.111
Mof_N 	N 	0.61	0.49901	0.1256	-0.147
Mof_N 	N 	0.5312	0.36178	0.0687	-0.093
Mof_N 	N 	0.6253	0.14409	0.8085	-0.129
Mof_N 	N 	0.268	0.2427	0.0181	-0.152
Mof_N 	N 	0.19	0.44233	0.0648	-0.097
Mof_N 	N 	0.1884	0.45134	0.9796	-0.117
Mof_N 	N 	0.1471	0.36382	0.0006	-0.148
Mof_N 	N 	0.1278	0.30993	0.1537	-0.148
Mof_N 	N 	0.4324	0.22006	0.0177	-0.121
Mof_N 	N 	0.3779	0.17274	0.0301	-0.094
Mof_N 	N 	0.1003	0.17825	0.0486	-0.114
Mof_N 	N 	0.1602	0.42692	0.7243	-0.118
Mof_N 	N 	0.1874	0.10015	0.0656	-0.15
Mof_N 	N 	0.1739	0.44338	0.806	-0.111
Mof_N 	N 	0.11	0.00099	0.1256	-0.147
Mof_N 	N 	0.0312	0.13822	0.0687	-0.094
Mof_N 	N 	0.1253	0.35591	0.8085	-0.129
Mof_N 	N 	0.232	0.2573	0.5181	-0.152
Mof_N 	N 	0.31	0.05767	0.5648	-0.097
Mof_N 	N 	0.3116	0.04866	0.4796	-0.117
Mof_N 	N 	0.3529	0.13618	0.5006	-0.147
Mof_N 	N 	0.3722	0.19007	0.6537	-0.148
Mof_N 	N 	0.0676	0.27994	0.5177	-0.121
Mof_N 	N 	0.1221	0.32726	0.5301	-0.094
Mof_N 	N 	0.3997	0.32175	0.5486	-0.114
Mof_N 	N 	0.3398	0.07308	0.2243	-0.118
Mof_N 	N 	0.3126	0.39985	0.5656	-0.15
Mof_N 	N 	0.3261	0.05662	0.306	-0.111
Mof_N 	N 	0.39	0.49901	0.6256	-0.147
Mof_N 	N 	0.4688	0.36178	0.5687	-0.093
Mof_N 	N 	0.3747	0.14409	0.3085	-0.129
Mof_N 	N 	0.268	0.7573	0.4819	-0.152
Mof_N 	N 	0.19	0.55767	0.4352	-0.097
Mof_N 	N 	0.1884	0.54866	0.5204	-0.117
Mof_N 	N 	0.1471	0.63618	0.4994	-0.147
Mof_N 	N 	0.1278	0.69007	0.3463	-0.148
Mof_N 	N 	0.4324	0.77994	0.4823	-0.121
Mof_N 	N 	0.3779	0.82726	0.4699	-0.094
Mof_N 	N 	0.1003	0.82175	0.4514	-0.114
Mof_N 	N 	0.1602	0.57308	0.7757	-0.118
Mof_N 	N 	0.1874	0.89985	0.4344	-0.15
Mof_N 	N 	0.1739	0.55662	0.694	-0.111
Mof_N 	N 	0.11	0.99901	0.3744	-0.147
Mof_N 	N 	0.0312	0.86178	0.4313	-0.093
Mof_N 	N 	0.1253	0.64409	0.6915	-0.129
Mof_N 	N 	0.232	0.7427	0.9819	-0.152
Mof_N 	N 	0.31	0.94233	0.9352	-0.096
Mof_N 	N 	0.3116	0.95134	0.0204	-0.117
Mof_N 	N 	0.3529	0.86382	0.9994	-0.147
Mof_N 	N 	0.3722	0.80993	0.8463	-0.148
Mof_N 	N 	0.0676	0.72006	0.9823	-0.121
Mof_N 	N 	0.1221	0.67274	0.9699	-0.094
Mof_N 	N 	0.3997	0.67825	0.9514	-0.114
Mof_N 	N 	0.3398	0.92692	0.2757	-0.118
Mof_N 	N 	0.3126	0.60015	0.9344	-0.15
Mof_N 	N 	0.3261	0.94338	0.194	-0.111
Mof_N 	N 	0.39	0.50099	0.8744	-0.147
Mof_N 	N 	0.4688	0.63822	0.9313	-0.093
Mof_N 	N 	0.3747	0.85591	0.1915	-0.129
_end
