data_functionalizedCrystal
_audit_creation_method	'EQeq! by Chris Wilmer'
_symmetry_space_group_name_H-M	'P1'
_symmetry_Int_Tables_number	1
_symmetry_cell_setting	triclinic
loop_
_symmetry_equiv_pos_as_xyz
  x,y,z
_cell_length_a	13.0732
_cell_length_b	13.0732
_cell_length_c	13.435
_cell_angle_alpha	90
_cell_angle_beta	90
_cell_angle_gamma	120
loop_
_atom_site_label
_atom_site_type_symbol
_atom_site_fract_x
_atom_site_fract_y
_atom_site_fract_z
_atom_site_charge
Mof_Cd	Cd	0.5	0.5	0.5	0.393
Mof_Cd	Cd	2.283e-17	0.5	0.5	0.363
Mof_Cd	Cd	0.5	0	0.5	0.369
Mof_Cd	Cd	0.5	0.5	-0	0.345
Mof_Cd	Cd	2.85857e-17	0.5	-0	0.315
Mof_Cd	Cd	0.5	0	-0	0.323
Mof_Cd	Cd	0.66667	0.33334	0.59661	0.394
Mof_Cd	Cd	0.33333	0.66666	0.09661	0.351
Mof_Cd	Cd	0.33333	0.66666	0.40339	0.391
Mof_Cd	Cd	0.66667	0.33334	0.90339	0.441
Mof_H 	H 	0.7615	0.7088	0.3816	0.037
Mof_H 	H 	0.9473	0.2385	0.3816	0.04
Mof_H 	H 	0.2912	0.0527	0.3816	0.023
Mof_H 	H 	0.2385	0.2912	0.8816	0.037
Mof_H 	H 	0.0527	0.7615	0.8816	0.035
Mof_H 	H 	0.7088	0.9473	0.8816	0.051
Mof_H 	H 	0.0527	0.2912	0.6184	0.024
Mof_H 	H 	0.7088	0.7615	0.6184	0.039
Mof_H 	H 	0.2385	0.9473	0.6184	0.04
Mof_H 	H 	0.9473	0.7088	0.1184	0.04
Mof_H 	H 	0.2912	0.2385	0.1184	0.023
Mof_H 	H 	0.7615	0.0527	0.1184	0.024
Mof_H 	H 	0.2385	0.2912	0.6184	0.03
Mof_H 	H 	0.0527	0.7615	0.6184	0.028
Mof_H 	H 	0.7088	0.9473	0.6184	0.045
Mof_H 	H 	0.7615	0.7088	0.1184	0.032
Mof_H 	H 	0.9473	0.2385	0.1184	0.036
Mof_H 	H 	0.2912	0.0527	0.1184	0.019
Mof_H 	H 	0.9473	0.7088	0.3816	0.044
Mof_H 	H 	0.2912	0.2385	0.3816	0.028
Mof_H 	H 	0.7615	0.0527	0.3816	0.028
Mof_H 	H 	0.0527	0.2912	0.8816	0.031
Mof_H 	H 	0.7088	0.7615	0.8816	0.046
Mof_H 	H 	0.2385	0.9473	0.8816	0.046
Mof_H 	H 	0.5484	0.4516	0.25	0.04
Mof_H 	H 	0.9032	0.4516	0.25	0.023
Mof_H 	H 	0.5484	0.0968	0.25	0.055
Mof_H 	H 	0.4516	0.5484	0.75	0.042
Mof_H 	H 	0.0968	0.5484	0.75	0.061
Mof_H 	H 	0.4516	0.9032	0.75	0.029
Mof_C 	C 	0.7747	0.6512	0.4138	0.021
Mof_C 	C 	0.8765	0.2253	0.4138	0.02
Mof_C 	C 	0.3488	0.1235	0.4138	0.015
Mof_C 	C 	0.2253	0.3488	0.9138	0.022
Mof_C 	C 	0.1235	0.7747	0.9138	0.023
Mof_C 	C 	0.6512	0.8765	0.9138	0.026
Mof_C 	C 	0.1235	0.3488	0.5862	0.014
Mof_C 	C 	0.6512	0.7747	0.5862	0.02
Mof_C 	C 	0.2253	0.8765	0.5862	0.019
Mof_C 	C 	0.8765	0.6512	0.0862	0.016
Mof_C 	C 	0.3488	0.2253	0.0862	0.011
Mof_C 	C 	0.7747	0.1235	0.0862	0.012
Mof_C 	C 	0.2253	0.3488	0.5862	0.016
Mof_C 	C 	0.1235	0.7747	0.5862	0.017
Mof_C 	C 	0.6512	0.8765	0.5862	0.021
Mof_C 	C 	0.7747	0.6512	0.0862	0.015
Mof_C 	C 	0.8765	0.2253	0.0862	0.014
Mof_C 	C 	0.3488	0.1235	0.0862	0.009
Mof_C 	C 	0.8765	0.6512	0.4138	0.021
Mof_C 	C 	0.3488	0.2253	0.4138	0.016
Mof_C 	C 	0.7747	0.1235	0.4138	0.018
Mof_C 	C 	0.1235	0.3488	0.9138	0.02
Mof_C 	C 	0.6512	0.7747	0.9138	0.026
Mof_C 	C 	0.2253	0.8765	0.9138	0.024
Mof_C 	C 	0.50655	0.49345	0.25	0.095
Mof_C 	C 	0.9869	0.49345	0.25	0.162
Mof_C 	C 	0.50655	0.0131	0.25	0.044
Mof_C 	C 	0.49345	0.50655	0.75	0.096
Mof_C 	C 	0.0131	0.50655	0.75	0.032
Mof_C 	C 	0.49345	0.9869	0.75	0.147
Mof_N 	N 	0.6964	0.5582	0.4656	-0.097
Mof_N 	N 	0.8618	0.3036	0.4656	-0.089
Mof_N 	N 	0.4418	0.1382	0.4656	-0.1
Mof_N 	N 	0.3036	0.4418	0.9656	-0.082
Mof_N 	N 	0.1382	0.6964	0.9656	-0.084
Mof_N 	N 	0.5582	0.8618	0.9656	-0.075
Mof_N 	N 	0.1382	0.4418	0.5344	-0.1
Mof_N 	N 	0.5582	0.6964	0.5344	-0.097
Mof_N 	N 	0.3036	0.8618	0.5344	-0.091
Mof_N 	N 	0.8618	0.5582	0.0344	-0.094
Mof_N 	N 	0.4418	0.3036	0.0344	-0.104
Mof_N 	N 	0.6964	0.1382	0.0344	-0.105
Mof_N 	N 	0.3036	0.4418	0.5344	-0.098
Mof_N 	N 	0.1382	0.6964	0.5344	-0.1
Mof_N 	N 	0.5582	0.8618	0.5344	-0.09
Mof_N 	N 	0.6964	0.5582	0.0344	-0.103
Mof_N 	N 	0.8618	0.3036	0.0344	-0.095
Mof_N 	N 	0.4418	0.1382	0.0344	-0.105
Mof_N 	N 	0.8618	0.5582	0.4656	-0.089
Mof_N 	N 	0.4418	0.3036	0.4656	-0.098
Mof_N 	N 	0.6964	0.1382	0.4656	-0.099
Mof_N 	N 	0.1382	0.4418	0.9656	-0.084
Mof_N 	N 	0.5582	0.6964	0.9656	-0.081
Mof_N 	N 	0.3036	0.8618	0.9656	-0.076
Mof_N 	N 	0.75105	0.5021	0.4976	-0.067
Mof_N 	N 	0.5826	0.1652	0.7005	-0.073
Mof_N 	N 	0.75105	0.24895	0.4976	-0.067
Mof_N 	N 	0.5826	0.4174	0.7005	-0.072
Mof_N 	N 	0.4979	0.24895	0.4976	-0.069
Mof_N 	N 	0.8348	0.4174	0.7005	-0.069
Mof_N 	N 	0.24895	0.4979	0.9976	-0.052
Mof_N 	N 	0.4174	0.8348	0.2005	-0.073
Mof_N 	N 	0.24895	0.75105	0.9976	-0.05
Mof_N 	N 	0.4174	0.5826	0.2005	-0.075
Mof_N 	N 	0.5021	0.75105	0.9976	-0.05
Mof_N 	N 	0.1652	0.5826	0.2005	-0.077
Mof_N 	N 	0.24895	0.4979	0.5024	-0.069
Mof_N 	N 	0.4174	0.8348	0.2995	-0.07
Mof_N 	N 	0.5021	0.75105	0.5024	-0.067
Mof_N 	N 	0.1652	0.5826	0.2995	-0.074
Mof_N 	N 	0.24895	0.75105	0.5024	-0.068
Mof_N 	N 	0.4174	0.5826	0.2995	-0.072
Mof_N 	N 	0.75105	0.5021	0.0024	-0.081
Mof_N 	N 	0.5826	0.1652	0.7995	-0.069
Mof_N 	N 	0.4979	0.24895	0.0024	-0.084
Mof_N 	N 	0.8348	0.4174	0.7995	-0.065
Mof_N 	N 	0.75105	0.24895	0.0024	-0.082
Mof_N 	N 	0.5826	0.4174	0.7995	-0.067
Mof_N 	N 	0.47345	0.52655	0.3313	-0.112
Mof_N 	N 	0.0531	0.52655	0.3313	-0.138
Mof_N 	N 	0.47345	0.9469	0.3313	-0.087
Mof_N 	N 	0.52655	0.47345	0.8313	-0.099
Mof_N 	N 	0.9469	0.47345	0.8313	-0.068
Mof_N 	N 	0.52655	0.0531	0.8313	-0.119
Mof_N 	N 	0.9469	0.47345	0.6687	-0.079
Mof_N 	N 	0.52655	0.47345	0.6687	-0.111
Mof_N 	N 	0.52655	0.0531	0.6687	-0.13
Mof_N 	N 	0.0531	0.52655	0.1687	-0.14
Mof_N 	N 	0.47345	0.52655	0.1687	-0.114
Mof_N 	N 	0.47345	0.9469	0.1687	-0.089
Mof_N 	N 	0.33333	0.66666	0.75	0.052
Mof_O 	O 	0.27845	0.5569	0.75	-0.117
Mof_O 	O 	0.27845	0.72155	0.75	-0.115
Mof_O 	O 	0.4431	0.72155	0.75	-0.113
Mof_N 	N 	0.66667	0.33334	0.25	0.052
Mof_O 	O 	0.72155	0.4431	0.25	-0.114
Mof_O 	O 	0.72155	0.27845	0.25	-0.116
Mof_O 	O 	0.5569	0.27845	0.25	-0.118
_end
