data_functionalizedCrystal
_audit_creation_method	'EQeq! by Chris Wilmer'
_symmetry_space_group_name_H-M	'P1'
_symmetry_Int_Tables_number	1
_symmetry_cell_setting	triclinic
loop_
_symmetry_equiv_pos_as_xyz
  x,y,z
_cell_length_a	17.124
_cell_length_b	17.124
_cell_length_c	14.724
_cell_angle_alpha	90
_cell_angle_beta	90
_cell_angle_gamma	90
loop_
_atom_site_label
_atom_site_type_symbol
_atom_site_fract_x
_atom_site_fract_y
_atom_site_fract_z
_atom_site_charge
Mof_V 	V 	0.06438	0.07189	0.7704	1.754
Mof_V 	V 	0.96989	0.81246	0.9141	1.662
Mof_V 	V 	0.18314	0.05149	0.91155	1.694
Mof_V 	V 	0.12228	0.89045	0.87366	1.802
Mof_O 	O 	0.1191	0.1352	0.8784	-1.036
Mof_O 	O 	0.18211	0.83371	0.8186	-0.734
Mof_O 	O 	0.1281	0.9937	0.8205	-1.032
Mof_O 	O 	0.0755	0.82345	0.9636	-1.006
Mof_O 	O 	0.0203	0.873	0.8204	-0.964
Mof_O 	O 	0.1863	0.9446	0.9619	-1.037
Mof_N 	N 	0.2222	0.6609	0.8408	-0.24
Mof_N 	N 	0.2127	0.3509	0.1577	-0.241
Mof_C 	C 	0.1947	0.6726	0.925	0.034
Mof_H 	H 	0.1789	0.7226	0.9416	-0.046
Mof_C 	C 	0.2402	0.5877	0.817	0.041
Mof_H 	H 	0.2572	0.5785	0.7579	-0.064
Mof_C 	C 	0.195	0.3385	0.071	0.05
Mof_H 	H 	0.1832	0.2878	0.053	-0.045
Mof_C 	C 	0.2261	0.4247	0.1826	0.051
Mof_H 	H 	0.2375	0.4347	0.2433	-0.061
Mof_C 	C 	0.2241	0.4869	0.1233	-0.148
Mof_H 	H 	0.233	0.5375	0.1439	0.004
Mof_C 	C 	0.2347	0.525	0.8754	-0.138
Mof_H 	H 	0.2473	0.475	0.8558	-0.005
Mof_C 	C 	0.1931	0.3967	0.0065	-0.15
Mof_H 	H 	0.1817	0.3849	0.9462	0.02
Mof_C 	C 	0.2083	0.4728	0.0323	0.027
Mof_C 	C 	0.2099	0.5379	0.9646	0.014
Mof_C 	C 	0.189	0.6136	0.9877	-0.137
Mof_H 	H 	0.1711	0.6244	0.046	0.008
Mof_V 	V 	0.93562	0.92811	0.7704	1.69
Mof_V 	V 	0.03011	0.18754	0.9141	1.701
Mof_V 	V 	0.81686	0.94851	0.91155	1.655
Mof_V 	V 	0.87772	0.10955	0.87366	1.802
Mof_O 	O 	0.8809	0.8648	0.8784	-1.075
Mof_O 	O 	0.81789	0.16629	0.8186	-0.733
Mof_O 	O 	0.8719	0.0063	0.8205	-0.977
Mof_O 	O 	0.9245	0.17655	0.9636	-1.041
Mof_O 	O 	0.9797	0.127	0.8204	-1.017
Mof_O 	O 	0.8137	0.0554	0.9619	-1
Mof_N 	N 	0.7778	0.3391	0.8408	-0.241
Mof_N 	N 	0.7873	0.6491	0.1577	-0.241
Mof_C 	C 	0.8053	0.3274	0.925	0.025
Mof_H 	H 	0.8211	0.2774	0.9416	-0.048
Mof_C 	C 	0.7598	0.4123	0.817	0.034
Mof_H 	H 	0.7428	0.4215	0.7579	-0.066
Mof_C 	C 	0.805	0.6615	0.071	0.041
Mof_H 	H 	0.8168	0.7122	0.053	-0.046
Mof_C 	C 	0.7739	0.5753	0.1826	0.045
Mof_H 	H 	0.7625	0.5653	0.2433	-0.064
Mof_C 	C 	0.7759	0.5131	0.1233	-0.15
Mof_H 	H 	0.767	0.4625	0.1439	0
Mof_C 	C 	0.7653	0.475	0.8754	-0.139
Mof_H 	H 	0.7527	0.525	0.8558	-0.009
Mof_C 	C 	0.8069	0.6033	0.0065	-0.15
Mof_H 	H 	0.8183	0.6151	0.9462	0.009
Mof_C 	C 	0.7917	0.5272	0.0323	0.02
Mof_C 	C 	0.7901	0.4621	0.9646	0.006
Mof_C 	C 	0.811	0.3864	0.9877	-0.138
Mof_H 	H 	0.8289	0.3756	0.046	-0.003
Mof_V 	V 	0.07189	0.93562	0.2296	1.718
Mof_V 	V 	0.81246	0.03011	0.0859	1.698
Mof_V 	V 	0.05149	0.81686	0.08845	1.691
Mof_V 	V 	0.89045	0.87772	0.12634	1.799
Mof_O 	O 	0.1352	0.8809	0.1216	-1.058
Mof_O 	O 	0.83371	0.81789	0.1814	-0.736
Mof_O 	O 	0.9937	0.8719	0.1795	-1.043
Mof_O 	O 	0.82345	0.9245	0.0364	-1.043
Mof_O 	O 	0.873	0.9797	0.1796	-1.028
Mof_O 	O 	0.9446	0.8137	0.0381	-1.038
Mof_N 	N 	0.6609	0.7778	0.1592	-0.24
Mof_N 	N 	0.3509	0.7873	0.8423	-0.241
Mof_C 	C 	0.6726	0.8053	0.075	0.025
Mof_H 	H 	0.7226	0.8211	0.0584	-0.048
Mof_C 	C 	0.5877	0.7598	0.183	0.035
Mof_H 	H 	0.5785	0.7428	0.2421	-0.066
Mof_C 	C 	0.3385	0.805	0.929	0.041
Mof_H 	H 	0.2878	0.8168	0.947	-0.046
Mof_C 	C 	0.4247	0.7739	0.8174	0.044
Mof_H 	H 	0.4347	0.7625	0.7567	-0.064
Mof_C 	C 	0.4869	0.7759	0.8767	-0.15
Mof_H 	H 	0.5375	0.767	0.8561	-0
Mof_C 	C 	0.525	0.7653	0.1246	-0.139
Mof_H 	H 	0.475	0.7527	0.1442	-0.009
Mof_C 	C 	0.3967	0.8069	0.9935	-0.15
Mof_H 	H 	0.3849	0.8183	0.0538	0.009
Mof_C 	C 	0.4728	0.7917	0.9677	0.02
Mof_C 	C 	0.5379	0.7901	0.0354	0.007
Mof_C 	C 	0.6136	0.811	0.0123	-0.138
Mof_H 	H 	0.6244	0.8289	0.954	-0.004
Mof_V 	V 	0.92811	0.06438	0.2296	1.718
Mof_V 	V 	0.18754	0.96989	0.0859	1.66
Mof_V 	V 	0.94851	0.18314	0.08845	1.654
Mof_V 	V 	0.10955	0.12228	0.12634	1.804
Mof_O 	O 	0.8648	0.1191	0.1216	-1.057
Mof_O 	O 	0.16629	0.18211	0.1814	-0.731
Mof_O 	O 	0.0063	0.1281	0.1795	-0.959
Mof_O 	O 	0.17655	0.0755	0.0364	-1.001
Mof_O 	O 	0.127	0.0203	0.1796	-0.946
Mof_O 	O 	0.0554	0.1863	0.0381	-0.995
Mof_N 	N 	0.3391	0.2222	0.1592	-0.24
Mof_N 	N 	0.6491	0.2127	0.8423	-0.24
Mof_C 	C 	0.3274	0.1947	0.075	0.035
Mof_H 	H 	0.2774	0.1789	0.0584	-0.047
Mof_C 	C 	0.4123	0.2402	0.183	0.041
Mof_H 	H 	0.4215	0.2572	0.2421	-0.065
Mof_C 	C 	0.6615	0.195	0.929	0.049
Mof_H 	H 	0.7122	0.1832	0.947	-0.045
Mof_C 	C 	0.5753	0.2261	0.8174	0.051
Mof_H 	H 	0.5653	0.2375	0.7567	-0.061
Mof_C 	C 	0.5131	0.2241	0.8767	-0.148
Mof_H 	H 	0.4625	0.233	0.8561	0.005
Mof_C 	C 	0.475	0.2347	0.1246	-0.138
Mof_H 	H 	0.525	0.2473	0.1442	-0.005
Mof_C 	C 	0.6033	0.1931	0.9935	-0.149
Mof_H 	H 	0.6151	0.1817	0.0538	0.018
Mof_C 	C 	0.5272	0.2083	0.9677	0.027
Mof_C 	C 	0.4621	0.2099	0.0354	0.015
Mof_C 	C 	0.3864	0.189	0.0123	-0.138
Mof_H 	H 	0.3756	0.1711	0.954	0.009
Mof_V 	V 	0.56438	0.42811	0.2704	1.734
Mof_V 	V 	0.46989	0.68754	0.4141	1.679
Mof_V 	V 	0.68314	0.44851	0.41155	1.673
Mof_V 	V 	0.62228	0.60955	0.37366	1.803
Mof_O 	O 	0.6191	0.3648	0.3784	-1.054
Mof_O 	O 	0.68211	0.66629	0.3186	-0.733
Mof_O 	O 	0.6281	0.5063	0.3205	-0.992
Mof_O 	O 	0.5755	0.67655	0.4636	-1.023
Mof_O 	O 	0.5203	0.627	0.3204	-0.979
Mof_O 	O 	0.6863	0.5554	0.4619	-1.018
Mof_N 	N 	0.7222	0.8391	0.3408	-0.254
Mof_N 	N 	0.7127	0.1491	0.6577	-0.227
Mof_C 	C 	0.6947	0.8274	0.425	0.038
Mof_H 	H 	0.6789	0.7774	0.4416	-0.051
Mof_C 	C 	0.7402	0.9123	0.317	0.094
Mof_H 	H 	0.7572	0.9215	0.2579	-0.096
Mof_C 	C 	0.695	0.1615	0.571	0.034
Mof_H 	H 	0.6832	0.2122	0.553	-0.041
Mof_C 	C 	0.7261	0.0753	0.6826	-0.016
Mof_H 	H 	0.7375	0.0653	0.7433	-0.031
Mof_C 	C 	0.7241	0.0131	0.6233	-0.012
Mof_H 	H 	0.733	0.9625	0.6439	-0.084
Mof_C 	C 	0.7347	0.975	0.3754	-0.276
Mof_H 	H 	0.7473	0.025	0.3558	0.074
Mof_C 	C 	0.6931	0.1033	0.5065	-0.13
Mof_H 	H 	0.6817	0.1151	0.4462	0.014
Mof_C 	C 	0.7083	0.0272	0.5323	0.009
Mof_C 	C 	0.7099	0.9621	0.4646	0.019
Mof_C 	C 	0.689	0.8864	0.4877	-0.157
Mof_H 	H 	0.6711	0.8756	0.546	0.001
Mof_V 	V 	0.43562	0.57189	0.2704	1.734
Mof_V 	V 	0.53011	0.31246	0.4141	1.681
Mof_V 	V 	0.31686	0.55149	0.41155	1.675
Mof_V 	V 	0.37772	0.39045	0.37366	1.803
Mof_O 	O 	0.3809	0.6352	0.3784	-1.055
Mof_O 	O 	0.31789	0.33371	0.3186	-0.733
Mof_O 	O 	0.3719	0.4937	0.3205	-0.992
Mof_O 	O 	0.4245	0.32345	0.4636	-1.021
Mof_O 	O 	0.4797	0.373	0.3204	-0.978
Mof_O 	O 	0.3137	0.4446	0.4619	-1.015
Mof_N 	N 	0.2778	0.1609	0.3408	-0.225
Mof_N 	N 	0.2873	0.8509	0.6577	-0.256
Mof_C 	C 	0.3053	0.1726	0.425	0.02
Mof_H 	H 	0.3211	0.2226	0.4416	-0.043
Mof_C 	C 	0.2598	0.0877	0.317	-0.026
Mof_H 	H 	0.2428	0.0785	0.2579	-0.032
Mof_C 	C 	0.305	0.8385	0.571	0.057
Mof_H 	H 	0.3168	0.7878	0.553	-0.05
Mof_C 	C 	0.2739	0.9247	0.6826	0.114
Mof_H 	H 	0.2625	0.9347	0.7433	-0.096
Mof_C 	C 	0.2759	0.9869	0.6233	-0.298
Mof_H 	H 	0.267	0.0375	0.6439	0.094
Mof_C 	C 	0.2653	0.025	0.3754	0.009
Mof_H 	H 	0.2527	0.975	0.3558	-0.097
Mof_C 	C 	0.3069	0.8967	0.5065	-0.171
Mof_H 	H 	0.3183	0.8849	0.4462	0.014
Mof_C 	C 	0.2917	0.9728	0.5323	0.038
Mof_C 	C 	0.2901	0.0379	0.4646	-0.002
Mof_C 	C 	0.311	0.1136	0.4877	-0.117
Mof_H 	H 	0.3289	0.1244	0.546	0.004
Mof_V 	V 	0.57189	0.56438	0.7296	1.734
Mof_V 	V 	0.31246	0.46989	0.5859	1.682
Mof_V 	V 	0.55149	0.68314	0.58845	1.673
Mof_V 	V 	0.39045	0.62228	0.62634	1.803
Mof_O 	O 	0.6352	0.6191	0.6216	-1.056
Mof_O 	O 	0.33371	0.68211	0.6814	-0.733
Mof_O 	O 	0.4937	0.6281	0.6795	-0.993
Mof_O 	O 	0.32345	0.5755	0.5364	-1.021
Mof_O 	O 	0.373	0.5203	0.6796	-0.978
Mof_O 	O 	0.4446	0.6863	0.5381	-1.018
Mof_N 	N 	0.1609	0.7222	0.6592	-0.227
Mof_N 	N 	0.8509	0.7127	0.3423	-0.255
Mof_C 	C 	0.1726	0.6947	0.575	0.019
Mof_H 	H 	0.2226	0.6789	0.5584	-0.043
Mof_C 	C 	0.0877	0.7402	0.683	-0.025
Mof_H 	H 	0.0785	0.7572	0.7421	-0.035
Mof_C 	C 	0.8385	0.695	0.429	0.053
Mof_H 	H 	0.7878	0.6832	0.447	-0.05
Mof_C 	C 	0.9247	0.7261	0.3174	0.105
Mof_H 	H 	0.9347	0.7375	0.2567	-0.094
Mof_C 	C 	0.9869	0.7241	0.3767	-0.288
Mof_H 	H 	0.0375	0.733	0.3561	0.084
Mof_C 	C 	0.025	0.7347	0.6246	-0.003
Mof_H 	H 	0.975	0.7473	0.6442	-0.094
Mof_C 	C 	0.8967	0.6931	0.4935	-0.17
Mof_H 	H 	0.8849	0.6817	0.5538	0.012
Mof_C 	C 	0.9728	0.7083	0.4677	0.033
Mof_C 	C 	0.0379	0.7099	0.5354	-0.003
Mof_C 	C 	0.1136	0.689	0.5123	-0.12
Mof_H 	H 	0.1244	0.6711	0.454	0.003
Mof_V 	V 	0.42811	0.43562	0.7296	1.734
Mof_V 	V 	0.68754	0.53011	0.5859	1.679
Mof_V 	V 	0.44851	0.31686	0.58845	1.675
Mof_V 	V 	0.60955	0.37772	0.62634	1.803
Mof_O 	O 	0.3648	0.3809	0.6216	-1.053
Mof_O 	O 	0.66629	0.31789	0.6814	-0.733
Mof_O 	O 	0.5063	0.3719	0.6795	-0.991
Mof_O 	O 	0.67655	0.4245	0.5364	-1.023
Mof_O 	O 	0.627	0.4797	0.6796	-0.979
Mof_O 	O 	0.5554	0.3137	0.5381	-1.015
Mof_N 	N 	0.8391	0.2778	0.6592	-0.255
Mof_N 	N 	0.1491	0.2873	0.3423	-0.225
Mof_C 	C 	0.8274	0.3053	0.575	0.041
Mof_H 	H 	0.7774	0.3211	0.5584	-0.052
Mof_C 	C 	0.9123	0.2598	0.683	0.103
Mof_H 	H 	0.9215	0.2428	0.7421	-0.098
Mof_C 	C 	0.1615	0.305	0.429	0.035
Mof_H 	H 	0.2122	0.3168	0.447	-0.04
Mof_C 	C 	0.0753	0.2739	0.3174	-0.017
Mof_H 	H 	0.0653	0.2625	0.2567	-0.029
Mof_C 	C 	0.0131	0.2759	0.3767	-0.001
Mof_H 	H 	0.9625	0.267	0.3561	-0.088
Mof_C 	C 	0.975	0.2653	0.6246	-0.287
Mof_H 	H 	0.025	0.2527	0.6442	0.085
Mof_C 	C 	0.1033	0.3069	0.4935	-0.127
Mof_H 	H 	0.1151	0.3183	0.5538	0.015
Mof_C 	C 	0.0272	0.2917	0.4677	0.01
Mof_C 	C 	0.9621	0.2901	0.5354	0.024
Mof_C 	C 	0.8864	0.311	0.5123	-0.158
Mof_H 	H 	0.8756	0.3289	0.454	0.002
Mof_O 	O 	2.30767e-33	0	0.7158	-0.497
Mof_O 	O 	2.57203e-33	0	0.7978	-0.663
Mof_O 	O 	9.16234e-34	0	0.2842	-0.496
Mof_O 	O 	6.51874e-34	0	0.2022	-0.664
Mof_O 	O 	0.5	0.5	0.2158	-0.543
Mof_O 	O 	0.5	0.5	0.2978	-0.718
Mof_O 	O 	0.5	0.5	0.7842	-0.543
Mof_O 	O 	0.5	0.5	0.7022	-0.718
Mof_Zn	Zn	0.25571	0.75571	0.75	1.211
Mof_Zn	Zn	0.74429	0.24429	0.75	1.211
Mof_Zn	Zn	0.75571	0.74429	0.25	1.211
Mof_Zn	Zn	0.24429	0.25571	0.25	1.211
_end
