data_functionalizedCrystal
_audit_creation_method	'EQeq! by Chris Wilmer'
_symmetry_space_group_name_H-M	'P1'
_symmetry_Int_Tables_number	1
_symmetry_cell_setting	triclinic
loop_
_symmetry_equiv_pos_as_xyz
  x,y,z
_cell_length_a	24.6602
_cell_length_b	28.6911
_cell_length_c	12.5602
_cell_angle_alpha	90
_cell_angle_beta	90
_cell_angle_gamma	90
loop_
_atom_site_label
_atom_site_type_symbol
_atom_site_fract_x
_atom_site_fract_y
_atom_site_fract_z
_atom_site_charge
Mof_Cd	Cd	0.99389	0.31217	0.06286	0.446
Mof_Cd	Cd	0.89786	0.24038	0.19015	0.51
Mof_Cd	Cd	0.79826	0.17338	0.31844	0.444
Mof_N 	N 	0.613	0.0429	0.6508	-0.137
Mof_N 	N 	0.5229	0.8857	0.6319	-0.156
Mof_N 	N 	0.7356	0.1445	0.4332	-0.148
Mof_N 	N 	0.5866	0.1597	0.2755	-0.143
Mof_N 	N 	0.5582	0.1743	0.4324	-0.138
Mof_N 	N 	0.8487	0.2264	0.6463	-0.115
Mof_N 	N 	0.6256	0.4019	0.191	-0.12
Mof_N 	N 	0.5992	0.3427	0.671	-0.109
Mof_O 	O 	0.9769	0.2809	0.23	-0.293
Mof_O 	O 	0.0669	0.2857	0.2186	-0.252
Mof_O 	O 	0.8193	0.2027	0.152	-0.323
Mof_O 	O 	0.7318	0.203	0.1729	-0.275
Mof_O 	O 	0.8943	0.304	0.0827	-0.265
Mof_O 	O 	0.9247	0.3382	0.9296	-0.261
Mof_O 	O 	0.5011	0.2614	0.5007	-0.282
Mof_O 	O 	0.4413	0.3087	0.5695	-0.29
Mof_O 	O 	0.8535	0.2832	0.3082	-0.268
Mof_O 	O 	0.7867	0.2425	0.3936	-0.268
Mof_O 	O 	0.4001	0.3196	0.8043	-0.305
Mof_O 	O 	0.3662	0.369	0.9155	-0.27
Mof_C 	C 	0.6349	0.0816	0.677	0.099
Mof_C 	C 	0.6338	0.1024	0.7789	-0.144
Mof_H 	H 	0.6509	0.1307	0.7916	0.089
Mof_C 	C 	0.6046	0.0778	0.865	0.103
Mof_C 	C 	0.5852	0.0377	0.832	-0.158
Mof_H 	H 	0.5657	0.0204	0.8818	0.084
Mof_C 	C 	0.5908	0.0191	0.7346	0.075
Mof_C 	C 	0.5997	0.1006	0.97	-0.053
Mof_C 	C 	0.5965	0.1486	0.984	0.034
Mof_H 	H 	0.5985	0.1682	0.9248	0.028
Mof_C 	C 	0.5904	0.1674	0.085	-0.152
Mof_H 	H 	0.5883	0.1995	0.0939	0.094
Mof_C 	C 	0.5874	0.1382	0.173	0.138
Mof_C 	C 	0.5905	0.0902	0.16	-0.142
Mof_H 	H 	0.5885	0.0706	0.2187	0.081
Mof_C 	C 	0.5967	0.0714	0.059	0.012
Mof_H 	H 	0.5989	0.0392	0.0497	0.022
Mof_C 	C 	0.5376	0.8946	0.728	0.112
Mof_H 	H 	0.5345	0.8707	0.7779	0.01
Mof_C 	C 	0.5574	0.937	0.7639	-0.173
Mof_H 	H 	0.5668	0.9404	0.8351	0.091
Mof_C 	C 	0.5633	0.9728	0.698	0.1
Mof_C 	C 	0.555	0.966	0.598	-0.162
Mof_H 	H 	0.5639	0.9887	0.5482	0.096
Mof_C 	C 	0.5324	0.9237	0.566	0.086
Mof_H 	H 	0.5228	0.9208	0.4951	0.01
Mof_C 	C 	0.7378	0.1597	0.532	0.068
Mof_H 	H 	0.7654	0.1803	0.55	0.028
Mof_C 	C 	0.7009	0.1467	0.614	-0.105
Mof_H 	H 	0.6978	0.164	0.6759	0.074
Mof_C 	C 	0.6675	0.1046	0.596	0.036
Mof_C 	C 	0.6642	0.0916	0.487	-0.112
Mof_H 	H 	0.6369	0.0716	0.4635	0.076
Mof_C 	C 	0.7005	0.1084	0.418	0.074
Mof_H 	H 	0.702	0.0938	0.3519	0.01
Mof_C 	C 	0.5525	0.1461	0.35	0.107
Mof_H 	H 	0.5286	0.1211	0.3452	0.002
Mof_C 	C 	0.599	0.2066	0.417	0.016
Mof_H 	H 	0.6097	0.2308	0.4617	0.039
Mof_C 	C 	0.6199	0.1943	0.32	-0.002
Mof_H 	H 	0.6509	0.2068	0.2884	0.053
Mof_C 	C 	0.8924	0.2341	0.586	0.033
Mof_H 	H 	0.8869	0.2415	0.5149	0.041
Mof_C 	C 	0.9444	0.2321	0.622	-0.038
Mof_C 	C 	0.952	0.2348	0.716	-0.001
Mof_H 	H 	0.9871	0.2392	0.7413	0.041
Mof_C 	C 	0.907	0.2313	0.793	-0.088
Mof_H 	H 	0.9138	0.2283	0.8657	0.079
Mof_C 	C 	0.8529	0.2327	0.754	0.069
Mof_C 	C 	0.0232	0.2743	0.267	0.279
Mof_C 	C 	0.0268	0.2509	0.376	-0.02
Mof_C 	C 	0.9835	0.2541	0.446	-0.084
Mof_H 	H 	0.9522	0.2701	0.4264	0.079
Mof_C 	C 	0.9869	0.2333	0.546	0.062
Mof_C 	C 	0.0335	0.2093	0.575	-0.098
Mof_H 	H 	0.0358	0.1954	0.6417	0.071
Mof_C 	C 	0.0768	0.2061	0.504	-0
Mof_H 	H 	0.108	0.1901	0.5239	0.036
Mof_C 	C 	0.0734	0.2269	0.405	-0.058
Mof_H 	H 	0.1024	0.2248	0.3576	0.062
Mof_C 	C 	0.7746	0.2083	0.119	0.313
Mof_C 	C 	0.7645	0.2184	0.998	-0.032
Mof_C 	C 	0.8101	0.2206	0.934	-0.054
Mof_H 	H 	0.8444	0.216	0.9627	0.07
Mof_C 	C 	0.8046	0.2298	0.826	0.017
Mof_C 	C 	0.7533	0.2367	0.782	-0.062
Mof_H 	H 	0.7496	0.2428	0.7099	0.061
Mof_C 	C 	0.7077	0.2345	0.847	-0.029
Mof_H 	H 	0.6734	0.2392	0.8179	0.047
Mof_C 	C 	0.7133	0.2254	0.955	-0.035
Mof_H 	H 	0.6828	0.2239	0.9983	0.057
Mof_C 	C 	0.6625	0.3955	0.111	0.023
Mof_H 	H 	0.6634	0.4174	0.0568	0.027
Mof_C 	C 	0.6971	0.3604	0.107	-0.035
Mof_C 	C 	0.6895	0.3263	0.189	-0.015
Mof_H 	H 	0.7122	0.3005	0.1909	0.047
Mof_C 	C 	0.6492	0.3305	0.268	-0.091
Mof_H 	H 	0.6465	0.3084	0.3215	0.067
Mof_C 	C 	0.6121	0.3691	0.264	0.073
Mof_C 	C 	0.8872	0.3266	0.986	0.257
Mof_C 	C 	0.8283	0.3378	0.967	-0.004
Mof_C 	C 	0.7891	0.3388	0.047	-0.092
Mof_H 	H 	0.7978	0.3293	0.1155	0.078
Mof_C 	C 	0.7368	0.3539	0.024	0.05
Mof_C 	C 	0.7238	0.368	0.921	-0.086
Mof_H 	H 	0.6889	0.3781	0.9051	0.065
Mof_C 	C 	0.7631	0.3671	0.841	0.001
Mof_H 	H 	0.7544	0.3765	0.7726	0.034
Mof_C 	C 	0.8153	0.3519	0.865	-0.062
Mof_H 	H 	0.8415	0.3513	0.8114	0.067
Mof_C 	C 	0.4821	0.3021	0.518	0.326
Mof_C 	C 	0.5057	0.3425	0.464	-0.072
Mof_C 	C 	0.5465	0.336	0.389	-0.024
Mof_H 	H 	0.5573	0.306	0.3702	0.048
Mof_C 	C 	0.5711	0.3743	0.341	-0.008
Mof_C 	C 	0.5549	0.4191	0.369	-0.041
Mof_H 	H 	0.5714	0.4447	0.3368	0.054
Mof_C 	C 	0.5142	0.4256	0.444	-0.044
Mof_H 	H 	0.5034	0.4556	0.462	0.046
Mof_C 	C 	0.4896	0.3873	0.491	-0.007
Mof_H 	H 	0.4622	0.3916	0.541	0.05
Mof_C 	C 	0.6469	0.337	0.601	0.011
Mof_H 	H 	0.6546	0.3087	0.5679	0.036
Mof_C 	C 	0.6784	0.3747	0.587	-0.037
Mof_C 	C 	0.6712	0.4101	0.643	0.014
Mof_H 	H 	0.6961	0.4341	0.634	0.026
Mof_C 	C 	0.633	0.4178	0.714	-0.117
Mof_H 	H 	0.63	0.4464	0.7483	0.071
Mof_C 	C 	0.5978	0.3823	0.736	0.072
Mof_C 	C 	0.809	0.2805	0.361	0.27
Mof_C 	C 	0.7878	0.3264	0.399	-0.021
Mof_C 	C 	0.7484	0.3271	0.478	-0.078
Mof_H 	H 	0.7396	0.2999	0.5146	0.07
Mof_C 	C 	0.7222	0.3686	0.504	0.05
Mof_C 	C 	0.7353	0.4093	0.449	-0.09
Mof_H 	H 	0.7178	0.4371	0.4663	0.065
Mof_C 	C 	0.7747	0.4086	0.37	-0.001
Mof_H 	H 	0.7834	0.4359	0.3339	0.035
Mof_C 	C 	0.8009	0.3672	0.345	-0.056
Mof_H 	H 	0.8272	0.3667	0.292	0.066
Mof_C 	C 	0.4062	0.3508	0.868	0.317
Mof_C 	C 	0.4602	0.3754	0.878	-0.044
Mof_C 	C 	0.5003	0.3653	0.803	-0.046
Mof_H 	H 	0.4926	0.3447	0.748	0.072
Mof_C 	C 	0.5512	0.3852	0.809	0.016
Mof_C 	C 	0.5624	0.4176	0.888	-0.073
Mof_H 	H 	0.5961	0.432	0.8912	0.056
Mof_C 	C 	0.5229	0.4284	0.963	-0.003
Mof_H 	H 	0.5315	0.4468	0.022	0.03
Mof_C 	C 	0.4702	0.4113	0.95	-0.038
Mof_H 	H 	0.4419	0.4238	0.99	0.061
Mof_Cd	Cd	0.00611	0.68783	0.06286	0.445
Mof_Cd	Cd	0.10214	0.75962	0.19015	0.509
Mof_Cd	Cd	0.20174	0.82662	0.31844	0.443
Mof_N 	N 	0.387	0.9571	0.6508	-0.138
Mof_N 	N 	0.4771	0.1143	0.6319	-0.156
Mof_N 	N 	0.2644	0.8555	0.4332	-0.148
Mof_N 	N 	0.4134	0.8403	0.2755	-0.143
Mof_N 	N 	0.4418	0.8257	0.4324	-0.138
Mof_N 	N 	0.1513	0.7736	0.6463	-0.115
Mof_N 	N 	0.3744	0.5981	0.191	-0.12
Mof_N 	N 	0.4008	0.6573	0.671	-0.109
Mof_O 	O 	0.0231	0.7191	0.23	-0.293
Mof_O 	O 	0.9331	0.7143	0.2186	-0.252
Mof_O 	O 	0.1807	0.7973	0.152	-0.323
Mof_O 	O 	0.2682	0.797	0.1729	-0.275
Mof_O 	O 	0.1057	0.696	0.0827	-0.265
Mof_O 	O 	0.0753	0.6618	0.9296	-0.261
Mof_O 	O 	0.4989	0.7386	0.5007	-0.282
Mof_O 	O 	0.5587	0.6913	0.5695	-0.29
Mof_O 	O 	0.1465	0.7168	0.3082	-0.268
Mof_O 	O 	0.2133	0.7575	0.3936	-0.268
Mof_O 	O 	0.5999	0.6804	0.8043	-0.305
Mof_O 	O 	0.6338	0.631	0.9155	-0.27
Mof_C 	C 	0.3651	0.9184	0.677	0.099
Mof_C 	C 	0.3662	0.8976	0.7789	-0.144
Mof_H 	H 	0.3491	0.8693	0.7916	0.089
Mof_C 	C 	0.3954	0.9222	0.865	0.103
Mof_C 	C 	0.4148	0.9623	0.832	-0.158
Mof_H 	H 	0.4343	0.9796	0.8818	0.084
Mof_C 	C 	0.4092	0.9809	0.7346	0.075
Mof_C 	C 	0.4003	0.8994	0.97	-0.053
Mof_C 	C 	0.4035	0.8514	0.984	0.034
Mof_H 	H 	0.4015	0.8318	0.9248	0.028
Mof_C 	C 	0.4096	0.8326	0.085	-0.152
Mof_H 	H 	0.4117	0.8005	0.0939	0.094
Mof_C 	C 	0.4126	0.8618	0.173	0.138
Mof_C 	C 	0.4095	0.9098	0.16	-0.142
Mof_H 	H 	0.4115	0.9294	0.2187	0.081
Mof_C 	C 	0.4033	0.9286	0.059	0.012
Mof_H 	H 	0.4011	0.9608	0.0497	0.022
Mof_C 	C 	0.4624	0.1054	0.728	0.112
Mof_H 	H 	0.4655	0.1293	0.7779	0.01
Mof_C 	C 	0.4426	0.063	0.7639	-0.173
Mof_H 	H 	0.4332	0.0596	0.8351	0.091
Mof_C 	C 	0.4367	0.0272	0.698	0.1
Mof_C 	C 	0.445	0.034	0.598	-0.162
Mof_H 	H 	0.4361	0.0113	0.5482	0.096
Mof_C 	C 	0.4676	0.0763	0.566	0.086
Mof_H 	H 	0.4772	0.0792	0.4951	0.01
Mof_C 	C 	0.2622	0.8403	0.532	0.068
Mof_H 	H 	0.2346	0.8197	0.55	0.028
Mof_C 	C 	0.2991	0.8533	0.614	-0.105
Mof_H 	H 	0.3022	0.836	0.6759	0.074
Mof_C 	C 	0.3325	0.8954	0.596	0.036
Mof_C 	C 	0.3358	0.9084	0.487	-0.112
Mof_H 	H 	0.3631	0.9284	0.4635	0.076
Mof_C 	C 	0.2995	0.8916	0.418	0.074
Mof_H 	H 	0.298	0.9062	0.3519	0.01
Mof_C 	C 	0.4475	0.8539	0.35	0.107
Mof_H 	H 	0.4714	0.8789	0.3452	0.002
Mof_C 	C 	0.401	0.7934	0.417	0.016
Mof_H 	H 	0.3903	0.7692	0.4617	0.039
Mof_C 	C 	0.3801	0.8057	0.32	-0.002
Mof_H 	H 	0.3491	0.7932	0.2884	0.053
Mof_C 	C 	0.1076	0.7659	0.586	0.033
Mof_H 	H 	0.1131	0.7585	0.5149	0.041
Mof_C 	C 	0.0556	0.7679	0.622	-0.038
Mof_C 	C 	0.048	0.7652	0.716	-0.001
Mof_H 	H 	0.0129	0.7608	0.7413	0.041
Mof_C 	C 	0.093	0.7687	0.793	-0.088
Mof_H 	H 	0.0862	0.7717	0.8657	0.079
Mof_C 	C 	0.1471	0.7673	0.754	0.069
Mof_C 	C 	0.9768	0.7257	0.267	0.279
Mof_C 	C 	0.9732	0.7491	0.376	-0.02
Mof_C 	C 	0.0165	0.7459	0.446	-0.084
Mof_H 	H 	0.0478	0.7299	0.4264	0.079
Mof_C 	C 	0.0131	0.7667	0.546	0.062
Mof_C 	C 	0.9665	0.7907	0.575	-0.098
Mof_H 	H 	0.9642	0.8046	0.6417	0.071
Mof_C 	C 	0.9232	0.7939	0.504	-0
Mof_H 	H 	0.892	0.8099	0.5239	0.036
Mof_C 	C 	0.9266	0.7731	0.405	-0.058
Mof_H 	H 	0.8976	0.7752	0.3576	0.062
Mof_C 	C 	0.2254	0.7917	0.119	0.313
Mof_C 	C 	0.2355	0.7816	0.998	-0.032
Mof_C 	C 	0.1899	0.7794	0.934	-0.054
Mof_H 	H 	0.1556	0.784	0.9627	0.07
Mof_C 	C 	0.1954	0.7702	0.826	0.017
Mof_C 	C 	0.2467	0.7633	0.782	-0.062
Mof_H 	H 	0.2504	0.7572	0.7099	0.061
Mof_C 	C 	0.2923	0.7655	0.847	-0.029
Mof_H 	H 	0.3266	0.7608	0.8179	0.047
Mof_C 	C 	0.2867	0.7746	0.955	-0.035
Mof_H 	H 	0.3172	0.7761	0.9983	0.057
Mof_C 	C 	0.3375	0.6045	0.111	0.023
Mof_H 	H 	0.3366	0.5826	0.0568	0.027
Mof_C 	C 	0.3029	0.6396	0.107	-0.035
Mof_C 	C 	0.3105	0.6737	0.189	-0.015
Mof_H 	H 	0.2878	0.6995	0.1909	0.047
Mof_C 	C 	0.3508	0.6695	0.268	-0.091
Mof_H 	H 	0.3535	0.6916	0.3215	0.067
Mof_C 	C 	0.3879	0.6309	0.264	0.073
Mof_C 	C 	0.1128	0.6734	0.986	0.257
Mof_C 	C 	0.1717	0.6622	0.967	-0.004
Mof_C 	C 	0.2109	0.6612	0.047	-0.092
Mof_H 	H 	0.2022	0.6707	0.1155	0.078
Mof_C 	C 	0.2632	0.6461	0.024	0.05
Mof_C 	C 	0.2762	0.632	0.921	-0.086
Mof_H 	H 	0.3111	0.6219	0.9051	0.065
Mof_C 	C 	0.2369	0.6329	0.841	0.001
Mof_H 	H 	0.2456	0.6235	0.7726	0.034
Mof_C 	C 	0.1847	0.6481	0.865	-0.062
Mof_H 	H 	0.1585	0.6487	0.8114	0.067
Mof_C 	C 	0.5179	0.6979	0.518	0.326
Mof_C 	C 	0.4943	0.6575	0.464	-0.072
Mof_C 	C 	0.4535	0.664	0.389	-0.024
Mof_H 	H 	0.4427	0.694	0.3702	0.048
Mof_C 	C 	0.4289	0.6257	0.341	-0.008
Mof_C 	C 	0.4451	0.5809	0.369	-0.041
Mof_H 	H 	0.4286	0.5553	0.3368	0.054
Mof_C 	C 	0.4858	0.5744	0.444	-0.044
Mof_H 	H 	0.4966	0.5444	0.462	0.046
Mof_C 	C 	0.5104	0.6127	0.491	-0.007
Mof_H 	H 	0.5378	0.6084	0.541	0.05
Mof_C 	C 	0.3531	0.663	0.601	0.011
Mof_H 	H 	0.3454	0.6913	0.5679	0.036
Mof_C 	C 	0.3216	0.6253	0.587	-0.037
Mof_C 	C 	0.3288	0.5899	0.643	0.014
Mof_H 	H 	0.3039	0.5659	0.634	0.026
Mof_C 	C 	0.367	0.5822	0.714	-0.117
Mof_H 	H 	0.37	0.5536	0.7483	0.071
Mof_C 	C 	0.4022	0.6177	0.736	0.072
Mof_C 	C 	0.191	0.7195	0.361	0.27
Mof_C 	C 	0.2122	0.6736	0.399	-0.021
Mof_C 	C 	0.2516	0.6729	0.478	-0.078
Mof_H 	H 	0.2604	0.7001	0.5146	0.07
Mof_C 	C 	0.2778	0.6314	0.504	0.05
Mof_C 	C 	0.2647	0.5907	0.449	-0.09
Mof_H 	H 	0.2822	0.5629	0.4663	0.065
Mof_C 	C 	0.2253	0.5914	0.37	-0.001
Mof_H 	H 	0.2166	0.5641	0.3339	0.035
Mof_C 	C 	0.1991	0.6328	0.345	-0.056
Mof_H 	H 	0.1728	0.6333	0.292	0.066
Mof_C 	C 	0.5938	0.6492	0.868	0.317
Mof_C 	C 	0.5398	0.6246	0.878	-0.044
Mof_C 	C 	0.4997	0.6347	0.803	-0.046
Mof_H 	H 	0.5074	0.6553	0.748	0.072
Mof_C 	C 	0.4488	0.6148	0.809	0.016
Mof_C 	C 	0.4376	0.5824	0.888	-0.073
Mof_H 	H 	0.4039	0.568	0.8912	0.056
Mof_C 	C 	0.4771	0.5716	0.963	-0.003
Mof_H 	H 	0.4685	0.5532	0.022	0.03
Mof_C 	C 	0.5298	0.5887	0.95	-0.038
Mof_H 	H 	0.5581	0.5762	0.99	0.061
Mof_Cd	Cd	0.49389	0.18783	0.56286	0.451
Mof_Cd	Cd	0.39786	0.25962	0.69015	0.511
Mof_Cd	Cd	0.29826	0.32662	0.81844	0.445
Mof_N 	N 	0.113	0.4571	0.1508	-0.141
Mof_N 	N 	0.0229	0.6143	0.1319	-0.153
Mof_N 	N 	0.2356	0.3555	0.9332	-0.141
Mof_N 	N 	0.0866	0.3403	0.7755	-0.143
Mof_N 	N 	0.0582	0.3257	0.9324	-0.136
Mof_N 	N 	0.3487	0.2736	0.1463	-0.113
Mof_N 	N 	0.1256	0.0981	0.691	-0.12
Mof_N 	N 	0.0992	0.1573	0.171	-0.107
Mof_O 	O 	0.4769	0.2191	0.73	-0.295
Mof_O 	O 	0.5669	0.2143	0.7186	-0.253
Mof_O 	O 	0.3193	0.2973	0.652	-0.324
Mof_O 	O 	0.2318	0.297	0.6729	-0.275
Mof_O 	O 	0.3943	0.196	0.5827	-0.26
Mof_O 	O 	0.4247	0.1618	0.4296	-0.262
Mof_O 	O 	0.0011	0.2386	0.0007	-0.285
Mof_O 	O 	0.9413	0.1913	0.0695	-0.291
Mof_O 	O 	0.3535	0.2168	0.8082	-0.269
Mof_O 	O 	0.2867	0.2575	0.8936	-0.268
Mof_O 	O 	0.9001	0.1804	0.3043	-0.306
Mof_O 	O 	0.8662	0.131	0.4155	-0.273
Mof_C 	C 	0.1349	0.4184	0.177	0.103
Mof_C 	C 	0.1338	0.3976	0.2789	-0.148
Mof_H 	H 	0.1509	0.3693	0.2916	0.09
Mof_C 	C 	0.1046	0.4222	0.365	0.105
Mof_C 	C 	0.0852	0.4623	0.332	-0.162
Mof_H 	H 	0.0657	0.4796	0.3818	0.084
Mof_C 	C 	0.0908	0.4809	0.2346	0.078
Mof_C 	C 	0.0997	0.3994	0.47	-0.06
Mof_C 	C 	0.0965	0.3514	0.484	0.024
Mof_H 	H 	0.0985	0.3318	0.4248	0.031
Mof_C 	C 	0.0904	0.3326	0.585	-0.139
Mof_H 	H 	0.0883	0.3005	0.5939	0.091
Mof_C 	C 	0.0874	0.3618	0.673	0.137
Mof_C 	C 	0.0905	0.4098	0.66	-0.144
Mof_H 	H 	0.0885	0.4294	0.7187	0.083
Mof_C 	C 	0.0967	0.4286	0.559	0.023
Mof_H 	H 	0.0989	0.4608	0.5497	0.021
Mof_C 	C 	0.0376	0.6054	0.228	0.108
Mof_H 	H 	0.0345	0.6293	0.2779	0.011
Mof_C 	C 	0.0574	0.563	0.2639	-0.166
Mof_H 	H 	0.0668	0.5596	0.3351	0.088
Mof_C 	C 	0.0633	0.5272	0.198	0.091
Mof_C 	C 	0.055	0.534	0.098	-0.147
Mof_H 	H 	0.0639	0.5113	0.0482	0.089
Mof_C 	C 	0.0324	0.5763	0.066	0.065
Mof_H 	H 	0.0228	0.5792	0.9951	0.023
Mof_C 	C 	0.2378	0.3403	0.032	0.053
Mof_H 	H 	0.2654	0.3197	0.05	0.031
Mof_C 	C 	0.2009	0.3533	0.114	-0.096
Mof_H 	H 	0.1978	0.336	0.1759	0.07
Mof_C 	C 	0.1675	0.3954	0.096	0.021
Mof_C 	C 	0.1642	0.4084	0.987	-0.094
Mof_H 	H 	0.1369	0.4284	0.9635	0.073
Mof_C 	C 	0.2005	0.3916	0.918	0.066
Mof_H 	H 	0.202	0.4062	0.8519	0.013
Mof_C 	C 	0.0525	0.3539	0.85	0.107
Mof_H 	H 	0.0286	0.3789	0.8452	0.003
Mof_C 	C 	0.099	0.2934	0.917	0.017
Mof_H 	H 	0.1097	0.2692	0.9617	0.041
Mof_C 	C 	0.1199	0.3057	0.82	-0.002
Mof_H 	H 	0.1509	0.2932	0.7884	0.054
Mof_C 	C 	0.3924	0.2659	0.086	0.022
Mof_H 	H 	0.3869	0.2585	0.0149	0.042
Mof_C 	C 	0.4444	0.2679	0.122	-0.018
Mof_C 	C 	0.452	0.2652	0.216	-0.018
Mof_H 	H 	0.4871	0.2608	0.2413	0.047
Mof_C 	C 	0.407	0.2687	0.293	-0.081
Mof_H 	H 	0.4138	0.2717	0.3657	0.075
Mof_C 	C 	0.3529	0.2673	0.254	0.067
Mof_C 	C 	0.5232	0.2257	0.767	0.286
Mof_C 	C 	0.5268	0.2491	0.876	-0.042
Mof_C 	C 	0.4835	0.2459	0.946	-0.051
Mof_H 	H 	0.4522	0.2299	0.9264	0.069
Mof_C 	C 	0.4869	0.2667	0.046	0.029
Mof_C 	C 	0.5335	0.2907	0.075	-0.069
Mof_H 	H 	0.5358	0.3046	0.1417	0.06
Mof_C 	C 	0.5768	0.2939	0.004	-0.039
Mof_H 	H 	0.608	0.3099	0.0239	0.047
Mof_C 	C 	0.5734	0.2731	0.905	-0.022
Mof_H 	H 	0.6024	0.2752	0.8576	0.05
Mof_C 	C 	0.2746	0.2917	0.619	0.322
Mof_C 	C 	0.2645	0.2816	0.498	-0.044
Mof_C 	C 	0.3101	0.2794	0.434	-0.048
Mof_H 	H 	0.3444	0.284	0.4627	0.065
Mof_C 	C 	0.3046	0.2702	0.326	0.014
Mof_C 	C 	0.2533	0.2633	0.282	-0.058
Mof_H 	H 	0.2496	0.2572	0.2099	0.06
Mof_C 	C 	0.2077	0.2655	0.347	-0.034
Mof_H 	H 	0.1734	0.2608	0.3179	0.048
Mof_C 	C 	0.2133	0.2746	0.455	-0.028
Mof_H 	H 	0.1828	0.2761	0.4983	0.052
Mof_C 	C 	0.1625	0.1045	0.611	0.025
Mof_H 	H 	0.1634	0.0826	0.5568	0.029
Mof_C 	C 	0.1971	0.1396	0.607	-0.037
Mof_C 	C 	0.1895	0.1737	0.689	-0.012
Mof_H 	H 	0.2122	0.1995	0.6909	0.047
Mof_C 	C 	0.1492	0.1695	0.768	-0.093
Mof_H 	H 	0.1465	0.1916	0.8215	0.069
Mof_C 	C 	0.1121	0.1309	0.764	0.075
Mof_C 	C 	0.3872	0.1734	0.486	0.251
Mof_C 	C 	0.3283	0.1622	0.467	-0.01
Mof_C 	C 	0.2891	0.1612	0.547	-0.085
Mof_H 	H 	0.2978	0.1707	0.6155	0.077
Mof_C 	C 	0.2368	0.1461	0.524	0.06
Mof_C 	C 	0.2238	0.132	0.421	-0.099
Mof_H 	H 	0.1889	0.1219	0.4051	0.068
Mof_C 	C 	0.2631	0.1329	0.341	0.005
Mof_H 	H 	0.2544	0.1235	0.2726	0.032
Mof_C 	C 	0.3153	0.1481	0.365	-0.063
Mof_H 	H 	0.3415	0.1487	0.3114	0.066
Mof_C 	C 	0.9821	0.1979	0.018	0.32
Mof_C 	C 	0.0057	0.1575	0.964	-0.07
Mof_C 	C 	0.0465	0.164	0.889	-0.021
Mof_H 	H 	0.0573	0.194	0.8702	0.049
Mof_C 	C 	0.0711	0.1257	0.841	-0.011
Mof_C 	C 	0.0549	0.0809	0.869	-0.034
Mof_H 	H 	0.0714	0.0553	0.8368	0.052
Mof_C 	C 	0.0142	0.0744	0.944	-0.054
Mof_H 	H 	0.0034	0.0444	0.962	0.052
Mof_C 	C 	0.9896	0.1127	0.991	0.012
Mof_H 	H 	0.9622	0.1084	0.041	0.039
Mof_C 	C 	0.1469	0.163	0.101	-0.004
Mof_H 	H 	0.1546	0.1913	0.0679	0.04
Mof_C 	C 	0.1784	0.1253	0.087	-0.011
Mof_C 	C 	0.1712	0.0899	0.143	-0.011
Mof_H 	H 	0.1961	0.0659	0.134	0.033
Mof_C 	C 	0.133	0.0822	0.214	-0.102
Mof_H 	H 	0.13	0.0536	0.2483	0.065
Mof_C 	C 	0.0978	0.1177	0.236	0.068
Mof_C 	C 	0.309	0.2195	0.861	0.28
Mof_C 	C 	0.2878	0.1736	0.899	-0.048
Mof_C 	C 	0.2484	0.1729	0.978	-0.025
Mof_H 	H 	0.2396	0.2001	0.0146	0.046
Mof_C 	C 	0.2222	0.1314	0.004	0.003
Mof_C 	C 	0.2353	0.0907	0.949	-0.048
Mof_H 	H 	0.2178	0.0629	0.9663	0.053
Mof_C 	C 	0.2747	0.0914	0.87	-0.033
Mof_H 	H 	0.2834	0.0641	0.8339	0.047
Mof_C 	C 	0.3009	0.1328	0.845	-0.027
Mof_H 	H 	0.3272	0.1333	0.792	0.056
Mof_C 	C 	0.9062	0.1492	0.368	0.319
Mof_C 	C 	0.9602	0.1246	0.378	-0.054
Mof_C 	C 	0.0003	0.1347	0.303	-0.038
Mof_H 	H 	0.9926	0.1553	0.248	0.069
Mof_C 	C 	0.0512	0.1148	0.309	0.008
Mof_C 	C 	0.0624	0.0824	0.388	-0.058
Mof_H 	H 	0.0961	0.068	0.3912	0.049
Mof_C 	C 	0.0229	0.0716	0.463	-0.031
Mof_H 	H 	0.0315	0.0532	0.522	0.046
Mof_C 	C 	0.9702	0.0887	0.45	-0.023
Mof_H 	H 	0.9419	0.0762	0.49	0.053
Mof_Cd	Cd	0.50611	0.81217	0.56286	0.451
Mof_Cd	Cd	0.60214	0.74038	0.69015	0.511
Mof_Cd	Cd	0.70174	0.67338	0.81844	0.445
Mof_N 	N 	0.887	0.5429	0.1508	-0.141
Mof_N 	N 	0.9771	0.3857	0.1319	-0.153
Mof_N 	N 	0.7644	0.6445	0.9332	-0.141
Mof_N 	N 	0.9134	0.6597	0.7755	-0.143
Mof_N 	N 	0.9418	0.6743	0.9324	-0.136
Mof_N 	N 	0.6513	0.7264	0.1463	-0.113
Mof_N 	N 	0.8744	0.9019	0.691	-0.12
Mof_N 	N 	0.9008	0.8427	0.171	-0.107
Mof_O 	O 	0.5231	0.7809	0.73	-0.295
Mof_O 	O 	0.4331	0.7857	0.7186	-0.253
Mof_O 	O 	0.6807	0.7027	0.652	-0.324
Mof_O 	O 	0.7682	0.703	0.6729	-0.275
Mof_O 	O 	0.6057	0.804	0.5827	-0.26
Mof_O 	O 	0.5753	0.8382	0.4296	-0.262
Mof_O 	O 	0.9989	0.7614	0.0007	-0.285
Mof_O 	O 	0.0587	0.8087	0.0695	-0.291
Mof_O 	O 	0.6465	0.7832	0.8082	-0.269
Mof_O 	O 	0.7133	0.7425	0.8936	-0.268
Mof_O 	O 	0.0999	0.8196	0.3043	-0.306
Mof_O 	O 	0.1338	0.869	0.4155	-0.273
Mof_C 	C 	0.8651	0.5816	0.177	0.103
Mof_C 	C 	0.8662	0.6024	0.2789	-0.148
Mof_H 	H 	0.8491	0.6307	0.2916	0.09
Mof_C 	C 	0.8954	0.5778	0.365	0.105
Mof_C 	C 	0.9148	0.5377	0.332	-0.162
Mof_H 	H 	0.9343	0.5204	0.3818	0.084
Mof_C 	C 	0.9092	0.5191	0.2346	0.078
Mof_C 	C 	0.9003	0.6006	0.47	-0.06
Mof_C 	C 	0.9035	0.6486	0.484	0.024
Mof_H 	H 	0.9015	0.6682	0.4248	0.031
Mof_C 	C 	0.9096	0.6674	0.585	-0.139
Mof_H 	H 	0.9117	0.6995	0.5939	0.091
Mof_C 	C 	0.9126	0.6382	0.673	0.137
Mof_C 	C 	0.9095	0.5902	0.66	-0.144
Mof_H 	H 	0.9115	0.5706	0.7187	0.083
Mof_C 	C 	0.9033	0.5714	0.559	0.023
Mof_H 	H 	0.9011	0.5392	0.5497	0.021
Mof_C 	C 	0.9624	0.3946	0.228	0.108
Mof_H 	H 	0.9655	0.3707	0.2779	0.011
Mof_C 	C 	0.9426	0.437	0.2639	-0.166
Mof_H 	H 	0.9332	0.4404	0.3351	0.088
Mof_C 	C 	0.9367	0.4728	0.198	0.091
Mof_C 	C 	0.945	0.466	0.098	-0.147
Mof_H 	H 	0.9361	0.4887	0.0482	0.089
Mof_C 	C 	0.9676	0.4237	0.066	0.065
Mof_H 	H 	0.9772	0.4208	0.9951	0.023
Mof_C 	C 	0.7622	0.6597	0.032	0.053
Mof_H 	H 	0.7346	0.6803	0.05	0.031
Mof_C 	C 	0.7991	0.6467	0.114	-0.096
Mof_H 	H 	0.8022	0.664	0.1759	0.07
Mof_C 	C 	0.8325	0.6046	0.096	0.021
Mof_C 	C 	0.8358	0.5916	0.987	-0.094
Mof_H 	H 	0.8631	0.5716	0.9635	0.073
Mof_C 	C 	0.7995	0.6084	0.918	0.066
Mof_H 	H 	0.798	0.5938	0.8519	0.013
Mof_C 	C 	0.9475	0.6461	0.85	0.107
Mof_H 	H 	0.9714	0.6211	0.8452	0.003
Mof_C 	C 	0.901	0.7066	0.917	0.017
Mof_H 	H 	0.8903	0.7308	0.9617	0.041
Mof_C 	C 	0.8801	0.6943	0.82	-0.002
Mof_H 	H 	0.8491	0.7068	0.7884	0.054
Mof_C 	C 	0.6076	0.7341	0.086	0.022
Mof_H 	H 	0.6131	0.7415	0.0149	0.042
Mof_C 	C 	0.5556	0.7321	0.122	-0.018
Mof_C 	C 	0.548	0.7348	0.216	-0.018
Mof_H 	H 	0.5129	0.7392	0.2413	0.047
Mof_C 	C 	0.593	0.7313	0.293	-0.081
Mof_H 	H 	0.5862	0.7283	0.3657	0.075
Mof_C 	C 	0.6471	0.7327	0.254	0.067
Mof_C 	C 	0.4768	0.7743	0.767	0.286
Mof_C 	C 	0.4732	0.7509	0.876	-0.042
Mof_C 	C 	0.5165	0.7541	0.946	-0.051
Mof_H 	H 	0.5478	0.7701	0.9264	0.069
Mof_C 	C 	0.5131	0.7333	0.046	0.029
Mof_C 	C 	0.4665	0.7093	0.075	-0.069
Mof_H 	H 	0.4642	0.6954	0.1417	0.06
Mof_C 	C 	0.4232	0.7061	0.004	-0.039
Mof_H 	H 	0.392	0.6901	0.0239	0.047
Mof_C 	C 	0.4266	0.7269	0.905	-0.022
Mof_H 	H 	0.3976	0.7248	0.8576	0.05
Mof_C 	C 	0.7254	0.7083	0.619	0.322
Mof_C 	C 	0.7355	0.7184	0.498	-0.044
Mof_C 	C 	0.6899	0.7206	0.434	-0.048
Mof_H 	H 	0.6556	0.716	0.4627	0.065
Mof_C 	C 	0.6954	0.7298	0.326	0.014
Mof_C 	C 	0.7467	0.7367	0.282	-0.058
Mof_H 	H 	0.7504	0.7428	0.2099	0.06
Mof_C 	C 	0.7923	0.7345	0.347	-0.034
Mof_H 	H 	0.8266	0.7392	0.3179	0.048
Mof_C 	C 	0.7867	0.7254	0.455	-0.028
Mof_H 	H 	0.8172	0.7239	0.4983	0.052
Mof_C 	C 	0.8375	0.8955	0.611	0.025
Mof_H 	H 	0.8366	0.9174	0.5568	0.029
Mof_C 	C 	0.8029	0.8604	0.607	-0.037
Mof_C 	C 	0.8105	0.8263	0.689	-0.012
Mof_H 	H 	0.7878	0.8005	0.6909	0.047
Mof_C 	C 	0.8508	0.8305	0.768	-0.093
Mof_H 	H 	0.8535	0.8084	0.8215	0.069
Mof_C 	C 	0.8879	0.8691	0.764	0.075
Mof_C 	C 	0.6128	0.8266	0.486	0.251
Mof_C 	C 	0.6717	0.8378	0.467	-0.01
Mof_C 	C 	0.7109	0.8388	0.547	-0.085
Mof_H 	H 	0.7022	0.8293	0.6155	0.077
Mof_C 	C 	0.7632	0.8539	0.524	0.06
Mof_C 	C 	0.7762	0.868	0.421	-0.099
Mof_H 	H 	0.8111	0.8781	0.4051	0.068
Mof_C 	C 	0.7369	0.8671	0.341	0.005
Mof_H 	H 	0.7456	0.8765	0.2726	0.032
Mof_C 	C 	0.6847	0.8519	0.365	-0.063
Mof_H 	H 	0.6585	0.8513	0.3114	0.066
Mof_C 	C 	0.0179	0.8021	0.018	0.32
Mof_C 	C 	0.9943	0.8425	0.964	-0.07
Mof_C 	C 	0.9535	0.836	0.889	-0.021
Mof_H 	H 	0.9427	0.806	0.8702	0.049
Mof_C 	C 	0.9289	0.8743	0.841	-0.011
Mof_C 	C 	0.9451	0.9191	0.869	-0.034
Mof_H 	H 	0.9286	0.9447	0.8368	0.052
Mof_C 	C 	0.9858	0.9256	0.944	-0.054
Mof_H 	H 	0.9966	0.9556	0.962	0.052
Mof_C 	C 	0.0104	0.8873	0.991	0.012
Mof_H 	H 	0.0378	0.8916	0.041	0.039
Mof_C 	C 	0.8531	0.837	0.101	-0.004
Mof_H 	H 	0.8454	0.8087	0.0679	0.04
Mof_C 	C 	0.8216	0.8747	0.087	-0.011
Mof_C 	C 	0.8288	0.9101	0.143	-0.011
Mof_H 	H 	0.8039	0.9341	0.134	0.033
Mof_C 	C 	0.867	0.9178	0.214	-0.102
Mof_H 	H 	0.87	0.9464	0.2483	0.065
Mof_C 	C 	0.9022	0.8823	0.236	0.068
Mof_C 	C 	0.691	0.7805	0.861	0.28
Mof_C 	C 	0.7122	0.8264	0.899	-0.048
Mof_C 	C 	0.7516	0.8271	0.978	-0.025
Mof_H 	H 	0.7604	0.7999	0.0146	0.046
Mof_C 	C 	0.7778	0.8686	0.004	0.003
Mof_C 	C 	0.7647	0.9093	0.949	-0.048
Mof_H 	H 	0.7822	0.9371	0.9663	0.053
Mof_C 	C 	0.7253	0.9086	0.87	-0.033
Mof_H 	H 	0.7166	0.9359	0.8339	0.047
Mof_C 	C 	0.6991	0.8672	0.845	-0.027
Mof_H 	H 	0.6728	0.8667	0.792	0.056
Mof_C 	C 	0.0938	0.8508	0.368	0.319
Mof_C 	C 	0.0398	0.8754	0.378	-0.054
Mof_C 	C 	0.9997	0.8653	0.303	-0.038
Mof_H 	H 	0.0074	0.8447	0.248	0.069
Mof_C 	C 	0.9488	0.8852	0.309	0.008
Mof_C 	C 	0.9376	0.9176	0.388	-0.058
Mof_H 	H 	0.9039	0.932	0.3912	0.049
Mof_C 	C 	0.9771	0.9284	0.463	-0.031
Mof_H 	H 	0.9685	0.9468	0.522	0.046
Mof_C 	C 	0.0298	0.9113	0.45	-0.023
Mof_H 	H 	0.0581	0.9238	0.49	0.053
_end
