data_functionalizedCrystal
_audit_creation_method	'EQeq! by Chris Wilmer'
_symmetry_space_group_name_H-M	'P1'
_symmetry_Int_Tables_number	1
_symmetry_cell_setting	triclinic
loop_
_symmetry_equiv_pos_as_xyz
  x,y,z
_cell_length_a	14.6484
_cell_length_b	16.4358
_cell_length_c	16.5923
_cell_angle_alpha	90
_cell_angle_beta	90
_cell_angle_gamma	90
loop_
_atom_site_label
_atom_site_type_symbol
_atom_site_fract_x
_atom_site_fract_y
_atom_site_fract_z
_atom_site_charge
Mof_O 	O 	0.9446	0.9034	0.5245	-0.644
Mof_O 	O 	0.0435	0.8563	0.6156	-0.525
Mof_O 	O 	0.2238	0.5711	0.4164	-0.496
Mof_O 	O 	0.2349	0.6164	0.5348	-0.483
Mof_C 	C 	0.0352	0.767	0.2634	2.249
Mof_H 	H 	0.0644	0.7203	0.24	-0.664
Mof_H 	H 	0.0644	0.8136	0.2401	-0.613
Mof_O 	O 	0.8687	0.0337	0.6353	-0.385
Mof_O 	O 	0.8978	0.934	0.7228	-0.527
Mof_O 	O 	0.6431	0.2524	0.7242	-0.149
Mof_O 	O 	0.5678	0.2226	0.8329	-0.044
Mof_C 	C 	0.7605	0.0297	0.9858	-11.526
Mof_H 	H 	0.7025	0.0516	0.0016	2.644
Mof_H 	H 	0.8047	0.0588	0.0174	2.593
Mof_C 	C 	0.0085	0.8591	0.5454	0.531
Mof_C 	C 	0.2011	0.6196	0.466	0.548
Mof_C 	C 	0.0495	0.8052	0.4836	-0.486
Mof_C 	C 	0.1095	0.7427	0.5052	0.408
Mof_H 	H 	0.1261	0.7354	0.5588	-0.094
Mof_C 	C 	0.1444	0.6912	0.4455	-0.518
Mof_C 	C 	0.1216	0.7054	0.3671	0.699
Mof_H 	H 	0.1457	0.6722	0.327	-0.212
Mof_C 	C 	0.0627	0.7691	0.3454	-1.148
Mof_C 	C 	0.024	0.8148	0.4036	0.558
Mof_H 	H 	0.9798	0.853	0.39	-0.114
Mof_C 	C 	0.865	0.0019	0.7039	0.163
Mof_C 	C 	0.6274	0.207	0.7868	-0.646
Mof_C 	C 	0.8115	0.0463	0.7679	1.907
Mof_C 	C 	0.754	0.1081	0.7473	-2.247
Mof_H 	H 	0.7503	0.1257	0.6941	0.824
Mof_C 	C 	0.701	0.1445	0.8069	2.699
Mof_C 	C 	0.7097	0.1195	0.8872	-5.633
Mof_H 	H 	0.677	0.1399	0.9218	2.583
Mof_C 	C 	0.7728	0.061	0.9089	6.809
Mof_C 	C 	0.8195	0.0175	0.8464	-3.316
Mof_H 	H 	0.8541	0.9715	0.8579	1.258
Mof_O 	O 	0.4446	0.4034	0.5245	-0.562
Mof_O 	O 	0.5435	0.3563	0.6156	-0.519
Mof_O 	O 	0.7238	0.0711	0.4164	-0.427
Mof_O 	O 	0.7349	0.1164	0.5348	-0.479
Mof_C 	C 	0.5352	0.267	0.2634	1.432
Mof_H 	H 	0.5644	0.2203	0.24	-0.393
Mof_H 	H 	0.5644	0.3136	0.2401	-0.362
Mof_O 	O 	0.3687	0.5337	0.6353	-0.298
Mof_O 	O 	0.3978	0.434	0.7228	-0.294
Mof_O 	O 	0.1431	0.7524	0.7242	-0.154
Mof_O 	O 	0.0678	0.7226	0.8329	-0.094
Mof_C 	C 	0.2605	0.5297	0.9858	-10.272
Mof_H 	H 	0.2025	0.5516	0.0016	2.2
Mof_H 	H 	0.3047	0.5588	0.0174	2.195
Mof_C 	C 	0.5085	0.3591	0.5454	0.614
Mof_C 	C 	0.7011	0.1196	0.466	0.514
Mof_C 	C 	0.5495	0.3052	0.4836	-0.453
Mof_C 	C 	0.6095	0.2427	0.5052	0.348
Mof_H 	H 	0.6261	0.2354	0.5588	-0.063
Mof_C 	C 	0.6444	0.1912	0.4455	-0.391
Mof_C 	C 	0.6216	0.2054	0.3671	0.497
Mof_H 	H 	0.6457	0.1722	0.327	-0.113
Mof_C 	C 	0.5627	0.2691	0.3454	-0.796
Mof_C 	C 	0.524	0.3148	0.4036	0.56
Mof_H 	H 	0.4798	0.353	0.39	-0.156
Mof_C 	C 	0.365	0.5019	0.7039	-0.271
Mof_C 	C 	0.1274	0.707	0.7868	-0.626
Mof_C 	C 	0.3115	0.5463	0.7679	2.081
Mof_C 	C 	0.254	0.6081	0.7473	-2.308
Mof_H 	H 	0.2503	0.6257	0.6941	0.836
Mof_C 	C 	0.201	0.6445	0.8069	2.594
Mof_C 	C 	0.2097	0.6195	0.8872	-5.324
Mof_H 	H 	0.177	0.6399	0.9218	2.439
Mof_C 	C 	0.2728	0.561	0.9089	6.356
Mof_C 	C 	0.3195	0.5175	0.8464	-3.705
Mof_H 	H 	0.3541	0.4715	0.8579	1.539
Mof_O 	O 	0.0554	0.0966	0.0245	-0.369
Mof_O 	O 	0.9565	0.1437	0.1156	-0.08
Mof_O 	O 	0.7762	0.4289	0.9164	-0.117
Mof_O 	O 	0.7651	0.3836	0.0348	-0.831
Mof_C 	C 	0.9648	0.233	0.7634	0.105
Mof_H 	H 	0.9356	0.2797	0.74	0.045
Mof_H 	H 	0.9356	0.1864	0.7401	0.015
Mof_O 	O 	0.1313	0.9663	0.1353	-0.398
Mof_O 	O 	0.1022	0.066	0.2228	-0.208
Mof_O 	O 	0.3569	0.7476	0.2242	-0.47
Mof_O 	O 	0.4322	0.7774	0.3329	-0.447
Mof_C 	C 	0.2395	0.9703	0.4858	1.378
Mof_H 	H 	0.2975	0.9484	0.5016	-0.41
Mof_H 	H 	0.1953	0.9412	0.5174	-0.369
Mof_C 	C 	0.9915	0.1409	0.0454	-0.965
Mof_C 	C 	0.7989	0.3804	0.966	0.588
Mof_C 	C 	0.9505	0.1948	0.9836	2.753
Mof_C 	C 	0.8905	0.2573	0.0052	-3.436
Mof_H 	H 	0.8739	0.2646	0.0588	1.085
Mof_C 	C 	0.8556	0.3088	0.9455	1.939
Mof_C 	C 	0.8784	0.2946	0.8671	-1.298
Mof_H 	H 	0.8543	0.3278	0.827	0.491
Mof_C 	C 	0.9373	0.2309	0.8454	0.991
Mof_C 	C 	0.976	0.1852	0.9036	-1.465
Mof_H 	H 	0.0202	0.147	0.89	0.6
Mof_C 	C 	0.135	0.9981	0.2039	0.067
Mof_C 	C 	0.3726	0.793	0.2868	0.374
Mof_C 	C 	0.1885	0.9537	0.2679	0.006
Mof_C 	C 	0.246	0.8919	0.2473	0.033
Mof_H 	H 	0.2497	0.8743	0.1941	0.014
Mof_C 	C 	0.299	0.8555	0.3069	-0.223
Mof_C 	C 	0.2903	0.8805	0.3872	0.337
Mof_H 	H 	0.323	0.8601	0.4218	-0.101
Mof_C 	C 	0.2272	0.939	0.4089	-0.556
Mof_C 	C 	0.1805	0.9825	0.3464	-0.303
Mof_H 	H 	0.1459	0.0285	0.3579	0.281
Mof_O 	O 	0.5554	0.5966	0.0245	-0.194
Mof_O 	O 	0.4565	0.6437	0.1156	-0.112
Mof_O 	O 	0.2762	0.9289	0.9164	-0.324
Mof_O 	O 	0.2651	0.8836	0.0348	-0.973
Mof_C 	C 	0.4648	0.733	0.7634	1.036
Mof_H 	H 	0.4356	0.7797	0.74	-0.255
Mof_H 	H 	0.4356	0.6864	0.7401	-0.267
Mof_O 	O 	0.6313	0.4663	0.1353	-0.306
Mof_O 	O 	0.6022	0.566	0.2228	-0.454
Mof_O 	O 	0.8569	0.2476	0.2242	-0.394
Mof_O 	O 	0.9322	0.2774	0.3329	-0.318
Mof_C 	C 	0.7395	0.4703	0.4858	-0.183
Mof_H 	H 	0.7975	0.4484	0.5016	0.1
Mof_H 	H 	0.6953	0.4412	0.5174	0.091
Mof_C 	C 	0.4915	0.6409	0.0454	-1.225
Mof_C 	C 	0.2989	0.8804	0.966	0.65
Mof_C 	C 	0.4505	0.6948	0.9836	2.862
Mof_C 	C 	0.3905	0.7573	0.0052	-3.501
Mof_H 	H 	0.3739	0.7646	0.0588	1.087
Mof_C 	C 	0.3556	0.8088	0.9455	1.864
Mof_C 	C 	0.3784	0.7946	0.8671	-1.118
Mof_H 	H 	0.3543	0.8278	0.827	0.402
Mof_C 	C 	0.4373	0.7309	0.8454	0.638
Mof_C 	C 	0.476	0.6852	0.9036	-1.533
Mof_H 	H 	0.5202	0.647	0.89	0.677
Mof_C 	C 	0.635	0.4981	0.2039	0.407
Mof_C 	C 	0.8726	0.293	0.2868	0.305
Mof_C 	C 	0.6885	0.4537	0.2679	-0.05
Mof_C 	C 	0.746	0.3919	0.2473	-0.016
Mof_H 	H 	0.7497	0.3743	0.1941	0.05
Mof_C 	C 	0.799	0.3555	0.3069	-0.007
Mof_C 	C 	0.7903	0.3805	0.3872	-0.163
Mof_H 	H 	0.823	0.3601	0.4218	0.127
Mof_C 	C 	0.7272	0.439	0.4089	0.116
Mof_C 	C 	0.6805	0.4825	0.3464	-0.083
Mof_H 	H 	0.6459	0.5285	0.3579	0.075
Mof_O 	O 	0.0554	0.9034	0.9755	-0.482
Mof_O 	O 	0.9565	0.8563	0.8844	-0.721
Mof_O 	O 	0.7762	0.5711	0.0836	-0.257
Mof_O 	O 	0.7651	0.6164	0.9652	0.469
Mof_C 	C 	0.9648	0.767	0.2366	-1.994
Mof_H 	H 	0.9356	0.7203	0.26	0.616
Mof_H 	H 	0.9356	0.8136	0.2599	0.636
Mof_O 	O 	0.1313	0.0337	0.8647	-0.207
Mof_O 	O 	0.1022	0.934	0.7772	-0.71
Mof_O 	O 	0.3569	0.2524	0.7758	-0.255
Mof_O 	O 	0.4322	0.2226	0.6671	-0.363
Mof_C 	C 	0.2395	0.0297	0.5142	-1.67
Mof_H 	H 	0.2975	0.0516	0.4984	0.567
Mof_H 	H 	0.1953	0.0588	0.4826	0.522
Mof_C 	C 	0.9915	0.8591	0.9546	2.044
Mof_C 	C 	0.7989	0.6196	0.034	-0.023
Mof_C 	C 	0.9505	0.8052	0.0164	-2.916
Mof_C 	C 	0.8905	0.7427	0.9948	3.392
Mof_H 	H 	0.8739	0.7354	0.9412	-0.926
Mof_C 	C 	0.8556	0.6912	0.0545	-1.863
Mof_C 	C 	0.8784	0.7054	0.1329	0.816
Mof_H 	H 	0.8543	0.6722	0.173	-0.218
Mof_C 	C 	0.9373	0.7691	0.1546	-0.217
Mof_C 	C 	0.976	0.8148	0.0964	1.431
Mof_H 	H 	0.0202	0.853	0.11	-0.597
Mof_C 	C 	0.135	0.0019	0.7961	0.712
Mof_C 	C 	0.3726	0.207	0.7132	0.235
Mof_C 	C 	0.1885	0.0463	0.7321	-0.123
Mof_C 	C 	0.246	0.1081	0.7527	-0.078
Mof_H 	H 	0.2497	0.1257	0.8059	0.143
Mof_C 	C 	0.299	0.1445	0.6931	0.213
Mof_C 	C 	0.2903	0.1195	0.6128	-0.635
Mof_H 	H 	0.323	0.1399	0.5782	0.323
Mof_C 	C 	0.2272	0.061	0.5911	0.738
Mof_C 	C 	0.1805	0.0175	0.6536	0.141
Mof_H 	H 	0.1459	0.9715	0.6421	-0.158
Mof_O 	O 	0.5554	0.4034	0.9755	-0.226
Mof_O 	O 	0.4565	0.3563	0.8844	-0.735
Mof_O 	O 	0.2762	0.0711	0.0836	-0.229
Mof_O 	O 	0.2651	0.1164	0.9652	0.452
Mof_C 	C 	0.4648	0.267	0.2366	-1.192
Mof_H 	H 	0.4356	0.2203	0.26	0.381
Mof_H 	H 	0.4356	0.3136	0.2599	0.392
Mof_O 	O 	0.6313	0.5337	0.8647	-0.116
Mof_O 	O 	0.6022	0.434	0.7772	-0.446
Mof_O 	O 	0.8569	0.7524	0.7758	-0.238
Mof_O 	O 	0.9322	0.7226	0.6671	-0.321
Mof_C 	C 	0.7395	0.5297	0.5142	-0.129
Mof_H 	H 	0.7975	0.5516	0.4984	0.084
Mof_H 	H 	0.6953	0.5588	0.4826	0.077
Mof_C 	C 	0.4915	0.3591	0.9546	1.93
Mof_C 	C 	0.2989	0.1196	0.034	0.003
Mof_C 	C 	0.4505	0.3052	0.0164	-2.984
Mof_C 	C 	0.3905	0.2427	0.9948	3.508
Mof_H 	H 	0.3739	0.2354	0.9412	-0.966
Mof_C 	C 	0.3556	0.1912	0.0545	-1.981
Mof_C 	C 	0.3784	0.2054	0.1329	1.008
Mof_H 	H 	0.3543	0.1722	0.173	-0.265
Mof_C 	C 	0.4373	0.2691	0.1546	-0.548
Mof_C 	C 	0.476	0.3148	0.0964	1.403
Mof_H 	H 	0.5202	0.353	0.11	-0.505
Mof_C 	C 	0.635	0.5019	0.7961	0.332
Mof_C 	C 	0.8726	0.707	0.7132	0.27
Mof_C 	C 	0.6885	0.5463	0.7321	-0.019
Mof_C 	C 	0.746	0.6081	0.7527	-0.086
Mof_H 	H 	0.7497	0.6257	0.8059	0.136
Mof_C 	C 	0.799	0.6445	0.6931	0.061
Mof_C 	C 	0.7903	0.6195	0.6128	-0.199
Mof_H 	H 	0.823	0.6399	0.5782	0.143
Mof_C 	C 	0.7272	0.561	0.5911	0.115
Mof_C 	C 	0.6805	0.5175	0.6536	-0.105
Mof_H 	H 	0.6459	0.4715	0.6421	0.077
Mof_O 	O 	0.9446	0.0966	0.4755	-0.405
Mof_O 	O 	0.0435	0.1437	0.3844	-0.399
Mof_O 	O 	0.2238	0.4289	0.5836	-0.391
Mof_O 	O 	0.2349	0.3836	0.4652	-0.339
Mof_C 	C 	0.0352	0.233	0.7366	-0.874
Mof_H 	H 	0.0644	0.2797	0.76	0.312
Mof_H 	H 	0.0644	0.1864	0.7599	0.269
Mof_O 	O 	0.8687	0.9663	0.3647	-0.73
Mof_O 	O 	0.8978	0.066	0.2772	-0.368
Mof_O 	O 	0.6431	0.7476	0.2758	-0.577
Mof_O 	O 	0.5678	0.7774	0.1671	-0.754
Mof_C 	C 	0.7605	0.9703	0.0142	11.249
Mof_H 	H 	0.7025	0.9484	0.9984	-2.493
Mof_H 	H 	0.8047	0.9412	0.9826	-2.423
Mof_C 	C 	0.0085	0.1409	0.4546	0.224
Mof_C 	C 	0.2011	0.3804	0.534	0.261
Mof_C 	C 	0.0495	0.1948	0.5164	0.181
Mof_C 	C 	0.1095	0.2573	0.4948	-0.238
Mof_H 	H 	0.1261	0.2646	0.4412	0.143
Mof_C 	C 	0.1444	0.3088	0.5545	0.147
Mof_C 	C 	0.1216	0.2946	0.6329	-0.411
Mof_H 	H 	0.1457	0.3278	0.673	0.199
Mof_C 	C 	0.0627	0.2309	0.6546	0.557
Mof_C 	C 	0.024	0.1852	0.5964	-0.663
Mof_H 	H 	0.9798	0.147	0.61	0.349
Mof_C 	C 	0.865	0.9981	0.2961	0.825
Mof_C 	C 	0.6274	0.793	0.2132	1.262
Mof_C 	C 	0.8115	0.9537	0.2321	-2.125
Mof_C 	C 	0.754	0.8919	0.2527	2.244
Mof_H 	H 	0.7503	0.8743	0.3059	-0.718
Mof_C 	C 	0.701	0.8555	0.1931	-2.74
Mof_C 	C 	0.7097	0.8805	0.1128	5.349
Mof_H 	H 	0.677	0.8601	0.0782	-2.361
Mof_C 	C 	0.7728	0.939	0.0911	-6.639
Mof_C 	C 	0.8195	0.9825	0.1536	3.226
Mof_H 	H 	0.8541	0.0285	0.1421	-1.111
Mof_O 	O 	0.4446	0.5966	0.4755	-0.507
Mof_O 	O 	0.5435	0.6437	0.3844	-0.438
Mof_O 	O 	0.7238	0.9289	0.5836	-0.577
Mof_O 	O 	0.7349	0.8836	0.4652	-0.459
Mof_C 	C 	0.5352	0.733	0.7366	-1.799
Mof_H 	H 	0.5644	0.7797	0.76	0.578
Mof_H 	H 	0.5644	0.6864	0.7599	0.547
Mof_O 	O 	0.3687	0.4663	0.3647	-0.661
Mof_O 	O 	0.3978	0.566	0.2772	-0.713
Mof_O 	O 	0.1431	0.2476	0.2758	-0.554
Mof_O 	O 	0.0678	0.2774	0.1671	-0.76
Mof_C 	C 	0.2605	0.4703	0.0142	9.995
Mof_H 	H 	0.2025	0.4484	0.9984	-2.065
Mof_H 	H 	0.3047	0.4412	0.9826	-2.027
Mof_C 	C 	0.5085	0.6409	0.4546	0.381
Mof_C 	C 	0.7011	0.8804	0.534	0.285
Mof_C 	C 	0.5495	0.6948	0.5164	0.17
Mof_C 	C 	0.6095	0.7573	0.4948	-0.238
Mof_H 	H 	0.6261	0.7646	0.4412	0.146
Mof_C 	C 	0.6444	0.8088	0.5545	0.188
Mof_C 	C 	0.6216	0.7946	0.6329	-0.58
Mof_H 	H 	0.6457	0.8278	0.673	0.237
Mof_C 	C 	0.5627	0.7309	0.6546	0.908
Mof_C 	C 	0.524	0.6852	0.5964	-0.617
Mof_H 	H 	0.4798	0.647	0.61	0.263
Mof_C 	C 	0.365	0.4981	0.2961	1.224
Mof_C 	C 	0.1274	0.293	0.2132	1.247
Mof_C 	C 	0.3115	0.4537	0.2321	-2.296
Mof_C 	C 	0.254	0.3919	0.2527	2.319
Mof_H 	H 	0.2503	0.3743	0.3059	-0.726
Mof_C 	C 	0.201	0.3555	0.1931	-2.665
Mof_C 	C 	0.2097	0.3805	0.1128	5.067
Mof_H 	H 	0.177	0.3601	0.0782	-2.252
Mof_C 	C 	0.2728	0.439	0.0911	-6.205
Mof_C 	C 	0.3195	0.4825	0.1536	3.608
Mof_H 	H 	0.3541	0.5285	0.1421	-1.411
Mof_Gd	Gd	0.83793	-6.31921e-33	0.5	2.677
Mof_Gd	Gd	0.33793	0.5	0.5	1.988
Mof_Gd	Gd	0.16207	0	-0	0.664
Mof_Gd	Gd	0.66207	0.5	-0	-0.009
Mof_Gd	Gd	1.58236e-32	0.83214	0.75	1.76
Mof_Gd	Gd	0.5	0.33214	0.75	1.958
Mof_Gd	Gd	-5.25747e-33	0.16786	0.25	1.539
Mof_Gd	Gd	0.5	0.66786	0.25	1.89
_end
