data_functionalizedCrystal
_audit_creation_method	'EQeq! by Chris Wilmer'
_symmetry_space_group_name_H-M	'P1'
_symmetry_Int_Tables_number	1
_symmetry_cell_setting	triclinic
loop_
_symmetry_equiv_pos_as_xyz
  x,y,z
_cell_length_a	12.605
_cell_length_b	13.2711
_cell_length_c	13.2711
_cell_angle_alpha	94.6874
_cell_angle_beta	96.6319
_cell_angle_gamma	83.3681
loop_
_atom_site_label
_atom_site_type_symbol
_atom_site_fract_x
_atom_site_fract_y
_atom_site_fract_z
_atom_site_charge
Mof_Zn	Zn	0.17123	0.17273	0.72697	1.211
Mof_Zn	Zn	0.32877	0.72697	0.17273	1.211
Mof_Zn	Zn	0.82877	0.82727	0.27303	1.211
Mof_Zn	Zn	0.67123	0.27303	0.82727	1.211
Mof_H 	H 	0.4057	0.1866	0.7106	0.006
Mof_H 	H 	0.5417	0.1137	0.6235	0.087
Mof_H 	H 	0.3369	0.9523	0.4553	0.101
Mof_H 	H 	0.2045	0.0303	0.5459	0.005
Mof_H 	H 	0.9821	0.2319	0.5779	0.001
Mof_H 	H 	0.9147	0.3595	0.4799	0.094
Mof_H 	H 	0.148	0.521	0.606	0.096
Mof_H 	H 	0.2094	0.3892	0.7036	0.006
Mof_H 	H 	0.0579	0.8682	0.7	-0.007
Mof_H 	H 	0.9578	0.7358	0.7016	0.213
Mof_H 	H 	0.7098	0.9276	0.779	0.158
Mof_H 	H 	0.0943	0.7106	0.1866	0.008
Mof_H 	H 	0.9583	0.6235	0.1137	0.079
Mof_H 	H 	0.1631	0.4553	0.9523	0.094
Mof_H 	H 	0.2955	0.5459	0.0303	0.008
Mof_H 	H 	0.5179	0.5779	0.2319	-0.004
Mof_H 	H 	0.5853	0.4799	0.3595	0.097
Mof_H 	H 	0.352	0.606	0.521	0.096
Mof_H 	H 	0.2906	0.7036	0.3892	0.006
Mof_H 	H 	0.4421	0.7	0.8682	-0.01
Mof_H 	H 	0.5422	0.7016	0.7358	0.214
Mof_H 	H 	0.7902	0.779	0.9276	0.16
Mof_H 	H 	0.5943	0.8134	0.2894	0.006
Mof_H 	H 	0.4583	0.8863	0.3765	0.087
Mof_H 	H 	0.6631	0.0477	0.5447	0.101
Mof_H 	H 	0.7955	0.9697	0.4541	0.005
Mof_H 	H 	0.0179	0.7681	0.4221	0.001
Mof_H 	H 	0.0853	0.6405	0.5201	0.094
Mof_H 	H 	0.852	0.479	0.394	0.096
Mof_H 	H 	0.7906	0.6108	0.2964	0.006
Mof_H 	H 	0.9421	0.1318	0.3	-0.007
Mof_H 	H 	0.0422	0.2642	0.2984	0.213
Mof_H 	H 	0.2902	0.0724	0.221	0.158
Mof_H 	H 	0.9057	0.2894	0.8134	0.008
Mof_H 	H 	0.0417	0.3765	0.8863	0.079
Mof_H 	H 	0.8369	0.5447	0.0477	0.094
Mof_H 	H 	0.7045	0.4541	0.9697	0.008
Mof_H 	H 	0.4821	0.4221	0.7681	-0.004
Mof_H 	H 	0.4147	0.5201	0.6405	0.097
Mof_H 	H 	0.648	0.394	0.479	0.096
Mof_H 	H 	0.7094	0.2964	0.6108	0.006
Mof_H 	H 	0.5579	0.3	0.1318	-0.01
Mof_H 	H 	0.4578	0.2984	0.2642	0.214
Mof_H 	H 	0.2098	0.221	0.0724	0.16
Mof_C 	C 	0.3908	0.1371	0.6589	0.13
Mof_C 	C 	0.4732	0.0937	0.6061	-0.124
Mof_C 	C 	0.4571	0.0229	0.5295	0.115
Mof_C 	C 	0.3537	0.0001	0.5083	-0.125
Mof_C 	C 	0.2743	0.0466	0.5638	0.132
Mof_C 	C 	0.0163	0.2909	0.5841	0.115
Mof_C 	C 	0.9753	0.3675	0.5257	-0.112
Mof_C 	C 	0.0209	0.457	0.5322	0.127
Mof_C 	C 	0.1121	0.463	0.5996	-0.104
Mof_C 	C 	0.149	0.383	0.657	0.12
Mof_C 	C 	0.0142	0.0675	0.7389	0.389
Mof_C 	C 	0.9446	0.9822	0.7332	-0.147
Mof_C 	C 	0.9869	0.8817	0.7143	0.177
Mof_C 	C 	0.927	0.8017	0.7163	-0.305
Mof_C 	C 	0.8228	0.8171	0.7393	0.385
Mof_C 	C 	0.7796	0.9153	0.7611	-0.249
Mof_C 	C 	0.8396	0.9973	0.7565	0.069
Mof_C 	C 	0.7834	0.1028	0.7684	0.35
Mof_C 	C 	0.813	0.6255	0.7347	1.011
Mof_C 	C 	0.1092	0.6589	0.1371	0.123
Mof_C 	C 	0.0268	0.6061	0.0937	-0.111
Mof_C 	C 	0.0429	0.5295	0.0229	0.11
Mof_C 	C 	0.1463	0.5083	0.0001	-0.113
Mof_C 	C 	0.2257	0.5638	0.0466	0.125
Mof_C 	C 	0.4837	0.5841	0.2909	0.125
Mof_C 	C 	0.5247	0.5257	0.3675	-0.12
Mof_C 	C 	0.4791	0.5322	0.457	0.13
Mof_C 	C 	0.3879	0.5996	0.463	-0.106
Mof_C 	C 	0.351	0.657	0.383	0.121
Mof_C 	C 	0.4858	0.7389	0.0675	0.399
Mof_C 	C 	0.5554	0.7332	0.9822	-0.154
Mof_C 	C 	0.5131	0.7143	0.8817	0.183
Mof_C 	C 	0.573	0.7163	0.8017	-0.309
Mof_C 	C 	0.6772	0.7393	0.8171	0.388
Mof_C 	C 	0.7204	0.7611	0.9153	-0.253
Mof_C 	C 	0.6604	0.7565	0.9973	0.076
Mof_C 	C 	0.7166	0.7684	0.1028	0.345
Mof_C 	C 	0.687	0.7347	0.6255	1.011
Mof_C 	C 	0.6092	0.8629	0.3411	0.13
Mof_C 	C 	0.5268	0.9063	0.3939	-0.124
Mof_C 	C 	0.5429	0.9771	0.4705	0.115
Mof_C 	C 	0.6463	0.9999	0.4917	-0.125
Mof_C 	C 	0.7257	0.9534	0.4362	0.132
Mof_C 	C 	0.9837	0.7091	0.4159	0.115
Mof_C 	C 	0.0247	0.6325	0.4743	-0.112
Mof_C 	C 	0.9791	0.543	0.4678	0.127
Mof_C 	C 	0.8879	0.537	0.4004	-0.104
Mof_C 	C 	0.851	0.617	0.343	0.12
Mof_C 	C 	0.9858	0.9325	0.2611	0.389
Mof_C 	C 	0.0554	0.0178	0.2668	-0.147
Mof_C 	C 	0.0131	0.1183	0.2857	0.177
Mof_C 	C 	0.073	0.1983	0.2837	-0.305
Mof_C 	C 	0.1772	0.1829	0.2607	0.385
Mof_C 	C 	0.2204	0.0847	0.2389	-0.249
Mof_C 	C 	0.1604	0.0027	0.2435	0.069
Mof_C 	C 	0.2166	0.8972	0.2316	0.35
Mof_C 	C 	0.187	0.3745	0.2653	1.011
Mof_C 	C 	0.8908	0.3411	0.8629	0.123
Mof_C 	C 	0.9732	0.3939	0.9063	-0.111
Mof_C 	C 	0.9571	0.4705	0.9771	0.11
Mof_C 	C 	0.8537	0.4917	0.9999	-0.113
Mof_C 	C 	0.7743	0.4362	0.9534	0.125
Mof_C 	C 	0.5163	0.4159	0.7091	0.125
Mof_C 	C 	0.4753	0.4743	0.6325	-0.12
Mof_C 	C 	0.5209	0.4678	0.543	0.13
Mof_C 	C 	0.6121	0.4004	0.537	-0.106
Mof_C 	C 	0.649	0.343	0.617	0.121
Mof_C 	C 	0.5142	0.2611	0.9325	0.399
Mof_C 	C 	0.4446	0.2668	0.0178	-0.154
Mof_C 	C 	0.4869	0.2857	0.1183	0.183
Mof_C 	C 	0.427	0.2837	0.1983	-0.309
Mof_C 	C 	0.3228	0.2607	0.1829	0.388
Mof_C 	C 	0.2796	0.2389	0.0847	-0.253
Mof_C 	C 	0.3396	0.2435	0.0027	0.076
Mof_C 	C 	0.2834	0.2316	0.8972	0.345
Mof_C 	C 	0.313	0.2653	0.3745	1.011
Mof_C 	C 	0.75	0.7308	0.7308	-0.563
Mof_C 	C 	0.25	0.2692	0.2692	-0.563
Mof_N 	N 	0.2922	0.11335	0.64135	-0.256
Mof_N 	N 	0.1037	0.29595	0.65045	-0.258
Mof_N 	N 	0.2078	0.64135	0.11335	-0.254
Mof_N 	N 	0.3963	0.65045	0.29595	-0.259
Mof_N 	N 	0.7078	0.88665	0.35865	-0.256
Mof_N 	N 	0.8963	0.70405	0.34955	-0.258
Mof_N 	N 	0.7922	0.35865	0.88665	-0.254
Mof_N 	N 	0.6037	0.34955	0.70405	-0.259
Mof_O 	O 	0.9989	0.14286	0.80004	-0.337
Mof_O 	O 	0.0776	0.05861	0.67873	-0.452
Mof_O 	O 	0.7844	0.16156	0.70406	-0.343
Mof_O 	O 	0.7386	0.12768	0.84216	-0.435
Mof_O 	O 	0.5011	0.80004	0.14286	-0.344
Mof_O 	O 	0.4224	0.67873	0.05861	-0.454
Mof_O 	O 	0.7156	0.70406	0.16156	-0.342
Mof_O 	O 	0.7614	0.84216	0.12768	-0.435
Mof_O 	O 	0.0011	0.85714	0.19996	-0.337
Mof_O 	O 	0.9224	0.94139	0.32127	-0.452
Mof_O 	O 	0.2156	0.83844	0.29594	-0.343
Mof_O 	O 	0.2614	0.87232	0.15784	-0.435
Mof_O 	O 	0.4989	0.19996	0.85714	-0.344
Mof_O 	O 	0.5776	0.32127	0.94139	-0.454
Mof_O 	O 	0.2844	0.29594	0.83844	-0.342
Mof_O 	O 	0.2386	0.15784	0.87232	-0.435
Mof_F 	F 	0.89078	0.62421	0.81367	-0.531
Mof_F 	F 	0.8641	0.59699	0.65243	-0.507
Mof_F 	F 	0.75212	0.55441	0.74665	-0.523
Mof_F 	F 	0.60922	0.81367	0.62421	-0.531
Mof_F 	F 	0.6359	0.65243	0.59699	-0.507
Mof_F 	F 	0.74788	0.74665	0.55441	-0.523
Mof_F 	F 	0.10922	0.37579	0.18633	-0.531
Mof_F 	F 	0.1359	0.40301	0.34757	-0.507
Mof_F 	F 	0.24788	0.44559	0.25335	-0.523
Mof_F 	F 	0.39078	0.18633	0.37579	-0.531
Mof_F 	F 	0.3641	0.34757	0.40301	-0.507
Mof_F 	F 	0.25212	0.25335	0.44559	-0.523
_end
