data_functionalizedCrystal
_audit_creation_method	'EQeq! by Chris Wilmer'
_symmetry_space_group_name_H-M	'P1'
_symmetry_Int_Tables_number	1
_symmetry_cell_setting	triclinic
loop_
_symmetry_equiv_pos_as_xyz
  x,y,z
_cell_length_a	12.9021
_cell_length_b	12.9021
_cell_length_c	62.407
_cell_angle_alpha	90
_cell_angle_beta	90
_cell_angle_gamma	120
loop_
_atom_site_label
_atom_site_type_symbol
_atom_site_fract_x
_atom_site_fract_y
_atom_site_fract_z
_atom_site_charge
Mof_N 	N 	0.19733	0.53141	0.02214	-0.256
Mof_C 	C 	0.104	0.47002	0.02958	0.073
Mof_C 	C 	0.89121	0.37172	0.026	0.125
Mof_C 	C 	0.99099	0.39867	0.03858	-0.098
Mof_C 	C 	0.97604	0.36629	0.0614	0.093
Mof_C 	C 	0.06059	0.34937	0.07261	-0.102
Mof_H 	H 	0.1301	0.3601	0.0654	0.054
Mof_C 	C 	0.87473	0.34969	0.07269	-0.063
Mof_H 	H 	0.8163	0.3612	0.0655	0.048
Mof_N 	N 	0.80717	0.34828	0.01595	-0.261
Mof_N 	N 	0.864	0.86474	0.35547	-0.241
Mof_C 	C 	0.77067	0.80335	0.36291	0.139
Mof_C 	C 	0.55788	0.70505	0.35933	0.133
Mof_C 	C 	0.65766	0.732	0.37191	-0.141
Mof_C 	C 	0.64271	0.69962	0.39473	0.071
Mof_C 	C 	0.72726	0.6827	0.40594	-0.069
Mof_H 	H 	0.79677	0.69343	0.39873	0.064
Mof_C 	C 	0.5414	0.68302	0.40602	-0.069
Mof_H 	H 	0.48297	0.69453	0.39883	0.052
Mof_N 	N 	0.47384	0.68161	0.34928	-0.264
Mof_N 	N 	0.53066	0.19808	0.68881	-0.269
Mof_C 	C 	0.43733	0.13669	0.69625	0.134
Mof_C 	C 	0.22454	0.03839	0.69267	0.126
Mof_C 	C 	0.32432	0.06534	0.70525	-0.181
Mof_C 	C 	0.30937	0.03296	0.72807	0.149
Mof_C 	C 	0.39392	0.01604	0.73928	-0.215
Mof_H 	H 	0.46343	0.02677	0.73207	0.091
Mof_C 	C 	0.20806	0.01636	0.73936	-0.218
Mof_H 	H 	0.14963	0.02787	0.73217	0.079
Mof_N 	N 	0.1405	0.01495	0.68262	-0.286
Mof_N 	N 	0.46859	0.66592	0.02214	-0.262
Mof_C 	C 	0.52998	0.63398	0.02958	0.132
Mof_C 	C 	0.62828	0.51949	0.026	0.134
Mof_C 	C 	0.60133	0.59232	0.03858	-0.14
Mof_C 	C 	0.63371	0.60975	0.0614	0.069
Mof_C 	C 	0.65063	0.71122	0.07261	-0.066
Mof_H 	H 	0.6399	0.77	0.0654	0.062
Mof_C 	C 	0.65031	0.52504	0.07269	-0.067
Mof_H 	H 	0.6388	0.4551	0.0655	0.05
Mof_N 	N 	0.65172	0.45889	0.01595	-0.263
Mof_N 	N 	0.13526	0.99925	0.35547	-0.254
Mof_C 	C 	0.19665	0.96731	0.36291	0.143
Mof_C 	C 	0.29495	0.85282	0.35933	0.14
Mof_C 	C 	0.268	0.92565	0.37191	-0.155
Mof_C 	C 	0.30038	0.94308	0.39473	0.121
Mof_C 	C 	0.3173	0.04455	0.40594	-0.128
Mof_H 	H 	0.30657	0.10333	0.39873	0.06
Mof_C 	C 	0.31698	0.85837	0.40602	-0.086
Mof_H 	H 	0.30547	0.78843	0.39883	0.056
Mof_N 	N 	0.31839	0.79222	0.34928	-0.265
Mof_N 	N 	0.80192	0.33259	0.68881	-0.258
Mof_C 	C 	0.86331	0.30065	0.69625	0.12
Mof_C 	C 	0.96161	0.18616	0.69267	0.123
Mof_C 	C 	0.93466	0.25899	0.70525	-0.104
Mof_C 	C 	0.96704	0.27642	0.72807	-0.021
Mof_C 	C 	0.98396	0.37789	0.73928	0.074
Mof_H 	H 	0.97323	0.43667	0.73207	0.02
Mof_C 	C 	0.98364	0.19171	0.73936	0.076
Mof_H 	H 	0.97213	0.12177	0.73217	0.005
Mof_N 	N 	0.98505	0.12556	0.68262	-0.249
Mof_N 	N 	0.33408	0.80267	0.02214	-0.274
Mof_C 	C 	0.36602	0.896	0.02958	0.179
Mof_C 	C 	0.48051	0.10879	0.026	0.131
Mof_C 	C 	0.40768	0.00901	0.03858	-0.189
Mof_C 	C 	0.39025	0.02396	0.0614	0.039
Mof_C 	C 	0.28878	0.93941	0.07261	-0.043
Mof_H 	H 	0.23	0.8699	0.0654	0.048
Mof_C 	C 	0.47496	0.12527	0.07269	-0.079
Mof_H 	H 	0.5449	0.1837	0.0655	0.052
Mof_N 	N 	0.54111	0.19283	0.01595	-0.27
Mof_N 	N 	0.00075	0.136	0.35547	-0.281
Mof_C 	C 	0.03269	0.22933	0.36291	0.103
Mof_C 	C 	0.14718	0.44212	0.35933	0.117
Mof_C 	C 	0.07435	0.34234	0.37191	-0.129
Mof_C 	C 	0.05692	0.35729	0.39473	0.009
Mof_C 	C 	0.95545	0.27274	0.40594	-0.015
Mof_H 	H 	0.89667	0.20323	0.39873	0.041
Mof_C 	C 	0.14163	0.4586	0.40602	-0.054
Mof_H 	H 	0.21157	0.51703	0.39883	0.044
Mof_N 	N 	0.20778	0.52616	0.34928	-0.264
Mof_N 	N 	0.66741	0.46934	0.68881	-0.263
Mof_C 	C 	0.69935	0.56267	0.69625	0.133
Mof_C 	C 	0.81384	0.77546	0.69267	0.141
Mof_C 	C 	0.74101	0.67568	0.70525	-0.14
Mof_C 	C 	0.72358	0.69063	0.72807	0.072
Mof_C 	C 	0.62211	0.60608	0.73928	-0.069
Mof_H 	H 	0.56333	0.53657	0.73207	0.054
Mof_C 	C 	0.80829	0.79194	0.73936	-0.065
Mof_H 	H 	0.87823	0.85037	0.73217	0.068
Mof_N 	N 	0.87444	0.8595	0.68262	-0.241
Mof_N 	N 	0.53141	0.19733	0.47786	-0.255
Mof_C 	C 	0.47002	0.104	0.47042	0.074
Mof_C 	C 	0.37172	0.89121	0.474	0.126
Mof_C 	C 	0.39867	0.99099	0.46142	-0.097
Mof_C 	C 	0.36629	0.97604	0.4386	0.094
Mof_C 	C 	0.34937	0.06059	0.42739	-0.101
Mof_H 	H 	0.3601	0.1301	0.4346	0.055
Mof_C 	C 	0.34969	0.87473	0.42731	-0.062
Mof_H 	H 	0.3612	0.8163	0.4345	0.049
Mof_N 	N 	0.34828	0.80717	0.48405	-0.26
Mof_N 	N 	0.19808	0.53066	0.81119	-0.269
Mof_C 	C 	0.13669	0.43733	0.80375	0.134
Mof_C 	C 	0.03839	0.22454	0.80733	0.126
Mof_C 	C 	0.06534	0.32432	0.79475	-0.181
Mof_C 	C 	0.03296	0.30937	0.77193	0.149
Mof_C 	C 	0.01604	0.39392	0.76072	-0.215
Mof_H 	H 	0.02677	0.46343	0.76793	0.091
Mof_C 	C 	0.01636	0.20806	0.76064	-0.218
Mof_H 	H 	0.02787	0.14963	0.76783	0.079
Mof_N 	N 	0.01495	0.1405	0.81738	-0.286
Mof_N 	N 	0.86474	0.864	0.14453	-0.24
Mof_C 	C 	0.80335	0.77067	0.13709	0.14
Mof_C 	C 	0.70505	0.55788	0.14067	0.134
Mof_C 	C 	0.732	0.65766	0.12809	-0.14
Mof_C 	C 	0.69962	0.64271	0.10527	0.072
Mof_C 	C 	0.6827	0.72726	0.09406	-0.068
Mof_H 	H 	0.69343	0.79677	0.10127	0.064
Mof_C 	C 	0.68302	0.5414	0.09398	-0.069
Mof_H 	H 	0.69453	0.48297	0.10117	0.052
Mof_N 	N 	0.68161	0.47384	0.15072	-0.264
Mof_N 	N 	0.66592	0.46859	0.47786	-0.262
Mof_C 	C 	0.63398	0.52998	0.47042	0.132
Mof_C 	C 	0.51949	0.62828	0.474	0.134
Mof_C 	C 	0.59232	0.60133	0.46142	-0.14
Mof_C 	C 	0.60975	0.63371	0.4386	0.069
Mof_C 	C 	0.71122	0.65063	0.42739	-0.066
Mof_H 	H 	0.77	0.6399	0.4346	0.062
Mof_C 	C 	0.52504	0.65031	0.42731	-0.067
Mof_H 	H 	0.4551	0.6388	0.4345	0.05
Mof_N 	N 	0.45889	0.65172	0.48405	-0.263
Mof_N 	N 	0.33259	0.80192	0.81119	-0.258
Mof_C 	C 	0.30065	0.86331	0.80375	0.12
Mof_C 	C 	0.18616	0.96161	0.80733	0.123
Mof_C 	C 	0.25899	0.93466	0.79475	-0.104
Mof_C 	C 	0.27642	0.96704	0.77193	-0.021
Mof_C 	C 	0.37789	0.98396	0.76072	0.074
Mof_H 	H 	0.43667	0.97323	0.76793	0.02
Mof_C 	C 	0.19171	0.98364	0.76064	0.076
Mof_H 	H 	0.12177	0.97213	0.76783	0.005
Mof_N 	N 	0.12556	0.98505	0.81738	-0.249
Mof_N 	N 	0.99925	0.13526	0.14453	-0.254
Mof_C 	C 	0.96731	0.19665	0.13709	0.143
Mof_C 	C 	0.85282	0.29495	0.14067	0.14
Mof_C 	C 	0.92565	0.268	0.12809	-0.155
Mof_C 	C 	0.94308	0.30038	0.10527	0.121
Mof_C 	C 	0.04455	0.3173	0.09406	-0.128
Mof_H 	H 	0.10333	0.30657	0.10127	0.06
Mof_C 	C 	0.85837	0.31698	0.09398	-0.086
Mof_H 	H 	0.78843	0.30547	0.10117	0.056
Mof_N 	N 	0.79222	0.31839	0.15072	-0.265
Mof_N 	N 	0.80267	0.33408	0.47786	-0.274
Mof_C 	C 	0.896	0.36602	0.47042	0.179
Mof_C 	C 	0.10879	0.48051	0.474	0.131
Mof_C 	C 	0.00901	0.40768	0.46142	-0.189
Mof_C 	C 	0.02396	0.39025	0.4386	0.039
Mof_C 	C 	0.93941	0.28878	0.42739	-0.043
Mof_H 	H 	0.8699	0.23	0.4346	0.048
Mof_C 	C 	0.12527	0.47496	0.42731	-0.079
Mof_H 	H 	0.1837	0.5449	0.4345	0.052
Mof_N 	N 	0.19283	0.54111	0.48405	-0.27
Mof_N 	N 	0.46934	0.66741	0.81119	-0.263
Mof_C 	C 	0.56267	0.69935	0.80375	0.133
Mof_C 	C 	0.77546	0.81384	0.80733	0.141
Mof_C 	C 	0.67568	0.74101	0.79475	-0.14
Mof_C 	C 	0.69063	0.72358	0.77193	0.072
Mof_C 	C 	0.60608	0.62211	0.76072	-0.069
Mof_H 	H 	0.53657	0.56333	0.76793	0.054
Mof_C 	C 	0.79194	0.80829	0.76064	-0.065
Mof_H 	H 	0.85037	0.87823	0.76783	0.068
Mof_N 	N 	0.8595	0.87444	0.81738	-0.241
Mof_N 	N 	0.136	0.00075	0.14453	-0.281
Mof_C 	C 	0.22933	0.03269	0.13709	0.103
Mof_C 	C 	0.44212	0.14718	0.14067	0.117
Mof_C 	C 	0.34234	0.07435	0.12809	-0.129
Mof_C 	C 	0.35729	0.05692	0.10527	0.009
Mof_C 	C 	0.27274	0.95545	0.09406	-0.015
Mof_H 	H 	0.20323	0.89667	0.10127	0.041
Mof_C 	C 	0.4586	0.14163	0.09398	-0.054
Mof_H 	H 	0.51703	0.21157	0.10117	0.044
Mof_N 	N 	0.52616	0.20778	0.15072	-0.264
Mof_N 	N 	0.80267	0.46859	0.97786	-0.272
Mof_C 	C 	0.896	0.52998	0.97042	0.181
Mof_C 	C 	0.10879	0.62828	0.974	0.134
Mof_C 	C 	0.00901	0.60133	0.96142	-0.186
Mof_C 	C 	0.02396	0.63371	0.9386	0.042
Mof_C 	C 	0.93941	0.65063	0.92739	-0.04
Mof_H 	H 	0.8699	0.6399	0.9346	0.055
Mof_C 	C 	0.12527	0.65031	0.92731	-0.076
Mof_H 	H 	0.1837	0.6388	0.9345	0.052
Mof_N 	N 	0.19283	0.65172	0.98405	-0.268
Mof_N 	N 	0.46934	0.80192	0.31119	-0.258
Mof_C 	C 	0.56267	0.86331	0.30375	0.125
Mof_C 	C 	0.77546	0.96161	0.30733	0.134
Mof_C 	C 	0.67568	0.93466	0.29475	-0.104
Mof_C 	C 	0.69063	0.96704	0.27193	-0.011
Mof_C 	C 	0.60608	0.98396	0.26072	0.068
Mof_H 	H 	0.53657	0.97323	0.26793	0.021
Mof_C 	C 	0.79194	0.98364	0.26064	0.07
Mof_H 	H 	0.85037	0.97213	0.26783	0.024
Mof_N 	N 	0.8595	0.98505	0.31738	-0.233
Mof_N 	N 	0.136	0.13526	0.64453	-0.278
Mof_C 	C 	0.22933	0.19665	0.63709	0.116
Mof_C 	C 	0.44212	0.29495	0.64067	0.126
Mof_C 	C 	0.34234	0.268	0.62809	-0.143
Mof_C 	C 	0.35729	0.30038	0.60527	0.061
Mof_C 	C 	0.27274	0.3173	0.59406	-0.071
Mof_H 	H 	0.20323	0.30657	0.60127	0.046
Mof_C 	C 	0.4586	0.31698	0.59398	-0.07
Mof_H 	H 	0.51703	0.30547	0.60117	0.049
Mof_N 	N 	0.52616	0.31839	0.65072	-0.264
Mof_N 	N 	0.53141	0.33408	0.97786	-0.266
Mof_C 	C 	0.47002	0.36602	0.97042	0.125
Mof_C 	C 	0.37172	0.48051	0.974	0.127
Mof_C 	C 	0.39867	0.40768	0.96142	-0.144
Mof_C 	C 	0.36629	0.39025	0.9386	0.065
Mof_C 	C 	0.34937	0.28878	0.92739	-0.074
Mof_H 	H 	0.3601	0.23	0.9346	0.048
Mof_C 	C 	0.34969	0.47496	0.92731	-0.072
Mof_H 	H 	0.3612	0.5449	0.9345	0.051
Mof_N 	N 	0.34828	0.54111	0.98405	-0.266
Mof_N 	N 	0.19808	0.66741	0.31119	-0.269
Mof_C 	C 	0.13669	0.69935	0.30375	0.137
Mof_C 	C 	0.03839	0.81384	0.30733	0.137
Mof_C 	C 	0.06534	0.74101	0.29475	-0.177
Mof_C 	C 	0.03296	0.72358	0.27193	0.15
Mof_C 	C 	0.01604	0.62211	0.26072	-0.207
Mof_H 	H 	0.02677	0.56333	0.26793	0.088
Mof_C 	C 	0.01636	0.80829	0.26064	-0.205
Mof_H 	H 	0.02787	0.87823	0.26783	0.095
Mof_N 	N 	0.01495	0.87444	0.31738	-0.266
Mof_N 	N 	0.86474	0.00075	0.64453	-0.261
Mof_C 	C 	0.80335	0.03269	0.63709	0.116
Mof_C 	C 	0.70505	0.14718	0.64067	0.122
Mof_C 	C 	0.732	0.07435	0.62809	-0.129
Mof_C 	C 	0.69962	0.05692	0.60527	0.018
Mof_C 	C 	0.6827	0.95545	0.59406	-0.017
Mof_H 	H 	0.69343	0.89667	0.60127	0.051
Mof_C 	C 	0.68302	0.14163	0.59398	-0.055
Mof_H 	H 	0.69453	0.21157	0.60117	0.046
Mof_N 	N 	0.68161	0.20778	0.65072	-0.264
Mof_N 	N 	0.66592	0.19733	0.97786	-0.253
Mof_C 	C 	0.63398	0.104	0.97042	0.079
Mof_C 	C 	0.51949	0.89121	0.974	0.13
Mof_C 	C 	0.59232	0.99099	0.96142	-0.096
Mof_C 	C 	0.60975	0.97604	0.9386	0.094
Mof_C 	C 	0.71122	0.06059	0.92739	-0.096
Mof_H 	H 	0.77	0.1301	0.9346	0.063
Mof_C 	C 	0.52504	0.87473	0.92731	-0.06
Mof_H 	H 	0.4551	0.8163	0.9345	0.049
Mof_N 	N 	0.45889	0.80717	0.98405	-0.258
Mof_N 	N 	0.33259	0.53066	0.31119	-0.264
Mof_C 	C 	0.30065	0.43733	0.30375	0.124
Mof_C 	C 	0.18616	0.22454	0.30733	0.118
Mof_C 	C 	0.25899	0.32432	0.29475	-0.143
Mof_C 	C 	0.27642	0.30937	0.27193	0.061
Mof_C 	C 	0.37789	0.39392	0.26072	-0.071
Mof_H 	H 	0.43667	0.46343	0.26793	0.056
Mof_C 	C 	0.19171	0.20806	0.26064	-0.074
Mof_H 	H 	0.12177	0.14963	0.26783	0.033
Mof_N 	N 	0.12556	0.1405	0.31738	-0.278
Mof_N 	N 	0.99925	0.864	0.64453	-0.237
Mof_C 	C 	0.96731	0.77067	0.63709	0.153
Mof_C 	C 	0.85282	0.55788	0.64067	0.143
Mof_C 	C 	0.92565	0.65766	0.62809	-0.153
Mof_C 	C 	0.94308	0.64271	0.60527	0.123
Mof_C 	C 	0.04455	0.72726	0.59406	-0.123
Mof_H 	H 	0.10333	0.79677	0.60127	0.069
Mof_C 	C 	0.85837	0.5414	0.59398	-0.084
Mof_H 	H 	0.78843	0.48297	0.60117	0.057
Mof_N 	N 	0.79222	0.47384	0.65072	-0.264
Mof_N 	N 	0.46859	0.80267	0.52214	-0.272
Mof_C 	C 	0.52998	0.896	0.52958	0.181
Mof_C 	C 	0.62828	0.10879	0.526	0.134
Mof_C 	C 	0.60133	0.00901	0.53858	-0.186
Mof_C 	C 	0.63371	0.02396	0.5614	0.042
Mof_C 	C 	0.65063	0.93941	0.57261	-0.04
Mof_H 	H 	0.6399	0.8699	0.5654	0.055
Mof_C 	C 	0.65031	0.12527	0.57269	-0.076
Mof_H 	H 	0.6388	0.1837	0.5655	0.052
Mof_N 	N 	0.65172	0.19283	0.51595	-0.268
Mof_N 	N 	0.13526	0.136	0.85547	-0.278
Mof_C 	C 	0.19665	0.22933	0.86291	0.116
Mof_C 	C 	0.29495	0.44212	0.85933	0.126
Mof_C 	C 	0.268	0.34234	0.87191	-0.143
Mof_C 	C 	0.30038	0.35729	0.89473	0.061
Mof_C 	C 	0.3173	0.27274	0.90594	-0.071
Mof_H 	H 	0.30657	0.20323	0.89873	0.046
Mof_C 	C 	0.31698	0.4586	0.90602	-0.07
Mof_H 	H 	0.30547	0.51703	0.89883	0.049
Mof_N 	N 	0.31839	0.52616	0.84928	-0.264
Mof_N 	N 	0.80192	0.46934	0.18881	-0.258
Mof_C 	C 	0.86331	0.56267	0.19625	0.125
Mof_C 	C 	0.96161	0.77546	0.19267	0.134
Mof_C 	C 	0.93466	0.67568	0.20525	-0.104
Mof_C 	C 	0.96704	0.69063	0.22807	-0.011
Mof_C 	C 	0.98396	0.60608	0.23928	0.068
Mof_H 	H 	0.97323	0.53657	0.23207	0.021
Mof_C 	C 	0.98364	0.79194	0.23936	0.07
Mof_H 	H 	0.97213	0.85037	0.23217	0.024
Mof_N 	N 	0.98505	0.8595	0.18262	-0.233
Mof_N 	N 	0.33408	0.53141	0.52214	-0.266
Mof_C 	C 	0.36602	0.47002	0.52958	0.125
Mof_C 	C 	0.48051	0.37172	0.526	0.127
Mof_C 	C 	0.40768	0.39867	0.53858	-0.144
Mof_C 	C 	0.39025	0.36629	0.5614	0.065
Mof_C 	C 	0.28878	0.34937	0.57261	-0.074
Mof_H 	H 	0.23	0.3601	0.5654	0.048
Mof_C 	C 	0.47496	0.34969	0.57269	-0.072
Mof_H 	H 	0.5449	0.3612	0.5655	0.051
Mof_N 	N 	0.54111	0.34828	0.51595	-0.266
Mof_N 	N 	0.00075	0.86474	0.85547	-0.261
Mof_C 	C 	0.03269	0.80335	0.86291	0.116
Mof_C 	C 	0.14718	0.70505	0.85933	0.122
Mof_C 	C 	0.07435	0.732	0.87191	-0.129
Mof_C 	C 	0.05692	0.69962	0.89473	0.018
Mof_C 	C 	0.95545	0.6827	0.90594	-0.017
Mof_H 	H 	0.89667	0.69343	0.89873	0.051
Mof_C 	C 	0.14163	0.68302	0.90602	-0.055
Mof_H 	H 	0.21157	0.69453	0.89883	0.046
Mof_N 	N 	0.20778	0.68161	0.84928	-0.264
Mof_N 	N 	0.66741	0.19808	0.18881	-0.269
Mof_C 	C 	0.69935	0.13669	0.19625	0.137
Mof_C 	C 	0.81384	0.03839	0.19267	0.137
Mof_C 	C 	0.74101	0.06534	0.20525	-0.177
Mof_C 	C 	0.72358	0.03296	0.22807	0.15
Mof_C 	C 	0.62211	0.01604	0.23928	-0.207
Mof_H 	H 	0.56333	0.02677	0.23207	0.088
Mof_C 	C 	0.80829	0.01636	0.23936	-0.205
Mof_H 	H 	0.87823	0.02787	0.23217	0.095
Mof_N 	N 	0.87444	0.01495	0.18262	-0.266
Mof_N 	N 	0.19733	0.66592	0.52214	-0.253
Mof_C 	C 	0.104	0.63398	0.52958	0.079
Mof_C 	C 	0.89121	0.51949	0.526	0.13
Mof_C 	C 	0.99099	0.59232	0.53858	-0.096
Mof_C 	C 	0.97604	0.60975	0.5614	0.094
Mof_C 	C 	0.06059	0.71122	0.57261	-0.096
Mof_H 	H 	0.1301	0.77	0.5654	0.063
Mof_C 	C 	0.87473	0.52504	0.57269	-0.06
Mof_H 	H 	0.8163	0.4551	0.5655	0.049
Mof_N 	N 	0.80717	0.45889	0.51595	-0.258
Mof_N 	N 	0.864	0.99925	0.85547	-0.237
Mof_C 	C 	0.77067	0.96731	0.86291	0.153
Mof_C 	C 	0.55788	0.85282	0.85933	0.143
Mof_C 	C 	0.65766	0.92565	0.87191	-0.153
Mof_C 	C 	0.64271	0.94308	0.89473	0.123
Mof_C 	C 	0.72726	0.04455	0.90594	-0.123
Mof_H 	H 	0.79677	0.10333	0.89873	0.069
Mof_C 	C 	0.5414	0.85837	0.90602	-0.084
Mof_H 	H 	0.48297	0.78843	0.89883	0.057
Mof_N 	N 	0.47384	0.79222	0.84928	-0.264
Mof_N 	N 	0.53066	0.33259	0.18881	-0.264
Mof_C 	C 	0.43733	0.30065	0.19625	0.124
Mof_C 	C 	0.22454	0.18616	0.19267	0.118
Mof_C 	C 	0.32432	0.25899	0.20525	-0.143
Mof_C 	C 	0.30937	0.27642	0.22807	0.061
Mof_C 	C 	0.39392	0.37789	0.23928	-0.071
Mof_H 	H 	0.46343	0.43667	0.23207	0.056
Mof_C 	C 	0.20806	0.19171	0.23936	-0.074
Mof_H 	H 	0.14963	0.12177	0.23217	0.033
Mof_N 	N 	0.1405	0.12556	0.18262	-0.278
Mof_Co	Co	0.33333	0.66667	0.00347	1.136
Mof_Co	Co	-1.12234e-32	2.24469e-32	0.3368	1.098
Mof_Co	Co	0.66667	0.33333	0.67014	1.136
Mof_Co	Co	0.66667	0.33333	0.49653	1.136
Mof_Co	Co	0.33333	0.66667	0.82986	1.136
Mof_Co	Co	-0	1.12234e-32	0.1632	1.098
Mof_Co	Co	0.66667	0.33333	0.99653	1.136
Mof_Co	Co	0.33333	0.66667	0.32986	1.136
Mof_Co	Co	-4.48937e-32	4.48937e-32	0.6632	1.098
Mof_Co	Co	0.33333	0.66667	0.50347	1.136
Mof_Co	Co	-0	0	0.8368	1.098
Mof_Co	Co	0.66667	0.33333	0.17014	1.136
_end
