data_functionalizedCrystal
_audit_creation_method	'EQeq! by Chris Wilmer'
_symmetry_space_group_name_H-M	'P1'
_symmetry_Int_Tables_number	1
_symmetry_cell_setting	triclinic
loop_
_symmetry_equiv_pos_as_xyz
  x,y,z
_cell_length_a	5.1634
_cell_length_b	10.5518
_cell_length_c	15.4849
_cell_angle_alpha	82.725
_cell_angle_beta	87.233
_cell_angle_gamma	83.782
loop_
_atom_site_label
_atom_site_type_symbol
_atom_site_fract_x
_atom_site_fract_y
_atom_site_fract_z
_atom_site_charge
Mof_C 	C 	0.9816	0.63204	0.48961	0.008
Mof_H 	H 	0.968	0.7232	0.4825	0.049
Mof_C 	C 	0.079	0.56551	0.56708	-0.077
Mof_C 	C 	0.0964	0.42991	0.57756	0.006
Mof_C 	C 	0.1632	0.63861	0.63556	0.099
Mof_C 	C 	0.3936	0.59906	0.67911	-0.132
Mof_H 	H 	0.5079	0.5296	0.6613	0.085
Mof_C 	C 	0.4577	0.65997	0.74811	0.061
Mof_H 	H 	0.6145	0.6316	0.7776	0.049
Mof_C 	C 	0.2931	0.76268	0.77439	-0.114
Mof_C 	C 	0.0057	0.74619	0.65917	-0.173
Mof_H 	H 	0.8541	0.7776	0.6275	0.122
Mof_C 	C 	0.3462	0.82156	0.85355	0.437
Mof_C 	C 	0.1829	0.35172	0.66021	0.087
Mof_C 	C 	0.4074	0.26414	0.66115	-0.153
Mof_H 	H 	0.4985	0.2489	0.6081	0.075
Mof_C 	C 	0.497	0.19948	0.73972	0.072
Mof_H 	H 	0.6532	0.1429	0.7402	0.004
Mof_C 	C 	0.3602	0.21695	0.81746	-0.165
Mof_C 	C 	0.1293	0.29847	0.81602	0.106
Mof_H 	H 	0.0298	0.3077	0.8685	0.011
Mof_C 	C 	0.0442	0.36617	0.73819	-0.215
Mof_H 	H 	0.8888	0.4233	0.7381	0.138
Mof_C 	C 	0.4648	0.15454	0.903	0.383
Mof_O 	O 	0.6989	0.11281	0.90574	-0.372
Mof_O 	O 	0.3052	0.15016	0.96937	-0.36
Mof_O 	O 	0.1872	0.90057	0.88373	-0.353
Mof_O 	O 	0.5719	0.78049	0.88679	-0.476
Mof_H 	H 	0.5898	0.817	0.931	0.342
Mof_C 	C 	0.0691	0.80746	0.72851	0.025
Mof_H 	H 	0.9598	0.8797	0.7446	0.088
Mof_C 	C 	0.0184	0.36796	0.51039	-0.132
Mof_H 	H 	0.032	0.2768	0.5175	0.05
Mof_C 	C 	0.921	0.43449	0.43292	0.051
Mof_C 	C 	0.9036	0.57009	0.42244	-0.029
Mof_C 	C 	0.8368	0.36139	0.36444	0.041
Mof_C 	C 	0.6064	0.40094	0.32089	-0.121
Mof_H 	H 	0.4921	0.4704	0.3387	0.07
Mof_C 	C 	0.5423	0.34003	0.25189	0.068
Mof_H 	H 	0.3855	0.3684	0.2224	0.018
Mof_C 	C 	0.7069	0.23732	0.22561	-0.176
Mof_C 	C 	0.9943	0.25381	0.34083	-0.077
Mof_H 	H 	0.1459	0.2224	0.3725	0.022
Mof_C 	C 	0.6538	0.17844	0.14645	0.44
Mof_C 	C 	0.8171	0.64828	0.33979	0.039
Mof_C 	C 	0.5926	0.73586	0.33885	-0.093
Mof_H 	H 	0.5015	0.7511	0.3919	0.07
Mof_C 	C 	0.503	0.80052	0.26028	0.034
Mof_H 	H 	0.3468	0.8571	0.2598	0.048
Mof_C 	C 	0.6398	0.78305	0.18254	-0.098
Mof_C 	C 	0.8707	0.70153	0.18398	0.007
Mof_H 	H 	0.9702	0.6923	0.1315	0.049
Mof_C 	C 	0.9558	0.63383	0.26181	-0.015
Mof_H 	H 	0.1112	0.5767	0.2619	0.011
Mof_C 	C 	0.5352	0.84546	0.097	0.385
Mof_O 	O 	0.3011	0.88719	0.09426	-0.382
Mof_O 	O 	0.6948	0.84984	0.03063	-0.408
Mof_O 	O 	0.8128	0.09943	0.11627	-0.446
Mof_O 	O 	0.4281	0.21951	0.11321	-0.507
Mof_H 	H 	0.4102	0.183	0.069	0.255
Mof_C 	C 	0.9309	0.19254	0.27149	0.123
Mof_H 	H 	0.0402	0.1203	0.2554	-0.048
Mof_Ca	Ca	-0	0	-0	1.094
_end
