data_functionalizedCrystal
_audit_creation_method	'EQeq! by Chris Wilmer'
_symmetry_space_group_name_H-M	'P1'
_symmetry_Int_Tables_number	1
_symmetry_cell_setting	triclinic
loop_
_symmetry_equiv_pos_as_xyz
  x,y,z
_cell_length_a	19.0306
_cell_length_b	19.0306
_cell_length_c	36.2445
_cell_angle_alpha	90
_cell_angle_beta	90
_cell_angle_gamma	120
loop_
_atom_site_label
_atom_site_type_symbol
_atom_site_fract_x
_atom_site_fract_y
_atom_site_fract_z
_atom_site_charge
Mof_Zn	Zn	0.51999	0.48	0.9634	1.218
Mof_Zn	Zn	0.48001	0.52	0.4634	1.218
Mof_Zn	Zn	0.51999	0.03998	0.9634	1.218
Mof_Zn	Zn	0.48001	0.96002	0.0366	1.218
Mof_Zn	Zn	0.96001	0.48	0.9634	1.218
Mof_Zn	Zn	0.48001	0.96002	0.4634	1.218
Mof_Zn	Zn	0.48001	0.52	0.0366	1.218
Mof_Zn	Zn	0.51999	0.03998	0.5366	1.218
Mof_Zn	Zn	0.51999	0.48	0.5366	1.218
Mof_Zn	Zn	0.03999	0.52	0.4634	1.218
Mof_Zn	Zn	0.96001	0.48	0.5366	1.218
Mof_Zn	Zn	0.03999	0.52	0.0366	1.218
Mof_Cr	Cr	0.72483	0.27517	0.75	2.104
Mof_Cr	Cr	0.44966	0.72483	0.25	2.104
Mof_Cr	Cr	0.27517	0.55034	0.25	2.104
Mof_Cr	Cr	0.27517	0.72483	0.25	2.103
Mof_Cr	Cr	0.72483	0.44966	0.75	2.104
Mof_Cr	Cr	0.55034	0.27517	0.75	2.103
Mof_H 	H 	0.2612	0.8721	0.9121	0.055
Mof_H 	H 	0.8721	0.2612	0.4121	0.055
Mof_H 	H 	0.1279	0.7388	0.5879	0.055
Mof_H 	H 	0.7388	0.1279	0.4121	0.055
Mof_H 	H 	0.5351	0.6732	0.3467	0.038
Mof_H 	H 	0.0841	0.4408	0.4053	0.022
Mof_H 	H 	0.6732	0.5351	0.8467	0.038
Mof_H 	H 	0.7388	0.6109	0.0879	0.054
Mof_H 	H 	0.6732	0.1381	0.8467	0.038
Mof_H 	H 	0.2612	0.3891	0.9121	0.054
Mof_H 	H 	0.4408	0.0841	0.9053	0.022
Mof_H 	H 	0.1381	0.4649	0.3467	0.038
Mof_H 	H 	0.3567	0.9159	0.0947	0.022
Mof_H 	H 	0.0841	0.6433	0.0947	0.022
Mof_H 	H 	0.5592	0.6433	0.0947	0.022
Mof_H 	H 	0.6109	0.8721	0.9121	0.055
Mof_H 	H 	0.9159	0.5592	0.9053	0.022
Mof_H 	H 	0.1279	0.7388	0.9121	0.055
Mof_H 	H 	0.3268	0.8619	0.1533	0.038
Mof_H 	H 	0.3268	0.4649	0.1533	0.038
Mof_H 	H 	0.3268	0.4649	0.3467	0.038
Mof_H 	H 	0.3268	0.8619	0.3467	0.038
Mof_H 	H 	0.1381	0.6732	0.1533	0.038
Mof_H 	H 	0.1381	0.6732	0.3467	0.038
Mof_H 	H 	0.6433	0.5592	0.5947	0.022
Mof_H 	H 	0.0841	0.6433	0.4053	0.022
Mof_H 	H 	0.4408	0.3567	0.9053	0.022
Mof_H 	H 	0.3567	0.9159	0.4053	0.022
Mof_H 	H 	0.8619	0.3268	0.6533	0.038
Mof_H 	H 	0.7388	0.6109	0.4121	0.054
Mof_H 	H 	0.6732	0.1381	0.6533	0.038
Mof_H 	H 	0.4649	0.1381	0.8467	0.038
Mof_H 	H 	0.0841	0.4408	0.0947	0.022
Mof_H 	H 	0.5351	0.6732	0.1533	0.038
Mof_H 	H 	0.8619	0.3268	0.8467	0.038
Mof_H 	H 	0.7388	0.1279	0.0879	0.055
Mof_H 	H 	0.8721	0.2612	0.0879	0.055
Mof_H 	H 	0.6109	0.7388	0.5879	0.054
Mof_H 	H 	0.6109	0.7388	0.9121	0.054
Mof_H 	H 	0.9159	0.3567	0.9053	0.022
Mof_H 	H 	0.9159	0.3567	0.5947	0.022
Mof_H 	H 	0.3567	0.4408	0.4053	0.022
Mof_H 	H 	0.5592	0.9159	0.0947	0.022
Mof_H 	H 	0.3891	0.2612	0.4121	0.054
Mof_H 	H 	0.5592	0.6433	0.4053	0.022
Mof_H 	H 	0.8721	0.6109	0.0879	0.055
Mof_H 	H 	0.4649	0.3268	0.6533	0.038
Mof_H 	H 	0.5351	0.8619	0.3467	0.038
Mof_H 	H 	0.4408	0.0841	0.5947	0.022
Mof_H 	H 	0.6109	0.8721	0.5879	0.055
Mof_H 	H 	0.3891	0.1279	0.0879	0.055
Mof_H 	H 	0.6433	0.0841	0.5947	0.022
Mof_H 	H 	0.6732	0.5351	0.6533	0.038
Mof_H 	H 	0.3891	0.1279	0.4121	0.055
Mof_H 	H 	0.6433	0.0841	0.9053	0.022
Mof_H 	H 	0.2612	0.8721	0.5879	0.055
Mof_H 	H 	0.5351	0.8619	0.1533	0.038
Mof_H 	H 	0.4408	0.3567	0.5947	0.022
Mof_H 	H 	0.9159	0.5592	0.5947	0.022
Mof_H 	H 	0.8619	0.5351	0.8467	0.038
Mof_H 	H 	0.8721	0.6109	0.4121	0.055
Mof_H 	H 	0.2612	0.3891	0.5879	0.054
Mof_H 	H 	0.1381	0.4649	0.1533	0.038
Mof_H 	H 	0.8619	0.5351	0.6533	0.038
Mof_H 	H 	0.1279	0.3891	0.9121	0.055
Mof_H 	H 	0.1279	0.3891	0.5879	0.055
Mof_H 	H 	0.4649	0.3268	0.8467	0.038
Mof_H 	H 	0.3891	0.2612	0.0879	0.054
Mof_H 	H 	0.5592	0.9159	0.4053	0.022
Mof_H 	H 	0.6433	0.5592	0.9053	0.022
Mof_H 	H 	0.3567	0.4408	0.0947	0.022
Mof_H 	H 	0.4649	0.1381	0.6533	0.038
Mof_C 	C 	0.90399	0.51055	0.60657	0.02
Mof_C 	C 	0.5926	0.75908	0.56886	-0.034
Mof_C 	C 	0.51055	0.90399	0.39343	0.02
Mof_C 	C 	0.39344	0.48945	0.10657	0.02
Mof_C 	C 	0.8382	0.56137	0.03636	0.017
Mof_C 	C 	0.42795	0.8559	0.3404	-0.145
Mof_C 	C 	0.50316	0.37532	0.85816	0.006
Mof_C 	C 	0.62468	0.12784	0.64184	0.006
Mof_C 	C 	0.49684	0.62468	0.14184	0.006
Mof_C 	C 	0.09601	0.60656	0.39343	0.02
Mof_C 	C 	0.35557	0.45736	0.52091	0.368
Mof_C 	C 	0.5926	0.83352	0.56886	-0.034
Mof_C 	C 	0.48945	0.09601	0.60657	0.02
Mof_C 	C 	0.54264	0.89821	0.52091	0.368
Mof_C 	C 	0.35557	0.45736	0.97909	0.368
Mof_C 	C 	0.37532	0.50316	0.35816	0.006
Mof_C 	C 	0.54264	0.89821	0.97909	0.369
Mof_C 	C 	0.10179	0.64443	0.97909	0.369
Mof_C 	C 	0.50316	0.37532	0.64184	0.006
Mof_C 	C 	0.56137	0.8382	0.53636	0.017
Mof_C 	C 	0.45736	0.35557	0.47909	0.368
Mof_C 	C 	0.60656	0.09601	0.89343	0.02
Mof_C 	C 	0.57205	0.42795	0.8404	-0.145
Mof_C 	C 	0.10179	0.64443	0.52091	0.368
Mof_C 	C 	0.45736	0.10179	0.02091	0.369
Mof_C 	C 	0.12784	0.62468	0.35816	0.006
Mof_C 	C 	0.89821	0.35557	0.47909	0.368
Mof_C 	C 	0.24092	0.4074	0.56886	-0.034
Mof_C 	C 	0.43863	0.27683	0.46364	0.017
Mof_C 	C 	0.51055	0.60656	0.39343	0.02
Mof_C 	C 	0.37532	0.87216	0.35816	0.006
Mof_C 	C 	0.57205	0.1441	0.6596	-0.145
Mof_C 	C 	0.37532	0.87216	0.14184	0.006
Mof_C 	C 	0.51055	0.60656	0.10657	0.02
Mof_C 	C 	0.89821	0.35557	0.02091	0.369
Mof_C 	C 	0.27683	0.43863	0.96364	0.017
Mof_C 	C 	0.16648	0.75908	0.93114	-0.034
Mof_C 	C 	0.43863	0.27683	0.03636	0.017
Mof_C 	C 	0.48945	0.39344	0.89343	0.02
Mof_C 	C 	0.50316	0.12784	0.85816	0.006
Mof_C 	C 	0.37532	0.50316	0.14184	0.006
Mof_C 	C 	0.16648	0.4074	0.93114	-0.034
Mof_C 	C 	0.48945	0.09601	0.89343	0.02
Mof_C 	C 	0.40724	0.81448	0.19661	0.576
Mof_C 	C 	0.09601	0.60656	0.10657	0.02
Mof_C 	C 	0.64443	0.54264	0.47909	0.368
Mof_C 	C 	0.49684	0.62468	0.35816	0.006
Mof_C 	C 	0.1618	0.43863	0.53636	0.017
Mof_C 	C 	0.42795	0.8559	0.1596	-0.145
Mof_C 	C 	0.16648	0.4074	0.56886	-0.034
Mof_C 	C 	0.8382	0.56137	0.46364	0.017
Mof_C 	C 	0.12784	0.62468	0.14184	0.006
Mof_C 	C 	0.39344	0.48945	0.39343	0.02
Mof_C 	C 	0.51055	0.90399	0.10657	0.02
Mof_C 	C 	0.81448	0.40724	0.80339	0.576
Mof_C 	C 	0.5926	0.83352	0.93114	-0.034
Mof_C 	C 	0.49684	0.87216	0.35816	0.006
Mof_C 	C 	0.09601	0.48945	0.39343	0.02
Mof_C 	C 	0.45736	0.10179	0.47909	0.368
Mof_C 	C 	0.60656	0.51055	0.60657	0.02
Mof_C 	C 	0.57205	0.42795	0.6596	-0.145
Mof_C 	C 	0.83352	0.24092	0.43114	-0.034
Mof_C 	C 	0.18552	0.59276	0.19661	0.576
Mof_C 	C 	0.75908	0.5926	0.06886	-0.034
Mof_C 	C 	0.59276	0.18552	0.69661	0.576
Mof_C 	C 	0.72317	0.1618	0.46364	0.017
Mof_C 	C 	0.24092	0.4074	0.93114	-0.034
Mof_C 	C 	0.4074	0.16648	0.06886	-0.034
Mof_C 	C 	0.45736	0.35557	0.02091	0.368
Mof_C 	C 	0.87216	0.37532	0.85816	0.006
Mof_C 	C 	0.83352	0.5926	0.43114	-0.034
Mof_C 	C 	0.87216	0.49684	0.64184	0.006
Mof_C 	C 	0.42795	0.57205	0.3404	-0.145
Mof_C 	C 	0.40724	0.81448	0.30339	0.576
Mof_C 	C 	0.1441	0.57205	0.1596	-0.145
Mof_C 	C 	0.8559	0.42795	0.6596	-0.145
Mof_C 	C 	0.60656	0.09601	0.60657	0.02
Mof_C 	C 	0.5926	0.75908	0.93114	-0.034
Mof_C 	C 	0.43863	0.1618	0.46364	0.017
Mof_C 	C 	0.12784	0.50316	0.35816	0.006
Mof_C 	C 	0.56137	0.72317	0.53636	0.017
Mof_C 	C 	0.75908	0.16648	0.43114	-0.034
Mof_C 	C 	0.87216	0.37532	0.64184	0.006
Mof_C 	C 	0.56137	0.72317	0.96364	0.017
Mof_C 	C 	0.72317	0.56137	0.46364	0.017
Mof_C 	C 	0.10179	0.45736	0.52091	0.368
Mof_C 	C 	0.50316	0.12784	0.64184	0.006
Mof_C 	C 	0.89821	0.54264	0.47909	0.368
Mof_C 	C 	0.90399	0.51055	0.89343	0.02
Mof_C 	C 	0.40724	0.59276	0.19661	0.576
Mof_C 	C 	0.62468	0.49684	0.64184	0.006
Mof_C 	C 	0.64443	0.54264	0.02091	0.368
Mof_C 	C 	0.62468	0.12784	0.85816	0.006
Mof_C 	C 	0.8382	0.27683	0.46364	0.017
Mof_C 	C 	0.39344	0.90399	0.10657	0.02
Mof_C 	C 	0.4074	0.24092	0.43114	-0.034
Mof_C 	C 	0.35557	0.89821	0.52091	0.368
Mof_C 	C 	0.4074	0.24092	0.06886	-0.034
Mof_C 	C 	0.39344	0.90399	0.39343	0.02
Mof_C 	C 	0.8382	0.27683	0.03636	0.017
Mof_C 	C 	0.40724	0.59276	0.30339	0.576
Mof_C 	C 	0.60656	0.51055	0.89343	0.02
Mof_C 	C 	0.27683	0.8382	0.53636	0.017
Mof_C 	C 	0.24092	0.83352	0.56886	-0.034
Mof_C 	C 	0.81448	0.40724	0.69661	0.576
Mof_C 	C 	0.89821	0.54264	0.02091	0.369
Mof_C 	C 	0.59276	0.40724	0.80339	0.576
Mof_C 	C 	0.72317	0.56137	0.03636	0.017
Mof_C 	C 	0.1618	0.43863	0.96364	0.017
Mof_C 	C 	0.90399	0.39344	0.89343	0.02
Mof_C 	C 	0.59276	0.18552	0.80339	0.576
Mof_C 	C 	0.62468	0.49684	0.85816	0.006
Mof_C 	C 	0.75908	0.16648	0.06886	-0.034
Mof_C 	C 	0.1618	0.72317	0.53636	0.017
Mof_C 	C 	0.12784	0.50316	0.14184	0.006
Mof_C 	C 	0.43863	0.1618	0.03636	0.017
Mof_C 	C 	0.1618	0.72317	0.96364	0.017
Mof_C 	C 	0.8559	0.42795	0.8404	-0.145
Mof_C 	C 	0.59276	0.40724	0.69661	0.576
Mof_C 	C 	0.1441	0.57205	0.3404	-0.145
Mof_C 	C 	0.10179	0.45736	0.97909	0.369
Mof_C 	C 	0.27683	0.8382	0.96364	0.017
Mof_C 	C 	0.48945	0.39344	0.60657	0.02
Mof_C 	C 	0.90399	0.39344	0.60657	0.02
Mof_C 	C 	0.64443	0.10179	0.02091	0.369
Mof_C 	C 	0.27683	0.43863	0.53636	0.017
Mof_C 	C 	0.42795	0.57205	0.1596	-0.145
Mof_C 	C 	0.35557	0.89821	0.97909	0.369
Mof_C 	C 	0.83352	0.5926	0.06886	-0.034
Mof_C 	C 	0.87216	0.49684	0.85816	0.006
Mof_C 	C 	0.16648	0.75908	0.56886	-0.034
Mof_C 	C 	0.57205	0.1441	0.8404	-0.145
Mof_C 	C 	0.4074	0.16648	0.43114	-0.034
Mof_C 	C 	0.72317	0.1618	0.03636	0.017
Mof_C 	C 	0.64443	0.10179	0.47909	0.368
Mof_C 	C 	0.24092	0.83352	0.93114	-0.034
Mof_C 	C 	0.54264	0.64443	0.52091	0.368
Mof_C 	C 	0.75908	0.5926	0.43114	-0.034
Mof_C 	C 	0.18552	0.59276	0.30339	0.576
Mof_C 	C 	0.83352	0.24092	0.06886	-0.034
Mof_C 	C 	0.54264	0.64443	0.97909	0.368
Mof_C 	C 	0.56137	0.8382	0.96364	0.017
Mof_C 	C 	0.09601	0.48945	0.10657	0.02
Mof_C 	C 	0.49684	0.87216	0.14184	0.006
Mof_N 	N 	0.54088	0.45912	0.91103	-0.229
Mof_N 	N 	0.45912	0.91824	0.41103	-0.229
Mof_N 	N 	0.45912	0.91824	0.08897	-0.229
Mof_N 	N 	0.54088	0.08176	0.91103	-0.229
Mof_N 	N 	0.08176	0.54088	0.08897	-0.229
Mof_N 	N 	0.45912	0.54088	0.08897	-0.229
Mof_N 	N 	0.91824	0.45912	0.58897	-0.229
Mof_N 	N 	0.91824	0.45912	0.91103	-0.229
Mof_N 	N 	0.54088	0.45912	0.58897	-0.229
Mof_N 	N 	0.45912	0.54088	0.41103	-0.229
Mof_N 	N 	0.08176	0.54088	0.41103	-0.229
Mof_N 	N 	0.54088	0.08176	0.58897	-0.229
Mof_O 	O 	0.88953	0.51814	0.98857	-0.435
Mof_O 	O 	0.37139	0.48186	0.48857	-0.434
Mof_O 	O 	0.88953	0.51814	0.51143	-0.434
Mof_O 	O 	0.79955	0.45861	0.71038	-0.674
Mof_O 	O 	0.59899	0.55247	0.0428	-0.454
Mof_O 	O 	0.11047	0.62861	0.48857	-0.434
Mof_O 	O 	0.79955	0.45861	0.78962	-0.674
Mof_O 	O 	0.65906	0.20045	0.71038	-0.674
Mof_O 	O 	0.45861	0.79955	0.21038	-0.674
Mof_O 	O 	0.34094	0.79955	0.21038	-0.674
Mof_O 	O 	0.51814	0.88953	0.48857	-0.434
Mof_O 	O 	0.45764	0.22882	0.48449	-0.141
Mof_O 	O 	0.20045	0.65906	0.21038	-0.674
Mof_O 	O 	0.77118	0.22882	0.01551	-0.141
Mof_O 	O 	0.54139	0.34094	0.78962	-0.674
Mof_O 	O 	0.62861	0.51814	0.51143	-0.434
Mof_O 	O 	0.51814	0.62861	0.48857	-0.434
Mof_O 	O 	0.48186	0.11047	0.51143	-0.434
Mof_O 	O 	0.62861	0.11047	0.51143	-0.434
Mof_O 	O 	0.62861	0.11047	0.98857	-0.435
Mof_O 	O 	0.22882	0.77118	0.98449	-0.141
Mof_O 	O 	0.33333	0.66666	0.25	-1.139
Mof_O 	O 	0.20045	0.65906	0.28962	-0.674
Mof_O 	O 	0.45764	0.22882	0.01551	-0.141
Mof_O 	O 	0.51814	0.88953	0.01143	-0.435
Mof_O 	O 	0.34094	0.79955	0.28962	-0.674
Mof_O 	O 	0.45861	0.79955	0.28962	-0.674
Mof_O 	O 	0.11047	0.62861	0.01143	-0.435
Mof_O 	O 	0.04652	0.44753	0.9572	-0.454
Mof_O 	O 	0.59899	0.55247	0.4572	-0.454
Mof_O 	O 	0.37139	0.48186	0.01143	-0.435
Mof_O 	O 	0.65906	0.20045	0.78962	-0.674
Mof_O 	O 	0.88953	0.37139	0.98857	-0.435
Mof_O 	O 	0.66667	0.33334	0.75	-1.139
Mof_O 	O 	0.44753	0.40101	0.4572	-0.454
Mof_O 	O 	0.48186	0.11047	0.98857	-0.435
Mof_O 	O 	0.34094	0.54139	0.28962	-0.674
Mof_O 	O 	0.11047	0.48186	0.01143	-0.435
Mof_O 	O 	0.59899	0.04652	0.0428	-0.454
Mof_O 	O 	0.04652	0.44753	0.5428	-0.454
Mof_O 	O 	0.54236	0.77118	0.51551	-0.141
Mof_O 	O 	0.77118	0.22882	0.48449	-0.141
Mof_O 	O 	0.95348	0.40101	0.0428	-0.454
Mof_O 	O 	0.79955	0.34094	0.78962	-0.674
Mof_O 	O 	0.95348	0.55247	0.0428	-0.454
Mof_O 	O 	0.79955	0.34094	0.71038	-0.674
Mof_O 	O 	0.55247	0.95348	0.5428	-0.454
Mof_O 	O 	0.77118	0.54236	0.48449	-0.141
Mof_O 	O 	0.48186	0.37139	0.98857	-0.435
Mof_O 	O 	0.20045	0.54139	0.21038	-0.674
Mof_O 	O 	0.54139	0.34094	0.71038	-0.674
Mof_O 	O 	0.44753	0.04652	0.0428	-0.454
Mof_O 	O 	0.45861	0.65906	0.28962	-0.674
Mof_O 	O 	0.37139	0.88953	0.48857	-0.434
Mof_O 	O 	0.37139	0.88953	0.01143	-0.435
Mof_O 	O 	0.48186	0.37139	0.51143	-0.434
Mof_O 	O 	0.54139	0.20045	0.71038	-0.674
Mof_O 	O 	0.45861	0.65906	0.21038	-0.674
Mof_O 	O 	0.44753	0.04652	0.4572	-0.454
Mof_O 	O 	0.54139	0.20045	0.78962	-0.674
Mof_O 	O 	0.20045	0.54139	0.28962	-0.674
Mof_O 	O 	0.40101	0.95348	0.9572	-0.454
Mof_O 	O 	0.22882	0.45764	0.51551	-0.141
Mof_O 	O 	0.95348	0.55247	0.4572	-0.454
Mof_O 	O 	0.88953	0.37139	0.51143	-0.434
Mof_O 	O 	0.51814	0.62861	0.01143	-0.435
Mof_O 	O 	0.65906	0.45861	0.78962	-0.674
Mof_O 	O 	0.04652	0.59899	0.9572	-0.454
Mof_O 	O 	0.62861	0.51814	0.98857	-0.435
Mof_O 	O 	0.65906	0.45861	0.71038	-0.674
Mof_O 	O 	0.55247	0.95348	0.9572	-0.454
Mof_O 	O 	0.22882	0.45764	0.98449	-0.141
Mof_O 	O 	0.55247	0.59899	0.9572	-0.454
Mof_O 	O 	0.59899	0.04652	0.4572	-0.454
Mof_O 	O 	0.95348	0.40101	0.4572	-0.454
Mof_O 	O 	0.11047	0.48186	0.48857	-0.434
Mof_O 	O 	0.04652	0.59899	0.5428	-0.454
Mof_O 	O 	0.34094	0.54139	0.21038	-0.674
Mof_O 	O 	0.77118	0.54236	0.01551	-0.141
Mof_O 	O 	0.54236	0.77118	0.98449	-0.141
Mof_O 	O 	0.40101	0.44753	0.5428	-0.454
Mof_O 	O 	0.22882	0.77118	0.51551	-0.141
Mof_O 	O 	0.40101	0.44753	0.9572	-0.454
Mof_O 	O 	0.44753	0.40101	0.0428	-0.454
Mof_O 	O 	0.55247	0.59899	0.5428	-0.454
Mof_O 	O 	0.40101	0.95348	0.5428	-0.454
_end
