data_functionalizedCrystal
_audit_creation_method	'EQeq! by Chris Wilmer'
_symmetry_space_group_name_H-M	'P1'
_symmetry_Int_Tables_number	1
_symmetry_cell_setting	triclinic
loop_
_symmetry_equiv_pos_as_xyz
  x,y,z
_cell_length_a	14.3172
_cell_length_b	17.4017
_cell_length_c	7.3334
_cell_angle_alpha	90
_cell_angle_beta	90
_cell_angle_gamma	90
loop_
_atom_site_label
_atom_site_type_symbol
_atom_site_fract_x
_atom_site_fract_y
_atom_site_fract_z
_atom_site_charge
Mof_N 	N 	0.14629	0.77259	0.28825	-0.184
Mof_C 	C 	0.09592	0.77831	0.16875	0.12
Mof_N 	N 	0.64629	0.27259	0.28825	-0.184
Mof_C 	C 	0.59592	0.27831	0.16875	0.122
Mof_N 	N 	0.85371	0.22741	0.28825	-0.185
Mof_C 	C 	0.90408	0.22169	0.16875	0.123
Mof_N 	N 	0.35371	0.72741	0.28825	-0.185
Mof_C 	C 	0.40408	0.72169	0.16875	0.121
Mof_N 	N 	0.85371	0.77259	0.71175	-0.184
Mof_C 	C 	0.90408	0.77831	0.83125	0.099
Mof_N 	N 	0.35371	0.27259	0.71175	-0.183
Mof_C 	C 	0.40408	0.27831	0.83125	0.101
Mof_N 	N 	0.14629	0.22741	0.71175	-0.182
Mof_C 	C 	0.09592	0.22169	0.83125	0.102
Mof_N 	N 	0.64629	0.72741	0.71175	-0.183
Mof_C 	C 	0.59592	0.72169	0.83125	0.1
Mof_N 	N 	0.85371	0.22741	0.71175	-0.183
Mof_C 	C 	0.90408	0.22169	0.83125	0.102
Mof_N 	N 	0.35371	0.72741	0.71175	-0.183
Mof_C 	C 	0.40408	0.72169	0.83125	0.1
Mof_N 	N 	0.14629	0.77259	0.71175	-0.183
Mof_C 	C 	0.09592	0.77831	0.83125	0.099
Mof_N 	N 	0.64629	0.27259	0.71175	-0.183
Mof_C 	C 	0.59592	0.27831	0.83125	0.101
Mof_N 	N 	0.14629	0.22741	0.28825	-0.184
Mof_C 	C 	0.09592	0.22169	0.16875	0.122
Mof_N 	N 	0.64629	0.72741	0.28825	-0.185
Mof_C 	C 	0.59592	0.72169	0.16875	0.121
Mof_N 	N 	0.85371	0.77259	0.28825	-0.185
Mof_C 	C 	0.90408	0.77831	0.16875	0.12
Mof_N 	N 	0.35371	0.27259	0.28825	-0.184
Mof_C 	C 	0.40408	0.27831	0.16875	0.122
Mof_Fe	Fe	0.25	0.75	0.5	0.684
Mof_Fe	Fe	0.75	0.25	0.5	0.686
Mof_Fe	Fe	0.75	0.75	0.5	0.683
Mof_Fe	Fe	0.25	0.25	0.5	0.687
Mof_C 	C 	0.04708	0.78213	-0	-0.043
Mof_C 	C 	0.54708	0.28213	-0	-0.047
Mof_C 	C 	0.95292	0.21787	-0	-0.053
Mof_C 	C 	0.45292	0.71787	-0	-0.048
Mof_C 	C 	0.95292	0.78213	-0	-0.054
Mof_C 	C 	0.45292	0.28213	-0	-0.048
Mof_C 	C 	0.04708	0.21787	-0	-0.042
Mof_C 	C 	0.54708	0.71787	-0	-0.048
Mof_N 	N 	4.75492e-33	0.37912	0.2277	-0.13
Mof_C 	C 	5.70382e-34	0.43124	0.297	0.112
Mof_N 	N 	0.5	0.87912	0.2277	-0.127
Mof_C 	C 	0.5	0.93124	0.297	0.096
Mof_N 	N 	1.30082e-33	0.62088	0.2277	-0.129
Mof_C 	C 	-6.33782e-33	0.56876	0.297	0.112
Mof_N 	N 	0.5	0.12088	0.2277	-0.129
Mof_C 	C 	0.5	0.06876	0.297	0.112
Mof_N 	N 	8.39139e-33	0.37912	0.7723	-0.135
Mof_C 	C 	4.8042e-33	0.43124	0.703	0.107
Mof_N 	N 	0.5	0.87912	0.7723	-0.133
Mof_C 	C 	0.5	0.93124	0.703	0.09
Mof_N 	N 	1.18455e-32	0.62088	0.7723	-0.135
Mof_C 	C 	-2.10401e-33	0.56876	0.703	0.107
Mof_N 	N 	0.5	0.12088	0.7723	-0.135
Mof_C 	C 	0.5	0.06876	0.703	0.106
Mof_C 	C 	0.03938	0.5	0.424	-0.009
Mof_C 	C 	0.53938	-1.72705e-33	0.424	-0.01
Mof_C 	C 	0.96062	0.5	0.424	-0.021
Mof_C 	C 	0.46062	-1.72705e-33	0.424	-0.01
Mof_C 	C 	0.96062	0.5	0.576	-0.022
Mof_C 	C 	0.46062	1.72705e-33	0.576	-0.011
Mof_C 	C 	0.03938	0.5	0.576	-0.01
Mof_C 	C 	0.53938	1.72705e-33	0.576	-0.011
Mof_N 	N 	0.21135	0.62998	0.5	-0.199
Mof_C 	C 	0.18401	0.56999	0.5	0.145
Mof_N 	N 	0.71135	0.12998	0.5	-0.197
Mof_C 	C 	0.68401	0.06999	0.5	0.141
Mof_N 	N 	0.78865	0.37002	0.5	-0.198
Mof_C 	C 	0.81599	0.43001	0.5	0.141
Mof_N 	N 	0.28865	0.87002	0.5	-0.195
Mof_C 	C 	0.31599	0.93001	0.5	0.126
Mof_N 	N 	0.78865	0.62998	0.5	-0.198
Mof_C 	C 	0.81599	0.56999	0.5	0.141
Mof_N 	N 	0.28865	0.12998	0.5	-0.196
Mof_C 	C 	0.31599	0.06999	0.5	0.142
Mof_N 	N 	0.21135	0.37002	0.5	-0.199
Mof_C 	C 	0.18401	0.43001	0.5	0.145
Mof_N 	N 	0.71135	0.87002	0.5	-0.195
Mof_C 	C 	0.68401	0.93001	0.5	0.125
Mof_C 	C 	0.13837	0.5	0.5	-0.114
Mof_C 	C 	0.63837	1.72705e-33	0.5	-0.093
Mof_C 	C 	0.86163	0.5	0.5	-0.106
Mof_C 	C 	0.36163	1.72705e-33	0.5	-0.093
_end
