data_functionalizedCrystal
_audit_creation_method	'EQeq! by Chris Wilmer'
_symmetry_space_group_name_H-M	'P1'
_symmetry_Int_Tables_number	1
_symmetry_cell_setting	triclinic
loop_
_symmetry_equiv_pos_as_xyz
  x,y,z
_cell_length_a	26.3458
_cell_length_b	26.3458
_cell_length_c	26.3458
_cell_angle_alpha	90
_cell_angle_beta	90
_cell_angle_gamma	90
loop_
_atom_site_label
_atom_site_type_symbol
_atom_site_fract_x
_atom_site_fract_y
_atom_site_fract_z
_atom_site_charge
Mof_O 	O 	0.24313	0.05362	0.1828	-0.407
Mof_O 	O 	0.24313	0.55362	0.6828	-0.388
Mof_O 	O 	0.74313	0.05362	0.6828	-0.4
Mof_O 	O 	0.74313	0.55362	0.1828	-0.389
Mof_O 	O 	0.75687	0.94638	0.1828	-0.362
Mof_O 	O 	0.75687	0.44638	0.6828	-0.387
Mof_O 	O 	0.25687	0.94638	0.6828	-0.36
Mof_O 	O 	0.25687	0.44638	0.1828	-0.394
Mof_O 	O 	0.75687	0.05362	0.8172	-0.397
Mof_O 	O 	0.75687	0.55362	0.3172	-0.387
Mof_O 	O 	0.25687	0.05362	0.3172	-0.404
Mof_O 	O 	0.25687	0.55362	0.8172	-0.384
Mof_O 	O 	0.24313	0.94638	0.8172	-0.354
Mof_O 	O 	0.24313	0.44638	0.3172	-0.388
Mof_O 	O 	0.74313	0.94638	0.3172	-0.356
Mof_O 	O 	0.74313	0.44638	0.8172	-0.38
Mof_O 	O 	0.1828	0.24313	0.05362	-0.407
Mof_O 	O 	0.1828	0.74313	0.55362	-0.389
Mof_O 	O 	0.6828	0.24313	0.55362	-0.389
Mof_O 	O 	0.6828	0.74313	0.05362	-0.401
Mof_O 	O 	0.1828	0.75687	0.94638	-0.363
Mof_O 	O 	0.1828	0.25687	0.44638	-0.395
Mof_O 	O 	0.6828	0.75687	0.44638	-0.388
Mof_O 	O 	0.6828	0.25687	0.94638	-0.361
Mof_O 	O 	0.8172	0.75687	0.05362	-0.398
Mof_O 	O 	0.8172	0.25687	0.55362	-0.385
Mof_O 	O 	0.3172	0.75687	0.55362	-0.388
Mof_O 	O 	0.3172	0.25687	0.05362	-0.405
Mof_O 	O 	0.8172	0.24313	0.94638	-0.355
Mof_O 	O 	0.8172	0.74313	0.44638	-0.381
Mof_O 	O 	0.3172	0.24313	0.44638	-0.389
Mof_O 	O 	0.3172	0.74313	0.94638	-0.357
Mof_O 	O 	0.05362	0.1828	0.24313	-0.408
Mof_O 	O 	0.05362	0.6828	0.74313	-0.401
Mof_O 	O 	0.55362	0.1828	0.74313	-0.39
Mof_O 	O 	0.55362	0.6828	0.24313	-0.389
Mof_O 	O 	0.94638	0.1828	0.75687	-0.363
Mof_O 	O 	0.94638	0.6828	0.25687	-0.361
Mof_O 	O 	0.44638	0.1828	0.25687	-0.395
Mof_O 	O 	0.44638	0.6828	0.75687	-0.388
Mof_O 	O 	0.05362	0.8172	0.75687	-0.398
Mof_O 	O 	0.05362	0.3172	0.25687	-0.405
Mof_O 	O 	0.55362	0.8172	0.25687	-0.385
Mof_O 	O 	0.55362	0.3172	0.75687	-0.388
Mof_O 	O 	0.94638	0.8172	0.24313	-0.355
Mof_O 	O 	0.94638	0.3172	0.74313	-0.357
Mof_O 	O 	0.44638	0.8172	0.74313	-0.381
Mof_O 	O 	0.44638	0.3172	0.24313	-0.389
Mof_O 	O 	0.05362	0.24313	0.8172	-0.399
Mof_O 	O 	0.05362	0.74313	0.3172	-0.401
Mof_O 	O 	0.55362	0.24313	0.3172	-0.389
Mof_O 	O 	0.55362	0.74313	0.8172	-0.381
Mof_O 	O 	0.94638	0.75687	0.8172	-0.353
Mof_O 	O 	0.94638	0.25687	0.3172	-0.361
Mof_O 	O 	0.44638	0.75687	0.3172	-0.388
Mof_O 	O 	0.44638	0.25687	0.8172	-0.385
Mof_O 	O 	0.05362	0.75687	0.1828	-0.407
Mof_O 	O 	0.05362	0.25687	0.6828	-0.405
Mof_O 	O 	0.55362	0.75687	0.6828	-0.388
Mof_O 	O 	0.55362	0.25687	0.1828	-0.395
Mof_O 	O 	0.94638	0.24313	0.1828	-0.364
Mof_O 	O 	0.94638	0.74313	0.6828	-0.356
Mof_O 	O 	0.44638	0.24313	0.6828	-0.389
Mof_O 	O 	0.44638	0.74313	0.1828	-0.39
Mof_O 	O 	0.24313	0.1828	0.94638	-0.364
Mof_O 	O 	0.24313	0.6828	0.44638	-0.389
Mof_O 	O 	0.74313	0.1828	0.44638	-0.39
Mof_O 	O 	0.74313	0.6828	0.94638	-0.356
Mof_O 	O 	0.75687	0.1828	0.05362	-0.407
Mof_O 	O 	0.75687	0.6828	0.55362	-0.388
Mof_O 	O 	0.25687	0.1828	0.55362	-0.395
Mof_O 	O 	0.25687	0.6828	0.05362	-0.405
Mof_O 	O 	0.75687	0.8172	0.94638	-0.353
Mof_O 	O 	0.75687	0.3172	0.44638	-0.388
Mof_O 	O 	0.25687	0.8172	0.44638	-0.385
Mof_O 	O 	0.25687	0.3172	0.94638	-0.361
Mof_O 	O 	0.24313	0.8172	0.05362	-0.399
Mof_O 	O 	0.24313	0.3172	0.55362	-0.389
Mof_O 	O 	0.74313	0.8172	0.55362	-0.381
Mof_O 	O 	0.74313	0.3172	0.05362	-0.401
Mof_O 	O 	0.1828	0.05362	0.75687	-0.407
Mof_O 	O 	0.1828	0.55362	0.25687	-0.395
Mof_O 	O 	0.6828	0.05362	0.25687	-0.405
Mof_O 	O 	0.6828	0.55362	0.75687	-0.388
Mof_O 	O 	0.1828	0.94638	0.24313	-0.364
Mof_O 	O 	0.1828	0.44638	0.74313	-0.39
Mof_O 	O 	0.6828	0.94638	0.74313	-0.356
Mof_O 	O 	0.6828	0.44638	0.24313	-0.389
Mof_O 	O 	0.8172	0.05362	0.24313	-0.399
Mof_O 	O 	0.8172	0.55362	0.74313	-0.381
Mof_O 	O 	0.3172	0.05362	0.74313	-0.401
Mof_O 	O 	0.3172	0.55362	0.24313	-0.389
Mof_O 	O 	0.8172	0.94638	0.75687	-0.353
Mof_O 	O 	0.8172	0.44638	0.25687	-0.385
Mof_O 	O 	0.3172	0.94638	0.25687	-0.361
Mof_O 	O 	0.3172	0.44638	0.75687	-0.388
Mof_O 	O 	0.75687	0.94638	0.8172	-0.353
Mof_O 	O 	0.75687	0.44638	0.3172	-0.388
Mof_O 	O 	0.25687	0.94638	0.3172	-0.361
Mof_O 	O 	0.25687	0.44638	0.8172	-0.385
Mof_O 	O 	0.24313	0.05362	0.8172	-0.399
Mof_O 	O 	0.24313	0.55362	0.3172	-0.389
Mof_O 	O 	0.74313	0.05362	0.3172	-0.401
Mof_O 	O 	0.74313	0.55362	0.8172	-0.381
Mof_O 	O 	0.24313	0.94638	0.1828	-0.364
Mof_O 	O 	0.24313	0.44638	0.6828	-0.389
Mof_O 	O 	0.74313	0.94638	0.6828	-0.356
Mof_O 	O 	0.74313	0.44638	0.1828	-0.39
Mof_O 	O 	0.75687	0.05362	0.1828	-0.407
Mof_O 	O 	0.75687	0.55362	0.6828	-0.388
Mof_O 	O 	0.25687	0.05362	0.6828	-0.405
Mof_O 	O 	0.25687	0.55362	0.1828	-0.395
Mof_O 	O 	0.8172	0.75687	0.94638	-0.353
Mof_O 	O 	0.8172	0.25687	0.44638	-0.385
Mof_O 	O 	0.3172	0.75687	0.44638	-0.388
Mof_O 	O 	0.3172	0.25687	0.94638	-0.361
Mof_O 	O 	0.8172	0.24313	0.05362	-0.399
Mof_O 	O 	0.8172	0.74313	0.55362	-0.381
Mof_O 	O 	0.3172	0.24313	0.55362	-0.389
Mof_O 	O 	0.3172	0.74313	0.05362	-0.401
Mof_O 	O 	0.1828	0.24313	0.94638	-0.364
Mof_O 	O 	0.1828	0.74313	0.44638	-0.39
Mof_O 	O 	0.6828	0.24313	0.44638	-0.389
Mof_O 	O 	0.6828	0.74313	0.94638	-0.356
Mof_O 	O 	0.1828	0.75687	0.05362	-0.407
Mof_O 	O 	0.1828	0.25687	0.55362	-0.395
Mof_O 	O 	0.6828	0.75687	0.55362	-0.388
Mof_O 	O 	0.6828	0.25687	0.05362	-0.405
Mof_O 	O 	0.94638	0.8172	0.75687	-0.353
Mof_O 	O 	0.94638	0.3172	0.25687	-0.361
Mof_O 	O 	0.44638	0.8172	0.25687	-0.385
Mof_O 	O 	0.44638	0.3172	0.75687	-0.388
Mof_O 	O 	0.05362	0.8172	0.24313	-0.399
Mof_O 	O 	0.05362	0.3172	0.74313	-0.401
Mof_O 	O 	0.55362	0.8172	0.74313	-0.381
Mof_O 	O 	0.55362	0.3172	0.24313	-0.389
Mof_O 	O 	0.94638	0.1828	0.24313	-0.364
Mof_O 	O 	0.94638	0.6828	0.74313	-0.356
Mof_O 	O 	0.44638	0.1828	0.74313	-0.39
Mof_O 	O 	0.44638	0.6828	0.24313	-0.389
Mof_O 	O 	0.05362	0.1828	0.75687	-0.407
Mof_O 	O 	0.05362	0.6828	0.25687	-0.405
Mof_O 	O 	0.55362	0.1828	0.25687	-0.395
Mof_O 	O 	0.55362	0.6828	0.75687	-0.388
Mof_O 	O 	0.94638	0.75687	0.1828	-0.363
Mof_O 	O 	0.94638	0.25687	0.6828	-0.361
Mof_O 	O 	0.44638	0.75687	0.6828	-0.388
Mof_O 	O 	0.44638	0.25687	0.1828	-0.395
Mof_O 	O 	0.05362	0.24313	0.1828	-0.408
Mof_O 	O 	0.05362	0.74313	0.6828	-0.401
Mof_O 	O 	0.55362	0.24313	0.6828	-0.389
Mof_O 	O 	0.55362	0.74313	0.1828	-0.39
Mof_O 	O 	0.94638	0.24313	0.8172	-0.355
Mof_O 	O 	0.94638	0.74313	0.3172	-0.357
Mof_O 	O 	0.44638	0.24313	0.3172	-0.389
Mof_O 	O 	0.44638	0.74313	0.8172	-0.381
Mof_O 	O 	0.05362	0.75687	0.8172	-0.398
Mof_O 	O 	0.05362	0.25687	0.3172	-0.405
Mof_O 	O 	0.55362	0.75687	0.3172	-0.388
Mof_O 	O 	0.55362	0.25687	0.8172	-0.385
Mof_O 	O 	0.75687	0.8172	0.05362	-0.398
Mof_O 	O 	0.75687	0.3172	0.55362	-0.388
Mof_O 	O 	0.25687	0.8172	0.55362	-0.385
Mof_O 	O 	0.25687	0.3172	0.05362	-0.405
Mof_O 	O 	0.24313	0.8172	0.94638	-0.355
Mof_O 	O 	0.24313	0.3172	0.44638	-0.389
Mof_O 	O 	0.74313	0.8172	0.44638	-0.381
Mof_O 	O 	0.74313	0.3172	0.94638	-0.357
Mof_O 	O 	0.24313	0.1828	0.05362	-0.408
Mof_O 	O 	0.24313	0.6828	0.55362	-0.389
Mof_O 	O 	0.74313	0.1828	0.55362	-0.39
Mof_O 	O 	0.74313	0.6828	0.05362	-0.401
Mof_O 	O 	0.75687	0.1828	0.94638	-0.363
Mof_O 	O 	0.75687	0.6828	0.44638	-0.388
Mof_O 	O 	0.25687	0.1828	0.44638	-0.395
Mof_O 	O 	0.25687	0.6828	0.94638	-0.361
Mof_O 	O 	0.8172	0.94638	0.24313	-0.355
Mof_O 	O 	0.8172	0.44638	0.74313	-0.381
Mof_O 	O 	0.3172	0.94638	0.74313	-0.357
Mof_O 	O 	0.3172	0.44638	0.24313	-0.389
Mof_O 	O 	0.8172	0.05362	0.75687	-0.398
Mof_O 	O 	0.8172	0.55362	0.25687	-0.385
Mof_O 	O 	0.3172	0.05362	0.25687	-0.405
Mof_O 	O 	0.3172	0.55362	0.75687	-0.388
Mof_O 	O 	0.1828	0.94638	0.75687	-0.363
Mof_O 	O 	0.1828	0.44638	0.25687	-0.395
Mof_O 	O 	0.6828	0.94638	0.25687	-0.361
Mof_O 	O 	0.6828	0.44638	0.75687	-0.388
Mof_O 	O 	0.1828	0.05362	0.24313	-0.408
Mof_O 	O 	0.1828	0.55362	0.74313	-0.39
Mof_O 	O 	0.6828	0.05362	0.74313	-0.401
Mof_O 	O 	0.6828	0.55362	0.24313	-0.389
Mof_C 	C 	0.1337	0.1337	0.199	0.114
Mof_C 	C 	0.1337	0.6337	0.699	0.13
Mof_C 	C 	0.6337	0.1337	0.699	0.13
Mof_C 	C 	0.6337	0.6337	0.199	0.133
Mof_C 	C 	0.8663	0.8663	0.199	0.152
Mof_C 	C 	0.8663	0.3663	0.699	0.148
Mof_C 	C 	0.3663	0.8663	0.699	0.148
Mof_C 	C 	0.3663	0.3663	0.199	0.132
Mof_C 	C 	0.8663	0.1337	0.801	0.141
Mof_C 	C 	0.8663	0.6337	0.301	0.145
Mof_C 	C 	0.3663	0.1337	0.301	0.126
Mof_C 	C 	0.3663	0.6337	0.801	0.141
Mof_C 	C 	0.1337	0.8663	0.801	0.141
Mof_C 	C 	0.1337	0.3663	0.301	0.126
Mof_C 	C 	0.6337	0.8663	0.301	0.145
Mof_C 	C 	0.6337	0.3663	0.801	0.141
Mof_C 	C 	0.199	0.1337	0.1337	0.114
Mof_C 	C 	0.199	0.6337	0.6337	0.133
Mof_C 	C 	0.699	0.1337	0.6337	0.13
Mof_C 	C 	0.699	0.6337	0.1337	0.13
Mof_C 	C 	0.199	0.8663	0.8663	0.152
Mof_C 	C 	0.199	0.3663	0.3663	0.132
Mof_C 	C 	0.699	0.8663	0.3663	0.148
Mof_C 	C 	0.699	0.3663	0.8663	0.148
Mof_C 	C 	0.801	0.8663	0.1337	0.141
Mof_C 	C 	0.801	0.3663	0.6337	0.141
Mof_C 	C 	0.301	0.8663	0.6337	0.145
Mof_C 	C 	0.301	0.3663	0.1337	0.126
Mof_C 	C 	0.801	0.1337	0.8663	0.141
Mof_C 	C 	0.801	0.6337	0.3663	0.141
Mof_C 	C 	0.301	0.1337	0.3663	0.126
Mof_C 	C 	0.301	0.6337	0.8663	0.145
Mof_C 	C 	0.1337	0.199	0.1337	0.114
Mof_C 	C 	0.1337	0.699	0.6337	0.13
Mof_C 	C 	0.6337	0.199	0.6337	0.133
Mof_C 	C 	0.6337	0.699	0.1337	0.13
Mof_C 	C 	0.8663	0.199	0.8663	0.152
Mof_C 	C 	0.8663	0.699	0.3663	0.148
Mof_C 	C 	0.3663	0.199	0.3663	0.132
Mof_C 	C 	0.3663	0.699	0.8663	0.148
Mof_C 	C 	0.1337	0.801	0.8663	0.141
Mof_C 	C 	0.1337	0.301	0.3663	0.126
Mof_C 	C 	0.6337	0.801	0.3663	0.141
Mof_C 	C 	0.6337	0.301	0.8663	0.145
Mof_C 	C 	0.8663	0.801	0.1337	0.141
Mof_C 	C 	0.8663	0.301	0.6337	0.145
Mof_C 	C 	0.3663	0.801	0.6337	0.141
Mof_C 	C 	0.3663	0.301	0.1337	0.126
Mof_C 	C 	0.1337	0.1337	0.801	0.123
Mof_C 	C 	0.1337	0.6337	0.301	0.126
Mof_C 	C 	0.6337	0.1337	0.301	0.126
Mof_C 	C 	0.6337	0.6337	0.801	0.141
Mof_C 	C 	0.8663	0.8663	0.801	0.16
Mof_C 	C 	0.8663	0.3663	0.301	0.145
Mof_C 	C 	0.3663	0.8663	0.301	0.145
Mof_C 	C 	0.3663	0.3663	0.801	0.141
Mof_C 	C 	0.1337	0.8663	0.199	0.133
Mof_C 	C 	0.1337	0.3663	0.699	0.129
Mof_C 	C 	0.6337	0.8663	0.699	0.148
Mof_C 	C 	0.6337	0.3663	0.199	0.133
Mof_C 	C 	0.8663	0.1337	0.199	0.133
Mof_C 	C 	0.8663	0.6337	0.699	0.148
Mof_C 	C 	0.3663	0.1337	0.699	0.129
Mof_C 	C 	0.3663	0.6337	0.199	0.133
Mof_C 	C 	0.1337	0.199	0.8663	0.133
Mof_C 	C 	0.1337	0.699	0.3663	0.129
Mof_C 	C 	0.6337	0.199	0.3663	0.133
Mof_C 	C 	0.6337	0.699	0.8663	0.148
Mof_C 	C 	0.8663	0.199	0.1337	0.133
Mof_C 	C 	0.8663	0.699	0.6337	0.148
Mof_C 	C 	0.3663	0.199	0.6337	0.133
Mof_C 	C 	0.3663	0.699	0.1337	0.129
Mof_C 	C 	0.8663	0.801	0.8663	0.16
Mof_C 	C 	0.8663	0.301	0.3663	0.145
Mof_C 	C 	0.3663	0.801	0.3663	0.141
Mof_C 	C 	0.3663	0.301	0.8663	0.145
Mof_C 	C 	0.1337	0.801	0.1337	0.123
Mof_C 	C 	0.1337	0.301	0.6337	0.126
Mof_C 	C 	0.6337	0.801	0.6337	0.141
Mof_C 	C 	0.6337	0.301	0.1337	0.126
Mof_C 	C 	0.199	0.1337	0.8663	0.133
Mof_C 	C 	0.199	0.6337	0.3663	0.133
Mof_C 	C 	0.699	0.1337	0.3663	0.129
Mof_C 	C 	0.699	0.6337	0.8663	0.148
Mof_C 	C 	0.199	0.8663	0.1337	0.133
Mof_C 	C 	0.199	0.3663	0.6337	0.133
Mof_C 	C 	0.699	0.8663	0.6337	0.148
Mof_C 	C 	0.699	0.3663	0.1337	0.129
Mof_C 	C 	0.801	0.1337	0.1337	0.123
Mof_C 	C 	0.801	0.6337	0.6337	0.141
Mof_C 	C 	0.301	0.1337	0.6337	0.126
Mof_C 	C 	0.301	0.6337	0.1337	0.126
Mof_C 	C 	0.801	0.8663	0.8663	0.16
Mof_C 	C 	0.801	0.3663	0.3663	0.141
Mof_C 	C 	0.301	0.8663	0.3663	0.145
Mof_C 	C 	0.301	0.3663	0.8663	0.145
Mof_Cu	Cu	0.28556	0	0.21444	0.868
Mof_Cu	Cu	0.28556	0.5	0.71444	0.898
Mof_Cu	Cu	0.71444	0	0.21444	0.868
Mof_Cu	Cu	0.71444	0.5	0.71444	0.899
Mof_Cu	Cu	0.21444	0.5	0.21444	0.895
Mof_Cu	Cu	0.71444	5.52174e-33	0.78556	0.872
Mof_Cu	Cu	0.71444	0.5	0.28556	0.898
Mof_Cu	Cu	0.21444	0	0.28556	0.868
Mof_Cu	Cu	0.28556	5.52174e-33	0.78556	0.872
Mof_Cu	Cu	0.28556	0.5	0.28556	0.898
Mof_Cu	Cu	0.21444	0.28556	-0	0.868
Mof_Cu	Cu	0.21444	0.78556	0.5	0.899
Mof_Cu	Cu	0.21444	0.71444	-0	0.868
Mof_Cu	Cu	0.21444	0.21444	0.5	0.895
Mof_Cu	Cu	0.78556	0.71444	-0	0.872
Mof_Cu	Cu	0.78556	0.21444	0.5	0.899
Mof_Cu	Cu	0.28556	0.21444	-0	0.868
Mof_Cu	Cu	0.78556	0.28556	-0	0.872
Mof_Cu	Cu	0.78556	0.78556	0.5	0.903
Mof_Cu	Cu	0.28556	0.28556	0.5	0.898
Mof_Cu	Cu	-1.69019e-33	0.21444	0.28556	0.868
Mof_Cu	Cu	0.5	0.21444	0.78556	0.899
Mof_Cu	Cu	-8.36477e-33	0.21444	0.71444	0.868
Mof_Cu	Cu	0.5	0.21444	0.21444	0.895
Mof_Cu	Cu	8.20046e-33	0.78556	0.71444	0.872
Mof_Cu	Cu	8.04021e-34	0.28556	0.21444	0.868
Mof_Cu	Cu	0.5	0.78556	0.21444	0.899
Mof_Cu	Cu	6.59242e-33	0.78556	0.28556	0.872
Mof_Cu	Cu	0.5	0.78556	0.78556	0.903
Mof_Cu	Cu	0.5	0.28556	0.28556	0.898
Mof_Cu	Cu	8.46712e-33	0.28556	0.78556	0.872
Mof_Cu	Cu	8.46712e-33	0.71444	0.78556	0.872
Mof_Cu	Cu	0.5	0.71444	0.28556	0.898
Mof_Cu	Cu	-1.02395e-32	0.71444	0.21444	0.868
Mof_Cu	Cu	0.5	0.71444	0.71444	0.899
Mof_Cu	Cu	0.5	0.28556	0.71444	0.898
Mof_Cu	Cu	0.28556	0.71444	0.5	0.898
Mof_Cu	Cu	0.71444	0.21444	-0	0.868
Mof_Cu	Cu	0.71444	0.71444	0.5	0.899
Mof_Cu	Cu	0.71444	0.78556	-0	0.872
Mof_Cu	Cu	0.71444	0.28556	0.5	0.898
Mof_Cu	Cu	0.28556	0.78556	-0	0.872
Mof_Cu	Cu	0.21444	0	0.71444	0.868
Mof_Cu	Cu	0.21444	0.5	0.78556	0.899
Mof_Cu	Cu	0.78556	0	0.28556	0.872
Mof_Cu	Cu	0.78556	0.5	0.78556	0.903
Mof_Cu	Cu	0.78556	0	0.71444	0.872
Mof_Cu	Cu	0.78556	0.5	0.21444	0.899
Mof_C 	C 	0.2	0.0692	0.2	0.345
Mof_C 	C 	0.1772	0.1155	0.1772	-0.161
Mof_C 	C 	0.2	0.5692	0.7	0.352
Mof_C 	C 	0.1772	0.6155	0.6772	-0.163
Mof_C 	C 	0.7	0.0692	0.7	0.349
Mof_C 	C 	0.6772	0.1155	0.6772	-0.164
Mof_C 	C 	0.7	0.5692	0.2	0.352
Mof_C 	C 	0.6772	0.6155	0.1772	-0.163
Mof_C 	C 	0.8	0.9308	0.2	0.355
Mof_C 	C 	0.8228	0.8845	0.1772	-0.163
Mof_C 	C 	0.8	0.4308	0.7	0.356
Mof_C 	C 	0.8228	0.3845	0.6772	-0.165
Mof_C 	C 	0.3	0.9308	0.7	0.355
Mof_C 	C 	0.3228	0.8845	0.6772	-0.163
Mof_C 	C 	0.3	0.4308	0.2	0.352
Mof_C 	C 	0.3228	0.3845	0.1772	-0.163
Mof_C 	C 	0.8	0.0692	0.8	0.354
Mof_C 	C 	0.8228	0.1155	0.8228	-0.166
Mof_C 	C 	0.8	0.5692	0.3	0.357
Mof_C 	C 	0.8228	0.6155	0.3228	-0.165
Mof_C 	C 	0.3	0.0692	0.3	0.349
Mof_C 	C 	0.3228	0.1155	0.3228	-0.164
Mof_C 	C 	0.3	0.5692	0.8	0.357
Mof_C 	C 	0.3228	0.6155	0.8228	-0.165
Mof_C 	C 	0.2	0.9308	0.8	0.355
Mof_C 	C 	0.1772	0.8845	0.8228	-0.163
Mof_C 	C 	0.2	0.4308	0.3	0.352
Mof_C 	C 	0.1772	0.3845	0.3228	-0.163
Mof_C 	C 	0.7	0.9308	0.3	0.355
Mof_C 	C 	0.6772	0.8845	0.3228	-0.163
Mof_C 	C 	0.7	0.4308	0.8	0.356
Mof_C 	C 	0.6772	0.3845	0.8228	-0.165
Mof_C 	C 	0.2	0.2	0.0692	0.345
Mof_C 	C 	0.1772	0.1772	0.1155	-0.161
Mof_C 	C 	0.2	0.7	0.5692	0.352
Mof_C 	C 	0.1772	0.6772	0.6155	-0.163
Mof_C 	C 	0.7	0.2	0.5692	0.352
Mof_C 	C 	0.6772	0.1772	0.6155	-0.163
Mof_C 	C 	0.7	0.7	0.0692	0.349
Mof_C 	C 	0.6772	0.6772	0.1155	-0.164
Mof_C 	C 	0.2	0.8	0.9308	0.355
Mof_C 	C 	0.1772	0.8228	0.8845	-0.163
Mof_C 	C 	0.2	0.3	0.4308	0.352
Mof_C 	C 	0.1772	0.3228	0.3845	-0.163
Mof_C 	C 	0.7	0.8	0.4308	0.356
Mof_C 	C 	0.6772	0.8228	0.3845	-0.165
Mof_C 	C 	0.7	0.3	0.9308	0.355
Mof_C 	C 	0.6772	0.3228	0.8845	-0.163
Mof_C 	C 	0.8	0.8	0.0692	0.354
Mof_C 	C 	0.8228	0.8228	0.1155	-0.166
Mof_C 	C 	0.8	0.3	0.5692	0.357
Mof_C 	C 	0.8228	0.3228	0.6155	-0.165
Mof_C 	C 	0.3	0.8	0.5692	0.357
Mof_C 	C 	0.3228	0.8228	0.6155	-0.165
Mof_C 	C 	0.3	0.3	0.0692	0.349
Mof_C 	C 	0.3228	0.3228	0.1155	-0.164
Mof_C 	C 	0.8	0.2	0.9308	0.355
Mof_C 	C 	0.8228	0.1772	0.8845	-0.163
Mof_C 	C 	0.8	0.7	0.4308	0.356
Mof_C 	C 	0.8228	0.6772	0.3845	-0.165
Mof_C 	C 	0.3	0.2	0.4308	0.352
Mof_C 	C 	0.3228	0.1772	0.3845	-0.163
Mof_C 	C 	0.3	0.7	0.9308	0.355
Mof_C 	C 	0.3228	0.6772	0.8845	-0.163
Mof_C 	C 	0.0692	0.2	0.2	0.345
Mof_C 	C 	0.1155	0.1772	0.1772	-0.161
Mof_C 	C 	0.0692	0.7	0.7	0.349
Mof_C 	C 	0.1155	0.6772	0.6772	-0.164
Mof_C 	C 	0.5692	0.2	0.7	0.352
Mof_C 	C 	0.6155	0.1772	0.6772	-0.163
Mof_C 	C 	0.5692	0.7	0.2	0.352
Mof_C 	C 	0.6155	0.6772	0.1772	-0.163
Mof_C 	C 	0.9308	0.2	0.8	0.355
Mof_C 	C 	0.8845	0.1772	0.8228	-0.163
Mof_C 	C 	0.9308	0.7	0.3	0.355
Mof_C 	C 	0.8845	0.6772	0.3228	-0.163
Mof_C 	C 	0.4308	0.2	0.3	0.352
Mof_C 	C 	0.3845	0.1772	0.3228	-0.163
Mof_C 	C 	0.4308	0.7	0.8	0.356
Mof_C 	C 	0.3845	0.6772	0.8228	-0.165
Mof_C 	C 	0.0692	0.8	0.8	0.354
Mof_C 	C 	0.1155	0.8228	0.8228	-0.166
Mof_C 	C 	0.0692	0.3	0.3	0.349
Mof_C 	C 	0.1155	0.3228	0.3228	-0.164
Mof_C 	C 	0.5692	0.8	0.3	0.357
Mof_C 	C 	0.6155	0.8228	0.3228	-0.165
Mof_C 	C 	0.5692	0.3	0.8	0.357
Mof_C 	C 	0.6155	0.3228	0.8228	-0.165
Mof_C 	C 	0.9308	0.8	0.2	0.355
Mof_C 	C 	0.8845	0.8228	0.1772	-0.163
Mof_C 	C 	0.9308	0.3	0.7	0.355
Mof_C 	C 	0.8845	0.3228	0.6772	-0.163
Mof_C 	C 	0.4308	0.8	0.7	0.356
Mof_C 	C 	0.3845	0.8228	0.6772	-0.165
Mof_C 	C 	0.4308	0.3	0.2	0.352
Mof_C 	C 	0.3845	0.3228	0.1772	-0.163
Mof_C 	C 	0.0692	0.2	0.8	0.349
Mof_C 	C 	0.1155	0.1772	0.8228	-0.163
Mof_C 	C 	0.0692	0.7	0.3	0.349
Mof_C 	C 	0.1155	0.6772	0.3228	-0.164
Mof_C 	C 	0.5692	0.2	0.3	0.352
Mof_C 	C 	0.6155	0.1772	0.3228	-0.163
Mof_C 	C 	0.5692	0.7	0.8	0.356
Mof_C 	C 	0.6155	0.6772	0.8228	-0.165
Mof_C 	C 	0.9308	0.8	0.8	0.36
Mof_C 	C 	0.8845	0.8228	0.8228	-0.165
Mof_C 	C 	0.9308	0.3	0.3	0.356
Mof_C 	C 	0.8845	0.3228	0.3228	-0.163
Mof_C 	C 	0.4308	0.8	0.3	0.357
Mof_C 	C 	0.3845	0.8228	0.3228	-0.165
Mof_C 	C 	0.4308	0.3	0.8	0.357
Mof_C 	C 	0.3845	0.3228	0.8228	-0.165
Mof_C 	C 	0.0692	0.8	0.2	0.349
Mof_C 	C 	0.1155	0.8228	0.1772	-0.163
Mof_C 	C 	0.0692	0.3	0.7	0.349
Mof_C 	C 	0.1155	0.3228	0.6772	-0.164
Mof_C 	C 	0.5692	0.8	0.7	0.356
Mof_C 	C 	0.6155	0.8228	0.6772	-0.165
Mof_C 	C 	0.5692	0.3	0.2	0.352
Mof_C 	C 	0.6155	0.3228	0.1772	-0.163
Mof_C 	C 	0.9308	0.2	0.2	0.351
Mof_C 	C 	0.8845	0.1772	0.1772	-0.16
Mof_C 	C 	0.9308	0.7	0.7	0.355
Mof_C 	C 	0.8845	0.6772	0.6772	-0.163
Mof_C 	C 	0.4308	0.2	0.7	0.352
Mof_C 	C 	0.3845	0.1772	0.6772	-0.163
Mof_C 	C 	0.4308	0.7	0.2	0.352
Mof_C 	C 	0.3845	0.6772	0.1772	-0.163
Mof_C 	C 	0.2	0.2	0.9308	0.351
Mof_C 	C 	0.1772	0.1772	0.8845	-0.16
Mof_C 	C 	0.2	0.7	0.4308	0.352
Mof_C 	C 	0.1772	0.6772	0.3845	-0.163
Mof_C 	C 	0.7	0.2	0.4308	0.352
Mof_C 	C 	0.6772	0.1772	0.3845	-0.163
Mof_C 	C 	0.7	0.7	0.9308	0.355
Mof_C 	C 	0.6772	0.6772	0.8845	-0.163
Mof_C 	C 	0.8	0.2	0.0692	0.349
Mof_C 	C 	0.8228	0.1772	0.1155	-0.163
Mof_C 	C 	0.8	0.7	0.5692	0.356
Mof_C 	C 	0.8228	0.6772	0.6155	-0.165
Mof_C 	C 	0.3	0.2	0.5692	0.352
Mof_C 	C 	0.3228	0.1772	0.6155	-0.163
Mof_C 	C 	0.3	0.7	0.0692	0.349
Mof_C 	C 	0.3228	0.6772	0.1155	-0.164
Mof_C 	C 	0.8	0.8	0.9308	0.36
Mof_C 	C 	0.8228	0.8228	0.8845	-0.165
Mof_C 	C 	0.8	0.3	0.4308	0.357
Mof_C 	C 	0.8228	0.3228	0.3845	-0.165
Mof_C 	C 	0.3	0.8	0.4308	0.357
Mof_C 	C 	0.3228	0.8228	0.3845	-0.165
Mof_C 	C 	0.3	0.3	0.9308	0.356
Mof_C 	C 	0.3228	0.3228	0.8845	-0.163
Mof_C 	C 	0.2	0.8	0.0692	0.349
Mof_C 	C 	0.1772	0.8228	0.1155	-0.163
Mof_C 	C 	0.2	0.3	0.5692	0.352
Mof_C 	C 	0.1772	0.3228	0.6155	-0.163
Mof_C 	C 	0.7	0.8	0.5692	0.356
Mof_C 	C 	0.6772	0.8228	0.6155	-0.165
Mof_C 	C 	0.7	0.3	0.0692	0.349
Mof_C 	C 	0.6772	0.3228	0.1155	-0.164
Mof_C 	C 	0.2	0.0692	0.8	0.349
Mof_C 	C 	0.1772	0.1155	0.8228	-0.163
Mof_C 	C 	0.2	0.5692	0.3	0.352
Mof_C 	C 	0.1772	0.6155	0.3228	-0.163
Mof_C 	C 	0.7	0.0692	0.3	0.349
Mof_C 	C 	0.6772	0.1155	0.3228	-0.164
Mof_C 	C 	0.7	0.5692	0.8	0.356
Mof_C 	C 	0.6772	0.6155	0.8228	-0.165
Mof_C 	C 	0.2	0.9308	0.2	0.351
Mof_C 	C 	0.1772	0.8845	0.1772	-0.16
Mof_C 	C 	0.2	0.4308	0.7	0.352
Mof_C 	C 	0.1772	0.3845	0.6772	-0.163
Mof_C 	C 	0.7	0.9308	0.7	0.355
Mof_C 	C 	0.6772	0.8845	0.6772	-0.163
Mof_C 	C 	0.7	0.4308	0.2	0.352
Mof_C 	C 	0.6772	0.3845	0.1772	-0.163
Mof_C 	C 	0.8	0.0692	0.2	0.349
Mof_C 	C 	0.8228	0.1155	0.1772	-0.163
Mof_C 	C 	0.8	0.5692	0.7	0.356
Mof_C 	C 	0.8228	0.6155	0.6772	-0.165
Mof_C 	C 	0.3	0.0692	0.7	0.349
Mof_C 	C 	0.3228	0.1155	0.6772	-0.164
Mof_C 	C 	0.3	0.5692	0.2	0.352
Mof_C 	C 	0.3228	0.6155	0.1772	-0.163
Mof_C 	C 	0.8	0.9308	0.8	0.36
Mof_C 	C 	0.8228	0.8845	0.8228	-0.165
Mof_C 	C 	0.8	0.4308	0.3	0.357
Mof_C 	C 	0.8228	0.3845	0.3228	-0.165
Mof_C 	C 	0.3	0.9308	0.3	0.356
Mof_C 	C 	0.3228	0.8845	0.3228	-0.163
Mof_C 	C 	0.3	0.4308	0.8	0.357
Mof_C 	C 	0.3228	0.3845	0.8228	-0.165
_end
