data_functionalizedCrystal
_audit_creation_method	'EQeq! by Chris Wilmer'
_symmetry_space_group_name_H-M	'P1'
_symmetry_Int_Tables_number	1
_symmetry_cell_setting	triclinic
loop_
_symmetry_equiv_pos_as_xyz
  x,y,z
_cell_length_a	8.553
_cell_length_b	9.114
_cell_length_c	10.399
_cell_angle_alpha	105.16
_cell_angle_beta	97.83
_cell_angle_gamma	114.41
loop_
_atom_site_label
_atom_site_type_symbol
_atom_site_fract_x
_atom_site_fract_y
_atom_site_fract_z
_atom_site_charge
Mof_Cu	Cu	0.82825	0.9579	0.2973	0.909
Mof_P 	P 	0.23604	0.09973	0.42397	0.404
Mof_O 	O 	0.0805	0.1264	0.3649	-0.391
Mof_O 	O 	0.401	0.2705	0.5045	-0.432
Mof_O 	O 	0.1932	0.9887	0.5139	-0.384
Mof_C 	C 	0.2874	0.9881	0.2799	-0.039
Mof_C 	C 	0.2295	0.9827	0.1466	-0.032
Mof_H 	H 	0.1583	0.0339	0.1304	0.05
Mof_C 	C 	0.2758	0.9028	0.038	-0.033
Mof_C 	C 	0.3821	0.8254	0.0618	-0.099
Mof_H 	H 	0.4114	0.7685	0.9885	0.068
Mof_C 	C 	0.4434	0.8335	0.1938	0.096
Mof_C 	C 	0.394	0.9115	0.302	-0.109
Mof_H 	H 	0.4325	0.9126	0.3905	0.076
Mof_N 	N 	0.5672	0.7685	0.223	-0.319
Mof_H 	H 	0.555	0.68	0.145	0.085
Mof_H 	H 	0.54	0.717	0.286	0.108
Mof_C 	C 	0.2219	0.9036	0.8952	0.301
Mof_O 	O 	0.2173	0.7939	0.7937	-0.297
Mof_O 	O 	0.1862	0.0247	0.8874	-0.386
Mof_Cu	Cu	0.17175	0.0421	0.7027	0.909
Mof_P 	P 	0.76396	0.90027	0.57603	0.404
Mof_O 	O 	0.9195	0.8736	0.6351	-0.391
Mof_O 	O 	0.599	0.7295	0.4955	-0.432
Mof_O 	O 	0.8068	0.0113	0.4861	-0.384
Mof_C 	C 	0.7126	0.0119	0.7201	-0.039
Mof_C 	C 	0.7705	0.0173	0.8534	-0.032
Mof_H 	H 	0.8417	0.9661	0.8696	0.05
Mof_C 	C 	0.7242	0.0972	0.962	-0.033
Mof_C 	C 	0.6179	0.1746	0.9382	-0.099
Mof_H 	H 	0.5886	0.2315	0.0115	0.068
Mof_C 	C 	0.5566	0.1665	0.8062	0.096
Mof_C 	C 	0.606	0.0885	0.698	-0.109
Mof_H 	H 	0.5675	0.0874	0.6095	0.076
Mof_N 	N 	0.4328	0.2315	0.777	-0.319
Mof_H 	H 	0.445	0.32	0.855	0.085
Mof_H 	H 	0.46	0.283	0.714	0.108
Mof_C 	C 	0.7781	0.0964	0.1048	0.301
Mof_O 	O 	0.7827	0.2061	0.2063	-0.297
Mof_O 	O 	0.8138	0.9753	0.1126	-0.386
Mof_Cu	Cu	0.5	0.5	0.5	0.848
_end
