data_functionalizedCrystal
_audit_creation_method	'EQeq! by Chris Wilmer'
_symmetry_space_group_name_H-M	'P1'
_symmetry_Int_Tables_number	1
_symmetry_cell_setting	triclinic
loop_
_symmetry_equiv_pos_as_xyz
  x,y,z
_cell_length_a	13.811
_cell_length_b	15.498
_cell_length_c	15.498
_cell_angle_alpha	120
_cell_angle_beta	90
_cell_angle_gamma	90
loop_
_atom_site_label
_atom_site_type_symbol
_atom_site_fract_x
_atom_site_fract_y
_atom_site_fract_z
_atom_site_charge
Mof_Ce	Ce	0.46549	0.66667	0.33334	2.743
Mof_Ce	Ce	0.03451	0.66667	0.33334	2.744
Mof_Ce	Ce	0.53451	0.33333	0.66666	2.743
Mof_Ce	Ce	0.96549	0.33333	0.66666	2.744
Mof_Cu	Cu	0.25	0.47396	0.4988	0.949
Mof_Cu	Cu	0.25	0.02484	0.52604	0.949
Mof_Cu	Cu	0.25	0.5012	0.97516	0.949
Mof_Cu	Cu	0.75	0.97516	0.5012	0.949
Mof_Cu	Cu	0.75	0.4988	0.47396	0.949
Mof_Cu	Cu	0.75	0.52604	0.02484	0.948
Mof_H 	H 	0.5044	0.3849	0.2861	0.088
Mof_H 	H 	0.412	0.3565	0.218	0.081
Mof_H 	H 	0.4903	0.3914	0.0892	0.088
Mof_H 	H 	0.5733	0.3726	0.1472	0.089
Mof_H 	H 	0.5044	0.9012	0.6151	0.088
Mof_H 	H 	0.412	0.8615	0.6435	0.081
Mof_H 	H 	0.4903	0.6978	0.6086	0.088
Mof_H 	H 	0.5733	0.7746	0.6274	0.089
Mof_H 	H 	0.5044	0.7139	0.0988	0.088
Mof_H 	H 	0.412	0.782	0.1385	0.081
Mof_H 	H 	0.4903	0.9108	0.3022	0.087
Mof_H 	H 	0.5733	0.8528	0.2254	0.089
Mof_H 	H 	0.9956	0.3849	0.2861	0.089
Mof_H 	H 	0.088	0.3565	0.218	0.081
Mof_H 	H 	0.0097	0.3914	0.0892	0.087
Mof_H 	H 	0.9267	0.3726	0.1472	0.089
Mof_H 	H 	0.9956	0.9012	0.6151	0.089
Mof_H 	H 	0.088	0.8615	0.6435	0.081
Mof_H 	H 	0.0097	0.6978	0.6086	0.088
Mof_H 	H 	0.9267	0.7746	0.6274	0.089
Mof_H 	H 	0.9956	0.7139	0.0988	0.089
Mof_H 	H 	0.088	0.782	0.1385	0.081
Mof_H 	H 	0.0097	0.9108	0.3022	0.087
Mof_H 	H 	0.9267	0.8528	0.2254	0.089
Mof_H 	H 	0.4956	0.0988	0.7139	0.088
Mof_H 	H 	0.588	0.1385	0.782	0.081
Mof_H 	H 	0.5097	0.3022	0.9108	0.087
Mof_H 	H 	0.4267	0.2254	0.8528	0.089
Mof_H 	H 	0.4956	0.2861	0.3849	0.088
Mof_H 	H 	0.588	0.218	0.3565	0.081
Mof_H 	H 	0.5097	0.0892	0.3914	0.088
Mof_H 	H 	0.4267	0.1472	0.3726	0.089
Mof_H 	H 	0.4956	0.6151	0.9012	0.088
Mof_H 	H 	0.588	0.6435	0.8615	0.081
Mof_H 	H 	0.5097	0.6086	0.6978	0.088
Mof_H 	H 	0.4267	0.6274	0.7746	0.089
Mof_H 	H 	0.0044	0.0988	0.7139	0.089
Mof_H 	H 	0.912	0.1385	0.782	0.081
Mof_H 	H 	0.9903	0.3022	0.9108	0.087
Mof_H 	H 	0.0733	0.2254	0.8528	0.089
Mof_H 	H 	0.0044	0.2861	0.3849	0.089
Mof_H 	H 	0.912	0.218	0.3565	0.081
Mof_H 	H 	0.9903	0.0892	0.3914	0.087
Mof_H 	H 	0.0733	0.1472	0.3726	0.089
Mof_H 	H 	0.0044	0.6151	0.9012	0.089
Mof_H 	H 	0.912	0.6435	0.8615	0.081
Mof_H 	H 	0.9903	0.6086	0.6978	0.088
Mof_H 	H 	0.0733	0.6274	0.7746	0.089
Mof_C 	C 	0.4488	0.4117	0.2691	-0.17
Mof_C 	C 	0.3855	0.472	0.3615	0.432
Mof_C 	C 	0.5336	0.4236	0.1459	-0.182
Mof_C 	C 	0.5979	0.4972	0.1352	0.434
Mof_C 	C 	0.4488	0.8574	0.5883	-0.17
Mof_C 	C 	0.3855	0.8895	0.528	0.432
Mof_C 	C 	0.5336	0.7223	0.5764	-0.182
Mof_C 	C 	0.5979	0.638	0.5028	0.434
Mof_C 	C 	0.4488	0.7309	0.1426	-0.17
Mof_C 	C 	0.3855	0.6385	0.1105	0.432
Mof_C 	C 	0.5336	0.8541	0.2777	-0.182
Mof_C 	C 	0.5979	0.8648	0.362	0.433
Mof_C 	C 	0.0512	0.4117	0.2691	-0.17
Mof_C 	C 	0.1145	0.472	0.3615	0.432
Mof_C 	C 	0.9664	0.4236	0.1459	-0.181
Mof_C 	C 	0.9021	0.4972	0.1352	0.433
Mof_C 	C 	0.0512	0.8574	0.5883	-0.171
Mof_C 	C 	0.1145	0.8895	0.528	0.433
Mof_C 	C 	0.9664	0.7223	0.5764	-0.182
Mof_C 	C 	0.9021	0.638	0.5028	0.434
Mof_C 	C 	0.0512	0.7309	0.1426	-0.171
Mof_C 	C 	0.1145	0.6385	0.1105	0.433
Mof_C 	C 	0.9664	0.8541	0.2777	-0.18
Mof_C 	C 	0.9021	0.8648	0.362	0.433
Mof_C 	C 	0.5512	0.1426	0.7309	-0.17
Mof_C 	C 	0.6145	0.1105	0.6385	0.432
Mof_C 	C 	0.4664	0.2777	0.8541	-0.182
Mof_C 	C 	0.4021	0.362	0.8648	0.433
Mof_C 	C 	0.5512	0.2691	0.4117	-0.17
Mof_C 	C 	0.6145	0.3615	0.472	0.432
Mof_C 	C 	0.4664	0.1459	0.4236	-0.182
Mof_C 	C 	0.4021	0.1352	0.4972	0.434
Mof_C 	C 	0.5512	0.5883	0.8574	-0.17
Mof_C 	C 	0.6145	0.528	0.8895	0.432
Mof_C 	C 	0.4664	0.5764	0.7223	-0.182
Mof_C 	C 	0.4021	0.5028	0.638	0.434
Mof_C 	C 	0.9488	0.1426	0.7309	-0.171
Mof_C 	C 	0.8855	0.1105	0.6385	0.433
Mof_C 	C 	0.0336	0.2777	0.8541	-0.18
Mof_C 	C 	0.0979	0.362	0.8648	0.433
Mof_C 	C 	0.9488	0.2691	0.4117	-0.17
Mof_C 	C 	0.8855	0.3615	0.472	0.432
Mof_C 	C 	0.0336	0.1459	0.4236	-0.181
Mof_C 	C 	0.0979	0.1352	0.4972	0.433
Mof_C 	C 	0.9488	0.5883	0.8574	-0.171
Mof_C 	C 	0.8855	0.528	0.8895	0.433
Mof_C 	C 	0.0336	0.5764	0.7223	-0.182
Mof_C 	C 	0.0979	0.5028	0.638	0.434
Mof_O 	O 	0.4792	0.4731	0.2343	-0.311
Mof_O 	O 	0.3782	0.5641	0.3954	-0.566
Mof_O 	O 	0.348	0.4227	0.3953	-0.43
Mof_O 	O 	0.5951	0.5861	0.2019	-0.524
Mof_O 	O 	0.6517	0.4592	0.0604	-0.418
Mof_O 	O 	0.4792	0.7612	0.5269	-0.311
Mof_O 	O 	0.3782	0.8313	0.4359	-0.566
Mof_O 	O 	0.348	0.9726	0.5773	-0.43
Mof_O 	O 	0.5951	0.6158	0.4139	-0.524
Mof_O 	O 	0.6517	0.6012	0.5408	-0.418
Mof_O 	O 	0.4792	0.7657	0.2388	-0.311
Mof_O 	O 	0.3782	0.6046	0.1687	-0.566
Mof_O 	O 	0.348	0.6047	0.0274	-0.43
Mof_O 	O 	0.5951	0.7981	0.3842	-0.524
Mof_O 	O 	0.6517	0.9396	0.3988	-0.418
Mof_O 	O 	0.0208	0.4731	0.2343	-0.311
Mof_O 	O 	0.1218	0.5641	0.3954	-0.566
Mof_O 	O 	0.152	0.4227	0.3953	-0.43
Mof_O 	O 	0.9049	0.5861	0.2019	-0.524
Mof_O 	O 	0.8483	0.4592	0.0604	-0.418
Mof_O 	O 	0.0208	0.7612	0.5269	-0.311
Mof_O 	O 	0.1218	0.8313	0.4359	-0.566
Mof_O 	O 	0.152	0.9726	0.5773	-0.43
Mof_O 	O 	0.9049	0.6158	0.4139	-0.524
Mof_O 	O 	0.8483	0.6012	0.5408	-0.418
Mof_O 	O 	0.0208	0.7657	0.2388	-0.311
Mof_O 	O 	0.1218	0.6046	0.1687	-0.566
Mof_O 	O 	0.152	0.6047	0.0274	-0.43
Mof_O 	O 	0.9049	0.7981	0.3842	-0.524
Mof_O 	O 	0.8483	0.9396	0.3988	-0.418
Mof_O 	O 	0.5208	0.2388	0.7657	-0.311
Mof_O 	O 	0.6218	0.1687	0.6046	-0.566
Mof_O 	O 	0.652	0.0274	0.6047	-0.43
Mof_O 	O 	0.4049	0.3842	0.7981	-0.524
Mof_O 	O 	0.3483	0.3988	0.9396	-0.418
Mof_O 	O 	0.5208	0.2343	0.4731	-0.311
Mof_O 	O 	0.6218	0.3954	0.5641	-0.566
Mof_O 	O 	0.652	0.3953	0.4227	-0.43
Mof_O 	O 	0.4049	0.2019	0.5861	-0.524
Mof_O 	O 	0.3483	0.0604	0.4592	-0.418
Mof_O 	O 	0.5208	0.5269	0.7612	-0.311
Mof_O 	O 	0.6218	0.4359	0.8313	-0.566
Mof_O 	O 	0.652	0.5773	0.9726	-0.43
Mof_O 	O 	0.4049	0.4139	0.6158	-0.524
Mof_O 	O 	0.3483	0.5408	0.6012	-0.418
Mof_O 	O 	0.9792	0.2388	0.7657	-0.311
Mof_O 	O 	0.8782	0.1687	0.6046	-0.566
Mof_O 	O 	0.848	0.0274	0.6047	-0.43
Mof_O 	O 	0.0951	0.3842	0.7981	-0.524
Mof_O 	O 	0.1517	0.3988	0.9396	-0.418
Mof_O 	O 	0.9792	0.2343	0.4731	-0.311
Mof_O 	O 	0.8782	0.3954	0.5641	-0.566
Mof_O 	O 	0.848	0.3953	0.4227	-0.43
Mof_O 	O 	0.0951	0.2019	0.5861	-0.524
Mof_O 	O 	0.1517	0.0604	0.4592	-0.418
Mof_O 	O 	0.9792	0.5269	0.7612	-0.31
Mof_O 	O 	0.8782	0.4359	0.8313	-0.566
Mof_O 	O 	0.848	0.5773	0.9726	-0.43
Mof_O 	O 	0.0951	0.4139	0.6158	-0.524
Mof_O 	O 	0.1517	0.5408	0.6012	-0.418
_end
