data_functionalizedCrystal
_audit_creation_method	'EQeq! by Chris Wilmer'
_symmetry_space_group_name_H-M	'P1'
_symmetry_Int_Tables_number	1
_symmetry_cell_setting	triclinic
loop_
_symmetry_equiv_pos_as_xyz
  x,y,z
_cell_length_a	23.2143
_cell_length_b	23.2143
_cell_length_c	23.2143
_cell_angle_alpha	109.471
_cell_angle_beta	109.471
_cell_angle_gamma	109.471
loop_
_atom_site_label
_atom_site_type_symbol
_atom_site_fract_x
_atom_site_fract_y
_atom_site_fract_z
_atom_site_charge
Mof_Nd	Nd	0.5	0	-0	1.835
Mof_Nd	Nd	0.5	0.5	0.5	2.437
Mof_Nd	Nd	-0	0.5	-0	1.776
Mof_Nd	Nd	-0	0	0.5	1.794
Mof_Nd	Nd	0.33167	0	-0	1.962
Mof_Nd	Nd	0.5	0.33167	0.5	2.625
Mof_Nd	Nd	-0	0.5	0.83167	2.328
Mof_Nd	Nd	0.16833	0.16833	0.66833	2.644
Mof_Nd	Nd	0.66833	0	-0	1.981
Mof_Nd	Nd	0.5	0.66833	0.5	2.632
Mof_Nd	Nd	-1.77073e-17	0.5	0.16833	2.207
Mof_Nd	Nd	0.83167	0.83167	0.33167	2.643
Mof_H 	H 	0.361	0.7662	0.9882	0.121
Mof_H 	H 	0.1421	0.7056	0.8165	0.037
Mof_H 	H 	0.2415	0.8101	0.858	0.069
Mof_H 	H 	0.278	0.3728	0.5118	0.077
Mof_H 	H 	0.3891	0.3256	0.6835	0.061
Mof_H 	H 	0.4521	0.3835	0.642	0.05
Mof_H 	H 	0.222	0.7338	0.0948	0.073
Mof_H 	H 	0.1109	0.7944	0.9365	0.04
Mof_H 	H 	0.0479	0.6899	0.9314	0.007
Mof_H 	H 	0.139	0.1272	0.4052	0.053
Mof_H 	H 	0.3579	0.1744	0.5635	0.054
Mof_H 	H 	0.2585	0.1165	0.5686	0.036
Mof_H 	H 	0.5948	0.222	0.2338	0.086
Mof_H 	H 	0.4365	0.1109	0.2944	0.039
Mof_H 	H 	0.4314	0.0479	0.1899	0.029
Mof_H 	H 	0.9052	0.139	0.6272	0.083
Mof_H 	H 	0.0635	0.3579	0.6744	0.071
Mof_H 	H 	0.0686	0.2585	0.6165	0.063
Mof_H 	H 	0.4882	0.361	0.2662	0.083
Mof_H 	H 	0.3165	0.1421	0.2056	0.03
Mof_H 	H 	0.358	0.2415	0.3101	0.042
Mof_H 	H 	0.0118	0.278	0.8728	0.067
Mof_H 	H 	0.1835	0.3891	0.8256	0.061
Mof_H 	H 	0.142	0.4521	0.8835	0.061
Mof_H 	H 	0.3728	0.0118	0.778	0.07
Mof_H 	H 	0.3256	0.1835	0.8891	0.065
Mof_H 	H 	0.3835	0.142	0.9521	0.088
Mof_H 	H 	0.7662	0.4882	0.861	0.11
Mof_H 	H 	0.7056	0.3165	0.6421	0.047
Mof_H 	H 	0.8101	0.358	0.7415	0.062
Mof_H 	H 	0.1272	0.9052	0.639	0.084
Mof_H 	H 	0.1744	0.0635	0.8579	0.076
Mof_H 	H 	0.1165	0.0686	0.7585	0.054
Mof_H 	H 	0.7338	0.5948	0.722	0.096
Mof_H 	H 	0.7944	0.4365	0.6109	0.064
Mof_H 	H 	0.6899	0.4314	0.5479	0.048
Mof_H 	H 	0.639	0.2338	0.0118	0.059
Mof_H 	H 	0.8579	0.2944	0.1835	0.07
Mof_H 	H 	0.7585	0.1899	0.142	0.054
Mof_H 	H 	0.722	0.6272	0.4882	0.093
Mof_H 	H 	0.6109	0.6744	0.3165	0.051
Mof_H 	H 	0.5479	0.6165	0.358	0.046
Mof_H 	H 	0.778	0.2662	0.9052	0.103
Mof_H 	H 	0.8891	0.2056	0.0635	0.071
Mof_H 	H 	0.9521	0.3101	0.0686	0.105
Mof_H 	H 	0.861	0.8728	0.5948	0.119
Mof_H 	H 	0.6421	0.8256	0.4365	0.057
Mof_H 	H 	0.7415	0.8835	0.4314	0.062
Mof_H 	H 	0.4052	0.778	0.7662	0.095
Mof_H 	H 	0.5635	0.8891	0.7056	0.066
Mof_H 	H 	0.5686	0.9521	0.8101	0.094
Mof_H 	H 	0.0948	0.861	0.3728	0.088
Mof_H 	H 	0.9365	0.6421	0.3256	0.041
Mof_H 	H 	0.9314	0.7415	0.3835	0.033
Mof_H 	H 	0.5118	0.639	0.7338	0.086
Mof_H 	H 	0.6835	0.8579	0.7944	0.084
Mof_H 	H 	0.642	0.7585	0.6899	0.052
Mof_H 	H 	0.9882	0.722	0.1272	0.114
Mof_H 	H 	0.8165	0.6109	0.1744	0.046
Mof_H 	H 	0.858	0.5479	0.1165	0.052
Mof_H 	H 	0.6272	0.9882	0.222	0.114
Mof_H 	H 	0.6744	0.8165	0.1109	0.04
Mof_H 	H 	0.6165	0.858	0.0479	0.038
Mof_H 	H 	0.2338	0.5118	0.139	0.066
Mof_H 	H 	0.2944	0.6835	0.3579	0.06
Mof_H 	H 	0.1899	0.642	0.2585	0.05
Mof_H 	H 	0.8728	0.0948	0.361	0.086
Mof_H 	H 	0.8256	0.9365	0.1421	0.038
Mof_H 	H 	0.8835	0.9314	0.2415	0.042
Mof_H 	H 	0.2662	0.4052	0.278	0.073
Mof_H 	H 	0.2056	0.5635	0.3891	0.049
Mof_H 	H 	0.3101	0.5686	0.4521	0.047
Mof_C 	C 	0.37333	0.86802	0.95669	0.36
Mof_C 	C 	0.31038	0.79925	0.92865	-0.008
Mof_C 	C 	0.12672	0.61121	0.85939	0.335
Mof_C 	C 	0.19123	0.67449	0.88014	-0.113
Mof_C 	C 	0.25617	0.69326	0.93165	0.152
Mof_C 	C 	0.31607	0.75482	0.95459	-0.089
Mof_C 	C 	0.18639	0.71839	0.85248	0.031
Mof_C 	C 	0.2454	0.78022	0.87688	-0.049
Mof_C 	C 	0.41133	0.41664	0.54331	0.409
Mof_C 	C 	0.3706	0.38173	0.57135	-0.071
Mof_C 	C 	0.25182	0.26733	0.64061	0.325
Mof_C 	C 	0.29435	0.31109	0.61986	-0.095
Mof_C 	C 	0.26161	0.32452	0.56835	0.112
Mof_C 	C 	0.30023	0.36148	0.54541	-0.064
Mof_C 	C 	0.36591	0.33391	0.64752	-0.003
Mof_C 	C 	0.40334	0.36852	0.62312	-0.014
Mof_C 	C 	0.08867	0.63198	0.00531	0.29
Mof_C 	C 	0.1294	0.70075	0.01113	-0.176
Mof_C 	C 	0.24818	0.88879	0.01551	0.209
Mof_C 	C 	0.20565	0.82551	0.01674	-0.172
Mof_C 	C 	0.23839	0.80674	0.06291	0.105
Mof_C 	C 	0.19977	0.74518	0.06125	-0.054
Mof_C 	C 	0.13409	0.78161	0.968	0.074
Mof_C 	C 	0.09666	0.71978	0.96518	0.092
Mof_C 	C 	0.12667	0.08336	0.49469	0.409
Mof_C 	C 	0.18962	0.11827	0.48887	-0.097
Mof_C 	C 	0.37328	0.23267	0.48449	0.319
Mof_C 	C 	0.30877	0.18891	0.48326	-0.098
Mof_C 	C 	0.24383	0.17548	0.43709	0.098
Mof_C 	C 	0.18393	0.13852	0.43875	-0.059
Mof_C 	C 	0.31361	0.16609	0.532	-0.016
Mof_C 	C 	0.2546	0.13148	0.53482	-0.012
Mof_C 	C 	0.50531	0.08867	0.13198	0.38
Mof_C 	C 	0.51113	0.1294	0.20075	-0.067
Mof_C 	C 	0.51551	0.24818	0.38879	0.325
Mof_C 	C 	0.51674	0.20565	0.32551	-0.104
Mof_C 	C 	0.56291	0.23839	0.30674	0.118
Mof_C 	C 	0.56125	0.19977	0.24518	-0.072
Mof_C 	C 	0.468	0.13409	0.28161	-0.002
Mof_C 	C 	0.46518	0.09666	0.21978	-0.027
Mof_C 	C 	0.99469	0.12667	0.58336	0.516
Mof_C 	C 	0.98887	0.18962	0.61827	0.028
Mof_C 	C 	0.98449	0.37328	0.73267	0.428
Mof_C 	C 	0.98326	0.30877	0.68891	0.002
Mof_C 	C 	0.93709	0.24383	0.67548	0.118
Mof_C 	C 	0.93875	0.18393	0.63852	-0.07
Mof_C 	C 	0.032	0.31361	0.66609	-0.107
Mof_C 	C 	0.03482	0.2546	0.63148	-0.125
Mof_C 	C 	0.45669	0.37333	0.36802	0.405
Mof_C 	C 	0.42865	0.31038	0.29925	-0.067
Mof_C 	C 	0.35939	0.12672	0.11121	0.327
Mof_C 	C 	0.38014	0.19123	0.17449	-0.12
Mof_C 	C 	0.43165	0.25617	0.19326	0.116
Mof_C 	C 	0.45459	0.31607	0.25482	-0.074
Mof_C 	C 	0.35248	0.18639	0.21839	0.005
Mof_C 	C 	0.37688	0.2454	0.28022	-0.032
Mof_C 	C 	0.04331	0.41133	0.91664	0.389
Mof_C 	C 	0.07135	0.3706	0.88173	-0.067
Mof_C 	C 	0.14061	0.25182	0.76733	0.324
Mof_C 	C 	0.11986	0.29435	0.81109	-0.101
Mof_C 	C 	0.06835	0.26161	0.82452	0.102
Mof_C 	C 	0.04541	0.30023	0.86148	-0.073
Mof_C 	C 	0.14752	0.36591	0.83391	0.002
Mof_C 	C 	0.12312	0.40334	0.86852	-0.025
Mof_C 	C 	0.41664	0.04331	0.91133	0.368
Mof_C 	C 	0.38173	0.07135	0.8706	-0.046
Mof_C 	C 	0.26733	0.14061	0.75182	0.325
Mof_C 	C 	0.31109	0.11986	0.79435	-0.106
Mof_C 	C 	0.32452	0.06835	0.76161	0.109
Mof_C 	C 	0.36148	0.04541	0.80023	-0.084
Mof_C 	C 	0.33391	0.14752	0.86591	0.014
Mof_C 	C 	0.36852	0.12312	0.90334	-0.041
Mof_C 	C 	0.86802	0.45669	0.87333	0.367
Mof_C 	C 	0.79925	0.42865	0.81038	-0.032
Mof_C 	C 	0.61121	0.35939	0.62672	0.328
Mof_C 	C 	0.67449	0.38014	0.69123	-0.11
Mof_C 	C 	0.69326	0.43165	0.75617	0.133
Mof_C 	C 	0.75482	0.45459	0.81607	-0.086
Mof_C 	C 	0.71839	0.35248	0.68639	0.016
Mof_C 	C 	0.78022	0.37688	0.7454	-0.043
Mof_C 	C 	0.08336	0.99469	0.62667	0.492
Mof_C 	C 	0.11827	0.98887	0.68962	0.003
Mof_C 	C 	0.23267	0.98449	0.87328	0.393
Mof_C 	C 	0.18891	0.98326	0.80877	-0.008
Mof_C 	C 	0.17548	0.93709	0.74383	0.112
Mof_C 	C 	0.13852	0.93875	0.68393	-0.069
Mof_C 	C 	0.16609	0.032	0.81361	-0.099
Mof_C 	C 	0.13148	0.03482	0.7546	-0.107
Mof_C 	C 	0.63198	0.50531	0.58867	0.409
Mof_C 	C 	0.70075	0.51113	0.6294	-0.067
Mof_C 	C 	0.88879	0.51551	0.74818	0.312
Mof_C 	C 	0.82551	0.51674	0.70565	-0.08
Mof_C 	C 	0.80674	0.56291	0.73839	0.122
Mof_C 	C 	0.74518	0.56125	0.69977	-0.061
Mof_C 	C 	0.78161	0.468	0.63409	-0.006
Mof_C 	C 	0.71978	0.46518	0.59666	-0.011
Mof_C 	C 	0.62667	0.13198	0.04331	0.383
Mof_C 	C 	0.68962	0.20075	0.07135	-0.08
Mof_C 	C 	0.87328	0.38879	0.14061	0.306
Mof_C 	C 	0.80877	0.32551	0.11986	-0.091
Mof_C 	C 	0.74383	0.30674	0.06835	0.093
Mof_C 	C 	0.68393	0.24518	0.04541	-0.069
Mof_C 	C 	0.81361	0.28161	0.14752	-0.012
Mof_C 	C 	0.7546	0.21978	0.12312	-0.02
Mof_C 	C 	0.58867	0.58336	0.45669	0.407
Mof_C 	C 	0.6294	0.61827	0.42865	-0.067
Mof_C 	C 	0.74818	0.73267	0.35939	0.323
Mof_C 	C 	0.70565	0.68891	0.38014	-0.1
Mof_C 	C 	0.73839	0.67548	0.43165	0.12
Mof_C 	C 	0.69977	0.63852	0.45459	-0.068
Mof_C 	C 	0.63409	0.66609	0.35248	-0.002
Mof_C 	C 	0.59666	0.63148	0.37688	-0.022
Mof_C 	C 	0.91133	0.36802	0.99469	0.468
Mof_C 	C 	0.8706	0.29925	0.98887	0.067
Mof_C 	C 	0.75182	0.11121	0.98449	0.425
Mof_C 	C 	0.79435	0.17449	0.98326	-0.024
Mof_C 	C 	0.76161	0.19326	0.93709	0.135
Mof_C 	C 	0.80023	0.25482	0.93875	-0.093
Mof_C 	C 	0.86591	0.21839	0.032	-0.069
Mof_C 	C 	0.90334	0.28022	0.03482	-0.144
Mof_C 	C 	0.87333	0.91664	0.50531	0.387
Mof_C 	C 	0.81038	0.88173	0.51113	-0.034
Mof_C 	C 	0.62672	0.76733	0.51551	0.33
Mof_C 	C 	0.69123	0.81109	0.51674	-0.1
Mof_C 	C 	0.75617	0.82452	0.56291	0.137
Mof_C 	C 	0.81607	0.86148	0.56125	-0.078
Mof_C 	C 	0.68639	0.83391	0.468	0.016
Mof_C 	C 	0.7454	0.86852	0.46518	-0.03
Mof_C 	C 	0.49469	0.91133	0.86802	0.36
Mof_C 	C 	0.48887	0.8706	0.79925	-0.019
Mof_C 	C 	0.48449	0.75182	0.61121	0.328
Mof_C 	C 	0.48326	0.79435	0.67449	-0.106
Mof_C 	C 	0.43709	0.76161	0.69326	0.13
Mof_C 	C 	0.43875	0.80023	0.75482	-0.088
Mof_C 	C 	0.532	0.86591	0.71839	0.025
Mof_C 	C 	0.53482	0.90334	0.78022	-0.045
Mof_C 	C 	0.00531	0.87333	0.41664	0.279
Mof_C 	C 	0.01113	0.81038	0.38173	-0.162
Mof_C 	C 	0.01551	0.62672	0.26733	0.205
Mof_C 	C 	0.01674	0.69123	0.31109	-0.197
Mof_C 	C 	0.06291	0.75617	0.32452	0.115
Mof_C 	C 	0.06125	0.81607	0.36148	-0.065
Mof_C 	C 	0.968	0.68639	0.33391	0.107
Mof_C 	C 	0.96518	0.7454	0.36852	0.089
Mof_C 	C 	0.54331	0.62667	0.63198	0.412
Mof_C 	C 	0.57135	0.68962	0.70075	-0.073
Mof_C 	C 	0.64061	0.87328	0.88879	0.301
Mof_C 	C 	0.61986	0.80877	0.82551	-0.068
Mof_C 	C 	0.56835	0.74383	0.80674	0.113
Mof_C 	C 	0.54541	0.68393	0.74518	-0.055
Mof_C 	C 	0.64752	0.81361	0.78161	-0.014
Mof_C 	C 	0.62312	0.7546	0.71978	0
Mof_C 	C 	0.95669	0.58867	0.08336	0.375
Mof_C 	C 	0.92865	0.6294	0.11827	-0.035
Mof_C 	C 	0.85939	0.74818	0.23267	0.327
Mof_C 	C 	0.88014	0.70565	0.18891	-0.103
Mof_C 	C 	0.93165	0.73839	0.17548	0.143
Mof_C 	C 	0.95459	0.69977	0.13852	-0.078
Mof_C 	C 	0.85248	0.63409	0.16609	0.012
Mof_C 	C 	0.87688	0.59666	0.13148	-0.034
Mof_C 	C 	0.58336	0.95669	0.08867	0.372
Mof_C 	C 	0.61827	0.92865	0.1294	-0.036
Mof_C 	C 	0.73267	0.85939	0.24818	0.329
Mof_C 	C 	0.68891	0.88014	0.20565	-0.104
Mof_C 	C 	0.67548	0.93165	0.23839	0.141
Mof_C 	C 	0.63852	0.95459	0.19977	-0.077
Mof_C 	C 	0.66609	0.85248	0.13409	0.01
Mof_C 	C 	0.63148	0.87688	0.09666	-0.033
Mof_C 	C 	0.13198	0.54331	0.12667	0.397
Mof_C 	C 	0.20075	0.57135	0.18962	-0.073
Mof_C 	C 	0.38879	0.64061	0.37328	0.323
Mof_C 	C 	0.32551	0.61986	0.30877	-0.094
Mof_C 	C 	0.30674	0.56835	0.24383	0.109
Mof_C 	C 	0.24518	0.54541	0.18393	-0.063
Mof_C 	C 	0.28161	0.64752	0.31361	-0.004
Mof_C 	C 	0.21978	0.62312	0.2546	-0.015
Mof_C 	C 	0.91664	0.00531	0.37333	0.302
Mof_C 	C 	0.88173	0.01113	0.31038	-0.142
Mof_C 	C 	0.76733	0.01551	0.12672	0.225
Mof_C 	C 	0.81109	0.01674	0.19123	-0.186
Mof_C 	C 	0.82452	0.06291	0.25617	0.119
Mof_C 	C 	0.86148	0.06125	0.31607	-0.064
Mof_C 	C 	0.83391	0.968	0.18639	0.1
Mof_C 	C 	0.86852	0.96518	0.2454	0.075
Mof_C 	C 	0.36802	0.49469	0.41133	0.408
Mof_C 	C 	0.29925	0.48887	0.3706	-0.072
Mof_C 	C 	0.11121	0.48449	0.25182	0.324
Mof_C 	C 	0.17449	0.48326	0.29435	-0.111
Mof_C 	C 	0.19326	0.43709	0.26161	0.108
Mof_C 	C 	0.25482	0.43875	0.30023	-0.069
Mof_C 	C 	0.21839	0.532	0.36591	-0.001
Mof_C 	C 	0.28022	0.53482	0.40334	-0.022
Mof_N 	N 	0.2704	0.6505	0.9609	-0.065
Mof_N 	N 	0.1896	0.3095	0.5391	-0.102
Mof_N 	N 	0.3104	0.8495	0.1199	-0.086
Mof_N 	N 	0.2296	0.1905	0.3801	-0.11
Mof_N 	N 	0.6199	0.3104	0.3495	-0.087
Mof_N 	N 	0.8801	0.2296	0.6905	-0.083
Mof_N 	N 	0.4609	0.2704	0.1505	-0.106
Mof_N 	N 	0.0391	0.1896	0.8095	-0.116
Mof_N 	N 	0.3095	0.0391	0.6896	-0.111
Mof_N 	N 	0.6505	0.4609	0.7704	-0.08
Mof_N 	N 	0.1905	0.8801	0.7296	-0.085
Mof_N 	N 	0.8495	0.6199	0.8104	-0.056
Mof_N 	N 	0.7296	0.3495	0.0391	-0.112
Mof_N 	N 	0.8104	0.6905	0.4609	-0.074
Mof_N 	N 	0.6896	0.1505	0.8801	-0.09
Mof_N 	N 	0.7704	0.8095	0.6199	-0.067
Mof_N 	N 	0.3801	0.6896	0.6505	-0.092
Mof_N 	N 	0.1199	0.7704	0.3095	-0.094
Mof_N 	N 	0.5391	0.7296	0.8495	-0.071
Mof_N 	N 	0.9609	0.8104	0.1905	-0.059
Mof_N 	N 	0.6905	0.9609	0.3104	-0.066
Mof_N 	N 	0.3495	0.5391	0.2296	-0.099
Mof_N 	N 	0.8095	0.1199	0.2704	-0.091
Mof_N 	N 	0.1505	0.3801	0.1896	-0.121
Mof_O 	O 	0.434	0.87913	0.99147	-0.294
Mof_O 	O 	0.3644	0.91522	0.94568	-0.459
Mof_O 	O 	0.13078	0.57514	0.88992	-0.406
Mof_O 	O 	0.06627	0.59345	0.81176	-0.458
Mof_O 	O 	0.38766	0.44253	0.50853	-0.425
Mof_O 	O 	0.46954	0.41872	0.55432	-0.653
Mof_O 	O 	0.18522	0.24086	0.61008	-0.453
Mof_O 	O 	0.28169	0.25451	0.68824	-0.451
Mof_O 	O 	0.11234	0.62087	0.05487	-0.377
Mof_O 	O 	0.03046	0.58478	0.94918	-0.522
Mof_O 	O 	0.31478	0.92486	0.05564	-0.346
Mof_O 	O 	0.21831	0.90655	0.97282	-0.267
Mof_O 	O 	0.066	0.05747	0.44513	-0.446
Mof_O 	O 	0.1356	0.08128	0.55082	-0.633
Mof_O 	O 	0.36922	0.25914	0.44436	-0.453
Mof_O 	O 	0.43373	0.24549	0.52718	-0.459
Mof_O 	O 	0.55487	0.11234	0.12087	-0.39
Mof_O 	O 	0.44918	0.03046	0.08478	-0.61
Mof_O 	O 	0.55564	0.31478	0.42486	-0.448
Mof_O 	O 	0.47282	0.21831	0.40655	-0.464
Mof_O 	O 	0.94513	0.066	0.55747	-0.409
Mof_O 	O 	0.05082	0.1356	0.58128	-0.708
Mof_O 	O 	0.94436	0.36922	0.75914	-0.408
Mof_O 	O 	0.02718	0.43373	0.74549	-0.528
Mof_O 	O 	0.49147	0.434	0.37913	-0.423
Mof_O 	O 	0.44568	0.3644	0.41522	-0.654
Mof_O 	O 	0.38992	0.13078	0.07514	-0.431
Mof_O 	O 	0.31176	0.06627	0.09345	-0.456
Mof_O 	O 	0.00853	0.38766	0.94253	-0.377
Mof_O 	O 	0.05432	0.46954	0.91872	-0.566
Mof_O 	O 	0.11008	0.18522	0.74086	-0.47
Mof_O 	O 	0.18824	0.28169	0.75451	-0.452
Mof_O 	O 	0.44253	0.00853	0.88766	-0.382
Mof_O 	O 	0.41872	0.05432	0.96954	-0.494
Mof_O 	O 	0.24086	0.11008	0.68522	-0.464
Mof_O 	O 	0.25451	0.18824	0.78169	-0.449
Mof_O 	O 	0.87913	0.49147	0.934	-0.299
Mof_O 	O 	0.91522	0.44568	0.8644	-0.511
Mof_O 	O 	0.57514	0.38992	0.63078	-0.447
Mof_O 	O 	0.59345	0.31176	0.56627	-0.459
Mof_O 	O 	0.05747	0.94513	0.566	-0.404
Mof_O 	O 	0.08128	0.05082	0.6356	-0.711
Mof_O 	O 	0.25914	0.94436	0.86922	-0.364
Mof_O 	O 	0.24549	0.02718	0.93373	-0.439
Mof_O 	O 	0.62087	0.55487	0.61234	-0.415
Mof_O 	O 	0.58478	0.44918	0.53046	-0.653
Mof_O 	O 	0.92486	0.55564	0.81478	-0.362
Mof_O 	O 	0.90655	0.47282	0.71831	-0.386
Mof_O 	O 	0.566	0.12087	0.00853	-0.423
Mof_O 	O 	0.6356	0.08478	0.05432	-0.591
Mof_O 	O 	0.86922	0.42486	0.11008	-0.412
Mof_O 	O 	0.93373	0.40655	0.18824	-0.373
Mof_O 	O 	0.61234	0.55747	0.49147	-0.418
Mof_O 	O 	0.53046	0.58128	0.44568	-0.654
Mof_O 	O 	0.81478	0.75914	0.38992	-0.442
Mof_O 	O 	0.71831	0.74549	0.31176	-0.461
Mof_O 	O 	0.88766	0.37913	0.94513	-0.336
Mof_O 	O 	0.96954	0.41522	0.05082	-0.579
Mof_O 	O 	0.68522	0.07514	0.94436	-0.409
Mof_O 	O 	0.78169	0.09345	0.02718	-0.506
Mof_O 	O 	0.934	0.94253	0.55487	-0.282
Mof_O 	O 	0.8644	0.91872	0.44918	-0.567
Mof_O 	O 	0.63078	0.74086	0.55564	-0.443
Mof_O 	O 	0.56627	0.75451	0.47282	-0.45
Mof_O 	O 	0.44513	0.88766	0.87913	-0.325
Mof_O 	O 	0.55082	0.96954	0.91522	-0.44
Mof_O 	O 	0.44436	0.68522	0.57514	-0.449
Mof_O 	O 	0.52718	0.78169	0.59345	-0.446
Mof_O 	O 	0.05487	0.934	0.44253	-0.32
Mof_O 	O 	0.94918	0.8644	0.41872	-0.491
Mof_O 	O 	0.05564	0.63078	0.24086	-0.41
Mof_O 	O 	0.97282	0.56627	0.25451	-0.3
Mof_O 	O 	0.50853	0.566	0.62087	-0.42
Mof_O 	O 	0.55432	0.6356	0.58478	-0.653
Mof_O 	O 	0.61008	0.86922	0.92486	-0.33
Mof_O 	O 	0.68824	0.93373	0.90655	-0.316
Mof_O 	O 	0.99147	0.61234	0.05747	-0.33
Mof_O 	O 	0.94568	0.53046	0.08128	-0.539
Mof_O 	O 	0.88992	0.81478	0.25914	-0.424
Mof_O 	O 	0.81176	0.71831	0.24549	-0.46
Mof_O 	O 	0.55747	0.99147	0.11234	-0.326
Mof_O 	O 	0.58128	0.94568	0.03046	-0.546
Mof_O 	O 	0.75914	0.88992	0.31478	-0.432
Mof_O 	O 	0.74549	0.81176	0.21831	-0.463
Mof_O 	O 	0.12087	0.50853	0.066	-0.417
Mof_O 	O 	0.08478	0.55432	0.1356	-0.599
Mof_O 	O 	0.42486	0.61008	0.36922	-0.449
Mof_O 	O 	0.40655	0.68824	0.43373	-0.45
Mof_O 	O 	0.94253	0.05487	0.434	-0.324
Mof_O 	O 	0.91872	0.94918	0.3644	-0.485
Mof_O 	O 	0.74086	0.05564	0.13078	-0.393
Mof_O 	O 	0.75451	0.97282	0.06627	-0.317
Mof_O 	O 	0.37913	0.44513	0.38766	-0.427
Mof_O 	O 	0.41522	0.55082	0.46954	-0.655
Mof_O 	O 	0.07514	0.44436	0.18522	-0.457
Mof_O 	O 	0.09345	0.52718	0.28169	-0.446
_end
