data_functionalizedCrystal
_audit_creation_method	'EQeq! by Chris Wilmer'
_symmetry_space_group_name_H-M	'P1'
_symmetry_Int_Tables_number	1
_symmetry_cell_setting	triclinic
loop_
_symmetry_equiv_pos_as_xyz
  x,y,z
_cell_length_a	10.266
_cell_length_b	10.266
_cell_length_c	9.6311
_cell_angle_alpha	90
_cell_angle_beta	90
_cell_angle_gamma	90
loop_
_atom_site_label
_atom_site_type_symbol
_atom_site_fract_x
_atom_site_fract_y
_atom_site_fract_z
_atom_site_charge
Mof_O 	O 	0.3044	0.4779	0.7788	-0.377
Mof_O 	O 	0.8044	0.9779	0.2788	-0.377
Mof_O 	O 	0.6956	0.5221	0.7788	-0.377
Mof_O 	O 	0.1956	0.0221	0.2788	-0.377
Mof_O 	O 	0.4779	0.6956	0.2212	-0.377
Mof_O 	O 	0.9779	0.1956	0.7212	-0.377
Mof_O 	O 	0.5221	0.3044	0.2212	-0.377
Mof_O 	O 	0.0221	0.8044	0.7212	-0.377
Mof_O 	O 	0.6956	0.4779	0.2212	-0.376
Mof_O 	O 	0.1956	0.9779	0.7212	-0.376
Mof_O 	O 	0.3044	0.5221	0.2212	-0.376
Mof_O 	O 	0.8044	0.0221	0.7212	-0.376
Mof_O 	O 	0.5221	0.6956	0.7788	-0.376
Mof_O 	O 	0.0221	0.1956	0.2788	-0.376
Mof_O 	O 	0.4779	0.3044	0.7788	-0.376
Mof_O 	O 	0.9779	0.8044	0.2788	-0.376
Mof_Fe	Fe	0.36725	0.36725	0.13121	0.857
Mof_P 	P 	0.33584	0.33584	0.8063	0.581
Mof_O 	O 	0.3004	0.3004	0.9548	-0.37
Mof_O 	O 	0.2564	0.2564	0.7074	-0.315
Mof_Fe	Fe	0.86725	0.86725	0.63121	0.857
Mof_P 	P 	0.83584	0.83584	0.3063	0.581
Mof_O 	O 	0.8004	0.8004	0.4548	-0.37
Mof_O 	O 	0.7564	0.7564	0.2074	-0.315
Mof_Fe	Fe	0.63275	0.63275	0.13121	0.857
Mof_P 	P 	0.66416	0.66416	0.8063	0.581
Mof_O 	O 	0.6996	0.6996	0.9548	-0.37
Mof_O 	O 	0.7436	0.7436	0.7074	-0.315
Mof_Fe	Fe	0.13275	0.13275	0.63121	0.857
Mof_P 	P 	0.16416	0.16416	0.3063	0.581
Mof_O 	O 	0.1996	0.1996	0.4548	-0.37
Mof_O 	O 	0.2436	0.2436	0.2074	-0.315
Mof_Fe	Fe	0.36725	0.63275	0.86879	0.857
Mof_P 	P 	0.33584	0.66416	0.1937	0.581
Mof_O 	O 	0.3004	0.6996	0.0452	-0.37
Mof_O 	O 	0.2564	0.7436	0.2926	-0.315
Mof_Fe	Fe	0.86725	0.13275	0.36879	0.857
Mof_P 	P 	0.83584	0.16416	0.6937	0.581
Mof_O 	O 	0.8004	0.1996	0.5452	-0.37
Mof_O 	O 	0.7564	0.2436	0.7926	-0.315
Mof_Fe	Fe	0.63275	0.36725	0.86879	0.857
Mof_P 	P 	0.66416	0.33584	0.1937	0.581
Mof_O 	O 	0.6996	0.3004	0.0452	-0.37
Mof_O 	O 	0.7436	0.2564	0.2926	-0.315
Mof_Fe	Fe	0.13275	0.86725	0.36879	0.857
Mof_P 	P 	0.16416	0.83584	0.6937	0.581
Mof_O 	O 	0.1996	0.8004	0.5452	-0.37
Mof_O 	O 	0.2436	0.7564	0.7926	-0.315
_end
