data_functionalizedCrystal
_audit_creation_method	'EQeq! by Chris Wilmer'
_symmetry_space_group_name_H-M	'P1'
_symmetry_Int_Tables_number	1
_symmetry_cell_setting	triclinic
loop_
_symmetry_equiv_pos_as_xyz
  x,y,z
_cell_length_a	14.879
_cell_length_b	18.852
_cell_length_c	30.836
_cell_angle_alpha	100.818
_cell_angle_beta	90
_cell_angle_gamma	113.243
loop_
_atom_site_label
_atom_site_type_symbol
_atom_site_fract_x
_atom_site_fract_y
_atom_site_fract_z
_atom_site_charge
Mof_Zn	Zn	0.5204	0.25208	0.55832	1.169
Mof_Zn	Zn	0.79975	0.84602	0.90331	1.167
Mof_Zn	Zn	0.18132	0.64824	0.22369	1.164
Mof_Zn	Zn	0.73168	0.25208	0.05832	1.168
Mof_Zn	Zn	0.04627	0.84602	0.40331	1.166
Mof_Zn	Zn	0.46692	0.64824	0.72369	1.164
Mof_H 	H 	0.7404	0.3234	0.5727	0.005
Mof_H 	H 	0.8673	0.4132	0.6244	0.082
Mof_H 	H 	0.6628	0.4626	0.6957	0.088
Mof_H 	H 	0.5426	0.3666	0.6454	0.004
Mof_H 	H 	0.3328	0.721	0.7605	-0.019
Mof_H 	H 	0.1712	0.7038	0.7612	0.089
Mof_H 	H 	0.1069	0.5066	0.67	0.083
Mof_H 	H 	0.27	0.5286	0.6697	-0.008
Mof_H 	H 	0.6917	0.693	0.836	-0.007
Mof_H 	H 	0.7246	0.6092	0.7806	0.077
Mof_H 	H 	0.0106	0.7386	0.8138	0.097
Mof_H 	H 	0.9709	0.8216	0.8653	-0.01
Mof_H 	H 	0.0082	0.9698	0.9337	-0.02
Mof_H 	H 	0.1445	0.9874	0.9746	0.084
Mof_H 	H 	0.9788	0.7978	0.0232	0.087
Mof_H 	H 	0.8502	0.7814	0.9742	-0.018
Mof_H 	H 	0.6327	0.1254	0.1063	-0.016
Mof_H 	H 	0.4792	0.0306	0.1104	0.088
Mof_H 	H 	0.3955	0.0564	0.9945	0.093
Mof_H 	H 	0.5426	0.1544	0.9951	-0.015
Mof_H 	H 	0.0772	0.6448	0.1373	-0.006
Mof_H 	H 	0.0887	0.726	0.0885	0.084
Mof_H 	H 	0.3436	0.8812	0.1562	0.084
Mof_H 	H 	0.3194	0.7996	0.2064	-0.022
Mof_H 	H 	0.583	0.3234	0.0727	0.005
Mof_H 	H 	0.5459	0.4132	0.1244	0.082
Mof_H 	H 	0.7998	0.4626	0.1957	0.088
Mof_H 	H 	0.824	0.3666	0.1454	0.004
Mof_H 	H 	0.3882	0.721	0.2605	-0.019
Mof_H 	H 	0.5326	0.7038	0.2612	0.089
Mof_H 	H 	0.3997	0.5066	0.17	0.083
Mof_H 	H 	0.2586	0.5286	0.1697	-0.008
Mof_H 	H 	0.0013	0.693	0.336	-0.009
Mof_H 	H 	0.8846	0.6092	0.2806	0.078
Mof_H 	H 	0.728	0.7386	0.3138	0.099
Mof_H 	H 	0.8507	0.8216	0.3653	-0.011
Mof_H 	H 	0.9616	0.9698	0.4337	-0.019
Mof_H 	H 	0.8429	0.9874	0.4746	0.085
Mof_H 	H 	0.819	0.7978	0.5232	0.087
Mof_H 	H 	0.9312	0.7814	0.4742	-0.019
Mof_H 	H 	0.4927	0.1254	0.6063	-0.016
Mof_H 	H 	0.5514	0.0306	0.6104	0.088
Mof_H 	H 	0.6609	0.0564	0.4945	0.092
Mof_H 	H 	0.6118	0.1544	0.4951	-0.015
Mof_H 	H 	0.5676	0.6448	0.6373	-0.006
Mof_H 	H 	0.6373	0.726	0.5885	0.084
Mof_H 	H 	0.5376	0.8812	0.6562	0.084
Mof_H 	H 	0.4802	0.7996	0.7064	-0.022
Mof_C 	C 	0.7249	0.35	0.5991	0.061
Mof_C 	C 	0.8011	0.4054	0.6286	-0.103
Mof_C 	C 	0.777	0.4502	0.6654	0.037
Mof_C 	C 	0.6806	0.4338	0.671	-0.115
Mof_C 	C 	0.6092	0.376	0.6411	0.062
Mof_C 	C 	0.856	0.5166	0.6946	0.099
Mof_C 	C 	0.0152	0.5866	0.7166	0.097
Mof_C 	C 	0.9002	0.6172	0.7511	0.109
Mof_C 	C 	0.2854	0.6752	0.7421	0.084
Mof_C 	C 	0.1899	0.6666	0.7425	-0.137
Mof_C 	C 	0.1225	0.6018	0.7146	0.074
Mof_C 	C 	0.1537	0.552	0.6891	-0.134
Mof_C 	C 	0.2501	0.5636	0.6895	0.073
Mof_C 	C 	0.7583	0.7032	0.831	0.068
Mof_C 	C 	0.7773	0.6536	0.7974	-0.126
Mof_C 	C 	0.8724	0.6678	0.788	0.063
Mof_C 	C 	0.9434	0.7292	0.8165	-0.131
Mof_C 	C 	0.919	0.7768	0.8483	0.095
Mof_C 	C 	0.0028	0.9318	0.951	0.105
Mof_C 	C 	0.0845	0.9442	0.9758	-0.154
Mof_C 	C 	0.0785	0.8934	0.0022	0.072
Mof_C 	C 	0.9879	0.8326	0.0034	-0.133
Mof_C 	C 	0.9113	0.8248	0.9747	0.085
Mof_C 	C 	0.1648	0.903	0.0307	0.078
Mof_C 	C 	0.3259	0.9654	0.0545	0.081
Mof_C 	C 	0.23	0.8654	0.0849	0.099
Mof_C 	C 	0.5821	0.1136	0.084	0.078
Mof_C 	C 	0.4925	0.0546	0.0853	-0.138
Mof_C 	C 	0.4225	0.0302	0.0515	0.079
Mof_C 	C 	0.4432	0.0702	0.0186	-0.16
Mof_C 	C 	0.53	0.129	0.0197	0.114
Mof_C 	C 	0.131	0.6946	0.1416	0.068
Mof_C 	C 	0.1379	0.7422	0.1122	-0.114
Mof_C 	C 	0.2172	0.8142	0.1173	0.066
Mof_C 	C 	0.2864	0.8334	0.1524	-0.121
Mof_C 	C 	0.2727	0.7838	0.1817	0.082
Mof_C 	C 	0.6251	0.35	0.0991	0.061
Mof_C 	C 	0.6043	0.4054	0.1286	-0.103
Mof_C 	C 	0.6732	0.4502	0.1654	0.037
Mof_C 	C 	0.7532	0.4338	0.171	-0.115
Mof_C 	C 	0.7668	0.376	0.1411	0.062
Mof_C 	C 	0.6606	0.5166	0.1946	0.099
Mof_C 	C 	0.5714	0.5866	0.2166	0.098
Mof_C 	C 	0.717	0.6172	0.2511	0.108
Mof_C 	C 	0.3898	0.6752	0.2421	0.084
Mof_C 	C 	0.4767	0.6666	0.2425	-0.137
Mof_C 	C 	0.4793	0.6018	0.2146	0.074
Mof_C 	C 	0.3983	0.552	0.1891	-0.133
Mof_C 	C 	0.3135	0.5636	0.1895	0.073
Mof_C 	C 	0.9449	0.7032	0.331	0.07
Mof_C 	C 	0.8763	0.6536	0.2974	-0.128
Mof_C 	C 	0.7954	0.6678	0.288	0.065
Mof_C 	C 	0.7858	0.7292	0.3165	-0.135
Mof_C 	C 	0.8578	0.7768	0.3483	0.097
Mof_C 	C 	0.929	0.9318	0.451	0.108
Mof_C 	C 	0.8597	0.9442	0.4758	-0.155
Mof_C 	C 	0.8149	0.8934	0.5022	0.073
Mof_C 	C 	0.8447	0.8326	0.5034	-0.135
Mof_C 	C 	0.9135	0.8248	0.4747	0.086
Mof_C 	C 	0.7382	0.903	0.5307	0.078
Mof_C 	C 	0.6395	0.9654	0.5545	0.082
Mof_C 	C 	0.6354	0.8654	0.5849	0.1
Mof_C 	C 	0.5315	0.1136	0.584	0.078
Mof_C 	C 	0.5621	0.0546	0.5853	-0.137
Mof_C 	C 	0.6077	0.0302	0.5515	0.077
Mof_C 	C 	0.627	0.0702	0.5186	-0.158
Mof_C 	C 	0.599	0.129	0.5197	0.114
Mof_C 	C 	0.5636	0.6946	0.6416	0.068
Mof_C 	C 	0.6043	0.7422	0.6122	-0.114
Mof_C 	C 	0.597	0.8142	0.6173	0.066
Mof_C 	C 	0.547	0.8334	0.6524	-0.121
Mof_C 	C 	0.5111	0.7838	0.6817	0.082
Mof_I 	I 	0.56088	0.30456	0.48805	-0.369
Mof_I 	I 	0.36528	0.22224	0.59451	-0.395
Mof_I 	I 	0.83392	0.96206	0.86617	-0.351
Mof_I 	I 	0.64656	0.77362	0.93928	-0.376
Mof_I 	I 	0.03311	0.52196	0.19774	-0.385
Mof_I 	I 	0.20194	0.73952	0.29935	-0.394
Mof_I 	I 	0.74368	0.30456	0.98805	-0.369
Mof_I 	I 	0.85696	0.22224	0.09451	-0.396
Mof_I 	I 	0.12814	0.96206	0.36617	-0.354
Mof_I 	I 	0.12706	0.77362	0.43928	-0.377
Mof_I 	I 	0.48885	0.52196	0.69774	-0.386
Mof_I 	I 	0.53758	0.73952	0.79935	-0.394
Mof_N 	N 	0.6291	0.3318	0.6059	-0.265
Mof_N 	N 	0.9488	0.5278	0.688	-0.142
Mof_N 	N 	0.9937	0.6372	0.748	-0.135
Mof_N 	N 	0.8282	0.5572	0.7265	-0.148
Mof_N 	N 	0.3176	0.6254	0.7184	-0.273
Mof_N 	N 	0.8291	0.7658	0.8573	-0.277
Mof_N 	N 	0.9173	0.8732	0.9483	-0.283
Mof_N 	N 	0.2521	0.9578	0.026	-0.145
Mof_N 	N 	0.3185	0.9216	0.084	-0.135
Mof_N 	N 	0.1489	0.8522	0.0585	-0.132
Mof_N 	N 	0.6007	0.1554	0.0518	-0.282
Mof_N 	N 	0.1976	0.7156	0.1767	-0.277
Mof_N 	N 	0.7027	0.3318	0.1059	-0.265
Mof_N 	N 	0.579	0.5278	0.188	-0.142
Mof_N 	N 	0.6435	0.6372	0.248	-0.136
Mof_N 	N 	0.729	0.5572	0.2265	-0.148
Mof_N 	N 	0.3078	0.6254	0.2184	-0.273
Mof_N 	N 	0.9367	0.7658	0.3573	-0.278
Mof_N 	N 	0.9559	0.8732	0.4483	-0.285
Mof_N 	N 	0.7057	0.9578	0.526	-0.145
Mof_N 	N 	0.6031	0.9216	0.584	-0.135
Mof_N 	N 	0.7033	0.8522	0.5585	-0.131
Mof_N 	N 	0.5547	0.1554	0.5518	-0.282
Mof_N 	N 	0.518	0.7156	0.6767	-0.277
Mof_Zn	Zn	0.26832	0.74792	0.94168	1.168
Mof_Zn	Zn	0.95373	0.15398	0.59669	1.166
Mof_Zn	Zn	0.53308	0.35176	0.27631	1.164
Mof_Zn	Zn	0.4796	0.74792	0.44168	1.168
Mof_Zn	Zn	0.20025	0.15398	0.09669	1.166
Mof_Zn	Zn	0.81868	0.35176	0.77631	1.164
Mof_H 	H 	0.417	0.6766	0.9273	0.005
Mof_H 	H 	0.4541	0.5868	0.8756	0.082
Mof_H 	H 	0.2002	0.5374	0.8043	0.088
Mof_H 	H 	0.176	0.6334	0.8546	0.004
Mof_H 	H 	0.6118	0.279	0.7395	-0.019
Mof_H 	H 	0.4674	0.2962	0.7388	0.089
Mof_H 	H 	0.6003	0.4934	0.83	0.083
Mof_H 	H 	0.7414	0.4714	0.8303	-0.008
Mof_H 	H 	0.9987	0.307	0.664	-0.009
Mof_H 	H 	0.1154	0.3908	0.7194	0.078
Mof_H 	H 	0.272	0.2614	0.6862	0.099
Mof_H 	H 	0.1493	0.1784	0.6347	-0.011
Mof_H 	H 	0.0384	0.0302	0.5663	-0.019
Mof_H 	H 	0.1571	0.0126	0.5254	0.085
Mof_H 	H 	0.181	0.2022	0.4768	0.087
Mof_H 	H 	0.0688	0.2186	0.5258	-0.019
Mof_H 	H 	0.5073	0.8746	0.3937	-0.016
Mof_H 	H 	0.4486	0.9694	0.3896	0.088
Mof_H 	H 	0.3391	0.9436	0.5055	0.092
Mof_H 	H 	0.3882	0.8456	0.5049	-0.015
Mof_H 	H 	0.4324	0.3552	0.3627	-0.006
Mof_H 	H 	0.3627	0.274	0.4115	0.084
Mof_H 	H 	0.4624	0.1188	0.3438	0.084
Mof_H 	H 	0.5198	0.2004	0.2936	-0.022
Mof_H 	H 	0.2596	0.6766	0.4273	0.005
Mof_H 	H 	0.1327	0.5868	0.3756	0.082
Mof_H 	H 	0.3372	0.5374	0.3043	0.088
Mof_H 	H 	0.4574	0.6334	0.3546	0.004
Mof_H 	H 	0.6672	0.279	0.2395	-0.019
Mof_H 	H 	0.8288	0.2962	0.2388	0.089
Mof_H 	H 	0.8931	0.4934	0.33	0.083
Mof_H 	H 	0.73	0.4714	0.3303	-0.008
Mof_H 	H 	0.3083	0.307	0.164	-0.007
Mof_H 	H 	0.2754	0.3908	0.2194	0.077
Mof_H 	H 	0.9894	0.2614	0.1862	0.097
Mof_H 	H 	0.0291	0.1784	0.1347	-0.01
Mof_H 	H 	0.9918	0.0302	0.0663	-0.02
Mof_H 	H 	0.8555	0.0126	0.0254	0.084
Mof_H 	H 	0.0212	0.2022	0.9768	0.087
Mof_H 	H 	0.1498	0.2186	0.0258	-0.018
Mof_H 	H 	0.3673	0.8746	0.8937	-0.016
Mof_H 	H 	0.5208	0.9694	0.8896	0.088
Mof_H 	H 	0.6045	0.9436	0.0055	0.093
Mof_H 	H 	0.4574	0.8456	0.0049	-0.015
Mof_H 	H 	0.9228	0.3552	0.8627	-0.006
Mof_H 	H 	0.9113	0.274	0.9115	0.084
Mof_H 	H 	0.6564	0.1188	0.8438	0.084
Mof_H 	H 	0.6806	0.2004	0.7936	-0.022
Mof_C 	C 	0.3749	0.65	0.9009	0.061
Mof_C 	C 	0.3957	0.5946	0.8714	-0.103
Mof_C 	C 	0.3268	0.5498	0.8346	0.037
Mof_C 	C 	0.2468	0.5662	0.829	-0.115
Mof_C 	C 	0.2332	0.624	0.8589	0.062
Mof_C 	C 	0.3394	0.4834	0.8054	0.099
Mof_C 	C 	0.4286	0.4134	0.7834	0.098
Mof_C 	C 	0.283	0.3828	0.7489	0.108
Mof_C 	C 	0.6102	0.3248	0.7579	0.084
Mof_C 	C 	0.5233	0.3334	0.7575	-0.137
Mof_C 	C 	0.5207	0.3982	0.7854	0.074
Mof_C 	C 	0.6017	0.448	0.8109	-0.133
Mof_C 	C 	0.6865	0.4364	0.8105	0.073
Mof_C 	C 	0.0551	0.2968	0.669	0.07
Mof_C 	C 	0.1237	0.3464	0.7026	-0.128
Mof_C 	C 	0.2046	0.3322	0.712	0.065
Mof_C 	C 	0.2142	0.2708	0.6835	-0.135
Mof_C 	C 	0.1422	0.2232	0.6517	0.097
Mof_C 	C 	0.071	0.0682	0.549	0.108
Mof_C 	C 	0.1403	0.0558	0.5242	-0.155
Mof_C 	C 	0.1851	0.1066	0.4978	0.073
Mof_C 	C 	0.1553	0.1674	0.4966	-0.135
Mof_C 	C 	0.0865	0.1752	0.5253	0.086
Mof_C 	C 	0.2618	0.097	0.4693	0.078
Mof_C 	C 	0.3605	0.0346	0.4455	0.082
Mof_C 	C 	0.3646	0.1346	0.4151	0.1
Mof_C 	C 	0.4685	0.8864	0.416	0.078
Mof_C 	C 	0.4379	0.9454	0.4147	-0.137
Mof_C 	C 	0.3923	0.9698	0.4485	0.077
Mof_C 	C 	0.373	0.9298	0.4814	-0.158
Mof_C 	C 	0.401	0.871	0.4803	0.114
Mof_C 	C 	0.4364	0.3054	0.3584	0.068
Mof_C 	C 	0.3957	0.2578	0.3878	-0.114
Mof_C 	C 	0.403	0.1858	0.3827	0.066
Mof_C 	C 	0.453	0.1666	0.3476	-0.121
Mof_C 	C 	0.4889	0.2162	0.3183	0.082
Mof_C 	C 	0.2751	0.65	0.4009	0.061
Mof_C 	C 	0.1989	0.5946	0.3714	-0.103
Mof_C 	C 	0.223	0.5498	0.3346	0.037
Mof_C 	C 	0.3194	0.5662	0.329	-0.115
Mof_C 	C 	0.3908	0.624	0.3589	0.062
Mof_C 	C 	0.144	0.4834	0.3054	0.099
Mof_C 	C 	0.9848	0.4134	0.2834	0.097
Mof_C 	C 	0.0998	0.3828	0.2489	0.109
Mof_C 	C 	0.7146	0.3248	0.2579	0.084
Mof_C 	C 	0.8101	0.3334	0.2575	-0.137
Mof_C 	C 	0.8775	0.3982	0.2854	0.074
Mof_C 	C 	0.8463	0.448	0.3109	-0.134
Mof_C 	C 	0.7499	0.4364	0.3105	0.073
Mof_C 	C 	0.2417	0.2968	0.169	0.068
Mof_C 	C 	0.2227	0.3464	0.2026	-0.126
Mof_C 	C 	0.1276	0.3322	0.212	0.063
Mof_C 	C 	0.0566	0.2708	0.1835	-0.131
Mof_C 	C 	0.081	0.2232	0.1517	0.095
Mof_C 	C 	0.9972	0.0682	0.049	0.105
Mof_C 	C 	0.9155	0.0558	0.0242	-0.154
Mof_C 	C 	0.9215	0.1066	0.9978	0.072
Mof_C 	C 	0.0121	0.1674	0.9966	-0.133
Mof_C 	C 	0.0887	0.1752	0.0253	0.085
Mof_C 	C 	0.8352	0.097	0.9693	0.078
Mof_C 	C 	0.6741	0.0346	0.9455	0.081
Mof_C 	C 	0.77	0.1346	0.9151	0.099
Mof_C 	C 	0.4179	0.8864	0.916	0.078
Mof_C 	C 	0.5075	0.9454	0.9147	-0.138
Mof_C 	C 	0.5775	0.9698	0.9485	0.079
Mof_C 	C 	0.5568	0.9298	0.9814	-0.16
Mof_C 	C 	0.47	0.871	0.9803	0.114
Mof_C 	C 	0.869	0.3054	0.8584	0.068
Mof_C 	C 	0.8621	0.2578	0.8878	-0.114
Mof_C 	C 	0.7828	0.1858	0.8827	0.066
Mof_C 	C 	0.7136	0.1666	0.8476	-0.121
Mof_C 	C 	0.7273	0.2162	0.8183	0.082
Mof_I 	I 	0.25632	0.69544	0.01195	-0.369
Mof_I 	I 	0.14304	0.77776	0.90549	-0.396
Mof_I 	I 	0.87186	0.03794	0.63383	-0.354
Mof_I 	I 	0.87294	0.22638	0.56072	-0.377
Mof_I 	I 	0.51115	0.47804	0.30226	-0.386
Mof_I 	I 	0.46242	0.26048	0.20065	-0.394
Mof_I 	I 	0.43912	0.69544	0.51195	-0.369
Mof_I 	I 	0.63472	0.77776	0.40549	-0.395
Mof_I 	I 	0.16608	0.03794	0.13383	-0.351
Mof_I 	I 	0.35344	0.22638	0.06072	-0.376
Mof_I 	I 	0.96689	0.47804	0.80226	-0.385
Mof_I 	I 	0.79806	0.26048	0.70065	-0.394
Mof_N 	N 	0.2973	0.6682	0.8941	-0.265
Mof_N 	N 	0.421	0.4722	0.812	-0.142
Mof_N 	N 	0.3565	0.3628	0.752	-0.136
Mof_N 	N 	0.271	0.4428	0.7735	-0.148
Mof_N 	N 	0.6922	0.3746	0.7816	-0.273
Mof_N 	N 	0.0633	0.2342	0.6427	-0.278
Mof_N 	N 	0.0441	0.1268	0.5517	-0.285
Mof_N 	N 	0.2943	0.0422	0.474	-0.145
Mof_N 	N 	0.3969	0.0784	0.416	-0.135
Mof_N 	N 	0.2967	0.1478	0.4415	-0.131
Mof_N 	N 	0.4453	0.8446	0.4482	-0.282
Mof_N 	N 	0.482	0.2844	0.3233	-0.277
Mof_N 	N 	0.3709	0.6682	0.3941	-0.265
Mof_N 	N 	0.0512	0.4722	0.312	-0.142
Mof_N 	N 	0.0063	0.3628	0.252	-0.135
Mof_N 	N 	0.1718	0.4428	0.2735	-0.148
Mof_N 	N 	0.6824	0.3746	0.2816	-0.273
Mof_N 	N 	0.1709	0.2342	0.1427	-0.277
Mof_N 	N 	0.0827	0.1268	0.0517	-0.283
Mof_N 	N 	0.7479	0.0422	0.974	-0.145
Mof_N 	N 	0.6815	0.0784	0.916	-0.135
Mof_N 	N 	0.8511	0.1478	0.9415	-0.132
Mof_N 	N 	0.3993	0.8446	0.9482	-0.282
Mof_N 	N 	0.8024	0.2844	0.8233	-0.277
_end
