data_functionalizedCrystal
_audit_creation_method	'EQeq! by Chris Wilmer'
_symmetry_space_group_name_H-M	'P1'
_symmetry_Int_Tables_number	1
_symmetry_cell_setting	triclinic
loop_
_symmetry_equiv_pos_as_xyz
  x,y,z
_cell_length_a	27.0818
_cell_length_b	12.0891
_cell_length_c	36.3156
_cell_angle_alpha	90
_cell_angle_beta	130.03
_cell_angle_gamma	90
loop_
_atom_site_label
_atom_site_type_symbol
_atom_site_fract_x
_atom_site_fract_y
_atom_site_fract_z
_atom_site_charge
Mof_Zn	Zn	0.29686	0.46232	0.25795	1.226
Mof_Zn	Zn	0.20632	0.68683	0.23521	1.227
Mof_Si	Si	0.08127	0.52562	0.95115	0.974
Mof_H 	H 	0.2051	0.4669	0.0442	-0.042
Mof_H 	H 	0.252	0.4866	0.1241	0.08
Mof_H 	H 	0.1047	0.6757	0.0861	0.081
Mof_H 	H 	0.0565	0.6548	0.0063	-0.038
Mof_H 	H 	0.0883	0.3439	0.0082	-0.116
Mof_H 	H 	0.041	0.1778	0.9969	0.196
Mof_H 	H 	0.9439	0.2015	0.8568	0.171
Mof_H 	H 	0.9862	0.3766	0.8669	-0.107
Mof_H 	H 	0.9042	0.0678	0.8894	0.315
Mof_H 	H 	0.9679	0.0041	0.9106	0.326
Mof_H 	H 	0.9542	0.0416	0.9446	0.311
Mof_H 	H 	0.9447	0.5357	0.9057	-0.03
Mof_H 	H 	0.8579	0.6513	0.8525	0.076
Mof_H 	H 	0.9745	0.8595	0.854	0.071
Mof_H 	H 	0.0607	0.7419	0.9063	-0.029
Mof_H 	H 	0.0792	0.4844	0.8712	-0.173
Mof_H 	H 	0.6414	0.0221	0.8508	0.25
Mof_H 	H 	0.7722	0.1634	0.9777	0.236
Mof_H 	H 	0.2078	0.6272	0.997	-0.169
Mof_H 	H 	0.7307	0.1575	0.8676	0.385
Mof_H 	H 	0.7862	0.1888	0.9216	0.376
Mof_H 	H 	0.7816	0.0683	0.9037	0.364
Mof_H 	H 	0.1368	0.1508	0.2921	-0.032
Mof_H 	H 	0.2044	0.2665	0.2921	0.062
Mof_H 	H 	0.0598	0.4823	0.2104	0.067
Mof_H 	H 	0.9921	0.3648	0.2097	-0.006
Mof_H 	H 	0.3848	0.6822	0.1496	-0.171
Mof_H 	H 	0.8343	0.0902	0.0781	0.26
Mof_H 	H 	0.9657	0.8559	0.1459	0.275
Mof_H 	H 	0.0168	0.946	0.218	-0.199
Mof_H 	H 	0.8494	0.9637	0.0331	0.38
Mof_H 	H 	0.8946	0.8607	0.0594	0.389
Mof_H 	H 	0.8266	0.8621	0.0456	0.379
Mof_C 	C 	0.12535	0.5593	0.01586	-0.352
Mof_C 	C 	0.18441	0.5086	0.05227	0.138
Mof_C 	C 	0.21255	0.52	0.10033	-0.135
Mof_C 	C 	0.18215	0.5807	0.11289	-0.021
Mof_C 	C 	0.12446	0.6326	0.07762	-0.14
Mof_C 	C 	0.09601	0.621	0.02975	0.127
Mof_C 	C 	0.21024	0.5868	0.16425	0.368
Mof_C 	C 	0.04651	0.3828	0.94021	-0.512
Mof_C 	C 	0.0585	0.3178	0.9769	0.378
Mof_C 	C 	0.029	0.2163	0.97	-0.564
Mof_C 	C 	0.9833	0.1714	0.9255	0.533
Mof_C 	C 	0.9714	0.2318	0.8876	-0.5
Mof_C 	C 	0.9992	0.337	0.8938	0.356
Mof_C 	C 	0.9492	0.0609	0.9167	-1.032
Mof_C 	C 	0.01199	0.6246	0.91116	-0.354
Mof_C 	C 	0.95092	0.6	0.89508	0.15
Mof_C 	C 	0.89873	0.6696	0.86337	-0.124
Mof_C 	C 	0.90805	0.7661	0.84818	-0.031
Mof_C 	C 	0.96846	0.7941	0.86413	-0.103
Mof_C 	C 	0.02001	0.7232	0.8955	0.104
Mof_C 	C 	0.85118	0.8382	0.81169	0.377
Mof_C 	C 	0.1374	0.5447	0.9375	-0.604
Mof_C 	C 	0.1187	0.5193	0.8936	0.52
Mof_C 	C 	0.656	0.0431	0.881	-0.656
Mof_C 	C 	0.7145	0.0976	0.9122	0.664
Mof_C 	C 	0.7331	0.1269	0.9556	-0.661
Mof_C 	C 	0.1945	0.6029	0.9675	0.491
Mof_C 	C 	0.7572	0.1312	0.9001	-1.201
Mof_C 	C 	0.05713	0.2459	0.25174	-0.337
Mof_C 	C 	0.12106	0.2179	0.27579	0.128
Mof_C 	C 	0.16193	0.2875	0.27611	-0.13
Mof_C 	C 	0.13956	0.3889	0.2526	-0.039
Mof_C 	C 	0.07573	0.4161	0.22731	-0.098
Mof_C 	C 	0.03503	0.3452	0.22694	0.09
Mof_C 	C 	0.18368	0.465	0.25332	0.38
Mof_C 	C 	0.95439	0.0695	0.19347	-0.611
Mof_C 	C 	0.90071	0.1138	0.14975	0.513
Mof_C 	C 	0.8703	0.0588	0.1065	-0.685
Mof_C 	C 	0.8928	0.9589	0.1051	0.717
Mof_C 	C 	0.9477	0.9207	0.1465	-0.73
Mof_C 	C 	0.9787	0.9751	0.1903	0.573
Mof_C 	C 	0.863	0.9064	0.0562	-1.237
Mof_O 	O 	0.25037	0.512	0.19213	-0.501
Mof_O 	O 	0.19233	0.6644	0.17606	-0.506
Mof_O 	O 	0.86218	0.9288	0.80151	-0.511
Mof_O 	O 	0.79637	0.8023	0.79403	-0.519
Mof_O 	O 	0.23768	0.4275	0.26979	-0.53
Mof_O 	O 	0.16308	0.5608	0.2372	-0.5
Mof_O 	O 	0.33245	0.31986	0.26536	-0.665
Mof_H 	H 	0.38067	0.31986	0.28849	0.151
Mof_Zn	Zn	0.79686	0.96232	0.25795	1.223
Mof_Zn	Zn	0.70632	0.18683	0.23521	1.226
Mof_Si	Si	0.58127	0.02562	0.95115	0.941
Mof_H 	H 	0.7051	0.9669	0.0442	-0.043
Mof_H 	H 	0.752	0.9866	0.1241	0.071
Mof_H 	H 	0.6047	0.1757	0.0861	0.077
Mof_H 	H 	0.5565	0.1548	0.0063	-0.031
Mof_H 	H 	0.5883	0.8439	0.0082	-0.103
Mof_H 	H 	0.541	0.6778	0.9969	0.175
Mof_H 	H 	0.4439	0.7015	0.8568	0.152
Mof_H 	H 	0.4862	0.8766	0.8669	-0.09
Mof_H 	H 	0.4042	0.5678	0.8894	0.293
Mof_H 	H 	0.4679	0.5041	0.9106	0.301
Mof_H 	H 	0.4542	0.5416	0.9446	0.285
Mof_H 	H 	0.4447	0.0357	0.9057	-0.025
Mof_H 	H 	0.3579	0.1513	0.8525	0.072
Mof_H 	H 	0.4745	0.3595	0.854	0.072
Mof_H 	H 	0.5607	0.2419	0.9063	-0.032
Mof_H 	H 	0.5792	0.9844	0.8712	-0.16
Mof_H 	H 	0.1414	0.5221	0.8508	0.256
Mof_H 	H 	0.2722	0.6634	0.9777	0.24
Mof_H 	H 	0.7078	0.1272	0.997	-0.164
Mof_H 	H 	0.2307	0.6575	0.8676	0.389
Mof_H 	H 	0.2862	0.6888	0.9216	0.38
Mof_H 	H 	0.2816	0.5683	0.9037	0.368
Mof_H 	H 	0.6368	0.6508	0.2921	-0.045
Mof_H 	H 	0.7044	0.7665	0.2921	0.073
Mof_H 	H 	0.5598	0.9823	0.2104	0.086
Mof_H 	H 	0.4921	0.8648	0.2097	-0.043
Mof_H 	H 	0.8848	0.1822	0.1496	-0.161
Mof_H 	H 	0.3343	0.5902	0.0781	0.266
Mof_H 	H 	0.4657	0.3559	0.1459	0.272
Mof_H 	H 	0.5168	0.446	0.218	-0.188
Mof_H 	H 	0.3494	0.4637	0.0331	0.384
Mof_H 	H 	0.3946	0.3607	0.0594	0.39
Mof_H 	H 	0.3266	0.3621	0.0456	0.384
Mof_C 	C 	0.62535	0.0593	0.01586	-0.337
Mof_C 	C 	0.68441	0.0086	0.05227	0.13
Mof_C 	C 	0.71255	0.02	0.10033	-0.12
Mof_C 	C 	0.68215	0.0807	0.11289	-0.029
Mof_C 	C 	0.62446	0.1326	0.07762	-0.13
Mof_C 	C 	0.59601	0.121	0.02975	0.116
Mof_C 	C 	0.71024	0.0868	0.16425	0.371
Mof_C 	C 	0.54651	0.8828	0.94021	-0.46
Mof_C 	C 	0.5585	0.8178	0.9769	0.332
Mof_C 	C 	0.529	0.7163	0.97	-0.493
Mof_C 	C 	0.4833	0.6714	0.9255	0.463
Mof_C 	C 	0.4714	0.7318	0.8876	-0.45
Mof_C 	C 	0.4992	0.837	0.8938	0.294
Mof_C 	C 	0.4492	0.5609	0.9167	-0.957
Mof_C 	C 	0.51199	0.1246	0.91116	-0.33
Mof_C 	C 	0.45092	0.1	0.89508	0.121
Mof_C 	C 	0.39873	0.1696	0.86337	-0.115
Mof_C 	C 	0.40805	0.2661	0.84818	-0.032
Mof_C 	C 	0.46846	0.2941	0.86413	-0.121
Mof_C 	C 	0.52001	0.2232	0.8955	0.118
Mof_C 	C 	0.35118	0.3382	0.81169	0.378
Mof_C 	C 	0.6374	0.0447	0.9375	-0.586
Mof_C 	C 	0.6187	0.0193	0.8936	0.498
Mof_C 	C 	0.156	0.5431	0.881	-0.673
Mof_C 	C 	0.2145	0.5976	0.9122	0.676
Mof_C 	C 	0.2331	0.6269	0.9556	-0.674
Mof_C 	C 	0.6945	0.1029	0.9675	0.476
Mof_C 	C 	0.2572	0.6312	0.9001	-1.215
Mof_C 	C 	0.55713	0.7459	0.25174	-0.384
Mof_C 	C 	0.62106	0.7179	0.27579	0.166
Mof_C 	C 	0.66193	0.7875	0.27611	-0.161
Mof_C 	C 	0.63956	0.8889	0.2526	-0.011
Mof_C 	C 	0.57573	0.9161	0.22731	-0.143
Mof_C 	C 	0.53503	0.8452	0.22694	0.161
Mof_C 	C 	0.68368	0.965	0.25332	0.365
Mof_C 	C 	0.45439	0.5695	0.19347	-0.648
Mof_C 	C 	0.40071	0.6138	0.14975	0.536
Mof_C 	C 	0.3703	0.5588	0.1065	-0.708
Mof_C 	C 	0.3928	0.4589	0.1051	0.731
Mof_C 	C 	0.4477	0.4207	0.1465	-0.737
Mof_C 	C 	0.4787	0.4751	0.1903	0.569
Mof_C 	C 	0.363	0.4064	0.0562	-1.251
Mof_O 	O 	0.75037	0.012	0.19213	-0.5
Mof_O 	O 	0.69233	0.1644	0.17606	-0.506
Mof_O 	O 	0.36218	0.4288	0.80151	-0.513
Mof_O 	O 	0.29637	0.3023	0.79403	-0.52
Mof_O 	O 	0.73768	0.9275	0.26979	-0.528
Mof_O 	O 	0.66308	0.0608	0.2372	-0.493
Mof_O 	O 	0.83245	0.81986	0.26536	-0.666
Mof_H 	H 	0.88067	0.81986	0.28849	0.151
Mof_Zn	Zn	0.70314	0.46232	0.24205	1.225
Mof_Zn	Zn	0.79368	0.68683	0.26479	1.226
Mof_Si	Si	0.91873	0.52562	0.54885	0.934
Mof_H 	H 	0.7949	0.4669	0.4558	-0.04
Mof_H 	H 	0.748	0.4866	0.3759	0.076
Mof_H 	H 	0.8953	0.6757	0.4139	0.078
Mof_H 	H 	0.9435	0.6548	0.4937	-0.027
Mof_H 	H 	0.9117	0.3439	0.4918	-0.086
Mof_H 	H 	0.959	0.1778	0.5031	0.156
Mof_H 	H 	0.0561	0.2015	0.6432	0.133
Mof_H 	H 	0.0138	0.3766	0.6331	-0.076
Mof_H 	H 	0.0958	0.0678	0.6106	0.27
Mof_H 	H 	0.0321	0.0041	0.5894	0.274
Mof_H 	H 	0.0458	0.0416	0.5554	0.259
Mof_H 	H 	0.0553	0.5357	0.5943	-0.019
Mof_H 	H 	0.1421	0.6513	0.6475	0.071
Mof_H 	H 	0.0255	0.8595	0.646	0.077
Mof_H 	H 	0.9393	0.7419	0.5937	-0.036
Mof_H 	H 	0.9208	0.4844	0.6288	-0.161
Mof_H 	H 	0.3586	0.0221	0.6492	0.252
Mof_H 	H 	0.2278	0.1634	0.5223	0.237
Mof_H 	H 	0.7922	0.6272	0.503	-0.163
Mof_H 	H 	0.2693	0.1575	0.6324	0.387
Mof_H 	H 	0.2138	0.1888	0.5784	0.377
Mof_H 	H 	0.2184	0.0683	0.5963	0.365
Mof_H 	H 	0.8632	0.1508	0.2079	-0.039
Mof_H 	H 	0.7956	0.2665	0.2079	0.071
Mof_H 	H 	0.9402	0.4823	0.2896	0.095
Mof_H 	H 	0.0079	0.3648	0.2903	-0.06
Mof_H 	H 	0.6152	0.6822	0.3504	-0.171
Mof_H 	H 	0.1657	0.0902	0.4219	0.244
Mof_H 	H 	0.0343	0.8559	0.3541	0.239
Mof_H 	H 	0.9832	0.946	0.282	-0.143
Mof_H 	H 	0.1506	0.9637	0.4669	0.36
Mof_H 	H 	0.1054	0.8607	0.4406	0.366
Mof_H 	H 	0.1734	0.8621	0.4544	0.361
Mof_C 	C 	0.87465	0.5593	0.48414	-0.336
Mof_C 	C 	0.81559	0.5086	0.44773	0.125
Mof_C 	C 	0.78745	0.52	0.39967	-0.126
Mof_C 	C 	0.81785	0.5807	0.38711	-0.028
Mof_C 	C 	0.87554	0.6326	0.42238	-0.129
Mof_C 	C 	0.90399	0.621	0.47025	0.115
Mof_C 	C 	0.78976	0.5868	0.33575	0.371
Mof_C 	C 	0.95349	0.3828	0.55979	-0.417
Mof_C 	C 	0.9415	0.3178	0.5231	0.287
Mof_C 	C 	0.971	0.2163	0.53	-0.421
Mof_C 	C 	0.0167	0.1714	0.5745	0.395
Mof_C 	C 	0.0286	0.2318	0.6124	-0.401
Mof_C 	C 	0.0008	0.337	0.6062	0.236
Mof_C 	C 	0.0508	0.0609	0.5833	-0.881
Mof_C 	C 	0.98801	0.6246	0.58884	-0.313
Mof_C 	C 	0.04908	0.6	0.60492	0.098
Mof_C 	C 	0.10127	0.6696	0.63663	-0.11
Mof_C 	C 	0.09195	0.7661	0.65182	-0.027
Mof_C 	C 	0.03154	0.7941	0.63587	-0.145
Mof_C 	C 	0.97999	0.7232	0.6045	0.139
Mof_C 	C 	0.14882	0.8382	0.68831	0.376
Mof_C 	C 	0.8626	0.5447	0.5625	-0.584
Mof_C 	C 	0.8813	0.5193	0.6064	0.504
Mof_C 	C 	0.344	0.0431	0.619	-0.661
Mof_C 	C 	0.2855	0.0976	0.5878	0.667
Mof_C 	C 	0.2669	0.1269	0.5444	-0.663
Mof_C 	C 	0.8055	0.6029	0.5325	0.476
Mof_C 	C 	0.2428	0.1312	0.5999	-1.205
Mof_C 	C 	0.94287	0.2459	0.24826	-0.361
Mof_C 	C 	0.87894	0.2179	0.22421	0.154
Mof_C 	C 	0.83807	0.2875	0.22389	-0.156
Mof_C 	C 	0.86044	0.3889	0.2474	-0.009
Mof_C 	C 	0.92427	0.4161	0.27269	-0.152
Mof_C 	C 	0.96497	0.3452	0.27306	0.183
Mof_C 	C 	0.81632	0.465	0.24668	0.369
Mof_C 	C 	0.04561	0.0695	0.30653	-0.581
Mof_C 	C 	0.09929	0.1138	0.35025	0.475
Mof_C 	C 	0.1297	0.0588	0.3935	-0.645
Mof_C 	C 	0.1072	0.9589	0.3949	0.663
Mof_C 	C 	0.0523	0.9207	0.3535	-0.66
Mof_C 	C 	0.0213	0.9751	0.3097	0.47
Mof_C 	C 	0.137	0.9064	0.4438	-1.176
Mof_O 	O 	0.74963	0.512	0.30787	-0.502
Mof_O 	O 	0.80767	0.6644	0.32394	-0.507
Mof_O 	O 	0.13782	0.9288	0.69849	-0.51
Mof_O 	O 	0.20363	0.8023	0.70597	-0.519
Mof_O 	O 	0.76232	0.4275	0.23021	-0.528
Mof_O 	O 	0.83692	0.5608	0.2628	-0.496
Mof_O 	O 	0.66755	0.31986	0.23464	-0.665
Mof_H 	H 	0.61933	0.31986	0.21151	0.151
Mof_Zn	Zn	0.20314	0.96232	0.24205	1.224
Mof_Zn	Zn	0.29368	0.18683	0.26479	1.226
Mof_Si	Si	0.41873	0.02562	0.54885	0.952
Mof_H 	H 	0.2949	0.9669	0.4558	-0.042
Mof_H 	H 	0.248	0.9866	0.3759	0.073
Mof_H 	H 	0.3953	0.1757	0.4139	0.078
Mof_H 	H 	0.4435	0.1548	0.4937	-0.033
Mof_H 	H 	0.4117	0.8439	0.4918	-0.104
Mof_H 	H 	0.459	0.6778	0.5031	0.177
Mof_H 	H 	0.5561	0.7015	0.6432	0.153
Mof_H 	H 	0.5138	0.8766	0.6331	-0.092
Mof_H 	H 	0.5958	0.5678	0.6106	0.294
Mof_H 	H 	0.5321	0.5041	0.5894	0.302
Mof_H 	H 	0.5458	0.5416	0.5554	0.286
Mof_H 	H 	0.5553	0.0357	0.5943	-0.025
Mof_H 	H 	0.6421	0.1513	0.6475	0.073
Mof_H 	H 	0.5255	0.3595	0.646	0.073
Mof_H 	H 	0.4393	0.2419	0.5937	-0.032
Mof_H 	H 	0.4208	0.9844	0.6288	-0.163
Mof_H 	H 	0.8586	0.5221	0.6492	0.252
Mof_H 	H 	0.7278	0.6634	0.5223	0.236
Mof_H 	H 	0.2922	0.1272	0.503	-0.164
Mof_H 	H 	0.7693	0.6575	0.6324	0.386
Mof_H 	H 	0.7138	0.6888	0.5784	0.376
Mof_H 	H 	0.7184	0.5683	0.5963	0.365
Mof_H 	H 	0.3632	0.6508	0.2079	-0.045
Mof_H 	H 	0.2956	0.7665	0.2079	0.073
Mof_H 	H 	0.4402	0.9823	0.2896	0.086
Mof_H 	H 	0.5079	0.8648	0.2903	-0.043
Mof_H 	H 	0.1152	0.1822	0.3504	-0.15
Mof_H 	H 	0.6657	0.5902	0.4219	0.266
Mof_H 	H 	0.5343	0.3559	0.3541	0.271
Mof_H 	H 	0.4832	0.446	0.282	-0.188
Mof_H 	H 	0.6506	0.4637	0.4669	0.382
Mof_H 	H 	0.6054	0.3607	0.4406	0.389
Mof_H 	H 	0.6734	0.3621	0.4544	0.382
Mof_C 	C 	0.37465	0.0593	0.48414	-0.344
Mof_C 	C 	0.31559	0.0086	0.44773	0.13
Mof_C 	C 	0.28745	0.02	0.39967	-0.124
Mof_C 	C 	0.31785	0.0807	0.38711	-0.026
Mof_C 	C 	0.37554	0.1326	0.42238	-0.133
Mof_C 	C 	0.40399	0.121	0.47025	0.12
Mof_C 	C 	0.28976	0.0868	0.33575	0.371
Mof_C 	C 	0.45349	0.8828	0.55979	-0.465
Mof_C 	C 	0.4415	0.8178	0.5231	0.336
Mof_C 	C 	0.471	0.7163	0.53	-0.496
Mof_C 	C 	0.5167	0.6714	0.5745	0.466
Mof_C 	C 	0.5286	0.7318	0.6124	-0.452
Mof_C 	C 	0.5008	0.837	0.6062	0.297
Mof_C 	C 	0.5508	0.5609	0.5833	-0.96
Mof_C 	C 	0.48801	0.1246	0.58884	-0.333
Mof_C 	C 	0.54908	0.1	0.60492	0.123
Mof_C 	C 	0.60127	0.1696	0.63663	-0.117
Mof_C 	C 	0.59195	0.2661	0.65182	-0.03
Mof_C 	C 	0.53154	0.2941	0.63587	-0.123
Mof_C 	C 	0.47999	0.2232	0.6045	0.12
Mof_C 	C 	0.64882	0.3382	0.68831	0.377
Mof_C 	C 	0.3626	0.0447	0.5625	-0.59
Mof_C 	C 	0.3813	0.0193	0.6064	0.504
Mof_C 	C 	0.844	0.5431	0.619	-0.659
Mof_C 	C 	0.7855	0.5976	0.5878	0.666
Mof_C 	C 	0.7669	0.6269	0.5444	-0.661
Mof_C 	C 	0.3055	0.1029	0.5325	0.48
Mof_C 	C 	0.7428	0.6312	0.5999	-1.203
Mof_C 	C 	0.44287	0.7459	0.24826	-0.384
Mof_C 	C 	0.37894	0.7179	0.22421	0.166
Mof_C 	C 	0.33807	0.7875	0.22389	-0.161
Mof_C 	C 	0.36044	0.8889	0.2474	-0.01
Mof_C 	C 	0.42427	0.9161	0.27269	-0.143
Mof_C 	C 	0.46497	0.8452	0.27306	0.161
Mof_C 	C 	0.31632	0.965	0.24668	0.366
Mof_C 	C 	0.54561	0.5695	0.30653	-0.647
Mof_C 	C 	0.59929	0.6138	0.35025	0.535
Mof_C 	C 	0.6297	0.5588	0.3935	-0.707
Mof_C 	C 	0.6072	0.4589	0.3949	0.729
Mof_C 	C 	0.5523	0.4207	0.3535	-0.736
Mof_C 	C 	0.5213	0.4751	0.3097	0.568
Mof_C 	C 	0.637	0.4064	0.4438	-1.248
Mof_O 	O 	0.24963	0.012	0.30787	-0.5
Mof_O 	O 	0.30767	0.1644	0.32394	-0.506
Mof_O 	O 	0.63782	0.4288	0.69849	-0.512
Mof_O 	O 	0.70363	0.3023	0.70597	-0.52
Mof_O 	O 	0.26232	0.9275	0.23021	-0.527
Mof_O 	O 	0.33692	0.0608	0.2628	-0.493
Mof_O 	O 	0.16755	0.81986	0.23464	-0.666
Mof_H 	H 	0.11933	0.81986	0.21151	0.151
Mof_Zn	Zn	0.70314	0.53768	0.74205	1.225
Mof_Zn	Zn	0.79368	0.31317	0.76479	1.226
Mof_Si	Si	0.91873	0.47438	0.04885	0.939
Mof_H 	H 	0.7949	0.5331	0.9558	-0.041
Mof_H 	H 	0.748	0.5134	0.8759	0.076
Mof_H 	H 	0.8953	0.3243	0.9139	0.078
Mof_H 	H 	0.9435	0.3452	0.9937	-0.029
Mof_H 	H 	0.9117	0.6561	0.9918	-0.088
Mof_H 	H 	0.959	0.8222	0.0031	0.157
Mof_H 	H 	0.0561	0.7985	0.1432	0.134
Mof_H 	H 	0.0138	0.6234	0.1331	-0.077
Mof_H 	H 	0.0958	0.9322	0.1106	0.271
Mof_H 	H 	0.0321	0.9959	0.0894	0.276
Mof_H 	H 	0.0458	0.9584	0.0554	0.26
Mof_H 	H 	0.0553	0.4643	0.0943	-0.02
Mof_H 	H 	0.1421	0.3487	0.1475	0.071
Mof_H 	H 	0.0255	0.1405	0.146	0.078
Mof_H 	H 	0.9393	0.2581	0.0937	-0.036
Mof_H 	H 	0.9208	0.5156	0.1288	-0.162
Mof_H 	H 	0.3586	0.9779	0.1492	0.25
Mof_H 	H 	0.2278	0.8366	0.0223	0.237
Mof_H 	H 	0.7922	0.3728	0.003	-0.163
Mof_H 	H 	0.2693	0.8425	0.1324	0.386
Mof_H 	H 	0.2138	0.8112	0.0784	0.376
Mof_H 	H 	0.2184	0.9317	0.0963	0.364
Mof_H 	H 	0.8632	0.8492	0.7079	-0.039
Mof_H 	H 	0.7956	0.7335	0.7079	0.071
Mof_H 	H 	0.9402	0.5177	0.7896	0.095
Mof_H 	H 	0.0079	0.6352	0.7903	-0.06
Mof_H 	H 	0.6152	0.3178	0.8504	-0.171
Mof_H 	H 	0.1657	0.9098	0.9219	0.242
Mof_H 	H 	0.0343	0.1441	0.8541	0.236
Mof_H 	H 	0.9832	0.054	0.782	-0.14
Mof_H 	H 	0.1506	0.0363	0.9669	0.356
Mof_H 	H 	0.1054	0.1393	0.9406	0.362
Mof_H 	H 	0.1734	0.1379	0.9544	0.357
Mof_C 	C 	0.87465	0.4407	0.98414	-0.34
Mof_C 	C 	0.81559	0.4914	0.94773	0.127
Mof_C 	C 	0.78745	0.48	0.89967	-0.127
Mof_C 	C 	0.81785	0.4193	0.88711	-0.027
Mof_C 	C 	0.87554	0.3674	0.92238	-0.131
Mof_C 	C 	0.90399	0.379	0.97025	0.117
Mof_C 	C 	0.78976	0.4132	0.83575	0.37
Mof_C 	C 	0.95349	0.6172	0.05979	-0.421
Mof_C 	C 	0.9415	0.6822	0.0231	0.292
Mof_C 	C 	0.971	0.7837	0.03	-0.426
Mof_C 	C 	0.0167	0.8286	0.0745	0.399
Mof_C 	C 	0.0286	0.7682	0.1124	-0.404
Mof_C 	C 	0.0008	0.663	0.1062	0.24
Mof_C 	C 	0.0508	0.9391	0.0833	-0.886
Mof_C 	C 	0.98801	0.3754	0.08884	-0.315
Mof_C 	C 	0.04908	0.4	0.10492	0.1
Mof_C 	C 	0.10127	0.3304	0.13663	-0.111
Mof_C 	C 	0.09195	0.2339	0.15182	-0.026
Mof_C 	C 	0.03154	0.2059	0.13587	-0.146
Mof_C 	C 	0.97999	0.2768	0.1045	0.141
Mof_C 	C 	0.14882	0.1618	0.18831	0.376
Mof_C 	C 	0.8626	0.4553	0.0625	-0.586
Mof_C 	C 	0.8813	0.4807	0.1064	0.505
Mof_C 	C 	0.344	0.9569	0.119	-0.657
Mof_C 	C 	0.2855	0.9024	0.0878	0.665
Mof_C 	C 	0.2669	0.8731	0.0444	-0.661
Mof_C 	C 	0.8055	0.3971	0.0325	0.478
Mof_C 	C 	0.2428	0.8688	0.0999	-1.202
Mof_C 	C 	0.94287	0.7541	0.74826	-0.362
Mof_C 	C 	0.87894	0.7821	0.72421	0.155
Mof_C 	C 	0.83807	0.7125	0.72389	-0.157
Mof_C 	C 	0.86044	0.6111	0.7474	-0.009
Mof_C 	C 	0.92427	0.5839	0.77269	-0.152
Mof_C 	C 	0.96497	0.6548	0.77306	0.183
Mof_C 	C 	0.81632	0.535	0.74668	0.369
Mof_C 	C 	0.04561	0.9305	0.80653	-0.576
Mof_C 	C 	0.09929	0.8862	0.85025	0.469
Mof_C 	C 	0.1297	0.9412	0.8935	-0.635
Mof_C 	C 	0.1072	0.0411	0.8949	0.653
Mof_C 	C 	0.0523	0.0793	0.8535	-0.651
Mof_C 	C 	0.0213	0.0249	0.8097	0.461
Mof_C 	C 	0.137	0.0936	0.9438	-1.164
Mof_O 	O 	0.74963	0.488	0.80787	-0.502
Mof_O 	O 	0.80767	0.3356	0.82394	-0.507
Mof_O 	O 	0.13782	0.0712	0.19849	-0.51
Mof_O 	O 	0.20363	0.1977	0.20597	-0.518
Mof_O 	O 	0.76232	0.5725	0.73021	-0.528
Mof_O 	O 	0.83692	0.4392	0.7628	-0.496
Mof_O 	O 	0.66755	0.68014	0.73464	-0.665
Mof_H 	H 	0.61933	0.68014	0.71151	0.151
Mof_Zn	Zn	0.20314	0.03768	0.74205	1.224
Mof_Zn	Zn	0.29368	0.81317	0.76479	1.226
Mof_Si	Si	0.41873	0.97438	0.04885	0.95
Mof_H 	H 	0.2949	0.0331	0.9558	-0.045
Mof_H 	H 	0.248	0.0134	0.8759	0.072
Mof_H 	H 	0.3953	0.8243	0.9139	0.078
Mof_H 	H 	0.4435	0.8452	0.9937	-0.033
Mof_H 	H 	0.4117	0.1561	0.9918	-0.109
Mof_H 	H 	0.459	0.3222	0.0031	0.18
Mof_H 	H 	0.5561	0.2985	0.1432	0.154
Mof_H 	H 	0.5138	0.1234	0.1331	-0.092
Mof_H 	H 	0.5958	0.4322	0.1106	0.295
Mof_H 	H 	0.5321	0.4959	0.0894	0.303
Mof_H 	H 	0.5458	0.4584	0.0554	0.288
Mof_H 	H 	0.5553	0.9643	0.0943	-0.026
Mof_H 	H 	0.6421	0.8487	0.1475	0.072
Mof_H 	H 	0.5255	0.6405	0.146	0.072
Mof_H 	H 	0.4393	0.7581	0.0937	-0.032
Mof_H 	H 	0.4208	0.0156	0.1288	-0.16
Mof_H 	H 	0.8586	0.4779	0.1492	0.253
Mof_H 	H 	0.7278	0.3366	0.0223	0.237
Mof_H 	H 	0.2922	0.8728	0.003	-0.163
Mof_H 	H 	0.7693	0.3425	0.1324	0.387
Mof_H 	H 	0.7138	0.3112	0.0784	0.377
Mof_H 	H 	0.7184	0.4317	0.0963	0.365
Mof_H 	H 	0.3632	0.3492	0.7079	-0.045
Mof_H 	H 	0.2956	0.2335	0.7079	0.073
Mof_H 	H 	0.4402	0.0177	0.7896	0.086
Mof_H 	H 	0.5079	0.1352	0.7903	-0.043
Mof_H 	H 	0.1152	0.8178	0.8504	-0.148
Mof_H 	H 	0.6657	0.4098	0.9219	0.265
Mof_H 	H 	0.5343	0.6441	0.8541	0.271
Mof_H 	H 	0.4832	0.554	0.782	-0.187
Mof_H 	H 	0.6506	0.5363	0.9669	0.381
Mof_H 	H 	0.6054	0.6393	0.9406	0.389
Mof_H 	H 	0.6734	0.6379	0.9544	0.381
Mof_C 	C 	0.37465	0.9407	0.98414	-0.343
Mof_C 	C 	0.31559	0.9914	0.94773	0.134
Mof_C 	C 	0.28745	0.98	0.89967	-0.123
Mof_C 	C 	0.31785	0.9193	0.88711	-0.027
Mof_C 	C 	0.37554	0.8674	0.92238	-0.133
Mof_C 	C 	0.40399	0.879	0.97025	0.12
Mof_C 	C 	0.28976	0.9132	0.83575	0.371
Mof_C 	C 	0.45349	0.1172	0.05979	-0.467
Mof_C 	C 	0.4415	0.1822	0.0231	0.345
Mof_C 	C 	0.471	0.2837	0.03	-0.502
Mof_C 	C 	0.5167	0.3286	0.0745	0.47
Mof_C 	C 	0.5286	0.2682	0.1124	-0.455
Mof_C 	C 	0.5008	0.163	0.1062	0.299
Mof_C 	C 	0.5508	0.4391	0.0833	-0.965
Mof_C 	C 	0.48801	0.8754	0.08884	-0.333
Mof_C 	C 	0.54908	0.9	0.10492	0.123
Mof_C 	C 	0.60127	0.8304	0.13663	-0.117
Mof_C 	C 	0.59195	0.7339	0.15182	-0.03
Mof_C 	C 	0.53154	0.7059	0.13587	-0.123
Mof_C 	C 	0.47999	0.7768	0.1045	0.12
Mof_C 	C 	0.64882	0.6618	0.18831	0.377
Mof_C 	C 	0.3626	0.9553	0.0625	-0.588
Mof_C 	C 	0.3813	0.9807	0.1064	0.5
Mof_C 	C 	0.844	0.4569	0.119	-0.66
Mof_C 	C 	0.7855	0.4024	0.0878	0.667
Mof_C 	C 	0.7669	0.3731	0.0444	-0.662
Mof_C 	C 	0.3055	0.8971	0.0325	0.478
Mof_C 	C 	0.7428	0.3688	0.0999	-1.205
Mof_C 	C 	0.44287	0.2541	0.74826	-0.384
Mof_C 	C 	0.37894	0.2821	0.72421	0.166
Mof_C 	C 	0.33807	0.2125	0.72389	-0.161
Mof_C 	C 	0.36044	0.1111	0.7474	-0.01
Mof_C 	C 	0.42427	0.0839	0.77269	-0.143
Mof_C 	C 	0.46497	0.1548	0.77306	0.16
Mof_C 	C 	0.31632	0.035	0.74668	0.365
Mof_C 	C 	0.54561	0.4305	0.80653	-0.647
Mof_C 	C 	0.59929	0.3862	0.85025	0.534
Mof_C 	C 	0.6297	0.4412	0.8935	-0.706
Mof_C 	C 	0.6072	0.5411	0.8949	0.728
Mof_C 	C 	0.5523	0.5793	0.8535	-0.735
Mof_C 	C 	0.5213	0.5249	0.8097	0.568
Mof_C 	C 	0.637	0.5936	0.9438	-1.246
Mof_O 	O 	0.24963	0.988	0.80787	-0.5
Mof_O 	O 	0.30767	0.8356	0.82394	-0.506
Mof_O 	O 	0.63782	0.5712	0.19849	-0.513
Mof_O 	O 	0.70363	0.6977	0.20597	-0.52
Mof_O 	O 	0.26232	0.0725	0.73021	-0.527
Mof_O 	O 	0.33692	0.9392	0.7628	-0.493
Mof_O 	O 	0.16755	0.18014	0.73464	-0.666
Mof_H 	H 	0.11933	0.18014	0.71151	0.151
Mof_Zn	Zn	0.29686	0.53768	0.75795	1.225
Mof_Zn	Zn	0.20632	0.31317	0.73521	1.226
Mof_Si	Si	0.08127	0.47438	0.45115	0.977
Mof_H 	H 	0.2051	0.5331	0.5442	-0.045
Mof_H 	H 	0.252	0.5134	0.6241	0.08
Mof_H 	H 	0.1047	0.3243	0.5861	0.08
Mof_H 	H 	0.0565	0.3452	0.5063	-0.04
Mof_H 	H 	0.0883	0.6561	0.5082	-0.122
Mof_H 	H 	0.041	0.8222	0.4969	0.198
Mof_H 	H 	0.9439	0.7985	0.3568	0.172
Mof_H 	H 	0.9862	0.6234	0.3669	-0.108
Mof_H 	H 	0.9042	0.9322	0.3894	0.316
Mof_H 	H 	0.9679	0.9959	0.4106	0.327
Mof_H 	H 	0.9542	0.9584	0.4446	0.313
Mof_H 	H 	0.9447	0.4643	0.4057	-0.031
Mof_H 	H 	0.8579	0.3487	0.3525	0.076
Mof_H 	H 	0.9745	0.1405	0.354	0.071
Mof_H 	H 	0.0607	0.2581	0.4063	-0.029
Mof_H 	H 	0.0792	0.5156	0.3712	-0.173
Mof_H 	H 	0.6414	0.9779	0.3508	0.252
Mof_H 	H 	0.7722	0.8366	0.4777	0.238
Mof_H 	H 	0.2078	0.3728	0.497	-0.169
Mof_H 	H 	0.7307	0.8425	0.3676	0.387
Mof_H 	H 	0.7862	0.8112	0.4216	0.377
Mof_H 	H 	0.7816	0.9317	0.4037	0.365
Mof_H 	H 	0.1368	0.8492	0.7921	-0.032
Mof_H 	H 	0.2044	0.7335	0.7921	0.062
Mof_H 	H 	0.0598	0.5177	0.7104	0.068
Mof_H 	H 	0.9921	0.6352	0.7097	-0.007
Mof_H 	H 	0.3848	0.3178	0.6496	-0.171
Mof_H 	H 	0.8343	0.9098	0.5781	0.263
Mof_H 	H 	0.9657	0.1441	0.6459	0.279
Mof_H 	H 	0.0168	0.054	0.718	-0.204
Mof_H 	H 	0.8494	0.0363	0.5331	0.384
Mof_H 	H 	0.8946	0.1393	0.5594	0.392
Mof_H 	H 	0.8266	0.1379	0.5456	0.382
Mof_C 	C 	0.12535	0.4407	0.51586	-0.355
Mof_C 	C 	0.18441	0.4914	0.55227	0.139
Mof_C 	C 	0.21255	0.48	0.60033	-0.136
Mof_C 	C 	0.18215	0.4193	0.61289	-0.02
Mof_C 	C 	0.12446	0.3674	0.57762	-0.142
Mof_C 	C 	0.09601	0.379	0.52975	0.129
Mof_C 	C 	0.21024	0.4132	0.66425	0.368
Mof_C 	C 	0.04651	0.6172	0.44021	-0.516
Mof_C 	C 	0.0585	0.6822	0.4769	0.386
Mof_C 	C 	0.029	0.7837	0.47	-0.569
Mof_C 	C 	0.9833	0.8286	0.4255	0.536
Mof_C 	C 	0.9714	0.7682	0.3876	-0.503
Mof_C 	C 	0.9992	0.663	0.3938	0.359
Mof_C 	C 	0.9492	0.9391	0.4167	-1.036
Mof_C 	C 	0.01199	0.3754	0.41116	-0.355
Mof_C 	C 	0.95092	0.4	0.39508	0.152
Mof_C 	C 	0.89873	0.3304	0.36337	-0.125
Mof_C 	C 	0.90805	0.2339	0.34818	-0.031
Mof_C 	C 	0.96846	0.2059	0.36413	-0.103
Mof_C 	C 	0.02001	0.2768	0.3955	0.104
Mof_C 	C 	0.85118	0.1618	0.31169	0.377
Mof_C 	C 	0.1374	0.4553	0.4375	-0.606
Mof_C 	C 	0.1187	0.4807	0.3936	0.522
Mof_C 	C 	0.656	0.9569	0.381	-0.661
Mof_C 	C 	0.7145	0.9024	0.4122	0.668
Mof_C 	C 	0.7331	0.8731	0.4556	-0.664
Mof_C 	C 	0.1945	0.3971	0.4675	0.492
Mof_C 	C 	0.7572	0.8688	0.4001	-1.205
Mof_C 	C 	0.05713	0.7541	0.75174	-0.338
Mof_C 	C 	0.12106	0.7821	0.77579	0.129
Mof_C 	C 	0.16193	0.7125	0.77611	-0.13
Mof_C 	C 	0.13956	0.6111	0.7526	-0.039
Mof_C 	C 	0.07573	0.5839	0.72731	-0.099
Mof_C 	C 	0.03503	0.6548	0.72694	0.091
Mof_C 	C 	0.18368	0.535	0.75332	0.379
Mof_C 	C 	0.95439	0.9305	0.69347	-0.619
Mof_C 	C 	0.90071	0.8862	0.64975	0.521
Mof_C 	C 	0.8703	0.9412	0.6065	-0.697
Mof_C 	C 	0.8928	0.0411	0.6051	0.729
Mof_C 	C 	0.9477	0.0793	0.6465	-0.741
Mof_C 	C 	0.9787	0.0249	0.6903	0.585
Mof_C 	C 	0.863	0.0936	0.5562	-1.249
Mof_O 	O 	0.25037	0.488	0.69213	-0.501
Mof_O 	O 	0.19233	0.3356	0.67606	-0.506
Mof_O 	O 	0.86218	0.0712	0.30151	-0.51
Mof_O 	O 	0.79637	0.1977	0.29403	-0.519
Mof_O 	O 	0.23768	0.5725	0.76979	-0.53
Mof_O 	O 	0.16308	0.4392	0.7372	-0.5
Mof_O 	O 	0.33245	0.68014	0.76536	-0.665
Mof_H 	H 	0.38067	0.68014	0.78849	0.151
Mof_Zn	Zn	0.79686	0.03768	0.75795	1.224
Mof_Zn	Zn	0.70632	0.81317	0.73521	1.226
Mof_Si	Si	0.58127	0.97438	0.45115	0.951
Mof_H 	H 	0.7051	0.0331	0.5442	-0.042
Mof_H 	H 	0.752	0.0134	0.6241	0.074
Mof_H 	H 	0.6047	0.8243	0.5861	0.078
Mof_H 	H 	0.5565	0.8452	0.5063	-0.033
Mof_H 	H 	0.5883	0.1561	0.5082	-0.104
Mof_H 	H 	0.541	0.3222	0.4969	0.177
Mof_H 	H 	0.4439	0.2985	0.3568	0.153
Mof_H 	H 	0.4862	0.1234	0.3669	-0.092
Mof_H 	H 	0.4042	0.4322	0.3894	0.294
Mof_H 	H 	0.4679	0.4959	0.4106	0.302
Mof_H 	H 	0.4542	0.4584	0.4446	0.286
Mof_H 	H 	0.4447	0.9643	0.4057	-0.025
Mof_H 	H 	0.3579	0.8487	0.3525	0.072
Mof_H 	H 	0.4745	0.6405	0.354	0.073
Mof_H 	H 	0.5607	0.7581	0.4063	-0.032
Mof_H 	H 	0.5792	0.0156	0.3712	-0.163
Mof_H 	H 	0.1414	0.4779	0.3508	0.256
Mof_H 	H 	0.2722	0.3366	0.4777	0.241
Mof_H 	H 	0.7078	0.8728	0.497	-0.165
Mof_H 	H 	0.2307	0.3425	0.3676	0.39
Mof_H 	H 	0.2862	0.3112	0.4216	0.38
Mof_H 	H 	0.2816	0.4317	0.4037	0.368
Mof_H 	H 	0.6368	0.3492	0.7921	-0.045
Mof_H 	H 	0.7044	0.2335	0.7921	0.073
Mof_H 	H 	0.5598	0.0177	0.7104	0.086
Mof_H 	H 	0.4921	0.1352	0.7097	-0.043
Mof_H 	H 	0.8848	0.8178	0.6496	-0.164
Mof_H 	H 	0.3343	0.4098	0.5781	0.266
Mof_H 	H 	0.4657	0.6441	0.6459	0.271
Mof_H 	H 	0.5168	0.554	0.718	-0.188
Mof_H 	H 	0.3494	0.5363	0.5331	0.382
Mof_H 	H 	0.3946	0.6393	0.5594	0.389
Mof_H 	H 	0.3266	0.6379	0.5456	0.382
Mof_C 	C 	0.62535	0.9407	0.51586	-0.344
Mof_C 	C 	0.68441	0.9914	0.55227	0.13
Mof_C 	C 	0.71255	0.98	0.60033	-0.125
Mof_C 	C 	0.68215	0.9193	0.61289	-0.026
Mof_C 	C 	0.62446	0.8674	0.57762	-0.133
Mof_C 	C 	0.59601	0.879	0.52975	0.12
Mof_C 	C 	0.71024	0.9132	0.66425	0.37
Mof_C 	C 	0.54651	0.1172	0.44021	-0.465
Mof_C 	C 	0.5585	0.1822	0.4769	0.335
Mof_C 	C 	0.529	0.2837	0.47	-0.496
Mof_C 	C 	0.4833	0.3286	0.4255	0.466
Mof_C 	C 	0.4714	0.2682	0.3876	-0.452
Mof_C 	C 	0.4992	0.163	0.3938	0.297
Mof_C 	C 	0.4492	0.4391	0.4167	-0.96
Mof_C 	C 	0.51199	0.8754	0.41116	-0.333
Mof_C 	C 	0.45092	0.9	0.39508	0.123
Mof_C 	C 	0.39873	0.8304	0.36337	-0.117
Mof_C 	C 	0.40805	0.7339	0.34818	-0.03
Mof_C 	C 	0.46846	0.7059	0.36413	-0.123
Mof_C 	C 	0.52001	0.7768	0.3955	0.12
Mof_C 	C 	0.35118	0.6618	0.31169	0.377
Mof_C 	C 	0.6374	0.9553	0.4375	-0.591
Mof_C 	C 	0.6187	0.9807	0.3936	0.504
Mof_C 	C 	0.156	0.4569	0.381	-0.675
Mof_C 	C 	0.2145	0.4024	0.4122	0.678
Mof_C 	C 	0.2331	0.3731	0.4556	-0.675
Mof_C 	C 	0.6945	0.8971	0.4675	0.48
Mof_C 	C 	0.2572	0.3688	0.4001	-1.216
Mof_C 	C 	0.55713	0.2541	0.75174	-0.384
Mof_C 	C 	0.62106	0.2821	0.77579	0.166
Mof_C 	C 	0.66193	0.2125	0.77611	-0.161
Mof_C 	C 	0.63956	0.1111	0.7526	-0.011
Mof_C 	C 	0.57573	0.0839	0.72731	-0.143
Mof_C 	C 	0.53503	0.1548	0.72694	0.16
Mof_C 	C 	0.68368	0.035	0.75332	0.366
Mof_C 	C 	0.45439	0.4305	0.69347	-0.647
Mof_C 	C 	0.40071	0.3862	0.64975	0.535
Mof_C 	C 	0.3703	0.4412	0.6065	-0.707
Mof_C 	C 	0.3928	0.5411	0.6051	0.73
Mof_C 	C 	0.4477	0.5793	0.6465	-0.736
Mof_C 	C 	0.4787	0.5249	0.6903	0.568
Mof_C 	C 	0.363	0.5936	0.5562	-1.248
Mof_O 	O 	0.75037	0.988	0.69213	-0.5
Mof_O 	O 	0.69233	0.8356	0.67606	-0.506
Mof_O 	O 	0.36218	0.5712	0.30151	-0.512
Mof_O 	O 	0.29637	0.6977	0.29403	-0.52
Mof_O 	O 	0.73768	0.0725	0.76979	-0.528
Mof_O 	O 	0.66308	0.9392	0.7372	-0.493
Mof_O 	O 	0.83245	0.18014	0.76536	-0.666
Mof_H 	H 	0.88067	0.18014	0.78849	0.151
Mof_Si	Si	2.0654e-33	0.15289	0.25	1
Mof_Si	Si	0.5	0.65289	0.25	1.083
Mof_Si	Si	9.99016e-17	0.84711	0.75	1.003
Mof_Si	Si	0.5	0.34711	0.75	1.083
_end
