data_functionalizedCrystal
_audit_creation_method	'EQeq! by Chris Wilmer'
_symmetry_space_group_name_H-M	'P1'
_symmetry_Int_Tables_number	1
_symmetry_cell_setting	triclinic
loop_
_symmetry_equiv_pos_as_xyz
  x,y,z
_cell_length_a	6.6716
_cell_length_b	7.6444
_cell_length_c	10.5468
_cell_angle_alpha	111.248
_cell_angle_beta	102.922
_cell_angle_gamma	90
loop_
_atom_site_label
_atom_site_type_symbol
_atom_site_fract_x
_atom_site_fract_y
_atom_site_fract_z
_atom_site_charge
Mof_Ga	Ga	0.426	0.1118	0.224	2.962
Mof_Ga	Ga	0.926	0.1122	0.224	2.239
Mof_H 	H 	0.2043	0.6699	0.8946	0.081
Mof_H 	H 	0.6189	0.5533	0.5486	0.04
Mof_H 	H 	0.0535	0.4815	0.647	0.062
Mof_H 	H 	0.7707	0.7418	0.7962	0.093
Mof_H 	H 	0.161	0.8612	0.1872	0.337
Mof_H 	H 	0.7043	0.2247	0.8946	-0.047
Mof_H 	H 	0.1189	0.9953	0.5486	0.479
Mof_H 	H 	0.5535	0.1655	0.647	0.07
Mof_H 	H 	0.2707	0.0544	0.7962	-0.162
Mof_H 	H 	0.661	0.326	0.1872	0.367
Mof_C 	C 	0.5893	0.8321	0.0078	0.527
Mof_C 	C 	0.4981	0.7145	0.8594	-0.058
Mof_C 	C 	0.6171	0.6851	0.7636	0.005
Mof_C 	C 	0.2936	0.6438	0.8206	0.028
Mof_C 	C 	0.5301	0.5798	0.6228	0.065
Mof_C 	C 	0.2072	0.5379	0.6796	0.04
Mof_C 	C 	0.3261	0.5089	0.584	-0.155
Mof_C 	C 	0.229	0.391	0.4366	0.564
Mof_C 	C 	0.0893	0.1757	0.0078	0.758
Mof_C 	C 	0.9981	0.1449	0.8594	-0.549
Mof_C 	C 	0.1171	0.0785	0.7636	0.44
Mof_C 	C 	0.7936	0.1768	0.8206	0.216
Mof_C 	C 	0.0301	0.043	0.6228	-0.695
Mof_C 	C 	0.7072	0.1417	0.6796	-0.27
Mof_C 	C 	0.8261	0.0751	0.584	0.156
Mof_C 	C 	0.729	0.0456	0.4366	-0.003
Mof_O 	O 	0.4721	0.8566	0.0916	-0.596
Mof_O 	O 	0.7732	0.908	0.0466	-0.498
Mof_O 	O 	0.3423	0.3543	0.3504	-0.778
Mof_O 	O 	0.041	0.3301	0.4036	-0.655
Mof_O 	O 	0.1726	0.9985	0.2132	-0.978
Mof_O 	O 	0.9721	0.235	0.0916	-0.813
Mof_O 	O 	0.2732	0.1386	0.0466	-0.917
Mof_O 	O 	0.8423	0.9961	0.3504	-0.245
Mof_O 	O 	0.541	0.0735	0.4036	-0.745
Mof_O 	O 	0.6726	0.2147	0.2132	-1.365
_end
