data_functionalizedCrystal
_audit_creation_method	'EQeq! by Chris Wilmer'
_symmetry_space_group_name_H-M	'P1'
_symmetry_Int_Tables_number	1
_symmetry_cell_setting	triclinic
loop_
_symmetry_equiv_pos_as_xyz
  x,y,z
_cell_length_a	20.8197
_cell_length_b	20.8197
_cell_length_c	11.5581
_cell_angle_alpha	90
_cell_angle_beta	90
_cell_angle_gamma	120
loop_
_atom_site_label
_atom_site_type_symbol
_atom_site_fract_x
_atom_site_fract_y
_atom_site_fract_z
_atom_site_charge
Mof_C 	C 	0.1889	0.9646	0.1081	-0.176
Mof_H 	H 	0.2258	0.0101	0.145	0.099
Mof_H 	H 	0.1415	0.9627	0.113	0.097
Mof_C 	C 	0.2537	0.9168	0.2279	-0.18
Mof_H 	H 	0.2423	0.8918	0.3021	0.098
Mof_H 	H 	0.2834	0.9697	0.2422	0.104
Mof_C 	C 	0.2091	0.96605	0.983	0.159
Mof_C 	C 	0.29769	0.89246	0.1573	0.167
Mof_Cd	Cd	0.46263	0.98378	0.30224	0.392
Mof_N 	N 	0.18426	0.90099	0.1706	-0.129
Mof_H 	H 	0.1484	0.8867	0.2257	0.104
Mof_N 	N 	0.25481	0.02608	0.9242	-0.131
Mof_N 	N 	0.25285	0.00393	0.8143	-0.06
Mof_N 	N 	0.2084	0.93254	0.8102	-0.075
Mof_N 	N 	0.17908	0.90622	0.916	-0.123
Mof_N 	N 	0.26981	0.84697	0.067	-0.121
Mof_N 	N 	0.32421	0.8347	0.0299	-0.044
Mof_N 	N 	0.38271	0.87177	0.0949	-0.046
Mof_N 	N 	0.36736	0.90907	0.1769	-0.125
Mof_C 	C 	0.85557	0.29793	0.44143	-0.178
Mof_H 	H 	0.89247	0.34343	0.47833	0.098
Mof_H 	H 	0.80817	0.29603	0.44633	0.096
Mof_C 	C 	0.92037	0.25013	0.56123	-0.181
Mof_H 	H 	0.90897	0.22513	0.63543	0.097
Mof_H 	H 	0.95007	0.30303	0.57553	0.103
Mof_C 	C 	0.87577	0.29938	0.31633	0.159
Mof_C 	C 	0.96436	0.22579	0.49063	0.166
Mof_Cd	Cd	0.12929	0.31712	0.63557	0.391
Mof_N 	N 	0.85093	0.23432	0.50393	-0.13
Mof_H 	H 	0.81507	0.22003	0.55903	0.104
Mof_N 	N 	0.92148	0.35941	0.25753	-0.131
Mof_N 	N 	0.91952	0.33726	0.14763	-0.06
Mof_N 	N 	0.87507	0.26587	0.14353	-0.075
Mof_N 	N 	0.84575	0.23955	0.24933	-0.123
Mof_N 	N 	0.93648	0.1803	0.40033	-0.121
Mof_N 	N 	0.99088	0.16803	0.36323	-0.045
Mof_N 	N 	0.04938	0.2051	0.42823	-0.046
Mof_N 	N 	0.03403	0.2424	0.51023	-0.125
Mof_C 	C 	0.52223	0.63127	0.77477	-0.178
Mof_H 	H 	0.55913	0.67677	0.81167	0.098
Mof_H 	H 	0.47483	0.62937	0.77967	0.096
Mof_C 	C 	0.58703	0.58347	0.89457	-0.181
Mof_H 	H 	0.57563	0.55847	0.96877	0.097
Mof_H 	H 	0.61673	0.63637	0.90887	0.103
Mof_C 	C 	0.54243	0.63272	0.64967	0.159
Mof_C 	C 	0.63102	0.55913	0.82397	0.166
Mof_Cd	Cd	0.79596	0.65045	0.96891	0.391
Mof_N 	N 	0.51759	0.56766	0.83727	-0.13
Mof_H 	H 	0.48173	0.55337	0.89237	0.104
Mof_N 	N 	0.58814	0.69275	0.59087	-0.131
Mof_N 	N 	0.58618	0.6706	0.48097	-0.06
Mof_N 	N 	0.54173	0.59921	0.47687	-0.075
Mof_N 	N 	0.51241	0.57289	0.58267	-0.123
Mof_N 	N 	0.60314	0.51364	0.73367	-0.121
Mof_N 	N 	0.65754	0.50137	0.69657	-0.045
Mof_N 	N 	0.71604	0.53844	0.76157	-0.046
Mof_N 	N 	0.70069	0.57574	0.84357	-0.125
Mof_C 	C 	0.0354	0.2243	0.1081	-0.177
Mof_H 	H 	0.9899	0.2157	0.145	0.098
Mof_H 	H 	0.0373	0.1788	0.113	0.096
Mof_C 	C 	0.0832	0.3369	0.2279	-0.181
Mof_H 	H 	0.1082	0.3505	0.3021	0.097
Mof_H 	H 	0.0303	0.3137	0.2422	0.103
Mof_C 	C 	0.03395	0.24305	0.983	0.159
Mof_C 	C 	0.10754	0.40523	0.1573	0.166
Mof_Cd	Cd	0.01622	0.47884	0.30224	0.391
Mof_N 	N 	0.09901	0.28327	0.1706	-0.13
Mof_H 	H 	0.1133	0.2617	0.2257	0.104
Mof_N 	N 	0.97392	0.22873	0.9242	-0.131
Mof_N 	N 	0.99607	0.24892	0.8143	-0.06
Mof_N 	N 	0.06746	0.27586	0.8102	-0.075
Mof_N 	N 	0.09378	0.27286	0.916	-0.123
Mof_N 	N 	0.15303	0.42284	0.067	-0.121
Mof_N 	N 	0.1653	0.48951	0.0299	-0.044
Mof_N 	N 	0.12823	0.51094	0.0949	-0.046
Mof_N 	N 	0.09093	0.45829	0.1769	-0.125
Mof_C 	C 	0.70207	0.55763	0.44143	-0.178
Mof_H 	H 	0.65657	0.54903	0.47833	0.098
Mof_H 	H 	0.70397	0.51213	0.44633	0.096
Mof_C 	C 	0.74987	0.67023	0.56123	-0.181
Mof_H 	H 	0.77487	0.68383	0.63543	0.097
Mof_H 	H 	0.69697	0.64703	0.57553	0.103
Mof_C 	C 	0.70062	0.57638	0.31633	0.159
Mof_C 	C 	0.77421	0.73856	0.49063	0.166
Mof_Cd	Cd	0.68288	0.81218	0.63557	0.391
Mof_N 	N 	0.76568	0.6166	0.50393	-0.13
Mof_H 	H 	0.77997	0.59503	0.55903	0.104
Mof_N 	N 	0.64059	0.56206	0.25753	-0.131
Mof_N 	N 	0.66274	0.58225	0.14763	-0.06
Mof_N 	N 	0.73413	0.60919	0.14353	-0.075
Mof_N 	N 	0.76045	0.60619	0.24933	-0.123
Mof_N 	N 	0.8197	0.75617	0.40033	-0.121
Mof_N 	N 	0.83197	0.82284	0.36323	-0.045
Mof_N 	N 	0.7949	0.84427	0.42823	-0.046
Mof_N 	N 	0.7576	0.79162	0.51023	-0.125
Mof_C 	C 	0.36873	0.89097	0.77477	-0.177
Mof_H 	H 	0.32323	0.88237	0.81167	0.098
Mof_H 	H 	0.37063	0.84547	0.77967	0.096
Mof_C 	C 	0.41653	0.00357	0.89457	-0.181
Mof_H 	H 	0.44153	0.01717	0.96877	0.097
Mof_H 	H 	0.36363	0.98037	0.90887	0.102
Mof_C 	C 	0.36728	0.90972	0.64967	0.159
Mof_C 	C 	0.44087	0.0719	0.82397	0.166
Mof_Cd	Cd	0.34955	0.14551	0.96891	0.391
Mof_N 	N 	0.43234	0.94994	0.83727	-0.13
Mof_H 	H 	0.44663	0.92837	0.89237	0.104
Mof_N 	N 	0.30725	0.8954	0.59087	-0.131
Mof_N 	N 	0.3294	0.91559	0.48097	-0.06
Mof_N 	N 	0.40079	0.94253	0.47687	-0.075
Mof_N 	N 	0.42711	0.93953	0.58267	-0.123
Mof_N 	N 	0.48636	0.08951	0.73367	-0.121
Mof_N 	N 	0.49863	0.15618	0.69657	-0.045
Mof_N 	N 	0.46156	0.17761	0.76157	-0.046
Mof_N 	N 	0.42426	0.12496	0.84357	-0.125
Mof_C 	C 	0.7757	0.8111	0.1081	-0.178
Mof_H 	H 	0.7843	0.7742	0.145	0.098
Mof_H 	H 	0.8212	0.8585	0.113	0.096
Mof_C 	C 	0.6631	0.7463	0.2279	-0.181
Mof_H 	H 	0.6495	0.7577	0.3021	0.097
Mof_H 	H 	0.6863	0.7166	0.2422	0.103
Mof_C 	C 	0.75695	0.7909	0.983	0.159
Mof_C 	C 	0.59477	0.70231	0.1573	0.166
Mof_Cd	Cd	0.52116	0.53737	0.30224	0.391
Mof_N 	N 	0.71673	0.81574	0.1706	-0.13
Mof_H 	H 	0.7383	0.8516	0.2257	0.104
Mof_N 	N 	0.77127	0.74519	0.9242	-0.131
Mof_N 	N 	0.75108	0.74715	0.8143	-0.06
Mof_N 	N 	0.72414	0.7916	0.8102	-0.075
Mof_N 	N 	0.72714	0.82092	0.916	-0.123
Mof_N 	N 	0.57716	0.73019	0.067	-0.121
Mof_N 	N 	0.51049	0.67579	0.0299	-0.044
Mof_N 	N 	0.48906	0.61729	0.0949	-0.046
Mof_N 	N 	0.54171	0.63264	0.1769	-0.125
Mof_C 	C 	0.44237	0.14443	0.44143	-0.178
Mof_H 	H 	0.45097	0.10753	0.47833	0.098
Mof_H 	H 	0.48787	0.19183	0.44633	0.096
Mof_C 	C 	0.32977	0.07963	0.56123	-0.181
Mof_H 	H 	0.31617	0.09103	0.63543	0.097
Mof_H 	H 	0.35297	0.04993	0.57553	0.103
Mof_C 	C 	0.42362	0.12423	0.31633	0.159
Mof_C 	C 	0.26144	0.03564	0.49063	0.166
Mof_Cd	Cd	0.18782	0.87071	0.63557	0.391
Mof_N 	N 	0.3834	0.14907	0.50393	-0.13
Mof_H 	H 	0.40497	0.18493	0.55903	0.104
Mof_N 	N 	0.43794	0.07852	0.25753	-0.131
Mof_N 	N 	0.41775	0.08048	0.14763	-0.06
Mof_N 	N 	0.39081	0.12493	0.14353	-0.075
Mof_N 	N 	0.39381	0.15425	0.24933	-0.123
Mof_N 	N 	0.24383	0.06352	0.40033	-0.121
Mof_N 	N 	0.17716	0.00912	0.36323	-0.045
Mof_N 	N 	0.15573	0.95062	0.42823	-0.046
Mof_N 	N 	0.20838	0.96597	0.51023	-0.125
Mof_C 	C 	0.10903	0.47777	0.77477	-0.177
Mof_H 	H 	0.11763	0.44087	0.81167	0.098
Mof_H 	H 	0.15453	0.52517	0.77967	0.096
Mof_C 	C 	0.99643	0.41297	0.89457	-0.181
Mof_H 	H 	0.98283	0.42437	0.96877	0.097
Mof_H 	H 	0.01963	0.38327	0.90887	0.102
Mof_C 	C 	0.09028	0.45757	0.64967	0.159
Mof_C 	C 	0.9281	0.36898	0.82397	0.166
Mof_Cd	Cd	0.85449	0.20404	0.96891	0.391
Mof_N 	N 	0.05006	0.48241	0.83727	-0.13
Mof_H 	H 	0.07163	0.51827	0.89237	0.104
Mof_N 	N 	0.1046	0.41186	0.59087	-0.131
Mof_N 	N 	0.08441	0.41382	0.48097	-0.06
Mof_N 	N 	0.05747	0.45827	0.47687	-0.075
Mof_N 	N 	0.06047	0.48759	0.58267	-0.123
Mof_N 	N 	0.91049	0.39686	0.73367	-0.121
Mof_N 	N 	0.84382	0.34246	0.69657	-0.045
Mof_N 	N 	0.82239	0.28396	0.76157	-0.046
Mof_N 	N 	0.87504	0.29931	0.84357	-0.125
Mof_C 	C 	0.8111	0.0354	0.8919	-0.177
Mof_H 	H 	0.7742	0.9899	0.855	0.098
Mof_H 	H 	0.8585	0.0373	0.887	0.096
Mof_C 	C 	0.7463	0.0832	0.7721	-0.181
Mof_H 	H 	0.7577	0.1082	0.6979	0.097
Mof_H 	H 	0.7166	0.0303	0.7578	0.103
Mof_C 	C 	0.7909	0.03395	0.017	0.158
Mof_C 	C 	0.70231	0.10754	0.8427	0.166
Mof_Cd	Cd	0.53737	0.01622	0.69776	0.391
Mof_N 	N 	0.81574	0.09901	0.8294	-0.13
Mof_H 	H 	0.8516	0.1133	0.7743	0.104
Mof_N 	N 	0.74519	0.97392	0.0758	-0.131
Mof_N 	N 	0.74715	0.99607	0.1857	-0.06
Mof_N 	N 	0.7916	0.06746	0.1898	-0.075
Mof_N 	N 	0.82092	0.09378	0.084	-0.123
Mof_N 	N 	0.73019	0.15303	0.933	-0.121
Mof_N 	N 	0.67579	0.1653	0.9701	-0.044
Mof_N 	N 	0.61729	0.12823	0.9051	-0.046
Mof_N 	N 	0.63264	0.09093	0.8231	-0.125
Mof_C 	C 	0.47777	0.36873	0.22523	-0.178
Mof_H 	H 	0.44087	0.32323	0.18833	0.098
Mof_H 	H 	0.52517	0.37063	0.22033	0.096
Mof_C 	C 	0.41297	0.41653	0.10543	-0.181
Mof_H 	H 	0.42437	0.44153	0.03123	0.097
Mof_H 	H 	0.38327	0.36363	0.09113	0.103
Mof_C 	C 	0.45757	0.36728	0.35033	0.159
Mof_C 	C 	0.36898	0.44087	0.17603	0.166
Mof_Cd	Cd	0.20404	0.34955	0.03109	0.391
Mof_N 	N 	0.48241	0.43234	0.16273	-0.13
Mof_H 	H 	0.51827	0.44663	0.10763	0.104
Mof_N 	N 	0.41186	0.30725	0.40913	-0.131
Mof_N 	N 	0.41382	0.3294	0.51903	-0.06
Mof_N 	N 	0.45827	0.40079	0.52313	-0.075
Mof_N 	N 	0.48759	0.42711	0.41733	-0.123
Mof_N 	N 	0.39686	0.48636	0.26633	-0.121
Mof_N 	N 	0.34246	0.49863	0.30343	-0.045
Mof_N 	N 	0.28396	0.46156	0.23843	-0.046
Mof_N 	N 	0.29931	0.42426	0.15643	-0.125
Mof_C 	C 	0.14443	0.70207	0.55857	-0.178
Mof_H 	H 	0.10753	0.65657	0.52167	0.098
Mof_H 	H 	0.19183	0.70397	0.55367	0.096
Mof_C 	C 	0.07963	0.74987	0.43877	-0.181
Mof_H 	H 	0.09103	0.77487	0.36457	0.097
Mof_H 	H 	0.04993	0.69697	0.42447	0.103
Mof_C 	C 	0.12423	0.70062	0.68367	0.159
Mof_C 	C 	0.03564	0.77421	0.50937	0.166
Mof_Cd	Cd	0.87071	0.68288	0.36443	0.391
Mof_N 	N 	0.14907	0.76568	0.49607	-0.13
Mof_H 	H 	0.18493	0.77997	0.44097	0.104
Mof_N 	N 	0.07852	0.64059	0.74247	-0.131
Mof_N 	N 	0.08048	0.66274	0.85237	-0.06
Mof_N 	N 	0.12493	0.73413	0.85647	-0.075
Mof_N 	N 	0.15425	0.76045	0.75067	-0.123
Mof_N 	N 	0.06352	0.8197	0.59967	-0.121
Mof_N 	N 	0.00912	0.83197	0.63677	-0.045
Mof_N 	N 	0.95062	0.7949	0.57177	-0.046
Mof_N 	N 	0.96597	0.7576	0.48977	-0.125
Mof_C 	C 	0.9646	0.7757	0.8919	-0.177
Mof_H 	H 	0.0101	0.7843	0.855	0.098
Mof_H 	H 	0.9627	0.8212	0.887	0.096
Mof_C 	C 	0.9168	0.6631	0.7721	-0.181
Mof_H 	H 	0.8918	0.6495	0.6979	0.097
Mof_H 	H 	0.9697	0.6863	0.7578	0.103
Mof_C 	C 	0.96605	0.75695	0.017	0.159
Mof_C 	C 	0.89246	0.59477	0.8427	0.166
Mof_Cd	Cd	0.98378	0.52116	0.69776	0.391
Mof_N 	N 	0.90099	0.71673	0.8294	-0.13
Mof_H 	H 	0.8867	0.7383	0.7743	0.104
Mof_N 	N 	0.02608	0.77127	0.0758	-0.131
Mof_N 	N 	0.00393	0.75108	0.1857	-0.06
Mof_N 	N 	0.93254	0.72414	0.1898	-0.075
Mof_N 	N 	0.90622	0.72714	0.084	-0.123
Mof_N 	N 	0.84697	0.57716	0.933	-0.121
Mof_N 	N 	0.8347	0.51049	0.9701	-0.044
Mof_N 	N 	0.87177	0.48906	0.9051	-0.046
Mof_N 	N 	0.90907	0.54171	0.8231	-0.125
Mof_C 	C 	0.63127	0.10903	0.22523	-0.177
Mof_H 	H 	0.67677	0.11763	0.18833	0.098
Mof_H 	H 	0.62937	0.15453	0.22033	0.096
Mof_C 	C 	0.58347	0.99643	0.10543	-0.181
Mof_H 	H 	0.55847	0.98283	0.03123	0.097
Mof_H 	H 	0.63637	0.01963	0.09113	0.102
Mof_C 	C 	0.63272	0.09028	0.35033	0.159
Mof_C 	C 	0.55913	0.9281	0.17603	0.166
Mof_Cd	Cd	0.65045	0.85449	0.03109	0.391
Mof_N 	N 	0.56766	0.05006	0.16273	-0.13
Mof_H 	H 	0.55337	0.07163	0.10763	0.104
Mof_N 	N 	0.69275	0.1046	0.40913	-0.131
Mof_N 	N 	0.6706	0.08441	0.51903	-0.06
Mof_N 	N 	0.59921	0.05747	0.52313	-0.075
Mof_N 	N 	0.57289	0.06047	0.41733	-0.123
Mof_N 	N 	0.51364	0.91049	0.26633	-0.121
Mof_N 	N 	0.50137	0.84382	0.30343	-0.045
Mof_N 	N 	0.53844	0.82239	0.23843	-0.046
Mof_N 	N 	0.57574	0.87504	0.15643	-0.125
Mof_C 	C 	0.29793	0.44237	0.55857	-0.178
Mof_H 	H 	0.34343	0.45097	0.52167	0.098
Mof_H 	H 	0.29603	0.48787	0.55367	0.096
Mof_C 	C 	0.25013	0.32977	0.43877	-0.181
Mof_H 	H 	0.22513	0.31617	0.36457	0.097
Mof_H 	H 	0.30303	0.35297	0.42447	0.103
Mof_C 	C 	0.29938	0.42362	0.68367	0.159
Mof_C 	C 	0.22579	0.26144	0.50937	0.166
Mof_Cd	Cd	0.31712	0.18782	0.36443	0.391
Mof_N 	N 	0.23432	0.3834	0.49607	-0.13
Mof_H 	H 	0.22003	0.40497	0.44097	0.104
Mof_N 	N 	0.35941	0.43794	0.74247	-0.131
Mof_N 	N 	0.33726	0.41775	0.85237	-0.06
Mof_N 	N 	0.26587	0.39081	0.85647	-0.075
Mof_N 	N 	0.23955	0.39381	0.75067	-0.123
Mof_N 	N 	0.1803	0.24383	0.59967	-0.121
Mof_N 	N 	0.16803	0.17716	0.63677	-0.045
Mof_N 	N 	0.2051	0.15573	0.57177	-0.046
Mof_N 	N 	0.2424	0.20838	0.48977	-0.125
Mof_C 	C 	0.2243	0.1889	0.8919	-0.178
Mof_H 	H 	0.2157	0.2258	0.855	0.098
Mof_H 	H 	0.1788	0.1415	0.887	0.096
Mof_C 	C 	0.3369	0.2537	0.7721	-0.181
Mof_H 	H 	0.3505	0.2423	0.6979	0.097
Mof_H 	H 	0.3137	0.2834	0.7578	0.103
Mof_C 	C 	0.24305	0.2091	0.017	0.159
Mof_C 	C 	0.40523	0.29769	0.8427	0.166
Mof_Cd	Cd	0.47884	0.46263	0.69776	0.391
Mof_N 	N 	0.28327	0.18426	0.8294	-0.13
Mof_H 	H 	0.2617	0.1484	0.7743	0.104
Mof_N 	N 	0.22873	0.25481	0.0758	-0.131
Mof_N 	N 	0.24892	0.25285	0.1857	-0.06
Mof_N 	N 	0.27586	0.2084	0.1898	-0.075
Mof_N 	N 	0.27286	0.17908	0.084	-0.123
Mof_N 	N 	0.42284	0.26981	0.933	-0.121
Mof_N 	N 	0.48951	0.32421	0.9701	-0.044
Mof_N 	N 	0.51094	0.38271	0.9051	-0.046
Mof_N 	N 	0.45829	0.36736	0.8231	-0.125
Mof_C 	C 	0.89097	0.52223	0.22523	-0.177
Mof_H 	H 	0.88237	0.55913	0.18833	0.098
Mof_H 	H 	0.84547	0.47483	0.22033	0.096
Mof_C 	C 	0.00357	0.58703	0.10543	-0.181
Mof_H 	H 	0.01717	0.57563	0.03123	0.097
Mof_H 	H 	0.98037	0.61673	0.09113	0.102
Mof_C 	C 	0.90972	0.54243	0.35033	0.159
Mof_C 	C 	0.0719	0.63102	0.17603	0.166
Mof_Cd	Cd	0.14551	0.79596	0.03109	0.391
Mof_N 	N 	0.94994	0.51759	0.16273	-0.13
Mof_H 	H 	0.92837	0.48173	0.10763	0.104
Mof_N 	N 	0.8954	0.58814	0.40913	-0.131
Mof_N 	N 	0.91559	0.58618	0.51903	-0.06
Mof_N 	N 	0.94253	0.54173	0.52313	-0.075
Mof_N 	N 	0.93953	0.51241	0.41733	-0.123
Mof_N 	N 	0.08951	0.60314	0.26633	-0.121
Mof_N 	N 	0.15618	0.65754	0.30343	-0.045
Mof_N 	N 	0.17761	0.71604	0.23843	-0.046
Mof_N 	N 	0.12496	0.70069	0.15643	-0.125
Mof_C 	C 	0.55763	0.85557	0.55857	-0.178
Mof_H 	H 	0.54903	0.89247	0.52167	0.098
Mof_H 	H 	0.51213	0.80817	0.55367	0.096
Mof_C 	C 	0.67023	0.92037	0.43877	-0.181
Mof_H 	H 	0.68383	0.90897	0.36457	0.097
Mof_H 	H 	0.64703	0.95007	0.42447	0.103
Mof_C 	C 	0.57638	0.87577	0.68367	0.159
Mof_C 	C 	0.73856	0.96436	0.50937	0.166
Mof_Cd	Cd	0.81218	0.12929	0.36443	0.391
Mof_N 	N 	0.6166	0.85093	0.49607	-0.13
Mof_H 	H 	0.59503	0.81507	0.44097	0.104
Mof_N 	N 	0.56206	0.92148	0.74247	-0.131
Mof_N 	N 	0.58225	0.91952	0.85237	-0.06
Mof_N 	N 	0.60919	0.87507	0.85647	-0.075
Mof_N 	N 	0.60619	0.84575	0.75067	-0.123
Mof_N 	N 	0.75617	0.93648	0.59967	-0.121
Mof_N 	N 	0.82284	0.99088	0.63677	-0.045
Mof_N 	N 	0.84427	0.04938	0.57177	-0.046
Mof_N 	N 	0.79162	0.03403	0.48977	-0.125
_end
