data_functionalizedCrystal
_audit_creation_method	'EQeq! by Chris Wilmer'
_symmetry_space_group_name_H-M	'P1'
_symmetry_Int_Tables_number	1
_symmetry_cell_setting	triclinic
loop_
_symmetry_equiv_pos_as_xyz
  x,y,z
_cell_length_a	9.4451
_cell_length_b	9.4451
_cell_length_c	74.309
_cell_angle_alpha	90
_cell_angle_beta	90
_cell_angle_gamma	120
loop_
_atom_site_label
_atom_site_type_symbol
_atom_site_fract_x
_atom_site_fract_y
_atom_site_fract_z
_atom_site_charge
Mof_H 	H 	0.108	0.4718	0.0114	0.033
Mof_H 	H 	0.8922	0.3642	0.1174	0.071
Mof_H 	H 	0.77467	0.80513	0.34473	0.031
Mof_H 	H 	0.55887	0.69753	0.45073	0.067
Mof_H 	H 	0.44133	0.13847	0.67807	0.031
Mof_H 	H 	0.22553	0.03087	0.78407	0.047
Mof_H 	H 	0.5282	0.6362	0.0114	0.044
Mof_H 	H 	0.6358	0.528	0.1174	0.064
Mof_H 	H 	0.19487	0.96953	0.34473	0.044
Mof_H 	H 	0.30247	0.86133	0.45073	0.064
Mof_H 	H 	0.86153	0.30287	0.67807	0.042
Mof_H 	H 	0.96913	0.19467	0.78407	0.065
Mof_H 	H 	0.3638	0.892	0.0114	0.048
Mof_H 	H 	0.472	0.1078	0.1174	0.057
Mof_H 	H 	0.03047	0.22533	0.34473	0.024
Mof_H 	H 	0.13867	0.44113	0.45073	0.053
Mof_H 	H 	0.69713	0.55867	0.67807	0.046
Mof_H 	H 	0.80533	0.77447	0.78407	0.054
Mof_H 	H 	0.4718	0.108	0.9886	0.034
Mof_H 	H 	0.3642	0.8922	0.8826	0.072
Mof_H 	H 	0.13847	0.44133	0.32193	0.031
Mof_H 	H 	0.03087	0.22553	0.21593	0.047
Mof_H 	H 	0.80513	0.77467	0.65527	0.031
Mof_H 	H 	0.69753	0.55887	0.54927	0.067
Mof_H 	H 	0.6362	0.5282	0.9886	0.044
Mof_H 	H 	0.528	0.6358	0.8826	0.064
Mof_H 	H 	0.30287	0.86153	0.32193	0.042
Mof_H 	H 	0.19467	0.96913	0.21593	0.065
Mof_H 	H 	0.96953	0.19487	0.65527	0.044
Mof_H 	H 	0.86133	0.30247	0.54927	0.064
Mof_H 	H 	0.892	0.3638	0.9886	0.048
Mof_H 	H 	0.1078	0.472	0.8826	0.057
Mof_H 	H 	0.55867	0.69713	0.32193	0.046
Mof_H 	H 	0.77447	0.80533	0.21593	0.054
Mof_H 	H 	0.22533	0.03047	0.65527	0.024
Mof_H 	H 	0.44113	0.13867	0.54927	0.053
Mof_H 	H 	0.892	0.5282	0.9886	0.049
Mof_H 	H 	0.1078	0.6358	0.8826	0.061
Mof_H 	H 	0.55867	0.86153	0.32193	0.047
Mof_H 	H 	0.77447	0.96913	0.21593	0.056
Mof_H 	H 	0.22533	0.19487	0.65527	0.043
Mof_H 	H 	0.44113	0.30247	0.54927	0.059
Mof_H 	H 	0.4718	0.3638	0.9886	0.041
Mof_H 	H 	0.3642	0.472	0.8826	0.059
Mof_H 	H 	0.13847	0.69713	0.32193	0.032
Mof_H 	H 	0.03087	0.80533	0.21593	0.045
Mof_H 	H 	0.80513	0.03047	0.65527	0.024
Mof_H 	H 	0.69753	0.13867	0.54927	0.055
Mof_H 	H 	0.6362	0.108	0.9886	0.036
Mof_H 	H 	0.528	0.8922	0.8826	0.073
Mof_H 	H 	0.30287	0.44133	0.32193	0.041
Mof_H 	H 	0.19467	0.22553	0.21593	0.064
Mof_H 	H 	0.96953	0.77467	0.65527	0.032
Mof_H 	H 	0.86133	0.55887	0.54927	0.069
Mof_H 	H 	0.5282	0.892	0.0114	0.049
Mof_H 	H 	0.6358	0.1078	0.1174	0.061
Mof_H 	H 	0.19487	0.22533	0.34473	0.043
Mof_H 	H 	0.30247	0.44113	0.45073	0.059
Mof_H 	H 	0.86153	0.55867	0.67807	0.047
Mof_H 	H 	0.96913	0.77447	0.78407	0.056
Mof_H 	H 	0.3638	0.4718	0.0114	0.041
Mof_H 	H 	0.472	0.3642	0.1174	0.059
Mof_H 	H 	0.03047	0.80513	0.34473	0.024
Mof_H 	H 	0.13867	0.69753	0.45073	0.055
Mof_H 	H 	0.69713	0.13847	0.67807	0.032
Mof_H 	H 	0.80533	0.03087	0.78407	0.045
Mof_H 	H 	0.108	0.6362	0.0114	0.036
Mof_H 	H 	0.8922	0.528	0.1174	0.073
Mof_H 	H 	0.77467	0.96953	0.34473	0.032
Mof_H 	H 	0.55887	0.86133	0.45073	0.069
Mof_H 	H 	0.44133	0.30287	0.67807	0.041
Mof_H 	H 	0.22553	0.19467	0.78407	0.064
Mof_Cu	Cu	0.91002	0.45501	0.04597	0.84
Mof_Cu	Cu	0.08442	0.54221	0.15207	0.826
Mof_Cl	Cl	0.9417	0.47085	0.07595	-0.628
Mof_Cl	Cl	0.038	0.519	0.18606	-0.782
Mof_N 	N 	0.8391	0.41955	0.14176	-0.135
Mof_N 	N 	0.1618	0.5809	0.03567	-0.147
Mof_C 	C 	0.1645	0.58225	0.01572	-0.041
Mof_C 	C 	0.8359	0.41795	0.12182	-0.056
Mof_Cu	Cu	0.57669	0.78834	0.3793	0.835
Mof_Cu	Cu	0.75109	0.87554	0.4854	0.845
Mof_Cl	Cl	0.60837	0.80418	0.40928	-0.631
Mof_Cl	Cl	0.70467	0.85233	0.51939	-0.726
Mof_N 	N 	0.50577	0.75288	0.47509	-0.145
Mof_N 	N 	0.82847	0.91423	0.369	-0.153
Mof_C 	C 	0.83117	0.91558	0.34905	0.027
Mof_C 	C 	0.50257	0.75128	0.45515	-0.053
Mof_Cu	Cu	0.24335	0.12168	0.71264	0.82
Mof_Cu	Cu	0.41775	0.20888	0.81874	0.835
Mof_Cl	Cl	0.27503	0.13752	0.74262	-0.663
Mof_Cl	Cl	0.37133	0.18567	0.85273	-0.771
Mof_N 	N 	0.17243	0.08622	0.80843	-0.172
Mof_N 	N 	0.49513	0.24757	0.70234	-0.144
Mof_C 	C 	0.49783	0.24892	0.68239	-0.041
Mof_C 	C 	0.16923	0.08462	0.78849	-0.052
Mof_Cu	Cu	0.54499	0.45501	0.04597	0.834
Mof_Cu	Cu	0.45779	0.54221	0.15207	0.838
Mof_Cl	Cl	0.52915	0.47085	0.07595	-0.647
Mof_Cl	Cl	0.481	0.519	0.18606	-0.745
Mof_N 	N 	0.58045	0.41955	0.14176	-0.147
Mof_N 	N 	0.4191	0.5809	0.03567	-0.14
Mof_C 	C 	0.41775	0.58225	0.01572	-0.046
Mof_C 	C 	0.58205	0.41795	0.12182	-0.049
Mof_Cu	Cu	0.21166	0.78834	0.3793	0.831
Mof_Cu	Cu	0.12446	0.87554	0.4854	0.836
Mof_Cl	Cl	0.19582	0.80418	0.40928	-0.656
Mof_Cl	Cl	0.14767	0.85233	0.51939	-0.74
Mof_N 	N 	0.24712	0.75288	0.47509	-0.149
Mof_N 	N 	0.08577	0.91423	0.369	-0.163
Mof_C 	C 	0.08442	0.91558	0.34905	-0.04
Mof_C 	C 	0.24872	0.75128	0.45515	-0.047
Mof_Cu	Cu	0.87832	0.12168	0.71264	0.823
Mof_Cu	Cu	0.79112	0.20888	0.81874	0.836
Mof_Cl	Cl	0.86248	0.13752	0.74262	-0.657
Mof_Cl	Cl	0.81433	0.18567	0.85273	-0.765
Mof_N 	N 	0.91378	0.08622	0.80843	-0.169
Mof_N 	N 	0.75243	0.24757	0.70234	-0.144
Mof_C 	C 	0.75108	0.24892	0.68239	-0.042
Mof_C 	C 	0.91538	0.08462	0.78849	-0.043
Mof_Cu	Cu	0.54499	0.08998	0.04597	0.83
Mof_Cu	Cu	0.45779	0.91558	0.15207	0.84
Mof_Cl	Cl	0.52915	0.0583	0.07595	-0.654
Mof_Cl	Cl	0.481	0.962	0.18606	-0.74
Mof_N 	N 	0.58045	0.1609	0.14176	-0.15
Mof_N 	N 	0.4191	0.8382	0.03567	-0.136
Mof_C 	C 	0.41775	0.8355	0.01572	-0.05
Mof_C 	C 	0.58205	0.1641	0.12182	-0.047
Mof_Cu	Cu	0.21166	0.42331	0.3793	0.831
Mof_Cu	Cu	0.12446	0.24891	0.4854	0.828
Mof_Cl	Cl	0.19582	0.39163	0.40928	-0.662
Mof_Cl	Cl	0.14767	0.29533	0.51939	-0.767
Mof_N 	N 	0.24712	0.49423	0.47509	-0.151
Mof_N 	N 	0.08577	0.17153	0.369	-0.166
Mof_C 	C 	0.08442	0.16883	0.34905	-0.048
Mof_C 	C 	0.24872	0.49743	0.45515	-0.045
Mof_Cu	Cu	0.87832	0.75665	0.71264	0.843
Mof_Cu	Cu	0.79112	0.58225	0.81874	0.838
Mof_Cl	Cl	0.86248	0.72497	0.74262	-0.607
Mof_Cl	Cl	0.81433	0.62867	0.85273	-0.742
Mof_N 	N 	0.91378	0.82757	0.80843	-0.16
Mof_N 	N 	0.75243	0.50487	0.70234	-0.138
Mof_C 	C 	0.75108	0.50217	0.68239	-0.048
Mof_C 	C 	0.91538	0.83077	0.78849	0.019
Mof_Cu	Cu	0.45501	0.91002	0.95403	0.84
Mof_Cu	Cu	0.54221	0.08442	0.84793	0.826
Mof_Cl	Cl	0.47085	0.9417	0.92405	-0.628
Mof_Cl	Cl	0.519	0.038	0.81394	-0.782
Mof_N 	N 	0.41955	0.8391	0.85824	-0.135
Mof_N 	N 	0.5809	0.1618	0.96433	-0.147
Mof_C 	C 	0.58225	0.1645	0.98428	-0.041
Mof_C 	C 	0.41795	0.8359	0.87818	-0.056
Mof_Cu	Cu	0.12168	0.24335	0.28736	0.82
Mof_Cu	Cu	0.20888	0.41775	0.18126	0.835
Mof_Cl	Cl	0.13752	0.27503	0.25738	-0.663
Mof_Cl	Cl	0.18567	0.37133	0.14727	-0.771
Mof_N 	N 	0.08622	0.17243	0.19157	-0.172
Mof_N 	N 	0.24757	0.49513	0.29766	-0.144
Mof_C 	C 	0.24892	0.49783	0.31761	-0.041
Mof_C 	C 	0.08462	0.16923	0.21151	-0.052
Mof_Cu	Cu	0.78834	0.57669	0.6207	0.835
Mof_Cu	Cu	0.87554	0.75109	0.5146	0.845
Mof_Cl	Cl	0.80418	0.60837	0.59072	-0.631
Mof_Cl	Cl	0.85233	0.70467	0.48061	-0.726
Mof_N 	N 	0.75288	0.50577	0.52491	-0.145
Mof_N 	N 	0.91423	0.82847	0.631	-0.153
Mof_C 	C 	0.91558	0.83117	0.65095	0.027
Mof_C 	C 	0.75128	0.50257	0.54485	-0.053
Mof_Cu	Cu	0.45501	0.54499	0.95403	0.834
Mof_Cu	Cu	0.54221	0.45779	0.84793	0.838
Mof_Cl	Cl	0.47085	0.52915	0.92405	-0.647
Mof_Cl	Cl	0.519	0.481	0.81394	-0.745
Mof_N 	N 	0.41955	0.58045	0.85824	-0.147
Mof_N 	N 	0.5809	0.4191	0.96433	-0.14
Mof_C 	C 	0.58225	0.41775	0.98428	-0.046
Mof_C 	C 	0.41795	0.58205	0.87818	-0.049
Mof_Cu	Cu	0.12168	0.87832	0.28736	0.823
Mof_Cu	Cu	0.20888	0.79112	0.18126	0.836
Mof_Cl	Cl	0.13752	0.86248	0.25738	-0.657
Mof_Cl	Cl	0.18567	0.81433	0.14727	-0.765
Mof_N 	N 	0.08622	0.91378	0.19157	-0.169
Mof_N 	N 	0.24757	0.75243	0.29766	-0.144
Mof_C 	C 	0.24892	0.75108	0.31761	-0.042
Mof_C 	C 	0.08462	0.91538	0.21151	-0.043
Mof_Cu	Cu	0.78834	0.21166	0.6207	0.831
Mof_Cu	Cu	0.87554	0.12446	0.5146	0.836
Mof_Cl	Cl	0.80418	0.19582	0.59072	-0.656
Mof_Cl	Cl	0.85233	0.14767	0.48061	-0.74
Mof_N 	N 	0.75288	0.24712	0.52491	-0.149
Mof_N 	N 	0.91423	0.08577	0.631	-0.163
Mof_C 	C 	0.91558	0.08442	0.65095	-0.04
Mof_C 	C 	0.75128	0.24872	0.54485	-0.047
Mof_Cu	Cu	0.08998	0.54499	0.95403	0.83
Mof_Cu	Cu	0.91558	0.45779	0.84793	0.84
Mof_Cl	Cl	0.0583	0.52915	0.92405	-0.654
Mof_Cl	Cl	0.962	0.481	0.81394	-0.74
Mof_N 	N 	0.1609	0.58045	0.85824	-0.15
Mof_N 	N 	0.8382	0.4191	0.96433	-0.136
Mof_C 	C 	0.8355	0.41775	0.98428	-0.05
Mof_C 	C 	0.1641	0.58205	0.87818	-0.047
Mof_Cu	Cu	0.75665	0.87832	0.28736	0.843
Mof_Cu	Cu	0.58225	0.79112	0.18126	0.838
Mof_Cl	Cl	0.72497	0.86248	0.25738	-0.607
Mof_Cl	Cl	0.62867	0.81433	0.14727	-0.742
Mof_N 	N 	0.82757	0.91378	0.19157	-0.16
Mof_N 	N 	0.50487	0.75243	0.29766	-0.138
Mof_C 	C 	0.50217	0.75108	0.31761	-0.048
Mof_C 	C 	0.83077	0.91538	0.21151	0.019
Mof_Cu	Cu	0.42331	0.21166	0.6207	0.831
Mof_Cu	Cu	0.24891	0.12446	0.5146	0.828
Mof_Cl	Cl	0.39163	0.19582	0.59072	-0.662
Mof_Cl	Cl	0.29533	0.14767	0.48061	-0.767
Mof_N 	N 	0.49423	0.24712	0.52491	-0.151
Mof_N 	N 	0.17153	0.08577	0.631	-0.166
Mof_C 	C 	0.16883	0.08442	0.65095	-0.048
Mof_C 	C 	0.49743	0.24872	0.54485	-0.045
Mof_Cu	Cu	0.66667	0.33333	0.01922	0.81
Mof_Cu	Cu	0.66667	0.33333	0.0859	-0.016
Mof_N 	N 	0.66667	0.33333	0.11482	-0.116
Mof_Cu	Cu	0.66667	0.33333	0.0827	0.604
Mof_Cu	Cu	0.66667	0.33333	0.0753	0.345
Mof_Cu	Cu	0.33333	0.66667	0.35255	0.81
Mof_Cu	Cu	0.33333	0.66667	0.41923	-0.016
Mof_N 	N 	0.33333	0.66667	0.44815	-0.117
Mof_Cu	Cu	0.33333	0.66667	0.41603	0.604
Mof_Cu	Cu	0.33333	0.66667	0.40863	0.345
Mof_Cu	Cu	-7.03534e-32	1.40707e-31	0.68589	0.781
Mof_Cu	Cu	-0	0	0.75257	-0.013
Mof_N 	N 	7.03534e-32	1.40707e-31	0.78149	-0.153
Mof_Cu	Cu	7.03534e-32	1.40707e-31	0.74937	0.59
Mof_Cu	Cu	-0	0	0.74197	0.332
Mof_Cu	Cu	0.33333	0.66667	0.98078	0.81
Mof_Cu	Cu	0.33333	0.66667	0.9141	-0.016
Mof_N 	N 	0.33333	0.66667	0.88518	-0.116
Mof_Cu	Cu	0.33333	0.66667	0.9173	0.604
Mof_Cu	Cu	0.33333	0.66667	0.9247	0.345
Mof_Cu	Cu	-1.75884e-32	0	0.31411	0.781
Mof_Cu	Cu	-0	0	0.24743	-0.013
Mof_N 	N 	-0	0	0.21851	-0.153
Mof_Cu	Cu	1.75884e-32	3.51767e-32	0.25063	0.59
Mof_Cu	Cu	1.75884e-32	3.51767e-32	0.25803	0.332
Mof_Cu	Cu	0.66667	0.33333	0.64745	0.81
Mof_Cu	Cu	0.66667	0.33333	0.58077	-0.016
Mof_N 	N 	0.66667	0.33333	0.55185	-0.117
Mof_Cu	Cu	0.66667	0.33333	0.58397	0.604
Mof_Cu	Cu	0.66667	0.33333	0.59137	0.345
Mof_Cl	Cl	0.80276	0.19724	0.03031	-0.717
Mof_Cl	Cl	0.46943	0.53057	0.36364	-0.713
Mof_Cl	Cl	0.13609	0.86391	0.69698	-0.66
Mof_Cl	Cl	0.80276	0.60552	0.03031	-0.708
Mof_Cl	Cl	0.46943	0.93885	0.36364	-0.71
Mof_Cl	Cl	0.13609	0.27219	0.69698	-0.725
Mof_Cl	Cl	0.39448	0.19724	0.03031	-0.73
Mof_Cl	Cl	0.06115	0.53057	0.36364	-0.748
Mof_Cl	Cl	0.72781	0.86391	0.69698	-0.659
Mof_Cl	Cl	0.19724	0.80276	0.96969	-0.717
Mof_Cl	Cl	0.86391	0.13609	0.30302	-0.66
Mof_Cl	Cl	0.53057	0.46943	0.63636	-0.713
Mof_Cl	Cl	0.60552	0.80276	0.96969	-0.708
Mof_Cl	Cl	0.27219	0.13609	0.30302	-0.725
Mof_Cl	Cl	0.93885	0.46943	0.63636	-0.71
Mof_Cl	Cl	0.19724	0.39448	0.96969	-0.73
Mof_Cl	Cl	0.86391	0.72781	0.30302	-0.659
Mof_Cl	Cl	0.53057	0.06115	0.63636	-0.748
Mof_N 	N 	0.33333	0.66667	0.0087	-0.163
Mof_N 	N 	3.51767e-32	0	0.34203	-0.202
Mof_N 	N 	0.66667	0.33333	0.67537	-0.164
Mof_N 	N 	0.66667	0.33333	0.9913	-0.163
Mof_N 	N 	0.33333	0.66667	0.32463	-0.164
Mof_N 	N 	7.03534e-32	0	0.65797	-0.202
Mof_C 	C 	0.7513	0.5026	0.14823	-0.062
Mof_H 	H 	0.80675	0.6135	0.1441	0.069
Mof_H 	H 	0.75155	0.5031	0.1611	0.058
Mof_C 	C 	0.41797	0.83593	0.48156	-0.061
Mof_H 	H 	0.47342	0.94683	0.47743	0.068
Mof_H 	H 	0.41822	0.83643	0.49443	0.054
Mof_C 	C 	0.08463	0.16927	0.8149	-0.067
Mof_H 	H 	0.14008	0.28017	0.81077	0.061
Mof_H 	H 	0.08488	0.16977	0.82777	0.039
Mof_C 	C 	0.4974	0.2487	0.14823	-0.054
Mof_H 	H 	0.3865	0.19325	0.1441	0.054
Mof_H 	H 	0.4969	0.24845	0.1611	0.047
Mof_C 	C 	0.16407	0.58203	0.48156	-0.05
Mof_H 	H 	0.05317	0.52658	0.47743	0.046
Mof_H 	H 	0.16357	0.58178	0.49443	0.042
Mof_C 	C 	0.83073	0.91537	0.8149	-0
Mof_H 	H 	0.71983	0.85992	0.81077	0.056
Mof_H 	H 	0.83023	0.91512	0.82777	0.045
Mof_C 	C 	0.7513	0.2487	0.14823	-0.061
Mof_H 	H 	0.80675	0.19325	0.1441	0.067
Mof_H 	H 	0.75155	0.24845	0.1611	0.056
Mof_C 	C 	0.41797	0.58203	0.48156	-0.056
Mof_H 	H 	0.47342	0.52658	0.47743	0.059
Mof_H 	H 	0.41822	0.58178	0.49443	0.048
Mof_C 	C 	0.08463	0.91537	0.8149	-0.004
Mof_H 	H 	0.14008	0.85992	0.81077	0.056
Mof_H 	H 	0.08488	0.91512	0.82777	0.044
Mof_C 	C 	0.5026	0.7513	0.85177	-0.062
Mof_H 	H 	0.6135	0.80675	0.8559	0.069
Mof_H 	H 	0.5031	0.75155	0.8389	0.058
Mof_C 	C 	0.16927	0.08463	0.1851	-0.067
Mof_H 	H 	0.28017	0.14008	0.18923	0.061
Mof_H 	H 	0.16977	0.08488	0.17223	0.039
Mof_C 	C 	0.83593	0.41797	0.51844	-0.061
Mof_H 	H 	0.94683	0.47342	0.52257	0.068
Mof_H 	H 	0.83643	0.41822	0.50557	0.054
Mof_C 	C 	0.2487	0.4974	0.85177	-0.054
Mof_H 	H 	0.19325	0.3865	0.8559	0.054
Mof_H 	H 	0.24845	0.4969	0.8389	0.047
Mof_C 	C 	0.91537	0.83073	0.1851	-0
Mof_H 	H 	0.85992	0.71983	0.18923	0.056
Mof_H 	H 	0.91512	0.83023	0.17223	0.045
Mof_C 	C 	0.58203	0.16407	0.51844	-0.05
Mof_H 	H 	0.52658	0.05317	0.52257	0.046
Mof_H 	H 	0.58178	0.16357	0.50557	0.042
Mof_C 	C 	0.2487	0.7513	0.85177	-0.061
Mof_H 	H 	0.19325	0.80675	0.8559	0.067
Mof_H 	H 	0.24845	0.75155	0.8389	0.056
Mof_C 	C 	0.91537	0.08463	0.1851	-0.004
Mof_H 	H 	0.85992	0.14008	0.18923	0.056
Mof_H 	H 	0.91512	0.08488	0.17223	0.044
Mof_C 	C 	0.58203	0.41797	0.51844	-0.056
Mof_H 	H 	0.52658	0.47342	0.52257	0.059
Mof_H 	H 	0.58178	0.41822	0.50557	0.048
Mof_C 	C 	0.2489	0.7511	0.04209	-0.055
Mof_H 	H 	0.2478	0.7522	0.055	0.063
Mof_H 	H 	0.1934	0.8066	0.0379	0.064
Mof_C 	C 	0.91557	0.08443	0.37542	0.002
Mof_H 	H 	0.91447	0.08553	0.38833	0.065
Mof_H 	H 	0.86007	0.13993	0.37123	0.065
Mof_C 	C 	0.58223	0.41777	0.70876	-0.058
Mof_H 	H 	0.58113	0.41887	0.72167	0.069
Mof_H 	H 	0.52673	0.47327	0.70457	0.069
Mof_C 	C 	0.2489	0.4978	0.04209	-0.052
Mof_H 	H 	0.2478	0.4956	0.055	0.06
Mof_H 	H 	0.1934	0.3868	0.0379	0.059
Mof_C 	C 	0.91557	0.83113	0.37542	0.002
Mof_H 	H 	0.91447	0.82893	0.38833	0.068
Mof_H 	H 	0.86007	0.72013	0.37123	0.066
Mof_C 	C 	0.58223	0.16447	0.70876	-0.046
Mof_H 	H 	0.58113	0.16227	0.72167	0.057
Mof_H 	H 	0.52673	0.05347	0.70457	0.044
Mof_C 	C 	0.5022	0.7511	0.04209	-0.06
Mof_H 	H 	0.5044	0.7522	0.055	0.07
Mof_H 	H 	0.6132	0.8066	0.0379	0.072
Mof_C 	C 	0.16887	0.08443	0.37542	-0.067
Mof_H 	H 	0.17107	0.08553	0.38833	0.058
Mof_H 	H 	0.27987	0.13993	0.37123	0.071
Mof_C 	C 	0.83553	0.41777	0.70876	-0.059
Mof_H 	H 	0.83773	0.41887	0.72167	0.07
Mof_H 	H 	0.94653	0.47327	0.70457	0.071
Mof_C 	C 	0.7511	0.2489	0.95791	-0.055
Mof_H 	H 	0.7522	0.2478	0.945	0.063
Mof_H 	H 	0.8066	0.1934	0.9621	0.064
Mof_C 	C 	0.41777	0.58223	0.29124	-0.058
Mof_H 	H 	0.41887	0.58113	0.27833	0.069
Mof_H 	H 	0.47327	0.52673	0.29543	0.069
Mof_C 	C 	0.08443	0.91557	0.62458	0.002
Mof_H 	H 	0.08553	0.91447	0.61167	0.065
Mof_H 	H 	0.13993	0.86007	0.62877	0.065
Mof_C 	C 	0.4978	0.2489	0.95791	-0.052
Mof_H 	H 	0.4956	0.2478	0.945	0.06
Mof_H 	H 	0.3868	0.1934	0.9621	0.059
Mof_C 	C 	0.16447	0.58223	0.29124	-0.046
Mof_H 	H 	0.16227	0.58113	0.27833	0.057
Mof_H 	H 	0.05347	0.52673	0.29543	0.044
Mof_C 	C 	0.83113	0.91557	0.62458	0.002
Mof_H 	H 	0.82893	0.91447	0.61167	0.068
Mof_H 	H 	0.72013	0.86007	0.62877	0.066
Mof_C 	C 	0.7511	0.5022	0.95791	-0.06
Mof_H 	H 	0.7522	0.5044	0.945	0.07
Mof_H 	H 	0.8066	0.6132	0.9621	0.072
Mof_C 	C 	0.41777	0.83553	0.29124	-0.059
Mof_H 	H 	0.41887	0.83773	0.27833	0.07
Mof_H 	H 	0.47327	0.94653	0.29543	0.071
Mof_C 	C 	0.08443	0.16887	0.62458	-0.067
Mof_H 	H 	0.08553	0.17107	0.61167	0.058
Mof_H 	H 	0.13993	0.27987	0.62877	0.071
_end
