data_functionalizedCrystal
_audit_creation_method	'EQeq! by Chris Wilmer'
_symmetry_space_group_name_H-M	'P1'
_symmetry_Int_Tables_number	1
_symmetry_cell_setting	triclinic
loop_
_symmetry_equiv_pos_as_xyz
  x,y,z
_cell_length_a	24.927
_cell_length_b	24.927
_cell_length_c	46.045
_cell_angle_alpha	90
_cell_angle_beta	90
_cell_angle_gamma	90
loop_
_atom_site_label
_atom_site_type_symbol
_atom_site_fract_x
_atom_site_fract_y
_atom_site_fract_z
_atom_site_charge
Mof_Ag	Ag	0.71208	0.65604	0.22785	0.448
Mof_Ag	Ag	0.84585	0.61015	0.24873	0.422
Mof_Ag	Ag	0.8102	0.50038	0.28849	0.45
Mof_Ag	Ag	0.67479	0.55774	0.27382	0.408
Mof_Ag	Ag	0.72925	0.73215	0.29047	0.427
Mof_Ag	Ag	0.8711	0.71398	0.30986	0.464
Mof_Ag	Ag	0.80061	0.59139	0.3445	0.43
Mof_Ag	Ag	0.65067	0.64009	0.34684	0.479
Mof_Pd	Pd	0.7555	0.4971	0.20383	0.461
Mof_Pd	Pd	0.83075	0.7711	0.22625	0.468
Mof_Pd	Pd	0.9541	0.57041	0.31228	0.461
Mof_Pd	Pd	0.68492	0.47676	0.34935	0.48
Mof_Pd	Pd	0.57106	0.68222	0.27109	0.468
Mof_Pd	Pd	0.76551	0.74581	0.37538	0.45
Mof_S 	S 	0.69517	0.5591	0.21963	-0.448
Mof_S 	S 	0.82294	0.51506	0.23571	-0.434
Mof_S 	S 	0.80555	0.68532	0.21844	-0.457
Mof_S 	S 	0.81762	0.77051	0.27501	-0.435
Mof_S 	S 	0.91706	0.63588	0.28407	-0.447
Mof_S 	S 	0.87531	0.53189	0.32561	-0.441
Mof_S 	S 	0.7153	0.48088	0.30295	-0.442
Mof_S 	S 	0.70981	0.56162	0.36131	-0.424
Mof_S 	S 	0.6055	0.61529	0.29927	-0.434
Mof_S 	S 	0.65158	0.71463	0.25581	-0.43
Mof_S 	S 	0.69927	0.72883	0.34272	-0.43
Mof_S 	S 	0.82657	0.68658	0.35705	-0.444
Mof_O 	O 	0.6089	0.4514	0.1464	-0.302
Mof_O 	O 	0.5899	0.5344	0.1317	-0.304
Mof_O 	O 	0.8826	0.3913	0.16023	-0.509
Mof_O 	O 	0.9342	0.3729	0.1996	-0.337
Mof_O 	O 	0.871	0.7565	0.129	-0.341
Mof_O 	O 	0.7946	0.7137	0.1174	-0.287
Mof_O 	O 	0.8551	0.9549	0.2414	-0.341
Mof_O 	O 	0.9001	0.9406	0.2844	-0.302
Mof_O 	O 	0.1107	0.6497	0.2745	-0.27
Mof_O 	O 	0.0761	0.7325	0.2771	-0.346
Mof_O 	O 	0.0226	0.4298	0.36901	-0.455
Mof_O 	O 	0.9615	0.3699	0.3535	-0.312
Mof_O 	O 	0.6346	0.3028	0.317	-0.292
Mof_O 	O 	0.7102	0.2914	0.2929	-0.282
Mof_O 	O 	0.6675	0.4687	0.4512	-0.288
Mof_O 	O 	0.6243	0.5562	0.4552	-0.432
Mof_O 	O 	0.4143	0.5868	0.2977	-0.254
Mof_O 	O 	0.4351	0.5855	0.3454	-0.251
Mof_O 	O 	0.5092	0.8218	0.20855	-0.313
Mof_O 	O 	0.5752	0.8101	0.17729	-0.507
Mof_O 	O 	0.6466	0.8861	0.3989	-0.313
Mof_O 	O 	0.5713	0.8393	0.3938	-0.293
Mof_O 	O 	0.905	0.7653	0.4434	-0.292
Mof_O 	O 	0.9686	0.7576	0.4146	-0.348
Mof_N 	N 	0.6994	0.4817	0.1722	-0.247
Mof_H 	H 	0.7171	0.4748	0.1551	0.103
Mof_H 	H 	0.681	0.4511	0.1773	0.12
Mof_N 	N 	0.8051	0.4351	0.1894	-0.244
Mof_H 	H 	0.7851	0.4041	0.189	0.113
Mof_H 	H 	0.8149	0.4426	0.1706	0.106
Mof_N 	N 	0.8329	0.778	0.1822	-0.244
Mof_H 	H 	0.8153	0.8089	0.1769	0.091
Mof_H 	H 	0.8681	0.7813	0.1764	0.103
Mof_N 	N 	0.8607	0.8472	0.2316	-0.255
Mof_H 	H 	0.8926	0.8497	0.2217	0.113
Mof_H 	H 	0.8372	0.8712	0.2233	0.101
Mof_N 	N 	0.0265	0.6054	0.3036	-0.248
Mof_H 	H 	0.0449	0.6096	0.3208	0.12
Mof_H 	H 	0.0462	0.5827	0.292	0.106
Mof_N 	N 	0.989	0.5083	0.3359	-0.228
Mof_H 	H 	0.0209	0.4986	0.3274	0.083
Mof_H 	H 	0.9962	0.5199	0.3545	0.072
Mof_N 	N 	0.6689	0.397	0.3414	-0.248
Mof_H 	H 	0.6791	0.3771	0.3573	0.138
Mof_H 	H 	0.6325	0.3927	0.339	0.121
Mof_N 	N 	0.6544	0.4718	0.3908	-0.253
Mof_H 	H 	0.619	0.4615	0.3898	0.103
Mof_H 	H 	0.6727	0.4457	0.4009	0.113
Mof_N 	N 	0.4979	0.6581	0.2862	-0.251
Mof_H 	H 	0.479	0.6879	0.2919	0.134
Mof_H 	H 	0.4794	0.6424	0.2712	0.113
Mof_N 	N 	0.5389	0.7365	0.2436	-0.249
Mof_H 	H 	0.5091	0.7216	0.2351	0.104
Mof_H 	H 	0.5277	0.7657	0.2543	0.103
Mof_N 	N 	0.7114	0.8004	0.3937	-0.242
Mof_H 	H 	0.7118	0.7961	0.4136	0.096
Mof_H 	H 	0.7232	0.8346	0.3898	0.101
Mof_N 	N 	0.8247	0.7658	0.4042	-0.239
Mof_H 	H 	0.8255	0.8025	0.4061	0.104
Mof_H 	H 	0.8161	0.7516	0.4221	0.099
Mof_C 	C 	0.6373	0.5414	0.1969	0.4
Mof_C 	C 	0.6614	0.5234	0.1671	-0.201
Mof_H 	H 	0.6794	0.5545	0.1575	0.07
Mof_C 	C 	0.6147	0.5001	0.1463	0.328
Mof_C 	C 	0.6058	0.4993	0.2098	-0.745
Mof_H 	H 	0.6281	0.4673	0.2123	0.217
Mof_H 	H 	0.5754	0.4909	0.1971	0.229
Mof_H 	H 	0.5925	0.5112	0.2288	0.201
Mof_C 	C 	0.6026	0.5929	0.1923	-0.672
Mof_H 	H 	0.6247	0.6209	0.1834	0.187
Mof_H 	H 	0.5891	0.6055	0.211	0.187
Mof_H 	H 	0.5724	0.5845	0.1795	0.221
Mof_C 	C 	0.8784	0.4788	0.2179	0.337
Mof_C 	C 	0.8546	0.4244	0.2063	-0.218
Mof_H 	H 	0.8452	0.4013	0.2233	0.083
Mof_C 	C 	0.8931	0.3926	0.1862	0.391
Mof_C 	C 	0.9003	0.5107	0.1926	-0.629
Mof_H 	H 	0.8721	0.5158	0.1781	0.193
Mof_H 	H 	0.9304	0.4912	0.1839	0.196
Mof_H 	H 	0.9127	0.5457	0.1996	0.168
Mof_C 	C 	0.9211	0.4705	0.2422	-0.608
Mof_H 	H 	0.9053	0.4501	0.2582	0.174
Mof_H 	H 	0.9332	0.5055	0.2494	0.165
Mof_H 	H 	0.9518	0.4507	0.2343	0.198
Mof_C 	C 	0.824	0.6776	0.1805	0.424
Mof_C 	C 	0.8082	0.7316	0.1663	-0.235
Mof_H 	H 	0.7682	0.7355	0.1663	0.08
Mof_C 	C 	0.8301	0.7357	0.1342	0.359
Mof_C 	C 	0.8848	0.6701	0.1781	-0.685
Mof_H 	H 	0.903	0.7009	0.1869	0.2
Mof_H 	H 	0.8949	0.6676	0.1575	0.209
Mof_H 	H 	0.8954	0.6372	0.1881	0.184
Mof_C 	C 	0.795	0.6323	0.168	-0.763
Mof_H 	H 	0.7563	0.6386	0.1697	0.215
Mof_H 	H 	0.8045	0.5994	0.1784	0.214
Mof_H 	H 	0.8047	0.6286	0.1475	0.248
Mof_C 	C 	0.8213	0.8441	0.2804	0.341
Mof_C 	C 	0.8698	0.8631	0.2618	-0.176
Mof_H 	H 	0.9041	0.8475	0.2693	0.065
Mof_C 	C 	0.8742	0.9284	0.2594	0.307
Mof_C 	C 	0.7725	0.8734	0.2725	-0.668
Mof_H 	H 	0.7422	0.8597	0.2839	0.182
Mof_H 	H 	0.7652	0.8686	0.2518	0.197
Mof_H 	H 	0.7774	0.9117	0.2767	0.217
Mof_C 	C 	0.8305	0.8495	0.3146	-0.592
Mof_H 	H 	0.863	0.8299	0.3201	0.169
Mof_H 	H 	0.7996	0.8346	0.3249	0.163
Mof_H 	H 	0.8347	0.8875	0.3197	0.207
Mof_C 	C 	0.9778	0.6593	0.2649	0.414
Mof_C 	C 	0.0219	0.6598	0.2887	-0.247
Mof_H 	H 	0.008	0.6846	0.304	0.089
Mof_C 	C 	0.0741	0.6833	0.2795	0.365
Mof_C 	C 	0.9926	0.6213	0.2418	-0.707
Mof_H 	H 	0.9998	0.586	0.2503	0.209
Mof_H 	H 	0.0249	0.6342	0.2318	0.217
Mof_H 	H 	0.9631	0.6184	0.2278	0.189
Mof_C 	C 	0.967	0.7129	0.2515	-0.7
Mof_H 	H 	0.9577	0.7387	0.2667	0.196
Mof_H 	H 	0.937	0.7098	0.2378	0.192
Mof_H 	H 	0.999	0.7253	0.2412	0.216
Mof_C 	C 	0.899	0.4759	0.3496	0.4
Mof_C 	C 	0.9528	0.4612	0.3372	-0.252
Mof_H 	H 	0.947	0.4484	0.3168	0.087
Mof_C 	C 	0.9816	0.4155	0.3543	0.39
Mof_C 	C 	0.9029	0.4964	0.3801	-0.69
Mof_H 	H 	0.9301	0.5247	0.381	0.199
Mof_H 	H 	0.9132	0.4669	0.393	0.208
Mof_H 	H 	0.8681	0.5109	0.3861	0.187
Mof_C 	C 	0.8574	0.4314	0.3468	-0.707
Mof_H 	H 	0.8558	0.4193	0.3266	0.208
Mof_H 	H 	0.8222	0.4451	0.3527	0.206
Mof_H 	H 	0.8675	0.4013	0.3593	0.233
Mof_C 	C 	0.6919	0.4144	0.2901	0.406
Mof_C 	C 	0.6965	0.3764	0.3156	-0.232
Mof_H 	H 	0.7355	0.3748	0.3207	0.102
Mof_C 	C 	0.6798	0.3185	0.3077	0.341
Mof_C 	C 	0.6336	0.4185	0.2817	-0.68
Mof_H 	H 	0.6297	0.4436	0.2654	0.18
Mof_H 	H 	0.6127	0.4314	0.2983	0.198
Mof_H 	H 	0.6204	0.383	0.2758	0.203
Mof_C 	C 	0.7255	0.3991	0.2647	-0.721
Mof_H 	H 	0.7631	0.3961	0.2707	0.213
Mof_H 	H 	0.7224	0.4266	0.2495	0.2
Mof_H 	H 	0.7133	0.3645	0.257	0.243
Mof_C 	C 	0.7106	0.5539	0.4015	0.298
Mof_C 	C 	0.6583	0.5253	0.4077	-0.186
Mof_H 	H 	0.6287	0.5489	0.4005	0.061
Mof_C 	C 	0.6484	0.516	0.4411	0.279
Mof_C 	C 	0.7607	0.523	0.4102	-0.579
Mof_H 	H 	0.76	0.4874	0.4012	0.174
Mof_H 	H 	0.7618	0.5192	0.4314	0.174
Mof_H 	H 	0.7926	0.5425	0.4036	0.149
Mof_C 	C 	0.7119	0.6106	0.4151	-0.523
Mof_H 	H 	0.6804	0.6309	0.4086	0.13
Mof_H 	H 	0.7446	0.6292	0.4089	0.135
Mof_H 	H 	0.7114	0.6076	0.4363	0.14
Mof_C 	C 	0.5414	0.5776	0.3058	0.407
Mof_C 	C 	0.4997	0.6195	0.3111	-0.249
Mof_H 	H 	0.5115	0.6402	0.3285	0.099
Mof_C 	C 	0.4469	0.597	0.3179	0.314
Mof_C 	C 	0.5292	0.5446	0.2791	-0.683
Mof_H 	H 	0.5574	0.5176	0.2764	0.181
Mof_H 	H 	0.5277	0.5681	0.262	0.197
Mof_H 	H 	0.4945	0.5266	0.2815	0.216
Mof_C 	C 	0.5526	0.543	0.3314	-0.718
Mof_H 	H 	0.5806	0.517	0.3264	0.199
Mof_H 	H 	0.5199	0.524	0.337	0.237
Mof_H 	H 	0.5648	0.5654	0.3476	0.201
Mof_C 	C 	0.63	0.7743	0.2335	0.328
Mof_C 	C 	0.5759	0.7558	0.22	-0.22
Mof_H 	H 	0.5837	0.7244	0.2072	0.072
Mof_C 	C 	0.5504	0.8003	0.2006	0.408
Mof_C 	C 	0.6201	0.8235	0.2529	-0.619
Mof_H 	H 	0.5915	0.8154	0.2668	0.188
Mof_H 	H 	0.6095	0.854	0.2408	0.198
Mof_H 	H 	0.6532	0.8323	0.2634	0.168
Mof_C 	C 	0.6732	0.7837	0.2106	-0.593
Mof_H 	H 	0.6776	0.7513	0.1988	0.159
Mof_H 	H 	0.7073	0.7923	0.2202	0.159
Mof_H 	H 	0.6626	0.8137	0.1981	0.189
Mof_C 	C 	0.6552	0.7876	0.3502	0.346
Mof_C 	C 	0.6549	0.7954	0.3834	-0.216
Mof_H 	H 	0.6383	0.7632	0.3927	0.077
Mof_C 	C 	0.6235	0.8463	0.393	0.344
Mof_C 	C 	0.6752	0.8367	0.3351	-0.628
Mof_H 	H 	0.6501	0.8663	0.3383	0.192
Mof_H 	H 	0.6782	0.8295	0.3142	0.165
Mof_H 	H 	0.7105	0.8464	0.3429	0.181
Mof_C 	C 	0.6013	0.7727	0.3359	-0.618
Mof_H 	H 	0.5746	0.8003	0.3404	0.206
Mof_H 	H 	0.589	0.738	0.3435	0.18
Mof_H 	H 	0.6061	0.7702	0.3148	0.175
Mof_C 	C 	0.8781	0.6893	0.3871	0.443
Mof_C 	C 	0.882	0.7457	0.3954	-0.309
Mof_H 	H 	0.8933	0.7664	0.3778	0.103
Mof_C 	C 	0.9228	0.7559	0.4189	0.43
Mof_C 	C 	0.8623	0.6521	0.4105	-0.75
Mof_H 	H 	0.8613	0.6154	0.4029	0.205
Mof_H 	H 	0.8266	0.6619	0.4177	0.219
Mof_H 	H 	0.8883	0.6542	0.4264	0.238
Mof_C 	C 	0.9306	0.67	0.3738	-0.714
Mof_H 	H 	0.9268	0.6324	0.3679	0.197
Mof_H 	H 	0.9594	0.6731	0.3882	0.235
Mof_H 	H 	0.9392	0.6919	0.3568	0.203
Mof_La	La	0.92207	0.37786	0.11182	1.704
Mof_La	La	0.8949	0.0478	0.2736	0.213
Mof_La	La	0.8426	0.1017	0.3043	0.76
Mof_O 	O 	0.9168	0.4302	0.061	-0.448
Mof_O 	O 	0.8407	0.4103	0.0835	-0.419
Mof_C 	C 	0.8703	0.4299	0.0598	0.431
Mof_C 	C 	0.8335	0.454	0.034	-0.648
Mof_H 	H 	0.7955	0.449	0.0388	0.214
Mof_H 	H 	0.8417	0.4354	0.0158	0.196
Mof_H 	H 	0.841	0.4924	0.0317	0.214
Mof_O 	O 	0.8467	0.0028	0.3283	-0.29
Mof_O 	O 	0.7942	0.0529	0.2564	-0.363
Mof_O 	O 	0.8483	0.1877	0.2761	-0.549
Mof_Ag	Ag	0.28792	0.34396	0.72785	0.447
Mof_Ag	Ag	0.15415	0.38985	0.74873	0.421
Mof_Ag	Ag	0.1898	0.49962	0.78849	0.449
Mof_Ag	Ag	0.32521	0.44226	0.77382	0.407
Mof_Ag	Ag	0.27075	0.26785	0.79047	0.426
Mof_Ag	Ag	0.1289	0.28602	0.80986	0.462
Mof_Ag	Ag	0.19939	0.40861	0.8445	0.429
Mof_Ag	Ag	0.34933	0.35991	0.84684	0.478
Mof_Pd	Pd	0.2445	0.5029	0.70383	0.46
Mof_Pd	Pd	0.16925	0.2289	0.72625	0.467
Mof_Pd	Pd	0.0459	0.42959	0.81228	0.46
Mof_Pd	Pd	0.31508	0.52324	0.84935	0.479
Mof_Pd	Pd	0.42894	0.31778	0.77109	0.467
Mof_Pd	Pd	0.23449	0.25419	0.87538	0.449
Mof_S 	S 	0.30483	0.4409	0.71963	-0.449
Mof_S 	S 	0.17706	0.48494	0.73571	-0.435
Mof_S 	S 	0.19445	0.31468	0.71844	-0.458
Mof_S 	S 	0.18238	0.22949	0.77501	-0.436
Mof_S 	S 	0.08294	0.36412	0.78407	-0.448
Mof_S 	S 	0.12469	0.46811	0.82561	-0.442
Mof_S 	S 	0.2847	0.51912	0.80295	-0.443
Mof_S 	S 	0.29019	0.43838	0.86131	-0.425
Mof_S 	S 	0.3945	0.38471	0.79927	-0.435
Mof_S 	S 	0.34842	0.28537	0.75581	-0.43
Mof_S 	S 	0.30073	0.27117	0.84272	-0.43
Mof_S 	S 	0.17343	0.31342	0.85705	-0.444
Mof_O 	O 	0.3911	0.5486	0.6464	-0.302
Mof_O 	O 	0.4101	0.4656	0.6317	-0.304
Mof_O 	O 	0.1174	0.6087	0.66023	-0.509
Mof_O 	O 	0.0658	0.6271	0.6996	-0.337
Mof_O 	O 	0.129	0.2435	0.629	-0.341
Mof_O 	O 	0.2054	0.2863	0.6174	-0.287
Mof_O 	O 	0.1449	0.0451	0.7414	-0.341
Mof_O 	O 	0.0999	0.0594	0.7844	-0.302
Mof_O 	O 	0.8893	0.3503	0.7745	-0.27
Mof_O 	O 	0.9239	0.2675	0.7771	-0.346
Mof_O 	O 	0.9774	0.5702	0.86901	-0.455
Mof_O 	O 	0.0385	0.6301	0.8535	-0.312
Mof_O 	O 	0.3654	0.6972	0.817	-0.292
Mof_O 	O 	0.2898	0.7086	0.7929	-0.282
Mof_O 	O 	0.3325	0.5313	0.9512	-0.288
Mof_O 	O 	0.3757	0.4438	0.9552	-0.431
Mof_O 	O 	0.5857	0.4132	0.7977	-0.254
Mof_O 	O 	0.5649	0.4145	0.8454	-0.251
Mof_O 	O 	0.4908	0.1782	0.70855	-0.313
Mof_O 	O 	0.4248	0.1899	0.67729	-0.507
Mof_O 	O 	0.3534	0.1139	0.8989	-0.313
Mof_O 	O 	0.4287	0.1607	0.8938	-0.293
Mof_O 	O 	0.095	0.2347	0.9434	-0.292
Mof_O 	O 	0.0314	0.2424	0.9146	-0.348
Mof_N 	N 	0.3006	0.5183	0.6722	-0.247
Mof_H 	H 	0.2829	0.5252	0.6551	0.103
Mof_H 	H 	0.319	0.5489	0.6773	0.12
Mof_N 	N 	0.1949	0.5649	0.6894	-0.244
Mof_H 	H 	0.2149	0.5959	0.689	0.113
Mof_H 	H 	0.1851	0.5574	0.6706	0.106
Mof_N 	N 	0.1671	0.222	0.6822	-0.244
Mof_H 	H 	0.1847	0.1911	0.6769	0.091
Mof_H 	H 	0.1319	0.2187	0.6764	0.103
Mof_N 	N 	0.1393	0.1528	0.7316	-0.255
Mof_H 	H 	0.1074	0.1503	0.7217	0.113
Mof_H 	H 	0.1628	0.1288	0.7233	0.101
Mof_N 	N 	0.9735	0.3946	0.8036	-0.248
Mof_H 	H 	0.9551	0.3904	0.8208	0.12
Mof_H 	H 	0.9538	0.4173	0.792	0.106
Mof_N 	N 	0.011	0.4917	0.8359	-0.228
Mof_H 	H 	0.9791	0.5014	0.8274	0.083
Mof_H 	H 	0.0038	0.4801	0.8545	0.072
Mof_N 	N 	0.3311	0.603	0.8414	-0.248
Mof_H 	H 	0.3209	0.6229	0.8573	0.138
Mof_H 	H 	0.3675	0.6073	0.839	0.121
Mof_N 	N 	0.3456	0.5282	0.8908	-0.253
Mof_H 	H 	0.381	0.5385	0.8898	0.103
Mof_H 	H 	0.3273	0.5543	0.9009	0.113
Mof_N 	N 	0.5021	0.3419	0.7862	-0.251
Mof_H 	H 	0.521	0.3121	0.7919	0.134
Mof_H 	H 	0.5206	0.3576	0.7712	0.113
Mof_N 	N 	0.4611	0.2635	0.7436	-0.249
Mof_H 	H 	0.4909	0.2784	0.7351	0.104
Mof_H 	H 	0.4723	0.2343	0.7543	0.103
Mof_N 	N 	0.2886	0.1996	0.8937	-0.242
Mof_H 	H 	0.2882	0.2039	0.9136	0.096
Mof_H 	H 	0.2768	0.1654	0.8898	0.101
Mof_N 	N 	0.1753	0.2342	0.9042	-0.239
Mof_H 	H 	0.1745	0.1975	0.9061	0.104
Mof_H 	H 	0.1839	0.2484	0.9221	0.099
Mof_C 	C 	0.3627	0.4586	0.6969	0.4
Mof_C 	C 	0.3386	0.4766	0.6671	-0.201
Mof_H 	H 	0.3206	0.4455	0.6575	0.07
Mof_C 	C 	0.3853	0.4999	0.6463	0.328
Mof_C 	C 	0.3942	0.5007	0.7098	-0.745
Mof_H 	H 	0.3719	0.5327	0.7123	0.217
Mof_H 	H 	0.4246	0.5091	0.6971	0.229
Mof_H 	H 	0.4075	0.4888	0.7288	0.201
Mof_C 	C 	0.3974	0.4071	0.6923	-0.672
Mof_H 	H 	0.3753	0.3791	0.6834	0.187
Mof_H 	H 	0.4109	0.3945	0.711	0.187
Mof_H 	H 	0.4276	0.4155	0.6795	0.221
Mof_C 	C 	0.1216	0.5212	0.7179	0.337
Mof_C 	C 	0.1454	0.5756	0.7063	-0.218
Mof_H 	H 	0.1548	0.5987	0.7233	0.083
Mof_C 	C 	0.1069	0.6074	0.6862	0.391
Mof_C 	C 	0.0997	0.4893	0.6926	-0.629
Mof_H 	H 	0.1279	0.4842	0.6781	0.193
Mof_H 	H 	0.0696	0.5088	0.6839	0.196
Mof_H 	H 	0.0873	0.4543	0.6996	0.168
Mof_C 	C 	0.0789	0.5295	0.7422	-0.608
Mof_H 	H 	0.0947	0.5499	0.7582	0.174
Mof_H 	H 	0.0668	0.4945	0.7494	0.165
Mof_H 	H 	0.0482	0.5493	0.7343	0.198
Mof_C 	C 	0.176	0.3224	0.6805	0.424
Mof_C 	C 	0.1918	0.2684	0.6663	-0.235
Mof_H 	H 	0.2318	0.2645	0.6663	0.08
Mof_C 	C 	0.1699	0.2643	0.6342	0.359
Mof_C 	C 	0.1152	0.3299	0.6781	-0.685
Mof_H 	H 	0.097	0.2991	0.6869	0.2
Mof_H 	H 	0.1051	0.3324	0.6575	0.209
Mof_H 	H 	0.1046	0.3628	0.6881	0.184
Mof_C 	C 	0.205	0.3677	0.668	-0.763
Mof_H 	H 	0.2437	0.3614	0.6697	0.215
Mof_H 	H 	0.1955	0.4006	0.6784	0.214
Mof_H 	H 	0.1953	0.3714	0.6475	0.248
Mof_C 	C 	0.1787	0.1559	0.7804	0.341
Mof_C 	C 	0.1302	0.1369	0.7618	-0.176
Mof_H 	H 	0.0959	0.1525	0.7693	0.065
Mof_C 	C 	0.1258	0.0716	0.7594	0.307
Mof_C 	C 	0.2275	0.1266	0.7725	-0.668
Mof_H 	H 	0.2578	0.1403	0.7839	0.182
Mof_H 	H 	0.2348	0.1314	0.7518	0.197
Mof_H 	H 	0.2226	0.0883	0.7767	0.217
Mof_C 	C 	0.1695	0.1505	0.8146	-0.592
Mof_H 	H 	0.137	0.1701	0.8201	0.169
Mof_H 	H 	0.2004	0.1654	0.8249	0.163
Mof_H 	H 	0.1653	0.1125	0.8197	0.207
Mof_C 	C 	0.0222	0.3407	0.7649	0.414
Mof_C 	C 	0.9781	0.3402	0.7887	-0.247
Mof_H 	H 	0.992	0.3154	0.804	0.089
Mof_C 	C 	0.9259	0.3167	0.7795	0.365
Mof_C 	C 	0.0074	0.3787	0.7418	-0.707
Mof_H 	H 	0.0002	0.414	0.7503	0.209
Mof_H 	H 	0.9751	0.3658	0.7318	0.217
Mof_H 	H 	0.0369	0.3816	0.7278	0.189
Mof_C 	C 	0.033	0.2871	0.7515	-0.7
Mof_H 	H 	0.0423	0.2613	0.7667	0.196
Mof_H 	H 	0.063	0.2902	0.7378	0.192
Mof_H 	H 	0.001	0.2747	0.7412	0.216
Mof_C 	C 	0.101	0.5241	0.8496	0.4
Mof_C 	C 	0.0472	0.5388	0.8372	-0.252
Mof_H 	H 	0.053	0.5516	0.8168	0.087
Mof_C 	C 	0.0184	0.5845	0.8543	0.39
Mof_C 	C 	0.0971	0.5036	0.8801	-0.69
Mof_H 	H 	0.0699	0.4753	0.881	0.2
Mof_H 	H 	0.0868	0.5331	0.893	0.208
Mof_H 	H 	0.1319	0.4891	0.8861	0.187
Mof_C 	C 	0.1426	0.5686	0.8468	-0.707
Mof_H 	H 	0.1442	0.5807	0.8266	0.208
Mof_H 	H 	0.1778	0.5549	0.8527	0.206
Mof_H 	H 	0.1325	0.5987	0.8593	0.233
Mof_C 	C 	0.3081	0.5856	0.7901	0.406
Mof_C 	C 	0.3035	0.6236	0.8156	-0.232
Mof_H 	H 	0.2645	0.6252	0.8207	0.102
Mof_C 	C 	0.3202	0.6815	0.8077	0.341
Mof_C 	C 	0.3664	0.5815	0.7817	-0.68
Mof_H 	H 	0.3703	0.5564	0.7654	0.18
Mof_H 	H 	0.3873	0.5686	0.7983	0.198
Mof_H 	H 	0.3796	0.617	0.7758	0.203
Mof_C 	C 	0.2745	0.6009	0.7647	-0.721
Mof_H 	H 	0.2369	0.6039	0.7707	0.213
Mof_H 	H 	0.2776	0.5734	0.7495	0.2
Mof_H 	H 	0.2867	0.6355	0.757	0.243
Mof_C 	C 	0.2894	0.4461	0.9015	0.298
Mof_C 	C 	0.3417	0.4747	0.9077	-0.186
Mof_H 	H 	0.3713	0.4511	0.9005	0.061
Mof_C 	C 	0.3516	0.484	0.9411	0.279
Mof_C 	C 	0.2393	0.477	0.9102	-0.579
Mof_H 	H 	0.24	0.5126	0.9012	0.174
Mof_H 	H 	0.2382	0.4808	0.9314	0.174
Mof_H 	H 	0.2074	0.4575	0.9036	0.149
Mof_C 	C 	0.2881	0.3894	0.9151	-0.524
Mof_H 	H 	0.3196	0.3691	0.9086	0.13
Mof_H 	H 	0.2554	0.3708	0.9089	0.136
Mof_H 	H 	0.2886	0.3924	0.9363	0.14
Mof_C 	C 	0.4586	0.4224	0.8058	0.407
Mof_C 	C 	0.5003	0.3805	0.8111	-0.249
Mof_H 	H 	0.4885	0.3598	0.8285	0.099
Mof_C 	C 	0.5531	0.403	0.8179	0.314
Mof_C 	C 	0.4708	0.4554	0.7791	-0.683
Mof_H 	H 	0.4426	0.4824	0.7764	0.181
Mof_H 	H 	0.4723	0.4319	0.762	0.197
Mof_H 	H 	0.5055	0.4734	0.7815	0.216
Mof_C 	C 	0.4474	0.457	0.8314	-0.718
Mof_H 	H 	0.4194	0.483	0.8264	0.199
Mof_H 	H 	0.4801	0.476	0.837	0.237
Mof_H 	H 	0.4352	0.4346	0.8476	0.201
Mof_C 	C 	0.37	0.2257	0.7335	0.328
Mof_C 	C 	0.4241	0.2442	0.72	-0.22
Mof_H 	H 	0.4163	0.2756	0.7072	0.072
Mof_C 	C 	0.4496	0.1997	0.7006	0.408
Mof_C 	C 	0.3799	0.1765	0.7529	-0.619
Mof_H 	H 	0.4085	0.1846	0.7668	0.188
Mof_H 	H 	0.3905	0.146	0.7408	0.198
Mof_H 	H 	0.3468	0.1677	0.7634	0.168
Mof_C 	C 	0.3268	0.2163	0.7106	-0.594
Mof_H 	H 	0.3224	0.2487	0.6988	0.159
Mof_H 	H 	0.2927	0.2077	0.7202	0.159
Mof_H 	H 	0.3374	0.1863	0.6981	0.189
Mof_C 	C 	0.3448	0.2124	0.8502	0.346
Mof_C 	C 	0.3451	0.2046	0.8834	-0.216
Mof_H 	H 	0.3617	0.2368	0.8927	0.077
Mof_C 	C 	0.3765	0.1537	0.893	0.344
Mof_C 	C 	0.3248	0.1633	0.8351	-0.628
Mof_H 	H 	0.3499	0.1337	0.8383	0.192
Mof_H 	H 	0.3218	0.1705	0.8142	0.165
Mof_H 	H 	0.2895	0.1536	0.8429	0.181
Mof_C 	C 	0.3987	0.2273	0.8359	-0.618
Mof_H 	H 	0.4254	0.1997	0.8404	0.206
Mof_H 	H 	0.411	0.262	0.8435	0.18
Mof_H 	H 	0.3939	0.2298	0.8148	0.175
Mof_C 	C 	0.1219	0.3107	0.8871	0.443
Mof_C 	C 	0.118	0.2543	0.8954	-0.309
Mof_H 	H 	0.1067	0.2336	0.8778	0.103
Mof_C 	C 	0.0772	0.2441	0.9189	0.43
Mof_C 	C 	0.1377	0.3479	0.9105	-0.75
Mof_H 	H 	0.1387	0.3846	0.9029	0.205
Mof_H 	H 	0.1734	0.3381	0.9177	0.219
Mof_H 	H 	0.1117	0.3458	0.9264	0.238
Mof_C 	C 	0.0694	0.33	0.8738	-0.714
Mof_H 	H 	0.0732	0.3676	0.8679	0.197
Mof_H 	H 	0.0406	0.3269	0.8882	0.235
Mof_H 	H 	0.0608	0.3081	0.8568	0.203
Mof_La	La	0.07793	0.62214	0.61182	1.704
Mof_La	La	0.1051	0.9522	0.7736	0.213
Mof_La	La	0.1574	0.8983	0.8043	0.76
Mof_O 	O 	0.0832	0.5698	0.561	-0.448
Mof_O 	O 	0.1593	0.5897	0.5835	-0.419
Mof_C 	C 	0.1297	0.5701	0.5598	0.432
Mof_C 	C 	0.1665	0.546	0.534	-0.649
Mof_H 	H 	0.2045	0.551	0.5388	0.214
Mof_H 	H 	0.1583	0.5646	0.5158	0.196
Mof_H 	H 	0.159	0.5076	0.5317	0.215
Mof_O 	O 	0.1533	0.9972	0.8283	-0.29
Mof_O 	O 	0.2058	0.9471	0.7564	-0.363
Mof_O 	O 	0.1517	0.8123	0.7761	-0.549
Mof_Ag	Ag	0.84396	0.21208	0.47785	0.447
Mof_Ag	Ag	0.88985	0.34585	0.49873	0.421
Mof_Ag	Ag	0.99962	0.3102	0.53849	0.448
Mof_Ag	Ag	0.94226	0.17479	0.52382	0.406
Mof_Ag	Ag	0.76785	0.22925	0.54047	0.426
Mof_Ag	Ag	0.78602	0.3711	0.55986	0.462
Mof_Ag	Ag	0.90861	0.30061	0.5945	0.429
Mof_Ag	Ag	0.85991	0.15067	0.59684	0.478
Mof_Pd	Pd	0.0029	0.2555	0.45383	0.461
Mof_Pd	Pd	0.7289	0.33075	0.47625	0.467
Mof_Pd	Pd	0.92959	0.4541	0.56228	0.46
Mof_Pd	Pd	0.02324	0.18492	0.59935	0.479
Mof_Pd	Pd	0.81778	0.07106	0.52109	0.467
Mof_Pd	Pd	0.75419	0.26551	0.62538	0.449
Mof_S 	S 	0.9409	0.19517	0.46963	-0.448
Mof_S 	S 	0.98494	0.32294	0.48571	-0.436
Mof_S 	S 	0.81468	0.30555	0.46844	-0.458
Mof_S 	S 	0.72949	0.31762	0.52501	-0.436
Mof_S 	S 	0.86412	0.41706	0.53407	-0.448
Mof_S 	S 	0.96811	0.37531	0.57561	-0.442
Mof_S 	S 	0.01912	0.2153	0.55295	-0.442
Mof_S 	S 	0.93838	0.20981	0.61131	-0.426
Mof_S 	S 	0.88471	0.1055	0.54927	-0.434
Mof_S 	S 	0.78537	0.15158	0.50581	-0.43
Mof_S 	S 	0.77117	0.19927	0.59272	-0.43
Mof_S 	S 	0.81342	0.32657	0.60705	-0.444
Mof_O 	O 	0.0486	0.1089	0.3964	-0.301
Mof_O 	O 	0.9656	0.0899	0.3817	-0.303
Mof_O 	O 	0.1087	0.3826	0.41023	-0.509
Mof_O 	O 	0.1271	0.4342	0.4496	-0.337
Mof_O 	O 	0.7435	0.371	0.379	-0.341
Mof_O 	O 	0.7863	0.2946	0.3674	-0.287
Mof_O 	O 	0.5451	0.3551	0.4914	-0.342
Mof_O 	O 	0.5594	0.4001	0.5344	-0.302
Mof_O 	O 	0.8503	0.6107	0.5245	-0.27
Mof_O 	O 	0.7675	0.5761	0.5271	-0.346
Mof_O 	O 	0.0702	0.5226	0.61901	-0.455
Mof_O 	O 	0.1301	0.4615	0.6035	-0.311
Mof_O 	O 	0.1972	0.1346	0.567	-0.292
Mof_O 	O 	0.2086	0.2102	0.5429	-0.282
Mof_O 	O 	0.0313	0.1675	0.7012	-0.288
Mof_O 	O 	0.9438	0.1243	0.7052	-0.432
Mof_O 	O 	0.9132	0.9143	0.5477	-0.254
Mof_O 	O 	0.9145	0.9351	0.5954	-0.251
Mof_O 	O 	0.6782	0.0092	0.45855	-0.313
Mof_O 	O 	0.6899	0.0752	0.42729	-0.507
Mof_O 	O 	0.6139	0.1466	0.6489	-0.313
Mof_O 	O 	0.6607	0.0713	0.6438	-0.293
Mof_O 	O 	0.7347	0.405	0.6934	-0.293
Mof_O 	O 	0.7424	0.4686	0.6646	-0.349
Mof_N 	N 	0.0183	0.1994	0.4222	-0.247
Mof_H 	H 	0.0252	0.2171	0.4051	0.103
Mof_H 	H 	0.0489	0.181	0.4273	0.121
Mof_N 	N 	0.0649	0.3051	0.4394	-0.244
Mof_H 	H 	0.0959	0.2851	0.439	0.113
Mof_H 	H 	0.0574	0.3149	0.4206	0.106
Mof_N 	N 	0.722	0.3329	0.4322	-0.244
Mof_H 	H 	0.6911	0.3153	0.4269	0.091
Mof_H 	H 	0.7187	0.3681	0.4264	0.103
Mof_N 	N 	0.6528	0.3607	0.4816	-0.255
Mof_H 	H 	0.6503	0.3926	0.4717	0.113
Mof_H 	H 	0.6288	0.3372	0.4733	0.101
Mof_N 	N 	0.8946	0.5265	0.5536	-0.248
Mof_H 	H 	0.8904	0.5449	0.5708	0.12
Mof_H 	H 	0.9173	0.5462	0.542	0.106
Mof_N 	N 	0.9917	0.489	0.5859	-0.228
Mof_H 	H 	0.0014	0.5209	0.5774	0.083
Mof_H 	H 	0.9801	0.4962	0.6045	0.072
Mof_N 	N 	0.103	0.1689	0.5914	-0.248
Mof_H 	H 	0.1229	0.1791	0.6073	0.138
Mof_H 	H 	0.1073	0.1325	0.589	0.121
Mof_N 	N 	0.0282	0.1544	0.6408	-0.253
Mof_H 	H 	0.0385	0.119	0.6398	0.103
Mof_H 	H 	0.0543	0.1727	0.6509	0.113
Mof_N 	N 	0.8419	0.9979	0.5362	-0.251
Mof_H 	H 	0.8121	0.979	0.5419	0.134
Mof_H 	H 	0.8576	0.9794	0.5212	0.113
Mof_N 	N 	0.7635	0.0389	0.4936	-0.249
Mof_H 	H 	0.7784	0.0091	0.4851	0.104
Mof_H 	H 	0.7343	0.0277	0.5043	0.103
Mof_N 	N 	0.6996	0.2114	0.6437	-0.242
Mof_H 	H 	0.7039	0.2118	0.6636	0.096
Mof_H 	H 	0.6654	0.2232	0.6398	0.101
Mof_N 	N 	0.7342	0.3247	0.6542	-0.239
Mof_H 	H 	0.6975	0.3255	0.6561	0.104
Mof_H 	H 	0.7484	0.3161	0.6721	0.099
Mof_C 	C 	0.9586	0.1373	0.4469	0.396
Mof_C 	C 	0.9766	0.1614	0.4171	-0.2
Mof_H 	H 	0.9455	0.1794	0.4075	0.07
Mof_C 	C 	0.9999	0.1147	0.3963	0.326
Mof_C 	C 	0.0007	0.1058	0.4598	-0.735
Mof_H 	H 	0.0327	0.1281	0.4623	0.214
Mof_H 	H 	0.0091	0.0754	0.4471	0.227
Mof_H 	H 	0.9888	0.0925	0.4788	0.197
Mof_C 	C 	0.9071	0.1026	0.4423	-0.668
Mof_H 	H 	0.8791	0.1247	0.4334	0.186
Mof_H 	H 	0.8945	0.0891	0.461	0.186
Mof_H 	H 	0.9155	0.0724	0.4295	0.22
Mof_C 	C 	0.0212	0.3784	0.4679	0.339
Mof_C 	C 	0.0756	0.3546	0.4563	-0.218
Mof_H 	H 	0.0987	0.3452	0.4733	0.083
Mof_C 	C 	0.1074	0.3931	0.4362	0.391
Mof_C 	C 	0.9893	0.4003	0.4426	-0.631
Mof_H 	H 	0.9842	0.3721	0.4281	0.194
Mof_H 	H 	0.0088	0.4304	0.4339	0.197
Mof_H 	H 	0.9543	0.4127	0.4496	0.169
Mof_C 	C 	0.0295	0.4211	0.4922	-0.608
Mof_H 	H 	0.0499	0.4053	0.5082	0.174
Mof_H 	H 	0.9945	0.4332	0.4994	0.165
Mof_H 	H 	0.0493	0.4518	0.4843	0.198
Mof_C 	C 	0.8224	0.324	0.4305	0.423
Mof_C 	C 	0.7684	0.3082	0.4163	-0.235
Mof_H 	H 	0.7645	0.2682	0.4163	0.08
Mof_C 	C 	0.7643	0.3301	0.3842	0.359
Mof_C 	C 	0.8299	0.3848	0.4281	-0.685
Mof_H 	H 	0.7991	0.403	0.4369	0.2
Mof_H 	H 	0.8324	0.3949	0.4075	0.209
Mof_H 	H 	0.8628	0.3954	0.4381	0.184
Mof_C 	C 	0.8677	0.295	0.418	-0.763
Mof_H 	H 	0.8614	0.2563	0.4197	0.215
Mof_H 	H 	0.9006	0.3045	0.4284	0.214
Mof_H 	H 	0.8714	0.3047	0.3975	0.247
Mof_C 	C 	0.6559	0.3213	0.5304	0.34
Mof_C 	C 	0.6369	0.3698	0.5118	-0.176
Mof_H 	H 	0.6525	0.4041	0.5193	0.065
Mof_C 	C 	0.5716	0.3742	0.5094	0.307
Mof_C 	C 	0.6266	0.2725	0.5225	-0.668
Mof_H 	H 	0.6403	0.2422	0.5339	0.182
Mof_H 	H 	0.6314	0.2652	0.5018	0.196
Mof_H 	H 	0.5883	0.2774	0.5267	0.217
Mof_C 	C 	0.6505	0.3305	0.5646	-0.592
Mof_H 	H 	0.6701	0.363	0.5701	0.168
Mof_H 	H 	0.6654	0.2996	0.5749	0.163
Mof_H 	H 	0.6125	0.3347	0.5697	0.206
Mof_C 	C 	0.8407	0.4778	0.5149	0.414
Mof_C 	C 	0.8402	0.5219	0.5387	-0.247
Mof_H 	H 	0.8154	0.508	0.554	0.09
Mof_C 	C 	0.8167	0.5741	0.5295	0.365
Mof_C 	C 	0.8787	0.4926	0.4918	-0.708
Mof_H 	H 	0.914	0.4998	0.5003	0.209
Mof_H 	H 	0.8658	0.5249	0.4818	0.218
Mof_H 	H 	0.8816	0.4631	0.4778	0.19
Mof_C 	C 	0.7871	0.467	0.5015	-0.7
Mof_H 	H 	0.7613	0.4577	0.5167	0.196
Mof_H 	H 	0.7902	0.437	0.4878	0.192
Mof_H 	H 	0.7747	0.499	0.4912	0.216
Mof_C 	C 	0.0241	0.399	0.5996	0.4
Mof_C 	C 	0.0388	0.4528	0.5872	-0.252
Mof_H 	H 	0.0516	0.447	0.5668	0.088
Mof_C 	C 	0.0845	0.4816	0.6043	0.39
Mof_C 	C 	0.0036	0.4029	0.6301	-0.687
Mof_H 	H 	0.9753	0.4301	0.631	0.199
Mof_H 	H 	0.0331	0.4132	0.643	0.207
Mof_H 	H 	0.9891	0.3681	0.6361	0.186
Mof_C 	C 	0.0686	0.3574	0.5968	-0.707
Mof_H 	H 	0.0807	0.3558	0.5766	0.208
Mof_H 	H 	0.0549	0.3222	0.6027	0.206
Mof_H 	H 	0.0987	0.3675	0.6093	0.233
Mof_C 	C 	0.0856	0.1919	0.5401	0.406
Mof_C 	C 	0.1236	0.1965	0.5656	-0.232
Mof_H 	H 	0.1252	0.2355	0.5707	0.102
Mof_C 	C 	0.1815	0.1798	0.5577	0.341
Mof_C 	C 	0.0815	0.1336	0.5317	-0.68
Mof_H 	H 	0.0564	0.1297	0.5154	0.18
Mof_H 	H 	0.0686	0.1127	0.5483	0.198
Mof_H 	H 	0.117	0.1204	0.5258	0.203
Mof_C 	C 	0.1009	0.2255	0.5147	-0.721
Mof_H 	H 	0.1039	0.2631	0.5207	0.213
Mof_H 	H 	0.0734	0.2224	0.4995	0.2
Mof_H 	H 	0.1355	0.2133	0.507	0.243
Mof_C 	C 	0.9461	0.2106	0.6515	0.299
Mof_C 	C 	0.9747	0.1583	0.6577	-0.187
Mof_H 	H 	0.9511	0.1287	0.6505	0.061
Mof_C 	C 	0.984	0.1484	0.6911	0.278
Mof_C 	C 	0.977	0.2607	0.6602	-0.582
Mof_H 	H 	0.0126	0.26	0.6512	0.175
Mof_H 	H 	0.9808	0.2618	0.6814	0.175
Mof_H 	H 	0.9575	0.2926	0.6536	0.15
Mof_C 	C 	0.8894	0.2119	0.6651	-0.524
Mof_H 	H 	0.8691	0.1804	0.6586	0.13
Mof_H 	H 	0.8708	0.2446	0.6589	0.136
Mof_H 	H 	0.8924	0.2114	0.6863	0.14
Mof_C 	C 	0.9224	0.0414	0.5558	0.406
Mof_C 	C 	0.8805	0.9997	0.5611	-0.246
Mof_H 	H 	0.8598	0.0115	0.5785	0.098
Mof_C 	C 	0.903	0.9469	0.5679	0.313
Mof_C 	C 	0.9554	0.0292	0.5291	-0.687
Mof_H 	H 	0.9824	0.0574	0.5264	0.181
Mof_H 	H 	0.9319	0.0277	0.512	0.198
Mof_H 	H 	0.9734	0.9945	0.5315	0.218
Mof_C 	C 	0.957	0.0526	0.5814	-0.716
Mof_H 	H 	0.983	0.0806	0.5764	0.198
Mof_H 	H 	0.976	0.0199	0.587	0.236
Mof_H 	H 	0.9346	0.0648	0.5976	0.201
Mof_C 	C 	0.7257	0.13	0.4835	0.328
Mof_C 	C 	0.7442	0.0759	0.47	-0.22
Mof_H 	H 	0.7756	0.0837	0.4572	0.072
Mof_C 	C 	0.6997	0.0504	0.4506	0.408
Mof_C 	C 	0.6765	0.1201	0.5029	-0.619
Mof_H 	H 	0.6846	0.0915	0.5168	0.187
Mof_H 	H 	0.646	0.1095	0.4908	0.198
Mof_H 	H 	0.6677	0.1532	0.5134	0.168
Mof_C 	C 	0.7163	0.1732	0.4606	-0.593
Mof_H 	H 	0.7487	0.1776	0.4488	0.159
Mof_H 	H 	0.7077	0.2073	0.4702	0.159
Mof_H 	H 	0.6863	0.1626	0.4481	0.189
Mof_C 	C 	0.7124	0.1552	0.6002	0.346
Mof_C 	C 	0.7046	0.1549	0.6334	-0.216
Mof_H 	H 	0.7368	0.1383	0.6427	0.077
Mof_C 	C 	0.6537	0.1235	0.643	0.344
Mof_C 	C 	0.6633	0.1752	0.5851	-0.627
Mof_H 	H 	0.6337	0.1501	0.5883	0.192
Mof_H 	H 	0.6705	0.1782	0.5642	0.165
Mof_H 	H 	0.6536	0.2105	0.5929	0.181
Mof_C 	C 	0.7273	0.1013	0.5859	-0.618
Mof_H 	H 	0.6997	0.0746	0.5904	0.206
Mof_H 	H 	0.762	0.089	0.5935	0.18
Mof_H 	H 	0.7298	0.1061	0.5648	0.175
Mof_C 	C 	0.8107	0.3781	0.6371	0.443
Mof_C 	C 	0.7543	0.382	0.6454	-0.309
Mof_H 	H 	0.7336	0.3933	0.6278	0.103
Mof_C 	C 	0.7441	0.4228	0.6689	0.43
Mof_C 	C 	0.8479	0.3623	0.6605	-0.75
Mof_H 	H 	0.8846	0.3613	0.6529	0.205
Mof_H 	H 	0.8381	0.3266	0.6677	0.219
Mof_H 	H 	0.8458	0.3883	0.6764	0.238
Mof_C 	C 	0.83	0.4306	0.6238	-0.713
Mof_H 	H 	0.8676	0.4268	0.6179	0.197
Mof_H 	H 	0.8269	0.4594	0.6382	0.235
Mof_H 	H 	0.8081	0.4392	0.6068	0.203
Mof_La	La	0.12214	0.42207	0.36182	1.705
Mof_La	La	0.4522	0.3949	0.5236	0.216
Mof_La	La	0.3983	0.3426	0.5543	0.76
Mof_O 	O 	0.0698	0.4168	0.311	-0.448
Mof_O 	O 	0.0897	0.3407	0.3335	-0.419
Mof_C 	C 	0.0701	0.3703	0.3098	0.432
Mof_C 	C 	0.046	0.3335	0.284	-0.649
Mof_H 	H 	0.051	0.2955	0.2888	0.214
Mof_H 	H 	0.0646	0.3417	0.2658	0.196
Mof_H 	H 	0.0076	0.341	0.2817	0.215
Mof_O 	O 	0.4972	0.3467	0.5783	-0.289
Mof_O 	O 	0.4471	0.2942	0.5064	-0.363
Mof_O 	O 	0.3123	0.3483	0.5261	-0.549
Mof_Ag	Ag	0.15604	0.78792	0.97785	0.449
Mof_Ag	Ag	0.11015	0.65415	0.99873	0.424
Mof_Ag	Ag	0.00038	0.6898	0.03849	0.446
Mof_Ag	Ag	0.05774	0.82521	0.02382	0.404
Mof_Ag	Ag	0.23215	0.77075	0.04047	0.425
Mof_Ag	Ag	0.21398	0.6289	0.05986	0.462
Mof_Ag	Ag	0.09139	0.69939	0.0945	0.429
Mof_Ag	Ag	0.14009	0.84933	0.09684	0.478
Mof_Pd	Pd	0.9971	0.7445	0.95383	0.461
Mof_Pd	Pd	0.2711	0.66925	0.97625	0.468
Mof_Pd	Pd	0.07041	0.5459	0.06228	0.46
Mof_Pd	Pd	0.97676	0.81508	0.09935	0.479
Mof_Pd	Pd	0.18222	0.92894	0.02109	0.466
Mof_Pd	Pd	0.24581	0.73449	0.12538	0.449
Mof_S 	S 	0.0591	0.80483	0.96963	-0.448
Mof_S 	S 	0.01506	0.67706	0.98571	-0.435
Mof_S 	S 	0.18532	0.69445	0.96844	-0.458
Mof_S 	S 	0.27051	0.68238	0.02501	-0.437
Mof_S 	S 	0.13588	0.58294	0.03407	-0.45
Mof_S 	S 	0.03189	0.62469	0.07561	-0.442
Mof_S 	S 	0.98088	0.7847	0.05295	-0.442
Mof_S 	S 	0.06162	0.79019	0.11131	-0.425
Mof_S 	S 	0.11529	0.8945	0.04927	-0.434
Mof_S 	S 	0.21463	0.84842	0.00581	-0.433
Mof_S 	S 	0.22883	0.80073	0.09272	-0.43
Mof_S 	S 	0.18658	0.67343	0.10705	-0.444
Mof_O 	O 	0.9514	0.8911	0.8964	-0.301
Mof_O 	O 	0.0344	0.9101	0.8817	-0.303
Mof_O 	O 	0.8913	0.6174	0.91023	-0.509
Mof_O 	O 	0.8729	0.5658	0.9496	-0.337
Mof_O 	O 	0.2565	0.629	0.879	-0.341
Mof_O 	O 	0.2137	0.7054	0.8674	-0.287
Mof_O 	O 	0.4549	0.6449	0.9914	-0.339
Mof_O 	O 	0.4406	0.5999	0.0344	-0.302
Mof_O 	O 	0.1497	0.3893	0.0245	-0.27
Mof_O 	O 	0.2325	0.4239	0.0271	-0.346
Mof_O 	O 	0.9298	0.4774	0.11901	-0.455
Mof_O 	O 	0.8699	0.5385	0.1035	-0.311
Mof_O 	O 	0.8028	0.8654	0.067	-0.292
Mof_O 	O 	0.7914	0.7898	0.0429	-0.282
Mof_O 	O 	0.9687	0.8325	0.2012	-0.288
Mof_O 	O 	0.0562	0.8757	0.2052	-0.432
Mof_O 	O 	0.0868	0.0857	0.0477	-0.254
Mof_O 	O 	0.0855	0.0649	0.0954	-0.251
Mof_O 	O 	0.3218	0.9908	0.95855	-0.313
Mof_O 	O 	0.3101	0.9248	0.92729	-0.507
Mof_O 	O 	0.3861	0.8534	0.1489	-0.313
Mof_O 	O 	0.3393	0.9287	0.1438	-0.293
Mof_O 	O 	0.2653	0.595	0.1934	-0.293
Mof_O 	O 	0.2576	0.5314	0.1646	-0.349
Mof_N 	N 	0.9817	0.8006	0.9222	-0.247
Mof_H 	H 	0.9748	0.7829	0.9051	0.103
Mof_H 	H 	0.9511	0.819	0.9273	0.121
Mof_N 	N 	0.9351	0.6949	0.9394	-0.244
Mof_H 	H 	0.9041	0.7149	0.939	0.113
Mof_H 	H 	0.9426	0.6851	0.9206	0.106
Mof_N 	N 	0.278	0.6671	0.9322	-0.244
Mof_H 	H 	0.3089	0.6847	0.9269	0.091
Mof_H 	H 	0.2813	0.6319	0.9264	0.103
Mof_N 	N 	0.3472	0.6393	0.9816	-0.254
Mof_H 	H 	0.3497	0.6074	0.9717	0.113
Mof_H 	H 	0.3712	0.6628	0.9733	0.101
Mof_N 	N 	0.1054	0.4735	0.0536	-0.248
Mof_H 	H 	0.1096	0.4551	0.0708	0.12
Mof_H 	H 	0.0827	0.4538	0.042	0.106
Mof_N 	N 	0.0083	0.511	0.0859	-0.228
Mof_H 	H 	0.9986	0.4791	0.0774	0.083
Mof_H 	H 	0.0199	0.5038	0.1045	0.072
Mof_N 	N 	0.897	0.8311	0.0914	-0.248
Mof_H 	H 	0.8771	0.8209	0.1073	0.138
Mof_H 	H 	0.8927	0.8675	0.089	0.121
Mof_N 	N 	0.9718	0.8456	0.1408	-0.253
Mof_H 	H 	0.9615	0.881	0.1398	0.103
Mof_H 	H 	0.9457	0.8273	0.1509	0.113
Mof_N 	N 	0.1581	0.0021	0.0362	-0.251
Mof_H 	H 	0.1879	0.021	0.0419	0.134
Mof_H 	H 	0.1424	0.0206	0.0212	0.113
Mof_N 	N 	0.2365	0.9611	0.9936	-0.247
Mof_H 	H 	0.2216	0.9909	0.9851	0.104
Mof_H 	H 	0.2657	0.9723	0.0043	0.101
Mof_N 	N 	0.3004	0.7886	0.1437	-0.242
Mof_H 	H 	0.2961	0.7882	0.1636	0.096
Mof_H 	H 	0.3346	0.7768	0.1398	0.101
Mof_N 	N 	0.2658	0.6753	0.1542	-0.239
Mof_H 	H 	0.3025	0.6745	0.1561	0.104
Mof_H 	H 	0.2516	0.6839	0.1721	0.099
Mof_C 	C 	0.0414	0.8627	0.9469	0.396
Mof_C 	C 	0.0234	0.8386	0.9171	-0.2
Mof_H 	H 	0.0545	0.8206	0.9075	0.07
Mof_C 	C 	0.0001	0.8853	0.8963	0.326
Mof_C 	C 	0.9993	0.8942	0.9598	-0.736
Mof_H 	H 	0.9673	0.8719	0.9623	0.215
Mof_H 	H 	0.9909	0.9246	0.9471	0.227
Mof_H 	H 	0.0112	0.9075	0.9788	0.198
Mof_C 	C 	0.0929	0.8974	0.9423	-0.669
Mof_H 	H 	0.1209	0.8753	0.9334	0.186
Mof_H 	H 	0.1055	0.9109	0.961	0.187
Mof_H 	H 	0.0845	0.9276	0.9295	0.22
Mof_C 	C 	0.9788	0.6216	0.9679	0.337
Mof_C 	C 	0.9244	0.6454	0.9563	-0.217
Mof_H 	H 	0.9013	0.6548	0.9733	0.083
Mof_C 	C 	0.8926	0.6069	0.9362	0.391
Mof_C 	C 	0.0107	0.5997	0.9426	-0.63
Mof_H 	H 	0.0158	0.6279	0.9281	0.193
Mof_H 	H 	0.9912	0.5696	0.9339	0.197
Mof_H 	H 	0.0457	0.5873	0.9496	0.169
Mof_C 	C 	0.9705	0.5789	0.9922	-0.603
Mof_H 	H 	0.9501	0.5947	0.0082	0.172
Mof_H 	H 	0.0055	0.5668	0.9994	0.164
Mof_H 	H 	0.9507	0.5482	0.9843	0.197
Mof_C 	C 	0.1776	0.676	0.9305	0.423
Mof_C 	C 	0.2316	0.6918	0.9163	-0.235
Mof_H 	H 	0.2355	0.7318	0.9163	0.08
Mof_C 	C 	0.2357	0.6699	0.8842	0.359
Mof_C 	C 	0.1701	0.6152	0.9281	-0.684
Mof_H 	H 	0.2009	0.597	0.9369	0.2
Mof_H 	H 	0.1676	0.6051	0.9075	0.209
Mof_H 	H 	0.1372	0.6046	0.9381	0.184
Mof_C 	C 	0.1323	0.705	0.918	-0.763
Mof_H 	H 	0.1386	0.7437	0.9197	0.214
Mof_H 	H 	0.0994	0.6955	0.9284	0.214
Mof_H 	H 	0.1286	0.6953	0.8975	0.247
Mof_C 	C 	0.3441	0.6787	0.0304	0.34
Mof_C 	C 	0.3631	0.6302	0.0118	-0.177
Mof_H 	H 	0.3475	0.5959	0.0193	0.064
Mof_C 	C 	0.4284	0.6258	0.0094	0.304
Mof_C 	C 	0.3734	0.7275	0.0225	-0.667
Mof_H 	H 	0.3597	0.7578	0.0339	0.181
Mof_H 	H 	0.3686	0.7348	0.0018	0.195
Mof_H 	H 	0.4117	0.7226	0.0267	0.217
Mof_C 	C 	0.3495	0.6695	0.0646	-0.592
Mof_H 	H 	0.3299	0.637	0.0701	0.168
Mof_H 	H 	0.3346	0.7004	0.0749	0.163
Mof_H 	H 	0.3875	0.6653	0.0697	0.206
Mof_C 	C 	0.1593	0.5222	0.0149	0.414
Mof_C 	C 	0.1598	0.4781	0.0387	-0.247
Mof_H 	H 	0.1846	0.492	0.054	0.09
Mof_C 	C 	0.1833	0.4259	0.0295	0.365
Mof_C 	C 	0.1213	0.5074	0.9918	-0.701
Mof_H 	H 	0.086	0.5002	0.0003	0.206
Mof_H 	H 	0.1342	0.4751	0.9818	0.216
Mof_H 	H 	0.1184	0.5369	0.9778	0.188
Mof_C 	C 	0.2129	0.533	0.0015	-0.71
Mof_H 	H 	0.2387	0.5423	0.0167	0.199
Mof_H 	H 	0.2098	0.563	0.9878	0.196
Mof_H 	H 	0.2253	0.501	0.9912	0.22
Mof_C 	C 	0.9759	0.601	0.0996	0.4
Mof_C 	C 	0.9612	0.5472	0.0872	-0.252
Mof_H 	H 	0.9484	0.553	0.0668	0.087
Mof_C 	C 	0.9155	0.5184	0.1043	0.39
Mof_C 	C 	0.9964	0.5971	0.1301	-0.687
Mof_H 	H 	0.0247	0.5699	0.131	0.199
Mof_H 	H 	0.9669	0.5868	0.143	0.207
Mof_H 	H 	0.0109	0.6319	0.1361	0.186
Mof_C 	C 	0.9314	0.6426	0.0968	-0.707
Mof_H 	H 	0.9193	0.6442	0.0766	0.208
Mof_H 	H 	0.9451	0.6778	0.1027	0.206
Mof_H 	H 	0.9013	0.6325	0.1093	0.233
Mof_C 	C 	0.9144	0.8081	0.0401	0.408
Mof_C 	C 	0.8764	0.8035	0.0656	-0.232
Mof_H 	H 	0.8748	0.7645	0.0707	0.102
Mof_C 	C 	0.8185	0.8202	0.0577	0.341
Mof_C 	C 	0.9185	0.8664	0.0317	-0.681
Mof_H 	H 	0.9436	0.8703	0.0154	0.18
Mof_H 	H 	0.9314	0.8873	0.0483	0.198
Mof_H 	H 	0.883	0.8796	0.0258	0.203
Mof_C 	C 	0.8991	0.7745	0.0147	-0.727
Mof_H 	H 	0.8961	0.7369	0.0207	0.215
Mof_H 	H 	0.9266	0.7776	0.9995	0.203
Mof_H 	H 	0.8645	0.7867	0.007	0.245
Mof_C 	C 	0.0539	0.7894	0.1515	0.299
Mof_C 	C 	0.0253	0.8417	0.1577	-0.187
Mof_H 	H 	0.0489	0.8713	0.1505	0.061
Mof_C 	C 	0.016	0.8516	0.1911	0.278
Mof_C 	C 	0.023	0.7393	0.1602	-0.582
Mof_H 	H 	0.9874	0.74	0.1512	0.175
Mof_H 	H 	0.0192	0.7382	0.1814	0.175
Mof_H 	H 	0.0425	0.7074	0.1536	0.15
Mof_C 	C 	0.1106	0.7881	0.1651	-0.524
Mof_H 	H 	0.1309	0.8196	0.1586	0.13
Mof_H 	H 	0.1292	0.7554	0.1589	0.136
Mof_H 	H 	0.1076	0.7886	0.1863	0.14
Mof_C 	C 	0.0776	0.9586	0.0558	0.406
Mof_C 	C 	0.1195	0.0003	0.0611	-0.246
Mof_H 	H 	0.1402	0.9885	0.0785	0.098
Mof_C 	C 	0.097	0.0531	0.0679	0.313
Mof_C 	C 	0.0446	0.9708	0.0291	-0.686
Mof_H 	H 	0.0176	0.9426	0.0264	0.181
Mof_H 	H 	0.0681	0.9723	0.012	0.197
Mof_H 	H 	0.0266	0.0055	0.0315	0.217
Mof_C 	C 	0.043	0.9474	0.0814	-0.716
Mof_H 	H 	0.017	0.9194	0.0764	0.198
Mof_H 	H 	0.024	0.9801	0.087	0.236
Mof_H 	H 	0.0654	0.9352	0.0976	0.2
Mof_C 	C 	0.2743	0.87	0.9835	0.334
Mof_C 	C 	0.2558	0.9241	0.97	-0.221
Mof_H 	H 	0.2244	0.9163	0.9572	0.072
Mof_C 	C 	0.3003	0.9496	0.9506	0.408
Mof_C 	C 	0.3235	0.8799	0.0029	-0.63
Mof_H 	H 	0.3154	0.9085	0.0168	0.19
Mof_H 	H 	0.354	0.8905	0.9908	0.202
Mof_H 	H 	0.3323	0.8468	0.0134	0.171
Mof_C 	C 	0.2837	0.8268	0.9606	-0.598
Mof_H 	H 	0.2513	0.8224	0.9488	0.16
Mof_H 	H 	0.2923	0.7927	0.9702	0.161
Mof_H 	H 	0.3137	0.8374	0.9481	0.19
Mof_C 	C 	0.2876	0.8448	0.1002	0.346
Mof_C 	C 	0.2954	0.8451	0.1334	-0.216
Mof_H 	H 	0.2632	0.8617	0.1427	0.077
Mof_C 	C 	0.3463	0.8765	0.143	0.344
Mof_C 	C 	0.3367	0.8248	0.0851	-0.627
Mof_H 	H 	0.3663	0.8499	0.0883	0.192
Mof_H 	H 	0.3295	0.8218	0.0642	0.165
Mof_H 	H 	0.3464	0.7895	0.0929	0.181
Mof_C 	C 	0.2727	0.8987	0.0859	-0.618
Mof_H 	H 	0.3003	0.9254	0.0904	0.206
Mof_H 	H 	0.238	0.911	0.0935	0.18
Mof_H 	H 	0.2702	0.8939	0.0648	0.175
Mof_C 	C 	0.1893	0.6219	0.1371	0.443
Mof_C 	C 	0.2457	0.618	0.1454	-0.309
Mof_H 	H 	0.2664	0.6067	0.1278	0.103
Mof_C 	C 	0.2559	0.5772	0.1689	0.43
Mof_C 	C 	0.1521	0.6377	0.1605	-0.75
Mof_H 	H 	0.1154	0.6387	0.1529	0.205
Mof_H 	H 	0.1619	0.6734	0.1677	0.219
Mof_H 	H 	0.1542	0.6117	0.1764	0.238
Mof_C 	C 	0.17	0.5694	0.1238	-0.713
Mof_H 	H 	0.1324	0.5732	0.1179	0.197
Mof_H 	H 	0.1731	0.5406	0.1382	0.235
Mof_H 	H 	0.1919	0.5608	0.1068	0.203
Mof_La	La	0.87786	0.57793	0.86182	1.705
Mof_La	La	0.5478	0.6051	0.0236	0.215
Mof_La	La	0.6017	0.6574	0.0543	0.763
Mof_O 	O 	0.9302	0.5832	0.811	-0.448
Mof_O 	O 	0.9103	0.6593	0.8335	-0.419
Mof_C 	C 	0.9299	0.6297	0.8098	0.432
Mof_C 	C 	0.954	0.6665	0.784	-0.649
Mof_H 	H 	0.949	0.7045	0.7888	0.214
Mof_H 	H 	0.9354	0.6583	0.7658	0.196
Mof_H 	H 	0.9924	0.659	0.7817	0.215
Mof_O 	O 	0.5028	0.6533	0.0783	-0.289
Mof_O 	O 	0.5529	0.7058	0.0064	-0.363
Mof_O 	O 	0.6877	0.6517	0.0261	-0.548
Mof_Ag	Ag	0.78792	0.15604	0.02215	0.445
Mof_Ag	Ag	0.65415	0.11015	0.00127	0.419
Mof_Ag	Ag	0.6898	0.00038	0.96151	0.45
Mof_Ag	Ag	0.82521	0.05774	0.97618	0.408
Mof_Ag	Ag	0.77075	0.23215	0.95953	0.426
Mof_Ag	Ag	0.6289	0.21398	0.94014	0.463
Mof_Ag	Ag	0.69939	0.09139	0.9055	0.429
Mof_Ag	Ag	0.84933	0.14009	0.90316	0.478
Mof_Pd	Pd	0.7445	0.9971	0.04617	0.461
Mof_Pd	Pd	0.66925	0.2711	0.02375	0.466
Mof_Pd	Pd	0.5459	0.07041	0.93772	0.46
Mof_Pd	Pd	0.81508	0.97676	0.90065	0.479
Mof_Pd	Pd	0.92894	0.18222	0.97891	0.468
Mof_Pd	Pd	0.73449	0.24581	0.87462	0.449
Mof_S 	S 	0.80483	0.0591	0.03037	-0.449
Mof_S 	S 	0.67706	0.01506	0.01429	-0.437
Mof_S 	S 	0.69445	0.18532	0.03156	-0.458
Mof_S 	S 	0.68238	0.27051	0.97499	-0.434
Mof_S 	S 	0.58294	0.13588	0.96593	-0.447
Mof_S 	S 	0.62469	0.03189	0.92439	-0.442
Mof_S 	S 	0.7847	0.98088	0.94705	-0.442
Mof_S 	S 	0.79019	0.06162	0.88869	-0.426
Mof_S 	S 	0.8945	0.11529	0.95073	-0.435
Mof_S 	S 	0.84842	0.21463	0.99419	-0.427
Mof_S 	S 	0.80073	0.22883	0.90728	-0.43
Mof_S 	S 	0.67343	0.18658	0.89295	-0.444
Mof_O 	O 	0.8911	0.9514	0.1036	-0.301
Mof_O 	O 	0.9101	0.0344	0.1183	-0.303
Mof_O 	O 	0.6174	0.8913	0.08977	-0.509
Mof_O 	O 	0.5658	0.8729	0.0504	-0.338
Mof_O 	O 	0.629	0.2565	0.121	-0.341
Mof_O 	O 	0.7054	0.2137	0.1326	-0.287
Mof_O 	O 	0.6449	0.4549	0.0086	-0.344
Mof_O 	O 	0.5999	0.4406	0.9656	-0.303
Mof_O 	O 	0.3893	0.1497	0.9755	-0.269
Mof_O 	O 	0.4239	0.2325	0.9729	-0.345
Mof_O 	O 	0.4774	0.9298	0.88099	-0.455
Mof_O 	O 	0.5385	0.8699	0.8965	-0.311
Mof_O 	O 	0.8654	0.8028	0.933	-0.292
Mof_O 	O 	0.7898	0.7914	0.9571	-0.281
Mof_O 	O 	0.8325	0.9687	0.7988	-0.288
Mof_O 	O 	0.8757	0.0562	0.7948	-0.432
Mof_O 	O 	0.0857	0.0868	0.9523	-0.254
Mof_O 	O 	0.0649	0.0855	0.9046	-0.251
Mof_O 	O 	0.9908	0.3218	0.04145	-0.314
Mof_O 	O 	0.9248	0.3101	0.07271	-0.507
Mof_O 	O 	0.8534	0.3861	0.8511	-0.313
Mof_O 	O 	0.9287	0.3393	0.8562	-0.293
Mof_O 	O 	0.595	0.2653	0.8066	-0.293
Mof_O 	O 	0.5314	0.2576	0.8354	-0.349
Mof_N 	N 	0.8006	0.9817	0.0778	-0.247
Mof_H 	H 	0.7829	0.9748	0.0949	0.103
Mof_H 	H 	0.819	0.9511	0.0727	0.121
Mof_N 	N 	0.6949	0.9351	0.0606	-0.244
Mof_H 	H 	0.7149	0.9041	0.061	0.113
Mof_H 	H 	0.6851	0.9426	0.0794	0.106
Mof_N 	N 	0.6671	0.278	0.0678	-0.244
Mof_H 	H 	0.6847	0.3089	0.0731	0.091
Mof_H 	H 	0.6319	0.2813	0.0736	0.103
Mof_N 	N 	0.6393	0.3472	0.0184	-0.255
Mof_H 	H 	0.6074	0.3497	0.0283	0.113
Mof_H 	H 	0.6628	0.3712	0.0267	0.101
Mof_N 	N 	0.4735	0.1054	0.9464	-0.248
Mof_H 	H 	0.4551	0.1096	0.9292	0.12
Mof_H 	H 	0.4538	0.0827	0.958	0.106
Mof_N 	N 	0.511	0.0083	0.9141	-0.228
Mof_H 	H 	0.4791	0.9986	0.9226	0.083
Mof_H 	H 	0.5038	0.0199	0.8955	0.072
Mof_N 	N 	0.8311	0.897	0.9086	-0.248
Mof_H 	H 	0.8209	0.8771	0.8927	0.138
Mof_H 	H 	0.8675	0.8927	0.911	0.121
Mof_N 	N 	0.8456	0.9718	0.8592	-0.253
Mof_H 	H 	0.881	0.9615	0.8602	0.103
Mof_H 	H 	0.8273	0.9457	0.8491	0.113
Mof_N 	N 	0.0021	0.1581	0.9638	-0.251
Mof_H 	H 	0.021	0.1879	0.9581	0.134
Mof_H 	H 	0.0206	0.1424	0.9788	0.114
Mof_N 	N 	0.9611	0.2365	0.0064	-0.25
Mof_H 	H 	0.9909	0.2216	0.0149	0.104
Mof_H 	H 	0.9723	0.2657	0.9957	0.104
Mof_N 	N 	0.7886	0.3004	0.8563	-0.242
Mof_H 	H 	0.7882	0.2961	0.8364	0.096
Mof_H 	H 	0.7768	0.3346	0.8602	0.101
Mof_N 	N 	0.6753	0.2658	0.8458	-0.239
Mof_H 	H 	0.6745	0.3025	0.8439	0.104
Mof_H 	H 	0.6839	0.2516	0.8279	0.099
Mof_C 	C 	0.8627	0.0414	0.0531	0.395
Mof_C 	C 	0.8386	0.0234	0.0829	-0.2
Mof_H 	H 	0.8206	0.0545	0.0925	0.07
Mof_C 	C 	0.8853	0.0001	0.1037	0.326
Mof_C 	C 	0.8942	0.9993	0.0402	-0.734
Mof_H 	H 	0.8719	0.9673	0.0377	0.214
Mof_H 	H 	0.9246	0.9909	0.0529	0.227
Mof_H 	H 	0.9075	0.0112	0.0212	0.196
Mof_C 	C 	0.8974	0.0929	0.0577	-0.668
Mof_H 	H 	0.8753	0.1209	0.0666	0.186
Mof_H 	H 	0.9109	0.1055	0.039	0.186
Mof_H 	H 	0.9276	0.0845	0.0705	0.219
Mof_C 	C 	0.6216	0.9788	0.0321	0.34
Mof_C 	C 	0.6454	0.9244	0.0437	-0.218
Mof_H 	H 	0.6548	0.9013	0.0267	0.083
Mof_C 	C 	0.6069	0.8926	0.0638	0.391
Mof_C 	C 	0.5997	0.0107	0.0574	-0.632
Mof_H 	H 	0.6279	0.0158	0.0719	0.194
Mof_H 	H 	0.5696	0.9912	0.0661	0.197
Mof_H 	H 	0.5873	0.0457	0.0504	0.169
Mof_C 	C 	0.5789	0.9705	0.0078	-0.614
Mof_H 	H 	0.5947	0.9501	0.9918	0.177
Mof_H 	H 	0.5668	0.0055	0.0006	0.166
Mof_H 	H 	0.5482	0.9507	0.0157	0.199
Mof_C 	C 	0.676	0.1776	0.0695	0.424
Mof_C 	C 	0.6918	0.2316	0.0837	-0.235
Mof_H 	H 	0.7318	0.2355	0.0837	0.08
Mof_C 	C 	0.6699	0.2357	0.1158	0.359
Mof_C 	C 	0.6152	0.1701	0.0719	-0.685
Mof_H 	H 	0.597	0.2009	0.0631	0.2
Mof_H 	H 	0.6051	0.1676	0.0925	0.209
Mof_H 	H 	0.6046	0.1372	0.0619	0.184
Mof_C 	C 	0.705	0.1323	0.082	-0.763
Mof_H 	H 	0.7437	0.1386	0.0803	0.215
Mof_H 	H 	0.6955	0.0994	0.0716	0.214
Mof_H 	H 	0.6953	0.1286	0.1025	0.248
Mof_C 	C 	0.6787	0.3441	0.9696	0.341
Mof_C 	C 	0.6302	0.3631	0.9882	-0.176
Mof_H 	H 	0.5959	0.3475	0.9807	0.065
Mof_C 	C 	0.6258	0.4284	0.9906	0.309
Mof_C 	C 	0.7275	0.3734	0.9775	-0.669
Mof_H 	H 	0.7578	0.3597	0.9661	0.182
Mof_H 	H 	0.7348	0.3686	0.9982	0.197
Mof_H 	H 	0.7226	0.4117	0.9733	0.218
Mof_C 	C 	0.6695	0.3495	0.9354	-0.592
Mof_H 	H 	0.637	0.3299	0.9299	0.168
Mof_H 	H 	0.7004	0.3346	0.9251	0.163
Mof_H 	H 	0.6653	0.3875	0.9303	0.206
Mof_C 	C 	0.5222	0.1593	0.9851	0.414
Mof_C 	C 	0.4781	0.1598	0.9613	-0.246
Mof_H 	H 	0.492	0.1846	0.946	0.089
Mof_C 	C 	0.4259	0.1833	0.9705	0.365
Mof_C 	C 	0.5074	0.1213	0.0082	-0.715
Mof_H 	H 	0.5002	0.086	0.9997	0.212
Mof_H 	H 	0.4751	0.1342	0.0182	0.219
Mof_H 	H 	0.5369	0.1184	0.0222	0.191
Mof_C 	C 	0.533	0.2129	0.9985	-0.69
Mof_H 	H 	0.5423	0.2387	0.9833	0.194
Mof_H 	H 	0.563	0.2098	0.0122	0.189
Mof_H 	H 	0.501	0.2253	0.0088	0.212
Mof_C 	C 	0.601	0.9759	0.9004	0.4
Mof_C 	C 	0.5472	0.9612	0.9128	-0.252
Mof_H 	H 	0.553	0.9484	0.9332	0.088
Mof_C 	C 	0.5184	0.9155	0.8957	0.39
Mof_C 	C 	0.5971	0.9964	0.8699	-0.687
Mof_H 	H 	0.5699	0.0247	0.869	0.199
Mof_H 	H 	0.5868	0.9669	0.857	0.207
Mof_H 	H 	0.6319	0.0109	0.8639	0.186
Mof_C 	C 	0.6426	0.9314	0.9032	-0.707
Mof_H 	H 	0.6442	0.9193	0.9234	0.208
Mof_H 	H 	0.6778	0.9451	0.8973	0.206
Mof_H 	H 	0.6325	0.9013	0.8907	0.233
Mof_C 	C 	0.8081	0.9144	0.9599	0.405
Mof_C 	C 	0.8035	0.8764	0.9344	-0.231
Mof_H 	H 	0.7645	0.8748	0.9293	0.102
Mof_C 	C 	0.8202	0.8185	0.9423	0.341
Mof_C 	C 	0.8664	0.9185	0.9683	-0.679
Mof_H 	H 	0.8703	0.9436	0.9846	0.18
Mof_H 	H 	0.8873	0.9314	0.9517	0.198
Mof_H 	H 	0.8796	0.883	0.9742	0.203
Mof_C 	C 	0.7745	0.8991	0.9853	-0.715
Mof_H 	H 	0.7369	0.8961	0.9793	0.212
Mof_H 	H 	0.7776	0.9266	0.0005	0.198
Mof_H 	H 	0.7867	0.8645	0.993	0.242
Mof_C 	C 	0.7894	0.0539	0.8485	0.299
Mof_C 	C 	0.8417	0.0253	0.8423	-0.187
Mof_H 	H 	0.8713	0.0489	0.8495	0.061
Mof_C 	C 	0.8516	0.016	0.8089	0.278
Mof_C 	C 	0.7393	0.023	0.8398	-0.582
Mof_H 	H 	0.74	0.9874	0.8488	0.175
Mof_H 	H 	0.7382	0.0192	0.8186	0.175
Mof_H 	H 	0.7074	0.0425	0.8464	0.15
Mof_C 	C 	0.7881	0.1106	0.8349	-0.524
Mof_H 	H 	0.8196	0.1309	0.8414	0.13
Mof_H 	H 	0.7554	0.1292	0.8411	0.136
Mof_H 	H 	0.7886	0.1076	0.8137	0.14
Mof_C 	C 	0.9586	0.0776	0.9442	0.407
Mof_C 	C 	0.0003	0.1195	0.9389	-0.246
Mof_H 	H 	0.9885	0.1402	0.9215	0.098
Mof_C 	C 	0.0531	0.097	0.9321	0.313
Mof_C 	C 	0.9708	0.0446	0.9709	-0.688
Mof_H 	H 	0.9426	0.0176	0.9736	0.182
Mof_H 	H 	0.9723	0.0681	0.988	0.198
Mof_H 	H 	0.0055	0.0266	0.9685	0.218
Mof_C 	C 	0.9474	0.043	0.9186	-0.716
Mof_H 	H 	0.9194	0.017	0.9236	0.198
Mof_H 	H 	0.9801	0.024	0.913	0.236
Mof_H 	H 	0.9352	0.0654	0.9024	0.201
Mof_C 	C 	0.87	0.2743	0.0165	0.323
Mof_C 	C 	0.9241	0.2558	0.03	-0.218
Mof_H 	H 	0.9163	0.2244	0.0428	0.071
Mof_C 	C 	0.9496	0.3003	0.0494	0.407
Mof_C 	C 	0.8799	0.3235	0.9971	-0.608
Mof_H 	H 	0.9085	0.3154	0.9832	0.185
Mof_H 	H 	0.8905	0.354	0.0092	0.194
Mof_H 	H 	0.8468	0.3323	0.9866	0.165
Mof_C 	C 	0.8268	0.2837	0.0394	-0.589
Mof_H 	H 	0.8224	0.2513	0.0512	0.157
Mof_H 	H 	0.7927	0.2923	0.0298	0.157
Mof_H 	H 	0.8374	0.3137	0.0519	0.187
Mof_C 	C 	0.8448	0.2876	0.8998	0.346
Mof_C 	C 	0.8451	0.2954	0.8666	-0.216
Mof_H 	H 	0.8617	0.2632	0.8573	0.077
Mof_C 	C 	0.8765	0.3463	0.857	0.344
Mof_C 	C 	0.8248	0.3367	0.9149	-0.628
Mof_H 	H 	0.8499	0.3663	0.9117	0.192
Mof_H 	H 	0.8218	0.3295	0.9358	0.165
Mof_H 	H 	0.7895	0.3464	0.9071	0.181
Mof_C 	C 	0.8987	0.2727	0.9141	-0.618
Mof_H 	H 	0.9254	0.3003	0.9096	0.206
Mof_H 	H 	0.911	0.238	0.9065	0.18
Mof_H 	H 	0.8939	0.2702	0.9352	0.175
Mof_C 	C 	0.6219	0.1893	0.8629	0.443
Mof_C 	C 	0.618	0.2457	0.8546	-0.309
Mof_H 	H 	0.6067	0.2664	0.8722	0.103
Mof_C 	C 	0.5772	0.2559	0.8311	0.43
Mof_C 	C 	0.6377	0.1521	0.8395	-0.75
Mof_H 	H 	0.6387	0.1154	0.8471	0.205
Mof_H 	H 	0.6734	0.1619	0.8323	0.219
Mof_H 	H 	0.6117	0.1542	0.8236	0.238
Mof_C 	C 	0.5694	0.17	0.8762	-0.713
Mof_H 	H 	0.5732	0.1324	0.8821	0.196
Mof_H 	H 	0.5406	0.1731	0.8618	0.235
Mof_H 	H 	0.5608	0.1919	0.8932	0.202
Mof_La	La	0.57793	0.87786	0.13818	1.705
Mof_La	La	0.6051	0.5478	0.9764	0.223
Mof_La	La	0.6574	0.6017	0.9457	0.761
Mof_O 	O 	0.5832	0.9302	0.189	-0.448
Mof_O 	O 	0.6593	0.9103	0.1665	-0.419
Mof_C 	C 	0.6297	0.9299	0.1902	0.432
Mof_C 	C 	0.6665	0.954	0.216	-0.649
Mof_H 	H 	0.7045	0.949	0.2112	0.214
Mof_H 	H 	0.6583	0.9354	0.2342	0.196
Mof_H 	H 	0.659	0.9924	0.2183	0.215
Mof_O 	O 	0.6533	0.5028	0.9217	-0.289
Mof_O 	O 	0.7058	0.5529	0.9936	-0.361
Mof_O 	O 	0.6517	0.6877	0.9739	-0.546
Mof_Ag	Ag	0.21208	0.84396	0.52215	0.447
Mof_Ag	Ag	0.34585	0.88985	0.50127	0.421
Mof_Ag	Ag	0.3102	0.99962	0.46151	0.448
Mof_Ag	Ag	0.17479	0.94226	0.47618	0.406
Mof_Ag	Ag	0.22925	0.76785	0.45953	0.426
Mof_Ag	Ag	0.3711	0.78602	0.44014	0.462
Mof_Ag	Ag	0.30061	0.90861	0.4055	0.429
Mof_Ag	Ag	0.15067	0.85991	0.40316	0.478
Mof_Pd	Pd	0.2555	0.0029	0.54617	0.461
Mof_Pd	Pd	0.33075	0.7289	0.52375	0.467
Mof_Pd	Pd	0.4541	0.92959	0.43772	0.46
Mof_Pd	Pd	0.18492	0.02324	0.40065	0.479
Mof_Pd	Pd	0.07106	0.81778	0.47891	0.467
Mof_Pd	Pd	0.26551	0.75419	0.37462	0.449
Mof_S 	S 	0.19517	0.9409	0.53037	-0.448
Mof_S 	S 	0.32294	0.98494	0.51429	-0.436
Mof_S 	S 	0.30555	0.81468	0.53156	-0.458
Mof_S 	S 	0.31762	0.72949	0.47499	-0.436
Mof_S 	S 	0.41706	0.86412	0.46593	-0.448
Mof_S 	S 	0.37531	0.96811	0.42439	-0.442
Mof_S 	S 	0.2153	0.01912	0.44705	-0.442
Mof_S 	S 	0.20981	0.93838	0.38869	-0.426
Mof_S 	S 	0.1055	0.88471	0.45073	-0.434
Mof_S 	S 	0.15158	0.78537	0.49419	-0.43
Mof_S 	S 	0.19927	0.77117	0.40728	-0.43
Mof_S 	S 	0.32657	0.81342	0.39295	-0.444
Mof_O 	O 	0.1089	0.0486	0.6036	-0.301
Mof_O 	O 	0.0899	0.9656	0.6183	-0.303
Mof_O 	O 	0.3826	0.1087	0.58977	-0.509
Mof_O 	O 	0.4342	0.1271	0.5504	-0.337
Mof_O 	O 	0.371	0.7435	0.621	-0.341
Mof_O 	O 	0.2946	0.7863	0.6326	-0.287
Mof_O 	O 	0.3551	0.5451	0.5086	-0.342
Mof_O 	O 	0.4001	0.5594	0.4656	-0.302
Mof_O 	O 	0.6107	0.8503	0.4755	-0.27
Mof_O 	O 	0.5761	0.7675	0.4729	-0.346
Mof_O 	O 	0.5226	0.0702	0.38099	-0.455
Mof_O 	O 	0.4615	0.1301	0.3965	-0.311
Mof_O 	O 	0.1346	0.1972	0.433	-0.292
Mof_O 	O 	0.2102	0.2086	0.4571	-0.282
Mof_O 	O 	0.1675	0.0313	0.2988	-0.288
Mof_O 	O 	0.1243	0.9438	0.2948	-0.432
Mof_O 	O 	0.9143	0.9132	0.4523	-0.254
Mof_O 	O 	0.9351	0.9145	0.4046	-0.251
Mof_O 	O 	0.0092	0.6782	0.54145	-0.313
Mof_O 	O 	0.0752	0.6899	0.57271	-0.507
Mof_O 	O 	0.1466	0.6139	0.3511	-0.313
Mof_O 	O 	0.0713	0.6607	0.3562	-0.293
Mof_O 	O 	0.405	0.7347	0.3066	-0.293
Mof_O 	O 	0.4686	0.7424	0.3354	-0.349
Mof_N 	N 	0.1994	0.0183	0.5778	-0.247
Mof_H 	H 	0.2171	0.0252	0.5949	0.103
Mof_H 	H 	0.181	0.0489	0.5727	0.121
Mof_N 	N 	0.3051	0.0649	0.5606	-0.244
Mof_H 	H 	0.2851	0.0959	0.561	0.113
Mof_H 	H 	0.3149	0.0574	0.5794	0.106
Mof_N 	N 	0.3329	0.722	0.5678	-0.244
Mof_H 	H 	0.3153	0.6911	0.5731	0.091
Mof_H 	H 	0.3681	0.7187	0.5736	0.103
Mof_N 	N 	0.3607	0.6528	0.5184	-0.255
Mof_H 	H 	0.3926	0.6503	0.5283	0.113
Mof_H 	H 	0.3372	0.6288	0.5267	0.101
Mof_N 	N 	0.5265	0.8946	0.4464	-0.248
Mof_H 	H 	0.5449	0.8904	0.4292	0.12
Mof_H 	H 	0.5462	0.9173	0.458	0.106
Mof_N 	N 	0.489	0.9917	0.4141	-0.228
Mof_H 	H 	0.5209	0.0014	0.4226	0.083
Mof_H 	H 	0.4962	0.9801	0.3955	0.072
Mof_N 	N 	0.1689	0.103	0.4086	-0.248
Mof_H 	H 	0.1791	0.1229	0.3927	0.138
Mof_H 	H 	0.1325	0.1073	0.411	0.121
Mof_N 	N 	0.1544	0.0282	0.3592	-0.253
Mof_H 	H 	0.119	0.0385	0.3602	0.103
Mof_H 	H 	0.1727	0.0543	0.3491	0.113
Mof_N 	N 	0.9979	0.8419	0.4638	-0.251
Mof_H 	H 	0.979	0.8121	0.4581	0.134
Mof_H 	H 	0.9794	0.8576	0.4788	0.113
Mof_N 	N 	0.0389	0.7635	0.5064	-0.249
Mof_H 	H 	0.0091	0.7784	0.5149	0.104
Mof_H 	H 	0.0277	0.7343	0.4957	0.103
Mof_N 	N 	0.2114	0.6996	0.3563	-0.242
Mof_H 	H 	0.2118	0.7039	0.3364	0.096
Mof_H 	H 	0.2232	0.6654	0.3602	0.101
Mof_N 	N 	0.3247	0.7342	0.3458	-0.239
Mof_H 	H 	0.3255	0.6975	0.3439	0.104
Mof_H 	H 	0.3161	0.7484	0.3279	0.099
Mof_C 	C 	0.1373	0.9586	0.5531	0.396
Mof_C 	C 	0.1614	0.9766	0.5829	-0.2
Mof_H 	H 	0.1794	0.9455	0.5925	0.07
Mof_C 	C 	0.1147	0.9999	0.6037	0.326
Mof_C 	C 	0.1058	0.0007	0.5402	-0.735
Mof_H 	H 	0.1281	0.0327	0.5377	0.214
Mof_H 	H 	0.0754	0.0091	0.5529	0.227
Mof_H 	H 	0.0925	0.9888	0.5212	0.197
Mof_C 	C 	0.1026	0.9071	0.5577	-0.668
Mof_H 	H 	0.1247	0.8791	0.5666	0.186
Mof_H 	H 	0.0891	0.8945	0.539	0.186
Mof_H 	H 	0.0724	0.9155	0.5705	0.22
Mof_C 	C 	0.3784	0.0212	0.5321	0.339
Mof_C 	C 	0.3546	0.0756	0.5437	-0.218
Mof_H 	H 	0.3452	0.0987	0.5267	0.083
Mof_C 	C 	0.3931	0.1074	0.5638	0.391
Mof_C 	C 	0.4003	0.9893	0.5574	-0.631
Mof_H 	H 	0.3721	0.9842	0.5719	0.194
Mof_H 	H 	0.4304	0.0088	0.5661	0.197
Mof_H 	H 	0.4127	0.9543	0.5504	0.169
Mof_C 	C 	0.4211	0.0295	0.5078	-0.608
Mof_H 	H 	0.4053	0.0499	0.4918	0.174
Mof_H 	H 	0.4332	0.9945	0.5006	0.165
Mof_H 	H 	0.4518	0.0493	0.5157	0.198
Mof_C 	C 	0.324	0.8224	0.5695	0.423
Mof_C 	C 	0.3082	0.7684	0.5837	-0.235
Mof_H 	H 	0.2682	0.7645	0.5837	0.08
Mof_C 	C 	0.3301	0.7643	0.6158	0.359
Mof_C 	C 	0.3848	0.8299	0.5719	-0.685
Mof_H 	H 	0.403	0.7991	0.5631	0.2
Mof_H 	H 	0.3949	0.8324	0.5925	0.209
Mof_H 	H 	0.3954	0.8628	0.5619	0.184
Mof_C 	C 	0.295	0.8677	0.582	-0.763
Mof_H 	H 	0.2563	0.8614	0.5803	0.215
Mof_H 	H 	0.3045	0.9006	0.5716	0.214
Mof_H 	H 	0.3047	0.8714	0.6025	0.247
Mof_C 	C 	0.3213	0.6559	0.4696	0.34
Mof_C 	C 	0.3698	0.6369	0.4882	-0.176
Mof_H 	H 	0.4041	0.6525	0.4807	0.065
Mof_C 	C 	0.3742	0.5716	0.4906	0.307
Mof_C 	C 	0.2725	0.6266	0.4775	-0.668
Mof_H 	H 	0.2422	0.6403	0.4661	0.182
Mof_H 	H 	0.2652	0.6314	0.4982	0.196
Mof_H 	H 	0.2774	0.5883	0.4733	0.217
Mof_C 	C 	0.3305	0.6505	0.4354	-0.592
Mof_H 	H 	0.363	0.6701	0.4299	0.168
Mof_H 	H 	0.2996	0.6654	0.4251	0.163
Mof_H 	H 	0.3347	0.6125	0.4303	0.206
Mof_C 	C 	0.4778	0.8407	0.4851	0.414
Mof_C 	C 	0.5219	0.8402	0.4613	-0.247
Mof_H 	H 	0.508	0.8154	0.446	0.09
Mof_C 	C 	0.5741	0.8167	0.4705	0.365
Mof_C 	C 	0.4926	0.8787	0.5082	-0.708
Mof_H 	H 	0.4998	0.914	0.4997	0.209
Mof_H 	H 	0.5249	0.8658	0.5182	0.218
Mof_H 	H 	0.4631	0.8816	0.5222	0.19
Mof_C 	C 	0.467	0.7871	0.4985	-0.7
Mof_H 	H 	0.4577	0.7613	0.4833	0.196
Mof_H 	H 	0.437	0.7902	0.5122	0.192
Mof_H 	H 	0.499	0.7747	0.5088	0.216
Mof_C 	C 	0.399	0.0241	0.4004	0.4
Mof_C 	C 	0.4528	0.0388	0.4128	-0.252
Mof_H 	H 	0.447	0.0516	0.4332	0.088
Mof_C 	C 	0.4816	0.0845	0.3957	0.39
Mof_C 	C 	0.4029	0.0036	0.3699	-0.687
Mof_H 	H 	0.4301	0.9753	0.369	0.199
Mof_H 	H 	0.4132	0.0331	0.357	0.207
Mof_H 	H 	0.3681	0.9891	0.3639	0.186
Mof_C 	C 	0.3574	0.0686	0.4032	-0.707
Mof_H 	H 	0.3558	0.0807	0.4234	0.208
Mof_H 	H 	0.3222	0.0549	0.3973	0.206
Mof_H 	H 	0.3675	0.0987	0.3907	0.233
Mof_C 	C 	0.1919	0.0856	0.4599	0.406
Mof_C 	C 	0.1965	0.1236	0.4344	-0.232
Mof_H 	H 	0.2355	0.1252	0.4293	0.102
Mof_C 	C 	0.1798	0.1815	0.4423	0.341
Mof_C 	C 	0.1336	0.0815	0.4683	-0.68
Mof_H 	H 	0.1297	0.0564	0.4846	0.18
Mof_H 	H 	0.1127	0.0686	0.4517	0.198
Mof_H 	H 	0.1204	0.117	0.4742	0.203
Mof_C 	C 	0.2255	0.1009	0.4853	-0.721
Mof_H 	H 	0.2631	0.1039	0.4793	0.213
Mof_H 	H 	0.2224	0.0734	0.5005	0.2
Mof_H 	H 	0.2133	0.1355	0.493	0.243
Mof_C 	C 	0.2106	0.9461	0.3485	0.299
Mof_C 	C 	0.1583	0.9747	0.3423	-0.187
Mof_H 	H 	0.1287	0.9511	0.3495	0.061
Mof_C 	C 	0.1484	0.984	0.3089	0.278
Mof_C 	C 	0.2607	0.977	0.3398	-0.582
Mof_H 	H 	0.26	0.0126	0.3488	0.175
Mof_H 	H 	0.2618	0.9808	0.3186	0.175
Mof_H 	H 	0.2926	0.9575	0.3464	0.15
Mof_C 	C 	0.2119	0.8894	0.3349	-0.524
Mof_H 	H 	0.1804	0.8691	0.3414	0.13
Mof_H 	H 	0.2446	0.8708	0.3411	0.136
Mof_H 	H 	0.2114	0.8924	0.3137	0.14
Mof_C 	C 	0.0414	0.9224	0.4442	0.406
Mof_C 	C 	0.9997	0.8805	0.4389	-0.246
Mof_H 	H 	0.0115	0.8598	0.4215	0.098
Mof_C 	C 	0.9469	0.903	0.4321	0.313
Mof_C 	C 	0.0292	0.9554	0.4709	-0.687
Mof_H 	H 	0.0574	0.9824	0.4736	0.181
Mof_H 	H 	0.0277	0.9319	0.488	0.198
Mof_H 	H 	0.9945	0.9734	0.4685	0.218
Mof_C 	C 	0.0526	0.957	0.4186	-0.716
Mof_H 	H 	0.0806	0.983	0.4236	0.198
Mof_H 	H 	0.0199	0.976	0.413	0.236
Mof_H 	H 	0.0648	0.9346	0.4024	0.201
Mof_C 	C 	0.13	0.7257	0.5165	0.328
Mof_C 	C 	0.0759	0.7442	0.53	-0.22
Mof_H 	H 	0.0837	0.7756	0.5428	0.072
Mof_C 	C 	0.0504	0.6997	0.5494	0.408
Mof_C 	C 	0.1201	0.6765	0.4971	-0.619
Mof_H 	H 	0.0915	0.6846	0.4832	0.187
Mof_H 	H 	0.1095	0.646	0.5092	0.198
Mof_H 	H 	0.1532	0.6677	0.4866	0.168
Mof_C 	C 	0.1732	0.7163	0.5394	-0.593
Mof_H 	H 	0.1776	0.7487	0.5512	0.159
Mof_H 	H 	0.2073	0.7077	0.5298	0.159
Mof_H 	H 	0.1626	0.6863	0.5519	0.189
Mof_C 	C 	0.1552	0.7124	0.3998	0.346
Mof_C 	C 	0.1549	0.7046	0.3666	-0.216
Mof_H 	H 	0.1383	0.7368	0.3573	0.077
Mof_C 	C 	0.1235	0.6537	0.357	0.344
Mof_C 	C 	0.1752	0.6633	0.4149	-0.627
Mof_H 	H 	0.1501	0.6337	0.4117	0.192
Mof_H 	H 	0.1782	0.6705	0.4358	0.165
Mof_H 	H 	0.2105	0.6536	0.4071	0.181
Mof_C 	C 	0.1013	0.7273	0.4141	-0.618
Mof_H 	H 	0.0746	0.6997	0.4096	0.206
Mof_H 	H 	0.089	0.762	0.4065	0.18
Mof_H 	H 	0.1061	0.7298	0.4352	0.175
Mof_C 	C 	0.3781	0.8107	0.3629	0.443
Mof_C 	C 	0.382	0.7543	0.3546	-0.309
Mof_H 	H 	0.3933	0.7336	0.3722	0.103
Mof_C 	C 	0.4228	0.7441	0.3311	0.43
Mof_C 	C 	0.3623	0.8479	0.3395	-0.75
Mof_H 	H 	0.3613	0.8846	0.3471	0.205
Mof_H 	H 	0.3266	0.8381	0.3323	0.219
Mof_H 	H 	0.3883	0.8458	0.3236	0.238
Mof_C 	C 	0.4306	0.83	0.3762	-0.713
Mof_H 	H 	0.4268	0.8676	0.3821	0.197
Mof_H 	H 	0.4594	0.8269	0.3618	0.235
Mof_H 	H 	0.4392	0.8081	0.3932	0.203
Mof_La	La	0.42207	0.12214	0.63818	1.705
Mof_La	La	0.3949	0.4522	0.4764	0.216
Mof_La	La	0.3426	0.3983	0.4457	0.76
Mof_O 	O 	0.4168	0.0698	0.689	-0.448
Mof_O 	O 	0.3407	0.0897	0.6665	-0.419
Mof_C 	C 	0.3703	0.0701	0.6902	0.432
Mof_C 	C 	0.3335	0.046	0.716	-0.649
Mof_H 	H 	0.2955	0.051	0.7112	0.214
Mof_H 	H 	0.3417	0.0646	0.7342	0.196
Mof_H 	H 	0.341	0.0076	0.7183	0.215
Mof_O 	O 	0.3467	0.4972	0.4217	-0.289
Mof_O 	O 	0.2942	0.4471	0.4936	-0.363
Mof_O 	O 	0.3483	0.3123	0.4739	-0.549
Mof_Ag	Ag	0.65604	0.71208	0.77215	0.447
Mof_Ag	Ag	0.61015	0.84585	0.75127	0.421
Mof_Ag	Ag	0.50038	0.8102	0.71151	0.449
Mof_Ag	Ag	0.55774	0.67479	0.72618	0.407
Mof_Ag	Ag	0.73215	0.72925	0.70953	0.426
Mof_Ag	Ag	0.71398	0.8711	0.69014	0.462
Mof_Ag	Ag	0.59139	0.80061	0.6555	0.429
Mof_Ag	Ag	0.64009	0.65067	0.65316	0.478
Mof_Pd	Pd	0.4971	0.7555	0.79617	0.46
Mof_Pd	Pd	0.7711	0.83075	0.77375	0.467
Mof_Pd	Pd	0.57041	0.9541	0.68772	0.46
Mof_Pd	Pd	0.47676	0.68492	0.65065	0.479
Mof_Pd	Pd	0.68222	0.57106	0.72891	0.467
Mof_Pd	Pd	0.74581	0.76551	0.62462	0.449
Mof_S 	S 	0.5591	0.69517	0.78037	-0.449
Mof_S 	S 	0.51506	0.82294	0.76429	-0.435
Mof_S 	S 	0.68532	0.80555	0.78156	-0.458
Mof_S 	S 	0.77051	0.81762	0.72499	-0.436
Mof_S 	S 	0.63588	0.91706	0.71593	-0.448
Mof_S 	S 	0.53189	0.87531	0.67439	-0.442
Mof_S 	S 	0.48088	0.7153	0.69705	-0.443
Mof_S 	S 	0.56162	0.70981	0.63869	-0.425
Mof_S 	S 	0.61529	0.6055	0.70073	-0.435
Mof_S 	S 	0.71463	0.65158	0.74419	-0.43
Mof_S 	S 	0.72883	0.69927	0.65728	-0.43
Mof_S 	S 	0.68658	0.82657	0.64295	-0.444
Mof_O 	O 	0.4514	0.6089	0.8536	-0.302
Mof_O 	O 	0.5344	0.5899	0.8683	-0.304
Mof_O 	O 	0.3913	0.8826	0.83977	-0.509
Mof_O 	O 	0.3729	0.9342	0.8004	-0.337
Mof_O 	O 	0.7565	0.871	0.871	-0.341
Mof_O 	O 	0.7137	0.7946	0.8826	-0.287
Mof_O 	O 	0.9549	0.8551	0.7586	-0.341
Mof_O 	O 	0.9406	0.9001	0.7156	-0.302
Mof_O 	O 	0.6497	0.1107	0.7255	-0.27
Mof_O 	O 	0.7325	0.0761	0.7229	-0.346
Mof_O 	O 	0.4298	0.0226	0.63099	-0.455
Mof_O 	O 	0.3699	0.9615	0.6465	-0.312
Mof_O 	O 	0.3028	0.6346	0.683	-0.292
Mof_O 	O 	0.2914	0.7102	0.7071	-0.282
Mof_O 	O 	0.4687	0.6675	0.5488	-0.288
Mof_O 	O 	0.5562	0.6243	0.5448	-0.432
Mof_O 	O 	0.5868	0.4143	0.7023	-0.254
Mof_O 	O 	0.5855	0.4351	0.6546	-0.251
Mof_O 	O 	0.8218	0.5092	0.79145	-0.313
Mof_O 	O 	0.8101	0.5752	0.82271	-0.507
Mof_O 	O 	0.8861	0.6466	0.6011	-0.313
Mof_O 	O 	0.8393	0.5713	0.6062	-0.293
Mof_O 	O 	0.7653	0.905	0.5566	-0.292
Mof_O 	O 	0.7576	0.9686	0.5854	-0.348
Mof_N 	N 	0.4817	0.6994	0.8278	-0.247
Mof_H 	H 	0.4748	0.7171	0.8449	0.103
Mof_H 	H 	0.4511	0.681	0.8227	0.12
Mof_N 	N 	0.4351	0.8051	0.8106	-0.244
Mof_H 	H 	0.4041	0.7851	0.811	0.113
Mof_H 	H 	0.4426	0.8149	0.8294	0.106
Mof_N 	N 	0.778	0.8329	0.8178	-0.244
Mof_H 	H 	0.8089	0.8153	0.8231	0.091
Mof_H 	H 	0.7813	0.8681	0.8236	0.103
Mof_N 	N 	0.8472	0.8607	0.7684	-0.255
Mof_H 	H 	0.8497	0.8926	0.7783	0.113
Mof_H 	H 	0.8712	0.8372	0.7767	0.101
Mof_N 	N 	0.6054	0.0265	0.6964	-0.248
Mof_H 	H 	0.6096	0.0449	0.6792	0.12
Mof_H 	H 	0.5827	0.0462	0.708	0.106
Mof_N 	N 	0.5083	0.989	0.6641	-0.228
Mof_H 	H 	0.4986	0.0209	0.6726	0.083
Mof_H 	H 	0.5199	0.9962	0.6455	0.072
Mof_N 	N 	0.397	0.6689	0.6586	-0.248
Mof_H 	H 	0.3771	0.6791	0.6427	0.138
Mof_H 	H 	0.3927	0.6325	0.661	0.121
Mof_N 	N 	0.4718	0.6544	0.6092	-0.253
Mof_H 	H 	0.4615	0.619	0.6102	0.103
Mof_H 	H 	0.4457	0.6727	0.5991	0.113
Mof_N 	N 	0.6581	0.4979	0.7138	-0.251
Mof_H 	H 	0.6879	0.479	0.7081	0.134
Mof_H 	H 	0.6424	0.4794	0.7288	0.113
Mof_N 	N 	0.7365	0.5389	0.7564	-0.249
Mof_H 	H 	0.7216	0.5091	0.7649	0.104
Mof_H 	H 	0.7657	0.5277	0.7457	0.103
Mof_N 	N 	0.8004	0.7114	0.6063	-0.242
Mof_H 	H 	0.7961	0.7118	0.5864	0.096
Mof_H 	H 	0.8346	0.7232	0.6102	0.101
Mof_N 	N 	0.7658	0.8247	0.5958	-0.239
Mof_H 	H 	0.8025	0.8255	0.5939	0.104
Mof_H 	H 	0.7516	0.8161	0.5779	0.099
Mof_C 	C 	0.5414	0.6373	0.8031	0.4
Mof_C 	C 	0.5234	0.6614	0.8329	-0.201
Mof_H 	H 	0.5545	0.6794	0.8425	0.07
Mof_C 	C 	0.5001	0.6147	0.8537	0.328
Mof_C 	C 	0.4993	0.6058	0.7902	-0.745
Mof_H 	H 	0.4673	0.6281	0.7877	0.217
Mof_H 	H 	0.4909	0.5754	0.8029	0.229
Mof_H 	H 	0.5112	0.5925	0.7712	0.201
Mof_C 	C 	0.5929	0.6026	0.8077	-0.672
Mof_H 	H 	0.6209	0.6247	0.8166	0.187
Mof_H 	H 	0.6055	0.5891	0.789	0.187
Mof_H 	H 	0.5845	0.5724	0.8205	0.221
Mof_C 	C 	0.4788	0.8784	0.7821	0.337
Mof_C 	C 	0.4244	0.8546	0.7937	-0.218
Mof_H 	H 	0.4013	0.8452	0.7767	0.083
Mof_C 	C 	0.3926	0.8931	0.8138	0.391
Mof_C 	C 	0.5107	0.9003	0.8074	-0.629
Mof_H 	H 	0.5158	0.8721	0.8219	0.193
Mof_H 	H 	0.4912	0.9304	0.8161	0.196
Mof_H 	H 	0.5457	0.9127	0.8004	0.168
Mof_C 	C 	0.4705	0.9211	0.7578	-0.608
Mof_H 	H 	0.4501	0.9053	0.7418	0.174
Mof_H 	H 	0.5055	0.9332	0.7506	0.165
Mof_H 	H 	0.4507	0.9518	0.7657	0.198
Mof_C 	C 	0.6776	0.824	0.8195	0.424
Mof_C 	C 	0.7316	0.8082	0.8337	-0.235
Mof_H 	H 	0.7355	0.7682	0.8337	0.08
Mof_C 	C 	0.7357	0.8301	0.8658	0.359
Mof_C 	C 	0.6701	0.8848	0.8219	-0.685
Mof_H 	H 	0.7009	0.903	0.8131	0.2
Mof_H 	H 	0.6676	0.8949	0.8425	0.209
Mof_H 	H 	0.6372	0.8954	0.8119	0.184
Mof_C 	C 	0.6323	0.795	0.832	-0.763
Mof_H 	H 	0.6386	0.7563	0.8303	0.215
Mof_H 	H 	0.5994	0.8045	0.8216	0.214
Mof_H 	H 	0.6286	0.8047	0.8525	0.248
Mof_C 	C 	0.8441	0.8213	0.7196	0.341
Mof_C 	C 	0.8631	0.8698	0.7382	-0.176
Mof_H 	H 	0.8475	0.9041	0.7307	0.065
Mof_C 	C 	0.9284	0.8742	0.7406	0.307
Mof_C 	C 	0.8734	0.7725	0.7275	-0.668
Mof_H 	H 	0.8597	0.7422	0.7161	0.182
Mof_H 	H 	0.8686	0.7652	0.7482	0.197
Mof_H 	H 	0.9117	0.7774	0.7233	0.217
Mof_C 	C 	0.8495	0.8305	0.6854	-0.592
Mof_H 	H 	0.8299	0.863	0.6799	0.169
Mof_H 	H 	0.8346	0.7996	0.6751	0.163
Mof_H 	H 	0.8875	0.8347	0.6803	0.207
Mof_C 	C 	0.6593	0.9778	0.7351	0.414
Mof_C 	C 	0.6598	0.0219	0.7113	-0.247
Mof_H 	H 	0.6846	0.008	0.696	0.089
Mof_C 	C 	0.6833	0.0741	0.7205	0.365
Mof_C 	C 	0.6213	0.9926	0.7582	-0.707
Mof_H 	H 	0.586	0.9998	0.7497	0.209
Mof_H 	H 	0.6342	0.0249	0.7682	0.217
Mof_H 	H 	0.6184	0.9631	0.7722	0.189
Mof_C 	C 	0.7129	0.967	0.7485	-0.7
Mof_H 	H 	0.7387	0.9577	0.7333	0.196
Mof_H 	H 	0.7098	0.937	0.7622	0.192
Mof_H 	H 	0.7253	0.999	0.7588	0.216
Mof_C 	C 	0.4759	0.899	0.6504	0.4
Mof_C 	C 	0.4612	0.9528	0.6628	-0.252
Mof_H 	H 	0.4484	0.947	0.6832	0.087
Mof_C 	C 	0.4155	0.9816	0.6457	0.39
Mof_C 	C 	0.4964	0.9029	0.6199	-0.69
Mof_H 	H 	0.5247	0.9301	0.619	0.199
Mof_H 	H 	0.4669	0.9132	0.607	0.208
Mof_H 	H 	0.5109	0.8681	0.6139	0.187
Mof_C 	C 	0.4314	0.8574	0.6532	-0.707
Mof_H 	H 	0.4193	0.8558	0.6734	0.208
Mof_H 	H 	0.4451	0.8222	0.6473	0.206
Mof_H 	H 	0.4013	0.8675	0.6407	0.233
Mof_C 	C 	0.4144	0.6919	0.7099	0.406
Mof_C 	C 	0.3764	0.6965	0.6844	-0.232
Mof_H 	H 	0.3748	0.7355	0.6793	0.102
Mof_C 	C 	0.3185	0.6798	0.6923	0.341
Mof_C 	C 	0.4185	0.6336	0.7183	-0.68
Mof_H 	H 	0.4436	0.6297	0.7346	0.18
Mof_H 	H 	0.4314	0.6127	0.7017	0.198
Mof_H 	H 	0.383	0.6204	0.7242	0.203
Mof_C 	C 	0.3991	0.7255	0.7353	-0.721
Mof_H 	H 	0.3961	0.7631	0.7293	0.213
Mof_H 	H 	0.4266	0.7224	0.7505	0.2
Mof_H 	H 	0.3645	0.7133	0.743	0.243
Mof_C 	C 	0.5539	0.7106	0.5985	0.298
Mof_C 	C 	0.5253	0.6583	0.5923	-0.186
Mof_H 	H 	0.5489	0.6287	0.5995	0.061
Mof_C 	C 	0.516	0.6484	0.5589	0.279
Mof_C 	C 	0.523	0.7607	0.5898	-0.579
Mof_H 	H 	0.4874	0.76	0.5988	0.174
Mof_H 	H 	0.5192	0.7618	0.5686	0.174
Mof_H 	H 	0.5425	0.7926	0.5964	0.149
Mof_C 	C 	0.6106	0.7119	0.5849	-0.523
Mof_H 	H 	0.6309	0.6804	0.5914	0.13
Mof_H 	H 	0.6292	0.7446	0.5911	0.135
Mof_H 	H 	0.6076	0.7114	0.5637	0.14
Mof_C 	C 	0.5776	0.5414	0.6942	0.407
Mof_C 	C 	0.6195	0.4997	0.6889	-0.249
Mof_H 	H 	0.6402	0.5115	0.6715	0.099
Mof_C 	C 	0.597	0.4469	0.6821	0.314
Mof_C 	C 	0.5446	0.5292	0.7209	-0.683
Mof_H 	H 	0.5176	0.5574	0.7236	0.181
Mof_H 	H 	0.5681	0.5277	0.738	0.197
Mof_H 	H 	0.5266	0.4945	0.7185	0.216
Mof_C 	C 	0.543	0.5526	0.6686	-0.718
Mof_H 	H 	0.517	0.5806	0.6736	0.199
Mof_H 	H 	0.524	0.5199	0.663	0.237
Mof_H 	H 	0.5654	0.5648	0.6524	0.201
Mof_C 	C 	0.7743	0.63	0.7665	0.328
Mof_C 	C 	0.7558	0.5759	0.78	-0.22
Mof_H 	H 	0.7244	0.5837	0.7928	0.072
Mof_C 	C 	0.8003	0.5504	0.7994	0.408
Mof_C 	C 	0.8235	0.6201	0.7471	-0.619
Mof_H 	H 	0.8154	0.5915	0.7332	0.188
Mof_H 	H 	0.854	0.6095	0.7592	0.198
Mof_H 	H 	0.8323	0.6532	0.7366	0.168
Mof_C 	C 	0.7837	0.6732	0.7894	-0.593
Mof_H 	H 	0.7513	0.6776	0.8012	0.159
Mof_H 	H 	0.7923	0.7073	0.7798	0.159
Mof_H 	H 	0.8137	0.6626	0.8019	0.189
Mof_C 	C 	0.7876	0.6552	0.6498	0.346
Mof_C 	C 	0.7954	0.6549	0.6166	-0.216
Mof_H 	H 	0.7632	0.6383	0.6073	0.077
Mof_C 	C 	0.8463	0.6235	0.607	0.344
Mof_C 	C 	0.8367	0.6752	0.6649	-0.628
Mof_H 	H 	0.8663	0.6501	0.6617	0.192
Mof_H 	H 	0.8295	0.6782	0.6858	0.165
Mof_H 	H 	0.8464	0.7105	0.6571	0.181
Mof_C 	C 	0.7727	0.6013	0.6641	-0.618
Mof_H 	H 	0.8003	0.5746	0.6596	0.206
Mof_H 	H 	0.738	0.589	0.6565	0.18
Mof_H 	H 	0.7702	0.6061	0.6852	0.175
Mof_C 	C 	0.6893	0.8781	0.6129	0.443
Mof_C 	C 	0.7457	0.882	0.6046	-0.309
Mof_H 	H 	0.7664	0.8933	0.6222	0.103
Mof_C 	C 	0.7559	0.9228	0.5811	0.43
Mof_C 	C 	0.6521	0.8623	0.5895	-0.75
Mof_H 	H 	0.6154	0.8613	0.5971	0.205
Mof_H 	H 	0.6619	0.8266	0.5823	0.219
Mof_H 	H 	0.6542	0.8883	0.5736	0.238
Mof_C 	C 	0.67	0.9306	0.6262	-0.714
Mof_H 	H 	0.6324	0.9268	0.6321	0.197
Mof_H 	H 	0.6731	0.9594	0.6118	0.235
Mof_H 	H 	0.6919	0.9392	0.6432	0.203
Mof_La	La	0.37786	0.92207	0.88818	1.704
Mof_La	La	0.0478	0.8949	0.7264	0.213
Mof_La	La	0.1017	0.8426	0.6957	0.76
Mof_O 	O 	0.4302	0.9168	0.939	-0.448
Mof_O 	O 	0.4103	0.8407	0.9165	-0.419
Mof_C 	C 	0.4299	0.8703	0.9402	0.432
Mof_C 	C 	0.454	0.8335	0.966	-0.649
Mof_H 	H 	0.449	0.7955	0.9612	0.215
Mof_H 	H 	0.4354	0.8417	0.9842	0.197
Mof_H 	H 	0.4924	0.841	0.9683	0.215
Mof_O 	O 	0.0028	0.8467	0.6717	-0.29
Mof_O 	O 	0.0529	0.7942	0.7436	-0.363
Mof_O 	O 	0.1877	0.8483	0.7239	-0.549
Mof_Ag	Ag	0.34396	0.28792	0.27215	0.447
Mof_Ag	Ag	0.38985	0.15415	0.25127	0.421
Mof_Ag	Ag	0.49962	0.1898	0.21151	0.449
Mof_Ag	Ag	0.44226	0.32521	0.22618	0.407
Mof_Ag	Ag	0.26785	0.27075	0.20953	0.426
Mof_Ag	Ag	0.28602	0.1289	0.19014	0.463
Mof_Ag	Ag	0.40861	0.19939	0.1555	0.429
Mof_Ag	Ag	0.35991	0.34933	0.15316	0.478
Mof_Pd	Pd	0.5029	0.2445	0.29617	0.46
Mof_Pd	Pd	0.2289	0.16925	0.27375	0.467
Mof_Pd	Pd	0.42959	0.0459	0.18772	0.46
Mof_Pd	Pd	0.52324	0.31508	0.15065	0.479
Mof_Pd	Pd	0.31778	0.42894	0.22891	0.467
Mof_Pd	Pd	0.25419	0.23449	0.12462	0.449
Mof_S 	S 	0.4409	0.30483	0.28037	-0.449
Mof_S 	S 	0.48494	0.17706	0.26429	-0.435
Mof_S 	S 	0.31468	0.19445	0.28156	-0.458
Mof_S 	S 	0.22949	0.18238	0.22499	-0.436
Mof_S 	S 	0.36412	0.08294	0.21593	-0.448
Mof_S 	S 	0.46811	0.12469	0.17439	-0.442
Mof_S 	S 	0.51912	0.2847	0.19705	-0.443
Mof_S 	S 	0.43838	0.29019	0.13869	-0.425
Mof_S 	S 	0.38471	0.3945	0.20073	-0.435
Mof_S 	S 	0.28537	0.34842	0.24419	-0.43
Mof_S 	S 	0.27117	0.30073	0.15728	-0.43
Mof_S 	S 	0.31342	0.17343	0.14295	-0.444
Mof_O 	O 	0.5486	0.3911	0.3536	-0.302
Mof_O 	O 	0.4656	0.4101	0.3683	-0.304
Mof_O 	O 	0.6087	0.1174	0.33977	-0.509
Mof_O 	O 	0.6271	0.0658	0.3004	-0.337
Mof_O 	O 	0.2435	0.129	0.371	-0.341
Mof_O 	O 	0.2863	0.2054	0.3826	-0.287
Mof_O 	O 	0.0451	0.1449	0.2586	-0.341
Mof_O 	O 	0.0594	0.0999	0.2156	-0.302
Mof_O 	O 	0.3503	0.8893	0.2255	-0.27
Mof_O 	O 	0.2675	0.9239	0.2229	-0.346
Mof_O 	O 	0.5702	0.9774	0.13099	-0.455
Mof_O 	O 	0.6301	0.0385	0.1465	-0.312
Mof_O 	O 	0.6972	0.3654	0.183	-0.292
Mof_O 	O 	0.7086	0.2898	0.2071	-0.282
Mof_O 	O 	0.5313	0.3325	0.0488	-0.289
Mof_O 	O 	0.4438	0.3757	0.0448	-0.432
Mof_O 	O 	0.4132	0.5857	0.2023	-0.254
Mof_O 	O 	0.4145	0.5649	0.1546	-0.251
Mof_O 	O 	0.1782	0.4908	0.29145	-0.313
Mof_O 	O 	0.1899	0.4248	0.32271	-0.507
Mof_O 	O 	0.1139	0.3534	0.1011	-0.313
Mof_O 	O 	0.1607	0.4287	0.1062	-0.293
Mof_O 	O 	0.2347	0.095	0.0566	-0.293
Mof_O 	O 	0.2424	0.0314	0.0854	-0.348
Mof_N 	N 	0.5183	0.3006	0.3278	-0.247
Mof_H 	H 	0.5252	0.2829	0.3449	0.103
Mof_H 	H 	0.5489	0.319	0.3227	0.12
Mof_N 	N 	0.5649	0.1949	0.3106	-0.244
Mof_H 	H 	0.5959	0.2149	0.311	0.113
Mof_H 	H 	0.5574	0.1851	0.3294	0.106
Mof_N 	N 	0.222	0.1671	0.3178	-0.244
Mof_H 	H 	0.1911	0.1847	0.3231	0.091
Mof_H 	H 	0.2187	0.1319	0.3236	0.103
Mof_N 	N 	0.1528	0.1393	0.2684	-0.255
Mof_H 	H 	0.1503	0.1074	0.2783	0.113
Mof_H 	H 	0.1288	0.1628	0.2767	0.101
Mof_N 	N 	0.3946	0.9735	0.1964	-0.248
Mof_H 	H 	0.3904	0.9551	0.1792	0.12
Mof_H 	H 	0.4173	0.9538	0.208	0.106
Mof_N 	N 	0.4917	0.011	0.1641	-0.228
Mof_H 	H 	0.5014	0.9791	0.1726	0.083
Mof_H 	H 	0.4801	0.0038	0.1455	0.072
Mof_N 	N 	0.603	0.3311	0.1586	-0.248
Mof_H 	H 	0.6229	0.3209	0.1427	0.138
Mof_H 	H 	0.6073	0.3675	0.161	0.121
Mof_N 	N 	0.5282	0.3456	0.1092	-0.253
Mof_H 	H 	0.5385	0.381	0.1102	0.103
Mof_H 	H 	0.5543	0.3273	0.0991	0.113
Mof_N 	N 	0.3419	0.5021	0.2138	-0.251
Mof_H 	H 	0.3121	0.521	0.2081	0.134
Mof_H 	H 	0.3576	0.5206	0.2288	0.113
Mof_N 	N 	0.2635	0.4611	0.2564	-0.249
Mof_H 	H 	0.2784	0.4909	0.2649	0.104
Mof_H 	H 	0.2343	0.4723	0.2457	0.103
Mof_N 	N 	0.1996	0.2886	0.1063	-0.242
Mof_H 	H 	0.2039	0.2882	0.0864	0.096
Mof_H 	H 	0.1654	0.2768	0.1102	0.101
Mof_N 	N 	0.2342	0.1753	0.0958	-0.239
Mof_H 	H 	0.1975	0.1745	0.0939	0.104
Mof_H 	H 	0.2484	0.1839	0.0779	0.099
Mof_C 	C 	0.4586	0.3627	0.3031	0.4
Mof_C 	C 	0.4766	0.3386	0.3329	-0.201
Mof_H 	H 	0.4455	0.3206	0.3425	0.07
Mof_C 	C 	0.4999	0.3853	0.3537	0.328
Mof_C 	C 	0.5007	0.3942	0.2902	-0.745
Mof_H 	H 	0.5327	0.3719	0.2877	0.217
Mof_H 	H 	0.5091	0.4246	0.3029	0.229
Mof_H 	H 	0.4888	0.4075	0.2712	0.201
Mof_C 	C 	0.4071	0.3974	0.3077	-0.672
Mof_H 	H 	0.3791	0.3753	0.3166	0.187
Mof_H 	H 	0.3945	0.4109	0.289	0.187
Mof_H 	H 	0.4155	0.4276	0.3205	0.221
Mof_C 	C 	0.5212	0.1216	0.2821	0.337
Mof_C 	C 	0.5756	0.1454	0.2937	-0.218
Mof_H 	H 	0.5987	0.1548	0.2767	0.083
Mof_C 	C 	0.6074	0.1069	0.3138	0.391
Mof_C 	C 	0.4893	0.0997	0.3074	-0.629
Mof_H 	H 	0.4842	0.1279	0.3219	0.193
Mof_H 	H 	0.5088	0.0696	0.3161	0.196
Mof_H 	H 	0.4543	0.0873	0.3004	0.168
Mof_C 	C 	0.5295	0.0789	0.2578	-0.608
Mof_H 	H 	0.5499	0.0947	0.2418	0.174
Mof_H 	H 	0.4945	0.0668	0.2506	0.165
Mof_H 	H 	0.5493	0.0482	0.2657	0.198
Mof_C 	C 	0.3224	0.176	0.3195	0.424
Mof_C 	C 	0.2684	0.1918	0.3337	-0.235
Mof_H 	H 	0.2645	0.2318	0.3337	0.08
Mof_C 	C 	0.2643	0.1699	0.3658	0.359
Mof_C 	C 	0.3299	0.1152	0.3219	-0.685
Mof_H 	H 	0.2991	0.097	0.3131	0.2
Mof_H 	H 	0.3324	0.1051	0.3425	0.209
Mof_H 	H 	0.3628	0.1046	0.3119	0.184
Mof_C 	C 	0.3677	0.205	0.332	-0.763
Mof_H 	H 	0.3614	0.2437	0.3303	0.215
Mof_H 	H 	0.4006	0.1955	0.3216	0.214
Mof_H 	H 	0.3714	0.1953	0.3525	0.248
Mof_C 	C 	0.1559	0.1787	0.2196	0.341
Mof_C 	C 	0.1369	0.1302	0.2382	-0.176
Mof_H 	H 	0.1525	0.0959	0.2307	0.065
Mof_C 	C 	0.0716	0.1258	0.2406	0.307
Mof_C 	C 	0.1266	0.2275	0.2275	-0.668
Mof_H 	H 	0.1403	0.2578	0.2161	0.182
Mof_H 	H 	0.1314	0.2348	0.2482	0.197
Mof_H 	H 	0.0883	0.2226	0.2233	0.217
Mof_C 	C 	0.1505	0.1695	0.1854	-0.592
Mof_H 	H 	0.1701	0.137	0.1799	0.169
Mof_H 	H 	0.1654	0.2004	0.1751	0.163
Mof_H 	H 	0.1125	0.1653	0.1803	0.207
Mof_C 	C 	0.3407	0.0222	0.2351	0.414
Mof_C 	C 	0.3402	0.9781	0.2113	-0.247
Mof_H 	H 	0.3154	0.992	0.196	0.089
Mof_C 	C 	0.3167	0.9259	0.2205	0.365
Mof_C 	C 	0.3787	0.0074	0.2582	-0.707
Mof_H 	H 	0.414	0.0002	0.2497	0.209
Mof_H 	H 	0.3658	0.9751	0.2682	0.217
Mof_H 	H 	0.3816	0.0369	0.2722	0.189
Mof_C 	C 	0.2871	0.033	0.2485	-0.7
Mof_H 	H 	0.2613	0.0423	0.2333	0.196
Mof_H 	H 	0.2902	0.063	0.2622	0.192
Mof_H 	H 	0.2747	0.001	0.2588	0.216
Mof_C 	C 	0.5241	0.101	0.1504	0.4
Mof_C 	C 	0.5388	0.0472	0.1628	-0.252
Mof_H 	H 	0.5516	0.053	0.1832	0.087
Mof_C 	C 	0.5845	0.0184	0.1457	0.39
Mof_C 	C 	0.5036	0.0971	0.1199	-0.69
Mof_H 	H 	0.4753	0.0699	0.119	0.199
Mof_H 	H 	0.5331	0.0868	0.107	0.208
Mof_H 	H 	0.4891	0.1319	0.1139	0.187
Mof_C 	C 	0.5686	0.1426	0.1532	-0.707
Mof_H 	H 	0.5807	0.1442	0.1734	0.208
Mof_H 	H 	0.5549	0.1778	0.1473	0.206
Mof_H 	H 	0.5987	0.1325	0.1407	0.233
Mof_C 	C 	0.5856	0.3081	0.2099	0.406
Mof_C 	C 	0.6236	0.3035	0.1844	-0.232
Mof_H 	H 	0.6252	0.2645	0.1793	0.102
Mof_C 	C 	0.6815	0.3202	0.1923	0.341
Mof_C 	C 	0.5815	0.3664	0.2183	-0.68
Mof_H 	H 	0.5564	0.3703	0.2346	0.18
Mof_H 	H 	0.5686	0.3873	0.2017	0.198
Mof_H 	H 	0.617	0.3796	0.2242	0.203
Mof_C 	C 	0.6009	0.2745	0.2353	-0.721
Mof_H 	H 	0.6039	0.2369	0.2293	0.213
Mof_H 	H 	0.5734	0.2776	0.2505	0.2
Mof_H 	H 	0.6355	0.2867	0.243	0.243
Mof_C 	C 	0.4461	0.2894	0.0985	0.298
Mof_C 	C 	0.4747	0.3417	0.0923	-0.186
Mof_H 	H 	0.4511	0.3713	0.0995	0.061
Mof_C 	C 	0.484	0.3516	0.0589	0.279
Mof_C 	C 	0.477	0.2393	0.0898	-0.579
Mof_H 	H 	0.5126	0.24	0.0988	0.174
Mof_H 	H 	0.4808	0.2382	0.0686	0.174
Mof_H 	H 	0.4575	0.2074	0.0964	0.149
Mof_C 	C 	0.3894	0.2881	0.0849	-0.523
Mof_H 	H 	0.3691	0.3196	0.0914	0.13
Mof_H 	H 	0.3708	0.2554	0.0911	0.135
Mof_H 	H 	0.3924	0.2886	0.0637	0.14
Mof_C 	C 	0.4224	0.4586	0.1942	0.407
Mof_C 	C 	0.3805	0.5003	0.1889	-0.249
Mof_H 	H 	0.3598	0.4885	0.1715	0.099
Mof_C 	C 	0.403	0.5531	0.1821	0.314
Mof_C 	C 	0.4554	0.4708	0.2209	-0.683
Mof_H 	H 	0.4824	0.4426	0.2236	0.181
Mof_H 	H 	0.4319	0.4723	0.238	0.197
Mof_H 	H 	0.4734	0.5055	0.2185	0.216
Mof_C 	C 	0.457	0.4474	0.1686	-0.718
Mof_H 	H 	0.483	0.4194	0.1736	0.199
Mof_H 	H 	0.476	0.4801	0.163	0.237
Mof_H 	H 	0.4346	0.4352	0.1524	0.201
Mof_C 	C 	0.2257	0.37	0.2665	0.328
Mof_C 	C 	0.2442	0.4241	0.28	-0.22
Mof_H 	H 	0.2756	0.4163	0.2928	0.072
Mof_C 	C 	0.1997	0.4496	0.2994	0.408
Mof_C 	C 	0.1765	0.3799	0.2471	-0.619
Mof_H 	H 	0.1846	0.4085	0.2332	0.188
Mof_H 	H 	0.146	0.3905	0.2592	0.198
Mof_H 	H 	0.1677	0.3468	0.2366	0.168
Mof_C 	C 	0.2163	0.3268	0.2894	-0.594
Mof_H 	H 	0.2487	0.3224	0.3012	0.159
Mof_H 	H 	0.2077	0.2927	0.2798	0.159
Mof_H 	H 	0.1863	0.3374	0.3019	0.189
Mof_C 	C 	0.2124	0.3448	0.1498	0.346
Mof_C 	C 	0.2046	0.3451	0.1166	-0.216
Mof_H 	H 	0.2368	0.3617	0.1073	0.077
Mof_C 	C 	0.1537	0.3765	0.107	0.344
Mof_C 	C 	0.1633	0.3248	0.1649	-0.628
Mof_H 	H 	0.1337	0.3499	0.1617	0.192
Mof_H 	H 	0.1705	0.3218	0.1858	0.165
Mof_H 	H 	0.1536	0.2895	0.1571	0.181
Mof_C 	C 	0.2273	0.3987	0.1641	-0.618
Mof_H 	H 	0.1997	0.4254	0.1596	0.206
Mof_H 	H 	0.262	0.411	0.1565	0.18
Mof_H 	H 	0.2298	0.3939	0.1852	0.175
Mof_C 	C 	0.3107	0.1219	0.1129	0.443
Mof_C 	C 	0.2543	0.118	0.1046	-0.309
Mof_H 	H 	0.2336	0.1067	0.1222	0.103
Mof_C 	C 	0.2441	0.0772	0.0811	0.43
Mof_C 	C 	0.3479	0.1377	0.0895	-0.749
Mof_H 	H 	0.3846	0.1387	0.0971	0.205
Mof_H 	H 	0.3381	0.1734	0.0823	0.218
Mof_H 	H 	0.3458	0.1117	0.0736	0.238
Mof_C 	C 	0.33	0.0694	0.1262	-0.713
Mof_H 	H 	0.3676	0.0732	0.1321	0.197
Mof_H 	H 	0.3269	0.0406	0.1118	0.235
Mof_H 	H 	0.3081	0.0608	0.1432	0.203
Mof_La	La	0.62214	0.07793	0.38818	1.704
Mof_La	La	0.9522	0.1051	0.2264	0.213
Mof_La	La	0.8983	0.1574	0.1957	0.76
Mof_O 	O 	0.5698	0.0832	0.439	-0.448
Mof_O 	O 	0.5897	0.1593	0.4165	-0.419
Mof_C 	C 	0.5701	0.1297	0.4402	0.432
Mof_C 	C 	0.546	0.1665	0.466	-0.649
Mof_H 	H 	0.551	0.2045	0.4612	0.214
Mof_H 	H 	0.5646	0.1583	0.4842	0.196
Mof_H 	H 	0.5076	0.159	0.4683	0.215
Mof_O 	O 	0.9972	0.1533	0.1717	-0.29
Mof_O 	O 	0.9471	0.2058	0.2436	-0.363
Mof_O 	O 	0.8123	0.1517	0.2239	-0.549
Mof_La	La	0.61403	0.61403	0.5	1.218
Mof_La	La	0.38597	0.38597	-0	1.215
Mof_La	La	0.88597	0.11403	0.75	1.217
Mof_La	La	0.11403	0.88597	0.25	1.217
Mof_La	La	0.86655	0.13345	0.25	1.242
Mof_La	La	0.13345	0.86655	0.75	1.242
Mof_La	La	0.36655	0.36655	0.5	1.24
Mof_La	La	0.63345	0.63345	-0	1.229
_end
