data_functionalizedCrystal
_audit_creation_method	'EQeq! by Chris Wilmer'
_symmetry_space_group_name_H-M	'P1'
_symmetry_Int_Tables_number	1
_symmetry_cell_setting	triclinic
loop_
_symmetry_equiv_pos_as_xyz
  x,y,z
_cell_length_a	18.628
_cell_length_b	18.628
_cell_length_c	36.435
_cell_angle_alpha	90
_cell_angle_beta	90
_cell_angle_gamma	120
loop_
_atom_site_label
_atom_site_type_symbol
_atom_site_fract_x
_atom_site_fract_y
_atom_site_fract_z
_atom_site_charge
Mof_O 	O 	0.48093	0.36975	0.00151	-0.459
Mof_O 	O 	0.4092	0.4385	0.04817	-0.454
Mof_N 	N 	0.5414	0.4207	0.07952	-0.126
Mof_C 	C 	0.5468	0.3512	0.07944	-0.014
Mof_H 	H 	0.5514	0.3296	0.0565	0.035
Mof_C 	C 	0.5461	0.3102	0.1109	0.014
Mof_C 	C 	0.5407	0.3435	0.1439	-0.06
Mof_H 	H 	0.5414	0.3177	0.1663	0.054
Mof_C 	C 	0.5342	0.4154	0.14448	0.006
Mof_C 	C 	0.4143	0.4563	0.25401	-0.012
Mof_H 	H 	0.3778	0.4045	0.2428	0.057
Mof_C 	C 	0.3909	0.4796	0.28616	-0.095
Mof_C 	C 	0.4485	0.3581	0.96991	0.387
Mof_O 	O 	0.1476	0.70308	0.33484	-0.46
Mof_O 	O 	0.07587	0.77183	0.3815	-0.455
Mof_N 	N 	0.20807	0.75403	0.41285	-0.127
Mof_C 	C 	0.21347	0.68453	0.41277	-0.015
Mof_H 	H 	0.21807	0.66293	0.38983	0.034
Mof_C 	C 	0.21277	0.64353	0.44423	0.013
Mof_C 	C 	0.20737	0.67683	0.47723	-0.061
Mof_H 	H 	0.20807	0.65103	0.49963	0.053
Mof_C 	C 	0.20087	0.74873	0.47781	0.005
Mof_C 	C 	0.08097	0.78963	0.58734	-0.013
Mof_H 	H 	0.04447	0.73783	0.57613	0.057
Mof_C 	C 	0.05757	0.81293	0.61949	-0.095
Mof_C 	C 	0.11517	0.69143	0.30324	0.387
Mof_O 	O 	0.81426	0.03642	0.66818	-0.46
Mof_O 	O 	0.74253	0.10517	0.71484	-0.455
Mof_N 	N 	0.87473	0.08737	0.74619	-0.127
Mof_C 	C 	0.88013	0.01787	0.74611	-0.013
Mof_H 	H 	0.88473	0.99627	0.72317	0.033
Mof_C 	C 	0.87943	0.97687	0.77757	0.011
Mof_C 	C 	0.87403	0.01017	0.81057	-0.059
Mof_H 	H 	0.87473	0.98437	0.83297	0.052
Mof_C 	C 	0.86753	0.08207	0.81115	0.005
Mof_C 	C 	0.74763	0.12297	0.92068	-0.013
Mof_H 	H 	0.71113	0.07117	0.90947	0.057
Mof_C 	C 	0.72423	0.14627	0.95283	-0.095
Mof_C 	C 	0.78183	0.02477	0.63658	0.387
Mof_O 	O 	0.63025	0.11118	0.00151	-0.46
Mof_O 	O 	0.5615	0.9707	0.04817	-0.455
Mof_N 	N 	0.5793	0.1207	0.07952	-0.127
Mof_C 	C 	0.6488	0.1956	0.07944	-0.015
Mof_H 	H 	0.6704	0.2218	0.0565	0.034
Mof_C 	C 	0.6898	0.2359	0.1109	0.013
Mof_C 	C 	0.6565	0.1972	0.1439	-0.061
Mof_H 	H 	0.6823	0.2237	0.1663	0.053
Mof_C 	C 	0.5846	0.1188	0.14448	0.005
Mof_C 	C 	0.5437	0.958	0.25401	-0.014
Mof_H 	H 	0.5955	0.9733	0.2428	0.057
Mof_C 	C 	0.5204	0.9113	0.28616	-0.094
Mof_C 	C 	0.6419	0.0904	0.96991	0.387
Mof_O 	O 	0.29692	0.44451	0.33484	-0.46
Mof_O 	O 	0.22817	0.30403	0.3815	-0.455
Mof_N 	N 	0.24597	0.45403	0.41285	-0.127
Mof_C 	C 	0.31547	0.52893	0.41277	-0.015
Mof_H 	H 	0.33707	0.55513	0.38983	0.034
Mof_C 	C 	0.35647	0.56923	0.44423	0.013
Mof_C 	C 	0.32317	0.53053	0.47723	-0.061
Mof_H 	H 	0.34897	0.55703	0.49963	0.053
Mof_C 	C 	0.25127	0.45213	0.47781	0.005
Mof_C 	C 	0.21037	0.29133	0.58734	-0.013
Mof_H 	H 	0.26217	0.30663	0.57613	0.057
Mof_C 	C 	0.18707	0.24463	0.61949	-0.095
Mof_C 	C 	0.30857	0.42373	0.30324	0.387
Mof_O 	O 	0.96358	0.77785	0.66818	-0.46
Mof_O 	O 	0.89483	0.63737	0.71484	-0.455
Mof_N 	N 	0.91263	0.78737	0.74619	-0.128
Mof_C 	C 	0.98213	0.86227	0.74611	-0.012
Mof_H 	H 	0.00373	0.88847	0.72317	0.033
Mof_C 	C 	0.02313	0.90257	0.77757	0.012
Mof_C 	C 	0.98983	0.86387	0.81057	-0.058
Mof_H 	H 	0.01563	0.89037	0.83297	0.052
Mof_C 	C 	0.91793	0.78547	0.81115	0.003
Mof_C 	C 	0.87703	0.62467	0.92068	-0.013
Mof_H 	H 	0.92883	0.63997	0.90947	0.057
Mof_C 	C 	0.85373	0.57797	0.95283	-0.095
Mof_C 	C 	0.97523	0.75707	0.63658	0.387
Mof_O 	O 	0.88882	0.51907	0.00151	-0.46
Mof_O 	O 	0.0293	0.5908	0.04817	-0.455
Mof_N 	N 	0.8793	0.4586	0.07952	-0.127
Mof_C 	C 	0.8044	0.4532	0.07944	-0.015
Mof_H 	H 	0.7782	0.4486	0.0565	0.034
Mof_C 	C 	0.7641	0.4539	0.1109	0.013
Mof_C 	C 	0.8028	0.4593	0.1439	-0.061
Mof_H 	H 	0.7763	0.4586	0.1663	0.053
Mof_C 	C 	0.8812	0.4658	0.14448	0.005
Mof_C 	C 	0.042	0.5857	0.25401	-0.014
Mof_H 	H 	0.0267	0.6222	0.2428	0.057
Mof_C 	C 	0.0887	0.6091	0.28616	-0.094
Mof_C 	C 	0.9096	0.5515	0.96991	0.387
Mof_O 	O 	0.55549	0.8524	0.33484	-0.46
Mof_O 	O 	0.69597	0.92413	0.3815	-0.455
Mof_N 	N 	0.54597	0.79193	0.41285	-0.127
Mof_C 	C 	0.47107	0.78653	0.41277	-0.014
Mof_H 	H 	0.44487	0.78193	0.38983	0.034
Mof_C 	C 	0.43077	0.78723	0.44423	0.013
Mof_C 	C 	0.46947	0.79263	0.47723	-0.061
Mof_H 	H 	0.44297	0.79193	0.49963	0.053
Mof_C 	C 	0.54787	0.79913	0.47781	0.005
Mof_C 	C 	0.70867	0.91903	0.58734	-0.013
Mof_H 	H 	0.69337	0.95553	0.57613	0.057
Mof_C 	C 	0.75537	0.94243	0.61949	-0.095
Mof_C 	C 	0.57627	0.88483	0.30324	0.387
Mof_O 	O 	0.22215	0.18574	0.66818	-0.46
Mof_O 	O 	0.36263	0.25747	0.71484	-0.455
Mof_N 	N 	0.21263	0.12527	0.74619	-0.127
Mof_C 	C 	0.13773	0.11987	0.74611	-0.016
Mof_H 	H 	0.11153	0.11527	0.72317	0.034
Mof_C 	C 	0.09743	0.12057	0.77757	0.015
Mof_C 	C 	0.13613	0.12597	0.81057	-0.062
Mof_H 	H 	0.10963	0.12527	0.83297	0.053
Mof_C 	C 	0.21453	0.13247	0.81115	0.007
Mof_C 	C 	0.37533	0.25237	0.92068	-0.013
Mof_H 	H 	0.36003	0.28887	0.90947	0.057
Mof_C 	C 	0.42203	0.27577	0.95283	-0.095
Mof_C 	C 	0.24293	0.21817	0.63658	0.387
Mof_O 	O 	0.36975	0.48093	0.99849	-0.46
Mof_O 	O 	0.4385	0.4092	0.95183	-0.455
Mof_N 	N 	0.4207	0.5414	0.92048	-0.127
Mof_C 	C 	0.3512	0.5468	0.92056	-0.015
Mof_H 	H 	0.3296	0.5514	0.9435	0.034
Mof_C 	C 	0.3102	0.5461	0.8891	0.013
Mof_C 	C 	0.3435	0.5407	0.8561	-0.061
Mof_H 	H 	0.3177	0.5414	0.8337	0.053
Mof_C 	C 	0.4154	0.5342	0.85552	0.005
Mof_C 	C 	0.4563	0.4143	0.74599	-0.013
Mof_H 	H 	0.4045	0.3778	0.7572	0.057
Mof_C 	C 	0.4796	0.3909	0.71384	-0.095
Mof_C 	C 	0.3581	0.4485	0.03009	0.387
Mof_O 	O 	0.03642	0.81426	0.33182	-0.46
Mof_O 	O 	0.10517	0.74253	0.28516	-0.455
Mof_N 	N 	0.08737	0.87473	0.25381	-0.127
Mof_C 	C 	0.01787	0.88013	0.25389	-0.013
Mof_H 	H 	0.99627	0.88473	0.27683	0.033
Mof_C 	C 	0.97687	0.87943	0.22243	0.011
Mof_C 	C 	0.01017	0.87403	0.18943	-0.059
Mof_H 	H 	0.98437	0.87473	0.16703	0.052
Mof_C 	C 	0.08207	0.86753	0.18885	0.005
Mof_C 	C 	0.12297	0.74763	0.07932	-0.013
Mof_H 	H 	0.07117	0.71113	0.09053	0.057
Mof_C 	C 	0.14627	0.72423	0.04717	-0.095
Mof_C 	C 	0.02477	0.78183	0.36342	0.387
Mof_O 	O 	0.70308	0.1476	0.66516	-0.46
Mof_O 	O 	0.77183	0.07587	0.6185	-0.455
Mof_N 	N 	0.75403	0.20807	0.58715	-0.127
Mof_C 	C 	0.68453	0.21347	0.58723	-0.015
Mof_H 	H 	0.66293	0.21807	0.61017	0.034
Mof_C 	C 	0.64353	0.21277	0.55577	0.013
Mof_C 	C 	0.67683	0.20737	0.52277	-0.061
Mof_H 	H 	0.65103	0.20807	0.50037	0.053
Mof_C 	C 	0.74873	0.20087	0.52219	0.005
Mof_C 	C 	0.78963	0.08097	0.41266	-0.013
Mof_H 	H 	0.73783	0.04447	0.42387	0.057
Mof_C 	C 	0.81293	0.05757	0.38051	-0.095
Mof_C 	C 	0.69143	0.11517	0.69676	0.387
Mof_O 	O 	0.11118	0.63025	0.99849	-0.46
Mof_O 	O 	0.9707	0.5615	0.95183	-0.455
Mof_N 	N 	0.1207	0.5793	0.92048	-0.127
Mof_C 	C 	0.1956	0.6488	0.92056	-0.015
Mof_H 	H 	0.2218	0.6704	0.9435	0.034
Mof_C 	C 	0.2359	0.6898	0.8891	0.013
Mof_C 	C 	0.1972	0.6565	0.8561	-0.061
Mof_H 	H 	0.2237	0.6823	0.8337	0.053
Mof_C 	C 	0.1188	0.5846	0.85552	0.005
Mof_C 	C 	0.958	0.5437	0.74599	-0.014
Mof_H 	H 	0.9733	0.5955	0.7572	0.057
Mof_C 	C 	0.9113	0.5204	0.71384	-0.094
Mof_C 	C 	0.0904	0.6419	0.03009	0.387
Mof_O 	O 	0.77785	0.96358	0.33182	-0.46
Mof_O 	O 	0.63737	0.89483	0.28516	-0.455
Mof_N 	N 	0.78737	0.91263	0.25381	-0.128
Mof_C 	C 	0.86227	0.98213	0.25389	-0.012
Mof_H 	H 	0.88847	0.00373	0.27683	0.033
Mof_C 	C 	0.90257	0.02313	0.22243	0.012
Mof_C 	C 	0.86387	0.98983	0.18943	-0.058
Mof_H 	H 	0.89037	0.01563	0.16703	0.052
Mof_C 	C 	0.78547	0.91793	0.18885	0.003
Mof_C 	C 	0.62467	0.87703	0.07932	-0.013
Mof_H 	H 	0.63997	0.92883	0.09053	0.057
Mof_C 	C 	0.57797	0.85373	0.04717	-0.095
Mof_C 	C 	0.75707	0.97523	0.36342	0.387
Mof_O 	O 	0.44451	0.29692	0.66516	-0.46
Mof_O 	O 	0.30403	0.22817	0.6185	-0.455
Mof_N 	N 	0.45403	0.24597	0.58715	-0.127
Mof_C 	C 	0.52893	0.31547	0.58723	-0.015
Mof_H 	H 	0.55513	0.33707	0.61017	0.034
Mof_C 	C 	0.56923	0.35647	0.55577	0.013
Mof_C 	C 	0.53053	0.32317	0.52277	-0.061
Mof_H 	H 	0.55703	0.34897	0.50037	0.053
Mof_C 	C 	0.45213	0.25127	0.52219	0.005
Mof_C 	C 	0.29133	0.21037	0.41266	-0.013
Mof_H 	H 	0.30663	0.26217	0.42387	0.057
Mof_C 	C 	0.24463	0.18707	0.38051	-0.095
Mof_C 	C 	0.42373	0.30857	0.69676	0.387
Mof_O 	O 	0.51907	0.88882	0.99849	-0.46
Mof_O 	O 	0.5908	0.0293	0.95183	-0.455
Mof_N 	N 	0.4586	0.8793	0.92048	-0.127
Mof_C 	C 	0.4532	0.8044	0.92056	-0.015
Mof_H 	H 	0.4486	0.7782	0.9435	0.034
Mof_C 	C 	0.4539	0.7641	0.8891	0.013
Mof_C 	C 	0.4593	0.8028	0.8561	-0.061
Mof_H 	H 	0.4586	0.7763	0.8337	0.053
Mof_C 	C 	0.4658	0.8812	0.85552	0.005
Mof_C 	C 	0.5857	0.042	0.74599	-0.014
Mof_H 	H 	0.6222	0.0267	0.7572	0.057
Mof_C 	C 	0.6091	0.0887	0.71384	-0.094
Mof_C 	C 	0.5515	0.9096	0.03009	0.387
Mof_O 	O 	0.18574	0.22215	0.33182	-0.46
Mof_O 	O 	0.25747	0.36263	0.28516	-0.455
Mof_N 	N 	0.12527	0.21263	0.25381	-0.127
Mof_C 	C 	0.11987	0.13773	0.25389	-0.016
Mof_H 	H 	0.11527	0.11153	0.27683	0.034
Mof_C 	C 	0.12057	0.09743	0.22243	0.015
Mof_C 	C 	0.12597	0.13613	0.18943	-0.062
Mof_H 	H 	0.12527	0.10963	0.16703	0.053
Mof_C 	C 	0.13247	0.21453	0.18885	0.007
Mof_C 	C 	0.25237	0.37533	0.07932	-0.013
Mof_H 	H 	0.28887	0.36003	0.09053	0.057
Mof_C 	C 	0.27577	0.42203	0.04717	-0.095
Mof_C 	C 	0.21817	0.24293	0.36342	0.387
Mof_O 	O 	0.8524	0.55549	0.66516	-0.46
Mof_O 	O 	0.92413	0.69597	0.6185	-0.455
Mof_N 	N 	0.79193	0.54597	0.58715	-0.127
Mof_C 	C 	0.78653	0.47107	0.58723	-0.014
Mof_H 	H 	0.78193	0.44487	0.61017	0.034
Mof_C 	C 	0.78723	0.43077	0.55577	0.013
Mof_C 	C 	0.79263	0.46947	0.52277	-0.061
Mof_H 	H 	0.79193	0.44297	0.50037	0.053
Mof_C 	C 	0.79913	0.54787	0.52219	0.005
Mof_C 	C 	0.91903	0.70867	0.41266	-0.013
Mof_H 	H 	0.95553	0.69337	0.42387	0.057
Mof_C 	C 	0.94243	0.75537	0.38051	-0.095
Mof_C 	C 	0.88483	0.57627	0.69676	0.387
Mof_O 	O 	0.51907	0.63025	0.99849	-0.46
Mof_O 	O 	0.5908	0.5615	0.95183	-0.455
Mof_N 	N 	0.4586	0.5793	0.92048	-0.127
Mof_C 	C 	0.4532	0.6488	0.92056	-0.015
Mof_H 	H 	0.4486	0.6704	0.9435	0.034
Mof_C 	C 	0.4539	0.6898	0.8891	0.013
Mof_C 	C 	0.4593	0.6565	0.8561	-0.061
Mof_H 	H 	0.4586	0.6823	0.8337	0.053
Mof_C 	C 	0.4658	0.5846	0.85552	0.005
Mof_C 	C 	0.5857	0.5437	0.74599	-0.013
Mof_H 	H 	0.6222	0.5955	0.7572	0.057
Mof_C 	C 	0.6091	0.5204	0.71384	-0.095
Mof_C 	C 	0.5515	0.6419	0.03009	0.387
Mof_O 	O 	0.18574	0.96358	0.33182	-0.46
Mof_O 	O 	0.25747	0.89483	0.28516	-0.455
Mof_N 	N 	0.12527	0.91263	0.25381	-0.127
Mof_C 	C 	0.11987	0.98213	0.25389	-0.013
Mof_H 	H 	0.11527	0.00373	0.27683	0.033
Mof_C 	C 	0.12057	0.02313	0.22243	0.011
Mof_C 	C 	0.12597	0.98983	0.18943	-0.059
Mof_H 	H 	0.12527	0.01563	0.16703	0.052
Mof_C 	C 	0.13247	0.91793	0.18885	0.005
Mof_C 	C 	0.25237	0.87703	0.07932	-0.013
Mof_H 	H 	0.28887	0.92883	0.09053	0.057
Mof_C 	C 	0.27577	0.85373	0.04717	-0.095
Mof_C 	C 	0.21817	0.97523	0.36342	0.387
Mof_O 	O 	0.8524	0.29692	0.66516	-0.46
Mof_O 	O 	0.92413	0.22817	0.6185	-0.455
Mof_N 	N 	0.79193	0.24597	0.58715	-0.127
Mof_C 	C 	0.78653	0.31547	0.58723	-0.015
Mof_H 	H 	0.78193	0.33707	0.61017	0.034
Mof_C 	C 	0.78723	0.35647	0.55577	0.013
Mof_C 	C 	0.79263	0.32317	0.52277	-0.061
Mof_H 	H 	0.79193	0.34897	0.50037	0.053
Mof_C 	C 	0.79913	0.25127	0.52219	0.005
Mof_C 	C 	0.91903	0.21037	0.41266	-0.013
Mof_H 	H 	0.95553	0.26217	0.42387	0.057
Mof_C 	C 	0.94243	0.18707	0.38051	-0.095
Mof_C 	C 	0.88483	0.30857	0.69676	0.387
Mof_O 	O 	0.36975	0.88882	0.99849	-0.46
Mof_O 	O 	0.4385	0.0293	0.95183	-0.455
Mof_N 	N 	0.4207	0.8793	0.92048	-0.127
Mof_C 	C 	0.3512	0.8044	0.92056	-0.015
Mof_H 	H 	0.3296	0.7782	0.9435	0.034
Mof_C 	C 	0.3102	0.7641	0.8891	0.013
Mof_C 	C 	0.3435	0.8028	0.8561	-0.061
Mof_H 	H 	0.3177	0.7763	0.8337	0.053
Mof_C 	C 	0.4154	0.8812	0.85552	0.005
Mof_C 	C 	0.4563	0.042	0.74599	-0.014
Mof_H 	H 	0.4045	0.0267	0.7572	0.057
Mof_C 	C 	0.4796	0.0887	0.71384	-0.094
Mof_C 	C 	0.3581	0.9096	0.03009	0.387
Mof_O 	O 	0.03642	0.22215	0.33182	-0.46
Mof_O 	O 	0.10517	0.36263	0.28516	-0.455
Mof_N 	N 	0.08737	0.21263	0.25381	-0.128
Mof_C 	C 	0.01787	0.13773	0.25389	-0.012
Mof_H 	H 	0.99627	0.11153	0.27683	0.033
Mof_C 	C 	0.97687	0.09743	0.22243	0.012
Mof_C 	C 	0.01017	0.13613	0.18943	-0.058
Mof_H 	H 	0.98437	0.10963	0.16703	0.052
Mof_C 	C 	0.08207	0.21453	0.18885	0.003
Mof_C 	C 	0.12297	0.37533	0.07932	-0.013
Mof_H 	H 	0.07117	0.36003	0.09053	0.057
Mof_C 	C 	0.14627	0.42203	0.04717	-0.095
Mof_C 	C 	0.02477	0.24293	0.36342	0.387
Mof_O 	O 	0.70308	0.55549	0.66516	-0.46
Mof_O 	O 	0.77183	0.69597	0.6185	-0.455
Mof_N 	N 	0.75403	0.54597	0.58715	-0.127
Mof_C 	C 	0.68453	0.47107	0.58723	-0.015
Mof_H 	H 	0.66293	0.44487	0.61017	0.034
Mof_C 	C 	0.64353	0.43077	0.55577	0.013
Mof_C 	C 	0.67683	0.46947	0.52277	-0.061
Mof_H 	H 	0.65103	0.44297	0.50037	0.053
Mof_C 	C 	0.74873	0.54787	0.52219	0.005
Mof_C 	C 	0.78963	0.70867	0.41266	-0.013
Mof_H 	H 	0.73783	0.69337	0.42387	0.057
Mof_C 	C 	0.81293	0.75537	0.38051	-0.095
Mof_C 	C 	0.69143	0.57627	0.69676	0.387
Mof_O 	O 	0.11118	0.48093	0.99849	-0.46
Mof_O 	O 	0.9707	0.4092	0.95183	-0.455
Mof_N 	N 	0.1207	0.5414	0.92048	-0.127
Mof_C 	C 	0.1956	0.5468	0.92056	-0.015
Mof_H 	H 	0.2218	0.5514	0.9435	0.034
Mof_C 	C 	0.2359	0.5461	0.8891	0.013
Mof_C 	C 	0.1972	0.5407	0.8561	-0.061
Mof_H 	H 	0.2237	0.5414	0.8337	0.053
Mof_C 	C 	0.1188	0.5342	0.85552	0.005
Mof_C 	C 	0.958	0.4143	0.74599	-0.014
Mof_H 	H 	0.9733	0.3778	0.7572	0.057
Mof_C 	C 	0.9113	0.3909	0.71384	-0.094
Mof_C 	C 	0.0904	0.4485	0.03009	0.387
Mof_O 	O 	0.77785	0.81426	0.33182	-0.46
Mof_O 	O 	0.63737	0.74253	0.28516	-0.455
Mof_N 	N 	0.78737	0.87473	0.25381	-0.127
Mof_C 	C 	0.86227	0.88013	0.25389	-0.016
Mof_H 	H 	0.88847	0.88473	0.27683	0.034
Mof_C 	C 	0.90257	0.87943	0.22243	0.015
Mof_C 	C 	0.86387	0.87403	0.18943	-0.062
Mof_H 	H 	0.89037	0.87473	0.16703	0.053
Mof_C 	C 	0.78547	0.86753	0.18885	0.007
Mof_C 	C 	0.62467	0.74763	0.07932	-0.013
Mof_H 	H 	0.63997	0.71113	0.09053	0.057
Mof_C 	C 	0.57797	0.72423	0.04717	-0.095
Mof_C 	C 	0.75707	0.78183	0.36342	0.387
Mof_O 	O 	0.44451	0.1476	0.66516	-0.46
Mof_O 	O 	0.30403	0.07587	0.6185	-0.455
Mof_N 	N 	0.45403	0.20807	0.58715	-0.127
Mof_C 	C 	0.52893	0.21347	0.58723	-0.014
Mof_H 	H 	0.55513	0.21807	0.61017	0.034
Mof_C 	C 	0.56923	0.21277	0.55577	0.013
Mof_C 	C 	0.53053	0.20737	0.52277	-0.061
Mof_H 	H 	0.55703	0.20807	0.50037	0.053
Mof_C 	C 	0.45213	0.20087	0.52219	0.005
Mof_C 	C 	0.29133	0.08097	0.41266	-0.013
Mof_H 	H 	0.30663	0.04447	0.42387	0.057
Mof_C 	C 	0.24463	0.05757	0.38051	-0.095
Mof_C 	C 	0.42373	0.11517	0.69676	0.387
Mof_O 	O 	0.63025	0.51907	0.00151	-0.46
Mof_O 	O 	0.5615	0.5908	0.04817	-0.455
Mof_N 	N 	0.5793	0.4586	0.07952	-0.127
Mof_C 	C 	0.6488	0.4532	0.07944	-0.015
Mof_H 	H 	0.6704	0.4486	0.0565	0.034
Mof_C 	C 	0.6898	0.4539	0.1109	0.013
Mof_C 	C 	0.6565	0.4593	0.1439	-0.061
Mof_H 	H 	0.6823	0.4586	0.1663	0.053
Mof_C 	C 	0.5846	0.4658	0.14448	0.005
Mof_C 	C 	0.5437	0.5857	0.25401	-0.013
Mof_H 	H 	0.5955	0.6222	0.2428	0.057
Mof_C 	C 	0.5204	0.6091	0.28616	-0.095
Mof_C 	C 	0.6419	0.5515	0.96991	0.387
Mof_O 	O 	0.29692	0.8524	0.33484	-0.46
Mof_O 	O 	0.22817	0.92413	0.3815	-0.455
Mof_N 	N 	0.24597	0.79193	0.41285	-0.127
Mof_C 	C 	0.31547	0.78653	0.41277	-0.015
Mof_H 	H 	0.33707	0.78193	0.38983	0.034
Mof_C 	C 	0.35647	0.78723	0.44423	0.013
Mof_C 	C 	0.32317	0.79263	0.47723	-0.061
Mof_H 	H 	0.34897	0.79193	0.49963	0.053
Mof_C 	C 	0.25127	0.79913	0.47781	0.005
Mof_C 	C 	0.21037	0.91903	0.58734	-0.013
Mof_H 	H 	0.26217	0.95553	0.57613	0.057
Mof_C 	C 	0.18707	0.94243	0.61949	-0.095
Mof_C 	C 	0.30857	0.88483	0.30324	0.387
Mof_O 	O 	0.96358	0.18574	0.66818	-0.46
Mof_O 	O 	0.89483	0.25747	0.71484	-0.455
Mof_N 	N 	0.91263	0.12527	0.74619	-0.127
Mof_C 	C 	0.98213	0.11987	0.74611	-0.013
Mof_H 	H 	0.00373	0.11527	0.72317	0.033
Mof_C 	C 	0.02313	0.12057	0.77757	0.011
Mof_C 	C 	0.98983	0.12597	0.81057	-0.059
Mof_H 	H 	0.01563	0.12527	0.83297	0.052
Mof_C 	C 	0.91793	0.13247	0.81115	0.005
Mof_C 	C 	0.87703	0.25237	0.92068	-0.013
Mof_H 	H 	0.92883	0.28887	0.90947	0.057
Mof_C 	C 	0.85373	0.27577	0.95283	-0.095
Mof_C 	C 	0.97523	0.21817	0.63658	0.387
Mof_O 	O 	0.88882	0.36975	0.00151	-0.46
Mof_O 	O 	0.0293	0.4385	0.04817	-0.455
Mof_N 	N 	0.8793	0.4207	0.07952	-0.127
Mof_C 	C 	0.8044	0.3512	0.07944	-0.015
Mof_H 	H 	0.7782	0.3296	0.0565	0.034
Mof_C 	C 	0.7641	0.3102	0.1109	0.013
Mof_C 	C 	0.8028	0.3435	0.1439	-0.061
Mof_H 	H 	0.7763	0.3177	0.1663	0.053
Mof_C 	C 	0.8812	0.4154	0.14448	0.005
Mof_C 	C 	0.042	0.4563	0.25401	-0.014
Mof_H 	H 	0.0267	0.4045	0.2428	0.057
Mof_C 	C 	0.0887	0.4796	0.28616	-0.094
Mof_C 	C 	0.9096	0.3581	0.96991	0.387
Mof_O 	O 	0.55549	0.70308	0.33484	-0.46
Mof_O 	O 	0.69597	0.77183	0.3815	-0.455
Mof_N 	N 	0.54597	0.75403	0.41285	-0.127
Mof_C 	C 	0.47107	0.68453	0.41277	-0.015
Mof_H 	H 	0.44487	0.66293	0.38983	0.034
Mof_C 	C 	0.43077	0.64353	0.44423	0.013
Mof_C 	C 	0.46947	0.67683	0.47723	-0.061
Mof_H 	H 	0.44297	0.65103	0.49963	0.053
Mof_C 	C 	0.54787	0.74873	0.47781	0.005
Mof_C 	C 	0.70867	0.78963	0.58734	-0.013
Mof_H 	H 	0.69337	0.73783	0.57613	0.057
Mof_C 	C 	0.75537	0.81293	0.61949	-0.095
Mof_C 	C 	0.57627	0.69143	0.30324	0.387
Mof_O 	O 	0.22215	0.03642	0.66818	-0.46
Mof_O 	O 	0.36263	0.10517	0.71484	-0.455
Mof_N 	N 	0.21263	0.08737	0.74619	-0.128
Mof_C 	C 	0.13773	0.01787	0.74611	-0.012
Mof_H 	H 	0.11153	0.99627	0.72317	0.033
Mof_C 	C 	0.09743	0.97687	0.77757	0.012
Mof_C 	C 	0.13613	0.01017	0.81057	-0.058
Mof_H 	H 	0.10963	0.98437	0.83297	0.052
Mof_C 	C 	0.21453	0.08207	0.81115	0.003
Mof_C 	C 	0.37533	0.12297	0.92068	-0.013
Mof_H 	H 	0.36003	0.07117	0.90947	0.057
Mof_C 	C 	0.42203	0.14627	0.95283	-0.095
Mof_C 	C 	0.24293	0.02477	0.63658	0.387
Mof_O 	O 	0.48093	0.11118	0.00151	-0.46
Mof_O 	O 	0.4092	0.9707	0.04817	-0.455
Mof_N 	N 	0.5414	0.1207	0.07952	-0.127
Mof_C 	C 	0.5468	0.1956	0.07944	-0.015
Mof_H 	H 	0.5514	0.2218	0.0565	0.034
Mof_C 	C 	0.5461	0.2359	0.1109	0.013
Mof_C 	C 	0.5407	0.1972	0.1439	-0.061
Mof_H 	H 	0.5414	0.2237	0.1663	0.053
Mof_C 	C 	0.5342	0.1188	0.14448	0.005
Mof_C 	C 	0.4143	0.958	0.25401	-0.014
Mof_H 	H 	0.3778	0.9733	0.2428	0.057
Mof_C 	C 	0.3909	0.9113	0.28616	-0.094
Mof_C 	C 	0.4485	0.0904	0.96991	0.387
Mof_O 	O 	0.1476	0.44451	0.33484	-0.46
Mof_O 	O 	0.07587	0.30403	0.3815	-0.455
Mof_N 	N 	0.20807	0.45403	0.41285	-0.127
Mof_C 	C 	0.21347	0.52893	0.41277	-0.014
Mof_H 	H 	0.21807	0.55513	0.38983	0.034
Mof_C 	C 	0.21277	0.56923	0.44423	0.013
Mof_C 	C 	0.20737	0.53053	0.47723	-0.061
Mof_H 	H 	0.20807	0.55703	0.49963	0.053
Mof_C 	C 	0.20087	0.45213	0.47781	0.005
Mof_C 	C 	0.08097	0.29133	0.58734	-0.013
Mof_H 	H 	0.04447	0.30663	0.57613	0.057
Mof_C 	C 	0.05757	0.24463	0.61949	-0.095
Mof_C 	C 	0.11517	0.42373	0.30324	0.387
Mof_O 	O 	0.81426	0.77785	0.66818	-0.46
Mof_O 	O 	0.74253	0.63737	0.71484	-0.455
Mof_N 	N 	0.87473	0.78737	0.74619	-0.127
Mof_C 	C 	0.88013	0.86227	0.74611	-0.016
Mof_H 	H 	0.88473	0.88847	0.72317	0.034
Mof_C 	C 	0.87943	0.90257	0.77757	0.015
Mof_C 	C 	0.87403	0.86387	0.81057	-0.062
Mof_H 	H 	0.87473	0.89037	0.83297	0.053
Mof_C 	C 	0.86753	0.78547	0.81115	0.007
Mof_C 	C 	0.74763	0.62467	0.92068	-0.013
Mof_H 	H 	0.71113	0.63997	0.90947	0.057
Mof_C 	C 	0.72423	0.57797	0.95283	-0.095
Mof_C 	C 	0.78183	0.75707	0.63658	0.387
Mof_Zn	Zn	0.52704	0.47296	0.03266	1.22
Mof_C 	C 	0.54138	0.45862	0.11148	0.055
Mof_C 	C 	0.53625	0.46375	0.17826	-0.009
Mof_C 	C 	0.5161	0.4839	0.20545	-0.011
Mof_C 	C 	0.4911	0.5089	0.23814	0.01
Mof_C 	C 	0.44509	0.55491	0.30231	0.041
Mof_H 	H 	0.4303	0.5697	0.3248	0.047
Mof_Zn	Zn	0.19371	0.80629	0.36599	1.22
Mof_C 	C 	0.20805	0.79195	0.44481	0.055
Mof_C 	C 	0.20292	0.79708	0.51159	-0.009
Mof_C 	C 	0.18277	0.81723	0.53878	-0.011
Mof_C 	C 	0.15777	0.84223	0.57147	0.009
Mof_C 	C 	0.11176	0.88824	0.63564	0.041
Mof_H 	H 	0.09697	0.90303	0.65813	0.047
Mof_Zn	Zn	0.86037	0.13963	0.69932	1.22
Mof_C 	C 	0.87472	0.12528	0.77815	0.055
Mof_C 	C 	0.86958	0.13042	0.84493	-0.008
Mof_C 	C 	0.84943	0.15057	0.87212	-0.011
Mof_C 	C 	0.82443	0.17557	0.90481	0.01
Mof_C 	C 	0.77842	0.22158	0.96898	0.041
Mof_H 	H 	0.76363	0.23637	0.99147	0.047
Mof_Zn	Zn	0.52704	0.05408	0.03266	1.22
Mof_C 	C 	0.54138	0.08277	0.11148	0.055
Mof_C 	C 	0.53625	0.0725	0.17826	-0.009
Mof_C 	C 	0.5161	0.0322	0.20545	-0.012
Mof_C 	C 	0.4911	0.9822	0.23814	0.01
Mof_C 	C 	0.44509	0.89018	0.30231	0.041
Mof_H 	H 	0.4303	0.8606	0.3248	0.047
Mof_Zn	Zn	0.19371	0.38741	0.36599	1.22
Mof_C 	C 	0.20805	0.4161	0.44481	0.055
Mof_C 	C 	0.20292	0.40583	0.51159	-0.009
Mof_C 	C 	0.18277	0.36553	0.53878	-0.011
Mof_C 	C 	0.15777	0.31553	0.57147	0.01
Mof_C 	C 	0.11176	0.22351	0.63564	0.041
Mof_H 	H 	0.09697	0.19393	0.65813	0.047
Mof_Zn	Zn	0.86037	0.72075	0.69932	1.22
Mof_C 	C 	0.87472	0.74944	0.77815	0.055
Mof_C 	C 	0.86958	0.73917	0.84493	-0.009
Mof_C 	C 	0.84943	0.69887	0.87212	-0.011
Mof_C 	C 	0.82443	0.64887	0.90481	0.01
Mof_C 	C 	0.77842	0.55685	0.96898	0.041
Mof_H 	H 	0.76363	0.52727	0.99147	0.047
Mof_Zn	Zn	0.94592	0.47296	0.03266	1.22
Mof_C 	C 	0.91723	0.45862	0.11148	0.055
Mof_C 	C 	0.9275	0.46375	0.17826	-0.009
Mof_C 	C 	0.9678	0.4839	0.20545	-0.012
Mof_C 	C 	0.0178	0.5089	0.23814	0.01
Mof_C 	C 	0.10982	0.55491	0.30231	0.041
Mof_H 	H 	0.1394	0.5697	0.3248	0.047
Mof_Zn	Zn	0.61259	0.80629	0.36599	1.22
Mof_C 	C 	0.5839	0.79195	0.44481	0.055
Mof_C 	C 	0.59417	0.79708	0.51159	-0.009
Mof_C 	C 	0.63447	0.81723	0.53878	-0.011
Mof_C 	C 	0.68447	0.84223	0.57147	0.01
Mof_C 	C 	0.77649	0.88824	0.63564	0.041
Mof_H 	H 	0.80607	0.90303	0.65813	0.047
Mof_Zn	Zn	0.27925	0.13963	0.69932	1.22
Mof_C 	C 	0.25056	0.12528	0.77815	0.055
Mof_C 	C 	0.26083	0.13042	0.84493	-0.009
Mof_C 	C 	0.30113	0.15057	0.87212	-0.011
Mof_C 	C 	0.35113	0.17557	0.90481	0.01
Mof_C 	C 	0.44315	0.22158	0.96898	0.041
Mof_H 	H 	0.47273	0.23637	0.99147	0.047
Mof_Zn	Zn	0.47296	0.52704	0.96734	1.22
Mof_C 	C 	0.45862	0.54138	0.88852	0.055
Mof_C 	C 	0.46375	0.53625	0.82174	-0.009
Mof_C 	C 	0.4839	0.5161	0.79455	-0.011
Mof_C 	C 	0.5089	0.4911	0.76186	0.01
Mof_C 	C 	0.55491	0.44509	0.69769	0.041
Mof_H 	H 	0.5697	0.4303	0.6752	0.047
Mof_Zn	Zn	0.13963	0.86037	0.30068	1.22
Mof_C 	C 	0.12528	0.87472	0.22185	0.055
Mof_C 	C 	0.13042	0.86958	0.15507	-0.008
Mof_C 	C 	0.15057	0.84943	0.12788	-0.011
Mof_C 	C 	0.17557	0.82443	0.09519	0.01
Mof_C 	C 	0.22158	0.77842	0.03102	0.041
Mof_H 	H 	0.23637	0.76363	0.00853	0.047
Mof_Zn	Zn	0.80629	0.19371	0.63401	1.22
Mof_C 	C 	0.79195	0.20805	0.55519	0.055
Mof_C 	C 	0.79708	0.20292	0.48841	-0.009
Mof_C 	C 	0.81723	0.18277	0.46122	-0.011
Mof_C 	C 	0.84223	0.15777	0.42853	0.009
Mof_C 	C 	0.88824	0.11176	0.36436	0.041
Mof_H 	H 	0.90303	0.09697	0.34187	0.047
Mof_Zn	Zn	0.05408	0.52704	0.96734	1.22
Mof_C 	C 	0.08277	0.54138	0.88852	0.055
Mof_C 	C 	0.0725	0.53625	0.82174	-0.009
Mof_C 	C 	0.0322	0.5161	0.79455	-0.012
Mof_C 	C 	0.9822	0.4911	0.76186	0.01
Mof_C 	C 	0.89018	0.44509	0.69769	0.041
Mof_H 	H 	0.8606	0.4303	0.6752	0.047
Mof_Zn	Zn	0.72075	0.86037	0.30068	1.22
Mof_C 	C 	0.74944	0.87472	0.22185	0.055
Mof_C 	C 	0.73917	0.86958	0.15507	-0.009
Mof_C 	C 	0.69887	0.84943	0.12788	-0.011
Mof_C 	C 	0.64887	0.82443	0.09519	0.01
Mof_C 	C 	0.55685	0.77842	0.03102	0.041
Mof_H 	H 	0.52727	0.76363	0.00853	0.047
Mof_Zn	Zn	0.38741	0.19371	0.63401	1.22
Mof_C 	C 	0.4161	0.20805	0.55519	0.055
Mof_C 	C 	0.40583	0.20292	0.48841	-0.009
Mof_C 	C 	0.36553	0.18277	0.46122	-0.011
Mof_C 	C 	0.31553	0.15777	0.42853	0.01
Mof_C 	C 	0.22351	0.11176	0.36436	0.041
Mof_H 	H 	0.19393	0.09697	0.34187	0.047
Mof_Zn	Zn	0.47296	0.94592	0.96734	1.22
Mof_C 	C 	0.45862	0.91723	0.88852	0.055
Mof_C 	C 	0.46375	0.9275	0.82174	-0.009
Mof_C 	C 	0.4839	0.9678	0.79455	-0.012
Mof_C 	C 	0.5089	0.0178	0.76186	0.01
Mof_C 	C 	0.55491	0.10982	0.69769	0.041
Mof_H 	H 	0.5697	0.1394	0.6752	0.047
Mof_Zn	Zn	0.13963	0.27925	0.30068	1.22
Mof_C 	C 	0.12528	0.25056	0.22185	0.055
Mof_C 	C 	0.13042	0.26083	0.15507	-0.009
Mof_C 	C 	0.15057	0.30113	0.12788	-0.011
Mof_C 	C 	0.17557	0.35113	0.09519	0.01
Mof_C 	C 	0.22158	0.44315	0.03102	0.041
Mof_H 	H 	0.23637	0.47273	0.00853	0.047
Mof_Zn	Zn	0.80629	0.61259	0.63401	1.22
Mof_C 	C 	0.79195	0.5839	0.55519	0.055
Mof_C 	C 	0.79708	0.59417	0.48841	-0.009
Mof_C 	C 	0.81723	0.63447	0.46122	-0.011
Mof_C 	C 	0.84223	0.68447	0.42853	0.01
Mof_C 	C 	0.88824	0.77649	0.36436	0.041
Mof_H 	H 	0.90303	0.80607	0.34187	0.047
_end
