data_functionalizedCrystal
_audit_creation_method	'EQeq! by Chris Wilmer'
_symmetry_space_group_name_H-M	'P1'
_symmetry_Int_Tables_number	1
_symmetry_cell_setting	triclinic
loop_
_symmetry_equiv_pos_as_xyz
  x,y,z
_cell_length_a	11.0644
_cell_length_b	13.989
_cell_length_c	18.3866
_cell_angle_alpha	90
_cell_angle_beta	103.381
_cell_angle_gamma	90
loop_
_atom_site_label
_atom_site_type_symbol
_atom_site_fract_x
_atom_site_fract_y
_atom_site_fract_z
_atom_site_charge
Mof_V 	V 	0.9791	0.2207	0.27505	1.446
Mof_V 	V 	0.21977	0.46372	0.22693	1.461
Mof_P 	P 	0.2503	0.31043	0.35998	0.539
Mof_P 	P 	0.74095	0.16729	0.14219	0.551
Mof_P 	P 	0.03491	0.43901	0.33747	0.376
Mof_P 	P 	0.95681	0.03978	0.16414	0.564
Mof_F 	F 	0.6099	0.2526	0.43305	-0.63
Mof_F 	F 	0.386	0.22641	0.06401	-0.652
Mof_O 	O 	0.3529	0.2561	0.41243	-0.476
Mof_O 	O 	0.3033	0.37962	0.31007	-0.666
Mof_O 	O 	0.0994	0.49788	0.28622	-0.665
Mof_O 	O 	0.9576	0.5013	0.37574	-0.136
Mof_O 	O 	0.9579	0.35838	0.29108	-0.567
Mof_O 	O 	0.1622	0.23777	0.31203	-0.687
Mof_O 	O 	0.0315	0.1185	0.21339	-0.7
Mof_O 	O 	0.8271	0.23723	0.19486	-0.613
Mof_O 	O 	0.037	0.98019	0.1261	-0.254
Mof_O 	O 	0.8896	0.9776	0.21187	-0.47
Mof_O 	O 	0.683	0.09522	0.18737	-0.68
Mof_O 	O 	0.6422	0.2251	0.0899	-0.483
Mof_O 	O 	0.1474	0.3942	0.16281	-0.523
Mof_C 	C 	0.1588	0.3829	0.4067	-0.554
Mof_H 	H 	0.2106	0.4316	0.4361	0.151
Mof_H 	H 	0.1237	0.3438	0.4402	0.149
Mof_C 	C 	0.8378	0.0992	0.0949	-0.556
Mof_H 	H 	0.8757	0.1413	0.0646	0.19
Mof_H 	H 	0.788	0.0523	0.0622	0.142
Mof_O 	O 	0.396	0.5786	0.2802	-0.739
Mof_O 	O 	0.067	0.311	0.1603	-0.504
Mof_V 	V 	0.0155	0.257	0.2273	1.403
Mof_V 	V 	0.2738	0.5144	0.2735	1.451
Mof_V 	V 	0.4791	0.7207	0.27505	1.404
Mof_V 	V 	0.71977	0.96372	0.22693	1.49
Mof_P 	P 	0.7503	0.81043	0.35998	0.552
Mof_P 	P 	0.24095	0.66729	0.14219	0.548
Mof_P 	P 	0.53491	0.93901	0.33747	0.583
Mof_P 	P 	0.45681	0.53978	0.16414	0.549
Mof_F 	F 	0.1099	0.7526	0.43305	-0.648
Mof_F 	F 	0.886	0.72641	0.06401	-0.589
Mof_O 	O 	0.8529	0.7561	0.41243	-0.424
Mof_O 	O 	0.8033	0.87962	0.31007	-0.631
Mof_O 	O 	0.5994	0.99788	0.28622	-0.622
Mof_O 	O 	0.4576	0.0013	0.37574	-0.314
Mof_O 	O 	0.4579	0.85838	0.29108	-0.658
Mof_O 	O 	0.6622	0.73777	0.31203	-0.653
Mof_O 	O 	0.5315	0.6185	0.21339	-0.606
Mof_O 	O 	0.3271	0.73723	0.19486	-0.634
Mof_O 	O 	0.537	0.48019	0.1261	-0.239
Mof_O 	O 	0.3896	0.4776	0.21187	-0.565
Mof_O 	O 	0.183	0.59522	0.18737	-0.66
Mof_O 	O 	0.1422	0.7251	0.0899	-0.499
Mof_O 	O 	0.6474	0.8942	0.16281	-0.487
Mof_C 	C 	0.6588	0.8829	0.4067	-0.601
Mof_H 	H 	0.7106	0.9316	0.4361	0.204
Mof_H 	H 	0.6237	0.8438	0.4402	0.201
Mof_C 	C 	0.3378	0.5992	0.0949	-0.553
Mof_H 	H 	0.3757	0.6413	0.0646	0.173
Mof_H 	H 	0.288	0.5523	0.0622	0.153
Mof_O 	O 	0.896	0.0786	0.2802	-0.744
Mof_O 	O 	0.567	0.811	0.1603	-0.464
Mof_V 	V 	0.5155	0.757	0.2273	1.442
Mof_V 	V 	0.7738	0.0144	0.2735	1.408
Mof_V 	V 	0.0209	0.2207	0.72495	1.361
Mof_V 	V 	0.78023	0.46372	0.77307	1.467
Mof_P 	P 	0.7497	0.31043	0.64002	0.553
Mof_P 	P 	0.25905	0.16729	0.85781	0.558
Mof_P 	P 	0.96509	0.43901	0.66253	0.655
Mof_P 	P 	0.04319	0.03978	0.83586	0.317
Mof_F 	F 	0.3901	0.2526	0.56695	-0.639
Mof_F 	F 	0.614	0.22641	0.93599	-0.528
Mof_O 	O 	0.6471	0.2561	0.58757	-0.47
Mof_O 	O 	0.6967	0.37962	0.68993	-0.666
Mof_O 	O 	0.9006	0.49788	0.71378	-0.644
Mof_O 	O 	0.0424	0.5013	0.62426	-0.318
Mof_O 	O 	0.0421	0.35838	0.70892	-0.743
Mof_O 	O 	0.8378	0.23777	0.68797	-0.641
Mof_O 	O 	0.9685	0.1185	0.78661	-0.513
Mof_O 	O 	0.1729	0.23723	0.80514	-0.643
Mof_O 	O 	0.963	0.98019	0.8739	-0.01
Mof_O 	O 	0.1104	0.9776	0.78813	-0.48
Mof_O 	O 	0.317	0.09522	0.81263	-0.66
Mof_O 	O 	0.3578	0.2251	0.9101	-0.398
Mof_O 	O 	0.8526	0.3942	0.83719	-0.461
Mof_C 	C 	0.8412	0.3829	0.5933	-0.607
Mof_H 	H 	0.7894	0.4316	0.5639	0.181
Mof_H 	H 	0.8763	0.3438	0.5598	0.21
Mof_C 	C 	0.1622	0.0992	0.9051	-0.543
Mof_H 	H 	0.1243	0.1413	0.9354	0.211
Mof_H 	H 	0.212	0.0523	0.9378	0.195
Mof_O 	O 	0.604	0.5786	0.7198	-0.737
Mof_O 	O 	0.933	0.311	0.8397	-0.404
Mof_V 	V 	0.9845	0.257	0.7727	1.481
Mof_V 	V 	0.7262	0.5144	0.7265	1.453
Mof_V 	V 	0.5209	0.7207	0.72495	1.405
Mof_V 	V 	0.28023	0.96372	0.77307	1.489
Mof_P 	P 	0.2497	0.81043	0.64002	0.548
Mof_P 	P 	0.75905	0.66729	0.85781	0.573
Mof_P 	P 	0.46509	0.93901	0.66253	0.581
Mof_P 	P 	0.54319	0.53978	0.83586	0.568
Mof_F 	F 	0.8901	0.7526	0.56695	-0.574
Mof_F 	F 	0.114	0.72641	0.93599	-0.547
Mof_O 	O 	0.1471	0.7561	0.58757	-0.484
Mof_O 	O 	0.1967	0.87962	0.68993	-0.664
Mof_O 	O 	0.4006	0.99788	0.71378	-0.618
Mof_O 	O 	0.5424	0.0013	0.62426	-0.302
Mof_O 	O 	0.5421	0.85838	0.70892	-0.642
Mof_O 	O 	0.3378	0.73777	0.68797	-0.659
Mof_O 	O 	0.4685	0.6185	0.78661	-0.604
Mof_O 	O 	0.6729	0.73723	0.80514	-0.61
Mof_O 	O 	0.463	0.48019	0.8739	-0.183
Mof_O 	O 	0.6104	0.4776	0.78813	-0.558
Mof_O 	O 	0.817	0.59522	0.81263	-0.61
Mof_O 	O 	0.8578	0.7251	0.9101	-0.35
Mof_O 	O 	0.3526	0.8942	0.83719	-0.459
Mof_C 	C 	0.3412	0.8829	0.5933	-0.596
Mof_H 	H 	0.2894	0.9316	0.5639	0.184
Mof_H 	H 	0.3763	0.8438	0.5598	0.196
Mof_C 	C 	0.6622	0.5992	0.9051	-0.596
Mof_H 	H 	0.6243	0.6413	0.9354	0.262
Mof_H 	H 	0.712	0.5523	0.9378	0.251
Mof_O 	O 	0.104	0.0786	0.7198	-0.8
Mof_O 	O 	0.433	0.811	0.8397	-0.427
Mof_V 	V 	0.4845	0.757	0.7727	1.445
Mof_V 	V 	0.2262	0.0144	0.7265	1.408
Mof_V 	V 	0.5	0.2746	0.5	1.754
Mof_V 	V 	3.83631e-33	0.7746	0.5	1.722
Mof_V 	V 	0.5	0.20429	-0	1.703
Mof_V 	V 	-0	0.70429	-0	1.673
_end
