data_functionalizedCrystal
_audit_creation_method	'EQeq! by Chris Wilmer'
_symmetry_space_group_name_H-M	'P1'
_symmetry_Int_Tables_number	1
_symmetry_cell_setting	triclinic
loop_
_symmetry_equiv_pos_as_xyz
  x,y,z
_cell_length_a	25.8504
_cell_length_b	25.8504
_cell_length_c	6.8072
_cell_angle_alpha	90
_cell_angle_beta	90
_cell_angle_gamma	120
loop_
_atom_site_label
_atom_site_type_symbol
_atom_site_fract_x
_atom_site_fract_y
_atom_site_fract_z
_atom_site_charge
Mof_Zn	Zn	0.3819	0.3509	0.1454	1.217
Mof_O 	O 	0.3325	0.2955	0.3719	-0.646
Mof_O 	O 	0.3558	0.2742	0.0095	-0.562
Mof_O 	O 	0.4387	0.4093	0.9328	-0.508
Mof_C 	C 	0.3165	0.2452	0.4291	0.51
Mof_C 	C 	0.3456	0.2212	0.0966	0.227
Mof_C 	C 	0.3269	0.2081	0.2879	-0.214
Mof_C 	C 	0.3503	0.1816	0.9695	-0.12
Mof_H 	H 	0.3633	0.1905	0.845	0.096
Mof_Zn	Zn	0.04857	0.68423	0.47873	1.217
Mof_O 	O 	0.99917	0.62883	0.70523	-0.646
Mof_O 	O 	0.02247	0.60753	0.34283	-0.562
Mof_O 	O 	0.10537	0.74263	0.26613	-0.508
Mof_C 	C 	0.98317	0.57853	0.76243	0.51
Mof_C 	C 	0.01227	0.55453	0.42993	0.227
Mof_C 	C 	0.99357	0.54143	0.62123	-0.214
Mof_C 	C 	0.01697	0.51493	0.30283	-0.12
Mof_H 	H 	0.02997	0.52383	0.17833	0.096
Mof_Zn	Zn	0.71523	0.01757	0.81207	1.217
Mof_O 	O 	0.66583	0.96217	0.03857	-0.646
Mof_O 	O 	0.68913	0.94087	0.67617	-0.562
Mof_O 	O 	0.77203	0.07597	0.59947	-0.508
Mof_C 	C 	0.64983	0.91187	0.09577	0.511
Mof_C 	C 	0.67893	0.88787	0.76327	0.227
Mof_C 	C 	0.66023	0.87477	0.95457	-0.215
Mof_C 	C 	0.68363	0.84827	0.63617	-0.121
Mof_H 	H 	0.69663	0.85717	0.51167	0.096
Mof_Zn	Zn	0.6491	0.031	0.1454	1.217
Mof_O 	O 	0.7045	0.037	0.3719	-0.646
Mof_O 	O 	0.7258	0.0816	0.0095	-0.562
Mof_O 	O 	0.5907	0.0294	0.9328	-0.508
Mof_C 	C 	0.7548	0.0713	0.4291	0.51
Mof_C 	C 	0.7788	0.1244	0.0966	0.226
Mof_C 	C 	0.7919	0.1188	0.2879	-0.214
Mof_C 	C 	0.8184	0.1687	0.9695	-0.119
Mof_H 	H 	0.8095	0.1728	0.845	0.096
Mof_Zn	Zn	0.31577	0.36433	0.47873	1.217
Mof_O 	O 	0.37117	0.37033	0.70523	-0.646
Mof_O 	O 	0.39247	0.41493	0.34283	-0.562
Mof_O 	O 	0.25737	0.36273	0.26613	-0.508
Mof_C 	C 	0.42147	0.40463	0.76243	0.511
Mof_C 	C 	0.44547	0.45773	0.42993	0.227
Mof_C 	C 	0.45857	0.45213	0.62123	-0.214
Mof_C 	C 	0.48507	0.50203	0.30283	-0.12
Mof_H 	H 	0.47617	0.50613	0.17833	0.096
Mof_Zn	Zn	0.98243	0.69767	0.81207	1.217
Mof_O 	O 	0.03783	0.70367	0.03857	-0.646
Mof_O 	O 	0.05913	0.74827	0.67617	-0.562
Mof_O 	O 	0.92403	0.69607	0.59947	-0.508
Mof_C 	C 	0.08813	0.73797	0.09577	0.511
Mof_C 	C 	0.11213	0.79107	0.76327	0.228
Mof_C 	C 	0.12523	0.78547	0.95457	-0.216
Mof_C 	C 	0.15173	0.83537	0.63617	-0.121
Mof_H 	H 	0.14283	0.83947	0.51167	0.097
Mof_Zn	Zn	0.969	0.6181	0.1454	1.217
Mof_O 	O 	0.963	0.6675	0.3719	-0.646
Mof_O 	O 	0.9184	0.6442	0.0095	-0.562
Mof_O 	O 	0.9706	0.5613	0.9328	-0.508
Mof_C 	C 	0.9287	0.6835	0.4291	0.51
Mof_C 	C 	0.8756	0.6544	0.0966	0.227
Mof_C 	C 	0.8812	0.6731	0.2879	-0.214
Mof_C 	C 	0.8313	0.6497	0.9695	-0.12
Mof_H 	H 	0.8272	0.6367	0.845	0.096
Mof_Zn	Zn	0.63567	0.95143	0.47873	1.217
Mof_O 	O 	0.62967	0.00083	0.70523	-0.646
Mof_O 	O 	0.58507	0.97753	0.34283	-0.562
Mof_O 	O 	0.63727	0.89463	0.26613	-0.508
Mof_C 	C 	0.59537	0.01683	0.76243	0.51
Mof_C 	C 	0.54227	0.98773	0.42993	0.227
Mof_C 	C 	0.54787	0.00643	0.62123	-0.214
Mof_C 	C 	0.49797	0.98303	0.30283	-0.12
Mof_H 	H 	0.49387	0.97003	0.17833	0.096
Mof_Zn	Zn	0.30233	0.28477	0.81207	1.217
Mof_O 	O 	0.29633	0.33417	0.03857	-0.646
Mof_O 	O 	0.25173	0.31087	0.67617	-0.562
Mof_O 	O 	0.30393	0.22797	0.59947	-0.508
Mof_C 	C 	0.26203	0.35017	0.09577	0.511
Mof_C 	C 	0.20893	0.32107	0.76327	0.227
Mof_C 	C 	0.21453	0.33977	0.95457	-0.215
Mof_C 	C 	0.16463	0.31637	0.63617	-0.12
Mof_H 	H 	0.16053	0.30337	0.51167	0.096
Mof_Zn	Zn	0.6181	0.6491	0.8546	1.217
Mof_O 	O 	0.6675	0.7045	0.6281	-0.646
Mof_O 	O 	0.6442	0.7258	0.9905	-0.562
Mof_O 	O 	0.5613	0.5907	0.0672	-0.508
Mof_C 	C 	0.6835	0.7548	0.5709	0.51
Mof_C 	C 	0.6544	0.7788	0.9034	0.227
Mof_C 	C 	0.6731	0.7919	0.7121	-0.214
Mof_C 	C 	0.6497	0.8184	0.0305	-0.12
Mof_H 	H 	0.6367	0.8095	0.155	0.096
Mof_Zn	Zn	0.28477	0.98243	0.18793	1.217
Mof_O 	O 	0.33417	0.03783	0.96143	-0.646
Mof_O 	O 	0.31087	0.05913	0.32383	-0.562
Mof_O 	O 	0.22797	0.92403	0.40053	-0.508
Mof_C 	C 	0.35017	0.08813	0.90423	0.511
Mof_C 	C 	0.32107	0.11213	0.23673	0.227
Mof_C 	C 	0.33977	0.12523	0.04543	-0.215
Mof_C 	C 	0.31637	0.15173	0.36383	-0.121
Mof_H 	H 	0.30337	0.14283	0.48833	0.096
Mof_Zn	Zn	0.95143	0.31577	0.52127	1.217
Mof_O 	O 	0.00083	0.37117	0.29477	-0.646
Mof_O 	O 	0.97753	0.39247	0.65717	-0.562
Mof_O 	O 	0.89463	0.25737	0.73387	-0.508
Mof_C 	C 	0.01683	0.42147	0.23757	0.51
Mof_C 	C 	0.98773	0.44547	0.57007	0.227
Mof_C 	C 	0.00643	0.45857	0.37877	-0.214
Mof_C 	C 	0.98303	0.48507	0.69717	-0.12
Mof_H 	H 	0.97003	0.47617	0.82167	0.096
Mof_Zn	Zn	0.3509	0.969	0.8546	1.217
Mof_O 	O 	0.2955	0.963	0.6281	-0.646
Mof_O 	O 	0.2742	0.9184	0.9905	-0.562
Mof_O 	O 	0.4093	0.9706	0.0672	-0.508
Mof_C 	C 	0.2452	0.9287	0.5709	0.51
Mof_C 	C 	0.2212	0.8756	0.9034	0.226
Mof_C 	C 	0.2081	0.8812	0.7121	-0.214
Mof_C 	C 	0.1816	0.8313	0.0305	-0.119
Mof_H 	H 	0.1905	0.8272	0.155	0.096
Mof_Zn	Zn	0.01757	0.30233	0.18793	1.217
Mof_O 	O 	0.96217	0.29633	0.96143	-0.646
Mof_O 	O 	0.94087	0.25173	0.32383	-0.562
Mof_O 	O 	0.07597	0.30393	0.40053	-0.508
Mof_C 	C 	0.91187	0.26203	0.90423	0.511
Mof_C 	C 	0.88787	0.20893	0.23673	0.228
Mof_C 	C 	0.87477	0.21453	0.04543	-0.216
Mof_C 	C 	0.84827	0.16463	0.36383	-0.121
Mof_H 	H 	0.85717	0.16053	0.48833	0.097
Mof_Zn	Zn	0.68423	0.63567	0.52127	1.217
Mof_O 	O 	0.62883	0.62967	0.29477	-0.646
Mof_O 	O 	0.60753	0.58507	0.65717	-0.562
Mof_O 	O 	0.74263	0.63727	0.73387	-0.508
Mof_C 	C 	0.57853	0.59537	0.23757	0.511
Mof_C 	C 	0.55453	0.54227	0.57007	0.227
Mof_C 	C 	0.54143	0.54787	0.37877	-0.214
Mof_C 	C 	0.51493	0.49797	0.69717	-0.12
Mof_H 	H 	0.52383	0.49387	0.82167	0.096
Mof_Zn	Zn	0.031	0.3819	0.8546	1.217
Mof_O 	O 	0.037	0.3325	0.6281	-0.646
Mof_O 	O 	0.0816	0.3558	0.9905	-0.562
Mof_O 	O 	0.0294	0.4387	0.0672	-0.508
Mof_C 	C 	0.0713	0.3165	0.5709	0.51
Mof_C 	C 	0.1244	0.3456	0.9034	0.227
Mof_C 	C 	0.1188	0.3269	0.7121	-0.214
Mof_C 	C 	0.1687	0.3503	0.0305	-0.12
Mof_H 	H 	0.1728	0.3633	0.155	0.096
Mof_Zn	Zn	0.69767	0.71523	0.18793	1.217
Mof_O 	O 	0.70367	0.66583	0.96143	-0.646
Mof_O 	O 	0.74827	0.68913	0.32383	-0.562
Mof_O 	O 	0.69607	0.77203	0.40053	-0.508
Mof_C 	C 	0.73797	0.64983	0.90423	0.511
Mof_C 	C 	0.79107	0.67893	0.23673	0.227
Mof_C 	C 	0.78547	0.66023	0.04543	-0.215
Mof_C 	C 	0.83537	0.68363	0.36383	-0.12
Mof_H 	H 	0.83947	0.69663	0.48833	0.096
Mof_Zn	Zn	0.36433	0.04857	0.52127	1.217
Mof_O 	O 	0.37033	0.99917	0.29477	-0.646
Mof_O 	O 	0.41493	0.02247	0.65717	-0.562
Mof_O 	O 	0.36273	0.10537	0.73387	-0.508
Mof_C 	C 	0.40463	0.98317	0.23757	0.51
Mof_C 	C 	0.45773	0.01227	0.57007	0.227
Mof_C 	C 	0.45213	0.99357	0.37877	-0.214
Mof_C 	C 	0.50203	0.01697	0.69717	-0.12
Mof_H 	H 	0.50613	0.02997	0.82167	0.096
_end
