data_functionalizedCrystal
_audit_creation_method	'EQeq! by Chris Wilmer'
_symmetry_space_group_name_H-M	'P1'
_symmetry_Int_Tables_number	1
_symmetry_cell_setting	triclinic
loop_
_symmetry_equiv_pos_as_xyz
  x,y,z
_cell_length_a	16.317
_cell_length_b	13.02
_cell_length_c	13.591
_cell_angle_alpha	90
_cell_angle_beta	100.303
_cell_angle_gamma	90
loop_
_atom_site_label
_atom_site_type_symbol
_atom_site_fract_x
_atom_site_fract_y
_atom_site_fract_z
_atom_site_charge
Mof_O 	O 	0.05536	0.2428	0.6666	-0.422
Mof_O 	O 	0.1396	0.2013	0.8089	-0.285
Mof_O 	O 	0.3686	0.9564	0.8134	-0.282
Mof_O 	O 	0.41503	0.9257	0.6703	-0.407
Mof_N 	N 	0.2128	0.0941	0.4007	-0.17
Mof_H 	H 	0.232	0.0438	0.3705	0.129
Mof_C 	C 	0.1194	0.1967	0.7155	0.29
Mof_C 	C 	0.1728	0.1367	0.6589	-0.029
Mof_C 	C 	0.1645	0.1443	0.5539	-0.107
Mof_H 	H 	0.1226	0.185	0.5182	0.085
Mof_C 	C 	0.2185	0.0913	0.5035	0.124
Mof_C 	C 	0.2824	0.0316	0.5585	-0.113
Mof_H 	H 	0.3195	0.9971	0.5255	0.102
Mof_C 	C 	0.2908	0.0236	0.663	-0.016
Mof_C 	C 	0.2365	0.0756	0.7118	-0.043
Mof_H 	H 	0.2421	0.07	0.781	0.063
Mof_C 	C 	0.3631	0.9636	0.7212	0.288
Mof_C 	C 	0.1756	0.182	0.3431	-0.229
Mof_H 	H 	0.2057	0.1936	0.2886	0.113
Mof_H 	H 	0.1838	0.2421	0.3859	0.108
Mof_C 	C 	0.083	0.1736	0.2991	0.285
Mof_C 	C 	0.0421	0.0825	0.2739	-0.379
Mof_H 	H 	0.07	0.0205	0.2884	0.166
Mof_C 	C 	0.041	0.2635	0.2741	-0.402
Mof_H 	H 	0.0682	0.3258	0.2898	0.166
Mof_O 	O 	0.55536	0.7428	0.6666	-0.398
Mof_O 	O 	0.6396	0.7013	0.8089	-0.27
Mof_O 	O 	0.8686	0.4564	0.8134	-0.266
Mof_O 	O 	0.91503	0.4257	0.6703	-0.375
Mof_N 	N 	0.7128	0.5941	0.4007	-0.191
Mof_H 	H 	0.732	0.5438	0.3705	0.139
Mof_C 	C 	0.6194	0.6967	0.7155	0.286
Mof_C 	C 	0.6728	0.6367	0.6589	-0.013
Mof_C 	C 	0.6645	0.6443	0.5539	-0.117
Mof_H 	H 	0.6226	0.685	0.5182	0.097
Mof_C 	C 	0.7185	0.5913	0.5035	0.142
Mof_C 	C 	0.7824	0.5316	0.5585	-0.121
Mof_H 	H 	0.8195	0.4971	0.5255	0.112
Mof_C 	C 	0.7908	0.5236	0.663	-0.001
Mof_C 	C 	0.7365	0.5756	0.7118	-0.05
Mof_H 	H 	0.7421	0.57	0.781	0.069
Mof_C 	C 	0.8631	0.4636	0.7212	0.285
Mof_C 	C 	0.6756	0.682	0.3431	-0.101
Mof_H 	H 	0.7057	0.6936	0.2886	0.078
Mof_H 	H 	0.6838	0.7421	0.3859	0.073
Mof_C 	C 	0.583	0.6736	0.2991	0.06
Mof_C 	C 	0.5421	0.5825	0.2739	-0.062
Mof_H 	H 	0.57	0.5205	0.2884	0.071
Mof_C 	C 	0.541	0.7635	0.2741	-0.063
Mof_H 	H 	0.5682	0.8258	0.2898	0.064
Mof_O 	O 	0.94464	0.2428	0.8334	-0.364
Mof_O 	O 	0.8604	0.2013	0.6911	-0.254
Mof_O 	O 	0.6314	0.9564	0.6866	-0.281
Mof_O 	O 	0.58497	0.9257	0.8297	-0.406
Mof_N 	N 	0.7872	0.0941	0.0993	-0.209
Mof_H 	H 	0.768	0.0438	0.1295	0.146
Mof_C 	C 	0.8806	0.1967	0.7845	0.282
Mof_C 	C 	0.8272	0.1367	0.8411	-0.004
Mof_C 	C 	0.8355	0.1443	0.9461	-0.121
Mof_H 	H 	0.8774	0.185	0.9818	0.106
Mof_C 	C 	0.7815	0.0913	0.9965	0.146
Mof_C 	C 	0.7176	0.0316	0.9415	-0.122
Mof_H 	H 	0.6805	0.9971	0.9745	0.105
Mof_C 	C 	0.7092	0.0236	0.837	-0.006
Mof_C 	C 	0.7635	0.0756	0.7882	-0.052
Mof_H 	H 	0.7579	0.07	0.719	0.069
Mof_C 	C 	0.6369	0.9636	0.7788	0.287
Mof_C 	C 	0.8244	0.182	0.1569	0.024
Mof_H 	H 	0.7943	0.1936	0.2114	0.043
Mof_H 	H 	0.8162	0.2421	0.1141	0.039
Mof_C 	C 	0.917	0.1736	0.2009	-0.162
Mof_C 	C 	0.9579	0.0825	0.2261	0.253
Mof_H 	H 	0.93	0.0205	0.2116	-0.024
Mof_C 	C 	0.959	0.2635	0.2259	0.273
Mof_H 	H 	0.9318	0.3258	0.2102	-0.036
Mof_O 	O 	0.44464	0.7428	0.8334	-0.399
Mof_O 	O 	0.3604	0.7013	0.6911	-0.274
Mof_O 	O 	0.1314	0.4564	0.6866	-0.294
Mof_O 	O 	0.08497	0.4257	0.8297	-0.429
Mof_N 	N 	0.2872	0.5941	0.0993	-0.188
Mof_H 	H 	0.268	0.5438	0.1295	0.137
Mof_C 	C 	0.3806	0.6967	0.7845	0.287
Mof_C 	C 	0.3272	0.6367	0.8411	-0.021
Mof_C 	C 	0.3355	0.6443	0.9461	-0.111
Mof_H 	H 	0.3774	0.685	0.9818	0.094
Mof_C 	C 	0.2815	0.5913	0.9965	0.129
Mof_C 	C 	0.2176	0.5316	0.9415	-0.115
Mof_H 	H 	0.1805	0.4971	0.9745	0.096
Mof_C 	C 	0.2092	0.5236	0.837	-0.021
Mof_C 	C 	0.2635	0.5756	0.7882	-0.045
Mof_H 	H 	0.2579	0.57	0.719	0.063
Mof_C 	C 	0.1369	0.4636	0.7788	0.289
Mof_C 	C 	0.3244	0.682	0.1569	-0.104
Mof_H 	H 	0.2943	0.6936	0.2114	0.078
Mof_H 	H 	0.3162	0.7421	0.1141	0.075
Mof_C 	C 	0.417	0.6736	0.2009	0.063
Mof_C 	C 	0.4579	0.5825	0.2261	-0.064
Mof_H 	H 	0.43	0.5205	0.2116	0.072
Mof_C 	C 	0.459	0.7635	0.2259	-0.066
Mof_H 	H 	0.4318	0.8258	0.2102	0.066
Mof_Zn	Zn	-2.00095e-17	0.33665	0.75	1.218
Mof_Zn	Zn	0.5	0.83665	0.75	1.24
Mof_O 	O 	0.94464	0.7572	0.3334	-0.363
Mof_O 	O 	0.8604	0.7987	0.1911	-0.254
Mof_O 	O 	0.6314	0.0436	0.1866	-0.28
Mof_O 	O 	0.58497	0.0743	0.3297	-0.405
Mof_N 	N 	0.7872	0.9059	0.5993	-0.211
Mof_H 	H 	0.768	0.9562	0.6295	0.146
Mof_C 	C 	0.8806	0.8033	0.2845	0.281
Mof_C 	C 	0.8272	0.8633	0.3411	-0.002
Mof_C 	C 	0.8355	0.8557	0.4461	-0.123
Mof_H 	H 	0.8774	0.815	0.4818	0.108
Mof_C 	C 	0.7815	0.9087	0.4965	0.151
Mof_C 	C 	0.7176	0.9684	0.4415	-0.125
Mof_H 	H 	0.6805	0.0029	0.4745	0.107
Mof_C 	C 	0.7092	0.9764	0.337	-0.004
Mof_C 	C 	0.7635	0.9244	0.2882	-0.054
Mof_H 	H 	0.7579	0.93	0.219	0.07
Mof_C 	C 	0.6369	0.0364	0.2788	0.286
Mof_C 	C 	0.8244	0.818	0.6569	0.025
Mof_H 	H 	0.7943	0.8064	0.7114	0.042
Mof_H 	H 	0.8162	0.7579	0.6141	0.038
Mof_C 	C 	0.917	0.8264	0.7009	-0.163
Mof_C 	C 	0.9579	0.9175	0.7261	0.253
Mof_H 	H 	0.93	0.9795	0.7116	-0.024
Mof_C 	C 	0.959	0.7365	0.7259	0.273
Mof_H 	H 	0.9318	0.6742	0.7102	-0.036
Mof_O 	O 	0.44464	0.2572	0.3334	-0.398
Mof_O 	O 	0.3604	0.2987	0.1911	-0.273
Mof_O 	O 	0.1314	0.5436	0.1866	-0.293
Mof_O 	O 	0.08497	0.5743	0.3297	-0.428
Mof_N 	N 	0.2872	0.4059	0.5993	-0.19
Mof_H 	H 	0.268	0.4562	0.6295	0.137
Mof_C 	C 	0.3806	0.3033	0.2845	0.287
Mof_C 	C 	0.3272	0.3633	0.3411	-0.019
Mof_C 	C 	0.3355	0.3557	0.4461	-0.114
Mof_H 	H 	0.3774	0.315	0.4818	0.096
Mof_C 	C 	0.2815	0.4087	0.4965	0.134
Mof_C 	C 	0.2176	0.4684	0.4415	-0.117
Mof_H 	H 	0.1805	0.5029	0.4745	0.098
Mof_C 	C 	0.2092	0.4764	0.337	-0.019
Mof_C 	C 	0.2635	0.4244	0.2882	-0.046
Mof_H 	H 	0.2579	0.43	0.219	0.064
Mof_C 	C 	0.1369	0.5364	0.2788	0.289
Mof_C 	C 	0.3244	0.318	0.6569	-0.103
Mof_H 	H 	0.2943	0.3064	0.7114	0.078
Mof_H 	H 	0.3162	0.2579	0.6141	0.074
Mof_C 	C 	0.417	0.3264	0.7009	0.062
Mof_C 	C 	0.4579	0.4175	0.7261	-0.064
Mof_H 	H 	0.43	0.4795	0.7116	0.072
Mof_C 	C 	0.459	0.2365	0.7259	-0.066
Mof_H 	H 	0.4318	0.1742	0.7102	0.065
Mof_O 	O 	0.05536	0.7572	0.1666	-0.422
Mof_O 	O 	0.1396	0.7987	0.3089	-0.285
Mof_O 	O 	0.3686	0.0436	0.3134	-0.281
Mof_O 	O 	0.41503	0.0743	0.1703	-0.406
Mof_N 	N 	0.2128	0.9059	0.9007	-0.172
Mof_H 	H 	0.232	0.9562	0.8705	0.129
Mof_C 	C 	0.1194	0.8033	0.2155	0.289
Mof_C 	C 	0.1728	0.8633	0.1589	-0.027
Mof_C 	C 	0.1645	0.8557	0.0539	-0.109
Mof_H 	H 	0.1226	0.815	0.0182	0.087
Mof_C 	C 	0.2185	0.9087	0.0035	0.129
Mof_C 	C 	0.2824	0.9684	0.0585	-0.114
Mof_H 	H 	0.3195	0.0029	0.0255	0.103
Mof_C 	C 	0.2908	0.9764	0.163	-0.015
Mof_C 	C 	0.2365	0.9244	0.2118	-0.044
Mof_H 	H 	0.2421	0.93	0.281	0.064
Mof_C 	C 	0.3631	0.0364	0.2212	0.288
Mof_C 	C 	0.1756	0.818	0.8431	-0.229
Mof_H 	H 	0.2057	0.8064	0.7886	0.113
Mof_H 	H 	0.1838	0.7579	0.8859	0.107
Mof_C 	C 	0.083	0.8264	0.7991	0.284
Mof_C 	C 	0.0421	0.9175	0.7739	-0.38
Mof_H 	H 	0.07	0.9795	0.7884	0.166
Mof_C 	C 	0.041	0.7365	0.7741	-0.402
Mof_H 	H 	0.0682	0.6742	0.7898	0.166
Mof_O 	O 	0.55536	0.2572	0.1666	-0.397
Mof_O 	O 	0.6396	0.2987	0.3089	-0.269
Mof_O 	O 	0.8686	0.5436	0.3134	-0.265
Mof_O 	O 	0.91503	0.5743	0.1703	-0.374
Mof_N 	N 	0.7128	0.4059	0.9007	-0.193
Mof_H 	H 	0.732	0.4562	0.8705	0.139
Mof_C 	C 	0.6194	0.3033	0.2155	0.285
Mof_C 	C 	0.6728	0.3633	0.1589	-0.011
Mof_C 	C 	0.6645	0.3557	0.0539	-0.118
Mof_H 	H 	0.6226	0.315	0.0182	0.098
Mof_C 	C 	0.7185	0.4087	0.0035	0.146
Mof_C 	C 	0.7824	0.4684	0.0585	-0.123
Mof_H 	H 	0.8195	0.5029	0.0255	0.113
Mof_C 	C 	0.7908	0.4764	0.163	0
Mof_C 	C 	0.7365	0.4244	0.2118	-0.051
Mof_H 	H 	0.7421	0.43	0.281	0.07
Mof_C 	C 	0.8631	0.5364	0.2212	0.284
Mof_C 	C 	0.6756	0.318	0.8431	-0.101
Mof_H 	H 	0.7057	0.3064	0.7886	0.077
Mof_H 	H 	0.6838	0.2579	0.8859	0.072
Mof_C 	C 	0.583	0.3264	0.7991	0.059
Mof_C 	C 	0.5421	0.4175	0.7739	-0.062
Mof_H 	H 	0.57	0.4795	0.7884	0.071
Mof_C 	C 	0.541	0.2365	0.7741	-0.064
Mof_H 	H 	0.5682	0.1742	0.7898	0.064
Mof_Zn	Zn	5.00239e-18	0.66335	0.25	1.218
Mof_Zn	Zn	0.5	0.16335	0.25	1.24
_end
