data_functionalizedCrystal
_audit_creation_method	'EQeq! by Chris Wilmer'
_symmetry_space_group_name_H-M	'P1'
_symmetry_Int_Tables_number	1
_symmetry_cell_setting	triclinic
loop_
_symmetry_equiv_pos_as_xyz
  x,y,z
_cell_length_a	14.3026
_cell_length_b	12.0421
_cell_length_c	21.6987
_cell_angle_alpha	90
_cell_angle_beta	90
_cell_angle_gamma	90
loop_
_atom_site_label
_atom_site_type_symbol
_atom_site_fract_x
_atom_site_fract_y
_atom_site_fract_z
_atom_site_charge
Mof_N 	N 	0.61309	0.94887	0.64161	-0.19
Mof_Cu	Cu	0.9498	0.01142	0.05231	0.915
Mof_O 	O 	0.50612	0.62921	0.92049	-0.398
Mof_O 	O 	0.59061	0.64588	0.00715	-0.402
Mof_O 	O 	0.93102	0.919	0.92176	-0.396
Mof_O 	O 	0.84907	0.9306	0.00997	-0.39
Mof_C 	C 	0.55677	0.9693	0.68892	0.062
Mof_H 	H 	0.4997	0.0072	0.681	0.019
Mof_C 	C 	0.57664	0.9381	0.75002	-0.116
Mof_H 	H 	0.5336	0.9552	0.782	0.075
Mof_C 	C 	0.65813	0.88306	0.76336	0.045
Mof_C 	C 	0.71863	0.85547	0.71405	-0.045
Mof_C 	C 	0.69367	0.8905	0.6534	0.11
Mof_C 	C 	0.75302	0.8645	0.60332	-0.126
Mof_H 	H 	0.7385	0.8909	0.5632	0.088
Mof_C 	C 	0.8313	0.8013	0.61245	0.027
Mof_H 	H 	0.8705	0.7835	0.5785	0.04
Mof_C 	C 	0.85405	0.7626	0.6715	-0.072
Mof_H 	H 	0.9074	0.7168	0.677	0.065
Mof_C 	C 	0.80014	0.7902	0.72134	-0.013
Mof_H 	H 	0.8176	0.7653	0.7612	0.043
Mof_C 	C 	0.67917	0.85163	0.82842	-0.013
Mof_C 	C 	0.61721	0.78247	0.85979	-0.014
Mof_H 	H 	0.5637	0.7542	0.8391	0.049
Mof_C 	C 	0.63296	0.75438	0.92126	-0.081
Mof_C 	C 	0.71067	0.79741	0.95186	0.023
Mof_H 	H 	0.7205	0.7809	0.9942	0.049
Mof_C 	C 	0.77353	0.86414	0.92053	-0.078
Mof_C 	C 	0.75885	0.8906	0.85857	-0.015
Mof_H 	H 	0.803	0.935	0.837	0.051
Mof_C 	C 	0.5705	0.67077	0.95263	0.348
Mof_C 	C 	0.85832	0.90759	0.95366	0.343
Mof_N 	N 	0.88691	0.05113	0.14161	-0.191
Mof_Cu	Cu	0.5502	0.98858	0.55231	0.916
Mof_O 	O 	0.99388	0.37079	0.42049	-0.398
Mof_O 	O 	0.90939	0.35412	0.50715	-0.403
Mof_O 	O 	0.56898	0.081	0.42176	-0.398
Mof_O 	O 	0.65093	0.0694	0.50997	-0.395
Mof_C 	C 	0.94323	0.0307	0.18892	0.06
Mof_H 	H 	0.0003	0.9928	0.181	0.019
Mof_C 	C 	0.92336	0.0619	0.25002	-0.115
Mof_H 	H 	0.9664	0.0448	0.282	0.075
Mof_C 	C 	0.84187	0.11694	0.26336	0.045
Mof_C 	C 	0.78137	0.14453	0.21405	-0.045
Mof_C 	C 	0.80633	0.1095	0.1534	0.11
Mof_C 	C 	0.74698	0.1355	0.10332	-0.126
Mof_H 	H 	0.7615	0.1091	0.0632	0.087
Mof_C 	C 	0.6687	0.1987	0.11245	0.027
Mof_H 	H 	0.6295	0.2165	0.0785	0.039
Mof_C 	C 	0.64595	0.2374	0.1715	-0.072
Mof_H 	H 	0.5926	0.2832	0.177	0.065
Mof_C 	C 	0.69986	0.2098	0.22134	-0.014
Mof_H 	H 	0.6824	0.2347	0.2612	0.043
Mof_C 	C 	0.82083	0.14837	0.32842	-0.013
Mof_C 	C 	0.88279	0.21753	0.35979	-0.014
Mof_H 	H 	0.9363	0.2458	0.3391	0.049
Mof_C 	C 	0.86704	0.24562	0.42126	-0.081
Mof_C 	C 	0.78933	0.20259	0.45186	0.024
Mof_H 	H 	0.7795	0.2191	0.4942	0.05
Mof_C 	C 	0.72647	0.13586	0.42053	-0.079
Mof_C 	C 	0.74115	0.1094	0.35857	-0.014
Mof_H 	H 	0.697	0.065	0.337	0.05
Mof_C 	C 	0.9295	0.32923	0.45263	0.349
Mof_C 	C 	0.64168	0.09241	0.45366	0.346
Mof_N 	N 	0.38691	0.44887	0.85839	-0.191
Mof_Cu	Cu	0.0502	0.51142	0.44769	0.916
Mof_O 	O 	0.49388	0.12921	0.57951	-0.398
Mof_O 	O 	0.40939	0.14588	0.49285	-0.403
Mof_O 	O 	0.06898	0.419	0.57824	-0.397
Mof_O 	O 	0.15093	0.4306	0.49003	-0.395
Mof_C 	C 	0.44323	0.4693	0.81108	0.064
Mof_H 	H 	0.5003	0.5072	0.819	0.017
Mof_C 	C 	0.42336	0.4381	0.74998	-0.117
Mof_H 	H 	0.4664	0.4552	0.718	0.076
Mof_C 	C 	0.34187	0.38306	0.73664	0.046
Mof_C 	C 	0.28137	0.35547	0.78595	-0.045
Mof_C 	C 	0.30633	0.3905	0.8466	0.111
Mof_C 	C 	0.24698	0.3645	0.89668	-0.126
Mof_H 	H 	0.2615	0.3909	0.9368	0.087
Mof_C 	C 	0.1687	0.3013	0.88755	0.028
Mof_H 	H 	0.1295	0.2835	0.9215	0.04
Mof_C 	C 	0.14595	0.2626	0.8285	-0.073
Mof_H 	H 	0.0926	0.2168	0.823	0.066
Mof_C 	C 	0.19986	0.2902	0.77866	-0.013
Mof_H 	H 	0.1824	0.2653	0.7388	0.043
Mof_C 	C 	0.32083	0.35163	0.67158	-0.013
Mof_C 	C 	0.38279	0.28247	0.64021	-0.014
Mof_H 	H 	0.4363	0.2542	0.6609	0.049
Mof_C 	C 	0.36704	0.25438	0.57874	-0.081
Mof_C 	C 	0.28933	0.29741	0.54814	0.024
Mof_H 	H 	0.2795	0.2809	0.5058	0.05
Mof_C 	C 	0.22647	0.36414	0.57947	-0.079
Mof_C 	C 	0.24115	0.3906	0.64143	-0.014
Mof_H 	H 	0.197	0.435	0.663	0.05
Mof_C 	C 	0.4295	0.17077	0.54737	0.35
Mof_C 	C 	0.14168	0.40759	0.54634	0.346
Mof_N 	N 	0.11309	0.55113	0.35839	-0.191
Mof_Cu	Cu	0.4498	0.48858	0.94769	0.915
Mof_O 	O 	0.00612	0.87079	0.07951	-0.398
Mof_O 	O 	0.09061	0.85412	0.99285	-0.406
Mof_O 	O 	0.43102	0.581	0.07824	-0.398
Mof_O 	O 	0.34907	0.5694	0.99003	-0.395
Mof_C 	C 	0.05677	0.5307	0.31108	0.064
Mof_H 	H 	0.9997	0.4928	0.319	0.018
Mof_C 	C 	0.07664	0.5619	0.24998	-0.117
Mof_H 	H 	0.0336	0.5448	0.218	0.076
Mof_C 	C 	0.15813	0.61694	0.23664	0.046
Mof_C 	C 	0.21863	0.64453	0.28595	-0.045
Mof_C 	C 	0.19367	0.6095	0.3466	0.11
Mof_C 	C 	0.25302	0.6355	0.39668	-0.127
Mof_H 	H 	0.2385	0.6091	0.4368	0.087
Mof_C 	C 	0.3313	0.6987	0.38755	0.027
Mof_H 	H 	0.3705	0.7165	0.4215	0.039
Mof_C 	C 	0.35405	0.7374	0.3285	-0.073
Mof_H 	H 	0.4074	0.7832	0.323	0.065
Mof_C 	C 	0.30014	0.7098	0.27866	-0.013
Mof_H 	H 	0.3176	0.7347	0.2388	0.043
Mof_C 	C 	0.17917	0.64837	0.17158	-0.014
Mof_C 	C 	0.11721	0.71753	0.14021	-0.013
Mof_H 	H 	0.0637	0.7458	0.1609	0.049
Mof_C 	C 	0.13296	0.74562	0.07874	-0.082
Mof_C 	C 	0.21067	0.70259	0.04814	0.025
Mof_H 	H 	0.2205	0.7191	0.0058	0.05
Mof_C 	C 	0.27353	0.63586	0.07947	-0.079
Mof_C 	C 	0.25885	0.6094	0.14143	-0.014
Mof_H 	H 	0.303	0.565	0.163	0.05
Mof_C 	C 	0.0705	0.82923	0.04737	0.352
Mof_C 	C 	0.35832	0.59241	0.04634	0.347
Mof_N 	N 	0.38691	0.05113	0.35839	-0.191
Mof_Cu	Cu	0.0502	0.98858	0.94769	0.914
Mof_O 	O 	0.49388	0.37079	0.07951	-0.398
Mof_O 	O 	0.40939	0.35412	0.99285	-0.402
Mof_O 	O 	0.06898	0.081	0.07824	-0.396
Mof_O 	O 	0.15093	0.0694	0.99003	-0.39
Mof_C 	C 	0.44323	0.0307	0.31108	0.062
Mof_H 	H 	0.5003	0.9928	0.319	0.019
Mof_C 	C 	0.42336	0.0619	0.24998	-0.116
Mof_H 	H 	0.4664	0.0448	0.218	0.075
Mof_C 	C 	0.34187	0.11694	0.23664	0.045
Mof_C 	C 	0.28137	0.14453	0.28595	-0.045
Mof_C 	C 	0.30633	0.1095	0.3466	0.11
Mof_C 	C 	0.24698	0.1355	0.39668	-0.126
Mof_H 	H 	0.2615	0.1091	0.4368	0.088
Mof_C 	C 	0.1687	0.1987	0.38755	0.027
Mof_H 	H 	0.1295	0.2165	0.4215	0.04
Mof_C 	C 	0.14595	0.2374	0.3285	-0.072
Mof_H 	H 	0.0926	0.2832	0.323	0.065
Mof_C 	C 	0.19986	0.2098	0.27866	-0.013
Mof_H 	H 	0.1824	0.2347	0.2388	0.043
Mof_C 	C 	0.32083	0.14837	0.17158	-0.013
Mof_C 	C 	0.38279	0.21753	0.14021	-0.014
Mof_H 	H 	0.4363	0.2458	0.1609	0.049
Mof_C 	C 	0.36704	0.24562	0.07874	-0.081
Mof_C 	C 	0.28933	0.20259	0.04814	0.023
Mof_H 	H 	0.2795	0.2191	0.0058	0.049
Mof_C 	C 	0.22647	0.13586	0.07947	-0.078
Mof_C 	C 	0.24115	0.1094	0.14143	-0.015
Mof_H 	H 	0.197	0.065	0.163	0.051
Mof_C 	C 	0.4295	0.32923	0.04737	0.348
Mof_C 	C 	0.14168	0.09241	0.04634	0.343
Mof_N 	N 	0.11309	0.94887	0.85839	-0.191
Mof_Cu	Cu	0.4498	0.01142	0.44769	0.916
Mof_O 	O 	0.00612	0.62921	0.57951	-0.398
Mof_O 	O 	0.09061	0.64588	0.49285	-0.403
Mof_O 	O 	0.43102	0.919	0.57824	-0.398
Mof_O 	O 	0.34907	0.9306	0.49003	-0.395
Mof_C 	C 	0.05677	0.9693	0.81108	0.06
Mof_H 	H 	0.9997	0.0072	0.819	0.019
Mof_C 	C 	0.07664	0.9381	0.74998	-0.115
Mof_H 	H 	0.0336	0.9552	0.718	0.075
Mof_C 	C 	0.15813	0.88306	0.73664	0.045
Mof_C 	C 	0.21863	0.85547	0.78595	-0.045
Mof_C 	C 	0.19367	0.8905	0.8466	0.11
Mof_C 	C 	0.25302	0.8645	0.89668	-0.126
Mof_H 	H 	0.2385	0.8909	0.9368	0.087
Mof_C 	C 	0.3313	0.8013	0.88755	0.027
Mof_H 	H 	0.3705	0.7835	0.9215	0.039
Mof_C 	C 	0.35405	0.7626	0.8285	-0.072
Mof_H 	H 	0.4074	0.7168	0.823	0.065
Mof_C 	C 	0.30014	0.7902	0.77866	-0.014
Mof_H 	H 	0.3176	0.7653	0.7388	0.043
Mof_C 	C 	0.17917	0.85163	0.67158	-0.013
Mof_C 	C 	0.11721	0.78247	0.64021	-0.014
Mof_H 	H 	0.0637	0.7542	0.6609	0.049
Mof_C 	C 	0.13296	0.75438	0.57874	-0.081
Mof_C 	C 	0.21067	0.79741	0.54814	0.024
Mof_H 	H 	0.2205	0.7809	0.5058	0.05
Mof_C 	C 	0.27353	0.86414	0.57947	-0.079
Mof_C 	C 	0.25885	0.8906	0.64143	-0.014
Mof_H 	H 	0.303	0.935	0.663	0.05
Mof_C 	C 	0.0705	0.67077	0.54737	0.349
Mof_C 	C 	0.35832	0.90759	0.54634	0.346
Mof_N 	N 	0.61309	0.55113	0.14161	-0.191
Mof_Cu	Cu	0.9498	0.48858	0.55231	0.916
Mof_O 	O 	0.50612	0.87079	0.42049	-0.398
Mof_O 	O 	0.59061	0.85412	0.50715	-0.403
Mof_O 	O 	0.93102	0.581	0.42176	-0.397
Mof_O 	O 	0.84907	0.5694	0.50997	-0.395
Mof_C 	C 	0.55677	0.5307	0.18892	0.064
Mof_H 	H 	0.4997	0.4928	0.181	0.017
Mof_C 	C 	0.57664	0.5619	0.25002	-0.117
Mof_H 	H 	0.5336	0.5448	0.282	0.076
Mof_C 	C 	0.65813	0.61694	0.26336	0.046
Mof_C 	C 	0.71863	0.64453	0.21405	-0.045
Mof_C 	C 	0.69367	0.6095	0.1534	0.111
Mof_C 	C 	0.75302	0.6355	0.10332	-0.126
Mof_H 	H 	0.7385	0.6091	0.0632	0.087
Mof_C 	C 	0.8313	0.6987	0.11245	0.028
Mof_H 	H 	0.8705	0.7165	0.0785	0.04
Mof_C 	C 	0.85405	0.7374	0.1715	-0.073
Mof_H 	H 	0.9074	0.7832	0.177	0.066
Mof_C 	C 	0.80014	0.7098	0.22134	-0.013
Mof_H 	H 	0.8176	0.7347	0.2612	0.043
Mof_C 	C 	0.67917	0.64837	0.32842	-0.013
Mof_C 	C 	0.61721	0.71753	0.35979	-0.014
Mof_H 	H 	0.5637	0.7458	0.3391	0.049
Mof_C 	C 	0.63296	0.74562	0.42126	-0.081
Mof_C 	C 	0.71067	0.70259	0.45186	0.024
Mof_H 	H 	0.7205	0.7191	0.4942	0.05
Mof_C 	C 	0.77353	0.63586	0.42053	-0.079
Mof_C 	C 	0.75885	0.6094	0.35857	-0.014
Mof_H 	H 	0.803	0.565	0.337	0.05
Mof_C 	C 	0.5705	0.82923	0.45263	0.35
Mof_C 	C 	0.85832	0.59241	0.45366	0.346
Mof_N 	N 	0.88691	0.44887	0.64161	-0.191
Mof_Cu	Cu	0.5502	0.51142	0.05231	0.915
Mof_O 	O 	0.99388	0.12921	0.92049	-0.398
Mof_O 	O 	0.90939	0.14588	0.00715	-0.406
Mof_O 	O 	0.56898	0.419	0.92176	-0.398
Mof_O 	O 	0.65093	0.4306	0.00997	-0.395
Mof_C 	C 	0.94323	0.4693	0.68892	0.064
Mof_H 	H 	0.0003	0.5072	0.681	0.018
Mof_C 	C 	0.92336	0.4381	0.75002	-0.117
Mof_H 	H 	0.9664	0.4552	0.782	0.076
Mof_C 	C 	0.84187	0.38306	0.76336	0.046
Mof_C 	C 	0.78137	0.35547	0.71405	-0.045
Mof_C 	C 	0.80633	0.3905	0.6534	0.11
Mof_C 	C 	0.74698	0.3645	0.60332	-0.127
Mof_H 	H 	0.7615	0.3909	0.5632	0.087
Mof_C 	C 	0.6687	0.3013	0.61245	0.027
Mof_H 	H 	0.6295	0.2835	0.5785	0.039
Mof_C 	C 	0.64595	0.2626	0.6715	-0.073
Mof_H 	H 	0.5926	0.2168	0.677	0.065
Mof_C 	C 	0.69986	0.2902	0.72134	-0.013
Mof_H 	H 	0.6824	0.2653	0.7612	0.043
Mof_C 	C 	0.82083	0.35163	0.82842	-0.014
Mof_C 	C 	0.88279	0.28247	0.85979	-0.013
Mof_H 	H 	0.9363	0.2542	0.8391	0.049
Mof_C 	C 	0.86704	0.25438	0.92126	-0.082
Mof_C 	C 	0.78933	0.29741	0.95186	0.025
Mof_H 	H 	0.7795	0.2809	0.9942	0.05
Mof_C 	C 	0.72647	0.36414	0.92053	-0.079
Mof_C 	C 	0.74115	0.3906	0.85857	-0.014
Mof_H 	H 	0.697	0.435	0.837	0.05
Mof_C 	C 	0.9295	0.17077	0.95263	0.352
Mof_C 	C 	0.64168	0.40759	0.95366	0.347
_end
