data_functionalizedCrystal
_audit_creation_method	'EQeq! by Chris Wilmer'
_symmetry_space_group_name_H-M	'P1'
_symmetry_Int_Tables_number	1
_symmetry_cell_setting	triclinic
loop_
_symmetry_equiv_pos_as_xyz
  x,y,z
_cell_length_a	12.8171
_cell_length_b	17.2131
_cell_length_c	16.9466
_cell_angle_alpha	90
_cell_angle_beta	108.736
_cell_angle_gamma	90
loop_
_atom_site_label
_atom_site_type_symbol
_atom_site_fract_x
_atom_site_fract_y
_atom_site_fract_z
_atom_site_charge
Mof_Re	Re	0.69417	0.37919	0.06298	0.339
Mof_Re	Re	0.79556	0.3813	0.93404	0.332
Mof_Re	Re	0.85601	0.26521	0.06272	0.337
Mof_Re	Re	0.64455	0.26043	0.93686	0.332
Mof_Nd	Nd	0.31727	0.30665	0.14879	1.37
Mof_Te	Te	0.82941	0.23472	0.90449	-0.061
Mof_Te	Te	0.67411	0.23165	0.09568	-0.085
Mof_Te	Te	0.58297	0.40699	0.90551	-0.108
Mof_Te	Te	0.90349	0.41427	0.09068	-0.082
Mof_N 	N 	0.458	0.376	0.0931	-0.224
Mof_N 	N 	0.7609	0.4009	0.2636	-0.093
Mof_N 	N 	0.6738	0.5642	0.0915	-0.112
Mof_N 	N 	0.7905	0.5666	0.8965	-0.228
Mof_N 	N 	0.722	0.3992	0.7328	-0.102
Mof_N 	N 	0.0367	0.4006	0.9125	-0.104
Mof_N 	N 	0.1176	0.2583	0.0886	-0.237
Mof_N 	N 	0.8914	0.079	0.0821	-0.092
Mof_N 	N 	0.9688	0.2568	0.2631	-0.1
Mof_N 	N 	0.6257	0.072	0.9182	-0.105
Mof_N 	N 	0.517	0.2387	0.7393	-0.219
Mof_N 	N 	0.3884	0.2293	0.9165	-0.14
Mof_C 	C 	0.5391	0.3799	0.0789	-0.037
Mof_C 	C 	0.7387	0.3905	0.1917	-0.057
Mof_C 	C 	0.6787	0.4997	0.0782	-0.052
Mof_C 	C 	0.7942	0.5028	0.9151	-0.034
Mof_C 	C 	0.7468	0.3894	0.8032	-0.057
Mof_C 	C 	0.9525	0.3922	0.9203	-0.052
Mof_C 	C 	0.0241	0.2599	0.0752	-0.038
Mof_C 	C 	0.8794	0.1451	0.0753	-0.049
Mof_C 	C 	0.9265	0.2597	0.1926	-0.055
Mof_C 	C 	0.6359	0.1365	0.9267	-0.049
Mof_C 	C 	0.5708	0.2487	0.808	-0.055
Mof_C 	C 	0.4781	0.2437	0.9263	-0.079
Mof_Re	Re	0.30583	0.87919	0.43702	0.338
Mof_Re	Re	0.20444	0.8813	0.56596	0.331
Mof_Re	Re	0.14399	0.76521	0.43728	0.335
Mof_Re	Re	0.35545	0.76043	0.56314	0.331
Mof_Nd	Nd	0.68273	0.80665	0.35121	1.37
Mof_Te	Te	0.17059	0.73472	0.59551	-0.061
Mof_Te	Te	0.32589	0.73165	0.40432	-0.084
Mof_Te	Te	0.41703	0.90699	0.59449	-0.108
Mof_Te	Te	0.09651	0.91427	0.40932	-0.083
Mof_N 	N 	0.542	0.876	0.4069	-0.224
Mof_N 	N 	0.2391	0.9009	0.2364	-0.093
Mof_N 	N 	0.3262	0.0642	0.4085	-0.113
Mof_N 	N 	0.2095	0.0666	0.6035	-0.228
Mof_N 	N 	0.278	0.8992	0.7672	-0.102
Mof_N 	N 	0.9633	0.9006	0.5875	-0.105
Mof_N 	N 	0.8824	0.7583	0.4114	-0.237
Mof_N 	N 	0.1086	0.579	0.4179	-0.092
Mof_N 	N 	0.0312	0.7568	0.2369	-0.1
Mof_N 	N 	0.3743	0.572	0.5818	-0.105
Mof_N 	N 	0.483	0.7387	0.7607	-0.219
Mof_N 	N 	0.6116	0.7293	0.5835	-0.14
Mof_C 	C 	0.4609	0.8799	0.4211	-0.037
Mof_C 	C 	0.2613	0.8905	0.3083	-0.057
Mof_C 	C 	0.3213	0.9997	0.4218	-0.052
Mof_C 	C 	0.2058	0.0028	0.5849	-0.034
Mof_C 	C 	0.2532	0.8894	0.6968	-0.057
Mof_C 	C 	0.0475	0.8922	0.5797	-0.051
Mof_C 	C 	0.9759	0.7599	0.4248	-0.038
Mof_C 	C 	0.1206	0.6451	0.4247	-0.049
Mof_C 	C 	0.0735	0.7597	0.3074	-0.055
Mof_C 	C 	0.3641	0.6365	0.5733	-0.049
Mof_C 	C 	0.4292	0.7487	0.692	-0.055
Mof_C 	C 	0.5219	0.7437	0.5737	-0.079
Mof_Re	Re	0.30583	0.62081	0.93702	0.338
Mof_Re	Re	0.20444	0.6187	0.06596	0.331
Mof_Re	Re	0.14399	0.73479	0.93728	0.336
Mof_Re	Re	0.35545	0.73957	0.06314	0.331
Mof_Nd	Nd	0.68273	0.69335	0.85121	1.37
Mof_Te	Te	0.17059	0.76528	0.09551	-0.061
Mof_Te	Te	0.32589	0.76835	0.90432	-0.085
Mof_Te	Te	0.41703	0.59301	0.09449	-0.108
Mof_Te	Te	0.09651	0.58573	0.90932	-0.082
Mof_N 	N 	0.542	0.624	0.9069	-0.224
Mof_N 	N 	0.2391	0.5991	0.7364	-0.093
Mof_N 	N 	0.3262	0.4358	0.9085	-0.112
Mof_N 	N 	0.2095	0.4334	0.1035	-0.228
Mof_N 	N 	0.278	0.6008	0.2672	-0.102
Mof_N 	N 	0.9633	0.5994	0.0875	-0.104
Mof_N 	N 	0.8824	0.7417	0.9114	-0.237
Mof_N 	N 	0.1086	0.921	0.9179	-0.092
Mof_N 	N 	0.0312	0.7432	0.7369	-0.1
Mof_N 	N 	0.3743	0.928	0.0818	-0.105
Mof_N 	N 	0.483	0.7613	0.2607	-0.219
Mof_N 	N 	0.6116	0.7707	0.0835	-0.14
Mof_C 	C 	0.4609	0.6201	0.9211	-0.037
Mof_C 	C 	0.2613	0.6095	0.8083	-0.057
Mof_C 	C 	0.3213	0.5003	0.9218	-0.052
Mof_C 	C 	0.2058	0.4972	0.0849	-0.034
Mof_C 	C 	0.2532	0.6106	0.1968	-0.057
Mof_C 	C 	0.0475	0.6078	0.0797	-0.052
Mof_C 	C 	0.9759	0.7401	0.9248	-0.038
Mof_C 	C 	0.1206	0.8549	0.9247	-0.049
Mof_C 	C 	0.0735	0.7403	0.8074	-0.055
Mof_C 	C 	0.3641	0.8635	0.0733	-0.049
Mof_C 	C 	0.4292	0.7513	0.192	-0.055
Mof_C 	C 	0.5219	0.7563	0.0737	-0.079
Mof_Re	Re	0.69417	0.12081	0.56298	0.338
Mof_Re	Re	0.79556	0.1187	0.43404	0.331
Mof_Re	Re	0.85601	0.23479	0.56272	0.335
Mof_Re	Re	0.64455	0.23957	0.43686	0.331
Mof_Nd	Nd	0.31727	0.19335	0.64879	1.37
Mof_Te	Te	0.82941	0.26528	0.40449	-0.061
Mof_Te	Te	0.67411	0.26835	0.59568	-0.084
Mof_Te	Te	0.58297	0.09301	0.40551	-0.108
Mof_Te	Te	0.90349	0.08573	0.59068	-0.083
Mof_N 	N 	0.458	0.124	0.5931	-0.224
Mof_N 	N 	0.7609	0.0991	0.7636	-0.093
Mof_N 	N 	0.6738	0.9358	0.5915	-0.113
Mof_N 	N 	0.7905	0.9334	0.3965	-0.228
Mof_N 	N 	0.722	0.1008	0.2328	-0.102
Mof_N 	N 	0.0367	0.0994	0.4125	-0.105
Mof_N 	N 	0.1176	0.2417	0.5886	-0.237
Mof_N 	N 	0.8914	0.421	0.5821	-0.092
Mof_N 	N 	0.9688	0.2432	0.7631	-0.1
Mof_N 	N 	0.6257	0.428	0.4182	-0.105
Mof_N 	N 	0.517	0.2613	0.2393	-0.219
Mof_N 	N 	0.3884	0.2707	0.4165	-0.14
Mof_C 	C 	0.5391	0.1201	0.5789	-0.037
Mof_C 	C 	0.7387	0.1095	0.6917	-0.057
Mof_C 	C 	0.6787	0.0003	0.5782	-0.052
Mof_C 	C 	0.7942	0.9972	0.4151	-0.034
Mof_C 	C 	0.7468	0.1106	0.3032	-0.057
Mof_C 	C 	0.9525	0.1078	0.4203	-0.051
Mof_C 	C 	0.0241	0.2401	0.5752	-0.038
Mof_C 	C 	0.8794	0.3549	0.5753	-0.049
Mof_C 	C 	0.9265	0.2403	0.6926	-0.055
Mof_C 	C 	0.6359	0.3635	0.4267	-0.049
Mof_C 	C 	0.5708	0.2513	0.308	-0.055
Mof_C 	C 	0.4781	0.2563	0.4263	-0.079
_end
