data_functionalizedCrystal
_audit_creation_method	'EQeq! by Chris Wilmer'
_symmetry_space_group_name_H-M	'P1'
_symmetry_Int_Tables_number	1
_symmetry_cell_setting	triclinic
loop_
_symmetry_equiv_pos_as_xyz
  x,y,z
_cell_length_a	13.7287
_cell_length_b	27.8
_cell_length_c	45.481
_cell_angle_alpha	90
_cell_angle_beta	90
_cell_angle_gamma	90
loop_
_atom_site_label
_atom_site_type_symbol
_atom_site_fract_x
_atom_site_fract_y
_atom_site_fract_z
_atom_site_charge
Mof_Zn	Zn	0.85673	0.74391	0.81282	1.165
Mof_Zn	Zn	0.64231	0.527	0.91574	1.163
Mof_Zn	Zn	0.66441	0.05664	0.92612	1.164
Mof_Zn	Zn	0.14327	0.75609	0.31282	1.166
Mof_Zn	Zn	0.35769	0.973	0.41574	1.164
Mof_Zn	Zn	0.33559	0.44336	0.42612	1.164
Mof_Zn	Zn	0.35673	0.25609	0.68718	1.166
Mof_Zn	Zn	0.14231	0.473	0.58426	1.164
Mof_Zn	Zn	0.16441	0.94336	0.57388	1.163
Mof_Zn	Zn	0.64327	0.24391	0.18718	1.166
Mof_Zn	Zn	0.85769	0.027	0.08426	1.164
Mof_Zn	Zn	0.83559	0.55664	0.07388	1.164
Mof_H 	H 	0.065	0.7131	0.8265	-0.014
Mof_H 	H 	0.1496	0.6741	0.8643	0.085
Mof_H 	H 	0.816	0.6906	0.8663	-0.012
Mof_H 	H 	0.8949	0.6547	0.9058	0.085
Mof_H 	H 	0.8036	0.5985	0.0134	-0.011
Mof_H 	H 	0.8883	0.6156	0.9709	0.08
Mof_H 	H 	0.0357	0.5414	0.0491	-0.015
Mof_H 	H 	0.1285	0.5595	0.0083	0.094
Mof_H 	H 	0.4927	0.5346	0.9645	-0.003
Mof_H 	H 	0.3336	0.562	0.9713	0.086
Mof_H 	H 	0.4915	0.5826	0.883	-0.006
Mof_H 	H 	0.3369	0.6139	0.8889	0.095
Mof_H 	H 	0.5895	0.4893	0.8558	-0.011
Mof_H 	H 	0.5751	0.4171	0.8298	0.08
Mof_H 	H 	0.622	0.4238	0.9308	-0.009
Mof_H 	H 	0.5975	0.3494	0.908	0.08
Mof_H 	H 	0.6578	0.163	0.9359	-0.019
Mof_H 	H 	0.6292	0.2343	0.9107	0.082
Mof_H 	H 	0.5828	0.0872	0.8667	-0.007
Mof_H 	H 	0.5519	0.1554	0.8402	0.08
Mof_H 	H 	0.4708	0.1974	0.7305	-0.002
Mof_H 	H 	0.5299	0.2063	0.7793	0.084
Mof_H 	H 	0.4171	0.3352	0.7257	-0.016
Mof_H 	H 	0.4842	0.3472	0.7725	0.083
Mof_H 	H 	0.935	0.7869	0.3265	-0.014
Mof_H 	H 	0.8504	0.8259	0.3643	0.086
Mof_H 	H 	0.184	0.8094	0.3663	-0.012
Mof_H 	H 	0.1051	0.8453	0.4058	0.085
Mof_H 	H 	0.1964	0.9015	0.5134	-0.011
Mof_H 	H 	0.1117	0.8844	0.4709	0.081
Mof_H 	H 	0.9643	0.9586	0.5491	-0.015
Mof_H 	H 	0.8715	0.9405	0.5083	0.094
Mof_H 	H 	0.5073	0.9654	0.4645	-0.003
Mof_H 	H 	0.6664	0.938	0.4713	0.086
Mof_H 	H 	0.5085	0.9174	0.383	-0.006
Mof_H 	H 	0.6631	0.8861	0.3889	0.095
Mof_H 	H 	0.4105	0.0107	0.3558	-0.011
Mof_H 	H 	0.4249	0.0829	0.3298	0.08
Mof_H 	H 	0.378	0.0762	0.4308	-0.009
Mof_H 	H 	0.4025	0.1506	0.408	0.081
Mof_H 	H 	0.3422	0.337	0.4359	-0.019
Mof_H 	H 	0.3708	0.2657	0.4107	0.082
Mof_H 	H 	0.4172	0.4128	0.3667	-0.007
Mof_H 	H 	0.4481	0.3446	0.3402	0.08
Mof_H 	H 	0.5292	0.3026	0.2305	-0.002
Mof_H 	H 	0.4701	0.2937	0.2793	0.084
Mof_H 	H 	0.5829	0.1648	0.2257	-0.016
Mof_H 	H 	0.5158	0.1528	0.2725	0.083
Mof_H 	H 	0.565	0.2869	0.6735	-0.014
Mof_H 	H 	0.6496	0.3259	0.6357	0.085
Mof_H 	H 	0.316	0.3094	0.6337	-0.012
Mof_H 	H 	0.3949	0.3453	0.5942	0.085
Mof_H 	H 	0.3036	0.4015	0.4866	-0.011
Mof_H 	H 	0.3883	0.3844	0.5291	0.08
Mof_H 	H 	0.5357	0.4586	0.4509	-0.015
Mof_H 	H 	0.6285	0.4405	0.4917	0.094
Mof_H 	H 	0.9927	0.4654	0.5355	-0.002
Mof_H 	H 	0.8336	0.438	0.5287	0.086
Mof_H 	H 	0.9915	0.4174	0.617	-0.006
Mof_H 	H 	0.8369	0.3861	0.6111	0.095
Mof_H 	H 	0.0895	0.5107	0.6442	-0.011
Mof_H 	H 	0.0751	0.5829	0.6702	0.08
Mof_H 	H 	0.122	0.5762	0.5692	-0.009
Mof_H 	H 	0.0975	0.6506	0.592	0.08
Mof_H 	H 	0.1578	0.837	0.5641	-0.019
Mof_H 	H 	0.1292	0.7657	0.5893	0.082
Mof_H 	H 	0.0828	0.9128	0.6333	-0.007
Mof_H 	H 	0.0519	0.8446	0.6598	0.08
Mof_H 	H 	0.9708	0.8026	0.7695	-0.002
Mof_H 	H 	0.0299	0.7937	0.7207	0.084
Mof_H 	H 	0.9171	0.6648	0.7743	-0.016
Mof_H 	H 	0.9842	0.6528	0.7275	0.083
Mof_H 	H 	0.435	0.2131	0.1735	-0.014
Mof_H 	H 	0.3504	0.1741	0.1357	0.085
Mof_H 	H 	0.684	0.1906	0.1337	-0.012
Mof_H 	H 	0.6051	0.1547	0.0942	0.085
Mof_H 	H 	0.6964	0.0985	0.9866	-0.011
Mof_H 	H 	0.6117	0.1156	0.0291	0.08
Mof_H 	H 	0.4643	0.0414	0.9509	-0.015
Mof_H 	H 	0.3715	0.0595	0.9917	0.094
Mof_H 	H 	0.0073	0.0346	0.0355	-0.003
Mof_H 	H 	0.1664	0.062	0.0287	0.086
Mof_H 	H 	0.0085	0.0826	0.117	-0.007
Mof_H 	H 	0.1631	0.1139	0.1111	0.095
Mof_H 	H 	0.9105	0.9893	0.1442	-0.011
Mof_H 	H 	0.9249	0.9171	0.1702	0.081
Mof_H 	H 	0.878	0.9238	0.0692	-0.009
Mof_H 	H 	0.9025	0.8494	0.092	0.081
Mof_H 	H 	0.8422	0.663	0.0641	-0.019
Mof_H 	H 	0.8708	0.7343	0.0893	0.082
Mof_H 	H 	0.9172	0.5872	0.1333	-0.007
Mof_H 	H 	0.9481	0.6554	0.1598	0.08
Mof_H 	H 	0.0292	0.6974	0.2695	-0.002
Mof_H 	H 	0.9701	0.7063	0.2207	0.084
Mof_H 	H 	0.0829	0.8352	0.2743	-0.016
Mof_H 	H 	0.0158	0.8472	0.2275	0.083
Mof_C 	C 	0.0296	0.7008	0.8429	0.078
Mof_C 	C 	0.0811	0.6782	0.8655	-0.127
Mof_C 	C 	0.885	0.6883	0.8661	0.074
Mof_C 	C 	0.9315	0.6666	0.8896	-0.117
Mof_C 	C 	0.0308	0.6624	0.8894	0.066
Mof_C 	C 	0.0824	0.6398	0.9144	0.106
Mof_C 	C 	0.8705	0.59	0.0123	0.079
Mof_C 	C 	0.9208	0.6016	0.9873	-0.126
Mof_C 	C 	0.0055	0.5573	0.033	0.079
Mof_C 	C 	0.0618	0.5684	0.0091	-0.135
Mof_C 	C 	0.0194	0.5928	0.9863	0.062
Mof_C 	C 	0.0751	0.6062	0.96	0.094
Mof_C 	C 	0.4601	0.5503	0.9488	0.068
Mof_C 	C 	0.3655	0.5673	0.953	-0.124
Mof_C 	C 	0.4595	0.5788	0.9014	0.069
Mof_C 	C 	0.3672	0.5973	0.9047	-0.123
Mof_C 	C 	0.3186	0.5916	0.931	0.051
Mof_C 	C 	0.2157	0.6067	0.9346	0.104
Mof_C 	C 	0.5952	0.4599	0.8663	0.073
Mof_C 	C 	0.5838	0.417	0.8505	-0.117
Mof_C 	C 	0.6127	0.4225	0.9101	0.072
Mof_C 	C 	0.5985	0.3778	0.8964	-0.112
Mof_C 	C 	0.5859	0.3744	0.8663	0.051
Mof_C 	C 	0.5739	0.3275	0.8519	0.104
Mof_C 	C 	0.6364	0.1614	0.9161	0.078
Mof_C 	C 	0.62	0.2043	0.9012	-0.124
Mof_C 	C 	0.5926	0.1176	0.8758	0.061
Mof_C 	C 	0.5748	0.1579	0.8599	-0.118
Mof_C 	C 	0.5901	0.2024	0.8724	0.055
Mof_C 	C 	0.5757	0.2465	0.8553	0.103
Mof_C 	C 	0.4714	0.2283	0.7394	0.07
Mof_C 	C 	0.5077	0.2335	0.7686	-0.12
Mof_C 	C 	0.4415	0.3085	0.7365	0.074
Mof_C 	C 	0.4796	0.3156	0.7647	-0.125
Mof_C 	C 	0.5101	0.2774	0.7808	0.062
Mof_C 	C 	0.5411	0.2826	0.8122	0.1
Mof_C 	C 	0.9704	0.7992	0.3429	0.079
Mof_C 	C 	0.9189	0.8218	0.3655	-0.128
Mof_C 	C 	0.115	0.8117	0.3661	0.074
Mof_C 	C 	0.0685	0.8334	0.3896	-0.119
Mof_C 	C 	0.9692	0.8376	0.3894	0.067
Mof_C 	C 	0.9176	0.8602	0.4144	0.106
Mof_C 	C 	0.1295	0.91	0.5123	0.08
Mof_C 	C 	0.0792	0.8984	0.4873	-0.128
Mof_C 	C 	0.9945	0.9427	0.533	0.08
Mof_C 	C 	0.9382	0.9316	0.5091	-0.136
Mof_C 	C 	0.9806	0.9072	0.4863	0.063
Mof_C 	C 	0.9249	0.8938	0.46	0.094
Mof_C 	C 	0.5399	0.9497	0.4488	0.068
Mof_C 	C 	0.6345	0.9327	0.453	-0.124
Mof_C 	C 	0.5405	0.9212	0.4014	0.069
Mof_C 	C 	0.6328	0.9027	0.4047	-0.123
Mof_C 	C 	0.6814	0.9084	0.431	0.051
Mof_C 	C 	0.7843	0.8933	0.4346	0.104
Mof_C 	C 	0.4048	0.0401	0.3663	0.073
Mof_C 	C 	0.4162	0.083	0.3505	-0.117
Mof_C 	C 	0.3873	0.0775	0.4101	0.072
Mof_C 	C 	0.4015	0.1222	0.3964	-0.112
Mof_C 	C 	0.4141	0.1256	0.3663	0.051
Mof_C 	C 	0.4261	0.1725	0.3519	0.104
Mof_C 	C 	0.3636	0.3386	0.4161	0.078
Mof_C 	C 	0.38	0.2957	0.4012	-0.124
Mof_C 	C 	0.4074	0.3824	0.3758	0.061
Mof_C 	C 	0.4252	0.3421	0.3599	-0.117
Mof_C 	C 	0.4099	0.2976	0.3724	0.055
Mof_C 	C 	0.4243	0.2535	0.3553	0.103
Mof_C 	C 	0.5286	0.2717	0.2394	0.07
Mof_C 	C 	0.4923	0.2665	0.2686	-0.12
Mof_C 	C 	0.5585	0.1915	0.2365	0.074
Mof_C 	C 	0.5204	0.1844	0.2647	-0.125
Mof_C 	C 	0.4899	0.2226	0.2808	0.062
Mof_C 	C 	0.4589	0.2174	0.3122	0.1
Mof_C 	C 	0.5296	0.2992	0.6571	0.078
Mof_C 	C 	0.5811	0.3218	0.6345	-0.127
Mof_C 	C 	0.385	0.3117	0.6339	0.074
Mof_C 	C 	0.4315	0.3334	0.6104	-0.117
Mof_C 	C 	0.5308	0.3376	0.6106	0.066
Mof_C 	C 	0.5824	0.3602	0.5856	0.106
Mof_C 	C 	0.3705	0.41	0.4877	0.079
Mof_C 	C 	0.4208	0.3984	0.5127	-0.126
Mof_C 	C 	0.5055	0.4427	0.467	0.079
Mof_C 	C 	0.5618	0.4316	0.4909	-0.135
Mof_C 	C 	0.5194	0.4072	0.5137	0.062
Mof_C 	C 	0.5751	0.3938	0.54	0.094
Mof_C 	C 	0.9601	0.4497	0.5512	0.067
Mof_C 	C 	0.8655	0.4327	0.547	-0.123
Mof_C 	C 	0.9595	0.4212	0.5986	0.069
Mof_C 	C 	0.8672	0.4027	0.5953	-0.123
Mof_C 	C 	0.8186	0.4084	0.569	0.051
Mof_C 	C 	0.7157	0.3933	0.5654	0.104
Mof_C 	C 	0.0952	0.5401	0.6337	0.073
Mof_C 	C 	0.0838	0.583	0.6495	-0.117
Mof_C 	C 	0.1127	0.5775	0.5899	0.072
Mof_C 	C 	0.0985	0.6222	0.6036	-0.112
Mof_C 	C 	0.0859	0.6256	0.6337	0.051
Mof_C 	C 	0.0739	0.6725	0.6481	0.104
Mof_C 	C 	0.1364	0.8386	0.5839	0.078
Mof_C 	C 	0.12	0.7957	0.5988	-0.124
Mof_C 	C 	0.0926	0.8824	0.6242	0.061
Mof_C 	C 	0.0748	0.8421	0.6401	-0.118
Mof_C 	C 	0.0901	0.7976	0.6276	0.055
Mof_C 	C 	0.0757	0.7535	0.6447	0.103
Mof_C 	C 	0.9714	0.7717	0.7606	0.07
Mof_C 	C 	0.0077	0.7665	0.7314	-0.12
Mof_C 	C 	0.9415	0.6915	0.7635	0.074
Mof_C 	C 	0.9796	0.6844	0.7353	-0.126
Mof_C 	C 	0.0101	0.7226	0.7192	0.062
Mof_C 	C 	0.0411	0.7174	0.6878	0.1
Mof_C 	C 	0.4704	0.2008	0.1571	0.078
Mof_C 	C 	0.4189	0.1782	0.1345	-0.127
Mof_C 	C 	0.615	0.1883	0.1339	0.074
Mof_C 	C 	0.5685	0.1666	0.1104	-0.117
Mof_C 	C 	0.4692	0.1624	0.1106	0.066
Mof_C 	C 	0.4176	0.1398	0.0856	0.106
Mof_C 	C 	0.6295	0.09	0.9877	0.079
Mof_C 	C 	0.5792	0.1016	0.0127	-0.126
Mof_C 	C 	0.4945	0.0573	0.967	0.079
Mof_C 	C 	0.4382	0.0684	0.9909	-0.135
Mof_C 	C 	0.4806	0.0928	0.0137	0.062
Mof_C 	C 	0.4249	0.1062	0.04	0.094
Mof_C 	C 	0.0399	0.0503	0.0512	0.068
Mof_C 	C 	0.1345	0.0673	0.047	-0.124
Mof_C 	C 	0.0405	0.0788	0.0986	0.07
Mof_C 	C 	0.1328	0.0973	0.0953	-0.124
Mof_C 	C 	0.1814	0.0916	0.069	0.051
Mof_C 	C 	0.2843	0.1067	0.0654	0.104
Mof_C 	C 	0.9048	0.9599	0.1337	0.073
Mof_C 	C 	0.9162	0.917	0.1495	-0.117
Mof_C 	C 	0.8873	0.9225	0.0899	0.073
Mof_C 	C 	0.9015	0.8778	0.1036	-0.112
Mof_C 	C 	0.9141	0.8744	0.1337	0.051
Mof_C 	C 	0.9261	0.8275	0.1481	0.105
Mof_C 	C 	0.8636	0.6614	0.0839	0.078
Mof_C 	C 	0.88	0.7043	0.0988	-0.124
Mof_C 	C 	0.9074	0.6176	0.1242	0.061
Mof_C 	C 	0.9252	0.6579	0.1401	-0.117
Mof_C 	C 	0.9099	0.7024	0.1276	0.055
Mof_C 	C 	0.9243	0.7465	0.1447	0.103
Mof_C 	C 	0.0286	0.7283	0.2606	0.069
Mof_C 	C 	0.9923	0.7335	0.2314	-0.12
Mof_C 	C 	0.0585	0.8085	0.2635	0.074
Mof_C 	C 	0.0204	0.8156	0.2353	-0.126
Mof_C 	C 	0.9899	0.7774	0.2192	0.063
Mof_C 	C 	0.9589	0.7826	0.1878	0.1
Mof_I 	I 	0.69599	0.70065	0.80357	-0.373
Mof_I 	I 	0.85385	0.83149	0.82768	-0.378
Mof_I 	I 	0.72597	0.57926	0.87788	-0.371
Mof_I 	I 	0.71542	0.50721	0.96577	-0.394
Mof_I 	I 	0.84517	0.06894	0.93552	-0.384
Mof_I 	I 	0.58365	0.98882	0.89813	-0.366
Mof_I 	I 	0.30401	0.79935	0.30357	-0.373
Mof_I 	I 	0.14615	0.66851	0.32768	-0.378
Mof_I 	I 	0.27403	0.92074	0.37788	-0.371
Mof_I 	I 	0.28458	0.99279	0.46577	-0.394
Mof_I 	I 	0.15483	0.43106	0.43552	-0.384
Mof_I 	I 	0.41635	0.51118	0.39813	-0.366
Mof_I 	I 	0.19599	0.29935	0.69643	-0.373
Mof_I 	I 	0.35385	0.16851	0.67232	-0.378
Mof_I 	I 	0.22597	0.42074	0.62212	-0.371
Mof_I 	I 	0.21542	0.49279	0.53423	-0.394
Mof_I 	I 	0.34517	0.93106	0.56448	-0.384
Mof_I 	I 	0.08365	0.01118	0.60187	-0.366
Mof_I 	I 	0.80401	0.20065	0.19643	-0.373
Mof_I 	I 	0.64615	0.33149	0.17232	-0.378
Mof_I 	I 	0.77403	0.07926	0.12212	-0.371
Mof_I 	I 	0.78458	0.00721	0.03423	-0.394
Mof_I 	I 	0.65483	0.56894	0.06448	-0.383
Mof_I 	I 	0.91635	0.48882	0.10187	-0.366
Mof_N 	N 	0.9329	0.7059	0.8432	-0.28
Mof_N 	N 	0.9103	0.5675	0.035	-0.276
Mof_N 	N 	0.5058	0.5558	0.923	-0.273
Mof_N 	N 	0.0286	0.6284	0.93763	-0.136
Mof_N 	N 	0.1705	0.5948	0.95886	-0.143
Mof_N 	N 	0.1776	0.6298	0.9119	-0.135
Mof_N 	N 	0.6133	0.4622	0.8948	-0.273
Mof_N 	N 	0.6237	0.1187	0.90413	-0.273
Mof_N 	N 	0.4389	0.2655	0.72478	-0.274
Mof_N 	N 	0.5867	0.2887	0.8685	-0.141
Mof_N 	N 	0.5532	0.2414	0.82687	-0.14
Mof_N 	N 	0.5511	0.3265	0.82338	-0.14
Mof_N 	N 	0.0671	0.7941	0.3432	-0.28
Mof_N 	N 	0.0897	0.9325	0.535	-0.277
Mof_N 	N 	0.4942	0.9442	0.423	-0.273
Mof_N 	N 	0.9714	0.8716	0.43763	-0.136
Mof_N 	N 	0.8295	0.9052	0.45886	-0.143
Mof_N 	N 	0.8224	0.8702	0.4119	-0.135
Mof_N 	N 	0.3867	0.0378	0.3948	-0.273
Mof_N 	N 	0.3763	0.3813	0.40413	-0.273
Mof_N 	N 	0.5611	0.2345	0.22478	-0.274
Mof_N 	N 	0.4133	0.2113	0.3685	-0.141
Mof_N 	N 	0.4468	0.2586	0.32687	-0.14
Mof_N 	N 	0.4489	0.1735	0.32338	-0.14
Mof_N 	N 	0.4329	0.2941	0.6568	-0.279
Mof_N 	N 	0.4103	0.4325	0.465	-0.276
Mof_N 	N 	0.0058	0.4442	0.577	-0.272
Mof_N 	N 	0.5286	0.3716	0.56237	-0.136
Mof_N 	N 	0.6705	0.4052	0.54114	-0.143
Mof_N 	N 	0.6776	0.3702	0.5881	-0.135
Mof_N 	N 	0.1133	0.5378	0.6052	-0.273
Mof_N 	N 	0.1237	0.8813	0.59587	-0.273
Mof_N 	N 	0.9389	0.7345	0.77522	-0.274
Mof_N 	N 	0.0867	0.7113	0.6315	-0.141
Mof_N 	N 	0.0532	0.7586	0.67313	-0.14
Mof_N 	N 	0.0511	0.6735	0.67662	-0.14
Mof_N 	N 	0.5671	0.2059	0.1568	-0.279
Mof_N 	N 	0.5897	0.0675	0.965	-0.276
Mof_N 	N 	0.9942	0.0558	0.077	-0.273
Mof_N 	N 	0.4714	0.1284	0.06237	-0.136
Mof_N 	N 	0.3295	0.0948	0.04114	-0.143
Mof_N 	N 	0.3224	0.1298	0.0881	-0.135
Mof_N 	N 	0.8867	0.9622	0.1052	-0.272
Mof_N 	N 	0.8763	0.6187	0.09587	-0.273
Mof_N 	N 	0.0611	0.7655	0.27522	-0.274
Mof_N 	N 	0.9133	0.7887	0.1315	-0.141
Mof_N 	N 	0.9468	0.7414	0.17313	-0.14
Mof_N 	N 	0.9489	0.8265	0.17662	-0.14
Mof_Zn	Zn	0.14327	0.25609	0.18718	1.166
Mof_Zn	Zn	0.35769	0.473	0.08426	1.164
Mof_Zn	Zn	0.33559	0.94336	0.07388	1.164
Mof_Zn	Zn	0.85673	0.24391	0.68718	1.166
Mof_Zn	Zn	0.64231	0.027	0.58426	1.164
Mof_Zn	Zn	0.66441	0.55664	0.57388	1.164
Mof_Zn	Zn	0.64327	0.74391	0.31282	1.166
Mof_Zn	Zn	0.85769	0.527	0.41574	1.164
Mof_Zn	Zn	0.83559	0.05664	0.42612	1.163
Mof_Zn	Zn	0.35673	0.75609	0.81282	1.166
Mof_Zn	Zn	0.14231	0.973	0.91574	1.164
Mof_Zn	Zn	0.16441	0.44336	0.92612	1.164
Mof_H 	H 	0.935	0.2869	0.1735	-0.014
Mof_H 	H 	0.8504	0.3259	0.1357	0.085
Mof_H 	H 	0.184	0.3094	0.1337	-0.012
Mof_H 	H 	0.1051	0.3453	0.0942	0.085
Mof_H 	H 	0.1964	0.4015	0.9866	-0.011
Mof_H 	H 	0.1117	0.3844	0.0291	0.08
Mof_H 	H 	0.9643	0.4586	0.9509	-0.015
Mof_H 	H 	0.8715	0.4405	0.9917	0.094
Mof_H 	H 	0.5073	0.4654	0.0355	-0.003
Mof_H 	H 	0.6664	0.438	0.0287	0.086
Mof_H 	H 	0.5085	0.4174	0.117	-0.006
Mof_H 	H 	0.6631	0.3861	0.1111	0.095
Mof_H 	H 	0.4105	0.5107	0.1442	-0.011
Mof_H 	H 	0.4249	0.5829	0.1702	0.08
Mof_H 	H 	0.378	0.5762	0.0692	-0.009
Mof_H 	H 	0.4025	0.6506	0.092	0.08
Mof_H 	H 	0.3422	0.837	0.0641	-0.019
Mof_H 	H 	0.3708	0.7657	0.0893	0.082
Mof_H 	H 	0.4172	0.9128	0.1333	-0.007
Mof_H 	H 	0.4481	0.8446	0.1598	0.08
Mof_H 	H 	0.5292	0.8026	0.2695	-0.002
Mof_H 	H 	0.4701	0.7937	0.2207	0.084
Mof_H 	H 	0.5829	0.6648	0.2743	-0.016
Mof_H 	H 	0.5158	0.6528	0.2275	0.083
Mof_H 	H 	0.065	0.2131	0.6735	-0.014
Mof_H 	H 	0.1496	0.1741	0.6357	0.086
Mof_H 	H 	0.816	0.1906	0.6337	-0.012
Mof_H 	H 	0.8949	0.1547	0.5942	0.085
Mof_H 	H 	0.8036	0.0985	0.4866	-0.011
Mof_H 	H 	0.8883	0.1156	0.5291	0.081
Mof_H 	H 	0.0357	0.0414	0.4509	-0.015
Mof_H 	H 	0.1285	0.0595	0.4917	0.094
Mof_H 	H 	0.4927	0.0346	0.5355	-0.003
Mof_H 	H 	0.3336	0.062	0.5287	0.086
Mof_H 	H 	0.4915	0.0826	0.617	-0.006
Mof_H 	H 	0.3369	0.1139	0.6111	0.095
Mof_H 	H 	0.5895	0.9893	0.6442	-0.011
Mof_H 	H 	0.5751	0.9171	0.6702	0.08
Mof_H 	H 	0.622	0.9238	0.5692	-0.009
Mof_H 	H 	0.5975	0.8494	0.592	0.081
Mof_H 	H 	0.6578	0.663	0.5641	-0.019
Mof_H 	H 	0.6292	0.7343	0.5893	0.082
Mof_H 	H 	0.5828	0.5872	0.6333	-0.007
Mof_H 	H 	0.5519	0.6554	0.6598	0.08
Mof_H 	H 	0.4708	0.6974	0.7695	-0.002
Mof_H 	H 	0.5299	0.7063	0.7207	0.084
Mof_H 	H 	0.4171	0.8352	0.7743	-0.016
Mof_H 	H 	0.4842	0.8472	0.7275	0.083
Mof_H 	H 	0.435	0.7131	0.3265	-0.014
Mof_H 	H 	0.3504	0.6741	0.3643	0.085
Mof_H 	H 	0.684	0.6906	0.3663	-0.012
Mof_H 	H 	0.6051	0.6547	0.4058	0.085
Mof_H 	H 	0.6964	0.5985	0.5134	-0.011
Mof_H 	H 	0.6117	0.6156	0.4709	0.08
Mof_H 	H 	0.4643	0.5414	0.5491	-0.015
Mof_H 	H 	0.3715	0.5595	0.5083	0.094
Mof_H 	H 	0.0073	0.5346	0.4645	-0.002
Mof_H 	H 	0.1664	0.562	0.4713	0.086
Mof_H 	H 	0.0085	0.5826	0.383	-0.006
Mof_H 	H 	0.1631	0.6139	0.3889	0.095
Mof_H 	H 	0.9105	0.4893	0.3558	-0.011
Mof_H 	H 	0.9249	0.4171	0.3298	0.08
Mof_H 	H 	0.878	0.4238	0.4308	-0.009
Mof_H 	H 	0.9025	0.3494	0.408	0.08
Mof_H 	H 	0.8422	0.163	0.4359	-0.019
Mof_H 	H 	0.8708	0.2343	0.4107	0.082
Mof_H 	H 	0.9172	0.0872	0.3667	-0.007
Mof_H 	H 	0.9481	0.1554	0.3402	0.08
Mof_H 	H 	0.0292	0.1974	0.2305	-0.002
Mof_H 	H 	0.9701	0.2063	0.2793	0.084
Mof_H 	H 	0.0829	0.3352	0.2257	-0.016
Mof_H 	H 	0.0158	0.3472	0.2725	0.083
Mof_H 	H 	0.565	0.7869	0.8265	-0.014
Mof_H 	H 	0.6496	0.8259	0.8643	0.085
Mof_H 	H 	0.316	0.8094	0.8663	-0.012
Mof_H 	H 	0.3949	0.8453	0.9058	0.085
Mof_H 	H 	0.3036	0.9015	0.0134	-0.011
Mof_H 	H 	0.3883	0.8844	0.9709	0.08
Mof_H 	H 	0.5357	0.9586	0.0491	-0.015
Mof_H 	H 	0.6285	0.9405	0.0083	0.094
Mof_H 	H 	0.9927	0.9654	0.9645	-0.003
Mof_H 	H 	0.8336	0.938	0.9713	0.086
Mof_H 	H 	0.9915	0.9174	0.883	-0.007
Mof_H 	H 	0.8369	0.8861	0.8889	0.095
Mof_H 	H 	0.0895	0.0107	0.8558	-0.011
Mof_H 	H 	0.0751	0.0829	0.8298	0.081
Mof_H 	H 	0.122	0.0762	0.9308	-0.009
Mof_H 	H 	0.0975	0.1506	0.908	0.081
Mof_H 	H 	0.1578	0.337	0.9359	-0.019
Mof_H 	H 	0.1292	0.2657	0.9107	0.082
Mof_H 	H 	0.0828	0.4128	0.8667	-0.007
Mof_H 	H 	0.0519	0.3446	0.8402	0.08
Mof_H 	H 	0.9708	0.3026	0.7305	-0.002
Mof_H 	H 	0.0299	0.2937	0.7793	0.084
Mof_H 	H 	0.9171	0.1648	0.7257	-0.016
Mof_H 	H 	0.9842	0.1528	0.7725	0.083
Mof_C 	C 	0.9704	0.2992	0.1571	0.078
Mof_C 	C 	0.9189	0.3218	0.1345	-0.127
Mof_C 	C 	0.115	0.3117	0.1339	0.074
Mof_C 	C 	0.0685	0.3334	0.1104	-0.117
Mof_C 	C 	0.9692	0.3376	0.1106	0.066
Mof_C 	C 	0.9176	0.3602	0.0856	0.106
Mof_C 	C 	0.1295	0.41	0.9877	0.079
Mof_C 	C 	0.0792	0.3984	0.0127	-0.126
Mof_C 	C 	0.9945	0.4427	0.967	0.079
Mof_C 	C 	0.9382	0.4316	0.9909	-0.135
Mof_C 	C 	0.9806	0.4072	0.0137	0.062
Mof_C 	C 	0.9249	0.3938	0.04	0.094
Mof_C 	C 	0.5399	0.4497	0.0512	0.068
Mof_C 	C 	0.6345	0.4327	0.047	-0.124
Mof_C 	C 	0.5405	0.4212	0.0986	0.069
Mof_C 	C 	0.6328	0.4027	0.0953	-0.123
Mof_C 	C 	0.6814	0.4084	0.069	0.051
Mof_C 	C 	0.7843	0.3933	0.0654	0.104
Mof_C 	C 	0.4048	0.5401	0.1337	0.073
Mof_C 	C 	0.4162	0.583	0.1495	-0.117
Mof_C 	C 	0.3873	0.5775	0.0899	0.072
Mof_C 	C 	0.4015	0.6222	0.1036	-0.112
Mof_C 	C 	0.4141	0.6256	0.1337	0.051
Mof_C 	C 	0.4261	0.6725	0.1481	0.104
Mof_C 	C 	0.3636	0.8386	0.0839	0.078
Mof_C 	C 	0.38	0.7957	0.0988	-0.124
Mof_C 	C 	0.4074	0.8824	0.1242	0.061
Mof_C 	C 	0.4252	0.8421	0.1401	-0.118
Mof_C 	C 	0.4099	0.7976	0.1276	0.055
Mof_C 	C 	0.4243	0.7535	0.1447	0.103
Mof_C 	C 	0.5286	0.7717	0.2606	0.07
Mof_C 	C 	0.4923	0.7665	0.2314	-0.12
Mof_C 	C 	0.5585	0.6915	0.2635	0.074
Mof_C 	C 	0.5204	0.6844	0.2353	-0.125
Mof_C 	C 	0.4899	0.7226	0.2192	0.062
Mof_C 	C 	0.4589	0.7174	0.1878	0.1
Mof_C 	C 	0.0296	0.2008	0.6571	0.079
Mof_C 	C 	0.0811	0.1782	0.6345	-0.128
Mof_C 	C 	0.885	0.1883	0.6339	0.074
Mof_C 	C 	0.9315	0.1666	0.6104	-0.119
Mof_C 	C 	0.0308	0.1624	0.6106	0.067
Mof_C 	C 	0.0824	0.1398	0.5856	0.106
Mof_C 	C 	0.8705	0.09	0.4877	0.08
Mof_C 	C 	0.9208	0.1016	0.5127	-0.128
Mof_C 	C 	0.0055	0.0573	0.467	0.08
Mof_C 	C 	0.0618	0.0684	0.4909	-0.136
Mof_C 	C 	0.0194	0.0928	0.5137	0.063
Mof_C 	C 	0.0751	0.1062	0.54	0.094
Mof_C 	C 	0.4601	0.0503	0.5512	0.068
Mof_C 	C 	0.3655	0.0673	0.547	-0.124
Mof_C 	C 	0.4595	0.0788	0.5986	0.069
Mof_C 	C 	0.3672	0.0973	0.5953	-0.123
Mof_C 	C 	0.3186	0.0916	0.569	0.051
Mof_C 	C 	0.2157	0.1067	0.5654	0.104
Mof_C 	C 	0.5952	0.9599	0.6337	0.073
Mof_C 	C 	0.5838	0.917	0.6495	-0.117
Mof_C 	C 	0.6127	0.9225	0.5899	0.072
Mof_C 	C 	0.5985	0.8778	0.6036	-0.112
Mof_C 	C 	0.5859	0.8744	0.6337	0.051
Mof_C 	C 	0.5739	0.8275	0.6481	0.104
Mof_C 	C 	0.6364	0.6614	0.5839	0.078
Mof_C 	C 	0.62	0.7043	0.5988	-0.124
Mof_C 	C 	0.5926	0.6176	0.6242	0.061
Mof_C 	C 	0.5748	0.6579	0.6401	-0.117
Mof_C 	C 	0.5901	0.7024	0.6276	0.055
Mof_C 	C 	0.5757	0.7465	0.6447	0.103
Mof_C 	C 	0.4714	0.7283	0.7606	0.07
Mof_C 	C 	0.5077	0.7335	0.7314	-0.12
Mof_C 	C 	0.4415	0.8085	0.7635	0.074
Mof_C 	C 	0.4796	0.8156	0.7353	-0.125
Mof_C 	C 	0.5101	0.7774	0.7192	0.062
Mof_C 	C 	0.5411	0.7826	0.6878	0.1
Mof_C 	C 	0.4704	0.7008	0.3429	0.078
Mof_C 	C 	0.4189	0.6782	0.3655	-0.127
Mof_C 	C 	0.615	0.6883	0.3661	0.074
Mof_C 	C 	0.5685	0.6666	0.3896	-0.117
Mof_C 	C 	0.4692	0.6624	0.3894	0.066
Mof_C 	C 	0.4176	0.6398	0.4144	0.106
Mof_C 	C 	0.6295	0.59	0.5123	0.079
Mof_C 	C 	0.5792	0.6016	0.4873	-0.126
Mof_C 	C 	0.4945	0.5573	0.533	0.079
Mof_C 	C 	0.4382	0.5684	0.5091	-0.135
Mof_C 	C 	0.4806	0.5928	0.4863	0.062
Mof_C 	C 	0.4249	0.6062	0.46	0.094
Mof_C 	C 	0.0399	0.5503	0.4488	0.067
Mof_C 	C 	0.1345	0.5673	0.453	-0.123
Mof_C 	C 	0.0405	0.5788	0.4014	0.069
Mof_C 	C 	0.1328	0.5973	0.4047	-0.123
Mof_C 	C 	0.1814	0.5916	0.431	0.051
Mof_C 	C 	0.2843	0.6067	0.4346	0.104
Mof_C 	C 	0.9048	0.4599	0.3663	0.073
Mof_C 	C 	0.9162	0.417	0.3505	-0.117
Mof_C 	C 	0.8873	0.4225	0.4101	0.072
Mof_C 	C 	0.9015	0.3778	0.3964	-0.112
Mof_C 	C 	0.9141	0.3744	0.3663	0.051
Mof_C 	C 	0.9261	0.3275	0.3519	0.104
Mof_C 	C 	0.8636	0.1614	0.4161	0.078
Mof_C 	C 	0.88	0.2043	0.4012	-0.124
Mof_C 	C 	0.9074	0.1176	0.3758	0.061
Mof_C 	C 	0.9252	0.1579	0.3599	-0.118
Mof_C 	C 	0.9099	0.2024	0.3724	0.055
Mof_C 	C 	0.9243	0.2465	0.3553	0.103
Mof_C 	C 	0.0286	0.2283	0.2394	0.07
Mof_C 	C 	0.9923	0.2335	0.2686	-0.12
Mof_C 	C 	0.0585	0.3085	0.2365	0.074
Mof_C 	C 	0.0204	0.3156	0.2647	-0.126
Mof_C 	C 	0.9899	0.2774	0.2808	0.062
Mof_C 	C 	0.9589	0.2826	0.3122	0.1
Mof_C 	C 	0.5296	0.7992	0.8429	0.078
Mof_C 	C 	0.5811	0.8218	0.8655	-0.127
Mof_C 	C 	0.385	0.8117	0.8661	0.074
Mof_C 	C 	0.4315	0.8334	0.8896	-0.117
Mof_C 	C 	0.5308	0.8376	0.8894	0.066
Mof_C 	C 	0.5824	0.8602	0.9144	0.106
Mof_C 	C 	0.3705	0.91	0.0123	0.079
Mof_C 	C 	0.4208	0.8984	0.9873	-0.126
Mof_C 	C 	0.5055	0.9427	0.033	0.079
Mof_C 	C 	0.5618	0.9316	0.0091	-0.135
Mof_C 	C 	0.5194	0.9072	0.9863	0.062
Mof_C 	C 	0.5751	0.8938	0.96	0.094
Mof_C 	C 	0.9601	0.9497	0.9488	0.068
Mof_C 	C 	0.8655	0.9327	0.953	-0.124
Mof_C 	C 	0.9595	0.9212	0.9014	0.07
Mof_C 	C 	0.8672	0.9027	0.9047	-0.124
Mof_C 	C 	0.8186	0.9084	0.931	0.051
Mof_C 	C 	0.7157	0.8933	0.9346	0.104
Mof_C 	C 	0.0952	0.0401	0.8663	0.073
Mof_C 	C 	0.0838	0.083	0.8505	-0.117
Mof_C 	C 	0.1127	0.0775	0.9101	0.073
Mof_C 	C 	0.0985	0.1222	0.8964	-0.112
Mof_C 	C 	0.0859	0.1256	0.8663	0.051
Mof_C 	C 	0.0739	0.1725	0.8519	0.105
Mof_C 	C 	0.1364	0.3386	0.9161	0.078
Mof_C 	C 	0.12	0.2957	0.9012	-0.124
Mof_C 	C 	0.0926	0.3824	0.8758	0.061
Mof_C 	C 	0.0748	0.3421	0.8599	-0.117
Mof_C 	C 	0.0901	0.2976	0.8724	0.055
Mof_C 	C 	0.0757	0.2535	0.8553	0.103
Mof_C 	C 	0.9714	0.2717	0.7394	0.069
Mof_C 	C 	0.0077	0.2665	0.7686	-0.12
Mof_C 	C 	0.9415	0.1915	0.7365	0.074
Mof_C 	C 	0.9796	0.1844	0.7647	-0.126
Mof_C 	C 	0.0101	0.2226	0.7808	0.063
Mof_C 	C 	0.0411	0.2174	0.8122	0.1
Mof_I 	I 	0.30401	0.29935	0.19643	-0.373
Mof_I 	I 	0.14615	0.16851	0.17232	-0.378
Mof_I 	I 	0.27403	0.42074	0.12212	-0.371
Mof_I 	I 	0.28458	0.49279	0.03423	-0.394
Mof_I 	I 	0.15483	0.93106	0.06448	-0.384
Mof_I 	I 	0.41635	0.01118	0.10187	-0.366
Mof_I 	I 	0.69599	0.20065	0.69643	-0.373
Mof_I 	I 	0.85385	0.33149	0.67232	-0.378
Mof_I 	I 	0.72597	0.07926	0.62212	-0.371
Mof_I 	I 	0.71542	0.00721	0.53423	-0.394
Mof_I 	I 	0.84517	0.56894	0.56448	-0.384
Mof_I 	I 	0.58365	0.48882	0.60187	-0.366
Mof_I 	I 	0.80401	0.70065	0.30357	-0.373
Mof_I 	I 	0.64615	0.83149	0.32768	-0.378
Mof_I 	I 	0.77403	0.57926	0.37788	-0.371
Mof_I 	I 	0.78458	0.50721	0.46577	-0.394
Mof_I 	I 	0.65483	0.06894	0.43552	-0.384
Mof_I 	I 	0.91635	0.98882	0.39813	-0.366
Mof_I 	I 	0.19599	0.79935	0.80357	-0.373
Mof_I 	I 	0.35385	0.66851	0.82768	-0.378
Mof_I 	I 	0.22597	0.92074	0.87788	-0.371
Mof_I 	I 	0.21542	0.99279	0.96577	-0.394
Mof_I 	I 	0.34517	0.43106	0.93552	-0.383
Mof_I 	I 	0.08365	0.51118	0.89813	-0.366
Mof_N 	N 	0.0671	0.2941	0.1568	-0.28
Mof_N 	N 	0.0897	0.4325	0.965	-0.276
Mof_N 	N 	0.4942	0.4442	0.077	-0.273
Mof_N 	N 	0.9714	0.3716	0.06237	-0.136
Mof_N 	N 	0.8295	0.4052	0.04114	-0.143
Mof_N 	N 	0.8224	0.3702	0.0881	-0.135
Mof_N 	N 	0.3867	0.5378	0.1052	-0.273
Mof_N 	N 	0.3763	0.8813	0.09587	-0.273
Mof_N 	N 	0.5611	0.7345	0.27522	-0.274
Mof_N 	N 	0.4133	0.7113	0.1315	-0.141
Mof_N 	N 	0.4468	0.7586	0.17313	-0.14
Mof_N 	N 	0.4489	0.6735	0.17662	-0.14
Mof_N 	N 	0.9329	0.2059	0.6568	-0.28
Mof_N 	N 	0.9103	0.0675	0.465	-0.277
Mof_N 	N 	0.5058	0.0558	0.577	-0.273
Mof_N 	N 	0.0286	0.1284	0.56237	-0.136
Mof_N 	N 	0.1705	0.0948	0.54114	-0.143
Mof_N 	N 	0.1776	0.1298	0.5881	-0.135
Mof_N 	N 	0.6133	0.9622	0.6052	-0.273
Mof_N 	N 	0.6237	0.6187	0.59587	-0.273
Mof_N 	N 	0.4389	0.7655	0.77522	-0.274
Mof_N 	N 	0.5867	0.7887	0.6315	-0.141
Mof_N 	N 	0.5532	0.7414	0.67313	-0.14
Mof_N 	N 	0.5511	0.8265	0.67662	-0.14
Mof_N 	N 	0.5671	0.7059	0.3432	-0.279
Mof_N 	N 	0.5897	0.5675	0.535	-0.276
Mof_N 	N 	0.9942	0.5558	0.423	-0.272
Mof_N 	N 	0.4714	0.6284	0.43763	-0.136
Mof_N 	N 	0.3295	0.5948	0.45886	-0.143
Mof_N 	N 	0.3224	0.6298	0.4119	-0.135
Mof_N 	N 	0.8867	0.4622	0.3948	-0.273
Mof_N 	N 	0.8763	0.1187	0.40413	-0.273
Mof_N 	N 	0.0611	0.2655	0.22478	-0.274
Mof_N 	N 	0.9133	0.2887	0.3685	-0.141
Mof_N 	N 	0.9468	0.2414	0.32687	-0.14
Mof_N 	N 	0.9489	0.3265	0.32338	-0.14
Mof_N 	N 	0.4329	0.7941	0.8432	-0.279
Mof_N 	N 	0.4103	0.9325	0.035	-0.276
Mof_N 	N 	0.0058	0.9442	0.923	-0.273
Mof_N 	N 	0.5286	0.8716	0.93763	-0.136
Mof_N 	N 	0.6705	0.9052	0.95886	-0.143
Mof_N 	N 	0.6776	0.8702	0.9119	-0.135
Mof_N 	N 	0.1133	0.0378	0.8948	-0.272
Mof_N 	N 	0.1237	0.3813	0.90413	-0.273
Mof_N 	N 	0.9389	0.2345	0.72478	-0.274
Mof_N 	N 	0.0867	0.2113	0.8685	-0.141
Mof_N 	N 	0.0532	0.2586	0.82687	-0.14
Mof_N 	N 	0.0511	0.1735	0.82338	-0.14
_end
