data_functionalizedCrystal
_audit_creation_method	'EQeq! by Chris Wilmer'
_symmetry_space_group_name_H-M	'P1'
_symmetry_Int_Tables_number	1
_symmetry_cell_setting	triclinic
loop_
_symmetry_equiv_pos_as_xyz
  x,y,z
_cell_length_a	13.971
_cell_length_b	12.841
_cell_length_c	7.137
_cell_angle_alpha	90
_cell_angle_beta	90.74
_cell_angle_gamma	90
loop_
_atom_site_label
_atom_site_type_symbol
_atom_site_fract_x
_atom_site_fract_y
_atom_site_fract_z
_atom_site_charge
Mof_C 	C 	0.1367	0.2655	0.821	0.143
Mof_H 	H 	0.1138	0.2974	0.7126	-0.061
Mof_C 	C 	0.1446	0.2656	0.127	0.068
Mof_H 	H 	0.1332	0.2947	0.244	-0.025
Mof_C 	C 	0.2055	0.1726	0.115	-0.25
Mof_H 	H 	0.2234	0.1358	0.2217	0.083
Mof_C 	C 	0.1957	0.183	0.792	-0.282
Mof_H 	H 	0.2075	0.1575	0.6725	0.095
Mof_C 	C 	0.2351	0.1417	0.942	0.207
Mof_C 	C 	0.3022	0.0433	0.926	-0.213
Mof_H 	H 	0.2719	0.9844	0.9865	0.088
Mof_H 	H 	0.3102	0.0261	0.795	0.05
Mof_C 	C 	0.4503	0.1518	0.973	0.127
Mof_H 	H 	0.4194	0.2103	0.0335	-0.04
Mof_H 	H 	0.4459	0.1633	0.8388	-0.049
Mof_N 	N 	0.1063	0.308	0.9794	-0.268
Mof_N 	N 	0.3989	0.0617	0.0152	-0.198
Mof_H 	H 	0.4226	0.0168	0.0921	-0.08
Mof_O 	O 	0.0172	0.4304	0.2992	-0.58
Mof_C 	C 	0.6367	0.7655	0.821	0.155
Mof_H 	H 	0.6138	0.7974	0.7126	-0.036
Mof_C 	C 	0.6446	0.7656	0.127	0.083
Mof_H 	H 	0.6332	0.7947	0.244	-0.011
Mof_C 	C 	0.7055	0.6726	0.115	-0.233
Mof_H 	H 	0.7234	0.6358	0.2217	0.098
Mof_C 	C 	0.6957	0.683	0.792	-0.264
Mof_H 	H 	0.7075	0.6575	0.6725	0.109
Mof_C 	C 	0.7351	0.6417	0.942	0.204
Mof_C 	C 	0.8022	0.5433	0.926	-0.155
Mof_H 	H 	0.7719	0.4844	0.9865	0.068
Mof_H 	H 	0.8102	0.5261	0.795	0.055
Mof_C 	C 	0.9503	0.6518	0.973	0.416
Mof_H 	H 	0.9194	0.7103	0.0335	-0.093
Mof_H 	H 	0.9459	0.6633	0.8388	-0.089
Mof_N 	N 	0.6063	0.808	0.9794	-0.249
Mof_N 	N 	0.8989	0.5617	0.0152	-0.249
Mof_H 	H 	0.9226	0.5168	0.0921	-0.004
Mof_O 	O 	0.5172	0.9304	0.2992	-0.551
Mof_C 	C 	0.8633	0.2655	0.179	0.133
Mof_H 	H 	0.8862	0.2974	0.2874	-0.003
Mof_C 	C 	0.8554	0.2656	0.873	0.121
Mof_H 	H 	0.8668	0.2947	0.756	-0.01
Mof_C 	C 	0.7945	0.1726	0.885	-0.179
Mof_H 	H 	0.7766	0.1358	0.7783	0.083
Mof_C 	C 	0.8043	0.183	0.208	-0.238
Mof_H 	H 	0.7925	0.1575	0.3275	0.1
Mof_C 	C 	0.7649	0.1417	0.058	0.157
Mof_C 	C 	0.6978	0.0433	0.074	-0.251
Mof_H 	H 	0.7281	0.9844	0.0135	0.097
Mof_H 	H 	0.6898	0.0261	0.205	0.069
Mof_C 	C 	0.5497	0.1518	0.027	-0.302
Mof_H 	H 	0.5806	0.2103	0.9665	0.12
Mof_H 	H 	0.5541	0.1633	0.1612	0.07
Mof_N 	N 	0.8937	0.308	0.0206	-0.253
Mof_N 	N 	0.6011	0.0617	0.9848	-0.092
Mof_H 	H 	0.5774	0.0168	0.9079	-0.097
Mof_O 	O 	0.9828	0.4304	0.7008	-0.41
Mof_C 	C 	0.3633	0.7655	0.179	0.123
Mof_H 	H 	0.3862	0.7974	0.2874	-0.033
Mof_C 	C 	0.3554	0.7656	0.873	0.114
Mof_H 	H 	0.3668	0.7947	0.756	-0.024
Mof_C 	C 	0.2945	0.6726	0.885	-0.182
Mof_H 	H 	0.2766	0.6358	0.7783	0.076
Mof_C 	C 	0.3043	0.683	0.208	-0.246
Mof_H 	H 	0.2925	0.6575	0.3275	0.091
Mof_C 	C 	0.2649	0.6417	0.058	0.144
Mof_C 	C 	0.1978	0.5433	0.074	-0.243
Mof_H 	H 	0.2281	0.4844	0.0135	0.075
Mof_H 	H 	0.1898	0.5261	0.205	0.067
Mof_C 	C 	0.0497	0.6518	0.027	-0.596
Mof_H 	H 	0.0806	0.7103	0.9665	0.188
Mof_H 	H 	0.0541	0.6633	0.1612	0.134
Mof_N 	N 	0.3937	0.808	0.0206	-0.281
Mof_N 	N 	0.1011	0.5617	0.9848	-0.041
Mof_H 	H 	0.0774	0.5168	0.9079	-0.131
Mof_O 	O 	0.4828	0.9304	0.7008	-0.54
Mof_Mo	Mo	6.93736e-19	0.50868	0.5	0.775
Mof_Mo	Mo	0.5	0.00868	0.5	0.985
Mof_Zn	Zn	-0	0.42832	-0	1.158
Mof_Zn	Zn	0.5	0.92832	-0	1.203
_end
