data_functionalizedCrystal
_audit_creation_method	'EQeq! by Chris Wilmer'
_symmetry_space_group_name_H-M	'P1'
_symmetry_Int_Tables_number	1
_symmetry_cell_setting	triclinic
loop_
_symmetry_equiv_pos_as_xyz
  x,y,z
_cell_length_a	12.728
_cell_length_b	19.177
_cell_length_c	19.177
_cell_angle_alpha	120
_cell_angle_beta	90
_cell_angle_gamma	90
loop_
_atom_site_label
_atom_site_type_symbol
_atom_site_fract_x
_atom_site_fract_y
_atom_site_fract_z
_atom_site_charge
Mof_U 	U 	0.5	0.66695	-0	0.039
Mof_U 	U 	0.5	0.33305	0.33305	0.042
Mof_U 	U 	0.5	0	0.66695	0.039
Mof_U 	U 	-0	0.33305	-0	0.037
Mof_U 	U 	1.24546e-32	0.66695	0.66695	0.039
Mof_U 	U 	-0	0	0.33305	0.037
Mof_U 	U 	0.5	0.33305	-0	0.04
Mof_U 	U 	0.5	0.66695	0.66695	0.043
Mof_U 	U 	0.5	0	0.33305	0.04
Mof_U 	U 	-0	0.66695	-0	0.037
Mof_U 	U 	-0	0.33305	0.33305	0.039
Mof_U 	U 	-0	0	0.66695	0.037
Mof_C 	C 	0.25	0.6725	0.0449	0.213
Mof_C 	C 	0.25	0.6868	0.975	0.248
Mof_C 	C 	0.25	0.3724	0.3275	0.217
Mof_C 	C 	0.25	0.2882	0.3132	0.244
Mof_C 	C 	0.25	0.9551	0.6276	0.221
Mof_C 	C 	0.25	0.025	0.7118	0.24
Mof_C 	C 	0.75	0.3275	0.9551	0.221
Mof_C 	C 	0.75	0.3132	0.025	0.239
Mof_C 	C 	0.75	0.6276	0.6725	0.217
Mof_C 	C 	0.75	0.7118	0.6868	0.244
Mof_C 	C 	0.75	0.0449	0.3724	0.213
Mof_C 	C 	0.75	0.975	0.2882	0.247
Mof_C 	C 	0.75	0.6276	0.9551	0.221
Mof_C 	C 	0.75	0.7118	0.025	0.239
Mof_C 	C 	0.75	0.0449	0.6725	0.213
Mof_C 	C 	0.75	0.975	0.6868	0.247
Mof_C 	C 	0.75	0.3275	0.3724	0.217
Mof_C 	C 	0.75	0.3132	0.2882	0.244
Mof_C 	C 	0.25	0.3724	0.0449	0.213
Mof_C 	C 	0.25	0.2882	0.975	0.248
Mof_C 	C 	0.25	0.9551	0.3275	0.221
Mof_C 	C 	0.25	0.025	0.3132	0.24
Mof_C 	C 	0.25	0.6725	0.6276	0.217
Mof_C 	C 	0.25	0.6868	0.7118	0.244
Mof_C 	C 	0.47	0.8523	0.1477	0.227
Mof_C 	C 	0.506	0.80865	0.19135	0.228
Mof_C 	C 	0.47	0.2954	0.1477	0.227
Mof_C 	C 	0.506	0.3827	0.19135	0.228
Mof_C 	C 	0.47	0.8523	0.7046	0.226
Mof_C 	C 	0.506	0.80865	0.6173	0.229
Mof_C 	C 	0.97	0.1477	0.8523	0.232
Mof_C 	C 	0.006	0.19135	0.80865	0.223
Mof_C 	C 	0.97	0.7046	0.8523	0.231
Mof_C 	C 	0.006	0.6173	0.80865	0.224
Mof_C 	C 	0.97	0.1477	0.2954	0.232
Mof_C 	C 	0.006	0.19135	0.3827	0.223
Mof_C 	C 	0.53	0.7046	0.8523	0.226
Mof_C 	C 	0.494	0.6173	0.80865	0.229
Mof_C 	C 	0.53	0.1477	0.8523	0.227
Mof_C 	C 	0.494	0.19135	0.80865	0.228
Mof_C 	C 	0.53	0.1477	0.2954	0.227
Mof_C 	C 	0.494	0.19135	0.3827	0.228
Mof_C 	C 	0.03	0.2954	0.1477	0.222
Mof_C 	C 	0.994	0.3827	0.19135	0.233
Mof_C 	C 	0.03	0.8523	0.1477	0.222
Mof_C 	C 	0.994	0.80865	0.19135	0.233
Mof_C 	C 	0.03	0.8523	0.7046	0.222
Mof_C 	C 	0.994	0.80865	0.6173	0.234
Mof_C 	C 	0.5405	0.5163	0.0326	0.207
Mof_C 	C 	0.5405	0.5163	0.4837	0.211
Mof_C 	C 	0.5405	0.9674	0.4837	0.215
Mof_C 	C 	0.0405	0.4837	0.9674	0.21
Mof_C 	C 	0.0405	0.4837	0.5163	0.206
Mof_C 	C 	0.0405	0.0326	0.5163	0.202
Mof_C 	C 	0.4595	0.4837	0.9674	0.215
Mof_C 	C 	0.4595	0.0326	0.5163	0.207
Mof_C 	C 	0.4595	0.4837	0.5163	0.211
Mof_C 	C 	0.9595	0.5163	0.0326	0.213
Mof_C 	C 	0.9595	0.9674	0.4837	0.22
Mof_C 	C 	0.9595	0.5163	0.4837	0.217
Mof_O 	O 	0.3392	0.672	0.0737	-0.124
Mof_O 	O 	0.5217	0.7341	0.1498	-0.112
Mof_O 	O 	0.4569	0.8105	0.0729	-0.114
Mof_O 	O 	0.5786	0.587	0.0537	-0.108
Mof_O 	O 	0.337	0.6947	0.9512	-0.127
Mof_O 	O 	0.3392	0.4017	0.328	-0.124
Mof_O 	O 	0.5217	0.4157	0.2659	-0.112
Mof_O 	O 	0.4569	0.2624	0.1895	-0.114
Mof_O 	O 	0.5786	0.4667	0.413	-0.108
Mof_O 	O 	0.337	0.2565	0.3053	-0.129
Mof_O 	O 	0.3392	0.9263	0.5983	-0.124
Mof_O 	O 	0.5217	0.8502	0.5843	-0.111
Mof_O 	O 	0.4569	0.9271	0.7376	-0.111
Mof_O 	O 	0.5786	0.9463	0.5333	-0.107
Mof_O 	O 	0.337	0.0488	0.7435	-0.128
Mof_O 	O 	0.8392	0.328	0.9263	-0.121
Mof_O 	O 	0.0217	0.2659	0.8502	-0.112
Mof_O 	O 	0.9569	0.1895	0.9271	-0.11
Mof_O 	O 	0.0786	0.413	0.9463	-0.107
Mof_O 	O 	0.837	0.3053	0.0488	-0.127
Mof_O 	O 	0.8392	0.5983	0.672	-0.122
Mof_O 	O 	0.0217	0.5843	0.7341	-0.112
Mof_O 	O 	0.9569	0.7376	0.8105	-0.111
Mof_O 	O 	0.0786	0.5333	0.587	-0.108
Mof_O 	O 	0.837	0.7435	0.6947	-0.126
Mof_O 	O 	0.8392	0.0737	0.4017	-0.122
Mof_O 	O 	0.0217	0.1498	0.4157	-0.112
Mof_O 	O 	0.9569	0.0729	0.2624	-0.113
Mof_O 	O 	0.0786	0.0537	0.4667	-0.108
Mof_O 	O 	0.837	0.9512	0.2565	-0.126
Mof_O 	O 	0.6608	0.5983	0.9263	-0.123
Mof_O 	O 	0.4783	0.5843	0.8502	-0.111
Mof_O 	O 	0.5431	0.7376	0.9271	-0.111
Mof_O 	O 	0.4214	0.5333	0.9463	-0.107
Mof_O 	O 	0.663	0.7435	0.0488	-0.128
Mof_O 	O 	0.6608	0.0737	0.672	-0.123
Mof_O 	O 	0.4783	0.1498	0.7341	-0.112
Mof_O 	O 	0.5431	0.0729	0.8105	-0.114
Mof_O 	O 	0.4214	0.0537	0.587	-0.108
Mof_O 	O 	0.663	0.9512	0.6947	-0.127
Mof_O 	O 	0.6608	0.328	0.4017	-0.123
Mof_O 	O 	0.4783	0.2659	0.4157	-0.112
Mof_O 	O 	0.5431	0.1895	0.2624	-0.114
Mof_O 	O 	0.4214	0.413	0.4667	-0.108
Mof_O 	O 	0.663	0.3053	0.2565	-0.128
Mof_O 	O 	0.1608	0.4017	0.0737	-0.125
Mof_O 	O 	0.9783	0.4157	0.1498	-0.111
Mof_O 	O 	0.0431	0.2624	0.0729	-0.116
Mof_O 	O 	0.9214	0.4667	0.0537	-0.108
Mof_O 	O 	0.163	0.2565	0.9512	-0.128
Mof_O 	O 	0.1608	0.9263	0.328	-0.125
Mof_O 	O 	0.9783	0.8502	0.2659	-0.11
Mof_O 	O 	0.0431	0.9271	0.1895	-0.113
Mof_O 	O 	0.9214	0.9463	0.413	-0.107
Mof_O 	O 	0.163	0.0488	0.3053	-0.129
Mof_O 	O 	0.1608	0.672	0.5983	-0.125
Mof_O 	O 	0.9783	0.7341	0.5843	-0.111
Mof_O 	O 	0.0431	0.8105	0.7376	-0.113
Mof_O 	O 	0.9214	0.587	0.5333	-0.107
Mof_O 	O 	0.163	0.6947	0.7435	-0.129
Mof_O 	O 	0.6608	0.328	0.9263	-0.123
Mof_O 	O 	0.4783	0.2659	0.8502	-0.111
Mof_O 	O 	0.5431	0.1895	0.9271	-0.111
Mof_O 	O 	0.4214	0.413	0.9463	-0.107
Mof_O 	O 	0.663	0.3053	0.0488	-0.128
Mof_O 	O 	0.6608	0.5983	0.672	-0.123
Mof_O 	O 	0.4783	0.5843	0.7341	-0.112
Mof_O 	O 	0.5431	0.7376	0.8105	-0.112
Mof_O 	O 	0.4214	0.5333	0.587	-0.108
Mof_O 	O 	0.663	0.7435	0.6947	-0.128
Mof_O 	O 	0.6608	0.0737	0.4017	-0.123
Mof_O 	O 	0.4783	0.1498	0.4157	-0.112
Mof_O 	O 	0.5431	0.0729	0.2624	-0.115
Mof_O 	O 	0.4214	0.0537	0.4667	-0.108
Mof_O 	O 	0.663	0.9512	0.2565	-0.127
Mof_O 	O 	0.1608	0.672	0.0737	-0.125
Mof_O 	O 	0.9783	0.7341	0.1498	-0.111
Mof_O 	O 	0.0431	0.8105	0.0729	-0.115
Mof_O 	O 	0.9214	0.587	0.0537	-0.108
Mof_O 	O 	0.163	0.6947	0.9512	-0.128
Mof_O 	O 	0.1608	0.4017	0.328	-0.125
Mof_O 	O 	0.9783	0.4157	0.2659	-0.111
Mof_O 	O 	0.0431	0.2624	0.1895	-0.115
Mof_O 	O 	0.9214	0.4667	0.413	-0.107
Mof_O 	O 	0.163	0.2565	0.3053	-0.129
Mof_O 	O 	0.1608	0.9263	0.5983	-0.125
Mof_O 	O 	0.9783	0.8502	0.5843	-0.11
Mof_O 	O 	0.0431	0.9271	0.7376	-0.112
Mof_O 	O 	0.9214	0.9463	0.5333	-0.107
Mof_O 	O 	0.163	0.0488	0.7435	-0.129
Mof_O 	O 	0.3392	0.4017	0.0737	-0.124
Mof_O 	O 	0.5217	0.4157	0.1498	-0.112
Mof_O 	O 	0.4569	0.2624	0.0729	-0.115
Mof_O 	O 	0.5786	0.4667	0.0537	-0.108
Mof_O 	O 	0.337	0.2565	0.9512	-0.128
Mof_O 	O 	0.3392	0.9263	0.328	-0.124
Mof_O 	O 	0.5217	0.8502	0.2659	-0.111
Mof_O 	O 	0.4569	0.9271	0.1895	-0.112
Mof_O 	O 	0.5786	0.9463	0.413	-0.107
Mof_O 	O 	0.337	0.0488	0.3053	-0.128
Mof_O 	O 	0.3392	0.672	0.5983	-0.124
Mof_O 	O 	0.5217	0.7341	0.5843	-0.112
Mof_O 	O 	0.4569	0.8105	0.7376	-0.113
Mof_O 	O 	0.5786	0.587	0.5333	-0.108
Mof_O 	O 	0.337	0.6947	0.7435	-0.128
Mof_O 	O 	0.8392	0.5983	0.9263	-0.121
Mof_O 	O 	0.0217	0.5843	0.8502	-0.112
Mof_O 	O 	0.9569	0.7376	0.9271	-0.109
Mof_O 	O 	0.0786	0.5333	0.9463	-0.107
Mof_O 	O 	0.837	0.7435	0.0488	-0.127
Mof_O 	O 	0.8392	0.0737	0.672	-0.122
Mof_O 	O 	0.0217	0.1498	0.7341	-0.112
Mof_O 	O 	0.9569	0.0729	0.8105	-0.112
Mof_O 	O 	0.0786	0.0537	0.587	-0.108
Mof_O 	O 	0.837	0.9512	0.6947	-0.126
Mof_O 	O 	0.8392	0.328	0.4017	-0.122
Mof_O 	O 	0.0217	0.2659	0.4157	-0.112
Mof_O 	O 	0.9569	0.1895	0.2624	-0.112
Mof_O 	O 	0.0786	0.413	0.4667	-0.108
Mof_O 	O 	0.837	0.3053	0.2565	-0.127
_end
