data_functionalizedCrystal
_audit_creation_method	'EQeq! by Chris Wilmer'
_symmetry_space_group_name_H-M	'P1'
_symmetry_Int_Tables_number	1
_symmetry_cell_setting	triclinic
loop_
_symmetry_equiv_pos_as_xyz
  x,y,z
_cell_length_a	15.688
_cell_length_b	15.688
_cell_length_c	18.678
_cell_angle_alpha	90
_cell_angle_beta	90
_cell_angle_gamma	120
loop_
_atom_site_label
_atom_site_type_symbol
_atom_site_fract_x
_atom_site_fract_y
_atom_site_fract_z
_atom_site_charge
Mof_Ni	Ni	0.82365	-1.26819e-32	0.5	1.068
Mof_Ni	Ni	0.17635	0.17635	0.83333	1.073
Mof_Ni	Ni	3.28128e-17	0.82365	0.16667	1.069
Mof_H 	H 	0.3182	0.9337	0.1179	0.133
Mof_H 	H 	0.6818	0.6155	0.21543	0.127
Mof_H 	H 	0.7009	0.6045	0.01533	0.103
Mof_H 	H 	0.9389	0.6444	0.25927	0.017
Mof_H 	H 	0.3845	0.0663	0.8821	0.12
Mof_H 	H 	0.0964	0.3955	0.98467	0.1
Mof_H 	H 	0.6155	0.6818	0.45123	0.127
Mof_H 	H 	0.195	0.8514	0.2197	0.005
Mof_H 	H 	0.9337	0.3182	0.54877	0.134
Mof_H 	H 	0.1496	0.047	0.5819	0.091
Mof_H 	H 	0.0611	0.7055	0.07407	0.016
Mof_H 	H 	0.8974	0.0041	0.34847	0.007
Mof_H 	H 	0.3436	0.1486	0.7803	0.006
Mof_H 	H 	0.953	0.1026	0.24857	0.098
Mof_H 	H 	0.2991	0.9036	0.318	0.103
Mof_H 	H 	0.6045	0.7009	0.65133	0.103
Mof_H 	H 	0.4379	0.5048	0.73683	0.1
Mof_H 	H 	0.9959	0.8933	0.01513	0.028
Mof_H 	H 	0.5621	0.0669	0.5965	0.096
Mof_H 	H 	0.047	0.1496	0.08477	0.092
Mof_H 	H 	0.1026	0.953	0.4181	0.099
Mof_H 	H 	0.8514	0.195	0.44697	0.005
Mof_H 	H 	0.5048	0.4379	0.92983	0.101
Mof_H 	H 	0.0041	0.8974	0.3182	0.007
Mof_H 	H 	0.1067	0.1026	0.6818	0.008
Mof_H 	H 	0.6564	0.805	0.55303	0.007
Mof_H 	H 	0.9331	0.4952	0.26317	0.095
Mof_H 	H 	0.8974	0.8504	0.91523	0.104
Mof_H 	H 	0.0663	0.3845	0.78457	0.119
Mof_H 	H 	0.7055	0.0611	0.5926	0.017
Mof_H 	H 	0.4952	0.9331	0.4035	0.095
Mof_H 	H 	0.6444	0.9389	0.4074	0.017
Mof_H 	H 	0.8504	0.8974	0.75143	0.105
Mof_H 	H 	0.2945	0.3556	0.74073	0.016
Mof_H 	H 	0.0669	0.5621	0.07017	0.095
Mof_H 	H 	0.8933	0.9959	0.65153	0.028
Mof_H 	H 	0.1486	0.3436	0.88637	0.006
Mof_H 	H 	0.1026	0.1067	0.98487	0.007
Mof_H 	H 	0.3556	0.2945	0.92593	0.016
Mof_H 	H 	0.805	0.6564	0.11363	0.007
Mof_H 	H 	0.3955	0.0964	0.682	0.101
Mof_H 	H 	0.9036	0.2991	0.34867	0.103
Mof_C 	C 	0.4633	0.424	0.89063	-0.124
Mof_C 	C 	0.576	0.0393	0.5573	-0.117
Mof_C 	C 	0.2112	0.0358	0.923	0.315
Mof_C 	C 	0.1754	0.9642	0.077	0.352
Mof_C 	C 	0.6628	0.0359	0.5538	0.078
Mof_C 	C 	0.0162	0.4359	0.70417	0.248
Mof_C 	C 	0.2641	0.9783	0.0347	0.012
Mof_C 	C 	0.9357	0.835	0.01537	0.084
Mof_C 	C 	0.5641	0.5803	0.37083	0.28
Mof_C 	C 	0.9346	0.2118	0.28771	0.075
Mof_C 	C 	0.5367	0.9607	0.4427	-0.097
Mof_C 	C 	0.1906	0.0677	0.6218	-0.126
Mof_C 	C 	0.3731	0.3372	0.88713	0.088
Mof_C 	C 	0.0643	0.8993	0.31796	0.084
Mof_C 	C 	0.0217	0.2858	0.70137	-0.034
Mof_C 	C 	0.1007	0.165	0.98463	0.084
Mof_C 	C 	0.7237	0.691	0.88958	0.111
Mof_C 	C 	0.9641	0.6269	0.22047	0.105
Mof_C 	C 	0.691	0.7237	0.77708	0.111
Mof_C 	C 	0.7888	0.8246	0.41033	0.332
Mof_C 	C 	0.165	0.1007	0.68204	0.081
Mof_C 	C 	0.6637	0.7602	0.65255	-0.131
Mof_C 	C 	0.2772	0.0654	0.62104	0.075
Mof_C 	C 	0.5103	-1.26819e-32	0.5	0.043
Mof_C 	C 	0.6269	0.9641	0.4462	0.105
Mof_C 	C 	-5.28585e-17	0.4161	0.16667	0.099
Mof_C 	C 	0.309	0.0327	0.55625	0.104
Mof_C 	C 	0.2858	0.0217	0.9653	-0.03
Mof_C 	C 	0.8771	0.8094	0.95513	-0.117
Mof_C 	C 	0.1762	0.872	0.2604	0.094
Mof_C 	C 	0.3372	0.3731	0.77953	0.088
Mof_C 	C 	0.3363	0.0965	0.68078	-0.133
Mof_C 	C 	0.9642	0.1754	0.58967	0.352
Mof_C 	C 	0.9838	0.4197	0.62917	0.312
Mof_C 	C 	0.9607	0.5367	0.22397	-0.097
Mof_C 	C 	0.7359	0.7142	0.29863	-0.006
Mof_C 	C 	-5.28585e-17	0.5103	0.16667	0.043
Mof_C 	C 	0.8238	0.6958	0.07293	0.098
Mof_C 	C 	0.9783	0.2641	0.63197	0.016
Mof_C 	C 	0.0359	0.6628	0.11287	0.078
Mof_C 	C 	0.2118	0.9346	0.37896	0.075
Mof_C 	C 	0.3318	0.9603	0.072	-0.166
Mof_C 	C 	0.424	0.4633	0.77603	-0.124
Mof_C 	C 	0.8246	0.7888	0.25633	0.332
Mof_C 	C 	0.3715	0.0397	0.928	-0.137
Mof_C 	C 	0.9323	0.1229	0.28847	-0.123
Mof_C 	C 	0.0393	0.576	0.10937	-0.117
Mof_C 	C 	0.2398	0.9035	0.31922	-0.131
Mof_C 	C 	0.0654	0.2772	0.04563	0.072
Mof_C 	C 	0.8094	0.8771	0.71153	-0.121
Mof_C 	C 	0.1229	0.9323	0.3782	-0.123
Mof_C 	C 	0.835	0.9357	0.65129	0.089
Mof_C 	C 	0.6958	0.8238	0.59373	0.098
Mof_C 	C 	0.5803	0.5641	0.29583	0.28
Mof_C 	C 	0.7882	0.7228	0.95437	0.083
Mof_C 	C 	0.2763	0.9673	0.44375	0.126
Mof_C 	C 	0.6285	0.6682	0.40533	-0.152
Mof_C 	C 	0.3042	0.128	0.7396	0.092
Mof_C 	C 	0.6682	0.6285	0.26133	-0.152
Mof_C 	C 	0.9035	0.2398	0.34745	-0.131
Mof_C 	C 	0.5839	0.5839	0.83333	0.113
Mof_C 	C 	0.0397	0.3715	0.73867	-0.134
Mof_C 	C 	0.7602	0.6637	0.01411	-0.135
Mof_C 	C 	0.0358	0.2112	0.74367	0.319
Mof_C 	C 	0.872	0.1762	0.40627	0.094
Mof_C 	C 	0.0677	0.1906	0.04487	-0.128
Mof_C 	C 	0.0327	0.309	0.11042	0.104
Mof_C 	C 	0.8993	0.0643	0.34871	0.084
Mof_C 	C 	0.7142	0.7359	0.36803	-0.005
Mof_C 	C 	0.7228	0.7882	0.71229	0.081
Mof_C 	C 	0.128	0.3042	0.92707	0.091
Mof_C 	C 	0.4197	0.9838	0.0375	0.309
Mof_C 	C 	0.4897	0.4897	0.83333	0.07
Mof_C 	C 	0.9673	0.2763	0.22292	0.126
Mof_C 	C 	0.9603	0.3318	0.59467	-0.168
Mof_C 	C 	0.0965	0.3363	0.98589	-0.129
Mof_C 	C 	0.4359	0.0162	0.9625	0.251
Mof_C 	C 	0.4161	-1.26819e-32	0.5	0.099
Mof_N 	N 	0.2463	-1.26819e-32	0.5	-0.144
Mof_N 	N 	0.9666	0.3612	0.22584	-0.122
Mof_N 	N 	0.2212	0.1302	0.74059	-0.232
Mof_N 	N 	0.8698	0.091	0.40726	-0.232
Mof_N 	N 	0.3946	0.0334	0.55917	-0.132
Mof_N 	N 	0.3612	0.9666	0.44083	-0.122
Mof_N 	N 	0.7788	0.909	0.59274	-0.223
Mof_N 	N 	0.3102	0.3102	0.83333	-0.227
Mof_N 	N 	0.7537	0.7537	0.83333	-0.127
Mof_N 	N 	1.85343e-17	0.2463	0.16667	-0.144
Mof_N 	N 	0.0334	0.3946	0.1075	-0.132
Mof_N 	N 	0.6898	-1.26819e-32	0.5	-0.24
Mof_N 	N 	0.091	0.8698	0.25941	-0.232
Mof_N 	N 	0.909	0.7788	0.07392	-0.223
Mof_N 	N 	0.6388	0.6054	0.8925	-0.131
Mof_N 	N 	0.6054	0.6388	0.77416	-0.131
Mof_N 	N 	0.1302	0.2212	0.92608	-0.232
Mof_N 	N 	-2.43014e-17	0.6898	0.16667	-0.24
Mof_O 	O 	0.87462	0.75544	0.2298	-0.392
Mof_O 	O 	0.24456	0.11918	0.89647	-0.401
Mof_O 	O 	0.12538	0.88082	0.10353	-0.411
Mof_O 	O 	0.0328	0.1588	0.58497	-0.299
Mof_O 	O 	0.88082	0.12538	0.56314	-0.411
Mof_O 	O 	0.1588	0.0328	0.0817	-0.299
Mof_O 	O 	0.8412	0.874	0.25163	-0.26
Mof_O 	O 	0.874	0.8412	0.41503	-0.26
Mof_O 	O 	0.11918	0.24456	0.7702	-0.402
Mof_O 	O 	0.75544	0.87462	0.43686	-0.392
Mof_O 	O 	0.126	0.9672	0.9183	-0.258
Mof_O 	O 	0.9672	0.126	0.74837	-0.263
Mof_F 	F 	0.0392	0.5225	0.73217	-0.401
Mof_F 	F 	0.4833	0.9608	0.0655	-0.399
Mof_F 	F 	0.9608	0.4833	0.60117	-0.399
Mof_F 	F 	0.5225	0.0392	0.9345	-0.402
Mof_F 	F 	0.5167	0.4775	0.26783	-0.403
Mof_F 	F 	0.4775	0.5167	0.39883	-0.403
_end
