data_functionalizedCrystal
_audit_creation_method	'EQeq! by Chris Wilmer'
_symmetry_space_group_name_H-M	'P1'
_symmetry_Int_Tables_number	1
_symmetry_cell_setting	triclinic
loop_
_symmetry_equiv_pos_as_xyz
  x,y,z
_cell_length_a	15.8022
_cell_length_b	24.029
_cell_length_c	21.3108
_cell_angle_alpha	90
_cell_angle_beta	90
_cell_angle_gamma	90
loop_
_atom_site_label
_atom_site_type_symbol
_atom_site_fract_x
_atom_site_fract_y
_atom_site_fract_z
_atom_site_charge
Mof_Cu	Cu	0.40677	0.20975	0.57925	0.917
Mof_N 	N 	0.26153	0.13809	0.5918	-0.191
Mof_N 	N 	0.3234	0.16535	0.62457	-0.188
Mof_N 	N 	0.2432	0.12172	0.6908	-0.168
Mof_C 	C 	0.2136	0.1128	0.63234	0.124
Mof_H 	H 	0.1661	0.0917	0.6225	0.016
Mof_C 	C 	0.3117	0.1549	0.68405	0.123
Mof_H 	H 	0.3453	0.1681	0.7167	0.01
Mof_C 	C 	0.2068	0.10126	0.74865	0.214
Mof_C 	C 	0.253	0.0665	0.78655	-0.243
Mof_H 	H 	0.3082	0.057	0.7761	0.122
Mof_C 	C 	0.2162	0.04593	0.84044	0.132
Mof_H 	H 	0.2463	0.0218	0.8663	-0.017
Mof_C 	C 	0.1344	0.06116	0.85612	-0.2
Mof_C 	C 	0.1262	0.118	0.7642	-0.247
Mof_H 	H 	0.0965	0.1424	0.7385	0.16
Mof_C 	C 	0.0903	0.0978	0.8185	0.138
Mof_H 	H 	0.036	0.1089	0.8298	0.011
Mof_C 	C 	0.0918	0.0381	0.91296	0.378
Mof_O 	O 	0.1186	0.99316	0.93525	-0.419
Mof_O 	O 	0.02976	0.06547	0.93381	-0.41
Mof_N 	N 	0.4935	0.24993	0.53182	-0.19
Mof_C 	C 	0.561	0.27657	0.5499	0.188
Mof_H 	H 	0.5764	0.2828	0.5915	-0.032
Mof_Cl	Cl	0.4238	0.26706	0.66317	-0.439
Mof_C 	C 	0.6882	0.3193	0.4802	0.678
Mof_C 	C 	0.8478	0.3616	0.4668	-1.745
Mof_C 	C 	0.7309	0.311	0.4245	-0.524
Mof_H 	H 	0.7057	0.2915	0.3917	0.185
Mof_C 	C 	0.8114	0.3321	0.4184	0.697
Mof_H 	H 	0.8414	0.3264	0.3815	-0.195
Mof_O 	O 	0.9797	0.3678	0.411	-0.62
Mof_C 	C 	0.9412	0.3786	0.4618	1.173
Mof_C 	C 	0.722	0.3484	0.4708	-1.12
Mof_H 	H 	0.6916	0.3536	0.4339	0.389
Mof_C 	C 	0.8032	0.3702	0.4776	1.385
Mof_H 	H 	0.8276	0.3904	0.445	0.087
Mof_O 	O 	0.9864	0.3515	0.3752	0.162
Mof_Cu	Cu	0.90677	0.70975	0.57925	0.918
Mof_N 	N 	0.76153	0.63809	0.5918	-0.19
Mof_N 	N 	0.8234	0.66535	0.62457	-0.187
Mof_N 	N 	0.7432	0.62172	0.6908	-0.167
Mof_C 	C 	0.7136	0.6128	0.63234	0.125
Mof_H 	H 	0.6661	0.5917	0.6225	0.017
Mof_C 	C 	0.8117	0.6549	0.68405	0.124
Mof_H 	H 	0.8453	0.6681	0.7167	0.011
Mof_C 	C 	0.7068	0.60126	0.74865	0.215
Mof_C 	C 	0.753	0.5665	0.78655	-0.242
Mof_H 	H 	0.8082	0.557	0.7761	0.123
Mof_C 	C 	0.7162	0.54593	0.84044	0.133
Mof_H 	H 	0.7463	0.5218	0.8663	-0.016
Mof_C 	C 	0.6344	0.56116	0.85612	-0.199
Mof_C 	C 	0.6262	0.618	0.7642	-0.246
Mof_H 	H 	0.5965	0.6424	0.7385	0.161
Mof_C 	C 	0.5903	0.5978	0.8185	0.139
Mof_H 	H 	0.536	0.6089	0.8298	0.012
Mof_C 	C 	0.5918	0.5381	0.91296	0.378
Mof_O 	O 	0.6186	0.49316	0.93525	-0.419
Mof_O 	O 	0.52976	0.56547	0.93381	-0.41
Mof_N 	N 	0.9935	0.74993	0.53182	-0.19
Mof_C 	C 	0.061	0.77657	0.5499	0.188
Mof_H 	H 	0.0764	0.7828	0.5915	-0.032
Mof_Cl	Cl	0.9238	0.76706	0.66317	-0.439
Mof_C 	C 	0.1882	0.8193	0.4802	0.678
Mof_C 	C 	0.3478	0.8616	0.4668	-1.745
Mof_C 	C 	0.2309	0.811	0.4245	-0.524
Mof_H 	H 	0.2057	0.7915	0.3917	0.185
Mof_C 	C 	0.3114	0.8321	0.4184	0.697
Mof_H 	H 	0.3414	0.8264	0.3815	-0.195
Mof_O 	O 	0.4797	0.8678	0.411	-0.619
Mof_C 	C 	0.4412	0.8786	0.4618	1.173
Mof_C 	C 	0.222	0.8484	0.4708	-1.119
Mof_H 	H 	0.1916	0.8536	0.4339	0.389
Mof_C 	C 	0.3032	0.8702	0.4776	1.385
Mof_H 	H 	0.3276	0.8904	0.445	0.087
Mof_O 	O 	0.4864	0.8515	0.3752	0.162
Mof_Cu	Cu	0.59323	0.79025	0.57925	0.918
Mof_N 	N 	0.73847	0.86191	0.5918	-0.19
Mof_N 	N 	0.6766	0.83465	0.62457	-0.187
Mof_N 	N 	0.7568	0.87828	0.6908	-0.167
Mof_C 	C 	0.7864	0.8872	0.63234	0.125
Mof_H 	H 	0.8339	0.9083	0.6225	0.017
Mof_C 	C 	0.6883	0.8451	0.68405	0.124
Mof_H 	H 	0.6547	0.8319	0.7167	0.011
Mof_C 	C 	0.7932	0.89874	0.74865	0.215
Mof_C 	C 	0.747	0.9335	0.78655	-0.242
Mof_H 	H 	0.6918	0.943	0.7761	0.123
Mof_C 	C 	0.7838	0.95407	0.84044	0.133
Mof_H 	H 	0.7537	0.9782	0.8663	-0.016
Mof_C 	C 	0.8656	0.93884	0.85612	-0.199
Mof_C 	C 	0.8738	0.882	0.7642	-0.246
Mof_H 	H 	0.9035	0.8576	0.7385	0.161
Mof_C 	C 	0.9097	0.9022	0.8185	0.139
Mof_H 	H 	0.964	0.8911	0.8298	0.012
Mof_C 	C 	0.9082	0.9619	0.91296	0.378
Mof_O 	O 	0.8814	0.00684	0.93525	-0.419
Mof_O 	O 	0.97024	0.93453	0.93381	-0.41
Mof_N 	N 	0.5065	0.75007	0.53182	-0.19
Mof_C 	C 	0.439	0.72343	0.5499	0.188
Mof_H 	H 	0.4236	0.7172	0.5915	-0.032
Mof_Cl	Cl	0.5762	0.73294	0.66317	-0.439
Mof_C 	C 	0.3118	0.6807	0.4802	0.678
Mof_C 	C 	0.1522	0.6384	0.4668	-1.745
Mof_C 	C 	0.2691	0.689	0.4245	-0.524
Mof_H 	H 	0.2943	0.7085	0.3917	0.185
Mof_C 	C 	0.1886	0.6679	0.4184	0.697
Mof_H 	H 	0.1586	0.6736	0.3815	-0.195
Mof_O 	O 	0.0203	0.6322	0.411	-0.62
Mof_C 	C 	0.0588	0.6214	0.4618	1.173
Mof_C 	C 	0.278	0.6516	0.4708	-1.12
Mof_H 	H 	0.3084	0.6464	0.4339	0.389
Mof_C 	C 	0.1968	0.6298	0.4776	1.385
Mof_H 	H 	0.1724	0.6096	0.445	0.087
Mof_O 	O 	0.0136	0.6485	0.3752	0.162
Mof_Cu	Cu	0.09323	0.29025	0.57925	0.918
Mof_N 	N 	0.23847	0.36191	0.5918	-0.19
Mof_N 	N 	0.1766	0.33465	0.62457	-0.187
Mof_N 	N 	0.2568	0.37828	0.6908	-0.167
Mof_C 	C 	0.2864	0.3872	0.63234	0.125
Mof_H 	H 	0.3339	0.4083	0.6225	0.017
Mof_C 	C 	0.1883	0.3451	0.68405	0.124
Mof_H 	H 	0.1547	0.3319	0.7167	0.011
Mof_C 	C 	0.2932	0.39874	0.74865	0.215
Mof_C 	C 	0.247	0.4335	0.78655	-0.242
Mof_H 	H 	0.1918	0.443	0.7761	0.123
Mof_C 	C 	0.2838	0.45407	0.84044	0.133
Mof_H 	H 	0.2537	0.4782	0.8663	-0.016
Mof_C 	C 	0.3656	0.43884	0.85612	-0.199
Mof_C 	C 	0.3738	0.382	0.7642	-0.246
Mof_H 	H 	0.4035	0.3576	0.7385	0.161
Mof_C 	C 	0.4097	0.4022	0.8185	0.139
Mof_H 	H 	0.464	0.3911	0.8298	0.012
Mof_C 	C 	0.4082	0.4619	0.91296	0.378
Mof_O 	O 	0.3814	0.50684	0.93525	-0.419
Mof_O 	O 	0.47024	0.43453	0.93381	-0.41
Mof_N 	N 	0.0065	0.25007	0.53182	-0.19
Mof_C 	C 	0.939	0.22343	0.5499	0.188
Mof_H 	H 	0.9236	0.2172	0.5915	-0.032
Mof_Cl	Cl	0.0762	0.23294	0.66317	-0.439
Mof_C 	C 	0.8118	0.1807	0.4802	0.678
Mof_C 	C 	0.6522	0.1384	0.4668	-1.745
Mof_C 	C 	0.7691	0.189	0.4245	-0.524
Mof_H 	H 	0.7943	0.2085	0.3917	0.185
Mof_C 	C 	0.6886	0.1679	0.4184	0.697
Mof_H 	H 	0.6586	0.1736	0.3815	-0.195
Mof_O 	O 	0.5203	0.1322	0.411	-0.619
Mof_C 	C 	0.5588	0.1214	0.4618	1.173
Mof_C 	C 	0.778	0.1516	0.4708	-1.119
Mof_H 	H 	0.8084	0.1464	0.4339	0.389
Mof_C 	C 	0.6968	0.1298	0.4776	1.385
Mof_H 	H 	0.6724	0.1096	0.445	0.087
Mof_O 	O 	0.5136	0.1485	0.3752	0.162
Mof_Cu	Cu	0.59323	0.20975	0.92075	0.91
Mof_N 	N 	0.73847	0.13809	0.9082	-0.2
Mof_N 	N 	0.6766	0.16535	0.87543	-0.191
Mof_N 	N 	0.7568	0.12172	0.8092	-0.167
Mof_C 	C 	0.7864	0.1128	0.86766	0.123
Mof_H 	H 	0.8339	0.0917	0.8775	0.013
Mof_C 	C 	0.6883	0.1549	0.81595	0.124
Mof_H 	H 	0.6547	0.1681	0.7833	0.011
Mof_C 	C 	0.7932	0.10126	0.75135	0.213
Mof_C 	C 	0.747	0.0665	0.71345	-0.239
Mof_H 	H 	0.6918	0.057	0.7239	0.122
Mof_C 	C 	0.7838	0.04593	0.65956	0.128
Mof_H 	H 	0.7537	0.0218	0.6337	-0.012
Mof_C 	C 	0.8656	0.06116	0.64388	-0.194
Mof_C 	C 	0.8738	0.118	0.7358	-0.243
Mof_H 	H 	0.9035	0.1424	0.7615	0.16
Mof_C 	C 	0.9097	0.0978	0.6815	0.135
Mof_H 	H 	0.964	0.1089	0.6702	0.014
Mof_C 	C 	0.9082	0.0381	0.58704	0.373
Mof_O 	O 	0.8814	0.99316	0.56475	-0.405
Mof_O 	O 	0.97024	0.06547	0.56619	-0.395
Mof_N 	N 	0.5065	0.24993	0.96818	-0.199
Mof_C 	C 	0.439	0.27657	0.9501	0.147
Mof_H 	H 	0.4236	0.2828	0.9085	-0.018
Mof_Cl	Cl	0.5762	0.26706	0.83683	-0.442
Mof_C 	C 	0.3118	0.3193	0.0198	0.602
Mof_C 	C 	0.1522	0.3616	0.0332	-1.578
Mof_C 	C 	0.2691	0.311	0.0755	-0.507
Mof_H 	H 	0.2943	0.2915	0.1083	0.186
Mof_C 	C 	0.1886	0.3321	0.0816	0.622
Mof_H 	H 	0.1586	0.3264	0.1185	-0.167
Mof_O 	O 	0.0203	0.3678	0.089	-0.587
Mof_C 	C 	0.0588	0.3786	0.0382	1.097
Mof_C 	C 	0.278	0.3484	0.0292	-0.902
Mof_H 	H 	0.3084	0.3536	0.0661	0.326
Mof_C 	C 	0.1968	0.3702	0.0224	1.28
Mof_H 	H 	0.1724	0.3904	0.055	0.076
Mof_O 	O 	0.0136	0.3515	0.1248	0.143
Mof_Cu	Cu	0.09323	0.70975	0.92075	0.91
Mof_N 	N 	0.23847	0.63809	0.9082	-0.2
Mof_N 	N 	0.1766	0.66535	0.87543	-0.191
Mof_N 	N 	0.2568	0.62172	0.8092	-0.167
Mof_C 	C 	0.2864	0.6128	0.86766	0.123
Mof_H 	H 	0.3339	0.5917	0.8775	0.013
Mof_C 	C 	0.1883	0.6549	0.81595	0.124
Mof_H 	H 	0.1547	0.6681	0.7833	0.011
Mof_C 	C 	0.2932	0.60126	0.75135	0.213
Mof_C 	C 	0.247	0.5665	0.71345	-0.239
Mof_H 	H 	0.1918	0.557	0.7239	0.122
Mof_C 	C 	0.2838	0.54593	0.65956	0.127
Mof_H 	H 	0.2537	0.5218	0.6337	-0.012
Mof_C 	C 	0.3656	0.56116	0.64388	-0.194
Mof_C 	C 	0.3738	0.618	0.7358	-0.243
Mof_H 	H 	0.4035	0.6424	0.7615	0.16
Mof_C 	C 	0.4097	0.5978	0.6815	0.135
Mof_H 	H 	0.464	0.6089	0.6702	0.015
Mof_C 	C 	0.4082	0.5381	0.58704	0.373
Mof_O 	O 	0.3814	0.49316	0.56475	-0.405
Mof_O 	O 	0.47024	0.56547	0.56619	-0.395
Mof_N 	N 	0.0065	0.74993	0.96818	-0.199
Mof_C 	C 	0.939	0.77657	0.9501	0.148
Mof_H 	H 	0.9236	0.7828	0.9085	-0.018
Mof_Cl	Cl	0.0762	0.76706	0.83683	-0.443
Mof_C 	C 	0.8118	0.8193	0.0198	0.602
Mof_C 	C 	0.6522	0.8616	0.0332	-1.576
Mof_C 	C 	0.7691	0.811	0.0755	-0.506
Mof_H 	H 	0.7943	0.7915	0.1083	0.186
Mof_C 	C 	0.6886	0.8321	0.0816	0.621
Mof_H 	H 	0.6586	0.8264	0.1185	-0.167
Mof_O 	O 	0.5203	0.8678	0.089	-0.586
Mof_C 	C 	0.5588	0.8786	0.0382	1.097
Mof_C 	C 	0.778	0.8484	0.0292	-0.903
Mof_H 	H 	0.8084	0.8536	0.0661	0.327
Mof_C 	C 	0.6968	0.8702	0.0224	1.279
Mof_H 	H 	0.6724	0.8904	0.055	0.075
Mof_O 	O 	0.5136	0.8515	0.1248	0.143
Mof_Cu	Cu	0.40677	0.79025	0.92075	0.91
Mof_N 	N 	0.26153	0.86191	0.9082	-0.2
Mof_N 	N 	0.3234	0.83465	0.87543	-0.191
Mof_N 	N 	0.2432	0.87828	0.8092	-0.167
Mof_C 	C 	0.2136	0.8872	0.86766	0.123
Mof_H 	H 	0.1661	0.9083	0.8775	0.013
Mof_C 	C 	0.3117	0.8451	0.81595	0.124
Mof_H 	H 	0.3453	0.8319	0.7833	0.011
Mof_C 	C 	0.2068	0.89874	0.75135	0.213
Mof_C 	C 	0.253	0.9335	0.71345	-0.239
Mof_H 	H 	0.3082	0.943	0.7239	0.122
Mof_C 	C 	0.2162	0.95407	0.65956	0.128
Mof_H 	H 	0.2463	0.9782	0.6337	-0.012
Mof_C 	C 	0.1344	0.93884	0.64388	-0.194
Mof_C 	C 	0.1262	0.882	0.7358	-0.243
Mof_H 	H 	0.0965	0.8576	0.7615	0.16
Mof_C 	C 	0.0903	0.9022	0.6815	0.135
Mof_H 	H 	0.036	0.8911	0.6702	0.014
Mof_C 	C 	0.0918	0.9619	0.58704	0.373
Mof_O 	O 	0.1186	0.00684	0.56475	-0.405
Mof_O 	O 	0.02976	0.93453	0.56619	-0.395
Mof_N 	N 	0.4935	0.75007	0.96818	-0.199
Mof_C 	C 	0.561	0.72343	0.9501	0.147
Mof_H 	H 	0.5764	0.7172	0.9085	-0.018
Mof_Cl	Cl	0.4238	0.73294	0.83683	-0.442
Mof_C 	C 	0.6882	0.6807	0.0198	0.602
Mof_C 	C 	0.8478	0.6384	0.0332	-1.578
Mof_C 	C 	0.7309	0.689	0.0755	-0.507
Mof_H 	H 	0.7057	0.7085	0.1083	0.186
Mof_C 	C 	0.8114	0.6679	0.0816	0.622
Mof_H 	H 	0.8414	0.6736	0.1185	-0.167
Mof_O 	O 	0.9797	0.6322	0.089	-0.587
Mof_C 	C 	0.9412	0.6214	0.0382	1.097
Mof_C 	C 	0.722	0.6516	0.0292	-0.902
Mof_H 	H 	0.6916	0.6464	0.0661	0.326
Mof_C 	C 	0.8032	0.6298	0.0224	1.28
Mof_H 	H 	0.8276	0.6096	0.055	0.076
Mof_O 	O 	0.9864	0.6485	0.1248	0.143
Mof_Cu	Cu	0.90677	0.29025	0.92075	0.91
Mof_N 	N 	0.76153	0.36191	0.9082	-0.2
Mof_N 	N 	0.8234	0.33465	0.87543	-0.191
Mof_N 	N 	0.7432	0.37828	0.8092	-0.167
Mof_C 	C 	0.7136	0.3872	0.86766	0.123
Mof_H 	H 	0.6661	0.4083	0.8775	0.013
Mof_C 	C 	0.8117	0.3451	0.81595	0.124
Mof_H 	H 	0.8453	0.3319	0.7833	0.011
Mof_C 	C 	0.7068	0.39874	0.75135	0.213
Mof_C 	C 	0.753	0.4335	0.71345	-0.239
Mof_H 	H 	0.8082	0.443	0.7239	0.122
Mof_C 	C 	0.7162	0.45407	0.65956	0.127
Mof_H 	H 	0.7463	0.4782	0.6337	-0.012
Mof_C 	C 	0.6344	0.43884	0.64388	-0.194
Mof_C 	C 	0.6262	0.382	0.7358	-0.243
Mof_H 	H 	0.5965	0.3576	0.7615	0.16
Mof_C 	C 	0.5903	0.4022	0.6815	0.135
Mof_H 	H 	0.536	0.3911	0.6702	0.015
Mof_C 	C 	0.5918	0.4619	0.58704	0.373
Mof_O 	O 	0.6186	0.50684	0.56475	-0.405
Mof_O 	O 	0.52976	0.43453	0.56619	-0.395
Mof_N 	N 	0.9935	0.25007	0.96818	-0.199
Mof_C 	C 	0.061	0.22343	0.9501	0.148
Mof_H 	H 	0.0764	0.2172	0.9085	-0.018
Mof_Cl	Cl	0.9238	0.23294	0.83683	-0.443
Mof_C 	C 	0.1882	0.1807	0.0198	0.602
Mof_C 	C 	0.3478	0.1384	0.0332	-1.576
Mof_C 	C 	0.2309	0.189	0.0755	-0.506
Mof_H 	H 	0.2057	0.2085	0.1083	0.186
Mof_C 	C 	0.3114	0.1679	0.0816	0.621
Mof_H 	H 	0.3414	0.1736	0.1185	-0.167
Mof_O 	O 	0.4797	0.1322	0.089	-0.586
Mof_C 	C 	0.4412	0.1214	0.0382	1.097
Mof_C 	C 	0.222	0.1516	0.0292	-0.903
Mof_H 	H 	0.1916	0.1464	0.0661	0.327
Mof_C 	C 	0.3032	0.1298	0.0224	1.279
Mof_H 	H 	0.3276	0.1096	0.055	0.075
Mof_O 	O 	0.4864	0.1485	0.1248	0.143
Mof_Cu	Cu	0.59323	0.79025	0.42075	0.918
Mof_N 	N 	0.73847	0.86191	0.4082	-0.19
Mof_N 	N 	0.6766	0.83465	0.37543	-0.187
Mof_N 	N 	0.7568	0.87828	0.3092	-0.166
Mof_C 	C 	0.7864	0.8872	0.36766	0.125
Mof_H 	H 	0.8339	0.9083	0.3775	0.017
Mof_C 	C 	0.6883	0.8451	0.31595	0.124
Mof_H 	H 	0.6547	0.8319	0.2833	0.011
Mof_C 	C 	0.7932	0.89874	0.25135	0.213
Mof_C 	C 	0.747	0.9335	0.21345	-0.238
Mof_H 	H 	0.6918	0.943	0.2239	0.122
Mof_C 	C 	0.7838	0.95407	0.15956	0.128
Mof_H 	H 	0.7537	0.9782	0.1337	-0.01
Mof_C 	C 	0.8656	0.93884	0.14388	-0.191
Mof_C 	C 	0.8738	0.882	0.2358	-0.242
Mof_H 	H 	0.9035	0.8576	0.2615	0.16
Mof_C 	C 	0.9097	0.9022	0.1815	0.135
Mof_H 	H 	0.964	0.8911	0.1702	0.015
Mof_C 	C 	0.9082	0.9619	0.08704	0.374
Mof_O 	O 	0.8814	0.00684	0.06475	-0.399
Mof_O 	O 	0.97024	0.93453	0.06619	-0.39
Mof_N 	N 	0.5065	0.75007	0.46818	-0.19
Mof_C 	C 	0.439	0.72343	0.4501	0.188
Mof_H 	H 	0.4236	0.7172	0.4085	-0.032
Mof_Cl	Cl	0.5762	0.73294	0.33683	-0.439
Mof_C 	C 	0.3118	0.6807	0.5198	0.678
Mof_C 	C 	0.1522	0.6384	0.5332	-1.745
Mof_C 	C 	0.2691	0.689	0.5755	-0.524
Mof_H 	H 	0.2943	0.7085	0.6083	0.185
Mof_C 	C 	0.1886	0.6679	0.5816	0.697
Mof_H 	H 	0.1586	0.6736	0.6185	-0.195
Mof_O 	O 	0.0203	0.6322	0.589	-0.62
Mof_C 	C 	0.0588	0.6214	0.5382	1.173
Mof_C 	C 	0.278	0.6516	0.5292	-1.12
Mof_H 	H 	0.3084	0.6464	0.5661	0.389
Mof_C 	C 	0.1968	0.6298	0.5224	1.385
Mof_H 	H 	0.1724	0.6096	0.555	0.087
Mof_O 	O 	0.0136	0.6485	0.6248	0.162
Mof_Cu	Cu	0.09323	0.29025	0.42075	0.918
Mof_N 	N 	0.23847	0.36191	0.4082	-0.19
Mof_N 	N 	0.1766	0.33465	0.37543	-0.187
Mof_N 	N 	0.2568	0.37828	0.3092	-0.166
Mof_C 	C 	0.2864	0.3872	0.36766	0.125
Mof_H 	H 	0.3339	0.4083	0.3775	0.017
Mof_C 	C 	0.1883	0.3451	0.31595	0.124
Mof_H 	H 	0.1547	0.3319	0.2833	0.011
Mof_C 	C 	0.2932	0.39874	0.25135	0.213
Mof_C 	C 	0.247	0.4335	0.21345	-0.238
Mof_H 	H 	0.1918	0.443	0.2239	0.122
Mof_C 	C 	0.2838	0.45407	0.15956	0.128
Mof_H 	H 	0.2537	0.4782	0.1337	-0.009
Mof_C 	C 	0.3656	0.43884	0.14388	-0.191
Mof_C 	C 	0.3738	0.382	0.2358	-0.242
Mof_H 	H 	0.4035	0.3576	0.2615	0.16
Mof_C 	C 	0.4097	0.4022	0.1815	0.135
Mof_H 	H 	0.464	0.3911	0.1702	0.015
Mof_C 	C 	0.4082	0.4619	0.08704	0.374
Mof_O 	O 	0.3814	0.50684	0.06475	-0.399
Mof_O 	O 	0.47024	0.43453	0.06619	-0.39
Mof_N 	N 	0.0065	0.25007	0.46818	-0.19
Mof_C 	C 	0.939	0.22343	0.4501	0.188
Mof_H 	H 	0.9236	0.2172	0.4085	-0.032
Mof_Cl	Cl	0.0762	0.23294	0.33683	-0.439
Mof_C 	C 	0.8118	0.1807	0.5198	0.678
Mof_C 	C 	0.6522	0.1384	0.5332	-1.745
Mof_C 	C 	0.7691	0.189	0.5755	-0.524
Mof_H 	H 	0.7943	0.2085	0.6083	0.185
Mof_C 	C 	0.6886	0.1679	0.5816	0.697
Mof_H 	H 	0.6586	0.1736	0.6185	-0.195
Mof_O 	O 	0.5203	0.1322	0.589	-0.619
Mof_C 	C 	0.5588	0.1214	0.5382	1.173
Mof_C 	C 	0.778	0.1516	0.5292	-1.119
Mof_H 	H 	0.8084	0.1464	0.5661	0.389
Mof_C 	C 	0.6968	0.1298	0.5224	1.385
Mof_H 	H 	0.6724	0.1096	0.555	0.087
Mof_O 	O 	0.5136	0.1485	0.6248	0.162
Mof_Cu	Cu	0.40677	0.20975	0.42075	0.918
Mof_N 	N 	0.26153	0.13809	0.4082	-0.19
Mof_N 	N 	0.3234	0.16535	0.37543	-0.187
Mof_N 	N 	0.2432	0.12172	0.3092	-0.166
Mof_C 	C 	0.2136	0.1128	0.36766	0.125
Mof_H 	H 	0.1661	0.0917	0.3775	0.017
Mof_C 	C 	0.3117	0.1549	0.31595	0.124
Mof_H 	H 	0.3453	0.1681	0.2833	0.011
Mof_C 	C 	0.2068	0.10126	0.25135	0.213
Mof_C 	C 	0.253	0.0665	0.21345	-0.238
Mof_H 	H 	0.3082	0.057	0.2239	0.122
Mof_C 	C 	0.2162	0.04593	0.15956	0.128
Mof_H 	H 	0.2463	0.0218	0.1337	-0.01
Mof_C 	C 	0.1344	0.06116	0.14388	-0.191
Mof_C 	C 	0.1262	0.118	0.2358	-0.242
Mof_H 	H 	0.0965	0.1424	0.2615	0.16
Mof_C 	C 	0.0903	0.0978	0.1815	0.135
Mof_H 	H 	0.036	0.1089	0.1702	0.015
Mof_C 	C 	0.0918	0.0381	0.08704	0.374
Mof_O 	O 	0.1186	0.99316	0.06475	-0.399
Mof_O 	O 	0.02976	0.06547	0.06619	-0.39
Mof_N 	N 	0.4935	0.24993	0.46818	-0.19
Mof_C 	C 	0.561	0.27657	0.4501	0.188
Mof_H 	H 	0.5764	0.2828	0.4085	-0.032
Mof_Cl	Cl	0.4238	0.26706	0.33683	-0.439
Mof_C 	C 	0.6882	0.3193	0.5198	0.678
Mof_C 	C 	0.8478	0.3616	0.5332	-1.745
Mof_C 	C 	0.7309	0.311	0.5755	-0.524
Mof_H 	H 	0.7057	0.2915	0.6083	0.185
Mof_C 	C 	0.8114	0.3321	0.5816	0.697
Mof_H 	H 	0.8414	0.3264	0.6185	-0.195
Mof_O 	O 	0.9797	0.3678	0.589	-0.62
Mof_C 	C 	0.9412	0.3786	0.5382	1.173
Mof_C 	C 	0.722	0.3484	0.5292	-1.12
Mof_H 	H 	0.6916	0.3536	0.5661	0.389
Mof_C 	C 	0.8032	0.3702	0.5224	1.385
Mof_H 	H 	0.8276	0.3904	0.555	0.087
Mof_O 	O 	0.9864	0.3515	0.6248	0.162
Mof_Cu	Cu	0.90677	0.70975	0.42075	0.918
Mof_N 	N 	0.76153	0.63809	0.4082	-0.19
Mof_N 	N 	0.8234	0.66535	0.37543	-0.187
Mof_N 	N 	0.7432	0.62172	0.3092	-0.166
Mof_C 	C 	0.7136	0.6128	0.36766	0.125
Mof_H 	H 	0.6661	0.5917	0.3775	0.017
Mof_C 	C 	0.8117	0.6549	0.31595	0.124
Mof_H 	H 	0.8453	0.6681	0.2833	0.011
Mof_C 	C 	0.7068	0.60126	0.25135	0.213
Mof_C 	C 	0.753	0.5665	0.21345	-0.238
Mof_H 	H 	0.8082	0.557	0.2239	0.122
Mof_C 	C 	0.7162	0.54593	0.15956	0.128
Mof_H 	H 	0.7463	0.5218	0.1337	-0.009
Mof_C 	C 	0.6344	0.56116	0.14388	-0.191
Mof_C 	C 	0.6262	0.618	0.2358	-0.242
Mof_H 	H 	0.5965	0.6424	0.2615	0.16
Mof_C 	C 	0.5903	0.5978	0.1815	0.135
Mof_H 	H 	0.536	0.6089	0.1702	0.015
Mof_C 	C 	0.5918	0.5381	0.08704	0.374
Mof_O 	O 	0.6186	0.49316	0.06475	-0.399
Mof_O 	O 	0.52976	0.56547	0.06619	-0.39
Mof_N 	N 	0.9935	0.74993	0.46818	-0.19
Mof_C 	C 	0.061	0.77657	0.4501	0.188
Mof_H 	H 	0.0764	0.7828	0.4085	-0.032
Mof_Cl	Cl	0.9238	0.76706	0.33683	-0.439
Mof_C 	C 	0.1882	0.8193	0.5198	0.678
Mof_C 	C 	0.3478	0.8616	0.5332	-1.745
Mof_C 	C 	0.2309	0.811	0.5755	-0.524
Mof_H 	H 	0.2057	0.7915	0.6083	0.185
Mof_C 	C 	0.3114	0.8321	0.5816	0.697
Mof_H 	H 	0.3414	0.8264	0.6185	-0.195
Mof_O 	O 	0.4797	0.8678	0.589	-0.619
Mof_C 	C 	0.4412	0.8786	0.5382	1.173
Mof_C 	C 	0.222	0.8484	0.5292	-1.119
Mof_H 	H 	0.1916	0.8536	0.5661	0.389
Mof_C 	C 	0.3032	0.8702	0.5224	1.385
Mof_H 	H 	0.3276	0.8904	0.555	0.087
Mof_O 	O 	0.4864	0.8515	0.6248	0.162
Mof_Cu	Cu	0.40677	0.79025	0.07925	0.919
Mof_N 	N 	0.26153	0.86191	0.0918	-0.19
Mof_N 	N 	0.3234	0.83465	0.12457	-0.188
Mof_N 	N 	0.2432	0.87828	0.1908	-0.167
Mof_C 	C 	0.2136	0.8872	0.13234	0.126
Mof_H 	H 	0.1661	0.9083	0.1225	0.016
Mof_C 	C 	0.3117	0.8451	0.18405	0.125
Mof_H 	H 	0.3453	0.8319	0.2167	0.011
Mof_C 	C 	0.2068	0.89874	0.24865	0.213
Mof_C 	C 	0.253	0.9335	0.28655	-0.24
Mof_H 	H 	0.3082	0.943	0.2761	0.123
Mof_C 	C 	0.2162	0.95407	0.34044	0.128
Mof_H 	H 	0.2463	0.9782	0.3663	-0.012
Mof_C 	C 	0.1344	0.93884	0.35612	-0.195
Mof_C 	C 	0.1262	0.882	0.2642	-0.244
Mof_H 	H 	0.0965	0.8576	0.2385	0.16
Mof_C 	C 	0.0903	0.9022	0.3185	0.135
Mof_H 	H 	0.036	0.8911	0.3298	0.014
Mof_C 	C 	0.0918	0.9619	0.41296	0.373
Mof_O 	O 	0.1186	0.00684	0.43525	-0.405
Mof_O 	O 	0.02976	0.93453	0.43381	-0.395
Mof_N 	N 	0.4935	0.75007	0.03182	-0.178
Mof_C 	C 	0.561	0.72343	0.0499	0.186
Mof_H 	H 	0.5764	0.7172	0.0915	-0.028
Mof_Cl	Cl	0.4238	0.73294	0.16317	-0.439
Mof_C 	C 	0.6882	0.6807	0.9802	0.628
Mof_C 	C 	0.8478	0.6384	0.9668	-1.606
Mof_C 	C 	0.7309	0.689	0.9245	-0.464
Mof_H 	H 	0.7057	0.7085	0.8917	0.162
Mof_C 	C 	0.8114	0.6679	0.9184	0.642
Mof_H 	H 	0.8414	0.6736	0.8815	-0.176
Mof_O 	O 	0.9797	0.6322	0.911	-0.572
Mof_C 	C 	0.9412	0.6214	0.9618	1.043
Mof_C 	C 	0.722	0.6516	0.9708	-1.137
Mof_H 	H 	0.6916	0.6464	0.9339	0.392
Mof_C 	C 	0.8032	0.6298	0.9776	1.24
Mof_H 	H 	0.8276	0.6096	0.945	0.093
Mof_O 	O 	0.9864	0.6485	0.8752	0.132
Mof_Cu	Cu	0.90677	0.29025	0.07925	0.919
Mof_N 	N 	0.76153	0.36191	0.0918	-0.19
Mof_N 	N 	0.8234	0.33465	0.12457	-0.188
Mof_N 	N 	0.7432	0.37828	0.1908	-0.167
Mof_C 	C 	0.7136	0.3872	0.13234	0.126
Mof_H 	H 	0.6661	0.4083	0.1225	0.016
Mof_C 	C 	0.8117	0.3451	0.18405	0.125
Mof_H 	H 	0.8453	0.3319	0.2167	0.011
Mof_C 	C 	0.7068	0.39874	0.24865	0.213
Mof_C 	C 	0.753	0.4335	0.28655	-0.239
Mof_H 	H 	0.8082	0.443	0.2761	0.122
Mof_C 	C 	0.7162	0.45407	0.34044	0.128
Mof_H 	H 	0.7463	0.4782	0.3663	-0.012
Mof_C 	C 	0.6344	0.43884	0.35612	-0.195
Mof_C 	C 	0.6262	0.382	0.2642	-0.244
Mof_H 	H 	0.5965	0.3576	0.2385	0.16
Mof_C 	C 	0.5903	0.4022	0.3185	0.135
Mof_H 	H 	0.536	0.3911	0.3298	0.014
Mof_C 	C 	0.5918	0.4619	0.41296	0.373
Mof_O 	O 	0.6186	0.50684	0.43525	-0.405
Mof_O 	O 	0.52976	0.43453	0.43381	-0.395
Mof_N 	N 	0.9935	0.25007	0.03182	-0.179
Mof_C 	C 	0.061	0.22343	0.0499	0.186
Mof_H 	H 	0.0764	0.2172	0.0915	-0.028
Mof_Cl	Cl	0.9238	0.23294	0.16317	-0.439
Mof_C 	C 	0.1882	0.1807	0.9802	0.628
Mof_C 	C 	0.3478	0.1384	0.9668	-1.605
Mof_C 	C 	0.2309	0.189	0.9245	-0.464
Mof_H 	H 	0.2057	0.2085	0.8917	0.162
Mof_C 	C 	0.3114	0.1679	0.9184	0.642
Mof_H 	H 	0.3414	0.1736	0.8815	-0.176
Mof_O 	O 	0.4797	0.1322	0.911	-0.572
Mof_C 	C 	0.4412	0.1214	0.9618	1.042
Mof_C 	C 	0.222	0.1516	0.9708	-1.136
Mof_H 	H 	0.1916	0.1464	0.9339	0.392
Mof_C 	C 	0.3032	0.1298	0.9776	1.239
Mof_H 	H 	0.3276	0.1096	0.945	0.093
Mof_O 	O 	0.4864	0.1485	0.8752	0.132
Mof_Cu	Cu	0.59323	0.20975	0.07925	0.919
Mof_N 	N 	0.73847	0.13809	0.0918	-0.19
Mof_N 	N 	0.6766	0.16535	0.12457	-0.188
Mof_N 	N 	0.7568	0.12172	0.1908	-0.167
Mof_C 	C 	0.7864	0.1128	0.13234	0.126
Mof_H 	H 	0.8339	0.0917	0.1225	0.016
Mof_C 	C 	0.6883	0.1549	0.18405	0.125
Mof_H 	H 	0.6547	0.1681	0.2167	0.011
Mof_C 	C 	0.7932	0.10126	0.24865	0.213
Mof_C 	C 	0.747	0.0665	0.28655	-0.24
Mof_H 	H 	0.6918	0.057	0.2761	0.123
Mof_C 	C 	0.7838	0.04593	0.34044	0.128
Mof_H 	H 	0.7537	0.0218	0.3663	-0.012
Mof_C 	C 	0.8656	0.06116	0.35612	-0.195
Mof_C 	C 	0.8738	0.118	0.2642	-0.244
Mof_H 	H 	0.9035	0.1424	0.2385	0.16
Mof_C 	C 	0.9097	0.0978	0.3185	0.135
Mof_H 	H 	0.964	0.1089	0.3298	0.014
Mof_C 	C 	0.9082	0.0381	0.41296	0.373
Mof_O 	O 	0.8814	0.99316	0.43525	-0.405
Mof_O 	O 	0.97024	0.06547	0.43381	-0.395
Mof_N 	N 	0.5065	0.24993	0.03182	-0.178
Mof_C 	C 	0.439	0.27657	0.0499	0.186
Mof_H 	H 	0.4236	0.2828	0.0915	-0.028
Mof_Cl	Cl	0.5762	0.26706	0.16317	-0.439
Mof_C 	C 	0.3118	0.3193	0.9802	0.628
Mof_C 	C 	0.1522	0.3616	0.9668	-1.606
Mof_C 	C 	0.2691	0.311	0.9245	-0.464
Mof_H 	H 	0.2943	0.2915	0.8917	0.162
Mof_C 	C 	0.1886	0.3321	0.9184	0.642
Mof_H 	H 	0.1586	0.3264	0.8815	-0.176
Mof_O 	O 	0.0203	0.3678	0.911	-0.572
Mof_C 	C 	0.0588	0.3786	0.9618	1.043
Mof_C 	C 	0.278	0.3484	0.9708	-1.137
Mof_H 	H 	0.3084	0.3536	0.9339	0.392
Mof_C 	C 	0.1968	0.3702	0.9776	1.24
Mof_H 	H 	0.1724	0.3904	0.945	0.093
Mof_O 	O 	0.0136	0.3515	0.8752	0.132
Mof_Cu	Cu	0.09323	0.70975	0.07925	0.919
Mof_N 	N 	0.23847	0.63809	0.0918	-0.19
Mof_N 	N 	0.1766	0.66535	0.12457	-0.188
Mof_N 	N 	0.2568	0.62172	0.1908	-0.167
Mof_C 	C 	0.2864	0.6128	0.13234	0.126
Mof_H 	H 	0.3339	0.5917	0.1225	0.016
Mof_C 	C 	0.1883	0.6549	0.18405	0.125
Mof_H 	H 	0.1547	0.6681	0.2167	0.011
Mof_C 	C 	0.2932	0.60126	0.24865	0.213
Mof_C 	C 	0.247	0.5665	0.28655	-0.239
Mof_H 	H 	0.1918	0.557	0.2761	0.122
Mof_C 	C 	0.2838	0.54593	0.34044	0.128
Mof_H 	H 	0.2537	0.5218	0.3663	-0.012
Mof_C 	C 	0.3656	0.56116	0.35612	-0.195
Mof_C 	C 	0.3738	0.618	0.2642	-0.244
Mof_H 	H 	0.4035	0.6424	0.2385	0.16
Mof_C 	C 	0.4097	0.5978	0.3185	0.135
Mof_H 	H 	0.464	0.6089	0.3298	0.014
Mof_C 	C 	0.4082	0.5381	0.41296	0.373
Mof_O 	O 	0.3814	0.49316	0.43525	-0.405
Mof_O 	O 	0.47024	0.56547	0.43381	-0.395
Mof_N 	N 	0.0065	0.74993	0.03182	-0.179
Mof_C 	C 	0.939	0.77657	0.0499	0.186
Mof_H 	H 	0.9236	0.7828	0.0915	-0.028
Mof_Cl	Cl	0.0762	0.76706	0.16317	-0.439
Mof_C 	C 	0.8118	0.8193	0.9802	0.628
Mof_C 	C 	0.6522	0.8616	0.9668	-1.605
Mof_C 	C 	0.7691	0.811	0.9245	-0.464
Mof_H 	H 	0.7943	0.7915	0.8917	0.162
Mof_C 	C 	0.6886	0.8321	0.9184	0.642
Mof_H 	H 	0.6586	0.8264	0.8815	-0.176
Mof_O 	O 	0.5203	0.8678	0.911	-0.572
Mof_C 	C 	0.5588	0.8786	0.9618	1.042
Mof_C 	C 	0.778	0.8484	0.9708	-1.136
Mof_H 	H 	0.8084	0.8536	0.9339	0.392
Mof_C 	C 	0.6968	0.8702	0.9776	1.239
Mof_H 	H 	0.6724	0.8904	0.945	0.093
Mof_O 	O 	0.5136	0.8515	0.8752	0.132
Mof_Cu	Cu	0.05001	0.04399	0.5	0.935
Mof_Cu	Cu	0.25872	0.14218	0.5	0.916
Mof_Cl	Cl	0.11491	0.13375	0.5	-0.534
Mof_O 	O 	0.3822	0.16586	0.5	-0.704
Mof_N 	N 	0.6049	0.2936	0.5	-0.342
Mof_O 	O 	0.9751	0.4012	0.5	-1.056
Mof_H 	H 	0.415	0.138	0.5	0.313
Mof_Cu	Cu	0.55001	0.54399	0.5	0.935
Mof_Cu	Cu	0.75872	0.64218	0.5	0.916
Mof_Cl	Cl	0.61491	0.63375	0.5	-0.534
Mof_O 	O 	0.8822	0.66586	0.5	-0.704
Mof_N 	N 	0.1049	0.7936	0.5	-0.342
Mof_O 	O 	0.4751	0.9012	0.5	-1.056
Mof_H 	H 	0.915	0.638	0.5	0.313
Mof_Cu	Cu	0.94999	0.95601	0.5	0.935
Mof_Cu	Cu	0.74128	0.85782	0.5	0.916
Mof_Cl	Cl	0.88509	0.86625	0.5	-0.534
Mof_O 	O 	0.6178	0.83414	0.5	-0.704
Mof_N 	N 	0.3951	0.7064	0.5	-0.342
Mof_O 	O 	0.0249	0.5988	0.5	-1.056
Mof_H 	H 	0.585	0.862	0.5	0.313
Mof_Cu	Cu	0.44999	0.45601	0.5	0.935
Mof_Cu	Cu	0.24128	0.35782	0.5	0.916
Mof_Cl	Cl	0.38509	0.36625	0.5	-0.534
Mof_O 	O 	0.1178	0.33414	0.5	-0.704
Mof_N 	N 	0.8951	0.2064	0.5	-0.342
Mof_O 	O 	0.5249	0.0988	0.5	-1.056
Mof_H 	H 	0.085	0.362	0.5	0.313
Mof_Cu	Cu	0.94999	0.04399	-0	0.946
Mof_Cu	Cu	0.74128	0.14218	-0	0.922
Mof_Cl	Cl	0.88509	0.13375	-0	-0.515
Mof_O 	O 	0.6178	0.16586	-0	-0.692
Mof_N 	N 	0.3951	0.2936	-0	-0.3
Mof_O 	O 	0.0249	0.4012	-0	-0.96
Mof_H 	H 	0.585	0.138	-0	0.314
Mof_Cu	Cu	0.44999	0.54399	-0	0.946
Mof_Cu	Cu	0.24128	0.64218	-0	0.922
Mof_Cl	Cl	0.38509	0.63375	-0	-0.514
Mof_O 	O 	0.1178	0.66586	-0	-0.692
Mof_N 	N 	0.8951	0.7936	-0	-0.3
Mof_O 	O 	0.5249	0.9012	-0	-0.959
Mof_H 	H 	0.085	0.638	-0	0.314
Mof_Cu	Cu	0.05001	0.95601	-0	0.946
Mof_Cu	Cu	0.25872	0.85782	-0	0.922
Mof_Cl	Cl	0.11491	0.86625	-0	-0.515
Mof_O 	O 	0.3822	0.83414	-0	-0.692
Mof_N 	N 	0.6049	0.7064	-0	-0.3
Mof_O 	O 	0.9751	0.5988	-0	-0.96
Mof_H 	H 	0.415	0.862	-0	0.314
Mof_Cu	Cu	0.55001	0.45601	-0	0.946
Mof_Cu	Cu	0.75872	0.35782	-0	0.922
Mof_Cl	Cl	0.61491	0.36625	-0	-0.514
Mof_O 	O 	0.8822	0.33414	-0	-0.692
Mof_N 	N 	0.1049	0.2064	-0	-0.3
Mof_O 	O 	0.4751	0.0988	-0	-0.959
Mof_H 	H 	0.915	0.362	-0	0.314
Mof_Cl	Cl	0.25	0.25	0.5	-0.601
Mof_Cl	Cl	0.75	0.75	0.5	-0.601
Mof_Cl	Cl	0.75	0.25	-0	-0.585
Mof_Cl	Cl	0.25	0.75	-0	-0.585
_end
