data_functionalizedCrystal
_audit_creation_method	'EQeq! by Chris Wilmer'
_symmetry_space_group_name_H-M	'P1'
_symmetry_Int_Tables_number	1
_symmetry_cell_setting	triclinic
loop_
_symmetry_equiv_pos_as_xyz
  x,y,z
_cell_length_a	51.1237
_cell_length_b	51.1237
_cell_length_c	51.1237
_cell_angle_alpha	90
_cell_angle_beta	90
_cell_angle_gamma	90
loop_
_atom_site_label
_atom_site_type_symbol
_atom_site_fract_x
_atom_site_fract_y
_atom_site_fract_z
_atom_site_charge
Mof_Zn	Zn	0.12515	0.8707	0.3676	0.838
Mof_N 	N 	0.15345	0.90295	0.36333	-0.338
Mof_C 	C 	0.1807	0.898	0.36536	0.063
Mof_C 	C 	0.1942	0.92041	0.35608	-0.117
Mof_H 	H 	0.2123	0.9224	0.3552	0.057
Mof_C 	C 	0.1753	0.93921	0.34831	-0.054
Mof_H 	H 	0.1788	0.9557	0.3415	0.028
Mof_C 	C 	0.15012	0.92842	0.3528	-0.013
Mof_C 	C 	0.12509	0.93859	0.3486	0.034
Mof_N 	N 	0.09672	0.90283	0.36341	-0.337
Mof_C 	C 	0.1002	0.92829	0.3529	-0.012
Mof_C 	C 	0.07508	0.93922	0.34841	-0.05
Mof_H 	H 	0.0717	0.9557	0.3416	0.032
Mof_C 	C 	0.05607	0.92052	0.35614	-0.111
Mof_H 	H 	0.038	0.9226	0.3553	0.06
Mof_C 	C 	0.06945	0.89803	0.36542	0.07
Mof_C 	C 	0.23475	0.8903	0.3928	-0.218
Mof_H 	H 	0.2257	0.9005	0.4048	0.083
Mof_C 	C 	0.26193	0.8902	0.3927	0.119
Mof_H 	H 	0.2711	0.9004	0.4047	-0.013
Mof_O 	O 	0.31699	0.8893	0.3907	-0.535
Mof_C 	C 	0.01559	0.8629	0.3548	-0.202
Mof_H 	H 	0.0247	0.8548	0.3413	0.085
Mof_C 	C 	0.98841	0.8628	0.3547	0.105
Mof_H 	H 	0.9794	0.8547	0.3411	-0.005
Mof_O 	O 	0.93313	0.8608	0.3591	-0.53
Mof_C 	C 	0.12508	0.96565	0.33741	-0.441
Mof_C 	C 	0.128	0.9693	0.31065	0.597
Mof_C 	C 	0.128	0.9944	0.30028	-0.73
Mof_H 	H 	0.13	0.9969	0.2824	0.258
Mof_C 	C 	0.12507	0.0159	0.3167	0.69
Mof_C 	C 	0.12215	0.01224	0.3435	-0.729
Mof_H 	H 	0.1202	0.0266	0.3544	0.241
Mof_C 	C 	0.12216	0.9871	0.35383	0.587
Mof_C 	C 	0.13117	0.946	0.29282	-1.1
Mof_H 	H 	0.1329	0.9519	0.2751	0.335
Mof_H 	H 	0.1161	0.9349	0.2943	0.334
Mof_H 	H 	0.1465	0.9364	0.2978	0.337
Mof_C 	C 	0.12506	0.0432	0.3054	-1.205
Mof_H 	H 	0.1272	0.0423	0.2868	0.37
Mof_H 	H 	0.1392	0.0531	0.3129	0.36
Mof_H 	H 	0.1087	0.0516	0.3094	0.355
Mof_C 	C 	0.11899	0.9832	0.38291	-1.08
Mof_H 	H 	0.1172	0.9998	0.3913	0.319
Mof_H 	H 	0.1341	0.9743	0.3897	0.322
Mof_H 	H 	0.1037	0.9728	0.3862	0.328
Mof_Zn	Zn	0.12515	0.3707	0.8676	0.838
Mof_N 	N 	0.15345	0.40295	0.86333	-0.338
Mof_C 	C 	0.1807	0.398	0.86536	0.063
Mof_C 	C 	0.1942	0.42041	0.85608	-0.117
Mof_H 	H 	0.2123	0.4224	0.8552	0.057
Mof_C 	C 	0.1753	0.43921	0.84831	-0.054
Mof_H 	H 	0.1788	0.4557	0.8415	0.028
Mof_C 	C 	0.15012	0.42842	0.8528	-0.013
Mof_C 	C 	0.12509	0.43859	0.8486	0.034
Mof_N 	N 	0.09672	0.40283	0.86341	-0.337
Mof_C 	C 	0.1002	0.42829	0.8529	-0.012
Mof_C 	C 	0.07508	0.43922	0.84841	-0.05
Mof_H 	H 	0.0717	0.4557	0.8416	0.032
Mof_C 	C 	0.05607	0.42052	0.85614	-0.111
Mof_H 	H 	0.038	0.4226	0.8553	0.06
Mof_C 	C 	0.06945	0.39803	0.86542	0.07
Mof_C 	C 	0.23475	0.3903	0.8928	-0.218
Mof_H 	H 	0.2257	0.4005	0.9048	0.083
Mof_C 	C 	0.26193	0.3902	0.8927	0.119
Mof_H 	H 	0.2711	0.4004	0.9047	-0.013
Mof_O 	O 	0.31699	0.3893	0.8907	-0.535
Mof_C 	C 	0.01559	0.3629	0.8548	-0.202
Mof_H 	H 	0.0247	0.3548	0.8413	0.085
Mof_C 	C 	0.98841	0.3628	0.8547	0.105
Mof_H 	H 	0.9794	0.3547	0.8411	-0.005
Mof_O 	O 	0.93313	0.3608	0.8591	-0.53
Mof_C 	C 	0.12508	0.46565	0.83741	-0.441
Mof_C 	C 	0.128	0.4693	0.81065	0.597
Mof_C 	C 	0.128	0.4944	0.80028	-0.73
Mof_H 	H 	0.13	0.4969	0.7824	0.258
Mof_C 	C 	0.12507	0.5159	0.8167	0.69
Mof_C 	C 	0.12215	0.51224	0.8435	-0.729
Mof_H 	H 	0.1202	0.5266	0.8544	0.241
Mof_C 	C 	0.12216	0.4871	0.85383	0.587
Mof_C 	C 	0.13117	0.446	0.79282	-1.101
Mof_H 	H 	0.1329	0.4519	0.7751	0.334
Mof_H 	H 	0.1161	0.4349	0.7943	0.333
Mof_H 	H 	0.1465	0.4364	0.7978	0.336
Mof_C 	C 	0.12506	0.5432	0.8054	-1.206
Mof_H 	H 	0.1272	0.5423	0.7868	0.369
Mof_H 	H 	0.1392	0.5531	0.8129	0.359
Mof_H 	H 	0.1087	0.5516	0.8094	0.354
Mof_C 	C 	0.11899	0.4832	0.88291	-1.081
Mof_H 	H 	0.1172	0.4998	0.8913	0.318
Mof_H 	H 	0.1341	0.4743	0.8897	0.321
Mof_H 	H 	0.1037	0.4728	0.8862	0.327
Mof_Zn	Zn	0.62515	0.8707	0.8676	0.837
Mof_N 	N 	0.65345	0.90295	0.86333	-0.339
Mof_C 	C 	0.6807	0.898	0.86536	0.062
Mof_C 	C 	0.6942	0.92041	0.85608	-0.118
Mof_H 	H 	0.7123	0.9224	0.8552	0.056
Mof_C 	C 	0.6753	0.93921	0.84831	-0.055
Mof_H 	H 	0.6788	0.9557	0.8415	0.027
Mof_C 	C 	0.65012	0.92842	0.8528	-0.014
Mof_C 	C 	0.62509	0.93859	0.8486	0.033
Mof_N 	N 	0.59672	0.90283	0.86341	-0.338
Mof_C 	C 	0.6002	0.92829	0.8529	-0.013
Mof_C 	C 	0.57508	0.93922	0.84841	-0.051
Mof_H 	H 	0.5717	0.9557	0.8416	0.031
Mof_C 	C 	0.55607	0.92052	0.85614	-0.112
Mof_H 	H 	0.538	0.9226	0.8553	0.059
Mof_C 	C 	0.56945	0.89803	0.86542	0.069
Mof_C 	C 	0.73475	0.8903	0.8928	-0.219
Mof_H 	H 	0.7257	0.9005	0.9048	0.082
Mof_C 	C 	0.76193	0.8902	0.8927	0.118
Mof_H 	H 	0.7711	0.9004	0.9047	-0.014
Mof_O 	O 	0.81699	0.8893	0.8907	-0.536
Mof_C 	C 	0.51559	0.8629	0.8548	-0.203
Mof_H 	H 	0.5247	0.8548	0.8413	0.084
Mof_C 	C 	0.48841	0.8628	0.8547	0.104
Mof_H 	H 	0.4794	0.8547	0.8411	-0.006
Mof_O 	O 	0.43313	0.8608	0.8591	-0.531
Mof_C 	C 	0.62508	0.96565	0.83741	-0.442
Mof_C 	C 	0.628	0.9693	0.81065	0.596
Mof_C 	C 	0.628	0.9944	0.80028	-0.731
Mof_H 	H 	0.63	0.9969	0.7824	0.257
Mof_C 	C 	0.62507	0.0159	0.8167	0.689
Mof_C 	C 	0.62215	0.01224	0.8435	-0.73
Mof_H 	H 	0.6202	0.0266	0.8544	0.24
Mof_C 	C 	0.62216	0.9871	0.85383	0.586
Mof_C 	C 	0.63117	0.946	0.79282	-1.101
Mof_H 	H 	0.6329	0.9519	0.7751	0.334
Mof_H 	H 	0.6161	0.9349	0.7943	0.333
Mof_H 	H 	0.6465	0.9364	0.7978	0.336
Mof_C 	C 	0.62506	0.0432	0.8054	-1.206
Mof_H 	H 	0.6272	0.0423	0.7868	0.369
Mof_H 	H 	0.6392	0.0531	0.8129	0.359
Mof_H 	H 	0.6087	0.0516	0.8094	0.354
Mof_C 	C 	0.61899	0.9832	0.88291	-1.081
Mof_H 	H 	0.6172	0.9998	0.8913	0.318
Mof_H 	H 	0.6341	0.9743	0.8897	0.321
Mof_H 	H 	0.6037	0.9728	0.8862	0.327
Mof_Zn	Zn	0.62515	0.3707	0.3676	0.837
Mof_N 	N 	0.65345	0.40295	0.36333	-0.339
Mof_C 	C 	0.6807	0.398	0.36536	0.062
Mof_C 	C 	0.6942	0.42041	0.35608	-0.118
Mof_H 	H 	0.7123	0.4224	0.3552	0.056
Mof_C 	C 	0.6753	0.43921	0.34831	-0.055
Mof_H 	H 	0.6788	0.4557	0.3415	0.027
Mof_C 	C 	0.65012	0.42842	0.3528	-0.014
Mof_C 	C 	0.62509	0.43859	0.3486	0.033
Mof_N 	N 	0.59672	0.40283	0.36341	-0.338
Mof_C 	C 	0.6002	0.42829	0.3529	-0.013
Mof_C 	C 	0.57508	0.43922	0.34841	-0.051
Mof_H 	H 	0.5717	0.4557	0.3416	0.031
Mof_C 	C 	0.55607	0.42052	0.35614	-0.112
Mof_H 	H 	0.538	0.4226	0.3553	0.059
Mof_C 	C 	0.56945	0.39803	0.36542	0.069
Mof_C 	C 	0.73475	0.3903	0.3928	-0.219
Mof_H 	H 	0.7257	0.4005	0.4048	0.082
Mof_C 	C 	0.76193	0.3902	0.3927	0.118
Mof_H 	H 	0.7711	0.4004	0.4047	-0.014
Mof_O 	O 	0.81699	0.3893	0.3907	-0.536
Mof_C 	C 	0.51559	0.3629	0.3548	-0.203
Mof_H 	H 	0.5247	0.3548	0.3413	0.084
Mof_C 	C 	0.48841	0.3628	0.3547	0.104
Mof_H 	H 	0.4794	0.3547	0.3411	-0.006
Mof_O 	O 	0.43313	0.3608	0.3591	-0.531
Mof_C 	C 	0.62508	0.46565	0.33741	-0.442
Mof_C 	C 	0.628	0.4693	0.31065	0.596
Mof_C 	C 	0.628	0.4944	0.30028	-0.731
Mof_H 	H 	0.63	0.4969	0.2824	0.257
Mof_C 	C 	0.62507	0.5159	0.3167	0.689
Mof_C 	C 	0.62215	0.51224	0.3435	-0.73
Mof_H 	H 	0.6202	0.5266	0.3544	0.24
Mof_C 	C 	0.62216	0.4871	0.35383	0.586
Mof_C 	C 	0.63117	0.446	0.29282	-1.101
Mof_H 	H 	0.6329	0.4519	0.2751	0.334
Mof_H 	H 	0.6161	0.4349	0.2943	0.333
Mof_H 	H 	0.6465	0.4364	0.2978	0.336
Mof_C 	C 	0.62506	0.5432	0.3054	-1.206
Mof_H 	H 	0.6272	0.5423	0.2868	0.369
Mof_H 	H 	0.6392	0.5531	0.3129	0.359
Mof_H 	H 	0.6087	0.5516	0.3094	0.354
Mof_C 	C 	0.61899	0.4832	0.38291	-1.081
Mof_H 	H 	0.6172	0.4998	0.3913	0.318
Mof_H 	H 	0.6341	0.4743	0.3897	0.321
Mof_H 	H 	0.6037	0.4728	0.3862	0.327
Mof_Zn	Zn	0.12485	0.3793	0.3676	0.837
Mof_N 	N 	0.09655	0.34705	0.36333	-0.339
Mof_C 	C 	0.0693	0.352	0.36536	0.062
Mof_C 	C 	0.0558	0.32959	0.35608	-0.118
Mof_H 	H 	0.0377	0.3276	0.3552	0.056
Mof_C 	C 	0.0747	0.31079	0.34831	-0.055
Mof_H 	H 	0.0712	0.2943	0.3415	0.027
Mof_C 	C 	0.09988	0.32158	0.3528	-0.014
Mof_C 	C 	0.12491	0.31141	0.3486	0.033
Mof_N 	N 	0.15328	0.34717	0.36341	-0.338
Mof_C 	C 	0.1498	0.32171	0.3529	-0.013
Mof_C 	C 	0.17492	0.31078	0.34841	-0.051
Mof_H 	H 	0.1783	0.2943	0.3416	0.031
Mof_C 	C 	0.19393	0.32948	0.35614	-0.112
Mof_H 	H 	0.212	0.3274	0.3553	0.059
Mof_C 	C 	0.18055	0.35197	0.36542	0.069
Mof_C 	C 	0.01525	0.3597	0.3928	-0.219
Mof_H 	H 	0.0243	0.3495	0.4048	0.082
Mof_C 	C 	0.98807	0.3598	0.3927	0.118
Mof_H 	H 	0.9789	0.3496	0.4047	-0.014
Mof_O 	O 	0.93301	0.3607	0.3907	-0.536
Mof_C 	C 	0.23441	0.3871	0.3548	-0.203
Mof_H 	H 	0.2253	0.3952	0.3413	0.084
Mof_C 	C 	0.26159	0.3872	0.3547	0.104
Mof_H 	H 	0.2706	0.3953	0.3411	-0.006
Mof_O 	O 	0.31687	0.3892	0.3591	-0.531
Mof_C 	C 	0.12492	0.28435	0.33741	-0.442
Mof_C 	C 	0.122	0.2807	0.31065	0.596
Mof_C 	C 	0.122	0.2556	0.30028	-0.731
Mof_H 	H 	0.12	0.2531	0.2824	0.257
Mof_C 	C 	0.12493	0.2341	0.3167	0.689
Mof_C 	C 	0.12785	0.23776	0.3435	-0.73
Mof_H 	H 	0.1298	0.2234	0.3544	0.24
Mof_C 	C 	0.12784	0.2629	0.35383	0.586
Mof_C 	C 	0.11883	0.304	0.29282	-1.101
Mof_H 	H 	0.1171	0.2981	0.2751	0.334
Mof_H 	H 	0.1339	0.3151	0.2943	0.333
Mof_H 	H 	0.1035	0.3136	0.2978	0.336
Mof_C 	C 	0.12494	0.2068	0.3054	-1.206
Mof_H 	H 	0.1228	0.2077	0.2868	0.369
Mof_H 	H 	0.1108	0.1969	0.3129	0.359
Mof_H 	H 	0.1413	0.1984	0.3094	0.354
Mof_C 	C 	0.13101	0.2668	0.38291	-1.081
Mof_H 	H 	0.1328	0.2502	0.3913	0.318
Mof_H 	H 	0.1159	0.2757	0.3897	0.321
Mof_H 	H 	0.1463	0.2772	0.3862	0.327
Mof_Zn	Zn	0.12485	0.8793	0.8676	0.837
Mof_N 	N 	0.09655	0.84705	0.86333	-0.339
Mof_C 	C 	0.0693	0.852	0.86536	0.062
Mof_C 	C 	0.0558	0.82959	0.85608	-0.118
Mof_H 	H 	0.0377	0.8276	0.8552	0.056
Mof_C 	C 	0.0747	0.81079	0.84831	-0.055
Mof_H 	H 	0.0712	0.7943	0.8415	0.027
Mof_C 	C 	0.09988	0.82158	0.8528	-0.014
Mof_C 	C 	0.12491	0.81141	0.8486	0.033
Mof_N 	N 	0.15328	0.84717	0.86341	-0.338
Mof_C 	C 	0.1498	0.82171	0.8529	-0.013
Mof_C 	C 	0.17492	0.81078	0.84841	-0.051
Mof_H 	H 	0.1783	0.7943	0.8416	0.031
Mof_C 	C 	0.19393	0.82948	0.85614	-0.112
Mof_H 	H 	0.212	0.8274	0.8553	0.059
Mof_C 	C 	0.18055	0.85197	0.86542	0.069
Mof_C 	C 	0.01525	0.8597	0.8928	-0.219
Mof_H 	H 	0.0243	0.8495	0.9048	0.082
Mof_C 	C 	0.98807	0.8598	0.8927	0.118
Mof_H 	H 	0.9789	0.8496	0.9047	-0.014
Mof_O 	O 	0.93301	0.8607	0.8907	-0.536
Mof_C 	C 	0.23441	0.8871	0.8548	-0.203
Mof_H 	H 	0.2253	0.8952	0.8413	0.084
Mof_C 	C 	0.26159	0.8872	0.8547	0.104
Mof_H 	H 	0.2706	0.8953	0.8411	-0.006
Mof_O 	O 	0.31687	0.8892	0.8591	-0.531
Mof_C 	C 	0.12492	0.78435	0.83741	-0.442
Mof_C 	C 	0.122	0.7807	0.81065	0.596
Mof_C 	C 	0.122	0.7556	0.80028	-0.731
Mof_H 	H 	0.12	0.7531	0.7824	0.257
Mof_C 	C 	0.12493	0.7341	0.8167	0.689
Mof_C 	C 	0.12785	0.73776	0.8435	-0.73
Mof_H 	H 	0.1298	0.7234	0.8544	0.24
Mof_C 	C 	0.12784	0.7629	0.85383	0.586
Mof_C 	C 	0.11883	0.804	0.79282	-1.101
Mof_H 	H 	0.1171	0.7981	0.7751	0.334
Mof_H 	H 	0.1339	0.8151	0.7943	0.333
Mof_H 	H 	0.1035	0.8136	0.7978	0.336
Mof_C 	C 	0.12494	0.7068	0.8054	-1.206
Mof_H 	H 	0.1228	0.7077	0.7868	0.369
Mof_H 	H 	0.1108	0.6969	0.8129	0.359
Mof_H 	H 	0.1413	0.6984	0.8094	0.354
Mof_C 	C 	0.13101	0.7668	0.88291	-1.081
Mof_H 	H 	0.1328	0.7502	0.8913	0.318
Mof_H 	H 	0.1159	0.7757	0.8897	0.321
Mof_H 	H 	0.1463	0.7772	0.8862	0.327
Mof_Zn	Zn	0.62485	0.3793	0.8676	0.837
Mof_N 	N 	0.59655	0.34705	0.86333	-0.339
Mof_C 	C 	0.5693	0.352	0.86536	0.062
Mof_C 	C 	0.5558	0.32959	0.85608	-0.118
Mof_H 	H 	0.5377	0.3276	0.8552	0.056
Mof_C 	C 	0.5747	0.31079	0.84831	-0.055
Mof_H 	H 	0.5712	0.2943	0.8415	0.027
Mof_C 	C 	0.59988	0.32158	0.8528	-0.014
Mof_C 	C 	0.62491	0.31141	0.8486	0.033
Mof_N 	N 	0.65328	0.34717	0.86341	-0.338
Mof_C 	C 	0.6498	0.32171	0.8529	-0.013
Mof_C 	C 	0.67492	0.31078	0.84841	-0.051
Mof_H 	H 	0.6783	0.2943	0.8416	0.031
Mof_C 	C 	0.69393	0.32948	0.85614	-0.112
Mof_H 	H 	0.712	0.3274	0.8553	0.059
Mof_C 	C 	0.68055	0.35197	0.86542	0.069
Mof_C 	C 	0.51525	0.3597	0.8928	-0.219
Mof_H 	H 	0.5243	0.3495	0.9048	0.082
Mof_C 	C 	0.48807	0.3598	0.8927	0.118
Mof_H 	H 	0.4789	0.3496	0.9047	-0.014
Mof_O 	O 	0.43301	0.3607	0.8907	-0.536
Mof_C 	C 	0.73441	0.3871	0.8548	-0.203
Mof_H 	H 	0.7253	0.3952	0.8413	0.084
Mof_C 	C 	0.76159	0.3872	0.8547	0.104
Mof_H 	H 	0.7706	0.3953	0.8411	-0.006
Mof_O 	O 	0.81687	0.3892	0.8591	-0.531
Mof_C 	C 	0.62492	0.28435	0.83741	-0.442
Mof_C 	C 	0.622	0.2807	0.81065	0.596
Mof_C 	C 	0.622	0.2556	0.80028	-0.731
Mof_H 	H 	0.62	0.2531	0.7824	0.257
Mof_C 	C 	0.62493	0.2341	0.8167	0.689
Mof_C 	C 	0.62785	0.23776	0.8435	-0.73
Mof_H 	H 	0.6298	0.2234	0.8544	0.24
Mof_C 	C 	0.62784	0.2629	0.85383	0.586
Mof_C 	C 	0.61883	0.304	0.79282	-1.101
Mof_H 	H 	0.6171	0.2981	0.7751	0.334
Mof_H 	H 	0.6339	0.3151	0.7943	0.333
Mof_H 	H 	0.6035	0.3136	0.7978	0.336
Mof_C 	C 	0.62494	0.2068	0.8054	-1.206
Mof_H 	H 	0.6228	0.2077	0.7868	0.369
Mof_H 	H 	0.6108	0.1969	0.8129	0.359
Mof_H 	H 	0.6413	0.1984	0.8094	0.354
Mof_C 	C 	0.63101	0.2668	0.88291	-1.081
Mof_H 	H 	0.6328	0.2502	0.8913	0.318
Mof_H 	H 	0.6159	0.2757	0.8897	0.321
Mof_H 	H 	0.6463	0.2772	0.8862	0.327
Mof_Zn	Zn	0.62485	0.8793	0.3676	0.837
Mof_N 	N 	0.59655	0.84705	0.36333	-0.339
Mof_C 	C 	0.5693	0.852	0.36536	0.062
Mof_C 	C 	0.5558	0.82959	0.35608	-0.118
Mof_H 	H 	0.5377	0.8276	0.3552	0.056
Mof_C 	C 	0.5747	0.81079	0.34831	-0.055
Mof_H 	H 	0.5712	0.7943	0.3415	0.027
Mof_C 	C 	0.59988	0.82158	0.3528	-0.014
Mof_C 	C 	0.62491	0.81141	0.3486	0.033
Mof_N 	N 	0.65328	0.84717	0.36341	-0.338
Mof_C 	C 	0.6498	0.82171	0.3529	-0.013
Mof_C 	C 	0.67492	0.81078	0.34841	-0.051
Mof_H 	H 	0.6783	0.7943	0.3416	0.031
Mof_C 	C 	0.69393	0.82948	0.35614	-0.112
Mof_H 	H 	0.712	0.8274	0.3553	0.059
Mof_C 	C 	0.68055	0.85197	0.36542	0.069
Mof_C 	C 	0.51525	0.8597	0.3928	-0.219
Mof_H 	H 	0.5243	0.8495	0.4048	0.082
Mof_C 	C 	0.48807	0.8598	0.3927	0.118
Mof_H 	H 	0.4789	0.8496	0.4047	-0.014
Mof_O 	O 	0.43301	0.8607	0.3907	-0.536
Mof_C 	C 	0.73441	0.8871	0.3548	-0.203
Mof_H 	H 	0.7253	0.8952	0.3413	0.084
Mof_C 	C 	0.76159	0.8872	0.3547	0.104
Mof_H 	H 	0.7706	0.8953	0.3411	-0.006
Mof_O 	O 	0.81687	0.8892	0.3591	-0.531
Mof_C 	C 	0.62492	0.78435	0.33741	-0.442
Mof_C 	C 	0.622	0.7807	0.31065	0.596
Mof_C 	C 	0.622	0.7556	0.30028	-0.731
Mof_H 	H 	0.62	0.7531	0.2824	0.257
Mof_C 	C 	0.62493	0.7341	0.3167	0.689
Mof_C 	C 	0.62785	0.73776	0.3435	-0.73
Mof_H 	H 	0.6298	0.7234	0.3544	0.24
Mof_C 	C 	0.62784	0.7629	0.35383	0.586
Mof_C 	C 	0.61883	0.804	0.29282	-1.101
Mof_H 	H 	0.6171	0.7981	0.2751	0.334
Mof_H 	H 	0.6339	0.8151	0.2943	0.333
Mof_H 	H 	0.6035	0.8136	0.2978	0.336
Mof_C 	C 	0.62494	0.7068	0.3054	-1.206
Mof_H 	H 	0.6228	0.7077	0.2868	0.369
Mof_H 	H 	0.6108	0.6969	0.3129	0.359
Mof_H 	H 	0.6413	0.6984	0.3094	0.354
Mof_C 	C 	0.63101	0.7668	0.38291	-1.081
Mof_H 	H 	0.6328	0.7502	0.3913	0.318
Mof_H 	H 	0.6159	0.7757	0.3897	0.321
Mof_H 	H 	0.6463	0.7772	0.3862	0.327
Mof_Zn	Zn	0.12485	0.8707	0.8824	0.837
Mof_N 	N 	0.09655	0.90295	0.88667	-0.339
Mof_C 	C 	0.0693	0.898	0.88464	0.062
Mof_C 	C 	0.0558	0.92041	0.89392	-0.118
Mof_H 	H 	0.0377	0.9224	0.8948	0.056
Mof_C 	C 	0.0747	0.93921	0.90169	-0.055
Mof_H 	H 	0.0712	0.9557	0.9085	0.027
Mof_C 	C 	0.09988	0.92842	0.8972	-0.014
Mof_C 	C 	0.12491	0.93859	0.9014	0.033
Mof_N 	N 	0.15328	0.90283	0.88659	-0.338
Mof_C 	C 	0.1498	0.92829	0.8971	-0.013
Mof_C 	C 	0.17492	0.93922	0.90159	-0.051
Mof_H 	H 	0.1783	0.9557	0.9084	0.031
Mof_C 	C 	0.19393	0.92052	0.89386	-0.112
Mof_H 	H 	0.212	0.9226	0.8947	0.059
Mof_C 	C 	0.18055	0.89803	0.88458	0.069
Mof_C 	C 	0.01525	0.8903	0.8572	-0.219
Mof_H 	H 	0.0243	0.9005	0.8452	0.082
Mof_C 	C 	0.98807	0.8902	0.8573	0.118
Mof_H 	H 	0.9789	0.9004	0.8453	-0.014
Mof_O 	O 	0.93301	0.8893	0.8593	-0.536
Mof_C 	C 	0.23441	0.8629	0.8952	-0.203
Mof_H 	H 	0.2253	0.8548	0.9087	0.084
Mof_C 	C 	0.26159	0.8628	0.8953	0.104
Mof_H 	H 	0.2706	0.8547	0.9089	-0.006
Mof_O 	O 	0.31687	0.8608	0.8909	-0.531
Mof_C 	C 	0.12492	0.96565	0.91259	-0.442
Mof_C 	C 	0.122	0.9693	0.93935	0.596
Mof_C 	C 	0.122	0.9944	0.94972	-0.731
Mof_H 	H 	0.12	0.9969	0.9676	0.257
Mof_C 	C 	0.12493	0.0159	0.9333	0.689
Mof_C 	C 	0.12785	0.01224	0.9065	-0.73
Mof_H 	H 	0.1298	0.0266	0.8956	0.24
Mof_C 	C 	0.12784	0.9871	0.89617	0.586
Mof_C 	C 	0.11883	0.946	0.95718	-1.101
Mof_H 	H 	0.1171	0.9519	0.9749	0.334
Mof_H 	H 	0.1339	0.9349	0.9557	0.333
Mof_H 	H 	0.1035	0.9364	0.9522	0.336
Mof_C 	C 	0.12494	0.0432	0.9446	-1.206
Mof_H 	H 	0.1228	0.0423	0.9632	0.369
Mof_H 	H 	0.1108	0.0531	0.9371	0.359
Mof_H 	H 	0.1413	0.0516	0.9406	0.354
Mof_C 	C 	0.13101	0.9832	0.86709	-1.081
Mof_H 	H 	0.1328	0.9998	0.8587	0.318
Mof_H 	H 	0.1159	0.9743	0.8603	0.321
Mof_H 	H 	0.1463	0.9728	0.8638	0.327
Mof_Zn	Zn	0.12485	0.3707	0.3824	0.837
Mof_N 	N 	0.09655	0.40295	0.38667	-0.339
Mof_C 	C 	0.0693	0.398	0.38464	0.062
Mof_C 	C 	0.0558	0.42041	0.39392	-0.118
Mof_H 	H 	0.0377	0.4224	0.3948	0.056
Mof_C 	C 	0.0747	0.43921	0.40169	-0.055
Mof_H 	H 	0.0712	0.4557	0.4085	0.027
Mof_C 	C 	0.09988	0.42842	0.3972	-0.014
Mof_C 	C 	0.12491	0.43859	0.4014	0.033
Mof_N 	N 	0.15328	0.40283	0.38659	-0.338
Mof_C 	C 	0.1498	0.42829	0.3971	-0.013
Mof_C 	C 	0.17492	0.43922	0.40159	-0.051
Mof_H 	H 	0.1783	0.4557	0.4084	0.031
Mof_C 	C 	0.19393	0.42052	0.39386	-0.112
Mof_H 	H 	0.212	0.4226	0.3947	0.059
Mof_C 	C 	0.18055	0.39803	0.38458	0.069
Mof_C 	C 	0.01525	0.3903	0.3572	-0.219
Mof_H 	H 	0.0243	0.4005	0.3452	0.082
Mof_C 	C 	0.98807	0.3902	0.3573	0.118
Mof_H 	H 	0.9789	0.4004	0.3453	-0.014
Mof_O 	O 	0.93301	0.3893	0.3593	-0.536
Mof_C 	C 	0.23441	0.3629	0.3952	-0.203
Mof_H 	H 	0.2253	0.3548	0.4087	0.084
Mof_C 	C 	0.26159	0.3628	0.3953	0.104
Mof_H 	H 	0.2706	0.3547	0.4089	-0.006
Mof_O 	O 	0.31687	0.3608	0.3909	-0.531
Mof_C 	C 	0.12492	0.46565	0.41259	-0.442
Mof_C 	C 	0.122	0.4693	0.43935	0.596
Mof_C 	C 	0.122	0.4944	0.44972	-0.731
Mof_H 	H 	0.12	0.4969	0.4676	0.257
Mof_C 	C 	0.12493	0.5159	0.4333	0.689
Mof_C 	C 	0.12785	0.51224	0.4065	-0.73
Mof_H 	H 	0.1298	0.5266	0.3956	0.24
Mof_C 	C 	0.12784	0.4871	0.39617	0.586
Mof_C 	C 	0.11883	0.446	0.45718	-1.101
Mof_H 	H 	0.1171	0.4519	0.4749	0.334
Mof_H 	H 	0.1339	0.4349	0.4557	0.333
Mof_H 	H 	0.1035	0.4364	0.4522	0.336
Mof_C 	C 	0.12494	0.5432	0.4446	-1.206
Mof_H 	H 	0.1228	0.5423	0.4632	0.369
Mof_H 	H 	0.1108	0.5531	0.4371	0.359
Mof_H 	H 	0.1413	0.5516	0.4406	0.354
Mof_C 	C 	0.13101	0.4832	0.36709	-1.081
Mof_H 	H 	0.1328	0.4998	0.3587	0.318
Mof_H 	H 	0.1159	0.4743	0.3603	0.321
Mof_H 	H 	0.1463	0.4728	0.3638	0.327
Mof_Zn	Zn	0.62485	0.8707	0.3824	0.837
Mof_N 	N 	0.59655	0.90295	0.38667	-0.339
Mof_C 	C 	0.5693	0.898	0.38464	0.062
Mof_C 	C 	0.5558	0.92041	0.39392	-0.118
Mof_H 	H 	0.5377	0.9224	0.3948	0.056
Mof_C 	C 	0.5747	0.93921	0.40169	-0.055
Mof_H 	H 	0.5712	0.9557	0.4085	0.027
Mof_C 	C 	0.59988	0.92842	0.3972	-0.014
Mof_C 	C 	0.62491	0.93859	0.4014	0.033
Mof_N 	N 	0.65328	0.90283	0.38659	-0.338
Mof_C 	C 	0.6498	0.92829	0.3971	-0.013
Mof_C 	C 	0.67492	0.93922	0.40159	-0.051
Mof_H 	H 	0.6783	0.9557	0.4084	0.031
Mof_C 	C 	0.69393	0.92052	0.39386	-0.112
Mof_H 	H 	0.712	0.9226	0.3947	0.059
Mof_C 	C 	0.68055	0.89803	0.38458	0.069
Mof_C 	C 	0.51525	0.8903	0.3572	-0.219
Mof_H 	H 	0.5243	0.9005	0.3452	0.082
Mof_C 	C 	0.48807	0.8902	0.3573	0.118
Mof_H 	H 	0.4789	0.9004	0.3453	-0.014
Mof_O 	O 	0.43301	0.8893	0.3593	-0.536
Mof_C 	C 	0.73441	0.8629	0.3952	-0.203
Mof_H 	H 	0.7253	0.8548	0.4087	0.084
Mof_C 	C 	0.76159	0.8628	0.3953	0.104
Mof_H 	H 	0.7706	0.8547	0.4089	-0.006
Mof_O 	O 	0.81687	0.8608	0.3909	-0.531
Mof_C 	C 	0.62492	0.96565	0.41259	-0.442
Mof_C 	C 	0.622	0.9693	0.43935	0.596
Mof_C 	C 	0.622	0.9944	0.44972	-0.731
Mof_H 	H 	0.62	0.9969	0.4676	0.257
Mof_C 	C 	0.62493	0.0159	0.4333	0.689
Mof_C 	C 	0.62785	0.01224	0.4065	-0.73
Mof_H 	H 	0.6298	0.0266	0.3956	0.24
Mof_C 	C 	0.62784	0.9871	0.39617	0.586
Mof_C 	C 	0.61883	0.946	0.45718	-1.101
Mof_H 	H 	0.6171	0.9519	0.4749	0.334
Mof_H 	H 	0.6339	0.9349	0.4557	0.333
Mof_H 	H 	0.6035	0.9364	0.4522	0.336
Mof_C 	C 	0.62494	0.0432	0.4446	-1.206
Mof_H 	H 	0.6228	0.0423	0.4632	0.369
Mof_H 	H 	0.6108	0.0531	0.4371	0.359
Mof_H 	H 	0.6413	0.0516	0.4406	0.354
Mof_C 	C 	0.63101	0.9832	0.36709	-1.081
Mof_H 	H 	0.6328	0.9998	0.3587	0.318
Mof_H 	H 	0.6159	0.9743	0.3603	0.321
Mof_H 	H 	0.6463	0.9728	0.3638	0.327
Mof_Zn	Zn	0.62485	0.3707	0.8824	0.837
Mof_N 	N 	0.59655	0.40295	0.88667	-0.339
Mof_C 	C 	0.5693	0.398	0.88464	0.062
Mof_C 	C 	0.5558	0.42041	0.89392	-0.118
Mof_H 	H 	0.5377	0.4224	0.8948	0.056
Mof_C 	C 	0.5747	0.43921	0.90169	-0.055
Mof_H 	H 	0.5712	0.4557	0.9085	0.027
Mof_C 	C 	0.59988	0.42842	0.8972	-0.014
Mof_C 	C 	0.62491	0.43859	0.9014	0.033
Mof_N 	N 	0.65328	0.40283	0.88659	-0.338
Mof_C 	C 	0.6498	0.42829	0.8971	-0.013
Mof_C 	C 	0.67492	0.43922	0.90159	-0.051
Mof_H 	H 	0.6783	0.4557	0.9084	0.031
Mof_C 	C 	0.69393	0.42052	0.89386	-0.112
Mof_H 	H 	0.712	0.4226	0.8947	0.059
Mof_C 	C 	0.68055	0.39803	0.88458	0.069
Mof_C 	C 	0.51525	0.3903	0.8572	-0.219
Mof_H 	H 	0.5243	0.4005	0.8452	0.082
Mof_C 	C 	0.48807	0.3902	0.8573	0.118
Mof_H 	H 	0.4789	0.4004	0.8453	-0.014
Mof_O 	O 	0.43301	0.3893	0.8593	-0.536
Mof_C 	C 	0.73441	0.3629	0.8952	-0.203
Mof_H 	H 	0.7253	0.3548	0.9087	0.084
Mof_C 	C 	0.76159	0.3628	0.8953	0.104
Mof_H 	H 	0.7706	0.3547	0.9089	-0.006
Mof_O 	O 	0.81687	0.3608	0.8909	-0.531
Mof_C 	C 	0.62492	0.46565	0.91259	-0.442
Mof_C 	C 	0.622	0.4693	0.93935	0.596
Mof_C 	C 	0.622	0.4944	0.94972	-0.731
Mof_H 	H 	0.62	0.4969	0.9676	0.257
Mof_C 	C 	0.62493	0.5159	0.9333	0.689
Mof_C 	C 	0.62785	0.51224	0.9065	-0.73
Mof_H 	H 	0.6298	0.5266	0.8956	0.24
Mof_C 	C 	0.62784	0.4871	0.89617	0.586
Mof_C 	C 	0.61883	0.446	0.95718	-1.101
Mof_H 	H 	0.6171	0.4519	0.9749	0.334
Mof_H 	H 	0.6339	0.4349	0.9557	0.333
Mof_H 	H 	0.6035	0.4364	0.9522	0.336
Mof_C 	C 	0.62494	0.5432	0.9446	-1.206
Mof_H 	H 	0.6228	0.5423	0.9632	0.369
Mof_H 	H 	0.6108	0.5531	0.9371	0.359
Mof_H 	H 	0.6413	0.5516	0.9406	0.354
Mof_C 	C 	0.63101	0.4832	0.86709	-1.081
Mof_H 	H 	0.6328	0.4998	0.8587	0.318
Mof_H 	H 	0.6159	0.4743	0.8603	0.321
Mof_H 	H 	0.6463	0.4728	0.8638	0.327
Mof_Zn	Zn	0.12515	0.3793	0.8824	0.837
Mof_N 	N 	0.15345	0.34705	0.88667	-0.339
Mof_C 	C 	0.1807	0.352	0.88464	0.062
Mof_C 	C 	0.1942	0.32959	0.89392	-0.118
Mof_H 	H 	0.2123	0.3276	0.8948	0.056
Mof_C 	C 	0.1753	0.31079	0.90169	-0.055
Mof_H 	H 	0.1788	0.2943	0.9085	0.027
Mof_C 	C 	0.15012	0.32158	0.8972	-0.014
Mof_C 	C 	0.12509	0.31141	0.9014	0.033
Mof_N 	N 	0.09672	0.34717	0.88659	-0.338
Mof_C 	C 	0.1002	0.32171	0.8971	-0.013
Mof_C 	C 	0.07508	0.31078	0.90159	-0.051
Mof_H 	H 	0.0717	0.2943	0.9084	0.031
Mof_C 	C 	0.05607	0.32948	0.89386	-0.112
Mof_H 	H 	0.038	0.3274	0.8947	0.059
Mof_C 	C 	0.06945	0.35197	0.88458	0.069
Mof_C 	C 	0.23475	0.3597	0.8572	-0.219
Mof_H 	H 	0.2257	0.3495	0.8452	0.082
Mof_C 	C 	0.26193	0.3598	0.8573	0.118
Mof_H 	H 	0.2711	0.3496	0.8453	-0.014
Mof_O 	O 	0.31699	0.3607	0.8593	-0.536
Mof_C 	C 	0.01559	0.3871	0.8952	-0.203
Mof_H 	H 	0.0247	0.3952	0.9087	0.084
Mof_C 	C 	0.98841	0.3872	0.8953	0.104
Mof_H 	H 	0.9794	0.3953	0.9089	-0.006
Mof_O 	O 	0.93313	0.3892	0.8909	-0.531
Mof_C 	C 	0.12508	0.28435	0.91259	-0.442
Mof_C 	C 	0.128	0.2807	0.93935	0.596
Mof_C 	C 	0.128	0.2556	0.94972	-0.731
Mof_H 	H 	0.13	0.2531	0.9676	0.257
Mof_C 	C 	0.12507	0.2341	0.9333	0.689
Mof_C 	C 	0.12215	0.23776	0.9065	-0.73
Mof_H 	H 	0.1202	0.2234	0.8956	0.24
Mof_C 	C 	0.12216	0.2629	0.89617	0.586
Mof_C 	C 	0.13117	0.304	0.95718	-1.101
Mof_H 	H 	0.1329	0.2981	0.9749	0.334
Mof_H 	H 	0.1161	0.3151	0.9557	0.333
Mof_H 	H 	0.1465	0.3136	0.9522	0.336
Mof_C 	C 	0.12506	0.2068	0.9446	-1.206
Mof_H 	H 	0.1272	0.2077	0.9632	0.369
Mof_H 	H 	0.1392	0.1969	0.9371	0.359
Mof_H 	H 	0.1087	0.1984	0.9406	0.354
Mof_C 	C 	0.11899	0.2668	0.86709	-1.081
Mof_H 	H 	0.1172	0.2502	0.8587	0.318
Mof_H 	H 	0.1341	0.2757	0.8603	0.321
Mof_H 	H 	0.1037	0.2772	0.8638	0.327
Mof_Zn	Zn	0.12515	0.8793	0.3824	0.837
Mof_N 	N 	0.15345	0.84705	0.38667	-0.339
Mof_C 	C 	0.1807	0.852	0.38464	0.062
Mof_C 	C 	0.1942	0.82959	0.39392	-0.118
Mof_H 	H 	0.2123	0.8276	0.3948	0.056
Mof_C 	C 	0.1753	0.81079	0.40169	-0.055
Mof_H 	H 	0.1788	0.7943	0.4085	0.027
Mof_C 	C 	0.15012	0.82158	0.3972	-0.014
Mof_C 	C 	0.12509	0.81141	0.4014	0.033
Mof_N 	N 	0.09672	0.84717	0.38659	-0.338
Mof_C 	C 	0.1002	0.82171	0.3971	-0.013
Mof_C 	C 	0.07508	0.81078	0.40159	-0.051
Mof_H 	H 	0.0717	0.7943	0.4084	0.031
Mof_C 	C 	0.05607	0.82948	0.39386	-0.112
Mof_H 	H 	0.038	0.8274	0.3947	0.059
Mof_C 	C 	0.06945	0.85197	0.38458	0.069
Mof_C 	C 	0.23475	0.8597	0.3572	-0.219
Mof_H 	H 	0.2257	0.8495	0.3452	0.082
Mof_C 	C 	0.26193	0.8598	0.3573	0.118
Mof_H 	H 	0.2711	0.8496	0.3453	-0.014
Mof_O 	O 	0.31699	0.8607	0.3593	-0.536
Mof_C 	C 	0.01559	0.8871	0.3952	-0.203
Mof_H 	H 	0.0247	0.8952	0.4087	0.084
Mof_C 	C 	0.98841	0.8872	0.3953	0.104
Mof_H 	H 	0.9794	0.8953	0.4089	-0.006
Mof_O 	O 	0.93313	0.8892	0.3909	-0.531
Mof_C 	C 	0.12508	0.78435	0.41259	-0.442
Mof_C 	C 	0.128	0.7807	0.43935	0.596
Mof_C 	C 	0.128	0.7556	0.44972	-0.731
Mof_H 	H 	0.13	0.7531	0.4676	0.257
Mof_C 	C 	0.12507	0.7341	0.4333	0.689
Mof_C 	C 	0.12215	0.73776	0.4065	-0.73
Mof_H 	H 	0.1202	0.7234	0.3956	0.24
Mof_C 	C 	0.12216	0.7629	0.39617	0.586
Mof_C 	C 	0.13117	0.804	0.45718	-1.101
Mof_H 	H 	0.1329	0.7981	0.4749	0.334
Mof_H 	H 	0.1161	0.8151	0.4557	0.333
Mof_H 	H 	0.1465	0.8136	0.4522	0.336
Mof_C 	C 	0.12506	0.7068	0.4446	-1.206
Mof_H 	H 	0.1272	0.7077	0.4632	0.369
Mof_H 	H 	0.1392	0.6969	0.4371	0.359
Mof_H 	H 	0.1087	0.6984	0.4406	0.354
Mof_C 	C 	0.11899	0.7668	0.36709	-1.081
Mof_H 	H 	0.1172	0.7502	0.3587	0.318
Mof_H 	H 	0.1341	0.7757	0.3603	0.321
Mof_H 	H 	0.1037	0.7772	0.3638	0.327
Mof_Zn	Zn	0.62515	0.3793	0.3824	0.837
Mof_N 	N 	0.65345	0.34705	0.38667	-0.339
Mof_C 	C 	0.6807	0.352	0.38464	0.062
Mof_C 	C 	0.6942	0.32959	0.39392	-0.118
Mof_H 	H 	0.7123	0.3276	0.3948	0.056
Mof_C 	C 	0.6753	0.31079	0.40169	-0.055
Mof_H 	H 	0.6788	0.2943	0.4085	0.027
Mof_C 	C 	0.65012	0.32158	0.3972	-0.014
Mof_C 	C 	0.62509	0.31141	0.4014	0.033
Mof_N 	N 	0.59672	0.34717	0.38659	-0.338
Mof_C 	C 	0.6002	0.32171	0.3971	-0.013
Mof_C 	C 	0.57508	0.31078	0.40159	-0.051
Mof_H 	H 	0.5717	0.2943	0.4084	0.031
Mof_C 	C 	0.55607	0.32948	0.39386	-0.112
Mof_H 	H 	0.538	0.3274	0.3947	0.059
Mof_C 	C 	0.56945	0.35197	0.38458	0.069
Mof_C 	C 	0.73475	0.3597	0.3572	-0.219
Mof_H 	H 	0.7257	0.3495	0.3452	0.082
Mof_C 	C 	0.76193	0.3598	0.3573	0.118
Mof_H 	H 	0.7711	0.3496	0.3453	-0.014
Mof_O 	O 	0.81699	0.3607	0.3593	-0.536
Mof_C 	C 	0.51559	0.3871	0.3952	-0.203
Mof_H 	H 	0.5247	0.3952	0.4087	0.084
Mof_C 	C 	0.48841	0.3872	0.3953	0.104
Mof_H 	H 	0.4794	0.3953	0.4089	-0.006
Mof_O 	O 	0.43313	0.3892	0.3909	-0.531
Mof_C 	C 	0.62508	0.28435	0.41259	-0.442
Mof_C 	C 	0.628	0.2807	0.43935	0.596
Mof_C 	C 	0.628	0.2556	0.44972	-0.731
Mof_H 	H 	0.63	0.2531	0.4676	0.257
Mof_C 	C 	0.62507	0.2341	0.4333	0.689
Mof_C 	C 	0.62215	0.23776	0.4065	-0.73
Mof_H 	H 	0.6202	0.2234	0.3956	0.24
Mof_C 	C 	0.62216	0.2629	0.39617	0.586
Mof_C 	C 	0.63117	0.304	0.45718	-1.101
Mof_H 	H 	0.6329	0.2981	0.4749	0.334
Mof_H 	H 	0.6161	0.3151	0.4557	0.333
Mof_H 	H 	0.6465	0.3136	0.4522	0.336
Mof_C 	C 	0.62506	0.2068	0.4446	-1.206
Mof_H 	H 	0.6272	0.2077	0.4632	0.369
Mof_H 	H 	0.6392	0.1969	0.4371	0.359
Mof_H 	H 	0.6087	0.1984	0.4406	0.354
Mof_C 	C 	0.61899	0.2668	0.36709	-1.081
Mof_H 	H 	0.6172	0.2502	0.3587	0.318
Mof_H 	H 	0.6341	0.2757	0.3603	0.321
Mof_H 	H 	0.6037	0.2772	0.3638	0.327
Mof_Zn	Zn	0.62515	0.8793	0.8824	0.837
Mof_N 	N 	0.65345	0.84705	0.88667	-0.339
Mof_C 	C 	0.6807	0.852	0.88464	0.062
Mof_C 	C 	0.6942	0.82959	0.89392	-0.118
Mof_H 	H 	0.7123	0.8276	0.8948	0.056
Mof_C 	C 	0.6753	0.81079	0.90169	-0.055
Mof_H 	H 	0.6788	0.7943	0.9085	0.027
Mof_C 	C 	0.65012	0.82158	0.8972	-0.014
Mof_C 	C 	0.62509	0.81141	0.9014	0.033
Mof_N 	N 	0.59672	0.84717	0.88659	-0.338
Mof_C 	C 	0.6002	0.82171	0.8971	-0.013
Mof_C 	C 	0.57508	0.81078	0.90159	-0.051
Mof_H 	H 	0.5717	0.7943	0.9084	0.031
Mof_C 	C 	0.55607	0.82948	0.89386	-0.112
Mof_H 	H 	0.538	0.8274	0.8947	0.059
Mof_C 	C 	0.56945	0.85197	0.88458	0.069
Mof_C 	C 	0.73475	0.8597	0.8572	-0.219
Mof_H 	H 	0.7257	0.8495	0.8452	0.082
Mof_C 	C 	0.76193	0.8598	0.8573	0.118
Mof_H 	H 	0.7711	0.8496	0.8453	-0.014
Mof_O 	O 	0.81699	0.8607	0.8593	-0.536
Mof_C 	C 	0.51559	0.8871	0.8952	-0.203
Mof_H 	H 	0.5247	0.8952	0.9087	0.084
Mof_C 	C 	0.48841	0.8872	0.8953	0.104
Mof_H 	H 	0.4794	0.8953	0.9089	-0.006
Mof_O 	O 	0.43313	0.8892	0.8909	-0.531
Mof_C 	C 	0.62508	0.78435	0.91259	-0.442
Mof_C 	C 	0.628	0.7807	0.93935	0.596
Mof_C 	C 	0.628	0.7556	0.94972	-0.731
Mof_H 	H 	0.63	0.7531	0.9676	0.257
Mof_C 	C 	0.62507	0.7341	0.9333	0.689
Mof_C 	C 	0.62215	0.73776	0.9065	-0.73
Mof_H 	H 	0.6202	0.7234	0.8956	0.24
Mof_C 	C 	0.62216	0.7629	0.89617	0.586
Mof_C 	C 	0.63117	0.804	0.95718	-1.101
Mof_H 	H 	0.6329	0.7981	0.9749	0.334
Mof_H 	H 	0.6161	0.8151	0.9557	0.333
Mof_H 	H 	0.6465	0.8136	0.9522	0.336
Mof_C 	C 	0.62506	0.7068	0.9446	-1.206
Mof_H 	H 	0.6272	0.7077	0.9632	0.369
Mof_H 	H 	0.6392	0.6969	0.9371	0.359
Mof_H 	H 	0.6087	0.6984	0.9406	0.354
Mof_C 	C 	0.61899	0.7668	0.86709	-1.081
Mof_H 	H 	0.6172	0.7502	0.8587	0.318
Mof_H 	H 	0.6341	0.7757	0.8603	0.321
Mof_H 	H 	0.6037	0.7772	0.8638	0.327
Mof_Zn	Zn	0.3676	0.12515	0.8707	0.837
Mof_N 	N 	0.36333	0.15345	0.90295	-0.339
Mof_C 	C 	0.36536	0.1807	0.898	0.062
Mof_C 	C 	0.35608	0.1942	0.92041	-0.118
Mof_H 	H 	0.3552	0.2123	0.9224	0.056
Mof_C 	C 	0.34831	0.1753	0.93921	-0.055
Mof_H 	H 	0.3415	0.1788	0.9557	0.027
Mof_C 	C 	0.3528	0.15012	0.92842	-0.014
Mof_C 	C 	0.3486	0.12509	0.93859	0.033
Mof_N 	N 	0.36341	0.09672	0.90283	-0.338
Mof_C 	C 	0.3529	0.1002	0.92829	-0.013
Mof_C 	C 	0.34841	0.07508	0.93922	-0.051
Mof_H 	H 	0.3416	0.0717	0.9557	0.031
Mof_C 	C 	0.35614	0.05607	0.92052	-0.112
Mof_H 	H 	0.3553	0.038	0.9226	0.059
Mof_C 	C 	0.36542	0.06945	0.89803	0.069
Mof_C 	C 	0.3928	0.23475	0.8903	-0.219
Mof_H 	H 	0.4048	0.2257	0.9005	0.082
Mof_C 	C 	0.3927	0.26193	0.8902	0.118
Mof_H 	H 	0.4047	0.2711	0.9004	-0.014
Mof_O 	O 	0.3907	0.31699	0.8893	-0.536
Mof_C 	C 	0.3548	0.01559	0.8629	-0.203
Mof_H 	H 	0.3413	0.0247	0.8548	0.084
Mof_C 	C 	0.3547	0.98841	0.8628	0.104
Mof_H 	H 	0.3411	0.9794	0.8547	-0.006
Mof_O 	O 	0.3591	0.93313	0.8608	-0.531
Mof_C 	C 	0.33741	0.12508	0.96565	-0.442
Mof_C 	C 	0.31065	0.128	0.9693	0.596
Mof_C 	C 	0.30028	0.128	0.9944	-0.731
Mof_H 	H 	0.2824	0.13	0.9969	0.257
Mof_C 	C 	0.3167	0.12507	0.0159	0.689
Mof_C 	C 	0.3435	0.12215	0.01224	-0.73
Mof_H 	H 	0.3544	0.1202	0.0266	0.24
Mof_C 	C 	0.35383	0.12216	0.9871	0.586
Mof_C 	C 	0.29282	0.13117	0.946	-1.101
Mof_H 	H 	0.2751	0.1329	0.9519	0.334
Mof_H 	H 	0.2943	0.1161	0.9349	0.333
Mof_H 	H 	0.2978	0.1465	0.9364	0.336
Mof_C 	C 	0.3054	0.12506	0.0432	-1.206
Mof_H 	H 	0.2868	0.1272	0.0423	0.369
Mof_H 	H 	0.3129	0.1392	0.0531	0.359
Mof_H 	H 	0.3094	0.1087	0.0516	0.354
Mof_C 	C 	0.38291	0.11899	0.9832	-1.081
Mof_H 	H 	0.3913	0.1172	0.9998	0.318
Mof_H 	H 	0.3897	0.1341	0.9743	0.321
Mof_H 	H 	0.3862	0.1037	0.9728	0.327
Mof_Zn	Zn	0.3676	0.62515	0.3707	0.837
Mof_N 	N 	0.36333	0.65345	0.40295	-0.339
Mof_C 	C 	0.36536	0.6807	0.398	0.062
Mof_C 	C 	0.35608	0.6942	0.42041	-0.118
Mof_H 	H 	0.3552	0.7123	0.4224	0.056
Mof_C 	C 	0.34831	0.6753	0.43921	-0.055
Mof_H 	H 	0.3415	0.6788	0.4557	0.027
Mof_C 	C 	0.3528	0.65012	0.42842	-0.014
Mof_C 	C 	0.3486	0.62509	0.43859	0.033
Mof_N 	N 	0.36341	0.59672	0.40283	-0.338
Mof_C 	C 	0.3529	0.6002	0.42829	-0.013
Mof_C 	C 	0.34841	0.57508	0.43922	-0.051
Mof_H 	H 	0.3416	0.5717	0.4557	0.031
Mof_C 	C 	0.35614	0.55607	0.42052	-0.112
Mof_H 	H 	0.3553	0.538	0.4226	0.059
Mof_C 	C 	0.36542	0.56945	0.39803	0.069
Mof_C 	C 	0.3928	0.73475	0.3903	-0.219
Mof_H 	H 	0.4048	0.7257	0.4005	0.082
Mof_C 	C 	0.3927	0.76193	0.3902	0.118
Mof_H 	H 	0.4047	0.7711	0.4004	-0.014
Mof_O 	O 	0.3907	0.81699	0.3893	-0.536
Mof_C 	C 	0.3548	0.51559	0.3629	-0.203
Mof_H 	H 	0.3413	0.5247	0.3548	0.084
Mof_C 	C 	0.3547	0.48841	0.3628	0.104
Mof_H 	H 	0.3411	0.4794	0.3547	-0.006
Mof_O 	O 	0.3591	0.43313	0.3608	-0.531
Mof_C 	C 	0.33741	0.62508	0.46565	-0.442
Mof_C 	C 	0.31065	0.628	0.4693	0.596
Mof_C 	C 	0.30028	0.628	0.4944	-0.731
Mof_H 	H 	0.2824	0.63	0.4969	0.257
Mof_C 	C 	0.3167	0.62507	0.5159	0.689
Mof_C 	C 	0.3435	0.62215	0.51224	-0.73
Mof_H 	H 	0.3544	0.6202	0.5266	0.24
Mof_C 	C 	0.35383	0.62216	0.4871	0.586
Mof_C 	C 	0.29282	0.63117	0.446	-1.101
Mof_H 	H 	0.2751	0.6329	0.4519	0.334
Mof_H 	H 	0.2943	0.6161	0.4349	0.333
Mof_H 	H 	0.2978	0.6465	0.4364	0.336
Mof_C 	C 	0.3054	0.62506	0.5432	-1.206
Mof_H 	H 	0.2868	0.6272	0.5423	0.369
Mof_H 	H 	0.3129	0.6392	0.5531	0.359
Mof_H 	H 	0.3094	0.6087	0.5516	0.354
Mof_C 	C 	0.38291	0.61899	0.4832	-1.081
Mof_H 	H 	0.3913	0.6172	0.4998	0.318
Mof_H 	H 	0.3897	0.6341	0.4743	0.321
Mof_H 	H 	0.3862	0.6037	0.4728	0.327
Mof_Zn	Zn	0.8676	0.12515	0.3707	0.837
Mof_N 	N 	0.86333	0.15345	0.40295	-0.339
Mof_C 	C 	0.86536	0.1807	0.398	0.062
Mof_C 	C 	0.85608	0.1942	0.42041	-0.118
Mof_H 	H 	0.8552	0.2123	0.4224	0.056
Mof_C 	C 	0.84831	0.1753	0.43921	-0.055
Mof_H 	H 	0.8415	0.1788	0.4557	0.027
Mof_C 	C 	0.8528	0.15012	0.42842	-0.014
Mof_C 	C 	0.8486	0.12509	0.43859	0.033
Mof_N 	N 	0.86341	0.09672	0.40283	-0.338
Mof_C 	C 	0.8529	0.1002	0.42829	-0.013
Mof_C 	C 	0.84841	0.07508	0.43922	-0.051
Mof_H 	H 	0.8416	0.0717	0.4557	0.031
Mof_C 	C 	0.85614	0.05607	0.42052	-0.112
Mof_H 	H 	0.8553	0.038	0.4226	0.059
Mof_C 	C 	0.86542	0.06945	0.39803	0.069
Mof_C 	C 	0.8928	0.23475	0.3903	-0.219
Mof_H 	H 	0.9048	0.2257	0.4005	0.082
Mof_C 	C 	0.8927	0.26193	0.3902	0.118
Mof_H 	H 	0.9047	0.2711	0.4004	-0.014
Mof_O 	O 	0.8907	0.31699	0.3893	-0.536
Mof_C 	C 	0.8548	0.01559	0.3629	-0.203
Mof_H 	H 	0.8413	0.0247	0.3548	0.084
Mof_C 	C 	0.8547	0.98841	0.3628	0.104
Mof_H 	H 	0.8411	0.9794	0.3547	-0.006
Mof_O 	O 	0.8591	0.93313	0.3608	-0.531
Mof_C 	C 	0.83741	0.12508	0.46565	-0.442
Mof_C 	C 	0.81065	0.128	0.4693	0.596
Mof_C 	C 	0.80028	0.128	0.4944	-0.731
Mof_H 	H 	0.7824	0.13	0.4969	0.257
Mof_C 	C 	0.8167	0.12507	0.5159	0.689
Mof_C 	C 	0.8435	0.12215	0.51224	-0.73
Mof_H 	H 	0.8544	0.1202	0.5266	0.24
Mof_C 	C 	0.85383	0.12216	0.4871	0.586
Mof_C 	C 	0.79282	0.13117	0.446	-1.101
Mof_H 	H 	0.7751	0.1329	0.4519	0.334
Mof_H 	H 	0.7943	0.1161	0.4349	0.333
Mof_H 	H 	0.7978	0.1465	0.4364	0.336
Mof_C 	C 	0.8054	0.12506	0.5432	-1.206
Mof_H 	H 	0.7868	0.1272	0.5423	0.369
Mof_H 	H 	0.8129	0.1392	0.5531	0.359
Mof_H 	H 	0.8094	0.1087	0.5516	0.354
Mof_C 	C 	0.88291	0.11899	0.4832	-1.081
Mof_H 	H 	0.8913	0.1172	0.4998	0.318
Mof_H 	H 	0.8897	0.1341	0.4743	0.321
Mof_H 	H 	0.8862	0.1037	0.4728	0.327
Mof_Zn	Zn	0.8676	0.62515	0.8707	0.837
Mof_N 	N 	0.86333	0.65345	0.90295	-0.339
Mof_C 	C 	0.86536	0.6807	0.898	0.062
Mof_C 	C 	0.85608	0.6942	0.92041	-0.118
Mof_H 	H 	0.8552	0.7123	0.9224	0.056
Mof_C 	C 	0.84831	0.6753	0.93921	-0.055
Mof_H 	H 	0.8415	0.6788	0.9557	0.027
Mof_C 	C 	0.8528	0.65012	0.92842	-0.014
Mof_C 	C 	0.8486	0.62509	0.93859	0.033
Mof_N 	N 	0.86341	0.59672	0.90283	-0.338
Mof_C 	C 	0.8529	0.6002	0.92829	-0.013
Mof_C 	C 	0.84841	0.57508	0.93922	-0.051
Mof_H 	H 	0.8416	0.5717	0.9557	0.031
Mof_C 	C 	0.85614	0.55607	0.92052	-0.112
Mof_H 	H 	0.8553	0.538	0.9226	0.059
Mof_C 	C 	0.86542	0.56945	0.89803	0.069
Mof_C 	C 	0.8928	0.73475	0.8903	-0.219
Mof_H 	H 	0.9048	0.7257	0.9005	0.082
Mof_C 	C 	0.8927	0.76193	0.8902	0.118
Mof_H 	H 	0.9047	0.7711	0.9004	-0.014
Mof_O 	O 	0.8907	0.81699	0.8893	-0.536
Mof_C 	C 	0.8548	0.51559	0.8629	-0.203
Mof_H 	H 	0.8413	0.5247	0.8548	0.084
Mof_C 	C 	0.8547	0.48841	0.8628	0.104
Mof_H 	H 	0.8411	0.4794	0.8547	-0.006
Mof_O 	O 	0.8591	0.43313	0.8608	-0.531
Mof_C 	C 	0.83741	0.62508	0.96565	-0.442
Mof_C 	C 	0.81065	0.628	0.9693	0.596
Mof_C 	C 	0.80028	0.628	0.9944	-0.731
Mof_H 	H 	0.7824	0.63	0.9969	0.257
Mof_C 	C 	0.8167	0.62507	0.0159	0.689
Mof_C 	C 	0.8435	0.62215	0.01224	-0.73
Mof_H 	H 	0.8544	0.6202	0.0266	0.24
Mof_C 	C 	0.85383	0.62216	0.9871	0.586
Mof_C 	C 	0.79282	0.63117	0.946	-1.101
Mof_H 	H 	0.7751	0.6329	0.9519	0.334
Mof_H 	H 	0.7943	0.6161	0.9349	0.333
Mof_H 	H 	0.7978	0.6465	0.9364	0.336
Mof_C 	C 	0.8054	0.62506	0.0432	-1.206
Mof_H 	H 	0.7868	0.6272	0.0423	0.369
Mof_H 	H 	0.8129	0.6392	0.0531	0.359
Mof_H 	H 	0.8094	0.6087	0.0516	0.354
Mof_C 	C 	0.88291	0.61899	0.9832	-1.081
Mof_H 	H 	0.8913	0.6172	0.9998	0.318
Mof_H 	H 	0.8897	0.6341	0.9743	0.321
Mof_H 	H 	0.8862	0.6037	0.9728	0.327
Mof_Zn	Zn	0.3676	0.12485	0.3793	0.837
Mof_N 	N 	0.36333	0.09655	0.34705	-0.339
Mof_C 	C 	0.36536	0.0693	0.352	0.062
Mof_C 	C 	0.35608	0.0558	0.32959	-0.118
Mof_H 	H 	0.3552	0.0377	0.3276	0.056
Mof_C 	C 	0.34831	0.0747	0.31079	-0.055
Mof_H 	H 	0.3415	0.0712	0.2943	0.027
Mof_C 	C 	0.3528	0.09988	0.32158	-0.014
Mof_C 	C 	0.3486	0.12491	0.31141	0.033
Mof_N 	N 	0.36341	0.15328	0.34717	-0.338
Mof_C 	C 	0.3529	0.1498	0.32171	-0.013
Mof_C 	C 	0.34841	0.17492	0.31078	-0.051
Mof_H 	H 	0.3416	0.1783	0.2943	0.031
Mof_C 	C 	0.35614	0.19393	0.32948	-0.112
Mof_H 	H 	0.3553	0.212	0.3274	0.059
Mof_C 	C 	0.36542	0.18055	0.35197	0.069
Mof_C 	C 	0.3928	0.01525	0.3597	-0.219
Mof_H 	H 	0.4048	0.0243	0.3495	0.082
Mof_C 	C 	0.3927	0.98807	0.3598	0.118
Mof_H 	H 	0.4047	0.9789	0.3496	-0.014
Mof_O 	O 	0.3907	0.93301	0.3607	-0.536
Mof_C 	C 	0.3548	0.23441	0.3871	-0.203
Mof_H 	H 	0.3413	0.2253	0.3952	0.084
Mof_C 	C 	0.3547	0.26159	0.3872	0.104
Mof_H 	H 	0.3411	0.2706	0.3953	-0.006
Mof_O 	O 	0.3591	0.31687	0.3892	-0.531
Mof_C 	C 	0.33741	0.12492	0.28435	-0.442
Mof_C 	C 	0.31065	0.122	0.2807	0.596
Mof_C 	C 	0.30028	0.122	0.2556	-0.731
Mof_H 	H 	0.2824	0.12	0.2531	0.257
Mof_C 	C 	0.3167	0.12493	0.2341	0.689
Mof_C 	C 	0.3435	0.12785	0.23776	-0.73
Mof_H 	H 	0.3544	0.1298	0.2234	0.24
Mof_C 	C 	0.35383	0.12784	0.2629	0.586
Mof_C 	C 	0.29282	0.11883	0.304	-1.101
Mof_H 	H 	0.2751	0.1171	0.2981	0.334
Mof_H 	H 	0.2943	0.1339	0.3151	0.333
Mof_H 	H 	0.2978	0.1035	0.3136	0.336
Mof_C 	C 	0.3054	0.12494	0.2068	-1.206
Mof_H 	H 	0.2868	0.1228	0.2077	0.369
Mof_H 	H 	0.3129	0.1108	0.1969	0.359
Mof_H 	H 	0.3094	0.1413	0.1984	0.354
Mof_C 	C 	0.38291	0.13101	0.2668	-1.081
Mof_H 	H 	0.3913	0.1328	0.2502	0.318
Mof_H 	H 	0.3897	0.1159	0.2757	0.321
Mof_H 	H 	0.3862	0.1463	0.2772	0.327
Mof_Zn	Zn	0.3676	0.62485	0.8793	0.837
Mof_N 	N 	0.36333	0.59655	0.84705	-0.339
Mof_C 	C 	0.36536	0.5693	0.852	0.062
Mof_C 	C 	0.35608	0.5558	0.82959	-0.118
Mof_H 	H 	0.3552	0.5377	0.8276	0.056
Mof_C 	C 	0.34831	0.5747	0.81079	-0.055
Mof_H 	H 	0.3415	0.5712	0.7943	0.027
Mof_C 	C 	0.3528	0.59988	0.82158	-0.014
Mof_C 	C 	0.3486	0.62491	0.81141	0.033
Mof_N 	N 	0.36341	0.65328	0.84717	-0.338
Mof_C 	C 	0.3529	0.6498	0.82171	-0.013
Mof_C 	C 	0.34841	0.67492	0.81078	-0.051
Mof_H 	H 	0.3416	0.6783	0.7943	0.031
Mof_C 	C 	0.35614	0.69393	0.82948	-0.112
Mof_H 	H 	0.3553	0.712	0.8274	0.059
Mof_C 	C 	0.36542	0.68055	0.85197	0.069
Mof_C 	C 	0.3928	0.51525	0.8597	-0.219
Mof_H 	H 	0.4048	0.5243	0.8495	0.082
Mof_C 	C 	0.3927	0.48807	0.8598	0.118
Mof_H 	H 	0.4047	0.4789	0.8496	-0.014
Mof_O 	O 	0.3907	0.43301	0.8607	-0.536
Mof_C 	C 	0.3548	0.73441	0.8871	-0.203
Mof_H 	H 	0.3413	0.7253	0.8952	0.084
Mof_C 	C 	0.3547	0.76159	0.8872	0.104
Mof_H 	H 	0.3411	0.7706	0.8953	-0.006
Mof_O 	O 	0.3591	0.81687	0.8892	-0.531
Mof_C 	C 	0.33741	0.62492	0.78435	-0.442
Mof_C 	C 	0.31065	0.622	0.7807	0.596
Mof_C 	C 	0.30028	0.622	0.7556	-0.731
Mof_H 	H 	0.2824	0.62	0.7531	0.257
Mof_C 	C 	0.3167	0.62493	0.7341	0.689
Mof_C 	C 	0.3435	0.62785	0.73776	-0.73
Mof_H 	H 	0.3544	0.6298	0.7234	0.24
Mof_C 	C 	0.35383	0.62784	0.7629	0.586
Mof_C 	C 	0.29282	0.61883	0.804	-1.101
Mof_H 	H 	0.2751	0.6171	0.7981	0.334
Mof_H 	H 	0.2943	0.6339	0.8151	0.333
Mof_H 	H 	0.2978	0.6035	0.8136	0.336
Mof_C 	C 	0.3054	0.62494	0.7068	-1.206
Mof_H 	H 	0.2868	0.6228	0.7077	0.369
Mof_H 	H 	0.3129	0.6108	0.6969	0.359
Mof_H 	H 	0.3094	0.6413	0.6984	0.354
Mof_C 	C 	0.38291	0.63101	0.7668	-1.081
Mof_H 	H 	0.3913	0.6328	0.7502	0.318
Mof_H 	H 	0.3897	0.6159	0.7757	0.321
Mof_H 	H 	0.3862	0.6463	0.7772	0.327
Mof_Zn	Zn	0.8676	0.12485	0.8793	0.837
Mof_N 	N 	0.86333	0.09655	0.84705	-0.339
Mof_C 	C 	0.86536	0.0693	0.852	0.062
Mof_C 	C 	0.85608	0.0558	0.82959	-0.118
Mof_H 	H 	0.8552	0.0377	0.8276	0.056
Mof_C 	C 	0.84831	0.0747	0.81079	-0.055
Mof_H 	H 	0.8415	0.0712	0.7943	0.027
Mof_C 	C 	0.8528	0.09988	0.82158	-0.014
Mof_C 	C 	0.8486	0.12491	0.81141	0.033
Mof_N 	N 	0.86341	0.15328	0.84717	-0.338
Mof_C 	C 	0.8529	0.1498	0.82171	-0.013
Mof_C 	C 	0.84841	0.17492	0.81078	-0.051
Mof_H 	H 	0.8416	0.1783	0.7943	0.031
Mof_C 	C 	0.85614	0.19393	0.82948	-0.112
Mof_H 	H 	0.8553	0.212	0.8274	0.059
Mof_C 	C 	0.86542	0.18055	0.85197	0.069
Mof_C 	C 	0.8928	0.01525	0.8597	-0.219
Mof_H 	H 	0.9048	0.0243	0.8495	0.082
Mof_C 	C 	0.8927	0.98807	0.8598	0.118
Mof_H 	H 	0.9047	0.9789	0.8496	-0.014
Mof_O 	O 	0.8907	0.93301	0.8607	-0.536
Mof_C 	C 	0.8548	0.23441	0.8871	-0.203
Mof_H 	H 	0.8413	0.2253	0.8952	0.084
Mof_C 	C 	0.8547	0.26159	0.8872	0.104
Mof_H 	H 	0.8411	0.2706	0.8953	-0.006
Mof_O 	O 	0.8591	0.31687	0.8892	-0.531
Mof_C 	C 	0.83741	0.12492	0.78435	-0.442
Mof_C 	C 	0.81065	0.122	0.7807	0.596
Mof_C 	C 	0.80028	0.122	0.7556	-0.731
Mof_H 	H 	0.7824	0.12	0.7531	0.257
Mof_C 	C 	0.8167	0.12493	0.7341	0.689
Mof_C 	C 	0.8435	0.12785	0.73776	-0.73
Mof_H 	H 	0.8544	0.1298	0.7234	0.24
Mof_C 	C 	0.85383	0.12784	0.7629	0.586
Mof_C 	C 	0.79282	0.11883	0.804	-1.101
Mof_H 	H 	0.7751	0.1171	0.7981	0.334
Mof_H 	H 	0.7943	0.1339	0.8151	0.333
Mof_H 	H 	0.7978	0.1035	0.8136	0.336
Mof_C 	C 	0.8054	0.12494	0.7068	-1.206
Mof_H 	H 	0.7868	0.1228	0.7077	0.369
Mof_H 	H 	0.8129	0.1108	0.6969	0.359
Mof_H 	H 	0.8094	0.1413	0.6984	0.354
Mof_C 	C 	0.88291	0.13101	0.7668	-1.081
Mof_H 	H 	0.8913	0.1328	0.7502	0.318
Mof_H 	H 	0.8897	0.1159	0.7757	0.321
Mof_H 	H 	0.8862	0.1463	0.7772	0.327
Mof_Zn	Zn	0.8676	0.62485	0.3793	0.837
Mof_N 	N 	0.86333	0.59655	0.34705	-0.339
Mof_C 	C 	0.86536	0.5693	0.352	0.062
Mof_C 	C 	0.85608	0.5558	0.32959	-0.118
Mof_H 	H 	0.8552	0.5377	0.3276	0.056
Mof_C 	C 	0.84831	0.5747	0.31079	-0.055
Mof_H 	H 	0.8415	0.5712	0.2943	0.027
Mof_C 	C 	0.8528	0.59988	0.32158	-0.014
Mof_C 	C 	0.8486	0.62491	0.31141	0.033
Mof_N 	N 	0.86341	0.65328	0.34717	-0.338
Mof_C 	C 	0.8529	0.6498	0.32171	-0.013
Mof_C 	C 	0.84841	0.67492	0.31078	-0.051
Mof_H 	H 	0.8416	0.6783	0.2943	0.031
Mof_C 	C 	0.85614	0.69393	0.32948	-0.112
Mof_H 	H 	0.8553	0.712	0.3274	0.059
Mof_C 	C 	0.86542	0.68055	0.35197	0.069
Mof_C 	C 	0.8928	0.51525	0.3597	-0.219
Mof_H 	H 	0.9048	0.5243	0.3495	0.082
Mof_C 	C 	0.8927	0.48807	0.3598	0.118
Mof_H 	H 	0.9047	0.4789	0.3496	-0.014
Mof_O 	O 	0.8907	0.43301	0.3607	-0.536
Mof_C 	C 	0.8548	0.73441	0.3871	-0.203
Mof_H 	H 	0.8413	0.7253	0.3952	0.084
Mof_C 	C 	0.8547	0.76159	0.3872	0.104
Mof_H 	H 	0.8411	0.7706	0.3953	-0.006
Mof_O 	O 	0.8591	0.81687	0.3892	-0.531
Mof_C 	C 	0.83741	0.62492	0.28435	-0.442
Mof_C 	C 	0.81065	0.622	0.2807	0.596
Mof_C 	C 	0.80028	0.622	0.2556	-0.731
Mof_H 	H 	0.7824	0.62	0.2531	0.257
Mof_C 	C 	0.8167	0.62493	0.2341	0.689
Mof_C 	C 	0.8435	0.62785	0.23776	-0.73
Mof_H 	H 	0.8544	0.6298	0.2234	0.24
Mof_C 	C 	0.85383	0.62784	0.2629	0.586
Mof_C 	C 	0.79282	0.61883	0.304	-1.101
Mof_H 	H 	0.7751	0.6171	0.2981	0.334
Mof_H 	H 	0.7943	0.6339	0.3151	0.333
Mof_H 	H 	0.7978	0.6035	0.3136	0.336
Mof_C 	C 	0.8054	0.62494	0.2068	-1.206
Mof_H 	H 	0.7868	0.6228	0.2077	0.369
Mof_H 	H 	0.8129	0.6108	0.1969	0.359
Mof_H 	H 	0.8094	0.6413	0.1984	0.354
Mof_C 	C 	0.88291	0.63101	0.2668	-1.081
Mof_H 	H 	0.8913	0.6328	0.2502	0.318
Mof_H 	H 	0.8897	0.6159	0.2757	0.321
Mof_H 	H 	0.8862	0.6463	0.2772	0.327
Mof_Zn	Zn	0.8824	0.12485	0.8707	0.837
Mof_N 	N 	0.88667	0.09655	0.90295	-0.339
Mof_C 	C 	0.88464	0.0693	0.898	0.062
Mof_C 	C 	0.89392	0.0558	0.92041	-0.118
Mof_H 	H 	0.8948	0.0377	0.9224	0.056
Mof_C 	C 	0.90169	0.0747	0.93921	-0.055
Mof_H 	H 	0.9085	0.0712	0.9557	0.027
Mof_C 	C 	0.8972	0.09988	0.92842	-0.014
Mof_C 	C 	0.9014	0.12491	0.93859	0.033
Mof_N 	N 	0.88659	0.15328	0.90283	-0.338
Mof_C 	C 	0.8971	0.1498	0.92829	-0.013
Mof_C 	C 	0.90159	0.17492	0.93922	-0.051
Mof_H 	H 	0.9084	0.1783	0.9557	0.031
Mof_C 	C 	0.89386	0.19393	0.92052	-0.112
Mof_H 	H 	0.8947	0.212	0.9226	0.059
Mof_C 	C 	0.88458	0.18055	0.89803	0.069
Mof_C 	C 	0.8572	0.01525	0.8903	-0.219
Mof_H 	H 	0.8452	0.0243	0.9005	0.082
Mof_C 	C 	0.8573	0.98807	0.8902	0.118
Mof_H 	H 	0.8453	0.9789	0.9004	-0.014
Mof_O 	O 	0.8593	0.93301	0.8893	-0.536
Mof_C 	C 	0.8952	0.23441	0.8629	-0.203
Mof_H 	H 	0.9087	0.2253	0.8548	0.084
Mof_C 	C 	0.8953	0.26159	0.8628	0.104
Mof_H 	H 	0.9089	0.2706	0.8547	-0.006
Mof_O 	O 	0.8909	0.31687	0.8608	-0.531
Mof_C 	C 	0.91259	0.12492	0.96565	-0.442
Mof_C 	C 	0.93935	0.122	0.9693	0.596
Mof_C 	C 	0.94972	0.122	0.9944	-0.731
Mof_H 	H 	0.9676	0.12	0.9969	0.257
Mof_C 	C 	0.9333	0.12493	0.0159	0.689
Mof_C 	C 	0.9065	0.12785	0.01224	-0.73
Mof_H 	H 	0.8956	0.1298	0.0266	0.24
Mof_C 	C 	0.89617	0.12784	0.9871	0.586
Mof_C 	C 	0.95718	0.11883	0.946	-1.101
Mof_H 	H 	0.9749	0.1171	0.9519	0.334
Mof_H 	H 	0.9557	0.1339	0.9349	0.333
Mof_H 	H 	0.9522	0.1035	0.9364	0.336
Mof_C 	C 	0.9446	0.12494	0.0432	-1.206
Mof_H 	H 	0.9632	0.1228	0.0423	0.369
Mof_H 	H 	0.9371	0.1108	0.0531	0.359
Mof_H 	H 	0.9406	0.1413	0.0516	0.354
Mof_C 	C 	0.86709	0.13101	0.9832	-1.081
Mof_H 	H 	0.8587	0.1328	0.9998	0.318
Mof_H 	H 	0.8603	0.1159	0.9743	0.321
Mof_H 	H 	0.8638	0.1463	0.9728	0.327
Mof_Zn	Zn	0.8824	0.62485	0.3707	0.837
Mof_N 	N 	0.88667	0.59655	0.40295	-0.339
Mof_C 	C 	0.88464	0.5693	0.398	0.062
Mof_C 	C 	0.89392	0.5558	0.42041	-0.118
Mof_H 	H 	0.8948	0.5377	0.4224	0.056
Mof_C 	C 	0.90169	0.5747	0.43921	-0.055
Mof_H 	H 	0.9085	0.5712	0.4557	0.027
Mof_C 	C 	0.8972	0.59988	0.42842	-0.014
Mof_C 	C 	0.9014	0.62491	0.43859	0.033
Mof_N 	N 	0.88659	0.65328	0.40283	-0.338
Mof_C 	C 	0.8971	0.6498	0.42829	-0.013
Mof_C 	C 	0.90159	0.67492	0.43922	-0.051
Mof_H 	H 	0.9084	0.6783	0.4557	0.031
Mof_C 	C 	0.89386	0.69393	0.42052	-0.112
Mof_H 	H 	0.8947	0.712	0.4226	0.059
Mof_C 	C 	0.88458	0.68055	0.39803	0.069
Mof_C 	C 	0.8572	0.51525	0.3903	-0.219
Mof_H 	H 	0.8452	0.5243	0.4005	0.082
Mof_C 	C 	0.8573	0.48807	0.3902	0.118
Mof_H 	H 	0.8453	0.4789	0.4004	-0.014
Mof_O 	O 	0.8593	0.43301	0.3893	-0.536
Mof_C 	C 	0.8952	0.73441	0.3629	-0.203
Mof_H 	H 	0.9087	0.7253	0.3548	0.084
Mof_C 	C 	0.8953	0.76159	0.3628	0.104
Mof_H 	H 	0.9089	0.7706	0.3547	-0.006
Mof_O 	O 	0.8909	0.81687	0.3608	-0.531
Mof_C 	C 	0.91259	0.62492	0.46565	-0.442
Mof_C 	C 	0.93935	0.622	0.4693	0.596
Mof_C 	C 	0.94972	0.622	0.4944	-0.731
Mof_H 	H 	0.9676	0.62	0.4969	0.257
Mof_C 	C 	0.9333	0.62493	0.5159	0.689
Mof_C 	C 	0.9065	0.62785	0.51224	-0.73
Mof_H 	H 	0.8956	0.6298	0.5266	0.24
Mof_C 	C 	0.89617	0.62784	0.4871	0.586
Mof_C 	C 	0.95718	0.61883	0.446	-1.101
Mof_H 	H 	0.9749	0.6171	0.4519	0.334
Mof_H 	H 	0.9557	0.6339	0.4349	0.333
Mof_H 	H 	0.9522	0.6035	0.4364	0.336
Mof_C 	C 	0.9446	0.62494	0.5432	-1.206
Mof_H 	H 	0.9632	0.6228	0.5423	0.369
Mof_H 	H 	0.9371	0.6108	0.5531	0.359
Mof_H 	H 	0.9406	0.6413	0.5516	0.354
Mof_C 	C 	0.86709	0.63101	0.4832	-1.081
Mof_H 	H 	0.8587	0.6328	0.4998	0.318
Mof_H 	H 	0.8603	0.6159	0.4743	0.321
Mof_H 	H 	0.8638	0.6463	0.4728	0.327
Mof_Zn	Zn	0.3824	0.12485	0.3707	0.837
Mof_N 	N 	0.38667	0.09655	0.40295	-0.339
Mof_C 	C 	0.38464	0.0693	0.398	0.062
Mof_C 	C 	0.39392	0.0558	0.42041	-0.118
Mof_H 	H 	0.3948	0.0377	0.4224	0.056
Mof_C 	C 	0.40169	0.0747	0.43921	-0.055
Mof_H 	H 	0.4085	0.0712	0.4557	0.027
Mof_C 	C 	0.3972	0.09988	0.42842	-0.014
Mof_C 	C 	0.4014	0.12491	0.43859	0.033
Mof_N 	N 	0.38659	0.15328	0.40283	-0.338
Mof_C 	C 	0.3971	0.1498	0.42829	-0.013
Mof_C 	C 	0.40159	0.17492	0.43922	-0.051
Mof_H 	H 	0.4084	0.1783	0.4557	0.031
Mof_C 	C 	0.39386	0.19393	0.42052	-0.112
Mof_H 	H 	0.3947	0.212	0.4226	0.059
Mof_C 	C 	0.38458	0.18055	0.39803	0.069
Mof_C 	C 	0.3572	0.01525	0.3903	-0.219
Mof_H 	H 	0.3452	0.0243	0.4005	0.082
Mof_C 	C 	0.3573	0.98807	0.3902	0.118
Mof_H 	H 	0.3453	0.9789	0.4004	-0.014
Mof_O 	O 	0.3593	0.93301	0.3893	-0.536
Mof_C 	C 	0.3952	0.23441	0.3629	-0.203
Mof_H 	H 	0.4087	0.2253	0.3548	0.084
Mof_C 	C 	0.3953	0.26159	0.3628	0.104
Mof_H 	H 	0.4089	0.2706	0.3547	-0.006
Mof_O 	O 	0.3909	0.31687	0.3608	-0.531
Mof_C 	C 	0.41259	0.12492	0.46565	-0.442
Mof_C 	C 	0.43935	0.122	0.4693	0.596
Mof_C 	C 	0.44972	0.122	0.4944	-0.731
Mof_H 	H 	0.4676	0.12	0.4969	0.257
Mof_C 	C 	0.4333	0.12493	0.5159	0.689
Mof_C 	C 	0.4065	0.12785	0.51224	-0.73
Mof_H 	H 	0.3956	0.1298	0.5266	0.24
Mof_C 	C 	0.39617	0.12784	0.4871	0.586
Mof_C 	C 	0.45718	0.11883	0.446	-1.101
Mof_H 	H 	0.4749	0.1171	0.4519	0.334
Mof_H 	H 	0.4557	0.1339	0.4349	0.333
Mof_H 	H 	0.4522	0.1035	0.4364	0.336
Mof_C 	C 	0.4446	0.12494	0.5432	-1.206
Mof_H 	H 	0.4632	0.1228	0.5423	0.369
Mof_H 	H 	0.4371	0.1108	0.5531	0.359
Mof_H 	H 	0.4406	0.1413	0.5516	0.354
Mof_C 	C 	0.36709	0.13101	0.4832	-1.081
Mof_H 	H 	0.3587	0.1328	0.4998	0.318
Mof_H 	H 	0.3603	0.1159	0.4743	0.321
Mof_H 	H 	0.3638	0.1463	0.4728	0.327
Mof_Zn	Zn	0.3824	0.62485	0.8707	0.837
Mof_N 	N 	0.38667	0.59655	0.90295	-0.339
Mof_C 	C 	0.38464	0.5693	0.898	0.062
Mof_C 	C 	0.39392	0.5558	0.92041	-0.118
Mof_H 	H 	0.3948	0.5377	0.9224	0.056
Mof_C 	C 	0.40169	0.5747	0.93921	-0.055
Mof_H 	H 	0.4085	0.5712	0.9557	0.027
Mof_C 	C 	0.3972	0.59988	0.92842	-0.014
Mof_C 	C 	0.4014	0.62491	0.93859	0.033
Mof_N 	N 	0.38659	0.65328	0.90283	-0.338
Mof_C 	C 	0.3971	0.6498	0.92829	-0.013
Mof_C 	C 	0.40159	0.67492	0.93922	-0.051
Mof_H 	H 	0.4084	0.6783	0.9557	0.031
Mof_C 	C 	0.39386	0.69393	0.92052	-0.112
Mof_H 	H 	0.3947	0.712	0.9226	0.059
Mof_C 	C 	0.38458	0.68055	0.89803	0.069
Mof_C 	C 	0.3572	0.51525	0.8903	-0.219
Mof_H 	H 	0.3452	0.5243	0.9005	0.082
Mof_C 	C 	0.3573	0.48807	0.8902	0.118
Mof_H 	H 	0.3453	0.4789	0.9004	-0.014
Mof_O 	O 	0.3593	0.43301	0.8893	-0.536
Mof_C 	C 	0.3952	0.73441	0.8629	-0.203
Mof_H 	H 	0.4087	0.7253	0.8548	0.084
Mof_C 	C 	0.3953	0.76159	0.8628	0.104
Mof_H 	H 	0.4089	0.7706	0.8547	-0.006
Mof_O 	O 	0.3909	0.81687	0.8608	-0.531
Mof_C 	C 	0.41259	0.62492	0.96565	-0.442
Mof_C 	C 	0.43935	0.622	0.9693	0.596
Mof_C 	C 	0.44972	0.622	0.9944	-0.731
Mof_H 	H 	0.4676	0.62	0.9969	0.257
Mof_C 	C 	0.4333	0.62493	0.0159	0.689
Mof_C 	C 	0.4065	0.62785	0.01224	-0.73
Mof_H 	H 	0.3956	0.6298	0.0266	0.24
Mof_C 	C 	0.39617	0.62784	0.9871	0.586
Mof_C 	C 	0.45718	0.61883	0.946	-1.101
Mof_H 	H 	0.4749	0.6171	0.9519	0.334
Mof_H 	H 	0.4557	0.6339	0.9349	0.333
Mof_H 	H 	0.4522	0.6035	0.9364	0.336
Mof_C 	C 	0.4446	0.62494	0.0432	-1.206
Mof_H 	H 	0.4632	0.6228	0.0423	0.369
Mof_H 	H 	0.4371	0.6108	0.0531	0.359
Mof_H 	H 	0.4406	0.6413	0.0516	0.354
Mof_C 	C 	0.36709	0.63101	0.9832	-1.081
Mof_H 	H 	0.3587	0.6328	0.9998	0.318
Mof_H 	H 	0.3603	0.6159	0.9743	0.321
Mof_H 	H 	0.3638	0.6463	0.9728	0.327
Mof_Zn	Zn	0.8824	0.12515	0.3793	0.837
Mof_N 	N 	0.88667	0.15345	0.34705	-0.339
Mof_C 	C 	0.88464	0.1807	0.352	0.062
Mof_C 	C 	0.89392	0.1942	0.32959	-0.118
Mof_H 	H 	0.8948	0.2123	0.3276	0.056
Mof_C 	C 	0.90169	0.1753	0.31079	-0.055
Mof_H 	H 	0.9085	0.1788	0.2943	0.027
Mof_C 	C 	0.8972	0.15012	0.32158	-0.014
Mof_C 	C 	0.9014	0.12509	0.31141	0.033
Mof_N 	N 	0.88659	0.09672	0.34717	-0.338
Mof_C 	C 	0.8971	0.1002	0.32171	-0.013
Mof_C 	C 	0.90159	0.07508	0.31078	-0.051
Mof_H 	H 	0.9084	0.0717	0.2943	0.031
Mof_C 	C 	0.89386	0.05607	0.32948	-0.112
Mof_H 	H 	0.8947	0.038	0.3274	0.059
Mof_C 	C 	0.88458	0.06945	0.35197	0.069
Mof_C 	C 	0.8572	0.23475	0.3597	-0.219
Mof_H 	H 	0.8452	0.2257	0.3495	0.082
Mof_C 	C 	0.8573	0.26193	0.3598	0.118
Mof_H 	H 	0.8453	0.2711	0.3496	-0.014
Mof_O 	O 	0.8593	0.31699	0.3607	-0.536
Mof_C 	C 	0.8952	0.01559	0.3871	-0.203
Mof_H 	H 	0.9087	0.0247	0.3952	0.084
Mof_C 	C 	0.8953	0.98841	0.3872	0.104
Mof_H 	H 	0.9089	0.9794	0.3953	-0.006
Mof_O 	O 	0.8909	0.93313	0.3892	-0.531
Mof_C 	C 	0.91259	0.12508	0.28435	-0.442
Mof_C 	C 	0.93935	0.128	0.2807	0.596
Mof_C 	C 	0.94972	0.128	0.2556	-0.731
Mof_H 	H 	0.9676	0.13	0.2531	0.257
Mof_C 	C 	0.9333	0.12507	0.2341	0.689
Mof_C 	C 	0.9065	0.12215	0.23776	-0.73
Mof_H 	H 	0.8956	0.1202	0.2234	0.24
Mof_C 	C 	0.89617	0.12216	0.2629	0.586
Mof_C 	C 	0.95718	0.13117	0.304	-1.101
Mof_H 	H 	0.9749	0.1329	0.2981	0.334
Mof_H 	H 	0.9557	0.1161	0.3151	0.333
Mof_H 	H 	0.9522	0.1465	0.3136	0.336
Mof_C 	C 	0.9446	0.12506	0.2068	-1.206
Mof_H 	H 	0.9632	0.1272	0.2077	0.369
Mof_H 	H 	0.9371	0.1392	0.1969	0.359
Mof_H 	H 	0.9406	0.1087	0.1984	0.354
Mof_C 	C 	0.86709	0.11899	0.2668	-1.081
Mof_H 	H 	0.8587	0.1172	0.2502	0.318
Mof_H 	H 	0.8603	0.1341	0.2757	0.321
Mof_H 	H 	0.8638	0.1037	0.2772	0.327
Mof_Zn	Zn	0.8824	0.62515	0.8793	0.837
Mof_N 	N 	0.88667	0.65345	0.84705	-0.339
Mof_C 	C 	0.88464	0.6807	0.852	0.062
Mof_C 	C 	0.89392	0.6942	0.82959	-0.118
Mof_H 	H 	0.8948	0.7123	0.8276	0.056
Mof_C 	C 	0.90169	0.6753	0.81079	-0.055
Mof_H 	H 	0.9085	0.6788	0.7943	0.027
Mof_C 	C 	0.8972	0.65012	0.82158	-0.014
Mof_C 	C 	0.9014	0.62509	0.81141	0.033
Mof_N 	N 	0.88659	0.59672	0.84717	-0.338
Mof_C 	C 	0.8971	0.6002	0.82171	-0.013
Mof_C 	C 	0.90159	0.57508	0.81078	-0.051
Mof_H 	H 	0.9084	0.5717	0.7943	0.031
Mof_C 	C 	0.89386	0.55607	0.82948	-0.112
Mof_H 	H 	0.8947	0.538	0.8274	0.059
Mof_C 	C 	0.88458	0.56945	0.85197	0.069
Mof_C 	C 	0.8572	0.73475	0.8597	-0.219
Mof_H 	H 	0.8452	0.7257	0.8495	0.082
Mof_C 	C 	0.8573	0.76193	0.8598	0.118
Mof_H 	H 	0.8453	0.7711	0.8496	-0.014
Mof_O 	O 	0.8593	0.81699	0.8607	-0.536
Mof_C 	C 	0.8952	0.51559	0.8871	-0.203
Mof_H 	H 	0.9087	0.5247	0.8952	0.084
Mof_C 	C 	0.8953	0.48841	0.8872	0.104
Mof_H 	H 	0.9089	0.4794	0.8953	-0.006
Mof_O 	O 	0.8909	0.43313	0.8892	-0.531
Mof_C 	C 	0.91259	0.62508	0.78435	-0.442
Mof_C 	C 	0.93935	0.628	0.7807	0.596
Mof_C 	C 	0.94972	0.628	0.7556	-0.731
Mof_H 	H 	0.9676	0.63	0.7531	0.257
Mof_C 	C 	0.9333	0.62507	0.7341	0.689
Mof_C 	C 	0.9065	0.62215	0.73776	-0.73
Mof_H 	H 	0.8956	0.6202	0.7234	0.24
Mof_C 	C 	0.89617	0.62216	0.7629	0.586
Mof_C 	C 	0.95718	0.63117	0.804	-1.101
Mof_H 	H 	0.9749	0.6329	0.7981	0.334
Mof_H 	H 	0.9557	0.6161	0.8151	0.333
Mof_H 	H 	0.9522	0.6465	0.8136	0.336
Mof_C 	C 	0.9446	0.62506	0.7068	-1.206
Mof_H 	H 	0.9632	0.6272	0.7077	0.369
Mof_H 	H 	0.9371	0.6392	0.6969	0.359
Mof_H 	H 	0.9406	0.6087	0.6984	0.354
Mof_C 	C 	0.86709	0.61899	0.7668	-1.081
Mof_H 	H 	0.8587	0.6172	0.7502	0.318
Mof_H 	H 	0.8603	0.6341	0.7757	0.321
Mof_H 	H 	0.8638	0.6037	0.7772	0.327
Mof_Zn	Zn	0.3824	0.12515	0.8793	0.837
Mof_N 	N 	0.38667	0.15345	0.84705	-0.339
Mof_C 	C 	0.38464	0.1807	0.852	0.062
Mof_C 	C 	0.39392	0.1942	0.82959	-0.118
Mof_H 	H 	0.3948	0.2123	0.8276	0.056
Mof_C 	C 	0.40169	0.1753	0.81079	-0.055
Mof_H 	H 	0.4085	0.1788	0.7943	0.027
Mof_C 	C 	0.3972	0.15012	0.82158	-0.014
Mof_C 	C 	0.4014	0.12509	0.81141	0.033
Mof_N 	N 	0.38659	0.09672	0.84717	-0.338
Mof_C 	C 	0.3971	0.1002	0.82171	-0.013
Mof_C 	C 	0.40159	0.07508	0.81078	-0.051
Mof_H 	H 	0.4084	0.0717	0.7943	0.031
Mof_C 	C 	0.39386	0.05607	0.82948	-0.112
Mof_H 	H 	0.3947	0.038	0.8274	0.059
Mof_C 	C 	0.38458	0.06945	0.85197	0.069
Mof_C 	C 	0.3572	0.23475	0.8597	-0.219
Mof_H 	H 	0.3452	0.2257	0.8495	0.082
Mof_C 	C 	0.3573	0.26193	0.8598	0.118
Mof_H 	H 	0.3453	0.2711	0.8496	-0.014
Mof_O 	O 	0.3593	0.31699	0.8607	-0.536
Mof_C 	C 	0.3952	0.01559	0.8871	-0.203
Mof_H 	H 	0.4087	0.0247	0.8952	0.084
Mof_C 	C 	0.3953	0.98841	0.8872	0.104
Mof_H 	H 	0.4089	0.9794	0.8953	-0.006
Mof_O 	O 	0.3909	0.93313	0.8892	-0.531
Mof_C 	C 	0.41259	0.12508	0.78435	-0.442
Mof_C 	C 	0.43935	0.128	0.7807	0.596
Mof_C 	C 	0.44972	0.128	0.7556	-0.731
Mof_H 	H 	0.4676	0.13	0.7531	0.257
Mof_C 	C 	0.4333	0.12507	0.7341	0.689
Mof_C 	C 	0.4065	0.12215	0.73776	-0.73
Mof_H 	H 	0.3956	0.1202	0.7234	0.24
Mof_C 	C 	0.39617	0.12216	0.7629	0.586
Mof_C 	C 	0.45718	0.13117	0.804	-1.101
Mof_H 	H 	0.4749	0.1329	0.7981	0.334
Mof_H 	H 	0.4557	0.1161	0.8151	0.333
Mof_H 	H 	0.4522	0.1465	0.8136	0.336
Mof_C 	C 	0.4446	0.12506	0.7068	-1.206
Mof_H 	H 	0.4632	0.1272	0.7077	0.369
Mof_H 	H 	0.4371	0.1392	0.6969	0.359
Mof_H 	H 	0.4406	0.1087	0.6984	0.354
Mof_C 	C 	0.36709	0.11899	0.7668	-1.081
Mof_H 	H 	0.3587	0.1172	0.7502	0.318
Mof_H 	H 	0.3603	0.1341	0.7757	0.321
Mof_H 	H 	0.3638	0.1037	0.7772	0.327
Mof_Zn	Zn	0.3824	0.62515	0.3793	0.837
Mof_N 	N 	0.38667	0.65345	0.34705	-0.339
Mof_C 	C 	0.38464	0.6807	0.352	0.062
Mof_C 	C 	0.39392	0.6942	0.32959	-0.118
Mof_H 	H 	0.3948	0.7123	0.3276	0.056
Mof_C 	C 	0.40169	0.6753	0.31079	-0.055
Mof_H 	H 	0.4085	0.6788	0.2943	0.027
Mof_C 	C 	0.3972	0.65012	0.32158	-0.014
Mof_C 	C 	0.4014	0.62509	0.31141	0.033
Mof_N 	N 	0.38659	0.59672	0.34717	-0.338
Mof_C 	C 	0.3971	0.6002	0.32171	-0.013
Mof_C 	C 	0.40159	0.57508	0.31078	-0.051
Mof_H 	H 	0.4084	0.5717	0.2943	0.031
Mof_C 	C 	0.39386	0.55607	0.32948	-0.112
Mof_H 	H 	0.3947	0.538	0.3274	0.059
Mof_C 	C 	0.38458	0.56945	0.35197	0.069
Mof_C 	C 	0.3572	0.73475	0.3597	-0.219
Mof_H 	H 	0.3452	0.7257	0.3495	0.082
Mof_C 	C 	0.3573	0.76193	0.3598	0.118
Mof_H 	H 	0.3453	0.7711	0.3496	-0.014
Mof_O 	O 	0.3593	0.81699	0.3607	-0.536
Mof_C 	C 	0.3952	0.51559	0.3871	-0.203
Mof_H 	H 	0.4087	0.5247	0.3952	0.084
Mof_C 	C 	0.3953	0.48841	0.3872	0.104
Mof_H 	H 	0.4089	0.4794	0.3953	-0.006
Mof_O 	O 	0.3909	0.43313	0.3892	-0.531
Mof_C 	C 	0.41259	0.62508	0.28435	-0.442
Mof_C 	C 	0.43935	0.628	0.2807	0.596
Mof_C 	C 	0.44972	0.628	0.2556	-0.731
Mof_H 	H 	0.4676	0.63	0.2531	0.257
Mof_C 	C 	0.4333	0.62507	0.2341	0.689
Mof_C 	C 	0.4065	0.62215	0.23776	-0.73
Mof_H 	H 	0.3956	0.6202	0.2234	0.24
Mof_C 	C 	0.39617	0.62216	0.2629	0.586
Mof_C 	C 	0.45718	0.63117	0.304	-1.101
Mof_H 	H 	0.4749	0.6329	0.2981	0.334
Mof_H 	H 	0.4557	0.6161	0.3151	0.333
Mof_H 	H 	0.4522	0.6465	0.3136	0.336
Mof_C 	C 	0.4446	0.62506	0.2068	-1.206
Mof_H 	H 	0.4632	0.6272	0.2077	0.369
Mof_H 	H 	0.4371	0.6392	0.1969	0.359
Mof_H 	H 	0.4406	0.6087	0.1984	0.354
Mof_C 	C 	0.36709	0.61899	0.2668	-1.081
Mof_H 	H 	0.3587	0.6172	0.2502	0.318
Mof_H 	H 	0.3603	0.6341	0.2757	0.321
Mof_H 	H 	0.3638	0.6037	0.2772	0.327
Mof_Zn	Zn	0.8707	0.3676	0.12515	0.837
Mof_N 	N 	0.90295	0.36333	0.15345	-0.339
Mof_C 	C 	0.898	0.36536	0.1807	0.062
Mof_C 	C 	0.92041	0.35608	0.1942	-0.118
Mof_H 	H 	0.9224	0.3552	0.2123	0.056
Mof_C 	C 	0.93921	0.34831	0.1753	-0.055
Mof_H 	H 	0.9557	0.3415	0.1788	0.027
Mof_C 	C 	0.92842	0.3528	0.15012	-0.014
Mof_C 	C 	0.93859	0.3486	0.12509	0.033
Mof_N 	N 	0.90283	0.36341	0.09672	-0.338
Mof_C 	C 	0.92829	0.3529	0.1002	-0.013
Mof_C 	C 	0.93922	0.34841	0.07508	-0.051
Mof_H 	H 	0.9557	0.3416	0.0717	0.031
Mof_C 	C 	0.92052	0.35614	0.05607	-0.112
Mof_H 	H 	0.9226	0.3553	0.038	0.059
Mof_C 	C 	0.89803	0.36542	0.06945	0.069
Mof_C 	C 	0.8903	0.3928	0.23475	-0.219
Mof_H 	H 	0.9005	0.4048	0.2257	0.082
Mof_C 	C 	0.8902	0.3927	0.26193	0.118
Mof_H 	H 	0.9004	0.4047	0.2711	-0.014
Mof_O 	O 	0.8893	0.3907	0.31699	-0.536
Mof_C 	C 	0.8629	0.3548	0.01559	-0.203
Mof_H 	H 	0.8548	0.3413	0.0247	0.084
Mof_C 	C 	0.8628	0.3547	0.98841	0.104
Mof_H 	H 	0.8547	0.3411	0.9794	-0.006
Mof_O 	O 	0.8608	0.3591	0.93313	-0.531
Mof_C 	C 	0.96565	0.33741	0.12508	-0.442
Mof_C 	C 	0.9693	0.31065	0.128	0.596
Mof_C 	C 	0.9944	0.30028	0.128	-0.731
Mof_H 	H 	0.9969	0.2824	0.13	0.257
Mof_C 	C 	0.0159	0.3167	0.12507	0.689
Mof_C 	C 	0.01224	0.3435	0.12215	-0.73
Mof_H 	H 	0.0266	0.3544	0.1202	0.24
Mof_C 	C 	0.9871	0.35383	0.12216	0.586
Mof_C 	C 	0.946	0.29282	0.13117	-1.101
Mof_H 	H 	0.9519	0.2751	0.1329	0.334
Mof_H 	H 	0.9349	0.2943	0.1161	0.333
Mof_H 	H 	0.9364	0.2978	0.1465	0.336
Mof_C 	C 	0.0432	0.3054	0.12506	-1.206
Mof_H 	H 	0.0423	0.2868	0.1272	0.369
Mof_H 	H 	0.0531	0.3129	0.1392	0.359
Mof_H 	H 	0.0516	0.3094	0.1087	0.354
Mof_C 	C 	0.9832	0.38291	0.11899	-1.081
Mof_H 	H 	0.9998	0.3913	0.1172	0.318
Mof_H 	H 	0.9743	0.3897	0.1341	0.321
Mof_H 	H 	0.9728	0.3862	0.1037	0.327
Mof_Zn	Zn	0.8707	0.8676	0.62515	0.837
Mof_N 	N 	0.90295	0.86333	0.65345	-0.339
Mof_C 	C 	0.898	0.86536	0.6807	0.062
Mof_C 	C 	0.92041	0.85608	0.6942	-0.118
Mof_H 	H 	0.9224	0.8552	0.7123	0.056
Mof_C 	C 	0.93921	0.84831	0.6753	-0.055
Mof_H 	H 	0.9557	0.8415	0.6788	0.027
Mof_C 	C 	0.92842	0.8528	0.65012	-0.014
Mof_C 	C 	0.93859	0.8486	0.62509	0.033
Mof_N 	N 	0.90283	0.86341	0.59672	-0.338
Mof_C 	C 	0.92829	0.8529	0.6002	-0.013
Mof_C 	C 	0.93922	0.84841	0.57508	-0.051
Mof_H 	H 	0.9557	0.8416	0.5717	0.031
Mof_C 	C 	0.92052	0.85614	0.55607	-0.112
Mof_H 	H 	0.9226	0.8553	0.538	0.059
Mof_C 	C 	0.89803	0.86542	0.56945	0.069
Mof_C 	C 	0.8903	0.8928	0.73475	-0.219
Mof_H 	H 	0.9005	0.9048	0.7257	0.082
Mof_C 	C 	0.8902	0.8927	0.76193	0.118
Mof_H 	H 	0.9004	0.9047	0.7711	-0.014
Mof_O 	O 	0.8893	0.8907	0.81699	-0.536
Mof_C 	C 	0.8629	0.8548	0.51559	-0.203
Mof_H 	H 	0.8548	0.8413	0.5247	0.084
Mof_C 	C 	0.8628	0.8547	0.48841	0.104
Mof_H 	H 	0.8547	0.8411	0.4794	-0.006
Mof_O 	O 	0.8608	0.8591	0.43313	-0.531
Mof_C 	C 	0.96565	0.83741	0.62508	-0.442
Mof_C 	C 	0.9693	0.81065	0.628	0.596
Mof_C 	C 	0.9944	0.80028	0.628	-0.731
Mof_H 	H 	0.9969	0.7824	0.63	0.257
Mof_C 	C 	0.0159	0.8167	0.62507	0.689
Mof_C 	C 	0.01224	0.8435	0.62215	-0.73
Mof_H 	H 	0.0266	0.8544	0.6202	0.24
Mof_C 	C 	0.9871	0.85383	0.62216	0.586
Mof_C 	C 	0.946	0.79282	0.63117	-1.101
Mof_H 	H 	0.9519	0.7751	0.6329	0.334
Mof_H 	H 	0.9349	0.7943	0.6161	0.333
Mof_H 	H 	0.9364	0.7978	0.6465	0.336
Mof_C 	C 	0.0432	0.8054	0.62506	-1.206
Mof_H 	H 	0.0423	0.7868	0.6272	0.369
Mof_H 	H 	0.0531	0.8129	0.6392	0.359
Mof_H 	H 	0.0516	0.8094	0.6087	0.354
Mof_C 	C 	0.9832	0.88291	0.61899	-1.081
Mof_H 	H 	0.9998	0.8913	0.6172	0.318
Mof_H 	H 	0.9743	0.8897	0.6341	0.321
Mof_H 	H 	0.9728	0.8862	0.6037	0.327
Mof_Zn	Zn	0.3707	0.3676	0.62515	0.837
Mof_N 	N 	0.40295	0.36333	0.65345	-0.339
Mof_C 	C 	0.398	0.36536	0.6807	0.062
Mof_C 	C 	0.42041	0.35608	0.6942	-0.118
Mof_H 	H 	0.4224	0.3552	0.7123	0.056
Mof_C 	C 	0.43921	0.34831	0.6753	-0.055
Mof_H 	H 	0.4557	0.3415	0.6788	0.027
Mof_C 	C 	0.42842	0.3528	0.65012	-0.014
Mof_C 	C 	0.43859	0.3486	0.62509	0.033
Mof_N 	N 	0.40283	0.36341	0.59672	-0.338
Mof_C 	C 	0.42829	0.3529	0.6002	-0.013
Mof_C 	C 	0.43922	0.34841	0.57508	-0.051
Mof_H 	H 	0.4557	0.3416	0.5717	0.031
Mof_C 	C 	0.42052	0.35614	0.55607	-0.112
Mof_H 	H 	0.4226	0.3553	0.538	0.059
Mof_C 	C 	0.39803	0.36542	0.56945	0.069
Mof_C 	C 	0.3903	0.3928	0.73475	-0.219
Mof_H 	H 	0.4005	0.4048	0.7257	0.082
Mof_C 	C 	0.3902	0.3927	0.76193	0.118
Mof_H 	H 	0.4004	0.4047	0.7711	-0.014
Mof_O 	O 	0.3893	0.3907	0.81699	-0.536
Mof_C 	C 	0.3629	0.3548	0.51559	-0.203
Mof_H 	H 	0.3548	0.3413	0.5247	0.084
Mof_C 	C 	0.3628	0.3547	0.48841	0.104
Mof_H 	H 	0.3547	0.3411	0.4794	-0.006
Mof_O 	O 	0.3608	0.3591	0.43313	-0.531
Mof_C 	C 	0.46565	0.33741	0.62508	-0.442
Mof_C 	C 	0.4693	0.31065	0.628	0.596
Mof_C 	C 	0.4944	0.30028	0.628	-0.731
Mof_H 	H 	0.4969	0.2824	0.63	0.257
Mof_C 	C 	0.5159	0.3167	0.62507	0.689
Mof_C 	C 	0.51224	0.3435	0.62215	-0.73
Mof_H 	H 	0.5266	0.3544	0.6202	0.24
Mof_C 	C 	0.4871	0.35383	0.62216	0.586
Mof_C 	C 	0.446	0.29282	0.63117	-1.101
Mof_H 	H 	0.4519	0.2751	0.6329	0.334
Mof_H 	H 	0.4349	0.2943	0.6161	0.333
Mof_H 	H 	0.4364	0.2978	0.6465	0.336
Mof_C 	C 	0.5432	0.3054	0.62506	-1.206
Mof_H 	H 	0.5423	0.2868	0.6272	0.369
Mof_H 	H 	0.5531	0.3129	0.6392	0.359
Mof_H 	H 	0.5516	0.3094	0.6087	0.354
Mof_C 	C 	0.4832	0.38291	0.61899	-1.081
Mof_H 	H 	0.4998	0.3913	0.6172	0.318
Mof_H 	H 	0.4743	0.3897	0.6341	0.321
Mof_H 	H 	0.4728	0.3862	0.6037	0.327
Mof_Zn	Zn	0.3707	0.8676	0.12515	0.837
Mof_N 	N 	0.40295	0.86333	0.15345	-0.339
Mof_C 	C 	0.398	0.86536	0.1807	0.062
Mof_C 	C 	0.42041	0.85608	0.1942	-0.118
Mof_H 	H 	0.4224	0.8552	0.2123	0.056
Mof_C 	C 	0.43921	0.84831	0.1753	-0.055
Mof_H 	H 	0.4557	0.8415	0.1788	0.027
Mof_C 	C 	0.42842	0.8528	0.15012	-0.014
Mof_C 	C 	0.43859	0.8486	0.12509	0.033
Mof_N 	N 	0.40283	0.86341	0.09672	-0.338
Mof_C 	C 	0.42829	0.8529	0.1002	-0.013
Mof_C 	C 	0.43922	0.84841	0.07508	-0.051
Mof_H 	H 	0.4557	0.8416	0.0717	0.031
Mof_C 	C 	0.42052	0.85614	0.05607	-0.112
Mof_H 	H 	0.4226	0.8553	0.038	0.059
Mof_C 	C 	0.39803	0.86542	0.06945	0.069
Mof_C 	C 	0.3903	0.8928	0.23475	-0.219
Mof_H 	H 	0.4005	0.9048	0.2257	0.082
Mof_C 	C 	0.3902	0.8927	0.26193	0.118
Mof_H 	H 	0.4004	0.9047	0.2711	-0.014
Mof_O 	O 	0.3893	0.8907	0.31699	-0.536
Mof_C 	C 	0.3629	0.8548	0.01559	-0.203
Mof_H 	H 	0.3548	0.8413	0.0247	0.084
Mof_C 	C 	0.3628	0.8547	0.98841	0.104
Mof_H 	H 	0.3547	0.8411	0.9794	-0.006
Mof_O 	O 	0.3608	0.8591	0.93313	-0.531
Mof_C 	C 	0.46565	0.83741	0.12508	-0.442
Mof_C 	C 	0.4693	0.81065	0.128	0.596
Mof_C 	C 	0.4944	0.80028	0.128	-0.731
Mof_H 	H 	0.4969	0.7824	0.13	0.257
Mof_C 	C 	0.5159	0.8167	0.12507	0.689
Mof_C 	C 	0.51224	0.8435	0.12215	-0.73
Mof_H 	H 	0.5266	0.8544	0.1202	0.24
Mof_C 	C 	0.4871	0.85383	0.12216	0.586
Mof_C 	C 	0.446	0.79282	0.13117	-1.101
Mof_H 	H 	0.4519	0.7751	0.1329	0.334
Mof_H 	H 	0.4349	0.7943	0.1161	0.333
Mof_H 	H 	0.4364	0.7978	0.1465	0.336
Mof_C 	C 	0.5432	0.8054	0.12506	-1.206
Mof_H 	H 	0.5423	0.7868	0.1272	0.369
Mof_H 	H 	0.5531	0.8129	0.1392	0.359
Mof_H 	H 	0.5516	0.8094	0.1087	0.354
Mof_C 	C 	0.4832	0.88291	0.11899	-1.081
Mof_H 	H 	0.4998	0.8913	0.1172	0.318
Mof_H 	H 	0.4743	0.8897	0.1341	0.321
Mof_H 	H 	0.4728	0.8862	0.1037	0.327
Mof_Zn	Zn	0.3793	0.3676	0.12485	0.837
Mof_N 	N 	0.34705	0.36333	0.09655	-0.339
Mof_C 	C 	0.352	0.36536	0.0693	0.062
Mof_C 	C 	0.32959	0.35608	0.0558	-0.118
Mof_H 	H 	0.3276	0.3552	0.0377	0.056
Mof_C 	C 	0.31079	0.34831	0.0747	-0.055
Mof_H 	H 	0.2943	0.3415	0.0712	0.027
Mof_C 	C 	0.32158	0.3528	0.09988	-0.014
Mof_C 	C 	0.31141	0.3486	0.12491	0.033
Mof_N 	N 	0.34717	0.36341	0.15328	-0.338
Mof_C 	C 	0.32171	0.3529	0.1498	-0.013
Mof_C 	C 	0.31078	0.34841	0.17492	-0.051
Mof_H 	H 	0.2943	0.3416	0.1783	0.031
Mof_C 	C 	0.32948	0.35614	0.19393	-0.112
Mof_H 	H 	0.3274	0.3553	0.212	0.059
Mof_C 	C 	0.35197	0.36542	0.18055	0.069
Mof_C 	C 	0.3597	0.3928	0.01525	-0.219
Mof_H 	H 	0.3495	0.4048	0.0243	0.082
Mof_C 	C 	0.3598	0.3927	0.98807	0.118
Mof_H 	H 	0.3496	0.4047	0.9789	-0.014
Mof_O 	O 	0.3607	0.3907	0.93301	-0.536
Mof_C 	C 	0.3871	0.3548	0.23441	-0.203
Mof_H 	H 	0.3952	0.3413	0.2253	0.084
Mof_C 	C 	0.3872	0.3547	0.26159	0.104
Mof_H 	H 	0.3953	0.3411	0.2706	-0.006
Mof_O 	O 	0.3892	0.3591	0.31687	-0.531
Mof_C 	C 	0.28435	0.33741	0.12492	-0.442
Mof_C 	C 	0.2807	0.31065	0.122	0.596
Mof_C 	C 	0.2556	0.30028	0.122	-0.731
Mof_H 	H 	0.2531	0.2824	0.12	0.257
Mof_C 	C 	0.2341	0.3167	0.12493	0.689
Mof_C 	C 	0.23776	0.3435	0.12785	-0.73
Mof_H 	H 	0.2234	0.3544	0.1298	0.24
Mof_C 	C 	0.2629	0.35383	0.12784	0.586
Mof_C 	C 	0.304	0.29282	0.11883	-1.101
Mof_H 	H 	0.2981	0.2751	0.1171	0.334
Mof_H 	H 	0.3151	0.2943	0.1339	0.333
Mof_H 	H 	0.3136	0.2978	0.1035	0.336
Mof_C 	C 	0.2068	0.3054	0.12494	-1.206
Mof_H 	H 	0.2077	0.2868	0.1228	0.369
Mof_H 	H 	0.1969	0.3129	0.1108	0.359
Mof_H 	H 	0.1984	0.3094	0.1413	0.354
Mof_C 	C 	0.2668	0.38291	0.13101	-1.081
Mof_H 	H 	0.2502	0.3913	0.1328	0.318
Mof_H 	H 	0.2757	0.3897	0.1159	0.321
Mof_H 	H 	0.2772	0.3862	0.1463	0.327
Mof_Zn	Zn	0.3793	0.8676	0.62485	0.837
Mof_N 	N 	0.34705	0.86333	0.59655	-0.339
Mof_C 	C 	0.352	0.86536	0.5693	0.062
Mof_C 	C 	0.32959	0.85608	0.5558	-0.118
Mof_H 	H 	0.3276	0.8552	0.5377	0.056
Mof_C 	C 	0.31079	0.84831	0.5747	-0.055
Mof_H 	H 	0.2943	0.8415	0.5712	0.027
Mof_C 	C 	0.32158	0.8528	0.59988	-0.014
Mof_C 	C 	0.31141	0.8486	0.62491	0.033
Mof_N 	N 	0.34717	0.86341	0.65328	-0.338
Mof_C 	C 	0.32171	0.8529	0.6498	-0.013
Mof_C 	C 	0.31078	0.84841	0.67492	-0.051
Mof_H 	H 	0.2943	0.8416	0.6783	0.031
Mof_C 	C 	0.32948	0.85614	0.69393	-0.112
Mof_H 	H 	0.3274	0.8553	0.712	0.059
Mof_C 	C 	0.35197	0.86542	0.68055	0.069
Mof_C 	C 	0.3597	0.8928	0.51525	-0.219
Mof_H 	H 	0.3495	0.9048	0.5243	0.082
Mof_C 	C 	0.3598	0.8927	0.48807	0.118
Mof_H 	H 	0.3496	0.9047	0.4789	-0.014
Mof_O 	O 	0.3607	0.8907	0.43301	-0.536
Mof_C 	C 	0.3871	0.8548	0.73441	-0.203
Mof_H 	H 	0.3952	0.8413	0.7253	0.084
Mof_C 	C 	0.3872	0.8547	0.76159	0.104
Mof_H 	H 	0.3953	0.8411	0.7706	-0.006
Mof_O 	O 	0.3892	0.8591	0.81687	-0.531
Mof_C 	C 	0.28435	0.83741	0.62492	-0.442
Mof_C 	C 	0.2807	0.81065	0.622	0.596
Mof_C 	C 	0.2556	0.80028	0.622	-0.731
Mof_H 	H 	0.2531	0.7824	0.62	0.257
Mof_C 	C 	0.2341	0.8167	0.62493	0.689
Mof_C 	C 	0.23776	0.8435	0.62785	-0.73
Mof_H 	H 	0.2234	0.8544	0.6298	0.24
Mof_C 	C 	0.2629	0.85383	0.62784	0.586
Mof_C 	C 	0.304	0.79282	0.61883	-1.101
Mof_H 	H 	0.2981	0.7751	0.6171	0.334
Mof_H 	H 	0.3151	0.7943	0.6339	0.333
Mof_H 	H 	0.3136	0.7978	0.6035	0.336
Mof_C 	C 	0.2068	0.8054	0.62494	-1.206
Mof_H 	H 	0.2077	0.7868	0.6228	0.369
Mof_H 	H 	0.1969	0.8129	0.6108	0.359
Mof_H 	H 	0.1984	0.8094	0.6413	0.354
Mof_C 	C 	0.2668	0.88291	0.63101	-1.081
Mof_H 	H 	0.2502	0.8913	0.6328	0.318
Mof_H 	H 	0.2757	0.8897	0.6159	0.321
Mof_H 	H 	0.2772	0.8862	0.6463	0.327
Mof_Zn	Zn	0.8793	0.3676	0.62485	0.837
Mof_N 	N 	0.84705	0.36333	0.59655	-0.339
Mof_C 	C 	0.852	0.36536	0.5693	0.062
Mof_C 	C 	0.82959	0.35608	0.5558	-0.118
Mof_H 	H 	0.8276	0.3552	0.5377	0.056
Mof_C 	C 	0.81079	0.34831	0.5747	-0.055
Mof_H 	H 	0.7943	0.3415	0.5712	0.027
Mof_C 	C 	0.82158	0.3528	0.59988	-0.014
Mof_C 	C 	0.81141	0.3486	0.62491	0.033
Mof_N 	N 	0.84717	0.36341	0.65328	-0.338
Mof_C 	C 	0.82171	0.3529	0.6498	-0.013
Mof_C 	C 	0.81078	0.34841	0.67492	-0.051
Mof_H 	H 	0.7943	0.3416	0.6783	0.031
Mof_C 	C 	0.82948	0.35614	0.69393	-0.112
Mof_H 	H 	0.8274	0.3553	0.712	0.059
Mof_C 	C 	0.85197	0.36542	0.68055	0.069
Mof_C 	C 	0.8597	0.3928	0.51525	-0.219
Mof_H 	H 	0.8495	0.4048	0.5243	0.082
Mof_C 	C 	0.8598	0.3927	0.48807	0.118
Mof_H 	H 	0.8496	0.4047	0.4789	-0.014
Mof_O 	O 	0.8607	0.3907	0.43301	-0.536
Mof_C 	C 	0.8871	0.3548	0.73441	-0.203
Mof_H 	H 	0.8952	0.3413	0.7253	0.084
Mof_C 	C 	0.8872	0.3547	0.76159	0.104
Mof_H 	H 	0.8953	0.3411	0.7706	-0.006
Mof_O 	O 	0.8892	0.3591	0.81687	-0.531
Mof_C 	C 	0.78435	0.33741	0.62492	-0.442
Mof_C 	C 	0.7807	0.31065	0.622	0.596
Mof_C 	C 	0.7556	0.30028	0.622	-0.731
Mof_H 	H 	0.7531	0.2824	0.62	0.257
Mof_C 	C 	0.7341	0.3167	0.62493	0.689
Mof_C 	C 	0.73776	0.3435	0.62785	-0.73
Mof_H 	H 	0.7234	0.3544	0.6298	0.24
Mof_C 	C 	0.7629	0.35383	0.62784	0.586
Mof_C 	C 	0.804	0.29282	0.61883	-1.101
Mof_H 	H 	0.7981	0.2751	0.6171	0.334
Mof_H 	H 	0.8151	0.2943	0.6339	0.333
Mof_H 	H 	0.8136	0.2978	0.6035	0.336
Mof_C 	C 	0.7068	0.3054	0.62494	-1.206
Mof_H 	H 	0.7077	0.2868	0.6228	0.369
Mof_H 	H 	0.6969	0.3129	0.6108	0.359
Mof_H 	H 	0.6984	0.3094	0.6413	0.354
Mof_C 	C 	0.7668	0.38291	0.63101	-1.081
Mof_H 	H 	0.7502	0.3913	0.6328	0.318
Mof_H 	H 	0.7757	0.3897	0.6159	0.321
Mof_H 	H 	0.7772	0.3862	0.6463	0.327
Mof_Zn	Zn	0.8793	0.8676	0.12485	0.837
Mof_N 	N 	0.84705	0.86333	0.09655	-0.339
Mof_C 	C 	0.852	0.86536	0.0693	0.062
Mof_C 	C 	0.82959	0.85608	0.0558	-0.118
Mof_H 	H 	0.8276	0.8552	0.0377	0.056
Mof_C 	C 	0.81079	0.84831	0.0747	-0.055
Mof_H 	H 	0.7943	0.8415	0.0712	0.027
Mof_C 	C 	0.82158	0.8528	0.09988	-0.014
Mof_C 	C 	0.81141	0.8486	0.12491	0.033
Mof_N 	N 	0.84717	0.86341	0.15328	-0.338
Mof_C 	C 	0.82171	0.8529	0.1498	-0.013
Mof_C 	C 	0.81078	0.84841	0.17492	-0.051
Mof_H 	H 	0.7943	0.8416	0.1783	0.031
Mof_C 	C 	0.82948	0.85614	0.19393	-0.112
Mof_H 	H 	0.8274	0.8553	0.212	0.059
Mof_C 	C 	0.85197	0.86542	0.18055	0.069
Mof_C 	C 	0.8597	0.8928	0.01525	-0.219
Mof_H 	H 	0.8495	0.9048	0.0243	0.082
Mof_C 	C 	0.8598	0.8927	0.98807	0.118
Mof_H 	H 	0.8496	0.9047	0.9789	-0.014
Mof_O 	O 	0.8607	0.8907	0.93301	-0.536
Mof_C 	C 	0.8871	0.8548	0.23441	-0.203
Mof_H 	H 	0.8952	0.8413	0.2253	0.084
Mof_C 	C 	0.8872	0.8547	0.26159	0.104
Mof_H 	H 	0.8953	0.8411	0.2706	-0.006
Mof_O 	O 	0.8892	0.8591	0.31687	-0.531
Mof_C 	C 	0.78435	0.83741	0.12492	-0.442
Mof_C 	C 	0.7807	0.81065	0.122	0.596
Mof_C 	C 	0.7556	0.80028	0.122	-0.731
Mof_H 	H 	0.7531	0.7824	0.12	0.257
Mof_C 	C 	0.7341	0.8167	0.12493	0.689
Mof_C 	C 	0.73776	0.8435	0.12785	-0.73
Mof_H 	H 	0.7234	0.8544	0.1298	0.24
Mof_C 	C 	0.7629	0.85383	0.12784	0.586
Mof_C 	C 	0.804	0.79282	0.11883	-1.101
Mof_H 	H 	0.7981	0.7751	0.1171	0.334
Mof_H 	H 	0.8151	0.7943	0.1339	0.333
Mof_H 	H 	0.8136	0.7978	0.1035	0.336
Mof_C 	C 	0.7068	0.8054	0.12494	-1.206
Mof_H 	H 	0.7077	0.7868	0.1228	0.369
Mof_H 	H 	0.6969	0.8129	0.1108	0.359
Mof_H 	H 	0.6984	0.8094	0.1413	0.354
Mof_C 	C 	0.7668	0.88291	0.13101	-1.081
Mof_H 	H 	0.7502	0.8913	0.1328	0.318
Mof_H 	H 	0.7757	0.8897	0.1159	0.321
Mof_H 	H 	0.7772	0.8862	0.1463	0.327
Mof_Zn	Zn	0.8707	0.8824	0.12485	0.837
Mof_N 	N 	0.90295	0.88667	0.09655	-0.339
Mof_C 	C 	0.898	0.88464	0.0693	0.062
Mof_C 	C 	0.92041	0.89392	0.0558	-0.118
Mof_H 	H 	0.9224	0.8948	0.0377	0.056
Mof_C 	C 	0.93921	0.90169	0.0747	-0.055
Mof_H 	H 	0.9557	0.9085	0.0712	0.027
Mof_C 	C 	0.92842	0.8972	0.09988	-0.014
Mof_C 	C 	0.93859	0.9014	0.12491	0.033
Mof_N 	N 	0.90283	0.88659	0.15328	-0.338
Mof_C 	C 	0.92829	0.8971	0.1498	-0.013
Mof_C 	C 	0.93922	0.90159	0.17492	-0.051
Mof_H 	H 	0.9557	0.9084	0.1783	0.031
Mof_C 	C 	0.92052	0.89386	0.19393	-0.112
Mof_H 	H 	0.9226	0.8947	0.212	0.059
Mof_C 	C 	0.89803	0.88458	0.18055	0.069
Mof_C 	C 	0.8903	0.8572	0.01525	-0.219
Mof_H 	H 	0.9005	0.8452	0.0243	0.082
Mof_C 	C 	0.8902	0.8573	0.98807	0.118
Mof_H 	H 	0.9004	0.8453	0.9789	-0.014
Mof_O 	O 	0.8893	0.8593	0.93301	-0.536
Mof_C 	C 	0.8629	0.8952	0.23441	-0.203
Mof_H 	H 	0.8548	0.9087	0.2253	0.084
Mof_C 	C 	0.8628	0.8953	0.26159	0.104
Mof_H 	H 	0.8547	0.9089	0.2706	-0.006
Mof_O 	O 	0.8608	0.8909	0.31687	-0.531
Mof_C 	C 	0.96565	0.91259	0.12492	-0.442
Mof_C 	C 	0.9693	0.93935	0.122	0.596
Mof_C 	C 	0.9944	0.94972	0.122	-0.731
Mof_H 	H 	0.9969	0.9676	0.12	0.257
Mof_C 	C 	0.0159	0.9333	0.12493	0.689
Mof_C 	C 	0.01224	0.9065	0.12785	-0.73
Mof_H 	H 	0.0266	0.8956	0.1298	0.24
Mof_C 	C 	0.9871	0.89617	0.12784	0.586
Mof_C 	C 	0.946	0.95718	0.11883	-1.101
Mof_H 	H 	0.9519	0.9749	0.1171	0.334
Mof_H 	H 	0.9349	0.9557	0.1339	0.333
Mof_H 	H 	0.9364	0.9522	0.1035	0.336
Mof_C 	C 	0.0432	0.9446	0.12494	-1.206
Mof_H 	H 	0.0423	0.9632	0.1228	0.369
Mof_H 	H 	0.0531	0.9371	0.1108	0.359
Mof_H 	H 	0.0516	0.9406	0.1413	0.354
Mof_C 	C 	0.9832	0.86709	0.13101	-1.081
Mof_H 	H 	0.9998	0.8587	0.1328	0.318
Mof_H 	H 	0.9743	0.8603	0.1159	0.321
Mof_H 	H 	0.9728	0.8638	0.1463	0.327
Mof_Zn	Zn	0.8707	0.3824	0.62485	0.837
Mof_N 	N 	0.90295	0.38667	0.59655	-0.339
Mof_C 	C 	0.898	0.38464	0.5693	0.062
Mof_C 	C 	0.92041	0.39392	0.5558	-0.118
Mof_H 	H 	0.9224	0.3948	0.5377	0.056
Mof_C 	C 	0.93921	0.40169	0.5747	-0.055
Mof_H 	H 	0.9557	0.4085	0.5712	0.027
Mof_C 	C 	0.92842	0.3972	0.59988	-0.014
Mof_C 	C 	0.93859	0.4014	0.62491	0.033
Mof_N 	N 	0.90283	0.38659	0.65328	-0.338
Mof_C 	C 	0.92829	0.3971	0.6498	-0.013
Mof_C 	C 	0.93922	0.40159	0.67492	-0.051
Mof_H 	H 	0.9557	0.4084	0.6783	0.031
Mof_C 	C 	0.92052	0.39386	0.69393	-0.112
Mof_H 	H 	0.9226	0.3947	0.712	0.059
Mof_C 	C 	0.89803	0.38458	0.68055	0.069
Mof_C 	C 	0.8903	0.3572	0.51525	-0.219
Mof_H 	H 	0.9005	0.3452	0.5243	0.082
Mof_C 	C 	0.8902	0.3573	0.48807	0.118
Mof_H 	H 	0.9004	0.3453	0.4789	-0.014
Mof_O 	O 	0.8893	0.3593	0.43301	-0.536
Mof_C 	C 	0.8629	0.3952	0.73441	-0.203
Mof_H 	H 	0.8548	0.4087	0.7253	0.084
Mof_C 	C 	0.8628	0.3953	0.76159	0.104
Mof_H 	H 	0.8547	0.4089	0.7706	-0.006
Mof_O 	O 	0.8608	0.3909	0.81687	-0.531
Mof_C 	C 	0.96565	0.41259	0.62492	-0.442
Mof_C 	C 	0.9693	0.43935	0.622	0.596
Mof_C 	C 	0.9944	0.44972	0.622	-0.731
Mof_H 	H 	0.9969	0.4676	0.62	0.257
Mof_C 	C 	0.0159	0.4333	0.62493	0.689
Mof_C 	C 	0.01224	0.4065	0.62785	-0.73
Mof_H 	H 	0.0266	0.3956	0.6298	0.24
Mof_C 	C 	0.9871	0.39617	0.62784	0.586
Mof_C 	C 	0.946	0.45718	0.61883	-1.101
Mof_H 	H 	0.9519	0.4749	0.6171	0.334
Mof_H 	H 	0.9349	0.4557	0.6339	0.333
Mof_H 	H 	0.9364	0.4522	0.6035	0.336
Mof_C 	C 	0.0432	0.4446	0.62494	-1.206
Mof_H 	H 	0.0423	0.4632	0.6228	0.369
Mof_H 	H 	0.0531	0.4371	0.6108	0.359
Mof_H 	H 	0.0516	0.4406	0.6413	0.354
Mof_C 	C 	0.9832	0.36709	0.63101	-1.081
Mof_H 	H 	0.9998	0.3587	0.6328	0.318
Mof_H 	H 	0.9743	0.3603	0.6159	0.321
Mof_H 	H 	0.9728	0.3638	0.6463	0.327
Mof_Zn	Zn	0.3707	0.8824	0.62485	0.837
Mof_N 	N 	0.40295	0.88667	0.59655	-0.339
Mof_C 	C 	0.398	0.88464	0.5693	0.062
Mof_C 	C 	0.42041	0.89392	0.5558	-0.118
Mof_H 	H 	0.4224	0.8948	0.5377	0.056
Mof_C 	C 	0.43921	0.90169	0.5747	-0.055
Mof_H 	H 	0.4557	0.9085	0.5712	0.027
Mof_C 	C 	0.42842	0.8972	0.59988	-0.014
Mof_C 	C 	0.43859	0.9014	0.62491	0.033
Mof_N 	N 	0.40283	0.88659	0.65328	-0.338
Mof_C 	C 	0.42829	0.8971	0.6498	-0.013
Mof_C 	C 	0.43922	0.90159	0.67492	-0.051
Mof_H 	H 	0.4557	0.9084	0.6783	0.031
Mof_C 	C 	0.42052	0.89386	0.69393	-0.112
Mof_H 	H 	0.4226	0.8947	0.712	0.059
Mof_C 	C 	0.39803	0.88458	0.68055	0.069
Mof_C 	C 	0.3903	0.8572	0.51525	-0.219
Mof_H 	H 	0.4005	0.8452	0.5243	0.082
Mof_C 	C 	0.3902	0.8573	0.48807	0.118
Mof_H 	H 	0.4004	0.8453	0.4789	-0.014
Mof_O 	O 	0.3893	0.8593	0.43301	-0.536
Mof_C 	C 	0.3629	0.8952	0.73441	-0.203
Mof_H 	H 	0.3548	0.9087	0.7253	0.084
Mof_C 	C 	0.3628	0.8953	0.76159	0.104
Mof_H 	H 	0.3547	0.9089	0.7706	-0.006
Mof_O 	O 	0.3608	0.8909	0.81687	-0.531
Mof_C 	C 	0.46565	0.91259	0.62492	-0.442
Mof_C 	C 	0.4693	0.93935	0.622	0.596
Mof_C 	C 	0.4944	0.94972	0.622	-0.731
Mof_H 	H 	0.4969	0.9676	0.62	0.257
Mof_C 	C 	0.5159	0.9333	0.62493	0.689
Mof_C 	C 	0.51224	0.9065	0.62785	-0.73
Mof_H 	H 	0.5266	0.8956	0.6298	0.24
Mof_C 	C 	0.4871	0.89617	0.62784	0.586
Mof_C 	C 	0.446	0.95718	0.61883	-1.101
Mof_H 	H 	0.4519	0.9749	0.6171	0.334
Mof_H 	H 	0.4349	0.9557	0.6339	0.333
Mof_H 	H 	0.4364	0.9522	0.6035	0.336
Mof_C 	C 	0.5432	0.9446	0.62494	-1.206
Mof_H 	H 	0.5423	0.9632	0.6228	0.369
Mof_H 	H 	0.5531	0.9371	0.6108	0.359
Mof_H 	H 	0.5516	0.9406	0.6413	0.354
Mof_C 	C 	0.4832	0.86709	0.63101	-1.081
Mof_H 	H 	0.4998	0.8587	0.6328	0.318
Mof_H 	H 	0.4743	0.8603	0.6159	0.321
Mof_H 	H 	0.4728	0.8638	0.6463	0.327
Mof_Zn	Zn	0.3707	0.3824	0.12485	0.837
Mof_N 	N 	0.40295	0.38667	0.09655	-0.339
Mof_C 	C 	0.398	0.38464	0.0693	0.062
Mof_C 	C 	0.42041	0.39392	0.0558	-0.118
Mof_H 	H 	0.4224	0.3948	0.0377	0.056
Mof_C 	C 	0.43921	0.40169	0.0747	-0.055
Mof_H 	H 	0.4557	0.4085	0.0712	0.027
Mof_C 	C 	0.42842	0.3972	0.09988	-0.014
Mof_C 	C 	0.43859	0.4014	0.12491	0.033
Mof_N 	N 	0.40283	0.38659	0.15328	-0.338
Mof_C 	C 	0.42829	0.3971	0.1498	-0.013
Mof_C 	C 	0.43922	0.40159	0.17492	-0.051
Mof_H 	H 	0.4557	0.4084	0.1783	0.031
Mof_C 	C 	0.42052	0.39386	0.19393	-0.112
Mof_H 	H 	0.4226	0.3947	0.212	0.059
Mof_C 	C 	0.39803	0.38458	0.18055	0.069
Mof_C 	C 	0.3903	0.3572	0.01525	-0.219
Mof_H 	H 	0.4005	0.3452	0.0243	0.082
Mof_C 	C 	0.3902	0.3573	0.98807	0.118
Mof_H 	H 	0.4004	0.3453	0.9789	-0.014
Mof_O 	O 	0.3893	0.3593	0.93301	-0.536
Mof_C 	C 	0.3629	0.3952	0.23441	-0.203
Mof_H 	H 	0.3548	0.4087	0.2253	0.084
Mof_C 	C 	0.3628	0.3953	0.26159	0.104
Mof_H 	H 	0.3547	0.4089	0.2706	-0.006
Mof_O 	O 	0.3608	0.3909	0.31687	-0.531
Mof_C 	C 	0.46565	0.41259	0.12492	-0.442
Mof_C 	C 	0.4693	0.43935	0.122	0.596
Mof_C 	C 	0.4944	0.44972	0.122	-0.731
Mof_H 	H 	0.4969	0.4676	0.12	0.257
Mof_C 	C 	0.5159	0.4333	0.12493	0.689
Mof_C 	C 	0.51224	0.4065	0.12785	-0.73
Mof_H 	H 	0.5266	0.3956	0.1298	0.24
Mof_C 	C 	0.4871	0.39617	0.12784	0.586
Mof_C 	C 	0.446	0.45718	0.11883	-1.101
Mof_H 	H 	0.4519	0.4749	0.1171	0.334
Mof_H 	H 	0.4349	0.4557	0.1339	0.333
Mof_H 	H 	0.4364	0.4522	0.1035	0.336
Mof_C 	C 	0.5432	0.4446	0.12494	-1.206
Mof_H 	H 	0.5423	0.4632	0.1228	0.369
Mof_H 	H 	0.5531	0.4371	0.1108	0.359
Mof_H 	H 	0.5516	0.4406	0.1413	0.354
Mof_C 	C 	0.4832	0.36709	0.13101	-1.081
Mof_H 	H 	0.4998	0.3587	0.1328	0.318
Mof_H 	H 	0.4743	0.3603	0.1159	0.321
Mof_H 	H 	0.4728	0.3638	0.1463	0.327
Mof_Zn	Zn	0.3793	0.8824	0.12515	0.837
Mof_N 	N 	0.34705	0.88667	0.15345	-0.339
Mof_C 	C 	0.352	0.88464	0.1807	0.062
Mof_C 	C 	0.32959	0.89392	0.1942	-0.118
Mof_H 	H 	0.3276	0.8948	0.2123	0.056
Mof_C 	C 	0.31079	0.90169	0.1753	-0.055
Mof_H 	H 	0.2943	0.9085	0.1788	0.027
Mof_C 	C 	0.32158	0.8972	0.15012	-0.014
Mof_C 	C 	0.31141	0.9014	0.12509	0.033
Mof_N 	N 	0.34717	0.88659	0.09672	-0.338
Mof_C 	C 	0.32171	0.8971	0.1002	-0.013
Mof_C 	C 	0.31078	0.90159	0.07508	-0.051
Mof_H 	H 	0.2943	0.9084	0.0717	0.031
Mof_C 	C 	0.32948	0.89386	0.05607	-0.112
Mof_H 	H 	0.3274	0.8947	0.038	0.059
Mof_C 	C 	0.35197	0.88458	0.06945	0.069
Mof_C 	C 	0.3597	0.8572	0.23475	-0.219
Mof_H 	H 	0.3495	0.8452	0.2257	0.082
Mof_C 	C 	0.3598	0.8573	0.26193	0.118
Mof_H 	H 	0.3496	0.8453	0.2711	-0.014
Mof_O 	O 	0.3607	0.8593	0.31699	-0.536
Mof_C 	C 	0.3871	0.8952	0.01559	-0.203
Mof_H 	H 	0.3952	0.9087	0.0247	0.084
Mof_C 	C 	0.3872	0.8953	0.98841	0.104
Mof_H 	H 	0.3953	0.9089	0.9794	-0.006
Mof_O 	O 	0.3892	0.8909	0.93313	-0.531
Mof_C 	C 	0.28435	0.91259	0.12508	-0.442
Mof_C 	C 	0.2807	0.93935	0.128	0.596
Mof_C 	C 	0.2556	0.94972	0.128	-0.731
Mof_H 	H 	0.2531	0.9676	0.13	0.257
Mof_C 	C 	0.2341	0.9333	0.12507	0.689
Mof_C 	C 	0.23776	0.9065	0.12215	-0.73
Mof_H 	H 	0.2234	0.8956	0.1202	0.24
Mof_C 	C 	0.2629	0.89617	0.12216	0.586
Mof_C 	C 	0.304	0.95718	0.13117	-1.101
Mof_H 	H 	0.2981	0.9749	0.1329	0.334
Mof_H 	H 	0.3151	0.9557	0.1161	0.333
Mof_H 	H 	0.3136	0.9522	0.1465	0.336
Mof_C 	C 	0.2068	0.9446	0.12506	-1.206
Mof_H 	H 	0.2077	0.9632	0.1272	0.369
Mof_H 	H 	0.1969	0.9371	0.1392	0.359
Mof_H 	H 	0.1984	0.9406	0.1087	0.354
Mof_C 	C 	0.2668	0.86709	0.11899	-1.081
Mof_H 	H 	0.2502	0.8587	0.1172	0.318
Mof_H 	H 	0.2757	0.8603	0.1341	0.321
Mof_H 	H 	0.2772	0.8638	0.1037	0.327
Mof_Zn	Zn	0.3793	0.3824	0.62515	0.837
Mof_N 	N 	0.34705	0.38667	0.65345	-0.339
Mof_C 	C 	0.352	0.38464	0.6807	0.062
Mof_C 	C 	0.32959	0.39392	0.6942	-0.118
Mof_H 	H 	0.3276	0.3948	0.7123	0.056
Mof_C 	C 	0.31079	0.40169	0.6753	-0.055
Mof_H 	H 	0.2943	0.4085	0.6788	0.027
Mof_C 	C 	0.32158	0.3972	0.65012	-0.014
Mof_C 	C 	0.31141	0.4014	0.62509	0.033
Mof_N 	N 	0.34717	0.38659	0.59672	-0.338
Mof_C 	C 	0.32171	0.3971	0.6002	-0.013
Mof_C 	C 	0.31078	0.40159	0.57508	-0.051
Mof_H 	H 	0.2943	0.4084	0.5717	0.031
Mof_C 	C 	0.32948	0.39386	0.55607	-0.112
Mof_H 	H 	0.3274	0.3947	0.538	0.059
Mof_C 	C 	0.35197	0.38458	0.56945	0.069
Mof_C 	C 	0.3597	0.3572	0.73475	-0.219
Mof_H 	H 	0.3495	0.3452	0.7257	0.082
Mof_C 	C 	0.3598	0.3573	0.76193	0.118
Mof_H 	H 	0.3496	0.3453	0.7711	-0.014
Mof_O 	O 	0.3607	0.3593	0.81699	-0.536
Mof_C 	C 	0.3871	0.3952	0.51559	-0.203
Mof_H 	H 	0.3952	0.4087	0.5247	0.084
Mof_C 	C 	0.3872	0.3953	0.48841	0.104
Mof_H 	H 	0.3953	0.4089	0.4794	-0.006
Mof_O 	O 	0.3892	0.3909	0.43313	-0.531
Mof_C 	C 	0.28435	0.41259	0.62508	-0.442
Mof_C 	C 	0.2807	0.43935	0.628	0.596
Mof_C 	C 	0.2556	0.44972	0.628	-0.731
Mof_H 	H 	0.2531	0.4676	0.63	0.257
Mof_C 	C 	0.2341	0.4333	0.62507	0.689
Mof_C 	C 	0.23776	0.4065	0.62215	-0.73
Mof_H 	H 	0.2234	0.3956	0.6202	0.24
Mof_C 	C 	0.2629	0.39617	0.62216	0.586
Mof_C 	C 	0.304	0.45718	0.63117	-1.101
Mof_H 	H 	0.2981	0.4749	0.6329	0.334
Mof_H 	H 	0.3151	0.4557	0.6161	0.333
Mof_H 	H 	0.3136	0.4522	0.6465	0.336
Mof_C 	C 	0.2068	0.4446	0.62506	-1.206
Mof_H 	H 	0.2077	0.4632	0.6272	0.369
Mof_H 	H 	0.1969	0.4371	0.6392	0.359
Mof_H 	H 	0.1984	0.4406	0.6087	0.354
Mof_C 	C 	0.2668	0.36709	0.61899	-1.081
Mof_H 	H 	0.2502	0.3587	0.6172	0.318
Mof_H 	H 	0.2757	0.3603	0.6341	0.321
Mof_H 	H 	0.2772	0.3638	0.6037	0.327
Mof_Zn	Zn	0.8793	0.8824	0.62515	0.837
Mof_N 	N 	0.84705	0.88667	0.65345	-0.339
Mof_C 	C 	0.852	0.88464	0.6807	0.062
Mof_C 	C 	0.82959	0.89392	0.6942	-0.118
Mof_H 	H 	0.8276	0.8948	0.7123	0.056
Mof_C 	C 	0.81079	0.90169	0.6753	-0.055
Mof_H 	H 	0.7943	0.9085	0.6788	0.027
Mof_C 	C 	0.82158	0.8972	0.65012	-0.014
Mof_C 	C 	0.81141	0.9014	0.62509	0.033
Mof_N 	N 	0.84717	0.88659	0.59672	-0.338
Mof_C 	C 	0.82171	0.8971	0.6002	-0.013
Mof_C 	C 	0.81078	0.90159	0.57508	-0.051
Mof_H 	H 	0.7943	0.9084	0.5717	0.031
Mof_C 	C 	0.82948	0.89386	0.55607	-0.112
Mof_H 	H 	0.8274	0.8947	0.538	0.059
Mof_C 	C 	0.85197	0.88458	0.56945	0.069
Mof_C 	C 	0.8597	0.8572	0.73475	-0.219
Mof_H 	H 	0.8495	0.8452	0.7257	0.082
Mof_C 	C 	0.8598	0.8573	0.76193	0.118
Mof_H 	H 	0.8496	0.8453	0.7711	-0.014
Mof_O 	O 	0.8607	0.8593	0.81699	-0.536
Mof_C 	C 	0.8871	0.8952	0.51559	-0.203
Mof_H 	H 	0.8952	0.9087	0.5247	0.084
Mof_C 	C 	0.8872	0.8953	0.48841	0.104
Mof_H 	H 	0.8953	0.9089	0.4794	-0.006
Mof_O 	O 	0.8892	0.8909	0.43313	-0.531
Mof_C 	C 	0.78435	0.91259	0.62508	-0.442
Mof_C 	C 	0.7807	0.93935	0.628	0.596
Mof_C 	C 	0.7556	0.94972	0.628	-0.731
Mof_H 	H 	0.7531	0.9676	0.63	0.257
Mof_C 	C 	0.7341	0.9333	0.62507	0.689
Mof_C 	C 	0.73776	0.9065	0.62215	-0.73
Mof_H 	H 	0.7234	0.8956	0.6202	0.24
Mof_C 	C 	0.7629	0.89617	0.62216	0.586
Mof_C 	C 	0.804	0.95718	0.63117	-1.101
Mof_H 	H 	0.7981	0.9749	0.6329	0.334
Mof_H 	H 	0.8151	0.9557	0.6161	0.333
Mof_H 	H 	0.8136	0.9522	0.6465	0.336
Mof_C 	C 	0.7068	0.9446	0.62506	-1.206
Mof_H 	H 	0.7077	0.9632	0.6272	0.369
Mof_H 	H 	0.6969	0.9371	0.6392	0.359
Mof_H 	H 	0.6984	0.9406	0.6087	0.354
Mof_C 	C 	0.7668	0.86709	0.61899	-1.081
Mof_H 	H 	0.7502	0.8587	0.6172	0.318
Mof_H 	H 	0.7757	0.8603	0.6341	0.321
Mof_H 	H 	0.7772	0.8638	0.6037	0.327
Mof_Zn	Zn	0.8793	0.3824	0.12515	0.837
Mof_N 	N 	0.84705	0.38667	0.15345	-0.339
Mof_C 	C 	0.852	0.38464	0.1807	0.062
Mof_C 	C 	0.82959	0.39392	0.1942	-0.118
Mof_H 	H 	0.8276	0.3948	0.2123	0.056
Mof_C 	C 	0.81079	0.40169	0.1753	-0.055
Mof_H 	H 	0.7943	0.4085	0.1788	0.027
Mof_C 	C 	0.82158	0.3972	0.15012	-0.014
Mof_C 	C 	0.81141	0.4014	0.12509	0.033
Mof_N 	N 	0.84717	0.38659	0.09672	-0.338
Mof_C 	C 	0.82171	0.3971	0.1002	-0.013
Mof_C 	C 	0.81078	0.40159	0.07508	-0.051
Mof_H 	H 	0.7943	0.4084	0.0717	0.031
Mof_C 	C 	0.82948	0.39386	0.05607	-0.112
Mof_H 	H 	0.8274	0.3947	0.038	0.059
Mof_C 	C 	0.85197	0.38458	0.06945	0.069
Mof_C 	C 	0.8597	0.3572	0.23475	-0.219
Mof_H 	H 	0.8495	0.3452	0.2257	0.082
Mof_C 	C 	0.8598	0.3573	0.26193	0.118
Mof_H 	H 	0.8496	0.3453	0.2711	-0.014
Mof_O 	O 	0.8607	0.3593	0.31699	-0.536
Mof_C 	C 	0.8871	0.3952	0.01559	-0.203
Mof_H 	H 	0.8952	0.4087	0.0247	0.084
Mof_C 	C 	0.8872	0.3953	0.98841	0.104
Mof_H 	H 	0.8953	0.4089	0.9794	-0.006
Mof_O 	O 	0.8892	0.3909	0.93313	-0.531
Mof_C 	C 	0.78435	0.41259	0.12508	-0.442
Mof_C 	C 	0.7807	0.43935	0.128	0.596
Mof_C 	C 	0.7556	0.44972	0.128	-0.731
Mof_H 	H 	0.7531	0.4676	0.13	0.257
Mof_C 	C 	0.7341	0.4333	0.12507	0.689
Mof_C 	C 	0.73776	0.4065	0.12215	-0.73
Mof_H 	H 	0.7234	0.3956	0.1202	0.24
Mof_C 	C 	0.7629	0.39617	0.12216	0.586
Mof_C 	C 	0.804	0.45718	0.13117	-1.101
Mof_H 	H 	0.7981	0.4749	0.1329	0.334
Mof_H 	H 	0.8151	0.4557	0.1161	0.333
Mof_H 	H 	0.8136	0.4522	0.1465	0.336
Mof_C 	C 	0.7068	0.4446	0.12506	-1.206
Mof_H 	H 	0.7077	0.4632	0.1272	0.369
Mof_H 	H 	0.6969	0.4371	0.1392	0.359
Mof_H 	H 	0.6984	0.4406	0.1087	0.354
Mof_C 	C 	0.7668	0.36709	0.11899	-1.081
Mof_H 	H 	0.7502	0.3587	0.1172	0.318
Mof_H 	H 	0.7757	0.3603	0.1341	0.321
Mof_H 	H 	0.7772	0.3638	0.1037	0.327
Mof_O 	O 	0.375	0.875	0.375	-0.967
Mof_O 	O 	0.875	0.375	0.375	-0.967
Mof_O 	O 	0.875	0.875	0.875	-0.967
Mof_O 	O 	0.375	0.375	0.875	-0.967
Mof_Zn	Zn	0.35328	0.89672	0.39672	1.22
Mof_Zn	Zn	0.89672	0.35328	0.39672	1.22
Mof_Zn	Zn	0.89672	0.89672	0.85328	1.22
Mof_Zn	Zn	0.35328	0.35328	0.85328	1.22
Mof_Zn	Zn	0.39672	0.35328	0.89672	1.22
Mof_Zn	Zn	0.39672	0.85328	0.39672	1.22
Mof_Zn	Zn	0.39672	0.89672	0.35328	1.22
Mof_Zn	Zn	0.39672	0.39672	0.85328	1.22
Mof_Zn	Zn	0.85328	0.89672	0.89672	1.22
Mof_Zn	Zn	0.85328	0.39672	0.39672	1.22
Mof_Zn	Zn	0.85328	0.35328	0.35328	1.22
Mof_Zn	Zn	0.85328	0.85328	0.85328	1.22
Mof_Zn	Zn	0.89672	0.39672	0.35328	1.22
Mof_Zn	Zn	0.35328	0.39672	0.89672	1.22
Mof_Zn	Zn	0.89672	0.85328	0.89672	1.22
Mof_Zn	Zn	0.35328	0.85328	0.35328	1.22
Mof_O 	O 	0.875	0.875	0.375	-0.951
Mof_O 	O 	0.375	0.375	0.375	-0.951
Mof_O 	O 	0.375	0.875	0.875	-0.951
Mof_O 	O 	0.875	0.375	0.875	-0.951
Mof_Zn	Zn	0.89692	0.85308	0.35308	1.219
Mof_Zn	Zn	0.35308	0.39692	0.35308	1.219
Mof_Zn	Zn	0.35308	0.89692	0.85308	1.219
Mof_Zn	Zn	0.85308	0.89692	0.35308	1.219
Mof_Zn	Zn	0.35308	0.85308	0.89692	1.219
Mof_Zn	Zn	0.85308	0.85308	0.39692	1.219
Mof_Zn	Zn	0.89692	0.39692	0.89692	1.219
Mof_Zn	Zn	0.85308	0.39692	0.85308	1.219
Mof_Zn	Zn	0.35308	0.35308	0.39692	1.219
Mof_Zn	Zn	0.85308	0.35308	0.89692	1.219
Mof_Zn	Zn	0.89692	0.35308	0.85308	1.219
Mof_Zn	Zn	0.89692	0.89692	0.39692	1.219
Mof_Zn	Zn	0.39692	0.35308	0.35308	1.219
Mof_Zn	Zn	0.39692	0.85308	0.85308	1.219
Mof_Zn	Zn	0.39692	0.89692	0.89692	1.219
Mof_Zn	Zn	0.39692	0.39692	0.39692	1.219
Mof_C 	C 	0.1918	0.875	0.375	-0.193
Mof_C 	C 	0.05843	0.875	0.375	-0.187
Mof_C 	C 	0.22105	0.875	0.375	0.157
Mof_C 	C 	0.2754	0.875	0.375	-0.212
Mof_C 	C 	0.3048	0.875	0.375	0.448
Mof_C 	C 	0.02908	0.875	0.375	0.151
Mof_C 	C 	0.97473	0.875	0.375	-0.192
Mof_C 	C 	0.9453	0.875	0.375	0.438
Mof_C 	C 	0.6918	0.875	0.875	-0.193
Mof_C 	C 	0.55843	0.875	0.875	-0.187
Mof_C 	C 	0.72105	0.875	0.875	0.157
Mof_C 	C 	0.7754	0.875	0.875	-0.212
Mof_C 	C 	0.8048	0.875	0.875	0.448
Mof_C 	C 	0.52908	0.875	0.875	0.151
Mof_C 	C 	0.47473	0.875	0.875	-0.192
Mof_C 	C 	0.4453	0.875	0.875	0.438
Mof_C 	C 	0.0582	0.375	0.375	-0.193
Mof_C 	C 	0.19157	0.375	0.375	-0.187
Mof_C 	C 	0.02895	0.375	0.375	0.157
Mof_C 	C 	0.9746	0.375	0.375	-0.212
Mof_C 	C 	0.9452	0.375	0.375	0.448
Mof_C 	C 	0.22092	0.375	0.375	0.151
Mof_C 	C 	0.27527	0.375	0.375	-0.192
Mof_C 	C 	0.3047	0.375	0.375	0.438
Mof_C 	C 	0.5582	0.375	0.875	-0.193
Mof_C 	C 	0.69157	0.375	0.875	-0.187
Mof_C 	C 	0.52895	0.375	0.875	0.157
Mof_C 	C 	0.4746	0.375	0.875	-0.212
Mof_C 	C 	0.4452	0.375	0.875	0.448
Mof_C 	C 	0.72092	0.375	0.875	0.151
Mof_C 	C 	0.77527	0.375	0.875	-0.192
Mof_C 	C 	0.8047	0.375	0.875	0.438
Mof_C 	C 	0.0582	0.875	0.875	-0.193
Mof_C 	C 	0.19157	0.875	0.875	-0.187
Mof_C 	C 	0.02895	0.875	0.875	0.157
Mof_C 	C 	0.9746	0.875	0.875	-0.212
Mof_C 	C 	0.9452	0.875	0.875	0.448
Mof_C 	C 	0.22092	0.875	0.875	0.151
Mof_C 	C 	0.27527	0.875	0.875	-0.192
Mof_C 	C 	0.3047	0.875	0.875	0.438
Mof_C 	C 	0.5582	0.875	0.375	-0.193
Mof_C 	C 	0.69157	0.875	0.375	-0.187
Mof_C 	C 	0.52895	0.875	0.375	0.157
Mof_C 	C 	0.4746	0.875	0.375	-0.212
Mof_C 	C 	0.4452	0.875	0.375	0.448
Mof_C 	C 	0.72092	0.875	0.375	0.151
Mof_C 	C 	0.77527	0.875	0.375	-0.192
Mof_C 	C 	0.8047	0.875	0.375	0.438
Mof_C 	C 	0.1918	0.375	0.875	-0.193
Mof_C 	C 	0.05843	0.375	0.875	-0.187
Mof_C 	C 	0.22105	0.375	0.875	0.157
Mof_C 	C 	0.2754	0.375	0.875	-0.212
Mof_C 	C 	0.3048	0.375	0.875	0.448
Mof_C 	C 	0.02908	0.375	0.875	0.151
Mof_C 	C 	0.97473	0.375	0.875	-0.192
Mof_C 	C 	0.9453	0.375	0.875	0.438
Mof_C 	C 	0.6918	0.375	0.375	-0.193
Mof_C 	C 	0.55843	0.375	0.375	-0.187
Mof_C 	C 	0.72105	0.375	0.375	0.157
Mof_C 	C 	0.7754	0.375	0.375	-0.212
Mof_C 	C 	0.8048	0.375	0.375	0.448
Mof_C 	C 	0.52908	0.375	0.375	0.151
Mof_C 	C 	0.47473	0.375	0.375	-0.192
Mof_C 	C 	0.4453	0.375	0.375	0.438
Mof_C 	C 	0.375	0.1918	0.875	-0.193
Mof_C 	C 	0.375	0.05843	0.875	-0.187
Mof_C 	C 	0.375	0.22105	0.875	0.157
Mof_C 	C 	0.375	0.2754	0.875	-0.212
Mof_C 	C 	0.375	0.3048	0.875	0.448
Mof_C 	C 	0.375	0.02908	0.875	0.151
Mof_C 	C 	0.375	0.97473	0.875	-0.192
Mof_C 	C 	0.375	0.9453	0.875	0.438
Mof_C 	C 	0.375	0.6918	0.375	-0.193
Mof_C 	C 	0.375	0.55843	0.375	-0.187
Mof_C 	C 	0.375	0.72105	0.375	0.157
Mof_C 	C 	0.375	0.7754	0.375	-0.212
Mof_C 	C 	0.375	0.8048	0.375	0.448
Mof_C 	C 	0.375	0.52908	0.375	0.151
Mof_C 	C 	0.375	0.47473	0.375	-0.192
Mof_C 	C 	0.375	0.4453	0.375	0.438
Mof_C 	C 	0.375	0.0582	0.375	-0.193
Mof_C 	C 	0.375	0.19157	0.375	-0.187
Mof_C 	C 	0.375	0.02895	0.375	0.157
Mof_C 	C 	0.375	0.9746	0.375	-0.212
Mof_C 	C 	0.375	0.9452	0.375	0.448
Mof_C 	C 	0.375	0.22092	0.375	0.151
Mof_C 	C 	0.375	0.27527	0.375	-0.192
Mof_C 	C 	0.375	0.3047	0.375	0.438
Mof_C 	C 	0.375	0.5582	0.875	-0.193
Mof_C 	C 	0.375	0.69157	0.875	-0.187
Mof_C 	C 	0.375	0.52895	0.875	0.157
Mof_C 	C 	0.375	0.4746	0.875	-0.212
Mof_C 	C 	0.375	0.4452	0.875	0.448
Mof_C 	C 	0.375	0.72092	0.875	0.151
Mof_C 	C 	0.375	0.77527	0.875	-0.192
Mof_C 	C 	0.375	0.8047	0.875	0.438
Mof_C 	C 	0.875	0.0582	0.875	-0.193
Mof_C 	C 	0.875	0.19157	0.875	-0.187
Mof_C 	C 	0.875	0.02895	0.875	0.157
Mof_C 	C 	0.875	0.9746	0.875	-0.212
Mof_C 	C 	0.875	0.9452	0.875	0.448
Mof_C 	C 	0.875	0.22092	0.875	0.151
Mof_C 	C 	0.875	0.27527	0.875	-0.192
Mof_C 	C 	0.875	0.3047	0.875	0.438
Mof_C 	C 	0.875	0.5582	0.375	-0.193
Mof_C 	C 	0.875	0.69157	0.375	-0.187
Mof_C 	C 	0.875	0.52895	0.375	0.157
Mof_C 	C 	0.875	0.4746	0.375	-0.212
Mof_C 	C 	0.875	0.4452	0.375	0.448
Mof_C 	C 	0.875	0.72092	0.375	0.151
Mof_C 	C 	0.875	0.77527	0.375	-0.192
Mof_C 	C 	0.875	0.8047	0.375	0.438
Mof_C 	C 	0.875	0.1918	0.375	-0.193
Mof_C 	C 	0.875	0.05843	0.375	-0.187
Mof_C 	C 	0.875	0.22105	0.375	0.157
Mof_C 	C 	0.875	0.2754	0.375	-0.212
Mof_C 	C 	0.875	0.3048	0.375	0.448
Mof_C 	C 	0.875	0.02908	0.375	0.151
Mof_C 	C 	0.875	0.97473	0.375	-0.192
Mof_C 	C 	0.875	0.9453	0.375	0.438
Mof_C 	C 	0.875	0.6918	0.875	-0.193
Mof_C 	C 	0.875	0.55843	0.875	-0.187
Mof_C 	C 	0.875	0.72105	0.875	0.157
Mof_C 	C 	0.875	0.7754	0.875	-0.212
Mof_C 	C 	0.875	0.8048	0.875	0.448
Mof_C 	C 	0.875	0.52908	0.875	0.151
Mof_C 	C 	0.875	0.47473	0.875	-0.192
Mof_C 	C 	0.875	0.4453	0.875	0.438
Mof_C 	C 	0.875	0.375	0.1918	-0.193
Mof_C 	C 	0.875	0.375	0.05843	-0.187
Mof_C 	C 	0.875	0.375	0.22105	0.157
Mof_C 	C 	0.875	0.375	0.2754	-0.212
Mof_C 	C 	0.875	0.375	0.3048	0.448
Mof_C 	C 	0.875	0.375	0.02908	0.151
Mof_C 	C 	0.875	0.375	0.97473	-0.192
Mof_C 	C 	0.875	0.375	0.9453	0.438
Mof_C 	C 	0.875	0.875	0.6918	-0.193
Mof_C 	C 	0.875	0.875	0.55843	-0.187
Mof_C 	C 	0.875	0.875	0.72105	0.157
Mof_C 	C 	0.875	0.875	0.7754	-0.212
Mof_C 	C 	0.875	0.875	0.8048	0.448
Mof_C 	C 	0.875	0.875	0.52908	0.151
Mof_C 	C 	0.875	0.875	0.47473	-0.192
Mof_C 	C 	0.875	0.875	0.4453	0.438
Mof_C 	C 	0.375	0.375	0.0582	-0.193
Mof_C 	C 	0.375	0.375	0.19157	-0.187
Mof_C 	C 	0.375	0.375	0.02895	0.157
Mof_C 	C 	0.375	0.375	0.9746	-0.212
Mof_C 	C 	0.375	0.375	0.9452	0.448
Mof_C 	C 	0.375	0.375	0.22092	0.151
Mof_C 	C 	0.375	0.375	0.27527	-0.192
Mof_C 	C 	0.375	0.375	0.3047	0.438
Mof_C 	C 	0.375	0.875	0.5582	-0.193
Mof_C 	C 	0.375	0.875	0.69157	-0.187
Mof_C 	C 	0.375	0.875	0.52895	0.157
Mof_C 	C 	0.375	0.875	0.4746	-0.212
Mof_C 	C 	0.375	0.875	0.4452	0.448
Mof_C 	C 	0.375	0.875	0.72092	0.151
Mof_C 	C 	0.375	0.875	0.77527	-0.192
Mof_C 	C 	0.375	0.875	0.8047	0.438
Mof_C 	C 	0.875	0.875	0.0582	-0.193
Mof_C 	C 	0.875	0.875	0.19157	-0.187
Mof_C 	C 	0.875	0.875	0.02895	0.157
Mof_C 	C 	0.875	0.875	0.9746	-0.212
Mof_C 	C 	0.875	0.875	0.9452	0.448
Mof_C 	C 	0.875	0.875	0.22092	0.151
Mof_C 	C 	0.875	0.875	0.27527	-0.192
Mof_C 	C 	0.875	0.875	0.3047	0.438
Mof_C 	C 	0.875	0.375	0.5582	-0.193
Mof_C 	C 	0.875	0.375	0.69157	-0.187
Mof_C 	C 	0.875	0.375	0.52895	0.157
Mof_C 	C 	0.875	0.375	0.4746	-0.212
Mof_C 	C 	0.875	0.375	0.4452	0.448
Mof_C 	C 	0.875	0.375	0.72092	0.151
Mof_C 	C 	0.875	0.375	0.77527	-0.192
Mof_C 	C 	0.875	0.375	0.8047	0.438
Mof_C 	C 	0.375	0.875	0.1918	-0.193
Mof_C 	C 	0.375	0.875	0.05843	-0.187
Mof_C 	C 	0.375	0.875	0.22105	0.157
Mof_C 	C 	0.375	0.875	0.2754	-0.212
Mof_C 	C 	0.375	0.875	0.3048	0.448
Mof_C 	C 	0.375	0.875	0.02908	0.151
Mof_C 	C 	0.375	0.875	0.97473	-0.192
Mof_C 	C 	0.375	0.875	0.9453	0.438
Mof_C 	C 	0.375	0.375	0.6918	-0.193
Mof_C 	C 	0.375	0.375	0.55843	-0.187
Mof_C 	C 	0.375	0.375	0.72105	0.157
Mof_C 	C 	0.375	0.375	0.7754	-0.212
Mof_C 	C 	0.375	0.375	0.8048	0.448
Mof_C 	C 	0.375	0.375	0.52908	0.151
Mof_C 	C 	0.375	0.375	0.47473	-0.192
Mof_C 	C 	0.375	0.375	0.4453	0.438
Mof_Zn	Zn	0.87485	0.1293	0.6324	0.837
Mof_N 	N 	0.84655	0.09705	0.63667	-0.339
Mof_C 	C 	0.8193	0.102	0.63464	0.062
Mof_C 	C 	0.8058	0.07959	0.64392	-0.118
Mof_H 	H 	0.7877	0.0776	0.6448	0.056
Mof_C 	C 	0.8247	0.06079	0.65169	-0.055
Mof_H 	H 	0.8212	0.0443	0.6585	0.027
Mof_C 	C 	0.84988	0.07158	0.6472	-0.014
Mof_C 	C 	0.87491	0.06141	0.6514	0.033
Mof_N 	N 	0.90328	0.09717	0.63659	-0.338
Mof_C 	C 	0.8998	0.07171	0.6471	-0.013
Mof_C 	C 	0.92492	0.06078	0.65159	-0.051
Mof_H 	H 	0.9283	0.0443	0.6584	0.031
Mof_C 	C 	0.94393	0.07948	0.64386	-0.112
Mof_H 	H 	0.962	0.0774	0.6447	0.059
Mof_C 	C 	0.93055	0.10197	0.63458	0.069
Mof_C 	C 	0.76525	0.1097	0.6072	-0.219
Mof_H 	H 	0.7743	0.0995	0.5952	0.082
Mof_C 	C 	0.73807	0.1098	0.6073	0.118
Mof_H 	H 	0.7289	0.0996	0.5953	-0.014
Mof_O 	O 	0.68301	0.1107	0.6093	-0.536
Mof_C 	C 	0.98441	0.1371	0.6452	-0.203
Mof_H 	H 	0.9753	0.1452	0.6587	0.084
Mof_C 	C 	0.01159	0.1372	0.6453	0.104
Mof_H 	H 	0.0206	0.1453	0.6589	-0.006
Mof_O 	O 	0.06687	0.1392	0.6409	-0.531
Mof_C 	C 	0.87492	0.03435	0.66259	-0.442
Mof_C 	C 	0.872	0.0307	0.68935	0.596
Mof_C 	C 	0.872	0.0056	0.69972	-0.731
Mof_H 	H 	0.87	0.0031	0.7176	0.257
Mof_C 	C 	0.87493	0.9841	0.6833	0.689
Mof_C 	C 	0.87785	0.98776	0.6565	-0.73
Mof_H 	H 	0.8798	0.9734	0.6456	0.24
Mof_C 	C 	0.87784	0.0129	0.64617	0.586
Mof_C 	C 	0.86883	0.054	0.70718	-1.101
Mof_H 	H 	0.8671	0.0481	0.7249	0.334
Mof_H 	H 	0.8839	0.0651	0.7057	0.333
Mof_H 	H 	0.8535	0.0636	0.7022	0.336
Mof_C 	C 	0.87494	0.9568	0.6946	-1.206
Mof_H 	H 	0.8728	0.9577	0.7132	0.369
Mof_H 	H 	0.8608	0.9469	0.6871	0.359
Mof_H 	H 	0.8913	0.9484	0.6906	0.354
Mof_C 	C 	0.88101	0.0168	0.61709	-1.081
Mof_H 	H 	0.8828	0.0002	0.6087	0.318
Mof_H 	H 	0.8659	0.0257	0.6103	0.321
Mof_H 	H 	0.8963	0.0272	0.6138	0.327
Mof_Zn	Zn	0.87485	0.6293	0.1324	0.837
Mof_N 	N 	0.84655	0.59705	0.13667	-0.339
Mof_C 	C 	0.8193	0.602	0.13464	0.062
Mof_C 	C 	0.8058	0.57959	0.14392	-0.118
Mof_H 	H 	0.7877	0.5776	0.1448	0.056
Mof_C 	C 	0.8247	0.56079	0.15169	-0.055
Mof_H 	H 	0.8212	0.5443	0.1585	0.027
Mof_C 	C 	0.84988	0.57158	0.1472	-0.014
Mof_C 	C 	0.87491	0.56141	0.1514	0.033
Mof_N 	N 	0.90328	0.59717	0.13659	-0.338
Mof_C 	C 	0.8998	0.57171	0.1471	-0.013
Mof_C 	C 	0.92492	0.56078	0.15159	-0.051
Mof_H 	H 	0.9283	0.5443	0.1584	0.031
Mof_C 	C 	0.94393	0.57948	0.14386	-0.112
Mof_H 	H 	0.962	0.5774	0.1447	0.059
Mof_C 	C 	0.93055	0.60197	0.13458	0.069
Mof_C 	C 	0.76525	0.6097	0.1072	-0.219
Mof_H 	H 	0.7743	0.5995	0.0952	0.082
Mof_C 	C 	0.73807	0.6098	0.1073	0.118
Mof_H 	H 	0.7289	0.5996	0.0953	-0.014
Mof_O 	O 	0.68301	0.6107	0.1093	-0.536
Mof_C 	C 	0.98441	0.6371	0.1452	-0.203
Mof_H 	H 	0.9753	0.6452	0.1587	0.084
Mof_C 	C 	0.01159	0.6372	0.1453	0.104
Mof_H 	H 	0.0206	0.6453	0.1589	-0.006
Mof_O 	O 	0.06687	0.6392	0.1409	-0.531
Mof_C 	C 	0.87492	0.53435	0.16259	-0.442
Mof_C 	C 	0.872	0.5307	0.18935	0.596
Mof_C 	C 	0.872	0.5056	0.19972	-0.731
Mof_H 	H 	0.87	0.5031	0.2176	0.257
Mof_C 	C 	0.87493	0.4841	0.1833	0.689
Mof_C 	C 	0.87785	0.48776	0.1565	-0.73
Mof_H 	H 	0.8798	0.4734	0.1456	0.24
Mof_C 	C 	0.87784	0.5129	0.14617	0.586
Mof_C 	C 	0.86883	0.554	0.20718	-1.101
Mof_H 	H 	0.8671	0.5481	0.2249	0.334
Mof_H 	H 	0.8839	0.5651	0.2057	0.333
Mof_H 	H 	0.8535	0.5636	0.2022	0.336
Mof_C 	C 	0.87494	0.4568	0.1946	-1.206
Mof_H 	H 	0.8728	0.4577	0.2132	0.369
Mof_H 	H 	0.8608	0.4469	0.1871	0.359
Mof_H 	H 	0.8913	0.4484	0.1906	0.354
Mof_C 	C 	0.88101	0.5168	0.11709	-1.081
Mof_H 	H 	0.8828	0.5002	0.1087	0.318
Mof_H 	H 	0.8659	0.5257	0.1103	0.321
Mof_H 	H 	0.8963	0.5272	0.1138	0.327
Mof_Zn	Zn	0.37485	0.1293	0.1324	0.837
Mof_N 	N 	0.34655	0.09705	0.13667	-0.339
Mof_C 	C 	0.3193	0.102	0.13464	0.062
Mof_C 	C 	0.3058	0.07959	0.14392	-0.118
Mof_H 	H 	0.2877	0.0776	0.1448	0.056
Mof_C 	C 	0.3247	0.06079	0.15169	-0.055
Mof_H 	H 	0.3212	0.0443	0.1585	0.027
Mof_C 	C 	0.34988	0.07158	0.1472	-0.014
Mof_C 	C 	0.37491	0.06141	0.1514	0.033
Mof_N 	N 	0.40328	0.09717	0.13659	-0.338
Mof_C 	C 	0.3998	0.07171	0.1471	-0.013
Mof_C 	C 	0.42492	0.06078	0.15159	-0.051
Mof_H 	H 	0.4283	0.0443	0.1584	0.031
Mof_C 	C 	0.44393	0.07948	0.14386	-0.112
Mof_H 	H 	0.462	0.0774	0.1447	0.059
Mof_C 	C 	0.43055	0.10197	0.13458	0.069
Mof_C 	C 	0.26525	0.1097	0.1072	-0.219
Mof_H 	H 	0.2743	0.0995	0.0952	0.082
Mof_C 	C 	0.23807	0.1098	0.1073	0.118
Mof_H 	H 	0.2289	0.0996	0.0953	-0.014
Mof_O 	O 	0.18301	0.1107	0.1093	-0.536
Mof_C 	C 	0.48441	0.1371	0.1452	-0.203
Mof_H 	H 	0.4753	0.1452	0.1587	0.084
Mof_C 	C 	0.51159	0.1372	0.1453	0.104
Mof_H 	H 	0.5206	0.1453	0.1589	-0.006
Mof_O 	O 	0.56687	0.1392	0.1409	-0.531
Mof_C 	C 	0.37492	0.03435	0.16259	-0.442
Mof_C 	C 	0.372	0.0307	0.18935	0.596
Mof_C 	C 	0.372	0.0056	0.19972	-0.731
Mof_H 	H 	0.37	0.0031	0.2176	0.257
Mof_C 	C 	0.37493	0.9841	0.1833	0.689
Mof_C 	C 	0.37785	0.98776	0.1565	-0.73
Mof_H 	H 	0.3798	0.9734	0.1456	0.24
Mof_C 	C 	0.37784	0.0129	0.14617	0.586
Mof_C 	C 	0.36883	0.054	0.20718	-1.101
Mof_H 	H 	0.3671	0.0481	0.2249	0.334
Mof_H 	H 	0.3839	0.0651	0.2057	0.333
Mof_H 	H 	0.3535	0.0636	0.2022	0.336
Mof_C 	C 	0.37494	0.9568	0.1946	-1.206
Mof_H 	H 	0.3728	0.9577	0.2132	0.369
Mof_H 	H 	0.3608	0.9469	0.1871	0.359
Mof_H 	H 	0.3913	0.9484	0.1906	0.354
Mof_C 	C 	0.38101	0.0168	0.11709	-1.081
Mof_H 	H 	0.3828	0.0002	0.1087	0.318
Mof_H 	H 	0.3659	0.0257	0.1103	0.321
Mof_H 	H 	0.3963	0.0272	0.1138	0.327
Mof_Zn	Zn	0.37485	0.6293	0.6324	0.837
Mof_N 	N 	0.34655	0.59705	0.63667	-0.339
Mof_C 	C 	0.3193	0.602	0.63464	0.062
Mof_C 	C 	0.3058	0.57959	0.64392	-0.118
Mof_H 	H 	0.2877	0.5776	0.6448	0.056
Mof_C 	C 	0.3247	0.56079	0.65169	-0.055
Mof_H 	H 	0.3212	0.5443	0.6585	0.027
Mof_C 	C 	0.34988	0.57158	0.6472	-0.014
Mof_C 	C 	0.37491	0.56141	0.6514	0.033
Mof_N 	N 	0.40328	0.59717	0.63659	-0.338
Mof_C 	C 	0.3998	0.57171	0.6471	-0.013
Mof_C 	C 	0.42492	0.56078	0.65159	-0.051
Mof_H 	H 	0.4283	0.5443	0.6584	0.031
Mof_C 	C 	0.44393	0.57948	0.64386	-0.112
Mof_H 	H 	0.462	0.5774	0.6447	0.059
Mof_C 	C 	0.43055	0.60197	0.63458	0.069
Mof_C 	C 	0.26525	0.6097	0.6072	-0.219
Mof_H 	H 	0.2743	0.5995	0.5952	0.082
Mof_C 	C 	0.23807	0.6098	0.6073	0.118
Mof_H 	H 	0.2289	0.5996	0.5953	-0.014
Mof_O 	O 	0.18301	0.6107	0.6093	-0.536
Mof_C 	C 	0.48441	0.6371	0.6452	-0.203
Mof_H 	H 	0.4753	0.6452	0.6587	0.084
Mof_C 	C 	0.51159	0.6372	0.6453	0.104
Mof_H 	H 	0.5206	0.6453	0.6589	-0.006
Mof_O 	O 	0.56687	0.6392	0.6409	-0.531
Mof_C 	C 	0.37492	0.53435	0.66259	-0.442
Mof_C 	C 	0.372	0.5307	0.68935	0.596
Mof_C 	C 	0.372	0.5056	0.69972	-0.731
Mof_H 	H 	0.37	0.5031	0.7176	0.257
Mof_C 	C 	0.37493	0.4841	0.6833	0.689
Mof_C 	C 	0.37785	0.48776	0.6565	-0.73
Mof_H 	H 	0.3798	0.4734	0.6456	0.24
Mof_C 	C 	0.37784	0.5129	0.64617	0.586
Mof_C 	C 	0.36883	0.554	0.70718	-1.101
Mof_H 	H 	0.3671	0.5481	0.7249	0.334
Mof_H 	H 	0.3839	0.5651	0.7057	0.333
Mof_H 	H 	0.3535	0.5636	0.7022	0.336
Mof_C 	C 	0.37494	0.4568	0.6946	-1.206
Mof_H 	H 	0.3728	0.4577	0.7132	0.369
Mof_H 	H 	0.3608	0.4469	0.6871	0.359
Mof_H 	H 	0.3913	0.4484	0.6906	0.354
Mof_C 	C 	0.38101	0.5168	0.61709	-1.081
Mof_H 	H 	0.3828	0.5002	0.6087	0.318
Mof_H 	H 	0.3659	0.5257	0.6103	0.321
Mof_H 	H 	0.3963	0.5272	0.6138	0.327
Mof_Zn	Zn	0.87515	0.6207	0.6324	0.837
Mof_N 	N 	0.90345	0.65295	0.63667	-0.339
Mof_C 	C 	0.9307	0.648	0.63464	0.062
Mof_C 	C 	0.9442	0.67041	0.64392	-0.118
Mof_H 	H 	0.9623	0.6724	0.6448	0.056
Mof_C 	C 	0.9253	0.68921	0.65169	-0.055
Mof_H 	H 	0.9288	0.7057	0.6585	0.027
Mof_C 	C 	0.90012	0.67842	0.6472	-0.014
Mof_C 	C 	0.87509	0.68859	0.6514	0.033
Mof_N 	N 	0.84672	0.65283	0.63659	-0.338
Mof_C 	C 	0.8502	0.67829	0.6471	-0.013
Mof_C 	C 	0.82508	0.68922	0.65159	-0.051
Mof_H 	H 	0.8217	0.7057	0.6584	0.031
Mof_C 	C 	0.80607	0.67052	0.64386	-0.112
Mof_H 	H 	0.788	0.6726	0.6447	0.059
Mof_C 	C 	0.81945	0.64803	0.63458	0.069
Mof_C 	C 	0.98475	0.6403	0.6072	-0.219
Mof_H 	H 	0.9757	0.6505	0.5952	0.082
Mof_C 	C 	0.01193	0.6402	0.6073	0.118
Mof_H 	H 	0.0211	0.6504	0.5953	-0.014
Mof_O 	O 	0.06699	0.6393	0.6093	-0.536
Mof_C 	C 	0.76559	0.6129	0.6452	-0.203
Mof_H 	H 	0.7747	0.6048	0.6587	0.084
Mof_C 	C 	0.73841	0.6128	0.6453	0.104
Mof_H 	H 	0.7294	0.6047	0.6589	-0.006
Mof_O 	O 	0.68313	0.6108	0.6409	-0.531
Mof_C 	C 	0.87508	0.71565	0.66259	-0.442
Mof_C 	C 	0.878	0.7193	0.68935	0.596
Mof_C 	C 	0.878	0.7444	0.69972	-0.731
Mof_H 	H 	0.88	0.7469	0.7176	0.257
Mof_C 	C 	0.87507	0.7659	0.6833	0.689
Mof_C 	C 	0.87215	0.76224	0.6565	-0.73
Mof_H 	H 	0.8702	0.7766	0.6456	0.24
Mof_C 	C 	0.87216	0.7371	0.64617	0.586
Mof_C 	C 	0.88117	0.696	0.70718	-1.101
Mof_H 	H 	0.8829	0.7019	0.7249	0.334
Mof_H 	H 	0.8661	0.6849	0.7057	0.333
Mof_H 	H 	0.8965	0.6864	0.7022	0.336
Mof_C 	C 	0.87506	0.7932	0.6946	-1.206
Mof_H 	H 	0.8772	0.7923	0.7132	0.369
Mof_H 	H 	0.8892	0.8031	0.6871	0.359
Mof_H 	H 	0.8587	0.8016	0.6906	0.354
Mof_C 	C 	0.86899	0.7332	0.61709	-1.081
Mof_H 	H 	0.8672	0.7498	0.6087	0.318
Mof_H 	H 	0.8841	0.7243	0.6103	0.321
Mof_H 	H 	0.8537	0.7228	0.6138	0.327
Mof_Zn	Zn	0.87515	0.1207	0.1324	0.837
Mof_N 	N 	0.90345	0.15295	0.13667	-0.339
Mof_C 	C 	0.9307	0.148	0.13464	0.062
Mof_C 	C 	0.9442	0.17041	0.14392	-0.118
Mof_H 	H 	0.9623	0.1724	0.1448	0.056
Mof_C 	C 	0.9253	0.18921	0.15169	-0.055
Mof_H 	H 	0.9288	0.2057	0.1585	0.027
Mof_C 	C 	0.90012	0.17842	0.1472	-0.014
Mof_C 	C 	0.87509	0.18859	0.1514	0.033
Mof_N 	N 	0.84672	0.15283	0.13659	-0.338
Mof_C 	C 	0.8502	0.17829	0.1471	-0.013
Mof_C 	C 	0.82508	0.18922	0.15159	-0.051
Mof_H 	H 	0.8217	0.2057	0.1584	0.031
Mof_C 	C 	0.80607	0.17052	0.14386	-0.112
Mof_H 	H 	0.788	0.1726	0.1447	0.059
Mof_C 	C 	0.81945	0.14803	0.13458	0.069
Mof_C 	C 	0.98475	0.1403	0.1072	-0.219
Mof_H 	H 	0.9757	0.1505	0.0952	0.082
Mof_C 	C 	0.01193	0.1402	0.1073	0.118
Mof_H 	H 	0.0211	0.1504	0.0953	-0.014
Mof_O 	O 	0.06699	0.1393	0.1093	-0.536
Mof_C 	C 	0.76559	0.1129	0.1452	-0.203
Mof_H 	H 	0.7747	0.1048	0.1587	0.084
Mof_C 	C 	0.73841	0.1128	0.1453	0.104
Mof_H 	H 	0.7294	0.1047	0.1589	-0.006
Mof_O 	O 	0.68313	0.1108	0.1409	-0.531
Mof_C 	C 	0.87508	0.21565	0.16259	-0.442
Mof_C 	C 	0.878	0.2193	0.18935	0.596
Mof_C 	C 	0.878	0.2444	0.19972	-0.731
Mof_H 	H 	0.88	0.2469	0.2176	0.257
Mof_C 	C 	0.87507	0.2659	0.1833	0.689
Mof_C 	C 	0.87215	0.26224	0.1565	-0.73
Mof_H 	H 	0.8702	0.2766	0.1456	0.24
Mof_C 	C 	0.87216	0.2371	0.14617	0.586
Mof_C 	C 	0.88117	0.196	0.20718	-1.101
Mof_H 	H 	0.8829	0.2019	0.2249	0.334
Mof_H 	H 	0.8661	0.1849	0.2057	0.333
Mof_H 	H 	0.8965	0.1864	0.2022	0.336
Mof_C 	C 	0.87506	0.2932	0.1946	-1.206
Mof_H 	H 	0.8772	0.2923	0.2132	0.369
Mof_H 	H 	0.8892	0.3031	0.1871	0.359
Mof_H 	H 	0.8587	0.3016	0.1906	0.354
Mof_C 	C 	0.86899	0.2332	0.11709	-1.081
Mof_H 	H 	0.8672	0.2498	0.1087	0.318
Mof_H 	H 	0.8841	0.2243	0.1103	0.321
Mof_H 	H 	0.8537	0.2228	0.1138	0.327
Mof_Zn	Zn	0.37515	0.6207	0.1324	0.837
Mof_N 	N 	0.40345	0.65295	0.13667	-0.339
Mof_C 	C 	0.4307	0.648	0.13464	0.062
Mof_C 	C 	0.4442	0.67041	0.14392	-0.118
Mof_H 	H 	0.4623	0.6724	0.1448	0.056
Mof_C 	C 	0.4253	0.68921	0.15169	-0.055
Mof_H 	H 	0.4288	0.7057	0.1585	0.027
Mof_C 	C 	0.40012	0.67842	0.1472	-0.014
Mof_C 	C 	0.37509	0.68859	0.1514	0.033
Mof_N 	N 	0.34672	0.65283	0.13659	-0.338
Mof_C 	C 	0.3502	0.67829	0.1471	-0.013
Mof_C 	C 	0.32508	0.68922	0.15159	-0.051
Mof_H 	H 	0.3217	0.7057	0.1584	0.031
Mof_C 	C 	0.30607	0.67052	0.14386	-0.112
Mof_H 	H 	0.288	0.6726	0.1447	0.059
Mof_C 	C 	0.31945	0.64803	0.13458	0.069
Mof_C 	C 	0.48475	0.6403	0.1072	-0.219
Mof_H 	H 	0.4757	0.6505	0.0952	0.082
Mof_C 	C 	0.51193	0.6402	0.1073	0.118
Mof_H 	H 	0.5211	0.6504	0.0953	-0.014
Mof_O 	O 	0.56699	0.6393	0.1093	-0.536
Mof_C 	C 	0.26559	0.6129	0.1452	-0.203
Mof_H 	H 	0.2747	0.6048	0.1587	0.084
Mof_C 	C 	0.23841	0.6128	0.1453	0.104
Mof_H 	H 	0.2294	0.6047	0.1589	-0.006
Mof_O 	O 	0.18313	0.6108	0.1409	-0.531
Mof_C 	C 	0.37508	0.71565	0.16259	-0.442
Mof_C 	C 	0.378	0.7193	0.18935	0.596
Mof_C 	C 	0.378	0.7444	0.19972	-0.731
Mof_H 	H 	0.38	0.7469	0.2176	0.257
Mof_C 	C 	0.37507	0.7659	0.1833	0.689
Mof_C 	C 	0.37215	0.76224	0.1565	-0.73
Mof_H 	H 	0.3702	0.7766	0.1456	0.24
Mof_C 	C 	0.37216	0.7371	0.14617	0.586
Mof_C 	C 	0.38117	0.696	0.20718	-1.101
Mof_H 	H 	0.3829	0.7019	0.2249	0.334
Mof_H 	H 	0.3661	0.6849	0.2057	0.333
Mof_H 	H 	0.3965	0.6864	0.2022	0.336
Mof_C 	C 	0.37506	0.7932	0.1946	-1.206
Mof_H 	H 	0.3772	0.7923	0.2132	0.369
Mof_H 	H 	0.3892	0.8031	0.1871	0.359
Mof_H 	H 	0.3587	0.8016	0.1906	0.354
Mof_C 	C 	0.36899	0.7332	0.11709	-1.081
Mof_H 	H 	0.3672	0.7498	0.1087	0.318
Mof_H 	H 	0.3841	0.7243	0.1103	0.321
Mof_H 	H 	0.3537	0.7228	0.1138	0.327
Mof_Zn	Zn	0.37515	0.1207	0.6324	0.837
Mof_N 	N 	0.40345	0.15295	0.63667	-0.339
Mof_C 	C 	0.4307	0.148	0.63464	0.062
Mof_C 	C 	0.4442	0.17041	0.64392	-0.118
Mof_H 	H 	0.4623	0.1724	0.6448	0.056
Mof_C 	C 	0.4253	0.18921	0.65169	-0.055
Mof_H 	H 	0.4288	0.2057	0.6585	0.027
Mof_C 	C 	0.40012	0.17842	0.6472	-0.014
Mof_C 	C 	0.37509	0.18859	0.6514	0.033
Mof_N 	N 	0.34672	0.15283	0.63659	-0.338
Mof_C 	C 	0.3502	0.17829	0.6471	-0.013
Mof_C 	C 	0.32508	0.18922	0.65159	-0.051
Mof_H 	H 	0.3217	0.2057	0.6584	0.031
Mof_C 	C 	0.30607	0.17052	0.64386	-0.112
Mof_H 	H 	0.288	0.1726	0.6447	0.059
Mof_C 	C 	0.31945	0.14803	0.63458	0.069
Mof_C 	C 	0.48475	0.1403	0.6072	-0.219
Mof_H 	H 	0.4757	0.1505	0.5952	0.082
Mof_C 	C 	0.51193	0.1402	0.6073	0.118
Mof_H 	H 	0.5211	0.1504	0.5953	-0.014
Mof_O 	O 	0.56699	0.1393	0.6093	-0.536
Mof_C 	C 	0.26559	0.1129	0.6452	-0.203
Mof_H 	H 	0.2747	0.1048	0.6587	0.084
Mof_C 	C 	0.23841	0.1128	0.6453	0.104
Mof_H 	H 	0.2294	0.1047	0.6589	-0.006
Mof_O 	O 	0.18313	0.1108	0.6409	-0.531
Mof_C 	C 	0.37508	0.21565	0.66259	-0.442
Mof_C 	C 	0.378	0.2193	0.68935	0.596
Mof_C 	C 	0.378	0.2444	0.69972	-0.731
Mof_H 	H 	0.38	0.2469	0.7176	0.257
Mof_C 	C 	0.37507	0.2659	0.6833	0.689
Mof_C 	C 	0.37215	0.26224	0.6565	-0.73
Mof_H 	H 	0.3702	0.2766	0.6456	0.24
Mof_C 	C 	0.37216	0.2371	0.64617	0.586
Mof_C 	C 	0.38117	0.196	0.70718	-1.101
Mof_H 	H 	0.3829	0.2019	0.7249	0.334
Mof_H 	H 	0.3661	0.1849	0.7057	0.333
Mof_H 	H 	0.3965	0.1864	0.7022	0.336
Mof_C 	C 	0.37506	0.2932	0.6946	-1.206
Mof_H 	H 	0.3772	0.2923	0.7132	0.369
Mof_H 	H 	0.3892	0.3031	0.6871	0.359
Mof_H 	H 	0.3587	0.3016	0.6906	0.354
Mof_C 	C 	0.36899	0.2332	0.61709	-1.081
Mof_H 	H 	0.3672	0.2498	0.6087	0.318
Mof_H 	H 	0.3841	0.2243	0.6103	0.321
Mof_H 	H 	0.3537	0.2228	0.6138	0.327
Mof_Zn	Zn	0.87515	0.1293	0.1176	0.837
Mof_N 	N 	0.90345	0.09705	0.11333	-0.339
Mof_C 	C 	0.9307	0.102	0.11536	0.062
Mof_C 	C 	0.9442	0.07959	0.10608	-0.118
Mof_H 	H 	0.9623	0.0776	0.1052	0.056
Mof_C 	C 	0.9253	0.06079	0.09831	-0.055
Mof_H 	H 	0.9288	0.0443	0.0915	0.027
Mof_C 	C 	0.90012	0.07158	0.1028	-0.014
Mof_C 	C 	0.87509	0.06141	0.0986	0.033
Mof_N 	N 	0.84672	0.09717	0.11341	-0.338
Mof_C 	C 	0.8502	0.07171	0.1029	-0.013
Mof_C 	C 	0.82508	0.06078	0.09841	-0.051
Mof_H 	H 	0.8217	0.0443	0.0916	0.031
Mof_C 	C 	0.80607	0.07948	0.10614	-0.112
Mof_H 	H 	0.788	0.0774	0.1053	0.059
Mof_C 	C 	0.81945	0.10197	0.11542	0.069
Mof_C 	C 	0.98475	0.1097	0.1428	-0.219
Mof_H 	H 	0.9757	0.0995	0.1548	0.082
Mof_C 	C 	0.01193	0.1098	0.1427	0.118
Mof_H 	H 	0.0211	0.0996	0.1547	-0.014
Mof_O 	O 	0.06699	0.1107	0.1407	-0.536
Mof_C 	C 	0.76559	0.1371	0.1048	-0.203
Mof_H 	H 	0.7747	0.1452	0.0913	0.084
Mof_C 	C 	0.73841	0.1372	0.1047	0.104
Mof_H 	H 	0.7294	0.1453	0.0911	-0.006
Mof_O 	O 	0.68313	0.1392	0.1091	-0.531
Mof_C 	C 	0.87508	0.03435	0.08741	-0.442
Mof_C 	C 	0.878	0.0307	0.06065	0.596
Mof_C 	C 	0.878	0.0056	0.05028	-0.731
Mof_H 	H 	0.88	0.0031	0.0324	0.257
Mof_C 	C 	0.87507	0.9841	0.0667	0.689
Mof_C 	C 	0.87215	0.98776	0.0935	-0.73
Mof_H 	H 	0.8702	0.9734	0.1044	0.24
Mof_C 	C 	0.87216	0.0129	0.10383	0.586
Mof_C 	C 	0.88117	0.054	0.04282	-1.101
Mof_H 	H 	0.8829	0.0481	0.0251	0.334
Mof_H 	H 	0.8661	0.0651	0.0443	0.333
Mof_H 	H 	0.8965	0.0636	0.0478	0.336
Mof_C 	C 	0.87506	0.9568	0.0554	-1.206
Mof_H 	H 	0.8772	0.9577	0.0368	0.369
Mof_H 	H 	0.8892	0.9469	0.0629	0.359
Mof_H 	H 	0.8587	0.9484	0.0594	0.354
Mof_C 	C 	0.86899	0.0168	0.13291	-1.081
Mof_H 	H 	0.8672	0.0002	0.1413	0.318
Mof_H 	H 	0.8841	0.0257	0.1397	0.321
Mof_H 	H 	0.8537	0.0272	0.1362	0.327
Mof_Zn	Zn	0.87515	0.6293	0.6176	0.837
Mof_N 	N 	0.90345	0.59705	0.61333	-0.339
Mof_C 	C 	0.9307	0.602	0.61536	0.062
Mof_C 	C 	0.9442	0.57959	0.60608	-0.118
Mof_H 	H 	0.9623	0.5776	0.6052	0.056
Mof_C 	C 	0.9253	0.56079	0.59831	-0.055
Mof_H 	H 	0.9288	0.5443	0.5915	0.027
Mof_C 	C 	0.90012	0.57158	0.6028	-0.014
Mof_C 	C 	0.87509	0.56141	0.5986	0.033
Mof_N 	N 	0.84672	0.59717	0.61341	-0.338
Mof_C 	C 	0.8502	0.57171	0.6029	-0.013
Mof_C 	C 	0.82508	0.56078	0.59841	-0.051
Mof_H 	H 	0.8217	0.5443	0.5916	0.031
Mof_C 	C 	0.80607	0.57948	0.60614	-0.112
Mof_H 	H 	0.788	0.5774	0.6053	0.059
Mof_C 	C 	0.81945	0.60197	0.61542	0.069
Mof_C 	C 	0.98475	0.6097	0.6428	-0.219
Mof_H 	H 	0.9757	0.5995	0.6548	0.082
Mof_C 	C 	0.01193	0.6098	0.6427	0.118
Mof_H 	H 	0.0211	0.5996	0.6547	-0.014
Mof_O 	O 	0.06699	0.6107	0.6407	-0.536
Mof_C 	C 	0.76559	0.6371	0.6048	-0.203
Mof_H 	H 	0.7747	0.6452	0.5913	0.084
Mof_C 	C 	0.73841	0.6372	0.6047	0.104
Mof_H 	H 	0.7294	0.6453	0.5911	-0.006
Mof_O 	O 	0.68313	0.6392	0.6091	-0.531
Mof_C 	C 	0.87508	0.53435	0.58741	-0.442
Mof_C 	C 	0.878	0.5307	0.56065	0.596
Mof_C 	C 	0.878	0.5056	0.55028	-0.731
Mof_H 	H 	0.88	0.5031	0.5324	0.257
Mof_C 	C 	0.87507	0.4841	0.5667	0.689
Mof_C 	C 	0.87215	0.48776	0.5935	-0.73
Mof_H 	H 	0.8702	0.4734	0.6044	0.24
Mof_C 	C 	0.87216	0.5129	0.60383	0.586
Mof_C 	C 	0.88117	0.554	0.54282	-1.101
Mof_H 	H 	0.8829	0.5481	0.5251	0.334
Mof_H 	H 	0.8661	0.5651	0.5443	0.333
Mof_H 	H 	0.8965	0.5636	0.5478	0.336
Mof_C 	C 	0.87506	0.4568	0.5554	-1.206
Mof_H 	H 	0.8772	0.4577	0.5368	0.369
Mof_H 	H 	0.8892	0.4469	0.5629	0.359
Mof_H 	H 	0.8587	0.4484	0.5594	0.354
Mof_C 	C 	0.86899	0.5168	0.63291	-1.081
Mof_H 	H 	0.8672	0.5002	0.6413	0.318
Mof_H 	H 	0.8841	0.5257	0.6397	0.321
Mof_H 	H 	0.8537	0.5272	0.6362	0.327
Mof_Zn	Zn	0.37515	0.1293	0.6176	0.837
Mof_N 	N 	0.40345	0.09705	0.61333	-0.339
Mof_C 	C 	0.4307	0.102	0.61536	0.062
Mof_C 	C 	0.4442	0.07959	0.60608	-0.118
Mof_H 	H 	0.4623	0.0776	0.6052	0.056
Mof_C 	C 	0.4253	0.06079	0.59831	-0.055
Mof_H 	H 	0.4288	0.0443	0.5915	0.027
Mof_C 	C 	0.40012	0.07158	0.6028	-0.014
Mof_C 	C 	0.37509	0.06141	0.5986	0.033
Mof_N 	N 	0.34672	0.09717	0.61341	-0.338
Mof_C 	C 	0.3502	0.07171	0.6029	-0.013
Mof_C 	C 	0.32508	0.06078	0.59841	-0.051
Mof_H 	H 	0.3217	0.0443	0.5916	0.031
Mof_C 	C 	0.30607	0.07948	0.60614	-0.112
Mof_H 	H 	0.288	0.0774	0.6053	0.059
Mof_C 	C 	0.31945	0.10197	0.61542	0.069
Mof_C 	C 	0.48475	0.1097	0.6428	-0.219
Mof_H 	H 	0.4757	0.0995	0.6548	0.082
Mof_C 	C 	0.51193	0.1098	0.6427	0.118
Mof_H 	H 	0.5211	0.0996	0.6547	-0.014
Mof_O 	O 	0.56699	0.1107	0.6407	-0.536
Mof_C 	C 	0.26559	0.1371	0.6048	-0.203
Mof_H 	H 	0.2747	0.1452	0.5913	0.084
Mof_C 	C 	0.23841	0.1372	0.6047	0.104
Mof_H 	H 	0.2294	0.1453	0.5911	-0.006
Mof_O 	O 	0.18313	0.1392	0.6091	-0.531
Mof_C 	C 	0.37508	0.03435	0.58741	-0.442
Mof_C 	C 	0.378	0.0307	0.56065	0.596
Mof_C 	C 	0.378	0.0056	0.55028	-0.731
Mof_H 	H 	0.38	0.0031	0.5324	0.257
Mof_C 	C 	0.37507	0.9841	0.5667	0.689
Mof_C 	C 	0.37215	0.98776	0.5935	-0.73
Mof_H 	H 	0.3702	0.9734	0.6044	0.24
Mof_C 	C 	0.37216	0.0129	0.60383	0.586
Mof_C 	C 	0.38117	0.054	0.54282	-1.101
Mof_H 	H 	0.3829	0.0481	0.5251	0.334
Mof_H 	H 	0.3661	0.0651	0.5443	0.333
Mof_H 	H 	0.3965	0.0636	0.5478	0.336
Mof_C 	C 	0.37506	0.9568	0.5554	-1.206
Mof_H 	H 	0.3772	0.9577	0.5368	0.369
Mof_H 	H 	0.3892	0.9469	0.5629	0.359
Mof_H 	H 	0.3587	0.9484	0.5594	0.354
Mof_C 	C 	0.36899	0.0168	0.63291	-1.081
Mof_H 	H 	0.3672	0.0002	0.6413	0.318
Mof_H 	H 	0.3841	0.0257	0.6397	0.321
Mof_H 	H 	0.3537	0.0272	0.6362	0.327
Mof_Zn	Zn	0.37515	0.6293	0.1176	0.837
Mof_N 	N 	0.40345	0.59705	0.11333	-0.339
Mof_C 	C 	0.4307	0.602	0.11536	0.062
Mof_C 	C 	0.4442	0.57959	0.10608	-0.118
Mof_H 	H 	0.4623	0.5776	0.1052	0.056
Mof_C 	C 	0.4253	0.56079	0.09831	-0.055
Mof_H 	H 	0.4288	0.5443	0.0915	0.027
Mof_C 	C 	0.40012	0.57158	0.1028	-0.014
Mof_C 	C 	0.37509	0.56141	0.0986	0.033
Mof_N 	N 	0.34672	0.59717	0.11341	-0.338
Mof_C 	C 	0.3502	0.57171	0.1029	-0.013
Mof_C 	C 	0.32508	0.56078	0.09841	-0.051
Mof_H 	H 	0.3217	0.5443	0.0916	0.031
Mof_C 	C 	0.30607	0.57948	0.10614	-0.112
Mof_H 	H 	0.288	0.5774	0.1053	0.059
Mof_C 	C 	0.31945	0.60197	0.11542	0.069
Mof_C 	C 	0.48475	0.6097	0.1428	-0.219
Mof_H 	H 	0.4757	0.5995	0.1548	0.082
Mof_C 	C 	0.51193	0.6098	0.1427	0.118
Mof_H 	H 	0.5211	0.5996	0.1547	-0.014
Mof_O 	O 	0.56699	0.6107	0.1407	-0.536
Mof_C 	C 	0.26559	0.6371	0.1048	-0.203
Mof_H 	H 	0.2747	0.6452	0.0913	0.084
Mof_C 	C 	0.23841	0.6372	0.1047	0.104
Mof_H 	H 	0.2294	0.6453	0.0911	-0.006
Mof_O 	O 	0.18313	0.6392	0.1091	-0.531
Mof_C 	C 	0.37508	0.53435	0.08741	-0.442
Mof_C 	C 	0.378	0.5307	0.06065	0.596
Mof_C 	C 	0.378	0.5056	0.05028	-0.731
Mof_H 	H 	0.38	0.5031	0.0324	0.257
Mof_C 	C 	0.37507	0.4841	0.0667	0.689
Mof_C 	C 	0.37215	0.48776	0.0935	-0.73
Mof_H 	H 	0.3702	0.4734	0.1044	0.24
Mof_C 	C 	0.37216	0.5129	0.10383	0.586
Mof_C 	C 	0.38117	0.554	0.04282	-1.101
Mof_H 	H 	0.3829	0.5481	0.0251	0.334
Mof_H 	H 	0.3661	0.5651	0.0443	0.333
Mof_H 	H 	0.3965	0.5636	0.0478	0.336
Mof_C 	C 	0.37506	0.4568	0.0554	-1.206
Mof_H 	H 	0.3772	0.4577	0.0368	0.369
Mof_H 	H 	0.3892	0.4469	0.0629	0.359
Mof_H 	H 	0.3587	0.4484	0.0594	0.354
Mof_C 	C 	0.36899	0.5168	0.13291	-1.081
Mof_H 	H 	0.3672	0.5002	0.1413	0.318
Mof_H 	H 	0.3841	0.5257	0.1397	0.321
Mof_H 	H 	0.3537	0.5272	0.1362	0.327
Mof_Zn	Zn	0.87485	0.6207	0.1176	0.837
Mof_N 	N 	0.84655	0.65295	0.11333	-0.339
Mof_C 	C 	0.8193	0.648	0.11536	0.062
Mof_C 	C 	0.8058	0.67041	0.10608	-0.118
Mof_H 	H 	0.7877	0.6724	0.1052	0.056
Mof_C 	C 	0.8247	0.68921	0.09831	-0.055
Mof_H 	H 	0.8212	0.7057	0.0915	0.027
Mof_C 	C 	0.84988	0.67842	0.1028	-0.014
Mof_C 	C 	0.87491	0.68859	0.0986	0.033
Mof_N 	N 	0.90328	0.65283	0.11341	-0.338
Mof_C 	C 	0.8998	0.67829	0.1029	-0.013
Mof_C 	C 	0.92492	0.68922	0.09841	-0.051
Mof_H 	H 	0.9283	0.7057	0.0916	0.031
Mof_C 	C 	0.94393	0.67052	0.10614	-0.112
Mof_H 	H 	0.962	0.6726	0.1053	0.059
Mof_C 	C 	0.93055	0.64803	0.11542	0.069
Mof_C 	C 	0.76525	0.6403	0.1428	-0.219
Mof_H 	H 	0.7743	0.6505	0.1548	0.082
Mof_C 	C 	0.73807	0.6402	0.1427	0.118
Mof_H 	H 	0.7289	0.6504	0.1547	-0.014
Mof_O 	O 	0.68301	0.6393	0.1407	-0.536
Mof_C 	C 	0.98441	0.6129	0.1048	-0.203
Mof_H 	H 	0.9753	0.6048	0.0913	0.084
Mof_C 	C 	0.01159	0.6128	0.1047	0.104
Mof_H 	H 	0.0206	0.6047	0.0911	-0.006
Mof_O 	O 	0.06687	0.6108	0.1091	-0.531
Mof_C 	C 	0.87492	0.71565	0.08741	-0.442
Mof_C 	C 	0.872	0.7193	0.06065	0.596
Mof_C 	C 	0.872	0.7444	0.05028	-0.731
Mof_H 	H 	0.87	0.7469	0.0324	0.257
Mof_C 	C 	0.87493	0.7659	0.0667	0.689
Mof_C 	C 	0.87785	0.76224	0.0935	-0.73
Mof_H 	H 	0.8798	0.7766	0.1044	0.24
Mof_C 	C 	0.87784	0.7371	0.10383	0.586
Mof_C 	C 	0.86883	0.696	0.04282	-1.101
Mof_H 	H 	0.8671	0.7019	0.0251	0.334
Mof_H 	H 	0.8839	0.6849	0.0443	0.333
Mof_H 	H 	0.8535	0.6864	0.0478	0.336
Mof_C 	C 	0.87494	0.7932	0.0554	-1.206
Mof_H 	H 	0.8728	0.7923	0.0368	0.369
Mof_H 	H 	0.8608	0.8031	0.0629	0.359
Mof_H 	H 	0.8913	0.8016	0.0594	0.354
Mof_C 	C 	0.88101	0.7332	0.13291	-1.081
Mof_H 	H 	0.8828	0.7498	0.1413	0.318
Mof_H 	H 	0.8659	0.7243	0.1397	0.321
Mof_H 	H 	0.8963	0.7228	0.1362	0.327
Mof_Zn	Zn	0.87485	0.1207	0.6176	0.837
Mof_N 	N 	0.84655	0.15295	0.61333	-0.339
Mof_C 	C 	0.8193	0.148	0.61536	0.062
Mof_C 	C 	0.8058	0.17041	0.60608	-0.118
Mof_H 	H 	0.7877	0.1724	0.6052	0.056
Mof_C 	C 	0.8247	0.18921	0.59831	-0.055
Mof_H 	H 	0.8212	0.2057	0.5915	0.027
Mof_C 	C 	0.84988	0.17842	0.6028	-0.014
Mof_C 	C 	0.87491	0.18859	0.5986	0.033
Mof_N 	N 	0.90328	0.15283	0.61341	-0.338
Mof_C 	C 	0.8998	0.17829	0.6029	-0.013
Mof_C 	C 	0.92492	0.18922	0.59841	-0.051
Mof_H 	H 	0.9283	0.2057	0.5916	0.031
Mof_C 	C 	0.94393	0.17052	0.60614	-0.112
Mof_H 	H 	0.962	0.1726	0.6053	0.059
Mof_C 	C 	0.93055	0.14803	0.61542	0.069
Mof_C 	C 	0.76525	0.1403	0.6428	-0.219
Mof_H 	H 	0.7743	0.1505	0.6548	0.082
Mof_C 	C 	0.73807	0.1402	0.6427	0.118
Mof_H 	H 	0.7289	0.1504	0.6547	-0.014
Mof_O 	O 	0.68301	0.1393	0.6407	-0.536
Mof_C 	C 	0.98441	0.1129	0.6048	-0.203
Mof_H 	H 	0.9753	0.1048	0.5913	0.084
Mof_C 	C 	0.01159	0.1128	0.6047	0.104
Mof_H 	H 	0.0206	0.1047	0.5911	-0.006
Mof_O 	O 	0.06687	0.1108	0.6091	-0.531
Mof_C 	C 	0.87492	0.21565	0.58741	-0.442
Mof_C 	C 	0.872	0.2193	0.56065	0.596
Mof_C 	C 	0.872	0.2444	0.55028	-0.731
Mof_H 	H 	0.87	0.2469	0.5324	0.257
Mof_C 	C 	0.87493	0.2659	0.5667	0.689
Mof_C 	C 	0.87785	0.26224	0.5935	-0.73
Mof_H 	H 	0.8798	0.2766	0.6044	0.24
Mof_C 	C 	0.87784	0.2371	0.60383	0.586
Mof_C 	C 	0.86883	0.196	0.54282	-1.101
Mof_H 	H 	0.8671	0.2019	0.5251	0.334
Mof_H 	H 	0.8839	0.1849	0.5443	0.333
Mof_H 	H 	0.8535	0.1864	0.5478	0.336
Mof_C 	C 	0.87494	0.2932	0.5554	-1.206
Mof_H 	H 	0.8728	0.2923	0.5368	0.369
Mof_H 	H 	0.8608	0.3031	0.5629	0.359
Mof_H 	H 	0.8913	0.3016	0.5594	0.354
Mof_C 	C 	0.88101	0.2332	0.63291	-1.081
Mof_H 	H 	0.8828	0.2498	0.6413	0.318
Mof_H 	H 	0.8659	0.2243	0.6397	0.321
Mof_H 	H 	0.8963	0.2228	0.6362	0.327
Mof_Zn	Zn	0.37485	0.6207	0.6176	0.837
Mof_N 	N 	0.34655	0.65295	0.61333	-0.339
Mof_C 	C 	0.3193	0.648	0.61536	0.062
Mof_C 	C 	0.3058	0.67041	0.60608	-0.118
Mof_H 	H 	0.2877	0.6724	0.6052	0.056
Mof_C 	C 	0.3247	0.68921	0.59831	-0.055
Mof_H 	H 	0.3212	0.7057	0.5915	0.027
Mof_C 	C 	0.34988	0.67842	0.6028	-0.014
Mof_C 	C 	0.37491	0.68859	0.5986	0.033
Mof_N 	N 	0.40328	0.65283	0.61341	-0.338
Mof_C 	C 	0.3998	0.67829	0.6029	-0.013
Mof_C 	C 	0.42492	0.68922	0.59841	-0.051
Mof_H 	H 	0.4283	0.7057	0.5916	0.031
Mof_C 	C 	0.44393	0.67052	0.60614	-0.112
Mof_H 	H 	0.462	0.6726	0.6053	0.059
Mof_C 	C 	0.43055	0.64803	0.61542	0.069
Mof_C 	C 	0.26525	0.6403	0.6428	-0.219
Mof_H 	H 	0.2743	0.6505	0.6548	0.082
Mof_C 	C 	0.23807	0.6402	0.6427	0.118
Mof_H 	H 	0.2289	0.6504	0.6547	-0.014
Mof_O 	O 	0.18301	0.6393	0.6407	-0.536
Mof_C 	C 	0.48441	0.6129	0.6048	-0.203
Mof_H 	H 	0.4753	0.6048	0.5913	0.084
Mof_C 	C 	0.51159	0.6128	0.6047	0.104
Mof_H 	H 	0.5206	0.6047	0.5911	-0.006
Mof_O 	O 	0.56687	0.6108	0.6091	-0.531
Mof_C 	C 	0.37492	0.71565	0.58741	-0.442
Mof_C 	C 	0.372	0.7193	0.56065	0.596
Mof_C 	C 	0.372	0.7444	0.55028	-0.731
Mof_H 	H 	0.37	0.7469	0.5324	0.257
Mof_C 	C 	0.37493	0.7659	0.5667	0.689
Mof_C 	C 	0.37785	0.76224	0.5935	-0.73
Mof_H 	H 	0.3798	0.7766	0.6044	0.24
Mof_C 	C 	0.37784	0.7371	0.60383	0.586
Mof_C 	C 	0.36883	0.696	0.54282	-1.101
Mof_H 	H 	0.3671	0.7019	0.5251	0.334
Mof_H 	H 	0.3839	0.6849	0.5443	0.333
Mof_H 	H 	0.3535	0.6864	0.5478	0.336
Mof_C 	C 	0.37494	0.7932	0.5554	-1.206
Mof_H 	H 	0.3728	0.7923	0.5368	0.369
Mof_H 	H 	0.3608	0.8031	0.5629	0.359
Mof_H 	H 	0.3913	0.8016	0.5594	0.354
Mof_C 	C 	0.38101	0.7332	0.63291	-1.081
Mof_H 	H 	0.3828	0.7498	0.6413	0.318
Mof_H 	H 	0.3659	0.7243	0.6397	0.321
Mof_H 	H 	0.3963	0.7228	0.6362	0.327
Mof_Zn	Zn	0.37485	0.1207	0.1176	0.837
Mof_N 	N 	0.34655	0.15295	0.11333	-0.339
Mof_C 	C 	0.3193	0.148	0.11536	0.062
Mof_C 	C 	0.3058	0.17041	0.10608	-0.118
Mof_H 	H 	0.2877	0.1724	0.1052	0.056
Mof_C 	C 	0.3247	0.18921	0.09831	-0.055
Mof_H 	H 	0.3212	0.2057	0.0915	0.027
Mof_C 	C 	0.34988	0.17842	0.1028	-0.014
Mof_C 	C 	0.37491	0.18859	0.0986	0.033
Mof_N 	N 	0.40328	0.15283	0.11341	-0.338
Mof_C 	C 	0.3998	0.17829	0.1029	-0.013
Mof_C 	C 	0.42492	0.18922	0.09841	-0.051
Mof_H 	H 	0.4283	0.2057	0.0916	0.031
Mof_C 	C 	0.44393	0.17052	0.10614	-0.112
Mof_H 	H 	0.462	0.1726	0.1053	0.059
Mof_C 	C 	0.43055	0.14803	0.11542	0.069
Mof_C 	C 	0.26525	0.1403	0.1428	-0.219
Mof_H 	H 	0.2743	0.1505	0.1548	0.082
Mof_C 	C 	0.23807	0.1402	0.1427	0.118
Mof_H 	H 	0.2289	0.1504	0.1547	-0.014
Mof_O 	O 	0.18301	0.1393	0.1407	-0.536
Mof_C 	C 	0.48441	0.1129	0.1048	-0.203
Mof_H 	H 	0.4753	0.1048	0.0913	0.084
Mof_C 	C 	0.51159	0.1128	0.1047	0.104
Mof_H 	H 	0.5206	0.1047	0.0911	-0.006
Mof_O 	O 	0.56687	0.1108	0.1091	-0.531
Mof_C 	C 	0.37492	0.21565	0.08741	-0.442
Mof_C 	C 	0.372	0.2193	0.06065	0.596
Mof_C 	C 	0.372	0.2444	0.05028	-0.731
Mof_H 	H 	0.37	0.2469	0.0324	0.257
Mof_C 	C 	0.37493	0.2659	0.0667	0.689
Mof_C 	C 	0.37785	0.26224	0.0935	-0.73
Mof_H 	H 	0.3798	0.2766	0.1044	0.24
Mof_C 	C 	0.37784	0.2371	0.10383	0.586
Mof_C 	C 	0.36883	0.196	0.04282	-1.101
Mof_H 	H 	0.3671	0.2019	0.0251	0.334
Mof_H 	H 	0.3839	0.1849	0.0443	0.333
Mof_H 	H 	0.3535	0.1864	0.0478	0.336
Mof_C 	C 	0.37494	0.2932	0.0554	-1.206
Mof_H 	H 	0.3728	0.2923	0.0368	0.369
Mof_H 	H 	0.3608	0.3031	0.0629	0.359
Mof_H 	H 	0.3913	0.3016	0.0594	0.354
Mof_C 	C 	0.38101	0.2332	0.13291	-1.081
Mof_H 	H 	0.3828	0.2498	0.1413	0.318
Mof_H 	H 	0.3659	0.2243	0.1397	0.321
Mof_H 	H 	0.3963	0.2228	0.1362	0.327
Mof_Zn	Zn	0.6324	0.87485	0.1293	0.837
Mof_N 	N 	0.63667	0.84655	0.09705	-0.339
Mof_C 	C 	0.63464	0.8193	0.102	0.062
Mof_C 	C 	0.64392	0.8058	0.07959	-0.118
Mof_H 	H 	0.6448	0.7877	0.0776	0.056
Mof_C 	C 	0.65169	0.8247	0.06079	-0.055
Mof_H 	H 	0.6585	0.8212	0.0443	0.027
Mof_C 	C 	0.6472	0.84988	0.07158	-0.014
Mof_C 	C 	0.6514	0.87491	0.06141	0.033
Mof_N 	N 	0.63659	0.90328	0.09717	-0.338
Mof_C 	C 	0.6471	0.8998	0.07171	-0.013
Mof_C 	C 	0.65159	0.92492	0.06078	-0.051
Mof_H 	H 	0.6584	0.9283	0.0443	0.031
Mof_C 	C 	0.64386	0.94393	0.07948	-0.112
Mof_H 	H 	0.6447	0.962	0.0774	0.059
Mof_C 	C 	0.63458	0.93055	0.10197	0.069
Mof_C 	C 	0.6072	0.76525	0.1097	-0.219
Mof_H 	H 	0.5952	0.7743	0.0995	0.082
Mof_C 	C 	0.6073	0.73807	0.1098	0.118
Mof_H 	H 	0.5953	0.7289	0.0996	-0.014
Mof_O 	O 	0.6093	0.68301	0.1107	-0.536
Mof_C 	C 	0.6452	0.98441	0.1371	-0.203
Mof_H 	H 	0.6587	0.9753	0.1452	0.084
Mof_C 	C 	0.6453	0.01159	0.1372	0.104
Mof_H 	H 	0.6589	0.0206	0.1453	-0.006
Mof_O 	O 	0.6409	0.06687	0.1392	-0.531
Mof_C 	C 	0.66259	0.87492	0.03435	-0.442
Mof_C 	C 	0.68935	0.872	0.0307	0.596
Mof_C 	C 	0.69972	0.872	0.0056	-0.731
Mof_H 	H 	0.7176	0.87	0.0031	0.257
Mof_C 	C 	0.6833	0.87493	0.9841	0.689
Mof_C 	C 	0.6565	0.87785	0.98776	-0.73
Mof_H 	H 	0.6456	0.8798	0.9734	0.24
Mof_C 	C 	0.64617	0.87784	0.0129	0.586
Mof_C 	C 	0.70718	0.86883	0.054	-1.101
Mof_H 	H 	0.7249	0.8671	0.0481	0.334
Mof_H 	H 	0.7057	0.8839	0.0651	0.333
Mof_H 	H 	0.7022	0.8535	0.0636	0.336
Mof_C 	C 	0.6946	0.87494	0.9568	-1.206
Mof_H 	H 	0.7132	0.8728	0.9577	0.369
Mof_H 	H 	0.6871	0.8608	0.9469	0.359
Mof_H 	H 	0.6906	0.8913	0.9484	0.354
Mof_C 	C 	0.61709	0.88101	0.0168	-1.081
Mof_H 	H 	0.6087	0.8828	0.0002	0.318
Mof_H 	H 	0.6103	0.8659	0.0257	0.321
Mof_H 	H 	0.6138	0.8963	0.0272	0.327
Mof_Zn	Zn	0.6324	0.37485	0.6293	0.837
Mof_N 	N 	0.63667	0.34655	0.59705	-0.339
Mof_C 	C 	0.63464	0.3193	0.602	0.062
Mof_C 	C 	0.64392	0.3058	0.57959	-0.118
Mof_H 	H 	0.6448	0.2877	0.5776	0.056
Mof_C 	C 	0.65169	0.3247	0.56079	-0.055
Mof_H 	H 	0.6585	0.3212	0.5443	0.027
Mof_C 	C 	0.6472	0.34988	0.57158	-0.014
Mof_C 	C 	0.6514	0.37491	0.56141	0.033
Mof_N 	N 	0.63659	0.40328	0.59717	-0.338
Mof_C 	C 	0.6471	0.3998	0.57171	-0.013
Mof_C 	C 	0.65159	0.42492	0.56078	-0.051
Mof_H 	H 	0.6584	0.4283	0.5443	0.031
Mof_C 	C 	0.64386	0.44393	0.57948	-0.112
Mof_H 	H 	0.6447	0.462	0.5774	0.059
Mof_C 	C 	0.63458	0.43055	0.60197	0.069
Mof_C 	C 	0.6072	0.26525	0.6097	-0.219
Mof_H 	H 	0.5952	0.2743	0.5995	0.082
Mof_C 	C 	0.6073	0.23807	0.6098	0.118
Mof_H 	H 	0.5953	0.2289	0.5996	-0.014
Mof_O 	O 	0.6093	0.18301	0.6107	-0.536
Mof_C 	C 	0.6452	0.48441	0.6371	-0.203
Mof_H 	H 	0.6587	0.4753	0.6452	0.084
Mof_C 	C 	0.6453	0.51159	0.6372	0.104
Mof_H 	H 	0.6589	0.5206	0.6453	-0.006
Mof_O 	O 	0.6409	0.56687	0.6392	-0.531
Mof_C 	C 	0.66259	0.37492	0.53435	-0.442
Mof_C 	C 	0.68935	0.372	0.5307	0.596
Mof_C 	C 	0.69972	0.372	0.5056	-0.731
Mof_H 	H 	0.7176	0.37	0.5031	0.257
Mof_C 	C 	0.6833	0.37493	0.4841	0.689
Mof_C 	C 	0.6565	0.37785	0.48776	-0.73
Mof_H 	H 	0.6456	0.3798	0.4734	0.24
Mof_C 	C 	0.64617	0.37784	0.5129	0.586
Mof_C 	C 	0.70718	0.36883	0.554	-1.101
Mof_H 	H 	0.7249	0.3671	0.5481	0.334
Mof_H 	H 	0.7057	0.3839	0.5651	0.333
Mof_H 	H 	0.7022	0.3535	0.5636	0.336
Mof_C 	C 	0.6946	0.37494	0.4568	-1.206
Mof_H 	H 	0.7132	0.3728	0.4577	0.369
Mof_H 	H 	0.6871	0.3608	0.4469	0.359
Mof_H 	H 	0.6906	0.3913	0.4484	0.354
Mof_C 	C 	0.61709	0.38101	0.5168	-1.081
Mof_H 	H 	0.6087	0.3828	0.5002	0.318
Mof_H 	H 	0.6103	0.3659	0.5257	0.321
Mof_H 	H 	0.6138	0.3963	0.5272	0.327
Mof_Zn	Zn	0.1324	0.87485	0.6293	0.837
Mof_N 	N 	0.13667	0.84655	0.59705	-0.339
Mof_C 	C 	0.13464	0.8193	0.602	0.062
Mof_C 	C 	0.14392	0.8058	0.57959	-0.118
Mof_H 	H 	0.1448	0.7877	0.5776	0.056
Mof_C 	C 	0.15169	0.8247	0.56079	-0.055
Mof_H 	H 	0.1585	0.8212	0.5443	0.027
Mof_C 	C 	0.1472	0.84988	0.57158	-0.014
Mof_C 	C 	0.1514	0.87491	0.56141	0.033
Mof_N 	N 	0.13659	0.90328	0.59717	-0.338
Mof_C 	C 	0.1471	0.8998	0.57171	-0.013
Mof_C 	C 	0.15159	0.92492	0.56078	-0.051
Mof_H 	H 	0.1584	0.9283	0.5443	0.031
Mof_C 	C 	0.14386	0.94393	0.57948	-0.112
Mof_H 	H 	0.1447	0.962	0.5774	0.059
Mof_C 	C 	0.13458	0.93055	0.60197	0.069
Mof_C 	C 	0.1072	0.76525	0.6097	-0.219
Mof_H 	H 	0.0952	0.7743	0.5995	0.082
Mof_C 	C 	0.1073	0.73807	0.6098	0.118
Mof_H 	H 	0.0953	0.7289	0.5996	-0.014
Mof_O 	O 	0.1093	0.68301	0.6107	-0.536
Mof_C 	C 	0.1452	0.98441	0.6371	-0.203
Mof_H 	H 	0.1587	0.9753	0.6452	0.084
Mof_C 	C 	0.1453	0.01159	0.6372	0.104
Mof_H 	H 	0.1589	0.0206	0.6453	-0.006
Mof_O 	O 	0.1409	0.06687	0.6392	-0.531
Mof_C 	C 	0.16259	0.87492	0.53435	-0.442
Mof_C 	C 	0.18935	0.872	0.5307	0.596
Mof_C 	C 	0.19972	0.872	0.5056	-0.731
Mof_H 	H 	0.2176	0.87	0.5031	0.257
Mof_C 	C 	0.1833	0.87493	0.4841	0.689
Mof_C 	C 	0.1565	0.87785	0.48776	-0.73
Mof_H 	H 	0.1456	0.8798	0.4734	0.24
Mof_C 	C 	0.14617	0.87784	0.5129	0.586
Mof_C 	C 	0.20718	0.86883	0.554	-1.101
Mof_H 	H 	0.2249	0.8671	0.5481	0.334
Mof_H 	H 	0.2057	0.8839	0.5651	0.333
Mof_H 	H 	0.2022	0.8535	0.5636	0.336
Mof_C 	C 	0.1946	0.87494	0.4568	-1.206
Mof_H 	H 	0.2132	0.8728	0.4577	0.369
Mof_H 	H 	0.1871	0.8608	0.4469	0.359
Mof_H 	H 	0.1906	0.8913	0.4484	0.354
Mof_C 	C 	0.11709	0.88101	0.5168	-1.081
Mof_H 	H 	0.1087	0.8828	0.5002	0.318
Mof_H 	H 	0.1103	0.8659	0.5257	0.321
Mof_H 	H 	0.1138	0.8963	0.5272	0.327
Mof_Zn	Zn	0.1324	0.37485	0.1293	0.837
Mof_N 	N 	0.13667	0.34655	0.09705	-0.339
Mof_C 	C 	0.13464	0.3193	0.102	0.062
Mof_C 	C 	0.14392	0.3058	0.07959	-0.118
Mof_H 	H 	0.1448	0.2877	0.0776	0.056
Mof_C 	C 	0.15169	0.3247	0.06079	-0.055
Mof_H 	H 	0.1585	0.3212	0.0443	0.027
Mof_C 	C 	0.1472	0.34988	0.07158	-0.014
Mof_C 	C 	0.1514	0.37491	0.06141	0.033
Mof_N 	N 	0.13659	0.40328	0.09717	-0.338
Mof_C 	C 	0.1471	0.3998	0.07171	-0.013
Mof_C 	C 	0.15159	0.42492	0.06078	-0.051
Mof_H 	H 	0.1584	0.4283	0.0443	0.031
Mof_C 	C 	0.14386	0.44393	0.07948	-0.112
Mof_H 	H 	0.1447	0.462	0.0774	0.059
Mof_C 	C 	0.13458	0.43055	0.10197	0.069
Mof_C 	C 	0.1072	0.26525	0.1097	-0.219
Mof_H 	H 	0.0952	0.2743	0.0995	0.082
Mof_C 	C 	0.1073	0.23807	0.1098	0.118
Mof_H 	H 	0.0953	0.2289	0.0996	-0.014
Mof_O 	O 	0.1093	0.18301	0.1107	-0.536
Mof_C 	C 	0.1452	0.48441	0.1371	-0.203
Mof_H 	H 	0.1587	0.4753	0.1452	0.084
Mof_C 	C 	0.1453	0.51159	0.1372	0.104
Mof_H 	H 	0.1589	0.5206	0.1453	-0.006
Mof_O 	O 	0.1409	0.56687	0.1392	-0.531
Mof_C 	C 	0.16259	0.37492	0.03435	-0.442
Mof_C 	C 	0.18935	0.372	0.0307	0.596
Mof_C 	C 	0.19972	0.372	0.0056	-0.731
Mof_H 	H 	0.2176	0.37	0.0031	0.257
Mof_C 	C 	0.1833	0.37493	0.9841	0.689
Mof_C 	C 	0.1565	0.37785	0.98776	-0.73
Mof_H 	H 	0.1456	0.3798	0.9734	0.24
Mof_C 	C 	0.14617	0.37784	0.0129	0.586
Mof_C 	C 	0.20718	0.36883	0.054	-1.101
Mof_H 	H 	0.2249	0.3671	0.0481	0.334
Mof_H 	H 	0.2057	0.3839	0.0651	0.333
Mof_H 	H 	0.2022	0.3535	0.0636	0.336
Mof_C 	C 	0.1946	0.37494	0.9568	-1.206
Mof_H 	H 	0.2132	0.3728	0.9577	0.369
Mof_H 	H 	0.1871	0.3608	0.9469	0.359
Mof_H 	H 	0.1906	0.3913	0.9484	0.354
Mof_C 	C 	0.11709	0.38101	0.0168	-1.081
Mof_H 	H 	0.1087	0.3828	0.0002	0.318
Mof_H 	H 	0.1103	0.3659	0.0257	0.321
Mof_H 	H 	0.1138	0.3963	0.0272	0.327
Mof_Zn	Zn	0.6324	0.87515	0.6207	0.837
Mof_N 	N 	0.63667	0.90345	0.65295	-0.339
Mof_C 	C 	0.63464	0.9307	0.648	0.062
Mof_C 	C 	0.64392	0.9442	0.67041	-0.118
Mof_H 	H 	0.6448	0.9623	0.6724	0.056
Mof_C 	C 	0.65169	0.9253	0.68921	-0.055
Mof_H 	H 	0.6585	0.9288	0.7057	0.027
Mof_C 	C 	0.6472	0.90012	0.67842	-0.014
Mof_C 	C 	0.6514	0.87509	0.68859	0.033
Mof_N 	N 	0.63659	0.84672	0.65283	-0.338
Mof_C 	C 	0.6471	0.8502	0.67829	-0.013
Mof_C 	C 	0.65159	0.82508	0.68922	-0.051
Mof_H 	H 	0.6584	0.8217	0.7057	0.031
Mof_C 	C 	0.64386	0.80607	0.67052	-0.112
Mof_H 	H 	0.6447	0.788	0.6726	0.059
Mof_C 	C 	0.63458	0.81945	0.64803	0.069
Mof_C 	C 	0.6072	0.98475	0.6403	-0.219
Mof_H 	H 	0.5952	0.9757	0.6505	0.082
Mof_C 	C 	0.6073	0.01193	0.6402	0.118
Mof_H 	H 	0.5953	0.0211	0.6504	-0.014
Mof_O 	O 	0.6093	0.06699	0.6393	-0.536
Mof_C 	C 	0.6452	0.76559	0.6129	-0.203
Mof_H 	H 	0.6587	0.7747	0.6048	0.084
Mof_C 	C 	0.6453	0.73841	0.6128	0.104
Mof_H 	H 	0.6589	0.7294	0.6047	-0.006
Mof_O 	O 	0.6409	0.68313	0.6108	-0.531
Mof_C 	C 	0.66259	0.87508	0.71565	-0.442
Mof_C 	C 	0.68935	0.878	0.7193	0.596
Mof_C 	C 	0.69972	0.878	0.7444	-0.731
Mof_H 	H 	0.7176	0.88	0.7469	0.257
Mof_C 	C 	0.6833	0.87507	0.7659	0.689
Mof_C 	C 	0.6565	0.87215	0.76224	-0.73
Mof_H 	H 	0.6456	0.8702	0.7766	0.24
Mof_C 	C 	0.64617	0.87216	0.7371	0.586
Mof_C 	C 	0.70718	0.88117	0.696	-1.101
Mof_H 	H 	0.7249	0.8829	0.7019	0.334
Mof_H 	H 	0.7057	0.8661	0.6849	0.333
Mof_H 	H 	0.7022	0.8965	0.6864	0.336
Mof_C 	C 	0.6946	0.87506	0.7932	-1.206
Mof_H 	H 	0.7132	0.8772	0.7923	0.369
Mof_H 	H 	0.6871	0.8892	0.8031	0.359
Mof_H 	H 	0.6906	0.8587	0.8016	0.354
Mof_C 	C 	0.61709	0.86899	0.7332	-1.081
Mof_H 	H 	0.6087	0.8672	0.7498	0.318
Mof_H 	H 	0.6103	0.8841	0.7243	0.321
Mof_H 	H 	0.6138	0.8537	0.7228	0.327
Mof_Zn	Zn	0.6324	0.37515	0.1207	0.837
Mof_N 	N 	0.63667	0.40345	0.15295	-0.339
Mof_C 	C 	0.63464	0.4307	0.148	0.062
Mof_C 	C 	0.64392	0.4442	0.17041	-0.118
Mof_H 	H 	0.6448	0.4623	0.1724	0.056
Mof_C 	C 	0.65169	0.4253	0.18921	-0.055
Mof_H 	H 	0.6585	0.4288	0.2057	0.027
Mof_C 	C 	0.6472	0.40012	0.17842	-0.014
Mof_C 	C 	0.6514	0.37509	0.18859	0.033
Mof_N 	N 	0.63659	0.34672	0.15283	-0.338
Mof_C 	C 	0.6471	0.3502	0.17829	-0.013
Mof_C 	C 	0.65159	0.32508	0.18922	-0.051
Mof_H 	H 	0.6584	0.3217	0.2057	0.031
Mof_C 	C 	0.64386	0.30607	0.17052	-0.112
Mof_H 	H 	0.6447	0.288	0.1726	0.059
Mof_C 	C 	0.63458	0.31945	0.14803	0.069
Mof_C 	C 	0.6072	0.48475	0.1403	-0.219
Mof_H 	H 	0.5952	0.4757	0.1505	0.082
Mof_C 	C 	0.6073	0.51193	0.1402	0.118
Mof_H 	H 	0.5953	0.5211	0.1504	-0.014
Mof_O 	O 	0.6093	0.56699	0.1393	-0.536
Mof_C 	C 	0.6452	0.26559	0.1129	-0.203
Mof_H 	H 	0.6587	0.2747	0.1048	0.084
Mof_C 	C 	0.6453	0.23841	0.1128	0.104
Mof_H 	H 	0.6589	0.2294	0.1047	-0.006
Mof_O 	O 	0.6409	0.18313	0.1108	-0.531
Mof_C 	C 	0.66259	0.37508	0.21565	-0.442
Mof_C 	C 	0.68935	0.378	0.2193	0.596
Mof_C 	C 	0.69972	0.378	0.2444	-0.731
Mof_H 	H 	0.7176	0.38	0.2469	0.257
Mof_C 	C 	0.6833	0.37507	0.2659	0.689
Mof_C 	C 	0.6565	0.37215	0.26224	-0.73
Mof_H 	H 	0.6456	0.3702	0.2766	0.24
Mof_C 	C 	0.64617	0.37216	0.2371	0.586
Mof_C 	C 	0.70718	0.38117	0.196	-1.101
Mof_H 	H 	0.7249	0.3829	0.2019	0.334
Mof_H 	H 	0.7057	0.3661	0.1849	0.333
Mof_H 	H 	0.7022	0.3965	0.1864	0.336
Mof_C 	C 	0.6946	0.37506	0.2932	-1.206
Mof_H 	H 	0.7132	0.3772	0.2923	0.369
Mof_H 	H 	0.6871	0.3892	0.3031	0.359
Mof_H 	H 	0.6906	0.3587	0.3016	0.354
Mof_C 	C 	0.61709	0.36899	0.2332	-1.081
Mof_H 	H 	0.6087	0.3672	0.2498	0.318
Mof_H 	H 	0.6103	0.3841	0.2243	0.321
Mof_H 	H 	0.6138	0.3537	0.2228	0.327
Mof_Zn	Zn	0.1324	0.87515	0.1207	0.837
Mof_N 	N 	0.13667	0.90345	0.15295	-0.339
Mof_C 	C 	0.13464	0.9307	0.148	0.062
Mof_C 	C 	0.14392	0.9442	0.17041	-0.118
Mof_H 	H 	0.1448	0.9623	0.1724	0.056
Mof_C 	C 	0.15169	0.9253	0.18921	-0.055
Mof_H 	H 	0.1585	0.9288	0.2057	0.027
Mof_C 	C 	0.1472	0.90012	0.17842	-0.014
Mof_C 	C 	0.1514	0.87509	0.18859	0.033
Mof_N 	N 	0.13659	0.84672	0.15283	-0.338
Mof_C 	C 	0.1471	0.8502	0.17829	-0.013
Mof_C 	C 	0.15159	0.82508	0.18922	-0.051
Mof_H 	H 	0.1584	0.8217	0.2057	0.031
Mof_C 	C 	0.14386	0.80607	0.17052	-0.112
Mof_H 	H 	0.1447	0.788	0.1726	0.059
Mof_C 	C 	0.13458	0.81945	0.14803	0.069
Mof_C 	C 	0.1072	0.98475	0.1403	-0.219
Mof_H 	H 	0.0952	0.9757	0.1505	0.082
Mof_C 	C 	0.1073	0.01193	0.1402	0.118
Mof_H 	H 	0.0953	0.0211	0.1504	-0.014
Mof_O 	O 	0.1093	0.06699	0.1393	-0.536
Mof_C 	C 	0.1452	0.76559	0.1129	-0.203
Mof_H 	H 	0.1587	0.7747	0.1048	0.084
Mof_C 	C 	0.1453	0.73841	0.1128	0.104
Mof_H 	H 	0.1589	0.7294	0.1047	-0.006
Mof_O 	O 	0.1409	0.68313	0.1108	-0.531
Mof_C 	C 	0.16259	0.87508	0.21565	-0.442
Mof_C 	C 	0.18935	0.878	0.2193	0.596
Mof_C 	C 	0.19972	0.878	0.2444	-0.731
Mof_H 	H 	0.2176	0.88	0.2469	0.257
Mof_C 	C 	0.1833	0.87507	0.2659	0.689
Mof_C 	C 	0.1565	0.87215	0.26224	-0.73
Mof_H 	H 	0.1456	0.8702	0.2766	0.24
Mof_C 	C 	0.14617	0.87216	0.2371	0.586
Mof_C 	C 	0.20718	0.88117	0.196	-1.101
Mof_H 	H 	0.2249	0.8829	0.2019	0.334
Mof_H 	H 	0.2057	0.8661	0.1849	0.333
Mof_H 	H 	0.2022	0.8965	0.1864	0.336
Mof_C 	C 	0.1946	0.87506	0.2932	-1.206
Mof_H 	H 	0.2132	0.8772	0.2923	0.369
Mof_H 	H 	0.1871	0.8892	0.3031	0.359
Mof_H 	H 	0.1906	0.8587	0.3016	0.354
Mof_C 	C 	0.11709	0.86899	0.2332	-1.081
Mof_H 	H 	0.1087	0.8672	0.2498	0.318
Mof_H 	H 	0.1103	0.8841	0.2243	0.321
Mof_H 	H 	0.1138	0.8537	0.2228	0.327
Mof_Zn	Zn	0.1324	0.37515	0.6207	0.837
Mof_N 	N 	0.13667	0.40345	0.65295	-0.339
Mof_C 	C 	0.13464	0.4307	0.648	0.062
Mof_C 	C 	0.14392	0.4442	0.67041	-0.118
Mof_H 	H 	0.1448	0.4623	0.6724	0.056
Mof_C 	C 	0.15169	0.4253	0.68921	-0.055
Mof_H 	H 	0.1585	0.4288	0.7057	0.027
Mof_C 	C 	0.1472	0.40012	0.67842	-0.014
Mof_C 	C 	0.1514	0.37509	0.68859	0.033
Mof_N 	N 	0.13659	0.34672	0.65283	-0.338
Mof_C 	C 	0.1471	0.3502	0.67829	-0.013
Mof_C 	C 	0.15159	0.32508	0.68922	-0.051
Mof_H 	H 	0.1584	0.3217	0.7057	0.031
Mof_C 	C 	0.14386	0.30607	0.67052	-0.112
Mof_H 	H 	0.1447	0.288	0.6726	0.059
Mof_C 	C 	0.13458	0.31945	0.64803	0.069
Mof_C 	C 	0.1072	0.48475	0.6403	-0.219
Mof_H 	H 	0.0952	0.4757	0.6505	0.082
Mof_C 	C 	0.1073	0.51193	0.6402	0.118
Mof_H 	H 	0.0953	0.5211	0.6504	-0.014
Mof_O 	O 	0.1093	0.56699	0.6393	-0.536
Mof_C 	C 	0.1452	0.26559	0.6129	-0.203
Mof_H 	H 	0.1587	0.2747	0.6048	0.084
Mof_C 	C 	0.1453	0.23841	0.6128	0.104
Mof_H 	H 	0.1589	0.2294	0.6047	-0.006
Mof_O 	O 	0.1409	0.18313	0.6108	-0.531
Mof_C 	C 	0.16259	0.37508	0.71565	-0.442
Mof_C 	C 	0.18935	0.378	0.7193	0.596
Mof_C 	C 	0.19972	0.378	0.7444	-0.731
Mof_H 	H 	0.2176	0.38	0.7469	0.257
Mof_C 	C 	0.1833	0.37507	0.7659	0.689
Mof_C 	C 	0.1565	0.37215	0.76224	-0.73
Mof_H 	H 	0.1456	0.3702	0.7766	0.24
Mof_C 	C 	0.14617	0.37216	0.7371	0.586
Mof_C 	C 	0.20718	0.38117	0.696	-1.101
Mof_H 	H 	0.2249	0.3829	0.7019	0.334
Mof_H 	H 	0.2057	0.3661	0.6849	0.333
Mof_H 	H 	0.2022	0.3965	0.6864	0.336
Mof_C 	C 	0.1946	0.37506	0.7932	-1.206
Mof_H 	H 	0.2132	0.3772	0.7923	0.369
Mof_H 	H 	0.1871	0.3892	0.8031	0.359
Mof_H 	H 	0.1906	0.3587	0.8016	0.354
Mof_C 	C 	0.11709	0.36899	0.7332	-1.081
Mof_H 	H 	0.1087	0.3672	0.7498	0.318
Mof_H 	H 	0.1103	0.3841	0.7243	0.321
Mof_H 	H 	0.1138	0.3537	0.7228	0.327
Mof_Zn	Zn	0.1176	0.87515	0.1293	0.837
Mof_N 	N 	0.11333	0.90345	0.09705	-0.339
Mof_C 	C 	0.11536	0.9307	0.102	0.062
Mof_C 	C 	0.10608	0.9442	0.07959	-0.118
Mof_H 	H 	0.1052	0.9623	0.0776	0.056
Mof_C 	C 	0.09831	0.9253	0.06079	-0.055
Mof_H 	H 	0.0915	0.9288	0.0443	0.027
Mof_C 	C 	0.1028	0.90012	0.07158	-0.014
Mof_C 	C 	0.0986	0.87509	0.06141	0.033
Mof_N 	N 	0.11341	0.84672	0.09717	-0.338
Mof_C 	C 	0.1029	0.8502	0.07171	-0.013
Mof_C 	C 	0.09841	0.82508	0.06078	-0.051
Mof_H 	H 	0.0916	0.8217	0.0443	0.031
Mof_C 	C 	0.10614	0.80607	0.07948	-0.112
Mof_H 	H 	0.1053	0.788	0.0774	0.059
Mof_C 	C 	0.11542	0.81945	0.10197	0.069
Mof_C 	C 	0.1428	0.98475	0.1097	-0.219
Mof_H 	H 	0.1548	0.9757	0.0995	0.082
Mof_C 	C 	0.1427	0.01193	0.1098	0.118
Mof_H 	H 	0.1547	0.0211	0.0996	-0.014
Mof_O 	O 	0.1407	0.06699	0.1107	-0.536
Mof_C 	C 	0.1048	0.76559	0.1371	-0.203
Mof_H 	H 	0.0913	0.7747	0.1452	0.084
Mof_C 	C 	0.1047	0.73841	0.1372	0.104
Mof_H 	H 	0.0911	0.7294	0.1453	-0.006
Mof_O 	O 	0.1091	0.68313	0.1392	-0.531
Mof_C 	C 	0.08741	0.87508	0.03435	-0.442
Mof_C 	C 	0.06065	0.878	0.0307	0.596
Mof_C 	C 	0.05028	0.878	0.0056	-0.731
Mof_H 	H 	0.0324	0.88	0.0031	0.257
Mof_C 	C 	0.0667	0.87507	0.9841	0.689
Mof_C 	C 	0.0935	0.87215	0.98776	-0.73
Mof_H 	H 	0.1044	0.8702	0.9734	0.24
Mof_C 	C 	0.10383	0.87216	0.0129	0.586
Mof_C 	C 	0.04282	0.88117	0.054	-1.101
Mof_H 	H 	0.0251	0.8829	0.0481	0.334
Mof_H 	H 	0.0443	0.8661	0.0651	0.333
Mof_H 	H 	0.0478	0.8965	0.0636	0.336
Mof_C 	C 	0.0554	0.87506	0.9568	-1.206
Mof_H 	H 	0.0368	0.8772	0.9577	0.369
Mof_H 	H 	0.0629	0.8892	0.9469	0.359
Mof_H 	H 	0.0594	0.8587	0.9484	0.354
Mof_C 	C 	0.13291	0.86899	0.0168	-1.081
Mof_H 	H 	0.1413	0.8672	0.0002	0.318
Mof_H 	H 	0.1397	0.8841	0.0257	0.321
Mof_H 	H 	0.1362	0.8537	0.0272	0.327
Mof_Zn	Zn	0.1176	0.37515	0.6293	0.837
Mof_N 	N 	0.11333	0.40345	0.59705	-0.339
Mof_C 	C 	0.11536	0.4307	0.602	0.062
Mof_C 	C 	0.10608	0.4442	0.57959	-0.118
Mof_H 	H 	0.1052	0.4623	0.5776	0.056
Mof_C 	C 	0.09831	0.4253	0.56079	-0.055
Mof_H 	H 	0.0915	0.4288	0.5443	0.027
Mof_C 	C 	0.1028	0.40012	0.57158	-0.014
Mof_C 	C 	0.0986	0.37509	0.56141	0.033
Mof_N 	N 	0.11341	0.34672	0.59717	-0.338
Mof_C 	C 	0.1029	0.3502	0.57171	-0.013
Mof_C 	C 	0.09841	0.32508	0.56078	-0.051
Mof_H 	H 	0.0916	0.3217	0.5443	0.031
Mof_C 	C 	0.10614	0.30607	0.57948	-0.112
Mof_H 	H 	0.1053	0.288	0.5774	0.059
Mof_C 	C 	0.11542	0.31945	0.60197	0.069
Mof_C 	C 	0.1428	0.48475	0.6097	-0.219
Mof_H 	H 	0.1548	0.4757	0.5995	0.082
Mof_C 	C 	0.1427	0.51193	0.6098	0.118
Mof_H 	H 	0.1547	0.5211	0.5996	-0.014
Mof_O 	O 	0.1407	0.56699	0.6107	-0.536
Mof_C 	C 	0.1048	0.26559	0.6371	-0.203
Mof_H 	H 	0.0913	0.2747	0.6452	0.084
Mof_C 	C 	0.1047	0.23841	0.6372	0.104
Mof_H 	H 	0.0911	0.2294	0.6453	-0.006
Mof_O 	O 	0.1091	0.18313	0.6392	-0.531
Mof_C 	C 	0.08741	0.37508	0.53435	-0.442
Mof_C 	C 	0.06065	0.378	0.5307	0.596
Mof_C 	C 	0.05028	0.378	0.5056	-0.731
Mof_H 	H 	0.0324	0.38	0.5031	0.257
Mof_C 	C 	0.0667	0.37507	0.4841	0.689
Mof_C 	C 	0.0935	0.37215	0.48776	-0.73
Mof_H 	H 	0.1044	0.3702	0.4734	0.24
Mof_C 	C 	0.10383	0.37216	0.5129	0.586
Mof_C 	C 	0.04282	0.38117	0.554	-1.101
Mof_H 	H 	0.0251	0.3829	0.5481	0.334
Mof_H 	H 	0.0443	0.3661	0.5651	0.333
Mof_H 	H 	0.0478	0.3965	0.5636	0.336
Mof_C 	C 	0.0554	0.37506	0.4568	-1.206
Mof_H 	H 	0.0368	0.3772	0.4577	0.369
Mof_H 	H 	0.0629	0.3892	0.4469	0.359
Mof_H 	H 	0.0594	0.3587	0.4484	0.354
Mof_C 	C 	0.13291	0.36899	0.5168	-1.081
Mof_H 	H 	0.1413	0.3672	0.5002	0.318
Mof_H 	H 	0.1397	0.3841	0.5257	0.321
Mof_H 	H 	0.1362	0.3537	0.5272	0.327
Mof_Zn	Zn	0.6176	0.87515	0.6293	0.837
Mof_N 	N 	0.61333	0.90345	0.59705	-0.339
Mof_C 	C 	0.61536	0.9307	0.602	0.062
Mof_C 	C 	0.60608	0.9442	0.57959	-0.118
Mof_H 	H 	0.6052	0.9623	0.5776	0.056
Mof_C 	C 	0.59831	0.9253	0.56079	-0.055
Mof_H 	H 	0.5915	0.9288	0.5443	0.027
Mof_C 	C 	0.6028	0.90012	0.57158	-0.014
Mof_C 	C 	0.5986	0.87509	0.56141	0.033
Mof_N 	N 	0.61341	0.84672	0.59717	-0.338
Mof_C 	C 	0.6029	0.8502	0.57171	-0.013
Mof_C 	C 	0.59841	0.82508	0.56078	-0.051
Mof_H 	H 	0.5916	0.8217	0.5443	0.031
Mof_C 	C 	0.60614	0.80607	0.57948	-0.112
Mof_H 	H 	0.6053	0.788	0.5774	0.059
Mof_C 	C 	0.61542	0.81945	0.60197	0.069
Mof_C 	C 	0.6428	0.98475	0.6097	-0.219
Mof_H 	H 	0.6548	0.9757	0.5995	0.082
Mof_C 	C 	0.6427	0.01193	0.6098	0.118
Mof_H 	H 	0.6547	0.0211	0.5996	-0.014
Mof_O 	O 	0.6407	0.06699	0.6107	-0.536
Mof_C 	C 	0.6048	0.76559	0.6371	-0.203
Mof_H 	H 	0.5913	0.7747	0.6452	0.084
Mof_C 	C 	0.6047	0.73841	0.6372	0.104
Mof_H 	H 	0.5911	0.7294	0.6453	-0.006
Mof_O 	O 	0.6091	0.68313	0.6392	-0.531
Mof_C 	C 	0.58741	0.87508	0.53435	-0.442
Mof_C 	C 	0.56065	0.878	0.5307	0.596
Mof_C 	C 	0.55028	0.878	0.5056	-0.731
Mof_H 	H 	0.5324	0.88	0.5031	0.257
Mof_C 	C 	0.5667	0.87507	0.4841	0.689
Mof_C 	C 	0.5935	0.87215	0.48776	-0.73
Mof_H 	H 	0.6044	0.8702	0.4734	0.24
Mof_C 	C 	0.60383	0.87216	0.5129	0.586
Mof_C 	C 	0.54282	0.88117	0.554	-1.101
Mof_H 	H 	0.5251	0.8829	0.5481	0.334
Mof_H 	H 	0.5443	0.8661	0.5651	0.333
Mof_H 	H 	0.5478	0.8965	0.5636	0.336
Mof_C 	C 	0.5554	0.87506	0.4568	-1.206
Mof_H 	H 	0.5368	0.8772	0.4577	0.369
Mof_H 	H 	0.5629	0.8892	0.4469	0.359
Mof_H 	H 	0.5594	0.8587	0.4484	0.354
Mof_C 	C 	0.63291	0.86899	0.5168	-1.081
Mof_H 	H 	0.6413	0.8672	0.5002	0.318
Mof_H 	H 	0.6397	0.8841	0.5257	0.321
Mof_H 	H 	0.6362	0.8537	0.5272	0.327
Mof_Zn	Zn	0.6176	0.37515	0.1293	0.837
Mof_N 	N 	0.61333	0.40345	0.09705	-0.339
Mof_C 	C 	0.61536	0.4307	0.102	0.062
Mof_C 	C 	0.60608	0.4442	0.07959	-0.118
Mof_H 	H 	0.6052	0.4623	0.0776	0.056
Mof_C 	C 	0.59831	0.4253	0.06079	-0.055
Mof_H 	H 	0.5915	0.4288	0.0443	0.027
Mof_C 	C 	0.6028	0.40012	0.07158	-0.014
Mof_C 	C 	0.5986	0.37509	0.06141	0.033
Mof_N 	N 	0.61341	0.34672	0.09717	-0.338
Mof_C 	C 	0.6029	0.3502	0.07171	-0.013
Mof_C 	C 	0.59841	0.32508	0.06078	-0.051
Mof_H 	H 	0.5916	0.3217	0.0443	0.031
Mof_C 	C 	0.60614	0.30607	0.07948	-0.112
Mof_H 	H 	0.6053	0.288	0.0774	0.059
Mof_C 	C 	0.61542	0.31945	0.10197	0.069
Mof_C 	C 	0.6428	0.48475	0.1097	-0.219
Mof_H 	H 	0.6548	0.4757	0.0995	0.082
Mof_C 	C 	0.6427	0.51193	0.1098	0.118
Mof_H 	H 	0.6547	0.5211	0.0996	-0.014
Mof_O 	O 	0.6407	0.56699	0.1107	-0.536
Mof_C 	C 	0.6048	0.26559	0.1371	-0.203
Mof_H 	H 	0.5913	0.2747	0.1452	0.084
Mof_C 	C 	0.6047	0.23841	0.1372	0.104
Mof_H 	H 	0.5911	0.2294	0.1453	-0.006
Mof_O 	O 	0.6091	0.18313	0.1392	-0.531
Mof_C 	C 	0.58741	0.37508	0.03435	-0.442
Mof_C 	C 	0.56065	0.378	0.0307	0.596
Mof_C 	C 	0.55028	0.378	0.0056	-0.731
Mof_H 	H 	0.5324	0.38	0.0031	0.257
Mof_C 	C 	0.5667	0.37507	0.9841	0.689
Mof_C 	C 	0.5935	0.37215	0.98776	-0.73
Mof_H 	H 	0.6044	0.3702	0.9734	0.24
Mof_C 	C 	0.60383	0.37216	0.0129	0.586
Mof_C 	C 	0.54282	0.38117	0.054	-1.101
Mof_H 	H 	0.5251	0.3829	0.0481	0.334
Mof_H 	H 	0.5443	0.3661	0.0651	0.333
Mof_H 	H 	0.5478	0.3965	0.0636	0.336
Mof_C 	C 	0.5554	0.37506	0.9568	-1.206
Mof_H 	H 	0.5368	0.3772	0.9577	0.369
Mof_H 	H 	0.5629	0.3892	0.9469	0.359
Mof_H 	H 	0.5594	0.3587	0.9484	0.354
Mof_C 	C 	0.63291	0.36899	0.0168	-1.081
Mof_H 	H 	0.6413	0.3672	0.0002	0.318
Mof_H 	H 	0.6397	0.3841	0.0257	0.321
Mof_H 	H 	0.6362	0.3537	0.0272	0.327
Mof_Zn	Zn	0.1176	0.87485	0.6207	0.837
Mof_N 	N 	0.11333	0.84655	0.65295	-0.339
Mof_C 	C 	0.11536	0.8193	0.648	0.062
Mof_C 	C 	0.10608	0.8058	0.67041	-0.118
Mof_H 	H 	0.1052	0.7877	0.6724	0.056
Mof_C 	C 	0.09831	0.8247	0.68921	-0.055
Mof_H 	H 	0.0915	0.8212	0.7057	0.027
Mof_C 	C 	0.1028	0.84988	0.67842	-0.014
Mof_C 	C 	0.0986	0.87491	0.68859	0.033
Mof_N 	N 	0.11341	0.90328	0.65283	-0.338
Mof_C 	C 	0.1029	0.8998	0.67829	-0.013
Mof_C 	C 	0.09841	0.92492	0.68922	-0.051
Mof_H 	H 	0.0916	0.9283	0.7057	0.031
Mof_C 	C 	0.10614	0.94393	0.67052	-0.112
Mof_H 	H 	0.1053	0.962	0.6726	0.059
Mof_C 	C 	0.11542	0.93055	0.64803	0.069
Mof_C 	C 	0.1428	0.76525	0.6403	-0.219
Mof_H 	H 	0.1548	0.7743	0.6505	0.082
Mof_C 	C 	0.1427	0.73807	0.6402	0.118
Mof_H 	H 	0.1547	0.7289	0.6504	-0.014
Mof_O 	O 	0.1407	0.68301	0.6393	-0.536
Mof_C 	C 	0.1048	0.98441	0.6129	-0.203
Mof_H 	H 	0.0913	0.9753	0.6048	0.084
Mof_C 	C 	0.1047	0.01159	0.6128	0.104
Mof_H 	H 	0.0911	0.0206	0.6047	-0.006
Mof_O 	O 	0.1091	0.06687	0.6108	-0.531
Mof_C 	C 	0.08741	0.87492	0.71565	-0.442
Mof_C 	C 	0.06065	0.872	0.7193	0.596
Mof_C 	C 	0.05028	0.872	0.7444	-0.731
Mof_H 	H 	0.0324	0.87	0.7469	0.257
Mof_C 	C 	0.0667	0.87493	0.7659	0.689
Mof_C 	C 	0.0935	0.87785	0.76224	-0.73
Mof_H 	H 	0.1044	0.8798	0.7766	0.24
Mof_C 	C 	0.10383	0.87784	0.7371	0.586
Mof_C 	C 	0.04282	0.86883	0.696	-1.101
Mof_H 	H 	0.0251	0.8671	0.7019	0.334
Mof_H 	H 	0.0443	0.8839	0.6849	0.333
Mof_H 	H 	0.0478	0.8535	0.6864	0.336
Mof_C 	C 	0.0554	0.87494	0.7932	-1.206
Mof_H 	H 	0.0368	0.8728	0.7923	0.369
Mof_H 	H 	0.0629	0.8608	0.8031	0.359
Mof_H 	H 	0.0594	0.8913	0.8016	0.354
Mof_C 	C 	0.13291	0.88101	0.7332	-1.081
Mof_H 	H 	0.1413	0.8828	0.7498	0.318
Mof_H 	H 	0.1397	0.8659	0.7243	0.321
Mof_H 	H 	0.1362	0.8963	0.7228	0.327
Mof_Zn	Zn	0.1176	0.37485	0.1207	0.837
Mof_N 	N 	0.11333	0.34655	0.15295	-0.339
Mof_C 	C 	0.11536	0.3193	0.148	0.062
Mof_C 	C 	0.10608	0.3058	0.17041	-0.118
Mof_H 	H 	0.1052	0.2877	0.1724	0.056
Mof_C 	C 	0.09831	0.3247	0.18921	-0.055
Mof_H 	H 	0.0915	0.3212	0.2057	0.027
Mof_C 	C 	0.1028	0.34988	0.17842	-0.014
Mof_C 	C 	0.0986	0.37491	0.18859	0.033
Mof_N 	N 	0.11341	0.40328	0.15283	-0.338
Mof_C 	C 	0.1029	0.3998	0.17829	-0.013
Mof_C 	C 	0.09841	0.42492	0.18922	-0.051
Mof_H 	H 	0.0916	0.4283	0.2057	0.031
Mof_C 	C 	0.10614	0.44393	0.17052	-0.112
Mof_H 	H 	0.1053	0.462	0.1726	0.059
Mof_C 	C 	0.11542	0.43055	0.14803	0.069
Mof_C 	C 	0.1428	0.26525	0.1403	-0.219
Mof_H 	H 	0.1548	0.2743	0.1505	0.082
Mof_C 	C 	0.1427	0.23807	0.1402	0.118
Mof_H 	H 	0.1547	0.2289	0.1504	-0.014
Mof_O 	O 	0.1407	0.18301	0.1393	-0.536
Mof_C 	C 	0.1048	0.48441	0.1129	-0.203
Mof_H 	H 	0.0913	0.4753	0.1048	0.084
Mof_C 	C 	0.1047	0.51159	0.1128	0.104
Mof_H 	H 	0.0911	0.5206	0.1047	-0.006
Mof_O 	O 	0.1091	0.56687	0.1108	-0.531
Mof_C 	C 	0.08741	0.37492	0.21565	-0.442
Mof_C 	C 	0.06065	0.372	0.2193	0.596
Mof_C 	C 	0.05028	0.372	0.2444	-0.731
Mof_H 	H 	0.0324	0.37	0.2469	0.257
Mof_C 	C 	0.0667	0.37493	0.2659	0.689
Mof_C 	C 	0.0935	0.37785	0.26224	-0.73
Mof_H 	H 	0.1044	0.3798	0.2766	0.24
Mof_C 	C 	0.10383	0.37784	0.2371	0.586
Mof_C 	C 	0.04282	0.36883	0.196	-1.101
Mof_H 	H 	0.0251	0.3671	0.2019	0.334
Mof_H 	H 	0.0443	0.3839	0.1849	0.333
Mof_H 	H 	0.0478	0.3535	0.1864	0.336
Mof_C 	C 	0.0554	0.37494	0.2932	-1.206
Mof_H 	H 	0.0368	0.3728	0.2923	0.369
Mof_H 	H 	0.0629	0.3608	0.3031	0.359
Mof_H 	H 	0.0594	0.3913	0.3016	0.354
Mof_C 	C 	0.13291	0.38101	0.2332	-1.081
Mof_H 	H 	0.1413	0.3828	0.2498	0.318
Mof_H 	H 	0.1397	0.3659	0.2243	0.321
Mof_H 	H 	0.1362	0.3963	0.2228	0.327
Mof_Zn	Zn	0.6176	0.87485	0.1207	0.837
Mof_N 	N 	0.61333	0.84655	0.15295	-0.339
Mof_C 	C 	0.61536	0.8193	0.148	0.062
Mof_C 	C 	0.60608	0.8058	0.17041	-0.118
Mof_H 	H 	0.6052	0.7877	0.1724	0.056
Mof_C 	C 	0.59831	0.8247	0.18921	-0.055
Mof_H 	H 	0.5915	0.8212	0.2057	0.027
Mof_C 	C 	0.6028	0.84988	0.17842	-0.014
Mof_C 	C 	0.5986	0.87491	0.18859	0.033
Mof_N 	N 	0.61341	0.90328	0.15283	-0.338
Mof_C 	C 	0.6029	0.8998	0.17829	-0.013
Mof_C 	C 	0.59841	0.92492	0.18922	-0.051
Mof_H 	H 	0.5916	0.9283	0.2057	0.031
Mof_C 	C 	0.60614	0.94393	0.17052	-0.112
Mof_H 	H 	0.6053	0.962	0.1726	0.059
Mof_C 	C 	0.61542	0.93055	0.14803	0.069
Mof_C 	C 	0.6428	0.76525	0.1403	-0.219
Mof_H 	H 	0.6548	0.7743	0.1505	0.082
Mof_C 	C 	0.6427	0.73807	0.1402	0.118
Mof_H 	H 	0.6547	0.7289	0.1504	-0.014
Mof_O 	O 	0.6407	0.68301	0.1393	-0.536
Mof_C 	C 	0.6048	0.98441	0.1129	-0.203
Mof_H 	H 	0.5913	0.9753	0.1048	0.084
Mof_C 	C 	0.6047	0.01159	0.1128	0.104
Mof_H 	H 	0.5911	0.0206	0.1047	-0.006
Mof_O 	O 	0.6091	0.06687	0.1108	-0.531
Mof_C 	C 	0.58741	0.87492	0.21565	-0.442
Mof_C 	C 	0.56065	0.872	0.2193	0.596
Mof_C 	C 	0.55028	0.872	0.2444	-0.731
Mof_H 	H 	0.5324	0.87	0.2469	0.257
Mof_C 	C 	0.5667	0.87493	0.2659	0.689
Mof_C 	C 	0.5935	0.87785	0.26224	-0.73
Mof_H 	H 	0.6044	0.8798	0.2766	0.24
Mof_C 	C 	0.60383	0.87784	0.2371	0.586
Mof_C 	C 	0.54282	0.86883	0.196	-1.101
Mof_H 	H 	0.5251	0.8671	0.2019	0.334
Mof_H 	H 	0.5443	0.8839	0.1849	0.333
Mof_H 	H 	0.5478	0.8535	0.1864	0.336
Mof_C 	C 	0.5554	0.87494	0.2932	-1.206
Mof_H 	H 	0.5368	0.8728	0.2923	0.369
Mof_H 	H 	0.5629	0.8608	0.3031	0.359
Mof_H 	H 	0.5594	0.8913	0.3016	0.354
Mof_C 	C 	0.63291	0.88101	0.2332	-1.081
Mof_H 	H 	0.6413	0.8828	0.2498	0.318
Mof_H 	H 	0.6397	0.8659	0.2243	0.321
Mof_H 	H 	0.6362	0.8963	0.2228	0.327
Mof_Zn	Zn	0.6176	0.37485	0.6207	0.837
Mof_N 	N 	0.61333	0.34655	0.65295	-0.339
Mof_C 	C 	0.61536	0.3193	0.648	0.062
Mof_C 	C 	0.60608	0.3058	0.67041	-0.118
Mof_H 	H 	0.6052	0.2877	0.6724	0.056
Mof_C 	C 	0.59831	0.3247	0.68921	-0.055
Mof_H 	H 	0.5915	0.3212	0.7057	0.027
Mof_C 	C 	0.6028	0.34988	0.67842	-0.014
Mof_C 	C 	0.5986	0.37491	0.68859	0.033
Mof_N 	N 	0.61341	0.40328	0.65283	-0.338
Mof_C 	C 	0.6029	0.3998	0.67829	-0.013
Mof_C 	C 	0.59841	0.42492	0.68922	-0.051
Mof_H 	H 	0.5916	0.4283	0.7057	0.031
Mof_C 	C 	0.60614	0.44393	0.67052	-0.112
Mof_H 	H 	0.6053	0.462	0.6726	0.059
Mof_C 	C 	0.61542	0.43055	0.64803	0.069
Mof_C 	C 	0.6428	0.26525	0.6403	-0.219
Mof_H 	H 	0.6548	0.2743	0.6505	0.082
Mof_C 	C 	0.6427	0.23807	0.6402	0.118
Mof_H 	H 	0.6547	0.2289	0.6504	-0.014
Mof_O 	O 	0.6407	0.18301	0.6393	-0.536
Mof_C 	C 	0.6048	0.48441	0.6129	-0.203
Mof_H 	H 	0.5913	0.4753	0.6048	0.084
Mof_C 	C 	0.6047	0.51159	0.6128	0.104
Mof_H 	H 	0.5911	0.5206	0.6047	-0.006
Mof_O 	O 	0.6091	0.56687	0.6108	-0.531
Mof_C 	C 	0.58741	0.37492	0.71565	-0.442
Mof_C 	C 	0.56065	0.372	0.7193	0.596
Mof_C 	C 	0.55028	0.372	0.7444	-0.731
Mof_H 	H 	0.5324	0.37	0.7469	0.257
Mof_C 	C 	0.5667	0.37493	0.7659	0.689
Mof_C 	C 	0.5935	0.37785	0.76224	-0.73
Mof_H 	H 	0.6044	0.3798	0.7766	0.24
Mof_C 	C 	0.60383	0.37784	0.7371	0.586
Mof_C 	C 	0.54282	0.36883	0.696	-1.101
Mof_H 	H 	0.5251	0.3671	0.7019	0.334
Mof_H 	H 	0.5443	0.3839	0.6849	0.333
Mof_H 	H 	0.5478	0.3535	0.6864	0.336
Mof_C 	C 	0.5554	0.37494	0.7932	-1.206
Mof_H 	H 	0.5368	0.3728	0.7923	0.369
Mof_H 	H 	0.5629	0.3608	0.8031	0.359
Mof_H 	H 	0.5594	0.3913	0.8016	0.354
Mof_C 	C 	0.63291	0.38101	0.7332	-1.081
Mof_H 	H 	0.6413	0.3828	0.7498	0.318
Mof_H 	H 	0.6397	0.3659	0.7243	0.321
Mof_H 	H 	0.6362	0.3963	0.7228	0.327
Mof_Zn	Zn	0.1293	0.6324	0.87485	0.837
Mof_N 	N 	0.09705	0.63667	0.84655	-0.339
Mof_C 	C 	0.102	0.63464	0.8193	0.062
Mof_C 	C 	0.07959	0.64392	0.8058	-0.118
Mof_H 	H 	0.0776	0.6448	0.7877	0.056
Mof_C 	C 	0.06079	0.65169	0.8247	-0.055
Mof_H 	H 	0.0443	0.6585	0.8212	0.027
Mof_C 	C 	0.07158	0.6472	0.84988	-0.014
Mof_C 	C 	0.06141	0.6514	0.87491	0.033
Mof_N 	N 	0.09717	0.63659	0.90328	-0.338
Mof_C 	C 	0.07171	0.6471	0.8998	-0.013
Mof_C 	C 	0.06078	0.65159	0.92492	-0.051
Mof_H 	H 	0.0443	0.6584	0.9283	0.031
Mof_C 	C 	0.07948	0.64386	0.94393	-0.112
Mof_H 	H 	0.0774	0.6447	0.962	0.059
Mof_C 	C 	0.10197	0.63458	0.93055	0.069
Mof_C 	C 	0.1097	0.6072	0.76525	-0.219
Mof_H 	H 	0.0995	0.5952	0.7743	0.082
Mof_C 	C 	0.1098	0.6073	0.73807	0.118
Mof_H 	H 	0.0996	0.5953	0.7289	-0.014
Mof_O 	O 	0.1107	0.6093	0.68301	-0.536
Mof_C 	C 	0.1371	0.6452	0.98441	-0.203
Mof_H 	H 	0.1452	0.6587	0.9753	0.084
Mof_C 	C 	0.1372	0.6453	0.01159	0.104
Mof_H 	H 	0.1453	0.6589	0.0206	-0.006
Mof_O 	O 	0.1392	0.6409	0.06687	-0.531
Mof_C 	C 	0.03435	0.66259	0.87492	-0.442
Mof_C 	C 	0.0307	0.68935	0.872	0.596
Mof_C 	C 	0.0056	0.69972	0.872	-0.731
Mof_H 	H 	0.0031	0.7176	0.87	0.257
Mof_C 	C 	0.9841	0.6833	0.87493	0.689
Mof_C 	C 	0.98776	0.6565	0.87785	-0.73
Mof_H 	H 	0.9734	0.6456	0.8798	0.24
Mof_C 	C 	0.0129	0.64617	0.87784	0.586
Mof_C 	C 	0.054	0.70718	0.86883	-1.101
Mof_H 	H 	0.0481	0.7249	0.8671	0.334
Mof_H 	H 	0.0651	0.7057	0.8839	0.333
Mof_H 	H 	0.0636	0.7022	0.8535	0.336
Mof_C 	C 	0.9568	0.6946	0.87494	-1.206
Mof_H 	H 	0.9577	0.7132	0.8728	0.369
Mof_H 	H 	0.9469	0.6871	0.8608	0.359
Mof_H 	H 	0.9484	0.6906	0.8913	0.354
Mof_C 	C 	0.0168	0.61709	0.88101	-1.081
Mof_H 	H 	0.0002	0.6087	0.8828	0.318
Mof_H 	H 	0.0257	0.6103	0.8659	0.321
Mof_H 	H 	0.0272	0.6138	0.8963	0.327
Mof_Zn	Zn	0.1293	0.1324	0.37485	0.837
Mof_N 	N 	0.09705	0.13667	0.34655	-0.339
Mof_C 	C 	0.102	0.13464	0.3193	0.062
Mof_C 	C 	0.07959	0.14392	0.3058	-0.118
Mof_H 	H 	0.0776	0.1448	0.2877	0.056
Mof_C 	C 	0.06079	0.15169	0.3247	-0.055
Mof_H 	H 	0.0443	0.1585	0.3212	0.027
Mof_C 	C 	0.07158	0.1472	0.34988	-0.014
Mof_C 	C 	0.06141	0.1514	0.37491	0.033
Mof_N 	N 	0.09717	0.13659	0.40328	-0.338
Mof_C 	C 	0.07171	0.1471	0.3998	-0.013
Mof_C 	C 	0.06078	0.15159	0.42492	-0.051
Mof_H 	H 	0.0443	0.1584	0.4283	0.031
Mof_C 	C 	0.07948	0.14386	0.44393	-0.112
Mof_H 	H 	0.0774	0.1447	0.462	0.059
Mof_C 	C 	0.10197	0.13458	0.43055	0.069
Mof_C 	C 	0.1097	0.1072	0.26525	-0.219
Mof_H 	H 	0.0995	0.0952	0.2743	0.082
Mof_C 	C 	0.1098	0.1073	0.23807	0.118
Mof_H 	H 	0.0996	0.0953	0.2289	-0.014
Mof_O 	O 	0.1107	0.1093	0.18301	-0.536
Mof_C 	C 	0.1371	0.1452	0.48441	-0.203
Mof_H 	H 	0.1452	0.1587	0.4753	0.084
Mof_C 	C 	0.1372	0.1453	0.51159	0.104
Mof_H 	H 	0.1453	0.1589	0.5206	-0.006
Mof_O 	O 	0.1392	0.1409	0.56687	-0.531
Mof_C 	C 	0.03435	0.16259	0.37492	-0.442
Mof_C 	C 	0.0307	0.18935	0.372	0.596
Mof_C 	C 	0.0056	0.19972	0.372	-0.731
Mof_H 	H 	0.0031	0.2176	0.37	0.257
Mof_C 	C 	0.9841	0.1833	0.37493	0.689
Mof_C 	C 	0.98776	0.1565	0.37785	-0.73
Mof_H 	H 	0.9734	0.1456	0.3798	0.24
Mof_C 	C 	0.0129	0.14617	0.37784	0.586
Mof_C 	C 	0.054	0.20718	0.36883	-1.101
Mof_H 	H 	0.0481	0.2249	0.3671	0.334
Mof_H 	H 	0.0651	0.2057	0.3839	0.333
Mof_H 	H 	0.0636	0.2022	0.3535	0.336
Mof_C 	C 	0.9568	0.1946	0.37494	-1.206
Mof_H 	H 	0.9577	0.2132	0.3728	0.369
Mof_H 	H 	0.9469	0.1871	0.3608	0.359
Mof_H 	H 	0.9484	0.1906	0.3913	0.354
Mof_C 	C 	0.0168	0.11709	0.38101	-1.081
Mof_H 	H 	0.0002	0.1087	0.3828	0.318
Mof_H 	H 	0.0257	0.1103	0.3659	0.321
Mof_H 	H 	0.0272	0.1138	0.3963	0.327
Mof_Zn	Zn	0.6293	0.6324	0.37485	0.837
Mof_N 	N 	0.59705	0.63667	0.34655	-0.339
Mof_C 	C 	0.602	0.63464	0.3193	0.062
Mof_C 	C 	0.57959	0.64392	0.3058	-0.118
Mof_H 	H 	0.5776	0.6448	0.2877	0.056
Mof_C 	C 	0.56079	0.65169	0.3247	-0.055
Mof_H 	H 	0.5443	0.6585	0.3212	0.027
Mof_C 	C 	0.57158	0.6472	0.34988	-0.014
Mof_C 	C 	0.56141	0.6514	0.37491	0.033
Mof_N 	N 	0.59717	0.63659	0.40328	-0.338
Mof_C 	C 	0.57171	0.6471	0.3998	-0.013
Mof_C 	C 	0.56078	0.65159	0.42492	-0.051
Mof_H 	H 	0.5443	0.6584	0.4283	0.031
Mof_C 	C 	0.57948	0.64386	0.44393	-0.112
Mof_H 	H 	0.5774	0.6447	0.462	0.059
Mof_C 	C 	0.60197	0.63458	0.43055	0.069
Mof_C 	C 	0.6097	0.6072	0.26525	-0.219
Mof_H 	H 	0.5995	0.5952	0.2743	0.082
Mof_C 	C 	0.6098	0.6073	0.23807	0.118
Mof_H 	H 	0.5996	0.5953	0.2289	-0.014
Mof_O 	O 	0.6107	0.6093	0.18301	-0.536
Mof_C 	C 	0.6371	0.6452	0.48441	-0.203
Mof_H 	H 	0.6452	0.6587	0.4753	0.084
Mof_C 	C 	0.6372	0.6453	0.51159	0.104
Mof_H 	H 	0.6453	0.6589	0.5206	-0.006
Mof_O 	O 	0.6392	0.6409	0.56687	-0.531
Mof_C 	C 	0.53435	0.66259	0.37492	-0.442
Mof_C 	C 	0.5307	0.68935	0.372	0.596
Mof_C 	C 	0.5056	0.69972	0.372	-0.731
Mof_H 	H 	0.5031	0.7176	0.37	0.257
Mof_C 	C 	0.4841	0.6833	0.37493	0.689
Mof_C 	C 	0.48776	0.6565	0.37785	-0.73
Mof_H 	H 	0.4734	0.6456	0.3798	0.24
Mof_C 	C 	0.5129	0.64617	0.37784	0.586
Mof_C 	C 	0.554	0.70718	0.36883	-1.101
Mof_H 	H 	0.5481	0.7249	0.3671	0.334
Mof_H 	H 	0.5651	0.7057	0.3839	0.333
Mof_H 	H 	0.5636	0.7022	0.3535	0.336
Mof_C 	C 	0.4568	0.6946	0.37494	-1.206
Mof_H 	H 	0.4577	0.7132	0.3728	0.369
Mof_H 	H 	0.4469	0.6871	0.3608	0.359
Mof_H 	H 	0.4484	0.6906	0.3913	0.354
Mof_C 	C 	0.5168	0.61709	0.38101	-1.081
Mof_H 	H 	0.5002	0.6087	0.3828	0.318
Mof_H 	H 	0.5257	0.6103	0.3659	0.321
Mof_H 	H 	0.5272	0.6138	0.3963	0.327
Mof_Zn	Zn	0.6293	0.1324	0.87485	0.837
Mof_N 	N 	0.59705	0.13667	0.84655	-0.339
Mof_C 	C 	0.602	0.13464	0.8193	0.062
Mof_C 	C 	0.57959	0.14392	0.8058	-0.118
Mof_H 	H 	0.5776	0.1448	0.7877	0.056
Mof_C 	C 	0.56079	0.15169	0.8247	-0.055
Mof_H 	H 	0.5443	0.1585	0.8212	0.027
Mof_C 	C 	0.57158	0.1472	0.84988	-0.014
Mof_C 	C 	0.56141	0.1514	0.87491	0.033
Mof_N 	N 	0.59717	0.13659	0.90328	-0.338
Mof_C 	C 	0.57171	0.1471	0.8998	-0.013
Mof_C 	C 	0.56078	0.15159	0.92492	-0.051
Mof_H 	H 	0.5443	0.1584	0.9283	0.031
Mof_C 	C 	0.57948	0.14386	0.94393	-0.112
Mof_H 	H 	0.5774	0.1447	0.962	0.059
Mof_C 	C 	0.60197	0.13458	0.93055	0.069
Mof_C 	C 	0.6097	0.1072	0.76525	-0.219
Mof_H 	H 	0.5995	0.0952	0.7743	0.082
Mof_C 	C 	0.6098	0.1073	0.73807	0.118
Mof_H 	H 	0.5996	0.0953	0.7289	-0.014
Mof_O 	O 	0.6107	0.1093	0.68301	-0.536
Mof_C 	C 	0.6371	0.1452	0.98441	-0.203
Mof_H 	H 	0.6452	0.1587	0.9753	0.084
Mof_C 	C 	0.6372	0.1453	0.01159	0.104
Mof_H 	H 	0.6453	0.1589	0.0206	-0.006
Mof_O 	O 	0.6392	0.1409	0.06687	-0.531
Mof_C 	C 	0.53435	0.16259	0.87492	-0.442
Mof_C 	C 	0.5307	0.18935	0.872	0.596
Mof_C 	C 	0.5056	0.19972	0.872	-0.731
Mof_H 	H 	0.5031	0.2176	0.87	0.257
Mof_C 	C 	0.4841	0.1833	0.87493	0.689
Mof_C 	C 	0.48776	0.1565	0.87785	-0.73
Mof_H 	H 	0.4734	0.1456	0.8798	0.24
Mof_C 	C 	0.5129	0.14617	0.87784	0.586
Mof_C 	C 	0.554	0.20718	0.86883	-1.101
Mof_H 	H 	0.5481	0.2249	0.8671	0.334
Mof_H 	H 	0.5651	0.2057	0.8839	0.333
Mof_H 	H 	0.5636	0.2022	0.8535	0.336
Mof_C 	C 	0.4568	0.1946	0.87494	-1.206
Mof_H 	H 	0.4577	0.2132	0.8728	0.369
Mof_H 	H 	0.4469	0.1871	0.8608	0.359
Mof_H 	H 	0.4484	0.1906	0.8913	0.354
Mof_C 	C 	0.5168	0.11709	0.88101	-1.081
Mof_H 	H 	0.5002	0.1087	0.8828	0.318
Mof_H 	H 	0.5257	0.1103	0.8659	0.321
Mof_H 	H 	0.5272	0.1138	0.8963	0.327
Mof_Zn	Zn	0.6207	0.6324	0.87515	0.837
Mof_N 	N 	0.65295	0.63667	0.90345	-0.339
Mof_C 	C 	0.648	0.63464	0.9307	0.062
Mof_C 	C 	0.67041	0.64392	0.9442	-0.118
Mof_H 	H 	0.6724	0.6448	0.9623	0.056
Mof_C 	C 	0.68921	0.65169	0.9253	-0.055
Mof_H 	H 	0.7057	0.6585	0.9288	0.027
Mof_C 	C 	0.67842	0.6472	0.90012	-0.014
Mof_C 	C 	0.68859	0.6514	0.87509	0.033
Mof_N 	N 	0.65283	0.63659	0.84672	-0.338
Mof_C 	C 	0.67829	0.6471	0.8502	-0.013
Mof_C 	C 	0.68922	0.65159	0.82508	-0.051
Mof_H 	H 	0.7057	0.6584	0.8217	0.031
Mof_C 	C 	0.67052	0.64386	0.80607	-0.112
Mof_H 	H 	0.6726	0.6447	0.788	0.059
Mof_C 	C 	0.64803	0.63458	0.81945	0.069
Mof_C 	C 	0.6403	0.6072	0.98475	-0.219
Mof_H 	H 	0.6505	0.5952	0.9757	0.082
Mof_C 	C 	0.6402	0.6073	0.01193	0.118
Mof_H 	H 	0.6504	0.5953	0.0211	-0.014
Mof_O 	O 	0.6393	0.6093	0.06699	-0.536
Mof_C 	C 	0.6129	0.6452	0.76559	-0.203
Mof_H 	H 	0.6048	0.6587	0.7747	0.084
Mof_C 	C 	0.6128	0.6453	0.73841	0.104
Mof_H 	H 	0.6047	0.6589	0.7294	-0.006
Mof_O 	O 	0.6108	0.6409	0.68313	-0.531
Mof_C 	C 	0.71565	0.66259	0.87508	-0.442
Mof_C 	C 	0.7193	0.68935	0.878	0.596
Mof_C 	C 	0.7444	0.69972	0.878	-0.731
Mof_H 	H 	0.7469	0.7176	0.88	0.257
Mof_C 	C 	0.7659	0.6833	0.87507	0.689
Mof_C 	C 	0.76224	0.6565	0.87215	-0.73
Mof_H 	H 	0.7766	0.6456	0.8702	0.24
Mof_C 	C 	0.7371	0.64617	0.87216	0.586
Mof_C 	C 	0.696	0.70718	0.88117	-1.101
Mof_H 	H 	0.7019	0.7249	0.8829	0.334
Mof_H 	H 	0.6849	0.7057	0.8661	0.333
Mof_H 	H 	0.6864	0.7022	0.8965	0.336
Mof_C 	C 	0.7932	0.6946	0.87506	-1.206
Mof_H 	H 	0.7923	0.7132	0.8772	0.369
Mof_H 	H 	0.8031	0.6871	0.8892	0.359
Mof_H 	H 	0.8016	0.6906	0.8587	0.354
Mof_C 	C 	0.7332	0.61709	0.86899	-1.081
Mof_H 	H 	0.7498	0.6087	0.8672	0.318
Mof_H 	H 	0.7243	0.6103	0.8841	0.321
Mof_H 	H 	0.7228	0.6138	0.8537	0.327
Mof_Zn	Zn	0.6207	0.1324	0.37515	0.837
Mof_N 	N 	0.65295	0.13667	0.40345	-0.339
Mof_C 	C 	0.648	0.13464	0.4307	0.062
Mof_C 	C 	0.67041	0.14392	0.4442	-0.118
Mof_H 	H 	0.6724	0.1448	0.4623	0.056
Mof_C 	C 	0.68921	0.15169	0.4253	-0.055
Mof_H 	H 	0.7057	0.1585	0.4288	0.027
Mof_C 	C 	0.67842	0.1472	0.40012	-0.014
Mof_C 	C 	0.68859	0.1514	0.37509	0.033
Mof_N 	N 	0.65283	0.13659	0.34672	-0.338
Mof_C 	C 	0.67829	0.1471	0.3502	-0.013
Mof_C 	C 	0.68922	0.15159	0.32508	-0.051
Mof_H 	H 	0.7057	0.1584	0.3217	0.031
Mof_C 	C 	0.67052	0.14386	0.30607	-0.112
Mof_H 	H 	0.6726	0.1447	0.288	0.059
Mof_C 	C 	0.64803	0.13458	0.31945	0.069
Mof_C 	C 	0.6403	0.1072	0.48475	-0.219
Mof_H 	H 	0.6505	0.0952	0.4757	0.082
Mof_C 	C 	0.6402	0.1073	0.51193	0.118
Mof_H 	H 	0.6504	0.0953	0.5211	-0.014
Mof_O 	O 	0.6393	0.1093	0.56699	-0.536
Mof_C 	C 	0.6129	0.1452	0.26559	-0.203
Mof_H 	H 	0.6048	0.1587	0.2747	0.084
Mof_C 	C 	0.6128	0.1453	0.23841	0.104
Mof_H 	H 	0.6047	0.1589	0.2294	-0.006
Mof_O 	O 	0.6108	0.1409	0.18313	-0.531
Mof_C 	C 	0.71565	0.16259	0.37508	-0.442
Mof_C 	C 	0.7193	0.18935	0.378	0.596
Mof_C 	C 	0.7444	0.19972	0.378	-0.731
Mof_H 	H 	0.7469	0.2176	0.38	0.257
Mof_C 	C 	0.7659	0.1833	0.37507	0.689
Mof_C 	C 	0.76224	0.1565	0.37215	-0.73
Mof_H 	H 	0.7766	0.1456	0.3702	0.24
Mof_C 	C 	0.7371	0.14617	0.37216	0.586
Mof_C 	C 	0.696	0.20718	0.38117	-1.101
Mof_H 	H 	0.7019	0.2249	0.3829	0.334
Mof_H 	H 	0.6849	0.2057	0.3661	0.333
Mof_H 	H 	0.6864	0.2022	0.3965	0.336
Mof_C 	C 	0.7932	0.1946	0.37506	-1.206
Mof_H 	H 	0.7923	0.2132	0.3772	0.369
Mof_H 	H 	0.8031	0.1871	0.3892	0.359
Mof_H 	H 	0.8016	0.1906	0.3587	0.354
Mof_C 	C 	0.7332	0.11709	0.36899	-1.081
Mof_H 	H 	0.7498	0.1087	0.3672	0.318
Mof_H 	H 	0.7243	0.1103	0.3841	0.321
Mof_H 	H 	0.7228	0.1138	0.3537	0.327
Mof_Zn	Zn	0.1207	0.6324	0.37515	0.837
Mof_N 	N 	0.15295	0.63667	0.40345	-0.339
Mof_C 	C 	0.148	0.63464	0.4307	0.062
Mof_C 	C 	0.17041	0.64392	0.4442	-0.118
Mof_H 	H 	0.1724	0.6448	0.4623	0.056
Mof_C 	C 	0.18921	0.65169	0.4253	-0.055
Mof_H 	H 	0.2057	0.6585	0.4288	0.027
Mof_C 	C 	0.17842	0.6472	0.40012	-0.014
Mof_C 	C 	0.18859	0.6514	0.37509	0.033
Mof_N 	N 	0.15283	0.63659	0.34672	-0.338
Mof_C 	C 	0.17829	0.6471	0.3502	-0.013
Mof_C 	C 	0.18922	0.65159	0.32508	-0.051
Mof_H 	H 	0.2057	0.6584	0.3217	0.031
Mof_C 	C 	0.17052	0.64386	0.30607	-0.112
Mof_H 	H 	0.1726	0.6447	0.288	0.059
Mof_C 	C 	0.14803	0.63458	0.31945	0.069
Mof_C 	C 	0.1403	0.6072	0.48475	-0.219
Mof_H 	H 	0.1505	0.5952	0.4757	0.082
Mof_C 	C 	0.1402	0.6073	0.51193	0.118
Mof_H 	H 	0.1504	0.5953	0.5211	-0.014
Mof_O 	O 	0.1393	0.6093	0.56699	-0.536
Mof_C 	C 	0.1129	0.6452	0.26559	-0.203
Mof_H 	H 	0.1048	0.6587	0.2747	0.084
Mof_C 	C 	0.1128	0.6453	0.23841	0.104
Mof_H 	H 	0.1047	0.6589	0.2294	-0.006
Mof_O 	O 	0.1108	0.6409	0.18313	-0.531
Mof_C 	C 	0.21565	0.66259	0.37508	-0.442
Mof_C 	C 	0.2193	0.68935	0.378	0.596
Mof_C 	C 	0.2444	0.69972	0.378	-0.731
Mof_H 	H 	0.2469	0.7176	0.38	0.257
Mof_C 	C 	0.2659	0.6833	0.37507	0.689
Mof_C 	C 	0.26224	0.6565	0.37215	-0.73
Mof_H 	H 	0.2766	0.6456	0.3702	0.24
Mof_C 	C 	0.2371	0.64617	0.37216	0.586
Mof_C 	C 	0.196	0.70718	0.38117	-1.101
Mof_H 	H 	0.2019	0.7249	0.3829	0.334
Mof_H 	H 	0.1849	0.7057	0.3661	0.333
Mof_H 	H 	0.1864	0.7022	0.3965	0.336
Mof_C 	C 	0.2932	0.6946	0.37506	-1.206
Mof_H 	H 	0.2923	0.7132	0.3772	0.369
Mof_H 	H 	0.3031	0.6871	0.3892	0.359
Mof_H 	H 	0.3016	0.6906	0.3587	0.354
Mof_C 	C 	0.2332	0.61709	0.36899	-1.081
Mof_H 	H 	0.2498	0.6087	0.3672	0.318
Mof_H 	H 	0.2243	0.6103	0.3841	0.321
Mof_H 	H 	0.2228	0.6138	0.3537	0.327
Mof_Zn	Zn	0.1207	0.1324	0.87515	0.837
Mof_N 	N 	0.15295	0.13667	0.90345	-0.339
Mof_C 	C 	0.148	0.13464	0.9307	0.062
Mof_C 	C 	0.17041	0.14392	0.9442	-0.118
Mof_H 	H 	0.1724	0.1448	0.9623	0.056
Mof_C 	C 	0.18921	0.15169	0.9253	-0.055
Mof_H 	H 	0.2057	0.1585	0.9288	0.027
Mof_C 	C 	0.17842	0.1472	0.90012	-0.014
Mof_C 	C 	0.18859	0.1514	0.87509	0.033
Mof_N 	N 	0.15283	0.13659	0.84672	-0.338
Mof_C 	C 	0.17829	0.1471	0.8502	-0.013
Mof_C 	C 	0.18922	0.15159	0.82508	-0.051
Mof_H 	H 	0.2057	0.1584	0.8217	0.031
Mof_C 	C 	0.17052	0.14386	0.80607	-0.112
Mof_H 	H 	0.1726	0.1447	0.788	0.059
Mof_C 	C 	0.14803	0.13458	0.81945	0.069
Mof_C 	C 	0.1403	0.1072	0.98475	-0.219
Mof_H 	H 	0.1505	0.0952	0.9757	0.082
Mof_C 	C 	0.1402	0.1073	0.01193	0.118
Mof_H 	H 	0.1504	0.0953	0.0211	-0.014
Mof_O 	O 	0.1393	0.1093	0.06699	-0.536
Mof_C 	C 	0.1129	0.1452	0.76559	-0.203
Mof_H 	H 	0.1048	0.1587	0.7747	0.084
Mof_C 	C 	0.1128	0.1453	0.73841	0.104
Mof_H 	H 	0.1047	0.1589	0.7294	-0.006
Mof_O 	O 	0.1108	0.1409	0.68313	-0.531
Mof_C 	C 	0.21565	0.16259	0.87508	-0.442
Mof_C 	C 	0.2193	0.18935	0.878	0.596
Mof_C 	C 	0.2444	0.19972	0.878	-0.731
Mof_H 	H 	0.2469	0.2176	0.88	0.257
Mof_C 	C 	0.2659	0.1833	0.87507	0.689
Mof_C 	C 	0.26224	0.1565	0.87215	-0.73
Mof_H 	H 	0.2766	0.1456	0.8702	0.24
Mof_C 	C 	0.2371	0.14617	0.87216	0.586
Mof_C 	C 	0.196	0.20718	0.88117	-1.101
Mof_H 	H 	0.2019	0.2249	0.8829	0.334
Mof_H 	H 	0.1849	0.2057	0.8661	0.333
Mof_H 	H 	0.1864	0.2022	0.8965	0.336
Mof_C 	C 	0.2932	0.1946	0.87506	-1.206
Mof_H 	H 	0.2923	0.2132	0.8772	0.369
Mof_H 	H 	0.3031	0.1871	0.8892	0.359
Mof_H 	H 	0.3016	0.1906	0.8587	0.354
Mof_C 	C 	0.2332	0.11709	0.86899	-1.081
Mof_H 	H 	0.2498	0.1087	0.8672	0.318
Mof_H 	H 	0.2243	0.1103	0.8841	0.321
Mof_H 	H 	0.2228	0.1138	0.8537	0.327
Mof_Zn	Zn	0.1293	0.1176	0.87515	0.837
Mof_N 	N 	0.09705	0.11333	0.90345	-0.339
Mof_C 	C 	0.102	0.11536	0.9307	0.062
Mof_C 	C 	0.07959	0.10608	0.9442	-0.118
Mof_H 	H 	0.0776	0.1052	0.9623	0.056
Mof_C 	C 	0.06079	0.09831	0.9253	-0.055
Mof_H 	H 	0.0443	0.0915	0.9288	0.027
Mof_C 	C 	0.07158	0.1028	0.90012	-0.014
Mof_C 	C 	0.06141	0.0986	0.87509	0.033
Mof_N 	N 	0.09717	0.11341	0.84672	-0.338
Mof_C 	C 	0.07171	0.1029	0.8502	-0.013
Mof_C 	C 	0.06078	0.09841	0.82508	-0.051
Mof_H 	H 	0.0443	0.0916	0.8217	0.031
Mof_C 	C 	0.07948	0.10614	0.80607	-0.112
Mof_H 	H 	0.0774	0.1053	0.788	0.059
Mof_C 	C 	0.10197	0.11542	0.81945	0.069
Mof_C 	C 	0.1097	0.1428	0.98475	-0.219
Mof_H 	H 	0.0995	0.1548	0.9757	0.082
Mof_C 	C 	0.1098	0.1427	0.01193	0.118
Mof_H 	H 	0.0996	0.1547	0.0211	-0.014
Mof_O 	O 	0.1107	0.1407	0.06699	-0.536
Mof_C 	C 	0.1371	0.1048	0.76559	-0.203
Mof_H 	H 	0.1452	0.0913	0.7747	0.084
Mof_C 	C 	0.1372	0.1047	0.73841	0.104
Mof_H 	H 	0.1453	0.0911	0.7294	-0.006
Mof_O 	O 	0.1392	0.1091	0.68313	-0.531
Mof_C 	C 	0.03435	0.08741	0.87508	-0.442
Mof_C 	C 	0.0307	0.06065	0.878	0.596
Mof_C 	C 	0.0056	0.05028	0.878	-0.731
Mof_H 	H 	0.0031	0.0324	0.88	0.257
Mof_C 	C 	0.9841	0.0667	0.87507	0.689
Mof_C 	C 	0.98776	0.0935	0.87215	-0.73
Mof_H 	H 	0.9734	0.1044	0.8702	0.24
Mof_C 	C 	0.0129	0.10383	0.87216	0.586
Mof_C 	C 	0.054	0.04282	0.88117	-1.101
Mof_H 	H 	0.0481	0.0251	0.8829	0.334
Mof_H 	H 	0.0651	0.0443	0.8661	0.333
Mof_H 	H 	0.0636	0.0478	0.8965	0.336
Mof_C 	C 	0.9568	0.0554	0.87506	-1.206
Mof_H 	H 	0.9577	0.0368	0.8772	0.369
Mof_H 	H 	0.9469	0.0629	0.8892	0.359
Mof_H 	H 	0.9484	0.0594	0.8587	0.354
Mof_C 	C 	0.0168	0.13291	0.86899	-1.081
Mof_H 	H 	0.0002	0.1413	0.8672	0.318
Mof_H 	H 	0.0257	0.1397	0.8841	0.321
Mof_H 	H 	0.0272	0.1362	0.8537	0.327
Mof_Zn	Zn	0.1293	0.6176	0.37515	0.837
Mof_N 	N 	0.09705	0.61333	0.40345	-0.339
Mof_C 	C 	0.102	0.61536	0.4307	0.062
Mof_C 	C 	0.07959	0.60608	0.4442	-0.118
Mof_H 	H 	0.0776	0.6052	0.4623	0.056
Mof_C 	C 	0.06079	0.59831	0.4253	-0.055
Mof_H 	H 	0.0443	0.5915	0.4288	0.027
Mof_C 	C 	0.07158	0.6028	0.40012	-0.014
Mof_C 	C 	0.06141	0.5986	0.37509	0.033
Mof_N 	N 	0.09717	0.61341	0.34672	-0.338
Mof_C 	C 	0.07171	0.6029	0.3502	-0.013
Mof_C 	C 	0.06078	0.59841	0.32508	-0.051
Mof_H 	H 	0.0443	0.5916	0.3217	0.031
Mof_C 	C 	0.07948	0.60614	0.30607	-0.112
Mof_H 	H 	0.0774	0.6053	0.288	0.059
Mof_C 	C 	0.10197	0.61542	0.31945	0.069
Mof_C 	C 	0.1097	0.6428	0.48475	-0.219
Mof_H 	H 	0.0995	0.6548	0.4757	0.082
Mof_C 	C 	0.1098	0.6427	0.51193	0.118
Mof_H 	H 	0.0996	0.6547	0.5211	-0.014
Mof_O 	O 	0.1107	0.6407	0.56699	-0.536
Mof_C 	C 	0.1371	0.6048	0.26559	-0.203
Mof_H 	H 	0.1452	0.5913	0.2747	0.084
Mof_C 	C 	0.1372	0.6047	0.23841	0.104
Mof_H 	H 	0.1453	0.5911	0.2294	-0.006
Mof_O 	O 	0.1392	0.6091	0.18313	-0.531
Mof_C 	C 	0.03435	0.58741	0.37508	-0.442
Mof_C 	C 	0.0307	0.56065	0.378	0.596
Mof_C 	C 	0.0056	0.55028	0.378	-0.731
Mof_H 	H 	0.0031	0.5324	0.38	0.257
Mof_C 	C 	0.9841	0.5667	0.37507	0.689
Mof_C 	C 	0.98776	0.5935	0.37215	-0.73
Mof_H 	H 	0.9734	0.6044	0.3702	0.24
Mof_C 	C 	0.0129	0.60383	0.37216	0.586
Mof_C 	C 	0.054	0.54282	0.38117	-1.101
Mof_H 	H 	0.0481	0.5251	0.3829	0.334
Mof_H 	H 	0.0651	0.5443	0.3661	0.333
Mof_H 	H 	0.0636	0.5478	0.3965	0.336
Mof_C 	C 	0.9568	0.5554	0.37506	-1.206
Mof_H 	H 	0.9577	0.5368	0.3772	0.369
Mof_H 	H 	0.9469	0.5629	0.3892	0.359
Mof_H 	H 	0.9484	0.5594	0.3587	0.354
Mof_C 	C 	0.0168	0.63291	0.36899	-1.081
Mof_H 	H 	0.0002	0.6413	0.3672	0.318
Mof_H 	H 	0.0257	0.6397	0.3841	0.321
Mof_H 	H 	0.0272	0.6362	0.3537	0.327
Mof_Zn	Zn	0.6293	0.1176	0.37515	0.837
Mof_N 	N 	0.59705	0.11333	0.40345	-0.339
Mof_C 	C 	0.602	0.11536	0.4307	0.062
Mof_C 	C 	0.57959	0.10608	0.4442	-0.118
Mof_H 	H 	0.5776	0.1052	0.4623	0.056
Mof_C 	C 	0.56079	0.09831	0.4253	-0.055
Mof_H 	H 	0.5443	0.0915	0.4288	0.027
Mof_C 	C 	0.57158	0.1028	0.40012	-0.014
Mof_C 	C 	0.56141	0.0986	0.37509	0.033
Mof_N 	N 	0.59717	0.11341	0.34672	-0.338
Mof_C 	C 	0.57171	0.1029	0.3502	-0.013
Mof_C 	C 	0.56078	0.09841	0.32508	-0.051
Mof_H 	H 	0.5443	0.0916	0.3217	0.031
Mof_C 	C 	0.57948	0.10614	0.30607	-0.112
Mof_H 	H 	0.5774	0.1053	0.288	0.059
Mof_C 	C 	0.60197	0.11542	0.31945	0.069
Mof_C 	C 	0.6097	0.1428	0.48475	-0.219
Mof_H 	H 	0.5995	0.1548	0.4757	0.082
Mof_C 	C 	0.6098	0.1427	0.51193	0.118
Mof_H 	H 	0.5996	0.1547	0.5211	-0.014
Mof_O 	O 	0.6107	0.1407	0.56699	-0.536
Mof_C 	C 	0.6371	0.1048	0.26559	-0.203
Mof_H 	H 	0.6452	0.0913	0.2747	0.084
Mof_C 	C 	0.6372	0.1047	0.23841	0.104
Mof_H 	H 	0.6453	0.0911	0.2294	-0.006
Mof_O 	O 	0.6392	0.1091	0.18313	-0.531
Mof_C 	C 	0.53435	0.08741	0.37508	-0.442
Mof_C 	C 	0.5307	0.06065	0.378	0.596
Mof_C 	C 	0.5056	0.05028	0.378	-0.731
Mof_H 	H 	0.5031	0.0324	0.38	0.257
Mof_C 	C 	0.4841	0.0667	0.37507	0.689
Mof_C 	C 	0.48776	0.0935	0.37215	-0.73
Mof_H 	H 	0.4734	0.1044	0.3702	0.24
Mof_C 	C 	0.5129	0.10383	0.37216	0.586
Mof_C 	C 	0.554	0.04282	0.38117	-1.101
Mof_H 	H 	0.5481	0.0251	0.3829	0.334
Mof_H 	H 	0.5651	0.0443	0.3661	0.333
Mof_H 	H 	0.5636	0.0478	0.3965	0.336
Mof_C 	C 	0.4568	0.0554	0.37506	-1.206
Mof_H 	H 	0.4577	0.0368	0.3772	0.369
Mof_H 	H 	0.4469	0.0629	0.3892	0.359
Mof_H 	H 	0.4484	0.0594	0.3587	0.354
Mof_C 	C 	0.5168	0.13291	0.36899	-1.081
Mof_H 	H 	0.5002	0.1413	0.3672	0.318
Mof_H 	H 	0.5257	0.1397	0.3841	0.321
Mof_H 	H 	0.5272	0.1362	0.3537	0.327
Mof_Zn	Zn	0.6293	0.6176	0.87515	0.837
Mof_N 	N 	0.59705	0.61333	0.90345	-0.339
Mof_C 	C 	0.602	0.61536	0.9307	0.062
Mof_C 	C 	0.57959	0.60608	0.9442	-0.118
Mof_H 	H 	0.5776	0.6052	0.9623	0.056
Mof_C 	C 	0.56079	0.59831	0.9253	-0.055
Mof_H 	H 	0.5443	0.5915	0.9288	0.027
Mof_C 	C 	0.57158	0.6028	0.90012	-0.014
Mof_C 	C 	0.56141	0.5986	0.87509	0.033
Mof_N 	N 	0.59717	0.61341	0.84672	-0.338
Mof_C 	C 	0.57171	0.6029	0.8502	-0.013
Mof_C 	C 	0.56078	0.59841	0.82508	-0.051
Mof_H 	H 	0.5443	0.5916	0.8217	0.031
Mof_C 	C 	0.57948	0.60614	0.80607	-0.112
Mof_H 	H 	0.5774	0.6053	0.788	0.059
Mof_C 	C 	0.60197	0.61542	0.81945	0.069
Mof_C 	C 	0.6097	0.6428	0.98475	-0.219
Mof_H 	H 	0.5995	0.6548	0.9757	0.082
Mof_C 	C 	0.6098	0.6427	0.01193	0.118
Mof_H 	H 	0.5996	0.6547	0.0211	-0.014
Mof_O 	O 	0.6107	0.6407	0.06699	-0.536
Mof_C 	C 	0.6371	0.6048	0.76559	-0.203
Mof_H 	H 	0.6452	0.5913	0.7747	0.084
Mof_C 	C 	0.6372	0.6047	0.73841	0.104
Mof_H 	H 	0.6453	0.5911	0.7294	-0.006
Mof_O 	O 	0.6392	0.6091	0.68313	-0.531
Mof_C 	C 	0.53435	0.58741	0.87508	-0.442
Mof_C 	C 	0.5307	0.56065	0.878	0.596
Mof_C 	C 	0.5056	0.55028	0.878	-0.731
Mof_H 	H 	0.5031	0.5324	0.88	0.257
Mof_C 	C 	0.4841	0.5667	0.87507	0.689
Mof_C 	C 	0.48776	0.5935	0.87215	-0.73
Mof_H 	H 	0.4734	0.6044	0.8702	0.24
Mof_C 	C 	0.5129	0.60383	0.87216	0.586
Mof_C 	C 	0.554	0.54282	0.88117	-1.101
Mof_H 	H 	0.5481	0.5251	0.8829	0.334
Mof_H 	H 	0.5651	0.5443	0.8661	0.333
Mof_H 	H 	0.5636	0.5478	0.8965	0.336
Mof_C 	C 	0.4568	0.5554	0.87506	-1.206
Mof_H 	H 	0.4577	0.5368	0.8772	0.369
Mof_H 	H 	0.4469	0.5629	0.8892	0.359
Mof_H 	H 	0.4484	0.5594	0.8587	0.354
Mof_C 	C 	0.5168	0.63291	0.86899	-1.081
Mof_H 	H 	0.5002	0.6413	0.8672	0.318
Mof_H 	H 	0.5257	0.6397	0.8841	0.321
Mof_H 	H 	0.5272	0.6362	0.8537	0.327
Mof_Zn	Zn	0.6207	0.1176	0.87485	0.837
Mof_N 	N 	0.65295	0.11333	0.84655	-0.339
Mof_C 	C 	0.648	0.11536	0.8193	0.062
Mof_C 	C 	0.67041	0.10608	0.8058	-0.118
Mof_H 	H 	0.6724	0.1052	0.7877	0.056
Mof_C 	C 	0.68921	0.09831	0.8247	-0.055
Mof_H 	H 	0.7057	0.0915	0.8212	0.027
Mof_C 	C 	0.67842	0.1028	0.84988	-0.014
Mof_C 	C 	0.68859	0.0986	0.87491	0.033
Mof_N 	N 	0.65283	0.11341	0.90328	-0.338
Mof_C 	C 	0.67829	0.1029	0.8998	-0.013
Mof_C 	C 	0.68922	0.09841	0.92492	-0.051
Mof_H 	H 	0.7057	0.0916	0.9283	0.031
Mof_C 	C 	0.67052	0.10614	0.94393	-0.112
Mof_H 	H 	0.6726	0.1053	0.962	0.059
Mof_C 	C 	0.64803	0.11542	0.93055	0.069
Mof_C 	C 	0.6403	0.1428	0.76525	-0.219
Mof_H 	H 	0.6505	0.1548	0.7743	0.082
Mof_C 	C 	0.6402	0.1427	0.73807	0.118
Mof_H 	H 	0.6504	0.1547	0.7289	-0.014
Mof_O 	O 	0.6393	0.1407	0.68301	-0.536
Mof_C 	C 	0.6129	0.1048	0.98441	-0.203
Mof_H 	H 	0.6048	0.0913	0.9753	0.084
Mof_C 	C 	0.6128	0.1047	0.01159	0.104
Mof_H 	H 	0.6047	0.0911	0.0206	-0.006
Mof_O 	O 	0.6108	0.1091	0.06687	-0.531
Mof_C 	C 	0.71565	0.08741	0.87492	-0.442
Mof_C 	C 	0.7193	0.06065	0.872	0.596
Mof_C 	C 	0.7444	0.05028	0.872	-0.731
Mof_H 	H 	0.7469	0.0324	0.87	0.257
Mof_C 	C 	0.7659	0.0667	0.87493	0.689
Mof_C 	C 	0.76224	0.0935	0.87785	-0.73
Mof_H 	H 	0.7766	0.1044	0.8798	0.24
Mof_C 	C 	0.7371	0.10383	0.87784	0.586
Mof_C 	C 	0.696	0.04282	0.86883	-1.101
Mof_H 	H 	0.7019	0.0251	0.8671	0.334
Mof_H 	H 	0.6849	0.0443	0.8839	0.333
Mof_H 	H 	0.6864	0.0478	0.8535	0.336
Mof_C 	C 	0.7932	0.0554	0.87494	-1.206
Mof_H 	H 	0.7923	0.0368	0.8728	0.369
Mof_H 	H 	0.8031	0.0629	0.8608	0.359
Mof_H 	H 	0.8016	0.0594	0.8913	0.354
Mof_C 	C 	0.7332	0.13291	0.88101	-1.081
Mof_H 	H 	0.7498	0.1413	0.8828	0.318
Mof_H 	H 	0.7243	0.1397	0.8659	0.321
Mof_H 	H 	0.7228	0.1362	0.8963	0.327
Mof_Zn	Zn	0.6207	0.6176	0.37485	0.837
Mof_N 	N 	0.65295	0.61333	0.34655	-0.339
Mof_C 	C 	0.648	0.61536	0.3193	0.062
Mof_C 	C 	0.67041	0.60608	0.3058	-0.118
Mof_H 	H 	0.6724	0.6052	0.2877	0.056
Mof_C 	C 	0.68921	0.59831	0.3247	-0.055
Mof_H 	H 	0.7057	0.5915	0.3212	0.027
Mof_C 	C 	0.67842	0.6028	0.34988	-0.014
Mof_C 	C 	0.68859	0.5986	0.37491	0.033
Mof_N 	N 	0.65283	0.61341	0.40328	-0.338
Mof_C 	C 	0.67829	0.6029	0.3998	-0.013
Mof_C 	C 	0.68922	0.59841	0.42492	-0.051
Mof_H 	H 	0.7057	0.5916	0.4283	0.031
Mof_C 	C 	0.67052	0.60614	0.44393	-0.112
Mof_H 	H 	0.6726	0.6053	0.462	0.059
Mof_C 	C 	0.64803	0.61542	0.43055	0.069
Mof_C 	C 	0.6403	0.6428	0.26525	-0.219
Mof_H 	H 	0.6505	0.6548	0.2743	0.082
Mof_C 	C 	0.6402	0.6427	0.23807	0.118
Mof_H 	H 	0.6504	0.6547	0.2289	-0.014
Mof_O 	O 	0.6393	0.6407	0.18301	-0.536
Mof_C 	C 	0.6129	0.6048	0.48441	-0.203
Mof_H 	H 	0.6048	0.5913	0.4753	0.084
Mof_C 	C 	0.6128	0.6047	0.51159	0.104
Mof_H 	H 	0.6047	0.5911	0.5206	-0.006
Mof_O 	O 	0.6108	0.6091	0.56687	-0.531
Mof_C 	C 	0.71565	0.58741	0.37492	-0.442
Mof_C 	C 	0.7193	0.56065	0.372	0.596
Mof_C 	C 	0.7444	0.55028	0.372	-0.731
Mof_H 	H 	0.7469	0.5324	0.37	0.257
Mof_C 	C 	0.7659	0.5667	0.37493	0.689
Mof_C 	C 	0.76224	0.5935	0.37785	-0.73
Mof_H 	H 	0.7766	0.6044	0.3798	0.24
Mof_C 	C 	0.7371	0.60383	0.37784	0.586
Mof_C 	C 	0.696	0.54282	0.36883	-1.101
Mof_H 	H 	0.7019	0.5251	0.3671	0.334
Mof_H 	H 	0.6849	0.5443	0.3839	0.333
Mof_H 	H 	0.6864	0.5478	0.3535	0.336
Mof_C 	C 	0.7932	0.5554	0.37494	-1.206
Mof_H 	H 	0.7923	0.5368	0.3728	0.369
Mof_H 	H 	0.8031	0.5629	0.3608	0.359
Mof_H 	H 	0.8016	0.5594	0.3913	0.354
Mof_C 	C 	0.7332	0.63291	0.38101	-1.081
Mof_H 	H 	0.7498	0.6413	0.3828	0.318
Mof_H 	H 	0.7243	0.6397	0.3659	0.321
Mof_H 	H 	0.7228	0.6362	0.3963	0.327
Mof_Zn	Zn	0.1207	0.1176	0.37485	0.837
Mof_N 	N 	0.15295	0.11333	0.34655	-0.339
Mof_C 	C 	0.148	0.11536	0.3193	0.062
Mof_C 	C 	0.17041	0.10608	0.3058	-0.118
Mof_H 	H 	0.1724	0.1052	0.2877	0.056
Mof_C 	C 	0.18921	0.09831	0.3247	-0.055
Mof_H 	H 	0.2057	0.0915	0.3212	0.027
Mof_C 	C 	0.17842	0.1028	0.34988	-0.014
Mof_C 	C 	0.18859	0.0986	0.37491	0.033
Mof_N 	N 	0.15283	0.11341	0.40328	-0.338
Mof_C 	C 	0.17829	0.1029	0.3998	-0.013
Mof_C 	C 	0.18922	0.09841	0.42492	-0.051
Mof_H 	H 	0.2057	0.0916	0.4283	0.031
Mof_C 	C 	0.17052	0.10614	0.44393	-0.112
Mof_H 	H 	0.1726	0.1053	0.462	0.059
Mof_C 	C 	0.14803	0.11542	0.43055	0.069
Mof_C 	C 	0.1403	0.1428	0.26525	-0.219
Mof_H 	H 	0.1505	0.1548	0.2743	0.082
Mof_C 	C 	0.1402	0.1427	0.23807	0.118
Mof_H 	H 	0.1504	0.1547	0.2289	-0.014
Mof_O 	O 	0.1393	0.1407	0.18301	-0.536
Mof_C 	C 	0.1129	0.1048	0.48441	-0.203
Mof_H 	H 	0.1048	0.0913	0.4753	0.084
Mof_C 	C 	0.1128	0.1047	0.51159	0.104
Mof_H 	H 	0.1047	0.0911	0.5206	-0.006
Mof_O 	O 	0.1108	0.1091	0.56687	-0.531
Mof_C 	C 	0.21565	0.08741	0.37492	-0.442
Mof_C 	C 	0.2193	0.06065	0.372	0.596
Mof_C 	C 	0.2444	0.05028	0.372	-0.731
Mof_H 	H 	0.2469	0.0324	0.37	0.257
Mof_C 	C 	0.2659	0.0667	0.37493	0.689
Mof_C 	C 	0.26224	0.0935	0.37785	-0.73
Mof_H 	H 	0.2766	0.1044	0.3798	0.24
Mof_C 	C 	0.2371	0.10383	0.37784	0.586
Mof_C 	C 	0.196	0.04282	0.36883	-1.101
Mof_H 	H 	0.2019	0.0251	0.3671	0.334
Mof_H 	H 	0.1849	0.0443	0.3839	0.333
Mof_H 	H 	0.1864	0.0478	0.3535	0.336
Mof_C 	C 	0.2932	0.0554	0.37494	-1.206
Mof_H 	H 	0.2923	0.0368	0.3728	0.369
Mof_H 	H 	0.3031	0.0629	0.3608	0.359
Mof_H 	H 	0.3016	0.0594	0.3913	0.354
Mof_C 	C 	0.2332	0.13291	0.38101	-1.081
Mof_H 	H 	0.2498	0.1413	0.3828	0.318
Mof_H 	H 	0.2243	0.1397	0.3659	0.321
Mof_H 	H 	0.2228	0.1362	0.3963	0.327
Mof_Zn	Zn	0.1207	0.6176	0.87485	0.837
Mof_N 	N 	0.15295	0.61333	0.84655	-0.339
Mof_C 	C 	0.148	0.61536	0.8193	0.062
Mof_C 	C 	0.17041	0.60608	0.8058	-0.118
Mof_H 	H 	0.1724	0.6052	0.7877	0.056
Mof_C 	C 	0.18921	0.59831	0.8247	-0.055
Mof_H 	H 	0.2057	0.5915	0.8212	0.027
Mof_C 	C 	0.17842	0.6028	0.84988	-0.014
Mof_C 	C 	0.18859	0.5986	0.87491	0.033
Mof_N 	N 	0.15283	0.61341	0.90328	-0.338
Mof_C 	C 	0.17829	0.6029	0.8998	-0.013
Mof_C 	C 	0.18922	0.59841	0.92492	-0.051
Mof_H 	H 	0.2057	0.5916	0.9283	0.031
Mof_C 	C 	0.17052	0.60614	0.94393	-0.112
Mof_H 	H 	0.1726	0.6053	0.962	0.059
Mof_C 	C 	0.14803	0.61542	0.93055	0.069
Mof_C 	C 	0.1403	0.6428	0.76525	-0.219
Mof_H 	H 	0.1505	0.6548	0.7743	0.082
Mof_C 	C 	0.1402	0.6427	0.73807	0.118
Mof_H 	H 	0.1504	0.6547	0.7289	-0.014
Mof_O 	O 	0.1393	0.6407	0.68301	-0.536
Mof_C 	C 	0.1129	0.6048	0.98441	-0.203
Mof_H 	H 	0.1048	0.5913	0.9753	0.084
Mof_C 	C 	0.1128	0.6047	0.01159	0.104
Mof_H 	H 	0.1047	0.5911	0.0206	-0.006
Mof_O 	O 	0.1108	0.6091	0.06687	-0.531
Mof_C 	C 	0.21565	0.58741	0.87492	-0.442
Mof_C 	C 	0.2193	0.56065	0.872	0.596
Mof_C 	C 	0.2444	0.55028	0.872	-0.731
Mof_H 	H 	0.2469	0.5324	0.87	0.257
Mof_C 	C 	0.2659	0.5667	0.87493	0.689
Mof_C 	C 	0.26224	0.5935	0.87785	-0.73
Mof_H 	H 	0.2766	0.6044	0.8798	0.24
Mof_C 	C 	0.2371	0.60383	0.87784	0.586
Mof_C 	C 	0.196	0.54282	0.86883	-1.101
Mof_H 	H 	0.2019	0.5251	0.8671	0.334
Mof_H 	H 	0.1849	0.5443	0.8839	0.333
Mof_H 	H 	0.1864	0.5478	0.8535	0.336
Mof_C 	C 	0.2932	0.5554	0.87494	-1.206
Mof_H 	H 	0.2923	0.5368	0.8728	0.369
Mof_H 	H 	0.3031	0.5629	0.8608	0.359
Mof_H 	H 	0.3016	0.5594	0.8913	0.354
Mof_C 	C 	0.2332	0.63291	0.88101	-1.081
Mof_H 	H 	0.2498	0.6413	0.8828	0.318
Mof_H 	H 	0.2243	0.6397	0.8659	0.321
Mof_H 	H 	0.2228	0.6362	0.8963	0.327
Mof_O 	O 	0.625	0.125	0.625	-0.967
Mof_O 	O 	0.125	0.625	0.625	-0.967
Mof_O 	O 	0.125	0.125	0.125	-0.967
Mof_O 	O 	0.625	0.625	0.125	-0.967
Mof_Zn	Zn	0.64672	0.10328	0.60328	1.22
Mof_Zn	Zn	0.10328	0.64672	0.60328	1.22
Mof_Zn	Zn	0.10328	0.10328	0.14672	1.22
Mof_Zn	Zn	0.64672	0.64672	0.14672	1.22
Mof_Zn	Zn	0.60328	0.64672	0.10328	1.22
Mof_Zn	Zn	0.60328	0.14672	0.60328	1.22
Mof_Zn	Zn	0.60328	0.10328	0.64672	1.22
Mof_Zn	Zn	0.60328	0.60328	0.14672	1.22
Mof_Zn	Zn	0.14672	0.10328	0.10328	1.22
Mof_Zn	Zn	0.14672	0.60328	0.60328	1.22
Mof_Zn	Zn	0.14672	0.64672	0.64672	1.22
Mof_Zn	Zn	0.14672	0.14672	0.14672	1.22
Mof_Zn	Zn	0.10328	0.60328	0.64672	1.22
Mof_Zn	Zn	0.64672	0.60328	0.10328	1.22
Mof_Zn	Zn	0.10328	0.14672	0.10328	1.22
Mof_Zn	Zn	0.64672	0.14672	0.64672	1.22
Mof_O 	O 	0.125	0.125	0.625	-0.951
Mof_O 	O 	0.625	0.625	0.625	-0.951
Mof_O 	O 	0.625	0.125	0.125	-0.951
Mof_O 	O 	0.125	0.625	0.125	-0.951
Mof_Zn	Zn	0.10308	0.14692	0.64692	1.219
Mof_Zn	Zn	0.64692	0.60308	0.64692	1.219
Mof_Zn	Zn	0.64692	0.14692	0.10308	1.219
Mof_Zn	Zn	0.10308	0.60308	0.10308	1.219
Mof_Zn	Zn	0.64692	0.10308	0.14692	1.219
Mof_Zn	Zn	0.64692	0.64692	0.60308	1.219
Mof_Zn	Zn	0.10308	0.64692	0.14692	1.219
Mof_Zn	Zn	0.10308	0.10308	0.60308	1.219
Mof_Zn	Zn	0.14692	0.64692	0.10308	1.219
Mof_Zn	Zn	0.14692	0.14692	0.60308	1.219
Mof_Zn	Zn	0.60308	0.64692	0.64692	1.219
Mof_Zn	Zn	0.60308	0.14692	0.14692	1.219
Mof_Zn	Zn	0.14692	0.10308	0.64692	1.219
Mof_Zn	Zn	0.14692	0.60308	0.14692	1.219
Mof_Zn	Zn	0.60308	0.10308	0.10308	1.219
Mof_Zn	Zn	0.60308	0.60308	0.60308	1.219
Mof_C 	C 	0.8082	0.125	0.625	-0.193
Mof_C 	C 	0.94157	0.125	0.625	-0.187
Mof_C 	C 	0.77895	0.125	0.625	0.157
Mof_C 	C 	0.7246	0.125	0.625	-0.212
Mof_C 	C 	0.6952	0.125	0.625	0.448
Mof_C 	C 	0.97092	0.125	0.625	0.151
Mof_C 	C 	0.02527	0.125	0.625	-0.192
Mof_C 	C 	0.0547	0.125	0.625	0.438
Mof_C 	C 	0.3082	0.125	0.125	-0.193
Mof_C 	C 	0.44157	0.125	0.125	-0.187
Mof_C 	C 	0.27895	0.125	0.125	0.157
Mof_C 	C 	0.2246	0.125	0.125	-0.212
Mof_C 	C 	0.1952	0.125	0.125	0.448
Mof_C 	C 	0.47092	0.125	0.125	0.151
Mof_C 	C 	0.52527	0.125	0.125	-0.192
Mof_C 	C 	0.5547	0.125	0.125	0.438
Mof_C 	C 	0.9418	0.625	0.625	-0.193
Mof_C 	C 	0.80843	0.625	0.625	-0.187
Mof_C 	C 	0.97105	0.625	0.625	0.157
Mof_C 	C 	0.0254	0.625	0.625	-0.212
Mof_C 	C 	0.0548	0.625	0.625	0.448
Mof_C 	C 	0.77908	0.625	0.625	0.151
Mof_C 	C 	0.72473	0.625	0.625	-0.192
Mof_C 	C 	0.6953	0.625	0.625	0.438
Mof_C 	C 	0.4418	0.625	0.125	-0.193
Mof_C 	C 	0.30843	0.625	0.125	-0.187
Mof_C 	C 	0.47105	0.625	0.125	0.157
Mof_C 	C 	0.5254	0.625	0.125	-0.212
Mof_C 	C 	0.5548	0.625	0.125	0.448
Mof_C 	C 	0.27908	0.625	0.125	0.151
Mof_C 	C 	0.22473	0.625	0.125	-0.192
Mof_C 	C 	0.1953	0.625	0.125	0.438
Mof_C 	C 	0.9418	0.125	0.125	-0.193
Mof_C 	C 	0.80843	0.125	0.125	-0.187
Mof_C 	C 	0.97105	0.125	0.125	0.157
Mof_C 	C 	0.0254	0.125	0.125	-0.212
Mof_C 	C 	0.0548	0.125	0.125	0.448
Mof_C 	C 	0.77908	0.125	0.125	0.151
Mof_C 	C 	0.72473	0.125	0.125	-0.192
Mof_C 	C 	0.6953	0.125	0.125	0.438
Mof_C 	C 	0.4418	0.125	0.625	-0.193
Mof_C 	C 	0.30843	0.125	0.625	-0.187
Mof_C 	C 	0.47105	0.125	0.625	0.157
Mof_C 	C 	0.5254	0.125	0.625	-0.212
Mof_C 	C 	0.5548	0.125	0.625	0.448
Mof_C 	C 	0.27908	0.125	0.625	0.151
Mof_C 	C 	0.22473	0.125	0.625	-0.192
Mof_C 	C 	0.1953	0.125	0.625	0.438
Mof_C 	C 	0.8082	0.625	0.125	-0.193
Mof_C 	C 	0.94157	0.625	0.125	-0.187
Mof_C 	C 	0.77895	0.625	0.125	0.157
Mof_C 	C 	0.7246	0.625	0.125	-0.212
Mof_C 	C 	0.6952	0.625	0.125	0.448
Mof_C 	C 	0.97092	0.625	0.125	0.151
Mof_C 	C 	0.02527	0.625	0.125	-0.192
Mof_C 	C 	0.0547	0.625	0.125	0.438
Mof_C 	C 	0.3082	0.625	0.625	-0.193
Mof_C 	C 	0.44157	0.625	0.625	-0.187
Mof_C 	C 	0.27895	0.625	0.625	0.157
Mof_C 	C 	0.2246	0.625	0.625	-0.212
Mof_C 	C 	0.1952	0.625	0.625	0.448
Mof_C 	C 	0.47092	0.625	0.625	0.151
Mof_C 	C 	0.52527	0.625	0.625	-0.192
Mof_C 	C 	0.5547	0.625	0.625	0.438
Mof_C 	C 	0.625	0.8082	0.125	-0.193
Mof_C 	C 	0.625	0.94157	0.125	-0.187
Mof_C 	C 	0.625	0.77895	0.125	0.157
Mof_C 	C 	0.625	0.7246	0.125	-0.212
Mof_C 	C 	0.625	0.6952	0.125	0.448
Mof_C 	C 	0.625	0.97092	0.125	0.151
Mof_C 	C 	0.625	0.02527	0.125	-0.192
Mof_C 	C 	0.625	0.0547	0.125	0.438
Mof_C 	C 	0.625	0.3082	0.625	-0.193
Mof_C 	C 	0.625	0.44157	0.625	-0.187
Mof_C 	C 	0.625	0.27895	0.625	0.157
Mof_C 	C 	0.625	0.2246	0.625	-0.212
Mof_C 	C 	0.625	0.1952	0.625	0.448
Mof_C 	C 	0.625	0.47092	0.625	0.151
Mof_C 	C 	0.625	0.52527	0.625	-0.192
Mof_C 	C 	0.625	0.5547	0.625	0.438
Mof_C 	C 	0.625	0.9418	0.625	-0.193
Mof_C 	C 	0.625	0.80843	0.625	-0.187
Mof_C 	C 	0.625	0.97105	0.625	0.157
Mof_C 	C 	0.625	0.0254	0.625	-0.212
Mof_C 	C 	0.625	0.0548	0.625	0.448
Mof_C 	C 	0.625	0.77908	0.625	0.151
Mof_C 	C 	0.625	0.72473	0.625	-0.192
Mof_C 	C 	0.625	0.6953	0.625	0.438
Mof_C 	C 	0.625	0.4418	0.125	-0.193
Mof_C 	C 	0.625	0.30843	0.125	-0.187
Mof_C 	C 	0.625	0.47105	0.125	0.157
Mof_C 	C 	0.625	0.5254	0.125	-0.212
Mof_C 	C 	0.625	0.5548	0.125	0.448
Mof_C 	C 	0.625	0.27908	0.125	0.151
Mof_C 	C 	0.625	0.22473	0.125	-0.192
Mof_C 	C 	0.625	0.1953	0.125	0.438
Mof_C 	C 	0.125	0.9418	0.125	-0.193
Mof_C 	C 	0.125	0.80843	0.125	-0.187
Mof_C 	C 	0.125	0.97105	0.125	0.157
Mof_C 	C 	0.125	0.0254	0.125	-0.212
Mof_C 	C 	0.125	0.0548	0.125	0.448
Mof_C 	C 	0.125	0.77908	0.125	0.151
Mof_C 	C 	0.125	0.72473	0.125	-0.192
Mof_C 	C 	0.125	0.6953	0.125	0.438
Mof_C 	C 	0.125	0.4418	0.625	-0.193
Mof_C 	C 	0.125	0.30843	0.625	-0.187
Mof_C 	C 	0.125	0.47105	0.625	0.157
Mof_C 	C 	0.125	0.5254	0.625	-0.212
Mof_C 	C 	0.125	0.5548	0.625	0.448
Mof_C 	C 	0.125	0.27908	0.625	0.151
Mof_C 	C 	0.125	0.22473	0.625	-0.192
Mof_C 	C 	0.125	0.1953	0.625	0.438
Mof_C 	C 	0.125	0.8082	0.625	-0.193
Mof_C 	C 	0.125	0.94157	0.625	-0.187
Mof_C 	C 	0.125	0.77895	0.625	0.157
Mof_C 	C 	0.125	0.7246	0.625	-0.212
Mof_C 	C 	0.125	0.6952	0.625	0.448
Mof_C 	C 	0.125	0.97092	0.625	0.151
Mof_C 	C 	0.125	0.02527	0.625	-0.192
Mof_C 	C 	0.125	0.0547	0.625	0.438
Mof_C 	C 	0.125	0.3082	0.125	-0.193
Mof_C 	C 	0.125	0.44157	0.125	-0.187
Mof_C 	C 	0.125	0.27895	0.125	0.157
Mof_C 	C 	0.125	0.2246	0.125	-0.212
Mof_C 	C 	0.125	0.1952	0.125	0.448
Mof_C 	C 	0.125	0.47092	0.125	0.151
Mof_C 	C 	0.125	0.52527	0.125	-0.192
Mof_C 	C 	0.125	0.5547	0.125	0.438
Mof_C 	C 	0.125	0.625	0.8082	-0.193
Mof_C 	C 	0.125	0.625	0.94157	-0.187
Mof_C 	C 	0.125	0.625	0.77895	0.157
Mof_C 	C 	0.125	0.625	0.7246	-0.212
Mof_C 	C 	0.125	0.625	0.6952	0.448
Mof_C 	C 	0.125	0.625	0.97092	0.151
Mof_C 	C 	0.125	0.625	0.02527	-0.192
Mof_C 	C 	0.125	0.625	0.0547	0.438
Mof_C 	C 	0.125	0.125	0.3082	-0.193
Mof_C 	C 	0.125	0.125	0.44157	-0.187
Mof_C 	C 	0.125	0.125	0.27895	0.157
Mof_C 	C 	0.125	0.125	0.2246	-0.212
Mof_C 	C 	0.125	0.125	0.1952	0.448
Mof_C 	C 	0.125	0.125	0.47092	0.151
Mof_C 	C 	0.125	0.125	0.52527	-0.192
Mof_C 	C 	0.125	0.125	0.5547	0.438
Mof_C 	C 	0.625	0.625	0.9418	-0.193
Mof_C 	C 	0.625	0.625	0.80843	-0.187
Mof_C 	C 	0.625	0.625	0.97105	0.157
Mof_C 	C 	0.625	0.625	0.0254	-0.212
Mof_C 	C 	0.625	0.625	0.0548	0.448
Mof_C 	C 	0.625	0.625	0.77908	0.151
Mof_C 	C 	0.625	0.625	0.72473	-0.192
Mof_C 	C 	0.625	0.625	0.6953	0.438
Mof_C 	C 	0.625	0.125	0.4418	-0.193
Mof_C 	C 	0.625	0.125	0.30843	-0.187
Mof_C 	C 	0.625	0.125	0.47105	0.157
Mof_C 	C 	0.625	0.125	0.5254	-0.212
Mof_C 	C 	0.625	0.125	0.5548	0.448
Mof_C 	C 	0.625	0.125	0.27908	0.151
Mof_C 	C 	0.625	0.125	0.22473	-0.192
Mof_C 	C 	0.625	0.125	0.1953	0.438
Mof_C 	C 	0.125	0.125	0.9418	-0.193
Mof_C 	C 	0.125	0.125	0.80843	-0.187
Mof_C 	C 	0.125	0.125	0.97105	0.157
Mof_C 	C 	0.125	0.125	0.0254	-0.212
Mof_C 	C 	0.125	0.125	0.0548	0.448
Mof_C 	C 	0.125	0.125	0.77908	0.151
Mof_C 	C 	0.125	0.125	0.72473	-0.192
Mof_C 	C 	0.125	0.125	0.6953	0.438
Mof_C 	C 	0.125	0.625	0.4418	-0.193
Mof_C 	C 	0.125	0.625	0.30843	-0.187
Mof_C 	C 	0.125	0.625	0.47105	0.157
Mof_C 	C 	0.125	0.625	0.5254	-0.212
Mof_C 	C 	0.125	0.625	0.5548	0.448
Mof_C 	C 	0.125	0.625	0.27908	0.151
Mof_C 	C 	0.125	0.625	0.22473	-0.192
Mof_C 	C 	0.125	0.625	0.1953	0.438
Mof_C 	C 	0.625	0.125	0.8082	-0.193
Mof_C 	C 	0.625	0.125	0.94157	-0.187
Mof_C 	C 	0.625	0.125	0.77895	0.157
Mof_C 	C 	0.625	0.125	0.7246	-0.212
Mof_C 	C 	0.625	0.125	0.6952	0.448
Mof_C 	C 	0.625	0.125	0.97092	0.151
Mof_C 	C 	0.625	0.125	0.02527	-0.192
Mof_C 	C 	0.625	0.125	0.0547	0.438
Mof_C 	C 	0.625	0.625	0.3082	-0.193
Mof_C 	C 	0.625	0.625	0.44157	-0.187
Mof_C 	C 	0.625	0.625	0.27895	0.157
Mof_C 	C 	0.625	0.625	0.2246	-0.212
Mof_C 	C 	0.625	0.625	0.1952	0.448
Mof_C 	C 	0.625	0.625	0.47092	0.151
Mof_C 	C 	0.625	0.625	0.52527	-0.192
Mof_C 	C 	0.625	0.625	0.5547	0.438
_end
