data_functionalizedCrystal
_audit_creation_method	'EQeq! by Chris Wilmer'
_symmetry_space_group_name_H-M	'P1'
_symmetry_Int_Tables_number	1
_symmetry_cell_setting	triclinic
loop_
_symmetry_equiv_pos_as_xyz
  x,y,z
_cell_length_a	9.9023
_cell_length_b	11.339
_cell_length_c	14.8766
_cell_angle_alpha	90.9594
_cell_angle_beta	90
_cell_angle_gamma	90
loop_
_atom_site_label
_atom_site_type_symbol
_atom_site_fract_x
_atom_site_fract_y
_atom_site_fract_z
_atom_site_charge
Mof_Fe	Fe	0.92069	0.75484	0.13363	1.013
Mof_Fe	Fe	0.88923	0.262	0.69097	0.951
Mof_Fe	Fe	0.42069	0.74516	0.36637	0.927
Mof_Fe	Fe	0.38923	0.238	0.80903	0.911
Mof_Fe	Fe	0.07931	0.24516	0.86637	0.823
Mof_Fe	Fe	0.11077	0.738	0.30903	0.888
Mof_Fe	Fe	0.57931	0.25484	0.63363	0.911
Mof_Fe	Fe	0.61077	0.762	0.19097	0.926
Mof_Fe	Fe	-0	0.5	-0	0.752
Mof_Fe	Fe	0.5	0	0.5	0.875
Mof_Fe	Fe	-0	0	-0	0.69
Mof_Fe	Fe	0.5	0.5	0.5	0.957
Mof_H 	H 	0.757	0.8651	0.3691	-0.062
Mof_H 	H 	0.036	0.469	0.267	-0.084
Mof_H 	H 	0.613	0.552	0.051	-0.095
Mof_H 	H 	0.214	0.975	0.217	-0.119
Mof_H 	H 	0.152	0.6957	0.9307	-0.146
Mof_H 	H 	0.709	0.991	0.011	-0.085
Mof_H 	H 	0.257	0.6349	0.1309	-0.091
Mof_H 	H 	0.536	0.031	0.233	-0.149
Mof_H 	H 	0.113	0.948	0.449	-0.078
Mof_H 	H 	0.714	0.525	0.283	-0.095
Mof_H 	H 	0.652	0.8043	0.5693	-0.105
Mof_H 	H 	0.209	0.509	0.489	-0.102
Mof_H 	H 	0.243	0.1349	0.6309	-0.091
Mof_H 	H 	0.964	0.531	0.733	-0.039
Mof_H 	H 	0.387	0.448	0.949	-0.05
Mof_H 	H 	0.786	0.025	0.783	-0.073
Mof_H 	H 	0.848	0.3043	0.0693	-0.062
Mof_H 	H 	0.291	0.009	0.989	-0.072
Mof_H 	H 	0.743	0.3651	0.8691	-0.058
Mof_H 	H 	0.464	0.969	0.767	0.024
Mof_H 	H 	0.887	0.052	0.551	-0.071
Mof_H 	H 	0.286	0.475	0.717	-0.112
Mof_H 	H 	0.348	0.1957	0.4307	-0.137
Mof_H 	H 	0.791	0.491	0.511	-0.08
Mof_C 	C 	0.8295	0.83106	0.32976	0.445
Mof_C 	C 	0.021	0.5146	0.2091	0.447
Mof_C 	C 	0.7106	0.5712	0.0549	0.46
Mof_C 	C 	0.137	0.9503	0.1817	0.568
Mof_C 	C 	0.1008	0.743	0.9674	0.631
Mof_C 	C 	0.7206	0.93092	0.05442	0.469
Mof_C 	C 	0.3295	0.66894	0.17024	0.447
Mof_C 	C 	0.521	0.9854	0.2909	0.607
Mof_C 	C 	0.2106	0.9288	0.4451	0.451
Mof_C 	C 	0.637	0.5497	0.3183	0.486
Mof_C 	C 	0.6008	0.757	0.5326	0.526
Mof_C 	C 	0.2206	0.56908	0.44558	0.488
Mof_C 	C 	0.1705	0.16894	0.67024	0.446
Mof_C 	C 	0.979	0.4854	0.7909	0.415
Mof_C 	C 	0.2894	0.4288	0.9451	0.432
Mof_C 	C 	0.863	0.0497	0.8183	0.371
Mof_C 	C 	0.8992	0.257	0.0326	0.364
Mof_C 	C 	0.2794	0.06908	0.94558	0.464
Mof_C 	C 	0.6705	0.33106	0.82976	0.442
Mof_C 	C 	0.479	0.0146	0.7091	0.269
Mof_C 	C 	0.7894	0.0712	0.5549	0.458
Mof_C 	C 	0.363	0.4503	0.6817	0.494
Mof_C 	C 	0.3992	0.243	0.4674	0.542
Mof_C 	C 	0.7794	0.43092	0.55442	0.481
Mof_O 	O 	0.80166	0.81001	0.24741	-0.447
Mof_O 	O 	0.94005	0.81283	0.36693	-0.33
Mof_O 	O 	0.00565	0.62494	0.21714	-0.49
Mof_O 	O 	0.0103	0.45638	0.13798	-0.396
Mof_O 	O 	0.74227	0.65142	0.11192	-0.46
Mof_O 	O 	0.78965	0.5146	0.0063	-0.377
Mof_O 	O 	0.08618	0.84928	0.19408	-0.513
Mof_O 	O 	0.11119	0.01753	0.12003	-0.462
Mof_O 	O 	0.02586	0.68641	0.02261	-0.562
Mof_O 	O 	0.11017	0.85003	0.96143	-0.37
Mof_O 	O 	0.84297	0.89748	0.06256	-0.426
Mof_O 	O 	0.62224	0.89427	0.09707	-0.386
Mof_O 	O 	0.30166	0.68999	0.25259	-0.456
Mof_O 	O 	0.44005	0.68717	0.13307	-0.392
Mof_O 	O 	0.50565	0.87506	0.28286	-0.494
Mof_O 	O 	0.5103	0.04362	0.36202	-0.446
Mof_O 	O 	0.24227	0.84858	0.38808	-0.454
Mof_O 	O 	0.28965	0.9854	0.4937	-0.344
Mof_O 	O 	0.58618	0.65072	0.30592	-0.468
Mof_O 	O 	0.61119	0.48247	0.37997	-0.388
Mof_O 	O 	0.52586	0.81359	0.47739	-0.457
Mof_O 	O 	0.61017	0.64997	0.53857	-0.403
Mof_O 	O 	0.34297	0.60252	0.43744	-0.47
Mof_O 	O 	0.12224	0.60573	0.40293	-0.407
Mof_O 	O 	0.19834	0.18999	0.75259	-0.466
Mof_O 	O 	0.05995	0.18717	0.63307	-0.427
Mof_O 	O 	0.99435	0.37506	0.78286	-0.411
Mof_O 	O 	0.9897	0.54362	0.86202	-0.282
Mof_O 	O 	0.25773	0.34858	0.88808	-0.443
Mof_O 	O 	0.21035	0.4854	0.9937	-0.318
Mof_O 	O 	0.91382	0.15072	0.80592	-0.404
Mof_O 	O 	0.88881	0.98247	0.87997	-0.227
Mof_O 	O 	0.97414	0.31359	0.97739	-0.307
Mof_O 	O 	0.88983	0.14997	0.03857	-0.346
Mof_O 	O 	0.15703	0.10252	0.93744	-0.428
Mof_O 	O 	0.37776	0.10573	0.90293	-0.384
Mof_O 	O 	0.69834	0.31001	0.74741	-0.456
Mof_O 	O 	0.55995	0.31283	0.86693	-0.363
Mof_O 	O 	0.49435	0.12494	0.71714	-0.417
Mof_O 	O 	0.4897	0.95638	0.63798	-0.272
Mof_O 	O 	0.75773	0.15142	0.61192	-0.457
Mof_O 	O 	0.71035	0.0146	0.5063	-0.391
Mof_O 	O 	0.41382	0.34928	0.69408	-0.472
Mof_O 	O 	0.38881	0.51753	0.62003	-0.393
Mof_O 	O 	0.47414	0.18641	0.52261	-0.476
Mof_O 	O 	0.38983	0.35003	0.46143	-0.419
Mof_O 	O 	0.65703	0.39748	0.56256	-0.463
Mof_O 	O 	0.87776	0.39427	0.59707	-0.375
_end
