data_functionalizedCrystal
_audit_creation_method	'EQeq! by Chris Wilmer'
_symmetry_space_group_name_H-M	'P1'
_symmetry_Int_Tables_number	1
_symmetry_cell_setting	triclinic
loop_
_symmetry_equiv_pos_as_xyz
  x,y,z
_cell_length_a	19.3411
_cell_length_b	19.3411
_cell_length_c	37.8517
_cell_angle_alpha	90
_cell_angle_beta	90
_cell_angle_gamma	120
loop_
_atom_site_label
_atom_site_type_symbol
_atom_site_fract_x
_atom_site_fract_y
_atom_site_fract_z
_atom_site_charge
Mof_O 	O 	0.219	0.2917	0.8703	-0.482
Mof_O 	O 	0.182	0.21751	0.82129	-0.446
Mof_H 	H 	0.3403	0.1298	0.9595	0.096
Mof_C 	C 	0.2745	0.1996	0.90058	-0.097
Mof_H 	H 	0.2875	0.2477	0.9114	0.082
Mof_C 	C 	0.2365	0.18	0.86837	-0.048
Mof_C 	C 	0.2105	0.2342	0.85185	0.376
Mof_N 	N 	0.3986	0.2044	0.07988	-0.097
Mof_C 	C 	0.4095	0.2755	0.06577	-0.648
Mof_H 	H 	0.4239	0.3192	0.0804	0.239
Mof_C 	C 	0.3987	0.2811	0.0298	-0.316
Mof_H 	H 	0.406	0.3287	0.0204	0.185
Mof_C 	C 	0.3772	0.2157	0.00793	-0.462
Mof_C 	C 	0.3663	0.1446	0.02204	0.556
Mof_H 	H 	0.3519	0.1008	0.0074	0.014
Mof_C 	C 	0.377	0.1389	0.05801	0.378
Mof_H 	H 	0.3698	0.0914	0.0674	0.136
Mof_O 	O 	0.3821	0.3124	0.9589	-0.182
Mof_C 	C 	0.3566	0.2276	0.9695	0.137
Mof_O 	O 	0.88567	0.62503	0.20363	-0.48
Mof_O 	O 	0.84867	0.55084	0.15462	-0.445
Mof_H 	H 	0.00697	0.46313	0.29283	0.096
Mof_C 	C 	0.94117	0.53293	0.23391	-0.097
Mof_H 	H 	0.95417	0.58103	0.24473	0.083
Mof_C 	C 	0.90317	0.51333	0.2017	-0.048
Mof_C 	C 	0.87717	0.56753	0.18518	0.376
Mof_N 	N 	0.06527	0.53773	0.41321	-0.097
Mof_C 	C 	0.07617	0.60883	0.3991	-0.647
Mof_H 	H 	0.09057	0.65253	0.41373	0.239
Mof_C 	C 	0.06537	0.61443	0.36313	-0.316
Mof_H 	H 	0.07267	0.66203	0.35373	0.184
Mof_C 	C 	0.04387	0.54903	0.34126	-0.462
Mof_C 	C 	0.03297	0.47793	0.35537	0.556
Mof_H 	H 	0.01857	0.43413	0.34073	0.014
Mof_C 	C 	0.04367	0.47223	0.39134	0.378
Mof_H 	H 	0.03647	0.42473	0.40073	0.135
Mof_O 	O 	0.04877	0.64573	0.29223	-0.182
Mof_C 	C 	0.02327	0.56093	0.30283	0.137
Mof_O 	O 	0.55233	0.95837	0.53697	-0.48
Mof_O 	O 	0.51533	0.88418	0.48796	-0.445
Mof_H 	H 	0.67363	0.79647	0.62617	0.096
Mof_C 	C 	0.60783	0.86627	0.56725	-0.097
Mof_H 	H 	0.62083	0.91437	0.57807	0.082
Mof_C 	C 	0.56983	0.84667	0.53504	-0.048
Mof_C 	C 	0.54383	0.90087	0.51852	0.376
Mof_N 	N 	0.73193	0.87107	0.74655	-0.097
Mof_C 	C 	0.74283	0.94217	0.73244	-0.647
Mof_H 	H 	0.75723	0.98587	0.74707	0.239
Mof_C 	C 	0.73203	0.94777	0.69647	-0.316
Mof_H 	H 	0.73933	0.99537	0.68707	0.185
Mof_C 	C 	0.71053	0.88237	0.6746	-0.462
Mof_C 	C 	0.69963	0.81127	0.68871	0.556
Mof_H 	H 	0.68523	0.76747	0.67407	0.014
Mof_C 	C 	0.71033	0.80557	0.72468	0.378
Mof_H 	H 	0.70313	0.75807	0.73407	0.135
Mof_O 	O 	0.71543	0.97907	0.62557	-0.182
Mof_C 	C 	0.68993	0.89427	0.63617	0.137
Mof_O 	O 	0.7083	0.9273	0.8703	-0.48
Mof_O 	O 	0.78249	0.96449	0.82129	-0.445
Mof_H 	H 	0.8702	0.2105	0.9595	0.096
Mof_C 	C 	0.8004	0.0749	0.90058	-0.096
Mof_H 	H 	0.7523	0.0398	0.9114	0.082
Mof_C 	C 	0.82	0.0565	0.86837	-0.048
Mof_C 	C 	0.7658	0.9763	0.85185	0.376
Mof_N 	N 	0.7956	0.1942	0.07988	-0.097
Mof_C 	C 	0.7245	0.134	0.06577	-0.648
Mof_H 	H 	0.6808	0.1047	0.0804	0.239
Mof_C 	C 	0.7189	0.1176	0.0298	-0.316
Mof_H 	H 	0.6713	0.0773	0.0204	0.185
Mof_C 	C 	0.7843	0.1615	0.00793	-0.462
Mof_C 	C 	0.8554	0.2217	0.02204	0.557
Mof_H 	H 	0.8992	0.2511	0.0074	0.014
Mof_C 	C 	0.8611	0.2381	0.05801	0.378
Mof_H 	H 	0.9086	0.2784	0.0674	0.136
Mof_O 	O 	0.6876	0.0697	0.9589	-0.182
Mof_C 	C 	0.7724	0.129	0.9695	0.137
Mof_O 	O 	0.37497	0.26063	0.20363	-0.481
Mof_O 	O 	0.44916	0.29782	0.15462	-0.445
Mof_H 	H 	0.53687	0.54383	0.29283	0.096
Mof_C 	C 	0.46707	0.40823	0.23391	-0.097
Mof_H 	H 	0.41897	0.37313	0.24473	0.082
Mof_C 	C 	0.48667	0.38983	0.2017	-0.048
Mof_C 	C 	0.43247	0.30963	0.18518	0.376
Mof_N 	N 	0.46227	0.52753	0.41321	-0.097
Mof_C 	C 	0.39117	0.46733	0.3991	-0.648
Mof_H 	H 	0.34747	0.43803	0.41373	0.239
Mof_C 	C 	0.38557	0.45093	0.36313	-0.316
Mof_H 	H 	0.33797	0.41063	0.35373	0.185
Mof_C 	C 	0.45097	0.49483	0.34126	-0.462
Mof_C 	C 	0.52207	0.55503	0.35537	0.556
Mof_H 	H 	0.56587	0.58443	0.34073	0.014
Mof_C 	C 	0.52777	0.57143	0.39134	0.378
Mof_H 	H 	0.57527	0.61173	0.40073	0.136
Mof_O 	O 	0.35427	0.40303	0.29223	-0.182
Mof_C 	C 	0.43907	0.46233	0.30283	0.137
Mof_O 	O 	0.04163	0.59397	0.53697	-0.48
Mof_O 	O 	0.11582	0.63116	0.48796	-0.445
Mof_H 	H 	0.20353	0.87717	0.62617	0.096
Mof_C 	C 	0.13373	0.74157	0.56725	-0.097
Mof_H 	H 	0.08563	0.70647	0.57807	0.083
Mof_C 	C 	0.15333	0.72317	0.53504	-0.048
Mof_C 	C 	0.09913	0.64297	0.51852	0.376
Mof_N 	N 	0.12893	0.86087	0.74655	-0.097
Mof_C 	C 	0.05783	0.80067	0.73244	-0.647
Mof_H 	H 	0.01413	0.77137	0.74707	0.239
Mof_C 	C 	0.05223	0.78427	0.69647	-0.316
Mof_H 	H 	0.00463	0.74397	0.68707	0.185
Mof_C 	C 	0.11763	0.82817	0.6746	-0.462
Mof_C 	C 	0.18873	0.88837	0.68871	0.556
Mof_H 	H 	0.23253	0.91777	0.67407	0.014
Mof_C 	C 	0.19443	0.90477	0.72468	0.378
Mof_H 	H 	0.24193	0.94507	0.73407	0.135
Mof_O 	O 	0.02093	0.73637	0.62557	-0.182
Mof_C 	C 	0.10573	0.79567	0.63617	0.137
Mof_O 	O 	0.0727	0.781	0.8703	-0.48
Mof_O 	O 	0.03551	0.818	0.82129	-0.445
Mof_H 	H 	0.7895	0.6597	0.9595	0.096
Mof_C 	C 	0.9251	0.7255	0.90058	-0.096
Mof_H 	H 	0.9602	0.7125	0.9114	0.082
Mof_C 	C 	0.9435	0.7635	0.86837	-0.048
Mof_C 	C 	0.0237	0.7895	0.85185	0.376
Mof_N 	N 	0.8058	0.6014	0.07988	-0.097
Mof_C 	C 	0.866	0.5905	0.06577	-0.648
Mof_H 	H 	0.8953	0.5761	0.0804	0.239
Mof_C 	C 	0.8824	0.6013	0.0298	-0.316
Mof_H 	H 	0.9227	0.594	0.0204	0.185
Mof_C 	C 	0.8385	0.6228	0.00793	-0.462
Mof_C 	C 	0.7783	0.6337	0.02204	0.556
Mof_H 	H 	0.7489	0.6481	0.0074	0.014
Mof_C 	C 	0.7619	0.623	0.05801	0.378
Mof_H 	H 	0.7216	0.6302	0.0674	0.136
Mof_O 	O 	0.9303	0.6179	0.9589	-0.182
Mof_C 	C 	0.871	0.6434	0.9695	0.137
Mof_O 	O 	0.73937	0.11433	0.20363	-0.48
Mof_O 	O 	0.70218	0.15133	0.15462	-0.445
Mof_H 	H 	0.45617	0.99303	0.29283	0.096
Mof_C 	C 	0.59177	0.05883	0.23391	-0.097
Mof_H 	H 	0.62687	0.04583	0.24473	0.083
Mof_C 	C 	0.61017	0.09683	0.2017	-0.048
Mof_C 	C 	0.69037	0.12283	0.18518	0.376
Mof_N 	N 	0.47247	0.93473	0.41321	-0.097
Mof_C 	C 	0.53267	0.92383	0.3991	-0.647
Mof_H 	H 	0.56197	0.90943	0.41373	0.239
Mof_C 	C 	0.54907	0.93463	0.36313	-0.316
Mof_H 	H 	0.58937	0.92733	0.35373	0.184
Mof_C 	C 	0.50517	0.95613	0.34126	-0.462
Mof_C 	C 	0.44497	0.96703	0.35537	0.556
Mof_H 	H 	0.41557	0.98143	0.34073	0.014
Mof_C 	C 	0.42857	0.95633	0.39134	0.378
Mof_H 	H 	0.38827	0.96353	0.40073	0.135
Mof_O 	O 	0.59697	0.95123	0.29223	-0.182
Mof_C 	C 	0.53767	0.97673	0.30283	0.137
Mof_O 	O 	0.40603	0.44767	0.53697	-0.48
Mof_O 	O 	0.36884	0.48467	0.48796	-0.445
Mof_H 	H 	0.12283	0.32637	0.62617	0.096
Mof_C 	C 	0.25843	0.39217	0.56725	-0.097
Mof_H 	H 	0.29353	0.37917	0.57807	0.082
Mof_C 	C 	0.27683	0.43017	0.53504	-0.048
Mof_C 	C 	0.35703	0.45617	0.51852	0.376
Mof_N 	N 	0.13913	0.26807	0.74655	-0.097
Mof_C 	C 	0.19933	0.25717	0.73244	-0.648
Mof_H 	H 	0.22863	0.24277	0.74707	0.239
Mof_C 	C 	0.21573	0.26797	0.69647	-0.316
Mof_H 	H 	0.25603	0.26067	0.68707	0.185
Mof_C 	C 	0.17183	0.28947	0.6746	-0.462
Mof_C 	C 	0.11163	0.30037	0.68871	0.556
Mof_H 	H 	0.08223	0.31477	0.67407	0.014
Mof_C 	C 	0.09523	0.28967	0.72468	0.378
Mof_H 	H 	0.05493	0.29687	0.73407	0.136
Mof_O 	O 	0.26363	0.28457	0.62557	-0.182
Mof_C 	C 	0.20433	0.31007	0.63617	0.137
Mof_O 	O 	0.2917	0.219	0.1297	-0.481
Mof_O 	O 	0.21751	0.182	0.17871	-0.445
Mof_H 	H 	0.1298	0.3403	0.0405	0.096
Mof_C 	C 	0.1996	0.2745	0.09942	-0.097
Mof_H 	H 	0.2477	0.2875	0.0886	0.082
Mof_C 	C 	0.18	0.2365	0.13163	-0.048
Mof_C 	C 	0.2342	0.2105	0.14815	0.376
Mof_N 	N 	0.2044	0.3986	0.92012	-0.097
Mof_C 	C 	0.2755	0.4095	0.93423	-0.648
Mof_H 	H 	0.3192	0.4239	0.9196	0.239
Mof_C 	C 	0.2811	0.3987	0.9702	-0.316
Mof_H 	H 	0.3287	0.406	0.9796	0.185
Mof_C 	C 	0.2157	0.3772	0.99207	-0.462
Mof_C 	C 	0.1446	0.3663	0.97796	0.556
Mof_H 	H 	0.1008	0.3519	0.9926	0.014
Mof_C 	C 	0.1389	0.377	0.94199	0.378
Mof_H 	H 	0.0914	0.3698	0.9326	0.136
Mof_O 	O 	0.3124	0.3821	0.0411	-0.182
Mof_C 	C 	0.2276	0.3566	0.0305	0.137
Mof_O 	O 	0.95837	0.55233	0.46303	-0.48
Mof_O 	O 	0.88418	0.51533	0.51204	-0.445
Mof_H 	H 	0.79647	0.67363	0.37383	0.096
Mof_C 	C 	0.86627	0.60783	0.43275	-0.097
Mof_H 	H 	0.91437	0.62083	0.42193	0.082
Mof_C 	C 	0.84667	0.56983	0.46496	-0.048
Mof_C 	C 	0.90087	0.54383	0.48148	0.376
Mof_N 	N 	0.87107	0.73193	0.25345	-0.097
Mof_C 	C 	0.94217	0.74283	0.26756	-0.647
Mof_H 	H 	0.98587	0.75723	0.25293	0.239
Mof_C 	C 	0.94777	0.73203	0.30353	-0.316
Mof_H 	H 	0.99537	0.73933	0.31293	0.185
Mof_C 	C 	0.88237	0.71053	0.3254	-0.462
Mof_C 	C 	0.81127	0.69963	0.31129	0.556
Mof_H 	H 	0.76747	0.68523	0.32593	0.014
Mof_C 	C 	0.80557	0.71033	0.27532	0.378
Mof_H 	H 	0.75807	0.70313	0.26593	0.135
Mof_O 	O 	0.97907	0.71543	0.37443	-0.182
Mof_C 	C 	0.89427	0.68993	0.36383	0.137
Mof_O 	O 	0.62503	0.88567	0.79637	-0.48
Mof_O 	O 	0.55084	0.84867	0.84538	-0.445
Mof_H 	H 	0.46313	0.00697	0.70717	0.096
Mof_C 	C 	0.53293	0.94117	0.76609	-0.097
Mof_H 	H 	0.58103	0.95417	0.75527	0.083
Mof_C 	C 	0.51333	0.90317	0.7983	-0.048
Mof_C 	C 	0.56753	0.87717	0.81482	0.376
Mof_N 	N 	0.53773	0.06527	0.58679	-0.097
Mof_C 	C 	0.60883	0.07617	0.6009	-0.647
Mof_H 	H 	0.65253	0.09057	0.58627	0.239
Mof_C 	C 	0.61443	0.06537	0.63687	-0.316
Mof_H 	H 	0.66203	0.07267	0.64627	0.184
Mof_C 	C 	0.54903	0.04387	0.65874	-0.462
Mof_C 	C 	0.47793	0.03297	0.64463	0.556
Mof_H 	H 	0.43413	0.01857	0.65927	0.014
Mof_C 	C 	0.47223	0.04367	0.60866	0.378
Mof_H 	H 	0.42473	0.03647	0.59927	0.135
Mof_O 	O 	0.64573	0.04877	0.70777	-0.182
Mof_C 	C 	0.56093	0.02327	0.69717	0.137
Mof_O 	O 	0.9273	0.7083	0.1297	-0.48
Mof_O 	O 	0.96449	0.78249	0.17871	-0.445
Mof_H 	H 	0.2105	0.8702	0.0405	0.096
Mof_C 	C 	0.0749	0.8004	0.09942	-0.096
Mof_H 	H 	0.0398	0.7523	0.0886	0.082
Mof_C 	C 	0.0565	0.82	0.13163	-0.048
Mof_C 	C 	0.9763	0.7658	0.14815	0.376
Mof_N 	N 	0.1942	0.7956	0.92012	-0.097
Mof_C 	C 	0.134	0.7245	0.93423	-0.648
Mof_H 	H 	0.1047	0.6808	0.9196	0.239
Mof_C 	C 	0.1176	0.7189	0.9702	-0.316
Mof_H 	H 	0.0773	0.6713	0.9796	0.185
Mof_C 	C 	0.1615	0.7843	0.99207	-0.462
Mof_C 	C 	0.2217	0.8554	0.97796	0.557
Mof_H 	H 	0.2511	0.8992	0.9926	0.014
Mof_C 	C 	0.2381	0.8611	0.94199	0.378
Mof_H 	H 	0.2784	0.9086	0.9326	0.136
Mof_O 	O 	0.0697	0.6876	0.0411	-0.182
Mof_C 	C 	0.129	0.7724	0.0305	0.137
Mof_O 	O 	0.59397	0.04163	0.46303	-0.48
Mof_O 	O 	0.63116	0.11582	0.51204	-0.445
Mof_H 	H 	0.87717	0.20353	0.37383	0.096
Mof_C 	C 	0.74157	0.13373	0.43275	-0.097
Mof_H 	H 	0.70647	0.08563	0.42193	0.083
Mof_C 	C 	0.72317	0.15333	0.46496	-0.048
Mof_C 	C 	0.64297	0.09913	0.48148	0.376
Mof_N 	N 	0.86087	0.12893	0.25345	-0.097
Mof_C 	C 	0.80067	0.05783	0.26756	-0.647
Mof_H 	H 	0.77137	0.01413	0.25293	0.239
Mof_C 	C 	0.78427	0.05223	0.30353	-0.316
Mof_H 	H 	0.74397	0.00463	0.31293	0.185
Mof_C 	C 	0.82817	0.11763	0.3254	-0.462
Mof_C 	C 	0.88837	0.18873	0.31129	0.556
Mof_H 	H 	0.91777	0.23253	0.32593	0.014
Mof_C 	C 	0.90477	0.19443	0.27532	0.378
Mof_H 	H 	0.94507	0.24193	0.26593	0.135
Mof_O 	O 	0.73637	0.02093	0.37443	-0.182
Mof_C 	C 	0.79567	0.10573	0.36383	0.137
Mof_O 	O 	0.26063	0.37497	0.79637	-0.481
Mof_O 	O 	0.29782	0.44916	0.84538	-0.445
Mof_H 	H 	0.54383	0.53687	0.70717	0.096
Mof_C 	C 	0.40823	0.46707	0.76609	-0.097
Mof_H 	H 	0.37313	0.41897	0.75527	0.082
Mof_C 	C 	0.38983	0.48667	0.7983	-0.048
Mof_C 	C 	0.30963	0.43247	0.81482	0.376
Mof_N 	N 	0.52753	0.46227	0.58679	-0.097
Mof_C 	C 	0.46733	0.39117	0.6009	-0.648
Mof_H 	H 	0.43803	0.34747	0.58627	0.239
Mof_C 	C 	0.45093	0.38557	0.63687	-0.316
Mof_H 	H 	0.41063	0.33797	0.64627	0.185
Mof_C 	C 	0.49483	0.45097	0.65874	-0.462
Mof_C 	C 	0.55503	0.52207	0.64463	0.556
Mof_H 	H 	0.58443	0.56587	0.65927	0.014
Mof_C 	C 	0.57143	0.52777	0.60866	0.378
Mof_H 	H 	0.61173	0.57527	0.59927	0.136
Mof_O 	O 	0.40303	0.35427	0.70777	-0.182
Mof_C 	C 	0.46233	0.43907	0.69717	0.137
Mof_O 	O 	0.781	0.0727	0.1297	-0.48
Mof_O 	O 	0.818	0.03551	0.17871	-0.445
Mof_H 	H 	0.6597	0.7895	0.0405	0.096
Mof_C 	C 	0.7255	0.9251	0.09942	-0.096
Mof_H 	H 	0.7125	0.9602	0.0886	0.082
Mof_C 	C 	0.7635	0.9435	0.13163	-0.048
Mof_C 	C 	0.7895	0.0237	0.14815	0.376
Mof_N 	N 	0.6014	0.8058	0.92012	-0.097
Mof_C 	C 	0.5905	0.866	0.93423	-0.648
Mof_H 	H 	0.5761	0.8953	0.9196	0.239
Mof_C 	C 	0.6013	0.8824	0.9702	-0.316
Mof_H 	H 	0.594	0.9227	0.9796	0.185
Mof_C 	C 	0.6228	0.8385	0.99207	-0.462
Mof_C 	C 	0.6337	0.7783	0.97796	0.556
Mof_H 	H 	0.6481	0.7489	0.9926	0.014
Mof_C 	C 	0.623	0.7619	0.94199	0.378
Mof_H 	H 	0.6302	0.7216	0.9326	0.136
Mof_O 	O 	0.6179	0.9303	0.0411	-0.182
Mof_C 	C 	0.6434	0.871	0.0305	0.137
Mof_O 	O 	0.44767	0.40603	0.46303	-0.48
Mof_O 	O 	0.48467	0.36884	0.51204	-0.445
Mof_H 	H 	0.32637	0.12283	0.37383	0.096
Mof_C 	C 	0.39217	0.25843	0.43275	-0.097
Mof_H 	H 	0.37917	0.29353	0.42193	0.082
Mof_C 	C 	0.43017	0.27683	0.46496	-0.048
Mof_C 	C 	0.45617	0.35703	0.48148	0.376
Mof_N 	N 	0.26807	0.13913	0.25345	-0.097
Mof_C 	C 	0.25717	0.19933	0.26756	-0.648
Mof_H 	H 	0.24277	0.22863	0.25293	0.239
Mof_C 	C 	0.26797	0.21573	0.30353	-0.316
Mof_H 	H 	0.26067	0.25603	0.31293	0.185
Mof_C 	C 	0.28947	0.17183	0.3254	-0.462
Mof_C 	C 	0.30037	0.11163	0.31129	0.556
Mof_H 	H 	0.31477	0.08223	0.32593	0.014
Mof_C 	C 	0.28967	0.09523	0.27532	0.378
Mof_H 	H 	0.29687	0.05493	0.26593	0.136
Mof_O 	O 	0.28457	0.26363	0.37443	-0.182
Mof_C 	C 	0.31007	0.20433	0.36383	0.137
Mof_O 	O 	0.11433	0.73937	0.79637	-0.48
Mof_O 	O 	0.15133	0.70218	0.84538	-0.445
Mof_H 	H 	0.99303	0.45617	0.70717	0.096
Mof_C 	C 	0.05883	0.59177	0.76609	-0.097
Mof_H 	H 	0.04583	0.62687	0.75527	0.083
Mof_C 	C 	0.09683	0.61017	0.7983	-0.048
Mof_C 	C 	0.12283	0.69037	0.81482	0.376
Mof_N 	N 	0.93473	0.47247	0.58679	-0.097
Mof_C 	C 	0.92383	0.53267	0.6009	-0.647
Mof_H 	H 	0.90943	0.56197	0.58627	0.239
Mof_C 	C 	0.93463	0.54907	0.63687	-0.316
Mof_H 	H 	0.92733	0.58937	0.64627	0.184
Mof_C 	C 	0.95613	0.50517	0.65874	-0.462
Mof_C 	C 	0.96703	0.44497	0.64463	0.556
Mof_H 	H 	0.98143	0.41557	0.65927	0.014
Mof_C 	C 	0.95633	0.42857	0.60866	0.378
Mof_H 	H 	0.96353	0.38827	0.59927	0.135
Mof_O 	O 	0.95123	0.59697	0.70777	-0.182
Mof_C 	C 	0.97673	0.53767	0.69717	0.137
Mof_O 	O 	0.781	0.7083	0.1297	-0.481
Mof_O 	O 	0.818	0.78249	0.17871	-0.445
Mof_H 	H 	0.6597	0.8702	0.0405	0.096
Mof_C 	C 	0.7255	0.8004	0.09942	-0.097
Mof_H 	H 	0.7125	0.7523	0.0886	0.082
Mof_C 	C 	0.7635	0.82	0.13163	-0.048
Mof_C 	C 	0.7895	0.7658	0.14815	0.376
Mof_N 	N 	0.6014	0.7956	0.92012	-0.097
Mof_C 	C 	0.5905	0.7245	0.93423	-0.648
Mof_H 	H 	0.5761	0.6808	0.9196	0.239
Mof_C 	C 	0.6013	0.7189	0.9702	-0.316
Mof_H 	H 	0.594	0.6713	0.9796	0.185
Mof_C 	C 	0.6228	0.7843	0.99207	-0.462
Mof_C 	C 	0.6337	0.8554	0.97796	0.556
Mof_H 	H 	0.6481	0.8992	0.9926	0.014
Mof_C 	C 	0.623	0.8611	0.94199	0.378
Mof_H 	H 	0.6302	0.9086	0.9326	0.136
Mof_O 	O 	0.6179	0.6876	0.0411	-0.182
Mof_C 	C 	0.6434	0.7724	0.0305	0.137
Mof_O 	O 	0.44767	0.04163	0.46303	-0.48
Mof_O 	O 	0.48467	0.11582	0.51204	-0.445
Mof_H 	H 	0.32637	0.20353	0.37383	0.096
Mof_C 	C 	0.39217	0.13373	0.43275	-0.097
Mof_H 	H 	0.37917	0.08563	0.42193	0.082
Mof_C 	C 	0.43017	0.15333	0.46496	-0.048
Mof_C 	C 	0.45617	0.09913	0.48148	0.376
Mof_N 	N 	0.26807	0.12893	0.25345	-0.097
Mof_C 	C 	0.25717	0.05783	0.26756	-0.647
Mof_H 	H 	0.24277	0.01413	0.25293	0.239
Mof_C 	C 	0.26797	0.05223	0.30353	-0.316
Mof_H 	H 	0.26067	0.00463	0.31293	0.185
Mof_C 	C 	0.28947	0.11763	0.3254	-0.462
Mof_C 	C 	0.30037	0.18873	0.31129	0.556
Mof_H 	H 	0.31477	0.23253	0.32593	0.014
Mof_C 	C 	0.28967	0.19443	0.27532	0.378
Mof_H 	H 	0.29687	0.24193	0.26593	0.135
Mof_O 	O 	0.28457	0.02093	0.37443	-0.182
Mof_C 	C 	0.31007	0.10573	0.36383	0.137
Mof_O 	O 	0.11433	0.37497	0.79637	-0.48
Mof_O 	O 	0.15133	0.44916	0.84538	-0.445
Mof_H 	H 	0.99303	0.53687	0.70717	0.096
Mof_C 	C 	0.05883	0.46707	0.76609	-0.097
Mof_H 	H 	0.04583	0.41897	0.75527	0.083
Mof_C 	C 	0.09683	0.48667	0.7983	-0.048
Mof_C 	C 	0.12283	0.43247	0.81482	0.376
Mof_N 	N 	0.93473	0.46227	0.58679	-0.097
Mof_C 	C 	0.92383	0.39117	0.6009	-0.647
Mof_H 	H 	0.90943	0.34747	0.58627	0.239
Mof_C 	C 	0.93463	0.38557	0.63687	-0.316
Mof_H 	H 	0.92733	0.33797	0.64627	0.184
Mof_C 	C 	0.95613	0.45097	0.65874	-0.462
Mof_C 	C 	0.96703	0.52207	0.64463	0.556
Mof_H 	H 	0.98143	0.56587	0.65927	0.014
Mof_C 	C 	0.95633	0.52777	0.60866	0.378
Mof_H 	H 	0.96353	0.57527	0.59927	0.135
Mof_O 	O 	0.95123	0.35427	0.70777	-0.182
Mof_C 	C 	0.97673	0.43907	0.69717	0.137
Mof_O 	O 	0.2917	0.0727	0.1297	-0.48
Mof_O 	O 	0.21751	0.03551	0.17871	-0.445
Mof_H 	H 	0.1298	0.7895	0.0405	0.096
Mof_C 	C 	0.1996	0.9251	0.09942	-0.096
Mof_H 	H 	0.2477	0.9602	0.0886	0.082
Mof_C 	C 	0.18	0.9435	0.13163	-0.048
Mof_C 	C 	0.2342	0.0237	0.14815	0.376
Mof_N 	N 	0.2044	0.8058	0.92012	-0.097
Mof_C 	C 	0.2755	0.866	0.93423	-0.648
Mof_H 	H 	0.3192	0.8953	0.9196	0.239
Mof_C 	C 	0.2811	0.8824	0.9702	-0.316
Mof_H 	H 	0.3287	0.9227	0.9796	0.185
Mof_C 	C 	0.2157	0.8385	0.99207	-0.462
Mof_C 	C 	0.1446	0.7783	0.97796	0.557
Mof_H 	H 	0.1008	0.7489	0.9926	0.014
Mof_C 	C 	0.1389	0.7619	0.94199	0.378
Mof_H 	H 	0.0914	0.7216	0.9326	0.136
Mof_O 	O 	0.3124	0.9303	0.0411	-0.182
Mof_C 	C 	0.2276	0.871	0.0305	0.137
Mof_O 	O 	0.95837	0.40603	0.46303	-0.48
Mof_O 	O 	0.88418	0.36884	0.51204	-0.445
Mof_H 	H 	0.79647	0.12283	0.37383	0.096
Mof_C 	C 	0.86627	0.25843	0.43275	-0.097
Mof_H 	H 	0.91437	0.29353	0.42193	0.083
Mof_C 	C 	0.84667	0.27683	0.46496	-0.048
Mof_C 	C 	0.90087	0.35703	0.48148	0.376
Mof_N 	N 	0.87107	0.13913	0.25345	-0.097
Mof_C 	C 	0.94217	0.19933	0.26756	-0.647
Mof_H 	H 	0.98587	0.22863	0.25293	0.239
Mof_C 	C 	0.94777	0.21573	0.30353	-0.316
Mof_H 	H 	0.99537	0.25603	0.31293	0.185
Mof_C 	C 	0.88237	0.17183	0.3254	-0.462
Mof_C 	C 	0.81127	0.11163	0.31129	0.556
Mof_H 	H 	0.76747	0.08223	0.32593	0.014
Mof_C 	C 	0.80557	0.09523	0.27532	0.378
Mof_H 	H 	0.75807	0.05493	0.26593	0.135
Mof_O 	O 	0.97907	0.26363	0.37443	-0.182
Mof_C 	C 	0.89427	0.20433	0.36383	0.137
Mof_O 	O 	0.62503	0.73937	0.79637	-0.481
Mof_O 	O 	0.55084	0.70218	0.84538	-0.445
Mof_H 	H 	0.46313	0.45617	0.70717	0.096
Mof_C 	C 	0.53293	0.59177	0.76609	-0.097
Mof_H 	H 	0.58103	0.62687	0.75527	0.082
Mof_C 	C 	0.51333	0.61017	0.7983	-0.048
Mof_C 	C 	0.56753	0.69037	0.81482	0.376
Mof_N 	N 	0.53773	0.47247	0.58679	-0.097
Mof_C 	C 	0.60883	0.53267	0.6009	-0.648
Mof_H 	H 	0.65253	0.56197	0.58627	0.239
Mof_C 	C 	0.61443	0.54907	0.63687	-0.316
Mof_H 	H 	0.66203	0.58937	0.64627	0.185
Mof_C 	C 	0.54903	0.50517	0.65874	-0.462
Mof_C 	C 	0.47793	0.44497	0.64463	0.556
Mof_H 	H 	0.43413	0.41557	0.65927	0.014
Mof_C 	C 	0.47223	0.42857	0.60866	0.378
Mof_H 	H 	0.42473	0.38827	0.59927	0.136
Mof_O 	O 	0.64573	0.59697	0.70777	-0.182
Mof_C 	C 	0.56093	0.53767	0.69717	0.137
Mof_O 	O 	0.9273	0.219	0.1297	-0.48
Mof_O 	O 	0.96449	0.182	0.17871	-0.445
Mof_H 	H 	0.2105	0.3403	0.0405	0.096
Mof_C 	C 	0.0749	0.2745	0.09942	-0.096
Mof_H 	H 	0.0398	0.2875	0.0886	0.082
Mof_C 	C 	0.0565	0.2365	0.13163	-0.048
Mof_C 	C 	0.9763	0.2105	0.14815	0.376
Mof_N 	N 	0.1942	0.3986	0.92012	-0.097
Mof_C 	C 	0.134	0.4095	0.93423	-0.648
Mof_H 	H 	0.1047	0.4239	0.9196	0.239
Mof_C 	C 	0.1176	0.3987	0.9702	-0.316
Mof_H 	H 	0.0773	0.406	0.9796	0.185
Mof_C 	C 	0.1615	0.3772	0.99207	-0.462
Mof_C 	C 	0.2217	0.3663	0.97796	0.556
Mof_H 	H 	0.2511	0.3519	0.9926	0.014
Mof_C 	C 	0.2381	0.377	0.94199	0.378
Mof_H 	H 	0.2784	0.3698	0.9326	0.136
Mof_O 	O 	0.0697	0.3821	0.0411	-0.182
Mof_C 	C 	0.129	0.3566	0.0305	0.137
Mof_O 	O 	0.59397	0.55233	0.46303	-0.48
Mof_O 	O 	0.63116	0.51533	0.51204	-0.445
Mof_H 	H 	0.87717	0.67363	0.37383	0.096
Mof_C 	C 	0.74157	0.60783	0.43275	-0.097
Mof_H 	H 	0.70647	0.62083	0.42193	0.082
Mof_C 	C 	0.72317	0.56983	0.46496	-0.048
Mof_C 	C 	0.64297	0.54383	0.48148	0.376
Mof_N 	N 	0.86087	0.73193	0.25345	-0.097
Mof_C 	C 	0.80067	0.74283	0.26756	-0.648
Mof_H 	H 	0.77137	0.75723	0.25293	0.239
Mof_C 	C 	0.78427	0.73203	0.30353	-0.316
Mof_H 	H 	0.74397	0.73933	0.31293	0.185
Mof_C 	C 	0.82817	0.71053	0.3254	-0.462
Mof_C 	C 	0.88837	0.69963	0.31129	0.556
Mof_H 	H 	0.91777	0.68523	0.32593	0.014
Mof_C 	C 	0.90477	0.71033	0.27532	0.378
Mof_H 	H 	0.94507	0.70313	0.26593	0.136
Mof_O 	O 	0.73637	0.71543	0.37443	-0.182
Mof_C 	C 	0.79567	0.68993	0.36383	0.137
Mof_O 	O 	0.26063	0.88567	0.79637	-0.48
Mof_O 	O 	0.29782	0.84867	0.84538	-0.445
Mof_H 	H 	0.54383	0.00697	0.70717	0.096
Mof_C 	C 	0.40823	0.94117	0.76609	-0.097
Mof_H 	H 	0.37313	0.95417	0.75527	0.083
Mof_C 	C 	0.38983	0.90317	0.7983	-0.048
Mof_C 	C 	0.30963	0.87717	0.81482	0.376
Mof_N 	N 	0.52753	0.06527	0.58679	-0.097
Mof_C 	C 	0.46733	0.07617	0.6009	-0.647
Mof_H 	H 	0.43803	0.09057	0.58627	0.239
Mof_C 	C 	0.45093	0.06537	0.63687	-0.316
Mof_H 	H 	0.41063	0.07267	0.64627	0.184
Mof_C 	C 	0.49483	0.04387	0.65874	-0.462
Mof_C 	C 	0.55503	0.03297	0.64463	0.556
Mof_H 	H 	0.58443	0.01857	0.65927	0.014
Mof_C 	C 	0.57143	0.04367	0.60866	0.378
Mof_H 	H 	0.61173	0.03647	0.59927	0.135
Mof_O 	O 	0.40303	0.04877	0.70777	-0.182
Mof_C 	C 	0.46233	0.02327	0.69717	0.137
Mof_O 	O 	0.7083	0.781	0.8703	-0.481
Mof_O 	O 	0.78249	0.818	0.82129	-0.445
Mof_H 	H 	0.8702	0.6597	0.9595	0.096
Mof_C 	C 	0.8004	0.7255	0.90058	-0.097
Mof_H 	H 	0.7523	0.7125	0.9114	0.082
Mof_C 	C 	0.82	0.7635	0.86837	-0.048
Mof_C 	C 	0.7658	0.7895	0.85185	0.376
Mof_N 	N 	0.7956	0.6014	0.07988	-0.097
Mof_C 	C 	0.7245	0.5905	0.06577	-0.648
Mof_H 	H 	0.6808	0.5761	0.0804	0.239
Mof_C 	C 	0.7189	0.6013	0.0298	-0.316
Mof_H 	H 	0.6713	0.594	0.0204	0.185
Mof_C 	C 	0.7843	0.6228	0.00793	-0.462
Mof_C 	C 	0.8554	0.6337	0.02204	0.556
Mof_H 	H 	0.8992	0.6481	0.0074	0.014
Mof_C 	C 	0.8611	0.623	0.05801	0.378
Mof_H 	H 	0.9086	0.6302	0.0674	0.136
Mof_O 	O 	0.6876	0.6179	0.9589	-0.182
Mof_C 	C 	0.7724	0.6434	0.9695	0.137
Mof_O 	O 	0.37497	0.11433	0.20363	-0.48
Mof_O 	O 	0.44916	0.15133	0.15462	-0.445
Mof_H 	H 	0.53687	0.99303	0.29283	0.096
Mof_C 	C 	0.46707	0.05883	0.23391	-0.097
Mof_H 	H 	0.41897	0.04583	0.24473	0.083
Mof_C 	C 	0.48667	0.09683	0.2017	-0.048
Mof_C 	C 	0.43247	0.12283	0.18518	0.376
Mof_N 	N 	0.46227	0.93473	0.41321	-0.097
Mof_C 	C 	0.39117	0.92383	0.3991	-0.647
Mof_H 	H 	0.34747	0.90943	0.41373	0.239
Mof_C 	C 	0.38557	0.93463	0.36313	-0.316
Mof_H 	H 	0.33797	0.92733	0.35373	0.184
Mof_C 	C 	0.45097	0.95613	0.34126	-0.462
Mof_C 	C 	0.52207	0.96703	0.35537	0.556
Mof_H 	H 	0.56587	0.98143	0.34073	0.014
Mof_C 	C 	0.52777	0.95633	0.39134	0.378
Mof_H 	H 	0.57527	0.96353	0.40073	0.135
Mof_O 	O 	0.35427	0.95123	0.29223	-0.182
Mof_C 	C 	0.43907	0.97673	0.30283	0.137
Mof_O 	O 	0.04163	0.44767	0.53697	-0.48
Mof_O 	O 	0.11582	0.48467	0.48796	-0.445
Mof_H 	H 	0.20353	0.32637	0.62617	0.096
Mof_C 	C 	0.13373	0.39217	0.56725	-0.097
Mof_H 	H 	0.08563	0.37917	0.57807	0.082
Mof_C 	C 	0.15333	0.43017	0.53504	-0.048
Mof_C 	C 	0.09913	0.45617	0.51852	0.376
Mof_N 	N 	0.12893	0.26807	0.74655	-0.097
Mof_C 	C 	0.05783	0.25717	0.73244	-0.647
Mof_H 	H 	0.01413	0.24277	0.74707	0.239
Mof_C 	C 	0.05223	0.26797	0.69647	-0.316
Mof_H 	H 	0.00463	0.26067	0.68707	0.185
Mof_C 	C 	0.11763	0.28947	0.6746	-0.462
Mof_C 	C 	0.18873	0.30037	0.68871	0.556
Mof_H 	H 	0.23253	0.31477	0.67407	0.014
Mof_C 	C 	0.19443	0.28967	0.72468	0.378
Mof_H 	H 	0.24193	0.29687	0.73407	0.135
Mof_O 	O 	0.02093	0.28457	0.62557	-0.182
Mof_C 	C 	0.10573	0.31007	0.63617	0.137
Mof_O 	O 	0.0727	0.2917	0.8703	-0.48
Mof_O 	O 	0.03551	0.21751	0.82129	-0.445
Mof_H 	H 	0.7895	0.1298	0.9595	0.096
Mof_C 	C 	0.9251	0.1996	0.90058	-0.096
Mof_H 	H 	0.9602	0.2477	0.9114	0.082
Mof_C 	C 	0.9435	0.18	0.86837	-0.048
Mof_C 	C 	0.0237	0.2342	0.85185	0.376
Mof_N 	N 	0.8058	0.2044	0.07988	-0.097
Mof_C 	C 	0.866	0.2755	0.06577	-0.648
Mof_H 	H 	0.8953	0.3192	0.0804	0.239
Mof_C 	C 	0.8824	0.2811	0.0298	-0.316
Mof_H 	H 	0.9227	0.3287	0.0204	0.185
Mof_C 	C 	0.8385	0.2157	0.00793	-0.462
Mof_C 	C 	0.7783	0.1446	0.02204	0.557
Mof_H 	H 	0.7489	0.1008	0.0074	0.014
Mof_C 	C 	0.7619	0.1389	0.05801	0.378
Mof_H 	H 	0.7216	0.0914	0.0674	0.136
Mof_O 	O 	0.9303	0.3124	0.9589	-0.182
Mof_C 	C 	0.871	0.2276	0.9695	0.137
Mof_O 	O 	0.73937	0.62503	0.20363	-0.481
Mof_O 	O 	0.70218	0.55084	0.15462	-0.445
Mof_H 	H 	0.45617	0.46313	0.29283	0.096
Mof_C 	C 	0.59177	0.53293	0.23391	-0.097
Mof_H 	H 	0.62687	0.58103	0.24473	0.082
Mof_C 	C 	0.61017	0.51333	0.2017	-0.048
Mof_C 	C 	0.69037	0.56753	0.18518	0.376
Mof_N 	N 	0.47247	0.53773	0.41321	-0.097
Mof_C 	C 	0.53267	0.60883	0.3991	-0.648
Mof_H 	H 	0.56197	0.65253	0.41373	0.239
Mof_C 	C 	0.54907	0.61443	0.36313	-0.316
Mof_H 	H 	0.58937	0.66203	0.35373	0.185
Mof_C 	C 	0.50517	0.54903	0.34126	-0.462
Mof_C 	C 	0.44497	0.47793	0.35537	0.556
Mof_H 	H 	0.41557	0.43413	0.34073	0.014
Mof_C 	C 	0.42857	0.47223	0.39134	0.378
Mof_H 	H 	0.38827	0.42473	0.40073	0.136
Mof_O 	O 	0.59697	0.64573	0.29223	-0.182
Mof_C 	C 	0.53767	0.56093	0.30283	0.137
Mof_O 	O 	0.40603	0.95837	0.53697	-0.48
Mof_O 	O 	0.36884	0.88418	0.48796	-0.445
Mof_H 	H 	0.12283	0.79647	0.62617	0.096
Mof_C 	C 	0.25843	0.86627	0.56725	-0.097
Mof_H 	H 	0.29353	0.91437	0.57807	0.083
Mof_C 	C 	0.27683	0.84667	0.53504	-0.048
Mof_C 	C 	0.35703	0.90087	0.51852	0.376
Mof_N 	N 	0.13913	0.87107	0.74655	-0.097
Mof_C 	C 	0.19933	0.94217	0.73244	-0.647
Mof_H 	H 	0.22863	0.98587	0.74707	0.239
Mof_C 	C 	0.21573	0.94777	0.69647	-0.316
Mof_H 	H 	0.25603	0.99537	0.68707	0.185
Mof_C 	C 	0.17183	0.88237	0.6746	-0.462
Mof_C 	C 	0.11163	0.81127	0.68871	0.556
Mof_H 	H 	0.08223	0.76747	0.67407	0.014
Mof_C 	C 	0.09523	0.80557	0.72468	0.378
Mof_H 	H 	0.05493	0.75807	0.73407	0.135
Mof_O 	O 	0.26363	0.97907	0.62557	-0.182
Mof_C 	C 	0.20433	0.89427	0.63617	0.137
Mof_O 	O 	0.219	0.9273	0.8703	-0.48
Mof_O 	O 	0.182	0.96449	0.82129	-0.445
Mof_H 	H 	0.3403	0.2105	0.9595	0.096
Mof_C 	C 	0.2745	0.0749	0.90058	-0.096
Mof_H 	H 	0.2875	0.0398	0.9114	0.082
Mof_C 	C 	0.2365	0.0565	0.86837	-0.048
Mof_C 	C 	0.2105	0.9763	0.85185	0.376
Mof_N 	N 	0.3986	0.1942	0.07988	-0.097
Mof_C 	C 	0.4095	0.134	0.06577	-0.648
Mof_H 	H 	0.4239	0.1047	0.0804	0.239
Mof_C 	C 	0.3987	0.1176	0.0298	-0.316
Mof_H 	H 	0.406	0.0773	0.0204	0.185
Mof_C 	C 	0.3772	0.1615	0.00793	-0.462
Mof_C 	C 	0.3663	0.2217	0.02204	0.556
Mof_H 	H 	0.3519	0.2511	0.0074	0.014
Mof_C 	C 	0.377	0.2381	0.05801	0.378
Mof_H 	H 	0.3698	0.2784	0.0674	0.136
Mof_O 	O 	0.3821	0.0697	0.9589	-0.182
Mof_C 	C 	0.3566	0.129	0.9695	0.137
Mof_O 	O 	0.88567	0.26063	0.20363	-0.48
Mof_O 	O 	0.84867	0.29782	0.15462	-0.445
Mof_H 	H 	0.00697	0.54383	0.29283	0.096
Mof_C 	C 	0.94117	0.40823	0.23391	-0.097
Mof_H 	H 	0.95417	0.37313	0.24473	0.083
Mof_C 	C 	0.90317	0.38983	0.2017	-0.048
Mof_C 	C 	0.87717	0.30963	0.18518	0.376
Mof_N 	N 	0.06527	0.52753	0.41321	-0.097
Mof_C 	C 	0.07617	0.46733	0.3991	-0.647
Mof_H 	H 	0.09057	0.43803	0.41373	0.239
Mof_C 	C 	0.06537	0.45093	0.36313	-0.316
Mof_H 	H 	0.07267	0.41063	0.35373	0.184
Mof_C 	C 	0.04387	0.49483	0.34126	-0.462
Mof_C 	C 	0.03297	0.55503	0.35537	0.556
Mof_H 	H 	0.01857	0.58443	0.34073	0.014
Mof_C 	C 	0.04367	0.57143	0.39134	0.378
Mof_H 	H 	0.03647	0.61173	0.40073	0.135
Mof_O 	O 	0.04877	0.40303	0.29223	-0.182
Mof_C 	C 	0.02327	0.46233	0.30283	0.137
Mof_O 	O 	0.55233	0.59397	0.53697	-0.48
Mof_O 	O 	0.51533	0.63116	0.48796	-0.445
Mof_H 	H 	0.67363	0.87717	0.62617	0.096
Mof_C 	C 	0.60783	0.74157	0.56725	-0.097
Mof_H 	H 	0.62083	0.70647	0.57807	0.082
Mof_C 	C 	0.56983	0.72317	0.53504	-0.048
Mof_C 	C 	0.54383	0.64297	0.51852	0.376
Mof_N 	N 	0.73193	0.86087	0.74655	-0.097
Mof_C 	C 	0.74283	0.80067	0.73244	-0.648
Mof_H 	H 	0.75723	0.77137	0.74707	0.239
Mof_C 	C 	0.73203	0.78427	0.69647	-0.316
Mof_H 	H 	0.73933	0.74397	0.68707	0.185
Mof_C 	C 	0.71053	0.82817	0.6746	-0.462
Mof_C 	C 	0.69963	0.88837	0.68871	0.556
Mof_H 	H 	0.68523	0.91777	0.67407	0.014
Mof_C 	C 	0.71033	0.90477	0.72468	0.378
Mof_H 	H 	0.70313	0.94507	0.73407	0.136
Mof_O 	O 	0.71543	0.73637	0.62557	-0.182
Mof_C 	C 	0.68993	0.79567	0.63617	0.137
Mof_Zn	Zn	0.37969	0.18985	0.13305	1.22
Mof_N 	N 	0.3323	0.16615	0.95068	-0.267
Mof_C 	C 	0.2931	0.14655	0.91672	0.135
Mof_C 	C 	0.218	0.109	0.8517	-0.01
Mof_H 	H 	0.1934	0.0967	0.8297	0.073
Mof_Zn	Zn	0.04636	0.52318	0.46638	1.22
Mof_N 	N 	0.99897	0.49948	0.28401	-0.267
Mof_C 	C 	0.95977	0.47988	0.25005	0.136
Mof_C 	C 	0.88467	0.44233	0.18503	-0.01
Mof_H 	H 	0.86007	0.43003	0.16303	0.073
Mof_Zn	Zn	0.71302	0.85651	0.79972	1.22
Mof_N 	N 	0.66563	0.83282	0.61735	-0.267
Mof_C 	C 	0.62643	0.81322	0.58339	0.136
Mof_C 	C 	0.55133	0.77567	0.51837	-0.01
Mof_H 	H 	0.52673	0.76337	0.49637	0.073
Mof_Zn	Zn	0.81015	0.18985	0.13305	1.22
Mof_N 	N 	0.83385	0.16615	0.95068	-0.267
Mof_C 	C 	0.85345	0.14655	0.91672	0.135
Mof_C 	C 	0.891	0.109	0.8517	-0.01
Mof_H 	H 	0.9033	0.0967	0.8297	0.073
Mof_Zn	Zn	0.47682	0.52318	0.46638	1.22
Mof_N 	N 	0.50052	0.49948	0.28401	-0.267
Mof_C 	C 	0.52012	0.47988	0.25005	0.136
Mof_C 	C 	0.55767	0.44233	0.18503	-0.01
Mof_H 	H 	0.56997	0.43003	0.16303	0.073
Mof_Zn	Zn	0.14349	0.85651	0.79972	1.22
Mof_N 	N 	0.16718	0.83282	0.61735	-0.267
Mof_C 	C 	0.18678	0.81322	0.58339	0.136
Mof_C 	C 	0.22433	0.77567	0.51837	-0.01
Mof_H 	H 	0.23663	0.76337	0.49637	0.073
Mof_Zn	Zn	0.81015	0.62031	0.13305	1.22
Mof_N 	N 	0.83385	0.6677	0.95068	-0.267
Mof_C 	C 	0.85345	0.7069	0.91672	0.135
Mof_C 	C 	0.891	0.782	0.8517	-0.01
Mof_H 	H 	0.9033	0.8066	0.8297	0.073
Mof_Zn	Zn	0.47682	0.95364	0.46638	1.22
Mof_N 	N 	0.50052	0.00103	0.28401	-0.267
Mof_C 	C 	0.52012	0.04023	0.25005	0.136
Mof_C 	C 	0.55767	0.11533	0.18503	-0.01
Mof_H 	H 	0.56997	0.13993	0.16303	0.073
Mof_Zn	Zn	0.14349	0.28698	0.79972	1.22
Mof_N 	N 	0.16718	0.33437	0.61735	-0.267
Mof_C 	C 	0.18678	0.37357	0.58339	0.136
Mof_C 	C 	0.22433	0.44867	0.51837	-0.01
Mof_H 	H 	0.23663	0.47327	0.49637	0.073
Mof_Zn	Zn	0.18985	0.37969	0.86695	1.22
Mof_N 	N 	0.16615	0.3323	0.04932	-0.267
Mof_C 	C 	0.14655	0.2931	0.08328	0.135
Mof_C 	C 	0.109	0.218	0.1483	-0.01
Mof_H 	H 	0.0967	0.1934	0.1703	0.073
Mof_Zn	Zn	0.85651	0.71302	0.20028	1.22
Mof_N 	N 	0.83282	0.66563	0.38265	-0.267
Mof_C 	C 	0.81322	0.62643	0.41661	0.136
Mof_C 	C 	0.77567	0.55133	0.48163	-0.01
Mof_H 	H 	0.76337	0.52673	0.50363	0.073
Mof_Zn	Zn	0.52318	0.04636	0.53362	1.22
Mof_N 	N 	0.49948	0.99897	0.71599	-0.267
Mof_C 	C 	0.47988	0.95977	0.74995	0.136
Mof_C 	C 	0.44233	0.88467	0.81497	-0.01
Mof_H 	H 	0.43003	0.86007	0.83697	0.073
Mof_Zn	Zn	0.18985	0.81015	0.86695	1.22
Mof_N 	N 	0.16615	0.83385	0.04932	-0.267
Mof_C 	C 	0.14655	0.85345	0.08328	0.135
Mof_C 	C 	0.109	0.891	0.1483	-0.01
Mof_H 	H 	0.0967	0.9033	0.1703	0.073
Mof_Zn	Zn	0.85651	0.14349	0.20028	1.22
Mof_N 	N 	0.83282	0.16718	0.38265	-0.267
Mof_C 	C 	0.81322	0.18678	0.41661	0.136
Mof_C 	C 	0.77567	0.22433	0.48163	-0.01
Mof_H 	H 	0.76337	0.23663	0.50363	0.073
Mof_Zn	Zn	0.52318	0.47682	0.53362	1.22
Mof_N 	N 	0.49948	0.50052	0.71599	-0.267
Mof_C 	C 	0.47988	0.52012	0.74995	0.136
Mof_C 	C 	0.44233	0.55767	0.81497	-0.01
Mof_H 	H 	0.43003	0.56997	0.83697	0.073
Mof_Zn	Zn	0.62031	0.81015	0.86695	1.22
Mof_N 	N 	0.6677	0.83385	0.04932	-0.267
Mof_C 	C 	0.7069	0.85345	0.08328	0.135
Mof_C 	C 	0.782	0.891	0.1483	-0.01
Mof_H 	H 	0.8066	0.9033	0.1703	0.073
Mof_Zn	Zn	0.28698	0.14349	0.20028	1.22
Mof_N 	N 	0.33437	0.16718	0.38265	-0.267
Mof_C 	C 	0.37357	0.18678	0.41661	0.136
Mof_C 	C 	0.44867	0.22433	0.48163	-0.01
Mof_H 	H 	0.47327	0.23663	0.50363	0.073
Mof_Zn	Zn	0.95364	0.47682	0.53362	1.22
Mof_N 	N 	0.00103	0.50052	0.71599	-0.267
Mof_C 	C 	0.04023	0.52012	0.74995	0.136
Mof_C 	C 	0.11533	0.55767	0.81497	-0.01
Mof_H 	H 	0.13993	0.56997	0.83697	0.073
_end
