data_functionalizedCrystal
_audit_creation_method	'EQeq! by Chris Wilmer'
_symmetry_space_group_name_H-M	'P1'
_symmetry_Int_Tables_number	1
_symmetry_cell_setting	triclinic
loop_
_symmetry_equiv_pos_as_xyz
  x,y,z
_cell_length_a	9.3531
_cell_length_b	9.8055
_cell_length_c	16.1941
_cell_angle_alpha	90
_cell_angle_beta	90
_cell_angle_gamma	90
loop_
_atom_site_label
_atom_site_type_symbol
_atom_site_fract_x
_atom_site_fract_y
_atom_site_fract_z
_atom_site_charge
Mof_Zn	Zn	0.9405	0.12002	0.58234	1.179
Mof_Zn	Zn	0.4405	0.37998	0.41766	1.185
Mof_Zn	Zn	0.0595	0.87998	0.08234	1.177
Mof_Zn	Zn	0.5595	0.62002	0.91766	1.185
Mof_Zn	Zn	0.0595	0.87998	0.41766	1.179
Mof_Zn	Zn	0.5595	0.62002	0.58234	1.185
Mof_Zn	Zn	0.9405	0.12002	0.91766	1.177
Mof_Zn	Zn	0.4405	0.37998	0.08234	1.185
Mof_H 	H 	0.6704	0.0213	0.6648	0.132
Mof_H 	H 	0.5812	0.8956	0.6683	0.136
Mof_H 	H 	0.8274	0.6708	0.4681	-0.059
Mof_H 	H 	0.1704	0.4787	0.3352	0.14
Mof_H 	H 	0.0812	0.6044	0.3317	0.136
Mof_H 	H 	0.3274	0.8292	0.5319	-0.062
Mof_H 	H 	0.3296	0.9787	0.1648	0.13
Mof_H 	H 	0.4188	0.1044	0.1683	0.136
Mof_H 	H 	0.1726	0.3292	0.9681	-0.056
Mof_H 	H 	0.8296	0.5213	0.8352	0.14
Mof_H 	H 	0.9188	0.3956	0.8317	0.135
Mof_H 	H 	0.6726	0.1708	0.0319	-0.054
Mof_H 	H 	0.3296	0.9787	0.3352	0.132
Mof_H 	H 	0.4188	0.1044	0.3317	0.136
Mof_H 	H 	0.1726	0.3292	0.5319	-0.059
Mof_H 	H 	0.8296	0.5213	0.6648	0.14
Mof_H 	H 	0.9188	0.3956	0.6683	0.136
Mof_H 	H 	0.6726	0.1708	0.4681	-0.062
Mof_H 	H 	0.6704	0.0213	0.8352	0.13
Mof_H 	H 	0.5812	0.8956	0.8317	0.136
Mof_H 	H 	0.8274	0.6708	0.0319	-0.056
Mof_H 	H 	0.1704	0.4787	0.1648	0.14
Mof_H 	H 	0.0812	0.6044	0.1683	0.135
Mof_H 	H 	0.3274	0.8292	0.9681	-0.054
Mof_C 	C 	0.7403	0.879	0.5932	0.193
Mof_C 	C 	0.8176	0.7458	0.5028	0.109
Mof_C 	C 	0.2403	0.621	0.4068	0.192
Mof_C 	C 	0.3176	0.7542	0.4972	0.108
Mof_C 	C 	0.2597	0.121	0.0932	0.193
Mof_C 	C 	0.1824	0.2542	0.0028	0.105
Mof_C 	C 	0.7597	0.379	0.9068	0.191
Mof_C 	C 	0.6824	0.2458	0.9972	0.097
Mof_C 	C 	0.2597	0.121	0.4068	0.193
Mof_C 	C 	0.1824	0.2542	0.4972	0.109
Mof_C 	C 	0.7597	0.379	0.5932	0.192
Mof_C 	C 	0.6824	0.2458	0.5028	0.108
Mof_C 	C 	0.7403	0.879	0.9068	0.193
Mof_C 	C 	0.8176	0.7458	0.9972	0.105
Mof_C 	C 	0.2403	0.621	0.0932	0.191
Mof_C 	C 	0.3176	0.7542	0.0028	0.097
Mof_C 	C 	0.9753	0.1404	0.75	0.526
Mof_C 	C 	0.4753	0.3596	0.25	0.568
Mof_C 	C 	0.0247	0.8596	0.25	0.526
Mof_C 	C 	0.5247	0.6404	0.75	0.568
Mof_N 	N 	0.8545	0.9391	0.5598	-0.283
Mof_N 	N 	0.9024	0.8487	0.5011	-0.264
Mof_N 	N 	0.7137	0.7572	0.5592	-0.314
Mof_N 	N 	0.6534	0.9392	0.6488	-0.333
Mof_N 	N 	0.3545	0.5609	0.4402	-0.287
Mof_N 	N 	0.4024	0.6513	0.4989	-0.268
Mof_N 	N 	0.2137	0.7428	0.4408	-0.316
Mof_N 	N 	0.1534	0.5608	0.3512	-0.341
Mof_N 	N 	0.1455	0.0609	0.0598	-0.282
Mof_N 	N 	0.0976	0.1513	0.0011	-0.264
Mof_N 	N 	0.2863	0.2428	0.0592	-0.314
Mof_N 	N 	0.3466	0.0608	0.1488	-0.331
Mof_N 	N 	0.6455	0.4391	0.9402	-0.287
Mof_N 	N 	0.5976	0.3487	0.9989	-0.266
Mof_N 	N 	0.7863	0.2572	0.9408	-0.315
Mof_N 	N 	0.8466	0.4392	0.8512	-0.34
Mof_N 	N 	0.1455	0.0609	0.4402	-0.283
Mof_N 	N 	0.0976	0.1513	0.4989	-0.264
Mof_N 	N 	0.2863	0.2428	0.4408	-0.314
Mof_N 	N 	0.3466	0.0608	0.3512	-0.333
Mof_N 	N 	0.6455	0.4391	0.5598	-0.287
Mof_N 	N 	0.5976	0.3487	0.5011	-0.268
Mof_N 	N 	0.7863	0.2572	0.5592	-0.316
Mof_N 	N 	0.8466	0.4392	0.6488	-0.341
Mof_N 	N 	0.8545	0.9391	0.9402	-0.282
Mof_N 	N 	0.9024	0.8487	0.9989	-0.264
Mof_N 	N 	0.7137	0.7572	0.9408	-0.314
Mof_N 	N 	0.6534	0.9392	0.8512	-0.331
Mof_N 	N 	0.3545	0.5609	0.0598	-0.287
Mof_N 	N 	0.4024	0.6513	0.0011	-0.266
Mof_N 	N 	0.2137	0.7428	0.0592	-0.315
Mof_N 	N 	0.1534	0.5608	0.1488	-0.34
Mof_O 	O 	0.0418	0.1622	0.682	-0.519
Mof_O 	O 	0.5418	0.3378	0.318	-0.542
Mof_O 	O 	0.9582	0.8378	0.182	-0.518
Mof_O 	O 	0.4582	0.6622	0.818	-0.542
Mof_O 	O 	0.9582	0.8378	0.318	-0.519
Mof_O 	O 	0.4582	0.6622	0.682	-0.542
Mof_O 	O 	0.0418	0.1622	0.818	-0.518
Mof_O 	O 	0.5418	0.3378	0.182	-0.542
Mof_O 	O 	0.8498	0.1099	0.75	-0.465
Mof_O 	O 	0.3498	0.3901	0.25	-0.471
Mof_O 	O 	0.1502	0.8901	0.25	-0.465
Mof_O 	O 	0.6502	0.6099	0.75	-0.471
_end
