data_functionalizedCrystal
_audit_creation_method	'EQeq! by Chris Wilmer'
_symmetry_space_group_name_H-M	'P1'
_symmetry_Int_Tables_number	1
_symmetry_cell_setting	triclinic
loop_
_symmetry_equiv_pos_as_xyz
  x,y,z
_cell_length_a	35.2547
_cell_length_b	14.7628
_cell_length_c	31.0405
_cell_angle_alpha	90
_cell_angle_beta	101.841
_cell_angle_gamma	90
loop_
_atom_site_label
_atom_site_type_symbol
_atom_site_fract_x
_atom_site_fract_y
_atom_site_fract_z
_atom_site_charge
Mof_I 	I 	0.52356	0.85047	0.63271	-0.35
Mof_I 	I 	0.73416	0.26022	0.2967	-0.378
Mof_I 	I 	0.61628	0.75781	0.56048	-0.378
Mof_I 	I 	0.62872	0.3305	0.19743	-0.401
Mof_I 	I 	0.8898	0.24163	0.40066	-0.38
Mof_I 	I 	0.85267	0.09115	0.51025	-0.365
Mof_Zn	Zn	0.58058	0.87541	0.59557	1.166
Mof_Zn	Zn	0.87375	0.09653	0.43672	1.165
Mof_Zn	Zn	0.67233	0.35097	0.273	1.164
Mof_N 	N 	0.6838	0.4889	0.2787	-0.273
Mof_N 	N 	0.8321	0.03	0.392	-0.277
Mof_N 	N 	0.7207	0.9468	0.2716	-0.14
Mof_N 	N 	0.6807	0.8196	0.2505	-0.135
Mof_N 	N 	0.6195	0.0558	0.143	-0.276
Mof_N 	N 	0.6395	0.3342	0.3201	-0.281
Mof_N 	N 	0.5674	0.9797	0.5501	-0.271
Mof_N 	N 	0.5223	0.2705	0.4715	-0.147
Mof_N 	N 	0.7342	0.8084	0.3104	-0.138
Mof_N 	N 	0.4204	0.5111	0.4406	-0.28
Mof_N 	N 	0.5381	0.3525	0.4119	-0.134
Mof_N 	N 	0.5742	0.2206	0.4385	-0.135
Mof_C 	C 	0.5567	0.1322	0.496	0.058
Mof_C 	C 	0.6106	0.9723	0.1539	0.09
Mof_H 	H 	0.5879	0.9468	0.1381	-0.013
Mof_C 	C 	0.7733	0.9413	0.3346	0.064
Mof_C 	C 	0.666	0.9583	0.2104	0.071
Mof_C 	C 	0.6907	0.9059	0.2465	0.1
Mof_C 	C 	0.5513	0.2121	0.4665	0.088
Mof_C 	C 	0.7412	0.8961	0.3039	0.084
Mof_C 	C 	0.5172	0.3364	0.4419	0.09
Mof_C 	C 	0.6762	0.0464	0.2	-0.142
Mof_H 	H 	0.6986	0.0737	0.2156	0.087
Mof_C 	C 	0.7044	0.7735	0.2814	0.104
Mof_C 	C 	0.6499	0.2796	0.3553	0.086
Mof_H 	H 	0.6739	0.2509	0.3593	-0.015
Mof_C 	C 	0.6327	0.9211	0.1869	-0.139
Mof_H 	H 	0.6252	0.8629	0.1929	0.101
Mof_C 	C 	0.6521	0.0915	0.1659	0.081
Mof_H 	H 	0.6591	0.1495	0.1587	-0.012
Mof_C 	C 	0.6589	0.5468	0.2539	0.072
Mof_H 	H 	0.6371	0.5234	0.2351	-0.015
Mof_C 	C 	0.5917	0.308	0.3806	0.077
Mof_C 	C 	0.5669	0.293	0.4121	0.101
Mof_C 	C 	0.7152	0.5235	0.3053	0.079
Mof_H 	H 	0.7328	0.4841	0.3222	-0.014
Mof_C 	C 	0.4374	0.4661	0.4769	0.093
Mof_H 	H 	0.4277	0.474	0.5023	-0.011
Mof_C 	C 	0.6967	0.6748	0.2828	0.064
Mof_C 	C 	0.5876	0.0731	0.4971	-0.129
Mof_H 	H 	0.6053	0.084	0.4793	0.087
Mof_C 	C 	0.4839	0.3982	0.4421	0.066
Mof_C 	C 	0.7843	0.0274	0.3265	-0.148
Mof_H 	H 	0.7716	0.0575	0.3013	0.101
Mof_C 	C 	0.5811	0.3648	0.3445	-0.14
Mof_H 	H 	0.5576	0.3954	0.3399	0.093
Mof_C 	C 	0.7919	0.8997	0.3729	-0.131
Mof_H 	H 	0.7849	0.8417	0.38	0.092
Mof_C 	C 	0.8134	0.0693	0.3546	0.086
Mof_H 	H 	0.8207	0.1273	0.3479	-0.009
Mof_C 	C 	0.5306	0.1109	0.5225	-0.125
Mof_H 	H 	0.5092	0.1478	0.5225	0.077
Mof_C 	C 	0.8216	0.9463	0.4007	0.079
Mof_H 	H 	0.8345	0.918	0.4263	-0.003
Mof_C 	C 	0.6644	0.6379	0.2551	-0.131
Mof_H 	H 	0.6465	0.6756	0.2374	0.089
Mof_C 	C 	0.5365	0.0352	0.5486	0.072
Mof_H 	H 	0.5187	0.0215	0.566	-0.009
Mof_C 	C 	0.6276	0.2644	0.3849	-0.136
Mof_H 	H 	0.6361	0.2249	0.4082	0.094
Mof_C 	C 	0.7223	0.6146	0.3085	-0.133
Mof_H 	H 	0.7442	0.6364	0.3278	0.085
Mof_C 	C 	0.6052	0.3757	0.316	0.091
Mof_H 	H 	0.5974	0.4144	0.2922	-0.023
Mof_C 	C 	0.5922	0.9991	0.5242	0.077
Mof_H 	H 	0.6133	0.9612	0.5246	-0.016
Mof_C 	C 	0.4681	0.4095	0.4787	-0.146
Mof_H 	H 	0.4783	0.3785	0.5045	0.089
Mof_C 	C 	0.4353	0.4995	0.4053	0.091
Mof_H 	H 	0.4244	0.5313	0.3799	-0.022
Mof_C 	C 	0.4663	0.4425	0.4039	-0.141
Mof_H 	H 	0.4752	0.4343	0.3779	0.094
Mof_I 	I 	0.02356	0.35047	0.63271	-0.351
Mof_I 	I 	0.23416	0.76022	0.2967	-0.379
Mof_I 	I 	0.11628	0.25781	0.56048	-0.379
Mof_I 	I 	0.12872	0.8305	0.19743	-0.402
Mof_I 	I 	0.3898	0.74163	0.40066	-0.381
Mof_I 	I 	0.35267	0.59115	0.51025	-0.366
Mof_Zn	Zn	0.08058	0.37541	0.59557	1.166
Mof_Zn	Zn	0.37375	0.59653	0.43672	1.165
Mof_Zn	Zn	0.17233	0.85097	0.273	1.164
Mof_N 	N 	0.1838	0.9889	0.2787	-0.273
Mof_N 	N 	0.3321	0.53	0.392	-0.277
Mof_N 	N 	0.2207	0.4468	0.2716	-0.14
Mof_N 	N 	0.1807	0.3196	0.2505	-0.135
Mof_N 	N 	0.1195	0.5558	0.143	-0.276
Mof_N 	N 	0.1395	0.8342	0.3201	-0.281
Mof_N 	N 	0.0674	0.4797	0.5501	-0.271
Mof_N 	N 	0.0223	0.7705	0.4715	-0.147
Mof_N 	N 	0.2342	0.3084	0.3104	-0.138
Mof_N 	N 	0.9204	0.0111	0.4406	-0.28
Mof_N 	N 	0.0381	0.8525	0.4119	-0.134
Mof_N 	N 	0.0742	0.7206	0.4385	-0.135
Mof_C 	C 	0.0567	0.6322	0.496	0.058
Mof_C 	C 	0.1106	0.4723	0.1539	0.09
Mof_H 	H 	0.0879	0.4468	0.1381	-0.013
Mof_C 	C 	0.2733	0.4413	0.3346	0.064
Mof_C 	C 	0.166	0.4583	0.2104	0.071
Mof_C 	C 	0.1907	0.4059	0.2465	0.1
Mof_C 	C 	0.0513	0.7121	0.4665	0.088
Mof_C 	C 	0.2412	0.3961	0.3039	0.084
Mof_C 	C 	0.0172	0.8364	0.4419	0.09
Mof_C 	C 	0.1762	0.5464	0.2	-0.142
Mof_H 	H 	0.1986	0.5737	0.2156	0.087
Mof_C 	C 	0.2044	0.2735	0.2814	0.104
Mof_C 	C 	0.1499	0.7796	0.3553	0.086
Mof_H 	H 	0.1739	0.7509	0.3593	-0.015
Mof_C 	C 	0.1327	0.4211	0.1869	-0.139
Mof_H 	H 	0.1252	0.3629	0.1929	0.101
Mof_C 	C 	0.1521	0.5915	0.1659	0.081
Mof_H 	H 	0.1591	0.6495	0.1587	-0.012
Mof_C 	C 	0.1589	0.0468	0.2539	0.072
Mof_H 	H 	0.1371	0.0234	0.2351	-0.015
Mof_C 	C 	0.0917	0.808	0.3806	0.077
Mof_C 	C 	0.0669	0.793	0.4121	0.101
Mof_C 	C 	0.2152	0.0235	0.3053	0.079
Mof_H 	H 	0.2328	0.9841	0.3222	-0.014
Mof_C 	C 	0.9374	0.9661	0.4769	0.093
Mof_H 	H 	0.9277	0.974	0.5023	-0.011
Mof_C 	C 	0.1967	0.1748	0.2828	0.064
Mof_C 	C 	0.0876	0.5731	0.4971	-0.129
Mof_H 	H 	0.1053	0.584	0.4793	0.087
Mof_C 	C 	0.9839	0.8982	0.4421	0.066
Mof_C 	C 	0.2843	0.5274	0.3265	-0.148
Mof_H 	H 	0.2716	0.5575	0.3013	0.101
Mof_C 	C 	0.0811	0.8648	0.3445	-0.14
Mof_H 	H 	0.0576	0.8954	0.3399	0.093
Mof_C 	C 	0.2919	0.3997	0.3729	-0.131
Mof_H 	H 	0.2849	0.3417	0.38	0.092
Mof_C 	C 	0.3134	0.5693	0.3546	0.086
Mof_H 	H 	0.3207	0.6273	0.3479	-0.009
Mof_C 	C 	0.0306	0.6109	0.5225	-0.125
Mof_H 	H 	0.0092	0.6478	0.5225	0.077
Mof_C 	C 	0.3216	0.4463	0.4007	0.079
Mof_H 	H 	0.3345	0.418	0.4263	-0.003
Mof_C 	C 	0.1644	0.1379	0.2551	-0.131
Mof_H 	H 	0.1465	0.1756	0.2374	0.089
Mof_C 	C 	0.0365	0.5352	0.5486	0.072
Mof_H 	H 	0.0187	0.5215	0.566	-0.009
Mof_C 	C 	0.1276	0.7644	0.3849	-0.136
Mof_H 	H 	0.1361	0.7249	0.4082	0.094
Mof_C 	C 	0.2223	0.1146	0.3085	-0.133
Mof_H 	H 	0.2442	0.1364	0.3278	0.085
Mof_C 	C 	0.1052	0.8757	0.316	0.091
Mof_H 	H 	0.0974	0.9144	0.2922	-0.023
Mof_C 	C 	0.0922	0.4991	0.5242	0.077
Mof_H 	H 	0.1133	0.4612	0.5246	-0.016
Mof_C 	C 	0.9681	0.9095	0.4787	-0.146
Mof_H 	H 	0.9783	0.8785	0.5045	0.089
Mof_C 	C 	0.9353	0.9995	0.4053	0.091
Mof_H 	H 	0.9244	0.0313	0.3799	-0.022
Mof_C 	C 	0.9663	0.9425	0.4039	-0.141
Mof_H 	H 	0.9752	0.9343	0.3779	0.094
Mof_I 	I 	0.52356	0.14953	0.13271	-0.351
Mof_I 	I 	0.73416	0.73978	0.7967	-0.379
Mof_I 	I 	0.61628	0.24219	0.06048	-0.379
Mof_I 	I 	0.62872	0.6695	0.69743	-0.402
Mof_I 	I 	0.8898	0.75837	0.90066	-0.381
Mof_I 	I 	0.85267	0.90885	0.01025	-0.365
Mof_Zn	Zn	0.58058	0.12459	0.09557	1.166
Mof_Zn	Zn	0.87375	0.90347	0.93672	1.165
Mof_Zn	Zn	0.67233	0.64903	0.773	1.164
Mof_N 	N 	0.6838	0.5111	0.7787	-0.273
Mof_N 	N 	0.8321	0.97	0.892	-0.277
Mof_N 	N 	0.7207	0.0532	0.7716	-0.14
Mof_N 	N 	0.6807	0.1804	0.7505	-0.135
Mof_N 	N 	0.6195	0.9442	0.643	-0.276
Mof_N 	N 	0.6395	0.6658	0.8201	-0.281
Mof_N 	N 	0.5674	0.0203	0.0501	-0.271
Mof_N 	N 	0.5223	0.7295	0.9715	-0.147
Mof_N 	N 	0.7342	0.1916	0.8104	-0.138
Mof_N 	N 	0.4204	0.4889	0.9406	-0.28
Mof_N 	N 	0.5381	0.6475	0.9119	-0.134
Mof_N 	N 	0.5742	0.7794	0.9385	-0.135
Mof_C 	C 	0.5567	0.8678	0.996	0.057
Mof_C 	C 	0.6106	0.0277	0.6539	0.09
Mof_H 	H 	0.5879	0.0532	0.6381	-0.013
Mof_C 	C 	0.7733	0.0587	0.8346	0.064
Mof_C 	C 	0.666	0.0417	0.7104	0.071
Mof_C 	C 	0.6907	0.0941	0.7465	0.1
Mof_C 	C 	0.5513	0.7879	0.9665	0.088
Mof_C 	C 	0.7412	0.1039	0.8039	0.084
Mof_C 	C 	0.5172	0.6636	0.9419	0.09
Mof_C 	C 	0.6762	0.9536	0.7	-0.142
Mof_H 	H 	0.6986	0.9263	0.7156	0.087
Mof_C 	C 	0.7044	0.2265	0.7814	0.104
Mof_C 	C 	0.6499	0.7204	0.8553	0.086
Mof_H 	H 	0.6739	0.7491	0.8593	-0.015
Mof_C 	C 	0.6327	0.0789	0.6869	-0.139
Mof_H 	H 	0.6252	0.1371	0.6929	0.101
Mof_C 	C 	0.6521	0.9085	0.6659	0.081
Mof_H 	H 	0.6591	0.8505	0.6587	-0.012
Mof_C 	C 	0.6589	0.4532	0.7539	0.072
Mof_H 	H 	0.6371	0.4766	0.7351	-0.015
Mof_C 	C 	0.5917	0.692	0.8806	0.077
Mof_C 	C 	0.5669	0.707	0.9121	0.101
Mof_C 	C 	0.7152	0.4765	0.8053	0.079
Mof_H 	H 	0.7328	0.5159	0.8222	-0.014
Mof_C 	C 	0.4374	0.5339	0.9769	0.093
Mof_H 	H 	0.4277	0.526	0.0023	-0.011
Mof_C 	C 	0.6967	0.3252	0.7828	0.064
Mof_C 	C 	0.5876	0.9269	0.9971	-0.129
Mof_H 	H 	0.6053	0.916	0.9793	0.086
Mof_C 	C 	0.4839	0.6018	0.9421	0.066
Mof_C 	C 	0.7843	0.9726	0.8265	-0.148
Mof_H 	H 	0.7716	0.9425	0.8013	0.101
Mof_C 	C 	0.5811	0.6352	0.8445	-0.14
Mof_H 	H 	0.5576	0.6046	0.8399	0.093
Mof_C 	C 	0.7919	0.1003	0.8729	-0.131
Mof_H 	H 	0.7849	0.1583	0.88	0.092
Mof_C 	C 	0.8134	0.9307	0.8546	0.086
Mof_H 	H 	0.8207	0.8727	0.8479	-0.009
Mof_C 	C 	0.5306	0.8891	0.0225	-0.125
Mof_H 	H 	0.5092	0.8522	0.0225	0.077
Mof_C 	C 	0.8216	0.0537	0.9007	0.08
Mof_H 	H 	0.8345	0.082	0.9263	-0.003
Mof_C 	C 	0.6644	0.3621	0.7551	-0.131
Mof_H 	H 	0.6465	0.3244	0.7374	0.089
Mof_C 	C 	0.5365	0.9648	0.0486	0.072
Mof_H 	H 	0.5187	0.9785	0.066	-0.009
Mof_C 	C 	0.6276	0.7356	0.8849	-0.136
Mof_H 	H 	0.6361	0.7751	0.9082	0.094
Mof_C 	C 	0.7223	0.3854	0.8085	-0.133
Mof_H 	H 	0.7442	0.3636	0.8278	0.085
Mof_C 	C 	0.6052	0.6243	0.816	0.091
Mof_H 	H 	0.5974	0.5856	0.7922	-0.023
Mof_C 	C 	0.5922	0.0009	0.0242	0.077
Mof_H 	H 	0.6133	0.0388	0.0246	-0.016
Mof_C 	C 	0.4681	0.5905	0.9787	-0.146
Mof_H 	H 	0.4783	0.6215	0.0045	0.089
Mof_C 	C 	0.4353	0.5005	0.9053	0.091
Mof_H 	H 	0.4244	0.4687	0.8799	-0.022
Mof_C 	C 	0.4663	0.5575	0.9039	-0.141
Mof_H 	H 	0.4752	0.5657	0.8779	0.094
Mof_I 	I 	0.02356	0.64953	0.13271	-0.351
Mof_I 	I 	0.23416	0.23978	0.7967	-0.379
Mof_I 	I 	0.11628	0.74219	0.06048	-0.379
Mof_I 	I 	0.12872	0.1695	0.69743	-0.402
Mof_I 	I 	0.3898	0.25837	0.90066	-0.381
Mof_I 	I 	0.35267	0.40885	0.01025	-0.366
Mof_Zn	Zn	0.08058	0.62459	0.09557	1.166
Mof_Zn	Zn	0.37375	0.40347	0.93672	1.165
Mof_Zn	Zn	0.17233	0.14903	0.773	1.164
Mof_N 	N 	0.1838	0.0111	0.7787	-0.273
Mof_N 	N 	0.3321	0.47	0.892	-0.277
Mof_N 	N 	0.2207	0.5532	0.7716	-0.14
Mof_N 	N 	0.1807	0.6804	0.7505	-0.135
Mof_N 	N 	0.1195	0.4442	0.643	-0.276
Mof_N 	N 	0.1395	0.1658	0.8201	-0.281
Mof_N 	N 	0.0674	0.5203	0.0501	-0.271
Mof_N 	N 	0.0223	0.2295	0.9715	-0.147
Mof_N 	N 	0.2342	0.6916	0.8104	-0.138
Mof_N 	N 	0.9204	0.9889	0.9406	-0.281
Mof_N 	N 	0.0381	0.1475	0.9119	-0.134
Mof_N 	N 	0.0742	0.2794	0.9385	-0.135
Mof_C 	C 	0.0567	0.3678	0.996	0.058
Mof_C 	C 	0.1106	0.5277	0.6539	0.09
Mof_H 	H 	0.0879	0.5532	0.6381	-0.013
Mof_C 	C 	0.2733	0.5587	0.8346	0.064
Mof_C 	C 	0.166	0.5417	0.7104	0.071
Mof_C 	C 	0.1907	0.5941	0.7465	0.1
Mof_C 	C 	0.0513	0.2879	0.9665	0.088
Mof_C 	C 	0.2412	0.6039	0.8039	0.084
Mof_C 	C 	0.0172	0.1636	0.9419	0.09
Mof_C 	C 	0.1762	0.4536	0.7	-0.142
Mof_H 	H 	0.1986	0.4263	0.7156	0.087
Mof_C 	C 	0.2044	0.7265	0.7814	0.104
Mof_C 	C 	0.1499	0.2204	0.8553	0.086
Mof_H 	H 	0.1739	0.2491	0.8593	-0.015
Mof_C 	C 	0.1327	0.5789	0.6869	-0.139
Mof_H 	H 	0.1252	0.6371	0.6929	0.101
Mof_C 	C 	0.1521	0.4085	0.6659	0.081
Mof_H 	H 	0.1591	0.3505	0.6587	-0.012
Mof_C 	C 	0.1589	0.9532	0.7539	0.072
Mof_H 	H 	0.1371	0.9766	0.7351	-0.015
Mof_C 	C 	0.0917	0.192	0.8806	0.077
Mof_C 	C 	0.0669	0.207	0.9121	0.101
Mof_C 	C 	0.2152	0.9765	0.8053	0.079
Mof_H 	H 	0.2328	0.0159	0.8222	-0.014
Mof_C 	C 	0.9374	0.0339	0.9769	0.093
Mof_H 	H 	0.9277	0.026	0.0023	-0.012
Mof_C 	C 	0.1967	0.8252	0.7828	0.064
Mof_C 	C 	0.0876	0.4269	0.9971	-0.129
Mof_H 	H 	0.1053	0.416	0.9793	0.087
Mof_C 	C 	0.9839	0.1018	0.9421	0.066
Mof_C 	C 	0.2843	0.4726	0.8265	-0.148
Mof_H 	H 	0.2716	0.4425	0.8013	0.101
Mof_C 	C 	0.0811	0.1352	0.8445	-0.14
Mof_H 	H 	0.0576	0.1046	0.8399	0.093
Mof_C 	C 	0.2919	0.6003	0.8729	-0.131
Mof_H 	H 	0.2849	0.6583	0.88	0.092
Mof_C 	C 	0.3134	0.4307	0.8546	0.086
Mof_H 	H 	0.3207	0.3727	0.8479	-0.009
Mof_C 	C 	0.0306	0.3891	0.0225	-0.126
Mof_H 	H 	0.0092	0.3522	0.0225	0.077
Mof_C 	C 	0.3216	0.5537	0.9007	0.079
Mof_H 	H 	0.3345	0.582	0.9263	-0.003
Mof_C 	C 	0.1644	0.8621	0.7551	-0.13
Mof_H 	H 	0.1465	0.8244	0.7374	0.089
Mof_C 	C 	0.0365	0.4648	0.0486	0.072
Mof_H 	H 	0.0187	0.4785	0.066	-0.009
Mof_C 	C 	0.1276	0.2356	0.8849	-0.136
Mof_H 	H 	0.1361	0.2751	0.9082	0.094
Mof_C 	C 	0.2223	0.8854	0.8085	-0.133
Mof_H 	H 	0.2442	0.8636	0.8278	0.085
Mof_C 	C 	0.1052	0.1243	0.816	0.091
Mof_H 	H 	0.0974	0.0856	0.7922	-0.023
Mof_C 	C 	0.0922	0.5009	0.0242	0.077
Mof_H 	H 	0.1133	0.5388	0.0246	-0.016
Mof_C 	C 	0.9681	0.0905	0.9787	-0.146
Mof_H 	H 	0.9783	0.1215	0.0045	0.089
Mof_C 	C 	0.9353	0.0005	0.9053	0.091
Mof_H 	H 	0.9244	0.9687	0.8799	-0.023
Mof_C 	C 	0.9663	0.0575	0.9039	-0.141
Mof_H 	H 	0.9752	0.0657	0.8779	0.094
Mof_I 	I 	0.47644	0.85047	0.86729	-0.351
Mof_I 	I 	0.26584	0.26022	0.2033	-0.379
Mof_I 	I 	0.38372	0.75781	0.93952	-0.379
Mof_I 	I 	0.37128	0.3305	0.30257	-0.402
Mof_I 	I 	0.1102	0.24163	0.09934	-0.381
Mof_I 	I 	0.14733	0.09115	0.98975	-0.365
Mof_Zn	Zn	0.41942	0.87541	0.90443	1.166
Mof_Zn	Zn	0.12625	0.09653	0.06328	1.165
Mof_Zn	Zn	0.32767	0.35097	0.227	1.164
Mof_N 	N 	0.3162	0.4889	0.2213	-0.273
Mof_N 	N 	0.1679	0.03	0.108	-0.277
Mof_N 	N 	0.2793	0.9468	0.2284	-0.14
Mof_N 	N 	0.3193	0.8196	0.2495	-0.135
Mof_N 	N 	0.3805	0.0558	0.357	-0.276
Mof_N 	N 	0.3605	0.3342	0.1799	-0.281
Mof_N 	N 	0.4326	0.9797	0.9499	-0.271
Mof_N 	N 	0.4777	0.2705	0.0285	-0.147
Mof_N 	N 	0.2658	0.8084	0.1896	-0.138
Mof_N 	N 	0.5796	0.5111	0.0594	-0.28
Mof_N 	N 	0.4619	0.3525	0.0881	-0.134
Mof_N 	N 	0.4258	0.2206	0.0615	-0.135
Mof_C 	C 	0.4433	0.1322	0.004	0.057
Mof_C 	C 	0.3894	0.9723	0.3461	0.09
Mof_H 	H 	0.4121	0.9468	0.3619	-0.013
Mof_C 	C 	0.2267	0.9413	0.1654	0.064
Mof_C 	C 	0.334	0.9583	0.2896	0.071
Mof_C 	C 	0.3093	0.9059	0.2535	0.1
Mof_C 	C 	0.4487	0.2121	0.0335	0.088
Mof_C 	C 	0.2588	0.8961	0.1961	0.084
Mof_C 	C 	0.4828	0.3364	0.0581	0.09
Mof_C 	C 	0.3238	0.0464	0.3	-0.142
Mof_H 	H 	0.3014	0.0737	0.2844	0.087
Mof_C 	C 	0.2956	0.7735	0.2186	0.104
Mof_C 	C 	0.3501	0.2796	0.1447	0.086
Mof_H 	H 	0.3261	0.2509	0.1407	-0.015
Mof_C 	C 	0.3673	0.9211	0.3131	-0.139
Mof_H 	H 	0.3748	0.8629	0.3071	0.101
Mof_C 	C 	0.3479	0.0915	0.3341	0.081
Mof_H 	H 	0.3409	0.1495	0.3413	-0.012
Mof_C 	C 	0.3411	0.5468	0.2461	0.072
Mof_H 	H 	0.3629	0.5234	0.2649	-0.015
Mof_C 	C 	0.4083	0.308	0.1194	0.077
Mof_C 	C 	0.4331	0.293	0.0879	0.101
Mof_C 	C 	0.2848	0.5235	0.1947	0.079
Mof_H 	H 	0.2672	0.4841	0.1778	-0.014
Mof_C 	C 	0.5626	0.4661	0.0231	0.093
Mof_H 	H 	0.5723	0.474	0.9977	-0.011
Mof_C 	C 	0.3033	0.6748	0.2172	0.064
Mof_C 	C 	0.4124	0.0731	0.0029	-0.129
Mof_H 	H 	0.3947	0.084	0.0207	0.086
Mof_C 	C 	0.5161	0.3982	0.0579	0.066
Mof_C 	C 	0.2157	0.0274	0.1735	-0.148
Mof_H 	H 	0.2284	0.0575	0.1987	0.101
Mof_C 	C 	0.4189	0.3648	0.1555	-0.14
Mof_H 	H 	0.4424	0.3954	0.1601	0.093
Mof_C 	C 	0.2081	0.8997	0.1271	-0.131
Mof_H 	H 	0.2151	0.8417	0.12	0.092
Mof_C 	C 	0.1866	0.0693	0.1454	0.086
Mof_H 	H 	0.1793	0.1273	0.1521	-0.009
Mof_C 	C 	0.4694	0.1109	0.9775	-0.125
Mof_H 	H 	0.4908	0.1478	0.9775	0.077
Mof_C 	C 	0.1784	0.9463	0.0993	0.08
Mof_H 	H 	0.1655	0.918	0.0737	-0.003
Mof_C 	C 	0.3356	0.6379	0.2449	-0.131
Mof_H 	H 	0.3535	0.6756	0.2626	0.089
Mof_C 	C 	0.4635	0.0352	0.9514	0.072
Mof_H 	H 	0.4813	0.0215	0.934	-0.009
Mof_C 	C 	0.3724	0.2644	0.1151	-0.136
Mof_H 	H 	0.3639	0.2249	0.0918	0.094
Mof_C 	C 	0.2777	0.6146	0.1915	-0.133
Mof_H 	H 	0.2558	0.6364	0.1722	0.085
Mof_C 	C 	0.3948	0.3757	0.184	0.091
Mof_H 	H 	0.4026	0.4144	0.2078	-0.023
Mof_C 	C 	0.4078	0.9991	0.9758	0.077
Mof_H 	H 	0.3867	0.9612	0.9754	-0.016
Mof_C 	C 	0.5319	0.4095	0.0213	-0.146
Mof_H 	H 	0.5217	0.3785	0.9955	0.089
Mof_C 	C 	0.5647	0.4995	0.0947	0.091
Mof_H 	H 	0.5756	0.5313	0.1201	-0.022
Mof_C 	C 	0.5337	0.4425	0.0961	-0.141
Mof_H 	H 	0.5248	0.4343	0.1221	0.094
Mof_I 	I 	0.97644	0.35047	0.86729	-0.351
Mof_I 	I 	0.76584	0.76022	0.2033	-0.379
Mof_I 	I 	0.88372	0.25781	0.93952	-0.379
Mof_I 	I 	0.87128	0.8305	0.30257	-0.402
Mof_I 	I 	0.6102	0.74163	0.09934	-0.381
Mof_I 	I 	0.64733	0.59115	0.98975	-0.366
Mof_Zn	Zn	0.91942	0.37541	0.90443	1.166
Mof_Zn	Zn	0.62625	0.59653	0.06328	1.165
Mof_Zn	Zn	0.82767	0.85097	0.227	1.164
Mof_N 	N 	0.8162	0.9889	0.2213	-0.273
Mof_N 	N 	0.6679	0.53	0.108	-0.277
Mof_N 	N 	0.7793	0.4468	0.2284	-0.14
Mof_N 	N 	0.8193	0.3196	0.2495	-0.135
Mof_N 	N 	0.8805	0.5558	0.357	-0.276
Mof_N 	N 	0.8605	0.8342	0.1799	-0.281
Mof_N 	N 	0.9326	0.4797	0.9499	-0.271
Mof_N 	N 	0.9777	0.7705	0.0285	-0.147
Mof_N 	N 	0.7658	0.3084	0.1896	-0.138
Mof_N 	N 	0.0796	0.0111	0.0594	-0.281
Mof_N 	N 	0.9619	0.8525	0.0881	-0.134
Mof_N 	N 	0.9258	0.7206	0.0615	-0.135
Mof_C 	C 	0.9433	0.6322	0.004	0.058
Mof_C 	C 	0.8894	0.4723	0.3461	0.09
Mof_H 	H 	0.9121	0.4468	0.3619	-0.013
Mof_C 	C 	0.7267	0.4413	0.1654	0.064
Mof_C 	C 	0.834	0.4583	0.2896	0.071
Mof_C 	C 	0.8093	0.4059	0.2535	0.1
Mof_C 	C 	0.9487	0.7121	0.0335	0.088
Mof_C 	C 	0.7588	0.3961	0.1961	0.084
Mof_C 	C 	0.9828	0.8364	0.0581	0.09
Mof_C 	C 	0.8238	0.5464	0.3	-0.142
Mof_H 	H 	0.8014	0.5737	0.2844	0.087
Mof_C 	C 	0.7956	0.2735	0.2186	0.104
Mof_C 	C 	0.8501	0.7796	0.1447	0.086
Mof_H 	H 	0.8261	0.7509	0.1407	-0.015
Mof_C 	C 	0.8673	0.4211	0.3131	-0.139
Mof_H 	H 	0.8748	0.3629	0.3071	0.101
Mof_C 	C 	0.8479	0.5915	0.3341	0.081
Mof_H 	H 	0.8409	0.6495	0.3413	-0.012
Mof_C 	C 	0.8411	0.0468	0.2461	0.072
Mof_H 	H 	0.8629	0.0234	0.2649	-0.015
Mof_C 	C 	0.9083	0.808	0.1194	0.077
Mof_C 	C 	0.9331	0.793	0.0879	0.101
Mof_C 	C 	0.7848	0.0235	0.1947	0.079
Mof_H 	H 	0.7672	0.9841	0.1778	-0.014
Mof_C 	C 	0.0626	0.9661	0.0231	0.093
Mof_H 	H 	0.0723	0.974	0.9977	-0.012
Mof_C 	C 	0.8033	0.1748	0.2172	0.064
Mof_C 	C 	0.9124	0.5731	0.0029	-0.129
Mof_H 	H 	0.8947	0.584	0.0207	0.087
Mof_C 	C 	0.0161	0.8982	0.0579	0.066
Mof_C 	C 	0.7157	0.5274	0.1735	-0.148
Mof_H 	H 	0.7284	0.5575	0.1987	0.101
Mof_C 	C 	0.9189	0.8648	0.1555	-0.14
Mof_H 	H 	0.9424	0.8954	0.1601	0.093
Mof_C 	C 	0.7081	0.3997	0.1271	-0.131
Mof_H 	H 	0.7151	0.3417	0.12	0.092
Mof_C 	C 	0.6866	0.5693	0.1454	0.086
Mof_H 	H 	0.6793	0.6273	0.1521	-0.009
Mof_C 	C 	0.9694	0.6109	0.9775	-0.126
Mof_H 	H 	0.9908	0.6478	0.9775	0.077
Mof_C 	C 	0.6784	0.4463	0.0993	0.079
Mof_H 	H 	0.6655	0.418	0.0737	-0.003
Mof_C 	C 	0.8356	0.1379	0.2449	-0.13
Mof_H 	H 	0.8535	0.1756	0.2626	0.089
Mof_C 	C 	0.9635	0.5352	0.9514	0.072
Mof_H 	H 	0.9813	0.5215	0.934	-0.009
Mof_C 	C 	0.8724	0.7644	0.1151	-0.136
Mof_H 	H 	0.8639	0.7249	0.0918	0.094
Mof_C 	C 	0.7777	0.1146	0.1915	-0.133
Mof_H 	H 	0.7558	0.1364	0.1722	0.085
Mof_C 	C 	0.8948	0.8757	0.184	0.091
Mof_H 	H 	0.9026	0.9144	0.2078	-0.023
Mof_C 	C 	0.9078	0.4991	0.9758	0.077
Mof_H 	H 	0.8867	0.4612	0.9754	-0.016
Mof_C 	C 	0.0319	0.9095	0.0213	-0.146
Mof_H 	H 	0.0217	0.8785	0.9955	0.089
Mof_C 	C 	0.0647	0.9995	0.0947	0.091
Mof_H 	H 	0.0756	0.0313	0.1201	-0.023
Mof_C 	C 	0.0337	0.9425	0.0961	-0.141
Mof_H 	H 	0.0248	0.9343	0.1221	0.094
Mof_I 	I 	0.47644	0.14953	0.36729	-0.351
Mof_I 	I 	0.26584	0.73978	0.7033	-0.379
Mof_I 	I 	0.38372	0.24219	0.43952	-0.379
Mof_I 	I 	0.37128	0.6695	0.80257	-0.402
Mof_I 	I 	0.1102	0.75837	0.59934	-0.381
Mof_I 	I 	0.14733	0.90885	0.48975	-0.366
Mof_Zn	Zn	0.41942	0.12459	0.40443	1.166
Mof_Zn	Zn	0.12625	0.90347	0.56328	1.165
Mof_Zn	Zn	0.32767	0.64903	0.727	1.164
Mof_N 	N 	0.3162	0.5111	0.7213	-0.273
Mof_N 	N 	0.1679	0.97	0.608	-0.277
Mof_N 	N 	0.2793	0.0532	0.7284	-0.14
Mof_N 	N 	0.3193	0.1804	0.7495	-0.135
Mof_N 	N 	0.3805	0.9442	0.857	-0.276
Mof_N 	N 	0.3605	0.6658	0.6799	-0.281
Mof_N 	N 	0.4326	0.0203	0.4499	-0.271
Mof_N 	N 	0.4777	0.7295	0.5285	-0.147
Mof_N 	N 	0.2658	0.1916	0.6896	-0.138
Mof_N 	N 	0.5796	0.4889	0.5594	-0.28
Mof_N 	N 	0.4619	0.6475	0.5881	-0.134
Mof_N 	N 	0.4258	0.7794	0.5615	-0.135
Mof_C 	C 	0.4433	0.8678	0.504	0.058
Mof_C 	C 	0.3894	0.0277	0.8461	0.09
Mof_H 	H 	0.4121	0.0532	0.8619	-0.013
Mof_C 	C 	0.2267	0.0587	0.6654	0.064
Mof_C 	C 	0.334	0.0417	0.7896	0.071
Mof_C 	C 	0.3093	0.0941	0.7535	0.1
Mof_C 	C 	0.4487	0.7879	0.5335	0.088
Mof_C 	C 	0.2588	0.1039	0.6961	0.084
Mof_C 	C 	0.4828	0.6636	0.5581	0.09
Mof_C 	C 	0.3238	0.9536	0.8	-0.142
Mof_H 	H 	0.3014	0.9263	0.7844	0.087
Mof_C 	C 	0.2956	0.2265	0.7186	0.104
Mof_C 	C 	0.3501	0.7204	0.6447	0.086
Mof_H 	H 	0.3261	0.7491	0.6407	-0.015
Mof_C 	C 	0.3673	0.0789	0.8131	-0.139
Mof_H 	H 	0.3748	0.1371	0.8071	0.101
Mof_C 	C 	0.3479	0.9085	0.8341	0.081
Mof_H 	H 	0.3409	0.8505	0.8413	-0.012
Mof_C 	C 	0.3411	0.4532	0.7461	0.072
Mof_H 	H 	0.3629	0.4766	0.7649	-0.015
Mof_C 	C 	0.4083	0.692	0.6194	0.077
Mof_C 	C 	0.4331	0.707	0.5879	0.101
Mof_C 	C 	0.2848	0.4765	0.6947	0.079
Mof_H 	H 	0.2672	0.5159	0.6778	-0.014
Mof_C 	C 	0.5626	0.5339	0.5231	0.093
Mof_H 	H 	0.5723	0.526	0.4977	-0.011
Mof_C 	C 	0.3033	0.3252	0.7172	0.064
Mof_C 	C 	0.4124	0.9269	0.5029	-0.129
Mof_H 	H 	0.3947	0.916	0.5207	0.087
Mof_C 	C 	0.5161	0.6018	0.5579	0.066
Mof_C 	C 	0.2157	0.9726	0.6735	-0.148
Mof_H 	H 	0.2284	0.9425	0.6987	0.101
Mof_C 	C 	0.4189	0.6352	0.6555	-0.14
Mof_H 	H 	0.4424	0.6046	0.6601	0.093
Mof_C 	C 	0.2081	0.1003	0.6271	-0.131
Mof_H 	H 	0.2151	0.1583	0.62	0.092
Mof_C 	C 	0.1866	0.9307	0.6454	0.086
Mof_H 	H 	0.1793	0.8727	0.6521	-0.009
Mof_C 	C 	0.4694	0.8891	0.4775	-0.125
Mof_H 	H 	0.4908	0.8522	0.4775	0.077
Mof_C 	C 	0.1784	0.0537	0.5993	0.079
Mof_H 	H 	0.1655	0.082	0.5737	-0.003
Mof_C 	C 	0.3356	0.3621	0.7449	-0.131
Mof_H 	H 	0.3535	0.3244	0.7626	0.089
Mof_C 	C 	0.4635	0.9648	0.4514	0.072
Mof_H 	H 	0.4813	0.9785	0.434	-0.009
Mof_C 	C 	0.3724	0.7356	0.6151	-0.136
Mof_H 	H 	0.3639	0.7751	0.5918	0.094
Mof_C 	C 	0.2777	0.3854	0.6915	-0.133
Mof_H 	H 	0.2558	0.3636	0.6722	0.085
Mof_C 	C 	0.3948	0.6243	0.684	0.091
Mof_H 	H 	0.4026	0.5856	0.7078	-0.023
Mof_C 	C 	0.4078	0.0009	0.4758	0.077
Mof_H 	H 	0.3867	0.0388	0.4754	-0.016
Mof_C 	C 	0.5319	0.5905	0.5213	-0.146
Mof_H 	H 	0.5217	0.6215	0.4955	0.089
Mof_C 	C 	0.5647	0.5005	0.5947	0.091
Mof_H 	H 	0.5756	0.4687	0.6201	-0.022
Mof_C 	C 	0.5337	0.5575	0.5961	-0.141
Mof_H 	H 	0.5248	0.5657	0.6221	0.094
Mof_I 	I 	0.97644	0.64953	0.36729	-0.351
Mof_I 	I 	0.76584	0.23978	0.7033	-0.379
Mof_I 	I 	0.88372	0.74219	0.43952	-0.379
Mof_I 	I 	0.87128	0.1695	0.80257	-0.402
Mof_I 	I 	0.6102	0.25837	0.59934	-0.381
Mof_I 	I 	0.64733	0.40885	0.48975	-0.366
Mof_Zn	Zn	0.91942	0.62459	0.40443	1.166
Mof_Zn	Zn	0.62625	0.40347	0.56328	1.165
Mof_Zn	Zn	0.82767	0.14903	0.727	1.164
Mof_N 	N 	0.8162	0.0111	0.7213	-0.273
Mof_N 	N 	0.6679	0.47	0.608	-0.277
Mof_N 	N 	0.7793	0.5532	0.7284	-0.14
Mof_N 	N 	0.8193	0.6804	0.7495	-0.135
Mof_N 	N 	0.8805	0.4442	0.857	-0.276
Mof_N 	N 	0.8605	0.1658	0.6799	-0.281
Mof_N 	N 	0.9326	0.5203	0.4499	-0.271
Mof_N 	N 	0.9777	0.2295	0.5285	-0.147
Mof_N 	N 	0.7658	0.6916	0.6896	-0.138
Mof_N 	N 	0.0796	0.9889	0.5594	-0.28
Mof_N 	N 	0.9619	0.1475	0.5881	-0.134
Mof_N 	N 	0.9258	0.2794	0.5615	-0.135
Mof_C 	C 	0.9433	0.3678	0.504	0.058
Mof_C 	C 	0.8894	0.5277	0.8461	0.09
Mof_H 	H 	0.9121	0.5532	0.8619	-0.013
Mof_C 	C 	0.7267	0.5587	0.6654	0.064
Mof_C 	C 	0.834	0.5417	0.7896	0.071
Mof_C 	C 	0.8093	0.5941	0.7535	0.1
Mof_C 	C 	0.9487	0.2879	0.5335	0.088
Mof_C 	C 	0.7588	0.6039	0.6961	0.084
Mof_C 	C 	0.9828	0.1636	0.5581	0.09
Mof_C 	C 	0.8238	0.4536	0.8	-0.142
Mof_H 	H 	0.8014	0.4263	0.7844	0.087
Mof_C 	C 	0.7956	0.7265	0.7186	0.104
Mof_C 	C 	0.8501	0.2204	0.6447	0.086
Mof_H 	H 	0.8261	0.2491	0.6407	-0.015
Mof_C 	C 	0.8673	0.5789	0.8131	-0.139
Mof_H 	H 	0.8748	0.6371	0.8071	0.101
Mof_C 	C 	0.8479	0.4085	0.8341	0.081
Mof_H 	H 	0.8409	0.3505	0.8413	-0.012
Mof_C 	C 	0.8411	0.9532	0.7461	0.072
Mof_H 	H 	0.8629	0.9766	0.7649	-0.015
Mof_C 	C 	0.9083	0.192	0.6194	0.077
Mof_C 	C 	0.9331	0.207	0.5879	0.101
Mof_C 	C 	0.7848	0.9765	0.6947	0.079
Mof_H 	H 	0.7672	0.0159	0.6778	-0.014
Mof_C 	C 	0.0626	0.0339	0.5231	0.093
Mof_H 	H 	0.0723	0.026	0.4977	-0.011
Mof_C 	C 	0.8033	0.8252	0.7172	0.064
Mof_C 	C 	0.9124	0.4269	0.5029	-0.129
Mof_H 	H 	0.8947	0.416	0.5207	0.087
Mof_C 	C 	0.0161	0.1018	0.5579	0.066
Mof_C 	C 	0.7157	0.4726	0.6735	-0.148
Mof_H 	H 	0.7284	0.4425	0.6987	0.101
Mof_C 	C 	0.9189	0.1352	0.6555	-0.14
Mof_H 	H 	0.9424	0.1046	0.6601	0.093
Mof_C 	C 	0.7081	0.6003	0.6271	-0.131
Mof_H 	H 	0.7151	0.6583	0.62	0.092
Mof_C 	C 	0.6866	0.4307	0.6454	0.086
Mof_H 	H 	0.6793	0.3727	0.6521	-0.009
Mof_C 	C 	0.9694	0.3891	0.4775	-0.125
Mof_H 	H 	0.9908	0.3522	0.4775	0.077
Mof_C 	C 	0.6784	0.5537	0.5993	0.079
Mof_H 	H 	0.6655	0.582	0.5737	-0.003
Mof_C 	C 	0.8356	0.8621	0.7449	-0.131
Mof_H 	H 	0.8535	0.8244	0.7626	0.089
Mof_C 	C 	0.9635	0.4648	0.4514	0.072
Mof_H 	H 	0.9813	0.4785	0.434	-0.009
Mof_C 	C 	0.8724	0.2356	0.6151	-0.136
Mof_H 	H 	0.8639	0.2751	0.5918	0.094
Mof_C 	C 	0.7777	0.8854	0.6915	-0.133
Mof_H 	H 	0.7558	0.8636	0.6722	0.085
Mof_C 	C 	0.8948	0.1243	0.684	0.091
Mof_H 	H 	0.9026	0.0856	0.7078	-0.023
Mof_C 	C 	0.9078	0.5009	0.4758	0.077
Mof_H 	H 	0.8867	0.5388	0.4754	-0.016
Mof_C 	C 	0.0319	0.0905	0.5213	-0.146
Mof_H 	H 	0.0217	0.1215	0.4955	0.089
Mof_C 	C 	0.0647	0.0005	0.5947	0.091
Mof_H 	H 	0.0756	0.9687	0.6201	-0.022
Mof_C 	C 	0.0337	0.0575	0.5961	-0.141
Mof_H 	H 	0.0248	0.0657	0.6221	0.094
_end
