data_functionalizedCrystal
_audit_creation_method	'EQeq! by Chris Wilmer'
_symmetry_space_group_name_H-M	'P1'
_symmetry_Int_Tables_number	1
_symmetry_cell_setting	triclinic
loop_
_symmetry_equiv_pos_as_xyz
  x,y,z
_cell_length_a	13.795
_cell_length_b	12.83
_cell_length_c	18.815
_cell_angle_alpha	90
_cell_angle_beta	89.959
_cell_angle_gamma	90
loop_
_atom_site_label
_atom_site_type_symbol
_atom_site_fract_x
_atom_site_fract_y
_atom_site_fract_z
_atom_site_charge
Mof_P 	P 	0.7722	0.0963	0.0554	1.688
Mof_P 	P 	0.8887	0.7676	0.0618	1.666
Mof_P 	P 	0.1187	0.9643	0.1667	1.642
Mof_Al	Al	0.8895	0.9596	0.1655	5.838
Mof_Al	Al	0.1172	0.7746	0.0615	5.995
Mof_Al	Al	0.2267	0.0961	0.0495	5.647
Mof_O 	O 	0.1803	0.0474	0.1306	-1.772
Mof_O 	O 	0.8595	0.824	0.9939	-1.905
Mof_O 	O 	0.9947	0.7385	0.0578	-1.886
Mof_O 	O 	0.8466	0.1647	0.0178	-1.985
Mof_O 	O 	0.8168	0.0538	0.1236	-1.826
Mof_O 	O 	0.0124	0.9949	0.1582	-1.959
Mof_O 	O 	0.1377	0.8583	0.1335	-1.954
Mof_O 	O 	0.8319	0.6678	0.0702	-1.774
Mof_O 	O 	0.1471	0.959	0.2449	-1.81
Mof_O 	O 	0.6837	0.1601	0.0758	-1.867
Mof_O 	O 	0.87	0.8364	0.1267	-1.917
Mof_O 	O 	0.74	0.0091	0.0071	-1.849
Mof_P 	P 	0.2722	0.5963	0.0554	1.69
Mof_P 	P 	0.3887	0.2676	0.0618	1.681
Mof_P 	P 	0.6187	0.4643	0.1667	1.66
Mof_Al	Al	0.3895	0.4596	0.1655	5.874
Mof_Al	Al	0.6172	0.2746	0.0615	6.106
Mof_Al	Al	0.7267	0.5961	0.0495	5.661
Mof_O 	O 	0.6803	0.5474	0.1306	-1.785
Mof_O 	O 	0.3595	0.324	0.9939	-1.919
Mof_O 	O 	0.4947	0.2385	0.0578	-1.911
Mof_O 	O 	0.3466	0.6647	0.0178	-2.024
Mof_O 	O 	0.3168	0.5538	0.1236	-1.843
Mof_O 	O 	0.5124	0.4949	0.1582	-1.963
Mof_O 	O 	0.6377	0.3583	0.1335	-1.975
Mof_O 	O 	0.3319	0.1678	0.0702	-1.771
Mof_O 	O 	0.6471	0.459	0.2449	-1.815
Mof_O 	O 	0.1837	0.6601	0.0758	-1.85
Mof_O 	O 	0.37	0.3364	0.1267	-1.925
Mof_O 	O 	0.24	0.5091	0.0071	-1.864
Mof_P 	P 	0.2278	0.0963	0.4446	1.691
Mof_P 	P 	0.1113	0.7676	0.4382	1.675
Mof_P 	P 	0.8813	0.9643	0.3333	1.652
Mof_Al	Al	0.1105	0.9596	0.3345	5.846
Mof_Al	Al	0.8828	0.7746	0.4385	6.078
Mof_Al	Al	0.7733	0.0961	0.4505	5.652
Mof_O 	O 	0.8197	0.0474	0.3694	-1.778
Mof_O 	O 	0.1405	0.824	0.5061	-1.911
Mof_O 	O 	0.0053	0.7385	0.4422	-1.908
Mof_O 	O 	0.1534	0.1647	0.4822	-2.012
Mof_O 	O 	0.1832	0.0538	0.3764	-1.833
Mof_O 	O 	0.9876	0.9949	0.3418	-1.955
Mof_O 	O 	0.8623	0.8583	0.3665	-1.969
Mof_O 	O 	0.1681	0.6678	0.4298	-1.774
Mof_O 	O 	0.8529	0.959	0.2551	-1.808
Mof_O 	O 	0.3163	0.1601	0.4242	-1.864
Mof_O 	O 	0.13	0.8364	0.3733	-1.92
Mof_O 	O 	0.26	0.0091	0.4929	-1.861
Mof_P 	P 	0.7278	0.5963	0.4446	1.693
Mof_P 	P 	0.6113	0.2676	0.4382	1.676
Mof_P 	P 	0.3813	0.4643	0.3333	1.659
Mof_Al	Al	0.6105	0.4596	0.3345	5.874
Mof_Al	Al	0.3828	0.2746	0.4385	6.078
Mof_Al	Al	0.2733	0.5961	0.4505	5.653
Mof_O 	O 	0.3197	0.5474	0.3694	-1.784
Mof_O 	O 	0.6405	0.324	0.5061	-1.912
Mof_O 	O 	0.5053	0.2385	0.4422	-1.907
Mof_O 	O 	0.6534	0.6647	0.4822	-2.013
Mof_O 	O 	0.6832	0.5538	0.3764	-1.843
Mof_O 	O 	0.4876	0.4949	0.3418	-1.962
Mof_O 	O 	0.3623	0.3583	0.3665	-1.97
Mof_O 	O 	0.6681	0.1678	0.4298	-1.773
Mof_O 	O 	0.3529	0.459	0.2551	-1.815
Mof_O 	O 	0.8163	0.6601	0.4242	-1.865
Mof_O 	O 	0.63	0.3364	0.3733	-1.925
Mof_O 	O 	0.76	0.5091	0.4929	-1.861
Mof_P 	P 	0.2278	0.9037	0.9446	1.687
Mof_P 	P 	0.1113	0.2324	0.9382	1.665
Mof_P 	P 	0.8813	0.0357	0.8333	1.641
Mof_Al	Al	0.1105	0.0404	0.8345	5.837
Mof_Al	Al	0.8828	0.2254	0.9385	5.994
Mof_Al	Al	0.7733	0.9039	0.9505	5.646
Mof_O 	O 	0.8197	0.9526	0.8694	-1.772
Mof_O 	O 	0.1405	0.176	0.0061	-1.905
Mof_O 	O 	0.0053	0.2615	0.9422	-1.886
Mof_O 	O 	0.1534	0.8353	0.9822	-1.985
Mof_O 	O 	0.1832	0.9462	0.8764	-1.826
Mof_O 	O 	0.9876	0.0051	0.8418	-1.959
Mof_O 	O 	0.8623	0.1417	0.8665	-1.954
Mof_O 	O 	0.1681	0.3322	0.9298	-1.774
Mof_O 	O 	0.8529	0.041	0.7551	-1.81
Mof_O 	O 	0.3163	0.8399	0.9242	-1.867
Mof_O 	O 	0.13	0.1636	0.8733	-1.917
Mof_O 	O 	0.26	0.9909	0.9929	-1.849
Mof_P 	P 	0.7278	0.4037	0.9446	1.69
Mof_P 	P 	0.6113	0.7324	0.9382	1.681
Mof_P 	P 	0.3813	0.5357	0.8333	1.66
Mof_Al	Al	0.6105	0.5404	0.8345	5.874
Mof_Al	Al	0.3828	0.7254	0.9385	6.106
Mof_Al	Al	0.2733	0.4039	0.9505	5.661
Mof_O 	O 	0.3197	0.4526	0.8694	-1.785
Mof_O 	O 	0.6405	0.676	0.0061	-1.919
Mof_O 	O 	0.5053	0.7615	0.9422	-1.911
Mof_O 	O 	0.6534	0.3353	0.9822	-2.024
Mof_O 	O 	0.6832	0.4462	0.8764	-1.843
Mof_O 	O 	0.4876	0.5051	0.8418	-1.963
Mof_O 	O 	0.3623	0.6417	0.8665	-1.975
Mof_O 	O 	0.6681	0.8322	0.9298	-1.771
Mof_O 	O 	0.3529	0.541	0.7551	-1.815
Mof_O 	O 	0.8163	0.3399	0.9242	-1.85
Mof_O 	O 	0.63	0.6636	0.8733	-1.925
Mof_O 	O 	0.76	0.4909	0.9929	-1.864
Mof_P 	P 	0.7722	0.9037	0.5554	1.691
Mof_P 	P 	0.8887	0.2324	0.5618	1.675
Mof_P 	P 	0.1187	0.0357	0.6667	1.652
Mof_Al	Al	0.8895	0.0404	0.6655	5.846
Mof_Al	Al	0.1172	0.2254	0.5615	6.078
Mof_Al	Al	0.2267	0.9039	0.5495	5.652
Mof_O 	O 	0.1803	0.9526	0.6306	-1.778
Mof_O 	O 	0.8595	0.176	0.4939	-1.911
Mof_O 	O 	0.9947	0.2615	0.5578	-1.908
Mof_O 	O 	0.8466	0.8353	0.5178	-2.012
Mof_O 	O 	0.8168	0.9462	0.6236	-1.833
Mof_O 	O 	0.0124	0.0051	0.6582	-1.955
Mof_O 	O 	0.1377	0.1417	0.6335	-1.969
Mof_O 	O 	0.8319	0.3322	0.5702	-1.774
Mof_O 	O 	0.1471	0.041	0.7449	-1.808
Mof_O 	O 	0.6837	0.8399	0.5758	-1.864
Mof_O 	O 	0.87	0.1636	0.6267	-1.92
Mof_O 	O 	0.74	0.9909	0.5071	-1.861
Mof_P 	P 	0.2722	0.4037	0.5554	1.693
Mof_P 	P 	0.3887	0.7324	0.5618	1.676
Mof_P 	P 	0.6187	0.5357	0.6667	1.659
Mof_Al	Al	0.3895	0.5404	0.6655	5.874
Mof_Al	Al	0.6172	0.7254	0.5615	6.078
Mof_Al	Al	0.7267	0.4039	0.5495	5.653
Mof_O 	O 	0.6803	0.4526	0.6306	-1.784
Mof_O 	O 	0.3595	0.676	0.4939	-1.912
Mof_O 	O 	0.4947	0.7615	0.5578	-1.907
Mof_O 	O 	0.3466	0.3353	0.5178	-2.013
Mof_O 	O 	0.3168	0.4462	0.6236	-1.843
Mof_O 	O 	0.5124	0.5051	0.6582	-1.962
Mof_O 	O 	0.6377	0.6417	0.6335	-1.97
Mof_O 	O 	0.3319	0.8322	0.5702	-1.773
Mof_O 	O 	0.6471	0.541	0.7449	-1.815
Mof_O 	O 	0.1837	0.3399	0.5758	-1.865
Mof_O 	O 	0.37	0.6636	0.6267	-1.925
Mof_O 	O 	0.24	0.4909	0.5071	-1.861
_end
