data_functionalizedCrystal
_audit_creation_method	'EQeq! by Chris Wilmer'
_symmetry_space_group_name_H-M	'P1'
_symmetry_Int_Tables_number	1
_symmetry_cell_setting	triclinic
loop_
_symmetry_equiv_pos_as_xyz
  x,y,z
_cell_length_a	9.4111
_cell_length_b	9.1066
_cell_length_c	9.695
_cell_angle_alpha	90
_cell_angle_beta	117.272
_cell_angle_gamma	90
loop_
_atom_site_label
_atom_site_type_symbol
_atom_site_fract_x
_atom_site_fract_y
_atom_site_fract_z
_atom_site_charge
Mof_P 	P 	0.83172	0.10162	0.06395	0.642
Mof_P 	P 	0.35592	0.34309	0.02725	0.676
Mof_O 	O 	0.73368	0.22278	0.09113	-0.484
Mof_O 	O 	0.74714	0.05986	0.89182	-0.436
Mof_O 	O 	0.84059	0.9635	0.16485	-0.452
Mof_H 	H 	0.7491	0.9263	0.132	0.302
Mof_O 	O 	0.00394	0.14504	0.11785	-0.475
Mof_O 	O 	0.25602	0.26612	0.09126	-0.471
Mof_O 	O 	0.41231	0.22249	0.94313	-0.459
Mof_H 	H 	0.5111	0.2086	0.9951	0.272
Mof_O 	O 	0.50552	0.41304	0.15275	-0.503
Mof_O 	O 	0.24952	0.44982	0.90361	-0.456
Mof_P 	P 	0.66828	0.10162	0.43605	0.658
Mof_P 	P 	0.14408	0.34309	0.47275	0.68
Mof_O 	O 	0.76632	0.22278	0.40887	-0.483
Mof_O 	O 	0.75286	0.05986	0.60818	-0.445
Mof_O 	O 	0.65941	0.9635	0.33515	-0.461
Mof_H 	H 	0.7509	0.9263	0.368	0.302
Mof_O 	O 	0.49606	0.14504	0.38215	-0.478
Mof_O 	O 	0.24398	0.26612	0.40874	-0.469
Mof_O 	O 	0.08769	0.22249	0.55687	-0.458
Mof_H 	H 	0.9889	0.2086	0.5049	0.265
Mof_O 	O 	0.99448	0.41304	0.34725	-0.505
Mof_O 	O 	0.25048	0.44982	0.59639	-0.458
Mof_P 	P 	0.16828	0.89838	0.93605	0.641
Mof_P 	P 	0.64408	0.65691	0.97275	0.675
Mof_O 	O 	0.26632	0.77722	0.90887	-0.484
Mof_O 	O 	0.25286	0.94014	0.10818	-0.436
Mof_O 	O 	0.15941	0.0365	0.83515	-0.452
Mof_H 	H 	0.2509	0.0737	0.868	0.302
Mof_O 	O 	0.99606	0.85496	0.88215	-0.475
Mof_O 	O 	0.74398	0.73388	0.90874	-0.471
Mof_O 	O 	0.58769	0.77751	0.05687	-0.459
Mof_H 	H 	0.4889	0.7914	0.0049	0.272
Mof_O 	O 	0.49448	0.58696	0.84725	-0.503
Mof_O 	O 	0.75048	0.55018	0.09639	-0.456
Mof_P 	P 	0.33172	0.89838	0.56395	0.658
Mof_P 	P 	0.85592	0.65691	0.52725	0.68
Mof_O 	O 	0.23368	0.77722	0.59113	-0.483
Mof_O 	O 	0.24714	0.94014	0.39182	-0.445
Mof_O 	O 	0.34059	0.0365	0.66485	-0.461
Mof_H 	H 	0.2491	0.0737	0.632	0.302
Mof_O 	O 	0.50394	0.85496	0.61785	-0.478
Mof_O 	O 	0.75602	0.73388	0.59126	-0.469
Mof_O 	O 	0.91231	0.77751	0.44313	-0.458
Mof_H 	H 	0.0111	0.7914	0.4951	0.265
Mof_O 	O 	0.00552	0.58696	0.65275	-0.505
Mof_O 	O 	0.74952	0.55018	0.40361	-0.458
Mof_Sc	Sc	0.75	0.39364	0.25	1.851
Mof_Sc	Sc	0.25	0.60636	0.75	1.851
Mof_Sc	Sc	0.75	0.88254	0.75	1.846
Mof_Sc	Sc	0.25	0.11746	0.25	1.846
_end
