data_functionalizedCrystal
_audit_creation_method	'EQeq! by Chris Wilmer'
_symmetry_space_group_name_H-M	'P1'
_symmetry_Int_Tables_number	1
_symmetry_cell_setting	triclinic
loop_
_symmetry_equiv_pos_as_xyz
  x,y,z
_cell_length_a	6.7677
_cell_length_b	15.1074
_cell_length_c	15.1074
_cell_angle_alpha	62.1892
_cell_angle_beta	81.4122
_cell_angle_gamma	98.5878
loop_
_atom_site_label
_atom_site_type_symbol
_atom_site_fract_x
_atom_site_fract_y
_atom_site_fract_z
_atom_site_charge
Mof_Co	Co	0.1158	0.2962	0.2808	1.141
Mof_Co	Co	0.1158	0.7192	0.7038	1.142
Mof_Co	Co	0.3966	0.577	0.7192	1.158
Mof_Co	Co	0.8196	0.423	0.2962	1.17
Mof_Co	Co	0.8196	0.7038	0.577	1.171
Mof_Co	Co	0.3966	0.2808	0.423	1.158
Mof_H 	H 	0.2518	4.34633e-17	0.4806	0.118
Mof_H 	H 	0.7324	0.4806	0.5194	0.126
Mof_H 	H 	0.52665	4.34633e-17	0.57405	-0.012
Mof_H 	H 	0.2518	0.5194	-0	0.117
Mof_H 	H 	0.52665	0.42595	-0	-0.011
Mof_H 	H 	0.1007	0.57405	0.42595	-0.024
Mof_C 	C 	0.7456	0.541	0.8146	0.445
Mof_C 	C 	0.2046	0.6444	0.541	0.462
Mof_C 	C 	0.733	0.9069	0.5879	-0.384
Mof_C 	C 	0.5602	0.8146	0.6444	0.466
Mof_C 	C 	0.3209	0.5879	0.5052	-0.383
Mof_C 	C 	0.08865	0.49795	-0	-0.371
Mof_C 	C 	0.8261	0.5052	0.9069	-0.314
Mof_C 	C 	0.8261	0.0931	0.4948	-0.324
Mof_C 	C 	0.2469	0.55785	0.44215	0.257
Mof_C 	C 	0.9424	0.9011	0.5629	0.414
Mof_C 	C 	0.5602	0.3556	0.1854	0.463
Mof_C 	C 	0.68905	0.44215	-0	0.236
Mof_C 	C 	0.0413	0.0989	0.464	0.328
Mof_C 	C 	0.7456	0.1854	0.459	0.448
Mof_C 	C 	0.9424	0.4371	0.0989	0.415
Mof_C 	C 	0.5053	0.464	0.4371	0.376
Mof_C 	C 	0.2046	0.459	0.3556	0.462
Mof_C 	C 	0.5907	0.50205	0.49795	-0.329
Mof_C 	C 	0.0413	0.536	0.9011	0.325
Mof_C 	C 	0.08865	0	0.50205	-0.367
Mof_C 	C 	0.5053	0.5629	0.536	0.376
Mof_C 	C 	0.733	0.4121	0.0931	-0.373
Mof_C 	C 	0.68905	4.34633e-17	0.55785	0.254
Mof_C 	C 	0.3209	0.4948	0.4121	-0.383
Mof_O 	O 	0.5938	0.7283	0.6586	-0.59
Mof_O 	O 	0.1783	0.1827	0.4038	-0.574
Mof_O 	O 	0.8655	0.2717	0.3869	-0.564
Mof_O 	O 	0.9956	0.8173	0.5865	-0.56
Mof_O 	O 	0.9956	0.4135	0.1827	-0.56
Mof_O 	O 	0.2524	0.3869	0.3414	-0.6
Mof_O 	O 	0.0562	0.6716	0.501	-0.488
Mof_O 	O 	0.2524	0.6586	0.6131	-0.601
Mof_O 	O 	0.5572	0.1726	0.499	-0.459
Mof_O 	O 	0.5821	0.4038	0.4135	-0.572
Mof_O 	O 	0.8655	0.6131	0.7283	-0.563
Mof_O 	O 	0.5572	0.501	0.8274	-0.458
Mof_O 	O 	0.5821	0.5865	0.5962	-0.572
Mof_O 	O 	0.3846	0.3284	0.1726	-0.469
Mof_O 	O 	0.0562	0.499	0.3284	-0.488
Mof_O 	O 	0.3846	0.8274	0.6716	-0.472
Mof_O 	O 	0.1783	0.5962	0.8173	-0.574
Mof_O 	O 	0.5938	0.3414	0.2717	-0.589
_end
