data_functionalizedCrystal
_audit_creation_method	'EQeq! by Chris Wilmer'
_symmetry_space_group_name_H-M	'P1'
_symmetry_Int_Tables_number	1
_symmetry_cell_setting	triclinic
loop_
_symmetry_equiv_pos_as_xyz
  x,y,z
_cell_length_a	26.343
_cell_length_b	27.158
_cell_length_c	27.158
_cell_angle_alpha	90
_cell_angle_beta	90
_cell_angle_gamma	90
loop_
_atom_site_label
_atom_site_type_symbol
_atom_site_fract_x
_atom_site_fract_y
_atom_site_fract_z
_atom_site_charge
Mof_Cd	Cd	0.6342	0.34021	0.18752	0.352
Mof_Cd	Cd	0.69828	0.14219	0.32525	0.46
Mof_Cd	Cd	0.83183	0.19919	0.12433	0.358
Mof_Cd	Cd	0.59635	0.11147	0.09902	0.292
Mof_Cu	Cu	0.61871	0.22366	0.1453	0.856
Mof_Cu	Cu	0.75809	0.17162	0.22526	0.891
Mof_Cu	Cu	0.66542	0.24166	0.25134	0.892
Mof_Cu	Cu	0.6453	0.13232	0.21278	0.861
Mof_Cu	Cu	0.73205	0.26345	0.15721	0.892
Mof_Cu	Cu	0.71188	0.15427	0.11866	0.89
Mof_C 	C 	0.6635	0.277	0.9059	0.104
Mof_H 	H 	0.6443	0.2643	0.8801	0.008
Mof_C 	C 	0.7177	0.3318	0.934	0.126
Mof_H 	H 	0.739	0.3585	0.928	0.003
Mof_C 	C 	0.7164	0.3142	0.9801	-0.214
Mof_H 	H 	0.7351	0.3293	0.005	0.097
Mof_C 	C 	0.6866	0.2728	0.9901	0.152
Mof_C 	C 	0.7593	0.2464	0.3036	0.136
Mof_H 	H 	0.7865	0.2285	0.3197	-0.005
Mof_H 	H 	0.7399	0.2632	0.3289	-0.009
Mof_C 	C 	0.5429	0.1681	0.1991	0.158
Mof_H 	H 	0.5305	0.1359	0.2092	-0.042
Mof_H 	H 	0.5184	0.1817	0.1762	-0.045
Mof_C 	C 	0.5456	0.2015	0.2445	-0.212
Mof_C 	C 	0.5825	0.1824	0.2835	0.133
Mof_H 	H 	0.5807	0.2042	0.3117	-0.002
Mof_H 	H 	0.5706	0.1503	0.2943	-0
Mof_C 	C 	0.6856	0.2506	0.0443	-0.182
Mof_C 	C 	0.6507	0.206	0.0458	0.138
Mof_H 	H 	0.6168	0.2162	0.0363	-0.037
Mof_H 	H 	0.6623	0.1822	0.0216	-0.017
Mof_C 	C 	0.66	0.2535	0.9524	-0.203
Mof_H 	H 	0.6399	0.2257	0.9567	0.088
Mof_C 	C 	0.7435	0.3196	0.2453	0.126
Mof_H 	H 	0.727	0.3388	0.2708	-0.01
Mof_H 	H 	0.7612	0.3423	0.2237	-0.004
Mof_C 	C 	0.7821	0.2843	0.2691	-0.205
Mof_C 	C 	0.8144	0.2603	0.2279	0.151
Mof_H 	H 	0.8308	0.2862	0.209	-0.015
Mof_H 	H 	0.841	0.2407	0.243	-0.014
Mof_C 	C 	0.6949	0.0548	0.1551	0.11
Mof_H 	H 	0.7037	0.0432	0.1224	-0.006
Mof_H 	H 	0.671	0.0316	0.1691	-0.022
Mof_C 	C 	0.7416	0.0551	0.1859	-0.177
Mof_C 	C 	0.7299	0.0688	0.2382	0.128
Mof_H 	H 	0.7053	0.0456	0.2511	-0.019
Mof_H 	H 	0.7606	0.0656	0.2576	-0.005
Mof_C 	C 	0.7845	0.0869	0.1646	0.086
Mof_H 	H 	0.8143	0.0839	0.1854	0.006
Mof_H 	H 	0.7933	0.0749	0.1321	0.003
Mof_C 	C 	0.5597	0.2532	0.2296	0.149
Mof_H 	H 	0.5343	0.2653	0.2067	-0.035
Mof_H 	H 	0.5584	0.274	0.2586	-0.017
Mof_C 	C 	0.7409	0.2345	0.055	0.136
Mof_H 	H 	0.7509	0.2094	0.0315	-0.012
Mof_H 	H 	0.7633	0.2625	0.0507	-0.012
Mof_C 	C 	0.4939	0.2032	0.2715	0.178
Mof_C 	C 	0.8169	0.3187	0.1106	0.581
Mof_C 	C 	0.7645	0.0034	0.1863	0.165
Mof_C 	C 	0.6282	0.3333	0.3078	0.609
Mof_C 	C 	0.8192	0.3176	0.3011	0.235
Mof_C 	C 	0.8037	0.3471	0.3343	-0.279
Mof_H 	H 	0.7689	0.3525	0.336	0.114
Mof_C 	C 	0.8999	0.3371	0.3361	0.17
Mof_H 	H 	0.9346	0.3304	0.3359	-0.038
Mof_C 	C 	0.8683	0.3129	0.3042	-0.286
Mof_H 	H 	0.8835	0.2909	0.2825	0.123
Mof_C 	C 	0.8341	0.3722	0.3685	0.154
Mof_H 	H 	0.8191	0.3913	0.3929	-0.048
Mof_C 	C 	0.621	0.3595	0.3564	-1.089
Mof_H 	H 	0.6114	0.3931	0.3505	0.347
Mof_H 	H 	0.6522	0.3588	0.3747	0.341
Mof_H 	H 	0.5949	0.3434	0.375	0.347
Mof_C 	C 	0.4652	0.1615	0.2791	-0.219
Mof_H 	H 	0.4769	0.132	0.266	0.096
Mof_C 	C 	0.475	0.243	0.2942	-0.235
Mof_H 	H 	0.492	0.2729	0.2921	0.106
Mof_C 	C 	0.8404	0.3671	0.0868	-0.966
Mof_H 	H 	0.8736	0.36	0.0742	0.313
Mof_H 	H 	0.8426	0.3924	0.1113	0.315
Mof_H 	H 	0.819	0.378	0.0603	0.311
Mof_C 	C 	0.4303	0.2397	0.3206	0.13
Mof_H 	H 	0.4181	0.2686	0.3346	-0.008
Mof_C 	C 	0.4198	0.1608	0.305	0.123
Mof_H 	H 	0.4007	0.1321	0.3061	-0.013
Mof_C 	C 	0.7674	0.9757	0.1465	-0.215
Mof_H 	H 	0.7543	0.9871	0.1168	0.097
Mof_C 	C 	0.7828	0.9816	0.2272	-0.199
Mof_H 	H 	0.7781	0.9973	0.2573	0.096
Mof_C 	C 	0.8099	0.9341	0.2267	0.096
Mof_H 	H 	0.8234	0.9213	0.2557	0.005
Mof_C 	C 	0.7912	0.9271	0.149	0.114
Mof_H 	H 	0.7888	0.9071	0.1213	-0.009
Mof_C 	C 	0.8217	0.1347	0.3103	0.49
Mof_C 	C 	0.8767	0.1297	0.3363	-0.844
Mof_H 	H 	0.8722	0.1224	0.3707	0.276
Mof_H 	H 	0.8949	0.1602	0.3329	0.278
Mof_H 	H 	0.8955	0.1037	0.3209	0.275
Mof_C 	C 	0.6545	0.058	0.3628	1.146
Mof_C 	C 	0.6329	0.0141	0.3887	-1.713
Mof_H 	H 	0.6388	0.9851	0.3693	0.532
Mof_H 	H 	0.597	0.0185	0.3932	0.532
Mof_H 	H 	0.6489	0.0104	0.4202	0.535
Mof_C 	C 	0.7013	0.0932	0.0277	0.339
Mof_C 	C 	0.6672	0.2924	0.0775	0.12
Mof_H 	H 	0.6899	0.3203	0.074	-0.008
Mof_H 	H 	0.6337	0.3027	0.0668	-0.026
Mof_C 	C 	0.724	0.0831	0.9721	-0.704
Mof_H 	H 	0.759	0.0927	0.971	0.239
Mof_H 	H 	0.705	0.1021	0.9486	0.222
Mof_H 	H 	0.7211	0.0488	0.9644	0.23
Mof_N 	N 	0.6916	0.3149	0.8969	-0.169
Mof_N 	N 	0.8821	0.3689	0.366	-0.193
Mof_N 	N 	0.4038	0.2001	0.3278	-0.179
Mof_N 	N 	0.8146	0.9103	0.1856	-0.172
Mof_O 	O 	0.6647	0.2788	0.1287	-0.482
Mof_O 	O 	0.7055	0.293	0.2174	-0.467
Mof_O 	O 	0.6087	0.2584	0.2073	-0.497
Mof_O 	O 	0.7269	0.212	0.2785	-0.473
Mof_O 	O 	0.6412	0.288	0.3105	-0.435
Mof_O 	O 	0.648	0.1824	0.0928	-0.49
Mof_O 	O 	0.7868	0.2304	0.1956	-0.477
Mof_O 	O 	0.5902	0.162	0.1744	-0.507
Mof_O 	O 	0.7747	0.323	0.1276	-0.452
Mof_O 	O 	0.7702	0.1396	0.161	-0.463
Mof_O 	O 	0.6335	0.1778	0.2699	-0.466
Mof_O 	O 	0.7466	0.2158	0.1034	-0.48
Mof_O 	O 	0.6698	0.1032	0.1506	-0.477
Mof_O 	O 	0.8213	0.1464	0.2649	-0.405
Mof_O 	O 	0.6201	0.357	0.2692	-0.395
Mof_O 	O 	0.7341	0.1127	0.0546	-0.367
Mof_O 	O 	0.7103	0.118	0.2444	-0.481
Mof_O 	O 	0.8454	0.2822	0.1072	-0.385
Mof_O 	O 	0.7841	0.132	0.338	-0.338
Mof_O 	O 	0.632	0.0846	0.3424	-0.648
Mof_O 	O 	0.6974	0.0652	0.3675	-0.573
Mof_O 	O 	0.6453	0.0809	0.0378	-0.279
Mof_Cd	Cd	0.8658	0.65979	0.68752	0.353
Mof_Cd	Cd	0.80172	0.85781	0.82525	0.461
Mof_Cd	Cd	0.66817	0.80081	0.62433	0.359
Mof_Cd	Cd	0.90365	0.88853	0.59902	0.293
Mof_Cu	Cu	0.88129	0.77634	0.6453	0.857
Mof_Cu	Cu	0.74191	0.82838	0.72526	0.892
Mof_Cu	Cu	0.83458	0.75834	0.75134	0.893
Mof_Cu	Cu	0.8547	0.86768	0.71278	0.862
Mof_Cu	Cu	0.76795	0.73655	0.65721	0.893
Mof_Cu	Cu	0.78812	0.84573	0.61866	0.891
Mof_C 	C 	0.8365	0.723	0.4059	0.104
Mof_H 	H 	0.8557	0.7357	0.3801	0.008
Mof_C 	C 	0.7823	0.6682	0.434	0.126
Mof_H 	H 	0.761	0.6415	0.428	0.003
Mof_C 	C 	0.7836	0.6858	0.4801	-0.214
Mof_H 	H 	0.7649	0.6707	0.505	0.097
Mof_C 	C 	0.8134	0.7272	0.4901	0.152
Mof_C 	C 	0.7407	0.7536	0.8036	0.136
Mof_H 	H 	0.7135	0.7715	0.8197	-0.005
Mof_H 	H 	0.7601	0.7368	0.8289	-0.009
Mof_C 	C 	0.9571	0.8319	0.6991	0.157
Mof_H 	H 	0.9695	0.8641	0.7092	-0.042
Mof_H 	H 	0.9816	0.8183	0.6762	-0.045
Mof_C 	C 	0.9544	0.7985	0.7445	-0.212
Mof_C 	C 	0.9175	0.8176	0.7835	0.133
Mof_H 	H 	0.9193	0.7958	0.8117	-0.002
Mof_H 	H 	0.9294	0.8497	0.7943	-0
Mof_C 	C 	0.8144	0.7494	0.5443	-0.182
Mof_C 	C 	0.8493	0.794	0.5458	0.139
Mof_H 	H 	0.8832	0.7838	0.5363	-0.037
Mof_H 	H 	0.8377	0.8178	0.5216	-0.017
Mof_C 	C 	0.84	0.7465	0.4524	-0.203
Mof_H 	H 	0.8601	0.7743	0.4567	0.088
Mof_C 	C 	0.7565	0.6804	0.7453	0.126
Mof_H 	H 	0.773	0.6612	0.7708	-0.01
Mof_H 	H 	0.7388	0.6577	0.7237	-0.004
Mof_C 	C 	0.7179	0.7157	0.7691	-0.205
Mof_C 	C 	0.6856	0.7397	0.7279	0.151
Mof_H 	H 	0.6692	0.7138	0.709	-0.015
Mof_H 	H 	0.659	0.7593	0.743	-0.014
Mof_C 	C 	0.8051	0.9452	0.6551	0.11
Mof_H 	H 	0.7963	0.9568	0.6224	-0.006
Mof_H 	H 	0.829	0.9684	0.6691	-0.022
Mof_C 	C 	0.7584	0.9449	0.6859	-0.177
Mof_C 	C 	0.7701	0.9312	0.7382	0.128
Mof_H 	H 	0.7947	0.9544	0.7511	-0.018
Mof_H 	H 	0.7394	0.9344	0.7576	-0.005
Mof_C 	C 	0.7155	0.9131	0.6646	0.086
Mof_H 	H 	0.6857	0.9161	0.6854	0.006
Mof_H 	H 	0.7067	0.9251	0.6321	0.003
Mof_C 	C 	0.9403	0.7468	0.7296	0.149
Mof_H 	H 	0.9657	0.7347	0.7067	-0.034
Mof_H 	H 	0.9416	0.726	0.7586	-0.017
Mof_C 	C 	0.7591	0.7655	0.555	0.136
Mof_H 	H 	0.7491	0.7906	0.5315	-0.012
Mof_H 	H 	0.7367	0.7375	0.5507	-0.012
Mof_C 	C 	0.0061	0.7968	0.7715	0.178
Mof_C 	C 	0.6831	0.6813	0.6106	0.581
Mof_C 	C 	0.7355	0.9966	0.6863	0.166
Mof_C 	C 	0.8718	0.6667	0.8078	0.609
Mof_C 	C 	0.6808	0.6824	0.8011	0.235
Mof_C 	C 	0.6963	0.6529	0.8343	-0.279
Mof_H 	H 	0.7311	0.6475	0.836	0.114
Mof_C 	C 	0.6001	0.6629	0.8361	0.17
Mof_H 	H 	0.5654	0.6696	0.8359	-0.038
Mof_C 	C 	0.6317	0.6871	0.8042	-0.286
Mof_H 	H 	0.6165	0.7091	0.7825	0.123
Mof_C 	C 	0.6659	0.6278	0.8685	0.154
Mof_H 	H 	0.6809	0.6087	0.8929	-0.048
Mof_C 	C 	0.879	0.6405	0.8564	-1.089
Mof_H 	H 	0.8886	0.6069	0.8505	0.347
Mof_H 	H 	0.8478	0.6412	0.8747	0.342
Mof_H 	H 	0.9051	0.6566	0.875	0.347
Mof_C 	C 	0.0348	0.8385	0.7791	-0.219
Mof_H 	H 	0.0231	0.868	0.766	0.096
Mof_C 	C 	0.025	0.757	0.7942	-0.235
Mof_H 	H 	0.008	0.7271	0.7921	0.105
Mof_C 	C 	0.6596	0.6329	0.5868	-0.966
Mof_H 	H 	0.6264	0.64	0.5742	0.313
Mof_H 	H 	0.6574	0.6076	0.6113	0.315
Mof_H 	H 	0.681	0.622	0.5603	0.311
Mof_C 	C 	0.0697	0.7603	0.8206	0.13
Mof_H 	H 	0.0819	0.7314	0.8346	-0.008
Mof_C 	C 	0.0802	0.8392	0.805	0.123
Mof_H 	H 	0.0993	0.8679	0.8061	-0.013
Mof_C 	C 	0.7326	0.0243	0.6465	-0.215
Mof_H 	H 	0.7457	0.0129	0.6168	0.097
Mof_C 	C 	0.7172	0.0184	0.7272	-0.2
Mof_H 	H 	0.7219	0.0027	0.7573	0.096
Mof_C 	C 	0.6901	0.0659	0.7267	0.096
Mof_H 	H 	0.6766	0.0787	0.7557	0.005
Mof_C 	C 	0.7088	0.0729	0.649	0.115
Mof_H 	H 	0.7112	0.0929	0.6213	-0.009
Mof_C 	C 	0.6783	0.8653	0.8103	0.49
Mof_C 	C 	0.6233	0.8703	0.8363	-0.845
Mof_H 	H 	0.6278	0.8776	0.8707	0.276
Mof_H 	H 	0.6051	0.8398	0.8329	0.278
Mof_H 	H 	0.6045	0.8963	0.8209	0.275
Mof_C 	C 	0.8455	0.942	0.8628	1.145
Mof_C 	C 	0.8671	0.9859	0.8887	-1.71
Mof_H 	H 	0.8612	0.0149	0.8693	0.531
Mof_H 	H 	0.903	0.9815	0.8932	0.532
Mof_H 	H 	0.8511	0.9896	0.9202	0.534
Mof_C 	C 	0.7987	0.9068	0.5277	0.339
Mof_C 	C 	0.8328	0.7076	0.5775	0.12
Mof_H 	H 	0.8101	0.6797	0.574	-0.008
Mof_H 	H 	0.8663	0.6973	0.5668	-0.026
Mof_C 	C 	0.776	0.9169	0.4721	-0.703
Mof_H 	H 	0.741	0.9073	0.471	0.239
Mof_H 	H 	0.795	0.8979	0.4486	0.222
Mof_H 	H 	0.7789	0.9512	0.4644	0.23
Mof_N 	N 	0.8084	0.6851	0.3969	-0.169
Mof_N 	N 	0.6179	0.6311	0.866	-0.193
Mof_N 	N 	0.0962	0.7999	0.8278	-0.178
Mof_N 	N 	0.6854	0.0897	0.6856	-0.172
Mof_O 	O 	0.8353	0.7212	0.6287	-0.482
Mof_O 	O 	0.7945	0.707	0.7174	-0.467
Mof_O 	O 	0.8913	0.7416	0.7073	-0.497
Mof_O 	O 	0.7731	0.788	0.7785	-0.473
Mof_O 	O 	0.8588	0.712	0.8105	-0.435
Mof_O 	O 	0.852	0.8176	0.5928	-0.491
Mof_O 	O 	0.7132	0.7696	0.6956	-0.477
Mof_O 	O 	0.9098	0.838	0.6744	-0.507
Mof_O 	O 	0.7253	0.677	0.6276	-0.452
Mof_O 	O 	0.7298	0.8604	0.661	-0.463
Mof_O 	O 	0.8665	0.8222	0.7699	-0.466
Mof_O 	O 	0.7534	0.7842	0.6034	-0.48
Mof_O 	O 	0.8302	0.8968	0.6506	-0.477
Mof_O 	O 	0.6787	0.8536	0.7649	-0.405
Mof_O 	O 	0.8799	0.643	0.7692	-0.395
Mof_O 	O 	0.7659	0.8873	0.5546	-0.367
Mof_O 	O 	0.7897	0.882	0.7444	-0.481
Mof_O 	O 	0.6546	0.7178	0.6072	-0.385
Mof_O 	O 	0.7159	0.868	0.838	-0.338
Mof_O 	O 	0.868	0.9154	0.8424	-0.648
Mof_O 	O 	0.8026	0.9348	0.8675	-0.572
Mof_O 	O 	0.8547	0.9191	0.5378	-0.279
Mof_Cd	Cd	0.3658	0.84021	0.31248	0.353
Mof_Cd	Cd	0.30172	0.64219	0.17475	0.461
Mof_Cd	Cd	0.16817	0.69919	0.37567	0.359
Mof_Cd	Cd	0.40365	0.61147	0.40098	0.293
Mof_Cu	Cu	0.38129	0.72366	0.3547	0.857
Mof_Cu	Cu	0.24191	0.67162	0.27474	0.892
Mof_Cu	Cu	0.33458	0.74166	0.24866	0.893
Mof_Cu	Cu	0.3547	0.63232	0.28722	0.862
Mof_Cu	Cu	0.26795	0.76345	0.34279	0.893
Mof_Cu	Cu	0.28812	0.65427	0.38134	0.891
Mof_C 	C 	0.3365	0.777	0.5941	0.104
Mof_H 	H 	0.3557	0.7643	0.6199	0.008
Mof_C 	C 	0.2823	0.8318	0.566	0.126
Mof_H 	H 	0.261	0.8585	0.572	0.003
Mof_C 	C 	0.2836	0.8142	0.5199	-0.214
Mof_H 	H 	0.2649	0.8293	0.495	0.097
Mof_C 	C 	0.3134	0.7728	0.5099	0.152
Mof_C 	C 	0.2407	0.7464	0.1964	0.136
Mof_H 	H 	0.2135	0.7285	0.1803	-0.005
Mof_H 	H 	0.2601	0.7632	0.1711	-0.009
Mof_C 	C 	0.4571	0.6681	0.3009	0.158
Mof_H 	H 	0.4695	0.6359	0.2908	-0.042
Mof_H 	H 	0.4816	0.6817	0.3238	-0.045
Mof_C 	C 	0.4544	0.7015	0.2555	-0.212
Mof_C 	C 	0.4175	0.6824	0.2165	0.133
Mof_H 	H 	0.4193	0.7042	0.1883	-0.002
Mof_H 	H 	0.4294	0.6503	0.2057	-0
Mof_C 	C 	0.3144	0.7506	0.4557	-0.182
Mof_C 	C 	0.3493	0.706	0.4542	0.139
Mof_H 	H 	0.3832	0.7162	0.4637	-0.037
Mof_H 	H 	0.3377	0.6822	0.4784	-0.017
Mof_C 	C 	0.34	0.7535	0.5476	-0.203
Mof_H 	H 	0.3601	0.7257	0.5433	0.088
Mof_C 	C 	0.2565	0.8196	0.2547	0.126
Mof_H 	H 	0.273	0.8388	0.2292	-0.01
Mof_H 	H 	0.2388	0.8423	0.2763	-0.005
Mof_C 	C 	0.2179	0.7843	0.2309	-0.205
Mof_C 	C 	0.1856	0.7603	0.2721	0.151
Mof_H 	H 	0.1692	0.7862	0.291	-0.015
Mof_H 	H 	0.159	0.7407	0.257	-0.014
Mof_C 	C 	0.3051	0.5548	0.3449	0.11
Mof_H 	H 	0.2963	0.5432	0.3776	-0.006
Mof_H 	H 	0.329	0.5316	0.3309	-0.022
Mof_C 	C 	0.2584	0.5551	0.3141	-0.177
Mof_C 	C 	0.2701	0.5688	0.2618	0.128
Mof_H 	H 	0.2947	0.5456	0.2489	-0.019
Mof_H 	H 	0.2394	0.5656	0.2424	-0.005
Mof_C 	C 	0.2155	0.5869	0.3354	0.086
Mof_H 	H 	0.1857	0.5839	0.3146	0.006
Mof_H 	H 	0.2067	0.5749	0.3679	0.003
Mof_C 	C 	0.4403	0.7532	0.2704	0.149
Mof_H 	H 	0.4657	0.7653	0.2933	-0.035
Mof_H 	H 	0.4416	0.774	0.2414	-0.017
Mof_C 	C 	0.2591	0.7345	0.445	0.136
Mof_H 	H 	0.2491	0.7094	0.4685	-0.012
Mof_H 	H 	0.2367	0.7625	0.4493	-0.012
Mof_C 	C 	0.5061	0.7032	0.2285	0.178
Mof_C 	C 	0.1831	0.8187	0.3894	0.58
Mof_C 	C 	0.2355	0.5034	0.3137	0.165
Mof_C 	C 	0.3718	0.8333	0.1922	0.609
Mof_C 	C 	0.1808	0.8176	0.1989	0.235
Mof_C 	C 	0.1963	0.8471	0.1657	-0.279
Mof_H 	H 	0.2311	0.8525	0.164	0.114
Mof_C 	C 	0.1001	0.8371	0.1639	0.17
Mof_H 	H 	0.0654	0.8304	0.1641	-0.039
Mof_C 	C 	0.1317	0.8129	0.1958	-0.286
Mof_H 	H 	0.1165	0.7909	0.2175	0.123
Mof_C 	C 	0.1659	0.8722	0.1315	0.154
Mof_H 	H 	0.1809	0.8913	0.1071	-0.048
Mof_C 	C 	0.379	0.8595	0.1436	-1.089
Mof_H 	H 	0.3886	0.8931	0.1495	0.346
Mof_H 	H 	0.3478	0.8588	0.1253	0.341
Mof_H 	H 	0.4051	0.8434	0.125	0.347
Mof_C 	C 	0.5348	0.6615	0.2209	-0.219
Mof_H 	H 	0.5231	0.632	0.234	0.096
Mof_C 	C 	0.525	0.743	0.2058	-0.235
Mof_H 	H 	0.508	0.7729	0.2079	0.106
Mof_C 	C 	0.1596	0.8671	0.4132	-0.966
Mof_H 	H 	0.1264	0.86	0.4258	0.313
Mof_H 	H 	0.1574	0.8924	0.3887	0.315
Mof_H 	H 	0.181	0.878	0.4397	0.311
Mof_C 	C 	0.5697	0.7397	0.1794	0.13
Mof_H 	H 	0.5819	0.7686	0.1654	-0.008
Mof_C 	C 	0.5802	0.6608	0.195	0.123
Mof_H 	H 	0.5993	0.6321	0.1939	-0.013
Mof_C 	C 	0.2326	0.4757	0.3535	-0.214
Mof_H 	H 	0.2457	0.4871	0.3832	0.096
Mof_C 	C 	0.2172	0.4816	0.2728	-0.199
Mof_H 	H 	0.2219	0.4973	0.2427	0.095
Mof_C 	C 	0.1901	0.4341	0.2733	0.095
Mof_H 	H 	0.1766	0.4213	0.2443	0.005
Mof_C 	C 	0.2088	0.4271	0.351	0.114
Mof_H 	H 	0.2112	0.4071	0.3787	-0.009
Mof_C 	C 	0.1783	0.6347	0.1897	0.49
Mof_C 	C 	0.1233	0.6297	0.1637	-0.845
Mof_H 	H 	0.1278	0.6224	0.1293	0.276
Mof_H 	H 	0.1051	0.6602	0.1671	0.278
Mof_H 	H 	0.1045	0.6037	0.1791	0.275
Mof_C 	C 	0.3455	0.558	0.1372	1.146
Mof_C 	C 	0.3671	0.5141	0.1113	-1.713
Mof_H 	H 	0.3612	0.4851	0.1307	0.532
Mof_H 	H 	0.403	0.5185	0.1068	0.532
Mof_H 	H 	0.3511	0.5104	0.0798	0.535
Mof_C 	C 	0.2987	0.5932	0.4723	0.339
Mof_C 	C 	0.3328	0.7924	0.4225	0.12
Mof_H 	H 	0.3101	0.8203	0.426	-0.008
Mof_H 	H 	0.3663	0.8027	0.4332	-0.026
Mof_C 	C 	0.276	0.5831	0.5279	-0.703
Mof_H 	H 	0.241	0.5927	0.529	0.239
Mof_H 	H 	0.295	0.6021	0.5514	0.222
Mof_H 	H 	0.2789	0.5488	0.5356	0.23
Mof_N 	N 	0.3084	0.8149	0.6031	-0.169
Mof_N 	N 	0.1179	0.8689	0.134	-0.193
Mof_N 	N 	0.5962	0.7001	0.1722	-0.179
Mof_N 	N 	0.1854	0.4103	0.3144	-0.172
Mof_O 	O 	0.3353	0.7788	0.3713	-0.482
Mof_O 	O 	0.2945	0.793	0.2826	-0.467
Mof_O 	O 	0.3913	0.7584	0.2927	-0.497
Mof_O 	O 	0.2731	0.712	0.2215	-0.473
Mof_O 	O 	0.3588	0.788	0.1895	-0.435
Mof_O 	O 	0.352	0.6824	0.4072	-0.491
Mof_O 	O 	0.2132	0.7304	0.3044	-0.477
Mof_O 	O 	0.4098	0.662	0.3256	-0.507
Mof_O 	O 	0.2253	0.823	0.3724	-0.452
Mof_O 	O 	0.2298	0.6396	0.339	-0.463
Mof_O 	O 	0.3665	0.6778	0.2301	-0.466
Mof_O 	O 	0.2534	0.7158	0.3966	-0.48
Mof_O 	O 	0.3302	0.6032	0.3494	-0.477
Mof_O 	O 	0.1787	0.6464	0.2351	-0.405
Mof_O 	O 	0.3799	0.857	0.2308	-0.395
Mof_O 	O 	0.2659	0.6127	0.4454	-0.367
Mof_O 	O 	0.2897	0.618	0.2556	-0.481
Mof_O 	O 	0.1546	0.7822	0.3928	-0.385
Mof_O 	O 	0.2159	0.632	0.162	-0.338
Mof_O 	O 	0.368	0.5846	0.1576	-0.648
Mof_O 	O 	0.3026	0.5652	0.1325	-0.573
Mof_O 	O 	0.3547	0.5809	0.4622	-0.279
Mof_Cd	Cd	0.1342	0.15979	0.81248	0.353
Mof_Cd	Cd	0.19828	0.35781	0.67475	0.461
Mof_Cd	Cd	0.33183	0.30081	0.87567	0.359
Mof_Cd	Cd	0.09635	0.38853	0.90098	0.293
Mof_Cu	Cu	0.11871	0.27634	0.8547	0.857
Mof_Cu	Cu	0.25809	0.32838	0.77474	0.892
Mof_Cu	Cu	0.16542	0.25834	0.74866	0.893
Mof_Cu	Cu	0.1453	0.36768	0.78722	0.862
Mof_Cu	Cu	0.23205	0.23655	0.84279	0.893
Mof_Cu	Cu	0.21188	0.34573	0.88134	0.891
Mof_C 	C 	0.1635	0.223	0.0941	0.104
Mof_H 	H 	0.1443	0.2357	0.1199	0.008
Mof_C 	C 	0.2177	0.1682	0.066	0.126
Mof_H 	H 	0.239	0.1415	0.072	0.004
Mof_C 	C 	0.2164	0.1858	0.0199	-0.213
Mof_H 	H 	0.2351	0.1707	0.995	0.096
Mof_C 	C 	0.1866	0.2272	0.0099	0.152
Mof_C 	C 	0.2593	0.2536	0.6964	0.136
Mof_H 	H 	0.2865	0.2715	0.6803	-0.005
Mof_H 	H 	0.2399	0.2368	0.6711	-0.009
Mof_C 	C 	0.0429	0.3319	0.8009	0.158
Mof_H 	H 	0.0305	0.3641	0.7908	-0.042
Mof_H 	H 	0.0184	0.3183	0.8238	-0.045
Mof_C 	C 	0.0456	0.2985	0.7555	-0.212
Mof_C 	C 	0.0825	0.3176	0.7165	0.133
Mof_H 	H 	0.0807	0.2958	0.6883	-0.002
Mof_H 	H 	0.0706	0.3497	0.7057	-0
Mof_C 	C 	0.1856	0.2494	0.9557	-0.182
Mof_C 	C 	0.1507	0.294	0.9542	0.139
Mof_H 	H 	0.1168	0.2838	0.9637	-0.037
Mof_H 	H 	0.1623	0.3178	0.9784	-0.017
Mof_C 	C 	0.16	0.2465	0.0476	-0.203
Mof_H 	H 	0.1399	0.2743	0.0433	0.088
Mof_C 	C 	0.2435	0.1804	0.7547	0.126
Mof_H 	H 	0.227	0.1612	0.7292	-0.01
Mof_H 	H 	0.2612	0.1577	0.7763	-0.005
Mof_C 	C 	0.2821	0.2157	0.7309	-0.205
Mof_C 	C 	0.3144	0.2397	0.7721	0.151
Mof_H 	H 	0.3308	0.2138	0.791	-0.015
Mof_H 	H 	0.341	0.2593	0.757	-0.014
Mof_C 	C 	0.1949	0.4452	0.8449	0.11
Mof_H 	H 	0.2037	0.4568	0.8776	-0.006
Mof_H 	H 	0.171	0.4684	0.8309	-0.022
Mof_C 	C 	0.2416	0.4449	0.8141	-0.177
Mof_C 	C 	0.2299	0.4312	0.7618	0.128
Mof_H 	H 	0.2053	0.4544	0.7489	-0.019
Mof_H 	H 	0.2606	0.4344	0.7424	-0.005
Mof_C 	C 	0.2845	0.4131	0.8354	0.086
Mof_H 	H 	0.3143	0.4161	0.8146	0.006
Mof_H 	H 	0.2933	0.4251	0.8679	0.003
Mof_C 	C 	0.0597	0.2468	0.7704	0.149
Mof_H 	H 	0.0343	0.2347	0.7933	-0.035
Mof_H 	H 	0.0584	0.226	0.7414	-0.017
Mof_C 	C 	0.2409	0.2655	0.945	0.136
Mof_H 	H 	0.2509	0.2906	0.9685	-0.012
Mof_H 	H 	0.2633	0.2375	0.9493	-0.012
Mof_C 	C 	0.9939	0.2968	0.7285	0.178
Mof_C 	C 	0.3169	0.1813	0.8894	0.58
Mof_C 	C 	0.2645	0.4966	0.8137	0.165
Mof_C 	C 	0.1282	0.1667	0.6922	0.609
Mof_C 	C 	0.3192	0.1824	0.6989	0.235
Mof_C 	C 	0.3037	0.1529	0.6657	-0.279
Mof_H 	H 	0.2689	0.1475	0.664	0.114
Mof_C 	C 	0.3999	0.1629	0.6639	0.17
Mof_H 	H 	0.4346	0.1696	0.6641	-0.038
Mof_C 	C 	0.3683	0.1871	0.6958	-0.286
Mof_H 	H 	0.3835	0.2091	0.7175	0.123
Mof_C 	C 	0.3341	0.1278	0.6315	0.154
Mof_H 	H 	0.3191	0.1087	0.6071	-0.048
Mof_C 	C 	0.121	0.1405	0.6436	-1.089
Mof_H 	H 	0.1114	0.1069	0.6495	0.347
Mof_H 	H 	0.1522	0.1412	0.6253	0.342
Mof_H 	H 	0.0949	0.1566	0.625	0.347
Mof_C 	C 	0.9652	0.3385	0.7209	-0.219
Mof_H 	H 	0.9769	0.368	0.734	0.096
Mof_C 	C 	0.975	0.257	0.7058	-0.235
Mof_H 	H 	0.992	0.2271	0.7079	0.106
Mof_C 	C 	0.3404	0.1329	0.9132	-0.966
Mof_H 	H 	0.3736	0.14	0.9258	0.313
Mof_H 	H 	0.3426	0.1076	0.8887	0.315
Mof_H 	H 	0.319	0.122	0.9397	0.311
Mof_C 	C 	0.9303	0.2603	0.6794	0.13
Mof_H 	H 	0.9181	0.2314	0.6654	-0.008
Mof_C 	C 	0.9198	0.3392	0.695	0.123
Mof_H 	H 	0.9007	0.3679	0.6939	-0.013
Mof_C 	C 	0.2674	0.5243	0.8535	-0.214
Mof_H 	H 	0.2543	0.5129	0.8832	0.096
Mof_C 	C 	0.2828	0.5184	0.7728	-0.199
Mof_H 	H 	0.2781	0.5027	0.7427	0.095
Mof_C 	C 	0.3099	0.5659	0.7733	0.095
Mof_H 	H 	0.3234	0.5787	0.7443	0.005
Mof_C 	C 	0.2912	0.5729	0.851	0.114
Mof_H 	H 	0.2888	0.5929	0.8787	-0.009
Mof_C 	C 	0.3217	0.3653	0.6897	0.49
Mof_C 	C 	0.3767	0.3703	0.6637	-0.844
Mof_H 	H 	0.3722	0.3776	0.6293	0.276
Mof_H 	H 	0.3949	0.3398	0.6671	0.278
Mof_H 	H 	0.3955	0.3963	0.6791	0.275
Mof_C 	C 	0.1545	0.442	0.6372	1.146
Mof_C 	C 	0.1329	0.4859	0.6113	-1.713
Mof_H 	H 	0.1388	0.5149	0.6307	0.532
Mof_H 	H 	0.097	0.4815	0.6068	0.532
Mof_H 	H 	0.1489	0.4896	0.5798	0.535
Mof_C 	C 	0.2013	0.4068	0.9723	0.339
Mof_C 	C 	0.1672	0.2076	0.9225	0.12
Mof_H 	H 	0.1899	0.1797	0.926	-0.008
Mof_H 	H 	0.1337	0.1973	0.9332	-0.026
Mof_C 	C 	0.224	0.4169	0.0279	-0.703
Mof_H 	H 	0.259	0.4073	0.029	0.239
Mof_H 	H 	0.205	0.3979	0.0514	0.222
Mof_H 	H 	0.2211	0.4512	0.0356	0.23
Mof_N 	N 	0.1916	0.1851	0.1031	-0.169
Mof_N 	N 	0.3821	0.1311	0.634	-0.193
Mof_N 	N 	0.9038	0.2999	0.6722	-0.179
Mof_N 	N 	0.3146	0.5897	0.8144	-0.172
Mof_O 	O 	0.1647	0.2212	0.8713	-0.482
Mof_O 	O 	0.2055	0.207	0.7826	-0.467
Mof_O 	O 	0.1087	0.2416	0.7927	-0.497
Mof_O 	O 	0.2269	0.288	0.7215	-0.473
Mof_O 	O 	0.1412	0.212	0.6895	-0.435
Mof_O 	O 	0.148	0.3176	0.9072	-0.491
Mof_O 	O 	0.2868	0.2696	0.8044	-0.477
Mof_O 	O 	0.0902	0.338	0.8256	-0.507
Mof_O 	O 	0.2747	0.177	0.8724	-0.452
Mof_O 	O 	0.2702	0.3604	0.839	-0.463
Mof_O 	O 	0.1335	0.3222	0.7301	-0.466
Mof_O 	O 	0.2466	0.2842	0.8966	-0.48
Mof_O 	O 	0.1698	0.3968	0.8494	-0.477
Mof_O 	O 	0.3213	0.3536	0.7351	-0.405
Mof_O 	O 	0.1201	0.143	0.7308	-0.395
Mof_O 	O 	0.2341	0.3873	0.9454	-0.367
Mof_O 	O 	0.2103	0.382	0.7556	-0.481
Mof_O 	O 	0.3454	0.2178	0.8928	-0.385
Mof_O 	O 	0.2841	0.368	0.662	-0.338
Mof_O 	O 	0.132	0.4154	0.6576	-0.648
Mof_O 	O 	0.1974	0.4348	0.6325	-0.573
Mof_O 	O 	0.1453	0.4191	0.9622	-0.279
Mof_Cd	Cd	0.3658	0.65979	0.81248	0.353
Mof_Cd	Cd	0.30172	0.85781	0.67475	0.461
Mof_Cd	Cd	0.16817	0.80081	0.87567	0.359
Mof_Cd	Cd	0.40365	0.88853	0.90098	0.293
Mof_Cu	Cu	0.38129	0.77634	0.8547	0.857
Mof_Cu	Cu	0.24191	0.82838	0.77474	0.892
Mof_Cu	Cu	0.33458	0.75834	0.74866	0.893
Mof_Cu	Cu	0.3547	0.86768	0.78722	0.862
Mof_Cu	Cu	0.26795	0.73655	0.84279	0.893
Mof_Cu	Cu	0.28812	0.84573	0.88134	0.891
Mof_C 	C 	0.3365	0.723	0.0941	0.104
Mof_H 	H 	0.3557	0.7357	0.1199	0.008
Mof_C 	C 	0.2823	0.6682	0.066	0.126
Mof_H 	H 	0.261	0.6415	0.072	0.003
Mof_C 	C 	0.2836	0.6858	0.0199	-0.214
Mof_H 	H 	0.2649	0.6707	0.995	0.097
Mof_C 	C 	0.3134	0.7272	0.0099	0.152
Mof_C 	C 	0.2407	0.7536	0.6964	0.136
Mof_H 	H 	0.2135	0.7715	0.6803	-0.005
Mof_H 	H 	0.2601	0.7368	0.6711	-0.009
Mof_C 	C 	0.4571	0.8319	0.8009	0.158
Mof_H 	H 	0.4695	0.8641	0.7908	-0.042
Mof_H 	H 	0.4816	0.8183	0.8238	-0.045
Mof_C 	C 	0.4544	0.7985	0.7555	-0.212
Mof_C 	C 	0.4175	0.8176	0.7165	0.133
Mof_H 	H 	0.4193	0.7958	0.6883	-0.002
Mof_H 	H 	0.4294	0.8497	0.7057	-0
Mof_C 	C 	0.3144	0.7494	0.9557	-0.182
Mof_C 	C 	0.3493	0.794	0.9542	0.138
Mof_H 	H 	0.3832	0.7838	0.9637	-0.037
Mof_H 	H 	0.3377	0.8178	0.9784	-0.017
Mof_C 	C 	0.34	0.7465	0.0476	-0.203
Mof_H 	H 	0.3601	0.7743	0.0433	0.088
Mof_C 	C 	0.2565	0.6804	0.7547	0.126
Mof_H 	H 	0.273	0.6612	0.7292	-0.01
Mof_H 	H 	0.2388	0.6577	0.7763	-0.004
Mof_C 	C 	0.2179	0.7157	0.7309	-0.205
Mof_C 	C 	0.1856	0.7397	0.7721	0.151
Mof_H 	H 	0.1692	0.7138	0.791	-0.015
Mof_H 	H 	0.159	0.7593	0.757	-0.014
Mof_C 	C 	0.3051	0.9452	0.8449	0.11
Mof_H 	H 	0.2963	0.9568	0.8776	-0.006
Mof_H 	H 	0.329	0.9684	0.8309	-0.022
Mof_C 	C 	0.2584	0.9449	0.8141	-0.177
Mof_C 	C 	0.2701	0.9312	0.7618	0.128
Mof_H 	H 	0.2947	0.9544	0.7489	-0.019
Mof_H 	H 	0.2394	0.9344	0.7424	-0.005
Mof_C 	C 	0.2155	0.9131	0.8354	0.086
Mof_H 	H 	0.1857	0.9161	0.8146	0.006
Mof_H 	H 	0.2067	0.9251	0.8679	0.003
Mof_C 	C 	0.4403	0.7468	0.7704	0.149
Mof_H 	H 	0.4657	0.7347	0.7933	-0.035
Mof_H 	H 	0.4416	0.726	0.7414	-0.017
Mof_C 	C 	0.2591	0.7655	0.945	0.136
Mof_H 	H 	0.2491	0.7906	0.9685	-0.012
Mof_H 	H 	0.2367	0.7375	0.9493	-0.012
Mof_C 	C 	0.5061	0.7968	0.7285	0.178
Mof_C 	C 	0.1831	0.6813	0.8894	0.581
Mof_C 	C 	0.2355	0.9966	0.8137	0.165
Mof_C 	C 	0.3718	0.6667	0.6922	0.609
Mof_C 	C 	0.1808	0.6824	0.6989	0.235
Mof_C 	C 	0.1963	0.6529	0.6657	-0.279
Mof_H 	H 	0.2311	0.6475	0.664	0.114
Mof_C 	C 	0.1001	0.6629	0.6639	0.17
Mof_H 	H 	0.0654	0.6696	0.6641	-0.038
Mof_C 	C 	0.1317	0.6871	0.6958	-0.286
Mof_H 	H 	0.1165	0.7091	0.7175	0.123
Mof_C 	C 	0.1659	0.6278	0.6315	0.154
Mof_H 	H 	0.1809	0.6087	0.6071	-0.048
Mof_C 	C 	0.379	0.6405	0.6436	-1.089
Mof_H 	H 	0.3886	0.6069	0.6495	0.347
Mof_H 	H 	0.3478	0.6412	0.6253	0.341
Mof_H 	H 	0.4051	0.6566	0.625	0.347
Mof_C 	C 	0.5348	0.8385	0.7209	-0.219
Mof_H 	H 	0.5231	0.868	0.734	0.096
Mof_C 	C 	0.525	0.757	0.7058	-0.235
Mof_H 	H 	0.508	0.7271	0.7079	0.106
Mof_C 	C 	0.1596	0.6329	0.9132	-0.966
Mof_H 	H 	0.1264	0.64	0.9258	0.313
Mof_H 	H 	0.1574	0.6076	0.8887	0.315
Mof_H 	H 	0.181	0.622	0.9397	0.311
Mof_C 	C 	0.5697	0.7603	0.6794	0.13
Mof_H 	H 	0.5819	0.7314	0.6654	-0.008
Mof_C 	C 	0.5802	0.8392	0.695	0.123
Mof_H 	H 	0.5993	0.8679	0.6939	-0.013
Mof_C 	C 	0.2326	0.0243	0.8535	-0.215
Mof_H 	H 	0.2457	0.0129	0.8832	0.097
Mof_C 	C 	0.2172	0.0184	0.7728	-0.199
Mof_H 	H 	0.2219	0.0027	0.7427	0.096
Mof_C 	C 	0.1901	0.0659	0.7733	0.096
Mof_H 	H 	0.1766	0.0787	0.7443	0.005
Mof_C 	C 	0.2088	0.0729	0.851	0.114
Mof_H 	H 	0.2112	0.0929	0.8787	-0.009
Mof_C 	C 	0.1783	0.8653	0.6897	0.49
Mof_C 	C 	0.1233	0.8703	0.6637	-0.844
Mof_H 	H 	0.1278	0.8776	0.6293	0.276
Mof_H 	H 	0.1051	0.8398	0.6671	0.278
Mof_H 	H 	0.1045	0.8963	0.6791	0.275
Mof_C 	C 	0.3455	0.942	0.6372	1.146
Mof_C 	C 	0.3671	0.9859	0.6113	-1.713
Mof_H 	H 	0.3612	0.0149	0.6307	0.532
Mof_H 	H 	0.403	0.9815	0.6068	0.532
Mof_H 	H 	0.3511	0.9896	0.5798	0.535
Mof_C 	C 	0.2987	0.9068	0.9723	0.339
Mof_C 	C 	0.3328	0.7076	0.9225	0.12
Mof_H 	H 	0.3101	0.6797	0.926	-0.008
Mof_H 	H 	0.3663	0.6973	0.9332	-0.026
Mof_C 	C 	0.276	0.9169	0.0279	-0.704
Mof_H 	H 	0.241	0.9073	0.029	0.239
Mof_H 	H 	0.295	0.8979	0.0514	0.222
Mof_H 	H 	0.2789	0.9512	0.0356	0.23
Mof_N 	N 	0.3084	0.6851	0.1031	-0.169
Mof_N 	N 	0.1179	0.6311	0.634	-0.193
Mof_N 	N 	0.5962	0.7999	0.6722	-0.179
Mof_N 	N 	0.1854	0.0897	0.8144	-0.172
Mof_O 	O 	0.3353	0.7212	0.8713	-0.482
Mof_O 	O 	0.2945	0.707	0.7826	-0.467
Mof_O 	O 	0.3913	0.7416	0.7927	-0.497
Mof_O 	O 	0.2731	0.788	0.7215	-0.473
Mof_O 	O 	0.3588	0.712	0.6895	-0.435
Mof_O 	O 	0.352	0.8176	0.9072	-0.49
Mof_O 	O 	0.2132	0.7696	0.8044	-0.477
Mof_O 	O 	0.4098	0.838	0.8256	-0.507
Mof_O 	O 	0.2253	0.677	0.8724	-0.452
Mof_O 	O 	0.2298	0.8604	0.839	-0.463
Mof_O 	O 	0.3665	0.8222	0.7301	-0.466
Mof_O 	O 	0.2534	0.7842	0.8966	-0.48
Mof_O 	O 	0.3302	0.8968	0.8494	-0.477
Mof_O 	O 	0.1787	0.8536	0.7351	-0.405
Mof_O 	O 	0.3799	0.643	0.7308	-0.395
Mof_O 	O 	0.2659	0.8873	0.9454	-0.367
Mof_O 	O 	0.2897	0.882	0.7556	-0.481
Mof_O 	O 	0.1546	0.7178	0.8928	-0.385
Mof_O 	O 	0.2159	0.868	0.662	-0.338
Mof_O 	O 	0.368	0.9154	0.6576	-0.648
Mof_O 	O 	0.3026	0.9348	0.6325	-0.573
Mof_O 	O 	0.3547	0.9191	0.9622	-0.279
Mof_Cd	Cd	0.1342	0.34021	0.31248	0.353
Mof_Cd	Cd	0.19828	0.14219	0.17475	0.461
Mof_Cd	Cd	0.33183	0.19919	0.37567	0.359
Mof_Cd	Cd	0.09635	0.11147	0.40098	0.293
Mof_Cu	Cu	0.11871	0.22366	0.3547	0.857
Mof_Cu	Cu	0.25809	0.17162	0.27474	0.892
Mof_Cu	Cu	0.16542	0.24166	0.24866	0.893
Mof_Cu	Cu	0.1453	0.13232	0.28722	0.862
Mof_Cu	Cu	0.23205	0.26345	0.34279	0.893
Mof_Cu	Cu	0.21188	0.15427	0.38134	0.891
Mof_C 	C 	0.1635	0.277	0.5941	0.104
Mof_H 	H 	0.1443	0.2643	0.6199	0.008
Mof_C 	C 	0.2177	0.3318	0.566	0.126
Mof_H 	H 	0.239	0.3585	0.572	0.003
Mof_C 	C 	0.2164	0.3142	0.5199	-0.214
Mof_H 	H 	0.2351	0.3293	0.495	0.097
Mof_C 	C 	0.1866	0.2728	0.5099	0.152
Mof_C 	C 	0.2593	0.2464	0.1964	0.136
Mof_H 	H 	0.2865	0.2285	0.1803	-0.005
Mof_H 	H 	0.2399	0.2632	0.1711	-0.009
Mof_C 	C 	0.0429	0.1681	0.3009	0.157
Mof_H 	H 	0.0305	0.1359	0.2908	-0.042
Mof_H 	H 	0.0184	0.1817	0.3238	-0.045
Mof_C 	C 	0.0456	0.2015	0.2555	-0.212
Mof_C 	C 	0.0825	0.1824	0.2165	0.133
Mof_H 	H 	0.0807	0.2042	0.1883	-0.002
Mof_H 	H 	0.0706	0.1503	0.2057	-0
Mof_C 	C 	0.1856	0.2506	0.4557	-0.182
Mof_C 	C 	0.1507	0.206	0.4542	0.139
Mof_H 	H 	0.1168	0.2162	0.4637	-0.037
Mof_H 	H 	0.1623	0.1822	0.4784	-0.017
Mof_C 	C 	0.16	0.2535	0.5476	-0.203
Mof_H 	H 	0.1399	0.2257	0.5433	0.088
Mof_C 	C 	0.2435	0.3196	0.2547	0.126
Mof_H 	H 	0.227	0.3388	0.2292	-0.01
Mof_H 	H 	0.2612	0.3423	0.2763	-0.004
Mof_C 	C 	0.2821	0.2843	0.2309	-0.205
Mof_C 	C 	0.3144	0.2603	0.2721	0.151
Mof_H 	H 	0.3308	0.2862	0.291	-0.015
Mof_H 	H 	0.341	0.2407	0.257	-0.014
Mof_C 	C 	0.1949	0.0548	0.3449	0.11
Mof_H 	H 	0.2037	0.0432	0.3776	-0.006
Mof_H 	H 	0.171	0.0316	0.3309	-0.022
Mof_C 	C 	0.2416	0.0551	0.3141	-0.177
Mof_C 	C 	0.2299	0.0688	0.2618	0.128
Mof_H 	H 	0.2053	0.0456	0.2489	-0.018
Mof_H 	H 	0.2606	0.0656	0.2424	-0.005
Mof_C 	C 	0.2845	0.0869	0.3354	0.086
Mof_H 	H 	0.3143	0.0839	0.3146	0.006
Mof_H 	H 	0.2933	0.0749	0.3679	0.003
Mof_C 	C 	0.0597	0.2532	0.2704	0.149
Mof_H 	H 	0.0343	0.2653	0.2933	-0.034
Mof_H 	H 	0.0584	0.274	0.2414	-0.017
Mof_C 	C 	0.2409	0.2345	0.445	0.136
Mof_H 	H 	0.2509	0.2094	0.4685	-0.012
Mof_H 	H 	0.2633	0.2625	0.4493	-0.012
Mof_C 	C 	0.9939	0.2032	0.2285	0.178
Mof_C 	C 	0.3169	0.3187	0.3894	0.581
Mof_C 	C 	0.2645	0.0034	0.3137	0.166
Mof_C 	C 	0.1282	0.3333	0.1922	0.609
Mof_C 	C 	0.3192	0.3176	0.1989	0.235
Mof_C 	C 	0.3037	0.3471	0.1657	-0.279
Mof_H 	H 	0.2689	0.3525	0.164	0.114
Mof_C 	C 	0.3999	0.3371	0.1639	0.17
Mof_H 	H 	0.4346	0.3304	0.1641	-0.038
Mof_C 	C 	0.3683	0.3129	0.1958	-0.286
Mof_H 	H 	0.3835	0.2909	0.2175	0.123
Mof_C 	C 	0.3341	0.3722	0.1315	0.154
Mof_H 	H 	0.3191	0.3913	0.1071	-0.048
Mof_C 	C 	0.121	0.3595	0.1436	-1.089
Mof_H 	H 	0.1114	0.3931	0.1495	0.347
Mof_H 	H 	0.1522	0.3588	0.1253	0.342
Mof_H 	H 	0.0949	0.3434	0.125	0.347
Mof_C 	C 	0.9652	0.1615	0.2209	-0.219
Mof_H 	H 	0.9769	0.132	0.234	0.096
Mof_C 	C 	0.975	0.243	0.2058	-0.235
Mof_H 	H 	0.992	0.2729	0.2079	0.105
Mof_C 	C 	0.3404	0.3671	0.4132	-0.966
Mof_H 	H 	0.3736	0.36	0.4258	0.313
Mof_H 	H 	0.3426	0.3924	0.3887	0.315
Mof_H 	H 	0.319	0.378	0.4397	0.311
Mof_C 	C 	0.9303	0.2397	0.1794	0.13
Mof_H 	H 	0.9181	0.2686	0.1654	-0.008
Mof_C 	C 	0.9198	0.1608	0.195	0.123
Mof_H 	H 	0.9007	0.1321	0.1939	-0.013
Mof_C 	C 	0.2674	0.9757	0.3535	-0.215
Mof_H 	H 	0.2543	0.9871	0.3832	0.097
Mof_C 	C 	0.2828	0.9816	0.2728	-0.2
Mof_H 	H 	0.2781	0.9973	0.2427	0.096
Mof_C 	C 	0.3099	0.9341	0.2733	0.096
Mof_H 	H 	0.3234	0.9213	0.2443	0.005
Mof_C 	C 	0.2912	0.9271	0.351	0.115
Mof_H 	H 	0.2888	0.9071	0.3787	-0.009
Mof_C 	C 	0.3217	0.1347	0.1897	0.49
Mof_C 	C 	0.3767	0.1297	0.1637	-0.845
Mof_H 	H 	0.3722	0.1224	0.1293	0.276
Mof_H 	H 	0.3949	0.1602	0.1671	0.278
Mof_H 	H 	0.3955	0.1037	0.1791	0.275
Mof_C 	C 	0.1545	0.058	0.1372	1.145
Mof_C 	C 	0.1329	0.0141	0.1113	-1.71
Mof_H 	H 	0.1388	0.9851	0.1307	0.531
Mof_H 	H 	0.097	0.0185	0.1068	0.532
Mof_H 	H 	0.1489	0.0104	0.0798	0.534
Mof_C 	C 	0.2013	0.0932	0.4723	0.339
Mof_C 	C 	0.1672	0.2924	0.4225	0.12
Mof_H 	H 	0.1899	0.3203	0.426	-0.008
Mof_H 	H 	0.1337	0.3027	0.4332	-0.026
Mof_C 	C 	0.224	0.0831	0.5279	-0.703
Mof_H 	H 	0.259	0.0927	0.529	0.239
Mof_H 	H 	0.205	0.1021	0.5514	0.222
Mof_H 	H 	0.2211	0.0488	0.5356	0.23
Mof_N 	N 	0.1916	0.3149	0.6031	-0.169
Mof_N 	N 	0.3821	0.3689	0.134	-0.193
Mof_N 	N 	0.9038	0.2001	0.1722	-0.178
Mof_N 	N 	0.3146	0.9103	0.3144	-0.172
Mof_O 	O 	0.1647	0.2788	0.3713	-0.482
Mof_O 	O 	0.2055	0.293	0.2826	-0.467
Mof_O 	O 	0.1087	0.2584	0.2927	-0.497
Mof_O 	O 	0.2269	0.212	0.2215	-0.473
Mof_O 	O 	0.1412	0.288	0.1895	-0.435
Mof_O 	O 	0.148	0.1824	0.4072	-0.491
Mof_O 	O 	0.2868	0.2304	0.3044	-0.477
Mof_O 	O 	0.0902	0.162	0.3256	-0.507
Mof_O 	O 	0.2747	0.323	0.3724	-0.452
Mof_O 	O 	0.2702	0.1396	0.339	-0.463
Mof_O 	O 	0.1335	0.1778	0.2301	-0.466
Mof_O 	O 	0.2466	0.2158	0.3966	-0.48
Mof_O 	O 	0.1698	0.1032	0.3494	-0.477
Mof_O 	O 	0.3213	0.1464	0.2351	-0.405
Mof_O 	O 	0.1201	0.357	0.2308	-0.395
Mof_O 	O 	0.2341	0.1127	0.4454	-0.367
Mof_O 	O 	0.2103	0.118	0.2556	-0.481
Mof_O 	O 	0.3454	0.2822	0.3928	-0.385
Mof_O 	O 	0.2841	0.132	0.162	-0.338
Mof_O 	O 	0.132	0.0846	0.1576	-0.648
Mof_O 	O 	0.1974	0.0652	0.1325	-0.572
Mof_O 	O 	0.1453	0.0809	0.4622	-0.279
Mof_Cd	Cd	0.6342	0.15979	0.68752	0.353
Mof_Cd	Cd	0.69828	0.35781	0.82525	0.461
Mof_Cd	Cd	0.83183	0.30081	0.62433	0.359
Mof_Cd	Cd	0.59635	0.38853	0.59902	0.293
Mof_Cu	Cu	0.61871	0.27634	0.6453	0.857
Mof_Cu	Cu	0.75809	0.32838	0.72526	0.892
Mof_Cu	Cu	0.66542	0.25834	0.75134	0.893
Mof_Cu	Cu	0.6453	0.36768	0.71278	0.862
Mof_Cu	Cu	0.73205	0.23655	0.65721	0.893
Mof_Cu	Cu	0.71188	0.34573	0.61866	0.891
Mof_C 	C 	0.6635	0.223	0.4059	0.104
Mof_H 	H 	0.6443	0.2357	0.3801	0.008
Mof_C 	C 	0.7177	0.1682	0.434	0.126
Mof_H 	H 	0.739	0.1415	0.428	0.003
Mof_C 	C 	0.7164	0.1858	0.4801	-0.214
Mof_H 	H 	0.7351	0.1707	0.505	0.097
Mof_C 	C 	0.6866	0.2272	0.4901	0.152
Mof_C 	C 	0.7593	0.2536	0.8036	0.136
Mof_H 	H 	0.7865	0.2715	0.8197	-0.005
Mof_H 	H 	0.7399	0.2368	0.8289	-0.009
Mof_C 	C 	0.5429	0.3319	0.6991	0.158
Mof_H 	H 	0.5305	0.3641	0.7092	-0.042
Mof_H 	H 	0.5184	0.3183	0.6762	-0.045
Mof_C 	C 	0.5456	0.2985	0.7445	-0.212
Mof_C 	C 	0.5825	0.3176	0.7835	0.133
Mof_H 	H 	0.5807	0.2958	0.8117	-0.002
Mof_H 	H 	0.5706	0.3497	0.7943	-0
Mof_C 	C 	0.6856	0.2494	0.5443	-0.182
Mof_C 	C 	0.6507	0.294	0.5458	0.139
Mof_H 	H 	0.6168	0.2838	0.5363	-0.037
Mof_H 	H 	0.6623	0.3178	0.5216	-0.017
Mof_C 	C 	0.66	0.2465	0.4524	-0.203
Mof_H 	H 	0.6399	0.2743	0.4567	0.088
Mof_C 	C 	0.7435	0.1804	0.7453	0.126
Mof_H 	H 	0.727	0.1612	0.7708	-0.01
Mof_H 	H 	0.7612	0.1577	0.7237	-0.005
Mof_C 	C 	0.7821	0.2157	0.7691	-0.205
Mof_C 	C 	0.8144	0.2397	0.7279	0.151
Mof_H 	H 	0.8308	0.2138	0.709	-0.015
Mof_H 	H 	0.841	0.2593	0.743	-0.014
Mof_C 	C 	0.6949	0.4452	0.6551	0.11
Mof_H 	H 	0.7037	0.4568	0.6224	-0.006
Mof_H 	H 	0.671	0.4684	0.6691	-0.022
Mof_C 	C 	0.7416	0.4449	0.6859	-0.177
Mof_C 	C 	0.7299	0.4312	0.7382	0.128
Mof_H 	H 	0.7053	0.4544	0.7511	-0.019
Mof_H 	H 	0.7606	0.4344	0.7576	-0.005
Mof_C 	C 	0.7845	0.4131	0.6646	0.086
Mof_H 	H 	0.8143	0.4161	0.6854	0.006
Mof_H 	H 	0.7933	0.4251	0.6321	0.003
Mof_C 	C 	0.5597	0.2468	0.7296	0.149
Mof_H 	H 	0.5343	0.2347	0.7067	-0.035
Mof_H 	H 	0.5584	0.226	0.7586	-0.017
Mof_C 	C 	0.7409	0.2655	0.555	0.136
Mof_H 	H 	0.7509	0.2906	0.5315	-0.012
Mof_H 	H 	0.7633	0.2375	0.5507	-0.012
Mof_C 	C 	0.4939	0.2968	0.7715	0.178
Mof_C 	C 	0.8169	0.1813	0.6106	0.58
Mof_C 	C 	0.7645	0.4966	0.6863	0.165
Mof_C 	C 	0.6282	0.1667	0.8078	0.609
Mof_C 	C 	0.8192	0.1824	0.8011	0.235
Mof_C 	C 	0.8037	0.1529	0.8343	-0.279
Mof_H 	H 	0.7689	0.1475	0.836	0.114
Mof_C 	C 	0.8999	0.1629	0.8361	0.17
Mof_H 	H 	0.9346	0.1696	0.8359	-0.039
Mof_C 	C 	0.8683	0.1871	0.8042	-0.286
Mof_H 	H 	0.8835	0.2091	0.7825	0.123
Mof_C 	C 	0.8341	0.1278	0.8685	0.154
Mof_H 	H 	0.8191	0.1087	0.8929	-0.048
Mof_C 	C 	0.621	0.1405	0.8564	-1.089
Mof_H 	H 	0.6114	0.1069	0.8505	0.346
Mof_H 	H 	0.6522	0.1412	0.8747	0.341
Mof_H 	H 	0.5949	0.1566	0.875	0.347
Mof_C 	C 	0.4652	0.3385	0.7791	-0.219
Mof_H 	H 	0.4769	0.368	0.766	0.096
Mof_C 	C 	0.475	0.257	0.7942	-0.235
Mof_H 	H 	0.492	0.2271	0.7921	0.106
Mof_C 	C 	0.8404	0.1329	0.5868	-0.966
Mof_H 	H 	0.8736	0.14	0.5742	0.313
Mof_H 	H 	0.8426	0.1076	0.6113	0.315
Mof_H 	H 	0.819	0.122	0.5603	0.311
Mof_C 	C 	0.4303	0.2603	0.8206	0.13
Mof_H 	H 	0.4181	0.2314	0.8346	-0.008
Mof_C 	C 	0.4198	0.3392	0.805	0.123
Mof_H 	H 	0.4007	0.3679	0.8061	-0.013
Mof_C 	C 	0.7674	0.5243	0.6465	-0.214
Mof_H 	H 	0.7543	0.5129	0.6168	0.096
Mof_C 	C 	0.7828	0.5184	0.7272	-0.199
Mof_H 	H 	0.7781	0.5027	0.7573	0.095
Mof_C 	C 	0.8099	0.5659	0.7267	0.095
Mof_H 	H 	0.8234	0.5787	0.7557	0.005
Mof_C 	C 	0.7912	0.5729	0.649	0.114
Mof_H 	H 	0.7888	0.5929	0.6213	-0.009
Mof_C 	C 	0.8217	0.3653	0.8103	0.49
Mof_C 	C 	0.8767	0.3703	0.8363	-0.845
Mof_H 	H 	0.8722	0.3776	0.8707	0.276
Mof_H 	H 	0.8949	0.3398	0.8329	0.278
Mof_H 	H 	0.8955	0.3963	0.8209	0.275
Mof_C 	C 	0.6545	0.442	0.8628	1.146
Mof_C 	C 	0.6329	0.4859	0.8887	-1.713
Mof_H 	H 	0.6388	0.5149	0.8693	0.532
Mof_H 	H 	0.597	0.4815	0.8932	0.532
Mof_H 	H 	0.6489	0.4896	0.9202	0.535
Mof_C 	C 	0.7013	0.4068	0.5277	0.339
Mof_C 	C 	0.6672	0.2076	0.5775	0.12
Mof_H 	H 	0.6899	0.1797	0.574	-0.008
Mof_H 	H 	0.6337	0.1973	0.5668	-0.026
Mof_C 	C 	0.724	0.4169	0.4721	-0.703
Mof_H 	H 	0.759	0.4073	0.471	0.239
Mof_H 	H 	0.705	0.3979	0.4486	0.222
Mof_H 	H 	0.7211	0.4512	0.4644	0.23
Mof_N 	N 	0.6916	0.1851	0.3969	-0.169
Mof_N 	N 	0.8821	0.1311	0.866	-0.193
Mof_N 	N 	0.4038	0.2999	0.8278	-0.179
Mof_N 	N 	0.8146	0.5897	0.6856	-0.172
Mof_O 	O 	0.6647	0.2212	0.6287	-0.482
Mof_O 	O 	0.7055	0.207	0.7174	-0.467
Mof_O 	O 	0.6087	0.2416	0.7073	-0.497
Mof_O 	O 	0.7269	0.288	0.7785	-0.473
Mof_O 	O 	0.6412	0.212	0.8105	-0.435
Mof_O 	O 	0.648	0.3176	0.5928	-0.491
Mof_O 	O 	0.7868	0.2696	0.6956	-0.477
Mof_O 	O 	0.5902	0.338	0.6744	-0.507
Mof_O 	O 	0.7747	0.177	0.6276	-0.452
Mof_O 	O 	0.7702	0.3604	0.661	-0.463
Mof_O 	O 	0.6335	0.3222	0.7699	-0.466
Mof_O 	O 	0.7466	0.2842	0.6034	-0.48
Mof_O 	O 	0.6698	0.3968	0.6506	-0.477
Mof_O 	O 	0.8213	0.3536	0.7649	-0.405
Mof_O 	O 	0.6201	0.143	0.7692	-0.395
Mof_O 	O 	0.7341	0.3873	0.5546	-0.367
Mof_O 	O 	0.7103	0.382	0.7444	-0.481
Mof_O 	O 	0.8454	0.2178	0.6072	-0.385
Mof_O 	O 	0.7841	0.368	0.838	-0.338
Mof_O 	O 	0.632	0.4154	0.8424	-0.648
Mof_O 	O 	0.6974	0.4348	0.8675	-0.573
Mof_O 	O 	0.6453	0.4191	0.5378	-0.279
Mof_Cd	Cd	0.8658	0.84021	0.18752	0.353
Mof_Cd	Cd	0.80172	0.64219	0.32525	0.461
Mof_Cd	Cd	0.66817	0.69919	0.12433	0.359
Mof_Cd	Cd	0.90365	0.61147	0.09902	0.293
Mof_Cu	Cu	0.88129	0.72366	0.1453	0.857
Mof_Cu	Cu	0.74191	0.67162	0.22526	0.892
Mof_Cu	Cu	0.83458	0.74166	0.25134	0.893
Mof_Cu	Cu	0.8547	0.63232	0.21278	0.862
Mof_Cu	Cu	0.76795	0.76345	0.15721	0.893
Mof_Cu	Cu	0.78812	0.65427	0.11866	0.891
Mof_C 	C 	0.8365	0.777	0.9059	0.104
Mof_H 	H 	0.8557	0.7643	0.8801	0.008
Mof_C 	C 	0.7823	0.8318	0.934	0.126
Mof_H 	H 	0.761	0.8585	0.928	0.004
Mof_C 	C 	0.7836	0.8142	0.9801	-0.213
Mof_H 	H 	0.7649	0.8293	0.005	0.096
Mof_C 	C 	0.8134	0.7728	0.9901	0.152
Mof_C 	C 	0.7407	0.7464	0.3036	0.136
Mof_H 	H 	0.7135	0.7285	0.3197	-0.005
Mof_H 	H 	0.7601	0.7632	0.3289	-0.009
Mof_C 	C 	0.9571	0.6681	0.1991	0.158
Mof_H 	H 	0.9695	0.6359	0.2092	-0.042
Mof_H 	H 	0.9816	0.6817	0.1762	-0.045
Mof_C 	C 	0.9544	0.7015	0.2445	-0.212
Mof_C 	C 	0.9175	0.6824	0.2835	0.133
Mof_H 	H 	0.9193	0.7042	0.3117	-0.002
Mof_H 	H 	0.9294	0.6503	0.2943	-0
Mof_C 	C 	0.8144	0.7506	0.0443	-0.182
Mof_C 	C 	0.8493	0.706	0.0458	0.139
Mof_H 	H 	0.8832	0.7162	0.0363	-0.037
Mof_H 	H 	0.8377	0.6822	0.0216	-0.017
Mof_C 	C 	0.84	0.7535	0.9524	-0.203
Mof_H 	H 	0.8601	0.7257	0.9567	0.088
Mof_C 	C 	0.7565	0.8196	0.2453	0.126
Mof_H 	H 	0.773	0.8388	0.2708	-0.01
Mof_H 	H 	0.7388	0.8423	0.2237	-0.005
Mof_C 	C 	0.7179	0.7843	0.2691	-0.205
Mof_C 	C 	0.6856	0.7603	0.2279	0.151
Mof_H 	H 	0.6692	0.7862	0.209	-0.015
Mof_H 	H 	0.659	0.7407	0.243	-0.014
Mof_C 	C 	0.8051	0.5548	0.1551	0.11
Mof_H 	H 	0.7963	0.5432	0.1224	-0.006
Mof_H 	H 	0.829	0.5316	0.1691	-0.022
Mof_C 	C 	0.7584	0.5551	0.1859	-0.177
Mof_C 	C 	0.7701	0.5688	0.2382	0.128
Mof_H 	H 	0.7947	0.5456	0.2511	-0.019
Mof_H 	H 	0.7394	0.5656	0.2576	-0.005
Mof_C 	C 	0.7155	0.5869	0.1646	0.086
Mof_H 	H 	0.6857	0.5839	0.1854	0.006
Mof_H 	H 	0.7067	0.5749	0.1321	0.003
Mof_C 	C 	0.9403	0.7532	0.2296	0.149
Mof_H 	H 	0.9657	0.7653	0.2067	-0.035
Mof_H 	H 	0.9416	0.774	0.2586	-0.017
Mof_C 	C 	0.7591	0.7345	0.055	0.136
Mof_H 	H 	0.7491	0.7094	0.0315	-0.012
Mof_H 	H 	0.7367	0.7625	0.0507	-0.012
Mof_C 	C 	0.0061	0.7032	0.2715	0.178
Mof_C 	C 	0.6831	0.8187	0.1106	0.58
Mof_C 	C 	0.7355	0.5034	0.1863	0.165
Mof_C 	C 	0.8718	0.8333	0.3078	0.609
Mof_C 	C 	0.6808	0.8176	0.3011	0.235
Mof_C 	C 	0.6963	0.8471	0.3343	-0.279
Mof_H 	H 	0.7311	0.8525	0.336	0.114
Mof_C 	C 	0.6001	0.8371	0.3361	0.17
Mof_H 	H 	0.5654	0.8304	0.3359	-0.038
Mof_C 	C 	0.6317	0.8129	0.3042	-0.286
Mof_H 	H 	0.6165	0.7909	0.2825	0.123
Mof_C 	C 	0.6659	0.8722	0.3685	0.154
Mof_H 	H 	0.6809	0.8913	0.3929	-0.048
Mof_C 	C 	0.879	0.8595	0.3564	-1.089
Mof_H 	H 	0.8886	0.8931	0.3505	0.347
Mof_H 	H 	0.8478	0.8588	0.3747	0.342
Mof_H 	H 	0.9051	0.8434	0.375	0.347
Mof_C 	C 	0.0348	0.6615	0.2791	-0.219
Mof_H 	H 	0.0231	0.632	0.266	0.096
Mof_C 	C 	0.025	0.743	0.2942	-0.235
Mof_H 	H 	0.008	0.7729	0.2921	0.106
Mof_C 	C 	0.6596	0.8671	0.0868	-0.966
Mof_H 	H 	0.6264	0.86	0.0742	0.313
Mof_H 	H 	0.6574	0.8924	0.1113	0.315
Mof_H 	H 	0.681	0.878	0.0603	0.311
Mof_C 	C 	0.0697	0.7397	0.3206	0.13
Mof_H 	H 	0.0819	0.7686	0.3346	-0.008
Mof_C 	C 	0.0802	0.6608	0.305	0.123
Mof_H 	H 	0.0993	0.6321	0.3061	-0.013
Mof_C 	C 	0.7326	0.4757	0.1465	-0.214
Mof_H 	H 	0.7457	0.4871	0.1168	0.096
Mof_C 	C 	0.7172	0.4816	0.2272	-0.199
Mof_H 	H 	0.7219	0.4973	0.2573	0.095
Mof_C 	C 	0.6901	0.4341	0.2267	0.095
Mof_H 	H 	0.6766	0.4213	0.2557	0.005
Mof_C 	C 	0.7088	0.4271	0.149	0.114
Mof_H 	H 	0.7112	0.4071	0.1213	-0.009
Mof_C 	C 	0.6783	0.6347	0.3103	0.49
Mof_C 	C 	0.6233	0.6297	0.3363	-0.844
Mof_H 	H 	0.6278	0.6224	0.3707	0.276
Mof_H 	H 	0.6051	0.6602	0.3329	0.278
Mof_H 	H 	0.6045	0.6037	0.3209	0.275
Mof_C 	C 	0.8455	0.558	0.3628	1.146
Mof_C 	C 	0.8671	0.5141	0.3887	-1.713
Mof_H 	H 	0.8612	0.4851	0.3693	0.532
Mof_H 	H 	0.903	0.5185	0.3932	0.532
Mof_H 	H 	0.8511	0.5104	0.4202	0.535
Mof_C 	C 	0.7987	0.5932	0.0277	0.339
Mof_C 	C 	0.8328	0.7924	0.0775	0.12
Mof_H 	H 	0.8101	0.8203	0.074	-0.008
Mof_H 	H 	0.8663	0.8027	0.0668	-0.026
Mof_C 	C 	0.776	0.5831	0.9721	-0.703
Mof_H 	H 	0.741	0.5927	0.971	0.239
Mof_H 	H 	0.795	0.6021	0.9486	0.222
Mof_H 	H 	0.7789	0.5488	0.9644	0.23
Mof_N 	N 	0.8084	0.8149	0.8969	-0.169
Mof_N 	N 	0.6179	0.8689	0.366	-0.193
Mof_N 	N 	0.0962	0.7001	0.3278	-0.179
Mof_N 	N 	0.6854	0.4103	0.1856	-0.172
Mof_O 	O 	0.8353	0.7788	0.1287	-0.482
Mof_O 	O 	0.7945	0.793	0.2174	-0.467
Mof_O 	O 	0.8913	0.7584	0.2073	-0.497
Mof_O 	O 	0.7731	0.712	0.2785	-0.473
Mof_O 	O 	0.8588	0.788	0.3105	-0.435
Mof_O 	O 	0.852	0.6824	0.0928	-0.491
Mof_O 	O 	0.7132	0.7304	0.1956	-0.477
Mof_O 	O 	0.9098	0.662	0.1744	-0.507
Mof_O 	O 	0.7253	0.823	0.1276	-0.452
Mof_O 	O 	0.7298	0.6396	0.161	-0.463
Mof_O 	O 	0.8665	0.6778	0.2699	-0.466
Mof_O 	O 	0.7534	0.7158	0.1034	-0.48
Mof_O 	O 	0.8302	0.6032	0.1506	-0.477
Mof_O 	O 	0.6787	0.6464	0.2649	-0.405
Mof_O 	O 	0.8799	0.857	0.2692	-0.395
Mof_O 	O 	0.7659	0.6127	0.0546	-0.367
Mof_O 	O 	0.7897	0.618	0.2444	-0.481
Mof_O 	O 	0.6546	0.7822	0.1072	-0.385
Mof_O 	O 	0.7159	0.632	0.338	-0.338
Mof_O 	O 	0.868	0.5846	0.3424	-0.648
Mof_O 	O 	0.8026	0.5652	0.3675	-0.573
Mof_O 	O 	0.8547	0.5809	0.0378	-0.279
_end
