data_functionalizedCrystal
_audit_creation_method	'EQeq! by Chris Wilmer'
_symmetry_space_group_name_H-M	'P1'
_symmetry_Int_Tables_number	1
_symmetry_cell_setting	triclinic
loop_
_symmetry_equiv_pos_as_xyz
  x,y,z
_cell_length_a	11.782
_cell_length_b	13.0054
_cell_length_c	13.0054
_cell_angle_alpha	97.8283
_cell_angle_beta	105.473
_cell_angle_gamma	105.473
loop_
_atom_site_label
_atom_site_type_symbol
_atom_site_fract_x
_atom_site_fract_y
_atom_site_fract_z
_atom_site_charge
Mof_Cu	Cu	0.12588	0.23121	0.67759	0.917
Mof_Cu	Cu	0.37412	0.32241	0.76879	0.917
Mof_Cu	Cu	0.87412	0.76879	0.32241	0.917
Mof_Cu	Cu	0.62588	0.67759	0.23121	0.917
Mof_H 	H 	0.121	0.1941	0.3399	0.059
Mof_H 	H 	0.4747	0.3835	0.4829	0.037
Mof_H 	H 	0.4967	0.4047	0.3183	0.076
Mof_H 	H 	0.0296	0.1527	0.1369	0.065
Mof_H 	H 	0.0478	0.1762	0.9714	0.041
Mof_H 	H 	0.4059	0.3602	0.1134	0.067
Mof_H 	H 	0.9188	0.0096	0.5902	0.006
Mof_H 	H 	0.8927	0.301	0.6146	-0.007
Mof_H 	H 	0.7065	0.9333	0.5313	0.108
Mof_H 	H 	0.6802	0.2333	0.5471	0.108
Mof_H 	H 	0.5403	0.0211	0.6177	0.091
Mof_H 	H 	0.5072	0.1079	0.5511	0.089
Mof_H 	H 	0.379	0.6601	0.8059	0.059
Mof_H 	H 	0.0253	0.5171	0.6165	0.037
Mof_H 	H 	0.0033	0.6817	0.5953	0.076
Mof_H 	H 	0.4704	0.8631	0.8473	0.065
Mof_H 	H 	0.4522	0.0286	0.8238	0.043
Mof_H 	H 	0.0941	0.8866	0.6398	0.068
Mof_H 	H 	0.5812	0.4098	0.9904	0.006
Mof_H 	H 	0.6073	0.3854	0.699	-0.007
Mof_H 	H 	0.7935	0.4687	0.0667	0.108
Mof_H 	H 	0.8198	0.4529	0.7667	0.108
Mof_H 	H 	0.9597	0.3823	0.9789	0.092
Mof_H 	H 	0.9928	0.4489	0.8921	0.089
Mof_H 	H 	0.879	0.8059	0.6601	0.059
Mof_H 	H 	0.5253	0.6165	0.5171	0.037
Mof_H 	H 	0.5033	0.5953	0.6817	0.076
Mof_H 	H 	0.9704	0.8473	0.8631	0.065
Mof_H 	H 	0.9522	0.8238	0.0286	0.041
Mof_H 	H 	0.5941	0.6398	0.8866	0.067
Mof_H 	H 	0.0812	0.9904	0.4098	0.006
Mof_H 	H 	0.1073	0.699	0.3854	-0.007
Mof_H 	H 	0.2935	0.0667	0.4687	0.108
Mof_H 	H 	0.3198	0.7667	0.4529	0.108
Mof_H 	H 	0.4597	0.9789	0.3823	0.091
Mof_H 	H 	0.4928	0.8921	0.4489	0.089
Mof_H 	H 	0.621	0.3399	0.1941	0.059
Mof_H 	H 	0.9747	0.4829	0.3835	0.037
Mof_H 	H 	0.9967	0.3183	0.4047	0.076
Mof_H 	H 	0.5296	0.1369	0.1527	0.065
Mof_H 	H 	0.5478	0.9714	0.1762	0.043
Mof_H 	H 	0.9059	0.1134	0.3602	0.068
Mof_H 	H 	0.4188	0.5902	0.0096	0.006
Mof_H 	H 	0.3927	0.6146	0.301	-0.007
Mof_H 	H 	0.2065	0.5313	0.9333	0.108
Mof_H 	H 	0.1802	0.5471	0.2333	0.108
Mof_H 	H 	0.0403	0.6177	0.0211	0.092
Mof_H 	H 	0.0072	0.5511	0.1079	0.089
Mof_C 	C 	0.2787	0.27867	0.53753	0.337
Mof_C 	C 	0.2938	0.2879	0.4279	-0.079
Mof_C 	C 	0.1957	0.2363	0.3345	-0.042
Mof_C 	C 	0.4076	0.35	0.4196	0.017
Mof_C 	C 	0.2061	0.2463	0.2311	0.023
Mof_C 	C 	0.4213	0.3617	0.3215	-0.101
Mof_C 	C 	0.321	0.309	0.223	0.034
Mof_C 	C 	0.1048	0.1954	0.133	-0.087
Mof_C 	C 	0.116	0.2082	0.0342	0.006
Mof_C 	C 	0.3308	0.3193	0.1189	-0.049
Mof_C 	C 	0.231	0.2699	0.0255	-0.066
Mof_C 	C 	0.2415	0.2813	0.9155	0.336
Mof_C 	C 	0.8699	0.0554	0.5856	0.117
Mof_C 	C 	0.8548	0.2257	0.5987	0.127
Mof_C 	C 	0.7426	0.009	0.5488	-0.2
Mof_C 	C 	0.7262	0.1854	0.559	-0.217
Mof_C 	C 	0.6683	0.0776	0.538	0.17
Mof_C 	C 	0.5391	0.04646	0.55066	-0.184
Mof_C 	C 	0.2213	0.46247	0.72133	0.337
Mof_C 	C 	0.2062	0.5721	0.7121	-0.08
Mof_C 	C 	0.3043	0.6655	0.7637	-0.041
Mof_C 	C 	0.0924	0.5804	0.65	0.017
Mof_C 	C 	0.2939	0.7689	0.7537	0.022
Mof_C 	C 	0.0787	0.6785	0.6383	-0.102
Mof_C 	C 	0.179	0.777	0.691	0.035
Mof_C 	C 	0.3952	0.867	0.8046	-0.085
Mof_C 	C 	0.384	0.9658	0.7918	0.003
Mof_C 	C 	0.1692	0.8811	0.6807	-0.05
Mof_C 	C 	0.269	0.9745	0.7301	-0.064
Mof_C 	C 	0.2585	0.0845	0.7187	0.335
Mof_C 	C 	0.6301	0.4144	0.9446	0.117
Mof_C 	C 	0.6452	0.4013	0.7743	0.127
Mof_C 	C 	0.7574	0.4512	0.991	-0.2
Mof_C 	C 	0.7738	0.441	0.8146	-0.217
Mof_C 	C 	0.8317	0.462	0.9224	0.17
Mof_C 	C 	0.9609	0.44934	0.95354	-0.184
Mof_C 	C 	0.7213	0.72133	0.46247	0.337
Mof_C 	C 	0.7062	0.7121	0.5721	-0.079
Mof_C 	C 	0.8043	0.7637	0.6655	-0.042
Mof_C 	C 	0.5924	0.65	0.5804	0.017
Mof_C 	C 	0.7939	0.7537	0.7689	0.023
Mof_C 	C 	0.5787	0.6383	0.6785	-0.101
Mof_C 	C 	0.679	0.691	0.777	0.034
Mof_C 	C 	0.8952	0.8046	0.867	-0.087
Mof_C 	C 	0.884	0.7918	0.9658	0.006
Mof_C 	C 	0.6692	0.6807	0.8811	-0.049
Mof_C 	C 	0.769	0.7301	0.9745	-0.066
Mof_C 	C 	0.7585	0.7187	0.0845	0.336
Mof_C 	C 	0.1301	0.9446	0.4144	0.117
Mof_C 	C 	0.1452	0.7743	0.4013	0.127
Mof_C 	C 	0.2574	0.991	0.4512	-0.2
Mof_C 	C 	0.2738	0.8146	0.441	-0.217
Mof_C 	C 	0.3317	0.9224	0.462	0.17
Mof_C 	C 	0.4609	0.95354	0.44934	-0.184
Mof_C 	C 	0.7787	0.53753	0.27867	0.337
Mof_C 	C 	0.7938	0.4279	0.2879	-0.08
Mof_C 	C 	0.6957	0.3345	0.2363	-0.041
Mof_C 	C 	0.9076	0.4196	0.35	0.017
Mof_C 	C 	0.7061	0.2311	0.2463	0.022
Mof_C 	C 	0.9213	0.3215	0.3617	-0.102
Mof_C 	C 	0.821	0.223	0.309	0.035
Mof_C 	C 	0.6048	0.133	0.1954	-0.085
Mof_C 	C 	0.616	0.0342	0.2082	0.003
Mof_C 	C 	0.8308	0.1189	0.3193	-0.05
Mof_C 	C 	0.731	0.0255	0.2699	-0.064
Mof_C 	C 	0.7415	0.9155	0.2813	0.335
Mof_C 	C 	0.3699	0.5856	0.0554	0.117
Mof_C 	C 	0.3548	0.5987	0.2257	0.127
Mof_C 	C 	0.2426	0.5488	0.009	-0.2
Mof_C 	C 	0.2262	0.559	0.1854	-0.217
Mof_C 	C 	0.1683	0.538	0.0776	0.17
Mof_C 	C 	0.0391	0.55066	0.04646	-0.184
Mof_N 	N 	0.9259	0.16345	0.61495	-0.21
Mof_N 	N 	0.5741	0.38505	0.83655	-0.21
Mof_N 	N 	0.0741	0.83655	0.38505	-0.21
Mof_N 	N 	0.4259	0.61495	0.16345	-0.21
Mof_O 	O 	0.1709	0.23465	0.54033	-0.397
Mof_O 	O 	0.3764	0.31699	0.61939	-0.402
Mof_O 	O 	0.1422	0.24923	0.83657	-0.396
Mof_O 	O 	0.3501	0.32145	0.91037	-0.394
Mof_O 	O 	0.3291	0.45967	0.76535	-0.397
Mof_O 	O 	0.1236	0.38061	0.68301	-0.403
Mof_O 	O 	0.3578	0.16343	0.75077	-0.396
Mof_O 	O 	0.1499	0.08963	0.67855	-0.395
Mof_O 	O 	0.8291	0.76535	0.45967	-0.397
Mof_O 	O 	0.6236	0.68301	0.38061	-0.402
Mof_O 	O 	0.8578	0.75077	0.16343	-0.396
Mof_O 	O 	0.6499	0.67855	0.08963	-0.394
Mof_O 	O 	0.6709	0.54033	0.23465	-0.397
Mof_O 	O 	0.8764	0.61939	0.31699	-0.403
Mof_O 	O 	0.6422	0.83657	0.24923	-0.396
Mof_O 	O 	0.8501	0.91037	0.32145	-0.395
_end
