data_functionalizedCrystal
_audit_creation_method	'EQeq! by Chris Wilmer'
_symmetry_space_group_name_H-M	'P1'
_symmetry_Int_Tables_number	1
_symmetry_cell_setting	triclinic
loop_
_symmetry_equiv_pos_as_xyz
  x,y,z
_cell_length_a	9.6701
_cell_length_b	11.742
_cell_length_c	18.852
_cell_angle_alpha	90
_cell_angle_beta	97.91
_cell_angle_gamma	90
loop_
_atom_site_label
_atom_site_type_symbol
_atom_site_fract_x
_atom_site_fract_y
_atom_site_fract_z
_atom_site_charge
Mof_Cu	Cu	0.96186	0.62483	0.88966	0.841
Mof_Cu	Cu	0.27939	0.62714	0.78959	0.828
Mof_Cu	Cu	0.03814	0.62483	0.61034	0.818
Mof_Cu	Cu	0.72061	0.62714	0.71041	0.829
Mof_Cu	Cu	0.03814	0.37517	0.11034	0.818
Mof_Cu	Cu	0.72061	0.37286	0.21041	0.828
Mof_Cu	Cu	0.96186	0.37517	0.38966	0.841
Mof_Cu	Cu	0.27939	0.37286	0.28959	0.827
Mof_Mo	Mo	2.68103e-17	0.62719	0.75	0.509
Mof_Mo	Mo	2.07886e-33	0.37281	0.25	0.505
Mof_H 	H 	0.5713	0.557	0.854	-0.044
Mof_H 	H 	0.6878	0.4279	0.9327	0.099
Mof_H 	H 	0.3167	0.3055	0.9682	0.103
Mof_H 	H 	0.2076	0.442	0.892	-0.064
Mof_H 	H 	0.5264	0.2404	0.0447	0.104
Mof_H 	H 	0.6744	0.2944	0.0349	0.096
Mof_H 	H 	0.6832	0.176	0.9336	-0.001
Mof_H 	H 	0.5376	0.1201	0.9461	-0.01
Mof_H 	H 	0.6379	0.0438	0.0546	0.114
Mof_H 	H 	0.7814	0.1075	0.0488	0.125
Mof_H 	H 	0.9051	0.9265	0.0704	0.106
Mof_H 	H 	0.9861	0.7651	0.0226	-0.01
Mof_H 	H 	0.7117	0.8018	0.8482	-0.044
Mof_H 	H 	0.6228	0.9591	0.8952	0.099
Mof_H 	H 	0.4287	0.557	0.646	-0.043
Mof_H 	H 	0.3122	0.4279	0.5673	0.091
Mof_H 	H 	0.6833	0.3055	0.5318	0.103
Mof_H 	H 	0.7924	0.442	0.608	-0.048
Mof_H 	H 	0.4736	0.2404	0.4553	0.104
Mof_H 	H 	0.3256	0.2944	0.4651	0.091
Mof_H 	H 	0.3168	0.176	0.5664	-0.011
Mof_H 	H 	0.4624	0.1201	0.5539	-0.011
Mof_H 	H 	0.3621	0.0438	0.4454	0.115
Mof_H 	H 	0.2186	0.1075	0.4512	0.114
Mof_H 	H 	0.0949	0.9265	0.4296	0.093
Mof_H 	H 	0.0139	0.7651	0.4774	-0.04
Mof_H 	H 	0.2883	0.8018	0.6518	-0.047
Mof_H 	H 	0.3772	0.9591	0.6048	0.099
Mof_H 	H 	0.4287	0.443	0.146	-0.043
Mof_H 	H 	0.3122	0.5721	0.0673	0.091
Mof_H 	H 	0.6833	0.6945	0.0318	0.104
Mof_H 	H 	0.7924	0.558	0.108	-0.047
Mof_H 	H 	0.4736	0.7596	0.9553	0.105
Mof_H 	H 	0.3256	0.7056	0.9651	0.092
Mof_H 	H 	0.3168	0.824	0.0664	-0.011
Mof_H 	H 	0.4624	0.8799	0.0539	-0.011
Mof_H 	H 	0.3621	0.9562	0.9454	0.115
Mof_H 	H 	0.2186	0.8925	0.9512	0.115
Mof_H 	H 	0.0949	0.0735	0.9296	0.092
Mof_H 	H 	0.0139	0.2349	0.9774	-0.038
Mof_H 	H 	0.2883	0.1982	0.1518	-0.047
Mof_H 	H 	0.3772	0.0409	0.1048	0.099
Mof_H 	H 	0.5713	0.443	0.354	-0.045
Mof_H 	H 	0.6878	0.5721	0.4327	0.101
Mof_H 	H 	0.3167	0.6945	0.4682	0.104
Mof_H 	H 	0.2076	0.558	0.392	-0.065
Mof_H 	H 	0.5264	0.7596	0.5447	0.106
Mof_H 	H 	0.6744	0.7056	0.5349	0.099
Mof_H 	H 	0.6832	0.824	0.4336	-0.004
Mof_H 	H 	0.5376	0.8799	0.4461	-0.013
Mof_H 	H 	0.6379	0.9562	0.5546	0.118
Mof_H 	H 	0.7814	0.8925	0.5488	0.128
Mof_H 	H 	0.9051	0.0735	0.5704	0.111
Mof_H 	H 	0.9861	0.2349	0.5226	-0.017
Mof_H 	H 	0.7117	0.1982	0.3482	-0.046
Mof_H 	H 	0.6228	0.0409	0.3952	0.102
Mof_C 	C 	0.4453	0.6991	0.7599	-0.189
Mof_C 	C 	0.5181	0.5046	0.8775	0.121
Mof_C 	C 	0.5886	0.4275	0.9245	-0.229
Mof_C 	C 	0.5152	0.3504	0.9593	0.201
Mof_C 	C 	0.3719	0.3572	0.9454	-0.234
Mof_C 	C 	0.3067	0.4376	0.8989	0.122
Mof_C 	C 	0.5878	0.2613	0.0089	-0.303
Mof_C 	C 	0.6244	0.155	0.9707	0.109
Mof_C 	C 	0.7011	0.0687	0.0205	-0.317
Mof_C 	C 	0.7545	0.9651	0.9876	0.198
Mof_C 	C 	0.8636	0.902	0.0243	-0.207
Mof_C 	C 	0.912	0.8056	0.9954	0.099
Mof_C 	C 	0.7521	0.8265	0.8944	0.115
Mof_C 	C 	0.6998	0.9215	0.922	-0.227
Mof_C 	C 	0.5547	0.6991	0.7401	-0.187
Mof_C 	C 	0.4819	0.5046	0.6225	0.118
Mof_C 	C 	0.4114	0.4275	0.5755	-0.224
Mof_C 	C 	0.4848	0.3504	0.5407	0.197
Mof_C 	C 	0.6281	0.3572	0.5546	-0.226
Mof_C 	C 	0.6933	0.4376	0.6011	0.118
Mof_C 	C 	0.4122	0.2613	0.4911	-0.304
Mof_C 	C 	0.3756	0.155	0.5293	0.114
Mof_C 	C 	0.2989	0.0687	0.4795	-0.324
Mof_C 	C 	0.2455	0.9651	0.5124	0.199
Mof_C 	C 	0.1364	0.902	0.4757	-0.228
Mof_C 	C 	0.088	0.8056	0.5046	0.102
Mof_C 	C 	0.2479	0.8265	0.6056	0.11
Mof_C 	C 	0.3002	0.9215	0.578	-0.234
Mof_C 	C 	0.5547	0.3009	0.2401	-0.187
Mof_C 	C 	0.4819	0.4954	0.1225	0.118
Mof_C 	C 	0.4114	0.5725	0.0755	-0.225
Mof_C 	C 	0.4848	0.6496	0.0407	0.199
Mof_C 	C 	0.6281	0.6428	0.0546	-0.227
Mof_C 	C 	0.6933	0.5624	0.1011	0.119
Mof_C 	C 	0.4122	0.7387	0.9911	-0.307
Mof_C 	C 	0.3756	0.845	0.0293	0.116
Mof_C 	C 	0.2989	0.9313	0.9795	-0.324
Mof_C 	C 	0.2455	0.0349	0.0124	0.196
Mof_C 	C 	0.1364	0.098	0.9757	-0.224
Mof_C 	C 	0.088	0.1944	0.0046	0.098
Mof_C 	C 	0.2479	0.1735	0.1056	0.109
Mof_C 	C 	0.3002	0.0785	0.078	-0.232
Mof_C 	C 	0.4453	0.3009	0.2599	-0.189
Mof_C 	C 	0.5181	0.4954	0.3775	0.123
Mof_C 	C 	0.5886	0.5725	0.4245	-0.231
Mof_C 	C 	0.5152	0.6496	0.4593	0.207
Mof_C 	C 	0.3719	0.6428	0.4454	-0.237
Mof_C 	C 	0.3067	0.5624	0.3989	0.124
Mof_C 	C 	0.5878	0.7387	0.5089	-0.312
Mof_C 	C 	0.6244	0.845	0.4707	0.121
Mof_C 	C 	0.7011	0.9313	0.5205	-0.331
Mof_C 	C 	0.7545	0.0349	0.4876	0.211
Mof_C 	C 	0.8636	0.098	0.5243	-0.223
Mof_C 	C 	0.912	0.1944	0.4954	0.114
Mof_C 	C 	0.7521	0.1735	0.3944	0.12
Mof_C 	C 	0.6998	0.0785	0.422	-0.235
Mof_S 	S 	0.1184	0.7328	0.83622	-0.592
Mof_S 	S 	0.8468	0.52	0.79839	-0.521
Mof_S 	S 	0.8816	0.7328	0.66378	-0.525
Mof_S 	S 	0.1532	0.52	0.70161	-0.564
Mof_S 	S 	0.8816	0.2672	0.16378	-0.523
Mof_S 	S 	0.1532	0.48	0.20161	-0.563
Mof_S 	S 	0.1184	0.2672	0.33622	-0.593
Mof_S 	S 	0.8468	0.48	0.29839	-0.519
Mof_N 	N 	0.9962	0.5296	0.9749	-0.168
Mof_N 	N 	0.3792	0.5095	0.8632	-0.258
Mof_N 	N 	0.8598	0.7648	0.9297	-0.242
Mof_N 	N 	0.0038	0.5296	0.5251	-0.226
Mof_N 	N 	0.6208	0.5095	0.6368	-0.254
Mof_N 	N 	0.1402	0.7648	0.5703	-0.253
Mof_N 	N 	0.0038	0.4704	0.0251	-0.226
Mof_N 	N 	0.6208	0.4905	0.1368	-0.255
Mof_N 	N 	0.1402	0.2352	0.0703	-0.252
Mof_N 	N 	0.9962	0.4704	0.4749	-0.166
Mof_N 	N 	0.3792	0.4905	0.3632	-0.258
Mof_N 	N 	0.8598	0.2352	0.4297	-0.245
_end
