data_functionalizedCrystal
_audit_creation_method	'EQeq! by Chris Wilmer'
_symmetry_space_group_name_H-M	'P1'
_symmetry_Int_Tables_number	1
_symmetry_cell_setting	triclinic
loop_
_symmetry_equiv_pos_as_xyz
  x,y,z
_cell_length_a	11.716
_cell_length_b	13.693
_cell_length_c	13.8
_cell_angle_alpha	90
_cell_angle_beta	99.44
_cell_angle_gamma	90
loop_
_atom_site_label
_atom_site_type_symbol
_atom_site_fract_x
_atom_site_fract_y
_atom_site_fract_z
_atom_site_charge
Mof_Eu	Eu	0.61352	0.04016	0.91342	2.048
Mof_Eu	Eu	0.88648	0.54016	0.58658	2.084
Mof_Eu	Eu	0.38648	0.95984	0.08658	2.048
Mof_Eu	Eu	0.11352	0.45984	0.41342	2.084
Mof_H 	H 	0.8555	0.7655	0.059	0.039
Mof_H 	H 	0.9418	0.6633	0.1822	0.039
Mof_H 	H 	0.678	0.7059	0.3287	0.025
Mof_H 	H 	0.5913	0.8105	0.2068	0.023
Mof_H 	H 	0.4299	0.1234	0.5886	0.044
Mof_H 	H 	0.6488	0.901	0.5737	0.034
Mof_H 	H 	0.6445	0.2655	0.441	0.039
Mof_H 	H 	0.5582	0.1633	0.3178	0.042
Mof_H 	H 	0.822	0.2059	0.1713	0.028
Mof_H 	H 	0.9087	0.3105	0.2932	0.02
Mof_H 	H 	0.0701	0.6234	0.9114	0.042
Mof_H 	H 	0.8512	0.401	0.9263	0.035
Mof_H 	H 	0.1445	0.2345	0.941	0.039
Mof_H 	H 	0.0582	0.3367	0.8178	0.039
Mof_H 	H 	0.322	0.2941	0.6713	0.025
Mof_H 	H 	0.4087	0.1895	0.7932	0.023
Mof_H 	H 	0.5701	0.8766	0.4114	0.044
Mof_H 	H 	0.3512	0.099	0.4263	0.034
Mof_H 	H 	0.3555	0.7345	0.559	0.039
Mof_H 	H 	0.4418	0.8367	0.6822	0.042
Mof_H 	H 	0.178	0.7941	0.8287	0.028
Mof_H 	H 	0.0913	0.6895	0.7068	0.02
Mof_H 	H 	0.9299	0.3766	0.0886	0.042
Mof_H 	H 	0.1488	0.599	0.0737	0.035
Mof_C 	C 	0.6648	0.872	0.0439	0.409
Mof_C 	C 	0.7158	0.7999	0.121	-0.11
Mof_C 	C 	0.8202	0.7543	0.1136	-0.024
Mof_C 	C 	0.8714	0.6927	0.1871	-0.002
Mof_C 	C 	0.8189	0.6742	0.2686	-0.129
Mof_C 	C 	0.714	0.7185	0.2747	-0.005
Mof_C 	C 	0.6617	0.7812	0.2018	-0.017
Mof_C 	C 	0.8762	0.6078	0.3498	0.476
Mof_C 	C 	0.5959	0.03	0.7051	0.303
Mof_C 	C 	0.5479	0.0147	0.5981	-0.06
Mof_C 	C 	0.4582	0.0738	0.5531	-0.031
Mof_C 	C 	0.5889	0.9409	0.5441	-0.026
Mof_C 	C 	0.8352	0.372	0.4561	0.426
Mof_C 	C 	0.7842	0.2999	0.379	-0.117
Mof_C 	C 	0.6798	0.2543	0.3864	-0.017
Mof_C 	C 	0.6286	0.1927	0.3129	-0.008
Mof_C 	C 	0.6811	0.1742	0.2314	-0.122
Mof_C 	C 	0.786	0.2185	0.2253	-0.01
Mof_C 	C 	0.8383	0.2812	0.2982	-0.01
Mof_C 	C 	0.6238	0.1078	0.1502	0.471
Mof_C 	C 	0.9041	0.53	0.7949	0.313
Mof_C 	C 	0.9521	0.5147	0.9019	-0.062
Mof_C 	C 	0.0418	0.5738	0.9469	-0.022
Mof_C 	C 	0.9111	0.4409	0.9559	-0.034
Mof_C 	C 	0.3352	0.128	0.9561	0.409
Mof_C 	C 	0.2842	0.2001	0.879	-0.11
Mof_C 	C 	0.1798	0.2457	0.8864	-0.024
Mof_C 	C 	0.1286	0.3073	0.8129	-0.002
Mof_C 	C 	0.1811	0.3258	0.7314	-0.129
Mof_C 	C 	0.286	0.2815	0.7253	-0.005
Mof_C 	C 	0.3383	0.2188	0.7982	-0.017
Mof_C 	C 	0.1238	0.3922	0.6502	0.476
Mof_C 	C 	0.4041	0.97	0.2949	0.303
Mof_C 	C 	0.4521	0.9853	0.4019	-0.06
Mof_C 	C 	0.5418	0.9262	0.4469	-0.031
Mof_C 	C 	0.4111	0.0591	0.4559	-0.026
Mof_C 	C 	0.1648	0.628	0.5439	0.426
Mof_C 	C 	0.2158	0.7001	0.621	-0.117
Mof_C 	C 	0.3202	0.7457	0.6136	-0.017
Mof_C 	C 	0.3714	0.8073	0.6871	-0.008
Mof_C 	C 	0.3189	0.8258	0.7686	-0.122
Mof_C 	C 	0.214	0.7815	0.7747	-0.01
Mof_C 	C 	0.1617	0.7188	0.7018	-0.01
Mof_C 	C 	0.3762	0.8922	0.8498	0.471
Mof_C 	C 	0.0959	0.47	0.2051	0.313
Mof_C 	C 	0.0479	0.4853	0.0981	-0.062
Mof_C 	C 	0.9582	0.4262	0.0531	-0.022
Mof_C 	C 	0.0889	0.5591	0.0441	-0.034
Mof_O 	O 	0.72207	0.89856	0.97981	-0.488
Mof_O 	O 	0.56362	0.90632	0.04572	-0.614
Mof_O 	O 	0.97124	0.5716	0.33863	-0.522
Mof_O 	O 	0.82501	0.59473	0.42245	-0.561
Mof_O 	O 	0.55973	0.10221	0.74835	-0.473
Mof_O 	O 	0.66663	0.97029	0.7512	-0.401
Mof_O 	O 	0.77793	0.39856	0.52019	-0.506
Mof_O 	O 	0.93638	0.40632	0.45428	-0.619
Mof_O 	O 	0.52876	0.0716	0.16137	-0.512
Mof_O 	O 	0.67499	0.09473	0.07755	-0.549
Mof_O 	O 	0.94027	0.60221	0.75165	-0.477
Mof_O 	O 	0.83337	0.47029	0.7488	-0.412
Mof_O 	O 	0.27793	0.10144	0.02019	-0.488
Mof_O 	O 	0.43638	0.09368	0.95428	-0.614
Mof_O 	O 	0.02876	0.4284	0.66137	-0.522
Mof_O 	O 	0.17499	0.40527	0.57755	-0.561
Mof_O 	O 	0.44027	0.89779	0.25165	-0.473
Mof_O 	O 	0.33337	0.02971	0.2488	-0.401
Mof_O 	O 	0.22207	0.60144	0.47981	-0.506
Mof_O 	O 	0.06362	0.59368	0.54572	-0.619
Mof_O 	O 	0.47124	0.9284	0.83863	-0.512
Mof_O 	O 	0.32501	0.90527	0.92245	-0.549
Mof_O 	O 	0.05973	0.39779	0.24835	-0.477
Mof_O 	O 	0.16663	0.52971	0.2512	-0.412
_end
