data_functionalizedCrystal
_audit_creation_method	'EQeq! by Chris Wilmer'
_symmetry_space_group_name_H-M	'P1'
_symmetry_Int_Tables_number	1
_symmetry_cell_setting	triclinic
loop_
_symmetry_equiv_pos_as_xyz
  x,y,z
_cell_length_a	17.6167
_cell_length_b	9.1946
_cell_length_c	10.7005
_cell_angle_alpha	90
_cell_angle_beta	90
_cell_angle_gamma	90
loop_
_atom_site_label
_atom_site_type_symbol
_atom_site_fract_x
_atom_site_fract_y
_atom_site_fract_z
_atom_site_charge
Mof_Cd	Cd	0.50104	0.78615	0.239	0.501
Mof_Mg	Mg	0.47099	0.6267	0.70723	1.475
Mof_C 	C 	0.6747	0.5597	0.4333	-0.062
Mof_O 	O 	0.9305	0.4476	0.6222	-0.227
Mof_C 	C 	0.8084	0.4367	0.526	-0.042
Mof_O 	O 	0.9344	0.5153	0.3422	-0.217
Mof_O 	O 	0.8756	0.2339	0.6044	-0.251
Mof_C 	C 	0.8763	0.3669	0.586	0.297
Mof_C 	C 	0.6707	0.4521	0.5228	-0.07
Mof_O 	O 	0.5645	0.5137	0.6403	-0.483
Mof_C 	C 	0.7447	0.6073	0.392	-0.007
Mof_H 	H 	0.7467	0.6807	0.3323	0.06
Mof_C 	C 	0.8125	0.5486	0.4373	-0.03
Mof_C 	C 	0.7373	0.3883	0.5654	0.003
Mof_H 	H 	0.7344	0.3114	0.6217	0.056
Mof_C 	C 	0.885	0.6033	0.3799	0.285
Mof_O 	O 	0.8916	0.7384	0.3628	-0.244
Mof_O 	O 	0.5083	0.8039	0.606	-0.522
Mof_H 	H 	0.5497	0.7854	0.5747	0.294
Mof_C 	C 	0.5965	0.4125	0.5861	0.388
Mof_O 	O 	0.5971	0.7644	0.3862	-0.278
Mof_C 	C 	0.6046	0.6291	0.3767	0.342
Mof_O 	O 	0.575	0.2838	0.5827	-0.295
Mof_O 	O 	0.5564	0.5511	0.3192	-0.469
Mof_O 	O 	0.411	0.5497	0.5545	-0.537
Mof_H 	H 	0.4383	0.4956	0.5133	0.286
Mof_O 	O 	0.5289	0.7196	0.8559	-0.528
Mof_H 	H 	0.5726	0.6889	0.8573	0.279
Mof_Cd	Cd	0.49896	0.21385	0.739	0.5
Mof_Mg	Mg	0.52901	0.3733	0.20723	1.473
Mof_C 	C 	0.3253	0.4403	0.9333	-0.051
Mof_O 	O 	0.0695	0.5524	0.1222	-0.23
Mof_C 	C 	0.1916	0.5633	0.026	-0.055
Mof_O 	O 	0.0656	0.4847	0.8422	-0.214
Mof_O 	O 	0.1244	0.7661	0.1044	-0.253
Mof_C 	C 	0.1237	0.6331	0.086	0.299
Mof_C 	C 	0.3293	0.5479	0.0228	-0.081
Mof_O 	O 	0.4355	0.4863	0.1403	-0.484
Mof_C 	C 	0.2553	0.3927	0.892	-0.016
Mof_H 	H 	0.2533	0.3193	0.8323	0.063
Mof_C 	C 	0.1875	0.4514	0.9373	-0.017
Mof_C 	C 	0.2627	0.6117	0.0654	0.012
Mof_H 	H 	0.2656	0.6886	0.1217	0.052
Mof_C 	C 	0.115	0.3967	0.8799	0.282
Mof_O 	O 	0.1084	0.2616	0.8628	-0.242
Mof_O 	O 	0.4917	0.1961	0.106	-0.523
Mof_H 	H 	0.4503	0.2146	0.0747	0.293
Mof_C 	C 	0.4035	0.5875	0.0861	0.391
Mof_O 	O 	0.4029	0.2356	0.8862	-0.276
Mof_C 	C 	0.3954	0.3709	0.8767	0.339
Mof_O 	O 	0.425	0.7162	0.0827	-0.296
Mof_O 	O 	0.4436	0.4489	0.8192	-0.467
Mof_O 	O 	0.589	0.4503	0.0545	-0.538
Mof_H 	H 	0.5617	0.5044	0.0133	0.285
Mof_O 	O 	0.4711	0.2804	0.3559	-0.529
Mof_H 	H 	0.4274	0.3111	0.3573	0.279
Mof_Cd	Cd	0.00104	0.71385	0.239	0.499
Mof_Mg	Mg	0.97099	0.8733	0.70723	1.473
Mof_C 	C 	0.1747	0.9403	0.4333	-0.056
Mof_O 	O 	0.4305	0.0524	0.6222	-0.227
Mof_C 	C 	0.3084	0.0633	0.526	-0.048
Mof_O 	O 	0.4344	0.9847	0.3422	-0.217
Mof_O 	O 	0.3756	0.2661	0.6044	-0.252
Mof_C 	C 	0.3763	0.1331	0.586	0.298
Mof_C 	C 	0.1707	0.0479	0.5228	-0.075
Mof_O 	O 	0.0645	0.9863	0.6403	-0.477
Mof_C 	C 	0.2447	0.8927	0.392	-0.012
Mof_H 	H 	0.2467	0.8193	0.3323	0.061
Mof_C 	C 	0.3125	0.9514	0.4373	-0.024
Mof_C 	C 	0.2373	0.1117	0.5654	0.006
Mof_H 	H 	0.2344	0.1886	0.6217	0.054
Mof_C 	C 	0.385	0.8967	0.3799	0.284
Mof_O 	O 	0.3916	0.7616	0.3628	-0.243
Mof_O 	O 	0.0083	0.6961	0.606	-0.52
Mof_H 	H 	0.0497	0.7146	0.5747	0.294
Mof_C 	C 	0.0965	0.0875	0.5861	0.383
Mof_O 	O 	0.0971	0.7356	0.3862	-0.277
Mof_C 	C 	0.1046	0.8709	0.3767	0.341
Mof_O 	O 	0.075	0.2162	0.5827	-0.294
Mof_O 	O 	0.0564	0.9489	0.3192	-0.467
Mof_O 	O 	0.911	0.9503	0.5545	-0.545
Mof_H 	H 	0.9383	0.0044	0.5133	0.291
Mof_O 	O 	0.0289	0.7804	0.8559	-0.525
Mof_H 	H 	0.0726	0.8111	0.8573	0.28
Mof_Cd	Cd	0.99896	0.28615	0.739	0.499
Mof_Mg	Mg	0.02901	0.1267	0.20723	1.473
Mof_C 	C 	0.8253	0.0597	0.9333	-0.059
Mof_O 	O 	0.5695	0.9476	0.1222	-0.228
Mof_C 	C 	0.6916	0.9367	0.026	-0.047
Mof_O 	O 	0.5656	0.0153	0.8422	-0.216
Mof_O 	O 	0.6244	0.7339	0.1044	-0.252
Mof_C 	C 	0.6237	0.8669	0.086	0.297
Mof_C 	C 	0.8293	0.9521	0.0228	-0.073
Mof_O 	O 	0.9355	0.0137	0.1403	-0.478
Mof_C 	C 	0.7553	0.1073	0.892	-0.01
Mof_H 	H 	0.7533	0.1807	0.8323	0.061
Mof_C 	C 	0.6875	0.0486	0.9373	-0.026
Mof_C 	C 	0.7627	0.8883	0.0654	0.005
Mof_H 	H 	0.7656	0.8114	0.1217	0.055
Mof_C 	C 	0.615	0.1033	0.8799	0.284
Mof_O 	O 	0.6084	0.2384	0.8628	-0.243
Mof_O 	O 	0.9917	0.3039	0.106	-0.519
Mof_H 	H 	0.9503	0.2854	0.0747	0.294
Mof_C 	C 	0.9035	0.9125	0.0861	0.384
Mof_O 	O 	0.9029	0.2644	0.8862	-0.278
Mof_C 	C 	0.8954	0.1291	0.8767	0.341
Mof_O 	O 	0.925	0.7838	0.0827	-0.294
Mof_O 	O 	0.9436	0.0511	0.8192	-0.468
Mof_O 	O 	0.089	0.0497	0.0545	-0.548
Mof_H 	H 	0.0617	0.9956	0.0133	0.29
Mof_O 	O 	0.9711	0.2196	0.3559	-0.528
Mof_H 	H 	0.9274	0.1889	0.3573	0.279
_end
