data_functionalizedCrystal
_audit_creation_method	'EQeq! by Chris Wilmer'
_symmetry_space_group_name_H-M	'P1'
_symmetry_Int_Tables_number	1
_symmetry_cell_setting	triclinic
loop_
_symmetry_equiv_pos_as_xyz
  x,y,z
_cell_length_a	10.767
_cell_length_b	14.345
_cell_length_c	17.049
_cell_angle_alpha	90
_cell_angle_beta	106.518
_cell_angle_gamma	90
loop_
_atom_site_label
_atom_site_type_symbol
_atom_site_fract_x
_atom_site_fract_y
_atom_site_fract_z
_atom_site_charge
Mof_Co	Co	0.44691	0.47348	0.4055	1.173
Mof_Co	Co	0.05309	0.97348	0.0945	1.173
Mof_Co	Co	0.55309	0.52652	0.5945	1.173
Mof_Co	Co	0.24914	0.90868	0.99926	1.184
Mof_Co	Co	0.94817	0.52842	0.40701	1.174
Mof_Co	Co	0.44817	0.97158	0.90701	1.171
Mof_Co	Co	0.74914	0.59132	0.49926	1.188
Mof_Co	Co	0.75086	0.09132	0.00074	1.185
Mof_Co	Co	0.55183	0.02842	0.09299	1.171
Mof_Co	Co	0.25086	0.40868	0.50074	1.188
Mof_Co	Co	0.94691	0.02652	0.9055	1.174
Mof_Co	Co	0.05183	0.47158	0.59299	1.174
Mof_H 	H 	0.0152	0.8668	0.9675	0.315
Mof_H 	H 	0.867	0.2895	0.7435	0.054
Mof_H 	H 	0.4848	0.3668	0.5325	0.315
Mof_H 	H 	0.07	0.1871	0.3428	0.061
Mof_H 	H 	0.93	0.8129	0.6572	0.061
Mof_H 	H 	0.43	0.6871	0.1572	0.057
Mof_H 	H 	0.0141	0.9319	0.7515	0.009
Mof_H 	H 	0.9859	0.0681	0.2485	0.009
Mof_H 	H 	0.133	0.7105	0.2565	0.054
Mof_H 	H 	0.023	0.3679	0.4687	0.33
Mof_H 	H 	0.0496	0.7014	0.8273	0.058
Mof_H 	H 	0.4859	0.4319	0.7485	0.02
Mof_H 	H 	0.5294	0.0802	0.7633	0.015
Mof_H 	H 	0.477	0.8679	0.0313	0.33
Mof_H 	H 	0.9848	0.1332	0.0325	0.315
Mof_H 	H 	0.5496	0.7986	0.3273	0.059
Mof_H 	H 	0.523	0.1321	0.9687	0.33
Mof_H 	H 	0.4706	0.9198	0.2367	0.015
Mof_H 	H 	0.633	0.7895	0.7565	0.056
Mof_H 	H 	0.367	0.2105	0.2435	0.056
Mof_H 	H 	0.9706	0.5802	0.7367	0.016
Mof_H 	H 	0.5141	0.5681	0.2515	0.02
Mof_H 	H 	0.977	0.6321	0.5313	0.33
Mof_H 	H 	0.13	0.2048	0.7483	0.058
Mof_H 	H 	0.37	0.7048	0.7517	0.057
Mof_H 	H 	0.0294	0.4198	0.2633	0.016
Mof_H 	H 	0.5152	0.6332	0.4675	0.315
Mof_H 	H 	0.4504	0.2014	0.6727	0.059
Mof_H 	H 	0.63	0.2952	0.2483	0.057
Mof_H 	H 	0.87	0.7952	0.2517	0.058
Mof_H 	H 	0.9504	0.2986	0.1727	0.058
Mof_H 	H 	0.57	0.3129	0.8428	0.057
Mof_C 	C 	0.3041	0.56373	0.63948	0.378
Mof_C 	C 	0.7635	0.89072	0.80588	-0.066
Mof_C 	C 	0.7753	0.78591	0.69951	-0.06
Mof_C 	C 	0.0638	0.09705	0.24873	0.047
Mof_C 	C 	0.5983	0.82135	0.29391	-0.047
Mof_C 	C 	0.1959	0.06373	0.86052	0.377
Mof_C 	C 	0.7661	0.69948	0.35299	0.342
Mof_C 	C 	0.448	0.10537	0.76022	0.035
Mof_C 	C 	0.2247	0.21409	0.30049	-0.06
Mof_C 	C 	0.612	0.33085	0.80383	-0.042
Mof_C 	C 	0.552	0.89463	0.23978	0.035
Mof_C 	C 	0.2661	0.80052	0.85299	0.342
Mof_C 	C 	0.2339	0.30052	0.64701	0.342
Mof_C 	C 	0.7247	0.28591	0.80049	-0.064
Mof_C 	C 	0.2365	0.10928	0.19412	-0.066
Mof_C 	C 	0.7894	0.31682	0.74565	0.007
Mof_C 	C 	0.2736	0.29591	0.35707	0.342
Mof_C 	C 	0.782	0.2824	0.20294	-0.06
Mof_C 	C 	0.2364	0.60619	0.69671	-0.063
Mof_C 	C 	0.9017	0.32135	0.20609	-0.045
Mof_C 	C 	0.112	0.16915	0.30383	-0.05
Mof_C 	C 	0.2896	0.68012	0.74843	0.001
Mof_C 	C 	0.7104	0.31988	0.25157	0.001
Mof_C 	C 	0.802	0.43153	0.63481	0.381
Mof_C 	C 	0.7264	0.70409	0.64293	0.342
Mof_C 	C 	0.2894	0.18318	0.24565	0.003
Mof_C 	C 	0.052	0.60537	0.73978	0.032
Mof_C 	C 	0.282	0.2176	0.70294	-0.058
Mof_C 	C 	0.2753	0.71409	0.19951	-0.064
Mof_C 	C 	0.0983	0.67865	0.79391	-0.045
Mof_C 	C 	0.198	0.56847	0.36519	0.381
Mof_C 	C 	0.4362	0.59705	0.25127	0.031
Mof_C 	C 	0.718	0.7824	0.29706	-0.058
Mof_C 	C 	0.5638	0.40295	0.74873	0.031
Mof_C 	C 	0.888	0.83085	0.69617	-0.05
Mof_C 	C 	0.7364	0.89381	0.19671	-0.061
Mof_C 	C 	0.2264	0.79591	0.14293	0.343
Mof_C 	C 	0.388	0.66915	0.19617	-0.042
Mof_C 	C 	0.9362	0.90295	0.75127	0.047
Mof_C 	C 	0.7896	0.81988	0.24843	-0
Mof_C 	C 	0.218	0.7176	0.79706	-0.06
Mof_C 	C 	0.7339	0.19948	0.14701	0.342
Mof_C 	C 	0.7365	0.39072	0.69412	-0.068
Mof_C 	C 	0.2636	0.10619	0.80329	-0.061
Mof_C 	C 	0.8041	0.93627	0.13948	0.377
Mof_C 	C 	0.7736	0.20409	0.85707	0.343
Mof_C 	C 	0.2635	0.60928	0.30588	-0.068
Mof_C 	C 	0.948	0.39463	0.26022	0.032
Mof_C 	C 	0.302	0.06847	0.13481	0.38
Mof_C 	C 	0.7106	0.81682	0.75435	0.003
Mof_C 	C 	0.2106	0.68318	0.25435	0.007
Mof_C 	C 	0.6959	0.43627	0.36052	0.378
Mof_C 	C 	0.2104	0.18012	0.75157	-0
Mof_C 	C 	0.7636	0.39381	0.30329	-0.063
Mof_C 	C 	0.4017	0.17865	0.70609	-0.047
Mof_C 	C 	0.698	0.93153	0.86519	0.38
Mof_N 	N 	0.61854	0.92988	0.19157	-0.19
Mof_N 	N 	0.38146	0.07012	0.80843	-0.19
Mof_N 	N 	0.37611	0.56841	0.30582	-0.19
Mof_N 	N 	0.62389	0.43159	0.69418	-0.19
Mof_N 	N 	0.87611	0.93159	0.80582	-0.192
Mof_N 	N 	0.11854	0.57012	0.69157	-0.191
Mof_N 	N 	0.88146	0.42988	0.30843	-0.191
Mof_N 	N 	0.12389	0.06841	0.19418	-0.192
Mof_O 	O 	0.84754	0.14663	0.83672	-0.389
Mof_O 	O 	0.26587	0.5111	0.41571	-0.562
Mof_O 	O 	0.26587	0.79946	0.08059	-0.421
Mof_O 	O 	0.23413	0.0111	0.08429	-0.561
Mof_O 	O 	0.55211	0.08033	0.97915	-0.829
Mof_O 	O 	0.65246	0.64663	0.66328	-0.387
Mof_O 	O 	0.76587	0.70054	0.58059	-0.421
Mof_O 	O 	0.84384	0.64411	0.3345	-0.39
Mof_O 	O 	0.34384	0.85589	0.8345	-0.392
Mof_O 	O 	0.94789	0.58033	0.52085	-0.832
Mof_O 	O 	0.76587	0.9889	0.91571	-0.561
Mof_O 	O 	0.15616	0.35589	0.6655	-0.39
Mof_O 	O 	0.58476	0.90941	0.85963	-0.432
Mof_O 	O 	0.73547	0.98737	0.08457	-0.552
Mof_O 	O 	0.57877	0.4184	0.34986	-0.425
Mof_O 	O 	0.22096	0.80556	0.91322	-0.427
Mof_O 	O 	0.91524	0.40941	0.64037	-0.432
Mof_O 	O 	0.08476	0.59059	0.35963	-0.432
Mof_O 	O 	0.73413	0.4889	0.58429	-0.562
Mof_O 	O 	0.95299	0.0813	0.02097	-0.809
Mof_O 	O 	0.41524	0.09059	0.14037	-0.432
Mof_O 	O 	0.72096	0.69444	0.41322	-0.425
Mof_O 	O 	0.73413	0.20054	0.91941	-0.421
Mof_O 	O 	0.92123	0.9184	0.15014	-0.419
Mof_O 	O 	0.23413	0.29946	0.41941	-0.421
Mof_O 	O 	0.42123	0.5816	0.65014	-0.425
Mof_O 	O 	0.77904	0.19444	0.08678	-0.427
Mof_O 	O 	0.45299	0.4187	0.52097	-0.805
Mof_O 	O 	0.15246	0.85337	0.16328	-0.389
Mof_O 	O 	0.54701	0.5813	0.47903	-0.805
Mof_O 	O 	0.07877	0.0816	0.84986	-0.419
Mof_O 	O 	0.44789	0.91967	0.02085	-0.829
Mof_O 	O 	0.65616	0.14411	0.1655	-0.392
Mof_O 	O 	0.23547	0.51263	0.58457	-0.558
Mof_O 	O 	0.34754	0.35337	0.33672	-0.387
Mof_O 	O 	0.05211	0.41967	0.47915	-0.832
Mof_O 	O 	0.26453	0.01263	0.91543	-0.552
Mof_O 	O 	0.04701	0.9187	0.97903	-0.809
Mof_O 	O 	0.27904	0.30556	0.58678	-0.425
Mof_O 	O 	0.76453	0.48737	0.41543	-0.558
_end
