data_functionalizedCrystal
_audit_creation_method	'EQeq! by Chris Wilmer'
_symmetry_space_group_name_H-M	'P1'
_symmetry_Int_Tables_number	1
_symmetry_cell_setting	triclinic
loop_
_symmetry_equiv_pos_as_xyz
  x,y,z
_cell_length_a	16.5126
_cell_length_b	16.5126
_cell_length_c	24.5098
_cell_angle_alpha	90
_cell_angle_beta	90
_cell_angle_gamma	120
loop_
_atom_site_label
_atom_site_type_symbol
_atom_site_fract_x
_atom_site_fract_y
_atom_site_fract_z
_atom_site_charge
Mof_Ce	Ce	0.92298	0.92298	-0	2.842
Mof_Ce	Ce	1.58483e-18	0.07702	0.66667	2.193
Mof_Ce	Ce	0.07702	-8.72327e-33	0.33333	2.197
Mof_Ce	Ce	0.07702	0.07702	0.5	2.279
Mof_Ce	Ce	-3.02965e-17	0.92298	0.16667	2.572
Mof_Ce	Ce	0.92298	-1.74465e-32	0.83333	2.562
Mof_H 	H 	0.0223	0.6833	0.9968	0.111
Mof_H 	H 	0.1149	0.6157	0.011	0.003
Mof_H 	H 	0.2811	0.8258	0.1091	0.05
Mof_H 	H 	0.1911	0.8969	0.096	0.057
Mof_H 	H 	0.1518	0.5353	0.0631	0.048
Mof_H 	H 	0.1258	0.3934	0.017	0.102
Mof_H 	H 	0.0445	0.2368	0.0194	-0.073
Mof_H 	H 	0.661	0.9777	0.66347	0.037
Mof_H 	H 	0.5008	0.8851	0.67767	0.081
Mof_H 	H 	0.5447	0.7189	0.77577	0.074
Mof_H 	H 	0.7058	0.8089	0.76267	0.015
Mof_H 	H 	0.3835	0.8482	0.72977	0.065
Mof_H 	H 	0.2676	0.8742	0.68367	0.114
Mof_H 	H 	0.1923	0.9555	0.68607	-0.008
Mof_H 	H 	0.3167	0.339	0.33013	0.014
Mof_H 	H 	0.3843	0.4992	0.34433	0.069
Mof_H 	H 	0.1742	0.4553	0.44243	0.055
Mof_H 	H 	0.1031	0.2942	0.42933	0.005
Mof_H 	H 	0.4647	0.6165	0.39643	0.057
Mof_H 	H 	0.6066	0.7324	0.35033	0.102
Mof_H 	H 	0.7632	0.8077	0.35273	-0.008
Mof_H 	H 	0.9777	0.3167	0.4968	0.035
Mof_H 	H 	0.8851	0.3843	0.511	0.08
Mof_H 	H 	0.7189	0.1742	0.6091	0.058
Mof_H 	H 	0.8089	0.1031	0.596	0.003
Mof_H 	H 	0.8482	0.4647	0.5631	0.066
Mof_H 	H 	0.8742	0.6066	0.517	0.107
Mof_H 	H 	0.9555	0.7632	0.5194	0.006
Mof_H 	H 	0.339	0.0223	0.16347	-0.004
Mof_H 	H 	0.4992	0.1149	0.17767	0.053
Mof_H 	H 	0.4553	0.2811	0.27577	0.06
Mof_H 	H 	0.2942	0.1911	0.26267	0.027
Mof_H 	H 	0.6165	0.1518	0.22977	0.046
Mof_H 	H 	0.7324	0.1258	0.18367	0.099
Mof_H 	H 	0.8077	0.0445	0.18607	-0.04
Mof_H 	H 	0.6833	0.661	0.83013	0.019
Mof_H 	H 	0.6157	0.5008	0.84433	0.072
Mof_H 	H 	0.8258	0.5447	0.94243	0.087
Mof_H 	H 	0.8969	0.7058	0.92933	0.041
Mof_H 	H 	0.5353	0.3835	0.89643	0.053
Mof_H 	H 	0.3934	0.2676	0.85033	0.119
Mof_H 	H 	0.2368	0.1923	0.85273	-0.041
Mof_H 	H 	0.339	0.3167	0.66987	0.015
Mof_H 	H 	0.4992	0.3843	0.65567	0.07
Mof_H 	H 	0.4553	0.1742	0.55757	0.054
Mof_H 	H 	0.2942	0.1031	0.57067	0.005
Mof_H 	H 	0.6165	0.4647	0.60357	0.057
Mof_H 	H 	0.7324	0.6066	0.64967	0.102
Mof_H 	H 	0.8077	0.7632	0.64727	-0.008
Mof_H 	H 	0.6833	0.0223	0.0032	-0.098
Mof_H 	H 	0.6157	0.1149	0.989	0.105
Mof_H 	H 	0.8258	0.2811	0.8909	0.094
Mof_H 	H 	0.8969	0.1911	0.904	0.022
Mof_H 	H 	0.5353	0.1518	0.9369	0.04
Mof_H 	H 	0.3934	0.1258	0.983	0.124
Mof_H 	H 	0.2368	0.0445	0.9806	-0.044
Mof_H 	H 	0.9777	0.661	0.33653	0.037
Mof_H 	H 	0.8851	0.5008	0.32233	0.08
Mof_H 	H 	0.7189	0.5447	0.22423	0.068
Mof_H 	H 	0.8089	0.7058	0.23733	0.015
Mof_H 	H 	0.8482	0.3835	0.27023	0.064
Mof_H 	H 	0.8742	0.2676	0.31633	0.113
Mof_H 	H 	0.9555	0.1923	0.31393	-0.008
Mof_H 	H 	0.661	0.6833	0.16987	0.016
Mof_H 	H 	0.5008	0.6157	0.15567	0.068
Mof_H 	H 	0.5447	0.8258	0.05757	0.071
Mof_H 	H 	0.7058	0.8969	0.07067	0.02
Mof_H 	H 	0.3835	0.5353	0.10357	0.051
Mof_H 	H 	0.2676	0.3934	0.14967	0.116
Mof_H 	H 	0.1923	0.2368	0.14727	-0.046
Mof_H 	H 	0.3167	0.9777	0.5032	0.036
Mof_H 	H 	0.3843	0.8851	0.489	0.081
Mof_H 	H 	0.1742	0.7189	0.3909	0.059
Mof_H 	H 	0.1031	0.8089	0.404	0.004
Mof_H 	H 	0.4647	0.8482	0.4369	0.066
Mof_H 	H 	0.6066	0.8742	0.483	0.107
Mof_H 	H 	0.7632	0.9555	0.4806	0.007
Mof_H 	H 	0.0223	0.339	0.83653	0.003
Mof_H 	H 	0.1149	0.4992	0.82233	0.062
Mof_H 	H 	0.2811	0.4553	0.72423	0.061
Mof_H 	H 	0.1911	0.2942	0.73733	0.027
Mof_H 	H 	0.1518	0.6165	0.77023	0.048
Mof_H 	H 	0.1258	0.7324	0.81633	0.109
Mof_H 	H 	0.0445	0.8077	0.81393	-0.037
Mof_H 	H 	0.3872	0.7744	0.08333	0.071
Mof_H 	H 	0.3872	0.6128	0.75	0.06
Mof_H 	H 	0.2256	0.6128	0.41667	0.049
Mof_H 	H 	0.6128	0.2256	0.58333	0.048
Mof_H 	H 	0.6128	0.3872	0.25	0.058
Mof_H 	H 	0.7744	0.3872	0.91667	0.065
Mof_C 	C 	0.0297	0.8334	0.0398	0.28
Mof_C 	C 	0.0964	0.795	0.046	-0.046
Mof_C 	C 	0.0739	0.7118	0.0198	-0.167
Mof_C 	C 	0.1303	0.6716	0.0285	-0.007
Mof_C 	C 	0.2062	0.7115	0.0615	-0.029
Mof_C 	C 	0.2286	0.797	0.0867	-0.051
Mof_C 	C 	0.1749	0.8401	0.0793	-0.049
Mof_C 	C 	0.2591	0.6629	0.0724	0.051
Mof_C 	C 	0.2151	0.568	0.0718	-0.1
Mof_C 	C 	0.1383	0.3618	0.0441	-0.275
Mof_C 	C 	0.0911	0.2687	0.0452	0.219
Mof_C 	C 	0.8037	0.9703	0.70647	0.505
Mof_C 	C 	0.6986	0.9036	0.71267	-0.169
Mof_C 	C 	0.6379	0.9261	0.68647	0.073
Mof_C 	C 	0.5413	0.8697	0.69517	-0.133
Mof_C 	C 	0.5053	0.7938	0.72817	0.064
Mof_C 	C 	0.5684	0.7714	0.75337	-0.131
Mof_C 	C 	0.6652	0.8251	0.74597	0.062
Mof_C 	C 	0.4038	0.7409	0.73907	0.023
Mof_C 	C 	0.3529	0.7849	0.73847	-0.081
Mof_C 	C 	0.2235	0.8617	0.71077	-0.226
Mof_C 	C 	0.1776	0.9089	0.71187	0.179
Mof_C 	C 	0.1666	0.1963	0.37313	0.397
Mof_C 	C 	0.205	0.3014	0.37933	-0.157
Mof_C 	C 	0.2882	0.3621	0.35313	0.047
Mof_C 	C 	0.3284	0.4587	0.36183	-0.13
Mof_C 	C 	0.2885	0.4947	0.39483	0.049
Mof_C 	C 	0.203	0.4316	0.42003	-0.127
Mof_C 	C 	0.1599	0.3348	0.41263	0.035
Mof_C 	C 	0.3371	0.5962	0.40573	0.021
Mof_C 	C 	0.432	0.6471	0.40513	-0.087
Mof_C 	C 	0.6382	0.7765	0.37743	-0.2
Mof_C 	C 	0.7313	0.8224	0.37853	0.155
Mof_C 	C 	0.9703	0.1666	0.5398	0.491
Mof_C 	C 	0.9036	0.205	0.546	-0.171
Mof_C 	C 	0.9261	0.2882	0.5198	0.068
Mof_C 	C 	0.8697	0.3284	0.5285	-0.133
Mof_C 	C 	0.7938	0.2885	0.5615	0.058
Mof_C 	C 	0.7714	0.203	0.5867	-0.132
Mof_C 	C 	0.8251	0.1599	0.5793	0.053
Mof_C 	C 	0.7409	0.3371	0.5724	0.021
Mof_C 	C 	0.7849	0.432	0.5718	-0.086
Mof_C 	C 	0.8617	0.6382	0.5441	-0.198
Mof_C 	C 	0.9089	0.7313	0.5452	0.153
Mof_C 	C 	0.1963	0.0297	0.20647	0.299
Mof_C 	C 	0.3014	0.0964	0.21267	-0.124
Mof_C 	C 	0.3621	0.0739	0.18647	0.018
Mof_C 	C 	0.4587	0.1303	0.19517	-0.12
Mof_C 	C 	0.4947	0.2062	0.22817	0.037
Mof_C 	C 	0.4316	0.2286	0.25337	-0.112
Mof_C 	C 	0.3348	0.1749	0.24597	0.014
Mof_C 	C 	0.5962	0.2591	0.23907	0.022
Mof_C 	C 	0.6471	0.2151	0.23847	-0.086
Mof_C 	C 	0.7765	0.1383	0.21077	-0.232
Mof_C 	C 	0.8224	0.0911	0.21187	0.181
Mof_C 	C 	0.8334	0.8037	0.87313	0.413
Mof_C 	C 	0.795	0.6986	0.87933	-0.142
Mof_C 	C 	0.7118	0.6379	0.85313	0.054
Mof_C 	C 	0.6716	0.5413	0.86183	-0.128
Mof_C 	C 	0.7115	0.5053	0.89483	0.064
Mof_C 	C 	0.797	0.5684	0.92003	-0.12
Mof_C 	C 	0.8401	0.6652	0.91263	0.048
Mof_C 	C 	0.6629	0.4038	0.90573	0.014
Mof_C 	C 	0.568	0.3529	0.90513	-0.065
Mof_C 	C 	0.3618	0.2235	0.87743	-0.265
Mof_C 	C 	0.2687	0.1776	0.87853	0.217
Mof_C 	C 	0.1963	0.1666	0.62687	0.397
Mof_C 	C 	0.3014	0.205	0.62067	-0.157
Mof_C 	C 	0.3621	0.2882	0.64687	0.047
Mof_C 	C 	0.4587	0.3284	0.63817	-0.13
Mof_C 	C 	0.4947	0.2885	0.60517	0.049
Mof_C 	C 	0.4316	0.203	0.57997	-0.127
Mof_C 	C 	0.3348	0.1599	0.58737	0.035
Mof_C 	C 	0.5962	0.3371	0.59427	0.021
Mof_C 	C 	0.6471	0.432	0.59487	-0.087
Mof_C 	C 	0.7765	0.6382	0.62257	-0.201
Mof_C 	C 	0.8224	0.7313	0.62147	0.155
Mof_C 	C 	0.8334	0.0297	0.9602	0.328
Mof_C 	C 	0.795	0.0964	0.954	-0.185
Mof_C 	C 	0.7118	0.0739	0.9802	0.19
Mof_C 	C 	0.6716	0.1303	0.9715	-0.218
Mof_C 	C 	0.7115	0.2062	0.9385	0.108
Mof_C 	C 	0.797	0.2286	0.9133	-0.162
Mof_C 	C 	0.8401	0.1749	0.9207	0.082
Mof_C 	C 	0.6629	0.2591	0.9276	-0.005
Mof_C 	C 	0.568	0.2151	0.9282	-0.057
Mof_C 	C 	0.3618	0.1383	0.9559	-0.266
Mof_C 	C 	0.2687	0.0911	0.9548	0.221
Mof_C 	C 	0.9703	0.8037	0.29353	0.498
Mof_C 	C 	0.9036	0.6986	0.28733	-0.167
Mof_C 	C 	0.9261	0.6379	0.31353	0.07
Mof_C 	C 	0.8697	0.5413	0.30483	-0.132
Mof_C 	C 	0.7938	0.5053	0.27183	0.06
Mof_C 	C 	0.7714	0.5684	0.24663	-0.13
Mof_C 	C 	0.8251	0.6652	0.25403	0.057
Mof_C 	C 	0.7409	0.4038	0.26093	0.021
Mof_C 	C 	0.7849	0.3529	0.26153	-0.084
Mof_C 	C 	0.8617	0.2235	0.28923	-0.225
Mof_C 	C 	0.9089	0.1776	0.28813	0.177
Mof_C 	C 	0.8037	0.8334	0.12687	0.412
Mof_C 	C 	0.6986	0.795	0.12067	-0.153
Mof_C 	C 	0.6379	0.7118	0.14687	0.049
Mof_C 	C 	0.5413	0.6716	0.13817	-0.128
Mof_C 	C 	0.5053	0.7115	0.10517	0.049
Mof_C 	C 	0.5684	0.797	0.07997	-0.124
Mof_C 	C 	0.6652	0.8401	0.08737	0.043
Mof_C 	C 	0.4038	0.6629	0.09427	0.028
Mof_C 	C 	0.3529	0.568	0.09487	-0.088
Mof_C 	C 	0.2235	0.3618	0.12257	-0.268
Mof_C 	C 	0.1776	0.2687	0.12147	0.216
Mof_C 	C 	0.1666	0.9703	0.4602	0.496
Mof_C 	C 	0.205	0.9036	0.454	-0.172
Mof_C 	C 	0.2882	0.9261	0.4802	0.069
Mof_C 	C 	0.3284	0.8697	0.4715	-0.134
Mof_C 	C 	0.2885	0.7938	0.4385	0.059
Mof_C 	C 	0.203	0.7714	0.4133	-0.132
Mof_C 	C 	0.1599	0.8251	0.4207	0.054
Mof_C 	C 	0.3371	0.7409	0.4276	0.022
Mof_C 	C 	0.432	0.7849	0.4282	-0.087
Mof_C 	C 	0.6382	0.8617	0.4559	-0.197
Mof_C 	C 	0.7313	0.9089	0.4548	0.153
Mof_C 	C 	0.0297	0.1963	0.79353	0.301
Mof_C 	C 	0.0964	0.3014	0.78733	-0.121
Mof_C 	C 	0.0739	0.3621	0.81353	0.024
Mof_C 	C 	0.1303	0.4587	0.80483	-0.117
Mof_C 	C 	0.2062	0.4947	0.77183	0.041
Mof_C 	C 	0.2286	0.4316	0.74663	-0.111
Mof_C 	C 	0.1749	0.3348	0.75403	0.016
Mof_C 	C 	0.2591	0.5962	0.76093	0.025
Mof_C 	C 	0.2151	0.6471	0.76153	-0.083
Mof_C 	C 	0.1383	0.7765	0.78923	-0.233
Mof_C 	C 	0.0911	0.8224	0.78813	0.185
Mof_C 	C 	0.3546	0.7092	0.08333	-0.114
Mof_C 	C 	0.2586	0.5172	0.08333	-0.008
Mof_C 	C 	0.206	0.412	0.08333	0.143
Mof_C 	C 	0.1089	0.2178	0.08333	-0.331
Mof_C 	C 	0.0561	0.1122	0.08333	0.64
Mof_C 	C 	0.3546	0.6454	0.75	-0.091
Mof_C 	C 	0.2586	0.7414	0.75	0.001
Mof_C 	C 	0.206	0.794	0.75	0.13
Mof_C 	C 	0.1089	0.8911	0.75	-0.264
Mof_C 	C 	0.0561	0.9439	0.75	0.584
Mof_C 	C 	0.2908	0.6454	0.41667	-0.091
Mof_C 	C 	0.4828	0.7414	0.41667	0.01
Mof_C 	C 	0.588	0.794	0.41667	0.113
Mof_C 	C 	0.7822	0.8911	0.41667	-0.222
Mof_C 	C 	0.8878	0.9439	0.41667	0.551
Mof_C 	C 	0.6454	0.2908	0.58333	-0.091
Mof_C 	C 	0.7414	0.4828	0.58333	0.01
Mof_C 	C 	0.794	0.588	0.58333	0.114
Mof_C 	C 	0.8911	0.7822	0.58333	-0.222
Mof_C 	C 	0.9439	0.8878	0.58333	0.551
Mof_C 	C 	0.6454	0.3546	0.25	-0.095
Mof_C 	C 	0.7414	0.2586	0.25	-0.001
Mof_C 	C 	0.794	0.206	0.25	0.126
Mof_C 	C 	0.8911	0.1089	0.25	-0.265
Mof_C 	C 	0.9439	0.0561	0.25	0.584
Mof_C 	C 	0.7092	0.3546	0.91667	-0.072
Mof_C 	C 	0.5172	0.2586	0.91667	-0.022
Mof_C 	C 	0.412	0.206	0.91667	0.156
Mof_C 	C 	0.2178	0.1089	0.91667	-0.313
Mof_C 	C 	0.1122	0.0561	0.91667	0.635
Mof_O 	O 	0.9685	0.7999	0.0036	-0.502
Mof_O 	O 	0.0376	0.8988	0.071	-0.67
Mof_O 	O 	0.0012	0.072	0.0452	-0.746
Mof_O 	O 	0.8314	0.0315	0.67027	-0.586
Mof_O 	O 	0.8612	0.9624	0.73767	-0.613
Mof_O 	O 	0.0708	0.9988	0.71187	-0.551
Mof_O 	O 	0.2001	0.1686	0.33693	-0.524
Mof_O 	O 	0.1012	0.1388	0.40433	-0.664
Mof_O 	O 	0.928	0.9292	0.37853	-0.505
Mof_O 	O 	0.0315	0.2001	0.5036	-0.609
Mof_O 	O 	0.9624	0.1012	0.571	-0.631
Mof_O 	O 	0.9988	0.928	0.5452	-0.5
Mof_O 	O 	0.1686	0.9685	0.17027	-0.466
Mof_O 	O 	0.1388	0.0376	0.23767	-0.655
Mof_O 	O 	0.9292	0.0012	0.21187	-0.622
Mof_O 	O 	0.7999	0.8314	0.83693	-0.521
Mof_O 	O 	0.8988	0.8612	0.90433	-0.637
Mof_O 	O 	0.072	0.0708	0.87853	-0.676
Mof_O 	O 	0.1686	0.2001	0.66307	-0.524
Mof_O 	O 	0.1388	0.1012	0.59567	-0.664
Mof_O 	O 	0.9292	0.928	0.62147	-0.504
Mof_O 	O 	0.7999	0.9685	0.9964	-0.438
Mof_O 	O 	0.8988	0.0376	0.929	-0.663
Mof_O 	O 	0.072	0.0012	0.9548	-0.703
Mof_O 	O 	0.0315	0.8314	0.32973	-0.581
Mof_O 	O 	0.9624	0.8612	0.26233	-0.615
Mof_O 	O 	0.9988	0.0708	0.28813	-0.554
Mof_O 	O 	0.8314	0.7999	0.16307	-0.528
Mof_O 	O 	0.8612	0.8988	0.09567	-0.662
Mof_O 	O 	0.0708	0.072	0.12147	-0.686
Mof_O 	O 	0.2001	0.0315	0.4964	-0.613
Mof_O 	O 	0.1012	0.9624	0.429	-0.63
Mof_O 	O 	0.928	0.9988	0.4548	-0.5
Mof_O 	O 	0.9685	0.1686	0.82973	-0.46
Mof_O 	O 	0.0376	0.1388	0.76233	-0.655
Mof_O 	O 	0.0012	0.9292	0.78813	-0.619
_end
