data_functionalizedCrystal
_audit_creation_method	'EQeq! by Chris Wilmer'
_symmetry_space_group_name_H-M	'P1'
_symmetry_Int_Tables_number	1
_symmetry_cell_setting	triclinic
loop_
_symmetry_equiv_pos_as_xyz
  x,y,z
_cell_length_a	6.6303
_cell_length_b	16.7902
_cell_length_c	12.7538
_cell_angle_alpha	90
_cell_angle_beta	90
_cell_angle_gamma	90
loop_
_atom_site_label
_atom_site_type_symbol
_atom_site_fract_x
_atom_site_fract_y
_atom_site_fract_z
_atom_site_charge
Mof_O 	O 	0.16756	0.16808	0.84351	-1.453
Mof_C 	C 	0.8078	0.03565	0.9696	0.029
Mof_O 	O 	0.66756	0.66808	0.34351	-1.446
Mof_C 	C 	0.3078	0.53565	0.4696	0.071
Mof_O 	O 	0.83244	0.33192	0.84351	-1.475
Mof_C 	C 	0.1922	0.46435	0.9696	0.059
Mof_O 	O 	0.33244	0.83192	0.34351	-1.445
Mof_C 	C 	0.6922	0.96435	0.4696	0.051
Mof_O 	O 	0.83244	0.66808	0.15649	-1.475
Mof_C 	C 	0.1922	0.53565	0.0304	0.059
Mof_O 	O 	0.33244	0.16808	0.65649	-1.445
Mof_C 	C 	0.6922	0.03565	0.5304	0.051
Mof_O 	O 	0.16756	0.83192	0.15649	-1.454
Mof_C 	C 	0.8078	0.96435	0.0304	0.028
Mof_O 	O 	0.66756	0.33192	0.65649	-1.446
Mof_C 	C 	0.3078	0.46435	0.5304	0.071
Mof_O 	O 	0.83244	0.83192	0.15649	-1.474
Mof_C 	C 	0.1922	0.96435	0.0304	0.059
Mof_O 	O 	0.33244	0.33192	0.65649	-1.445
Mof_C 	C 	0.6922	0.46435	0.5304	0.051
Mof_O 	O 	0.16756	0.66808	0.15649	-1.454
Mof_C 	C 	0.8078	0.53565	0.0304	0.028
Mof_O 	O 	0.66756	0.16808	0.65649	-1.446
Mof_C 	C 	0.3078	0.03565	0.5304	0.071
Mof_O 	O 	0.16756	0.33192	0.84351	-1.454
Mof_C 	C 	0.8078	0.46435	0.9696	0.028
Mof_O 	O 	0.66756	0.83192	0.34351	-1.446
Mof_C 	C 	0.3078	0.96435	0.4696	0.071
Mof_O 	O 	0.83244	0.16808	0.84351	-1.474
Mof_C 	C 	0.1922	0.03565	0.9696	0.059
Mof_O 	O 	0.33244	0.66808	0.34351	-1.445
Mof_C 	C 	0.6922	0.53565	0.4696	0.051
Mof_Al	Al	0.25	0.25	0.75	6.118
Mof_Al	Al	0.75	0.25	0.75	6.034
Mof_Al	Al	0.75	0.75	0.25	6.034
Mof_Al	Al	0.25	0.75	0.25	6.118
Mof_O 	O 	2.27171e-32	0.25	0.6846	-2.113
Mof_O 	O 	0.5	0.75	0.1846	-2.138
Mof_O 	O 	2.89441e-32	0.75	0.3154	-2.113
Mof_O 	O 	0.5	0.25	0.8154	-2.138
Mof_C 	C 	-1.09641e-32	0.06265	0.945	-0.233
Mof_C 	C 	2.40621e-32	0.13756	0.8711	1.102
Mof_C 	C 	0.5	0.56265	0.445	-0.269
Mof_C 	C 	0.5	0.63756	0.3711	1.059
Mof_C 	C 	-1.09641e-32	0.43735	0.945	-0.232
Mof_C 	C 	2.40621e-32	0.36244	0.8711	1.102
Mof_C 	C 	0.5	0.93735	0.445	-0.269
Mof_C 	C 	0.5	0.86244	0.3711	1.059
Mof_C 	C 	-5.15945e-33	0.56265	0.055	-0.232
Mof_C 	C 	-1.46275e-32	0.63756	0.1289	1.102
Mof_C 	C 	0.5	0.06265	0.555	-0.269
Mof_C 	C 	0.5	0.13756	0.6289	1.059
Mof_C 	C 	-5.15945e-33	0.93735	0.055	-0.233
Mof_C 	C 	2.09317e-32	0.86244	0.1289	1.102
Mof_C 	C 	0.5	0.43735	0.555	-0.269
Mof_C 	C 	0.5	0.36244	0.6289	1.059
_end
