data_functionalizedCrystal
_audit_creation_method	'EQeq! by Chris Wilmer'
_symmetry_space_group_name_H-M	'P1'
_symmetry_Int_Tables_number	1
_symmetry_cell_setting	triclinic
loop_
_symmetry_equiv_pos_as_xyz
  x,y,z
_cell_length_a	20.0634
_cell_length_b	17.3159
_cell_length_c	15.642
_cell_angle_alpha	90
_cell_angle_beta	124.211
_cell_angle_gamma	90
loop_
_atom_site_label
_atom_site_type_symbol
_atom_site_fract_x
_atom_site_fract_y
_atom_site_fract_z
_atom_site_charge
Mof_C 	C 	0.2607	0.6312	0.6753	0.094
Mof_H 	H 	0.2054	0.6242	0.649	-0.007
Mof_C 	C 	0.2819	0.6918	0.6374	-0.148
Mof_H 	H 	0.2412	0.7232	0.5833	0.079
Mof_C 	C 	0.3609	0.7068	0.6773	0.066
Mof_C 	C 	0.4141	0.6547	0.7452	-0.155
Mof_H 	H 	0.4698	0.6588	0.7719	0.075
Mof_C 	C 	0.3858	0.5954	0.7748	0.103
Mof_H 	H 	0.4245	0.5592	0.8226	-0.029
Mof_C 	C 	0.372	0.9021	0.5871	0.106
Mof_H 	H 	0.3398	0.9474	0.5643	0.002
Mof_C 	C 	0.346	0.8411	0.617	-0.149
Mof_H 	H 	0.2986	0.8459	0.6163	0.085
Mof_C 	C 	0.3877	0.7739	0.6467	0.064
Mof_C 	C 	0.4498	0.7724	0.6357	-0.146
Mof_H 	H 	0.4788	0.7257	0.648	0.072
Mof_C 	C 	0.4717	0.838	0.6067	0.096
Mof_H 	H 	0.5161	0.8346	0.6007	-0.017
Mof_C 	C 	0.3129	0.5983	0.9729	0.115
Mof_H 	H 	0.3556	0.5626	0.0119	-0.033
Mof_C 	C 	0.3106	0.6645	0.0243	-0.162
Mof_H 	H 	0.352	0.6728	0.0952	0.077
Mof_C 	C 	0.2517	0.7144	0.9745	0.081
Mof_C 	C 	0.1949	0.6983	0.8764	-0.15
Mof_H 	H 	0.1489	0.7306	0.8373	0.077
Mof_C 	C 	0.2041	0.6328	0.8317	0.095
Mof_H 	H 	0.1646	0.6236	0.7604	-0
Mof_N 	N 	0.3123	0.584	0.7442	-0.242
Mof_N 	N 	0.4356	0.9035	0.5875	-0.235
Mof_N 	N 	0.2623	0.5841	0.8801	-0.244
Mof_C 	C 	0.7607	0.1312	0.6753	0.091
Mof_H 	H 	0.7054	0.1242	0.649	-0.007
Mof_C 	C 	0.7819	0.1918	0.6374	-0.149
Mof_H 	H 	0.7412	0.2232	0.5833	0.078
Mof_C 	C 	0.8609	0.2068	0.6773	0.063
Mof_C 	C 	0.9141	0.1547	0.7452	-0.16
Mof_H 	H 	0.9698	0.1588	0.7719	0.071
Mof_C 	C 	0.8858	0.0954	0.7748	0.101
Mof_H 	H 	0.9245	0.0592	0.8226	-0.048
Mof_C 	C 	0.872	0.4021	0.5871	0.107
Mof_H 	H 	0.8398	0.4474	0.5643	-0.025
Mof_C 	C 	0.846	0.3411	0.617	-0.157
Mof_H 	H 	0.7986	0.3459	0.6163	0.08
Mof_C 	C 	0.8877	0.2739	0.6467	0.062
Mof_C 	C 	0.9498	0.2724	0.6357	-0.149
Mof_H 	H 	0.9788	0.2257	0.648	0.067
Mof_C 	C 	0.9717	0.338	0.6067	0.093
Mof_H 	H 	0.0161	0.3346	0.6007	-0.027
Mof_C 	C 	0.8129	0.0983	0.9729	0.102
Mof_H 	H 	0.8556	0.0626	0.0119	-0.047
Mof_C 	C 	0.8106	0.1645	0.0243	-0.155
Mof_H 	H 	0.852	0.1728	0.0952	0.069
Mof_C 	C 	0.7517	0.2144	0.9745	0.065
Mof_C 	C 	0.6949	0.1983	0.8764	-0.145
Mof_H 	H 	0.6489	0.2306	0.8373	0.07
Mof_C 	C 	0.7041	0.1328	0.8317	0.085
Mof_H 	H 	0.6646	0.1236	0.7604	-0
Mof_N 	N 	0.8123	0.084	0.7442	-0.25
Mof_N 	N 	0.9356	0.4035	0.5875	-0.256
Mof_N 	N 	0.7623	0.0841	0.8801	-0.249
Mof_C 	C 	0.7393	0.6312	0.3247	0.095
Mof_H 	H 	0.7946	0.6242	0.351	-0.006
Mof_C 	C 	0.7181	0.6918	0.3626	-0.147
Mof_H 	H 	0.7588	0.7232	0.4167	0.08
Mof_C 	C 	0.6391	0.7068	0.3227	0.067
Mof_C 	C 	0.5859	0.6547	0.2548	-0.154
Mof_H 	H 	0.5302	0.6588	0.2281	0.076
Mof_C 	C 	0.6142	0.5954	0.2252	0.104
Mof_H 	H 	0.5755	0.5592	0.1774	-0.029
Mof_C 	C 	0.628	0.9021	0.4129	0.106
Mof_H 	H 	0.6602	0.9474	0.4357	0.002
Mof_C 	C 	0.654	0.8411	0.383	-0.149
Mof_H 	H 	0.7014	0.8459	0.3837	0.085
Mof_C 	C 	0.6123	0.7739	0.3533	0.064
Mof_C 	C 	0.5502	0.7724	0.3643	-0.146
Mof_H 	H 	0.5212	0.7257	0.352	0.072
Mof_C 	C 	0.5283	0.838	0.3933	0.096
Mof_H 	H 	0.4839	0.8346	0.3993	-0.017
Mof_C 	C 	0.6871	0.5983	0.0271	0.115
Mof_H 	H 	0.6444	0.5626	0.9881	-0.033
Mof_C 	C 	0.6894	0.6645	0.9757	-0.162
Mof_H 	H 	0.648	0.6728	0.9048	0.077
Mof_C 	C 	0.7483	0.7144	0.0255	0.081
Mof_C 	C 	0.8051	0.6983	0.1236	-0.15
Mof_H 	H 	0.8511	0.7306	0.1627	0.077
Mof_C 	C 	0.7959	0.6328	0.1683	0.095
Mof_H 	H 	0.8354	0.6236	0.2396	-0
Mof_N 	N 	0.6877	0.584	0.2558	-0.242
Mof_N 	N 	0.5644	0.9035	0.4125	-0.235
Mof_N 	N 	0.7377	0.5841	0.1199	-0.244
Mof_C 	C 	0.2393	0.1312	0.3247	0.091
Mof_H 	H 	0.2946	0.1242	0.351	-0.007
Mof_C 	C 	0.2181	0.1918	0.3626	-0.149
Mof_H 	H 	0.2588	0.2232	0.4167	0.078
Mof_C 	C 	0.1391	0.2068	0.3227	0.063
Mof_C 	C 	0.0859	0.1547	0.2548	-0.16
Mof_H 	H 	0.0302	0.1588	0.2281	0.071
Mof_C 	C 	0.1142	0.0954	0.2252	0.101
Mof_H 	H 	0.0755	0.0592	0.1774	-0.048
Mof_C 	C 	0.128	0.4021	0.4129	0.107
Mof_H 	H 	0.1602	0.4474	0.4357	-0.025
Mof_C 	C 	0.154	0.3411	0.383	-0.157
Mof_H 	H 	0.2014	0.3459	0.3837	0.08
Mof_C 	C 	0.1123	0.2739	0.3533	0.062
Mof_C 	C 	0.0502	0.2724	0.3643	-0.149
Mof_H 	H 	0.0212	0.2257	0.352	0.067
Mof_C 	C 	0.0283	0.338	0.3933	0.093
Mof_H 	H 	0.9839	0.3346	0.3993	-0.027
Mof_C 	C 	0.1871	0.0983	0.0271	0.102
Mof_H 	H 	0.1444	0.0626	0.9881	-0.047
Mof_C 	C 	0.1894	0.1645	0.9757	-0.155
Mof_H 	H 	0.148	0.1728	0.9048	0.069
Mof_C 	C 	0.2483	0.2144	0.0255	0.065
Mof_C 	C 	0.3051	0.1983	0.1236	-0.145
Mof_H 	H 	0.3511	0.2306	0.1627	0.07
Mof_C 	C 	0.2959	0.1328	0.1683	0.085
Mof_H 	H 	0.3354	0.1236	0.2396	-0
Mof_N 	N 	0.1877	0.084	0.2558	-0.25
Mof_N 	N 	0.0644	0.4035	0.4125	-0.256
Mof_N 	N 	0.2377	0.0841	0.1199	-0.249
Mof_C 	C 	0.7393	0.3688	0.3247	0.091
Mof_H 	H 	0.7946	0.3758	0.351	-0.006
Mof_C 	C 	0.7181	0.3082	0.3626	-0.145
Mof_H 	H 	0.7588	0.2768	0.4167	0.075
Mof_C 	C 	0.6391	0.2932	0.3227	0.059
Mof_C 	C 	0.5859	0.3453	0.2548	-0.152
Mof_H 	H 	0.5302	0.3412	0.2281	0.073
Mof_C 	C 	0.6142	0.4046	0.2252	0.101
Mof_H 	H 	0.5755	0.4408	0.1774	-0.029
Mof_C 	C 	0.628	0.0979	0.4129	0.109
Mof_H 	H 	0.6602	0.0526	0.4357	-0.047
Mof_C 	C 	0.654	0.1589	0.383	-0.166
Mof_H 	H 	0.7014	0.1541	0.3837	0.075
Mof_C 	C 	0.6123	0.2261	0.3533	0.067
Mof_C 	C 	0.5502	0.2276	0.3643	-0.155
Mof_H 	H 	0.5212	0.2743	0.352	0.074
Mof_C 	C 	0.5283	0.162	0.3933	0.095
Mof_H 	H 	0.4839	0.1654	0.3993	-0.027
Mof_C 	C 	0.6871	0.4017	0.0271	0.112
Mof_H 	H 	0.6444	0.4374	0.9881	-0.033
Mof_C 	C 	0.6894	0.3355	0.9757	-0.161
Mof_H 	H 	0.648	0.3272	0.9048	0.075
Mof_C 	C 	0.7483	0.2856	0.0255	0.075
Mof_C 	C 	0.8051	0.3017	0.1236	-0.15
Mof_H 	H 	0.8511	0.2694	0.1627	0.072
Mof_C 	C 	0.7959	0.3672	0.1683	0.092
Mof_H 	H 	0.8354	0.3764	0.2396	-0
Mof_N 	N 	0.6877	0.416	0.2558	-0.242
Mof_N 	N 	0.5644	0.0965	0.4125	-0.263
Mof_N 	N 	0.7377	0.4159	0.1199	-0.244
Mof_C 	C 	0.2393	0.8688	0.3247	0.091
Mof_H 	H 	0.2946	0.8758	0.351	0.008
Mof_C 	C 	0.2181	0.8082	0.3626	-0.138
Mof_H 	H 	0.2588	0.7768	0.4167	0.076
Mof_C 	C 	0.1391	0.7932	0.3227	0.058
Mof_C 	C 	0.0859	0.8453	0.2548	-0.142
Mof_H 	H 	0.0302	0.8412	0.2281	0.076
Mof_C 	C 	0.1142	0.9046	0.2252	0.101
Mof_H 	H 	0.0755	0.9408	0.1774	-0.007
Mof_C 	C 	0.128	0.5979	0.4129	0.11
Mof_H 	H 	0.1602	0.5526	0.4357	-0.026
Mof_C 	C 	0.154	0.6589	0.383	-0.162
Mof_H 	H 	0.2014	0.6541	0.3837	0.081
Mof_C 	C 	0.1123	0.7261	0.3533	0.071
Mof_C 	C 	0.0502	0.7276	0.3643	-0.155
Mof_H 	H 	0.0212	0.7743	0.352	0.079
Mof_C 	C 	0.0283	0.662	0.3933	0.098
Mof_H 	H 	0.9839	0.6654	0.3993	-0.026
Mof_C 	C 	0.1871	0.9017	0.0271	0.105
Mof_H 	H 	0.1444	0.9374	0.9881	-0.009
Mof_C 	C 	0.1894	0.8355	0.9757	-0.142
Mof_H 	H 	0.148	0.8272	0.9048	0.075
Mof_C 	C 	0.2483	0.7856	0.0255	0.064
Mof_C 	C 	0.3051	0.8017	0.1236	-0.134
Mof_H 	H 	0.3511	0.7694	0.1627	0.071
Mof_C 	C 	0.2959	0.8672	0.1683	0.089
Mof_H 	H 	0.3354	0.8764	0.2396	0.016
Mof_N 	N 	0.1877	0.916	0.2558	-0.222
Mof_N 	N 	0.0644	0.5965	0.4125	-0.258
Mof_N 	N 	0.2377	0.9159	0.1199	-0.221
Mof_C 	C 	0.2607	0.3688	0.6753	0.091
Mof_H 	H 	0.2054	0.3758	0.649	-0.006
Mof_C 	C 	0.2819	0.3082	0.6374	-0.145
Mof_H 	H 	0.2412	0.2768	0.5833	0.075
Mof_C 	C 	0.3609	0.2932	0.6773	0.059
Mof_C 	C 	0.4141	0.3453	0.7452	-0.152
Mof_H 	H 	0.4698	0.3412	0.7719	0.073
Mof_C 	C 	0.3858	0.4046	0.7748	0.101
Mof_H 	H 	0.4245	0.4408	0.8226	-0.029
Mof_C 	C 	0.372	0.0979	0.5871	0.109
Mof_H 	H 	0.3398	0.0526	0.5643	-0.047
Mof_C 	C 	0.346	0.1589	0.617	-0.166
Mof_H 	H 	0.2986	0.1541	0.6163	0.075
Mof_C 	C 	0.3877	0.2261	0.6467	0.067
Mof_C 	C 	0.4498	0.2276	0.6357	-0.155
Mof_H 	H 	0.4788	0.2743	0.648	0.074
Mof_C 	C 	0.4717	0.162	0.6067	0.095
Mof_H 	H 	0.5161	0.1654	0.6007	-0.027
Mof_C 	C 	0.3129	0.4017	0.9729	0.112
Mof_H 	H 	0.3556	0.4374	0.0119	-0.033
Mof_C 	C 	0.3106	0.3355	0.0243	-0.161
Mof_H 	H 	0.352	0.3272	0.0952	0.075
Mof_C 	C 	0.2517	0.2856	0.9745	0.075
Mof_C 	C 	0.1949	0.3017	0.8764	-0.15
Mof_H 	H 	0.1489	0.2694	0.8373	0.072
Mof_C 	C 	0.2041	0.3672	0.8317	0.092
Mof_H 	H 	0.1646	0.3764	0.7604	-0
Mof_N 	N 	0.3123	0.416	0.7442	-0.242
Mof_N 	N 	0.4356	0.0965	0.5875	-0.263
Mof_N 	N 	0.2623	0.4159	0.8801	-0.244
Mof_C 	C 	0.7607	0.8688	0.6753	0.091
Mof_H 	H 	0.7054	0.8758	0.649	0.008
Mof_C 	C 	0.7819	0.8082	0.6374	-0.138
Mof_H 	H 	0.7412	0.7768	0.5833	0.076
Mof_C 	C 	0.8609	0.7932	0.6773	0.058
Mof_C 	C 	0.9141	0.8453	0.7452	-0.142
Mof_H 	H 	0.9698	0.8412	0.7719	0.076
Mof_C 	C 	0.8858	0.9046	0.7748	0.101
Mof_H 	H 	0.9245	0.9408	0.8226	-0.007
Mof_C 	C 	0.872	0.5979	0.5871	0.11
Mof_H 	H 	0.8398	0.5526	0.5643	-0.026
Mof_C 	C 	0.846	0.6589	0.617	-0.162
Mof_H 	H 	0.7986	0.6541	0.6163	0.081
Mof_C 	C 	0.8877	0.7261	0.6467	0.071
Mof_C 	C 	0.9498	0.7276	0.6357	-0.155
Mof_H 	H 	0.9788	0.7743	0.648	0.079
Mof_C 	C 	0.9717	0.662	0.6067	0.098
Mof_H 	H 	0.0161	0.6654	0.6007	-0.026
Mof_C 	C 	0.8129	0.9017	0.9729	0.105
Mof_H 	H 	0.8556	0.9374	0.0119	-0.009
Mof_C 	C 	0.8106	0.8355	0.0243	-0.142
Mof_H 	H 	0.852	0.8272	0.0952	0.075
Mof_C 	C 	0.7517	0.7856	0.9745	0.064
Mof_C 	C 	0.6949	0.8017	0.8764	-0.134
Mof_H 	H 	0.6489	0.7694	0.8373	0.071
Mof_C 	C 	0.7041	0.8672	0.8317	0.089
Mof_H 	H 	0.6646	0.8764	0.7604	0.016
Mof_N 	N 	0.8123	0.916	0.7442	-0.222
Mof_N 	N 	0.9356	0.5965	0.5875	-0.258
Mof_N 	N 	0.7623	0.9159	0.8801	-0.221
Mof_Cu	Cu	0.27654	0.5	0.80102	0.883
Mof_Cu	Cu	0.77654	0	0.80102	0.857
Mof_Cu	Cu	0.72346	0.5	0.19898	0.883
Mof_Cu	Cu	0.22346	2.80858e-33	0.19898	0.857
Mof_Cu	Cu	0.47161	0	0.55227	0.806
Mof_Cl	Cl	0.6226	0	0.6476	-0.711
Mof_Cu	Cu	0.97161	0.5	0.55227	0.825
Mof_Cl	Cl	0.1226	0.5	0.6476	-0.666
Mof_Cu	Cu	0.52839	-5.61717e-33	0.44773	0.806
Mof_Cl	Cl	0.3774	0	0.3524	-0.711
Mof_Cu	Cu	0.02839	0.5	0.44773	0.825
Mof_Cl	Cl	0.8774	0.5	0.3524	-0.666
_end
