data_functionalizedCrystal
_audit_creation_method	'EQeq! by Chris Wilmer'
_symmetry_space_group_name_H-M	'P1'
_symmetry_Int_Tables_number	1
_symmetry_cell_setting	triclinic
loop_
_symmetry_equiv_pos_as_xyz
  x,y,z
_cell_length_a	18.6434
_cell_length_b	18.6434
_cell_length_c	18.6434
_cell_angle_alpha	60
_cell_angle_beta	60
_cell_angle_gamma	60
loop_
_atom_site_label
_atom_site_type_symbol
_atom_site_fract_x
_atom_site_fract_y
_atom_site_fract_z
_atom_site_charge
Mof_Cu	Cu	0.56982	0	0.43018	0.847
Mof_Cu	Cu	0.43018	0	-0	0.781
Mof_Cu	Cu	0.56982	0.43018	-0	0.847
Mof_Cu	Cu	-0	0.43018	-0	0.781
Mof_Cu	Cu	4.96226e-17	0.56982	-0	0.781
Mof_Cu	Cu	0.56982	0	-0	0.781
Mof_Cu	Cu	0.43018	0	0.56982	0.848
Mof_Cu	Cu	6.20283e-17	0	0.56982	0.782
Mof_Cu	Cu	-1.24057e-17	0.56982	0.43018	0.848
Mof_Cu	Cu	-1.24057e-17	0	0.43018	0.782
Mof_Cu	Cu	0.43018	0.56982	-0	0.848
Mof_Cu	Cu	8.68396e-17	0.43018	0.56982	0.848
Mof_H 	H 	0.2702	0.9738	0.2702	0.1
Mof_H 	H 	0.7298	0.5142	0.0262	0.076
Mof_H 	H 	0.5142	0.7298	0.7298	0.118
Mof_H 	H 	0.7298	0.5142	0.7298	0.118
Mof_H 	H 	0.7298	0.0262	0.7298	0.097
Mof_H 	H 	0.2702	0.2702	0.9738	0.1
Mof_H 	H 	0.9738	0.2702	0.2702	0.1
Mof_H 	H 	0.0262	0.7298	0.7298	0.097
Mof_H 	H 	0.2702	0.4858	0.9738	0.109
Mof_H 	H 	0.7298	0.0262	0.5142	0.076
Mof_H 	H 	0.9738	0.2702	0.4858	0.109
Mof_H 	H 	0.4858	0.9738	0.2702	0.109
Mof_H 	H 	0.2702	0.2702	0.4858	0.052
Mof_H 	H 	0.4858	0.2702	0.9738	0.109
Mof_H 	H 	0.0262	0.7298	0.5142	0.076
Mof_H 	H 	0.9738	0.4858	0.2702	0.109
Mof_H 	H 	0.2702	0.4858	0.2702	0.052
Mof_H 	H 	0.0262	0.5142	0.7298	0.076
Mof_H 	H 	0.4858	0.2702	0.2702	0.052
Mof_H 	H 	0.7298	0.7298	0.0262	0.097
Mof_H 	H 	0.7298	0.7298	0.5142	0.118
Mof_H 	H 	0.5142	0.7298	0.0262	0.076
Mof_H 	H 	0.5142	0.0262	0.7298	0.076
Mof_H 	H 	0.2702	0.9738	0.4858	0.109
Mof_C 	C 	0.0291	0.6141	0.6141	-0.063
Mof_C 	C 	0.5712	0.7004	0.028	-0
Mof_C 	C 	0.3859	0.9709	0.2573	-0.018
Mof_C 	C 	0.4288	0.2996	0.2996	0.025
Mof_C 	C 	0.6141	0.0291	0.7427	-0.042
Mof_C 	C 	0.028	0.7004	0.7004	-0.006
Mof_C 	C 	0.4308	0.161	0.4308	0.339
Mof_C 	C 	0.7427	0.0291	0.6141	-0.042
Mof_C 	C 	0.0291	0.7427	0.6141	-0.042
Mof_C 	C 	0.7004	0.028	0.7004	-0.006
Mof_C 	C 	0.4308	0.9774	0.4308	0.322
Mof_C 	C 	0.5692	0.5692	0.839	0.322
Mof_C 	C 	0.5692	0.0226	0.5692	0.333
Mof_C 	C 	0.3859	0.2573	0.9709	-0.018
Mof_C 	C 	0.7004	0.7004	0.5712	-0.015
Mof_C 	C 	0.9774	0.161	0.4308	0.312
Mof_C 	C 	0.9774	0.4308	0.4308	0.322
Mof_C 	C 	0.5692	0.0226	0.839	0.315
Mof_C 	C 	0.5692	0.839	0.0226	0.315
Mof_C 	C 	0.2996	0.972	0.4288	-0.015
Mof_C 	C 	0.839	0.0226	0.5692	0.315
Mof_C 	C 	0.2573	0.9709	0.3859	-0.018
Mof_C 	C 	0.5692	0.839	0.5692	0.322
Mof_C 	C 	0.161	0.9774	0.4308	0.312
Mof_C 	C 	0.2996	0.972	0.2996	-0.016
Mof_C 	C 	0.972	0.2996	0.4288	-0.015
Mof_C 	C 	0.0226	0.5692	0.839	0.315
Mof_C 	C 	0.161	0.4308	0.4308	0.339
Mof_C 	C 	0.7004	0.5712	0.7004	-0.015
Mof_C 	C 	0.3859	0.3859	0.2573	-0.096
Mof_C 	C 	0.7004	0.7004	0.028	-0.006
Mof_C 	C 	0.0226	0.5692	0.5692	0.333
Mof_C 	C 	0.6141	0.7427	0.0291	-0.042
Mof_C 	C 	0.028	0.7004	0.5712	-0
Mof_C 	C 	0.4288	0.972	0.2996	-0.015
Mof_C 	C 	0.2573	0.3859	0.9709	-0.018
Mof_C 	C 	0.7427	0.6141	0.0291	-0.042
Mof_C 	C 	0.3859	0.3859	0.9709	-0.011
Mof_C 	C 	0.9709	0.3859	0.2573	-0.018
Mof_C 	C 	0.4308	0.9774	0.161	0.312
Mof_C 	C 	0.2996	0.2996	0.972	-0.016
Mof_C 	C 	0.3859	0.9709	0.3859	-0.011
Mof_C 	C 	0.9774	0.4308	0.161	0.312
Mof_C 	C 	0.972	0.4288	0.2996	-0.015
Mof_C 	C 	0.0291	0.6141	0.7427	-0.042
Mof_C 	C 	0.6141	0.7427	0.6141	0
Mof_C 	C 	0.3859	0.2573	0.3859	-0.096
Mof_C 	C 	0.4288	0.2996	0.972	-0.015
Mof_C 	C 	0.7427	0.6141	0.6141	0
Mof_C 	C 	0.6141	0.0291	0.6141	-0.063
Mof_C 	C 	0.028	0.5712	0.7004	-0
Mof_C 	C 	0.4308	0.4308	0.161	0.339
Mof_C 	C 	0.7004	0.028	0.5712	-0
Mof_C 	C 	0.161	0.4308	0.9774	0.312
Mof_C 	C 	0.839	0.5692	0.0226	0.315
Mof_C 	C 	0.9709	0.2573	0.3859	-0.018
Mof_C 	C 	0.5712	0.028	0.7004	-0
Mof_C 	C 	0.2996	0.4288	0.972	-0.015
Mof_C 	C 	0.7004	0.5712	0.028	-0
Mof_C 	C 	0.2996	0.2996	0.4288	0.025
Mof_C 	C 	0.4308	0.161	0.9774	0.312
Mof_C 	C 	0.839	0.5692	0.5692	0.322
Mof_C 	C 	0.6141	0.6141	0.0291	-0.063
Mof_C 	C 	0.2573	0.3859	0.3859	-0.096
Mof_C 	C 	0.2996	0.4288	0.2996	0.025
Mof_C 	C 	0.0226	0.839	0.5692	0.315
Mof_C 	C 	0.9709	0.3859	0.3859	-0.011
Mof_C 	C 	0.5712	0.7004	0.7004	-0.015
Mof_C 	C 	0.6141	0.6141	0.7427	0
Mof_C 	C 	0.5692	0.5692	0.0226	0.333
Mof_C 	C 	0.4308	0.4308	0.9774	0.322
Mof_C 	C 	0.972	0.2996	0.2996	-0.016
Mof_S 	S 	3.10141e-17	1.24057e-17	0.3082	-0.356
Mof_S 	S 	0.6918	0.3082	-0	-0.155
Mof_S 	S 	4.96226e-17	0.6918	-0	-0.273
Mof_S 	S 	0.6918	0	-0	-0.273
Mof_S 	S 	0.3082	0	0.6918	-0.155
Mof_S 	S 	6.82311e-17	0.6918	0.3082	-0.155
Mof_S 	S 	0.6918	1.24057e-17	0.3082	-0.155
Mof_S 	S 	4.96226e-17	0.3082	0.6918	-0.155
Mof_S 	S 	-0	0	0.6918	-0.273
Mof_S 	S 	0.3082	0.6918	-0	-0.155
Mof_S 	S 	4.96226e-17	0.3082	-0	-0.356
Mof_S 	S 	0.3082	0	-0	-0.356
Mof_O 	O 	0.61288	0.8742	0.0207	-0.313
Mof_O 	O 	0.61288	0.49222	0.8742	-0.28
Mof_O 	O 	0.8742	0.0207	0.61288	-0.313
Mof_O 	O 	0.50778	0.38712	0.9793	-0.286
Mof_O 	O 	0.9793	0.38712	0.50778	-0.286
Mof_O 	O 	0.49222	0.61288	0.0207	-0.409
Mof_O 	O 	0.38712	0.9793	0.1258	-0.311
Mof_O 	O 	0.50778	0.1258	0.9793	-0.306
Mof_O 	O 	0.8742	0.49222	0.61288	-0.28
Mof_O 	O 	0.49222	0.0207	0.8742	-0.323
Mof_O 	O 	0.1258	0.9793	0.38712	-0.311
Mof_O 	O 	0.8742	0.61288	0.0207	-0.313
Mof_O 	O 	0.61288	0.0207	0.8742	-0.313
Mof_O 	O 	0.50778	0.1258	0.38712	-0.419
Mof_O 	O 	0.0207	0.49222	0.8742	-0.323
Mof_O 	O 	0.9793	0.38712	0.1258	-0.311
Mof_O 	O 	0.0207	0.61288	0.8742	-0.313
Mof_O 	O 	0.9793	0.50778	0.38712	-0.286
Mof_O 	O 	0.8742	0.49222	0.0207	-0.323
Mof_O 	O 	0.1258	0.50778	0.9793	-0.306
Mof_O 	O 	0.49222	0.0207	0.61288	-0.409
Mof_O 	O 	0.38712	0.50778	0.9793	-0.286
Mof_O 	O 	0.1258	0.50778	0.38712	-0.419
Mof_O 	O 	0.0207	0.8742	0.49222	-0.323
Mof_O 	O 	0.9793	0.1258	0.50778	-0.306
Mof_O 	O 	0.8742	0.0207	0.49222	-0.323
Mof_O 	O 	0.0207	0.61288	0.49222	-0.409
Mof_O 	O 	0.38712	0.1258	0.9793	-0.311
Mof_O 	O 	0.1258	0.9793	0.50778	-0.306
Mof_O 	O 	0.0207	0.49222	0.61288	-0.409
Mof_O 	O 	0.38712	0.9793	0.50778	-0.286
Mof_O 	O 	0.50778	0.38712	0.1258	-0.419
Mof_O 	O 	0.38712	0.1258	0.50778	-0.419
Mof_O 	O 	0.9793	0.1258	0.38712	-0.311
Mof_O 	O 	0.9793	0.50778	0.1258	-0.306
Mof_O 	O 	0.49222	0.61288	0.8742	-0.28
Mof_O 	O 	0.49222	0.8742	0.61288	-0.28
Mof_O 	O 	0.50778	0.9793	0.1258	-0.306
Mof_O 	O 	0.61288	0.49222	0.0207	-0.409
Mof_O 	O 	0.0207	0.8742	0.61288	-0.313
Mof_O 	O 	0.38712	0.50778	0.1258	-0.419
Mof_O 	O 	0.1258	0.38712	0.9793	-0.311
Mof_O 	O 	0.61288	0.8742	0.49222	-0.28
Mof_O 	O 	0.49222	0.8742	0.0207	-0.323
Mof_O 	O 	0.1258	0.38712	0.50778	-0.419
Mof_O 	O 	0.50778	0.9793	0.38712	-0.286
Mof_O 	O 	0.8742	0.61288	0.49222	-0.28
Mof_O 	O 	0.61288	0.0207	0.49222	-0.409
_end
