data_functionalizedCrystal
_audit_creation_method	'EQeq! by Chris Wilmer'
_symmetry_space_group_name_H-M	'P1'
_symmetry_Int_Tables_number	1
_symmetry_cell_setting	triclinic
loop_
_symmetry_equiv_pos_as_xyz
  x,y,z
_cell_length_a	18.8345
_cell_length_b	18.8345
_cell_length_c	18.8345
_cell_angle_alpha	90
_cell_angle_beta	90
_cell_angle_gamma	90
loop_
_atom_site_label
_atom_site_type_symbol
_atom_site_fract_x
_atom_site_fract_y
_atom_site_fract_z
_atom_site_charge
Mof_N 	N 	0.37154	0.07406	0.57762	-0.325
Mof_C 	C 	0.32826	0.12903	0.58949	0.298
Mof_H 	H 	0.288	0.1413	0.5617	-0.506
Mof_N 	N 	0.62846	0.92594	0.57762	-0.282
Mof_C 	C 	0.67174	0.87097	0.58949	0.317
Mof_H 	H 	0.712	0.8587	0.5617	-0.492
Mof_N 	N 	0.62846	0.07406	0.42238	-0.323
Mof_C 	C 	0.67174	0.12903	0.41051	0.3
Mof_H 	H 	0.712	0.1413	0.4383	-0.503
Mof_N 	N 	0.37154	0.92594	0.42238	-0.285
Mof_C 	C 	0.32826	0.87097	0.41051	0.31
Mof_H 	H 	0.288	0.8587	0.4383	-0.497
Mof_N 	N 	0.57762	0.37154	0.07406	-0.325
Mof_C 	C 	0.58949	0.32826	0.12903	0.298
Mof_H 	H 	0.5617	0.288	0.1413	-0.506
Mof_N 	N 	0.57762	0.62846	0.92594	-0.282
Mof_C 	C 	0.58949	0.67174	0.87097	0.317
Mof_H 	H 	0.5617	0.712	0.8587	-0.492
Mof_N 	N 	0.42238	0.62846	0.07406	-0.323
Mof_C 	C 	0.41051	0.67174	0.12903	0.3
Mof_H 	H 	0.4383	0.712	0.1413	-0.503
Mof_N 	N 	0.42238	0.37154	0.92594	-0.286
Mof_C 	C 	0.41051	0.32826	0.87097	0.309
Mof_H 	H 	0.4383	0.288	0.8587	-0.498
Mof_N 	N 	0.07406	0.57762	0.37154	-0.326
Mof_C 	C 	0.12903	0.58949	0.32826	0.297
Mof_H 	H 	0.1413	0.5617	0.288	-0.507
Mof_N 	N 	0.92594	0.57762	0.62846	-0.283
Mof_C 	C 	0.87097	0.58949	0.67174	0.316
Mof_H 	H 	0.8587	0.5617	0.712	-0.493
Mof_N 	N 	0.07406	0.42238	0.62846	-0.324
Mof_C 	C 	0.12903	0.41051	0.67174	0.299
Mof_H 	H 	0.1413	0.4383	0.712	-0.504
Mof_N 	N 	0.92594	0.42238	0.37154	-0.286
Mof_C 	C 	0.87097	0.41051	0.32826	0.309
Mof_H 	H 	0.8587	0.4383	0.288	-0.498
Mof_N 	N 	0.07406	0.37154	0.42238	-0.327
Mof_C 	C 	0.12903	0.32826	0.41051	0.295
Mof_H 	H 	0.1413	0.288	0.4383	-0.508
Mof_N 	N 	0.92594	0.62846	0.42238	-0.284
Mof_C 	C 	0.87097	0.67174	0.41051	0.314
Mof_H 	H 	0.8587	0.712	0.4383	-0.494
Mof_N 	N 	0.07406	0.62846	0.57762	-0.324
Mof_C 	C 	0.12903	0.67174	0.58949	0.302
Mof_H 	H 	0.1413	0.712	0.5617	-0.503
Mof_N 	N 	0.92594	0.37154	0.57762	-0.285
Mof_C 	C 	0.87097	0.32826	0.58949	0.312
Mof_H 	H 	0.8587	0.288	0.5617	-0.497
Mof_N 	N 	0.37154	0.57762	0.92594	-0.285
Mof_C 	C 	0.32826	0.58949	0.87097	0.312
Mof_H 	H 	0.288	0.5617	0.8587	-0.497
Mof_N 	N 	0.62846	0.57762	0.07406	-0.324
Mof_C 	C 	0.67174	0.58949	0.12903	0.302
Mof_H 	H 	0.712	0.5617	0.1413	-0.503
Mof_N 	N 	0.62846	0.42238	0.92594	-0.284
Mof_C 	C 	0.67174	0.41051	0.87097	0.314
Mof_H 	H 	0.712	0.4383	0.8587	-0.494
Mof_N 	N 	0.37154	0.42238	0.07406	-0.327
Mof_C 	C 	0.32826	0.41051	0.12903	0.295
Mof_H 	H 	0.288	0.4383	0.1413	-0.508
Mof_N 	N 	0.57762	0.07406	0.62846	-0.324
Mof_C 	C 	0.58949	0.12903	0.67174	0.302
Mof_H 	H 	0.5617	0.1413	0.712	-0.503
Mof_N 	N 	0.57762	0.92594	0.37154	-0.285
Mof_C 	C 	0.58949	0.87097	0.32826	0.312
Mof_H 	H 	0.5617	0.8587	0.288	-0.497
Mof_N 	N 	0.42238	0.07406	0.37154	-0.327
Mof_C 	C 	0.41051	0.12903	0.32826	0.295
Mof_H 	H 	0.4383	0.1413	0.288	-0.508
Mof_N 	N 	0.42238	0.92594	0.62846	-0.284
Mof_C 	C 	0.41051	0.87097	0.67174	0.314
Mof_H 	H 	0.4383	0.8587	0.712	-0.494
Mof_N 	N 	0.62846	0.92594	0.42238	-0.284
Mof_C 	C 	0.67174	0.87097	0.41051	0.314
Mof_H 	H 	0.712	0.8587	0.4383	-0.494
Mof_N 	N 	0.37154	0.07406	0.42238	-0.327
Mof_C 	C 	0.32826	0.12903	0.41051	0.295
Mof_H 	H 	0.288	0.1413	0.4383	-0.508
Mof_N 	N 	0.37154	0.92594	0.57762	-0.285
Mof_C 	C 	0.32826	0.87097	0.58949	0.312
Mof_H 	H 	0.288	0.8587	0.5617	-0.497
Mof_N 	N 	0.62846	0.07406	0.57762	-0.324
Mof_C 	C 	0.67174	0.12903	0.58949	0.302
Mof_H 	H 	0.712	0.1413	0.5617	-0.503
Mof_N 	N 	0.42238	0.62846	0.92594	-0.284
Mof_C 	C 	0.41051	0.67174	0.87097	0.314
Mof_H 	H 	0.4383	0.712	0.8587	-0.494
Mof_N 	N 	0.42238	0.37154	0.07406	-0.327
Mof_C 	C 	0.41051	0.32826	0.12903	0.295
Mof_H 	H 	0.4383	0.288	0.1413	-0.508
Mof_N 	N 	0.57762	0.37154	0.92594	-0.285
Mof_C 	C 	0.58949	0.32826	0.87097	0.312
Mof_H 	H 	0.5617	0.288	0.8587	-0.497
Mof_N 	N 	0.57762	0.62846	0.07406	-0.324
Mof_C 	C 	0.58949	0.67174	0.12903	0.302
Mof_H 	H 	0.5617	0.712	0.1413	-0.503
Mof_N 	N 	0.92594	0.42238	0.62846	-0.284
Mof_C 	C 	0.87097	0.41051	0.67174	0.314
Mof_H 	H 	0.8587	0.4383	0.712	-0.494
Mof_N 	N 	0.07406	0.42238	0.37154	-0.327
Mof_C 	C 	0.12903	0.41051	0.32826	0.295
Mof_H 	H 	0.1413	0.4383	0.288	-0.508
Mof_N 	N 	0.92594	0.57762	0.37154	-0.285
Mof_C 	C 	0.87097	0.58949	0.32826	0.312
Mof_H 	H 	0.8587	0.5617	0.288	-0.497
Mof_N 	N 	0.07406	0.57762	0.62846	-0.324
Mof_C 	C 	0.12903	0.58949	0.67174	0.302
Mof_H 	H 	0.1413	0.5617	0.712	-0.503
Mof_N 	N 	0.92594	0.62846	0.57762	-0.283
Mof_C 	C 	0.87097	0.67174	0.58949	0.316
Mof_H 	H 	0.8587	0.712	0.5617	-0.493
Mof_N 	N 	0.07406	0.37154	0.57762	-0.326
Mof_C 	C 	0.12903	0.32826	0.58949	0.297
Mof_H 	H 	0.1413	0.288	0.5617	-0.507
Mof_N 	N 	0.92594	0.37154	0.42238	-0.286
Mof_C 	C 	0.87097	0.32826	0.41051	0.309
Mof_H 	H 	0.8587	0.288	0.4383	-0.498
Mof_N 	N 	0.07406	0.62846	0.42238	-0.324
Mof_C 	C 	0.12903	0.67174	0.41051	0.299
Mof_H 	H 	0.1413	0.712	0.4383	-0.504
Mof_N 	N 	0.62846	0.42238	0.07406	-0.324
Mof_C 	C 	0.67174	0.41051	0.12903	0.299
Mof_H 	H 	0.712	0.4383	0.1413	-0.504
Mof_N 	N 	0.37154	0.42238	0.92594	-0.286
Mof_C 	C 	0.32826	0.41051	0.87097	0.309
Mof_H 	H 	0.288	0.4383	0.8587	-0.498
Mof_N 	N 	0.37154	0.57762	0.07406	-0.326
Mof_C 	C 	0.32826	0.58949	0.12903	0.297
Mof_H 	H 	0.288	0.5617	0.1413	-0.507
Mof_N 	N 	0.62846	0.57762	0.92594	-0.283
Mof_C 	C 	0.67174	0.58949	0.87097	0.316
Mof_H 	H 	0.712	0.5617	0.8587	-0.493
Mof_N 	N 	0.42238	0.92594	0.37154	-0.286
Mof_C 	C 	0.41051	0.87097	0.32826	0.309
Mof_H 	H 	0.4383	0.8587	0.288	-0.498
Mof_N 	N 	0.42238	0.07406	0.62846	-0.324
Mof_C 	C 	0.41051	0.12903	0.67174	0.299
Mof_H 	H 	0.4383	0.1413	0.712	-0.504
Mof_N 	N 	0.57762	0.92594	0.62846	-0.283
Mof_C 	C 	0.58949	0.87097	0.67174	0.316
Mof_H 	H 	0.5617	0.8587	0.712	-0.493
Mof_N 	N 	0.57762	0.07406	0.37154	-0.326
Mof_C 	C 	0.58949	0.12903	0.32826	0.297
Mof_H 	H 	0.5617	0.1413	0.288	-0.507
Mof_Co	Co	0.36808	0	0.5	1.045
Mof_Co	Co	0.63192	0	0.5	1.048
Mof_Co	Co	0.5	0.36808	-0	1.045
Mof_Co	Co	0.5	0.63192	-0	1.048
Mof_Co	Co	1.38008e-33	0.5	0.36808	1.045
Mof_Co	Co	-5.18713e-33	0.5	0.63192	1.048
Mof_Co	Co	1.8747e-33	0.36808	0.5	1.045
Mof_Co	Co	-1.90353e-33	0.63192	0.5	1.048
Mof_Co	Co	0.36808	0.5	-0	1.045
Mof_Co	Co	0.63192	0.5	-0	1.048
Mof_Co	Co	0.5	-7.55646e-33	0.63192	1.048
Mof_Co	Co	0.5	-3.77823e-33	0.36808	1.045
Mof_Cl	Cl	0.5	0	0.5	-0.977
Mof_Cl	Cl	0.5	0.5	-0	-0.977
Mof_Cl	Cl	1.8747e-33	0.5	0.5	-0.977
Mof_C 	C 	0.35155	0.16474	0.64845	-0.382
Mof_C 	C 	0.32005	0.22839	0.67995	0.232
Mof_C 	C 	0.64845	0.83526	0.64845	-0.374
Mof_C 	C 	0.67995	0.77161	0.67995	0.245
Mof_C 	C 	0.64845	0.16474	0.35155	-0.382
Mof_C 	C 	0.67995	0.22839	0.32005	0.232
Mof_C 	C 	0.35155	0.83526	0.35155	-0.378
Mof_C 	C 	0.32005	0.77161	0.32005	0.235
Mof_C 	C 	0.64845	0.35155	0.16474	-0.382
Mof_C 	C 	0.67995	0.32005	0.22839	0.232
Mof_C 	C 	0.64845	0.64845	0.83526	-0.374
Mof_C 	C 	0.67995	0.67995	0.77161	0.245
Mof_C 	C 	0.35155	0.64845	0.16474	-0.382
Mof_C 	C 	0.32005	0.67995	0.22839	0.232
Mof_C 	C 	0.35155	0.35155	0.83526	-0.378
Mof_C 	C 	0.32005	0.32005	0.77161	0.235
Mof_C 	C 	0.16474	0.64845	0.35155	-0.382
Mof_C 	C 	0.22839	0.67995	0.32005	0.232
Mof_C 	C 	0.83526	0.64845	0.64845	-0.374
Mof_C 	C 	0.77161	0.67995	0.67995	0.245
Mof_C 	C 	0.16474	0.35155	0.64845	-0.382
Mof_C 	C 	0.22839	0.32005	0.67995	0.232
Mof_C 	C 	0.83526	0.35155	0.35155	-0.378
Mof_C 	C 	0.77161	0.32005	0.32005	0.235
Mof_C 	C 	0.16474	0.35155	0.35155	-0.385
Mof_C 	C 	0.22839	0.32005	0.32005	0.227
Mof_C 	C 	0.83526	0.64845	0.35155	-0.376
Mof_C 	C 	0.77161	0.67995	0.32005	0.24
Mof_C 	C 	0.16474	0.64845	0.64845	-0.38
Mof_C 	C 	0.22839	0.67995	0.67995	0.237
Mof_C 	C 	0.83526	0.35155	0.64845	-0.376
Mof_C 	C 	0.77161	0.32005	0.67995	0.24
Mof_C 	C 	0.35155	0.64845	0.83526	-0.376
Mof_C 	C 	0.32005	0.67995	0.77161	0.24
Mof_C 	C 	0.64845	0.64845	0.16474	-0.38
Mof_C 	C 	0.67995	0.67995	0.22839	0.237
Mof_C 	C 	0.64845	0.35155	0.83526	-0.376
Mof_C 	C 	0.67995	0.32005	0.77161	0.24
Mof_C 	C 	0.35155	0.35155	0.16474	-0.385
Mof_C 	C 	0.32005	0.32005	0.22839	0.227
Mof_C 	C 	0.64845	0.16474	0.64845	-0.38
Mof_C 	C 	0.67995	0.22839	0.67995	0.237
Mof_C 	C 	0.64845	0.83526	0.35155	-0.376
Mof_C 	C 	0.67995	0.77161	0.32005	0.24
Mof_C 	C 	0.35155	0.16474	0.35155	-0.385
Mof_C 	C 	0.32005	0.22839	0.32005	0.227
Mof_C 	C 	0.35155	0.83526	0.64845	-0.376
Mof_C 	C 	0.32005	0.77161	0.67995	0.24
Mof_C 	C 	0.34951	0.2593	0.7407	-0.31
Mof_H 	H 	0.3905	0.2385	0.7615	0.059
Mof_C 	C 	0.65049	0.7407	0.7407	-0.305
Mof_H 	H 	0.6095	0.7615	0.7615	0.066
Mof_C 	C 	0.65049	0.2593	0.2593	-0.311
Mof_H 	H 	0.6095	0.2385	0.2385	0.056
Mof_C 	C 	0.34951	0.7407	0.2593	-0.31
Mof_H 	H 	0.3905	0.7615	0.2385	0.059
Mof_C 	C 	0.7407	0.34951	0.2593	-0.31
Mof_H 	H 	0.7615	0.3905	0.2385	0.059
Mof_C 	C 	0.7407	0.65049	0.7407	-0.305
Mof_H 	H 	0.7615	0.6095	0.7615	0.066
Mof_C 	C 	0.2593	0.65049	0.2593	-0.311
Mof_H 	H 	0.2385	0.6095	0.2385	0.056
Mof_C 	C 	0.2593	0.34951	0.7407	-0.31
Mof_H 	H 	0.2385	0.3905	0.7615	0.059
Mof_C 	C 	0.2593	0.7407	0.34951	-0.31
Mof_H 	H 	0.2385	0.7615	0.3905	0.059
Mof_C 	C 	0.7407	0.7407	0.65049	-0.305
Mof_H 	H 	0.7615	0.7615	0.6095	0.066
Mof_C 	C 	0.2593	0.2593	0.65049	-0.311
Mof_H 	H 	0.2385	0.2385	0.6095	0.056
Mof_C 	C 	0.7407	0.2593	0.34951	-0.31
Mof_H 	H 	0.7615	0.2385	0.3905	0.059
Mof_C 	C 	0.2593	0.34951	0.2593	-0.313
Mof_H 	H 	0.2385	0.3905	0.2385	0.054
Mof_C 	C 	0.7407	0.65049	0.2593	-0.308
Mof_H 	H 	0.7615	0.6095	0.2385	0.061
Mof_C 	C 	0.2593	0.65049	0.7407	-0.308
Mof_H 	H 	0.2385	0.6095	0.7615	0.061
Mof_C 	C 	0.7407	0.34951	0.7407	-0.307
Mof_H 	H 	0.7615	0.3905	0.7615	0.064
Mof_C 	C 	0.34951	0.7407	0.7407	-0.307
Mof_H 	H 	0.3905	0.7615	0.7615	0.064
Mof_C 	C 	0.65049	0.7407	0.2593	-0.308
Mof_H 	H 	0.6095	0.7615	0.2385	0.061
Mof_C 	C 	0.65049	0.2593	0.7407	-0.308
Mof_H 	H 	0.6095	0.2385	0.7615	0.061
Mof_C 	C 	0.34951	0.2593	0.2593	-0.313
Mof_H 	H 	0.3905	0.2385	0.2385	0.054
Mof_C 	C 	0.7407	0.2593	0.65049	-0.308
Mof_H 	H 	0.7615	0.2385	0.6095	0.061
Mof_C 	C 	0.7407	0.7407	0.34951	-0.307
Mof_H 	H 	0.7615	0.7615	0.3905	0.064
Mof_C 	C 	0.2593	0.2593	0.34951	-0.313
Mof_H 	H 	0.2385	0.2385	0.3905	0.054
Mof_C 	C 	0.2593	0.7407	0.65049	-0.308
Mof_H 	H 	0.2385	0.7615	0.6095	0.061
Mof_Co	Co	0.2808	0.1567	0.5	1.235
Mof_Co	Co	0.7192	0.8433	0.5	1.242
Mof_Co	Co	0.7192	0.1567	0.5	1.236
Mof_Co	Co	0.2808	0.8433	0.5	1.241
Mof_Co	Co	0.5	0.2808	0.1567	1.235
Mof_Co	Co	0.5	0.7192	0.8433	1.242
Mof_Co	Co	0.5	0.7192	0.1567	1.236
Mof_Co	Co	0.5	0.2808	0.8433	1.241
Mof_Co	Co	0.1567	0.5	0.2808	1.235
Mof_Co	Co	0.8433	0.5	0.7192	1.242
Mof_Co	Co	0.1567	0.5	0.7192	1.236
Mof_Co	Co	0.8433	0.5	0.2808	1.241
Mof_Co	Co	0.1567	0.2808	0.5	1.235
Mof_Co	Co	0.8433	0.7192	0.5	1.242
Mof_Co	Co	0.1567	0.7192	0.5	1.236
Mof_Co	Co	0.8433	0.2808	0.5	1.241
Mof_Co	Co	0.2808	0.5	0.8433	1.241
Mof_Co	Co	0.7192	0.5	0.1567	1.236
Mof_Co	Co	0.7192	0.5	0.8433	1.242
Mof_Co	Co	0.2808	0.5	0.1567	1.235
Mof_Co	Co	0.5	0.1567	0.7192	1.236
Mof_Co	Co	0.5	0.8433	0.2808	1.241
Mof_Co	Co	0.5	0.1567	0.2808	1.235
Mof_Co	Co	0.5	0.8433	0.7192	1.242
Mof_O 	O 	0.1736	0.1736	0.5	-0.532
Mof_O 	O 	0.8264	0.8264	0.5	-0.463
Mof_O 	O 	0.8264	0.1736	0.5	-0.497
Mof_O 	O 	0.1736	0.8264	0.5	-0.497
Mof_O 	O 	0.5	0.1736	0.1736	-0.532
Mof_O 	O 	0.5	0.8264	0.8264	-0.463
Mof_O 	O 	0.5	0.8264	0.1736	-0.497
Mof_O 	O 	0.5	0.1736	0.8264	-0.497
Mof_O 	O 	0.1736	0.5	0.1736	-0.532
Mof_O 	O 	0.8264	0.5	0.8264	-0.463
Mof_O 	O 	0.1736	0.5	0.8264	-0.497
Mof_O 	O 	0.8264	0.5	0.1736	-0.497
_end
