data_functionalizedCrystal
_audit_creation_method	'EQeq! by Chris Wilmer'
_symmetry_space_group_name_H-M	'P1'
_symmetry_Int_Tables_number	1
_symmetry_cell_setting	triclinic
loop_
_symmetry_equiv_pos_as_xyz
  x,y,z
_cell_length_a	22.8218
_cell_length_b	21.5546
_cell_length_c	9.492
_cell_angle_alpha	90
_cell_angle_beta	91.3
_cell_angle_gamma	90
loop_
_atom_site_label
_atom_site_type_symbol
_atom_site_fract_x
_atom_site_fract_y
_atom_site_fract_z
_atom_site_charge
Mof_P 	P 	0.3533	0.333	0.40633	0.62
Mof_P 	P 	0.16381	0.34755	0.40845	0.62
Mof_P 	P 	0.26659	0.47257	0.19748	0.631
Mof_P 	P 	0.50849	0.1959	0.7326	0.279
Mof_Be	Be	0.26657	0.42646	0.4914	0.817
Mof_Be	Be	0.43119	0.2307	0.4954	0.778
Mof_O 	O 	0.32195	0.37897	0.4954	-0.349
Mof_O 	O 	0.39882	0.29827	0.4914	-0.378
Mof_O 	O 	0.30961	0.28528	0.3468	-0.427
Mof_H 	H 	0.3269	0.2602	0.298	0.305
Mof_O 	O 	0.38152	0.3649	0.2849	-0.179
Mof_O 	O 	0.46827	0.22001	0.3535	-0.352
Mof_O 	O 	0.45716	0.2995	0.164	-0.446
Mof_H 	H 	0.4754	0.3206	0.108	0.309
Mof_O 	O 	0.20431	0.38973	0.488	-0.345
Mof_O 	O 	0.14226	0.37765	0.2739	-0.154
Mof_O 	O 	0.19751	0.28779	0.37	-0.4
Mof_H 	H 	0.1795	0.2574	0.398	0.292
Mof_O 	O 	0.11376	0.32789	0.4973	-0.358
Mof_O 	O 	0.26936	0.47333	0.3551	-0.344
Mof_O 	O 	0.27075	0.53363	0.1347	-0.357
Mof_O 	O 	0.1937	0.463	0.1572	-0.075
Mof_O 	O 	0.2915	0.4182	0.1341	-0.129
Mof_O 	O 	0.47362	0.23205	0.6354	-0.336
Mof_O 	O 	0.5644	0.18	0.6526	-0.086
Mof_O 	O 	0.4779	0.1337	0.7587	-0.094
Mof_O 	O 	0.2345	0.4216	0.132	-0.119
Mof_O 	O 	0.338	0.453	0.1534	-0.071
Mof_P 	P 	0.8533	0.833	0.40633	0.621
Mof_P 	P 	0.66381	0.84755	0.40845	0.622
Mof_P 	P 	0.76659	0.97257	0.19748	0.631
Mof_P 	P 	0.00849	0.6959	0.7326	0.467
Mof_Be	Be	0.76657	0.92646	0.4914	0.818
Mof_Be	Be	0.93119	0.7307	0.4954	0.779
Mof_O 	O 	0.82195	0.87897	0.4954	-0.346
Mof_O 	O 	0.89882	0.79827	0.4914	-0.371
Mof_O 	O 	0.80961	0.78528	0.3468	-0.427
Mof_H 	H 	0.8269	0.7602	0.298	0.306
Mof_O 	O 	0.88152	0.8649	0.2849	-0.173
Mof_O 	O 	0.96827	0.72001	0.3535	-0.315
Mof_O 	O 	0.95716	0.7995	0.164	-0.414
Mof_H 	H 	0.9754	0.8206	0.108	0.316
Mof_O 	O 	0.70431	0.88973	0.488	-0.344
Mof_O 	O 	0.64226	0.87765	0.2739	-0.153
Mof_O 	O 	0.69751	0.78779	0.37	-0.4
Mof_H 	H 	0.6795	0.7574	0.398	0.293
Mof_O 	O 	0.61376	0.82789	0.4973	-0.356
Mof_O 	O 	0.76936	0.97333	0.3551	-0.342
Mof_O 	O 	0.77075	0.03363	0.1347	-0.353
Mof_O 	O 	0.6937	0.963	0.1572	-0.073
Mof_O 	O 	0.7915	0.9182	0.1341	-0.129
Mof_O 	O 	0.97362	0.73205	0.6354	-0.323
Mof_O 	O 	0.0644	0.68	0.6526	-0.119
Mof_O 	O 	0.9779	0.6337	0.7587	-0.02
Mof_O 	O 	0.7345	0.9216	0.132	-0.118
Mof_O 	O 	0.838	0.953	0.1534	-0.066
Mof_P 	P 	0.6467	0.333	0.09367	0.621
Mof_P 	P 	0.83619	0.34755	0.09155	0.622
Mof_P 	P 	0.73341	0.47257	0.30252	0.632
Mof_P 	P 	0.49151	0.1959	0.7674	0.28
Mof_Be	Be	0.73343	0.42646	0.0086	0.819
Mof_Be	Be	0.56881	0.2307	0.0046	0.78
Mof_O 	O 	0.67805	0.37897	0.0046	-0.348
Mof_O 	O 	0.60118	0.29827	0.0086	-0.378
Mof_O 	O 	0.69039	0.28528	0.1532	-0.426
Mof_H 	H 	0.6731	0.2602	0.202	0.306
Mof_O 	O 	0.61848	0.3649	0.2151	-0.179
Mof_O 	O 	0.53173	0.22001	0.1465	-0.352
Mof_O 	O 	0.54284	0.2995	0.336	-0.446
Mof_H 	H 	0.5246	0.3206	0.392	0.309
Mof_O 	O 	0.79569	0.38973	0.012	-0.342
Mof_O 	O 	0.85774	0.37765	0.2261	-0.153
Mof_O 	O 	0.80249	0.28779	0.13	-0.4
Mof_H 	H 	0.8205	0.2574	0.102	0.294
Mof_O 	O 	0.88624	0.32789	0.0027	-0.352
Mof_O 	O 	0.73064	0.47333	0.1449	-0.342
Mof_O 	O 	0.72925	0.53363	0.3653	-0.355
Mof_O 	O 	0.8063	0.463	0.3428	-0.07
Mof_O 	O 	0.7085	0.4182	0.3659	-0.129
Mof_O 	O 	0.52638	0.23205	0.8646	-0.336
Mof_O 	O 	0.4356	0.18	0.8474	-0.086
Mof_O 	O 	0.5221	0.1337	0.7413	-0.094
Mof_O 	O 	0.7655	0.4216	0.368	-0.118
Mof_O 	O 	0.662	0.453	0.3466	-0.071
Mof_P 	P 	0.1467	0.833	0.09367	0.621
Mof_P 	P 	0.33619	0.84755	0.09155	0.622
Mof_P 	P 	0.23341	0.97257	0.30252	0.632
Mof_P 	P 	0.99151	0.6959	0.7674	0.091
Mof_Be	Be	0.23343	0.92646	0.0086	0.817
Mof_Be	Be	0.06881	0.7307	0.0046	0.771
Mof_O 	O 	0.17805	0.87897	0.0046	-0.351
Mof_O 	O 	0.10118	0.79827	0.0086	-0.382
Mof_O 	O 	0.19039	0.78528	0.1532	-0.427
Mof_H 	H 	0.1731	0.7602	0.202	0.304
Mof_O 	O 	0.11848	0.8649	0.2151	-0.185
Mof_O 	O 	0.03173	0.72001	0.1465	-0.355
Mof_O 	O 	0.04284	0.7995	0.336	-0.438
Mof_H 	H 	0.0246	0.8206	0.392	0.291
Mof_O 	O 	0.29569	0.88973	0.012	-0.344
Mof_O 	O 	0.35774	0.87765	0.2261	-0.154
Mof_O 	O 	0.30249	0.78779	0.13	-0.4
Mof_H 	H 	0.3205	0.7574	0.102	0.293
Mof_O 	O 	0.38624	0.82789	0.0027	-0.356
Mof_O 	O 	0.23064	0.97333	0.1449	-0.344
Mof_O 	O 	0.22925	0.03363	0.3653	-0.357
Mof_O 	O 	0.3063	0.963	0.3428	-0.073
Mof_O 	O 	0.2085	0.9182	0.3659	-0.129
Mof_O 	O 	0.02638	0.73205	0.8646	-0.346
Mof_O 	O 	0.9356	0.68	0.8474	-0.054
Mof_O 	O 	0.0221	0.6337	0.7413	-0.167
Mof_O 	O 	0.2655	0.9216	0.368	-0.119
Mof_O 	O 	0.162	0.953	0.3466	-0.076
Mof_P 	P 	0.6467	0.667	0.59367	0.621
Mof_P 	P 	0.83619	0.65245	0.59155	0.622
Mof_P 	P 	0.73341	0.52743	0.80252	0.632
Mof_P 	P 	0.49151	0.8041	0.2674	0.28
Mof_Be	Be	0.73343	0.57354	0.5086	0.818
Mof_Be	Be	0.56881	0.7693	0.5046	0.779
Mof_O 	O 	0.67805	0.62103	0.5046	-0.348
Mof_O 	O 	0.60118	0.70173	0.5086	-0.378
Mof_O 	O 	0.69039	0.71472	0.6532	-0.427
Mof_H 	H 	0.6731	0.7398	0.702	0.305
Mof_O 	O 	0.61848	0.6351	0.7151	-0.179
Mof_O 	O 	0.53173	0.77999	0.6465	-0.352
Mof_O 	O 	0.54284	0.7005	0.836	-0.446
Mof_H 	H 	0.5246	0.6794	0.892	0.309
Mof_O 	O 	0.79569	0.61027	0.512	-0.343
Mof_O 	O 	0.85774	0.62235	0.7261	-0.153
Mof_O 	O 	0.80249	0.71221	0.63	-0.4
Mof_H 	H 	0.8205	0.7426	0.602	0.293
Mof_O 	O 	0.88624	0.67211	0.5027	-0.353
Mof_O 	O 	0.73064	0.52667	0.6449	-0.343
Mof_O 	O 	0.72925	0.46637	0.8653	-0.356
Mof_O 	O 	0.8063	0.537	0.8428	-0.07
Mof_O 	O 	0.7085	0.5818	0.8659	-0.129
Mof_O 	O 	0.52638	0.76795	0.3646	-0.336
Mof_O 	O 	0.4356	0.82	0.3474	-0.086
Mof_O 	O 	0.5221	0.8663	0.2413	-0.094
Mof_O 	O 	0.7655	0.5784	0.868	-0.118
Mof_O 	O 	0.662	0.547	0.8466	-0.071
Mof_P 	P 	0.1467	0.167	0.59367	0.621
Mof_P 	P 	0.33619	0.15245	0.59155	0.622
Mof_P 	P 	0.23341	0.02743	0.80252	0.631
Mof_P 	P 	0.99151	0.3041	0.2674	0.088
Mof_Be	Be	0.23343	0.07354	0.5086	0.818
Mof_Be	Be	0.06881	0.2693	0.5046	0.772
Mof_O 	O 	0.17805	0.12103	0.5046	-0.351
Mof_O 	O 	0.10118	0.20173	0.5086	-0.382
Mof_O 	O 	0.19039	0.21472	0.6532	-0.426
Mof_H 	H 	0.1731	0.2398	0.702	0.304
Mof_O 	O 	0.11848	0.1351	0.7151	-0.185
Mof_O 	O 	0.03173	0.27999	0.6465	-0.355
Mof_O 	O 	0.04284	0.2005	0.836	-0.438
Mof_H 	H 	0.0246	0.1794	0.892	0.291
Mof_O 	O 	0.29569	0.11027	0.512	-0.344
Mof_O 	O 	0.35774	0.12235	0.7261	-0.153
Mof_O 	O 	0.30249	0.21221	0.63	-0.4
Mof_H 	H 	0.3205	0.2426	0.602	0.293
Mof_O 	O 	0.38624	0.17211	0.5027	-0.356
Mof_O 	O 	0.23064	0.02667	0.6449	-0.344
Mof_O 	O 	0.22925	0.96637	0.8653	-0.356
Mof_O 	O 	0.3063	0.037	0.8428	-0.073
Mof_O 	O 	0.2085	0.0818	0.8659	-0.129
Mof_O 	O 	0.02638	0.26795	0.3646	-0.347
Mof_O 	O 	0.9356	0.32	0.3474	-0.053
Mof_O 	O 	0.0221	0.3663	0.2413	-0.168
Mof_O 	O 	0.2655	0.0784	0.868	-0.119
Mof_O 	O 	0.162	0.047	0.8466	-0.076
Mof_P 	P 	0.3533	0.667	0.90633	0.621
Mof_P 	P 	0.16381	0.65245	0.90845	0.621
Mof_P 	P 	0.26659	0.52743	0.69748	0.632
Mof_P 	P 	0.50849	0.8041	0.2326	0.28
Mof_Be	Be	0.26657	0.57354	0.9914	0.818
Mof_Be	Be	0.43119	0.7693	0.9954	0.779
Mof_O 	O 	0.32195	0.62103	0.9954	-0.348
Mof_O 	O 	0.39882	0.70173	0.9914	-0.378
Mof_O 	O 	0.30961	0.71472	0.8468	-0.427
Mof_H 	H 	0.3269	0.7398	0.798	0.305
Mof_O 	O 	0.38152	0.6351	0.7849	-0.18
Mof_O 	O 	0.46827	0.77999	0.8535	-0.352
Mof_O 	O 	0.45716	0.7005	0.664	-0.446
Mof_H 	H 	0.4754	0.6794	0.608	0.309
Mof_O 	O 	0.20431	0.61027	0.988	-0.345
Mof_O 	O 	0.14226	0.62235	0.7739	-0.154
Mof_O 	O 	0.19751	0.71221	0.87	-0.4
Mof_H 	H 	0.1795	0.7426	0.898	0.293
Mof_O 	O 	0.11376	0.67211	0.9973	-0.357
Mof_O 	O 	0.26936	0.52667	0.8551	-0.344
Mof_O 	O 	0.27075	0.46637	0.6347	-0.357
Mof_O 	O 	0.1937	0.537	0.6572	-0.075
Mof_O 	O 	0.2915	0.5818	0.6341	-0.129
Mof_O 	O 	0.47362	0.76795	0.1354	-0.336
Mof_O 	O 	0.5644	0.82	0.1526	-0.086
Mof_O 	O 	0.4779	0.8663	0.2587	-0.094
Mof_O 	O 	0.2345	0.5784	0.632	-0.119
Mof_O 	O 	0.338	0.547	0.6534	-0.071
Mof_P 	P 	0.8533	0.167	0.90633	0.621
Mof_P 	P 	0.66381	0.15245	0.90845	0.622
Mof_P 	P 	0.76659	0.02743	0.69748	0.631
Mof_P 	P 	0.00849	0.3041	0.2326	0.471
Mof_Be	Be	0.76657	0.07354	0.9914	0.817
Mof_Be	Be	0.93119	0.2693	0.9954	0.778
Mof_O 	O 	0.82195	0.12103	0.9954	-0.346
Mof_O 	O 	0.89882	0.20173	0.9914	-0.371
Mof_O 	O 	0.80961	0.21472	0.8468	-0.427
Mof_H 	H 	0.8269	0.2398	0.798	0.306
Mof_O 	O 	0.88152	0.1351	0.7849	-0.173
Mof_O 	O 	0.96827	0.27999	0.8535	-0.316
Mof_O 	O 	0.95716	0.2005	0.664	-0.415
Mof_H 	H 	0.9754	0.1794	0.608	0.316
Mof_O 	O 	0.70431	0.11027	0.988	-0.344
Mof_O 	O 	0.64226	0.12235	0.7739	-0.153
Mof_O 	O 	0.69751	0.21221	0.87	-0.4
Mof_H 	H 	0.6795	0.2426	0.898	0.293
Mof_O 	O 	0.61376	0.17211	0.9973	-0.356
Mof_O 	O 	0.76936	0.02667	0.8551	-0.342
Mof_O 	O 	0.77075	0.96637	0.6347	-0.354
Mof_O 	O 	0.6937	0.037	0.6572	-0.073
Mof_O 	O 	0.7915	0.0818	0.6341	-0.129
Mof_O 	O 	0.97362	0.26795	0.1354	-0.322
Mof_O 	O 	0.0644	0.32	0.1526	-0.119
Mof_O 	O 	0.9779	0.3663	0.2587	-0.018
Mof_O 	O 	0.7345	0.0784	0.632	-0.118
Mof_O 	O 	0.838	0.047	0.6534	-0.066
Mof_P 	P 	0.5	0.25913	0.25	0.664
Mof_P 	P 	3.98706e-34	0.75913	0.25	0.601
Mof_P 	P 	0.5	0.74087	0.75	0.664
Mof_P 	P 	1.19612e-33	0.24087	0.75	0.602
_end
