data_functionalizedCrystal
_audit_creation_method	'EQeq! by Chris Wilmer'
_symmetry_space_group_name_H-M	'P1'
_symmetry_Int_Tables_number	1
_symmetry_cell_setting	triclinic
loop_
_symmetry_equiv_pos_as_xyz
  x,y,z
_cell_length_a	23.276
_cell_length_b	20.665
_cell_length_c	17.502
_cell_angle_alpha	90
_cell_angle_beta	126.265
_cell_angle_gamma	90
loop_
_atom_site_label
_atom_site_type_symbol
_atom_site_fract_x
_atom_site_fract_y
_atom_site_fract_z
_atom_site_charge
Mof_Zn	Zn	0.1434	0.66458	0.66451	1.203
Mof_O 	O 	0.4748	0.8881	0.8195	-0.452
Mof_O 	O 	0.589	0.9085	0.9209	-0.333
Mof_O 	O 	0.2772	0.6788	0.8028	-0.353
Mof_C 	C 	0.4057	0.8905	0.913	0.173
Mof_O 	O 	0.1903	0.7475	0.7138	-0.479
Mof_C 	C 	0.427	0.8258	0.9411	-0.291
Mof_C 	C 	0.5117	0.9563	0.9498	-0.065
Mof_C 	C 	0.5543	0.0098	0.9941	-0.05
Mof_H 	H 	0.5919	0.0161	0.99	0.05
Mof_C 	C 	0.4552	0.9456	0.9562	-0.024
Mof_C 	C 	0.2545	0.7367	0.7793	0.355
Mof_C 	C 	0.3759	0.777	0.898	0.163
Mof_H 	H 	0.39	0.7344	0.9171	-0.008
Mof_N 	N 	0.1426	0.6011	0.75	-0.273
Mof_C 	C 	0.5265	0.9145	0.8944	0.329
Mof_C 	C 	0.3053	0.79	0.8278	-0.195
Mof_C 	C 	0.335	0.9021	0.8458	-0.209
Mof_H 	H 	0.3198	0.9447	0.8296	0.096
Mof_C 	C 	0.5009	0.8078	0.0141	0.638
Mof_C 	C 	0.2848	0.8532	0.8005	0.123
Mof_H 	H 	0.2376	0.8631	0.7521	-0.005
Mof_N 	N 	0.179	0.5302	0.8595	-0.125
Mof_C 	C 	0.1074	0.5287	0.803	-0.011
Mof_H 	H 	0.0785	0.5011	0.8084	0.036
Mof_C 	C 	0.0857	0.5745	0.7373	0.02
Mof_H 	H 	0.0386	0.5859	0.6905	0.003
Mof_C 	C 	0.2389	0.4294	0.9175	-0.196
Mof_H 	H 	0.2586	0.4338	0.8821	0.09
Mof_H 	H 	0.193	0.4081	0.8771	0.098
Mof_C 	C 	0.1986	0.5741	0.8229	0.088
Mof_H 	H 	0.2454	0.5837	0.8464	-0.005
Mof_O 	O 	0.5213	0.7592	0.9843	-0.333
Mof_C 	C 	0.2873	0.389	0.003	-0.002
Mof_H 	H 	0.3357	0.4049	0.0362	0.038
Mof_H 	H 	0.2735	0.3922	0.0454	0.031
Mof_C 	C 	0.2293	0.4916	0.9424	0.02
Mof_H 	H 	0.2749	0.5138	0.9798	0.025
Mof_H 	H 	0.2124	0.4871	0.9811	0.031
Mof_C 	C 	0.2843	0.3233	0.977	-0.118
Mof_H 	H 	0.2972	0.3187	0.9338	0.071
Mof_H 	H 	0.2373	0.3051	0.9482	0.072
Mof_C 	C 	0.389	0.252	0.0935	0.102
Mof_H 	H 	0.4031	0.2437	0.0546	0.001
Mof_N 	N 	0.3387	0.2924	0.0713	-0.112
Mof_C 	C 	0.3389	0.2936	0.1544	-0.015
Mof_H 	H 	0.3106	0.3193	0.1634	0.031
Mof_N 	N 	0.4182	0.2241	0.1759	-0.261
Mof_C 	C 	0.3876	0.2507	0.2151	0.005
Mof_H 	H 	0.3989	0.2406	0.2743	0.028
Mof_O 	O 	0.5445	0.8357	0.0619	-0.664
Mof_Zn	Zn	0.6434	0.16458	0.66451	1.204
Mof_O 	O 	0.9748	0.3881	0.8195	-0.417
Mof_O 	O 	0.089	0.4085	0.9209	-0.331
Mof_O 	O 	0.7772	0.1788	0.8028	-0.347
Mof_C 	C 	0.9057	0.3905	0.913	0.115
Mof_O 	O 	0.6903	0.2475	0.7138	-0.472
Mof_C 	C 	0.927	0.3258	0.9411	-0.21
Mof_C 	C 	0.0117	0.4563	0.9498	-0.143
Mof_C 	C 	0.0543	0.5098	0.9941	0.017
Mof_H 	H 	0.0919	0.5161	0.99	0.025
Mof_C 	C 	0.9552	0.4456	0.9562	0.065
Mof_C 	C 	0.7545	0.2367	0.7793	0.341
Mof_C 	C 	0.8759	0.277	0.898	0.113
Mof_H 	H 	0.89	0.2344	0.9171	0.017
Mof_N 	N 	0.6426	0.1011	0.75	-0.271
Mof_C 	C 	0.0265	0.4145	0.8944	0.308
Mof_C 	C 	0.8053	0.29	0.8278	-0.159
Mof_C 	C 	0.835	0.4021	0.8458	-0.16
Mof_H 	H 	0.8198	0.4447	0.8296	0.079
Mof_C 	C 	0.0009	0.3078	0.0141	0.565
Mof_C 	C 	0.7848	0.3532	0.8005	0.083
Mof_H 	H 	0.7376	0.3631	0.7521	0.011
Mof_N 	N 	0.679	0.0302	0.8595	-0.125
Mof_C 	C 	0.6074	0.0287	0.803	-0.007
Mof_H 	H 	0.5785	0.0011	0.8084	0.042
Mof_C 	C 	0.5857	0.0745	0.7373	0.022
Mof_H 	H 	0.5386	0.0859	0.6905	0.016
Mof_C 	C 	0.7389	0.9294	0.9175	-0.196
Mof_H 	H 	0.7586	0.9338	0.8821	0.091
Mof_H 	H 	0.693	0.9081	0.8771	0.098
Mof_C 	C 	0.6986	0.0741	0.8229	0.09
Mof_H 	H 	0.7454	0.0837	0.8464	-0.003
Mof_O 	O 	0.0213	0.2592	0.9843	-0.333
Mof_C 	C 	0.7873	0.889	0.003	-0.002
Mof_H 	H 	0.8357	0.9049	0.0362	0.043
Mof_H 	H 	0.7735	0.8922	0.0454	0.032
Mof_C 	C 	0.7293	0.9916	0.9424	0.018
Mof_H 	H 	0.7749	0.0138	0.9798	0.029
Mof_H 	H 	0.7124	0.9871	0.9811	0.032
Mof_C 	C 	0.7843	0.8233	0.977	-0.119
Mof_H 	H 	0.7972	0.8187	0.9338	0.072
Mof_H 	H 	0.7373	0.8051	0.9482	0.072
Mof_C 	C 	0.889	0.752	0.0935	0.106
Mof_H 	H 	0.9031	0.7437	0.0546	0.006
Mof_N 	N 	0.8387	0.7924	0.0713	-0.111
Mof_C 	C 	0.8389	0.7936	0.1544	-0.013
Mof_H 	H 	0.8106	0.8193	0.1634	0.032
Mof_N 	N 	0.9182	0.7241	0.1759	-0.253
Mof_C 	C 	0.8876	0.7507	0.2151	0.008
Mof_H 	H 	0.8989	0.7406	0.2743	0.034
Mof_O 	O 	0.0445	0.3357	0.0619	-0.644
Mof_Zn	Zn	0.8566	0.66458	0.83549	1.205
Mof_O 	O 	0.5252	0.8881	0.6805	-0.454
Mof_O 	O 	0.411	0.9085	0.5791	-0.334
Mof_O 	O 	0.7228	0.6788	0.6972	-0.352
Mof_C 	C 	0.5943	0.8905	0.587	0.164
Mof_O 	O 	0.8097	0.7475	0.7862	-0.473
Mof_C 	C 	0.573	0.8258	0.5589	-0.28
Mof_C 	C 	0.4883	0.9563	0.5502	-0.075
Mof_C 	C 	0.4457	0.0098	0.5059	-0.033
Mof_H 	H 	0.4081	0.0161	0.51	0.045
Mof_C 	C 	0.5448	0.9456	0.5438	-0.011
Mof_C 	C 	0.7455	0.7367	0.7207	0.352
Mof_C 	C 	0.6241	0.777	0.602	0.155
Mof_H 	H 	0.61	0.7344	0.5829	-0.005
Mof_N 	N 	0.8574	0.6011	0.75	-0.269
Mof_C 	C 	0.4735	0.9145	0.6056	0.333
Mof_C 	C 	0.6947	0.79	0.6722	-0.187
Mof_C 	C 	0.665	0.9021	0.6542	-0.2
Mof_H 	H 	0.6802	0.9447	0.6704	0.094
Mof_C 	C 	0.4991	0.8078	0.4859	0.626
Mof_C 	C 	0.7152	0.8532	0.6995	0.116
Mof_H 	H 	0.7624	0.8631	0.7479	0.002
Mof_N 	N 	0.821	0.5302	0.6405	-0.123
Mof_C 	C 	0.8926	0.5287	0.697	-0.004
Mof_H 	H 	0.9215	0.5011	0.6916	0.048
Mof_C 	C 	0.9143	0.5745	0.7627	0.025
Mof_H 	H 	0.9614	0.5859	0.8095	0.028
Mof_C 	C 	0.7611	0.4294	0.5825	-0.164
Mof_H 	H 	0.7414	0.4338	0.6179	0.081
Mof_H 	H 	0.807	0.4081	0.6229	0.09
Mof_C 	C 	0.8014	0.5741	0.6771	0.09
Mof_H 	H 	0.7546	0.5837	0.6536	-0.004
Mof_O 	O 	0.4787	0.7592	0.5157	-0.328
Mof_C 	C 	0.7127	0.389	0.497	-0.041
Mof_H 	H 	0.6643	0.4049	0.4638	0.048
Mof_H 	H 	0.7265	0.3922	0.4546	0.041
Mof_C 	C 	0.7707	0.4916	0.5576	0.001
Mof_H 	H 	0.7251	0.5138	0.5202	0.032
Mof_H 	H 	0.7876	0.4871	0.5189	0.037
Mof_C 	C 	0.7157	0.3233	0.523	-0.089
Mof_H 	H 	0.7028	0.3187	0.5662	0.063
Mof_H 	H 	0.7627	0.3051	0.5518	0.064
Mof_C 	C 	0.611	0.252	0.4065	0.103
Mof_H 	H 	0.5969	0.2437	0.4454	0
Mof_N 	N 	0.6613	0.2924	0.4287	-0.117
Mof_C 	C 	0.6611	0.2936	0.3456	-0.015
Mof_H 	H 	0.6894	0.3193	0.3366	0.03
Mof_N 	N 	0.5818	0.2241	0.3241	-0.262
Mof_C 	C 	0.6124	0.2507	0.2849	0.004
Mof_H 	H 	0.6011	0.2406	0.2257	0.028
Mof_O 	O 	0.4555	0.8357	0.4381	-0.661
Mof_Zn	Zn	0.3566	0.16458	0.83549	1.204
Mof_O 	O 	0.0252	0.3881	0.6805	-0.486
Mof_O 	O 	0.911	0.4085	0.5791	-0.334
Mof_O 	O 	0.2228	0.1788	0.6972	-0.359
Mof_C 	C 	0.0943	0.3905	0.587	0.229
Mof_O 	O 	0.3097	0.2475	0.7862	-0.48
Mof_C 	C 	0.073	0.3258	0.5589	-0.367
Mof_C 	C 	0.9883	0.4563	0.5502	0.01
Mof_C 	C 	0.9457	0.5098	0.5059	-0.103
Mof_H 	H 	0.9081	0.5161	0.51	0.071
Mof_C 	C 	0.0448	0.4456	0.5438	-0.111
Mof_C 	C 	0.2455	0.2367	0.7207	0.367
Mof_C 	C 	0.1241	0.277	0.602	0.209
Mof_H 	H 	0.11	0.2344	0.5829	-0.032
Mof_N 	N 	0.3574	0.1011	0.75	-0.271
Mof_C 	C 	0.9735	0.4145	0.6056	0.353
Mof_C 	C 	0.1947	0.29	0.6722	-0.226
Mof_C 	C 	0.165	0.4021	0.6542	-0.254
Mof_H 	H 	0.1802	0.4447	0.6704	0.112
Mof_C 	C 	0.9991	0.3078	0.4859	0.702
Mof_C 	C 	0.2152	0.3532	0.6995	0.159
Mof_H 	H 	0.2624	0.3631	0.7479	-0.015
Mof_N 	N 	0.321	0.0302	0.6405	-0.123
Mof_C 	C 	0.3926	0.0287	0.697	-0.008
Mof_H 	H 	0.4215	0.0011	0.6916	0.042
Mof_C 	C 	0.4143	0.0745	0.7627	0.022
Mof_H 	H 	0.4614	0.0859	0.8095	0.015
Mof_C 	C 	0.2611	0.9294	0.5825	-0.171
Mof_H 	H 	0.2414	0.9338	0.6179	0.081
Mof_H 	H 	0.307	0.9081	0.6229	0.091
Mof_C 	C 	0.3014	0.0741	0.6771	0.089
Mof_H 	H 	0.2546	0.0837	0.6536	-0.006
Mof_O 	O 	0.9787	0.2592	0.5157	-0.326
Mof_C 	C 	0.2127	0.889	0.497	-0.032
Mof_H 	H 	0.1643	0.9049	0.4638	0.041
Mof_H 	H 	0.2265	0.8922	0.4546	0.037
Mof_C 	C 	0.2707	0.9916	0.5576	0.004
Mof_H 	H 	0.2251	0.0138	0.5202	0.029
Mof_H 	H 	0.2876	0.9871	0.5189	0.035
Mof_C 	C 	0.2157	0.8233	0.523	-0.095
Mof_H 	H 	0.2028	0.8187	0.5662	0.063
Mof_H 	H 	0.2627	0.8051	0.5518	0.066
Mof_C 	C 	0.111	0.752	0.4065	0.099
Mof_H 	H 	0.0969	0.7437	0.4454	-0.003
Mof_N 	N 	0.1613	0.7924	0.4287	-0.117
Mof_C 	C 	0.1611	0.7936	0.3456	-0.017
Mof_H 	H 	0.1894	0.8193	0.3366	0.029
Mof_N 	N 	0.0818	0.7241	0.3241	-0.266
Mof_C 	C 	0.1124	0.7507	0.2849	0.002
Mof_H 	H 	0.1011	0.7406	0.2257	0.024
Mof_O 	O 	0.9555	0.3357	0.4381	-0.683
Mof_Zn	Zn	0.8566	0.33542	0.33549	1.206
Mof_O 	O 	0.5252	0.1119	0.1805	-0.454
Mof_O 	O 	0.411	0.0915	0.0791	-0.334
Mof_O 	O 	0.7228	0.3212	0.1972	-0.35
Mof_C 	C 	0.5943	0.1095	0.087	0.157
Mof_O 	O 	0.8097	0.2525	0.2862	-0.47
Mof_C 	C 	0.573	0.1742	0.0589	-0.268
Mof_C 	C 	0.4883	0.0437	0.0502	-0.079
Mof_C 	C 	0.4457	0.9902	0.0059	-0.025
Mof_H 	H 	0.4081	0.9839	0.01	0.043
Mof_C 	C 	0.5448	0.0544	0.0438	0.001
Mof_C 	C 	0.7455	0.2633	0.2207	0.35
Mof_C 	C 	0.6241	0.223	0.102	0.148
Mof_H 	H 	0.61	0.2656	0.0829	-0.001
Mof_N 	N 	0.8574	0.3989	0.25	-0.268
Mof_C 	C 	0.4735	0.0855	0.1056	0.335
Mof_C 	C 	0.6947	0.21	0.1722	-0.181
Mof_C 	C 	0.665	0.0979	0.1542	-0.193
Mof_H 	H 	0.6802	0.0553	0.1704	0.093
Mof_C 	C 	0.4991	0.1922	0.9859	0.612
Mof_C 	C 	0.7152	0.1468	0.1995	0.111
Mof_H 	H 	0.7624	0.1369	0.2479	0.005
Mof_N 	N 	0.821	0.4698	0.1405	-0.118
Mof_C 	C 	0.8926	0.4713	0.197	-0.006
Mof_H 	H 	0.9215	0.4989	0.1916	0.049
Mof_C 	C 	0.9143	0.4255	0.2627	0.026
Mof_H 	H 	0.9614	0.4141	0.3095	0.029
Mof_C 	C 	0.7611	0.5706	0.0825	-0.119
Mof_H 	H 	0.7414	0.5662	0.1179	0.068
Mof_H 	H 	0.807	0.5919	0.1229	0.077
Mof_C 	C 	0.8014	0.4259	0.1771	0.089
Mof_H 	H 	0.7546	0.4163	0.1536	-0.003
Mof_O 	O 	0.4787	0.2408	0.0157	-0.322
Mof_C 	C 	0.7127	0.611	0.997	-0.093
Mof_H 	H 	0.6643	0.5951	0.9638	0.062
Mof_H 	H 	0.7265	0.6078	0.9546	0.054
Mof_C 	C 	0.7707	0.5084	0.0576	-0.026
Mof_H 	H 	0.7251	0.4862	0.0202	0.041
Mof_H 	H 	0.7876	0.5129	0.0189	0.046
Mof_C 	C 	0.7157	0.6767	0.023	-0.051
Mof_H 	H 	0.7028	0.6813	0.0662	0.052
Mof_H 	H 	0.7627	0.6949	0.0518	0.054
Mof_C 	C 	0.611	0.748	0.9065	0.104
Mof_H 	H 	0.5969	0.7563	0.9454	-0.001
Mof_N 	N 	0.6613	0.7076	0.9287	-0.124
Mof_C 	C 	0.6611	0.7064	0.8456	-0.014
Mof_H 	H 	0.6894	0.6807	0.8366	0.028
Mof_N 	N 	0.5818	0.7759	0.8241	-0.262
Mof_C 	C 	0.6124	0.7493	0.7849	0.003
Mof_H 	H 	0.6011	0.7594	0.7257	0.029
Mof_O 	O 	0.4555	0.1643	0.9381	-0.658
Mof_Zn	Zn	0.3566	0.83542	0.33549	1.204
Mof_O 	O 	0.0252	0.6119	0.1805	-0.488
Mof_O 	O 	0.911	0.5915	0.0791	-0.335
Mof_O 	O 	0.2228	0.8212	0.1972	-0.358
Mof_C 	C 	0.0943	0.6095	0.087	0.219
Mof_O 	O 	0.3097	0.7525	0.2862	-0.478
Mof_C 	C 	0.073	0.6742	0.0589	-0.353
Mof_C 	C 	0.9883	0.5437	0.0502	0
Mof_C 	C 	0.9457	0.4902	0.0059	-0.083
Mof_H 	H 	0.9081	0.4839	0.01	0.066
Mof_C 	C 	0.0448	0.5544	0.0438	-0.098
Mof_C 	C 	0.2455	0.7633	0.2207	0.364
Mof_C 	C 	0.1241	0.723	0.102	0.2
Mof_H 	H 	0.11	0.7656	0.0829	-0.028
Mof_N 	N 	0.3574	0.8989	0.25	-0.271
Mof_C 	C 	0.9735	0.5855	0.1056	0.359
Mof_C 	C 	0.1947	0.71	0.1722	-0.219
Mof_C 	C 	0.165	0.5979	0.1542	-0.245
Mof_H 	H 	0.1802	0.5553	0.1704	0.11
Mof_C 	C 	0.9991	0.6922	0.9859	0.684
Mof_C 	C 	0.2152	0.6468	0.1995	0.152
Mof_H 	H 	0.2624	0.6369	0.2479	-0.012
Mof_N 	N 	0.321	0.9698	0.1405	-0.122
Mof_C 	C 	0.3926	0.9713	0.197	-0.008
Mof_H 	H 	0.4215	0.9989	0.1916	0.042
Mof_C 	C 	0.4143	0.9255	0.2627	0.023
Mof_H 	H 	0.4614	0.9141	0.3095	0.016
Mof_C 	C 	0.2611	0.0706	0.0825	-0.145
Mof_H 	H 	0.2414	0.0662	0.1179	0.075
Mof_H 	H 	0.307	0.0919	0.1229	0.084
Mof_C 	C 	0.3014	0.9259	0.1771	0.088
Mof_H 	H 	0.2546	0.9163	0.1536	-0.006
Mof_O 	O 	0.9787	0.7408	0.0157	-0.319
Mof_C 	C 	0.2127	0.111	0.997	-0.065
Mof_H 	H 	0.1643	0.0951	0.9638	0.05
Mof_H 	H 	0.2265	0.1078	0.9546	0.045
Mof_C 	C 	0.2707	0.0084	0.0576	-0.006
Mof_H 	H 	0.2251	0.9862	0.0202	0.031
Mof_H 	H 	0.2876	0.0129	0.0189	0.04
Mof_C 	C 	0.2157	0.1767	0.023	-0.07
Mof_H 	H 	0.2028	0.1813	0.0662	0.057
Mof_H 	H 	0.2627	0.1949	0.0518	0.06
Mof_C 	C 	0.111	0.248	0.9065	0.1
Mof_H 	H 	0.0969	0.2563	0.9454	-0.004
Mof_N 	N 	0.1613	0.2076	0.9287	-0.121
Mof_C 	C 	0.1611	0.2064	0.8456	-0.017
Mof_H 	H 	0.1894	0.1807	0.8366	0.028
Mof_N 	N 	0.0818	0.2759	0.8241	-0.267
Mof_C 	C 	0.1124	0.2493	0.7849	0.001
Mof_H 	H 	0.1011	0.2594	0.7257	0.024
Mof_O 	O 	0.9555	0.6643	0.9381	-0.679
Mof_Zn	Zn	0.1434	0.33542	0.16451	1.203
Mof_O 	O 	0.4748	0.1119	0.3195	-0.453
Mof_O 	O 	0.589	0.0915	0.4209	-0.333
Mof_O 	O 	0.2772	0.3212	0.3028	-0.353
Mof_C 	C 	0.4057	0.1095	0.413	0.167
Mof_O 	O 	0.1903	0.2525	0.2138	-0.477
Mof_C 	C 	0.427	0.1742	0.4411	-0.282
Mof_C 	C 	0.5117	0.0437	0.4498	-0.071
Mof_C 	C 	0.5543	0.9902	0.4941	-0.038
Mof_H 	H 	0.5919	0.9839	0.49	0.047
Mof_C 	C 	0.4552	0.0544	0.4562	-0.015
Mof_C 	C 	0.2545	0.2633	0.2793	0.353
Mof_C 	C 	0.3759	0.223	0.398	0.157
Mof_H 	H 	0.39	0.2656	0.4171	-0.006
Mof_N 	N 	0.1426	0.3989	0.25	-0.273
Mof_C 	C 	0.5265	0.0855	0.3944	0.332
Mof_C 	C 	0.3053	0.21	0.3278	-0.19
Mof_C 	C 	0.335	0.0979	0.3458	-0.203
Mof_H 	H 	0.3198	0.0553	0.3296	0.095
Mof_C 	C 	0.5009	0.1922	0.5141	0.626
Mof_C 	C 	0.2848	0.1468	0.3005	0.119
Mof_H 	H 	0.2376	0.1369	0.2521	-0.002
Mof_N 	N 	0.179	0.4698	0.3595	-0.122
Mof_C 	C 	0.1074	0.4713	0.303	-0.012
Mof_H 	H 	0.0785	0.4989	0.3084	0.036
Mof_C 	C 	0.0857	0.4255	0.2373	0.021
Mof_H 	H 	0.0386	0.4141	0.1905	0.003
Mof_C 	C 	0.2389	0.5706	0.4175	-0.163
Mof_H 	H 	0.2586	0.5662	0.3821	0.081
Mof_H 	H 	0.193	0.5919	0.3771	0.088
Mof_C 	C 	0.1986	0.4259	0.3229	0.088
Mof_H 	H 	0.2454	0.4163	0.3464	-0.004
Mof_O 	O 	0.5213	0.2408	0.4843	-0.328
Mof_C 	C 	0.2873	0.611	0.503	-0.041
Mof_H 	H 	0.3357	0.5951	0.5362	0.048
Mof_H 	H 	0.2735	0.6078	0.5454	0.04
Mof_C 	C 	0.2293	0.5084	0.4424	-0.001
Mof_H 	H 	0.2749	0.4862	0.4798	0.032
Mof_H 	H 	0.2124	0.5129	0.4811	0.038
Mof_C 	C 	0.2843	0.6767	0.477	-0.089
Mof_H 	H 	0.2972	0.6813	0.4338	0.063
Mof_H 	H 	0.2373	0.6949	0.4482	0.065
Mof_C 	C 	0.389	0.748	0.5935	0.103
Mof_H 	H 	0.4031	0.7563	0.5546	0
Mof_N 	N 	0.3387	0.7076	0.5713	-0.117
Mof_C 	C 	0.3389	0.7064	0.6544	-0.015
Mof_H 	H 	0.3106	0.6807	0.6634	0.029
Mof_N 	N 	0.4182	0.7759	0.6759	-0.262
Mof_C 	C 	0.3876	0.7493	0.7151	0.004
Mof_H 	H 	0.3989	0.7594	0.7743	0.028
Mof_O 	O 	0.5445	0.1643	0.5619	-0.662
Mof_Zn	Zn	0.6434	0.83542	0.16451	1.205
Mof_O 	O 	0.9748	0.6119	0.3195	-0.415
Mof_O 	O 	0.089	0.5915	0.4209	-0.331
Mof_O 	O 	0.7772	0.8212	0.3028	-0.346
Mof_C 	C 	0.9057	0.6095	0.413	0.103
Mof_O 	O 	0.6903	0.7525	0.2138	-0.47
Mof_C 	C 	0.927	0.6742	0.4411	-0.195
Mof_C 	C 	0.0117	0.5437	0.4498	-0.156
Mof_C 	C 	0.0543	0.4902	0.4941	0.032
Mof_H 	H 	0.0919	0.4839	0.49	0.021
Mof_C 	C 	0.9552	0.5544	0.4562	0.086
Mof_C 	C 	0.7545	0.7633	0.2793	0.339
Mof_C 	C 	0.8759	0.723	0.398	0.104
Mof_H 	H 	0.89	0.7656	0.4171	0.022
Mof_N 	N 	0.6426	0.8989	0.25	-0.27
Mof_C 	C 	0.0265	0.5855	0.3944	0.31
Mof_C 	C 	0.8053	0.71	0.3278	-0.152
Mof_C 	C 	0.835	0.5979	0.3458	-0.15
Mof_H 	H 	0.8198	0.5553	0.3296	0.077
Mof_C 	C 	0.0009	0.6922	0.5141	0.55
Mof_C 	C 	0.7848	0.6468	0.3005	0.076
Mof_H 	H 	0.7376	0.6369	0.2521	0.015
Mof_N 	N 	0.679	0.9698	0.3595	-0.122
Mof_C 	C 	0.6074	0.9713	0.303	-0.008
Mof_H 	H 	0.5785	0.9989	0.3084	0.042
Mof_C 	C 	0.5857	0.9255	0.2373	0.023
Mof_H 	H 	0.5386	0.9141	0.1905	0.016
Mof_C 	C 	0.7389	0.0706	0.4175	-0.157
Mof_H 	H 	0.7586	0.0662	0.3821	0.081
Mof_H 	H 	0.693	0.0919	0.3771	0.087
Mof_C 	C 	0.6986	0.9259	0.3229	0.089
Mof_H 	H 	0.7454	0.9163	0.3464	-0.002
Mof_O 	O 	0.0213	0.7408	0.4843	-0.329
Mof_C 	C 	0.7873	0.111	0.503	-0.049
Mof_H 	H 	0.8357	0.0951	0.5362	0.055
Mof_H 	H 	0.7735	0.1078	0.5454	0.044
Mof_C 	C 	0.7293	0.0084	0.4424	-0.002
Mof_H 	H 	0.7749	0.9862	0.4798	0.035
Mof_H 	H 	0.7124	0.0129	0.4811	0.039
Mof_C 	C 	0.7843	0.1767	0.477	-0.083
Mof_H 	H 	0.7972	0.1813	0.4338	0.063
Mof_H 	H 	0.7373	0.1949	0.4482	0.063
Mof_C 	C 	0.889	0.248	0.5935	0.107
Mof_H 	H 	0.9031	0.2563	0.5546	0.004
Mof_N 	N 	0.8387	0.2076	0.5713	-0.117
Mof_C 	C 	0.8389	0.2064	0.6544	-0.012
Mof_H 	H 	0.8106	0.1807	0.6634	0.03
Mof_N 	N 	0.9182	0.2759	0.6759	-0.253
Mof_C 	C 	0.8876	0.2493	0.7151	0.006
Mof_H 	H 	0.8989	0.2594	0.7743	0.033
Mof_O 	O 	0.0445	0.6643	0.5619	-0.64
Mof_Zn	Zn	0.5	0.83744	0.75	1.215
Mof_Zn	Zn	3.36523e-33	0.33744	0.75	1.203
Mof_Zn	Zn	0.5	0.16256	0.25	1.215
Mof_Zn	Zn	1.12174e-33	0.66256	0.25	1.203
_end
