data_functionalizedCrystal
_audit_creation_method	'EQeq! by Chris Wilmer'
_symmetry_space_group_name_H-M	'P1'
_symmetry_Int_Tables_number	1
_symmetry_cell_setting	triclinic
loop_
_symmetry_equiv_pos_as_xyz
  x,y,z
_cell_length_a	7.0809
_cell_length_b	38.7664
_cell_length_c	39.2286
_cell_angle_alpha	90
_cell_angle_beta	90
_cell_angle_gamma	90
loop_
_atom_site_label
_atom_site_type_symbol
_atom_site_fract_x
_atom_site_fract_y
_atom_site_fract_z
_atom_site_charge
Mof_Al	Al	0.5705	0.61913	0.49959	2.391
Mof_Cl	Cl	0.3187	0.59295	0.47543	-0.746
Mof_Cl	Cl	0.8268	0.64411	0.52467	-0.735
Mof_N 	N 	0.4503	0.66682	0.49238	-0.39
Mof_C 	C 	0.5522	0.6943	0.4826	0.124
Mof_H 	H 	0.6806	0.6909	0.4764	-0.029
Mof_C 	C 	0.4788	0.7269	0.4812	-0.152
Mof_H 	H 	0.5553	0.7457	0.474	0.077
Mof_C 	C 	0.291	0.7325	0.4905	0.072
Mof_C 	C 	0.1841	0.7041	0.4999	-0.141
Mof_H 	H 	0.0547	0.7067	0.5058	0.103
Mof_C 	C 	0.2685	0.6721	0.5005	0.11
Mof_H 	H 	0.1943	0.6528	0.5071	0.012
Mof_N 	N 	0.694	0.57166	0.50533	-0.389
Mof_C 	C 	0.7962	0.5637	0.5333	0.12
Mof_H 	H 	0.7876	0.5784	0.5526	-0.026
Mof_C 	C 	0.9114	0.5355	0.5352	-0.139
Mof_H 	H 	0.9765	0.5303	0.5557	0.07
Mof_C 	C 	0.9323	0.5144	0.5066	0.068
Mof_C 	C 	0.8197	0.5218	0.4785	-0.134
Mof_H 	H 	0.8238	0.5072	0.4591	0.088
Mof_C 	C 	0.7032	0.5499	0.4787	0.113
Mof_H 	H 	0.626	0.5542	0.4594	-0.014
Mof_N 	N 	0.6995	0.6243	0.45274	-0.385
Mof_C 	C 	0.6076	0.6355	0.425	0.117
Mof_H 	H 	0.4774	0.6411	0.4268	-0.026
Mof_C 	C 	0.6969	0.6391	0.3933	-0.144
Mof_H 	H 	0.6305	0.6484	0.3744	0.081
Mof_C 	C 	0.8821	0.6289	0.39	0.067
Mof_C 	C 	0.9762	0.6172	0.419	-0.143
Mof_H 	H 	0.1052	0.6106	0.4176	0.106
Mof_C 	C 	0.8826	0.6151	0.4495	0.106
Mof_H 	H 	0.9485	0.6069	0.469	0.011
Mof_N 	N 	0.1916	0.63299	0.29647	-0.386
Mof_C 	C 	0.0838	0.6596	0.3065	0.121
Mof_H 	H 	0.079	0.6796	0.2926	-0.021
Mof_C 	C 	0.9798	0.6592	0.3362	-0.133
Mof_H 	H 	0.903	0.6784	0.342	0.07
Mof_C 	C 	0.9878	0.6304	0.3576	0.056
Mof_C 	C 	0.1017	0.6029	0.348	-0.123
Mof_H 	H 	0.1118	0.583	0.3619	0.08
Mof_C 	C 	0.2016	0.6055	0.3172	0.102
Mof_H 	H 	0.2803	0.5867	0.3107	-0.009
Mof_Al	Al	0.5705	0.11913	0.99959	2.34
Mof_Cl	Cl	0.3187	0.09295	0.97543	-0.746
Mof_Cl	Cl	0.8268	0.14411	0.02467	-0.715
Mof_N 	N 	0.4503	0.16682	0.99238	-0.406
Mof_C 	C 	0.5522	0.1943	0.9826	0.132
Mof_H 	H 	0.6806	0.1909	0.9764	-0.035
Mof_C 	C 	0.4788	0.2269	0.9812	-0.17
Mof_H 	H 	0.5553	0.2457	0.974	0.08
Mof_C 	C 	0.291	0.2325	0.9905	0.091
Mof_C 	C 	0.1841	0.2041	0.9999	-0.22
Mof_H 	H 	0.0547	0.2067	0.0058	0.142
Mof_C 	C 	0.2685	0.1721	0.0005	0.179
Mof_H 	H 	0.1943	0.1528	0.0071	-0.005
Mof_N 	N 	0.694	0.07166	0.00533	-0.373
Mof_C 	C 	0.7962	0.0637	0.0333	0.125
Mof_H 	H 	0.7876	0.0784	0.0526	-0.026
Mof_C 	C 	0.9114	0.0355	0.0352	-0.142
Mof_H 	H 	0.9765	0.0303	0.0557	0.072
Mof_C 	C 	0.9323	0.0144	0.0066	0.085
Mof_C 	C 	0.8197	0.0218	0.9785	-0.152
Mof_H 	H 	0.8238	0.0072	0.9591	0.092
Mof_C 	C 	0.7032	0.0499	0.9787	0.103
Mof_H 	H 	0.626	0.0542	0.9594	-0.011
Mof_N 	N 	0.6995	0.1243	0.95274	-0.381
Mof_C 	C 	0.6076	0.1355	0.925	0.117
Mof_H 	H 	0.4774	0.1411	0.9268	-0.025
Mof_C 	C 	0.6969	0.1391	0.8933	-0.144
Mof_H 	H 	0.6305	0.1484	0.8744	0.081
Mof_C 	C 	0.8821	0.1289	0.89	0.067
Mof_C 	C 	0.9762	0.1172	0.919	-0.144
Mof_H 	H 	0.1052	0.1106	0.9176	0.106
Mof_C 	C 	0.8826	0.1151	0.9495	0.105
Mof_H 	H 	0.9485	0.1069	0.969	0.008
Mof_N 	N 	0.1916	0.13299	0.79647	-0.386
Mof_C 	C 	0.0838	0.1596	0.8065	0.121
Mof_H 	H 	0.079	0.1796	0.7926	-0.021
Mof_C 	C 	0.9798	0.1592	0.8362	-0.132
Mof_H 	H 	0.903	0.1784	0.842	0.07
Mof_C 	C 	0.9878	0.1304	0.8576	0.056
Mof_C 	C 	0.1017	0.1029	0.848	-0.123
Mof_H 	H 	0.1118	0.083	0.8619	0.08
Mof_C 	C 	0.2016	0.1055	0.8172	0.102
Mof_H 	H 	0.2803	0.0867	0.8107	-0.009
Mof_Al	Al	0.0705	0.61913	0.99959	2.315
Mof_Cl	Cl	0.8187	0.59295	0.97543	-0.739
Mof_Cl	Cl	0.3268	0.64411	0.02467	-0.71
Mof_N 	N 	0.9503	0.66682	0.99238	-0.387
Mof_C 	C 	0.0522	0.6943	0.9826	0.084
Mof_H 	H 	0.1806	0.6909	0.9764	-0.018
Mof_C 	C 	0.9788	0.7269	0.9812	-0.109
Mof_H 	H 	0.0553	0.7457	0.974	0.054
Mof_C 	C 	0.791	0.7325	0.9905	0.054
Mof_C 	C 	0.6841	0.7041	0.9999	-0.196
Mof_H 	H 	0.5547	0.7067	0.0058	0.13
Mof_C 	C 	0.7685	0.6721	0.0005	0.165
Mof_H 	H 	0.6943	0.6528	0.0071	-0.001
Mof_N 	N 	0.194	0.57166	0.00533	-0.371
Mof_C 	C 	0.2962	0.5637	0.0333	0.125
Mof_H 	H 	0.2876	0.5784	0.0526	-0.026
Mof_C 	C 	0.4114	0.5355	0.0352	-0.142
Mof_H 	H 	0.4765	0.5303	0.0557	0.073
Mof_C 	C 	0.4323	0.5144	0.0066	0.085
Mof_C 	C 	0.3197	0.5218	0.9785	-0.151
Mof_H 	H 	0.3238	0.5072	0.9591	0.092
Mof_C 	C 	0.2032	0.5499	0.9787	0.102
Mof_H 	H 	0.126	0.5542	0.9594	-0.011
Mof_N 	N 	0.1995	0.6243	0.95274	-0.375
Mof_C 	C 	0.1076	0.6355	0.925	0.1
Mof_H 	H 	0.9774	0.6411	0.9268	-0.014
Mof_C 	C 	0.1969	0.6391	0.8933	-0.133
Mof_H 	H 	0.1305	0.6484	0.8744	0.076
Mof_C 	C 	0.3821	0.6289	0.89	0.058
Mof_C 	C 	0.4762	0.6172	0.919	-0.131
Mof_H 	H 	0.6052	0.6106	0.9176	0.1
Mof_C 	C 	0.3826	0.6151	0.9495	0.099
Mof_H 	H 	0.4485	0.6069	0.969	0.011
Mof_N 	N 	0.6916	0.63299	0.79647	-0.387
Mof_C 	C 	0.5838	0.6596	0.8065	0.122
Mof_H 	H 	0.579	0.6796	0.7926	-0.021
Mof_C 	C 	0.4798	0.6592	0.8362	-0.135
Mof_H 	H 	0.403	0.6784	0.842	0.072
Mof_C 	C 	0.4878	0.6304	0.8576	0.062
Mof_C 	C 	0.6017	0.6029	0.848	-0.128
Mof_H 	H 	0.6118	0.583	0.8619	0.082
Mof_C 	C 	0.7016	0.6055	0.8172	0.105
Mof_H 	H 	0.7803	0.5867	0.8107	-0.01
Mof_Al	Al	0.0705	0.11913	0.49959	2.366
Mof_Cl	Cl	0.8187	0.09295	0.47543	-0.738
Mof_Cl	Cl	0.3268	0.14411	0.52467	-0.73
Mof_N 	N 	0.9503	0.16682	0.49238	-0.371
Mof_C 	C 	0.0522	0.1943	0.4826	0.075
Mof_H 	H 	0.1806	0.1909	0.4764	-0.013
Mof_C 	C 	0.9788	0.2269	0.4812	-0.09
Mof_H 	H 	0.0553	0.2457	0.474	0.051
Mof_C 	C 	0.791	0.2325	0.4905	0.035
Mof_C 	C 	0.6841	0.2041	0.4999	-0.116
Mof_H 	H 	0.5547	0.2067	0.5058	0.091
Mof_C 	C 	0.7685	0.1721	0.5005	0.095
Mof_H 	H 	0.6943	0.1528	0.5071	0.016
Mof_N 	N 	0.194	0.07166	0.50533	-0.387
Mof_C 	C 	0.2962	0.0637	0.5333	0.12
Mof_H 	H 	0.2876	0.0784	0.5526	-0.026
Mof_C 	C 	0.4114	0.0355	0.5352	-0.138
Mof_H 	H 	0.4765	0.0303	0.5557	0.071
Mof_C 	C 	0.4323	0.0144	0.5066	0.068
Mof_C 	C 	0.3197	0.0218	0.4785	-0.133
Mof_H 	H 	0.3238	0.0072	0.4591	0.088
Mof_C 	C 	0.2032	0.0499	0.4787	0.113
Mof_H 	H 	0.126	0.0542	0.4594	-0.014
Mof_N 	N 	0.1995	0.1243	0.45274	-0.379
Mof_C 	C 	0.1076	0.1355	0.425	0.1
Mof_H 	H 	0.9774	0.1411	0.4268	-0.015
Mof_C 	C 	0.1969	0.1391	0.3933	-0.133
Mof_H 	H 	0.1305	0.1484	0.3744	0.076
Mof_C 	C 	0.3821	0.1289	0.39	0.058
Mof_C 	C 	0.4762	0.1172	0.419	-0.13
Mof_H 	H 	0.6052	0.1106	0.4176	0.101
Mof_C 	C 	0.3826	0.1151	0.4495	0.1
Mof_H 	H 	0.4485	0.1069	0.469	0.014
Mof_N 	N 	0.6916	0.13299	0.29647	-0.387
Mof_C 	C 	0.5838	0.1596	0.3065	0.122
Mof_H 	H 	0.579	0.1796	0.2926	-0.021
Mof_C 	C 	0.4798	0.1592	0.3362	-0.135
Mof_H 	H 	0.403	0.1784	0.342	0.072
Mof_C 	C 	0.4878	0.1304	0.3576	0.062
Mof_C 	C 	0.6017	0.1029	0.348	-0.128
Mof_H 	H 	0.6118	0.083	0.3619	0.082
Mof_C 	C 	0.7016	0.1055	0.3172	0.105
Mof_H 	H 	0.7803	0.0867	0.3107	-0.01
Mof_Al	Al	0.4295	0.38087	0.49959	2.392
Mof_Cl	Cl	0.6813	0.40705	0.47543	-0.745
Mof_Cl	Cl	0.1732	0.35589	0.52467	-0.735
Mof_N 	N 	0.5497	0.33318	0.49238	-0.39
Mof_C 	C 	0.4478	0.3057	0.4826	0.124
Mof_H 	H 	0.3194	0.3091	0.4764	-0.029
Mof_C 	C 	0.5212	0.2731	0.4812	-0.152
Mof_H 	H 	0.4447	0.2543	0.474	0.077
Mof_C 	C 	0.709	0.2675	0.4905	0.072
Mof_C 	C 	0.8159	0.2959	0.4999	-0.141
Mof_H 	H 	0.9453	0.2933	0.5058	0.103
Mof_C 	C 	0.7315	0.3279	0.5005	0.11
Mof_H 	H 	0.8057	0.3472	0.5071	0.012
Mof_N 	N 	0.306	0.42834	0.50533	-0.389
Mof_C 	C 	0.2038	0.4363	0.5333	0.12
Mof_H 	H 	0.2124	0.4216	0.5526	-0.026
Mof_C 	C 	0.0886	0.4645	0.5352	-0.139
Mof_H 	H 	0.0235	0.4697	0.5557	0.07
Mof_C 	C 	0.0677	0.4856	0.5066	0.068
Mof_C 	C 	0.1803	0.4782	0.4785	-0.134
Mof_H 	H 	0.1762	0.4928	0.4591	0.088
Mof_C 	C 	0.2968	0.4501	0.4787	0.113
Mof_H 	H 	0.374	0.4458	0.4594	-0.014
Mof_N 	N 	0.3005	0.3757	0.45274	-0.385
Mof_C 	C 	0.3924	0.3645	0.425	0.117
Mof_H 	H 	0.5226	0.3589	0.4268	-0.026
Mof_C 	C 	0.3031	0.3609	0.3933	-0.144
Mof_H 	H 	0.3695	0.3516	0.3744	0.081
Mof_C 	C 	0.1179	0.3711	0.39	0.067
Mof_C 	C 	0.0238	0.3828	0.419	-0.143
Mof_H 	H 	0.8948	0.3894	0.4176	0.106
Mof_C 	C 	0.1174	0.3849	0.4495	0.106
Mof_H 	H 	0.0515	0.3931	0.469	0.011
Mof_N 	N 	0.8084	0.36701	0.29647	-0.386
Mof_C 	C 	0.9162	0.3404	0.3065	0.121
Mof_H 	H 	0.921	0.3204	0.2926	-0.021
Mof_C 	C 	0.0202	0.3408	0.3362	-0.133
Mof_H 	H 	0.097	0.3216	0.342	0.07
Mof_C 	C 	0.0122	0.3696	0.3576	0.056
Mof_C 	C 	0.8983	0.3971	0.348	-0.123
Mof_H 	H 	0.8882	0.417	0.3619	0.08
Mof_C 	C 	0.7984	0.3945	0.3172	0.102
Mof_H 	H 	0.7197	0.4133	0.3107	-0.009
Mof_Al	Al	0.4295	0.88087	0.99959	2.34
Mof_Cl	Cl	0.6813	0.90705	0.97543	-0.746
Mof_Cl	Cl	0.1732	0.85589	0.02467	-0.715
Mof_N 	N 	0.5497	0.83318	0.99238	-0.406
Mof_C 	C 	0.4478	0.8057	0.9826	0.132
Mof_H 	H 	0.3194	0.8091	0.9764	-0.035
Mof_C 	C 	0.5212	0.7731	0.9812	-0.17
Mof_H 	H 	0.4447	0.7543	0.974	0.08
Mof_C 	C 	0.709	0.7675	0.9905	0.091
Mof_C 	C 	0.8159	0.7959	0.9999	-0.22
Mof_H 	H 	0.9453	0.7933	0.0058	0.142
Mof_C 	C 	0.7315	0.8279	0.0005	0.179
Mof_H 	H 	0.8057	0.8472	0.0071	-0.005
Mof_N 	N 	0.306	0.92834	0.00533	-0.373
Mof_C 	C 	0.2038	0.9363	0.0333	0.125
Mof_H 	H 	0.2124	0.9216	0.0526	-0.026
Mof_C 	C 	0.0886	0.9645	0.0352	-0.142
Mof_H 	H 	0.0235	0.9697	0.0557	0.072
Mof_C 	C 	0.0677	0.9856	0.0066	0.085
Mof_C 	C 	0.1803	0.9782	0.9785	-0.152
Mof_H 	H 	0.1762	0.9928	0.9591	0.092
Mof_C 	C 	0.2968	0.9501	0.9787	0.103
Mof_H 	H 	0.374	0.9458	0.9594	-0.011
Mof_N 	N 	0.3005	0.8757	0.95274	-0.381
Mof_C 	C 	0.3924	0.8645	0.925	0.117
Mof_H 	H 	0.5226	0.8589	0.9268	-0.025
Mof_C 	C 	0.3031	0.8609	0.8933	-0.144
Mof_H 	H 	0.3695	0.8516	0.8744	0.081
Mof_C 	C 	0.1179	0.8711	0.89	0.067
Mof_C 	C 	0.0238	0.8828	0.919	-0.144
Mof_H 	H 	0.8948	0.8894	0.9176	0.106
Mof_C 	C 	0.1174	0.8849	0.9495	0.105
Mof_H 	H 	0.0515	0.8931	0.969	0.008
Mof_N 	N 	0.8084	0.86701	0.79647	-0.386
Mof_C 	C 	0.9162	0.8404	0.8065	0.121
Mof_H 	H 	0.921	0.8204	0.7926	-0.021
Mof_C 	C 	0.0202	0.8408	0.8362	-0.132
Mof_H 	H 	0.097	0.8216	0.842	0.07
Mof_C 	C 	0.0122	0.8696	0.8576	0.056
Mof_C 	C 	0.8983	0.8971	0.848	-0.123
Mof_H 	H 	0.8882	0.917	0.8619	0.08
Mof_C 	C 	0.7984	0.8945	0.8172	0.102
Mof_H 	H 	0.7197	0.9133	0.8107	-0.009
Mof_Al	Al	0.9295	0.38087	0.99959	2.315
Mof_Cl	Cl	0.1813	0.40705	0.97543	-0.739
Mof_Cl	Cl	0.6732	0.35589	0.02467	-0.71
Mof_N 	N 	0.0497	0.33318	0.99238	-0.387
Mof_C 	C 	0.9478	0.3057	0.9826	0.084
Mof_H 	H 	0.8194	0.3091	0.9764	-0.018
Mof_C 	C 	0.0212	0.2731	0.9812	-0.109
Mof_H 	H 	0.9447	0.2543	0.974	0.054
Mof_C 	C 	0.209	0.2675	0.9905	0.054
Mof_C 	C 	0.3159	0.2959	0.9999	-0.196
Mof_H 	H 	0.4453	0.2933	0.0058	0.13
Mof_C 	C 	0.2315	0.3279	0.0005	0.165
Mof_H 	H 	0.3057	0.3472	0.0071	-0.001
Mof_N 	N 	0.806	0.42834	0.00533	-0.371
Mof_C 	C 	0.7038	0.4363	0.0333	0.125
Mof_H 	H 	0.7124	0.4216	0.0526	-0.026
Mof_C 	C 	0.5886	0.4645	0.0352	-0.142
Mof_H 	H 	0.5235	0.4697	0.0557	0.073
Mof_C 	C 	0.5677	0.4856	0.0066	0.085
Mof_C 	C 	0.6803	0.4782	0.9785	-0.151
Mof_H 	H 	0.6762	0.4928	0.9591	0.092
Mof_C 	C 	0.7968	0.4501	0.9787	0.102
Mof_H 	H 	0.874	0.4458	0.9594	-0.011
Mof_N 	N 	0.8005	0.3757	0.95274	-0.375
Mof_C 	C 	0.8924	0.3645	0.925	0.1
Mof_H 	H 	0.0226	0.3589	0.9268	-0.014
Mof_C 	C 	0.8031	0.3609	0.8933	-0.133
Mof_H 	H 	0.8695	0.3516	0.8744	0.076
Mof_C 	C 	0.6179	0.3711	0.89	0.058
Mof_C 	C 	0.5238	0.3828	0.919	-0.131
Mof_H 	H 	0.3948	0.3894	0.9176	0.1
Mof_C 	C 	0.6174	0.3849	0.9495	0.099
Mof_H 	H 	0.5515	0.3931	0.969	0.011
Mof_N 	N 	0.3084	0.36701	0.79647	-0.387
Mof_C 	C 	0.4162	0.3404	0.8065	0.122
Mof_H 	H 	0.421	0.3204	0.7926	-0.021
Mof_C 	C 	0.5202	0.3408	0.8362	-0.135
Mof_H 	H 	0.597	0.3216	0.842	0.072
Mof_C 	C 	0.5122	0.3696	0.8576	0.062
Mof_C 	C 	0.3983	0.3971	0.848	-0.128
Mof_H 	H 	0.3882	0.417	0.8619	0.082
Mof_C 	C 	0.2984	0.3945	0.8172	0.105
Mof_H 	H 	0.2197	0.4133	0.8107	-0.01
Mof_Al	Al	0.9295	0.88087	0.49959	2.366
Mof_Cl	Cl	0.1813	0.90705	0.47543	-0.738
Mof_Cl	Cl	0.6732	0.85589	0.52467	-0.73
Mof_N 	N 	0.0497	0.83318	0.49238	-0.371
Mof_C 	C 	0.9478	0.8057	0.4826	0.075
Mof_H 	H 	0.8194	0.8091	0.4764	-0.013
Mof_C 	C 	0.0212	0.7731	0.4812	-0.09
Mof_H 	H 	0.9447	0.7543	0.474	0.051
Mof_C 	C 	0.209	0.7675	0.4905	0.035
Mof_C 	C 	0.3159	0.7959	0.4999	-0.116
Mof_H 	H 	0.4453	0.7933	0.5058	0.091
Mof_C 	C 	0.2315	0.8279	0.5005	0.095
Mof_H 	H 	0.3057	0.8472	0.5071	0.016
Mof_N 	N 	0.806	0.92834	0.50533	-0.387
Mof_C 	C 	0.7038	0.9363	0.5333	0.12
Mof_H 	H 	0.7124	0.9216	0.5526	-0.026
Mof_C 	C 	0.5886	0.9645	0.5352	-0.138
Mof_H 	H 	0.5235	0.9697	0.5557	0.071
Mof_C 	C 	0.5677	0.9856	0.5066	0.068
Mof_C 	C 	0.6803	0.9782	0.4785	-0.133
Mof_H 	H 	0.6762	0.9928	0.4591	0.088
Mof_C 	C 	0.7968	0.9501	0.4787	0.113
Mof_H 	H 	0.874	0.9458	0.4594	-0.014
Mof_N 	N 	0.8005	0.8757	0.45274	-0.379
Mof_C 	C 	0.8924	0.8645	0.425	0.1
Mof_H 	H 	0.0226	0.8589	0.4268	-0.015
Mof_C 	C 	0.8031	0.8609	0.3933	-0.133
Mof_H 	H 	0.8695	0.8516	0.3744	0.076
Mof_C 	C 	0.6179	0.8711	0.39	0.058
Mof_C 	C 	0.5238	0.8828	0.419	-0.13
Mof_H 	H 	0.3948	0.8894	0.4176	0.101
Mof_C 	C 	0.6174	0.8849	0.4495	0.1
Mof_H 	H 	0.5515	0.8931	0.469	0.014
Mof_N 	N 	0.3084	0.86701	0.29647	-0.387
Mof_C 	C 	0.4162	0.8404	0.3065	0.122
Mof_H 	H 	0.421	0.8204	0.2926	-0.021
Mof_C 	C 	0.5202	0.8408	0.3362	-0.135
Mof_H 	H 	0.597	0.8216	0.342	0.072
Mof_C 	C 	0.5122	0.8696	0.3576	0.062
Mof_C 	C 	0.3983	0.8971	0.348	-0.128
Mof_H 	H 	0.3882	0.917	0.3619	0.082
Mof_C 	C 	0.2984	0.8945	0.3172	0.105
Mof_H 	H 	0.2197	0.9133	0.3107	-0.01
Mof_Al	Al	0.8205	0.63087	0.74959	2.39
Mof_Cl	Cl	0.5687	0.65705	0.72543	-0.746
Mof_Cl	Cl	0.0768	0.60589	0.77467	-0.731
Mof_N 	N 	0.7003	0.58318	0.74238	-0.389
Mof_C 	C 	0.8022	0.5557	0.7326	0.12
Mof_H 	H 	0.9306	0.5591	0.7264	-0.027
Mof_C 	C 	0.7288	0.5231	0.7312	-0.144
Mof_H 	H 	0.8053	0.5043	0.724	0.075
Mof_C 	C 	0.541	0.5175	0.7405	0.059
Mof_C 	C 	0.4341	0.5459	0.7499	-0.133
Mof_H 	H 	0.3047	0.5433	0.7558	0.097
Mof_C 	C 	0.5185	0.5779	0.7505	0.106
Mof_H 	H 	0.4443	0.5972	0.7571	0.012
Mof_N 	N 	0.944	0.67834	0.75533	-0.389
Mof_C 	C 	0.0462	0.6863	0.7833	0.122
Mof_H 	H 	0.0376	0.6716	0.8026	-0.026
Mof_C 	C 	0.1614	0.7145	0.7852	-0.137
Mof_H 	H 	0.2265	0.7197	0.8057	0.07
Mof_C 	C 	0.1823	0.7356	0.7566	0.065
Mof_C 	C 	0.0697	0.7282	0.7285	-0.125
Mof_H 	H 	0.0738	0.7428	0.7091	0.087
Mof_C 	C 	0.9532	0.7001	0.7287	0.105
Mof_H 	H 	0.876	0.6958	0.7094	-0.013
Mof_N 	N 	0.9495	0.6257	0.70274	-0.388
Mof_C 	C 	0.8576	0.6145	0.675	0.12
Mof_H 	H 	0.7274	0.6089	0.6768	-0.027
Mof_C 	C 	0.9469	0.6109	0.6433	-0.152
Mof_H 	H 	0.8805	0.6016	0.6244	0.082
Mof_C 	C 	0.1321	0.6211	0.64	0.072
Mof_C 	C 	0.2262	0.6328	0.669	-0.14
Mof_H 	H 	0.3552	0.6394	0.6676	0.103
Mof_C 	C 	0.1326	0.6349	0.6995	0.11
Mof_H 	H 	0.1985	0.6431	0.719	0.011
Mof_N 	N 	0.4416	0.61701	0.54647	-0.386
Mof_C 	C 	0.3338	0.5904	0.5565	0.121
Mof_H 	H 	0.329	0.5704	0.5426	-0.02
Mof_C 	C 	0.2298	0.5908	0.5862	-0.132
Mof_H 	H 	0.153	0.5716	0.592	0.071
Mof_C 	C 	0.2378	0.6196	0.6076	0.057
Mof_C 	C 	0.3517	0.6471	0.598	-0.125
Mof_H 	H 	0.3618	0.667	0.6119	0.081
Mof_C 	C 	0.4516	0.6445	0.5672	0.103
Mof_H 	H 	0.5303	0.6633	0.5607	-0.01
Mof_Al	Al	0.8205	0.13087	0.24959	2.39
Mof_Cl	Cl	0.5687	0.15705	0.22543	-0.746
Mof_Cl	Cl	0.0768	0.10589	0.27467	-0.731
Mof_N 	N 	0.7003	0.08318	0.24238	-0.389
Mof_C 	C 	0.8022	0.0557	0.2326	0.12
Mof_H 	H 	0.9306	0.0591	0.2264	-0.027
Mof_C 	C 	0.7288	0.0231	0.2312	-0.144
Mof_H 	H 	0.8053	0.0043	0.224	0.075
Mof_C 	C 	0.541	0.0175	0.2405	0.059
Mof_C 	C 	0.4341	0.0459	0.2499	-0.133
Mof_H 	H 	0.3047	0.0433	0.2558	0.097
Mof_C 	C 	0.5185	0.0779	0.2505	0.106
Mof_H 	H 	0.4443	0.0972	0.2571	0.012
Mof_N 	N 	0.944	0.17834	0.25533	-0.389
Mof_C 	C 	0.0462	0.1863	0.2833	0.122
Mof_H 	H 	0.0376	0.1716	0.3026	-0.026
Mof_C 	C 	0.1614	0.2145	0.2852	-0.137
Mof_H 	H 	0.2265	0.2197	0.3057	0.07
Mof_C 	C 	0.1823	0.2356	0.2566	0.065
Mof_C 	C 	0.0697	0.2282	0.2285	-0.126
Mof_H 	H 	0.0738	0.2428	0.2091	0.087
Mof_C 	C 	0.9532	0.2001	0.2287	0.106
Mof_H 	H 	0.876	0.1958	0.2094	-0.013
Mof_N 	N 	0.9495	0.1257	0.20274	-0.388
Mof_C 	C 	0.8576	0.1145	0.175	0.12
Mof_H 	H 	0.7274	0.1089	0.1768	-0.027
Mof_C 	C 	0.9469	0.1109	0.1433	-0.153
Mof_H 	H 	0.8805	0.1016	0.1244	0.083
Mof_C 	C 	0.1321	0.1211	0.14	0.073
Mof_C 	C 	0.2262	0.1328	0.169	-0.14
Mof_H 	H 	0.3552	0.1394	0.1676	0.104
Mof_C 	C 	0.1326	0.1349	0.1995	0.11
Mof_H 	H 	0.1985	0.1431	0.219	0.011
Mof_N 	N 	0.4416	0.11701	0.04647	-0.377
Mof_C 	C 	0.3338	0.0904	0.0565	0.12
Mof_H 	H 	0.329	0.0704	0.0426	-0.016
Mof_C 	C 	0.2298	0.0908	0.0862	-0.13
Mof_H 	H 	0.153	0.0716	0.092	0.071
Mof_C 	C 	0.2378	0.1196	0.1076	0.056
Mof_C 	C 	0.3517	0.1471	0.098	-0.123
Mof_H 	H 	0.3618	0.167	0.1119	0.081
Mof_C 	C 	0.4516	0.1445	0.0672	0.102
Mof_H 	H 	0.5303	0.1633	0.0607	-0.007
Mof_Al	Al	0.3205	0.63087	0.24959	2.391
Mof_Cl	Cl	0.0687	0.65705	0.22543	-0.749
Mof_Cl	Cl	0.5768	0.60589	0.27467	-0.732
Mof_N 	N 	0.2003	0.58318	0.24238	-0.387
Mof_C 	C 	0.3022	0.5557	0.2326	0.118
Mof_H 	H 	0.4306	0.5591	0.2264	-0.026
Mof_C 	C 	0.2288	0.5231	0.2312	-0.142
Mof_H 	H 	0.3053	0.5043	0.224	0.074
Mof_C 	C 	0.041	0.5175	0.2405	0.056
Mof_C 	C 	0.9341	0.5459	0.2499	-0.126
Mof_H 	H 	0.8047	0.5433	0.2558	0.095
Mof_C 	C 	0.0185	0.5779	0.2505	0.097
Mof_H 	H 	0.9443	0.5972	0.2571	0.017
Mof_N 	N 	0.444	0.67834	0.25533	-0.389
Mof_C 	C 	0.5462	0.6863	0.2833	0.121
Mof_H 	H 	0.5376	0.6716	0.3026	-0.026
Mof_C 	C 	0.6614	0.7145	0.2852	-0.139
Mof_H 	H 	0.7265	0.7197	0.3057	0.071
Mof_C 	C 	0.6823	0.7356	0.2566	0.07
Mof_C 	C 	0.5697	0.7282	0.2285	-0.134
Mof_H 	H 	0.5738	0.7428	0.2091	0.089
Mof_C 	C 	0.4532	0.7001	0.2287	0.114
Mof_H 	H 	0.376	0.6958	0.2094	-0.015
Mof_N 	N 	0.4495	0.6257	0.20274	-0.384
Mof_C 	C 	0.3576	0.6145	0.175	0.116
Mof_H 	H 	0.2274	0.6089	0.1768	-0.026
Mof_C 	C 	0.4469	0.6109	0.1433	-0.14
Mof_H 	H 	0.3805	0.6016	0.1244	0.079
Mof_C 	C 	0.6321	0.6211	0.14	0.061
Mof_C 	C 	0.7262	0.6328	0.169	-0.133
Mof_H 	H 	0.8552	0.6394	0.1676	0.103
Mof_C 	C 	0.6326	0.6349	0.1995	0.102
Mof_H 	H 	0.6985	0.6431	0.219	0.014
Mof_N 	N 	0.9416	0.61701	0.04647	-0.376
Mof_C 	C 	0.8338	0.5904	0.0565	0.123
Mof_H 	H 	0.829	0.5704	0.0426	-0.016
Mof_C 	C 	0.7298	0.5908	0.0862	-0.136
Mof_H 	H 	0.653	0.5716	0.092	0.072
Mof_C 	C 	0.7378	0.6196	0.1076	0.065
Mof_C 	C 	0.8517	0.6471	0.098	-0.136
Mof_H 	H 	0.8618	0.667	0.1119	0.087
Mof_C 	C 	0.9516	0.6445	0.0672	0.124
Mof_H 	H 	0.0303	0.6633	0.0607	-0.02
Mof_Al	Al	0.3205	0.13087	0.74959	2.391
Mof_Cl	Cl	0.0687	0.15705	0.72543	-0.749
Mof_Cl	Cl	0.5768	0.10589	0.77467	-0.731
Mof_N 	N 	0.2003	0.08318	0.74238	-0.387
Mof_C 	C 	0.3022	0.0557	0.7326	0.118
Mof_H 	H 	0.4306	0.0591	0.7264	-0.026
Mof_C 	C 	0.2288	0.0231	0.7312	-0.142
Mof_H 	H 	0.3053	0.0043	0.724	0.074
Mof_C 	C 	0.041	0.0175	0.7405	0.056
Mof_C 	C 	0.9341	0.0459	0.7499	-0.126
Mof_H 	H 	0.8047	0.0433	0.7558	0.095
Mof_C 	C 	0.0185	0.0779	0.7505	0.097
Mof_H 	H 	0.9443	0.0972	0.7571	0.017
Mof_N 	N 	0.444	0.17834	0.75533	-0.389
Mof_C 	C 	0.5462	0.1863	0.7833	0.121
Mof_H 	H 	0.5376	0.1716	0.8026	-0.026
Mof_C 	C 	0.6614	0.2145	0.7852	-0.139
Mof_H 	H 	0.7265	0.2197	0.8057	0.071
Mof_C 	C 	0.6823	0.2356	0.7566	0.07
Mof_C 	C 	0.5697	0.2282	0.7285	-0.134
Mof_H 	H 	0.5738	0.2428	0.7091	0.089
Mof_C 	C 	0.4532	0.2001	0.7287	0.114
Mof_H 	H 	0.376	0.1958	0.7094	-0.015
Mof_N 	N 	0.4495	0.1257	0.70274	-0.384
Mof_C 	C 	0.3576	0.1145	0.675	0.115
Mof_H 	H 	0.2274	0.1089	0.6768	-0.026
Mof_C 	C 	0.4469	0.1109	0.6433	-0.14
Mof_H 	H 	0.3805	0.1016	0.6244	0.078
Mof_C 	C 	0.6321	0.1211	0.64	0.06
Mof_C 	C 	0.7262	0.1328	0.669	-0.133
Mof_H 	H 	0.8552	0.1394	0.6676	0.103
Mof_C 	C 	0.6326	0.1349	0.6995	0.102
Mof_H 	H 	0.6985	0.1431	0.719	0.014
Mof_N 	N 	0.9416	0.11701	0.54647	-0.385
Mof_C 	C 	0.8338	0.0904	0.5565	0.124
Mof_H 	H 	0.829	0.0704	0.5426	-0.02
Mof_C 	C 	0.7298	0.0908	0.5862	-0.138
Mof_H 	H 	0.653	0.0716	0.592	0.073
Mof_C 	C 	0.7378	0.1196	0.6076	0.065
Mof_C 	C 	0.8517	0.1471	0.598	-0.137
Mof_H 	H 	0.8618	0.167	0.6119	0.087
Mof_C 	C 	0.9516	0.1445	0.5672	0.125
Mof_H 	H 	0.0303	0.1633	0.5607	-0.023
Mof_Al	Al	0.6795	0.86913	0.74959	2.391
Mof_Cl	Cl	0.9313	0.84295	0.72543	-0.749
Mof_Cl	Cl	0.4232	0.89411	0.77467	-0.731
Mof_N 	N 	0.7997	0.91682	0.74238	-0.387
Mof_C 	C 	0.6978	0.9443	0.7326	0.118
Mof_H 	H 	0.5694	0.9409	0.7264	-0.026
Mof_C 	C 	0.7712	0.9769	0.7312	-0.142
Mof_H 	H 	0.6947	0.9957	0.724	0.074
Mof_C 	C 	0.959	0.9825	0.7405	0.056
Mof_C 	C 	0.0659	0.9541	0.7499	-0.126
Mof_H 	H 	0.1953	0.9567	0.7558	0.095
Mof_C 	C 	0.9815	0.9221	0.7505	0.097
Mof_H 	H 	0.0557	0.9028	0.7571	0.017
Mof_N 	N 	0.556	0.82166	0.75533	-0.389
Mof_C 	C 	0.4538	0.8137	0.7833	0.121
Mof_H 	H 	0.4624	0.8284	0.8026	-0.026
Mof_C 	C 	0.3386	0.7855	0.7852	-0.139
Mof_H 	H 	0.2735	0.7803	0.8057	0.071
Mof_C 	C 	0.3177	0.7644	0.7566	0.07
Mof_C 	C 	0.4303	0.7718	0.7285	-0.134
Mof_H 	H 	0.4262	0.7572	0.7091	0.089
Mof_C 	C 	0.5468	0.7999	0.7287	0.114
Mof_H 	H 	0.624	0.8042	0.7094	-0.015
Mof_N 	N 	0.5505	0.8743	0.70274	-0.384
Mof_C 	C 	0.6424	0.8855	0.675	0.115
Mof_H 	H 	0.7726	0.8911	0.6768	-0.026
Mof_C 	C 	0.5531	0.8891	0.6433	-0.14
Mof_H 	H 	0.6195	0.8984	0.6244	0.078
Mof_C 	C 	0.3679	0.8789	0.64	0.06
Mof_C 	C 	0.2738	0.8672	0.669	-0.133
Mof_H 	H 	0.1448	0.8606	0.6676	0.103
Mof_C 	C 	0.3674	0.8651	0.6995	0.102
Mof_H 	H 	0.3015	0.8569	0.719	0.014
Mof_N 	N 	0.0584	0.88299	0.54647	-0.385
Mof_C 	C 	0.1662	0.9096	0.5565	0.124
Mof_H 	H 	0.171	0.9296	0.5426	-0.02
Mof_C 	C 	0.2702	0.9092	0.5862	-0.138
Mof_H 	H 	0.347	0.9284	0.592	0.073
Mof_C 	C 	0.2622	0.8804	0.6076	0.065
Mof_C 	C 	0.1483	0.8529	0.598	-0.137
Mof_H 	H 	0.1382	0.833	0.6119	0.087
Mof_C 	C 	0.0484	0.8555	0.5672	0.125
Mof_H 	H 	0.9697	0.8367	0.5607	-0.023
Mof_Al	Al	0.6795	0.36913	0.24959	2.391
Mof_Cl	Cl	0.9313	0.34295	0.22543	-0.749
Mof_Cl	Cl	0.4232	0.39411	0.27467	-0.732
Mof_N 	N 	0.7997	0.41682	0.24238	-0.387
Mof_C 	C 	0.6978	0.4443	0.2326	0.118
Mof_H 	H 	0.5694	0.4409	0.2264	-0.026
Mof_C 	C 	0.7712	0.4769	0.2312	-0.142
Mof_H 	H 	0.6947	0.4957	0.224	0.074
Mof_C 	C 	0.959	0.4825	0.2405	0.056
Mof_C 	C 	0.0659	0.4541	0.2499	-0.126
Mof_H 	H 	0.1953	0.4567	0.2558	0.095
Mof_C 	C 	0.9815	0.4221	0.2505	0.097
Mof_H 	H 	0.0557	0.4028	0.2571	0.017
Mof_N 	N 	0.556	0.32166	0.25533	-0.389
Mof_C 	C 	0.4538	0.3137	0.2833	0.121
Mof_H 	H 	0.4624	0.3284	0.3026	-0.026
Mof_C 	C 	0.3386	0.2855	0.2852	-0.139
Mof_H 	H 	0.2735	0.2803	0.3057	0.071
Mof_C 	C 	0.3177	0.2644	0.2566	0.07
Mof_C 	C 	0.4303	0.2718	0.2285	-0.134
Mof_H 	H 	0.4262	0.2572	0.2091	0.089
Mof_C 	C 	0.5468	0.2999	0.2287	0.114
Mof_H 	H 	0.624	0.3042	0.2094	-0.015
Mof_N 	N 	0.5505	0.3743	0.20274	-0.384
Mof_C 	C 	0.6424	0.3855	0.175	0.116
Mof_H 	H 	0.7726	0.3911	0.1768	-0.026
Mof_C 	C 	0.5531	0.3891	0.1433	-0.14
Mof_H 	H 	0.6195	0.3984	0.1244	0.079
Mof_C 	C 	0.3679	0.3789	0.14	0.061
Mof_C 	C 	0.2738	0.3672	0.169	-0.133
Mof_H 	H 	0.1448	0.3606	0.1676	0.103
Mof_C 	C 	0.3674	0.3651	0.1995	0.102
Mof_H 	H 	0.3015	0.3569	0.219	0.014
Mof_N 	N 	0.0584	0.38299	0.04647	-0.376
Mof_C 	C 	0.1662	0.4096	0.0565	0.123
Mof_H 	H 	0.171	0.4296	0.0426	-0.016
Mof_C 	C 	0.2702	0.4092	0.0862	-0.136
Mof_H 	H 	0.347	0.4284	0.092	0.072
Mof_C 	C 	0.2622	0.3804	0.1076	0.065
Mof_C 	C 	0.1483	0.3529	0.098	-0.136
Mof_H 	H 	0.1382	0.333	0.1119	0.087
Mof_C 	C 	0.0484	0.3555	0.0672	0.124
Mof_H 	H 	0.9697	0.3367	0.0607	-0.02
Mof_Al	Al	0.1795	0.86913	0.24959	2.39
Mof_Cl	Cl	0.4313	0.84295	0.22543	-0.746
Mof_Cl	Cl	0.9232	0.89411	0.27467	-0.731
Mof_N 	N 	0.2997	0.91682	0.24238	-0.389
Mof_C 	C 	0.1978	0.9443	0.2326	0.12
Mof_H 	H 	0.0694	0.9409	0.2264	-0.027
Mof_C 	C 	0.2712	0.9769	0.2312	-0.144
Mof_H 	H 	0.1947	0.9957	0.224	0.075
Mof_C 	C 	0.459	0.9825	0.2405	0.059
Mof_C 	C 	0.5659	0.9541	0.2499	-0.133
Mof_H 	H 	0.6953	0.9567	0.2558	0.097
Mof_C 	C 	0.4815	0.9221	0.2505	0.106
Mof_H 	H 	0.5557	0.9028	0.2571	0.012
Mof_N 	N 	0.056	0.82166	0.25533	-0.389
Mof_C 	C 	0.9538	0.8137	0.2833	0.122
Mof_H 	H 	0.9624	0.8284	0.3026	-0.026
Mof_C 	C 	0.8386	0.7855	0.2852	-0.137
Mof_H 	H 	0.7735	0.7803	0.3057	0.07
Mof_C 	C 	0.8177	0.7644	0.2566	0.065
Mof_C 	C 	0.9303	0.7718	0.2285	-0.126
Mof_H 	H 	0.9262	0.7572	0.2091	0.087
Mof_C 	C 	0.0468	0.7999	0.2287	0.106
Mof_H 	H 	0.124	0.8042	0.2094	-0.013
Mof_N 	N 	0.0505	0.8743	0.20274	-0.388
Mof_C 	C 	0.1424	0.8855	0.175	0.12
Mof_H 	H 	0.2726	0.8911	0.1768	-0.027
Mof_C 	C 	0.0531	0.8891	0.1433	-0.153
Mof_H 	H 	0.1195	0.8984	0.1244	0.083
Mof_C 	C 	0.8679	0.8789	0.14	0.073
Mof_C 	C 	0.7738	0.8672	0.169	-0.14
Mof_H 	H 	0.6448	0.8606	0.1676	0.104
Mof_C 	C 	0.8674	0.8651	0.1995	0.11
Mof_H 	H 	0.8015	0.8569	0.219	0.011
Mof_N 	N 	0.5584	0.88299	0.04647	-0.377
Mof_C 	C 	0.6662	0.9096	0.0565	0.12
Mof_H 	H 	0.671	0.9296	0.0426	-0.016
Mof_C 	C 	0.7702	0.9092	0.0862	-0.13
Mof_H 	H 	0.847	0.9284	0.092	0.071
Mof_C 	C 	0.7622	0.8804	0.1076	0.056
Mof_C 	C 	0.6483	0.8529	0.098	-0.123
Mof_H 	H 	0.6382	0.833	0.1119	0.081
Mof_C 	C 	0.5484	0.8555	0.0672	0.102
Mof_H 	H 	0.4697	0.8367	0.0607	-0.007
Mof_Al	Al	0.1795	0.36913	0.74959	2.39
Mof_Cl	Cl	0.4313	0.34295	0.72543	-0.746
Mof_Cl	Cl	0.9232	0.39411	0.77467	-0.731
Mof_N 	N 	0.2997	0.41682	0.74238	-0.389
Mof_C 	C 	0.1978	0.4443	0.7326	0.12
Mof_H 	H 	0.0694	0.4409	0.7264	-0.027
Mof_C 	C 	0.2712	0.4769	0.7312	-0.144
Mof_H 	H 	0.1947	0.4957	0.724	0.075
Mof_C 	C 	0.459	0.4825	0.7405	0.059
Mof_C 	C 	0.5659	0.4541	0.7499	-0.133
Mof_H 	H 	0.6953	0.4567	0.7558	0.097
Mof_C 	C 	0.4815	0.4221	0.7505	0.106
Mof_H 	H 	0.5557	0.4028	0.7571	0.012
Mof_N 	N 	0.056	0.32166	0.75533	-0.389
Mof_C 	C 	0.9538	0.3137	0.7833	0.122
Mof_H 	H 	0.9624	0.3284	0.8026	-0.026
Mof_C 	C 	0.8386	0.2855	0.7852	-0.137
Mof_H 	H 	0.7735	0.2803	0.8057	0.07
Mof_C 	C 	0.8177	0.2644	0.7566	0.065
Mof_C 	C 	0.9303	0.2718	0.7285	-0.125
Mof_H 	H 	0.9262	0.2572	0.7091	0.087
Mof_C 	C 	0.0468	0.2999	0.7287	0.105
Mof_H 	H 	0.124	0.3042	0.7094	-0.013
Mof_N 	N 	0.0505	0.3743	0.70274	-0.388
Mof_C 	C 	0.1424	0.3855	0.675	0.12
Mof_H 	H 	0.2726	0.3911	0.6768	-0.027
Mof_C 	C 	0.0531	0.3891	0.6433	-0.152
Mof_H 	H 	0.1195	0.3984	0.6244	0.082
Mof_C 	C 	0.8679	0.3789	0.64	0.072
Mof_C 	C 	0.7738	0.3672	0.669	-0.14
Mof_H 	H 	0.6448	0.3606	0.6676	0.103
Mof_C 	C 	0.8674	0.3651	0.6995	0.11
Mof_H 	H 	0.8015	0.3569	0.719	0.011
Mof_N 	N 	0.5584	0.38299	0.54647	-0.386
Mof_C 	C 	0.6662	0.4096	0.5565	0.121
Mof_H 	H 	0.671	0.4296	0.5426	-0.02
Mof_C 	C 	0.7702	0.4092	0.5862	-0.132
Mof_H 	H 	0.847	0.4284	0.592	0.071
Mof_C 	C 	0.7622	0.3804	0.6076	0.057
Mof_C 	C 	0.6483	0.3529	0.598	-0.125
Mof_H 	H 	0.6382	0.333	0.6119	0.081
Mof_C 	C 	0.5484	0.3555	0.5672	0.103
Mof_H 	H 	0.4697	0.3367	0.5607	-0.01
_end
