data_functionalizedCrystal
_audit_creation_method	'EQeq! by Chris Wilmer'
_symmetry_space_group_name_H-M	'P1'
_symmetry_Int_Tables_number	1
_symmetry_cell_setting	triclinic
loop_
_symmetry_equiv_pos_as_xyz
  x,y,z
_cell_length_a	21.5373
_cell_length_b	21.5373
_cell_length_c	8.8753
_cell_angle_alpha	90
_cell_angle_beta	90
_cell_angle_gamma	120
loop_
_atom_site_label
_atom_site_type_symbol
_atom_site_fract_x
_atom_site_fract_y
_atom_site_fract_z
_atom_site_charge
Mof_Cu	Cu	0.2968	0.17445	0.46447	0.876
Mof_C 	C 	0.26583	0.00983	0.75	0.193
Mof_C 	C 	0.24627	0.03249	0.5304	-0.002
Mof_C 	C 	0.21595	0.03069	0.3796	0.274
Mof_N 	N 	0.30355	0.08123	0.7343	-0.219
Mof_N 	N 	0.26587	0.97481	0.8773	-0.329
Mof_H 	H 	0.2911	0.9986	0.9537	0.142
Mof_H 	H 	0.2407	0.9288	0.8815	0.136
Mof_N 	N 	0.29009	0.09467	0.5901	-0.18
Mof_N 	N 	0.23016	0.97703	0.6235	-0.229
Mof_O 	O 	0.23797	0.09324	0.3251	-0.377
Mof_O 	O 	0.17315	0.97309	0.3221	-0.287
Mof_Cu	Cu	0.96347	0.50779	0.7978	0.876
Mof_C 	C 	0.9325	0.34316	0.08333	0.201
Mof_C 	C 	0.91294	0.36582	0.86373	-0.001
Mof_C 	C 	0.88262	0.36402	0.71293	0.273
Mof_N 	N 	0.97022	0.41456	0.06763	-0.218
Mof_N 	N 	0.93254	0.30814	0.21063	-0.331
Mof_H 	H 	0.95777	0.33193	0.28703	0.141
Mof_H 	H 	0.90737	0.26213	0.21483	0.136
Mof_N 	N 	0.95676	0.428	0.92343	-0.182
Mof_N 	N 	0.89683	0.31036	0.95683	-0.233
Mof_O 	O 	0.90464	0.42657	0.65843	-0.377
Mof_O 	O 	0.83982	0.30642	0.65543	-0.285
Mof_Cu	Cu	0.63013	0.84112	0.13114	0.876
Mof_C 	C 	0.59916	0.6765	0.41667	0.197
Mof_C 	C 	0.5796	0.69916	0.19707	0.001
Mof_C 	C 	0.54928	0.69736	0.04627	0.269
Mof_N 	N 	0.63688	0.7479	0.40097	-0.22
Mof_N 	N 	0.5992	0.64148	0.54397	-0.33
Mof_H 	H 	0.62443	0.66527	0.62037	0.14
Mof_H 	H 	0.57403	0.59547	0.54817	0.135
Mof_N 	N 	0.62342	0.76134	0.25677	-0.18
Mof_N 	N 	0.56349	0.6437	0.29017	-0.23
Mof_O 	O 	0.5713	0.75991	0.99177	-0.374
Mof_O 	O 	0.50648	0.63976	0.98877	-0.283
Mof_Cu	Cu	0.82555	0.12235	0.46447	0.877
Mof_C 	C 	0.99017	0.256	0.75	0.194
Mof_C 	C 	0.96751	0.21378	0.5304	-0.001
Mof_C 	C 	0.96931	0.18526	0.3796	0.275
Mof_N 	N 	0.91877	0.22232	0.7343	-0.22
Mof_N 	N 	0.02519	0.29106	0.8773	-0.329
Mof_H 	H 	0.0014	0.2925	0.9537	0.141
Mof_H 	H 	0.0712	0.3119	0.8815	0.135
Mof_N 	N 	0.90533	0.19542	0.5901	-0.18
Mof_N 	N 	0.02297	0.25313	0.6235	-0.229
Mof_O 	O 	0.90676	0.14473	0.3251	-0.377
Mof_O 	O 	0.02691	0.20006	0.3221	-0.286
Mof_Cu	Cu	0.49221	0.45568	0.7978	0.877
Mof_C 	C 	0.65684	0.58933	0.08333	0.198
Mof_C 	C 	0.63418	0.54711	0.86373	-0.001
Mof_C 	C 	0.63598	0.51859	0.71293	0.273
Mof_N 	N 	0.58544	0.55565	0.06763	-0.22
Mof_N 	N 	0.69186	0.62439	0.21063	-0.331
Mof_H 	H 	0.66807	0.62583	0.28703	0.14
Mof_H 	H 	0.73787	0.64523	0.21483	0.135
Mof_N 	N 	0.572	0.52875	0.92343	-0.18
Mof_N 	N 	0.68964	0.58646	0.95683	-0.231
Mof_O 	O 	0.57343	0.47806	0.65843	-0.377
Mof_O 	O 	0.69358	0.53339	0.65543	-0.285
Mof_Cu	Cu	0.15888	0.78901	0.13114	0.875
Mof_C 	C 	0.3235	0.92267	0.41667	0.197
Mof_C 	C 	0.30084	0.88045	0.19707	0.002
Mof_C 	C 	0.30264	0.85193	0.04627	0.261
Mof_N 	N 	0.2521	0.88899	0.40097	-0.22
Mof_N 	N 	0.35852	0.95773	0.54397	-0.331
Mof_H 	H 	0.33473	0.95917	0.62037	0.141
Mof_H 	H 	0.40453	0.97857	0.54817	0.136
Mof_N 	N 	0.23866	0.86209	0.25677	-0.181
Mof_N 	N 	0.3563	0.9198	0.29017	-0.231
Mof_O 	O 	0.24009	0.8114	0.99177	-0.37
Mof_O 	O 	0.36024	0.86673	0.98877	-0.278
Mof_Cu	Cu	0.87765	0.7032	0.46447	0.877
Mof_C 	C 	0.744	0.73417	0.75	0.197
Mof_C 	C 	0.78622	0.75373	0.5304	-0
Mof_C 	C 	0.81474	0.78405	0.3796	0.273
Mof_N 	N 	0.77768	0.69645	0.7343	-0.22
Mof_N 	N 	0.70894	0.73413	0.8773	-0.33
Mof_H 	H 	0.7075	0.7089	0.9537	0.14
Mof_H 	H 	0.6881	0.7593	0.8815	0.135
Mof_N 	N 	0.80458	0.70991	0.5901	-0.18
Mof_N 	N 	0.74687	0.76984	0.6235	-0.23
Mof_O 	O 	0.85527	0.76203	0.3251	-0.377
Mof_O 	O 	0.79994	0.82685	0.3221	-0.285
Mof_Cu	Cu	0.54432	0.03653	0.7978	0.876
Mof_C 	C 	0.41067	0.0675	0.08333	0.199
Mof_C 	C 	0.45289	0.08706	0.86373	-0.001
Mof_C 	C 	0.48141	0.11738	0.71293	0.273
Mof_N 	N 	0.44435	0.02978	0.06763	-0.218
Mof_N 	N 	0.37561	0.06746	0.21063	-0.331
Mof_H 	H 	0.37417	0.04223	0.28703	0.141
Mof_H 	H 	0.35477	0.09263	0.21483	0.136
Mof_N 	N 	0.47125	0.04324	0.92343	-0.182
Mof_N 	N 	0.41354	0.10317	0.95683	-0.232
Mof_O 	O 	0.52194	0.09536	0.65843	-0.377
Mof_O 	O 	0.46661	0.16018	0.65543	-0.285
Mof_Cu	Cu	0.21099	0.36987	0.13114	0.876
Mof_C 	C 	0.07733	0.40084	0.41667	0.197
Mof_C 	C 	0.11955	0.4204	0.19707	0.001
Mof_C 	C 	0.14807	0.45072	0.04627	0.266
Mof_N 	N 	0.11101	0.36312	0.40097	-0.22
Mof_N 	N 	0.04227	0.4008	0.54397	-0.331
Mof_H 	H 	0.04083	0.37557	0.62037	0.141
Mof_H 	H 	0.02143	0.42597	0.54817	0.136
Mof_N 	N 	0.13791	0.37658	0.25677	-0.181
Mof_N 	N 	0.0802	0.43651	0.29017	-0.231
Mof_O 	O 	0.1886	0.4287	0.99177	-0.373
Mof_O 	O 	0.13327	0.49352	0.98877	-0.28
Mof_Cu	Cu	0.7032	0.82555	0.53553	0.877
Mof_C 	C 	0.73417	0.99017	0.25	0.194
Mof_C 	C 	0.75373	0.96751	0.4696	-0.001
Mof_C 	C 	0.78405	0.96931	0.6204	0.275
Mof_N 	N 	0.69645	0.91877	0.2657	-0.219
Mof_N 	N 	0.73413	0.02519	0.1227	-0.329
Mof_H 	H 	0.7089	0.0014	0.0463	0.142
Mof_H 	H 	0.7593	0.0712	0.1185	0.136
Mof_N 	N 	0.70991	0.90533	0.4099	-0.18
Mof_N 	N 	0.76984	0.02297	0.3765	-0.229
Mof_O 	O 	0.76203	0.90676	0.6749	-0.377
Mof_O 	O 	0.82685	0.02691	0.6779	-0.287
Mof_Cu	Cu	0.36987	0.15888	0.86886	0.876
Mof_C 	C 	0.40084	0.3235	0.58333	0.197
Mof_C 	C 	0.4204	0.30084	0.80293	0.001
Mof_C 	C 	0.45072	0.30264	0.95373	0.269
Mof_N 	N 	0.36312	0.2521	0.59903	-0.22
Mof_N 	N 	0.4008	0.35852	0.45603	-0.33
Mof_H 	H 	0.37557	0.33473	0.37963	0.14
Mof_H 	H 	0.42597	0.40453	0.45183	0.135
Mof_N 	N 	0.37658	0.23866	0.74323	-0.18
Mof_N 	N 	0.43651	0.3563	0.70983	-0.23
Mof_O 	O 	0.4287	0.24009	0.00823	-0.374
Mof_O 	O 	0.49352	0.36024	0.01123	-0.283
Mof_Cu	Cu	0.03653	0.49221	0.2022	0.876
Mof_C 	C 	0.0675	0.65684	0.91667	0.201
Mof_C 	C 	0.08706	0.63418	0.13627	-0.001
Mof_C 	C 	0.11738	0.63598	0.28707	0.273
Mof_N 	N 	0.02978	0.58544	0.93237	-0.218
Mof_N 	N 	0.06746	0.69186	0.78937	-0.331
Mof_H 	H 	0.04223	0.66807	0.71297	0.141
Mof_H 	H 	0.09263	0.73787	0.78517	0.136
Mof_N 	N 	0.04324	0.572	0.07657	-0.182
Mof_N 	N 	0.10317	0.68964	0.04317	-0.233
Mof_O 	O 	0.09536	0.57343	0.34157	-0.377
Mof_O 	O 	0.16018	0.69358	0.34457	-0.285
Mof_Cu	Cu	0.17445	0.87765	0.53553	0.877
Mof_C 	C 	0.00983	0.744	0.25	0.194
Mof_C 	C 	0.03249	0.78622	0.4696	-0.001
Mof_C 	C 	0.03069	0.81474	0.6204	0.275
Mof_N 	N 	0.08123	0.77768	0.2657	-0.22
Mof_N 	N 	0.97481	0.70894	0.1227	-0.329
Mof_H 	H 	0.9986	0.7075	0.0463	0.141
Mof_H 	H 	0.9288	0.6881	0.1185	0.135
Mof_N 	N 	0.09467	0.80458	0.4099	-0.18
Mof_N 	N 	0.97703	0.74687	0.3765	-0.229
Mof_O 	O 	0.09324	0.85527	0.6749	-0.377
Mof_O 	O 	0.97309	0.79994	0.6779	-0.286
Mof_Cu	Cu	0.84112	0.21099	0.86886	0.875
Mof_C 	C 	0.6765	0.07733	0.58333	0.197
Mof_C 	C 	0.69916	0.11955	0.80293	0.002
Mof_C 	C 	0.69736	0.14807	0.95373	0.261
Mof_N 	N 	0.7479	0.11101	0.59903	-0.22
Mof_N 	N 	0.64148	0.04227	0.45603	-0.331
Mof_H 	H 	0.66527	0.04083	0.37963	0.141
Mof_H 	H 	0.59547	0.02143	0.45183	0.136
Mof_N 	N 	0.76134	0.13791	0.74323	-0.181
Mof_N 	N 	0.6437	0.0802	0.70983	-0.231
Mof_O 	O 	0.75991	0.1886	0.00823	-0.37
Mof_O 	O 	0.63976	0.13327	0.01123	-0.278
Mof_Cu	Cu	0.50779	0.54432	0.2022	0.877
Mof_C 	C 	0.34316	0.41067	0.91667	0.198
Mof_C 	C 	0.36582	0.45289	0.13627	-0.001
Mof_C 	C 	0.36402	0.48141	0.28707	0.273
Mof_N 	N 	0.41456	0.44435	0.93237	-0.22
Mof_N 	N 	0.30814	0.37561	0.78937	-0.331
Mof_H 	H 	0.33193	0.37417	0.71297	0.14
Mof_H 	H 	0.26213	0.35477	0.78517	0.135
Mof_N 	N 	0.428	0.47125	0.07657	-0.18
Mof_N 	N 	0.31036	0.41354	0.04317	-0.231
Mof_O 	O 	0.42657	0.52194	0.34157	-0.377
Mof_O 	O 	0.30642	0.46661	0.34457	-0.285
Mof_Cu	Cu	0.12235	0.2968	0.53553	0.877
Mof_C 	C 	0.256	0.26583	0.25	0.197
Mof_C 	C 	0.21378	0.24627	0.4696	-0
Mof_C 	C 	0.18526	0.21595	0.6204	0.273
Mof_N 	N 	0.22232	0.30355	0.2657	-0.22
Mof_N 	N 	0.29106	0.26587	0.1227	-0.33
Mof_H 	H 	0.2925	0.2911	0.0463	0.14
Mof_H 	H 	0.3119	0.2407	0.1185	0.135
Mof_N 	N 	0.19542	0.29009	0.4099	-0.18
Mof_N 	N 	0.25313	0.23016	0.3765	-0.23
Mof_O 	O 	0.14473	0.23797	0.6749	-0.377
Mof_O 	O 	0.20006	0.17315	0.6779	-0.285
Mof_Cu	Cu	0.78901	0.63013	0.86886	0.876
Mof_C 	C 	0.92267	0.59916	0.58333	0.197
Mof_C 	C 	0.88045	0.5796	0.80293	0.001
Mof_C 	C 	0.85193	0.54928	0.95373	0.266
Mof_N 	N 	0.88899	0.63688	0.59903	-0.22
Mof_N 	N 	0.95773	0.5992	0.45603	-0.331
Mof_H 	H 	0.95917	0.62443	0.37963	0.141
Mof_H 	H 	0.97857	0.57403	0.45183	0.136
Mof_N 	N 	0.86209	0.62342	0.74323	-0.181
Mof_N 	N 	0.9198	0.56349	0.70983	-0.231
Mof_O 	O 	0.8114	0.5713	0.00823	-0.373
Mof_O 	O 	0.86673	0.50648	0.01123	-0.28
Mof_Cu	Cu	0.45568	0.96347	0.2022	0.876
Mof_C 	C 	0.58933	0.9325	0.91667	0.199
Mof_C 	C 	0.54711	0.91294	0.13627	-0.001
Mof_C 	C 	0.51859	0.88262	0.28707	0.273
Mof_N 	N 	0.55565	0.97022	0.93237	-0.218
Mof_N 	N 	0.62439	0.93254	0.78937	-0.331
Mof_H 	H 	0.62583	0.95777	0.71297	0.141
Mof_H 	H 	0.64523	0.90737	0.78517	0.136
Mof_N 	N 	0.52875	0.95676	0.07657	-0.182
Mof_N 	N 	0.58646	0.89683	0.04317	-0.232
Mof_O 	O 	0.47806	0.90464	0.34157	-0.377
Mof_O 	O 	0.53339	0.83982	0.34457	-0.285
_end
