data_functionalizedCrystal
_audit_creation_method	'EQeq! by Chris Wilmer'
_symmetry_space_group_name_H-M	'P1'
_symmetry_Int_Tables_number	1
_symmetry_cell_setting	triclinic
loop_
_symmetry_equiv_pos_as_xyz
  x,y,z
_cell_length_a	4.9748
_cell_length_b	37.2189
_cell_length_c	16.0246
_cell_angle_alpha	90
_cell_angle_beta	92.582
_cell_angle_gamma	90
loop_
_atom_site_label
_atom_site_type_symbol
_atom_site_fract_x
_atom_site_fract_y
_atom_site_fract_z
_atom_site_charge
Mof_Li	Li	0.7988	0.47669	0.5144	4.5
Mof_C 	C 	0.2108	0.30274	0.77723	0.217
Mof_N 	N 	0.4162	0.31275	0.82727	-0.186
Mof_C 	C 	0.542	0.28546	0.86873	0.198
Mof_N 	N 	0.4861	0.25034	0.86144	-0.178
Mof_C 	C 	0.2693	0.24384	0.81104	0.217
Mof_N 	N 	0.1193	0.26849	0.7692	-0.186
Mof_N 	N 	0.0715	0.32681	0.72844	-0.265
Mof_H 	H 	0.9066	0.3204	0.7128	0.146
Mof_O 	O 	0.1746	0.47757	0.54413	-2.292
Mof_O 	O 	0.5729	0.47672	0.61208	-1.404
Mof_C 	C 	0.3439	0.46274	0.59323	1.096
Mof_C 	C 	0.2796	0.42714	0.62998	-0.688
Mof_C 	C 	0.4311	0.41348	0.69733	0.445
Mof_H 	H 	0.5797	0.4269	0.7199	-0.145
Mof_C 	C 	0.3694	0.38042	0.73262	-0.448
Mof_H 	H 	0.4745	0.3715	0.7791	0.183
Mof_C 	C 	0.1534	0.36056	0.69947	0.351
Mof_C 	C 	0.0031	0.37404	0.63079	-0.441
Mof_H 	H 	0.8557	0.3606	0.6076	0.171
Mof_C 	C 	0.0669	0.40681	0.5963	0.507
Mof_H 	H 	0.9644	0.4155	0.5491	-0.359
Mof_N 	N 	0.7456	0.29738	0.92128	-0.239
Mof_H 	H 	0.7635	0.3209	0.9219	0.123
Mof_O 	O 	0.7041	0.25683	0.17621	-0.474
Mof_H 	H 	0.8259	0.246	0.2041	0.27
Mof_O 	O 	0.6024	0.20102	0.13329	-0.31
Mof_C 	C 	0.5587	0.23341	0.13177	0.393
Mof_C 	C 	0.3367	0.24979	0.07956	-0.163
Mof_C 	C 	0.1544	0.22785	0.03473	0.129
Mof_H 	H 	0.1687	0.2025	0.0402	0.006
Mof_C 	C 	0.9532	0.24227	0.9825	-0.207
Mof_H 	H 	0.8308	0.2269	0.9525	0.106
Mof_C 	C 	0.9313	0.27955	0.97424	0.173
Mof_C 	C 	0.1115	0.30185	0.02055	-0.167
Mof_H 	H 	0.0959	0.3272	0.0161	0.086
Mof_C 	C 	0.3108	0.28695	0.07234	0.102
Mof_H 	H 	0.4315	0.3022	0.1034	0.013
Mof_N 	N 	0.1788	0.20972	0.79629	-0.272
Mof_H 	H 	0.0314	0.2089	0.7639	0.154
Mof_O 	O 	0.6552	0.06148	0.94496	-1.378
Mof_O 	O 	0.3498	0.04327	0.84834	-0.665
Mof_H 	H 	0.3923	0.0229	0.8674	0.152
Mof_C 	C 	0.4853	0.06819	0.89053	0.825
Mof_C 	C 	0.4099	0.10537	0.86575	-0.473
Mof_C 	C 	0.216	0.11215	0.8049	0.329
Mof_H 	H 	0.1269	0.0927	0.777	-0.089
Mof_C 	C 	0.1478	0.14703	0.7834	-0.381
Mof_H 	H 	0.0121	0.1511	0.7408	0.16
Mof_C 	C 	0.2716	0.17584	0.82194	0.329
Mof_C 	C 	0.4585	0.16925	0.8847	-0.385
Mof_H 	H 	0.5419	0.1887	0.9141	0.167
Mof_C 	C 	0.5277	0.13424	0.9059	0.337
Mof_H 	H 	0.6602	0.1302	0.9495	-0.086
Mof_Li	Li	0.2012	0.97669	0.9856	4.486
Mof_C 	C 	0.7892	0.80274	0.72277	0.219
Mof_N 	N 	0.5838	0.81275	0.67273	-0.185
Mof_C 	C 	0.458	0.78546	0.63127	0.198
Mof_N 	N 	0.5139	0.75034	0.63856	-0.177
Mof_C 	C 	0.7307	0.74384	0.68896	0.218
Mof_N 	N 	0.8807	0.76849	0.7308	-0.185
Mof_N 	N 	0.9285	0.82681	0.77156	-0.262
Mof_H 	H 	0.0934	0.8204	0.7872	0.143
Mof_O 	O 	0.8254	0.97757	0.95587	-2.284
Mof_O 	O 	0.4271	0.97672	0.88792	-1.401
Mof_C 	C 	0.6561	0.96274	0.90677	1.094
Mof_C 	C 	0.7204	0.92714	0.87002	-0.688
Mof_C 	C 	0.5689	0.91348	0.80267	0.444
Mof_H 	H 	0.4203	0.9269	0.7801	-0.146
Mof_C 	C 	0.6306	0.88042	0.76738	-0.447
Mof_H 	H 	0.5255	0.8715	0.7209	0.183
Mof_C 	C 	0.8466	0.86056	0.80053	0.35
Mof_C 	C 	0.9969	0.87404	0.86921	-0.436
Mof_H 	H 	0.1443	0.8606	0.8924	0.167
Mof_C 	C 	0.9331	0.90681	0.9037	0.51
Mof_H 	H 	0.0356	0.9155	0.9509	-0.362
Mof_N 	N 	0.2544	0.79738	0.57872	-0.239
Mof_H 	H 	0.2365	0.8209	0.5781	0.122
Mof_O 	O 	0.2959	0.75683	0.32379	-0.474
Mof_H 	H 	0.1741	0.746	0.2959	0.271
Mof_O 	O 	0.3976	0.70102	0.36671	-0.31
Mof_C 	C 	0.4413	0.73341	0.36823	0.393
Mof_C 	C 	0.6633	0.74979	0.42044	-0.163
Mof_C 	C 	0.8456	0.72785	0.46527	0.131
Mof_H 	H 	0.8313	0.7025	0.4598	0.005
Mof_C 	C 	0.0468	0.74227	0.5175	-0.212
Mof_H 	H 	0.1692	0.7269	0.5475	0.106
Mof_C 	C 	0.0687	0.77955	0.52576	0.171
Mof_C 	C 	0.8885	0.80185	0.47945	-0.166
Mof_H 	H 	0.9041	0.8272	0.4839	0.086
Mof_C 	C 	0.6892	0.78695	0.42766	0.102
Mof_H 	H 	0.5685	0.8022	0.3966	0.013
Mof_N 	N 	0.8212	0.70972	0.70371	-0.272
Mof_H 	H 	0.9686	0.7089	0.7361	0.155
Mof_O 	O 	0.3448	0.56148	0.55504	-1.384
Mof_O 	O 	0.6502	0.54327	0.65166	-0.665
Mof_H 	H 	0.6077	0.5229	0.6326	0.151
Mof_C 	C 	0.5147	0.56819	0.60947	0.827
Mof_C 	C 	0.5901	0.60537	0.63425	-0.475
Mof_C 	C 	0.784	0.61215	0.6951	0.331
Mof_H 	H 	0.8731	0.5927	0.723	-0.09
Mof_C 	C 	0.8522	0.64703	0.7166	-0.382
Mof_H 	H 	0.9879	0.6511	0.7592	0.161
Mof_C 	C 	0.7284	0.67584	0.67806	0.33
Mof_C 	C 	0.5415	0.66925	0.6153	-0.387
Mof_H 	H 	0.4581	0.6887	0.5859	0.167
Mof_C 	C 	0.4723	0.63424	0.5941	0.339
Mof_H 	H 	0.3398	0.6302	0.5505	-0.088
Mof_Li	Li	0.2012	0.52331	0.4856	4.501
Mof_C 	C 	0.7892	0.69726	0.22277	0.218
Mof_N 	N 	0.5838	0.68725	0.17273	-0.185
Mof_C 	C 	0.458	0.71454	0.13127	0.199
Mof_N 	N 	0.5139	0.74966	0.13856	-0.177
Mof_C 	C 	0.7307	0.75616	0.18896	0.218
Mof_N 	N 	0.8807	0.73151	0.2308	-0.186
Mof_N 	N 	0.9285	0.67319	0.27156	-0.265
Mof_H 	H 	0.0934	0.6796	0.2872	0.146
Mof_O 	O 	0.8254	0.52243	0.45587	-2.292
Mof_O 	O 	0.4271	0.52328	0.38792	-1.404
Mof_C 	C 	0.6561	0.53726	0.40677	1.096
Mof_C 	C 	0.7204	0.57286	0.37002	-0.688
Mof_C 	C 	0.5689	0.58652	0.30267	0.445
Mof_H 	H 	0.4203	0.5731	0.2801	-0.145
Mof_C 	C 	0.6306	0.61958	0.26738	-0.448
Mof_H 	H 	0.5255	0.6285	0.2209	0.183
Mof_C 	C 	0.8466	0.63944	0.30053	0.351
Mof_C 	C 	0.9969	0.62596	0.36921	-0.441
Mof_H 	H 	0.1443	0.6394	0.3924	0.171
Mof_C 	C 	0.9331	0.59319	0.4037	0.507
Mof_H 	H 	0.0356	0.5845	0.4509	-0.359
Mof_N 	N 	0.2544	0.70262	0.07872	-0.239
Mof_H 	H 	0.2365	0.6791	0.0781	0.123
Mof_O 	O 	0.2959	0.74317	0.82379	-0.474
Mof_H 	H 	0.1741	0.754	0.7959	0.27
Mof_O 	O 	0.3976	0.79898	0.86671	-0.31
Mof_C 	C 	0.4413	0.76659	0.86823	0.393
Mof_C 	C 	0.6633	0.75021	0.92044	-0.163
Mof_C 	C 	0.8456	0.77215	0.96527	0.129
Mof_H 	H 	0.8313	0.7975	0.9598	0.006
Mof_C 	C 	0.0468	0.75773	0.0175	-0.207
Mof_H 	H 	0.1692	0.7731	0.0475	0.106
Mof_C 	C 	0.0687	0.72045	0.02576	0.173
Mof_C 	C 	0.8885	0.69815	0.97945	-0.167
Mof_H 	H 	0.9041	0.6728	0.9839	0.086
Mof_C 	C 	0.6892	0.71305	0.92766	0.102
Mof_H 	H 	0.5685	0.6978	0.8966	0.013
Mof_N 	N 	0.8212	0.79028	0.20371	-0.272
Mof_H 	H 	0.9686	0.7911	0.2361	0.154
Mof_O 	O 	0.3448	0.93852	0.05504	-1.378
Mof_O 	O 	0.6502	0.95673	0.15166	-0.665
Mof_H 	H 	0.6077	0.9771	0.1326	0.152
Mof_C 	C 	0.5147	0.93181	0.10947	0.825
Mof_C 	C 	0.5901	0.89463	0.13425	-0.473
Mof_C 	C 	0.784	0.88785	0.1951	0.329
Mof_H 	H 	0.8731	0.9073	0.223	-0.089
Mof_C 	C 	0.8522	0.85297	0.2166	-0.381
Mof_H 	H 	0.9879	0.8489	0.2592	0.16
Mof_C 	C 	0.7284	0.82416	0.17806	0.329
Mof_C 	C 	0.5415	0.83075	0.1153	-0.385
Mof_H 	H 	0.4581	0.8113	0.0859	0.167
Mof_C 	C 	0.4723	0.86576	0.0941	0.337
Mof_H 	H 	0.3398	0.8698	0.0505	-0.086
Mof_Li	Li	0.7988	0.02331	0.0144	4.486
Mof_C 	C 	0.2108	0.19726	0.27723	0.219
Mof_N 	N 	0.4162	0.18725	0.32727	-0.185
Mof_C 	C 	0.542	0.21454	0.36873	0.198
Mof_N 	N 	0.4861	0.24966	0.36144	-0.177
Mof_C 	C 	0.2693	0.25616	0.31104	0.218
Mof_N 	N 	0.1193	0.23151	0.2692	-0.185
Mof_N 	N 	0.0715	0.17319	0.22844	-0.262
Mof_H 	H 	0.9066	0.1796	0.2128	0.143
Mof_O 	O 	0.1746	0.02243	0.04413	-2.284
Mof_O 	O 	0.5729	0.02328	0.11208	-1.401
Mof_C 	C 	0.3439	0.03726	0.09323	1.094
Mof_C 	C 	0.2796	0.07286	0.12998	-0.688
Mof_C 	C 	0.4311	0.08652	0.19733	0.444
Mof_H 	H 	0.5797	0.0731	0.2199	-0.146
Mof_C 	C 	0.3694	0.11958	0.23262	-0.447
Mof_H 	H 	0.4745	0.1285	0.2791	0.183
Mof_C 	C 	0.1534	0.13944	0.19947	0.35
Mof_C 	C 	0.0031	0.12596	0.13079	-0.436
Mof_H 	H 	0.8557	0.1394	0.1076	0.167
Mof_C 	C 	0.0669	0.09319	0.0963	0.51
Mof_H 	H 	0.9644	0.0845	0.0491	-0.362
Mof_N 	N 	0.7456	0.20262	0.42128	-0.239
Mof_H 	H 	0.7635	0.1791	0.4219	0.122
Mof_O 	O 	0.7041	0.24317	0.67621	-0.474
Mof_H 	H 	0.8259	0.254	0.7041	0.271
Mof_O 	O 	0.6024	0.29898	0.63329	-0.31
Mof_C 	C 	0.5587	0.26659	0.63177	0.393
Mof_C 	C 	0.3367	0.25021	0.57956	-0.163
Mof_C 	C 	0.1544	0.27215	0.53473	0.131
Mof_H 	H 	0.1687	0.2975	0.5402	0.005
Mof_C 	C 	0.9532	0.25773	0.4825	-0.212
Mof_H 	H 	0.8308	0.2731	0.4525	0.106
Mof_C 	C 	0.9313	0.22045	0.47424	0.171
Mof_C 	C 	0.1115	0.19815	0.52055	-0.166
Mof_H 	H 	0.0959	0.1728	0.5161	0.086
Mof_C 	C 	0.3108	0.21305	0.57234	0.102
Mof_H 	H 	0.4315	0.1978	0.6034	0.013
Mof_N 	N 	0.1788	0.29028	0.29629	-0.272
Mof_H 	H 	0.0314	0.2911	0.2639	0.155
Mof_O 	O 	0.6552	0.43852	0.44496	-1.384
Mof_O 	O 	0.3498	0.45673	0.34834	-0.665
Mof_H 	H 	0.3923	0.4771	0.3674	0.151
Mof_C 	C 	0.4853	0.43181	0.39053	0.827
Mof_C 	C 	0.4099	0.39463	0.36575	-0.475
Mof_C 	C 	0.216	0.38785	0.3049	0.331
Mof_H 	H 	0.1269	0.4073	0.277	-0.09
Mof_C 	C 	0.1478	0.35297	0.2834	-0.382
Mof_H 	H 	0.0121	0.3489	0.2408	0.161
Mof_C 	C 	0.2716	0.32416	0.32194	0.33
Mof_C 	C 	0.4585	0.33075	0.3847	-0.387
Mof_H 	H 	0.5419	0.3113	0.4141	0.167
Mof_C 	C 	0.5277	0.36576	0.4059	0.339
Mof_H 	H 	0.6602	0.3698	0.4495	-0.088
_end
