data_functionalizedCrystal
_audit_creation_method	'EQeq! by Chris Wilmer'
_symmetry_space_group_name_H-M	'P1'
_symmetry_Int_Tables_number	1
_symmetry_cell_setting	triclinic
loop_
_symmetry_equiv_pos_as_xyz
  x,y,z
_cell_length_a	9.5277
_cell_length_b	14.692
_cell_length_c	13.6772
_cell_angle_alpha	90
_cell_angle_beta	90
_cell_angle_gamma	90
loop_
_atom_site_label
_atom_site_type_symbol
_atom_site_fract_x
_atom_site_fract_y
_atom_site_fract_z
_atom_site_charge
Mof_H 	H 	0.767	0.423	0.971	0.074
Mof_H 	H 	0.887	0.4861	0.111	0.031
Mof_H 	H 	0.804	0.276	0.9407	0.011
Mof_H 	H 	0.0935	0.2568	0.1535	0.019
Mof_O 	O 	0.07778	0.11186	0.05197	-0.534
Mof_O 	O 	0.90947	0.12045	0.94283	-0.538
Mof_O 	O 	0.03529	0.49398	0.26559	-0.385
Mof_O 	O 	0.20195	0.39033	0.24799	-0.41
Mof_C 	C 	0.0292	0.29035	0.11663	0.097
Mof_C 	C 	0.0054	0.38018	0.14248	-0.121
Mof_C 	C 	0.9829	0.15333	0.00999	0.497
Mof_C 	C 	0.834	0.391	0.0143	-0.123
Mof_C 	C 	0.9551	0.25015	0.04021	-0.207
Mof_C 	C 	0.9067	0.43043	0.0905	0.038
Mof_C 	C 	0.857	0.301	0.99036	0.095
Mof_C 	C 	0.0865	0.42396	0.2235	0.325
Mof_H 	H 	0.733	0.577	0.971	0.07
Mof_H 	H 	0.613	0.5139	0.111	0.032
Mof_H 	H 	0.696	0.724	0.9407	0.025
Mof_H 	H 	0.4065	0.7432	0.1535	0.029
Mof_O 	O 	0.42222	0.88814	0.05197	-0.44
Mof_O 	O 	0.59053	0.87955	0.94283	-0.417
Mof_O 	O 	0.46471	0.50602	0.26559	-0.388
Mof_O 	O 	0.29805	0.60967	0.24799	-0.406
Mof_C 	C 	0.4708	0.70965	0.11663	0.076
Mof_C 	C 	0.4946	0.61982	0.14248	-0.114
Mof_C 	C 	0.5171	0.84667	0.00999	0.483
Mof_C 	C 	0.666	0.609	0.0143	-0.106
Mof_C 	C 	0.5449	0.74985	0.04021	-0.166
Mof_C 	C 	0.5933	0.56957	0.0905	0.035
Mof_C 	C 	0.643	0.699	0.99036	0.075
Mof_C 	C 	0.4135	0.57604	0.2235	0.322
Mof_H 	H 	0.733	0.923	0.529	0.113
Mof_H 	H 	0.613	0.9861	0.389	0.105
Mof_H 	H 	0.696	0.776	0.5593	0.018
Mof_H 	H 	0.4065	0.7568	0.3465	0.022
Mof_O 	O 	0.42222	0.61186	0.44803	-0.587
Mof_O 	O 	0.59053	0.62045	0.55717	-0.573
Mof_O 	O 	0.46471	0.99398	0.23441	-0.237
Mof_O 	O 	0.29805	0.89033	0.25201	-0.309
Mof_C 	C 	0.4708	0.79035	0.38337	0.085
Mof_C 	C 	0.4946	0.88018	0.35752	-0.083
Mof_C 	C 	0.5171	0.65333	0.49001	0.555
Mof_C 	C 	0.666	0.891	0.4857	-0.073
Mof_C 	C 	0.5449	0.75015	0.45979	-0.199
Mof_C 	C 	0.5933	0.93043	0.4095	0.037
Mof_C 	C 	0.643	0.801	0.50964	0.091
Mof_C 	C 	0.4135	0.92396	0.2765	0.306
Mof_H 	H 	0.767	0.077	0.529	0.038
Mof_H 	H 	0.887	0.0139	0.389	-0.045
Mof_H 	H 	0.804	0.224	0.5593	-0.005
Mof_H 	H 	0.0935	0.2432	0.3465	0.005
Mof_O 	O 	0.07778	0.38814	0.44803	-0.588
Mof_O 	O 	0.90947	0.37955	0.55717	-0.581
Mof_O 	O 	0.03529	0.00602	0.23441	-0.433
Mof_O 	O 	0.20195	0.10967	0.25201	-0.409
Mof_C 	C 	0.0292	0.20965	0.38337	0.127
Mof_C 	C 	0.0054	0.11982	0.35752	-0.166
Mof_C 	C 	0.9829	0.34667	0.49001	0.56
Mof_C 	C 	0.834	0.109	0.4857	-0.175
Mof_C 	C 	0.9551	0.24985	0.45979	-0.246
Mof_C 	C 	0.9067	0.06957	0.4095	0.055
Mof_C 	C 	0.857	0.199	0.50964	0.116
Mof_C 	C 	0.0865	0.07604	0.2765	0.331
Mof_H 	H 	0.233	0.577	0.029	0.072
Mof_H 	H 	0.113	0.5139	0.889	0.031
Mof_H 	H 	0.196	0.724	0.0593	0.023
Mof_H 	H 	0.9065	0.7432	0.8465	0.028
Mof_O 	O 	0.92222	0.88814	0.94803	-0.437
Mof_O 	O 	0.09053	0.87955	0.05717	-0.417
Mof_O 	O 	0.96471	0.50602	0.73441	-0.389
Mof_O 	O 	0.79805	0.60967	0.75201	-0.406
Mof_C 	C 	0.9708	0.70965	0.88337	0.08
Mof_C 	C 	0.9946	0.61982	0.85752	-0.118
Mof_C 	C 	0.0171	0.84667	0.99001	0.479
Mof_C 	C 	0.166	0.609	0.9857	-0.111
Mof_C 	C 	0.0449	0.74985	0.95979	-0.171
Mof_C 	C 	0.0933	0.56957	0.9095	0.04
Mof_C 	C 	0.143	0.699	0.00964	0.082
Mof_C 	C 	0.9135	0.57604	0.7765	0.323
Mof_H 	H 	0.267	0.423	0.029	0.072
Mof_H 	H 	0.387	0.4861	0.889	0.031
Mof_H 	H 	0.304	0.276	0.0593	0.015
Mof_H 	H 	0.5935	0.2568	0.8465	0.022
Mof_O 	O 	0.57778	0.11186	0.94803	-0.541
Mof_O 	O 	0.40947	0.12045	0.05717	-0.542
Mof_O 	O 	0.53529	0.49398	0.73441	-0.386
Mof_O 	O 	0.70195	0.39033	0.75201	-0.41
Mof_C 	C 	0.5292	0.29035	0.88337	0.087
Mof_C 	C 	0.5054	0.38018	0.85752	-0.124
Mof_C 	C 	0.4829	0.15333	0.99001	0.507
Mof_C 	C 	0.334	0.391	0.9857	-0.117
Mof_C 	C 	0.4551	0.25015	0.95979	-0.197
Mof_C 	C 	0.4067	0.43043	0.9095	0.042
Mof_C 	C 	0.357	0.301	0.00964	0.086
Mof_C 	C 	0.5865	0.42396	0.7765	0.325
Mof_H 	H 	0.267	0.077	0.471	0.04
Mof_H 	H 	0.387	0.0139	0.611	-0.047
Mof_H 	H 	0.304	0.224	0.4407	-0.006
Mof_H 	H 	0.5935	0.2432	0.6535	0.005
Mof_O 	O 	0.57778	0.38814	0.55197	-0.591
Mof_O 	O 	0.40947	0.37955	0.44283	-0.582
Mof_O 	O 	0.53529	0.00602	0.76559	-0.437
Mof_O 	O 	0.70195	0.10967	0.74799	-0.409
Mof_C 	C 	0.5292	0.20965	0.61663	0.125
Mof_C 	C 	0.5054	0.11982	0.64248	-0.175
Mof_C 	C 	0.4829	0.34667	0.50999	0.565
Mof_C 	C 	0.334	0.109	0.5143	-0.179
Mof_C 	C 	0.4551	0.24985	0.54021	-0.243
Mof_C 	C 	0.4067	0.06957	0.5905	0.068
Mof_C 	C 	0.357	0.199	0.49036	0.119
Mof_C 	C 	0.5865	0.07604	0.7235	0.333
Mof_H 	H 	0.233	0.923	0.471	0.112
Mof_H 	H 	0.113	0.9861	0.611	0.104
Mof_H 	H 	0.196	0.776	0.4407	0.018
Mof_H 	H 	0.9065	0.7568	0.6535	0.022
Mof_O 	O 	0.92222	0.61186	0.55197	-0.589
Mof_O 	O 	0.09053	0.62045	0.44283	-0.574
Mof_O 	O 	0.96471	0.99398	0.76559	-0.236
Mof_O 	O 	0.79805	0.89033	0.74799	-0.307
Mof_C 	C 	0.9708	0.79035	0.61663	0.083
Mof_C 	C 	0.9946	0.88018	0.64248	-0.083
Mof_C 	C 	0.0171	0.65333	0.50999	0.557
Mof_C 	C 	0.166	0.891	0.5143	-0.072
Mof_C 	C 	0.0449	0.75015	0.54021	-0.198
Mof_C 	C 	0.0933	0.93043	0.5905	0.037
Mof_C 	C 	0.143	0.801	0.49036	0.091
Mof_C 	C 	0.9135	0.92396	0.7235	0.306
Mof_La	La	0.25	8.2407e-34	0.10581	1.812
Mof_La	La	0.25	0.5	0.39419	2.358
Mof_La	La	0.75	6.59256e-33	0.89419	1.804
Mof_La	La	0.75	0.5	0.60581	2.356
_end
