data_functionalizedCrystal
_audit_creation_method	'EQeq! by Chris Wilmer'
_symmetry_space_group_name_H-M	'P1'
_symmetry_Int_Tables_number	1
_symmetry_cell_setting	triclinic
loop_
_symmetry_equiv_pos_as_xyz
  x,y,z
_cell_length_a	10.523
_cell_length_b	11.184
_cell_length_c	12.7
_cell_angle_alpha	102.98
_cell_angle_beta	109.329
_cell_angle_gamma	97.766
loop_
_atom_site_label
_atom_site_type_symbol
_atom_site_fract_x
_atom_site_fract_y
_atom_site_fract_z
_atom_site_charge
Mof_Nd	Nd	0.10233	0.54633	0.68132	2.216
Mof_O 	O 	0.983	0.3278	0.5882	-0.583
Mof_O 	O 	0.923	0.2713	0.3949	-0.533
Mof_O 	O 	0.9472	0.052	0.2891	-0.426
Mof_H 	H 	0.9355	0.1237	0.2938	0.28
Mof_O 	O 	0.1532	0.4932	0.5074	-0.637
Mof_O 	O 	0.1297	0.43	0.3243	-0.537
Mof_O 	O 	0.3382	0.3984	0.267	-0.441
Mof_H 	H 	0.2563	0.3945	0.256	0.287
Mof_O 	O 	0.1785	0.752	0.8492	-0.469
Mof_O 	O 	0.3355	0.6918	0.7837	-0.5
Mof_O 	O 	0.2342	0.9846	0.9916	-0.373
Mof_H 	H 	0.1819	0.9169	0.9495	0.27
Mof_O 	O 	0.4016	0.1819	0.112	-0.373
Mof_H 	H 	0.46	0.2304	0.1725	0.271
Mof_C 	C 	0.9727	0.03	0.3945	0.242
Mof_C 	C 	0.978	0.1189	0.494	-0.19
Mof_C 	C 	0.004	0.087	0.5969	-0.086
Mof_H 	H 	0.0059	0.1459	0.6623	0.071
Mof_C 	C 	0.9599	0.2498	0.4932	0.504
Mof_C 	C 	0.4155	0.4491	0.3826	0.237
Mof_C 	C 	0.3572	0.4844	0.4659	-0.202
Mof_C 	C 	0.4428	0.5359	0.5819	-0.069
Mof_H 	H 	0.4042	0.5608	0.6371	0.044
Mof_C 	C 	0.2057	0.4686	0.432	0.481
Mof_C 	C 	0.362	0.9854	0.9909	0.177
Mof_C 	C 	0.4026	0.8901	0.9264	-0.214
Mof_C 	C 	0.5399	0.9045	0.9356	0.174
Mof_C 	C 	0.2991	0.7709	0.8481	0.379
Mof_Nd	Nd	0.89767	0.45367	0.31868	2.216
Mof_O 	O 	0.017	0.6722	0.4118	-0.583
Mof_O 	O 	0.077	0.7287	0.6051	-0.533
Mof_O 	O 	0.0528	0.948	0.7109	-0.426
Mof_H 	H 	0.0645	0.8763	0.7062	0.28
Mof_O 	O 	0.8468	0.5068	0.4926	-0.637
Mof_O 	O 	0.8703	0.57	0.6757	-0.537
Mof_O 	O 	0.6618	0.6016	0.733	-0.441
Mof_H 	H 	0.7437	0.6055	0.744	0.287
Mof_O 	O 	0.8215	0.248	0.1508	-0.469
Mof_O 	O 	0.6645	0.3082	0.2163	-0.5
Mof_O 	O 	0.7658	0.0154	0.0084	-0.373
Mof_H 	H 	0.8181	0.0831	0.0505	0.27
Mof_O 	O 	0.5984	0.8181	0.888	-0.373
Mof_H 	H 	0.54	0.7696	0.8275	0.271
Mof_C 	C 	0.0273	0.97	0.6055	0.242
Mof_C 	C 	0.022	0.8811	0.506	-0.19
Mof_C 	C 	0.996	0.913	0.4031	-0.086
Mof_H 	H 	0.9941	0.8541	0.3377	0.071
Mof_C 	C 	0.0401	0.7502	0.5068	0.504
Mof_C 	C 	0.5845	0.5509	0.6174	0.237
Mof_C 	C 	0.6428	0.5156	0.5341	-0.202
Mof_C 	C 	0.5572	0.4641	0.4181	-0.069
Mof_H 	H 	0.5958	0.4392	0.3629	0.044
Mof_C 	C 	0.7943	0.5314	0.568	0.481
Mof_C 	C 	0.638	0.0146	0.0091	0.177
Mof_C 	C 	0.5974	0.1099	0.0736	-0.214
Mof_C 	C 	0.4601	0.0955	0.0644	0.174
Mof_C 	C 	0.7009	0.2291	0.1519	0.379
_end
