data_functionalizedCrystal
_audit_creation_method	'EQeq! by Chris Wilmer'
_symmetry_space_group_name_H-M	'P1'
_symmetry_Int_Tables_number	1
_symmetry_cell_setting	triclinic
loop_
_symmetry_equiv_pos_as_xyz
  x,y,z
_cell_length_a	37.941
_cell_length_b	19.9026
_cell_length_c	14.3533
_cell_angle_alpha	90
_cell_angle_beta	90
_cell_angle_gamma	90
loop_
_atom_site_label
_atom_site_type_symbol
_atom_site_fract_x
_atom_site_fract_y
_atom_site_fract_z
_atom_site_charge
Mof_Cd	Cd	0.61576	0.23933	0.50153	0.37
Mof_Cd	Cd	0.24773	0.18304	0.75122	0.458
Mof_Cd	Cd	0.32394	0.29005	0.41037	0.477
Mof_Cd	Cd	0.31985	0.17015	0.58817	0.477
Mof_C 	C 	0.3609	0.2789	0.2032	0.26
Mof_C 	C 	0.2223	0.1023	0.3673	-0.015
Mof_H 	H 	0.2096	0.141	0.354	0.041
Mof_C 	C 	0.4506	0.2644	0.445	-0.006
Mof_H 	H 	0.4384	0.2942	0.407	0.044
Mof_C 	C 	0.277	0.0483	0.3967	-0.011
Mof_H 	H 	0.3012	0.0505	0.4067	0.056
Mof_C 	C 	0.2605	0.9869	0.3958	-0.027
Mof_H 	H 	0.2738	0.9478	0.4013	0.056
Mof_C 	C 	0.2343	0.4847	0.6297	-0.045
Mof_C 	C 	0.2165	0.5523	0.6252	0.29
Mof_C 	C 	0.3152	0.1954	0.8821	0.106
Mof_H 	H 	0.3013	0.2018	0.9347	0.001
Mof_C 	C 	0.2854	0.2961	0.6041	0.307
Mof_C 	C 	0.359	0.1917	0.7946	0.219
Mof_C 	C 	0.2243	0.9829	0.3868	-0.056
Mof_C 	C 	0.2677	0.3617	0.6185	-0.066
Mof_C 	C 	0.5456	0.2281	0.507	0.308
Mof_C 	C 	0.4513	0.1769	0.5564	-0.009
Mof_H 	H 	0.4394	0.1461	0.5936	0.043
Mof_C 	C 	0.2062	0.9166	0.3937	0.296
Mof_C 	C 	0.4879	0.1798	0.559	-0.034
Mof_H 	H 	0.5003	0.1506	0.5976	0.058
Mof_C 	C 	0.2711	0.4812	0.6295	-0.031
Mof_H 	H 	0.2844	0.5202	0.6351	0.055
Mof_C 	C 	0.5058	0.2245	0.506	-0.048
Mof_C 	C 	0.2055	0.0406	0.3713	-0.031
Mof_H 	H 	0.1812	0.0383	0.3634	0.054
Mof_C 	C 	0.2314	0.3658	0.6247	-0.008
Mof_H 	H 	0.2181	0.3265	0.6261	0.046
Mof_C 	C 	0.4325	0.2192	0.4992	-0.078
Mof_C 	C 	0.3934	0.218	0.4979	0.324
Mof_C 	C 	0.2873	0.4206	0.621	-0.013
Mof_H 	H 	0.3117	0.4186	0.6167	0.055
Mof_C 	C 	0.3192	0.3072	0.1111	0.231
Mof_C 	C 	0.2582	0.1062	0.383	-0.073
Mof_C 	C 	0.2752	0.1733	0.3849	0.314
Mof_C 	C 	0.4871	0.2655	0.447	-0.037
Mof_H 	H 	0.4991	0.2945	0.4075	0.059
Mof_C 	C 	0.2147	0.4267	0.6289	-0.035
Mof_H 	H 	0.1902	0.4288	0.6311	0.057
Mof_O 	O 	0.1736	0.914	0.4061	-0.262
Mof_O 	O 	0.2624	0.2206	0.3411	-0.292
Mof_O 	O 	0.22399	0.8635	0.3872	-0.299
Mof_O 	O 	0.30373	0.1805	0.432	-0.296
Mof_O 	O 	0.2353	0.6046	0.6396	-0.292
Mof_O 	O 	0.5608	0.2613	0.4444	-0.296
Mof_O 	O 	0.18516	0.5563	0.5993	-0.272
Mof_O 	O 	0.5612	0.1966	0.5673	-0.296
Mof_O 	O 	0.37739	0.1799	0.5531	-0.292
Mof_O 	O 	0.3163	0.2943	0.5709	-0.287
Mof_O 	O 	0.37887	0.2572	0.4407	-0.295
Mof_O 	O 	0.26892	0.2429	0.6209	-0.296
Mof_N 	N 	0.33403	0.291	0.2572	-0.151
Mof_N 	N 	0.30699	0.3107	0.1975	-0.145
Mof_N 	N 	0.35374	0.2868	0.1124	-0.217
Mof_N 	N 	0.3019	0.3263	0.0393	-0.353
Mof_H 	H 	0.281	0.3427	0.0456	0.185
Mof_H 	H 	0.3111	0.3228	0.9848	0.16
Mof_N 	N 	0.3928	0.1905	0.7625	-0.345
Mof_H 	H 	0.3969	0.1827	0.7046	0.182
Mof_H 	H 	0.41	0.1975	0.8002	0.183
Mof_N 	N 	0.33066	0.1815	0.7426	-0.137
Mof_N 	N 	0.30177	0.1823	0.8029	-0.125
Mof_N 	N 	0.3506	0.1995	0.8857	-0.19
Mof_N 	N 	0.3918	0.2691	0.2329	-0.371
Mof_H 	H 	0.396	0.2702	0.2918	0.188
Mof_H 	H 	0.4087	0.2612	0.1944	0.185
Mof_Cd	Cd	0.88424	0.26067	0.00153	0.368
Mof_Cd	Cd	0.25227	0.31696	0.25122	0.457
Mof_Cd	Cd	0.17606	0.20995	0.91037	0.476
Mof_Cd	Cd	0.18015	0.32985	0.08817	0.477
Mof_C 	C 	0.1391	0.2211	0.7032	0.258
Mof_C 	C 	0.2777	0.3977	0.8673	-0.017
Mof_H 	H 	0.2904	0.359	0.854	0.04
Mof_C 	C 	0.0494	0.2356	0.945	-0.006
Mof_H 	H 	0.0616	0.2058	0.907	0.043
Mof_C 	C 	0.223	0.4517	0.8967	-0.012
Mof_H 	H 	0.1988	0.4495	0.9067	0.055
Mof_C 	C 	0.2395	0.5131	0.8958	-0.028
Mof_H 	H 	0.2262	0.5522	0.9013	0.055
Mof_C 	C 	0.2657	0.0153	0.1297	-0.046
Mof_C 	C 	0.2835	0.9477	0.1252	0.289
Mof_C 	C 	0.1848	0.3046	0.3821	0.105
Mof_H 	H 	0.1987	0.2982	0.4347	0.002
Mof_C 	C 	0.2146	0.2039	0.1041	0.308
Mof_C 	C 	0.141	0.3083	0.2946	0.219
Mof_C 	C 	0.2757	0.5171	0.8868	-0.056
Mof_C 	C 	0.2323	0.1383	0.1185	-0.066
Mof_C 	C 	0.9544	0.2719	0.007	0.307
Mof_C 	C 	0.0487	0.3231	0.0564	-0.008
Mof_H 	H 	0.0606	0.3539	0.0936	0.043
Mof_C 	C 	0.2938	0.5834	0.8937	0.296
Mof_C 	C 	0.0121	0.3202	0.059	-0.034
Mof_H 	H 	0.9997	0.3494	0.0976	0.057
Mof_C 	C 	0.2289	0.0188	0.1295	-0.031
Mof_H 	H 	0.2156	0.9798	0.1351	0.056
Mof_C 	C 	0.9942	0.2755	0.006	-0.048
Mof_C 	C 	0.2945	0.4594	0.8713	-0.031
Mof_H 	H 	0.3188	0.4617	0.8634	0.054
Mof_C 	C 	0.2686	0.1342	0.1247	-0.008
Mof_H 	H 	0.2819	0.1735	0.1261	0.046
Mof_C 	C 	0.0675	0.2808	0.9992	-0.078
Mof_C 	C 	0.1066	0.282	0.9979	0.323
Mof_C 	C 	0.2127	0.0794	0.121	-0.012
Mof_H 	H 	0.1883	0.0814	0.1167	0.055
Mof_C 	C 	0.1808	0.1928	0.6111	0.231
Mof_C 	C 	0.2418	0.3938	0.883	-0.073
Mof_C 	C 	0.2248	0.3267	0.8849	0.314
Mof_C 	C 	0.0129	0.2345	0.947	-0.037
Mof_H 	H 	0.0009	0.2055	0.9075	0.059
Mof_C 	C 	0.2853	0.0733	0.1289	-0.035
Mof_H 	H 	0.3098	0.0712	0.1311	0.057
Mof_O 	O 	0.3264	0.586	0.9061	-0.262
Mof_O 	O 	0.2376	0.2794	0.8411	-0.292
Mof_O 	O 	0.27601	0.6365	0.8872	-0.299
Mof_O 	O 	0.19627	0.3195	0.932	-0.296
Mof_O 	O 	0.2647	0.8954	0.1396	-0.292
Mof_O 	O 	0.9392	0.2387	0.9444	-0.295
Mof_O 	O 	0.31484	0.9437	0.0993	-0.272
Mof_O 	O 	0.9388	0.3034	0.0673	-0.295
Mof_O 	O 	0.12261	0.3201	0.0531	-0.291
Mof_O 	O 	0.1837	0.2057	0.0709	-0.286
Mof_O 	O 	0.12113	0.2428	0.9407	-0.295
Mof_O 	O 	0.23108	0.2571	0.1209	-0.296
Mof_N 	N 	0.16597	0.209	0.7572	-0.151
Mof_N 	N 	0.19301	0.1893	0.6975	-0.145
Mof_N 	N 	0.14626	0.2132	0.6124	-0.218
Mof_N 	N 	0.1981	0.1737	0.5393	-0.355
Mof_H 	H 	0.219	0.1573	0.5456	0.185
Mof_H 	H 	0.1889	0.1772	0.4848	0.162
Mof_N 	N 	0.1072	0.3095	0.2625	-0.345
Mof_H 	H 	0.1031	0.3173	0.2046	0.182
Mof_H 	H 	0.09	0.3025	0.3002	0.183
Mof_N 	N 	0.16934	0.3185	0.2426	-0.138
Mof_N 	N 	0.19823	0.3177	0.3029	-0.125
Mof_N 	N 	0.1494	0.3005	0.3857	-0.19
Mof_N 	N 	0.1082	0.2309	0.7329	-0.371
Mof_H 	H 	0.104	0.2298	0.7918	0.188
Mof_H 	H 	0.0913	0.2388	0.6944	0.185
Mof_Cd	Cd	0.38424	0.23933	0.99847	0.368
Mof_Cd	Cd	0.75227	0.18304	0.74878	0.457
Mof_Cd	Cd	0.67606	0.29005	0.08963	0.476
Mof_Cd	Cd	0.68015	0.17015	0.91183	0.477
Mof_C 	C 	0.6391	0.2789	0.2968	0.258
Mof_C 	C 	0.7777	0.1023	0.1327	-0.017
Mof_H 	H 	0.7904	0.141	0.146	0.04
Mof_C 	C 	0.5494	0.2644	0.055	-0.006
Mof_H 	H 	0.5616	0.2942	0.093	0.043
Mof_C 	C 	0.723	0.0483	0.1033	-0.012
Mof_H 	H 	0.6988	0.0505	0.0933	0.055
Mof_C 	C 	0.7395	0.9869	0.1042	-0.028
Mof_H 	H 	0.7262	0.9478	0.0987	0.055
Mof_C 	C 	0.7657	0.4847	0.8703	-0.046
Mof_C 	C 	0.7835	0.5523	0.8748	0.289
Mof_C 	C 	0.6848	0.1954	0.6179	0.105
Mof_H 	H 	0.6987	0.2018	0.5653	0.002
Mof_C 	C 	0.7146	0.2961	0.8959	0.308
Mof_C 	C 	0.641	0.1917	0.7054	0.219
Mof_C 	C 	0.7757	0.9829	0.1132	-0.056
Mof_C 	C 	0.7323	0.3617	0.8815	-0.066
Mof_C 	C 	0.4544	0.2281	0.993	0.307
Mof_C 	C 	0.5487	0.1769	0.9436	-0.007
Mof_H 	H 	0.5606	0.1461	0.9064	0.043
Mof_C 	C 	0.7938	0.9166	0.1063	0.296
Mof_C 	C 	0.5121	0.1798	0.941	-0.036
Mof_H 	H 	0.4997	0.1506	0.9024	0.058
Mof_C 	C 	0.7289	0.4812	0.8705	-0.031
Mof_H 	H 	0.7156	0.5202	0.8649	0.055
Mof_C 	C 	0.4942	0.2245	0.994	-0.047
Mof_C 	C 	0.7945	0.0406	0.1287	-0.032
Mof_H 	H 	0.8188	0.0383	0.1366	0.054
Mof_C 	C 	0.7686	0.3658	0.8753	-0.008
Mof_H 	H 	0.7819	0.3265	0.8739	0.046
Mof_C 	C 	0.5675	0.2192	0.0008	-0.079
Mof_C 	C 	0.6066	0.218	0.0021	0.323
Mof_C 	C 	0.7127	0.4206	0.879	-0.013
Mof_H 	H 	0.6883	0.4186	0.8833	0.055
Mof_C 	C 	0.6808	0.3072	0.3889	0.231
Mof_C 	C 	0.7418	0.1062	0.117	-0.073
Mof_C 	C 	0.7248	0.1733	0.1151	0.314
Mof_C 	C 	0.5129	0.2655	0.053	-0.038
Mof_H 	H 	0.5009	0.2945	0.0925	0.059
Mof_C 	C 	0.7853	0.4267	0.8711	-0.035
Mof_H 	H 	0.8098	0.4288	0.8689	0.057
Mof_O 	O 	0.8264	0.914	0.0939	-0.262
Mof_O 	O 	0.7376	0.2206	0.1589	-0.292
Mof_O 	O 	0.77601	0.8635	0.1128	-0.299
Mof_O 	O 	0.69627	0.1805	0.068	-0.297
Mof_O 	O 	0.7647	0.6046	0.8604	-0.292
Mof_O 	O 	0.4392	0.2613	0.0556	-0.295
Mof_O 	O 	0.81484	0.5563	0.9007	-0.272
Mof_O 	O 	0.4388	0.1966	0.9327	-0.295
Mof_O 	O 	0.62261	0.1799	0.9469	-0.291
Mof_O 	O 	0.6837	0.2943	0.9291	-0.286
Mof_O 	O 	0.62113	0.2572	0.0593	-0.295
Mof_O 	O 	0.73108	0.2429	0.8791	-0.296
Mof_N 	N 	0.66597	0.291	0.2428	-0.151
Mof_N 	N 	0.69301	0.3107	0.3025	-0.145
Mof_N 	N 	0.64626	0.2868	0.3876	-0.218
Mof_N 	N 	0.6981	0.3263	0.4607	-0.355
Mof_H 	H 	0.719	0.3427	0.4544	0.185
Mof_H 	H 	0.6889	0.3228	0.5152	0.162
Mof_N 	N 	0.6072	0.1905	0.7375	-0.345
Mof_H 	H 	0.6031	0.1827	0.7954	0.182
Mof_H 	H 	0.59	0.1975	0.6998	0.183
Mof_N 	N 	0.66934	0.1815	0.7574	-0.138
Mof_N 	N 	0.69823	0.1823	0.6971	-0.125
Mof_N 	N 	0.6494	0.1995	0.6143	-0.19
Mof_N 	N 	0.6082	0.2691	0.2671	-0.371
Mof_H 	H 	0.604	0.2702	0.2082	0.188
Mof_H 	H 	0.5913	0.2612	0.3056	0.185
Mof_Cd	Cd	0.11576	0.26067	0.49847	0.369
Mof_Cd	Cd	0.74773	0.31696	0.24878	0.457
Mof_Cd	Cd	0.82394	0.20995	0.58963	0.477
Mof_Cd	Cd	0.81985	0.32985	0.41183	0.476
Mof_C 	C 	0.8609	0.2211	0.7968	0.259
Mof_C 	C 	0.7223	0.3977	0.6327	-0.016
Mof_H 	H 	0.7096	0.359	0.646	0.04
Mof_C 	C 	0.9506	0.2356	0.555	-0.006
Mof_H 	H 	0.9384	0.2058	0.593	0.043
Mof_C 	C 	0.777	0.4517	0.6033	-0.012
Mof_H 	H 	0.8012	0.4495	0.5933	0.055
Mof_C 	C 	0.7605	0.5131	0.6042	-0.027
Mof_H 	H 	0.7738	0.5522	0.5987	0.055
Mof_C 	C 	0.7343	0.0153	0.3703	-0.046
Mof_C 	C 	0.7165	0.9477	0.3748	0.289
Mof_C 	C 	0.8152	0.3046	0.1179	0.105
Mof_H 	H 	0.8013	0.2982	0.0653	0.001
Mof_C 	C 	0.7854	0.2039	0.3959	0.307
Mof_C 	C 	0.859	0.3083	0.2054	0.219
Mof_C 	C 	0.7243	0.5171	0.6132	-0.056
Mof_C 	C 	0.7677	0.1383	0.3815	-0.066
Mof_C 	C 	0.0456	0.2719	0.493	0.308
Mof_C 	C 	0.9513	0.3231	0.4436	-0.009
Mof_H 	H 	0.9394	0.3539	0.4064	0.043
Mof_C 	C 	0.7062	0.5834	0.6063	0.296
Mof_C 	C 	0.9879	0.3202	0.441	-0.034
Mof_H 	H 	0.0003	0.3494	0.4024	0.058
Mof_C 	C 	0.7711	0.0188	0.3705	-0.031
Mof_H 	H 	0.7844	0.9798	0.3649	0.055
Mof_C 	C 	0.0058	0.2755	0.494	-0.048
Mof_C 	C 	0.7055	0.4594	0.6287	-0.031
Mof_H 	H 	0.6812	0.4617	0.6366	0.054
Mof_C 	C 	0.7314	0.1342	0.3753	-0.008
Mof_H 	H 	0.7181	0.1735	0.3739	0.046
Mof_C 	C 	0.9325	0.2808	0.5008	-0.078
Mof_C 	C 	0.8934	0.282	0.5021	0.324
Mof_C 	C 	0.7873	0.0794	0.379	-0.013
Mof_H 	H 	0.8117	0.0814	0.3833	0.055
Mof_C 	C 	0.8192	0.1928	0.8889	0.231
Mof_C 	C 	0.7582	0.3938	0.617	-0.073
Mof_C 	C 	0.7752	0.3267	0.6151	0.314
Mof_C 	C 	0.9871	0.2345	0.553	-0.037
Mof_H 	H 	0.9991	0.2055	0.5925	0.059
Mof_C 	C 	0.7147	0.0733	0.3711	-0.035
Mof_H 	H 	0.6902	0.0712	0.3689	0.057
Mof_O 	O 	0.6736	0.586	0.5939	-0.262
Mof_O 	O 	0.7624	0.2794	0.6589	-0.292
Mof_O 	O 	0.72399	0.6365	0.6128	-0.299
Mof_O 	O 	0.80373	0.3195	0.568	-0.296
Mof_O 	O 	0.7353	0.8954	0.3604	-0.292
Mof_O 	O 	0.0608	0.2387	0.5556	-0.296
Mof_O 	O 	0.68516	0.9437	0.4007	-0.272
Mof_O 	O 	0.0612	0.3034	0.4327	-0.296
Mof_O 	O 	0.87739	0.3201	0.4469	-0.292
Mof_O 	O 	0.8163	0.2057	0.4291	-0.287
Mof_O 	O 	0.87887	0.2428	0.5593	-0.295
Mof_O 	O 	0.76892	0.2571	0.3791	-0.296
Mof_N 	N 	0.83403	0.209	0.7428	-0.151
Mof_N 	N 	0.80699	0.1893	0.8025	-0.145
Mof_N 	N 	0.85374	0.2132	0.8876	-0.217
Mof_N 	N 	0.8019	0.1737	0.9607	-0.353
Mof_H 	H 	0.781	0.1573	0.9544	0.185
Mof_H 	H 	0.8111	0.1772	0.0152	0.16
Mof_N 	N 	0.8928	0.3095	0.2375	-0.345
Mof_H 	H 	0.8969	0.3173	0.2954	0.182
Mof_H 	H 	0.91	0.3025	0.1998	0.183
Mof_N 	N 	0.83066	0.3185	0.2574	-0.137
Mof_N 	N 	0.80177	0.3177	0.1971	-0.125
Mof_N 	N 	0.8506	0.3005	0.1143	-0.19
Mof_N 	N 	0.8918	0.2309	0.7671	-0.371
Mof_H 	H 	0.896	0.2298	0.7082	0.188
Mof_H 	H 	0.9087	0.2388	0.8056	0.185
Mof_Cd	Cd	0.38424	0.76067	0.49847	0.369
Mof_Cd	Cd	0.75227	0.81696	0.24878	0.457
Mof_Cd	Cd	0.67606	0.70995	0.58963	0.476
Mof_Cd	Cd	0.68015	0.82985	0.41183	0.476
Mof_C 	C 	0.6391	0.7211	0.7968	0.259
Mof_C 	C 	0.7777	0.8977	0.6327	-0.016
Mof_H 	H 	0.7904	0.859	0.646	0.04
Mof_C 	C 	0.5494	0.7356	0.555	-0.007
Mof_H 	H 	0.5616	0.7058	0.593	0.043
Mof_C 	C 	0.723	0.9517	0.6033	-0.012
Mof_H 	H 	0.6988	0.9495	0.5933	0.055
Mof_C 	C 	0.7395	0.0131	0.6042	-0.028
Mof_H 	H 	0.7262	0.0522	0.5987	0.055
Mof_C 	C 	0.7657	0.5153	0.3703	-0.046
Mof_C 	C 	0.7835	0.4477	0.3748	0.289
Mof_C 	C 	0.6848	0.8046	0.1179	0.105
Mof_H 	H 	0.6987	0.7982	0.0653	0.001
Mof_C 	C 	0.7146	0.7039	0.3959	0.307
Mof_C 	C 	0.641	0.8083	0.2054	0.219
Mof_C 	C 	0.7757	0.0171	0.6132	-0.056
Mof_C 	C 	0.7323	0.6383	0.3815	-0.066
Mof_C 	C 	0.4544	0.7719	0.493	0.308
Mof_C 	C 	0.5487	0.8231	0.4436	-0.009
Mof_H 	H 	0.5606	0.8539	0.4064	0.043
Mof_C 	C 	0.7938	0.0834	0.6063	0.296
Mof_C 	C 	0.5121	0.8202	0.441	-0.034
Mof_H 	H 	0.4997	0.8494	0.4024	0.058
Mof_C 	C 	0.7289	0.5188	0.3705	-0.031
Mof_H 	H 	0.7156	0.4798	0.3649	0.055
Mof_C 	C 	0.4942	0.7755	0.494	-0.048
Mof_C 	C 	0.7945	0.9594	0.6287	-0.031
Mof_H 	H 	0.8188	0.9617	0.6366	0.054
Mof_C 	C 	0.7686	0.6342	0.3753	-0.008
Mof_H 	H 	0.7819	0.6735	0.3739	0.046
Mof_C 	C 	0.5675	0.7808	0.5008	-0.078
Mof_C 	C 	0.6066	0.782	0.5021	0.324
Mof_C 	C 	0.7127	0.5794	0.379	-0.013
Mof_H 	H 	0.6883	0.5814	0.3833	0.055
Mof_C 	C 	0.6808	0.6928	0.8889	0.231
Mof_C 	C 	0.7418	0.8938	0.617	-0.073
Mof_C 	C 	0.7248	0.8267	0.6151	0.314
Mof_C 	C 	0.5129	0.7345	0.553	-0.037
Mof_H 	H 	0.5009	0.7055	0.5925	0.059
Mof_C 	C 	0.7853	0.5733	0.3711	-0.035
Mof_H 	H 	0.8098	0.5712	0.3689	0.057
Mof_O 	O 	0.8264	0.086	0.5939	-0.262
Mof_O 	O 	0.7376	0.7794	0.6589	-0.292
Mof_O 	O 	0.77601	0.1365	0.6128	-0.299
Mof_O 	O 	0.69627	0.8195	0.568	-0.296
Mof_O 	O 	0.7647	0.3954	0.3604	-0.292
Mof_O 	O 	0.4392	0.7387	0.5556	-0.296
Mof_O 	O 	0.81484	0.4437	0.4007	-0.272
Mof_O 	O 	0.4388	0.8034	0.4327	-0.296
Mof_O 	O 	0.62261	0.8201	0.4469	-0.292
Mof_O 	O 	0.6837	0.7057	0.4291	-0.287
Mof_O 	O 	0.62113	0.7428	0.5593	-0.295
Mof_O 	O 	0.73108	0.7571	0.3791	-0.296
Mof_N 	N 	0.66597	0.709	0.7428	-0.151
Mof_N 	N 	0.69301	0.6893	0.8025	-0.145
Mof_N 	N 	0.64626	0.7132	0.8876	-0.217
Mof_N 	N 	0.6981	0.6737	0.9607	-0.353
Mof_H 	H 	0.719	0.6573	0.9544	0.185
Mof_H 	H 	0.6889	0.6772	0.0152	0.16
Mof_N 	N 	0.6072	0.8095	0.2375	-0.345
Mof_H 	H 	0.6031	0.8173	0.2954	0.182
Mof_H 	H 	0.59	0.8025	0.1998	0.183
Mof_N 	N 	0.66934	0.8185	0.2574	-0.137
Mof_N 	N 	0.69823	0.8177	0.1971	-0.125
Mof_N 	N 	0.6494	0.8005	0.1143	-0.19
Mof_N 	N 	0.6082	0.7309	0.7671	-0.371
Mof_H 	H 	0.604	0.7298	0.7082	0.188
Mof_H 	H 	0.5913	0.7388	0.8056	0.185
Mof_Cd	Cd	0.11576	0.73933	0.99847	0.368
Mof_Cd	Cd	0.74773	0.68304	0.74878	0.457
Mof_Cd	Cd	0.82394	0.79005	0.08963	0.476
Mof_Cd	Cd	0.81985	0.67015	0.91183	0.477
Mof_C 	C 	0.8609	0.7789	0.2968	0.258
Mof_C 	C 	0.7223	0.6023	0.1327	-0.017
Mof_H 	H 	0.7096	0.641	0.146	0.04
Mof_C 	C 	0.9506	0.7644	0.055	-0.006
Mof_H 	H 	0.9384	0.7942	0.093	0.043
Mof_C 	C 	0.777	0.5483	0.1033	-0.012
Mof_H 	H 	0.8012	0.5505	0.0933	0.055
Mof_C 	C 	0.7605	0.4869	0.1042	-0.028
Mof_H 	H 	0.7738	0.4478	0.0987	0.055
Mof_C 	C 	0.7343	0.9847	0.8703	-0.046
Mof_C 	C 	0.7165	0.0523	0.8748	0.289
Mof_C 	C 	0.8152	0.6954	0.6179	0.105
Mof_H 	H 	0.8013	0.7018	0.5653	0.002
Mof_C 	C 	0.7854	0.7961	0.8959	0.308
Mof_C 	C 	0.859	0.6917	0.7054	0.219
Mof_C 	C 	0.7243	0.4829	0.1132	-0.056
Mof_C 	C 	0.7677	0.8617	0.8815	-0.066
Mof_C 	C 	0.0456	0.7281	0.993	0.307
Mof_C 	C 	0.9513	0.6769	0.9436	-0.008
Mof_H 	H 	0.9394	0.6461	0.9064	0.043
Mof_C 	C 	0.7062	0.4166	0.1063	0.296
Mof_C 	C 	0.9879	0.6798	0.941	-0.034
Mof_H 	H 	0.0003	0.6506	0.9024	0.057
Mof_C 	C 	0.7711	0.9812	0.8705	-0.031
Mof_H 	H 	0.7844	0.0202	0.8649	0.056
Mof_C 	C 	0.0058	0.7245	0.994	-0.048
Mof_C 	C 	0.7055	0.5406	0.1287	-0.031
Mof_H 	H 	0.6812	0.5383	0.1366	0.054
Mof_C 	C 	0.7314	0.8658	0.8753	-0.008
Mof_H 	H 	0.7181	0.8265	0.8739	0.046
Mof_C 	C 	0.9325	0.7192	0.0008	-0.078
Mof_C 	C 	0.8934	0.718	0.0021	0.323
Mof_C 	C 	0.7873	0.9206	0.879	-0.012
Mof_H 	H 	0.8117	0.9186	0.8833	0.055
Mof_C 	C 	0.8192	0.8072	0.3889	0.231
Mof_C 	C 	0.7582	0.6062	0.117	-0.073
Mof_C 	C 	0.7752	0.6733	0.1151	0.314
Mof_C 	C 	0.9871	0.7655	0.053	-0.037
Mof_H 	H 	0.9991	0.7945	0.0925	0.059
Mof_C 	C 	0.7147	0.9267	0.8711	-0.035
Mof_H 	H 	0.6902	0.9288	0.8689	0.057
Mof_O 	O 	0.6736	0.414	0.0939	-0.262
Mof_O 	O 	0.7624	0.7206	0.1589	-0.292
Mof_O 	O 	0.72399	0.3635	0.1128	-0.299
Mof_O 	O 	0.80373	0.6805	0.068	-0.296
Mof_O 	O 	0.7353	0.1046	0.8604	-0.292
Mof_O 	O 	0.0608	0.7613	0.0556	-0.295
Mof_O 	O 	0.68516	0.0563	0.9007	-0.272
Mof_O 	O 	0.0612	0.6966	0.9327	-0.295
Mof_O 	O 	0.87739	0.6799	0.9469	-0.291
Mof_O 	O 	0.8163	0.7943	0.9291	-0.286
Mof_O 	O 	0.87887	0.7572	0.0593	-0.295
Mof_O 	O 	0.76892	0.7429	0.8791	-0.296
Mof_N 	N 	0.83403	0.791	0.2428	-0.151
Mof_N 	N 	0.80699	0.8107	0.3025	-0.145
Mof_N 	N 	0.85374	0.7868	0.3876	-0.218
Mof_N 	N 	0.8019	0.8263	0.4607	-0.355
Mof_H 	H 	0.781	0.8427	0.4544	0.185
Mof_H 	H 	0.8111	0.8228	0.5152	0.162
Mof_N 	N 	0.8928	0.6905	0.7375	-0.345
Mof_H 	H 	0.8969	0.6827	0.7954	0.182
Mof_H 	H 	0.91	0.6975	0.6998	0.183
Mof_N 	N 	0.83066	0.6815	0.7574	-0.138
Mof_N 	N 	0.80177	0.6823	0.6971	-0.125
Mof_N 	N 	0.8506	0.6995	0.6143	-0.19
Mof_N 	N 	0.8918	0.7691	0.2671	-0.371
Mof_H 	H 	0.896	0.7702	0.2082	0.188
Mof_H 	H 	0.9087	0.7612	0.3056	0.185
Mof_Cd	Cd	0.61576	0.76067	0.00153	0.368
Mof_Cd	Cd	0.24773	0.81696	0.25122	0.457
Mof_Cd	Cd	0.32394	0.70995	0.91037	0.476
Mof_Cd	Cd	0.31985	0.82985	0.08817	0.477
Mof_C 	C 	0.3609	0.7211	0.7032	0.258
Mof_C 	C 	0.2223	0.8977	0.8673	-0.017
Mof_H 	H 	0.2096	0.859	0.854	0.04
Mof_C 	C 	0.4506	0.7356	0.945	-0.006
Mof_H 	H 	0.4384	0.7058	0.907	0.043
Mof_C 	C 	0.277	0.9517	0.8967	-0.012
Mof_H 	H 	0.3012	0.9495	0.9067	0.055
Mof_C 	C 	0.2605	0.0131	0.8958	-0.028
Mof_H 	H 	0.2738	0.0522	0.9013	0.055
Mof_C 	C 	0.2343	0.5153	0.1297	-0.046
Mof_C 	C 	0.2165	0.4477	0.1252	0.289
Mof_C 	C 	0.3152	0.8046	0.3821	0.105
Mof_H 	H 	0.3013	0.7982	0.4347	0.002
Mof_C 	C 	0.2854	0.7039	0.1041	0.308
Mof_C 	C 	0.359	0.8083	0.2946	0.219
Mof_C 	C 	0.2243	0.0171	0.8868	-0.056
Mof_C 	C 	0.2677	0.6383	0.1185	-0.066
Mof_C 	C 	0.5456	0.7719	0.007	0.307
Mof_C 	C 	0.4513	0.8231	0.0564	-0.007
Mof_H 	H 	0.4394	0.8539	0.0936	0.043
Mof_C 	C 	0.2062	0.0834	0.8937	0.296
Mof_C 	C 	0.4879	0.8202	0.059	-0.036
Mof_H 	H 	0.5003	0.8494	0.0976	0.058
Mof_C 	C 	0.2711	0.5188	0.1295	-0.031
Mof_H 	H 	0.2844	0.4798	0.1351	0.055
Mof_C 	C 	0.5058	0.7755	0.006	-0.047
Mof_C 	C 	0.2055	0.9594	0.8713	-0.032
Mof_H 	H 	0.1812	0.9617	0.8634	0.054
Mof_C 	C 	0.2314	0.6342	0.1247	-0.008
Mof_H 	H 	0.2181	0.6735	0.1261	0.046
Mof_C 	C 	0.4325	0.7808	0.9992	-0.079
Mof_C 	C 	0.3934	0.782	0.9979	0.323
Mof_C 	C 	0.2873	0.5794	0.121	-0.013
Mof_H 	H 	0.3117	0.5814	0.1167	0.055
Mof_C 	C 	0.3192	0.6928	0.6111	0.231
Mof_C 	C 	0.2582	0.8938	0.883	-0.073
Mof_C 	C 	0.2752	0.8267	0.8849	0.314
Mof_C 	C 	0.4871	0.7345	0.947	-0.038
Mof_H 	H 	0.4991	0.7055	0.9075	0.059
Mof_C 	C 	0.2147	0.5733	0.1289	-0.035
Mof_H 	H 	0.1902	0.5712	0.1311	0.057
Mof_O 	O 	0.1736	0.086	0.9061	-0.262
Mof_O 	O 	0.2624	0.7794	0.8411	-0.292
Mof_O 	O 	0.22399	0.1365	0.8872	-0.299
Mof_O 	O 	0.30373	0.8195	0.932	-0.297
Mof_O 	O 	0.2353	0.3954	0.1396	-0.292
Mof_O 	O 	0.5608	0.7387	0.9444	-0.295
Mof_O 	O 	0.18516	0.4437	0.0993	-0.272
Mof_O 	O 	0.5612	0.8034	0.0673	-0.295
Mof_O 	O 	0.37739	0.8201	0.0531	-0.291
Mof_O 	O 	0.3163	0.7057	0.0709	-0.286
Mof_O 	O 	0.37887	0.7428	0.9407	-0.295
Mof_O 	O 	0.26892	0.7571	0.1209	-0.296
Mof_N 	N 	0.33403	0.709	0.7572	-0.151
Mof_N 	N 	0.30699	0.6893	0.6975	-0.145
Mof_N 	N 	0.35374	0.7132	0.6124	-0.218
Mof_N 	N 	0.3019	0.6737	0.5393	-0.355
Mof_H 	H 	0.281	0.6573	0.5456	0.185
Mof_H 	H 	0.3111	0.6772	0.4848	0.162
Mof_N 	N 	0.3928	0.8095	0.2625	-0.345
Mof_H 	H 	0.3969	0.8173	0.2046	0.182
Mof_H 	H 	0.41	0.8025	0.3002	0.183
Mof_N 	N 	0.33066	0.8185	0.2426	-0.138
Mof_N 	N 	0.30177	0.8177	0.3029	-0.125
Mof_N 	N 	0.3506	0.8005	0.3857	-0.19
Mof_N 	N 	0.3918	0.7309	0.7329	-0.371
Mof_H 	H 	0.396	0.7298	0.7918	0.188
Mof_H 	H 	0.4087	0.7388	0.6944	0.185
Mof_Cd	Cd	0.88424	0.73933	0.50153	0.369
Mof_Cd	Cd	0.25227	0.68304	0.75122	0.457
Mof_Cd	Cd	0.17606	0.79005	0.41037	0.477
Mof_Cd	Cd	0.18015	0.67015	0.58817	0.476
Mof_C 	C 	0.1391	0.7789	0.2032	0.259
Mof_C 	C 	0.2777	0.6023	0.3673	-0.016
Mof_H 	H 	0.2904	0.641	0.354	0.04
Mof_C 	C 	0.0494	0.7644	0.445	-0.006
Mof_H 	H 	0.0616	0.7942	0.407	0.043
Mof_C 	C 	0.223	0.5483	0.3967	-0.012
Mof_H 	H 	0.1988	0.5505	0.4067	0.055
Mof_C 	C 	0.2395	0.4869	0.3958	-0.027
Mof_H 	H 	0.2262	0.4478	0.4013	0.055
Mof_C 	C 	0.2657	0.9847	0.6297	-0.046
Mof_C 	C 	0.2835	0.0523	0.6252	0.289
Mof_C 	C 	0.1848	0.6954	0.8821	0.105
Mof_H 	H 	0.1987	0.7018	0.9347	0.001
Mof_C 	C 	0.2146	0.7961	0.6041	0.307
Mof_C 	C 	0.141	0.6917	0.7946	0.219
Mof_C 	C 	0.2757	0.4829	0.3868	-0.056
Mof_C 	C 	0.2323	0.8617	0.6185	-0.066
Mof_C 	C 	0.9544	0.7281	0.507	0.308
Mof_C 	C 	0.0487	0.6769	0.5564	-0.009
Mof_H 	H 	0.0606	0.6461	0.5936	0.043
Mof_C 	C 	0.2938	0.4166	0.3937	0.296
Mof_C 	C 	0.0121	0.6798	0.559	-0.034
Mof_H 	H 	0.9997	0.6506	0.5976	0.058
Mof_C 	C 	0.2289	0.9812	0.6295	-0.031
Mof_H 	H 	0.2156	0.0202	0.6351	0.055
Mof_C 	C 	0.9942	0.7245	0.506	-0.048
Mof_C 	C 	0.2945	0.5406	0.3713	-0.031
Mof_H 	H 	0.3188	0.5383	0.3634	0.054
Mof_C 	C 	0.2686	0.8658	0.6247	-0.008
Mof_H 	H 	0.2819	0.8265	0.6261	0.046
Mof_C 	C 	0.0675	0.7192	0.4992	-0.078
Mof_C 	C 	0.1066	0.718	0.4979	0.324
Mof_C 	C 	0.2127	0.9206	0.621	-0.013
Mof_H 	H 	0.1883	0.9186	0.6167	0.055
Mof_C 	C 	0.1808	0.8072	0.1111	0.231
Mof_C 	C 	0.2418	0.6062	0.383	-0.073
Mof_C 	C 	0.2248	0.6733	0.3849	0.314
Mof_C 	C 	0.0129	0.7655	0.447	-0.037
Mof_H 	H 	0.0009	0.7945	0.4075	0.059
Mof_C 	C 	0.2853	0.9267	0.6289	-0.035
Mof_H 	H 	0.3098	0.9288	0.6311	0.057
Mof_O 	O 	0.3264	0.414	0.4061	-0.262
Mof_O 	O 	0.2376	0.7206	0.3411	-0.292
Mof_O 	O 	0.27601	0.3635	0.3872	-0.299
Mof_O 	O 	0.19627	0.6805	0.432	-0.296
Mof_O 	O 	0.2647	0.1046	0.6396	-0.292
Mof_O 	O 	0.9392	0.7613	0.4444	-0.296
Mof_O 	O 	0.31484	0.0563	0.5993	-0.272
Mof_O 	O 	0.9388	0.6966	0.5673	-0.296
Mof_O 	O 	0.12261	0.6799	0.5531	-0.292
Mof_O 	O 	0.1837	0.7943	0.5709	-0.287
Mof_O 	O 	0.12113	0.7572	0.4407	-0.295
Mof_O 	O 	0.23108	0.7429	0.6209	-0.296
Mof_N 	N 	0.16597	0.791	0.2572	-0.151
Mof_N 	N 	0.19301	0.8107	0.1975	-0.145
Mof_N 	N 	0.14626	0.7868	0.1124	-0.217
Mof_N 	N 	0.1981	0.8263	0.0393	-0.353
Mof_H 	H 	0.219	0.8427	0.0456	0.185
Mof_H 	H 	0.1889	0.8228	0.9848	0.16
Mof_N 	N 	0.1072	0.6905	0.7625	-0.345
Mof_H 	H 	0.1031	0.6827	0.7046	0.182
Mof_H 	H 	0.09	0.6975	0.8002	0.183
Mof_N 	N 	0.16934	0.6815	0.7426	-0.137
Mof_N 	N 	0.19823	0.6823	0.8029	-0.125
Mof_N 	N 	0.1494	0.6995	0.8857	-0.19
Mof_N 	N 	0.1082	0.7691	0.2329	-0.371
Mof_H 	H 	0.104	0.7702	0.2918	0.188
Mof_H 	H 	0.0913	0.7612	0.1944	0.185
_end
