data_functionalizedCrystal
_audit_creation_method	'EQeq! by Chris Wilmer'
_symmetry_space_group_name_H-M	'P1'
_symmetry_Int_Tables_number	1
_symmetry_cell_setting	triclinic
loop_
_symmetry_equiv_pos_as_xyz
  x,y,z
_cell_length_a	17.7637
_cell_length_b	11.7135
_cell_length_c	11.2193
_cell_angle_alpha	90
_cell_angle_beta	109.508
_cell_angle_gamma	90
loop_
_atom_site_label
_atom_site_type_symbol
_atom_site_fract_x
_atom_site_fract_y
_atom_site_fract_z
_atom_site_charge
Mof_O 	O 	0.07353	0.98443	0.22779	-0.602
Mof_O 	O 	0.11396	0.95262	0.43388	-0.561
Mof_O 	O 	0.44317	0.3087	0.47574	-0.688
Mof_O 	O 	0.43194	0.24915	0.2809	-0.468
Mof_C 	C 	0.20056	0.0557	0.3501	-0.342
Mof_C 	C 	0.22059	0.0791	0.2432	0.109
Mof_H 	H 	0.1877	0.0538	0.1645	-0.077
Mof_C 	C 	0.28932	0.1399	0.2528	-0.129
Mof_H 	H 	0.3028	0.1534	0.1808	0.044
Mof_C 	C 	0.33833	0.1808	0.3691	-0.058
Mof_C 	C 	0.31828	0.1561	0.4758	-0.117
Mof_H 	H 	0.3507	0.1823	0.5545	0.057
Mof_C 	C 	0.2506	0.0929	0.4667	0.117
Mof_H 	H 	0.2387	0.0755	0.5393	-0.047
Mof_C 	C 	0.12446	0.9932	0.3387	0.585
Mof_C 	C 	0.41069	0.2532	0.3796	0.418
Mof_O 	O 	0.57353	0.48443	0.22779	-0.783
Mof_O 	O 	0.61396	0.45262	0.43388	-0.738
Mof_O 	O 	0.94317	0.8087	0.47574	-0.353
Mof_O 	O 	0.93194	0.74915	0.2809	-0.298
Mof_C 	C 	0.70056	0.5557	0.3501	-0.266
Mof_C 	C 	0.72059	0.5791	0.2432	0.146
Mof_H 	H 	0.6877	0.5538	0.1645	-0.07
Mof_C 	C 	0.78932	0.6399	0.2528	-0.15
Mof_H 	H 	0.8028	0.6534	0.1808	0.093
Mof_C 	C 	0.83833	0.6808	0.3691	0.038
Mof_C 	C 	0.81828	0.6561	0.4758	-0.14
Mof_H 	H 	0.8507	0.6823	0.5545	0.123
Mof_C 	C 	0.7506	0.5929	0.4667	0.14
Mof_H 	H 	0.7387	0.5755	0.5393	-0.016
Mof_C 	C 	0.62446	0.4932	0.3387	0.57
Mof_C 	C 	0.91069	0.7532	0.3796	0.33
Mof_O 	O 	0.92647	0.98443	0.27221	-0.465
Mof_O 	O 	0.88604	0.95262	0.06612	-0.446
Mof_O 	O 	0.55683	0.3087	0.02426	-0.686
Mof_O 	O 	0.56806	0.24915	0.2191	-0.456
Mof_C 	C 	0.79944	0.0557	0.1499	-0.254
Mof_C 	C 	0.77941	0.0791	0.2568	0.088
Mof_H 	H 	0.8123	0.0538	0.3355	-0.038
Mof_C 	C 	0.71068	0.1399	0.2472	-0.117
Mof_H 	H 	0.6972	0.1534	0.3192	0.064
Mof_C 	C 	0.66167	0.1808	0.1309	-0.024
Mof_C 	C 	0.68172	0.1561	0.0242	-0.242
Mof_H 	H 	0.6493	0.1823	0.9455	0.163
Mof_C 	C 	0.7494	0.0929	0.0333	-0.049
Mof_H 	H 	0.7613	0.0755	0.9607	0.079
Mof_C 	C 	0.87554	0.9932	0.1613	0.529
Mof_C 	C 	0.58931	0.2532	0.1204	0.39
Mof_O 	O 	0.42647	0.48443	0.27221	-0.811
Mof_O 	O 	0.38604	0.45262	0.06612	-0.738
Mof_O 	O 	0.05683	0.8087	0.02426	-0.515
Mof_O 	O 	0.06806	0.74915	0.2191	-0.459
Mof_C 	C 	0.29944	0.5557	0.1499	-0.212
Mof_C 	C 	0.27941	0.5791	0.2568	0.096
Mof_H 	H 	0.3123	0.5538	0.3355	-0.051
Mof_C 	C 	0.21068	0.6399	0.2472	-0.126
Mof_H 	H 	0.1972	0.6534	0.3192	0.075
Mof_C 	C 	0.16167	0.6808	0.1309	-0.003
Mof_C 	C 	0.18172	0.6561	0.0242	-0.244
Mof_H 	H 	0.1493	0.6823	0.9455	0.17
Mof_C 	C 	0.2494	0.5929	0.0333	-0.054
Mof_H 	H 	0.2613	0.5755	0.9607	0.102
Mof_C 	C 	0.37554	0.4932	0.1613	0.545
Mof_C 	C 	0.08931	0.7532	0.1204	0.336
Mof_O 	O 	0.92647	0.01557	0.77221	-0.423
Mof_O 	O 	0.88604	0.04738	0.56612	-0.445
Mof_O 	O 	0.55683	0.6913	0.52426	-0.691
Mof_O 	O 	0.56806	0.75085	0.7191	-0.433
Mof_C 	C 	0.79944	0.9443	0.6499	0.115
Mof_C 	C 	0.77941	0.9209	0.7568	-0.126
Mof_H 	H 	0.8123	0.9462	0.8355	0.14
Mof_C 	C 	0.71068	0.8601	0.7472	0.098
Mof_H 	H 	0.6972	0.8466	0.8192	0.044
Mof_C 	C 	0.66167	0.8192	0.6309	-0.169
Mof_C 	C 	0.68172	0.8439	0.5242	0.103
Mof_H 	H 	0.6493	0.8177	0.4455	-0.001
Mof_C 	C 	0.7494	0.9071	0.5333	-0.141
Mof_H 	H 	0.7613	0.9245	0.4607	0.116
Mof_C 	C 	0.87554	0.0068	0.6613	0.242
Mof_C 	C 	0.58931	0.7468	0.6204	0.474
Mof_O 	O 	0.42647	0.51557	0.77221	-0.751
Mof_O 	O 	0.38604	0.54738	0.56612	-0.729
Mof_O 	O 	0.05683	0.1913	0.52426	-0.588
Mof_O 	O 	0.06806	0.25085	0.7191	-0.466
Mof_C 	C 	0.29944	0.4443	0.6499	-0.217
Mof_C 	C 	0.27941	0.4209	0.7568	0.074
Mof_H 	H 	0.3123	0.4462	0.8355	-0.016
Mof_C 	C 	0.21068	0.3601	0.7472	-0.088
Mof_H 	H 	0.1972	0.3466	0.8192	0.074
Mof_C 	C 	0.16167	0.3192	0.6309	-0.071
Mof_C 	C 	0.18172	0.3439	0.5242	-0.078
Mof_H 	H 	0.1493	0.3177	0.4455	0.029
Mof_C 	C 	0.2494	0.4071	0.5333	0.062
Mof_H 	H 	0.2613	0.4245	0.4607	-0.008
Mof_C 	C 	0.37554	0.5068	0.6613	0.543
Mof_C 	C 	0.08931	0.2468	0.6204	0.38
Mof_O 	O 	0.07353	0.01557	0.72779	-0.658
Mof_O 	O 	0.11396	0.04738	0.93388	-0.473
Mof_O 	O 	0.44317	0.6913	0.97574	-0.584
Mof_O 	O 	0.43194	0.75085	0.7809	-0.429
Mof_C 	C 	0.20056	0.9443	0.8501	0.029
Mof_C 	C 	0.22059	0.9209	0.7432	-0.088
Mof_H 	H 	0.1877	0.9462	0.6645	0.084
Mof_C 	C 	0.28932	0.8601	0.7528	0.071
Mof_H 	H 	0.3028	0.8466	0.6808	0.03
Mof_C 	C 	0.33833	0.8192	0.8691	-0.182
Mof_C 	C 	0.31828	0.8439	0.9758	0.215
Mof_H 	H 	0.3507	0.8177	0.0545	-0.1
Mof_C 	C 	0.2506	0.9071	0.9667	0.024
Mof_H 	H 	0.2387	0.9245	0.0393	0.001
Mof_C 	C 	0.12446	0.0068	0.8387	0.304
Mof_C 	C 	0.41069	0.7468	0.8796	0.468
Mof_O 	O 	0.57353	0.51557	0.72779	-0.815
Mof_O 	O 	0.61396	0.54738	0.93388	-0.64
Mof_O 	O 	0.94317	0.1913	0.97574	-0.309
Mof_O 	O 	0.93194	0.25085	0.7809	-0.284
Mof_C 	C 	0.70056	0.4443	0.8501	-0.301
Mof_C 	C 	0.72059	0.4209	0.7432	0.16
Mof_H 	H 	0.6877	0.4462	0.6645	-0.069
Mof_C 	C 	0.78932	0.3601	0.7528	-0.143
Mof_H 	H 	0.8028	0.3466	0.6808	0.102
Mof_C 	C 	0.83833	0.3192	0.8691	0.001
Mof_C 	C 	0.81828	0.3439	0.9758	-0
Mof_H 	H 	0.8507	0.3177	0.0545	-0.005
Mof_C 	C 	0.7506	0.4071	0.9667	0.278
Mof_H 	H 	0.7387	0.4245	0.0393	-0.128
Mof_C 	C 	0.62446	0.5068	0.8387	0.594
Mof_C 	C 	0.91069	0.2468	0.8796	0.335
Mof_Cu	Cu	6.45817e-18	0.86472	0.25	0.804
Mof_Cu	Cu	0.5	0.36472	0.25	0.854
Mof_Cu	Cu	2.36914e-33	0.13528	0.75	0.8
Mof_Cu	Cu	0.5	0.63528	0.75	0.863
Mof_Na	Na	1.29163e-17	-5.736e-33	0.5	1.647
Mof_Na	Na	0.5	0.5	0.5	3.056
Mof_Na	Na	-0	0	-0	1.26
Mof_Na	Na	0.5	0.5	-0	2.661
_end
