data_functionalizedCrystal
_audit_creation_method	'EQeq! by Chris Wilmer'
_symmetry_space_group_name_H-M	'P1'
_symmetry_Int_Tables_number	1
_symmetry_cell_setting	triclinic
loop_
_symmetry_equiv_pos_as_xyz
  x,y,z
_cell_length_a	9.4926
_cell_length_b	12.9357
_cell_length_c	12.9357
_cell_angle_alpha	92.3739
_cell_angle_beta	90
_cell_angle_gamma	90
loop_
_atom_site_label
_atom_site_type_symbol
_atom_site_fract_x
_atom_site_fract_y
_atom_site_fract_z
_atom_site_charge
Mof_U 	U 	0.26463	0.31813	0.90249	0.032
Mof_U 	U 	0.76463	0.68187	0.09751	0.038
Mof_U 	U 	0.76463	0.09751	0.68187	0.038
Mof_U 	U 	0.26463	0.90249	0.31813	0.033
Mof_U 	U 	0.0951	0.79109	0.79109	0.009
Mof_U 	U 	0.5951	0.20891	0.20891	0.034
Mof_Ag	Ag	0.083	0.0034	0.0034	0.859
Mof_Ag	Ag	0.583	0.9966	0.9966	0.941
Mof_P 	P 	0.139	0.07	0.7708	0.294
Mof_P 	P 	0.0716	0.9623	0.5701	0.284
Mof_P 	P 	0.639	0.93	0.2292	0.343
Mof_P 	P 	0.5716	0.0377	0.4299	0.337
Mof_P 	P 	0.639	0.2292	0.93	0.343
Mof_P 	P 	0.5716	0.4299	0.0377	0.337
Mof_P 	P 	0.139	0.7708	0.07	0.294
Mof_P 	P 	0.0716	0.5701	0.9623	0.284
Mof_H 	H 	0.0898	0.1881	0.5881	0.289
Mof_H 	H 	0.2153	0.1539	0.5157	0.313
Mof_H 	H 	0.2455	0.2083	0.6239	0.325
Mof_H 	H 	0.3334	0.9652	0.5884	0.274
Mof_H 	H 	0.5898	0.8119	0.4119	0.331
Mof_H 	H 	0.7153	0.8461	0.4843	0.346
Mof_H 	H 	0.7455	0.7917	0.3761	0.357
Mof_H 	H 	0.8334	0.0348	0.4116	0.281
Mof_H 	H 	0.5898	0.4119	0.8119	0.331
Mof_H 	H 	0.7153	0.4843	0.8461	0.346
Mof_H 	H 	0.7455	0.3761	0.7917	0.357
Mof_H 	H 	0.8334	0.4116	0.0348	0.281
Mof_H 	H 	0.0898	0.5881	0.1881	0.289
Mof_H 	H 	0.2153	0.5157	0.1539	0.313
Mof_H 	H 	0.2455	0.6239	0.2083	0.325
Mof_H 	H 	0.3334	0.5884	0.9652	0.274
Mof_C 	C 	0.1872	0.0571	0.6349	0.219
Mof_C 	C 	0.1842	0.1614	0.5862	-0.803
Mof_C 	C 	0.6872	0.9429	0.3651	0.233
Mof_C 	C 	0.6842	0.8386	0.4138	-0.858
Mof_C 	C 	0.6872	0.3651	0.9429	0.233
Mof_C 	C 	0.6842	0.4138	0.8386	-0.858
Mof_C 	C 	0.1872	0.6349	0.0571	0.219
Mof_C 	C 	0.1842	0.5862	0.1614	-0.803
Mof_O 	O 	0.3081	0.3684	0.7812	-0.082
Mof_O 	O 	0.0191	0.3014	0.8404	-0.096
Mof_O 	O 	0.2288	0.1536	0.8212	-0.165
Mof_O 	O 	0.1599	0.9659	0.8191	-0.225
Mof_O 	O 	0.9262	0.0139	0.5663	-0.115
Mof_O 	O 	0.0676	0.8656	0.6324	-0.159
Mof_O 	O 	0.984	0.1003	0.7699	-0.102
Mof_O 	O 	0.2167	0.2666	0.0232	-0.064
Mof_O 	O 	0.1316	0.9418	0.4642	-0.161
Mof_O 	O 	0.3306	0.014	0.631	-0.351
Mof_O 	O 	0.8081	0.6316	0.2188	-0.058
Mof_O 	O 	0.5191	0.6986	0.1596	-0.053
Mof_O 	O 	0.7288	0.8464	0.1788	-0.159
Mof_O 	O 	0.6599	0.0341	0.1809	-0.217
Mof_O 	O 	0.4262	0.9861	0.4337	-0.171
Mof_O 	O 	0.5676	0.1344	0.3676	-0.143
Mof_O 	O 	0.484	0.8997	0.2301	-0.17
Mof_O 	O 	0.7167	0.7334	0.9768	-0.05
Mof_O 	O 	0.6316	0.0582	0.5358	-0.153
Mof_O 	O 	0.8306	0.986	0.369	-0.337
Mof_O 	O 	0.8081	0.2188	0.6316	-0.058
Mof_O 	O 	0.5191	0.1596	0.6986	-0.053
Mof_O 	O 	0.7288	0.1788	0.8464	-0.159
Mof_O 	O 	0.6599	0.1809	0.0341	-0.217
Mof_O 	O 	0.4262	0.4337	0.9861	-0.171
Mof_O 	O 	0.5676	0.3676	0.1344	-0.143
Mof_O 	O 	0.484	0.2301	0.8997	-0.17
Mof_O 	O 	0.7167	0.9768	0.7334	-0.05
Mof_O 	O 	0.6316	0.5358	0.0582	-0.153
Mof_O 	O 	0.8306	0.369	0.986	-0.337
Mof_O 	O 	0.3081	0.7812	0.3684	-0.082
Mof_O 	O 	0.0191	0.8404	0.3014	-0.096
Mof_O 	O 	0.2288	0.8212	0.1536	-0.165
Mof_O 	O 	0.1599	0.8191	0.9659	-0.225
Mof_O 	O 	0.9262	0.5663	0.0139	-0.115
Mof_O 	O 	0.0676	0.6324	0.8656	-0.159
Mof_O 	O 	0.984	0.7699	0.1003	-0.102
Mof_O 	O 	0.2167	0.0232	0.2666	-0.064
Mof_O 	O 	0.1316	0.4642	0.9418	-0.161
Mof_O 	O 	0.3306	0.631	0.014	-0.351
Mof_O 	O 	0.922	0.8191	0.8191	0.003
Mof_O 	O 	0.018	0.6587	0.6587	-0.08
Mof_O 	O 	0.2761	0.759	0.759	-0.053
Mof_O 	O 	0.172	0.1152	0.1152	-0.176
Mof_O 	O 	0.317	0.0241	0.0241	-0.232
Mof_O 	O 	0.422	0.1809	0.1809	-0.049
Mof_O 	O 	0.518	0.3413	0.3413	-0.048
Mof_O 	O 	0.7761	0.241	0.241	-0.034
Mof_O 	O 	0.672	0.8848	0.8848	-0.167
Mof_O 	O 	0.817	0.9759	0.9759	-0.216
_end
