data_functionalizedCrystal
_audit_creation_method	'EQeq! by Chris Wilmer'
_symmetry_space_group_name_H-M	'P1'
_symmetry_Int_Tables_number	1
_symmetry_cell_setting	triclinic
loop_
_symmetry_equiv_pos_as_xyz
  x,y,z
_cell_length_a	26.8824
_cell_length_b	26.8824
_cell_length_c	10.2072
_cell_angle_alpha	90
_cell_angle_beta	90
_cell_angle_gamma	120
loop_
_atom_site_label
_atom_site_type_symbol
_atom_site_fract_x
_atom_site_fract_y
_atom_site_fract_z
_atom_site_charge
Mof_N 	N 	0.4399	0.9981	0.857	-0.113
Mof_C 	C 	0.3956	0.8758	0.0098	0.079
Mof_H 	H 	0.3758	0.8959	0.0097	-0.023
Mof_C 	C 	0.3645	0.8167	0.0095	-0.151
Mof_H 	H 	0.3246	0.7979	0.0103	0.075
Mof_C 	C 	0.4024	0.9906	0.7894	-0.108
Mof_N 	N 	0.10657	0.33143	0.19033	-0.159
Mof_C 	C 	0.06227	0.20913	0.34313	0.107
Mof_H 	H 	0.04247	0.22923	0.34303	-0.032
Mof_C 	C 	0.03117	0.15003	0.34283	-0.198
Mof_H 	H 	0.99127	0.13123	0.34363	0.104
Mof_C 	C 	0.06907	0.32393	0.12273	-0.109
Mof_N 	N 	0.77323	0.66477	0.52367	-0.152
Mof_C 	C 	0.72893	0.54247	0.67647	0.088
Mof_H 	H 	0.70913	0.56257	0.67637	-0.02
Mof_C 	C 	0.69783	0.48337	0.67617	-0.153
Mof_H 	H 	0.65793	0.46457	0.67697	0.081
Mof_C 	C 	0.73573	0.65727	0.45607	-0.128
Mof_N 	N 	0.0019	0.4418	0.857	-0.122
Mof_C 	C 	0.1242	0.5198	0.0098	0.077
Mof_H 	H 	0.1041	0.4799	0.0097	-0.028
Mof_C 	C 	0.1833	0.5478	0.0095	-0.153
Mof_H 	H 	0.2021	0.5267	0.0103	0.075
Mof_C 	C 	0.0094	0.4118	0.7894	-0.115
Mof_N 	N 	0.66857	0.77513	0.19033	-0.157
Mof_C 	C 	0.79087	0.85313	0.34313	0.076
Mof_H 	H 	0.77077	0.81323	0.34303	-0.017
Mof_C 	C 	0.84997	0.88113	0.34283	-0.136
Mof_H 	H 	0.86877	0.86003	0.34363	0.074
Mof_C 	C 	0.67607	0.74513	0.12273	-0.11
Mof_N 	N 	0.33523	0.10847	0.52367	-0.153
Mof_C 	C 	0.45753	0.18647	0.67647	0.088
Mof_H 	H 	0.43743	0.14657	0.67637	-0.022
Mof_C 	C 	0.51663	0.21447	0.67617	-0.153
Mof_H 	H 	0.53543	0.19337	0.67697	0.08
Mof_C 	C 	0.34273	0.07847	0.45607	-0.13
Mof_N 	N 	0.5582	0.5601	0.857	-0.12
Mof_C 	C 	0.4802	0.6044	0.0098	0.078
Mof_H 	H 	0.5201	0.6242	0.0097	-0.027
Mof_C 	C 	0.4522	0.6355	0.0095	-0.153
Mof_H 	H 	0.4733	0.6754	0.0103	0.075
Mof_C 	C 	0.5882	0.5976	0.7894	-0.112
Mof_N 	N 	0.22487	0.89343	0.19033	-0.16
Mof_C 	C 	0.14687	0.93773	0.34313	0.07
Mof_H 	H 	0.18677	0.95753	0.34303	-0.011
Mof_C 	C 	0.11887	0.96883	0.34283	-0.118
Mof_H 	H 	0.13997	0.00873	0.34363	0.057
Mof_C 	C 	0.25487	0.93093	0.12273	-0.093
Mof_N 	N 	0.89153	0.22677	0.52367	-0.151
Mof_C 	C 	0.81353	0.27107	0.67647	0.087
Mof_H 	H 	0.85343	0.29087	0.67637	-0.019
Mof_C 	C 	0.78553	0.30217	0.67617	-0.153
Mof_H 	H 	0.80663	0.34207	0.67697	0.082
Mof_C 	C 	0.92153	0.26427	0.45607	-0.126
Mof_N 	N 	0.9981	0.4399	0.143	-0.147
Mof_C 	C 	0.8758	0.3956	0.9902	0.091
Mof_H 	H 	0.8959	0.3758	0.9903	0.002
Mof_C 	C 	0.8167	0.3645	0.9905	-0.142
Mof_H 	H 	0.7979	0.3246	0.9897	0.089
Mof_C 	C 	0.9906	0.4024	0.2106	-0.129
Mof_N 	N 	0.66477	0.77323	0.47633	-0.146
Mof_C 	C 	0.54247	0.72893	0.32353	0.09
Mof_H 	H 	0.56257	0.70913	0.32363	-0.02
Mof_C 	C 	0.48337	0.69783	0.32383	-0.151
Mof_H 	H 	0.46457	0.65793	0.32303	0.086
Mof_C 	C 	0.65727	0.73573	0.54393	-0.122
Mof_N 	N 	0.33143	0.10657	0.80967	-0.162
Mof_C 	C 	0.20913	0.06227	0.65687	0.116
Mof_H 	H 	0.22923	0.04247	0.65697	-0.029
Mof_C 	C 	0.15003	0.03117	0.65717	-0.197
Mof_H 	H 	0.13123	0.99127	0.65637	0.115
Mof_C 	C 	0.32393	0.06907	0.87727	-0.048
Mof_N 	N 	0.4418	0.0019	0.143	-0.156
Mof_C 	C 	0.5198	0.1242	0.9902	0.091
Mof_H 	H 	0.4799	0.1041	0.9903	-0.001
Mof_C 	C 	0.5478	0.1833	0.9905	-0.143
Mof_H 	H 	0.5267	0.2021	0.9897	0.089
Mof_C 	C 	0.4118	0.0094	0.2106	-0.137
Mof_N 	N 	0.10847	0.33523	0.47633	-0.147
Mof_C 	C 	0.18647	0.45753	0.32353	0.09
Mof_H 	H 	0.14657	0.43743	0.32363	-0.022
Mof_C 	C 	0.21447	0.51663	0.32383	-0.151
Mof_H 	H 	0.19337	0.53543	0.32303	0.085
Mof_C 	C 	0.07847	0.34273	0.54393	-0.124
Mof_N 	N 	0.77513	0.66857	0.80967	-0.16
Mof_C 	C 	0.85313	0.79087	0.65687	0.086
Mof_H 	H 	0.81323	0.77077	0.65697	-0.014
Mof_C 	C 	0.88113	0.84997	0.65717	-0.135
Mof_H 	H 	0.86003	0.86877	0.65637	0.085
Mof_C 	C 	0.74513	0.67607	0.87727	-0.051
Mof_N 	N 	0.5601	0.5582	0.143	-0.154
Mof_C 	C 	0.6044	0.4802	0.9902	0.092
Mof_H 	H 	0.6242	0.5201	0.9903	-0.001
Mof_C 	C 	0.6355	0.4522	0.9905	-0.143
Mof_H 	H 	0.6754	0.4733	0.9897	0.089
Mof_C 	C 	0.5976	0.5882	0.2106	-0.134
Mof_N 	N 	0.22677	0.89153	0.47633	-0.145
Mof_C 	C 	0.27107	0.81353	0.32353	0.09
Mof_H 	H 	0.29087	0.85343	0.32363	-0.018
Mof_C 	C 	0.30217	0.78553	0.32383	-0.151
Mof_H 	H 	0.34207	0.80663	0.32303	0.086
Mof_C 	C 	0.26427	0.92153	0.54393	-0.12
Mof_N 	N 	0.89343	0.22487	0.80967	-0.163
Mof_C 	C 	0.93773	0.14687	0.65687	0.081
Mof_H 	H 	0.95753	0.18677	0.65697	-0.009
Mof_C 	C 	0.96883	0.11887	0.65717	-0.12
Mof_H 	H 	0.00873	0.13997	0.65637	0.07
Mof_C 	C 	0.93093	0.25487	0.87727	-0.035
Mof_N 	N 	0.5601	0.0019	0.143	-0.156
Mof_C 	C 	0.6044	0.1242	0.9902	0.091
Mof_H 	H 	0.6242	0.1041	0.9903	-0.001
Mof_C 	C 	0.6355	0.1833	0.9905	-0.143
Mof_H 	H 	0.6754	0.2021	0.9897	0.089
Mof_C 	C 	0.5976	0.0094	0.2106	-0.137
Mof_N 	N 	0.22677	0.33523	0.47633	-0.146
Mof_C 	C 	0.27107	0.45753	0.32353	0.09
Mof_H 	H 	0.29087	0.43743	0.32363	-0.02
Mof_C 	C 	0.30217	0.51663	0.32383	-0.151
Mof_H 	H 	0.34207	0.53543	0.32303	0.086
Mof_C 	C 	0.26427	0.34273	0.54393	-0.122
Mof_N 	N 	0.89343	0.66857	0.80967	-0.163
Mof_C 	C 	0.93773	0.79087	0.65687	0.073
Mof_H 	H 	0.95753	0.77077	0.65697	-0.006
Mof_C 	C 	0.96883	0.84997	0.65717	-0.105
Mof_H 	H 	0.00873	0.86877	0.65637	0.065
Mof_C 	C 	0.93093	0.67607	0.87727	-0.036
Mof_N 	N 	0.9981	0.5582	0.143	-0.147
Mof_C 	C 	0.8758	0.4802	0.9902	0.091
Mof_H 	H 	0.8959	0.5201	0.9903	0.002
Mof_C 	C 	0.8167	0.4522	0.9905	-0.142
Mof_H 	H 	0.7979	0.4733	0.9897	0.089
Mof_C 	C 	0.9906	0.5882	0.2106	-0.13
Mof_N 	N 	0.66477	0.89153	0.47633	-0.145
Mof_C 	C 	0.54247	0.81353	0.32353	0.09
Mof_H 	H 	0.56257	0.85343	0.32363	-0.019
Mof_C 	C 	0.48337	0.78553	0.32383	-0.151
Mof_H 	H 	0.46457	0.80663	0.32303	0.086
Mof_C 	C 	0.65727	0.92153	0.54393	-0.12
Mof_N 	N 	0.33143	0.22487	0.80967	-0.161
Mof_C 	C 	0.20913	0.14687	0.65687	0.103
Mof_H 	H 	0.22923	0.18677	0.65697	-0.02
Mof_C 	C 	0.15003	0.11887	0.65717	-0.166
Mof_H 	H 	0.13123	0.13997	0.65637	0.094
Mof_C 	C 	0.32393	0.25487	0.87727	-0.05
Mof_N 	N 	0.4418	0.4399	0.143	-0.154
Mof_C 	C 	0.5198	0.3956	0.9902	0.091
Mof_H 	H 	0.4799	0.3758	0.9903	-0.001
Mof_C 	C 	0.5478	0.3645	0.9905	-0.143
Mof_H 	H 	0.5267	0.3246	0.9897	0.089
Mof_C 	C 	0.4118	0.4024	0.2106	-0.133
Mof_N 	N 	0.10847	0.77323	0.47633	-0.147
Mof_C 	C 	0.18647	0.72893	0.32353	0.091
Mof_H 	H 	0.14657	0.70913	0.32363	-0.022
Mof_C 	C 	0.21447	0.69783	0.32383	-0.151
Mof_H 	H 	0.19337	0.65793	0.32303	0.085
Mof_C 	C 	0.07847	0.73573	0.54393	-0.124
Mof_N 	N 	0.77513	0.10657	0.80967	-0.162
Mof_C 	C 	0.85313	0.06227	0.65687	0.108
Mof_H 	H 	0.81323	0.04247	0.65697	-0.026
Mof_C 	C 	0.88113	0.03117	0.65717	-0.182
Mof_H 	H 	0.86003	0.99127	0.65637	0.11
Mof_C 	C 	0.74513	0.06907	0.87727	-0.048
Mof_N 	N 	0.0019	0.5601	0.857	-0.122
Mof_C 	C 	0.1242	0.6044	0.0098	0.077
Mof_H 	H 	0.1041	0.6242	0.0097	-0.028
Mof_C 	C 	0.1833	0.6355	0.0095	-0.153
Mof_H 	H 	0.2021	0.6754	0.0103	0.075
Mof_C 	C 	0.0094	0.5976	0.7894	-0.115
Mof_N 	N 	0.66857	0.89343	0.19033	-0.16
Mof_C 	C 	0.79087	0.93773	0.34313	0.062
Mof_H 	H 	0.77077	0.95753	0.34303	-0.008
Mof_C 	C 	0.84997	0.96883	0.34283	-0.103
Mof_H 	H 	0.86877	0.00873	0.34363	0.053
Mof_C 	C 	0.67607	0.93093	0.12273	-0.093
Mof_N 	N 	0.33523	0.22677	0.52367	-0.152
Mof_C 	C 	0.45753	0.27107	0.67647	0.088
Mof_H 	H 	0.43743	0.29087	0.67637	-0.02
Mof_C 	C 	0.51663	0.30217	0.67617	-0.153
Mof_H 	H 	0.53543	0.34207	0.67697	0.081
Mof_C 	C 	0.34273	0.26427	0.45607	-0.128
Mof_N 	N 	0.5582	0.9981	0.857	-0.114
Mof_C 	C 	0.4802	0.8758	0.0098	0.078
Mof_H 	H 	0.5201	0.8959	0.0097	-0.024
Mof_C 	C 	0.4522	0.8167	0.0095	-0.151
Mof_H 	H 	0.4733	0.7979	0.0103	0.075
Mof_C 	C 	0.5882	0.9906	0.7894	-0.108
Mof_N 	N 	0.22487	0.33143	0.19033	-0.158
Mof_C 	C 	0.14687	0.20913	0.34313	0.094
Mof_H 	H 	0.18677	0.22923	0.34303	-0.024
Mof_C 	C 	0.11887	0.15003	0.34283	-0.168
Mof_H 	H 	0.13997	0.13123	0.34363	0.083
Mof_C 	C 	0.25487	0.32393	0.12273	-0.111
Mof_N 	N 	0.89153	0.66477	0.52367	-0.151
Mof_C 	C 	0.81353	0.54247	0.67647	0.087
Mof_H 	H 	0.85343	0.56257	0.67637	-0.019
Mof_C 	C 	0.78553	0.48337	0.67617	-0.153
Mof_H 	H 	0.80663	0.46457	0.67697	0.082
Mof_C 	C 	0.92153	0.65727	0.45607	-0.126
Mof_N 	N 	0.4399	0.4418	0.857	-0.12
Mof_C 	C 	0.3956	0.5198	0.0098	0.078
Mof_H 	H 	0.3758	0.4799	0.0097	-0.027
Mof_C 	C 	0.3645	0.5478	0.0095	-0.153
Mof_H 	H 	0.3246	0.5267	0.0103	0.075
Mof_C 	C 	0.4024	0.4118	0.7894	-0.112
Mof_N 	N 	0.10657	0.77513	0.19033	-0.159
Mof_C 	C 	0.06227	0.85313	0.34313	0.098
Mof_H 	H 	0.04247	0.81323	0.34303	-0.028
Mof_C 	C 	0.03117	0.88113	0.34283	-0.181
Mof_H 	H 	0.99127	0.86003	0.34363	0.099
Mof_C 	C 	0.06907	0.74513	0.12273	-0.109
Mof_N 	N 	0.77323	0.10847	0.52367	-0.153
Mof_C 	C 	0.72893	0.18647	0.67647	0.088
Mof_H 	H 	0.70913	0.14657	0.67637	-0.022
Mof_C 	C 	0.69783	0.21447	0.67617	-0.153
Mof_H 	H 	0.65793	0.19337	0.67697	0.08
Mof_C 	C 	0.73573	0.07847	0.45607	-0.13
Mof_Ag	Ag	0.33333	0.96482	0.66667	0.479
Mof_Ag	Ag	-0	0.29815	-0	0.263
Mof_Ag	Ag	0.03518	0.36852	0.66667	0.449
Mof_Ag	Ag	0.70185	0.70185	-0	0.291
Mof_Ag	Ag	0.63148	0.66667	0.66667	0.461
Mof_Ag	Ag	0.29815	0	-0	0.259
Mof_Ag	Ag	0.96482	0.33333	0.33333	0.421
Mof_Ag	Ag	0.36852	0.03518	0.33333	0.391
Mof_Ag	Ag	0.66667	0.63148	0.33333	0.404
Mof_Ag	Ag	0.66667	0.03518	0.33333	0.392
Mof_Ag	Ag	0.96482	0.63148	0.33333	0.421
Mof_Ag	Ag	0.36852	0.33333	0.33333	0.404
Mof_Ag	Ag	0.03518	0.66667	0.66667	0.449
Mof_Ag	Ag	0.70185	0	-0	0.261
Mof_Ag	Ag	0.63148	0.96482	0.66667	0.479
Mof_Ag	Ag	0.29815	0.29815	-0	0.287
Mof_Ag	Ag	0.33333	0.36852	0.66667	0.461
Mof_Ag	Ag	7.11864e-17	0.70185	-0	0.265
Mof_Fe	Fe	0.5	0	-0	0.502
Mof_Fe	Fe	0.16667	0.33333	0.33333	0.61
Mof_Fe	Fe	0.83333	0.66667	0.66667	0.619
Mof_Fe	Fe	3.55932e-17	0.5	-0	0.504
Mof_Fe	Fe	0.66667	0.83333	0.33333	0.612
Mof_Fe	Fe	0.33333	0.16667	0.66667	0.618
Mof_Fe	Fe	0.5	0.5	-0	0.521
Mof_Fe	Fe	0.16667	0.83333	0.33333	0.612
Mof_Fe	Fe	0.83333	0.16667	0.66667	0.619
Mof_N 	N 	0.45265	0.9053	0.0102	-0.188
Mof_C 	C 	0.39265	0.7853	0.0079	0.058
Mof_C 	C 	0.36155	0.7231	0.0076	0.089
Mof_N 	N 	0.11932	0.23863	0.34353	-0.198
Mof_C 	C 	0.05932	0.11863	0.34123	0.083
Mof_C 	C 	0.02822	0.05643	0.34093	0.069
Mof_N 	N 	0.78598	0.57197	0.67687	-0.193
Mof_C 	C 	0.72598	0.45197	0.67457	0.064
Mof_C 	C 	0.69488	0.38977	0.67427	0.091
Mof_N 	N 	0.0947	0.54735	0.0102	-0.194
Mof_C 	C 	0.2147	0.60735	0.0079	0.058
Mof_C 	C 	0.2769	0.63845	0.0076	0.089
Mof_N 	N 	0.76137	0.88068	0.34353	-0.186
Mof_C 	C 	0.88137	0.94068	0.34123	0.04
Mof_C 	C 	0.94357	0.97178	0.34093	0.114
Mof_N 	N 	0.42803	0.21402	0.67687	-0.193
Mof_C 	C 	0.54803	0.27402	0.67457	0.064
Mof_C 	C 	0.61023	0.30512	0.67427	0.09
Mof_N 	N 	0.45265	0.54735	0.0102	-0.194
Mof_C 	C 	0.39265	0.60735	0.0079	0.059
Mof_C 	C 	0.36155	0.63845	0.0076	0.089
Mof_N 	N 	0.11932	0.88068	0.34353	-0.192
Mof_C 	C 	0.05932	0.94068	0.34123	0.06
Mof_C 	C 	0.02822	0.97178	0.34093	0.093
Mof_N 	N 	0.78598	0.21402	0.67687	-0.193
Mof_C 	C 	0.72598	0.27402	0.67457	0.064
Mof_C 	C 	0.69488	0.30512	0.67427	0.09
Mof_N 	N 	0.9053	0.45265	0.9898	-0.165
Mof_C 	C 	0.7853	0.39265	0.9921	0.069
Mof_C 	C 	0.7231	0.36155	0.9924	0.102
Mof_N 	N 	0.57197	0.78598	0.32313	-0.193
Mof_C 	C 	0.45197	0.72598	0.32543	0.07
Mof_C 	C 	0.38977	0.69488	0.32573	0.099
Mof_N 	N 	0.23863	0.11932	0.65647	-0.199
Mof_C 	C 	0.11863	0.05932	0.65877	0.095
Mof_C 	C 	0.05643	0.02822	0.65907	0.078
Mof_N 	N 	0.54735	0.0947	0.9898	-0.169
Mof_C 	C 	0.60735	0.2147	0.9921	0.07
Mof_C 	C 	0.63845	0.2769	0.9924	0.102
Mof_N 	N 	0.21402	0.42803	0.32313	-0.193
Mof_C 	C 	0.27402	0.54803	0.32543	0.07
Mof_C 	C 	0.30512	0.61023	0.32573	0.098
Mof_N 	N 	0.88068	0.76137	0.65647	-0.187
Mof_C 	C 	0.94068	0.88137	0.65877	0.052
Mof_C 	C 	0.97178	0.94357	0.65907	0.121
Mof_N 	N 	0.54735	0.45265	0.9898	-0.169
Mof_C 	C 	0.60735	0.39265	0.9921	0.07
Mof_C 	C 	0.63845	0.36155	0.9924	0.102
Mof_N 	N 	0.21402	0.78598	0.32313	-0.193
Mof_C 	C 	0.27402	0.72598	0.32543	0.07
Mof_C 	C 	0.30512	0.69488	0.32573	0.099
Mof_N 	N 	0.88068	0.11932	0.65647	-0.193
Mof_C 	C 	0.94068	0.05932	0.65877	0.073
Mof_C 	C 	0.97178	0.02822	0.65907	0.099
Mof_N 	N 	0.30402	0.69598	0.0058	-0.142
Mof_N 	N 	0.97069	0.02931	0.33913	-0.141
Mof_N 	N 	0.63735	0.36265	0.67247	-0.14
Mof_N 	N 	0.30402	0.60804	0.0058	-0.142
Mof_N 	N 	0.97069	0.94137	0.33913	-0.137
Mof_N 	N 	0.63735	0.27471	0.67247	-0.14
Mof_N 	N 	0.39196	0.69598	0.0058	-0.142
Mof_N 	N 	0.05863	0.02931	0.33913	-0.146
Mof_N 	N 	0.72529	0.36265	0.67247	-0.14
Mof_N 	N 	0.69598	0.30402	0.9942	-0.135
Mof_N 	N 	0.36265	0.63735	0.32753	-0.136
Mof_N 	N 	0.02931	0.97069	0.66087	-0.134
Mof_N 	N 	0.60804	0.30402	0.9942	-0.135
Mof_N 	N 	0.27471	0.63735	0.32753	-0.136
Mof_N 	N 	0.94137	0.97069	0.66087	-0.13
Mof_N 	N 	0.69598	0.39196	0.9942	-0.135
Mof_N 	N 	0.36265	0.72529	0.32753	-0.136
Mof_N 	N 	0.02931	0.05863	0.66087	-0.139
_end
