data_functionalizedCrystal
_audit_creation_method	'EQeq! by Chris Wilmer'
_symmetry_space_group_name_H-M	'P1'
_symmetry_Int_Tables_number	1
_symmetry_cell_setting	triclinic
loop_
_symmetry_equiv_pos_as_xyz
  x,y,z
_cell_length_a	16.807
_cell_length_b	16.807
_cell_length_c	16.807
_cell_angle_alpha	90
_cell_angle_beta	90
_cell_angle_gamma	90
loop_
_atom_site_label
_atom_site_type_symbol
_atom_site_fract_x
_atom_site_fract_y
_atom_site_fract_z
_atom_site_charge
Mof_C 	C 	0.8208	0.391	0.3413	0.349
Mof_C 	C 	0.876	0.4573	0.3021	-0.118
Mof_C 	C 	0.9467	0.414	0.2623	0.334
Mof_C 	C 	0.9904	0.3864	0.5734	0.352
Mof_O 	O 	0.7885	0.3434	0.2944	-0.422
Mof_O 	O 	0.9046	0.5067	0.3642	-0.606
Mof_O 	O 	0.8144	0.3901	0.4148	-0.418
Mof_O 	O 	0.0163	0.4335	0.2884	-0.4
Mof_O 	O 	0.9351	0.3642	0.2102	-0.406
Mof_O 	O 	0.9214	0.3789	0.5489	-0.397
Mof_O 	O 	0.026	0.3346	0.6168	-0.418
Mof_Zn	Zn	0.87464	0.47271	0.48276	1.227
Mof_C 	C 	0.6792	0.609	0.8413	0.348
Mof_C 	C 	0.624	0.5427	0.8021	-0.119
Mof_C 	C 	0.5533	0.586	0.7623	0.337
Mof_C 	C 	0.5096	0.6136	0.0734	0.353
Mof_O 	O 	0.7115	0.6566	0.7944	-0.421
Mof_O 	O 	0.5954	0.4933	0.8642	-0.605
Mof_O 	O 	0.6856	0.6099	0.9148	-0.417
Mof_O 	O 	0.4837	0.5665	0.7884	-0.404
Mof_O 	O 	0.5649	0.6358	0.7102	-0.406
Mof_O 	O 	0.5786	0.6211	0.0489	-0.397
Mof_O 	O 	0.474	0.6654	0.1168	-0.419
Mof_Zn	Zn	0.62536	0.52729	0.98276	1.227
Mof_C 	C 	0.1792	0.891	0.1587	0.349
Mof_C 	C 	0.124	0.9573	0.1979	-0.125
Mof_C 	C 	0.0533	0.914	0.2377	0.337
Mof_C 	C 	0.0096	0.8864	0.9266	0.337
Mof_O 	O 	0.2115	0.8434	0.2056	-0.422
Mof_O 	O 	0.0954	0.0067	0.1358	-0.598
Mof_O 	O 	0.1856	0.8901	0.0852	-0.419
Mof_O 	O 	0.9837	0.9335	0.2116	-0.404
Mof_O 	O 	0.0649	0.8642	0.2898	-0.406
Mof_O 	O 	0.0786	0.8789	0.9511	-0.394
Mof_O 	O 	0.974	0.8346	0.8832	-0.41
Mof_Zn	Zn	0.12536	0.97271	0.01724	1.225
Mof_C 	C 	0.3208	0.109	0.6587	0.348
Mof_C 	C 	0.376	0.0427	0.6979	-0.119
Mof_C 	C 	0.4467	0.086	0.7377	0.337
Mof_C 	C 	0.4904	0.1136	0.4266	0.353
Mof_O 	O 	0.2885	0.1566	0.7056	-0.422
Mof_O 	O 	0.4046	0.9933	0.6358	-0.606
Mof_O 	O 	0.3144	0.1099	0.5852	-0.417
Mof_O 	O 	0.5163	0.0665	0.7116	-0.405
Mof_O 	O 	0.4351	0.1358	0.7898	-0.406
Mof_O 	O 	0.4214	0.1211	0.4511	-0.396
Mof_O 	O 	0.526	0.1654	0.3832	-0.418
Mof_Zn	Zn	0.37464	0.02729	0.51724	1.227
Mof_C 	C 	0.3413	0.8208	0.391	0.348
Mof_C 	C 	0.3021	0.876	0.4573	-0.119
Mof_C 	C 	0.2623	0.9467	0.414	0.334
Mof_C 	C 	0.5734	0.9904	0.3864	0.352
Mof_O 	O 	0.2944	0.7885	0.3434	-0.422
Mof_O 	O 	0.3642	0.9046	0.5067	-0.606
Mof_O 	O 	0.4148	0.8144	0.3901	-0.418
Mof_O 	O 	0.2884	0.0163	0.4335	-0.4
Mof_O 	O 	0.2102	0.9351	0.3642	-0.406
Mof_O 	O 	0.5489	0.9214	0.3789	-0.397
Mof_O 	O 	0.6168	0.026	0.3346	-0.418
Mof_Zn	Zn	0.48276	0.87464	0.47271	1.227
Mof_C 	C 	0.8413	0.6792	0.609	0.348
Mof_C 	C 	0.8021	0.624	0.5427	-0.119
Mof_C 	C 	0.7623	0.5533	0.586	0.337
Mof_C 	C 	0.0734	0.5096	0.6136	0.353
Mof_O 	O 	0.7944	0.7115	0.6566	-0.421
Mof_O 	O 	0.8642	0.5954	0.4933	-0.605
Mof_O 	O 	0.9148	0.6856	0.6099	-0.417
Mof_O 	O 	0.7884	0.4837	0.5665	-0.404
Mof_O 	O 	0.7102	0.5649	0.6358	-0.406
Mof_O 	O 	0.0489	0.5786	0.6211	-0.397
Mof_O 	O 	0.1168	0.474	0.6654	-0.419
Mof_Zn	Zn	0.98276	0.62536	0.52729	1.227
Mof_C 	C 	0.1587	0.1792	0.891	0.349
Mof_C 	C 	0.1979	0.124	0.9573	-0.125
Mof_C 	C 	0.2377	0.0533	0.914	0.337
Mof_C 	C 	0.9266	0.0096	0.8864	0.337
Mof_O 	O 	0.2056	0.2115	0.8434	-0.422
Mof_O 	O 	0.1358	0.0954	0.0067	-0.598
Mof_O 	O 	0.0852	0.1856	0.8901	-0.419
Mof_O 	O 	0.2116	0.9837	0.9335	-0.404
Mof_O 	O 	0.2898	0.0649	0.8642	-0.406
Mof_O 	O 	0.9511	0.0786	0.8789	-0.394
Mof_O 	O 	0.8832	0.974	0.8346	-0.41
Mof_Zn	Zn	0.01724	0.12536	0.97271	1.225
Mof_C 	C 	0.6587	0.3208	0.109	0.348
Mof_C 	C 	0.6979	0.376	0.0427	-0.119
Mof_C 	C 	0.7377	0.4467	0.086	0.337
Mof_C 	C 	0.4266	0.4904	0.1136	0.353
Mof_O 	O 	0.7056	0.2885	0.1566	-0.422
Mof_O 	O 	0.6358	0.4046	0.9933	-0.606
Mof_O 	O 	0.5852	0.3144	0.1099	-0.417
Mof_O 	O 	0.7116	0.5163	0.0665	-0.405
Mof_O 	O 	0.7898	0.4351	0.1358	-0.406
Mof_O 	O 	0.4511	0.4214	0.1211	-0.396
Mof_O 	O 	0.3832	0.526	0.1654	-0.418
Mof_Zn	Zn	0.51724	0.37464	0.02729	1.227
Mof_C 	C 	0.391	0.3413	0.8208	0.348
Mof_C 	C 	0.4573	0.3021	0.876	-0.119
Mof_C 	C 	0.414	0.2623	0.9467	0.334
Mof_C 	C 	0.3864	0.5734	0.9904	0.352
Mof_O 	O 	0.3434	0.2944	0.7885	-0.422
Mof_O 	O 	0.5067	0.3642	0.9046	-0.606
Mof_O 	O 	0.3901	0.4148	0.8144	-0.418
Mof_O 	O 	0.4335	0.2884	0.0163	-0.4
Mof_O 	O 	0.3642	0.2102	0.9351	-0.406
Mof_O 	O 	0.3789	0.5489	0.9214	-0.397
Mof_O 	O 	0.3346	0.6168	0.026	-0.418
Mof_Zn	Zn	0.47271	0.48276	0.87464	1.227
Mof_C 	C 	0.609	0.8413	0.6792	0.348
Mof_C 	C 	0.5427	0.8021	0.624	-0.119
Mof_C 	C 	0.586	0.7623	0.5533	0.337
Mof_C 	C 	0.6136	0.0734	0.5096	0.353
Mof_O 	O 	0.6566	0.7944	0.7115	-0.421
Mof_O 	O 	0.4933	0.8642	0.5954	-0.605
Mof_O 	O 	0.6099	0.9148	0.6856	-0.417
Mof_O 	O 	0.5665	0.7884	0.4837	-0.404
Mof_O 	O 	0.6358	0.7102	0.5649	-0.406
Mof_O 	O 	0.6211	0.0489	0.5786	-0.397
Mof_O 	O 	0.6654	0.1168	0.474	-0.419
Mof_Zn	Zn	0.52729	0.98276	0.62536	1.227
Mof_C 	C 	0.891	0.1587	0.1792	0.349
Mof_C 	C 	0.9573	0.1979	0.124	-0.125
Mof_C 	C 	0.914	0.2377	0.0533	0.337
Mof_C 	C 	0.8864	0.9266	0.0096	0.337
Mof_O 	O 	0.8434	0.2056	0.2115	-0.422
Mof_O 	O 	0.0067	0.1358	0.0954	-0.598
Mof_O 	O 	0.8901	0.0852	0.1856	-0.419
Mof_O 	O 	0.9335	0.2116	0.9837	-0.404
Mof_O 	O 	0.8642	0.2898	0.0649	-0.406
Mof_O 	O 	0.8789	0.9511	0.0786	-0.394
Mof_O 	O 	0.8346	0.8832	0.974	-0.41
Mof_Zn	Zn	0.97271	0.01724	0.12536	1.225
Mof_C 	C 	0.109	0.6587	0.3208	0.348
Mof_C 	C 	0.0427	0.6979	0.376	-0.119
Mof_C 	C 	0.086	0.7377	0.4467	0.337
Mof_C 	C 	0.1136	0.4266	0.4904	0.353
Mof_O 	O 	0.1566	0.7056	0.2885	-0.422
Mof_O 	O 	0.9933	0.6358	0.4046	-0.606
Mof_O 	O 	0.1099	0.5852	0.3144	-0.417
Mof_O 	O 	0.0665	0.7116	0.5163	-0.405
Mof_O 	O 	0.1358	0.7898	0.4351	-0.406
Mof_O 	O 	0.1211	0.4511	0.4214	-0.396
Mof_O 	O 	0.1654	0.3832	0.526	-0.418
Mof_Zn	Zn	0.02729	0.51724	0.37464	1.227
Mof_C 	C 	0.0424	0.4576	0.5424	-0.208
Mof_O 	O 	0.9932	0.5068	0.4932	-0.572
Mof_Zn	Zn	0.87119	0.62881	0.37119	1.133
Mof_Zn	Zn	0.1475	0.3525	0.6475	1.17
Mof_C 	C 	0.4576	0.5424	0.0424	-0.208
Mof_O 	O 	0.5068	0.4932	0.9932	-0.572
Mof_Zn	Zn	0.62881	0.37119	0.87119	1.133
Mof_Zn	Zn	0.3525	0.6475	0.1475	1.17
Mof_C 	C 	0.9576	0.9576	0.9576	-0.19
Mof_O 	O 	0.0068	0.0068	0.0068	-0.567
Mof_Zn	Zn	0.12881	0.12881	0.12881	1.134
Mof_Zn	Zn	0.8525	0.8525	0.8525	1.17
Mof_C 	C 	0.5424	0.0424	0.4576	-0.208
Mof_O 	O 	0.4932	0.9932	0.5068	-0.572
Mof_Zn	Zn	0.37119	0.87119	0.62881	1.133
Mof_Zn	Zn	0.6475	0.1475	0.3525	1.17
Mof_Zn	Zn	0.82182	0.32182	0.17818	1.247
Mof_Zn	Zn	0.67818	0.67818	0.67818	1.247
Mof_Zn	Zn	0.17818	0.82182	0.32182	1.247
Mof_Zn	Zn	0.32182	0.17818	0.82182	1.247
_end
