data_functionalizedCrystal
_audit_creation_method	'EQeq! by Chris Wilmer'
_symmetry_space_group_name_H-M	'P1'
_symmetry_Int_Tables_number	1
_symmetry_cell_setting	triclinic
loop_
_symmetry_equiv_pos_as_xyz
  x,y,z
_cell_length_a	13.4519
_cell_length_b	13.4519
_cell_length_c	17.265
_cell_angle_alpha	90
_cell_angle_beta	90
_cell_angle_gamma	90
loop_
_atom_site_label
_atom_site_type_symbol
_atom_site_fract_x
_atom_site_fract_y
_atom_site_fract_z
_atom_site_charge
Mof_P 	P 	0.4253	0.657	0.06958	0.379
Mof_P 	P 	0.395	0.63686	0.2399	0.324
Mof_P 	P 	0.3831	0.6289	0.57985	0.337
Mof_P 	P 	0.4141	0.6517	0.7475	0.364
Mof_O 	O 	0.3253	0.6611	0.0241	-0.295
Mof_O 	O 	0.4858	0.7423	0.041	-0.203
Mof_O 	O 	0.3936	0.6907	0.1562	-0.257
Mof_O 	O 	0.2879	0.62	0.2628	-0.517
Mof_O 	O 	0.4346	0.7266	0.2922	-0.523
Mof_O 	O 	0.2799	0.6005	0.5554	-0.477
Mof_O 	O 	0.4158	0.7192	0.5273	-0.556
Mof_O 	O 	0.3713	0.6803	0.6636	-0.266
Mof_O 	O 	0.3157	0.6445	0.7962	-0.447
Mof_O 	O 	0.4734	0.7399	0.7758	-0.327
Mof_K 	K 	0.21544	0.76821	0.90782	2.125
Mof_P 	P 	0.5747	0.343	0.06958	0.377
Mof_P 	P 	0.605	0.36314	0.2399	0.324
Mof_P 	P 	0.6169	0.3711	0.57985	0.337
Mof_P 	P 	0.5859	0.3483	0.7475	0.364
Mof_O 	O 	0.6747	0.3389	0.0241	-0.294
Mof_O 	O 	0.5142	0.2577	0.041	-0.197
Mof_O 	O 	0.6064	0.3093	0.1562	-0.255
Mof_O 	O 	0.7121	0.38	0.2628	-0.52
Mof_O 	O 	0.5654	0.2734	0.2922	-0.517
Mof_O 	O 	0.7201	0.3995	0.5554	-0.482
Mof_O 	O 	0.5842	0.2808	0.5273	-0.55
Mof_O 	O 	0.6287	0.3197	0.6636	-0.265
Mof_O 	O 	0.6843	0.3555	0.7962	-0.447
Mof_O 	O 	0.5266	0.2601	0.7758	-0.321
Mof_K 	K 	0.78456	0.23179	0.90782	2.103
Mof_P 	P 	0.343	0.4253	0.06958	0.378
Mof_P 	P 	0.36314	0.395	0.2399	0.323
Mof_P 	P 	0.3711	0.3831	0.57985	0.336
Mof_P 	P 	0.3483	0.4141	0.7475	0.364
Mof_O 	O 	0.3389	0.3253	0.0241	-0.299
Mof_O 	O 	0.2577	0.4858	0.041	-0.198
Mof_O 	O 	0.3093	0.3936	0.1562	-0.255
Mof_O 	O 	0.38	0.2879	0.2628	-0.519
Mof_O 	O 	0.2734	0.4346	0.2922	-0.52
Mof_O 	O 	0.3995	0.2799	0.5554	-0.479
Mof_O 	O 	0.2808	0.4158	0.5273	-0.554
Mof_O 	O 	0.3197	0.3713	0.6636	-0.265
Mof_O 	O 	0.3555	0.3157	0.7962	-0.45
Mof_O 	O 	0.2601	0.4734	0.7758	-0.322
Mof_K 	K 	0.23179	0.21544	0.90782	2.171
Mof_P 	P 	0.657	0.5747	0.06958	0.377
Mof_P 	P 	0.63686	0.605	0.2399	0.324
Mof_P 	P 	0.6289	0.6169	0.57985	0.337
Mof_P 	P 	0.6517	0.5859	0.7475	0.364
Mof_O 	O 	0.6611	0.6747	0.0241	-0.291
Mof_O 	O 	0.7423	0.5142	0.041	-0.202
Mof_O 	O 	0.6907	0.6064	0.1562	-0.258
Mof_O 	O 	0.62	0.7121	0.2628	-0.518
Mof_O 	O 	0.7266	0.5654	0.2922	-0.52
Mof_O 	O 	0.6005	0.7201	0.5554	-0.481
Mof_O 	O 	0.7192	0.5842	0.5273	-0.553
Mof_O 	O 	0.6803	0.6287	0.6636	-0.267
Mof_O 	O 	0.6445	0.6843	0.7962	-0.445
Mof_O 	O 	0.7399	0.5266	0.7758	-0.326
Mof_K 	K 	0.76821	0.78456	0.90782	2.062
Mof_P 	P 	0.9253	0.843	0.56958	0.354
Mof_P 	P 	0.895	0.86314	0.7399	0.293
Mof_P 	P 	0.8831	0.8711	0.07985	0.309
Mof_P 	P 	0.9141	0.8483	0.2475	0.341
Mof_O 	O 	0.8253	0.8389	0.5241	-0.533
Mof_O 	O 	0.9858	0.7577	0.541	-0.357
Mof_O 	O 	0.8936	0.8093	0.6562	-0.268
Mof_O 	O 	0.7879	0.88	0.7628	-0.44
Mof_O 	O 	0.9346	0.7734	0.7922	-0.46
Mof_O 	O 	0.7799	0.8995	0.0554	-0.309
Mof_O 	O 	0.9158	0.7808	0.0273	-0.316
Mof_O 	O 	0.8713	0.8197	0.1636	-0.268
Mof_O 	O 	0.8157	0.8555	0.2962	-0.526
Mof_O 	O 	0.9734	0.7601	0.2758	-0.347
Mof_K 	K 	0.71544	0.73179	0.40782	3.196
Mof_P 	P 	0.0747	0.157	0.56958	0.387
Mof_P 	P 	0.105	0.13686	0.7399	0.326
Mof_P 	P 	0.1169	0.1289	0.07985	0.339
Mof_P 	P 	0.0859	0.1517	0.2475	0.372
Mof_O 	O 	0.1747	0.1611	0.5241	-0.521
Mof_O 	O 	0.0142	0.2423	0.541	-0.332
Mof_O 	O 	0.1064	0.1907	0.6562	-0.261
Mof_O 	O 	0.2121	0.12	0.7628	-0.43
Mof_O 	O 	0.0654	0.2266	0.7922	-0.443
Mof_O 	O 	0.2201	0.1005	0.0554	-0.298
Mof_O 	O 	0.0842	0.2192	0.0273	-0.306
Mof_O 	O 	0.1287	0.1803	0.1636	-0.263
Mof_O 	O 	0.1843	0.1445	0.2962	-0.513
Mof_O 	O 	0.0266	0.2399	0.2758	-0.323
Mof_K 	K 	0.28456	0.26821	0.40782	3.265
Mof_P 	P 	0.843	0.0747	0.56958	0.369
Mof_P 	P 	0.86314	0.105	0.7399	0.308
Mof_P 	P 	0.8711	0.1169	0.07985	0.322
Mof_P 	P 	0.8483	0.0859	0.2475	0.356
Mof_O 	O 	0.8389	0.1747	0.5241	-0.533
Mof_O 	O 	0.7577	0.0142	0.541	-0.33
Mof_O 	O 	0.8093	0.1064	0.6562	-0.262
Mof_O 	O 	0.88	0.2121	0.7628	-0.445
Mof_O 	O 	0.7734	0.0654	0.7922	-0.44
Mof_O 	O 	0.8995	0.2201	0.0554	-0.313
Mof_O 	O 	0.7808	0.0842	0.0273	-0.301
Mof_O 	O 	0.8197	0.1287	0.1636	-0.265
Mof_O 	O 	0.8555	0.1843	0.2962	-0.526
Mof_O 	O 	0.7601	0.0266	0.2758	-0.322
Mof_K 	K 	0.73179	0.28456	0.40782	3.219
Mof_P 	P 	0.157	0.9253	0.56958	0.369
Mof_P 	P 	0.13686	0.895	0.7399	0.309
Mof_P 	P 	0.1289	0.8831	0.07985	0.323
Mof_P 	P 	0.1517	0.9141	0.2475	0.355
Mof_O 	O 	0.1611	0.8253	0.5241	-0.522
Mof_O 	O 	0.2423	0.9858	0.541	-0.359
Mof_O 	O 	0.1907	0.8936	0.6562	-0.267
Mof_O 	O 	0.12	0.7879	0.7628	-0.426
Mof_O 	O 	0.2266	0.9346	0.7922	-0.465
Mof_O 	O 	0.1005	0.7799	0.0554	-0.294
Mof_O 	O 	0.2192	0.9158	0.0273	-0.322
Mof_O 	O 	0.1803	0.8713	0.1636	-0.267
Mof_O 	O 	0.1445	0.8157	0.2962	-0.513
Mof_O 	O 	0.2399	0.9734	0.2758	-0.349
Mof_K 	K 	0.26821	0.71544	0.40782	3.239
Mof_Pt	Pt	0.5	0.5	0.07308	0.163
Mof_Pt	Pt	0.5	0.5	0.23887	-0.08
Mof_Pt	Pt	0.5	0.5	0.58293	-0.007
Mof_Pt	Pt	0.5	0.5	0.74258	0.022
Mof_I 	I 	0.5	0.5	0.90216	-0.584
Mof_I 	I 	0.5	0.5	0.42027	-0.727
Mof_Pt	Pt	2.75778e-33	0	0.57308	0.047
Mof_Pt	Pt	3.5556e-33	0	0.73887	0.036
Mof_Pt	Pt	3.99077e-34	0	0.08293	0.234
Mof_Pt	Pt	-2.8727e-33	-4.04005e-33	0.24258	0.041
Mof_I 	I 	1.93528e-33	0	0.40216	-0.253
Mof_I 	I 	-3.65156e-33	0	0.92027	-0.84
_end
