data_functionalizedCrystal
_audit_creation_method	'EQeq! by Chris Wilmer'
_symmetry_space_group_name_H-M	'P1'
_symmetry_Int_Tables_number	1
_symmetry_cell_setting	triclinic
loop_
_symmetry_equiv_pos_as_xyz
  x,y,z
_cell_length_a	33.943
_cell_length_b	18.5224
_cell_length_c	21.2174
_cell_angle_alpha	90
_cell_angle_beta	116.291
_cell_angle_gamma	90
loop_
_atom_site_label
_atom_site_type_symbol
_atom_site_fract_x
_atom_site_fract_y
_atom_site_fract_z
_atom_site_charge
Mof_Cd	Cd	0.70985	0.09876	0.80078	0.519
Mof_Cd	Cd	0.32245	0.38881	0.30651	0.47
Mof_Cd	Cd	0.32203	0.44911	0.46072	0.417
Mof_C 	C 	0.6223	0.1053	0.734	0.501
Mof_C 	C 	0.5718	0.103	0.7096	-0.126
Mof_C 	C 	0.5737	0.136	0.6826	-0.238
Mof_C 	C 	0.555	0.168	0.6744	0.249
Mof_H 	H 	0.572	0.2062	0.6717	0.008
Mof_C 	C 	0.5569	0.155	0.6258	-0.079
Mof_H 	H 	0.5782	0.1638	0.6105	0.096
Mof_C 	C 	0.5001	0.167	0.6377	-0.278
Mof_H 	H 	0.4839	0.2065	0.6122	0.078
Mof_C 	C 	0.5147	0.17	0.57	-0.044
Mof_H 	H 	0.5073	0.1822	0.5232	0.05
Mof_C 	C 	0.4804	0.1096	0.6457	0.182
Mof_C 	C 	0.479	0.1586	0.613	0.178
Mof_C 	C 	0.4982	0.0464	0.6811	-0.208
Mof_H 	H 	0.4819	0.0076	0.6846	0.108
Mof_C 	C 	0.4979	0.136	0.675	-0.188
Mof_H 	H 	0.4857	0.1341	0.7066	0.084
Mof_C 	C 	0.5436	0.049	0.7109	0.103
Mof_H 	H 	0.5576	0.0073	0.7356	0.022
Mof_C 	C 	0.543	0.112	0.69	0.191
Mof_H 	H 	0.5492	0.0667	0.7099	-0.054
Mof_C 	C 	0.438	0.127	0.615	-0.016
Mof_C 	C 	0.4395	0.177	0.5794	-0.011
Mof_C 	C 	0.2847	0.294	0.4021	0.292
Mof_C 	C 	0.3017	0.2318	0.4472	-0.038
Mof_C 	C 	0.3485	0.2209	0.4851	-0.08
Mof_H 	H 	0.3681	0.2503	0.4774	0.08
Mof_C 	C 	0.3635	0.1638	0.5345	0.105
Mof_C 	C 	0.3345	0.1228	0.5498	-0.084
Mof_H 	H 	0.3453	0.0856	0.5825	0.094
Mof_C 	C 	0.2889	0.1368	0.5168	-0.034
Mof_C 	C 	0.2738	0.1913	0.4647	-0.017
Mof_H 	H 	0.2438	0.2003	0.4412	0.069
Mof_C 	C 	0.2594	0.0948	0.5337	0.287
Mof_C 	C 	0.0957	0.9158	0.0792	0.367
Mof_C 	C 	0.0441	0.9081	0.0297	-0.081
Mof_C 	C 	0.0243	0.8499	0.0486	-0
Mof_H 	H 	0.0382	0.8126	0.08	0.046
Mof_C 	C 	0.9833	0.86	0.0132	-0.062
Mof_H 	H 	0.9666	0.8585	0.0381	0.057
Mof_C 	C 	0.9619	0.8732	0.9461	-0.005
Mof_C 	C 	0.985	0.9231	0.9227	-0.063
Mof_H 	H 	0.9705	0.9439	0.8783	0.06
Mof_C 	C 	0.0277	0.9407	0.9642	0.002
Mof_H 	H 	0.0441	0.9712	0.9501	0.035
Mof_C 	C 	0.9145	0.8645	0.9105	0.127
Mof_C 	C 	0.7578	0.9692	0.8084	0.261
Mof_C 	C 	0.7786	0.9004	0.8178	-0.018
Mof_C 	C 	0.7537	0.8385	0.7891	-0.039
Mof_H 	H 	0.7235	0.8424	0.7624	0.082
Mof_C 	C 	0.7737	0.7704	0.8001	-0.006
Mof_C 	C 	0.8189	0.7676	0.8323	-0.12
Mof_H 	H 	0.8327	0.7229	0.8389	0.117
Mof_C 	C 	0.8443	0.8289	0.8552	0.153
Mof_C 	C 	0.8245	0.8953	0.8505	-0.122
Mof_H 	H 	0.8416	0.9364	0.869	0.092
Mof_C 	C 	0.7455	0.7058	0.7742	0.298
Mof_N 	N 	0.41	0.1534	0.5745	-0.116
Mof_N 	N 	0.8908	0.8244	0.8972	-0.125
Mof_O 	O 	0.6427	0.1075	0.6931	-0.155
Mof_O 	O 	0.6431	0.1421	0.7305	-0.221
Mof_O 	O 	0.6361	0.0466	0.7827	-0.245
Mof_O 	O 	0.2442	0.2992	0.3631	-0.264
Mof_O 	O 	0.3132	0.3381	0.3981	-0.281
Mof_O 	O 	0.2718	0.0557	0.5867	-0.264
Mof_O 	O 	0.2177	0.098	0.4898	-0.268
Mof_O 	O 	0.1205	0.9517	0.075	-0.349
Mof_O 	O 	0.1105	0.8808	0.1392	-0.294
Mof_O 	O 	0.7172	0.9785	0.7748	-0.237
Mof_O 	O 	0.7822	0.0266	0.8402	-0.285
Mof_O 	O 	0.7629	0.6446	0.7758	-0.266
Mof_O 	O 	0.7057	0.7139	0.7496	-0.276
Mof_N 	N 	0.3904	0.335	0.859	-0.08
Mof_O 	O 	0.3572	0.1617	0.7343	-0.134
Mof_Cd	Cd	0.20985	0.59876	0.80078	0.518
Mof_Cd	Cd	0.82245	0.88881	0.30651	0.469
Mof_Cd	Cd	0.82203	0.94911	0.46072	0.416
Mof_C 	C 	0.1223	0.6053	0.734	0.5
Mof_C 	C 	0.0718	0.603	0.7096	-0.127
Mof_C 	C 	0.0737	0.636	0.6826	-0.239
Mof_C 	C 	0.055	0.668	0.6744	0.248
Mof_H 	H 	0.072	0.7062	0.6717	0.007
Mof_C 	C 	0.0569	0.655	0.6258	-0.08
Mof_H 	H 	0.0782	0.6638	0.6105	0.095
Mof_C 	C 	0.0001	0.667	0.6377	-0.278
Mof_H 	H 	0.9839	0.7065	0.6122	0.078
Mof_C 	C 	0.0147	0.67	0.57	-0.044
Mof_H 	H 	0.0073	0.6822	0.5232	0.05
Mof_C 	C 	0.9804	0.6096	0.6457	0.182
Mof_C 	C 	0.979	0.6586	0.613	0.178
Mof_C 	C 	0.9982	0.5464	0.6811	-0.208
Mof_H 	H 	0.9819	0.5076	0.6846	0.108
Mof_C 	C 	0.9979	0.636	0.675	-0.188
Mof_H 	H 	0.9857	0.6341	0.7066	0.084
Mof_C 	C 	0.0436	0.549	0.7109	0.103
Mof_H 	H 	0.0576	0.5073	0.7356	0.022
Mof_C 	C 	0.043	0.612	0.69	0.191
Mof_H 	H 	0.0492	0.5667	0.7099	-0.054
Mof_C 	C 	0.938	0.627	0.615	-0.016
Mof_C 	C 	0.9395	0.677	0.5794	-0.011
Mof_C 	C 	0.7847	0.794	0.4021	0.292
Mof_C 	C 	0.8017	0.7318	0.4472	-0.038
Mof_C 	C 	0.8485	0.7209	0.4851	-0.08
Mof_H 	H 	0.8681	0.7503	0.4774	0.08
Mof_C 	C 	0.8635	0.6638	0.5345	0.105
Mof_C 	C 	0.8345	0.6228	0.5498	-0.084
Mof_H 	H 	0.8453	0.5856	0.5825	0.094
Mof_C 	C 	0.7889	0.6368	0.5168	-0.034
Mof_C 	C 	0.7738	0.6913	0.4647	-0.017
Mof_H 	H 	0.7438	0.7003	0.4412	0.069
Mof_C 	C 	0.7594	0.5948	0.5337	0.287
Mof_C 	C 	0.5957	0.4158	0.0792	0.366
Mof_C 	C 	0.5441	0.4081	0.0297	-0.079
Mof_C 	C 	0.5243	0.3499	0.0486	-0.002
Mof_H 	H 	0.5382	0.3126	0.08	0.047
Mof_C 	C 	0.4833	0.36	0.0132	-0.059
Mof_H 	H 	0.4666	0.3585	0.0381	0.057
Mof_C 	C 	0.4619	0.3732	0.9461	-0.007
Mof_C 	C 	0.485	0.4231	0.9227	-0.062
Mof_H 	H 	0.4705	0.4439	0.8783	0.06
Mof_C 	C 	0.5277	0.4407	0.9642	0.001
Mof_H 	H 	0.5441	0.4712	0.9501	0.035
Mof_C 	C 	0.4145	0.3645	0.9105	0.128
Mof_C 	C 	0.2578	0.4692	0.8084	0.261
Mof_C 	C 	0.2786	0.4004	0.8178	-0.018
Mof_C 	C 	0.2537	0.3385	0.7891	-0.039
Mof_H 	H 	0.2235	0.3424	0.7624	0.082
Mof_C 	C 	0.2737	0.2704	0.8001	-0.006
Mof_C 	C 	0.3189	0.2676	0.8323	-0.12
Mof_H 	H 	0.3327	0.2229	0.8389	0.117
Mof_C 	C 	0.3443	0.3289	0.8552	0.153
Mof_C 	C 	0.3245	0.3953	0.8505	-0.122
Mof_H 	H 	0.3416	0.4364	0.869	0.092
Mof_C 	C 	0.2455	0.2058	0.7742	0.298
Mof_N 	N 	0.91	0.6534	0.5745	-0.116
Mof_N 	N 	0.3908	0.3244	0.8972	-0.126
Mof_O 	O 	0.1427	0.6075	0.6931	-0.155
Mof_O 	O 	0.1431	0.6421	0.7305	-0.221
Mof_O 	O 	0.1361	0.5466	0.7827	-0.245
Mof_O 	O 	0.7442	0.7992	0.3631	-0.264
Mof_O 	O 	0.8132	0.8381	0.3981	-0.281
Mof_O 	O 	0.7718	0.5557	0.5867	-0.264
Mof_O 	O 	0.7177	0.598	0.4898	-0.268
Mof_O 	O 	0.6205	0.4517	0.075	-0.349
Mof_O 	O 	0.6105	0.3808	0.1392	-0.294
Mof_O 	O 	0.2172	0.4785	0.7748	-0.237
Mof_O 	O 	0.2822	0.5266	0.8402	-0.285
Mof_O 	O 	0.2629	0.1446	0.7758	-0.266
Mof_O 	O 	0.2057	0.2139	0.7496	-0.276
Mof_N 	N 	0.8904	0.835	0.859	-0.08
Mof_O 	O 	0.8572	0.6617	0.7343	-0.134
Mof_Cd	Cd	0.29015	0.09876	0.69922	0.518
Mof_Cd	Cd	0.67755	0.38881	0.19349	0.469
Mof_Cd	Cd	0.67797	0.44911	0.03928	0.416
Mof_C 	C 	0.3777	0.1053	0.766	0.5
Mof_C 	C 	0.4282	0.103	0.7904	-0.127
Mof_C 	C 	0.4263	0.136	0.8174	-0.239
Mof_C 	C 	0.445	0.168	0.8256	0.248
Mof_H 	H 	0.428	0.2062	0.8283	0.007
Mof_C 	C 	0.4431	0.155	0.8742	-0.08
Mof_H 	H 	0.4218	0.1638	0.8895	0.095
Mof_C 	C 	0.4999	0.167	0.8623	-0.278
Mof_H 	H 	0.5161	0.2065	0.8878	0.077
Mof_C 	C 	0.4853	0.17	0.93	-0.044
Mof_H 	H 	0.4927	0.1822	0.9768	0.05
Mof_C 	C 	0.5196	0.1096	0.8543	0.182
Mof_C 	C 	0.521	0.1586	0.887	0.178
Mof_C 	C 	0.5018	0.0464	0.8189	-0.208
Mof_H 	H 	0.5181	0.0076	0.8154	0.108
Mof_C 	C 	0.5021	0.136	0.825	-0.188
Mof_H 	H 	0.5143	0.1341	0.7934	0.085
Mof_C 	C 	0.4564	0.049	0.7891	0.103
Mof_H 	H 	0.4424	0.0073	0.7644	0.022
Mof_C 	C 	0.457	0.112	0.81	0.191
Mof_H 	H 	0.4508	0.0667	0.7901	-0.054
Mof_C 	C 	0.562	0.127	0.885	-0.016
Mof_C 	C 	0.5605	0.177	0.9206	-0.011
Mof_C 	C 	0.7153	0.294	0.0979	0.292
Mof_C 	C 	0.6983	0.2318	0.0528	-0.038
Mof_C 	C 	0.6515	0.2209	0.0149	-0.079
Mof_H 	H 	0.6319	0.2503	0.0226	0.08
Mof_C 	C 	0.6365	0.1638	0.9655	0.105
Mof_C 	C 	0.6655	0.1228	0.9502	-0.084
Mof_H 	H 	0.6547	0.0856	0.9175	0.094
Mof_C 	C 	0.7111	0.1368	0.9832	-0.035
Mof_C 	C 	0.7262	0.1913	0.0353	-0.017
Mof_H 	H 	0.7562	0.2003	0.0588	0.069
Mof_C 	C 	0.7406	0.0948	0.9663	0.287
Mof_C 	C 	0.9043	0.9158	0.4208	0.366
Mof_C 	C 	0.9559	0.9081	0.4703	-0.08
Mof_C 	C 	0.9757	0.8499	0.4514	-0.002
Mof_H 	H 	0.9618	0.8126	0.42	0.047
Mof_C 	C 	0.0167	0.86	0.4868	-0.059
Mof_H 	H 	0.0334	0.8585	0.4619	0.057
Mof_C 	C 	0.0381	0.8732	0.5539	-0.006
Mof_C 	C 	0.015	0.9231	0.5773	-0.063
Mof_H 	H 	0.0295	0.9439	0.6217	0.06
Mof_C 	C 	0.9723	0.9407	0.5358	0.001
Mof_H 	H 	0.9559	0.9712	0.5499	0.035
Mof_C 	C 	0.0855	0.8645	0.5895	0.127
Mof_C 	C 	0.2422	0.9692	0.6916	0.261
Mof_C 	C 	0.2214	0.9004	0.6822	-0.018
Mof_C 	C 	0.2463	0.8385	0.7109	-0.039
Mof_H 	H 	0.2765	0.8424	0.7376	0.082
Mof_C 	C 	0.2263	0.7704	0.6999	-0.006
Mof_C 	C 	0.1811	0.7676	0.6677	-0.12
Mof_H 	H 	0.1673	0.7229	0.6611	0.117
Mof_C 	C 	0.1557	0.8289	0.6448	0.153
Mof_C 	C 	0.1755	0.8953	0.6495	-0.122
Mof_H 	H 	0.1584	0.9364	0.631	0.092
Mof_C 	C 	0.2545	0.7058	0.7258	0.298
Mof_N 	N 	0.59	0.1534	0.9255	-0.116
Mof_N 	N 	0.1092	0.8244	0.6028	-0.126
Mof_O 	O 	0.3573	0.1075	0.8069	-0.155
Mof_O 	O 	0.3569	0.1421	0.7695	-0.221
Mof_O 	O 	0.3639	0.0466	0.7173	-0.245
Mof_O 	O 	0.7558	0.2992	0.1369	-0.264
Mof_O 	O 	0.6868	0.3381	0.1019	-0.281
Mof_O 	O 	0.7282	0.0557	0.9133	-0.264
Mof_O 	O 	0.7823	0.098	0.0102	-0.268
Mof_O 	O 	0.8795	0.9517	0.425	-0.349
Mof_O 	O 	0.8895	0.8808	0.3608	-0.294
Mof_O 	O 	0.2828	0.9785	0.7252	-0.237
Mof_O 	O 	0.2178	0.0266	0.6598	-0.285
Mof_O 	O 	0.2371	0.6446	0.7242	-0.266
Mof_O 	O 	0.2943	0.7139	0.7504	-0.276
Mof_N 	N 	0.6096	0.335	0.641	-0.08
Mof_O 	O 	0.6428	0.1617	0.7657	-0.134
Mof_Cd	Cd	0.79015	0.59876	0.69922	0.518
Mof_Cd	Cd	0.17755	0.88881	0.19349	0.469
Mof_Cd	Cd	0.17797	0.94911	0.03928	0.416
Mof_C 	C 	0.8777	0.6053	0.766	0.5
Mof_C 	C 	0.9282	0.603	0.7904	-0.127
Mof_C 	C 	0.9263	0.636	0.8174	-0.238
Mof_C 	C 	0.945	0.668	0.8256	0.248
Mof_H 	H 	0.928	0.7062	0.8283	0.007
Mof_C 	C 	0.9431	0.655	0.8742	-0.08
Mof_H 	H 	0.9218	0.6638	0.8895	0.095
Mof_C 	C 	0.9999	0.667	0.8623	-0.278
Mof_H 	H 	0.0161	0.7065	0.8878	0.077
Mof_C 	C 	0.9853	0.67	0.93	-0.044
Mof_H 	H 	0.9927	0.6822	0.9768	0.05
Mof_C 	C 	0.0196	0.6096	0.8543	0.181
Mof_C 	C 	0.021	0.6586	0.887	0.178
Mof_C 	C 	0.0018	0.5464	0.8189	-0.208
Mof_H 	H 	0.0181	0.5076	0.8154	0.108
Mof_C 	C 	0.0021	0.636	0.825	-0.187
Mof_H 	H 	0.0143	0.6341	0.7934	0.084
Mof_C 	C 	0.9564	0.549	0.7891	0.103
Mof_H 	H 	0.9424	0.5073	0.7644	0.022
Mof_C 	C 	0.957	0.612	0.81	0.191
Mof_H 	H 	0.9508	0.5667	0.7901	-0.054
Mof_C 	C 	0.062	0.627	0.885	-0.016
Mof_C 	C 	0.0605	0.677	0.9206	-0.011
Mof_C 	C 	0.2153	0.794	0.0979	0.292
Mof_C 	C 	0.1983	0.7318	0.0528	-0.038
Mof_C 	C 	0.1515	0.7209	0.0149	-0.08
Mof_H 	H 	0.1319	0.7503	0.0226	0.08
Mof_C 	C 	0.1365	0.6638	0.9655	0.106
Mof_C 	C 	0.1655	0.6228	0.9502	-0.084
Mof_H 	H 	0.1547	0.5856	0.9175	0.094
Mof_C 	C 	0.2111	0.6368	0.9832	-0.034
Mof_C 	C 	0.2262	0.6913	0.0353	-0.017
Mof_H 	H 	0.2562	0.7003	0.0588	0.069
Mof_C 	C 	0.2406	0.5948	0.9663	0.287
Mof_C 	C 	0.4043	0.4158	0.4208	0.366
Mof_C 	C 	0.4559	0.4081	0.4703	-0.08
Mof_C 	C 	0.4757	0.3499	0.4514	-0.002
Mof_H 	H 	0.4618	0.3126	0.42	0.047
Mof_C 	C 	0.5167	0.36	0.4868	-0.059
Mof_H 	H 	0.5334	0.3585	0.4619	0.057
Mof_C 	C 	0.5381	0.3732	0.5539	-0.006
Mof_C 	C 	0.515	0.4231	0.5773	-0.063
Mof_H 	H 	0.5295	0.4439	0.6217	0.06
Mof_C 	C 	0.4723	0.4407	0.5358	0.001
Mof_H 	H 	0.4559	0.4712	0.5499	0.035
Mof_C 	C 	0.5855	0.3645	0.5895	0.127
Mof_C 	C 	0.7422	0.4692	0.6916	0.261
Mof_C 	C 	0.7214	0.4004	0.6822	-0.018
Mof_C 	C 	0.7463	0.3385	0.7109	-0.039
Mof_H 	H 	0.7765	0.3424	0.7376	0.082
Mof_C 	C 	0.7263	0.2704	0.6999	-0.006
Mof_C 	C 	0.6811	0.2676	0.6677	-0.12
Mof_H 	H 	0.6673	0.2229	0.6611	0.117
Mof_C 	C 	0.6557	0.3289	0.6448	0.153
Mof_C 	C 	0.6755	0.3953	0.6495	-0.122
Mof_H 	H 	0.6584	0.4364	0.631	0.092
Mof_C 	C 	0.7545	0.2058	0.7258	0.298
Mof_N 	N 	0.09	0.6534	0.9255	-0.117
Mof_N 	N 	0.6092	0.3244	0.6028	-0.126
Mof_O 	O 	0.8573	0.6075	0.8069	-0.155
Mof_O 	O 	0.8569	0.6421	0.7695	-0.221
Mof_O 	O 	0.8639	0.5466	0.7173	-0.245
Mof_O 	O 	0.2558	0.7992	0.1369	-0.264
Mof_O 	O 	0.1868	0.8381	0.1019	-0.281
Mof_O 	O 	0.2282	0.5557	0.9133	-0.264
Mof_O 	O 	0.2823	0.598	0.0102	-0.268
Mof_O 	O 	0.3795	0.4517	0.425	-0.349
Mof_O 	O 	0.3895	0.3808	0.3608	-0.294
Mof_O 	O 	0.7828	0.4785	0.7252	-0.237
Mof_O 	O 	0.7178	0.5266	0.6598	-0.285
Mof_O 	O 	0.7371	0.1446	0.7242	-0.266
Mof_O 	O 	0.7943	0.2139	0.7504	-0.276
Mof_N 	N 	0.1096	0.835	0.641	-0.08
Mof_O 	O 	0.1428	0.6617	0.7657	-0.134
Mof_Cd	Cd	0.29015	0.90124	0.19922	0.518
Mof_Cd	Cd	0.67755	0.61119	0.69349	0.469
Mof_Cd	Cd	0.67797	0.55089	0.53928	0.416
Mof_C 	C 	0.3777	0.8947	0.266	0.5
Mof_C 	C 	0.4282	0.897	0.2904	-0.127
Mof_C 	C 	0.4263	0.864	0.3174	-0.239
Mof_C 	C 	0.445	0.832	0.3256	0.248
Mof_H 	H 	0.428	0.7938	0.3283	0.007
Mof_C 	C 	0.4431	0.845	0.3742	-0.08
Mof_H 	H 	0.4218	0.8362	0.3895	0.095
Mof_C 	C 	0.4999	0.833	0.3623	-0.278
Mof_H 	H 	0.5161	0.7935	0.3878	0.078
Mof_C 	C 	0.4853	0.83	0.43	-0.044
Mof_H 	H 	0.4927	0.8178	0.4768	0.05
Mof_C 	C 	0.5196	0.8904	0.3543	0.182
Mof_C 	C 	0.521	0.8414	0.387	0.178
Mof_C 	C 	0.5018	0.9536	0.3189	-0.208
Mof_H 	H 	0.5181	0.9924	0.3154	0.108
Mof_C 	C 	0.5021	0.864	0.325	-0.188
Mof_H 	H 	0.5143	0.8659	0.2934	0.084
Mof_C 	C 	0.4564	0.951	0.2891	0.103
Mof_H 	H 	0.4424	0.9927	0.2644	0.022
Mof_C 	C 	0.457	0.888	0.31	0.191
Mof_H 	H 	0.4508	0.9333	0.2901	-0.054
Mof_C 	C 	0.562	0.873	0.385	-0.016
Mof_C 	C 	0.5605	0.823	0.4206	-0.011
Mof_C 	C 	0.7153	0.706	0.5979	0.292
Mof_C 	C 	0.6983	0.7682	0.5528	-0.038
Mof_C 	C 	0.6515	0.7791	0.5149	-0.08
Mof_H 	H 	0.6319	0.7497	0.5226	0.08
Mof_C 	C 	0.6365	0.8362	0.4655	0.105
Mof_C 	C 	0.6655	0.8772	0.4502	-0.084
Mof_H 	H 	0.6547	0.9144	0.4175	0.094
Mof_C 	C 	0.7111	0.8632	0.4832	-0.034
Mof_C 	C 	0.7262	0.8087	0.5353	-0.017
Mof_H 	H 	0.7562	0.7997	0.5588	0.069
Mof_C 	C 	0.7406	0.9052	0.4663	0.287
Mof_C 	C 	0.9043	0.0842	0.9208	0.367
Mof_C 	C 	0.9559	0.0919	0.9703	-0.081
Mof_C 	C 	0.9757	0.1501	0.9514	-0
Mof_H 	H 	0.9618	0.1874	0.92	0.046
Mof_C 	C 	0.0167	0.14	0.9868	-0.062
Mof_H 	H 	0.0334	0.1415	0.9619	0.057
Mof_C 	C 	0.0381	0.1268	0.0539	-0.005
Mof_C 	C 	0.015	0.0769	0.0773	-0.063
Mof_H 	H 	0.0295	0.0561	0.1217	0.06
Mof_C 	C 	0.9723	0.0593	0.0358	0.002
Mof_H 	H 	0.9559	0.0288	0.0499	0.035
Mof_C 	C 	0.0855	0.1355	0.0895	0.127
Mof_C 	C 	0.2422	0.0308	0.1916	0.261
Mof_C 	C 	0.2214	0.0996	0.1822	-0.018
Mof_C 	C 	0.2463	0.1615	0.2109	-0.039
Mof_H 	H 	0.2765	0.1576	0.2376	0.082
Mof_C 	C 	0.2263	0.2296	0.1999	-0.006
Mof_C 	C 	0.1811	0.2324	0.1677	-0.12
Mof_H 	H 	0.1673	0.2771	0.1611	0.117
Mof_C 	C 	0.1557	0.1711	0.1448	0.153
Mof_C 	C 	0.1755	0.1047	0.1495	-0.122
Mof_H 	H 	0.1584	0.0636	0.131	0.092
Mof_C 	C 	0.2545	0.2942	0.2258	0.298
Mof_N 	N 	0.59	0.8466	0.4255	-0.116
Mof_N 	N 	0.1092	0.1756	0.1028	-0.125
Mof_O 	O 	0.3573	0.8925	0.3069	-0.155
Mof_O 	O 	0.3569	0.8579	0.2695	-0.221
Mof_O 	O 	0.3639	0.9534	0.2173	-0.245
Mof_O 	O 	0.7558	0.7008	0.6369	-0.264
Mof_O 	O 	0.6868	0.6619	0.6019	-0.281
Mof_O 	O 	0.7282	0.9443	0.4133	-0.264
Mof_O 	O 	0.7823	0.902	0.5102	-0.268
Mof_O 	O 	0.8795	0.0483	0.925	-0.349
Mof_O 	O 	0.8895	0.1192	0.8608	-0.294
Mof_O 	O 	0.2828	0.0215	0.2252	-0.237
Mof_O 	O 	0.2178	0.9734	0.1598	-0.285
Mof_O 	O 	0.2371	0.3554	0.2242	-0.266
Mof_O 	O 	0.2943	0.2861	0.2504	-0.276
Mof_N 	N 	0.6096	0.665	0.141	-0.08
Mof_O 	O 	0.6428	0.8383	0.2657	-0.134
Mof_Cd	Cd	0.79015	0.40124	0.19922	0.518
Mof_Cd	Cd	0.17755	0.11119	0.69349	0.469
Mof_Cd	Cd	0.17797	0.05089	0.53928	0.416
Mof_C 	C 	0.8777	0.3947	0.266	0.5
Mof_C 	C 	0.9282	0.397	0.2904	-0.127
Mof_C 	C 	0.9263	0.364	0.3174	-0.239
Mof_C 	C 	0.945	0.332	0.3256	0.248
Mof_H 	H 	0.928	0.2938	0.3283	0.007
Mof_C 	C 	0.9431	0.345	0.3742	-0.08
Mof_H 	H 	0.9218	0.3362	0.3895	0.095
Mof_C 	C 	0.9999	0.333	0.3623	-0.278
Mof_H 	H 	0.0161	0.2935	0.3878	0.078
Mof_C 	C 	0.9853	0.33	0.43	-0.044
Mof_H 	H 	0.9927	0.3178	0.4768	0.05
Mof_C 	C 	0.0196	0.3904	0.3543	0.182
Mof_C 	C 	0.021	0.3414	0.387	0.178
Mof_C 	C 	0.0018	0.4536	0.3189	-0.208
Mof_H 	H 	0.0181	0.4924	0.3154	0.108
Mof_C 	C 	0.0021	0.364	0.325	-0.188
Mof_H 	H 	0.0143	0.3659	0.2934	0.084
Mof_C 	C 	0.9564	0.451	0.2891	0.103
Mof_H 	H 	0.9424	0.4927	0.2644	0.022
Mof_C 	C 	0.957	0.388	0.31	0.191
Mof_H 	H 	0.9508	0.4333	0.2901	-0.054
Mof_C 	C 	0.062	0.373	0.385	-0.016
Mof_C 	C 	0.0605	0.323	0.4206	-0.011
Mof_C 	C 	0.2153	0.206	0.5979	0.292
Mof_C 	C 	0.1983	0.2682	0.5528	-0.038
Mof_C 	C 	0.1515	0.2791	0.5149	-0.08
Mof_H 	H 	0.1319	0.2497	0.5226	0.08
Mof_C 	C 	0.1365	0.3362	0.4655	0.105
Mof_C 	C 	0.1655	0.3772	0.4502	-0.084
Mof_H 	H 	0.1547	0.4144	0.4175	0.094
Mof_C 	C 	0.2111	0.3632	0.4832	-0.034
Mof_C 	C 	0.2262	0.3087	0.5353	-0.017
Mof_H 	H 	0.2562	0.2997	0.5588	0.069
Mof_C 	C 	0.2406	0.4052	0.4663	0.287
Mof_C 	C 	0.4043	0.5842	0.9208	0.366
Mof_C 	C 	0.4559	0.5919	0.9703	-0.079
Mof_C 	C 	0.4757	0.6501	0.9514	-0.002
Mof_H 	H 	0.4618	0.6874	0.92	0.047
Mof_C 	C 	0.5167	0.64	0.9868	-0.059
Mof_H 	H 	0.5334	0.6415	0.9619	0.057
Mof_C 	C 	0.5381	0.6268	0.0539	-0.007
Mof_C 	C 	0.515	0.5769	0.0773	-0.062
Mof_H 	H 	0.5295	0.5561	0.1217	0.06
Mof_C 	C 	0.4723	0.5593	0.0358	0.001
Mof_H 	H 	0.4559	0.5288	0.0499	0.035
Mof_C 	C 	0.5855	0.6355	0.0895	0.128
Mof_C 	C 	0.7422	0.5308	0.1916	0.261
Mof_C 	C 	0.7214	0.5996	0.1822	-0.018
Mof_C 	C 	0.7463	0.6615	0.2109	-0.039
Mof_H 	H 	0.7765	0.6576	0.2376	0.082
Mof_C 	C 	0.7263	0.7296	0.1999	-0.006
Mof_C 	C 	0.6811	0.7324	0.1677	-0.12
Mof_H 	H 	0.6673	0.7771	0.1611	0.117
Mof_C 	C 	0.6557	0.6711	0.1448	0.153
Mof_C 	C 	0.6755	0.6047	0.1495	-0.122
Mof_H 	H 	0.6584	0.5636	0.131	0.092
Mof_C 	C 	0.7545	0.7942	0.2258	0.298
Mof_N 	N 	0.09	0.3466	0.4255	-0.116
Mof_N 	N 	0.6092	0.6756	0.1028	-0.126
Mof_O 	O 	0.8573	0.3925	0.3069	-0.155
Mof_O 	O 	0.8569	0.3579	0.2695	-0.221
Mof_O 	O 	0.8639	0.4534	0.2173	-0.245
Mof_O 	O 	0.2558	0.2008	0.6369	-0.264
Mof_O 	O 	0.1868	0.1619	0.6019	-0.281
Mof_O 	O 	0.2282	0.4443	0.4133	-0.264
Mof_O 	O 	0.2823	0.402	0.5102	-0.268
Mof_O 	O 	0.3795	0.5483	0.925	-0.349
Mof_O 	O 	0.3895	0.6192	0.8608	-0.294
Mof_O 	O 	0.7828	0.5215	0.2252	-0.237
Mof_O 	O 	0.7178	0.4734	0.1598	-0.285
Mof_O 	O 	0.7371	0.8554	0.2242	-0.266
Mof_O 	O 	0.7943	0.7861	0.2504	-0.276
Mof_N 	N 	0.1096	0.165	0.141	-0.08
Mof_O 	O 	0.1428	0.3383	0.2657	-0.134
Mof_Cd	Cd	0.70985	0.90124	0.30078	0.518
Mof_Cd	Cd	0.32245	0.61119	0.80651	0.469
Mof_Cd	Cd	0.32203	0.55089	0.96072	0.416
Mof_C 	C 	0.6223	0.8947	0.234	0.5
Mof_C 	C 	0.5718	0.897	0.2096	-0.127
Mof_C 	C 	0.5737	0.864	0.1826	-0.239
Mof_C 	C 	0.555	0.832	0.1744	0.248
Mof_H 	H 	0.572	0.7938	0.1717	0.007
Mof_C 	C 	0.5569	0.845	0.1258	-0.08
Mof_H 	H 	0.5782	0.8362	0.1105	0.095
Mof_C 	C 	0.5001	0.833	0.1377	-0.278
Mof_H 	H 	0.4839	0.7935	0.1122	0.077
Mof_C 	C 	0.5147	0.83	0.07	-0.044
Mof_H 	H 	0.5073	0.8178	0.0232	0.05
Mof_C 	C 	0.4804	0.8904	0.1457	0.182
Mof_C 	C 	0.479	0.8414	0.113	0.178
Mof_C 	C 	0.4982	0.9536	0.1811	-0.208
Mof_H 	H 	0.4819	0.9924	0.1846	0.108
Mof_C 	C 	0.4979	0.864	0.175	-0.188
Mof_H 	H 	0.4857	0.8659	0.2066	0.085
Mof_C 	C 	0.5436	0.951	0.2109	0.103
Mof_H 	H 	0.5576	0.9927	0.2356	0.022
Mof_C 	C 	0.543	0.888	0.19	0.191
Mof_H 	H 	0.5492	0.9333	0.2099	-0.054
Mof_C 	C 	0.438	0.873	0.115	-0.016
Mof_C 	C 	0.4395	0.823	0.0794	-0.011
Mof_C 	C 	0.2847	0.706	0.9021	0.292
Mof_C 	C 	0.3017	0.7682	0.9472	-0.038
Mof_C 	C 	0.3485	0.7791	0.9851	-0.079
Mof_H 	H 	0.3681	0.7497	0.9774	0.08
Mof_C 	C 	0.3635	0.8362	0.0345	0.105
Mof_C 	C 	0.3345	0.8772	0.0498	-0.084
Mof_H 	H 	0.3453	0.9144	0.0825	0.094
Mof_C 	C 	0.2889	0.8632	0.0168	-0.035
Mof_C 	C 	0.2738	0.8087	0.9647	-0.017
Mof_H 	H 	0.2438	0.7997	0.9412	0.069
Mof_C 	C 	0.2594	0.9052	0.0337	0.287
Mof_C 	C 	0.0957	0.0842	0.5792	0.366
Mof_C 	C 	0.0441	0.0919	0.5297	-0.08
Mof_C 	C 	0.0243	0.1501	0.5486	-0.002
Mof_H 	H 	0.0382	0.1874	0.58	0.047
Mof_C 	C 	0.9833	0.14	0.5132	-0.059
Mof_H 	H 	0.9666	0.1415	0.5381	0.057
Mof_C 	C 	0.9619	0.1268	0.4461	-0.006
Mof_C 	C 	0.985	0.0769	0.4227	-0.063
Mof_H 	H 	0.9705	0.0561	0.3783	0.06
Mof_C 	C 	0.0277	0.0593	0.4642	0.001
Mof_H 	H 	0.0441	0.0288	0.4501	0.035
Mof_C 	C 	0.9145	0.1355	0.4105	0.127
Mof_C 	C 	0.7578	0.0308	0.3084	0.261
Mof_C 	C 	0.7786	0.0996	0.3178	-0.018
Mof_C 	C 	0.7537	0.1615	0.2891	-0.039
Mof_H 	H 	0.7235	0.1576	0.2624	0.082
Mof_C 	C 	0.7737	0.2296	0.3001	-0.006
Mof_C 	C 	0.8189	0.2324	0.3323	-0.12
Mof_H 	H 	0.8327	0.2771	0.3389	0.117
Mof_C 	C 	0.8443	0.1711	0.3552	0.153
Mof_C 	C 	0.8245	0.1047	0.3505	-0.122
Mof_H 	H 	0.8416	0.0636	0.369	0.092
Mof_C 	C 	0.7455	0.2942	0.2742	0.298
Mof_N 	N 	0.41	0.8466	0.0745	-0.116
Mof_N 	N 	0.8908	0.1756	0.3972	-0.126
Mof_O 	O 	0.6427	0.8925	0.1931	-0.155
Mof_O 	O 	0.6431	0.8579	0.2305	-0.221
Mof_O 	O 	0.6361	0.9534	0.2827	-0.245
Mof_O 	O 	0.2442	0.7008	0.8631	-0.264
Mof_O 	O 	0.3132	0.6619	0.8981	-0.281
Mof_O 	O 	0.2718	0.9443	0.0867	-0.264
Mof_O 	O 	0.2177	0.902	0.9898	-0.268
Mof_O 	O 	0.1205	0.0483	0.575	-0.349
Mof_O 	O 	0.1105	0.1192	0.6392	-0.294
Mof_O 	O 	0.7172	0.0215	0.2748	-0.237
Mof_O 	O 	0.7822	0.9734	0.3402	-0.285
Mof_O 	O 	0.7629	0.3554	0.2758	-0.266
Mof_O 	O 	0.7057	0.2861	0.2496	-0.276
Mof_N 	N 	0.3904	0.665	0.359	-0.08
Mof_O 	O 	0.3572	0.8383	0.2343	-0.134
Mof_Cd	Cd	0.20985	0.40124	0.30078	0.518
Mof_Cd	Cd	0.82245	0.11119	0.80651	0.469
Mof_Cd	Cd	0.82203	0.05089	0.96072	0.416
Mof_C 	C 	0.1223	0.3947	0.234	0.5
Mof_C 	C 	0.0718	0.397	0.2096	-0.127
Mof_C 	C 	0.0737	0.364	0.1826	-0.238
Mof_C 	C 	0.055	0.332	0.1744	0.248
Mof_H 	H 	0.072	0.2938	0.1717	0.007
Mof_C 	C 	0.0569	0.345	0.1258	-0.08
Mof_H 	H 	0.0782	0.3362	0.1105	0.095
Mof_C 	C 	0.0001	0.333	0.1377	-0.278
Mof_H 	H 	0.9839	0.2935	0.1122	0.077
Mof_C 	C 	0.0147	0.33	0.07	-0.044
Mof_H 	H 	0.0073	0.3178	0.0232	0.05
Mof_C 	C 	0.9804	0.3904	0.1457	0.181
Mof_C 	C 	0.979	0.3414	0.113	0.178
Mof_C 	C 	0.9982	0.4536	0.1811	-0.208
Mof_H 	H 	0.9819	0.4924	0.1846	0.108
Mof_C 	C 	0.9979	0.364	0.175	-0.187
Mof_H 	H 	0.9857	0.3659	0.2066	0.084
Mof_C 	C 	0.0436	0.451	0.2109	0.103
Mof_H 	H 	0.0576	0.4927	0.2356	0.022
Mof_C 	C 	0.043	0.388	0.19	0.191
Mof_H 	H 	0.0492	0.4333	0.2099	-0.054
Mof_C 	C 	0.938	0.373	0.115	-0.016
Mof_C 	C 	0.9395	0.323	0.0794	-0.011
Mof_C 	C 	0.7847	0.206	0.9021	0.292
Mof_C 	C 	0.8017	0.2682	0.9472	-0.038
Mof_C 	C 	0.8485	0.2791	0.9851	-0.08
Mof_H 	H 	0.8681	0.2497	0.9774	0.08
Mof_C 	C 	0.8635	0.3362	0.0345	0.106
Mof_C 	C 	0.8345	0.3772	0.0498	-0.084
Mof_H 	H 	0.8453	0.4144	0.0825	0.094
Mof_C 	C 	0.7889	0.3632	0.0168	-0.034
Mof_C 	C 	0.7738	0.3087	0.9647	-0.017
Mof_H 	H 	0.7438	0.2997	0.9412	0.069
Mof_C 	C 	0.7594	0.4052	0.0337	0.287
Mof_C 	C 	0.5957	0.5842	0.5792	0.366
Mof_C 	C 	0.5441	0.5919	0.5297	-0.08
Mof_C 	C 	0.5243	0.6501	0.5486	-0.002
Mof_H 	H 	0.5382	0.6874	0.58	0.047
Mof_C 	C 	0.4833	0.64	0.5132	-0.059
Mof_H 	H 	0.4666	0.6415	0.5381	0.057
Mof_C 	C 	0.4619	0.6268	0.4461	-0.006
Mof_C 	C 	0.485	0.5769	0.4227	-0.063
Mof_H 	H 	0.4705	0.5561	0.3783	0.06
Mof_C 	C 	0.5277	0.5593	0.4642	0.001
Mof_H 	H 	0.5441	0.5288	0.4501	0.035
Mof_C 	C 	0.4145	0.6355	0.4105	0.127
Mof_C 	C 	0.2578	0.5308	0.3084	0.261
Mof_C 	C 	0.2786	0.5996	0.3178	-0.018
Mof_C 	C 	0.2537	0.6615	0.2891	-0.039
Mof_H 	H 	0.2235	0.6576	0.2624	0.082
Mof_C 	C 	0.2737	0.7296	0.3001	-0.006
Mof_C 	C 	0.3189	0.7324	0.3323	-0.12
Mof_H 	H 	0.3327	0.7771	0.3389	0.117
Mof_C 	C 	0.3443	0.6711	0.3552	0.153
Mof_C 	C 	0.3245	0.6047	0.3505	-0.122
Mof_H 	H 	0.3416	0.5636	0.369	0.092
Mof_C 	C 	0.2455	0.7942	0.2742	0.298
Mof_N 	N 	0.91	0.3466	0.0745	-0.117
Mof_N 	N 	0.3908	0.6756	0.3972	-0.126
Mof_O 	O 	0.1427	0.3925	0.1931	-0.155
Mof_O 	O 	0.1431	0.3579	0.2305	-0.221
Mof_O 	O 	0.1361	0.4534	0.2827	-0.245
Mof_O 	O 	0.7442	0.2008	0.8631	-0.264
Mof_O 	O 	0.8132	0.1619	0.8981	-0.281
Mof_O 	O 	0.7718	0.4443	0.0867	-0.264
Mof_O 	O 	0.7177	0.402	0.9898	-0.268
Mof_O 	O 	0.6205	0.5483	0.575	-0.349
Mof_O 	O 	0.6105	0.6192	0.6392	-0.294
Mof_O 	O 	0.2172	0.5215	0.2748	-0.237
Mof_O 	O 	0.2822	0.4734	0.3402	-0.285
Mof_O 	O 	0.2629	0.8554	0.2758	-0.266
Mof_O 	O 	0.2057	0.7861	0.2496	-0.276
Mof_N 	N 	0.8904	0.165	0.359	-0.08
Mof_O 	O 	0.8572	0.3383	0.2343	-0.134
_end
