data_functionalizedCrystal
_audit_creation_method	'EQeq! by Chris Wilmer'
_symmetry_space_group_name_H-M	'P1'
_symmetry_Int_Tables_number	1
_symmetry_cell_setting	triclinic
loop_
_symmetry_equiv_pos_as_xyz
  x,y,z
_cell_length_a	22.3139
_cell_length_b	22.3139
_cell_length_c	26.7498
_cell_angle_alpha	65.3492
_cell_angle_beta	65.3492
_cell_angle_gamma	89.9999
loop_
_atom_site_label
_atom_site_type_symbol
_atom_site_fract_x
_atom_site_fract_y
_atom_site_fract_z
_atom_site_charge
Mof_Cd	Cd	0.80801	0.81038	0.6478	0.483
Mof_Cd	Cd	0.54419	0.54181	0.64781	0.482
Mof_Cd	Cd	0.18962	0.45581	0.3522	0.482
Mof_Cd	Cd	0.45818	0.19199	0.3522	0.482
Mof_Cd	Cd	0.20581	0.43962	0.8522	0.482
Mof_Cd	Cd	0.94199	0.70818	0.8522	0.48
Mof_Cd	Cd	0.29181	0.79419	0.14781	0.482
Mof_Cd	Cd	0.56038	0.05801	0.1478	0.476
Mof_Cd	Cd	0.875	0.76164	0.75	0.506
Mof_Cd	Cd	0.375	0.48836	0.75	0.507
Mof_Cd	Cd	0.23836	0.625	0.25	0.507
Mof_Cd	Cd	0.51164	0.125	0.25	0.505
Mof_H 	H 	0.7015	0.7905	0.5346	0.069
Mof_H 	H 	0.7629	0.0128	0.3858	0.049
Mof_H 	H 	0.8003	0.9785	0.461	0.061
Mof_H 	H 	0.6123	0.0643	0.3042	0.091
Mof_H 	H 	0.6809	0.9179	0.2584	0.052
Mof_H 	H 	0.7197	0.8835	0.3316	0.062
Mof_H 	H 	0.5969	0.7196	0.4914	0.124
Mof_H 	H 	0.6045	0.7346	0.5422	0.1
Mof_H 	H 	0.6681	0.7233	0.4922	0.111
Mof_H 	H 	0.6032	0.0982	0.4228	0.097
Mof_H 	H 	0.5641	0.0715	0.3952	0.109
Mof_H 	H 	0.6355	0.123	0.3498	0.092
Mof_H 	H 	0.073	0.8796	0.6026	0.084
Mof_H 	H 	0.1376	0.8601	0.4236	0.053
Mof_H 	H 	0.0229	0.831	0.4944	0.074
Mof_H 	H 	0.3511	0.0679	0.306	0.102
Mof_H 	H 	0.3685	0.8776	0.336	0.057
Mof_H 	H 	0.2611	0.8372	0.4194	0.039
Mof_H 	H 	0.2142	0.9608	0.5832	0.102
Mof_H 	H 	0.1535	0.897	0.6186	0.087
Mof_H 	H 	0.1437	0.971	0.582	0.111
Mof_H 	H 	0.228	0.1304	0.3932	0.086
Mof_H 	H 	0.272	0.1316	0.3276	0.079
Mof_H 	H 	0.3017	0.1138	0.376	0.093
Mof_H 	H 	0.7639	0.6749	0.5346	0.067
Mof_H 	H 	0.8513	0.6014	0.3858	0.066
Mof_H 	H 	0.7387	0.5605	0.461	0.052
Mof_H 	H 	0.0835	0.6315	0.3042	0.081
Mof_H 	H 	0.0607	0.8237	0.2584	0.043
Mof_H 	H 	0.9487	0.7849	0.3316	0.067
Mof_H 	H 	0.9117	0.789	0.4914	0.123
Mof_H 	H 	0.8533	0.7232	0.5422	0.1
Mof_H 	H 	0.8397	0.7845	0.4922	0.111
Mof_H 	H 	0.974	0.479	0.4228	0.089
Mof_H 	H 	0.0407	0.5333	0.3952	0.105
Mof_H 	H 	0.0147	0.5272	0.3498	0.088
Mof_H 	H 	0.3244	0.5178	0.6026	0.083
Mof_H 	H 	0.4388	0.7163	0.4236	0.05
Mof_H 	H 	0.4827	0.6746	0.4944	0.073
Mof_H 	H 	0.3429	0.6261	0.306	0.081
Mof_H 	H 	0.2955	0.7864	0.336	0.044
Mof_H 	H 	0.3195	0.7434	0.4194	0.05
Mof_H 	H 	0.2026	0.456	0.5832	0.097
Mof_H 	H 	0.2279	0.4844	0.6186	0.084
Mof_H 	H 	0.2743	0.447	0.582	0.104
Mof_H 	H 	0.3788	0.4764	0.3932	0.091
Mof_H 	H 	0.4004	0.5408	0.3276	0.085
Mof_H 	H 	0.3223	0.5102	0.376	0.099
Mof_H 	H 	0.2095	0.2361	0.4654	0.068
Mof_H 	H 	0.9872	0.1487	0.6142	0.058
Mof_H 	H 	0.0215	0.2613	0.539	0.056
Mof_H 	H 	0.9357	0.9165	0.6958	0.08
Mof_H 	H 	0.0821	0.9393	0.7416	0.039
Mof_H 	H 	0.1165	0.0513	0.6684	0.071
Mof_H 	H 	0.2804	0.0883	0.5086	0.121
Mof_H 	H 	0.2654	0.1467	0.4578	0.099
Mof_H 	H 	0.2767	0.1603	0.5078	0.11
Mof_H 	H 	0.9018	0.026	0.5772	0.076
Mof_H 	H 	0.9285	0.9593	0.6048	0.097
Mof_H 	H 	0.877	0.9853	0.6502	0.081
Mof_H 	H 	0.1204	0.6756	0.3974	0.082
Mof_H 	H 	0.1399	0.5612	0.5764	0.052
Mof_H 	H 	0.169	0.5173	0.5056	0.072
Mof_H 	H 	0.9321	0.6571	0.694	0.09
Mof_H 	H 	0.1224	0.7045	0.664	0.05
Mof_H 	H 	0.1628	0.6805	0.5806	0.045
Mof_H 	H 	0.0392	0.7974	0.4168	0.1
Mof_H 	H 	0.103	0.7721	0.3814	0.085
Mof_H 	H 	0.029	0.7257	0.418	0.107
Mof_H 	H 	0.8696	0.6212	0.6068	0.089
Mof_H 	H 	0.8684	0.5996	0.6724	0.083
Mof_H 	H 	0.8862	0.6777	0.624	0.096
Mof_H 	H 	0.3251	0.2985	0.4654	0.066
Mof_H 	H 	0.3986	0.2371	0.6142	0.067
Mof_H 	H 	0.4395	0.1997	0.539	0.051
Mof_H 	H 	0.3685	0.3877	0.6958	0.084
Mof_H 	H 	0.1763	0.3191	0.7416	0.046
Mof_H 	H 	0.2151	0.2803	0.6684	0.063
Mof_H 	H 	0.211	0.4031	0.5086	0.125
Mof_H 	H 	0.2768	0.3955	0.4578	0.101
Mof_H 	H 	0.2155	0.3319	0.5078	0.111
Mof_H 	H 	0.521	0.3968	0.5772	0.098
Mof_H 	H 	0.4667	0.4359	0.6048	0.11
Mof_H 	H 	0.4728	0.3645	0.6502	0.093
Mof_H 	H 	0.4822	0.927	0.3974	0.089
Mof_H 	H 	0.2837	0.8624	0.5764	0.048
Mof_H 	H 	0.3254	0.9771	0.5056	0.08
Mof_H 	H 	0.3739	0.6489	0.694	0.081
Mof_H 	H 	0.2136	0.6315	0.664	0.044
Mof_H 	H 	0.2566	0.7389	0.5806	0.051
Mof_H 	H 	0.544	0.7858	0.4168	0.097
Mof_H 	H 	0.5156	0.8465	0.3814	0.084
Mof_H 	H 	0.553	0.8563	0.418	0.105
Mof_H 	H 	0.5236	0.772	0.6068	0.092
Mof_H 	H 	0.4592	0.728	0.6724	0.086
Mof_H 	H 	0.4898	0.6983	0.624	0.099
Mof_H 	H 	0.9861	0.4595	0.9654	0.07
Mof_H 	H 	0.8987	0.2372	0.1142	0.061
Mof_H 	H 	0.0113	0.2715	0.039	0.063
Mof_H 	H 	0.6665	0.1857	0.1958	0.084
Mof_H 	H 	0.6893	0.3321	0.2416	0.045
Mof_H 	H 	0.8013	0.3665	0.1684	0.064
Mof_H 	H 	0.8383	0.5304	0.0086	0.126
Mof_H 	H 	0.8967	0.5154	0.9578	0.104
Mof_H 	H 	0.9103	0.5267	0.0078	0.112
Mof_H 	H 	0.776	0.1518	0.0772	0.097
Mof_H 	H 	0.7093	0.1785	0.1048	0.109
Mof_H 	H 	0.7353	0.127	0.1502	0.092
Mof_H 	H 	0.4256	0.3704	0.8974	0.081
Mof_H 	H 	0.3112	0.3899	0.0764	0.055
Mof_H 	H 	0.2673	0.419	0.0056	0.064
Mof_H 	H 	0.4071	0.1821	0.194	0.08
Mof_H 	H 	0.4545	0.3724	0.164	0.044
Mof_H 	H 	0.4305	0.4128	0.0806	0.049
Mof_H 	H 	0.5474	0.2892	0.9168	0.097
Mof_H 	H 	0.5221	0.353	0.8814	0.084
Mof_H 	H 	0.4757	0.279	0.918	0.105
Mof_H 	H 	0.3712	0.1196	0.1068	0.087
Mof_H 	H 	0.3496	0.1184	0.1724	0.081
Mof_H 	H 	0.4277	0.1362	0.124	0.096
Mof_H 	H 	0.0485	0.5751	0.9654	0.065
Mof_H 	H 	0.9871	0.6486	0.1142	0.06
Mof_H 	H 	0.9497	0.6895	0.039	0.054
Mof_H 	H 	0.1377	0.6185	0.1958	0.084
Mof_H 	H 	0.0691	0.4263	0.2416	0.046
Mof_H 	H 	0.0303	0.4651	0.1684	0.064
Mof_H 	H 	0.1531	0.461	0.0086	0.128
Mof_H 	H 	0.1455	0.5268	0.9578	0.108
Mof_H 	H 	0.0819	0.4655	0.0078	0.115
Mof_H 	H 	0.1468	0.771	0.0772	0.097
Mof_H 	H 	0.1859	0.7167	0.1048	0.11
Mof_H 	H 	0.1145	0.7228	0.1502	0.093
Mof_H 	H 	0.677	0.7322	0.8974	0.082
Mof_H 	H 	0.6124	0.5337	0.0764	0.054
Mof_H 	H 	0.7271	0.5754	0.0056	0.066
Mof_H 	H 	0.3989	0.6239	0.194	0.081
Mof_H 	H 	0.3815	0.4636	0.164	0.044
Mof_H 	H 	0.4889	0.5066	0.0806	0.049
Mof_H 	H 	0.5358	0.794	0.9168	0.098
Mof_H 	H 	0.5965	0.7656	0.8814	0.084
Mof_H 	H 	0.6063	0.803	0.918	0.105
Mof_H 	H 	0.522	0.7736	0.1068	0.091
Mof_H 	H 	0.478	0.7092	0.1724	0.085
Mof_H 	H 	0.4483	0.7398	0.124	0.098
Mof_H 	H 	0.4249	0.0139	0.0346	0.078
Mof_H 	H 	0.3514	0.1013	0.8858	0.053
Mof_H 	H 	0.3105	0.9887	0.961	0.081
Mof_H 	H 	0.3815	0.3335	0.8042	0.083
Mof_H 	H 	0.5737	0.3107	0.7584	0.044
Mof_H 	H 	0.5349	0.1987	0.8316	0.066
Mof_H 	H 	0.539	0.1617	0.9914	0.119
Mof_H 	H 	0.4732	0.1033	0.0422	0.091
Mof_H 	H 	0.5345	0.0897	0.9922	0.105
Mof_H 	H 	0.229	0.224	0.9228	0.099
Mof_H 	H 	0.2833	0.2907	0.8952	0.111
Mof_H 	H 	0.2772	0.2647	0.8498	0.093
Mof_H 	H 	0.2678	0.5744	0.1026	0.084
Mof_H 	H 	0.4663	0.6888	0.9236	0.047
Mof_H 	H 	0.4246	0.7327	0.9944	0.081
Mof_H 	H 	0.3761	0.5929	0.806	0.081
Mof_H 	H 	0.5364	0.5455	0.836	0.044
Mof_H 	H 	0.4934	0.5695	0.9194	0.051
Mof_H 	H 	0.206	0.4526	0.0832	0.097
Mof_H 	H 	0.2344	0.4779	0.1186	0.084
Mof_H 	H 	0.197	0.5243	0.082	0.104
Mof_H 	H 	0.2264	0.6288	0.8932	0.092
Mof_H 	H 	0.2908	0.6504	0.8276	0.086
Mof_H 	H 	0.2602	0.5723	0.876	0.099
Mof_H 	H 	0.5405	0.9515	0.0346	0.067
Mof_H 	H 	0.7628	0.0129	0.8858	0.047
Mof_H 	H 	0.7285	0.0503	0.961	0.059
Mof_H 	H 	0.8143	0.8623	0.8042	0.084
Mof_H 	H 	0.6679	0.9309	0.7584	0.046
Mof_H 	H 	0.6335	0.9697	0.8316	0.067
Mof_H 	H 	0.4696	0.8469	0.9914	0.123
Mof_H 	H 	0.4846	0.8545	0.0422	0.096
Mof_H 	H 	0.4733	0.9181	0.9922	0.111
Mof_H 	H 	0.8482	0.8532	0.9228	0.1
Mof_H 	H 	0.8215	0.8141	0.8952	0.111
Mof_H 	H 	0.873	0.8855	0.8498	0.095
Mof_H 	H 	0.6296	0.323	0.1026	0.084
Mof_H 	H 	0.6101	0.3876	0.9236	0.046
Mof_H 	H 	0.581	0.2729	0.9944	0.082
Mof_H 	H 	0.8179	0.6011	0.806	0.08
Mof_H 	H 	0.6276	0.6185	0.836	0.044
Mof_H 	H 	0.5872	0.5111	0.9194	0.051
Mof_H 	H 	0.7108	0.4642	0.0832	0.097
Mof_H 	H 	0.647	0.4035	0.1186	0.084
Mof_H 	H 	0.721	0.3937	0.082	0.104
Mof_H 	H 	0.8804	0.478	0.8932	0.09
Mof_H 	H 	0.8816	0.522	0.8276	0.084
Mof_H 	H 	0.8638	0.5517	0.876	0.098
Mof_C 	C 	0.7744	0.8557	0.5552	0.323
Mof_C 	C 	0.7544	0.8824	0.505	-0.049
Mof_C 	C 	0.7134	0.8366	0.5048	-0.084
Mof_C 	C 	0.6886	0.8576	0.4606	0.106
Mof_C 	C 	0.70747	0.92327	0.41546	-0.01
Mof_C 	C 	0.749	0.967	0.4164	-0.026
Mof_C 	C 	0.7719	0.9463	0.4616	-0.019
Mof_C 	C 	0.68404	0.94694	0.36672	0.002
Mof_C 	C 	0.6518	0.0027	0.3574	0.11
Mof_C 	C 	0.63216	0.02586	0.31128	-0.12
Mof_C 	C 	0.64133	0.99263	0.27474	-0.014
Mof_C 	C 	0.6735	0.9401	0.2834	-0.037
Mof_C 	C 	0.6957	0.9189	0.3278	-0.049
Mof_C 	C 	0.61699	0.01709	0.22722	0.264
Mof_C 	C 	0.6273	0.742	0.4992	-0.204
Mof_C 	C 	0.6085	0.0849	0.3908	-0.175
Mof_C 	C 	0.9654	0.827	0.606	0.312
Mof_C 	C 	0.03704	0.85244	0.55572	-0.015
Mof_C 	C 	0.08511	0.87841	0.56458	-0.092
Mof_C 	C 	0.1503	0.9027	0.5194	0.118
Mof_C 	C 	0.1697	0.8991	0.4656	-0
Mof_C 	C 	0.1234	0.8681	0.4586	-0.04
Mof_C 	C 	0.0556	0.8478	0.502	-0.014
Mof_C 	C 	0.2412	0.928	0.4112	-0.037
Mof_C 	C 	0.2688	0.9969	0.3776	0.174
Mof_C 	C 	0.33209	0.02079	0.32802	-0.167
Mof_C 	C 	0.36794	0.97784	0.30992	0.019
Mof_C 	C 	0.3423	0.9083	0.3458	-0.064
Mof_C 	C 	0.2789	0.8845	0.3956	-0.02
Mof_C 	C 	0.4359	0.0078	0.252	0.267
Mof_C 	C 	0.1759	0.9411	0.582	-0.181
Mof_C 	C 	0.2607	0.1093	0.3716	-0.16
Mof_C 	C 	0.6704	0.5891	0.5552	0.328
Mof_C 	C 	0.7406	0.6126	0.505	-0.06
Mof_C 	C 	0.7818	0.6586	0.5048	-0.076
Mof_C 	C 	0.8508	0.6818	0.4606	0.099
Mof_C 	C 	0.87707	0.66127	0.41546	0
Mof_C 	C 	0.8346	0.6166	0.4164	-0.057
Mof_C 	C 	0.7665	0.5921	0.4616	-0.002
Mof_C 	C 	0.94924	0.68634	0.36672	-0.004
Mof_C 	C 	0.9908	0.6399	0.3574	0.106
Mof_C 	C 	0.05656	0.66286	0.31128	-0.086
Mof_C 	C 	0.08393	0.73263	0.27474	-0.055
Mof_C 	C 	0.0431	0.7765	0.2834	-0.01
Mof_C 	C 	0.9765	0.7533	0.3278	-0.067
Mof_C 	C 	0.15579	0.75569	0.22722	0.3
Mof_C 	C 	0.8735	0.7588	0.4992	-0.204
Mof_C 	C 	0.0007	0.5243	0.3908	-0.156
Mof_C 	C 	0.4286	0.567	0.606	0.315
Mof_C 	C 	0.40724	0.59184	0.55572	-0.018
Mof_C 	C 	0.35031	0.55701	0.56458	-0.095
Mof_C 	C 	0.3303	0.5779	0.5194	0.122
Mof_C 	C 	0.3647	0.6353	0.4656	-0.013
Mof_C 	C 	0.418	0.6733	0.4586	-0.034
Mof_C 	C 	0.4424	0.6502	0.502	-0.016
Mof_C 	C 	0.3476	0.6608	0.4112	-0.009
Mof_C 	C 	0.3536	0.6255	0.3776	0.123
Mof_C 	C 	0.33989	0.65119	0.32802	-0.099
Mof_C 	C 	0.32214	0.71224	0.30992	-0.038
Mof_C 	C 	0.3119	0.7459	0.3458	-0.026
Mof_C 	C 	0.3255	0.7199	0.3956	-0.053
Mof_C 	C 	0.3121	0.7402	0.252	0.307
Mof_C 	C 	0.2421	0.4769	0.582	-0.173
Mof_C 	C 	0.3677	0.5191	0.3716	-0.176
Mof_C 	C 	0.1443	0.3296	0.4448	0.325
Mof_C 	C 	0.1176	0.2594	0.495	-0.054
Mof_C 	C 	0.1634	0.2182	0.4952	-0.082
Mof_C 	C 	0.1424	0.1492	0.5394	0.105
Mof_C 	C 	0.07673	0.12293	0.58454	-0.01
Mof_C 	C 	0.033	0.1654	0.5836	-0.041
Mof_C 	C 	0.0537	0.2335	0.5384	-0.012
Mof_C 	C 	0.05306	0.05076	0.63328	0.01
Mof_C 	C 	0.9973	0.0092	0.6426	0.093
Mof_C 	C 	0.97414	0.94344	0.68872	-0.081
Mof_C 	C 	0.00737	0.91607	0.72526	-0.052
Mof_C 	C 	0.0599	0.9569	0.7166	0.004
Mof_C 	C 	0.0811	0.0235	0.6722	-0.085
Mof_C 	C 	0.98291	0.84421	0.77278	0.29
Mof_C 	C 	0.258	0.1265	0.5008	-0.201
Mof_C 	C 	0.9151	0.9993	0.6092	-0.123
Mof_C 	C 	0.173	0.5714	0.394	0.316
Mof_C 	C 	0.14756	0.59276	0.44428	-0.02
Mof_C 	C 	0.12159	0.64969	0.43542	-0.092
Mof_C 	C 	0.0973	0.6697	0.4806	0.119
Mof_C 	C 	0.1009	0.6353	0.5344	-0.007
Mof_C 	C 	0.1319	0.582	0.5414	-0.038
Mof_C 	C 	0.1522	0.5576	0.498	-0.013
Mof_C 	C 	0.072	0.6524	0.5888	-0.021
Mof_C 	C 	0.0031	0.6464	0.6224	0.144
Mof_C 	C 	0.97921	0.66011	0.67198	-0.127
Mof_C 	C 	0.02216	0.67786	0.69008	-0.014
Mof_C 	C 	0.0917	0.6881	0.6542	-0.042
Mof_C 	C 	0.1155	0.6745	0.6044	-0.039
Mof_C 	C 	0.9922	0.6879	0.748	0.29
Mof_C 	C 	0.0589	0.7579	0.418	-0.176
Mof_C 	C 	0.8907	0.6323	0.6284	-0.169
Mof_C 	C 	0.4109	0.2256	0.4448	0.328
Mof_C 	C 	0.3874	0.2456	0.495	-0.062
Mof_C 	C 	0.3414	0.2866	0.4952	-0.075
Mof_C 	C 	0.3182	0.3114	0.5394	0.098
Mof_C 	C 	0.33873	0.29253	0.58454	0.003
Mof_C 	C 	0.3834	0.251	0.5836	-0.06
Mof_C 	C 	0.4079	0.2281	0.5384	-0.001
Mof_C 	C 	0.31366	0.31596	0.63328	-0.01
Mof_C 	C 	0.3601	0.3482	0.6426	0.114
Mof_C 	C 	0.33714	0.36784	0.68872	-0.097
Mof_C 	C 	0.26737	0.35867	0.72526	-0.048
Mof_C 	C 	0.2235	0.3265	0.7166	-0.023
Mof_C 	C 	0.2467	0.3043	0.6722	-0.054
Mof_C 	C 	0.24431	0.38301	0.77278	0.297
Mof_C 	C 	0.2412	0.3727	0.5008	-0.205
Mof_C 	C 	0.4757	0.3915	0.6092	-0.177
Mof_C 	C 	0.433	0.0346	0.394	0.301
Mof_C 	C 	0.40816	0.96296	0.44428	0.001
Mof_C 	C 	0.44299	0.91489	0.43542	-0.105
Mof_C 	C 	0.4221	0.8497	0.4806	0.129
Mof_C 	C 	0.3647	0.8303	0.5344	-0.018
Mof_C 	C 	0.3267	0.8766	0.5414	-0.025
Mof_C 	C 	0.3498	0.9444	0.498	-0.027
Mof_C 	C 	0.3392	0.7588	0.5888	-0.007
Mof_C 	C 	0.3745	0.7312	0.6224	0.122
Mof_C 	C 	0.34881	0.66791	0.67198	-0.098
Mof_C 	C 	0.28776	0.63206	0.69008	-0.039
Mof_C 	C 	0.2541	0.6577	0.6542	-0.024
Mof_C 	C 	0.2801	0.7211	0.6044	-0.054
Mof_C 	C 	0.2598	0.5641	0.748	0.307
Mof_C 	C 	0.5231	0.8241	0.418	-0.172
Mof_C 	C 	0.4809	0.7393	0.6284	-0.177
Mof_C 	C 	0.0796	0.3943	0.9448	0.318
Mof_C 	C 	0.0094	0.3676	0.995	-0.032
Mof_C 	C 	0.9682	0.4134	0.9952	-0.091
Mof_C 	C 	0.8992	0.3924	0.0394	0.103
Mof_C 	C 	0.87293	0.32673	0.08454	-0.007
Mof_C 	C 	0.9154	0.283	0.0836	-0.042
Mof_C 	C 	0.9835	0.3037	0.0384	-0.034
Mof_C 	C 	0.80076	0.30306	0.13328	-0.006
Mof_C 	C 	0.7592	0.2473	0.1426	0.112
Mof_C 	C 	0.69344	0.22414	0.18872	-0.096
Mof_C 	C 	0.66607	0.25737	0.22526	-0.049
Mof_C 	C 	0.7069	0.3099	0.2166	-0.021
Mof_C 	C 	0.7735	0.3311	0.1722	-0.057
Mof_C 	C 	0.59421	0.23291	0.27278	0.297
Mof_C 	C 	0.8765	0.508	0.0008	-0.213
Mof_C 	C 	0.7493	0.1651	0.1092	-0.176
Mof_C 	C 	0.3214	0.423	0.894	0.318
Mof_C 	C 	0.34276	0.39756	0.94428	-0.026
Mof_C 	C 	0.39969	0.37159	0.93542	-0.091
Mof_C 	C 	0.4197	0.3473	0.9806	0.123
Mof_C 	C 	0.3853	0.3509	0.0344	-0.012
Mof_C 	C 	0.332	0.3819	0.0414	-0.047
Mof_C 	C 	0.3076	0.4022	0.998	0.003
Mof_C 	C 	0.4024	0.322	0.0888	-0.011
Mof_C 	C 	0.3964	0.2531	0.1224	0.123
Mof_C 	C 	0.41011	0.22921	0.17198	-0.099
Mof_C 	C 	0.42786	0.27216	0.19008	-0.038
Mof_C 	C 	0.4381	0.3417	0.1542	-0.026
Mof_C 	C 	0.4245	0.3655	0.1044	-0.052
Mof_C 	C 	0.4379	0.2422	0.248	0.307
Mof_C 	C 	0.5079	0.3089	0.918	-0.173
Mof_C 	C 	0.3823	0.1407	0.1284	-0.171
Mof_C 	C 	0.9756	0.6609	0.9448	0.328
Mof_C 	C 	0.9956	0.6374	0.995	-0.062
Mof_C 	C 	0.0366	0.5914	0.9952	-0.064
Mof_C 	C 	0.0614	0.5682	0.0394	0.093
Mof_C 	C 	0.04253	0.58873	0.08454	0
Mof_C 	C 	0.001	0.6334	0.0836	-0.045
Mof_C 	C 	0.9781	0.6579	0.0384	-0.013
Mof_C 	C 	0.06596	0.56366	0.13328	-0.008
Mof_C 	C 	0.0982	0.6101	0.1426	0.114
Mof_C 	C 	0.11784	0.58714	0.18872	-0.096
Mof_C 	C 	0.10867	0.51737	0.22526	-0.048
Mof_C 	C 	0.0765	0.4735	0.2166	-0.022
Mof_C 	C 	0.0543	0.4967	0.1722	-0.055
Mof_C 	C 	0.13301	0.49431	0.27278	0.297
Mof_C 	C 	0.1227	0.4912	0.0008	-0.22
Mof_C 	C 	0.1415	0.7257	0.1092	-0.177
Mof_C 	C 	0.7846	0.683	0.894	0.318
Mof_C 	C 	0.71296	0.65816	0.94428	-0.024
Mof_C 	C 	0.66489	0.69299	0.93542	-0.092
Mof_C 	C 	0.5997	0.6721	0.9806	0.123
Mof_C 	C 	0.5803	0.6147	0.0344	-0.012
Mof_C 	C 	0.6266	0.5767	0.0414	-0.045
Mof_C 	C 	0.6944	0.5998	0.998	-0.001
Mof_C 	C 	0.5088	0.5892	0.0888	-0.011
Mof_C 	C 	0.4812	0.6245	0.1224	0.123
Mof_C 	C 	0.41791	0.59881	0.17198	-0.099
Mof_C 	C 	0.38206	0.53776	0.19008	-0.038
Mof_C 	C 	0.4077	0.5041	0.1542	-0.026
Mof_C 	C 	0.4711	0.5301	0.1044	-0.052
Mof_C 	C 	0.3141	0.5098	0.248	0.306
Mof_C 	C 	0.5741	0.7731	0.918	-0.173
Mof_C 	C 	0.4893	0.7309	0.1284	-0.176
Mof_C 	C 	0.3391	0.9204	0.0552	0.307
Mof_C 	C 	0.3626	0.9906	0.005	-0.005
Mof_C 	C 	0.4086	0.0318	0.0048	-0.127
Mof_C 	C 	0.4318	0.1008	0.9606	0.127
Mof_C 	C 	0.41127	0.12707	0.91546	-0.024
Mof_C 	C 	0.3666	0.0846	0.9164	-0.018
Mof_C 	C 	0.3421	0.0165	0.9616	-0.067
Mof_C 	C 	0.43634	0.19924	0.86672	0.002
Mof_C 	C 	0.3899	0.2408	0.8574	0.109
Mof_C 	C 	0.41286	0.30656	0.81128	-0.093
Mof_C 	C 	0.48263	0.33393	0.77474	-0.052
Mof_C 	C 	0.5265	0.2931	0.7834	-0.018
Mof_C 	C 	0.5033	0.2265	0.8278	-0.062
Mof_C 	C 	0.50569	0.40579	0.72722	0.298
Mof_C 	C 	0.5088	0.1235	0.9992	-0.184
Mof_C 	C 	0.2743	0.2507	0.8908	-0.179
Mof_C 	C 	0.317	0.6786	0.106	0.313
Mof_C 	C 	0.34184	0.65724	0.05572	-0.012
Mof_C 	C 	0.30701	0.60031	0.06458	-0.098
Mof_C 	C 	0.3279	0.5803	0.0194	0.121
Mof_C 	C 	0.3853	0.6147	0.9656	-0.013
Mof_C 	C 	0.4233	0.668	0.9586	-0.022
Mof_C 	C 	0.4002	0.6924	0.002	-0.033
Mof_C 	C 	0.4108	0.5976	0.9112	-0.008
Mof_C 	C 	0.3755	0.6036	0.8776	0.122
Mof_C 	C 	0.40119	0.58989	0.82802	-0.098
Mof_C 	C 	0.46224	0.57214	0.80992	-0.038
Mof_C 	C 	0.4959	0.5619	0.8458	-0.025
Mof_C 	C 	0.4699	0.5755	0.8956	-0.053
Mof_C 	C 	0.4902	0.5621	0.752	0.307
Mof_C 	C 	0.2269	0.4921	0.082	-0.171
Mof_C 	C 	0.2691	0.6177	0.8716	-0.177
Mof_C 	C 	0.6057	0.0244	0.0552	0.329
Mof_C 	C 	0.6324	0.0044	0.005	-0.07
Mof_C 	C 	0.5866	0.9634	0.0048	-0.069
Mof_C 	C 	0.6076	0.9386	0.9606	0.106
Mof_C 	C 	0.67327	0.95747	0.91546	-0.011
Mof_C 	C 	0.717	0.999	0.9164	-0.019
Mof_C 	C 	0.6963	0.0219	0.9616	-0.021
Mof_C 	C 	0.69694	0.93404	0.86672	-0.001
Mof_C 	C 	0.7527	0.9018	0.8574	0.111
Mof_C 	C 	0.77586	0.88216	0.81128	-0.093
Mof_C 	C 	0.74263	0.89133	0.77474	-0.049
Mof_C 	C 	0.6901	0.9235	0.7834	-0.018
Mof_C 	C 	0.6689	0.9457	0.8278	-0.059
Mof_C 	C 	0.76709	0.86699	0.72722	0.298
Mof_C 	C 	0.492	0.8773	0.9992	-0.196
Mof_C 	C 	0.8349	0.8585	0.8908	-0.18
Mof_C 	C 	0.577	0.2154	0.106	0.312
Mof_C 	C 	0.60244	0.28704	0.05572	-0.011
Mof_C 	C 	0.62841	0.33511	0.06458	-0.099
Mof_C 	C 	0.6527	0.4003	0.0194	0.122
Mof_C 	C 	0.6491	0.4197	0.9656	-0.014
Mof_C 	C 	0.6181	0.3734	0.9586	-0.021
Mof_C 	C 	0.5978	0.3056	0.002	-0.035
Mof_C 	C 	0.678	0.4912	0.9112	-0.008
Mof_C 	C 	0.7469	0.5188	0.8776	0.122
Mof_C 	C 	0.77079	0.58209	0.82802	-0.098
Mof_C 	C 	0.72784	0.61794	0.80992	-0.039
Mof_C 	C 	0.6583	0.5923	0.8458	-0.025
Mof_C 	C 	0.6345	0.5289	0.8956	-0.053
Mof_C 	C 	0.7578	0.6859	0.752	0.307
Mof_C 	C 	0.6911	0.4259	0.082	-0.171
Mof_C 	C 	0.8593	0.5107	0.8716	-0.175
Mof_O 	O 	0.81161	0.89801	0.55418	-0.254
Mof_O 	O 	0.75525	0.79875	0.5945	-0.308
Mof_O 	O 	0.61808	0.98318	0.20004	-0.261
Mof_O 	O 	0.59782	0.07242	0.21356	-0.293
Mof_O 	O 	0.64554	0.81364	0.45772	-0.16
Mof_O 	O 	0.64121	0.03051	0.39738	-0.171
Mof_O 	O 	0.91958	0.82078	0.59144	-0.264
Mof_O 	O 	0.95776	0.81536	0.65768	-0.297
Mof_O 	O 	0.46681	0.96511	0.23698	-0.255
Mof_O 	O 	0.4572	0.0676	0.222	-0.311
Mof_O 	O 	0.19877	0.93287	0.52886	-0.154
Mof_O 	O 	0.23168	0.03868	0.39824	-0.18
Mof_O 	O 	0.63421	0.54781	0.55418	-0.257
Mof_O 	O 	0.65025	0.60675	0.5945	-0.31
Mof_O 	O 	0.18188	0.81678	0.20004	-0.279
Mof_O 	O 	0.18862	0.71402	0.21356	-0.301
Mof_O 	O 	0.89674	0.72864	0.45772	-0.16
Mof_O 	O 	0.96141	0.57211	0.39738	-0.172
Mof_O 	O 	0.48898	0.58778	0.59144	-0.264
Mof_O 	O 	0.38456	0.52696	0.65768	-0.297
Mof_O 	O 	0.29621	0.79791	0.23698	-0.273
Mof_O 	O 	0.3208	0.7104	0.222	-0.321
Mof_O 	O 	0.27237	0.53827	0.52886	-0.159
Mof_O 	O 	0.37008	0.56308	0.39824	-0.159
Mof_O 	O 	0.10199	0.36579	0.44582	-0.256
Mof_O 	O 	0.20125	0.34975	0.4055	-0.309
Mof_O 	O 	0.01682	0.81812	0.79996	-0.272
Mof_O 	O 	0.92758	0.81138	0.78644	-0.299
Mof_O 	O 	0.18636	0.10326	0.54228	-0.163
Mof_O 	O 	0.96949	0.03859	0.60262	-0.18
Mof_O 	O 	0.17922	0.51102	0.40856	-0.264
Mof_O 	O 	0.18464	0.61544	0.34232	-0.297
Mof_O 	O 	0.03489	0.70379	0.76302	-0.266
Mof_O 	O 	0.9324	0.6792	0.778	-0.317
Mof_O 	O 	0.06713	0.72763	0.47114	-0.157
Mof_O 	O 	0.96132	0.62992	0.60176	-0.168
Mof_O 	O 	0.45219	0.18839	0.44582	-0.257
Mof_O 	O 	0.39325	0.24475	0.4055	-0.31
Mof_O 	O 	0.18322	0.38192	0.79996	-0.278
Mof_O 	O 	0.28598	0.40218	0.78644	-0.3
Mof_O 	O 	0.27136	0.35446	0.54228	-0.158
Mof_O 	O 	0.42789	0.35879	0.60262	-0.168
Mof_O 	O 	0.41222	0.08042	0.40856	-0.263
Mof_O 	O 	0.47304	0.04224	0.34232	-0.297
Mof_O 	O 	0.20209	0.53319	0.76302	-0.273
Mof_O 	O 	0.2896	0.5428	0.778	-0.321
Mof_O 	O 	0.46173	0.80123	0.47114	-0.16
Mof_O 	O 	0.43692	0.76832	0.60176	-0.157
Mof_O 	O 	0.11579	0.35199	0.94582	-0.253
Mof_O 	O 	0.09975	0.45125	0.9055	-0.306
Mof_O 	O 	0.56812	0.26682	0.29996	-0.279
Mof_O 	O 	0.56138	0.17758	0.28644	-0.3
Mof_O 	O 	0.85326	0.43636	0.04228	-0.159
Mof_O 	O 	0.78859	0.21949	0.10262	-0.168
Mof_O 	O 	0.26102	0.42922	0.90856	-0.264
Mof_O 	O 	0.36544	0.43464	0.84232	-0.298
Mof_O 	O 	0.45379	0.28489	0.26302	-0.273
Mof_O 	O 	0.4292	0.1824	0.278	-0.321
Mof_O 	O 	0.47763	0.31713	0.97114	-0.157
Mof_O 	O 	0.37992	0.21132	0.10176	-0.161
Mof_O 	O 	0.93839	0.70219	0.94582	-0.257
Mof_O 	O 	0.99475	0.64325	0.9055	-0.312
Mof_O 	O 	0.13192	0.43322	0.29996	-0.278
Mof_O 	O 	0.15218	0.53598	0.28644	-0.3
Mof_O 	O 	0.10446	0.52136	0.04228	-0.155
Mof_O 	O 	0.10879	0.67789	0.10262	-0.168
Mof_O 	O 	0.83042	0.66222	0.90856	-0.264
Mof_O 	O 	0.79224	0.72304	0.84232	-0.298
Mof_O 	O 	0.28319	0.45209	0.26302	-0.273
Mof_O 	O 	0.2928	0.5396	0.278	-0.321
Mof_O 	O 	0.55123	0.71173	0.97114	-0.158
Mof_O 	O 	0.51832	0.68692	0.10176	-0.16
Mof_O 	O 	0.29781	0.88421	0.05418	-0.253
Mof_O 	O 	0.35675	0.90025	0.0945	-0.302
Mof_O 	O 	0.56678	0.43188	0.70004	-0.279
Mof_O 	O 	0.46402	0.43862	0.71356	-0.301
Mof_O 	O 	0.47864	0.14674	0.95772	-0.168
Mof_O 	O 	0.32211	0.21141	0.89738	-0.166
Mof_O 	O 	0.33778	0.73898	0.09144	-0.265
Mof_O 	O 	0.27696	0.63456	0.15768	-0.297
Mof_O 	O 	0.54791	0.54621	0.73698	-0.273
Mof_O 	O 	0.4604	0.5708	0.722	-0.321
Mof_O 	O 	0.28827	0.52237	0.02886	-0.16
Mof_O 	O 	0.31308	0.62008	0.89824	-0.157
Mof_O 	O 	0.64801	0.06161	0.05418	-0.26
Mof_O 	O 	0.54875	0.00525	0.0945	-0.316
Mof_O 	O 	0.73318	0.86808	0.70004	-0.278
Mof_O 	O 	0.82242	0.84782	0.71356	-0.3
Mof_O 	O 	0.56364	0.89554	0.95772	-0.16
Mof_O 	O 	0.78051	0.89121	0.89738	-0.165
Mof_O 	O 	0.57078	0.16958	0.09144	-0.265
Mof_O 	O 	0.56536	0.20776	0.15768	-0.297
Mof_O 	O 	0.71511	0.71681	0.73698	-0.273
Mof_O 	O 	0.8176	0.7072	0.722	-0.321
Mof_O 	O 	0.68287	0.44877	0.02886	-0.16
Mof_O 	O 	0.78868	0.48168	0.89824	-0.158
Mof_Cd	Cd	0.75	0.25	0.5	0.487
Mof_Cd	Cd	-0	0	-0	0.474
Mof_H 	H 	0.8755	0.1334	0.389	0.071
Mof_H 	H 	0.7864	0.1827	0.2496	0.055
Mof_H 	H 	0.7489	0.2214	0.3224	0.049
Mof_H 	H 	0.9957	0.0537	0.3376	0.109
Mof_H 	H 	0.9377	0.0751	0.3832	0.1
Mof_H 	H 	0.9946	0.1317	0.3182	0.09
Mof_H 	H 	0.7355	0.4776	0.389	0.071
Mof_H 	H 	0.964	0.5677	0.2496	0.054
Mof_H 	H 	0.9287	0.4562	0.3224	0.048
Mof_H 	H 	0.6667	0.6087	0.3376	0.115
Mof_H 	H 	0.6791	0.5417	0.3832	0.104
Mof_H 	H 	0.6872	0.5501	0.3182	0.094
Mof_H 	H 	0.8666	0.2645	0.611	0.07
Mof_H 	H 	0.8173	0.036	0.7504	0.053
Mof_H 	H 	0.7786	0.0713	0.6776	0.046
Mof_H 	H 	0.9463	0.3333	0.6624	0.113
Mof_H 	H 	0.9249	0.3209	0.6168	0.103
Mof_H 	H 	0.8683	0.3128	0.6818	0.093
Mof_H 	H 	0.5224	0.1245	0.611	0.071
Mof_H 	H 	0.4323	0.2136	0.7504	0.056
Mof_H 	H 	0.5438	0.2511	0.6776	0.048
Mof_H 	H 	0.3913	0.0043	0.6624	0.111
Mof_H 	H 	0.4583	0.0623	0.6168	0.103
Mof_H 	H 	0.4499	0.0054	0.6818	0.09
Mof_H 	H 	0.0145	0.1166	0.111	0.076
Mof_H 	H 	0.786	0.0673	0.2504	0.052
Mof_H 	H 	0.8213	0.0286	0.1776	0.048
Mof_H 	H 	0.0833	0.1963	0.1624	0.112
Mof_H 	H 	0.0709	0.1749	0.1168	0.101
Mof_H 	H 	0.0628	0.1183	0.1818	0.09
Mof_H 	H 	0.8745	0.7724	0.111	0.073
Mof_H 	H 	0.9636	0.6823	0.2504	0.05
Mof_H 	H 	0.0011	0.7938	0.1776	0.057
Mof_H 	H 	0.7543	0.6413	0.1624	0.114
Mof_H 	H 	0.8123	0.7083	0.1168	0.104
Mof_H 	H 	0.7554	0.6999	0.1818	0.094
Mof_H 	H 	0.2276	0.9855	0.889	0.089
Mof_H 	H 	0.3177	0.214	0.7496	0.05
Mof_H 	H 	0.2062	0.1787	0.8224	0.054
Mof_H 	H 	0.3587	0.9167	0.8376	0.111
Mof_H 	H 	0.2917	0.9291	0.8832	0.099
Mof_H 	H 	0.3001	0.9372	0.8182	0.09
Mof_H 	H 	0.8834	0.1255	0.889	0.076
Mof_H 	H 	0.9327	0.0364	0.7496	0.043
Mof_H 	H 	0.9714	0.9989	0.8224	0.067
Mof_H 	H 	0.8037	0.2457	0.8376	0.114
Mof_H 	H 	0.8251	0.1877	0.8832	0.103
Mof_H 	H 	0.8817	0.2446	0.8182	0.092
Mof_C 	C 	0.7816	0.2047	0.4124	0.282
Mof_C 	C 	0.8077	0.1802	0.3628	-0.032
Mof_C 	C 	0.8576	0.1445	0.3604	-0.092
Mof_C 	C 	0.8816	0.1246	0.3112	0.124
Mof_C 	C 	0.85276	0.13746	0.27208	-0.011
Mof_C 	C 	0.8055	0.1725	0.2772	-0.049
Mof_C 	C 	0.7825	0.1952	0.321	-0.027
Mof_C 	C 	0.9666	0.0863	0.3398	-0.175
Mof_C 	C 	0.806	0.3829	0.4124	0.283
Mof_C 	C 	0.8295	0.457	0.3628	-0.032
Mof_C 	C 	0.782	0.4951	0.3604	-0.091
Mof_C 	C 	0.8072	0.5642	0.3112	0.123
Mof_C 	C 	0.87516	0.59046	0.27208	-0.009
Mof_C 	C 	0.9173	0.5503	0.2772	-0.051
Mof_C 	C 	0.8965	0.4838	0.321	-0.026
Mof_C 	C 	0.6936	0.5739	0.3398	-0.183
Mof_C 	C 	0.7953	0.194	0.5876	0.283
Mof_C 	C 	0.8198	0.1705	0.6372	-0.034
Mof_C 	C 	0.8555	0.218	0.6396	-0.09
Mof_C 	C 	0.8754	0.1928	0.6888	0.121
Mof_C 	C 	0.86254	0.12484	0.72792	-0.005
Mof_C 	C 	0.8275	0.0827	0.7228	-0.054
Mof_C 	C 	0.8048	0.1035	0.679	-0.024
Mof_C 	C 	0.9137	0.3064	0.6602	-0.181
Mof_C 	C 	0.6171	0.2184	0.5876	0.283
Mof_C 	C 	0.543	0.1923	0.6372	-0.034
Mof_C 	C 	0.5049	0.1424	0.6396	-0.09
Mof_C 	C 	0.4358	0.1184	0.6888	0.121
Mof_C 	C 	0.40954	0.14724	0.72792	-0.005
Mof_C 	C 	0.4497	0.1945	0.7228	-0.053
Mof_C 	C 	0.5162	0.2175	0.679	-0.024
Mof_C 	C 	0.4261	0.0334	0.6602	-0.178
Mof_C 	C 	0.944	0.0453	0.0876	0.277
Mof_C 	C 	0.9205	0.0698	0.1372	-0.028
Mof_C 	C 	0.968	0.1055	0.1396	-0.102
Mof_C 	C 	0.9428	0.1254	0.1888	0.128
Mof_C 	C 	0.87484	0.11254	0.22792	-0.016
Mof_C 	C 	0.8327	0.0775	0.2228	-0.046
Mof_C 	C 	0.8535	0.0548	0.179	-0.031
Mof_C 	C 	0.0564	0.1637	0.1602	-0.172
Mof_C 	C 	0.9684	0.8671	0.0876	0.275
Mof_C 	C 	0.9423	0.793	0.1372	-0.024
Mof_C 	C 	0.8924	0.7549	0.1396	-0.097
Mof_C 	C 	0.8684	0.6858	0.1888	0.128
Mof_C 	C 	0.89724	0.65954	0.22792	-0.018
Mof_C 	C 	0.9445	0.6997	0.2228	-0.038
Mof_C 	C 	0.9675	0.7662	0.179	-0.041
Mof_C 	C 	0.7834	0.6761	0.1602	-0.181
Mof_C 	C 	0.1329	0.056	0.9124	0.263
Mof_C 	C 	0.207	0.0795	0.8628	-0.013
Mof_C 	C 	0.2451	0.032	0.8604	-0.124
Mof_C 	C 	0.3142	0.0572	0.8112	0.139
Mof_C 	C 	0.34046	0.12516	0.77208	-0.025
Mof_C 	C 	0.3003	0.1673	0.7772	-0.034
Mof_C 	C 	0.2338	0.1465	0.821	-0.042
Mof_C 	C 	0.3239	0.9436	0.8398	-0.16
Mof_C 	C 	0.9547	0.0316	0.9124	0.263
Mof_C 	C 	0.9302	0.0577	0.8628	-0.014
Mof_C 	C 	0.8945	0.1076	0.8604	-0.105
Mof_C 	C 	0.8746	0.1316	0.8112	0.134
Mof_C 	C 	0.88746	0.10276	0.77208	-0.027
Mof_C 	C 	0.9225	0.0555	0.7772	-0.025
Mof_C 	C 	0.9452	0.0325	0.821	-0.064
Mof_C 	C 	0.8363	0.2166	0.8398	-0.18
Mof_O 	O 	0.80271	0.18541	0.45298	-0.273
Mof_O 	O 	0.74372	0.24472	0.41016	-0.268
Mof_O 	O 	0.92636	0.08426	0.31168	-0.163
Mof_O 	O 	0.74431	0.36161	0.45298	-0.273
Mof_O 	O 	0.84612	0.34512	0.41016	-0.268
Mof_O 	O 	0.76196	0.60406	0.31168	-0.158
Mof_O 	O 	0.81459	0.25569	0.54702	-0.273
Mof_O 	O 	0.75528	0.15388	0.58984	-0.269
Mof_O 	O 	0.91574	0.23804	0.68832	-0.159
Mof_O 	O 	0.63839	0.19729	0.54702	-0.273
Mof_O 	O 	0.65488	0.25628	0.58984	-0.268
Mof_O 	O 	0.39594	0.07364	0.68832	-0.16
Mof_O 	O 	0.00569	0.06459	0.04702	-0.273
Mof_O 	O 	0.90388	0.00528	0.08984	-0.272
Mof_O 	O 	0.98804	0.16574	0.18832	-0.164
Mof_O 	O 	0.94729	0.88839	0.04702	-0.27
Mof_O 	O 	0.00628	0.90488	0.08984	-0.26
Mof_O 	O 	0.82364	0.64594	0.18832	-0.16
Mof_O 	O 	0.11161	0.99431	0.95298	-0.258
Mof_O 	O 	0.09512	0.09612	0.91016	-0.262
Mof_O 	O 	0.35406	0.01196	0.81168	-0.173
Mof_O 	O 	0.93541	0.05271	0.95298	-0.269
Mof_O 	O 	0.99472	0.99372	0.91016	-0.256
Mof_O 	O 	0.83426	0.17636	0.81168	-0.162
Mof_H 	H 	0.6537	0.343	0.3886	0.105
Mof_H 	H 	0.6564	0.2888	0.4434	0.13
Mof_H 	H 	0.622	0.2414	0.4	0.12
Mof_H 	H 	0.5628	0.2825	0.4052	0.122
Mof_H 	H 	0.5618	0.2249	0.4666	0.124
Mof_H 	H 	0.6114	0.3763	0.4646	0.122
Mof_H 	H 	0.561	0.3044	0.5118	0.125
Mof_H 	H 	0.5494	0.3562	0.4552	0.119
Mof_C 	C 	0.5909	0.2608	0.4246	-0.265
Mof_C 	C 	0.5834	0.3391	0.4686	-0.286
Mof_N 	N 	0.6277	0.3088	0.428	-0.156
Mof_H 	H 	0.5719	0.8583	0.1774	0.102
Mof_H 	H 	0.5367	0.9006	0.2062	0.132
Mof_H 	H 	0.4846	0.8774	0.1548	0.121
Mof_H 	H 	0.434	0.8525	0.2264	0.124
Mof_H 	H 	0.4675	0.7994	0.2036	0.11
Mof_H 	H 	0.5679	0.8213	0.2722	0.108
Mof_H 	H 	0.5261	0.7638	0.2712	0.109
Mof_H 	H 	0.4873	0.8089	0.3026	0.112
Mof_C 	C 	0.4747	0.8458	0.1974	-0.273
Mof_C 	C 	0.5281	0.8089	0.2688	-0.261
Mof_N 	N 	0.533	0.8583	0.2086	-0.162
Mof_H 	H 	0.9577	0.2684	0.3886	0.104
Mof_H 	H 	0.9002	0.2678	0.4434	0.13
Mof_H 	H 	0.978	0.3586	0.4	0.122
Mof_H 	H 	0.032	0.3123	0.4052	0.129
Mof_H 	H 	0.9716	0.3085	0.4666	0.126
Mof_H 	H 	0.924	0.1591	0.4646	0.121
Mof_H 	H 	0.9272	0.1838	0.5118	0.124
Mof_H 	H 	0.9954	0.1886	0.4552	0.118
Mof_C 	C 	0.9845	0.3146	0.4246	-0.277
Mof_C 	C 	0.948	0.1923	0.4686	-0.286
Mof_N 	N 	0.9443	0.2632	0.428	-0.154
Mof_H 	H 	0.2507	0.9643	0.1774	0.103
Mof_H 	H 	0.2571	0.8932	0.2062	0.131
Mof_H 	H 	0.3606	0.9678	0.1548	0.124
Mof_H 	H 	0.3396	0.9211	0.2264	0.126
Mof_H 	H 	0.3289	0.997	0.2036	0.115
Mof_H 	H 	0.1599	0.9065	0.2722	0.111
Mof_H 	H 	0.2027	0.965	0.2712	0.112
Mof_H 	H 	0.2101	0.8885	0.3026	0.113
Mof_C 	C 	0.3279	0.9568	0.1974	-0.278
Mof_C 	C 	0.2031	0.9223	0.2688	-0.265
Mof_N 	N 	0.2584	0.9331	0.2086	-0.161
Mof_H 	H 	0.657	0.0423	0.6114	0.102
Mof_H 	H 	0.7112	0.0998	0.5566	0.129
Mof_H 	H 	0.7586	0.022	0.6	0.127
Mof_H 	H 	0.7175	0.968	0.5948	0.139
Mof_H 	H 	0.7751	0.0284	0.5334	0.13
Mof_H 	H 	0.6237	0.076	0.5354	0.122
Mof_H 	H 	0.6956	0.0728	0.4882	0.124
Mof_H 	H 	0.6438	0.0046	0.5448	0.116
Mof_C 	C 	0.7392	0.0155	0.5754	-0.297
Mof_C 	C 	0.6609	0.052	0.5314	-0.287
Mof_N 	N 	0.6912	0.0557	0.572	-0.151
Mof_H 	H 	0.1417	0.7493	0.8226	0.102
Mof_H 	H 	0.0994	0.7429	0.7938	0.132
Mof_H 	H 	0.1226	0.6394	0.8452	0.121
Mof_H 	H 	0.1475	0.6604	0.7736	0.124
Mof_H 	H 	0.2006	0.6711	0.7964	0.11
Mof_H 	H 	0.1787	0.8401	0.7278	0.11
Mof_H 	H 	0.2362	0.7973	0.7288	0.11
Mof_H 	H 	0.1911	0.7899	0.6974	0.113
Mof_C 	C 	0.1542	0.6721	0.8026	-0.273
Mof_C 	C 	0.1911	0.7969	0.7312	-0.263
Mof_N 	N 	0.1417	0.7416	0.7914	-0.162
Mof_H 	H 	0.7316	0.3463	0.6114	0.105
Mof_H 	H 	0.7322	0.3436	0.5566	0.13
Mof_H 	H 	0.6414	0.378	0.6	0.12
Mof_H 	H 	0.6877	0.4372	0.5948	0.122
Mof_H 	H 	0.6915	0.4382	0.5334	0.124
Mof_H 	H 	0.8409	0.3886	0.5354	0.122
Mof_H 	H 	0.8162	0.439	0.4882	0.125
Mof_H 	H 	0.8114	0.4506	0.5448	0.119
Mof_C 	C 	0.6854	0.4091	0.5754	-0.265
Mof_C 	C 	0.8077	0.4166	0.5314	-0.286
Mof_N 	N 	0.7368	0.3723	0.572	-0.156
Mof_H 	H 	0.0357	0.4281	0.8226	0.102
Mof_H 	H 	0.1068	0.4633	0.7938	0.131
Mof_H 	H 	0.0322	0.5154	0.8452	0.122
Mof_H 	H 	0.0789	0.566	0.7736	0.124
Mof_H 	H 	0.003	0.5325	0.7964	0.112
Mof_H 	H 	0.0935	0.4321	0.7278	0.109
Mof_H 	H 	0.035	0.4739	0.7288	0.11
Mof_H 	H 	0.1115	0.5127	0.6974	0.113
Mof_C 	C 	0.0432	0.5253	0.8026	-0.275
Mof_C 	C 	0.0777	0.4719	0.7312	-0.262
Mof_N 	N 	0.0669	0.467	0.7914	-0.161
Mof_H 	H 	0.7923	0.907	0.1114	0.108
Mof_H 	H 	0.8498	0.9612	0.0566	0.136
Mof_H 	H 	0.772	0.0086	0.1	0.091
Mof_H 	H 	0.718	0.9675	0.0948	0.104
Mof_H 	H 	0.7784	0.0251	0.0334	0.095
Mof_H 	H 	0.826	0.8737	0.0354	0.122
Mof_H 	H 	0.8228	0.9456	0.9882	0.131
Mof_H 	H 	0.7546	0.8938	0.0448	0.12
Mof_C 	C 	0.7655	0.9892	0.0754	-0.19
Mof_C 	C 	0.802	0.9109	0.0314	-0.289
Mof_N 	N 	0.8057	0.9412	0.072	-0.169
Mof_H 	H 	0.4993	0.3917	0.3226	0.101
Mof_H 	H 	0.4929	0.3494	0.2938	0.131
Mof_H 	H 	0.3894	0.3726	0.3452	0.12
Mof_H 	H 	0.4104	0.3975	0.2736	0.124
Mof_H 	H 	0.4211	0.4506	0.2964	0.109
Mof_H 	H 	0.5901	0.4287	0.2278	0.108
Mof_H 	H 	0.5473	0.4862	0.2288	0.109
Mof_H 	H 	0.5399	0.4411	0.1974	0.112
Mof_C 	C 	0.4221	0.4042	0.3026	-0.273
Mof_C 	C 	0.5469	0.4411	0.2312	-0.261
Mof_N 	N 	0.4916	0.3917	0.2914	-0.162
Mof_H 	H 	0.0963	0.9816	0.1114	0.108
Mof_H 	H 	0.0936	0.9822	0.0566	0.132
Mof_H 	H 	0.128	0.8914	0.1	0.12
Mof_H 	H 	0.1872	0.9377	0.0948	0.124
Mof_H 	H 	0.1882	0.9415	0.0334	0.124
Mof_H 	H 	0.1386	0.0909	0.0354	0.127
Mof_H 	H 	0.189	0.0662	0.9882	0.133
Mof_H 	H 	0.2006	0.0614	0.0448	0.123
Mof_C 	C 	0.1591	0.9354	0.0754	-0.266
Mof_C 	C 	0.1666	0.0577	0.0314	-0.312
Mof_N 	N 	0.1223	0.9868	0.072	-0.151
Mof_H 	H 	0.1781	0.2857	0.3226	0.101
Mof_H 	H 	0.2133	0.3568	0.2938	0.131
Mof_H 	H 	0.2654	0.2822	0.3452	0.12
Mof_H 	H 	0.316	0.3289	0.2736	0.124
Mof_H 	H 	0.2825	0.253	0.2964	0.11
Mof_H 	H 	0.1821	0.3435	0.2278	0.108
Mof_H 	H 	0.2239	0.285	0.2288	0.109
Mof_H 	H 	0.2627	0.3615	0.1974	0.112
Mof_C 	C 	0.2753	0.2932	0.3026	-0.273
Mof_C 	C 	0.2219	0.3277	0.2312	-0.261
Mof_N 	N 	0.217	0.3169	0.2914	-0.162
Mof_H 	H 	0.0184	0.2077	0.8886	0.106
Mof_H 	H 	0.0178	0.1502	0.9434	0.132
Mof_H 	H 	0.1086	0.228	0.9	0.12
Mof_H 	H 	0.0623	0.282	0.9052	0.123
Mof_H 	H 	0.0585	0.2216	0.9666	0.126
Mof_H 	H 	0.9091	0.174	0.9646	0.121
Mof_H 	H 	0.9338	0.1772	0.0118	0.12
Mof_H 	H 	0.9386	0.2454	0.9552	0.118
Mof_C 	C 	0.0646	0.2345	0.9246	-0.265
Mof_C 	C 	0.9423	0.198	0.9686	-0.281
Mof_N 	N 	0.0132	0.1943	0.928	-0.156
Mof_H 	H 	0.7143	0.5007	0.6774	0.101
Mof_H 	H 	0.6432	0.5071	0.7062	0.131
Mof_H 	H 	0.7178	0.6106	0.6548	0.12
Mof_H 	H 	0.6711	0.5896	0.7264	0.124
Mof_H 	H 	0.747	0.5789	0.7036	0.109
Mof_H 	H 	0.6565	0.4099	0.7722	0.108
Mof_H 	H 	0.715	0.4527	0.7712	0.109
Mof_H 	H 	0.6385	0.4601	0.8026	0.112
Mof_C 	C 	0.7068	0.5779	0.6974	-0.273
Mof_C 	C 	0.6723	0.4531	0.7688	-0.262
Mof_N 	N 	0.6831	0.5084	0.7086	-0.162
Mof_H 	H 	0.093	0.9037	0.8886	0.108
Mof_H 	H 	0.0388	0.9064	0.9434	0.135
Mof_H 	H 	0.9914	0.872	0.9	0.107
Mof_H 	H 	0.0325	0.8128	0.9052	0.114
Mof_H 	H 	0.9749	0.8118	0.9666	0.112
Mof_H 	H 	0.1263	0.8614	0.9646	0.119
Mof_H 	H 	0.0544	0.811	0.0118	0.119
Mof_H 	H 	0.1062	0.7994	0.9552	0.117
Mof_C 	C 	0.0108	0.8409	0.9246	-0.231
Mof_C 	C 	0.0891	0.8334	0.9686	-0.272
Mof_N 	N 	0.0588	0.8777	0.928	-0.164
Mof_H 	H 	0.6083	0.8219	0.6774	0.102
Mof_H 	H 	0.6506	0.7867	0.7062	0.131
Mof_H 	H 	0.6274	0.7346	0.6548	0.12
Mof_H 	H 	0.6025	0.684	0.7264	0.124
Mof_H 	H 	0.5494	0.7175	0.7036	0.11
Mof_H 	H 	0.5713	0.8179	0.7722	0.109
Mof_H 	H 	0.5138	0.7761	0.7712	0.11
Mof_H 	H 	0.5589	0.7373	0.8026	0.113
Mof_C 	C 	0.5958	0.7247	0.6974	-0.273
Mof_C 	C 	0.5589	0.7781	0.7688	-0.262
Mof_N 	N 	0.6083	0.783	0.7086	-0.162
Mof_Cl	Cl	0.9551	0.9396	0.463	-0.292
Mof_Cl	Cl	0.5819	0.5974	0.463	-0.296
Mof_Cl	Cl	0.0604	0.4181	0.537	-0.293
Mof_Cl	Cl	0.4026	0.0449	0.537	-0.301
Mof_Cl	Cl	0.1681	0.3104	0.037	-0.299
Mof_Cl	Cl	0.7949	0.6526	0.037	-0.298
Mof_Cl	Cl	0.3474	0.8319	0.963	-0.292
Mof_Cl	Cl	0.6896	0.2051	0.963	-0.293
_end
