data_functionalizedCrystal
_audit_creation_method	'EQeq! by Chris Wilmer'
_symmetry_space_group_name_H-M	'P1'
_symmetry_Int_Tables_number	1
_symmetry_cell_setting	triclinic
loop_
_symmetry_equiv_pos_as_xyz
  x,y,z
_cell_length_a	12.104
_cell_length_b	12.104
_cell_length_c	12.104
_cell_angle_alpha	90
_cell_angle_beta	90
_cell_angle_gamma	90
loop_
_atom_site_label
_atom_site_type_symbol
_atom_site_fract_x
_atom_site_fract_y
_atom_site_fract_z
_atom_site_charge
Mof_Fe	Fe	-3.5588e-33	0.5	-0	-0.253
Mof_Fe	Fe	0.5	0.5	0.5	0.614
Mof_Fe	Fe	-5.2429e-33	-3.5588e-33	0.5	-0.252
Mof_Fe	Fe	0.5	0	-0	-0.252
Mof_K 	K 	-5.2429e-33	0.5	0.5	1.704
Mof_K 	K 	-0	0	-0	0.134
Mof_K 	K 	0.5	-3.5588e-33	0.5	1.704
Mof_K 	K 	0.5	0.5	-0	1.704
Mof_C 	C 	0.9841	0.4841	0.1596	-0.973
Mof_N 	N 	0.019	0.519	0.2538	-0.958
Mof_C 	C 	0.9841	0.9841	0.6596	-1.854
Mof_N 	N 	0.019	0.019	0.7538	-1.812
Mof_C 	C 	0.4841	0.4841	0.6596	-0.021
Mof_N 	N 	0.519	0.519	0.7538	-0.046
Mof_C 	C 	0.0159	0.5159	0.1596	0.899
Mof_N 	N 	0.981	0.481	0.2538	0.82
Mof_C 	C 	0.0159	0.0159	0.6596	1.886
Mof_N 	N 	0.981	0.981	0.7538	1.737
Mof_C 	C 	0.0159	0.4841	0.8404	1.02
Mof_N 	N 	0.981	0.519	0.7462	0.834
Mof_C 	C 	0.0159	0.9841	0.3404	0.017
Mof_N 	N 	0.981	0.019	0.2462	-0.036
Mof_C 	C 	0.9841	0.5159	0.8404	-0.87
Mof_N 	N 	0.019	0.481	0.7462	-0.978
Mof_C 	C 	0.9841	0.0159	0.3404	0.017
Mof_N 	N 	0.019	0.981	0.2462	-0.036
Mof_C 	C 	0.4841	0.0159	0.8404	1.02
Mof_N 	N 	0.519	0.981	0.7462	0.834
Mof_C 	C 	0.1596	0.9841	0.4841	-0.973
Mof_N 	N 	0.2538	0.019	0.519	-0.958
Mof_C 	C 	0.6596	0.9841	0.9841	-1.854
Mof_N 	N 	0.7538	0.019	0.019	-1.812
Mof_C 	C 	0.6596	0.4841	0.4841	-0.021
Mof_N 	N 	0.7538	0.519	0.519	-0.046
Mof_C 	C 	0.1596	0.0159	0.5159	0.899
Mof_N 	N 	0.2538	0.981	0.481	0.82
Mof_C 	C 	0.6596	0.0159	0.0159	1.886
Mof_N 	N 	0.7538	0.981	0.981	1.737
Mof_C 	C 	0.8404	0.0159	0.4841	1.02
Mof_N 	N 	0.7462	0.981	0.519	0.834
Mof_C 	C 	0.3404	0.0159	0.9841	0.017
Mof_N 	N 	0.2462	0.981	0.019	-0.036
Mof_C 	C 	0.8404	0.9841	0.5159	-0.87
Mof_N 	N 	0.7462	0.019	0.481	-0.978
Mof_C 	C 	0.8404	0.4841	0.0159	1.02
Mof_N 	N 	0.7462	0.519	0.981	0.834
Mof_C 	C 	0.3404	0.9841	0.0159	0.017
Mof_N 	N 	0.2462	0.019	0.981	-0.036
Mof_C 	C 	0.4841	0.1596	0.9841	-0.973
Mof_N 	N 	0.519	0.2538	0.019	-0.958
Mof_C 	C 	0.4841	0.6596	0.4841	-0.021
Mof_N 	N 	0.519	0.7538	0.519	-0.046
Mof_C 	C 	0.5159	0.1596	0.0159	0.899
Mof_N 	N 	0.481	0.2538	0.981	0.82
Mof_C 	C 	0.5159	0.6596	0.5159	-0.033
Mof_N 	N 	0.481	0.7538	0.481	-0.076
Mof_C 	C 	0.0159	0.6596	0.0159	1.886
Mof_N 	N 	0.981	0.7538	0.981	1.737
Mof_C 	C 	0.4841	0.8404	0.0159	1.02
Mof_N 	N 	0.519	0.7462	0.981	0.834
Mof_C 	C 	0.4841	0.3404	0.5159	-0.029
Mof_N 	N 	0.519	0.2462	0.481	-0.063
Mof_C 	C 	0.5159	0.8404	0.9841	-0.87
Mof_N 	N 	0.481	0.7462	0.019	-0.978
Mof_C 	C 	0.5159	0.3404	0.4841	-0.029
Mof_N 	N 	0.481	0.2462	0.519	-0.063
Mof_C 	C 	0.0159	0.8404	0.4841	1.02
Mof_N 	N 	0.981	0.7462	0.519	0.834
Mof_C 	C 	0.4841	0.9841	0.8404	-0.865
Mof_N 	N 	0.519	0.019	0.7462	-0.963
Mof_C 	C 	0.4841	0.4841	0.3404	-0.024
Mof_N 	N 	0.519	0.519	0.2462	-0.048
Mof_C 	C 	0.5159	0.0159	0.8404	1.015
Mof_N 	N 	0.481	0.981	0.7462	0.82
Mof_C 	C 	0.5159	0.5159	0.3404	-0.035
Mof_N 	N 	0.481	0.481	0.2462	-0.078
Mof_C 	C 	0.0159	0.0159	0.3404	1.883
Mof_N 	N 	0.981	0.981	0.2462	1.733
Mof_C 	C 	0.4841	0.0159	0.1596	0.905
Mof_N 	N 	0.519	0.981	0.2538	0.835
Mof_C 	C 	0.4841	0.5159	0.6596	-0.027
Mof_N 	N 	0.519	0.481	0.7538	-0.061
Mof_C 	C 	0.5159	0.9841	0.1596	-0.978
Mof_N 	N 	0.481	0.019	0.2538	-0.972
Mof_C 	C 	0.5159	0.4841	0.6596	-0.027
Mof_N 	N 	0.481	0.519	0.7538	-0.061
Mof_C 	C 	0.0159	0.4841	0.1596	0.905
Mof_N 	N 	0.981	0.519	0.2538	0.835
Mof_C 	C 	0.9841	0.1596	0.5159	-0.978
Mof_N 	N 	0.019	0.2538	0.481	-0.972
Mof_C 	C 	0.9841	0.6596	0.0159	0.019
Mof_N 	N 	0.019	0.7538	0.981	-0.035
Mof_C 	C 	0.4841	0.1596	0.0159	0.905
Mof_N 	N 	0.519	0.2538	0.981	0.835
Mof_C 	C 	0.0159	0.1596	0.4841	0.905
Mof_N 	N 	0.981	0.2538	0.519	0.835
Mof_C 	C 	0.0159	0.6596	0.9841	0.019
Mof_N 	N 	0.981	0.7538	0.019	-0.035
Mof_C 	C 	0.0159	0.8404	0.5159	1.015
Mof_N 	N 	0.981	0.7462	0.481	0.82
Mof_C 	C 	0.0159	0.3404	0.0159	1.883
Mof_N 	N 	0.981	0.2462	0.981	1.733
Mof_C 	C 	0.9841	0.8404	0.4841	-0.865
Mof_N 	N 	0.019	0.7462	0.519	-0.963
Mof_C 	C 	0.9841	0.3404	0.9841	-1.855
Mof_N 	N 	0.019	0.2462	0.019	-1.81
Mof_C 	C 	0.4841	0.3404	0.4841	-0.024
Mof_N 	N 	0.519	0.2462	0.519	-0.048
Mof_C 	C 	0.1596	0.4841	0.0159	0.905
Mof_N 	N 	0.2538	0.519	0.981	0.835
Mof_C 	C 	0.6596	0.4841	0.5159	-0.027
Mof_N 	N 	0.7538	0.519	0.481	-0.061
Mof_C 	C 	0.1596	0.5159	0.9841	-0.978
Mof_N 	N 	0.2538	0.481	0.019	-0.972
Mof_C 	C 	0.1596	0.0159	0.4841	0.905
Mof_N 	N 	0.2538	0.981	0.519	0.835
Mof_C 	C 	0.6596	0.5159	0.4841	-0.027
Mof_N 	N 	0.7538	0.481	0.519	-0.061
Mof_C 	C 	0.8404	0.4841	0.9841	-0.865
Mof_N 	N 	0.7462	0.519	0.019	-0.963
Mof_C 	C 	0.3404	0.4841	0.4841	-0.024
Mof_N 	N 	0.2462	0.519	0.519	-0.048
Mof_C 	C 	0.8404	0.5159	0.0159	1.015
Mof_N 	N 	0.7462	0.481	0.981	0.82
Mof_C 	C 	0.3404	0.5159	0.5159	-0.035
Mof_N 	N 	0.2462	0.481	0.481	-0.078
Mof_C 	C 	0.3404	0.0159	0.0159	1.883
Mof_N 	N 	0.2462	0.981	0.981	1.733
Mof_C 	C 	0.0159	0.5159	0.8404	1.015
Mof_N 	N 	0.981	0.481	0.7462	0.82
Mof_C 	C 	0.9841	0.4841	0.8404	-0.865
Mof_N 	N 	0.019	0.519	0.7462	-0.963
Mof_C 	C 	0.9841	0.9841	0.3404	-1.855
Mof_N 	N 	0.019	0.019	0.2462	-1.81
Mof_C 	C 	0.9841	0.5159	0.1596	-0.978
Mof_N 	N 	0.019	0.481	0.2538	-0.972
Mof_C 	C 	0.9841	0.0159	0.6596	0.019
Mof_N 	N 	0.019	0.981	0.7538	-0.035
Mof_C 	C 	0.0159	0.9841	0.6596	0.019
Mof_N 	N 	0.981	0.019	0.7538	-0.035
Mof_C 	C 	0.8404	0.0159	0.5159	1.015
Mof_N 	N 	0.7462	0.981	0.481	0.82
Mof_C 	C 	0.8404	0.9841	0.4841	-0.865
Mof_N 	N 	0.7462	0.019	0.519	-0.963
Mof_C 	C 	0.3404	0.9841	0.9841	-1.855
Mof_N 	N 	0.2462	0.019	0.019	-1.81
Mof_C 	C 	0.1596	0.9841	0.5159	-0.978
Mof_N 	N 	0.2538	0.019	0.481	-0.972
Mof_C 	C 	0.6596	0.9841	0.0159	0.019
Mof_N 	N 	0.7538	0.019	0.981	-0.035
Mof_C 	C 	0.6596	0.0159	0.9841	0.019
Mof_N 	N 	0.7538	0.981	0.019	-0.035
Mof_C 	C 	0.5159	0.8404	0.0159	1.015
Mof_N 	N 	0.481	0.7462	0.981	0.82
Mof_C 	C 	0.5159	0.3404	0.5159	-0.035
Mof_N 	N 	0.481	0.2462	0.481	-0.078
Mof_C 	C 	0.4841	0.8404	0.9841	-0.865
Mof_N 	N 	0.519	0.7462	0.019	-0.963
Mof_C 	C 	0.5159	0.1596	0.9841	-0.978
Mof_N 	N 	0.481	0.2538	0.019	-0.972
Mof_C 	C 	0.5159	0.6596	0.4841	-0.027
Mof_N 	N 	0.481	0.7538	0.519	-0.061
Mof_C 	C 	0.4841	0.6596	0.5159	-0.027
Mof_N 	N 	0.519	0.7538	0.481	-0.061
Mof_C 	C 	0.5159	0.0159	0.1596	0.899
Mof_N 	N 	0.481	0.981	0.2538	0.82
Mof_C 	C 	0.5159	0.5159	0.6596	-0.033
Mof_N 	N 	0.481	0.481	0.7538	-0.076
Mof_C 	C 	0.4841	0.9841	0.1596	-0.973
Mof_N 	N 	0.519	0.019	0.2538	-0.958
Mof_C 	C 	0.5159	0.9841	0.8404	-0.87
Mof_N 	N 	0.481	0.019	0.7462	-0.978
Mof_C 	C 	0.5159	0.4841	0.3404	-0.029
Mof_N 	N 	0.481	0.519	0.2462	-0.063
Mof_C 	C 	0.4841	0.5159	0.3404	-0.029
Mof_N 	N 	0.519	0.481	0.2462	-0.063
Mof_C 	C 	0.0159	0.3404	0.9841	0.017
Mof_N 	N 	0.981	0.2462	0.019	-0.036
Mof_C 	C 	0.9841	0.8404	0.5159	-0.87
Mof_N 	N 	0.019	0.7462	0.481	-0.978
Mof_C 	C 	0.9841	0.3404	0.0159	0.017
Mof_N 	N 	0.019	0.2462	0.981	-0.036
Mof_C 	C 	0.9841	0.1596	0.4841	-0.973
Mof_N 	N 	0.019	0.2538	0.519	-0.958
Mof_C 	C 	0.9841	0.6596	0.9841	-1.854
Mof_N 	N 	0.019	0.7538	0.019	-1.812
Mof_C 	C 	0.0159	0.1596	0.5159	0.899
Mof_N 	N 	0.981	0.2538	0.481	0.82
Mof_C 	C 	0.8404	0.5159	0.9841	-0.87
Mof_N 	N 	0.7462	0.481	0.019	-0.978
Mof_C 	C 	0.3404	0.5159	0.4841	-0.029
Mof_N 	N 	0.2462	0.481	0.519	-0.063
Mof_C 	C 	0.3404	0.4841	0.5159	-0.029
Mof_N 	N 	0.2462	0.519	0.481	-0.063
Mof_C 	C 	0.1596	0.5159	0.0159	0.899
Mof_N 	N 	0.2538	0.481	0.981	0.82
Mof_C 	C 	0.6596	0.5159	0.5159	-0.033
Mof_N 	N 	0.7538	0.481	0.481	-0.076
Mof_C 	C 	0.1596	0.4841	0.9841	-0.973
Mof_N 	N 	0.2538	0.519	0.019	-0.958
_end
