data_functionalizedCrystal
_audit_creation_method	'EQeq! by Chris Wilmer'
_symmetry_space_group_name_H-M	'P1'
_symmetry_Int_Tables_number	1
_symmetry_cell_setting	triclinic
loop_
_symmetry_equiv_pos_as_xyz
  x,y,z
_cell_length_a	16.8128
_cell_length_b	16.8128
_cell_length_c	16.8128
_cell_angle_alpha	105.664
_cell_angle_beta	105.664
_cell_angle_gamma	105.664
loop_
_atom_site_label
_atom_site_type_symbol
_atom_site_fract_x
_atom_site_fract_y
_atom_site_fract_z
_atom_site_charge
Mof_Cu	Cu	0.4347	0.84992	0.6139	0.877
Mof_Cu	Cu	0.37132	0.76705	0.39007	0.87
Mof_Cu	Cu	0.28776	0.91194	0.48591	0.88
Mof_Cu	Cu	0.6139	0.4347	0.84992	0.877
Mof_Cu	Cu	0.39007	0.37132	0.76705	0.87
Mof_Cu	Cu	0.48591	0.28776	0.91194	0.88
Mof_Cu	Cu	0.84992	0.6139	0.4347	0.878
Mof_Cu	Cu	0.76705	0.39007	0.37132	0.871
Mof_Cu	Cu	0.91194	0.48591	0.28776	0.881
Mof_Cu	Cu	0.5653	0.15008	0.3861	0.878
Mof_Cu	Cu	0.62868	0.23295	0.60993	0.871
Mof_Cu	Cu	0.71224	0.08806	0.51409	0.881
Mof_Cu	Cu	0.3861	0.5653	0.15008	0.878
Mof_Cu	Cu	0.60993	0.62868	0.23295	0.871
Mof_Cu	Cu	0.51409	0.71224	0.08806	0.881
Mof_Cu	Cu	0.15008	0.3861	0.5653	0.878
Mof_Cu	Cu	0.23295	0.60993	0.62868	0.871
Mof_Cu	Cu	0.08806	0.51409	0.71224	0.881
Mof_H 	H 	0.5776	0.7559	0.6504	-0.001
Mof_H 	H 	0.5925	0.6462	0.5256	0.071
Mof_H 	H 	0.4836	0.6388	0.3848	-0.004
Mof_H 	H 	0.2584	0.7378	0.1894	-0
Mof_H 	H 	0.1533	0.8144	0.1552	0.069
Mof_H 	H 	0.1624	0.9109	0.3046	0.002
Mof_H 	H 	0.2344	0.0125	0.644	0.002
Mof_H 	H 	0.3056	0.024	0.7986	0.07
Mof_H 	H 	0.4163	0.9514	0.7965	0.003
Mof_H 	H 	0.4142	0.6513	0.7618	0.068
Mof_H 	H 	0.3788	0.7185	0.8152	0.072
Mof_H 	H 	0.5566	0.7455	0.8375	0.098
Mof_H 	H 	0.5266	0.8233	0.8824	0.108
Mof_H 	H 	0.4352	0.9138	0.5029	0.097
Mof_H 	H 	0.6504	0.5776	0.7559	-0.001
Mof_H 	H 	0.5256	0.5925	0.6462	0.071
Mof_H 	H 	0.3848	0.4836	0.6388	-0.004
Mof_H 	H 	0.1894	0.2584	0.7378	-0
Mof_H 	H 	0.1552	0.1533	0.8144	0.069
Mof_H 	H 	0.3046	0.1624	0.9109	0.002
Mof_H 	H 	0.644	0.2344	0.0125	0.002
Mof_H 	H 	0.7986	0.3056	0.024	0.07
Mof_H 	H 	0.7965	0.4163	0.9514	0.003
Mof_H 	H 	0.7618	0.4142	0.6513	0.068
Mof_H 	H 	0.8152	0.3788	0.7185	0.072
Mof_H 	H 	0.8375	0.5566	0.7455	0.098
Mof_H 	H 	0.8824	0.5266	0.8233	0.108
Mof_H 	H 	0.5029	0.4352	0.9138	0.097
Mof_H 	H 	0.7559	0.6504	0.5776	-0.001
Mof_H 	H 	0.6462	0.5256	0.5925	0.071
Mof_H 	H 	0.6388	0.3848	0.4836	-0.004
Mof_H 	H 	0.7378	0.1894	0.2584	-0
Mof_H 	H 	0.8144	0.1552	0.1533	0.069
Mof_H 	H 	0.9109	0.3046	0.1624	0.002
Mof_H 	H 	0.0125	0.644	0.2344	0.002
Mof_H 	H 	0.024	0.7986	0.3056	0.07
Mof_H 	H 	0.9514	0.7965	0.4163	0.003
Mof_H 	H 	0.6513	0.7618	0.4142	0.068
Mof_H 	H 	0.7185	0.8152	0.3788	0.072
Mof_H 	H 	0.7455	0.8375	0.5566	0.098
Mof_H 	H 	0.8233	0.8824	0.5266	0.108
Mof_H 	H 	0.9138	0.5029	0.4352	0.097
Mof_H 	H 	0.4224	0.2441	0.3496	-0.001
Mof_H 	H 	0.4075	0.3538	0.4744	0.071
Mof_H 	H 	0.5164	0.3612	0.6152	-0.004
Mof_H 	H 	0.7416	0.2622	0.8106	-0
Mof_H 	H 	0.8467	0.1856	0.8448	0.069
Mof_H 	H 	0.8376	0.0891	0.6954	0.002
Mof_H 	H 	0.7656	0.9875	0.356	0.002
Mof_H 	H 	0.6944	0.976	0.2014	0.07
Mof_H 	H 	0.5837	0.0486	0.2035	0.003
Mof_H 	H 	0.5858	0.3487	0.2382	0.068
Mof_H 	H 	0.6212	0.2815	0.1848	0.072
Mof_H 	H 	0.4434	0.2545	0.1625	0.098
Mof_H 	H 	0.4734	0.1767	0.1176	0.108
Mof_H 	H 	0.5648	0.0862	0.4971	0.097
Mof_H 	H 	0.3496	0.4224	0.2441	-0.001
Mof_H 	H 	0.4744	0.4075	0.3538	0.071
Mof_H 	H 	0.6152	0.5164	0.3612	-0.004
Mof_H 	H 	0.8106	0.7416	0.2622	-0
Mof_H 	H 	0.8448	0.8467	0.1856	0.069
Mof_H 	H 	0.6954	0.8376	0.0891	0.002
Mof_H 	H 	0.356	0.7656	0.9875	0.002
Mof_H 	H 	0.2014	0.6944	0.976	0.07
Mof_H 	H 	0.2035	0.5837	0.0486	0.003
Mof_H 	H 	0.2382	0.5858	0.3487	0.068
Mof_H 	H 	0.1848	0.6212	0.2815	0.072
Mof_H 	H 	0.1625	0.4434	0.2545	0.098
Mof_H 	H 	0.1176	0.4734	0.1767	0.108
Mof_H 	H 	0.4971	0.5648	0.0862	0.097
Mof_H 	H 	0.2441	0.3496	0.4224	-0.001
Mof_H 	H 	0.3538	0.4744	0.4075	0.071
Mof_H 	H 	0.3612	0.6152	0.5164	-0.004
Mof_H 	H 	0.2622	0.8106	0.7416	-0
Mof_H 	H 	0.1856	0.8448	0.8467	0.069
Mof_H 	H 	0.0891	0.6954	0.8376	0.002
Mof_H 	H 	0.9875	0.356	0.7656	0.002
Mof_H 	H 	0.976	0.2014	0.6944	0.07
Mof_H 	H 	0.0486	0.2035	0.5837	0.003
Mof_H 	H 	0.3487	0.2382	0.5858	0.068
Mof_H 	H 	0.2815	0.1848	0.6212	0.072
Mof_H 	H 	0.2545	0.1625	0.4434	0.098
Mof_H 	H 	0.1767	0.1176	0.4734	0.108
Mof_H 	H 	0.0862	0.4971	0.5648	0.097
Mof_C 	C 	0.5453	0.7393	0.5889	0.068
Mof_C 	C 	0.5541	0.6784	0.5207	-0.13
Mof_C 	C 	0.4939	0.6751	0.4435	0.061
Mof_C 	C 	0.2461	0.7776	0.2321	0.06
Mof_C 	C 	0.1886	0.8196	0.2122	-0.134
Mof_C 	C 	0.1937	0.872	0.2954	0.066
Mof_C 	C 	0.2787	0.9896	0.6634	0.061
Mof_C 	C 	0.3177	0.9965	0.7483	-0.137
Mof_C 	C 	0.3778	0.9561	0.7466	0.057
Mof_C 	C 	0.4093	0.7514	0.7155	0.359
Mof_C 	C 	0.4244	0.7151	0.7889	-0.211
Mof_C 	C 	0.5113	0.7582	0.8608	-0.216
Mof_C 	C 	0.5145	0.7281	0.9366	0.347
Mof_C 	C 	0.5889	0.5453	0.7393	0.068
Mof_C 	C 	0.5207	0.5541	0.6784	-0.13
Mof_C 	C 	0.4435	0.4939	0.6751	0.061
Mof_C 	C 	0.2321	0.2461	0.7776	0.06
Mof_C 	C 	0.2122	0.1886	0.8196	-0.134
Mof_C 	C 	0.2954	0.1937	0.872	0.066
Mof_C 	C 	0.6634	0.2787	0.9896	0.061
Mof_C 	C 	0.7483	0.3177	0.9965	-0.137
Mof_C 	C 	0.7466	0.3778	0.9561	0.057
Mof_C 	C 	0.7155	0.4093	0.7514	0.359
Mof_C 	C 	0.7889	0.4244	0.7151	-0.211
Mof_C 	C 	0.8608	0.5113	0.7582	-0.216
Mof_C 	C 	0.9366	0.5145	0.7281	0.347
Mof_C 	C 	0.7393	0.5889	0.5453	0.068
Mof_C 	C 	0.6784	0.5207	0.5541	-0.13
Mof_C 	C 	0.6751	0.4435	0.4939	0.061
Mof_C 	C 	0.7776	0.2321	0.2461	0.06
Mof_C 	C 	0.8196	0.2122	0.1886	-0.134
Mof_C 	C 	0.872	0.2954	0.1937	0.066
Mof_C 	C 	0.9896	0.6634	0.2787	0.061
Mof_C 	C 	0.9965	0.7483	0.3177	-0.137
Mof_C 	C 	0.9561	0.7466	0.3778	0.057
Mof_C 	C 	0.7514	0.7155	0.4093	0.359
Mof_C 	C 	0.7151	0.7889	0.4244	-0.211
Mof_C 	C 	0.7582	0.8608	0.5113	-0.216
Mof_C 	C 	0.7281	0.9366	0.5145	0.347
Mof_C 	C 	0.4547	0.2607	0.4111	0.068
Mof_C 	C 	0.4459	0.3216	0.4793	-0.13
Mof_C 	C 	0.5061	0.3249	0.5565	0.061
Mof_C 	C 	0.7539	0.2224	0.7679	0.06
Mof_C 	C 	0.8114	0.1804	0.7878	-0.134
Mof_C 	C 	0.8063	0.128	0.7046	0.066
Mof_C 	C 	0.7213	0.0104	0.3366	0.061
Mof_C 	C 	0.6823	0.0035	0.2517	-0.137
Mof_C 	C 	0.6222	0.0439	0.2534	0.057
Mof_C 	C 	0.5907	0.2486	0.2845	0.359
Mof_C 	C 	0.5756	0.2849	0.2111	-0.211
Mof_C 	C 	0.4887	0.2418	0.1392	-0.216
Mof_C 	C 	0.4855	0.2719	0.0634	0.347
Mof_C 	C 	0.4111	0.4547	0.2607	0.068
Mof_C 	C 	0.4793	0.4459	0.3216	-0.13
Mof_C 	C 	0.5565	0.5061	0.3249	0.061
Mof_C 	C 	0.7679	0.7539	0.2224	0.06
Mof_C 	C 	0.7878	0.8114	0.1804	-0.134
Mof_C 	C 	0.7046	0.8063	0.128	0.066
Mof_C 	C 	0.3366	0.7213	0.0104	0.061
Mof_C 	C 	0.2517	0.6823	0.0035	-0.137
Mof_C 	C 	0.2534	0.6222	0.0439	0.057
Mof_C 	C 	0.2845	0.5907	0.2486	0.359
Mof_C 	C 	0.2111	0.5756	0.2849	-0.211
Mof_C 	C 	0.1392	0.4887	0.2418	-0.216
Mof_C 	C 	0.0634	0.4855	0.2719	0.347
Mof_C 	C 	0.2607	0.4111	0.4547	0.068
Mof_C 	C 	0.3216	0.4793	0.4459	-0.13
Mof_C 	C 	0.3249	0.5565	0.5061	0.061
Mof_C 	C 	0.2224	0.7679	0.7539	0.06
Mof_C 	C 	0.1804	0.7878	0.8114	-0.134
Mof_C 	C 	0.128	0.7046	0.8063	0.066
Mof_C 	C 	0.0104	0.3366	0.7213	0.061
Mof_C 	C 	0.0035	0.2517	0.6823	-0.137
Mof_C 	C 	0.0439	0.2534	0.6222	0.057
Mof_C 	C 	0.2486	0.2845	0.5907	0.359
Mof_C 	C 	0.2849	0.2111	0.5756	-0.211
Mof_C 	C 	0.2418	0.1392	0.4887	-0.216
Mof_C 	C 	0.2719	0.0634	0.4855	0.347
Mof_N 	N 	0.4847	0.7715	0.5555	-0.205
Mof_N 	N 	0.4526	0.7315	0.4653	-0.209
Mof_N 	N 	0.2829	0.8006	0.3208	-0.216
Mof_N 	N 	0.2486	0.859	0.3588	-0.212
Mof_N 	N 	0.3129	0.945	0.6111	-0.211
Mof_N 	N 	0.3733	0.9241	0.6619	-0.205
Mof_N 	N 	0.5555	0.4847	0.7715	-0.205
Mof_N 	N 	0.4653	0.4526	0.7315	-0.209
Mof_N 	N 	0.3208	0.2829	0.8006	-0.216
Mof_N 	N 	0.3588	0.2486	0.859	-0.212
Mof_N 	N 	0.6111	0.3129	0.945	-0.211
Mof_N 	N 	0.6619	0.3733	0.9241	-0.205
Mof_N 	N 	0.7715	0.5555	0.4847	-0.205
Mof_N 	N 	0.7315	0.4653	0.4526	-0.209
Mof_N 	N 	0.8006	0.3208	0.2829	-0.216
Mof_N 	N 	0.859	0.3588	0.2486	-0.212
Mof_N 	N 	0.945	0.6111	0.3129	-0.211
Mof_N 	N 	0.9241	0.6619	0.3733	-0.205
Mof_N 	N 	0.5153	0.2285	0.4445	-0.205
Mof_N 	N 	0.5474	0.2685	0.5347	-0.209
Mof_N 	N 	0.7171	0.1994	0.6792	-0.216
Mof_N 	N 	0.7514	0.141	0.6412	-0.212
Mof_N 	N 	0.6871	0.055	0.3889	-0.211
Mof_N 	N 	0.6267	0.0759	0.3381	-0.205
Mof_N 	N 	0.4445	0.5153	0.2285	-0.205
Mof_N 	N 	0.5347	0.5474	0.2685	-0.209
Mof_N 	N 	0.6792	0.7171	0.1994	-0.216
Mof_N 	N 	0.6412	0.7514	0.141	-0.212
Mof_N 	N 	0.3889	0.6871	0.055	-0.211
Mof_N 	N 	0.3381	0.6267	0.0759	-0.205
Mof_N 	N 	0.2285	0.4445	0.5153	-0.205
Mof_N 	N 	0.2685	0.5347	0.5474	-0.209
Mof_N 	N 	0.1994	0.6792	0.7171	-0.216
Mof_N 	N 	0.141	0.6412	0.7514	-0.212
Mof_N 	N 	0.055	0.3889	0.6871	-0.211
Mof_N 	N 	0.0759	0.3381	0.6267	-0.205
Mof_O 	O 	0.4697	0.8192	0.722	-0.408
Mof_O 	O 	0.336	0.7147	0.6497	-0.472
Mof_O 	O 	0.5263	0.7849	0.0117	-0.399
Mof_O 	O 	0.5037	0.65	0.9256	-0.363
Mof_O 	O 	0.3841	0.8633	0.4983	-0.635
Mof_O 	O 	0.722	0.4697	0.8192	-0.408
Mof_O 	O 	0.6497	0.336	0.7147	-0.472
Mof_O 	O 	0.0117	0.5263	0.7849	-0.399
Mof_O 	O 	0.9256	0.5037	0.65	-0.363
Mof_O 	O 	0.4983	0.3841	0.8633	-0.635
Mof_O 	O 	0.8192	0.722	0.4697	-0.408
Mof_O 	O 	0.7147	0.6497	0.336	-0.472
Mof_O 	O 	0.7849	0.0117	0.5263	-0.399
Mof_O 	O 	0.65	0.9256	0.5037	-0.363
Mof_O 	O 	0.8633	0.4983	0.3841	-0.635
Mof_O 	O 	0.5303	0.1808	0.278	-0.408
Mof_O 	O 	0.664	0.2853	0.3503	-0.472
Mof_O 	O 	0.4737	0.2151	0.9883	-0.399
Mof_O 	O 	0.4963	0.35	0.0744	-0.363
Mof_O 	O 	0.6159	0.1367	0.5017	-0.635
Mof_O 	O 	0.278	0.5303	0.1808	-0.408
Mof_O 	O 	0.3503	0.664	0.2853	-0.472
Mof_O 	O 	0.9883	0.4737	0.2151	-0.399
Mof_O 	O 	0.0744	0.4963	0.35	-0.363
Mof_O 	O 	0.5017	0.6159	0.1367	-0.635
Mof_O 	O 	0.1808	0.278	0.5303	-0.408
Mof_O 	O 	0.2853	0.3503	0.664	-0.472
Mof_O 	O 	0.2151	0.9883	0.4737	-0.399
Mof_O 	O 	0.35	0.0744	0.4963	-0.363
Mof_O 	O 	0.1367	0.5017	0.6159	-0.635
_end
