data_functionalizedCrystal
_audit_creation_method	'EQeq! by Chris Wilmer'
_symmetry_space_group_name_H-M	'P1'
_symmetry_Int_Tables_number	1
_symmetry_cell_setting	triclinic
loop_
_symmetry_equiv_pos_as_xyz
  x,y,z
_cell_length_a	10.061
_cell_length_b	11.7219
_cell_length_c	13.6891
_cell_angle_alpha	66.934
_cell_angle_beta	87.182
_cell_angle_gamma	76.257
loop_
_atom_site_label
_atom_site_type_symbol
_atom_site_fract_x
_atom_site_fract_y
_atom_site_fract_z
_atom_site_charge
Mof_Ce	Ce	0.23519	0.52848	0.50339	2.307
Mof_N 	N 	0.4581	0.1774	0.0146	-0.113
Mof_N 	N 	0.8045	0.0038	0.0202	-0.122
Mof_N 	N 	0.1508	0.5578	0.0051	-0.114
Mof_O 	O 	0.4352	0.4425	0.6244	-0.632
Mof_O 	O 	0.6583	0.3452	0.6577	-0.598
Mof_O 	O 	0.7918	0.6907	0.3926	-0.526
Mof_O 	O 	0.5976	0.837	0.3728	-0.323
Mof_O 	O 	0.0806	0.5109	0.3838	-0.664
Mof_O 	O 	0.8961	0.472	0.3369	-0.591
Mof_C 	C 	0.5362	0.3626	0.6862	0.481
Mof_C 	C 	0.5784	0.1425	0.9755	0.035
Mof_C 	C 	0.6086	0.2001	0.8698	-0.011
Mof_H 	H 	0.6942	0.1734	0.8465	0.041
Mof_C 	C 	0.5106	0.2964	0.8005	-0.136
Mof_C 	C 	0.3821	0.3348	0.8406	-0.004
Mof_H 	H 	0.3129	0.4004	0.7964	0.027
Mof_C 	C 	0.3638	0.2723	0.9457	0.007
Mof_H 	H 	0.2795	0.2975	0.9716	0.039
Mof_C 	C 	0.7075	0.7947	0.3376	0.36
Mof_C 	C 	0.6804	0.0321	0.0542	0.066
Mof_C 	C 	0.6461	0.9665	0.1564	-0.057
Mof_H 	H 	0.5576	0.9886	0.1772	0.066
Mof_C 	C 	0.7422	0.8684	0.2276	-0.077
Mof_C 	C 	0.8749	0.8368	0.1927	-0.03
Mof_H 	H 	0.9439	0.7725	0.2383	0.026
Mof_C 	C 	0.898	0.9055	0.0878	0.014
Mof_H 	H 	0.9834	0.8822	0.0626	0.035
Mof_C 	C 	0.0092	0.4983	0.3191	0.54
Mof_C 	C 	0.0362	0.5123	0.0396	0.034
Mof_C 	C 	0.9898	0.4939	0.1379	-0.004
Mof_H 	H 	0.9094	0.4662	0.157	0.04
Mof_C 	C 	0.0618	0.5163	0.2113	-0.166
Mof_C 	C 	0.1785	0.5612	0.177	0.018
Mof_H 	H 	0.2295	0.5792	0.2217	0.001
Mof_C 	C 	0.2173	0.579	0.0747	-0.01
Mof_H 	H 	0.2967	0.6072	0.0533	0.039
Mof_Ce	Ce	0.76481	0.47152	0.49661	2.308
Mof_N 	N 	0.5419	0.8226	0.9854	-0.112
Mof_N 	N 	0.1955	0.9962	0.9798	-0.121
Mof_N 	N 	0.8492	0.4422	0.9949	-0.113
Mof_O 	O 	0.5648	0.5575	0.3756	-0.632
Mof_O 	O 	0.3417	0.6548	0.3423	-0.598
Mof_O 	O 	0.2082	0.3093	0.6074	-0.526
Mof_O 	O 	0.4024	0.163	0.6272	-0.323
Mof_O 	O 	0.9194	0.4891	0.6162	-0.664
Mof_O 	O 	0.1039	0.528	0.6631	-0.591
Mof_C 	C 	0.4638	0.6374	0.3138	0.481
Mof_C 	C 	0.4216	0.8575	0.0245	0.035
Mof_C 	C 	0.3914	0.7999	0.1302	-0.011
Mof_H 	H 	0.3058	0.8266	0.1535	0.041
Mof_C 	C 	0.4894	0.7036	0.1995	-0.136
Mof_C 	C 	0.6179	0.6652	0.1594	-0.004
Mof_H 	H 	0.6871	0.5996	0.2036	0.027
Mof_C 	C 	0.6362	0.7277	0.0543	0.007
Mof_H 	H 	0.7205	0.7025	0.0284	0.039
Mof_C 	C 	0.2925	0.2053	0.6624	0.36
Mof_C 	C 	0.3196	0.9679	0.9458	0.066
Mof_C 	C 	0.3539	0.0335	0.8436	-0.057
Mof_H 	H 	0.4424	0.0114	0.8228	0.066
Mof_C 	C 	0.2578	0.1316	0.7724	-0.077
Mof_C 	C 	0.1251	0.1632	0.8073	-0.03
Mof_H 	H 	0.0561	0.2275	0.7617	0.026
Mof_C 	C 	0.102	0.0945	0.9122	0.014
Mof_H 	H 	0.0166	0.1178	0.9374	0.035
Mof_C 	C 	0.9908	0.5017	0.6809	0.54
Mof_C 	C 	0.9638	0.4877	0.9604	0.034
Mof_C 	C 	0.0102	0.5061	0.8621	-0.004
Mof_H 	H 	0.0906	0.5338	0.843	0.04
Mof_C 	C 	0.9382	0.4837	0.7887	-0.166
Mof_C 	C 	0.8215	0.4388	0.823	0.018
Mof_H 	H 	0.7705	0.4208	0.7783	0.001
Mof_C 	C 	0.7827	0.421	0.9253	-0.01
Mof_H 	H 	0.7033	0.3928	0.9467	0.039
_end
