data_functionalizedCrystal
_audit_creation_method	'EQeq! by Chris Wilmer'
_symmetry_space_group_name_H-M	'P1'
_symmetry_Int_Tables_number	1
_symmetry_cell_setting	triclinic
loop_
_symmetry_equiv_pos_as_xyz
  x,y,z
_cell_length_a	8.714
_cell_length_b	8.714
_cell_length_c	20.437
_cell_angle_alpha	90
_cell_angle_beta	90
_cell_angle_gamma	120
loop_
_atom_site_label
_atom_site_type_symbol
_atom_site_fract_x
_atom_site_fract_y
_atom_site_fract_z
_atom_site_charge
Mof_Cd	Cd	-0	0	-0	0.309
Mof_Cd	Cd	-1.87831e-32	0	0.5	0.326
Mof_Cd	Cd	0.33333	0.66667	0.11958	0.279
Mof_C 	C 	0.33333	0.66667	0.2234	-0.067
Mof_Cd	Cd	0.66667	0.33333	0.61958	0.281
Mof_C 	C 	0.66667	0.33333	0.7234	-0.067
Mof_Cd	Cd	0.66667	0.33333	0.88042	0.285
Mof_C 	C 	0.66667	0.33333	0.7766	-0.067
Mof_Cd	Cd	0.33333	0.66667	0.38042	0.281
Mof_C 	C 	0.33333	0.66667	0.2766	-0.067
Mof_N 	N 	0.1275	0.255	0.0618	-0.141
Mof_C 	C 	0.195	0.39	0.0854	-0.017
Mof_N 	N 	0.745	0.8725	0.0618	-0.111
Mof_C 	C 	0.61	0.805	0.0854	0.006
Mof_N 	N 	0.1275	0.8725	0.0618	-0.125
Mof_C 	C 	0.195	0.805	0.0854	-0.004
Mof_N 	N 	0.8725	0.745	0.5618	-0.11
Mof_C 	C 	0.805	0.61	0.5854	0.01
Mof_N 	N 	0.255	0.1275	0.5618	-0.139
Mof_C 	C 	0.39	0.195	0.5854	-0.013
Mof_N 	N 	0.8725	0.1275	0.5618	-0.125
Mof_C 	C 	0.805	0.195	0.5854	-0.002
Mof_N 	N 	0.255	0.1275	0.9382	-0.133
Mof_C 	C 	0.39	0.195	0.9146	-0.009
Mof_N 	N 	0.8725	0.745	0.9382	-0.104
Mof_C 	C 	0.805	0.61	0.9146	0.015
Mof_N 	N 	0.8725	0.1275	0.9382	-0.118
Mof_C 	C 	0.805	0.195	0.9146	0.003
Mof_N 	N 	0.745	0.8725	0.4382	-0.11
Mof_C 	C 	0.61	0.805	0.4146	0.01
Mof_N 	N 	0.1275	0.255	0.4382	-0.139
Mof_C 	C 	0.195	0.39	0.4146	-0.013
Mof_N 	N 	0.1275	0.8725	0.4382	-0.123
Mof_C 	C 	0.195	0.805	0.4146	-0.001
_end
