data_functionalizedCrystal
_audit_creation_method	'EQeq! by Chris Wilmer'
_symmetry_space_group_name_H-M	'P1'
_symmetry_Int_Tables_number	1
_symmetry_cell_setting	triclinic
loop_
_symmetry_equiv_pos_as_xyz
  x,y,z
_cell_length_a	23.112
_cell_length_b	6.9534
_cell_length_c	22.638
_cell_angle_alpha	90
_cell_angle_beta	90
_cell_angle_gamma	90
loop_
_atom_site_label
_atom_site_type_symbol
_atom_site_fract_x
_atom_site_fract_y
_atom_site_fract_z
_atom_site_charge
Mof_Ca	Ca	0.46847	0.9357	0.50113	1.419
Mof_Ca	Ca	0.45707	0.5632	0.99093	1.397
Mof_P 	P 	0.41484	0.4375	0.52588	0.486
Mof_P 	P 	0.46557	0.9184	0.34265	0.434
Mof_P 	P 	0.40479	0.064	0.96294	0.473
Mof_O 	O 	0.4513	0.6119	0.5148	-0.518
Mof_O 	O 	0.4508	0.2586	0.5135	-0.53
Mof_O 	O 	0.3911	0.4429	0.5908	-0.417
Mof_H 	H 	0.3803	0.3322	0.6008	0.247
Mof_O 	O 	0.3507	0.3027	0.3016	-0.458
Mof_H 	H 	0.3466	0.2615	0.2669	0.295
Mof_O 	O 	0.253	0.3179	0.2968	-0.256
Mof_O 	O 	0.1908	0.5817	0.5568	-0.475
Mof_H 	H 	0.1569	0.5949	0.5694	0.287
Mof_O 	O 	0.1451	0.5615	0.4693	-0.419
Mof_O 	O 	0.4341	0.9136	0.4016	-0.4
Mof_O 	O 	0.5234	0.8109	0.3399	-0.282
Mof_O 	O 	0.474	0.1361	0.3287	-0.425
Mof_H 	H 	0.4763	0.1515	0.2919	0.253
Mof_O 	O 	0.4161	0.5866	0.087	-0.416
Mof_O 	O 	0.4823	0.4628	0.1466	-0.28
Mof_O 	O 	0.2394	0.8189	0.3003	-0.427
Mof_H 	H 	0.2031	0.8113	0.3006	0.272
Mof_O 	O 	0.2301	0.6852	0.2091	-0.233
Mof_O 	O 	0.44	0.2346	0.9809	-0.54
Mof_O 	O 	0.4415	0.8839	0.9732	-0.524
Mof_O 	O 	0.3832	0.0774	0.8974	-0.434
Mof_H 	H 	0.41	0.1203	0.876	0.275
Mof_O 	O 	0.245	0.1732	0.1898	-0.443
Mof_H 	H 	0.2495	0.156	0.2262	0.293
Mof_O 	O 	0.3421	0.2057	0.1864	-0.291
Mof_O 	O 	0.1762	0.9261	0.9323	-0.44
Mof_H 	H 	0.1416	0.916	0.9213	0.265
Mof_O 	O 	0.1346	0.9508	0.0214	-0.397
Mof_C 	C 	0.3497	0.4402	0.4813	-0.121
Mof_C 	C 	0.3518	0.3921	0.4214	0.059
Mof_H 	H 	0.3873	0.355	0.4038	0.026
Mof_C 	C 	0.301	0.3987	0.3875	-0.104
Mof_C 	C 	0.3005	0.338	0.3242	0.372
Mof_C 	C 	0.2485	0.45	0.4136	0.073
Mof_H 	H 	0.2141	0.4509	0.3906	0.045
Mof_C 	C 	0.2462	0.4998	0.4729	-0.134
Mof_C 	C 	0.1896	0.5517	0.4989	0.424
Mof_C 	C 	0.2975	0.496	0.5062	0.066
Mof_H 	H 	0.2964	0.5326	0.5466	0.053
Mof_C 	C 	0.4193	0.819	0.2858	-0.079
Mof_C 	C 	0.4441	0.736	0.236	0.023
Mof_H 	H 	0.4851	0.7295	0.2328	0.042
Mof_C 	C 	0.4104	0.663	0.1915	-0.085
Mof_C 	C 	0.4416	0.569	0.1384	0.333
Mof_C 	C 	0.3508	0.6729	0.1946	0.028
Mof_H 	H 	0.3275	0.6265	0.1631	0.061
Mof_C 	C 	0.3245	0.756	0.2468	-0.076
Mof_C 	C 	0.2596	0.748	0.2498	0.346
Mof_C 	C 	0.3594	0.825	0.2903	0.03
Mof_H 	H 	0.3423	0.8774	0.3249	0.064
Mof_C 	C 	0.3393	0.0541	0.0047	-0.053
Mof_C 	C 	0.3412	0.0981	0.0645	0.027
Mof_H 	H 	0.3776	0.1276	0.0818	0.021
Mof_C 	C 	0.292	0.101	0.1001	-0.085
Mof_C 	C 	0.2954	0.166	0.1632	0.372
Mof_C 	C 	0.2393	0.0489	0.0749	0.034
Mof_H 	H 	0.2054	0.046	0.0987	0.059
Mof_C 	C 	0.2356	0.0008	0.0148	-0.054
Mof_C 	C 	0.1779	0.9573	0.9913	0.35
Mof_C 	C 	0.2859	0.0075	0.9803	-0.021
Mof_H 	H 	0.2834	0.9795	0.9393	0.083
Mof_Ca	Ca	0.53153	0.0643	0.00113	1.454
Mof_Ca	Ca	0.54293	0.4368	0.49093	1.434
Mof_P 	P 	0.58516	0.5625	0.02588	0.508
Mof_P 	P 	0.53443	0.0816	0.84265	0.435
Mof_P 	P 	0.59521	0.936	0.46294	0.496
Mof_O 	O 	0.5487	0.3881	0.0148	-0.513
Mof_O 	O 	0.5492	0.7414	0.0135	-0.525
Mof_O 	O 	0.6089	0.5571	0.0908	-0.419
Mof_H 	H 	0.6197	0.6678	0.1008	0.248
Mof_O 	O 	0.6493	0.6973	0.8016	-0.461
Mof_H 	H 	0.6534	0.7385	0.7669	0.296
Mof_O 	O 	0.747	0.6821	0.7968	-0.258
Mof_O 	O 	0.8092	0.4183	0.0568	-0.46
Mof_H 	H 	0.8431	0.4051	0.0694	0.286
Mof_O 	O 	0.8549	0.4385	0.9693	-0.419
Mof_O 	O 	0.5659	0.0864	0.9016	-0.407
Mof_O 	O 	0.4766	0.1891	0.8399	-0.282
Mof_O 	O 	0.526	0.8639	0.8287	-0.425
Mof_H 	H 	0.5237	0.8485	0.7919	0.254
Mof_O 	O 	0.5839	0.4134	0.587	-0.425
Mof_O 	O 	0.5177	0.5372	0.6466	-0.281
Mof_O 	O 	0.7606	0.1811	0.8003	-0.429
Mof_H 	H 	0.7969	0.1887	0.8006	0.272
Mof_O 	O 	0.7699	0.3148	0.7091	-0.233
Mof_O 	O 	0.56	0.7654	0.4809	-0.535
Mof_O 	O 	0.5585	0.1161	0.4732	-0.52
Mof_O 	O 	0.6168	0.9226	0.3974	-0.436
Mof_H 	H 	0.59	0.8797	0.376	0.275
Mof_O 	O 	0.755	0.8268	0.6898	-0.447
Mof_H 	H 	0.7505	0.844	0.7262	0.294
Mof_O 	O 	0.6579	0.7943	0.6864	-0.295
Mof_O 	O 	0.8238	0.0739	0.4323	-0.457
Mof_H 	H 	0.8584	0.084	0.4213	0.273
Mof_O 	O 	0.8654	0.0492	0.5214	-0.426
Mof_C 	C 	0.6503	0.5598	0.9813	-0.183
Mof_C 	C 	0.6482	0.6079	0.9214	0.092
Mof_H 	H 	0.6127	0.645	0.9038	0.013
Mof_C 	C 	0.699	0.6013	0.8875	-0.129
Mof_C 	C 	0.6995	0.662	0.8242	0.381
Mof_C 	C 	0.7515	0.55	0.9136	0.102
Mof_H 	H 	0.7859	0.5491	0.8906	0.036
Mof_C 	C 	0.7538	0.5002	0.9729	-0.181
Mof_C 	C 	0.8104	0.4483	0.9989	0.416
Mof_C 	C 	0.7025	0.504	0.0062	0.147
Mof_H 	H 	0.7036	0.4674	0.0466	0.029
Mof_C 	C 	0.5807	0.181	0.7858	-0.08
Mof_C 	C 	0.5559	0.264	0.736	0.024
Mof_H 	H 	0.5149	0.2705	0.7328	0.042
Mof_C 	C 	0.5896	0.337	0.6915	-0.086
Mof_C 	C 	0.5584	0.431	0.6384	0.335
Mof_C 	C 	0.6492	0.3271	0.6946	0.029
Mof_H 	H 	0.6725	0.3735	0.6631	0.06
Mof_C 	C 	0.6755	0.244	0.7468	-0.077
Mof_C 	C 	0.7404	0.252	0.7498	0.347
Mof_C 	C 	0.6406	0.175	0.7903	0.031
Mof_H 	H 	0.6577	0.1226	0.8249	0.063
Mof_C 	C 	0.6607	0.9459	0.5047	-0.126
Mof_C 	C 	0.6588	0.9019	0.5645	0.07
Mof_H 	H 	0.6224	0.8724	0.5818	0.004
Mof_C 	C 	0.708	0.899	0.6001	-0.121
Mof_C 	C 	0.7046	0.834	0.6632	0.385
Mof_C 	C 	0.7607	0.9511	0.5749	0.084
Mof_H 	H 	0.7946	0.954	0.5987	0.043
Mof_C 	C 	0.7644	0.9992	0.5148	-0.143
Mof_C 	C 	0.8221	0.0427	0.4913	0.419
Mof_C 	C 	0.7141	0.9925	0.4803	0.078
Mof_H 	H 	0.7166	0.0205	0.4393	0.052
Mof_Ca	Ca	0.96847	0.0643	0.50113	1.42
Mof_Ca	Ca	0.95707	0.4368	0.99093	1.399
Mof_P 	P 	0.91484	0.5625	0.52588	0.487
Mof_P 	P 	0.96557	0.0816	0.34265	0.434
Mof_P 	P 	0.90479	0.936	0.96294	0.472
Mof_O 	O 	0.9513	0.3881	0.5148	-0.517
Mof_O 	O 	0.9508	0.7414	0.5135	-0.529
Mof_O 	O 	0.8911	0.5571	0.5908	-0.417
Mof_H 	H 	0.8803	0.6678	0.6008	0.247
Mof_O 	O 	0.8507	0.6973	0.3016	-0.458
Mof_H 	H 	0.8466	0.7385	0.2669	0.295
Mof_O 	O 	0.753	0.6821	0.2968	-0.256
Mof_O 	O 	0.6908	0.4183	0.5568	-0.475
Mof_H 	H 	0.6569	0.4051	0.5694	0.287
Mof_O 	O 	0.6451	0.4385	0.4693	-0.419
Mof_O 	O 	0.9341	0.0864	0.4016	-0.4
Mof_O 	O 	0.0234	0.1891	0.3399	-0.282
Mof_O 	O 	0.974	0.8639	0.3287	-0.423
Mof_H 	H 	0.9763	0.8485	0.2919	0.254
Mof_O 	O 	0.9161	0.4134	0.087	-0.415
Mof_O 	O 	0.9823	0.5372	0.1466	-0.279
Mof_O 	O 	0.7394	0.1811	0.3003	-0.427
Mof_H 	H 	0.7031	0.1887	0.3006	0.272
Mof_O 	O 	0.7301	0.3148	0.2091	-0.233
Mof_O 	O 	0.94	0.7654	0.9809	-0.539
Mof_O 	O 	0.9415	0.1161	0.9732	-0.524
Mof_O 	O 	0.8832	0.9226	0.8974	-0.434
Mof_H 	H 	0.91	0.8797	0.876	0.275
Mof_O 	O 	0.745	0.8268	0.1898	-0.443
Mof_H 	H 	0.7495	0.844	0.2262	0.293
Mof_O 	O 	0.8421	0.7943	0.1864	-0.291
Mof_O 	O 	0.6762	0.0739	0.9323	-0.439
Mof_H 	H 	0.6416	0.084	0.9213	0.264
Mof_O 	O 	0.6346	0.0492	0.0214	-0.395
Mof_C 	C 	0.8497	0.5598	0.4813	-0.121
Mof_C 	C 	0.8518	0.6079	0.4214	0.059
Mof_H 	H 	0.8873	0.645	0.4038	0.027
Mof_C 	C 	0.801	0.6013	0.3875	-0.104
Mof_C 	C 	0.8005	0.662	0.3242	0.372
Mof_C 	C 	0.7485	0.55	0.4136	0.073
Mof_H 	H 	0.7141	0.5491	0.3906	0.045
Mof_C 	C 	0.7462	0.5002	0.4729	-0.134
Mof_C 	C 	0.6896	0.4483	0.4989	0.424
Mof_C 	C 	0.7975	0.504	0.5062	0.066
Mof_H 	H 	0.7964	0.4674	0.5466	0.053
Mof_C 	C 	0.9193	0.181	0.2858	-0.079
Mof_C 	C 	0.9441	0.264	0.236	0.023
Mof_H 	H 	0.9851	0.2705	0.2328	0.043
Mof_C 	C 	0.9104	0.337	0.1915	-0.085
Mof_C 	C 	0.9416	0.431	0.1384	0.332
Mof_C 	C 	0.8508	0.3271	0.1946	0.027
Mof_H 	H 	0.8275	0.3735	0.1631	0.061
Mof_C 	C 	0.8245	0.244	0.2468	-0.076
Mof_C 	C 	0.7596	0.252	0.2498	0.346
Mof_C 	C 	0.8594	0.175	0.2903	0.03
Mof_H 	H 	0.8423	0.1226	0.3249	0.064
Mof_C 	C 	0.8393	0.9459	0.0047	-0.048
Mof_C 	C 	0.8412	0.9019	0.0645	0.025
Mof_H 	H 	0.8776	0.8724	0.0818	0.022
Mof_C 	C 	0.792	0.899	0.1001	-0.083
Mof_C 	C 	0.7954	0.834	0.1632	0.371
Mof_C 	C 	0.7393	0.9511	0.0749	0.031
Mof_H 	H 	0.7054	0.954	0.0987	0.06
Mof_C 	C 	0.7356	0.9992	0.0148	-0.049
Mof_C 	C 	0.6779	0.0427	0.9913	0.346
Mof_C 	C 	0.7859	0.9925	0.9803	-0.027
Mof_H 	H 	0.7834	0.0205	0.9393	0.084
Mof_Ca	Ca	0.03153	0.9357	0.00113	1.449
Mof_Ca	Ca	0.04293	0.5632	0.49093	1.432
Mof_P 	P 	0.08516	0.4375	0.02588	0.507
Mof_P 	P 	0.03443	0.9184	0.84265	0.433
Mof_P 	P 	0.09521	0.064	0.46294	0.496
Mof_O 	O 	0.0487	0.6119	0.0148	-0.513
Mof_O 	O 	0.0492	0.2586	0.0135	-0.524
Mof_O 	O 	0.1089	0.4429	0.0908	-0.419
Mof_H 	H 	0.1197	0.3322	0.1008	0.248
Mof_O 	O 	0.1493	0.3027	0.8016	-0.461
Mof_H 	H 	0.1534	0.2615	0.7669	0.296
Mof_O 	O 	0.247	0.3179	0.7968	-0.258
Mof_O 	O 	0.3092	0.5817	0.0568	-0.461
Mof_H 	H 	0.3431	0.5949	0.0694	0.286
Mof_O 	O 	0.3549	0.5615	0.9693	-0.419
Mof_O 	O 	0.0659	0.9136	0.9016	-0.406
Mof_O 	O 	0.9766	0.8109	0.8399	-0.28
Mof_O 	O 	0.026	0.1361	0.8287	-0.424
Mof_H 	H 	0.0237	0.1515	0.7919	0.253
Mof_O 	O 	0.0839	0.5866	0.587	-0.425
Mof_O 	O 	0.0177	0.4628	0.6466	-0.281
Mof_O 	O 	0.2606	0.8189	0.8003	-0.428
Mof_H 	H 	0.2969	0.8113	0.8006	0.272
Mof_O 	O 	0.2699	0.6852	0.7091	-0.233
Mof_O 	O 	0.06	0.2346	0.4809	-0.535
Mof_O 	O 	0.0585	0.8839	0.4732	-0.521
Mof_O 	O 	0.1168	0.0774	0.3974	-0.436
Mof_H 	H 	0.09	0.1203	0.376	0.275
Mof_O 	O 	0.255	0.1732	0.6898	-0.447
Mof_H 	H 	0.2505	0.156	0.7262	0.294
Mof_O 	O 	0.1579	0.2057	0.6864	-0.295
Mof_O 	O 	0.3238	0.9261	0.4323	-0.457
Mof_H 	H 	0.3584	0.916	0.4213	0.273
Mof_O 	O 	0.3654	0.9508	0.5214	-0.426
Mof_C 	C 	0.1503	0.4402	0.9813	-0.179
Mof_C 	C 	0.1482	0.3921	0.9214	0.09
Mof_H 	H 	0.1127	0.355	0.9038	0.014
Mof_C 	C 	0.199	0.3987	0.8875	-0.127
Mof_C 	C 	0.1995	0.338	0.8242	0.38
Mof_C 	C 	0.2515	0.45	0.9136	0.1
Mof_H 	H 	0.2859	0.4509	0.8906	0.036
Mof_C 	C 	0.2538	0.4998	0.9729	-0.178
Mof_C 	C 	0.3104	0.5517	0.9989	0.416
Mof_C 	C 	0.2025	0.496	0.0062	0.142
Mof_H 	H 	0.2036	0.5326	0.0466	0.031
Mof_C 	C 	0.0807	0.819	0.7858	-0.08
Mof_C 	C 	0.0559	0.736	0.736	0.024
Mof_H 	H 	0.0149	0.7295	0.7328	0.042
Mof_C 	C 	0.0896	0.663	0.6915	-0.086
Mof_C 	C 	0.0584	0.569	0.6384	0.335
Mof_C 	C 	0.1492	0.6729	0.6946	0.028
Mof_H 	H 	0.1725	0.6265	0.6631	0.06
Mof_C 	C 	0.1755	0.756	0.7468	-0.077
Mof_C 	C 	0.2404	0.748	0.7498	0.346
Mof_C 	C 	0.1406	0.825	0.7903	0.031
Mof_H 	H 	0.1577	0.8774	0.8249	0.063
Mof_C 	C 	0.1607	0.0541	0.5047	-0.126
Mof_C 	C 	0.1588	0.0981	0.5645	0.07
Mof_H 	H 	0.1224	0.1276	0.5818	0.004
Mof_C 	C 	0.208	0.101	0.6001	-0.121
Mof_C 	C 	0.2046	0.166	0.6632	0.385
Mof_C 	C 	0.2607	0.0489	0.5749	0.084
Mof_H 	H 	0.2946	0.046	0.5987	0.042
Mof_C 	C 	0.2644	0.0008	0.5148	-0.144
Mof_C 	C 	0.3221	0.9573	0.4913	0.419
Mof_C 	C 	0.2141	0.0075	0.4803	0.079
Mof_H 	H 	0.2166	0.9795	0.4393	0.052
_end
