data_functionalizedCrystal
_audit_creation_method	'EQeq! by Chris Wilmer'
_symmetry_space_group_name_H-M	'P1'
_symmetry_Int_Tables_number	1
_symmetry_cell_setting	triclinic
loop_
_symmetry_equiv_pos_as_xyz
  x,y,z
_cell_length_a	22.058
_cell_length_b	16.9068
_cell_length_c	16.24
_cell_angle_alpha	90
_cell_angle_beta	121.36
_cell_angle_gamma	90
loop_
_atom_site_label
_atom_site_type_symbol
_atom_site_fract_x
_atom_site_fract_y
_atom_site_fract_z
_atom_site_charge
Mof_O 	O 	0.9642	0.0827	0.5589	-0.494
Mof_O 	O 	0.0813	0.0844	0.6351	-0.48
Mof_O 	O 	0.3518	0.1345	0.5293	-0.23
Mof_C 	C 	0.0033	0.2547	0.9617	-0.075
Mof_H 	H 	0.0061	0.2098	0.9307	0.058
Mof_C 	C 	0.0052	0.331	0.9353	0.132
Mof_C 	C 	0.0199	0.3552	0.8666	-0.18
Mof_C 	C 	0.0251	0.4337	0.8432	0.118
Mof_C 	C 	0.0386	0.4621	0.772	-0.087
Mof_H 	H 	0.0464	0.4305	0.7314	0.069
Mof_C 	C 	0.0205	0.2936	0.8018	0.227
Mof_C 	C 	0.963	0.263	0.7285	-0.29
Mof_H 	H 	0.9194	0.2831	0.7146	0.145
Mof_C 	C 	0.9627	0.2035	0.6708	0.212
Mof_H 	H 	0.9199	0.1837	0.6209	-0.019
Mof_C 	C 	0.0253	0.1735	0.6867	-0.273
Mof_C 	C 	0.0823	0.2015	0.7583	0.215
Mof_H 	H 	0.1253	0.1795	0.7723	-0.028
Mof_C 	C 	0.0839	0.2634	0.8171	-0.279
Mof_H 	H 	0.127	0.2838	0.8657	0.13
Mof_C 	C 	0.0228	0.1075	0.6225	0.455
Mof_C 	C 	0.3796	0.0749	0.5265	0.204
Mof_C 	C 	0.4681	0.1408	0.5058	-0.039
Mof_H 	H 	0.4469	0.1877	0.5078	0.064
Mof_C 	C 	0.4436	0.0714	0.5129	-0.042
Mof_O 	O 	0.0358	0.0827	0.4411	-0.505
Mof_O 	O 	0.9187	0.0844	0.3649	-0.484
Mof_O 	O 	0.6482	0.1345	0.4707	-0.23
Mof_C 	C 	0.9967	0.2547	0.0383	-0.124
Mof_H 	H 	0.9939	0.2098	0.0693	0.072
Mof_C 	C 	0.9948	0.331	0.0647	0.143
Mof_C 	C 	0.9801	0.3552	0.1334	-0.192
Mof_C 	C 	0.9749	0.4337	0.1568	0.121
Mof_C 	C 	0.9614	0.4621	0.228	-0.089
Mof_H 	H 	0.9536	0.4305	0.2686	0.07
Mof_C 	C 	0.9795	0.2936	0.1982	0.246
Mof_C 	C 	0.037	0.263	0.2715	-0.312
Mof_H 	H 	0.0806	0.2831	0.2854	0.149
Mof_C 	C 	0.0373	0.2035	0.3292	0.21
Mof_H 	H 	0.0801	0.1837	0.3791	-0.021
Mof_C 	C 	0.9747	0.1735	0.3133	-0.272
Mof_C 	C 	0.9177	0.2015	0.2417	0.22
Mof_H 	H 	0.8747	0.1795	0.2277	-0.033
Mof_C 	C 	0.9161	0.2634	0.1829	-0.289
Mof_H 	H 	0.873	0.2838	0.1343	0.129
Mof_C 	C 	0.9772	0.1075	0.3775	0.466
Mof_C 	C 	0.6204	0.0749	0.4735	0.204
Mof_C 	C 	0.5319	0.1408	0.4942	-0.039
Mof_H 	H 	0.5531	0.1877	0.4922	0.064
Mof_C 	C 	0.5564	0.0714	0.4871	-0.041
Mof_O 	O 	0.0358	0.9173	0.4411	-0.468
Mof_O 	O 	0.9187	0.9156	0.3649	-0.446
Mof_O 	O 	0.6482	0.8655	0.4707	-0.224
Mof_C 	C 	0.9967	0.7453	0.0383	-0.117
Mof_H 	H 	0.9939	0.7902	0.0693	0.082
Mof_C 	C 	0.9948	0.669	0.0647	0.143
Mof_C 	C 	0.9801	0.6448	0.1334	-0.185
Mof_C 	C 	0.9749	0.5663	0.1568	0.118
Mof_C 	C 	0.9614	0.5379	0.228	-0.086
Mof_H 	H 	0.9536	0.5695	0.2686	0.069
Mof_C 	C 	0.9795	0.7064	0.1982	0.235
Mof_C 	C 	0.037	0.737	0.2715	-0.293
Mof_H 	H 	0.0806	0.7169	0.2854	0.147
Mof_C 	C 	0.0373	0.7965	0.3292	0.195
Mof_H 	H 	0.0801	0.8163	0.3791	-0.006
Mof_C 	C 	0.9747	0.8265	0.3133	-0.246
Mof_C 	C 	0.9177	0.7985	0.2417	0.203
Mof_H 	H 	0.8747	0.8205	0.2277	-0.016
Mof_C 	C 	0.9161	0.7366	0.1829	-0.27
Mof_H 	H 	0.873	0.7162	0.1343	0.127
Mof_C 	C 	0.9772	0.8925	0.3775	0.457
Mof_C 	C 	0.6204	0.9251	0.4735	0.247
Mof_C 	C 	0.5319	0.8592	0.4942	-0.043
Mof_H 	H 	0.5531	0.8123	0.4922	0.068
Mof_C 	C 	0.5564	0.9286	0.4871	0.007
Mof_O 	O 	0.9642	0.9173	0.5589	-0.458
Mof_O 	O 	0.0813	0.9156	0.6351	-0.443
Mof_O 	O 	0.3518	0.8655	0.5293	-0.225
Mof_C 	C 	0.0033	0.7453	0.9617	-0.074
Mof_H 	H 	0.0061	0.7902	0.9307	0.069
Mof_C 	C 	0.0052	0.669	0.9353	0.133
Mof_C 	C 	0.0199	0.6448	0.8666	-0.174
Mof_C 	C 	0.0251	0.5663	0.8432	0.116
Mof_C 	C 	0.0386	0.5379	0.772	-0.085
Mof_H 	H 	0.0464	0.5695	0.7314	0.068
Mof_C 	C 	0.0205	0.7064	0.8018	0.216
Mof_C 	C 	0.963	0.737	0.7285	-0.272
Mof_H 	H 	0.9194	0.7169	0.7146	0.143
Mof_C 	C 	0.9627	0.7965	0.6708	0.198
Mof_H 	H 	0.9199	0.8163	0.6209	-0.005
Mof_C 	C 	0.0253	0.8265	0.6867	-0.248
Mof_C 	C 	0.0823	0.7985	0.7583	0.199
Mof_H 	H 	0.1253	0.8205	0.7723	-0.012
Mof_C 	C 	0.0839	0.7366	0.8171	-0.261
Mof_H 	H 	0.127	0.7162	0.8657	0.128
Mof_C 	C 	0.0228	0.8925	0.6225	0.446
Mof_C 	C 	0.3796	0.9251	0.5265	0.247
Mof_C 	C 	0.4681	0.8592	0.5058	-0.042
Mof_H 	H 	0.4469	0.8123	0.5078	0.068
Mof_C 	C 	0.4436	0.9286	0.5129	0.007
Mof_Zn	Zn	0.0782	0	0.54794	1.213
Mof_N 	N 	0.1722	0	0.5524	-0.272
Mof_N 	N 	0.3563	0	0.5362	-0.225
Mof_C 	C 	0.2332	-9.76231e-33	0.6278	0.148
Mof_H 	H 	0.2359	0	0.6869	-0.042
Mof_C 	C 	0.3008	9.76231e-33	0.629	-0.253
Mof_H 	H 	0.3445	-9.76231e-33	0.6865	0.114
Mof_C 	C 	0.2961	0	0.5468	0.232
Mof_C 	C 	0.2302	0	0.4627	-0.201
Mof_H 	H 	0.2277	0	0.4038	0.103
Mof_C 	C 	0.1641	-4.88115e-33	0.4638	0.094
Mof_H 	H 	0.1196	0	0.4075	-0.012
Mof_C 	C 	0.4677	0	0.5038	-0.03
Mof_Zn	Zn	0.9218	0	0.45206	1.213
Mof_N 	N 	0.8278	-9.76231e-33	0.4476	-0.273
Mof_N 	N 	0.6437	-4.88115e-33	0.4638	-0.225
Mof_C 	C 	0.7668	0	0.3722	0.148
Mof_H 	H 	0.7641	-4.88115e-33	0.3131	-0.045
Mof_C 	C 	0.6992	4.88115e-33	0.371	-0.254
Mof_H 	H 	0.6555	0	0.3135	0.112
Mof_C 	C 	0.7039	-4.88115e-33	0.4532	0.233
Mof_C 	C 	0.7698	0	0.5373	-0.201
Mof_H 	H 	0.7723	-9.76231e-33	0.5962	0.105
Mof_C 	C 	0.8359	0	0.5362	0.094
Mof_H 	H 	0.8804	0	0.5925	-0.01
Mof_C 	C 	0.5323	-9.76231e-33	0.4962	-0.03
Mof_Mn	Mn	4.88115e-33	0.5	-0	0.729
Mof_N 	N 	0.0179	0.5	0.8914	-0.224
Mof_N 	N 	0.9821	0.5	0.1086	-0.228
Mof_N 	N 	2.44058e-33	0.3807	-0	-0.242
Mof_N 	N 	4.88115e-33	0.6193	-0	-0.24
Mof_O 	O 	0.4642	0.5827	0.5589	-0.491
Mof_O 	O 	0.5813	0.5844	0.6351	-0.47
Mof_O 	O 	0.8518	0.6345	0.5293	-0.229
Mof_C 	C 	0.5033	0.7547	0.9617	-0.064
Mof_H 	H 	0.5061	0.7098	0.9307	0.062
Mof_C 	C 	0.5052	0.831	0.9353	0.136
Mof_C 	C 	0.5199	0.8552	0.8666	-0.166
Mof_C 	C 	0.5251	0.9337	0.8432	0.119
Mof_C 	C 	0.5386	0.9621	0.772	0.061
Mof_H 	H 	0.5464	0.9305	0.7314	0.03
Mof_C 	C 	0.5205	0.7936	0.8018	0.23
Mof_C 	C 	0.463	0.763	0.7285	-0.294
Mof_H 	H 	0.4194	0.7831	0.7146	0.151
Mof_C 	C 	0.4627	0.7035	0.6708	0.208
Mof_H 	H 	0.4199	0.6837	0.6209	-0.016
Mof_C 	C 	0.5253	0.6735	0.6867	-0.264
Mof_C 	C 	0.5823	0.7015	0.7583	0.214
Mof_H 	H 	0.6253	0.6795	0.7723	-0.022
Mof_C 	C 	0.5839	0.7634	0.8171	-0.275
Mof_H 	H 	0.627	0.7838	0.8657	0.135
Mof_C 	C 	0.5228	0.6075	0.6225	0.461
Mof_C 	C 	0.8796	0.5749	0.5265	0.218
Mof_C 	C 	0.9681	0.6408	0.5058	-0.017
Mof_H 	H 	0.9469	0.6877	0.5078	0.059
Mof_C 	C 	0.9436	0.5714	0.5129	-0.062
Mof_O 	O 	0.5358	0.5827	0.4411	-0.492
Mof_O 	O 	0.4187	0.5844	0.3649	-0.472
Mof_O 	O 	0.1482	0.6345	0.4707	-0.228
Mof_C 	C 	0.4967	0.7547	0.0383	-0.128
Mof_H 	H 	0.4939	0.7098	0.0693	0.078
Mof_C 	C 	0.4948	0.831	0.0647	0.146
Mof_C 	C 	0.4801	0.8552	0.1334	-0.176
Mof_C 	C 	0.4749	0.9337	0.1568	0.119
Mof_C 	C 	0.4614	0.9621	0.228	0.062
Mof_H 	H 	0.4536	0.9305	0.2686	0.028
Mof_C 	C 	0.4795	0.7936	0.1982	0.234
Mof_C 	C 	0.537	0.763	0.2715	-0.298
Mof_H 	H 	0.5806	0.7831	0.2854	0.151
Mof_C 	C 	0.5373	0.7035	0.3292	0.21
Mof_H 	H 	0.5801	0.6837	0.3791	-0.018
Mof_C 	C 	0.4747	0.6735	0.3133	-0.267
Mof_C 	C 	0.4177	0.7015	0.2417	0.216
Mof_H 	H 	0.3747	0.6795	0.2277	-0.026
Mof_C 	C 	0.4161	0.7634	0.1829	-0.279
Mof_H 	H 	0.373	0.7838	0.1343	0.132
Mof_C 	C 	0.4772	0.6075	0.3775	0.461
Mof_C 	C 	0.1204	0.5749	0.4735	0.211
Mof_C 	C 	0.0319	0.6408	0.4942	-0.046
Mof_H 	H 	0.0531	0.6877	0.4922	0.068
Mof_C 	C 	0.0564	0.5714	0.4871	-0.044
Mof_O 	O 	0.5358	0.4173	0.4411	-0.493
Mof_O 	O 	0.4187	0.4156	0.3649	-0.474
Mof_O 	O 	0.1482	0.3655	0.4707	-0.231
Mof_C 	C 	0.4967	0.2453	0.0383	-0.136
Mof_H 	H 	0.4939	0.2902	0.0693	0.079
Mof_C 	C 	0.4948	0.169	0.0647	0.149
Mof_C 	C 	0.4801	0.1448	0.1334	-0.213
Mof_C 	C 	0.4749	0.0663	0.1568	0.161
Mof_C 	C 	0.4614	0.0379	0.228	-0.243
Mof_H 	H 	0.4536	0.0695	0.2686	0.115
Mof_C 	C 	0.4795	0.2064	0.1982	0.251
Mof_C 	C 	0.537	0.237	0.2715	-0.313
Mof_H 	H 	0.5806	0.2169	0.2854	0.151
Mof_C 	C 	0.5373	0.2965	0.3292	0.221
Mof_H 	H 	0.5801	0.3163	0.3791	-0.023
Mof_C 	C 	0.4747	0.3265	0.3133	-0.277
Mof_C 	C 	0.4177	0.2985	0.2417	0.225
Mof_H 	H 	0.3747	0.3205	0.2277	-0.032
Mof_C 	C 	0.4161	0.2366	0.1829	-0.294
Mof_H 	H 	0.373	0.2162	0.1343	0.13
Mof_C 	C 	0.4772	0.3925	0.3775	0.465
Mof_C 	C 	0.1204	0.4251	0.4735	0.212
Mof_C 	C 	0.0319	0.3592	0.4942	-0.045
Mof_H 	H 	0.0531	0.3123	0.4922	0.067
Mof_C 	C 	0.0564	0.4286	0.4871	-0.045
Mof_O 	O 	0.4642	0.4173	0.5589	-0.493
Mof_O 	O 	0.5813	0.4156	0.6351	-0.472
Mof_O 	O 	0.8518	0.3655	0.5293	-0.232
Mof_C 	C 	0.5033	0.2453	0.9617	-0.066
Mof_H 	H 	0.5061	0.2902	0.9307	0.061
Mof_C 	C 	0.5052	0.169	0.9353	0.139
Mof_C 	C 	0.5199	0.1448	0.8666	-0.202
Mof_C 	C 	0.5251	0.0663	0.8432	0.16
Mof_C 	C 	0.5386	0.0379	0.772	-0.238
Mof_H 	H 	0.5464	0.0695	0.7314	0.114
Mof_C 	C 	0.5205	0.2064	0.8018	0.247
Mof_C 	C 	0.463	0.237	0.7285	-0.309
Mof_H 	H 	0.4194	0.2169	0.7146	0.151
Mof_C 	C 	0.4627	0.2965	0.6708	0.218
Mof_H 	H 	0.4199	0.3163	0.6209	-0.021
Mof_C 	C 	0.5253	0.3265	0.6867	-0.274
Mof_C 	C 	0.5823	0.2985	0.7583	0.223
Mof_H 	H 	0.6253	0.3205	0.7723	-0.028
Mof_C 	C 	0.5839	0.2366	0.8171	-0.289
Mof_H 	H 	0.627	0.2162	0.8657	0.133
Mof_C 	C 	0.5228	0.3925	0.6225	0.464
Mof_C 	C 	0.8796	0.4251	0.5265	0.218
Mof_C 	C 	0.9681	0.3592	0.5058	-0.017
Mof_H 	H 	0.9469	0.3123	0.5078	0.058
Mof_C 	C 	0.9436	0.4286	0.5129	-0.062
Mof_Zn	Zn	0.5782	0.5	0.54794	1.227
Mof_N 	N 	0.6722	0.5	0.5524	-0.266
Mof_N 	N 	0.8563	0.5	0.5362	-0.203
Mof_C 	C 	0.7332	0.5	0.6278	0.157
Mof_H 	H 	0.7359	0.5	0.6869	-0.033
Mof_C 	C 	0.8008	0.5	0.629	-0.251
Mof_H 	H 	0.8445	0.5	0.6865	0.125
Mof_C 	C 	0.7961	0.5	0.5468	0.245
Mof_C 	C 	0.7302	0.5	0.4627	-0.198
Mof_H 	H 	0.7277	0.5	0.4038	0.114
Mof_C 	C 	0.6641	0.5	0.4638	0.104
Mof_H 	H 	0.6196	0.5	0.4075	-0.001
Mof_C 	C 	0.9677	0.5	0.5038	0.04
Mof_Zn	Zn	0.4218	0.5	0.45206	1.227
Mof_N 	N 	0.3278	0.5	0.4476	-0.266
Mof_N 	N 	0.1437	0.5	0.4638	-0.201
Mof_C 	C 	0.2668	0.5	0.3722	0.156
Mof_H 	H 	0.2641	0.5	0.3131	-0.036
Mof_C 	C 	0.1992	0.5	0.371	-0.252
Mof_H 	H 	0.1555	0.5	0.3135	0.122
Mof_C 	C 	0.2039	0.5	0.4532	0.244
Mof_C 	C 	0.2698	0.5	0.5373	-0.198
Mof_H 	H 	0.2723	0.5	0.5962	0.116
Mof_C 	C 	0.3359	0.5	0.5362	0.104
Mof_H 	H 	0.3804	0.5	0.5925	0
Mof_C 	C 	0.0323	0.5	0.4962	0.013
Mof_Mn	Mn	0.5	0	-0	0.685
Mof_N 	N 	0.5179	0	0.8914	-0.249
Mof_N 	N 	0.4821	1.22029e-33	0.1086	-0.256
Mof_N 	N 	0.5	0.8807	-0	-0.218
Mof_N 	N 	0.5	0.1193	-0	-0.241
_end
