data_functionalizedCrystal
_audit_creation_method	'EQeq! by Chris Wilmer'
_symmetry_space_group_name_H-M	'P1'
_symmetry_Int_Tables_number	1
_symmetry_cell_setting	triclinic
loop_
_symmetry_equiv_pos_as_xyz
  x,y,z
_cell_length_a	7.2993
_cell_length_b	19.3615
_cell_length_c	26.0984
_cell_angle_alpha	90
_cell_angle_beta	90
_cell_angle_gamma	90
loop_
_atom_site_label
_atom_site_type_symbol
_atom_site_fract_x
_atom_site_fract_y
_atom_site_fract_z
_atom_site_charge
Mof_Ba	Ba	0.12795	0.69239	0.98982	1.705
Mof_O 	O 	0.5513	0.1289	0.4057	-0.373
Mof_O 	O 	0.6702	0.232	0.4189	-0.5
Mof_O 	O 	0.0038	0.8263	0.9968	-0.605
Mof_O 	O 	0.2767	0.8162	0.0327	-0.551
Mof_O 	O 	0.0736	0.5507	0.0036	-0.335
Mof_O 	O 	0.9265	0.501	0.9393	-0.221
Mof_C 	C 	0.646	0.1808	0.3913	0.375
Mof_C 	C 	0.7143	0.1819	0.3375	-0.147
Mof_C 	C 	0.7983	0.2391	0.3182	0.067
Mof_H 	H 	0.8156	0.2772	0.3393	-0.001
Mof_C 	C 	0.8591	0.2417	0.2675	-0.128
Mof_H 	H 	0.9188	0.281	0.2556	0.077
Mof_C 	C 	0.8316	0.1863	0.2346	0.045
Mof_C 	C 	0.7398	0.1279	0.2538	-0.119
Mof_H 	H 	0.7218	0.0899	0.2325	0.065
Mof_C 	C 	0.6764	0.1255	0.3032	0.043
Mof_H 	H 	0.6091	0.0877	0.3144	0.027
Mof_C 	C 	0.0035	0.4996	0.9848	0.194
Mof_C 	C 	0.9896	0.4331	0.013	0.094
Mof_C 	C 	0.9301	0.372	0.99	-0.222
Mof_H 	H 	0.8939	0.3724	0.9558	0.104
Mof_C 	C 	0.9244	0.3116	0.017	0.09
Mof_H 	H 	0.8896	0.2711	0.0006	0.006
Mof_C 	C 	0.9708	0.3098	0.0699	-0.069
Mof_C 	C 	0.0279	0.3714	0.0924	0.017
Mof_H 	H 	0.0592	0.3717	0.127	0.024
Mof_C 	C 	0.0393	0.4322	0.0645	-0.114
Mof_H 	H 	0.0801	0.4724	0.0802	0.07
Mof_C 	C 	0.9543	0.2456	0.1004	0.097
Mof_C 	C 	0.0019	0.183	0.0778	-0.127
Mof_H 	H 	0.0296	0.1814	0.043	0.08
Mof_C 	C 	0.0083	0.1222	0.1071	0.028
Mof_C 	C 	0.9544	0.1256	0.158	-0.11
Mof_H 	H 	0.9536	0.0853	0.1774	0.062
Mof_C 	C 	0.9019	0.1871	0.1809	0.048
Mof_C 	C 	0.9038	0.247	0.1511	-0.137
Mof_H 	H 	0.8701	0.2888	0.1659	0.081
Mof_C 	C 	0.0543	0.0548	0.0829	0.108
Mof_C 	C 	0.158	0.0055	0.1105	-0.193
Mof_H 	H 	0.2054	0.017	0.1425	0.09
Mof_C 	C 	0.1895	0.9406	0.0904	0.138
Mof_H 	H 	0.2607	0.909	0.1084	-0.043
Mof_C 	C 	0.0199	0.9712	0.0161	0.231
Mof_H 	H 	0.9726	0.9596	0.9841	-0.085
Mof_C 	C 	0.9923	0.0371	0.0348	-0.225
Mof_H 	H 	0.9315	0.0697	0.0149	0.123
Mof_C 	C 	0.115	0.9224	0.0432	-0.281
Mof_C 	C 	0.1339	0.8502	0.0239	0.492
Mof_Ba	Ba	0.87205	0.30761	0.48982	1.771
Mof_O 	O 	0.4487	0.8711	0.9057	-0.375
Mof_O 	O 	0.3298	0.768	0.9189	-0.495
Mof_O 	O 	0.9962	0.1737	0.4968	-0.574
Mof_O 	O 	0.7233	0.1838	0.5327	-0.565
Mof_O 	O 	0.9264	0.4493	0.5036	-0.415
Mof_O 	O 	0.0735	0.499	0.4393	-0.241
Mof_C 	C 	0.354	0.8192	0.8913	0.374
Mof_C 	C 	0.2857	0.8181	0.8375	-0.149
Mof_C 	C 	0.2017	0.7609	0.8182	0.071
Mof_H 	H 	0.1844	0.7228	0.8393	-0.001
Mof_C 	C 	0.1409	0.7583	0.7675	-0.134
Mof_H 	H 	0.0812	0.719	0.7556	0.079
Mof_C 	C 	0.1684	0.8137	0.7346	0.053
Mof_C 	C 	0.2602	0.8721	0.7538	-0.125
Mof_H 	H 	0.2782	0.9101	0.7325	0.065
Mof_C 	C 	0.3236	0.8745	0.8032	0.047
Mof_H 	H 	0.3909	0.9123	0.8144	0.023
Mof_C 	C 	0.9965	0.5004	0.4848	0.341
Mof_C 	C 	0.0104	0.5669	0.513	-0.111
Mof_C 	C 	0.0699	0.628	0.49	0.039
Mof_H 	H 	0.1061	0.6276	0.4558	0.026
Mof_C 	C 	0.0756	0.6884	0.517	-0.113
Mof_H 	H 	0.1104	0.7289	0.5006	0.068
Mof_C 	C 	0.0292	0.6902	0.5699	0.048
Mof_C 	C 	0.9721	0.6286	0.5924	-0.114
Mof_H 	H 	0.9408	0.6283	0.627	0.069
Mof_C 	C 	0.9607	0.5678	0.5645	0.035
Mof_H 	H 	0.9199	0.5276	0.5802	0.015
Mof_C 	C 	0.0457	0.7544	0.6004	0.043
Mof_C 	C 	0.9981	0.817	0.5778	-0.101
Mof_H 	H 	0.9704	0.8186	0.543	0.065
Mof_C 	C 	0.9917	0.8778	0.6071	0.02
Mof_C 	C 	0.0456	0.8744	0.658	-0.096
Mof_H 	H 	0.0464	0.9147	0.6774	0.057
Mof_C 	C 	0.0981	0.8129	0.6809	0.03
Mof_C 	C 	0.0962	0.753	0.6511	-0.103
Mof_H 	H 	0.1299	0.7112	0.6659	0.068
Mof_C 	C 	0.9457	0.9452	0.5829	0.08
Mof_C 	C 	0.842	0.9945	0.6105	-0.179
Mof_H 	H 	0.7946	0.983	0.6425	0.082
Mof_C 	C 	0.8105	0.0594	0.5904	0.113
Mof_H 	H 	0.7393	0.091	0.6084	-0.035
Mof_C 	C 	0.9801	0.0288	0.5161	0.112
Mof_H 	H 	0.0274	0.0404	0.4841	-0.014
Mof_C 	C 	0.0077	0.9629	0.5348	-0.165
Mof_H 	H 	0.0685	0.9303	0.5149	0.091
Mof_C 	C 	0.885	0.0776	0.5432	-0.228
Mof_C 	C 	0.8661	0.1498	0.5239	0.428
Mof_Ba	Ba	0.62795	0.80761	0.98982	1.714
Mof_O 	O 	0.0513	0.3711	0.4057	-0.37
Mof_O 	O 	0.1702	0.268	0.4189	-0.498
Mof_O 	O 	0.5038	0.6737	0.9968	-0.605
Mof_O 	O 	0.7767	0.6838	0.0327	-0.552
Mof_O 	O 	0.5736	0.9493	0.0036	-0.345
Mof_O 	O 	0.4265	0.999	0.9393	-0.233
Mof_C 	C 	0.146	0.3192	0.3913	0.375
Mof_C 	C 	0.2143	0.3181	0.3375	-0.147
Mof_C 	C 	0.2983	0.2609	0.3182	0.069
Mof_H 	H 	0.3156	0.2228	0.3393	-0
Mof_C 	C 	0.3591	0.2583	0.2675	-0.129
Mof_H 	H 	0.4188	0.219	0.2556	0.079
Mof_C 	C 	0.3316	0.3137	0.2346	0.048
Mof_C 	C 	0.2398	0.3721	0.2538	-0.12
Mof_H 	H 	0.2218	0.4101	0.2325	0.065
Mof_C 	C 	0.1764	0.3745	0.3032	0.045
Mof_H 	H 	0.1091	0.4123	0.3144	0.027
Mof_C 	C 	0.5035	0.0004	0.9848	0.22
Mof_C 	C 	0.4896	0.0669	0.013	0.076
Mof_C 	C 	0.4301	0.128	0.99	-0.209
Mof_H 	H 	0.3939	0.1276	0.9558	0.1
Mof_C 	C 	0.4244	0.1884	0.017	0.08
Mof_H 	H 	0.3896	0.2289	0.0006	0.009
Mof_C 	C 	0.4708	0.1902	0.0699	-0.062
Mof_C 	C 	0.5279	0.1286	0.0924	0.009
Mof_H 	H 	0.5592	0.1283	0.127	0.027
Mof_C 	C 	0.5393	0.0678	0.0645	-0.098
Mof_H 	H 	0.5801	0.0276	0.0802	0.066
Mof_C 	C 	0.4543	0.2544	0.1004	0.088
Mof_C 	C 	0.5019	0.317	0.0778	-0.116
Mof_H 	H 	0.5296	0.3186	0.043	0.077
Mof_C 	C 	0.5083	0.3778	0.1071	0.015
Mof_C 	C 	0.4544	0.3744	0.158	-0.102
Mof_H 	H 	0.4536	0.4147	0.1774	0.059
Mof_C 	C 	0.4019	0.3129	0.1809	0.043
Mof_C 	C 	0.4038	0.253	0.1511	-0.131
Mof_H 	H 	0.3701	0.2112	0.1659	0.079
Mof_C 	C 	0.5543	0.4452	0.0829	0.134
Mof_C 	C 	0.658	0.4945	0.1105	-0.222
Mof_H 	H 	0.7054	0.483	0.1425	0.099
Mof_C 	C 	0.6895	0.5594	0.0904	0.168
Mof_H 	H 	0.7607	0.591	0.1084	-0.052
Mof_C 	C 	0.5199	0.5288	0.0161	0.274
Mof_H 	H 	0.4726	0.5404	0.9841	-0.101
Mof_C 	C 	0.4923	0.4629	0.0348	-0.265
Mof_H 	H 	0.4315	0.4303	0.0149	0.135
Mof_C 	C 	0.615	0.5776	0.0432	-0.304
Mof_C 	C 	0.6339	0.6498	0.0239	0.5
Mof_Ba	Ba	0.37205	0.19239	0.48982	1.787
Mof_O 	O 	0.9487	0.6289	0.9057	-0.373
Mof_O 	O 	0.8298	0.732	0.9189	-0.493
Mof_O 	O 	0.4962	0.3263	0.4968	-0.571
Mof_O 	O 	0.2233	0.3162	0.5327	-0.562
Mof_O 	O 	0.4264	0.0507	0.5036	-0.411
Mof_O 	O 	0.5735	0.001	0.4393	-0.243
Mof_C 	C 	0.854	0.6808	0.8913	0.374
Mof_C 	C 	0.7857	0.6819	0.8375	-0.148
Mof_C 	C 	0.7017	0.7391	0.8182	0.071
Mof_H 	H 	0.6844	0.7772	0.8393	-0
Mof_C 	C 	0.6409	0.7417	0.7675	-0.133
Mof_H 	H 	0.5812	0.781	0.7556	0.079
Mof_C 	C 	0.6684	0.6863	0.7346	0.053
Mof_C 	C 	0.7602	0.6279	0.7538	-0.125
Mof_H 	H 	0.7782	0.5899	0.7325	0.065
Mof_C 	C 	0.8236	0.6255	0.8032	0.047
Mof_H 	H 	0.8909	0.5877	0.8144	0.024
Mof_C 	C 	0.4965	0.9996	0.4848	0.346
Mof_C 	C 	0.5104	0.9331	0.513	-0.128
Mof_C 	C 	0.5699	0.872	0.49	0.047
Mof_H 	H 	0.6061	0.8724	0.4558	0.021
Mof_C 	C 	0.5756	0.8116	0.517	-0.12
Mof_H 	H 	0.6104	0.7711	0.5006	0.069
Mof_C 	C 	0.5292	0.8098	0.5699	0.049
Mof_C 	C 	0.4721	0.8714	0.5924	-0.116
Mof_H 	H 	0.4408	0.8717	0.627	0.07
Mof_C 	C 	0.4607	0.9322	0.5645	0.05
Mof_H 	H 	0.4199	0.9724	0.5802	0.01
Mof_C 	C 	0.5457	0.7456	0.6004	0.037
Mof_C 	C 	0.4981	0.683	0.5778	-0.094
Mof_H 	H 	0.4704	0.6814	0.543	0.064
Mof_C 	C 	0.4917	0.6222	0.6071	0.019
Mof_C 	C 	0.5456	0.6256	0.658	-0.098
Mof_H 	H 	0.5464	0.5853	0.6774	0.057
Mof_C 	C 	0.5981	0.6871	0.6809	0.029
Mof_C 	C 	0.5962	0.747	0.6511	-0.101
Mof_H 	H 	0.6299	0.7888	0.6659	0.067
Mof_C 	C 	0.4457	0.5548	0.5829	0.088
Mof_C 	C 	0.342	0.5055	0.6105	-0.174
Mof_H 	H 	0.2946	0.517	0.6425	0.082
Mof_C 	C 	0.3105	0.4406	0.5904	0.109
Mof_H 	H 	0.2393	0.409	0.6084	-0.034
Mof_C 	C 	0.4801	0.4712	0.5161	0.128
Mof_H 	H 	0.5274	0.4596	0.4841	-0.025
Mof_C 	C 	0.5077	0.5371	0.5348	-0.179
Mof_H 	H 	0.5685	0.5697	0.5149	0.095
Mof_C 	C 	0.385	0.4224	0.5432	-0.232
Mof_C 	C 	0.3661	0.3502	0.5239	0.429
_end
