data_functionalizedCrystal
_audit_creation_method	'EQeq! by Chris Wilmer'
_symmetry_space_group_name_H-M	'P1'
_symmetry_Int_Tables_number	1
_symmetry_cell_setting	triclinic
loop_
_symmetry_equiv_pos_as_xyz
  x,y,z
_cell_length_a	35.2842
_cell_length_b	35.2842
_cell_length_c	21.0449
_cell_angle_alpha	90
_cell_angle_beta	90
_cell_angle_gamma	120
loop_
_atom_site_label
_atom_site_type_symbol
_atom_site_fract_x
_atom_site_fract_y
_atom_site_fract_z
_atom_site_charge
Mof_O 	O 	0.30344	0.19074	0.2384	-0.403
Mof_O 	O 	0.27769	0.17778	0.13747	-0.4
Mof_C 	C 	0.27848	0.18987	0.19457	0.354
Mof_C 	C 	0.24686	0.20477	0.21276	-0.111
Mof_C 	C 	0.21874	0.20636	0.16651	0.054
Mof_H 	H 	0.219	0.1968	0.1244	0.032
Mof_C 	C 	0.19087	0.22165	0.18204	-0.128
Mof_H 	H 	0.1727	0.2234	0.1502	0.09
Mof_C 	C 	0.18908	0.23455	0.24386	0.101
Mof_C 	C 	0.21675	0.23283	0.28984	-0.129
Mof_H 	H 	0.2159	0.2417	0.3322	0.08
Mof_C 	C 	0.24576	0.21806	0.27381	0.054
Mof_H 	H 	0.2647	0.2172	0.3052	0.031
Mof_C 	C 	0.16153	0.25399	0.26132	-0.059
Mof_C 	C 	0.1797	0.292	0.2973	-0.043
Mof_H 	H 	0.2093	0.3045	0.3104	0.047
Mof_C 	C 	0.0879	0.1552	0.246	0.046
Mof_C 	C 	0.0742	0.1207	0.1854	0.002
Mof_C 	C 	0.0896	0.1426	0.3038	-0.016
Mof_O 	O 	0.97011	0.52407	0.57173	-0.404
Mof_O 	O 	0.94436	0.51111	0.4708	-0.401
Mof_C 	C 	0.94515	0.5232	0.5279	0.353
Mof_C 	C 	0.91353	0.5381	0.54609	-0.112
Mof_C 	C 	0.88541	0.53969	0.49984	0.053
Mof_H 	H 	0.88567	0.53013	0.45773	0.031
Mof_C 	C 	0.85754	0.55498	0.51537	-0.129
Mof_H 	H 	0.83937	0.55673	0.48353	0.089
Mof_C 	C 	0.85575	0.56788	0.57719	0.1
Mof_C 	C 	0.88342	0.56616	0.62317	-0.13
Mof_H 	H 	0.88257	0.57503	0.66553	0.079
Mof_C 	C 	0.91243	0.55139	0.60714	0.053
Mof_H 	H 	0.93137	0.55053	0.63853	0.03
Mof_C 	C 	0.8282	0.58732	0.59465	-0.06
Mof_C 	C 	0.84637	0.62533	0.63063	-0.044
Mof_H 	H 	0.87597	0.63783	0.64373	0.046
Mof_C 	C 	0.75457	0.48853	0.57933	0.045
Mof_C 	C 	0.74087	0.45403	0.51873	0.001
Mof_C 	C 	0.75627	0.47593	0.63713	-0.016
Mof_O 	O 	0.63677	0.85741	0.90507	-0.404
Mof_O 	O 	0.61102	0.84445	0.80414	-0.401
Mof_C 	C 	0.61181	0.85654	0.86124	0.353
Mof_C 	C 	0.58019	0.87144	0.87943	-0.112
Mof_C 	C 	0.55207	0.87303	0.83318	0.053
Mof_H 	H 	0.55233	0.86347	0.79107	0.031
Mof_C 	C 	0.5242	0.88832	0.84871	-0.129
Mof_H 	H 	0.50603	0.89007	0.81687	0.089
Mof_C 	C 	0.52241	0.90122	0.91053	0.1
Mof_C 	C 	0.55008	0.8995	0.95651	-0.13
Mof_H 	H 	0.54923	0.90837	0.99887	0.079
Mof_C 	C 	0.57909	0.88473	0.94048	0.053
Mof_H 	H 	0.59803	0.88387	0.97187	0.03
Mof_C 	C 	0.49486	0.92066	0.92799	-0.06
Mof_C 	C 	0.51303	0.95867	0.96397	-0.044
Mof_H 	H 	0.54263	0.97117	0.97707	0.046
Mof_C 	C 	0.42123	0.82187	0.91267	0.045
Mof_C 	C 	0.40753	0.78737	0.85207	0.001
Mof_C 	C 	0.42293	0.80927	0.97047	-0.016
Mof_O 	O 	0.80926	0.1127	0.2384	-0.404
Mof_O 	O 	0.82222	0.09991	0.13747	-0.401
Mof_C 	C 	0.81013	0.08861	0.19457	0.353
Mof_C 	C 	0.79523	0.04209	0.21276	-0.112
Mof_C 	C 	0.79364	0.01238	0.16651	0.053
Mof_H 	H 	0.8032	0.0222	0.1244	0.031
Mof_C 	C 	0.77835	0.96922	0.18204	-0.129
Mof_H 	H 	0.7766	0.9493	0.1502	0.089
Mof_C 	C 	0.76545	0.95453	0.24386	0.1
Mof_C 	C 	0.76717	0.98392	0.28984	-0.13
Mof_H 	H 	0.7583	0.9742	0.3322	0.079
Mof_C 	C 	0.78194	0.0277	0.27381	0.053
Mof_H 	H 	0.7828	0.0475	0.3052	0.03
Mof_C 	C 	0.74601	0.90754	0.26132	-0.06
Mof_C 	C 	0.708	0.8877	0.2973	-0.044
Mof_H 	H 	0.6955	0.9048	0.3104	0.046
Mof_C 	C 	0.8448	0.9327	0.246	0.045
Mof_C 	C 	0.8793	0.9535	0.1854	0.001
Mof_C 	C 	0.8574	0.947	0.3038	-0.016
Mof_O 	O 	0.47593	0.44603	0.57173	-0.404
Mof_O 	O 	0.48889	0.43324	0.4708	-0.401
Mof_C 	C 	0.4768	0.42194	0.5279	0.353
Mof_C 	C 	0.4619	0.37542	0.54609	-0.112
Mof_C 	C 	0.46031	0.34571	0.49984	0.053
Mof_H 	H 	0.46987	0.35553	0.45773	0.031
Mof_C 	C 	0.44502	0.30255	0.51537	-0.129
Mof_H 	H 	0.44327	0.28263	0.48353	0.089
Mof_C 	C 	0.43212	0.28786	0.57719	0.1
Mof_C 	C 	0.43384	0.31725	0.62317	-0.13
Mof_H 	H 	0.42497	0.30753	0.66553	0.079
Mof_C 	C 	0.44861	0.36103	0.60714	0.053
Mof_H 	H 	0.44947	0.38083	0.63853	0.03
Mof_C 	C 	0.41268	0.24087	0.59465	-0.06
Mof_C 	C 	0.37467	0.22103	0.63063	-0.044
Mof_H 	H 	0.36217	0.23813	0.64373	0.046
Mof_C 	C 	0.51147	0.26603	0.57933	0.045
Mof_C 	C 	0.54597	0.28683	0.51873	0.001
Mof_C 	C 	0.52407	0.28033	0.63713	-0.016
Mof_O 	O 	0.14259	0.77937	0.90507	-0.404
Mof_O 	O 	0.15555	0.76658	0.80414	-0.401
Mof_C 	C 	0.14346	0.75528	0.86124	0.353
Mof_C 	C 	0.12856	0.70876	0.87943	-0.112
Mof_C 	C 	0.12697	0.67905	0.83318	0.053
Mof_H 	H 	0.13653	0.68887	0.79107	0.031
Mof_C 	C 	0.11168	0.63589	0.84871	-0.129
Mof_H 	H 	0.10993	0.61597	0.81687	0.089
Mof_C 	C 	0.09878	0.6212	0.91053	0.1
Mof_C 	C 	0.1005	0.65059	0.95651	-0.13
Mof_H 	H 	0.09163	0.64087	0.99887	0.079
Mof_C 	C 	0.11527	0.69437	0.94048	0.053
Mof_H 	H 	0.11613	0.71417	0.97187	0.03
Mof_C 	C 	0.07934	0.57421	0.92799	-0.06
Mof_C 	C 	0.04133	0.55437	0.96397	-0.044
Mof_H 	H 	0.02883	0.57147	0.97707	0.046
Mof_C 	C 	0.17813	0.59937	0.91267	0.045
Mof_C 	C 	0.21263	0.62017	0.85207	0.001
Mof_C 	C 	0.19073	0.61367	0.97047	-0.016
Mof_O 	O 	0.8873	0.69656	0.2384	-0.404
Mof_O 	O 	0.90009	0.72231	0.13747	-0.401
Mof_C 	C 	0.91139	0.72152	0.19457	0.353
Mof_C 	C 	0.95791	0.75314	0.21276	-0.112
Mof_C 	C 	0.98762	0.78126	0.16651	0.053
Mof_H 	H 	0.9778	0.781	0.1244	0.031
Mof_C 	C 	0.03078	0.80913	0.18204	-0.128
Mof_H 	H 	0.0507	0.8273	0.1502	0.089
Mof_C 	C 	0.04547	0.81092	0.24386	0.1
Mof_C 	C 	0.01608	0.78325	0.28984	-0.13
Mof_H 	H 	0.0258	0.7841	0.3322	0.078
Mof_C 	C 	0.9723	0.75424	0.27381	0.053
Mof_H 	H 	0.9525	0.7353	0.3052	0.03
Mof_C 	C 	0.09246	0.83847	0.26132	-0.06
Mof_C 	C 	0.1123	0.8203	0.2973	-0.044
Mof_H 	H 	0.0952	0.7907	0.3104	0.046
Mof_C 	C 	0.0673	0.9121	0.246	0.045
Mof_C 	C 	0.0465	0.9258	0.1854	0.001
Mof_C 	C 	0.053	0.9104	0.3038	-0.016
Mof_O 	O 	0.55397	0.02989	0.57173	-0.404
Mof_O 	O 	0.56676	0.05564	0.4708	-0.401
Mof_C 	C 	0.57806	0.05485	0.5279	0.353
Mof_C 	C 	0.62458	0.08647	0.54609	-0.112
Mof_C 	C 	0.65429	0.11459	0.49984	0.053
Mof_H 	H 	0.64447	0.11433	0.45773	0.031
Mof_C 	C 	0.69745	0.14246	0.51537	-0.129
Mof_H 	H 	0.71737	0.16063	0.48353	0.089
Mof_C 	C 	0.71214	0.14425	0.57719	0.1
Mof_C 	C 	0.68275	0.11658	0.62317	-0.13
Mof_H 	H 	0.69247	0.11743	0.66553	0.079
Mof_C 	C 	0.63897	0.08757	0.60714	0.053
Mof_H 	H 	0.61917	0.06863	0.63853	0.03
Mof_C 	C 	0.75913	0.1718	0.59465	-0.06
Mof_C 	C 	0.77897	0.15363	0.63063	-0.044
Mof_H 	H 	0.76187	0.12403	0.64373	0.046
Mof_C 	C 	0.73397	0.24543	0.57933	0.045
Mof_C 	C 	0.71317	0.25913	0.51873	0.001
Mof_C 	C 	0.71967	0.24373	0.63713	-0.016
Mof_O 	O 	0.22063	0.36323	0.90507	-0.404
Mof_O 	O 	0.23342	0.38898	0.80414	-0.401
Mof_C 	C 	0.24472	0.38819	0.86124	0.353
Mof_C 	C 	0.29124	0.41981	0.87943	-0.112
Mof_C 	C 	0.32095	0.44793	0.83318	0.053
Mof_H 	H 	0.31113	0.44767	0.79107	0.031
Mof_C 	C 	0.36411	0.4758	0.84871	-0.129
Mof_H 	H 	0.38403	0.49397	0.81687	0.089
Mof_C 	C 	0.3788	0.47759	0.91053	0.1
Mof_C 	C 	0.34941	0.44992	0.95651	-0.13
Mof_H 	H 	0.35913	0.45077	0.99887	0.079
Mof_C 	C 	0.30563	0.42091	0.94048	0.053
Mof_H 	H 	0.28583	0.40197	0.97187	0.03
Mof_C 	C 	0.42579	0.50514	0.92799	-0.06
Mof_C 	C 	0.44563	0.48697	0.96397	-0.044
Mof_H 	H 	0.42853	0.45737	0.97707	0.046
Mof_C 	C 	0.40063	0.57877	0.91267	0.045
Mof_C 	C 	0.37983	0.59247	0.85207	0.001
Mof_C 	C 	0.38633	0.57707	0.97047	-0.016
Mof_O 	O 	0.19074	0.30344	0.7616	-0.404
Mof_O 	O 	0.17778	0.27769	0.86253	-0.401
Mof_C 	C 	0.18987	0.27848	0.80543	0.353
Mof_C 	C 	0.20477	0.24686	0.78724	-0.112
Mof_C 	C 	0.20636	0.21874	0.83349	0.053
Mof_H 	H 	0.1968	0.219	0.8756	0.031
Mof_C 	C 	0.22165	0.19087	0.81796	-0.129
Mof_H 	H 	0.2234	0.1727	0.8498	0.089
Mof_C 	C 	0.23455	0.18908	0.75614	0.1
Mof_C 	C 	0.23283	0.21675	0.71016	-0.13
Mof_H 	H 	0.2417	0.2159	0.6678	0.079
Mof_C 	C 	0.21806	0.24576	0.72619	0.053
Mof_H 	H 	0.2172	0.2647	0.6948	0.03
Mof_C 	C 	0.25399	0.16153	0.73868	-0.06
Mof_C 	C 	0.292	0.1797	0.7027	-0.044
Mof_H 	H 	0.3045	0.2093	0.6896	0.046
Mof_C 	C 	0.1552	0.0879	0.754	0.045
Mof_C 	C 	0.1207	0.0742	0.8146	0.001
Mof_C 	C 	0.1426	0.0896	0.6962	-0.016
Mof_O 	O 	0.85741	0.63677	0.09493	-0.404
Mof_O 	O 	0.84445	0.61102	0.19586	-0.401
Mof_C 	C 	0.85654	0.61181	0.13876	0.353
Mof_C 	C 	0.87144	0.58019	0.12057	-0.112
Mof_C 	C 	0.87303	0.55207	0.16682	0.053
Mof_H 	H 	0.86347	0.55233	0.20893	0.031
Mof_C 	C 	0.88832	0.5242	0.15129	-0.129
Mof_H 	H 	0.89007	0.50603	0.18313	0.089
Mof_C 	C 	0.90122	0.52241	0.08947	0.1
Mof_C 	C 	0.8995	0.55008	0.04349	-0.13
Mof_H 	H 	0.90837	0.54923	0.00113	0.079
Mof_C 	C 	0.88473	0.57909	0.05952	0.053
Mof_H 	H 	0.88387	0.59803	0.02813	0.03
Mof_C 	C 	0.92066	0.49486	0.07201	-0.06
Mof_C 	C 	0.95867	0.51303	0.03603	-0.044
Mof_H 	H 	0.97117	0.54263	0.02293	0.046
Mof_C 	C 	0.82187	0.42123	0.08733	0.045
Mof_C 	C 	0.78737	0.40753	0.14793	0.001
Mof_C 	C 	0.80927	0.42293	0.02953	-0.016
Mof_O 	O 	0.52407	0.97011	0.42827	-0.404
Mof_O 	O 	0.51111	0.94436	0.5292	-0.401
Mof_C 	C 	0.5232	0.94515	0.4721	0.353
Mof_C 	C 	0.5381	0.91353	0.45391	-0.112
Mof_C 	C 	0.53969	0.88541	0.50016	0.053
Mof_H 	H 	0.53013	0.88567	0.54227	0.031
Mof_C 	C 	0.55498	0.85754	0.48463	-0.129
Mof_H 	H 	0.55673	0.83937	0.51647	0.089
Mof_C 	C 	0.56788	0.85575	0.42281	0.1
Mof_C 	C 	0.56616	0.88342	0.37683	-0.13
Mof_H 	H 	0.57503	0.88257	0.33447	0.079
Mof_C 	C 	0.55139	0.91243	0.39286	0.053
Mof_H 	H 	0.55053	0.93137	0.36147	0.03
Mof_C 	C 	0.58732	0.8282	0.40535	-0.06
Mof_C 	C 	0.62533	0.84637	0.36937	-0.044
Mof_H 	H 	0.63783	0.87597	0.35627	0.046
Mof_C 	C 	0.48853	0.75457	0.42067	0.045
Mof_C 	C 	0.45403	0.74087	0.48127	0.001
Mof_C 	C 	0.47593	0.75627	0.36287	-0.016
Mof_O 	O 	0.1127	0.80926	0.7616	-0.404
Mof_O 	O 	0.09991	0.82222	0.86253	-0.401
Mof_C 	C 	0.08861	0.81013	0.80543	0.353
Mof_C 	C 	0.04209	0.79523	0.78724	-0.112
Mof_C 	C 	0.01238	0.79364	0.83349	0.053
Mof_H 	H 	0.0222	0.8032	0.8756	0.031
Mof_C 	C 	0.96922	0.77835	0.81796	-0.129
Mof_H 	H 	0.9493	0.7766	0.8498	0.089
Mof_C 	C 	0.95453	0.76545	0.75614	0.1
Mof_C 	C 	0.98392	0.76717	0.71016	-0.13
Mof_H 	H 	0.9742	0.7583	0.6678	0.079
Mof_C 	C 	0.0277	0.78194	0.72619	0.053
Mof_H 	H 	0.0475	0.7828	0.6948	0.03
Mof_C 	C 	0.90754	0.74601	0.73868	-0.06
Mof_C 	C 	0.8877	0.708	0.7027	-0.044
Mof_H 	H 	0.9048	0.6955	0.6896	0.046
Mof_C 	C 	0.9327	0.8448	0.754	0.045
Mof_C 	C 	0.9535	0.8793	0.8146	0.001
Mof_C 	C 	0.947	0.8574	0.6962	-0.016
Mof_O 	O 	0.77937	0.14259	0.09493	-0.404
Mof_O 	O 	0.76658	0.15555	0.19586	-0.401
Mof_C 	C 	0.75528	0.14346	0.13876	0.353
Mof_C 	C 	0.70876	0.12856	0.12057	-0.112
Mof_C 	C 	0.67905	0.12697	0.16682	0.053
Mof_H 	H 	0.68887	0.13653	0.20893	0.031
Mof_C 	C 	0.63589	0.11168	0.15129	-0.129
Mof_H 	H 	0.61597	0.10993	0.18313	0.089
Mof_C 	C 	0.6212	0.09878	0.08947	0.1
Mof_C 	C 	0.65059	0.1005	0.04349	-0.13
Mof_H 	H 	0.64087	0.09163	0.00113	0.079
Mof_C 	C 	0.69437	0.11527	0.05952	0.053
Mof_H 	H 	0.71417	0.11613	0.02813	0.03
Mof_C 	C 	0.57421	0.07934	0.07201	-0.06
Mof_C 	C 	0.55437	0.04133	0.03603	-0.044
Mof_H 	H 	0.57147	0.02883	0.02293	0.046
Mof_C 	C 	0.59937	0.17813	0.08733	0.045
Mof_C 	C 	0.62017	0.21263	0.14793	0.001
Mof_C 	C 	0.61367	0.19073	0.02953	-0.016
Mof_O 	O 	0.44603	0.47593	0.42827	-0.404
Mof_O 	O 	0.43324	0.48889	0.5292	-0.401
Mof_C 	C 	0.42194	0.4768	0.4721	0.353
Mof_C 	C 	0.37542	0.4619	0.45391	-0.112
Mof_C 	C 	0.34571	0.46031	0.50016	0.053
Mof_H 	H 	0.35553	0.46987	0.54227	0.031
Mof_C 	C 	0.30255	0.44502	0.48463	-0.129
Mof_H 	H 	0.28263	0.44327	0.51647	0.089
Mof_C 	C 	0.28786	0.43212	0.42281	0.1
Mof_C 	C 	0.31725	0.43384	0.37683	-0.13
Mof_H 	H 	0.30753	0.42497	0.33447	0.079
Mof_C 	C 	0.36103	0.44861	0.39286	0.053
Mof_H 	H 	0.38083	0.44947	0.36147	0.03
Mof_C 	C 	0.24087	0.41268	0.40535	-0.06
Mof_C 	C 	0.22103	0.37467	0.36937	-0.044
Mof_H 	H 	0.23813	0.36217	0.35627	0.046
Mof_C 	C 	0.26603	0.51147	0.42067	0.045
Mof_C 	C 	0.28683	0.54597	0.48127	0.001
Mof_C 	C 	0.28033	0.52407	0.36287	-0.016
Mof_O 	O 	0.69656	0.8873	0.7616	-0.404
Mof_O 	O 	0.72231	0.90009	0.86253	-0.401
Mof_C 	C 	0.72152	0.91139	0.80543	0.353
Mof_C 	C 	0.75314	0.95791	0.78724	-0.112
Mof_C 	C 	0.78126	0.98762	0.83349	0.053
Mof_H 	H 	0.781	0.9778	0.8756	0.031
Mof_C 	C 	0.80913	0.03078	0.81796	-0.128
Mof_H 	H 	0.8273	0.0507	0.8498	0.089
Mof_C 	C 	0.81092	0.04547	0.75614	0.1
Mof_C 	C 	0.78325	0.01608	0.71016	-0.13
Mof_H 	H 	0.7841	0.0258	0.6678	0.078
Mof_C 	C 	0.75424	0.9723	0.72619	0.053
Mof_H 	H 	0.7353	0.9525	0.6948	0.03
Mof_C 	C 	0.83847	0.09246	0.73868	-0.06
Mof_C 	C 	0.8203	0.1123	0.7027	-0.044
Mof_H 	H 	0.7907	0.0952	0.6896	0.046
Mof_C 	C 	0.9121	0.0673	0.754	0.045
Mof_C 	C 	0.9258	0.0465	0.8146	0.001
Mof_C 	C 	0.9104	0.053	0.6962	-0.016
Mof_O 	O 	0.36323	0.22063	0.09493	-0.404
Mof_O 	O 	0.38898	0.23342	0.19586	-0.401
Mof_C 	C 	0.38819	0.24472	0.13876	0.353
Mof_C 	C 	0.41981	0.29124	0.12057	-0.112
Mof_C 	C 	0.44793	0.32095	0.16682	0.053
Mof_H 	H 	0.44767	0.31113	0.20893	0.031
Mof_C 	C 	0.4758	0.36411	0.15129	-0.129
Mof_H 	H 	0.49397	0.38403	0.18313	0.089
Mof_C 	C 	0.47759	0.3788	0.08947	0.1
Mof_C 	C 	0.44992	0.34941	0.04349	-0.13
Mof_H 	H 	0.45077	0.35913	0.00113	0.079
Mof_C 	C 	0.42091	0.30563	0.05952	0.053
Mof_H 	H 	0.40197	0.28583	0.02813	0.03
Mof_C 	C 	0.50514	0.42579	0.07201	-0.06
Mof_C 	C 	0.48697	0.44563	0.03603	-0.044
Mof_H 	H 	0.45737	0.42853	0.02293	0.046
Mof_C 	C 	0.57877	0.40063	0.08733	0.045
Mof_C 	C 	0.59247	0.37983	0.14793	0.001
Mof_C 	C 	0.57707	0.38633	0.02953	-0.016
Mof_O 	O 	0.02989	0.55397	0.42827	-0.404
Mof_O 	O 	0.05564	0.56676	0.5292	-0.401
Mof_C 	C 	0.05485	0.57806	0.4721	0.353
Mof_C 	C 	0.08647	0.62458	0.45391	-0.112
Mof_C 	C 	0.11459	0.65429	0.50016	0.053
Mof_H 	H 	0.11433	0.64447	0.54227	0.031
Mof_C 	C 	0.14246	0.69745	0.48463	-0.129
Mof_H 	H 	0.16063	0.71737	0.51647	0.089
Mof_C 	C 	0.14425	0.71214	0.42281	0.1
Mof_C 	C 	0.11658	0.68275	0.37683	-0.13
Mof_H 	H 	0.11743	0.69247	0.33447	0.079
Mof_C 	C 	0.08757	0.63897	0.39286	0.053
Mof_H 	H 	0.06863	0.61917	0.36147	0.03
Mof_C 	C 	0.1718	0.75913	0.40535	-0.06
Mof_C 	C 	0.15363	0.77897	0.36937	-0.044
Mof_H 	H 	0.12403	0.76187	0.35627	0.046
Mof_C 	C 	0.24543	0.73397	0.42067	0.045
Mof_C 	C 	0.25913	0.71317	0.48127	0.001
Mof_C 	C 	0.24373	0.71967	0.36287	-0.016
Mof_O 	O 	0.69656	0.80926	0.7616	-0.404
Mof_O 	O 	0.72231	0.82222	0.86253	-0.401
Mof_C 	C 	0.72152	0.81013	0.80543	0.353
Mof_C 	C 	0.75314	0.79523	0.78724	-0.112
Mof_C 	C 	0.78126	0.79364	0.83349	0.053
Mof_H 	H 	0.781	0.8032	0.8756	0.031
Mof_C 	C 	0.80913	0.77835	0.81796	-0.129
Mof_H 	H 	0.8273	0.7766	0.8498	0.089
Mof_C 	C 	0.81092	0.76545	0.75614	0.1
Mof_C 	C 	0.78325	0.76717	0.71016	-0.13
Mof_H 	H 	0.7841	0.7583	0.6678	0.079
Mof_C 	C 	0.75424	0.78194	0.72619	0.053
Mof_H 	H 	0.7353	0.7828	0.6948	0.03
Mof_C 	C 	0.83847	0.74601	0.73868	-0.06
Mof_C 	C 	0.8203	0.708	0.7027	-0.044
Mof_H 	H 	0.7907	0.6955	0.6896	0.046
Mof_C 	C 	0.9121	0.8448	0.754	0.045
Mof_C 	C 	0.9258	0.8793	0.8146	0.001
Mof_C 	C 	0.9104	0.8574	0.6962	-0.016
Mof_O 	O 	0.36323	0.14259	0.09493	-0.404
Mof_O 	O 	0.38898	0.15555	0.19586	-0.401
Mof_C 	C 	0.38819	0.14346	0.13876	0.353
Mof_C 	C 	0.41981	0.12856	0.12057	-0.112
Mof_C 	C 	0.44793	0.12697	0.16682	0.053
Mof_H 	H 	0.44767	0.13653	0.20893	0.031
Mof_C 	C 	0.4758	0.11168	0.15129	-0.129
Mof_H 	H 	0.49397	0.10993	0.18313	0.089
Mof_C 	C 	0.47759	0.09878	0.08947	0.1
Mof_C 	C 	0.44992	0.1005	0.04349	-0.13
Mof_H 	H 	0.45077	0.09163	0.00113	0.079
Mof_C 	C 	0.42091	0.11527	0.05952	0.053
Mof_H 	H 	0.40197	0.11613	0.02813	0.03
Mof_C 	C 	0.50514	0.07934	0.07201	-0.06
Mof_C 	C 	0.48697	0.04133	0.03603	-0.044
Mof_H 	H 	0.45737	0.02883	0.02293	0.046
Mof_C 	C 	0.57877	0.17813	0.08733	0.045
Mof_C 	C 	0.59247	0.21263	0.14793	0.001
Mof_C 	C 	0.57707	0.19073	0.02953	-0.016
Mof_O 	O 	0.02989	0.47593	0.42827	-0.404
Mof_O 	O 	0.05564	0.48889	0.5292	-0.401
Mof_C 	C 	0.05485	0.4768	0.4721	0.353
Mof_C 	C 	0.08647	0.4619	0.45391	-0.112
Mof_C 	C 	0.11459	0.46031	0.50016	0.053
Mof_H 	H 	0.11433	0.46987	0.54227	0.031
Mof_C 	C 	0.14246	0.44502	0.48463	-0.129
Mof_H 	H 	0.16063	0.44327	0.51647	0.089
Mof_C 	C 	0.14425	0.43212	0.42281	0.1
Mof_C 	C 	0.11658	0.43384	0.37683	-0.13
Mof_H 	H 	0.11743	0.42497	0.33447	0.079
Mof_C 	C 	0.08757	0.44861	0.39286	0.053
Mof_H 	H 	0.06863	0.44947	0.36147	0.03
Mof_C 	C 	0.1718	0.41268	0.40535	-0.06
Mof_C 	C 	0.15363	0.37467	0.36937	-0.044
Mof_H 	H 	0.12403	0.36217	0.35627	0.046
Mof_C 	C 	0.24543	0.51147	0.42067	0.045
Mof_C 	C 	0.25913	0.54597	0.48127	0.001
Mof_C 	C 	0.24373	0.52407	0.36287	-0.016
Mof_O 	O 	0.19074	0.8873	0.7616	-0.404
Mof_O 	O 	0.17778	0.90009	0.86253	-0.401
Mof_C 	C 	0.18987	0.91139	0.80543	0.353
Mof_C 	C 	0.20477	0.95791	0.78724	-0.112
Mof_C 	C 	0.20636	0.98762	0.83349	0.053
Mof_H 	H 	0.1968	0.9778	0.8756	0.031
Mof_C 	C 	0.22165	0.03078	0.81796	-0.129
Mof_H 	H 	0.2234	0.0507	0.8498	0.089
Mof_C 	C 	0.23455	0.04547	0.75614	0.1
Mof_C 	C 	0.23283	0.01608	0.71016	-0.13
Mof_H 	H 	0.2417	0.0258	0.6678	0.079
Mof_C 	C 	0.21806	0.9723	0.72619	0.053
Mof_H 	H 	0.2172	0.9525	0.6948	0.03
Mof_C 	C 	0.25399	0.09246	0.73868	-0.06
Mof_C 	C 	0.292	0.1123	0.7027	-0.044
Mof_H 	H 	0.3045	0.0952	0.6896	0.046
Mof_C 	C 	0.1552	0.0673	0.754	0.045
Mof_C 	C 	0.1207	0.0465	0.8146	0.001
Mof_C 	C 	0.1426	0.053	0.6962	-0.016
Mof_O 	O 	0.85741	0.22063	0.09493	-0.404
Mof_O 	O 	0.84445	0.23342	0.19586	-0.401
Mof_C 	C 	0.85654	0.24472	0.13876	0.353
Mof_C 	C 	0.87144	0.29124	0.12057	-0.112
Mof_C 	C 	0.87303	0.32095	0.16682	0.053
Mof_H 	H 	0.86347	0.31113	0.20893	0.031
Mof_C 	C 	0.88832	0.36411	0.15129	-0.129
Mof_H 	H 	0.89007	0.38403	0.18313	0.089
Mof_C 	C 	0.90122	0.3788	0.08947	0.1
Mof_C 	C 	0.8995	0.34941	0.04349	-0.13
Mof_H 	H 	0.90837	0.35913	0.00113	0.079
Mof_C 	C 	0.88473	0.30563	0.05952	0.053
Mof_H 	H 	0.88387	0.28583	0.02813	0.03
Mof_C 	C 	0.92066	0.42579	0.07201	-0.06
Mof_C 	C 	0.95867	0.44563	0.03603	-0.044
Mof_H 	H 	0.97117	0.42853	0.02293	0.046
Mof_C 	C 	0.82187	0.40063	0.08733	0.045
Mof_C 	C 	0.78737	0.37983	0.14793	0.001
Mof_C 	C 	0.80927	0.38633	0.02953	-0.016
Mof_O 	O 	0.52407	0.55397	0.42827	-0.404
Mof_O 	O 	0.51111	0.56676	0.5292	-0.401
Mof_C 	C 	0.5232	0.57806	0.4721	0.353
Mof_C 	C 	0.5381	0.62458	0.45391	-0.112
Mof_C 	C 	0.53969	0.65429	0.50016	0.053
Mof_H 	H 	0.53013	0.64447	0.54227	0.031
Mof_C 	C 	0.55498	0.69745	0.48463	-0.129
Mof_H 	H 	0.55673	0.71737	0.51647	0.089
Mof_C 	C 	0.56788	0.71214	0.42281	0.1
Mof_C 	C 	0.56616	0.68275	0.37683	-0.13
Mof_H 	H 	0.57503	0.69247	0.33447	0.079
Mof_C 	C 	0.55139	0.63897	0.39286	0.053
Mof_H 	H 	0.55053	0.61917	0.36147	0.03
Mof_C 	C 	0.58732	0.75913	0.40535	-0.06
Mof_C 	C 	0.62533	0.77897	0.36937	-0.044
Mof_H 	H 	0.63783	0.76187	0.35627	0.046
Mof_C 	C 	0.48853	0.73397	0.42067	0.045
Mof_C 	C 	0.45403	0.71317	0.48127	0.001
Mof_C 	C 	0.47593	0.71967	0.36287	-0.016
Mof_O 	O 	0.1127	0.30344	0.7616	-0.404
Mof_O 	O 	0.09991	0.27769	0.86253	-0.401
Mof_C 	C 	0.08861	0.27848	0.80543	0.353
Mof_C 	C 	0.04209	0.24686	0.78724	-0.112
Mof_C 	C 	0.01238	0.21874	0.83349	0.053
Mof_H 	H 	0.0222	0.219	0.8756	0.031
Mof_C 	C 	0.96922	0.19087	0.81796	-0.128
Mof_H 	H 	0.9493	0.1727	0.8498	0.089
Mof_C 	C 	0.95453	0.18908	0.75614	0.1
Mof_C 	C 	0.98392	0.21675	0.71016	-0.13
Mof_H 	H 	0.9742	0.2159	0.6678	0.078
Mof_C 	C 	0.0277	0.24576	0.72619	0.053
Mof_H 	H 	0.0475	0.2647	0.6948	0.03
Mof_C 	C 	0.90754	0.16153	0.73868	-0.06
Mof_C 	C 	0.8877	0.1797	0.7027	-0.044
Mof_H 	H 	0.9048	0.2093	0.6896	0.046
Mof_C 	C 	0.9327	0.0879	0.754	0.045
Mof_C 	C 	0.9535	0.0742	0.8146	0.001
Mof_C 	C 	0.947	0.0896	0.6962	-0.016
Mof_O 	O 	0.77937	0.63677	0.09493	-0.404
Mof_O 	O 	0.76658	0.61102	0.19586	-0.401
Mof_C 	C 	0.75528	0.61181	0.13876	0.353
Mof_C 	C 	0.70876	0.58019	0.12057	-0.112
Mof_C 	C 	0.67905	0.55207	0.16682	0.053
Mof_H 	H 	0.68887	0.55233	0.20893	0.031
Mof_C 	C 	0.63589	0.5242	0.15129	-0.129
Mof_H 	H 	0.61597	0.50603	0.18313	0.089
Mof_C 	C 	0.6212	0.52241	0.08947	0.1
Mof_C 	C 	0.65059	0.55008	0.04349	-0.13
Mof_H 	H 	0.64087	0.54923	0.00113	0.079
Mof_C 	C 	0.69437	0.57909	0.05952	0.053
Mof_H 	H 	0.71417	0.59803	0.02813	0.03
Mof_C 	C 	0.57421	0.49486	0.07201	-0.06
Mof_C 	C 	0.55437	0.51303	0.03603	-0.044
Mof_H 	H 	0.57147	0.54263	0.02293	0.046
Mof_C 	C 	0.59937	0.42123	0.08733	0.045
Mof_C 	C 	0.62017	0.40753	0.14793	0.001
Mof_C 	C 	0.61367	0.42293	0.02953	-0.016
Mof_O 	O 	0.44603	0.97011	0.42827	-0.404
Mof_O 	O 	0.43324	0.94436	0.5292	-0.401
Mof_C 	C 	0.42194	0.94515	0.4721	0.353
Mof_C 	C 	0.37542	0.91353	0.45391	-0.112
Mof_C 	C 	0.34571	0.88541	0.50016	0.053
Mof_H 	H 	0.35553	0.88567	0.54227	0.031
Mof_C 	C 	0.30255	0.85754	0.48463	-0.129
Mof_H 	H 	0.28263	0.83937	0.51647	0.089
Mof_C 	C 	0.28786	0.85575	0.42281	0.1
Mof_C 	C 	0.31725	0.88342	0.37683	-0.13
Mof_H 	H 	0.30753	0.88257	0.33447	0.079
Mof_C 	C 	0.36103	0.91243	0.39286	0.053
Mof_H 	H 	0.38083	0.93137	0.36147	0.03
Mof_C 	C 	0.24087	0.8282	0.40535	-0.06
Mof_C 	C 	0.22103	0.84637	0.36937	-0.044
Mof_H 	H 	0.23813	0.87597	0.35627	0.046
Mof_C 	C 	0.26603	0.75457	0.42067	0.045
Mof_C 	C 	0.28683	0.74087	0.48127	0.001
Mof_C 	C 	0.28033	0.75627	0.36287	-0.016
Mof_O 	O 	0.80926	0.69656	0.2384	-0.404
Mof_O 	O 	0.82222	0.72231	0.13747	-0.401
Mof_C 	C 	0.81013	0.72152	0.19457	0.353
Mof_C 	C 	0.79523	0.75314	0.21276	-0.112
Mof_C 	C 	0.79364	0.78126	0.16651	0.053
Mof_H 	H 	0.8032	0.781	0.1244	0.031
Mof_C 	C 	0.77835	0.80913	0.18204	-0.129
Mof_H 	H 	0.7766	0.8273	0.1502	0.089
Mof_C 	C 	0.76545	0.81092	0.24386	0.1
Mof_C 	C 	0.76717	0.78325	0.28984	-0.13
Mof_H 	H 	0.7583	0.7841	0.3322	0.079
Mof_C 	C 	0.78194	0.75424	0.27381	0.053
Mof_H 	H 	0.7828	0.7353	0.3052	0.03
Mof_C 	C 	0.74601	0.83847	0.26132	-0.06
Mof_C 	C 	0.708	0.8203	0.2973	-0.044
Mof_H 	H 	0.6955	0.7907	0.3104	0.046
Mof_C 	C 	0.8448	0.9121	0.246	0.045
Mof_C 	C 	0.8793	0.9258	0.1854	0.001
Mof_C 	C 	0.8574	0.9104	0.3038	-0.016
Mof_O 	O 	0.47593	0.02989	0.57173	-0.404
Mof_O 	O 	0.48889	0.05564	0.4708	-0.401
Mof_C 	C 	0.4768	0.05485	0.5279	0.353
Mof_C 	C 	0.4619	0.08647	0.54609	-0.112
Mof_C 	C 	0.46031	0.11459	0.49984	0.053
Mof_H 	H 	0.46987	0.11433	0.45773	0.031
Mof_C 	C 	0.44502	0.14246	0.51537	-0.129
Mof_H 	H 	0.44327	0.16063	0.48353	0.089
Mof_C 	C 	0.43212	0.14425	0.57719	0.1
Mof_C 	C 	0.43384	0.11658	0.62317	-0.13
Mof_H 	H 	0.42497	0.11743	0.66553	0.079
Mof_C 	C 	0.44861	0.08757	0.60714	0.053
Mof_H 	H 	0.44947	0.06863	0.63853	0.03
Mof_C 	C 	0.41268	0.1718	0.59465	-0.06
Mof_C 	C 	0.37467	0.15363	0.63063	-0.044
Mof_H 	H 	0.36217	0.12403	0.64373	0.046
Mof_C 	C 	0.51147	0.24543	0.57933	0.045
Mof_C 	C 	0.54597	0.25913	0.51873	0.001
Mof_C 	C 	0.52407	0.24373	0.63713	-0.016
Mof_O 	O 	0.14259	0.36323	0.90507	-0.404
Mof_O 	O 	0.15555	0.38898	0.80414	-0.401
Mof_C 	C 	0.14346	0.38819	0.86124	0.353
Mof_C 	C 	0.12856	0.41981	0.87943	-0.112
Mof_C 	C 	0.12697	0.44793	0.83318	0.053
Mof_H 	H 	0.13653	0.44767	0.79107	0.031
Mof_C 	C 	0.11168	0.4758	0.84871	-0.129
Mof_H 	H 	0.10993	0.49397	0.81687	0.089
Mof_C 	C 	0.09878	0.47759	0.91053	0.1
Mof_C 	C 	0.1005	0.44992	0.95651	-0.13
Mof_H 	H 	0.09163	0.45077	0.99887	0.079
Mof_C 	C 	0.11527	0.42091	0.94048	0.053
Mof_H 	H 	0.11613	0.40197	0.97187	0.03
Mof_C 	C 	0.07934	0.50514	0.92799	-0.06
Mof_C 	C 	0.04133	0.48697	0.96397	-0.044
Mof_H 	H 	0.02883	0.45737	0.97707	0.046
Mof_C 	C 	0.17813	0.57877	0.91267	0.045
Mof_C 	C 	0.21263	0.59247	0.85207	0.001
Mof_C 	C 	0.19073	0.57707	0.97047	-0.016
Mof_O 	O 	0.8873	0.19074	0.2384	-0.404
Mof_O 	O 	0.90009	0.17778	0.13747	-0.401
Mof_C 	C 	0.91139	0.18987	0.19457	0.353
Mof_C 	C 	0.95791	0.20477	0.21276	-0.112
Mof_C 	C 	0.98762	0.20636	0.16651	0.053
Mof_H 	H 	0.9778	0.1968	0.1244	0.031
Mof_C 	C 	0.03078	0.22165	0.18204	-0.129
Mof_H 	H 	0.0507	0.2234	0.1502	0.089
Mof_C 	C 	0.04547	0.23455	0.24386	0.1
Mof_C 	C 	0.01608	0.23283	0.28984	-0.13
Mof_H 	H 	0.0258	0.2417	0.3322	0.079
Mof_C 	C 	0.9723	0.21806	0.27381	0.053
Mof_H 	H 	0.9525	0.2172	0.3052	0.03
Mof_C 	C 	0.09246	0.25399	0.26132	-0.06
Mof_C 	C 	0.1123	0.292	0.2973	-0.044
Mof_H 	H 	0.0952	0.3045	0.3104	0.046
Mof_C 	C 	0.0673	0.1552	0.246	0.045
Mof_C 	C 	0.0465	0.1207	0.1854	0.001
Mof_C 	C 	0.053	0.1426	0.3038	-0.016
Mof_O 	O 	0.55397	0.52407	0.57173	-0.404
Mof_O 	O 	0.56676	0.51111	0.4708	-0.401
Mof_C 	C 	0.57806	0.5232	0.5279	0.353
Mof_C 	C 	0.62458	0.5381	0.54609	-0.112
Mof_C 	C 	0.65429	0.53969	0.49984	0.053
Mof_H 	H 	0.64447	0.53013	0.45773	0.031
Mof_C 	C 	0.69745	0.55498	0.51537	-0.129
Mof_H 	H 	0.71737	0.55673	0.48353	0.089
Mof_C 	C 	0.71214	0.56788	0.57719	0.1
Mof_C 	C 	0.68275	0.56616	0.62317	-0.13
Mof_H 	H 	0.69247	0.57503	0.66553	0.079
Mof_C 	C 	0.63897	0.55139	0.60714	0.053
Mof_H 	H 	0.61917	0.55053	0.63853	0.03
Mof_C 	C 	0.75913	0.58732	0.59465	-0.06
Mof_C 	C 	0.77897	0.62533	0.63063	-0.044
Mof_H 	H 	0.76187	0.63783	0.64373	0.046
Mof_C 	C 	0.73397	0.48853	0.57933	0.045
Mof_C 	C 	0.71317	0.45403	0.51873	0.001
Mof_C 	C 	0.71967	0.47593	0.63713	-0.016
Mof_O 	O 	0.22063	0.85741	0.90507	-0.404
Mof_O 	O 	0.23342	0.84445	0.80414	-0.401
Mof_C 	C 	0.24472	0.85654	0.86124	0.353
Mof_C 	C 	0.29124	0.87144	0.87943	-0.112
Mof_C 	C 	0.32095	0.87303	0.83318	0.053
Mof_H 	H 	0.31113	0.86347	0.79107	0.031
Mof_C 	C 	0.36411	0.88832	0.84871	-0.129
Mof_H 	H 	0.38403	0.89007	0.81687	0.089
Mof_C 	C 	0.3788	0.90122	0.91053	0.1
Mof_C 	C 	0.34941	0.8995	0.95651	-0.13
Mof_H 	H 	0.35913	0.90837	0.99887	0.079
Mof_C 	C 	0.30563	0.88473	0.94048	0.053
Mof_H 	H 	0.28583	0.88387	0.97187	0.03
Mof_C 	C 	0.42579	0.92066	0.92799	-0.06
Mof_C 	C 	0.44563	0.95867	0.96397	-0.044
Mof_H 	H 	0.42853	0.97117	0.97707	0.046
Mof_C 	C 	0.40063	0.82187	0.91267	0.045
Mof_C 	C 	0.37983	0.78737	0.85207	0.001
Mof_C 	C 	0.38633	0.80927	0.97047	-0.016
Mof_O 	O 	0.30344	0.1127	0.2384	-0.404
Mof_O 	O 	0.27769	0.09991	0.13747	-0.401
Mof_C 	C 	0.27848	0.08861	0.19457	0.353
Mof_C 	C 	0.24686	0.04209	0.21276	-0.112
Mof_C 	C 	0.21874	0.01238	0.16651	0.053
Mof_H 	H 	0.219	0.0222	0.1244	0.031
Mof_C 	C 	0.19087	0.96922	0.18204	-0.128
Mof_H 	H 	0.1727	0.9493	0.1502	0.089
Mof_C 	C 	0.18908	0.95453	0.24386	0.1
Mof_C 	C 	0.21675	0.98392	0.28984	-0.13
Mof_H 	H 	0.2159	0.9742	0.3322	0.078
Mof_C 	C 	0.24576	0.0277	0.27381	0.053
Mof_H 	H 	0.2647	0.0475	0.3052	0.03
Mof_C 	C 	0.16153	0.90754	0.26132	-0.06
Mof_C 	C 	0.1797	0.8877	0.2973	-0.044
Mof_H 	H 	0.2093	0.9048	0.3104	0.046
Mof_C 	C 	0.0879	0.9327	0.246	0.045
Mof_C 	C 	0.0742	0.9535	0.1854	0.001
Mof_C 	C 	0.0896	0.947	0.3038	-0.016
Mof_O 	O 	0.97011	0.44603	0.57173	-0.404
Mof_O 	O 	0.94436	0.43324	0.4708	-0.401
Mof_C 	C 	0.94515	0.42194	0.5279	0.353
Mof_C 	C 	0.91353	0.37542	0.54609	-0.112
Mof_C 	C 	0.88541	0.34571	0.49984	0.053
Mof_H 	H 	0.88567	0.35553	0.45773	0.031
Mof_C 	C 	0.85754	0.30255	0.51537	-0.129
Mof_H 	H 	0.83937	0.28263	0.48353	0.089
Mof_C 	C 	0.85575	0.28786	0.57719	0.1
Mof_C 	C 	0.88342	0.31725	0.62317	-0.13
Mof_H 	H 	0.88257	0.30753	0.66553	0.079
Mof_C 	C 	0.91243	0.36103	0.60714	0.053
Mof_H 	H 	0.93137	0.38083	0.63853	0.03
Mof_C 	C 	0.8282	0.24087	0.59465	-0.06
Mof_C 	C 	0.84637	0.22103	0.63063	-0.044
Mof_H 	H 	0.87597	0.23813	0.64373	0.046
Mof_C 	C 	0.75457	0.26603	0.57933	0.045
Mof_C 	C 	0.74087	0.28683	0.51873	0.001
Mof_C 	C 	0.75627	0.28033	0.63713	-0.016
Mof_O 	O 	0.63677	0.77937	0.90507	-0.404
Mof_O 	O 	0.61102	0.76658	0.80414	-0.401
Mof_C 	C 	0.61181	0.75528	0.86124	0.353
Mof_C 	C 	0.58019	0.70876	0.87943	-0.112
Mof_C 	C 	0.55207	0.67905	0.83318	0.053
Mof_H 	H 	0.55233	0.68887	0.79107	0.031
Mof_C 	C 	0.5242	0.63589	0.84871	-0.129
Mof_H 	H 	0.50603	0.61597	0.81687	0.089
Mof_C 	C 	0.52241	0.6212	0.91053	0.1
Mof_C 	C 	0.55008	0.65059	0.95651	-0.13
Mof_H 	H 	0.54923	0.64087	0.99887	0.079
Mof_C 	C 	0.57909	0.69437	0.94048	0.053
Mof_H 	H 	0.59803	0.71417	0.97187	0.03
Mof_C 	C 	0.49486	0.57421	0.92799	-0.06
Mof_C 	C 	0.51303	0.55437	0.96397	-0.044
Mof_H 	H 	0.54263	0.57147	0.97707	0.046
Mof_C 	C 	0.42123	0.59937	0.91267	0.045
Mof_C 	C 	0.40753	0.62017	0.85207	0.001
Mof_C 	C 	0.42293	0.61367	0.97047	-0.016
Mof_Cu	Cu	0.31841	0.1592	0.10785	0.903
Mof_Cu	Cu	0.98508	0.49254	0.44118	0.903
Mof_Cu	Cu	0.65174	0.82587	0.77452	0.903
Mof_Cu	Cu	0.8408	0.1592	0.10785	0.903
Mof_Cu	Cu	0.50746	0.49254	0.44118	0.903
Mof_Cu	Cu	0.17413	0.82587	0.77452	0.903
Mof_Cu	Cu	0.8408	0.68159	0.10785	0.903
Mof_Cu	Cu	0.50746	0.01492	0.44118	0.903
Mof_Cu	Cu	0.17413	0.34826	0.77452	0.903
Mof_Cu	Cu	0.1592	0.31841	0.89215	0.903
Mof_Cu	Cu	0.82587	0.65174	0.22548	0.903
Mof_Cu	Cu	0.49254	0.98508	0.55882	0.903
Mof_Cu	Cu	0.1592	0.8408	0.89215	0.903
Mof_Cu	Cu	0.82587	0.17413	0.22548	0.903
Mof_Cu	Cu	0.49254	0.50746	0.55882	0.903
Mof_Cu	Cu	0.68159	0.8408	0.89215	0.903
Mof_Cu	Cu	0.34826	0.17413	0.22548	0.903
Mof_Cu	Cu	0.01492	0.50746	0.55882	0.903
Mof_O 	O 	0.09801	0.19603	0.2093	-0.215
Mof_C 	C 	0.15636	0.31272	0.3153	0.008
Mof_C 	C 	0.1171	0.2342	0.244	0.135
Mof_O 	O 	0.76468	0.52936	0.54263	-0.215
Mof_C 	C 	0.82303	0.64605	0.64863	0.008
Mof_C 	C 	0.78377	0.56753	0.57733	0.135
Mof_O 	O 	0.43135	0.8627	0.87597	-0.215
Mof_C 	C 	0.48969	0.97939	0.98197	0.008
Mof_C 	C 	0.45043	0.90087	0.91067	0.135
Mof_O 	O 	0.80397	0.90199	0.2093	-0.215
Mof_C 	C 	0.68728	0.84364	0.3153	0.008
Mof_C 	C 	0.7658	0.8829	0.244	0.135
Mof_O 	O 	0.47064	0.23532	0.54263	-0.215
Mof_C 	C 	0.35395	0.17697	0.64863	0.008
Mof_C 	C 	0.43247	0.21623	0.57733	0.135
Mof_O 	O 	0.1373	0.56865	0.87597	-0.215
Mof_C 	C 	0.02061	0.51031	0.98197	0.008
Mof_C 	C 	0.09913	0.54957	0.91067	0.135
Mof_O 	O 	0.09802	0.90199	0.2093	-0.215
Mof_C 	C 	0.15636	0.84364	0.3153	0.008
Mof_C 	C 	0.1171	0.8829	0.244	0.135
Mof_O 	O 	0.76468	0.23532	0.54263	-0.215
Mof_C 	C 	0.82303	0.17697	0.64863	0.008
Mof_C 	C 	0.78377	0.21623	0.57733	0.135
Mof_O 	O 	0.43135	0.56865	0.87597	-0.215
Mof_C 	C 	0.48969	0.51031	0.98197	0.008
Mof_C 	C 	0.45043	0.54957	0.91067	0.135
Mof_O 	O 	0.19603	0.09801	0.7907	-0.215
Mof_C 	C 	0.31272	0.15636	0.6847	0.008
Mof_C 	C 	0.2342	0.1171	0.756	0.135
Mof_O 	O 	0.8627	0.43135	0.12403	-0.215
Mof_C 	C 	0.97939	0.48969	0.01803	0.008
Mof_C 	C 	0.90087	0.45043	0.08933	0.135
Mof_O 	O 	0.52936	0.76468	0.45737	-0.215
Mof_C 	C 	0.64605	0.82303	0.35137	0.008
Mof_C 	C 	0.56753	0.78377	0.42267	0.135
Mof_O 	O 	0.90198	0.80397	0.7907	-0.215
Mof_C 	C 	0.84364	0.68728	0.6847	0.008
Mof_C 	C 	0.8829	0.7658	0.756	0.135
Mof_O 	O 	0.56865	0.1373	0.12403	-0.215
Mof_C 	C 	0.51031	0.02061	0.01803	0.008
Mof_C 	C 	0.54957	0.09913	0.08933	0.135
Mof_O 	O 	0.23532	0.47064	0.45737	-0.215
Mof_C 	C 	0.17697	0.35395	0.35137	0.008
Mof_C 	C 	0.21623	0.43247	0.42267	0.135
Mof_O 	O 	0.90198	0.09802	0.7907	-0.215
Mof_C 	C 	0.84364	0.15636	0.6847	0.008
Mof_C 	C 	0.8829	0.1171	0.756	0.135
Mof_O 	O 	0.56865	0.43135	0.12403	-0.215
Mof_C 	C 	0.51031	0.48969	0.01803	0.008
Mof_C 	C 	0.54957	0.45043	0.08933	0.135
Mof_O 	O 	0.23532	0.76468	0.45737	-0.215
Mof_C 	C 	0.17697	0.82303	0.35137	0.008
Mof_C 	C 	0.21623	0.78377	0.42267	0.135
_end
