data_functionalizedCrystal
_audit_creation_method	'EQeq! by Chris Wilmer'
_symmetry_space_group_name_H-M	'P1'
_symmetry_Int_Tables_number	1
_symmetry_cell_setting	triclinic
loop_
_symmetry_equiv_pos_as_xyz
  x,y,z
_cell_length_a	15.2345
_cell_length_b	10.1817
_cell_length_c	18.6968
_cell_angle_alpha	90
_cell_angle_beta	103.524
_cell_angle_gamma	90
loop_
_atom_site_label
_atom_site_type_symbol
_atom_site_fract_x
_atom_site_fract_y
_atom_site_fract_z
_atom_site_charge
Mof_V 	V 	0.752	0.9528	0.21718	1.28
Mof_O 	O 	0.6543	0.0084	0.2165	-0.552
Mof_V 	V 	0.8047	0.925	0.2187	1.303
Mof_O 	O 	0.9094	0.877	0.2292	-0.471
Mof_V 	V 	0.16193	0.88449	0.0839	1.738
Mof_P 	P 	0.66171	0.66724	0.1659	0.553
Mof_P 	P 	0.28554	0.61826	0.07647	0.55
Mof_O 	O 	0.73127	0.7773	0.17113	-0.598
Mof_O 	O 	0.6698	0.5982	0.23971	-0.632
Mof_O 	O 	0.28635	0.4967	0.12477	-0.603
Mof_O 	O 	0.20163	0.7009	0.07478	-0.57
Mof_O 	O 	0.7952	0.8551	0.30972	-1.579
Mof_O 	O 	0.67459	0.5735	0.10537	-0.512
Mof_O 	O 	0.28952	0.568	0.00036	-0.518
Mof_C 	C 	0.5521	0.7391	0.1419	-0.427
Mof_H 	H 	0.5458	0.7992	0.182	0.154
Mof_H 	H 	0.5477	0.7929	0.0971	0.139
Mof_C 	C 	0.4727	0.6431	0.1277	0.221
Mof_H 	H 	0.4769	0.5864	0.1714	-0.026
Mof_H 	H 	0.4755	0.5861	0.0854	-0.097
Mof_C 	C 	0.3826	0.7173	0.1114	-0.449
Mof_H 	H 	0.3849	0.7876	0.0753	0.127
Mof_H 	H 	0.3755	0.7601	0.1573	0.139
Mof_H 	H 	0.785	0.792	0.305	0.822
Mof_V 	V 	0.252	0.4528	0.21718	1.281
Mof_O 	O 	0.1543	0.5084	0.2165	-0.559
Mof_V 	V 	0.3047	0.425	0.2187	1.302
Mof_O 	O 	0.4094	0.377	0.2292	-0.469
Mof_V 	V 	0.66193	0.38449	0.0839	1.741
Mof_P 	P 	0.16171	0.16724	0.1659	0.553
Mof_P 	P 	0.78554	0.11826	0.07647	0.556
Mof_O 	O 	0.23127	0.2773	0.17113	-0.597
Mof_O 	O 	0.1698	0.0982	0.23971	-0.63
Mof_O 	O 	0.78635	0.9967	0.12477	-0.611
Mof_O 	O 	0.70163	0.2009	0.07478	-0.566
Mof_O 	O 	0.2952	0.3551	0.30972	-1.577
Mof_O 	O 	0.17459	0.0735	0.10537	-0.509
Mof_O 	O 	0.78952	0.068	0.00036	-0.512
Mof_C 	C 	0.0521	0.2391	0.1419	-0.43
Mof_H 	H 	0.0458	0.2992	0.182	0.155
Mof_H 	H 	0.0477	0.2929	0.0971	0.141
Mof_C 	C 	0.9727	0.1431	0.1277	0.223
Mof_H 	H 	0.9769	0.0864	0.1714	-0.025
Mof_H 	H 	0.9755	0.0861	0.0854	-0.095
Mof_C 	C 	0.8826	0.2173	0.1114	-0.451
Mof_H 	H 	0.8849	0.2876	0.0753	0.13
Mof_H 	H 	0.8755	0.2601	0.1573	0.14
Mof_H 	H 	0.285	0.292	0.305	0.821
Mof_V 	V 	0.248	0.9528	0.28282	1.28
Mof_O 	O 	0.3457	0.0084	0.2835	-0.555
Mof_V 	V 	0.1953	0.925	0.2813	1.302
Mof_O 	O 	0.0906	0.877	0.2708	-0.471
Mof_V 	V 	0.83807	0.88449	0.4161	1.74
Mof_P 	P 	0.33829	0.66724	0.3341	0.552
Mof_P 	P 	0.71446	0.61826	0.42353	0.55
Mof_O 	O 	0.26873	0.7773	0.32887	-0.597
Mof_O 	O 	0.3302	0.5982	0.26029	-0.632
Mof_O 	O 	0.71365	0.4967	0.37523	-0.603
Mof_O 	O 	0.79837	0.7009	0.42522	-0.568
Mof_O 	O 	0.2048	0.8551	0.19028	-1.581
Mof_O 	O 	0.32541	0.5735	0.39463	-0.512
Mof_O 	O 	0.71048	0.568	0.49964	-0.517
Mof_C 	C 	0.4479	0.7391	0.3581	-0.429
Mof_H 	H 	0.4542	0.7992	0.318	0.155
Mof_H 	H 	0.4523	0.7929	0.4029	0.141
Mof_C 	C 	0.5273	0.6431	0.3723	0.222
Mof_H 	H 	0.5231	0.5864	0.3286	-0.027
Mof_H 	H 	0.5245	0.5861	0.4146	-0.097
Mof_C 	C 	0.6174	0.7173	0.3886	-0.45
Mof_H 	H 	0.6151	0.7876	0.4247	0.129
Mof_H 	H 	0.6245	0.7601	0.3427	0.139
Mof_H 	H 	0.215	0.792	0.195	0.823
Mof_V 	V 	0.748	0.4528	0.28282	1.281
Mof_O 	O 	0.8457	0.5084	0.2835	-0.558
Mof_V 	V 	0.6953	0.425	0.2813	1.302
Mof_O 	O 	0.5906	0.377	0.2708	-0.469
Mof_V 	V 	0.33807	0.38449	0.4161	1.741
Mof_P 	P 	0.83829	0.16724	0.3341	0.552
Mof_P 	P 	0.21446	0.11826	0.42353	0.552
Mof_O 	O 	0.76873	0.2773	0.32887	-0.597
Mof_O 	O 	0.8302	0.0982	0.26029	-0.629
Mof_O 	O 	0.21365	0.9967	0.37523	-0.605
Mof_O 	O 	0.29837	0.2009	0.42522	-0.568
Mof_O 	O 	0.7048	0.3551	0.19028	-1.577
Mof_O 	O 	0.82541	0.0735	0.39463	-0.51
Mof_O 	O 	0.21048	0.068	0.49964	-0.517
Mof_C 	C 	0.9479	0.2391	0.3581	-0.427
Mof_H 	H 	0.9542	0.2992	0.318	0.155
Mof_H 	H 	0.9523	0.2929	0.4029	0.141
Mof_C 	C 	0.0273	0.1431	0.3723	0.221
Mof_H 	H 	0.0231	0.0864	0.3286	-0.026
Mof_H 	H 	0.0245	0.0861	0.4146	-0.097
Mof_C 	C 	0.1174	0.2173	0.3886	-0.45
Mof_H 	H 	0.1151	0.2876	0.4247	0.129
Mof_H 	H 	0.1245	0.2601	0.3427	0.14
Mof_H 	H 	0.715	0.292	0.195	0.821
Mof_V 	V 	0.248	0.0472	0.78282	1.279
Mof_O 	O 	0.3457	0.9916	0.7835	-0.553
Mof_V 	V 	0.1953	0.075	0.7813	1.302
Mof_O 	O 	0.0906	0.123	0.7708	-0.472
Mof_V 	V 	0.83807	0.11551	0.9161	1.737
Mof_P 	P 	0.33829	0.33276	0.8341	0.552
Mof_P 	P 	0.71446	0.38174	0.92353	0.55
Mof_O 	O 	0.26873	0.2227	0.82887	-0.598
Mof_O 	O 	0.3302	0.4018	0.76029	-0.632
Mof_O 	O 	0.71365	0.5033	0.87523	-0.603
Mof_O 	O 	0.79837	0.2991	0.92522	-0.57
Mof_O 	O 	0.2048	0.1449	0.69028	-1.579
Mof_O 	O 	0.32541	0.4265	0.89463	-0.512
Mof_O 	O 	0.71048	0.432	0.99964	-0.518
Mof_C 	C 	0.4479	0.2609	0.8581	-0.427
Mof_H 	H 	0.4542	0.2008	0.818	0.154
Mof_H 	H 	0.4523	0.2071	0.9029	0.139
Mof_C 	C 	0.5273	0.3569	0.8723	0.221
Mof_H 	H 	0.5231	0.4136	0.8286	-0.026
Mof_H 	H 	0.5245	0.4139	0.9146	-0.097
Mof_C 	C 	0.6174	0.2827	0.8886	-0.449
Mof_H 	H 	0.6151	0.2124	0.9247	0.127
Mof_H 	H 	0.6245	0.2399	0.8427	0.139
Mof_H 	H 	0.215	0.208	0.695	0.822
Mof_V 	V 	0.748	0.5472	0.78282	1.281
Mof_O 	O 	0.8457	0.4916	0.7835	-0.559
Mof_V 	V 	0.6953	0.575	0.7813	1.302
Mof_O 	O 	0.5906	0.623	0.7708	-0.469
Mof_V 	V 	0.33807	0.61551	0.9161	1.741
Mof_P 	P 	0.83829	0.83276	0.8341	0.553
Mof_P 	P 	0.21446	0.88174	0.92353	0.556
Mof_O 	O 	0.76873	0.7227	0.82887	-0.597
Mof_O 	O 	0.8302	0.9018	0.76029	-0.63
Mof_O 	O 	0.21365	0.0033	0.87523	-0.611
Mof_O 	O 	0.29837	0.7991	0.92522	-0.566
Mof_O 	O 	0.7048	0.6449	0.69028	-1.577
Mof_O 	O 	0.82541	0.9265	0.89463	-0.509
Mof_O 	O 	0.21048	0.932	0.99964	-0.512
Mof_C 	C 	0.9479	0.7609	0.8581	-0.43
Mof_H 	H 	0.9542	0.7008	0.818	0.155
Mof_H 	H 	0.9523	0.7071	0.9029	0.141
Mof_C 	C 	0.0273	0.8569	0.8723	0.223
Mof_H 	H 	0.0231	0.9136	0.8286	-0.025
Mof_H 	H 	0.0245	0.9139	0.9146	-0.095
Mof_C 	C 	0.1174	0.7827	0.8886	-0.451
Mof_H 	H 	0.1151	0.7124	0.9247	0.13
Mof_H 	H 	0.1245	0.7399	0.8427	0.14
Mof_H 	H 	0.715	0.708	0.695	0.821
Mof_V 	V 	0.752	0.0472	0.71718	1.28
Mof_O 	O 	0.6543	0.9916	0.7165	-0.555
Mof_V 	V 	0.8047	0.075	0.7187	1.302
Mof_O 	O 	0.9094	0.123	0.7292	-0.471
Mof_V 	V 	0.16193	0.11551	0.5839	1.74
Mof_P 	P 	0.66171	0.33276	0.6659	0.552
Mof_P 	P 	0.28554	0.38174	0.57647	0.55
Mof_O 	O 	0.73127	0.2227	0.67113	-0.597
Mof_O 	O 	0.6698	0.4018	0.73971	-0.632
Mof_O 	O 	0.28635	0.5033	0.62477	-0.603
Mof_O 	O 	0.20163	0.2991	0.57478	-0.568
Mof_O 	O 	0.7952	0.1449	0.80972	-1.581
Mof_O 	O 	0.67459	0.4265	0.60537	-0.512
Mof_O 	O 	0.28952	0.432	0.50036	-0.517
Mof_C 	C 	0.5521	0.2609	0.6419	-0.429
Mof_H 	H 	0.5458	0.2008	0.682	0.155
Mof_H 	H 	0.5477	0.2071	0.5971	0.141
Mof_C 	C 	0.4727	0.3569	0.6277	0.222
Mof_H 	H 	0.4769	0.4136	0.6714	-0.027
Mof_H 	H 	0.4755	0.4139	0.5854	-0.097
Mof_C 	C 	0.3826	0.2827	0.6114	-0.45
Mof_H 	H 	0.3849	0.2124	0.5753	0.129
Mof_H 	H 	0.3755	0.2399	0.6573	0.139
Mof_H 	H 	0.785	0.208	0.805	0.823
Mof_V 	V 	0.252	0.5472	0.71718	1.281
Mof_O 	O 	0.1543	0.4916	0.7165	-0.558
Mof_V 	V 	0.3047	0.575	0.7187	1.302
Mof_O 	O 	0.4094	0.623	0.7292	-0.469
Mof_V 	V 	0.66193	0.61551	0.5839	1.741
Mof_P 	P 	0.16171	0.83276	0.6659	0.552
Mof_P 	P 	0.78554	0.88174	0.57647	0.552
Mof_O 	O 	0.23127	0.7227	0.67113	-0.597
Mof_O 	O 	0.1698	0.9018	0.73971	-0.629
Mof_O 	O 	0.78635	0.0033	0.62477	-0.605
Mof_O 	O 	0.70163	0.7991	0.57478	-0.568
Mof_O 	O 	0.2952	0.6449	0.80972	-1.577
Mof_O 	O 	0.17459	0.9265	0.60537	-0.51
Mof_O 	O 	0.78952	0.932	0.50036	-0.517
Mof_C 	C 	0.0521	0.7609	0.6419	-0.427
Mof_H 	H 	0.0458	0.7008	0.682	0.155
Mof_H 	H 	0.0477	0.7071	0.5971	0.141
Mof_C 	C 	0.9727	0.8569	0.6277	0.221
Mof_H 	H 	0.9769	0.9136	0.6714	-0.026
Mof_H 	H 	0.9755	0.9139	0.5854	-0.097
Mof_C 	C 	0.8826	0.7827	0.6114	-0.45
Mof_H 	H 	0.8849	0.7124	0.5753	0.129
Mof_H 	H 	0.8755	0.7399	0.6573	0.14
Mof_H 	H 	0.285	0.708	0.805	0.821
_end
