data_functionalizedCrystal
_audit_creation_method	'EQeq! by Chris Wilmer'
_symmetry_space_group_name_H-M	'P1'
_symmetry_Int_Tables_number	1
_symmetry_cell_setting	triclinic
loop_
_symmetry_equiv_pos_as_xyz
  x,y,z
_cell_length_a	9.5899
_cell_length_b	9.5899
_cell_length_c	15.524
_cell_angle_alpha	92.9192
_cell_angle_beta	92.9192
_cell_angle_gamma	98.9866
loop_
_atom_site_label
_atom_site_type_symbol
_atom_site_fract_x
_atom_site_fract_y
_atom_site_fract_z
_atom_site_charge
Mof_Tb	Tb	0.01103	0.98897	0.75	1.65
Mof_Tb	Tb	0.98897	0.01103	0.25	1.65
Mof_P 	P 	0.3545	0.04476	0.6454	0.412
Mof_P 	P 	0.65136	0.9771	0.65365	0.417
Mof_P 	P 	0.95524	0.6455	0.8546	0.411
Mof_P 	P 	0.0229	0.34864	0.84635	0.418
Mof_P 	P 	0.6455	0.95524	0.3546	0.412
Mof_P 	P 	0.34864	0.0229	0.34635	0.417
Mof_P 	P 	0.04476	0.3545	0.1454	0.411
Mof_P 	P 	0.9771	0.65136	0.15365	0.418
Mof_H 	H 	0.4216	0.8308	0.7327	0.199
Mof_H 	H 	0.4783	0.1525	0.8191	0.149
Mof_H 	H 	0.6395	0.1305	0.8126	0.143
Mof_H 	H 	0.5714	0.2282	0.747	0.136
Mof_H 	H 	0.1692	0.5784	0.7673	0.198
Mof_H 	H 	0.8475	0.5217	0.6809	0.148
Mof_H 	H 	0.8695	0.3605	0.6874	0.143
Mof_H 	H 	0.7718	0.4286	0.753	0.136
Mof_H 	H 	0.5784	0.1692	0.2673	0.199
Mof_H 	H 	0.5217	0.8475	0.1809	0.149
Mof_H 	H 	0.3605	0.8695	0.1874	0.143
Mof_H 	H 	0.4286	0.7718	0.253	0.136
Mof_H 	H 	0.8308	0.4216	0.2327	0.198
Mof_H 	H 	0.1525	0.4783	0.3191	0.148
Mof_H 	H 	0.1305	0.6395	0.3126	0.143
Mof_H 	H 	0.2282	0.5714	0.247	0.136
Mof_Ru	Ru	0.54526	0.12112	0.50205	0.862
Mof_Ru	Ru	0.87888	0.45474	0.99795	0.862
Mof_Ru	Ru	0.45474	0.87888	0.49795	0.862
Mof_Ru	Ru	0.12112	0.54526	0.00205	0.862
Mof_C 	C 	0.506	0.0148	0.717	0.052
Mof_C 	C 	0.553	0.1428	0.7795	-0.386
Mof_C 	C 	0.9852	0.494	0.783	0.05
Mof_C 	C 	0.8572	0.447	0.7205	-0.384
Mof_C 	C 	0.494	0.9852	0.283	0.052
Mof_C 	C 	0.447	0.8572	0.2205	-0.386
Mof_C 	C 	0.0148	0.506	0.217	0.05
Mof_C 	C 	0.1428	0.553	0.2795	-0.384
Mof_O 	O 	0.4087	0.1677	0.58974	-0.382
Mof_O 	O 	0.3109	0.9075	0.586	-0.41
Mof_O 	O 	0.2361	0.0749	0.6982	-0.427
Mof_O 	O 	0.6913	0.1055	0.5989	-0.409
Mof_O 	O 	0.5945	0.8441	0.5933	-0.384
Mof_O 	O 	0.7731	0.9551	0.71258	-0.445
Mof_O 	O 	0.4518	0.9012	0.76756	-0.351
Mof_O 	O 	0.8323	0.5913	0.91026	-0.382
Mof_O 	O 	0.0925	0.6891	0.914	-0.41
Mof_O 	O 	0.9251	0.7639	0.8018	-0.428
Mof_O 	O 	0.8945	0.3087	0.9011	-0.409
Mof_O 	O 	0.1559	0.4055	0.9067	-0.384
Mof_O 	O 	0.0449	0.2269	0.78742	-0.445
Mof_O 	O 	0.0988	0.5482	0.73244	-0.35
Mof_O 	O 	0.5913	0.8323	0.41026	-0.382
Mof_O 	O 	0.6891	0.0925	0.414	-0.41
Mof_O 	O 	0.7639	0.9251	0.3018	-0.427
Mof_O 	O 	0.3087	0.8945	0.4011	-0.409
Mof_O 	O 	0.4055	0.1559	0.4067	-0.384
Mof_O 	O 	0.2269	0.0449	0.28742	-0.445
Mof_O 	O 	0.5482	0.0988	0.23244	-0.351
Mof_O 	O 	0.1677	0.4087	0.08974	-0.382
Mof_O 	O 	0.9075	0.3109	0.086	-0.41
Mof_O 	O 	0.0749	0.2361	0.1982	-0.428
Mof_O 	O 	0.1055	0.6913	0.0989	-0.409
Mof_O 	O 	0.8441	0.5945	0.0933	-0.384
Mof_O 	O 	0.9551	0.7731	0.21258	-0.445
Mof_O 	O 	0.9012	0.4518	0.26756	-0.35
_end
