data_functionalizedCrystal
_audit_creation_method	'EQeq! by Chris Wilmer'
_symmetry_space_group_name_H-M	'P1'
_symmetry_Int_Tables_number	1
_symmetry_cell_setting	triclinic
loop_
_symmetry_equiv_pos_as_xyz
  x,y,z
_cell_length_a	13.529
_cell_length_b	32.896
_cell_length_c	39.785
_cell_angle_alpha	90
_cell_angle_beta	90
_cell_angle_gamma	90
loop_
_atom_site_label
_atom_site_type_symbol
_atom_site_fract_x
_atom_site_fract_y
_atom_site_fract_z
_atom_site_charge
Mof_Cd	Cd	0.00907	0.6945	0.26054	0.493
Mof_N 	N 	0.2349	0.69912	0.28652	-0.047
Mof_N 	N 	0.0117	0.66765	0.20671	-0.141
Mof_O 	O 	0.0979	0.75518	0.25421	-0.29
Mof_O 	O 	0.2031	0.80314	0.26396	-0.258
Mof_O 	O 	0.1763	0.67984	0.26554	-0.148
Mof_O 	O 	0.305	0.61407	0.27843	-0.242
Mof_O 	O 	0.2402	0.54339	0.31663	-0.254
Mof_C 	C 	0.1772	0.7683	0.26667	0.315
Mof_C 	C 	0.2419	0.7407	0.28755	-0.007
Mof_C 	C 	0.3095	0.7588	0.309	-0.05
Mof_H 	H 	0.3158	0.7869	0.309	0.068
Mof_C 	C 	0.3675	0.7359	0.3301	-0.014
Mof_H 	H 	0.412	0.7482	0.3448	0.037
Mof_C 	C 	0.3576	0.6942	0.3289	-0.057
Mof_H 	H 	0.3969	0.6783	0.3428	0.051
Mof_C 	C 	0.2918	0.6756	0.30788	0.011
Mof_C 	C 	0.2799	0.6305	0.30623	0.232
Mof_C 	C 	0.2503	0.6117	0.33528	-0.28
Mof_H 	H 	0.2393	0.6282	0.3539	0.129
Mof_C 	C 	0.2348	0.5696	0.33965	0.24
Mof_C 	C 	0.2104	0.5537	0.37355	-0.069
Mof_C 	C 	0.2457	0.5726	0.4022	0.006
Mof_H 	H 	0.281	0.5967	0.4003	0.031
Mof_C 	C 	0.018	0.691	0.17949	0.076
Mof_H 	H 	0.0245	0.719	0.1823	0.029
Mof_C 	C 	0.0151	0.6754	0.14716	-0.125
Mof_H 	H 	0.0218	0.6927	0.1288	0.08
Mof_C 	C 	0.0022	0.634	0.14215	0.056
Mof_C 	C 	0.9945	0.6101	0.171	-0.12
Mof_H 	H 	0.9855	0.5822	0.1691	0.079
Mof_C 	C 	0.0001	0.6277	0.20234	0.078
Mof_H 	H 	0.9957	0.6111	0.2212	0.039
Mof_C 	C 	0.1711	0.5224	0.4369	0.001
Mof_H 	H 	0.1567	0.5126	0.4583	0.046
Mof_C 	C 	0.1534	0.5187	0.3764	-0.004
Mof_H 	H 	0.1288	0.5062	0.3572	0.048
Mof_C 	C 	0.1329	0.5023	0.4083	-0.07
Mof_H 	H 	0.0951	0.4788	0.4105	0.058
Mof_C 	C 	0.2295	0.5562	0.4333	-0.073
Mof_H 	H 	0.2582	0.568	0.4521	0.086
Mof_Cd	Cd	0.00907	0.1945	0.76054	0.492
Mof_N 	N 	0.2349	0.19912	0.78652	-0.047
Mof_N 	N 	0.0117	0.16765	0.70671	-0.141
Mof_O 	O 	0.0979	0.25518	0.75421	-0.29
Mof_O 	O 	0.2031	0.30314	0.76396	-0.258
Mof_O 	O 	0.1763	0.17984	0.76554	-0.148
Mof_O 	O 	0.305	0.11407	0.77843	-0.242
Mof_O 	O 	0.2402	0.04339	0.81663	-0.254
Mof_C 	C 	0.1772	0.2683	0.76667	0.315
Mof_C 	C 	0.2419	0.2407	0.78755	-0.007
Mof_C 	C 	0.3095	0.2588	0.809	-0.05
Mof_H 	H 	0.3158	0.2869	0.809	0.067
Mof_C 	C 	0.3675	0.2359	0.8301	-0.014
Mof_H 	H 	0.412	0.2482	0.8448	0.037
Mof_C 	C 	0.3576	0.1942	0.8289	-0.057
Mof_H 	H 	0.3969	0.1783	0.8428	0.05
Mof_C 	C 	0.2918	0.1756	0.80788	0.01
Mof_C 	C 	0.2799	0.1305	0.80623	0.231
Mof_C 	C 	0.2503	0.1117	0.83528	-0.281
Mof_H 	H 	0.2393	0.1282	0.8539	0.128
Mof_C 	C 	0.2348	0.0696	0.83965	0.24
Mof_C 	C 	0.2104	0.0537	0.87355	-0.07
Mof_C 	C 	0.2457	0.0726	0.9022	0.006
Mof_H 	H 	0.281	0.0967	0.9003	0.03
Mof_C 	C 	0.018	0.191	0.67949	0.074
Mof_H 	H 	0.0245	0.219	0.6823	0.028
Mof_C 	C 	0.0151	0.1754	0.64716	-0.126
Mof_H 	H 	0.0218	0.1927	0.6288	0.078
Mof_C 	C 	0.0022	0.134	0.64215	0.055
Mof_C 	C 	0.9945	0.1101	0.671	-0.12
Mof_H 	H 	0.9855	0.0822	0.6691	0.078
Mof_C 	C 	0.0001	0.1277	0.70234	0.076
Mof_H 	H 	0.9957	0.1111	0.7212	0.038
Mof_C 	C 	0.1711	0.0224	0.9369	0.001
Mof_H 	H 	0.1567	0.0126	0.9583	0.044
Mof_C 	C 	0.1534	0.0187	0.8764	-0.005
Mof_H 	H 	0.1288	0.0062	0.8572	0.047
Mof_C 	C 	0.1329	0.0023	0.9083	-0.072
Mof_H 	H 	0.0951	0.9788	0.9105	0.057
Mof_C 	C 	0.2295	0.0562	0.9333	-0.075
Mof_H 	H 	0.2582	0.068	0.9521	0.085
Mof_Cd	Cd	0.50907	0.6945	0.76054	0.492
Mof_N 	N 	0.7349	0.69912	0.78652	-0.048
Mof_N 	N 	0.5117	0.66765	0.70671	-0.142
Mof_O 	O 	0.5979	0.75518	0.75421	-0.291
Mof_O 	O 	0.7031	0.80314	0.76396	-0.259
Mof_O 	O 	0.6763	0.67984	0.76554	-0.149
Mof_O 	O 	0.805	0.61407	0.77843	-0.243
Mof_O 	O 	0.7402	0.54339	0.81663	-0.255
Mof_C 	C 	0.6772	0.7683	0.76667	0.314
Mof_C 	C 	0.7419	0.7407	0.78755	-0.008
Mof_C 	C 	0.8095	0.7588	0.809	-0.051
Mof_H 	H 	0.8158	0.7869	0.809	0.066
Mof_C 	C 	0.8675	0.7359	0.8301	-0.015
Mof_H 	H 	0.912	0.7482	0.8448	0.036
Mof_C 	C 	0.8576	0.6942	0.8289	-0.058
Mof_H 	H 	0.8969	0.6783	0.8428	0.05
Mof_C 	C 	0.7918	0.6756	0.80788	0.01
Mof_C 	C 	0.7799	0.6305	0.80623	0.231
Mof_C 	C 	0.7503	0.6117	0.83528	-0.281
Mof_H 	H 	0.7393	0.6282	0.8539	0.128
Mof_C 	C 	0.7348	0.5696	0.83965	0.239
Mof_C 	C 	0.7104	0.5537	0.87355	-0.07
Mof_C 	C 	0.7457	0.5726	0.9022	0.005
Mof_H 	H 	0.781	0.5967	0.9003	0.03
Mof_C 	C 	0.518	0.691	0.67949	0.075
Mof_H 	H 	0.5245	0.719	0.6823	0.028
Mof_C 	C 	0.5151	0.6754	0.64716	-0.126
Mof_H 	H 	0.5218	0.6927	0.6288	0.079
Mof_C 	C 	0.5022	0.634	0.64215	0.055
Mof_C 	C 	0.4945	0.6101	0.671	-0.121
Mof_H 	H 	0.4855	0.5822	0.6691	0.078
Mof_C 	C 	0.5001	0.6277	0.70234	0.077
Mof_H 	H 	0.4957	0.6111	0.7212	0.038
Mof_C 	C 	0.6711	0.5224	0.9369	0
Mof_H 	H 	0.6567	0.5126	0.9583	0.045
Mof_C 	C 	0.6534	0.5187	0.8764	-0.005
Mof_H 	H 	0.6288	0.5062	0.8572	0.047
Mof_C 	C 	0.6329	0.5023	0.9083	-0.071
Mof_H 	H 	0.5951	0.4788	0.9105	0.057
Mof_C 	C 	0.7295	0.5562	0.9333	-0.074
Mof_H 	H 	0.7582	0.568	0.9521	0.085
Mof_Cd	Cd	0.50907	0.1945	0.26054	0.492
Mof_N 	N 	0.7349	0.19912	0.28652	-0.048
Mof_N 	N 	0.5117	0.16765	0.20671	-0.142
Mof_O 	O 	0.5979	0.25518	0.25421	-0.291
Mof_O 	O 	0.7031	0.30314	0.26396	-0.259
Mof_O 	O 	0.6763	0.17984	0.26554	-0.149
Mof_O 	O 	0.805	0.11407	0.27843	-0.243
Mof_O 	O 	0.7402	0.04339	0.31663	-0.255
Mof_C 	C 	0.6772	0.2683	0.26667	0.314
Mof_C 	C 	0.7419	0.2407	0.28755	-0.008
Mof_C 	C 	0.8095	0.2588	0.309	-0.051
Mof_H 	H 	0.8158	0.2869	0.309	0.067
Mof_C 	C 	0.8675	0.2359	0.3301	-0.015
Mof_H 	H 	0.912	0.2482	0.3448	0.036
Mof_C 	C 	0.8576	0.1942	0.3289	-0.058
Mof_H 	H 	0.8969	0.1783	0.3428	0.05
Mof_C 	C 	0.7918	0.1756	0.30788	0.01
Mof_C 	C 	0.7799	0.1305	0.30623	0.231
Mof_C 	C 	0.7503	0.1117	0.33528	-0.281
Mof_H 	H 	0.7393	0.1282	0.3539	0.128
Mof_C 	C 	0.7348	0.0696	0.33965	0.239
Mof_C 	C 	0.7104	0.0537	0.37355	-0.069
Mof_C 	C 	0.7457	0.0726	0.4022	0.005
Mof_H 	H 	0.781	0.0967	0.4003	0.03
Mof_C 	C 	0.518	0.191	0.17949	0.075
Mof_H 	H 	0.5245	0.219	0.1823	0.028
Mof_C 	C 	0.5151	0.1754	0.14716	-0.126
Mof_H 	H 	0.5218	0.1927	0.1288	0.079
Mof_C 	C 	0.5022	0.134	0.14215	0.055
Mof_C 	C 	0.4945	0.1101	0.171	-0.121
Mof_H 	H 	0.4855	0.0822	0.1691	0.078
Mof_C 	C 	0.5001	0.1277	0.20234	0.077
Mof_H 	H 	0.4957	0.1111	0.2212	0.038
Mof_C 	C 	0.6711	0.0224	0.4369	0
Mof_H 	H 	0.6567	0.0126	0.4583	0.045
Mof_C 	C 	0.6534	0.0187	0.3764	-0.006
Mof_H 	H 	0.6288	0.0062	0.3572	0.048
Mof_C 	C 	0.6329	0.0023	0.4083	-0.071
Mof_H 	H 	0.5951	0.9788	0.4105	0.056
Mof_C 	C 	0.7295	0.0562	0.4333	-0.074
Mof_H 	H 	0.7582	0.068	0.4521	0.085
Mof_Cd	Cd	0.74093	0.0555	0.26054	0.492
Mof_N 	N 	0.5151	0.05088	0.28652	-0.048
Mof_N 	N 	0.7383	0.08235	0.20671	-0.142
Mof_O 	O 	0.6521	0.99482	0.25421	-0.291
Mof_O 	O 	0.5469	0.94686	0.26396	-0.259
Mof_O 	O 	0.5737	0.07016	0.26554	-0.149
Mof_O 	O 	0.445	0.13593	0.27843	-0.243
Mof_O 	O 	0.5098	0.20661	0.31663	-0.255
Mof_C 	C 	0.5728	0.9817	0.26667	0.314
Mof_C 	C 	0.5081	0.0093	0.28755	-0.008
Mof_C 	C 	0.4405	0.9912	0.309	-0.051
Mof_H 	H 	0.4342	0.9631	0.309	0.066
Mof_C 	C 	0.3825	0.0141	0.3301	-0.015
Mof_H 	H 	0.338	0.0018	0.3448	0.036
Mof_C 	C 	0.3924	0.0558	0.3289	-0.058
Mof_H 	H 	0.3531	0.0717	0.3428	0.05
Mof_C 	C 	0.4582	0.0744	0.30788	0.01
Mof_C 	C 	0.4701	0.1195	0.30623	0.231
Mof_C 	C 	0.4997	0.1383	0.33528	-0.281
Mof_H 	H 	0.5107	0.1218	0.3539	0.128
Mof_C 	C 	0.5152	0.1804	0.33965	0.239
Mof_C 	C 	0.5396	0.1963	0.37355	-0.07
Mof_C 	C 	0.5043	0.1774	0.4022	0.005
Mof_H 	H 	0.469	0.1533	0.4003	0.03
Mof_C 	C 	0.732	0.059	0.17949	0.075
Mof_H 	H 	0.7255	0.031	0.1823	0.028
Mof_C 	C 	0.7349	0.0746	0.14716	-0.126
Mof_H 	H 	0.7282	0.0573	0.1288	0.079
Mof_C 	C 	0.7478	0.116	0.14215	0.055
Mof_C 	C 	0.7555	0.1399	0.171	-0.121
Mof_H 	H 	0.7645	0.1678	0.1691	0.078
Mof_C 	C 	0.7499	0.1223	0.20234	0.077
Mof_H 	H 	0.7543	0.1389	0.2212	0.038
Mof_C 	C 	0.5789	0.2276	0.4369	0
Mof_H 	H 	0.5933	0.2374	0.4583	0.045
Mof_C 	C 	0.5966	0.2313	0.3764	-0.005
Mof_H 	H 	0.6212	0.2438	0.3572	0.047
Mof_C 	C 	0.6171	0.2477	0.4083	-0.071
Mof_H 	H 	0.6549	0.2712	0.4105	0.057
Mof_C 	C 	0.5205	0.1938	0.4333	-0.074
Mof_H 	H 	0.4918	0.182	0.4521	0.085
Mof_Cd	Cd	0.74093	0.5555	0.76054	0.492
Mof_N 	N 	0.5151	0.55088	0.78652	-0.048
Mof_N 	N 	0.7383	0.58235	0.70671	-0.142
Mof_O 	O 	0.6521	0.49482	0.75421	-0.291
Mof_O 	O 	0.5469	0.44686	0.76396	-0.259
Mof_O 	O 	0.5737	0.57016	0.76554	-0.149
Mof_O 	O 	0.445	0.63593	0.77843	-0.243
Mof_O 	O 	0.5098	0.70661	0.81663	-0.255
Mof_C 	C 	0.5728	0.4817	0.76667	0.314
Mof_C 	C 	0.5081	0.5093	0.78755	-0.008
Mof_C 	C 	0.4405	0.4912	0.809	-0.051
Mof_H 	H 	0.4342	0.4631	0.809	0.066
Mof_C 	C 	0.3825	0.5141	0.8301	-0.015
Mof_H 	H 	0.338	0.5018	0.8448	0.036
Mof_C 	C 	0.3924	0.5558	0.8289	-0.058
Mof_H 	H 	0.3531	0.5717	0.8428	0.05
Mof_C 	C 	0.4582	0.5744	0.80788	0.01
Mof_C 	C 	0.4701	0.6195	0.80623	0.231
Mof_C 	C 	0.4997	0.6383	0.83528	-0.281
Mof_H 	H 	0.5107	0.6218	0.8539	0.128
Mof_C 	C 	0.5152	0.6804	0.83965	0.239
Mof_C 	C 	0.5396	0.6963	0.87355	-0.07
Mof_C 	C 	0.5043	0.6774	0.9022	0.005
Mof_H 	H 	0.469	0.6533	0.9003	0.03
Mof_C 	C 	0.732	0.559	0.67949	0.075
Mof_H 	H 	0.7255	0.531	0.6823	0.028
Mof_C 	C 	0.7349	0.5746	0.64716	-0.126
Mof_H 	H 	0.7282	0.5573	0.6288	0.079
Mof_C 	C 	0.7478	0.616	0.64215	0.055
Mof_C 	C 	0.7555	0.6399	0.671	-0.121
Mof_H 	H 	0.7645	0.6678	0.6691	0.078
Mof_C 	C 	0.7499	0.6223	0.70234	0.077
Mof_H 	H 	0.7543	0.6389	0.7212	0.038
Mof_C 	C 	0.5789	0.7276	0.9369	0
Mof_H 	H 	0.5933	0.7374	0.9583	0.045
Mof_C 	C 	0.5966	0.7313	0.8764	-0.005
Mof_H 	H 	0.6212	0.7438	0.8572	0.047
Mof_C 	C 	0.6171	0.7477	0.9083	-0.071
Mof_H 	H 	0.6549	0.7712	0.9105	0.057
Mof_C 	C 	0.5205	0.6938	0.9333	-0.074
Mof_H 	H 	0.4918	0.682	0.9521	0.085
Mof_Cd	Cd	0.24093	0.0555	0.76054	0.492
Mof_N 	N 	0.0151	0.05088	0.78652	-0.048
Mof_N 	N 	0.2383	0.08235	0.70671	-0.142
Mof_O 	O 	0.1521	0.99482	0.75421	-0.291
Mof_O 	O 	0.0469	0.94686	0.76396	-0.259
Mof_O 	O 	0.0737	0.07016	0.76554	-0.149
Mof_O 	O 	0.945	0.13593	0.77843	-0.243
Mof_O 	O 	0.0098	0.20661	0.81663	-0.255
Mof_C 	C 	0.0728	0.9817	0.76667	0.315
Mof_C 	C 	0.0081	0.0093	0.78755	-0.008
Mof_C 	C 	0.9405	0.9912	0.809	-0.051
Mof_H 	H 	0.9342	0.9631	0.809	0.067
Mof_C 	C 	0.8825	0.0141	0.8301	-0.014
Mof_H 	H 	0.838	0.0018	0.8448	0.036
Mof_C 	C 	0.8924	0.0558	0.8289	-0.059
Mof_H 	H 	0.8531	0.0717	0.8428	0.05
Mof_C 	C 	0.9582	0.0744	0.80788	0.01
Mof_C 	C 	0.9701	0.1195	0.80623	0.231
Mof_C 	C 	0.9997	0.1383	0.83528	-0.28
Mof_H 	H 	0.0107	0.1218	0.8539	0.127
Mof_C 	C 	0.0152	0.1804	0.83965	0.239
Mof_C 	C 	0.0396	0.1963	0.87355	-0.069
Mof_C 	C 	0.0043	0.1774	0.9022	0.005
Mof_H 	H 	0.969	0.1533	0.9003	0.03
Mof_C 	C 	0.232	0.059	0.67949	0.075
Mof_H 	H 	0.2255	0.031	0.6823	0.028
Mof_C 	C 	0.2349	0.0746	0.64716	-0.126
Mof_H 	H 	0.2282	0.0573	0.6288	0.079
Mof_C 	C 	0.2478	0.116	0.64215	0.055
Mof_C 	C 	0.2555	0.1399	0.671	-0.121
Mof_H 	H 	0.2645	0.1678	0.6691	0.078
Mof_C 	C 	0.2499	0.1223	0.70234	0.077
Mof_H 	H 	0.2543	0.1389	0.7212	0.038
Mof_C 	C 	0.0789	0.2276	0.9369	0
Mof_H 	H 	0.0933	0.2374	0.9583	0.045
Mof_C 	C 	0.0966	0.2313	0.8764	-0.006
Mof_H 	H 	0.1212	0.2438	0.8572	0.048
Mof_C 	C 	0.1171	0.2477	0.9083	-0.071
Mof_H 	H 	0.1549	0.2712	0.9105	0.056
Mof_C 	C 	0.0205	0.1938	0.9333	-0.074
Mof_H 	H 	0.9918	0.182	0.9521	0.085
Mof_Cd	Cd	0.24093	0.5555	0.26054	0.492
Mof_N 	N 	0.0151	0.55088	0.28652	-0.048
Mof_N 	N 	0.2383	0.58235	0.20671	-0.142
Mof_O 	O 	0.1521	0.49482	0.25421	-0.291
Mof_O 	O 	0.0469	0.44686	0.26396	-0.259
Mof_O 	O 	0.0737	0.57016	0.26554	-0.149
Mof_O 	O 	0.945	0.63593	0.27843	-0.243
Mof_O 	O 	0.0098	0.70661	0.31663	-0.255
Mof_C 	C 	0.0728	0.4817	0.26667	0.314
Mof_C 	C 	0.0081	0.5093	0.28755	-0.008
Mof_C 	C 	0.9405	0.4912	0.309	-0.051
Mof_H 	H 	0.9342	0.4631	0.309	0.066
Mof_C 	C 	0.8825	0.5141	0.3301	-0.015
Mof_H 	H 	0.838	0.5018	0.3448	0.036
Mof_C 	C 	0.8924	0.5558	0.3289	-0.058
Mof_H 	H 	0.8531	0.5717	0.3428	0.05
Mof_C 	C 	0.9582	0.5744	0.30788	0.01
Mof_C 	C 	0.9701	0.6195	0.30623	0.231
Mof_C 	C 	0.9997	0.6383	0.33528	-0.281
Mof_H 	H 	0.0107	0.6218	0.3539	0.128
Mof_C 	C 	0.0152	0.6804	0.33965	0.239
Mof_C 	C 	0.0396	0.6963	0.37355	-0.07
Mof_C 	C 	0.0043	0.6774	0.4022	0.006
Mof_H 	H 	0.969	0.6533	0.4003	0.03
Mof_C 	C 	0.232	0.559	0.17949	0.075
Mof_H 	H 	0.2255	0.531	0.1823	0.028
Mof_C 	C 	0.2349	0.5746	0.14716	-0.126
Mof_H 	H 	0.2282	0.5573	0.1288	0.079
Mof_C 	C 	0.2478	0.616	0.14215	0.055
Mof_C 	C 	0.2555	0.6399	0.171	-0.121
Mof_H 	H 	0.2645	0.6678	0.1691	0.078
Mof_C 	C 	0.2499	0.6223	0.20234	0.077
Mof_H 	H 	0.2543	0.6389	0.2212	0.038
Mof_C 	C 	0.0789	0.7276	0.4369	0
Mof_H 	H 	0.0933	0.7374	0.4583	0.045
Mof_C 	C 	0.0966	0.7313	0.3764	-0.005
Mof_H 	H 	0.1212	0.7438	0.3572	0.047
Mof_C 	C 	0.1171	0.7477	0.4083	-0.071
Mof_H 	H 	0.1549	0.7712	0.4105	0.057
Mof_C 	C 	0.0205	0.6938	0.4333	-0.074
Mof_H 	H 	0.9918	0.682	0.4521	0.085
Mof_Cd	Cd	0.74093	0.6945	0.48946	0.492
Mof_N 	N 	0.5151	0.69912	0.46348	-0.048
Mof_N 	N 	0.7383	0.66765	0.54329	-0.142
Mof_O 	O 	0.6521	0.75518	0.49579	-0.291
Mof_O 	O 	0.5469	0.80314	0.48604	-0.259
Mof_O 	O 	0.5737	0.67984	0.48446	-0.149
Mof_O 	O 	0.445	0.61407	0.47157	-0.243
Mof_O 	O 	0.5098	0.54339	0.43337	-0.255
Mof_C 	C 	0.5728	0.7683	0.48333	0.314
Mof_C 	C 	0.5081	0.7407	0.46245	-0.008
Mof_C 	C 	0.4405	0.7588	0.441	-0.051
Mof_H 	H 	0.4342	0.7869	0.441	0.066
Mof_C 	C 	0.3825	0.7359	0.4199	-0.015
Mof_H 	H 	0.338	0.7482	0.4052	0.036
Mof_C 	C 	0.3924	0.6942	0.4211	-0.058
Mof_H 	H 	0.3531	0.6783	0.4072	0.05
Mof_C 	C 	0.4582	0.6756	0.44212	0.01
Mof_C 	C 	0.4701	0.6305	0.44377	0.231
Mof_C 	C 	0.4997	0.6117	0.41472	-0.281
Mof_H 	H 	0.5107	0.6282	0.3961	0.128
Mof_C 	C 	0.5152	0.5696	0.41035	0.239
Mof_C 	C 	0.5396	0.5537	0.37645	-0.07
Mof_C 	C 	0.5043	0.5726	0.3478	0.005
Mof_H 	H 	0.469	0.5967	0.3497	0.03
Mof_C 	C 	0.732	0.691	0.57051	0.075
Mof_H 	H 	0.7255	0.719	0.5677	0.028
Mof_C 	C 	0.7349	0.6754	0.60284	-0.126
Mof_H 	H 	0.7282	0.6927	0.6212	0.079
Mof_C 	C 	0.7478	0.634	0.60785	0.055
Mof_C 	C 	0.7555	0.6101	0.579	-0.121
Mof_H 	H 	0.7645	0.5822	0.5809	0.078
Mof_C 	C 	0.7499	0.6277	0.54766	0.077
Mof_H 	H 	0.7543	0.6111	0.5288	0.038
Mof_C 	C 	0.5789	0.5224	0.3131	0
Mof_H 	H 	0.5933	0.5126	0.2917	0.045
Mof_C 	C 	0.5966	0.5187	0.3736	-0.005
Mof_H 	H 	0.6212	0.5062	0.3928	0.047
Mof_C 	C 	0.6171	0.5023	0.3417	-0.071
Mof_H 	H 	0.6549	0.4788	0.3395	0.057
Mof_C 	C 	0.5205	0.5562	0.3167	-0.074
Mof_H 	H 	0.4918	0.568	0.2979	0.085
Mof_Cd	Cd	0.74093	0.1945	0.98946	0.492
Mof_N 	N 	0.5151	0.19912	0.96348	-0.048
Mof_N 	N 	0.7383	0.16765	0.04329	-0.142
Mof_O 	O 	0.6521	0.25518	0.99579	-0.291
Mof_O 	O 	0.5469	0.30314	0.98604	-0.259
Mof_O 	O 	0.5737	0.17984	0.98446	-0.149
Mof_O 	O 	0.445	0.11407	0.97157	-0.243
Mof_O 	O 	0.5098	0.04339	0.93337	-0.255
Mof_C 	C 	0.5728	0.2683	0.98333	0.314
Mof_C 	C 	0.5081	0.2407	0.96245	-0.008
Mof_C 	C 	0.4405	0.2588	0.941	-0.051
Mof_H 	H 	0.4342	0.2869	0.941	0.066
Mof_C 	C 	0.3825	0.2359	0.9199	-0.015
Mof_H 	H 	0.338	0.2482	0.9052	0.036
Mof_C 	C 	0.3924	0.1942	0.9211	-0.058
Mof_H 	H 	0.3531	0.1783	0.9072	0.05
Mof_C 	C 	0.4582	0.1756	0.94212	0.01
Mof_C 	C 	0.4701	0.1305	0.94377	0.231
Mof_C 	C 	0.4997	0.1117	0.91472	-0.281
Mof_H 	H 	0.5107	0.1282	0.8961	0.128
Mof_C 	C 	0.5152	0.0696	0.91035	0.239
Mof_C 	C 	0.5396	0.0537	0.87645	-0.069
Mof_C 	C 	0.5043	0.0726	0.8478	0.005
Mof_H 	H 	0.469	0.0967	0.8497	0.03
Mof_C 	C 	0.732	0.191	0.07051	0.075
Mof_H 	H 	0.7255	0.219	0.0677	0.028
Mof_C 	C 	0.7349	0.1754	0.10284	-0.126
Mof_H 	H 	0.7282	0.1927	0.1212	0.079
Mof_C 	C 	0.7478	0.134	0.10785	0.055
Mof_C 	C 	0.7555	0.1101	0.079	-0.121
Mof_H 	H 	0.7645	0.0822	0.0809	0.078
Mof_C 	C 	0.7499	0.1277	0.04766	0.077
Mof_H 	H 	0.7543	0.1111	0.0288	0.038
Mof_C 	C 	0.5789	0.0224	0.8131	0
Mof_H 	H 	0.5933	0.0126	0.7917	0.045
Mof_C 	C 	0.5966	0.0187	0.8736	-0.006
Mof_H 	H 	0.6212	0.0062	0.8928	0.048
Mof_C 	C 	0.6171	0.0023	0.8417	-0.071
Mof_H 	H 	0.6549	0.9788	0.8395	0.056
Mof_C 	C 	0.5205	0.0562	0.8167	-0.074
Mof_H 	H 	0.4918	0.068	0.7979	0.085
Mof_Cd	Cd	0.24093	0.6945	0.98946	0.492
Mof_N 	N 	0.0151	0.69912	0.96348	-0.048
Mof_N 	N 	0.2383	0.66765	0.04329	-0.142
Mof_O 	O 	0.1521	0.75518	0.99579	-0.291
Mof_O 	O 	0.0469	0.80314	0.98604	-0.259
Mof_O 	O 	0.0737	0.67984	0.98446	-0.149
Mof_O 	O 	0.945	0.61407	0.97157	-0.243
Mof_O 	O 	0.0098	0.54339	0.93337	-0.255
Mof_C 	C 	0.0728	0.7683	0.98333	0.314
Mof_C 	C 	0.0081	0.7407	0.96245	-0.008
Mof_C 	C 	0.9405	0.7588	0.941	-0.051
Mof_H 	H 	0.9342	0.7869	0.941	0.067
Mof_C 	C 	0.8825	0.7359	0.9199	-0.015
Mof_H 	H 	0.838	0.7482	0.9052	0.036
Mof_C 	C 	0.8924	0.6942	0.9211	-0.058
Mof_H 	H 	0.8531	0.6783	0.9072	0.05
Mof_C 	C 	0.9582	0.6756	0.94212	0.01
Mof_C 	C 	0.9701	0.6305	0.94377	0.231
Mof_C 	C 	0.9997	0.6117	0.91472	-0.281
Mof_H 	H 	0.0107	0.6282	0.8961	0.128
Mof_C 	C 	0.0152	0.5696	0.91035	0.239
Mof_C 	C 	0.0396	0.5537	0.87645	-0.07
Mof_C 	C 	0.0043	0.5726	0.8478	0.005
Mof_H 	H 	0.969	0.5967	0.8497	0.03
Mof_C 	C 	0.232	0.691	0.07051	0.075
Mof_H 	H 	0.2255	0.719	0.0677	0.028
Mof_C 	C 	0.2349	0.6754	0.10284	-0.126
Mof_H 	H 	0.2282	0.6927	0.1212	0.079
Mof_C 	C 	0.2478	0.634	0.10785	0.055
Mof_C 	C 	0.2555	0.6101	0.079	-0.121
Mof_H 	H 	0.2645	0.5822	0.0809	0.078
Mof_C 	C 	0.2499	0.6277	0.04766	0.077
Mof_H 	H 	0.2543	0.6111	0.0288	0.038
Mof_C 	C 	0.0789	0.5224	0.8131	0
Mof_H 	H 	0.0933	0.5126	0.7917	0.045
Mof_C 	C 	0.0966	0.5187	0.8736	-0.005
Mof_H 	H 	0.1212	0.5062	0.8928	0.047
Mof_C 	C 	0.1171	0.5023	0.8417	-0.071
Mof_H 	H 	0.1549	0.4788	0.8395	0.057
Mof_C 	C 	0.0205	0.5562	0.8167	-0.074
Mof_H 	H 	0.9918	0.568	0.7979	0.085
Mof_Cd	Cd	0.24093	0.1945	0.48946	0.492
Mof_N 	N 	0.0151	0.19912	0.46348	-0.048
Mof_N 	N 	0.2383	0.16765	0.54329	-0.142
Mof_O 	O 	0.1521	0.25518	0.49579	-0.291
Mof_O 	O 	0.0469	0.30314	0.48604	-0.259
Mof_O 	O 	0.0737	0.17984	0.48446	-0.149
Mof_O 	O 	0.945	0.11407	0.47157	-0.243
Mof_O 	O 	0.0098	0.04339	0.43337	-0.255
Mof_C 	C 	0.0728	0.2683	0.48333	0.314
Mof_C 	C 	0.0081	0.2407	0.46245	-0.008
Mof_C 	C 	0.9405	0.2588	0.441	-0.05
Mof_H 	H 	0.9342	0.2869	0.441	0.066
Mof_C 	C 	0.8825	0.2359	0.4199	-0.015
Mof_H 	H 	0.838	0.2482	0.4052	0.036
Mof_C 	C 	0.8924	0.1942	0.4211	-0.058
Mof_H 	H 	0.8531	0.1783	0.4072	0.05
Mof_C 	C 	0.9582	0.1756	0.44212	0.01
Mof_C 	C 	0.9701	0.1305	0.44377	0.231
Mof_C 	C 	0.9997	0.1117	0.41472	-0.28
Mof_H 	H 	0.0107	0.1282	0.3961	0.127
Mof_C 	C 	0.0152	0.0696	0.41035	0.239
Mof_C 	C 	0.0396	0.0537	0.37645	-0.07
Mof_C 	C 	0.0043	0.0726	0.3478	0.005
Mof_H 	H 	0.969	0.0967	0.3497	0.03
Mof_C 	C 	0.232	0.191	0.57051	0.075
Mof_H 	H 	0.2255	0.219	0.5677	0.028
Mof_C 	C 	0.2349	0.1754	0.60284	-0.126
Mof_H 	H 	0.2282	0.1927	0.6212	0.079
Mof_C 	C 	0.2478	0.134	0.60785	0.055
Mof_C 	C 	0.2555	0.1101	0.579	-0.121
Mof_H 	H 	0.2645	0.0822	0.5809	0.078
Mof_C 	C 	0.2499	0.1277	0.54766	0.077
Mof_H 	H 	0.2543	0.1111	0.5288	0.038
Mof_C 	C 	0.0789	0.0224	0.3131	0.001
Mof_H 	H 	0.0933	0.0126	0.2917	0.044
Mof_C 	C 	0.0966	0.0187	0.3736	-0.005
Mof_H 	H 	0.1212	0.0062	0.3928	0.047
Mof_C 	C 	0.1171	0.0023	0.3417	-0.071
Mof_H 	H 	0.1549	0.9788	0.3395	0.057
Mof_C 	C 	0.0205	0.0562	0.3167	-0.075
Mof_H 	H 	0.9918	0.068	0.2979	0.085
Mof_Cd	Cd	0.00907	0.0555	0.48946	0.491
Mof_N 	N 	0.2349	0.05088	0.46348	-0.048
Mof_N 	N 	0.0117	0.08235	0.54329	-0.142
Mof_O 	O 	0.0979	0.99482	0.49579	-0.291
Mof_O 	O 	0.2031	0.94686	0.48604	-0.259
Mof_O 	O 	0.1763	0.07016	0.48446	-0.149
Mof_O 	O 	0.305	0.13593	0.47157	-0.243
Mof_O 	O 	0.2402	0.20661	0.43337	-0.255
Mof_C 	C 	0.1772	0.9817	0.48333	0.315
Mof_C 	C 	0.2419	0.0093	0.46245	-0.008
Mof_C 	C 	0.3095	0.9912	0.441	-0.05
Mof_H 	H 	0.3158	0.9631	0.441	0.066
Mof_C 	C 	0.3675	0.0141	0.4199	-0.015
Mof_H 	H 	0.412	0.0018	0.4052	0.036
Mof_C 	C 	0.3576	0.0558	0.4211	-0.058
Mof_H 	H 	0.3969	0.0717	0.4072	0.05
Mof_C 	C 	0.2918	0.0744	0.44212	0.009
Mof_C 	C 	0.2799	0.1195	0.44377	0.231
Mof_C 	C 	0.2503	0.1383	0.41472	-0.281
Mof_H 	H 	0.2393	0.1218	0.3961	0.128
Mof_C 	C 	0.2348	0.1804	0.41035	0.239
Mof_C 	C 	0.2104	0.1963	0.37645	-0.07
Mof_C 	C 	0.2457	0.1774	0.3478	0.005
Mof_H 	H 	0.281	0.1533	0.3497	0.03
Mof_C 	C 	0.018	0.059	0.57051	0.074
Mof_H 	H 	0.0245	0.031	0.5677	0.028
Mof_C 	C 	0.0151	0.0746	0.60284	-0.126
Mof_H 	H 	0.0218	0.0573	0.6212	0.078
Mof_C 	C 	0.0022	0.116	0.60785	0.055
Mof_C 	C 	0.9945	0.1399	0.579	-0.12
Mof_H 	H 	0.9855	0.1678	0.5809	0.078
Mof_C 	C 	0.0001	0.1223	0.54766	0.076
Mof_H 	H 	0.9957	0.1389	0.5288	0.038
Mof_C 	C 	0.1711	0.2276	0.3131	0
Mof_H 	H 	0.1567	0.2374	0.2917	0.045
Mof_C 	C 	0.1534	0.2313	0.3736	-0.005
Mof_H 	H 	0.1288	0.2438	0.3928	0.047
Mof_C 	C 	0.1329	0.2477	0.3417	-0.071
Mof_H 	H 	0.0951	0.2712	0.3395	0.057
Mof_C 	C 	0.2295	0.1938	0.3167	-0.074
Mof_H 	H 	0.2582	0.182	0.2979	0.085
Mof_Cd	Cd	0.00907	0.5555	0.98946	0.492
Mof_N 	N 	0.2349	0.55088	0.96348	-0.048
Mof_N 	N 	0.0117	0.58235	0.04329	-0.142
Mof_O 	O 	0.0979	0.49482	0.99579	-0.291
Mof_O 	O 	0.2031	0.44686	0.98604	-0.259
Mof_O 	O 	0.1763	0.57016	0.98446	-0.149
Mof_O 	O 	0.305	0.63593	0.97157	-0.243
Mof_O 	O 	0.2402	0.70661	0.93337	-0.255
Mof_C 	C 	0.1772	0.4817	0.98333	0.314
Mof_C 	C 	0.2419	0.5093	0.96245	-0.008
Mof_C 	C 	0.3095	0.4912	0.941	-0.051
Mof_H 	H 	0.3158	0.4631	0.941	0.066
Mof_C 	C 	0.3675	0.5141	0.9199	-0.015
Mof_H 	H 	0.412	0.5018	0.9052	0.036
Mof_C 	C 	0.3576	0.5558	0.9211	-0.058
Mof_H 	H 	0.3969	0.5717	0.9072	0.05
Mof_C 	C 	0.2918	0.5744	0.94212	0.01
Mof_C 	C 	0.2799	0.6195	0.94377	0.231
Mof_C 	C 	0.2503	0.6383	0.91472	-0.281
Mof_H 	H 	0.2393	0.6218	0.8961	0.128
Mof_C 	C 	0.2348	0.6804	0.91035	0.239
Mof_C 	C 	0.2104	0.6963	0.87645	-0.07
Mof_C 	C 	0.2457	0.6774	0.8478	0.005
Mof_H 	H 	0.281	0.6533	0.8497	0.03
Mof_C 	C 	0.018	0.559	0.07051	0.075
Mof_H 	H 	0.0245	0.531	0.0677	0.028
Mof_C 	C 	0.0151	0.5746	0.10284	-0.126
Mof_H 	H 	0.0218	0.5573	0.1212	0.079
Mof_C 	C 	0.0022	0.616	0.10785	0.055
Mof_C 	C 	0.9945	0.6399	0.079	-0.121
Mof_H 	H 	0.9855	0.6678	0.0809	0.078
Mof_C 	C 	0.0001	0.6223	0.04766	0.077
Mof_H 	H 	0.9957	0.6389	0.0288	0.038
Mof_C 	C 	0.1711	0.7276	0.8131	0
Mof_H 	H 	0.1567	0.7374	0.7917	0.045
Mof_C 	C 	0.1534	0.7313	0.8736	-0.005
Mof_H 	H 	0.1288	0.7438	0.8928	0.047
Mof_C 	C 	0.1329	0.7477	0.8417	-0.071
Mof_H 	H 	0.0951	0.7712	0.8395	0.057
Mof_C 	C 	0.2295	0.6938	0.8167	-0.074
Mof_H 	H 	0.2582	0.682	0.7979	0.085
Mof_Cd	Cd	0.50907	0.0555	0.98946	0.492
Mof_N 	N 	0.7349	0.05088	0.96348	-0.048
Mof_N 	N 	0.5117	0.08235	0.04329	-0.142
Mof_O 	O 	0.5979	0.99482	0.99579	-0.291
Mof_O 	O 	0.7031	0.94686	0.98604	-0.259
Mof_O 	O 	0.6763	0.07016	0.98446	-0.149
Mof_O 	O 	0.805	0.13593	0.97157	-0.243
Mof_O 	O 	0.7402	0.20661	0.93337	-0.255
Mof_C 	C 	0.6772	0.9817	0.98333	0.314
Mof_C 	C 	0.7419	0.0093	0.96245	-0.007
Mof_C 	C 	0.8095	0.9912	0.941	-0.051
Mof_H 	H 	0.8158	0.9631	0.941	0.067
Mof_C 	C 	0.8675	0.0141	0.9199	-0.014
Mof_H 	H 	0.912	0.0018	0.9052	0.036
Mof_C 	C 	0.8576	0.0558	0.9211	-0.059
Mof_H 	H 	0.8969	0.0717	0.9072	0.05
Mof_C 	C 	0.7918	0.0744	0.94212	0.01
Mof_C 	C 	0.7799	0.1195	0.94377	0.231
Mof_C 	C 	0.7503	0.1383	0.91472	-0.281
Mof_H 	H 	0.7393	0.1218	0.8961	0.128
Mof_C 	C 	0.7348	0.1804	0.91035	0.239
Mof_C 	C 	0.7104	0.1963	0.87645	-0.07
Mof_C 	C 	0.7457	0.1774	0.8478	0.005
Mof_H 	H 	0.781	0.1533	0.8497	0.03
Mof_C 	C 	0.518	0.059	0.07051	0.075
Mof_H 	H 	0.5245	0.031	0.0677	0.028
Mof_C 	C 	0.5151	0.0746	0.10284	-0.126
Mof_H 	H 	0.5218	0.0573	0.1212	0.079
Mof_C 	C 	0.5022	0.116	0.10785	0.055
Mof_C 	C 	0.4945	0.1399	0.079	-0.121
Mof_H 	H 	0.4855	0.1678	0.0809	0.078
Mof_C 	C 	0.5001	0.1223	0.04766	0.077
Mof_H 	H 	0.4957	0.1389	0.0288	0.038
Mof_C 	C 	0.6711	0.2276	0.8131	0
Mof_H 	H 	0.6567	0.2374	0.7917	0.045
Mof_C 	C 	0.6534	0.2313	0.8736	-0.005
Mof_H 	H 	0.6288	0.2438	0.8928	0.047
Mof_C 	C 	0.6329	0.2477	0.8417	-0.071
Mof_H 	H 	0.5951	0.2712	0.8395	0.057
Mof_C 	C 	0.7295	0.1938	0.8167	-0.074
Mof_H 	H 	0.7582	0.182	0.7979	0.085
Mof_Cd	Cd	0.50907	0.5555	0.48946	0.492
Mof_N 	N 	0.7349	0.55088	0.46348	-0.048
Mof_N 	N 	0.5117	0.58235	0.54329	-0.142
Mof_O 	O 	0.5979	0.49482	0.49579	-0.291
Mof_O 	O 	0.7031	0.44686	0.48604	-0.259
Mof_O 	O 	0.6763	0.57016	0.48446	-0.149
Mof_O 	O 	0.805	0.63593	0.47157	-0.243
Mof_O 	O 	0.7402	0.70661	0.43337	-0.255
Mof_C 	C 	0.6772	0.4817	0.48333	0.314
Mof_C 	C 	0.7419	0.5093	0.46245	-0.008
Mof_C 	C 	0.8095	0.4912	0.441	-0.051
Mof_H 	H 	0.8158	0.4631	0.441	0.067
Mof_C 	C 	0.8675	0.5141	0.4199	-0.015
Mof_H 	H 	0.912	0.5018	0.4052	0.036
Mof_C 	C 	0.8576	0.5558	0.4211	-0.058
Mof_H 	H 	0.8969	0.5717	0.4072	0.05
Mof_C 	C 	0.7918	0.5744	0.44212	0.01
Mof_C 	C 	0.7799	0.6195	0.44377	0.231
Mof_C 	C 	0.7503	0.6383	0.41472	-0.281
Mof_H 	H 	0.7393	0.6218	0.3961	0.128
Mof_C 	C 	0.7348	0.6804	0.41035	0.239
Mof_C 	C 	0.7104	0.6963	0.37645	-0.07
Mof_C 	C 	0.7457	0.6774	0.3478	0.005
Mof_H 	H 	0.781	0.6533	0.3497	0.03
Mof_C 	C 	0.518	0.559	0.57051	0.075
Mof_H 	H 	0.5245	0.531	0.5677	0.028
Mof_C 	C 	0.5151	0.5746	0.60284	-0.126
Mof_H 	H 	0.5218	0.5573	0.6212	0.079
Mof_C 	C 	0.5022	0.616	0.60785	0.055
Mof_C 	C 	0.4945	0.6399	0.579	-0.121
Mof_H 	H 	0.4855	0.6678	0.5809	0.078
Mof_C 	C 	0.5001	0.6223	0.54766	0.077
Mof_H 	H 	0.4957	0.6389	0.5288	0.038
Mof_C 	C 	0.6711	0.7276	0.3131	0
Mof_H 	H 	0.6567	0.7374	0.2917	0.045
Mof_C 	C 	0.6534	0.7313	0.3736	-0.005
Mof_H 	H 	0.6288	0.7438	0.3928	0.047
Mof_C 	C 	0.6329	0.7477	0.3417	-0.071
Mof_H 	H 	0.5951	0.7712	0.3395	0.057
Mof_C 	C 	0.7295	0.6938	0.3167	-0.074
Mof_H 	H 	0.7582	0.682	0.2979	0.085
Mof_Cd	Cd	0.99093	0.3055	0.73946	0.492
Mof_N 	N 	0.7651	0.30088	0.71348	-0.048
Mof_N 	N 	0.9883	0.33235	0.79329	-0.142
Mof_O 	O 	0.9021	0.24482	0.74579	-0.291
Mof_O 	O 	0.7969	0.19686	0.73604	-0.259
Mof_O 	O 	0.8237	0.32016	0.73446	-0.149
Mof_O 	O 	0.695	0.38593	0.72157	-0.243
Mof_O 	O 	0.7598	0.45661	0.68337	-0.255
Mof_C 	C 	0.8228	0.2317	0.73333	0.314
Mof_C 	C 	0.7581	0.2593	0.71245	-0.008
Mof_C 	C 	0.6905	0.2412	0.691	-0.051
Mof_H 	H 	0.6842	0.2131	0.691	0.067
Mof_C 	C 	0.6325	0.2641	0.6699	-0.015
Mof_H 	H 	0.588	0.2518	0.6552	0.036
Mof_C 	C 	0.6424	0.3058	0.6711	-0.058
Mof_H 	H 	0.6031	0.3217	0.6572	0.05
Mof_C 	C 	0.7082	0.3244	0.69212	0.01
Mof_C 	C 	0.7201	0.3695	0.69377	0.231
Mof_C 	C 	0.7497	0.3883	0.66472	-0.281
Mof_H 	H 	0.7607	0.3718	0.6461	0.128
Mof_C 	C 	0.7652	0.4304	0.66035	0.239
Mof_C 	C 	0.7896	0.4463	0.62645	-0.07
Mof_C 	C 	0.7543	0.4274	0.5978	0.005
Mof_H 	H 	0.719	0.4033	0.5997	0.03
Mof_C 	C 	0.982	0.309	0.82051	0.075
Mof_H 	H 	0.9755	0.281	0.8177	0.028
Mof_C 	C 	0.9849	0.3246	0.85284	-0.126
Mof_H 	H 	0.9782	0.3073	0.8712	0.079
Mof_C 	C 	0.9978	0.366	0.85785	0.055
Mof_C 	C 	0.0055	0.3899	0.829	-0.121
Mof_H 	H 	0.0145	0.4178	0.8309	0.078
Mof_C 	C 	0.9999	0.3723	0.79766	0.077
Mof_H 	H 	0.0043	0.3889	0.7788	0.038
Mof_C 	C 	0.8289	0.4776	0.5631	0
Mof_H 	H 	0.8433	0.4874	0.5417	0.045
Mof_C 	C 	0.8466	0.4813	0.6236	-0.005
Mof_H 	H 	0.8712	0.4938	0.6428	0.047
Mof_C 	C 	0.8671	0.4977	0.5917	-0.071
Mof_H 	H 	0.9049	0.5212	0.5895	0.057
Mof_C 	C 	0.7705	0.4438	0.5667	-0.074
Mof_H 	H 	0.7418	0.432	0.5479	0.085
Mof_Cd	Cd	0.99093	0.8055	0.23946	0.491
Mof_N 	N 	0.7651	0.80088	0.21348	-0.048
Mof_N 	N 	0.9883	0.83235	0.29329	-0.142
Mof_O 	O 	0.9021	0.74482	0.24579	-0.291
Mof_O 	O 	0.7969	0.69686	0.23604	-0.259
Mof_O 	O 	0.8237	0.82016	0.23446	-0.149
Mof_O 	O 	0.695	0.88593	0.22157	-0.243
Mof_O 	O 	0.7598	0.95661	0.18337	-0.255
Mof_C 	C 	0.8228	0.7317	0.23333	0.314
Mof_C 	C 	0.7581	0.7593	0.21245	-0.008
Mof_C 	C 	0.6905	0.7412	0.191	-0.051
Mof_H 	H 	0.6842	0.7131	0.191	0.066
Mof_C 	C 	0.6325	0.7641	0.1699	-0.015
Mof_H 	H 	0.588	0.7518	0.1552	0.036
Mof_C 	C 	0.6424	0.8058	0.1711	-0.058
Mof_H 	H 	0.6031	0.8217	0.1572	0.05
Mof_C 	C 	0.7082	0.8244	0.19212	0.01
Mof_C 	C 	0.7201	0.8695	0.19377	0.231
Mof_C 	C 	0.7497	0.8883	0.16472	-0.281
Mof_H 	H 	0.7607	0.8718	0.1461	0.128
Mof_C 	C 	0.7652	0.9304	0.16035	0.24
Mof_C 	C 	0.7896	0.9463	0.12645	-0.07
Mof_C 	C 	0.7543	0.9274	0.0978	0.006
Mof_H 	H 	0.719	0.9033	0.0997	0.03
Mof_C 	C 	0.982	0.809	0.32051	0.074
Mof_H 	H 	0.9755	0.781	0.3177	0.028
Mof_C 	C 	0.9849	0.8246	0.35284	-0.126
Mof_H 	H 	0.9782	0.8073	0.3712	0.078
Mof_C 	C 	0.9978	0.866	0.35785	0.055
Mof_C 	C 	0.0055	0.8899	0.329	-0.12
Mof_H 	H 	0.0145	0.9178	0.3309	0.078
Mof_C 	C 	0.9999	0.8723	0.29766	0.076
Mof_H 	H 	0.0043	0.8889	0.2788	0.038
Mof_C 	C 	0.8289	0.9776	0.0631	0.001
Mof_H 	H 	0.8433	0.9874	0.0417	0.044
Mof_C 	C 	0.8466	0.9813	0.1236	-0.005
Mof_H 	H 	0.8712	0.9938	0.1428	0.047
Mof_C 	C 	0.8671	0.9977	0.0917	-0.072
Mof_H 	H 	0.9049	0.0212	0.0895	0.057
Mof_C 	C 	0.7705	0.9438	0.0667	-0.075
Mof_H 	H 	0.7418	0.932	0.0479	0.085
Mof_Cd	Cd	0.49093	0.3055	0.23946	0.492
Mof_N 	N 	0.2651	0.30088	0.21348	-0.048
Mof_N 	N 	0.4883	0.33235	0.29329	-0.142
Mof_O 	O 	0.4021	0.24482	0.24579	-0.291
Mof_O 	O 	0.2969	0.19686	0.23604	-0.259
Mof_O 	O 	0.3237	0.32016	0.23446	-0.149
Mof_O 	O 	0.195	0.38593	0.22157	-0.243
Mof_O 	O 	0.2598	0.45661	0.18337	-0.255
Mof_C 	C 	0.3228	0.2317	0.23333	0.314
Mof_C 	C 	0.2581	0.2593	0.21245	-0.008
Mof_C 	C 	0.1905	0.2412	0.191	-0.051
Mof_H 	H 	0.1842	0.2131	0.191	0.066
Mof_C 	C 	0.1325	0.2641	0.1699	-0.015
Mof_H 	H 	0.088	0.2518	0.1552	0.036
Mof_C 	C 	0.1424	0.3058	0.1711	-0.058
Mof_H 	H 	0.1031	0.3217	0.1572	0.05
Mof_C 	C 	0.2082	0.3244	0.19212	0.01
Mof_C 	C 	0.2201	0.3695	0.19377	0.231
Mof_C 	C 	0.2497	0.3883	0.16472	-0.281
Mof_H 	H 	0.2607	0.3718	0.1461	0.128
Mof_C 	C 	0.2652	0.4304	0.16035	0.239
Mof_C 	C 	0.2896	0.4463	0.12645	-0.07
Mof_C 	C 	0.2543	0.4274	0.0978	0.005
Mof_H 	H 	0.219	0.4033	0.0997	0.03
Mof_C 	C 	0.482	0.309	0.32051	0.075
Mof_H 	H 	0.4755	0.281	0.3177	0.028
Mof_C 	C 	0.4849	0.3246	0.35284	-0.126
Mof_H 	H 	0.4782	0.3073	0.3712	0.079
Mof_C 	C 	0.4978	0.366	0.35785	0.055
Mof_C 	C 	0.5055	0.3899	0.329	-0.121
Mof_H 	H 	0.5145	0.4178	0.3309	0.078
Mof_C 	C 	0.4999	0.3723	0.29766	0.077
Mof_H 	H 	0.5043	0.3889	0.2788	0.038
Mof_C 	C 	0.3289	0.4776	0.0631	0
Mof_H 	H 	0.3433	0.4874	0.0417	0.045
Mof_C 	C 	0.3466	0.4813	0.1236	-0.005
Mof_H 	H 	0.3712	0.4938	0.1428	0.047
Mof_C 	C 	0.3671	0.4977	0.0917	-0.071
Mof_H 	H 	0.4049	0.5212	0.0895	0.057
Mof_C 	C 	0.2705	0.4438	0.0667	-0.074
Mof_H 	H 	0.2418	0.432	0.0479	0.085
Mof_Cd	Cd	0.49093	0.8055	0.73946	0.492
Mof_N 	N 	0.2651	0.80088	0.71348	-0.048
Mof_N 	N 	0.4883	0.83235	0.79329	-0.142
Mof_O 	O 	0.4021	0.74482	0.74579	-0.291
Mof_O 	O 	0.2969	0.69686	0.73604	-0.259
Mof_O 	O 	0.3237	0.82016	0.73446	-0.149
Mof_O 	O 	0.195	0.88593	0.72157	-0.243
Mof_O 	O 	0.2598	0.95661	0.68337	-0.255
Mof_C 	C 	0.3228	0.7317	0.73333	0.314
Mof_C 	C 	0.2581	0.7593	0.71245	-0.008
Mof_C 	C 	0.1905	0.7412	0.691	-0.051
Mof_H 	H 	0.1842	0.7131	0.691	0.067
Mof_C 	C 	0.1325	0.7641	0.6699	-0.015
Mof_H 	H 	0.088	0.7518	0.6552	0.036
Mof_C 	C 	0.1424	0.8058	0.6711	-0.058
Mof_H 	H 	0.1031	0.8217	0.6572	0.05
Mof_C 	C 	0.2082	0.8244	0.69212	0.01
Mof_C 	C 	0.2201	0.8695	0.69377	0.231
Mof_C 	C 	0.2497	0.8883	0.66472	-0.281
Mof_H 	H 	0.2607	0.8718	0.6461	0.128
Mof_C 	C 	0.2652	0.9304	0.66035	0.239
Mof_C 	C 	0.2896	0.9463	0.62645	-0.069
Mof_C 	C 	0.2543	0.9274	0.5978	0.005
Mof_H 	H 	0.219	0.9033	0.5997	0.03
Mof_C 	C 	0.482	0.809	0.82051	0.075
Mof_H 	H 	0.4755	0.781	0.8177	0.028
Mof_C 	C 	0.4849	0.8246	0.85284	-0.126
Mof_H 	H 	0.4782	0.8073	0.8712	0.079
Mof_C 	C 	0.4978	0.866	0.85785	0.055
Mof_C 	C 	0.5055	0.8899	0.829	-0.121
Mof_H 	H 	0.5145	0.9178	0.8309	0.078
Mof_C 	C 	0.4999	0.8723	0.79766	0.077
Mof_H 	H 	0.5043	0.8889	0.7788	0.038
Mof_C 	C 	0.3289	0.9776	0.5631	0
Mof_H 	H 	0.3433	0.9874	0.5417	0.045
Mof_C 	C 	0.3466	0.9813	0.6236	-0.006
Mof_H 	H 	0.3712	0.9938	0.6428	0.048
Mof_C 	C 	0.3671	0.9977	0.5917	-0.071
Mof_H 	H 	0.4049	0.0212	0.5895	0.056
Mof_C 	C 	0.2705	0.9438	0.5667	-0.074
Mof_H 	H 	0.2418	0.932	0.5479	0.085
Mof_Cd	Cd	0.25907	0.9445	0.73946	0.492
Mof_N 	N 	0.4849	0.94912	0.71348	-0.048
Mof_N 	N 	0.2617	0.91765	0.79329	-0.142
Mof_O 	O 	0.3479	0.00518	0.74579	-0.291
Mof_O 	O 	0.4531	0.05314	0.73604	-0.259
Mof_O 	O 	0.4263	0.92984	0.73446	-0.149
Mof_O 	O 	0.555	0.86407	0.72157	-0.243
Mof_O 	O 	0.4902	0.79339	0.68337	-0.255
Mof_C 	C 	0.4272	0.0183	0.73333	0.314
Mof_C 	C 	0.4919	0.9907	0.71245	-0.008
Mof_C 	C 	0.5595	0.0088	0.691	-0.051
Mof_H 	H 	0.5658	0.0369	0.691	0.066
Mof_C 	C 	0.6175	0.9859	0.6699	-0.015
Mof_H 	H 	0.662	0.9982	0.6552	0.036
Mof_C 	C 	0.6076	0.9442	0.6711	-0.058
Mof_H 	H 	0.6469	0.9283	0.6572	0.05
Mof_C 	C 	0.5418	0.9256	0.69212	0.01
Mof_C 	C 	0.5299	0.8805	0.69377	0.231
Mof_C 	C 	0.5003	0.8617	0.66472	-0.281
Mof_H 	H 	0.4893	0.8782	0.6461	0.128
Mof_C 	C 	0.4848	0.8196	0.66035	0.239
Mof_C 	C 	0.4604	0.8037	0.62645	-0.07
Mof_C 	C 	0.4957	0.8226	0.5978	0.005
Mof_H 	H 	0.531	0.8467	0.5997	0.03
Mof_C 	C 	0.268	0.941	0.82051	0.075
Mof_H 	H 	0.2745	0.969	0.8177	0.028
Mof_C 	C 	0.2651	0.9254	0.85284	-0.126
Mof_H 	H 	0.2718	0.9427	0.8712	0.079
Mof_C 	C 	0.2522	0.884	0.85785	0.055
Mof_C 	C 	0.2445	0.8601	0.829	-0.121
Mof_H 	H 	0.2355	0.8322	0.8309	0.078
Mof_C 	C 	0.2501	0.8777	0.79766	0.077
Mof_H 	H 	0.2457	0.8611	0.7788	0.038
Mof_C 	C 	0.4211	0.7724	0.5631	0
Mof_H 	H 	0.4067	0.7626	0.5417	0.045
Mof_C 	C 	0.4034	0.7687	0.6236	-0.005
Mof_H 	H 	0.3788	0.7562	0.6428	0.047
Mof_C 	C 	0.3829	0.7523	0.5917	-0.071
Mof_H 	H 	0.3451	0.7288	0.5895	0.057
Mof_C 	C 	0.4795	0.8062	0.5667	-0.074
Mof_H 	H 	0.5082	0.818	0.5479	0.085
Mof_Cd	Cd	0.25907	0.4445	0.23946	0.492
Mof_N 	N 	0.4849	0.44912	0.21348	-0.048
Mof_N 	N 	0.2617	0.41765	0.29329	-0.142
Mof_O 	O 	0.3479	0.50518	0.24579	-0.291
Mof_O 	O 	0.4531	0.55314	0.23604	-0.259
Mof_O 	O 	0.4263	0.42984	0.23446	-0.149
Mof_O 	O 	0.555	0.36407	0.22157	-0.243
Mof_O 	O 	0.4902	0.29339	0.18337	-0.255
Mof_C 	C 	0.4272	0.5183	0.23333	0.314
Mof_C 	C 	0.4919	0.4907	0.21245	-0.008
Mof_C 	C 	0.5595	0.5088	0.191	-0.051
Mof_H 	H 	0.5658	0.5369	0.191	0.066
Mof_C 	C 	0.6175	0.4859	0.1699	-0.015
Mof_H 	H 	0.662	0.4982	0.1552	0.036
Mof_C 	C 	0.6076	0.4442	0.1711	-0.058
Mof_H 	H 	0.6469	0.4283	0.1572	0.05
Mof_C 	C 	0.5418	0.4256	0.19212	0.01
Mof_C 	C 	0.5299	0.3805	0.19377	0.231
Mof_C 	C 	0.5003	0.3617	0.16472	-0.281
Mof_H 	H 	0.4893	0.3782	0.1461	0.128
Mof_C 	C 	0.4848	0.3196	0.16035	0.239
Mof_C 	C 	0.4604	0.3037	0.12645	-0.07
Mof_C 	C 	0.4957	0.3226	0.0978	0.005
Mof_H 	H 	0.531	0.3467	0.0997	0.03
Mof_C 	C 	0.268	0.441	0.32051	0.075
Mof_H 	H 	0.2745	0.469	0.3177	0.028
Mof_C 	C 	0.2651	0.4254	0.35284	-0.126
Mof_H 	H 	0.2718	0.4427	0.3712	0.079
Mof_C 	C 	0.2522	0.384	0.35785	0.055
Mof_C 	C 	0.2445	0.3601	0.329	-0.121
Mof_H 	H 	0.2355	0.3322	0.3309	0.078
Mof_C 	C 	0.2501	0.3777	0.29766	0.077
Mof_H 	H 	0.2457	0.3611	0.2788	0.038
Mof_C 	C 	0.4211	0.2724	0.0631	0
Mof_H 	H 	0.4067	0.2626	0.0417	0.045
Mof_C 	C 	0.4034	0.2687	0.1236	-0.005
Mof_H 	H 	0.3788	0.2562	0.1428	0.047
Mof_C 	C 	0.3829	0.2523	0.0917	-0.071
Mof_H 	H 	0.3451	0.2288	0.0895	0.057
Mof_C 	C 	0.4795	0.3062	0.0667	-0.074
Mof_H 	H 	0.5082	0.318	0.0479	0.085
Mof_Cd	Cd	0.75907	0.9445	0.23946	0.492
Mof_N 	N 	0.9849	0.94912	0.21348	-0.048
Mof_N 	N 	0.7617	0.91765	0.29329	-0.142
Mof_O 	O 	0.8479	0.00518	0.24579	-0.291
Mof_O 	O 	0.9531	0.05314	0.23604	-0.259
Mof_O 	O 	0.9263	0.92984	0.23446	-0.149
Mof_O 	O 	0.055	0.86407	0.22157	-0.243
Mof_O 	O 	0.9902	0.79339	0.18337	-0.255
Mof_C 	C 	0.9272	0.0183	0.23333	0.315
Mof_C 	C 	0.9919	0.9907	0.21245	-0.008
Mof_C 	C 	0.0595	0.0088	0.191	-0.051
Mof_H 	H 	0.0658	0.0369	0.191	0.067
Mof_C 	C 	0.1175	0.9859	0.1699	-0.014
Mof_H 	H 	0.162	0.9982	0.1552	0.036
Mof_C 	C 	0.1076	0.9442	0.1711	-0.059
Mof_H 	H 	0.1469	0.9283	0.1572	0.05
Mof_C 	C 	0.0418	0.9256	0.19212	0.01
Mof_C 	C 	0.0299	0.8805	0.19377	0.231
Mof_C 	C 	0.0003	0.8617	0.16472	-0.28
Mof_H 	H 	0.9893	0.8782	0.1461	0.127
Mof_C 	C 	0.9848	0.8196	0.16035	0.239
Mof_C 	C 	0.9604	0.8037	0.12645	-0.069
Mof_C 	C 	0.9957	0.8226	0.0978	0.005
Mof_H 	H 	0.031	0.8467	0.0997	0.03
Mof_C 	C 	0.768	0.941	0.32051	0.075
Mof_H 	H 	0.7745	0.969	0.3177	0.028
Mof_C 	C 	0.7651	0.9254	0.35284	-0.126
Mof_H 	H 	0.7718	0.9427	0.3712	0.079
Mof_C 	C 	0.7522	0.884	0.35785	0.055
Mof_C 	C 	0.7445	0.8601	0.329	-0.121
Mof_H 	H 	0.7355	0.8322	0.3309	0.078
Mof_C 	C 	0.7501	0.8777	0.29766	0.077
Mof_H 	H 	0.7457	0.8611	0.2788	0.038
Mof_C 	C 	0.9211	0.7724	0.0631	0
Mof_H 	H 	0.9067	0.7626	0.0417	0.045
Mof_C 	C 	0.9034	0.7687	0.1236	-0.006
Mof_H 	H 	0.8788	0.7562	0.1428	0.048
Mof_C 	C 	0.8829	0.7523	0.0917	-0.071
Mof_H 	H 	0.8451	0.7288	0.0895	0.056
Mof_C 	C 	0.9795	0.8062	0.0667	-0.074
Mof_H 	H 	0.0082	0.818	0.0479	0.085
Mof_Cd	Cd	0.75907	0.4445	0.73946	0.492
Mof_N 	N 	0.9849	0.44912	0.71348	-0.048
Mof_N 	N 	0.7617	0.41765	0.79329	-0.142
Mof_O 	O 	0.8479	0.50518	0.74579	-0.291
Mof_O 	O 	0.9531	0.55314	0.73604	-0.259
Mof_O 	O 	0.9263	0.42984	0.73446	-0.149
Mof_O 	O 	0.055	0.36407	0.72157	-0.243
Mof_O 	O 	0.9902	0.29339	0.68337	-0.255
Mof_C 	C 	0.9272	0.5183	0.73333	0.314
Mof_C 	C 	0.9919	0.4907	0.71245	-0.008
Mof_C 	C 	0.0595	0.5088	0.691	-0.051
Mof_H 	H 	0.0658	0.5369	0.691	0.066
Mof_C 	C 	0.1175	0.4859	0.6699	-0.015
Mof_H 	H 	0.162	0.4982	0.6552	0.036
Mof_C 	C 	0.1076	0.4442	0.6711	-0.058
Mof_H 	H 	0.1469	0.4283	0.6572	0.05
Mof_C 	C 	0.0418	0.4256	0.69212	0.01
Mof_C 	C 	0.0299	0.3805	0.69377	0.231
Mof_C 	C 	0.0003	0.3617	0.66472	-0.281
Mof_H 	H 	0.9893	0.3782	0.6461	0.128
Mof_C 	C 	0.9848	0.3196	0.66035	0.239
Mof_C 	C 	0.9604	0.3037	0.62645	-0.07
Mof_C 	C 	0.9957	0.3226	0.5978	0.006
Mof_H 	H 	0.031	0.3467	0.5997	0.03
Mof_C 	C 	0.768	0.441	0.82051	0.075
Mof_H 	H 	0.7745	0.469	0.8177	0.028
Mof_C 	C 	0.7651	0.4254	0.85284	-0.126
Mof_H 	H 	0.7718	0.4427	0.8712	0.079
Mof_C 	C 	0.7522	0.384	0.85785	0.055
Mof_C 	C 	0.7445	0.3601	0.829	-0.121
Mof_H 	H 	0.7355	0.3322	0.8309	0.078
Mof_C 	C 	0.7501	0.3777	0.79766	0.077
Mof_H 	H 	0.7457	0.3611	0.7788	0.038
Mof_C 	C 	0.9211	0.2724	0.5631	0
Mof_H 	H 	0.9067	0.2626	0.5417	0.045
Mof_C 	C 	0.9034	0.2687	0.6236	-0.005
Mof_H 	H 	0.8788	0.2562	0.6428	0.047
Mof_C 	C 	0.8829	0.2523	0.5917	-0.071
Mof_H 	H 	0.8451	0.2288	0.5895	0.057
Mof_C 	C 	0.9795	0.3062	0.5667	-0.074
Mof_H 	H 	0.0082	0.318	0.5479	0.085
Mof_Cd	Cd	0.25907	0.3055	0.51054	0.492
Mof_N 	N 	0.4849	0.30088	0.53652	-0.048
Mof_N 	N 	0.2617	0.33235	0.45671	-0.142
Mof_O 	O 	0.3479	0.24482	0.50421	-0.291
Mof_O 	O 	0.4531	0.19686	0.51396	-0.259
Mof_O 	O 	0.4263	0.32016	0.51554	-0.149
Mof_O 	O 	0.555	0.38593	0.52843	-0.243
Mof_O 	O 	0.4902	0.45661	0.56663	-0.255
Mof_C 	C 	0.4272	0.2317	0.51667	0.314
Mof_C 	C 	0.4919	0.2593	0.53755	-0.008
Mof_C 	C 	0.5595	0.2412	0.559	-0.051
Mof_H 	H 	0.5658	0.2131	0.559	0.066
Mof_C 	C 	0.6175	0.2641	0.5801	-0.015
Mof_H 	H 	0.662	0.2518	0.5948	0.036
Mof_C 	C 	0.6076	0.3058	0.5789	-0.058
Mof_H 	H 	0.6469	0.3217	0.5928	0.05
Mof_C 	C 	0.5418	0.3244	0.55788	0.01
Mof_C 	C 	0.5299	0.3695	0.55623	0.231
Mof_C 	C 	0.5003	0.3883	0.58528	-0.281
Mof_H 	H 	0.4893	0.3718	0.6039	0.128
Mof_C 	C 	0.4848	0.4304	0.58965	0.239
Mof_C 	C 	0.4604	0.4463	0.62355	-0.07
Mof_C 	C 	0.4957	0.4274	0.6522	0.005
Mof_H 	H 	0.531	0.4033	0.6503	0.03
Mof_C 	C 	0.268	0.309	0.42949	0.075
Mof_H 	H 	0.2745	0.281	0.4323	0.028
Mof_C 	C 	0.2651	0.3246	0.39716	-0.126
Mof_H 	H 	0.2718	0.3073	0.3788	0.079
Mof_C 	C 	0.2522	0.366	0.39215	0.055
Mof_C 	C 	0.2445	0.3899	0.421	-0.121
Mof_H 	H 	0.2355	0.4178	0.4191	0.078
Mof_C 	C 	0.2501	0.3723	0.45234	0.077
Mof_H 	H 	0.2457	0.3889	0.4712	0.038
Mof_C 	C 	0.4211	0.4776	0.6869	0
Mof_H 	H 	0.4067	0.4874	0.7083	0.045
Mof_C 	C 	0.4034	0.4813	0.6264	-0.005
Mof_H 	H 	0.3788	0.4938	0.6072	0.047
Mof_C 	C 	0.3829	0.4977	0.6583	-0.071
Mof_H 	H 	0.3451	0.5212	0.6605	0.057
Mof_C 	C 	0.4795	0.4438	0.6833	-0.074
Mof_H 	H 	0.5082	0.432	0.7021	0.085
Mof_Cd	Cd	0.25907	0.8055	0.01054	0.492
Mof_N 	N 	0.4849	0.80088	0.03652	-0.048
Mof_N 	N 	0.2617	0.83235	0.95671	-0.142
Mof_O 	O 	0.3479	0.74482	0.00421	-0.291
Mof_O 	O 	0.4531	0.69686	0.01396	-0.259
Mof_O 	O 	0.4263	0.82016	0.01554	-0.149
Mof_O 	O 	0.555	0.88593	0.02843	-0.243
Mof_O 	O 	0.4902	0.95661	0.06663	-0.255
Mof_C 	C 	0.4272	0.7317	0.01667	0.314
Mof_C 	C 	0.4919	0.7593	0.03755	-0.008
Mof_C 	C 	0.5595	0.7412	0.059	-0.051
Mof_H 	H 	0.5658	0.7131	0.059	0.066
Mof_C 	C 	0.6175	0.7641	0.0801	-0.015
Mof_H 	H 	0.662	0.7518	0.0948	0.036
Mof_C 	C 	0.6076	0.8058	0.0789	-0.058
Mof_H 	H 	0.6469	0.8217	0.0928	0.05
Mof_C 	C 	0.5418	0.8244	0.05788	0.01
Mof_C 	C 	0.5299	0.8695	0.05623	0.231
Mof_C 	C 	0.5003	0.8883	0.08528	-0.281
Mof_H 	H 	0.4893	0.8718	0.1039	0.128
Mof_C 	C 	0.4848	0.9304	0.08965	0.239
Mof_C 	C 	0.4604	0.9463	0.12355	-0.069
Mof_C 	C 	0.4957	0.9274	0.1522	0.005
Mof_H 	H 	0.531	0.9033	0.1503	0.03
Mof_C 	C 	0.268	0.809	0.92949	0.075
Mof_H 	H 	0.2745	0.781	0.9323	0.028
Mof_C 	C 	0.2651	0.8246	0.89716	-0.126
Mof_H 	H 	0.2718	0.8073	0.8788	0.079
Mof_C 	C 	0.2522	0.866	0.89215	0.055
Mof_C 	C 	0.2445	0.8899	0.921	-0.121
Mof_H 	H 	0.2355	0.9178	0.9191	0.078
Mof_C 	C 	0.2501	0.8723	0.95234	0.077
Mof_H 	H 	0.2457	0.8889	0.9712	0.038
Mof_C 	C 	0.4211	0.9776	0.1869	0
Mof_H 	H 	0.4067	0.9874	0.2083	0.045
Mof_C 	C 	0.4034	0.9813	0.1264	-0.006
Mof_H 	H 	0.3788	0.9938	0.1072	0.048
Mof_C 	C 	0.3829	0.9977	0.1583	-0.071
Mof_H 	H 	0.3451	0.0212	0.1605	0.056
Mof_C 	C 	0.4795	0.9438	0.1833	-0.074
Mof_H 	H 	0.5082	0.932	0.2021	0.085
Mof_Cd	Cd	0.75907	0.3055	0.01054	0.492
Mof_N 	N 	0.9849	0.30088	0.03652	-0.048
Mof_N 	N 	0.7617	0.33235	0.95671	-0.142
Mof_O 	O 	0.8479	0.24482	0.00421	-0.291
Mof_O 	O 	0.9531	0.19686	0.01396	-0.259
Mof_O 	O 	0.9263	0.32016	0.01554	-0.149
Mof_O 	O 	0.055	0.38593	0.02843	-0.243
Mof_O 	O 	0.9902	0.45661	0.06663	-0.255
Mof_C 	C 	0.9272	0.2317	0.01667	0.314
Mof_C 	C 	0.9919	0.2593	0.03755	-0.008
Mof_C 	C 	0.0595	0.2412	0.059	-0.051
Mof_H 	H 	0.0658	0.2131	0.059	0.067
Mof_C 	C 	0.1175	0.2641	0.0801	-0.015
Mof_H 	H 	0.162	0.2518	0.0948	0.036
Mof_C 	C 	0.1076	0.3058	0.0789	-0.058
Mof_H 	H 	0.1469	0.3217	0.0928	0.05
Mof_C 	C 	0.0418	0.3244	0.05788	0.01
Mof_C 	C 	0.0299	0.3695	0.05623	0.231
Mof_C 	C 	0.0003	0.3883	0.08528	-0.281
Mof_H 	H 	0.9893	0.3718	0.1039	0.128
Mof_C 	C 	0.9848	0.4304	0.08965	0.239
Mof_C 	C 	0.9604	0.4463	0.12355	-0.07
Mof_C 	C 	0.9957	0.4274	0.1522	0.005
Mof_H 	H 	0.031	0.4033	0.1503	0.03
Mof_C 	C 	0.768	0.309	0.92949	0.075
Mof_H 	H 	0.7745	0.281	0.9323	0.028
Mof_C 	C 	0.7651	0.3246	0.89716	-0.126
Mof_H 	H 	0.7718	0.3073	0.8788	0.079
Mof_C 	C 	0.7522	0.366	0.89215	0.055
Mof_C 	C 	0.7445	0.3899	0.921	-0.121
Mof_H 	H 	0.7355	0.4178	0.9191	0.078
Mof_C 	C 	0.7501	0.3723	0.95234	0.077
Mof_H 	H 	0.7457	0.3889	0.9712	0.038
Mof_C 	C 	0.9211	0.4776	0.1869	0
Mof_H 	H 	0.9067	0.4874	0.2083	0.045
Mof_C 	C 	0.9034	0.4813	0.1264	-0.005
Mof_H 	H 	0.8788	0.4938	0.1072	0.047
Mof_C 	C 	0.8829	0.4977	0.1583	-0.071
Mof_H 	H 	0.8451	0.5212	0.1605	0.057
Mof_C 	C 	0.9795	0.4438	0.1833	-0.074
Mof_H 	H 	0.0082	0.432	0.2021	0.085
Mof_Cd	Cd	0.75907	0.8055	0.51054	0.492
Mof_N 	N 	0.9849	0.80088	0.53652	-0.048
Mof_N 	N 	0.7617	0.83235	0.45671	-0.142
Mof_O 	O 	0.8479	0.74482	0.50421	-0.291
Mof_O 	O 	0.9531	0.69686	0.51396	-0.259
Mof_O 	O 	0.9263	0.82016	0.51554	-0.149
Mof_O 	O 	0.055	0.88593	0.52843	-0.243
Mof_O 	O 	0.9902	0.95661	0.56663	-0.255
Mof_C 	C 	0.9272	0.7317	0.51667	0.314
Mof_C 	C 	0.9919	0.7593	0.53755	-0.008
Mof_C 	C 	0.0595	0.7412	0.559	-0.05
Mof_H 	H 	0.0658	0.7131	0.559	0.066
Mof_C 	C 	0.1175	0.7641	0.5801	-0.015
Mof_H 	H 	0.162	0.7518	0.5948	0.036
Mof_C 	C 	0.1076	0.8058	0.5789	-0.058
Mof_H 	H 	0.1469	0.8217	0.5928	0.05
Mof_C 	C 	0.0418	0.8244	0.55788	0.01
Mof_C 	C 	0.0299	0.8695	0.55623	0.231
Mof_C 	C 	0.0003	0.8883	0.58528	-0.28
Mof_H 	H 	0.9893	0.8718	0.6039	0.127
Mof_C 	C 	0.9848	0.9304	0.58965	0.239
Mof_C 	C 	0.9604	0.9463	0.62355	-0.07
Mof_C 	C 	0.9957	0.9274	0.6522	0.005
Mof_H 	H 	0.031	0.9033	0.6503	0.03
Mof_C 	C 	0.768	0.809	0.42949	0.075
Mof_H 	H 	0.7745	0.781	0.4323	0.028
Mof_C 	C 	0.7651	0.8246	0.39716	-0.126
Mof_H 	H 	0.7718	0.8073	0.3788	0.079
Mof_C 	C 	0.7522	0.866	0.39215	0.055
Mof_C 	C 	0.7445	0.8899	0.421	-0.121
Mof_H 	H 	0.7355	0.9178	0.4191	0.078
Mof_C 	C 	0.7501	0.8723	0.45234	0.077
Mof_H 	H 	0.7457	0.8889	0.4712	0.038
Mof_C 	C 	0.9211	0.9776	0.6869	0.001
Mof_H 	H 	0.9067	0.9874	0.7083	0.044
Mof_C 	C 	0.9034	0.9813	0.6264	-0.005
Mof_H 	H 	0.8788	0.9938	0.6072	0.047
Mof_C 	C 	0.8829	0.9977	0.6583	-0.071
Mof_H 	H 	0.8451	0.0212	0.6605	0.057
Mof_C 	C 	0.9795	0.9438	0.6833	-0.075
Mof_H 	H 	0.0082	0.932	0.7021	0.085
Mof_Cd	Cd	0.99093	0.9445	0.51054	0.491
Mof_N 	N 	0.7651	0.94912	0.53652	-0.048
Mof_N 	N 	0.9883	0.91765	0.45671	-0.142
Mof_O 	O 	0.9021	0.00518	0.50421	-0.291
Mof_O 	O 	0.7969	0.05314	0.51396	-0.259
Mof_O 	O 	0.8237	0.92984	0.51554	-0.149
Mof_O 	O 	0.695	0.86407	0.52843	-0.243
Mof_O 	O 	0.7598	0.79339	0.56663	-0.255
Mof_C 	C 	0.8228	0.0183	0.51667	0.315
Mof_C 	C 	0.7581	0.9907	0.53755	-0.008
Mof_C 	C 	0.6905	0.0088	0.559	-0.05
Mof_H 	H 	0.6842	0.0369	0.559	0.066
Mof_C 	C 	0.6325	0.9859	0.5801	-0.015
Mof_H 	H 	0.588	0.9982	0.5948	0.036
Mof_C 	C 	0.6424	0.9442	0.5789	-0.058
Mof_H 	H 	0.6031	0.9283	0.5928	0.05
Mof_C 	C 	0.7082	0.9256	0.55788	0.009
Mof_C 	C 	0.7201	0.8805	0.55623	0.231
Mof_C 	C 	0.7497	0.8617	0.58528	-0.281
Mof_H 	H 	0.7607	0.8782	0.6039	0.128
Mof_C 	C 	0.7652	0.8196	0.58965	0.239
Mof_C 	C 	0.7896	0.8037	0.62355	-0.07
Mof_C 	C 	0.7543	0.8226	0.6522	0.005
Mof_H 	H 	0.719	0.8467	0.6503	0.03
Mof_C 	C 	0.982	0.941	0.42949	0.074
Mof_H 	H 	0.9755	0.969	0.4323	0.028
Mof_C 	C 	0.9849	0.9254	0.39716	-0.126
Mof_H 	H 	0.9782	0.9427	0.3788	0.078
Mof_C 	C 	0.9978	0.884	0.39215	0.055
Mof_C 	C 	0.0055	0.8601	0.421	-0.12
Mof_H 	H 	0.0145	0.8322	0.4191	0.078
Mof_C 	C 	0.9999	0.8777	0.45234	0.076
Mof_H 	H 	0.0043	0.8611	0.4712	0.038
Mof_C 	C 	0.8289	0.7724	0.6869	0
Mof_H 	H 	0.8433	0.7626	0.7083	0.045
Mof_C 	C 	0.8466	0.7687	0.6264	-0.005
Mof_H 	H 	0.8712	0.7562	0.6072	0.047
Mof_C 	C 	0.8671	0.7523	0.6583	-0.071
Mof_H 	H 	0.9049	0.7288	0.6605	0.057
Mof_C 	C 	0.7705	0.8062	0.6833	-0.074
Mof_H 	H 	0.7418	0.818	0.7021	0.085
Mof_Cd	Cd	0.99093	0.4445	0.01054	0.492
Mof_N 	N 	0.7651	0.44912	0.03652	-0.048
Mof_N 	N 	0.9883	0.41765	0.95671	-0.142
Mof_O 	O 	0.9021	0.50518	0.00421	-0.291
Mof_O 	O 	0.7969	0.55314	0.01396	-0.259
Mof_O 	O 	0.8237	0.42984	0.01554	-0.149
Mof_O 	O 	0.695	0.36407	0.02843	-0.243
Mof_O 	O 	0.7598	0.29339	0.06663	-0.255
Mof_C 	C 	0.8228	0.5183	0.01667	0.314
Mof_C 	C 	0.7581	0.4907	0.03755	-0.008
Mof_C 	C 	0.6905	0.5088	0.059	-0.051
Mof_H 	H 	0.6842	0.5369	0.059	0.066
Mof_C 	C 	0.6325	0.4859	0.0801	-0.015
Mof_H 	H 	0.588	0.4982	0.0948	0.036
Mof_C 	C 	0.6424	0.4442	0.0789	-0.058
Mof_H 	H 	0.6031	0.4283	0.0928	0.05
Mof_C 	C 	0.7082	0.4256	0.05788	0.01
Mof_C 	C 	0.7201	0.3805	0.05623	0.231
Mof_C 	C 	0.7497	0.3617	0.08528	-0.281
Mof_H 	H 	0.7607	0.3782	0.1039	0.128
Mof_C 	C 	0.7652	0.3196	0.08965	0.239
Mof_C 	C 	0.7896	0.3037	0.12355	-0.07
Mof_C 	C 	0.7543	0.3226	0.1522	0.005
Mof_H 	H 	0.719	0.3467	0.1503	0.03
Mof_C 	C 	0.982	0.441	0.92949	0.075
Mof_H 	H 	0.9755	0.469	0.9323	0.028
Mof_C 	C 	0.9849	0.4254	0.89716	-0.126
Mof_H 	H 	0.9782	0.4427	0.8788	0.079
Mof_C 	C 	0.9978	0.384	0.89215	0.055
Mof_C 	C 	0.0055	0.3601	0.921	-0.121
Mof_H 	H 	0.0145	0.3322	0.9191	0.078
Mof_C 	C 	0.9999	0.3777	0.95234	0.077
Mof_H 	H 	0.0043	0.3611	0.9712	0.038
Mof_C 	C 	0.8289	0.2724	0.1869	0
Mof_H 	H 	0.8433	0.2626	0.2083	0.045
Mof_C 	C 	0.8466	0.2687	0.1264	-0.005
Mof_H 	H 	0.8712	0.2562	0.1072	0.047
Mof_C 	C 	0.8671	0.2523	0.1583	-0.071
Mof_H 	H 	0.9049	0.2288	0.1605	0.057
Mof_C 	C 	0.7705	0.3062	0.1833	-0.074
Mof_H 	H 	0.7418	0.318	0.2021	0.085
Mof_Cd	Cd	0.49093	0.9445	0.01054	0.492
Mof_N 	N 	0.2651	0.94912	0.03652	-0.048
Mof_N 	N 	0.4883	0.91765	0.95671	-0.142
Mof_O 	O 	0.4021	0.00518	0.00421	-0.291
Mof_O 	O 	0.2969	0.05314	0.01396	-0.259
Mof_O 	O 	0.3237	0.92984	0.01554	-0.149
Mof_O 	O 	0.195	0.86407	0.02843	-0.243
Mof_O 	O 	0.2598	0.79339	0.06663	-0.255
Mof_C 	C 	0.3228	0.0183	0.01667	0.314
Mof_C 	C 	0.2581	0.9907	0.03755	-0.007
Mof_C 	C 	0.1905	0.0088	0.059	-0.051
Mof_H 	H 	0.1842	0.0369	0.059	0.067
Mof_C 	C 	0.1325	0.9859	0.0801	-0.014
Mof_H 	H 	0.088	0.9982	0.0948	0.036
Mof_C 	C 	0.1424	0.9442	0.0789	-0.059
Mof_H 	H 	0.1031	0.9283	0.0928	0.05
Mof_C 	C 	0.2082	0.9256	0.05788	0.01
Mof_C 	C 	0.2201	0.8805	0.05623	0.231
Mof_C 	C 	0.2497	0.8617	0.08528	-0.281
Mof_H 	H 	0.2607	0.8782	0.1039	0.128
Mof_C 	C 	0.2652	0.8196	0.08965	0.239
Mof_C 	C 	0.2896	0.8037	0.12355	-0.07
Mof_C 	C 	0.2543	0.8226	0.1522	0.005
Mof_H 	H 	0.219	0.8467	0.1503	0.03
Mof_C 	C 	0.482	0.941	0.92949	0.075
Mof_H 	H 	0.4755	0.969	0.9323	0.028
Mof_C 	C 	0.4849	0.9254	0.89716	-0.126
Mof_H 	H 	0.4782	0.9427	0.8788	0.079
Mof_C 	C 	0.4978	0.884	0.89215	0.055
Mof_C 	C 	0.5055	0.8601	0.921	-0.121
Mof_H 	H 	0.5145	0.8322	0.9191	0.078
Mof_C 	C 	0.4999	0.8777	0.95234	0.077
Mof_H 	H 	0.5043	0.8611	0.9712	0.038
Mof_C 	C 	0.3289	0.7724	0.1869	0
Mof_H 	H 	0.3433	0.7626	0.2083	0.045
Mof_C 	C 	0.3466	0.7687	0.1264	-0.005
Mof_H 	H 	0.3712	0.7562	0.1072	0.047
Mof_C 	C 	0.3671	0.7523	0.1583	-0.071
Mof_H 	H 	0.4049	0.7288	0.1605	0.057
Mof_C 	C 	0.2705	0.8062	0.1833	-0.074
Mof_H 	H 	0.2418	0.818	0.2021	0.085
Mof_Cd	Cd	0.49093	0.4445	0.51054	0.492
Mof_N 	N 	0.2651	0.44912	0.53652	-0.048
Mof_N 	N 	0.4883	0.41765	0.45671	-0.142
Mof_O 	O 	0.4021	0.50518	0.50421	-0.291
Mof_O 	O 	0.2969	0.55314	0.51396	-0.259
Mof_O 	O 	0.3237	0.42984	0.51554	-0.149
Mof_O 	O 	0.195	0.36407	0.52843	-0.243
Mof_O 	O 	0.2598	0.29339	0.56663	-0.255
Mof_C 	C 	0.3228	0.5183	0.51667	0.314
Mof_C 	C 	0.2581	0.4907	0.53755	-0.008
Mof_C 	C 	0.1905	0.5088	0.559	-0.051
Mof_H 	H 	0.1842	0.5369	0.559	0.067
Mof_C 	C 	0.1325	0.4859	0.5801	-0.015
Mof_H 	H 	0.088	0.4982	0.5948	0.036
Mof_C 	C 	0.1424	0.4442	0.5789	-0.058
Mof_H 	H 	0.1031	0.4283	0.5928	0.05
Mof_C 	C 	0.2082	0.4256	0.55788	0.01
Mof_C 	C 	0.2201	0.3805	0.55623	0.231
Mof_C 	C 	0.2497	0.3617	0.58528	-0.281
Mof_H 	H 	0.2607	0.3782	0.6039	0.128
Mof_C 	C 	0.2652	0.3196	0.58965	0.239
Mof_C 	C 	0.2896	0.3037	0.62355	-0.07
Mof_C 	C 	0.2543	0.3226	0.6522	0.005
Mof_H 	H 	0.219	0.3467	0.6503	0.03
Mof_C 	C 	0.482	0.441	0.42949	0.075
Mof_H 	H 	0.4755	0.469	0.4323	0.028
Mof_C 	C 	0.4849	0.4254	0.39716	-0.126
Mof_H 	H 	0.4782	0.4427	0.3788	0.079
Mof_C 	C 	0.4978	0.384	0.39215	0.055
Mof_C 	C 	0.5055	0.3601	0.421	-0.121
Mof_H 	H 	0.5145	0.3322	0.4191	0.078
Mof_C 	C 	0.4999	0.3777	0.45234	0.077
Mof_H 	H 	0.5043	0.3611	0.4712	0.038
Mof_C 	C 	0.3289	0.2724	0.6869	0
Mof_H 	H 	0.3433	0.2626	0.7083	0.045
Mof_C 	C 	0.3466	0.2687	0.6264	-0.005
Mof_H 	H 	0.3712	0.2562	0.6072	0.047
Mof_C 	C 	0.3671	0.2523	0.6583	-0.071
Mof_H 	H 	0.4049	0.2288	0.6605	0.057
Mof_C 	C 	0.2705	0.3062	0.6833	-0.074
Mof_H 	H 	0.2418	0.318	0.7021	0.085
_end
