data_functionalizedCrystal
_audit_creation_method	'EQeq! by Chris Wilmer'
_symmetry_space_group_name_H-M	'P1'
_symmetry_Int_Tables_number	1
_symmetry_cell_setting	triclinic
loop_
_symmetry_equiv_pos_as_xyz
  x,y,z
_cell_length_a	25.569
_cell_length_b	25.569
_cell_length_c	16.707
_cell_angle_alpha	90
_cell_angle_beta	90
_cell_angle_gamma	90
loop_
_atom_site_label
_atom_site_type_symbol
_atom_site_fract_x
_atom_site_fract_y
_atom_site_fract_z
_atom_site_charge
Mof_Co	Co	0.06729	0.66047	0.59964	1.183
Mof_Co	Co	0.00307	0.56336	0.68829	1.163
Mof_O 	O 	0.0031	0.69412	0.65538	-0.428
Mof_O 	O 	0.95391	0.6263	0.69768	-0.427
Mof_O 	O 	0.01951	0.58964	0.56701	-0.551
Mof_O 	O 	0.06935	0.61276	0.70283	-0.57
Mof_O 	O 	0.99697	0.55084	0.81402	-0.566
Mof_O 	O 	0.13343	0.61839	0.56721	-0.43
Mof_N 	N 	0.72045	0.88364	0.85026	-0.215
Mof_C 	C 	0.84503	0.78199	0.772	0.053
Mof_C 	C 	0.8877	0.6978	0.777	0.052
Mof_H 	H 	0.895	0.6681	0.8071	0.026
Mof_C 	C 	0.92295	0.71241	0.719	-0.129
Mof_C 	C 	0.881	0.79671	0.7153	-0.119
Mof_H 	H 	0.8792	0.8309	0.6931	0.064
Mof_C 	C 	0.80202	0.81733	0.7983	-0.009
Mof_C 	C 	0.21611	0.54707	0.4281	-0.003
Mof_H 	H 	0.2022	0.5591	0.3787	0.038
Mof_C 	C 	0.9202	0.76247	0.6895	0.046
Mof_H 	H 	0.9445	0.7737	0.6518	0.022
Mof_C 	C 	0.96366	0.67462	0.68822	0.38
Mof_C 	C 	0.99365	0.59582	0.8649	-0.008
Mof_H 	H 	0.0246	0.6167	0.8588	0.031
Mof_H 	H 	0.9636	0.6162	0.8504	0.032
Mof_H 	H 	0.9905	0.5848	0.9196	0.024
Mof_C 	C 	0.25735	0.5109	0.4284	-0.051
Mof_H 	H 	0.2669	0.4988	0.3656	0.037
Mof_C 	C 	0.7202	0.8322	0.8616	0.272
Mof_H 	H 	0.6908	0.8175	0.8881	-0.056
Mof_C 	C 	0.76	0.7982	0.8374	0.228
Mof_H 	H 	0.7574	0.7618	0.8484	-0.045
Mof_C 	C 	0.8043	0.8726	0.7824	-0.091
Mof_H 	H 	0.8334	0.8878	0.7558	0.047
Mof_C 	C 	0.7616	0.9034	0.8079	-0.003
Mof_H 	H 	0.7615	0.9396	0.795	0.027
Mof_C 	C 	0.8495	0.7317	0.8031	-0.119
Mof_H 	H 	0.8257	0.7205	0.8433	0.067
Mof_C 	C 	0.3241	0.4589	0.4876	0.022
Mof_C 	C 	0.3625	0.4672	0.4258	-0.057
Mof_H 	H 	0.3578	0.4946	0.3879	0.066
Mof_C 	C 	0.4079	0.4341	0.4213	0.003
Mof_H 	H 	0.4332	0.4395	0.3805	0.022
Mof_N 	N 	0.415	0.3927	0.4786	0.077
Mof_C 	C 	0.3766	0.3844	0.5404	-0.016
Mof_H 	H 	0.3813	0.3571	0.5783	0.277
Mof_C 	C 	0.3312	0.4175	0.5449	0.002
Mof_H 	H 	0.3059	0.4121	0.5857	0.16
Mof_C 	C 	0.7353	0.8408	0.8947	-0.239
Mof_H 	H 	0.718	0.8343	0.944	0.086
Mof_C 	C 	0.7741	0.8073	0.8706	-0.315
Mof_H 	H 	0.7823	0.7774	0.902	0.121
Mof_C 	C 	0.787	0.86	0.7576	0.002
Mof_H 	H 	0.8041	0.8686	0.7088	0.023
Mof_C 	C 	0.7472	0.8918	0.7853	0.029
Mof_H 	H 	0.7387	0.9219	0.7545	0.006
Mof_C 	C 	0.3223	0.4504	0.5345	-0.002
Mof_C 	C 	0.3562	0.456	0.5958	-0.038
Mof_H 	H 	0.3512	0.4832	0.6338	-0.015
Mof_C 	C 	0.3971	0.4231	0.6032	0.035
Mof_H 	H 	0.4209	0.427	0.6464	-0.003
Mof_N 	N 	0.4041	0.3844	0.5494	-0.292
Mof_C 	C 	0.3703	0.3788	0.488	0.17
Mof_H 	H 	0.3752	0.3516	0.4501	-0.209
Mof_C 	C 	0.3294	0.4117	0.4806	-0.041
Mof_H 	H 	0.3055	0.4077	0.4374	-0.121
Mof_H 	H 	0.0356	0.7637	0.4449	0.028
Mof_H 	H 	0.0099	0.7581	0.5318	0.04
Mof_H 	H 	0.0708	0.7713	0.5233	0.041
Mof_Co	Co	0.93271	0.33953	0.59964	1.182
Mof_Co	Co	0.99693	0.43664	0.68829	1.162
Mof_O 	O 	0.9969	0.30588	0.65538	-0.429
Mof_O 	O 	0.04609	0.3737	0.69768	-0.428
Mof_O 	O 	0.98049	0.41036	0.56701	-0.552
Mof_O 	O 	0.93065	0.38724	0.70283	-0.571
Mof_O 	O 	0.00303	0.44916	0.81402	-0.567
Mof_O 	O 	0.86657	0.38161	0.56721	-0.431
Mof_N 	N 	0.27955	0.11636	0.85026	-0.216
Mof_C 	C 	0.15497	0.21801	0.772	0.052
Mof_C 	C 	0.1123	0.3022	0.777	0.051
Mof_H 	H 	0.105	0.3319	0.8071	0.025
Mof_C 	C 	0.07705	0.28759	0.719	-0.13
Mof_C 	C 	0.119	0.20329	0.7153	-0.12
Mof_H 	H 	0.1208	0.1691	0.6931	0.063
Mof_C 	C 	0.19798	0.18267	0.7983	-0.01
Mof_C 	C 	0.78389	0.45293	0.4281	-0.004
Mof_H 	H 	0.7978	0.4409	0.3787	0.037
Mof_C 	C 	0.0798	0.23753	0.6895	0.045
Mof_H 	H 	0.0555	0.2263	0.6518	0.021
Mof_C 	C 	0.03634	0.32538	0.68822	0.379
Mof_C 	C 	0.00635	0.40418	0.8649	-0.009
Mof_H 	H 	0.9754	0.3833	0.8588	0.03
Mof_H 	H 	0.0364	0.3838	0.8504	0.031
Mof_H 	H 	0.0095	0.4152	0.9196	0.023
Mof_C 	C 	0.74265	0.4891	0.4284	-0.052
Mof_H 	H 	0.7331	0.5012	0.3656	0.036
Mof_C 	C 	0.2798	0.1678	0.8616	0.271
Mof_H 	H 	0.3092	0.1825	0.8881	-0.057
Mof_C 	C 	0.24	0.2018	0.8374	0.227
Mof_H 	H 	0.2426	0.2382	0.8484	-0.046
Mof_C 	C 	0.1957	0.1274	0.7824	-0.092
Mof_H 	H 	0.1666	0.1122	0.7558	0.046
Mof_C 	C 	0.2384	0.0966	0.8079	-0.004
Mof_H 	H 	0.2385	0.0604	0.795	0.026
Mof_C 	C 	0.1505	0.2683	0.8031	-0.12
Mof_H 	H 	0.1743	0.2795	0.8433	0.067
Mof_C 	C 	0.6759	0.5411	0.4876	0.022
Mof_C 	C 	0.6375	0.5328	0.4258	-0.057
Mof_H 	H 	0.6422	0.5054	0.3879	0.066
Mof_C 	C 	0.5921	0.5659	0.4213	0.003
Mof_H 	H 	0.5668	0.5605	0.3805	0.022
Mof_N 	N 	0.585	0.6073	0.4786	0.077
Mof_C 	C 	0.6234	0.6156	0.5404	-0.016
Mof_H 	H 	0.6187	0.6429	0.5783	0.277
Mof_C 	C 	0.6688	0.5825	0.5449	0.002
Mof_H 	H 	0.6941	0.5879	0.5857	0.16
Mof_C 	C 	0.2647	0.1592	0.8947	-0.239
Mof_H 	H 	0.282	0.1657	0.944	0.086
Mof_C 	C 	0.2259	0.1927	0.8706	-0.315
Mof_H 	H 	0.2177	0.2226	0.902	0.121
Mof_C 	C 	0.213	0.14	0.7576	0.002
Mof_H 	H 	0.1959	0.1314	0.7088	0.023
Mof_C 	C 	0.2528	0.1082	0.7853	0.029
Mof_H 	H 	0.2613	0.0781	0.7545	0.006
Mof_C 	C 	0.6777	0.5496	0.5345	-0.002
Mof_C 	C 	0.6438	0.544	0.5958	-0.038
Mof_H 	H 	0.6488	0.5168	0.6338	-0.015
Mof_C 	C 	0.6029	0.5769	0.6032	0.035
Mof_H 	H 	0.5791	0.573	0.6464	-0.003
Mof_N 	N 	0.5959	0.6156	0.5494	-0.292
Mof_C 	C 	0.6297	0.6212	0.488	0.17
Mof_H 	H 	0.6248	0.6484	0.4501	-0.209
Mof_C 	C 	0.6706	0.5883	0.4806	-0.041
Mof_H 	H 	0.6945	0.5923	0.4374	-0.121
Mof_H 	H 	0.9644	0.2363	0.4449	0.028
Mof_H 	H 	0.9901	0.2419	0.5318	0.04
Mof_H 	H 	0.9292	0.2287	0.5233	0.041
Mof_Co	Co	0.33953	0.06729	0.09964	1.182
Mof_Co	Co	0.43664	0.00307	0.18829	1.162
Mof_O 	O 	0.30588	0.0031	0.15538	-0.429
Mof_O 	O 	0.3737	0.95391	0.19768	-0.428
Mof_O 	O 	0.41036	0.01951	0.06701	-0.552
Mof_O 	O 	0.38724	0.06935	0.20283	-0.571
Mof_O 	O 	0.44916	0.99697	0.31402	-0.568
Mof_O 	O 	0.38161	0.13343	0.06721	-0.431
Mof_N 	N 	0.11636	0.72045	0.35026	-0.216
Mof_C 	C 	0.21801	0.84503	0.272	0.052
Mof_C 	C 	0.3022	0.8877	0.277	0.051
Mof_H 	H 	0.3319	0.895	0.3071	0.025
Mof_C 	C 	0.28759	0.92295	0.219	-0.13
Mof_C 	C 	0.20329	0.881	0.2153	-0.12
Mof_H 	H 	0.1691	0.8792	0.1931	0.063
Mof_C 	C 	0.18267	0.80202	0.2983	-0.01
Mof_C 	C 	0.45293	0.21611	0.9281	-0.003
Mof_H 	H 	0.4409	0.2022	0.8787	0.037
Mof_C 	C 	0.23753	0.9202	0.1895	0.045
Mof_H 	H 	0.2263	0.9445	0.1518	0.02
Mof_C 	C 	0.32538	0.96366	0.18822	0.379
Mof_C 	C 	0.40418	0.99365	0.3649	-0.008
Mof_H 	H 	0.3833	0.0246	0.3588	0.03
Mof_H 	H 	0.3838	0.9636	0.3504	0.03
Mof_H 	H 	0.4152	0.9905	0.4196	0.023
Mof_C 	C 	0.4891	0.25735	0.9284	-0.05
Mof_H 	H 	0.5012	0.2669	0.8656	0.036
Mof_C 	C 	0.1678	0.7202	0.3616	0.27
Mof_H 	H 	0.1825	0.6908	0.3881	-0.056
Mof_C 	C 	0.2018	0.76	0.3374	0.225
Mof_H 	H 	0.2382	0.7574	0.3484	-0.046
Mof_C 	C 	0.1274	0.8043	0.2824	-0.091
Mof_H 	H 	0.1122	0.8334	0.2558	0.046
Mof_C 	C 	0.0966	0.7616	0.3079	-0.004
Mof_H 	H 	0.0604	0.7615	0.295	0.026
Mof_C 	C 	0.2683	0.8495	0.3031	-0.12
Mof_H 	H 	0.2795	0.8257	0.3433	0.067
Mof_C 	C 	0.5411	0.3241	0.9876	0.021
Mof_C 	C 	0.5328	0.3625	0.9258	-0.058
Mof_H 	H 	0.5054	0.3578	0.8879	0.067
Mof_C 	C 	0.5659	0.4079	0.9213	0.004
Mof_H 	H 	0.5605	0.4332	0.8805	0.021
Mof_N 	N 	0.6073	0.415	0.9786	0.079
Mof_C 	C 	0.6156	0.3766	0.0404	-0.012
Mof_H 	H 	0.6429	0.3813	0.0783	0.28
Mof_C 	C 	0.5825	0.3312	0.0449	-0
Mof_H 	H 	0.5879	0.3059	0.0857	0.163
Mof_C 	C 	0.1592	0.7353	0.3947	-0.238
Mof_H 	H 	0.1657	0.718	0.444	0.085
Mof_C 	C 	0.1927	0.7741	0.3706	-0.314
Mof_H 	H 	0.2226	0.7823	0.402	0.12
Mof_C 	C 	0.14	0.787	0.2576	0.002
Mof_H 	H 	0.1314	0.8041	0.2088	0.023
Mof_C 	C 	0.1082	0.7472	0.2853	0.028
Mof_H 	H 	0.0781	0.7387	0.2545	0.006
Mof_C 	C 	0.5496	0.3223	0.0345	-0.004
Mof_C 	C 	0.544	0.3562	0.0958	-0.038
Mof_H 	H 	0.5168	0.3512	0.1338	-0.015
Mof_C 	C 	0.5769	0.3971	0.1032	0.035
Mof_H 	H 	0.573	0.4209	0.1464	-0.004
Mof_N 	N 	0.6156	0.4041	0.0494	-0.293
Mof_C 	C 	0.6212	0.3703	0.988	0.167
Mof_H 	H 	0.6484	0.3752	0.9501	-0.205
Mof_C 	C 	0.5883	0.3294	0.9806	-0.042
Mof_H 	H 	0.5923	0.3055	0.9374	-0.12
Mof_H 	H 	0.2363	0.0356	0.9449	0.03
Mof_H 	H 	0.2419	0.0099	0.0318	0.041
Mof_H 	H 	0.2287	0.0708	0.0233	0.042
Mof_Co	Co	0.66047	0.93271	0.09964	1.182
Mof_Co	Co	0.56336	0.99693	0.18829	1.162
Mof_O 	O 	0.69412	0.9969	0.15538	-0.429
Mof_O 	O 	0.6263	0.04609	0.19768	-0.428
Mof_O 	O 	0.58964	0.98049	0.06701	-0.552
Mof_O 	O 	0.61276	0.93065	0.20283	-0.571
Mof_O 	O 	0.55084	0.00303	0.31402	-0.568
Mof_O 	O 	0.61839	0.86657	0.06721	-0.431
Mof_N 	N 	0.88364	0.27955	0.35026	-0.216
Mof_C 	C 	0.78199	0.15497	0.272	0.052
Mof_C 	C 	0.6978	0.1123	0.277	0.051
Mof_H 	H 	0.6681	0.105	0.3071	0.025
Mof_C 	C 	0.71241	0.07705	0.219	-0.13
Mof_C 	C 	0.79671	0.119	0.2153	-0.12
Mof_H 	H 	0.8309	0.1208	0.1931	0.063
Mof_C 	C 	0.81733	0.19798	0.2983	-0.01
Mof_C 	C 	0.54707	0.78389	0.9281	-0.003
Mof_H 	H 	0.5591	0.7978	0.8787	0.037
Mof_C 	C 	0.76247	0.0798	0.1895	0.045
Mof_H 	H 	0.7737	0.0555	0.1518	0.02
Mof_C 	C 	0.67462	0.03634	0.18822	0.379
Mof_C 	C 	0.59582	0.00635	0.3649	-0.008
Mof_H 	H 	0.6167	0.9754	0.3588	0.03
Mof_H 	H 	0.6162	0.0364	0.3504	0.03
Mof_H 	H 	0.5848	0.0095	0.4196	0.023
Mof_C 	C 	0.5109	0.74265	0.9284	-0.05
Mof_H 	H 	0.4988	0.7331	0.8656	0.036
Mof_C 	C 	0.8322	0.2798	0.3616	0.27
Mof_H 	H 	0.8175	0.3092	0.3881	-0.056
Mof_C 	C 	0.7982	0.24	0.3374	0.225
Mof_H 	H 	0.7618	0.2426	0.3484	-0.046
Mof_C 	C 	0.8726	0.1957	0.2824	-0.091
Mof_H 	H 	0.8878	0.1666	0.2558	0.046
Mof_C 	C 	0.9034	0.2384	0.3079	-0.004
Mof_H 	H 	0.9396	0.2385	0.295	0.026
Mof_C 	C 	0.7317	0.1505	0.3031	-0.12
Mof_H 	H 	0.7205	0.1743	0.3433	0.067
Mof_C 	C 	0.4589	0.6759	0.9876	0.021
Mof_C 	C 	0.4672	0.6375	0.9258	-0.058
Mof_H 	H 	0.4946	0.6422	0.8879	0.067
Mof_C 	C 	0.4341	0.5921	0.9213	0.004
Mof_H 	H 	0.4395	0.5668	0.8805	0.021
Mof_N 	N 	0.3927	0.585	0.9786	0.079
Mof_C 	C 	0.3844	0.6234	0.0404	-0.012
Mof_H 	H 	0.3571	0.6187	0.0783	0.28
Mof_C 	C 	0.4175	0.6688	0.0449	-0
Mof_H 	H 	0.4121	0.6941	0.0857	0.163
Mof_C 	C 	0.8408	0.2647	0.3947	-0.238
Mof_H 	H 	0.8343	0.282	0.444	0.085
Mof_C 	C 	0.8073	0.2259	0.3706	-0.314
Mof_H 	H 	0.7774	0.2177	0.402	0.12
Mof_C 	C 	0.86	0.213	0.2576	0.002
Mof_H 	H 	0.8686	0.1959	0.2088	0.023
Mof_C 	C 	0.8918	0.2528	0.2853	0.028
Mof_H 	H 	0.9219	0.2613	0.2545	0.006
Mof_C 	C 	0.4504	0.6777	0.0345	-0.004
Mof_C 	C 	0.456	0.6438	0.0958	-0.038
Mof_H 	H 	0.4832	0.6488	0.1338	-0.015
Mof_C 	C 	0.4231	0.6029	0.1032	0.035
Mof_H 	H 	0.427	0.5791	0.1464	-0.004
Mof_N 	N 	0.3844	0.5959	0.0494	-0.293
Mof_C 	C 	0.3788	0.6297	0.988	0.167
Mof_H 	H 	0.3516	0.6248	0.9501	-0.205
Mof_C 	C 	0.4117	0.6706	0.9806	-0.042
Mof_H 	H 	0.4077	0.6945	0.9374	-0.12
Mof_H 	H 	0.7637	0.9644	0.9449	0.03
Mof_H 	H 	0.7581	0.9901	0.0318	0.041
Mof_H 	H 	0.7713	0.9292	0.0233	0.042
Mof_Co	Co	0.43271	0.16047	0.40036	1.182
Mof_Co	Co	0.49693	0.06336	0.31171	1.162
Mof_O 	O 	0.4969	0.19412	0.34462	-0.429
Mof_O 	O 	0.54609	0.1263	0.30232	-0.428
Mof_O 	O 	0.48049	0.08964	0.43299	-0.552
Mof_O 	O 	0.43065	0.11276	0.29717	-0.571
Mof_O 	O 	0.50303	0.05084	0.18598	-0.568
Mof_O 	O 	0.36657	0.11839	0.43279	-0.431
Mof_N 	N 	0.77955	0.38364	0.14974	-0.216
Mof_C 	C 	0.65497	0.28199	0.228	0.052
Mof_C 	C 	0.6123	0.1978	0.223	0.051
Mof_H 	H 	0.605	0.1681	0.1929	0.025
Mof_C 	C 	0.57705	0.21241	0.281	-0.13
Mof_C 	C 	0.619	0.29671	0.2847	-0.12
Mof_H 	H 	0.6208	0.3309	0.3069	0.063
Mof_C 	C 	0.69798	0.31733	0.2017	-0.01
Mof_C 	C 	0.28389	0.04707	0.5719	-0.004
Mof_H 	H 	0.2978	0.0591	0.6213	0.037
Mof_C 	C 	0.5798	0.26247	0.3105	0.045
Mof_H 	H 	0.5555	0.2737	0.3482	0.02
Mof_C 	C 	0.53634	0.17462	0.31178	0.379
Mof_C 	C 	0.50635	0.09582	0.1351	-0.008
Mof_H 	H 	0.4754	0.1167	0.1412	0.03
Mof_H 	H 	0.5364	0.1162	0.1496	0.03
Mof_H 	H 	0.5095	0.0848	0.0804	0.022
Mof_C 	C 	0.24265	0.0109	0.5716	-0.052
Mof_H 	H 	0.2331	0.9988	0.6344	0.036
Mof_C 	C 	0.7798	0.3322	0.1384	0.273
Mof_H 	H 	0.8092	0.3175	0.1119	-0.058
Mof_C 	C 	0.74	0.2982	0.1626	0.229
Mof_H 	H 	0.7426	0.2618	0.1516	-0.047
Mof_C 	C 	0.6957	0.3726	0.2176	-0.092
Mof_H 	H 	0.6666	0.3878	0.2442	0.046
Mof_C 	C 	0.7384	0.4034	0.1921	-0.005
Mof_H 	H 	0.7385	0.4396	0.205	0.026
Mof_C 	C 	0.6505	0.2317	0.1969	-0.12
Mof_H 	H 	0.6743	0.2205	0.1567	0.067
Mof_C 	C 	0.1759	0.9589	0.5124	0.022
Mof_C 	C 	0.1375	0.9672	0.5742	-0.057
Mof_H 	H 	0.1422	0.9946	0.6121	0.066
Mof_C 	C 	0.0921	0.9341	0.5787	0.003
Mof_H 	H 	0.0668	0.9395	0.6195	0.022
Mof_N 	N 	0.085	0.8927	0.5214	0.077
Mof_C 	C 	0.1234	0.8844	0.4596	-0.016
Mof_H 	H 	0.1187	0.8571	0.4217	0.277
Mof_C 	C 	0.1688	0.9175	0.4551	0.002
Mof_H 	H 	0.1941	0.9121	0.4143	0.16
Mof_C 	C 	0.7647	0.3408	0.1053	-0.241
Mof_H 	H 	0.782	0.3343	0.056	0.085
Mof_C 	C 	0.7259	0.3073	0.1294	-0.317
Mof_H 	H 	0.7177	0.2774	0.098	0.121
Mof_C 	C 	0.713	0.36	0.2424	0.003
Mof_H 	H 	0.6959	0.3686	0.2912	0.023
Mof_C 	C 	0.7528	0.3918	0.2147	0.029
Mof_H 	H 	0.7613	0.4219	0.2455	0.006
Mof_C 	C 	0.1777	0.9504	0.4655	-0.002
Mof_C 	C 	0.1438	0.956	0.4042	-0.038
Mof_H 	H 	0.1488	0.9832	0.3662	-0.015
Mof_C 	C 	0.1029	0.9231	0.3968	0.035
Mof_H 	H 	0.0791	0.927	0.3536	-0.003
Mof_N 	N 	0.0959	0.8844	0.4506	-0.292
Mof_C 	C 	0.1297	0.8788	0.512	0.17
Mof_H 	H 	0.1248	0.8516	0.5499	-0.209
Mof_C 	C 	0.1706	0.9117	0.5194	-0.041
Mof_H 	H 	0.1945	0.9077	0.5626	-0.121
Mof_H 	H 	0.4644	0.2637	0.5551	0.028
Mof_H 	H 	0.4901	0.2581	0.4682	0.04
Mof_H 	H 	0.4292	0.2713	0.4767	0.041
Mof_Co	Co	0.56729	0.83953	0.40036	1.182
Mof_Co	Co	0.50307	0.93664	0.31171	1.162
Mof_O 	O 	0.5031	0.80588	0.34462	-0.429
Mof_O 	O 	0.45391	0.8737	0.30232	-0.428
Mof_O 	O 	0.51951	0.91036	0.43299	-0.552
Mof_O 	O 	0.56935	0.88724	0.29717	-0.571
Mof_O 	O 	0.49697	0.94916	0.18598	-0.568
Mof_O 	O 	0.63343	0.88161	0.43279	-0.431
Mof_N 	N 	0.22045	0.61636	0.14974	-0.216
Mof_C 	C 	0.34503	0.71801	0.228	0.052
Mof_C 	C 	0.3877	0.8022	0.223	0.051
Mof_H 	H 	0.395	0.8319	0.1929	0.025
Mof_C 	C 	0.42295	0.78759	0.281	-0.13
Mof_C 	C 	0.381	0.70329	0.2847	-0.12
Mof_H 	H 	0.3792	0.6691	0.3069	0.063
Mof_C 	C 	0.30202	0.68267	0.2017	-0.01
Mof_C 	C 	0.71611	0.95293	0.5719	-0.004
Mof_H 	H 	0.7022	0.9409	0.6213	0.037
Mof_C 	C 	0.4202	0.73753	0.3105	0.045
Mof_H 	H 	0.4445	0.7263	0.3482	0.02
Mof_C 	C 	0.46366	0.82538	0.31178	0.379
Mof_C 	C 	0.49365	0.90418	0.1351	-0.008
Mof_H 	H 	0.5246	0.8833	0.1412	0.03
Mof_H 	H 	0.4636	0.8838	0.1496	0.03
Mof_H 	H 	0.4905	0.9152	0.0804	0.022
Mof_C 	C 	0.75735	0.9891	0.5716	-0.052
Mof_H 	H 	0.7669	0.0012	0.6344	0.036
Mof_C 	C 	0.2202	0.6678	0.1384	0.273
Mof_H 	H 	0.1908	0.6825	0.1119	-0.058
Mof_C 	C 	0.26	0.7018	0.1626	0.229
Mof_H 	H 	0.2574	0.7382	0.1516	-0.047
Mof_C 	C 	0.3043	0.6274	0.2176	-0.092
Mof_H 	H 	0.3334	0.6122	0.2442	0.046
Mof_C 	C 	0.2616	0.5966	0.1921	-0.005
Mof_H 	H 	0.2615	0.5604	0.205	0.026
Mof_C 	C 	0.3495	0.7683	0.1969	-0.12
Mof_H 	H 	0.3257	0.7795	0.1567	0.067
Mof_C 	C 	0.8241	0.0411	0.5124	0.022
Mof_C 	C 	0.8625	0.0328	0.5742	-0.057
Mof_H 	H 	0.8578	0.0054	0.6121	0.066
Mof_C 	C 	0.9079	0.0659	0.5787	0.003
Mof_H 	H 	0.9332	0.0605	0.6195	0.022
Mof_N 	N 	0.915	0.1073	0.5214	0.077
Mof_C 	C 	0.8766	0.1156	0.4596	-0.016
Mof_H 	H 	0.8813	0.1429	0.4217	0.277
Mof_C 	C 	0.8312	0.0825	0.4551	0.002
Mof_H 	H 	0.8059	0.0879	0.4143	0.16
Mof_C 	C 	0.2353	0.6592	0.1053	-0.241
Mof_H 	H 	0.218	0.6657	0.056	0.085
Mof_C 	C 	0.2741	0.6927	0.1294	-0.317
Mof_H 	H 	0.2823	0.7226	0.098	0.121
Mof_C 	C 	0.287	0.64	0.2424	0.003
Mof_H 	H 	0.3041	0.6314	0.2912	0.023
Mof_C 	C 	0.2472	0.6082	0.2147	0.029
Mof_H 	H 	0.2387	0.5781	0.2455	0.006
Mof_C 	C 	0.8223	0.0496	0.4655	-0.002
Mof_C 	C 	0.8562	0.044	0.4042	-0.038
Mof_H 	H 	0.8512	0.0168	0.3662	-0.015
Mof_C 	C 	0.8971	0.0769	0.3968	0.035
Mof_H 	H 	0.9209	0.073	0.3536	-0.003
Mof_N 	N 	0.9041	0.1156	0.4506	-0.292
Mof_C 	C 	0.8703	0.1212	0.512	0.17
Mof_H 	H 	0.8752	0.1484	0.5499	-0.209
Mof_C 	C 	0.8294	0.0883	0.5194	-0.041
Mof_H 	H 	0.8055	0.0923	0.5626	-0.121
Mof_H 	H 	0.5356	0.7363	0.5551	0.028
Mof_H 	H 	0.5099	0.7419	0.4682	0.04
Mof_H 	H 	0.5708	0.7287	0.4767	0.041
Mof_Co	Co	0.16047	0.56729	0.90036	1.182
Mof_Co	Co	0.06336	0.50307	0.81171	1.162
Mof_O 	O 	0.19412	0.5031	0.84462	-0.429
Mof_O 	O 	0.1263	0.45391	0.80232	-0.428
Mof_O 	O 	0.08964	0.51951	0.93299	-0.551
Mof_O 	O 	0.11276	0.56935	0.79717	-0.571
Mof_O 	O 	0.05084	0.49697	0.68598	-0.568
Mof_O 	O 	0.11839	0.63343	0.93279	-0.43
Mof_N 	N 	0.38364	0.22045	0.64974	-0.216
Mof_C 	C 	0.28199	0.34503	0.728	0.052
Mof_C 	C 	0.1978	0.3877	0.723	0.051
Mof_H 	H 	0.1681	0.395	0.6929	0.025
Mof_C 	C 	0.21241	0.42295	0.781	-0.13
Mof_C 	C 	0.29671	0.381	0.7847	-0.12
Mof_H 	H 	0.3309	0.3792	0.8069	0.063
Mof_C 	C 	0.31733	0.30202	0.7017	-0.01
Mof_C 	C 	0.04707	0.71611	0.0719	-0.004
Mof_H 	H 	0.0591	0.7022	0.1213	0.037
Mof_C 	C 	0.26247	0.4202	0.8105	0.046
Mof_H 	H 	0.2737	0.4445	0.8482	0.02
Mof_C 	C 	0.17462	0.46366	0.81178	0.38
Mof_C 	C 	0.09582	0.49365	0.6351	-0.008
Mof_H 	H 	0.1167	0.5246	0.6412	0.03
Mof_H 	H 	0.1162	0.4636	0.6496	0.03
Mof_H 	H 	0.0848	0.4905	0.5804	0.023
Mof_C 	C 	0.0109	0.75735	0.0716	-0.051
Mof_H 	H 	0.9988	0.7669	0.1344	0.036
Mof_C 	C 	0.3322	0.2202	0.6384	0.271
Mof_H 	H 	0.3175	0.1908	0.6119	-0.057
Mof_C 	C 	0.2982	0.26	0.6626	0.226
Mof_H 	H 	0.2618	0.2574	0.6516	-0.046
Mof_C 	C 	0.3726	0.3043	0.7176	-0.092
Mof_H 	H 	0.3878	0.3334	0.7442	0.046
Mof_C 	C 	0.4034	0.2616	0.6921	-0.004
Mof_H 	H 	0.4396	0.2615	0.705	0.026
Mof_C 	C 	0.2317	0.3495	0.6969	-0.12
Mof_H 	H 	0.2205	0.3257	0.6567	0.067
Mof_C 	C 	0.9589	0.8241	0.0124	0.024
Mof_C 	C 	0.9672	0.8625	0.0742	-0.057
Mof_H 	H 	0.9946	0.8578	0.1121	0.066
Mof_C 	C 	0.9341	0.9079	0.0787	0.001
Mof_H 	H 	0.9395	0.9332	0.1195	0.022
Mof_N 	N 	0.8927	0.915	0.0214	0.075
Mof_C 	C 	0.8844	0.8766	0.9596	-0.02
Mof_H 	H 	0.8571	0.8813	0.9217	0.275
Mof_C 	C 	0.9175	0.8312	0.9551	0.004
Mof_H 	H 	0.9121	0.8059	0.9143	0.158
Mof_C 	C 	0.3408	0.2353	0.6053	-0.239
Mof_H 	H 	0.3343	0.218	0.556	0.085
Mof_C 	C 	0.3073	0.2741	0.6294	-0.315
Mof_H 	H 	0.2774	0.2823	0.598	0.12
Mof_C 	C 	0.36	0.287	0.7424	0.002
Mof_H 	H 	0.3686	0.3041	0.7912	0.024
Mof_C 	C 	0.3918	0.2472	0.7147	0.029
Mof_H 	H 	0.4219	0.2387	0.7455	0.006
Mof_C 	C 	0.9504	0.8223	0.9655	0
Mof_C 	C 	0.956	0.8562	0.9042	-0.039
Mof_H 	H 	0.9832	0.8512	0.8662	-0.015
Mof_C 	C 	0.9231	0.8971	0.8968	0.035
Mof_H 	H 	0.927	0.9209	0.8536	-0.003
Mof_N 	N 	0.8844	0.9041	0.9506	-0.291
Mof_C 	C 	0.8788	0.8703	0.012	0.174
Mof_H 	H 	0.8516	0.8752	0.0499	-0.214
Mof_C 	C 	0.9117	0.8294	0.0194	-0.041
Mof_H 	H 	0.9077	0.8055	0.0626	-0.124
Mof_H 	H 	0.2637	0.5356	0.0551	0.031
Mof_H 	H 	0.2581	0.5099	0.9682	0.043
Mof_H 	H 	0.2713	0.5708	0.9767	0.045
Mof_Co	Co	0.83953	0.43271	0.90036	1.182
Mof_Co	Co	0.93664	0.49693	0.81171	1.162
Mof_O 	O 	0.80588	0.4969	0.84462	-0.429
Mof_O 	O 	0.8737	0.54609	0.80232	-0.428
Mof_O 	O 	0.91036	0.48049	0.93299	-0.551
Mof_O 	O 	0.88724	0.43065	0.79717	-0.571
Mof_O 	O 	0.94916	0.50303	0.68598	-0.568
Mof_O 	O 	0.88161	0.36657	0.93279	-0.43
Mof_N 	N 	0.61636	0.77955	0.64974	-0.216
Mof_C 	C 	0.71801	0.65497	0.728	0.052
Mof_C 	C 	0.8022	0.6123	0.723	0.051
Mof_H 	H 	0.8319	0.605	0.6929	0.025
Mof_C 	C 	0.78759	0.57705	0.781	-0.13
Mof_C 	C 	0.70329	0.619	0.7847	-0.12
Mof_H 	H 	0.6691	0.6208	0.8069	0.063
Mof_C 	C 	0.68267	0.69798	0.7017	-0.01
Mof_C 	C 	0.95293	0.28389	0.0719	-0.004
Mof_H 	H 	0.9409	0.2978	0.1213	0.037
Mof_C 	C 	0.73753	0.5798	0.8105	0.046
Mof_H 	H 	0.7263	0.5555	0.8482	0.02
Mof_C 	C 	0.82538	0.53634	0.81178	0.38
Mof_C 	C 	0.90418	0.50635	0.6351	-0.008
Mof_H 	H 	0.8833	0.4754	0.6412	0.03
Mof_H 	H 	0.8838	0.5364	0.6496	0.03
Mof_H 	H 	0.9152	0.5095	0.5804	0.023
Mof_C 	C 	0.9891	0.24265	0.0716	-0.051
Mof_H 	H 	0.0012	0.2331	0.1344	0.036
Mof_C 	C 	0.6678	0.7798	0.6384	0.271
Mof_H 	H 	0.6825	0.8092	0.6119	-0.057
Mof_C 	C 	0.7018	0.74	0.6626	0.226
Mof_H 	H 	0.7382	0.7426	0.6516	-0.046
Mof_C 	C 	0.6274	0.6957	0.7176	-0.092
Mof_H 	H 	0.6122	0.6666	0.7442	0.046
Mof_C 	C 	0.5966	0.7384	0.6921	-0.004
Mof_H 	H 	0.5604	0.7385	0.705	0.026
Mof_C 	C 	0.7683	0.6505	0.6969	-0.12
Mof_H 	H 	0.7795	0.6743	0.6567	0.067
Mof_C 	C 	0.0411	0.1759	0.0124	0.024
Mof_C 	C 	0.0328	0.1375	0.0742	-0.057
Mof_H 	H 	0.0054	0.1422	0.1121	0.066
Mof_C 	C 	0.0659	0.0921	0.0787	0.001
Mof_H 	H 	0.0605	0.0668	0.1195	0.022
Mof_N 	N 	0.1073	0.085	0.0214	0.075
Mof_C 	C 	0.1156	0.1234	0.9596	-0.02
Mof_H 	H 	0.1429	0.1187	0.9217	0.275
Mof_C 	C 	0.0825	0.1688	0.9551	0.004
Mof_H 	H 	0.0879	0.1941	0.9143	0.158
Mof_C 	C 	0.6592	0.7647	0.6053	-0.239
Mof_H 	H 	0.6657	0.782	0.556	0.085
Mof_C 	C 	0.6927	0.7259	0.6294	-0.315
Mof_H 	H 	0.7226	0.7177	0.598	0.12
Mof_C 	C 	0.64	0.713	0.7424	0.002
Mof_H 	H 	0.6314	0.6959	0.7912	0.024
Mof_C 	C 	0.6082	0.7528	0.7147	0.029
Mof_H 	H 	0.5781	0.7613	0.7455	0.006
Mof_C 	C 	0.0496	0.1777	0.9655	0
Mof_C 	C 	0.044	0.1438	0.9042	-0.039
Mof_H 	H 	0.0168	0.1488	0.8662	-0.015
Mof_C 	C 	0.0769	0.1029	0.8968	0.035
Mof_H 	H 	0.073	0.0791	0.8536	-0.003
Mof_N 	N 	0.1156	0.0959	0.9506	-0.291
Mof_C 	C 	0.1212	0.1297	0.012	0.174
Mof_H 	H 	0.1484	0.1248	0.0499	-0.214
Mof_C 	C 	0.0883	0.1706	0.0194	-0.041
Mof_H 	H 	0.0923	0.1945	0.0626	-0.124
Mof_H 	H 	0.7363	0.4644	0.0551	0.031
Mof_H 	H 	0.7419	0.4901	0.9682	0.043
Mof_H 	H 	0.7287	0.4292	0.9767	0.045
Mof_Co	Co	0.93271	0.33953	0.40036	1.182
Mof_Co	Co	0.99693	0.43664	0.31171	1.162
Mof_O 	O 	0.9969	0.30588	0.34462	-0.429
Mof_O 	O 	0.04609	0.3737	0.30232	-0.428
Mof_O 	O 	0.98049	0.41036	0.43299	-0.552
Mof_O 	O 	0.93065	0.38724	0.29717	-0.571
Mof_O 	O 	0.00303	0.44916	0.18598	-0.568
Mof_O 	O 	0.86657	0.38161	0.43279	-0.431
Mof_N 	N 	0.27955	0.11636	0.14974	-0.216
Mof_C 	C 	0.15497	0.21801	0.228	0.052
Mof_C 	C 	0.1123	0.3022	0.223	0.051
Mof_H 	H 	0.105	0.3319	0.1929	0.025
Mof_C 	C 	0.07705	0.28759	0.281	-0.13
Mof_C 	C 	0.119	0.20329	0.2847	-0.12
Mof_H 	H 	0.1208	0.1691	0.3069	0.063
Mof_C 	C 	0.19798	0.18267	0.2017	-0.01
Mof_C 	C 	0.78389	0.45293	0.5719	-0.004
Mof_H 	H 	0.7978	0.4409	0.6213	0.037
Mof_C 	C 	0.0798	0.23753	0.3105	0.045
Mof_H 	H 	0.0555	0.2263	0.3482	0.021
Mof_C 	C 	0.03634	0.32538	0.31178	0.379
Mof_C 	C 	0.00635	0.40418	0.1351	-0.008
Mof_H 	H 	0.9754	0.3833	0.1412	0.03
Mof_H 	H 	0.0364	0.3838	0.1496	0.03
Mof_H 	H 	0.0095	0.4152	0.0804	0.022
Mof_C 	C 	0.74265	0.4891	0.5716	-0.052
Mof_H 	H 	0.7331	0.5012	0.6344	0.036
Mof_C 	C 	0.2798	0.1678	0.1384	0.273
Mof_H 	H 	0.3092	0.1825	0.1119	-0.058
Mof_C 	C 	0.24	0.2018	0.1626	0.229
Mof_H 	H 	0.2426	0.2382	0.1516	-0.047
Mof_C 	C 	0.1957	0.1274	0.2176	-0.092
Mof_H 	H 	0.1666	0.1122	0.2442	0.046
Mof_C 	C 	0.2384	0.0966	0.1921	-0.005
Mof_H 	H 	0.2385	0.0604	0.205	0.026
Mof_C 	C 	0.1505	0.2683	0.1969	-0.12
Mof_H 	H 	0.1743	0.2795	0.1567	0.067
Mof_C 	C 	0.6759	0.5411	0.5124	0.022
Mof_C 	C 	0.6375	0.5328	0.5742	-0.057
Mof_H 	H 	0.6422	0.5054	0.6121	0.066
Mof_C 	C 	0.5921	0.5659	0.5787	0.003
Mof_H 	H 	0.5668	0.5605	0.6195	0.022
Mof_N 	N 	0.585	0.6073	0.5214	0.077
Mof_C 	C 	0.6234	0.6156	0.4596	-0.016
Mof_H 	H 	0.6187	0.6429	0.4217	0.277
Mof_C 	C 	0.6688	0.5825	0.4551	0.002
Mof_H 	H 	0.6941	0.5879	0.4143	0.16
Mof_C 	C 	0.2647	0.1592	0.1053	-0.241
Mof_H 	H 	0.282	0.1657	0.056	0.085
Mof_C 	C 	0.2259	0.1927	0.1294	-0.317
Mof_H 	H 	0.2177	0.2226	0.098	0.121
Mof_C 	C 	0.213	0.14	0.2424	0.003
Mof_H 	H 	0.1959	0.1314	0.2912	0.023
Mof_C 	C 	0.2528	0.1082	0.2147	0.029
Mof_H 	H 	0.2613	0.0781	0.2455	0.006
Mof_C 	C 	0.6777	0.5496	0.4655	-0.002
Mof_C 	C 	0.6438	0.544	0.4042	-0.038
Mof_H 	H 	0.6488	0.5168	0.3662	-0.015
Mof_C 	C 	0.6029	0.5769	0.3968	0.035
Mof_H 	H 	0.5791	0.573	0.3536	-0.003
Mof_N 	N 	0.5959	0.6156	0.4506	-0.292
Mof_C 	C 	0.6297	0.6212	0.512	0.17
Mof_H 	H 	0.6248	0.6484	0.5499	-0.209
Mof_C 	C 	0.6706	0.5883	0.5194	-0.041
Mof_H 	H 	0.6945	0.5923	0.5626	-0.121
Mof_H 	H 	0.9644	0.2363	0.5551	0.028
Mof_H 	H 	0.9901	0.2419	0.4682	0.04
Mof_H 	H 	0.9292	0.2287	0.4767	0.041
Mof_Co	Co	0.06729	0.66047	0.40036	1.182
Mof_Co	Co	0.00307	0.56336	0.31171	1.162
Mof_O 	O 	0.0031	0.69412	0.34462	-0.429
Mof_O 	O 	0.95391	0.6263	0.30232	-0.428
Mof_O 	O 	0.01951	0.58964	0.43299	-0.552
Mof_O 	O 	0.06935	0.61276	0.29717	-0.571
Mof_O 	O 	0.99697	0.55084	0.18598	-0.568
Mof_O 	O 	0.13343	0.61839	0.43279	-0.431
Mof_N 	N 	0.72045	0.88364	0.14974	-0.216
Mof_C 	C 	0.84503	0.78199	0.228	0.052
Mof_C 	C 	0.8877	0.6978	0.223	0.051
Mof_H 	H 	0.895	0.6681	0.1929	0.025
Mof_C 	C 	0.92295	0.71241	0.281	-0.13
Mof_C 	C 	0.881	0.79671	0.2847	-0.12
Mof_H 	H 	0.8792	0.8309	0.3069	0.063
Mof_C 	C 	0.80202	0.81733	0.2017	-0.01
Mof_C 	C 	0.21611	0.54707	0.5719	-0.004
Mof_H 	H 	0.2022	0.5591	0.6213	0.037
Mof_C 	C 	0.9202	0.76247	0.3105	0.045
Mof_H 	H 	0.9445	0.7737	0.3482	0.021
Mof_C 	C 	0.96366	0.67462	0.31178	0.379
Mof_C 	C 	0.99365	0.59582	0.1351	-0.008
Mof_H 	H 	0.0246	0.6167	0.1412	0.03
Mof_H 	H 	0.9636	0.6162	0.1496	0.03
Mof_H 	H 	0.9905	0.5848	0.0804	0.022
Mof_C 	C 	0.25735	0.5109	0.5716	-0.052
Mof_H 	H 	0.2669	0.4988	0.6344	0.036
Mof_C 	C 	0.7202	0.8322	0.1384	0.273
Mof_H 	H 	0.6908	0.8175	0.1119	-0.058
Mof_C 	C 	0.76	0.7982	0.1626	0.229
Mof_H 	H 	0.7574	0.7618	0.1516	-0.047
Mof_C 	C 	0.8043	0.8726	0.2176	-0.092
Mof_H 	H 	0.8334	0.8878	0.2442	0.046
Mof_C 	C 	0.7616	0.9034	0.1921	-0.005
Mof_H 	H 	0.7615	0.9396	0.205	0.026
Mof_C 	C 	0.8495	0.7317	0.1969	-0.12
Mof_H 	H 	0.8257	0.7205	0.1567	0.067
Mof_C 	C 	0.3241	0.4589	0.5124	0.022
Mof_C 	C 	0.3625	0.4672	0.5742	-0.057
Mof_H 	H 	0.3578	0.4946	0.6121	0.066
Mof_C 	C 	0.4079	0.4341	0.5787	0.003
Mof_H 	H 	0.4332	0.4395	0.6195	0.022
Mof_N 	N 	0.415	0.3927	0.5214	0.077
Mof_C 	C 	0.3766	0.3844	0.4596	-0.016
Mof_H 	H 	0.3813	0.3571	0.4217	0.277
Mof_C 	C 	0.3312	0.4175	0.4551	0.002
Mof_H 	H 	0.3059	0.4121	0.4143	0.16
Mof_C 	C 	0.7353	0.8408	0.1053	-0.241
Mof_H 	H 	0.718	0.8343	0.056	0.085
Mof_C 	C 	0.7741	0.8073	0.1294	-0.317
Mof_H 	H 	0.7823	0.7774	0.098	0.121
Mof_C 	C 	0.787	0.86	0.2424	0.003
Mof_H 	H 	0.8041	0.8686	0.2912	0.023
Mof_C 	C 	0.7472	0.8918	0.2147	0.029
Mof_H 	H 	0.7387	0.9219	0.2455	0.006
Mof_C 	C 	0.3223	0.4504	0.4655	-0.002
Mof_C 	C 	0.3562	0.456	0.4042	-0.038
Mof_H 	H 	0.3512	0.4832	0.3662	-0.015
Mof_C 	C 	0.3971	0.4231	0.3968	0.035
Mof_H 	H 	0.4209	0.427	0.3536	-0.003
Mof_N 	N 	0.4041	0.3844	0.4506	-0.292
Mof_C 	C 	0.3703	0.3788	0.512	0.17
Mof_H 	H 	0.3752	0.3516	0.5499	-0.209
Mof_C 	C 	0.3294	0.4117	0.5194	-0.041
Mof_H 	H 	0.3055	0.4077	0.5626	-0.121
Mof_H 	H 	0.0356	0.7637	0.5551	0.028
Mof_H 	H 	0.0099	0.7581	0.4682	0.04
Mof_H 	H 	0.0708	0.7713	0.4767	0.041
Mof_Co	Co	0.66047	0.93271	0.90036	1.182
Mof_Co	Co	0.56336	0.99693	0.81171	1.162
Mof_O 	O 	0.69412	0.9969	0.84462	-0.429
Mof_O 	O 	0.6263	0.04609	0.80232	-0.428
Mof_O 	O 	0.58964	0.98049	0.93299	-0.551
Mof_O 	O 	0.61276	0.93065	0.79717	-0.571
Mof_O 	O 	0.55084	0.00303	0.68598	-0.568
Mof_O 	O 	0.61839	0.86657	0.93279	-0.43
Mof_N 	N 	0.88364	0.27955	0.64974	-0.216
Mof_C 	C 	0.78199	0.15497	0.728	0.052
Mof_C 	C 	0.6978	0.1123	0.723	0.051
Mof_H 	H 	0.6681	0.105	0.6929	0.025
Mof_C 	C 	0.71241	0.07705	0.781	-0.13
Mof_C 	C 	0.79671	0.119	0.7847	-0.12
Mof_H 	H 	0.8309	0.1208	0.8069	0.063
Mof_C 	C 	0.81733	0.19798	0.7017	-0.01
Mof_C 	C 	0.54707	0.78389	0.0719	-0.004
Mof_H 	H 	0.5591	0.7978	0.1213	0.037
Mof_C 	C 	0.76247	0.0798	0.8105	0.046
Mof_H 	H 	0.7737	0.0555	0.8482	0.02
Mof_C 	C 	0.67462	0.03634	0.81178	0.38
Mof_C 	C 	0.59582	0.00635	0.6351	-0.008
Mof_H 	H 	0.6167	0.9754	0.6412	0.03
Mof_H 	H 	0.6162	0.0364	0.6496	0.03
Mof_H 	H 	0.5848	0.0095	0.5804	0.023
Mof_C 	C 	0.5109	0.74265	0.0716	-0.051
Mof_H 	H 	0.4988	0.7331	0.1344	0.036
Mof_C 	C 	0.8322	0.2798	0.6384	0.271
Mof_H 	H 	0.8175	0.3092	0.6119	-0.057
Mof_C 	C 	0.7982	0.24	0.6626	0.226
Mof_H 	H 	0.7618	0.2426	0.6516	-0.046
Mof_C 	C 	0.8726	0.1957	0.7176	-0.092
Mof_H 	H 	0.8878	0.1666	0.7442	0.046
Mof_C 	C 	0.9034	0.2384	0.6921	-0.004
Mof_H 	H 	0.9396	0.2385	0.705	0.026
Mof_C 	C 	0.7317	0.1505	0.6969	-0.12
Mof_H 	H 	0.7205	0.1743	0.6567	0.067
Mof_C 	C 	0.4589	0.6759	0.0124	0.024
Mof_C 	C 	0.4672	0.6375	0.0742	-0.057
Mof_H 	H 	0.4946	0.6422	0.1121	0.066
Mof_C 	C 	0.4341	0.5921	0.0787	0.001
Mof_H 	H 	0.4395	0.5668	0.1195	0.022
Mof_N 	N 	0.3927	0.585	0.0214	0.075
Mof_C 	C 	0.3844	0.6234	0.9596	-0.02
Mof_H 	H 	0.3571	0.6187	0.9217	0.275
Mof_C 	C 	0.4175	0.6688	0.9551	0.005
Mof_H 	H 	0.4121	0.6941	0.9143	0.158
Mof_C 	C 	0.8408	0.2647	0.6053	-0.239
Mof_H 	H 	0.8343	0.282	0.556	0.085
Mof_C 	C 	0.8073	0.2259	0.6294	-0.315
Mof_H 	H 	0.7774	0.2177	0.598	0.12
Mof_C 	C 	0.86	0.213	0.7424	0.002
Mof_H 	H 	0.8686	0.1959	0.7912	0.024
Mof_C 	C 	0.8918	0.2528	0.7147	0.029
Mof_H 	H 	0.9219	0.2613	0.7455	0.006
Mof_C 	C 	0.4504	0.6777	0.9655	0.001
Mof_C 	C 	0.456	0.6438	0.9042	-0.039
Mof_H 	H 	0.4832	0.6488	0.8662	-0.015
Mof_C 	C 	0.4231	0.6029	0.8968	0.035
Mof_H 	H 	0.427	0.5791	0.8536	-0.003
Mof_N 	N 	0.3844	0.5959	0.9506	-0.291
Mof_C 	C 	0.3788	0.6297	0.012	0.174
Mof_H 	H 	0.3516	0.6248	0.0499	-0.214
Mof_C 	C 	0.4117	0.6706	0.0194	-0.041
Mof_H 	H 	0.4077	0.6945	0.0626	-0.124
Mof_H 	H 	0.7637	0.9644	0.0551	0.031
Mof_H 	H 	0.7581	0.9901	0.9682	0.043
Mof_H 	H 	0.7713	0.9292	0.9767	0.045
Mof_Co	Co	0.33953	0.06729	0.90036	1.182
Mof_Co	Co	0.43664	0.00307	0.81171	1.162
Mof_O 	O 	0.30588	0.0031	0.84462	-0.429
Mof_O 	O 	0.3737	0.95391	0.80232	-0.428
Mof_O 	O 	0.41036	0.01951	0.93299	-0.551
Mof_O 	O 	0.38724	0.06935	0.79717	-0.571
Mof_O 	O 	0.44916	0.99697	0.68598	-0.568
Mof_O 	O 	0.38161	0.13343	0.93279	-0.43
Mof_N 	N 	0.11636	0.72045	0.64974	-0.216
Mof_C 	C 	0.21801	0.84503	0.728	0.052
Mof_C 	C 	0.3022	0.8877	0.723	0.051
Mof_H 	H 	0.3319	0.895	0.6929	0.025
Mof_C 	C 	0.28759	0.92295	0.781	-0.13
Mof_C 	C 	0.20329	0.881	0.7847	-0.12
Mof_H 	H 	0.1691	0.8792	0.8069	0.063
Mof_C 	C 	0.18267	0.80202	0.7017	-0.01
Mof_C 	C 	0.45293	0.21611	0.0719	-0.004
Mof_H 	H 	0.4409	0.2022	0.1213	0.037
Mof_C 	C 	0.23753	0.9202	0.8105	0.046
Mof_H 	H 	0.2263	0.9445	0.8482	0.02
Mof_C 	C 	0.32538	0.96366	0.81178	0.38
Mof_C 	C 	0.40418	0.99365	0.6351	-0.008
Mof_H 	H 	0.3833	0.0246	0.6412	0.03
Mof_H 	H 	0.3838	0.9636	0.6496	0.03
Mof_H 	H 	0.4152	0.9905	0.5804	0.023
Mof_C 	C 	0.4891	0.25735	0.0716	-0.051
Mof_H 	H 	0.5012	0.2669	0.1344	0.036
Mof_C 	C 	0.1678	0.7202	0.6384	0.271
Mof_H 	H 	0.1825	0.6908	0.6119	-0.057
Mof_C 	C 	0.2018	0.76	0.6626	0.226
Mof_H 	H 	0.2382	0.7574	0.6516	-0.046
Mof_C 	C 	0.1274	0.8043	0.7176	-0.092
Mof_H 	H 	0.1122	0.8334	0.7442	0.046
Mof_C 	C 	0.0966	0.7616	0.6921	-0.004
Mof_H 	H 	0.0604	0.7615	0.705	0.026
Mof_C 	C 	0.2683	0.8495	0.6969	-0.12
Mof_H 	H 	0.2795	0.8257	0.6567	0.067
Mof_C 	C 	0.5411	0.3241	0.0124	0.024
Mof_C 	C 	0.5328	0.3625	0.0742	-0.057
Mof_H 	H 	0.5054	0.3578	0.1121	0.066
Mof_C 	C 	0.5659	0.4079	0.0787	0.001
Mof_H 	H 	0.5605	0.4332	0.1195	0.022
Mof_N 	N 	0.6073	0.415	0.0214	0.075
Mof_C 	C 	0.6156	0.3766	0.9596	-0.02
Mof_H 	H 	0.6429	0.3813	0.9217	0.275
Mof_C 	C 	0.5825	0.3312	0.9551	0.005
Mof_H 	H 	0.5879	0.3059	0.9143	0.158
Mof_C 	C 	0.1592	0.7353	0.6053	-0.239
Mof_H 	H 	0.1657	0.718	0.556	0.085
Mof_C 	C 	0.1927	0.7741	0.6294	-0.315
Mof_H 	H 	0.2226	0.7823	0.598	0.12
Mof_C 	C 	0.14	0.787	0.7424	0.002
Mof_H 	H 	0.1314	0.8041	0.7912	0.024
Mof_C 	C 	0.1082	0.7472	0.7147	0.029
Mof_H 	H 	0.0781	0.7387	0.7455	0.006
Mof_C 	C 	0.5496	0.3223	0.9655	0.001
Mof_C 	C 	0.544	0.3562	0.9042	-0.039
Mof_H 	H 	0.5168	0.3512	0.8662	-0.015
Mof_C 	C 	0.5769	0.3971	0.8968	0.035
Mof_H 	H 	0.573	0.4209	0.8536	-0.003
Mof_N 	N 	0.6156	0.4041	0.9506	-0.291
Mof_C 	C 	0.6212	0.3703	0.012	0.174
Mof_H 	H 	0.6484	0.3752	0.0499	-0.214
Mof_C 	C 	0.5883	0.3294	0.0194	-0.041
Mof_H 	H 	0.5923	0.3055	0.0626	-0.124
Mof_H 	H 	0.2363	0.0356	0.0551	0.031
Mof_H 	H 	0.2419	0.0099	0.9682	0.043
Mof_H 	H 	0.2287	0.0708	0.9767	0.045
Mof_Co	Co	0.56729	0.83953	0.59964	1.182
Mof_Co	Co	0.50307	0.93664	0.68829	1.162
Mof_O 	O 	0.5031	0.80588	0.65538	-0.429
Mof_O 	O 	0.45391	0.8737	0.69768	-0.428
Mof_O 	O 	0.51951	0.91036	0.56701	-0.552
Mof_O 	O 	0.56935	0.88724	0.70283	-0.571
Mof_O 	O 	0.49697	0.94916	0.81402	-0.568
Mof_O 	O 	0.63343	0.88161	0.56721	-0.431
Mof_N 	N 	0.22045	0.61636	0.85026	-0.216
Mof_C 	C 	0.34503	0.71801	0.772	0.052
Mof_C 	C 	0.3877	0.8022	0.777	0.051
Mof_H 	H 	0.395	0.8319	0.8071	0.025
Mof_C 	C 	0.42295	0.78759	0.719	-0.13
Mof_C 	C 	0.381	0.70329	0.7153	-0.12
Mof_H 	H 	0.3792	0.6691	0.6931	0.063
Mof_C 	C 	0.30202	0.68267	0.7983	-0.01
Mof_C 	C 	0.71611	0.95293	0.4281	-0.004
Mof_H 	H 	0.7022	0.9409	0.3787	0.037
Mof_C 	C 	0.4202	0.73753	0.6895	0.045
Mof_H 	H 	0.4445	0.7263	0.6518	0.021
Mof_C 	C 	0.46366	0.82538	0.68822	0.379
Mof_C 	C 	0.49365	0.90418	0.8649	-0.009
Mof_H 	H 	0.5246	0.8833	0.8588	0.03
Mof_H 	H 	0.4636	0.8838	0.8504	0.031
Mof_H 	H 	0.4905	0.9152	0.9196	0.023
Mof_C 	C 	0.75735	0.9891	0.4284	-0.052
Mof_H 	H 	0.7669	0.0012	0.3656	0.036
Mof_C 	C 	0.2202	0.6678	0.8616	0.271
Mof_H 	H 	0.1908	0.6825	0.8881	-0.057
Mof_C 	C 	0.26	0.7018	0.8374	0.227
Mof_H 	H 	0.2574	0.7382	0.8484	-0.046
Mof_C 	C 	0.3043	0.6274	0.7824	-0.092
Mof_H 	H 	0.3334	0.6122	0.7558	0.046
Mof_C 	C 	0.2616	0.5966	0.8079	-0.004
Mof_H 	H 	0.2615	0.5604	0.795	0.026
Mof_C 	C 	0.3495	0.7683	0.8031	-0.12
Mof_H 	H 	0.3257	0.7795	0.8433	0.067
Mof_C 	C 	0.8241	0.0411	0.4876	0.022
Mof_C 	C 	0.8625	0.0328	0.4258	-0.057
Mof_H 	H 	0.8578	0.0054	0.3879	0.066
Mof_C 	C 	0.9079	0.0659	0.4213	0.002
Mof_H 	H 	0.9332	0.0605	0.3805	0.022
Mof_N 	N 	0.915	0.1073	0.4786	0.077
Mof_C 	C 	0.8766	0.1156	0.5404	-0.016
Mof_H 	H 	0.8813	0.1429	0.5783	0.277
Mof_C 	C 	0.8312	0.0825	0.5449	0.002
Mof_H 	H 	0.8059	0.0879	0.5857	0.16
Mof_C 	C 	0.2353	0.6592	0.8947	-0.239
Mof_H 	H 	0.218	0.6657	0.944	0.086
Mof_C 	C 	0.2741	0.6927	0.8706	-0.315
Mof_H 	H 	0.2823	0.7226	0.902	0.121
Mof_C 	C 	0.287	0.64	0.7576	0.002
Mof_H 	H 	0.3041	0.6314	0.7088	0.023
Mof_C 	C 	0.2472	0.6082	0.7853	0.029
Mof_H 	H 	0.2387	0.5781	0.7545	0.006
Mof_C 	C 	0.8223	0.0496	0.5345	-0.002
Mof_C 	C 	0.8562	0.044	0.5958	-0.038
Mof_H 	H 	0.8512	0.0168	0.6338	-0.015
Mof_C 	C 	0.8971	0.0769	0.6032	0.035
Mof_H 	H 	0.9209	0.073	0.6464	-0.003
Mof_N 	N 	0.9041	0.1156	0.5494	-0.292
Mof_C 	C 	0.8703	0.1212	0.488	0.17
Mof_H 	H 	0.8752	0.1484	0.4501	-0.209
Mof_C 	C 	0.8294	0.0883	0.4806	-0.041
Mof_H 	H 	0.8055	0.0923	0.4374	-0.121
Mof_H 	H 	0.5356	0.7363	0.4449	0.028
Mof_H 	H 	0.5099	0.7419	0.5318	0.04
Mof_H 	H 	0.5708	0.7287	0.5233	0.041
Mof_Co	Co	0.43271	0.16047	0.59964	1.182
Mof_Co	Co	0.49693	0.06336	0.68829	1.162
Mof_O 	O 	0.4969	0.19412	0.65538	-0.429
Mof_O 	O 	0.54609	0.1263	0.69768	-0.428
Mof_O 	O 	0.48049	0.08964	0.56701	-0.552
Mof_O 	O 	0.43065	0.11276	0.70283	-0.571
Mof_O 	O 	0.50303	0.05084	0.81402	-0.568
Mof_O 	O 	0.36657	0.11839	0.56721	-0.431
Mof_N 	N 	0.77955	0.38364	0.85026	-0.216
Mof_C 	C 	0.65497	0.28199	0.772	0.052
Mof_C 	C 	0.6123	0.1978	0.777	0.051
Mof_H 	H 	0.605	0.1681	0.8071	0.025
Mof_C 	C 	0.57705	0.21241	0.719	-0.13
Mof_C 	C 	0.619	0.29671	0.7153	-0.12
Mof_H 	H 	0.6208	0.3309	0.6931	0.063
Mof_C 	C 	0.69798	0.31733	0.7983	-0.01
Mof_C 	C 	0.28389	0.04707	0.4281	-0.004
Mof_H 	H 	0.2978	0.0591	0.3787	0.037
Mof_C 	C 	0.5798	0.26247	0.6895	0.045
Mof_H 	H 	0.5555	0.2737	0.6518	0.021
Mof_C 	C 	0.53634	0.17462	0.68822	0.379
Mof_C 	C 	0.50635	0.09582	0.8649	-0.009
Mof_H 	H 	0.4754	0.1167	0.8588	0.03
Mof_H 	H 	0.5364	0.1162	0.8504	0.031
Mof_H 	H 	0.5095	0.0848	0.9196	0.023
Mof_C 	C 	0.24265	0.0109	0.4284	-0.052
Mof_H 	H 	0.2331	0.9988	0.3656	0.036
Mof_C 	C 	0.7798	0.3322	0.8616	0.271
Mof_H 	H 	0.8092	0.3175	0.8881	-0.057
Mof_C 	C 	0.74	0.2982	0.8374	0.227
Mof_H 	H 	0.7426	0.2618	0.8484	-0.046
Mof_C 	C 	0.6957	0.3726	0.7824	-0.092
Mof_H 	H 	0.6666	0.3878	0.7558	0.046
Mof_C 	C 	0.7384	0.4034	0.8079	-0.004
Mof_H 	H 	0.7385	0.4396	0.795	0.026
Mof_C 	C 	0.6505	0.2317	0.8031	-0.12
Mof_H 	H 	0.6743	0.2205	0.8433	0.067
Mof_C 	C 	0.1759	0.9589	0.4876	0.022
Mof_C 	C 	0.1375	0.9672	0.4258	-0.057
Mof_H 	H 	0.1422	0.9946	0.3879	0.066
Mof_C 	C 	0.0921	0.9341	0.4213	0.002
Mof_H 	H 	0.0668	0.9395	0.3805	0.022
Mof_N 	N 	0.085	0.8927	0.4786	0.077
Mof_C 	C 	0.1234	0.8844	0.5404	-0.016
Mof_H 	H 	0.1187	0.8571	0.5783	0.277
Mof_C 	C 	0.1688	0.9175	0.5449	0.002
Mof_H 	H 	0.1941	0.9121	0.5857	0.16
Mof_C 	C 	0.7647	0.3408	0.8947	-0.239
Mof_H 	H 	0.782	0.3343	0.944	0.086
Mof_C 	C 	0.7259	0.3073	0.8706	-0.315
Mof_H 	H 	0.7177	0.2774	0.902	0.121
Mof_C 	C 	0.713	0.36	0.7576	0.002
Mof_H 	H 	0.6959	0.3686	0.7088	0.023
Mof_C 	C 	0.7528	0.3918	0.7853	0.029
Mof_H 	H 	0.7613	0.4219	0.7545	0.006
Mof_C 	C 	0.1777	0.9504	0.5345	-0.002
Mof_C 	C 	0.1438	0.956	0.5958	-0.038
Mof_H 	H 	0.1488	0.9832	0.6338	-0.015
Mof_C 	C 	0.1029	0.9231	0.6032	0.035
Mof_H 	H 	0.0791	0.927	0.6464	-0.003
Mof_N 	N 	0.0959	0.8844	0.5494	-0.292
Mof_C 	C 	0.1297	0.8788	0.488	0.17
Mof_H 	H 	0.1248	0.8516	0.4501	-0.209
Mof_C 	C 	0.1706	0.9117	0.4806	-0.041
Mof_H 	H 	0.1945	0.9077	0.4374	-0.121
Mof_H 	H 	0.4644	0.2637	0.4449	0.028
Mof_H 	H 	0.4901	0.2581	0.5318	0.04
Mof_H 	H 	0.4292	0.2713	0.5233	0.041
Mof_Co	Co	0.83953	0.43271	0.09964	1.182
Mof_Co	Co	0.93664	0.49693	0.18829	1.162
Mof_O 	O 	0.80588	0.4969	0.15538	-0.429
Mof_O 	O 	0.8737	0.54609	0.19768	-0.428
Mof_O 	O 	0.91036	0.48049	0.06701	-0.552
Mof_O 	O 	0.88724	0.43065	0.20283	-0.571
Mof_O 	O 	0.94916	0.50303	0.31402	-0.568
Mof_O 	O 	0.88161	0.36657	0.06721	-0.431
Mof_N 	N 	0.61636	0.77955	0.35026	-0.216
Mof_C 	C 	0.71801	0.65497	0.272	0.052
Mof_C 	C 	0.8022	0.6123	0.277	0.051
Mof_H 	H 	0.8319	0.605	0.3071	0.025
Mof_C 	C 	0.78759	0.57705	0.219	-0.13
Mof_C 	C 	0.70329	0.619	0.2153	-0.12
Mof_H 	H 	0.6691	0.6208	0.1931	0.063
Mof_C 	C 	0.68267	0.69798	0.2983	-0.01
Mof_C 	C 	0.95293	0.28389	0.9281	-0.003
Mof_H 	H 	0.9409	0.2978	0.8787	0.037
Mof_C 	C 	0.73753	0.5798	0.1895	0.045
Mof_H 	H 	0.7263	0.5555	0.1518	0.02
Mof_C 	C 	0.82538	0.53634	0.18822	0.379
Mof_C 	C 	0.90418	0.50635	0.3649	-0.008
Mof_H 	H 	0.8833	0.4754	0.3588	0.03
Mof_H 	H 	0.8838	0.5364	0.3504	0.03
Mof_H 	H 	0.9152	0.5095	0.4196	0.023
Mof_C 	C 	0.9891	0.24265	0.9284	-0.05
Mof_H 	H 	0.0012	0.2331	0.8656	0.036
Mof_C 	C 	0.6678	0.7798	0.3616	0.27
Mof_H 	H 	0.6825	0.8092	0.3881	-0.056
Mof_C 	C 	0.7018	0.74	0.3374	0.225
Mof_H 	H 	0.7382	0.7426	0.3484	-0.046
Mof_C 	C 	0.6274	0.6957	0.2824	-0.091
Mof_H 	H 	0.6122	0.6666	0.2558	0.046
Mof_C 	C 	0.5966	0.7384	0.3079	-0.004
Mof_H 	H 	0.5604	0.7385	0.295	0.026
Mof_C 	C 	0.7683	0.6505	0.3031	-0.12
Mof_H 	H 	0.7795	0.6743	0.3433	0.067
Mof_C 	C 	0.0411	0.1759	0.9876	0.021
Mof_C 	C 	0.0328	0.1375	0.9258	-0.058
Mof_H 	H 	0.0054	0.1422	0.8879	0.067
Mof_C 	C 	0.0659	0.0921	0.9213	0.004
Mof_H 	H 	0.0605	0.0668	0.8805	0.021
Mof_N 	N 	0.1073	0.085	0.9786	0.079
Mof_C 	C 	0.1156	0.1234	0.0404	-0.012
Mof_H 	H 	0.1429	0.1187	0.0783	0.28
Mof_C 	C 	0.0825	0.1688	0.0449	-0
Mof_H 	H 	0.0879	0.1941	0.0857	0.163
Mof_C 	C 	0.6592	0.7647	0.3947	-0.238
Mof_H 	H 	0.6657	0.782	0.444	0.085
Mof_C 	C 	0.6927	0.7259	0.3706	-0.314
Mof_H 	H 	0.7226	0.7177	0.402	0.12
Mof_C 	C 	0.64	0.713	0.2576	0.002
Mof_H 	H 	0.6314	0.6959	0.2088	0.023
Mof_C 	C 	0.6082	0.7528	0.2853	0.028
Mof_H 	H 	0.5781	0.7613	0.2545	0.006
Mof_C 	C 	0.0496	0.1777	0.0345	-0.004
Mof_C 	C 	0.044	0.1438	0.0958	-0.038
Mof_H 	H 	0.0168	0.1488	0.1338	-0.015
Mof_C 	C 	0.0769	0.1029	0.1032	0.035
Mof_H 	H 	0.073	0.0791	0.1464	-0.004
Mof_N 	N 	0.1156	0.0959	0.0494	-0.293
Mof_C 	C 	0.1212	0.1297	0.988	0.167
Mof_H 	H 	0.1484	0.1248	0.9501	-0.205
Mof_C 	C 	0.0883	0.1706	0.9806	-0.042
Mof_H 	H 	0.0923	0.1945	0.9374	-0.12
Mof_H 	H 	0.7363	0.4644	0.9449	0.03
Mof_H 	H 	0.7419	0.4901	0.0318	0.041
Mof_H 	H 	0.7287	0.4292	0.0233	0.042
Mof_Co	Co	0.16047	0.56729	0.09964	1.182
Mof_Co	Co	0.06336	0.50307	0.18829	1.162
Mof_O 	O 	0.19412	0.5031	0.15538	-0.429
Mof_O 	O 	0.1263	0.45391	0.19768	-0.428
Mof_O 	O 	0.08964	0.51951	0.06701	-0.552
Mof_O 	O 	0.11276	0.56935	0.20283	-0.571
Mof_O 	O 	0.05084	0.49697	0.31402	-0.568
Mof_O 	O 	0.11839	0.63343	0.06721	-0.431
Mof_N 	N 	0.38364	0.22045	0.35026	-0.216
Mof_C 	C 	0.28199	0.34503	0.272	0.052
Mof_C 	C 	0.1978	0.3877	0.277	0.051
Mof_H 	H 	0.1681	0.395	0.3071	0.025
Mof_C 	C 	0.21241	0.42295	0.219	-0.13
Mof_C 	C 	0.29671	0.381	0.2153	-0.12
Mof_H 	H 	0.3309	0.3792	0.1931	0.063
Mof_C 	C 	0.31733	0.30202	0.2983	-0.01
Mof_C 	C 	0.04707	0.71611	0.9281	-0.003
Mof_H 	H 	0.0591	0.7022	0.8787	0.037
Mof_C 	C 	0.26247	0.4202	0.1895	0.045
Mof_H 	H 	0.2737	0.4445	0.1518	0.02
Mof_C 	C 	0.17462	0.46366	0.18822	0.379
Mof_C 	C 	0.09582	0.49365	0.3649	-0.008
Mof_H 	H 	0.1167	0.5246	0.3588	0.03
Mof_H 	H 	0.1162	0.4636	0.3504	0.03
Mof_H 	H 	0.0848	0.4905	0.4196	0.023
Mof_C 	C 	0.0109	0.75735	0.9284	-0.05
Mof_H 	H 	0.9988	0.7669	0.8656	0.036
Mof_C 	C 	0.3322	0.2202	0.3616	0.27
Mof_H 	H 	0.3175	0.1908	0.3881	-0.056
Mof_C 	C 	0.2982	0.26	0.3374	0.225
Mof_H 	H 	0.2618	0.2574	0.3484	-0.046
Mof_C 	C 	0.3726	0.3043	0.2824	-0.091
Mof_H 	H 	0.3878	0.3334	0.2558	0.046
Mof_C 	C 	0.4034	0.2616	0.3079	-0.004
Mof_H 	H 	0.4396	0.2615	0.295	0.026
Mof_C 	C 	0.2317	0.3495	0.3031	-0.12
Mof_H 	H 	0.2205	0.3257	0.3433	0.067
Mof_C 	C 	0.9589	0.8241	0.9876	0.021
Mof_C 	C 	0.9672	0.8625	0.9258	-0.058
Mof_H 	H 	0.9946	0.8578	0.8879	0.067
Mof_C 	C 	0.9341	0.9079	0.9213	0.004
Mof_H 	H 	0.9395	0.9332	0.8805	0.021
Mof_N 	N 	0.8927	0.915	0.9786	0.079
Mof_C 	C 	0.8844	0.8766	0.0404	-0.012
Mof_H 	H 	0.8571	0.8813	0.0783	0.28
Mof_C 	C 	0.9175	0.8312	0.0449	-0
Mof_H 	H 	0.9121	0.8059	0.0857	0.163
Mof_C 	C 	0.3408	0.2353	0.3947	-0.238
Mof_H 	H 	0.3343	0.218	0.444	0.085
Mof_C 	C 	0.3073	0.2741	0.3706	-0.314
Mof_H 	H 	0.2774	0.2823	0.402	0.12
Mof_C 	C 	0.36	0.287	0.2576	0.002
Mof_H 	H 	0.3686	0.3041	0.2088	0.023
Mof_C 	C 	0.3918	0.2472	0.2853	0.028
Mof_H 	H 	0.4219	0.2387	0.2545	0.006
Mof_C 	C 	0.9504	0.8223	0.0345	-0.004
Mof_C 	C 	0.956	0.8562	0.0958	-0.038
Mof_H 	H 	0.9832	0.8512	0.1338	-0.015
Mof_C 	C 	0.9231	0.8971	0.1032	0.035
Mof_H 	H 	0.927	0.9209	0.1464	-0.004
Mof_N 	N 	0.8844	0.9041	0.0494	-0.293
Mof_C 	C 	0.8788	0.8703	0.988	0.167
Mof_H 	H 	0.8516	0.8752	0.9501	-0.205
Mof_C 	C 	0.9117	0.8294	0.9806	-0.042
Mof_H 	H 	0.9077	0.8055	0.9374	-0.12
Mof_H 	H 	0.2637	0.5356	0.9449	0.03
Mof_H 	H 	0.2581	0.5099	0.0318	0.041
Mof_H 	H 	0.2713	0.5708	0.0233	0.042
Mof_O 	O 	0.0531	0.69824	0.5	-0.478
Mof_C 	C 	0.00603	0.57221	0.5	0.52
Mof_H 	H 	0.9833	0.5428	0.5	-0.16
Mof_C 	C 	0.15078	0.6037	0.5	0.357
Mof_C 	C 	0.0415	0.7519	0.5	-0.102
Mof_C 	C 	0.2786	0.493	0.5	0.003
Mof_C 	C 	0.19544	0.5654	0.5	-0.095
Mof_O 	O 	0.9469	0.30176	0.5	-0.478
Mof_C 	C 	0.99397	0.42779	0.5	0.52
Mof_H 	H 	0.0167	0.4572	0.5	-0.16
Mof_C 	C 	0.84922	0.3963	0.5	0.357
Mof_C 	C 	0.9585	0.2481	0.5	-0.102
Mof_C 	C 	0.7214	0.507	0.5	0.003
Mof_C 	C 	0.80456	0.4346	0.5	-0.095
Mof_O 	O 	0.30176	0.0531	-0	-0.477
Mof_C 	C 	0.42779	0.00603	-0	0.518
Mof_H 	H 	0.4572	0.9833	-0	-0.16
Mof_C 	C 	0.3963	0.15078	-0	0.356
Mof_C 	C 	0.2481	0.0415	-0	-0.115
Mof_C 	C 	0.507	0.2786	-0	0
Mof_C 	C 	0.4346	0.19544	-0	-0.096
Mof_O 	O 	0.69824	0.9469	-0	-0.477
Mof_C 	C 	0.57221	0.99397	-0	0.518
Mof_H 	H 	0.5428	0.0167	-0	-0.16
Mof_C 	C 	0.6037	0.84922	-0	0.356
Mof_C 	C 	0.7519	0.9585	-0	-0.115
Mof_C 	C 	0.493	0.7214	-0	0
Mof_C 	C 	0.5654	0.80456	-0	-0.096
Mof_O 	O 	0.4469	0.19824	0.5	-0.478
Mof_C 	C 	0.49397	0.07221	0.5	0.52
Mof_H 	H 	0.5167	0.0428	0.5	-0.16
Mof_C 	C 	0.34922	0.1037	0.5	0.357
Mof_C 	C 	0.4585	0.2519	0.5	-0.102
Mof_C 	C 	0.2214	0.993	0.5	0.003
Mof_C 	C 	0.30456	0.0654	0.5	-0.095
Mof_O 	O 	0.5531	0.80176	0.5	-0.478
Mof_C 	C 	0.50603	0.92779	0.5	0.52
Mof_H 	H 	0.4833	0.9572	0.5	-0.16
Mof_C 	C 	0.65078	0.8963	0.5	0.357
Mof_C 	C 	0.5415	0.7481	0.5	-0.102
Mof_C 	C 	0.7786	0.007	0.5	0.003
Mof_C 	C 	0.69544	0.9346	0.5	-0.095
Mof_O 	O 	0.19824	0.5531	-0	-0.477
Mof_C 	C 	0.07221	0.50603	-0	0.517
Mof_H 	H 	0.0428	0.4833	-0	-0.16
Mof_C 	C 	0.1037	0.65078	-0	0.356
Mof_C 	C 	0.2519	0.5415	-0	-0.115
Mof_C 	C 	0.993	0.7786	-0	0
Mof_C 	C 	0.0654	0.69544	-0	-0.096
Mof_O 	O 	0.80176	0.4469	-0	-0.477
Mof_C 	C 	0.92779	0.49397	-0	0.517
Mof_H 	H 	0.9572	0.5167	-0	-0.16
Mof_C 	C 	0.8963	0.34922	-0	0.356
Mof_C 	C 	0.7481	0.4585	-0	-0.115
Mof_C 	C 	0.007	0.2214	-0	0
Mof_C 	C 	0.9346	0.30456	-0	-0.096
Mof_C 	C 	0.10736	0.60736	0.75	0.512
Mof_H 	H 	0.134	0.634	0.75	-0.15
Mof_C 	C 	0.89264	0.39264	0.75	0.512
Mof_H 	H 	0.866	0.366	0.75	-0.15
Mof_C 	C 	0.39264	0.10736	0.25	0.512
Mof_H 	H 	0.366	0.134	0.25	-0.15
Mof_C 	C 	0.60736	0.89264	0.25	0.512
Mof_H 	H 	0.634	0.866	0.25	-0.15
Mof_C 	C 	0.89264	0.39264	0.25	0.512
Mof_H 	H 	0.866	0.366	0.25	-0.15
Mof_C 	C 	0.10736	0.60736	0.25	0.512
Mof_H 	H 	0.134	0.634	0.25	-0.15
Mof_C 	C 	0.60736	0.89264	0.75	0.512
Mof_H 	H 	0.634	0.866	0.75	-0.15
Mof_C 	C 	0.39264	0.10736	0.75	0.512
Mof_H 	H 	0.366	0.134	0.75	-0.15
_end
