data_functionalizedCrystal
_audit_creation_method	'EQeq! by Chris Wilmer'
_symmetry_space_group_name_H-M	'P1'
_symmetry_Int_Tables_number	1
_symmetry_cell_setting	triclinic
loop_
_symmetry_equiv_pos_as_xyz
  x,y,z
_cell_length_a	20.658
_cell_length_b	20.658
_cell_length_c	13.775
_cell_angle_alpha	90
_cell_angle_beta	90
_cell_angle_gamma	120
loop_
_atom_site_label
_atom_site_type_symbol
_atom_site_fract_x
_atom_site_fract_y
_atom_site_fract_z
_atom_site_charge
Mof_H 	H 	0.3201	0.564	0.1199	0.029
Mof_H 	H 	0.3208	0.5658	0.2799	0.042
Mof_H 	H 	0.98677	0.89733	0.45323	0.043
Mof_H 	H 	0.98747	0.89913	0.61323	0.051
Mof_H 	H 	0.65343	0.23067	0.78657	0.03
Mof_H 	H 	0.65413	0.23247	0.94657	0.044
Mof_H 	H 	0.436	0.7561	0.1199	0.035
Mof_H 	H 	0.4342	0.755	0.2799	0.05
Mof_H 	H 	0.10267	0.08943	0.45323	0.021
Mof_H 	H 	0.10087	0.08833	0.61323	0.035
Mof_H 	H 	0.76933	0.42277	0.78657	0.039
Mof_H 	H 	0.76753	0.42167	0.94657	0.054
Mof_H 	H 	0.2439	0.6799	0.1199	0.025
Mof_H 	H 	0.245	0.6792	0.2799	0.039
Mof_H 	H 	0.91057	0.01323	0.45323	0.008
Mof_H 	H 	0.91167	0.01253	0.61323	0.017
Mof_H 	H 	0.57723	0.34657	0.78657	0.032
Mof_H 	H 	0.57833	0.34587	0.94657	0.048
Mof_H 	H 	0.436	0.6799	0.1199	0.031
Mof_H 	H 	0.4342	0.6792	0.2799	0.046
Mof_H 	H 	0.10267	0.01323	0.45323	0.006
Mof_H 	H 	0.10087	0.01253	0.61323	0.017
Mof_H 	H 	0.76933	0.34657	0.78657	0.037
Mof_H 	H 	0.76753	0.34587	0.94657	0.053
Mof_H 	H 	0.2439	0.564	0.1199	0.024
Mof_H 	H 	0.245	0.5658	0.2799	0.036
Mof_H 	H 	0.91057	0.89733	0.45323	0.025
Mof_H 	H 	0.91167	0.89913	0.61323	0.033
Mof_H 	H 	0.57723	0.23067	0.78657	0.028
Mof_H 	H 	0.57833	0.23247	0.94657	0.043
Mof_H 	H 	0.3201	0.7561	0.1199	0.033
Mof_H 	H 	0.3208	0.755	0.2799	0.048
Mof_H 	H 	0.98677	0.08943	0.45323	0.04
Mof_H 	H 	0.98747	0.08833	0.61323	0.054
Mof_H 	H 	0.65343	0.42277	0.78657	0.035
Mof_H 	H 	0.65413	0.42167	0.94657	0.049
Mof_F 	F 	0.4536	0.9072	0.7109	-0.508
Mof_N 	N 	0.6179	0.2358	0.4526	-0.139
Mof_N 	N 	0.62245	0.2449	0.5517	-0.226
Mof_N 	N 	0.58795	0.1759	0.5916	-0.083
Mof_N 	N 	0.5824	0.1648	0.4285	-0.048
Mof_C 	C 	0.563	0.126	0.5141	-0.02
Mof_C 	C 	0.52235	0.0447	0.5243	0.426
Mof_C 	C 	0.5047	0.0094	0.6133	-0.686
Mof_H 	H 	0.5188	0.0376	0.67	0.291
Mof_C 	C 	0.46645	0.9329	0.6185	0.787
Mof_C 	C 	0.4416	0.8832	0.5393	-0.679
Mof_C 	C 	0.46125	0.9225	0.4513	0.588
Mof_H 	H 	0.4474	0.8948	0.3941	-0.139
Mof_C 	C 	0.50015	0.0003	0.4435	-0.605
Mof_H 	H 	0.51115	0.0223	0.3824	0.242
Mof_C 	C 	0.4039	0.8078	0.5444	0.839
Mof_C 	C 	0.295	0.59	0.1434	-0.061
Mof_C 	C 	0.2961	0.5922	0.2563	-0.052
Mof_O 	O 	0.3849	0.7698	0.615	-0.556
Mof_O 	O 	0.3857	0.7714	0.4695	-0.606
Mof_F 	F 	0.12027	0.24053	0.04423	-0.519
Mof_N 	N 	0.28457	0.56913	0.78593	-0.14
Mof_N 	N 	0.28912	0.57823	0.88503	-0.225
Mof_N 	N 	0.25462	0.50923	0.92493	-0.087
Mof_N 	N 	0.24907	0.49813	0.76183	-0.056
Mof_C 	C 	0.22967	0.45933	0.84743	0.036
Mof_C 	C 	0.18902	0.37803	0.85763	0.265
Mof_C 	C 	0.17137	0.34273	0.94663	-0.439
Mof_H 	H 	0.18547	0.37093	0.00333	0.206
Mof_C 	C 	0.13312	0.26623	0.95183	0.612
Mof_C 	C 	0.10827	0.21653	0.87263	-0.551
Mof_C 	C 	0.12792	0.25583	0.78463	0.348
Mof_H 	H 	0.11407	0.22813	0.72743	-0.082
Mof_C 	C 	0.16682	0.33363	0.77683	-0.36
Mof_H 	H 	0.17782	0.35563	0.71573	0.168
Mof_C 	C 	0.07057	0.14113	0.87773	0.769
Mof_C 	C 	0.96167	0.92333	0.47673	0.03
Mof_C 	C 	0.96277	0.92553	0.58963	0.047
Mof_O 	O 	0.05157	0.10313	0.94833	-0.562
Mof_O 	O 	0.05237	0.10473	0.80283	-0.62
Mof_F 	F 	0.78693	0.57387	0.37757	-0.491
Mof_N 	N 	0.95123	0.90247	0.11927	-0.109
Mof_N 	N 	0.95578	0.91157	0.21837	-0.186
Mof_N 	N 	0.92128	0.84257	0.25827	-0.075
Mof_N 	N 	0.91573	0.83147	0.09517	-0.045
Mof_C 	C 	0.89633	0.79267	0.18077	0.043
Mof_C 	C 	0.85568	0.71137	0.19097	0.287
Mof_C 	C 	0.83803	0.67607	0.27997	-0.465
Mof_H 	H 	0.85213	0.70427	0.33667	0.24
Mof_C 	C 	0.79978	0.59957	0.28517	0.618
Mof_C 	C 	0.77493	0.54987	0.20597	-0.539
Mof_C 	C 	0.79458	0.58917	0.11797	0.357
Mof_H 	H 	0.78073	0.56147	0.06077	-0.073
Mof_C 	C 	0.83348	0.66697	0.11017	-0.361
Mof_H 	H 	0.84448	0.68897	0.04907	0.181
Mof_C 	C 	0.73723	0.47447	0.21107	0.765
Mof_C 	C 	0.62833	0.25667	0.81007	-0.061
Mof_C 	C 	0.62943	0.25887	0.92297	-0.055
Mof_O 	O 	0.71823	0.43647	0.28167	-0.533
Mof_O 	O 	0.71903	0.43807	0.13617	-0.591
Mof_F 	F 	0.0928	0.5464	0.7109	-0.481
Mof_N 	N 	0.7642	0.3821	0.4526	-0.138
Mof_N 	N 	0.7551	0.37755	0.5517	-0.225
Mof_N 	N 	0.8241	0.41205	0.5916	-0.092
Mof_N 	N 	0.8352	0.4176	0.4285	-0.058
Mof_C 	C 	0.874	0.437	0.5141	0.091
Mof_C 	C 	0.9553	0.47765	0.5243	0.126
Mof_C 	C 	0.9906	0.4953	0.6133	-0.234
Mof_H 	H 	0.9624	0.4812	0.67	0.173
Mof_C 	C 	0.0671	0.53355	0.6185	0.431
Mof_C 	C 	0.1168	0.5584	0.5393	-0.39
Mof_C 	C 	0.0775	0.53875	0.4513	0.103
Mof_H 	H 	0.1052	0.5526	0.3941	-0.002
Mof_C 	C 	0.9997	0.49985	0.4435	-0.103
Mof_H 	H 	0.9777	0.48885	0.3824	0.104
Mof_C 	C 	0.1922	0.5961	0.5444	0.682
Mof_C 	C 	0.41	0.705	0.1434	-0.062
Mof_C 	C 	0.4078	0.7039	0.2563	-0.056
Mof_O 	O 	0.2302	0.6151	0.615	-0.511
Mof_O 	O 	0.2286	0.6143	0.4695	-0.57
Mof_F 	F 	0.75947	0.87973	0.04423	-0.488
Mof_N 	N 	0.43087	0.71543	0.78593	-0.137
Mof_N 	N 	0.42177	0.71088	0.88503	-0.222
Mof_N 	N 	0.49077	0.74538	0.92493	-0.083
Mof_N 	N 	0.50187	0.75093	0.76183	-0.051
Mof_C 	C 	0.54067	0.77033	0.84743	0.047
Mof_C 	C 	0.62197	0.81098	0.85763	0.262
Mof_C 	C 	0.65727	0.82863	0.94663	-0.422
Mof_H 	H 	0.62907	0.81453	0.00333	0.214
Mof_C 	C 	0.73377	0.86688	0.95183	0.605
Mof_C 	C 	0.78347	0.89173	0.87263	-0.498
Mof_C 	C 	0.74417	0.87208	0.78463	0.33
Mof_H 	H 	0.77187	0.88593	0.72743	-0.052
Mof_C 	C 	0.66637	0.83318	0.77683	-0.333
Mof_H 	H 	0.64437	0.82218	0.71573	0.173
Mof_C 	C 	0.85887	0.92943	0.87773	0.728
Mof_C 	C 	0.07667	0.03833	0.47673	-0.07
Mof_C 	C 	0.07447	0.03723	0.58963	-0.067
Mof_O 	O 	0.89687	0.94843	0.94833	-0.469
Mof_O 	O 	0.89527	0.94763	0.80283	-0.525
Mof_F 	F 	0.42613	0.21307	0.37757	-0.501
Mof_N 	N 	0.09753	0.04877	0.11927	-0.163
Mof_N 	N 	0.08843	0.04422	0.21837	-0.249
Mof_N 	N 	0.15743	0.07872	0.25827	-0.097
Mof_N 	N 	0.16853	0.08427	0.09517	-0.065
Mof_C 	C 	0.20733	0.10367	0.18077	0.023
Mof_C 	C 	0.28863	0.14432	0.19097	0.271
Mof_C 	C 	0.32393	0.16197	0.27997	-0.467
Mof_H 	H 	0.29573	0.14787	0.33667	0.225
Mof_C 	C 	0.40043	0.20022	0.28517	0.608
Mof_C 	C 	0.45013	0.22507	0.20597	-0.541
Mof_C 	C 	0.41083	0.20542	0.11797	0.346
Mof_H 	H 	0.43853	0.21927	0.06077	-0.078
Mof_C 	C 	0.33303	0.16652	0.11017	-0.362
Mof_H 	H 	0.31103	0.15552	0.04907	0.164
Mof_C 	C 	0.52553	0.26277	0.21107	0.761
Mof_C 	C 	0.74333	0.37167	0.81007	-0.064
Mof_C 	C 	0.74113	0.37057	0.92297	-0.058
Mof_O 	O 	0.56353	0.28177	0.28167	-0.537
Mof_O 	O 	0.56193	0.28097	0.13617	-0.595
Mof_F 	F 	0.4536	0.5464	0.7109	-0.495
Mof_N 	N 	0.6179	0.3821	0.4526	-0.138
Mof_N 	N 	0.62245	0.37755	0.5517	-0.225
Mof_N 	N 	0.58795	0.41205	0.5916	-0.087
Mof_N 	N 	0.5824	0.4176	0.4285	-0.053
Mof_C 	C 	0.563	0.437	0.5141	0.034
Mof_C 	C 	0.52235	0.47765	0.5243	0.279
Mof_C 	C 	0.5047	0.4953	0.6133	-0.465
Mof_H 	H 	0.5188	0.4812	0.67	0.233
Mof_C 	C 	0.46645	0.53355	0.6185	0.613
Mof_C 	C 	0.4416	0.5584	0.5393	-0.538
Mof_C 	C 	0.46125	0.53875	0.4513	0.351
Mof_H 	H 	0.4474	0.5526	0.3941	-0.072
Mof_C 	C 	0.50015	0.49985	0.4435	-0.36
Mof_H 	H 	0.51115	0.48885	0.3824	0.175
Mof_C 	C 	0.4039	0.5961	0.5444	0.762
Mof_C 	C 	0.295	0.705	0.1434	-0.062
Mof_C 	C 	0.2961	0.7039	0.2563	-0.054
Mof_O 	O 	0.3849	0.6151	0.615	-0.534
Mof_O 	O 	0.3857	0.6143	0.4695	-0.588
Mof_F 	F 	0.12027	0.87973	0.04423	-0.502
Mof_N 	N 	0.28457	0.71543	0.78593	-0.138
Mof_N 	N 	0.28912	0.71088	0.88503	-0.224
Mof_N 	N 	0.25462	0.74538	0.92493	-0.085
Mof_N 	N 	0.24907	0.75093	0.76183	-0.053
Mof_C 	C 	0.22967	0.77033	0.84743	0.042
Mof_C 	C 	0.18902	0.81098	0.85763	0.263
Mof_C 	C 	0.17137	0.82863	0.94663	-0.43
Mof_H 	H 	0.18547	0.81453	0.00333	0.21
Mof_C 	C 	0.13312	0.86688	0.95183	0.608
Mof_C 	C 	0.10827	0.89173	0.87263	-0.522
Mof_C 	C 	0.12792	0.87208	0.78463	0.338
Mof_H 	H 	0.11407	0.88593	0.72743	-0.066
Mof_C 	C 	0.16682	0.83318	0.77683	-0.345
Mof_H 	H 	0.17782	0.82218	0.71573	0.171
Mof_C 	C 	0.07057	0.92943	0.87773	0.747
Mof_C 	C 	0.96167	0.03833	0.47673	-0.015
Mof_C 	C 	0.96277	0.03723	0.58963	-0.005
Mof_O 	O 	0.05157	0.94843	0.94833	-0.513
Mof_O 	O 	0.05237	0.94763	0.80283	-0.569
Mof_F 	F 	0.78693	0.21307	0.37757	-0.496
Mof_N 	N 	0.95123	0.04877	0.11927	-0.133
Mof_N 	N 	0.95578	0.04422	0.21837	-0.214
Mof_N 	N 	0.92128	0.07872	0.25827	-0.085
Mof_N 	N 	0.91573	0.08427	0.09517	-0.054
Mof_C 	C 	0.89633	0.10367	0.18077	0.034
Mof_C 	C 	0.85568	0.14432	0.19097	0.28
Mof_C 	C 	0.83803	0.16197	0.27997	-0.466
Mof_H 	H 	0.85213	0.14787	0.33667	0.233
Mof_C 	C 	0.79978	0.20022	0.28517	0.613
Mof_C 	C 	0.77493	0.22507	0.20597	-0.54
Mof_C 	C 	0.79458	0.20542	0.11797	0.352
Mof_H 	H 	0.78073	0.21927	0.06077	-0.075
Mof_C 	C 	0.83348	0.16652	0.11017	-0.362
Mof_H 	H 	0.84448	0.15552	0.04907	0.174
Mof_C 	C 	0.73723	0.26277	0.21107	0.763
Mof_C 	C 	0.62833	0.37167	0.81007	-0.062
Mof_C 	C 	0.62943	0.37057	0.92297	-0.056
Mof_O 	O 	0.71823	0.28177	0.28167	-0.535
Mof_O 	O 	0.71903	0.28097	0.13617	-0.593
Mof_Zn	Zn	0.66667	0.33333	0.36326	1.224
Mof_Zn	Zn	0.66667	0.33333	0.62343	1.187
Mof_Zn	Zn	0.33333	0.66667	0.69659	1.225
Mof_Zn	Zn	0.33333	0.66667	0.95676	1.189
Mof_Zn	Zn	-4.64861e-34	0	0.02993	1.178
Mof_Zn	Zn	-0	4.95851e-33	0.2901	1.149
Mof_Zn	Zn	0.33333	0.66667	0.4365	1.242
Mof_N 	N 	0.33333	0.66667	0.1092	-0.212
Mof_N 	N 	0.33333	0.66667	0.2966	-0.215
Mof_Zn	Zn	-9.91703e-33	0	0.76983	1.205
Mof_N 	N 	-0	4.95851e-33	0.44253	-0.298
Mof_N 	N 	-0	9.91703e-33	0.62993	-0.303
Mof_Zn	Zn	0.66667	0.33333	0.10317	1.239
Mof_N 	N 	0.66667	0.33333	0.77587	-0.209
Mof_N 	N 	0.66667	0.33333	0.96327	-0.21
_end
