data_functionalizedCrystal
_audit_creation_method	'EQeq! by Chris Wilmer'
_symmetry_space_group_name_H-M	'P1'
_symmetry_Int_Tables_number	1
_symmetry_cell_setting	triclinic
loop_
_symmetry_equiv_pos_as_xyz
  x,y,z
_cell_length_a	9.7669
_cell_length_b	17.3605
_cell_length_c	18.226
_cell_angle_alpha	93.5331
_cell_angle_beta	90
_cell_angle_gamma	106.338
loop_
_atom_site_label
_atom_site_type_symbol
_atom_site_fract_x
_atom_site_fract_y
_atom_site_fract_z
_atom_site_charge
Mof_Zn	Zn	0.14831	0.6944	0.51618	1.237
Mof_Zn	Zn	0.45391	0.3056	0.98382	1.249
Mof_Zn	Zn	0.85169	0.3056	0.48382	1.239
Mof_Zn	Zn	0.54609	0.6944	0.01618	1.226
Mof_Zn	Zn	-9.6037e-18	0.5	0.5	1.226
Mof_Zn	Zn	0.5	0.5	-0	1.226
Mof_H 	H 	0.5376	0.5788	0.6089	0.058
Mof_H 	H 	0.856	0.5014	0.7202	0.059
Mof_H 	H 	0.3131	0.4986	0.4215	0.056
Mof_H 	H 	0.801	0.7422	0.817	0.07
Mof_H 	H 	0.7516	0.5074	0.832	0.063
Mof_H 	H 	0.9108	0.7368	0.7059	0.066
Mof_H 	H 	0.3219	0.9504	0.5816	0.057
Mof_H 	H 	0.5609	0.913	0.4138	0.059
Mof_H 	H 	0.9588	0.4212	0.8911	0.046
Mof_H 	H 	0.3546	0.4986	0.7798	0.054
Mof_H 	H 	0.8145	0.5014	0.0785	0.044
Mof_H 	H 	0.0588	0.2578	0.683	0.054
Mof_H 	H 	0.2442	0.4926	0.668	0.06
Mof_H 	H 	0.174	0.2632	0.7941	0.055
Mof_H 	H 	0.3715	0.0496	0.9184	0.03
Mof_H 	H 	0.6479	0.087	0.0862	0.034
Mof_H 	H 	0.4624	0.4212	0.3911	0.058
Mof_H 	H 	0.144	0.4986	0.2798	0.057
Mof_H 	H 	0.6869	0.5014	0.5785	0.059
Mof_H 	H 	0.199	0.2578	0.183	0.049
Mof_H 	H 	0.2484	0.4926	0.168	0.053
Mof_H 	H 	0.0892	0.2632	0.2941	0.054
Mof_H 	H 	0.6781	0.0496	0.4184	0.068
Mof_H 	H 	0.4391	0.087	0.5862	0.062
Mof_H 	H 	0.0412	0.5788	0.1089	0.071
Mof_H 	H 	0.6454	0.5014	0.2202	0.062
Mof_H 	H 	0.1855	0.4986	0.9215	0.071
Mof_H 	H 	0.9412	0.7422	0.317	0.065
Mof_H 	H 	0.7558	0.5074	0.332	0.057
Mof_H 	H 	0.826	0.7368	0.2059	0.065
Mof_H 	H 	0.6285	0.9504	0.0816	0.098
Mof_H 	H 	0.3521	0.913	0.9138	0.086
Mof_C 	C 	0.3466	0.831	0.4904	0.34
Mof_C 	C 	0.52279	0.54718	0.5649	-0.015
Mof_C 	C 	0.41125	0.5479	0.5184	-0.058
Mof_C 	C 	0.76494	0.62608	0.8361	-0.062
Mof_C 	C 	0.84553	0.55006	0.7398	-0.001
Mof_C 	C 	0.89437	0.61914	0.7007	-0.088
Mof_C 	C 	0.69201	0.62842	0.9079	0.381
Mof_C 	C 	0.38854	0.49928	0.4529	-0.019
Mof_C 	C 	0.81259	0.69358	0.7978	-0.018
Mof_C 	C 	0.96448	0.61476	0.6279	0.436
Mof_C 	C 	0.78268	0.55356	0.8063	-0.02
Mof_C 	C 	0.8777	0.6902	0.7308	0.005
Mof_C 	C 	0.31683	0.60066	0.5381	0.321
Mof_C 	C 	0.42782	0.91764	0.4956	-0.066
Mof_C 	C 	0.39338	0.97016	0.5482	-0.01
Mof_C 	C 	0.53498	0.94756	0.4485	-0.01
Mof_C 	C 	0.5156	0.169	0.0096	0.323
Mof_C 	C 	0.97561	0.45282	0.9351	0.058
Mof_C 	C 	0.86335	0.4521	0.9816	-0.063
Mof_C 	C 	0.13886	0.37392	0.6639	-0.062
Mof_C 	C 	0.29547	0.44994	0.7602	-0.009
Mof_C 	C 	0.27523	0.38086	0.7993	-0.083
Mof_C 	C 	0.06359	0.37158	0.5921	0.333
Mof_C 	C 	0.88926	0.50072	0.0471	0.022
Mof_C 	C 	0.11901	0.30642	0.7022	-0.026
Mof_C 	C 	0.34972	0.38524	0.8721	0.388
Mof_C 	C 	0.22912	0.44644	0.6937	-0.028
Mof_C 	C 	0.1875	0.3098	0.7692	-0.007
Mof_C 	C 	0.71617	0.39934	0.9619	0.369
Mof_C 	C 	0.51018	0.08236	0.0044	-0.146
Mof_C 	C 	0.42322	0.02984	0.9518	0.088
Mof_C 	C 	0.58742	0.05244	0.0515	0.062
Mof_C 	C 	0.6534	0.169	0.5096	0.335
Mof_C 	C 	0.47721	0.45282	0.4351	-0.019
Mof_C 	C 	0.58875	0.4521	0.4816	-0.054
Mof_C 	C 	0.23506	0.37392	0.1639	-0.089
Mof_C 	C 	0.15447	0.44994	0.2602	-0.031
Mof_C 	C 	0.10563	0.38086	0.2993	-0.063
Mof_C 	C 	0.30799	0.37158	0.0921	0.39
Mof_C 	C 	0.61146	0.50072	0.5471	-0.02
Mof_C 	C 	0.18741	0.30642	0.2022	-0.002
Mof_C 	C 	0.03552	0.38524	0.3721	0.336
Mof_C 	C 	0.21732	0.44644	0.1937	-0.006
Mof_C 	C 	0.1223	0.3098	0.2692	-0.031
Mof_C 	C 	0.68317	0.39934	0.4619	0.319
Mof_C 	C 	0.57218	0.08236	0.5044	-0.052
Mof_C 	C 	0.60662	0.02984	0.4518	-0.025
Mof_C 	C 	0.46502	0.05244	0.5515	-0.026
Mof_C 	C 	0.4844	0.831	0.9904	0.355
Mof_C 	C 	0.02439	0.54718	0.0649	-0.092
Mof_C 	C 	0.13665	0.5479	0.0184	-0.049
Mof_C 	C 	0.86114	0.62608	0.3361	-0.089
Mof_C 	C 	0.70453	0.55006	0.2398	-0.022
Mof_C 	C 	0.72477	0.61914	0.2007	-0.068
Mof_C 	C 	0.93641	0.62842	0.4079	0.438
Mof_C 	C 	0.11074	0.49928	0.9529	-0.06
Mof_C 	C 	0.88099	0.69358	0.2978	0.005
Mof_C 	C 	0.65028	0.61476	0.1279	0.385
Mof_C 	C 	0.77088	0.55356	0.3063	0.002
Mof_C 	C 	0.8125	0.6902	0.2308	-0.019
Mof_C 	C 	0.28383	0.60066	0.0381	0.27
Mof_C 	C 	0.48982	0.91764	0.9956	0.031
Mof_C 	C 	0.57678	0.97016	0.0482	-0.131
Mof_C 	C 	0.41258	0.94756	0.9485	-0.093
Mof_O 	O 	0.02189	0.68098	0.60045	-0.501
Mof_O 	O 	0.96366	0.54692	0.60088	-0.447
Mof_O 	O 	0.66761	0.56802	0.94483	-0.44
Mof_O 	O 	0.3459	0.6496	0.5918	-0.308
Mof_O 	O 	0.65867	0.69174	0.92598	-0.43
Mof_O 	O 	0.20967	0.59574	0.49436	-0.533
Mof_O 	O 	0.25284	0.80728	0.537	-0.43
Mof_O 	O 	0.3737	0.7854	0.4419	-0.3
Mof_O 	O 	0.34091	0.31902	0.89955	-0.453
Mof_O 	O 	0.41674	0.45308	0.89912	-0.445
Mof_O 	O 	0.09959	0.43198	0.55517	-0.457
Mof_O 	O 	0.6963	0.3504	0.9082	-0.307
Mof_O 	O 	0.96693	0.30826	0.57402	-0.403
Mof_O 	O 	0.61393	0.40426	0.00564	-0.566
Mof_O 	O 	0.44556	0.19272	0.963	-0.398
Mof_O 	O 	0.5883	0.2146	0.0581	-0.299
Mof_O 	O 	0.97811	0.31902	0.39955	-0.413
Mof_O 	O 	0.03634	0.45308	0.39912	-0.455
Mof_O 	O 	0.33239	0.43198	0.05517	-0.473
Mof_O 	O 	0.6541	0.3504	0.4082	-0.302
Mof_O 	O 	0.34133	0.30826	0.07402	-0.463
Mof_O 	O 	0.79033	0.40426	0.50564	-0.517
Mof_O 	O 	0.74716	0.19272	0.463	-0.422
Mof_O 	O 	0.6263	0.2146	0.5581	-0.296
Mof_O 	O 	0.65909	0.68098	0.10045	-0.463
Mof_O 	O 	0.58326	0.54692	0.10088	-0.457
Mof_O 	O 	0.90041	0.56802	0.44483	-0.457
Mof_O 	O 	0.3037	0.6496	0.0918	-0.303
Mof_O 	O 	0.03307	0.69174	0.42598	-0.49
Mof_O 	O 	0.38607	0.59574	0.99436	-0.483
Mof_O 	O 	0.55444	0.80728	0.037	-0.456
Mof_O 	O 	0.4117	0.7854	0.9419	-0.296
_end
