data_functionalizedCrystal
_audit_creation_method	'EQeq! by Chris Wilmer'
_symmetry_space_group_name_H-M	'P1'
_symmetry_Int_Tables_number	1
_symmetry_cell_setting	triclinic
loop_
_symmetry_equiv_pos_as_xyz
  x,y,z
_cell_length_a	6.9235
_cell_length_b	7.4268
_cell_length_c	8.2517
_cell_angle_alpha	90.118
_cell_angle_beta	109.774
_cell_angle_gamma	93.329
loop_
_atom_site_label
_atom_site_type_symbol
_atom_site_fract_x
_atom_site_fract_y
_atom_site_fract_z
_atom_site_charge
Mof_Zn	Zn	0.5	0	0.5	1.158
Mof_Zn	Zn	-1.53231e-18	0.5	0.5	1.154
Mof_H 	H 	0.5706	0.2045	0.963	0.009
Mof_H 	H 	0.4294	0.7955	0.037	0.07
Mof_C 	C 	0.5421	0.323	0.9782	-0.002
Mof_C 	C 	0.5813	0.3918	0.1438	-0.075
Mof_C 	C 	0.5403	0.5699	0.1674	-0.078
Mof_C 	C 	0.5809	0.662	0.3397	0.361
Mof_C 	C 	0.6474	0.2603	0.2881	0.362
Mof_C 	C 	0.4579	0.677	0.0218	0.032
Mof_C 	C 	0.4187	0.6082	0.8562	-0.101
Mof_C 	C 	0.4597	0.4301	0.8326	-0.104
Mof_C 	C 	0.4191	0.338	0.6603	0.369
Mof_C 	C 	0.3526	0.7397	0.7119	0.361
Mof_O 	O 	0.51052	0.14152	0.28891	-0.502
Mof_O 	O 	0.82763	0.27024	0.39431	-0.412
Mof_O 	O 	0.44762	0.76601	0.35007	-0.388
Mof_O 	O 	0.74538	0.63864	0.46217	-0.371
Mof_O 	O 	0.48948	0.85848	0.71109	-0.339
Mof_O 	O 	0.17237	0.72976	0.60569	-0.499
Mof_O 	O 	0.55238	0.23399	0.64993	-0.463
Mof_O 	O 	0.25462	0.36136	0.53783	-0.542
_end
