data_functionalizedCrystal
_audit_creation_method	'EQeq! by Chris Wilmer'
_symmetry_space_group_name_H-M	'P1'
_symmetry_Int_Tables_number	1
_symmetry_cell_setting	triclinic
loop_
_symmetry_equiv_pos_as_xyz
  x,y,z
_cell_length_a	11.6844
_cell_length_b	11.6844
_cell_length_c	27.555
_cell_angle_alpha	90
_cell_angle_beta	90
_cell_angle_gamma	90
loop_
_atom_site_label
_atom_site_type_symbol
_atom_site_fract_x
_atom_site_fract_y
_atom_site_fract_z
_atom_site_charge
Mof_Li	Li	0.2297	0.283	0.0817	4.427
Mof_C 	C 	0.1142	0.8693	0.08506	0.214
Mof_H 	H 	0.1013	0.8113	0.1075	-0.3
Mof_C 	C 	0.1526	0.9236	0.00944	0.07
Mof_C 	C 	0.1383	0.0365	0.02277	-0.262
Mof_C 	C 	0.1171	0.0669	0.07148	0.303
Mof_C 	C 	0.1754	0.0236	0.94623	-0.026
Mof_H 	H 	0.1886	0.0446	0.9142	-0.203
Mof_N 	N 	0.1019	0.9761	0.10201	-0.756
Mof_N 	N 	0.1419	0.8348	0.04101	-0.293
Mof_N 	N 	0.1767	0.9155	0.96104	-0.196
Mof_N 	N 	0.1534	0.0996	0.9811	-0.203
Mof_O 	O 	0.112	0.1679	0.08735	-1.465
Mof_H 	H 	0.163	0.949	0.117	-0.114
Mof_H 	H 	0.242	0.871	0.952	-1.178
Mof_H 	H 	0.146	0.176	0.973	-0.034
Mof_Li	Li	0.7297	0.783	0.5817	4.386
Mof_C 	C 	0.6142	0.3693	0.58506	0.215
Mof_H 	H 	0.6013	0.3113	0.6075	-0.301
Mof_C 	C 	0.6526	0.4236	0.50944	0.055
Mof_C 	C 	0.6383	0.5365	0.52277	-0.247
Mof_C 	C 	0.6171	0.5669	0.57148	0.319
Mof_C 	C 	0.6754	0.5236	0.44623	-0.022
Mof_H 	H 	0.6886	0.5446	0.4142	-0.205
Mof_N 	N 	0.6019	0.4761	0.60201	-0.778
Mof_N 	N 	0.6419	0.3348	0.54101	-0.291
Mof_N 	N 	0.6767	0.4155	0.46104	-0.194
Mof_N 	N 	0.6534	0.5996	0.4811	-0.207
Mof_O 	O 	0.612	0.6679	0.58735	-1.496
Mof_H 	H 	0.663	0.449	0.617	-0.118
Mof_H 	H 	0.742	0.371	0.452	-1.181
Mof_H 	H 	0.646	0.676	0.473	-0.031
Mof_Li	Li	0.2703	0.717	0.5817	4.376
Mof_C 	C 	0.3858	0.1307	0.58506	0.213
Mof_H 	H 	0.3987	0.1887	0.6075	-0.301
Mof_C 	C 	0.3474	0.0764	0.50944	0.051
Mof_C 	C 	0.3617	0.9635	0.52277	-0.245
Mof_C 	C 	0.3829	0.9331	0.57148	0.316
Mof_C 	C 	0.3246	0.9764	0.44623	-0.018
Mof_H 	H 	0.3114	0.9554	0.4142	-0.204
Mof_N 	N 	0.3981	0.0239	0.60201	-0.772
Mof_N 	N 	0.3581	0.1652	0.54101	-0.292
Mof_N 	N 	0.3233	0.0845	0.46104	-0.196
Mof_N 	N 	0.3466	0.9004	0.4811	-0.208
Mof_O 	O 	0.388	0.8321	0.58735	-1.493
Mof_H 	H 	0.337	0.051	0.617	-0.119
Mof_H 	H 	0.258	0.129	0.452	-1.174
Mof_H 	H 	0.354	0.824	0.473	-0.031
Mof_Li	Li	0.7703	0.217	0.0817	4.448
Mof_C 	C 	0.8858	0.6307	0.08506	0.219
Mof_H 	H 	0.8987	0.6887	0.1075	-0.304
Mof_C 	C 	0.8474	0.5764	0.00944	0.055
Mof_C 	C 	0.8617	0.4635	0.02277	-0.244
Mof_C 	C 	0.8829	0.4331	0.07148	0.309
Mof_C 	C 	0.8246	0.4764	0.94623	-0.021
Mof_H 	H 	0.8114	0.4554	0.9142	-0.202
Mof_N 	N 	0.8981	0.5239	0.10201	-0.786
Mof_N 	N 	0.8581	0.6652	0.04101	-0.292
Mof_N 	N 	0.8233	0.5845	0.96104	-0.192
Mof_N 	N 	0.8466	0.4004	0.9811	-0.207
Mof_O 	O 	0.888	0.3321	0.08735	-1.469
Mof_H 	H 	0.837	0.551	0.117	-0.124
Mof_H 	H 	0.758	0.629	0.952	-1.18
Mof_H 	H 	0.854	0.324	0.973	-0.029
Mof_Li	Li	0.467	0.4797	0.3317	4.384
Mof_C 	C 	0.8807	0.3642	0.33506	0.216
Mof_H 	H 	0.9387	0.3513	0.3575	-0.298
Mof_C 	C 	0.8264	0.4026	0.25944	0.054
Mof_C 	C 	0.7135	0.3883	0.27277	-0.246
Mof_C 	C 	0.6831	0.3671	0.32148	0.318
Mof_C 	C 	0.7264	0.4254	0.19623	-0.025
Mof_H 	H 	0.7054	0.4386	0.1642	-0.206
Mof_N 	N 	0.7739	0.3519	0.35201	-0.779
Mof_N 	N 	0.9152	0.3919	0.29101	-0.288
Mof_N 	N 	0.8345	0.4267	0.21104	-0.19
Mof_N 	N 	0.6504	0.4034	0.2311	-0.206
Mof_O 	O 	0.5821	0.362	0.33735	-1.496
Mof_H 	H 	0.801	0.413	0.367	-0.119
Mof_H 	H 	0.879	0.492	0.202	-1.212
Mof_H 	H 	0.574	0.396	0.223	-0.031
Mof_Li	Li	0.967	0.9797	0.8317	4.355
Mof_C 	C 	0.3807	0.8642	0.83506	0.215
Mof_H 	H 	0.4387	0.8513	0.8575	-0.303
Mof_C 	C 	0.3264	0.9026	0.75944	0.054
Mof_C 	C 	0.2135	0.8883	0.77277	-0.246
Mof_C 	C 	0.1831	0.8671	0.82148	0.315
Mof_C 	C 	0.2264	0.9254	0.69623	-0.023
Mof_H 	H 	0.2054	0.9386	0.6642	-0.205
Mof_N 	N 	0.2739	0.8519	0.85201	-0.776
Mof_N 	N 	0.4152	0.8919	0.79101	-0.292
Mof_N 	N 	0.3345	0.9267	0.71104	-0.194
Mof_N 	N 	0.1504	0.9034	0.7311	-0.207
Mof_O 	O 	0.0821	0.862	0.83735	-1.484
Mof_H 	H 	0.301	0.913	0.867	-0.12
Mof_H 	H 	0.379	0.992	0.702	-1.172
Mof_H 	H 	0.074	0.896	0.723	-0.031
Mof_Li	Li	0.033	0.5203	0.8317	4.338
Mof_C 	C 	0.6193	0.6358	0.83506	0.215
Mof_H 	H 	0.5613	0.6487	0.8575	-0.303
Mof_C 	C 	0.6736	0.5974	0.75944	0.054
Mof_C 	C 	0.7865	0.6117	0.77277	-0.242
Mof_C 	C 	0.8169	0.6329	0.82148	0.314
Mof_C 	C 	0.7736	0.5746	0.69623	-0.021
Mof_H 	H 	0.7946	0.5614	0.6642	-0.204
Mof_N 	N 	0.7261	0.6481	0.85201	-0.776
Mof_N 	N 	0.5848	0.6081	0.79101	-0.291
Mof_N 	N 	0.6655	0.5733	0.71104	-0.194
Mof_N 	N 	0.8496	0.5966	0.7311	-0.207
Mof_O 	O 	0.9179	0.638	0.83735	-1.473
Mof_H 	H 	0.699	0.587	0.867	-0.118
Mof_H 	H 	0.621	0.508	0.702	-1.177
Mof_H 	H 	0.926	0.604	0.723	-0.026
Mof_Li	Li	0.533	0.0203	0.3317	4.37
Mof_C 	C 	0.1193	0.1358	0.33506	0.214
Mof_H 	H 	0.0613	0.1487	0.3575	-0.308
Mof_C 	C 	0.1736	0.0974	0.25944	0.052
Mof_C 	C 	0.2865	0.1117	0.27277	-0.247
Mof_C 	C 	0.3169	0.1329	0.32148	0.317
Mof_C 	C 	0.2736	0.0746	0.19623	-0.022
Mof_H 	H 	0.2946	0.0614	0.1642	-0.206
Mof_N 	N 	0.2261	0.1481	0.35201	-0.774
Mof_N 	N 	0.0848	0.1081	0.29101	-0.297
Mof_N 	N 	0.1655	0.0733	0.21104	-0.193
Mof_N 	N 	0.3496	0.0966	0.2311	-0.207
Mof_O 	O 	0.4179	0.138	0.33735	-1.492
Mof_H 	H 	0.199	0.087	0.367	-0.121
Mof_H 	H 	0.121	0.008	0.202	-1.157
Mof_H 	H 	0.426	0.104	0.223	-0.031
Mof_Li	Li	0.7703	0.717	0.9183	4.389
Mof_C 	C 	0.8858	0.1307	0.91494	0.219
Mof_H 	H 	0.8987	0.1887	0.8925	-0.296
Mof_C 	C 	0.8474	0.0764	0.99056	0.074
Mof_C 	C 	0.8617	0.9635	0.97723	-0.262
Mof_C 	C 	0.8829	0.9331	0.92852	0.31
Mof_C 	C 	0.8246	0.9764	0.05377	-0.029
Mof_H 	H 	0.8114	0.9554	0.0858	-0.2
Mof_N 	N 	0.8981	0.0239	0.89799	-0.762
Mof_N 	N 	0.8581	0.1652	0.95899	-0.292
Mof_N 	N 	0.8233	0.0845	0.03896	-0.191
Mof_N 	N 	0.8466	0.9004	0.0189	-0.202
Mof_O 	O 	0.888	0.8321	0.91265	-1.486
Mof_H 	H 	0.837	0.051	0.883	-0.115
Mof_H 	H 	0.758	0.129	0.048	-1.195
Mof_H 	H 	0.854	0.824	0.027	-0.031
Mof_Li	Li	0.2703	0.217	0.4183	4.365
Mof_C 	C 	0.3858	0.6307	0.41494	0.215
Mof_H 	H 	0.3987	0.6887	0.3925	-0.302
Mof_C 	C 	0.3474	0.5764	0.49056	0.054
Mof_C 	C 	0.3617	0.4635	0.47723	-0.247
Mof_C 	C 	0.3829	0.4331	0.42852	0.317
Mof_C 	C 	0.3246	0.4764	0.55377	-0.023
Mof_H 	H 	0.3114	0.4554	0.5858	-0.205
Mof_N 	N 	0.3981	0.5239	0.39799	-0.777
Mof_N 	N 	0.3581	0.6652	0.45899	-0.292
Mof_N 	N 	0.3233	0.5845	0.53896	-0.194
Mof_N 	N 	0.3466	0.4004	0.5189	-0.207
Mof_O 	O 	0.388	0.3321	0.41265	-1.491
Mof_H 	H 	0.337	0.551	0.383	-0.119
Mof_H 	H 	0.258	0.629	0.548	-1.176
Mof_H 	H 	0.354	0.324	0.527	-0.031
Mof_Li	Li	0.7297	0.283	0.4183	4.403
Mof_C 	C 	0.6142	0.8693	0.41494	0.214
Mof_H 	H 	0.6013	0.8113	0.3925	-0.301
Mof_C 	C 	0.6526	0.9236	0.49056	0.05
Mof_C 	C 	0.6383	0.0365	0.47723	-0.242
Mof_C 	C 	0.6171	0.0669	0.42852	0.319
Mof_C 	C 	0.6754	0.0236	0.55377	-0.014
Mof_H 	H 	0.6886	0.0446	0.5858	-0.203
Mof_N 	N 	0.6019	0.9761	0.39799	-0.776
Mof_N 	N 	0.6419	0.8348	0.45899	-0.291
Mof_N 	N 	0.6767	0.9155	0.53896	-0.197
Mof_N 	N 	0.6534	0.0996	0.5189	-0.208
Mof_O 	O 	0.612	0.1679	0.41265	-1.498
Mof_H 	H 	0.663	0.949	0.383	-0.119
Mof_H 	H 	0.742	0.871	0.548	-1.178
Mof_H 	H 	0.646	0.176	0.527	-0.03
Mof_Li	Li	0.2297	0.783	0.9183	4.382
Mof_C 	C 	0.1142	0.3693	0.91494	0.212
Mof_H 	H 	0.1013	0.3113	0.8925	-0.303
Mof_C 	C 	0.1526	0.4236	0.99056	0.052
Mof_C 	C 	0.1383	0.5365	0.97723	-0.248
Mof_C 	C 	0.1171	0.5669	0.92852	0.316
Mof_C 	C 	0.1754	0.5236	0.05377	-0.025
Mof_H 	H 	0.1886	0.5446	0.0858	-0.208
Mof_N 	N 	0.1019	0.4761	0.89799	-0.773
Mof_N 	N 	0.1419	0.3348	0.95899	-0.293
Mof_N 	N 	0.1767	0.4155	0.03896	-0.193
Mof_N 	N 	0.1534	0.5996	0.0189	-0.207
Mof_O 	O 	0.112	0.6679	0.91265	-1.488
Mof_H 	H 	0.163	0.449	0.883	-0.117
Mof_H 	H 	0.242	0.371	0.048	-1.189
Mof_H 	H 	0.146	0.676	0.027	-0.032
Mof_Li	Li	0.533	0.5203	0.6683	4.384
Mof_C 	C 	0.1193	0.6358	0.66494	0.215
Mof_H 	H 	0.0613	0.6487	0.6425	-0.304
Mof_C 	C 	0.1736	0.5974	0.74056	0.054
Mof_C 	C 	0.2865	0.6117	0.72723	-0.247
Mof_C 	C 	0.3169	0.6329	0.67852	0.319
Mof_C 	C 	0.2736	0.5746	0.80377	-0.022
Mof_H 	H 	0.2946	0.5614	0.8358	-0.205
Mof_N 	N 	0.2261	0.6481	0.64799	-0.776
Mof_N 	N 	0.0848	0.6081	0.70899	-0.294
Mof_N 	N 	0.1655	0.5733	0.78896	-0.194
Mof_N 	N 	0.3496	0.5966	0.7689	-0.207
Mof_O 	O 	0.4179	0.638	0.66265	-1.495
Mof_H 	H 	0.199	0.587	0.633	-0.119
Mof_H 	H 	0.121	0.508	0.798	-1.167
Mof_H 	H 	0.426	0.604	0.777	-0.031
Mof_Li	Li	0.033	0.0203	0.1683	4.282
Mof_C 	C 	0.6193	0.1358	0.16494	0.215
Mof_H 	H 	0.5613	0.1487	0.1425	-0.305
Mof_C 	C 	0.6736	0.0974	0.24056	0.051
Mof_C 	C 	0.7865	0.1117	0.22723	-0.234
Mof_C 	C 	0.8169	0.1329	0.17852	0.3
Mof_C 	C 	0.7736	0.0746	0.30377	-0.02
Mof_H 	H 	0.7946	0.0614	0.3358	-0.203
Mof_N 	N 	0.7261	0.1481	0.14799	-0.779
Mof_N 	N 	0.5848	0.1081	0.20899	-0.291
Mof_N 	N 	0.6655	0.0733	0.28896	-0.193
Mof_N 	N 	0.8496	0.0966	0.2689	-0.209
Mof_O 	O 	0.9179	0.138	0.16265	-1.425
Mof_H 	H 	0.699	0.087	0.133	-0.121
Mof_H 	H 	0.621	0.008	0.298	-1.174
Mof_H 	H 	0.926	0.104	0.277	-0.021
Mof_Li	Li	0.967	0.4797	0.1683	4.522
Mof_C 	C 	0.3807	0.3642	0.16494	0.216
Mof_H 	H 	0.4387	0.3513	0.1425	-0.305
Mof_C 	C 	0.3264	0.4026	0.24056	0.055
Mof_C 	C 	0.2135	0.3883	0.22723	-0.251
Mof_C 	C 	0.1831	0.3671	0.17852	0.314
Mof_C 	C 	0.2264	0.4254	0.30377	-0.024
Mof_H 	H 	0.2054	0.4386	0.3358	-0.206
Mof_N 	N 	0.2739	0.3519	0.14799	-0.779
Mof_N 	N 	0.4152	0.3919	0.20899	-0.293
Mof_N 	N 	0.3345	0.4267	0.28896	-0.194
Mof_N 	N 	0.1504	0.4034	0.2689	-0.207
Mof_O 	O 	0.0821	0.362	0.16265	-1.492
Mof_H 	H 	0.301	0.413	0.133	-0.122
Mof_H 	H 	0.379	0.492	0.298	-1.178
Mof_H 	H 	0.074	0.396	0.277	-0.038
Mof_Li	Li	0.467	0.9797	0.6683	4.36
Mof_C 	C 	0.8807	0.8642	0.66494	0.214
Mof_H 	H 	0.9387	0.8513	0.6425	-0.301
Mof_C 	C 	0.8264	0.9026	0.74056	0.054
Mof_C 	C 	0.7135	0.8883	0.72723	-0.247
Mof_C 	C 	0.6831	0.8671	0.67852	0.317
Mof_C 	C 	0.7264	0.9254	0.80377	-0.023
Mof_H 	H 	0.7054	0.9386	0.8358	-0.207
Mof_N 	N 	0.7739	0.8519	0.64799	-0.776
Mof_N 	N 	0.9152	0.8919	0.70899	-0.291
Mof_N 	N 	0.8345	0.9267	0.78896	-0.193
Mof_N 	N 	0.6504	0.9034	0.7689	-0.207
Mof_O 	O 	0.5821	0.862	0.66265	-1.491
Mof_H 	H 	0.801	0.913	0.633	-0.12
Mof_H 	H 	0.879	0.992	0.798	-1.172
Mof_H 	H 	0.574	0.896	0.777	-0.031
Mof_Li	Li	-2.24985e-33	0.25	0.125	0.205
Mof_Li	Li	0.5	0.75	0.625	0.397
Mof_Li	Li	0.5	0.25	0.375	0.393
Mof_Li	Li	7.73684e-33	0.75	0.875	0.363
_end
