data_functionalizedCrystal
_audit_creation_method	'EQeq! by Chris Wilmer'
_symmetry_space_group_name_H-M	'P1'
_symmetry_Int_Tables_number	1
_symmetry_cell_setting	triclinic
loop_
_symmetry_equiv_pos_as_xyz
  x,y,z
_cell_length_a	15.745
_cell_length_b	26.506
_cell_length_c	27.765
_cell_angle_alpha	86.976
_cell_angle_beta	84.139
_cell_angle_gamma	88.302
loop_
_atom_site_label
_atom_site_type_symbol
_atom_site_fract_x
_atom_site_fract_y
_atom_site_fract_z
_atom_site_charge
Mof_Mo	Mo	0.27954	0.34579	0.30859	1.039
Mof_Mo	Mo	0.19386	0.39765	0.37546	1.053
Mof_Mo	Mo	0.56797	0.32511	0.41324	1.31
Mof_Mo	Mo	0.49992	0.49372	0.25165	1.06
Mof_Mo	Mo	0.4579	0.40227	0.23768	1.037
Mof_Mo	Mo	0.28656	0.42446	0.48428	1.003
Mof_Mo	Mo	0.4852	0.30225	0.31731	1.313
Mof_Mo	Mo	0.39628	0.56817	0.33712	1.326
Mof_Mo	Mo	0.23804	0.51875	0.40113	1.285
Mof_Mo	Mo	0.4432	0.39393	0.49542	1.616
Mof_Mo	Mo	0.59391	0.5206	0.36014	1.041
Mof_Mo	Mo	0.61798	0.44819	0.42531	1.009
Mof_Mo	Mo	0.78216	0.83215	0.10182	1.017
Mof_Mo	Mo	0.70086	0.80124	0.18397	1.052
Mof_Mo	Mo	0.48288	0.8057	0.20825	1.321
Mof_Mo	Mo	0.79472	0.95548	0.06072	1.265
Mof_Mo	Mo	0.59426	0.89124	0.2634	1.062
Mof_Mo	Mo	0.66508	0.88132	0.00338	0.996
Mof_Mo	Mo	0.3949	0.97546	0.09299	1.03
Mof_Mo	Mo	0.59861	0.98705	0.23739	1.068
Mof_Mo	Mo	0.70043	0.03534	0.13065	1.298
Mof_Mo	Mo	0.48138	0.03641	0.13947	1.024
Mof_Mo	Mo	0.49812	0.8867	0.01629	1.016
Mof_Mo	Mo	0.37881	0.84834	0.12199	1.301
Mof_Zn	Zn	0.34789	0.30713	0.42449	1.227
Mof_Zn	Zn	0.27609	0.48316	0.28166	1.226
Mof_Zn	Zn	0.63795	0.39759	0.30772	1.223
Mof_Zn	Zn	0.42696	0.52829	0.45733	1.214
Mof_Zn	Zn	0.60148	0.0087	0.02681	1.203
Mof_Zn	Zn	0.3987	0.92919	0.21538	1.226
Mof_Zn	Zn	0.56848	0.78421	0.08931	1.224
Mof_Zn	Zn	0.78892	0.92782	0.18548	1.221
Mof_C 	C 	0.9844	0.0868	0.4782	0.017
Mof_C 	C 	0.9763	0.0577	0.4385	-0.098
Mof_H 	H 	0.0104	0.0639	0.4096	0.057
Mof_C 	C 	0.9159	0.0184	0.4424	0.029
Mof_C 	C 	0.8726	0.0071	0.484	-0.095
Mof_H 	H 	0.8379	0.9791	0.4865	0.055
Mof_C 	C 	0.8761	0.0354	0.5249	0.007
Mof_C 	C 	0.9338	0.0771	0.5197	-0.089
Mof_H 	H 	0.9362	0.0978	0.5455	0.052
Mof_C 	C 	0.0443	0.13	0.4743	0.065
Mof_C 	C 	0.0208	0.1739	0.495	-0.15
Mof_H 	H 	0.9671	0.1768	0.512	0.063
Mof_C 	C 	0.0739	0.2145	0.4916	0.059
Mof_H 	H 	0.0551	0.2447	0.5051	-0.001
Mof_C 	C 	0.1547	0.2103	0.4683	-0.149
Mof_C 	C 	0.1784	0.1644	0.4461	0.07
Mof_H 	H 	0.2317	0.1613	0.4286	0.001
Mof_C 	C 	0.1263	0.1261	0.4499	-0.157
Mof_H 	H 	0.1443	0.0959	0.4362	0.079
Mof_C 	C 	0.21	0.256	0.4633	0.353
Mof_C 	C 	0.9096	0.9897	0.3982	0.038
Mof_C 	C 	0.887	0.9399	0.4003	-0.116
Mof_H 	H 	0.8804	0.9229	0.4306	0.065
Mof_C 	C 	0.8733	0.9132	0.3602	0.02
Mof_H 	H 	0.8588	0.8793	0.3631	0.019
Mof_C 	C 	0.8824	0.9402	0.3145	-0.122
Mof_C 	C 	0.9081	0.9884	0.31	0.028
Mof_H 	H 	0.9148	0.0057	0.2799	0.008
Mof_C 	C 	0.9244	0.0118	0.3526	-0.117
Mof_H 	H 	0.9466	0.0441	0.3495	0.054
Mof_C 	C 	0.8569	0.9142	0.2714	0.321
Mof_C 	C 	0.826	0.0256	0.5725	0.084
Mof_C 	C 	0.7493	0.0043	0.5773	-0.168
Mof_H 	H 	0.7274	0.9927	0.5502	0.073
Mof_C 	C 	0.7019	0.9991	0.6222	0.079
Mof_H 	H 	0.6492	0.9838	0.6246	-0.012
Mof_C 	C 	0.7314	0.0163	0.6632	-0.175
Mof_C 	C 	0.8106	0.0346	0.6585	0.093
Mof_H 	H 	0.8334	0.0448	0.6859	-0.005
Mof_C 	C 	0.8591	0.0387	0.6144	-0.171
Mof_H 	H 	0.9145	0.0503	0.6127	0.088
Mof_C 	C 	0.6752	0.0152	0.7103	0.374
Mof_C 	C 	0.047	0.5871	0.9504	0.03
Mof_C 	C 	0.968	0.6133	0.9566	-0.104
Mof_H 	H 	0.9466	0.63	0.93	0.057
Mof_C 	C 	0.9226	0.6145	0.0005	0.016
Mof_C 	C 	0.9578	0.5904	0.0406	-0.102
Mof_H 	H 	0.9271	0.5906	0.0711	0.054
Mof_C 	C 	0.0377	0.5663	0.0355	0.027
Mof_C 	C 	0.0799	0.5635	0.9896	-0.106
Mof_H 	H 	0.1312	0.5452	0.9853	0.062
Mof_C 	C 	0.0936	0.5852	0.9005	0.049
Mof_C 	C 	0.1298	0.5389	0.8856	-0.121
Mof_H 	H 	0.1229	0.5098	0.9058	0.069
Mof_C 	C 	0.1763	0.5372	0.8401	0.037
Mof_H 	H 	0.1974	0.5062	0.8294	0.016
Mof_C 	C 	0.1917	0.5798	0.8109	-0.125
Mof_C 	C 	0.1554	0.6248	0.8267	0.035
Mof_H 	H 	0.1635	0.6541	0.807	0.009
Mof_C 	C 	0.1063	0.6275	0.8719	-0.126
Mof_H 	H 	0.0828	0.6583	0.8819	0.055
Mof_C 	C 	0.2432	0.5761	0.7623	0.329
Mof_C 	C 	0.8336	0.6362	0.0071	0.069
Mof_C 	C 	0.7732	0.6274	0.9778	-0.167
Mof_H 	H 	0.7871	0.6062	0.9523	0.081
Mof_C 	C 	0.6938	0.6479	0.9834	0.088
Mof_H 	H 	0.6567	0.6426	0.9602	-0
Mof_C 	C 	0.6653	0.6768	0.0228	-0.186
Mof_C 	C 	0.7297	0.6863	0.0521	0.09
Mof_H 	H 	0.7156	0.7076	0.0774	-0.038
Mof_C 	C 	0.8095	0.6676	0.0471	-0.168
Mof_H 	H 	0.8484	0.6747	0.0687	0.057
Mof_C 	C 	0.5789	0.6982	0.0278	0.349
Mof_C 	C 	0.074	0.5416	0.0786	0.05
Mof_C 	C 	0.0645	0.5629	0.1229	-0.129
Mof_H 	H 	0.0316	0.5925	0.1265	0.055
Mof_C 	C 	0.1019	0.542	0.1622	0.051
Mof_H 	H 	0.0918	0.5561	0.1923	0.005
Mof_C 	C 	0.1525	0.5017	0.1566	-0.127
Mof_C 	C 	0.1647	0.4782	0.1134	0.046
Mof_H 	H 	0.1983	0.4488	0.1106	0.014
Mof_C 	C 	0.127	0.4986	0.0748	-0.124
Mof_H 	H 	0.1368	0.4835	0.0452	0.071
Mof_C 	C 	0.2014	0.4802	0.1978	0.319
Mof_O 	O 	0.6382	0.4508	0.3537	-0.733
Mof_O 	O 	0.3917	0.461	0.4855	-0.83
Mof_O 	O 	0.4609	0.3009	0.3888	-0.79
Mof_O 	O 	0.3544	0.5471	0.4068	-0.775
Mof_O 	O 	0.5826	0.3385	0.3407	-0.78
Mof_O 	O 	0.3486	0.361	0.4711	-0.789
Mof_O 	O 	0.2916	0.5289	0.3324	-0.788
Mof_O 	O 	0.5574	0.4284	0.2626	-0.722
Mof_O 	O 	0.2697	0.3388	0.3792	-0.728
Mof_O 	O 	0.5569	0.4282	0.4904	-0.739
Mof_O 	O 	0.2387	0.4169	0.3091	-0.725
Mof_O 	O 	0.6443	0.3745	0.4181	-0.655
Mof_O 	O 	0.5977	0.521	0.2844	-0.481
Mof_O 	O 	0.5418	0.5072	0.4264	-0.75
Mof_O 	O 	0.338	0.369	0.2421	-0.471
Mof_O 	O 	0.4298	0.38	0.555	-0.339
Mof_O 	O 	0.24	0.4918	0.4628	-0.662
Mof_O 	O 	0.1912	0.3938	0.4496	-0.481
Mof_O 	O 	0.502	0.5741	0.3569	-0.631
Mof_O 	O 	0.4314	0.5537	0.2751	-0.658
Mof_O 	O 	0.3884	0.4639	0.2485	-0.723
Mof_O 	O 	0.509	0.3307	0.4724	-0.675
Mof_O 	O 	0.1699	0.4716	0.3792	-0.649
Mof_O 	O 	0.5081	0.3348	0.2574	-0.632
Mof_O 	O 	0.3717	0.2928	0.3124	-0.641
Mof_O 	O 	0.2889	0.2473	0.4446	-0.483
Mof_O 	O 	0.1826	0.2956	0.4763	-0.343
Mof_O 	O 	0.2617	0.5326	0.7489	-0.33
Mof_O 	O 	0.267	0.6169	0.7406	-0.482
Mof_O 	O 	0.2015	0.5078	0.2339	-0.477
Mof_O 	O 	0.2386	0.4371	0.1957	-0.306
Mof_O 	O 	0.4969	0.0139	0.0736	-0.773
Mof_O 	O 	0.5057	0.9396	0.2447	-0.731
Mof_O 	O 	0.4139	0.9454	0.0281	-0.723
Mof_O 	O 	0.5855	0.939	0.0081	-0.763
Mof_O 	O 	0.6994	0.0078	0.0646	-0.794
Mof_O 	O 	0.5056	0.8398	0.2603	-0.654
Mof_O 	O 	0.402	0.8623	0.1902	-0.781
Mof_O 	O 	0.6859	0.9336	0.2324	-0.729
Mof_O 	O 	0.678	0.7929	0.1163	-0.728
Mof_O 	O 	0.6853	0.0279	0.1965	-0.652
Mof_O 	O 	0.5076	0.0351	0.2112	-0.483
Mof_O 	O 	0.4748	0.8011	0.1375	-0.785
Mof_O 	O 	0.3318	0.9128	0.1173	-0.645
Mof_O 	O 	0.4136	0.8436	0.0582	-0.651
Mof_O 	O 	0.7548	0.8309	0.0305	-0.495
Mof_O 	O 	0.8457	0.8955	0.0818	-0.639
Mof_O 	O 	0.5799	0.835	0.0346	-0.739
Mof_O 	O 	0.4067	0.9808	0.1615	-0.737
Mof_O 	O 	0.7538	0.9335	0.0069	-0.668
Mof_O 	O 	0.7781	0.8563	0.1665	-0.735
Mof_O 	O 	0.5876	0.7729	0.2009	-0.651
Mof_O 	O 	0.5965	0.0658	0.1242	-0.668
Mof_O 	O 	0.7816	0.9747	0.13	-0.782
Mof_O 	O 	0.6816	0.8338	0.2518	-0.473
Mof_O 	O 	0.6896	0.0518	0.7359	-0.498
Mof_O 	O 	0.6229	0.9829	0.7213	-0.339
Mof_O 	O 	0.5514	0.719	0.0676	-0.485
Mof_O 	O 	0.5174	0.6743	0.0107	-0.12
Mof_O 	O 	0.8232	0.8707	0.2759	-0.305
Mof_O 	O 	0.8702	0.938	0.2309	-0.485
Mof_O 	O 	0.479	0.3807	0.5482	-0.325
Mof_O 	O 	0.5328	0.6955	0.9907	-0.193
Mof_Mo	Mo	0.72046	0.65421	0.69141	1.038
Mof_Mo	Mo	0.80614	0.60235	0.62454	1.052
Mof_Mo	Mo	0.43203	0.67489	0.58676	1.309
Mof_Mo	Mo	0.50008	0.50628	0.74835	1.059
Mof_Mo	Mo	0.5421	0.59773	0.76232	1.037
Mof_Mo	Mo	0.71344	0.57554	0.51572	1.003
Mof_Mo	Mo	0.5148	0.69775	0.68269	1.313
Mof_Mo	Mo	0.60372	0.43183	0.66288	1.326
Mof_Mo	Mo	0.76196	0.48125	0.59887	1.285
Mof_Mo	Mo	0.5568	0.60607	0.50458	1.616
Mof_Mo	Mo	0.40609	0.4794	0.63986	1.041
Mof_Mo	Mo	0.38202	0.55181	0.57469	1.009
Mof_Mo	Mo	0.21784	0.16785	0.89818	1.017
Mof_Mo	Mo	0.29914	0.19876	0.81603	1.052
Mof_Mo	Mo	0.51712	0.1943	0.79175	1.321
Mof_Mo	Mo	0.20528	0.04452	0.93928	1.265
Mof_Mo	Mo	0.40574	0.10876	0.7366	1.062
Mof_Mo	Mo	0.33492	0.11868	0.99662	0.996
Mof_Mo	Mo	0.6051	0.02454	0.90701	1.03
Mof_Mo	Mo	0.40139	0.01295	0.76261	1.068
Mof_Mo	Mo	0.29957	0.96466	0.86935	1.298
Mof_Mo	Mo	0.51862	0.96359	0.86053	1.024
Mof_Mo	Mo	0.50188	0.1133	0.98371	1.016
Mof_Mo	Mo	0.62119	0.15166	0.87801	1.301
Mof_Zn	Zn	0.65211	0.69287	0.57551	1.227
Mof_Zn	Zn	0.72391	0.51684	0.71834	1.226
Mof_Zn	Zn	0.36205	0.60241	0.69228	1.223
Mof_Zn	Zn	0.57304	0.47171	0.54267	1.214
Mof_Zn	Zn	0.39852	0.9913	0.97319	1.203
Mof_Zn	Zn	0.6013	0.07081	0.78462	1.226
Mof_Zn	Zn	0.43152	0.21579	0.91069	1.224
Mof_Zn	Zn	0.21108	0.07218	0.81452	1.221
Mof_C 	C 	0.0156	0.9132	0.5218	0.017
Mof_C 	C 	0.0237	0.9423	0.5615	-0.098
Mof_H 	H 	0.9896	0.9361	0.5904	0.057
Mof_C 	C 	0.0841	0.9816	0.5576	0.029
Mof_C 	C 	0.1274	0.9929	0.516	-0.095
Mof_H 	H 	0.1621	0.0209	0.5135	0.055
Mof_C 	C 	0.1239	0.9646	0.4751	0.007
Mof_C 	C 	0.0662	0.9229	0.4803	-0.089
Mof_H 	H 	0.0638	0.9022	0.4545	0.052
Mof_C 	C 	0.9557	0.87	0.5257	0.065
Mof_C 	C 	0.9792	0.8261	0.505	-0.15
Mof_H 	H 	0.0329	0.8232	0.488	0.063
Mof_C 	C 	0.9261	0.7855	0.5084	0.059
Mof_H 	H 	0.9449	0.7553	0.4949	-0.001
Mof_C 	C 	0.8453	0.7897	0.5317	-0.149
Mof_C 	C 	0.8216	0.8356	0.5539	0.07
Mof_H 	H 	0.7683	0.8387	0.5714	0.001
Mof_C 	C 	0.8737	0.8739	0.5501	-0.157
Mof_H 	H 	0.8557	0.9041	0.5638	0.079
Mof_C 	C 	0.79	0.744	0.5367	0.353
Mof_C 	C 	0.0904	0.0103	0.6018	0.038
Mof_C 	C 	0.113	0.0601	0.5997	-0.116
Mof_H 	H 	0.1196	0.0771	0.5694	0.065
Mof_C 	C 	0.1267	0.0868	0.6398	0.02
Mof_H 	H 	0.1412	0.1207	0.6369	0.019
Mof_C 	C 	0.1176	0.0598	0.6855	-0.122
Mof_C 	C 	0.0919	0.0116	0.69	0.028
Mof_H 	H 	0.0852	0.9943	0.7201	0.008
Mof_C 	C 	0.0756	0.9882	0.6474	-0.117
Mof_H 	H 	0.0534	0.9559	0.6505	0.054
Mof_C 	C 	0.1431	0.0858	0.7286	0.321
Mof_C 	C 	0.174	0.9744	0.4275	0.084
Mof_C 	C 	0.2507	0.9957	0.4227	-0.168
Mof_H 	H 	0.2726	0.0073	0.4498	0.073
Mof_C 	C 	0.2981	0.0009	0.3778	0.079
Mof_H 	H 	0.3508	0.0162	0.3754	-0.012
Mof_C 	C 	0.2686	0.9837	0.3368	-0.175
Mof_C 	C 	0.1894	0.9654	0.3415	0.093
Mof_H 	H 	0.1666	0.9552	0.3141	-0.005
Mof_C 	C 	0.1409	0.9613	0.3856	-0.171
Mof_H 	H 	0.0855	0.9497	0.3873	0.088
Mof_C 	C 	0.3248	0.9848	0.2897	0.374
Mof_C 	C 	0.953	0.4129	0.0496	0.03
Mof_C 	C 	0.032	0.3867	0.0434	-0.104
Mof_H 	H 	0.0534	0.37	0.07	0.057
Mof_C 	C 	0.0774	0.3855	0.9995	0.016
Mof_C 	C 	0.0422	0.4096	0.9594	-0.102
Mof_H 	H 	0.0729	0.4094	0.9289	0.054
Mof_C 	C 	0.9623	0.4337	0.9645	0.027
Mof_C 	C 	0.9201	0.4365	0.0104	-0.106
Mof_H 	H 	0.8688	0.4548	0.0147	0.062
Mof_C 	C 	0.9064	0.4148	0.0995	0.049
Mof_C 	C 	0.8702	0.4611	0.1144	-0.121
Mof_H 	H 	0.8771	0.4902	0.0942	0.069
Mof_C 	C 	0.8237	0.4628	0.1599	0.037
Mof_H 	H 	0.8026	0.4938	0.1706	0.016
Mof_C 	C 	0.8083	0.4202	0.1891	-0.125
Mof_C 	C 	0.8446	0.3752	0.1733	0.035
Mof_H 	H 	0.8365	0.3459	0.193	0.009
Mof_C 	C 	0.8937	0.3725	0.1281	-0.126
Mof_H 	H 	0.9172	0.3417	0.1181	0.055
Mof_C 	C 	0.7568	0.4239	0.2377	0.329
Mof_C 	C 	0.1664	0.3638	0.9929	0.069
Mof_C 	C 	0.2268	0.3726	0.0222	-0.167
Mof_H 	H 	0.2129	0.3938	0.0477	0.081
Mof_C 	C 	0.3062	0.3521	0.0166	0.088
Mof_H 	H 	0.3433	0.3574	0.0398	-0
Mof_C 	C 	0.3347	0.3232	0.9772	-0.186
Mof_C 	C 	0.2703	0.3137	0.9479	0.09
Mof_H 	H 	0.2844	0.2924	0.9226	-0.038
Mof_C 	C 	0.1905	0.3324	0.9529	-0.168
Mof_H 	H 	0.1516	0.3253	0.9313	0.057
Mof_C 	C 	0.4211	0.3018	0.9722	0.349
Mof_C 	C 	0.926	0.4584	0.9214	0.05
Mof_C 	C 	0.9355	0.4371	0.8771	-0.129
Mof_H 	H 	0.9684	0.4075	0.8735	0.055
Mof_C 	C 	0.8981	0.458	0.8378	0.051
Mof_H 	H 	0.9082	0.4439	0.8077	0.005
Mof_C 	C 	0.8475	0.4983	0.8434	-0.127
Mof_C 	C 	0.8353	0.5218	0.8866	0.046
Mof_H 	H 	0.8017	0.5512	0.8894	0.014
Mof_C 	C 	0.873	0.5014	0.9252	-0.124
Mof_H 	H 	0.8632	0.5165	0.9548	0.071
Mof_C 	C 	0.7986	0.5198	0.8022	0.319
Mof_O 	O 	0.3618	0.5492	0.6463	-0.733
Mof_O 	O 	0.6083	0.539	0.5145	-0.83
Mof_O 	O 	0.5391	0.6991	0.6112	-0.79
Mof_O 	O 	0.6456	0.4529	0.5932	-0.775
Mof_O 	O 	0.4174	0.6615	0.6593	-0.78
Mof_O 	O 	0.6514	0.639	0.5289	-0.789
Mof_O 	O 	0.7084	0.4711	0.6676	-0.788
Mof_O 	O 	0.4426	0.5716	0.7374	-0.722
Mof_O 	O 	0.7303	0.6612	0.6208	-0.728
Mof_O 	O 	0.4431	0.5718	0.5096	-0.739
Mof_O 	O 	0.7613	0.5831	0.6909	-0.725
Mof_O 	O 	0.3557	0.6255	0.5819	-0.655
Mof_O 	O 	0.4023	0.479	0.7156	-0.481
Mof_O 	O 	0.4582	0.4928	0.5736	-0.75
Mof_O 	O 	0.662	0.631	0.7579	-0.471
Mof_O 	O 	0.5702	0.62	0.445	-0.339
Mof_O 	O 	0.76	0.5082	0.5372	-0.662
Mof_O 	O 	0.8088	0.6062	0.5504	-0.481
Mof_O 	O 	0.498	0.4259	0.6431	-0.631
Mof_O 	O 	0.5686	0.4463	0.7249	-0.658
Mof_O 	O 	0.6116	0.5361	0.7515	-0.723
Mof_O 	O 	0.491	0.6693	0.5276	-0.675
Mof_O 	O 	0.8301	0.5284	0.6208	-0.649
Mof_O 	O 	0.4919	0.6652	0.7426	-0.632
Mof_O 	O 	0.6283	0.7072	0.6876	-0.641
Mof_O 	O 	0.7111	0.7527	0.5554	-0.483
Mof_O 	O 	0.8174	0.7044	0.5237	-0.343
Mof_O 	O 	0.7383	0.4674	0.2511	-0.33
Mof_O 	O 	0.733	0.3831	0.2594	-0.482
Mof_O 	O 	0.7985	0.4922	0.7661	-0.477
Mof_O 	O 	0.7614	0.5629	0.8043	-0.306
Mof_O 	O 	0.5031	0.9861	0.9264	-0.773
Mof_O 	O 	0.4943	0.0604	0.7553	-0.731
Mof_O 	O 	0.5861	0.0546	0.9719	-0.723
Mof_O 	O 	0.4145	0.061	0.9919	-0.763
Mof_O 	O 	0.3006	0.9922	0.9354	-0.794
Mof_O 	O 	0.4944	0.1602	0.7397	-0.654
Mof_O 	O 	0.598	0.1377	0.8098	-0.781
Mof_O 	O 	0.3141	0.0664	0.7676	-0.729
Mof_O 	O 	0.322	0.2071	0.8837	-0.728
Mof_O 	O 	0.3147	0.9721	0.8035	-0.652
Mof_O 	O 	0.4924	0.9649	0.7888	-0.483
Mof_O 	O 	0.5252	0.1989	0.8625	-0.785
Mof_O 	O 	0.6682	0.0872	0.8827	-0.645
Mof_O 	O 	0.5864	0.1564	0.9418	-0.651
Mof_O 	O 	0.2452	0.1691	0.9695	-0.495
Mof_O 	O 	0.1543	0.1045	0.9182	-0.639
Mof_O 	O 	0.4201	0.165	0.9654	-0.739
Mof_O 	O 	0.5933	0.0192	0.8385	-0.737
Mof_O 	O 	0.2462	0.0665	0.9931	-0.668
Mof_O 	O 	0.2219	0.1437	0.8335	-0.735
Mof_O 	O 	0.4124	0.2271	0.7991	-0.651
Mof_O 	O 	0.4035	0.9342	0.8758	-0.668
Mof_O 	O 	0.2184	0.0253	0.87	-0.782
Mof_O 	O 	0.3184	0.1662	0.7482	-0.473
Mof_O 	O 	0.3104	0.9482	0.2641	-0.498
Mof_O 	O 	0.3771	0.0171	0.2787	-0.339
Mof_O 	O 	0.4486	0.281	0.9324	-0.485
Mof_O 	O 	0.4826	0.3257	0.9893	-0.12
Mof_O 	O 	0.1768	0.1293	0.7241	-0.305
Mof_O 	O 	0.1298	0.062	0.7691	-0.485
Mof_O 	O 	0.521	0.6193	0.4518	-0.325
Mof_O 	O 	0.4672	0.3045	0.0093	-0.193
_end
