data_functionalizedCrystal
_audit_creation_method	'EQeq! by Chris Wilmer'
_symmetry_space_group_name_H-M	'P1'
_symmetry_Int_Tables_number	1
_symmetry_cell_setting	triclinic
loop_
_symmetry_equiv_pos_as_xyz
  x,y,z
_cell_length_a	13.2529
_cell_length_b	13.253
_cell_length_c	13.995
_cell_angle_alpha	90
_cell_angle_beta	90
_cell_angle_gamma	90
loop_
_atom_site_label
_atom_site_type_symbol
_atom_site_fract_x
_atom_site_fract_y
_atom_site_fract_z
_atom_site_charge
Mof_Co	Co	0.97058	0.00258	0.8727	1.076
Mof_Co	Co	0.02942	0.99742	0.3727	1.077
Mof_Co	Co	0.02942	0.00258	0.6273	1.079
Mof_Co	Co	0.97058	0.99742	0.1273	1.074
Mof_H 	H 	0.7294	0.9977	0.8614	-0.018
Mof_H 	H 	0.9192	0.7651	0.8675	-0.02
Mof_H 	H 	0.9502	0.587	0.8797	0.047
Mof_H 	H 	0.9474	0.4174	0.8871	0.039
Mof_H 	H 	0.5589	0.0048	0.8534	0.051
Mof_H 	H 	0.3866	0.0047	0.8569	0.036
Mof_H 	H 	0.2706	0.0023	0.3614	-0.017
Mof_H 	H 	0.0808	0.2349	0.3675	-0.02
Mof_H 	H 	0.0498	0.413	0.3797	0.047
Mof_H 	H 	0.0526	0.5826	0.3871	0.039
Mof_H 	H 	0.4411	0.9952	0.3534	0.049
Mof_H 	H 	0.6134	0.9953	0.3569	0.035
Mof_H 	H 	0.2706	0.9977	0.6386	-0.018
Mof_H 	H 	0.0808	0.7651	0.6325	-0.021
Mof_H 	H 	0.0498	0.587	0.6203	0.046
Mof_H 	H 	0.0526	0.4174	0.6129	0.04
Mof_H 	H 	0.4411	0.0048	0.6466	0.05
Mof_H 	H 	0.6134	0.0047	0.6431	0.035
Mof_H 	H 	0.7294	0.0023	0.1386	-0.018
Mof_H 	H 	0.9192	0.2349	0.1325	-0.02
Mof_H 	H 	0.9502	0.413	0.1203	0.047
Mof_H 	H 	0.9474	0.5826	0.1129	0.039
Mof_H 	H 	0.5589	0.9952	0.1466	0.051
Mof_H 	H 	0.3866	0.9953	0.1431	0.036
Mof_C 	C 	0.7516	0.998	0.9259	0.05
Mof_C 	C 	0.9576	0.7853	0.8135	0.052
Mof_C 	C 	0.9719	0.5537	0.8232	-0.071
Mof_C 	C 	0.9692	0.4497	0.8301	-0.051
Mof_C 	C 	0.5238	0.0029	0.9126	-0.087
Mof_C 	C 	0.4223	0.0028	0.9157	-0.047
Mof_C 	C 	0.1859	0.0248	0.9225	0.004
Mof_C 	C 	0.9707	0.2229	0.8252	-0.011
Mof_C 	C 	0.2484	0.002	0.4259	0.052
Mof_C 	C 	0.0424	0.2147	0.3135	0.054
Mof_C 	C 	0.0281	0.4463	0.3232	-0.068
Mof_C 	C 	0.0308	0.5503	0.3301	-0.05
Mof_C 	C 	0.4762	0.9971	0.4126	-0.08
Mof_C 	C 	0.5777	0.9972	0.4157	-0.043
Mof_C 	C 	0.8141	0.9752	0.4225	0.007
Mof_C 	C 	0.0293	0.7771	0.3252	-0.008
Mof_C 	C 	0.2484	0.998	0.5741	0.049
Mof_C 	C 	0.0424	0.7853	0.6865	0.054
Mof_C 	C 	0.0281	0.5537	0.6768	-0.068
Mof_C 	C 	0.0308	0.4497	0.6699	-0.05
Mof_C 	C 	0.4762	0.0029	0.5874	-0.078
Mof_C 	C 	0.5777	0.0028	0.5843	-0.041
Mof_C 	C 	0.8141	0.0248	0.5775	0.009
Mof_C 	C 	0.0293	0.2229	0.6748	-0.008
Mof_C 	C 	0.7516	0.002	0.0741	0.054
Mof_C 	C 	0.9576	0.2147	0.1865	0.052
Mof_C 	C 	0.9719	0.4463	0.1768	-0.071
Mof_C 	C 	0.9692	0.5503	0.1699	-0.051
Mof_C 	C 	0.5238	0.9971	0.0874	-0.088
Mof_C 	C 	0.4223	0.9972	0.0843	-0.048
Mof_C 	C 	0.1859	0.9752	0.0775	0.003
Mof_C 	C 	0.9707	0.7771	0.1748	-0.011
Mof_C 	C 	-7.30006e-33	0.7202	0.75	-0.08
Mof_C 	C 	-7.30006e-33	0.62	0.75	0.049
Mof_C 	C 	-7.30006e-33	0.3932	0.75	0.018
Mof_C 	C 	-7.30006e-33	0.288	0.75	-0.017
Mof_C 	C 	9.89837e-34	0.2798	0.25	-0.08
Mof_C 	C 	-1.57756e-33	0.38	0.25	0.05
Mof_C 	C 	3.55723e-33	0.6068	0.25	0.018
Mof_C 	C 	-1.57756e-33	0.712	0.25	-0.017
Mof_C 	C 	0.6879	0	-0	-0.074
Mof_C 	C 	0.5759	0	-0	0.063
Mof_C 	C 	0.3663	0	-0	0.021
Mof_C 	C 	0.2546	0	-0	-0.022
Mof_C 	C 	0.3121	0	0.5	-0.073
Mof_C 	C 	0.4241	0	0.5	0.051
Mof_C 	C 	0.6337	0	0.5	0.013
Mof_C 	C 	0.7454	0	0.5	-0.03
Mof_N 	N 	0.9761	0.8771	0.7913	-0.257
Mof_N 	N 	0.8479	0.9948	0.9498	-0.27
Mof_N 	N 	0.0947	0.0193	0.9536	-0.252
Mof_N 	N 	0.9773	0.1213	0.7931	-0.257
Mof_N 	N 	0.0239	0.1229	0.2913	-0.255
Mof_N 	N 	0.1521	0.0052	0.4498	-0.269
Mof_N 	N 	0.9053	0.9807	0.4536	-0.254
Mof_N 	N 	0.0227	0.8787	0.2931	-0.256
Mof_N 	N 	0.0239	0.8771	0.7087	-0.256
Mof_N 	N 	0.1521	0.9948	0.5502	-0.271
Mof_N 	N 	0.9053	0.0193	0.5464	-0.253
Mof_N 	N 	0.0227	0.1213	0.7069	-0.256
Mof_N 	N 	0.9761	0.1229	0.2087	-0.256
Mof_N 	N 	0.8479	0.0052	0.0502	-0.268
Mof_N 	N 	0.0947	0.9807	0.0464	-0.253
Mof_N 	N 	0.9773	0.8787	0.2069	-0.258
_end
