data_functionalizedCrystal
_audit_creation_method	'EQeq! by Chris Wilmer'
_symmetry_space_group_name_H-M	'P1'
_symmetry_Int_Tables_number	1
_symmetry_cell_setting	triclinic
loop_
_symmetry_equiv_pos_as_xyz
  x,y,z
_cell_length_a	6.0915
_cell_length_b	9.961
_cell_length_c	13.361
_cell_angle_alpha	68.87
_cell_angle_beta	81.01
_cell_angle_gamma	76.72
loop_
_atom_site_label
_atom_site_type_symbol
_atom_site_fract_x
_atom_site_fract_y
_atom_site_fract_z
_atom_site_charge
Mof_Eu	Eu	0.66828	0.38562	0.80391	2.237
Mof_Eu	Eu	0.33172	0.61438	0.19609	2.237
Mof_H 	H 	0.8277	0.0452	0.0268	-0
Mof_H 	H 	0.2019	0.3265	0.6308	-0.018
Mof_H 	H 	0.0102	0.4989	0.7688	0.334
Mof_H 	H 	0.918	0.5791	0.8368	0.373
Mof_H 	H 	0.1723	0.9548	0.9732	-0
Mof_H 	H 	0.7981	0.6735	0.3692	-0.018
Mof_H 	H 	0.9898	0.5011	0.2312	0.334
Mof_H 	H 	0.082	0.4209	0.1632	0.373
Mof_C 	C 	0.2107	0.2328	0.8582	0.433
Mof_C 	C 	0.3669	0.1045	0.9314	-0.114
Mof_C 	C 	0.6912	0.0289	0.0149	0.097
Mof_C 	C 	0.5502	0.6173	0.5604	0.388
Mof_C 	C 	0.7886	0.5552	0.5274	-0.078
Mof_C 	C 	0.115	0.3986	0.5783	0.097
Mof_C 	C 	0.4089	0.5605	0.9665	0.266
Mof_C 	C 	0.7893	0.7672	0.1418	0.433
Mof_C 	C 	0.6331	0.8955	0.0686	-0.114
Mof_C 	C 	0.3088	0.9711	0.9851	0.097
Mof_C 	C 	0.4498	0.3827	0.4396	0.388
Mof_C 	C 	0.2114	0.4448	0.4726	-0.078
Mof_C 	C 	0.885	0.6014	0.4217	0.097
Mof_C 	C 	0.5911	0.4395	0.0335	0.266
Mof_N 	N 	0.5609	0.1352	0.9468	-0.21
Mof_N 	N 	0.9062	0.4533	0.6065	-0.206
Mof_N 	N 	0.4391	0.8648	0.0532	-0.21
Mof_N 	N 	0.0938	0.5467	0.3935	-0.206
Mof_O 	O 	0.2852	0.3516	0.8151	-0.55
Mof_O 	O 	0.0205	0.2156	0.8477	-0.542
Mof_O 	O 	0.4864	0.569	0.6573	-0.482
Mof_O 	O 	0.4321	0.7099	0.4898	-0.282
Mof_O 	O 	0.2755	0.6373	0.0135	-0.46
Mof_O 	O 	0.4151	0.5693	0.8707	-0.422
Mof_O 	O 	0.9071	0.5659	0.7791	-0.861
Mof_O 	O 	0.7148	0.6484	0.1849	-0.55
Mof_O 	O 	0.9795	0.7844	0.1523	-0.542
Mof_O 	O 	0.5136	0.431	0.3427	-0.482
Mof_O 	O 	0.5679	0.2901	0.5102	-0.282
Mof_O 	O 	0.7245	0.3627	0.9865	-0.46
Mof_O 	O 	0.5849	0.4307	0.1293	-0.422
Mof_O 	O 	0.0929	0.4341	0.2209	-0.861
_end
