data_functionalizedCrystal
_audit_creation_method	'EQeq! by Chris Wilmer'
_symmetry_space_group_name_H-M	'P1'
_symmetry_Int_Tables_number	1
_symmetry_cell_setting	triclinic
loop_
_symmetry_equiv_pos_as_xyz
  x,y,z
_cell_length_a	10.224
_cell_length_b	11.2172
_cell_length_c	11.3302
_cell_angle_alpha	69.059
_cell_angle_beta	76.93
_cell_angle_gamma	88.666
loop_
_atom_site_label
_atom_site_type_symbol
_atom_site_fract_x
_atom_site_fract_y
_atom_site_fract_z
_atom_site_charge
Mof_Cd	Cd	0.11656	0.3648	0.47451	0.433
Mof_Cd	Cd	0.66101	0.94091	0.89664	0.385
Mof_Cd	Cd	0.72536	0.204	0.28745	0.438
Mof_N 	N 	0.2963	0.39407	0.55144	-0.148
Mof_N 	N 	0.1963	0.10016	0.9668	-0.142
Mof_O 	O 	0.08872	0.53962	0.56637	-0.258
Mof_O 	O 	0.1668	0.61831	0.69431	-0.252
Mof_O 	O 	0.5215	0.21597	0.40838	-0.266
Mof_O 	O 	0.3129	0.26293	0.39342	-0.253
Mof_O 	O 	0.56676	0.34796	0.78131	-0.461
Mof_H 	H 	0.5242	0.3237	0.8572	0.26
Mof_O 	O 	0.43786	0.00952	0.90243	-0.279
Mof_O 	O 	0.37414	0.96596	0.745	-0.26
Mof_O 	O 	0.9306	0.20643	0.15612	-0.256
Mof_O 	O 	0.1259	0.1325	0.19481	-0.249
Mof_O 	O 	0.98483	0.25656	0.68275	-0.243
Mof_C 	C 	0.2858	0.4561	0.6347	0.088
Mof_C 	C 	0.3733	0.4442	0.7125	-0.254
Mof_H 	H 	0.3605	0.4875	0.7701	0.132
Mof_C 	C 	0.4837	0.3661	0.7055	0.34
Mof_C 	C 	0.4986	0.3099	0.6107	-0.242
Mof_H 	H 	0.5726	0.2627	0.5967	0.145
Mof_C 	C 	0.4036	0.325	0.539	0.08
Mof_C 	C 	0.1715	0.5436	0.6326	0.253
Mof_C 	C 	0.4139	0.2624	0.4393	0.27
Mof_C 	C 	0.2307	0.0829	0.8522	0.056
Mof_C 	C 	0.1593	0.1273	0.7579	-0.188
Mof_H 	H 	0.1852	0.1099	0.6818	0.114
Mof_C 	C 	0.0467	0.1992	0.7761	0.24
Mof_C 	C 	0.005	0.2051	0.9016	-0.186
Mof_H 	H 	0.9254	0.2424	0.9233	0.121
Mof_C 	C 	0.0813	0.156	0.9917	0.062
Mof_C 	C 	0.357	0.0137	0.8319	0.262
Mof_C 	C 	0.0432	0.1652	0.124	0.257
Mof_Cd	Cd	0.88344	0.6352	0.52549	0.434
Mof_Cd	Cd	0.33899	0.05909	0.10336	0.386
Mof_Cd	Cd	0.27464	0.796	0.71255	0.438
Mof_N 	N 	0.7037	0.60593	0.44856	-0.148
Mof_N 	N 	0.8037	0.89984	0.0332	-0.142
Mof_O 	O 	0.91128	0.46038	0.43363	-0.258
Mof_O 	O 	0.8332	0.38169	0.30569	-0.252
Mof_O 	O 	0.4785	0.78403	0.59162	-0.266
Mof_O 	O 	0.6871	0.73707	0.60658	-0.253
Mof_O 	O 	0.43324	0.65204	0.21869	-0.461
Mof_H 	H 	0.4758	0.6763	0.1428	0.26
Mof_O 	O 	0.56214	0.99048	0.09757	-0.279
Mof_O 	O 	0.62586	0.03404	0.255	-0.26
Mof_O 	O 	0.0694	0.79357	0.84388	-0.256
Mof_O 	O 	0.8741	0.8675	0.80519	-0.249
Mof_O 	O 	0.01517	0.74344	0.31725	-0.243
Mof_C 	C 	0.7142	0.5439	0.3653	0.088
Mof_C 	C 	0.6267	0.5558	0.2875	-0.254
Mof_H 	H 	0.6395	0.5125	0.2299	0.132
Mof_C 	C 	0.5163	0.6339	0.2945	0.34
Mof_C 	C 	0.5014	0.6901	0.3893	-0.242
Mof_H 	H 	0.4274	0.7373	0.4033	0.145
Mof_C 	C 	0.5964	0.675	0.461	0.08
Mof_C 	C 	0.8285	0.4564	0.3674	0.253
Mof_C 	C 	0.5861	0.7376	0.5607	0.27
Mof_C 	C 	0.7693	0.9171	0.1478	0.056
Mof_C 	C 	0.8407	0.8727	0.2421	-0.188
Mof_H 	H 	0.8148	0.8901	0.3182	0.114
Mof_C 	C 	0.9533	0.8008	0.2239	0.24
Mof_C 	C 	0.995	0.7949	0.0984	-0.186
Mof_H 	H 	0.0746	0.7576	0.0767	0.121
Mof_C 	C 	0.9187	0.844	0.0083	0.062
Mof_C 	C 	0.643	0.9863	0.1681	0.262
Mof_C 	C 	0.9568	0.8348	0.876	0.257
_end
