data_functionalizedCrystal
_audit_creation_method	'EQeq! by Chris Wilmer'
_symmetry_space_group_name_H-M	'P1'
_symmetry_Int_Tables_number	1
_symmetry_cell_setting	triclinic
loop_
_symmetry_equiv_pos_as_xyz
  x,y,z
_cell_length_a	16.646
_cell_length_b	18.345
_cell_length_c	16.309
_cell_angle_alpha	90
_cell_angle_beta	108.893
_cell_angle_gamma	90
loop_
_atom_site_label
_atom_site_type_symbol
_atom_site_fract_x
_atom_site_fract_y
_atom_site_fract_z
_atom_site_charge
Mof_Zn	Zn	0.0595	0.13772	0.36451	1.235
Mof_O 	O 	0.0969	0.09731	0.4812	-0.449
Mof_O 	O 	0.2264	0.14091	0.5046	-0.487
Mof_O 	O 	0.5105	0.26561	0.8497	-0.505
Mof_O 	O 	0.6217	0.2248	0.9492	-0.499
Mof_O 	O 	0.6587	0.9596	0.995	-0.378
Mof_H 	H 	0.6859	0.9215	0.0063	0.205
Mof_O 	O 	0.5535	0.8839	0.9272	-0.242
Mof_O 	O 	0.1358	0.90392	0.8085	-0.483
Mof_O 	O 	0.0436	0.923	0.6766	-0.481
Mof_C 	C 	0.1745	0.1052	0.5274	0.388
Mof_C 	C 	0.2015	0.0682	0.6141	-0.109
Mof_C 	C 	0.2816	0.082	0.6721	-0.006
Mof_H 	H 	0.3174	0.1147	0.6574	0.033
Mof_C 	C 	0.3092	0.047	0.7533	0.002
Mof_C 	C 	0.2536	0.9975	0.7741	-0.011
Mof_H 	H 	0.2702	0.974	0.8275	0.073
Mof_C 	C 	0.1737	0.9842	0.7143	-0.104
Mof_C 	C 	0.1488	0.0188	0.6342	0.048
Mof_H 	H 	0.0961	0.0085	0.594	0.05
Mof_C 	C 	0.1128	0.9332	0.7353	0.417
Mof_C 	C 	0.3974	0.0593	0.8126	0.009
Mof_C 	C 	0.4338	0.1285	0.824	0.002
Mof_H 	H 	0.4033	0.1676	0.7927	0.043
Mof_C 	C 	0.5151	0.14	0.8813	-0.11
Mof_C 	C 	0.5634	0.0811	0.9232	0.041
Mof_H 	H 	0.618	0.0884	0.9614	0.06
Mof_C 	C 	0.5302	0.0114	0.9079	-0.07
Mof_C 	C 	0.4473	0.0017	0.8553	-0.017
Mof_H 	H 	0.4242	0.955	0.8484	0.067
Mof_C 	C 	0.5528	0.2156	0.8938	0.448
Mof_C 	C 	0.5812	0.9455	0.9444	0.348
Mof_Zn	Zn	0.5595	0.63772	0.36451	1.234
Mof_O 	O 	0.5969	0.59731	0.4812	-0.45
Mof_O 	O 	0.7264	0.64091	0.5046	-0.488
Mof_O 	O 	0.0105	0.76561	0.8497	-0.506
Mof_O 	O 	0.1217	0.7248	0.9492	-0.499
Mof_O 	O 	0.1587	0.4596	0.995	-0.378
Mof_H 	H 	0.1859	0.4215	0.0063	0.205
Mof_O 	O 	0.0535	0.3839	0.9272	-0.242
Mof_O 	O 	0.6358	0.40392	0.8085	-0.484
Mof_O 	O 	0.5436	0.423	0.6766	-0.481
Mof_C 	C 	0.6745	0.6052	0.5274	0.389
Mof_C 	C 	0.7015	0.5682	0.6141	-0.109
Mof_C 	C 	0.7816	0.582	0.6721	-0.006
Mof_H 	H 	0.8174	0.6147	0.6574	0.033
Mof_C 	C 	0.8092	0.547	0.7533	0.002
Mof_C 	C 	0.7536	0.4975	0.7741	-0.012
Mof_H 	H 	0.7702	0.474	0.8275	0.073
Mof_C 	C 	0.6737	0.4842	0.7143	-0.104
Mof_C 	C 	0.6488	0.5188	0.6342	0.049
Mof_H 	H 	0.5961	0.5085	0.594	0.05
Mof_C 	C 	0.6128	0.4332	0.7353	0.417
Mof_C 	C 	0.8974	0.5593	0.8126	0.01
Mof_C 	C 	0.9338	0.6285	0.824	-0
Mof_H 	H 	0.9033	0.6676	0.7927	0.043
Mof_C 	C 	0.0151	0.64	0.8813	-0.108
Mof_C 	C 	0.0634	0.5811	0.9232	0.039
Mof_H 	H 	0.118	0.5884	0.9614	0.061
Mof_C 	C 	0.0302	0.5114	0.9079	-0.067
Mof_C 	C 	0.9473	0.5017	0.8553	-0.018
Mof_H 	H 	0.9242	0.455	0.8484	0.066
Mof_C 	C 	0.0528	0.7156	0.8938	0.447
Mof_C 	C 	0.0812	0.4455	0.9444	0.347
Mof_Zn	Zn	0.9405	0.13772	0.13549	1.232
Mof_O 	O 	0.9031	0.09731	0.0188	-0.501
Mof_O 	O 	0.7736	0.14091	0.9954	-0.479
Mof_O 	O 	0.4895	0.26561	0.6503	-0.512
Mof_O 	O 	0.3783	0.2248	0.5508	-0.522
Mof_O 	O 	0.3413	0.9596	0.505	-0.471
Mof_H 	H 	0.3141	0.9215	0.4937	0.282
Mof_O 	O 	0.4465	0.8839	0.5728	-0.27
Mof_O 	O 	0.8642	0.90392	0.6915	-0.493
Mof_O 	O 	0.9564	0.923	0.8234	-0.479
Mof_C 	C 	0.8255	0.1052	0.9726	0.447
Mof_C 	C 	0.7985	0.0682	0.8859	-0.124
Mof_C 	C 	0.7184	0.082	0.8279	0.005
Mof_H 	H 	0.6826	0.1147	0.8426	0.03
Mof_C 	C 	0.6908	0.047	0.7467	-0.004
Mof_C 	C 	0.7464	0.9975	0.7259	-0.004
Mof_H 	H 	0.7298	0.974	0.6725	0.061
Mof_C 	C 	0.8263	0.9842	0.7857	-0.111
Mof_C 	C 	0.8512	0.0188	0.8658	0.063
Mof_H 	H 	0.9039	0.0085	0.906	0.056
Mof_C 	C 	0.8872	0.9332	0.7647	0.422
Mof_C 	C 	0.6026	0.0593	0.6874	0.001
Mof_C 	C 	0.5662	0.1285	0.676	0.006
Mof_H 	H 	0.5967	0.1676	0.7073	0.04
Mof_C 	C 	0.4849	0.14	0.6187	-0.124
Mof_C 	C 	0.4366	0.0811	0.5768	0.05
Mof_H 	H 	0.382	0.0884	0.5386	0.05
Mof_C 	C 	0.4698	0.0114	0.5921	-0.091
Mof_C 	C 	0.5527	0.0017	0.6447	-0.01
Mof_H 	H 	0.5758	0.955	0.6516	0.059
Mof_C 	C 	0.4472	0.2156	0.6062	0.453
Mof_C 	C 	0.4188	0.9455	0.5556	0.372
Mof_Zn	Zn	0.4405	0.63772	0.13549	1.232
Mof_O 	O 	0.4031	0.59731	0.0188	-0.506
Mof_O 	O 	0.2736	0.64091	0.9954	-0.479
Mof_O 	O 	0.9895	0.76561	0.6503	-0.513
Mof_O 	O 	0.8783	0.7248	0.5508	-0.522
Mof_O 	O 	0.8413	0.4596	0.505	-0.47
Mof_H 	H 	0.8141	0.4215	0.4937	0.282
Mof_O 	O 	0.9465	0.3839	0.5728	-0.271
Mof_O 	O 	0.3642	0.40392	0.6915	-0.492
Mof_O 	O 	0.4564	0.423	0.8234	-0.479
Mof_C 	C 	0.3255	0.6052	0.9726	0.452
Mof_C 	C 	0.2985	0.5682	0.8859	-0.125
Mof_C 	C 	0.2184	0.582	0.8279	0.006
Mof_H 	H 	0.1826	0.6147	0.8426	0.03
Mof_C 	C 	0.1908	0.547	0.7467	-0.004
Mof_C 	C 	0.2464	0.4975	0.7259	-0.004
Mof_H 	H 	0.2298	0.474	0.6725	0.061
Mof_C 	C 	0.3263	0.4842	0.7857	-0.112
Mof_C 	C 	0.3512	0.5188	0.8658	0.065
Mof_H 	H 	0.4039	0.5085	0.906	0.056
Mof_C 	C 	0.3872	0.4332	0.7647	0.422
Mof_C 	C 	0.1026	0.5593	0.6874	0.001
Mof_C 	C 	0.0662	0.6285	0.676	0.007
Mof_H 	H 	0.0967	0.6676	0.7073	0.04
Mof_C 	C 	0.9849	0.64	0.6187	-0.125
Mof_C 	C 	0.9366	0.5811	0.5768	0.051
Mof_H 	H 	0.882	0.5884	0.5386	0.05
Mof_C 	C 	0.9698	0.5114	0.5921	-0.092
Mof_C 	C 	0.0527	0.5017	0.6447	-0.009
Mof_H 	H 	0.0758	0.455	0.6516	0.058
Mof_C 	C 	0.9472	0.7156	0.6062	0.454
Mof_C 	C 	0.9188	0.4455	0.5556	0.373
Mof_Zn	Zn	0.9405	0.86228	0.63549	1.234
Mof_O 	O 	0.9031	0.90269	0.5188	-0.451
Mof_O 	O 	0.7736	0.85909	0.4954	-0.488
Mof_O 	O 	0.4895	0.73439	0.1503	-0.519
Mof_O 	O 	0.3783	0.7752	0.0508	-0.538
Mof_O 	O 	0.3413	0.0404	0.005	-0.559
Mof_H 	H 	0.3141	0.0785	0.9937	0.356
Mof_O 	O 	0.4465	0.1161	0.0728	-0.301
Mof_O 	O 	0.8642	0.09608	0.1915	-0.501
Mof_O 	O 	0.9564	0.077	0.3234	-0.483
Mof_C 	C 	0.8255	0.8948	0.4726	0.389
Mof_C 	C 	0.7985	0.9318	0.3859	-0.113
Mof_C 	C 	0.7184	0.918	0.3279	-0.005
Mof_H 	H 	0.6826	0.8853	0.3426	0.033
Mof_C 	C 	0.6908	0.953	0.2467	-0.003
Mof_C 	C 	0.7464	0.0025	0.2259	-0.006
Mof_H 	H 	0.7298	0.026	0.1725	0.052
Mof_C 	C 	0.8263	0.0158	0.2857	-0.114
Mof_C 	C 	0.8512	0.9812	0.3658	0.051
Mof_H 	H 	0.9039	0.9915	0.406	0.048
Mof_C 	C 	0.8872	0.0668	0.2647	0.421
Mof_C 	C 	0.6026	0.9407	0.1874	-0.011
Mof_C 	C 	0.5662	0.8715	0.176	0.013
Mof_H 	H 	0.5967	0.8324	0.2073	0.034
Mof_C 	C 	0.4849	0.86	0.1187	-0.139
Mof_C 	C 	0.4366	0.9189	0.0768	0.061
Mof_H 	H 	0.382	0.9116	0.0386	0.04
Mof_C 	C 	0.4698	0.9886	0.0921	-0.116
Mof_C 	C 	0.5527	0.9983	0.1447	-0.004
Mof_H 	H 	0.5758	0.045	0.1516	0.05
Mof_C 	C 	0.4472	0.7844	0.1062	0.457
Mof_C 	C 	0.4188	0.0545	0.0556	0.399
Mof_Zn	Zn	0.4405	0.36228	0.63549	1.234
Mof_O 	O 	0.4031	0.40269	0.5188	-0.451
Mof_O 	O 	0.2736	0.35909	0.4954	-0.488
Mof_O 	O 	0.9895	0.23439	0.1503	-0.517
Mof_O 	O 	0.8783	0.2752	0.0508	-0.536
Mof_O 	O 	0.8413	0.5404	0.005	-0.56
Mof_H 	H 	0.8141	0.5785	0.9937	0.357
Mof_O 	O 	0.9465	0.6161	0.0728	-0.3
Mof_O 	O 	0.3642	0.59608	0.1915	-0.502
Mof_O 	O 	0.4564	0.577	0.3234	-0.484
Mof_C 	C 	0.3255	0.3948	0.4726	0.389
Mof_C 	C 	0.2985	0.4318	0.3859	-0.113
Mof_C 	C 	0.2184	0.418	0.3279	-0.005
Mof_H 	H 	0.1826	0.3853	0.3426	0.033
Mof_C 	C 	0.1908	0.453	0.2467	-0.003
Mof_C 	C 	0.2464	0.5025	0.2259	-0.007
Mof_H 	H 	0.2298	0.526	0.1725	0.051
Mof_C 	C 	0.3263	0.5158	0.2857	-0.115
Mof_C 	C 	0.3512	0.4812	0.3658	0.053
Mof_H 	H 	0.4039	0.4915	0.406	0.048
Mof_C 	C 	0.3872	0.5668	0.2647	0.421
Mof_C 	C 	0.1026	0.4407	0.1874	-0.009
Mof_C 	C 	0.0662	0.3715	0.176	0.01
Mof_H 	H 	0.0967	0.3324	0.2073	0.035
Mof_C 	C 	0.9849	0.36	0.1187	-0.136
Mof_C 	C 	0.9366	0.4189	0.0768	0.058
Mof_H 	H 	0.882	0.4116	0.0386	0.042
Mof_C 	C 	0.9698	0.4886	0.0921	-0.112
Mof_C 	C 	0.0527	0.4983	0.1447	-0.004
Mof_H 	H 	0.0758	0.545	0.1516	0.048
Mof_C 	C 	0.9472	0.2844	0.1062	0.456
Mof_C 	C 	0.9188	0.5545	0.0556	0.397
Mof_Zn	Zn	0.0595	0.86228	0.86451	1.236
Mof_O 	O 	0.0969	0.90269	0.9812	-0.393
Mof_O 	O 	0.2264	0.85909	0.0046	-0.49
Mof_O 	O 	0.5105	0.73439	0.3497	-0.513
Mof_O 	O 	0.6217	0.7752	0.4492	-0.522
Mof_O 	O 	0.6587	0.0404	0.495	-0.471
Mof_H 	H 	0.6859	0.0785	0.5063	0.283
Mof_O 	O 	0.5535	0.1161	0.4272	-0.273
Mof_O 	O 	0.1358	0.09608	0.3085	-0.494
Mof_O 	O 	0.0436	0.077	0.1766	-0.487
Mof_C 	C 	0.1745	0.8948	0.0274	0.322
Mof_C 	C 	0.2015	0.9318	0.1141	-0.094
Mof_C 	C 	0.2816	0.918	0.1721	-0.019
Mof_H 	H 	0.3174	0.8853	0.1574	0.038
Mof_C 	C 	0.3092	0.953	0.2533	0.005
Mof_C 	C 	0.2536	0.0025	0.2741	-0.016
Mof_H 	H 	0.2702	0.026	0.3275	0.064
Mof_C 	C 	0.1737	0.0158	0.2143	-0.104
Mof_C 	C 	0.1488	0.9812	0.1342	0.033
Mof_H 	H 	0.0961	0.9915	0.094	0.042
Mof_C 	C 	0.1128	0.0668	0.2353	0.416
Mof_C 	C 	0.3974	0.9407	0.3126	-0.005
Mof_C 	C 	0.4338	0.8715	0.324	0.011
Mof_H 	H 	0.4033	0.8324	0.2927	0.037
Mof_C 	C 	0.5151	0.86	0.3813	-0.127
Mof_C 	C 	0.5634	0.9189	0.4232	0.053
Mof_H 	H 	0.618	0.9116	0.4614	0.05
Mof_C 	C 	0.5302	0.9886	0.4079	-0.094
Mof_C 	C 	0.4473	0.9983	0.3553	-0.007
Mof_H 	H 	0.4242	0.045	0.3484	0.056
Mof_C 	C 	0.5528	0.7844	0.3938	0.454
Mof_C 	C 	0.5812	0.0545	0.4444	0.374
Mof_Zn	Zn	0.5595	0.36228	0.86451	1.236
Mof_O 	O 	0.5969	0.40269	0.9812	-0.396
Mof_O 	O 	0.7264	0.35909	0.0046	-0.49
Mof_O 	O 	0.0105	0.23439	0.3497	-0.514
Mof_O 	O 	0.1217	0.2752	0.4492	-0.522
Mof_O 	O 	0.1587	0.5404	0.495	-0.471
Mof_H 	H 	0.1859	0.5785	0.5063	0.283
Mof_O 	O 	0.0535	0.6161	0.4272	-0.274
Mof_O 	O 	0.6358	0.59608	0.3085	-0.493
Mof_O 	O 	0.5436	0.577	0.1766	-0.487
Mof_C 	C 	0.6745	0.3948	0.0274	0.325
Mof_C 	C 	0.7015	0.4318	0.1141	-0.095
Mof_C 	C 	0.7816	0.418	0.1721	-0.019
Mof_H 	H 	0.8174	0.3853	0.1574	0.038
Mof_C 	C 	0.8092	0.453	0.2533	0.007
Mof_C 	C 	0.7536	0.5025	0.2741	-0.017
Mof_H 	H 	0.7702	0.526	0.3275	0.064
Mof_C 	C 	0.6737	0.5158	0.2143	-0.106
Mof_C 	C 	0.6488	0.4812	0.1342	0.036
Mof_H 	H 	0.5961	0.4915	0.094	0.042
Mof_C 	C 	0.6128	0.5668	0.2353	0.416
Mof_C 	C 	0.8974	0.4407	0.3126	-0.007
Mof_C 	C 	0.9338	0.3715	0.324	0.014
Mof_H 	H 	0.9033	0.3324	0.2927	0.036
Mof_C 	C 	0.0151	0.36	0.3813	-0.129
Mof_C 	C 	0.0634	0.4189	0.4232	0.055
Mof_H 	H 	0.118	0.4116	0.4614	0.049
Mof_C 	C 	0.0302	0.4886	0.4079	-0.096
Mof_C 	C 	0.9473	0.4983	0.3553	-0.002
Mof_H 	H 	0.9242	0.545	0.3484	0.054
Mof_C 	C 	0.0528	0.2844	0.3938	0.455
Mof_C 	C 	0.0812	0.5545	0.4444	0.375
Mof_Zn	Zn	0.25	0.25	0.5	1.205
Mof_Zn	Zn	0.75	0.25	-0	1.19
Mof_Zn	Zn	0.75	0.75	0.5	1.205
Mof_Zn	Zn	0.25	0.75	-0	1.189
_end
