data_functionalizedCrystal
_audit_creation_method	'EQeq! by Chris Wilmer'
_symmetry_space_group_name_H-M	'P1'
_symmetry_Int_Tables_number	1
_symmetry_cell_setting	triclinic
loop_
_symmetry_equiv_pos_as_xyz
  x,y,z
_cell_length_a	17.614
_cell_length_b	21.916
_cell_length_c	18.046
_cell_angle_alpha	90
_cell_angle_beta	105.64
_cell_angle_gamma	90
loop_
_atom_site_label
_atom_site_type_symbol
_atom_site_fract_x
_atom_site_fract_y
_atom_site_fract_z
_atom_site_charge
Mof_Zn	Zn	0.49405	0.17977	0.49215	1.247
Mof_Zn	Zn	0.30802	0.23757	0.48934	1.232
Mof_Zn	Zn	0.67548	0.25715	0.98931	1.232
Mof_S 	S 	0.06994	0.98876	0.35536	0.579
Mof_S 	S 	0.63665	0.12333	0.87713	0.502
Mof_S 	S 	0.34036	0.36499	0.60605	0.503
Mof_O 	O 	0.3498	0.1999	0.5954	-0.454
Mof_O 	O 	0.6677	0.16208	0.9456	-0.362
Mof_O 	O 	0.3185	0.33208	0.5332	-0.37
Mof_C 	C 	0.2962	0.0505	0.4223	-0.123
Mof_O 	O 	0.4044	0.24323	0.9515	-0.512
Mof_O 	O 	0.4095	0.11198	0.4594	-0.418
Mof_O 	O 	0.6879	0.28867	0.6182	-0.323
Mof_O 	O 	0.2962	0.21732	0.863	-0.317
Mof_O 	O 	0.5116	0.31945	0.888	-0.457
Mof_O 	O 	0.5804	0.2602	0.5291	-0.509
Mof_O 	O 	0.4182	0.88434	0.4677	-0.427
Mof_O 	O 	0.6326	0.29296	0.8841	-0.465
Mof_O 	O 	0.4765	0.18463	0.5966	-0.453
Mof_O 	O 	0.293	0.3502	0.658	-0.24
Mof_O 	O 	0.6232	0.06055	0.8989	-0.198
Mof_O 	O 	0.304	0.8351	0.4463	-0.445
Mof_O 	O 	0.2909	0.15899	0.4273	-0.426
Mof_O 	O 	0.3432	0.43057	0.5933	-0.196
Mof_O 	O 	0.6844	0.1269	0.8243	-0.235
Mof_C 	C 	0.393	0.1972	0.7577	0.064
Mof_H 	H 	0.342	0.2102	0.7341	0.046
Mof_C 	C 	0.3002	0.9409	0.4269	-0.14
Mof_C 	C 	0.5398	0.32	0.7684	-0.126
Mof_C 	C 	0.5925	0.3046	0.7239	0.061
Mof_H 	H 	0.6445	0.2941	0.7478	0.047
Mof_C 	C 	0.5652	0.3056	0.6439	-0.097
Mof_C 	C 	0.3699	0.2201	0.8857	0.345
Mof_C 	C 	0.2186	0.9385	0.4024	0.088
Mof_H 	H 	0.1931	0.901	0.3949	0.034
Mof_C 	C 	0.5179	0.1559	0.7495	0.056
Mof_H 	H 	0.5514	0.1431	0.7206	0.05
Mof_C 	C 	0.4199	0.1961	0.8369	-0.107
Mof_C 	C 	0.4391	0.3425	0.6528	-0.1
Mof_C 	C 	0.4884	0.3258	0.6071	0.038
Mof_H 	H 	0.4709	0.328	0.5537	0.044
Mof_C 	C 	0.3374	0.9959	0.4359	0.086
Mof_H 	H 	0.3922	0.9969	0.4517	0.043
Mof_N 	N 	0.7913	0.2523	0.9908	-0.243
Mof_C 	C 	0.2128	0.0491	0.3973	0.072
Mof_H 	H 	0.1834	0.0849	0.3864	0.04
Mof_C 	C 	0.6168	0.2838	0.5953	0.348
Mof_C 	C 	0.5417	0.1528	0.8303	-0.104
Mof_N 	N 	0.1908	0.2584	0.9843	-0.24
Mof_C 	C 	0.4423	0.1789	0.7133	-0.118
Mof_C 	C 	0.8889	0.2439	0.9219	-0.132
Mof_H 	H 	0.9007	0.2367	0.8754	0.095
Mof_C 	C 	0.4927	0.1737	0.8734	0.046
Mof_H 	H 	0.5094	0.1725	0.9269	0.038
Mof_C 	C 	0.9285	0.2739	0.0532	-0.125
Mof_H 	H 	0.9667	0.2872	0.0965	0.096
Mof_C 	C 	0.3364	0.1113	0.4363	0.386
Mof_C 	C 	0.4204	0.188	0.6275	0.408
Mof_C 	C 	0.4632	0.3392	0.7327	0.062
Mof_H 	H 	0.4289	0.3497	0.7618	0.047
Mof_C 	C 	0.0343	0.2593	0.9861	0.069
Mof_C 	C 	0.5644	0.3107	0.8529	0.417
Mof_C 	C 	0.176	0.9911	0.3894	-0.131
Mof_C 	C 	0.3452	0.8825	0.4494	0.417
Mof_C 	C 	0.8133	0.2397	0.927	0.098
Mof_H 	H 	0.7747	0.2273	0.8835	0.016
Mof_C 	C 	0.9485	0.2592	0.9878	0.072
Mof_C 	C 	0.1705	0.2476	0.0495	0.085
Mof_H 	H 	0.2099	0.2402	0.0945	0.02
Mof_C 	C 	0.055	0.2717	0.9188	-0.121
Mof_H 	H 	0.0162	0.2805	0.8737	0.091
Mof_C 	C 	0.8492	0.2686	0.0545	0.084
Mof_H 	H 	0.836	0.2764	0.1002	0.018
Mof_C 	C 	0.0903	0.2472	0.0516	-0.118
Mof_H 	H 	0.077	0.2388	0.097	0.092
Mof_C 	C 	0.134	0.271	0.919	0.086
Mof_H 	H 	0.1479	0.2792	0.8738	0.017
Mof_O 	O 	0.0421	0.0465	0.3796	-0.257
Mof_O 	O 	0.0505	0.9755	0.2787	-0.253
Mof_O 	O 	0.0445	0.9392	0.4005	-0.468
Mof_H 	H 	0.0568	0.9484	0.4462	0.283
Mof_Zn	Zn	0.50595	0.67977	0.00785	1.246
Mof_Zn	Zn	0.69198	0.73757	0.01066	1.231
Mof_Zn	Zn	0.32452	0.75715	0.51069	1.232
Mof_S 	S 	0.93006	0.48876	0.14464	0.581
Mof_S 	S 	0.36335	0.62333	0.62287	0.502
Mof_S 	S 	0.65964	0.86499	0.89395	0.503
Mof_O 	O 	0.6502	0.6999	0.9046	-0.453
Mof_O 	O 	0.3323	0.66208	0.5544	-0.362
Mof_O 	O 	0.6815	0.83208	0.9668	-0.368
Mof_C 	C 	0.7038	0.5505	0.0777	-0.123
Mof_O 	O 	0.5956	0.74323	0.5485	-0.511
Mof_O 	O 	0.5905	0.61198	0.0406	-0.418
Mof_O 	O 	0.3121	0.78867	0.8818	-0.322
Mof_O 	O 	0.7038	0.71732	0.637	-0.317
Mof_O 	O 	0.4884	0.81945	0.612	-0.456
Mof_O 	O 	0.4196	0.7602	0.9709	-0.508
Mof_O 	O 	0.5818	0.38434	0.0323	-0.426
Mof_O 	O 	0.3674	0.79296	0.6159	-0.465
Mof_O 	O 	0.5235	0.68463	0.9034	-0.452
Mof_O 	O 	0.707	0.8502	0.842	-0.239
Mof_O 	O 	0.3768	0.56055	0.6011	-0.197
Mof_O 	O 	0.696	0.3351	0.0537	-0.445
Mof_O 	O 	0.7091	0.65899	0.0727	-0.426
Mof_O 	O 	0.6568	0.93057	0.9067	-0.194
Mof_O 	O 	0.3156	0.6269	0.6757	-0.235
Mof_C 	C 	0.607	0.6972	0.7423	0.064
Mof_H 	H 	0.658	0.7102	0.7659	0.046
Mof_C 	C 	0.6998	0.4409	0.0731	-0.14
Mof_C 	C 	0.4602	0.82	0.7316	-0.126
Mof_C 	C 	0.4075	0.8046	0.7761	0.06
Mof_H 	H 	0.3555	0.7941	0.7522	0.047
Mof_C 	C 	0.4348	0.8056	0.8561	-0.096
Mof_C 	C 	0.6301	0.7201	0.6143	0.344
Mof_C 	C 	0.7814	0.4385	0.0976	0.088
Mof_H 	H 	0.8069	0.401	0.1051	0.034
Mof_C 	C 	0.4821	0.6559	0.7505	0.056
Mof_H 	H 	0.4486	0.6431	0.7794	0.05
Mof_C 	C 	0.5801	0.6961	0.6631	-0.107
Mof_C 	C 	0.5609	0.8425	0.8472	-0.099
Mof_C 	C 	0.5116	0.8258	0.8929	0.037
Mof_H 	H 	0.5291	0.828	0.9463	0.045
Mof_C 	C 	0.6626	0.4959	0.0641	0.087
Mof_H 	H 	0.6078	0.4969	0.0483	0.043
Mof_N 	N 	0.2087	0.7523	0.5092	-0.242
Mof_C 	C 	0.7872	0.5491	0.1027	0.071
Mof_H 	H 	0.8166	0.5849	0.1136	0.041
Mof_C 	C 	0.3832	0.7838	0.9047	0.348
Mof_C 	C 	0.4583	0.6528	0.6697	-0.103
Mof_N 	N 	0.8092	0.7584	0.5157	-0.239
Mof_C 	C 	0.5577	0.6789	0.7867	-0.117
Mof_C 	C 	0.1111	0.7439	0.5781	-0.132
Mof_H 	H 	0.0993	0.7367	0.6246	0.096
Mof_C 	C 	0.5073	0.6737	0.6266	0.046
Mof_H 	H 	0.4906	0.6725	0.5731	0.038
Mof_C 	C 	0.0715	0.7739	0.4468	-0.127
Mof_H 	H 	0.0333	0.7872	0.4035	0.097
Mof_C 	C 	0.6636	0.6113	0.0637	0.386
Mof_C 	C 	0.5796	0.688	0.8725	0.407
Mof_C 	C 	0.5368	0.8392	0.7673	0.062
Mof_H 	H 	0.5711	0.8497	0.7382	0.047
Mof_C 	C 	0.9657	0.7593	0.5139	0.071
Mof_C 	C 	0.4356	0.8107	0.6471	0.417
Mof_C 	C 	0.824	0.4911	0.1106	-0.129
Mof_C 	C 	0.6548	0.3825	0.0506	0.417
Mof_C 	C 	0.1867	0.7397	0.573	0.099
Mof_H 	H 	0.2253	0.7273	0.6165	0.016
Mof_C 	C 	0.0515	0.7592	0.5122	0.074
Mof_C 	C 	0.8295	0.7476	0.4505	0.084
Mof_H 	H 	0.7901	0.7402	0.4055	0.02
Mof_C 	C 	0.945	0.7717	0.5812	-0.121
Mof_H 	H 	0.9838	0.7805	0.6263	0.091
Mof_C 	C 	0.1508	0.7686	0.4455	0.082
Mof_H 	H 	0.164	0.7764	0.3998	0.018
Mof_C 	C 	0.9097	0.7472	0.4484	-0.12
Mof_H 	H 	0.923	0.7388	0.403	0.093
Mof_C 	C 	0.866	0.771	0.581	0.087
Mof_H 	H 	0.8521	0.7792	0.6262	0.017
Mof_O 	O 	0.9579	0.5465	0.1204	-0.258
Mof_O 	O 	0.9495	0.4755	0.2213	-0.252
Mof_O 	O 	0.9555	0.4392	0.0995	-0.468
Mof_H 	H 	0.9432	0.4484	0.0538	0.283
Mof_Zn	Zn	0.50595	0.82023	0.50785	1.246
Mof_Zn	Zn	0.69198	0.76243	0.51066	1.231
Mof_Zn	Zn	0.32452	0.74285	0.01069	1.232
Mof_S 	S 	0.93006	0.01124	0.64464	0.579
Mof_S 	S 	0.36335	0.87667	0.12287	0.502
Mof_S 	S 	0.65964	0.63501	0.39395	0.503
Mof_O 	O 	0.6502	0.8001	0.4046	-0.454
Mof_O 	O 	0.3323	0.83792	0.0544	-0.362
Mof_O 	O 	0.6815	0.66792	0.4668	-0.37
Mof_C 	C 	0.7038	0.9495	0.5777	-0.123
Mof_O 	O 	0.5956	0.75677	0.0485	-0.512
Mof_O 	O 	0.5905	0.88802	0.5406	-0.418
Mof_O 	O 	0.3121	0.71133	0.3818	-0.323
Mof_O 	O 	0.7038	0.78268	0.137	-0.317
Mof_O 	O 	0.4884	0.68055	0.112	-0.457
Mof_O 	O 	0.4196	0.7398	0.4709	-0.509
Mof_O 	O 	0.5818	0.11566	0.5323	-0.427
Mof_O 	O 	0.3674	0.70704	0.1159	-0.465
Mof_O 	O 	0.5235	0.81537	0.4034	-0.453
Mof_O 	O 	0.707	0.6498	0.342	-0.24
Mof_O 	O 	0.3768	0.93945	0.1011	-0.198
Mof_O 	O 	0.696	0.1649	0.5537	-0.445
Mof_O 	O 	0.7091	0.84101	0.5727	-0.426
Mof_O 	O 	0.6568	0.56943	0.4067	-0.196
Mof_O 	O 	0.3156	0.8731	0.1757	-0.235
Mof_C 	C 	0.607	0.8028	0.2423	0.064
Mof_H 	H 	0.658	0.7898	0.2659	0.046
Mof_C 	C 	0.6998	0.0591	0.5731	-0.14
Mof_C 	C 	0.4602	0.68	0.2316	-0.126
Mof_C 	C 	0.4075	0.6954	0.2761	0.061
Mof_H 	H 	0.3555	0.7059	0.2522	0.047
Mof_C 	C 	0.4348	0.6944	0.3561	-0.097
Mof_C 	C 	0.6301	0.7799	0.1143	0.345
Mof_C 	C 	0.7814	0.0615	0.5976	0.088
Mof_H 	H 	0.8069	0.099	0.6051	0.034
Mof_C 	C 	0.4821	0.8441	0.2505	0.056
Mof_H 	H 	0.4486	0.8569	0.2794	0.05
Mof_C 	C 	0.5801	0.8039	0.1631	-0.107
Mof_C 	C 	0.5609	0.6575	0.3472	-0.1
Mof_C 	C 	0.5116	0.6742	0.3929	0.038
Mof_H 	H 	0.5291	0.672	0.4463	0.044
Mof_C 	C 	0.6626	0.0041	0.5641	0.086
Mof_H 	H 	0.6078	0.0031	0.5483	0.043
Mof_N 	N 	0.2087	0.7477	0.0092	-0.243
Mof_C 	C 	0.7872	0.9509	0.6027	0.072
Mof_H 	H 	0.8166	0.9151	0.6136	0.04
Mof_C 	C 	0.3832	0.7162	0.4047	0.348
Mof_C 	C 	0.4583	0.8472	0.1697	-0.104
Mof_N 	N 	0.8092	0.7416	0.0157	-0.24
Mof_C 	C 	0.5577	0.8211	0.2867	-0.118
Mof_C 	C 	0.1111	0.7561	0.0781	-0.132
Mof_H 	H 	0.0993	0.7633	0.1246	0.095
Mof_C 	C 	0.5073	0.8263	0.1266	0.046
Mof_H 	H 	0.4906	0.8275	0.0731	0.038
Mof_C 	C 	0.0715	0.7261	0.9468	-0.125
Mof_H 	H 	0.0333	0.7128	0.9035	0.096
Mof_C 	C 	0.6636	0.8887	0.5637	0.386
Mof_C 	C 	0.5796	0.812	0.3725	0.408
Mof_C 	C 	0.5368	0.6608	0.2673	0.062
Mof_H 	H 	0.5711	0.6503	0.2382	0.047
Mof_C 	C 	0.9657	0.7407	0.0139	0.069
Mof_C 	C 	0.4356	0.6893	0.1471	0.417
Mof_C 	C 	0.824	0.0089	0.6106	-0.131
Mof_C 	C 	0.6548	0.1175	0.5506	0.417
Mof_C 	C 	0.1867	0.7603	0.073	0.098
Mof_H 	H 	0.2253	0.7727	0.1165	0.016
Mof_C 	C 	0.0515	0.7408	0.0122	0.072
Mof_C 	C 	0.8295	0.7524	0.9505	0.085
Mof_H 	H 	0.7901	0.7598	0.9055	0.02
Mof_C 	C 	0.945	0.7283	0.0812	-0.121
Mof_H 	H 	0.9838	0.7195	0.1263	0.091
Mof_C 	C 	0.1508	0.7314	0.9455	0.084
Mof_H 	H 	0.164	0.7236	0.8998	0.018
Mof_C 	C 	0.9097	0.7528	0.9484	-0.118
Mof_H 	H 	0.923	0.7612	0.903	0.092
Mof_C 	C 	0.866	0.729	0.081	0.086
Mof_H 	H 	0.8521	0.7208	0.1262	0.017
Mof_O 	O 	0.9579	0.9535	0.6204	-0.257
Mof_O 	O 	0.9495	0.0245	0.7213	-0.253
Mof_O 	O 	0.9555	0.0608	0.5995	-0.468
Mof_H 	H 	0.9432	0.0516	0.5538	0.283
Mof_Zn	Zn	0.49405	0.32023	0.99215	1.246
Mof_Zn	Zn	0.30802	0.26243	0.98934	1.231
Mof_Zn	Zn	0.67548	0.24285	0.48931	1.232
Mof_S 	S 	0.06994	0.51124	0.85536	0.581
Mof_S 	S 	0.63665	0.37667	0.37713	0.502
Mof_S 	S 	0.34036	0.13501	0.10605	0.503
Mof_O 	O 	0.3498	0.3001	0.0954	-0.453
Mof_O 	O 	0.6677	0.33792	0.4456	-0.362
Mof_O 	O 	0.3185	0.16792	0.0332	-0.368
Mof_C 	C 	0.2962	0.4495	0.9223	-0.123
Mof_O 	O 	0.4044	0.25677	0.4515	-0.511
Mof_O 	O 	0.4095	0.38802	0.9594	-0.418
Mof_O 	O 	0.6879	0.21133	0.1182	-0.322
Mof_O 	O 	0.2962	0.28268	0.363	-0.317
Mof_O 	O 	0.5116	0.18055	0.388	-0.456
Mof_O 	O 	0.5804	0.2398	0.0291	-0.508
Mof_O 	O 	0.4182	0.61566	0.9677	-0.426
Mof_O 	O 	0.6326	0.20704	0.3841	-0.465
Mof_O 	O 	0.4765	0.31537	0.0966	-0.452
Mof_O 	O 	0.293	0.1498	0.158	-0.239
Mof_O 	O 	0.6232	0.43945	0.3989	-0.197
Mof_O 	O 	0.304	0.6649	0.9463	-0.445
Mof_O 	O 	0.2909	0.34101	0.9273	-0.426
Mof_O 	O 	0.3432	0.06943	0.0933	-0.194
Mof_O 	O 	0.6844	0.3731	0.3243	-0.235
Mof_C 	C 	0.393	0.3028	0.2577	0.064
Mof_H 	H 	0.342	0.2898	0.2341	0.046
Mof_C 	C 	0.3002	0.5591	0.9269	-0.14
Mof_C 	C 	0.5398	0.18	0.2684	-0.126
Mof_C 	C 	0.5925	0.1954	0.2239	0.06
Mof_H 	H 	0.6445	0.2059	0.2478	0.047
Mof_C 	C 	0.5652	0.1944	0.1439	-0.096
Mof_C 	C 	0.3699	0.2799	0.3857	0.344
Mof_C 	C 	0.2186	0.5615	0.9024	0.088
Mof_H 	H 	0.1931	0.599	0.8949	0.034
Mof_C 	C 	0.5179	0.3441	0.2495	0.056
Mof_H 	H 	0.5514	0.3569	0.2206	0.05
Mof_C 	C 	0.4199	0.3039	0.3369	-0.107
Mof_C 	C 	0.4391	0.1575	0.1528	-0.099
Mof_C 	C 	0.4884	0.1742	0.1071	0.037
Mof_H 	H 	0.4709	0.172	0.0537	0.045
Mof_C 	C 	0.3374	0.5041	0.9359	0.087
Mof_H 	H 	0.3922	0.5031	0.9517	0.043
Mof_N 	N 	0.7913	0.2477	0.4908	-0.242
Mof_C 	C 	0.2128	0.4509	0.8973	0.071
Mof_H 	H 	0.1834	0.4151	0.8864	0.041
Mof_C 	C 	0.6168	0.2162	0.0953	0.348
Mof_C 	C 	0.5417	0.3472	0.3303	-0.103
Mof_N 	N 	0.1908	0.2416	0.4843	-0.239
Mof_C 	C 	0.4423	0.3211	0.2133	-0.117
Mof_C 	C 	0.8889	0.2561	0.4219	-0.132
Mof_H 	H 	0.9007	0.2633	0.3754	0.096
Mof_C 	C 	0.4927	0.3263	0.3734	0.046
Mof_H 	H 	0.5094	0.3275	0.4269	0.038
Mof_C 	C 	0.9285	0.2261	0.5532	-0.127
Mof_H 	H 	0.9667	0.2128	0.5965	0.097
Mof_C 	C 	0.3364	0.3887	0.9363	0.386
Mof_C 	C 	0.4204	0.312	0.1275	0.407
Mof_C 	C 	0.4632	0.1608	0.2327	0.062
Mof_H 	H 	0.4289	0.1503	0.2618	0.047
Mof_C 	C 	0.0343	0.2407	0.4861	0.071
Mof_C 	C 	0.5644	0.1893	0.3529	0.417
Mof_C 	C 	0.176	0.5089	0.8894	-0.129
Mof_C 	C 	0.3452	0.6175	0.9494	0.417
Mof_C 	C 	0.8133	0.2603	0.427	0.099
Mof_H 	H 	0.7747	0.2727	0.3835	0.016
Mof_C 	C 	0.9485	0.2408	0.4878	0.074
Mof_C 	C 	0.1705	0.2524	0.5495	0.084
Mof_H 	H 	0.2099	0.2598	0.5945	0.02
Mof_C 	C 	0.055	0.2283	0.4188	-0.121
Mof_H 	H 	0.0162	0.2195	0.3737	0.091
Mof_C 	C 	0.8492	0.2314	0.5545	0.082
Mof_H 	H 	0.836	0.2236	0.6002	0.018
Mof_C 	C 	0.0903	0.2528	0.5516	-0.12
Mof_H 	H 	0.077	0.2612	0.597	0.093
Mof_C 	C 	0.134	0.229	0.419	0.087
Mof_H 	H 	0.1479	0.2208	0.3738	0.017
Mof_O 	O 	0.0421	0.4535	0.8796	-0.258
Mof_O 	O 	0.0505	0.5245	0.7787	-0.252
Mof_O 	O 	0.0445	0.5608	0.9005	-0.468
Mof_H 	H 	0.0568	0.5516	0.9462	0.283
_end
