data_functionalizedCrystal
_audit_creation_method	'EQeq! by Chris Wilmer'
_symmetry_space_group_name_H-M	'P1'
_symmetry_Int_Tables_number	1
_symmetry_cell_setting	triclinic
loop_
_symmetry_equiv_pos_as_xyz
  x,y,z
_cell_length_a	24.9996
_cell_length_b	24.9996
_cell_length_c	24.9996
_cell_angle_alpha	109.471
_cell_angle_beta	109.471
_cell_angle_gamma	109.471
loop_
_atom_site_label
_atom_site_type_symbol
_atom_site_fract_x
_atom_site_fract_y
_atom_site_fract_z
_atom_site_charge
Mof_Zn	Zn	0.92798	0.42101	0.18061	1.209
Mof_Zn	Zn	0.81939	0.7404	0.24737	1.209
Mof_Zn	Zn	0.50697	0.7596	0.57899	1.209
Mof_Zn	Zn	0.7596	0.07899	0.00697	1.208
Mof_Zn	Zn	0.99303	0.57202	0.25263	1.209
Mof_Zn	Zn	2.83564e-17	0.5	0.33826	1.226
Mof_Zn	Zn	0.83826	0	-0	1.226
Mof_Zn	Zn	0.57202	0.75263	0.49303	1.21
Mof_Zn	Zn	0.42101	0.68061	0.42798	1.21
Mof_Zn	Zn	0.07899	0.50697	0.2596	1.21
Mof_Zn	Zn	0.68061	0.92798	0.92101	1.211
Mof_Zn	Zn	0.7404	0.74737	0.31939	1.21
Mof_Zn	Zn	0.66174	0.66174	0.16174	1.227
Mof_Zn	Zn	0.5	0.83826	0.5	1.227
Mof_Zn	Zn	0.75263	0.99303	0.07202	1.21
Mof_Zn	Zn	0.74737	0.81939	0.2404	1.21
Mof_H 	H 	0.5129	0.0625	0.3786	0.139
Mof_H 	H 	0.5407	0.7464	0.8893	0.076
Mof_H 	H 	0.4066	0.4313	0.7407	0.137
Mof_H 	H 	0.9486	0.3584	0.589	0.131
Mof_H 	H 	0.6214	0.1839	0.6343	0.14
Mof_H 	H 	0.6448	0.4851	0.0211	0.051
Mof_H 	H 	0.3893	0.5407	0.2464	0.076
Mof_H 	H 	0.3571	0.6514	0.6107	0.076
Mof_H 	H 	0.2763	0.0783	0.3478	0.138
Mof_H 	H 	0.8552	0.8763	0.8403	0.056
Mof_H 	H 	0.3389	0.3018	0.1057	0.156
Mof_H 	H 	0.4313	0.2407	0.9066	0.139
Mof_H 	H 	0.4851	0.5211	0.1448	0.054
Mof_H 	H 	0.6702	0.8437	0.7511	0.038
Mof_H 	H 	0.8943	0.6961	0.7332	0.158
Mof_H 	H 	0.1614	0.3109	0.9289	0.147
Mof_H 	H 	0.6735	0.8298	0.0809	0.039
Mof_H 	H 	0.1891	0.8505	0.118	0.147
Mof_H 	H 	0.9074	0.6563	0.3265	0.038
Mof_H 	H 	0.1839	0.1343	0.1214	0.139
Mof_H 	H 	0.5902	0.2306	0.6416	0.131
Mof_H 	H 	0.9098	0.5514	0.6404	0.131
Mof_H 	H 	0.8341	0.5247	0.5934	0.137
Mof_H 	H 	0.6057	0.3389	0.8018	0.158
Mof_H 	H 	0.6514	0.1107	0.8571	0.077
Mof_H 	H 	0.1404	0.9098	0.0514	0.129
Mof_H 	H 	0.5211	0.6448	0.9851	0.053
Mof_H 	H 	0.6659	0.2593	0.6906	0.137
Mof_H 	H 	0.3596	0.411	0.7694	0.131
Mof_H 	H 	0.0687	0.9753	0.8094	0.138
Mof_H 	H 	0.302	0.2237	0.0715	0.137
Mof_H 	H 	0.9753	0.3094	0.5687	0.137
Mof_H 	H 	0.1597	0.536	0.5149	0.054
Mof_H 	H 	0.0625	0.8786	0.0129	0.138
Mof_H 	H 	0.618	0.1891	0.3505	0.147
Mof_H 	H 	0.5247	0.0934	0.3341	0.136
Mof_H 	H 	0.089	0.9486	0.8584	0.133
Mof_H 	H 	0.2511	0.6702	0.3437	0.038
Mof_H 	H 	0.536	0.0149	0.6597	0.055
Mof_H 	H 	0.8478	0.2763	0.5783	0.139
Mof_H 	H 	0.2332	0.8943	0.1961	0.156
Mof_H 	H 	0.0711	0.882	0.7325	0.148
Mof_H 	H 	0.8486	0.7057	0.4593	0.076
Mof_H 	H 	0.9191	0.2489	0.0926	0.038
Mof_H 	H 	0.8265	0.9074	0.1563	0.038
Mof_H 	H 	0.3386	0.2675	0.1495	0.147
Mof_H 	H 	0.7057	0.9593	0.3486	0.076
Mof_H 	H 	0.6961	0.2332	0.3943	0.157
Mof_H 	H 	0.1429	0.7536	0.2943	0.076
Mof_H 	H 	0.9593	0.8486	0.2057	0.076
Mof_H 	H 	0.6563	0.8265	0.4074	0.038
Mof_H 	H 	0.3018	0.6057	0.8389	0.158
Mof_H 	H 	0.4629	0.1611	0.7668	0.157
Mof_H 	H 	0.3109	0.4289	0.6614	0.148
Mof_H 	H 	0.2694	0.3596	0.911	0.129
Mof_H 	H 	0.5514	0.1404	0.4098	0.13
Mof_H 	H 	0.0783	0.8478	0.7763	0.139
Mof_H 	H 	0.3584	0.089	0.4486	0.131
Mof_H 	H 	0.3403	0.8552	0.3763	0.054
Mof_H 	H 	0.2695	0.4217	0.698	0.138
Mof_H 	H 	0.1611	0.2668	0.9629	0.157
Mof_H 	H 	0.6495	0.3386	0.7675	0.149
Mof_H 	H 	0.7464	0.3893	0.0407	0.072
Mof_H 	H 	0.2675	0.6495	0.8386	0.149
Mof_H 	H 	0.7536	0.7943	0.6429	0.076
Mof_H 	H 	0.4289	0.1614	0.8109	0.148
Mof_H 	H 	0.8039	0.1982	0.5371	0.157
Mof_H 	H 	0.882	0.2325	0.5711	0.148
Mof_H 	H 	0.9789	0.964	0.1237	0.054
Mof_H 	H 	0.0496	0.9871	0.8657	0.142
Mof_H 	H 	0.5715	0.302	0.7237	0.139
Mof_H 	H 	0.4217	0.198	0.7695	0.138
Mof_H 	H 	0.0371	0.8039	0.6982	0.157
Mof_H 	H 	0.3094	0.0687	0.4753	0.137
Mof_H 	H 	0.4375	0.4504	0.8161	0.141
Mof_H 	H 	0.2305	0.9285	0.1522	0.138
Mof_H 	H 	0.7943	0.1429	0.2536	0.076
Mof_H 	H 	0.1982	0.0371	0.3039	0.157
Mof_H 	H 	0.8763	0.3403	0.3552	0.054
Mof_H 	H 	0.0934	0.8341	0.0247	0.135
Mof_H 	H 	0.8786	0.5129	0.5625	0.14
Mof_H 	H 	0.2593	0.1906	0.1659	0.136
Mof_H 	H 	0.3161	0.4375	0.9504	0.139
Mof_H 	H 	0.1416	0.5902	0.7306	0.131
Mof_H 	H 	0.411	0.2694	0.8596	0.132
Mof_H 	H 	0.6237	0.9789	0.464	0.055
Mof_H 	H 	0.964	0.6237	0.4789	0.055
Mof_H 	H 	0.2407	0.4066	0.9313	0.136
Mof_H 	H 	0.8437	0.2511	0.1702	0.038
Mof_H 	H 	0.5926	0.9191	0.7489	0.038
Mof_H 	H 	0.4504	0.3161	0.9375	0.142
Mof_H 	H 	0.1107	0.3571	0.1514	0.076
Mof_H 	H 	0.0149	0.1597	0.036	0.054
Mof_H 	H 	0.198	0.2695	0.9217	0.138
Mof_H 	H 	0.2325	0.0711	0.382	0.148
Mof_H 	H 	0.1906	0.6659	0.7593	0.137
Mof_H 	H 	0.1343	0.6214	0.6839	0.14
Mof_H 	H 	0.5809	0.6735	0.3298	0.038
Mof_H 	H 	0.2237	0.5715	0.802	0.139
Mof_H 	H 	0.6522	0.2305	0.4285	0.138
Mof_H 	H 	0.2489	0.5926	0.4191	0.038
Mof_H 	H 	0.2306	0.1416	0.0902	0.129
Mof_H 	H 	0.2668	0.4629	0.6611	0.157
Mof_H 	H 	0.3657	0.0496	0.4871	0.14
Mof_H 	H 	0.8298	0.5809	0.1735	0.037
Mof_H 	H 	0.9285	0.6522	0.7305	0.14
Mof_H 	H 	0.9871	0.3657	0.5496	0.14
Mof_H 	H 	0.8505	0.618	0.6891	0.149
Mof_C 	C 	0.54194	0.60084	0.2367	-0.11
Mof_C 	C 	0.958	0.2515	0.0929	0.028
Mof_C 	C 	0.259	0.5938	0.5718	0.041
Mof_C 	C 	0.14266	0.20846	0.0942	-0.02
Mof_C 	C 	0.7185	0.8531	0.3414	0.383
Mof_C 	C 	0.4511	0.1869	0.7948	-0.421
Mof_C 	C 	0.0489	0.8437	0.7358	-0.423
Mof_C 	C 	0.6846	0.88756	0.37256	-0.07
Mof_C 	C 	0.2674	0.3601	0.0765	-0.055
Mof_C 	C 	0.0117	0.3771	0.1586	0.382
Mof_C 	C 	0.6603	0.1444	0.3971	0.07
Mof_C 	C 	0.5435	0.0987	0.378	-0.401
Mof_C 	C 	0.7065	0.8414	0.7485	0.026
Mof_C 	C 	0.6872	0.4282	0.022	0.031
Mof_C 	C 	0.622	0.2207	0.6655	-0.402
Mof_C 	C 	0.8651	0.9071	0.1586	0.027
Mof_C 	C 	0.2976	0.4013	0.0105	0.037
Mof_C 	C 	0.6703	0.0439	0.416	-0.065
Mof_C 	C 	0.0552	0.9565	0.8345	-0.405
Mof_C 	C 	0.015	0.31204	0.12744	-0.071
Mof_C 	C 	0.29154	0.9342	0.38574	-0.019
Mof_C 	C 	0.9058	0.61426	0.54846	-0.019
Mof_C 	C 	0.2129	0.6037	0.7024	0.042
Mof_C 	C 	0.3556	0.5159	0.7527	0.07
Mof_C 	C 	0.2473	0.2632	0.1029	0.07
Mof_C 	C 	0.4883	0.6469	0.3654	0.383
Mof_C 	C 	0.4282	0.556	0.244	-0.038
Mof_C 	C 	0.8414	0.7185	0.3531	0.383
Mof_C 	C 	0.6285	0.7333	0.1014	0.401
Mof_C 	C 	0.1444	0.8971	0.1603	0.07
Mof_C 	C 	0.5938	0.0718	0.759	0.042
Mof_C 	C 	0.522	0.6872	0.9282	0.04
Mof_C 	C 	0.8971	0.6603	0.6444	0.071
Mof_C 	C 	0.7815	0.1229	0.1346	0.383
Mof_C 	C 	0.015	0.19854	0.05934	-0.023
Mof_C 	C 	0.3091	0.5927	0.7326	-0.056
Mof_C 	C 	0.878	0.5435	0.5987	-0.402
Mof_C 	C 	0.3345	0.0552	0.4565	-0.402
Mof_C 	C 	0.1842	0.756	0.312	-0.038
Mof_C 	C 	0.5105	0.2976	0.9013	0.044
Mof_C 	C 	0.2358	0.0489	0.3437	-0.422
Mof_C 	C 	0.6586	0.0117	0.8771	0.383
Mof_C 	C 	0.2871	0.9895	0.3908	0.043
Mof_C 	C 	0.6652	0.978	0.4062	0.041
Mof_C 	C 	0.0718	0.3158	0.1278	-0.038
Mof_C 	C 	0.18796	0.70296	0.3154	-0.07
Mof_C 	C 	0.3158	0.6278	0.5718	-0.038
Mof_C 	C 	0.4282	0.522	0.1872	0.041
Mof_C 	C 	0.2543	0.584	0.6279	-0.064
Mof_C 	C 	0.88574	0.29154	0.4342	-0.019
Mof_C 	C 	0.756	0.812	0.6842	-0.039
Mof_C 	C 	0.9895	0.8908	0.7871	0.044
Mof_C 	C 	0.485	0.61244	0.29704	-0.07
Mof_C 	C 	0.8608	0.30146	0.31646	-0.023
Mof_C 	C 	0.6037	0.2024	0.7129	0.043
Mof_C 	C 	0.79704	0.485	0.11244	-0.073
Mof_C 	C 	0.3131	0.2642	0.1079	-0.42
Mof_C 	C 	0.89916	0.9411	0.13586	-0.11
Mof_C 	C 	0.95566	0.94066	0.1392	-0.023
Mof_C 	C 	0.8128	0.8348	0.741	0.042
Mof_C 	C 	0.94066	0.6392	0.45566	-0.023
Mof_C 	C 	0.8715	0.9729	0.1048	0.399
Mof_C 	C 	0.6048	0.8715	0.4729	0.399
Mof_C 	C 	0.63586	0.89916	0.4411	-0.109
Mof_C 	C 	0.7786	0.1954	0.3682	0.165
Mof_C 	C 	0.9565	0.3345	0.5552	-0.402
Mof_C 	C 	0.584	0.1279	0.7543	-0.064
Mof_C 	C 	0.8986	0.1319	0.0271	0.399
Mof_C 	C 	0.5929	0.958	0.7515	0.026
Mof_C 	C 	0.61426	0.04846	0.4058	-0.019
Mof_C 	C 	0.1399	0.9073	0.2164	-0.056
Mof_C 	C 	0.87256	0.6846	0.38756	-0.07
Mof_C 	C 	0.6346	0.7815	0.6229	0.383
Mof_C 	C 	0.9841	0.8397	0.7368	0.071
Mof_C 	C 	0.8963	0.6092	0.5987	0.043
Mof_C 	C 	0.944	0.8722	0.188	-0.038
Mof_C 	C 	0.4104	0.6318	0.8272	0.164
Mof_C 	C 	0.4013	0.4448	0.7793	-0.402
Mof_C 	C 	0.1954	0.8682	0.2786	0.165
Mof_C 	C 	0.2793	0.4013	0.9448	-0.392
Mof_C 	C 	0.3272	0.4104	0.1318	0.164
Mof_C 	C 	0.2326	0.3091	0.0927	-0.057
Mof_C 	C 	0.4013	0.5105	0.7976	0.043
Mof_C 	C 	0.2457	0.8736	0.3297	-0.065
Mof_C 	C 	0.8722	0.688	0.444	-0.038
Mof_C 	C 	0.0987	0.878	0.0435	-0.399
Mof_C 	C 	0.2948	0.4511	0.6869	-0.421
Mof_C 	C 	0.5271	0.8986	0.6319	0.399
Mof_C 	C 	0.86414	0.30524	0.2633	-0.11
Mof_C 	C 	0.95806	0.19476	0.0589	-0.11
Mof_C 	C 	0.9729	0.6048	0.3715	0.399
Mof_C 	C 	0.6264	0.3721	0.9561	-0.056
Mof_C 	C 	0.20846	0.5942	0.64266	-0.019
Mof_C 	C 	0.2515	0.5929	0.458	0.027
Mof_C 	C 	0.6014	0.6285	0.2333	0.399
Mof_C 	C 	0.55934	0.015	0.69854	-0.023
Mof_C 	C 	0.3771	0.6586	0.5117	0.383
Mof_C 	C 	0.7214	0.0896	0.4168	0.165
Mof_C 	C 	0.8348	0.241	0.3128	0.041
Mof_C 	C 	0.1909	0.9235	0.2836	-0.056
Mof_C 	C 	0.54434	0.68354	0.985	-0.013
Mof_C 	C 	0.241	0.8128	0.3348	0.041
Mof_C 	C 	0.6349	0.7935	0.042	0.021
Mof_C 	C 	0.62744	0.015	0.81204	-0.069
Mof_C 	C 	0.04846	0.9058	0.11426	-0.02
Mof_C 	C 	0.7935	0.542	0.1349	0.029
Mof_C 	C 	0.9411	0.63586	0.39916	-0.109
Mof_C 	C 	0.4448	0.2793	0.9013	-0.404
Mof_C 	C 	0.7367	0.54194	0.10084	-0.113
Mof_C 	C 	0.7333	0.6014	0.1285	0.4
Mof_C 	C 	0.556	0.744	0.9282	-0.038
Mof_C 	C 	0.2052	0.8921	0.1563	-0.42
Mof_C 	C 	0.68354	0.485	0.04434	-0.018
Mof_C 	C 	0.5942	0.14266	0.70846	-0.019
Mof_C 	C 	0.2485	0.7065	0.3414	0.027
Mof_C 	C 	0.5159	0.2527	0.8556	0.069
Mof_C 	C 	0.3681	0.7667	0.3952	0.399
Mof_C 	C 	0.5927	0.2326	0.8091	-0.056
Mof_C 	C 	0.7633	0.86414	0.80524	-0.108
Mof_C 	C 	0.60084	0.7367	0.04194	-0.116
Mof_C 	C 	0.1279	0.2543	0.084	-0.065
Mof_C 	C 	0.9062	0.6652	0.478	0.041
Mof_C 	C 	0.8921	0.6563	0.7052	-0.423
Mof_C 	C 	0.1728	0.3046	0.0832	0.165
Mof_C 	C 	0.8414	0.2485	0.2065	0.027
Mof_C 	C 	0.1229	0.6346	0.2815	0.383
Mof_C 	C 	0.5589	0.95806	0.69476	-0.109
Mof_C 	C 	0.3601	0.5765	0.7674	-0.055
Mof_C 	C 	0.8736	0.8297	0.7457	-0.064
Mof_C 	C 	0.978	0.9062	0.1652	0.041
Mof_C 	C 	0.61244	0.79704	0.985	-0.065
Mof_C 	C 	0.6079	0.3131	0.7642	-0.422
Mof_C 	C 	0.19476	0.5589	0.45806	-0.109
Mof_C 	C 	0.19854	0.55934	0.515	-0.023
Mof_C 	C 	0.81646	0.8608	0.80146	-0.023
Mof_C 	C 	0.916	0.6703	0.5439	-0.064
Mof_C 	C 	0.9235	0.7836	0.6909	-0.056
Mof_C 	C 	0.688	0.944	0.3722	-0.039
Mof_C 	C 	0.2632	0.6029	0.7473	0.071
Mof_C 	C 	0.70296	0.8154	0.68796	-0.069
Mof_C 	C 	0.0718	0.259	0.0938	0.041
Mof_C 	C 	0.3721	0.4561	0.1264	-0.065
Mof_C 	C 	0.8654	0.4883	0.1469	0.383
Mof_C 	C 	0.2024	0.2129	0.1037	0.042
Mof_C 	C 	0.5765	0.2674	0.8601	-0.054
Mof_C 	C 	0.812	0.1842	0.256	-0.038
Mof_C 	C 	0.0987	0.8963	0.1092	0.042
Mof_C 	C 	0.7836	0.1909	0.4235	-0.056
Mof_C 	C 	0.2368	0.9841	0.3397	0.071
Mof_C 	C 	0.2642	0.6079	0.8131	-0.423
Mof_C 	C 	0.7164	0.1399	0.4073	-0.056
Mof_C 	C 	0.6318	0.3272	0.9104	0.162
Mof_C 	C 	0.45154	0.5658	0.85734	-0.019
Mof_C 	C 	0.2527	0.3556	0.0159	0.066
Mof_C 	C 	0.6092	0.0987	0.3963	0.042
Mof_C 	C 	0.8682	0.7786	0.6954	0.165
Mof_C 	C 	0.3046	0.5832	0.6728	0.165
Mof_C 	C 	0.6278	0.0718	0.8158	-0.039
Mof_C 	C 	0.9342	0.88574	0.79154	-0.018
Mof_C 	C 	0.0896	0.9168	0.2214	0.165
Mof_C 	C 	0.35734	0.45154	0.0658	-0.02
Mof_C 	C 	0.88756	0.87256	0.1846	-0.07
Mof_C 	C 	0.31204	0.62744	0.515	-0.07
Mof_C 	C 	0.744	0.4282	0.056	-0.034
Mof_C 	C 	0.30146	0.81646	0.3608	-0.023
Mof_C 	C 	0.8154	0.18796	0.20296	-0.07
Mof_C 	C 	0.5832	0.1728	0.8046	0.165
Mof_C 	C 	0.4561	0.6264	0.8721	-0.063
Mof_C 	C 	0.8437	0.2358	0.5489	-0.422
Mof_C 	C 	0.485	0.54434	0.18354	-0.023
Mof_C 	C 	0.7667	0.8952	0.8681	0.399
Mof_C 	C 	0.2207	0.1655	0.122	-0.4
Mof_C 	C 	0.8531	0.8414	0.2185	0.383
Mof_C 	C 	0.5658	0.35734	0.95154	-0.019
Mof_C 	C 	0.6586	0.8651	0.4071	0.027
Mof_C 	C 	0.9073	0.7164	0.6399	-0.056
Mof_C 	C 	0.6392	0.95566	0.44066	-0.023
Mof_C 	C 	0.30524	0.7633	0.36414	-0.11
Mof_C 	C 	0.9168	0.7214	0.5896	0.165
Mof_C 	C 	0.8397	0.2368	0.4841	0.07
Mof_C 	C 	0.8952	0.3681	0.2667	0.399
Mof_C 	C 	0.9071	0.6586	0.3651	0.027
Mof_C 	C 	0.8908	0.2871	0.4895	0.043
Mof_C 	C 	0.1319	0.5271	0.3986	0.399
Mof_C 	C 	0.6563	0.2052	0.3921	-0.421
Mof_C 	C 	0.6029	0.2473	0.7632	0.071
Mof_C 	C 	0.6469	0.8654	0.9883	0.39
Mof_C 	C 	0.1869	0.2948	0.9511	-0.414
Mof_C 	C 	0.1655	0.622	0.7207	-0.402
Mof_C 	C 	0.8297	0.2457	0.3736	-0.065
Mof_C 	C 	0.542	0.6349	0.2935	0.027
Mof_C 	C 	0.0439	0.916	0.1703	-0.064
Mof_O 	O 	0.69962	0.06788	0.92636	-0.5
Mof_O 	O 	0.5737	0.1585	0.8446	-0.206
Mof_O 	O 	0.6374	0.95747	0.87207	-0.546
Mof_O 	O 	0.67993	0.9146	0.04253	-0.554
Mof_O 	O 	0.06788	0.42636	0.19962	-0.504
Mof_O 	O 	0.42636	0.69962	0.56788	-0.503
Mof_O 	O 	0.83085	0.9858	0.11665	-0.493
Mof_O 	O 	0.8626	0.73467	0.32007	-0.547
Mof_O 	O 	0.13085	0.5142	0.34505	-0.493
Mof_O 	O 	0.0848	0.9263	0.2709	-0.207
Mof_O 	O 	0.6861	0.3415	0.9152	-0.204
Mof_O 	O 	0.8219	0.9357	0.9188	-0.487
Mof_O 	O 	0.37207	0.6374	0.45747	-0.548
Mof_O 	O 	1.89042e-17	0.5	0.26262	-0.961
Mof_O 	O 	0.80038	0.72674	0.36826	-0.504
Mof_O 	O 	0.7291	0.1554	0.3139	-0.208
Mof_O 	O 	0.86826	0.80038	0.22674	-0.504
Mof_O 	O 	0.73467	0.82007	0.3626	-0.547
Mof_O 	O 	0.88335	0.36915	0.2142	-0.493
Mof_O 	O 	0.85848	0.43212	0.13174	-0.504
Mof_O 	O 	0.65495	0.66915	0.2858	-0.493
Mof_O 	O 	0.5	0.76262	0.5	-0.96
Mof_O 	O 	0.4152	0.6861	0.8415	-0.207
Mof_O 	O 	0.9263	0.7709	0.5848	-0.207
Mof_O 	O 	0.43212	0.63174	0.35848	-0.504
Mof_O 	O 	0.76533	0.12793	0.0854	-0.549
Mof_O 	O 	0.1585	0.3446	0.0737	-0.209
Mof_O 	O 	0.3415	0.4152	0.1861	-0.207
Mof_O 	O 	0.12793	0.5854	0.26533	-0.548
Mof_O 	O 	0.5854	0.76533	0.62793	-0.547
Mof_O 	O 	0.54253	0.67993	0.4146	-0.548
Mof_O 	O 	0.4188	0.8219	0.4357	-0.491
Mof_O 	O 	0.6781	0.5969	0.1138	-0.492
Mof_O 	O 	0.6138	0.6781	0.0969	-0.493
Mof_O 	O 	0.9146	0.54253	0.17993	-0.548
Mof_O 	O 	0.5169	0.9031	0.5812	-0.491
Mof_O 	O 	0.7709	0.0848	0.4263	-0.207
Mof_O 	O 	0.9858	0.61665	0.33085	-0.493
Mof_O 	O 	0.1554	0.8139	0.2291	-0.208
Mof_O 	O 	0.8862	0.9831	0.0643	-0.492
Mof_O 	O 	0.36915	0.7142	0.38335	-0.493
Mof_O 	O 	0.66915	0.7858	0.15495	-0.494
Mof_O 	O 	0.64152	0.77326	0.57364	-0.503
Mof_O 	O 	0.7142	0.88335	0.86915	-0.491
Mof_O 	O 	0.76262	0	-0	-0.963
Mof_O 	O 	0.95747	0.37207	0.1374	-0.548
Mof_O 	O 	0.5643	0.8862	0.4831	-0.491
Mof_O 	O 	0.9831	0.5643	0.3862	-0.491
Mof_O 	O 	0.9031	0.0812	0.0169	-0.493
Mof_O 	O 	0.9357	0.4188	0.3219	-0.491
Mof_O 	O 	0.07364	0.64152	0.27326	-0.504
Mof_O 	O 	0.77326	0.07364	0.14152	-0.504
Mof_O 	O 	0.63174	0.85848	0.93212	-0.504
Mof_O 	O 	0.5142	0.84505	0.63085	-0.493
Mof_O 	O 	0.3446	0.5737	0.6585	-0.207
Mof_O 	O 	0.7858	0.65495	0.16915	-0.493
Mof_O 	O 	0.0812	0.5169	0.4031	-0.491
Mof_O 	O 	0.72674	0.86826	0.30038	-0.504
Mof_O 	O 	0.73738	0.73738	0.23738	-0.96
Mof_O 	O 	0.84505	0.13085	0.0142	-0.495
Mof_O 	O 	0.5969	0.6138	0.1781	-0.492
Mof_O 	O 	0.82007	0.8626	0.23467	-0.548
Mof_O 	O 	0.8139	0.7291	0.6554	-0.207
Mof_O 	O 	0.61665	0.83085	0.4858	-0.493
_end
