data_functionalizedCrystal
_audit_creation_method	'EQeq! by Chris Wilmer'
_symmetry_space_group_name_H-M	'P1'
_symmetry_Int_Tables_number	1
_symmetry_cell_setting	triclinic
loop_
_symmetry_equiv_pos_as_xyz
  x,y,z
_cell_length_a	10.3725
_cell_length_b	10.5575
_cell_length_c	6.2706
_cell_angle_alpha	90
_cell_angle_beta	114.948
_cell_angle_gamma	90
loop_
_atom_site_label
_atom_site_type_symbol
_atom_site_fract_x
_atom_site_fract_y
_atom_site_fract_z
_atom_site_charge
Mof_C 	C 	0.3167	0.2106	0.5457	-0.066
Mof_H 	H 	0.3977	0.265	0.5742	0.015
Mof_H 	H 	0.3299	0.1727	0.6945	-0.003
Mof_N 	N 	0.3119	0.1099	0.3808	-0.271
Mof_H 	H 	0.297	0.1452	0.2417	0.06
Mof_H 	H 	0.2378	0.0587	0.3573	0.053
Mof_C 	C 	0.8167	0.7106	0.5457	-0.067
Mof_H 	H 	0.8977	0.765	0.5742	0.043
Mof_H 	H 	0.8299	0.6727	0.6945	0.023
Mof_N 	N 	0.8119	0.6099	0.3808	-0.265
Mof_H 	H 	0.797	0.6452	0.2417	0.084
Mof_H 	H 	0.7378	0.5587	0.3573	0.083
Mof_C 	C 	0.6833	0.2106	0.9543	0.03
Mof_H 	H 	0.6023	0.265	0.9258	-0.007
Mof_H 	H 	0.6701	0.1727	0.8055	-0.027
Mof_N 	N 	0.6881	0.1099	0.1192	-0.295
Mof_H 	H 	0.703	0.1452	0.2583	0.076
Mof_H 	H 	0.7622	0.0587	0.1427	0.072
Mof_C 	C 	0.1833	0.7106	0.9543	0.034
Mof_H 	H 	0.1023	0.765	0.9258	-0.019
Mof_H 	H 	0.1701	0.6727	0.8055	-0.03
Mof_N 	N 	0.1881	0.6099	0.1192	-0.297
Mof_H 	H 	0.203	0.6452	0.2583	0.078
Mof_H 	H 	0.2622	0.5587	0.1427	0.081
Mof_C 	C 	0.6833	0.7894	0.4543	-0.024
Mof_H 	H 	0.6023	0.735	0.4258	0.007
Mof_H 	H 	0.6701	0.8273	0.3055	0.005
Mof_N 	N 	0.6881	0.8901	0.6192	-0.28
Mof_H 	H 	0.703	0.8548	0.7583	0.101
Mof_H 	H 	0.7622	0.9413	0.6427	0.116
Mof_C 	C 	0.1833	0.2894	0.4543	-0.021
Mof_H 	H 	0.1023	0.235	0.4258	-0.021
Mof_H 	H 	0.1701	0.3273	0.3055	-0.021
Mof_N 	N 	0.1881	0.3901	0.6192	-0.288
Mof_H 	H 	0.203	0.3548	0.7583	0.078
Mof_H 	H 	0.2622	0.4413	0.6427	0.086
Mof_C 	C 	0.3167	0.7894	0.0457	-0.119
Mof_H 	H 	0.3977	0.735	0.0742	0.031
Mof_H 	H 	0.3299	0.8273	0.1945	0.027
Mof_N 	N 	0.3119	0.8901	0.8808	-0.247
Mof_H 	H 	0.297	0.8548	0.7417	0.084
Mof_H 	H 	0.2378	0.9413	0.8573	0.097
Mof_C 	C 	0.8167	0.2894	0.0457	-0.122
Mof_H 	H 	0.8977	0.235	0.0742	0.042
Mof_H 	H 	0.8299	0.3273	0.1945	0.029
Mof_N 	N 	0.8119	0.3901	0.8808	-0.246
Mof_H 	H 	0.797	0.3548	0.7417	0.082
Mof_H 	H 	0.7378	0.4413	0.8573	0.087
Mof_Ag	Ag	0.5	0	0.5	0.305
Mof_Ag	Ag	1.61137e-33	0.5	0.5	0.308
Mof_Ag	Ag	0.5	0	-0	0.258
Mof_Ag	Ag	-0	0.5	-0	0.261
_end
