data_functionalizedCrystal
_audit_creation_method	'EQeq! by Chris Wilmer'
_symmetry_space_group_name_H-M	'P1'
_symmetry_Int_Tables_number	1
_symmetry_cell_setting	triclinic
loop_
_symmetry_equiv_pos_as_xyz
  x,y,z
_cell_length_a	8.67
_cell_length_b	9.742
_cell_length_c	10.406
_cell_angle_alpha	81.44
_cell_angle_beta	65.83
_cell_angle_gamma	67.16
loop_
_atom_site_label
_atom_site_type_symbol
_atom_site_fract_x
_atom_site_fract_y
_atom_site_fract_z
_atom_site_charge
Mof_Ga	Ga	0.13242	0.1493	0.86246	3.773
Mof_Ga	Ga	0.11989	0.54631	0.8491	3.739
Mof_P 	P 	0.2412	0.8029	0.8824	0.789
Mof_P 	P 	0.1994	0.3579	0.5908	0.691
Mof_P 	P 	0.7123	0.7193	0.9901	0.716
Mof_F 	F 	0.001	0.3928	0.9371	-1.41
Mof_O 	O 	0.24	0.9481	0.8019	-0.956
Mof_O 	O 	0.1039	0.8403	0.0365	-1.073
Mof_O 	O 	0.2018	0.7082	0.8052	-0.963
Mof_O 	O 	0.7146	0.8498	0.0568	-1.056
Mof_O 	O 	0.6888	0.5935	0.0965	-0.923
Mof_O 	O 	0.8795	0.6653	0.8534	-0.895
Mof_O 	O 	0.3623	0.3043	0.4555	-0.281
Mof_O 	O 	0.1722	0.2249	0.6872	-1.057
Mof_O 	O 	0.2147	0.4743	0.6654	-0.959
Mof_C 	C 	0.5133	0.8051	0.9515	-0.153
Mof_H 	H 	0.4103	0.8508	0.0397	0.064
Mof_H 	H 	0.5298	0.887	0.8849	0.071
Mof_C 	C 	0.9957	0.4403	0.5561	-0.194
Mof_H 	H 	0.9728	0.3611	0.5255	0.075
Mof_H 	H 	0.8923	0.4848	0.6445	0.064
Mof_C 	C 	0.4586	0.7063	0.889	-0.253
Mof_H 	H 	0.4573	0.6162	0.9472	0.08
Mof_H 	H 	0.5496	0.6738	0.7927	0.111
Mof_Ga	Ga	0.86758	0.8507	0.13754	3.773
Mof_Ga	Ga	0.88011	0.45369	0.1509	3.739
Mof_P 	P 	0.7588	0.1971	0.1176	0.789
Mof_P 	P 	0.8006	0.6421	0.4092	0.691
Mof_P 	P 	0.2877	0.2807	0.0099	0.716
Mof_F 	F 	0.999	0.6072	0.0629	-1.41
Mof_O 	O 	0.76	0.0519	0.1981	-0.956
Mof_O 	O 	0.8961	0.1597	0.9635	-1.073
Mof_O 	O 	0.7982	0.2918	0.1948	-0.963
Mof_O 	O 	0.2854	0.1502	0.9432	-1.056
Mof_O 	O 	0.3112	0.4065	0.9035	-0.923
Mof_O 	O 	0.1205	0.3347	0.1466	-0.895
Mof_O 	O 	0.6377	0.6957	0.5445	-0.281
Mof_O 	O 	0.8278	0.7751	0.3128	-1.057
Mof_O 	O 	0.7853	0.5257	0.3346	-0.959
Mof_C 	C 	0.4867	0.1949	0.0485	-0.153
Mof_H 	H 	0.5897	0.1492	0.9603	0.064
Mof_H 	H 	0.4702	0.113	0.1151	0.071
Mof_C 	C 	0.0043	0.5597	0.4439	-0.194
Mof_H 	H 	0.0272	0.6389	0.4745	0.075
Mof_H 	H 	0.1077	0.5152	0.3555	0.064
Mof_C 	C 	0.5414	0.2937	0.111	-0.253
Mof_H 	H 	0.5427	0.3838	0.0528	0.08
Mof_H 	H 	0.4504	0.3262	0.2073	0.111
_end
