data_functionalizedCrystal
_audit_creation_method	'EQeq! by Chris Wilmer'
_symmetry_space_group_name_H-M	'P1'
_symmetry_Int_Tables_number	1
_symmetry_cell_setting	triclinic
loop_
_symmetry_equiv_pos_as_xyz
  x,y,z
_cell_length_a	35.8514
_cell_length_b	35.8514
_cell_length_c	15.626
_cell_angle_alpha	90
_cell_angle_beta	90
_cell_angle_gamma	120
loop_
_atom_site_label
_atom_site_type_symbol
_atom_site_fract_x
_atom_site_fract_y
_atom_site_fract_z
_atom_site_charge
Mof_O 	O 	0.63017	0.77651	0.4134	-0.408
Mof_O 	O 	0.61478	0.76904	0.2727	-0.413
Mof_C 	C 	0.60987	0.75528	0.3465	0.373
Mof_C 	C 	0.57746	0.70854	0.3644	-0.14
Mof_C 	C 	0.55252	0.68204	0.2973	0.083
Mof_H 	H 	0.5546	0.693	0.2425	0.018
Mof_C 	C 	0.52422	0.63828	0.3149	-0.169
Mof_H 	H 	0.5073	0.6204	0.2708	0.106
Mof_C 	C 	0.52074	0.62123	0.3942	0.138
Mof_C 	C 	0.5445	0.64866	0.4589	-0.174
Mof_H 	H 	0.5414	0.638	0.5143	0.095
Mof_C 	C 	0.57326	0.69236	0.4435	0.09
Mof_H 	H 	0.5895	0.7102	0.4883	0.017
Mof_C 	C 	0.49314	0.57425	0.4127	-0.085
Mof_C 	C 	0.51199	0.55407	0.4551	-0.037
Mof_H 	H 	0.541	0.5702	0.4696	0.043
Mof_C 	C 	0.426	0.6131	0.4715	-0.023
Mof_C 	C 	0.3756	0.5892	0.3351	-0.01
Mof_O 	O 	0.29684	0.10984	0.74673	-0.408
Mof_O 	O 	0.28145	0.10237	0.60603	-0.413
Mof_C 	C 	0.27654	0.08861	0.67983	0.373
Mof_C 	C 	0.24413	0.04187	0.69773	-0.14
Mof_C 	C 	0.21919	0.01537	0.63063	0.083
Mof_H 	H 	0.22127	0.02633	0.57583	0.018
Mof_C 	C 	0.19089	0.97161	0.64823	-0.169
Mof_H 	H 	0.17397	0.95373	0.60413	0.105
Mof_C 	C 	0.18741	0.95456	0.72753	0.137
Mof_C 	C 	0.21117	0.98199	0.79223	-0.174
Mof_H 	H 	0.20807	0.97133	0.84763	0.095
Mof_C 	C 	0.23993	0.02569	0.77683	0.089
Mof_H 	H 	0.25617	0.04353	0.82163	0.017
Mof_C 	C 	0.15981	0.90758	0.74603	-0.085
Mof_C 	C 	0.17866	0.8874	0.78843	-0.037
Mof_H 	H 	0.20767	0.90353	0.80293	0.043
Mof_C 	C 	0.09267	0.94643	0.80483	-0.023
Mof_C 	C 	0.04227	0.92253	0.66843	-0.01
Mof_O 	O 	0.9635	0.44318	0.08007	-0.408
Mof_O 	O 	0.94811	0.43571	0.93937	-0.414
Mof_C 	C 	0.9432	0.42195	0.01317	0.373
Mof_C 	C 	0.91079	0.37521	0.03107	-0.14
Mof_C 	C 	0.88585	0.34871	0.96397	0.083
Mof_H 	H 	0.88793	0.35967	0.90917	0.018
Mof_C 	C 	0.85755	0.30495	0.98157	-0.17
Mof_H 	H 	0.84063	0.28707	0.93747	0.106
Mof_C 	C 	0.85407	0.2879	0.06087	0.138
Mof_C 	C 	0.87783	0.31533	0.12557	-0.174
Mof_H 	H 	0.87473	0.30467	0.18097	0.095
Mof_C 	C 	0.90659	0.35903	0.11017	0.09
Mof_H 	H 	0.92283	0.37687	0.15497	0.017
Mof_C 	C 	0.82647	0.24092	0.07937	-0.086
Mof_C 	C 	0.84532	0.22074	0.12177	-0.037
Mof_H 	H 	0.87433	0.23687	0.13627	0.043
Mof_C 	C 	0.75933	0.27977	0.13817	-0.023
Mof_C 	C 	0.70893	0.25587	0.00177	-0.01
Mof_O 	O 	0.22349	0.85366	0.4134	-0.408
Mof_O 	O 	0.23096	0.84574	0.2727	-0.413
Mof_C 	C 	0.24472	0.85459	0.3465	0.373
Mof_C 	C 	0.29146	0.86892	0.3644	-0.14
Mof_C 	C 	0.31796	0.87048	0.2973	0.083
Mof_H 	H 	0.307	0.8616	0.2425	0.018
Mof_C 	C 	0.36172	0.88594	0.3149	-0.169
Mof_H 	H 	0.3796	0.8869	0.2708	0.106
Mof_C 	C 	0.37877	0.89951	0.3942	0.138
Mof_C 	C 	0.35134	0.89584	0.4589	-0.174
Mof_H 	H 	0.362	0.9034	0.5143	0.096
Mof_C 	C 	0.30764	0.8809	0.4435	0.091
Mof_H 	H 	0.2898	0.8793	0.4883	0.018
Mof_C 	C 	0.42575	0.91889	0.4127	-0.084
Mof_C 	C 	0.44593	0.95792	0.4551	-0.036
Mof_H 	H 	0.4298	0.9708	0.4696	0.044
Mof_C 	C 	0.3869	0.8129	0.4715	-0.022
Mof_C 	C 	0.4108	0.7864	0.3351	-0.009
Mof_O 	O 	0.89016	0.18699	0.74673	-0.407
Mof_O 	O 	0.89763	0.17907	0.60603	-0.412
Mof_C 	C 	0.91139	0.18792	0.67983	0.374
Mof_C 	C 	0.95813	0.20225	0.69773	-0.139
Mof_C 	C 	0.98463	0.20381	0.63063	0.084
Mof_H 	H 	0.97367	0.19493	0.57583	0.019
Mof_C 	C 	0.02839	0.21927	0.64823	-0.168
Mof_H 	H 	0.04627	0.22023	0.60413	0.106
Mof_C 	C 	0.04544	0.23284	0.72753	0.138
Mof_C 	C 	0.01801	0.22917	0.79223	-0.173
Mof_H 	H 	0.02867	0.23673	0.84763	0.096
Mof_C 	C 	0.97431	0.21423	0.77683	0.091
Mof_H 	H 	0.95647	0.21263	0.82163	0.018
Mof_C 	C 	0.09242	0.25222	0.74603	-0.084
Mof_C 	C 	0.1126	0.29125	0.78843	-0.036
Mof_H 	H 	0.09647	0.30413	0.80293	0.044
Mof_C 	C 	0.05357	0.14623	0.80483	-0.022
Mof_C 	C 	0.07747	0.11973	0.66843	-0.009
Mof_O 	O 	0.55682	0.52033	0.08007	-0.407
Mof_O 	O 	0.56429	0.51241	0.93937	-0.412
Mof_C 	C 	0.57805	0.52126	0.01317	0.374
Mof_C 	C 	0.62479	0.53559	0.03107	-0.139
Mof_C 	C 	0.65129	0.53715	0.96397	0.084
Mof_H 	H 	0.64033	0.52827	0.90917	0.019
Mof_C 	C 	0.69505	0.55261	0.98157	-0.168
Mof_H 	H 	0.71293	0.55357	0.93747	0.107
Mof_C 	C 	0.7121	0.56618	0.06087	0.139
Mof_C 	C 	0.68467	0.56251	0.12557	-0.173
Mof_H 	H 	0.69533	0.57007	0.18097	0.096
Mof_C 	C 	0.64097	0.54757	0.11017	0.091
Mof_H 	H 	0.62313	0.54597	0.15497	0.018
Mof_C 	C 	0.75908	0.58556	0.07937	-0.084
Mof_C 	C 	0.77926	0.62459	0.12177	-0.036
Mof_H 	H 	0.76313	0.63747	0.13627	0.044
Mof_C 	C 	0.72023	0.47957	0.13817	-0.022
Mof_C 	C 	0.74413	0.45307	0.00177	-0.009
Mof_O 	O 	0.14634	0.36983	0.4134	-0.407
Mof_O 	O 	0.15426	0.38522	0.2727	-0.412
Mof_C 	C 	0.14541	0.39013	0.3465	0.374
Mof_C 	C 	0.13108	0.42254	0.3644	-0.139
Mof_C 	C 	0.12952	0.44748	0.2973	0.084
Mof_H 	H 	0.1384	0.4454	0.2425	0.019
Mof_C 	C 	0.11406	0.47578	0.3149	-0.168
Mof_H 	H 	0.1131	0.4927	0.2708	0.107
Mof_C 	C 	0.10049	0.47926	0.3942	0.139
Mof_C 	C 	0.10416	0.4555	0.4589	-0.173
Mof_H 	H 	0.0966	0.4586	0.5143	0.096
Mof_C 	C 	0.1191	0.42674	0.4435	0.091
Mof_H 	H 	0.1207	0.4105	0.4883	0.018
Mof_C 	C 	0.08111	0.50686	0.4127	-0.084
Mof_C 	C 	0.04208	0.48801	0.4551	-0.036
Mof_H 	H 	0.0292	0.459	0.4696	0.044
Mof_C 	C 	0.1871	0.574	0.4715	-0.022
Mof_C 	C 	0.2136	0.6244	0.3351	-0.009
Mof_O 	O 	0.81301	0.70316	0.74673	-0.407
Mof_O 	O 	0.82093	0.71855	0.60603	-0.412
Mof_C 	C 	0.81208	0.72346	0.67983	0.374
Mof_C 	C 	0.79775	0.75587	0.69773	-0.139
Mof_C 	C 	0.79619	0.78081	0.63063	0.084
Mof_H 	H 	0.80507	0.77873	0.57583	0.019
Mof_C 	C 	0.78073	0.80911	0.64823	-0.168
Mof_H 	H 	0.77977	0.82603	0.60413	0.107
Mof_C 	C 	0.76716	0.81259	0.72753	0.139
Mof_C 	C 	0.77083	0.78883	0.79223	-0.173
Mof_H 	H 	0.76327	0.79193	0.84763	0.096
Mof_C 	C 	0.78577	0.76007	0.77683	0.091
Mof_H 	H 	0.78737	0.74383	0.82163	0.018
Mof_C 	C 	0.74778	0.84019	0.74603	-0.084
Mof_C 	C 	0.70875	0.82134	0.78843	-0.036
Mof_H 	H 	0.69587	0.79233	0.80293	0.044
Mof_C 	C 	0.85377	0.90733	0.80483	-0.022
Mof_C 	C 	0.88027	0.95773	0.66843	-0.009
Mof_O 	O 	0.47967	0.0365	0.08007	-0.407
Mof_O 	O 	0.48759	0.05189	0.93937	-0.412
Mof_C 	C 	0.47874	0.0568	0.01317	0.374
Mof_C 	C 	0.46441	0.08921	0.03107	-0.139
Mof_C 	C 	0.46285	0.11415	0.96397	0.084
Mof_H 	H 	0.47173	0.11207	0.90917	0.019
Mof_C 	C 	0.44739	0.14245	0.98157	-0.168
Mof_H 	H 	0.44643	0.15937	0.93747	0.107
Mof_C 	C 	0.43382	0.14593	0.06087	0.139
Mof_C 	C 	0.43749	0.12217	0.12557	-0.173
Mof_H 	H 	0.42993	0.12527	0.18097	0.096
Mof_C 	C 	0.45243	0.09341	0.11017	0.091
Mof_H 	H 	0.45403	0.07717	0.15497	0.018
Mof_C 	C 	0.41444	0.17353	0.07937	-0.084
Mof_C 	C 	0.37541	0.15468	0.12177	-0.036
Mof_H 	H 	0.36253	0.12567	0.13627	0.044
Mof_C 	C 	0.52043	0.24067	0.13817	-0.022
Mof_C 	C 	0.54693	0.29107	0.00177	-0.009
Mof_O 	O 	0.77651	0.63017	0.5866	-0.407
Mof_O 	O 	0.76904	0.61478	0.7273	-0.412
Mof_C 	C 	0.75528	0.60987	0.6535	0.374
Mof_C 	C 	0.70854	0.57746	0.6356	-0.139
Mof_C 	C 	0.68204	0.55252	0.7027	0.084
Mof_H 	H 	0.693	0.5546	0.7575	0.019
Mof_C 	C 	0.63828	0.52422	0.6851	-0.168
Mof_H 	H 	0.6204	0.5073	0.7292	0.107
Mof_C 	C 	0.62123	0.52074	0.6058	0.139
Mof_C 	C 	0.64866	0.5445	0.5411	-0.173
Mof_H 	H 	0.638	0.5414	0.4857	0.096
Mof_C 	C 	0.69236	0.57326	0.5565	0.091
Mof_H 	H 	0.7102	0.5895	0.5117	0.018
Mof_C 	C 	0.57425	0.49314	0.5873	-0.084
Mof_C 	C 	0.55407	0.51199	0.5449	-0.036
Mof_H 	H 	0.5702	0.541	0.5304	0.044
Mof_C 	C 	0.6131	0.426	0.5285	-0.022
Mof_C 	C 	0.5892	0.3756	0.6649	-0.009
Mof_O 	O 	0.44318	0.9635	0.91993	-0.407
Mof_O 	O 	0.43571	0.94811	0.06063	-0.413
Mof_C 	C 	0.42195	0.9432	0.98683	0.374
Mof_C 	C 	0.37521	0.91079	0.96893	-0.139
Mof_C 	C 	0.34871	0.88585	0.03603	0.084
Mof_H 	H 	0.35967	0.88793	0.09083	0.019
Mof_C 	C 	0.30495	0.85755	0.01843	-0.169
Mof_H 	H 	0.28707	0.84063	0.06253	0.107
Mof_C 	C 	0.2879	0.85407	0.93913	0.139
Mof_C 	C 	0.31533	0.87783	0.87443	-0.173
Mof_H 	H 	0.30467	0.87473	0.81903	0.096
Mof_C 	C 	0.35903	0.90659	0.88983	0.091
Mof_H 	H 	0.37687	0.92283	0.84503	0.018
Mof_C 	C 	0.24092	0.82647	0.92063	-0.085
Mof_C 	C 	0.22074	0.84532	0.87823	-0.036
Mof_H 	H 	0.23687	0.87433	0.86373	0.044
Mof_C 	C 	0.27977	0.75933	0.86183	-0.022
Mof_C 	C 	0.25587	0.70893	0.99823	-0.009
Mof_O 	O 	0.10984	0.29684	0.25327	-0.407
Mof_O 	O 	0.10237	0.28145	0.39397	-0.412
Mof_C 	C 	0.08861	0.27654	0.32017	0.374
Mof_C 	C 	0.04187	0.24413	0.30227	-0.139
Mof_C 	C 	0.01537	0.21919	0.36937	0.084
Mof_H 	H 	0.02633	0.22127	0.42417	0.019
Mof_C 	C 	0.97161	0.19089	0.35177	-0.168
Mof_H 	H 	0.95373	0.17397	0.39587	0.106
Mof_C 	C 	0.95456	0.18741	0.27247	0.138
Mof_C 	C 	0.98199	0.21117	0.20777	-0.173
Mof_H 	H 	0.97133	0.20807	0.15237	0.096
Mof_C 	C 	0.02569	0.23993	0.22317	0.09
Mof_H 	H 	0.04353	0.25617	0.17837	0.018
Mof_C 	C 	0.90758	0.15981	0.25397	-0.084
Mof_C 	C 	0.8874	0.17866	0.21157	-0.036
Mof_H 	H 	0.90353	0.20767	0.19707	0.044
Mof_C 	C 	0.94643	0.09267	0.19517	-0.022
Mof_C 	C 	0.92253	0.04227	0.33157	-0.009
Mof_O 	O 	0.85366	0.22349	0.5866	-0.407
Mof_O 	O 	0.84574	0.23096	0.7273	-0.412
Mof_C 	C 	0.85459	0.24472	0.6535	0.374
Mof_C 	C 	0.86892	0.29146	0.6356	-0.139
Mof_C 	C 	0.87048	0.31796	0.7027	0.084
Mof_H 	H 	0.8616	0.307	0.7575	0.019
Mof_C 	C 	0.88594	0.36172	0.6851	-0.168
Mof_H 	H 	0.8869	0.3796	0.7292	0.107
Mof_C 	C 	0.89951	0.37877	0.6058	0.139
Mof_C 	C 	0.89584	0.35134	0.5411	-0.173
Mof_H 	H 	0.9034	0.362	0.4857	0.096
Mof_C 	C 	0.8809	0.30764	0.5565	0.091
Mof_H 	H 	0.8793	0.2898	0.5117	0.018
Mof_C 	C 	0.91889	0.42575	0.5873	-0.084
Mof_C 	C 	0.95792	0.44593	0.5449	-0.036
Mof_H 	H 	0.9708	0.4298	0.5304	0.044
Mof_C 	C 	0.8129	0.3869	0.5285	-0.022
Mof_C 	C 	0.7864	0.4108	0.6649	-0.009
Mof_O 	O 	0.52033	0.55682	0.91993	-0.407
Mof_O 	O 	0.51241	0.56429	0.06063	-0.412
Mof_C 	C 	0.52126	0.57805	0.98683	0.374
Mof_C 	C 	0.53559	0.62479	0.96893	-0.139
Mof_C 	C 	0.53715	0.65129	0.03603	0.084
Mof_H 	H 	0.52827	0.64033	0.09083	0.019
Mof_C 	C 	0.55261	0.69505	0.01843	-0.168
Mof_H 	H 	0.55357	0.71293	0.06253	0.107
Mof_C 	C 	0.56618	0.7121	0.93913	0.139
Mof_C 	C 	0.56251	0.68467	0.87443	-0.173
Mof_H 	H 	0.57007	0.69533	0.81903	0.096
Mof_C 	C 	0.54757	0.64097	0.88983	0.091
Mof_H 	H 	0.54597	0.62313	0.84503	0.018
Mof_C 	C 	0.58556	0.75908	0.92063	-0.084
Mof_C 	C 	0.62459	0.77926	0.87823	-0.036
Mof_H 	H 	0.63747	0.76313	0.86373	0.044
Mof_C 	C 	0.47957	0.72023	0.86183	-0.022
Mof_C 	C 	0.45307	0.74413	0.99823	-0.009
Mof_O 	O 	0.18699	0.89016	0.25327	-0.407
Mof_O 	O 	0.17907	0.89763	0.39397	-0.412
Mof_C 	C 	0.18792	0.91139	0.32017	0.374
Mof_C 	C 	0.20225	0.95813	0.30227	-0.139
Mof_C 	C 	0.20381	0.98463	0.36937	0.084
Mof_H 	H 	0.19493	0.97367	0.42417	0.019
Mof_C 	C 	0.21927	0.02839	0.35177	-0.168
Mof_H 	H 	0.22023	0.04627	0.39587	0.106
Mof_C 	C 	0.23284	0.04544	0.27247	0.138
Mof_C 	C 	0.22917	0.01801	0.20777	-0.173
Mof_H 	H 	0.23673	0.02867	0.15237	0.096
Mof_C 	C 	0.21423	0.97431	0.22317	0.091
Mof_H 	H 	0.21263	0.95647	0.17837	0.018
Mof_C 	C 	0.25222	0.09242	0.25397	-0.084
Mof_C 	C 	0.29125	0.1126	0.21157	-0.036
Mof_H 	H 	0.30413	0.09647	0.19707	0.044
Mof_C 	C 	0.14623	0.05357	0.19517	-0.022
Mof_C 	C 	0.11973	0.07747	0.33157	-0.009
Mof_O 	O 	0.36983	0.14634	0.5866	-0.407
Mof_O 	O 	0.38522	0.15426	0.7273	-0.412
Mof_C 	C 	0.39013	0.14541	0.6535	0.374
Mof_C 	C 	0.42254	0.13108	0.6356	-0.139
Mof_C 	C 	0.44748	0.12952	0.7027	0.084
Mof_H 	H 	0.4454	0.1384	0.7575	0.019
Mof_C 	C 	0.47578	0.11406	0.6851	-0.168
Mof_H 	H 	0.4927	0.1131	0.7292	0.107
Mof_C 	C 	0.47926	0.10049	0.6058	0.139
Mof_C 	C 	0.4555	0.10416	0.5411	-0.173
Mof_H 	H 	0.4586	0.0966	0.4857	0.096
Mof_C 	C 	0.42674	0.1191	0.5565	0.091
Mof_H 	H 	0.4105	0.1207	0.5117	0.018
Mof_C 	C 	0.50686	0.08111	0.5873	-0.084
Mof_C 	C 	0.48801	0.04208	0.5449	-0.036
Mof_H 	H 	0.459	0.0292	0.5304	0.044
Mof_C 	C 	0.574	0.1871	0.5285	-0.022
Mof_C 	C 	0.6244	0.2136	0.6649	-0.009
Mof_O 	O 	0.0365	0.47967	0.91993	-0.407
Mof_O 	O 	0.05189	0.48759	0.06063	-0.412
Mof_C 	C 	0.0568	0.47874	0.98683	0.374
Mof_C 	C 	0.08921	0.46441	0.96893	-0.139
Mof_C 	C 	0.11415	0.46285	0.03603	0.084
Mof_H 	H 	0.11207	0.47173	0.09083	0.019
Mof_C 	C 	0.14245	0.44739	0.01843	-0.168
Mof_H 	H 	0.15937	0.44643	0.06253	0.107
Mof_C 	C 	0.14593	0.43382	0.93913	0.139
Mof_C 	C 	0.12217	0.43749	0.87443	-0.173
Mof_H 	H 	0.12527	0.42993	0.81903	0.096
Mof_C 	C 	0.09341	0.45243	0.88983	0.091
Mof_H 	H 	0.07717	0.45403	0.84503	0.018
Mof_C 	C 	0.17353	0.41444	0.92063	-0.084
Mof_C 	C 	0.15468	0.37541	0.87823	-0.036
Mof_H 	H 	0.12567	0.36253	0.86373	0.044
Mof_C 	C 	0.24067	0.52043	0.86183	-0.022
Mof_C 	C 	0.29107	0.54693	0.99823	-0.009
Mof_O 	O 	0.70316	0.81301	0.25327	-0.407
Mof_O 	O 	0.71855	0.82093	0.39397	-0.412
Mof_C 	C 	0.72346	0.81208	0.32017	0.374
Mof_C 	C 	0.75587	0.79775	0.30227	-0.139
Mof_C 	C 	0.78081	0.79619	0.36937	0.084
Mof_H 	H 	0.77873	0.80507	0.42417	0.019
Mof_C 	C 	0.80911	0.78073	0.35177	-0.168
Mof_H 	H 	0.82603	0.77977	0.39587	0.107
Mof_C 	C 	0.81259	0.76716	0.27247	0.139
Mof_C 	C 	0.78883	0.77083	0.20777	-0.173
Mof_H 	H 	0.79193	0.76327	0.15237	0.096
Mof_C 	C 	0.76007	0.78577	0.22317	0.091
Mof_H 	H 	0.74383	0.78737	0.17837	0.018
Mof_C 	C 	0.84019	0.74778	0.25397	-0.084
Mof_C 	C 	0.82134	0.70875	0.21157	-0.036
Mof_H 	H 	0.79233	0.69587	0.19707	0.044
Mof_C 	C 	0.90733	0.85377	0.19517	-0.022
Mof_C 	C 	0.95773	0.88027	0.33157	-0.009
Mof_O 	O 	0.36983	0.22349	0.5866	-0.407
Mof_O 	O 	0.38522	0.23096	0.7273	-0.412
Mof_C 	C 	0.39013	0.24472	0.6535	0.374
Mof_C 	C 	0.42254	0.29146	0.6356	-0.139
Mof_C 	C 	0.44748	0.31796	0.7027	0.084
Mof_H 	H 	0.4454	0.307	0.7575	0.019
Mof_C 	C 	0.47578	0.36172	0.6851	-0.168
Mof_H 	H 	0.4927	0.3796	0.7292	0.107
Mof_C 	C 	0.47926	0.37877	0.6058	0.139
Mof_C 	C 	0.4555	0.35134	0.5411	-0.173
Mof_H 	H 	0.4586	0.362	0.4857	0.096
Mof_C 	C 	0.42674	0.30764	0.5565	0.091
Mof_H 	H 	0.4105	0.2898	0.5117	0.018
Mof_C 	C 	0.50686	0.42575	0.5873	-0.084
Mof_C 	C 	0.48801	0.44593	0.5449	-0.036
Mof_H 	H 	0.459	0.4298	0.5304	0.044
Mof_C 	C 	0.574	0.3869	0.5285	-0.022
Mof_C 	C 	0.6244	0.4108	0.6649	-0.009
Mof_O 	O 	0.0365	0.55682	0.91993	-0.407
Mof_O 	O 	0.05189	0.56429	0.06063	-0.413
Mof_C 	C 	0.0568	0.57805	0.98683	0.374
Mof_C 	C 	0.08921	0.62479	0.96893	-0.139
Mof_C 	C 	0.11415	0.65129	0.03603	0.084
Mof_H 	H 	0.11207	0.64033	0.09083	0.019
Mof_C 	C 	0.14245	0.69505	0.01843	-0.169
Mof_H 	H 	0.15937	0.71293	0.06253	0.107
Mof_C 	C 	0.14593	0.7121	0.93913	0.139
Mof_C 	C 	0.12217	0.68467	0.87443	-0.173
Mof_H 	H 	0.12527	0.69533	0.81903	0.096
Mof_C 	C 	0.09341	0.64097	0.88983	0.091
Mof_H 	H 	0.07717	0.62313	0.84503	0.018
Mof_C 	C 	0.17353	0.75908	0.92063	-0.085
Mof_C 	C 	0.15468	0.77926	0.87823	-0.036
Mof_H 	H 	0.12567	0.76313	0.86373	0.044
Mof_C 	C 	0.24067	0.72023	0.86183	-0.022
Mof_C 	C 	0.29107	0.74413	0.99823	-0.009
Mof_O 	O 	0.70316	0.89016	0.25327	-0.407
Mof_O 	O 	0.71855	0.89763	0.39397	-0.412
Mof_C 	C 	0.72346	0.91139	0.32017	0.374
Mof_C 	C 	0.75587	0.95813	0.30227	-0.139
Mof_C 	C 	0.78081	0.98463	0.36937	0.084
Mof_H 	H 	0.77873	0.97367	0.42417	0.019
Mof_C 	C 	0.80911	0.02839	0.35177	-0.168
Mof_H 	H 	0.82603	0.04627	0.39587	0.106
Mof_C 	C 	0.81259	0.04544	0.27247	0.138
Mof_C 	C 	0.78883	0.01801	0.20777	-0.173
Mof_H 	H 	0.79193	0.02867	0.15237	0.096
Mof_C 	C 	0.76007	0.97431	0.22317	0.09
Mof_H 	H 	0.74383	0.95647	0.17837	0.018
Mof_C 	C 	0.84019	0.09242	0.25397	-0.084
Mof_C 	C 	0.82134	0.1126	0.21157	-0.036
Mof_H 	H 	0.79233	0.09647	0.19707	0.044
Mof_C 	C 	0.90733	0.05357	0.19517	-0.022
Mof_C 	C 	0.95773	0.07747	0.33157	-0.009
Mof_O 	O 	0.77651	0.14634	0.5866	-0.407
Mof_O 	O 	0.76904	0.15426	0.7273	-0.412
Mof_C 	C 	0.75528	0.14541	0.6535	0.374
Mof_C 	C 	0.70854	0.13108	0.6356	-0.139
Mof_C 	C 	0.68204	0.12952	0.7027	0.084
Mof_H 	H 	0.693	0.1384	0.7575	0.019
Mof_C 	C 	0.63828	0.11406	0.6851	-0.168
Mof_H 	H 	0.6204	0.1131	0.7292	0.107
Mof_C 	C 	0.62123	0.10049	0.6058	0.139
Mof_C 	C 	0.64866	0.10416	0.5411	-0.173
Mof_H 	H 	0.638	0.0966	0.4857	0.096
Mof_C 	C 	0.69236	0.1191	0.5565	0.091
Mof_H 	H 	0.7102	0.1207	0.5117	0.018
Mof_C 	C 	0.57425	0.08111	0.5873	-0.084
Mof_C 	C 	0.55407	0.04208	0.5449	-0.036
Mof_H 	H 	0.5702	0.0292	0.5304	0.044
Mof_C 	C 	0.6131	0.1871	0.5285	-0.022
Mof_C 	C 	0.5892	0.2136	0.6649	-0.009
Mof_O 	O 	0.44318	0.47967	0.91993	-0.407
Mof_O 	O 	0.43571	0.48759	0.06063	-0.412
Mof_C 	C 	0.42195	0.47874	0.98683	0.374
Mof_C 	C 	0.37521	0.46441	0.96893	-0.139
Mof_C 	C 	0.34871	0.46285	0.03603	0.084
Mof_H 	H 	0.35967	0.47173	0.09083	0.019
Mof_C 	C 	0.30495	0.44739	0.01843	-0.168
Mof_H 	H 	0.28707	0.44643	0.06253	0.107
Mof_C 	C 	0.2879	0.43382	0.93913	0.139
Mof_C 	C 	0.31533	0.43749	0.87443	-0.173
Mof_H 	H 	0.30467	0.42993	0.81903	0.096
Mof_C 	C 	0.35903	0.45243	0.88983	0.091
Mof_H 	H 	0.37687	0.45403	0.84503	0.018
Mof_C 	C 	0.24092	0.41444	0.92063	-0.084
Mof_C 	C 	0.22074	0.37541	0.87823	-0.036
Mof_H 	H 	0.23687	0.36253	0.86373	0.044
Mof_C 	C 	0.27977	0.52043	0.86183	-0.022
Mof_C 	C 	0.25587	0.54693	0.99823	-0.009
Mof_O 	O 	0.10984	0.81301	0.25327	-0.407
Mof_O 	O 	0.10237	0.82093	0.39397	-0.412
Mof_C 	C 	0.08861	0.81208	0.32017	0.374
Mof_C 	C 	0.04187	0.79775	0.30227	-0.139
Mof_C 	C 	0.01537	0.79619	0.36937	0.084
Mof_H 	H 	0.02633	0.80507	0.42417	0.019
Mof_C 	C 	0.97161	0.78073	0.35177	-0.168
Mof_H 	H 	0.95373	0.77977	0.39587	0.106
Mof_C 	C 	0.95456	0.76716	0.27247	0.138
Mof_C 	C 	0.98199	0.77083	0.20777	-0.173
Mof_H 	H 	0.97133	0.76327	0.15237	0.096
Mof_C 	C 	0.02569	0.78577	0.22317	0.091
Mof_H 	H 	0.04353	0.78737	0.17837	0.018
Mof_C 	C 	0.90758	0.74778	0.25397	-0.084
Mof_C 	C 	0.8874	0.70875	0.21157	-0.036
Mof_H 	H 	0.90353	0.69587	0.19707	0.044
Mof_C 	C 	0.94643	0.85377	0.19517	-0.022
Mof_C 	C 	0.92253	0.88027	0.33157	-0.009
Mof_O 	O 	0.85366	0.63017	0.5866	-0.407
Mof_O 	O 	0.84574	0.61478	0.7273	-0.412
Mof_C 	C 	0.85459	0.60987	0.6535	0.374
Mof_C 	C 	0.86892	0.57746	0.6356	-0.139
Mof_C 	C 	0.87048	0.55252	0.7027	0.084
Mof_H 	H 	0.8616	0.5546	0.7575	0.019
Mof_C 	C 	0.88594	0.52422	0.6851	-0.168
Mof_H 	H 	0.8869	0.5073	0.7292	0.107
Mof_C 	C 	0.89951	0.52074	0.6058	0.139
Mof_C 	C 	0.89584	0.5445	0.5411	-0.173
Mof_H 	H 	0.9034	0.5414	0.4857	0.096
Mof_C 	C 	0.8809	0.57326	0.5565	0.091
Mof_H 	H 	0.8793	0.5895	0.5117	0.018
Mof_C 	C 	0.91889	0.49314	0.5873	-0.084
Mof_C 	C 	0.95792	0.51199	0.5449	-0.036
Mof_H 	H 	0.9708	0.541	0.5304	0.044
Mof_C 	C 	0.8129	0.426	0.5285	-0.022
Mof_C 	C 	0.7864	0.3756	0.6649	-0.009
Mof_O 	O 	0.52033	0.9635	0.91993	-0.407
Mof_O 	O 	0.51241	0.94811	0.06063	-0.412
Mof_C 	C 	0.52126	0.9432	0.98683	0.374
Mof_C 	C 	0.53559	0.91079	0.96893	-0.139
Mof_C 	C 	0.53715	0.88585	0.03603	0.084
Mof_H 	H 	0.52827	0.88793	0.09083	0.019
Mof_C 	C 	0.55261	0.85755	0.01843	-0.168
Mof_H 	H 	0.55357	0.84063	0.06253	0.107
Mof_C 	C 	0.56618	0.85407	0.93913	0.139
Mof_C 	C 	0.56251	0.87783	0.87443	-0.173
Mof_H 	H 	0.57007	0.87473	0.81903	0.096
Mof_C 	C 	0.54757	0.90659	0.88983	0.091
Mof_H 	H 	0.54597	0.92283	0.84503	0.018
Mof_C 	C 	0.58556	0.82647	0.92063	-0.084
Mof_C 	C 	0.62459	0.84532	0.87823	-0.036
Mof_H 	H 	0.63747	0.87433	0.86373	0.044
Mof_C 	C 	0.47957	0.75933	0.86183	-0.022
Mof_C 	C 	0.45307	0.70893	0.99823	-0.009
Mof_O 	O 	0.18699	0.29684	0.25327	-0.407
Mof_O 	O 	0.17907	0.28145	0.39397	-0.412
Mof_C 	C 	0.18792	0.27654	0.32017	0.374
Mof_C 	C 	0.20225	0.24413	0.30227	-0.139
Mof_C 	C 	0.20381	0.21919	0.36937	0.084
Mof_H 	H 	0.19493	0.22127	0.42417	0.019
Mof_C 	C 	0.21927	0.19089	0.35177	-0.168
Mof_H 	H 	0.22023	0.17397	0.39587	0.107
Mof_C 	C 	0.23284	0.18741	0.27247	0.139
Mof_C 	C 	0.22917	0.21117	0.20777	-0.173
Mof_H 	H 	0.23673	0.20807	0.15237	0.096
Mof_C 	C 	0.21423	0.23993	0.22317	0.091
Mof_H 	H 	0.21263	0.25617	0.17837	0.018
Mof_C 	C 	0.25222	0.15981	0.25397	-0.084
Mof_C 	C 	0.29125	0.17866	0.21157	-0.036
Mof_H 	H 	0.30413	0.20767	0.19707	0.044
Mof_C 	C 	0.14623	0.09267	0.19517	-0.022
Mof_C 	C 	0.11973	0.04227	0.33157	-0.009
Mof_O 	O 	0.22349	0.36983	0.4134	-0.407
Mof_O 	O 	0.23096	0.38522	0.2727	-0.412
Mof_C 	C 	0.24472	0.39013	0.3465	0.374
Mof_C 	C 	0.29146	0.42254	0.3644	-0.139
Mof_C 	C 	0.31796	0.44748	0.2973	0.084
Mof_H 	H 	0.307	0.4454	0.2425	0.019
Mof_C 	C 	0.36172	0.47578	0.3149	-0.168
Mof_H 	H 	0.3796	0.4927	0.2708	0.107
Mof_C 	C 	0.37877	0.47926	0.3942	0.139
Mof_C 	C 	0.35134	0.4555	0.4589	-0.173
Mof_H 	H 	0.362	0.4586	0.5143	0.096
Mof_C 	C 	0.30764	0.42674	0.4435	0.091
Mof_H 	H 	0.2898	0.4105	0.4883	0.018
Mof_C 	C 	0.42575	0.50686	0.4127	-0.084
Mof_C 	C 	0.44593	0.48801	0.4551	-0.036
Mof_H 	H 	0.4298	0.459	0.4696	0.044
Mof_C 	C 	0.3869	0.574	0.4715	-0.022
Mof_C 	C 	0.4108	0.6244	0.3351	-0.009
Mof_O 	O 	0.89016	0.70316	0.74673	-0.407
Mof_O 	O 	0.89763	0.71855	0.60603	-0.412
Mof_C 	C 	0.91139	0.72346	0.67983	0.374
Mof_C 	C 	0.95813	0.75587	0.69773	-0.139
Mof_C 	C 	0.98463	0.78081	0.63063	0.084
Mof_H 	H 	0.97367	0.77873	0.57583	0.019
Mof_C 	C 	0.02839	0.80911	0.64823	-0.168
Mof_H 	H 	0.04627	0.82603	0.60413	0.106
Mof_C 	C 	0.04544	0.81259	0.72753	0.138
Mof_C 	C 	0.01801	0.78883	0.79223	-0.173
Mof_H 	H 	0.02867	0.79193	0.84763	0.096
Mof_C 	C 	0.97431	0.76007	0.77683	0.09
Mof_H 	H 	0.95647	0.74383	0.82163	0.018
Mof_C 	C 	0.09242	0.84019	0.74603	-0.084
Mof_C 	C 	0.1126	0.82134	0.78843	-0.036
Mof_H 	H 	0.09647	0.79233	0.80293	0.044
Mof_C 	C 	0.05357	0.90733	0.80483	-0.022
Mof_C 	C 	0.07747	0.95773	0.66843	-0.009
Mof_O 	O 	0.55682	0.0365	0.08007	-0.407
Mof_O 	O 	0.56429	0.05189	0.93937	-0.413
Mof_C 	C 	0.57805	0.0568	0.01317	0.374
Mof_C 	C 	0.62479	0.08921	0.03107	-0.139
Mof_C 	C 	0.65129	0.11415	0.96397	0.084
Mof_H 	H 	0.64033	0.11207	0.90917	0.019
Mof_C 	C 	0.69505	0.14245	0.98157	-0.169
Mof_H 	H 	0.71293	0.15937	0.93747	0.107
Mof_C 	C 	0.7121	0.14593	0.06087	0.139
Mof_C 	C 	0.68467	0.12217	0.12557	-0.173
Mof_H 	H 	0.69533	0.12527	0.18097	0.096
Mof_C 	C 	0.64097	0.09341	0.11017	0.091
Mof_H 	H 	0.62313	0.07717	0.15497	0.018
Mof_C 	C 	0.75908	0.17353	0.07937	-0.085
Mof_C 	C 	0.77926	0.15468	0.12177	-0.036
Mof_H 	H 	0.76313	0.12567	0.13627	0.044
Mof_C 	C 	0.72023	0.24067	0.13817	-0.022
Mof_C 	C 	0.74413	0.29107	0.00177	-0.009
Mof_O 	O 	0.14634	0.77651	0.4134	-0.407
Mof_O 	O 	0.15426	0.76904	0.2727	-0.412
Mof_C 	C 	0.14541	0.75528	0.3465	0.374
Mof_C 	C 	0.13108	0.70854	0.3644	-0.139
Mof_C 	C 	0.12952	0.68204	0.2973	0.084
Mof_H 	H 	0.1384	0.693	0.2425	0.019
Mof_C 	C 	0.11406	0.63828	0.3149	-0.168
Mof_H 	H 	0.1131	0.6204	0.2708	0.107
Mof_C 	C 	0.10049	0.62123	0.3942	0.139
Mof_C 	C 	0.10416	0.64866	0.4589	-0.173
Mof_H 	H 	0.0966	0.638	0.5143	0.096
Mof_C 	C 	0.1191	0.69236	0.4435	0.091
Mof_H 	H 	0.1207	0.7102	0.4883	0.018
Mof_C 	C 	0.08111	0.57425	0.4127	-0.084
Mof_C 	C 	0.04208	0.55407	0.4551	-0.036
Mof_H 	H 	0.0292	0.5702	0.4696	0.044
Mof_C 	C 	0.1871	0.6131	0.4715	-0.022
Mof_C 	C 	0.2136	0.5892	0.3351	-0.009
Mof_O 	O 	0.81301	0.10984	0.74673	-0.407
Mof_O 	O 	0.82093	0.10237	0.60603	-0.412
Mof_C 	C 	0.81208	0.08861	0.67983	0.374
Mof_C 	C 	0.79775	0.04187	0.69773	-0.139
Mof_C 	C 	0.79619	0.01537	0.63063	0.084
Mof_H 	H 	0.80507	0.02633	0.57583	0.019
Mof_C 	C 	0.78073	0.97161	0.64823	-0.168
Mof_H 	H 	0.77977	0.95373	0.60413	0.106
Mof_C 	C 	0.76716	0.95456	0.72753	0.138
Mof_C 	C 	0.77083	0.98199	0.79223	-0.173
Mof_H 	H 	0.76327	0.97133	0.84763	0.096
Mof_C 	C 	0.78577	0.02569	0.77683	0.091
Mof_H 	H 	0.78737	0.04353	0.82163	0.018
Mof_C 	C 	0.74778	0.90758	0.74603	-0.084
Mof_C 	C 	0.70875	0.8874	0.78843	-0.036
Mof_H 	H 	0.69587	0.90353	0.80293	0.044
Mof_C 	C 	0.85377	0.94643	0.80483	-0.022
Mof_C 	C 	0.88027	0.92253	0.66843	-0.009
Mof_O 	O 	0.47967	0.44318	0.08007	-0.407
Mof_O 	O 	0.48759	0.43571	0.93937	-0.412
Mof_C 	C 	0.47874	0.42195	0.01317	0.374
Mof_C 	C 	0.46441	0.37521	0.03107	-0.139
Mof_C 	C 	0.46285	0.34871	0.96397	0.084
Mof_H 	H 	0.47173	0.35967	0.90917	0.019
Mof_C 	C 	0.44739	0.30495	0.98157	-0.168
Mof_H 	H 	0.44643	0.28707	0.93747	0.107
Mof_C 	C 	0.43382	0.2879	0.06087	0.139
Mof_C 	C 	0.43749	0.31533	0.12557	-0.173
Mof_H 	H 	0.42993	0.30467	0.18097	0.096
Mof_C 	C 	0.45243	0.35903	0.11017	0.091
Mof_H 	H 	0.45403	0.37687	0.15497	0.018
Mof_C 	C 	0.41444	0.24092	0.07937	-0.084
Mof_C 	C 	0.37541	0.22074	0.12177	-0.036
Mof_H 	H 	0.36253	0.23687	0.13627	0.044
Mof_C 	C 	0.52043	0.27977	0.13817	-0.022
Mof_C 	C 	0.54693	0.25587	0.00177	-0.009
Mof_O 	O 	0.63017	0.85366	0.4134	-0.407
Mof_O 	O 	0.61478	0.84574	0.2727	-0.412
Mof_C 	C 	0.60987	0.85459	0.3465	0.374
Mof_C 	C 	0.57746	0.86892	0.3644	-0.139
Mof_C 	C 	0.55252	0.87048	0.2973	0.084
Mof_H 	H 	0.5546	0.8616	0.2425	0.019
Mof_C 	C 	0.52422	0.88594	0.3149	-0.168
Mof_H 	H 	0.5073	0.8869	0.2708	0.107
Mof_C 	C 	0.52074	0.89951	0.3942	0.139
Mof_C 	C 	0.5445	0.89584	0.4589	-0.173
Mof_H 	H 	0.5414	0.9034	0.5143	0.096
Mof_C 	C 	0.57326	0.8809	0.4435	0.091
Mof_H 	H 	0.5895	0.8793	0.4883	0.018
Mof_C 	C 	0.49314	0.91889	0.4127	-0.084
Mof_C 	C 	0.51199	0.95792	0.4551	-0.036
Mof_H 	H 	0.541	0.9708	0.4696	0.044
Mof_C 	C 	0.426	0.8129	0.4715	-0.022
Mof_C 	C 	0.3756	0.7864	0.3351	-0.009
Mof_O 	O 	0.29684	0.18699	0.74673	-0.407
Mof_O 	O 	0.28145	0.17907	0.60603	-0.412
Mof_C 	C 	0.27654	0.18792	0.67983	0.374
Mof_C 	C 	0.24413	0.20225	0.69773	-0.139
Mof_C 	C 	0.21919	0.20381	0.63063	0.084
Mof_H 	H 	0.22127	0.19493	0.57583	0.019
Mof_C 	C 	0.19089	0.21927	0.64823	-0.168
Mof_H 	H 	0.17397	0.22023	0.60413	0.107
Mof_C 	C 	0.18741	0.23284	0.72753	0.139
Mof_C 	C 	0.21117	0.22917	0.79223	-0.173
Mof_H 	H 	0.20807	0.23673	0.84763	0.096
Mof_C 	C 	0.23993	0.21423	0.77683	0.091
Mof_H 	H 	0.25617	0.21263	0.82163	0.018
Mof_C 	C 	0.15981	0.25222	0.74603	-0.084
Mof_C 	C 	0.17866	0.29125	0.78843	-0.036
Mof_H 	H 	0.20767	0.30413	0.80293	0.044
Mof_C 	C 	0.09267	0.14623	0.80483	-0.022
Mof_C 	C 	0.04227	0.11973	0.66843	-0.009
Mof_O 	O 	0.9635	0.52033	0.08007	-0.407
Mof_O 	O 	0.94811	0.51241	0.93937	-0.412
Mof_C 	C 	0.9432	0.52126	0.01317	0.374
Mof_C 	C 	0.91079	0.53559	0.03107	-0.139
Mof_C 	C 	0.88585	0.53715	0.96397	0.084
Mof_H 	H 	0.88793	0.52827	0.90917	0.019
Mof_C 	C 	0.85755	0.55261	0.98157	-0.168
Mof_H 	H 	0.84063	0.55357	0.93747	0.107
Mof_C 	C 	0.85407	0.56618	0.06087	0.139
Mof_C 	C 	0.87783	0.56251	0.12557	-0.173
Mof_H 	H 	0.87473	0.57007	0.18097	0.096
Mof_C 	C 	0.90659	0.54757	0.11017	0.091
Mof_H 	H 	0.92283	0.54597	0.15497	0.018
Mof_C 	C 	0.82647	0.58556	0.07937	-0.084
Mof_C 	C 	0.84532	0.62459	0.12177	-0.036
Mof_H 	H 	0.87433	0.63747	0.13627	0.044
Mof_C 	C 	0.75933	0.47957	0.13817	-0.022
Mof_C 	C 	0.70893	0.45307	0.00177	-0.009
Mof_Cu	Cu	0.67542	0.83771	0.41635	0.905
Mof_Cu	Cu	0.34209	0.17104	0.74968	0.905
Mof_Cu	Cu	0.00875	0.50438	0.08302	0.905
Mof_Cu	Cu	0.16229	0.83771	0.41635	0.905
Mof_Cu	Cu	0.82896	0.17104	0.74968	0.905
Mof_Cu	Cu	0.49562	0.50438	0.08302	0.905
Mof_Cu	Cu	0.16229	0.32458	0.41635	0.905
Mof_Cu	Cu	0.82896	0.65791	0.74968	0.905
Mof_Cu	Cu	0.49562	0.99125	0.08302	0.905
Mof_Cu	Cu	0.83771	0.67542	0.58365	0.905
Mof_Cu	Cu	0.50438	0.00875	0.91698	0.905
Mof_Cu	Cu	0.17104	0.34209	0.25032	0.905
Mof_Cu	Cu	0.83771	0.16229	0.58365	0.905
Mof_Cu	Cu	0.50438	0.49562	0.91698	0.905
Mof_Cu	Cu	0.17104	0.82896	0.25032	0.905
Mof_Cu	Cu	0.32458	0.16229	0.58365	0.905
Mof_Cu	Cu	0.99125	0.49562	0.91698	0.905
Mof_Cu	Cu	0.65791	0.82896	0.25032	0.905
Mof_O 	O 	0.43014	0.56986	0.3497	-0.244
Mof_C 	C 	0.48947	0.51053	0.4773	0.002
Mof_C 	C 	0.44955	0.55045	0.3917	0.16
Mof_C 	C 	0.4113	0.5887	0.3897	0.138
Mof_O 	O 	0.09681	0.90319	0.68303	-0.243
Mof_C 	C 	0.15614	0.84386	0.81063	0.002
Mof_C 	C 	0.11622	0.88378	0.72503	0.159
Mof_C 	C 	0.07797	0.92203	0.72303	0.138
Mof_O 	O 	0.76347	0.23653	0.01637	-0.243
Mof_C 	C 	0.8228	0.1772	0.14397	0.002
Mof_C 	C 	0.78288	0.21712	0.05837	0.16
Mof_C 	C 	0.74463	0.25537	0.05637	0.138
Mof_O 	O 	0.43014	0.86028	0.3497	-0.244
Mof_C 	C 	0.48947	0.97894	0.4773	0.002
Mof_C 	C 	0.44955	0.8991	0.3917	0.16
Mof_C 	C 	0.4113	0.8226	0.3897	0.138
Mof_O 	O 	0.09681	0.19361	0.68303	-0.243
Mof_C 	C 	0.15614	0.31227	0.81063	0.002
Mof_C 	C 	0.11622	0.23243	0.72503	0.16
Mof_C 	C 	0.07797	0.15593	0.72303	0.138
Mof_O 	O 	0.76347	0.52695	0.01637	-0.244
Mof_C 	C 	0.8228	0.64561	0.14397	0.002
Mof_C 	C 	0.78288	0.56577	0.05837	0.16
Mof_C 	C 	0.74463	0.48927	0.05637	0.138
Mof_O 	O 	0.13972	0.56986	0.3497	-0.244
Mof_C 	C 	0.02106	0.51053	0.4773	0.002
Mof_C 	C 	0.1009	0.55045	0.3917	0.16
Mof_C 	C 	0.1774	0.5887	0.3897	0.138
Mof_O 	O 	0.80639	0.90319	0.68303	-0.243
Mof_C 	C 	0.68773	0.84386	0.81063	0.002
Mof_C 	C 	0.76757	0.88378	0.72503	0.16
Mof_C 	C 	0.84407	0.92203	0.72303	0.138
Mof_O 	O 	0.47305	0.23653	0.01637	-0.244
Mof_C 	C 	0.35439	0.1772	0.14397	0.002
Mof_C 	C 	0.43423	0.21712	0.05837	0.16
Mof_C 	C 	0.51073	0.25537	0.05637	0.138
Mof_O 	O 	0.56986	0.43014	0.6503	-0.244
Mof_C 	C 	0.51053	0.48947	0.5227	0.002
Mof_C 	C 	0.55045	0.44955	0.6083	0.16
Mof_C 	C 	0.5887	0.4113	0.6103	0.138
Mof_O 	O 	0.23653	0.76347	0.98363	-0.243
Mof_C 	C 	0.1772	0.8228	0.85603	0.002
Mof_C 	C 	0.21712	0.78288	0.94163	0.16
Mof_C 	C 	0.25537	0.74463	0.94363	0.138
Mof_O 	O 	0.90319	0.09681	0.31697	-0.243
Mof_C 	C 	0.84386	0.15614	0.18937	0.002
Mof_C 	C 	0.88378	0.11622	0.27497	0.159
Mof_C 	C 	0.92203	0.07797	0.27697	0.138
Mof_O 	O 	0.86028	0.43014	0.6503	-0.244
Mof_C 	C 	0.97894	0.48947	0.5227	0.002
Mof_C 	C 	0.8991	0.44955	0.6083	0.16
Mof_C 	C 	0.8226	0.4113	0.6103	0.138
Mof_O 	O 	0.52695	0.76347	0.98363	-0.244
Mof_C 	C 	0.64561	0.8228	0.85603	0.002
Mof_C 	C 	0.56577	0.78288	0.94163	0.16
Mof_C 	C 	0.48927	0.74463	0.94363	0.138
Mof_O 	O 	0.19361	0.09681	0.31697	-0.243
Mof_C 	C 	0.31227	0.15614	0.18937	0.002
Mof_C 	C 	0.23243	0.11622	0.27497	0.16
Mof_C 	C 	0.15593	0.07797	0.27697	0.138
Mof_O 	O 	0.56986	0.13972	0.6503	-0.244
Mof_C 	C 	0.51053	0.02106	0.5227	0.002
Mof_C 	C 	0.55045	0.1009	0.6083	0.16
Mof_C 	C 	0.5887	0.1774	0.6103	0.138
Mof_O 	O 	0.23653	0.47305	0.98363	-0.244
Mof_C 	C 	0.1772	0.35439	0.85603	0.002
Mof_C 	C 	0.21712	0.43423	0.94163	0.16
Mof_C 	C 	0.25537	0.51073	0.94363	0.138
Mof_O 	O 	0.90319	0.80639	0.31697	-0.243
Mof_C 	C 	0.84386	0.68773	0.18937	0.002
Mof_C 	C 	0.88378	0.76757	0.27497	0.16
Mof_C 	C 	0.92203	0.84407	0.27697	0.138
_end
