data_functionalizedCrystal
_audit_creation_method	'EQeq! by Chris Wilmer'
_symmetry_space_group_name_H-M	'P1'
_symmetry_Int_Tables_number	1
_symmetry_cell_setting	triclinic
loop_
_symmetry_equiv_pos_as_xyz
  x,y,z
_cell_length_a	12.3305
_cell_length_b	15.5069
_cell_length_c	15.6412
_cell_angle_alpha	90
_cell_angle_beta	90
_cell_angle_gamma	90
loop_
_atom_site_label
_atom_site_type_symbol
_atom_site_fract_x
_atom_site_fract_y
_atom_site_fract_z
_atom_site_charge
Mof_Cu	Cu	-0	0	-0	0.837
Mof_Cu	Cu	0.5	0.5	0.5	0.897
Mof_Cu	Cu	0.15251	0	0.19216	0.852
Mof_Cu	Cu	0.84749	0	0.80784	0.859
Mof_Cu	Cu	0.34749	0.5	0.69216	0.883
Mof_Cu	Cu	0.65251	0.5	0.30784	0.882
Mof_H 	H 	0.7737	0.7162	0.0973	0.096
Mof_H 	H 	0.6786	0.6005	0.1501	-0.026
Mof_H 	H 	0.8424	0.6039	0.3585	0.019
Mof_H 	H 	0.9433	0.7188	0.3112	0.106
Mof_H 	H 	0.2263	0.7162	0.9027	0.116
Mof_H 	H 	0.3214	0.6005	0.8499	-0.018
Mof_H 	H 	0.1576	0.6039	0.6415	0.009
Mof_H 	H 	0.0567	0.7188	0.6888	0.095
Mof_H 	H 	0.7263	0.7838	0.5973	0.106
Mof_H 	H 	0.8214	0.8995	0.6501	-0
Mof_H 	H 	0.6576	0.8961	0.8585	0.041
Mof_H 	H 	0.5567	0.7812	0.8112	0.105
Mof_H 	H 	0.2737	0.7838	0.4027	0.101
Mof_H 	H 	0.1786	0.8995	0.3499	-0.008
Mof_H 	H 	0.3424	0.8961	0.1415	0.033
Mof_H 	H 	0.4433	0.7812	0.1888	0.094
Mof_H 	H 	0.2263	0.2838	0.9027	0.109
Mof_H 	H 	0.3214	0.3995	0.8499	-0.019
Mof_H 	H 	0.1576	0.3961	0.6415	0.008
Mof_H 	H 	0.0567	0.2812	0.6888	0.087
Mof_H 	H 	0.7737	0.2838	0.0973	0.089
Mof_H 	H 	0.6786	0.3995	0.1501	-0.026
Mof_H 	H 	0.8424	0.3961	0.3585	0.018
Mof_H 	H 	0.9433	0.2812	0.3112	0.098
Mof_H 	H 	0.2737	0.2162	0.4027	0.093
Mof_H 	H 	0.1786	0.1005	0.3499	-0.041
Mof_H 	H 	0.3424	0.1039	0.1415	0
Mof_H 	H 	0.4433	0.2188	0.1888	0.087
Mof_H 	H 	0.7263	0.2162	0.5973	0.099
Mof_H 	H 	0.8214	0.1005	0.6501	-0.032
Mof_H 	H 	0.6576	0.1039	0.8585	0.011
Mof_H 	H 	0.5567	0.2188	0.8112	0.098
Mof_C 	C 	0.9335	0.8054	0.1669	0.127
Mof_C 	C 	0.8716	0.7299	0.1986	0.081
Mof_C 	C 	0.7902	0.6943	0.1511	-0.15
Mof_C 	C 	0.7324	0.625	0.1839	0.108
Mof_C 	C 	0.8277	0.6268	0.3048	0.097
Mof_C 	C 	0.8894	0.6959	0.2764	-0.141
Mof_C 	C 	0.0665	0.8054	0.8331	0.072
Mof_C 	C 	0.1284	0.7299	0.8014	0.102
Mof_C 	C 	0.2098	0.6943	0.8489	-0.164
Mof_C 	C 	0.2676	0.625	0.8161	0.116
Mof_C 	C 	0.1723	0.6268	0.6952	0.103
Mof_C 	C 	0.1106	0.6959	0.7236	-0.159
Mof_C 	C 	0.5665	0.6946	0.6669	0.1
Mof_C 	C 	0.6284	0.7701	0.6986	0.088
Mof_C 	C 	0.7098	0.8057	0.6511	-0.145
Mof_C 	C 	0.7676	0.875	0.6839	0.112
Mof_C 	C 	0.6723	0.8732	0.8048	0.102
Mof_C 	C 	0.6106	0.8041	0.7764	-0.138
Mof_C 	C 	0.4335	0.6946	0.3331	0.096
Mof_C 	C 	0.3716	0.7701	0.3014	0.083
Mof_C 	C 	0.2902	0.8057	0.3489	-0.149
Mof_C 	C 	0.2324	0.875	0.3161	0.109
Mof_C 	C 	0.3277	0.8732	0.1952	0.095
Mof_C 	C 	0.3894	0.8041	0.2236	-0.141
Mof_C 	C 	0.0665	0.1946	0.8331	0.061
Mof_C 	C 	0.1284	0.2701	0.8014	0.094
Mof_C 	C 	0.2098	0.3057	0.8489	-0.164
Mof_C 	C 	0.2676	0.375	0.8161	0.112
Mof_C 	C 	0.1723	0.3732	0.6952	0.098
Mof_C 	C 	0.1106	0.3041	0.7236	-0.158
Mof_C 	C 	0.9335	0.1946	0.1669	0.121
Mof_C 	C 	0.8716	0.2701	0.1986	0.071
Mof_C 	C 	0.7902	0.3057	0.1511	-0.148
Mof_C 	C 	0.7324	0.375	0.1839	0.102
Mof_C 	C 	0.8277	0.3732	0.3048	0.091
Mof_C 	C 	0.8894	0.3041	0.2764	-0.139
Mof_C 	C 	0.4335	0.3054	0.3331	0.089
Mof_C 	C 	0.3716	0.2299	0.3014	0.081
Mof_C 	C 	0.2902	0.1943	0.3489	-0.163
Mof_C 	C 	0.2324	0.125	0.3161	0.102
Mof_C 	C 	0.3277	0.1268	0.1952	0.088
Mof_C 	C 	0.3894	0.1959	0.2236	-0.154
Mof_C 	C 	0.5665	0.3054	0.6669	0.093
Mof_C 	C 	0.6284	0.2299	0.6986	0.086
Mof_C 	C 	0.7098	0.1943	0.6511	-0.159
Mof_C 	C 	0.7676	0.125	0.6839	0.106
Mof_C 	C 	0.6723	0.1268	0.8048	0.095
Mof_C 	C 	0.6106	0.1959	0.7764	-0.151
Mof_N 	N 	0.9852	0.90816	0.09105	-0.095
Mof_N 	N 	0.04	0.90936	0.16389	-0.138
Mof_N 	N 	0.0087	0.84487	0.2132	-0.114
Mof_N 	N 	0.9164	0.84209	0.09141	-0.081
Mof_N 	N 	0.7497	0.59244	0.25951	-0.234
Mof_N 	N 	0.0148	0.90816	0.90895	-0.115
Mof_N 	N 	0.96	0.90936	0.83611	-0.107
Mof_N 	N 	0.9913	0.84487	0.7868	-0.066
Mof_N 	N 	0.0836	0.84209	0.90859	-0.062
Mof_N 	N 	0.2503	0.59244	0.74049	-0.237
Mof_N 	N 	0.5148	0.59184	0.59105	-0.134
Mof_N 	N 	0.46	0.59064	0.66389	-0.144
Mof_N 	N 	0.4913	0.65513	0.7132	-0.092
Mof_N 	N 	0.5836	0.65791	0.59141	-0.078
Mof_N 	N 	0.7503	0.90756	0.75951	-0.212
Mof_N 	N 	0.4852	0.59184	0.40895	-0.135
Mof_N 	N 	0.54	0.59064	0.33611	-0.146
Mof_N 	N 	0.5087	0.65513	0.2868	-0.096
Mof_N 	N 	0.4164	0.65791	0.40859	-0.08
Mof_N 	N 	0.2497	0.90756	0.24049	-0.212
Mof_N 	N 	0.0148	0.09184	0.90895	-0.147
Mof_N 	N 	0.96	0.09064	0.83611	-0.136
Mof_N 	N 	0.9913	0.15513	0.7868	-0.074
Mof_N 	N 	0.0836	0.15791	0.90859	-0.072
Mof_N 	N 	0.2503	0.40756	0.74049	-0.237
Mof_N 	N 	0.9852	0.09184	0.09105	-0.125
Mof_N 	N 	0.04	0.09064	0.16389	-0.171
Mof_N 	N 	0.0087	0.15513	0.2132	-0.125
Mof_N 	N 	0.9164	0.15791	0.09141	-0.092
Mof_N 	N 	0.7497	0.40756	0.25951	-0.234
Mof_N 	N 	0.4852	0.40816	0.40895	-0.136
Mof_N 	N 	0.54	0.40936	0.33611	-0.147
Mof_N 	N 	0.5087	0.34487	0.2868	-0.099
Mof_N 	N 	0.4164	0.34209	0.40859	-0.083
Mof_N 	N 	0.2497	0.09244	0.24049	-0.245
Mof_N 	N 	0.5148	0.40816	0.59105	-0.135
Mof_N 	N 	0.46	0.40936	0.66389	-0.145
Mof_N 	N 	0.4913	0.34487	0.7132	-0.094
Mof_N 	N 	0.5836	0.34209	0.59141	-0.081
Mof_N 	N 	0.7503	0.09244	0.75951	-0.243
Mof_Cl	Cl	0.21617	0	0.03771	-0.567
Mof_Cl	Cl	0.78383	8.44063e-33	0.96229	-0.49
Mof_Cl	Cl	0.28383	0.5	0.53771	-0.487
Mof_Cl	Cl	0.71617	0.5	0.46229	-0.473
_end
