data_functionalizedCrystal
_audit_creation_method	'EQeq! by Chris Wilmer'
_symmetry_space_group_name_H-M	'P1'
_symmetry_Int_Tables_number	1
_symmetry_cell_setting	triclinic
loop_
_symmetry_equiv_pos_as_xyz
  x,y,z
_cell_length_a	15.6958
_cell_length_b	10.6984
_cell_length_c	23.2644
_cell_angle_alpha	90
_cell_angle_beta	90
_cell_angle_gamma	90
loop_
_atom_site_label
_atom_site_type_symbol
_atom_site_fract_x
_atom_site_fract_y
_atom_site_fract_z
_atom_site_charge
Mof_Tm	Tm	0.54784	0.03063	0.08413	1.899
Mof_C 	C 	0.40597	0.2501	0.20308	-0.046
Mof_C 	C 	0.38275	0.2029	0.256	0.005
Mof_H 	H 	0.4003	0.1214	0.267	0.036
Mof_C 	C 	0.33362	0.2749	0.29325	-0.082
Mof_C 	C 	0.30754	0.3929	0.2762	-0.067
Mof_H 	H 	0.2715	0.4402	0.3008	0.065
Mof_C 	C 	0.33299	0.4438	0.22371	0.087
Mof_C 	C 	0.3822	0.3713	0.18731	-0.081
Mof_H 	H 	0.4	0.4041	0.1513	0.083
Mof_C 	C 	0.3096	0.5779	0.2091	-0.225
Mof_H 	H 	0.2534	0.5965	0.2265	0.098
Mof_H 	H 	0.3518	0.6339	0.2274	0.096
Mof_C 	C 	0.30529	0.6098	0.1459	0.058
Mof_C 	C 	0.2355	0.5729	0.11281	-0.03
Mof_H 	H 	0.1908	0.5264	0.1302	0.051
Mof_C 	C 	0.23047	0.6031	0.05457	-0.114
Mof_C 	C 	0.2965	0.6713	0.02919	0.058
Mof_H 	H 	0.2945	0.6899	0.9893	0.052
Mof_C 	C 	0.36495	0.7117	0.06201	-0.122
Mof_C 	C 	0.36922	0.6806	0.12003	-0.028
Mof_H 	H 	0.4164	0.7079	0.1423	0.046
Mof_C 	C 	0.45715	0.1742	0.1614	0.302
Mof_C 	C 	0.3077	0.2219	0.35073	0.387
Mof_C 	C 	0.15502	0.5667	0.01886	0.446
Mof_C 	C 	0.43058	0.7953	0.03476	0.473
Mof_O 	O 	0.49112	0.2262	0.1194	-0.373
Mof_O 	O 	0.46495	0.0563	0.169	-0.419
Mof_O 	O 	0.65783	0.1227	0.13257	-0.461
Mof_O 	O 	0.25138	0.277	0.3792	-0.265
Mof_O 	O 	0.41593	0.0542	0.04274	-0.512
Mof_O 	O 	0.66683	0.9486	0.03448	-0.436
Mof_O 	O 	0.57971	0.179	0.01735	-0.482
Mof_O 	O 	0.49058	0.8343	0.06598	-0.494
Mof_Tm	Tm	0.95216	0.46937	0.58413	1.903
Mof_C 	C 	0.09403	0.2499	0.70308	-0.045
Mof_C 	C 	0.11725	0.2971	0.756	0.004
Mof_H 	H 	0.0997	0.3786	0.767	0.036
Mof_C 	C 	0.16638	0.2251	0.79325	-0.081
Mof_C 	C 	0.19246	0.1071	0.7762	-0.069
Mof_H 	H 	0.2285	0.0598	0.8008	0.067
Mof_C 	C 	0.16701	0.0562	0.72371	0.09
Mof_C 	C 	0.1178	0.1287	0.68731	-0.083
Mof_H 	H 	0.1	0.0959	0.6513	0.084
Mof_C 	C 	0.1904	0.9221	0.7091	-0.228
Mof_H 	H 	0.2466	0.9035	0.7265	0.099
Mof_H 	H 	0.1482	0.8661	0.7274	0.096
Mof_C 	C 	0.19471	0.8902	0.6459	0.06
Mof_C 	C 	0.2645	0.9271	0.61281	-0.032
Mof_H 	H 	0.3092	0.9736	0.6302	0.051
Mof_C 	C 	0.26953	0.8969	0.55457	-0.111
Mof_C 	C 	0.2035	0.8287	0.52919	0.053
Mof_H 	H 	0.2055	0.8101	0.4893	0.055
Mof_C 	C 	0.13505	0.7883	0.56201	-0.12
Mof_C 	C 	0.13078	0.8194	0.62003	-0.03
Mof_H 	H 	0.0836	0.7921	0.6423	0.046
Mof_C 	C 	0.04285	0.3258	0.6614	0.301
Mof_C 	C 	0.1923	0.2781	0.85073	0.387
Mof_C 	C 	0.34498	0.9333	0.51886	0.444
Mof_C 	C 	0.06942	0.7047	0.53476	0.47
Mof_O 	O 	0.00888	0.2738	0.6194	-0.373
Mof_O 	O 	0.03505	0.4437	0.669	-0.42
Mof_O 	O 	0.84217	0.3773	0.63257	-0.46
Mof_O 	O 	0.24862	0.223	0.8792	-0.264
Mof_O 	O 	0.08407	0.4458	0.54274	-0.513
Mof_O 	O 	0.83317	0.5514	0.53448	-0.439
Mof_O 	O 	0.92029	0.321	0.51735	-0.481
Mof_O 	O 	0.00942	0.6657	0.56598	-0.495
Mof_Tm	Tm	0.45216	0.03063	0.41587	1.902
Mof_C 	C 	0.59403	0.2501	0.29692	-0.046
Mof_C 	C 	0.61725	0.2029	0.244	0.004
Mof_H 	H 	0.5997	0.1214	0.233	0.036
Mof_C 	C 	0.66638	0.2749	0.20675	-0.082
Mof_C 	C 	0.69246	0.3929	0.2238	-0.068
Mof_H 	H 	0.7285	0.4402	0.1992	0.066
Mof_C 	C 	0.66701	0.4438	0.27629	0.087
Mof_C 	C 	0.6178	0.3713	0.31269	-0.082
Mof_H 	H 	0.6	0.4041	0.3487	0.083
Mof_C 	C 	0.6904	0.5779	0.2909	-0.225
Mof_H 	H 	0.7466	0.5965	0.2735	0.099
Mof_H 	H 	0.6482	0.6339	0.2726	0.096
Mof_C 	C 	0.69471	0.6098	0.3541	0.059
Mof_C 	C 	0.7645	0.5729	0.38719	-0.031
Mof_H 	H 	0.8092	0.5264	0.3698	0.051
Mof_C 	C 	0.76953	0.6031	0.44543	-0.112
Mof_C 	C 	0.7035	0.6713	0.47081	0.053
Mof_H 	H 	0.7055	0.6899	0.5107	0.054
Mof_C 	C 	0.63505	0.7117	0.43799	-0.12
Mof_C 	C 	0.63078	0.6806	0.37997	-0.03
Mof_H 	H 	0.5836	0.7079	0.3577	0.047
Mof_C 	C 	0.54285	0.1742	0.3386	0.302
Mof_C 	C 	0.6923	0.2219	0.14927	0.387
Mof_C 	C 	0.84498	0.5667	0.48114	0.444
Mof_C 	C 	0.56942	0.7953	0.46524	0.47
Mof_O 	O 	0.50888	0.2262	0.3806	-0.373
Mof_O 	O 	0.53505	0.0563	0.331	-0.42
Mof_O 	O 	0.34217	0.1227	0.36743	-0.461
Mof_O 	O 	0.74862	0.277	0.1208	-0.265
Mof_O 	O 	0.58407	0.0542	0.45726	-0.513
Mof_O 	O 	0.33317	0.9486	0.46552	-0.439
Mof_O 	O 	0.42029	0.179	0.48265	-0.481
Mof_O 	O 	0.50942	0.8343	0.43402	-0.495
Mof_Tm	Tm	0.04784	0.46937	0.91587	1.899
Mof_C 	C 	0.90597	0.2499	0.79692	-0.044
Mof_C 	C 	0.88275	0.2971	0.744	0.003
Mof_H 	H 	0.9003	0.3786	0.733	0.037
Mof_C 	C 	0.83362	0.2251	0.70675	-0.081
Mof_C 	C 	0.80754	0.1071	0.7238	-0.07
Mof_H 	H 	0.7715	0.0598	0.6992	0.067
Mof_C 	C 	0.83299	0.0562	0.77629	0.091
Mof_C 	C 	0.8822	0.1287	0.81269	-0.084
Mof_H 	H 	0.9	0.0959	0.8487	0.084
Mof_C 	C 	0.8096	0.9221	0.7909	-0.229
Mof_H 	H 	0.7534	0.9035	0.7735	0.099
Mof_H 	H 	0.8518	0.8661	0.7726	0.097
Mof_C 	C 	0.80529	0.8902	0.8541	0.061
Mof_C 	C 	0.7355	0.9271	0.88719	-0.033
Mof_H 	H 	0.6908	0.9736	0.8698	0.051
Mof_C 	C 	0.73047	0.8969	0.94543	-0.11
Mof_C 	C 	0.7965	0.8287	0.97081	0.051
Mof_H 	H 	0.7945	0.8101	0.0107	0.056
Mof_C 	C 	0.86495	0.7883	0.93799	-0.119
Mof_C 	C 	0.86922	0.8194	0.87997	-0.032
Mof_H 	H 	0.9164	0.7921	0.8577	0.047
Mof_C 	C 	0.95715	0.3258	0.8386	0.301
Mof_C 	C 	0.8077	0.2781	0.64927	0.387
Mof_C 	C 	0.65502	0.9333	0.98114	0.44
Mof_C 	C 	0.93058	0.7047	0.96524	0.47
Mof_O 	O 	0.99112	0.2738	0.8806	-0.372
Mof_O 	O 	0.96495	0.4437	0.831	-0.419
Mof_O 	O 	0.15783	0.3773	0.86743	-0.46
Mof_O 	O 	0.75138	0.223	0.6208	-0.264
Mof_O 	O 	0.91593	0.4458	0.95726	-0.513
Mof_O 	O 	0.16683	0.5514	0.96552	-0.44
Mof_O 	O 	0.07971	0.321	0.98265	-0.481
Mof_O 	O 	0.99058	0.6657	0.93402	-0.494
Mof_Tm	Tm	0.45216	0.96937	0.91587	1.899
Mof_C 	C 	0.59403	0.7499	0.79692	-0.046
Mof_C 	C 	0.61725	0.7971	0.744	0.005
Mof_H 	H 	0.5997	0.8786	0.733	0.036
Mof_C 	C 	0.66638	0.7251	0.70675	-0.082
Mof_C 	C 	0.69246	0.6071	0.7238	-0.067
Mof_H 	H 	0.7285	0.5598	0.6992	0.065
Mof_C 	C 	0.66701	0.5562	0.77629	0.087
Mof_C 	C 	0.6178	0.6287	0.81269	-0.081
Mof_H 	H 	0.6	0.5959	0.8487	0.083
Mof_C 	C 	0.6904	0.4221	0.7909	-0.225
Mof_H 	H 	0.7466	0.4035	0.7735	0.098
Mof_H 	H 	0.6482	0.3661	0.7726	0.096
Mof_C 	C 	0.69471	0.3902	0.8541	0.058
Mof_C 	C 	0.7645	0.4271	0.88719	-0.03
Mof_H 	H 	0.8092	0.4736	0.8698	0.051
Mof_C 	C 	0.76953	0.3969	0.94543	-0.114
Mof_C 	C 	0.7035	0.3287	0.97081	0.058
Mof_H 	H 	0.7055	0.3101	0.0107	0.052
Mof_C 	C 	0.63505	0.2883	0.93799	-0.122
Mof_C 	C 	0.63078	0.3194	0.87997	-0.028
Mof_H 	H 	0.5836	0.2921	0.8577	0.046
Mof_C 	C 	0.54285	0.8258	0.8386	0.302
Mof_C 	C 	0.6923	0.7781	0.64927	0.387
Mof_C 	C 	0.84498	0.4333	0.98114	0.446
Mof_C 	C 	0.56942	0.2047	0.96524	0.473
Mof_O 	O 	0.50888	0.7738	0.8806	-0.373
Mof_O 	O 	0.53505	0.9437	0.831	-0.419
Mof_O 	O 	0.34217	0.8773	0.86743	-0.461
Mof_O 	O 	0.74862	0.723	0.6208	-0.265
Mof_O 	O 	0.58407	0.9458	0.95726	-0.512
Mof_O 	O 	0.33317	0.0514	0.96552	-0.436
Mof_O 	O 	0.42029	0.821	0.98265	-0.482
Mof_O 	O 	0.50942	0.1657	0.93402	-0.494
Mof_Tm	Tm	0.04784	0.53063	0.41587	1.903
Mof_C 	C 	0.90597	0.7501	0.29692	-0.045
Mof_C 	C 	0.88275	0.7029	0.244	0.004
Mof_H 	H 	0.9003	0.6214	0.233	0.036
Mof_C 	C 	0.83362	0.7749	0.20675	-0.081
Mof_C 	C 	0.80754	0.8929	0.2238	-0.069
Mof_H 	H 	0.7715	0.9402	0.1992	0.067
Mof_C 	C 	0.83299	0.9438	0.27629	0.09
Mof_C 	C 	0.8822	0.8713	0.31269	-0.083
Mof_H 	H 	0.9	0.9041	0.3487	0.084
Mof_C 	C 	0.8096	0.0779	0.2909	-0.228
Mof_H 	H 	0.7534	0.0965	0.2735	0.099
Mof_H 	H 	0.8518	0.1339	0.2726	0.096
Mof_C 	C 	0.80529	0.1098	0.3541	0.06
Mof_C 	C 	0.7355	0.0729	0.38719	-0.032
Mof_H 	H 	0.6908	0.0264	0.3698	0.051
Mof_C 	C 	0.73047	0.1031	0.44543	-0.111
Mof_C 	C 	0.7965	0.1713	0.47081	0.053
Mof_H 	H 	0.7945	0.1899	0.5107	0.055
Mof_C 	C 	0.86495	0.2117	0.43799	-0.12
Mof_C 	C 	0.86922	0.1806	0.37997	-0.03
Mof_H 	H 	0.9164	0.2079	0.3577	0.046
Mof_C 	C 	0.95715	0.6742	0.3386	0.301
Mof_C 	C 	0.8077	0.7219	0.14927	0.387
Mof_C 	C 	0.65502	0.0667	0.48114	0.444
Mof_C 	C 	0.93058	0.2953	0.46524	0.47
Mof_O 	O 	0.99112	0.7262	0.3806	-0.373
Mof_O 	O 	0.96495	0.5563	0.331	-0.42
Mof_O 	O 	0.15783	0.6227	0.36743	-0.46
Mof_O 	O 	0.75138	0.777	0.1208	-0.264
Mof_O 	O 	0.91593	0.5542	0.45726	-0.513
Mof_O 	O 	0.16683	0.4486	0.46552	-0.439
Mof_O 	O 	0.07971	0.679	0.48265	-0.481
Mof_O 	O 	0.99058	0.3343	0.43402	-0.495
Mof_Tm	Tm	0.54784	0.96937	0.58413	1.902
Mof_C 	C 	0.40597	0.7499	0.70308	-0.046
Mof_C 	C 	0.38275	0.7971	0.756	0.004
Mof_H 	H 	0.4003	0.8786	0.767	0.036
Mof_C 	C 	0.33362	0.7251	0.79325	-0.082
Mof_C 	C 	0.30754	0.6071	0.7762	-0.068
Mof_H 	H 	0.2715	0.5598	0.8008	0.066
Mof_C 	C 	0.33299	0.5562	0.72371	0.087
Mof_C 	C 	0.3822	0.6287	0.68731	-0.082
Mof_H 	H 	0.4	0.5959	0.6513	0.083
Mof_C 	C 	0.3096	0.4221	0.7091	-0.225
Mof_H 	H 	0.2534	0.4035	0.7265	0.099
Mof_H 	H 	0.3518	0.3661	0.7274	0.096
Mof_C 	C 	0.30529	0.3902	0.6459	0.059
Mof_C 	C 	0.2355	0.4271	0.61281	-0.031
Mof_H 	H 	0.1908	0.4736	0.6302	0.051
Mof_C 	C 	0.23047	0.3969	0.55457	-0.112
Mof_C 	C 	0.2965	0.3287	0.52919	0.053
Mof_H 	H 	0.2945	0.3101	0.4893	0.054
Mof_C 	C 	0.36495	0.2883	0.56201	-0.12
Mof_C 	C 	0.36922	0.3194	0.62003	-0.03
Mof_H 	H 	0.4164	0.2921	0.6423	0.047
Mof_C 	C 	0.45715	0.8258	0.6614	0.302
Mof_C 	C 	0.3077	0.7781	0.85073	0.387
Mof_C 	C 	0.15502	0.4333	0.51886	0.444
Mof_C 	C 	0.43058	0.2047	0.53476	0.47
Mof_O 	O 	0.49112	0.7738	0.6194	-0.373
Mof_O 	O 	0.46495	0.9437	0.669	-0.42
Mof_O 	O 	0.65783	0.8773	0.63257	-0.461
Mof_O 	O 	0.25138	0.723	0.8792	-0.265
Mof_O 	O 	0.41593	0.9458	0.54274	-0.513
Mof_O 	O 	0.66683	0.0514	0.53448	-0.439
Mof_O 	O 	0.57971	0.821	0.51735	-0.481
Mof_O 	O 	0.49058	0.1657	0.56598	-0.495
Mof_Tm	Tm	0.95216	0.53063	0.08413	1.899
Mof_C 	C 	0.09403	0.7501	0.20308	-0.044
Mof_C 	C 	0.11725	0.7029	0.256	0.003
Mof_H 	H 	0.0997	0.6214	0.267	0.037
Mof_C 	C 	0.16638	0.7749	0.29325	-0.081
Mof_C 	C 	0.19246	0.8929	0.2762	-0.07
Mof_H 	H 	0.2285	0.9402	0.3008	0.067
Mof_C 	C 	0.16701	0.9438	0.22371	0.091
Mof_C 	C 	0.1178	0.8713	0.18731	-0.084
Mof_H 	H 	0.1	0.9041	0.1513	0.084
Mof_C 	C 	0.1904	0.0779	0.2091	-0.229
Mof_H 	H 	0.2466	0.0965	0.2265	0.099
Mof_H 	H 	0.1482	0.1339	0.2274	0.097
Mof_C 	C 	0.19471	0.1098	0.1459	0.061
Mof_C 	C 	0.2645	0.0729	0.11281	-0.033
Mof_H 	H 	0.3092	0.0264	0.1302	0.051
Mof_C 	C 	0.26953	0.1031	0.05457	-0.11
Mof_C 	C 	0.2035	0.1713	0.02919	0.051
Mof_H 	H 	0.2055	0.1899	0.9893	0.056
Mof_C 	C 	0.13505	0.2117	0.06201	-0.119
Mof_C 	C 	0.13078	0.1806	0.12003	-0.032
Mof_H 	H 	0.0836	0.2079	0.1423	0.047
Mof_C 	C 	0.04285	0.6742	0.1614	0.301
Mof_C 	C 	0.1923	0.7219	0.35073	0.387
Mof_C 	C 	0.34498	0.0667	0.01886	0.44
Mof_C 	C 	0.06942	0.2953	0.03476	0.47
Mof_O 	O 	0.00888	0.7262	0.1194	-0.372
Mof_O 	O 	0.03505	0.5563	0.169	-0.419
Mof_O 	O 	0.84217	0.6227	0.13257	-0.46
Mof_O 	O 	0.24862	0.777	0.3792	-0.264
Mof_O 	O 	0.08407	0.5542	0.04274	-0.513
Mof_O 	O 	0.83317	0.4486	0.03448	-0.44
Mof_O 	O 	0.92029	0.679	0.01735	-0.481
Mof_O 	O 	0.00942	0.3343	0.06598	-0.494
_end
