data_functionalizedCrystal
_audit_creation_method	'EQeq! by Chris Wilmer'
_symmetry_space_group_name_H-M	'P1'
_symmetry_Int_Tables_number	1
_symmetry_cell_setting	triclinic
loop_
_symmetry_equiv_pos_as_xyz
  x,y,z
_cell_length_a	32.0791
_cell_length_b	11.9048
_cell_length_c	37.7384
_cell_angle_alpha	90
_cell_angle_beta	99.269
_cell_angle_gamma	90
loop_
_atom_site_label
_atom_site_type_symbol
_atom_site_fract_x
_atom_site_fract_y
_atom_site_fract_z
_atom_site_charge
Mof_Bi	Bi	0.24682	0.31581	0.30493	0.688
Mof_C 	C 	0.0054	0.8444	0.04282	-0.042
Mof_C 	C 	0.9658	0.811	0.04341	-0.042
Mof_C 	C 	0.0972	0.9305	0.11265	0.016
Mof_H 	H 	0.1248	0.9027	0.1212	0.03
Mof_C 	C 	0.0716	0.875	0.08532	-0.114
Mof_H 	H 	0.0822	0.81	0.0752	0.068
Mof_C 	C 	0.03093	0.9111	0.0722	0.071
Mof_C 	C 	0.01765	0.0079	0.08723	-0.122
Mof_H 	H 	0.9901	0.0358	0.0786	0.072
Mof_C 	C 	0.04265	0.0652	0.11405	0.024
Mof_H 	H 	0.0324	0.132	0.1234	0.012
Mof_C 	C 	0.08298	0.0267	0.12775	-0.091
Mof_C 	C 	0.11016	0.0843	0.15757	0.165
Mof_C 	C 	0.1049	0.1998	0.16524	-0.284
Mof_H 	H 	0.0837	0.2425	0.1506	0.103
Mof_C 	C 	0.13007	0.2498	0.19343	0.241
Mof_H 	H 	0.1259	0.3271	0.1982	-0.155
Mof_C 	C 	0.16146	0.191	0.21531	-0.388
Mof_C 	C 	0.1675	0.0782	0.20805	0.234
Mof_H 	H 	0.1892	0.0372	0.2227	-0.13
Mof_C 	C 	0.1424	0.0254	0.1799	-0.289
Mof_H 	H 	0.1468	0.9481	0.1755	0.119
Mof_C 	C 	0.18801	0.2455	0.24639	0.556
Mof_O 	O 	0.21919	0.1898	0.26345	-0.638
Mof_O 	O 	0.1797	0.3429	0.25607	-0.742
Mof_C 	C 	0.0607	0.6815	0.97659	-0.028
Mof_H 	H 	0.0646	0.6058	0.9698	0.035
Mof_C 	C 	0.03549	0.7047	0.0023	-0.084
Mof_H 	H 	0.0221	0.6447	0.0127	0.058
Mof_C 	C 	0.02945	0.8137	0.01312	0.045
Mof_C 	C 	0.04977	0.8996	0.99723	-0.083
Mof_H 	H 	0.0467	0.9752	0.0045	0.06
Mof_C 	C 	0.07409	0.8766	0.97141	-0.027
Mof_H 	H 	0.087	0.9366	0.9607	0.038
Mof_C 	C 	0.08018	0.7671	0.96069	-0.022
Mof_C 	C 	0.10841	0.7443	0.93364	0.06
Mof_C 	C 	0.1404	0.6651	0.94055	-0.116
Mof_H 	H 	0.1429	0.6204	0.9617	0.065
Mof_C 	C 	0.1687	0.6508	0.91663	0.031
Mof_H 	H 	0.1911	0.5981	0.9217	0.023
Mof_C 	C 	0.16425	0.7136	0.88536	-0.116
Mof_C 	C 	0.1319	0.7888	0.87783	0.033
Mof_H 	H 	0.1284	0.8301	0.856	0.021
Mof_C 	C 	0.104	0.805	0.90194	-0.121
Mof_H 	H 	0.0818	0.8582	0.8967	0.066
Mof_C 	C 	0.19598	0.6996	0.86018	0.304
Mof_O 	O 	0.18944	0.7484	0.83032	-0.329
Mof_O 	O 	0.22821	0.6409	0.86965	-0.323
Mof_C 	C 	0.8927	0.5952	0.99357	-0.005
Mof_H 	H 	0.8761	0.5343	0.9997	0.025
Mof_C 	C 	0.9157	0.6579	0.02025	-0.099
Mof_H 	H 	0.9149	0.6395	0.0446	0.06
Mof_C 	C 	0.94031	0.7478	0.01238	0.055
Mof_C 	C 	0.93914	0.7755	0.97668	-0.098
Mof_H 	H 	0.9546	0.8387	0.9706	0.066
Mof_C 	C 	0.9158	0.7127	0.94963	-0.004
Mof_H 	H 	0.9153	0.7337	0.9253	0.023
Mof_C 	C 	0.8932	0.6198	0.95761	-0.054
Mof_C 	C 	0.87013	0.5433	0.92937	0.113
Mof_C 	C 	0.8699	0.4287	0.93579	-0.189
Mof_H 	H 	0.8844	0.4	0.9579	0.091
Mof_C 	C 	0.8491	0.3556	0.91064	0.114
Mof_H 	H 	0.8499	0.2771	0.9153	-0.003
Mof_C 	C 	0.82704	0.3963	0.87828	-0.245
Mof_C 	C 	0.8271	0.5106	0.87189	0.142
Mof_H 	H 	0.8123	0.5392	0.8499	-0.159
Mof_C 	C 	0.8486	0.5845	0.89707	-0.213
Mof_H 	H 	0.8484	0.6628	0.8922	0.077
Mof_C 	C 	0.80424	0.3134	0.85284	0.36
Mof_O 	O 	0.77451	0.3503	0.82851	-0.604
Mof_O 	O 	0.81351	0.2117	0.85521	-0.34
Mof_C 	C 	0.94192	0.8174	0.13902	0.008
Mof_H 	H 	0.9562	0.8031	0.1627	0.01
Mof_C 	C 	0.96362	0.8053	0.11007	-0.108
Mof_H 	H 	0.9921	0.78	0.1142	0.059
Mof_C 	C 	0.94429	0.8296	0.07532	0.061
Mof_C 	C 	0.90225	0.8609	0.07	-0.109
Mof_H 	H 	0.8882	0.8752	0.0463	0.066
Mof_C 	C 	0.88	0.872	0.09885	0.008
Mof_H 	H 	0.8512	0.8947	0.0945	0.02
Mof_C 	C 	0.8997	0.8502	0.13391	-0.083
Mof_C 	C 	0.8756	0.855	0.16413	0.164
Mof_C 	C 	0.8425	0.9301	0.16404	-0.276
Mof_H 	H 	0.8367	0.9833	0.1451	0.121
Mof_C 	C 	0.8176	0.9292	0.19097	0.24
Mof_H 	H 	0.7956	0.9826	0.1907	-0.097
Mof_C 	C 	0.82512	0.8502	0.21826	-0.402
Mof_C 	C 	0.85897	0.7769	0.21919	0.206
Mof_H 	H 	0.8654	0.7255	0.2386	-0.194
Mof_C 	C 	0.8835	0.7782	0.19204	-0.28
Mof_H 	H 	0.9059	0.7258	0.1926	0.081
Mof_C 	C 	0.79653	0.8428	0.24614	0.6
Mof_O 	O 	0.80682	0.7771	0.2723	-0.757
Mof_O 	O 	0.76394	0.9013	0.24245	-0.818
Mof_K 	K 	0.20417	0.55108	0.23411	3.446
Mof_Bi	Bi	0.74682	0.81581	0.30493	0.692
Mof_C 	C 	0.5054	0.3444	0.04282	-0.037
Mof_C 	C 	0.4658	0.311	0.04341	-0.047
Mof_C 	C 	0.5972	0.4305	0.11265	-0.007
Mof_H 	H 	0.6248	0.4027	0.1212	0.035
Mof_C 	C 	0.5716	0.375	0.08532	-0.099
Mof_H 	H 	0.5822	0.31	0.0752	0.061
Mof_C 	C 	0.53093	0.4111	0.0722	0.055
Mof_C 	C 	0.51765	0.5079	0.08723	-0.104
Mof_H 	H 	0.4901	0.5358	0.0786	0.066
Mof_C 	C 	0.54265	0.5652	0.11405	0.006
Mof_H 	H 	0.5324	0.632	0.1234	0.018
Mof_C 	C 	0.58298	0.5267	0.12775	-0.071
Mof_C 	C 	0.61016	0.5843	0.15757	0.148
Mof_C 	C 	0.6049	0.6998	0.16524	-0.272
Mof_H 	H 	0.5837	0.7425	0.1506	0.099
Mof_C 	C 	0.63007	0.7498	0.19343	0.229
Mof_H 	H 	0.6259	0.8271	0.1982	-0.15
Mof_C 	C 	0.66146	0.691	0.21531	-0.378
Mof_C 	C 	0.6675	0.5782	0.20805	0.217
Mof_H 	H 	0.6892	0.5372	0.2227	-0.124
Mof_C 	C 	0.6424	0.5254	0.1799	-0.263
Mof_H 	H 	0.6468	0.4481	0.1755	0.104
Mof_C 	C 	0.68801	0.7455	0.24639	0.551
Mof_O 	O 	0.71919	0.6898	0.26345	-0.639
Mof_O 	O 	0.6797	0.8429	0.25607	-0.737
Mof_C 	C 	0.5607	0.1815	0.97659	-0.031
Mof_H 	H 	0.5646	0.1058	0.9698	0.036
Mof_C 	C 	0.53549	0.2047	0.0023	-0.081
Mof_H 	H 	0.5221	0.1447	0.0127	0.057
Mof_C 	C 	0.52945	0.3137	0.01312	0.041
Mof_C 	C 	0.54977	0.3996	0.99723	-0.079
Mof_H 	H 	0.5467	0.4752	0.0045	0.058
Mof_C 	C 	0.57409	0.3766	0.97141	-0.029
Mof_H 	H 	0.587	0.4366	0.9607	0.04
Mof_C 	C 	0.58018	0.2671	0.96069	-0.02
Mof_C 	C 	0.60841	0.2443	0.93364	0.059
Mof_C 	C 	0.6404	0.1651	0.94055	-0.114
Mof_H 	H 	0.6429	0.1204	0.9617	0.065
Mof_C 	C 	0.6687	0.1508	0.91663	0.03
Mof_H 	H 	0.6911	0.0981	0.9217	0.024
Mof_C 	C 	0.66425	0.2136	0.88536	-0.114
Mof_C 	C 	0.6319	0.2888	0.87783	0.032
Mof_H 	H 	0.6284	0.3301	0.856	0.022
Mof_C 	C 	0.604	0.305	0.90194	-0.119
Mof_H 	H 	0.5818	0.3582	0.8967	0.067
Mof_C 	C 	0.69598	0.1996	0.86018	0.304
Mof_O 	O 	0.68944	0.2484	0.83032	-0.327
Mof_O 	O 	0.72821	0.1409	0.86965	-0.322
Mof_C 	C 	0.3927	0.0952	0.99357	0
Mof_H 	H 	0.3761	0.0343	0.9997	0.024
Mof_C 	C 	0.4157	0.1579	0.02025	-0.103
Mof_H 	H 	0.4149	0.1395	0.0446	0.061
Mof_C 	C 	0.44031	0.2478	0.01238	0.058
Mof_C 	C 	0.43914	0.2755	0.97668	-0.101
Mof_H 	H 	0.4546	0.3387	0.9706	0.067
Mof_C 	C 	0.4158	0.2127	0.94963	0.001
Mof_H 	H 	0.4153	0.2337	0.9253	0.022
Mof_C 	C 	0.3932	0.1198	0.95761	-0.06
Mof_C 	C 	0.37013	0.0433	0.92937	0.126
Mof_C 	C 	0.3699	0.9287	0.93579	-0.203
Mof_H 	H 	0.3844	0.9	0.9579	0.096
Mof_C 	C 	0.3491	0.8556	0.91064	0.125
Mof_H 	H 	0.3499	0.7771	0.9153	-0.007
Mof_C 	C 	0.32704	0.8963	0.87828	-0.259
Mof_C 	C 	0.3271	0.0106	0.87189	0.159
Mof_H 	H 	0.3123	0.0392	0.8499	-0.162
Mof_C 	C 	0.3486	0.0845	0.89707	-0.225
Mof_H 	H 	0.3484	0.1628	0.8922	0.082
Mof_C 	C 	0.30424	0.8134	0.85284	0.364
Mof_O 	O 	0.27451	0.8503	0.82851	-0.604
Mof_O 	O 	0.31351	0.7117	0.85521	-0.342
Mof_C 	C 	0.44192	0.3174	0.13902	0.008
Mof_H 	H 	0.4562	0.3031	0.1627	0.009
Mof_C 	C 	0.46362	0.3053	0.11007	-0.111
Mof_H 	H 	0.4921	0.28	0.1142	0.059
Mof_C 	C 	0.44429	0.3296	0.07532	0.062
Mof_C 	C 	0.40225	0.3609	0.07	-0.111
Mof_H 	H 	0.3882	0.3752	0.0463	0.066
Mof_C 	C 	0.38	0.372	0.09885	0.008
Mof_H 	H 	0.3512	0.3947	0.0945	0.019
Mof_C 	C 	0.3997	0.3502	0.13391	-0.085
Mof_C 	C 	0.3756	0.355	0.16413	0.164
Mof_C 	C 	0.3425	0.4301	0.16404	-0.278
Mof_H 	H 	0.3367	0.4833	0.1451	0.12
Mof_C 	C 	0.3176	0.4292	0.19097	0.241
Mof_H 	H 	0.2956	0.4826	0.1907	-0.1
Mof_C 	C 	0.32512	0.3502	0.21826	-0.404
Mof_C 	C 	0.35897	0.2769	0.21919	0.206
Mof_H 	H 	0.3654	0.2255	0.2386	-0.194
Mof_C 	C 	0.3835	0.2782	0.19204	-0.281
Mof_H 	H 	0.4059	0.2258	0.1926	0.081
Mof_C 	C 	0.29653	0.3428	0.24614	0.601
Mof_O 	O 	0.30682	0.2771	0.2723	-0.755
Mof_O 	O 	0.26394	0.4013	0.24245	-0.824
Mof_K 	K 	0.70417	0.05108	0.23411	3.417
Mof_Bi	Bi	0.75318	0.31581	0.19507	0.687
Mof_C 	C 	0.9946	0.8444	0.45718	-0.043
Mof_C 	C 	0.0342	0.811	0.45659	-0.043
Mof_C 	C 	0.9028	0.9305	0.38735	0.015
Mof_H 	H 	0.8752	0.9027	0.3788	0.029
Mof_C 	C 	0.9284	0.875	0.41468	-0.114
Mof_H 	H 	0.9178	0.81	0.4248	0.067
Mof_C 	C 	0.96907	0.9111	0.4278	0.07
Mof_C 	C 	0.98235	0.0079	0.41277	-0.122
Mof_H 	H 	0.0099	0.0358	0.4214	0.071
Mof_C 	C 	0.95735	0.0652	0.38595	0.022
Mof_H 	H 	0.9676	0.132	0.3766	0.012
Mof_C 	C 	0.91702	0.0267	0.37225	-0.092
Mof_C 	C 	0.88984	0.0843	0.34243	0.164
Mof_C 	C 	0.8951	0.1998	0.33476	-0.285
Mof_H 	H 	0.9163	0.2425	0.3494	0.102
Mof_C 	C 	0.86993	0.2498	0.30657	0.24
Mof_H 	H 	0.8741	0.3271	0.3018	-0.156
Mof_C 	C 	0.83854	0.191	0.28469	-0.389
Mof_C 	C 	0.8325	0.0782	0.29195	0.233
Mof_H 	H 	0.8108	0.0372	0.2773	-0.131
Mof_C 	C 	0.8576	0.0254	0.3201	-0.289
Mof_H 	H 	0.8532	0.9481	0.3245	0.117
Mof_C 	C 	0.81199	0.2455	0.25361	0.555
Mof_O 	O 	0.78081	0.1898	0.23655	-0.639
Mof_O 	O 	0.8203	0.3429	0.24393	-0.743
Mof_C 	C 	0.9393	0.6815	0.52341	-0.029
Mof_H 	H 	0.9354	0.6058	0.5302	0.035
Mof_C 	C 	0.96451	0.7047	0.4977	-0.083
Mof_H 	H 	0.9779	0.6447	0.4873	0.057
Mof_C 	C 	0.97055	0.8137	0.48688	0.044
Mof_C 	C 	0.95023	0.8996	0.50277	-0.082
Mof_H 	H 	0.9533	0.9752	0.4955	0.059
Mof_C 	C 	0.92591	0.8766	0.52859	-0.027
Mof_H 	H 	0.913	0.9366	0.5393	0.038
Mof_C 	C 	0.91982	0.7671	0.53931	-0.022
Mof_C 	C 	0.89159	0.7443	0.56636	0.06
Mof_C 	C 	0.8596	0.6651	0.55945	-0.116
Mof_H 	H 	0.8571	0.6204	0.5383	0.065
Mof_C 	C 	0.8313	0.6508	0.58337	0.031
Mof_H 	H 	0.8089	0.5981	0.5783	0.023
Mof_C 	C 	0.83575	0.7136	0.61464	-0.116
Mof_C 	C 	0.8681	0.7888	0.62217	0.033
Mof_H 	H 	0.8716	0.8301	0.644	0.021
Mof_C 	C 	0.896	0.805	0.59806	-0.121
Mof_H 	H 	0.9182	0.8582	0.6033	0.066
Mof_C 	C 	0.80402	0.6996	0.63982	0.304
Mof_O 	O 	0.81056	0.7484	0.66968	-0.329
Mof_O 	O 	0.77179	0.6409	0.63035	-0.323
Mof_C 	C 	0.1073	0.5952	0.50643	-0.005
Mof_H 	H 	0.1239	0.5343	0.5003	0.025
Mof_C 	C 	0.0843	0.6579	0.47975	-0.099
Mof_H 	H 	0.0851	0.6395	0.4554	0.06
Mof_C 	C 	0.05969	0.7478	0.48762	0.055
Mof_C 	C 	0.06086	0.7755	0.52332	-0.098
Mof_H 	H 	0.0454	0.8387	0.5294	0.066
Mof_C 	C 	0.0842	0.7127	0.55037	-0.004
Mof_H 	H 	0.0847	0.7337	0.5747	0.023
Mof_C 	C 	0.1068	0.6198	0.54239	-0.054
Mof_C 	C 	0.12987	0.5433	0.57063	0.113
Mof_C 	C 	0.1301	0.4287	0.56421	-0.189
Mof_H 	H 	0.1156	0.4	0.5421	0.091
Mof_C 	C 	0.1509	0.3556	0.58936	0.114
Mof_H 	H 	0.1501	0.2771	0.5847	-0.003
Mof_C 	C 	0.17296	0.3963	0.62172	-0.245
Mof_C 	C 	0.1729	0.5106	0.62811	0.142
Mof_H 	H 	0.1877	0.5392	0.6501	-0.159
Mof_C 	C 	0.1514	0.5845	0.60293	-0.213
Mof_H 	H 	0.1516	0.6628	0.6078	0.077
Mof_C 	C 	0.19576	0.3134	0.64716	0.36
Mof_O 	O 	0.22549	0.3503	0.67149	-0.604
Mof_O 	O 	0.18649	0.2117	0.64479	-0.34
Mof_C 	C 	0.05808	0.8174	0.36098	0.008
Mof_H 	H 	0.0438	0.8031	0.3373	0.01
Mof_C 	C 	0.03638	0.8053	0.38993	-0.109
Mof_H 	H 	0.0079	0.78	0.3858	0.059
Mof_C 	C 	0.05571	0.8296	0.42468	0.061
Mof_C 	C 	0.09775	0.8609	0.43	-0.109
Mof_H 	H 	0.1118	0.8752	0.4537	0.066
Mof_C 	C 	0.12	0.872	0.40115	0.008
Mof_H 	H 	0.1488	0.8947	0.4055	0.02
Mof_C 	C 	0.1003	0.8502	0.36609	-0.083
Mof_C 	C 	0.1244	0.855	0.33587	0.164
Mof_C 	C 	0.1575	0.9301	0.33596	-0.276
Mof_H 	H 	0.1633	0.9833	0.3549	0.121
Mof_C 	C 	0.1824	0.9292	0.30903	0.24
Mof_H 	H 	0.2044	0.9826	0.3093	-0.097
Mof_C 	C 	0.17488	0.8502	0.28174	-0.402
Mof_C 	C 	0.14103	0.7769	0.28081	0.206
Mof_H 	H 	0.1346	0.7255	0.2614	-0.194
Mof_C 	C 	0.1165	0.7782	0.30796	-0.28
Mof_H 	H 	0.0941	0.7258	0.3074	0.081
Mof_C 	C 	0.20347	0.8428	0.25386	0.6
Mof_O 	O 	0.19318	0.7771	0.2277	-0.757
Mof_O 	O 	0.23606	0.9013	0.25755	-0.818
Mof_K 	K 	0.79583	0.55108	0.26589	3.446
Mof_Bi	Bi	0.25318	0.81581	0.19507	0.692
Mof_C 	C 	0.4946	0.3444	0.45718	-0.037
Mof_C 	C 	0.5342	0.311	0.45659	-0.047
Mof_C 	C 	0.4028	0.4305	0.38735	-0.007
Mof_H 	H 	0.3752	0.4027	0.3788	0.035
Mof_C 	C 	0.4284	0.375	0.41468	-0.099
Mof_H 	H 	0.4178	0.31	0.4248	0.061
Mof_C 	C 	0.46907	0.4111	0.4278	0.055
Mof_C 	C 	0.48235	0.5079	0.41277	-0.104
Mof_H 	H 	0.5099	0.5358	0.4214	0.066
Mof_C 	C 	0.45735	0.5652	0.38595	0.006
Mof_H 	H 	0.4676	0.632	0.3766	0.018
Mof_C 	C 	0.41702	0.5267	0.37225	-0.071
Mof_C 	C 	0.38984	0.5843	0.34243	0.148
Mof_C 	C 	0.3951	0.6998	0.33476	-0.272
Mof_H 	H 	0.4163	0.7425	0.3494	0.099
Mof_C 	C 	0.36993	0.7498	0.30657	0.229
Mof_H 	H 	0.3741	0.8271	0.3018	-0.15
Mof_C 	C 	0.33854	0.691	0.28469	-0.378
Mof_C 	C 	0.3325	0.5782	0.29195	0.217
Mof_H 	H 	0.3108	0.5372	0.2773	-0.124
Mof_C 	C 	0.3576	0.5254	0.3201	-0.263
Mof_H 	H 	0.3532	0.4481	0.3245	0.104
Mof_C 	C 	0.31199	0.7455	0.25361	0.551
Mof_O 	O 	0.28081	0.6898	0.23655	-0.639
Mof_O 	O 	0.3203	0.8429	0.24393	-0.737
Mof_C 	C 	0.4393	0.1815	0.52341	-0.032
Mof_H 	H 	0.4354	0.1058	0.5302	0.036
Mof_C 	C 	0.46451	0.2047	0.4977	-0.081
Mof_H 	H 	0.4779	0.1447	0.4873	0.056
Mof_C 	C 	0.47055	0.3137	0.48688	0.041
Mof_C 	C 	0.45023	0.3996	0.50277	-0.079
Mof_H 	H 	0.4533	0.4752	0.4955	0.058
Mof_C 	C 	0.42591	0.3766	0.52859	-0.03
Mof_H 	H 	0.413	0.4366	0.5393	0.04
Mof_C 	C 	0.41982	0.2671	0.53931	-0.02
Mof_C 	C 	0.39159	0.2443	0.56636	0.059
Mof_C 	C 	0.3596	0.1651	0.55945	-0.114
Mof_H 	H 	0.3571	0.1204	0.5383	0.065
Mof_C 	C 	0.3313	0.1508	0.58337	0.03
Mof_H 	H 	0.3089	0.0981	0.5783	0.024
Mof_C 	C 	0.33575	0.2136	0.61464	-0.114
Mof_C 	C 	0.3681	0.2888	0.62217	0.032
Mof_H 	H 	0.3716	0.3301	0.644	0.022
Mof_C 	C 	0.396	0.305	0.59806	-0.119
Mof_H 	H 	0.4182	0.3582	0.6033	0.067
Mof_C 	C 	0.30402	0.1996	0.63982	0.304
Mof_O 	O 	0.31056	0.2484	0.66968	-0.327
Mof_O 	O 	0.27179	0.1409	0.63035	-0.322
Mof_C 	C 	0.6073	0.0952	0.50643	-0
Mof_H 	H 	0.6239	0.0343	0.5003	0.024
Mof_C 	C 	0.5843	0.1579	0.47975	-0.103
Mof_H 	H 	0.5851	0.1395	0.4554	0.061
Mof_C 	C 	0.55969	0.2478	0.48762	0.059
Mof_C 	C 	0.56086	0.2755	0.52332	-0.101
Mof_H 	H 	0.5454	0.3387	0.5294	0.067
Mof_C 	C 	0.5842	0.2127	0.55037	0.001
Mof_H 	H 	0.5847	0.2337	0.5747	0.022
Mof_C 	C 	0.6068	0.1198	0.54239	-0.059
Mof_C 	C 	0.62987	0.0433	0.57063	0.126
Mof_C 	C 	0.6301	0.9287	0.56421	-0.203
Mof_H 	H 	0.6156	0.9	0.5421	0.096
Mof_C 	C 	0.6509	0.8556	0.58936	0.125
Mof_H 	H 	0.6501	0.7771	0.5847	-0.007
Mof_C 	C 	0.67296	0.8963	0.62172	-0.259
Mof_C 	C 	0.6729	0.0106	0.62811	0.158
Mof_H 	H 	0.6877	0.0392	0.6501	-0.162
Mof_C 	C 	0.6514	0.0845	0.60293	-0.224
Mof_H 	H 	0.6516	0.1628	0.6078	0.082
Mof_C 	C 	0.69576	0.8134	0.64716	0.364
Mof_O 	O 	0.72549	0.8503	0.67149	-0.604
Mof_O 	O 	0.68649	0.7117	0.64479	-0.342
Mof_C 	C 	0.55808	0.3174	0.36098	0.008
Mof_H 	H 	0.5438	0.3031	0.3373	0.009
Mof_C 	C 	0.53638	0.3053	0.38993	-0.111
Mof_H 	H 	0.5079	0.28	0.3858	0.059
Mof_C 	C 	0.55571	0.3296	0.42468	0.063
Mof_C 	C 	0.59775	0.3609	0.43	-0.111
Mof_H 	H 	0.6118	0.3752	0.4537	0.067
Mof_C 	C 	0.62	0.372	0.40115	0.008
Mof_H 	H 	0.6488	0.3947	0.4055	0.019
Mof_C 	C 	0.6003	0.3502	0.36609	-0.085
Mof_C 	C 	0.6244	0.355	0.33587	0.164
Mof_C 	C 	0.6575	0.4301	0.33596	-0.278
Mof_H 	H 	0.6633	0.4833	0.3549	0.12
Mof_C 	C 	0.6824	0.4292	0.30903	0.241
Mof_H 	H 	0.7044	0.4826	0.3093	-0.1
Mof_C 	C 	0.67488	0.3502	0.28174	-0.404
Mof_C 	C 	0.64103	0.2769	0.28081	0.206
Mof_H 	H 	0.6346	0.2255	0.2614	-0.194
Mof_C 	C 	0.6165	0.2782	0.30796	-0.281
Mof_H 	H 	0.5941	0.2258	0.3074	0.081
Mof_C 	C 	0.70347	0.3428	0.25386	0.601
Mof_O 	O 	0.69318	0.2771	0.2277	-0.755
Mof_O 	O 	0.73606	0.4013	0.25755	-0.824
Mof_K 	K 	0.29583	0.05108	0.26589	3.417
Mof_Bi	Bi	0.75318	0.68419	0.69507	0.687
Mof_C 	C 	0.9946	0.1556	0.95718	-0.043
Mof_C 	C 	0.0342	0.189	0.95659	-0.043
Mof_C 	C 	0.9028	0.0695	0.88735	0.015
Mof_H 	H 	0.8752	0.0973	0.8788	0.029
Mof_C 	C 	0.9284	0.125	0.91468	-0.115
Mof_H 	H 	0.9178	0.19	0.9248	0.067
Mof_C 	C 	0.96907	0.0889	0.9278	0.07
Mof_C 	C 	0.98235	0.9921	0.91277	-0.123
Mof_H 	H 	0.0099	0.9642	0.9214	0.071
Mof_C 	C 	0.95735	0.9348	0.88595	0.023
Mof_H 	H 	0.9676	0.868	0.8766	0.011
Mof_C 	C 	0.91702	0.9733	0.87225	-0.092
Mof_C 	C 	0.88984	0.9157	0.84243	0.164
Mof_C 	C 	0.8951	0.8002	0.83476	-0.285
Mof_H 	H 	0.9163	0.7575	0.8494	0.102
Mof_C 	C 	0.86993	0.7502	0.80657	0.24
Mof_H 	H 	0.8741	0.6729	0.8018	-0.156
Mof_C 	C 	0.83854	0.809	0.78469	-0.389
Mof_C 	C 	0.8325	0.9218	0.79195	0.233
Mof_H 	H 	0.8108	0.9628	0.7773	-0.131
Mof_C 	C 	0.8576	0.9746	0.8201	-0.29
Mof_H 	H 	0.8532	0.0519	0.8245	0.118
Mof_C 	C 	0.81199	0.7545	0.75361	0.555
Mof_O 	O 	0.78081	0.8102	0.73655	-0.639
Mof_O 	O 	0.8203	0.6571	0.74393	-0.743
Mof_C 	C 	0.9393	0.3185	0.02341	-0.029
Mof_H 	H 	0.9354	0.3942	0.0302	0.034
Mof_C 	C 	0.96451	0.2953	0.9977	-0.084
Mof_H 	H 	0.9779	0.3553	0.9873	0.058
Mof_C 	C 	0.97055	0.1863	0.98688	0.045
Mof_C 	C 	0.95023	0.1004	0.00277	-0.083
Mof_H 	H 	0.9533	0.0248	0.9955	0.06
Mof_C 	C 	0.92591	0.1234	0.02859	-0.027
Mof_H 	H 	0.913	0.0634	0.0393	0.038
Mof_C 	C 	0.91982	0.2329	0.03931	-0.022
Mof_C 	C 	0.89159	0.2557	0.06636	0.06
Mof_C 	C 	0.8596	0.3349	0.05945	-0.116
Mof_H 	H 	0.8571	0.3796	0.0383	0.065
Mof_C 	C 	0.8313	0.3492	0.08337	0.031
Mof_H 	H 	0.8089	0.4019	0.0783	0.023
Mof_C 	C 	0.83575	0.2864	0.11464	-0.116
Mof_C 	C 	0.8681	0.2112	0.12217	0.033
Mof_H 	H 	0.8716	0.1699	0.144	0.021
Mof_C 	C 	0.896	0.195	0.09806	-0.121
Mof_H 	H 	0.9182	0.1418	0.1033	0.066
Mof_C 	C 	0.80402	0.3004	0.13982	0.304
Mof_O 	O 	0.81056	0.2516	0.16968	-0.329
Mof_O 	O 	0.77179	0.3591	0.13035	-0.323
Mof_C 	C 	0.1073	0.4048	0.00643	-0.005
Mof_H 	H 	0.1239	0.4657	0.0003	0.025
Mof_C 	C 	0.0843	0.3421	0.97975	-0.099
Mof_H 	H 	0.0851	0.3605	0.9554	0.06
Mof_C 	C 	0.05969	0.2522	0.98762	0.055
Mof_C 	C 	0.06086	0.2245	0.02332	-0.098
Mof_H 	H 	0.0454	0.1613	0.0294	0.066
Mof_C 	C 	0.0842	0.2873	0.05037	-0.004
Mof_H 	H 	0.0847	0.2663	0.0747	0.023
Mof_C 	C 	0.1068	0.3802	0.04239	-0.054
Mof_C 	C 	0.12987	0.4567	0.07063	0.113
Mof_C 	C 	0.1301	0.5713	0.06421	-0.189
Mof_H 	H 	0.1156	0.6	0.0421	0.091
Mof_C 	C 	0.1509	0.6444	0.08936	0.114
Mof_H 	H 	0.1501	0.7229	0.0847	-0.003
Mof_C 	C 	0.17296	0.6037	0.12172	-0.245
Mof_C 	C 	0.1729	0.4894	0.12811	0.142
Mof_H 	H 	0.1877	0.4608	0.1501	-0.159
Mof_C 	C 	0.1514	0.4155	0.10293	-0.213
Mof_H 	H 	0.1516	0.3372	0.1078	0.077
Mof_C 	C 	0.19576	0.6866	0.14716	0.36
Mof_O 	O 	0.22549	0.6497	0.17149	-0.604
Mof_O 	O 	0.18649	0.7883	0.14479	-0.34
Mof_C 	C 	0.05808	0.1826	0.86098	0.008
Mof_H 	H 	0.0438	0.1969	0.8373	0.01
Mof_C 	C 	0.03638	0.1947	0.88993	-0.108
Mof_H 	H 	0.0079	0.22	0.8858	0.059
Mof_C 	C 	0.05571	0.1704	0.92468	0.061
Mof_C 	C 	0.09775	0.1391	0.93	-0.109
Mof_H 	H 	0.1118	0.1248	0.9537	0.066
Mof_C 	C 	0.12	0.128	0.90115	0.008
Mof_H 	H 	0.1488	0.1053	0.9055	0.02
Mof_C 	C 	0.1003	0.1498	0.86609	-0.083
Mof_C 	C 	0.1244	0.145	0.83587	0.164
Mof_C 	C 	0.1575	0.0699	0.83596	-0.276
Mof_H 	H 	0.1633	0.0167	0.8549	0.121
Mof_C 	C 	0.1824	0.0708	0.80903	0.24
Mof_H 	H 	0.2044	0.0174	0.8093	-0.097
Mof_C 	C 	0.17488	0.1498	0.78174	-0.402
Mof_C 	C 	0.14103	0.2231	0.78081	0.206
Mof_H 	H 	0.1346	0.2745	0.7614	-0.194
Mof_C 	C 	0.1165	0.2218	0.80796	-0.28
Mof_H 	H 	0.0941	0.2742	0.8074	0.081
Mof_C 	C 	0.20347	0.1572	0.75386	0.6
Mof_O 	O 	0.19318	0.2229	0.7277	-0.757
Mof_O 	O 	0.23606	0.0987	0.75755	-0.818
Mof_K 	K 	0.79583	0.44892	0.76589	3.446
Mof_Bi	Bi	0.25318	0.18419	0.69507	0.692
Mof_C 	C 	0.4946	0.6556	0.95718	-0.037
Mof_C 	C 	0.5342	0.689	0.95659	-0.047
Mof_C 	C 	0.4028	0.5695	0.88735	-0.007
Mof_H 	H 	0.3752	0.5973	0.8788	0.035
Mof_C 	C 	0.4284	0.625	0.91468	-0.099
Mof_H 	H 	0.4178	0.69	0.9248	0.061
Mof_C 	C 	0.46907	0.5889	0.9278	0.055
Mof_C 	C 	0.48235	0.4921	0.91277	-0.104
Mof_H 	H 	0.5099	0.4642	0.9214	0.066
Mof_C 	C 	0.45735	0.4348	0.88595	0.006
Mof_H 	H 	0.4676	0.368	0.8766	0.018
Mof_C 	C 	0.41702	0.4733	0.87225	-0.071
Mof_C 	C 	0.38984	0.4157	0.84243	0.148
Mof_C 	C 	0.3951	0.3002	0.83476	-0.272
Mof_H 	H 	0.4163	0.2575	0.8494	0.099
Mof_C 	C 	0.36993	0.2502	0.80657	0.229
Mof_H 	H 	0.3741	0.1729	0.8018	-0.15
Mof_C 	C 	0.33854	0.309	0.78469	-0.378
Mof_C 	C 	0.3325	0.4218	0.79195	0.217
Mof_H 	H 	0.3108	0.4628	0.7773	-0.124
Mof_C 	C 	0.3576	0.4746	0.8201	-0.263
Mof_H 	H 	0.3532	0.5519	0.8245	0.104
Mof_C 	C 	0.31199	0.2545	0.75361	0.551
Mof_O 	O 	0.28081	0.3102	0.73655	-0.639
Mof_O 	O 	0.3203	0.1571	0.74393	-0.737
Mof_C 	C 	0.4393	0.8185	0.02341	-0.031
Mof_H 	H 	0.4354	0.8942	0.0302	0.036
Mof_C 	C 	0.46451	0.7953	0.9977	-0.081
Mof_H 	H 	0.4779	0.8553	0.9873	0.057
Mof_C 	C 	0.47055	0.6863	0.98688	0.041
Mof_C 	C 	0.45023	0.6004	0.00277	-0.079
Mof_H 	H 	0.4533	0.5248	0.9955	0.058
Mof_C 	C 	0.42591	0.6234	0.02859	-0.029
Mof_H 	H 	0.413	0.5634	0.0393	0.04
Mof_C 	C 	0.41982	0.7329	0.03931	-0.02
Mof_C 	C 	0.39159	0.7557	0.06636	0.059
Mof_C 	C 	0.3596	0.8349	0.05945	-0.114
Mof_H 	H 	0.3571	0.8796	0.0383	0.065
Mof_C 	C 	0.3313	0.8492	0.08337	0.03
Mof_H 	H 	0.3089	0.9019	0.0783	0.024
Mof_C 	C 	0.33575	0.7864	0.11464	-0.114
Mof_C 	C 	0.3681	0.7112	0.12217	0.032
Mof_H 	H 	0.3716	0.6699	0.144	0.022
Mof_C 	C 	0.396	0.695	0.09806	-0.119
Mof_H 	H 	0.4182	0.6418	0.1033	0.067
Mof_C 	C 	0.30402	0.8004	0.13982	0.304
Mof_O 	O 	0.31056	0.7516	0.16968	-0.327
Mof_O 	O 	0.27179	0.8591	0.13035	-0.322
Mof_C 	C 	0.6073	0.9048	0.00643	0
Mof_H 	H 	0.6239	0.9657	0.0003	0.024
Mof_C 	C 	0.5843	0.8421	0.97975	-0.103
Mof_H 	H 	0.5851	0.8605	0.9554	0.061
Mof_C 	C 	0.55969	0.7522	0.98762	0.058
Mof_C 	C 	0.56086	0.7245	0.02332	-0.101
Mof_H 	H 	0.5454	0.6613	0.0294	0.067
Mof_C 	C 	0.5842	0.7873	0.05037	0.001
Mof_H 	H 	0.5847	0.7663	0.0747	0.022
Mof_C 	C 	0.6068	0.8802	0.04239	-0.06
Mof_C 	C 	0.62987	0.9567	0.07063	0.126
Mof_C 	C 	0.6301	0.0713	0.06421	-0.203
Mof_H 	H 	0.6156	0.1	0.0421	0.096
Mof_C 	C 	0.6509	0.1444	0.08936	0.125
Mof_H 	H 	0.6501	0.2229	0.0847	-0.007
Mof_C 	C 	0.67296	0.1037	0.12172	-0.259
Mof_C 	C 	0.6729	0.9894	0.12811	0.159
Mof_H 	H 	0.6877	0.9608	0.1501	-0.162
Mof_C 	C 	0.6514	0.9155	0.10293	-0.225
Mof_H 	H 	0.6516	0.8372	0.1078	0.082
Mof_C 	C 	0.69576	0.1866	0.14716	0.364
Mof_O 	O 	0.72549	0.1497	0.17149	-0.604
Mof_O 	O 	0.68649	0.2883	0.14479	-0.342
Mof_C 	C 	0.55808	0.6826	0.86098	0.008
Mof_H 	H 	0.5438	0.6969	0.8373	0.009
Mof_C 	C 	0.53638	0.6947	0.88993	-0.111
Mof_H 	H 	0.5079	0.72	0.8858	0.059
Mof_C 	C 	0.55571	0.6704	0.92468	0.062
Mof_C 	C 	0.59775	0.6391	0.93	-0.111
Mof_H 	H 	0.6118	0.6248	0.9537	0.066
Mof_C 	C 	0.62	0.628	0.90115	0.008
Mof_H 	H 	0.6488	0.6053	0.9055	0.019
Mof_C 	C 	0.6003	0.6498	0.86609	-0.085
Mof_C 	C 	0.6244	0.645	0.83587	0.164
Mof_C 	C 	0.6575	0.5699	0.83596	-0.278
Mof_H 	H 	0.6633	0.5167	0.8549	0.12
Mof_C 	C 	0.6824	0.5708	0.80903	0.241
Mof_H 	H 	0.7044	0.5174	0.8093	-0.1
Mof_C 	C 	0.67488	0.6498	0.78174	-0.404
Mof_C 	C 	0.64103	0.7231	0.78081	0.206
Mof_H 	H 	0.6346	0.7745	0.7614	-0.194
Mof_C 	C 	0.6165	0.7218	0.80796	-0.281
Mof_H 	H 	0.5941	0.7742	0.8074	0.081
Mof_C 	C 	0.70347	0.6572	0.75386	0.601
Mof_O 	O 	0.69318	0.7229	0.7277	-0.755
Mof_O 	O 	0.73606	0.5987	0.75755	-0.824
Mof_K 	K 	0.29583	0.94892	0.76589	3.417
Mof_Bi	Bi	0.24682	0.68419	0.80493	0.687
Mof_C 	C 	0.0054	0.1556	0.54282	-0.043
Mof_C 	C 	0.9658	0.189	0.54341	-0.043
Mof_C 	C 	0.0972	0.0695	0.61265	0.015
Mof_H 	H 	0.1248	0.0973	0.6212	0.029
Mof_C 	C 	0.0716	0.125	0.58532	-0.114
Mof_H 	H 	0.0822	0.19	0.5752	0.067
Mof_C 	C 	0.03093	0.0889	0.5722	0.07
Mof_C 	C 	0.01765	0.9921	0.58723	-0.122
Mof_H 	H 	0.9901	0.9642	0.5786	0.071
Mof_C 	C 	0.04265	0.9348	0.61405	0.022
Mof_H 	H 	0.0324	0.868	0.6234	0.012
Mof_C 	C 	0.08298	0.9733	0.62775	-0.092
Mof_C 	C 	0.11016	0.9157	0.65757	0.164
Mof_C 	C 	0.1049	0.8002	0.66524	-0.285
Mof_H 	H 	0.0837	0.7575	0.6506	0.102
Mof_C 	C 	0.13007	0.7502	0.69343	0.24
Mof_H 	H 	0.1259	0.6729	0.6982	-0.156
Mof_C 	C 	0.16146	0.809	0.71531	-0.389
Mof_C 	C 	0.1675	0.9218	0.70805	0.233
Mof_H 	H 	0.1892	0.9628	0.7227	-0.131
Mof_C 	C 	0.1424	0.9746	0.6799	-0.289
Mof_H 	H 	0.1468	0.0519	0.6755	0.117
Mof_C 	C 	0.18801	0.7545	0.74639	0.555
Mof_O 	O 	0.21919	0.8102	0.76345	-0.639
Mof_O 	O 	0.1797	0.6571	0.75607	-0.743
Mof_C 	C 	0.0607	0.3185	0.47659	-0.029
Mof_H 	H 	0.0646	0.3942	0.4698	0.035
Mof_C 	C 	0.03549	0.2953	0.5023	-0.083
Mof_H 	H 	0.0221	0.3553	0.5127	0.057
Mof_C 	C 	0.02945	0.1863	0.51312	0.044
Mof_C 	C 	0.04977	0.1004	0.49723	-0.082
Mof_H 	H 	0.0467	0.0248	0.5045	0.059
Mof_C 	C 	0.07409	0.1234	0.47141	-0.027
Mof_H 	H 	0.087	0.0634	0.4607	0.038
Mof_C 	C 	0.08018	0.2329	0.46069	-0.022
Mof_C 	C 	0.10841	0.2557	0.43364	0.06
Mof_C 	C 	0.1404	0.3349	0.44055	-0.116
Mof_H 	H 	0.1429	0.3796	0.4617	0.065
Mof_C 	C 	0.1687	0.3492	0.41663	0.031
Mof_H 	H 	0.1911	0.4019	0.4217	0.023
Mof_C 	C 	0.16425	0.2864	0.38536	-0.116
Mof_C 	C 	0.1319	0.2112	0.37783	0.033
Mof_H 	H 	0.1284	0.1699	0.356	0.021
Mof_C 	C 	0.104	0.195	0.40194	-0.121
Mof_H 	H 	0.0818	0.1418	0.3967	0.066
Mof_C 	C 	0.19598	0.3004	0.36018	0.304
Mof_O 	O 	0.18944	0.2516	0.33032	-0.329
Mof_O 	O 	0.22821	0.3591	0.36965	-0.323
Mof_C 	C 	0.8927	0.4048	0.49357	-0.005
Mof_H 	H 	0.8761	0.4657	0.4997	0.025
Mof_C 	C 	0.9157	0.3421	0.52025	-0.099
Mof_H 	H 	0.9149	0.3605	0.5446	0.06
Mof_C 	C 	0.94031	0.2522	0.51238	0.055
Mof_C 	C 	0.93914	0.2245	0.47668	-0.098
Mof_H 	H 	0.9546	0.1613	0.4706	0.066
Mof_C 	C 	0.9158	0.2873	0.44963	-0.004
Mof_H 	H 	0.9153	0.2663	0.4253	0.023
Mof_C 	C 	0.8932	0.3802	0.45761	-0.054
Mof_C 	C 	0.87013	0.4567	0.42937	0.113
Mof_C 	C 	0.8699	0.5713	0.43579	-0.189
Mof_H 	H 	0.8844	0.6	0.4579	0.091
Mof_C 	C 	0.8491	0.6444	0.41064	0.114
Mof_H 	H 	0.8499	0.7229	0.4153	-0.003
Mof_C 	C 	0.82704	0.6037	0.37828	-0.245
Mof_C 	C 	0.8271	0.4894	0.37189	0.142
Mof_H 	H 	0.8123	0.4608	0.3499	-0.159
Mof_C 	C 	0.8486	0.4155	0.39707	-0.213
Mof_H 	H 	0.8484	0.3372	0.3922	0.077
Mof_C 	C 	0.80424	0.6866	0.35284	0.36
Mof_O 	O 	0.77451	0.6497	0.32851	-0.604
Mof_O 	O 	0.81351	0.7883	0.35521	-0.34
Mof_C 	C 	0.94192	0.1826	0.63902	0.008
Mof_H 	H 	0.9562	0.1969	0.6627	0.01
Mof_C 	C 	0.96362	0.1947	0.61007	-0.109
Mof_H 	H 	0.9921	0.22	0.6142	0.059
Mof_C 	C 	0.94429	0.1704	0.57532	0.061
Mof_C 	C 	0.90225	0.1391	0.57	-0.109
Mof_H 	H 	0.8882	0.1248	0.5463	0.066
Mof_C 	C 	0.88	0.128	0.59885	0.008
Mof_H 	H 	0.8512	0.1053	0.5945	0.02
Mof_C 	C 	0.8997	0.1498	0.63391	-0.083
Mof_C 	C 	0.8756	0.145	0.66413	0.164
Mof_C 	C 	0.8425	0.0699	0.66404	-0.276
Mof_H 	H 	0.8367	0.0167	0.6451	0.121
Mof_C 	C 	0.8176	0.0708	0.69097	0.24
Mof_H 	H 	0.7956	0.0174	0.6907	-0.097
Mof_C 	C 	0.82512	0.1498	0.71826	-0.402
Mof_C 	C 	0.85897	0.2231	0.71919	0.206
Mof_H 	H 	0.8654	0.2745	0.7386	-0.194
Mof_C 	C 	0.8835	0.2218	0.69204	-0.28
Mof_H 	H 	0.9059	0.2742	0.6926	0.081
Mof_C 	C 	0.79653	0.1572	0.74614	0.6
Mof_O 	O 	0.80682	0.2229	0.7723	-0.757
Mof_O 	O 	0.76394	0.0987	0.74245	-0.818
Mof_K 	K 	0.20417	0.44892	0.73411	3.446
Mof_Bi	Bi	0.74682	0.18419	0.80493	0.692
Mof_C 	C 	0.5054	0.6556	0.54282	-0.037
Mof_C 	C 	0.4658	0.689	0.54341	-0.047
Mof_C 	C 	0.5972	0.5695	0.61265	-0.007
Mof_H 	H 	0.6248	0.5973	0.6212	0.035
Mof_C 	C 	0.5716	0.625	0.58532	-0.099
Mof_H 	H 	0.5822	0.69	0.5752	0.061
Mof_C 	C 	0.53093	0.5889	0.5722	0.055
Mof_C 	C 	0.51765	0.4921	0.58723	-0.104
Mof_H 	H 	0.4901	0.4642	0.5786	0.066
Mof_C 	C 	0.54265	0.4348	0.61405	0.006
Mof_H 	H 	0.5324	0.368	0.6234	0.018
Mof_C 	C 	0.58298	0.4733	0.62775	-0.071
Mof_C 	C 	0.61016	0.4157	0.65757	0.148
Mof_C 	C 	0.6049	0.3002	0.66524	-0.272
Mof_H 	H 	0.5837	0.2575	0.6506	0.099
Mof_C 	C 	0.63007	0.2502	0.69343	0.229
Mof_H 	H 	0.6259	0.1729	0.6982	-0.15
Mof_C 	C 	0.66146	0.309	0.71531	-0.378
Mof_C 	C 	0.6675	0.4218	0.70805	0.217
Mof_H 	H 	0.6892	0.4628	0.7227	-0.124
Mof_C 	C 	0.6424	0.4746	0.6799	-0.263
Mof_H 	H 	0.6468	0.5519	0.6755	0.104
Mof_C 	C 	0.68801	0.2545	0.74639	0.551
Mof_O 	O 	0.71919	0.3102	0.76345	-0.639
Mof_O 	O 	0.6797	0.1571	0.75607	-0.737
Mof_C 	C 	0.5607	0.8185	0.47659	-0.032
Mof_H 	H 	0.5646	0.8942	0.4698	0.036
Mof_C 	C 	0.53549	0.7953	0.5023	-0.081
Mof_H 	H 	0.5221	0.8553	0.5127	0.056
Mof_C 	C 	0.52945	0.6863	0.51312	0.041
Mof_C 	C 	0.54977	0.6004	0.49723	-0.079
Mof_H 	H 	0.5467	0.5248	0.5045	0.058
Mof_C 	C 	0.57409	0.6234	0.47141	-0.03
Mof_H 	H 	0.587	0.5634	0.4607	0.04
Mof_C 	C 	0.58018	0.7329	0.46069	-0.02
Mof_C 	C 	0.60841	0.7557	0.43364	0.059
Mof_C 	C 	0.6404	0.8349	0.44055	-0.114
Mof_H 	H 	0.6429	0.8796	0.4617	0.065
Mof_C 	C 	0.6687	0.8492	0.41663	0.03
Mof_H 	H 	0.6911	0.9019	0.4217	0.024
Mof_C 	C 	0.66425	0.7864	0.38536	-0.114
Mof_C 	C 	0.6319	0.7112	0.37783	0.032
Mof_H 	H 	0.6284	0.6699	0.356	0.022
Mof_C 	C 	0.604	0.695	0.40194	-0.119
Mof_H 	H 	0.5818	0.6418	0.3967	0.067
Mof_C 	C 	0.69598	0.8004	0.36018	0.304
Mof_O 	O 	0.68944	0.7516	0.33032	-0.327
Mof_O 	O 	0.72821	0.8591	0.36965	-0.322
Mof_C 	C 	0.3927	0.9048	0.49357	-0
Mof_H 	H 	0.3761	0.9657	0.4997	0.024
Mof_C 	C 	0.4157	0.8421	0.52025	-0.103
Mof_H 	H 	0.4149	0.8605	0.5446	0.061
Mof_C 	C 	0.44031	0.7522	0.51238	0.059
Mof_C 	C 	0.43914	0.7245	0.47668	-0.101
Mof_H 	H 	0.4546	0.6613	0.4706	0.067
Mof_C 	C 	0.4158	0.7873	0.44963	0.001
Mof_H 	H 	0.4153	0.7663	0.4253	0.022
Mof_C 	C 	0.3932	0.8802	0.45761	-0.059
Mof_C 	C 	0.37013	0.9567	0.42937	0.126
Mof_C 	C 	0.3699	0.0713	0.43579	-0.203
Mof_H 	H 	0.3844	0.1	0.4579	0.096
Mof_C 	C 	0.3491	0.1444	0.41064	0.125
Mof_H 	H 	0.3499	0.2229	0.4153	-0.007
Mof_C 	C 	0.32704	0.1037	0.37828	-0.259
Mof_C 	C 	0.3271	0.9894	0.37189	0.158
Mof_H 	H 	0.3123	0.9608	0.3499	-0.162
Mof_C 	C 	0.3486	0.9155	0.39707	-0.224
Mof_H 	H 	0.3484	0.8372	0.3922	0.082
Mof_C 	C 	0.30424	0.1866	0.35284	0.364
Mof_O 	O 	0.27451	0.1497	0.32851	-0.604
Mof_O 	O 	0.31351	0.2883	0.35521	-0.342
Mof_C 	C 	0.44192	0.6826	0.63902	0.008
Mof_H 	H 	0.4562	0.6969	0.6627	0.009
Mof_C 	C 	0.46362	0.6947	0.61007	-0.111
Mof_H 	H 	0.4921	0.72	0.6142	0.059
Mof_C 	C 	0.44429	0.6704	0.57532	0.063
Mof_C 	C 	0.40225	0.6391	0.57	-0.111
Mof_H 	H 	0.3882	0.6248	0.5463	0.067
Mof_C 	C 	0.38	0.628	0.59885	0.008
Mof_H 	H 	0.3512	0.6053	0.5945	0.019
Mof_C 	C 	0.3997	0.6498	0.63391	-0.085
Mof_C 	C 	0.3756	0.645	0.66413	0.164
Mof_C 	C 	0.3425	0.5699	0.66404	-0.278
Mof_H 	H 	0.3367	0.5167	0.6451	0.12
Mof_C 	C 	0.3176	0.5708	0.69097	0.241
Mof_H 	H 	0.2956	0.5174	0.6907	-0.1
Mof_C 	C 	0.32512	0.6498	0.71826	-0.404
Mof_C 	C 	0.35897	0.7231	0.71919	0.206
Mof_H 	H 	0.3654	0.7745	0.7386	-0.194
Mof_C 	C 	0.3835	0.7218	0.69204	-0.281
Mof_H 	H 	0.4059	0.7742	0.6926	0.081
Mof_C 	C 	0.29653	0.6572	0.74614	0.601
Mof_O 	O 	0.30682	0.7229	0.7723	-0.755
Mof_O 	O 	0.26394	0.5987	0.74245	-0.824
Mof_K 	K 	0.70417	0.94892	0.73411	3.417
_end
