data_functionalizedCrystal
_audit_creation_method	'EQeq! by Chris Wilmer'
_symmetry_space_group_name_H-M	'P1'
_symmetry_Int_Tables_number	1
_symmetry_cell_setting	triclinic
loop_
_symmetry_equiv_pos_as_xyz
  x,y,z
_cell_length_a	8.8764
_cell_length_b	9.1908
_cell_length_c	15.82
_cell_angle_alpha	90
_cell_angle_beta	90
_cell_angle_gamma	90
loop_
_atom_site_label
_atom_site_type_symbol
_atom_site_fract_x
_atom_site_fract_y
_atom_site_fract_z
_atom_site_charge
Mof_Eu	Eu	-3.3669e-32	0.72847	0.81552	1.484
Mof_Eu	Eu	-3.65706e-33	0.27153	0.18448	1.484
Mof_Eu	Eu	0.5	0.77153	0.31552	1.744
Mof_Eu	Eu	0.5	0.22847	0.68448	1.744
Mof_H 	H 	0.6483	0.3891	0.9373	0.073
Mof_H 	H 	0.6483	0.6109	0.0627	0.073
Mof_H 	H 	0.8517	0.1109	0.4373	0.082
Mof_H 	H 	0.8517	0.8891	0.5627	0.082
Mof_H 	H 	0.3517	0.6109	0.0627	0.065
Mof_H 	H 	0.3517	0.3891	0.9373	0.065
Mof_H 	H 	0.1483	0.8891	0.5627	0.053
Mof_H 	H 	0.1483	0.1109	0.4373	0.053
Mof_H 	H 	0.5	0.6643	0.9219	0.067
Mof_H 	H 	0.5	0.3357	0.0781	0.067
Mof_H 	H 	-6.96036e-33	0.8357	0.4219	0.061
Mof_H 	H 	-5.91657e-33	0.1643	0.5781	0.061
Mof_C 	C 	0.7783	0.5689	0.9116	0.304
Mof_C 	C 	0.6441	0.4927	0.9518	-0.078
Mof_C 	C 	0.7783	0.4311	0.0884	0.304
Mof_C 	C 	0.6441	0.5073	0.0482	-0.078
Mof_C 	C 	0.7217	0.9311	0.4116	0.305
Mof_C 	C 	0.8559	0.0073	0.4518	0.008
Mof_C 	C 	0.7217	0.0689	0.5884	0.305
Mof_C 	C 	0.8559	0.9927	0.5482	0.008
Mof_C 	C 	0.2217	0.4311	0.0884	0.31
Mof_C 	C 	0.3559	0.5073	0.0482	-0.086
Mof_C 	C 	0.2217	0.5689	0.9116	0.31
Mof_C 	C 	0.3559	0.4927	0.9518	-0.086
Mof_C 	C 	0.2783	0.0689	0.5884	0.309
Mof_C 	C 	0.1441	0.9927	0.5482	-0.069
Mof_C 	C 	0.2783	0.9311	0.4116	0.309
Mof_C 	C 	0.1441	0.0073	0.4518	-0.069
Mof_C 	C 	0.5	0.5588	0.9128	-0.136
Mof_C 	C 	0.5	0.5286	0.8206	0.376
Mof_C 	C 	0.5	0.4412	0.0872	-0.136
Mof_C 	C 	0.5	0.4714	0.1794	0.376
Mof_C 	C 	-7.02117e-33	0.9412	0.4128	-0.244
Mof_C 	C 	-7.63729e-33	0.9714	0.3206	0.378
Mof_C 	C 	-5.85577e-33	0.0588	0.5872	-0.244
Mof_C 	C 	-2.4799e-32	0.0286	0.6794	0.378
Mof_O 	O 	0.8345	0.6834	0.9433	-0.343
Mof_O 	O 	0.828	0.5219	0.8412	-0.359
Mof_O 	O 	0.8345	0.3166	0.0567	-0.343
Mof_O 	O 	0.828	0.4781	0.1588	-0.359
Mof_O 	O 	0.6655	0.8166	0.4433	-0.403
Mof_O 	O 	0.672	0.9781	0.3412	-0.409
Mof_O 	O 	0.6655	0.1834	0.5567	-0.403
Mof_O 	O 	0.672	0.0219	0.6588	-0.409
Mof_O 	O 	0.1655	0.3166	0.0567	-0.428
Mof_O 	O 	0.172	0.4781	0.1588	-0.443
Mof_O 	O 	0.1655	0.6834	0.9433	-0.428
Mof_O 	O 	0.172	0.5219	0.8412	-0.443
Mof_O 	O 	0.3345	0.1834	0.5567	-0.427
Mof_O 	O 	0.328	0.0219	0.6588	-0.439
Mof_O 	O 	0.3345	0.8166	0.4433	-0.427
Mof_O 	O 	0.328	0.9781	0.3412	-0.439
Mof_O 	O 	0.5	0.3943	0.7978	-0.517
Mof_O 	O 	0.5	0.6328	0.7671	-0.327
Mof_O 	O 	0.5	0.6057	0.2022	-0.517
Mof_O 	O 	0.5	0.3672	0.2329	-0.327
Mof_O 	O 	-7.78965e-33	0.1057	0.2978	-0.531
Mof_O 	O 	1.78486e-33	0.8672	0.2671	-0.38
Mof_O 	O 	-5.08729e-33	0.8943	0.7022	-0.531
Mof_O 	O 	-2.44415e-32	0.1328	0.7329	-0.38
_end
