data_functionalizedCrystal
_audit_creation_method	'EQeq! by Chris Wilmer'
_symmetry_space_group_name_H-M	'P1'
_symmetry_Int_Tables_number	1
_symmetry_cell_setting	triclinic
loop_
_symmetry_equiv_pos_as_xyz
  x,y,z
_cell_length_a	27.8885
_cell_length_b	11.4437
_cell_length_c	17.7204
_cell_angle_alpha	90
_cell_angle_beta	90
_cell_angle_gamma	90
loop_
_atom_site_label
_atom_site_type_symbol
_atom_site_fract_x
_atom_site_fract_y
_atom_site_fract_z
_atom_site_charge
Mof_Eu	Eu	0.06808	0.1838	0.22246	2.562
Mof_O 	O 	0.12485	0.302	0.1497	-0.476
Mof_O 	O 	0.13729	0.3041	0.2721	-0.43
Mof_O 	O 	0.35122	0.5346	0.0853	-0.345
Mof_O 	O 	0.36188	0.5617	0.2076	-0.534
Mof_O 	O 	0.1946	0.339	0.0585	-0.169
Mof_H 	H 	0.1683	0.3137	0.0712	0.126
Mof_O 	O 	0.2896	0.535	0.3008	-0.104
Mof_H 	H 	0.3184	0.5446	0.2937	0.153
Mof_O 	O 	0.08154	0.1167	0.3568	-0.466
Mof_O 	O 	0.01064	0.1868	0.32865	-0.722
Mof_O 	O 	0.93496	0.1151	0.4085	-0.721
Mof_H 	H 	0.9086	0.0842	0.4133	0.354
Mof_O 	O 	0.03799	0.9859	0.23	-0.571
Mof_O 	O 	0.03803	0.379	0.2306	-0.57
Mof_O 	O 	0.0801	0.7926	0.1939	0.974
Mof_H 	H 	0.0784	0.8639	0.1974	-0.126
Mof_C 	C 	0.1503	0.3293	0.2063	0.325
Mof_C 	C 	0.1979	0.3855	0.1923	-0.099
Mof_C 	C 	0.2164	0.3927	0.12	0.175
Mof_C 	C 	0.2615	0.4391	0.108	-0.067
Mof_H 	H 	0.2737	0.443	0.0592	0.09
Mof_C 	C 	0.2887	0.4798	0.1679	-0.173
Mof_C 	C 	0.2699	0.4734	0.2401	0.243
Mof_C 	C 	0.2251	0.4263	0.252	-0.131
Mof_H 	H 	0.2129	0.4219	0.3008	0.111
Mof_C 	C 	0.3375	0.528	0.1515	0.428
Mof_C 	C 	0.03764	0.1251	0.3718	0.442
Mof_C 	C 	0.01653	0.0635	0.4376	-0.198
Mof_C 	C 	0.96757	0.0583	0.4529	0.353
Mof_C 	C 	0.95228	0.9959	0.5145	-0.185
Mof_H 	H 	0.9196	0.9931	0.5247	0.119
Mof_C 	C 	0.0386	0.7431	0.2215	0.444
Mof_C 	C 	0.0392	0.6216	0.2219	0.275
Mof_H 	H 	0.0664	0.5794	0.2028	-0.856
Mof_O 	O 	0.1878	0.378	0.0564	-0.172
Mof_H 	H 	0.1618	0.3511	0.0689	0.107
Mof_O 	O 	0.3002	0.483	0.3029	-0.302
Mof_H 	H 	0.3266	0.5059	0.2893	0.113
Mof_O 	O 	0.0791	0.5696	0.1927	0.874
Mof_H 	H 	0.0767	0.4984	0.1967	-0.112
Mof_H 	H 	0.0655	0.7852	0.2014	-0.978
Mof_Eu	Eu	0.43192	0.3162	0.72246	2.576
Mof_O 	O 	0.37515	0.198	0.6497	-0.478
Mof_O 	O 	0.36271	0.1959	0.7721	-0.432
Mof_O 	O 	0.14878	0.9654	0.5853	-0.345
Mof_O 	O 	0.13812	0.9383	0.7076	-0.533
Mof_O 	O 	0.3054	0.161	0.5585	-0.169
Mof_H 	H 	0.3317	0.1863	0.5712	0.127
Mof_O 	O 	0.2104	0.965	0.8008	-0.096
Mof_H 	H 	0.1816	0.9554	0.7937	0.141
Mof_O 	O 	0.41846	0.3833	0.8568	-0.465
Mof_O 	O 	0.48936	0.3132	0.82865	-0.714
Mof_O 	O 	0.56504	0.3849	0.9085	-0.715
Mof_H 	H 	0.5914	0.4158	0.9133	0.352
Mof_O 	O 	0.46201	0.5141	0.73	-0.575
Mof_O 	O 	0.46197	0.121	0.7306	-0.572
Mof_O 	O 	0.4199	0.7074	0.6939	0.975
Mof_H 	H 	0.4216	0.6361	0.6974	-0.127
Mof_C 	C 	0.3497	0.1707	0.7063	0.326
Mof_C 	C 	0.3021	0.1145	0.6923	-0.099
Mof_C 	C 	0.2836	0.1073	0.62	0.175
Mof_C 	C 	0.2385	0.0609	0.608	-0.068
Mof_H 	H 	0.2263	0.057	0.5592	0.091
Mof_C 	C 	0.2113	0.0202	0.6679	-0.171
Mof_C 	C 	0.2301	0.0266	0.7401	0.242
Mof_C 	C 	0.2749	0.0737	0.752	-0.13
Mof_H 	H 	0.2871	0.0781	0.8008	0.111
Mof_C 	C 	0.1625	0.972	0.6515	0.426
Mof_C 	C 	0.46236	0.3749	0.8718	0.433
Mof_C 	C 	0.48347	0.4365	0.9376	-0.171
Mof_C 	C 	0.53243	0.4417	0.9529	0.326
Mof_C 	C 	0.54772	0.5041	0.0145	-0.165
Mof_H 	H 	0.5804	0.5069	0.0247	0.111
Mof_C 	C 	0.4614	0.7569	0.7215	0.443
Mof_C 	C 	0.4608	0.8784	0.7219	0.276
Mof_H 	H 	0.4336	0.9206	0.7028	-0.857
Mof_O 	O 	0.3122	0.122	0.5564	-0.172
Mof_H 	H 	0.3382	0.1489	0.5689	0.107
Mof_O 	O 	0.1998	0.017	0.8029	-0.309
Mof_H 	H 	0.1734	0.9941	0.7893	0.124
Mof_O 	O 	0.4209	0.9304	0.6927	0.874
Mof_H 	H 	0.4233	0.0016	0.6967	-0.111
Mof_H 	H 	0.4345	0.7148	0.7014	-0.978
Mof_Eu	Eu	0.93192	0.1838	0.27754	2.585
Mof_O 	O 	0.87515	0.302	0.3503	-0.478
Mof_O 	O 	0.86271	0.3041	0.2279	-0.432
Mof_O 	O 	0.64878	0.5346	0.4147	-0.345
Mof_O 	O 	0.63812	0.5617	0.2924	-0.534
Mof_O 	O 	0.8054	0.339	0.4415	-0.169
Mof_H 	H 	0.8317	0.3137	0.4288	0.126
Mof_O 	O 	0.7104	0.535	0.1992	-0.105
Mof_H 	H 	0.6816	0.5446	0.2063	0.154
Mof_O 	O 	0.91846	0.1167	0.1432	-0.463
Mof_O 	O 	0.98936	0.1868	0.17135	-0.705
Mof_O 	O 	0.06504	0.1151	0.0915	-0.71
Mof_H 	H 	0.0914	0.0842	0.0867	0.351
Mof_O 	O 	0.96201	0.9859	0.27	-0.564
Mof_O 	O 	0.96197	0.379	0.2694	-0.562
Mof_O 	O 	0.9199	0.7926	0.3061	0.967
Mof_H 	H 	0.9216	0.8639	0.3026	-0.123
Mof_C 	C 	0.8497	0.3293	0.2937	0.325
Mof_C 	C 	0.8021	0.3855	0.3077	-0.098
Mof_C 	C 	0.7836	0.3927	0.38	0.175
Mof_C 	C 	0.7385	0.4391	0.392	-0.067
Mof_H 	H 	0.7263	0.443	0.4408	0.09
Mof_C 	C 	0.7113	0.4798	0.3321	-0.173
Mof_C 	C 	0.7301	0.4734	0.2599	0.243
Mof_C 	C 	0.7749	0.4263	0.248	-0.131
Mof_H 	H 	0.7871	0.4219	0.1992	0.112
Mof_C 	C 	0.6625	0.528	0.3485	0.428
Mof_C 	C 	0.96236	0.1251	0.1282	0.426
Mof_C 	C 	0.98347	0.0635	0.0624	-0.147
Mof_C 	C 	0.03243	0.0583	0.0471	0.303
Mof_C 	C 	0.04772	0.9959	0.9855	-0.148
Mof_H 	H 	0.0804	0.9931	0.9753	0.105
Mof_C 	C 	0.9614	0.7431	0.2785	0.452
Mof_C 	C 	0.9608	0.6216	0.2781	0.284
Mof_H 	H 	0.9336	0.5794	0.2972	-0.852
Mof_O 	O 	0.8122	0.378	0.4436	-0.172
Mof_H 	H 	0.8382	0.3511	0.4311	0.108
Mof_O 	O 	0.6998	0.483	0.1971	-0.302
Mof_H 	H 	0.6734	0.5059	0.2107	0.113
Mof_O 	O 	0.9209	0.5696	0.3073	0.868
Mof_H 	H 	0.9233	0.4984	0.3033	-0.108
Mof_H 	H 	0.9345	0.7852	0.2986	-0.974
Mof_Eu	Eu	0.56808	0.3162	0.77754	2.576
Mof_O 	O 	0.62485	0.198	0.8503	-0.478
Mof_O 	O 	0.63729	0.1959	0.7279	-0.432
Mof_O 	O 	0.85122	0.9654	0.9147	-0.346
Mof_O 	O 	0.86188	0.9383	0.7924	-0.535
Mof_O 	O 	0.6946	0.161	0.9415	-0.169
Mof_H 	H 	0.6683	0.1863	0.9288	0.126
Mof_O 	O 	0.7896	0.965	0.6992	-0.099
Mof_H 	H 	0.8184	0.9554	0.7063	0.145
Mof_O 	O 	0.58154	0.3833	0.6432	-0.465
Mof_O 	O 	0.51064	0.3132	0.67135	-0.714
Mof_O 	O 	0.43496	0.3849	0.5915	-0.716
Mof_H 	H 	0.4086	0.4158	0.5867	0.353
Mof_O 	O 	0.53799	0.5141	0.77	-0.575
Mof_O 	O 	0.53803	0.121	0.7694	-0.572
Mof_O 	O 	0.5801	0.7074	0.8061	0.975
Mof_H 	H 	0.5784	0.6361	0.8026	-0.127
Mof_C 	C 	0.6503	0.1707	0.7937	0.326
Mof_C 	C 	0.6979	0.1145	0.8077	-0.099
Mof_C 	C 	0.7164	0.1073	0.88	0.176
Mof_C 	C 	0.7615	0.0609	0.892	-0.068
Mof_H 	H 	0.7737	0.057	0.9408	0.091
Mof_C 	C 	0.7887	0.0202	0.8321	-0.17
Mof_C 	C 	0.7699	0.0266	0.7599	0.242
Mof_C 	C 	0.7251	0.0737	0.748	-0.13
Mof_H 	H 	0.7129	0.0781	0.6992	0.111
Mof_C 	C 	0.8375	0.972	0.8485	0.426
Mof_C 	C 	0.53764	0.3749	0.6282	0.434
Mof_C 	C 	0.51653	0.4365	0.5624	-0.172
Mof_C 	C 	0.46757	0.4417	0.5471	0.328
Mof_C 	C 	0.45228	0.5041	0.4855	-0.166
Mof_H 	H 	0.4196	0.5069	0.4753	0.112
Mof_C 	C 	0.5386	0.7569	0.7785	0.442
Mof_C 	C 	0.5392	0.8784	0.7781	0.276
Mof_H 	H 	0.5664	0.9206	0.7972	-0.858
Mof_O 	O 	0.6878	0.122	0.9436	-0.172
Mof_H 	H 	0.6618	0.1489	0.9311	0.107
Mof_O 	O 	0.8002	0.017	0.6971	-0.306
Mof_H 	H 	0.8266	0.9941	0.7107	0.12
Mof_O 	O 	0.5791	0.9304	0.8073	0.875
Mof_H 	H 	0.5767	0.0016	0.8033	-0.111
Mof_H 	H 	0.5655	0.7148	0.7986	-0.978
Mof_Eu	Eu	0.93192	0.8162	0.77754	2.584
Mof_O 	O 	0.87515	0.698	0.8503	-0.478
Mof_O 	O 	0.86271	0.6959	0.7279	-0.432
Mof_O 	O 	0.64878	0.4654	0.9147	-0.346
Mof_O 	O 	0.63812	0.4383	0.7924	-0.534
Mof_O 	O 	0.8054	0.661	0.9415	-0.169
Mof_H 	H 	0.8317	0.6863	0.9288	0.126
Mof_O 	O 	0.7104	0.465	0.6992	-0.105
Mof_H 	H 	0.6816	0.4554	0.7063	0.154
Mof_O 	O 	0.91846	0.8833	0.6432	-0.463
Mof_O 	O 	0.98936	0.8132	0.67135	-0.705
Mof_O 	O 	0.06504	0.8849	0.5915	-0.71
Mof_H 	H 	0.0914	0.9158	0.5867	0.351
Mof_O 	O 	0.96201	0.0141	0.77	-0.565
Mof_O 	O 	0.96197	0.621	0.7694	-0.563
Mof_O 	O 	0.9199	0.2074	0.8061	0.968
Mof_H 	H 	0.9216	0.1361	0.8026	-0.124
Mof_C 	C 	0.8497	0.6707	0.7937	0.325
Mof_C 	C 	0.8021	0.6145	0.8077	-0.098
Mof_C 	C 	0.7836	0.6073	0.88	0.175
Mof_C 	C 	0.7385	0.5609	0.892	-0.067
Mof_H 	H 	0.7263	0.557	0.9408	0.09
Mof_C 	C 	0.7113	0.5202	0.8321	-0.173
Mof_C 	C 	0.7301	0.5266	0.7599	0.243
Mof_C 	C 	0.7749	0.5737	0.748	-0.131
Mof_H 	H 	0.7871	0.5781	0.6992	0.112
Mof_C 	C 	0.6625	0.472	0.8485	0.428
Mof_C 	C 	0.96236	0.8749	0.6282	0.426
Mof_C 	C 	0.98347	0.9365	0.5624	-0.147
Mof_C 	C 	0.03243	0.9417	0.5471	0.303
Mof_C 	C 	0.04772	0.0041	0.4855	-0.147
Mof_H 	H 	0.0804	0.0069	0.4753	0.105
Mof_C 	C 	0.9614	0.2569	0.7785	0.452
Mof_C 	C 	0.9608	0.3784	0.7781	0.283
Mof_H 	H 	0.9336	0.4206	0.7972	-0.852
Mof_O 	O 	0.8122	0.622	0.9436	-0.172
Mof_H 	H 	0.8382	0.6489	0.9311	0.108
Mof_O 	O 	0.6998	0.517	0.6971	-0.302
Mof_H 	H 	0.6734	0.4941	0.7107	0.113
Mof_O 	O 	0.9209	0.4304	0.8073	0.868
Mof_H 	H 	0.9233	0.5016	0.8033	-0.109
Mof_H 	H 	0.9345	0.2148	0.7986	-0.974
Mof_Eu	Eu	0.56808	0.6838	0.27754	2.576
Mof_O 	O 	0.62485	0.802	0.3503	-0.478
Mof_O 	O 	0.63729	0.8041	0.2279	-0.431
Mof_O 	O 	0.85122	0.0346	0.4147	-0.346
Mof_O 	O 	0.86188	0.0617	0.2924	-0.535
Mof_O 	O 	0.6946	0.839	0.4415	-0.169
Mof_H 	H 	0.6683	0.8137	0.4288	0.127
Mof_O 	O 	0.7896	0.035	0.1992	-0.095
Mof_H 	H 	0.8184	0.0446	0.2063	0.139
Mof_O 	O 	0.58154	0.6167	0.1432	-0.465
Mof_O 	O 	0.51064	0.6868	0.17135	-0.714
Mof_O 	O 	0.43496	0.6151	0.0915	-0.716
Mof_H 	H 	0.4086	0.5842	0.0867	0.353
Mof_O 	O 	0.53799	0.4859	0.27	-0.575
Mof_O 	O 	0.53803	0.879	0.2694	-0.572
Mof_O 	O 	0.5801	0.2926	0.3061	0.975
Mof_H 	H 	0.5784	0.3639	0.3026	-0.127
Mof_C 	C 	0.6503	0.8293	0.2937	0.326
Mof_C 	C 	0.6979	0.8855	0.3077	-0.099
Mof_C 	C 	0.7164	0.8927	0.38	0.175
Mof_C 	C 	0.7615	0.9391	0.392	-0.067
Mof_H 	H 	0.7737	0.943	0.4408	0.091
Mof_C 	C 	0.7887	0.9798	0.3321	-0.171
Mof_C 	C 	0.7699	0.9734	0.2599	0.243
Mof_C 	C 	0.7251	0.9263	0.248	-0.13
Mof_H 	H 	0.7129	0.9219	0.1992	0.112
Mof_C 	C 	0.8375	0.028	0.3485	0.427
Mof_C 	C 	0.53764	0.6251	0.1282	0.434
Mof_C 	C 	0.51653	0.5635	0.0624	-0.173
Mof_C 	C 	0.46757	0.5583	0.0471	0.33
Mof_C 	C 	0.45228	0.4959	0.9855	-0.169
Mof_H 	H 	0.4196	0.4931	0.9753	0.112
Mof_C 	C 	0.5386	0.2431	0.2785	0.442
Mof_C 	C 	0.5392	0.1216	0.2781	0.276
Mof_H 	H 	0.5664	0.0794	0.2972	-0.857
Mof_O 	O 	0.6878	0.878	0.4436	-0.172
Mof_H 	H 	0.6618	0.8511	0.4311	0.107
Mof_O 	O 	0.8002	0.983	0.1971	-0.309
Mof_H 	H 	0.8266	0.0059	0.2107	0.125
Mof_O 	O 	0.5791	0.0696	0.3073	0.874
Mof_H 	H 	0.5767	0.9984	0.3033	-0.111
Mof_H 	H 	0.5655	0.2852	0.2986	-0.978
Mof_Eu	Eu	0.06808	0.8162	0.72246	2.562
Mof_O 	O 	0.12485	0.698	0.6497	-0.477
Mof_O 	O 	0.13729	0.6959	0.7721	-0.431
Mof_O 	O 	0.35122	0.4654	0.5853	-0.345
Mof_O 	O 	0.36188	0.4383	0.7076	-0.534
Mof_O 	O 	0.1946	0.661	0.5585	-0.168
Mof_H 	H 	0.1683	0.6863	0.5712	0.127
Mof_O 	O 	0.2896	0.465	0.8008	-0.105
Mof_H 	H 	0.3184	0.4554	0.7937	0.154
Mof_O 	O 	0.08154	0.8833	0.8568	-0.466
Mof_O 	O 	0.01064	0.8132	0.82865	-0.722
Mof_O 	O 	0.93496	0.8849	0.9085	-0.72
Mof_H 	H 	0.9086	0.9158	0.9133	0.354
Mof_O 	O 	0.03799	0.0141	0.73	-0.572
Mof_O 	O 	0.03803	0.621	0.7306	-0.57
Mof_O 	O 	0.0801	0.2074	0.6939	0.974
Mof_H 	H 	0.0784	0.1361	0.6974	-0.127
Mof_C 	C 	0.1503	0.6707	0.7063	0.325
Mof_C 	C 	0.1979	0.6145	0.6923	-0.099
Mof_C 	C 	0.2164	0.6073	0.62	0.175
Mof_C 	C 	0.2615	0.5609	0.608	-0.067
Mof_H 	H 	0.2737	0.557	0.5592	0.09
Mof_C 	C 	0.2887	0.5202	0.6679	-0.173
Mof_C 	C 	0.2699	0.5266	0.7401	0.243
Mof_C 	C 	0.2251	0.5737	0.752	-0.131
Mof_H 	H 	0.2129	0.5781	0.8008	0.111
Mof_C 	C 	0.3375	0.472	0.6515	0.428
Mof_C 	C 	0.03764	0.8749	0.8718	0.441
Mof_C 	C 	0.01653	0.9365	0.9376	-0.196
Mof_C 	C 	0.96757	0.9417	0.9529	0.35
Mof_C 	C 	0.95228	0.0041	0.0145	-0.184
Mof_H 	H 	0.9196	0.0069	0.0247	0.118
Mof_C 	C 	0.0386	0.2569	0.7215	0.444
Mof_C 	C 	0.0392	0.3784	0.7219	0.275
Mof_H 	H 	0.0664	0.4206	0.7028	-0.856
Mof_O 	O 	0.1878	0.622	0.5564	-0.172
Mof_H 	H 	0.1618	0.6489	0.5689	0.106
Mof_O 	O 	0.3002	0.517	0.8029	-0.302
Mof_H 	H 	0.3266	0.4941	0.7893	0.113
Mof_O 	O 	0.0791	0.4304	0.6927	0.874
Mof_H 	H 	0.0767	0.5016	0.6967	-0.112
Mof_H 	H 	0.0655	0.2148	0.7014	-0.978
Mof_Eu	Eu	0.43192	0.6838	0.22246	2.577
Mof_O 	O 	0.37515	0.802	0.1497	-0.478
Mof_O 	O 	0.36271	0.8041	0.2721	-0.432
Mof_O 	O 	0.14878	0.0346	0.0853	-0.345
Mof_O 	O 	0.13812	0.0617	0.2076	-0.533
Mof_O 	O 	0.3054	0.839	0.0585	-0.169
Mof_H 	H 	0.3317	0.8137	0.0712	0.126
Mof_O 	O 	0.2104	0.035	0.3008	-0.097
Mof_H 	H 	0.1816	0.0446	0.2937	0.144
Mof_O 	O 	0.41846	0.6167	0.3568	-0.465
Mof_O 	O 	0.48936	0.6868	0.32865	-0.714
Mof_O 	O 	0.56504	0.6151	0.4085	-0.716
Mof_H 	H 	0.5914	0.5842	0.4133	0.353
Mof_O 	O 	0.46201	0.4859	0.23	-0.575
Mof_O 	O 	0.46197	0.879	0.2306	-0.572
Mof_O 	O 	0.4199	0.2926	0.1939	0.975
Mof_H 	H 	0.4216	0.3639	0.1974	-0.127
Mof_C 	C 	0.3497	0.8293	0.2063	0.326
Mof_C 	C 	0.3021	0.8855	0.1923	-0.099
Mof_C 	C 	0.2836	0.8927	0.12	0.176
Mof_C 	C 	0.2385	0.9391	0.108	-0.068
Mof_H 	H 	0.2263	0.943	0.0592	0.092
Mof_C 	C 	0.2113	0.9798	0.1679	-0.169
Mof_C 	C 	0.2301	0.9734	0.2401	0.242
Mof_C 	C 	0.2749	0.9263	0.252	-0.13
Mof_H 	H 	0.2871	0.9219	0.3008	0.111
Mof_C 	C 	0.1625	0.028	0.1515	0.424
Mof_C 	C 	0.46236	0.6251	0.3718	0.434
Mof_C 	C 	0.48347	0.5635	0.4376	-0.172
Mof_C 	C 	0.53243	0.5583	0.4529	0.328
Mof_C 	C 	0.54772	0.4959	0.5145	-0.166
Mof_H 	H 	0.5804	0.4931	0.5247	0.112
Mof_C 	C 	0.4614	0.2431	0.2215	0.442
Mof_C 	C 	0.4608	0.1216	0.2219	0.276
Mof_H 	H 	0.4336	0.0794	0.2028	-0.858
Mof_O 	O 	0.3122	0.878	0.0564	-0.172
Mof_H 	H 	0.3382	0.8511	0.0689	0.107
Mof_O 	O 	0.1998	0.983	0.3029	-0.307
Mof_H 	H 	0.1734	0.0059	0.2893	0.121
Mof_O 	O 	0.4209	0.0696	0.1927	0.875
Mof_H 	H 	0.4233	0.9984	0.1967	-0.11
Mof_H 	H 	0.4345	0.2852	0.2014	-0.978
Mof_C 	C 	-5.20306e-34	0.9359	0.25	0.62
Mof_C 	C 	3.94329e-33	0.805	0.25	-0.46
Mof_C 	C 	3.94329e-33	0.5613	0.25	-0.353
Mof_C 	C 	1.71149e-33	0.4305	0.25	0.581
Mof_C 	C 	0.5	0.5641	0.75	0.632
Mof_C 	C 	0.5	0.695	0.75	-0.451
Mof_C 	C 	0.5	0.9387	0.75	-0.346
Mof_C 	C 	0.5	0.0695	0.75	0.595
Mof_C 	C 	1.78678e-33	0.0641	0.75	0.621
Mof_C 	C 	1.78678e-33	0.195	0.75	-0.46
Mof_C 	C 	6.25038e-33	0.4387	0.75	-0.352
Mof_C 	C 	6.25038e-33	0.5695	0.75	0.582
Mof_C 	C 	0.5	0.4359	0.25	0.632
Mof_C 	C 	0.5	0.305	0.25	-0.45
Mof_C 	C 	0.5	0.0613	0.25	-0.347
Mof_C 	C 	0.5	0.9305	0.25	0.596
_end
