data_functionalizedCrystal
_audit_creation_method	'EQeq! by Chris Wilmer'
_symmetry_space_group_name_H-M	'P1'
_symmetry_Int_Tables_number	1
_symmetry_cell_setting	triclinic
loop_
_symmetry_equiv_pos_as_xyz
  x,y,z
_cell_length_a	15.5804
_cell_length_b	25.5721
_cell_length_c	40.857
_cell_angle_alpha	90
_cell_angle_beta	96.397
_cell_angle_gamma	90
loop_
_atom_site_label
_atom_site_type_symbol
_atom_site_fract_x
_atom_site_fract_y
_atom_site_fract_z
_atom_site_charge
Mof_Cu	Cu	0.24577	0.11813	0.17109	0.749
Mof_Cu	Cu	0.56396	0.63594	0.08911	0.746
Mof_Cu	Cu	0.06249	0.09474	0.15668	0.741
Mof_Cu	Cu	0.17542	0.21428	0.13084	0.759
Mof_Cu	Cu	0.25151	0.08821	0.09673	0.766
Mof_Cu	Cu	0.70687	0.98831	0.16948	0.841
Mof_Cu	Cu	0.37683	0.87771	0.99395	0.841
Mof_Cu	Cu	0.6658	0.52851	0.93131	0.826
Mof_N 	N 	0.3958	0.3033	0.23735	-0.237
Mof_N 	N 	0.1703	0.1618	0.19473	-0.268
Mof_N 	N 	0.0857	0.1469	0.18832	-0.273
Mof_N 	N 	0.7603	0.1843	0.1852	-0.133
Mof_N 	N 	0.6047	0.0439	0.16416	-0.227
Mof_N 	N 	0.3315	0.1603	0.14605	-0.258
Mof_N 	N 	0.2946	0.2059	0.13364	-0.269
Mof_N 	N 	0.3255	0.3889	0.0818	-0.257
Mof_N 	N 	0.2649	0.9862	0.28073	-0.238
Mof_N 	N 	0.2597	0.0448	0.15988	-0.262
Mof_N 	N 	0.2745	0.035	0.12803	-0.257
Mof_N 	N 	0.35	0.9131	0.03568	-0.244
Mof_N 	N 	0.6343	0.5249	0.97572	-0.267
Mof_N 	N 	0.5572	0.5604	0.09322	-0.277
Mof_N 	N 	0.5457	0.5434	0.12419	-0.272
Mof_N 	N 	0.5215	0.3985	0.21063	-0.236
Mof_N 	N 	0.217	0.6451	0.04062	-0.257
Mof_N 	N 	0.5039	0.6935	0.10867	-0.263
Mof_N 	N 	0.5582	0.7299	0.12484	-0.262
Mof_N 	N 	0.6344	0.9176	0.15989	-0.232
Mof_N 	N 	0.4563	0.8098	0.00634	-0.223
Mof_N 	N 	0.6541	0.6656	0.06072	-0.251
Mof_N 	N 	0.7276	0.636	0.06235	-0.264
Mof_N 	N 	0.0117	0.5797	0.0203	-0.231
Mof_C 	C 	0.3328	0.2222	0.2171	-0.111
Mof_H 	H 	0.3416	0.1888	0.2091	0.024
Mof_C 	C 	0.4023	0.2552	0.2249	0.056
Mof_H 	H 	0.4569	0.2433	0.2214	-0.009
Mof_C 	C 	0.3161	0.3178	0.2422	0.06
Mof_H 	H 	0.3091	0.3505	0.2515	-0.015
Mof_C 	C 	0.2432	0.2876	0.2345	-0.118
Mof_H 	H 	0.1892	0.3002	0.2383	0.064
Mof_C 	C 	0.2512	0.2386	0.22104	0.012
Mof_C 	C 	0.172	0.2079	0.2112	0.043
Mof_C 	C 	0.0877	0.2226	0.2151	-0.127
Mof_H 	H 	0.0703	0.2523	0.2257	0.067
Mof_C 	C 	0.0351	0.184	0.19994	0.044
Mof_C 	C 	0.941	0.1821	0.195	0.033
Mof_C 	C 	0.8944	0.2281	0.1958	-0.119
Mof_H 	H 	0.9238	0.2594	0.2003	0.069
Mof_C 	C 	0.807	0.2287	0.1903	0.065
Mof_H 	H 	0.7783	0.2606	0.19	0.009
Mof_C 	C 	0.8041	0.1413	0.1836	0.068
Mof_H 	H 	0.774	0.1103	0.179	-0.014
Mof_C 	C 	0.8956	0.1394	0.1883	-0.127
Mof_H 	H 	0.9237	0.1076	0.1866	0.012
Mof_C 	C 	0.4684	0.0813	0.1729	-0.112
Mof_H 	H 	0.4186	0.0788	0.1834	0.032
Mof_C 	C 	0.5337	0.0439	0.1786	0.066
Mof_H 	H 	0.5264	0.0174	0.1937	-0.009
Mof_C 	C 	0.6149	0.0827	0.1429	0.049
Mof_H 	H 	0.664	0.0829	0.1319	-0.015
Mof_C 	C 	0.5548	0.1226	0.1367	-0.108
Mof_H 	H 	0.5656	0.1499	0.1227	0.062
Mof_C 	C 	0.4787	0.1219	0.1513	0.005
Mof_C 	C 	0.4169	0.1639	0.1434	0.063
Mof_C 	C 	0.4346	0.2113	0.13	-0.139
Mof_H 	H 	0.4883	0.2239	0.1258	0.072
Mof_C 	C 	0.3567	0.2365	0.1241	0.055
Mof_C 	C 	0.3414	0.289	0.1097	0.054
Mof_C 	C 	0.4012	0.3252	0.1148	-0.178
Mof_H 	H 	0.4514	0.3187	0.1287	0.085
Mof_C 	C 	0.3886	0.3737	0.099	0.128
Mof_H 	H 	0.4344	0.3972	0.1023	-0.051
Mof_C 	C 	0.2652	0.3555	0.0785	0.092
Mof_H 	H 	0.2134	0.3655	0.0667	-0.025
Mof_C 	C 	0.2702	0.303	0.0917	-0.152
Mof_H 	H 	0.2243	0.2798	0.0875	0.029
Mof_C 	C 	0.2153	0.0267	0.2293	-0.107
Mof_H 	H 	0.1793	0.0515	0.2183	0.002
Mof_C 	C 	0.2178	0.0215	0.2628	0.051
Mof_H 	H 	0.1843	0.0442	0.2738	-0.017
Mof_C 	C 	0.3103	0.9534	0.2635	0.046
Mof_H 	H 	0.3427	0.9272	0.2748	-0.008
Mof_C 	C 	0.311	0.9565	0.2303	-0.105
Mof_H 	H 	0.3425	0.9322	0.2196	0.06
Mof_C 	C 	0.2657	0.9954	0.21201	-0.004
Mof_C 	C 	0.2714	0.9998	0.17689	0.071
Mof_C 	C 	0.2937	0.9607	0.15609	-0.14
Mof_H 	H 	0.3053	0.9258	0.1614	0.073
Mof_C 	C 	0.2951	0.9844	0.12558	0.072
Mof_C 	C 	0.314	0.9601	0.09412	0.011
Mof_C 	C 	0.292	0.9092	0.08735	-0.121
Mof_H 	H 	0.265	0.8895	0.1024	0.062
Mof_C 	C 	0.3105	0.8871	0.0577	0.059
Mof_H 	H 	0.2944	0.8526	0.0533	-0.024
Mof_C 	C 	0.3722	0.963	0.0425	0.05
Mof_H 	H 	0.4003	0.9819	0.0274	-0.012
Mof_C 	C 	0.3546	0.9871	0.0713	-0.119
Mof_H 	H 	0.3704	0.0218	0.0753	0.029
Mof_C 	C 	0.5665	0.5631	0.02046	-0.117
Mof_H 	H 	0.5356	0.5909	0.028	0.022
Mof_C 	C 	0.5903	0.5633	0.9886	0.06
Mof_H 	H 	0.5745	0.5921	0.9754	-0.017
Mof_C 	C 	0.6527	0.4845	0.9953	0.083
Mof_H 	H 	0.6813	0.4565	0.9869	-0.049
Mof_C 	C 	0.6335	0.4805	0.0266	-0.141
Mof_H 	H 	0.6494	0.4507	0.0388	0.069
Mof_C 	C 	0.5898	0.5207	0.04074	0.003
Mof_C 	C 	0.5704	0.5176	0.07508	0.03
Mof_C 	C 	0.5701	0.4729	0.09457	-0.151
Mof_H 	H 	0.5794	0.4386	0.0883	0.068
Mof_C 	C 	0.5532	0.4904	0.12525	0.048
Mof_C 	C 	0.5421	0.4602	0.15519	0.009
Mof_C 	C 	0.5809	0.4109	0.15978	-0.12
Mof_H 	H 	0.6149	0.3976	0.1444	0.064
Mof_C 	C 	0.5678	0.3823	0.1875	0.064
Mof_H 	H 	0.5934	0.3495	0.19	-0.017
Mof_C 	C 	0.4824	0.4452	0.2055	0.049
Mof_H 	H 	0.4466	0.4568	0.2207	-0.019
Mof_C 	C 	0.4928	0.4766	0.1788	-0.126
Mof_H 	H 	0.4661	0.5091	0.1769	0.018
Mof_C 	C 	0.3312	0.6375	0.0843	-0.146
Mof_H 	H 	0.3621	0.6157	0.0996	0.032
Mof_C 	C 	0.2617	0.6177	0.0635	0.082
Mof_H 	H 	0.2463	0.5829	0.0661	-0.053
Mof_C 	C 	0.2374	0.695	0.0393	0.065
Mof_H 	H 	0.2045	0.716	0.0241	-0.027
Mof_C 	C 	0.3037	0.718	0.0588	-0.127
Mof_H 	H 	0.3154	0.7534	0.0563	0.063
Mof_C 	C 	0.354	0.6886	0.0825	0.018
Mof_C 	C 	0.4253	0.7152	0.10256	0.066
Mof_C 	C 	0.4269	0.766	0.1145	-0.134
Mof_H 	H 	0.3812	0.7896	0.1135	0.072
Mof_C 	C 	0.5114	0.7743	0.12845	0.066
Mof_C 	C 	0.5524	0.823	0.14072	0.016
Mof_C 	C 	0.5144	0.8706	0.1347	-0.128
Mof_H 	H 	0.4591	0.8722	0.1235	0.071
Mof_C 	C 	0.555	0.9154	0.1447	0.071
Mof_H 	H 	0.5253	0.9467	0.1405	-0.012
Mof_C 	C 	0.6723	0.8722	0.1653	0.062
Mof_H 	H 	0.7289	0.8718	0.1754	-0.021
Mof_C 	C 	0.6338	0.8255	0.1571	-0.114
Mof_H 	H 	0.6635	0.7947	0.1627	0.009
Mof_C 	C 	0.5514	0.7645	0.0463	-0.118
Mof_H 	H 	0.5739	0.7613	0.0682	0.038
Mof_C 	C 	0.4903	0.8018	0.0375	0.059
Mof_H 	H 	0.4715	0.8227	0.0539	-0.01
Mof_C 	C 	0.4821	0.778	0.984	0.068
Mof_H 	H 	0.4576	0.7814	0.9623	-0.013
Mof_C 	C 	0.545	0.7393	0.9916	-0.12
Mof_H 	H 	0.563	0.7187	0.9748	0.067
Mof_C 	C 	0.5799	0.7317	0.02332	0.015
Mof_C 	C 	0.6492	0.6927	0.0321	0.065
Mof_C 	C 	0.7189	0.6799	0.01525	-0.143
Mof_H 	H 	0.7307	0.6925	0.9949	0.08
Mof_C 	C 	0.7667	0.6447	0.0352	0.072
Mof_C 	C 	0.8506	0.6211	0.03074	0.008
Mof_C 	C 	0.8646	0.5974	0.0009	-0.112
Mof_H 	H 	0.8197	0.5944	0.984	0.043
Mof_C 	C 	0.9452	0.5785	0.9967	0.051
Mof_H 	H 	0.9539	0.5642	0.9765	-0.01
Mof_C 	C 	0.9959	0.5977	0.0489	0.076
Mof_H 	H 	0.0404	0.5964	0.0661	-0.03
Mof_C 	C 	0.9179	0.6186	0.0557	-0.139
Mof_H 	H 	0.9109	0.6307	0.0767	0.044
Mof_N 	N 	0.3042	0.4981	0.1091	-0.221
Mof_C 	C 	0.2775	0.4991	0.134	-0.188
Mof_N 	N 	0.7225	0.5009	0.866	-0.206
Mof_C 	C 	0.6958	0.5019	0.8909	-0.208
Mof_Cu	Cu	0.74577	0.61813	0.17109	0.75
Mof_Cu	Cu	0.06396	0.13594	0.08911	0.746
Mof_Cu	Cu	0.56249	0.59474	0.15668	0.743
Mof_Cu	Cu	0.67542	0.71428	0.13084	0.759
Mof_Cu	Cu	0.75151	0.58821	0.09673	0.766
Mof_Cu	Cu	0.20687	0.48831	0.16948	0.841
Mof_Cu	Cu	0.87683	0.37771	0.99395	0.842
Mof_Cu	Cu	0.1658	0.02851	0.93131	0.825
Mof_N 	N 	0.8958	0.8033	0.23735	-0.235
Mof_N 	N 	0.6703	0.6618	0.19473	-0.268
Mof_N 	N 	0.5857	0.6469	0.18832	-0.274
Mof_N 	N 	0.2603	0.6843	0.1852	-0.131
Mof_N 	N 	0.1047	0.5439	0.16416	-0.226
Mof_N 	N 	0.8315	0.6603	0.14605	-0.257
Mof_N 	N 	0.7946	0.7059	0.13364	-0.269
Mof_N 	N 	0.8255	0.8889	0.0818	-0.257
Mof_N 	N 	0.7649	0.4862	0.28073	-0.238
Mof_N 	N 	0.7597	0.5448	0.15988	-0.262
Mof_N 	N 	0.7745	0.535	0.12803	-0.257
Mof_N 	N 	0.85	0.4131	0.03568	-0.244
Mof_N 	N 	0.1343	0.0249	0.97572	-0.267
Mof_N 	N 	0.0572	0.0604	0.09322	-0.277
Mof_N 	N 	0.0457	0.0434	0.12419	-0.274
Mof_N 	N 	0.0215	0.8985	0.21063	-0.239
Mof_N 	N 	0.717	0.1451	0.04062	-0.257
Mof_N 	N 	0.0039	0.1935	0.10867	-0.267
Mof_N 	N 	0.0582	0.2299	0.12484	-0.26
Mof_N 	N 	0.1344	0.4176	0.15989	-0.237
Mof_N 	N 	0.9563	0.3098	0.00634	-0.229
Mof_N 	N 	0.1541	0.1656	0.06072	-0.251
Mof_N 	N 	0.2276	0.136	0.06235	-0.265
Mof_N 	N 	0.5117	0.0797	0.0203	-0.216
Mof_C 	C 	0.8328	0.7222	0.2171	-0.109
Mof_H 	H 	0.8416	0.6888	0.2091	0.024
Mof_C 	C 	0.9023	0.7552	0.2249	0.056
Mof_H 	H 	0.9569	0.7433	0.2214	-0.006
Mof_C 	C 	0.8161	0.8178	0.2422	0.06
Mof_H 	H 	0.8091	0.8505	0.2515	-0.015
Mof_C 	C 	0.7432	0.7876	0.2345	-0.117
Mof_H 	H 	0.6892	0.8002	0.2383	0.065
Mof_C 	C 	0.7512	0.7386	0.22104	0.011
Mof_C 	C 	0.672	0.7079	0.2112	0.046
Mof_C 	C 	0.5877	0.7226	0.2151	-0.134
Mof_H 	H 	0.5703	0.7523	0.2257	0.072
Mof_C 	C 	0.5351	0.684	0.19994	0.059
Mof_C 	C 	0.441	0.6821	0.195	0.015
Mof_C 	C 	0.3944	0.7281	0.1958	-0.109
Mof_H 	H 	0.4238	0.7594	0.2003	0.063
Mof_C 	C 	0.307	0.7287	0.1903	0.059
Mof_H 	H 	0.2783	0.7606	0.19	0.01
Mof_C 	C 	0.3041	0.6413	0.1836	0.062
Mof_H 	H 	0.274	0.6103	0.179	-0.012
Mof_C 	C 	0.3956	0.6394	0.1883	-0.116
Mof_H 	H 	0.4237	0.6076	0.1866	0.006
Mof_C 	C 	0.9684	0.5813	0.1729	-0.101
Mof_H 	H 	0.9186	0.5788	0.1834	0.03
Mof_C 	C 	0.0337	0.5439	0.1786	0.054
Mof_H 	H 	0.0264	0.5174	0.1937	-0.008
Mof_C 	C 	0.1149	0.5827	0.1429	0.052
Mof_H 	H 	0.164	0.5829	0.1319	-0.016
Mof_C 	C 	0.0548	0.6226	0.1367	-0.12
Mof_H 	H 	0.0656	0.6499	0.1227	0.063
Mof_C 	C 	0.9787	0.6219	0.1513	0.012
Mof_C 	C 	0.9169	0.6639	0.1434	0.062
Mof_C 	C 	0.9346	0.7113	0.13	-0.138
Mof_H 	H 	0.9883	0.7239	0.1258	0.074
Mof_C 	C 	0.8567	0.7365	0.1241	0.055
Mof_C 	C 	0.8414	0.789	0.1097	0.054
Mof_C 	C 	0.9012	0.8252	0.1148	-0.177
Mof_H 	H 	0.9514	0.8187	0.1287	0.087
Mof_C 	C 	0.8886	0.8737	0.099	0.128
Mof_H 	H 	0.9344	0.8972	0.1023	-0.048
Mof_C 	C 	0.7652	0.8555	0.0785	0.092
Mof_H 	H 	0.7134	0.8655	0.0667	-0.024
Mof_C 	C 	0.7702	0.803	0.0917	-0.151
Mof_H 	H 	0.7243	0.7798	0.0875	0.029
Mof_C 	C 	0.7153	0.5267	0.2293	-0.107
Mof_H 	H 	0.6793	0.5515	0.2183	0.003
Mof_C 	C 	0.7178	0.5215	0.2628	0.051
Mof_H 	H 	0.6843	0.5442	0.2738	-0.017
Mof_C 	C 	0.8103	0.4534	0.2635	0.047
Mof_H 	H 	0.8427	0.4272	0.2748	-0.008
Mof_C 	C 	0.811	0.4565	0.2303	-0.105
Mof_H 	H 	0.8425	0.4322	0.2196	0.061
Mof_C 	C 	0.7657	0.4954	0.21201	-0.003
Mof_C 	C 	0.7714	0.4998	0.17689	0.071
Mof_C 	C 	0.7937	0.4607	0.15609	-0.14
Mof_H 	H 	0.8053	0.4258	0.1614	0.074
Mof_C 	C 	0.7951	0.4844	0.12558	0.072
Mof_C 	C 	0.814	0.4601	0.09412	0.011
Mof_C 	C 	0.792	0.4092	0.08735	-0.121
Mof_H 	H 	0.765	0.3895	0.1024	0.062
Mof_C 	C 	0.8105	0.3871	0.0577	0.06
Mof_H 	H 	0.7944	0.3526	0.0533	-0.024
Mof_C 	C 	0.8722	0.463	0.0425	0.051
Mof_H 	H 	0.9003	0.4819	0.0274	-0.011
Mof_C 	C 	0.8546	0.4871	0.0713	-0.118
Mof_H 	H 	0.8704	0.5218	0.0753	0.03
Mof_C 	C 	0.0665	0.0631	0.02046	-0.117
Mof_H 	H 	0.0356	0.0909	0.028	0.02
Mof_C 	C 	0.0903	0.0633	0.9886	0.058
Mof_H 	H 	0.0745	0.0921	0.9754	-0.018
Mof_C 	C 	0.1527	0.9845	0.9953	0.081
Mof_H 	H 	0.1813	0.9565	0.9869	-0.049
Mof_C 	C 	0.1335	0.9805	0.0266	-0.142
Mof_H 	H 	0.1494	0.9507	0.0388	0.069
Mof_C 	C 	0.0898	0.0207	0.04074	0.002
Mof_C 	C 	0.0704	0.0176	0.07508	0.03
Mof_C 	C 	0.0701	0.9729	0.09457	-0.153
Mof_H 	H 	0.0794	0.9386	0.0883	0.068
Mof_C 	C 	0.0532	0.9904	0.12525	0.05
Mof_C 	C 	0.0421	0.9602	0.15519	-0.004
Mof_C 	C 	0.0809	0.9109	0.15978	-0.115
Mof_H 	H 	0.1149	0.8976	0.1444	0.062
Mof_C 	C 	0.0678	0.8823	0.1875	0.059
Mof_H 	H 	0.0934	0.8495	0.19	-0.017
Mof_C 	C 	0.9824	0.9452	0.2055	0.052
Mof_H 	H 	0.9466	0.9568	0.2207	-0.018
Mof_C 	C 	0.9928	0.9766	0.1788	-0.112
Mof_H 	H 	0.9661	0.0091	0.1769	0.016
Mof_C 	C 	0.8312	0.1375	0.0843	-0.146
Mof_H 	H 	0.8621	0.1157	0.0996	0.034
Mof_C 	C 	0.7617	0.1177	0.0635	0.083
Mof_H 	H 	0.7463	0.0829	0.0661	-0.053
Mof_C 	C 	0.7374	0.195	0.0393	0.066
Mof_H 	H 	0.7045	0.216	0.0241	-0.027
Mof_C 	C 	0.8037	0.218	0.0588	-0.127
Mof_H 	H 	0.8154	0.2534	0.0563	0.064
Mof_C 	C 	0.854	0.1886	0.0825	0.02
Mof_C 	C 	0.9253	0.2152	0.10256	0.068
Mof_C 	C 	0.9269	0.266	0.1145	-0.119
Mof_H 	H 	0.8812	0.2896	0.1135	0.067
Mof_C 	C 	0.0114	0.2743	0.12845	0.048
Mof_C 	C 	0.0524	0.323	0.14072	0.033
Mof_C 	C 	0.0144	0.3706	0.1347	-0.16
Mof_H 	H 	0.9591	0.3722	0.1235	0.087
Mof_C 	C 	0.055	0.4154	0.1447	0.087
Mof_H 	H 	0.0253	0.4467	0.1405	-0.02
Mof_C 	C 	0.1723	0.3722	0.1653	0.07
Mof_H 	H 	0.2289	0.3718	0.1754	-0.024
Mof_C 	C 	0.1338	0.3255	0.1571	-0.127
Mof_H 	H 	0.1635	0.2947	0.1627	0.014
Mof_C 	C 	0.0514	0.2645	0.0463	-0.146
Mof_H 	H 	0.0739	0.2613	0.0682	0.046
Mof_C 	C 	0.9903	0.3018	0.0375	0.083
Mof_H 	H 	0.9715	0.3227	0.0539	-0.016
Mof_C 	C 	0.9821	0.278	0.984	0.09
Mof_H 	H 	0.9576	0.2814	0.9623	-0.018
Mof_C 	C 	0.045	0.2393	0.9916	-0.146
Mof_H 	H 	0.063	0.2187	0.9748	0.074
Mof_C 	C 	0.0799	0.2317	0.02332	0.032
Mof_C 	C 	0.1492	0.1927	0.0321	0.059
Mof_C 	C 	0.2189	0.1799	0.01525	-0.142
Mof_H 	H 	0.2307	0.1925	0.9949	0.079
Mof_C 	C 	0.2667	0.1447	0.0352	0.076
Mof_C 	C 	0.3506	0.1211	0.03074	-0.004
Mof_C 	C 	0.3646	0.0974	0.0009	-0.1
Mof_H 	H 	0.3197	0.0944	0.984	0.039
Mof_C 	C 	0.4452	0.0785	0.9967	0.035
Mof_H 	H 	0.4539	0.0642	0.9765	-0.007
Mof_C 	C 	0.4959	0.0977	0.0489	0.041
Mof_H 	H 	0.5404	0.0964	0.0661	-0.014
Mof_C 	C 	0.4179	0.1186	0.0557	-0.119
Mof_H 	H 	0.4109	0.1307	0.0767	0.035
Mof_N 	N 	0.8042	0.9981	0.1091	-0.22
Mof_C 	C 	0.7775	0.9991	0.134	-0.187
Mof_N 	N 	0.2225	0.0009	0.866	-0.206
Mof_C 	C 	0.1958	0.0019	0.8909	-0.21
Mof_Cu	Cu	0.75423	0.11813	0.32891	0.75
Mof_Cu	Cu	0.43604	0.63594	0.41089	0.747
Mof_Cu	Cu	0.93751	0.09474	0.34332	0.745
Mof_Cu	Cu	0.82458	0.21428	0.36916	0.76
Mof_Cu	Cu	0.74849	0.08821	0.40327	0.766
Mof_Cu	Cu	0.29313	0.98831	0.33052	0.841
Mof_Cu	Cu	0.62317	0.87771	0.50605	0.841
Mof_Cu	Cu	0.3342	0.52851	0.56869	0.826
Mof_N 	N 	0.6042	0.3033	0.26265	-0.237
Mof_N 	N 	0.8297	0.1618	0.30527	-0.268
Mof_N 	N 	0.9143	0.1469	0.31168	-0.275
Mof_N 	N 	0.2397	0.1843	0.3148	-0.129
Mof_N 	N 	0.3953	0.0439	0.33584	-0.227
Mof_N 	N 	0.6685	0.1603	0.35395	-0.258
Mof_N 	N 	0.7054	0.2059	0.36636	-0.269
Mof_N 	N 	0.6745	0.3889	0.4182	-0.257
Mof_N 	N 	0.7351	0.9862	0.21927	-0.238
Mof_N 	N 	0.7403	0.0448	0.34012	-0.262
Mof_N 	N 	0.7255	0.035	0.37197	-0.257
Mof_N 	N 	0.65	0.9131	0.46432	-0.244
Mof_N 	N 	0.3657	0.5249	0.52428	-0.267
Mof_N 	N 	0.4428	0.5604	0.40678	-0.276
Mof_N 	N 	0.4543	0.5434	0.37581	-0.272
Mof_N 	N 	0.4785	0.3985	0.28937	-0.236
Mof_N 	N 	0.783	0.6451	0.45938	-0.257
Mof_N 	N 	0.4961	0.6935	0.39133	-0.263
Mof_N 	N 	0.4418	0.7299	0.37516	-0.262
Mof_N 	N 	0.3656	0.9176	0.34011	-0.232
Mof_N 	N 	0.5437	0.8098	0.49366	-0.223
Mof_N 	N 	0.3459	0.6656	0.43928	-0.252
Mof_N 	N 	0.2724	0.636	0.43765	-0.266
Mof_N 	N 	0.9883	0.5797	0.4797	-0.201
Mof_C 	C 	0.6672	0.2222	0.2829	-0.109
Mof_H 	H 	0.6584	0.1888	0.2909	0.024
Mof_C 	C 	0.5977	0.2552	0.2751	0.055
Mof_H 	H 	0.5431	0.2433	0.2786	-0.009
Mof_C 	C 	0.6839	0.3178	0.2578	0.059
Mof_H 	H 	0.6909	0.3505	0.2485	-0.015
Mof_C 	C 	0.7568	0.2876	0.2655	-0.117
Mof_H 	H 	0.8108	0.3002	0.2617	0.065
Mof_C 	C 	0.7488	0.2386	0.27896	0.01
Mof_C 	C 	0.828	0.2079	0.2888	0.049
Mof_C 	C 	0.9123	0.2226	0.2849	-0.14
Mof_H 	H 	0.9297	0.2523	0.2743	0.076
Mof_C 	C 	0.9649	0.184	0.30006	0.073
Mof_C 	C 	0.059	0.1821	0.305	-0.003
Mof_C 	C 	0.1056	0.2281	0.3042	-0.099
Mof_H 	H 	0.0762	0.2594	0.2997	0.057
Mof_C 	C 	0.193	0.2287	0.3097	0.052
Mof_H 	H 	0.2217	0.2606	0.31	0.013
Mof_C 	C 	0.1959	0.1413	0.3164	0.056
Mof_H 	H 	0.226	0.1103	0.321	-0.01
Mof_C 	C 	0.1044	0.1394	0.3117	-0.105
Mof_H 	H 	0.0763	0.1076	0.3134	-0
Mof_C 	C 	0.5316	0.0813	0.3271	-0.112
Mof_H 	H 	0.5814	0.0788	0.3166	0.032
Mof_C 	C 	0.4663	0.0439	0.3214	0.066
Mof_H 	H 	0.4736	0.0174	0.3063	-0.009
Mof_C 	C 	0.3851	0.0827	0.3571	0.049
Mof_H 	H 	0.336	0.0829	0.3681	-0.015
Mof_C 	C 	0.4452	0.1226	0.3633	-0.108
Mof_H 	H 	0.4344	0.1499	0.3773	0.062
Mof_C 	C 	0.5213	0.1219	0.3487	0.005
Mof_C 	C 	0.5831	0.1639	0.3566	0.063
Mof_C 	C 	0.5654	0.2113	0.37	-0.139
Mof_H 	H 	0.5117	0.2239	0.3742	0.072
Mof_C 	C 	0.6433	0.2365	0.3759	0.055
Mof_C 	C 	0.6586	0.289	0.3903	0.054
Mof_C 	C 	0.5988	0.3252	0.3852	-0.178
Mof_H 	H 	0.5486	0.3187	0.3713	0.085
Mof_C 	C 	0.6114	0.3737	0.401	0.127
Mof_H 	H 	0.5656	0.3972	0.3977	-0.051
Mof_C 	C 	0.7348	0.3555	0.4215	0.092
Mof_H 	H 	0.7866	0.3655	0.4333	-0.024
Mof_C 	C 	0.7298	0.303	0.4083	-0.151
Mof_H 	H 	0.7757	0.2798	0.4125	0.029
Mof_C 	C 	0.7847	0.0267	0.2707	-0.106
Mof_H 	H 	0.8207	0.0515	0.2817	0.003
Mof_C 	C 	0.7822	0.0215	0.2372	0.051
Mof_H 	H 	0.8157	0.0442	0.2262	-0.017
Mof_C 	C 	0.6897	0.9534	0.2365	0.047
Mof_H 	H 	0.6573	0.9272	0.2252	-0.008
Mof_C 	C 	0.689	0.9565	0.2697	-0.105
Mof_H 	H 	0.6575	0.9322	0.2804	0.06
Mof_C 	C 	0.7343	0.9954	0.28799	-0.003
Mof_C 	C 	0.7286	0.9998	0.32311	0.071
Mof_C 	C 	0.7063	0.9607	0.34391	-0.14
Mof_H 	H 	0.6947	0.9258	0.3386	0.074
Mof_C 	C 	0.7049	0.9844	0.37442	0.072
Mof_C 	C 	0.686	0.9601	0.40588	0.011
Mof_C 	C 	0.708	0.9092	0.41265	-0.121
Mof_H 	H 	0.735	0.8895	0.3976	0.062
Mof_C 	C 	0.6895	0.8871	0.4423	0.059
Mof_H 	H 	0.7056	0.8526	0.4467	-0.023
Mof_C 	C 	0.6278	0.963	0.4575	0.05
Mof_H 	H 	0.5997	0.9819	0.4726	-0.012
Mof_C 	C 	0.6454	0.9871	0.4287	-0.119
Mof_H 	H 	0.6296	0.0218	0.4247	0.029
Mof_C 	C 	0.4335	0.5631	0.47954	-0.117
Mof_H 	H 	0.4644	0.5909	0.472	0.022
Mof_C 	C 	0.4097	0.5633	0.5114	0.06
Mof_H 	H 	0.4255	0.5921	0.5246	-0.017
Mof_C 	C 	0.3473	0.4845	0.5047	0.083
Mof_H 	H 	0.3187	0.4565	0.5131	-0.049
Mof_C 	C 	0.3665	0.4805	0.4734	-0.142
Mof_H 	H 	0.3506	0.4507	0.4612	0.07
Mof_C 	C 	0.4102	0.5207	0.45926	0.004
Mof_C 	C 	0.4296	0.5176	0.42492	0.03
Mof_C 	C 	0.4299	0.4729	0.40543	-0.15
Mof_H 	H 	0.4206	0.4386	0.4117	0.068
Mof_C 	C 	0.4468	0.4904	0.37475	0.048
Mof_C 	C 	0.4579	0.4602	0.34481	0.009
Mof_C 	C 	0.4191	0.4109	0.34022	-0.12
Mof_H 	H 	0.3851	0.3976	0.3556	0.064
Mof_C 	C 	0.4322	0.3823	0.3125	0.064
Mof_H 	H 	0.4066	0.3495	0.31	-0.017
Mof_C 	C 	0.5176	0.4452	0.2945	0.049
Mof_H 	H 	0.5534	0.4568	0.2793	-0.019
Mof_C 	C 	0.5072	0.4766	0.3212	-0.126
Mof_H 	H 	0.5339	0.5091	0.3231	0.018
Mof_C 	C 	0.6688	0.6375	0.4157	-0.146
Mof_H 	H 	0.6379	0.6157	0.4004	0.032
Mof_C 	C 	0.7383	0.6177	0.4365	0.082
Mof_H 	H 	0.7537	0.5829	0.4339	-0.053
Mof_C 	C 	0.7626	0.695	0.4607	0.066
Mof_H 	H 	0.7955	0.716	0.4759	-0.026
Mof_C 	C 	0.6963	0.718	0.4412	-0.127
Mof_H 	H 	0.6846	0.7534	0.4437	0.064
Mof_C 	C 	0.646	0.6886	0.4175	0.018
Mof_C 	C 	0.5747	0.7152	0.39744	0.066
Mof_C 	C 	0.5731	0.766	0.3855	-0.134
Mof_H 	H 	0.6188	0.7896	0.3865	0.072
Mof_C 	C 	0.4886	0.7743	0.37155	0.066
Mof_C 	C 	0.4476	0.823	0.35928	0.016
Mof_C 	C 	0.4856	0.8706	0.3653	-0.128
Mof_H 	H 	0.5409	0.8722	0.3765	0.071
Mof_C 	C 	0.445	0.9154	0.3553	0.071
Mof_H 	H 	0.4747	0.9467	0.3595	-0.012
Mof_C 	C 	0.3277	0.8722	0.3347	0.063
Mof_H 	H 	0.2711	0.8718	0.3246	-0.021
Mof_C 	C 	0.3662	0.8255	0.3429	-0.114
Mof_H 	H 	0.3365	0.7947	0.3373	0.009
Mof_C 	C 	0.4486	0.7645	0.4537	-0.117
Mof_H 	H 	0.4261	0.7613	0.4318	0.038
Mof_C 	C 	0.5097	0.8018	0.4625	0.058
Mof_H 	H 	0.5285	0.8227	0.4461	-0.01
Mof_C 	C 	0.5179	0.778	0.516	0.068
Mof_H 	H 	0.5424	0.7814	0.5377	-0.013
Mof_C 	C 	0.455	0.7393	0.5084	-0.119
Mof_H 	H 	0.437	0.7187	0.5252	0.067
Mof_C 	C 	0.4201	0.7317	0.47668	0.014
Mof_C 	C 	0.3508	0.6927	0.4679	0.067
Mof_C 	C 	0.2811	0.6799	0.48475	-0.149
Mof_H 	H 	0.2693	0.6925	0.5051	0.082
Mof_C 	C 	0.2333	0.6447	0.4648	0.082
Mof_C 	C 	0.1494	0.6211	0.46926	-0.018
Mof_C 	C 	0.1354	0.5974	0.4991	-0.087
Mof_H 	H 	0.1803	0.5944	0.516	0.034
Mof_C 	C 	0.0548	0.5785	0.5033	0.019
Mof_H 	H 	0.0461	0.5642	0.5235	-0.004
Mof_C 	C 	0.0041	0.5977	0.4511	0.006
Mof_H 	H 	0.9596	0.5964	0.4339	0.003
Mof_C 	C 	0.0821	0.6186	0.4443	-0.098
Mof_H 	H 	0.0891	0.6307	0.4233	0.027
Mof_N 	N 	0.6958	0.4981	0.3909	-0.221
Mof_C 	C 	0.7225	0.4991	0.366	-0.187
Mof_N 	N 	0.2775	0.5009	0.634	-0.206
Mof_C 	C 	0.3042	0.5019	0.6091	-0.208
Mof_Cu	Cu	0.25423	0.61813	0.32891	0.75
Mof_Cu	Cu	0.93604	0.13594	0.41089	0.748
Mof_Cu	Cu	0.43751	0.59474	0.34332	0.743
Mof_Cu	Cu	0.32458	0.71428	0.36916	0.759
Mof_Cu	Cu	0.24849	0.58821	0.40327	0.766
Mof_Cu	Cu	0.79313	0.48831	0.33052	0.841
Mof_Cu	Cu	0.12317	0.37771	0.50605	0.841
Mof_Cu	Cu	0.8342	0.02851	0.56869	0.826
Mof_N 	N 	0.1042	0.8033	0.26265	-0.238
Mof_N 	N 	0.3297	0.6618	0.30527	-0.268
Mof_N 	N 	0.4143	0.6469	0.31168	-0.274
Mof_N 	N 	0.7397	0.6843	0.3148	-0.13
Mof_N 	N 	0.8953	0.5439	0.33584	-0.228
Mof_N 	N 	0.1685	0.6603	0.35395	-0.258
Mof_N 	N 	0.2054	0.7059	0.36636	-0.269
Mof_N 	N 	0.1745	0.8889	0.4182	-0.257
Mof_N 	N 	0.2351	0.4862	0.21927	-0.238
Mof_N 	N 	0.2403	0.5448	0.34012	-0.262
Mof_N 	N 	0.2255	0.535	0.37197	-0.258
Mof_N 	N 	0.15	0.4131	0.46432	-0.244
Mof_N 	N 	0.8657	0.0249	0.52428	-0.266
Mof_N 	N 	0.9428	0.0604	0.40678	-0.276
Mof_N 	N 	0.9543	0.0434	0.37581	-0.27
Mof_N 	N 	0.9785	0.8985	0.28937	-0.231
Mof_N 	N 	0.283	0.1451	0.45938	-0.257
Mof_N 	N 	0.9961	0.1935	0.39133	-0.259
Mof_N 	N 	0.9418	0.2299	0.37516	-0.264
Mof_N 	N 	0.8656	0.4176	0.34011	-0.227
Mof_N 	N 	0.0437	0.3098	0.49366	-0.217
Mof_N 	N 	0.8459	0.1656	0.43928	-0.253
Mof_N 	N 	0.7724	0.136	0.43765	-0.265
Mof_N 	N 	0.4883	0.0797	0.4797	-0.216
Mof_C 	C 	0.1672	0.7222	0.2829	-0.111
Mof_H 	H 	0.1584	0.6888	0.2909	0.024
Mof_C 	C 	0.0977	0.7552	0.2751	0.055
Mof_H 	H 	0.0431	0.7433	0.2786	-0.011
Mof_C 	C 	0.1839	0.8178	0.2578	0.059
Mof_H 	H 	0.1909	0.8505	0.2485	-0.015
Mof_C 	C 	0.2568	0.7876	0.2655	-0.117
Mof_H 	H 	0.3108	0.8002	0.2617	0.065
Mof_C 	C 	0.2488	0.7386	0.27896	0.011
Mof_C 	C 	0.328	0.7079	0.2888	0.046
Mof_C 	C 	0.4123	0.7226	0.2849	-0.134
Mof_H 	H 	0.4297	0.7523	0.2743	0.072
Mof_C 	C 	0.4649	0.684	0.30006	0.059
Mof_C 	C 	0.559	0.6821	0.305	0.015
Mof_C 	C 	0.6056	0.7281	0.3042	-0.109
Mof_H 	H 	0.5762	0.7594	0.2997	0.063
Mof_C 	C 	0.693	0.7287	0.3097	0.059
Mof_H 	H 	0.7217	0.7606	0.31	0.011
Mof_C 	C 	0.6959	0.6413	0.3164	0.062
Mof_H 	H 	0.726	0.6103	0.321	-0.012
Mof_C 	C 	0.6044	0.6394	0.3117	-0.116
Mof_H 	H 	0.5763	0.6076	0.3134	0.006
Mof_C 	C 	0.0316	0.5813	0.3271	-0.123
Mof_H 	H 	0.0814	0.5788	0.3166	0.034
Mof_C 	C 	0.9663	0.5439	0.3214	0.078
Mof_H 	H 	0.9736	0.5174	0.3063	-0.011
Mof_C 	C 	0.8851	0.5827	0.3571	0.046
Mof_H 	H 	0.836	0.5829	0.3681	-0.014
Mof_C 	C 	0.9452	0.6226	0.3633	-0.096
Mof_H 	H 	0.9344	0.6499	0.3773	0.06
Mof_C 	C 	0.0213	0.6219	0.3487	-0.002
Mof_C 	C 	0.0831	0.6639	0.3566	0.064
Mof_C 	C 	0.0654	0.7113	0.37	-0.14
Mof_H 	H 	0.0117	0.7239	0.3742	0.07
Mof_C 	C 	0.1433	0.7365	0.3759	0.054
Mof_C 	C 	0.1586	0.789	0.3903	0.053
Mof_C 	C 	0.0988	0.8252	0.3852	-0.178
Mof_H 	H 	0.0486	0.8187	0.3713	0.083
Mof_C 	C 	0.1114	0.8737	0.401	0.127
Mof_H 	H 	0.0656	0.8972	0.3977	-0.053
Mof_C 	C 	0.2348	0.8555	0.4215	0.091
Mof_H 	H 	0.2866	0.8655	0.4333	-0.024
Mof_C 	C 	0.2298	0.803	0.4083	-0.151
Mof_H 	H 	0.2757	0.7798	0.4125	0.029
Mof_C 	C 	0.2847	0.5267	0.2707	-0.107
Mof_H 	H 	0.3207	0.5515	0.2817	0.002
Mof_C 	C 	0.2822	0.5215	0.2372	0.051
Mof_H 	H 	0.3157	0.5442	0.2262	-0.017
Mof_C 	C 	0.1897	0.4534	0.2365	0.046
Mof_H 	H 	0.1573	0.4272	0.2252	-0.009
Mof_C 	C 	0.189	0.4565	0.2697	-0.105
Mof_H 	H 	0.1575	0.4322	0.2804	0.059
Mof_C 	C 	0.2343	0.4954	0.28799	-0.004
Mof_C 	C 	0.2286	0.4998	0.32311	0.07
Mof_C 	C 	0.2063	0.4607	0.34391	-0.141
Mof_H 	H 	0.1947	0.4258	0.3386	0.073
Mof_C 	C 	0.2049	0.4844	0.37442	0.071
Mof_C 	C 	0.186	0.4601	0.40588	0.01
Mof_C 	C 	0.208	0.4092	0.41265	-0.121
Mof_H 	H 	0.235	0.3895	0.3976	0.062
Mof_C 	C 	0.1895	0.3871	0.4423	0.059
Mof_H 	H 	0.2056	0.3526	0.4467	-0.024
Mof_C 	C 	0.1278	0.463	0.4575	0.049
Mof_H 	H 	0.0997	0.4819	0.4726	-0.013
Mof_C 	C 	0.1454	0.4871	0.4287	-0.119
Mof_H 	H 	0.1296	0.5218	0.4247	0.028
Mof_C 	C 	0.9335	0.0631	0.47954	-0.117
Mof_H 	H 	0.9644	0.0909	0.472	0.023
Mof_C 	C 	0.9097	0.0633	0.5114	0.061
Mof_H 	H 	0.9255	0.0921	0.5246	-0.016
Mof_C 	C 	0.8473	0.9845	0.5047	0.084
Mof_H 	H 	0.8187	0.9565	0.5131	-0.048
Mof_C 	C 	0.8665	0.9805	0.4734	-0.142
Mof_H 	H 	0.8506	0.9507	0.4612	0.07
Mof_C 	C 	0.9102	0.0207	0.45926	0.005
Mof_C 	C 	0.9296	0.0176	0.42492	0.031
Mof_C 	C 	0.9299	0.9729	0.40543	-0.148
Mof_H 	H 	0.9206	0.9386	0.4117	0.069
Mof_C 	C 	0.9468	0.9904	0.37475	0.046
Mof_C 	C 	0.9579	0.9602	0.34481	0.022
Mof_C 	C 	0.9191	0.9109	0.34022	-0.125
Mof_H 	H 	0.8851	0.8976	0.3556	0.067
Mof_C 	C 	0.9322	0.8823	0.3125	0.069
Mof_H 	H 	0.9066	0.8495	0.31	-0.017
Mof_C 	C 	0.0176	0.9452	0.2945	0.045
Mof_H 	H 	0.0534	0.9568	0.2793	-0.019
Mof_C 	C 	0.0072	0.9766	0.3212	-0.14
Mof_H 	H 	0.0339	0.0091	0.3231	0.021
Mof_C 	C 	0.1688	0.1375	0.4157	-0.146
Mof_H 	H 	0.1379	0.1157	0.4004	0.03
Mof_C 	C 	0.2383	0.1177	0.4365	0.082
Mof_H 	H 	0.2537	0.0829	0.4339	-0.053
Mof_C 	C 	0.2626	0.195	0.4607	0.065
Mof_H 	H 	0.2955	0.216	0.4759	-0.027
Mof_C 	C 	0.1963	0.218	0.4412	-0.127
Mof_H 	H 	0.1846	0.2534	0.4437	0.063
Mof_C 	C 	0.146	0.1886	0.4175	0.017
Mof_C 	C 	0.0747	0.2152	0.39744	0.063
Mof_C 	C 	0.0731	0.266	0.3855	-0.149
Mof_H 	H 	0.1188	0.2896	0.3865	0.076
Mof_C 	C 	0.9886	0.2743	0.37155	0.084
Mof_C 	C 	0.9476	0.323	0.35928	-0.001
Mof_C 	C 	0.9856	0.3706	0.3653	-0.096
Mof_H 	H 	0.0409	0.3722	0.3765	0.054
Mof_C 	C 	0.945	0.4154	0.3553	0.055
Mof_H 	H 	0.9747	0.4467	0.3595	-0.004
Mof_C 	C 	0.8277	0.3722	0.3347	0.055
Mof_H 	H 	0.7711	0.3718	0.3246	-0.018
Mof_C 	C 	0.8662	0.3255	0.3429	-0.102
Mof_H 	H 	0.8365	0.2947	0.3373	0.005
Mof_C 	C 	0.9486	0.2645	0.4537	-0.089
Mof_H 	H 	0.9261	0.2613	0.4318	0.029
Mof_C 	C 	0.0097	0.3018	0.4625	0.034
Mof_H 	H 	0.0285	0.3227	0.4461	-0.004
Mof_C 	C 	0.0179	0.278	0.516	0.046
Mof_H 	H 	0.0424	0.2814	0.5377	-0.008
Mof_C 	C 	0.955	0.2393	0.5084	-0.094
Mof_H 	H 	0.937	0.2187	0.5252	0.059
Mof_C 	C 	0.9201	0.2317	0.47668	-0.003
Mof_C 	C 	0.8508	0.1927	0.4679	0.073
Mof_C 	C 	0.7811	0.1799	0.48475	-0.15
Mof_H 	H 	0.7693	0.1925	0.5051	0.083
Mof_C 	C 	0.7333	0.1447	0.4648	0.079
Mof_C 	C 	0.6494	0.1211	0.46926	-0.006
Mof_C 	C 	0.6354	0.0974	0.4991	-0.099
Mof_H 	H 	0.6803	0.0944	0.516	0.039
Mof_C 	C 	0.5548	0.0785	0.5033	0.035
Mof_H 	H 	0.5461	0.0642	0.5235	-0.007
Mof_C 	C 	0.5041	0.0977	0.4511	0.041
Mof_H 	H 	0.4596	0.0964	0.4339	-0.013
Mof_C 	C 	0.5821	0.1186	0.4443	-0.118
Mof_H 	H 	0.5891	0.1307	0.4233	0.035
Mof_N 	N 	0.1958	0.9981	0.3909	-0.221
Mof_C 	C 	0.2225	0.9991	0.366	-0.188
Mof_N 	N 	0.7775	0.0009	0.634	-0.206
Mof_C 	C 	0.8042	0.0019	0.6091	-0.207
Mof_Cu	Cu	0.75423	0.88187	0.82891	0.75
Mof_Cu	Cu	0.43604	0.36406	0.91089	0.747
Mof_Cu	Cu	0.93751	0.90526	0.84332	0.745
Mof_Cu	Cu	0.82458	0.78572	0.86916	0.76
Mof_Cu	Cu	0.74849	0.91179	0.90327	0.766
Mof_Cu	Cu	0.29313	0.01169	0.83052	0.843
Mof_Cu	Cu	0.62317	0.12229	0.00605	0.842
Mof_Cu	Cu	0.3342	0.47149	0.06869	0.827
Mof_N 	N 	0.6042	0.6967	0.76265	-0.237
Mof_N 	N 	0.8297	0.8382	0.80527	-0.268
Mof_N 	N 	0.9143	0.8531	0.81168	-0.275
Mof_N 	N 	0.2397	0.8157	0.8148	-0.129
Mof_N 	N 	0.3953	0.9561	0.83584	-0.227
Mof_N 	N 	0.6685	0.8397	0.85395	-0.258
Mof_N 	N 	0.7054	0.7941	0.86636	-0.269
Mof_N 	N 	0.6745	0.6111	0.9182	-0.257
Mof_N 	N 	0.7351	0.0138	0.71927	-0.238
Mof_N 	N 	0.7403	0.9552	0.84012	-0.262
Mof_N 	N 	0.7255	0.965	0.87197	-0.258
Mof_N 	N 	0.65	0.0869	0.96432	-0.244
Mof_N 	N 	0.3657	0.4751	0.02428	-0.267
Mof_N 	N 	0.4428	0.4396	0.90678	-0.276
Mof_N 	N 	0.4543	0.4566	0.87581	-0.272
Mof_N 	N 	0.4785	0.6015	0.78937	-0.236
Mof_N 	N 	0.783	0.3549	0.95938	-0.257
Mof_N 	N 	0.4961	0.3065	0.89133	-0.263
Mof_N 	N 	0.4418	0.2701	0.87516	-0.262
Mof_N 	N 	0.3656	0.0824	0.84011	-0.232
Mof_N 	N 	0.5437	0.1902	0.99366	-0.223
Mof_N 	N 	0.3459	0.3344	0.93928	-0.252
Mof_N 	N 	0.2724	0.364	0.93765	-0.266
Mof_N 	N 	0.9883	0.4203	0.9797	-0.201
Mof_C 	C 	0.6672	0.7778	0.7829	-0.109
Mof_H 	H 	0.6584	0.8112	0.7909	0.024
Mof_C 	C 	0.5977	0.7448	0.7751	0.055
Mof_H 	H 	0.5431	0.7567	0.7786	-0.009
Mof_C 	C 	0.6839	0.6822	0.7578	0.059
Mof_H 	H 	0.6909	0.6495	0.7485	-0.015
Mof_C 	C 	0.7568	0.7124	0.7655	-0.117
Mof_H 	H 	0.8108	0.6998	0.7617	0.065
Mof_C 	C 	0.7488	0.7614	0.77896	0.01
Mof_C 	C 	0.828	0.7921	0.7888	0.049
Mof_C 	C 	0.9123	0.7774	0.7849	-0.14
Mof_H 	H 	0.9297	0.7477	0.7743	0.076
Mof_C 	C 	0.9649	0.816	0.80006	0.073
Mof_C 	C 	0.059	0.8179	0.805	-0.003
Mof_C 	C 	0.1056	0.7719	0.8042	-0.099
Mof_H 	H 	0.0762	0.7406	0.7997	0.057
Mof_C 	C 	0.193	0.7713	0.8097	0.052
Mof_H 	H 	0.2217	0.7394	0.81	0.013
Mof_C 	C 	0.1959	0.8587	0.8164	0.055
Mof_H 	H 	0.226	0.8897	0.821	-0.01
Mof_C 	C 	0.1044	0.8606	0.8117	-0.105
Mof_H 	H 	0.0763	0.8924	0.8134	-0
Mof_C 	C 	0.5316	0.9187	0.8271	-0.112
Mof_H 	H 	0.5814	0.9212	0.8166	0.032
Mof_C 	C 	0.4663	0.9561	0.8214	0.066
Mof_H 	H 	0.4736	0.9826	0.8063	-0.009
Mof_C 	C 	0.3851	0.9173	0.8571	0.05
Mof_H 	H 	0.336	0.9171	0.8681	-0.014
Mof_C 	C 	0.4452	0.8774	0.8633	-0.108
Mof_H 	H 	0.4344	0.8501	0.8773	0.062
Mof_C 	C 	0.5213	0.8781	0.8487	0.006
Mof_C 	C 	0.5831	0.8361	0.8566	0.063
Mof_C 	C 	0.5654	0.7887	0.87	-0.139
Mof_H 	H 	0.5117	0.7761	0.8742	0.072
Mof_C 	C 	0.6433	0.7635	0.8759	0.055
Mof_C 	C 	0.6586	0.711	0.8903	0.053
Mof_C 	C 	0.5988	0.6748	0.8852	-0.177
Mof_H 	H 	0.5486	0.6813	0.8713	0.084
Mof_C 	C 	0.6114	0.6263	0.901	0.127
Mof_H 	H 	0.5656	0.6028	0.8977	-0.05
Mof_C 	C 	0.7348	0.6445	0.9215	0.091
Mof_H 	H 	0.7866	0.6345	0.9333	-0.024
Mof_C 	C 	0.7298	0.697	0.9083	-0.151
Mof_H 	H 	0.7757	0.7202	0.9125	0.029
Mof_C 	C 	0.7847	0.9733	0.7707	-0.107
Mof_H 	H 	0.8207	0.9485	0.7817	0.003
Mof_C 	C 	0.7822	0.9785	0.7372	0.051
Mof_H 	H 	0.8157	0.9558	0.7262	-0.016
Mof_C 	C 	0.6897	0.0466	0.7365	0.047
Mof_H 	H 	0.6573	0.0728	0.7252	-0.008
Mof_C 	C 	0.689	0.0435	0.7697	-0.105
Mof_H 	H 	0.6575	0.0678	0.7804	0.06
Mof_C 	C 	0.7343	0.0046	0.78799	-0.003
Mof_C 	C 	0.7286	0.0002	0.82311	0.071
Mof_C 	C 	0.7063	0.0393	0.84391	-0.141
Mof_H 	H 	0.6947	0.0742	0.8386	0.074
Mof_C 	C 	0.7049	0.0156	0.87442	0.072
Mof_C 	C 	0.686	0.0399	0.90588	0.01
Mof_C 	C 	0.708	0.0908	0.91265	-0.121
Mof_H 	H 	0.735	0.1105	0.8976	0.062
Mof_C 	C 	0.6895	0.1129	0.9423	0.059
Mof_H 	H 	0.7056	0.1474	0.9467	-0.023
Mof_C 	C 	0.6278	0.037	0.9575	0.05
Mof_H 	H 	0.5997	0.0181	0.9726	-0.012
Mof_C 	C 	0.6454	0.0129	0.9287	-0.119
Mof_H 	H 	0.6296	0.9782	0.9247	0.029
Mof_C 	C 	0.4335	0.4369	0.97954	-0.117
Mof_H 	H 	0.4644	0.4091	0.972	0.022
Mof_C 	C 	0.4097	0.4367	0.0114	0.06
Mof_H 	H 	0.4255	0.4079	0.0246	-0.017
Mof_C 	C 	0.3473	0.5155	0.0047	0.083
Mof_H 	H 	0.3187	0.5435	0.0131	-0.049
Mof_C 	C 	0.3665	0.5195	0.9734	-0.142
Mof_H 	H 	0.3506	0.5493	0.9612	0.07
Mof_C 	C 	0.4102	0.4793	0.95926	0.004
Mof_C 	C 	0.4296	0.4824	0.92492	0.03
Mof_C 	C 	0.4299	0.5271	0.90543	-0.15
Mof_H 	H 	0.4206	0.5614	0.9117	0.068
Mof_C 	C 	0.4468	0.5096	0.87475	0.048
Mof_C 	C 	0.4579	0.5398	0.84481	0.009
Mof_C 	C 	0.4191	0.5891	0.84022	-0.12
Mof_H 	H 	0.3851	0.6024	0.8556	0.064
Mof_C 	C 	0.4322	0.6177	0.8125	0.064
Mof_H 	H 	0.4066	0.6505	0.81	-0.017
Mof_C 	C 	0.5176	0.5548	0.7945	0.049
Mof_H 	H 	0.5534	0.5432	0.7793	-0.019
Mof_C 	C 	0.5072	0.5234	0.8212	-0.125
Mof_H 	H 	0.5339	0.4909	0.8231	0.019
Mof_C 	C 	0.6688	0.3625	0.9157	-0.146
Mof_H 	H 	0.6379	0.3843	0.9004	0.032
Mof_C 	C 	0.7383	0.3823	0.9365	0.082
Mof_H 	H 	0.7537	0.4171	0.9339	-0.053
Mof_C 	C 	0.7626	0.305	0.9607	0.066
Mof_H 	H 	0.7955	0.284	0.9759	-0.026
Mof_C 	C 	0.6963	0.282	0.9412	-0.127
Mof_H 	H 	0.6846	0.2466	0.9437	0.064
Mof_C 	C 	0.646	0.3114	0.9175	0.019
Mof_C 	C 	0.5747	0.2848	0.89744	0.066
Mof_C 	C 	0.5731	0.234	0.8855	-0.134
Mof_H 	H 	0.6188	0.2104	0.8865	0.072
Mof_C 	C 	0.4886	0.2257	0.87155	0.066
Mof_C 	C 	0.4476	0.177	0.85928	0.016
Mof_C 	C 	0.4856	0.1294	0.8653	-0.128
Mof_H 	H 	0.5409	0.1278	0.8765	0.071
Mof_C 	C 	0.445	0.0846	0.8553	0.071
Mof_H 	H 	0.4747	0.0533	0.8595	-0.012
Mof_C 	C 	0.3277	0.1278	0.8347	0.063
Mof_H 	H 	0.2711	0.1282	0.8246	-0.021
Mof_C 	C 	0.3662	0.1745	0.8429	-0.115
Mof_H 	H 	0.3365	0.2053	0.8373	0.01
Mof_C 	C 	0.4486	0.2355	0.9537	-0.117
Mof_H 	H 	0.4261	0.2387	0.9318	0.038
Mof_C 	C 	0.5097	0.1982	0.9625	0.058
Mof_H 	H 	0.5285	0.1773	0.9461	-0.01
Mof_C 	C 	0.5179	0.222	0.016	0.068
Mof_H 	H 	0.5424	0.2186	0.0377	-0.013
Mof_C 	C 	0.455	0.2607	0.0084	-0.119
Mof_H 	H 	0.437	0.2813	0.0252	0.067
Mof_C 	C 	0.4201	0.2683	0.97668	0.014
Mof_C 	C 	0.3508	0.3073	0.9679	0.067
Mof_C 	C 	0.2811	0.3201	0.98475	-0.149
Mof_H 	H 	0.2693	0.3075	0.0051	0.082
Mof_C 	C 	0.2333	0.3553	0.9648	0.082
Mof_C 	C 	0.1494	0.3789	0.96926	-0.018
Mof_C 	C 	0.1354	0.4026	0.9991	-0.087
Mof_H 	H 	0.1803	0.4056	0.016	0.034
Mof_C 	C 	0.0548	0.4215	0.0033	0.019
Mof_H 	H 	0.0461	0.4358	0.0235	-0.004
Mof_C 	C 	0.0041	0.4023	0.9511	0.006
Mof_H 	H 	0.9596	0.4036	0.9339	0.003
Mof_C 	C 	0.0821	0.3814	0.9443	-0.098
Mof_H 	H 	0.0891	0.3693	0.9233	0.027
Mof_Cu	Cu	0.25423	0.38187	0.82891	0.75
Mof_Cu	Cu	0.93604	0.86406	0.91089	0.748
Mof_Cu	Cu	0.43751	0.40526	0.84332	0.743
Mof_Cu	Cu	0.32458	0.28572	0.86916	0.759
Mof_Cu	Cu	0.24849	0.41179	0.90327	0.766
Mof_Cu	Cu	0.79313	0.51169	0.83052	0.844
Mof_Cu	Cu	0.12317	0.62229	0.00605	0.841
Mof_Cu	Cu	0.8342	0.97149	0.06869	0.828
Mof_N 	N 	0.1042	0.1967	0.76265	-0.238
Mof_N 	N 	0.3297	0.3382	0.80527	-0.268
Mof_N 	N 	0.4143	0.3531	0.81168	-0.274
Mof_N 	N 	0.7397	0.3157	0.8148	-0.13
Mof_N 	N 	0.8953	0.4561	0.83584	-0.227
Mof_N 	N 	0.1685	0.3397	0.85395	-0.258
Mof_N 	N 	0.2054	0.2941	0.86636	-0.269
Mof_N 	N 	0.1745	0.1111	0.9182	-0.257
Mof_N 	N 	0.2351	0.5138	0.71927	-0.238
Mof_N 	N 	0.2403	0.4552	0.84012	-0.262
Mof_N 	N 	0.2255	0.465	0.87197	-0.258
Mof_N 	N 	0.15	0.5869	0.96432	-0.244
Mof_N 	N 	0.8657	0.9751	0.02428	-0.266
Mof_N 	N 	0.9428	0.9396	0.90678	-0.276
Mof_N 	N 	0.9543	0.9566	0.87581	-0.27
Mof_N 	N 	0.9785	0.1015	0.78937	-0.231
Mof_N 	N 	0.283	0.8549	0.95938	-0.257
Mof_N 	N 	0.9961	0.8065	0.89133	-0.259
Mof_N 	N 	0.9418	0.7701	0.87516	-0.264
Mof_N 	N 	0.8656	0.5824	0.84011	-0.227
Mof_N 	N 	0.0437	0.6902	0.99366	-0.217
Mof_N 	N 	0.8459	0.8344	0.93928	-0.253
Mof_N 	N 	0.7724	0.864	0.93765	-0.265
Mof_N 	N 	0.4883	0.9203	0.9797	-0.216
Mof_C 	C 	0.1672	0.2778	0.7829	-0.111
Mof_H 	H 	0.1584	0.3112	0.7909	0.024
Mof_C 	C 	0.0977	0.2448	0.7751	0.055
Mof_H 	H 	0.0431	0.2567	0.7786	-0.011
Mof_C 	C 	0.1839	0.1822	0.7578	0.059
Mof_H 	H 	0.1909	0.1495	0.7485	-0.015
Mof_C 	C 	0.2568	0.2124	0.7655	-0.117
Mof_H 	H 	0.3108	0.1998	0.7617	0.065
Mof_C 	C 	0.2488	0.2614	0.77896	0.011
Mof_C 	C 	0.328	0.2921	0.7888	0.046
Mof_C 	C 	0.4123	0.2774	0.7849	-0.134
Mof_H 	H 	0.4297	0.2477	0.7743	0.072
Mof_C 	C 	0.4649	0.316	0.80006	0.059
Mof_C 	C 	0.559	0.3179	0.805	0.014
Mof_C 	C 	0.6056	0.2719	0.8042	-0.109
Mof_H 	H 	0.5762	0.2406	0.7997	0.063
Mof_C 	C 	0.693	0.2713	0.8097	0.059
Mof_H 	H 	0.7217	0.2394	0.81	0.011
Mof_C 	C 	0.6959	0.3587	0.8164	0.062
Mof_H 	H 	0.726	0.3897	0.821	-0.011
Mof_C 	C 	0.6044	0.3606	0.8117	-0.116
Mof_H 	H 	0.5763	0.3924	0.8134	0.006
Mof_C 	C 	0.0316	0.4187	0.8271	-0.123
Mof_H 	H 	0.0814	0.4212	0.8166	0.034
Mof_C 	C 	0.9663	0.4561	0.8214	0.078
Mof_H 	H 	0.9736	0.4826	0.8063	-0.011
Mof_C 	C 	0.8851	0.4173	0.8571	0.047
Mof_H 	H 	0.836	0.4171	0.8681	-0.013
Mof_C 	C 	0.9452	0.3774	0.8633	-0.096
Mof_H 	H 	0.9344	0.3501	0.8773	0.06
Mof_C 	C 	0.0213	0.3781	0.8487	-0.002
Mof_C 	C 	0.0831	0.3361	0.8566	0.064
Mof_C 	C 	0.0654	0.2887	0.87	-0.14
Mof_H 	H 	0.0117	0.2761	0.8742	0.07
Mof_C 	C 	0.1433	0.2635	0.8759	0.055
Mof_C 	C 	0.1586	0.211	0.8903	0.053
Mof_C 	C 	0.0988	0.1748	0.8852	-0.177
Mof_H 	H 	0.0486	0.1813	0.8713	0.083
Mof_C 	C 	0.1114	0.1263	0.901	0.127
Mof_H 	H 	0.0656	0.1028	0.8977	-0.053
Mof_C 	C 	0.2348	0.1445	0.9215	0.091
Mof_H 	H 	0.2866	0.1345	0.9333	-0.024
Mof_C 	C 	0.2298	0.197	0.9083	-0.151
Mof_H 	H 	0.2757	0.2202	0.9125	0.029
Mof_C 	C 	0.2847	0.4733	0.7707	-0.107
Mof_H 	H 	0.3207	0.4485	0.7817	0.002
Mof_C 	C 	0.2822	0.4785	0.7372	0.051
Mof_H 	H 	0.3157	0.4558	0.7262	-0.017
Mof_C 	C 	0.1897	0.5466	0.7365	0.046
Mof_H 	H 	0.1573	0.5728	0.7252	-0.009
Mof_C 	C 	0.189	0.5435	0.7697	-0.105
Mof_H 	H 	0.1575	0.5678	0.7804	0.059
Mof_C 	C 	0.2343	0.5046	0.78799	-0.004
Mof_C 	C 	0.2286	0.5002	0.82311	0.07
Mof_C 	C 	0.2063	0.5393	0.84391	-0.141
Mof_H 	H 	0.1947	0.5742	0.8386	0.073
Mof_C 	C 	0.2049	0.5156	0.87442	0.071
Mof_C 	C 	0.186	0.5399	0.90588	0.01
Mof_C 	C 	0.208	0.5908	0.91265	-0.121
Mof_H 	H 	0.235	0.6105	0.8976	0.062
Mof_C 	C 	0.1895	0.6129	0.9423	0.059
Mof_H 	H 	0.2056	0.6474	0.9467	-0.024
Mof_C 	C 	0.1278	0.537	0.9575	0.049
Mof_H 	H 	0.0997	0.5181	0.9726	-0.013
Mof_C 	C 	0.1454	0.5129	0.9287	-0.119
Mof_H 	H 	0.1296	0.4782	0.9247	0.028
Mof_C 	C 	0.9335	0.9369	0.97954	-0.117
Mof_H 	H 	0.9644	0.9091	0.972	0.023
Mof_C 	C 	0.9097	0.9367	0.0114	0.062
Mof_H 	H 	0.9255	0.9079	0.0246	-0.016
Mof_C 	C 	0.8473	0.0155	0.0047	0.085
Mof_H 	H 	0.8187	0.0435	0.0131	-0.048
Mof_C 	C 	0.8665	0.0195	0.9734	-0.142
Mof_H 	H 	0.8506	0.0493	0.9612	0.07
Mof_C 	C 	0.9102	0.9793	0.95926	0.005
Mof_C 	C 	0.9296	0.9824	0.92492	0.031
Mof_C 	C 	0.9299	0.0271	0.90543	-0.148
Mof_H 	H 	0.9206	0.0614	0.9117	0.069
Mof_C 	C 	0.9468	0.0096	0.87475	0.046
Mof_C 	C 	0.9579	0.0398	0.84481	0.022
Mof_C 	C 	0.9191	0.0891	0.84022	-0.124
Mof_H 	H 	0.8851	0.1024	0.8556	0.067
Mof_C 	C 	0.9322	0.1177	0.8125	0.069
Mof_H 	H 	0.9066	0.1505	0.81	-0.017
Mof_C 	C 	0.0176	0.0548	0.7945	0.045
Mof_H 	H 	0.0534	0.0432	0.7793	-0.019
Mof_C 	C 	0.0072	0.0234	0.8212	-0.139
Mof_H 	H 	0.0339	0.9909	0.8231	0.021
Mof_C 	C 	0.1688	0.8625	0.9157	-0.146
Mof_H 	H 	0.1379	0.8843	0.9004	0.03
Mof_C 	C 	0.2383	0.8823	0.9365	0.082
Mof_H 	H 	0.2537	0.9171	0.9339	-0.054
Mof_C 	C 	0.2626	0.805	0.9607	0.065
Mof_H 	H 	0.2955	0.784	0.9759	-0.027
Mof_C 	C 	0.1963	0.782	0.9412	-0.127
Mof_H 	H 	0.1846	0.7466	0.9437	0.063
Mof_C 	C 	0.146	0.8114	0.9175	0.017
Mof_C 	C 	0.0747	0.7848	0.89744	0.063
Mof_C 	C 	0.0731	0.734	0.8855	-0.149
Mof_H 	H 	0.1188	0.7104	0.8865	0.076
Mof_C 	C 	0.9886	0.7257	0.87155	0.083
Mof_C 	C 	0.9476	0.677	0.85928	-0.001
Mof_C 	C 	0.9856	0.6294	0.8653	-0.096
Mof_H 	H 	0.0409	0.6278	0.8765	0.054
Mof_C 	C 	0.945	0.5846	0.8553	0.055
Mof_H 	H 	0.9747	0.5533	0.8595	-0.004
Mof_C 	C 	0.8277	0.6278	0.8347	0.056
Mof_H 	H 	0.7711	0.6282	0.8246	-0.018
Mof_C 	C 	0.8662	0.6745	0.8429	-0.102
Mof_H 	H 	0.8365	0.7053	0.8373	0.005
Mof_C 	C 	0.9486	0.7355	0.9537	-0.089
Mof_H 	H 	0.9261	0.7387	0.9318	0.029
Mof_C 	C 	0.0097	0.6982	0.9625	0.034
Mof_H 	H 	0.0285	0.6773	0.9461	-0.004
Mof_C 	C 	0.0179	0.722	0.016	0.046
Mof_H 	H 	0.0424	0.7186	0.0377	-0.008
Mof_C 	C 	0.955	0.7607	0.0084	-0.093
Mof_H 	H 	0.937	0.7813	0.0252	0.059
Mof_C 	C 	0.9201	0.7683	0.97668	-0.003
Mof_C 	C 	0.8508	0.8073	0.9679	0.073
Mof_C 	C 	0.7811	0.8201	0.98475	-0.151
Mof_H 	H 	0.7693	0.8075	0.0051	0.083
Mof_C 	C 	0.7333	0.8553	0.9648	0.079
Mof_C 	C 	0.6494	0.8789	0.96926	-0.005
Mof_C 	C 	0.6354	0.9026	0.9991	-0.1
Mof_H 	H 	0.6803	0.9056	0.016	0.039
Mof_C 	C 	0.5548	0.9215	0.0033	0.035
Mof_H 	H 	0.5461	0.9358	0.0235	-0.007
Mof_C 	C 	0.5041	0.9023	0.9511	0.041
Mof_H 	H 	0.4596	0.9036	0.9339	-0.013
Mof_C 	C 	0.5821	0.8814	0.9443	-0.118
Mof_H 	H 	0.5891	0.8693	0.9233	0.035
Mof_Cu	Cu	0.24577	0.88187	0.67109	0.75
Mof_Cu	Cu	0.56396	0.36406	0.58911	0.747
Mof_Cu	Cu	0.06249	0.90526	0.65668	0.742
Mof_Cu	Cu	0.17542	0.78572	0.63084	0.759
Mof_Cu	Cu	0.25151	0.91179	0.59673	0.766
Mof_Cu	Cu	0.70687	0.01169	0.66948	0.844
Mof_Cu	Cu	0.37683	0.12229	0.49395	0.841
Mof_Cu	Cu	0.6658	0.47149	0.43131	0.827
Mof_N 	N 	0.3958	0.6967	0.73735	-0.237
Mof_N 	N 	0.1703	0.8382	0.69473	-0.268
Mof_N 	N 	0.0857	0.8531	0.68832	-0.273
Mof_N 	N 	0.7603	0.8157	0.6852	-0.133
Mof_N 	N 	0.6047	0.9561	0.66416	-0.227
Mof_N 	N 	0.3315	0.8397	0.64605	-0.258
Mof_N 	N 	0.2946	0.7941	0.63364	-0.269
Mof_N 	N 	0.3255	0.6111	0.5818	-0.257
Mof_N 	N 	0.2649	0.0138	0.78073	-0.238
Mof_N 	N 	0.2597	0.9552	0.65988	-0.262
Mof_N 	N 	0.2745	0.965	0.62803	-0.257
Mof_N 	N 	0.35	0.0869	0.53568	-0.244
Mof_N 	N 	0.6343	0.4751	0.47572	-0.267
Mof_N 	N 	0.5572	0.4396	0.59322	-0.277
Mof_N 	N 	0.5457	0.4566	0.62419	-0.272
Mof_N 	N 	0.5215	0.6015	0.71063	-0.236
Mof_N 	N 	0.217	0.3549	0.54062	-0.257
Mof_N 	N 	0.5039	0.3065	0.60867	-0.263
Mof_N 	N 	0.5582	0.2701	0.62484	-0.262
Mof_N 	N 	0.6344	0.0824	0.65989	-0.232
Mof_N 	N 	0.4563	0.1902	0.50634	-0.223
Mof_N 	N 	0.6541	0.3344	0.56072	-0.251
Mof_N 	N 	0.7276	0.364	0.56235	-0.264
Mof_N 	N 	0.0117	0.4203	0.5203	-0.231
Mof_C 	C 	0.3328	0.7778	0.7171	-0.111
Mof_H 	H 	0.3416	0.8112	0.7091	0.024
Mof_C 	C 	0.4023	0.7448	0.7249	0.056
Mof_H 	H 	0.4569	0.7567	0.7214	-0.009
Mof_C 	C 	0.3161	0.6822	0.7422	0.06
Mof_H 	H 	0.3091	0.6495	0.7515	-0.015
Mof_C 	C 	0.2432	0.7124	0.7345	-0.118
Mof_H 	H 	0.1892	0.6998	0.7383	0.064
Mof_C 	C 	0.2512	0.7614	0.72104	0.012
Mof_C 	C 	0.172	0.7921	0.7112	0.044
Mof_C 	C 	0.0877	0.7774	0.7151	-0.127
Mof_H 	H 	0.0703	0.7477	0.7257	0.067
Mof_C 	C 	0.0351	0.816	0.69994	0.045
Mof_C 	C 	0.941	0.8179	0.695	0.032
Mof_C 	C 	0.8944	0.7719	0.6958	-0.119
Mof_H 	H 	0.9238	0.7406	0.7003	0.069
Mof_C 	C 	0.807	0.7713	0.6903	0.065
Mof_H 	H 	0.7783	0.7394	0.69	0.009
Mof_C 	C 	0.8041	0.8587	0.6836	0.068
Mof_H 	H 	0.774	0.8897	0.679	-0.013
Mof_C 	C 	0.8956	0.8606	0.6883	-0.127
Mof_H 	H 	0.9237	0.8924	0.6866	0.012
Mof_C 	C 	0.4684	0.9187	0.6729	-0.112
Mof_H 	H 	0.4186	0.9212	0.6834	0.032
Mof_C 	C 	0.5337	0.9561	0.6786	0.066
Mof_H 	H 	0.5264	0.9826	0.6937	-0.009
Mof_C 	C 	0.6149	0.9173	0.6429	0.05
Mof_H 	H 	0.664	0.9171	0.6319	-0.014
Mof_C 	C 	0.5548	0.8774	0.6367	-0.108
Mof_H 	H 	0.5656	0.8501	0.6227	0.062
Mof_C 	C 	0.4787	0.8781	0.6513	0.006
Mof_C 	C 	0.4169	0.8361	0.6434	0.063
Mof_C 	C 	0.4346	0.7887	0.63	-0.139
Mof_H 	H 	0.4883	0.7761	0.6258	0.072
Mof_C 	C 	0.3567	0.7635	0.6241	0.055
Mof_C 	C 	0.3414	0.711	0.6097	0.053
Mof_C 	C 	0.4012	0.6748	0.6148	-0.177
Mof_H 	H 	0.4514	0.6813	0.6287	0.084
Mof_C 	C 	0.3886	0.6263	0.599	0.127
Mof_H 	H 	0.4344	0.6028	0.6023	-0.05
Mof_C 	C 	0.2652	0.6445	0.5785	0.092
Mof_H 	H 	0.2134	0.6345	0.5667	-0.024
Mof_C 	C 	0.2702	0.697	0.5917	-0.151
Mof_H 	H 	0.2243	0.7202	0.5875	0.028
Mof_C 	C 	0.2153	0.9733	0.7293	-0.107
Mof_H 	H 	0.1793	0.9485	0.7183	0.002
Mof_C 	C 	0.2178	0.9785	0.7628	0.051
Mof_H 	H 	0.1843	0.9558	0.7738	-0.017
Mof_C 	C 	0.3103	0.0466	0.7635	0.046
Mof_H 	H 	0.3427	0.0728	0.7748	-0.008
Mof_C 	C 	0.311	0.0435	0.7303	-0.105
Mof_H 	H 	0.3425	0.0678	0.7196	0.06
Mof_C 	C 	0.2657	0.0046	0.71201	-0.003
Mof_C 	C 	0.2714	0.0002	0.67689	0.071
Mof_C 	C 	0.2937	0.0393	0.65609	-0.14
Mof_H 	H 	0.3053	0.0742	0.6614	0.073
Mof_C 	C 	0.2951	0.0156	0.62558	0.072
Mof_C 	C 	0.314	0.0399	0.59412	0.01
Mof_C 	C 	0.292	0.0908	0.58735	-0.121
Mof_H 	H 	0.265	0.1105	0.6024	0.062
Mof_C 	C 	0.3105	0.1129	0.5577	0.059
Mof_H 	H 	0.2944	0.1474	0.5533	-0.024
Mof_C 	C 	0.3722	0.037	0.5425	0.05
Mof_H 	H 	0.4003	0.0181	0.5274	-0.012
Mof_C 	C 	0.3546	0.0129	0.5713	-0.119
Mof_H 	H 	0.3704	0.9782	0.5753	0.029
Mof_C 	C 	0.5665	0.4369	0.52046	-0.117
Mof_H 	H 	0.5356	0.4091	0.528	0.022
Mof_C 	C 	0.5903	0.4367	0.4886	0.06
Mof_H 	H 	0.5745	0.4079	0.4754	-0.017
Mof_C 	C 	0.6527	0.5155	0.4953	0.083
Mof_H 	H 	0.6813	0.5435	0.4869	-0.049
Mof_C 	C 	0.6335	0.5195	0.5266	-0.142
Mof_H 	H 	0.6494	0.5493	0.5388	0.07
Mof_C 	C 	0.5898	0.4793	0.54074	0.004
Mof_C 	C 	0.5704	0.4824	0.57508	0.03
Mof_C 	C 	0.5701	0.5271	0.59457	-0.15
Mof_H 	H 	0.5794	0.5614	0.5883	0.068
Mof_C 	C 	0.5532	0.5096	0.62525	0.048
Mof_C 	C 	0.5421	0.5398	0.65519	0.009
Mof_C 	C 	0.5809	0.5891	0.65978	-0.12
Mof_H 	H 	0.6149	0.6024	0.6444	0.064
Mof_C 	C 	0.5678	0.6177	0.6875	0.064
Mof_H 	H 	0.5934	0.6505	0.69	-0.017
Mof_C 	C 	0.4824	0.5548	0.7055	0.049
Mof_H 	H 	0.4466	0.5432	0.7207	-0.019
Mof_C 	C 	0.4928	0.5234	0.6788	-0.125
Mof_H 	H 	0.4661	0.4909	0.6769	0.019
Mof_C 	C 	0.3312	0.3625	0.5843	-0.147
Mof_H 	H 	0.3621	0.3843	0.5996	0.032
Mof_C 	C 	0.2617	0.3823	0.5635	0.082
Mof_H 	H 	0.2463	0.4171	0.5661	-0.054
Mof_C 	C 	0.2374	0.305	0.5393	0.065
Mof_H 	H 	0.2045	0.284	0.5241	-0.027
Mof_C 	C 	0.3037	0.282	0.5588	-0.127
Mof_H 	H 	0.3154	0.2466	0.5563	0.063
Mof_C 	C 	0.354	0.3114	0.5825	0.018
Mof_C 	C 	0.4253	0.2848	0.60256	0.066
Mof_C 	C 	0.4269	0.234	0.6145	-0.134
Mof_H 	H 	0.3812	0.2104	0.6135	0.072
Mof_C 	C 	0.5114	0.2257	0.62845	0.066
Mof_C 	C 	0.5524	0.177	0.64072	0.016
Mof_C 	C 	0.5144	0.1294	0.6347	-0.128
Mof_H 	H 	0.4591	0.1278	0.6235	0.071
Mof_C 	C 	0.555	0.0846	0.6447	0.071
Mof_H 	H 	0.5253	0.0533	0.6405	-0.012
Mof_C 	C 	0.6723	0.1278	0.6653	0.063
Mof_H 	H 	0.7289	0.1282	0.6754	-0.021
Mof_C 	C 	0.6338	0.1745	0.6571	-0.115
Mof_H 	H 	0.6635	0.2053	0.6627	0.01
Mof_C 	C 	0.5514	0.2355	0.5463	-0.118
Mof_H 	H 	0.5739	0.2387	0.5682	0.038
Mof_C 	C 	0.4903	0.1982	0.5375	0.059
Mof_H 	H 	0.4715	0.1773	0.5539	-0.01
Mof_C 	C 	0.4821	0.222	0.484	0.068
Mof_H 	H 	0.4576	0.2186	0.4623	-0.013
Mof_C 	C 	0.545	0.2607	0.4916	-0.12
Mof_H 	H 	0.563	0.2813	0.4748	0.067
Mof_C 	C 	0.5799	0.2683	0.52332	0.015
Mof_C 	C 	0.6492	0.3073	0.5321	0.065
Mof_C 	C 	0.7189	0.3201	0.51525	-0.143
Mof_H 	H 	0.7307	0.3075	0.4949	0.08
Mof_C 	C 	0.7667	0.3553	0.5352	0.072
Mof_C 	C 	0.8506	0.3789	0.53074	0.008
Mof_C 	C 	0.8646	0.4026	0.5009	-0.112
Mof_H 	H 	0.8197	0.4056	0.484	0.044
Mof_C 	C 	0.9452	0.4215	0.4967	0.052
Mof_H 	H 	0.9539	0.4358	0.4765	-0.01
Mof_C 	C 	0.9959	0.4023	0.5489	0.076
Mof_H 	H 	0.0404	0.4036	0.5661	-0.03
Mof_C 	C 	0.9179	0.3814	0.5557	-0.139
Mof_H 	H 	0.9109	0.3693	0.5767	0.044
Mof_Cu	Cu	0.74577	0.38187	0.67109	0.75
Mof_Cu	Cu	0.06396	0.86406	0.58911	0.746
Mof_Cu	Cu	0.56249	0.40526	0.65668	0.743
Mof_Cu	Cu	0.67542	0.28572	0.63084	0.759
Mof_Cu	Cu	0.75151	0.41179	0.59673	0.766
Mof_Cu	Cu	0.20687	0.51169	0.66948	0.843
Mof_Cu	Cu	0.87683	0.62229	0.49395	0.842
Mof_Cu	Cu	0.1658	0.97149	0.43131	0.826
Mof_N 	N 	0.8958	0.1967	0.73735	-0.235
Mof_N 	N 	0.6703	0.3382	0.69473	-0.268
Mof_N 	N 	0.5857	0.3531	0.68832	-0.274
Mof_N 	N 	0.2603	0.3157	0.6852	-0.131
Mof_N 	N 	0.1047	0.4561	0.66416	-0.226
Mof_N 	N 	0.8315	0.3397	0.64605	-0.257
Mof_N 	N 	0.7946	0.2941	0.63364	-0.269
Mof_N 	N 	0.8255	0.1111	0.5818	-0.257
Mof_N 	N 	0.7649	0.5138	0.78073	-0.238
Mof_N 	N 	0.7597	0.4552	0.65988	-0.262
Mof_N 	N 	0.7745	0.465	0.62803	-0.257
Mof_N 	N 	0.85	0.5869	0.53568	-0.244
Mof_N 	N 	0.1343	0.9751	0.47572	-0.267
Mof_N 	N 	0.0572	0.9396	0.59322	-0.277
Mof_N 	N 	0.0457	0.9566	0.62419	-0.274
Mof_N 	N 	0.0215	0.1015	0.71063	-0.239
Mof_N 	N 	0.717	0.8549	0.54062	-0.257
Mof_N 	N 	0.0039	0.8065	0.60867	-0.267
Mof_N 	N 	0.0582	0.7701	0.62484	-0.26
Mof_N 	N 	0.1344	0.5824	0.65989	-0.236
Mof_N 	N 	0.9563	0.6902	0.50634	-0.229
Mof_N 	N 	0.1541	0.8344	0.56072	-0.251
Mof_N 	N 	0.2276	0.864	0.56235	-0.265
Mof_N 	N 	0.5117	0.9203	0.5203	-0.216
Mof_C 	C 	0.8328	0.2778	0.7171	-0.109
Mof_H 	H 	0.8416	0.3112	0.7091	0.024
Mof_C 	C 	0.9023	0.2448	0.7249	0.056
Mof_H 	H 	0.9569	0.2567	0.7214	-0.006
Mof_C 	C 	0.8161	0.1822	0.7422	0.06
Mof_H 	H 	0.8091	0.1495	0.7515	-0.014
Mof_C 	C 	0.7432	0.2124	0.7345	-0.117
Mof_H 	H 	0.6892	0.1998	0.7383	0.065
Mof_C 	C 	0.7512	0.2614	0.72104	0.011
Mof_C 	C 	0.672	0.2921	0.7112	0.046
Mof_C 	C 	0.5877	0.2774	0.7151	-0.134
Mof_H 	H 	0.5703	0.2477	0.7257	0.072
Mof_C 	C 	0.5351	0.316	0.69994	0.059
Mof_C 	C 	0.441	0.3179	0.695	0.015
Mof_C 	C 	0.3944	0.2719	0.6958	-0.109
Mof_H 	H 	0.4238	0.2406	0.7003	0.063
Mof_C 	C 	0.307	0.2713	0.6903	0.059
Mof_H 	H 	0.2783	0.2394	0.69	0.01
Mof_C 	C 	0.3041	0.3587	0.6836	0.062
Mof_H 	H 	0.274	0.3897	0.679	-0.012
Mof_C 	C 	0.3956	0.3606	0.6883	-0.116
Mof_H 	H 	0.4237	0.3924	0.6866	0.006
Mof_C 	C 	0.9684	0.4187	0.6729	-0.101
Mof_H 	H 	0.9186	0.4212	0.6834	0.03
Mof_C 	C 	0.0337	0.4561	0.6786	0.054
Mof_H 	H 	0.0264	0.4826	0.6937	-0.008
Mof_C 	C 	0.1149	0.4173	0.6429	0.053
Mof_H 	H 	0.164	0.4171	0.6319	-0.016
Mof_C 	C 	0.0548	0.3774	0.6367	-0.12
Mof_H 	H 	0.0656	0.3501	0.6227	0.063
Mof_C 	C 	0.9787	0.3781	0.6513	0.013
Mof_C 	C 	0.9169	0.3361	0.6434	0.062
Mof_C 	C 	0.9346	0.2887	0.63	-0.138
Mof_H 	H 	0.9883	0.2761	0.6258	0.074
Mof_C 	C 	0.8567	0.2635	0.6241	0.055
Mof_C 	C 	0.8414	0.211	0.6097	0.054
Mof_C 	C 	0.9012	0.1748	0.6148	-0.176
Mof_H 	H 	0.9514	0.1813	0.6287	0.086
Mof_C 	C 	0.8886	0.1263	0.599	0.127
Mof_H 	H 	0.9344	0.1028	0.6023	-0.048
Mof_C 	C 	0.7652	0.1445	0.5785	0.092
Mof_H 	H 	0.7134	0.1345	0.5667	-0.024
Mof_C 	C 	0.7702	0.197	0.5917	-0.151
Mof_H 	H 	0.7243	0.2202	0.5875	0.029
Mof_C 	C 	0.7153	0.4733	0.7293	-0.107
Mof_H 	H 	0.6793	0.4485	0.7183	0.003
Mof_C 	C 	0.7178	0.4785	0.7628	0.051
Mof_H 	H 	0.6843	0.4558	0.7738	-0.017
Mof_C 	C 	0.8103	0.5466	0.7635	0.047
Mof_H 	H 	0.8427	0.5728	0.7748	-0.008
Mof_C 	C 	0.811	0.5435	0.7303	-0.105
Mof_H 	H 	0.8425	0.5678	0.7196	0.061
Mof_C 	C 	0.7657	0.5046	0.71201	-0.003
Mof_C 	C 	0.7714	0.5002	0.67689	0.071
Mof_C 	C 	0.7937	0.5393	0.65609	-0.14
Mof_H 	H 	0.8053	0.5742	0.6614	0.074
Mof_C 	C 	0.7951	0.5156	0.62558	0.072
Mof_C 	C 	0.814	0.5399	0.59412	0.011
Mof_C 	C 	0.792	0.5908	0.58735	-0.121
Mof_H 	H 	0.765	0.6105	0.6024	0.062
Mof_C 	C 	0.8105	0.6129	0.5577	0.06
Mof_H 	H 	0.7944	0.6474	0.5533	-0.024
Mof_C 	C 	0.8722	0.537	0.5425	0.051
Mof_H 	H 	0.9003	0.5181	0.5274	-0.011
Mof_C 	C 	0.8546	0.5129	0.5713	-0.118
Mof_H 	H 	0.8704	0.4782	0.5753	0.03
Mof_C 	C 	0.0665	0.9369	0.52046	-0.117
Mof_H 	H 	0.0356	0.9091	0.528	0.02
Mof_C 	C 	0.0903	0.9367	0.4886	0.058
Mof_H 	H 	0.0745	0.9079	0.4754	-0.018
Mof_C 	C 	0.1527	0.0155	0.4953	0.082
Mof_H 	H 	0.1813	0.0435	0.4869	-0.049
Mof_C 	C 	0.1335	0.0195	0.5266	-0.142
Mof_H 	H 	0.1494	0.0493	0.5388	0.069
Mof_C 	C 	0.0898	0.9793	0.54074	0.002
Mof_C 	C 	0.0704	0.9824	0.57508	0.03
Mof_C 	C 	0.0701	0.0271	0.59457	-0.153
Mof_H 	H 	0.0794	0.0614	0.5883	0.068
Mof_C 	C 	0.0532	0.0096	0.62525	0.05
Mof_C 	C 	0.0421	0.0398	0.65519	-0.004
Mof_C 	C 	0.0809	0.0891	0.65978	-0.115
Mof_H 	H 	0.1149	0.1024	0.6444	0.062
Mof_C 	C 	0.0678	0.1177	0.6875	0.059
Mof_H 	H 	0.0934	0.1505	0.69	-0.017
Mof_C 	C 	0.9824	0.0548	0.7055	0.052
Mof_H 	H 	0.9466	0.0432	0.7207	-0.018
Mof_C 	C 	0.9928	0.0234	0.6788	-0.111
Mof_H 	H 	0.9661	0.9909	0.6769	0.016
Mof_C 	C 	0.8312	0.8625	0.5843	-0.146
Mof_H 	H 	0.8621	0.8843	0.5996	0.034
Mof_C 	C 	0.7617	0.8823	0.5635	0.083
Mof_H 	H 	0.7463	0.9171	0.5661	-0.054
Mof_C 	C 	0.7374	0.805	0.5393	0.066
Mof_H 	H 	0.7045	0.784	0.5241	-0.027
Mof_C 	C 	0.8037	0.782	0.5588	-0.127
Mof_H 	H 	0.8154	0.7466	0.5563	0.064
Mof_C 	C 	0.854	0.8114	0.5825	0.02
Mof_C 	C 	0.9253	0.7848	0.60256	0.068
Mof_C 	C 	0.9269	0.734	0.6145	-0.119
Mof_H 	H 	0.8812	0.7104	0.6135	0.067
Mof_C 	C 	0.0114	0.7257	0.62845	0.048
Mof_C 	C 	0.0524	0.677	0.64072	0.033
Mof_C 	C 	0.0144	0.6294	0.6347	-0.16
Mof_H 	H 	0.9591	0.6278	0.6235	0.087
Mof_C 	C 	0.055	0.5846	0.6447	0.087
Mof_H 	H 	0.0253	0.5533	0.6405	-0.02
Mof_C 	C 	0.1723	0.6278	0.6653	0.07
Mof_H 	H 	0.2289	0.6282	0.6754	-0.023
Mof_C 	C 	0.1338	0.6745	0.6571	-0.127
Mof_H 	H 	0.1635	0.7053	0.6627	0.014
Mof_C 	C 	0.0514	0.7355	0.5463	-0.146
Mof_H 	H 	0.0739	0.7387	0.5682	0.046
Mof_C 	C 	0.9903	0.6982	0.5375	0.082
Mof_H 	H 	0.9715	0.6773	0.5539	-0.016
Mof_C 	C 	0.9821	0.722	0.484	0.09
Mof_H 	H 	0.9576	0.7186	0.4623	-0.018
Mof_C 	C 	0.045	0.7607	0.4916	-0.146
Mof_H 	H 	0.063	0.7813	0.4748	0.074
Mof_C 	C 	0.0799	0.7683	0.52332	0.032
Mof_C 	C 	0.1492	0.8073	0.5321	0.059
Mof_C 	C 	0.2189	0.8201	0.51525	-0.142
Mof_H 	H 	0.2307	0.8075	0.4949	0.079
Mof_C 	C 	0.2667	0.8553	0.5352	0.076
Mof_C 	C 	0.3506	0.8789	0.53074	-0.004
Mof_C 	C 	0.3646	0.9026	0.5009	-0.1
Mof_H 	H 	0.3197	0.9056	0.484	0.039
Mof_C 	C 	0.4452	0.9215	0.4967	0.035
Mof_H 	H 	0.4539	0.9358	0.4765	-0.007
Mof_C 	C 	0.4959	0.9023	0.5489	0.041
Mof_H 	H 	0.5404	0.9036	0.5661	-0.014
Mof_C 	C 	0.4179	0.8814	0.5557	-0.119
Mof_H 	H 	0.4109	0.8693	0.5767	0.035
Mof_Cu	Cu	0.5	0.35106	0.25	0.847
Mof_Cu	Cu	2.73191e-33	0.85106	0.25	0.843
Mof_Cu	Cu	0.5	0.64894	0.75	0.847
Mof_Cu	Cu	8.19573e-33	0.14894	0.75	0.843
_end
