data_functionalizedCrystal
_audit_creation_method	'EQeq! by Chris Wilmer'
_symmetry_space_group_name_H-M	'P1'
_symmetry_Int_Tables_number	1
_symmetry_cell_setting	triclinic
loop_
_symmetry_equiv_pos_as_xyz
  x,y,z
_cell_length_a	7.6627
_cell_length_b	7.8432
_cell_length_c	9.7695
_cell_angle_alpha	72.092
_cell_angle_beta	83.275
_cell_angle_gamma	84.998
loop_
_atom_site_label
_atom_site_type_symbol
_atom_site_fract_x
_atom_site_fract_y
_atom_site_fract_z
_atom_site_charge
Mof_Mg	Mg	0.37231	0.01672	0.73755	1.474
Mof_Mg	Mg	0.30514	0.71166	0.37331	1.47
Mof_P 	P 	0.41507	0.28097	0.40778	0.622
Mof_O 	O 	0.4899	0.1951	0.55436	-0.664
Mof_O 	O 	0.4168	0.4821	0.36079	-0.494
Mof_O 	O 	0.5093	0.2049	0.29263	-0.476
Mof_O 	O 	0.2147	0.2331	0.4301	-0.508
Mof_H 	H 	0.2046	0.1491	0.3987	0.312
Mof_O 	O 	0.1306	0.9296	0.70125	-0.375
Mof_O 	O 	0.8558	0.0387	0.6569	-0.415
Mof_O 	O 	0.1892	0.2197	0.769	-0.392
Mof_O 	O 	0.9234	0.3394	0.7074	-0.381
Mof_O 	O 	0.5576	0.1356	0.82543	-0.551
Mof_O 	O 	0.6583	0.1227	0.03469	-0.373
Mof_C 	C 	0.0059	0.0447	0.6922	0.23
Mof_C 	C 	0.0421	0.2179	0.7267	0.242
Mof_C 	C 	0.5645	0.0752	0.9606	0.279
Mof_Mg	Mg	0.62769	0.98328	0.26245	1.474
Mof_Mg	Mg	0.69486	0.28834	0.62669	1.47
Mof_P 	P 	0.58493	0.71903	0.59222	0.622
Mof_O 	O 	0.5101	0.8049	0.44564	-0.664
Mof_O 	O 	0.5832	0.5179	0.63921	-0.494
Mof_O 	O 	0.4907	0.7951	0.70737	-0.476
Mof_O 	O 	0.7853	0.7669	0.5699	-0.508
Mof_H 	H 	0.7954	0.8509	0.6013	0.312
Mof_O 	O 	0.8694	0.0704	0.29875	-0.375
Mof_O 	O 	0.1442	0.9613	0.3431	-0.415
Mof_O 	O 	0.8108	0.7803	0.231	-0.392
Mof_O 	O 	0.0766	0.6606	0.2926	-0.381
Mof_O 	O 	0.4424	0.8644	0.17457	-0.551
Mof_O 	O 	0.3417	0.8773	0.96531	-0.373
Mof_C 	C 	0.9941	0.9553	0.3078	0.23
Mof_C 	C 	0.9579	0.7821	0.2733	0.242
Mof_C 	C 	0.4355	0.9248	0.0394	0.279
_end
