data_functionalizedCrystal
_audit_creation_method	'EQeq! by Chris Wilmer'
_symmetry_space_group_name_H-M	'P1'
_symmetry_Int_Tables_number	1
_symmetry_cell_setting	triclinic
loop_
_symmetry_equiv_pos_as_xyz
  x,y,z
_cell_length_a	18.7376
_cell_length_b	18.7376
_cell_length_c	40.9892
_cell_angle_alpha	90
_cell_angle_beta	90
_cell_angle_gamma	120
loop_
_atom_site_label
_atom_site_type_symbol
_atom_site_fract_x
_atom_site_fract_y
_atom_site_fract_z
_atom_site_charge
Mof_O 	O 	0.7038	0.148	0.16483	-0.445
Mof_O 	O 	0.7436	0.1075	0.20896	-0.45
Mof_H 	H 	0.4596	0.0034	0.2968	-0.283
Mof_C 	C 	0.6927	0.119	0.19328	0.383
Mof_C 	C 	0.6138	0.0982	0.2094	-0.069
Mof_C 	C 	0.6001	0.0675	0.24067	-0.046
Mof_H 	H 	0.6398	0.0585	0.2515	0.102
Mof_O 	O 	0.6301	0.027	0.3042	-0.22
Mof_C 	C 	0.5547	0.9936	0.3071	0.545
Mof_C 	C 	0.5309	0.9779	0.3426	0.562
Mof_C 	C 	0.562	0.9359	0.3602	-0.164
Mof_H 	H 	0.6058	0.9301	0.3515	0.123
Mof_C 	C 	0.5289	0.9025	0.3905	-0.233
Mof_H 	H 	0.5501	0.8739	0.4025	0.144
Mof_N 	N 	0.4649	0.9111	0.40325	-0.065
Mof_C 	C 	0.4338	0.9531	0.3857	0.331
Mof_H 	H 	0.3901	0.9589	0.3944	0.042
Mof_C 	C 	0.4669	0.9865	0.3554	-0.508
Mof_H 	H 	0.4457	0.0151	0.3433	-0.086
Mof_O 	O 	0.578	0.949	0.2943	-0.232
Mof_O 	O 	0.37047	0.48133	0.49816	-0.445
Mof_O 	O 	0.41027	0.44083	0.54229	-0.45
Mof_H 	H 	0.12627	0.33673	0.63013	-0.249
Mof_C 	C 	0.35937	0.45233	0.52661	0.382
Mof_C 	C 	0.28047	0.43153	0.54273	-0.068
Mof_C 	C 	0.26677	0.40083	0.574	-0.05
Mof_H 	H 	0.30647	0.39183	0.58483	0.101
Mof_O 	O 	0.29677	0.36033	0.63753	-0.216
Mof_C 	C 	0.22137	0.32693	0.64043	0.505
Mof_C 	C 	0.19757	0.31123	0.67593	0.522
Mof_C 	C 	0.22867	0.26923	0.69353	-0.154
Mof_H 	H 	0.27247	0.26343	0.68483	0.121
Mof_C 	C 	0.19557	0.23583	0.72383	-0.229
Mof_H 	H 	0.21677	0.20723	0.73583	0.142
Mof_N 	N 	0.13157	0.24443	0.73658	-0.061
Mof_C 	C 	0.10047	0.28643	0.71903	0.306
Mof_H 	H 	0.05677	0.29223	0.72773	0.045
Mof_C 	C 	0.13357	0.31983	0.68873	-0.475
Mof_H 	H 	0.11237	0.34843	0.67663	-0.077
Mof_O 	O 	0.24467	0.28233	0.62763	-0.223
Mof_O 	O 	0.03713	0.81467	0.8315	-0.445
Mof_O 	O 	0.07693	0.77417	0.87563	-0.45
Mof_H 	H 	0.79293	0.67007	0.96347	-0.244
Mof_C 	C 	0.02603	0.78567	0.85995	0.385
Mof_C 	C 	0.94713	0.76487	0.87607	-0.071
Mof_C 	C 	0.93343	0.73417	0.90734	-0.048
Mof_H 	H 	0.97313	0.72517	0.91817	0.1
Mof_O 	O 	0.96343	0.69367	0.97087	-0.216
Mof_C 	C 	0.88803	0.66027	0.97377	0.502
Mof_C 	C 	0.86423	0.64457	0.00927	0.517
Mof_C 	C 	0.89533	0.60257	0.02687	-0.152
Mof_H 	H 	0.93913	0.59677	0.01817	0.121
Mof_C 	C 	0.86223	0.56917	0.05717	-0.227
Mof_H 	H 	0.88343	0.54057	0.06917	0.142
Mof_N 	N 	0.79823	0.57777	0.06992	-0.061
Mof_C 	C 	0.76713	0.61977	0.05237	0.309
Mof_H 	H 	0.72343	0.62557	0.06107	0.046
Mof_C 	C 	0.80023	0.65317	0.02207	-0.469
Mof_H 	H 	0.77903	0.68177	0.00997	-0.075
Mof_O 	O 	0.91133	0.61567	0.96097	-0.222
Mof_O 	O 	0.852	0.5558	0.16483	-0.445
Mof_O 	O 	0.8925	0.6361	0.20896	-0.45
Mof_H 	H 	0.9966	0.4562	0.2968	-0.283
Mof_C 	C 	0.881	0.5737	0.19328	0.383
Mof_C 	C 	0.9018	0.5156	0.2094	-0.069
Mof_C 	C 	0.9325	0.5326	0.24067	-0.046
Mof_H 	H 	0.9415	0.5813	0.2515	0.102
Mof_O 	O 	0.973	0.6031	0.3042	-0.22
Mof_C 	C 	0.0064	0.5611	0.3071	0.545
Mof_C 	C 	0.0221	0.553	0.3426	0.562
Mof_C 	C 	0.0641	0.6261	0.3602	-0.164
Mof_H 	H 	0.0699	0.6757	0.3515	0.123
Mof_C 	C 	0.0975	0.6264	0.3905	-0.233
Mof_H 	H 	0.1261	0.6762	0.4025	0.144
Mof_N 	N 	0.0889	0.5538	0.40325	-0.065
Mof_C 	C 	0.0469	0.4807	0.3857	0.331
Mof_H 	H 	0.0411	0.4312	0.3944	0.042
Mof_C 	C 	0.0135	0.4804	0.3554	-0.508
Mof_H 	H 	0.9849	0.4306	0.3433	-0.086
Mof_O 	O 	0.051	0.629	0.2943	-0.233
Mof_O 	O 	0.51867	0.88913	0.49816	-0.446
Mof_O 	O 	0.55917	0.96943	0.54229	-0.45
Mof_H 	H 	0.66327	0.78953	0.63013	-0.246
Mof_C 	C 	0.54767	0.90703	0.52661	0.382
Mof_C 	C 	0.56847	0.84893	0.54273	-0.068
Mof_C 	C 	0.59917	0.86593	0.574	-0.05
Mof_H 	H 	0.60817	0.91463	0.58483	0.102
Mof_O 	O 	0.63967	0.93643	0.63753	-0.215
Mof_C 	C 	0.67307	0.89443	0.64043	0.509
Mof_C 	C 	0.68877	0.88633	0.67593	0.525
Mof_C 	C 	0.73077	0.95943	0.69353	-0.151
Mof_H 	H 	0.73657	0.00903	0.68483	0.118
Mof_C 	C 	0.76417	0.95973	0.72383	-0.218
Mof_H 	H 	0.79277	0.00953	0.73583	0.136
Mof_N 	N 	0.75557	0.88713	0.73658	-0.061
Mof_C 	C 	0.71357	0.81403	0.71903	0.314
Mof_H 	H 	0.70777	0.76453	0.72773	0.045
Mof_C 	C 	0.68017	0.81373	0.68873	-0.472
Mof_H 	H 	0.65157	0.76393	0.67663	-0.076
Mof_O 	O 	0.71767	0.96233	0.62763	-0.223
Mof_O 	O 	0.18533	0.22247	0.8315	-0.446
Mof_O 	O 	0.22583	0.30277	0.87563	-0.45
Mof_H 	H 	0.32993	0.12287	0.96347	-0.243
Mof_C 	C 	0.21433	0.24037	0.85995	0.383
Mof_C 	C 	0.23513	0.18227	0.87607	-0.069
Mof_C 	C 	0.26583	0.19927	0.90734	-0.049
Mof_H 	H 	0.27483	0.24797	0.91817	0.101
Mof_O 	O 	0.30633	0.26977	0.97087	-0.216
Mof_C 	C 	0.33973	0.22777	0.97377	0.503
Mof_C 	C 	0.35543	0.21967	0.00927	0.517
Mof_C 	C 	0.39743	0.29277	0.02687	-0.152
Mof_H 	H 	0.40323	0.34237	0.01817	0.121
Mof_C 	C 	0.43083	0.29307	0.05717	-0.226
Mof_H 	H 	0.45943	0.34287	0.06917	0.142
Mof_N 	N 	0.42223	0.22047	0.06992	-0.061
Mof_C 	C 	0.38023	0.14737	0.05237	0.31
Mof_H 	H 	0.37443	0.09787	0.06107	0.046
Mof_C 	C 	0.34683	0.14707	0.02207	-0.469
Mof_H 	H 	0.31823	0.09727	0.00997	-0.074
Mof_O 	O 	0.38433	0.29567	0.96097	-0.222
Mof_O 	O 	0.4442	0.2962	0.16483	-0.445
Mof_O 	O 	0.3639	0.2564	0.20896	-0.45
Mof_H 	H 	0.5438	0.5404	0.2968	-0.244
Mof_C 	C 	0.4263	0.3073	0.19328	0.382
Mof_C 	C 	0.4844	0.3862	0.2094	-0.068
Mof_C 	C 	0.4674	0.3999	0.24067	-0.05
Mof_H 	H 	0.4187	0.3602	0.2515	0.101
Mof_O 	O 	0.3969	0.3699	0.3042	-0.216
Mof_C 	C 	0.4389	0.4453	0.3071	0.503
Mof_C 	C 	0.447	0.4691	0.3426	0.517
Mof_C 	C 	0.3739	0.438	0.3602	-0.152
Mof_H 	H 	0.3243	0.3942	0.3515	0.12
Mof_C 	C 	0.3736	0.4711	0.3905	-0.227
Mof_H 	H 	0.3238	0.4499	0.4025	0.142
Mof_N 	N 	0.4462	0.5351	0.40325	-0.061
Mof_C 	C 	0.5193	0.5662	0.3857	0.31
Mof_H 	H 	0.5688	0.6099	0.3944	0.045
Mof_C 	C 	0.5196	0.5331	0.3554	-0.469
Mof_H 	H 	0.5694	0.5543	0.3433	-0.075
Mof_O 	O 	0.371	0.422	0.2943	-0.222
Mof_O 	O 	0.11087	0.62953	0.49816	-0.446
Mof_O 	O 	0.03057	0.58973	0.54229	-0.45
Mof_H 	H 	0.21047	0.87373	0.63013	-0.25
Mof_C 	C 	0.09297	0.64063	0.52661	0.382
Mof_C 	C 	0.15107	0.71953	0.54273	-0.068
Mof_C 	C 	0.13407	0.73323	0.574	-0.049
Mof_H 	H 	0.08537	0.69353	0.58483	0.102
Mof_O 	O 	0.06357	0.70323	0.63753	-0.215
Mof_C 	C 	0.10557	0.77863	0.64043	0.51
Mof_C 	C 	0.11367	0.80243	0.67593	0.529
Mof_C 	C 	0.04057	0.77133	0.69353	-0.152
Mof_H 	H 	0.99097	0.72753	0.68483	0.118
Mof_C 	C 	0.04027	0.80443	0.72383	-0.22
Mof_H 	H 	0.99047	0.78323	0.73583	0.138
Mof_N 	N 	0.11287	0.86843	0.73658	-0.062
Mof_C 	C 	0.18597	0.89953	0.71903	0.311
Mof_H 	H 	0.23547	0.94323	0.72773	0.045
Mof_C 	C 	0.18627	0.86643	0.68873	-0.477
Mof_H 	H 	0.23607	0.88763	0.67663	-0.078
Mof_O 	O 	0.03767	0.75533	0.62763	-0.223
Mof_O 	O 	0.77753	0.96287	0.8315	-0.445
Mof_O 	O 	0.69723	0.92307	0.87563	-0.45
Mof_H 	H 	0.87713	0.20707	0.96347	-0.243
Mof_C 	C 	0.75963	0.97397	0.85995	0.385
Mof_C 	C 	0.81773	0.05287	0.87607	-0.072
Mof_C 	C 	0.80073	0.06657	0.90734	-0.047
Mof_H 	H 	0.75203	0.02687	0.91817	0.1
Mof_O 	O 	0.73023	0.03657	0.97087	-0.216
Mof_C 	C 	0.77223	0.11197	0.97377	0.503
Mof_C 	C 	0.78033	0.13577	0.00927	0.517
Mof_C 	C 	0.70723	0.10467	0.02687	-0.152
Mof_H 	H 	0.65763	0.06087	0.01817	0.121
Mof_C 	C 	0.70693	0.13777	0.05717	-0.227
Mof_H 	H 	0.65713	0.11657	0.06917	0.142
Mof_N 	N 	0.77953	0.20177	0.06992	-0.061
Mof_C 	C 	0.85263	0.23287	0.05237	0.31
Mof_H 	H 	0.90213	0.27657	0.06107	0.046
Mof_C 	C 	0.85293	0.19977	0.02207	-0.468
Mof_H 	H 	0.90273	0.22097	0.00997	-0.074
Mof_O 	O 	0.70433	0.08867	0.96097	-0.222
Mof_O 	O 	0.148	0.7038	0.83517	-0.445
Mof_O 	O 	0.1075	0.7436	0.79104	-0.45
Mof_H 	H 	0.0034	0.4596	0.7032	-0.283
Mof_C 	C 	0.119	0.6927	0.80672	0.383
Mof_C 	C 	0.0982	0.6138	0.7906	-0.069
Mof_C 	C 	0.0675	0.6001	0.75933	-0.046
Mof_H 	H 	0.0585	0.6398	0.7485	0.102
Mof_O 	O 	0.027	0.6301	0.6958	-0.22
Mof_C 	C 	0.9936	0.5547	0.6929	0.545
Mof_C 	C 	0.9779	0.5309	0.6574	0.562
Mof_C 	C 	0.9359	0.562	0.6398	-0.164
Mof_H 	H 	0.9301	0.6058	0.6485	0.123
Mof_C 	C 	0.9025	0.5289	0.6095	-0.233
Mof_H 	H 	0.8739	0.5501	0.5975	0.144
Mof_N 	N 	0.9111	0.4649	0.59675	-0.065
Mof_C 	C 	0.9531	0.4338	0.6143	0.331
Mof_H 	H 	0.9589	0.3901	0.6056	0.042
Mof_C 	C 	0.9865	0.4669	0.6446	-0.508
Mof_H 	H 	0.0151	0.4457	0.6567	-0.086
Mof_O 	O 	0.949	0.578	0.7057	-0.232
Mof_O 	O 	0.81467	0.03713	0.1685	-0.445
Mof_O 	O 	0.77417	0.07693	0.12437	-0.45
Mof_H 	H 	0.67007	0.79293	0.03653	-0.244
Mof_C 	C 	0.78567	0.02603	0.14005	0.385
Mof_C 	C 	0.76487	0.94713	0.12393	-0.071
Mof_C 	C 	0.73417	0.93343	0.09266	-0.048
Mof_H 	H 	0.72517	0.97313	0.08183	0.1
Mof_O 	O 	0.69367	0.96343	0.02913	-0.216
Mof_C 	C 	0.66027	0.88803	0.02623	0.502
Mof_C 	C 	0.64457	0.86423	0.99073	0.517
Mof_C 	C 	0.60257	0.89533	0.97313	-0.152
Mof_H 	H 	0.59677	0.93913	0.98183	0.121
Mof_C 	C 	0.56917	0.86223	0.94283	-0.227
Mof_H 	H 	0.54057	0.88343	0.93083	0.142
Mof_N 	N 	0.57777	0.79823	0.93008	-0.061
Mof_C 	C 	0.61977	0.76713	0.94763	0.309
Mof_H 	H 	0.62557	0.72343	0.93893	0.046
Mof_C 	C 	0.65317	0.80023	0.97793	-0.469
Mof_H 	H 	0.68177	0.77903	0.99003	-0.075
Mof_O 	O 	0.61567	0.91133	0.03903	-0.222
Mof_O 	O 	0.48133	0.37047	0.50184	-0.445
Mof_O 	O 	0.44083	0.41027	0.45771	-0.45
Mof_H 	H 	0.33673	0.12627	0.36987	-0.249
Mof_C 	C 	0.45233	0.35937	0.47339	0.382
Mof_C 	C 	0.43153	0.28047	0.45727	-0.068
Mof_C 	C 	0.40083	0.26677	0.426	-0.05
Mof_H 	H 	0.39183	0.30647	0.41517	0.101
Mof_O 	O 	0.36033	0.29677	0.36247	-0.216
Mof_C 	C 	0.32693	0.22137	0.35957	0.505
Mof_C 	C 	0.31123	0.19757	0.32407	0.522
Mof_C 	C 	0.26923	0.22867	0.30647	-0.154
Mof_H 	H 	0.26343	0.27247	0.31517	0.121
Mof_C 	C 	0.23583	0.19557	0.27617	-0.229
Mof_H 	H 	0.20723	0.21677	0.26417	0.142
Mof_N 	N 	0.24443	0.13157	0.26342	-0.061
Mof_C 	C 	0.28643	0.10047	0.28097	0.306
Mof_H 	H 	0.29223	0.05677	0.27227	0.045
Mof_C 	C 	0.31983	0.13357	0.31127	-0.475
Mof_H 	H 	0.34843	0.11237	0.32337	-0.077
Mof_O 	O 	0.28233	0.24467	0.37237	-0.223
Mof_O 	O 	0.5558	0.852	0.83517	-0.445
Mof_O 	O 	0.6361	0.8925	0.79104	-0.45
Mof_H 	H 	0.4562	0.9966	0.7032	-0.283
Mof_C 	C 	0.5737	0.881	0.80672	0.383
Mof_C 	C 	0.5156	0.9018	0.7906	-0.069
Mof_C 	C 	0.5326	0.9325	0.75933	-0.046
Mof_H 	H 	0.5813	0.9415	0.7485	0.102
Mof_O 	O 	0.6031	0.973	0.6958	-0.22
Mof_C 	C 	0.5611	0.0064	0.6929	0.545
Mof_C 	C 	0.553	0.0221	0.6574	0.562
Mof_C 	C 	0.6261	0.0641	0.6398	-0.164
Mof_H 	H 	0.6757	0.0699	0.6485	0.123
Mof_C 	C 	0.6264	0.0975	0.6095	-0.233
Mof_H 	H 	0.6762	0.1261	0.5975	0.144
Mof_N 	N 	0.5538	0.0889	0.59675	-0.065
Mof_C 	C 	0.4807	0.0469	0.6143	0.331
Mof_H 	H 	0.4312	0.0411	0.6056	0.042
Mof_C 	C 	0.4804	0.0135	0.6446	-0.508
Mof_H 	H 	0.4306	0.9849	0.6567	-0.086
Mof_O 	O 	0.629	0.051	0.7057	-0.233
Mof_O 	O 	0.22247	0.18533	0.1685	-0.446
Mof_O 	O 	0.30277	0.22583	0.12437	-0.45
Mof_H 	H 	0.12287	0.32993	0.03653	-0.243
Mof_C 	C 	0.24037	0.21433	0.14005	0.383
Mof_C 	C 	0.18227	0.23513	0.12393	-0.069
Mof_C 	C 	0.19927	0.26583	0.09266	-0.049
Mof_H 	H 	0.24797	0.27483	0.08183	0.101
Mof_O 	O 	0.26977	0.30633	0.02913	-0.216
Mof_C 	C 	0.22777	0.33973	0.02623	0.503
Mof_C 	C 	0.21967	0.35543	0.99073	0.517
Mof_C 	C 	0.29277	0.39743	0.97313	-0.152
Mof_H 	H 	0.34237	0.40323	0.98183	0.121
Mof_C 	C 	0.29307	0.43083	0.94283	-0.226
Mof_H 	H 	0.34287	0.45943	0.93083	0.142
Mof_N 	N 	0.22047	0.42223	0.93008	-0.061
Mof_C 	C 	0.14737	0.38023	0.94763	0.31
Mof_H 	H 	0.09787	0.37443	0.93893	0.046
Mof_C 	C 	0.14707	0.34683	0.97793	-0.469
Mof_H 	H 	0.09727	0.31823	0.99003	-0.074
Mof_O 	O 	0.29567	0.38433	0.03903	-0.222
Mof_O 	O 	0.88913	0.51867	0.50184	-0.446
Mof_O 	O 	0.96943	0.55917	0.45771	-0.45
Mof_H 	H 	0.78953	0.66327	0.36987	-0.246
Mof_C 	C 	0.90703	0.54767	0.47339	0.382
Mof_C 	C 	0.84893	0.56847	0.45727	-0.068
Mof_C 	C 	0.86593	0.59917	0.426	-0.05
Mof_H 	H 	0.91463	0.60817	0.41517	0.102
Mof_O 	O 	0.93643	0.63967	0.36247	-0.215
Mof_C 	C 	0.89443	0.67307	0.35957	0.509
Mof_C 	C 	0.88633	0.68877	0.32407	0.525
Mof_C 	C 	0.95943	0.73077	0.30647	-0.151
Mof_H 	H 	0.00903	0.73657	0.31517	0.118
Mof_C 	C 	0.95973	0.76417	0.27617	-0.218
Mof_H 	H 	0.00953	0.79277	0.26417	0.136
Mof_N 	N 	0.88713	0.75557	0.26342	-0.061
Mof_C 	C 	0.81403	0.71357	0.28097	0.314
Mof_H 	H 	0.76453	0.70777	0.27227	0.045
Mof_C 	C 	0.81373	0.68017	0.31127	-0.472
Mof_H 	H 	0.76393	0.65157	0.32337	-0.076
Mof_O 	O 	0.96233	0.71767	0.37237	-0.223
Mof_O 	O 	0.2962	0.4442	0.83517	-0.445
Mof_O 	O 	0.2564	0.3639	0.79104	-0.45
Mof_H 	H 	0.5404	0.5438	0.7032	-0.244
Mof_C 	C 	0.3073	0.4263	0.80672	0.382
Mof_C 	C 	0.3862	0.4844	0.7906	-0.068
Mof_C 	C 	0.3999	0.4674	0.75933	-0.05
Mof_H 	H 	0.3602	0.4187	0.7485	0.101
Mof_O 	O 	0.3699	0.3969	0.6958	-0.216
Mof_C 	C 	0.4453	0.4389	0.6929	0.503
Mof_C 	C 	0.4691	0.447	0.6574	0.517
Mof_C 	C 	0.438	0.3739	0.6398	-0.152
Mof_H 	H 	0.3942	0.3243	0.6485	0.12
Mof_C 	C 	0.4711	0.3736	0.6095	-0.227
Mof_H 	H 	0.4499	0.3238	0.5975	0.142
Mof_N 	N 	0.5351	0.4462	0.59675	-0.061
Mof_C 	C 	0.5662	0.5193	0.6143	0.31
Mof_H 	H 	0.6099	0.5688	0.6056	0.045
Mof_C 	C 	0.5331	0.5196	0.6446	-0.469
Mof_H 	H 	0.5543	0.5694	0.6567	-0.075
Mof_O 	O 	0.422	0.371	0.7057	-0.222
Mof_O 	O 	0.96287	0.77753	0.1685	-0.445
Mof_O 	O 	0.92307	0.69723	0.12437	-0.45
Mof_H 	H 	0.20707	0.87713	0.03653	-0.243
Mof_C 	C 	0.97397	0.75963	0.14005	0.385
Mof_C 	C 	0.05287	0.81773	0.12393	-0.072
Mof_C 	C 	0.06657	0.80073	0.09266	-0.047
Mof_H 	H 	0.02687	0.75203	0.08183	0.1
Mof_O 	O 	0.03657	0.73023	0.02913	-0.216
Mof_C 	C 	0.11197	0.77223	0.02623	0.503
Mof_C 	C 	0.13577	0.78033	0.99073	0.517
Mof_C 	C 	0.10467	0.70723	0.97313	-0.152
Mof_H 	H 	0.06087	0.65763	0.98183	0.121
Mof_C 	C 	0.13777	0.70693	0.94283	-0.227
Mof_H 	H 	0.11657	0.65713	0.93083	0.142
Mof_N 	N 	0.20177	0.77953	0.93008	-0.061
Mof_C 	C 	0.23287	0.85263	0.94763	0.31
Mof_H 	H 	0.27657	0.90213	0.93893	0.046
Mof_C 	C 	0.19977	0.85293	0.97793	-0.468
Mof_H 	H 	0.22097	0.90273	0.99003	-0.074
Mof_O 	O 	0.08867	0.70433	0.03903	-0.222
Mof_O 	O 	0.62953	0.11087	0.50184	-0.446
Mof_O 	O 	0.58973	0.03057	0.45771	-0.45
Mof_H 	H 	0.87373	0.21047	0.36987	-0.25
Mof_C 	C 	0.64063	0.09297	0.47339	0.382
Mof_C 	C 	0.71953	0.15107	0.45727	-0.068
Mof_C 	C 	0.73323	0.13407	0.426	-0.049
Mof_H 	H 	0.69353	0.08537	0.41517	0.102
Mof_O 	O 	0.70323	0.06357	0.36247	-0.215
Mof_C 	C 	0.77863	0.10557	0.35957	0.51
Mof_C 	C 	0.80243	0.11367	0.32407	0.529
Mof_C 	C 	0.77133	0.04057	0.30647	-0.152
Mof_H 	H 	0.72753	0.99097	0.31517	0.118
Mof_C 	C 	0.80443	0.04027	0.27617	-0.22
Mof_H 	H 	0.78323	0.99047	0.26417	0.138
Mof_N 	N 	0.86843	0.11287	0.26342	-0.062
Mof_C 	C 	0.89953	0.18597	0.28097	0.311
Mof_H 	H 	0.94323	0.23547	0.27227	0.045
Mof_C 	C 	0.86643	0.18627	0.31127	-0.477
Mof_H 	H 	0.88763	0.23607	0.32337	-0.078
Mof_O 	O 	0.75533	0.03767	0.37237	-0.223
Mof_O 	O 	0.2962	0.852	0.83517	-0.445
Mof_O 	O 	0.2564	0.8925	0.79104	-0.45
Mof_H 	H 	0.5404	0.9966	0.7032	-0.283
Mof_C 	C 	0.3073	0.881	0.80672	0.383
Mof_C 	C 	0.3862	0.9018	0.7906	-0.069
Mof_C 	C 	0.3999	0.9325	0.75933	-0.046
Mof_H 	H 	0.3602	0.9415	0.7485	0.102
Mof_O 	O 	0.3699	0.973	0.6958	-0.22
Mof_C 	C 	0.4453	0.0064	0.6929	0.545
Mof_C 	C 	0.4691	0.0221	0.6574	0.562
Mof_C 	C 	0.438	0.0641	0.6398	-0.164
Mof_H 	H 	0.3942	0.0699	0.6485	0.123
Mof_C 	C 	0.4711	0.0975	0.6095	-0.233
Mof_H 	H 	0.4499	0.1261	0.5975	0.144
Mof_N 	N 	0.5351	0.0889	0.59675	-0.065
Mof_C 	C 	0.5662	0.0469	0.6143	0.331
Mof_H 	H 	0.6099	0.0411	0.6056	0.042
Mof_C 	C 	0.5331	0.0135	0.6446	-0.508
Mof_H 	H 	0.5543	0.9849	0.6567	-0.086
Mof_O 	O 	0.422	0.051	0.7057	-0.232
Mof_O 	O 	0.96287	0.18533	0.1685	-0.445
Mof_O 	O 	0.92307	0.22583	0.12437	-0.45
Mof_H 	H 	0.20707	0.32993	0.03653	-0.244
Mof_C 	C 	0.97397	0.21433	0.14005	0.385
Mof_C 	C 	0.05287	0.23513	0.12393	-0.071
Mof_C 	C 	0.06657	0.26583	0.09266	-0.048
Mof_H 	H 	0.02687	0.27483	0.08183	0.1
Mof_O 	O 	0.03657	0.30633	0.02913	-0.216
Mof_C 	C 	0.11197	0.33973	0.02623	0.502
Mof_C 	C 	0.13577	0.35543	0.99073	0.517
Mof_C 	C 	0.10467	0.39743	0.97313	-0.152
Mof_H 	H 	0.06087	0.40323	0.98183	0.121
Mof_C 	C 	0.13777	0.43083	0.94283	-0.227
Mof_H 	H 	0.11657	0.45943	0.93083	0.142
Mof_N 	N 	0.20177	0.42223	0.93008	-0.061
Mof_C 	C 	0.23287	0.38023	0.94763	0.309
Mof_H 	H 	0.27657	0.37443	0.93893	0.046
Mof_C 	C 	0.19977	0.34683	0.97793	-0.469
Mof_H 	H 	0.22097	0.31823	0.99003	-0.075
Mof_O 	O 	0.08867	0.38433	0.03903	-0.222
Mof_O 	O 	0.62953	0.51867	0.50184	-0.445
Mof_O 	O 	0.58973	0.55917	0.45771	-0.45
Mof_H 	H 	0.87373	0.66327	0.36987	-0.249
Mof_C 	C 	0.64063	0.54767	0.47339	0.382
Mof_C 	C 	0.71953	0.56847	0.45727	-0.068
Mof_C 	C 	0.73323	0.59917	0.426	-0.05
Mof_H 	H 	0.69353	0.60817	0.41517	0.101
Mof_O 	O 	0.70323	0.63967	0.36247	-0.216
Mof_C 	C 	0.77863	0.67307	0.35957	0.505
Mof_C 	C 	0.80243	0.68877	0.32407	0.522
Mof_C 	C 	0.77133	0.73077	0.30647	-0.154
Mof_H 	H 	0.72753	0.73657	0.31517	0.121
Mof_C 	C 	0.80443	0.76417	0.27617	-0.229
Mof_H 	H 	0.78323	0.79277	0.26417	0.142
Mof_N 	N 	0.86843	0.75557	0.26342	-0.061
Mof_C 	C 	0.89953	0.71357	0.28097	0.306
Mof_H 	H 	0.94323	0.70777	0.27227	0.045
Mof_C 	C 	0.86643	0.68017	0.31127	-0.475
Mof_H 	H 	0.88763	0.65157	0.32337	-0.077
Mof_O 	O 	0.75533	0.71767	0.37237	-0.223
Mof_O 	O 	0.148	0.4442	0.83517	-0.445
Mof_O 	O 	0.1075	0.3639	0.79104	-0.45
Mof_H 	H 	0.0034	0.5438	0.7032	-0.283
Mof_C 	C 	0.119	0.4263	0.80672	0.383
Mof_C 	C 	0.0982	0.4844	0.7906	-0.069
Mof_C 	C 	0.0675	0.4674	0.75933	-0.046
Mof_H 	H 	0.0585	0.4187	0.7485	0.102
Mof_O 	O 	0.027	0.3969	0.6958	-0.22
Mof_C 	C 	0.9936	0.4389	0.6929	0.545
Mof_C 	C 	0.9779	0.447	0.6574	0.562
Mof_C 	C 	0.9359	0.3739	0.6398	-0.164
Mof_H 	H 	0.9301	0.3243	0.6485	0.123
Mof_C 	C 	0.9025	0.3736	0.6095	-0.233
Mof_H 	H 	0.8739	0.3238	0.5975	0.144
Mof_N 	N 	0.9111	0.4462	0.59675	-0.065
Mof_C 	C 	0.9531	0.5193	0.6143	0.331
Mof_H 	H 	0.9589	0.5688	0.6056	0.042
Mof_C 	C 	0.9865	0.5196	0.6446	-0.508
Mof_H 	H 	0.0151	0.5694	0.6567	-0.086
Mof_O 	O 	0.949	0.371	0.7057	-0.233
Mof_O 	O 	0.81467	0.77753	0.1685	-0.446
Mof_O 	O 	0.77417	0.69723	0.12437	-0.45
Mof_H 	H 	0.67007	0.87713	0.03653	-0.243
Mof_C 	C 	0.78567	0.75963	0.14005	0.383
Mof_C 	C 	0.76487	0.81773	0.12393	-0.069
Mof_C 	C 	0.73417	0.80073	0.09266	-0.049
Mof_H 	H 	0.72517	0.75203	0.08183	0.101
Mof_O 	O 	0.69367	0.73023	0.02913	-0.216
Mof_C 	C 	0.66027	0.77223	0.02623	0.503
Mof_C 	C 	0.64457	0.78033	0.99073	0.517
Mof_C 	C 	0.60257	0.70723	0.97313	-0.152
Mof_H 	H 	0.59677	0.65763	0.98183	0.121
Mof_C 	C 	0.56917	0.70693	0.94283	-0.226
Mof_H 	H 	0.54057	0.65713	0.93083	0.142
Mof_N 	N 	0.57777	0.77953	0.93008	-0.061
Mof_C 	C 	0.61977	0.85263	0.94763	0.31
Mof_H 	H 	0.62557	0.90213	0.93893	0.046
Mof_C 	C 	0.65317	0.85293	0.97793	-0.469
Mof_H 	H 	0.68177	0.90273	0.99003	-0.074
Mof_O 	O 	0.61567	0.70433	0.03903	-0.222
Mof_O 	O 	0.48133	0.11087	0.50184	-0.446
Mof_O 	O 	0.44083	0.03057	0.45771	-0.45
Mof_H 	H 	0.33673	0.21047	0.36987	-0.246
Mof_C 	C 	0.45233	0.09297	0.47339	0.382
Mof_C 	C 	0.43153	0.15107	0.45727	-0.068
Mof_C 	C 	0.40083	0.13407	0.426	-0.05
Mof_H 	H 	0.39183	0.08537	0.41517	0.102
Mof_O 	O 	0.36033	0.06357	0.36247	-0.215
Mof_C 	C 	0.32693	0.10557	0.35957	0.509
Mof_C 	C 	0.31123	0.11367	0.32407	0.525
Mof_C 	C 	0.26923	0.04057	0.30647	-0.151
Mof_H 	H 	0.26343	0.99097	0.31517	0.118
Mof_C 	C 	0.23583	0.04027	0.27617	-0.218
Mof_H 	H 	0.20723	0.99047	0.26417	0.136
Mof_N 	N 	0.24443	0.11287	0.26342	-0.061
Mof_C 	C 	0.28643	0.18597	0.28097	0.314
Mof_H 	H 	0.29223	0.23547	0.27227	0.045
Mof_C 	C 	0.31983	0.18627	0.31127	-0.472
Mof_H 	H 	0.34843	0.23607	0.32337	-0.076
Mof_O 	O 	0.28233	0.03767	0.37237	-0.223
Mof_O 	O 	0.5558	0.7038	0.83517	-0.445
Mof_O 	O 	0.6361	0.7436	0.79104	-0.45
Mof_H 	H 	0.4562	0.4596	0.7032	-0.244
Mof_C 	C 	0.5737	0.6927	0.80672	0.382
Mof_C 	C 	0.5156	0.6138	0.7906	-0.068
Mof_C 	C 	0.5326	0.6001	0.75933	-0.05
Mof_H 	H 	0.5813	0.6398	0.7485	0.101
Mof_O 	O 	0.6031	0.6301	0.6958	-0.216
Mof_C 	C 	0.5611	0.5547	0.6929	0.503
Mof_C 	C 	0.553	0.5309	0.6574	0.517
Mof_C 	C 	0.6261	0.562	0.6398	-0.152
Mof_H 	H 	0.6757	0.6058	0.6485	0.12
Mof_C 	C 	0.6264	0.5289	0.6095	-0.227
Mof_H 	H 	0.6762	0.5501	0.5975	0.142
Mof_N 	N 	0.5538	0.4649	0.59675	-0.061
Mof_C 	C 	0.4807	0.4338	0.6143	0.31
Mof_H 	H 	0.4312	0.3901	0.6056	0.045
Mof_C 	C 	0.4804	0.4669	0.6446	-0.469
Mof_H 	H 	0.4306	0.4457	0.6567	-0.075
Mof_O 	O 	0.629	0.578	0.7057	-0.222
Mof_O 	O 	0.22247	0.03713	0.1685	-0.445
Mof_O 	O 	0.30277	0.07693	0.12437	-0.45
Mof_H 	H 	0.12287	0.79293	0.03653	-0.243
Mof_C 	C 	0.24037	0.02603	0.14005	0.385
Mof_C 	C 	0.18227	0.94713	0.12393	-0.072
Mof_C 	C 	0.19927	0.93343	0.09266	-0.047
Mof_H 	H 	0.24797	0.97313	0.08183	0.1
Mof_O 	O 	0.26977	0.96343	0.02913	-0.216
Mof_C 	C 	0.22777	0.88803	0.02623	0.503
Mof_C 	C 	0.21967	0.86423	0.99073	0.517
Mof_C 	C 	0.29277	0.89533	0.97313	-0.152
Mof_H 	H 	0.34237	0.93913	0.98183	0.121
Mof_C 	C 	0.29307	0.86223	0.94283	-0.227
Mof_H 	H 	0.34287	0.88343	0.93083	0.142
Mof_N 	N 	0.22047	0.79823	0.93008	-0.061
Mof_C 	C 	0.14737	0.76713	0.94763	0.31
Mof_H 	H 	0.09787	0.72343	0.93893	0.046
Mof_C 	C 	0.14707	0.80023	0.97793	-0.468
Mof_H 	H 	0.09727	0.77903	0.99003	-0.074
Mof_O 	O 	0.29567	0.91133	0.03903	-0.222
Mof_O 	O 	0.88913	0.37047	0.50184	-0.446
Mof_O 	O 	0.96943	0.41027	0.45771	-0.45
Mof_H 	H 	0.78953	0.12627	0.36987	-0.25
Mof_C 	C 	0.90703	0.35937	0.47339	0.382
Mof_C 	C 	0.84893	0.28047	0.45727	-0.068
Mof_C 	C 	0.86593	0.26677	0.426	-0.049
Mof_H 	H 	0.91463	0.30647	0.41517	0.102
Mof_O 	O 	0.93643	0.29677	0.36247	-0.215
Mof_C 	C 	0.89443	0.22137	0.35957	0.51
Mof_C 	C 	0.88633	0.19757	0.32407	0.529
Mof_C 	C 	0.95943	0.22867	0.30647	-0.152
Mof_H 	H 	0.00903	0.27247	0.31517	0.118
Mof_C 	C 	0.95973	0.19557	0.27617	-0.22
Mof_H 	H 	0.00953	0.21677	0.26417	0.138
Mof_N 	N 	0.88713	0.13157	0.26342	-0.062
Mof_C 	C 	0.81403	0.10047	0.28097	0.311
Mof_H 	H 	0.76453	0.05677	0.27227	0.045
Mof_C 	C 	0.81373	0.13357	0.31127	-0.477
Mof_H 	H 	0.76393	0.11237	0.32337	-0.078
Mof_O 	O 	0.96233	0.24467	0.37237	-0.223
Mof_O 	O 	0.852	0.2962	0.16483	-0.445
Mof_O 	O 	0.8925	0.2564	0.20896	-0.45
Mof_H 	H 	0.9966	0.5404	0.2968	-0.283
Mof_C 	C 	0.881	0.3073	0.19328	0.383
Mof_C 	C 	0.9018	0.3862	0.2094	-0.069
Mof_C 	C 	0.9325	0.3999	0.24067	-0.046
Mof_H 	H 	0.9415	0.3602	0.2515	0.102
Mof_O 	O 	0.973	0.3699	0.3042	-0.22
Mof_C 	C 	0.0064	0.4453	0.3071	0.545
Mof_C 	C 	0.0221	0.4691	0.3426	0.562
Mof_C 	C 	0.0641	0.438	0.3602	-0.164
Mof_H 	H 	0.0699	0.3942	0.3515	0.123
Mof_C 	C 	0.0975	0.4711	0.3905	-0.233
Mof_H 	H 	0.1261	0.4499	0.4025	0.144
Mof_N 	N 	0.0889	0.5351	0.40325	-0.065
Mof_C 	C 	0.0469	0.5662	0.3857	0.331
Mof_H 	H 	0.0411	0.6099	0.3944	0.042
Mof_C 	C 	0.0135	0.5331	0.3554	-0.508
Mof_H 	H 	0.9849	0.5543	0.3433	-0.086
Mof_O 	O 	0.051	0.422	0.2943	-0.232
Mof_O 	O 	0.51867	0.62953	0.49816	-0.445
Mof_O 	O 	0.55917	0.58973	0.54229	-0.45
Mof_H 	H 	0.66327	0.87373	0.63013	-0.249
Mof_C 	C 	0.54767	0.64063	0.52661	0.382
Mof_C 	C 	0.56847	0.71953	0.54273	-0.068
Mof_C 	C 	0.59917	0.73323	0.574	-0.05
Mof_H 	H 	0.60817	0.69353	0.58483	0.101
Mof_O 	O 	0.63967	0.70323	0.63753	-0.216
Mof_C 	C 	0.67307	0.77863	0.64043	0.505
Mof_C 	C 	0.68877	0.80243	0.67593	0.522
Mof_C 	C 	0.73077	0.77133	0.69353	-0.154
Mof_H 	H 	0.73657	0.72753	0.68483	0.121
Mof_C 	C 	0.76417	0.80443	0.72383	-0.229
Mof_H 	H 	0.79277	0.78323	0.73583	0.142
Mof_N 	N 	0.75557	0.86843	0.73658	-0.061
Mof_C 	C 	0.71357	0.89953	0.71903	0.306
Mof_H 	H 	0.70777	0.94323	0.72773	0.045
Mof_C 	C 	0.68017	0.86643	0.68873	-0.475
Mof_H 	H 	0.65157	0.88763	0.67663	-0.077
Mof_O 	O 	0.71767	0.75533	0.62763	-0.223
Mof_O 	O 	0.18533	0.96287	0.8315	-0.445
Mof_O 	O 	0.22583	0.92307	0.87563	-0.45
Mof_H 	H 	0.32993	0.20707	0.96347	-0.244
Mof_C 	C 	0.21433	0.97397	0.85995	0.385
Mof_C 	C 	0.23513	0.05287	0.87607	-0.071
Mof_C 	C 	0.26583	0.06657	0.90734	-0.048
Mof_H 	H 	0.27483	0.02687	0.91817	0.1
Mof_O 	O 	0.30633	0.03657	0.97087	-0.216
Mof_C 	C 	0.33973	0.11197	0.97377	0.502
Mof_C 	C 	0.35543	0.13577	0.00927	0.517
Mof_C 	C 	0.39743	0.10467	0.02687	-0.152
Mof_H 	H 	0.40323	0.06087	0.01817	0.121
Mof_C 	C 	0.43083	0.13777	0.05717	-0.227
Mof_H 	H 	0.45943	0.11657	0.06917	0.142
Mof_N 	N 	0.42223	0.20177	0.06992	-0.061
Mof_C 	C 	0.38023	0.23287	0.05237	0.309
Mof_H 	H 	0.37443	0.27657	0.06107	0.046
Mof_C 	C 	0.34683	0.19977	0.02207	-0.469
Mof_H 	H 	0.31823	0.22097	0.00997	-0.075
Mof_O 	O 	0.38433	0.08867	0.96097	-0.222
Mof_O 	O 	0.4442	0.148	0.16483	-0.445
Mof_O 	O 	0.3639	0.1075	0.20896	-0.45
Mof_H 	H 	0.5438	0.0034	0.2968	-0.283
Mof_C 	C 	0.4263	0.119	0.19328	0.383
Mof_C 	C 	0.4844	0.0982	0.2094	-0.069
Mof_C 	C 	0.4674	0.0675	0.24067	-0.046
Mof_H 	H 	0.4187	0.0585	0.2515	0.102
Mof_O 	O 	0.3969	0.027	0.3042	-0.22
Mof_C 	C 	0.4389	0.9936	0.3071	0.545
Mof_C 	C 	0.447	0.9779	0.3426	0.562
Mof_C 	C 	0.3739	0.9359	0.3602	-0.164
Mof_H 	H 	0.3243	0.9301	0.3515	0.123
Mof_C 	C 	0.3736	0.9025	0.3905	-0.233
Mof_H 	H 	0.3238	0.8739	0.4025	0.144
Mof_N 	N 	0.4462	0.9111	0.40325	-0.065
Mof_C 	C 	0.5193	0.9531	0.3857	0.331
Mof_H 	H 	0.5688	0.9589	0.3944	0.042
Mof_C 	C 	0.5196	0.9865	0.3554	-0.508
Mof_H 	H 	0.5694	0.0151	0.3433	-0.086
Mof_O 	O 	0.371	0.949	0.2943	-0.233
Mof_O 	O 	0.11087	0.48133	0.49816	-0.446
Mof_O 	O 	0.03057	0.44083	0.54229	-0.45
Mof_H 	H 	0.21047	0.33673	0.63013	-0.246
Mof_C 	C 	0.09297	0.45233	0.52661	0.382
Mof_C 	C 	0.15107	0.43153	0.54273	-0.068
Mof_C 	C 	0.13407	0.40083	0.574	-0.05
Mof_H 	H 	0.08537	0.39183	0.58483	0.102
Mof_O 	O 	0.06357	0.36033	0.63753	-0.215
Mof_C 	C 	0.10557	0.32693	0.64043	0.509
Mof_C 	C 	0.11367	0.31123	0.67593	0.525
Mof_C 	C 	0.04057	0.26923	0.69353	-0.151
Mof_H 	H 	0.99097	0.26343	0.68483	0.118
Mof_C 	C 	0.04027	0.23583	0.72383	-0.218
Mof_H 	H 	0.99047	0.20723	0.73583	0.136
Mof_N 	N 	0.11287	0.24443	0.73658	-0.061
Mof_C 	C 	0.18597	0.28643	0.71903	0.314
Mof_H 	H 	0.23547	0.29223	0.72773	0.045
Mof_C 	C 	0.18627	0.31983	0.68873	-0.472
Mof_H 	H 	0.23607	0.34843	0.67663	-0.076
Mof_O 	O 	0.03767	0.28233	0.62763	-0.223
Mof_O 	O 	0.77753	0.81467	0.8315	-0.446
Mof_O 	O 	0.69723	0.77417	0.87563	-0.45
Mof_H 	H 	0.87713	0.67007	0.96347	-0.243
Mof_C 	C 	0.75963	0.78567	0.85995	0.383
Mof_C 	C 	0.81773	0.76487	0.87607	-0.069
Mof_C 	C 	0.80073	0.73417	0.90734	-0.049
Mof_H 	H 	0.75203	0.72517	0.91817	0.101
Mof_O 	O 	0.73023	0.69367	0.97087	-0.216
Mof_C 	C 	0.77223	0.66027	0.97377	0.503
Mof_C 	C 	0.78033	0.64457	0.00927	0.517
Mof_C 	C 	0.70723	0.60257	0.02687	-0.152
Mof_H 	H 	0.65763	0.59677	0.01817	0.121
Mof_C 	C 	0.70693	0.56917	0.05717	-0.226
Mof_H 	H 	0.65713	0.54057	0.06917	0.142
Mof_N 	N 	0.77953	0.57777	0.06992	-0.061
Mof_C 	C 	0.85263	0.61977	0.05237	0.31
Mof_H 	H 	0.90213	0.62557	0.06107	0.046
Mof_C 	C 	0.85293	0.65317	0.02207	-0.469
Mof_H 	H 	0.90273	0.68177	0.00997	-0.074
Mof_O 	O 	0.70433	0.61567	0.96097	-0.222
Mof_O 	O 	0.7038	0.5558	0.16483	-0.445
Mof_O 	O 	0.7436	0.6361	0.20896	-0.45
Mof_H 	H 	0.4596	0.4562	0.2968	-0.244
Mof_C 	C 	0.6927	0.5737	0.19328	0.382
Mof_C 	C 	0.6138	0.5156	0.2094	-0.068
Mof_C 	C 	0.6001	0.5326	0.24067	-0.05
Mof_H 	H 	0.6398	0.5813	0.2515	0.101
Mof_O 	O 	0.6301	0.6031	0.3042	-0.216
Mof_C 	C 	0.5547	0.5611	0.3071	0.503
Mof_C 	C 	0.5309	0.553	0.3426	0.517
Mof_C 	C 	0.562	0.6261	0.3602	-0.152
Mof_H 	H 	0.6058	0.6757	0.3515	0.12
Mof_C 	C 	0.5289	0.6264	0.3905	-0.227
Mof_H 	H 	0.5501	0.6762	0.4025	0.142
Mof_N 	N 	0.4649	0.5538	0.40325	-0.061
Mof_C 	C 	0.4338	0.4807	0.3857	0.31
Mof_H 	H 	0.3901	0.4312	0.3944	0.045
Mof_C 	C 	0.4669	0.4804	0.3554	-0.469
Mof_H 	H 	0.4457	0.4306	0.3433	-0.075
Mof_O 	O 	0.578	0.629	0.2943	-0.222
Mof_O 	O 	0.37047	0.88913	0.49816	-0.446
Mof_O 	O 	0.41027	0.96943	0.54229	-0.45
Mof_H 	H 	0.12627	0.78953	0.63013	-0.25
Mof_C 	C 	0.35937	0.90703	0.52661	0.382
Mof_C 	C 	0.28047	0.84893	0.54273	-0.068
Mof_C 	C 	0.26677	0.86593	0.574	-0.049
Mof_H 	H 	0.30647	0.91463	0.58483	0.102
Mof_O 	O 	0.29677	0.93643	0.63753	-0.215
Mof_C 	C 	0.22137	0.89443	0.64043	0.51
Mof_C 	C 	0.19757	0.88633	0.67593	0.529
Mof_C 	C 	0.22867	0.95943	0.69353	-0.152
Mof_H 	H 	0.27247	0.00903	0.68483	0.118
Mof_C 	C 	0.19557	0.95973	0.72383	-0.22
Mof_H 	H 	0.21677	0.00953	0.73583	0.138
Mof_N 	N 	0.13157	0.88713	0.73658	-0.062
Mof_C 	C 	0.10047	0.81403	0.71903	0.311
Mof_H 	H 	0.05677	0.76453	0.72773	0.045
Mof_C 	C 	0.13357	0.81373	0.68873	-0.477
Mof_H 	H 	0.11237	0.76393	0.67663	-0.078
Mof_O 	O 	0.24467	0.96233	0.62763	-0.223
Mof_O 	O 	0.03713	0.22247	0.8315	-0.445
Mof_O 	O 	0.07693	0.30277	0.87563	-0.45
Mof_H 	H 	0.79293	0.12287	0.96347	-0.243
Mof_C 	C 	0.02603	0.24037	0.85995	0.385
Mof_C 	C 	0.94713	0.18227	0.87607	-0.072
Mof_C 	C 	0.93343	0.19927	0.90734	-0.047
Mof_H 	H 	0.97313	0.24797	0.91817	0.1
Mof_O 	O 	0.96343	0.26977	0.97087	-0.216
Mof_C 	C 	0.88803	0.22777	0.97377	0.503
Mof_C 	C 	0.86423	0.21967	0.00927	0.517
Mof_C 	C 	0.89533	0.29277	0.02687	-0.152
Mof_H 	H 	0.93913	0.34237	0.01817	0.121
Mof_C 	C 	0.86223	0.29307	0.05717	-0.227
Mof_H 	H 	0.88343	0.34287	0.06917	0.142
Mof_N 	N 	0.79823	0.22047	0.06992	-0.061
Mof_C 	C 	0.76713	0.14737	0.05237	0.31
Mof_H 	H 	0.72343	0.09787	0.06107	0.046
Mof_C 	C 	0.80023	0.14707	0.02207	-0.468
Mof_H 	H 	0.77903	0.09727	0.00997	-0.074
Mof_O 	O 	0.91133	0.29567	0.96097	-0.222
Mof_Zn	Zn	0.80677	0.19323	0.13739	1.229
Mof_Zn	Zn	0.47344	0.52656	0.47072	1.229
Mof_Zn	Zn	0.1401	0.8599	0.80406	1.229
Mof_Zn	Zn	0.80677	0.61354	0.13739	1.229
Mof_Zn	Zn	0.47344	0.94687	0.47072	1.229
Mof_Zn	Zn	0.1401	0.28021	0.80406	1.229
Mof_Zn	Zn	0.38646	0.19323	0.13739	1.229
Mof_Zn	Zn	0.05313	0.52656	0.47072	1.229
Mof_Zn	Zn	0.71979	0.8599	0.80406	1.229
Mof_Zn	Zn	0.19323	0.80677	0.86261	1.229
Mof_Zn	Zn	0.8599	0.1401	0.19594	1.229
Mof_Zn	Zn	0.52656	0.47344	0.52928	1.229
Mof_Zn	Zn	0.61354	0.80677	0.86261	1.229
Mof_Zn	Zn	0.28021	0.1401	0.19594	1.229
Mof_Zn	Zn	0.94687	0.47344	0.52928	1.229
Mof_Zn	Zn	0.19323	0.38646	0.86261	1.229
Mof_Zn	Zn	0.8599	0.71979	0.19594	1.229
Mof_Zn	Zn	0.52656	0.05313	0.52928	1.229
Mof_O 	O 	0.43865	0.8773	0.43101	-0.266
Mof_N 	N 	0.50685	0.0137	0.28828	-0.019
Mof_C 	C 	0.55725	0.1145	0.19394	0.022
Mof_H 	H 	0.56855	0.1371	0.1725	0.063
Mof_C 	C 	0.52455	0.0491	0.2568	0.107
Mof_O 	O 	0.10532	0.21063	0.76434	-0.267
Mof_N 	N 	0.17352	0.34703	0.62161	-0.041
Mof_C 	C 	0.22392	0.44783	0.52727	0.021
Mof_H 	H 	0.23522	0.47043	0.50583	0.063
Mof_C 	C 	0.19122	0.38243	0.59013	0.111
Mof_O 	O 	0.77198	0.54397	0.09768	-0.267
Mof_N 	N 	0.84018	0.68037	0.95495	-0.044
Mof_C 	C 	0.89058	0.78117	0.86061	0.022
Mof_H 	H 	0.90188	0.80377	0.83917	0.062
Mof_C 	C 	0.85788	0.71577	0.92347	0.11
Mof_O 	O 	0.1227	0.56135	0.43101	-0.266
Mof_N 	N 	0.9863	0.49315	0.28828	-0.019
Mof_C 	C 	0.8855	0.44275	0.19394	0.022
Mof_H 	H 	0.8629	0.43145	0.1725	0.063
Mof_C 	C 	0.9509	0.47545	0.2568	0.107
Mof_O 	O 	0.78937	0.89468	0.76434	-0.267
Mof_N 	N 	0.65297	0.82648	0.62161	-0.041
Mof_C 	C 	0.55217	0.77608	0.52727	0.021
Mof_H 	H 	0.52957	0.76478	0.50583	0.063
Mof_C 	C 	0.61757	0.80878	0.59013	0.111
Mof_O 	O 	0.45603	0.22802	0.09768	-0.267
Mof_N 	N 	0.31963	0.15982	0.95495	-0.044
Mof_C 	C 	0.21883	0.10942	0.86061	0.022
Mof_H 	H 	0.19623	0.09812	0.83917	0.062
Mof_C 	C 	0.28423	0.14212	0.92347	0.11
Mof_O 	O 	0.43865	0.56135	0.43101	-0.267
Mof_N 	N 	0.50685	0.49315	0.28828	-0.044
Mof_C 	C 	0.55725	0.44275	0.19394	0.021
Mof_H 	H 	0.56855	0.43145	0.1725	0.063
Mof_C 	C 	0.52455	0.47545	0.2568	0.111
Mof_O 	O 	0.10532	0.89468	0.76434	-0.266
Mof_N 	N 	0.17352	0.82648	0.62161	-0.039
Mof_C 	C 	0.22392	0.77608	0.52727	0.021
Mof_H 	H 	0.23522	0.76478	0.50583	0.063
Mof_C 	C 	0.19122	0.80878	0.59013	0.111
Mof_O 	O 	0.77198	0.22802	0.09768	-0.267
Mof_N 	N 	0.84018	0.15982	0.95495	-0.044
Mof_C 	C 	0.89058	0.10942	0.86061	0.024
Mof_H 	H 	0.90188	0.09812	0.83917	0.061
Mof_C 	C 	0.85788	0.14212	0.92347	0.109
Mof_O 	O 	0.8773	0.43865	0.56899	-0.266
Mof_N 	N 	0.0137	0.50685	0.71172	-0.019
Mof_C 	C 	0.1145	0.55725	0.80606	0.022
Mof_H 	H 	0.1371	0.56855	0.8275	0.063
Mof_C 	C 	0.0491	0.52455	0.7432	0.107
Mof_O 	O 	0.54397	0.77198	0.90232	-0.267
Mof_N 	N 	0.68037	0.84018	0.04505	-0.044
Mof_C 	C 	0.78117	0.89058	0.13939	0.022
Mof_H 	H 	0.80377	0.90188	0.16083	0.062
Mof_C 	C 	0.71577	0.85788	0.07653	0.11
Mof_O 	O 	0.21063	0.10532	0.23566	-0.267
Mof_N 	N 	0.34703	0.17352	0.37839	-0.041
Mof_C 	C 	0.44783	0.22392	0.47273	0.021
Mof_H 	H 	0.47043	0.23522	0.49417	0.063
Mof_C 	C 	0.38243	0.19122	0.40987	0.111
Mof_O 	O 	0.56135	0.1227	0.56899	-0.266
Mof_N 	N 	0.49315	0.9863	0.71172	-0.019
Mof_C 	C 	0.44275	0.8855	0.80606	0.022
Mof_H 	H 	0.43145	0.8629	0.8275	0.063
Mof_C 	C 	0.47545	0.9509	0.7432	0.107
Mof_O 	O 	0.22802	0.45603	0.90232	-0.267
Mof_N 	N 	0.15982	0.31963	0.04505	-0.044
Mof_C 	C 	0.10942	0.21883	0.13939	0.022
Mof_H 	H 	0.09812	0.19623	0.16083	0.062
Mof_C 	C 	0.14212	0.28423	0.07653	0.11
Mof_O 	O 	0.89468	0.78937	0.23566	-0.267
Mof_N 	N 	0.82648	0.65297	0.37839	-0.041
Mof_C 	C 	0.77608	0.55217	0.47273	0.021
Mof_H 	H 	0.76478	0.52957	0.49417	0.063
Mof_C 	C 	0.80878	0.61757	0.40987	0.111
Mof_O 	O 	0.56135	0.43865	0.56899	-0.267
Mof_N 	N 	0.49315	0.50685	0.71172	-0.044
Mof_C 	C 	0.44275	0.55725	0.80606	0.021
Mof_H 	H 	0.43145	0.56855	0.8275	0.063
Mof_C 	C 	0.47545	0.52455	0.7432	0.111
Mof_O 	O 	0.22802	0.77198	0.90232	-0.267
Mof_N 	N 	0.15982	0.84018	0.04505	-0.044
Mof_C 	C 	0.10942	0.89058	0.13939	0.024
Mof_H 	H 	0.09812	0.90188	0.16083	0.061
Mof_C 	C 	0.14212	0.85788	0.07653	0.109
Mof_O 	O 	0.89468	0.10532	0.23566	-0.266
Mof_N 	N 	0.82648	0.17352	0.37839	-0.039
Mof_C 	C 	0.77608	0.22392	0.47273	0.021
Mof_H 	H 	0.76478	0.23522	0.49417	0.063
Mof_C 	C 	0.80878	0.19122	0.40987	0.111
_end
