data_functionalizedCrystal
_audit_creation_method	'EQeq! by Chris Wilmer'
_symmetry_space_group_name_H-M	'P1'
_symmetry_Int_Tables_number	1
_symmetry_cell_setting	triclinic
loop_
_symmetry_equiv_pos_as_xyz
  x,y,z
_cell_length_a	24.6165
_cell_length_b	35.8569
_cell_length_c	30.2783
_cell_angle_alpha	90
_cell_angle_beta	90
_cell_angle_gamma	90
loop_
_atom_site_label
_atom_site_type_symbol
_atom_site_fract_x
_atom_site_fract_y
_atom_site_fract_z
_atom_site_charge
Mof_C 	C 	0.21083	0.92792	0.8991	0.407
Mof_C 	C 	0.23253	0.96192	0.8757	-0.109
Mof_C 	C 	0.19741	0.98545	0.85339	0.003
Mof_H 	H 	0.1602	0.9808	0.8536	0.043
Mof_C 	C 	0.21785	0.01585	0.83082	-0.028
Mof_H 	H 	0.1944	0.0312	0.815	0.057
Mof_C 	C 	0.27234	0.02359	0.8315	-0.074
Mof_C 	C 	0.30754	0.00034	0.85309	-0.034
Mof_H 	H 	0.3447	0.005	0.8526	0.049
Mof_C 	C 	0.28671	0.96913	0.87615	0.005
Mof_H 	H 	0.3101	0.9535	0.8916	0.02
Mof_C 	C 	0.29329	0.05773	0.80827	0.384
Mof_C 	C 	0.3225	0.31677	0.89235	0.386
Mof_C 	C 	0.32273	0.2789	0.87027	-0.101
Mof_C 	C 	0.37035	0.25939	0.86462	-0.004
Mof_H 	H 	0.4031	0.2697	0.8738	0.051
Mof_C 	C 	0.16159	0.88379	0.05903	-0.102
Mof_C 	C 	0.19514	0.86454	0.0875	0.007
Mof_H 	H 	0.222	0.8489	0.0764	0.027
Mof_C 	C 	0.18863	0.86865	0.13282	-0.041
Mof_H 	H 	0.2108	0.8554	0.1521	0.061
Mof_C 	C 	0.14927	0.89242	0.14936	-0.055
Mof_C 	C 	0.11766	0.91251	0.12094	-0.035
Mof_H 	H 	0.0924	0.9295	0.1317	0.062
Mof_C 	C 	0.12388	0.9072	0.07524	0.01
Mof_H 	H 	0.1015	0.9201	0.0558	0.046
Mof_C 	C 	0.16717	0.87739	0.00973	0.391
Mof_C 	C 	0.31847	0.17093	0.81172	0.369
Mof_C 	C 	0.32107	0.20879	0.83348	-0.065
Mof_C 	C 	0.3697	0.2239	0.84504	-0.032
Mof_H 	H 	0.4019	0.211	0.8401	0.059
Mof_C 	C 	0.2736	0.22821	0.84079	-0.037
Mof_H 	H 	0.2405	0.2172	0.8339	0.057
Mof_C 	C 	0.27452	0.26374	0.85824	0
Mof_H 	H 	0.2424	0.2771	0.8617	0.026
Mof_C 	C 	0.14083	0.89539	0.19739	0.331
Mof_C 	C 	0.47223	0.06283	0.82721	0.006
Mof_H 	H 	0.4502	0.0457	0.8417	0.023
Mof_C 	C 	0.02805	0.92539	0.88312	-0.007
Mof_H 	H 	0.05	0.9423	0.8681	0.03
Mof_Co	Co	0.38001	0.10634	0.77935	1.172
Mof_Co	Co	0.12232	0.88042	0.92383	1.177
Mof_Co	Co	0.26359	0.85973	0.94696	1.096
Mof_N 	N 	0.04588	0.89675	0.90857	-0.237
Mof_N 	N 	0.45447	0.09193	0.80265	-0.239
Mof_O 	O 	0.24237	0.91107	0.92435	-0.499
Mof_O 	O 	0.16229	0.91935	0.89201	-0.47
Mof_O 	O 	0.25931	0.08057	0.79489	-0.45
Mof_O 	O 	0.34384	0.06144	0.80565	-0.453
Mof_O 	O 	0.36993	0.33212	0.89735	-0.455
Mof_O 	O 	0.27897	0.33132	0.90129	-0.51
Mof_O 	O 	0.2061	0.8582	0.99622	-0.494
Mof_O 	O 	0.13073	0.89185	0.98606	-0.46
Mof_O 	O 	0.27545	0.16236	0.79276	-0.428
Mof_O 	O 	0.36144	0.15121	0.81385	-0.446
Mof_O 	O 	0.16759	0.8757	0.22457	-0.489
Mof_O 	O 	0.10471	0.91662	0.21196	-0.364
Mof_O 	O 	0.54485	0.15166	0.75012	-0.173
Mof_O 	O 	0.04459	0.83717	0.962	-0.169
Mof_C 	C 	0.71083	0.42792	0.8991	0.406
Mof_C 	C 	0.73253	0.46192	0.8757	-0.109
Mof_C 	C 	0.69741	0.48545	0.85339	0.002
Mof_H 	H 	0.6602	0.4808	0.8536	0.043
Mof_C 	C 	0.71785	0.51585	0.83082	-0.029
Mof_H 	H 	0.6944	0.5312	0.815	0.056
Mof_C 	C 	0.77234	0.52359	0.8315	-0.075
Mof_C 	C 	0.80754	0.50034	0.85309	-0.034
Mof_H 	H 	0.8447	0.505	0.8526	0.049
Mof_C 	C 	0.78671	0.46913	0.87615	0.003
Mof_H 	H 	0.8101	0.4535	0.8916	0.019
Mof_C 	C 	0.79329	0.55773	0.80827	0.384
Mof_C 	C 	0.8225	0.81677	0.89235	0.385
Mof_C 	C 	0.82273	0.7789	0.87027	-0.101
Mof_C 	C 	0.87035	0.75939	0.86462	-0.005
Mof_H 	H 	0.9031	0.7697	0.8738	0.051
Mof_C 	C 	0.66159	0.38379	0.05903	-0.103
Mof_C 	C 	0.69514	0.36454	0.0875	0.006
Mof_H 	H 	0.722	0.3489	0.0764	0.026
Mof_C 	C 	0.68863	0.36865	0.13282	-0.042
Mof_H 	H 	0.7108	0.3554	0.1521	0.06
Mof_C 	C 	0.64927	0.39242	0.14936	-0.056
Mof_C 	C 	0.61766	0.41251	0.12094	-0.036
Mof_H 	H 	0.5924	0.4295	0.1317	0.062
Mof_C 	C 	0.62388	0.4072	0.07524	0.009
Mof_H 	H 	0.6015	0.4201	0.0558	0.046
Mof_C 	C 	0.66717	0.37739	0.00973	0.39
Mof_C 	C 	0.81847	0.67093	0.81172	0.368
Mof_C 	C 	0.82107	0.70879	0.83348	-0.066
Mof_C 	C 	0.8697	0.7239	0.84504	-0.033
Mof_H 	H 	0.9019	0.711	0.8401	0.059
Mof_C 	C 	0.7736	0.72821	0.84079	-0.038
Mof_H 	H 	0.7405	0.7172	0.8339	0.056
Mof_C 	C 	0.77452	0.76374	0.85824	-0.001
Mof_H 	H 	0.7424	0.7771	0.8617	0.025
Mof_C 	C 	0.64083	0.39539	0.19739	0.33
Mof_C 	C 	0.97223	0.56283	0.82721	0.018
Mof_H 	H 	0.9502	0.5457	0.8417	0.019
Mof_C 	C 	0.52805	0.42539	0.88312	0.005
Mof_H 	H 	0.55	0.4423	0.8681	0.027
Mof_Co	Co	0.88001	0.60634	0.77935	1.172
Mof_Co	Co	0.62232	0.38042	0.92383	1.178
Mof_Co	Co	0.76359	0.35973	0.94696	1.096
Mof_N 	N 	0.54588	0.39675	0.90857	-0.239
Mof_N 	N 	0.95447	0.59193	0.80265	-0.238
Mof_O 	O 	0.74237	0.41107	0.92435	-0.499
Mof_O 	O 	0.66229	0.41935	0.89201	-0.47
Mof_O 	O 	0.75931	0.58057	0.79489	-0.45
Mof_O 	O 	0.84384	0.56144	0.80565	-0.453
Mof_O 	O 	0.86993	0.83212	0.89735	-0.454
Mof_O 	O 	0.77897	0.83132	0.90129	-0.51
Mof_O 	O 	0.7061	0.3582	0.99622	-0.493
Mof_O 	O 	0.63073	0.39185	0.98606	-0.46
Mof_O 	O 	0.77545	0.66236	0.79276	-0.428
Mof_O 	O 	0.86144	0.65121	0.81385	-0.445
Mof_O 	O 	0.66759	0.3757	0.22457	-0.489
Mof_O 	O 	0.60471	0.41662	0.21196	-0.363
Mof_O 	O 	0.04485	0.65166	0.75012	-0.175
Mof_O 	O 	0.54459	0.33717	0.962	-0.168
Mof_C 	C 	0.78917	0.57208	0.3991	0.406
Mof_C 	C 	0.76747	0.53808	0.3757	-0.109
Mof_C 	C 	0.80259	0.51455	0.35339	0.002
Mof_H 	H 	0.8398	0.5192	0.3536	0.044
Mof_C 	C 	0.78215	0.48415	0.33082	-0.028
Mof_H 	H 	0.8056	0.4688	0.315	0.056
Mof_C 	C 	0.72766	0.47641	0.3315	-0.075
Mof_C 	C 	0.69246	0.49966	0.35309	-0.034
Mof_H 	H 	0.6553	0.495	0.3526	0.048
Mof_C 	C 	0.71329	0.53087	0.37615	0.003
Mof_H 	H 	0.6899	0.5465	0.3916	0.019
Mof_C 	C 	0.70671	0.44227	0.30827	0.384
Mof_C 	C 	0.6775	0.18323	0.39235	0.385
Mof_C 	C 	0.67727	0.2211	0.37027	-0.101
Mof_C 	C 	0.62965	0.24061	0.36462	-0.005
Mof_H 	H 	0.5969	0.2303	0.3738	0.05
Mof_C 	C 	0.83841	0.61621	0.55903	-0.103
Mof_C 	C 	0.80486	0.63546	0.5875	0.006
Mof_H 	H 	0.778	0.6511	0.5764	0.026
Mof_C 	C 	0.81137	0.63135	0.63282	-0.042
Mof_H 	H 	0.7892	0.6446	0.6521	0.06
Mof_C 	C 	0.85073	0.60758	0.64936	-0.055
Mof_C 	C 	0.88234	0.58749	0.62094	-0.036
Mof_H 	H 	0.9076	0.5705	0.6317	0.063
Mof_C 	C 	0.87612	0.5928	0.57524	0.009
Mof_H 	H 	0.8985	0.5799	0.5558	0.047
Mof_C 	C 	0.83283	0.62261	0.50973	0.39
Mof_C 	C 	0.68153	0.32907	0.31172	0.368
Mof_C 	C 	0.67893	0.29121	0.33348	-0.066
Mof_C 	C 	0.6303	0.2761	0.34504	-0.033
Mof_H 	H 	0.5981	0.289	0.3401	0.058
Mof_C 	C 	0.7264	0.27179	0.34079	-0.038
Mof_H 	H 	0.7595	0.2828	0.3339	0.056
Mof_C 	C 	0.72548	0.23626	0.35824	-0.001
Mof_H 	H 	0.7576	0.2229	0.3617	0.026
Mof_C 	C 	0.85917	0.60461	0.69739	0.33
Mof_C 	C 	0.52777	0.43717	0.32721	0.006
Mof_H 	H 	0.5498	0.4543	0.3417	0.022
Mof_C 	C 	0.97195	0.57461	0.38312	0.017
Mof_H 	H 	0.95	0.5577	0.3681	0.025
Mof_Co	Co	0.61999	0.39366	0.27935	1.172
Mof_Co	Co	0.87768	0.61958	0.42383	1.178
Mof_Co	Co	0.73641	0.64027	0.44696	1.096
Mof_N 	N 	0.95412	0.60325	0.40857	-0.237
Mof_N 	N 	0.54553	0.40807	0.30265	-0.239
Mof_O 	O 	0.75763	0.58893	0.42435	-0.499
Mof_O 	O 	0.83771	0.58065	0.39201	-0.469
Mof_O 	O 	0.74069	0.41943	0.29489	-0.45
Mof_O 	O 	0.65616	0.43856	0.30565	-0.453
Mof_O 	O 	0.63007	0.16788	0.39735	-0.455
Mof_O 	O 	0.72103	0.16868	0.40129	-0.51
Mof_O 	O 	0.7939	0.6418	0.49622	-0.493
Mof_O 	O 	0.86927	0.60815	0.48606	-0.459
Mof_O 	O 	0.72455	0.33764	0.29276	-0.428
Mof_O 	O 	0.63856	0.34879	0.31385	-0.446
Mof_O 	O 	0.83241	0.6243	0.72457	-0.488
Mof_O 	O 	0.89529	0.58338	0.71196	-0.362
Mof_O 	O 	0.45515	0.34834	0.25012	-0.173
Mof_O 	O 	0.95541	0.66283	0.462	-0.163
Mof_C 	C 	0.28917	0.07208	0.3991	0.406
Mof_C 	C 	0.26747	0.03808	0.3757	-0.11
Mof_C 	C 	0.30259	0.01455	0.35339	0.002
Mof_H 	H 	0.3398	0.0192	0.3536	0.043
Mof_C 	C 	0.28215	0.98415	0.33082	-0.029
Mof_H 	H 	0.3056	0.9688	0.315	0.056
Mof_C 	C 	0.22766	0.97641	0.3315	-0.075
Mof_C 	C 	0.19246	0.99966	0.35309	-0.035
Mof_H 	H 	0.1553	0.995	0.3526	0.047
Mof_C 	C 	0.21329	0.03087	0.37615	0.003
Mof_H 	H 	0.1899	0.0465	0.3916	0.018
Mof_C 	C 	0.20671	0.94227	0.30827	0.384
Mof_C 	C 	0.1775	0.68323	0.39235	0.385
Mof_C 	C 	0.17727	0.7211	0.37027	-0.102
Mof_C 	C 	0.12965	0.74061	0.36462	-0.005
Mof_H 	H 	0.0969	0.7303	0.3738	0.049
Mof_C 	C 	0.33841	0.11621	0.55903	-0.103
Mof_C 	C 	0.30486	0.13546	0.5875	0.006
Mof_H 	H 	0.278	0.1511	0.5764	0.025
Mof_C 	C 	0.31137	0.13135	0.63282	-0.042
Mof_H 	H 	0.2892	0.1446	0.6521	0.06
Mof_C 	C 	0.35073	0.10758	0.64936	-0.056
Mof_C 	C 	0.38234	0.08749	0.62094	-0.036
Mof_H 	H 	0.4076	0.0705	0.6317	0.062
Mof_C 	C 	0.37612	0.0928	0.57524	0.009
Mof_H 	H 	0.3985	0.0799	0.5558	0.046
Mof_C 	C 	0.33283	0.12261	0.50973	0.39
Mof_C 	C 	0.18153	0.82907	0.31172	0.368
Mof_C 	C 	0.17893	0.79121	0.33348	-0.066
Mof_C 	C 	0.1303	0.7761	0.34504	-0.033
Mof_H 	H 	0.0981	0.789	0.3401	0.057
Mof_C 	C 	0.2264	0.77179	0.34079	-0.038
Mof_H 	H 	0.2595	0.7828	0.3339	0.056
Mof_C 	C 	0.22548	0.73626	0.35824	-0.001
Mof_H 	H 	0.2576	0.7229	0.3617	0.025
Mof_C 	C 	0.35917	0.10461	0.69739	0.33
Mof_C 	C 	0.02777	0.93717	0.32721	-0.007
Mof_H 	H 	0.0498	0.9543	0.3417	0.025
Mof_C 	C 	0.47195	0.07461	0.38312	0.005
Mof_H 	H 	0.45	0.0577	0.3681	0.027
Mof_Co	Co	0.11999	0.89366	0.27935	1.172
Mof_Co	Co	0.37768	0.11958	0.42383	1.178
Mof_Co	Co	0.23641	0.14027	0.44696	1.096
Mof_N 	N 	0.45412	0.10325	0.40857	-0.239
Mof_N 	N 	0.04553	0.90807	0.30265	-0.237
Mof_O 	O 	0.25763	0.08893	0.42435	-0.5
Mof_O 	O 	0.33771	0.08065	0.39201	-0.47
Mof_O 	O 	0.24069	0.91943	0.29489	-0.45
Mof_O 	O 	0.15616	0.93856	0.30565	-0.453
Mof_O 	O 	0.13007	0.66788	0.39735	-0.455
Mof_O 	O 	0.22103	0.66868	0.40129	-0.51
Mof_O 	O 	0.2939	0.1418	0.49622	-0.494
Mof_O 	O 	0.36927	0.10815	0.48606	-0.46
Mof_O 	O 	0.22455	0.83764	0.29276	-0.428
Mof_O 	O 	0.13856	0.84879	0.31385	-0.446
Mof_O 	O 	0.33241	0.1243	0.72457	-0.489
Mof_O 	O 	0.39529	0.08338	0.71196	-0.363
Mof_O 	O 	0.95515	0.84834	0.25012	-0.169
Mof_O 	O 	0.45541	0.16283	0.462	-0.168
Mof_C 	C 	0.78917	0.42792	0.6009	0.406
Mof_C 	C 	0.76747	0.46192	0.6243	-0.109
Mof_C 	C 	0.80259	0.48545	0.64661	0.002
Mof_H 	H 	0.8398	0.4808	0.6464	0.044
Mof_C 	C 	0.78215	0.51585	0.66918	-0.028
Mof_H 	H 	0.8056	0.5312	0.685	0.056
Mof_C 	C 	0.72766	0.52359	0.6685	-0.075
Mof_C 	C 	0.69246	0.50034	0.64691	-0.034
Mof_H 	H 	0.6553	0.505	0.6474	0.048
Mof_C 	C 	0.71329	0.46913	0.62385	0.003
Mof_H 	H 	0.6899	0.4535	0.6084	0.019
Mof_C 	C 	0.70671	0.55773	0.69173	0.384
Mof_C 	C 	0.6775	0.81677	0.60765	0.385
Mof_C 	C 	0.67727	0.7789	0.62973	-0.101
Mof_C 	C 	0.62965	0.75939	0.63538	-0.005
Mof_H 	H 	0.5969	0.7697	0.6262	0.05
Mof_C 	C 	0.83841	0.38379	0.44097	-0.103
Mof_C 	C 	0.80486	0.36454	0.4125	0.006
Mof_H 	H 	0.778	0.3489	0.4236	0.026
Mof_C 	C 	0.81137	0.36865	0.36718	-0.042
Mof_H 	H 	0.7892	0.3554	0.3479	0.06
Mof_C 	C 	0.85073	0.39242	0.35064	-0.055
Mof_C 	C 	0.88234	0.41251	0.37906	-0.036
Mof_H 	H 	0.9076	0.4295	0.3683	0.063
Mof_C 	C 	0.87612	0.4072	0.42476	0.009
Mof_H 	H 	0.8985	0.4201	0.4442	0.047
Mof_C 	C 	0.83283	0.37739	0.49027	0.39
Mof_C 	C 	0.68153	0.67093	0.68828	0.368
Mof_C 	C 	0.67893	0.70879	0.66652	-0.066
Mof_C 	C 	0.6303	0.7239	0.65496	-0.033
Mof_H 	H 	0.5981	0.711	0.6599	0.058
Mof_C 	C 	0.7264	0.72821	0.65921	-0.038
Mof_H 	H 	0.7595	0.7172	0.6661	0.056
Mof_C 	C 	0.72548	0.76374	0.64176	-0.001
Mof_H 	H 	0.7576	0.7771	0.6383	0.026
Mof_C 	C 	0.85917	0.39539	0.30261	0.33
Mof_C 	C 	0.52777	0.56283	0.67279	0.006
Mof_H 	H 	0.5498	0.5457	0.6583	0.022
Mof_C 	C 	0.97195	0.42539	0.61688	0.017
Mof_H 	H 	0.95	0.4423	0.6319	0.025
Mof_Co	Co	0.61999	0.60634	0.72065	1.172
Mof_Co	Co	0.87768	0.38042	0.57617	1.178
Mof_Co	Co	0.73641	0.35973	0.55304	1.096
Mof_N 	N 	0.95412	0.39675	0.59143	-0.237
Mof_N 	N 	0.54553	0.59193	0.69735	-0.239
Mof_O 	O 	0.75763	0.41107	0.57565	-0.499
Mof_O 	O 	0.83771	0.41935	0.60799	-0.469
Mof_O 	O 	0.74069	0.58057	0.70511	-0.45
Mof_O 	O 	0.65616	0.56144	0.69435	-0.453
Mof_O 	O 	0.63007	0.83212	0.60265	-0.455
Mof_O 	O 	0.72103	0.83132	0.59871	-0.51
Mof_O 	O 	0.7939	0.3582	0.50378	-0.493
Mof_O 	O 	0.86927	0.39185	0.51394	-0.459
Mof_O 	O 	0.72455	0.66236	0.70724	-0.428
Mof_O 	O 	0.63856	0.65121	0.68615	-0.446
Mof_O 	O 	0.83241	0.3757	0.27543	-0.488
Mof_O 	O 	0.89529	0.41662	0.28804	-0.362
Mof_O 	O 	0.45515	0.65166	0.74988	-0.173
Mof_O 	O 	0.95541	0.33717	0.538	-0.163
Mof_C 	C 	0.28917	0.92792	0.6009	0.406
Mof_C 	C 	0.26747	0.96192	0.6243	-0.11
Mof_C 	C 	0.30259	0.98545	0.64661	0.002
Mof_H 	H 	0.3398	0.9808	0.6464	0.043
Mof_C 	C 	0.28215	0.01585	0.66918	-0.029
Mof_H 	H 	0.3056	0.0312	0.685	0.056
Mof_C 	C 	0.22766	0.02359	0.6685	-0.075
Mof_C 	C 	0.19246	0.00034	0.64691	-0.035
Mof_H 	H 	0.1553	0.005	0.6474	0.047
Mof_C 	C 	0.21329	0.96913	0.62385	0.003
Mof_H 	H 	0.1899	0.9535	0.6084	0.018
Mof_C 	C 	0.20671	0.05773	0.69173	0.384
Mof_C 	C 	0.1775	0.31677	0.60765	0.385
Mof_C 	C 	0.17727	0.2789	0.62973	-0.102
Mof_C 	C 	0.12965	0.25939	0.63538	-0.005
Mof_H 	H 	0.0969	0.2697	0.6262	0.049
Mof_C 	C 	0.33841	0.88379	0.44097	-0.103
Mof_C 	C 	0.30486	0.86454	0.4125	0.006
Mof_H 	H 	0.278	0.8489	0.4236	0.025
Mof_C 	C 	0.31137	0.86865	0.36718	-0.042
Mof_H 	H 	0.2892	0.8554	0.3479	0.06
Mof_C 	C 	0.35073	0.89242	0.35064	-0.056
Mof_C 	C 	0.38234	0.91251	0.37906	-0.036
Mof_H 	H 	0.4076	0.9295	0.3683	0.062
Mof_C 	C 	0.37612	0.9072	0.42476	0.009
Mof_H 	H 	0.3985	0.9201	0.4442	0.046
Mof_C 	C 	0.33283	0.87739	0.49027	0.39
Mof_C 	C 	0.18153	0.17093	0.68828	0.368
Mof_C 	C 	0.17893	0.20879	0.66652	-0.066
Mof_C 	C 	0.1303	0.2239	0.65496	-0.033
Mof_H 	H 	0.0981	0.211	0.6599	0.057
Mof_C 	C 	0.2264	0.22821	0.65921	-0.038
Mof_H 	H 	0.2595	0.2172	0.6661	0.056
Mof_C 	C 	0.22548	0.26374	0.64176	-0.001
Mof_H 	H 	0.2576	0.2771	0.6383	0.025
Mof_C 	C 	0.35917	0.89539	0.30261	0.33
Mof_C 	C 	0.02777	0.06283	0.67279	-0.007
Mof_H 	H 	0.0498	0.0457	0.6583	0.025
Mof_C 	C 	0.47195	0.92539	0.61688	0.005
Mof_H 	H 	0.45	0.9423	0.6319	0.027
Mof_Co	Co	0.11999	0.10634	0.72065	1.172
Mof_Co	Co	0.37768	0.88042	0.57617	1.178
Mof_Co	Co	0.23641	0.85973	0.55304	1.096
Mof_N 	N 	0.45412	0.89675	0.59143	-0.239
Mof_N 	N 	0.04553	0.09193	0.69735	-0.237
Mof_O 	O 	0.25763	0.91107	0.57565	-0.5
Mof_O 	O 	0.33771	0.91935	0.60799	-0.47
Mof_O 	O 	0.24069	0.08057	0.70511	-0.45
Mof_O 	O 	0.15616	0.06144	0.69435	-0.453
Mof_O 	O 	0.13007	0.33212	0.60265	-0.455
Mof_O 	O 	0.22103	0.33132	0.59871	-0.51
Mof_O 	O 	0.2939	0.8582	0.50378	-0.494
Mof_O 	O 	0.36927	0.89185	0.51394	-0.46
Mof_O 	O 	0.22455	0.16236	0.70724	-0.428
Mof_O 	O 	0.13856	0.15121	0.68615	-0.446
Mof_O 	O 	0.33241	0.8757	0.27543	-0.489
Mof_O 	O 	0.39529	0.91662	0.28804	-0.363
Mof_O 	O 	0.95515	0.15166	0.74988	-0.169
Mof_O 	O 	0.45541	0.83717	0.538	-0.168
Mof_C 	C 	0.21083	0.07208	0.1009	0.406
Mof_C 	C 	0.23253	0.03808	0.1243	-0.11
Mof_C 	C 	0.19741	0.01455	0.14661	0.002
Mof_H 	H 	0.1602	0.0192	0.1464	0.042
Mof_C 	C 	0.21785	0.98415	0.16918	-0.029
Mof_H 	H 	0.1944	0.9688	0.185	0.056
Mof_C 	C 	0.27234	0.97641	0.1685	-0.075
Mof_C 	C 	0.30754	0.99966	0.14691	-0.035
Mof_H 	H 	0.3447	0.995	0.1474	0.048
Mof_C 	C 	0.28671	0.03087	0.12385	0.004
Mof_H 	H 	0.3101	0.0465	0.1084	0.019
Mof_C 	C 	0.29329	0.94227	0.19173	0.383
Mof_C 	C 	0.3225	0.68323	0.10765	0.385
Mof_C 	C 	0.32273	0.7211	0.12973	-0.102
Mof_C 	C 	0.37035	0.74061	0.13538	-0.005
Mof_H 	H 	0.4031	0.7303	0.1262	0.05
Mof_C 	C 	0.16159	0.11621	0.94097	-0.103
Mof_C 	C 	0.19514	0.13546	0.9125	0.006
Mof_H 	H 	0.222	0.1511	0.9236	0.026
Mof_C 	C 	0.18863	0.13135	0.86718	-0.042
Mof_H 	H 	0.2108	0.1446	0.8479	0.06
Mof_C 	C 	0.14927	0.10758	0.85064	-0.056
Mof_C 	C 	0.11766	0.08749	0.87906	-0.036
Mof_H 	H 	0.0924	0.0705	0.8683	0.061
Mof_C 	C 	0.12388	0.0928	0.92476	0.009
Mof_H 	H 	0.1015	0.0799	0.9442	0.045
Mof_C 	C 	0.16717	0.12261	0.99027	0.39
Mof_C 	C 	0.31847	0.82907	0.18828	0.368
Mof_C 	C 	0.32107	0.79121	0.16652	-0.066
Mof_C 	C 	0.3697	0.7761	0.15496	-0.033
Mof_H 	H 	0.4019	0.789	0.1599	0.058
Mof_C 	C 	0.2736	0.77179	0.15921	-0.038
Mof_H 	H 	0.2405	0.7828	0.1661	0.056
Mof_C 	C 	0.27452	0.73626	0.14176	-0.001
Mof_H 	H 	0.2424	0.7229	0.1383	0.025
Mof_C 	C 	0.14083	0.10461	0.80261	0.33
Mof_C 	C 	0.47223	0.93717	0.17279	0.005
Mof_H 	H 	0.4502	0.9543	0.1583	0.022
Mof_C 	C 	0.02805	0.07461	0.11688	-0.007
Mof_H 	H 	0.05	0.0577	0.1319	0.03
Mof_Co	Co	0.38001	0.89366	0.22065	1.172
Mof_Co	Co	0.12232	0.11958	0.07617	1.177
Mof_Co	Co	0.26359	0.14027	0.05304	1.096
Mof_N 	N 	0.04588	0.10325	0.09143	-0.237
Mof_N 	N 	0.45447	0.90807	0.19735	-0.239
Mof_O 	O 	0.24237	0.08893	0.07565	-0.499
Mof_O 	O 	0.16229	0.08065	0.10799	-0.47
Mof_O 	O 	0.25931	0.91943	0.20511	-0.45
Mof_O 	O 	0.34384	0.93856	0.19435	-0.453
Mof_O 	O 	0.36993	0.66788	0.10265	-0.455
Mof_O 	O 	0.27897	0.66868	0.09871	-0.51
Mof_O 	O 	0.2061	0.1418	0.00378	-0.494
Mof_O 	O 	0.13073	0.10815	0.01394	-0.46
Mof_O 	O 	0.27545	0.83764	0.20724	-0.428
Mof_O 	O 	0.36144	0.84879	0.18615	-0.446
Mof_O 	O 	0.16759	0.1243	0.77543	-0.489
Mof_O 	O 	0.10471	0.08338	0.78804	-0.364
Mof_O 	O 	0.54485	0.84834	0.24988	-0.173
Mof_O 	O 	0.04459	0.16283	0.038	-0.169
Mof_C 	C 	0.71083	0.57208	0.1009	0.406
Mof_C 	C 	0.73253	0.53808	0.1243	-0.109
Mof_C 	C 	0.69741	0.51455	0.14661	0.002
Mof_H 	H 	0.6602	0.5192	0.1464	0.043
Mof_C 	C 	0.71785	0.48415	0.16918	-0.029
Mof_H 	H 	0.6944	0.4688	0.185	0.056
Mof_C 	C 	0.77234	0.47641	0.1685	-0.075
Mof_C 	C 	0.80754	0.49966	0.14691	-0.034
Mof_H 	H 	0.8447	0.495	0.1474	0.049
Mof_C 	C 	0.78671	0.53087	0.12385	0.003
Mof_H 	H 	0.8101	0.5465	0.1084	0.019
Mof_C 	C 	0.79329	0.44227	0.19173	0.384
Mof_C 	C 	0.8225	0.18323	0.10765	0.385
Mof_C 	C 	0.82273	0.2211	0.12973	-0.101
Mof_C 	C 	0.87035	0.24061	0.13538	-0.005
Mof_H 	H 	0.9031	0.2303	0.1262	0.051
Mof_C 	C 	0.66159	0.61621	0.94097	-0.103
Mof_C 	C 	0.69514	0.63546	0.9125	0.006
Mof_H 	H 	0.722	0.6511	0.9236	0.026
Mof_C 	C 	0.68863	0.63135	0.86718	-0.042
Mof_H 	H 	0.7108	0.6446	0.8479	0.06
Mof_C 	C 	0.64927	0.60758	0.85064	-0.056
Mof_C 	C 	0.61766	0.58749	0.87906	-0.036
Mof_H 	H 	0.5924	0.5705	0.8683	0.062
Mof_C 	C 	0.62388	0.5928	0.92476	0.009
Mof_H 	H 	0.6015	0.5799	0.9442	0.046
Mof_C 	C 	0.66717	0.62261	0.99027	0.39
Mof_C 	C 	0.81847	0.32907	0.18828	0.368
Mof_C 	C 	0.82107	0.29121	0.16652	-0.066
Mof_C 	C 	0.8697	0.2761	0.15496	-0.033
Mof_H 	H 	0.9019	0.289	0.1599	0.059
Mof_C 	C 	0.7736	0.27179	0.15921	-0.038
Mof_H 	H 	0.7405	0.2828	0.1661	0.056
Mof_C 	C 	0.77452	0.23626	0.14176	-0.001
Mof_H 	H 	0.7424	0.2229	0.1383	0.025
Mof_C 	C 	0.64083	0.60461	0.80261	0.33
Mof_C 	C 	0.97223	0.43717	0.17279	0.018
Mof_H 	H 	0.9502	0.4543	0.1583	0.019
Mof_C 	C 	0.52805	0.57461	0.11688	0.005
Mof_H 	H 	0.55	0.5577	0.1319	0.027
Mof_Co	Co	0.88001	0.39366	0.22065	1.172
Mof_Co	Co	0.62232	0.61958	0.07617	1.178
Mof_Co	Co	0.76359	0.64027	0.05304	1.096
Mof_N 	N 	0.54588	0.60325	0.09143	-0.239
Mof_N 	N 	0.95447	0.40807	0.19735	-0.238
Mof_O 	O 	0.74237	0.58893	0.07565	-0.499
Mof_O 	O 	0.66229	0.58065	0.10799	-0.47
Mof_O 	O 	0.75931	0.41943	0.20511	-0.45
Mof_O 	O 	0.84384	0.43856	0.19435	-0.453
Mof_O 	O 	0.86993	0.16788	0.10265	-0.454
Mof_O 	O 	0.77897	0.16868	0.09871	-0.51
Mof_O 	O 	0.7061	0.6418	0.00378	-0.493
Mof_O 	O 	0.63073	0.60815	0.01394	-0.46
Mof_O 	O 	0.77545	0.33764	0.20724	-0.428
Mof_O 	O 	0.86144	0.34879	0.18615	-0.445
Mof_O 	O 	0.66759	0.6243	0.77543	-0.489
Mof_O 	O 	0.60471	0.58338	0.78804	-0.363
Mof_O 	O 	0.04485	0.34834	0.24988	-0.175
Mof_O 	O 	0.54459	0.66283	0.038	-0.168
Mof_C 	C 	0.78917	0.07208	0.1009	0.406
Mof_C 	C 	0.76747	0.03808	0.1243	-0.109
Mof_C 	C 	0.80259	0.01455	0.14661	0.002
Mof_H 	H 	0.8398	0.0192	0.1464	0.043
Mof_C 	C 	0.78215	0.98415	0.16918	-0.028
Mof_H 	H 	0.8056	0.9688	0.185	0.056
Mof_C 	C 	0.72766	0.97641	0.1685	-0.075
Mof_C 	C 	0.69246	0.99966	0.14691	-0.035
Mof_H 	H 	0.6553	0.995	0.1474	0.048
Mof_C 	C 	0.71329	0.03087	0.12385	0.003
Mof_H 	H 	0.6899	0.0465	0.1084	0.019
Mof_C 	C 	0.70671	0.94227	0.19173	0.384
Mof_C 	C 	0.6775	0.68323	0.10765	0.385
Mof_C 	C 	0.67727	0.7211	0.12973	-0.101
Mof_C 	C 	0.62965	0.74061	0.13538	-0.005
Mof_H 	H 	0.5969	0.7303	0.1262	0.05
Mof_C 	C 	0.83841	0.11621	0.94097	-0.103
Mof_C 	C 	0.80486	0.13546	0.9125	0.006
Mof_H 	H 	0.778	0.1511	0.9236	0.026
Mof_C 	C 	0.81137	0.13135	0.86718	-0.042
Mof_H 	H 	0.7892	0.1446	0.8479	0.06
Mof_C 	C 	0.85073	0.10758	0.85064	-0.055
Mof_C 	C 	0.88234	0.08749	0.87906	-0.036
Mof_H 	H 	0.9076	0.0705	0.8683	0.063
Mof_C 	C 	0.87612	0.0928	0.92476	0.009
Mof_H 	H 	0.8985	0.0799	0.9442	0.047
Mof_C 	C 	0.83283	0.12261	0.99027	0.39
Mof_C 	C 	0.68153	0.82907	0.18828	0.368
Mof_C 	C 	0.67893	0.79121	0.16652	-0.066
Mof_C 	C 	0.6303	0.7761	0.15496	-0.033
Mof_H 	H 	0.5981	0.789	0.1599	0.058
Mof_C 	C 	0.7264	0.77179	0.15921	-0.038
Mof_H 	H 	0.7595	0.7828	0.1661	0.056
Mof_C 	C 	0.72548	0.73626	0.14176	-0.001
Mof_H 	H 	0.7576	0.7229	0.1383	0.026
Mof_C 	C 	0.85917	0.10461	0.80261	0.33
Mof_C 	C 	0.52777	0.93717	0.17279	0.005
Mof_H 	H 	0.5498	0.9543	0.1583	0.022
Mof_C 	C 	0.97195	0.07461	0.11688	0.017
Mof_H 	H 	0.95	0.0577	0.1319	0.025
Mof_Co	Co	0.61999	0.89366	0.22065	1.172
Mof_Co	Co	0.87768	0.11958	0.07617	1.178
Mof_Co	Co	0.73641	0.14027	0.05304	1.096
Mof_N 	N 	0.95412	0.10325	0.09143	-0.237
Mof_N 	N 	0.54553	0.90807	0.19735	-0.239
Mof_O 	O 	0.75763	0.08893	0.07565	-0.499
Mof_O 	O 	0.83771	0.08065	0.10799	-0.469
Mof_O 	O 	0.74069	0.91943	0.20511	-0.45
Mof_O 	O 	0.65616	0.93856	0.19435	-0.453
Mof_O 	O 	0.63007	0.66788	0.10265	-0.455
Mof_O 	O 	0.72103	0.66868	0.09871	-0.51
Mof_O 	O 	0.7939	0.1418	0.00378	-0.493
Mof_O 	O 	0.86927	0.10815	0.01394	-0.459
Mof_O 	O 	0.72455	0.83764	0.20724	-0.428
Mof_O 	O 	0.63856	0.84879	0.18615	-0.446
Mof_O 	O 	0.83241	0.1243	0.77543	-0.488
Mof_O 	O 	0.89529	0.08338	0.78804	-0.362
Mof_O 	O 	0.45515	0.84834	0.24988	-0.173
Mof_O 	O 	0.95541	0.16283	0.038	-0.163
Mof_C 	C 	0.28917	0.57208	0.1009	0.406
Mof_C 	C 	0.26747	0.53808	0.1243	-0.11
Mof_C 	C 	0.30259	0.51455	0.14661	0.002
Mof_H 	H 	0.3398	0.5192	0.1464	0.043
Mof_C 	C 	0.28215	0.48415	0.16918	-0.028
Mof_H 	H 	0.3056	0.4688	0.185	0.056
Mof_C 	C 	0.22766	0.47641	0.1685	-0.075
Mof_C 	C 	0.19246	0.49966	0.14691	-0.034
Mof_H 	H 	0.1553	0.495	0.1474	0.047
Mof_C 	C 	0.21329	0.53087	0.12385	0.003
Mof_H 	H 	0.1899	0.5465	0.1084	0.018
Mof_C 	C 	0.20671	0.44227	0.19173	0.384
Mof_C 	C 	0.1775	0.18323	0.10765	0.385
Mof_C 	C 	0.17727	0.2211	0.12973	-0.102
Mof_C 	C 	0.12965	0.24061	0.13538	-0.005
Mof_H 	H 	0.0969	0.2303	0.1262	0.049
Mof_C 	C 	0.33841	0.61621	0.94097	-0.103
Mof_C 	C 	0.30486	0.63546	0.9125	0.006
Mof_H 	H 	0.278	0.6511	0.9236	0.025
Mof_C 	C 	0.31137	0.63135	0.86718	-0.042
Mof_H 	H 	0.2892	0.6446	0.8479	0.06
Mof_C 	C 	0.35073	0.60758	0.85064	-0.056
Mof_C 	C 	0.38234	0.58749	0.87906	-0.036
Mof_H 	H 	0.4076	0.5705	0.8683	0.062
Mof_C 	C 	0.37612	0.5928	0.92476	0.009
Mof_H 	H 	0.3985	0.5799	0.9442	0.046
Mof_C 	C 	0.33283	0.62261	0.99027	0.39
Mof_C 	C 	0.18153	0.32907	0.18828	0.368
Mof_C 	C 	0.17893	0.29121	0.16652	-0.066
Mof_C 	C 	0.1303	0.2761	0.15496	-0.033
Mof_H 	H 	0.0981	0.289	0.1599	0.057
Mof_C 	C 	0.2264	0.27179	0.15921	-0.038
Mof_H 	H 	0.2595	0.2828	0.1661	0.056
Mof_C 	C 	0.22548	0.23626	0.14176	-0.001
Mof_H 	H 	0.2576	0.2229	0.1383	0.025
Mof_C 	C 	0.35917	0.60461	0.80261	0.33
Mof_C 	C 	0.02777	0.43717	0.17279	-0.007
Mof_H 	H 	0.0498	0.4543	0.1583	0.025
Mof_C 	C 	0.47195	0.57461	0.11688	0.005
Mof_H 	H 	0.45	0.5577	0.1319	0.027
Mof_Co	Co	0.11999	0.39366	0.22065	1.172
Mof_Co	Co	0.37768	0.61958	0.07617	1.178
Mof_Co	Co	0.23641	0.64027	0.05304	1.096
Mof_N 	N 	0.45412	0.60325	0.09143	-0.239
Mof_N 	N 	0.04553	0.40807	0.19735	-0.237
Mof_O 	O 	0.25763	0.58893	0.07565	-0.5
Mof_O 	O 	0.33771	0.58065	0.10799	-0.47
Mof_O 	O 	0.24069	0.41943	0.20511	-0.45
Mof_O 	O 	0.15616	0.43856	0.19435	-0.453
Mof_O 	O 	0.13007	0.16788	0.10265	-0.455
Mof_O 	O 	0.22103	0.16868	0.09871	-0.51
Mof_O 	O 	0.2939	0.6418	0.00378	-0.494
Mof_O 	O 	0.36927	0.60815	0.01394	-0.46
Mof_O 	O 	0.22455	0.33764	0.20724	-0.428
Mof_O 	O 	0.13856	0.34879	0.18615	-0.446
Mof_O 	O 	0.33241	0.6243	0.77543	-0.488
Mof_O 	O 	0.39529	0.58338	0.78804	-0.363
Mof_O 	O 	0.95515	0.34834	0.24988	-0.169
Mof_O 	O 	0.45541	0.66283	0.038	-0.168
Mof_C 	C 	0.21083	0.42792	0.6009	0.406
Mof_C 	C 	0.23253	0.46192	0.6243	-0.11
Mof_C 	C 	0.19741	0.48545	0.64661	0.002
Mof_H 	H 	0.1602	0.4808	0.6464	0.043
Mof_C 	C 	0.21785	0.51585	0.66918	-0.029
Mof_H 	H 	0.1944	0.5312	0.685	0.056
Mof_C 	C 	0.27234	0.52359	0.6685	-0.075
Mof_C 	C 	0.30754	0.50034	0.64691	-0.035
Mof_H 	H 	0.3447	0.505	0.6474	0.048
Mof_C 	C 	0.28671	0.46913	0.62385	0.003
Mof_H 	H 	0.3101	0.4535	0.6084	0.019
Mof_C 	C 	0.29329	0.55773	0.69173	0.384
Mof_C 	C 	0.3225	0.81677	0.60765	0.385
Mof_C 	C 	0.32273	0.7789	0.62973	-0.102
Mof_C 	C 	0.37035	0.75939	0.63538	-0.005
Mof_H 	H 	0.4031	0.7697	0.6262	0.05
Mof_C 	C 	0.16159	0.38379	0.44097	-0.103
Mof_C 	C 	0.19514	0.36454	0.4125	0.006
Mof_H 	H 	0.222	0.3489	0.4236	0.026
Mof_C 	C 	0.18863	0.36865	0.36718	-0.042
Mof_H 	H 	0.2108	0.3554	0.3479	0.06
Mof_C 	C 	0.14927	0.39242	0.35064	-0.056
Mof_C 	C 	0.11766	0.41251	0.37906	-0.036
Mof_H 	H 	0.0924	0.4295	0.3683	0.061
Mof_C 	C 	0.12388	0.4072	0.42476	0.009
Mof_H 	H 	0.1015	0.4201	0.4442	0.045
Mof_C 	C 	0.16717	0.37739	0.49027	0.39
Mof_C 	C 	0.31847	0.67093	0.68828	0.368
Mof_C 	C 	0.32107	0.70879	0.66652	-0.066
Mof_C 	C 	0.3697	0.7239	0.65496	-0.033
Mof_H 	H 	0.4019	0.711	0.6599	0.058
Mof_C 	C 	0.2736	0.72821	0.65921	-0.038
Mof_H 	H 	0.2405	0.7172	0.6661	0.056
Mof_C 	C 	0.27452	0.76374	0.64176	-0.001
Mof_H 	H 	0.2424	0.7771	0.6383	0.025
Mof_C 	C 	0.14083	0.39539	0.30261	0.33
Mof_C 	C 	0.47223	0.56283	0.67279	0.006
Mof_H 	H 	0.4502	0.5457	0.6583	0.022
Mof_C 	C 	0.02805	0.42539	0.61688	-0.007
Mof_H 	H 	0.05	0.4423	0.6319	0.03
Mof_Co	Co	0.38001	0.60634	0.72065	1.172
Mof_Co	Co	0.12232	0.38042	0.57617	1.177
Mof_Co	Co	0.26359	0.35973	0.55304	1.096
Mof_N 	N 	0.04588	0.39675	0.59143	-0.237
Mof_N 	N 	0.45447	0.59193	0.69735	-0.239
Mof_O 	O 	0.24237	0.41107	0.57565	-0.499
Mof_O 	O 	0.16229	0.41935	0.60799	-0.47
Mof_O 	O 	0.25931	0.58057	0.70511	-0.45
Mof_O 	O 	0.34384	0.56144	0.69435	-0.453
Mof_O 	O 	0.36993	0.83212	0.60265	-0.455
Mof_O 	O 	0.27897	0.83132	0.59871	-0.51
Mof_O 	O 	0.2061	0.3582	0.50378	-0.494
Mof_O 	O 	0.13073	0.39185	0.51394	-0.46
Mof_O 	O 	0.27545	0.66236	0.70724	-0.428
Mof_O 	O 	0.36144	0.65121	0.68615	-0.446
Mof_O 	O 	0.16759	0.3757	0.27543	-0.489
Mof_O 	O 	0.10471	0.41662	0.28804	-0.364
Mof_O 	O 	0.54485	0.65166	0.74988	-0.173
Mof_O 	O 	0.04459	0.33717	0.538	-0.169
Mof_C 	C 	0.71083	0.92792	0.6009	0.406
Mof_C 	C 	0.73253	0.96192	0.6243	-0.109
Mof_C 	C 	0.69741	0.98545	0.64661	0.002
Mof_H 	H 	0.6602	0.9808	0.6464	0.043
Mof_C 	C 	0.71785	0.01585	0.66918	-0.029
Mof_H 	H 	0.6944	0.0312	0.685	0.056
Mof_C 	C 	0.77234	0.02359	0.6685	-0.075
Mof_C 	C 	0.80754	0.00034	0.64691	-0.034
Mof_H 	H 	0.8447	0.005	0.6474	0.049
Mof_C 	C 	0.78671	0.96913	0.62385	0.004
Mof_H 	H 	0.8101	0.9535	0.6084	0.019
Mof_C 	C 	0.79329	0.05773	0.69173	0.384
Mof_C 	C 	0.8225	0.31677	0.60765	0.385
Mof_C 	C 	0.82273	0.2789	0.62973	-0.101
Mof_C 	C 	0.87035	0.25939	0.63538	-0.005
Mof_H 	H 	0.9031	0.2697	0.6262	0.051
Mof_C 	C 	0.66159	0.88379	0.44097	-0.103
Mof_C 	C 	0.69514	0.86454	0.4125	0.006
Mof_H 	H 	0.722	0.8489	0.4236	0.026
Mof_C 	C 	0.68863	0.86865	0.36718	-0.042
Mof_H 	H 	0.7108	0.8554	0.3479	0.06
Mof_C 	C 	0.64927	0.89242	0.35064	-0.056
Mof_C 	C 	0.61766	0.91251	0.37906	-0.036
Mof_H 	H 	0.5924	0.9295	0.3683	0.062
Mof_C 	C 	0.62388	0.9072	0.42476	0.009
Mof_H 	H 	0.6015	0.9201	0.4442	0.046
Mof_C 	C 	0.66717	0.87739	0.49027	0.39
Mof_C 	C 	0.81847	0.17093	0.68828	0.368
Mof_C 	C 	0.82107	0.20879	0.66652	-0.066
Mof_C 	C 	0.8697	0.2239	0.65496	-0.033
Mof_H 	H 	0.9019	0.211	0.6599	0.059
Mof_C 	C 	0.7736	0.22821	0.65921	-0.038
Mof_H 	H 	0.7405	0.2172	0.6661	0.056
Mof_C 	C 	0.77452	0.26374	0.64176	-0.001
Mof_H 	H 	0.7424	0.2771	0.6383	0.025
Mof_C 	C 	0.64083	0.89539	0.30261	0.33
Mof_C 	C 	0.97223	0.06283	0.67279	0.018
Mof_H 	H 	0.9502	0.0457	0.6583	0.019
Mof_C 	C 	0.52805	0.92539	0.61688	0.005
Mof_H 	H 	0.55	0.9423	0.6319	0.027
Mof_Co	Co	0.88001	0.10634	0.72065	1.172
Mof_Co	Co	0.62232	0.88042	0.57617	1.178
Mof_Co	Co	0.76359	0.85973	0.55304	1.096
Mof_N 	N 	0.54588	0.89675	0.59143	-0.239
Mof_N 	N 	0.95447	0.09193	0.69735	-0.238
Mof_O 	O 	0.74237	0.91107	0.57565	-0.499
Mof_O 	O 	0.66229	0.91935	0.60799	-0.47
Mof_O 	O 	0.75931	0.08057	0.70511	-0.45
Mof_O 	O 	0.84384	0.06144	0.69435	-0.453
Mof_O 	O 	0.86993	0.33212	0.60265	-0.454
Mof_O 	O 	0.77897	0.33132	0.59871	-0.51
Mof_O 	O 	0.7061	0.8582	0.50378	-0.493
Mof_O 	O 	0.63073	0.89185	0.51394	-0.46
Mof_O 	O 	0.77545	0.16236	0.70724	-0.428
Mof_O 	O 	0.86144	0.15121	0.68615	-0.445
Mof_O 	O 	0.66759	0.8757	0.27543	-0.489
Mof_O 	O 	0.60471	0.91662	0.28804	-0.363
Mof_O 	O 	0.04485	0.15166	0.74988	-0.175
Mof_O 	O 	0.54459	0.83717	0.538	-0.168
Mof_C 	C 	0.21083	0.57208	0.3991	0.406
Mof_C 	C 	0.23253	0.53808	0.3757	-0.11
Mof_C 	C 	0.19741	0.51455	0.35339	0.002
Mof_H 	H 	0.1602	0.5192	0.3536	0.043
Mof_C 	C 	0.21785	0.48415	0.33082	-0.029
Mof_H 	H 	0.1944	0.4688	0.315	0.056
Mof_C 	C 	0.27234	0.47641	0.3315	-0.075
Mof_C 	C 	0.30754	0.49966	0.35309	-0.035
Mof_H 	H 	0.3447	0.495	0.3526	0.048
Mof_C 	C 	0.28671	0.53087	0.37615	0.003
Mof_H 	H 	0.3101	0.5465	0.3916	0.019
Mof_C 	C 	0.29329	0.44227	0.30827	0.384
Mof_C 	C 	0.3225	0.18323	0.39235	0.385
Mof_C 	C 	0.32273	0.2211	0.37027	-0.102
Mof_C 	C 	0.37035	0.24061	0.36462	-0.005
Mof_H 	H 	0.4031	0.2303	0.3738	0.05
Mof_C 	C 	0.16159	0.61621	0.55903	-0.103
Mof_C 	C 	0.19514	0.63546	0.5875	0.006
Mof_H 	H 	0.222	0.6511	0.5764	0.026
Mof_C 	C 	0.18863	0.63135	0.63282	-0.042
Mof_H 	H 	0.2108	0.6446	0.6521	0.06
Mof_C 	C 	0.14927	0.60758	0.64936	-0.056
Mof_C 	C 	0.11766	0.58749	0.62094	-0.036
Mof_H 	H 	0.0924	0.5705	0.6317	0.061
Mof_C 	C 	0.12388	0.5928	0.57524	0.009
Mof_H 	H 	0.1015	0.5799	0.5558	0.045
Mof_C 	C 	0.16717	0.62261	0.50973	0.39
Mof_C 	C 	0.31847	0.32907	0.31172	0.368
Mof_C 	C 	0.32107	0.29121	0.33348	-0.066
Mof_C 	C 	0.3697	0.2761	0.34504	-0.033
Mof_H 	H 	0.4019	0.289	0.3401	0.058
Mof_C 	C 	0.2736	0.27179	0.34079	-0.038
Mof_H 	H 	0.2405	0.2828	0.3339	0.056
Mof_C 	C 	0.27452	0.23626	0.35824	-0.001
Mof_H 	H 	0.2424	0.2229	0.3617	0.025
Mof_C 	C 	0.14083	0.60461	0.69739	0.33
Mof_C 	C 	0.47223	0.43717	0.32721	0.006
Mof_H 	H 	0.4502	0.4543	0.3417	0.022
Mof_C 	C 	0.02805	0.57461	0.38312	-0.007
Mof_H 	H 	0.05	0.5577	0.3681	0.03
Mof_Co	Co	0.38001	0.39366	0.27935	1.172
Mof_Co	Co	0.12232	0.61958	0.42383	1.177
Mof_Co	Co	0.26359	0.64027	0.44696	1.096
Mof_N 	N 	0.04588	0.60325	0.40857	-0.237
Mof_N 	N 	0.45447	0.40807	0.30265	-0.239
Mof_O 	O 	0.24237	0.58893	0.42435	-0.499
Mof_O 	O 	0.16229	0.58065	0.39201	-0.47
Mof_O 	O 	0.25931	0.41943	0.29489	-0.45
Mof_O 	O 	0.34384	0.43856	0.30565	-0.453
Mof_O 	O 	0.36993	0.16788	0.39735	-0.455
Mof_O 	O 	0.27897	0.16868	0.40129	-0.51
Mof_O 	O 	0.2061	0.6418	0.49622	-0.494
Mof_O 	O 	0.13073	0.60815	0.48606	-0.46
Mof_O 	O 	0.27545	0.33764	0.29276	-0.428
Mof_O 	O 	0.36144	0.34879	0.31385	-0.446
Mof_O 	O 	0.16759	0.6243	0.72457	-0.489
Mof_O 	O 	0.10471	0.58338	0.71196	-0.364
Mof_O 	O 	0.54485	0.34834	0.25012	-0.173
Mof_O 	O 	0.04459	0.66283	0.462	-0.169
Mof_C 	C 	0.71083	0.07208	0.3991	0.406
Mof_C 	C 	0.73253	0.03808	0.3757	-0.109
Mof_C 	C 	0.69741	0.01455	0.35339	0.002
Mof_H 	H 	0.6602	0.0192	0.3536	0.043
Mof_C 	C 	0.71785	0.98415	0.33082	-0.029
Mof_H 	H 	0.6944	0.9688	0.315	0.056
Mof_C 	C 	0.77234	0.97641	0.3315	-0.075
Mof_C 	C 	0.80754	0.99966	0.35309	-0.034
Mof_H 	H 	0.8447	0.995	0.3526	0.049
Mof_C 	C 	0.78671	0.03087	0.37615	0.004
Mof_H 	H 	0.8101	0.0465	0.3916	0.019
Mof_C 	C 	0.79329	0.94227	0.30827	0.384
Mof_C 	C 	0.8225	0.68323	0.39235	0.385
Mof_C 	C 	0.82273	0.7211	0.37027	-0.101
Mof_C 	C 	0.87035	0.74061	0.36462	-0.005
Mof_H 	H 	0.9031	0.7303	0.3738	0.051
Mof_C 	C 	0.66159	0.11621	0.55903	-0.103
Mof_C 	C 	0.69514	0.13546	0.5875	0.006
Mof_H 	H 	0.722	0.1511	0.5764	0.026
Mof_C 	C 	0.68863	0.13135	0.63282	-0.042
Mof_H 	H 	0.7108	0.1446	0.6521	0.06
Mof_C 	C 	0.64927	0.10758	0.64936	-0.056
Mof_C 	C 	0.61766	0.08749	0.62094	-0.036
Mof_H 	H 	0.5924	0.0705	0.6317	0.062
Mof_C 	C 	0.62388	0.0928	0.57524	0.009
Mof_H 	H 	0.6015	0.0799	0.5558	0.046
Mof_C 	C 	0.66717	0.12261	0.50973	0.39
Mof_C 	C 	0.81847	0.82907	0.31172	0.368
Mof_C 	C 	0.82107	0.79121	0.33348	-0.066
Mof_C 	C 	0.8697	0.7761	0.34504	-0.033
Mof_H 	H 	0.9019	0.789	0.3401	0.059
Mof_C 	C 	0.7736	0.77179	0.34079	-0.038
Mof_H 	H 	0.7405	0.7828	0.3339	0.056
Mof_C 	C 	0.77452	0.73626	0.35824	-0.001
Mof_H 	H 	0.7424	0.7229	0.3617	0.025
Mof_C 	C 	0.64083	0.10461	0.69739	0.33
Mof_C 	C 	0.97223	0.93717	0.32721	0.018
Mof_H 	H 	0.9502	0.9543	0.3417	0.019
Mof_C 	C 	0.52805	0.07461	0.38312	0.005
Mof_H 	H 	0.55	0.0577	0.3681	0.027
Mof_Co	Co	0.88001	0.89366	0.27935	1.172
Mof_Co	Co	0.62232	0.11958	0.42383	1.178
Mof_Co	Co	0.76359	0.14027	0.44696	1.096
Mof_N 	N 	0.54588	0.10325	0.40857	-0.239
Mof_N 	N 	0.95447	0.90807	0.30265	-0.238
Mof_O 	O 	0.74237	0.08893	0.42435	-0.499
Mof_O 	O 	0.66229	0.08065	0.39201	-0.47
Mof_O 	O 	0.75931	0.91943	0.29489	-0.45
Mof_O 	O 	0.84384	0.93856	0.30565	-0.453
Mof_O 	O 	0.86993	0.66788	0.39735	-0.454
Mof_O 	O 	0.77897	0.66868	0.40129	-0.51
Mof_O 	O 	0.7061	0.1418	0.49622	-0.493
Mof_O 	O 	0.63073	0.10815	0.48606	-0.46
Mof_O 	O 	0.77545	0.83764	0.29276	-0.428
Mof_O 	O 	0.86144	0.84879	0.31385	-0.445
Mof_O 	O 	0.66759	0.1243	0.72457	-0.489
Mof_O 	O 	0.60471	0.08338	0.71196	-0.363
Mof_O 	O 	0.04485	0.84834	0.25012	-0.175
Mof_O 	O 	0.54459	0.16283	0.462	-0.168
Mof_C 	C 	0.78917	0.92792	0.8991	0.406
Mof_C 	C 	0.76747	0.96192	0.8757	-0.109
Mof_C 	C 	0.80259	0.98545	0.85339	0.002
Mof_H 	H 	0.8398	0.9808	0.8536	0.043
Mof_C 	C 	0.78215	0.01585	0.83082	-0.028
Mof_H 	H 	0.8056	0.0312	0.815	0.056
Mof_C 	C 	0.72766	0.02359	0.8315	-0.075
Mof_C 	C 	0.69246	0.00034	0.85309	-0.035
Mof_H 	H 	0.6553	0.005	0.8526	0.048
Mof_C 	C 	0.71329	0.96913	0.87615	0.003
Mof_H 	H 	0.6899	0.9535	0.8916	0.019
Mof_C 	C 	0.70671	0.05773	0.80827	0.384
Mof_C 	C 	0.6775	0.31677	0.89235	0.385
Mof_C 	C 	0.67727	0.2789	0.87027	-0.101
Mof_C 	C 	0.62965	0.25939	0.86462	-0.005
Mof_H 	H 	0.5969	0.2697	0.8738	0.05
Mof_C 	C 	0.83841	0.88379	0.05903	-0.103
Mof_C 	C 	0.80486	0.86454	0.0875	0.006
Mof_H 	H 	0.778	0.8489	0.0764	0.026
Mof_C 	C 	0.81137	0.86865	0.13282	-0.042
Mof_H 	H 	0.7892	0.8554	0.1521	0.06
Mof_C 	C 	0.85073	0.89242	0.14936	-0.055
Mof_C 	C 	0.88234	0.91251	0.12094	-0.036
Mof_H 	H 	0.9076	0.9295	0.1317	0.063
Mof_C 	C 	0.87612	0.9072	0.07524	0.009
Mof_H 	H 	0.8985	0.9201	0.0558	0.047
Mof_C 	C 	0.83283	0.87739	0.00973	0.39
Mof_C 	C 	0.68153	0.17093	0.81172	0.368
Mof_C 	C 	0.67893	0.20879	0.83348	-0.066
Mof_C 	C 	0.6303	0.2239	0.84504	-0.033
Mof_H 	H 	0.5981	0.211	0.8401	0.058
Mof_C 	C 	0.7264	0.22821	0.84079	-0.038
Mof_H 	H 	0.7595	0.2172	0.8339	0.056
Mof_C 	C 	0.72548	0.26374	0.85824	-0.001
Mof_H 	H 	0.7576	0.2771	0.8617	0.026
Mof_C 	C 	0.85917	0.89539	0.19739	0.33
Mof_C 	C 	0.52777	0.06283	0.82721	0.005
Mof_H 	H 	0.5498	0.0457	0.8417	0.022
Mof_C 	C 	0.97195	0.92539	0.88312	0.017
Mof_H 	H 	0.95	0.9423	0.8681	0.025
Mof_Co	Co	0.61999	0.10634	0.77935	1.172
Mof_Co	Co	0.87768	0.88042	0.92383	1.178
Mof_Co	Co	0.73641	0.85973	0.94696	1.096
Mof_N 	N 	0.95412	0.89675	0.90857	-0.237
Mof_N 	N 	0.54553	0.09193	0.80265	-0.239
Mof_O 	O 	0.75763	0.91107	0.92435	-0.499
Mof_O 	O 	0.83771	0.91935	0.89201	-0.469
Mof_O 	O 	0.74069	0.08057	0.79489	-0.45
Mof_O 	O 	0.65616	0.06144	0.80565	-0.453
Mof_O 	O 	0.63007	0.33212	0.89735	-0.455
Mof_O 	O 	0.72103	0.33132	0.90129	-0.51
Mof_O 	O 	0.7939	0.8582	0.99622	-0.493
Mof_O 	O 	0.86927	0.89185	0.98606	-0.459
Mof_O 	O 	0.72455	0.16236	0.79276	-0.428
Mof_O 	O 	0.63856	0.15121	0.81385	-0.446
Mof_O 	O 	0.83241	0.8757	0.22457	-0.488
Mof_O 	O 	0.89529	0.91662	0.21196	-0.362
Mof_O 	O 	0.45515	0.15166	0.75012	-0.173
Mof_O 	O 	0.95541	0.83717	0.962	-0.163
Mof_C 	C 	0.28917	0.42792	0.8991	0.406
Mof_C 	C 	0.26747	0.46192	0.8757	-0.11
Mof_C 	C 	0.30259	0.48545	0.85339	0.002
Mof_H 	H 	0.3398	0.4808	0.8536	0.043
Mof_C 	C 	0.28215	0.51585	0.83082	-0.028
Mof_H 	H 	0.3056	0.5312	0.815	0.056
Mof_C 	C 	0.22766	0.52359	0.8315	-0.075
Mof_C 	C 	0.19246	0.50034	0.85309	-0.034
Mof_H 	H 	0.1553	0.505	0.8526	0.047
Mof_C 	C 	0.21329	0.46913	0.87615	0.003
Mof_H 	H 	0.1899	0.4535	0.8916	0.018
Mof_C 	C 	0.20671	0.55773	0.80827	0.384
Mof_C 	C 	0.1775	0.81677	0.89235	0.385
Mof_C 	C 	0.17727	0.7789	0.87027	-0.102
Mof_C 	C 	0.12965	0.75939	0.86462	-0.005
Mof_H 	H 	0.0969	0.7697	0.8738	0.049
Mof_C 	C 	0.33841	0.38379	0.05903	-0.103
Mof_C 	C 	0.30486	0.36454	0.0875	0.006
Mof_H 	H 	0.278	0.3489	0.0764	0.025
Mof_C 	C 	0.31137	0.36865	0.13282	-0.042
Mof_H 	H 	0.2892	0.3554	0.1521	0.06
Mof_C 	C 	0.35073	0.39242	0.14936	-0.056
Mof_C 	C 	0.38234	0.41251	0.12094	-0.036
Mof_H 	H 	0.4076	0.4295	0.1317	0.062
Mof_C 	C 	0.37612	0.4072	0.07524	0.009
Mof_H 	H 	0.3985	0.4201	0.0558	0.046
Mof_C 	C 	0.33283	0.37739	0.00973	0.39
Mof_C 	C 	0.18153	0.67093	0.81172	0.368
Mof_C 	C 	0.17893	0.70879	0.83348	-0.066
Mof_C 	C 	0.1303	0.7239	0.84504	-0.033
Mof_H 	H 	0.0981	0.711	0.8401	0.057
Mof_C 	C 	0.2264	0.72821	0.84079	-0.038
Mof_H 	H 	0.2595	0.7172	0.8339	0.056
Mof_C 	C 	0.22548	0.76374	0.85824	-0.001
Mof_H 	H 	0.2576	0.7771	0.8617	0.025
Mof_C 	C 	0.35917	0.39539	0.19739	0.33
Mof_C 	C 	0.02777	0.56283	0.82721	-0.007
Mof_H 	H 	0.0498	0.5457	0.8417	0.025
Mof_C 	C 	0.47195	0.42539	0.88312	0.005
Mof_H 	H 	0.45	0.4423	0.8681	0.027
Mof_Co	Co	0.11999	0.60634	0.77935	1.172
Mof_Co	Co	0.37768	0.38042	0.92383	1.178
Mof_Co	Co	0.23641	0.35973	0.94696	1.096
Mof_N 	N 	0.45412	0.39675	0.90857	-0.239
Mof_N 	N 	0.04553	0.59193	0.80265	-0.237
Mof_O 	O 	0.25763	0.41107	0.92435	-0.5
Mof_O 	O 	0.33771	0.41935	0.89201	-0.47
Mof_O 	O 	0.24069	0.58057	0.79489	-0.45
Mof_O 	O 	0.15616	0.56144	0.80565	-0.453
Mof_O 	O 	0.13007	0.83212	0.89735	-0.455
Mof_O 	O 	0.22103	0.83132	0.90129	-0.51
Mof_O 	O 	0.2939	0.3582	0.99622	-0.494
Mof_O 	O 	0.36927	0.39185	0.98606	-0.46
Mof_O 	O 	0.22455	0.66236	0.79276	-0.428
Mof_O 	O 	0.13856	0.65121	0.81385	-0.446
Mof_O 	O 	0.33241	0.3757	0.22457	-0.488
Mof_O 	O 	0.39529	0.41662	0.21196	-0.363
Mof_O 	O 	0.95515	0.65166	0.75012	-0.169
Mof_O 	O 	0.45541	0.33717	0.962	-0.168
Mof_C 	C 	0.5	0.10732	0.78864	0.156
Mof_N 	N 	0.5	0.13821	0.76133	-0.031
Mof_C 	C 	1.11933e-32	0.60732	0.78864	0.15
Mof_N 	N 	1.10674e-32	0.63821	0.76133	-0.034
Mof_C 	C 	0.5	0.39268	0.28864	0.156
Mof_N 	N 	0.5	0.36179	0.26133	-0.031
Mof_C 	C 	1.26656e-32	0.89268	0.28864	0.15
Mof_N 	N 	-6.35112e-33	0.86179	0.26133	-0.034
Mof_C 	C 	0.5	0.60732	0.71136	0.156
Mof_N 	N 	0.5	0.63821	0.73867	-0.031
Mof_C 	C 	-4.27569e-33	0.10732	0.71136	0.15
Mof_N 	N 	3.40657e-33	0.13821	0.73867	-0.034
Mof_C 	C 	0.5	0.89268	0.21136	0.156
Mof_N 	N 	0.5	0.86179	0.23867	-0.031
Mof_C 	C 	6.64198e-33	0.39268	0.21136	0.15
Mof_N 	N 	4.87885e-33	0.36179	0.23867	-0.034
Mof_C 	C 	4.25716e-33	0.88067	0.92311	0.146
Mof_N 	N 	1.94961e-32	0.84985	0.95049	-0.029
Mof_C 	C 	0.5	0.38067	0.92311	0.152
Mof_N 	N 	0.5	0.34985	0.95049	-0.027
Mof_C 	C 	2.46202e-32	0.61933	0.42311	0.146
Mof_N 	N 	9.63386e-33	0.65015	0.45049	-0.029
Mof_C 	C 	0.5	0.11933	0.42311	0.152
Mof_N 	N 	0.5	0.15015	0.45049	-0.027
Mof_C 	C 	-1.24521e-32	0.38067	0.57689	0.146
Mof_N 	N 	-5.0221e-33	0.34985	0.54951	-0.029
Mof_C 	C 	0.5	0.88067	0.57689	0.152
Mof_N 	N 	0.5	0.84985	0.54951	-0.027
Mof_C 	C 	1.29914e-33	0.11933	0.07689	0.146
Mof_N 	N 	1.64514e-33	0.15015	0.04951	-0.029
Mof_C 	C 	0.5	0.61933	0.07689	0.152
Mof_N 	N 	0.5	0.65015	0.04951	-0.027
Mof_Co	Co	0.25	0.1225	0.75	1.199
Mof_Co	Co	0.75	0.3775	0.25	1.199
Mof_Co	Co	0.75	0.6225	0.75	1.199
Mof_Co	Co	0.25	0.8775	0.25	1.199
Mof_Co	Co	0.75	0.8775	0.25	1.199
Mof_Co	Co	0.25	0.6225	0.75	1.199
Mof_Co	Co	0.25	0.3775	0.25	1.199
Mof_Co	Co	0.75	0.1225	0.75	1.199
_end
