data_functionalizedCrystal
_audit_creation_method	'EQeq! by Chris Wilmer'
_symmetry_space_group_name_H-M	'P1'
_symmetry_Int_Tables_number	1
_symmetry_cell_setting	triclinic
loop_
_symmetry_equiv_pos_as_xyz
  x,y,z
_cell_length_a	9.6859
_cell_length_b	16.914
_cell_length_c	18.412
_cell_angle_alpha	90
_cell_angle_beta	115.16
_cell_angle_gamma	90
loop_
_atom_site_label
_atom_site_type_symbol
_atom_site_fract_x
_atom_site_fract_y
_atom_site_fract_z
_atom_site_charge
Mof_Co	Co	0.5764	0.29222	0.70733	1.152
Mof_O 	O 	0.8283	0.3483	0.699	-0.31
Mof_O 	O 	0.6262	0.286	0.6133	-0.423
Mof_O 	O 	0.5434	0.2448	0.3334	-0.326
Mof_O 	O 	0.7221	0.2778	0.295	-0.404
Mof_O 	O 	0.1206	0.421	0.5427	-0.245
Mof_N 	N 	0.5496	0.404	0.7384	-0.25
Mof_N 	N 	0.4608	0.4984	0.7883	-0.105
Mof_N 	N 	0.3634	0.2469	0.6464	-0.242
Mof_N 	N 	0.1626	0.197	0.5472	-0.101
Mof_C 	C 	0.7519	0.3219	0.6306	0.284
Mof_C 	C 	0.8032	0.3322	0.5652	-0.002
Mof_C 	C 	0.7162	0.3024	0.4892	-0.07
Mof_H 	H 	0.6261	0.2756	0.4791	0.076
Mof_C 	C 	0.7624	0.3123	0.4282	0.003
Mof_C 	C 	0.898	0.3527	0.4434	-0.163
Mof_H 	H 	0.9295	0.3599	0.4027	0.105
Mof_C 	C 	0.9851	0.3819	0.5199	0.214
Mof_C 	C 	0.9367	0.3722	0.5805	-0.158
Mof_H 	H 	0.9945	0.3926	0.6313	0.108
Mof_C 	C 	0.6686	0.2764	0.3473	0.269
Mof_C 	C 	0.1867	0.4273	0.4862	0.091
Mof_H 	H 	0.1217	0.4586	0.4402	0.014
Mof_H 	H 	0.1995	0.3753	0.4677	0.008
Mof_C 	C 	0.3389	0.4669	0.5298	-0.181
Mof_H 	H 	0.4011	0.4351	0.5761	0.08
Mof_H 	H 	0.3236	0.5179	0.5492	0.1
Mof_C 	C 	0.4239	0.4786	0.4776	-0.07
Mof_H 	H 	0.3606	0.5089	0.4304	0.052
Mof_H 	H 	0.4428	0.4274	0.4597	0.053
Mof_C 	C 	0.2504	0.2332	0.6715	0.009
Mof_H 	H 	0.2577	0.244	0.7226	0.03
Mof_C 	C 	0.305	0.2244	0.5703	0.082
Mof_H 	H 	0.3558	0.2272	0.5373	0.002
Mof_C 	C 	0.1282	0.2022	0.6112	-0.004
Mof_H 	H 	0.0373	0.1871	0.6128	0.042
Mof_C 	C 	0.0665	0.1603	0.4695	-0.137
Mof_H 	H 	0.1196	0.1608	0.4352	0.079
Mof_H 	H 	0.9727	0.1902	0.4431	0.082
Mof_C 	C 	0.0304	0.077	0.4826	0.071
Mof_C 	C 	0.1404	0.019	0.5045	-0.071
Mof_H 	H 	0.2368	0.0312	0.5083	0.065
Mof_C 	C 	0.8897	0.0566	0.479	-0.075
Mof_H 	H 	0.8137	0.0949	0.4651	0.06
Mof_C 	C 	0.44	0.4257	0.7583	0.093
Mof_H 	H 	0.3575	0.3938	0.7521	-0.007
Mof_C 	C 	0.642	0.4683	0.7553	0.014
Mof_H 	H 	0.7291	0.4716	0.7462	0.026
Mof_C 	C 	0.5904	0.5261	0.7869	-0.012
Mof_H 	H 	0.6349	0.5754	0.8043	0.041
Mof_C 	C 	0.3744	0.5347	0.8284	-0.122
Mof_H 	H 	0.27	0.5158	0.8035	0.074
Mof_H 	H 	0.3724	0.5916	0.821	0.067
Mof_C 	C 	0.4417	0.5165	0.9176	0.059
Mof_C 	C 	0.4883	0.4408	0.9466	-0.071
Mof_H 	H 	0.4803	0.4005	0.9107	0.066
Mof_C 	C 	0.4539	0.5761	0.9727	-0.077
Mof_H 	H 	0.4228	0.6272	0.9547	0.061
Mof_Co	Co	0.4236	0.79222	0.79267	1.151
Mof_O 	O 	0.1717	0.8483	0.801	-0.312
Mof_O 	O 	0.3738	0.786	0.8867	-0.424
Mof_O 	O 	0.4566	0.7448	0.1666	-0.327
Mof_O 	O 	0.2779	0.7778	0.205	-0.405
Mof_O 	O 	0.8794	0.921	0.9573	-0.241
Mof_N 	N 	0.4504	0.904	0.7616	-0.251
Mof_N 	N 	0.5392	0.9984	0.7117	-0.105
Mof_N 	N 	0.6366	0.7469	0.8536	-0.242
Mof_N 	N 	0.8374	0.697	0.9528	-0.1
Mof_C 	C 	0.2481	0.8219	0.8694	0.285
Mof_C 	C 	0.1968	0.8322	0.9348	-0.004
Mof_C 	C 	0.2838	0.8024	0.0108	-0.067
Mof_H 	H 	0.3739	0.7756	0.0209	0.075
Mof_C 	C 	0.2376	0.8123	0.0718	0.001
Mof_C 	C 	0.102	0.8527	0.0566	-0.159
Mof_H 	H 	0.0705	0.8599	0.0973	0.104
Mof_C 	C 	0.0149	0.8819	0.9801	0.208
Mof_C 	C 	0.0633	0.8722	0.9195	-0.155
Mof_H 	H 	0.0055	0.8926	0.8687	0.106
Mof_C 	C 	0.3314	0.7764	0.1527	0.27
Mof_C 	C 	0.8133	0.9273	0.0138	0.081
Mof_H 	H 	0.8783	0.9586	0.0598	0.016
Mof_H 	H 	0.8005	0.8753	0.0323	0.01
Mof_C 	C 	0.6611	0.9669	0.9702	-0.169
Mof_H 	H 	0.5989	0.9351	0.9239	0.077
Mof_H 	H 	0.6764	0.0179	0.9508	0.096
Mof_C 	C 	0.5761	0.9786	0.0224	-0.075
Mof_H 	H 	0.6394	0.0089	0.0696	0.053
Mof_H 	H 	0.5572	0.9274	0.0403	0.054
Mof_C 	C 	0.7496	0.7332	0.8285	0.009
Mof_H 	H 	0.7423	0.744	0.7774	0.03
Mof_C 	C 	0.695	0.7244	0.9297	0.082
Mof_H 	H 	0.6442	0.7272	0.9627	0.002
Mof_C 	C 	0.8718	0.7022	0.8888	-0.004
Mof_H 	H 	0.9627	0.6871	0.8872	0.043
Mof_C 	C 	0.9335	0.6603	0.0305	-0.14
Mof_H 	H 	0.8804	0.6608	0.0648	0.08
Mof_H 	H 	0.0273	0.6902	0.0569	0.083
Mof_C 	C 	0.9696	0.577	0.0174	0.068
Mof_C 	C 	0.8596	0.519	0.9955	-0.071
Mof_H 	H 	0.7632	0.5312	0.9917	0.065
Mof_C 	C 	0.1103	0.5566	0.021	-0.071
Mof_H 	H 	0.1863	0.5949	0.0349	0.059
Mof_C 	C 	0.56	0.9257	0.7417	0.093
Mof_H 	H 	0.6425	0.8938	0.7479	-0.007
Mof_C 	C 	0.358	0.9683	0.7447	0.015
Mof_H 	H 	0.2709	0.9716	0.7538	0.026
Mof_C 	C 	0.4096	0.0261	0.7131	-0.013
Mof_H 	H 	0.3651	0.0754	0.6957	0.042
Mof_C 	C 	0.6256	0.0347	0.6716	-0.123
Mof_H 	H 	0.73	0.0158	0.6965	0.074
Mof_H 	H 	0.6276	0.0916	0.679	0.067
Mof_C 	C 	0.5583	0.0165	0.5824	0.059
Mof_C 	C 	0.5117	0.9408	0.5534	-0.071
Mof_H 	H 	0.5197	0.9005	0.5893	0.066
Mof_C 	C 	0.5461	0.0761	0.5273	-0.077
Mof_H 	H 	0.5772	0.1272	0.5453	0.061
Mof_Co	Co	0.4236	0.70778	0.29267	1.151
Mof_O 	O 	0.1717	0.6517	0.301	-0.311
Mof_O 	O 	0.3738	0.714	0.3867	-0.424
Mof_O 	O 	0.4566	0.7552	0.6666	-0.327
Mof_O 	O 	0.2779	0.7222	0.705	-0.405
Mof_O 	O 	0.8794	0.579	0.4573	-0.246
Mof_N 	N 	0.4504	0.596	0.2616	-0.251
Mof_N 	N 	0.5392	0.5016	0.2117	-0.106
Mof_N 	N 	0.6366	0.7531	0.3536	-0.242
Mof_N 	N 	0.8374	0.803	0.4528	-0.101
Mof_C 	C 	0.2481	0.6781	0.3694	0.284
Mof_C 	C 	0.1968	0.6678	0.4348	-0.002
Mof_C 	C 	0.2838	0.6976	0.5108	-0.07
Mof_H 	H 	0.3739	0.7244	0.5209	0.076
Mof_C 	C 	0.2376	0.6877	0.5718	0.003
Mof_C 	C 	0.102	0.6473	0.5566	-0.163
Mof_H 	H 	0.0705	0.6401	0.5973	0.105
Mof_C 	C 	0.0149	0.6181	0.4801	0.214
Mof_C 	C 	0.0633	0.6278	0.4195	-0.158
Mof_H 	H 	0.0055	0.6074	0.3687	0.108
Mof_C 	C 	0.3314	0.7236	0.6527	0.269
Mof_C 	C 	0.8133	0.5727	0.5138	0.091
Mof_H 	H 	0.8783	0.5414	0.5598	0.014
Mof_H 	H 	0.8005	0.6247	0.5323	0.008
Mof_C 	C 	0.6611	0.5331	0.4702	-0.181
Mof_H 	H 	0.5989	0.5649	0.4239	0.08
Mof_H 	H 	0.6764	0.4821	0.4508	0.1
Mof_C 	C 	0.5761	0.5214	0.5224	-0.07
Mof_H 	H 	0.6394	0.4911	0.5696	0.052
Mof_H 	H 	0.5572	0.5726	0.5403	0.053
Mof_C 	C 	0.7496	0.7668	0.3285	0.009
Mof_H 	H 	0.7423	0.756	0.2774	0.03
Mof_C 	C 	0.695	0.7756	0.4297	0.082
Mof_H 	H 	0.6442	0.7728	0.4627	0.002
Mof_C 	C 	0.8718	0.7978	0.3888	-0.004
Mof_H 	H 	0.9627	0.8129	0.3872	0.042
Mof_C 	C 	0.9335	0.8397	0.5305	-0.137
Mof_H 	H 	0.8804	0.8392	0.5648	0.079
Mof_H 	H 	0.0273	0.8098	0.5569	0.082
Mof_C 	C 	0.9696	0.923	0.5174	0.071
Mof_C 	C 	0.8596	0.981	0.4955	-0.071
Mof_H 	H 	0.7632	0.9688	0.4917	0.065
Mof_C 	C 	0.1103	0.9434	0.521	-0.075
Mof_H 	H 	0.1863	0.9051	0.5349	0.06
Mof_C 	C 	0.56	0.5743	0.2417	0.093
Mof_H 	H 	0.6425	0.6062	0.2479	-0.007
Mof_C 	C 	0.358	0.5317	0.2447	0.014
Mof_H 	H 	0.2709	0.5284	0.2538	0.026
Mof_C 	C 	0.4096	0.4739	0.2131	-0.012
Mof_H 	H 	0.3651	0.4246	0.1957	0.041
Mof_C 	C 	0.6256	0.4653	0.1716	-0.122
Mof_H 	H 	0.73	0.4842	0.1965	0.074
Mof_H 	H 	0.6276	0.4084	0.179	0.067
Mof_C 	C 	0.5583	0.4835	0.0824	0.059
Mof_C 	C 	0.5117	0.5592	0.0534	-0.071
Mof_H 	H 	0.5197	0.5995	0.0893	0.066
Mof_C 	C 	0.5461	0.4239	0.0273	-0.077
Mof_H 	H 	0.5772	0.3728	0.0453	0.061
Mof_Co	Co	0.5764	0.20778	0.20733	1.151
Mof_O 	O 	0.8283	0.1517	0.199	-0.312
Mof_O 	O 	0.6262	0.214	0.1133	-0.424
Mof_O 	O 	0.5434	0.2552	0.8334	-0.327
Mof_O 	O 	0.7221	0.2222	0.795	-0.405
Mof_O 	O 	0.1206	0.079	0.0427	-0.241
Mof_N 	N 	0.5496	0.096	0.2384	-0.251
Mof_N 	N 	0.4608	0.0016	0.2883	-0.105
Mof_N 	N 	0.3634	0.2531	0.1464	-0.242
Mof_N 	N 	0.1626	0.303	0.0472	-0.1
Mof_C 	C 	0.7519	0.1781	0.1306	0.285
Mof_C 	C 	0.8032	0.1678	0.0652	-0.004
Mof_C 	C 	0.7162	0.1976	0.9892	-0.067
Mof_H 	H 	0.6261	0.2244	0.9791	0.075
Mof_C 	C 	0.7624	0.1877	0.9282	0.001
Mof_C 	C 	0.898	0.1473	0.9434	-0.159
Mof_H 	H 	0.9295	0.1401	0.9027	0.104
Mof_C 	C 	0.9851	0.1181	0.0199	0.208
Mof_C 	C 	0.9367	0.1278	0.0805	-0.155
Mof_H 	H 	0.9945	0.1074	0.1313	0.106
Mof_C 	C 	0.6686	0.2236	0.8473	0.27
Mof_C 	C 	0.1867	0.0727	0.9862	0.081
Mof_H 	H 	0.1217	0.0414	0.9402	0.016
Mof_H 	H 	0.1995	0.1247	0.9677	0.01
Mof_C 	C 	0.3389	0.0331	0.0298	-0.169
Mof_H 	H 	0.4011	0.0649	0.0761	0.077
Mof_H 	H 	0.3236	0.9821	0.0492	0.096
Mof_C 	C 	0.4239	0.0214	0.9776	-0.075
Mof_H 	H 	0.3606	0.9911	0.9304	0.053
Mof_H 	H 	0.4428	0.0726	0.9597	0.054
Mof_C 	C 	0.2504	0.2668	0.1715	0.009
Mof_H 	H 	0.2577	0.256	0.2226	0.03
Mof_C 	C 	0.305	0.2756	0.0703	0.082
Mof_H 	H 	0.3558	0.2728	0.0373	0.002
Mof_C 	C 	0.1282	0.2978	0.1112	-0.004
Mof_H 	H 	0.0373	0.3129	0.1128	0.043
Mof_C 	C 	0.0665	0.3397	0.9695	-0.14
Mof_H 	H 	0.1196	0.3392	0.9352	0.08
Mof_H 	H 	0.9727	0.3098	0.9431	0.083
Mof_C 	C 	0.0304	0.423	0.9826	0.068
Mof_C 	C 	0.1404	0.481	0.0045	-0.071
Mof_H 	H 	0.2368	0.4688	0.0083	0.065
Mof_C 	C 	0.8897	0.4434	0.979	-0.071
Mof_H 	H 	0.8137	0.4051	0.9651	0.059
Mof_C 	C 	0.44	0.0743	0.2583	0.093
Mof_H 	H 	0.3575	0.1062	0.2521	-0.007
Mof_C 	C 	0.642	0.0317	0.2553	0.015
Mof_H 	H 	0.7291	0.0284	0.2462	0.026
Mof_C 	C 	0.5904	0.9739	0.2869	-0.013
Mof_H 	H 	0.6349	0.9246	0.3043	0.042
Mof_C 	C 	0.3744	0.9653	0.3284	-0.123
Mof_H 	H 	0.27	0.9842	0.3035	0.074
Mof_H 	H 	0.3724	0.9084	0.321	0.067
Mof_C 	C 	0.4417	0.9835	0.4176	0.059
Mof_C 	C 	0.4883	0.0592	0.4466	-0.071
Mof_H 	H 	0.4803	0.0995	0.4107	0.066
Mof_C 	C 	0.4539	0.9239	0.4727	-0.077
Mof_H 	H 	0.4228	0.8728	0.4547	0.061
_end
