data_functionalizedCrystal
_audit_creation_method	'EQeq! by Chris Wilmer'
_symmetry_space_group_name_H-M	'P1'
_symmetry_Int_Tables_number	1
_symmetry_cell_setting	triclinic
loop_
_symmetry_equiv_pos_as_xyz
  x,y,z
_cell_length_a	23.9061
_cell_length_b	24.0393
_cell_length_c	24.5496
_cell_angle_alpha	86.053
_cell_angle_beta	61.602
_cell_angle_gamma	61.498
loop_
_atom_site_label
_atom_site_type_symbol
_atom_site_fract_x
_atom_site_fract_y
_atom_site_fract_z
_atom_site_charge
Mof_Er	Er	0.36614	0.204	0.84644	1.91
Mof_Er	Er	0.63386	0.796	0.15356	1.91
Mof_Er	Er	0.86054	0.35529	0.70407	1.897
Mof_Er	Er	0.13946	0.64471	0.29593	1.899
Mof_Er	Er	0.76067	0.2243	0.25744	1.898
Mof_Er	Er	0.23933	0.7757	0.74256	1.898
Mof_H 	H 	0.9399	0.2343	0.4499	0.071
Mof_H 	H 	0.3396	0.4293	0.3659	0.078
Mof_H 	H 	0.0976	0.8577	0.9372	0.031
Mof_H 	H 	0.9238	0.2447	0.2379	0.072
Mof_H 	H 	0.7658	0.1027	0.3687	0.039
Mof_H 	H 	0.2926	0.6564	0.0202	0.079
Mof_H 	H 	0.2252	0.714	0.3421	0.034
Mof_H 	H 	0.3526	0.5874	0.1875	0.017
Mof_H 	H 	0.5473	0.1169	0.6674	0.029
Mof_H 	H 	0.957	0.6649	0.4405	0.02
Mof_H 	H 	0.1283	0.4528	0.1841	0.111
Mof_H 	H 	0.0276	0.9061	0.8678	0.033
Mof_H 	H 	0.1738	0.2571	0.6462	0.077
Mof_H 	H 	0.269	0.1075	0.9111	0.055
Mof_H 	H 	0.71	0.2286	0.6925	0.086
Mof_H 	H 	0.8262	0.7429	0.3538	0.083
Mof_H 	H 	0.8904	0.5043	0.6795	0.032
Mof_H 	H 	0.442	0.4428	0.3497	0.101
Mof_H 	H 	0.5803	0.0006	0.9018	0.089
Mof_H 	H 	0.4428	0.4352	0.1789	0.073
Mof_H 	H 	0.0631	0.6823	0.1851	0.069
Mof_H 	H 	0.8443	0.0083	0.3916	0.075
Mof_H 	H 	0.3308	0.4849	0.1825	0.017
Mof_H 	H 	0.1847	0.0897	0.9935	0.084
Mof_H 	H 	0.4379	0.8627	0.7325	0.082
Mof_H 	H 	0.119	0.8453	0.0227	0.07
Mof_H 	H 	0.6014	0.5811	0.244	0.071
Mof_H 	H 	0.2777	0.1491	0.7836	0.04
Mof_H 	H 	0.0823	0.8035	0.1182	0.075
Mof_H 	H 	0.6604	0.5707	0.6341	0.077
Mof_H 	H 	0.3311	0.0958	0.9775	0.039
Mof_H 	H 	0.3538	0.3111	0.0567	0.085
Mof_H 	H 	0.225	0.4878	0.3708	0.037
Mof_H 	H 	0.558	0.5572	0.6503	0.101
Mof_H 	H 	0.963	0.8064	0.413	0.034
Mof_H 	H 	0.9024	0.1423	0.0628	0.033
Mof_H 	H 	0.8717	0.5472	0.8159	0.106
Mof_H 	H 	0.0863	0.2536	0.6296	0.03
Mof_H 	H 	0.4151	0.8705	0.2179	0.024
Mof_H 	H 	0.9177	0.1965	0.8818	0.074
Mof_H 	H 	0.7074	0.3436	0.9798	0.08
Mof_H 	H 	0.2591	0.0611	0.7838	0.071
Mof_H 	H 	0.3248	0.4233	0.0615	0.083
Mof_H 	H 	0.0177	0.2561	0.1551	0.073
Mof_H 	H 	0.0239	0.3303	0.8309	0.105
Mof_H 	H 	0.5849	0.1295	0.7821	0.027
Mof_H 	H 	0.4227	0.6382	0.1394	0.067
Mof_H 	H 	0.8494	0.5957	0.9193	0.113
Mof_H 	H 	0.1786	0.4904	0.8794	0.095
Mof_H 	H 	0.7749	0.3324	0.1267	0.053
Mof_H 	H 	0.0269	0.7244	0.494	0.055
Mof_H 	H 	0.9823	0.7439	0.8449	0.086
Mof_H 	H 	0.731	0.8925	0.0889	0.05
Mof_H 	H 	0.5621	0.1373	0.2675	0.082
Mof_H 	H 	0.893	0.9056	0.3926	0.063
Mof_H 	H 	0.9113	0.6398	0.1709	0.096
Mof_H 	H 	0.7668	0.0059	0.1492	0.088
Mof_H 	H 	0.7328	0.3816	0.5466	0.064
Mof_H 	H 	0.0924	0.5478	0.23	0.034
Mof_H 	H 	0.5585	0.3879	0.3447	0.022
Mof_H 	H 	0.6855	0.327	0.419	0.016
Mof_H 	H 	0.0695	0.0999	0.0466	0.068
Mof_H 	H 	0.9572	0.7124	0.9532	0.086
Mof_H 	H 	0.1459	0.8108	0.2833	0.061
Mof_H 	H 	0.8999	0.1962	0.4168	0.084
Mof_H 	H 	0.5006	0.3266	0.8837	0.078
Mof_H 	H 	0.1301	0.2986	0.9579	0.038
Mof_H 	H 	0.0903	0.7894	0.2139	0.033
Mof_H 	H 	0.0817	0.9678	0.8156	0.046
Mof_H 	H 	0.9321	0.6124	0.5248	0.093
Mof_H 	H 	0.5945	0.1173	0.5677	0.088
Mof_H 	H 	0.2904	0.646	0.115	0.023
Mof_H 	H 	0.8336	0.4151	0.1298	0.113
Mof_H 	H 	0.291	0.5248	0.102	0.02
Mof_H 	H 	0.1844	0.3234	0.0135	0.023
Mof_H 	H 	0.3735	0.0563	0.0506	0.079
Mof_H 	H 	0.4322	0.672	0.5768	0.018
Mof_H 	H 	0.1924	0.9202	0.8659	0.014
Mof_H 	H 	0.4752	0.9624	0.1665	0.028
Mof_H 	H 	0.2833	0.6293	0.5291	0.081
Mof_H 	H 	0.0679	0.3876	0.4752	0.079
Mof_H 	H 	0.7884	0.5979	0.0771	0.038
Mof_H 	H 	0.5678	0.328	0.4232	0.018
Mof_H 	H 	0.1664	0.5849	0.8702	0.114
Mof_H 	H 	0.4329	0.2841	0.9223	0.027
Mof_H 	H 	0.653	0.2926	0.1689	0.054
Mof_H 	H 	0.6462	0.6889	0.9433	0.083
Mof_H 	H 	0.9305	0.9001	0.9534	0.074
Mof_H 	H 	0.8638	0.3207	0.1776	0.034
Mof_H 	H 	0.709	0.4752	0.898	0.02
Mof_H 	H 	0.6419	0.5091	0.3009	0.077
Mof_H 	H 	0.3769	0.2239	0.9973	0.054
Mof_H 	H 	0.775	0.5122	0.6292	0.036
Mof_H 	H 	0.0022	0.9459	0.2117	0.09
Mof_H 	H 	0.5248	0.0376	0.8335	0.026
Mof_H 	H 	0.6433	0.145	0.3622	0.047
Mof_H 	H 	0.9369	0.3177	0.8149	0.085
Mof_H 	H 	0.2378	0.5817	0.388	0.04
Mof_H 	H 	0.0428	0.2876	0.0468	0.096
Mof_H 	H 	0.4641	0.6599	0.8205	0.091
Mof_H 	H 	0.9137	0.7464	0.3704	0.021
Mof_H 	H 	0.1506	0.4043	0.0807	0.117
Mof_H 	H 	0.0601	0.7657	0.5501	0.075
Mof_H 	H 	0.5773	0.3618	0.8606	0.067
Mof_H 	H 	0.5359	0.3401	0.1795	0.091
Mof_H 	H 	0.2611	0.6569	0.9479	0.089
Mof_H 	H 	0.3361	0.8304	0.2537	0.097
Mof_H 	H 	0.3297	0.588	0.6658	0.012
Mof_H 	H 	0.9731	0.2756	0.506	0.05
Mof_H 	H 	0.467	0.9316	0.7508	0.076
Mof_H 	H 	0.533	0.0684	0.2492	0.063
Mof_H 	H 	0.3975	0.7885	0.7432	0.031
Mof_H 	H 	0.9761	0.6697	0.1691	0.116
Mof_H 	H 	0.043	0.3351	0.5595	0.029
Mof_H 	H 	0.1807	0.3534	0.8565	0.026
Mof_H 	H 	0.4415	0.6121	0.6553	0.022
Mof_H 	H 	0.881	0.1547	0.9773	0.068
Mof_H 	H 	0.9724	0.0939	0.1322	0.049
Mof_H 	H 	0.0762	0.7553	0.7621	0.058
Mof_H 	H 	0.7389	0.3431	0.0521	0.088
Mof_H 	H 	0.037	0.1936	0.587	0.027
Mof_H 	H 	0.6265	0.9437	0.9494	0.056
Mof_H 	H 	0.8647	0.1606	0.3586	0.066
Mof_H 	H 	0.5734	0.6676	0.203	0.025
Mof_H 	H 	0.7748	0.286	0.6579	0.033
Mof_H 	H 	0.4266	0.3324	0.797	0.025
Mof_H 	H 	0.2251	0.6676	0.8733	0.052
Mof_H 	H 	0.5962	0.7005	0.2817	0.055
Mof_H 	H 	0.9254	0.0917	0.7315	0.089
Mof_H 	H 	0.6025	0.2115	0.2568	0.032
Mof_H 	H 	0.6703	0.412	0.3342	0.012
Mof_H 	H 	0.8214	0.5096	0.1206	0.094
Mof_H 	H 	0.8699	0.7014	0.0421	0.038
Mof_H 	H 	0.3145	0.673	0.581	0.016
Mof_H 	H 	0.4888	0.0162	0.7372	0.03
Mof_H 	H 	0.1362	0.6793	0.8224	0.037
Mof_H 	H 	0.2342	0.8973	0.6313	0.037
Mof_H 	H 	0.6692	0.5151	0.8175	0.017
Mof_H 	H 	0.2607	0.2252	0.6694	0.097
Mof_H 	H 	0.9978	0.0541	0.7883	0.046
Mof_H 	H 	0.0887	0.3602	0.8291	0.101
Mof_H 	H 	0.2116	0.4021	0.9229	0.039
Mof_H 	H 	0.29	0.7714	0.3075	0.086
Mof_H 	H 	0.7096	0.354	0.885	0.022
Mof_H 	H 	0.6639	0.1696	0.7463	0.099
Mof_H 	H 	0.9123	0.5579	0.5954	0.069
Mof_H 	H 	0.9076	0.4522	0.77	0.03
Mof_H 	H 	0.5347	0.3109	0.5223	0.07
Mof_H 	H 	0.5612	0.6949	0.3903	0.088
Mof_H 	H 	0.6054	0.1275	0.4659	0.069
Mof_H 	H 	0.1353	0.8394	0.6414	0.064
Mof_H 	H 	0.4197	0.9994	0.0982	0.062
Mof_H 	H 	0.8193	0.6466	0.1435	0.027
Mof_H 	H 	0.2672	0.6184	0.4534	0.064
Mof_H 	H 	0.9097	0.2106	0.7861	0.03
Mof_H 	H 	0.7167	0.3707	0.4709	0.081
Mof_H 	H 	0.6582	0.7784	0.3053	0.042
Mof_H 	H 	0.8541	0.1892	0.7167	0.052
Mof_H 	H 	0.7223	0.8509	0.2164	0.034
Mof_H 	H 	0.5112	0.9838	0.2628	0.043
Mof_H 	H 	0.0746	0.9083	0.2685	0.07
Mof_H 	H 	0.6689	0.9042	0.0225	0.043
Mof_H 	H 	0.6231	0.7761	0.0027	0.054
Mof_H 	H 	0.2332	0.9941	0.8508	0.079
Mof_H 	H 	0.7622	0.4183	0.612	0.041
Mof_H 	H 	0.7409	0.9389	0.2162	0.073
Mof_H 	H 	0.1557	0.9917	0.6084	0.072
Mof_H 	H 	0.3567	0.855	0.6378	0.046
Mof_H 	H 	0.4653	0.6891	0.4777	0.07
Mof_H 	H 	0.4055	0.8827	0.4323	0.087
Mof_H 	H 	0.8076	0.0798	0.1341	0.017
Mof_H 	H 	0.0877	0.4421	0.4046	0.088
Mof_H 	H 	0.4388	0.3051	0.6097	0.088
Mof_H 	H 	0.5671	0.7159	0.0777	0.028
Mof_H 	H 	0.3946	0.8725	0.5341	0.069
Mof_H 	H 	0.1001	0.8038	0.5832	0.085
Mof_H 	H 	0.7393	0.7748	0.3306	0.093
Mof_H 	H 	0.8156	0.6766	0.9865	0.021
Mof_H 	H 	0.3986	0.4189	0.756	0.071
Mof_H 	H 	0.3418	0.2216	0.6947	0.041
Mof_H 	H 	0.4527	0.8831	0.3326	0.026
Mof_H 	H 	0.6752	0.5767	0.9385	0.083
Mof_H 	H 	0.107	0.0944	0.6074	0.082
Mof_H 	H 	0.5572	0.5648	0.8211	0.072
Mof_H 	H 	0.347	0.7074	0.8311	0.054
Mof_H 	H 	0.1096	0.4957	0.3205	0.025
Mof_H 	H 	0.9183	0.0322	0.1844	0.026
Mof_H 	H 	0.6474	0.4126	0.8125	0.017
Mof_H 	H 	0.3581	0.4909	0.6991	0.077
Mof_H 	H 	0.8153	0.9103	0.0065	0.07
Mof_H 	H 	0.4038	0.2995	0.7183	0.055
Mof_H 	H 	0.4994	0.6734	0.1163	0.078
Mof_C 	C 	0.1399	0.3305	0.8026	-0.097
Mof_C 	C 	0.6632	0.5577	0.6706	-0.092
Mof_C 	C 	0.6236	0.635	0.1862	0.07
Mof_C 	C 	0.3155	0.1056	0.7751	0.053
Mof_C 	C 	0.5679	0.1709	0.8029	0.081
Mof_C 	C 	0.9508	0.8158	0.909	0.059
Mof_C 	C 	0.5213	0.7381	0.1162	0.091
Mof_C 	C 	0.4248	0.7131	0.5675	0.068
Mof_C 	C 	0.3895	0.6765	0.7942	0.061
Mof_C 	C 	0.7329	0.0484	0.1744	-0.126
Mof_C 	C 	0.5209	0.6087	0.734	0.066
Mof_C 	C 	0.8048	0.6724	0.1805	0.082
Mof_C 	C 	0.7709	0.5407	0.1364	-0.08
Mof_C 	C 	0.1881	0.9309	0.6636	0.06
Mof_C 	C 	0.3626	0.8322	0.765	0.081
Mof_C 	C 	0.6845	0.8944	0.2249	0.064
Mof_C 	C 	0.181	0.7177	0.5487	0.055
Mof_C 	C 	0.7501	0.3147	0.9418	-0.084
Mof_C 	C 	0.5589	0.9757	0.2507	0.033
Mof_C 	C 	0.5918	0.2559	0.8049	0.072
Mof_C 	C 	0.781	0.681	0.9751	0.083
Mof_C 	C 	0.5705	0.0257	0.2438	-0.042
Mof_C 	C 	0.2291	0.4593	0.8636	-0.08
Mof_C 	C 	0.6374	0.1678	0.235	0.081
Mof_C 	C 	0.1982	0.5842	0.8277	-0.12
Mof_C 	C 	0.9855	0.8258	0.3813	0.053
Mof_C 	C 	0.0466	0.0243	0.7561	-0.024
Mof_C 	C 	0.1318	0.8165	0.9389	0.051
Mof_C 	C 	0.387	0.8761	0.7561	-0.123
Mof_C 	C 	0.73	0.2996	0.4186	0.08
Mof_C 	C 	0.2902	0.2485	0.7222	0.083
Mof_C 	C 	0.8703	0.2394	0.8254	0.064
Mof_C 	C 	0.0379	0.3126	0.79	-0.055
Mof_C 	C 	0.4066	0.0504	0.0069	-0.083
Mof_C 	C 	0.0492	0.1842	0.091	0.026
Mof_C 	C 	0.9687	0.5874	0.4832	-0.11
Mof_C 	C 	0.6954	0.9467	0.2222	-0.111
Mof_C 	C 	0.7571	0.7494	0.292	-0.101
Mof_C 	C 	0.3993	0.4444	0.2176	-0.109
Mof_C 	C 	0.2569	0.5099	0.1191	0.101
Mof_C 	C 	0.2479	0.3704	0.0754	0.064
Mof_C 	C 	0.4295	0.9743	0.7562	-0.104
Mof_C 	C 	0.6194	0.1795	0.3963	0.065
Mof_C 	C 	0.0963	0.7266	0.5193	-0.078
Mof_C 	C 	0.8208	0.2502	0.9965	0.04
Mof_C 	C 	0.4321	0.8291	0.1971	0.081
Mof_C 	C 	0.1411	0.8078	0.9926	-0.068
Mof_C 	C 	0.8601	0.6695	0.1974	-0.089
Mof_C 	C 	0.2006	0.6183	0.4216	0.048
Mof_C 	C 	0.4707	0.984	0.0812	-0.068
Mof_C 	C 	0.2499	0.6853	0.0582	-0.082
Mof_C 	C 	0.6672	0.5238	0.7799	0.061
Mof_C 	C 	0.1654	0.6945	0.5109	0.032
Mof_C 	C 	0.9452	0.884	0.3677	-0.073
Mof_C 	C 	0.9413	0.5121	0.5863	-0.081
Mof_C 	C 	0.5543	0.3811	0.3095	0.068
Mof_C 	C 	0.4812	0.7147	0.1383	-0.126
Mof_C 	C 	0.67	0.7378	0.9863	0.064
Mof_C 	C 	0.9061	0.1709	0.6958	0.082
Mof_C 	C 	0.1297	0.7606	0.1746	0.064
Mof_C 	C 	0.5553	0.7367	0.3149	0.058
Mof_C 	C 	0.0587	0.4879	0.4137	-0.124
Mof_C 	C 	0.6419	0.0111	0.2278	0.061
Mof_C 	C 	0.0145	0.1742	0.6187	0.093
Mof_C 	C 	0.2467	0.6774	0.1154	0.081
Mof_C 	C 	0.0694	0.0303	0.6951	0.048
Mof_C 	C 	0.9775	0.9135	0.3183	0.022
Mof_C 	C 	0.0177	0.8732	0.8636	0.07
Mof_C 	C 	0.791	0.2955	0.0992	0.048
Mof_C 	C 	0.5956	0.5741	0.7315	0.042
Mof_C 	C 	0.1277	0.7716	0.115	-0.09
Mof_C 	C 	0.0743	0.2671	0.6711	0.072
Mof_C 	C 	0.2222	0.1435	0.9396	0.05
Mof_C 	C 	0.0894	0.2505	0.0204	-0.103
Mof_C 	C 	0.4891	0.0129	0.9782	0.08
Mof_C 	C 	0.1829	0.641	0.7999	0.08
Mof_C 	C 	0.7098	0.7515	0.2778	0.078
Mof_C 	C 	0.3806	0.8205	0.6037	0.065
Mof_C 	C 	0.53	0.1576	0.6555	0.113
Mof_C 	C 	0.1857	0.7395	0.0571	0.069
Mof_C 	C 	0.2262	0.4305	0.1126	0.095
Mof_C 	C 	0.7333	0.3008	0.6994	0.069
Mof_C 	C 	0.4439	0.8431	0.4028	-0.134
Mof_C 	C 	0.4791	0.3913	0.266	0.066
Mof_C 	C 	0.5561	0.1569	0.5972	-0.133
Mof_C 	C 	0.7303	0.5232	0.6675	0.049
Mof_C 	C 	0.3344	0.9384	0.7829	0.095
Mof_C 	C 	0.2671	0.9516	0.8256	-0.129
Mof_C 	C 	0.4598	0.6492	0.7867	-0.114
Mof_C 	C 	0.7533	0.3226	0.8846	0.082
Mof_C 	C 	0.0466	0.7846	0.8016	0.071
Mof_C 	C 	0.4044	0.4259	0.2685	0.042
Mof_C 	C 	0.751	0.5934	0.1125	0.078
Mof_C 	C 	0.5934	0.9496	0.9931	-0.056
Mof_C 	C 	0.9914	0.7765	0.8513	-0.115
Mof_C 	C 	0.1454	0.7741	0.5814	-0.099
Mof_C 	C 	0.7521	0.6296	0.9246	0.062
Mof_C 	C 	0.9621	0.6874	0.21	-0.106
Mof_C 	C 	0.0225	0.0865	0.6817	0.079
Mof_C 	C 	0.8171	0.359	0.2001	0.081
Mof_C 	C 	0.3046	0.0533	0.7778	-0.059
Mof_C 	C 	0.3833	0.6546	0.182	-0.095
Mof_C 	C 	0.4447	0.2633	0.6851	0.058
Mof_C 	C 	0.6656	0.0616	0.2171	0.094
Mof_C 	C 	0.1614	0.4687	0.1657	-0.122
Mof_C 	C 	0.5939	0.17	0.4587	-0.076
Mof_C 	C 	0.8682	0.1835	0.0611	0.047
Mof_C 	C 	0.1996	0.3686	0.0622	-0.124
Mof_C 	C 	0.1792	0.7498	0.0035	0.045
Mof_C 	C 	0.6105	0.3235	0.2058	0.061
Mof_C 	C 	0.2421	0.9081	0.8364	0.097
Mof_C 	C 	0.1399	0.5235	0.1937	0.118
Mof_C 	C 	0.4411	0.0243	0.7493	0.1
Mof_C 	C 	0.782	0.359	0.5386	-0.075
Mof_C 	C 	0.2667	0.6992	0.3006	0.068
Mof_C 	C 	0.6344	0.2889	0.7796	0.049
Mof_C 	C 	0.8589	0.1922	0.0074	-0.063
Mof_C 	C 	0.7431	0.4901	0.8809	0.101
Mof_C 	C 	0.8346	0.3055	0.4891	0.033
Mof_C 	C 	0.7114	0.5312	0.1889	0.054
Mof_C 	C 	0.3764	0.365	0.8138	0.07
Mof_C 	C 	0.8589	0.7432	0.0328	0.056
Mof_C 	C 	0.3399	0.6257	0.2105	0.073
Mof_C 	C 	0.6147	0.1955	0.78	-0.117
Mof_C 	C 	0.4496	0.7772	0.4875	0.034
Mof_C 	C 	0.0151	0.6936	0.2187	0.074
Mof_C 	C 	0.8018	0.4158	0.1723	-0.122
Mof_C 	C 	0.5752	0.2869	0.4325	0.068
Mof_C 	C 	0.9615	0.8689	0.915	-0.099
Mof_C 	C 	0.2429	0.2506	0.708	-0.108
Mof_C 	C 	0.8723	0.2284	0.885	-0.092
Mof_C 	C 	0.4952	0.0434	0.8779	0.082
Mof_C 	C 	0.8371	0.7085	0.2493	0.047
Mof_C 	C 	0.27	0.7004	0.5814	0.081
Mof_C 	C 	0.8119	0.0691	0.3364	0.06
Mof_C 	C 	0.7773	0.303	0.0507	-0.055
Mof_C 	C 	0.4712	0.7853	0.425	0.06
Mof_C 	C 	0.8601	0.4765	0.8063	0.115
Mof_C 	C 	0.5109	0.9871	0.0218	-0.004
Mof_C 	C 	0.4477	0.7235	0.509	-0.101
Mof_C 	C 	0.7579	0.0919	0.1636	0.097
Mof_C 	C 	0.2961	0.5866	0.7065	0.092
Mof_C 	C 	0.074	0.5188	0.3629	0.095
Mof_C 	C 	0.613	0.1239	0.2439	-0.121
Mof_C 	C 	0.2613	0.5301	0.7882	0.078
Mof_C 	C 	0.077	0.7033	0.4834	0.049
Mof_C 	C 	0.1037	0.1916	0.0362	0.06
Mof_C 	C 	0.3853	0.8045	0.22	-0.117
Mof_C 	C 	0.6601	0.3743	0.7895	0.073
Mof_C 	C 	0.359	0.4165	0.7907	-0.098
Mof_C 	C 	0.2526	0.6735	0.5498	-0.103
Mof_C 	C 	0.4846	0.4104	0.3139	-0.121
Mof_C 	C 	0.7387	0.4699	0.2118	0.078
Mof_C 	C 	0.3368	0.4423	0.3294	-0.091
Mof_C 	C 	0.7994	0.3817	0.5784	0.048
Mof_C 	C 	0.4787	0.2619	0.8838	0.091
Mof_C 	C 	0.6178	0.9238	0.0368	0.054
Mof_C 	C 	0.819	0.2823	0.4513	0.054
Mof_C 	C 	0.219	0.319	0.0249	0.085
Mof_C 	C 	0.926	0.4812	0.6371	0.067
Mof_C 	C 	0.249	0.4066	0.8875	0.078
Mof_C 	C 	0.33	0.2622	0.0137	0.067
Mof_C 	C 	0.0313	0.4126	0.5168	-0.053
Mof_C 	C 	0.8963	0.8084	0.9638	0.037
Mof_C 	C 	0.3052	0.7343	0.2807	-0.089
Mof_C 	C 	0.1952	0.3276	0.8195	0.085
Mof_C 	C 	0.5334	0.7328	0.3792	-0.1
Mof_C 	C 	0.0169	0.3809	0.5657	0.081
Mof_C 	C 	0.8546	0.2259	0.4186	-0.098
Mof_C 	C 	0.4457	0.6189	0.6905	0.068
Mof_C 	C 	0.3328	0.4762	0.2201	0.062
Mof_C 	C 	0.7246	0.5488	0.9062	-0.115
Mof_C 	C 	0.2227	0.697	0.9493	-0.058
Mof_C 	C 	0.8929	0.7063	0.259	0.064
Mof_C 	C 	0.6865	0.4704	0.2744	-0.117
Mof_C 	C 	0.5048	0.9566	0.1221	0.056
Mof_C 	C 	0.3167	0.3141	0.0498	-0.105
Mof_C 	C 	0.5154	0.5896	0.6861	-0.121
Mof_C 	C 	0.1671	0.7971	0.6158	0.062
Mof_C 	C 	0.0065	0.5172	0.4747	0.104
Mof_C 	C 	0.8251	0.8676	0.0116	-0.082
Mof_C 	C 	0.5293	0.016	0.9188	-0.109
Mof_C 	C 	0.4082	0.7441	0.1951	0.072
Mof_C 	C 	0.9106	0.7495	0.9796	-0.092
Mof_C 	C 	0.3135	0.5296	0.7256	-0.116
Mof_C 	C 	0.4061	0.83	0.5413	-0.076
Mof_C 	C 	0.7474	0.3265	0.4502	-0.102
Mof_C 	C 	0.6007	0.5556	0.7824	-0.109
Mof_C 	C 	0.9534	0.9757	0.2439	-0.133
Mof_C 	C 	0.1411	0.2568	0.9672	0.064
Mof_C 	C 	0.5402	0.3508	0.2133	-0.114
Mof_C 	C 	0.641	0.5835	0.2093	-0.098
Mof_C 	C 	0.4666	0.2672	0.6208	-0.1
Mof_C 	C 	0.6167	0.3454	0.818	-0.095
Mof_C 	C 	0.0548	0.116	0.6323	-0.101
Mof_C 	C 	0.7738	0.5695	0.8874	0.093
Mof_C 	C 	0.5288	0.2147	0.575	0.06
Mof_C 	C 	0.9534	0.2154	0.1984	0.023
Mof_C 	C 	0.8614	0.014	0.3492	-0.061
Mof_C 	C 	0.9306	0.9697	0.3049	0.052
Mof_C 	C 	0.5523	0.2765	0.491	-0.101
Mof_C 	C 	0.9849	0.3064	0.7813	0.017
Mof_C 	C 	0.7778	0.8565	0.0604	0.042
Mof_C 	C 	0.2697	0.4768	0.3325	0.049
Mof_C 	C 	0.0385	0.1311	0.085	-0.042
Mof_C 	C 	0.0966	0.9719	0.7728	0.017
Mof_C 	C 	0.47	0.8424	0.3445	0.113
Mof_C 	C 	0.0086	0.2235	0.1487	-0.055
Mof_C 	C 	0.3822	0.0762	0.9632	0.075
Mof_C 	C 	0.5188	0.2853	0.8617	-0.126
Mof_C 	C 	0.923	0.2967	0.5166	0.048
Mof_C 	C 	0.1749	0.1324	0.9884	-0.092
Mof_C 	C 	0.209	0.7045	0.9008	0.05
Mof_C 	C 	0.2886	0.4688	0.8111	0.055
Mof_C 	C 	0.8329	0.2029	0.3842	0.061
Mof_C 	C 	0.1386	0.986	0.6508	-0.093
Mof_C 	C 	0.1629	0.2915	0.7507	0.061
Mof_C 	C 	0.8743	0.7294	0.3191	-0.107
Mof_C 	C 	0.8386	0.5313	0.8343	-0.121
Mof_C 	C 	0.1257	0.2706	0.6809	-0.085
Mof_C 	C 	0.7039	0.4134	0.2935	0.092
Mof_C 	C 	0.0939	0.8291	0.3042	0.054
Mof_C 	C 	0.9935	0.4828	0.5253	0.02
Mof_C 	C 	0.9257	0.7329	0.3289	0.084
Mof_C 	C 	0.9488	0.1141	0.7057	-0.128
Mof_C 	C 	0.218	0.641	0.4614	-0.075
Mof_C 	C 	0.9831	0.6191	0.4343	0.085
Mof_C 	C 	0.0512	0.8859	0.2943	-0.07
Mof_C 	C 	0.9037	0.2734	0.4807	-0.08
Mof_C 	C 	0.9823	0.1268	0.1364	0.025
Mof_C 	C 	0.2754	0.4512	0.0938	-0.116
Mof_C 	C 	0.1071	0.2937	0.741	0.04
Mof_C 	C 	0.9034	0.0281	0.2272	0.093
Mof_C 	C 	0.8004	0.6314	0.9378	-0.123
Mof_C 	C 	0.8143	0.2605	0.9429	0.072
Mof_C 	C 	0.6833	0.6859	0.9502	-0.104
Mof_C 	C 	0.3656	0.7111	0.2204	0.048
Mof_C 	C 	0.3581	0.9889	0.7722	0.033
Mof_C 	C 	0.5504	0.2228	0.5125	0.034
Mof_C 	C 	0.6948	0.2657	0.7193	-0.089
Mof_N 	N 	0.9639	0.4185	0.6223	-0.075
Mof_N 	N 	0.6161	0.3423	0.2525	-0.06
Mof_N 	N 	0.7171	0.7379	0.9994	-0.063
Mof_N 	N 	0.8132	0.2894	0.8291	-0.059
Mof_N 	N 	0.4256	0.0744	0.9054	-0.073
Mof_N 	N 	0.9401	0.1696	0.1937	-0.053
Mof_N 	N 	0.6785	0.6422	0.1369	-0.059
Mof_N 	N 	0.708	0.1508	0.1969	-0.076
Mof_N 	N 	0.9389	0.2009	0.6555	-0.083
Mof_N 	N 	0.292	0.8492	0.8031	-0.076
Mof_N 	N 	0.0599	0.8304	0.8063	-0.068
Mof_N 	N 	0.3852	0.0888	0.7591	-0.067
Mof_N 	N 	0.2841	0.6494	0.2665	-0.069
Mof_N 	N 	0.1289	0.6507	0.4335	-0.039
Mof_N 	N 	0.7676	0.2413	0.3882	-0.066
Mof_N 	N 	0.3839	0.6577	0.7475	-0.06
Mof_N 	N 	0.7924	0.7951	0.0724	-0.054
Mof_N 	N 	0.5153	0.7949	0.3018	-0.077
Mof_N 	N 	0.9884	0.718	0.282	-0.079
Mof_N 	N 	0.7663	0.3594	0.2572	-0.075
Mof_N 	N 	0.8711	0.3493	0.5665	-0.039
Mof_N 	N 	0.2829	0.2621	0.0006	-0.063
Mof_N 	N 	0.4847	0.2051	0.6982	-0.076
Mof_N 	N 	0.8291	0.2332	0.1089	-0.045
Mof_N 	N 	0.1889	0.5464	0.1688	-0.058
Mof_N 	N 	0.3215	0.3578	0.8631	-0.059
Mof_N 	N 	0.2337	0.6406	0.7428	-0.074
Mof_N 	N 	0.0361	0.5815	0.3777	-0.074
Mof_N 	N 	0.6148	0.9112	0.2409	-0.062
Mof_N 	N 	0.2621	0.2875	0.7797	-0.075
Mof_N 	N 	0.1623	0.9312	0.7271	-0.054
Mof_N 	N 	0.2324	0.7587	0.6118	-0.067
Mof_N 	N 	0.0116	0.282	0.718	-0.052
Mof_N 	N 	0.1868	0.7106	0.1709	-0.059
Mof_N 	N 	0.8111	0.4536	0.8312	-0.058
Mof_N 	N 	0.2076	0.2049	0.9276	-0.056
Mof_N 	N 	0.7379	0.7125	0.2203	-0.074
Mof_N 	N 	0.6104	0.2337	0.3862	-0.07
Mof_N 	N 	0.2696	0.4953	0.2764	-0.065
Mof_N 	N 	0.8377	0.0688	0.2729	-0.065
Mof_N 	N 	0.7159	0.3506	0.7335	-0.069
Mof_N 	N 	0.5744	0.9256	0.0946	-0.066
Mof_N 	N 	0.5002	0.2025	0.8524	-0.066
Mof_N 	N 	0.4998	0.7975	0.1476	-0.066
Mof_N 	N 	0.3896	0.7663	0.6138	-0.071
Mof_N 	N 	0.7304	0.5047	0.7236	-0.065
Mof_N 	N 	0.0611	0.7991	0.3445	-0.064
Mof_N 	N 	0.1709	0.7668	0.8911	-0.045
Mof_O 	O 	0.8087	0.3023	0.7804	-0.278
Mof_O 	O 	0.1686	0.6032	0.1959	-0.283
Mof_O 	O 	0.8995	0.258	0.643	-0.282
Mof_O 	O 	0.1005	0.742	0.357	-0.28
Mof_O 	O 	0.9495	0.3868	0.669	-0.296
Mof_O 	O 	0.1168	0.8331	0.7583	-0.273
Mof_O 	O 	0.6021	0.8993	0.1324	-0.3
Mof_O 	O 	0.7822	0.3056	0.2806	-0.269
Mof_O 	O 	0.4637	0.2078	0.7598	-0.301
Mof_O 	O 	0.6967	0.7833	0.0417	-0.285
Mof_O 	O 	0.6804	0.3243	0.2457	-0.294
Mof_O 	O 	0.8832	0.1669	0.2417	-0.274
Mof_O 	O 	0.7437	0.2213	0.3581	-0.306
Mof_O 	O 	0.9599	0.2756	0.7116	-0.316
Mof_O 	O 	0.6429	0.2408	0.324	-0.302
Mof_O 	O 	0.162	0.7707	0.8438	-0.305
Mof_O 	O 	0.838	0.2293	0.1562	-0.306
Mof_O 	O 	0.5436	0.8204	0.1265	-0.289
Mof_O 	O 	0.3571	0.7592	0.676	-0.302
Mof_O 	O 	0.8845	0.3687	0.6015	-0.299
Mof_O 	O 	0.3196	0.6757	0.7543	-0.294
Mof_O 	O 	0.7975	0.47	0.7187	-0.289
Mof_O 	O 	0.6024	0.8605	0.2422	-0.294
Mof_O 	O 	0.7521	0.3819	0.7089	-0.315
Mof_O 	O 	0.6611	0.6959	0.1129	-0.3
Mof_O 	O 	0.0505	0.6132	0.331	-0.289
Mof_O 	O 	0.2025	0.53	0.2813	-0.289
Mof_O 	O 	0.3979	0.1007	0.8676	-0.296
Mof_O 	O 	0.4564	0.1796	0.8735	-0.289
Mof_O 	O 	0.2093	0.8825	0.7425	-0.306
Mof_O 	O 	0.3976	0.1395	0.7578	-0.293
Mof_O 	O 	0.3033	0.2167	0.9583	-0.286
Mof_O 	O 	0.1155	0.6313	0.3985	-0.296
Mof_O 	O 	0.5363	0.7922	0.2402	-0.301
Mof_O 	O 	0.7907	0.1175	0.2575	-0.304
Mof_O 	O 	0.7456	0.7893	0.1256	-0.302
Mof_O 	O 	0.2563	0.7787	0.6419	-0.306
Mof_O 	O 	0.2544	0.2107	0.8744	-0.301
Mof_O 	O 	0.3389	0.3041	0.8871	-0.3
Mof_O 	O 	0.686	0.7187	0.2042	-0.288
Mof_O 	O 	0.8314	0.3968	0.8041	-0.283
Mof_O 	O 	0.2479	0.6181	0.2911	-0.315
Mof_O 	O 	0.2178	0.6944	0.7194	-0.269
Mof_O 	O 	0.314	0.2813	0.7958	-0.288
Mof_O 	O 	0.7303	0.1948	0.19	-0.286
Mof_O 	O 	0.2697	0.8052	0.81	-0.286
Mof_O 	O 	0.0401	0.7244	0.2884	-0.302
Mof_O 	O 	0.1913	0.6977	0.2196	-0.279
Mof_Mo	Mo	0.73613	0.15612	0.87422	2.258
Mof_Mo	Mo	0.67296	0.18865	0.02672	2.133
Mof_Mo	Mo	0.7423	0.0172	0.8886	2.175
Mof_Mo	Mo	0.82745	0.05493	0.93739	2.043
Mof_Mo	Mo	0.58794	0.15157	0.97597	2.06
Mof_Mo	Mo	0.67866	0.05034	0.03978	2.091
Mof_O 	O 	0.7542	0.0801	0.8377	-0.784
Mof_O 	O 	0.6971	0.2185	0.9503	-0.752
Mof_O 	O 	0.9173	0.022	0.9213	-0.54
Mof_O 	O 	0.5885	0.0966	0.0405	-0.721
Mof_O 	O 	0.7722	0.9521	0.8349	-0.548
Mof_O 	O 	0.7773	0.136	0.9943	-0.747
Mof_O 	O 	0.833	0.9977	0.8836	-0.763
Mof_O 	O 	0.4985	0.1865	0.994	-0.548
Mof_O 	O 	0.6619	0.0078	0.0975	-0.553
Mof_O 	O 	0.6505	0.2502	0.0751	-0.594
Mof_O 	O 	0.8273	0.108	0.8729	-0.746
Mof_O 	O 	0.6323	0.1842	0.9073	-0.76
Mof_O 	O 	0.7862	0.0169	0.0063	-0.694
Mof_O 	O 	0.7103	0.1024	0.9541	-1.017
Mof_O 	O 	0.663	0.1246	0.0789	-0.767
Mof_O 	O 	0.6386	0.0711	0.9174	-0.735
Mof_O 	O 	0.5816	0.2104	0.0304	-0.742
Mof_O 	O 	0.7161	0.9903	0.9661	-0.792
Mof_O 	O 	0.7518	0.1945	0.8163	-0.63
Mof_Mo	Mo	0.32134	0.94966	0.96022	2.042
Mof_Mo	Mo	0.17255	0.94507	0.06261	1.996
Mof_Mo	Mo	0.32704	0.81135	0.97328	2.126
Mof_Mo	Mo	0.41206	0.84843	0.02403	2.056
Mof_Mo	Mo	0.26387	0.84388	0.12578	2.252
Mof_Mo	Mo	0.2577	0.9828	0.1114	2.03
Mof_O 	O 	0.3677	0.8158	0.0927	-0.759
Mof_O 	O 	0.337	0.8754	0.9211	-0.759
Mof_O 	O 	0.1727	0.892	0.1271	-0.743
Mof_O 	O 	0.2458	0.9199	0.1623	-0.772
Mof_O 	O 	0.3381	0.9922	0.9025	-0.565
Mof_O 	O 	0.2138	0.9831	0.9937	-0.7
Mof_O 	O 	0.3029	0.7815	0.0497	-0.749
Mof_O 	O 	0.5015	0.8135	0.006	-0.549
Mof_O 	O 	0.2897	0.8976	0.0459	-1.005
Mof_O 	O 	0.4184	0.7896	0.9696	-0.741
Mof_O 	O 	0.167	0.0023	0.1164	-0.7
Mof_O 	O 	0.3495	0.7498	0.9249	-0.593
Mof_O 	O 	0.4115	0.9034	0.9595	-0.723
Mof_O 	O 	0.2278	0.0479	0.1651	-0.495
Mof_O 	O 	0.2227	0.864	0.0057	-0.739
Mof_O 	O 	0.2839	0.0097	0.0339	-0.733
Mof_O 	O 	0.3614	0.9289	0.0826	-0.725
Mof_O 	O 	0.2482	0.8055	0.1837	-0.629
Mof_O 	O 	0.0827	0.978	0.0787	-0.543
Mof_Mo	Mo	0.0574	0.9576	0.5564	2.269
Mof_Mo	Mo	0.0313	0.0806	0.4867	2.19
Mof_Mo	Mo	0.9687	0.9194	0.5133	2.131
Mof_Mo	Mo	0.8929	0.0634	0.5942	2.206
Mof_Mo	Mo	0.9426	0.0424	0.4436	2.342
Mof_Mo	Mo	0.1071	0.9366	0.4058	2.163
Mof_O 	O 	0.1346	0.9119	0.4697	-0.768
Mof_O 	O 	0.9237	0.9719	0.4663	-0.767
Mof_O 	O 	0.0231	0.8989	0.5559	-0.761
Mof_O 	O 	0.1027	0.9236	0.5969	-0.595
Mof_O 	O 	0.1122	0.0135	0.4152	-0.73
Mof_O 	O 	0.9769	0.1011	0.4441	-0.784
Mof_O 	O 	0.055	0.1376	0.4775	-0.574
Mof_O 	O 	0.9398	0.1154	0.5654	-0.767
Mof_O 	O 	0.8172	0.1084	0.6623	-0.606
Mof_O 	O 	0.032	0.99	0.3853	-0.913
Mof_O 	O 	0.8654	0.0881	0.5303	-0.774
Mof_O 	O 	0.8878	0.9865	0.5848	-0.757
Mof_O 	O 	0.945	0.8624	0.5225	-0.575
Mof_O 	O 	0.0602	0.8846	0.4346	-0.745
Mof_O 	O 	-2.12979e-17	0	0.5	-1.022
Mof_O 	O 	0.0763	0.0281	0.5337	-0.74
Mof_O 	O 	0.8973	0.0764	0.4031	-0.601
Mof_O 	O 	0.1828	0.8916	0.3377	-0.603
Mof_O 	O 	0.968	0.01	0.6147	-0.894
Mof_Mo	Mo	0.4193	0.1085	0.5356	2.436
Mof_Mo	Mo	0.4526	0.9957	0.4376	2.327
Mof_Mo	Mo	0.41567	0.97992	0.58335	2.327
Mof_Mo	Mo	0.5807	0.8915	0.4644	2.43
Mof_Mo	Mo	0.58433	0.02008	0.41665	2.387
Mof_Mo	Mo	0.5474	0.0043	0.5624	2.42
Mof_O 	O 	0.638	0.8114	0.434	-0.62
Mof_O 	O 	0.6312	0.9331	0.4008	-0.842
Mof_O 	O 	0.5819	0.0069	0.6049	-0.67
Mof_O 	O 	0.4623	0.0916	0.5813	-0.88
Mof_O 	O 	0.5279	0.0198	0.387	-0.82
Mof_O 	O 	0.4721	0.9802	0.613	-0.846
Mof_O 	O 	0.6028	0.9202	0.516	-0.904
Mof_O 	O 	0.6474	0.0374	0.3582	-0.593
Mof_O 	O 	0.362	0.1886	0.566	-0.62
Mof_O 	O 	0.3526	0.9626	0.6418	-0.592
Mof_O 	O 	0.3978	0.9774	0.514	-0.817
Mof_O 	O 	0.5018	0.1044	0.4623	-0.833
Mof_O 	O 	0.4181	0.9931	0.3951	-0.665
Mof_O 	O 	0.3972	0.0798	0.484	-0.873
Mof_O 	O 	0.4982	0.8956	0.5377	-0.824
Mof_O 	O 	0.3688	0.0669	0.5992	-0.811
Mof_O 	O 	0.5377	0.9084	0.4187	-0.872
Mof_O 	O 	0.6022	0.0226	0.486	-0.826
Mof_O 	O 	0.5	0	0.5	-1.052
Mof_Mo	Mo	0.7516	0.579	0.3434	2.127
Mof_Mo	Mo	0.9272	0.516	0.2935	2.103
Mof_Mo	Mo	0.7331	0.5168	0.4719	2.1
Mof_Mo	Mo	0.9079	0.456	0.4204	2.091
Mof_Mo	Mo	0.8029	0.6114	0.4335	2.113
Mof_Mo	Mo	0.8565	0.4223	0.3315	2.105
Mof_O 	O 	0.8868	0.5931	0.3518	-0.736
Mof_O 	O 	0.829	0.5175	0.3825	-1.005
Mof_O 	O 	0.8715	0.5445	0.4541	-0.74
Mof_O 	O 	0.7832	0.6804	0.4705	-0.559
Mof_O 	O 	0.6952	0.6209	0.3154	-0.586
Mof_O 	O 	0.8758	0.3535	0.2948	-0.565
Mof_O 	O 	0.7884	0.4894	0.3105	-0.732
Mof_O 	O 	0.8457	0.5656	0.2793	-0.75
Mof_O 	O 	0.8142	0.4682	0.486	-0.75
Mof_O 	O 	0.7725	0.4404	0.4138	-0.742
Mof_O 	O 	0.7442	0.6432	0.3928	-0.732
Mof_O 	O 	0.6614	0.5172	0.5366	-0.581
Mof_O 	O 	0.9148	0.3912	0.3723	-0.742
Mof_O 	O 	0.6883	0.5657	0.4233	-0.728
Mof_O 	O 	0.7289	0.5938	0.496	-0.744
Mof_O 	O 	0.9982	0.5167	0.2289	-0.559
Mof_O 	O 	0.9648	0.4129	0.4487	-0.564
Mof_O 	O 	0.9723	0.4677	0.3412	-0.744
Mof_O 	O 	0.9308	0.4398	0.269	-0.746
Mof_Mo	Mo	0.2669	0.4832	0.5281	2.1
Mof_Mo	Mo	0.1971	0.3886	0.5665	2.114
Mof_Mo	Mo	0.0921	0.544	0.5796	2.092
Mof_Mo	Mo	0.0728	0.484	0.7065	2.105
Mof_Mo	Mo	0.1435	0.5777	0.6685	2.106
Mof_Mo	Mo	0.2484	0.421	0.6566	2.127
Mof_O 	O 	0.2558	0.3568	0.6072	-0.732
Mof_O 	O 	0.3117	0.4343	0.5767	-0.728
Mof_O 	O 	0.1242	0.6465	0.7052	-0.562
Mof_O 	O 	0.0352	0.5871	0.5513	-0.556
Mof_O 	O 	0.3048	0.3791	0.6846	-0.586
Mof_O 	O 	0.2711	0.4062	0.504	-0.744
Mof_O 	O 	0.0018	0.4833	0.7711	-0.549
Mof_O 	O 	0.2116	0.5106	0.6895	-0.732
Mof_O 	O 	0.1858	0.5318	0.514	-0.75
Mof_O 	O 	0.0692	0.5602	0.731	-0.742
Mof_O 	O 	0.1285	0.4555	0.5459	-0.737
Mof_O 	O 	0.1132	0.4069	0.6482	-0.733
Mof_O 	O 	0.1543	0.4344	0.7207	-0.75
Mof_O 	O 	0.2275	0.5596	0.5862	-0.742
Mof_O 	O 	0.171	0.4825	0.6175	-1.005
Mof_O 	O 	0.0852	0.6088	0.6277	-0.74
Mof_O 	O 	0.2168	0.3196	0.5295	-0.557
Mof_O 	O 	0.0277	0.5323	0.6588	-0.738
Mof_O 	O 	0.3386	0.4828	0.4634	-0.581
Mof_C 	C 	0.8722	0.4138	0.9707	0.815
Mof_S 	S 	0.9448	0.3725	0.9907	0.276
Mof_O 	O 	0.9375	0.4214	0.0288	-0.18
Mof_O 	O 	0.931	0.3244	0.0252	-0.176
Mof_O 	O 	0.0137	0.3431	0.9302	-0.169
Mof_F 	F 	0.8067	0.4441	0.0225	-0.49
Mof_F 	F 	0.8824	0.4564	0.936	-0.486
Mof_F 	F 	0.8734	0.3715	0.9377	-0.492
Mof_C 	C 	0.1278	0.5862	0.0293	0.811
Mof_S 	S 	0.0552	0.6275	0.0093	0.305
Mof_O 	O 	0.9863	0.6569	0.0698	-0.19
Mof_O 	O 	0.0625	0.5786	0.9712	-0.179
Mof_O 	O 	0.069	0.6756	0.9748	-0.176
Mof_F 	F 	0.1933	0.5559	0.9775	-0.491
Mof_F 	F 	0.1266	0.6285	0.0623	-0.488
Mof_F 	F 	0.1176	0.5436	0.064	-0.481
_end
