data_functionalizedCrystal
_audit_creation_method	'EQeq! by Chris Wilmer'
_symmetry_space_group_name_H-M	'P1'
_symmetry_Int_Tables_number	1
_symmetry_cell_setting	triclinic
loop_
_symmetry_equiv_pos_as_xyz
  x,y,z
_cell_length_a	14.7173
_cell_length_b	14.7173
_cell_length_c	16.6563
_cell_angle_alpha	79.3109
_cell_angle_beta	73.1309
_cell_angle_gamma	117.495
loop_
_atom_site_label
_atom_site_type_symbol
_atom_site_fract_x
_atom_site_fract_y
_atom_site_fract_z
_atom_site_charge
Mof_Ni	Ni	0.5	-4.00671e-17	0.5	1.044
Mof_Ni	Ni	-0	0	-0	1.016
Mof_Ni	Ni	0.5	0	-0	1.02
Mof_Ni	Ni	0.5	0.5	0.5	1.067
Mof_Mo	Mo	0.59476	0.84476	0.25	1.061
Mof_Mo	Mo	0.40524	0.15524	0.75	0.977
Mof_H 	H 	0.3378	0.888	0.6538	0.103
Mof_H 	H 	0.5804	0.8919	0.5141	0.088
Mof_H 	H 	0.381	0.8764	0.9384	0.106
Mof_H 	H 	0.376	0.8799	0.1547	0.093
Mof_H 	H 	0.3841	0.7486	0.5889	0.029
Mof_H 	H 	0.3192	0.726	0.6934	0.025
Mof_H 	H 	0.4841	0.878	0.6845	0.031
Mof_H 	H 	0.5136	0.7937	0.6547	0.017
Mof_H 	H 	0.6863	0.0419	0.5664	-0.158
Mof_H 	H 	0.7627	0.0428	0.3943	0.177
Mof_H 	H 	0.8472	0.1112	0.433	0.188
Mof_H 	H 	0.6833	0.8877	0.6344	0.187
Mof_H 	H 	0.8049	0.0012	0.5781	0.136
Mof_H 	H 	0.7652	0.9082	0.536	0.19
Mof_H 	H 	0.2304	0.6914	0.5594	0.22
Mof_H 	H 	0.1609	0.735	0.5263	0.215
Mof_H 	H 	0.2964	0.8048	0.4744	0.235
Mof_H 	H 	0.1394	0.7859	0.7299	0.216
Mof_H 	H 	0.0672	0.7144	0.684	0.202
Mof_H 	H 	0.1444	0.683	0.717	0.21
Mof_H 	H 	0.361	0.7453	0.0923	0.041
Mof_H 	H 	0.2725	0.7093	0.0482	0.026
Mof_H 	H 	0.2331	0.8429	0.0764	0.015
Mof_H 	H 	0.2103	0.7631	0.17	0.005
Mof_H 	H 	0.3027	0.0026	0.1355	-0.194
Mof_H 	H 	0.4625	0.0341	0.2016	0.197
Mof_H 	H 	0.3856	0.0825	0.2247	0.204
Mof_H 	H 	0.1597	0.8348	0.2545	0.252
Mof_H 	H 	0.1927	0.9442	0.2763	0.261
Mof_H 	H 	0.2354	0.8683	0.3091	0.258
Mof_H 	H 	0.3742	0.7709	0.8521	0.211
Mof_H 	H 	0.4634	0.7351	0.8297	0.195
Mof_H 	H 	0.3608	0.6757	0.9287	0.21
Mof_H 	H 	0.4861	0.7189	0.003	0.136
Mof_H 	H 	0.5932	0.7747	0.9073	0.172
Mof_H 	H 	0.5917	0.8423	0.972	0.195
Mof_H 	H 	0.0418	0.9916	0.8462	0.095
Mof_H 	H 	0.906	0.0945	0.9859	0.091
Mof_H 	H 	0.3148	0.3194	0.5616	0.09
Mof_H 	H 	0.5346	0.5307	0.3453	0.087
Mof_H 	H 	0.8375	0.973	0.9111	0.13
Mof_H 	H 	0.9194	0.0126	0.8066	0.067
Mof_H 	H 	0.0625	0.1686	0.8155	-0.022
Mof_H 	H 	0.9484	0.1683	0.8453	-0.015
Mof_H 	H 	0.1083	0.2527	0.9336	-0.121
Mof_H 	H 	0.9371	0.157	0.1057	0.21
Mof_H 	H 	0.0442	0.2802	0.067	0.199
Mof_H 	H 	0.0221	0.3177	0.8656	0.245
Mof_H 	H 	0.0793	0.383	0.9219	0.251
Mof_H 	H 	0.9442	0.3012	0.964	0.275
Mof_H 	H 	0.7508	0.7898	0.9406	0.173
Mof_H 	H 	0.7613	0.6872	0.9737	0.174
Mof_H 	H 	0.7792	0.7708	0.0256	0.14
Mof_H 	H 	0.0158	0.8693	0.7701	0.178
Mof_H 	H 	0.8984	0.7512	0.816	0.18
Mof_H 	H 	0.9	0.8614	0.783	0.195
Mof_H 	H 	0.3376	0.4533	0.4077	0.029
Mof_H 	H 	0.2575	0.3207	0.4518	0.021
Mof_H 	H 	0.4193	0.3095	0.4236	0.023
Mof_H 	H 	0.4331	0.3803	0.33	0.017
Mof_H 	H 	0.6381	0.4382	0.3645	-0.092
Mof_H 	H 	0.7357	0.6641	0.2984	0.173
Mof_H 	H 	0.8072	0.6103	0.2753	0.174
Mof_H 	H 	0.5893	0.4142	0.2455	0.201
Mof_H 	H 	0.7205	0.469	0.2237	0.196
Mof_H 	H 	0.6774	0.5445	0.1909	0.203
Mof_H 	H 	0.123	0.2263	0.6479	0.214
Mof_H 	H 	0.0648	0.2931	0.6703	0.201
Mof_H 	H 	0.1044	0.2895	0.5713	0.204
Mof_H 	H 	0.2219	0.4891	0.497	0.23
Mof_H 	H 	0.182	0.5005	0.5927	0.221
Mof_H 	H 	0.3143	0.5637	0.528	0.238
Mof_H 	H 	0.6622	0.112	0.3462	0.084
Mof_H 	H 	0.4196	0.1081	0.4859	0.082
Mof_H 	H 	0.619	0.1236	0.0616	0.075
Mof_H 	H 	0.624	0.1201	0.8453	0.085
Mof_H 	H 	0.6159	0.2514	0.4111	0.027
Mof_H 	H 	0.6808	0.274	0.3066	0.022
Mof_H 	H 	0.5159	0.122	0.3155	0.014
Mof_H 	H 	0.4864	0.2063	0.3453	0.019
Mof_H 	H 	0.3137	0.9581	0.4336	-0.033
Mof_H 	H 	0.2373	0.9572	0.6057	0.174
Mof_H 	H 	0.1528	0.8888	0.567	0.156
Mof_H 	H 	0.3167	0.1123	0.3656	0.215
Mof_H 	H 	0.1951	0.9988	0.4219	0.254
Mof_H 	H 	0.2348	0.0918	0.464	0.218
Mof_H 	H 	0.7696	0.3086	0.4406	0.236
Mof_H 	H 	0.8391	0.265	0.4737	0.235
Mof_H 	H 	0.7036	0.1952	0.5256	0.25
Mof_H 	H 	0.8606	0.2141	0.2701	0.218
Mof_H 	H 	0.9328	0.2856	0.316	0.214
Mof_H 	H 	0.8556	0.317	0.283	0.219
Mof_H 	H 	0.639	0.2547	0.9077	0.022
Mof_H 	H 	0.7275	0.2907	0.9518	0.025
Mof_H 	H 	0.7669	0.1571	0.9236	0.036
Mof_H 	H 	0.7897	0.2369	0.83	0.035
Mof_H 	H 	0.6973	0.9974	0.8645	0.007
Mof_H 	H 	0.5375	0.9659	0.7984	0.149
Mof_H 	H 	0.6144	0.9175	0.7753	0.141
Mof_H 	H 	0.8403	0.1652	0.7455	0.162
Mof_H 	H 	0.8073	0.0558	0.7237	0.139
Mof_H 	H 	0.7646	0.1317	0.6909	0.162
Mof_H 	H 	0.6258	0.2291	0.1479	0.238
Mof_H 	H 	0.5366	0.2649	0.1703	0.226
Mof_H 	H 	0.6392	0.3243	0.0713	0.218
Mof_H 	H 	0.5139	0.2811	0.997	0.34
Mof_H 	H 	0.4068	0.2253	0.0927	0.281
Mof_H 	H 	0.4083	0.1577	0.028	0.291
Mof_H 	H 	0.9582	0.0084	0.1538	0.083
Mof_H 	H 	0.094	0.9055	0.0141	0.082
Mof_H 	H 	0.6852	0.6806	0.4384	0.092
Mof_H 	H 	0.4654	0.4693	0.6547	0.088
Mof_H 	H 	0.1625	0.027	0.0889	-0.074
Mof_H 	H 	0.0806	0.9874	0.1934	-0.019
Mof_H 	H 	0.9375	0.8314	0.1845	0.067
Mof_H 	H 	0.0516	0.8317	0.1547	0.052
Mof_H 	H 	0.8917	0.7473	0.0664	-0.066
Mof_H 	H 	0.0629	0.843	0.8943	0.126
Mof_H 	H 	0.9558	0.7198	0.933	0.139
Mof_H 	H 	0.9779	0.6823	0.1344	0.159
Mof_H 	H 	0.9207	0.617	0.0781	0.141
Mof_H 	H 	0.0558	0.6988	0.036	0.138
Mof_H 	H 	0.2492	0.2102	0.0594	0.278
Mof_H 	H 	0.2387	0.3128	0.0263	0.272
Mof_H 	H 	0.2208	0.2292	0.9744	0.34
Mof_H 	H 	0.9842	0.1307	0.2299	0.242
Mof_H 	H 	0.1016	0.2488	0.184	0.228
Mof_H 	H 	0.1	0.1386	0.217	0.227
Mof_H 	H 	0.6624	0.5467	0.5923	0.034
Mof_H 	H 	0.7425	0.6793	0.5482	0.032
Mof_H 	H 	0.5807	0.6905	0.5764	0.025
Mof_H 	H 	0.5669	0.6197	0.67	0.024
Mof_H 	H 	0.3619	0.5618	0.6355	-0.093
Mof_H 	H 	0.2643	0.3359	0.7016	0.172
Mof_H 	H 	0.1928	0.3897	0.7247	0.17
Mof_H 	H 	0.4107	0.5858	0.7545	0.212
Mof_H 	H 	0.2795	0.531	0.7763	0.203
Mof_H 	H 	0.3226	0.4555	0.8091	0.215
Mof_H 	H 	0.877	0.7737	0.3521	0.234
Mof_H 	H 	0.9352	0.7069	0.3297	0.218
Mof_H 	H 	0.8956	0.7105	0.4287	0.224
Mof_H 	H 	0.7781	0.5109	0.503	0.239
Mof_H 	H 	0.818	0.4995	0.4073	0.228
Mof_H 	H 	0.6857	0.4363	0.472	0.243
Mof_C 	C 	0.57537	0.90034	0.13195	-0.129
Mof_C 	C 	0.37849	0.78428	0.63343	-0.075
Mof_C 	C 	0.4911	0.84565	0.63779	-0.053
Mof_C 	C 	0.68767	0.99343	0.5317	0.501
Mof_C 	C 	0.76956	0.08086	0.43736	-0.662
Mof_C 	C 	0.23914	0.82077	0.59673	0.437
Mof_C 	C 	0.73983	0.94324	0.57373	-0.595
Mof_C 	C 	0.23097	0.75731	0.5336	-0.736
Mof_C 	C 	0.1384	0.74405	0.69041	-0.711
Mof_C 	C 	0.32821	0.77228	0.05755	-0.132
Mof_C 	C 	0.2698	0.82001	0.10955	-0.021
Mof_C 	C 	0.3257	0.9634	0.1725	0.604
Mof_C 	C 	0.42118	0.061	0.17828	-0.733
Mof_C 	C 	0.48984	0.83314	0.90658	0.373
Mof_C 	C 	0.21894	0.89679	0.26093	-0.849
Mof_C 	C 	0.4153	0.74583	0.87655	-0.662
Mof_C 	C 	0.54514	0.78826	0.9512	-0.548
Mof_C 	C 	0.53072	0.89211	0.35507	-0.122
Mof_C 	C 	0.41369	0.76378	0.29149	-0.151
Mof_C 	C 	0.72249	0.884	0.30117	-0.142
Mof_C 	C 	0.53229	0.70732	0.36805	-0.144
Mof_C 	C 	0.91771	0.01192	0.86657	-0.272
Mof_C 	C 	0.98344	0.12889	0.86221	0.056
Mof_C 	C 	0.02513	0.21937	0.9683	0.51
Mof_C 	C 	0.01822	0.20692	0.06264	-0.732
Mof_C 	C 	0.9175	0.83587	0.90327	0.352
Mof_C 	C 	0.01697	0.31356	0.92627	-0.853
Mof_C 	C 	0.79091	0.76457	0.9664	-0.522
Mof_C 	C 	0.93446	0.82881	0.80959	-0.598
Mof_C 	C 	0.32983	0.38576	0.44245	-0.081
Mof_C 	C 	0.42956	0.37935	0.39045	-0.053
Mof_C 	C 	0.6359	0.4982	0.3275	0.387
Mof_C 	C 	0.73928	0.59946	0.32172	-0.571
Mof_C 	C 	0.23972	0.39642	0.59342	0.456
Mof_C 	C 	0.65772	0.47987	0.23907	-0.678
Mof_C 	C 	0.12238	0.29185	0.62345	-0.712
Mof_C 	C 	0.23946	0.49634	0.5488	-0.761
Mof_C 	C 	0.74718	0.88579	0.14493	-0.133
Mof_C 	C 	0.55527	0.70518	0.20851	-0.156
Mof_C 	C 	0.68517	0.02366	0.19883	-0.223
Mof_C 	C 	0.42463	0.09966	0.86805	-0.144
Mof_C 	C 	0.62151	0.21572	0.36657	-0.074
Mof_C 	C 	0.5089	0.15435	0.36221	-0.066
Mof_C 	C 	0.31233	0.00657	0.4683	0.285
Mof_C 	C 	0.23044	0.91914	0.56264	-0.491
Mof_C 	C 	0.76086	0.17923	0.40327	0.491
Mof_C 	C 	0.26017	0.05676	0.42627	-0.778
Mof_C 	C 	0.76903	0.24269	0.4664	-0.788
Mof_C 	C 	0.8616	0.25595	0.30959	-0.75
Mof_C 	C 	0.67179	0.22772	0.94245	-0.024
Mof_C 	C 	0.7302	0.17999	0.89045	-0.084
Mof_C 	C 	0.6743	0.0366	0.8275	0.18
Mof_C 	C 	0.57882	0.939	0.82172	-0.406
Mof_C 	C 	0.51016	0.16686	0.09342	0.56
Mof_C 	C 	0.78106	0.10321	0.73907	-0.529
Mof_C 	C 	0.5847	0.25417	0.12345	-0.8
Mof_C 	C 	0.45486	0.21174	0.0488	-1.005
Mof_C 	C 	0.46928	0.10789	0.64493	-0.152
Mof_C 	C 	0.58631	0.23622	0.70851	-0.143
Mof_C 	C 	0.27751	0.116	0.69883	-0.165
Mof_C 	C 	0.46771	0.29268	0.63195	-0.129
Mof_C 	C 	0.08229	0.98808	0.13343	0.126
Mof_C 	C 	0.01656	0.87111	0.13779	-0.173
Mof_C 	C 	0.97487	0.78063	0.0317	0.26
Mof_C 	C 	0.98178	0.79308	0.93736	-0.387
Mof_C 	C 	0.0825	0.16413	0.09673	0.559
Mof_C 	C 	0.98303	0.68644	0.07373	-0.527
Mof_C 	C 	0.20909	0.23543	0.0336	-0.985
Mof_C 	C 	0.06554	0.17119	0.19041	-0.828
Mof_C 	C 	0.67017	0.61424	0.55755	-0.084
Mof_C 	C 	0.57044	0.62065	0.60955	-0.053
Mof_C 	C 	0.3641	0.5018	0.6725	0.39
Mof_C 	C 	0.26072	0.40054	0.67828	-0.565
Mof_C 	C 	0.76028	0.60358	0.40658	0.47
Mof_C 	C 	0.34228	0.52013	0.76093	-0.694
Mof_C 	C 	0.87762	0.70815	0.37655	-0.746
Mof_C 	C 	0.76054	0.50366	0.4512	-0.779
Mof_C 	C 	0.25282	0.11421	0.85507	-0.141
Mof_C 	C 	0.44473	0.29482	0.79149	-0.138
Mof_C 	C 	0.31483	0.97634	0.80117	-0.09
Mof_N 	N 	0.34827	0.86383	0.60618	-0.298
Mof_N 	N 	0.57855	0.9343	0.54883	-0.33
Mof_N 	N 	0.41926	0.86102	0.96886	-0.26
Mof_N 	N 	0.35461	0.91567	0.11948	-0.358
Mof_N 	N 	0.49945	0.91956	0.41103	-0.186
Mof_N 	N 	0.31694	0.71831	0.31321	-0.099
Mof_N 	N 	0.79156	0.90191	0.32749	-0.095
Mof_N 	N 	0.56592	0.934	0.06896	-0.195
Mof_N 	N 	0.97001	0.95445	0.89382	-0.225
Mof_N 	N 	0.98313	0.12738	0.95117	-0.348
Mof_N 	N 	0.32988	0.38812	0.53114	-0.307
Mof_N 	N 	0.53515	0.47409	0.38052	-0.329
Mof_N 	N 	0.83059	0.91048	0.08897	-0.19
Mof_N 	N 	0.53152	0.63015	0.18679	-0.1
Mof_N 	N 	0.7294	0.11905	0.17251	-0.108
Mof_N 	N 	0.50296	0.63488	0.43104	-0.198
Mof_N 	N 	0.65173	0.13617	0.39382	-0.315
Mof_N 	N 	0.42145	0.0657	0.45117	-0.321
Mof_N 	N 	0.58074	0.13898	0.03114	-0.35
Mof_N 	N 	0.64539	0.08433	0.88052	-0.291
Mof_N 	N 	0.50055	0.08044	0.58897	-0.212
Mof_N 	N 	0.68306	0.28169	0.68679	-0.096
Mof_N 	N 	0.20844	0.09809	0.67251	-0.119
Mof_N 	N 	0.43408	0.066	0.93104	-0.192
Mof_N 	N 	0.02999	0.04555	0.10618	-0.375
Mof_N 	N 	0.01687	0.87262	0.04883	-0.294
Mof_N 	N 	0.67012	0.61188	0.46886	-0.309
Mof_N 	N 	0.46485	0.52591	0.61948	-0.33
Mof_N 	N 	0.16941	0.08952	0.91103	-0.2
Mof_N 	N 	0.46848	0.36985	0.81321	-0.094
Mof_N 	N 	0.2706	0.88095	0.82749	-0.108
Mof_N 	N 	0.49704	0.36512	0.56896	-0.202
_end
