data_functionalizedCrystal
_audit_creation_method	'EQeq! by Chris Wilmer'
_symmetry_space_group_name_H-M	'P1'
_symmetry_Int_Tables_number	1
_symmetry_cell_setting	triclinic
loop_
_symmetry_equiv_pos_as_xyz
  x,y,z
_cell_length_a	19.587
_cell_length_b	19.16
_cell_length_c	17
_cell_angle_alpha	90
_cell_angle_beta	93.29
_cell_angle_gamma	90
loop_
_atom_site_label
_atom_site_type_symbol
_atom_site_fract_x
_atom_site_fract_y
_atom_site_fract_z
_atom_site_charge
Mof_Zn	Zn	0.26044	0.74075	0.25403	1.243
Mof_Zn	Zn	0.09372	0.65092	0.16488	1.19
Mof_O 	O 	0.0646	0.9597	0.1779	-0.452
Mof_O 	O 	0.0579	0.8457	0.1957	-0.328
Mof_O 	O 	0.2073	0.8082	0.1874	-0.436
Mof_O 	O 	0.1635	0.7176	0.1215	-0.511
Mof_O 	O 	0.1771	0.7892	0.8255	-0.433
Mof_O 	O 	0.2073	0.9007	0.8222	-0.276
Mof_O 	O 	0.0515	0.9337	0.8168	-0.431
Mof_O 	O 	0.0824	0.0268	0.8849	-0.314
Mof_O 	O 	0.2113	0.6732	0.3159	-0.487
Mof_O 	O 	0.1006	0.6585	0.28	-0.529
Mof_O 	O 	0.0664	0.5162	0.3222	-0.423
Mof_O 	O 	0.9744	0.5726	0.3547	-0.407
Mof_O 	O 	0.1353	0.5569	0.6846	-0.284
Mof_O 	O 	0.0294	0.5962	0.6674	-0.465
Mof_O 	O 	0.2676	0.6787	0.6107	-0.286
Mof_O 	O 	0.1769	0.7116	0.6704	-0.428
Mof_C 	C 	0.103	0.8861	0.0793	-0.058
Mof_C 	C 	0.1459	0.8298	0.0671	-0.073
Mof_C 	C 	0.1681	0.818	0.9918	-0
Mof_H 	H 	0.1968	0.7804	0.9833	0.046
Mof_C 	C 	0.1484	0.8611	0.9298	-0.044
Mof_C 	C 	0.1054	0.9176	0.942	-0.052
Mof_C 	C 	0.0834	0.9295	0.0168	0.007
Mof_H 	H 	0.0549	0.9673	0.0253	0.032
Mof_C 	C 	0.0735	0.8963	0.1579	0.36
Mof_C 	C 	0.1731	0.7825	0.131	0.374
Mof_C 	C 	0.1801	0.8497	0.8525	0.338
Mof_C 	C 	0.0785	0.9637	0.8758	0.338
Mof_C 	C 	0.1358	0.6389	0.4111	-0.092
Mof_C 	C 	0.08	0.5974	0.4251	-0.049
Mof_C 	C 	0.0642	0.5849	0.5022	-0.022
Mof_H 	H 	0.0258	0.5584	0.5118	0.012
Mof_C 	C 	0.104	0.6111	0.5651	-0.047
Mof_C 	C 	0.1607	0.6509	0.5507	-0.051
Mof_C 	C 	0.1749	0.6657	0.4733	0.021
Mof_H 	H 	0.2118	0.6944	0.4635	0.053
Mof_C 	C 	0.1513	0.6581	0.3291	0.429
Mof_C 	C 	0.0373	0.5614	0.3619	0.241
Mof_C 	C 	0.0888	0.5874	0.6466	0.341
Mof_C 	C 	0.2062	0.6815	0.6163	0.349
Mof_Zn	Zn	0.76044	0.24075	0.25403	1.243
Mof_Zn	Zn	0.59372	0.15092	0.16488	1.196
Mof_O 	O 	0.5646	0.4597	0.1779	-0.425
Mof_O 	O 	0.5579	0.3457	0.1957	-0.292
Mof_O 	O 	0.7073	0.3082	0.1874	-0.434
Mof_O 	O 	0.6635	0.2176	0.1215	-0.503
Mof_O 	O 	0.6771	0.2892	0.8255	-0.423
Mof_O 	O 	0.7073	0.4007	0.8222	-0.273
Mof_O 	O 	0.5515	0.4337	0.8168	-0.394
Mof_O 	O 	0.5824	0.5268	0.8849	-0.284
Mof_O 	O 	0.7113	0.1732	0.3159	-0.48
Mof_O 	O 	0.6006	0.1585	0.28	-0.509
Mof_O 	O 	0.5664	0.0162	0.3222	-0.433
Mof_O 	O 	0.4744	0.0726	0.3547	-0.52
Mof_O 	O 	0.6353	0.0569	0.6846	-0.277
Mof_O 	O 	0.5294	0.0962	0.6674	-0.422
Mof_O 	O 	0.7676	0.1787	0.6107	-0.278
Mof_O 	O 	0.6769	0.2116	0.6704	-0.416
Mof_C 	C 	0.603	0.3861	0.0793	-0.04
Mof_C 	C 	0.6459	0.3298	0.0671	-0.07
Mof_C 	C 	0.6681	0.318	0.9918	0.005
Mof_H 	H 	0.6968	0.2804	0.9833	0.047
Mof_C 	C 	0.6484	0.3611	0.9298	-0.043
Mof_C 	C 	0.6054	0.4176	0.942	-0.035
Mof_C 	C 	0.5834	0.4295	0.0168	0.002
Mof_H 	H 	0.5549	0.4673	0.0253	0.06
Mof_C 	C 	0.5735	0.3963	0.1579	0.357
Mof_C 	C 	0.6731	0.2825	0.131	0.376
Mof_C 	C 	0.6801	0.3497	0.8525	0.34
Mof_C 	C 	0.5785	0.4637	0.8758	0.331
Mof_C 	C 	0.6358	0.1389	0.4111	-0.066
Mof_C 	C 	0.58	0.0974	0.4251	-0.075
Mof_C 	C 	0.5642	0.0849	0.5022	0.001
Mof_H 	H 	0.5258	0.0584	0.5118	0.038
Mof_C 	C 	0.604	0.1111	0.5651	-0.043
Mof_C 	C 	0.6607	0.1509	0.5507	-0.04
Mof_C 	C 	0.6749	0.1657	0.4733	0.012
Mof_H 	H 	0.7118	0.1944	0.4635	0.06
Mof_C 	C 	0.6513	0.1581	0.3291	0.42
Mof_C 	C 	0.5373	0.0614	0.3619	0.379
Mof_C 	C 	0.5888	0.0874	0.6466	0.338
Mof_C 	C 	0.7062	0.1815	0.6163	0.344
Mof_Zn	Zn	0.73956	0.74075	0.24597	1.242
Mof_Zn	Zn	0.90628	0.65092	0.33512	1.202
Mof_O 	O 	0.9354	0.9597	0.3221	-0.383
Mof_O 	O 	0.9421	0.8457	0.3043	-0.251
Mof_O 	O 	0.7927	0.8082	0.3126	-0.436
Mof_O 	O 	0.8365	0.7176	0.3785	-0.497
Mof_O 	O 	0.8229	0.7892	0.6745	-0.413
Mof_O 	O 	0.7927	0.9007	0.6778	-0.273
Mof_O 	O 	0.9485	0.9337	0.6832	-0.344
Mof_O 	O 	0.9176	0.0268	0.6151	-0.249
Mof_O 	O 	0.7887	0.6732	0.1841	-0.48
Mof_O 	O 	0.8994	0.6585	0.22	-0.489
Mof_O 	O 	0.9336	0.5162	0.1778	-0.432
Mof_O 	O 	0.0256	0.5726	0.1453	-0.627
Mof_O 	O 	0.8647	0.5569	0.8154	-0.265
Mof_O 	O 	0.9706	0.5962	0.8326	-0.364
Mof_O 	O 	0.7324	0.6787	0.8893	-0.284
Mof_O 	O 	0.8231	0.7116	0.8296	-0.406
Mof_C 	C 	0.897	0.8861	0.4207	-0.013
Mof_C 	C 	0.8541	0.8298	0.4329	-0.08
Mof_C 	C 	0.8319	0.818	0.5082	0.025
Mof_H 	H 	0.8032	0.7804	0.5167	0.044
Mof_C 	C 	0.8516	0.8611	0.5702	-0.05
Mof_C 	C 	0.8946	0.9176	0.558	-0.006
Mof_C 	C 	0.9166	0.9295	0.4832	-0.016
Mof_H 	H 	0.9451	0.9673	0.4747	0.092
Mof_C 	C 	0.9265	0.8963	0.3421	0.348
Mof_C 	C 	0.8269	0.7825	0.369	0.382
Mof_C 	C 	0.8199	0.8497	0.6475	0.345
Mof_C 	C 	0.9215	0.9637	0.6242	0.321
Mof_C 	C 	0.8642	0.6389	0.0889	-0.049
Mof_C 	C 	0.92	0.5974	0.0749	-0.094
Mof_C 	C 	0.9358	0.5849	0.9978	0.014
Mof_H 	H 	0.9742	0.5584	0.9882	0.066
Mof_C 	C 	0.896	0.6111	0.9349	-0.031
Mof_C 	C 	0.8393	0.6509	0.9493	-0.038
Mof_C 	C 	0.8251	0.6657	0.0267	0.012
Mof_H 	H 	0.7882	0.6944	0.0365	0.06
Mof_C 	C 	0.8487	0.6581	0.1709	0.413
Mof_C 	C 	0.9627	0.5614	0.1381	0.512
Mof_C 	C 	0.9112	0.5874	0.8534	0.33
Mof_C 	C 	0.7938	0.6815	0.8837	0.346
Mof_Zn	Zn	0.23956	0.24075	0.24597	1.241
Mof_Zn	Zn	0.40628	0.15092	0.33512	1.195
Mof_O 	O 	0.4354	0.4597	0.3221	-0.425
Mof_O 	O 	0.4421	0.3457	0.3043	-0.292
Mof_O 	O 	0.2927	0.3082	0.3126	-0.438
Mof_O 	O 	0.3365	0.2176	0.3785	-0.504
Mof_O 	O 	0.3229	0.2892	0.6745	-0.423
Mof_O 	O 	0.2927	0.4007	0.6778	-0.275
Mof_O 	O 	0.4485	0.4337	0.6832	-0.394
Mof_O 	O 	0.4176	0.5268	0.6151	-0.283
Mof_O 	O 	0.2887	0.1732	0.1841	-0.486
Mof_O 	O 	0.3994	0.1585	0.22	-0.51
Mof_O 	O 	0.4336	0.0162	0.1778	-0.432
Mof_O 	O 	0.5256	0.0726	0.1453	-0.519
Mof_O 	O 	0.3647	0.0569	0.8154	-0.277
Mof_O 	O 	0.4706	0.0962	0.8326	-0.421
Mof_O 	O 	0.2324	0.1787	0.8893	-0.293
Mof_O 	O 	0.3231	0.2116	0.8296	-0.419
Mof_C 	C 	0.397	0.3861	0.4207	-0.036
Mof_C 	C 	0.3541	0.3298	0.4329	-0.078
Mof_C 	C 	0.3319	0.318	0.5082	0.013
Mof_H 	H 	0.3032	0.2804	0.5167	0.044
Mof_C 	C 	0.3516	0.3611	0.5702	-0.048
Mof_C 	C 	0.3946	0.4176	0.558	-0.028
Mof_C 	C 	0.4166	0.4295	0.4832	-0.006
Mof_H 	H 	0.4451	0.4673	0.4747	0.062
Mof_C 	C 	0.4265	0.3963	0.3421	0.355
Mof_C 	C 	0.3269	0.2825	0.369	0.378
Mof_C 	C 	0.3199	0.3497	0.6475	0.342
Mof_C 	C 	0.4215	0.4637	0.6242	0.329
Mof_C 	C 	0.3642	0.1389	0.0889	-0.076
Mof_C 	C 	0.42	0.0974	0.0749	-0.065
Mof_C 	C 	0.4358	0.0849	0.9978	-0.012
Mof_H 	H 	0.4742	0.0584	0.9882	0.041
Mof_C 	C 	0.396	0.1111	0.9349	-0.035
Mof_C 	C 	0.3393	0.1509	0.9493	-0.053
Mof_C 	C 	0.3251	0.1657	0.0267	0.026
Mof_H 	H 	0.2882	0.1944	0.0365	0.052
Mof_C 	C 	0.3487	0.1581	0.1709	0.424
Mof_C 	C 	0.4627	0.0614	0.1381	0.376
Mof_C 	C 	0.4112	0.0874	0.8534	0.335
Mof_C 	C 	0.2938	0.1815	0.8837	0.352
Mof_Zn	Zn	0.73956	0.25925	0.74597	1.242
Mof_Zn	Zn	0.90628	0.34908	0.83512	1.202
Mof_O 	O 	0.9354	0.0403	0.8221	-0.382
Mof_O 	O 	0.9421	0.1543	0.8043	-0.251
Mof_O 	O 	0.7927	0.1918	0.8126	-0.437
Mof_O 	O 	0.8365	0.2824	0.8785	-0.498
Mof_O 	O 	0.8229	0.2108	0.1745	-0.413
Mof_O 	O 	0.7927	0.0993	0.1778	-0.273
Mof_O 	O 	0.9485	0.0663	0.1832	-0.343
Mof_O 	O 	0.9176	0.9732	0.1151	-0.249
Mof_O 	O 	0.7887	0.3268	0.6841	-0.479
Mof_O 	O 	0.8994	0.3415	0.72	-0.489
Mof_O 	O 	0.9336	0.4838	0.6778	-0.432
Mof_O 	O 	0.0256	0.4274	0.6453	-0.629
Mof_O 	O 	0.8647	0.4431	0.3154	-0.265
Mof_O 	O 	0.9706	0.4038	0.3326	-0.363
Mof_O 	O 	0.7324	0.3213	0.3893	-0.283
Mof_O 	O 	0.8231	0.2884	0.3296	-0.405
Mof_C 	C 	0.897	0.1139	0.9207	-0.008
Mof_C 	C 	0.8541	0.1702	0.9329	-0.089
Mof_C 	C 	0.8319	0.182	0.0082	0.034
Mof_H 	H 	0.8032	0.2196	0.0167	0.042
Mof_C 	C 	0.8516	0.1389	0.0702	-0.055
Mof_C 	C 	0.8946	0.0824	0.058	0.002
Mof_C 	C 	0.9166	0.0705	0.9832	-0.027
Mof_H 	H 	0.9451	0.0327	0.9747	0.094
Mof_C 	C 	0.9265	0.1037	0.8421	0.346
Mof_C 	C 	0.8269	0.2175	0.869	0.384
Mof_C 	C 	0.8199	0.1503	0.1475	0.347
Mof_C 	C 	0.9215	0.0363	0.1242	0.321
Mof_C 	C 	0.8642	0.3611	0.5889	-0.045
Mof_C 	C 	0.92	0.4026	0.5749	-0.099
Mof_C 	C 	0.9358	0.4151	0.4978	0.021
Mof_H 	H 	0.9742	0.4416	0.4882	0.065
Mof_C 	C 	0.896	0.3889	0.4349	-0.034
Mof_C 	C 	0.8393	0.3491	0.4493	-0.033
Mof_C 	C 	0.8251	0.3343	0.5267	0.007
Mof_H 	H 	0.7882	0.3056	0.5365	0.062
Mof_C 	C 	0.8487	0.3419	0.6709	0.412
Mof_C 	C 	0.9627	0.4386	0.6381	0.515
Mof_C 	C 	0.9112	0.4126	0.3534	0.331
Mof_C 	C 	0.7938	0.3185	0.3837	0.344
Mof_Zn	Zn	0.23956	0.75925	0.74597	1.241
Mof_Zn	Zn	0.40628	0.84908	0.83512	1.195
Mof_O 	O 	0.4354	0.5403	0.8221	-0.425
Mof_O 	O 	0.4421	0.6543	0.8043	-0.291
Mof_O 	O 	0.2927	0.6918	0.8126	-0.439
Mof_O 	O 	0.3365	0.7824	0.8785	-0.505
Mof_O 	O 	0.3229	0.7108	0.1745	-0.424
Mof_O 	O 	0.2927	0.5993	0.1778	-0.275
Mof_O 	O 	0.4485	0.5663	0.1832	-0.393
Mof_O 	O 	0.4176	0.4732	0.1151	-0.282
Mof_O 	O 	0.2887	0.8268	0.6841	-0.486
Mof_O 	O 	0.3994	0.8415	0.72	-0.509
Mof_O 	O 	0.4336	0.9838	0.6778	-0.434
Mof_O 	O 	0.5256	0.9274	0.6453	-0.52
Mof_O 	O 	0.3647	0.9431	0.3154	-0.277
Mof_O 	O 	0.4706	0.9038	0.3326	-0.421
Mof_O 	O 	0.2324	0.8213	0.3893	-0.291
Mof_O 	O 	0.3231	0.7884	0.3296	-0.418
Mof_C 	C 	0.397	0.6139	0.9207	-0.033
Mof_C 	C 	0.3541	0.6702	0.9329	-0.083
Mof_C 	C 	0.3319	0.682	0.0082	0.018
Mof_H 	H 	0.3032	0.7196	0.0167	0.043
Mof_C 	C 	0.3516	0.6389	0.0702	-0.051
Mof_C 	C 	0.3946	0.5824	0.058	-0.024
Mof_C 	C 	0.4166	0.5705	0.9832	-0.012
Mof_H 	H 	0.4451	0.5327	0.9747	0.063
Mof_C 	C 	0.4265	0.6037	0.8421	0.354
Mof_C 	C 	0.3269	0.7175	0.869	0.379
Mof_C 	C 	0.3199	0.6503	0.1475	0.343
Mof_C 	C 	0.4215	0.5363	0.1242	0.328
Mof_C 	C 	0.3642	0.8611	0.5889	-0.07
Mof_C 	C 	0.42	0.9026	0.5749	-0.074
Mof_C 	C 	0.4358	0.9151	0.4978	-0.001
Mof_H 	H 	0.4742	0.9416	0.4882	0.038
Mof_C 	C 	0.396	0.8889	0.4349	-0.041
Mof_C 	C 	0.3393	0.8491	0.4493	-0.044
Mof_C 	C 	0.3251	0.8343	0.5267	0.015
Mof_H 	H 	0.2882	0.8056	0.5365	0.055
Mof_C 	C 	0.3487	0.8419	0.6709	0.421
Mof_C 	C 	0.4627	0.9386	0.6381	0.378
Mof_C 	C 	0.4112	0.9126	0.3534	0.337
Mof_C 	C 	0.2938	0.8185	0.3837	0.349
Mof_Zn	Zn	0.26044	0.25925	0.75403	1.242
Mof_Zn	Zn	0.09372	0.34908	0.66488	1.189
Mof_O 	O 	0.0646	0.0403	0.6779	-0.453
Mof_O 	O 	0.0579	0.1543	0.6957	-0.329
Mof_O 	O 	0.2073	0.1918	0.6874	-0.437
Mof_O 	O 	0.1635	0.2824	0.6215	-0.512
Mof_O 	O 	0.1771	0.2108	0.3255	-0.433
Mof_O 	O 	0.2073	0.0993	0.3222	-0.276
Mof_O 	O 	0.0515	0.0663	0.3168	-0.43
Mof_O 	O 	0.0824	0.9732	0.3849	-0.312
Mof_O 	O 	0.2113	0.3268	0.8159	-0.486
Mof_O 	O 	0.1006	0.3415	0.78	-0.529
Mof_O 	O 	0.0664	0.4838	0.8222	-0.424
Mof_O 	O 	0.9744	0.4274	0.8547	-0.409
Mof_O 	O 	0.1353	0.4431	0.1846	-0.285
Mof_O 	O 	0.0294	0.4038	0.1674	-0.465
Mof_O 	O 	0.2676	0.3213	0.1107	-0.285
Mof_O 	O 	0.1769	0.2884	0.1704	-0.427
Mof_C 	C 	0.103	0.1139	0.5793	-0.056
Mof_C 	C 	0.1459	0.1702	0.5671	-0.075
Mof_C 	C 	0.1681	0.182	0.4918	0.003
Mof_H 	H 	0.1968	0.2196	0.4833	0.045
Mof_C 	C 	0.1484	0.1389	0.4298	-0.045
Mof_C 	C 	0.1054	0.0824	0.442	-0.05
Mof_C 	C 	0.0834	0.0705	0.5168	0.004
Mof_H 	H 	0.0549	0.0327	0.5253	0.032
Mof_C 	C 	0.0735	0.1037	0.6579	0.36
Mof_C 	C 	0.1731	0.2175	0.631	0.374
Mof_C 	C 	0.1801	0.1503	0.3525	0.339
Mof_C 	C 	0.0785	0.0363	0.3758	0.337
Mof_C 	C 	0.1358	0.3611	0.9111	-0.087
Mof_C 	C 	0.08	0.4026	0.9251	-0.056
Mof_C 	C 	0.0642	0.4151	0.0022	-0.013
Mof_H 	H 	0.0258	0.4416	0.0118	0.011
Mof_C 	C 	0.104	0.3889	0.0651	-0.052
Mof_C 	C 	0.1607	0.3491	0.0507	-0.044
Mof_C 	C 	0.1749	0.3343	0.9733	0.013
Mof_H 	H 	0.2118	0.3056	0.9635	0.055
Mof_C 	C 	0.1513	0.3419	0.8291	0.427
Mof_C 	C 	0.0373	0.4386	0.8619	0.244
Mof_C 	C 	0.0888	0.4126	0.1466	0.343
Mof_C 	C 	0.2062	0.3185	0.1163	0.347
Mof_Zn	Zn	0.76044	0.75925	0.75403	1.243
Mof_Zn	Zn	0.59372	0.84908	0.66488	1.195
Mof_O 	O 	0.5646	0.5403	0.6779	-0.425
Mof_O 	O 	0.5579	0.6543	0.6957	-0.292
Mof_O 	O 	0.7073	0.6918	0.6874	-0.435
Mof_O 	O 	0.6635	0.7824	0.6215	-0.505
Mof_O 	O 	0.6771	0.7108	0.3255	-0.424
Mof_O 	O 	0.7073	0.5993	0.3222	-0.274
Mof_O 	O 	0.5515	0.5663	0.3168	-0.394
Mof_O 	O 	0.5824	0.4732	0.3849	-0.282
Mof_O 	O 	0.7113	0.8268	0.8159	-0.48
Mof_O 	O 	0.6006	0.8415	0.78	-0.509
Mof_O 	O 	0.5664	0.9838	0.8222	-0.434
Mof_O 	O 	0.4744	0.9274	0.8547	-0.521
Mof_O 	O 	0.6353	0.9431	0.1846	-0.277
Mof_O 	O 	0.5294	0.9038	0.1674	-0.422
Mof_O 	O 	0.7676	0.8213	0.1107	-0.278
Mof_O 	O 	0.6769	0.7884	0.1704	-0.416
Mof_C 	C 	0.603	0.6139	0.5793	-0.036
Mof_C 	C 	0.6459	0.6702	0.5671	-0.077
Mof_C 	C 	0.6681	0.682	0.4918	0.014
Mof_H 	H 	0.6968	0.7196	0.4833	0.045
Mof_C 	C 	0.6484	0.6389	0.4298	-0.047
Mof_C 	C 	0.6054	0.5824	0.442	-0.028
Mof_C 	C 	0.5834	0.5705	0.5168	-0.005
Mof_H 	H 	0.5549	0.5327	0.5253	0.061
Mof_C 	C 	0.5735	0.6037	0.6579	0.356
Mof_C 	C 	0.6731	0.7175	0.631	0.378
Mof_C 	C 	0.6801	0.6503	0.3525	0.342
Mof_C 	C 	0.5785	0.5363	0.3758	0.33
Mof_C 	C 	0.6358	0.8611	0.9111	-0.065
Mof_C 	C 	0.58	0.9026	0.9251	-0.078
Mof_C 	C 	0.5642	0.9151	0.0022	0.003
Mof_H 	H 	0.5258	0.9416	0.0118	0.037
Mof_C 	C 	0.604	0.8889	0.0651	-0.044
Mof_C 	C 	0.6607	0.8491	0.0507	-0.037
Mof_C 	C 	0.6749	0.8343	0.9733	0.009
Mof_H 	H 	0.7118	0.8056	0.9635	0.06
Mof_C 	C 	0.6513	0.8419	0.8291	0.419
Mof_C 	C 	0.5373	0.9386	0.8619	0.379
Mof_C 	C 	0.5888	0.9126	0.1466	0.338
Mof_C 	C 	0.7062	0.8185	0.1163	0.344
Mof_Zn	Zn	2.23113e-18	0.99559	0.25	1.213
Mof_Zn	Zn	2.23113e-18	0.46607	0.25	1.21
Mof_Zn	Zn	0.5	0.49559	0.25	1.245
Mof_Zn	Zn	0.5	0.96607	0.25	1.243
Mof_Zn	Zn	4.46225e-18	0.00441	0.75	1.213
Mof_Zn	Zn	8.92451e-18	0.53393	0.75	1.21
Mof_Zn	Zn	0.5	0.50441	0.75	1.245
Mof_Zn	Zn	0.5	0.03393	0.75	1.243
_end
