data_functionalizedCrystal
_audit_creation_method	'EQeq! by Chris Wilmer'
_symmetry_space_group_name_H-M	'P1'
_symmetry_Int_Tables_number	1
_symmetry_cell_setting	triclinic
loop_
_symmetry_equiv_pos_as_xyz
  x,y,z
_cell_length_a	5.5864
_cell_length_b	12.769
_cell_length_c	15.621
_cell_angle_alpha	90
_cell_angle_beta	90
_cell_angle_gamma	90
loop_
_atom_site_label
_atom_site_type_symbol
_atom_site_fract_x
_atom_site_fract_y
_atom_site_fract_z
_atom_site_charge
Mof_N 	N 	0.985	0.6617	0.5637	-0.253
Mof_C 	C 	0.8453	0.6142	0.6211	0.067
Mof_H 	H 	0.8761	0.6249	0.679	-0.003
Mof_C 	C 	0.6579	0.5502	0.5985	-0.159
Mof_H 	H 	0.5682	0.5173	0.6408	0.068
Mof_C 	C 	0.6017	0.5342	0.5137	0.035
Mof_C 	C 	0.7434	0.5851	0.4546	-0.147
Mof_H 	H 	0.7126	0.5778	0.3964	0.068
Mof_C 	C 	0.9314	0.6471	0.4821	0.08
Mof_H 	H 	0.0252	0.6802	0.441	-0.029
Mof_N 	N 	0.515	0.8383	0.5637	-0.253
Mof_C 	C 	0.6547	0.8858	0.6211	0.067
Mof_H 	H 	0.6239	0.8751	0.679	-0.004
Mof_C 	C 	0.8421	0.9498	0.5985	-0.159
Mof_H 	H 	0.9318	0.9827	0.6408	0.069
Mof_C 	C 	0.8983	0.9658	0.5137	0.035
Mof_C 	C 	0.7566	0.9149	0.4546	-0.146
Mof_H 	H 	0.7874	0.9222	0.3964	0.068
Mof_C 	C 	0.5686	0.8529	0.4821	0.079
Mof_H 	H 	0.4748	0.8198	0.441	-0.028
Mof_N 	N 	0.515	0.6617	0.9363	-0.253
Mof_C 	C 	0.6547	0.6142	0.8789	0.068
Mof_H 	H 	0.6239	0.6249	0.821	-0.004
Mof_C 	C 	0.8421	0.5502	0.9015	-0.159
Mof_H 	H 	0.9318	0.5173	0.8592	0.069
Mof_C 	C 	0.8983	0.5342	0.9863	0.036
Mof_C 	C 	0.7566	0.5851	0.0454	-0.148
Mof_H 	H 	0.7874	0.5778	0.1036	0.068
Mof_C 	C 	0.5686	0.6471	0.0179	0.08
Mof_H 	H 	0.4748	0.6802	0.059	-0.028
Mof_N 	N 	0.985	0.8383	0.9363	-0.251
Mof_C 	C 	0.8453	0.8858	0.8789	0.067
Mof_H 	H 	0.8761	0.8751	0.821	-0.003
Mof_C 	C 	0.6579	0.9498	0.9015	-0.158
Mof_H 	H 	0.5682	0.9827	0.8592	0.068
Mof_C 	C 	0.6017	0.9658	0.9863	0.034
Mof_C 	C 	0.7434	0.9149	0.0454	-0.145
Mof_H 	H 	0.7126	0.9222	0.1036	0.067
Mof_C 	C 	0.9314	0.8529	0.0179	0.077
Mof_H 	H 	0.0252	0.8198	0.059	-0.028
Mof_N 	N 	0.015	0.3383	0.4363	-0.253
Mof_C 	C 	0.1547	0.3858	0.3789	0.067
Mof_H 	H 	0.1239	0.3751	0.321	-0.003
Mof_C 	C 	0.3421	0.4498	0.4015	-0.159
Mof_H 	H 	0.4318	0.4827	0.3592	0.068
Mof_C 	C 	0.3983	0.4658	0.4863	0.035
Mof_C 	C 	0.2566	0.4149	0.5454	-0.147
Mof_H 	H 	0.2874	0.4222	0.6036	0.068
Mof_C 	C 	0.0686	0.3529	0.5179	0.08
Mof_H 	H 	0.9748	0.3198	0.559	-0.029
Mof_N 	N 	0.485	0.1617	0.4363	-0.253
Mof_C 	C 	0.3453	0.1142	0.3789	0.067
Mof_H 	H 	0.3761	0.1249	0.321	-0.004
Mof_C 	C 	0.1579	0.0502	0.4015	-0.159
Mof_H 	H 	0.0682	0.0173	0.3592	0.069
Mof_C 	C 	0.1017	0.0342	0.4863	0.035
Mof_C 	C 	0.2434	0.0851	0.5454	-0.146
Mof_H 	H 	0.2126	0.0778	0.6036	0.068
Mof_C 	C 	0.4314	0.1471	0.5179	0.079
Mof_H 	H 	0.5252	0.1802	0.559	-0.028
Mof_N 	N 	0.485	0.3383	0.0637	-0.253
Mof_C 	C 	0.3453	0.3858	0.1211	0.068
Mof_H 	H 	0.3761	0.3751	0.179	-0.004
Mof_C 	C 	0.1579	0.4498	0.0985	-0.159
Mof_H 	H 	0.0682	0.4827	0.1408	0.069
Mof_C 	C 	0.1017	0.4658	0.0137	0.036
Mof_C 	C 	0.2434	0.4149	0.9546	-0.148
Mof_H 	H 	0.2126	0.4222	0.8964	0.068
Mof_C 	C 	0.4314	0.3529	0.9821	0.08
Mof_H 	H 	0.5252	0.3198	0.941	-0.028
Mof_N 	N 	0.015	0.1617	0.0637	-0.251
Mof_C 	C 	0.1547	0.1142	0.1211	0.067
Mof_H 	H 	0.1239	0.1249	0.179	-0.003
Mof_C 	C 	0.3421	0.0502	0.0985	-0.158
Mof_H 	H 	0.4318	0.0173	0.1408	0.068
Mof_C 	C 	0.3983	0.0342	0.0137	0.034
Mof_C 	C 	0.2566	0.0851	0.9546	-0.145
Mof_H 	H 	0.2874	0.0778	0.8964	0.067
Mof_C 	C 	0.0686	0.1471	0.9821	0.077
Mof_H 	H 	0.9748	0.1802	0.941	-0.028
Mof_Cu	Cu	0.25	0.75	0.5977	0.862
Mof_Cu	Cu	0.25	0.75	0.9023	0.862
Mof_Cu	Cu	0.75	0.25	0.4023	0.862
Mof_Cu	Cu	0.75	0.25	0.0977	0.862
Mof_Cl	Cl	0.25	0.75	0.75	-0.636
Mof_Cl	Cl	0.75	0.25	0.25	-0.636
_end
