data_functionalizedCrystal
_audit_creation_method	'EQeq! by Chris Wilmer'
_symmetry_space_group_name_H-M	'P1'
_symmetry_Int_Tables_number	1
_symmetry_cell_setting	triclinic
loop_
_symmetry_equiv_pos_as_xyz
  x,y,z
_cell_length_a	16.28
_cell_length_b	18.43
_cell_length_c	23.55
_cell_angle_alpha	89.061
_cell_angle_beta	89.688
_cell_angle_gamma	77.706
loop_
_atom_site_label
_atom_site_type_symbol
_atom_site_fract_x
_atom_site_fract_y
_atom_site_fract_z
_atom_site_charge
Mof_Co	Co	0.7571	0.6174	0.66672	1.175
Mof_Co	Co	0.7773	0.10698	0.15561	1.173
Mof_Mn	Mn	0.7622	0.21368	0.48766	0.722
Mof_Mn	Mn	0.62149	0.98886	0.84895	0.791
Mof_Mn	Mn	0.76244	0.81815	0.85318	0.97
Mof_Mn	Mn	0.63677	0.4972	0.02566	0.872
Mof_Mn	Mn	0.83853	0.55527	0.99513	0.684
Mof_O 	O 	0.7737	0.70958	0.81836	-0.319
Mof_O 	O 	0.5348	0.587	0.6077	-0.212
Mof_O 	O 	0.7514	0.3191	0.5435	-0.308
Mof_O 	O 	0.7389	0.3355	0.4487	-0.265
Mof_O 	O 	0.8241	0.5884	0.3841	-0.311
Mof_O 	O 	0.7517	0.6795	0.4261	-0.345
Mof_O 	O 	0.1403	0.7355	0.67495	-0.198
Mof_O 	O 	0.1566	0.5182	0.81036	-0.228
Mof_O 	O 	0.037	0.4932	0.84328	-0.225
Mof_O 	O 	0.8937	0.4128	0.70167	-0.2
Mof_O 	O 	0.3663	0.3761	0.75731	-0.515
Mof_O 	O 	0.8312	0.749	0.5478	-0.188
Mof_O 	O 	0.4698	0.9641	0.56794	-0.204
Mof_O 	O 	0.5108	0.8672	0.5138	-0.235
Mof_O 	O 	0.5967	0.974	0.75755	-0.348
Mof_O 	O 	0.7038	0.8841	0.78275	-0.398
Mof_O 	O 	0.5083	0.3908	0.80295	-0.382
Mof_O 	O 	0.6939	0.4703	0.94478	-0.368
Mof_O 	O 	0.7914	0.5308	0.91576	-0.378
Mof_O 	O 	0.7153	0.30065	0.23817	-0.181
Mof_O 	O 	0.6439	0.94815	0.18116	-0.209
Mof_O 	O 	0.9304	0.7664	0.13092	-0.208
Mof_O 	O 	0.9352	0.736	0.0396	-0.234
Mof_O 	O 	0.7571	0.9183	0.89974	-0.399
Mof_O 	O 	0.6544	0.9998	0.93726	-0.345
Mof_O 	O 	0.74873	0.42952	0.06226	-0.379
Mof_O 	O 	0.87463	0.44682	0.03468	-0.359
Mof_O 	O 	0.125	0.2416	0.09929	-0.322
Mof_O 	O 	0.10556	0.17821	0.1766	-0.303
Mof_O 	O 	0.9984	0.98004	0.20767	-0.19
Mof_O 	O 	0.7517	0.1883	0.99465	-0.193
Mof_O 	O 	0.5737	0.41087	0.01156	-0.39
Mof_O 	O 	0.4397	0.4055	0.00943	-0.412
Mof_O 	O 	0.3466	0.1958	0.10268	-0.389
Mof_O 	O 	0.4432	0.0946	0.12837	-0.371
Mof_O 	O 	0.7767	0.835	0.3797	-0.292
Mof_O 	O 	0.85	0.8054	0.3021	-0.316
Mof_O 	O 	0.7639	0.0951	0.45383	-0.295
Mof_O 	O 	0.7857	0.1813	0.3937	-0.269
Mof_N 	N 	0.808	0.6573	0.73073	-0.287
Mof_N 	N 	0.6605	0.6481	0.70981	-0.254
Mof_N 	N 	0.677	0.5867	0.61612	-0.279
Mof_N 	N 	0.7879	0.5181	0.70117	-0.267
Mof_N 	N 	0.8546	0.5825	0.62536	-0.254
Mof_N 	N 	0.7588	0.7063	0.62204	-0.274
Mof_N 	N 	0.7898	0.2032	0.18472	-0.272
Mof_N 	N 	0.6909	0.1217	0.20898	-0.257
Mof_N 	N 	0.7345	0.0173	0.14257	-0.276
Mof_N 	N 	0.8624	0.0504	0.20718	-0.273
Mof_N 	N 	0.8687	0.0891	0.10613	-0.257
Mof_N 	N 	0.7222	0.1592	0.0882	-0.268
Mof_C 	C 	0.7561	0.6816	0.7732	0.198
Mof_C 	C 	0.6683	0.674	0.7617	0.01
Mof_C 	C 	0.601	0.6875	0.7985	-0.074
Mof_H 	H 	0.6064	0.7054	0.8347	0.068
Mof_C 	C 	0.5248	0.6736	0.7803	0.018
Mof_H 	H 	0.4786	0.6823	0.8046	0.038
Mof_C 	C 	0.517	0.6466	0.7257	-0.085
Mof_H 	H 	0.4662	0.6373	0.7131	0.104
Mof_C 	C 	0.5878	0.6341	0.6912	0.036
Mof_C 	C 	0.5967	0.6001	0.6342	0.153
Mof_C 	C 	0.6976	0.5525	0.5631	0.141
Mof_C 	C 	0.7091	0.4768	0.5569	-0.13
Mof_H 	H 	0.7028	0.4472	0.5883	0.084
Mof_C 	C 	0.7299	0.4439	0.5048	0.01
Mof_C 	C 	0.743	0.4887	0.4585	-0.044
Mof_H 	H 	0.7573	0.4676	0.4232	0.092
Mof_C 	C 	0.7346	0.564	0.4652	0.045
Mof_C 	C 	0.711	0.5955	0.5167	-0.143
Mof_H 	H 	0.7038	0.6466	0.5205	0.101
Mof_C 	C 	0.7418	0.3614	0.4983	0.238
Mof_C 	C 	0.7596	0.6159	0.4206	0.298
Mof_C 	C 	0.8957	0.6542	0.7361	0.135
Mof_C 	C 	0.9346	0.6983	0.7026	-0.129
Mof_H 	H 	0.9035	0.7336	0.6781	0.1
Mof_C 	C 	0.0232	0.6892	0.7061	0.006
Mof_C 	C 	0.0703	0.6371	0.7418	-0.06
Mof_H 	H 	0.1284	0.6315	0.7434	0.091
Mof_C 	C 	0.0295	0.5928	0.7758	0.009
Mof_C 	C 	0.9427	0.6022	0.77356	-0.124
Mof_H 	H 	0.9156	0.5736	0.7972	0.097
Mof_C 	C 	0.0777	0.5307	0.8133	0.263
Mof_C 	C 	0.0642	0.7344	0.6657	0.303
Mof_C 	C 	0.8594	0.4765	0.6844	0.166
Mof_C 	C 	0.9	0.5143	0.6379	0.024
Mof_C 	C 	0.9756	0.4882	0.6106	-0.066
Mof_H 	H 	0.0076	0.4412	0.6189	0.064
Mof_C 	C 	0.0024	0.5338	0.5706	0.004
Mof_H 	H 	0.0539	0.5177	0.5526	0.043
Mof_C 	C 	0.9529	0.6042	0.5566	-0.07
Mof_H 	H 	0.9693	0.634	0.5283	0.073
Mof_C 	C 	0.8786	0.6272	0.5865	0.031
Mof_C 	C 	0.82	0.701	0.5826	0.16
Mof_C 	C 	0.702	0.7767	0.629	0.109
Mof_C 	C 	0.6409	0.8054	0.5892	-0.095
Mof_H 	H 	0.6361	0.7792	0.5564	0.091
Mof_C 	C 	0.5864	0.8737	0.5986	-0.022
Mof_C 	C 	0.5909	0.911	0.6483	-0.019
Mof_H 	H 	0.5544	0.9565	0.654	0.063
Mof_C 	C 	0.6497	0.8815	0.6903	-0.054
Mof_C 	C 	0.7073	0.815	0.679	-0.088
Mof_H 	H 	0.7495	0.7963	0.7051	0.07
Mof_C 	C 	0.5198	0.9013	0.5552	0.288
Mof_C 	C 	0.6506	0.9154	0.7461	0.336
Mof_C 	C 	0.7409	0.4934	0.7463	0.068
Mof_C 	C 	0.6699	0.4666	0.7346	-0.006
Mof_H 	H 	0.6553	0.4596	0.6973	0.044
Mof_C 	C 	0.6202	0.45	0.7797	-0.147
Mof_C 	C 	0.6418	0.4587	0.8347	0.066
Mof_H 	H 	0.6081	0.4477	0.8642	0.033
Mof_C 	C 	0.7141	0.4837	0.8464	-0.088
Mof_C 	C 	0.7628	0.5024	0.80242	-0.042
Mof_H 	H 	0.8102	0.521	0.8104	0.068
Mof_C 	C 	0.5405	0.4243	0.7671	0.6
Mof_C 	C 	0.7355	0.4958	0.9073	0.379
Mof_C 	C 	0.7304	0.236	0.22	0.163
Mof_C 	C 	0.6785	0.1824	0.24005	0.038
Mof_C 	C 	0.624	0.1903	0.2868	-0.085
Mof_H 	H 	0.6142	0.2329	0.3086	0.084
Mof_C 	C 	0.5855	0.1324	0.2992	0.023
Mof_H 	H 	0.5506	0.1353	0.3309	0.036
Mof_C 	C 	0.597	0.07	0.2659	-0.08
Mof_H 	H 	0.5691	0.0319	0.2739	0.08
Mof_C 	C 	0.6518	0.0658	0.2198	0.03
Mof_C 	C 	0.6776	0.0036	0.1792	0.16
Mof_C 	C 	0.7621	0.9652	0.0983	0.119
Mof_C 	C 	0.8203	0.9	0.1095	-0.111
Mof_H 	H 	0.8411	0.8893	0.1461	0.094
Mof_C 	C 	0.8475	0.8507	0.066	-0.01
Mof_C 	C 	0.8167	0.8675	0.0107	-0.036
Mof_H 	H 	0.8357	0.8351	0.9813	0.064
Mof_C 	C 	0.758	0.9325	0.0002	-0.038
Mof_C 	C 	0.7307	0.981	0.0442	-0.101
Mof_H 	H 	0.6908	0.0245	0.0372	0.084
Mof_C 	C 	0.9107	0.7792	0.0787	0.268
Mof_C 	C 	0.7217	0.9508	0.9425	0.33
Mof_C 	C 	0.8442	0.2441	0.15809	0.121
Mof_C 	C 	0.9301	0.2192	0.16357	-0.117
Mof_H 	H 	0.9516	0.1804	0.1886	0.095
Mof_C 	C 	0.9847	0.2528	0.13125	-0.01
Mof_C 	C 	0.9533	0.3132	0.09565	-0.025
Mof_H 	H 	0.9894	0.3346	0.0735	0.066
Mof_C 	C 	0.8664	0.3412	0.09375	-0.034
Mof_C 	C 	0.8129	0.3056	0.12399	-0.093
Mof_H 	H 	0.7551	0.3233	0.1214	0.087
Mof_C 	C 	0.0771	0.2219	0.13602	0.279
Mof_C 	C 	0.8274	0.4112	0.0608	0.36
Mof_C 	C 	0.9377	0.0225	0.1842	0.157
Mof_C 	C 	0.9422	0.05	0.125	0.034
Mof_C 	C 	0.0137	0.0404	0.09	-0.085
Mof_H 	H 	0.065	0.0122	0.1023	0.08
Mof_C 	C 	0.0057	0.0737	0.0375	0.024
Mof_H 	H 	0.0526	0.0688	0.014	0.034
Mof_C 	C 	0.9294	0.1146	0.0185	-0.087
Mof_H 	H 	0.9243	0.1374	0.9828	0.085
Mof_C 	C 	0.8603	0.1207	0.0545	0.038
Mof_C 	C 	0.7721	0.1611	0.04297	0.153
Mof_C 	C 	0.6367	0.1978	0.08274	0.09
Mof_C 	C 	0.6164	0.2699	0.06036	-0.058
Mof_H 	H 	0.6591	0.2948	0.052	0.079
Mof_C 	C 	0.5336	0.3047	0.05038	-0.083
Mof_C 	C 	0.4696	0.2684	0.0649	0.015
Mof_H 	H 	0.4138	0.2915	0.0582	0.042
Mof_C 	C 	0.489	0.1975	0.0894	-0.071
Mof_C 	C 	0.5719	0.162	0.097	-0.076
Mof_H 	H 	0.5847	0.1139	0.1118	0.068
Mof_C 	C 	0.5141	0.3808	0.02199	0.407
Mof_C 	C 	0.4207	0.1594	0.1076	0.365
Mof_C 	C 	0.8455	0.0276	0.26266	0.138
Mof_C 	C 	0.8409	0.9536	0.2738	-0.116
Mof_H 	H 	0.8537	0.9186	0.2453	0.1
Mof_C 	C 	0.8176	0.9325	0.3272	0.001
Mof_C 	C 	0.7976	0.985	0.3687	-0.055
Mof_H 	H 	0.7803	0.9709	0.4042	0.088
Mof_C 	C 	0.8025	0.0588	0.3591	0.011
Mof_C 	C 	0.8269	0.0788	0.3056	-0.132
Mof_H 	H 	0.8309	0.1277	0.2984	0.11
Mof_C 	C 	0.8146	0.8536	0.3369	0.269
Mof_C 	C 	0.7827	0.1148	0.404	0.26
Mof_O 	O 	0.5418	0.3951	0.7144	-0.768
Mof_O 	O 	0.0325	0.7519	0.6163	-0.147
Mof_Mn	Mn	0.42215	0.41155	0.67265	5.232
Mof_Mn	Mn	0.81889	0.71154	0.35376	0.738
Mof_O 	O 	0.3884	0.4168	0.6437	-3.462
Mof_O 	O 	0.3017	0.4143	0.6376	0.252
Mof_O 	O 	0.4814	0.4784	0.7305	-0.529
Mof_O 	O 	0.0179	0.7954	0.6472	-0.136
Mof_Mn	Mn	0.35168	0.48869	0.70909	0.197
Mof_O 	O 	0.382	0.524	0.7027	-0.52
Mof_Co	Co	0.2429	0.3826	0.33328	1.174
Mof_Co	Co	0.2227	0.89302	0.84439	1.172
Mof_Mn	Mn	0.2378	0.78632	0.51234	0.722
Mof_Mn	Mn	0.37851	0.01114	0.15105	0.791
Mof_Mn	Mn	0.23756	0.18185	0.14682	0.97
Mof_Mn	Mn	0.36323	0.5028	0.97434	0.872
Mof_Mn	Mn	0.16147	0.44473	0.00487	0.684
Mof_O 	O 	0.2263	0.29042	0.18164	-0.319
Mof_O 	O 	0.4652	0.413	0.3923	-0.212
Mof_O 	O 	0.2486	0.6809	0.4565	-0.308
Mof_O 	O 	0.2611	0.6645	0.5513	-0.265
Mof_O 	O 	0.1759	0.4116	0.6159	-0.311
Mof_O 	O 	0.2483	0.3205	0.5739	-0.345
Mof_O 	O 	0.8597	0.2645	0.32505	-0.198
Mof_O 	O 	0.8434	0.4818	0.18964	-0.228
Mof_O 	O 	0.963	0.5068	0.15672	-0.225
Mof_O 	O 	0.1063	0.5872	0.29833	-0.2
Mof_O 	O 	0.6337	0.6239	0.24269	-0.515
Mof_O 	O 	0.1688	0.251	0.4522	-0.188
Mof_O 	O 	0.5302	0.0359	0.43206	-0.204
Mof_O 	O 	0.4892	0.1328	0.4862	-0.235
Mof_O 	O 	0.4033	0.026	0.24245	-0.348
Mof_O 	O 	0.2962	0.1159	0.21725	-0.398
Mof_O 	O 	0.4917	0.6092	0.19705	-0.382
Mof_O 	O 	0.3061	0.5297	0.05522	-0.368
Mof_O 	O 	0.2086	0.4692	0.08424	-0.378
Mof_O 	O 	0.2847	0.69935	0.76183	-0.181
Mof_O 	O 	0.3561	0.05185	0.81884	-0.209
Mof_O 	O 	0.0696	0.2336	0.86908	-0.208
Mof_O 	O 	0.0648	0.264	0.9604	-0.234
Mof_O 	O 	0.2429	0.0817	0.10026	-0.399
Mof_O 	O 	0.3456	0.0002	0.06274	-0.345
Mof_O 	O 	0.25127	0.57048	0.93774	-0.379
Mof_O 	O 	0.12537	0.55318	0.96532	-0.359
Mof_O 	O 	0.875	0.7584	0.90071	-0.322
Mof_O 	O 	0.89444	0.82179	0.8234	-0.303
Mof_O 	O 	0.0016	0.01996	0.79233	-0.19
Mof_O 	O 	0.2483	0.8117	0.00535	-0.193
Mof_O 	O 	0.4263	0.58913	0.98844	-0.39
Mof_O 	O 	0.5603	0.5945	0.99057	-0.412
Mof_O 	O 	0.6534	0.8042	0.89732	-0.389
Mof_O 	O 	0.5568	0.9054	0.87163	-0.371
Mof_O 	O 	0.2233	0.165	0.6203	-0.292
Mof_O 	O 	0.15	0.1946	0.6979	-0.316
Mof_O 	O 	0.2361	0.9049	0.54617	-0.295
Mof_O 	O 	0.2143	0.8187	0.6063	-0.269
Mof_N 	N 	0.192	0.3427	0.26927	-0.287
Mof_N 	N 	0.3395	0.3519	0.29019	-0.254
Mof_N 	N 	0.323	0.4133	0.38388	-0.279
Mof_N 	N 	0.2121	0.4819	0.29883	-0.267
Mof_N 	N 	0.1454	0.4175	0.37464	-0.254
Mof_N 	N 	0.2412	0.2937	0.37796	-0.274
Mof_N 	N 	0.2102	0.7968	0.81528	-0.272
Mof_N 	N 	0.3091	0.8783	0.79102	-0.257
Mof_N 	N 	0.2655	0.9827	0.85743	-0.276
Mof_N 	N 	0.1376	0.9496	0.79282	-0.273
Mof_N 	N 	0.1313	0.9109	0.89387	-0.257
Mof_N 	N 	0.2778	0.8408	0.9118	-0.268
Mof_C 	C 	0.2439	0.3184	0.2268	0.198
Mof_C 	C 	0.3317	0.326	0.2383	0.01
Mof_C 	C 	0.399	0.3125	0.2015	-0.074
Mof_H 	H 	0.3936	0.2946	0.1653	0.068
Mof_C 	C 	0.4752	0.3264	0.2197	0.018
Mof_H 	H 	0.5214	0.3177	0.1954	0.038
Mof_C 	C 	0.483	0.3534	0.2743	-0.085
Mof_H 	H 	0.5338	0.3627	0.2869	0.104
Mof_C 	C 	0.4122	0.3659	0.3088	0.036
Mof_C 	C 	0.4033	0.3999	0.3658	0.153
Mof_C 	C 	0.3024	0.4475	0.4369	0.141
Mof_C 	C 	0.2909	0.5232	0.4431	-0.13
Mof_H 	H 	0.2972	0.5528	0.4117	0.084
Mof_C 	C 	0.2701	0.5561	0.4952	0.01
Mof_C 	C 	0.257	0.5113	0.5415	-0.044
Mof_H 	H 	0.2427	0.5324	0.5768	0.092
Mof_C 	C 	0.2654	0.436	0.5348	0.045
Mof_C 	C 	0.289	0.4045	0.4833	-0.143
Mof_H 	H 	0.2962	0.3534	0.4795	0.101
Mof_C 	C 	0.2582	0.6386	0.5017	0.238
Mof_C 	C 	0.2404	0.3841	0.5794	0.298
Mof_C 	C 	0.1043	0.3458	0.2639	0.135
Mof_C 	C 	0.0654	0.3017	0.2974	-0.129
Mof_H 	H 	0.0965	0.2664	0.3219	0.1
Mof_C 	C 	0.9768	0.3108	0.2939	0.006
Mof_C 	C 	0.9297	0.3629	0.2582	-0.06
Mof_H 	H 	0.8716	0.3685	0.2566	0.091
Mof_C 	C 	0.9705	0.4072	0.2242	0.009
Mof_C 	C 	0.0573	0.3978	0.22644	-0.124
Mof_H 	H 	0.0844	0.4264	0.2028	0.097
Mof_C 	C 	0.9223	0.4693	0.1867	0.263
Mof_C 	C 	0.9358	0.2656	0.3343	0.303
Mof_C 	C 	0.1406	0.5235	0.3156	0.166
Mof_C 	C 	0.1	0.4857	0.3621	0.024
Mof_C 	C 	0.0244	0.5118	0.3894	-0.066
Mof_H 	H 	0.9924	0.5588	0.3811	0.064
Mof_C 	C 	0.9976	0.4662	0.4294	0.004
Mof_H 	H 	0.9461	0.4823	0.4474	0.043
Mof_C 	C 	0.0471	0.3958	0.4434	-0.07
Mof_H 	H 	0.0307	0.366	0.4717	0.073
Mof_C 	C 	0.1214	0.3728	0.4135	0.031
Mof_C 	C 	0.18	0.299	0.4174	0.16
Mof_C 	C 	0.298	0.2233	0.371	0.109
Mof_C 	C 	0.3591	0.1946	0.4108	-0.095
Mof_H 	H 	0.3639	0.2208	0.4436	0.091
Mof_C 	C 	0.4136	0.1263	0.4014	-0.022
Mof_C 	C 	0.4091	0.089	0.3517	-0.019
Mof_H 	H 	0.4456	0.0435	0.346	0.063
Mof_C 	C 	0.3503	0.1185	0.3097	-0.054
Mof_C 	C 	0.2927	0.185	0.321	-0.088
Mof_H 	H 	0.2505	0.2037	0.2949	0.07
Mof_C 	C 	0.4802	0.0987	0.4448	0.288
Mof_C 	C 	0.3494	0.0846	0.2539	0.336
Mof_C 	C 	0.2591	0.5066	0.2537	0.068
Mof_C 	C 	0.3301	0.5334	0.2654	-0.006
Mof_H 	H 	0.3447	0.5404	0.3027	0.044
Mof_C 	C 	0.3798	0.55	0.2203	-0.147
Mof_C 	C 	0.3582	0.5413	0.1653	0.066
Mof_H 	H 	0.3919	0.5523	0.1358	0.033
Mof_C 	C 	0.2859	0.5163	0.1536	-0.088
Mof_C 	C 	0.2372	0.4976	0.19758	-0.042
Mof_H 	H 	0.1898	0.479	0.1896	0.068
Mof_C 	C 	0.4595	0.5757	0.2329	0.6
Mof_C 	C 	0.2645	0.5042	0.0927	0.379
Mof_C 	C 	0.2696	0.764	0.78	0.163
Mof_C 	C 	0.3215	0.8176	0.75995	0.038
Mof_C 	C 	0.376	0.8097	0.7132	-0.085
Mof_H 	H 	0.3858	0.7671	0.6914	0.084
Mof_C 	C 	0.4145	0.8676	0.7008	0.023
Mof_H 	H 	0.4494	0.8647	0.6691	0.036
Mof_C 	C 	0.403	0.93	0.7341	-0.08
Mof_H 	H 	0.4309	0.9681	0.7261	0.08
Mof_C 	C 	0.3482	0.9342	0.7802	0.03
Mof_C 	C 	0.3224	0.9964	0.8208	0.16
Mof_C 	C 	0.2379	0.0348	0.9017	0.119
Mof_C 	C 	0.1797	0.1	0.8905	-0.111
Mof_H 	H 	0.1589	0.1107	0.8539	0.094
Mof_C 	C 	0.1525	0.1493	0.934	-0.01
Mof_C 	C 	0.1833	0.1325	0.9893	-0.036
Mof_H 	H 	0.1643	0.1649	0.0187	0.064
Mof_C 	C 	0.242	0.0675	0.9998	-0.038
Mof_C 	C 	0.2693	0.019	0.9558	-0.101
Mof_H 	H 	0.3092	0.9755	0.9628	0.084
Mof_C 	C 	0.0893	0.2208	0.9213	0.268
Mof_C 	C 	0.2783	0.0492	0.0575	0.33
Mof_C 	C 	0.1558	0.7559	0.84191	0.121
Mof_C 	C 	0.0699	0.7808	0.83643	-0.117
Mof_H 	H 	0.0484	0.8196	0.8114	0.095
Mof_C 	C 	0.0153	0.7472	0.86875	-0.01
Mof_C 	C 	0.0467	0.6868	0.90435	-0.025
Mof_H 	H 	0.0106	0.6654	0.9265	0.066
Mof_C 	C 	0.1336	0.6588	0.90625	-0.034
Mof_C 	C 	0.1871	0.6944	0.87601	-0.093
Mof_H 	H 	0.2449	0.6767	0.8786	0.087
Mof_C 	C 	0.9229	0.7781	0.86398	0.279
Mof_C 	C 	0.1726	0.5888	0.9392	0.36
Mof_C 	C 	0.0623	0.9775	0.8158	0.157
Mof_C 	C 	0.0578	0.95	0.875	0.034
Mof_C 	C 	0.9863	0.9596	0.91	-0.085
Mof_H 	H 	0.935	0.9878	0.8977	0.08
Mof_C 	C 	0.9943	0.9263	0.9625	0.024
Mof_H 	H 	0.9474	0.9312	0.986	0.034
Mof_C 	C 	0.0706	0.8854	0.9815	-0.087
Mof_H 	H 	0.0757	0.8626	0.0172	0.085
Mof_C 	C 	0.1397	0.8793	0.9455	0.038
Mof_C 	C 	0.2279	0.8389	0.95703	0.153
Mof_C 	C 	0.3633	0.8022	0.91726	0.09
Mof_C 	C 	0.3836	0.7301	0.93964	-0.058
Mof_H 	H 	0.3409	0.7052	0.948	0.079
Mof_C 	C 	0.4664	0.6953	0.94962	-0.083
Mof_C 	C 	0.5304	0.7316	0.9351	0.015
Mof_H 	H 	0.5862	0.7085	0.9418	0.042
Mof_C 	C 	0.511	0.8025	0.9106	-0.071
Mof_C 	C 	0.4281	0.838	0.903	-0.076
Mof_H 	H 	0.4153	0.8861	0.8882	0.068
Mof_C 	C 	0.4859	0.6192	0.97801	0.407
Mof_C 	C 	0.5793	0.8406	0.8924	0.365
Mof_C 	C 	0.1545	0.9724	0.73734	0.138
Mof_C 	C 	0.1591	0.0464	0.7262	-0.116
Mof_H 	H 	0.1463	0.0814	0.7547	0.1
Mof_C 	C 	0.1824	0.0675	0.6728	0.001
Mof_C 	C 	0.2024	0.015	0.6313	-0.055
Mof_H 	H 	0.2197	0.0291	0.5958	0.088
Mof_C 	C 	0.1975	0.9412	0.6409	0.011
Mof_C 	C 	0.1731	0.9212	0.6944	-0.132
Mof_H 	H 	0.1691	0.8723	0.7016	0.11
Mof_C 	C 	0.1854	0.1464	0.6631	0.269
Mof_C 	C 	0.2173	0.8852	0.596	0.26
Mof_O 	O 	0.4582	0.6049	0.2856	-0.768
Mof_O 	O 	0.9675	0.2481	0.3837	-0.147
Mof_Mn	Mn	0.57785	0.58845	0.32735	5.232
Mof_Mn	Mn	0.18111	0.28846	0.64624	0.738
Mof_O 	O 	0.6116	0.5832	0.3563	-3.462
Mof_O 	O 	0.6983	0.5857	0.3624	0.252
Mof_O 	O 	0.5186	0.5216	0.2695	-0.529
Mof_O 	O 	0.9821	0.2046	0.3528	-0.136
Mof_Mn	Mn	0.64832	0.51131	0.29091	0.197
Mof_O 	O 	0.618	0.476	0.2973	-0.52
_end
