data_functionalizedCrystal
_audit_creation_method	'EQeq! by Chris Wilmer'
_symmetry_space_group_name_H-M	'P1'
_symmetry_Int_Tables_number	1
_symmetry_cell_setting	triclinic
loop_
_symmetry_equiv_pos_as_xyz
  x,y,z
_cell_length_a	13.4713
_cell_length_b	13.4713
_cell_length_c	14.922
_cell_angle_alpha	90
_cell_angle_beta	90
_cell_angle_gamma	120
loop_
_atom_site_label
_atom_site_type_symbol
_atom_site_fract_x
_atom_site_fract_y
_atom_site_fract_z
_atom_site_charge
Mof_La	La	0.66667	0.33334	0.16956	2.311
Mof_La	La	0.33333	0.66666	0.33044	2.312
Mof_La	La	0.33333	0.66666	0.83044	2.321
Mof_La	La	0.66667	0.33334	0.66956	2.319
Mof_Cu	Cu	0.5	0.5	-0	0.901
Mof_Cu	Cu	-4.84768e-17	0.5	-0	0.872
Mof_Cu	Cu	0.5	0	-0	0.87
Mof_Cu	Cu	-1.93496e-17	0.5	0.5	0.898
Mof_Cu	Cu	0.5	0.5	0.5	0.927
Mof_Cu	Cu	0.5	0	0.5	0.897
Mof_H 	H 	0.3201	0.1825	0.9776	0.209
Mof_H 	H 	0.2922	0.2534	0.0464	0.157
Mof_H 	H 	0.3963	0.3168	0.8115	0.134
Mof_H 	H 	0.4573	0.2693	0.8732	0.157
Mof_H 	H 	0.3259	0.3519	0.9239	0.093
Mof_H 	H 	0.8624	0.6799	0.9776	0.238
Mof_H 	H 	0.9612	0.7078	0.0464	0.203
Mof_H 	H 	0.9205	0.6037	0.8115	0.164
Mof_H 	H 	0.812	0.5427	0.8732	0.166
Mof_H 	H 	0.026	0.6741	0.9239	0.043
Mof_H 	H 	0.8175	0.1376	0.9776	0.222
Mof_H 	H 	0.7466	0.0388	0.0464	0.146
Mof_H 	H 	0.6832	0.0795	0.8115	0.122
Mof_H 	H 	0.7307	0.188	0.8732	0.161
Mof_H 	H 	0.6481	0.974	0.9239	0.157
Mof_H 	H 	0.1376	0.8175	0.5224	0.124
Mof_H 	H 	0.0388	0.7466	0.4536	0.1
Mof_H 	H 	0.0795	0.6832	0.6885	0.121
Mof_H 	H 	0.188	0.7307	0.6268	0.15
Mof_H 	H 	0.974	0.6481	0.5761	0.153
Mof_H 	H 	0.1825	0.3201	0.5224	0.106
Mof_H 	H 	0.2534	0.2922	0.4536	0.108
Mof_H 	H 	0.3168	0.3963	0.6885	0.131
Mof_H 	H 	0.2693	0.4573	0.6268	0.145
Mof_H 	H 	0.3519	0.3259	0.5761	0.091
Mof_H 	H 	0.6799	0.8624	0.5224	0.142
Mof_H 	H 	0.7078	0.9612	0.4536	0.158
Mof_H 	H 	0.6037	0.9205	0.6885	0.163
Mof_H 	H 	0.5427	0.812	0.6268	0.155
Mof_H 	H 	0.6741	0.026	0.5761	0.036
Mof_H 	H 	0.6799	0.8175	0.0224	0.044
Mof_H 	H 	0.7078	0.7466	0.9536	0.09
Mof_H 	H 	0.6037	0.6832	0.1885	0.141
Mof_H 	H 	0.5427	0.7307	0.1268	0.143
Mof_H 	H 	0.6741	0.6481	0.0761	0.096
Mof_H 	H 	0.1376	0.3201	0.0224	0.001
Mof_H 	H 	0.0388	0.2922	0.9536	0.039
Mof_H 	H 	0.0795	0.3963	0.1885	0.108
Mof_H 	H 	0.188	0.4573	0.1268	0.131
Mof_H 	H 	0.974	0.3259	0.0761	0.15
Mof_H 	H 	0.1825	0.8624	0.0224	0.025
Mof_H 	H 	0.2534	0.9612	0.9536	0.098
Mof_H 	H 	0.3168	0.9205	0.1885	0.152
Mof_H 	H 	0.2693	0.812	0.1268	0.137
Mof_H 	H 	0.3519	0.026	0.0761	0.03
Mof_H 	H 	0.8624	0.1825	0.4776	0.123
Mof_H 	H 	0.9612	0.2534	0.5464	0.143
Mof_H 	H 	0.9205	0.3168	0.3115	0.155
Mof_H 	H 	0.812	0.2693	0.3732	0.149
Mof_H 	H 	0.026	0.3519	0.4239	0.035
Mof_H 	H 	0.8175	0.6799	0.4776	0.142
Mof_H 	H 	0.7466	0.7078	0.5464	0.136
Mof_H 	H 	0.6832	0.6037	0.3115	0.145
Mof_H 	H 	0.7307	0.5427	0.3732	0.155
Mof_H 	H 	0.6481	0.6741	0.4239	0.097
Mof_H 	H 	0.3201	0.1376	0.4776	0.104
Mof_H 	H 	0.2922	0.0388	0.5464	0.086
Mof_H 	H 	0.3963	0.0795	0.3115	0.111
Mof_H 	H 	0.4573	0.188	0.3732	0.144
Mof_H 	H 	0.3259	0.974	0.4239	0.153
Mof_C 	C 	0.4515	0.2719	0.0668	0.435
Mof_C 	C 	0.3518	0.2553	0.0087	-0.492
Mof_C 	C 	0.4458	0.334	0.8633	-0.377
Mof_C 	C 	0.5597	0.4388	0.8437	0.489
Mof_C 	C 	0.8204	0.5485	0.0668	0.45
Mof_C 	C 	0.9035	0.6482	0.0087	-0.512
Mof_C 	C 	0.8882	0.5542	0.8633	-0.389
Mof_C 	C 	0.8791	0.4403	0.8437	0.499
Mof_C 	C 	0.7281	0.1796	0.0668	0.429
Mof_C 	C 	0.7447	0.0965	0.0087	-0.485
Mof_C 	C 	0.666	0.1118	0.8633	-0.372
Mof_C 	C 	0.5612	0.1209	0.8437	0.484
Mof_C 	C 	0.1796	0.7281	0.4332	0.382
Mof_C 	C 	0.0965	0.7447	0.4913	-0.289
Mof_C 	C 	0.1118	0.666	0.6367	-0.367
Mof_C 	C 	0.1209	0.5612	0.6563	0.479
Mof_C 	C 	0.2719	0.4515	0.4332	0.386
Mof_C 	C 	0.2553	0.3518	0.4913	-0.288
Mof_C 	C 	0.334	0.4458	0.6367	-0.371
Mof_C 	C 	0.4388	0.5597	0.6563	0.484
Mof_C 	C 	0.5485	0.8204	0.4332	0.404
Mof_C 	C 	0.6482	0.9035	0.4913	-0.321
Mof_C 	C 	0.5542	0.8882	0.6367	-0.384
Mof_C 	C 	0.4403	0.8791	0.6563	0.493
Mof_C 	C 	0.5485	0.7281	0.9332	0.348
Mof_C 	C 	0.6482	0.7447	0.9913	-0.114
Mof_C 	C 	0.5542	0.666	0.1367	-0.37
Mof_C 	C 	0.4403	0.5612	0.1563	0.48
Mof_C 	C 	0.1796	0.4515	0.9332	0.328
Mof_C 	C 	0.0965	0.3518	0.9913	-0.068
Mof_C 	C 	0.1118	0.4458	0.1367	-0.351
Mof_C 	C 	0.1209	0.5597	0.1563	0.469
Mof_C 	C 	0.2719	0.8204	0.9332	0.352
Mof_C 	C 	0.2553	0.9035	0.9913	-0.111
Mof_C 	C 	0.334	0.8882	0.1367	-0.369
Mof_C 	C 	0.4388	0.8791	0.1563	0.484
Mof_C 	C 	0.8204	0.2719	0.5668	0.398
Mof_C 	C 	0.9035	0.2553	0.5087	-0.308
Mof_C 	C 	0.8882	0.334	0.3633	-0.379
Mof_C 	C 	0.8791	0.4388	0.3437	0.491
Mof_C 	C 	0.7281	0.5485	0.5668	0.396
Mof_C 	C 	0.7447	0.6482	0.5087	-0.312
Mof_C 	C 	0.666	0.5542	0.3633	-0.379
Mof_C 	C 	0.5612	0.4403	0.3437	0.487
Mof_C 	C 	0.4515	0.1796	0.5668	0.377
Mof_C 	C 	0.3518	0.0965	0.5087	-0.276
Mof_C 	C 	0.4458	0.1118	0.3633	-0.361
Mof_C 	C 	0.5597	0.1209	0.3437	0.476
Mof_N 	N 	0.3885	0.3486	0.94247	-0.103
Mof_N 	N 	0.9601	0.6115	0.94247	-0.046
Mof_N 	N 	0.6514	0.0399	0.94247	-0.154
Mof_N 	N 	0.0399	0.6514	0.55753	-0.206
Mof_N 	N 	0.3486	0.3885	0.55753	-0.158
Mof_N 	N 	0.6115	0.9601	0.55753	-0.093
Mof_N 	N 	0.6115	0.6514	0.05753	-0.201
Mof_N 	N 	0.0399	0.3885	0.05753	-0.26
Mof_N 	N 	0.3486	0.9601	0.05753	-0.143
Mof_N 	N 	0.9601	0.3486	0.44247	-0.099
Mof_N 	N 	0.6514	0.6115	0.44247	-0.153
Mof_N 	N 	0.3885	0.0399	0.44247	-0.212
Mof_O 	O 	0.4378	0.197	0.12298	-0.444
Mof_O 	O 	0.546	0.3633	0.05682	-0.553
Mof_O 	O 	0.5974	0.5234	0.89543	-0.415
Mof_O 	O 	0.6134	0.4376	0.77561	-0.53
Mof_O 	O 	0.7592	0.5622	0.12298	-0.431
Mof_O 	O 	0.8173	0.454	0.05682	-0.544
Mof_O 	O 	0.926	0.4026	0.89543	-0.39
Mof_O 	O 	0.8242	0.3866	0.77561	-0.525
Mof_O 	O 	0.803	0.2408	0.12298	-0.43
Mof_O 	O 	0.6367	0.1827	0.05682	-0.556
Mof_O 	O 	0.4766	0.074	0.89543	-0.439
Mof_O 	O 	0.5624	0.1758	0.77561	-0.54
Mof_O 	O 	0.2408	0.803	0.37702	-0.409
Mof_O 	O 	0.1827	0.6367	0.44318	-0.528
Mof_O 	O 	0.074	0.4766	0.60457	-0.457
Mof_O 	O 	0.1758	0.5624	0.72439	-0.54
Mof_O 	O 	0.197	0.4378	0.37702	-0.423
Mof_O 	O 	0.3633	0.546	0.44318	-0.525
Mof_O 	O 	0.5234	0.5974	0.60457	-0.434
Mof_O 	O 	0.4376	0.6134	0.72439	-0.531
Mof_O 	O 	0.5622	0.7592	0.37702	-0.411
Mof_O 	O 	0.454	0.8173	0.44318	-0.517
Mof_O 	O 	0.4026	0.926	0.60457	-0.405
Mof_O 	O 	0.3866	0.8242	0.72439	-0.526
Mof_O 	O 	0.5622	0.803	0.87702	-0.384
Mof_O 	O 	0.454	0.6367	0.94318	-0.494
Mof_O 	O 	0.4026	0.4766	0.10457	-0.447
Mof_O 	O 	0.3866	0.5624	0.22439	-0.534
Mof_O 	O 	0.2408	0.4378	0.87702	-0.395
Mof_O 	O 	0.1827	0.546	0.94318	-0.494
Mof_O 	O 	0.074	0.5974	0.10457	-0.463
Mof_O 	O 	0.1758	0.6134	0.22439	-0.537
Mof_O 	O 	0.197	0.7592	0.87702	-0.397
Mof_O 	O 	0.3633	0.8173	0.94318	-0.484
Mof_O 	O 	0.5234	0.926	0.10457	-0.411
Mof_O 	O 	0.4376	0.8242	0.22439	-0.522
Mof_O 	O 	0.7592	0.197	0.62298	-0.419
Mof_O 	O 	0.8173	0.3633	0.55682	-0.518
Mof_O 	O 	0.926	0.5234	0.39543	-0.405
Mof_O 	O 	0.8242	0.4376	0.27561	-0.522
Mof_O 	O 	0.803	0.5622	0.62298	-0.405
Mof_O 	O 	0.6367	0.454	0.55682	-0.527
Mof_O 	O 	0.4766	0.4026	0.39543	-0.439
Mof_O 	O 	0.5624	0.3866	0.27561	-0.533
Mof_O 	O 	0.4378	0.2408	0.62298	-0.418
Mof_O 	O 	0.546	0.1827	0.55682	-0.529
Mof_O 	O 	0.5974	0.074	0.39543	-0.456
Mof_O 	O 	0.6134	0.1758	0.27561	-0.537
_end
