data_functionalizedCrystal
_audit_creation_method	'EQeq! by Chris Wilmer'
_symmetry_space_group_name_H-M	'P1'
_symmetry_Int_Tables_number	1
_symmetry_cell_setting	triclinic
loop_
_symmetry_equiv_pos_as_xyz
  x,y,z
_cell_length_a	10.406
_cell_length_b	11.062
_cell_length_c	12.407
_cell_angle_alpha	103.58
_cell_angle_beta	106.34
_cell_angle_gamma	98.73
loop_
_atom_site_label
_atom_site_type_symbol
_atom_site_fract_x
_atom_site_fract_y
_atom_site_fract_z
_atom_site_charge
Mof_Pr	Pr	0.09415	0.54426	0.68266	2.276
Mof_Pr	Pr	0.90585	0.45574	0.31734	2.276
Mof_H 	H 	0.2741	0.3943	0.2496	0.279
Mof_H 	H 	0.0756	0.8818	0.7107	0.28
Mof_H 	H 	0.0009	0.1476	0.6663	0.062
Mof_H 	H 	0.5655	0.8263	0.8993	0.107
Mof_H 	H 	0.3893	0.5576	0.6347	0.041
Mof_H 	H 	0.1766	0.9396	0.9468	0.268
Mof_H 	H 	0.7259	0.6057	0.7504	0.279
Mof_H 	H 	0.9244	0.1182	0.2893	0.28
Mof_H 	H 	0.9991	0.8524	0.3337	0.062
Mof_H 	H 	0.4345	0.1737	0.1007	0.107
Mof_H 	H 	0.6107	0.4424	0.3653	0.041
Mof_H 	H 	0.8234	0.0604	0.0532	0.268
Mof_C 	C 	0.0008	0.0881	0.5994	-0.078
Mof_C 	C 	0.2942	0.7712	0.8527	0.335
Mof_C 	C 	0.3577	0.4815	0.462	-0.198
Mof_C 	C 	0.0557	0.7534	0.5087	0.487
Mof_C 	C 	0.5398	0.8956	0.9394	-0.102
Mof_C 	C 	0.2049	0.4603	0.4257	0.467
Mof_C 	C 	0.4003	0.8903	0.9287	-0.126
Mof_C 	C 	0.434	0.5341	0.5807	-0.069
Mof_C 	C 	0.0298	0.9723	0.6075	0.233
Mof_C 	C 	0.3618	0.994	0.9891	0.217
Mof_C 	C 	0.4247	0.4482	0.3809	0.235
Mof_C 	C 	0.0288	0.8819	0.5066	-0.195
Mof_C 	C 	0.9992	0.9119	0.4006	-0.078
Mof_C 	C 	0.7058	0.2288	0.1473	0.335
Mof_C 	C 	0.6423	0.5185	0.538	-0.198
Mof_C 	C 	0.9443	0.2466	0.4913	0.487
Mof_C 	C 	0.4602	0.1044	0.0606	-0.102
Mof_C 	C 	0.7951	0.5397	0.5743	0.467
Mof_C 	C 	0.5997	0.1097	0.0713	-0.126
Mof_C 	C 	0.566	0.4659	0.4193	-0.069
Mof_C 	C 	0.9702	0.0277	0.3925	0.233
Mof_C 	C 	0.6382	0.006	0.0109	0.217
Mof_C 	C 	0.5753	0.5518	0.6191	0.235
Mof_C 	C 	0.9712	0.1181	0.4934	-0.195
Mof_O 	O 	0.1707	0.7591	0.8505	-0.461
Mof_O 	O 	0.3566	0.3975	0.263	-0.439
Mof_O 	O 	0.0578	0.9521	0.7151	-0.433
Mof_O 	O 	0.1364	0.4226	0.3161	-0.537
Mof_O 	O 	0.1448	0.4806	0.5007	-0.65
Mof_O 	O 	0.093	0.7331	0.6079	-0.531
Mof_O 	O 	0.3307	0.6822	0.7914	-0.483
Mof_O 	O 	0.0399	0.6732	0.4117	-0.581
Mof_O 	O 	0.2325	0.0074	0.9854	-0.404
Mof_O 	O 	0.8293	0.2409	0.1495	-0.461
Mof_O 	O 	0.6434	0.6025	0.737	-0.439
Mof_O 	O 	0.9422	0.0479	0.2849	-0.433
Mof_O 	O 	0.8636	0.5774	0.6839	-0.537
Mof_O 	O 	0.8552	0.5194	0.4993	-0.65
Mof_O 	O 	0.907	0.2669	0.3921	-0.531
Mof_O 	O 	0.6693	0.3178	0.2086	-0.483
Mof_O 	O 	0.9601	0.3268	0.5883	-0.581
Mof_O 	O 	0.7675	0.9926	0.0146	-0.404
_end
