data_functionalizedCrystal
_audit_creation_method	'EQeq! by Chris Wilmer'
_symmetry_space_group_name_H-M	'P1'
_symmetry_Int_Tables_number	1
_symmetry_cell_setting	triclinic
loop_
_symmetry_equiv_pos_as_xyz
  x,y,z
_cell_length_a	15.519
_cell_length_b	16.102
_cell_length_c	22.982
_cell_angle_alpha	90
_cell_angle_beta	90
_cell_angle_gamma	100.2
loop_
_atom_site_label
_atom_site_type_symbol
_atom_site_fract_x
_atom_site_fract_y
_atom_site_fract_z
_atom_site_charge
Mof_Zn	Zn	0.15664	0.35394	0.8775	1.163
Mof_Zn	Zn	0.82542	0.24668	0.24898	1.22
Mof_Zn	Zn	0.82542	0.74668	0.25102	1.22
Mof_Zn	Zn	0.16814	0.68942	0.87651	1.222
Mof_Zn	Zn	0.17458	0.75332	0.75102	1.221
Mof_Zn	Zn	0.84336	0.14606	0.3775	1.164
Mof_Zn	Zn	0.83186	0.81058	0.37651	1.223
Mof_Zn	Zn	0.3524	0.38302	0.83717	1.224
Mof_Zn	Zn	0.66375	0.15101	0.47193	1.224
Mof_Zn	Zn	0.66375	0.65101	0.02807	1.224
Mof_Zn	Zn	0.33625	0.34899	0.97193	1.224
Mof_Zn	Zn	0.83186	0.31058	0.12348	1.223
Mof_Zn	Zn	0.84336	0.64606	0.1225	1.164
Mof_Zn	Zn	0.17458	0.25332	0.74898	1.221
Mof_Zn	Zn	0.6476	0.11698	0.33717	1.224
Mof_Zn	Zn	0.6476	0.61698	0.16283	1.224
Mof_Zn	Zn	0.3524	0.88302	0.66283	1.224
Mof_Zn	Zn	0.15664	0.85394	0.6225	1.164
Mof_Zn	Zn	0.33625	0.84899	0.52807	1.224
Mof_Zn	Zn	0.16814	0.18942	0.62349	1.223
Mof_H 	H 	0.399	0.5813	0.9841	0.082
Mof_H 	H 	0.0586	0.0998	0.1622	0.121
Mof_H 	H 	0.1701	0.515	0.6665	0.064
Mof_H 	H 	0.6132	0.1508	0.7709	-0
Mof_H 	H 	0.7888	0.8964	0.8259	0.01
Mof_H 	H 	0.3442	0.2463	0.3706	0.122
Mof_H 	H 	0.4179	0.9196	0.1298	0.021
Mof_H 	H 	0.1084	0.2914	0.271	0.092
Mof_H 	H 	0.5625	0.1557	0.9584	0.124
Mof_H 	H 	0.1701	0.015	0.8335	0.063
Mof_H 	H 	0.426	0.9899	0.0322	0.001
Mof_H 	H 	0.676	0.5367	0.5237	0.001
Mof_H 	H 	0.6311	0.4555	0.8437	0.106
Mof_H 	H 	0.8392	0.9354	0.557	0.096
Mof_H 	H 	0.0487	0.0037	0.1478	0.132
Mof_H 	H 	0.5582	0.2158	0.8555	0.112
Mof_H 	H 	0.1072	0.9897	0.2502	0.119
Mof_H 	H 	0.625	0.7499	0.7327	-0.003
Mof_H 	H 	0.1174	0.0878	0.2564	0.118
Mof_H 	H 	0.601	0.4187	0.0159	0.082
Mof_H 	H 	0.1939	0.5052	0.3331	0.011
Mof_H 	H 	0.1283	0.639	0.5217	0.088
Mof_H 	H 	0.1283	0.139	0.9783	0.087
Mof_H 	H 	0.6558	0.2537	0.8706	0.122
Mof_H 	H 	0.8061	0.9948	0.8331	0.013
Mof_H 	H 	0.1608	0.0646	0.443	0.096
Mof_H 	H 	0.3689	0.5445	0.1563	0.106
Mof_H 	H 	0.6338	0.3679	0.2957	0.08
Mof_H 	H 	0.3353	0.8197	0.0358	0.125
Mof_H 	H 	0.9414	0.4002	0.6622	0.121
Mof_H 	H 	0.4375	0.3443	0.4584	0.124
Mof_H 	H 	0.4418	0.7842	0.1445	0.112
Mof_H 	H 	0.324	0.4633	0.4763	0.001
Mof_H 	H 	0.8061	0.4948	0.6669	0.011
Mof_H 	H 	0.7314	0.9051	0.7237	-0.006
Mof_H 	H 	0.324	0.9633	0.0237	0.001
Mof_H 	H 	0.2543	0.9956	0.2737	-0.006
Mof_H 	H 	0.6688	0.1846	0.679	0.106
Mof_H 	H 	0.6558	0.7537	0.6294	0.122
Mof_H 	H 	0.574	0.5101	0.5322	0.001
Mof_H 	H 	0.601	0.9187	0.4841	0.082
Mof_H 	H 	0.8392	0.4354	0.943	0.096
Mof_H 	H 	0.3353	0.3197	0.4642	0.125
Mof_H 	H 	0.1072	0.4897	0.2498	0.123
Mof_H 	H 	0.6836	0.6115	0.6247	0.027
Mof_H 	H 	0.5625	0.6557	0.5416	0.124
Mof_H 	H 	0.3753	0.0907	0.9657	0.105
Mof_H 	H 	0.1939	0.0052	0.1669	0.013
Mof_H 	H 	0.2686	0.5949	0.2237	-0.006
Mof_H 	H 	0.9513	0.9963	0.8522	0.132
Mof_H 	H 	0.3955	0.9049	0.8531	0.116
Mof_H 	H 	0.6132	0.6508	0.7291	-0
Mof_H 	H 	0.5821	0.5804	0.6298	0.021
Mof_H 	H 	0.8299	0.485	0.3335	0.064
Mof_H 	H 	0.3312	0.3154	0.179	0.106
Mof_H 	H 	0.9414	0.9002	0.8378	0.121
Mof_H 	H 	0.8951	0.6764	0.9016	0.063
Mof_H 	H 	0.8916	0.2086	0.771	0.091
Mof_H 	H 	0.9513	0.4963	0.6478	0.133
Mof_H 	H 	0.6647	0.1803	0.9642	0.125
Mof_H 	H 	0.6647	0.6803	0.5358	0.125
Mof_H 	H 	0.7457	0.5044	0.7737	-0.005
Mof_H 	H 	0.1084	0.7914	0.229	0.091
Mof_H 	H 	0.2112	0.6036	0.3259	0.008
Mof_H 	H 	0.375	0.7501	0.2327	-0.003
Mof_H 	H 	0.2543	0.4956	0.2263	-0.005
Mof_H 	H 	0.8531	0.8719	0.9219	-0.017
Mof_H 	H 	0.9516	0.4098	0.5653	-0.023
Mof_H 	H 	0.8299	0.985	0.1665	0.063
Mof_H 	H 	0.3955	0.4049	0.6469	0.116
Mof_H 	H 	0.6247	0.9093	0.0343	0.105
Mof_H 	H 	0.8916	0.7086	0.729	0.092
Mof_H 	H 	0.3868	0.3492	0.2709	-0
Mof_H 	H 	0.6045	0.5951	0.3531	0.116
Mof_H 	H 	0.2686	0.0949	0.2763	-0.006
Mof_H 	H 	0.6311	0.9555	0.6563	0.106
Mof_H 	H 	0.0484	0.5902	0.4347	-0.023
Mof_H 	H 	0.1608	0.5646	0.057	0.096
Mof_H 	H 	0.6247	0.4093	0.4657	0.105
Mof_H 	H 	0.0487	0.5037	0.3522	0.133
Mof_H 	H 	0.3164	0.8885	0.1247	0.027
Mof_H 	H 	0.3312	0.8154	0.321	0.106
Mof_H 	H 	0.399	0.0813	0.5159	0.082
Mof_H 	H 	0.1049	0.8236	0.4016	0.061
Mof_H 	H 	0.7888	0.3964	0.6741	0.008
Mof_H 	H 	0.426	0.4899	0.4678	0.001
Mof_H 	H 	0.6836	0.1115	0.8753	0.027
Mof_H 	H 	0.8928	0.5103	0.7502	0.123
Mof_H 	H 	0.8717	0.861	0.0217	0.087
Mof_H 	H 	0.4179	0.4196	0.3702	0.021
Mof_H 	H 	0.574	0.0101	0.9678	0.001
Mof_H 	H 	0.1469	0.6281	0.4219	-0.018
Mof_H 	H 	0.9516	0.9098	0.9347	-0.02
Mof_H 	H 	0.1174	0.5878	0.2436	0.119
Mof_H 	H 	0.4418	0.2842	0.3555	0.112
Mof_H 	H 	0.2112	0.1036	0.1741	0.01
Mof_H 	H 	0.4375	0.8443	0.0416	0.124
Mof_H 	H 	0.3442	0.7463	0.1294	0.122
Mof_H 	H 	0.6688	0.6846	0.821	0.106
Mof_H 	H 	0.3662	0.6321	0.7043	0.08
Mof_H 	H 	0.6045	0.0951	0.1469	0.116
Mof_H 	H 	0.1534	0.3959	0.513	0.104
Mof_H 	H 	0.7314	0.4051	0.7763	-0.006
Mof_H 	H 	0.3662	0.1321	0.7957	0.08
Mof_H 	H 	0.8717	0.361	0.4783	0.088
Mof_H 	H 	0.8826	0.9122	0.7436	0.118
Mof_H 	H 	0.3164	0.3885	0.3753	0.027
Mof_H 	H 	0.1469	0.1281	0.0781	-0.017
Mof_H 	H 	0.676	0.0367	0.9763	0.001
Mof_H 	H 	0.5821	0.0804	0.8702	0.021
Mof_H 	H 	0.375	0.2501	0.2673	-0.003
Mof_H 	H 	0.1049	0.3236	0.0984	0.063
Mof_H 	H 	0.3689	0.0445	0.3437	0.106
Mof_H 	H 	0.1534	0.8959	0.987	0.103
Mof_H 	H 	0.8466	0.1041	0.013	0.103
Mof_H 	H 	0.8826	0.4122	0.7564	0.119
Mof_H 	H 	0.3868	0.8492	0.2291	-0
Mof_H 	H 	0.0586	0.5998	0.3378	0.121
Mof_H 	H 	0.8531	0.3719	0.5781	-0.018
Mof_H 	H 	0.8466	0.6041	0.487	0.104
Mof_H 	H 	0.5582	0.7158	0.6445	0.112
Mof_H 	H 	0.8951	0.1764	0.5984	0.061
Mof_H 	H 	0.625	0.2499	0.7673	-0.003
Mof_H 	H 	0.7457	0.0044	0.7263	-0.006
Mof_H 	H 	0.0484	0.0902	0.0653	-0.02
Mof_H 	H 	0.3753	0.5907	0.5343	0.105
Mof_H 	H 	0.6338	0.8679	0.2043	0.08
Mof_H 	H 	0.8928	0.0103	0.7498	0.119
Mof_C 	C 	0.6285	0.3754	0.38228	-0.016
Mof_C 	C 	0.8381	0.0571	0.09454	-0.026
Mof_C 	C 	0.6181	0.7065	0.64772	-0.259
Mof_C 	C 	0.7762	0.1823	0.62991	-0.01
Mof_C 	C 	0.8485	0.0557	0.03474	-0.132
Mof_C 	C 	0.1619	0.9429	0.90546	-0.026
Mof_C 	C 	0.8635	0.4105	0.45996	-0.125
Mof_C 	C 	0.3629	0.5751	0.01667	-0.074
Mof_C 	C 	0.088	0.0575	0.1448	-0.308
Mof_C 	C 	0.7796	0.4363	0.93984	-0.157
Mof_C 	C 	0.3794	0.5141	0.68568	0.018
Mof_C 	C 	0.161	0.5151	0.6265	-0.027
Mof_C 	C 	0.0056	0.1981	0.68747	0.359
Mof_C 	C 	0.2378	0.093	0.5477	0.263
Mof_C 	C 	0.6128	0.0118	0.08303	0.218
Mof_C 	C 	0.1761	0.8631	0.87569	0.328
Mof_C 	C 	0.6174	0.1373	0.95022	-0.266
Mof_C 	C 	0.8978	0.422	0.58206	0.195
Mof_C 	C 	0.0056	0.6981	0.81253	0.356
Mof_C 	C 	0.9944	0.3019	0.18747	0.356
Mof_C 	C 	0.6423	0.2032	0.78824	0.138
Mof_C 	C 	0.2556	0.5509	0.11365	0.209
Mof_C 	C 	0.3794	0.0141	0.81432	0.017
Mof_C 	C 	0.7796	0.9363	0.56016	-0.157
Mof_C 	C 	0.7272	0.9247	0.51083	-0.006
Mof_C 	C 	0.1619	0.4429	0.59454	-0.024
Mof_C 	C 	0.6025	0.4344	0.92885	-0.015
Mof_C 	C 	0.1472	0.0426	0.24434	-0.286
Mof_C 	C 	0.2265	0.5435	0.21744	0.156
Mof_C 	C 	0.3872	0.4882	0.58303	0.217
Mof_C 	C 	0.1384	0.5172	0.50722	0.198
Mof_C 	C 	0.2265	0.0435	0.28256	0.156
Mof_C 	C 	0.3776	0.0715	0.92763	-0.154
Mof_C 	C 	0.3736	0.9797	0.75314	0.268
Mof_C 	C 	0.7444	0.4491	0.88635	0.209
Mof_C 	C 	0.8528	0.4574	0.74434	-0.292
Mof_C 	C 	0.4957	0.5778	0.07747	0.357
Mof_C 	C 	0.6269	0.6261	0.61622	0.059
Mof_C 	C 	0.1515	0.9443	0.96526	-0.132
Mof_C 	C 	0.908	0.1958	0.68508	-0.038
Mof_C 	C 	0.3736	0.4797	0.74686	0.267
Mof_C 	C 	0.3819	0.2935	0.35228	-0.259
Mof_C 	C 	0.3715	0.6246	0.61772	-0.016
Mof_C 	C 	0.3826	0.8627	0.04978	-0.266
Mof_C 	C 	0.6181	0.2065	0.85228	-0.259
Mof_C 	C 	0.1684	0.0527	0.18005	0.1
Mof_C 	C 	0.8316	0.9473	0.81995	0.1
Mof_C 	C 	0.6549	0.9477	0.62006	-0.158
Mof_C 	C 	0.8528	0.9574	0.75566	-0.286
Mof_C 	C 	0.2238	0.8177	0.37009	-0.01
Mof_C 	C 	0.9944	0.8019	0.31253	0.359
Mof_C 	C 	0.6206	0.9859	0.18568	0.017
Mof_C 	C 	0.3776	0.5715	0.57237	-0.153
Mof_C 	C 	0.6025	0.9344	0.57115	-0.015
Mof_C 	C 	0.6371	0.4249	0.98333	-0.074
Mof_C 	C 	0.2268	0.7991	0.26681	0.201
Mof_C 	C 	0.3872	0.9882	0.91697	0.218
Mof_C 	C 	0.3885	0.9601	0.86054	-0.162
Mof_C 	C 	0.2707	0.3114	0.18043	-0.153
Mof_C 	C 	0.7732	0.7009	0.76681	0.202
Mof_C 	C 	0.7735	0.9565	0.71744	0.156
Mof_C 	C 	0.272	0.3287	0.07288	0.305
Mof_C 	C 	0.7622	0.907	0.4523	0.263
Mof_C 	C 	0.1375	0.2973	0.23549	-0.139
Mof_C 	C 	0.3451	0.5523	0.12006	-0.158
Mof_C 	C 	0.8522	0.3332	0.36652	0.386
Mof_C 	C 	0.6264	0.5203	0.25314	0.267
Mof_C 	C 	0.2378	0.593	0.9523	0.263
Mof_C 	C 	0.1357	0.3163	0.13225	-0.037
Mof_C 	C 	0.8239	0.6369	0.37569	0.328
Mof_C 	C 	0.8635	0.9105	0.04004	-0.123
Mof_C 	C 	0.6284	0.4044	0.32627	-0.061
Mof_C 	C 	0.1384	0.0172	0.99278	0.193
Mof_C 	C 	0.5043	0.9222	0.57747	0.357
Mof_C 	C 	0.2204	0.5637	0.06016	-0.157
Mof_C 	C 	0.1761	0.3631	0.62431	0.328
Mof_C 	C 	0.2728	0.5753	0.01083	-0.006
Mof_C 	C 	0.6128	0.5118	0.41697	0.217
Mof_C 	C 	0.3716	0.0956	0.82627	-0.06
Mof_C 	C 	0.161	0.0151	0.8735	-0.025
Mof_C 	C 	0.8535	0.912	0.0989	-0.049
Mof_C 	C 	0.3975	0.0656	0.42885	-0.015
Mof_C 	C 	0.1515	0.4443	0.53474	-0.135
Mof_C 	C 	0.4957	0.0778	0.42253	0.357
Mof_C 	C 	0.7444	0.9491	0.61365	0.209
Mof_C 	C 	0.1478	0.6668	0.63348	0.386
Mof_C 	C 	0.1465	0.588	0.5989	-0.047
Mof_C 	C 	0.1022	0.578	0.41794	0.195
Mof_C 	C 	0.6224	0.4285	0.42763	-0.153
Mof_C 	C 	0.3885	0.4601	0.63946	-0.162
Mof_C 	C 	0.7735	0.4565	0.78256	0.156
Mof_C 	C 	0.3629	0.0751	0.48333	-0.074
Mof_C 	C 	0.6224	0.9285	0.07237	-0.154
Mof_C 	C 	0.6264	0.0203	0.24686	0.268
Mof_C 	C 	0.7272	0.4247	0.98917	-0.006
Mof_C 	C 	0.3599	0.714	0.60702	0.354
Mof_C 	C 	0.7732	0.2009	0.73319	0.201
Mof_C 	C 	0.3731	0.8739	0.11622	0.06
Mof_C 	C 	0.728	0.6713	0.92712	0.305
Mof_C 	C 	0.6269	0.1261	0.88378	0.06
Mof_C 	C 	0.3801	0.9457	0.01799	0.143
Mof_C 	C 	0.1684	0.5527	0.31995	0.105
Mof_C 	C 	0.8239	0.1369	0.12431	0.328
Mof_C 	C 	0.8381	0.5571	0.40546	-0.024
Mof_C 	C 	0.8978	0.922	0.91794	0.191
Mof_C 	C 	0.7293	0.1886	0.68043	-0.151
Mof_C 	C 	0.3716	0.5956	0.67373	-0.061
Mof_C 	C 	0.1472	0.5426	0.25566	-0.292
Mof_C 	C 	0.8522	0.8332	0.13348	0.387
Mof_C 	C 	0.5043	0.4222	0.92253	0.357
Mof_C 	C 	0.3819	0.7935	0.14772	-0.259
Mof_C 	C 	0.2238	0.3177	0.12991	-0.009
Mof_C 	C 	0.8616	0.4828	0.49278	0.198
Mof_C 	C 	0.6423	0.7032	0.71176	0.138
Mof_C 	C 	0.6371	0.9249	0.51667	-0.074
Mof_C 	C 	0.092	0.3042	0.18508	-0.034
Mof_C 	C 	0.3731	0.3739	0.38378	0.059
Mof_C 	C 	0.3975	0.5656	0.07115	-0.015
Mof_C 	C 	0.6401	0.786	0.10702	0.354
Mof_C 	C 	0.6206	0.4859	0.31432	0.018
Mof_C 	C 	0.908	0.6958	0.81492	-0.034
Mof_C 	C 	0.8535	0.412	0.4011	-0.047
Mof_C 	C 	0.6199	0.0543	0.98201	0.143
Mof_C 	C 	0.2268	0.2991	0.23319	0.202
Mof_C 	C 	0.1478	0.1668	0.86652	0.387
Mof_C 	C 	0.839	0.9849	0.1265	-0.025
Mof_C 	C 	0.2728	0.0753	0.48917	-0.006
Mof_C 	C 	0.8616	0.9828	0.00722	0.193
Mof_C 	C 	0.3715	0.1246	0.88228	-0.016
Mof_C 	C 	0.6549	0.4477	0.87994	-0.158
Mof_C 	C 	0.088	0.5575	0.3552	-0.313
Mof_C 	C 	0.1365	0.0895	0.95996	-0.123
Mof_C 	C 	0.6199	0.5543	0.51799	0.144
Mof_C 	C 	0.3801	0.4457	0.48201	0.144
Mof_C 	C 	0.7762	0.6823	0.87009	-0.009
Mof_C 	C 	0.6284	0.9044	0.17373	-0.06
Mof_C 	C 	0.3577	0.7968	0.21176	0.138
Mof_C 	C 	0.092	0.8042	0.31492	-0.038
Mof_C 	C 	0.2204	0.0637	0.43984	-0.157
Mof_C 	C 	0.3826	0.3627	0.45022	-0.266
Mof_C 	C 	0.7622	0.407	0.0477	0.263
Mof_C 	C 	0.1022	0.078	0.08206	0.191
Mof_C 	C 	0.8643	0.6837	0.86775	-0.037
Mof_C 	C 	0.839	0.4849	0.3735	-0.027
Mof_C 	C 	0.728	0.1713	0.57288	0.306
Mof_C 	C 	0.8485	0.5557	0.46526	-0.135
Mof_C 	C 	0.3599	0.214	0.89298	0.354
Mof_C 	C 	0.8643	0.1837	0.63225	-0.035
Mof_C 	C 	0.2707	0.8114	0.31957	-0.151
Mof_C 	C 	0.1375	0.7973	0.26451	-0.137
Mof_C 	C 	0.2556	0.0509	0.38635	0.209
Mof_C 	C 	0.6401	0.286	0.39298	0.354
Mof_C 	C 	0.7293	0.6886	0.81957	-0.153
Mof_C 	C 	0.1365	0.5895	0.54004	-0.125
Mof_C 	C 	0.6115	0.0399	0.13946	-0.162
Mof_C 	C 	0.6115	0.5399	0.36054	-0.162
Mof_C 	C 	0.6174	0.6373	0.54978	-0.266
Mof_C 	C 	0.8316	0.4473	0.68005	0.105
Mof_C 	C 	0.1465	0.088	0.9011	-0.049
Mof_C 	C 	0.8625	0.7027	0.76451	-0.139
Mof_C 	C 	0.1357	0.8163	0.36775	-0.035
Mof_C 	C 	0.272	0.8287	0.42712	0.306
Mof_C 	C 	0.3577	0.2968	0.28824	0.138
Mof_C 	C 	0.3451	0.0523	0.37994	-0.158
Mof_C 	C 	0.6285	0.8754	0.11772	-0.016
Mof_C 	C 	0.912	0.4425	0.6448	-0.313
Mof_C 	C 	0.912	0.9425	0.8552	-0.308
Mof_C 	C 	0.8625	0.2027	0.73549	-0.137
Mof_O 	O 	0.21669	0.35045	0.7984	-0.639
Mof_O 	O 	0.65657	0.47884	0.21377	-0.295
Mof_O 	O 	0.76904	0.6609	0.97248	-0.438
Mof_O 	O 	0.04534	0.2299	0.73183	-0.485
Mof_O 	O 	0.27995	0.40366	0.90668	-0.67
Mof_O 	O 	0.73473	0.2086	0.78583	-0.254
Mof_O 	O 	0.19658	0.5393	0.15869	-0.263
Mof_O 	O 	0.34343	0.52116	0.78623	-0.295
Mof_O 	O 	0.35088	0.8257	0.42979	-0.347
Mof_O 	O 	0.45959	0.90281	0.5322	-0.459
Mof_O 	O 	0.34564	0.73467	0.55517	-0.468
Mof_O 	O 	0.04119	0.17113	0.64306	-0.479
Mof_O 	O 	0.16019	0.66397	0.68763	-0.464
Mof_O 	O 	0.23202	0.68531	0.80483	-0.526
Mof_O 	O 	0.6053	0.09177	0.2557	-0.404
Mof_O 	O 	0.8227	0.14019	0.17868	-0.402
Mof_O 	O 	0.65657	0.97884	0.28623	-0.295
Mof_O 	O 	0.27995	0.90366	0.59332	-0.67
Mof_O 	O 	0.23096	0.8391	0.47248	-0.439
Mof_O 	O 	0.04119	0.67113	0.85694	-0.479
Mof_O 	O 	0.17156	0.62863	0.95091	-0.434
Mof_O 	O 	0.95466	0.2701	0.23183	-0.485
Mof_O 	O 	0.04534	0.7299	0.76817	-0.485
Mof_O 	O 	0.36433	0.76275	0.65006	-0.49
Mof_O 	O 	0.3931	0.42919	0.54111	-0.255
Mof_O 	O 	0.36433	0.26275	0.84994	-0.49
Mof_O 	O 	0.83981	0.33603	0.31237	-0.464
Mof_O 	O 	0.16019	0.16397	0.81237	-0.464
Mof_O 	O 	0.45959	0.40281	0.9678	-0.459
Mof_O 	O 	0.95466	0.7701	0.26817	-0.485
Mof_O 	O 	0.1894	0.30226	0.59144	-0.45
Mof_O 	O 	0.17156	0.12863	0.54909	-0.433
Mof_O 	O 	0.26527	0.2914	0.28583	-0.254
Mof_O 	O 	0.3931	0.92919	0.95889	-0.254
Mof_O 	O 	0.76798	0.81469	0.30483	-0.526
Mof_O 	O 	0.54041	0.09719	0.4678	-0.459
Mof_O 	O 	0.8644	0.2683	0.39328	-0.529
Mof_O 	O 	0.83981	0.83603	0.18763	-0.464
Mof_O 	O 	0.64912	0.6743	0.92979	-0.347
Mof_O 	O 	0.52682	0.06696	0.37354	-0.434
Mof_O 	O 	0.64912	0.1743	0.57021	-0.347
Mof_O 	O 	0.1773	0.85981	0.82132	-0.402
Mof_O 	O 	0.34564	0.23467	0.94483	-0.468
Mof_O 	O 	0.47318	0.93304	0.62646	-0.434
Mof_O 	O 	0.1356	0.7317	0.60672	-0.529
Mof_O 	O 	0.82844	0.37137	0.04909	-0.434
Mof_O 	O 	0.34343	0.02116	0.71377	-0.295
Mof_O 	O 	0.35088	0.3257	0.07021	-0.347
Mof_O 	O 	0.1773	0.35981	0.67868	-0.402
Mof_O 	O 	0.21669	0.85045	0.7016	-0.639
Mof_O 	O 	0.82844	0.87137	0.45091	-0.433
Mof_O 	O 	0.1356	0.2317	0.89328	-0.529
Mof_O 	O 	0.78331	0.14955	0.2984	-0.639
Mof_O 	O 	0.8722	0.4883	0.55214	-0.263
Mof_O 	O 	0.78331	0.64955	0.2016	-0.639
Mof_O 	O 	0.1278	0.0117	0.05214	-0.26
Mof_O 	O 	0.63567	0.73725	0.15006	-0.49
Mof_O 	O 	0.23096	0.3391	0.02752	-0.438
Mof_O 	O 	0.47318	0.43304	0.87354	-0.434
Mof_O 	O 	0.95881	0.32887	0.14306	-0.479
Mof_O 	O 	0.6053	0.59177	0.2443	-0.404
Mof_O 	O 	0.8106	0.19774	0.09144	-0.45
Mof_O 	O 	0.8106	0.69774	0.40856	-0.45
Mof_O 	O 	0.8644	0.7683	0.10672	-0.529
Mof_O 	O 	0.27546	0.07342	0.59292	-0.3
Mof_O 	O 	0.6069	0.57081	0.45889	-0.255
Mof_O 	O 	0.1894	0.80226	0.90856	-0.45
Mof_O 	O 	0.19658	0.0393	0.34131	-0.262
Mof_O 	O 	0.63567	0.23725	0.34994	-0.49
Mof_O 	O 	0.72454	0.42658	0.09292	-0.3
Mof_O 	O 	0.76798	0.31469	0.19517	-0.526
Mof_O 	O 	0.73473	0.7086	0.71417	-0.254
Mof_O 	O 	0.6069	0.07081	0.04111	-0.254
Mof_O 	O 	0.76904	0.1609	0.52752	-0.439
Mof_O 	O 	0.8227	0.64019	0.32132	-0.402
Mof_O 	O 	0.1278	0.5117	0.44786	-0.263
Mof_O 	O 	0.3947	0.90823	0.7443	-0.404
Mof_O 	O 	0.72454	0.92658	0.40708	-0.3
Mof_O 	O 	0.26527	0.7914	0.21417	-0.254
Mof_O 	O 	0.52682	0.56696	0.12646	-0.434
Mof_O 	O 	0.54041	0.59719	0.0322	-0.459
Mof_O 	O 	0.65436	0.76533	0.05517	-0.468
Mof_O 	O 	0.80342	0.4607	0.84131	-0.263
Mof_O 	O 	0.8722	0.9883	0.94786	-0.26
Mof_O 	O 	0.95881	0.82887	0.35694	-0.479
Mof_O 	O 	0.80342	0.9607	0.65869	-0.262
Mof_O 	O 	0.65436	0.26533	0.44483	-0.468
Mof_O 	O 	0.3947	0.40823	0.7557	-0.404
Mof_O 	O 	0.72005	0.09634	0.40668	-0.67
Mof_O 	O 	0.23202	0.18531	0.69517	-0.526
Mof_O 	O 	0.27546	0.57342	0.90708	-0.3
Mof_O 	O 	0.72005	0.59634	0.09332	-0.67
_end
