data_functionalizedCrystal
_audit_creation_method	'EQeq! by Chris Wilmer'
_symmetry_space_group_name_H-M	'P1'
_symmetry_Int_Tables_number	1
_symmetry_cell_setting	triclinic
loop_
_symmetry_equiv_pos_as_xyz
  x,y,z
_cell_length_a	24.211
_cell_length_b	24.211
_cell_length_c	23.327
_cell_angle_alpha	90
_cell_angle_beta	90
_cell_angle_gamma	90
loop_
_atom_site_label
_atom_site_type_symbol
_atom_site_fract_x
_atom_site_fract_y
_atom_site_fract_z
_atom_site_charge
Mof_N 	N 	0.1711	0.8636	0.0048	-0.166
Mof_N 	N 	0.0788	0.7979	0.9953	-0.16
Mof_N 	N 	0.1815	0.9549	0.94	-0.164
Mof_N 	N 	0.1816	0.0072	0.9138	-0.099
Mof_C 	C 	0.1689	0.8167	0.031	0.029
Mof_H 	H 	0.1989	0.805	0.0527	0.01
Mof_C 	C 	0.1209	0.7825	0.027	-0.019
Mof_H 	H 	0.1194	0.7493	0.0469	0.049
Mof_C 	C 	0.0833	0.845	0.9682	0.044
Mof_H 	H 	0.0539	0.8564	0.9455	-0.007
Mof_C 	C 	0.1289	0.8785	0.9714	-0.036
Mof_C 	C 	0.1328	0.9307	0.94	0.235
Mof_C 	C 	0.0825	0.9554	0.9122	-0.739
Mof_H 	H 	0.0925	0.9893	0.8935	0.271
Mof_H 	H 	0.0551	0.9627	0.9409	0.255
Mof_H 	H 	0.0679	0.93	0.8845	0.24
Mof_C 	C 	0.2245	0.0168	0.8821	-0.008
Mof_C 	C 	0.2304	0.0731	0.8571	0.038
Mof_C 	C 	0.27	0.0824	0.8179	-0.098
Mof_H 	H 	0.2931	0.0541	0.8056	0.059
Mof_C 	C 	0.2755	0.1355	0.7964	-0.004
Mof_H 	H 	0.3034	0.1437	0.7703	0.052
Mof_C 	C 	0.2398	0.1756	0.8138	-0.068
Mof_H 	H 	0.2435	0.2108	0.7982	0.053
Mof_C 	C 	0.198	0.1663	0.8537	0.005
Mof_H 	H 	0.1744	0.1944	0.8654	0.056
Mof_C 	C 	0.1935	0.1143	0.8748	-0.096
Mof_H 	H 	0.1659	0.106	0.9011	0.088
Mof_N 	N 	0.9574	0.8611	0.0657	0.119
Mof_O 	O 	0.9547	0.9115	0.0609	-0.062
Mof_O 	O 	0.9969	0.8409	0.0911	-0.115
Mof_O 	O 	0.931	0.8324	0.0325	-0.102
Mof_O 	O 	0.9414	0.903	0.0906	-0.092
Mof_O 	O 	0.9518	0.8165	0.0903	-0.173
Mof_O 	O 	0.9605	0.8616	0.0133	-0.109
Mof_N 	N 	0.6711	0.3636	0.5048	-0.152
Mof_N 	N 	0.5788	0.2979	0.4953	-0.179
Mof_N 	N 	0.6815	0.4549	0.44	-0.181
Mof_N 	N 	0.6816	0.5072	0.4138	-0.096
Mof_C 	C 	0.6689	0.3167	0.531	0.019
Mof_H 	H 	0.6989	0.305	0.5527	0.015
Mof_C 	C 	0.6209	0.2825	0.527	0.013
Mof_H 	H 	0.6194	0.2493	0.5469	0.039
Mof_C 	C 	0.5833	0.345	0.4682	0.053
Mof_H 	H 	0.5539	0.3564	0.4455	-0.005
Mof_C 	C 	0.6289	0.3785	0.4714	-0.061
Mof_C 	C 	0.6328	0.4307	0.44	0.238
Mof_C 	C 	0.5825	0.4554	0.4122	-0.754
Mof_H 	H 	0.5925	0.4893	0.3935	0.268
Mof_H 	H 	0.5551	0.4627	0.4409	0.262
Mof_H 	H 	0.5679	0.43	0.3845	0.247
Mof_C 	C 	0.7245	0.5168	0.3821	0.009
Mof_C 	C 	0.7304	0.5731	0.3571	0.03
Mof_C 	C 	0.77	0.5824	0.3179	-0.093
Mof_H 	H 	0.7931	0.5541	0.3056	0.063
Mof_C 	C 	0.7755	0.6355	0.2964	-0.008
Mof_H 	H 	0.8034	0.6437	0.2703	0.055
Mof_C 	C 	0.7398	0.6756	0.3138	-0.065
Mof_H 	H 	0.7435	0.7108	0.2982	0.052
Mof_C 	C 	0.698	0.6663	0.3537	-0.001
Mof_H 	H 	0.6744	0.6944	0.3654	0.057
Mof_C 	C 	0.6935	0.6143	0.3748	-0.091
Mof_H 	H 	0.6659	0.606	0.4011	0.085
Mof_N 	N 	0.4574	0.3611	0.5657	0.132
Mof_O 	O 	0.4547	0.4115	0.5609	-0.077
Mof_O 	O 	0.4969	0.3409	0.5911	-0.163
Mof_O 	O 	0.431	0.3324	0.5325	-0.104
Mof_O 	O 	0.4414	0.403	0.5906	-0.096
Mof_O 	O 	0.4518	0.3165	0.5903	-0.197
Mof_O 	O 	0.4605	0.3616	0.5133	-0.127
Mof_N 	N 	0.3289	0.1364	0.5048	-0.152
Mof_N 	N 	0.4212	0.2021	0.4953	-0.179
Mof_N 	N 	0.3185	0.0451	0.44	-0.186
Mof_N 	N 	0.3184	0.9928	0.4138	-0.089
Mof_C 	C 	0.3311	0.1833	0.531	0.019
Mof_H 	H 	0.3011	0.195	0.5527	0.015
Mof_C 	C 	0.3791	0.2175	0.527	0.013
Mof_H 	H 	0.3806	0.2507	0.5469	0.039
Mof_C 	C 	0.4167	0.155	0.4682	0.052
Mof_H 	H 	0.4461	0.1436	0.4455	-0.005
Mof_C 	C 	0.3711	0.1215	0.4714	-0.059
Mof_C 	C 	0.3672	0.0693	0.44	0.231
Mof_C 	C 	0.4175	0.0446	0.4122	-0.736
Mof_H 	H 	0.4075	0.0107	0.3935	0.255
Mof_H 	H 	0.4449	0.0373	0.4409	0.252
Mof_H 	H 	0.4321	0.07	0.3845	0.24
Mof_C 	C 	0.2755	0.9832	0.3821	0.03
Mof_C 	C 	0.2696	0.9269	0.3571	0.025
Mof_C 	C 	0.23	0.9176	0.3179	-0.088
Mof_H 	H 	0.2069	0.9459	0.3056	0.063
Mof_C 	C 	0.2245	0.8645	0.2964	-0.014
Mof_H 	H 	0.1966	0.8563	0.2703	0.054
Mof_C 	C 	0.2602	0.8244	0.3138	-0.061
Mof_H 	H 	0.2565	0.7892	0.2982	0.05
Mof_C 	C 	0.302	0.8337	0.3537	-0.005
Mof_H 	H 	0.3256	0.8056	0.3654	0.059
Mof_C 	C 	0.3065	0.8857	0.3748	-0.085
Mof_H 	H 	0.3341	0.894	0.4011	0.084
Mof_N 	N 	0.5426	0.1389	0.5657	0.133
Mof_O 	O 	0.5453	0.0885	0.5609	-0.081
Mof_O 	O 	0.5031	0.1591	0.5911	-0.163
Mof_O 	O 	0.569	0.1676	0.5325	-0.104
Mof_O 	O 	0.5586	0.097	0.5906	-0.097
Mof_O 	O 	0.5482	0.1835	0.5903	-0.197
Mof_O 	O 	0.5395	0.1384	0.5133	-0.128
Mof_N 	N 	0.8289	0.6364	0.0048	-0.166
Mof_N 	N 	0.9212	0.7021	0.9953	-0.139
Mof_N 	N 	0.8185	0.5451	0.94	-0.175
Mof_N 	N 	0.8184	0.4928	0.9138	-0.094
Mof_C 	C 	0.8311	0.6833	0.031	0.03
Mof_H 	H 	0.8011	0.695	0.0527	0.009
Mof_C 	C 	0.8791	0.7175	0.027	-0.014
Mof_H 	H 	0.8806	0.7507	0.0469	0.053
Mof_C 	C 	0.9167	0.655	0.9682	0.051
Mof_H 	H 	0.9461	0.6436	0.9455	0.018
Mof_C 	C 	0.8711	0.6215	0.9714	-0.038
Mof_C 	C 	0.8672	0.5693	0.94	0.249
Mof_C 	C 	0.9175	0.5446	0.9122	-0.795
Mof_H 	H 	0.9075	0.5107	0.8935	0.284
Mof_H 	H 	0.9449	0.5373	0.9409	0.292
Mof_H 	H 	0.9321	0.57	0.8845	0.269
Mof_C 	C 	0.7755	0.4832	0.8821	0.011
Mof_C 	C 	0.7696	0.4269	0.8571	0.031
Mof_C 	C 	0.73	0.4176	0.8179	-0.093
Mof_H 	H 	0.7069	0.4459	0.8056	0.06
Mof_C 	C 	0.7245	0.3645	0.7964	-0.01
Mof_H 	H 	0.6966	0.3563	0.7703	0.053
Mof_C 	C 	0.7602	0.3244	0.8138	-0.065
Mof_H 	H 	0.7565	0.2892	0.7982	0.051
Mof_C 	C 	0.802	0.3337	0.8537	-0
Mof_H 	H 	0.8256	0.3056	0.8654	0.058
Mof_C 	C 	0.8065	0.3857	0.8748	-0.09
Mof_H 	H 	0.8341	0.394	0.9011	0.087
Mof_N 	N 	0.0426	0.6389	0.0657	0.137
Mof_O 	O 	0.0453	0.5885	0.0609	-0.099
Mof_O 	O 	0.0031	0.6591	0.0911	-0.192
Mof_O 	O 	0.069	0.6676	0.0325	-0.106
Mof_O 	O 	0.0586	0.597	0.0906	-0.093
Mof_O 	O 	0.0482	0.6835	0.0903	-0.185
Mof_O 	O 	0.0395	0.6384	0.0133	-0.152
Mof_N 	N 	0.3864	0.9211	0.2548	-0.146
Mof_N 	N 	0.4521	0.8288	0.2453	-0.179
Mof_N 	N 	0.2951	0.9315	0.19	-0.174
Mof_N 	N 	0.2428	0.9316	0.1638	-0.098
Mof_C 	C 	0.4333	0.9189	0.281	0.018
Mof_H 	H 	0.445	0.9489	0.3027	0.021
Mof_C 	C 	0.4675	0.8709	0.277	0.015
Mof_H 	H 	0.5007	0.8694	0.2969	0.039
Mof_C 	C 	0.405	0.8333	0.2182	0.054
Mof_H 	H 	0.3936	0.8039	0.1955	-0.005
Mof_C 	C 	0.3715	0.8789	0.2214	-0.06
Mof_C 	C 	0.3193	0.8828	0.19	0.238
Mof_C 	C 	0.2946	0.8325	0.1622	-0.752
Mof_H 	H 	0.2607	0.8425	0.1435	0.267
Mof_H 	H 	0.2873	0.8051	0.1909	0.261
Mof_H 	H 	0.32	0.8179	0.1345	0.245
Mof_C 	C 	0.2332	0.9745	0.1321	0.028
Mof_C 	C 	0.1769	0.9804	0.1071	0.035
Mof_C 	C 	0.1676	0.02	0.0679	-0.098
Mof_H 	H 	0.1959	0.0431	0.0556	0.055
Mof_C 	C 	0.1145	0.0255	0.0464	-0.059
Mof_H 	H 	0.1063	0.0534	0.0203	0.056
Mof_C 	C 	0.0744	0.9898	0.0638	-0.021
Mof_H 	H 	0.0392	0.9935	0.0482	0.018
Mof_C 	C 	0.0837	0.948	0.1037	-0.031
Mof_H 	H 	0.0556	0.9244	0.1154	0.052
Mof_C 	C 	0.1357	0.9435	0.1248	-0.079
Mof_H 	H 	0.144	0.9159	0.1511	0.079
Mof_N 	N 	0.3889	0.7074	0.3157	0.132
Mof_O 	O 	0.3385	0.7047	0.3109	-0.077
Mof_O 	O 	0.4091	0.7469	0.3411	-0.163
Mof_O 	O 	0.4176	0.681	0.2825	-0.104
Mof_O 	O 	0.347	0.6914	0.3406	-0.096
Mof_O 	O 	0.4335	0.7018	0.3403	-0.197
Mof_O 	O 	0.3884	0.7105	0.2633	-0.127
Mof_N 	N 	0.8864	0.4211	0.7548	-0.138
Mof_N 	N 	0.9521	0.3288	0.7453	-0.179
Mof_N 	N 	0.7951	0.4315	0.69	-0.182
Mof_N 	N 	0.7428	0.4316	0.6638	-0.096
Mof_C 	C 	0.9333	0.4189	0.781	-0.041
Mof_H 	H 	0.945	0.4489	0.8027	0.048
Mof_C 	C 	0.9675	0.3709	0.777	0.158
Mof_H 	H 	0.0007	0.3694	0.7969	-0.054
Mof_C 	C 	0.905	0.3333	0.7182	0.062
Mof_H 	H 	0.8936	0.3039	0.6955	0.002
Mof_C 	C 	0.8715	0.3789	0.7214	-0.067
Mof_C 	C 	0.8193	0.3828	0.69	0.242
Mof_C 	C 	0.7946	0.3325	0.6622	-0.762
Mof_H 	H 	0.7607	0.3425	0.6435	0.27
Mof_H 	H 	0.7873	0.3051	0.6909	0.265
Mof_H 	H 	0.82	0.3179	0.6345	0.252
Mof_C 	C 	0.7332	0.4745	0.6321	0.009
Mof_C 	C 	0.6769	0.4804	0.6071	0.03
Mof_C 	C 	0.6676	0.52	0.5679	-0.093
Mof_H 	H 	0.6959	0.5431	0.5556	0.061
Mof_C 	C 	0.6145	0.5255	0.5464	-0.01
Mof_H 	H 	0.6063	0.5534	0.5203	0.053
Mof_C 	C 	0.5744	0.4898	0.5638	-0.065
Mof_H 	H 	0.5392	0.4935	0.5482	0.051
Mof_C 	C 	0.5837	0.448	0.6037	-0.002
Mof_H 	H 	0.5556	0.4244	0.6154	0.057
Mof_C 	C 	0.6357	0.4435	0.6248	-0.091
Mof_H 	H 	0.644	0.4159	0.6511	0.085
Mof_N 	N 	0.8889	0.2074	0.8157	0.121
Mof_O 	O 	0.8385	0.2047	0.8109	-0.077
Mof_O 	O 	0.9091	0.2469	0.8411	-0.145
Mof_O 	O 	0.9176	0.181	0.7825	-0.09
Mof_O 	O 	0.847	0.1914	0.8406	-0.092
Mof_O 	O 	0.9335	0.2018	0.8403	-0.162
Mof_O 	O 	0.8884	0.2105	0.7633	-0.115
Mof_N 	N 	0.1136	0.0789	0.7548	-0.166
Mof_N 	N 	0.0479	0.1712	0.7453	-0.15
Mof_N 	N 	0.2049	0.0685	0.69	-0.18
Mof_N 	N 	0.2572	0.0684	0.6638	-0.094
Mof_C 	C 	0.0667	0.0811	0.781	0.082
Mof_H 	H 	0.055	0.0511	0.8027	-0.022
Mof_C 	C 	0.0325	0.1291	0.777	-0.133
Mof_H 	H 	0.9993	0.1306	0.7969	0.141
Mof_C 	C 	0.095	0.1667	0.7182	0.041
Mof_H 	H 	0.1064	0.1961	0.6955	-0.001
Mof_C 	C 	0.1285	0.1211	0.7214	-0.052
Mof_C 	C 	0.1807	0.1172	0.69	0.235
Mof_C 	C 	0.2054	0.1675	0.6622	-0.751
Mof_H 	H 	0.2393	0.1575	0.6435	0.267
Mof_H 	H 	0.2127	0.1949	0.6909	0.261
Mof_H 	H 	0.18	0.1821	0.6345	0.246
Mof_C 	C 	0.2668	0.0255	0.6321	-0.008
Mof_C 	C 	0.3231	0.0196	0.6071	0.021
Mof_C 	C 	0.3324	0.98	0.5679	-0.086
Mof_H 	H 	0.3041	0.9569	0.5556	0.061
Mof_C 	C 	0.3855	0.9745	0.5464	0.029
Mof_H 	H 	0.3937	0.9466	0.5203	0.043
Mof_C 	C 	0.4256	0.0102	0.5638	-0.109
Mof_H 	H 	0.4608	0.0065	0.5482	0.06
Mof_C 	C 	0.4163	0.052	0.6037	0.019
Mof_H 	H 	0.4444	0.0756	0.6154	0.049
Mof_C 	C 	0.3643	0.0565	0.6248	-0.102
Mof_H 	H 	0.356	0.0841	0.6511	0.088
Mof_N 	N 	0.1111	0.2926	0.8157	0.131
Mof_O 	O 	0.1615	0.2953	0.8109	-0.076
Mof_O 	O 	0.0909	0.2531	0.8411	-0.155
Mof_O 	O 	0.0824	0.319	0.7825	-0.106
Mof_O 	O 	0.153	0.3086	0.8406	-0.096
Mof_O 	O 	0.0665	0.2982	0.8403	-0.195
Mof_O 	O 	0.1116	0.2895	0.7633	-0.125
Mof_N 	N 	0.6136	0.5789	0.2548	-0.152
Mof_N 	N 	0.5479	0.6712	0.2453	-0.179
Mof_N 	N 	0.7049	0.5685	0.19	-0.18
Mof_N 	N 	0.7572	0.5684	0.1638	-0.095
Mof_C 	C 	0.5667	0.5811	0.281	0.019
Mof_H 	H 	0.555	0.5511	0.3027	0.015
Mof_C 	C 	0.5325	0.6291	0.277	0.013
Mof_H 	H 	0.4993	0.6306	0.2969	0.039
Mof_C 	C 	0.595	0.6667	0.2182	0.053
Mof_H 	H 	0.6064	0.6961	0.1955	-0.005
Mof_C 	C 	0.6285	0.6211	0.2214	-0.061
Mof_C 	C 	0.6807	0.6172	0.19	0.237
Mof_C 	C 	0.7054	0.6675	0.1622	-0.752
Mof_H 	H 	0.7393	0.6575	0.1435	0.267
Mof_H 	H 	0.7127	0.6949	0.1909	0.261
Mof_H 	H 	0.68	0.6821	0.1345	0.245
Mof_C 	C 	0.7668	0.5255	0.1321	0.009
Mof_C 	C 	0.8231	0.5196	0.1071	0.034
Mof_C 	C 	0.8324	0.48	0.0679	-0.099
Mof_H 	H 	0.8041	0.4569	0.0556	0.06
Mof_C 	C 	0.8855	0.4745	0.0464	-0.001
Mof_H 	H 	0.8937	0.4466	0.0203	0.046
Mof_C 	C 	0.9256	0.5102	0.0638	-0.07
Mof_H 	H 	0.9608	0.5065	0.0482	0.069
Mof_C 	C 	0.9163	0.552	0.1037	0.007
Mof_H 	H 	0.9444	0.5756	0.1154	0.071
Mof_C 	C 	0.8643	0.5565	0.1248	-0.092
Mof_H 	H 	0.856	0.5841	0.1511	0.088
Mof_N 	N 	0.6111	0.7926	0.3157	0.132
Mof_O 	O 	0.6615	0.7953	0.3109	-0.077
Mof_O 	O 	0.5909	0.7531	0.3411	-0.163
Mof_O 	O 	0.5824	0.819	0.2825	-0.103
Mof_O 	O 	0.653	0.8086	0.3406	-0.096
Mof_O 	O 	0.5665	0.7982	0.3403	-0.197
Mof_O 	O 	0.6116	0.7895	0.2633	-0.127
Mof_N 	N 	0.3289	0.8636	0.9952	-0.131
Mof_N 	N 	0.4212	0.7979	0.0047	-0.195
Mof_N 	N 	0.3185	0.9549	0.06	-0.177
Mof_N 	N 	0.3184	0.0072	0.0862	-0.104
Mof_C 	C 	0.3311	0.8167	0.969	0.01
Mof_H 	H 	0.3011	0.805	0.9473	0.022
Mof_C 	C 	0.3791	0.7825	0.973	0.045
Mof_H 	H 	0.3806	0.7493	0.9531	0.032
Mof_C 	C 	0.4167	0.845	0.0318	0.06
Mof_H 	H 	0.4461	0.8564	0.0545	-0.009
Mof_C 	C 	0.3711	0.8785	0.0286	-0.086
Mof_C 	C 	0.3672	0.9307	0.06	0.249
Mof_C 	C 	0.4175	0.9554	0.0878	-0.775
Mof_H 	H 	0.4075	0.9893	0.1065	0.282
Mof_H 	H 	0.4449	0.9627	0.0591	0.269
Mof_H 	H 	0.4321	0.93	0.1155	0.256
Mof_C 	C 	0.2755	0.0168	0.1179	-0.01
Mof_C 	C 	0.2696	0.0731	0.1429	0.034
Mof_C 	C 	0.23	0.0824	0.1821	-0.097
Mof_H 	H 	0.2069	0.0541	0.1944	0.056
Mof_C 	C 	0.2245	0.1355	0.2036	-0.009
Mof_H 	H 	0.1966	0.1437	0.2297	0.051
Mof_C 	C 	0.2602	0.1756	0.1862	-0.068
Mof_H 	H 	0.2565	0.2108	0.2018	0.052
Mof_C 	C 	0.302	0.1663	0.1463	0
Mof_H 	H 	0.3256	0.1944	0.1346	0.056
Mof_C 	C 	0.3065	0.1143	0.1252	-0.095
Mof_H 	H 	0.3341	0.106	0.0989	0.083
Mof_N 	N 	0.5426	0.8611	0.9343	0.128
Mof_O 	O 	0.5453	0.9115	0.9391	-0.067
Mof_O 	O 	0.5031	0.8409	0.9089	-0.159
Mof_O 	O 	0.569	0.8324	0.9675	-0.097
Mof_O 	O 	0.5586	0.903	0.9094	-0.096
Mof_O 	O 	0.5482	0.8165	0.9097	-0.195
Mof_O 	O 	0.5395	0.8616	0.9867	-0.115
Mof_N 	N 	0.8289	0.3636	0.4952	-0.152
Mof_N 	N 	0.9212	0.2979	0.5047	-0.154
Mof_N 	N 	0.8185	0.4549	0.56	-0.183
Mof_N 	N 	0.8184	0.5072	0.5862	-0.096
Mof_C 	C 	0.8311	0.3167	0.469	0.022
Mof_H 	H 	0.8011	0.305	0.4473	0.014
Mof_C 	C 	0.8791	0.2825	0.473	0.015
Mof_H 	H 	0.8806	0.2493	0.4531	0.047
Mof_C 	C 	0.9167	0.345	0.5318	0.056
Mof_H 	H 	0.9461	0.3564	0.5545	0.014
Mof_C 	C 	0.8711	0.3785	0.5286	-0.061
Mof_C 	C 	0.8672	0.4307	0.56	0.25
Mof_C 	C 	0.9175	0.4554	0.5878	-0.795
Mof_H 	H 	0.9075	0.4893	0.6065	0.283
Mof_H 	H 	0.9449	0.4627	0.5591	0.288
Mof_H 	H 	0.9321	0.43	0.6155	0.269
Mof_C 	C 	0.7755	0.5168	0.6179	0.009
Mof_C 	C 	0.7696	0.5731	0.6429	0.029
Mof_C 	C 	0.73	0.5824	0.6821	-0.093
Mof_H 	H 	0.7069	0.5541	0.6944	0.06
Mof_C 	C 	0.7245	0.6355	0.7036	-0.011
Mof_H 	H 	0.6966	0.6437	0.7297	0.053
Mof_C 	C 	0.7602	0.6756	0.6862	-0.065
Mof_H 	H 	0.7565	0.7108	0.7018	0.051
Mof_C 	C 	0.802	0.6663	0.6463	-0.002
Mof_H 	H 	0.8256	0.6944	0.6346	0.058
Mof_C 	C 	0.8065	0.6143	0.6252	-0.09
Mof_H 	H 	0.8341	0.606	0.5989	0.085
Mof_N 	N 	0.0426	0.3611	0.4343	0.135
Mof_O 	O 	0.0453	0.4115	0.4391	-0.093
Mof_O 	O 	0.0031	0.3409	0.4089	-0.189
Mof_O 	O 	0.069	0.3324	0.4675	-0.1
Mof_O 	O 	0.0586	0.403	0.4094	-0.095
Mof_O 	O 	0.0482	0.3165	0.4097	-0.184
Mof_O 	O 	0.0395	0.3616	0.4867	-0.141
Mof_N 	N 	0.1711	0.1364	0.4952	-0.153
Mof_N 	N 	0.0788	0.2021	0.5047	-0.175
Mof_N 	N 	0.1815	0.0451	0.56	-0.184
Mof_N 	N 	0.1816	0.9928	0.5862	-0.089
Mof_C 	C 	0.1689	0.1833	0.469	0.02
Mof_H 	H 	0.1989	0.195	0.4473	0.015
Mof_C 	C 	0.1209	0.2175	0.473	0.009
Mof_H 	H 	0.1194	0.2507	0.4531	0.042
Mof_C 	C 	0.0833	0.155	0.5318	0.046
Mof_H 	H 	0.0539	0.1436	0.5545	-0.012
Mof_C 	C 	0.1289	0.1215	0.5286	-0.056
Mof_C 	C 	0.1328	0.0693	0.56	0.219
Mof_C 	C 	0.0825	0.0446	0.5878	-0.701
Mof_H 	H 	0.0925	0.0107	0.6065	0.241
Mof_H 	H 	0.0551	0.0373	0.5591	0.229
Mof_H 	H 	0.0679	0.07	0.6155	0.222
Mof_C 	C 	0.2245	0.9832	0.6179	0.03
Mof_C 	C 	0.2304	0.9269	0.6429	0.026
Mof_C 	C 	0.27	0.9176	0.6821	-0.087
Mof_H 	H 	0.2931	0.9459	0.6944	0.065
Mof_C 	C 	0.2755	0.8645	0.7036	-0.013
Mof_H 	H 	0.3034	0.8563	0.7297	0.055
Mof_C 	C 	0.2398	0.8244	0.6862	-0.061
Mof_H 	H 	0.2435	0.7892	0.7018	0.05
Mof_C 	C 	0.198	0.8337	0.6463	-0.005
Mof_H 	H 	0.1744	0.8056	0.6346	0.059
Mof_C 	C 	0.1935	0.8857	0.6252	-0.085
Mof_H 	H 	0.1659	0.894	0.5989	0.084
Mof_N 	N 	0.9574	0.1389	0.4343	0.118
Mof_O 	O 	0.9547	0.0885	0.4391	-0.063
Mof_O 	O 	0.9969	0.1591	0.4089	-0.112
Mof_O 	O 	0.931	0.1676	0.4675	-0.096
Mof_O 	O 	0.9414	0.097	0.4094	-0.096
Mof_O 	O 	0.9518	0.1835	0.4097	-0.172
Mof_O 	O 	0.9605	0.1384	0.4867	-0.1
Mof_N 	N 	0.6711	0.6364	0.9952	-0.131
Mof_N 	N 	0.5788	0.7021	0.0047	-0.194
Mof_N 	N 	0.6815	0.5451	0.06	-0.182
Mof_N 	N 	0.6816	0.4928	0.0862	-0.098
Mof_C 	C 	0.6689	0.6833	0.969	0.009
Mof_H 	H 	0.6989	0.695	0.9473	0.023
Mof_C 	C 	0.6209	0.7175	0.973	0.045
Mof_H 	H 	0.6194	0.7507	0.9531	0.032
Mof_C 	C 	0.5833	0.655	0.0318	0.059
Mof_H 	H 	0.5539	0.6436	0.0545	-0.009
Mof_C 	C 	0.6289	0.6215	0.0286	-0.084
Mof_C 	C 	0.6328	0.5693	0.06	0.24
Mof_C 	C 	0.5825	0.5446	0.0878	-0.754
Mof_H 	H 	0.5925	0.5107	0.1065	0.267
Mof_H 	H 	0.5551	0.5373	0.0591	0.258
Mof_H 	H 	0.5679	0.57	0.1155	0.247
Mof_C 	C 	0.7245	0.4832	0.1179	0.009
Mof_C 	C 	0.7304	0.4269	0.1429	0.029
Mof_C 	C 	0.77	0.4176	0.1821	-0.092
Mof_H 	H 	0.7931	0.4459	0.1944	0.063
Mof_C 	C 	0.7755	0.3645	0.2036	-0.01
Mof_H 	H 	0.8034	0.3563	0.2297	0.055
Mof_C 	C 	0.7398	0.3244	0.1862	-0.064
Mof_H 	H 	0.7435	0.2892	0.2018	0.051
Mof_C 	C 	0.698	0.3337	0.1463	-0.003
Mof_H 	H 	0.6744	0.3056	0.1346	0.057
Mof_C 	C 	0.6935	0.3857	0.1252	-0.09
Mof_H 	H 	0.6659	0.394	0.0989	0.082
Mof_N 	N 	0.4574	0.6389	0.9343	0.129
Mof_O 	O 	0.4547	0.5885	0.9391	-0.07
Mof_O 	O 	0.4969	0.6591	0.9089	-0.159
Mof_O 	O 	0.431	0.6676	0.9675	-0.097
Mof_O 	O 	0.4414	0.597	0.9094	-0.098
Mof_O 	O 	0.4518	0.6835	0.9097	-0.195
Mof_O 	O 	0.4605	0.6384	0.9867	-0.116
Mof_N 	N 	0.1136	0.9211	0.7452	-0.16
Mof_N 	N 	0.0479	0.8288	0.7547	-0.15
Mof_N 	N 	0.2049	0.9315	0.81	-0.173
Mof_N 	N 	0.2572	0.9316	0.8362	-0.097
Mof_C 	C 	0.0667	0.9189	0.719	0.082
Mof_H 	H 	0.055	0.9489	0.6973	-0.013
Mof_C 	C 	0.0325	0.8709	0.723	-0.13
Mof_H 	H 	0.9993	0.8694	0.7031	0.142
Mof_C 	C 	0.095	0.8333	0.7818	0.042
Mof_H 	H 	0.1064	0.8039	0.8045	-0.001
Mof_C 	C 	0.1285	0.8789	0.7786	-0.051
Mof_C 	C 	0.1807	0.8828	0.81	0.237
Mof_C 	C 	0.2054	0.8325	0.8378	-0.755
Mof_H 	H 	0.2393	0.8425	0.8565	0.27
Mof_H 	H 	0.2127	0.8051	0.8091	0.263
Mof_H 	H 	0.18	0.8179	0.8655	0.249
Mof_C 	C 	0.2668	0.9745	0.8679	0.029
Mof_C 	C 	0.3231	0.9804	0.8929	0.041
Mof_C 	C 	0.3324	0.02	0.9321	-0.097
Mof_H 	H 	0.3041	0.0431	0.9444	0.064
Mof_C 	C 	0.3855	0.0255	0.9536	-0.048
Mof_H 	H 	0.3937	0.0534	0.9797	0.071
Mof_C 	C 	0.4256	0.9898	0.9362	-0.018
Mof_H 	H 	0.4608	0.9935	0.9518	0.046
Mof_C 	C 	0.4163	0.948	0.8963	-0.021
Mof_H 	H 	0.4444	0.9244	0.8846	0.067
Mof_C 	C 	0.3643	0.9435	0.8752	-0.078
Mof_H 	H 	0.356	0.9159	0.8489	0.082
Mof_N 	N 	0.1111	0.7074	0.6843	0.131
Mof_O 	O 	0.1615	0.7047	0.6891	-0.076
Mof_O 	O 	0.0909	0.7469	0.6589	-0.155
Mof_O 	O 	0.0824	0.681	0.7175	-0.106
Mof_O 	O 	0.153	0.6914	0.6594	-0.097
Mof_O 	O 	0.0665	0.7018	0.6597	-0.194
Mof_O 	O 	0.1116	0.7105	0.7367	-0.125
Mof_N 	N 	0.6136	0.4211	0.2452	-0.152
Mof_N 	N 	0.5479	0.3288	0.2547	-0.179
Mof_N 	N 	0.7049	0.4315	0.31	-0.181
Mof_N 	N 	0.7572	0.4316	0.3362	-0.096
Mof_C 	C 	0.5667	0.4189	0.219	0.019
Mof_H 	H 	0.555	0.4489	0.1973	0.015
Mof_C 	C 	0.5325	0.3709	0.223	0.013
Mof_H 	H 	0.4993	0.3694	0.2031	0.039
Mof_C 	C 	0.595	0.3333	0.2818	0.053
Mof_H 	H 	0.6064	0.3039	0.3045	-0.005
Mof_C 	C 	0.6285	0.3789	0.2786	-0.061
Mof_C 	C 	0.6807	0.3828	0.31	0.238
Mof_C 	C 	0.7054	0.3325	0.3378	-0.754
Mof_H 	H 	0.7393	0.3425	0.3565	0.268
Mof_H 	H 	0.7127	0.3051	0.3091	0.262
Mof_H 	H 	0.68	0.3179	0.3655	0.247
Mof_C 	C 	0.7668	0.4745	0.3679	0.009
Mof_C 	C 	0.8231	0.4804	0.3929	0.034
Mof_C 	C 	0.8324	0.52	0.4321	-0.096
Mof_H 	H 	0.8041	0.5431	0.4444	0.063
Mof_C 	C 	0.8855	0.5255	0.4536	-0
Mof_H 	H 	0.8937	0.5534	0.4797	0.054
Mof_C 	C 	0.9256	0.4898	0.4362	-0.067
Mof_H 	H 	0.9608	0.4935	0.4518	0.073
Mof_C 	C 	0.9163	0.448	0.3963	0.007
Mof_H 	H 	0.9444	0.4244	0.3846	0.072
Mof_C 	C 	0.8643	0.4435	0.3752	-0.091
Mof_H 	H 	0.856	0.4159	0.3489	0.087
Mof_N 	N 	0.6111	0.2074	0.1843	0.132
Mof_O 	O 	0.6615	0.2047	0.1891	-0.077
Mof_O 	O 	0.5909	0.2469	0.1589	-0.162
Mof_O 	O 	0.5824	0.181	0.2175	-0.105
Mof_O 	O 	0.653	0.1914	0.1594	-0.096
Mof_O 	O 	0.5665	0.2018	0.1597	-0.196
Mof_O 	O 	0.6116	0.2105	0.2367	-0.127
Mof_N 	N 	0.3864	0.0789	0.2452	-0.151
Mof_N 	N 	0.4521	0.1712	0.2547	-0.179
Mof_N 	N 	0.2951	0.0685	0.31	-0.181
Mof_N 	N 	0.2428	0.0684	0.3362	-0.094
Mof_C 	C 	0.4333	0.0811	0.219	0.019
Mof_H 	H 	0.445	0.0511	0.1973	0.011
Mof_C 	C 	0.4675	0.1291	0.223	0.012
Mof_H 	H 	0.5007	0.1306	0.2031	0.039
Mof_C 	C 	0.405	0.1667	0.2818	0.053
Mof_H 	H 	0.3936	0.1961	0.3045	-0.005
Mof_C 	C 	0.3715	0.1211	0.2786	-0.061
Mof_C 	C 	0.3193	0.1172	0.31	0.238
Mof_C 	C 	0.2946	0.1675	0.3378	-0.755
Mof_H 	H 	0.2607	0.1575	0.3565	0.268
Mof_H 	H 	0.2873	0.1949	0.3091	0.263
Mof_H 	H 	0.32	0.1821	0.3655	0.248
Mof_C 	C 	0.2332	0.0255	0.3679	-0.007
Mof_C 	C 	0.1769	0.0196	0.3929	0.017
Mof_C 	C 	0.1676	0.98	0.4321	-0.082
Mof_H 	H 	0.1959	0.9569	0.4444	0.059
Mof_C 	C 	0.1145	0.9745	0.4536	0.019
Mof_H 	H 	0.1063	0.9466	0.4797	0.043
Mof_C 	C 	0.0744	0.0102	0.4362	-0.105
Mof_H 	H 	0.0392	0.0065	0.4518	0.039
Mof_C 	C 	0.0837	0.052	0.3963	0.01
Mof_H 	H 	0.0556	0.0756	0.3846	0.035
Mof_C 	C 	0.1357	0.0565	0.3752	-0.101
Mof_H 	H 	0.144	0.0841	0.3489	0.085
Mof_N 	N 	0.3889	0.2926	0.1843	0.132
Mof_O 	O 	0.3385	0.2953	0.1891	-0.077
Mof_O 	O 	0.4091	0.2531	0.1589	-0.162
Mof_O 	O 	0.4176	0.319	0.2175	-0.104
Mof_O 	O 	0.347	0.3086	0.1594	-0.096
Mof_O 	O 	0.4335	0.2982	0.1597	-0.196
Mof_O 	O 	0.3884	0.2895	0.2367	-0.127
Mof_N 	N 	0.8864	0.5789	0.7452	-0.138
Mof_N 	N 	0.9521	0.6712	0.7547	-0.18
Mof_N 	N 	0.7951	0.5685	0.81	-0.182
Mof_N 	N 	0.7428	0.5684	0.8362	-0.096
Mof_C 	C 	0.9333	0.5811	0.719	-0.041
Mof_H 	H 	0.945	0.5511	0.6973	0.048
Mof_C 	C 	0.9675	0.6291	0.723	0.158
Mof_H 	H 	0.0007	0.6306	0.7031	-0.054
Mof_C 	C 	0.905	0.6667	0.7818	0.062
Mof_H 	H 	0.8936	0.6961	0.8045	0.003
Mof_C 	C 	0.8715	0.6211	0.7786	-0.068
Mof_C 	C 	0.8193	0.6172	0.81	0.244
Mof_C 	C 	0.7946	0.6675	0.8378	-0.768
Mof_H 	H 	0.7607	0.6575	0.8565	0.274
Mof_H 	H 	0.7873	0.6949	0.8091	0.268
Mof_H 	H 	0.82	0.6821	0.8655	0.256
Mof_C 	C 	0.7332	0.5255	0.8679	0.011
Mof_C 	C 	0.6769	0.5196	0.8929	0.032
Mof_C 	C 	0.6676	0.48	0.9321	-0.091
Mof_H 	H 	0.6959	0.4569	0.9444	0.065
Mof_C 	C 	0.6145	0.4745	0.9536	-0.008
Mof_H 	H 	0.6063	0.4466	0.9797	0.06
Mof_C 	C 	0.5744	0.5102	0.9362	-0.062
Mof_H 	H 	0.5392	0.5065	0.9518	0.055
Mof_C 	C 	0.5837	0.552	0.8963	0
Mof_H 	H 	0.5556	0.5756	0.8846	0.058
Mof_C 	C 	0.6357	0.5565	0.8752	-0.09
Mof_H 	H 	0.644	0.5841	0.8489	0.085
Mof_N 	N 	0.8889	0.7926	0.6843	0.12
Mof_O 	O 	0.8385	0.7953	0.6891	-0.076
Mof_O 	O 	0.9091	0.7531	0.6589	-0.145
Mof_O 	O 	0.9176	0.819	0.7175	-0.089
Mof_O 	O 	0.847	0.8086	0.6594	-0.093
Mof_O 	O 	0.9335	0.7982	0.6597	-0.161
Mof_O 	O 	0.8884	0.7895	0.7367	-0.114
Mof_N 	N 	0.8289	0.1364	0.9952	-0.131
Mof_N 	N 	0.9212	0.2021	0.0047	-0.169
Mof_N 	N 	0.8185	0.0451	0.06	-0.189
Mof_N 	N 	0.8184	0.9928	0.0862	-0.091
Mof_C 	C 	0.8311	0.1833	0.969	0.013
Mof_H 	H 	0.8011	0.195	0.9473	0.022
Mof_C 	C 	0.8791	0.2175	0.973	0.046
Mof_H 	H 	0.8806	0.2507	0.9531	0.04
Mof_C 	C 	0.9167	0.155	0.0318	0.06
Mof_H 	H 	0.9461	0.1436	0.0545	0.01
Mof_C 	C 	0.8711	0.1215	0.0286	-0.081
Mof_C 	C 	0.8672	0.0693	0.06	0.245
Mof_C 	C 	0.9175	0.0446	0.0878	-0.777
Mof_H 	H 	0.9075	0.0107	0.1065	0.27
Mof_H 	H 	0.9449	0.0373	0.0591	0.274
Mof_H 	H 	0.9321	0.07	0.1155	0.261
Mof_C 	C 	0.7755	0.9832	0.1179	0.03
Mof_C 	C 	0.7696	0.9269	0.1429	0.024
Mof_C 	C 	0.73	0.9176	0.1821	-0.087
Mof_H 	H 	0.7069	0.9459	0.1944	0.064
Mof_C 	C 	0.7245	0.8645	0.2036	-0.015
Mof_H 	H 	0.6966	0.8563	0.2297	0.055
Mof_C 	C 	0.7602	0.8244	0.1862	-0.06
Mof_H 	H 	0.7565	0.7892	0.2018	0.049
Mof_C 	C 	0.802	0.8337	0.1463	-0.007
Mof_H 	H 	0.8256	0.8056	0.1346	0.059
Mof_C 	C 	0.8065	0.8857	0.1252	-0.085
Mof_H 	H 	0.8341	0.894	0.0989	0.082
Mof_N 	N 	0.0426	0.1389	0.9343	0.133
Mof_O 	O 	0.0453	0.0885	0.9391	-0.09
Mof_O 	O 	0.0031	0.1591	0.9089	-0.185
Mof_O 	O 	0.069	0.1676	0.9675	-0.094
Mof_O 	O 	0.0586	0.097	0.9094	-0.098
Mof_O 	O 	0.0482	0.1835	0.9097	-0.183
Mof_O 	O 	0.0395	0.1384	0.9867	-0.131
Mof_N 	N 	0.3289	0.6364	0.4952	-0.152
Mof_N 	N 	0.4212	0.7021	0.5047	-0.179
Mof_N 	N 	0.3185	0.5451	0.56	-0.181
Mof_N 	N 	0.3184	0.4928	0.5862	-0.096
Mof_C 	C 	0.3311	0.6833	0.469	0.019
Mof_H 	H 	0.3011	0.695	0.4473	0.015
Mof_C 	C 	0.3791	0.7175	0.473	0.014
Mof_H 	H 	0.3806	0.7507	0.4531	0.039
Mof_C 	C 	0.4167	0.655	0.5318	0.054
Mof_H 	H 	0.4461	0.6436	0.5545	-0.005
Mof_C 	C 	0.3711	0.6215	0.5286	-0.061
Mof_C 	C 	0.3672	0.5693	0.56	0.238
Mof_C 	C 	0.4175	0.5446	0.5878	-0.754
Mof_H 	H 	0.4075	0.5107	0.6065	0.268
Mof_H 	H 	0.4449	0.5373	0.5591	0.262
Mof_H 	H 	0.4321	0.57	0.6155	0.247
Mof_C 	C 	0.2755	0.4832	0.6179	0.009
Mof_C 	C 	0.2696	0.4269	0.6429	0.029
Mof_C 	C 	0.23	0.4176	0.6821	-0.093
Mof_H 	H 	0.2069	0.4459	0.6944	0.058
Mof_C 	C 	0.2245	0.3645	0.7036	-0.012
Mof_H 	H 	0.1966	0.3563	0.7297	0.052
Mof_C 	C 	0.2602	0.3244	0.6862	-0.064
Mof_H 	H 	0.2565	0.2892	0.7018	0.051
Mof_C 	C 	0.302	0.3337	0.6463	-0.002
Mof_H 	H 	0.3256	0.3056	0.6346	0.058
Mof_C 	C 	0.3065	0.3857	0.6252	-0.09
Mof_H 	H 	0.3341	0.394	0.5989	0.084
Mof_N 	N 	0.5426	0.6389	0.4343	0.132
Mof_O 	O 	0.5453	0.5885	0.4391	-0.077
Mof_O 	O 	0.5031	0.6591	0.4089	-0.163
Mof_O 	O 	0.569	0.6676	0.4675	-0.104
Mof_O 	O 	0.5586	0.597	0.4094	-0.096
Mof_O 	O 	0.5482	0.6835	0.4097	-0.197
Mof_O 	O 	0.5395	0.6384	0.4867	-0.127
Mof_N 	N 	0.6711	0.8636	0.4952	-0.152
Mof_N 	N 	0.5788	0.7979	0.5047	-0.179
Mof_N 	N 	0.6815	0.9549	0.56	-0.176
Mof_N 	N 	0.6816	0.0072	0.5862	-0.102
Mof_C 	C 	0.6689	0.8167	0.469	0.019
Mof_H 	H 	0.6989	0.805	0.4473	0.015
Mof_C 	C 	0.6209	0.7825	0.473	0.014
Mof_H 	H 	0.6194	0.7493	0.4531	0.039
Mof_C 	C 	0.5833	0.845	0.5318	0.055
Mof_H 	H 	0.5539	0.8564	0.5545	-0.005
Mof_C 	C 	0.6289	0.8785	0.5286	-0.064
Mof_C 	C 	0.6328	0.9307	0.56	0.247
Mof_C 	C 	0.5825	0.9554	0.5878	-0.776
Mof_H 	H 	0.5925	0.9893	0.6065	0.283
Mof_H 	H 	0.5551	0.9627	0.5591	0.273
Mof_H 	H 	0.5679	0.93	0.6155	0.256
Mof_C 	C 	0.7245	0.0168	0.6179	-0.01
Mof_C 	C 	0.7304	0.0731	0.6429	0.037
Mof_C 	C 	0.77	0.0824	0.6821	-0.098
Mof_H 	H 	0.7931	0.0541	0.6944	0.061
Mof_C 	C 	0.7755	0.1355	0.7036	-0.004
Mof_H 	H 	0.8034	0.1437	0.7297	0.053
Mof_C 	C 	0.7398	0.1756	0.6862	-0.069
Mof_H 	H 	0.7435	0.2108	0.7018	0.053
Mof_C 	C 	0.698	0.1663	0.6463	0.004
Mof_H 	H 	0.6744	0.1944	0.6346	0.056
Mof_C 	C 	0.6935	0.1143	0.6252	-0.096
Mof_H 	H 	0.6659	0.106	0.5989	0.086
Mof_N 	N 	0.4574	0.8611	0.4343	0.131
Mof_O 	O 	0.4547	0.9115	0.4391	-0.073
Mof_O 	O 	0.4969	0.8409	0.4089	-0.162
Mof_O 	O 	0.431	0.8324	0.4675	-0.104
Mof_O 	O 	0.4414	0.903	0.4094	-0.095
Mof_O 	O 	0.4518	0.8165	0.4097	-0.196
Mof_O 	O 	0.4605	0.8616	0.4867	-0.126
Mof_N 	N 	0.1711	0.3636	0.9952	-0.132
Mof_N 	N 	0.0788	0.2979	0.0047	-0.191
Mof_N 	N 	0.1815	0.4549	0.06	-0.179
Mof_N 	N 	0.1816	0.5072	0.0862	-0.098
Mof_C 	C 	0.1689	0.3167	0.969	0.011
Mof_H 	H 	0.1989	0.305	0.9473	0.022
Mof_C 	C 	0.1209	0.2825	0.973	0.04
Mof_H 	H 	0.1194	0.2493	0.9531	0.035
Mof_C 	C 	0.0833	0.345	0.0318	0.052
Mof_H 	H 	0.0539	0.3564	0.0545	-0.016
Mof_C 	C 	0.1289	0.3785	0.0286	-0.08
Mof_C 	C 	0.1328	0.4307	0.06	0.229
Mof_C 	C 	0.0825	0.4554	0.0878	-0.718
Mof_H 	H 	0.0925	0.4893	0.1065	0.253
Mof_H 	H 	0.0551	0.4627	0.0591	0.235
Mof_H 	H 	0.0679	0.43	0.1155	0.229
Mof_C 	C 	0.2245	0.5168	0.1179	0.009
Mof_C 	C 	0.2304	0.5731	0.1429	0.028
Mof_C 	C 	0.27	0.5824	0.1821	-0.092
Mof_H 	H 	0.2931	0.5541	0.1944	0.06
Mof_C 	C 	0.2755	0.6355	0.2036	-0.012
Mof_H 	H 	0.3034	0.6437	0.2297	0.054
Mof_C 	C 	0.2398	0.6756	0.1862	-0.064
Mof_H 	H 	0.2435	0.7108	0.2018	0.051
Mof_C 	C 	0.198	0.6663	0.1463	-0.004
Mof_H 	H 	0.1744	0.6944	0.1346	0.057
Mof_C 	C 	0.1935	0.6143	0.1252	-0.089
Mof_H 	H 	0.1659	0.606	0.0989	0.082
Mof_N 	N 	0.9574	0.3611	0.9343	0.114
Mof_O 	O 	0.9547	0.4115	0.9391	-0.053
Mof_O 	O 	0.9969	0.3409	0.9089	-0.109
Mof_O 	O 	0.931	0.3324	0.9675	-0.09
Mof_O 	O 	0.9414	0.403	0.9094	-0.096
Mof_O 	O 	0.9518	0.3165	0.9097	-0.171
Mof_O 	O 	0.9605	0.3616	0.9867	-0.088
Mof_N 	N 	0.6136	0.0789	0.7452	-0.151
Mof_N 	N 	0.5479	0.1712	0.7547	-0.179
Mof_N 	N 	0.7049	0.0685	0.81	-0.181
Mof_N 	N 	0.7572	0.0684	0.8362	-0.093
Mof_C 	C 	0.5667	0.0811	0.719	0.019
Mof_H 	H 	0.555	0.0511	0.6973	0.011
Mof_C 	C 	0.5325	0.1291	0.723	0.013
Mof_H 	H 	0.4993	0.1306	0.7031	0.039
Mof_C 	C 	0.595	0.1667	0.7818	0.054
Mof_H 	H 	0.6064	0.1961	0.8045	-0.005
Mof_C 	C 	0.6285	0.1211	0.7786	-0.062
Mof_C 	C 	0.6807	0.1172	0.81	0.24
Mof_C 	C 	0.7054	0.1675	0.8378	-0.761
Mof_H 	H 	0.7393	0.1575	0.8565	0.271
Mof_H 	H 	0.7127	0.1949	0.8091	0.264
Mof_H 	H 	0.68	0.1821	0.8655	0.251
Mof_C 	C 	0.7668	0.0255	0.8679	-0.007
Mof_C 	C 	0.8231	0.0196	0.8929	0.027
Mof_C 	C 	0.8324	0.98	0.9321	-0.087
Mof_H 	H 	0.8041	0.9569	0.9444	0.067
Mof_C 	C 	0.8855	0.9745	0.9536	0.04
Mof_H 	H 	0.8937	0.9466	0.9797	0.051
Mof_C 	C 	0.9256	0.0102	0.9362	-0.108
Mof_H 	H 	0.9608	0.0065	0.9518	0.085
Mof_C 	C 	0.9163	0.052	0.8963	0.029
Mof_H 	H 	0.9444	0.0756	0.8846	0.064
Mof_C 	C 	0.8643	0.0565	0.8752	-0.101
Mof_H 	H 	0.856	0.0841	0.8489	0.091
Mof_N 	N 	0.6111	0.2926	0.6843	0.132
Mof_O 	O 	0.6615	0.2953	0.6891	-0.077
Mof_O 	O 	0.5909	0.2531	0.6589	-0.162
Mof_O 	O 	0.5824	0.319	0.7175	-0.104
Mof_O 	O 	0.653	0.3086	0.6594	-0.096
Mof_O 	O 	0.5665	0.2982	0.6597	-0.197
Mof_O 	O 	0.6116	0.2895	0.7367	-0.127
Mof_N 	N 	0.1136	0.5789	0.2452	-0.166
Mof_N 	N 	0.0479	0.6712	0.2547	-0.15
Mof_N 	N 	0.2049	0.5685	0.31	-0.18
Mof_N 	N 	0.2572	0.5684	0.3362	-0.096
Mof_C 	C 	0.0667	0.5811	0.219	0.083
Mof_H 	H 	0.055	0.5511	0.1973	-0.019
Mof_C 	C 	0.0325	0.6291	0.223	-0.133
Mof_H 	H 	0.9993	0.6306	0.2031	0.143
Mof_C 	C 	0.095	0.6667	0.2818	0.041
Mof_H 	H 	0.1064	0.6961	0.3045	-0.001
Mof_C 	C 	0.1285	0.6211	0.2786	-0.052
Mof_C 	C 	0.1807	0.6172	0.31	0.234
Mof_C 	C 	0.2054	0.6675	0.3378	-0.75
Mof_H 	H 	0.2393	0.6575	0.3565	0.267
Mof_H 	H 	0.2127	0.6949	0.3091	0.261
Mof_H 	H 	0.18	0.6821	0.3655	0.246
Mof_C 	C 	0.2668	0.5255	0.3679	0.009
Mof_C 	C 	0.3231	0.5196	0.3929	0.03
Mof_C 	C 	0.3324	0.48	0.4321	-0.093
Mof_H 	H 	0.3041	0.4569	0.4444	0.06
Mof_C 	C 	0.3855	0.4745	0.4536	-0.01
Mof_H 	H 	0.3937	0.4466	0.4797	0.053
Mof_C 	C 	0.4256	0.5102	0.4362	-0.065
Mof_H 	H 	0.4608	0.5065	0.4518	0.051
Mof_C 	C 	0.4163	0.552	0.3963	-0.002
Mof_H 	H 	0.4444	0.5756	0.3846	0.057
Mof_C 	C 	0.3643	0.5565	0.3752	-0.091
Mof_H 	H 	0.356	0.5841	0.3489	0.085
Mof_N 	N 	0.1111	0.7926	0.1843	0.131
Mof_O 	O 	0.1615	0.7953	0.1891	-0.076
Mof_O 	O 	0.0909	0.7531	0.1589	-0.155
Mof_O 	O 	0.0824	0.819	0.2175	-0.106
Mof_O 	O 	0.153	0.8086	0.1594	-0.097
Mof_O 	O 	0.0665	0.7982	0.1597	-0.194
Mof_O 	O 	0.1116	0.7895	0.2367	-0.125
Mof_N 	N 	0.8864	0.9211	0.2452	-0.133
Mof_N 	N 	0.9521	0.8288	0.2547	-0.179
Mof_N 	N 	0.7951	0.9315	0.31	-0.175
Mof_N 	N 	0.7428	0.9316	0.3362	-0.098
Mof_C 	C 	0.9333	0.9189	0.219	-0.041
Mof_H 	H 	0.945	0.9489	0.1973	0.054
Mof_C 	C 	0.9675	0.8709	0.223	0.159
Mof_H 	H 	0.0007	0.8694	0.2031	-0.052
Mof_C 	C 	0.905	0.8333	0.2818	0.062
Mof_H 	H 	0.8936	0.8039	0.3045	0.003
Mof_C 	C 	0.8715	0.8789	0.2786	-0.066
Mof_C 	C 	0.8193	0.8828	0.31	0.242
Mof_C 	C 	0.7946	0.8325	0.3378	-0.762
Mof_H 	H 	0.7607	0.8425	0.3565	0.27
Mof_H 	H 	0.7873	0.8051	0.3091	0.265
Mof_H 	H 	0.82	0.8179	0.3655	0.252
Mof_C 	C 	0.7332	0.9745	0.3679	0.028
Mof_C 	C 	0.6769	0.9804	0.3929	0.038
Mof_C 	C 	0.6676	0.02	0.4321	-0.099
Mof_H 	H 	0.6959	0.0431	0.4444	0.059
Mof_C 	C 	0.6145	0.0255	0.4536	-0.05
Mof_H 	H 	0.6063	0.0534	0.4797	0.064
Mof_C 	C 	0.5744	0.9898	0.4362	-0.02
Mof_H 	H 	0.5392	0.9935	0.4518	0.042
Mof_C 	C 	0.5837	0.948	0.3963	-0.023
Mof_H 	H 	0.5556	0.9244	0.3846	0.066
Mof_C 	C 	0.6357	0.9435	0.3752	-0.078
Mof_H 	H 	0.644	0.9159	0.3489	0.081
Mof_N 	N 	0.8889	0.7074	0.1843	0.12
Mof_O 	O 	0.8385	0.7047	0.1891	-0.076
Mof_O 	O 	0.9091	0.7469	0.1589	-0.145
Mof_O 	O 	0.9176	0.681	0.2175	-0.09
Mof_O 	O 	0.847	0.6914	0.1594	-0.093
Mof_O 	O 	0.9335	0.7018	0.1597	-0.161
Mof_O 	O 	0.8884	0.7105	0.2367	-0.115
Mof_N 	N 	0.3864	0.4211	0.7452	-0.152
Mof_N 	N 	0.4521	0.3288	0.7547	-0.179
Mof_N 	N 	0.2951	0.4315	0.81	-0.181
Mof_N 	N 	0.2428	0.4316	0.8362	-0.096
Mof_C 	C 	0.4333	0.4189	0.719	0.019
Mof_H 	H 	0.445	0.4489	0.6973	0.015
Mof_C 	C 	0.4675	0.3709	0.723	0.014
Mof_H 	H 	0.5007	0.3694	0.7031	0.039
Mof_C 	C 	0.405	0.3333	0.7818	0.054
Mof_H 	H 	0.3936	0.3039	0.8045	-0.005
Mof_C 	C 	0.3715	0.3789	0.7786	-0.062
Mof_C 	C 	0.3193	0.3828	0.81	0.24
Mof_C 	C 	0.2946	0.3325	0.8378	-0.76
Mof_H 	H 	0.2607	0.3425	0.8565	0.271
Mof_H 	H 	0.2873	0.3051	0.8091	0.264
Mof_H 	H 	0.32	0.3179	0.8655	0.251
Mof_C 	C 	0.2332	0.4745	0.8679	0.012
Mof_C 	C 	0.1769	0.4804	0.8929	0.028
Mof_C 	C 	0.1676	0.52	0.9321	-0.087
Mof_H 	H 	0.1959	0.5431	0.9444	0.063
Mof_C 	C 	0.1145	0.5255	0.9536	-0.017
Mof_H 	H 	0.1063	0.5534	0.9797	0.061
Mof_C 	C 	0.0744	0.4898	0.9362	-0.059
Mof_H 	H 	0.0392	0.4935	0.9518	0.034
Mof_C 	C 	0.0837	0.448	0.8963	-0.008
Mof_H 	H 	0.0556	0.4244	0.8846	0.044
Mof_C 	C 	0.1357	0.4435	0.8752	-0.089
Mof_H 	H 	0.144	0.4159	0.8489	0.082
Mof_N 	N 	0.3889	0.2074	0.6843	0.132
Mof_O 	O 	0.3385	0.2047	0.6891	-0.077
Mof_O 	O 	0.4091	0.2469	0.6589	-0.163
Mof_O 	O 	0.4176	0.181	0.7175	-0.104
Mof_O 	O 	0.347	0.1914	0.6594	-0.096
Mof_O 	O 	0.4335	0.2018	0.6597	-0.197
Mof_O 	O 	0.3884	0.2105	0.7367	-0.127
Mof_N 	N 	0.6711	0.1364	0.0048	-0.166
Mof_N 	N 	0.5788	0.2021	0.9953	-0.163
Mof_N 	N 	0.6815	0.0451	0.94	-0.178
Mof_N 	N 	0.6816	0.9928	0.9138	-0.087
Mof_C 	C 	0.6689	0.1833	0.031	0.027
Mof_H 	H 	0.6989	0.195	0.0527	0.01
Mof_C 	C 	0.6209	0.2175	0.027	-0.016
Mof_H 	H 	0.6194	0.2507	0.0469	0.045
Mof_C 	C 	0.5833	0.155	0.9682	0.047
Mof_H 	H 	0.5539	0.1436	0.9455	-0.001
Mof_C 	C 	0.6289	0.1215	0.9714	-0.036
Mof_C 	C 	0.6328	0.0693	0.94	0.23
Mof_C 	C 	0.5825	0.0446	0.9122	-0.737
Mof_H 	H 	0.5925	0.0107	0.8935	0.256
Mof_H 	H 	0.5551	0.0373	0.9409	0.257
Mof_H 	H 	0.5679	0.07	0.8845	0.24
Mof_C 	C 	0.7245	0.9832	0.8821	0.032
Mof_C 	C 	0.7304	0.9269	0.8571	0.028
Mof_C 	C 	0.77	0.9176	0.8179	-0.088
Mof_H 	H 	0.7931	0.9459	0.8056	0.067
Mof_C 	C 	0.7755	0.8645	0.7964	-0.01
Mof_H 	H 	0.8034	0.8563	0.7703	0.056
Mof_C 	C 	0.7398	0.8244	0.8138	-0.062
Mof_H 	H 	0.7435	0.7892	0.7982	0.051
Mof_C 	C 	0.698	0.8337	0.8537	-0.002
Mof_H 	H 	0.6744	0.8056	0.8654	0.059
Mof_C 	C 	0.6935	0.8857	0.8748	-0.086
Mof_H 	H 	0.6659	0.894	0.9011	0.087
Mof_N 	N 	0.4574	0.1389	0.0657	0.136
Mof_O 	O 	0.4547	0.0885	0.0609	-0.087
Mof_O 	O 	0.4969	0.1591	0.0911	-0.166
Mof_O 	O 	0.431	0.1676	0.0325	-0.11
Mof_O 	O 	0.4414	0.097	0.0906	-0.095
Mof_O 	O 	0.4518	0.1835	0.0903	-0.198
Mof_O 	O 	0.4605	0.1384	0.0133	-0.139
Mof_N 	N 	0.1711	0.6364	0.5048	-0.153
Mof_N 	N 	0.0788	0.7021	0.4953	-0.176
Mof_N 	N 	0.1815	0.5451	0.44	-0.178
Mof_N 	N 	0.1816	0.4928	0.4138	-0.096
Mof_C 	C 	0.1689	0.6833	0.531	0.02
Mof_H 	H 	0.1989	0.695	0.5527	0.014
Mof_C 	C 	0.1209	0.7175	0.527	0.009
Mof_H 	H 	0.1194	0.7507	0.5469	0.042
Mof_C 	C 	0.0833	0.655	0.4682	0.047
Mof_H 	H 	0.0539	0.6436	0.4455	-0.012
Mof_C 	C 	0.1289	0.6215	0.4714	-0.058
Mof_C 	C 	0.1328	0.5693	0.44	0.226
Mof_C 	C 	0.0825	0.5446	0.4122	-0.718
Mof_H 	H 	0.0925	0.5107	0.3935	0.253
Mof_H 	H 	0.0551	0.5373	0.4409	0.239
Mof_H 	H 	0.0679	0.57	0.3845	0.229
Mof_C 	C 	0.2245	0.4832	0.3821	0.009
Mof_C 	C 	0.2304	0.4269	0.3571	0.029
Mof_C 	C 	0.27	0.4176	0.3179	-0.093
Mof_H 	H 	0.2931	0.4459	0.3056	0.06
Mof_C 	C 	0.2755	0.3645	0.2964	-0.011
Mof_H 	H 	0.3034	0.3563	0.2703	0.053
Mof_C 	C 	0.2398	0.3244	0.3138	-0.064
Mof_H 	H 	0.2435	0.2892	0.2982	0.051
Mof_C 	C 	0.198	0.3337	0.3537	-0.002
Mof_H 	H 	0.1744	0.3056	0.3654	0.058
Mof_C 	C 	0.1935	0.3857	0.3748	-0.09
Mof_H 	H 	0.1659	0.394	0.4011	0.084
Mof_N 	N 	0.9574	0.6389	0.5657	0.117
Mof_O 	O 	0.9547	0.5885	0.5609	-0.059
Mof_O 	O 	0.9969	0.6591	0.5911	-0.111
Mof_O 	O 	0.931	0.6676	0.5325	-0.096
Mof_O 	O 	0.9414	0.597	0.5906	-0.095
Mof_O 	O 	0.9518	0.6835	0.5903	-0.172
Mof_O 	O 	0.9605	0.6384	0.5133	-0.099
Mof_N 	N 	0.8289	0.8636	0.5048	-0.152
Mof_N 	N 	0.9212	0.7979	0.4953	-0.154
Mof_N 	N 	0.8185	0.9549	0.44	-0.178
Mof_N 	N 	0.8184	0.0072	0.4138	-0.102
Mof_C 	C 	0.8311	0.8167	0.531	0.022
Mof_H 	H 	0.8011	0.805	0.5527	0.014
Mof_C 	C 	0.8791	0.7825	0.527	0.016
Mof_H 	H 	0.8806	0.7493	0.5469	0.047
Mof_C 	C 	0.9167	0.845	0.4682	0.058
Mof_H 	H 	0.9461	0.8564	0.4455	0.014
Mof_C 	C 	0.8711	0.8785	0.4714	-0.064
Mof_C 	C 	0.8672	0.9307	0.44	0.258
Mof_C 	C 	0.9175	0.9554	0.4122	-0.816
Mof_H 	H 	0.9075	0.9893	0.3935	0.298
Mof_H 	H 	0.9449	0.9627	0.4409	0.299
Mof_H 	H 	0.9321	0.93	0.3845	0.277
Mof_C 	C 	0.7755	0.0168	0.3821	-0.01
Mof_C 	C 	0.7696	0.0731	0.3571	0.036
Mof_C 	C 	0.73	0.0824	0.3179	-0.098
Mof_H 	H 	0.7069	0.0541	0.3056	0.058
Mof_C 	C 	0.7245	0.1355	0.2964	-0.006
Mof_H 	H 	0.6966	0.1437	0.2703	0.051
Mof_C 	C 	0.7602	0.1756	0.3138	-0.069
Mof_H 	H 	0.7565	0.2108	0.2982	0.053
Mof_C 	C 	0.802	0.1663	0.3537	0.003
Mof_H 	H 	0.8256	0.1944	0.3654	0.056
Mof_C 	C 	0.8065	0.1143	0.3748	-0.096
Mof_H 	H 	0.8341	0.106	0.4011	0.086
Mof_N 	N 	0.0426	0.8611	0.5657	0.134
Mof_O 	O 	0.0453	0.9115	0.5609	-0.089
Mof_O 	O 	0.0031	0.8409	0.5911	-0.188
Mof_O 	O 	0.069	0.8324	0.5325	-0.1
Mof_O 	O 	0.0586	0.903	0.5906	-0.094
Mof_O 	O 	0.0482	0.8165	0.5903	-0.183
Mof_O 	O 	0.0395	0.8616	0.5133	-0.14
Mof_N 	N 	0.3289	0.3636	0.0048	-0.166
Mof_N 	N 	0.4212	0.2979	0.9953	-0.163
Mof_N 	N 	0.3185	0.4549	0.94	-0.172
Mof_N 	N 	0.3184	0.5072	0.9138	-0.093
Mof_C 	C 	0.3311	0.3167	0.031	0.027
Mof_H 	H 	0.3011	0.305	0.0527	0.01
Mof_C 	C 	0.3791	0.2825	0.027	-0.016
Mof_H 	H 	0.3806	0.2493	0.0469	0.045
Mof_C 	C 	0.4167	0.345	0.9682	0.048
Mof_H 	H 	0.4461	0.3564	0.9455	-0.001
Mof_C 	C 	0.3711	0.3785	0.9714	-0.038
Mof_C 	C 	0.3672	0.4307	0.94	0.237
Mof_C 	C 	0.4175	0.4554	0.9122	-0.755
Mof_H 	H 	0.4075	0.4893	0.8935	0.269
Mof_H 	H 	0.4449	0.4627	0.9409	0.267
Mof_H 	H 	0.4321	0.43	0.8845	0.247
Mof_C 	C 	0.2755	0.5168	0.8821	0.01
Mof_C 	C 	0.2696	0.5731	0.8571	0.031
Mof_C 	C 	0.23	0.5824	0.8179	-0.093
Mof_H 	H 	0.2069	0.5541	0.8056	0.059
Mof_C 	C 	0.2245	0.6355	0.7964	-0.01
Mof_H 	H 	0.1966	0.6437	0.7703	0.052
Mof_C 	C 	0.2602	0.6756	0.8138	-0.065
Mof_H 	H 	0.2565	0.7108	0.7982	0.051
Mof_C 	C 	0.302	0.6663	0.8537	-0
Mof_H 	H 	0.3256	0.6944	0.8654	0.058
Mof_C 	C 	0.3065	0.6143	0.8748	-0.09
Mof_H 	H 	0.3341	0.606	0.9011	0.087
Mof_N 	N 	0.5426	0.3611	0.0657	0.135
Mof_O 	O 	0.5453	0.4115	0.0609	-0.083
Mof_O 	O 	0.5031	0.3409	0.0911	-0.166
Mof_O 	O 	0.569	0.3324	0.0325	-0.11
Mof_O 	O 	0.5586	0.403	0.0906	-0.094
Mof_O 	O 	0.5482	0.3165	0.0903	-0.198
Mof_O 	O 	0.5395	0.3616	0.0133	-0.138
Mof_N 	N 	0.8864	0.0789	0.2548	-0.138
Mof_N 	N 	0.9521	0.1712	0.2453	-0.179
Mof_N 	N 	0.7951	0.0685	0.19	-0.182
Mof_N 	N 	0.7428	0.0684	0.1638	-0.094
Mof_C 	C 	0.9333	0.0811	0.281	-0.041
Mof_H 	H 	0.945	0.0511	0.3027	0.044
Mof_C 	C 	0.9675	0.1291	0.277	0.156
Mof_H 	H 	0.0007	0.1306	0.2969	-0.053
Mof_C 	C 	0.905	0.1667	0.2182	0.062
Mof_H 	H 	0.8936	0.1961	0.1955	0.002
Mof_C 	C 	0.8715	0.1211	0.2214	-0.067
Mof_C 	C 	0.8193	0.1172	0.19	0.242
Mof_C 	C 	0.7946	0.1675	0.1622	-0.761
Mof_H 	H 	0.7607	0.1575	0.1435	0.27
Mof_H 	H 	0.7873	0.1949	0.1909	0.265
Mof_H 	H 	0.82	0.1821	0.1345	0.251
Mof_C 	C 	0.7332	0.0255	0.1321	-0.008
Mof_C 	C 	0.6769	0.0196	0.1071	0.021
Mof_C 	C 	0.6676	0.98	0.0679	-0.089
Mof_H 	H 	0.6959	0.9569	0.0556	0.059
Mof_C 	C 	0.6145	0.9745	0.0464	0.028
Mof_H 	H 	0.6063	0.9466	0.0203	0.035
Mof_C 	C 	0.5744	0.0102	0.0638	-0.112
Mof_H 	H 	0.5392	0.0065	0.0482	0.056
Mof_C 	C 	0.5837	0.052	0.1037	0.018
Mof_H 	H 	0.5556	0.0756	0.1154	0.048
Mof_C 	C 	0.6357	0.0565	0.1248	-0.103
Mof_H 	H 	0.644	0.0841	0.1511	0.088
Mof_N 	N 	0.8889	0.2926	0.3157	0.12
Mof_O 	O 	0.8385	0.2953	0.3109	-0.076
Mof_O 	O 	0.9091	0.2531	0.3411	-0.145
Mof_O 	O 	0.9176	0.319	0.2825	-0.09
Mof_O 	O 	0.847	0.3086	0.3406	-0.093
Mof_O 	O 	0.9335	0.2982	0.3403	-0.161
Mof_O 	O 	0.8884	0.2895	0.2633	-0.115
Mof_N 	N 	0.3864	0.5789	0.7548	-0.152
Mof_N 	N 	0.4521	0.6712	0.7453	-0.179
Mof_N 	N 	0.2951	0.5685	0.69	-0.181
Mof_N 	N 	0.2428	0.5684	0.6638	-0.097
Mof_C 	C 	0.4333	0.5811	0.781	0.019
Mof_H 	H 	0.445	0.5511	0.8027	0.015
Mof_C 	C 	0.4675	0.6291	0.777	0.013
Mof_H 	H 	0.5007	0.6306	0.7969	0.039
Mof_C 	C 	0.405	0.6667	0.7182	0.053
Mof_H 	H 	0.3936	0.6961	0.6955	-0.005
Mof_C 	C 	0.3715	0.6211	0.7214	-0.061
Mof_C 	C 	0.3193	0.6172	0.69	0.238
Mof_C 	C 	0.2946	0.6675	0.6622	-0.754
Mof_H 	H 	0.2607	0.6575	0.6435	0.268
Mof_H 	H 	0.2873	0.6949	0.6909	0.262
Mof_H 	H 	0.32	0.6821	0.6345	0.247
Mof_C 	C 	0.2332	0.5255	0.6321	0.01
Mof_C 	C 	0.1769	0.5196	0.6071	0.026
Mof_C 	C 	0.1676	0.48	0.5679	-0.089
Mof_H 	H 	0.1959	0.4569	0.5556	0.059
Mof_C 	C 	0.1145	0.4745	0.5464	-0.02
Mof_H 	H 	0.1063	0.4466	0.5203	0.053
Mof_C 	C 	0.0744	0.5102	0.5638	-0.062
Mof_H 	H 	0.0392	0.5065	0.5482	0.03
Mof_C 	C 	0.0837	0.552	0.6037	-0.011
Mof_H 	H 	0.0556	0.5756	0.6154	0.044
Mof_C 	C 	0.1357	0.5565	0.6248	-0.089
Mof_H 	H 	0.144	0.5841	0.6511	0.082
Mof_N 	N 	0.3889	0.7926	0.8157	0.132
Mof_O 	O 	0.3385	0.7953	0.8109	-0.077
Mof_O 	O 	0.4091	0.7531	0.8411	-0.163
Mof_O 	O 	0.4176	0.819	0.7825	-0.103
Mof_O 	O 	0.347	0.8086	0.8406	-0.095
Mof_O 	O 	0.4335	0.7982	0.8403	-0.197
Mof_O 	O 	0.3884	0.7895	0.7633	-0.127
Mof_N 	N 	0.6136	0.9211	0.7548	-0.146
Mof_N 	N 	0.5479	0.8288	0.7453	-0.179
Mof_N 	N 	0.7049	0.9315	0.69	-0.174
Mof_N 	N 	0.7572	0.9316	0.6638	-0.097
Mof_C 	C 	0.5667	0.9189	0.781	0.018
Mof_H 	H 	0.555	0.9489	0.8027	0.021
Mof_C 	C 	0.5325	0.8709	0.777	0.016
Mof_H 	H 	0.4993	0.8694	0.7969	0.039
Mof_C 	C 	0.595	0.8333	0.7182	0.053
Mof_H 	H 	0.6064	0.8039	0.6955	-0.005
Mof_C 	C 	0.6285	0.8789	0.7214	-0.06
Mof_C 	C 	0.6807	0.8828	0.69	0.238
Mof_C 	C 	0.7054	0.8325	0.6622	-0.753
Mof_H 	H 	0.7393	0.8425	0.6435	0.267
Mof_H 	H 	0.7127	0.8051	0.6909	0.262
Mof_H 	H 	0.68	0.8179	0.6345	0.247
Mof_C 	C 	0.7668	0.9745	0.6321	0.027
Mof_C 	C 	0.8231	0.9804	0.6071	0.042
Mof_C 	C 	0.8324	0.02	0.5679	-0.103
Mof_H 	H 	0.8041	0.0431	0.5556	0.061
Mof_C 	C 	0.8855	0.0255	0.5464	-0.04
Mof_H 	H 	0.8937	0.0534	0.5203	0.064
Mof_C 	C 	0.9256	0.9898	0.5638	-0.022
Mof_H 	H 	0.9608	0.9935	0.5482	0.064
Mof_C 	C 	0.9163	0.948	0.6037	-0.014
Mof_H 	H 	0.9444	0.9244	0.6154	0.081
Mof_C 	C 	0.8643	0.9435	0.6248	-0.079
Mof_H 	H 	0.856	0.9159	0.6511	0.084
Mof_N 	N 	0.6111	0.7074	0.8157	0.132
Mof_O 	O 	0.6615	0.7047	0.8109	-0.077
Mof_O 	O 	0.5909	0.7469	0.8411	-0.163
Mof_O 	O 	0.5824	0.681	0.7825	-0.104
Mof_O 	O 	0.653	0.6914	0.8406	-0.095
Mof_O 	O 	0.5665	0.7018	0.8403	-0.197
Mof_O 	O 	0.6116	0.7105	0.7633	-0.127
Mof_N 	N 	0.1136	0.4211	0.2548	-0.166
Mof_N 	N 	0.0479	0.3288	0.2453	-0.15
Mof_N 	N 	0.2049	0.4315	0.19	-0.18
Mof_N 	N 	0.2572	0.4316	0.1638	-0.096
Mof_C 	C 	0.0667	0.4189	0.281	0.084
Mof_H 	H 	0.055	0.4489	0.3027	-0.019
Mof_C 	C 	0.0325	0.3709	0.277	-0.133
Mof_H 	H 	0.9993	0.3694	0.2969	0.143
Mof_C 	C 	0.095	0.3333	0.2182	0.041
Mof_H 	H 	0.1064	0.3039	0.1955	-0.001
Mof_C 	C 	0.1285	0.3789	0.2214	-0.052
Mof_C 	C 	0.1807	0.3828	0.19	0.234
Mof_C 	C 	0.2054	0.3325	0.1622	-0.748
Mof_H 	H 	0.2393	0.3425	0.1435	0.266
Mof_H 	H 	0.2127	0.3051	0.1909	0.26
Mof_H 	H 	0.18	0.3179	0.1345	0.244
Mof_C 	C 	0.2668	0.4745	0.1321	0.009
Mof_C 	C 	0.3231	0.4804	0.1071	0.03
Mof_C 	C 	0.3324	0.52	0.0679	-0.096
Mof_H 	H 	0.3041	0.5431	0.0556	0.058
Mof_C 	C 	0.3855	0.5255	0.0464	-0.011
Mof_H 	H 	0.3937	0.5534	0.0203	0.045
Mof_C 	C 	0.4256	0.4898	0.0638	-0.068
Mof_H 	H 	0.4608	0.4935	0.0482	0.047
Mof_C 	C 	0.4163	0.448	0.1037	-0.002
Mof_H 	H 	0.4444	0.4244	0.1154	0.057
Mof_C 	C 	0.3643	0.4435	0.1248	-0.092
Mof_H 	H 	0.356	0.4159	0.1511	0.085
Mof_N 	N 	0.1111	0.2074	0.3157	0.131
Mof_O 	O 	0.1615	0.2047	0.3109	-0.076
Mof_O 	O 	0.0909	0.2469	0.3411	-0.155
Mof_O 	O 	0.0824	0.181	0.2825	-0.107
Mof_O 	O 	0.153	0.1914	0.3406	-0.097
Mof_O 	O 	0.0665	0.2018	0.3403	-0.194
Mof_O 	O 	0.1116	0.2105	0.2633	-0.126
Mof_Ag	Ag	0.25	0.92089	-0	0.6
Mof_Ag	Ag	0.75	0.42089	0.5	0.625
Mof_Ag	Ag	0.25	0.07911	0.5	0.616
Mof_Ag	Ag	0.75	0.57911	-0	0.59
Mof_Ag	Ag	0.32911	0	0.25	0.594
Mof_Ag	Ag	0.82911	0.5	0.75	0.625
Mof_Ag	Ag	0.17089	0	0.75	0.595
Mof_Ag	Ag	0.67089	0.5	0.25	0.625
Mof_Ag	Ag	0.75	0.07911	-0	0.581
Mof_Ag	Ag	0.25	0.57911	0.5	0.625
Mof_Ag	Ag	0.75	0.92089	0.5	0.634
Mof_Ag	Ag	0.25	0.42089	-0	0.591
Mof_Ag	Ag	0.67089	0	0.75	0.594
Mof_Ag	Ag	0.17089	0.5	0.25	0.625
Mof_Ag	Ag	0.82911	0	0.25	0.594
Mof_Ag	Ag	0.32911	0.5	0.75	0.624
Mof_Ag	Ag	-3.79463e-33	0.75	0.99376	0.522
Mof_Ag	Ag	0.5	0.25	0.49376	0.573
Mof_Ag	Ag	0.5	0.75	0.24376	0.573
Mof_Ag	Ag	1.00714e-32	0.25	0.74376	0.486
Mof_Ag	Ag	0.5	0.75	0.00624	0.54
Mof_Ag	Ag	-5.55579e-33	0.25	0.50624	0.487
Mof_Ag	Ag	-1.94218e-32	0.75	0.75624	0.489
Mof_Ag	Ag	0.5	0.25	0.25624	0.574
Mof_Ag	Ag	-9.00531e-34	0.25	0.00624	0.456
Mof_Ag	Ag	0.5	0.75	0.50624	0.573
Mof_Ag	Ag	0.5	0.25	0.75624	0.573
Mof_Ag	Ag	-6.45892e-33	0.75	0.25624	0.489
Mof_Ag	Ag	0.5	0.25	0.99376	0.606
Mof_Ag	Ag	-2.40623e-32	0.75	0.49376	0.487
Mof_Ag	Ag	-2.81171e-33	0.25	0.24376	0.487
Mof_Ag	Ag	0.5	0.75	0.74376	0.572
Mof_Ag	Ag	-9.70224e-33	0.75	0.125	0.763
Mof_Ag	Ag	0.5	0.25	0.625	0.875
Mof_Ag	Ag	0.5	0.75	0.375	0.875
Mof_Ag	Ag	1.05455e-32	0.25	0.875	0.783
Mof_Ag	Ag	0.5	0.75	0.875	0.885
Mof_Ag	Ag	-2.3376e-33	0.25	0.375	0.773
Mof_Ag	Ag	2.25781e-33	0.75	0.625	0.772
Mof_Ag	Ag	0.5	0.25	0.125	0.865
_end
