data_functionalizedCrystal
_audit_creation_method	'EQeq! by Chris Wilmer'
_symmetry_space_group_name_H-M	'P1'
_symmetry_Int_Tables_number	1
_symmetry_cell_setting	triclinic
loop_
_symmetry_equiv_pos_as_xyz
  x,y,z
_cell_length_a	15.861
_cell_length_b	10.599
_cell_length_c	21.235
_cell_angle_alpha	90
_cell_angle_beta	106.914
_cell_angle_gamma	90
loop_
_atom_site_label
_atom_site_type_symbol
_atom_site_fract_x
_atom_site_fract_y
_atom_site_fract_z
_atom_site_charge
Mof_C 	C 	0.3168	0.3916	0.5637	0.406
Mof_C 	C 	0.3989	0.3163	0.5918	-0.199
Mof_C 	C 	0.4128	0.2091	0.5598	0.133
Mof_H 	H 	0.3711	0.1841	0.5212	-0.017
Mof_C 	C 	0.4887	0.1378	0.5847	-0.227
Mof_H 	H 	0.4974	0.0644	0.5634	0.101
Mof_C 	C 	0.5517	0.1771	0.642	0.179
Mof_C 	C 	0.536	0.2809	0.6739	-0.228
Mof_H 	H 	0.5769	0.3052	0.7131	0.12
Mof_C 	C 	0.4595	0.352	0.6491	0.131
Mof_H 	H 	0.4498	0.4233	0.6715	-0.001
Mof_C 	C 	0.6356	0.1008	0.6675	-0.2
Mof_H 	H 	0.6201	0.0121	0.6651	0.088
Mof_H 	H 	0.672	0.1145	0.6385	0.088
Mof_C 	C 	0.659	0.073	0.786	-0.225
Mof_H 	H 	0.5987	0.0441	0.768	0.099
Mof_H 	H 	0.659	0.138	0.8181	0.101
Mof_C 	C 	0.7141	0.9639	0.8209	0.214
Mof_C 	C 	0.6864	0.8949	0.8664	-0.27
Mof_H 	H 	0.6328	0.9142	0.8737	0.12
Mof_C 	C 	0.7369	0.798	0.9012	0.188
Mof_H 	H 	0.7166	0.7516	0.9311	-0.014
Mof_C 	C 	0.8179	0.7693	0.892	-0.268
Mof_C 	C 	0.8757	0.6697	0.9319	0.531
Mof_C 	C 	0.8441	0.8362	0.8451	0.198
Mof_H 	H 	0.897	0.816	0.8369	-0.051
Mof_C 	C 	0.7929	0.9322	0.8104	-0.276
Mof_H 	H 	0.812	0.9765	0.7792	0.128
Mof_C 	C 	0.9196	0.3637	0.8952	0.482
Mof_C 	C 	0.8682	0.3407	0.8245	-0.134
Mof_C 	C 	0.8016	0.2502	0.8111	-0.02
Mof_H 	H 	0.7905	0.2059	0.8457	0.048
Mof_C 	C 	0.7514	0.2251	0.7469	0.043
Mof_C 	C 	0.7667	0.2963	0.6964	-0.051
Mof_H 	H 	0.7327	0.2827	0.6532	0.063
Mof_C 	C 	0.8326	0.3878	0.7099	-0.074
Mof_C 	C 	0.8841	0.4097	0.774	0.044
Mof_H 	H 	0.9286	0.4699	0.7827	0.025
Mof_C 	C 	0.8452	0.4643	0.654	0.315
Mof_N 	N 	0.6871	0.1287	0.7334	-0.067
Mof_O 	O 	0.308	0.4888	0.5991	-0.256
Mof_O 	O 	0.2641	0.3662	0.5107	-0.464
Mof_O 	O 	0.9921	0.4223	0.9067	-0.543
Mof_O 	O 	0.8889	0.3238	0.9391	-0.517
Mof_O 	O 	0.9552	0.6742	0.9362	-0.572
Mof_O 	O 	0.8422	0.5874	0.9607	-0.475
Mof_O 	O 	0.8917	0.5629	0.6659	-0.446
Mof_La	La	0.89925	0.41834	0.04756	2.163
Mof_O 	O 	0.8088	0.4286	0.596	-0.409
Mof_C 	C 	0.6832	0.3916	0.9363	0.403
Mof_C 	C 	0.6011	0.3163	0.9082	-0.198
Mof_C 	C 	0.5872	0.2091	0.9402	0.131
Mof_H 	H 	0.6289	0.1841	0.9788	-0.016
Mof_C 	C 	0.5113	0.1378	0.9153	-0.227
Mof_H 	H 	0.5026	0.0644	0.9366	0.1
Mof_C 	C 	0.4483	0.1771	0.858	0.178
Mof_C 	C 	0.464	0.2809	0.8261	-0.227
Mof_H 	H 	0.4231	0.3052	0.7869	0.12
Mof_C 	C 	0.5405	0.352	0.8509	0.13
Mof_H 	H 	0.5502	0.4233	0.8285	-0.001
Mof_C 	C 	0.3644	0.1008	0.8325	-0.199
Mof_H 	H 	0.3799	0.0121	0.8349	0.088
Mof_H 	H 	0.328	0.1145	0.8615	0.088
Mof_C 	C 	0.341	0.073	0.714	-0.226
Mof_H 	H 	0.4013	0.0441	0.732	0.099
Mof_H 	H 	0.341	0.138	0.6819	0.101
Mof_C 	C 	0.2859	0.9639	0.6791	0.216
Mof_C 	C 	0.3136	0.8949	0.6336	-0.272
Mof_H 	H 	0.3672	0.9142	0.6263	0.121
Mof_C 	C 	0.2631	0.798	0.5988	0.19
Mof_H 	H 	0.2834	0.7516	0.5689	-0.016
Mof_C 	C 	0.1821	0.7693	0.608	-0.272
Mof_C 	C 	0.1243	0.6697	0.5681	0.535
Mof_C 	C 	0.1559	0.8362	0.6549	0.2
Mof_H 	H 	0.103	0.816	0.6631	-0.053
Mof_C 	C 	0.2071	0.9322	0.6896	-0.279
Mof_H 	H 	0.188	0.9765	0.7208	0.128
Mof_C 	C 	0.0804	0.3637	0.6048	0.485
Mof_C 	C 	0.1318	0.3407	0.6755	-0.137
Mof_C 	C 	0.1984	0.2502	0.6889	-0.018
Mof_H 	H 	0.2095	0.2059	0.6543	0.047
Mof_C 	C 	0.2486	0.2251	0.7531	0.041
Mof_C 	C 	0.2333	0.2963	0.8036	-0.05
Mof_H 	H 	0.2673	0.2827	0.8468	0.062
Mof_C 	C 	0.1674	0.3878	0.7901	-0.076
Mof_C 	C 	0.1159	0.4097	0.726	0.046
Mof_H 	H 	0.0714	0.4699	0.7173	0.022
Mof_C 	C 	0.1548	0.4643	0.846	0.316
Mof_N 	N 	0.3129	0.1287	0.7666	-0.067
Mof_O 	O 	0.692	0.4888	0.9009	-0.255
Mof_O 	O 	0.7359	0.3662	0.9893	-0.459
Mof_O 	O 	0.0079	0.4223	0.5933	-0.551
Mof_O 	O 	0.1111	0.3238	0.5609	-0.523
Mof_O 	O 	0.0448	0.6742	0.5638	-0.58
Mof_O 	O 	0.1578	0.5874	0.5393	-0.48
Mof_O 	O 	0.1083	0.5629	0.8341	-0.447
Mof_La	La	0.10075	0.41834	0.45244	2.19
Mof_O 	O 	0.1912	0.4286	0.904	-0.409
Mof_C 	C 	0.6832	0.6084	0.4363	0.405
Mof_C 	C 	0.6011	0.6837	0.4082	-0.2
Mof_C 	C 	0.5872	0.7909	0.4402	0.132
Mof_H 	H 	0.6289	0.8159	0.4788	-0.018
Mof_C 	C 	0.5113	0.8622	0.4153	-0.228
Mof_H 	H 	0.5026	0.9356	0.4366	0.1
Mof_C 	C 	0.4483	0.8229	0.358	0.179
Mof_C 	C 	0.464	0.7191	0.3261	-0.228
Mof_H 	H 	0.4231	0.6948	0.2869	0.12
Mof_C 	C 	0.5405	0.648	0.3509	0.131
Mof_H 	H 	0.5502	0.5767	0.3285	-0.001
Mof_C 	C 	0.3644	0.8992	0.3325	-0.2
Mof_H 	H 	0.3799	0.9879	0.3349	0.088
Mof_H 	H 	0.328	0.8855	0.3615	0.088
Mof_C 	C 	0.341	0.927	0.214	-0.225
Mof_H 	H 	0.4013	0.9559	0.232	0.099
Mof_H 	H 	0.341	0.862	0.1819	0.101
Mof_C 	C 	0.2859	0.0361	0.1791	0.214
Mof_C 	C 	0.3136	0.1051	0.1336	-0.27
Mof_H 	H 	0.3672	0.0858	0.1263	0.12
Mof_C 	C 	0.2631	0.202	0.0988	0.188
Mof_H 	H 	0.2834	0.2484	0.0689	-0.014
Mof_C 	C 	0.1821	0.2307	0.108	-0.268
Mof_C 	C 	0.1243	0.3303	0.0681	0.531
Mof_C 	C 	0.1559	0.1638	0.1549	0.198
Mof_H 	H 	0.103	0.184	0.1631	-0.051
Mof_C 	C 	0.2071	0.0678	0.1896	-0.276
Mof_H 	H 	0.188	0.0235	0.2208	0.128
Mof_C 	C 	0.0804	0.6363	0.1048	0.482
Mof_C 	C 	0.1318	0.6593	0.1755	-0.134
Mof_C 	C 	0.1984	0.7498	0.1889	-0.02
Mof_H 	H 	0.2095	0.7941	0.1543	0.048
Mof_C 	C 	0.2486	0.7749	0.2531	0.043
Mof_C 	C 	0.2333	0.7037	0.3036	-0.051
Mof_H 	H 	0.2673	0.7173	0.3468	0.063
Mof_C 	C 	0.1674	0.6122	0.2901	-0.074
Mof_C 	C 	0.1159	0.5903	0.226	0.044
Mof_H 	H 	0.0714	0.5301	0.2173	0.025
Mof_C 	C 	0.1548	0.5357	0.346	0.315
Mof_N 	N 	0.3129	0.8713	0.2666	-0.067
Mof_O 	O 	0.692	0.5112	0.4009	-0.256
Mof_O 	O 	0.7359	0.6338	0.4893	-0.464
Mof_O 	O 	0.0079	0.5777	0.0933	-0.543
Mof_O 	O 	0.1111	0.6762	0.0609	-0.517
Mof_O 	O 	0.0448	0.3258	0.0638	-0.572
Mof_O 	O 	0.1578	0.4126	0.0393	-0.475
Mof_O 	O 	0.1083	0.4371	0.3341	-0.446
Mof_La	La	0.10075	0.58166	0.95244	2.163
Mof_O 	O 	0.1912	0.5714	0.404	-0.409
Mof_C 	C 	0.3168	0.6084	0.0637	0.403
Mof_C 	C 	0.3989	0.6837	0.0918	-0.198
Mof_C 	C 	0.4128	0.7909	0.0598	0.131
Mof_H 	H 	0.3711	0.8159	0.0212	-0.016
Mof_C 	C 	0.4887	0.8622	0.0847	-0.227
Mof_H 	H 	0.4974	0.9356	0.0634	0.1
Mof_C 	C 	0.5517	0.8229	0.142	0.178
Mof_C 	C 	0.536	0.7191	0.1739	-0.227
Mof_H 	H 	0.5769	0.6948	0.2131	0.12
Mof_C 	C 	0.4595	0.648	0.1491	0.13
Mof_H 	H 	0.4498	0.5767	0.1715	-0.001
Mof_C 	C 	0.6356	0.8992	0.1675	-0.199
Mof_H 	H 	0.6201	0.9879	0.1651	0.088
Mof_H 	H 	0.672	0.8855	0.1385	0.088
Mof_C 	C 	0.659	0.927	0.286	-0.226
Mof_H 	H 	0.5987	0.9559	0.268	0.099
Mof_H 	H 	0.659	0.862	0.3181	0.101
Mof_C 	C 	0.7141	0.0361	0.3209	0.216
Mof_C 	C 	0.6864	0.1051	0.3664	-0.272
Mof_H 	H 	0.6328	0.0858	0.3737	0.121
Mof_C 	C 	0.7369	0.202	0.4012	0.19
Mof_H 	H 	0.7166	0.2484	0.4311	-0.016
Mof_C 	C 	0.8179	0.2307	0.392	-0.272
Mof_C 	C 	0.8757	0.3303	0.4319	0.535
Mof_C 	C 	0.8441	0.1638	0.3451	0.2
Mof_H 	H 	0.897	0.184	0.3369	-0.053
Mof_C 	C 	0.7929	0.0678	0.3104	-0.279
Mof_H 	H 	0.812	0.0235	0.2792	0.128
Mof_C 	C 	0.9196	0.6363	0.3952	0.485
Mof_C 	C 	0.8682	0.6593	0.3245	-0.137
Mof_C 	C 	0.8016	0.7498	0.3111	-0.018
Mof_H 	H 	0.7905	0.7941	0.3457	0.047
Mof_C 	C 	0.7514	0.7749	0.2469	0.041
Mof_C 	C 	0.7667	0.7037	0.1964	-0.05
Mof_H 	H 	0.7327	0.7173	0.1532	0.062
Mof_C 	C 	0.8326	0.6122	0.2099	-0.076
Mof_C 	C 	0.8841	0.5903	0.274	0.046
Mof_H 	H 	0.9286	0.5301	0.2827	0.022
Mof_C 	C 	0.8452	0.5357	0.154	0.316
Mof_N 	N 	0.6871	0.8713	0.2334	-0.067
Mof_O 	O 	0.308	0.5112	0.0991	-0.255
Mof_O 	O 	0.2641	0.6338	0.0107	-0.459
Mof_O 	O 	0.9921	0.5777	0.4067	-0.551
Mof_O 	O 	0.8889	0.6762	0.4391	-0.523
Mof_O 	O 	0.9552	0.3258	0.4362	-0.58
Mof_O 	O 	0.8422	0.4126	0.4607	-0.48
Mof_O 	O 	0.8917	0.4371	0.1659	-0.447
Mof_La	La	0.89925	0.58166	0.54756	2.19
Mof_O 	O 	0.8088	0.5714	0.096	-0.409
_end
