data_functionalizedCrystal
_audit_creation_method	'EQeq! by Chris Wilmer'
_symmetry_space_group_name_H-M	'P1'
_symmetry_Int_Tables_number	1
_symmetry_cell_setting	triclinic
loop_
_symmetry_equiv_pos_as_xyz
  x,y,z
_cell_length_a	19.1501
_cell_length_b	19.1501
_cell_length_c	11.119
_cell_angle_alpha	90
_cell_angle_beta	90
_cell_angle_gamma	90
loop_
_atom_site_label
_atom_site_type_symbol
_atom_site_fract_x
_atom_site_fract_y
_atom_site_fract_z
_atom_site_charge
Mof_C 	C 	0.5792	0.3092	0.2423	0.09
Mof_H 	H 	0.5941	0.3511	0.2759	0.007
Mof_C 	C 	0.5343	0.3119	0.1458	-0.138
Mof_C 	C 	0.5159	0.3816	0.0921	0.381
Mof_O 	O 	0.4838	0.3815	0.9943	-0.403
Mof_O 	O 	0.5364	0.434	0.1498	-0.411
Mof_C 	C 	0.9208	0.1908	0.2423	0.091
Mof_H 	H 	0.9059	0.1489	0.2759	0.006
Mof_C 	C 	0.9657	0.1881	0.1458	-0.139
Mof_C 	C 	0.9841	0.1184	0.0921	0.383
Mof_O 	O 	0.0162	0.1185	0.9943	-0.404
Mof_O 	O 	0.9636	0.066	0.1498	-0.411
Mof_C 	C 	0.1908	0.5792	0.2423	0.09
Mof_H 	H 	0.1489	0.5941	0.2759	0.007
Mof_C 	C 	0.1881	0.5343	0.1458	-0.138
Mof_C 	C 	0.1184	0.5159	0.0921	0.381
Mof_O 	O 	0.1185	0.4838	0.9943	-0.403
Mof_O 	O 	0.066	0.5364	0.1498	-0.411
Mof_C 	C 	0.3092	0.9208	0.2423	0.091
Mof_H 	H 	0.3511	0.9059	0.2759	0.006
Mof_C 	C 	0.3119	0.9657	0.1458	-0.139
Mof_C 	C 	0.3816	0.9841	0.0921	0.382
Mof_O 	O 	0.3815	0.0162	0.9943	-0.404
Mof_O 	O 	0.434	0.9636	0.1498	-0.411
Mof_C 	C 	0.4208	0.8092	0.7577	0.09
Mof_H 	H 	0.4059	0.8511	0.7241	0.007
Mof_C 	C 	0.4657	0.8119	0.8542	-0.138
Mof_C 	C 	0.4841	0.8816	0.9079	0.381
Mof_O 	O 	0.5162	0.8815	0.0057	-0.403
Mof_O 	O 	0.4636	0.934	0.8502	-0.411
Mof_C 	C 	0.0792	0.6908	0.7577	0.091
Mof_H 	H 	0.0941	0.6489	0.7241	0.006
Mof_C 	C 	0.0343	0.6881	0.8542	-0.139
Mof_C 	C 	0.0159	0.6184	0.9079	0.382
Mof_O 	O 	0.9838	0.6185	0.0057	-0.404
Mof_O 	O 	0.0364	0.566	0.8502	-0.411
Mof_C 	C 	0.8092	0.0792	0.7577	0.091
Mof_H 	H 	0.8511	0.0941	0.7241	0.006
Mof_C 	C 	0.8119	0.0343	0.8542	-0.139
Mof_C 	C 	0.8816	0.0159	0.9079	0.383
Mof_O 	O 	0.8815	0.9838	0.0057	-0.404
Mof_O 	O 	0.934	0.0364	0.8502	-0.411
Mof_C 	C 	0.6908	0.4208	0.7577	0.09
Mof_H 	H 	0.6489	0.4059	0.7241	0.007
Mof_C 	C 	0.6881	0.4657	0.8542	-0.138
Mof_C 	C 	0.6184	0.4841	0.9079	0.381
Mof_O 	O 	0.6185	0.5162	0.0057	-0.403
Mof_O 	O 	0.566	0.4636	0.8502	-0.411
Mof_C 	C 	0.4208	0.6908	0.7577	0.09
Mof_H 	H 	0.4059	0.6489	0.7241	0.007
Mof_C 	C 	0.4657	0.6881	0.8542	-0.138
Mof_C 	C 	0.4841	0.6184	0.9079	0.381
Mof_O 	O 	0.5162	0.6185	0.0057	-0.403
Mof_O 	O 	0.4636	0.566	0.8502	-0.411
Mof_C 	C 	0.0792	0.8092	0.7577	0.091
Mof_H 	H 	0.0941	0.8511	0.7241	0.006
Mof_C 	C 	0.0343	0.8119	0.8542	-0.139
Mof_C 	C 	0.0159	0.8816	0.9079	0.383
Mof_O 	O 	0.9838	0.8815	0.0057	-0.404
Mof_O 	O 	0.0364	0.934	0.8502	-0.411
Mof_C 	C 	0.8092	0.4208	0.7577	0.09
Mof_H 	H 	0.8511	0.4059	0.7241	0.007
Mof_C 	C 	0.8119	0.4657	0.8542	-0.138
Mof_C 	C 	0.8816	0.4841	0.9079	0.381
Mof_O 	O 	0.8815	0.5162	0.0057	-0.403
Mof_O 	O 	0.934	0.4636	0.8502	-0.411
Mof_C 	C 	0.6908	0.0792	0.7577	0.091
Mof_H 	H 	0.6489	0.0941	0.7241	0.006
Mof_C 	C 	0.6881	0.0343	0.8542	-0.139
Mof_C 	C 	0.6184	0.0159	0.9079	0.382
Mof_O 	O 	0.6185	0.9838	0.0057	-0.404
Mof_O 	O 	0.566	0.0364	0.8502	-0.411
Mof_C 	C 	0.5792	0.1908	0.2423	0.09
Mof_H 	H 	0.5941	0.1489	0.2759	0.007
Mof_C 	C 	0.5343	0.1881	0.1458	-0.138
Mof_C 	C 	0.5159	0.1184	0.0921	0.381
Mof_O 	O 	0.4838	0.1185	0.9943	-0.403
Mof_O 	O 	0.5364	0.066	0.1498	-0.411
Mof_C 	C 	0.9208	0.3092	0.2423	0.091
Mof_H 	H 	0.9059	0.3511	0.2759	0.006
Mof_C 	C 	0.9657	0.3119	0.1458	-0.139
Mof_C 	C 	0.9841	0.3816	0.0921	0.382
Mof_O 	O 	0.0162	0.3815	0.9943	-0.404
Mof_O 	O 	0.9636	0.434	0.1498	-0.411
Mof_C 	C 	0.1908	0.9208	0.2423	0.091
Mof_H 	H 	0.1489	0.9059	0.2759	0.006
Mof_C 	C 	0.1881	0.9657	0.1458	-0.139
Mof_C 	C 	0.1184	0.9841	0.0921	0.383
Mof_O 	O 	0.1185	0.0162	0.9943	-0.404
Mof_O 	O 	0.066	0.9636	0.1498	-0.411
Mof_C 	C 	0.3092	0.5792	0.2423	0.09
Mof_H 	H 	0.3511	0.5941	0.2759	0.007
Mof_C 	C 	0.3119	0.5343	0.1458	-0.138
Mof_C 	C 	0.3816	0.5159	0.0921	0.381
Mof_O 	O 	0.3815	0.4838	0.9943	-0.403
Mof_O 	O 	0.434	0.5364	0.1498	-0.411
Mof_C 	C 	0.5117	0.25	0.0958	0.085
Mof_H 	H 	0.4819	0.25	0.0297	0.037
Mof_Cu	Cu	0.6808	0.25	0.4144	0.72
Mof_I 	I 	0.6292	0.25	0.6343	-0.561
Mof_N 	N 	0.6024	0.25	0.2903	-0.242
Mof_C 	C 	0.9883	0.25	0.0958	0.088
Mof_H 	H 	0.0181	0.25	0.0297	0.036
Mof_Cu	Cu	0.8192	0.25	0.4144	0.72
Mof_I 	I 	0.8708	0.25	0.6343	-0.561
Mof_N 	N 	0.8976	0.25	0.2903	-0.242
Mof_C 	C 	0.25	0.5117	0.0958	0.085
Mof_H 	H 	0.25	0.4819	0.0297	0.037
Mof_Cu	Cu	0.25	0.6808	0.4144	0.72
Mof_I 	I 	0.25	0.6292	0.6343	-0.561
Mof_N 	N 	0.25	0.6024	0.2903	-0.242
Mof_C 	C 	0.25	0.9883	0.0958	0.088
Mof_H 	H 	0.25	0.0181	0.0297	0.036
Mof_Cu	Cu	0.25	0.8192	0.4144	0.72
Mof_I 	I 	0.25	0.8708	0.6343	-0.561
Mof_N 	N 	0.25	0.8976	0.2903	-0.242
Mof_C 	C 	0.4883	0.75	0.9042	0.085
Mof_H 	H 	0.5181	0.75	0.9703	0.037
Mof_Cu	Cu	0.3192	0.75	0.5856	0.72
Mof_I 	I 	0.3708	0.75	0.3657	-0.561
Mof_N 	N 	0.3976	0.75	0.7097	-0.242
Mof_C 	C 	0.0117	0.75	0.9042	0.088
Mof_H 	H 	0.9819	0.75	0.9703	0.036
Mof_Cu	Cu	0.1808	0.75	0.5856	0.72
Mof_I 	I 	0.1292	0.75	0.3657	-0.561
Mof_N 	N 	0.1024	0.75	0.7097	-0.242
Mof_C 	C 	0.75	0.0117	0.9042	0.088
Mof_H 	H 	0.75	0.9819	0.9703	0.036
Mof_Cu	Cu	0.75	0.1808	0.5856	0.72
Mof_I 	I 	0.75	0.1292	0.3657	-0.561
Mof_N 	N 	0.75	0.1024	0.7097	-0.242
Mof_C 	C 	0.75	0.4883	0.9042	0.085
Mof_H 	H 	0.75	0.5181	0.9703	0.037
Mof_Cu	Cu	0.75	0.3192	0.5856	0.72
Mof_I 	I 	0.75	0.3708	0.3657	-0.561
Mof_N 	N 	0.75	0.3976	0.7097	-0.242
Mof_Cu	Cu	0.5309	0.5309	0.0934	0.908
Mof_Cu	Cu	0.9691	0.9691	0.0934	0.908
Mof_Cu	Cu	0.9691	0.5309	0.0934	0.909
Mof_Cu	Cu	0.5309	0.9691	0.0934	0.909
Mof_Cu	Cu	0.4691	0.0309	0.9066	0.909
Mof_Cu	Cu	0.0309	0.4691	0.9066	0.909
Mof_Cu	Cu	0.0309	0.0309	0.9066	0.908
Mof_Cu	Cu	0.4691	0.4691	0.9066	0.908
_end
