data_functionalizedCrystal
_audit_creation_method	'EQeq! by Chris Wilmer'
_symmetry_space_group_name_H-M	'P1'
_symmetry_Int_Tables_number	1
_symmetry_cell_setting	triclinic
loop_
_symmetry_equiv_pos_as_xyz
  x,y,z
_cell_length_a	10.438
_cell_length_b	10.438
_cell_length_c	13.853
_cell_angle_alpha	90
_cell_angle_beta	90
_cell_angle_gamma	90
loop_
_atom_site_label
_atom_site_type_symbol
_atom_site_fract_x
_atom_site_fract_y
_atom_site_fract_z
_atom_site_charge
Mof_La	La	0.39317	0.63319	0.81087	2.143
Mof_La	La	0.63319	0.60683	0.56087	2.116
Mof_La	La	0.60683	0.36681	0.31087	2.113
Mof_La	La	0.36681	0.39317	0.06087	2.056
Mof_H 	H 	0.6103	0.0301	0.566	-0.002
Mof_H 	H 	0.5088	0.0461	0.8474	0.008
Mof_H 	H 	0.6343	0.5083	0.9344	-0.065
Mof_H 	H 	0.0461	0.4912	0.5974	0.002
Mof_H 	H 	0.4917	0.6343	0.1844	-0.052
Mof_H 	H 	0.9699	0.6103	0.816	-0.003
Mof_H 	H 	0.0301	0.3897	0.316	-0.004
Mof_H 	H 	0.3657	0.4917	0.4344	-0.057
Mof_H 	H 	0.5083	0.3657	0.6844	-0.056
Mof_H 	H 	0.4912	0.9539	0.3474	0.002
Mof_H 	H 	0.9539	0.5088	0.0974	0.008
Mof_H 	H 	0.3897	0.9699	0.066	-0.01
Mof_C 	C 	0.4117	0.7326	0.0157	0.359
Mof_C 	C 	0.5883	0.2674	0.5157	0.411
Mof_C 	C 	0.0776	0.4165	0.37	0.143
Mof_C 	C 	0.9128	0.5242	0.0382	0.097
Mof_C 	C 	0.5663	0.2062	0.6127	-0.22
Mof_C 	C 	0.5099	0.2194	0.7812	-0.22
Mof_C 	C 	0.7079	0.4723	0.1179	0.421
Mof_C 	C 	0.7222	0.5254	0.9416	0.228
Mof_C 	C 	0.4388	0.9843	0.2084	-0.219
Mof_C 	C 	0.5612	0.0157	0.7084	-0.219
Mof_C 	C 	0.2921	0.5277	0.6179	0.414
Mof_C 	C 	0.2674	0.4117	0.2657	0.412
Mof_C 	C 	0.4337	0.7938	0.1127	-0.208
Mof_C 	C 	0.5254	0.2778	0.6916	0.165
Mof_C 	C 	0.4758	0.9128	0.2882	0.129
Mof_C 	C 	0.5689	0.8707	0.7141	0.475
Mof_C 	C 	0.5277	0.7079	0.3679	0.412
Mof_C 	C 	0.8707	0.4311	0.4641	0.475
Mof_C 	C 	0.4901	0.7806	0.2812	-0.22
Mof_C 	C 	0.1293	0.5689	0.9641	0.516
Mof_C 	C 	0.4746	0.7222	0.1916	0.155
Mof_C 	C 	0.5835	0.0776	0.62	0.142
Mof_C 	C 	0.2062	0.4337	0.3627	-0.223
Mof_C 	C 	0.2778	0.4746	0.4416	0.167
Mof_C 	C 	0.7326	0.5883	0.7657	0.419
Mof_C 	C 	0.0157	0.4388	0.4584	-0.222
Mof_C 	C 	0.4311	0.1293	0.2141	0.471
Mof_C 	C 	0.7938	0.5663	0.8627	-0.235
Mof_C 	C 	0.4723	0.2921	0.8679	0.411
Mof_C 	C 	0.2194	0.4901	0.5312	-0.225
Mof_C 	C 	0.9843	0.5612	0.9584	-0.19
Mof_C 	C 	0.9224	0.5835	0.87	0.148
Mof_C 	C 	0.5242	0.0872	0.7882	0.132
Mof_C 	C 	0.4165	0.9224	0.12	0.131
Mof_C 	C 	0.0872	0.4758	0.5382	0.134
Mof_C 	C 	0.7806	0.5099	0.0312	-0.268
Mof_O 	O 	0.6126	0.5575	0.7532	-0.575
Mof_O 	O 	0.1808	0.5403	0.0445	-0.542
Mof_O 	O 	0.5078	0.7565	0.4506	-0.461
Mof_O 	O 	0.5403	0.8192	0.7945	-0.511
Mof_O 	O 	0.5794	0.5956	0.3616	-0.58
Mof_O 	O 	0.7565	0.4922	0.2006	-0.464
Mof_O 	O 	0.4425	0.6126	0.0032	-0.575
Mof_O 	O 	0.4206	0.4044	0.8616	-0.569
Mof_O 	O 	0.4039	0.1888	0.1396	-0.554
Mof_O 	O 	0.1888	0.5961	0.8896	-0.557
Mof_O 	O 	0.5575	0.3874	0.5032	-0.572
Mof_O 	O 	0.798	0.6318	0.6983	-0.455
Mof_O 	O 	0.8112	0.4039	0.3896	-0.553
Mof_O 	O 	0.4044	0.5794	0.6116	-0.583
Mof_O 	O 	0.6318	0.202	0.4483	-0.454
Mof_O 	O 	0.3682	0.798	0.9483	-0.412
Mof_O 	O 	0.3874	0.4425	0.2532	-0.568
Mof_O 	O 	0.4922	0.2435	0.9506	-0.433
Mof_O 	O 	0.4597	0.1808	0.2945	-0.513
Mof_O 	O 	0.2435	0.5078	0.7006	-0.462
Mof_O 	O 	0.8192	0.4597	0.5445	-0.513
Mof_O 	O 	0.5956	0.4206	0.1116	-0.587
Mof_O 	O 	0.5961	0.8112	0.6396	-0.553
Mof_O 	O 	0.202	0.3682	0.1983	-0.451
_end
