data_functionalizedCrystal
_audit_creation_method	'EQeq! by Chris Wilmer'
_symmetry_space_group_name_H-M	'P1'
_symmetry_Int_Tables_number	1
_symmetry_cell_setting	triclinic
loop_
_symmetry_equiv_pos_as_xyz
  x,y,z
_cell_length_a	30.802
_cell_length_b	15.945
_cell_length_c	16.4738
_cell_angle_alpha	90
_cell_angle_beta	90
_cell_angle_gamma	90
loop_
_atom_site_label
_atom_site_type_symbol
_atom_site_fract_x
_atom_site_fract_y
_atom_site_fract_z
_atom_site_charge
Mof_S 	S 	0.33263	0.68268	0.51054	0.503
Mof_O 	O 	0.28887	0.9619	0.2478	-0.344
Mof_O 	O 	0.25092	0.845	0.2742	-0.282
Mof_O 	O 	0.42533	0.0152	0.3875	-0.397
Mof_O 	O 	0.44179	0.9457	0.5005	-0.379
Mof_O 	O 	0.37482	0.6442	0.5131	-0.282
Mof_O 	O 	0.30156	0.6324	0.4657	-0.336
Mof_O 	O 	0.3167	0.7081	0.5897	-0.262
Mof_N 	N 	0.2847	0.5553	0.0643	-0.376
Mof_N 	N 	0.2892	0.549	0.8931	-0.226
Mof_N 	N 	0.28776	0.945	0.0802	-0.223
Mof_N 	N 	0.4821	0.9213	0.0872	-0.392
Mof_C 	C 	0.3091	0.7996	0.3968	0.014
Mof_H 	H 	0.2852	0.7636	0.3867	0.027
Mof_C 	C 	0.3394	0.7785	0.4548	-0.128
Mof_C 	C 	0.3744	0.8299	0.4702	0.054
Mof_H 	H 	0.3953	0.8139	0.5096	0.029
Mof_C 	C 	0.3793	0.9049	0.4286	-0.144
Mof_C 	C 	0.3489	0.9264	0.3694	0.055
Mof_H 	H 	0.3522	0.9773	0.3401	0.059
Mof_C 	C 	0.3137	0.874	0.3528	-0.101
Mof_C 	C 	0.2815	0.8941	0.2867	0.33
Mof_C 	C 	0.4177	0.9603	0.4389	0.421
Mof_C 	C 	0.3315	0.942	0.0897	0.136
Mof_H 	H 	0.3441	0.9714	0.134	0.009
Mof_C 	C 	0.2706	0.9028	0.0154	0.103
Mof_C 	C 	0.3416	0.8558	0.9728	0.226
Mof_C 	C 	0.2975	0.8606	0.9626	-0.191
Mof_H 	H 	0.2849	0.8335	0.917	0.119
Mof_C 	C 	0.3583	0.8988	0.0387	-0.228
Mof_H 	H 	0.3887	0.8983	0.0485	0.121
Mof_C 	C 	0.3706	0.8033	0.9198	-0.294
Mof_H 	H 	0.3676	0.7439	0.9362	0.127
Mof_H 	H 	0.4011	0.8201	0.9297	0.127
Mof_C 	C 	0.3614	0.8102	0.8285	0.066
Mof_H 	H 	0.3303	0.8234	0.8208	0.034
Mof_H 	H 	0.3784	0.8575	0.8062	0.033
Mof_C 	C 	0.3722	0.7311	0.7804	-0.266
Mof_H 	H 	0.3664	0.7403	0.7219	0.126
Mof_H 	H 	0.4033	0.7169	0.787	0.109
Mof_C 	C 	0.3446	0.6612	0.8116	0.143
Mof_C 	C 	0.3003	0.6599	0.7969	-0.19
Mof_H 	H 	0.288	0.6975	0.7584	0.12
Mof_C 	C 	0.2741	0.6049	0.8375	0.102
Mof_H 	H 	0.2438	0.6058	0.8264	-0.012
Mof_C 	C 	0.3324	0.545	0.901	0.043
Mof_H 	H 	0.3442	0.5035	0.9361	0.022
Mof_C 	C 	0.3613	0.5985	0.8606	-0.095
Mof_C 	C 	0.306	0.5126	0.1208	0.478
Mof_H 	H 	0.3038	0.4532	0.1193	-0.124
Mof_C 	C 	0.2867	0.639	0.0703	0.447
Mof_H 	H 	0.272	0.6725	0.0313	-0.121
Mof_C 	C 	0.3093	0.6774	0.1314	-0.835
Mof_H 	H 	0.3092	0.7369	0.1346	0.34
Mof_C 	C 	0.3306	0.5469	0.1804	-0.884
Mof_H 	H 	0.3464	0.512	0.2165	0.325
Mof_C 	C 	0.3323	0.6322	0.1881	1.182
Mof_C 	C 	0.3596	0.6742	0.2496	-2.375
Mof_H 	H 	0.3403	0.7011	0.29	0.703
Mof_H 	H 	0.3767	0.6309	0.2784	0.672
Mof_C 	C 	0.3852	0.7286	0.2227	2.194
Mof_H 	H 	0.3684	0.7812	0.2174	-0.592
Mof_H 	H 	0.3931	0.7111	0.167	-0.585
Mof_C 	C 	0.4265	0.7509	0.2646	-1.539
Mof_H 	H 	0.446	0.7016	0.2677	0.441
Mof_H 	H 	0.4207	0.7712	0.3203	0.464
Mof_C 	C 	0.4483	0.8243	0.2101	0.832
Mof_C 	C 	0.4449	0.9034	0.207	-1.021
Mof_H 	H 	0.429	0.9317	0.2481	0.405
Mof_C 	C 	0.4666	0.7852	0.1398	-0.519
Mof_H 	H 	0.4647	0.7263	0.1318	0.202
Mof_C 	C 	0.4621	0.9458	0.1504	0.786
Mof_H 	H 	0.4597	0.0049	0.1562	-0.281
Mof_C 	C 	0.488	0.8384	0.0814	0.252
Mof_H 	H 	0.5058	0.8152	0.04	-0.069
Mof_S 	S 	0.16737	0.31732	0.51054	0.499
Mof_O 	O 	0.21113	0.0381	0.2478	-0.404
Mof_O 	O 	0.24908	0.155	0.2742	-0.3
Mof_O 	O 	0.07467	0.9848	0.3875	-0.217
Mof_O 	O 	0.05821	0.0543	0.5005	-0.386
Mof_O 	O 	0.12518	0.3558	0.5131	-0.282
Mof_O 	O 	0.19844	0.3676	0.4657	-0.334
Mof_O 	O 	0.1833	0.2919	0.5897	-0.268
Mof_N 	N 	0.2153	0.4447	0.0643	-0.349
Mof_N 	N 	0.2108	0.451	0.8931	-0.226
Mof_N 	N 	0.21224	0.055	0.0802	-0.248
Mof_N 	N 	0.0179	0.0787	0.0872	-0.29
Mof_C 	C 	0.1909	0.2004	0.3968	0.008
Mof_H 	H 	0.2148	0.2364	0.3867	0.031
Mof_C 	C 	0.1606	0.2215	0.4548	-0.116
Mof_C 	C 	0.1256	0.1701	0.4702	0.02
Mof_H 	H 	0.1047	0.1861	0.5096	0.036
Mof_C 	C 	0.1207	0.0951	0.4286	-0.099
Mof_C 	C 	0.1511	0.0736	0.3694	0.02
Mof_H 	H 	0.1478	0.0227	0.3401	0.025
Mof_C 	C 	0.1863	0.126	0.3528	-0.105
Mof_C 	C 	0.2185	0.1059	0.2867	0.328
Mof_C 	C 	0.0823	0.0397	0.4389	0.222
Mof_C 	C 	0.1685	0.058	0.0897	0.121
Mof_H 	H 	0.1559	0.0286	0.134	-0.022
Mof_C 	C 	0.2294	0.0972	0.0154	0.055
Mof_C 	C 	0.1584	0.1442	0.9728	0.215
Mof_C 	C 	0.2025	0.1394	0.9626	-0.184
Mof_H 	H 	0.2151	0.1665	0.917	0.109
Mof_C 	C 	0.1417	0.1012	0.0387	-0.248
Mof_H 	H 	0.1113	0.1017	0.0485	0.109
Mof_C 	C 	0.1294	0.1967	0.9198	-0.303
Mof_H 	H 	0.1324	0.2561	0.9362	0.129
Mof_H 	H 	0.0989	0.1799	0.9297	0.123
Mof_C 	C 	0.1386	0.1898	0.8285	0.08
Mof_H 	H 	0.1697	0.1766	0.8208	0.016
Mof_H 	H 	0.1216	0.1425	0.8062	0.007
Mof_C 	C 	0.1278	0.2689	0.7804	-0.273
Mof_H 	H 	0.1336	0.2597	0.7219	0.121
Mof_H 	H 	0.0967	0.2831	0.787	0.106
Mof_C 	C 	0.1554	0.3388	0.8116	0.145
Mof_C 	C 	0.1997	0.3401	0.7969	-0.19
Mof_H 	H 	0.212	0.3025	0.7584	0.119
Mof_C 	C 	0.2259	0.3951	0.8375	0.102
Mof_H 	H 	0.2562	0.3942	0.8264	-0.01
Mof_C 	C 	0.1676	0.455	0.901	0.043
Mof_H 	H 	0.1558	0.4965	0.9361	0.019
Mof_C 	C 	0.1387	0.4015	0.8606	-0.101
Mof_C 	C 	0.194	0.4874	0.1208	0.404
Mof_H 	H 	0.1962	0.5468	0.1193	-0.1
Mof_C 	C 	0.2133	0.361	0.0703	0.377
Mof_H 	H 	0.228	0.3275	0.0313	-0.098
Mof_C 	C 	0.1907	0.3226	0.1314	-0.702
Mof_H 	H 	0.1908	0.2631	0.1346	0.29
Mof_C 	C 	0.1694	0.4531	0.1804	-0.743
Mof_H 	H 	0.1536	0.488	0.2165	0.279
Mof_C 	C 	0.1677	0.3678	0.1881	0.968
Mof_C 	C 	0.1404	0.3258	0.2496	-1.914
Mof_H 	H 	0.1597	0.2989	0.29	0.574
Mof_H 	H 	0.1233	0.3691	0.2784	0.548
Mof_C 	C 	0.1148	0.2714	0.2227	1.707
Mof_H 	H 	0.1316	0.2188	0.2174	-0.453
Mof_H 	H 	0.1069	0.2889	0.167	-0.448
Mof_C 	C 	0.0735	0.2491	0.2646	-1.178
Mof_H 	H 	0.054	0.2984	0.2677	0.342
Mof_H 	H 	0.0793	0.2288	0.3203	0.362
Mof_C 	C 	0.0517	0.1757	0.2101	0.514
Mof_C 	C 	0.0551	0.0966	0.207	-0.527
Mof_H 	H 	0.071	0.0683	0.2481	0.201
Mof_C 	C 	0.0334	0.2148	0.1398	-0.333
Mof_H 	H 	0.0353	0.2737	0.1318	0.136
Mof_C 	C 	0.0379	0.0542	0.1504	0.223
Mof_H 	H 	0.0403	0.9951	0.1562	0.001
Mof_C 	C 	0.012	0.1616	0.0814	0.12
Mof_H 	H 	0.9942	0.1848	0.04	-0.017
Mof_S 	S 	0.66737	0.68268	0.98946	0.536
Mof_O 	O 	0.71113	0.9619	0.2522	-0.345
Mof_O 	O 	0.74908	0.845	0.2258	-0.282
Mof_O 	O 	0.57467	0.0152	0.1125	-0.393
Mof_O 	O 	0.55821	0.9457	0.9995	-0.359
Mof_O 	O 	0.62518	0.6442	0.9869	-0.281
Mof_O 	O 	0.69844	0.6324	0.0343	-0.356
Mof_O 	O 	0.6833	0.7081	0.9103	-0.266
Mof_N 	N 	0.7153	0.5553	0.4357	-0.369
Mof_N 	N 	0.7108	0.549	0.6069	-0.227
Mof_N 	N 	0.71224	0.945	0.4198	-0.223
Mof_N 	N 	0.5179	0.9213	0.4128	-0.388
Mof_C 	C 	0.6909	0.7996	0.1032	0.012
Mof_H 	H 	0.7148	0.7636	0.1133	0.026
Mof_C 	C 	0.6606	0.7785	0.0452	-0.134
Mof_C 	C 	0.6256	0.8299	0.0298	0.018
Mof_H 	H 	0.6047	0.8139	0.9904	0.052
Mof_C 	C 	0.6207	0.9049	0.0714	-0.127
Mof_C 	C 	0.6511	0.9264	0.1306	0.045
Mof_H 	H 	0.6478	0.9773	0.1599	0.062
Mof_C 	C 	0.6863	0.874	0.1472	-0.099
Mof_C 	C 	0.7185	0.8941	0.2133	0.328
Mof_C 	C 	0.5823	0.9603	0.0611	0.394
Mof_C 	C 	0.6685	0.942	0.4103	0.128
Mof_H 	H 	0.6559	0.9714	0.366	0.012
Mof_C 	C 	0.7294	0.9028	0.4846	0.123
Mof_C 	C 	0.6584	0.8558	0.5272	0.205
Mof_C 	C 	0.7025	0.8606	0.5374	-0.208
Mof_H 	H 	0.7151	0.8335	0.583	0.122
Mof_C 	C 	0.6417	0.8988	0.4613	-0.199
Mof_H 	H 	0.6113	0.8983	0.4515	0.116
Mof_C 	C 	0.6294	0.8033	0.5802	-0.28
Mof_H 	H 	0.6324	0.7439	0.5638	0.12
Mof_H 	H 	0.5989	0.8201	0.5703	0.118
Mof_C 	C 	0.6386	0.8102	0.6715	0.058
Mof_H 	H 	0.6697	0.8234	0.6792	0.036
Mof_H 	H 	0.6216	0.8575	0.6938	0.035
Mof_C 	C 	0.6278	0.7311	0.7196	-0.263
Mof_H 	H 	0.6336	0.7403	0.7781	0.125
Mof_H 	H 	0.5967	0.7169	0.713	0.108
Mof_C 	C 	0.6554	0.6612	0.6884	0.143
Mof_C 	C 	0.6997	0.6599	0.7031	-0.19
Mof_H 	H 	0.712	0.6975	0.7416	0.12
Mof_C 	C 	0.7259	0.6049	0.6625	0.101
Mof_H 	H 	0.7562	0.6058	0.6736	-0.012
Mof_C 	C 	0.6676	0.545	0.599	0.042
Mof_H 	H 	0.6558	0.5035	0.5639	0.017
Mof_C 	C 	0.6387	0.5985	0.6394	-0.097
Mof_C 	C 	0.694	0.5126	0.3792	0.475
Mof_H 	H 	0.6962	0.4532	0.3807	-0.121
Mof_C 	C 	0.7133	0.639	0.4297	0.443
Mof_H 	H 	0.728	0.6725	0.4687	-0.113
Mof_C 	C 	0.6907	0.6774	0.3686	-0.824
Mof_H 	H 	0.6908	0.7369	0.3654	0.338
Mof_C 	C 	0.6694	0.5469	0.3196	-0.873
Mof_H 	H 	0.6536	0.512	0.2835	0.322
Mof_C 	C 	0.6677	0.6322	0.3119	1.167
Mof_C 	C 	0.6404	0.6742	0.2504	-2.343
Mof_H 	H 	0.6597	0.7011	0.21	0.693
Mof_H 	H 	0.6233	0.6309	0.2216	0.663
Mof_C 	C 	0.6148	0.7286	0.2773	2.162
Mof_H 	H 	0.6316	0.7812	0.2826	-0.582
Mof_H 	H 	0.6069	0.7111	0.333	-0.574
Mof_C 	C 	0.5735	0.7509	0.2354	-1.519
Mof_H 	H 	0.554	0.7016	0.2323	0.435
Mof_H 	H 	0.5793	0.7712	0.1797	0.457
Mof_C 	C 	0.5517	0.8243	0.2899	0.823
Mof_C 	C 	0.5551	0.9034	0.293	-1.012
Mof_H 	H 	0.571	0.9317	0.2519	0.402
Mof_C 	C 	0.5334	0.7852	0.3602	-0.514
Mof_H 	H 	0.5353	0.7263	0.3682	0.202
Mof_C 	C 	0.5379	0.9458	0.3496	0.78
Mof_H 	H 	0.5403	0.0049	0.3438	-0.278
Mof_C 	C 	0.512	0.8384	0.4186	0.251
Mof_H 	H 	0.4942	0.8152	0.46	-0.063
Mof_S 	S 	0.83263	0.31732	0.98946	0.535
Mof_O 	O 	0.78887	0.0381	0.2522	-0.403
Mof_O 	O 	0.75092	0.155	0.2258	-0.3
Mof_O 	O 	0.92533	0.9848	0.1125	-0.206
Mof_O 	O 	0.94179	0.0543	0.9995	-0.351
Mof_O 	O 	0.87482	0.3558	0.9869	-0.276
Mof_O 	O 	0.80156	0.3676	0.0343	-0.355
Mof_O 	O 	0.8167	0.2919	0.9103	-0.271
Mof_N 	N 	0.7847	0.4447	0.4357	-0.348
Mof_N 	N 	0.7892	0.451	0.6069	-0.227
Mof_N 	N 	0.78776	0.055	0.4198	-0.248
Mof_N 	N 	0.9821	0.0787	0.4128	-0.3
Mof_C 	C 	0.8091	0.2004	0.1032	0.003
Mof_H 	H 	0.7852	0.2364	0.1133	0.03
Mof_C 	C 	0.8394	0.2215	0.0452	-0.12
Mof_C 	C 	0.8744	0.1701	0.0298	-0.025
Mof_H 	H 	0.8953	0.1861	0.9904	0.065
Mof_C 	C 	0.8793	0.0951	0.0714	-0.078
Mof_C 	C 	0.8489	0.0736	0.1306	0.006
Mof_H 	H 	0.8522	0.0227	0.1599	0.029
Mof_C 	C 	0.8137	0.126	0.1472	-0.1
Mof_C 	C 	0.7815	0.1059	0.2133	0.325
Mof_C 	C 	0.9177	0.0397	0.0611	0.189
Mof_C 	C 	0.8315	0.058	0.4103	0.112
Mof_H 	H 	0.8441	0.0286	0.366	-0.018
Mof_C 	C 	0.7706	0.0972	0.4846	0.078
Mof_C 	C 	0.8416	0.1442	0.5272	0.193
Mof_C 	C 	0.7975	0.1394	0.5374	-0.206
Mof_H 	H 	0.7849	0.1665	0.583	0.113
Mof_C 	C 	0.8583	0.1012	0.4613	-0.215
Mof_H 	H 	0.8887	0.1017	0.4515	0.103
Mof_C 	C 	0.8706	0.1967	0.5802	-0.291
Mof_H 	H 	0.8676	0.2561	0.5638	0.123
Mof_H 	H 	0.9011	0.1799	0.5703	0.118
Mof_C 	C 	0.8614	0.1898	0.6715	0.075
Mof_H 	H 	0.8303	0.1766	0.6792	0.018
Mof_H 	H 	0.8784	0.1425	0.6938	0.01
Mof_C 	C 	0.8722	0.2689	0.7196	-0.272
Mof_H 	H 	0.8664	0.2597	0.7781	0.123
Mof_H 	H 	0.9033	0.2831	0.713	0.109
Mof_C 	C 	0.8446	0.3388	0.6884	0.145
Mof_C 	C 	0.8003	0.3401	0.7031	-0.191
Mof_H 	H 	0.788	0.3025	0.7416	0.119
Mof_C 	C 	0.7741	0.3951	0.6625	0.101
Mof_H 	H 	0.7438	0.3942	0.6736	-0.009
Mof_C 	C 	0.8324	0.455	0.599	0.041
Mof_H 	H 	0.8442	0.4965	0.5639	0.016
Mof_C 	C 	0.8613	0.4015	0.6394	-0.101
Mof_C 	C 	0.806	0.4874	0.3792	0.416
Mof_H 	H 	0.8038	0.5468	0.3807	-0.102
Mof_C 	C 	0.7867	0.361	0.4297	0.388
Mof_H 	H 	0.772	0.3275	0.4687	-0.095
Mof_C 	C 	0.8093	0.3226	0.3686	-0.718
Mof_H 	H 	0.8092	0.2631	0.3654	0.298
Mof_C 	C 	0.8306	0.4531	0.3196	-0.76
Mof_H 	H 	0.8464	0.488	0.2835	0.286
Mof_C 	C 	0.8323	0.3678	0.3119	0.997
Mof_C 	C 	0.8596	0.3258	0.2504	-1.974
Mof_H 	H 	0.8403	0.2989	0.21	0.591
Mof_H 	H 	0.8767	0.3691	0.2216	0.565
Mof_C 	C 	0.8852	0.2714	0.2773	1.771
Mof_H 	H 	0.8684	0.2188	0.2826	-0.471
Mof_H 	H 	0.8931	0.2889	0.333	-0.463
Mof_C 	C 	0.9265	0.2491	0.2354	-1.227
Mof_H 	H 	0.946	0.2984	0.2323	0.362
Mof_H 	H 	0.9207	0.2288	0.1797	0.378
Mof_C 	C 	0.9483	0.1757	0.2899	0.562
Mof_C 	C 	0.9449	0.0966	0.293	-0.569
Mof_H 	H 	0.929	0.0683	0.2519	0.218
Mof_C 	C 	0.9666	0.2148	0.3602	-0.376
Mof_H 	H 	0.9647	0.2737	0.3682	0.162
Mof_C 	C 	0.9621	0.0542	0.3496	0.259
Mof_H 	H 	0.9597	0.9951	0.3438	-0.005
Mof_C 	C 	0.988	0.1616	0.4186	0.206
Mof_H 	H 	0.0058	0.1848	0.46	-0.063
Mof_S 	S 	0.66737	0.31732	0.48946	0.499
Mof_O 	O 	0.71113	0.0381	0.7522	-0.403
Mof_O 	O 	0.74908	0.155	0.7258	-0.299
Mof_O 	O 	0.57467	0.9848	0.6125	-0.216
Mof_O 	O 	0.55821	0.0543	0.4995	-0.383
Mof_O 	O 	0.62518	0.3558	0.4869	-0.28
Mof_O 	O 	0.69844	0.3676	0.5343	-0.334
Mof_O 	O 	0.6833	0.2919	0.4103	-0.267
Mof_N 	N 	0.7153	0.4447	0.9357	-0.34
Mof_N 	N 	0.7108	0.451	0.1069	-0.229
Mof_N 	N 	0.71224	0.055	0.9198	-0.247
Mof_N 	N 	0.5179	0.0787	0.9128	-0.291
Mof_C 	C 	0.6909	0.2004	0.6032	0.008
Mof_H 	H 	0.7148	0.2364	0.6133	0.032
Mof_C 	C 	0.6606	0.2215	0.5452	-0.115
Mof_C 	C 	0.6256	0.1701	0.5298	0.019
Mof_H 	H 	0.6047	0.1861	0.4904	0.037
Mof_C 	C 	0.6207	0.0951	0.5714	-0.099
Mof_C 	C 	0.6511	0.0736	0.6306	0.02
Mof_H 	H 	0.6478	0.0227	0.6599	0.026
Mof_C 	C 	0.6863	0.126	0.6472	-0.105
Mof_C 	C 	0.7185	0.1059	0.7133	0.327
Mof_C 	C 	0.5823	0.0397	0.5611	0.223
Mof_C 	C 	0.6685	0.058	0.9103	0.102
Mof_H 	H 	0.6559	0.0286	0.866	-0.013
Mof_C 	C 	0.7294	0.0972	0.9846	0.103
Mof_C 	C 	0.6584	0.1442	0.0272	0.167
Mof_C 	C 	0.7025	0.1394	0.0374	-0.227
Mof_H 	H 	0.7151	0.1665	0.083	0.116
Mof_C 	C 	0.6417	0.1012	0.9613	-0.18
Mof_H 	H 	0.6113	0.1017	0.9515	0.097
Mof_C 	C 	0.6294	0.1967	0.0802	-0.272
Mof_H 	H 	0.6324	0.2561	0.0638	0.113
Mof_H 	H 	0.5989	0.1799	0.0703	0.106
Mof_C 	C 	0.6386	0.1898	0.1715	0.063
Mof_H 	H 	0.6697	0.1766	0.1792	0.021
Mof_H 	H 	0.6216	0.1425	0.1938	0.011
Mof_C 	C 	0.6278	0.2689	0.2196	-0.265
Mof_H 	H 	0.6336	0.2597	0.2781	0.119
Mof_H 	H 	0.5967	0.2831	0.213	0.103
Mof_C 	C 	0.6554	0.3388	0.1884	0.143
Mof_C 	C 	0.6997	0.3401	0.2031	-0.19
Mof_H 	H 	0.712	0.3025	0.2416	0.118
Mof_C 	C 	0.7259	0.3951	0.1625	0.099
Mof_H 	H 	0.7562	0.3942	0.1736	-0.009
Mof_C 	C 	0.6676	0.455	0.099	0.041
Mof_H 	H 	0.6558	0.4965	0.0639	0.011
Mof_C 	C 	0.6387	0.4015	0.1394	-0.106
Mof_C 	C 	0.694	0.4874	0.8792	0.411
Mof_H 	H 	0.6962	0.5468	0.8807	-0.098
Mof_C 	C 	0.7133	0.361	0.9297	0.384
Mof_H 	H 	0.728	0.3275	0.9687	-0.086
Mof_C 	C 	0.6907	0.3226	0.8686	-0.705
Mof_H 	H 	0.6908	0.2631	0.8654	0.295
Mof_C 	C 	0.6694	0.4531	0.8196	-0.748
Mof_H 	H 	0.6536	0.488	0.7835	0.282
Mof_C 	C 	0.6677	0.3678	0.8119	0.979
Mof_C 	C 	0.6404	0.3258	0.7504	-1.936
Mof_H 	H 	0.6597	0.2989	0.71	0.58
Mof_H 	H 	0.6233	0.3691	0.7216	0.555
Mof_C 	C 	0.6148	0.2714	0.7773	1.731
Mof_H 	H 	0.6316	0.2188	0.7826	-0.459
Mof_H 	H 	0.6069	0.2889	0.833	-0.45
Mof_C 	C 	0.5735	0.2491	0.7354	-1.199
Mof_H 	H 	0.554	0.2984	0.7323	0.352
Mof_H 	H 	0.5793	0.2288	0.6797	0.37
Mof_C 	C 	0.5517	0.1757	0.7899	0.538
Mof_C 	C 	0.5551	0.0966	0.793	-0.55
Mof_H 	H 	0.571	0.0683	0.7519	0.211
Mof_C 	C 	0.5334	0.2148	0.8602	-0.353
Mof_H 	H 	0.5353	0.2737	0.8682	0.152
Mof_C 	C 	0.5379	0.0542	0.8496	0.247
Mof_H 	H 	0.5403	0.9951	0.8438	-0.004
Mof_C 	C 	0.512	0.1616	0.9186	0.166
Mof_H 	H 	0.4942	0.1848	0.96	-0.031
Mof_S 	S 	0.83263	0.68268	0.48946	0.501
Mof_O 	O 	0.78887	0.9619	0.7522	-0.346
Mof_O 	O 	0.75092	0.845	0.7258	-0.282
Mof_O 	O 	0.92533	0.0152	0.6125	-0.391
Mof_O 	O 	0.94179	0.9457	0.4995	-0.374
Mof_O 	O 	0.87482	0.6442	0.4869	-0.281
Mof_O 	O 	0.80156	0.6324	0.5343	-0.336
Mof_O 	O 	0.8167	0.7081	0.4103	-0.262
Mof_N 	N 	0.7847	0.5553	0.9357	-0.366
Mof_N 	N 	0.7892	0.549	0.1069	-0.228
Mof_N 	N 	0.78776	0.945	0.9198	-0.223
Mof_N 	N 	0.9821	0.9213	0.9128	-0.387
Mof_C 	C 	0.8091	0.7996	0.6032	0.013
Mof_H 	H 	0.7852	0.7636	0.6133	0.028
Mof_C 	C 	0.8394	0.7785	0.5452	-0.127
Mof_C 	C 	0.8744	0.8299	0.5298	0.053
Mof_H 	H 	0.8953	0.8139	0.4904	0.031
Mof_C 	C 	0.8793	0.9049	0.5714	-0.142
Mof_C 	C 	0.8489	0.9264	0.6306	0.054
Mof_H 	H 	0.8522	0.9773	0.6599	0.059
Mof_C 	C 	0.8137	0.874	0.6472	-0.101
Mof_C 	C 	0.7815	0.8941	0.7133	0.33
Mof_C 	C 	0.9177	0.9603	0.5611	0.418
Mof_C 	C 	0.8315	0.942	0.9103	0.12
Mof_H 	H 	0.8441	0.9714	0.866	0.016
Mof_C 	C 	0.7706	0.9028	0.9846	0.142
Mof_C 	C 	0.8416	0.8558	0.0272	0.185
Mof_C 	C 	0.7975	0.8606	0.0374	-0.226
Mof_H 	H 	0.7849	0.8335	0.083	0.125
Mof_C 	C 	0.8583	0.8988	0.9613	-0.17
Mof_H 	H 	0.8887	0.8983	0.9515	0.111
Mof_C 	C 	0.8706	0.8033	0.0802	-0.267
Mof_H 	H 	0.8676	0.7439	0.0638	0.113
Mof_H 	H 	0.9011	0.8201	0.0703	0.112
Mof_C 	C 	0.8614	0.8102	0.1715	0.051
Mof_H 	H 	0.8303	0.8234	0.1792	0.038
Mof_H 	H 	0.8784	0.8575	0.1938	0.037
Mof_C 	C 	0.8722	0.7311	0.2196	-0.26
Mof_H 	H 	0.8664	0.7403	0.2781	0.124
Mof_H 	H 	0.9033	0.7169	0.213	0.107
Mof_C 	C 	0.8446	0.6612	0.1884	0.142
Mof_C 	C 	0.8003	0.6599	0.2031	-0.19
Mof_H 	H 	0.788	0.6975	0.2416	0.119
Mof_C 	C 	0.7741	0.6049	0.1625	0.1
Mof_H 	H 	0.7438	0.6058	0.1736	-0.011
Mof_C 	C 	0.8324	0.545	0.099	0.041
Mof_H 	H 	0.8442	0.5035	0.0639	0.013
Mof_C 	C 	0.8613	0.5985	0.1394	-0.099
Mof_C 	C 	0.806	0.5126	0.8792	0.482
Mof_H 	H 	0.8038	0.4532	0.8807	-0.121
Mof_C 	C 	0.7867	0.639	0.9297	0.45
Mof_H 	H 	0.772	0.6725	0.9687	-0.108
Mof_C 	C 	0.8093	0.6774	0.8686	-0.833
Mof_H 	H 	0.8092	0.7369	0.8654	0.343
Mof_C 	C 	0.8306	0.5469	0.8196	-0.883
Mof_H 	H 	0.8464	0.512	0.7835	0.327
Mof_C 	C 	0.8323	0.6322	0.8119	1.185
Mof_C 	C 	0.8596	0.6742	0.7504	-2.379
Mof_H 	H 	0.8403	0.7011	0.71	0.704
Mof_H 	H 	0.8767	0.6309	0.7216	0.675
Mof_C 	C 	0.8852	0.7286	0.7773	2.199
Mof_H 	H 	0.8684	0.7812	0.7826	-0.593
Mof_H 	H 	0.8931	0.7111	0.833	-0.582
Mof_C 	C 	0.9265	0.7509	0.7354	-1.545
Mof_H 	H 	0.946	0.7016	0.7323	0.448
Mof_H 	H 	0.9207	0.7712	0.6797	0.467
Mof_C 	C 	0.9483	0.8243	0.7899	0.842
Mof_C 	C 	0.9449	0.9034	0.793	-1.021
Mof_H 	H 	0.929	0.9317	0.7519	0.406
Mof_C 	C 	0.9666	0.7852	0.8602	-0.531
Mof_H 	H 	0.9647	0.7263	0.8682	0.215
Mof_C 	C 	0.9621	0.9458	0.8496	0.783
Mof_H 	H 	0.9597	0.0049	0.8438	-0.272
Mof_C 	C 	0.988	0.8384	0.9186	0.292
Mof_H 	H 	0.0058	0.8152	0.96	-0.081
Mof_S 	S 	0.33263	0.31732	0.01054	0.462
Mof_O 	O 	0.28887	0.0381	0.7478	-0.403
Mof_O 	O 	0.25092	0.155	0.7742	-0.3
Mof_O 	O 	0.42533	0.9848	0.8875	-0.223
Mof_O 	O 	0.44179	0.0543	0.0005	-0.406
Mof_O 	O 	0.37482	0.3558	0.0131	-0.282
Mof_O 	O 	0.30156	0.3676	0.9657	-0.313
Mof_O 	O 	0.3167	0.2919	0.0897	-0.263
Mof_N 	N 	0.2847	0.4447	0.5643	-0.347
Mof_N 	N 	0.2892	0.451	0.3931	-0.227
Mof_N 	N 	0.28776	0.055	0.5802	-0.247
Mof_N 	N 	0.4821	0.0787	0.5872	-0.297
Mof_C 	C 	0.3091	0.2004	0.8968	0.011
Mof_H 	H 	0.2852	0.2364	0.8867	0.033
Mof_C 	C 	0.3394	0.2215	0.9548	-0.11
Mof_C 	C 	0.3744	0.1701	0.9702	0.062
Mof_H 	H 	0.3953	0.1861	0.0096	0.011
Mof_C 	C 	0.3793	0.0951	0.9286	-0.119
Mof_C 	C 	0.3489	0.0736	0.8694	0.033
Mof_H 	H 	0.3522	0.0227	0.8401	0.022
Mof_C 	C 	0.3137	0.126	0.8528	-0.108
Mof_C 	C 	0.2815	0.1059	0.7867	0.33
Mof_C 	C 	0.4177	0.0397	0.9389	0.258
Mof_C 	C 	0.3315	0.058	0.5897	0.111
Mof_H 	H 	0.3441	0.0286	0.634	-0.017
Mof_C 	C 	0.2706	0.0972	0.5154	0.078
Mof_C 	C 	0.3416	0.1442	0.4728	0.191
Mof_C 	C 	0.2975	0.1394	0.4626	-0.205
Mof_H 	H 	0.2849	0.1665	0.417	0.112
Mof_C 	C 	0.3583	0.1012	0.5387	-0.214
Mof_H 	H 	0.3887	0.1017	0.5485	0.103
Mof_C 	C 	0.3706	0.1967	0.4198	-0.288
Mof_H 	H 	0.3676	0.2561	0.4362	0.122
Mof_H 	H 	0.4011	0.1799	0.4297	0.115
Mof_C 	C 	0.3614	0.1898	0.3285	0.072
Mof_H 	H 	0.3303	0.1766	0.3208	0.018
Mof_H 	H 	0.3784	0.1425	0.3062	0.009
Mof_C 	C 	0.3722	0.2689	0.2804	-0.269
Mof_H 	H 	0.3664	0.2597	0.2219	0.12
Mof_H 	H 	0.4033	0.2831	0.287	0.105
Mof_C 	C 	0.3446	0.3388	0.3116	0.144
Mof_C 	C 	0.3003	0.3401	0.2969	-0.19
Mof_H 	H 	0.288	0.3025	0.2584	0.118
Mof_C 	C 	0.2741	0.3951	0.3375	0.1
Mof_H 	H 	0.2438	0.3942	0.3264	-0.009
Mof_C 	C 	0.3324	0.455	0.401	0.042
Mof_H 	H 	0.3442	0.4965	0.4361	0.015
Mof_C 	C 	0.3613	0.4015	0.3606	-0.103
Mof_C 	C 	0.306	0.4874	0.6208	0.415
Mof_H 	H 	0.3038	0.5468	0.6193	-0.101
Mof_C 	C 	0.2867	0.361	0.5703	0.387
Mof_H 	H 	0.272	0.3275	0.5313	-0.094
Mof_C 	C 	0.3093	0.3226	0.6314	-0.716
Mof_H 	H 	0.3092	0.2631	0.6346	0.297
Mof_C 	C 	0.3306	0.4531	0.6804	-0.758
Mof_H 	H 	0.3464	0.488	0.7165	0.285
Mof_C 	C 	0.3323	0.3678	0.6881	0.993
Mof_C 	C 	0.3596	0.3258	0.7496	-1.967
Mof_H 	H 	0.3403	0.2989	0.79	0.589
Mof_H 	H 	0.3767	0.3691	0.7784	0.565
Mof_C 	C 	0.3852	0.2714	0.7227	1.763
Mof_H 	H 	0.3684	0.2188	0.7174	-0.469
Mof_H 	H 	0.3931	0.2889	0.667	-0.461
Mof_C 	C 	0.4265	0.2491	0.7646	-1.217
Mof_H 	H 	0.446	0.2984	0.7677	0.358
Mof_H 	H 	0.4207	0.2288	0.8203	0.376
Mof_C 	C 	0.4483	0.1757	0.7101	0.545
Mof_C 	C 	0.4449	0.0966	0.707	-0.556
Mof_H 	H 	0.429	0.0683	0.7481	0.213
Mof_C 	C 	0.4666	0.2148	0.6398	-0.357
Mof_H 	H 	0.4647	0.2737	0.6318	0.151
Mof_C 	C 	0.4621	0.0542	0.6504	0.248
Mof_H 	H 	0.4597	0.9951	0.6562	-0.005
Mof_C 	C 	0.488	0.1616	0.5814	0.165
Mof_H 	H 	0.5058	0.1848	0.54	-0.038
Mof_S 	S 	0.16737	0.68268	0.01054	0.468
Mof_O 	O 	0.21113	0.9619	0.7478	-0.345
Mof_O 	O 	0.24908	0.845	0.7742	-0.282
Mof_O 	O 	0.07467	0.0152	0.8875	-0.401
Mof_O 	O 	0.05821	0.9457	0.0005	-0.401
Mof_O 	O 	0.12518	0.6442	0.0131	-0.286
Mof_O 	O 	0.19844	0.6324	0.9657	-0.317
Mof_O 	O 	0.1833	0.7081	0.0897	-0.258
Mof_N 	N 	0.2153	0.5553	0.5643	-0.369
Mof_N 	N 	0.2108	0.549	0.3931	-0.227
Mof_N 	N 	0.21224	0.945	0.5802	-0.223
Mof_N 	N 	0.0179	0.9213	0.5872	-0.382
Mof_C 	C 	0.1909	0.7996	0.8968	0.016
Mof_H 	H 	0.2148	0.7636	0.8867	0.029
Mof_C 	C 	0.1606	0.7785	0.9548	-0.122
Mof_C 	C 	0.1256	0.8299	0.9702	0.09
Mof_H 	H 	0.1047	0.8139	0.0096	0.006
Mof_C 	C 	0.1207	0.9049	0.9286	-0.16
Mof_C 	C 	0.1511	0.9264	0.8694	0.065
Mof_H 	H 	0.1478	0.9773	0.8401	0.056
Mof_C 	C 	0.1863	0.874	0.8528	-0.104
Mof_C 	C 	0.2185	0.8941	0.7867	0.332
Mof_C 	C 	0.0823	0.9603	0.9389	0.444
Mof_C 	C 	0.1685	0.942	0.5897	0.128
Mof_H 	H 	0.1559	0.9714	0.634	0.012
Mof_C 	C 	0.2294	0.9028	0.5154	0.123
Mof_C 	C 	0.1584	0.8558	0.4728	0.205
Mof_C 	C 	0.2025	0.8606	0.4626	-0.208
Mof_H 	H 	0.2151	0.8335	0.417	0.122
Mof_C 	C 	0.1417	0.8988	0.5387	-0.198
Mof_H 	H 	0.1113	0.8983	0.5485	0.116
Mof_C 	C 	0.1294	0.8033	0.4198	-0.277
Mof_H 	H 	0.1324	0.7439	0.4362	0.118
Mof_H 	H 	0.0989	0.8201	0.4297	0.116
Mof_C 	C 	0.1386	0.8102	0.3285	0.055
Mof_H 	H 	0.1697	0.8234	0.3208	0.037
Mof_H 	H 	0.1216	0.8575	0.3062	0.035
Mof_C 	C 	0.1278	0.7311	0.2804	-0.26
Mof_H 	H 	0.1336	0.7403	0.2219	0.122
Mof_H 	H 	0.0967	0.7169	0.287	0.104
Mof_C 	C 	0.1554	0.6612	0.3116	0.141
Mof_C 	C 	0.1997	0.6599	0.2969	-0.19
Mof_H 	H 	0.212	0.6975	0.2584	0.119
Mof_C 	C 	0.2259	0.6049	0.3375	0.101
Mof_H 	H 	0.2562	0.6058	0.3264	-0.011
Mof_C 	C 	0.1676	0.545	0.401	0.043
Mof_H 	H 	0.1558	0.5035	0.4361	0.016
Mof_C 	C 	0.1387	0.5985	0.3606	-0.099
Mof_C 	C 	0.194	0.5126	0.6208	0.473
Mof_H 	H 	0.1962	0.4532	0.6193	-0.12
Mof_C 	C 	0.2133	0.639	0.5703	0.442
Mof_H 	H 	0.228	0.6725	0.5313	-0.112
Mof_C 	C 	0.1907	0.6774	0.6314	-0.821
Mof_H 	H 	0.1908	0.7369	0.6346	0.337
Mof_C 	C 	0.1694	0.5469	0.6804	-0.87
Mof_H 	H 	0.1536	0.512	0.7165	0.321
Mof_C 	C 	0.1677	0.6322	0.6881	1.162
Mof_C 	C 	0.1404	0.6742	0.7496	-2.333
Mof_H 	H 	0.1597	0.7011	0.79	0.691
Mof_H 	H 	0.1233	0.6309	0.7784	0.662
Mof_C 	C 	0.1148	0.7286	0.7227	2.15
Mof_H 	H 	0.1316	0.7812	0.7174	-0.579
Mof_H 	H 	0.1069	0.7111	0.667	-0.571
Mof_C 	C 	0.0735	0.7509	0.7646	-1.508
Mof_H 	H 	0.054	0.7016	0.7677	0.431
Mof_H 	H 	0.0793	0.7712	0.8203	0.454
Mof_C 	C 	0.0517	0.8243	0.7101	0.805
Mof_C 	C 	0.0551	0.9034	0.707	-0.995
Mof_H 	H 	0.071	0.9317	0.7481	0.395
Mof_C 	C 	0.0334	0.7852	0.6398	-0.494
Mof_H 	H 	0.0353	0.7263	0.6318	0.192
Mof_C 	C 	0.0379	0.9458	0.6504	0.765
Mof_H 	H 	0.0403	0.0049	0.6562	-0.275
Mof_C 	C 	0.012	0.8384	0.5814	0.212
Mof_H 	H 	0.9942	0.8152	0.54	-0.038
Mof_Cu	Cu	0.25	1.55999e-33	0.16274	0.872
Mof_Cu	Cu	0.75	6.23998e-33	0.33726	0.873
Mof_Cu	Cu	0.75	6.23998e-33	0.83726	0.874
Mof_Cu	Cu	0.25	6.23998e-33	0.66274	0.873
Mof_Cu	Cu	0.25	0.5	0.97636	0.898
Mof_Cu	Cu	0.75	0.5	0.52364	0.892
Mof_Cu	Cu	0.75	0.5	0.02364	0.885
Mof_Cu	Cu	0.25	0.5	0.47636	0.892
Mof_Cu	Cu	0.5	0	0.5	0.87
Mof_Cu	Cu	1.00264e-33	0	0.5	0.862
Mof_Cu	Cu	0.5	0	-0	0.862
Mof_Cu	Cu	-0	0	-0	0.854
_end
