data_functionalizedCrystal
_audit_creation_method	'EQeq! by Chris Wilmer'
_symmetry_space_group_name_H-M	'P1'
_symmetry_Int_Tables_number	1
_symmetry_cell_setting	triclinic
loop_
_symmetry_equiv_pos_as_xyz
  x,y,z
_cell_length_a	29.923
_cell_length_b	29.923
_cell_length_c	37.639
_cell_angle_alpha	90
_cell_angle_beta	90
_cell_angle_gamma	120
loop_
_atom_site_label
_atom_site_type_symbol
_atom_site_fract_x
_atom_site_fract_y
_atom_site_fract_z
_atom_site_charge
Mof_Zn	Zn	0.6312	0.26318	0.31519	1.085
Mof_O 	O 	0.7407	0.2854	0.3163	-0.476
Mof_O 	O 	0.7575	0.3212	0.2947	-0.506
Mof_O 	O 	0.6847	0.2743	0.2742	-0.823
Mof_O 	O 	0.8996	0.3456	0.1165	-0.159
Mof_O 	O 	0.9379	0.3062	0.0771	-0.152
Mof_C 	C 	0.7233	0.278	0.2813	0.731
Mof_C 	C 	0.7468	0.2543	0.2577	-0.365
Mof_C 	C 	0.7248	0.2346	0.227	0.264
Mof_H 	H 	0.6944	0.2338	0.2205	-0.049
Mof_C 	C 	0.7472	0.2149	0.2042	-0.301
Mof_H 	H 	0.7321	0.2023	0.1822	0.139
Mof_C 	C 	0.7911	0.2132	0.2131	0.211
Mof_C 	C 	0.8149	0.2374	0.2446	-0.308
Mof_H 	H 	0.8456	0.2389	0.2512	0.143
Mof_C 	C 	0.7943	0.2587	0.2657	0.257
Mof_H 	H 	0.812	0.2766	0.2859	-0.034
Mof_C 	C 	0.8123	0.189	0.1893	-0.115
Mof_C 	C 	0.8017	0.138	0.1959	0.052
Mof_C 	C 	0.8448	0.218	0.1605	0.053
Mof_C 	C 	0.8563	0.2687	0.1538	-0.153
Mof_H 	H 	0.8432	0.2836	0.1692	0.09
Mof_C 	C 	0.8864	0.2981	0.1252	0.106
Mof_C 	C 	0.8758	0.3699	0.1366	-0.24
Mof_H 	H 	0.8827	0.4013	0.125	0.11
Mof_H 	H 	0.8898	0.3775	0.1602	0.105
Mof_H 	H 	0.8392	0.3468	0.1378	0.11
Mof_C 	C 	0.9088	0.274	0.1029	0.109
Mof_C 	C 	0.8979	0.2264	0.1089	-0.16
Mof_H 	H 	0.9122	0.2121	0.094	0.089
Mof_C 	C 	0.9589	0.2851	0.0515	-0.261
Mof_H 	H 	0.9754	0.3094	0.0325	0.131
Mof_H 	H 	0.9314	0.2535	0.0419	0.119
Mof_H 	H 	0.9836	0.2784	0.063	0.118
Mof_Zn	Zn	0.29787	0.59651	0.64852	1.086
Mof_O 	O 	0.40737	0.61873	0.64963	-0.475
Mof_O 	O 	0.42417	0.65453	0.62803	-0.505
Mof_O 	O 	0.35137	0.60763	0.60753	-0.822
Mof_O 	O 	0.56627	0.67893	0.44983	-0.158
Mof_O 	O 	0.60457	0.63953	0.41043	-0.153
Mof_C 	C 	0.38997	0.61133	0.61463	0.732
Mof_C 	C 	0.41347	0.58763	0.59103	-0.363
Mof_C 	C 	0.39147	0.56793	0.56033	0.264
Mof_H 	H 	0.36107	0.56713	0.55383	-0.048
Mof_C 	C 	0.41387	0.54823	0.53753	-0.3
Mof_H 	H 	0.39877	0.53563	0.51553	0.14
Mof_C 	C 	0.45777	0.54653	0.54643	0.212
Mof_C 	C 	0.48157	0.57073	0.57793	-0.307
Mof_H 	H 	0.51227	0.57223	0.58453	0.143
Mof_C 	C 	0.46097	0.59203	0.59903	0.257
Mof_H 	H 	0.47867	0.60993	0.61923	-0.034
Mof_C 	C 	0.47897	0.52233	0.52263	-0.114
Mof_C 	C 	0.46837	0.47133	0.52923	0.05
Mof_C 	C 	0.51147	0.55133	0.49383	0.052
Mof_C 	C 	0.52297	0.60203	0.48713	-0.153
Mof_H 	H 	0.50987	0.61693	0.50253	0.09
Mof_C 	C 	0.55307	0.63143	0.45853	0.105
Mof_C 	C 	0.54247	0.70323	0.46993	-0.239
Mof_H 	H 	0.54937	0.73463	0.45833	0.11
Mof_H 	H 	0.55647	0.71083	0.49353	0.105
Mof_H 	H 	0.50587	0.68013	0.47113	0.109
Mof_C 	C 	0.57547	0.60733	0.43623	0.11
Mof_C 	C 	0.56457	0.55973	0.44223	-0.161
Mof_H 	H 	0.57887	0.54543	0.42733	0.089
Mof_C 	C 	0.62557	0.61843	0.38483	-0.256
Mof_H 	H 	0.64207	0.64273	0.36583	0.127
Mof_H 	H 	0.59807	0.58683	0.37523	0.116
Mof_H 	H 	0.65027	0.61173	0.39633	0.115
Mof_Zn	Zn	0.96453	0.92985	0.98186	1.087
Mof_O 	O 	0.07403	0.95207	0.98297	-0.477
Mof_O 	O 	0.09083	0.98787	0.96137	-0.503
Mof_O 	O 	0.01803	0.94097	0.94087	-0.823
Mof_O 	O 	0.23293	0.01227	0.78317	-0.164
Mof_O 	O 	0.27123	0.97287	0.74377	-0.15
Mof_C 	C 	0.05663	0.94467	0.94797	0.732
Mof_C 	C 	0.08013	0.92097	0.92437	-0.364
Mof_C 	C 	0.05813	0.90127	0.89367	0.265
Mof_H 	H 	0.02773	0.90047	0.88717	-0.049
Mof_C 	C 	0.08053	0.88157	0.87087	-0.3
Mof_H 	H 	0.06543	0.86897	0.84887	0.139
Mof_C 	C 	0.12443	0.87987	0.87977	0.212
Mof_C 	C 	0.14823	0.90407	0.91127	-0.307
Mof_H 	H 	0.17893	0.90557	0.91787	0.143
Mof_C 	C 	0.12763	0.92537	0.93237	0.258
Mof_H 	H 	0.14533	0.94327	0.95257	-0.034
Mof_C 	C 	0.14563	0.85567	0.85597	-0.116
Mof_C 	C 	0.13503	0.80467	0.86257	0.051
Mof_C 	C 	0.17813	0.88467	0.82717	0.055
Mof_C 	C 	0.18963	0.93537	0.82047	-0.157
Mof_H 	H 	0.17653	0.95027	0.83587	0.093
Mof_C 	C 	0.21973	0.96477	0.79187	0.113
Mof_C 	C 	0.20913	0.03657	0.80327	-0.233
Mof_H 	H 	0.21603	0.06797	0.79167	0.107
Mof_H 	H 	0.22313	0.04417	0.82687	0.102
Mof_H 	H 	0.17253	0.01347	0.80447	0.106
Mof_C 	C 	0.24213	0.94067	0.76957	0.107
Mof_C 	C 	0.23123	0.89307	0.77557	-0.158
Mof_H 	H 	0.24553	0.87877	0.76067	0.088
Mof_C 	C 	0.29223	0.95177	0.71817	-0.259
Mof_H 	H 	0.30873	0.97607	0.69917	0.129
Mof_H 	H 	0.26473	0.92017	0.70857	0.118
Mof_H 	H 	0.31693	0.94507	0.72967	0.117
Mof_Zn	Zn	0.73682	0.36802	0.31519	1.086
Mof_O 	O 	0.7146	0.4553	0.3163	-0.476
Mof_O 	O 	0.6788	0.4363	0.2947	-0.505
Mof_O 	O 	0.7257	0.4104	0.2742	-0.822
Mof_O 	O 	0.6544	0.554	0.1165	-0.158
Mof_O 	O 	0.6938	0.6317	0.0771	-0.152
Mof_C 	C 	0.722	0.4453	0.2813	0.732
Mof_C 	C 	0.7457	0.4925	0.2577	-0.363
Mof_C 	C 	0.7654	0.4902	0.227	0.264
Mof_H 	H 	0.7662	0.4606	0.2205	-0.048
Mof_C 	C 	0.7851	0.5323	0.2042	-0.3
Mof_H 	H 	0.7977	0.5298	0.1822	0.14
Mof_C 	C 	0.7868	0.5779	0.2131	0.211
Mof_C 	C 	0.7626	0.5775	0.2446	-0.307
Mof_H 	H 	0.7611	0.6067	0.2512	0.142
Mof_C 	C 	0.7413	0.5356	0.2657	0.257
Mof_H 	H 	0.7234	0.5354	0.2859	-0.034
Mof_C 	C 	0.811	0.6233	0.1893	-0.114
Mof_C 	C 	0.862	0.6637	0.1959	0.049
Mof_C 	C 	0.782	0.6268	0.1605	0.052
Mof_C 	C 	0.7313	0.5876	0.1538	-0.153
Mof_H 	H 	0.7164	0.5596	0.1692	0.09
Mof_C 	C 	0.7019	0.5883	0.1252	0.105
Mof_C 	C 	0.6301	0.5059	0.1366	-0.239
Mof_H 	H 	0.5987	0.4814	0.125	0.11
Mof_H 	H 	0.6225	0.5123	0.1602	0.105
Mof_H 	H 	0.6532	0.4924	0.1378	0.11
Mof_C 	C 	0.726	0.6348	0.1029	0.11
Mof_C 	C 	0.7736	0.6715	0.1089	-0.161
Mof_H 	H 	0.7879	0.7001	0.094	0.089
Mof_C 	C 	0.7149	0.6738	0.0515	-0.257
Mof_H 	H 	0.6906	0.666	0.0325	0.128
Mof_H 	H 	0.7465	0.6779	0.0419	0.117
Mof_H 	H 	0.7216	0.7052	0.063	0.116
Mof_Zn	Zn	0.40349	0.70135	0.64852	1.086
Mof_O 	O 	0.38127	0.78863	0.64963	-0.476
Mof_O 	O 	0.34547	0.76963	0.62803	-0.506
Mof_O 	O 	0.39237	0.74373	0.60753	-0.823
Mof_O 	O 	0.32107	0.88733	0.44983	-0.159
Mof_O 	O 	0.36047	0.96503	0.41043	-0.147
Mof_C 	C 	0.38867	0.77863	0.61463	0.733
Mof_C 	C 	0.41237	0.82583	0.59103	-0.365
Mof_C 	C 	0.43207	0.82353	0.56033	0.266
Mof_H 	H 	0.43287	0.79393	0.55383	-0.048
Mof_C 	C 	0.45177	0.86563	0.53753	-0.302
Mof_H 	H 	0.46437	0.86313	0.51553	0.141
Mof_C 	C 	0.45347	0.91123	0.54643	0.214
Mof_C 	C 	0.42927	0.91083	0.57793	-0.309
Mof_H 	H 	0.42777	0.94003	0.58453	0.144
Mof_C 	C 	0.40797	0.86893	0.59903	0.259
Mof_H 	H 	0.39007	0.86873	0.61923	-0.034
Mof_C 	C 	0.47767	0.95663	0.52263	-0.117
Mof_C 	C 	0.52867	0.99703	0.52923	0.056
Mof_C 	C 	0.44867	0.96013	0.49383	0.059
Mof_C 	C 	0.39797	0.92093	0.48713	-0.155
Mof_H 	H 	0.38307	0.89293	0.50253	0.091
Mof_C 	C 	0.36857	0.92163	0.45853	0.106
Mof_C 	C 	0.29677	0.83923	0.46993	-0.238
Mof_H 	H 	0.26537	0.81473	0.45833	0.109
Mof_H 	H 	0.28917	0.84563	0.49353	0.104
Mof_H 	H 	0.31987	0.82573	0.47113	0.109
Mof_C 	C 	0.39267	0.96813	0.43623	0.113
Mof_C 	C 	0.44027	0.00483	0.44223	-0.165
Mof_H 	H 	0.45457	0.03343	0.42733	0.089
Mof_C 	C 	0.38157	0.00713	0.38483	-0.284
Mof_H 	H 	0.35727	0.99933	0.36583	0.139
Mof_H 	H 	0.41317	0.01123	0.37523	0.123
Mof_H 	H 	0.38827	0.03853	0.39633	0.122
Mof_Zn	Zn	0.07015	0.03469	0.98186	1.084
Mof_O 	O 	0.04793	0.12197	0.98297	-0.478
Mof_O 	O 	0.01213	0.10297	0.96137	-0.509
Mof_O 	O 	0.05903	0.07707	0.94087	-0.825
Mof_O 	O 	0.98773	0.22067	0.78317	-0.152
Mof_O 	O 	0.02713	0.29837	0.74377	-0.156
Mof_C 	C 	0.05533	0.11197	0.94797	0.734
Mof_C 	C 	0.07903	0.15917	0.92437	-0.366
Mof_C 	C 	0.09873	0.15687	0.89367	0.266
Mof_H 	H 	0.09953	0.12727	0.88717	-0.049
Mof_C 	C 	0.11843	0.19897	0.87087	-0.301
Mof_H 	H 	0.13103	0.19647	0.84887	0.14
Mof_C 	C 	0.12013	0.24457	0.87977	0.212
Mof_C 	C 	0.09593	0.24417	0.91127	-0.309
Mof_H 	H 	0.09443	0.27337	0.91787	0.143
Mof_C 	C 	0.07463	0.20227	0.93237	0.259
Mof_H 	H 	0.05673	0.20207	0.95257	-0.036
Mof_C 	C 	0.14433	0.28997	0.85597	-0.114
Mof_C 	C 	0.19533	0.33037	0.86257	0.05
Mof_C 	C 	0.11533	0.29347	0.82717	0.05
Mof_C 	C 	0.06463	0.25427	0.82047	-0.149
Mof_H 	H 	0.04973	0.22627	0.83587	0.087
Mof_C 	C 	0.03523	0.25497	0.79187	0.098
Mof_C 	C 	0.96343	0.17257	0.80327	-0.244
Mof_H 	H 	0.93203	0.14807	0.79167	0.111
Mof_H 	H 	0.95583	0.17897	0.82687	0.107
Mof_H 	H 	0.98653	0.15907	0.80447	0.113
Mof_C 	C 	0.05933	0.30147	0.76957	0.113
Mof_C 	C 	0.10693	0.33817	0.77557	-0.163
Mof_H 	H 	0.12123	0.36677	0.76067	0.09
Mof_C 	C 	0.04823	0.34047	0.71817	-0.252
Mof_H 	H 	0.02393	0.33267	0.69917	0.125
Mof_H 	H 	0.07983	0.34457	0.70857	0.115
Mof_H 	H 	0.05493	0.37187	0.72967	0.114
Mof_Zn	Zn	0.63198	0.3688	0.31519	1.086
Mof_O 	O 	0.5447	0.2593	0.3163	-0.475
Mof_O 	O 	0.5637	0.2425	0.2947	-0.505
Mof_O 	O 	0.5896	0.3153	0.2742	-0.822
Mof_O 	O 	0.446	0.1004	0.1165	-0.158
Mof_O 	O 	0.3683	0.0621	0.0771	-0.153
Mof_C 	C 	0.5547	0.2767	0.2813	0.732
Mof_C 	C 	0.5075	0.2532	0.2577	-0.363
Mof_C 	C 	0.5098	0.2752	0.227	0.264
Mof_H 	H 	0.5394	0.3056	0.2205	-0.048
Mof_C 	C 	0.4677	0.2528	0.2042	-0.3
Mof_H 	H 	0.4702	0.2679	0.1822	0.14
Mof_C 	C 	0.4221	0.2089	0.2131	0.212
Mof_C 	C 	0.4225	0.1851	0.2446	-0.307
Mof_H 	H 	0.3933	0.1544	0.2512	0.143
Mof_C 	C 	0.4644	0.2057	0.2657	0.257
Mof_H 	H 	0.4646	0.188	0.2859	-0.034
Mof_C 	C 	0.3767	0.1877	0.1893	-0.114
Mof_C 	C 	0.3363	0.1983	0.1959	0.05
Mof_C 	C 	0.3732	0.1552	0.1605	0.052
Mof_C 	C 	0.4124	0.1437	0.1538	-0.153
Mof_H 	H 	0.4404	0.1568	0.1692	0.09
Mof_C 	C 	0.4117	0.1136	0.1252	0.105
Mof_C 	C 	0.4941	0.1242	0.1366	-0.238
Mof_H 	H 	0.5186	0.1173	0.125	0.109
Mof_H 	H 	0.4877	0.1102	0.1602	0.104
Mof_H 	H 	0.5076	0.1608	0.1378	0.109
Mof_C 	C 	0.3652	0.0912	0.1029	0.11
Mof_C 	C 	0.3285	0.1021	0.1089	-0.161
Mof_H 	H 	0.2999	0.0878	0.094	0.089
Mof_C 	C 	0.3262	0.0411	0.0515	-0.254
Mof_H 	H 	0.334	0.0246	0.0325	0.126
Mof_H 	H 	0.3221	0.0686	0.0419	0.116
Mof_H 	H 	0.2948	0.0164	0.063	0.114
Mof_Zn	Zn	0.29865	0.70213	0.64852	1.086
Mof_O 	O 	0.21137	0.59263	0.64963	-0.475
Mof_O 	O 	0.23037	0.57583	0.62803	-0.505
Mof_O 	O 	0.25627	0.64863	0.60753	-0.822
Mof_O 	O 	0.11267	0.43373	0.44983	-0.158
Mof_O 	O 	0.03497	0.39543	0.41043	-0.159
Mof_C 	C 	0.22137	0.61003	0.61463	0.732
Mof_C 	C 	0.17417	0.58653	0.59103	-0.362
Mof_C 	C 	0.17647	0.60853	0.56033	0.263
Mof_H 	H 	0.20607	0.63893	0.55383	-0.047
Mof_C 	C 	0.13437	0.58613	0.53753	-0.298
Mof_H 	H 	0.13687	0.60123	0.51553	0.139
Mof_C 	C 	0.08877	0.54223	0.54643	0.209
Mof_C 	C 	0.08917	0.51843	0.57793	-0.305
Mof_H 	H 	0.05997	0.48773	0.58453	0.141
Mof_C 	C 	0.13107	0.53903	0.59903	0.255
Mof_H 	H 	0.13127	0.52133	0.61923	-0.033
Mof_C 	C 	0.04337	0.52103	0.52263	-0.111
Mof_C 	C 	0.00297	0.53163	0.52923	0.045
Mof_C 	C 	0.03987	0.48853	0.49383	0.046
Mof_C 	C 	0.07907	0.47703	0.48713	-0.151
Mof_H 	H 	0.10707	0.49013	0.50253	0.089
Mof_C 	C 	0.07837	0.44693	0.45853	0.105
Mof_C 	C 	0.16077	0.45753	0.46993	-0.239
Mof_H 	H 	0.18527	0.45063	0.45833	0.109
Mof_H 	H 	0.15437	0.44353	0.49353	0.105
Mof_H 	H 	0.17427	0.49413	0.47113	0.109
Mof_C 	C 	0.03187	0.42453	0.43623	0.107
Mof_C 	C 	0.99517	0.43543	0.44223	-0.156
Mof_H 	H 	0.96657	0.42113	0.42733	0.088
Mof_C 	C 	0.99287	0.37443	0.38483	-0.226
Mof_H 	H 	0.00067	0.35793	0.36583	0.115
Mof_H 	H 	0.98877	0.40193	0.37523	0.109
Mof_H 	H 	0.96147	0.34973	0.39633	0.107
Mof_Zn	Zn	0.96531	0.03547	0.98186	1.086
Mof_O 	O 	0.87803	0.92597	0.98297	-0.476
Mof_O 	O 	0.89703	0.90917	0.96137	-0.505
Mof_O 	O 	0.92293	0.98197	0.94087	-0.819
Mof_O 	O 	0.77933	0.76707	0.78317	-0.158
Mof_O 	O 	0.70163	0.72877	0.74377	-0.153
Mof_C 	C 	0.88803	0.94337	0.94797	0.731
Mof_C 	C 	0.84083	0.91987	0.92437	-0.362
Mof_C 	C 	0.84313	0.94187	0.89367	0.264
Mof_H 	H 	0.87273	0.97227	0.88717	-0.046
Mof_C 	C 	0.80103	0.91947	0.87087	-0.299
Mof_H 	H 	0.80353	0.93457	0.84887	0.14
Mof_C 	C 	0.75543	0.87557	0.87977	0.211
Mof_C 	C 	0.75583	0.85177	0.91127	-0.307
Mof_H 	H 	0.72663	0.82107	0.91787	0.142
Mof_C 	C 	0.79773	0.87237	0.93237	0.256
Mof_H 	H 	0.79793	0.85467	0.95257	-0.034
Mof_C 	C 	0.71003	0.85437	0.85597	-0.114
Mof_C 	C 	0.66963	0.86497	0.86257	0.05
Mof_C 	C 	0.70653	0.82187	0.82717	0.052
Mof_C 	C 	0.74573	0.81037	0.82047	-0.153
Mof_H 	H 	0.77373	0.82347	0.83587	0.09
Mof_C 	C 	0.74503	0.78027	0.79187	0.105
Mof_C 	C 	0.82743	0.79087	0.80327	-0.239
Mof_H 	H 	0.85193	0.78397	0.79167	0.11
Mof_H 	H 	0.82103	0.77687	0.82687	0.105
Mof_H 	H 	0.84093	0.82747	0.80447	0.11
Mof_C 	C 	0.69853	0.75787	0.76957	0.11
Mof_C 	C 	0.66183	0.76877	0.77557	-0.161
Mof_H 	H 	0.63323	0.75447	0.76067	0.089
Mof_C 	C 	0.65953	0.70777	0.71817	-0.256
Mof_H 	H 	0.66733	0.69127	0.69917	0.127
Mof_H 	H 	0.65543	0.73527	0.70857	0.116
Mof_H 	H 	0.62813	0.68307	0.72967	0.115
Mof_Zn	Zn	0.3688	0.73682	0.68481	1.086
Mof_O 	O 	0.2593	0.7146	0.6837	-0.475
Mof_O 	O 	0.2425	0.6788	0.7053	-0.505
Mof_O 	O 	0.3153	0.7257	0.7258	-0.822
Mof_O 	O 	0.1004	0.6544	0.8835	-0.159
Mof_O 	O 	0.0621	0.6938	0.9229	-0.155
Mof_C 	C 	0.2767	0.722	0.7187	0.732
Mof_C 	C 	0.2532	0.7457	0.7423	-0.363
Mof_C 	C 	0.2752	0.7654	0.773	0.264
Mof_H 	H 	0.3056	0.7662	0.7795	-0.048
Mof_C 	C 	0.2528	0.7851	0.7958	-0.299
Mof_H 	H 	0.2679	0.7977	0.8178	0.14
Mof_C 	C 	0.2089	0.7868	0.7869	0.211
Mof_C 	C 	0.1851	0.7626	0.7554	-0.307
Mof_H 	H 	0.1544	0.7611	0.7488	0.142
Mof_C 	C 	0.2057	0.7413	0.7343	0.257
Mof_H 	H 	0.188	0.7234	0.7141	-0.034
Mof_C 	C 	0.1877	0.811	0.8107	-0.113
Mof_C 	C 	0.1983	0.862	0.8041	0.049
Mof_C 	C 	0.1552	0.782	0.8395	0.052
Mof_C 	C 	0.1437	0.7313	0.8462	-0.153
Mof_H 	H 	0.1568	0.7164	0.8308	0.09
Mof_C 	C 	0.1136	0.7019	0.8748	0.105
Mof_C 	C 	0.1242	0.6301	0.8634	-0.238
Mof_H 	H 	0.1173	0.5987	0.875	0.109
Mof_H 	H 	0.1102	0.6225	0.8398	0.104
Mof_H 	H 	0.1608	0.6532	0.8622	0.109
Mof_C 	C 	0.0912	0.726	0.8971	0.11
Mof_C 	C 	0.1021	0.7736	0.8911	-0.162
Mof_H 	H 	0.0878	0.7879	0.906	0.089
Mof_C 	C 	0.0411	0.7149	0.9485	-0.251
Mof_H 	H 	0.0246	0.6906	0.9675	0.124
Mof_H 	H 	0.0686	0.7465	0.9581	0.114
Mof_H 	H 	0.0164	0.7216	0.937	0.112
Mof_Zn	Zn	0.03547	0.07015	0.01814	1.086
Mof_O 	O 	0.92597	0.04793	0.01703	-0.474
Mof_O 	O 	0.90917	0.01213	0.03863	-0.507
Mof_O 	O 	0.98197	0.05903	0.05913	-0.82
Mof_O 	O 	0.76707	0.98773	0.21683	-0.153
Mof_O 	O 	0.72877	0.02713	0.25623	-0.155
Mof_C 	C 	0.94337	0.05533	0.05203	0.731
Mof_C 	C 	0.91987	0.07903	0.07563	-0.362
Mof_C 	C 	0.94187	0.09873	0.10633	0.263
Mof_H 	H 	0.97227	0.09953	0.11283	-0.046
Mof_C 	C 	0.91947	0.11843	0.12913	-0.299
Mof_H 	H 	0.93457	0.13103	0.15113	0.14
Mof_C 	C 	0.87557	0.12013	0.12023	0.211
Mof_C 	C 	0.85177	0.09593	0.08873	-0.306
Mof_H 	H 	0.82107	0.09443	0.08213	0.142
Mof_C 	C 	0.87237	0.07463	0.06763	0.256
Mof_H 	H 	0.85467	0.05673	0.04743	-0.034
Mof_C 	C 	0.85437	0.14433	0.14403	-0.113
Mof_C 	C 	0.86497	0.19533	0.13743	0.05
Mof_C 	C 	0.82187	0.11533	0.17283	0.05
Mof_C 	C 	0.81037	0.06463	0.17953	-0.15
Mof_H 	H 	0.82347	0.04973	0.16413	0.088
Mof_C 	C 	0.78027	0.03523	0.20813	0.098
Mof_C 	C 	0.79087	0.96343	0.19673	-0.244
Mof_H 	H 	0.78397	0.93203	0.20833	0.111
Mof_H 	H 	0.77687	0.95583	0.17313	0.107
Mof_H 	H 	0.82747	0.98653	0.19553	0.112
Mof_C 	C 	0.75787	0.05933	0.23043	0.112
Mof_C 	C 	0.76877	0.10693	0.22443	-0.163
Mof_H 	H 	0.75447	0.12123	0.23933	0.09
Mof_C 	C 	0.70777	0.04823	0.28183	-0.253
Mof_H 	H 	0.69127	0.02393	0.30083	0.125
Mof_H 	H 	0.73527	0.07983	0.29143	0.115
Mof_H 	H 	0.68307	0.05493	0.27033	0.114
Mof_Zn	Zn	0.70213	0.40349	0.35148	1.086
Mof_O 	O 	0.59263	0.38127	0.35037	-0.475
Mof_O 	O 	0.57583	0.34547	0.37197	-0.505
Mof_O 	O 	0.64863	0.39237	0.39247	-0.822
Mof_O 	O 	0.43373	0.32107	0.55017	-0.158
Mof_O 	O 	0.39543	0.36047	0.58957	-0.153
Mof_C 	C 	0.61003	0.38867	0.38537	0.732
Mof_C 	C 	0.58653	0.41237	0.40897	-0.363
Mof_C 	C 	0.60853	0.43207	0.43967	0.264
Mof_H 	H 	0.63893	0.43287	0.44617	-0.048
Mof_C 	C 	0.58613	0.45177	0.46247	-0.3
Mof_H 	H 	0.60123	0.46437	0.48447	0.14
Mof_C 	C 	0.54223	0.45347	0.45357	0.212
Mof_C 	C 	0.51843	0.42927	0.42207	-0.307
Mof_H 	H 	0.48773	0.42777	0.41547	0.143
Mof_C 	C 	0.53903	0.40797	0.40097	0.257
Mof_H 	H 	0.52133	0.39007	0.38077	-0.034
Mof_C 	C 	0.52103	0.47767	0.47737	-0.114
Mof_C 	C 	0.53163	0.52867	0.47077	0.05
Mof_C 	C 	0.48853	0.44867	0.50617	0.052
Mof_C 	C 	0.47703	0.39797	0.51287	-0.153
Mof_H 	H 	0.49013	0.38307	0.49747	0.09
Mof_C 	C 	0.44693	0.36857	0.54147	0.105
Mof_C 	C 	0.45753	0.29677	0.53007	-0.238
Mof_H 	H 	0.45063	0.26537	0.54167	0.109
Mof_H 	H 	0.44353	0.28917	0.50647	0.104
Mof_H 	H 	0.49413	0.31987	0.52887	0.109
Mof_C 	C 	0.42453	0.39267	0.56377	0.11
Mof_C 	C 	0.43543	0.44027	0.55777	-0.161
Mof_H 	H 	0.42113	0.45457	0.57267	0.089
Mof_C 	C 	0.37443	0.38157	0.61517	-0.255
Mof_H 	H 	0.35793	0.35727	0.63417	0.127
Mof_H 	H 	0.40193	0.41317	0.62477	0.116
Mof_H 	H 	0.34973	0.38827	0.60367	0.115
Mof_Zn	Zn	0.26318	0.63198	0.68481	1.086
Mof_O 	O 	0.2854	0.5447	0.6837	-0.476
Mof_O 	O 	0.3212	0.5637	0.7053	-0.505
Mof_O 	O 	0.2743	0.5896	0.7258	-0.822
Mof_O 	O 	0.3456	0.446	0.8835	-0.158
Mof_O 	O 	0.3062	0.3683	0.9229	-0.153
Mof_C 	C 	0.278	0.5547	0.7187	0.732
Mof_C 	C 	0.2543	0.5075	0.7423	-0.364
Mof_C 	C 	0.2346	0.5098	0.773	0.265
Mof_H 	H 	0.2338	0.5394	0.7795	-0.048
Mof_C 	C 	0.2149	0.4677	0.7958	-0.3
Mof_H 	H 	0.2023	0.4702	0.8178	0.14
Mof_C 	C 	0.2132	0.4221	0.7869	0.212
Mof_C 	C 	0.2374	0.4225	0.7554	-0.307
Mof_H 	H 	0.2389	0.3933	0.7488	0.143
Mof_C 	C 	0.2587	0.4644	0.7343	0.257
Mof_H 	H 	0.2766	0.4646	0.7141	-0.034
Mof_C 	C 	0.189	0.3767	0.8107	-0.115
Mof_C 	C 	0.138	0.3363	0.8041	0.052
Mof_C 	C 	0.218	0.3732	0.8395	0.053
Mof_C 	C 	0.2687	0.4124	0.8462	-0.153
Mof_H 	H 	0.2836	0.4404	0.8308	0.09
Mof_C 	C 	0.2981	0.4117	0.8748	0.105
Mof_C 	C 	0.3699	0.4941	0.8634	-0.238
Mof_H 	H 	0.4013	0.5186	0.875	0.109
Mof_H 	H 	0.3775	0.4877	0.8398	0.104
Mof_H 	H 	0.3468	0.5076	0.8622	0.109
Mof_C 	C 	0.274	0.3652	0.8971	0.11
Mof_C 	C 	0.2264	0.3285	0.8911	-0.161
Mof_H 	H 	0.2121	0.2999	0.906	0.089
Mof_C 	C 	0.2851	0.3262	0.9485	-0.254
Mof_H 	H 	0.3094	0.334	0.9675	0.126
Mof_H 	H 	0.2535	0.3221	0.9581	0.116
Mof_H 	H 	0.2784	0.2948	0.937	0.114
Mof_Zn	Zn	0.92985	0.96531	0.01814	1.088
Mof_O 	O 	0.95207	0.87803	0.01703	-0.473
Mof_O 	O 	0.98787	0.89703	0.03863	-0.502
Mof_O 	O 	0.94097	0.92293	0.05913	-0.819
Mof_O 	O 	0.01227	0.77933	0.21683	-0.164
Mof_O 	O 	0.97287	0.70163	0.25623	-0.15
Mof_C 	C 	0.94467	0.88803	0.05203	0.73
Mof_C 	C 	0.92097	0.84083	0.07563	-0.361
Mof_C 	C 	0.90127	0.84313	0.10633	0.263
Mof_H 	H 	0.90047	0.87273	0.11283	-0.047
Mof_C 	C 	0.88157	0.80103	0.12913	-0.298
Mof_H 	H 	0.86897	0.80353	0.15113	0.139
Mof_C 	C 	0.87987	0.75543	0.12023	0.211
Mof_C 	C 	0.90407	0.75583	0.08873	-0.305
Mof_H 	H 	0.90557	0.72663	0.08213	0.142
Mof_C 	C 	0.92537	0.79773	0.06763	0.256
Mof_H 	H 	0.94327	0.79793	0.04743	-0.032
Mof_C 	C 	0.85567	0.71003	0.14403	-0.115
Mof_C 	C 	0.80467	0.66963	0.13743	0.051
Mof_C 	C 	0.88467	0.70653	0.17283	0.054
Mof_C 	C 	0.93537	0.74573	0.17953	-0.156
Mof_H 	H 	0.95027	0.77373	0.16413	0.093
Mof_C 	C 	0.96477	0.74503	0.20813	0.112
Mof_C 	C 	0.03657	0.82743	0.19673	-0.234
Mof_H 	H 	0.06797	0.85193	0.20833	0.108
Mof_H 	H 	0.04417	0.82103	0.17313	0.103
Mof_H 	H 	0.01347	0.84093	0.19553	0.107
Mof_C 	C 	0.94067	0.69853	0.23043	0.107
Mof_C 	C 	0.89307	0.66183	0.22443	-0.158
Mof_H 	H 	0.87877	0.63323	0.23933	0.088
Mof_C 	C 	0.95177	0.65953	0.28183	-0.258
Mof_H 	H 	0.97607	0.66733	0.30083	0.129
Mof_H 	H 	0.92017	0.65543	0.29143	0.117
Mof_H 	H 	0.94507	0.62813	0.27033	0.116
Mof_Zn	Zn	0.59651	0.29865	0.35148	1.086
Mof_O 	O 	0.61873	0.21137	0.35037	-0.475
Mof_O 	O 	0.65453	0.23037	0.37197	-0.505
Mof_O 	O 	0.60763	0.25627	0.39247	-0.822
Mof_O 	O 	0.67893	0.11267	0.55017	-0.158
Mof_O 	O 	0.63953	0.03497	0.58957	-0.159
Mof_C 	C 	0.61133	0.22137	0.38537	0.732
Mof_C 	C 	0.58763	0.17417	0.40897	-0.362
Mof_C 	C 	0.56793	0.17647	0.43967	0.263
Mof_H 	H 	0.56713	0.20607	0.44617	-0.047
Mof_C 	C 	0.54823	0.13437	0.46247	-0.298
Mof_H 	H 	0.53563	0.13687	0.48447	0.139
Mof_C 	C 	0.54653	0.08877	0.45357	0.209
Mof_C 	C 	0.57073	0.08917	0.42207	-0.305
Mof_H 	H 	0.57223	0.05997	0.41547	0.141
Mof_C 	C 	0.59203	0.13107	0.40097	0.255
Mof_H 	H 	0.60993	0.13127	0.38077	-0.033
Mof_C 	C 	0.52233	0.04337	0.47737	-0.111
Mof_C 	C 	0.47133	0.00297	0.47077	0.045
Mof_C 	C 	0.55133	0.03987	0.50617	0.046
Mof_C 	C 	0.60203	0.07907	0.51287	-0.151
Mof_H 	H 	0.61693	0.10707	0.49747	0.089
Mof_C 	C 	0.63143	0.07837	0.54147	0.105
Mof_C 	C 	0.70323	0.16077	0.53007	-0.239
Mof_H 	H 	0.73463	0.18527	0.54167	0.11
Mof_H 	H 	0.71083	0.15437	0.50647	0.105
Mof_H 	H 	0.68013	0.17427	0.52887	0.11
Mof_C 	C 	0.60733	0.03187	0.56377	0.107
Mof_C 	C 	0.55973	0.99517	0.55777	-0.157
Mof_H 	H 	0.54543	0.96657	0.57267	0.088
Mof_C 	C 	0.61843	0.99287	0.61517	-0.228
Mof_H 	H 	0.64273	0.00067	0.63417	0.116
Mof_H 	H 	0.58683	0.98877	0.62477	0.11
Mof_H 	H 	0.61173	0.96147	0.60367	0.108
Mof_Zn	Zn	0.36802	0.6312	0.68481	1.086
Mof_O 	O 	0.4553	0.7407	0.6837	-0.476
Mof_O 	O 	0.4363	0.7575	0.7053	-0.505
Mof_O 	O 	0.4104	0.6847	0.7258	-0.822
Mof_O 	O 	0.554	0.8996	0.8835	-0.158
Mof_O 	O 	0.6317	0.9379	0.9229	-0.152
Mof_C 	C 	0.4453	0.7233	0.7187	0.732
Mof_C 	C 	0.4925	0.7468	0.7423	-0.363
Mof_C 	C 	0.4902	0.7248	0.773	0.265
Mof_H 	H 	0.4606	0.6944	0.7795	-0.048
Mof_C 	C 	0.5323	0.7472	0.7958	-0.3
Mof_H 	H 	0.5298	0.7321	0.8178	0.14
Mof_C 	C 	0.5779	0.7911	0.7869	0.212
Mof_C 	C 	0.5775	0.8149	0.7554	-0.307
Mof_H 	H 	0.6067	0.8456	0.7488	0.143
Mof_C 	C 	0.5356	0.7943	0.7343	0.257
Mof_H 	H 	0.5354	0.812	0.7141	-0.034
Mof_C 	C 	0.6233	0.8123	0.8107	-0.114
Mof_C 	C 	0.6637	0.8017	0.8041	0.051
Mof_C 	C 	0.6268	0.8448	0.8395	0.053
Mof_C 	C 	0.5876	0.8563	0.8462	-0.153
Mof_H 	H 	0.5596	0.8432	0.8308	0.09
Mof_C 	C 	0.5883	0.8864	0.8748	0.105
Mof_C 	C 	0.5059	0.8758	0.8634	-0.239
Mof_H 	H 	0.4814	0.8827	0.875	0.11
Mof_H 	H 	0.5123	0.8898	0.8398	0.105
Mof_H 	H 	0.4924	0.8392	0.8622	0.109
Mof_C 	C 	0.6348	0.9088	0.8971	0.11
Mof_C 	C 	0.6715	0.8979	0.8911	-0.16
Mof_H 	H 	0.7001	0.9122	0.906	0.089
Mof_C 	C 	0.6738	0.9589	0.9485	-0.257
Mof_H 	H 	0.666	0.9754	0.9675	0.128
Mof_H 	H 	0.6779	0.9314	0.9581	0.117
Mof_H 	H 	0.7052	0.9836	0.937	0.116
Mof_Zn	Zn	0.03469	0.96453	0.01814	1.087
Mof_O 	O 	0.12197	0.07403	0.01703	-0.475
Mof_O 	O 	0.10297	0.09083	0.03863	-0.506
Mof_O 	O 	0.07707	0.01803	0.05913	-0.825
Mof_O 	O 	0.22067	0.23293	0.21683	-0.159
Mof_O 	O 	0.29837	0.27123	0.25623	-0.153
Mof_C 	C 	0.11197	0.05663	0.05203	0.733
Mof_C 	C 	0.15917	0.08013	0.07563	-0.364
Mof_C 	C 	0.15687	0.05813	0.10633	0.265
Mof_H 	H 	0.12727	0.02773	0.11283	-0.049
Mof_C 	C 	0.19897	0.08053	0.12913	-0.3
Mof_H 	H 	0.19647	0.06543	0.15113	0.139
Mof_C 	C 	0.24457	0.12443	0.12023	0.212
Mof_C 	C 	0.24417	0.14823	0.08873	-0.307
Mof_H 	H 	0.27337	0.17893	0.08213	0.143
Mof_C 	C 	0.20227	0.12763	0.06763	0.258
Mof_H 	H 	0.20207	0.14533	0.04743	-0.034
Mof_C 	C 	0.28997	0.14563	0.14403	-0.115
Mof_C 	C 	0.33037	0.13503	0.13743	0.051
Mof_C 	C 	0.29347	0.17813	0.17283	0.053
Mof_C 	C 	0.25427	0.18963	0.17953	-0.153
Mof_H 	H 	0.22627	0.17653	0.16413	0.09
Mof_C 	C 	0.25497	0.21973	0.20813	0.105
Mof_C 	C 	0.17257	0.20913	0.19673	-0.238
Mof_H 	H 	0.14807	0.21603	0.20833	0.109
Mof_H 	H 	0.17897	0.22313	0.17313	0.104
Mof_H 	H 	0.15907	0.17253	0.19553	0.109
Mof_C 	C 	0.30147	0.24213	0.23043	0.11
Mof_C 	C 	0.33817	0.23123	0.22443	-0.161
Mof_H 	H 	0.36677	0.24553	0.23933	0.089
Mof_C 	C 	0.34047	0.29223	0.28183	-0.255
Mof_H 	H 	0.33267	0.30873	0.30083	0.127
Mof_H 	H 	0.34457	0.26473	0.29143	0.116
Mof_H 	H 	0.37187	0.31693	0.27033	0.115
Mof_Zn	Zn	0.70135	0.29787	0.35148	1.086
Mof_O 	O 	0.78863	0.40737	0.35037	-0.476
Mof_O 	O 	0.76963	0.42417	0.37197	-0.505
Mof_O 	O 	0.74373	0.35137	0.39247	-0.823
Mof_O 	O 	0.88733	0.56627	0.55017	-0.158
Mof_O 	O 	0.96503	0.60457	0.58957	-0.147
Mof_C 	C 	0.77863	0.38997	0.38537	0.733
Mof_C 	C 	0.82583	0.41347	0.40897	-0.365
Mof_C 	C 	0.82353	0.39147	0.43967	0.266
Mof_H 	H 	0.79393	0.36107	0.44617	-0.048
Mof_C 	C 	0.86563	0.41387	0.46247	-0.302
Mof_H 	H 	0.86313	0.39877	0.48447	0.141
Mof_C 	C 	0.91123	0.45777	0.45357	0.214
Mof_C 	C 	0.91083	0.48157	0.42207	-0.309
Mof_H 	H 	0.94003	0.51227	0.41547	0.144
Mof_C 	C 	0.86893	0.46097	0.40097	0.259
Mof_H 	H 	0.86873	0.47867	0.38077	-0.034
Mof_C 	C 	0.95663	0.47897	0.47737	-0.117
Mof_C 	C 	0.99703	0.46837	0.47077	0.056
Mof_C 	C 	0.96013	0.51147	0.50617	0.059
Mof_C 	C 	0.92093	0.52297	0.51287	-0.155
Mof_H 	H 	0.89293	0.50987	0.49747	0.091
Mof_C 	C 	0.92163	0.55307	0.54147	0.106
Mof_C 	C 	0.83923	0.54247	0.53007	-0.239
Mof_H 	H 	0.81473	0.54937	0.54167	0.11
Mof_H 	H 	0.84563	0.55647	0.50647	0.105
Mof_H 	H 	0.82573	0.50587	0.52887	0.109
Mof_C 	C 	0.96813	0.57547	0.56377	0.113
Mof_C 	C 	0.00483	0.56457	0.55777	-0.165
Mof_H 	H 	0.03343	0.57887	0.57267	0.089
Mof_C 	C 	0.00713	0.62557	0.61517	-0.283
Mof_H 	H 	0.99933	0.64207	0.63417	0.138
Mof_H 	H 	0.01123	0.59807	0.62477	0.123
Mof_H 	H 	0.03853	0.65027	0.60367	0.122
Mof_Zn	Zn	0.66667	0.33333	0.38412	1.068
Mof_Zn	Zn	0.33333	0.66667	0.71745	1.068
Mof_Zn	Zn	8.64911e-34	1.72982e-33	0.05079	1.066
Mof_Zn	Zn	0.33333	0.66667	0.61588	1.068
Mof_Zn	Zn	-1.38386e-32	0	0.94921	1.065
Mof_Zn	Zn	0.66667	0.33333	0.28255	1.068
Mof_O 	O 	0.66667	0.33333	0.33333	-1.624
Mof_O 	O 	0.33333	0.66667	0.66667	-1.624
Mof_O 	O 	-0	0	-0	-1.627
Mof_Zn	Zn	0.70073	0.29788	0.13782	1.214
Mof_O 	O 	0.7498	0.3393	0.17434	-0.52
Mof_O 	O 	0.2094	0.5948	0.4375	-0.504
Mof_O 	O 	0.7673	0.4181	0.15951	-0.537
Mof_O 	O 	0.2631	0.6345	0.3906	-0.543
Mof_O 	O 	0.0276	0.3855	0.2026	-0.153
Mof_O 	O 	0.1024	0.4157	0.2465	-0.154
Mof_O 	O 	0.8899	0.5678	0.3384	-0.157
Mof_O 	O 	0.9729	0.6121	0.374	-0.142
Mof_C 	C 	0.7776	0.3892	0.1748	0.432
Mof_C 	C 	0.8239	0.4106	0.1994	-0.205
Mof_C 	C 	0.8313	0.3801	0.2236	0.131
Mof_H 	H 	0.8081	0.3448	0.2243	-0
Mof_C 	C 	0.872	0.401	0.2464	-0.233
Mof_H 	H 	0.8746	0.3804	0.2638	0.127
Mof_C 	C 	0.9094	0.4522	0.2441	0.167
Mof_C 	C 	0.9029	0.482	0.2189	-0.238
Mof_H 	H 	0.9279	0.5167	0.2168	0.115
Mof_C 	C 	0.8626	0.4631	0.1976	0.145
Mof_H 	H 	0.8596	0.4847	0.1812	-0.013
Mof_C 	C 	0.9531	0.4737	0.2678	-0.097
Mof_C 	C 	0.9943	0.461	0.2623	0.052
Mof_C 	C 	0.99	0.4282	0.234	-0.124
Mof_H 	H 	0.9614	0.4146	0.2191	0.081
Mof_C 	C 	0.0296	0.4158	0.2284	0.096
Mof_C 	C 	0.9857	0.3664	0.1767	-0.262
Mof_H 	H 	0.9918	0.3478	0.1584	0.128
Mof_H 	H 	0.9842	0.3949	0.1665	0.124
Mof_H 	H 	0.9536	0.3438	0.1884	0.118
Mof_C 	C 	0.0698	0.4315	0.2523	0.101
Mof_C 	C 	0.1467	0.4336	0.2705	-0.246
Mof_H 	H 	0.1653	0.4161	0.2651	0.114
Mof_H 	H 	0.1347	0.4264	0.2946	0.109
Mof_H 	H 	0.169	0.4701	0.2676	0.109
Mof_C 	C 	0.0743	0.4663	0.2812	-0.13
Mof_H 	H 	0.1011	0.4776	0.2975	0.083
Mof_C 	C 	0.0387	0.482	0.284	0.038
Mof_C 	C 	0.0419	0.5164	0.3123	-0.078
Mof_C 	C 	0.003	0.5289	0.3166	0.025
Mof_C 	C 	0.0095	0.5671	0.3446	-0.135
Mof_H 	H 	0.0392	0.5831	0.3584	0.082
Mof_C 	C 	0.9707	0.5775	0.3491	0.089
Mof_C 	C 	0.0174	0.6387	0.3952	-0.255
Mof_H 	H 	0.0469	0.6582	0.3803	0.112
Mof_H 	H 	0.0222	0.6145	0.409	0.108
Mof_H 	H 	0.0133	0.6618	0.4109	0.127
Mof_C 	C 	0.9254	0.5545	0.3287	0.102
Mof_C 	C 	0.8429	0.5454	0.3203	-0.216
Mof_H 	H 	0.8482	0.5394	0.296	0.095
Mof_H 	H 	0.8291	0.5683	0.321	0.105
Mof_H 	H 	0.8191	0.5133	0.3314	0.104
Mof_C 	C 	0.9193	0.52	0.3029	-0.149
Mof_H 	H 	0.8889	0.5039	0.2899	0.084
Mof_C 	C 	0.9595	0.5082	0.2956	0.055
Mof_C 	C 	0.0873	0.5377	0.3359	0.136
Mof_C 	C 	0.0835	0.5247	0.3706	-0.199
Mof_H 	H 	0.0511	0.5014	0.3796	0.103
Mof_C 	C 	0.1242	0.5436	0.3931	0.118
Mof_H 	H 	0.1198	0.5318	0.4164	0.009
Mof_C 	C 	0.1725	0.5809	0.3811	-0.179
Mof_C 	C 	0.2185	0.6061	0.4054	0.403
Mof_C 	C 	0.1778	0.5964	0.3466	0.114
Mof_H 	H 	0.2099	0.6216	0.3381	-0.002
Mof_C 	C 	0.1364	0.575	0.3244	-0.195
Mof_H 	H 	0.1409	0.5856	0.3008	0.099
Mof_Zn	Zn	0.3674	0.63121	0.47115	1.214
Mof_O 	O 	0.41647	0.67263	0.50767	-0.52
Mof_O 	O 	0.87607	0.92813	0.77083	-0.503
Mof_O 	O 	0.43397	0.75143	0.49284	-0.537
Mof_O 	O 	0.92977	0.96783	0.72393	-0.539
Mof_O 	O 	0.69427	0.71883	0.53593	-0.149
Mof_O 	O 	0.76907	0.74903	0.57983	-0.153
Mof_O 	O 	0.55657	0.90113	0.67173	-0.157
Mof_O 	O 	0.63957	0.94543	0.70733	-0.143
Mof_C 	C 	0.44427	0.72253	0.50813	0.432
Mof_C 	C 	0.49057	0.74393	0.53273	-0.204
Mof_C 	C 	0.49797	0.71343	0.55693	0.13
Mof_H 	H 	0.47477	0.67813	0.55763	0
Mof_C 	C 	0.53867	0.73433	0.57973	-0.232
Mof_H 	H 	0.54127	0.71373	0.59713	0.126
Mof_C 	C 	0.57607	0.78553	0.57743	0.164
Mof_C 	C 	0.56957	0.81533	0.55223	-0.236
Mof_H 	H 	0.59457	0.85003	0.55013	0.114
Mof_C 	C 	0.52927	0.79643	0.53093	0.143
Mof_H 	H 	0.52627	0.81803	0.51453	-0.012
Mof_C 	C 	0.61977	0.80703	0.60113	-0.094
Mof_C 	C 	0.66097	0.79433	0.59563	0.046
Mof_C 	C 	0.65667	0.76153	0.56733	-0.127
Mof_H 	H 	0.62807	0.74793	0.55243	0.082
Mof_C 	C 	0.69627	0.74913	0.56173	0.1
Mof_C 	C 	0.65237	0.69973	0.51003	-0.27
Mof_H 	H 	0.65847	0.68113	0.49173	0.13
Mof_H 	H 	0.65087	0.72823	0.49983	0.125
Mof_H 	H 	0.62027	0.67713	0.52173	0.119
Mof_C 	C 	0.73647	0.76483	0.58563	0.102
Mof_C 	C 	0.81337	0.76693	0.60383	-0.248
Mof_H 	H 	0.83197	0.74943	0.59843	0.115
Mof_H 	H 	0.80137	0.75973	0.62793	0.11
Mof_H 	H 	0.83567	0.80343	0.60093	0.111
Mof_C 	C 	0.74097	0.79963	0.61453	-0.132
Mof_H 	H 	0.76777	0.81093	0.63083	0.084
Mof_C 	C 	0.70537	0.81533	0.61733	0.045
Mof_C 	C 	0.70857	0.84973	0.64563	-0.081
Mof_C 	C 	0.66967	0.86223	0.64993	0.031
Mof_C 	C 	0.67617	0.90043	0.67793	-0.13
Mof_H 	H 	0.70587	0.91643	0.69173	0.081
Mof_C 	C 	0.63737	0.91083	0.68243	0.085
Mof_C 	C 	0.68407	0.97203	0.72853	-0.253
Mof_H 	H 	0.71357	0.99153	0.71363	0.114
Mof_H 	H 	0.68887	0.94783	0.74233	0.109
Mof_H 	H 	0.67997	0.99513	0.74423	0.13
Mof_C 	C 	0.59207	0.88783	0.66203	0.102
Mof_C 	C 	0.50957	0.87873	0.65363	-0.217
Mof_H 	H 	0.51487	0.87273	0.62933	0.095
Mof_H 	H 	0.49577	0.90163	0.65433	0.106
Mof_H 	H 	0.48577	0.84663	0.66473	0.105
Mof_C 	C 	0.58597	0.85333	0.63623	-0.147
Mof_H 	H 	0.55557	0.83723	0.62323	0.084
Mof_C 	C 	0.62617	0.84153	0.62893	0.049
Mof_C 	C 	0.75397	0.87103	0.66923	0.139
Mof_C 	C 	0.75017	0.85803	0.70393	-0.201
Mof_H 	H 	0.71777	0.83473	0.71293	0.105
Mof_C 	C 	0.79087	0.87693	0.72643	0.119
Mof_H 	H 	0.78647	0.86513	0.74973	0.009
Mof_C 	C 	0.83917	0.91423	0.71443	-0.178
Mof_C 	C 	0.88517	0.93943	0.73873	0.403
Mof_C 	C 	0.84447	0.92973	0.67993	0.115
Mof_H 	H 	0.87657	0.95493	0.67143	-0.001
Mof_C 	C 	0.80307	0.90833	0.65773	-0.196
Mof_H 	H 	0.80757	0.91893	0.63413	0.101
Mof_Zn	Zn	0.03406	0.96455	0.80449	1.215
Mof_O 	O 	0.08313	0.00597	0.84101	-0.523
Mof_O 	O 	0.54273	0.26147	0.10417	-0.505
Mof_O 	O 	0.10063	0.08477	0.82618	-0.538
Mof_O 	O 	0.59643	0.30117	0.05727	-0.543
Mof_O 	O 	0.36093	0.05217	0.86927	-0.151
Mof_O 	O 	0.43573	0.08237	0.91317	-0.156
Mof_O 	O 	0.22323	0.23447	0.00507	-0.151
Mof_O 	O 	0.30623	0.27877	0.04067	-0.145
Mof_C 	C 	0.11093	0.05587	0.84147	0.432
Mof_C 	C 	0.15723	0.07727	0.86607	-0.204
Mof_C 	C 	0.16463	0.04677	0.89027	0.129
Mof_H 	H 	0.14143	0.01147	0.89097	-0.001
Mof_C 	C 	0.20533	0.06767	0.91307	-0.231
Mof_H 	H 	0.20793	0.04707	0.93047	0.125
Mof_C 	C 	0.24273	0.11887	0.91077	0.163
Mof_C 	C 	0.23623	0.14867	0.88557	-0.235
Mof_H 	H 	0.26123	0.18337	0.88347	0.114
Mof_C 	C 	0.19593	0.12977	0.86427	0.143
Mof_H 	H 	0.19293	0.15137	0.84787	-0.013
Mof_C 	C 	0.28643	0.14037	0.93447	-0.092
Mof_C 	C 	0.32763	0.12767	0.92897	0.044
Mof_C 	C 	0.32333	0.09487	0.90067	-0.127
Mof_H 	H 	0.29473	0.08127	0.88577	0.082
Mof_C 	C 	0.36293	0.08247	0.89507	0.099
Mof_C 	C 	0.31903	0.03307	0.84337	-0.266
Mof_H 	H 	0.32513	0.01447	0.82507	0.127
Mof_H 	H 	0.31753	0.06157	0.83317	0.124
Mof_H 	H 	0.28693	0.01047	0.85507	0.117
Mof_C 	C 	0.40313	0.09817	0.91897	0.103
Mof_C 	C 	0.48003	0.10027	0.93717	-0.242
Mof_H 	H 	0.49863	0.08277	0.93177	0.112
Mof_H 	H 	0.46803	0.09307	0.96127	0.107
Mof_H 	H 	0.50233	0.13677	0.93427	0.108
Mof_C 	C 	0.40763	0.13297	0.94787	-0.135
Mof_H 	H 	0.43443	0.14427	0.96417	0.084
Mof_C 	C 	0.37203	0.14867	0.95067	0.048
Mof_C 	C 	0.37523	0.18307	0.97897	-0.09
Mof_C 	C 	0.33633	0.19557	0.98327	0.033
Mof_C 	C 	0.34283	0.23377	0.01127	-0.132
Mof_H 	H 	0.37253	0.24977	0.02507	0.082
Mof_C 	C 	0.30403	0.24417	0.01577	0.09
Mof_C 	C 	0.35073	0.30537	0.06187	-0.248
Mof_H 	H 	0.38023	0.32487	0.04697	0.111
Mof_H 	H 	0.35553	0.28117	0.07567	0.107
Mof_H 	H 	0.34663	0.32847	0.07757	0.127
Mof_C 	C 	0.25873	0.22117	0.99537	0.093
Mof_C 	C 	0.17623	0.21207	0.98697	-0.226
Mof_H 	H 	0.18153	0.20607	0.96267	0.098
Mof_H 	H 	0.16243	0.23497	0.98767	0.107
Mof_H 	H 	0.15243	0.17997	0.99807	0.106
Mof_C 	C 	0.25263	0.18667	0.96957	-0.143
Mof_H 	H 	0.22223	0.17057	0.95657	0.082
Mof_C 	C 	0.29283	0.17487	0.96227	0.045
Mof_C 	C 	0.42063	0.20437	0.00257	0.157
Mof_C 	C 	0.41683	0.19137	0.03727	-0.216
Mof_H 	H 	0.38443	0.16807	0.04627	0.11
Mof_C 	C 	0.45753	0.21027	0.05977	0.133
Mof_H 	H 	0.45313	0.19847	0.08307	0.005
Mof_C 	C 	0.50583	0.24757	0.04777	-0.191
Mof_C 	C 	0.55183	0.27277	0.07207	0.407
Mof_C 	C 	0.51113	0.26307	0.01327	0.134
Mof_H 	H 	0.54323	0.28827	0.00477	-0.008
Mof_C 	C 	0.46973	0.24167	0.99107	-0.219
Mof_H 	H 	0.47423	0.25227	0.96747	0.107
Mof_Zn	Zn	0.70212	0.40285	0.13782	1.214
Mof_O 	O 	0.6607	0.4105	0.17434	-0.52
Mof_O 	O 	0.4052	0.6146	0.4375	-0.504
Mof_O 	O 	0.5819	0.3492	0.15951	-0.537
Mof_O 	O 	0.3655	0.6286	0.3906	-0.543
Mof_O 	O 	0.6145	0.6421	0.2026	-0.15
Mof_O 	O 	0.5843	0.6867	0.2465	-0.154
Mof_O 	O 	0.4322	0.3221	0.3384	-0.157
Mof_O 	O 	0.3879	0.3608	0.374	-0.145
Mof_C 	C 	0.6108	0.3884	0.1748	0.431
Mof_C 	C 	0.5894	0.4133	0.1994	-0.204
Mof_C 	C 	0.6199	0.4512	0.2236	0.129
Mof_H 	H 	0.6552	0.4633	0.2243	0
Mof_C 	C 	0.599	0.471	0.2464	-0.231
Mof_H 	H 	0.6196	0.4942	0.2638	0.126
Mof_C 	C 	0.5478	0.4572	0.2441	0.164
Mof_C 	C 	0.518	0.4209	0.2189	-0.236
Mof_H 	H 	0.4833	0.4112	0.2168	0.114
Mof_C 	C 	0.5369	0.3995	0.1976	0.143
Mof_H 	H 	0.5153	0.3749	0.1812	-0.013
Mof_C 	C 	0.5263	0.4794	0.2678	-0.094
Mof_C 	C 	0.539	0.5333	0.2623	0.046
Mof_C 	C 	0.5718	0.5618	0.234	-0.127
Mof_H 	H 	0.5854	0.5468	0.2191	0.082
Mof_C 	C 	0.5842	0.6138	0.2284	0.1
Mof_C 	C 	0.6336	0.6193	0.1767	-0.27
Mof_H 	H 	0.6522	0.644	0.1584	0.13
Mof_H 	H 	0.6051	0.5893	0.1665	0.125
Mof_H 	H 	0.6562	0.6098	0.1884	0.119
Mof_C 	C 	0.5685	0.6383	0.2523	0.102
Mof_C 	C 	0.5664	0.7131	0.2705	-0.247
Mof_H 	H 	0.5839	0.7492	0.2651	0.115
Mof_H 	H 	0.5736	0.7083	0.2946	0.11
Mof_H 	H 	0.5299	0.6989	0.2676	0.11
Mof_C 	C 	0.5337	0.608	0.2812	-0.132
Mof_H 	H 	0.5224	0.6235	0.2975	0.084
Mof_C 	C 	0.518	0.5567	0.284	0.045
Mof_C 	C 	0.4836	0.5255	0.3123	-0.081
Mof_C 	C 	0.4711	0.4741	0.3166	0.031
Mof_C 	C 	0.4329	0.4424	0.3446	-0.13
Mof_H 	H 	0.4169	0.4561	0.3584	0.081
Mof_C 	C 	0.4225	0.3932	0.3491	0.085
Mof_C 	C 	0.3613	0.3787	0.3952	-0.248
Mof_H 	H 	0.3418	0.3887	0.3803	0.111
Mof_H 	H 	0.3855	0.4077	0.409	0.107
Mof_H 	H 	0.3382	0.3515	0.4109	0.127
Mof_C 	C 	0.4455	0.3709	0.3287	0.102
Mof_C 	C 	0.4546	0.2975	0.3203	-0.216
Mof_H 	H 	0.4606	0.3088	0.296	0.095
Mof_H 	H 	0.4317	0.2608	0.321	0.105
Mof_H 	H 	0.4867	0.3058	0.3314	0.104
Mof_C 	C 	0.48	0.3993	0.3029	-0.147
Mof_H 	H 	0.4961	0.385	0.2899	0.084
Mof_C 	C 	0.4918	0.4513	0.2956	0.048
Mof_C 	C 	0.4623	0.5496	0.3359	0.139
Mof_C 	C 	0.4753	0.5588	0.3706	-0.201
Mof_H 	H 	0.4986	0.5497	0.3796	0.105
Mof_C 	C 	0.4564	0.5806	0.3931	0.12
Mof_H 	H 	0.4682	0.588	0.4164	0.009
Mof_C 	C 	0.4191	0.5916	0.3811	-0.18
Mof_C 	C 	0.3939	0.6124	0.4054	0.404
Mof_C 	C 	0.4036	0.5814	0.3466	0.115
Mof_H 	H 	0.3784	0.5883	0.3381	-0.003
Mof_C 	C 	0.425	0.5614	0.3244	-0.197
Mof_H 	H 	0.4144	0.5553	0.3008	0.1
Mof_Zn	Zn	0.36879	0.73618	0.47115	1.214
Mof_O 	O 	0.32737	0.74383	0.50767	-0.52
Mof_O 	O 	0.07187	0.94793	0.77083	-0.503
Mof_O 	O 	0.24857	0.68253	0.49284	-0.537
Mof_O 	O 	0.03217	0.96193	0.72393	-0.542
Mof_O 	O 	0.28117	0.97543	0.53593	-0.147
Mof_O 	O 	0.25097	0.02003	0.57983	-0.16
Mof_O 	O 	0.09887	0.65543	0.67173	-0.158
Mof_O 	O 	0.05457	0.69413	0.70733	-0.146
Mof_C 	C 	0.27747	0.72173	0.50813	0.431
Mof_C 	C 	0.25607	0.74663	0.53273	-0.204
Mof_C 	C 	0.28657	0.78453	0.55693	0.129
Mof_H 	H 	0.32187	0.79663	0.55763	0.001
Mof_C 	C 	0.26567	0.80433	0.57973	-0.231
Mof_H 	H 	0.28627	0.82753	0.59713	0.126
Mof_C 	C 	0.21447	0.79053	0.57743	0.163
Mof_C 	C 	0.18467	0.75423	0.55223	-0.235
Mof_H 	H 	0.14997	0.74453	0.55013	0.113
Mof_C 	C 	0.20357	0.73283	0.53093	0.143
Mof_H 	H 	0.18197	0.70823	0.51453	-0.013
Mof_C 	C 	0.19297	0.81273	0.60113	-0.093
Mof_C 	C 	0.20567	0.86663	0.59563	0.045
Mof_C 	C 	0.23847	0.89513	0.56733	-0.125
Mof_H 	H 	0.25207	0.88013	0.55243	0.081
Mof_C 	C 	0.25087	0.94713	0.56173	0.096
Mof_C 	C 	0.30027	0.95263	0.51003	-0.273
Mof_H 	H 	0.31887	0.97733	0.49173	0.131
Mof_H 	H 	0.27177	0.92263	0.49983	0.126
Mof_H 	H 	0.32287	0.94313	0.52173	0.121
Mof_C 	C 	0.23517	0.97163	0.58563	0.11
Mof_C 	C 	0.23307	0.04643	0.60383	-0.239
Mof_H 	H 	0.25057	0.08253	0.59843	0.112
Mof_H 	H 	0.24027	0.04163	0.62793	0.106
Mof_H 	H 	0.19657	0.03223	0.60093	0.106
Mof_C 	C 	0.20037	0.94133	0.61453	-0.136
Mof_H 	H 	0.18907	0.95683	0.63083	0.086
Mof_C 	C 	0.18467	0.89003	0.61733	0.047
Mof_C 	C 	0.15027	0.85883	0.64563	-0.082
Mof_C 	C 	0.13777	0.80743	0.64993	0.031
Mof_C 	C 	0.09957	0.77573	0.67793	-0.131
Mof_H 	H 	0.08357	0.78943	0.69173	0.081
Mof_C 	C 	0.08917	0.72653	0.68243	0.085
Mof_C 	C 	0.02797	0.71203	0.72853	-0.244
Mof_H 	H 	0.00847	0.72203	0.71363	0.109
Mof_H 	H 	0.05217	0.74103	0.74233	0.106
Mof_H 	H 	0.00487	0.68483	0.74423	0.124
Mof_C 	C 	0.11217	0.70423	0.66203	0.101
Mof_C 	C 	0.12127	0.63083	0.65363	-0.215
Mof_H 	H 	0.12727	0.64213	0.62933	0.094
Mof_H 	H 	0.09837	0.59413	0.65433	0.104
Mof_H 	H 	0.15337	0.63913	0.66473	0.104
Mof_C 	C 	0.14667	0.73263	0.63623	-0.147
Mof_H 	H 	0.16277	0.71833	0.62323	0.084
Mof_C 	C 	0.15847	0.78463	0.62893	0.048
Mof_C 	C 	0.12897	0.88293	0.66923	0.139
Mof_C 	C 	0.14197	0.89213	0.70393	-0.201
Mof_H 	H 	0.16527	0.88303	0.71293	0.105
Mof_C 	C 	0.12307	0.91393	0.72643	0.12
Mof_H 	H 	0.13487	0.92133	0.74973	0.009
Mof_C 	C 	0.08577	0.92493	0.71443	-0.179
Mof_C 	C 	0.06057	0.94573	0.73873	0.403
Mof_C 	C 	0.07027	0.91473	0.67993	0.116
Mof_H 	H 	0.04507	0.92163	0.67143	-0.003
Mof_C 	C 	0.09167	0.89473	0.65773	-0.197
Mof_H 	H 	0.08107	0.88863	0.63413	0.1
Mof_Zn	Zn	0.03545	0.06952	0.80449	1.213
Mof_O 	O 	0.99403	0.07717	0.84101	-0.517
Mof_O 	O 	0.73853	0.28127	0.10417	-0.505
Mof_O 	O 	0.91523	0.01587	0.82618	-0.539
Mof_O 	O 	0.69883	0.29527	0.05727	-0.544
Mof_O 	O 	0.94783	0.30877	0.86927	-0.147
Mof_O 	O 	0.91763	0.35337	0.91317	-0.154
Mof_O 	O 	0.76553	0.98877	0.00507	-0.146
Mof_O 	O 	0.72123	0.02747	0.04067	-0.149
Mof_C 	C 	0.94413	0.05507	0.84147	0.431
Mof_C 	C 	0.92273	0.07997	0.86607	-0.203
Mof_C 	C 	0.95323	0.11787	0.89027	0.128
Mof_H 	H 	0.98853	0.12997	0.89097	0.002
Mof_C 	C 	0.93233	0.13767	0.91307	-0.229
Mof_H 	H 	0.95293	0.16087	0.93047	0.126
Mof_C 	C 	0.88113	0.12387	0.91077	0.162
Mof_C 	C 	0.85133	0.08757	0.88557	-0.234
Mof_H 	H 	0.81663	0.07787	0.88347	0.112
Mof_C 	C 	0.87023	0.06617	0.86427	0.141
Mof_H 	H 	0.84863	0.04157	0.84787	-0.013
Mof_C 	C 	0.85963	0.14607	0.93447	-0.091
Mof_C 	C 	0.87233	0.19997	0.92897	0.043
Mof_C 	C 	0.90513	0.22847	0.90067	-0.125
Mof_H 	H 	0.91873	0.21347	0.88577	0.082
Mof_C 	C 	0.91753	0.28047	0.89507	0.098
Mof_C 	C 	0.96693	0.28597	0.84337	-0.275
Mof_H 	H 	0.98553	0.31067	0.82507	0.132
Mof_H 	H 	0.93843	0.25597	0.83317	0.127
Mof_H 	H 	0.98953	0.27647	0.85507	0.122
Mof_C 	C 	0.90183	0.30497	0.91897	0.104
Mof_C 	C 	0.89973	0.37977	0.93717	-0.246
Mof_H 	H 	0.91723	0.41587	0.93177	0.115
Mof_H 	H 	0.90693	0.37497	0.96127	0.11
Mof_H 	H 	0.86323	0.36557	0.93427	0.109
Mof_C 	C 	0.86703	0.27467	0.94787	-0.135
Mof_H 	H 	0.85573	0.29017	0.96417	0.084
Mof_C 	C 	0.85133	0.22337	0.95067	0.049
Mof_C 	C 	0.81693	0.19217	0.97897	-0.091
Mof_C 	C 	0.80443	0.14077	0.98327	0.035
Mof_C 	C 	0.76623	0.10907	0.01127	-0.134
Mof_H 	H 	0.75023	0.12277	0.02507	0.082
Mof_C 	C 	0.75583	0.05987	0.01577	0.093
Mof_C 	C 	0.69463	0.04537	0.06187	-0.243
Mof_H 	H 	0.67513	0.05537	0.04697	0.109
Mof_H 	H 	0.71883	0.07437	0.07567	0.105
Mof_H 	H 	0.67153	0.01817	0.07757	0.124
Mof_C 	C 	0.77883	0.03757	0.99537	0.086
Mof_C 	C 	0.78793	0.96417	0.98697	-0.232
Mof_H 	H 	0.79393	0.97547	0.96267	0.101
Mof_H 	H 	0.76503	0.92747	0.98767	0.109
Mof_H 	H 	0.82003	0.97247	0.99807	0.109
Mof_C 	C 	0.81333	0.06597	0.96957	-0.139
Mof_H 	H 	0.82943	0.05167	0.95657	0.079
Mof_C 	C 	0.82513	0.11797	0.96227	0.042
Mof_C 	C 	0.79563	0.21627	0.00257	0.158
Mof_C 	C 	0.80863	0.22547	0.03727	-0.216
Mof_H 	H 	0.83193	0.21637	0.04627	0.111
Mof_C 	C 	0.78973	0.24727	0.05977	0.133
Mof_H 	H 	0.80153	0.25467	0.08307	0.004
Mof_C 	C 	0.75243	0.25827	0.04777	-0.191
Mof_C 	C 	0.72723	0.27907	0.07207	0.408
Mof_C 	C 	0.73693	0.24807	0.01327	0.134
Mof_H 	H 	0.71173	0.25497	0.00477	-0.009
Mof_C 	C 	0.75833	0.22807	0.99107	-0.219
Mof_H 	H 	0.74773	0.22197	0.96747	0.107
Mof_Zn	Zn	0.59715	0.29927	0.13782	1.214
Mof_O 	O 	0.5895	0.2502	0.17434	-0.52
Mof_O 	O 	0.3854	0.7906	0.4375	-0.504
Mof_O 	O 	0.6508	0.2327	0.15951	-0.537
Mof_O 	O 	0.3714	0.7369	0.3906	-0.543
Mof_O 	O 	0.3579	0.9724	0.2026	-0.146
Mof_O 	O 	0.3133	0.8976	0.2465	-0.153
Mof_O 	O 	0.6779	0.1101	0.3384	-0.157
Mof_O 	O 	0.6392	0.0271	0.374	-0.147
Mof_C 	C 	0.6116	0.2224	0.1748	0.431
Mof_C 	C 	0.5867	0.1761	0.1994	-0.203
Mof_C 	C 	0.5488	0.1687	0.2236	0.128
Mof_H 	H 	0.5367	0.1919	0.2243	0.001
Mof_C 	C 	0.529	0.128	0.2464	-0.23
Mof_H 	H 	0.5058	0.1254	0.2638	0.126
Mof_C 	C 	0.5428	0.0906	0.2441	0.162
Mof_C 	C 	0.5791	0.0971	0.2189	-0.234
Mof_H 	H 	0.5888	0.0721	0.2168	0.113
Mof_C 	C 	0.6005	0.1374	0.1976	0.142
Mof_H 	H 	0.6251	0.1404	0.1812	-0.012
Mof_C 	C 	0.5206	0.0469	0.2678	-0.091
Mof_C 	C 	0.4667	0.0057	0.2623	0.041
Mof_C 	C 	0.4382	0.01	0.234	-0.13
Mof_H 	H 	0.4532	0.0386	0.2191	0.083
Mof_C 	C 	0.3862	0.9704	0.2284	0.103
Mof_C 	C 	0.3807	0.0143	0.1767	-0.278
Mof_H 	H 	0.356	0.0082	0.1584	0.131
Mof_H 	H 	0.4107	0.0158	0.1665	0.127
Mof_H 	H 	0.3902	0.0464	0.1884	0.121
Mof_C 	C 	0.3617	0.9302	0.2523	0.103
Mof_C 	C 	0.2869	0.8533	0.2705	-0.247
Mof_H 	H 	0.2508	0.8347	0.2651	0.115
Mof_H 	H 	0.2917	0.8653	0.2946	0.11
Mof_H 	H 	0.3011	0.831	0.2676	0.11
Mof_C 	C 	0.392	0.9257	0.2812	-0.134
Mof_H 	H 	0.3765	0.8989	0.2975	0.084
Mof_C 	C 	0.4433	0.9613	0.284	0.051
Mof_C 	C 	0.4745	0.9581	0.3123	-0.084
Mof_C 	C 	0.5259	0.997	0.3166	0.037
Mof_C 	C 	0.5576	0.9905	0.3446	-0.126
Mof_H 	H 	0.5439	0.9608	0.3584	0.08
Mof_C 	C 	0.6068	0.0293	0.3491	0.081
Mof_C 	C 	0.6213	0.9826	0.3952	-0.242
Mof_H 	H 	0.6113	0.9531	0.3803	0.11
Mof_H 	H 	0.5923	0.9778	0.409	0.107
Mof_H 	H 	0.6485	0.9867	0.4109	0.126
Mof_C 	C 	0.6291	0.0746	0.3287	0.102
Mof_C 	C 	0.7025	0.1571	0.3203	-0.216
Mof_H 	H 	0.6912	0.1518	0.296	0.095
Mof_H 	H 	0.7392	0.1709	0.321	0.105
Mof_H 	H 	0.6942	0.1809	0.3314	0.104
Mof_C 	C 	0.6007	0.0807	0.3029	-0.146
Mof_H 	H 	0.615	0.1111	0.2899	0.083
Mof_C 	C 	0.5487	0.0405	0.2956	0.042
Mof_C 	C 	0.4504	0.9127	0.3359	0.141
Mof_C 	C 	0.4412	0.9165	0.3706	-0.203
Mof_H 	H 	0.4503	0.9489	0.3796	0.107
Mof_C 	C 	0.4194	0.8758	0.3931	0.122
Mof_H 	H 	0.412	0.8802	0.4164	0.009
Mof_C 	C 	0.4084	0.8275	0.3811	-0.181
Mof_C 	C 	0.3876	0.7815	0.4054	0.404
Mof_C 	C 	0.4186	0.8222	0.3466	0.117
Mof_H 	H 	0.4117	0.7901	0.3381	-0.003
Mof_C 	C 	0.4386	0.8636	0.3244	-0.199
Mof_H 	H 	0.4447	0.8591	0.3008	0.101
Mof_Zn	Zn	0.26382	0.6326	0.47115	1.214
Mof_O 	O 	0.25617	0.58353	0.50767	-0.52
Mof_O 	O 	0.05207	0.12393	0.77083	-0.506
Mof_O 	O 	0.31747	0.56603	0.49284	-0.537
Mof_O 	O 	0.03807	0.07023	0.72393	-0.545
Mof_O 	O 	0.02457	0.30573	0.53593	-0.153
Mof_O 	O 	0.97997	0.23093	0.57983	-0.148
Mof_O 	O 	0.34457	0.44343	0.67173	-0.157
Mof_O 	O 	0.30587	0.36043	0.70733	-0.144
Mof_C 	C 	0.27827	0.55573	0.50813	0.432
Mof_C 	C 	0.25337	0.50943	0.53273	-0.204
Mof_C 	C 	0.21547	0.50203	0.55693	0.13
Mof_H 	H 	0.20337	0.52523	0.55763	0
Mof_C 	C 	0.19567	0.46133	0.57973	-0.232
Mof_H 	H 	0.17247	0.45873	0.59713	0.126
Mof_C 	C 	0.20947	0.42393	0.57743	0.165
Mof_C 	C 	0.24577	0.43043	0.55223	-0.236
Mof_H 	H 	0.25547	0.40543	0.55013	0.114
Mof_C 	C 	0.26717	0.47073	0.53093	0.143
Mof_H 	H 	0.29177	0.47373	0.51453	-0.013
Mof_C 	C 	0.18727	0.38023	0.60113	-0.095
Mof_C 	C 	0.13337	0.33903	0.59563	0.048
Mof_C 	C 	0.10487	0.34333	0.56733	-0.13
Mof_H 	H 	0.11987	0.37193	0.55243	0.083
Mof_C 	C 	0.05287	0.30373	0.56173	0.103
Mof_C 	C 	0.04737	0.34763	0.51003	-0.266
Mof_H 	H 	0.02267	0.34153	0.49173	0.127
Mof_H 	H 	0.07737	0.34913	0.49983	0.124
Mof_H 	H 	0.05687	0.37973	0.52173	0.118
Mof_C 	C 	0.02837	0.26353	0.58563	0.094
Mof_C 	C 	0.95357	0.18663	0.60383	-0.252
Mof_H 	H 	0.91747	0.16803	0.59843	0.116
Mof_H 	H 	0.95837	0.19863	0.62793	0.113
Mof_H 	H 	0.96777	0.16433	0.60093	0.112
Mof_C 	C 	0.05867	0.25903	0.61453	-0.129
Mof_H 	H 	0.04317	0.23223	0.63083	0.081
Mof_C 	C 	0.10997	0.29463	0.61733	0.042
Mof_C 	C 	0.14117	0.29143	0.64563	-0.08
Mof_C 	C 	0.19257	0.33033	0.64993	0.03
Mof_C 	C 	0.22427	0.32383	0.67793	-0.13
Mof_H 	H 	0.21057	0.29413	0.69173	0.081
Mof_C 	C 	0.27347	0.36263	0.68243	0.085
Mof_C 	C 	0.28797	0.31593	0.72853	-0.248
Mof_H 	H 	0.27797	0.28643	0.71363	0.111
Mof_H 	H 	0.25897	0.31113	0.74233	0.107
Mof_H 	H 	0.31517	0.32003	0.74423	0.127
Mof_C 	C 	0.29577	0.40793	0.66203	0.102
Mof_C 	C 	0.36917	0.49043	0.65363	-0.216
Mof_H 	H 	0.35787	0.48513	0.62933	0.095
Mof_H 	H 	0.40587	0.50423	0.65433	0.105
Mof_H 	H 	0.36087	0.51423	0.66473	0.104
Mof_C 	C 	0.26737	0.41403	0.63623	-0.148
Mof_H 	H 	0.28167	0.44443	0.62323	0.084
Mof_C 	C 	0.21537	0.37383	0.62893	0.049
Mof_C 	C 	0.11707	0.24603	0.66923	0.139
Mof_C 	C 	0.10787	0.24983	0.70393	-0.202
Mof_H 	H 	0.11697	0.28223	0.71293	0.105
Mof_C 	C 	0.08607	0.20913	0.72643	0.12
Mof_H 	H 	0.07867	0.21353	0.74973	0.009
Mof_C 	C 	0.07507	0.16083	0.71443	-0.181
Mof_C 	C 	0.05427	0.11483	0.73873	0.404
Mof_C 	C 	0.08527	0.15553	0.67993	0.116
Mof_H 	H 	0.07837	0.12343	0.67143	-0.004
Mof_C 	C 	0.10527	0.19693	0.65773	-0.198
Mof_H 	H 	0.11137	0.19243	0.63413	0.1
Mof_Zn	Zn	0.93048	0.96594	0.80449	1.216
Mof_O 	O 	0.92283	0.91687	0.84101	-0.518
Mof_O 	O 	0.71873	0.45727	0.10417	-0.505
Mof_O 	O 	0.98413	0.89937	0.82618	-0.534
Mof_O 	O 	0.70473	0.40357	0.05727	-0.543
Mof_O 	O 	0.69123	0.63907	0.86927	-0.149
Mof_O 	O 	0.64663	0.56427	0.91317	-0.155
Mof_O 	O 	0.01123	0.77677	0.00507	-0.157
Mof_O 	O 	0.97253	0.69377	0.04067	-0.142
Mof_C 	C 	0.94493	0.88907	0.84147	0.431
Mof_C 	C 	0.92003	0.84277	0.86607	-0.202
Mof_C 	C 	0.88213	0.83537	0.89027	0.128
Mof_H 	H 	0.87003	0.85857	0.89097	0.001
Mof_C 	C 	0.86233	0.79467	0.91307	-0.23
Mof_H 	H 	0.83913	0.79207	0.93047	0.126
Mof_C 	C 	0.87613	0.75727	0.91077	0.163
Mof_C 	C 	0.91243	0.76377	0.88557	-0.234
Mof_H 	H 	0.92213	0.73877	0.88347	0.114
Mof_C 	C 	0.93383	0.80407	0.86427	0.142
Mof_H 	H 	0.95843	0.80707	0.84787	-0.011
Mof_C 	C 	0.85393	0.71357	0.93447	-0.093
Mof_C 	C 	0.80003	0.67237	0.92897	0.045
Mof_C 	C 	0.77153	0.67667	0.90067	-0.126
Mof_H 	H 	0.78653	0.70527	0.88577	0.082
Mof_C 	C 	0.71953	0.63707	0.89507	0.099
Mof_C 	C 	0.71403	0.68097	0.84337	-0.27
Mof_H 	H 	0.68933	0.67487	0.82507	0.13
Mof_H 	H 	0.74403	0.68247	0.83317	0.125
Mof_H 	H 	0.72353	0.71307	0.85507	0.119
Mof_C 	C 	0.69503	0.59687	0.91897	0.103
Mof_C 	C 	0.62023	0.51997	0.93717	-0.245
Mof_H 	H 	0.58413	0.50137	0.93177	0.113
Mof_H 	H 	0.62503	0.53197	0.96127	0.109
Mof_H 	H 	0.63443	0.49767	0.93427	0.109
Mof_C 	C 	0.72533	0.59237	0.94787	-0.134
Mof_H 	H 	0.70983	0.56557	0.96417	0.084
Mof_C 	C 	0.77663	0.62797	0.95067	0.048
Mof_C 	C 	0.80783	0.62477	0.97897	-0.089
Mof_C 	C 	0.85923	0.66367	0.98327	0.032
Mof_C 	C 	0.89093	0.65717	0.01127	-0.129
Mof_H 	H 	0.87723	0.62747	0.02507	0.081
Mof_C 	C 	0.94013	0.69597	0.01577	0.087
Mof_C 	C 	0.95463	0.64927	0.06187	-0.253
Mof_H 	H 	0.94463	0.61977	0.04697	0.114
Mof_H 	H 	0.92563	0.64447	0.07567	0.109
Mof_H 	H 	0.98183	0.65337	0.07757	0.13
Mof_C 	C 	0.96243	0.74127	0.99537	0.101
Mof_C 	C 	0.03583	0.82377	0.98697	-0.218
Mof_H 	H 	0.02453	0.81847	0.96267	0.094
Mof_H 	H 	0.07253	0.83757	0.98767	0.105
Mof_H 	H 	0.02753	0.84757	0.99807	0.103
Mof_C 	C 	0.93403	0.74737	0.96957	-0.147
Mof_H 	H 	0.94833	0.77777	0.95657	0.085
Mof_C 	C 	0.88203	0.70717	0.96227	0.047
Mof_C 	C 	0.78373	0.57937	0.00257	0.156
Mof_C 	C 	0.77453	0.58317	0.03727	-0.215
Mof_H 	H 	0.78363	0.61557	0.04627	0.11
Mof_C 	C 	0.75273	0.54247	0.05977	0.132
Mof_H 	H 	0.74533	0.54687	0.08307	0.005
Mof_C 	C 	0.74173	0.49417	0.04777	-0.19
Mof_C 	C 	0.72093	0.44817	0.07207	0.407
Mof_C 	C 	0.75193	0.48887	0.01327	0.133
Mof_H 	H 	0.74503	0.45677	0.00477	-0.008
Mof_C 	C 	0.77193	0.53027	0.99107	-0.218
Mof_H 	H 	0.77803	0.52577	0.96747	0.107
Mof_Zn	Zn	0.66667	0.33333	0.06647	1.232
Mof_O 	O 	0.66667	0.33333	0.119	-0.941
Mof_Zn	Zn	0.33333	0.66667	0.3998	1.231
Mof_O 	O 	0.33333	0.66667	0.45233	-0.941
Mof_Zn	Zn	-6.91929e-33	2.76772e-32	0.73314	1.229
Mof_O 	O 	-1.38386e-32	1.38386e-32	0.78567	-0.946
Mof_Zn	Zn	0.29927	0.70212	0.86218	1.214
Mof_O 	O 	0.2502	0.6607	0.82566	-0.52
Mof_O 	O 	0.7906	0.4052	0.5625	-0.504
Mof_O 	O 	0.2327	0.5819	0.84049	-0.537
Mof_O 	O 	0.7369	0.3655	0.6094	-0.543
Mof_O 	O 	0.9724	0.6145	0.7974	-0.146
Mof_O 	O 	0.8976	0.5843	0.7535	-0.153
Mof_O 	O 	0.1101	0.4322	0.6616	-0.157
Mof_O 	O 	0.0271	0.3879	0.626	-0.147
Mof_C 	C 	0.2224	0.6108	0.8252	0.431
Mof_C 	C 	0.1761	0.5894	0.8006	-0.203
Mof_C 	C 	0.1687	0.6199	0.7764	0.128
Mof_H 	H 	0.1919	0.6552	0.7757	0.001
Mof_C 	C 	0.128	0.599	0.7536	-0.23
Mof_H 	H 	0.1254	0.6196	0.7362	0.126
Mof_C 	C 	0.0906	0.5478	0.7559	0.162
Mof_C 	C 	0.0971	0.518	0.7811	-0.234
Mof_H 	H 	0.0721	0.4833	0.7832	0.113
Mof_C 	C 	0.1374	0.5369	0.8024	0.142
Mof_H 	H 	0.1404	0.5153	0.8188	-0.012
Mof_C 	C 	0.0469	0.5263	0.7322	-0.091
Mof_C 	C 	0.0057	0.539	0.7377	0.04
Mof_C 	C 	0.01	0.5718	0.766	-0.13
Mof_H 	H 	0.0386	0.5854	0.7809	0.083
Mof_C 	C 	0.9704	0.5842	0.7716	0.103
Mof_C 	C 	0.0143	0.6336	0.8233	-0.277
Mof_H 	H 	0.0082	0.6522	0.8416	0.131
Mof_H 	H 	0.0158	0.6051	0.8335	0.126
Mof_H 	H 	0.0464	0.6562	0.8116	0.121
Mof_C 	C 	0.9302	0.5685	0.7477	0.103
Mof_C 	C 	0.8533	0.5664	0.7295	-0.247
Mof_H 	H 	0.8347	0.5839	0.7349	0.115
Mof_H 	H 	0.8653	0.5736	0.7054	0.11
Mof_H 	H 	0.831	0.5299	0.7324	0.11
Mof_C 	C 	0.9257	0.5337	0.7188	-0.134
Mof_H 	H 	0.8989	0.5224	0.7025	0.084
Mof_C 	C 	0.9613	0.518	0.716	0.051
Mof_C 	C 	0.9581	0.4836	0.6877	-0.084
Mof_C 	C 	0.997	0.4711	0.6834	0.037
Mof_C 	C 	0.9905	0.4329	0.6554	-0.126
Mof_H 	H 	0.9608	0.4169	0.6416	0.08
Mof_C 	C 	0.0293	0.4225	0.6509	0.081
Mof_C 	C 	0.9826	0.3613	0.6048	-0.241
Mof_H 	H 	0.9531	0.3418	0.6197	0.11
Mof_H 	H 	0.9778	0.3855	0.591	0.107
Mof_H 	H 	0.9867	0.3382	0.5891	0.126
Mof_C 	C 	0.0746	0.4455	0.6713	0.102
Mof_C 	C 	0.1571	0.4546	0.6797	-0.216
Mof_H 	H 	0.1518	0.4606	0.704	0.095
Mof_H 	H 	0.1709	0.4317	0.679	0.105
Mof_H 	H 	0.1809	0.4867	0.6686	0.104
Mof_C 	C 	0.0807	0.48	0.6971	-0.146
Mof_H 	H 	0.1111	0.4961	0.7101	0.083
Mof_C 	C 	0.0405	0.4918	0.7044	0.042
Mof_C 	C 	0.9127	0.4623	0.6641	0.142
Mof_C 	C 	0.9165	0.4753	0.6294	-0.203
Mof_H 	H 	0.9489	0.4986	0.6204	0.107
Mof_C 	C 	0.8758	0.4564	0.6069	0.122
Mof_H 	H 	0.8802	0.4682	0.5836	0.009
Mof_C 	C 	0.8275	0.4191	0.6189	-0.181
Mof_C 	C 	0.7815	0.3939	0.5946	0.404
Mof_C 	C 	0.8222	0.4036	0.6534	0.117
Mof_H 	H 	0.7901	0.3784	0.6619	-0.003
Mof_C 	C 	0.8636	0.425	0.6756	-0.199
Mof_H 	H 	0.8591	0.4144	0.6992	0.101
Mof_Zn	Zn	0.96594	0.03545	0.19551	1.215
Mof_O 	O 	0.91687	0.99403	0.15899	-0.516
Mof_O 	O 	0.45727	0.73853	0.89583	-0.504
Mof_O 	O 	0.89937	0.91523	0.17382	-0.536
Mof_O 	O 	0.40357	0.69883	0.94273	-0.542
Mof_O 	O 	0.63907	0.94783	0.13073	-0.148
Mof_O 	O 	0.56427	0.91763	0.08683	-0.152
Mof_O 	O 	0.77677	0.76553	0.99493	-0.163
Mof_O 	O 	0.69377	0.72123	0.95933	-0.144
Mof_C 	C 	0.88907	0.94413	0.15853	0.431
Mof_C 	C 	0.84277	0.92273	0.13393	-0.204
Mof_C 	C 	0.83537	0.95323	0.10973	0.13
Mof_H 	H 	0.85857	0.98853	0.10903	0.002
Mof_C 	C 	0.79467	0.93233	0.08693	-0.231
Mof_H 	H 	0.79207	0.95293	0.06953	0.127
Mof_C 	C 	0.75727	0.88113	0.08923	0.165
Mof_C 	C 	0.76377	0.85133	0.11443	-0.236
Mof_H 	H 	0.73877	0.81663	0.11653	0.114
Mof_C 	C 	0.80407	0.87023	0.13573	0.143
Mof_H 	H 	0.80707	0.84863	0.15213	-0.013
Mof_C 	C 	0.71357	0.85963	0.06553	-0.095
Mof_C 	C 	0.67237	0.87233	0.07103	0.048
Mof_C 	C 	0.67667	0.90513	0.09933	-0.128
Mof_H 	H 	0.70527	0.91873	0.11423	0.083
Mof_C 	C 	0.63707	0.91753	0.10493	0.1
Mof_C 	C 	0.68097	0.96693	0.15663	-0.274
Mof_H 	H 	0.67487	0.98553	0.17493	0.132
Mof_H 	H 	0.68247	0.93843	0.16683	0.127
Mof_H 	H 	0.71307	0.98953	0.14493	0.122
Mof_C 	C 	0.59687	0.90183	0.08103	0.101
Mof_C 	C 	0.51997	0.89973	0.06283	-0.25
Mof_H 	H 	0.50137	0.91723	0.06823	0.117
Mof_H 	H 	0.53197	0.90693	0.03873	0.112
Mof_H 	H 	0.49767	0.86323	0.06573	0.111
Mof_C 	C 	0.59237	0.86703	0.05213	-0.129
Mof_H 	H 	0.56557	0.85573	0.03583	0.083
Mof_C 	C 	0.62797	0.85133	0.04933	0.041
Mof_C 	C 	0.62477	0.81693	0.02103	-0.073
Mof_C 	C 	0.66367	0.80443	0.01673	0.029
Mof_C 	C 	0.65717	0.76623	0.98873	-0.129
Mof_H 	H 	0.62747	0.75023	0.97493	0.08
Mof_C 	C 	0.69597	0.75583	0.98423	0.08
Mof_C 	C 	0.64927	0.69463	0.93813	-0.249
Mof_H 	H 	0.61977	0.67513	0.95303	0.111
Mof_H 	H 	0.64447	0.71883	0.92433	0.108
Mof_H 	H 	0.65337	0.67153	0.92243	0.127
Mof_C 	C 	0.74127	0.77883	0.00463	0.11
Mof_C 	C 	0.82377	0.78793	0.01303	-0.207
Mof_H 	H 	0.81847	0.79393	0.03733	0.092
Mof_H 	H 	0.83757	0.76503	0.01233	0.103
Mof_H 	H 	0.84757	0.82003	0.00193	0.103
Mof_C 	C 	0.74737	0.81333	0.03043	-0.152
Mof_H 	H 	0.77777	0.82943	0.04343	0.086
Mof_C 	C 	0.70717	0.82513	0.03773	0.051
Mof_C 	C 	0.57937	0.79563	0.99743	0.123
Mof_C 	C 	0.58317	0.80863	0.96273	-0.188
Mof_H 	H 	0.61557	0.83193	0.95373	0.1
Mof_C 	C 	0.54247	0.78973	0.94023	0.108
Mof_H 	H 	0.54687	0.80153	0.91693	0.013
Mof_C 	C 	0.49417	0.75243	0.95223	-0.17
Mof_C 	C 	0.44817	0.72723	0.92793	0.4
Mof_C 	C 	0.48887	0.73693	0.98673	0.099
Mof_H 	H 	0.45677	0.71173	0.99523	0.002
Mof_C 	C 	0.53027	0.75833	0.00893	-0.177
Mof_H 	H 	0.52577	0.74773	0.03253	0.094
Mof_Zn	Zn	0.6326	0.36879	0.52885	1.214
Mof_O 	O 	0.58353	0.32737	0.49233	-0.52
Mof_O 	O 	0.12393	0.07187	0.22917	-0.505
Mof_O 	O 	0.56603	0.24857	0.50716	-0.537
Mof_O 	O 	0.07023	0.03217	0.27607	-0.545
Mof_O 	O 	0.30573	0.28117	0.46407	-0.15
Mof_O 	O 	0.23093	0.25097	0.42017	-0.154
Mof_O 	O 	0.44343	0.09887	0.32827	-0.158
Mof_O 	O 	0.36043	0.05457	0.29267	-0.146
Mof_C 	C 	0.55573	0.27747	0.49187	0.431
Mof_C 	C 	0.50943	0.25607	0.46727	-0.204
Mof_C 	C 	0.50203	0.28657	0.44307	0.129
Mof_H 	H 	0.52523	0.32187	0.44237	0
Mof_C 	C 	0.46133	0.26567	0.42027	-0.231
Mof_H 	H 	0.45873	0.28627	0.40287	0.126
Mof_C 	C 	0.42393	0.21447	0.42257	0.164
Mof_C 	C 	0.43043	0.18467	0.44777	-0.235
Mof_H 	H 	0.40543	0.14997	0.44987	0.113
Mof_C 	C 	0.47073	0.20357	0.46907	0.143
Mof_H 	H 	0.47373	0.18197	0.48547	-0.013
Mof_C 	C 	0.38023	0.19297	0.39887	-0.094
Mof_C 	C 	0.33903	0.20567	0.40437	0.046
Mof_C 	C 	0.34333	0.23847	0.43267	-0.127
Mof_H 	H 	0.37193	0.25207	0.44757	0.082
Mof_C 	C 	0.30373	0.25087	0.43827	0.099
Mof_C 	C 	0.34763	0.30027	0.48997	-0.27
Mof_H 	H 	0.34153	0.31887	0.50827	0.129
Mof_H 	H 	0.34913	0.27177	0.50017	0.125
Mof_H 	H 	0.37973	0.32287	0.47827	0.119
Mof_C 	C 	0.26353	0.23517	0.41437	0.102
Mof_C 	C 	0.18663	0.23307	0.39617	-0.245
Mof_H 	H 	0.16803	0.25057	0.40157	0.113
Mof_H 	H 	0.19863	0.24027	0.37207	0.109
Mof_H 	H 	0.16433	0.19657	0.39907	0.108
Mof_C 	C 	0.25903	0.20037	0.38547	-0.132
Mof_H 	H 	0.23223	0.18907	0.36917	0.084
Mof_C 	C 	0.29463	0.18467	0.38267	0.045
Mof_C 	C 	0.29143	0.15027	0.35437	-0.081
Mof_C 	C 	0.33033	0.13777	0.35007	0.031
Mof_C 	C 	0.32383	0.09957	0.32207	-0.131
Mof_H 	H 	0.29413	0.08357	0.30827	0.081
Mof_C 	C 	0.36263	0.08917	0.31757	0.085
Mof_C 	C 	0.31593	0.02797	0.27147	-0.244
Mof_H 	H 	0.28643	0.00847	0.28637	0.108
Mof_H 	H 	0.31113	0.05217	0.25767	0.106
Mof_H 	H 	0.32003	0.00487	0.25577	0.124
Mof_C 	C 	0.40793	0.11217	0.33797	0.101
Mof_C 	C 	0.49043	0.12127	0.34637	-0.215
Mof_H 	H 	0.48513	0.12727	0.37067	0.094
Mof_H 	H 	0.50423	0.09837	0.34567	0.104
Mof_H 	H 	0.51423	0.15337	0.33527	0.104
Mof_C 	C 	0.41403	0.14667	0.36377	-0.147
Mof_H 	H 	0.44443	0.16277	0.37677	0.084
Mof_C 	C 	0.37383	0.15847	0.37107	0.048
Mof_C 	C 	0.24603	0.12897	0.33077	0.139
Mof_C 	C 	0.24983	0.14197	0.29607	-0.202
Mof_H 	H 	0.28223	0.16527	0.28707	0.105
Mof_C 	C 	0.20913	0.12307	0.27357	0.12
Mof_H 	H 	0.21353	0.13487	0.25027	0.009
Mof_C 	C 	0.16083	0.08577	0.28557	-0.181
Mof_C 	C 	0.11483	0.06057	0.26127	0.404
Mof_C 	C 	0.15553	0.07027	0.32007	0.116
Mof_H 	H 	0.12343	0.04507	0.32857	-0.004
Mof_C 	C 	0.19693	0.09167	0.34227	-0.198
Mof_H 	H 	0.19243	0.08107	0.36587	0.1
Mof_Zn	Zn	0.29788	0.59715	0.86218	1.214
Mof_O 	O 	0.3393	0.5895	0.82566	-0.52
Mof_O 	O 	0.5948	0.3854	0.5625	-0.504
Mof_O 	O 	0.4181	0.6508	0.84049	-0.537
Mof_O 	O 	0.6345	0.3714	0.6094	-0.543
Mof_O 	O 	0.3855	0.3579	0.7974	-0.15
Mof_O 	O 	0.4157	0.3133	0.7535	-0.154
Mof_O 	O 	0.5678	0.6779	0.6616	-0.157
Mof_O 	O 	0.6121	0.6392	0.626	-0.144
Mof_C 	C 	0.3892	0.6116	0.8252	0.431
Mof_C 	C 	0.4106	0.5867	0.8006	-0.204
Mof_C 	C 	0.3801	0.5488	0.7764	0.129
Mof_H 	H 	0.3448	0.5367	0.7757	0
Mof_C 	C 	0.401	0.529	0.7536	-0.231
Mof_H 	H 	0.3804	0.5058	0.7362	0.126
Mof_C 	C 	0.4522	0.5428	0.7559	0.164
Mof_C 	C 	0.482	0.5791	0.7811	-0.236
Mof_H 	H 	0.5167	0.5888	0.7832	0.114
Mof_C 	C 	0.4631	0.6005	0.8024	0.143
Mof_H 	H 	0.4847	0.6251	0.8188	-0.013
Mof_C 	C 	0.4737	0.5206	0.7322	-0.094
Mof_C 	C 	0.461	0.4667	0.7377	0.046
Mof_C 	C 	0.4282	0.4382	0.766	-0.127
Mof_H 	H 	0.4146	0.4532	0.7809	0.082
Mof_C 	C 	0.4158	0.3862	0.7716	0.1
Mof_C 	C 	0.3664	0.3807	0.8233	-0.27
Mof_H 	H 	0.3478	0.356	0.8416	0.129
Mof_H 	H 	0.3949	0.4107	0.8335	0.125
Mof_H 	H 	0.3438	0.3902	0.8116	0.119
Mof_C 	C 	0.4315	0.3617	0.7477	0.102
Mof_C 	C 	0.4336	0.2869	0.7295	-0.246
Mof_H 	H 	0.4161	0.2508	0.7349	0.114
Mof_H 	H 	0.4264	0.2917	0.7054	0.109
Mof_H 	H 	0.4701	0.3011	0.7324	0.109
Mof_C 	C 	0.4663	0.392	0.7188	-0.132
Mof_H 	H 	0.4776	0.3765	0.7025	0.084
Mof_C 	C 	0.482	0.4433	0.716	0.045
Mof_C 	C 	0.5164	0.4745	0.6877	-0.081
Mof_C 	C 	0.5289	0.5259	0.6834	0.031
Mof_C 	C 	0.5671	0.5576	0.6554	-0.13
Mof_H 	H 	0.5831	0.5439	0.6416	0.081
Mof_C 	C 	0.5775	0.6068	0.6509	0.085
Mof_C 	C 	0.6387	0.6213	0.6048	-0.248
Mof_H 	H 	0.6582	0.6113	0.6197	0.111
Mof_H 	H 	0.6145	0.5923	0.591	0.108
Mof_H 	H 	0.6618	0.6485	0.5891	0.127
Mof_C 	C 	0.5545	0.6291	0.6713	0.102
Mof_C 	C 	0.5454	0.7025	0.6797	-0.216
Mof_H 	H 	0.5394	0.6912	0.704	0.095
Mof_H 	H 	0.5683	0.7392	0.679	0.105
Mof_H 	H 	0.5133	0.6942	0.6686	0.104
Mof_C 	C 	0.52	0.6007	0.6971	-0.147
Mof_H 	H 	0.5039	0.615	0.7101	0.084
Mof_C 	C 	0.5082	0.5487	0.7044	0.048
Mof_C 	C 	0.5377	0.4504	0.6641	0.139
Mof_C 	C 	0.5247	0.4412	0.6294	-0.201
Mof_H 	H 	0.5014	0.4503	0.6204	0.105
Mof_C 	C 	0.5436	0.4194	0.6069	0.12
Mof_H 	H 	0.5318	0.412	0.5836	0.009
Mof_C 	C 	0.5809	0.4084	0.6189	-0.18
Mof_C 	C 	0.6061	0.3876	0.5946	0.404
Mof_C 	C 	0.5964	0.4186	0.6534	0.115
Mof_H 	H 	0.6216	0.4117	0.6619	-0.003
Mof_C 	C 	0.575	0.4386	0.6756	-0.197
Mof_H 	H 	0.5856	0.4447	0.6992	0.1
Mof_Zn	Zn	0.96455	0.93048	0.19551	1.216
Mof_O 	O 	0.00597	0.92283	0.15899	-0.521
Mof_O 	O 	0.26147	0.71873	0.89583	-0.504
Mof_O 	O 	0.08477	0.98413	0.17382	-0.535
Mof_O 	O 	0.30117	0.70473	0.94273	-0.543
Mof_O 	O 	0.05217	0.69123	0.13073	-0.152
Mof_O 	O 	0.08237	0.64663	0.08683	-0.154
Mof_O 	O 	0.23447	0.01123	0.99493	-0.17
Mof_O 	O 	0.27877	0.97253	0.95933	-0.14
Mof_C 	C 	0.05587	0.94493	0.15853	0.432
Mof_C 	C 	0.07727	0.92003	0.13393	-0.204
Mof_C 	C 	0.04677	0.88213	0.10973	0.131
Mof_H 	H 	0.01147	0.87003	0.10903	-0.001
Mof_C 	C 	0.06767	0.86233	0.08693	-0.233
Mof_H 	H 	0.04707	0.83913	0.06953	0.126
Mof_C 	C 	0.11887	0.87613	0.08923	0.166
Mof_C 	C 	0.14867	0.91243	0.11443	-0.237
Mof_H 	H 	0.18337	0.92213	0.11653	0.115
Mof_C 	C 	0.12977	0.93383	0.13573	0.145
Mof_H 	H 	0.15137	0.95843	0.15213	-0.012
Mof_C 	C 	0.14037	0.85393	0.06553	-0.097
Mof_C 	C 	0.12767	0.80003	0.07103	0.049
Mof_C 	C 	0.09487	0.77153	0.09933	-0.129
Mof_H 	H 	0.08127	0.78653	0.11423	0.083
Mof_C 	C 	0.08247	0.71953	0.10493	0.101
Mof_C 	C 	0.03307	0.71403	0.15663	-0.266
Mof_H 	H 	0.01447	0.68933	0.17493	0.127
Mof_H 	H 	0.06157	0.74403	0.16683	0.124
Mof_H 	H 	0.01047	0.72353	0.14493	0.117
Mof_C 	C 	0.09817	0.69503	0.08103	0.1
Mof_C 	C 	0.10027	0.62023	0.06283	-0.247
Mof_H 	H 	0.08277	0.58413	0.06823	0.114
Mof_H 	H 	0.09307	0.62503	0.03873	0.11
Mof_H 	H 	0.13677	0.63443	0.06573	0.11
Mof_C 	C 	0.13297	0.72533	0.05213	-0.129
Mof_H 	H 	0.14427	0.70983	0.03583	0.083
Mof_C 	C 	0.14867	0.77663	0.04933	0.041
Mof_C 	C 	0.18307	0.80783	0.02103	-0.072
Mof_C 	C 	0.19557	0.85923	0.01673	0.027
Mof_C 	C 	0.23377	0.89093	0.98873	-0.127
Mof_H 	H 	0.24977	0.87723	0.97493	0.079
Mof_C 	C 	0.24417	0.94013	0.98423	0.077
Mof_C 	C 	0.30537	0.95463	0.93813	-0.255
Mof_H 	H 	0.32487	0.94463	0.95303	0.114
Mof_H 	H 	0.28117	0.92563	0.92433	0.11
Mof_H 	H 	0.32847	0.98183	0.92243	0.13
Mof_C 	C 	0.22117	0.96243	0.00463	0.118
Mof_C 	C 	0.21207	0.03583	0.01303	-0.199
Mof_H 	H 	0.20607	0.02453	0.03733	0.088
Mof_H 	H 	0.23497	0.07253	0.01233	0.101
Mof_H 	H 	0.17997	0.02753	0.00193	0.099
Mof_C 	C 	0.18667	0.93403	0.03043	-0.156
Mof_H 	H 	0.17057	0.94833	0.04343	0.088
Mof_C 	C 	0.17487	0.88203	0.03773	0.054
Mof_C 	C 	0.20437	0.78373	0.99743	0.122
Mof_C 	C 	0.19137	0.77453	0.96273	-0.188
Mof_H 	H 	0.16807	0.78363	0.95373	0.1
Mof_C 	C 	0.21027	0.75273	0.94023	0.108
Mof_H 	H 	0.19847	0.74533	0.91693	0.013
Mof_C 	C 	0.24757	0.74173	0.95223	-0.17
Mof_C 	C 	0.27277	0.72093	0.92793	0.4
Mof_C 	C 	0.26307	0.75193	0.98673	0.099
Mof_H 	H 	0.28827	0.74503	0.99523	0.002
Mof_C 	C 	0.24167	0.77193	0.00893	-0.177
Mof_H 	H 	0.25227	0.77803	0.03253	0.094
Mof_Zn	Zn	0.63121	0.26382	0.52885	1.214
Mof_O 	O 	0.67263	0.25617	0.49233	-0.52
Mof_O 	O 	0.92813	0.05207	0.22917	-0.504
Mof_O 	O 	0.75143	0.31747	0.50716	-0.537
Mof_O 	O 	0.96783	0.03807	0.27607	-0.542
Mof_O 	O 	0.71883	0.02457	0.46407	-0.152
Mof_O 	O 	0.74903	0.97997	0.42017	-0.148
Mof_O 	O 	0.90113	0.34457	0.32827	-0.157
Mof_O 	O 	0.94543	0.30587	0.29267	-0.143
Mof_C 	C 	0.72253	0.27827	0.49187	0.432
Mof_C 	C 	0.74393	0.25337	0.46727	-0.204
Mof_C 	C 	0.71343	0.21547	0.44307	0.13
Mof_H 	H 	0.67813	0.20337	0.44237	0
Mof_C 	C 	0.73433	0.19567	0.42027	-0.232
Mof_H 	H 	0.71373	0.17247	0.40287	0.126
Mof_C 	C 	0.78553	0.20947	0.42257	0.165
Mof_C 	C 	0.81533	0.24577	0.44777	-0.236
Mof_H 	H 	0.85003	0.25547	0.44987	0.115
Mof_C 	C 	0.79643	0.26717	0.46907	0.144
Mof_H 	H 	0.81803	0.29177	0.48547	-0.013
Mof_C 	C 	0.80703	0.18727	0.39887	-0.095
Mof_C 	C 	0.79433	0.13337	0.40437	0.048
Mof_C 	C 	0.76153	0.10487	0.43267	-0.129
Mof_H 	H 	0.74793	0.11987	0.44757	0.083
Mof_C 	C 	0.74913	0.05287	0.43827	0.102
Mof_C 	C 	0.69973	0.04737	0.48997	-0.267
Mof_H 	H 	0.68113	0.02267	0.50827	0.128
Mof_H 	H 	0.72823	0.07737	0.50017	0.124
Mof_H 	H 	0.67713	0.05687	0.47827	0.118
Mof_C 	C 	0.76483	0.02837	0.41437	0.095
Mof_C 	C 	0.76693	0.95357	0.39617	-0.253
Mof_H 	H 	0.74943	0.91747	0.40157	0.117
Mof_H 	H 	0.75973	0.95837	0.37207	0.113
Mof_H 	H 	0.80343	0.96777	0.39907	0.113
Mof_C 	C 	0.79963	0.05867	0.38547	-0.129
Mof_H 	H 	0.81093	0.04317	0.36917	0.081
Mof_C 	C 	0.81533	0.10997	0.38267	0.043
Mof_C 	C 	0.84973	0.14117	0.35437	-0.08
Mof_C 	C 	0.86223	0.19257	0.35007	0.031
Mof_C 	C 	0.90043	0.22427	0.32207	-0.13
Mof_H 	H 	0.91643	0.21057	0.30827	0.081
Mof_C 	C 	0.91083	0.27347	0.31757	0.085
Mof_C 	C 	0.97203	0.28797	0.27147	-0.253
Mof_H 	H 	0.99153	0.27797	0.28637	0.114
Mof_H 	H 	0.94783	0.25897	0.25767	0.109
Mof_H 	H 	0.99513	0.31517	0.25577	0.13
Mof_C 	C 	0.88783	0.29577	0.33797	0.102
Mof_C 	C 	0.87873	0.36917	0.34637	-0.217
Mof_H 	H 	0.87273	0.35787	0.37067	0.095
Mof_H 	H 	0.90163	0.40587	0.34567	0.106
Mof_H 	H 	0.84663	0.36087	0.33527	0.105
Mof_C 	C 	0.85333	0.26737	0.36377	-0.148
Mof_H 	H 	0.83723	0.28167	0.37677	0.084
Mof_C 	C 	0.84153	0.21537	0.37107	0.049
Mof_C 	C 	0.87103	0.11707	0.33077	0.138
Mof_C 	C 	0.85803	0.10787	0.29607	-0.201
Mof_H 	H 	0.83473	0.11697	0.28707	0.105
Mof_C 	C 	0.87693	0.08607	0.27357	0.119
Mof_H 	H 	0.86513	0.07867	0.25027	0.009
Mof_C 	C 	0.91423	0.07507	0.28557	-0.179
Mof_C 	C 	0.93943	0.05427	0.26127	0.403
Mof_C 	C 	0.92973	0.08527	0.32007	0.115
Mof_H 	H 	0.95493	0.07837	0.32857	-0.002
Mof_C 	C 	0.90833	0.10527	0.34227	-0.197
Mof_H 	H 	0.91893	0.11137	0.36587	0.1
Mof_Zn	Zn	0.40285	0.70073	0.86218	1.214
Mof_O 	O 	0.4105	0.7498	0.82566	-0.52
Mof_O 	O 	0.6146	0.2094	0.5625	-0.504
Mof_O 	O 	0.3492	0.7673	0.84049	-0.537
Mof_O 	O 	0.6286	0.2631	0.6094	-0.543
Mof_O 	O 	0.6421	0.0276	0.7974	-0.153
Mof_O 	O 	0.6867	0.1024	0.7535	-0.154
Mof_O 	O 	0.3221	0.8899	0.6616	-0.157
Mof_O 	O 	0.3608	0.9729	0.626	-0.142
Mof_C 	C 	0.3884	0.7776	0.8252	0.432
Mof_C 	C 	0.4133	0.8239	0.8006	-0.205
Mof_C 	C 	0.4512	0.8313	0.7764	0.131
Mof_H 	H 	0.4633	0.8081	0.7757	-0
Mof_C 	C 	0.471	0.872	0.7536	-0.233
Mof_H 	H 	0.4942	0.8746	0.7362	0.127
Mof_C 	C 	0.4572	0.9094	0.7559	0.167
Mof_C 	C 	0.4209	0.9029	0.7811	-0.238
Mof_H 	H 	0.4112	0.9279	0.7832	0.115
Mof_C 	C 	0.3995	0.8626	0.8024	0.145
Mof_H 	H 	0.3749	0.8596	0.8188	-0.013
Mof_C 	C 	0.4794	0.9531	0.7322	-0.097
Mof_C 	C 	0.5333	0.9943	0.7377	0.052
Mof_C 	C 	0.5618	0.99	0.766	-0.124
Mof_H 	H 	0.5468	0.9614	0.7809	0.082
Mof_C 	C 	0.6138	0.0296	0.7716	0.096
Mof_C 	C 	0.6193	0.9857	0.8233	-0.262
Mof_H 	H 	0.644	0.9918	0.8416	0.128
Mof_H 	H 	0.5893	0.9842	0.8335	0.124
Mof_H 	H 	0.6098	0.9536	0.8116	0.118
Mof_C 	C 	0.6383	0.0698	0.7477	0.101
Mof_C 	C 	0.7131	0.1467	0.7295	-0.246
Mof_H 	H 	0.7492	0.1653	0.7349	0.114
Mof_H 	H 	0.7083	0.1347	0.7054	0.109
Mof_H 	H 	0.6989	0.169	0.7324	0.109
Mof_C 	C 	0.608	0.0743	0.7188	-0.13
Mof_H 	H 	0.6235	0.1011	0.7025	0.083
Mof_C 	C 	0.5567	0.0387	0.716	0.038
Mof_C 	C 	0.5255	0.0419	0.6877	-0.078
Mof_C 	C 	0.4741	0.003	0.6834	0.025
Mof_C 	C 	0.4424	0.0095	0.6554	-0.135
Mof_H 	H 	0.4561	0.0392	0.6416	0.082
Mof_C 	C 	0.3932	0.9707	0.6509	0.089
Mof_C 	C 	0.3787	0.0174	0.6048	-0.255
Mof_H 	H 	0.3887	0.0469	0.6197	0.112
Mof_H 	H 	0.4077	0.0222	0.591	0.108
Mof_H 	H 	0.3515	0.0133	0.5891	0.127
Mof_C 	C 	0.3709	0.9254	0.6713	0.102
Mof_C 	C 	0.2975	0.8429	0.6797	-0.216
Mof_H 	H 	0.3088	0.8482	0.704	0.095
Mof_H 	H 	0.2608	0.8291	0.679	0.105
Mof_H 	H 	0.3058	0.8191	0.6686	0.104
Mof_C 	C 	0.3993	0.9193	0.6971	-0.149
Mof_H 	H 	0.385	0.8889	0.7101	0.084
Mof_C 	C 	0.4513	0.9595	0.7044	0.055
Mof_C 	C 	0.5496	0.0873	0.6641	0.136
Mof_C 	C 	0.5588	0.0835	0.6294	-0.199
Mof_H 	H 	0.5497	0.0511	0.6204	0.103
Mof_C 	C 	0.5806	0.1242	0.6069	0.118
Mof_H 	H 	0.588	0.1198	0.5836	0.009
Mof_C 	C 	0.5916	0.1725	0.6189	-0.179
Mof_C 	C 	0.6124	0.2185	0.5946	0.403
Mof_C 	C 	0.5814	0.1778	0.6534	0.114
Mof_H 	H 	0.5883	0.2099	0.6619	-0.002
Mof_C 	C 	0.5614	0.1364	0.6756	-0.195
Mof_H 	H 	0.5553	0.1409	0.6992	0.099
Mof_Zn	Zn	0.06952	0.03406	0.19551	1.213
Mof_O 	O 	0.07717	0.08313	0.15899	-0.521
Mof_O 	O 	0.28127	0.54273	0.89583	-0.504
Mof_O 	O 	0.01587	0.10063	0.17382	-0.54
Mof_O 	O 	0.29527	0.59643	0.94273	-0.543
Mof_O 	O 	0.30877	0.36093	0.13073	-0.15
Mof_O 	O 	0.35337	0.43573	0.08683	-0.153
Mof_O 	O 	0.98877	0.22323	0.99493	-0.158
Mof_O 	O 	0.02747	0.30623	0.95933	-0.147
Mof_C 	C 	0.05507	0.11093	0.15853	0.432
Mof_C 	C 	0.07997	0.15723	0.13393	-0.206
Mof_C 	C 	0.11787	0.16463	0.10973	0.131
Mof_H 	H 	0.12997	0.14143	0.10903	-0
Mof_C 	C 	0.13767	0.20533	0.08693	-0.233
Mof_H 	H 	0.16087	0.20793	0.06953	0.127
Mof_C 	C 	0.12387	0.24273	0.08923	0.165
Mof_C 	C 	0.08757	0.23623	0.11443	-0.237
Mof_H 	H 	0.07787	0.26123	0.11653	0.114
Mof_C 	C 	0.06617	0.19593	0.13573	0.144
Mof_H 	H 	0.04157	0.19293	0.15213	-0.014
Mof_C 	C 	0.14607	0.28643	0.06553	-0.095
Mof_C 	C 	0.19997	0.32763	0.07103	0.048
Mof_C 	C 	0.22847	0.32333	0.09933	-0.128
Mof_H 	H 	0.21347	0.29473	0.11423	0.082
Mof_C 	C 	0.28047	0.36293	0.10493	0.1
Mof_C 	C 	0.28597	0.31903	0.15663	-0.27
Mof_H 	H 	0.31067	0.32513	0.17493	0.129
Mof_H 	H 	0.25597	0.31753	0.16683	0.125
Mof_H 	H 	0.27647	0.28693	0.14493	0.119
Mof_C 	C 	0.30497	0.40313	0.08103	0.101
Mof_C 	C 	0.37977	0.48003	0.06283	-0.248
Mof_H 	H 	0.41587	0.49863	0.06823	0.115
Mof_H 	H 	0.37497	0.46803	0.03873	0.111
Mof_H 	H 	0.36557	0.50233	0.06573	0.11
Mof_C 	C 	0.27467	0.40763	0.05213	-0.13
Mof_H 	H 	0.29017	0.43443	0.03583	0.083
Mof_C 	C 	0.22337	0.37203	0.04933	0.042
Mof_C 	C 	0.19217	0.37523	0.02103	-0.073
Mof_C 	C 	0.14077	0.33633	0.01673	0.03
Mof_C 	C 	0.10907	0.34283	0.98873	-0.132
Mof_H 	H 	0.12277	0.37253	0.97493	0.081
Mof_C 	C 	0.05987	0.30403	0.98423	0.082
Mof_C 	C 	0.04537	0.35073	0.93813	-0.244
Mof_H 	H 	0.05537	0.38023	0.95303	0.108
Mof_H 	H 	0.07437	0.35553	0.92433	0.106
Mof_H 	H 	0.01817	0.34663	0.92243	0.123
Mof_C 	C 	0.03757	0.25873	0.00463	0.103
Mof_C 	C 	0.96417	0.17623	0.01303	-0.214
Mof_H 	H 	0.97547	0.18153	0.03733	0.096
Mof_H 	H 	0.92747	0.16243	0.01233	0.105
Mof_H 	H 	0.97247	0.15243	0.00193	0.106
Mof_C 	C 	0.06597	0.25263	0.03043	-0.148
Mof_H 	H 	0.05167	0.22223	0.04343	0.083
Mof_C 	C 	0.11797	0.29283	0.03773	0.049
Mof_C 	C 	0.21627	0.42063	0.99743	0.122
Mof_C 	C 	0.22547	0.41683	0.96273	-0.187
Mof_H 	H 	0.21637	0.38443	0.95373	0.1
Mof_C 	C 	0.24727	0.45753	0.94023	0.107
Mof_H 	H 	0.25467	0.45313	0.91693	0.013
Mof_C 	C 	0.25827	0.50583	0.95223	-0.17
Mof_C 	C 	0.27907	0.55183	0.92793	0.4
Mof_C 	C 	0.24807	0.51113	0.98673	0.098
Mof_H 	H 	0.25497	0.54323	0.99523	0.002
Mof_C 	C 	0.22807	0.46973	0.00893	-0.176
Mof_H 	H 	0.22197	0.47423	0.03253	0.094
Mof_Zn	Zn	0.73618	0.3674	0.52885	1.214
Mof_O 	O 	0.74383	0.41647	0.49233	-0.52
Mof_O 	O 	0.94793	0.87607	0.22917	-0.503
Mof_O 	O 	0.68253	0.43397	0.50716	-0.537
Mof_O 	O 	0.96193	0.92977	0.27607	-0.539
Mof_O 	O 	0.97543	0.69427	0.46407	-0.147
Mof_O 	O 	0.02003	0.76907	0.42017	-0.159
Mof_O 	O 	0.65543	0.55657	0.32827	-0.157
Mof_O 	O 	0.69413	0.63957	0.29267	-0.144
Mof_C 	C 	0.72173	0.44427	0.49187	0.431
Mof_C 	C 	0.74663	0.49057	0.46727	-0.204
Mof_C 	C 	0.78453	0.49797	0.44307	0.129
Mof_H 	H 	0.79663	0.47477	0.44237	0
Mof_C 	C 	0.80433	0.53867	0.42027	-0.231
Mof_H 	H 	0.82753	0.54127	0.40287	0.126
Mof_C 	C 	0.79053	0.57607	0.42257	0.164
Mof_C 	C 	0.75423	0.56957	0.44777	-0.235
Mof_H 	H 	0.74453	0.59457	0.44987	0.114
Mof_C 	C 	0.73283	0.52927	0.46907	0.143
Mof_H 	H 	0.70823	0.52627	0.48547	-0.012
Mof_C 	C 	0.81273	0.61977	0.39887	-0.093
Mof_C 	C 	0.86663	0.66097	0.40437	0.045
Mof_C 	C 	0.89513	0.65667	0.43267	-0.125
Mof_H 	H 	0.88013	0.62807	0.44757	0.081
Mof_C 	C 	0.94713	0.69627	0.43827	0.097
Mof_C 	C 	0.95263	0.65237	0.48997	-0.273
Mof_H 	H 	0.97733	0.65847	0.50827	0.132
Mof_H 	H 	0.92263	0.65087	0.50017	0.127
Mof_H 	H 	0.94313	0.62027	0.47827	0.121
Mof_C 	C 	0.97163	0.73647	0.41437	0.109
Mof_C 	C 	0.04643	0.81337	0.39617	-0.241
Mof_H 	H 	0.08253	0.83197	0.40157	0.113
Mof_H 	H 	0.04163	0.80137	0.37207	0.107
Mof_H 	H 	0.03223	0.83567	0.39907	0.107
Mof_C 	C 	0.94133	0.74097	0.38547	-0.135
Mof_H 	H 	0.95683	0.76777	0.36917	0.086
Mof_C 	C 	0.89003	0.70537	0.38267	0.047
Mof_C 	C 	0.85883	0.70857	0.35437	-0.082
Mof_C 	C 	0.80743	0.66967	0.35007	0.031
Mof_C 	C 	0.77573	0.67617	0.32207	-0.131
Mof_H 	H 	0.78943	0.70587	0.30827	0.081
Mof_C 	C 	0.72653	0.63737	0.31757	0.085
Mof_C 	C 	0.71203	0.68407	0.27147	-0.248
Mof_H 	H 	0.72203	0.71357	0.28637	0.111
Mof_H 	H 	0.74103	0.68887	0.25767	0.108
Mof_H 	H 	0.68483	0.67997	0.25577	0.127
Mof_C 	C 	0.70423	0.59207	0.33797	0.102
Mof_C 	C 	0.63083	0.50957	0.34637	-0.216
Mof_H 	H 	0.64213	0.51487	0.37067	0.095
Mof_H 	H 	0.59413	0.49577	0.34567	0.105
Mof_H 	H 	0.63913	0.48577	0.33527	0.104
Mof_C 	C 	0.73263	0.58597	0.36377	-0.147
Mof_H 	H 	0.71833	0.55557	0.37677	0.084
Mof_C 	C 	0.78463	0.62617	0.37107	0.048
Mof_C 	C 	0.88293	0.75397	0.33077	0.139
Mof_C 	C 	0.89213	0.75017	0.29607	-0.201
Mof_H 	H 	0.88303	0.71777	0.28707	0.105
Mof_C 	C 	0.91393	0.79087	0.27357	0.119
Mof_H 	H 	0.92133	0.78647	0.25027	0.01
Mof_C 	C 	0.92493	0.83917	0.28557	-0.178
Mof_C 	C 	0.94573	0.88517	0.26127	0.403
Mof_C 	C 	0.91473	0.84447	0.32007	0.115
Mof_H 	H 	0.92163	0.87657	0.32857	-0.002
Mof_C 	C 	0.89473	0.80307	0.34227	-0.196
Mof_H 	H 	0.88863	0.80757	0.36587	0.101
Mof_Zn	Zn	0.33333	0.66667	0.93353	1.231
Mof_O 	O 	0.33333	0.66667	0.881	-0.941
Mof_Zn	Zn	-3.45964e-33	6.91929e-33	0.26686	1.229
Mof_O 	O 	3.45964e-33	0	0.21433	-0.946
Mof_Zn	Zn	0.66667	0.33333	0.6002	1.231
Mof_O 	O 	0.66667	0.33333	0.54767	-0.941
_end
