data_functionalizedCrystal
_audit_creation_method	'EQeq! by Chris Wilmer'
_symmetry_space_group_name_H-M	'P1'
_symmetry_Int_Tables_number	1
_symmetry_cell_setting	triclinic
loop_
_symmetry_equiv_pos_as_xyz
  x,y,z
_cell_length_a	13.871
_cell_length_b	15.102
_cell_length_c	19.994
_cell_angle_alpha	90
_cell_angle_beta	90
_cell_angle_gamma	94.69
loop_
_atom_site_label
_atom_site_type_symbol
_atom_site_fract_x
_atom_site_fract_y
_atom_site_fract_z
_atom_site_charge
Mof_Zn	Zn	0.06754	0.55534	0.6599	1.226
Mof_Zn	Zn	0.55377	0.92992	0.56264	1.243
Mof_Zn	Zn	0.93246	0.94466	0.1599	1.253
Mof_Zn	Zn	0.93246	0.44466	0.3401	1.249
Mof_Zn	Zn	0.44623	0.07008	0.43736	1.232
Mof_Zn	Zn	0.06754	0.05534	0.8401	1.219
Mof_Zn	Zn	6.40914e-18	0.5	0.5	1.218
Mof_Zn	Zn	0.55377	0.42992	0.93736	1.243
Mof_Zn	Zn	-0	0	-0	1.197
Mof_Zn	Zn	0.44623	0.57008	0.06264	1.234
Mof_H 	H 	0.939	0.806	0.947	0.046
Mof_H 	H 	0.81	0.473	0.751	0.068
Mof_H 	H 	0.546	0.843	0.7716	0.066
Mof_H 	H 	0.258	0.393	0.114	0.044
Mof_H 	H 	0.711	0.225	0.43	0.06
Mof_H 	H 	0.498	0.8	0.989	0.274
Mof_H 	H 	0.289	0.775	0.57	0.059
Mof_H 	H 	0.289	0.275	0.93	0.053
Mof_H 	H 	0.19	0.027	0.251	0.044
Mof_H 	H 	0.454	0.657	0.2716	0.063
Mof_H 	H 	0.502	0.7	0.489	0.263
Mof_H 	H 	0.742	0.107	0.614	0.042
Mof_H 	H 	0.718	0.903	0.934	0.065
Mof_H 	H 	0.711	0.725	0.07	0.065
Mof_H 	H 	0.546	0.343	0.7284	0.063
Mof_H 	H 	0.718	0.403	0.566	0.056
Mof_H 	H 	0.498	0.3	0.511	0.263
Mof_H 	H 	0.19	0.527	0.249	0.054
Mof_H 	H 	0.939	0.306	0.553	0.054
Mof_H 	H 	0.81	0.973	0.749	0.075
Mof_H 	H 	0.454	0.157	0.2284	0.06
Mof_H 	H 	0.031	0.388	0.208	0.204
Mof_H 	H 	0.258	0.893	0.386	0.053
Mof_H 	H 	0.282	0.597	0.434	0.054
Mof_H 	H 	0.282	0.097	0.066	0.045
Mof_H 	H 	0.061	0.194	0.053	0.023
Mof_H 	H 	0.031	0.888	0.292	0.209
Mof_H 	H 	0.742	0.607	0.886	0.05
Mof_H 	H 	0.969	0.612	0.792	0.26
Mof_H 	H 	0.969	0.112	0.708	0.26
Mof_H 	H 	0.061	0.694	0.447	0.016
Mof_H 	H 	0.502	0.2	0.011	0.251
Mof_C 	C 	0.252	0.2774	0.97329	0.095
Mof_C 	C 	0.7231	0.7936	0.43533	-0.139
Mof_C 	C 	0.851	0.204	0.59065	-0.096
Mof_C 	C 	0.1689	0.3106	0.60692	-0.166
Mof_C 	C 	0.1226	0.3966	0.60133	0.411
Mof_C 	C 	0.7143	0.1596	0.52114	-0.114
Mof_C 	C 	0.3444	0.5856	0.17722	0.329
Mof_C 	C 	0.1673	0.2252	0.98428	-0.085
Mof_C 	C 	0.2517	0.6486	0.88259	0.143
Mof_C 	C 	0.3269	0.0908	0.24812	-0.089
Mof_C 	C 	0.1861	0.1729	0.66606	-0.153
Mof_C 	C 	0.6195	0.8652	0.86273	-0.079
Mof_C 	C 	0.8311	0.1894	0.10692	-0.158
Mof_C 	C 	0.8376	0.887	0.27537	0.352
Mof_C 	C 	0.2336	0.8511	0.42028	0.067
Mof_C 	C 	0.3805	0.6348	0.36273	-0.09
Mof_C 	C 	0.8731	0.4815	0.62658	0.399
Mof_C 	C 	0.2857	0.8404	0.47886	-0.112
Mof_C 	C 	0.765	0.2133	0.05832	0.127
Mof_C 	C 	0.2336	0.3511	0.07972	0.066
Mof_C 	C 	0.6029	0.369	0.7061	0.037
Mof_C 	C 	0.7594	0.9455	0.77861	0.052
Mof_C 	C 	0.6731	0.4092	0.74812	-0.076
Mof_C 	C 	0.149	0.796	0.40935	-0.111
Mof_C 	C 	0.2229	0.0577	0.15316	-0.105
Mof_C 	C 	0.3269	0.5908	0.25188	-0.085
Mof_C 	C 	0.6503	0.8188	0.48663	0.363
Mof_C 	C 	0.235	0.2867	0.55832	0.131
Mof_C 	C 	0.2229	0.5577	0.34684	-0.109
Mof_C 	C 	0.8376	0.387	0.22463	0.349
Mof_C 	C 	0.1269	0.5185	0.37342	0.406
Mof_C 	C 	0.6197	0.6055	0.99014	0.418
Mof_C 	C 	0.6503	0.3188	0.01337	0.326
Mof_C 	C 	0.252	0.7774	0.52671	0.071
Mof_C 	C 	0.6197	0.1055	0.50986	0.389
Mof_C 	C 	0.6731	0.9092	0.75188	-0.071
Mof_C 	C 	0.7771	0.9423	0.84684	-0.095
Mof_C 	C 	0.1624	0.613	0.77537	0.353
Mof_C 	C 	0.8674	0.8423	0.06755	0.338
Mof_C 	C 	0.1624	0.113	0.72463	0.351
Mof_C 	C 	0.3971	0.131	0.2061	0.041
Mof_C 	C 	0.7771	0.4423	0.65316	-0.095
Mof_C 	C 	0.3497	0.6812	0.98663	0.397
Mof_C 	C 	0.7664	0.1489	0.57972	0.064
Mof_C 	C 	0.7231	0.2936	0.06467	-0.129
Mof_C 	C 	0.9051	0.2017	0.65474	0.359
Mof_C 	C 	0.3971	0.631	0.2939	0.043
Mof_C 	C 	0.1861	0.6729	0.83394	-0.153
Mof_C 	C 	0.2769	0.2064	0.56467	-0.142
Mof_C 	C 	0.1155	0.7328	0.45664	0.064
Mof_C 	C 	0.3803	0.8945	0.49014	0.389
Mof_C 	C 	0.7143	0.6596	0.97886	-0.088
Mof_C 	C 	0.7664	0.6489	0.92028	0.066
Mof_C 	C 	0.8538	0.7455	0.3387	0.169
Mof_C 	C 	0.3444	0.0856	0.32278	0.327
Mof_C 	C 	0.2857	0.3404	0.02114	-0.14
Mof_C 	C 	0.2769	0.7064	0.93533	-0.151
Mof_C 	C 	0.2517	0.1486	0.61741	0.128
Mof_C 	C 	0.765	0.7133	0.44168	0.146
Mof_C 	C 	0.8731	0.9815	0.87342	0.43
Mof_C 	C 	0.1689	0.8106	0.89308	-0.165
Mof_C 	C 	0.3497	0.1812	0.51337	0.361
Mof_C 	C 	0.2939	0.0986	0.11041	0.049
Mof_C 	C 	0.1155	0.2328	0.04336	0.021
Mof_C 	C 	0.7061	0.4014	0.61041	0.046
Mof_C 	C 	0.9051	0.7017	0.84526	0.361
Mof_C 	C 	0.1673	0.7252	0.51572	-0.116
Mof_C 	C 	0.748	0.2226	0.47329	0.066
Mof_C 	C 	0.0949	0.2983	0.15474	0.346
Mof_C 	C 	0.8538	0.2455	0.1613	0.166
Mof_C 	C 	0.3803	0.3945	0.00986	0.359
Mof_C 	C 	0.6195	0.3652	0.63727	-0.086
Mof_C 	C 	0.8774	0.1034	0.10133	0.423
Mof_C 	C 	0.8845	0.2672	0.54336	0.054
Mof_C 	C 	0.1326	0.6577	0.56755	0.346
Mof_C 	C 	0.1462	0.7545	0.8387	0.13
Mof_C 	C 	0.1269	0.0185	0.12658	0.355
Mof_C 	C 	0.7483	0.8514	0.38259	0.154
Mof_C 	C 	0.0949	0.7983	0.34526	0.349
Mof_C 	C 	0.8327	0.7748	0.01572	-0.121
Mof_C 	C 	0.6556	0.9144	0.67722	0.324
Mof_C 	C 	0.5396	0.8181	0.90354	0.361
Mof_C 	C 	0.7061	0.9014	0.88959	0.048
Mof_C 	C 	0.149	0.296	0.09065	-0.108
Mof_C 	C 	0.8311	0.6894	0.39308	-0.158
Mof_C 	C 	0.7483	0.3514	0.11741	0.141
Mof_C 	C 	0.5396	0.3181	0.59646	0.36
Mof_C 	C 	0.8845	0.7672	0.95664	0.092
Mof_C 	C 	0.4604	0.1819	0.09646	0.359
Mof_C 	C 	0.8139	0.8271	0.33394	-0.142
Mof_C 	C 	0.1462	0.2545	0.6613	0.123
Mof_C 	C 	0.6029	0.869	0.7939	0.038
Mof_C 	C 	0.2406	0.0545	0.22139	0.047
Mof_C 	C 	0.7594	0.4455	0.72139	0.048
Mof_C 	C 	0.6556	0.4144	0.82278	0.323
Mof_C 	C 	0.235	0.7867	0.94168	0.151
Mof_C 	C 	0.748	0.7226	0.02671	0.043
Mof_C 	C 	0.8674	0.3423	0.43245	0.334
Mof_C 	C 	0.851	0.704	0.90935	-0.1
Mof_C 	C 	0.8327	0.2748	0.48428	-0.094
Mof_C 	C 	0.8139	0.3271	0.16606	-0.141
Mof_C 	C 	0.4604	0.6819	0.40354	0.361
Mof_C 	C 	0.3805	0.1348	0.13727	-0.095
Mof_C 	C 	0.1326	0.1577	0.93245	0.34
Mof_C 	C 	0.8774	0.6034	0.39867	0.421
Mof_C 	C 	0.2406	0.5545	0.27861	0.055
Mof_C 	C 	0.2939	0.5986	0.38959	0.053
Mof_C 	C 	0.1226	0.8966	0.89867	0.408
Mof_O 	O 	0.8903	0.56374	0.34435	-0.434
Mof_O 	O 	0.5496	0.8271	0.96917	-0.392
Mof_O 	O 	0.2739	0.07398	0.36094	-0.293
Mof_O 	O 	0.5496	0.3271	0.53083	-0.401
Mof_O 	O 	0.56786	0.90655	0.65837	-0.402
Mof_O 	O 	0.58223	0.61041	0.0471	-0.476
Mof_O 	O 	0.4718	0.2771	0.62237	-0.256
Mof_O 	O 	0.7771	0.43658	0.2449	-0.258
Mof_O 	O 	0.3923	0.23868	0.47662	-0.313
Mof_O 	O 	0.3612	0.59846	0.98962	-0.431
Mof_O 	O 	0.6077	0.76132	0.52338	-0.308
Mof_O 	O 	0.0689	0.7318	0.31414	-0.275
Mof_O 	O 	0.58376	0.56139	0.94121	-0.462
Mof_O 	O 	0.89294	0.46507	0.56699	-0.418
Mof_O 	O 	0.6077	0.26132	0.97662	-0.275
Mof_O 	O 	0.0689	0.2318	0.18586	-0.279
Mof_O 	O 	0.6388	0.90154	0.48962	-0.423
Mof_O 	O 	0.41624	0.93861	0.44121	-0.444
Mof_O 	O 	0.8173	0.3534	0.38173	-0.36
Mof_O 	O 	0.41777	0.38959	0.9529	-0.427
Mof_O 	O 	0.1827	0.1466	0.88173	-0.372
Mof_O 	O 	0.8173	0.8534	0.11827	-0.357
Mof_O 	O 	0.924	0.6204	0.82669	-0.351
Mof_O 	O 	0.1827	0.6466	0.61827	-0.369
Mof_O 	O 	0.07477	0.9723	0.16754	-0.431
Mof_O 	O 	0.92137	0.3825	0.25248	-0.387
Mof_O 	O 	0.0502	0.61481	0.56076	-0.523
Mof_O 	O 	0.41624	0.43861	0.05879	-0.458
Mof_O 	O 	0.7771	0.93658	0.2551	-0.247
Mof_O 	O 	0.1004	0.9219	0.95602	-0.426
Mof_O 	O 	0.2739	0.57398	0.13906	-0.286
Mof_O 	O 	0.1097	0.43626	0.65565	-0.472
Mof_O 	O 	0.8996	0.0781	0.04398	-0.427
Mof_O 	O 	0.3923	0.73868	0.02338	-0.344
Mof_O 	O 	0.1097	0.93626	0.84435	-0.45
Mof_O 	O 	0.9498	0.88519	0.06076	-0.461
Mof_O 	O 	0.9311	0.2682	0.68586	-0.224
Mof_O 	O 	0.58376	0.06139	0.55879	-0.475
Mof_O 	O 	0.10706	0.03493	0.06699	-0.469
Mof_O 	O 	0.4504	0.6729	0.46917	-0.401
Mof_O 	O 	0.07477	0.4723	0.33246	-0.479
Mof_O 	O 	0.2229	0.56342	0.7551	-0.266
Mof_O 	O 	0.56786	0.40655	0.84163	-0.409
Mof_O 	O 	0.8996	0.5781	0.45602	-0.409
Mof_O 	O 	0.4718	0.7771	0.87763	-0.251
Mof_O 	O 	0.924	0.1204	0.67331	-0.359
Mof_O 	O 	0.41777	0.88959	0.5471	-0.445
Mof_O 	O 	0.92137	0.8825	0.24752	-0.386
Mof_O 	O 	0.43214	0.09345	0.34163	-0.42
Mof_O 	O 	0.2229	0.06342	0.7449	-0.28
Mof_O 	O 	0.58223	0.11041	0.4529	-0.459
Mof_O 	O 	0.6388	0.40154	0.01038	-0.437
Mof_O 	O 	0.3612	0.09846	0.51038	-0.448
Mof_O 	O 	0.9498	0.38519	0.43924	-0.459
Mof_O 	O 	0.076	0.8796	0.32669	-0.359
Mof_O 	O 	0.9311	0.7682	0.81414	-0.225
Mof_O 	O 	0.5282	0.7229	0.37763	-0.254
Mof_O 	O 	0.1004	0.4219	0.54398	-0.459
Mof_O 	O 	0.0502	0.11481	0.93924	-0.518
Mof_O 	O 	0.5282	0.2229	0.12237	-0.26
Mof_O 	O 	0.07863	0.1175	0.75248	-0.466
Mof_O 	O 	0.07863	0.6175	0.74752	-0.459
Mof_O 	O 	0.7261	0.92602	0.63906	-0.256
Mof_O 	O 	0.10706	0.53493	0.43301	-0.461
Mof_O 	O 	0.4504	0.1729	0.03083	-0.411
Mof_O 	O 	0.92523	0.5277	0.66754	-0.407
Mof_O 	O 	0.8903	0.06374	0.15565	-0.45
Mof_O 	O 	0.43214	0.59345	0.15837	-0.413
Mof_O 	O 	0.076	0.3796	0.17331	-0.37
Mof_O 	O 	0.89294	0.96507	0.93301	-0.404
Mof_O 	O 	0.7261	0.42602	0.86094	-0.26
Mof_O 	O 	0.92523	0.0277	0.83246	-0.435
_end
