data_functionalizedCrystal
_audit_creation_method	'EQeq! by Chris Wilmer'
_symmetry_space_group_name_H-M	'P1'
_symmetry_Int_Tables_number	1
_symmetry_cell_setting	triclinic
loop_
_symmetry_equiv_pos_as_xyz
  x,y,z
_cell_length_a	28.286
_cell_length_b	9.8876
_cell_length_c	10.4994
_cell_angle_alpha	90
_cell_angle_beta	108.083
_cell_angle_gamma	90
loop_
_atom_site_label
_atom_site_type_symbol
_atom_site_fract_x
_atom_site_fract_y
_atom_site_fract_z
_atom_site_charge
Mof_O 	O 	0.5315	0.6416	0.6799	-0.286
Mof_O 	O 	0.59808	0.7454	0.7962	-0.251
Mof_C 	C 	0.5542	0.7499	0.724	0.304
Mof_C 	C 	0.5269	0.8797	0.6954	-0.046
Mof_C 	C 	0.475	0.8813	0.6431	-0.004
Mof_H 	H 	0.458	0.7995	0.6254	0.052
Mof_C 	C 	0.3696	0.1068	0.4797	-0.044
Mof_H 	H 	0.3882	0.1772	0.4608	0.058
Mof_C 	C 	0.3165	0.106	0.4222	-0.036
Mof_H 	H 	0.3002	0.1731	0.3631	0.056
Mof_C 	C 	0.3118	0.904	0.5488	-0.008
Mof_H 	H 	0.2928	0.8369	0.5719	0.045
Mof_C 	C 	0.3649	0.896	0.6041	-0.04
Mof_H 	H 	0.3799	0.8289	0.6657	0.06
Mof_O 	O 	0.0315	0.1416	0.6799	-0.295
Mof_O 	O 	0.09808	0.2454	0.7962	-0.261
Mof_C 	C 	0.0542	0.2499	0.724	0.318
Mof_C 	C 	0.0269	0.3797	0.6954	-0.094
Mof_C 	C 	0.975	0.3813	0.6431	0.005
Mof_H 	H 	0.958	0.2995	0.6254	0.049
Mof_C 	C 	0.8696	0.6068	0.4797	-0.044
Mof_H 	H 	0.8882	0.6772	0.4608	0.062
Mof_C 	C 	0.8165	0.606	0.4222	-0.041
Mof_H 	H 	0.8002	0.6731	0.3631	0.062
Mof_C 	C 	0.8118	0.404	0.5488	-0.044
Mof_H 	H 	0.7928	0.3369	0.5719	0.052
Mof_C 	C 	0.8649	0.396	0.6041	-0.041
Mof_H 	H 	0.8799	0.3289	0.6657	0.057
Mof_O 	O 	0.4685	0.6416	0.3201	-0.287
Mof_O 	O 	0.40192	0.7454	0.2038	-0.252
Mof_C 	C 	0.4458	0.7499	0.276	0.304
Mof_C 	C 	0.4731	0.8797	0.3046	-0.046
Mof_C 	C 	0.525	0.8813	0.3569	-0.005
Mof_H 	H 	0.542	0.7995	0.3746	0.052
Mof_C 	C 	0.6304	0.1068	0.5203	-0.044
Mof_H 	H 	0.6118	0.1772	0.5392	0.058
Mof_C 	C 	0.6835	0.106	0.5778	-0.035
Mof_H 	H 	0.6998	0.1731	0.6369	0.055
Mof_C 	C 	0.6882	0.904	0.4512	-0.008
Mof_H 	H 	0.7072	0.8369	0.4281	0.045
Mof_C 	C 	0.6351	0.896	0.3959	-0.04
Mof_H 	H 	0.6201	0.8289	0.3343	0.06
Mof_O 	O 	0.9685	0.1416	0.3201	-0.283
Mof_O 	O 	0.90192	0.2454	0.2038	-0.255
Mof_C 	C 	0.9458	0.2499	0.276	0.3
Mof_C 	C 	0.9731	0.3797	0.3046	-0.04
Mof_C 	C 	0.025	0.3813	0.3569	-0.058
Mof_H 	H 	0.042	0.2995	0.3746	0.066
Mof_C 	C 	0.1304	0.6068	0.5203	-0.034
Mof_H 	H 	0.1118	0.6772	0.5392	0.058
Mof_C 	C 	0.1835	0.606	0.5778	-0.047
Mof_H 	H 	0.1998	0.6731	0.6369	0.064
Mof_C 	C 	0.1882	0.404	0.4512	-0.048
Mof_H 	H 	0.2072	0.3369	0.4281	0.054
Mof_C 	C 	0.1351	0.396	0.3959	-0.034
Mof_H 	H 	0.1201	0.3289	0.3343	0.053
Mof_O 	O 	0.4685	0.3584	0.3201	-0.289
Mof_O 	O 	0.40192	0.2546	0.2038	-0.26
Mof_C 	C 	0.4458	0.2501	0.276	0.306
Mof_C 	C 	0.4731	0.1203	0.3046	-0.062
Mof_C 	C 	0.525	0.1187	0.3569	-0.026
Mof_H 	H 	0.542	0.2005	0.3746	0.057
Mof_C 	C 	0.6304	0.8932	0.5203	-0.02
Mof_H 	H 	0.6118	0.8228	0.5392	0.053
Mof_C 	C 	0.6835	0.894	0.5778	-0.033
Mof_H 	H 	0.6998	0.8269	0.6369	0.061
Mof_C 	C 	0.6882	0.096	0.4512	-0.039
Mof_H 	H 	0.7072	0.1631	0.4281	0.049
Mof_C 	C 	0.6351	0.104	0.3959	-0.043
Mof_H 	H 	0.6201	0.1711	0.3343	0.055
Mof_O 	O 	0.9685	0.8584	0.3201	-0.265
Mof_O 	O 	0.90192	0.7546	0.2038	-0.245
Mof_C 	C 	0.9458	0.7501	0.276	0.296
Mof_C 	C 	0.9731	0.6203	0.3046	-0.036
Mof_C 	C 	0.025	0.6187	0.3569	-0.059
Mof_H 	H 	0.042	0.7005	0.3746	0.07
Mof_C 	C 	0.1304	0.3932	0.5203	-0.036
Mof_H 	H 	0.1118	0.3228	0.5392	0.055
Mof_C 	C 	0.1835	0.394	0.5778	-0.045
Mof_H 	H 	0.1998	0.3269	0.6369	0.059
Mof_C 	C 	0.1882	0.596	0.4512	-0.047
Mof_H 	H 	0.2072	0.6631	0.4281	0.057
Mof_C 	C 	0.1351	0.604	0.3959	-0.036
Mof_H 	H 	0.1201	0.6711	0.3343	0.058
Mof_O 	O 	0.5315	0.3584	0.6799	-0.289
Mof_O 	O 	0.59808	0.2546	0.7962	-0.26
Mof_C 	C 	0.5542	0.2501	0.724	0.306
Mof_C 	C 	0.5269	0.1203	0.6954	-0.062
Mof_C 	C 	0.475	0.1187	0.6431	-0.026
Mof_H 	H 	0.458	0.2005	0.6254	0.057
Mof_C 	C 	0.3696	0.8932	0.4797	-0.02
Mof_H 	H 	0.3882	0.8228	0.4608	0.053
Mof_C 	C 	0.3165	0.894	0.4222	-0.033
Mof_H 	H 	0.3002	0.8269	0.3631	0.061
Mof_C 	C 	0.3118	0.096	0.5488	-0.039
Mof_H 	H 	0.2928	0.1631	0.5719	0.049
Mof_C 	C 	0.3649	0.104	0.6041	-0.043
Mof_H 	H 	0.3799	0.1711	0.6657	0.055
Mof_O 	O 	0.0315	0.8584	0.6799	-0.277
Mof_O 	O 	0.09808	0.7546	0.7962	-0.251
Mof_C 	C 	0.0542	0.7501	0.724	0.314
Mof_C 	C 	0.0269	0.6203	0.6954	-0.09
Mof_C 	C 	0.975	0.6187	0.6431	0.003
Mof_H 	H 	0.958	0.7005	0.6254	0.053
Mof_C 	C 	0.8696	0.3932	0.4797	-0.046
Mof_H 	H 	0.8882	0.3228	0.4608	0.059
Mof_C 	C 	0.8165	0.394	0.4222	-0.04
Mof_H 	H 	0.8002	0.3269	0.3631	0.058
Mof_C 	C 	0.8118	0.596	0.5488	-0.042
Mof_H 	H 	0.7928	0.6631	0.5719	0.055
Mof_C 	C 	0.8649	0.604	0.6041	-0.042
Mof_H 	H 	0.8799	0.6711	0.6657	0.062
Mof_Cd	Cd	0.5	0.5	0.5	0.513
Mof_Cd	Cd	9.11857e-34	0	0.5	0.489
Mof_Cd	Cd	0.60066	0.5	0.79285	0.505
Mof_Cd	Cd	0.10066	0	0.79285	0.493
Mof_Cd	Cd	0.39934	0.5	0.20715	0.505
Mof_Cd	Cd	0.89934	-2.2608e-33	0.20715	0.494
Mof_O 	O 	0.0727	-4.5216e-33	0.462	-0.296
Mof_O 	O 	0.1396	0	0.6415	-0.295
Mof_O 	O 	0.0915	0	0.0079	-0.247
Mof_O 	O 	0.1679	1.80864e-32	0.9891	-0.241
Mof_C 	C 	0.1185	0	0.5202	0.318
Mof_C 	C 	0.1378	1.1304e-33	0.0605	0.267
Mof_C 	C 	0.1514	4.5216e-33	0.43	-0.051
Mof_C 	C 	0.1286	4.5216e-33	0.2906	-0.029
Mof_H 	H 	0.0942	4.5216e-33	0.2533	0.071
Mof_C 	C 	0.1607	2.2608e-33	0.2081	-0.034
Mof_C 	C 	0.2128	0	0.2655	-0.061
Mof_H 	H 	0.2331	4.5216e-33	0.2108	0.073
Mof_C 	C 	0.2337	0	0.4035	0.015
Mof_C 	C 	0.2032	9.0432e-33	0.4899	-0.059
Mof_H 	H 	0.2173	0	0.5825	0.065
Mof_C 	C 	0.5516	0	0.7241	-0.022
Mof_H 	H 	0.5859	0	0.764	0.062
Mof_C 	C 	0.4483	9.0432e-33	0.617	-0.021
Mof_C 	C 	0.3936	0	0.5619	0.018
Mof_C 	C 	0.2899	4.5216e-33	0.4639	-0.002
Mof_O 	O 	0.5727	0.5	0.462	-0.29
Mof_O 	O 	0.6396	0.5	0.6415	-0.29
Mof_O 	O 	0.5915	0.5	0.0079	-0.241
Mof_O 	O 	0.6679	0.5	0.9891	-0.236
Mof_C 	C 	0.6185	0.5	0.5202	0.32
Mof_C 	C 	0.6378	0.5	0.0605	0.268
Mof_C 	C 	0.6514	0.5	0.43	-0.049
Mof_C 	C 	0.6286	0.5	0.2906	-0.027
Mof_H 	H 	0.5942	0.5	0.2533	0.075
Mof_C 	C 	0.6607	0.5	0.2081	-0.031
Mof_C 	C 	0.7128	0.5	0.2655	-0.054
Mof_H 	H 	0.7331	0.5	0.2108	0.074
Mof_C 	C 	0.7337	0.5	0.4035	0.008
Mof_C 	C 	0.7032	0.5	0.4899	-0.052
Mof_H 	H 	0.7173	0.5	0.5825	0.067
Mof_C 	C 	0.0516	0.5	0.7241	0.032
Mof_H 	H 	0.0859	0.5	0.764	0.051
Mof_C 	C 	0.9483	0.5	0.617	-0.022
Mof_C 	C 	0.8936	0.5	0.5619	0.046
Mof_C 	C 	0.7899	0.5	0.4639	0.037
Mof_O 	O 	0.9273	0	0.538	-0.29
Mof_O 	O 	0.8604	4.5216e-33	0.3585	-0.294
Mof_O 	O 	0.9085	0	0.9921	-0.244
Mof_O 	O 	0.8321	0	0.0109	-0.24
Mof_C 	C 	0.8815	0	0.4798	0.316
Mof_C 	C 	0.8622	9.0432e-33	0.9395	0.265
Mof_C 	C 	0.8486	9.0432e-33	0.57	-0.049
Mof_C 	C 	0.8714	0	0.7094	-0.031
Mof_H 	H 	0.9058	0	0.7467	0.074
Mof_C 	C 	0.8393	9.0432e-33	0.7919	-0.032
Mof_C 	C 	0.7872	9.0432e-33	0.7345	-0.063
Mof_H 	H 	0.7669	0	0.7892	0.073
Mof_C 	C 	0.7663	0	0.5965	0.016
Mof_C 	C 	0.7968	0	0.5101	-0.06
Mof_H 	H 	0.7827	4.5216e-33	0.4175	0.066
Mof_C 	C 	0.4484	-4.5216e-33	0.2759	-0.022
Mof_H 	H 	0.4141	2.2608e-33	0.236	0.062
Mof_C 	C 	0.5517	4.5216e-33	0.383	-0.021
Mof_C 	C 	0.6064	0	0.4381	0.018
Mof_C 	C 	0.7101	9.0432e-33	0.5361	-0.002
Mof_O 	O 	0.4273	0.5	0.538	-0.29
Mof_O 	O 	0.3604	0.5	0.3585	-0.29
Mof_O 	O 	0.4085	0.5	0.9921	-0.241
Mof_O 	O 	0.3321	0.5	0.0109	-0.235
Mof_C 	C 	0.3815	0.5	0.4798	0.32
Mof_C 	C 	0.3622	0.5	0.9395	0.268
Mof_C 	C 	0.3486	0.5	0.57	-0.05
Mof_C 	C 	0.3714	0.5	0.7094	-0.026
Mof_H 	H 	0.4058	0.5	0.7467	0.074
Mof_C 	C 	0.3393	0.5	0.7919	-0.032
Mof_C 	C 	0.2872	0.5	0.7345	-0.053
Mof_H 	H 	0.2669	0.5	0.7892	0.074
Mof_C 	C 	0.2663	0.5	0.5965	0.005
Mof_C 	C 	0.2968	0.5	0.5101	-0.05
Mof_H 	H 	0.2827	0.5	0.4175	0.067
Mof_C 	C 	0.9484	0.5	0.2759	-0.014
Mof_H 	H 	0.9141	0.5	0.236	0.067
Mof_C 	C 	0.0517	0.5	0.383	0.022
Mof_C 	C 	0.1064	0.5	0.4381	0.023
Mof_C 	C 	0.2101	0.5	0.5361	0.045
_end
