data_functionalizedCrystal
_audit_creation_method	'EQeq! by Chris Wilmer'
_symmetry_space_group_name_H-M	'P1'
_symmetry_Int_Tables_number	1
_symmetry_cell_setting	triclinic
loop_
_symmetry_equiv_pos_as_xyz
  x,y,z
_cell_length_a	13.7368
_cell_length_b	8.8737
_cell_length_c	7.9839
_cell_angle_alpha	90
_cell_angle_beta	120.815
_cell_angle_gamma	90
loop_
_atom_site_label
_atom_site_type_symbol
_atom_site_fract_x
_atom_site_fract_y
_atom_site_fract_z
_atom_site_charge
Mof_C 	C 	0.4965	0.1594	0.662	-0.092
Mof_N 	N 	0.4944	0.2591	0.7522	-0.191
Mof_C 	C 	0.9965	0.6594	0.662	-0.008
Mof_N 	N 	0.9944	0.7591	0.7522	-0.11
Mof_C 	C 	0.5035	0.1594	0.338	-0.165
Mof_N 	N 	0.5056	0.2591	0.2478	-0.293
Mof_C 	C 	0.0035	0.6594	0.338	-0.171
Mof_N 	N 	0.0056	0.7591	0.2478	-0.233
Mof_C 	C 	0.5035	0.8406	0.338	-0.067
Mof_N 	N 	0.5056	0.7409	0.2478	-0.294
Mof_C 	C 	0.0035	0.3406	0.338	-0.19
Mof_N 	N 	0.0056	0.2409	0.2478	-0.27
Mof_C 	C 	0.4965	0.8406	0.662	0.004
Mof_N 	N 	0.4944	0.7409	0.7522	-0.194
Mof_C 	C 	0.9965	0.3406	0.662	-0.025
Mof_N 	N 	0.9944	0.2409	0.7522	-0.143
Mof_Fe	Fe	0.5	0	0.5	0.526
Mof_Fe	Fe	3.40048e-17	0.5	0.5	0.518
Mof_K 	K 	-0	0	-0	1.138
Mof_K 	K 	0.5	0.5	-0	1.697
Mof_N 	N 	0.7601	0	0.7561	-0.152
Mof_C 	C 	0.663	-7.55057e-33	0.6578	-0.133
Mof_N 	N 	0.2601	0.5	0.7561	-0.194
Mof_C 	C 	0.163	0.5	0.6578	-0.095
Mof_N 	N 	0.2399	0	0.2439	-0.276
Mof_C 	C 	0.337	-3.77529e-33	0.3422	-0.204
Mof_N 	N 	0.7399	0.5	0.2439	-0.298
Mof_C 	C 	0.837	0.5	0.3422	-0.085
_end
