data_functionalizedCrystal
_audit_creation_method	'EQeq! by Chris Wilmer'
_symmetry_space_group_name_H-M	'P1'
_symmetry_Int_Tables_number	1
_symmetry_cell_setting	triclinic
loop_
_symmetry_equiv_pos_as_xyz
  x,y,z
_cell_length_a	10.292
_cell_length_b	29.887
_cell_length_c	38.593
_cell_angle_alpha	90
_cell_angle_beta	90
_cell_angle_gamma	90
loop_
_atom_site_label
_atom_site_type_symbol
_atom_site_fract_x
_atom_site_fract_y
_atom_site_fract_z
_atom_site_charge
Mof_N 	N 	0.961	0.0937	0.0459	-0.206
Mof_C 	C 	0.97	0.0842	0.0796	0.088
Mof_C 	C 	0.8656	0.0731	0.1003	-0.166
Mof_C 	C 	0.0073	0.6787	0.0857	0.101
Mof_C 	C 	0.0174	0.6694	0.0504	-0.166
Mof_C 	C 	0.9079	0.6582	0.0321	0.087
Mof_C 	C 	0.1281	0.6922	0.1048	-0.066
Mof_N 	N 	0.9806	0.8281	0.027	-0.202
Mof_C 	C 	0.0989	0.8112	0.0243	0.092
Mof_C 	C 	0.1569	0.7846	0.0495	-0.168
Mof_C 	C 	0.0903	0.7738	0.0794	0.103
Mof_C 	C 	0.9667	0.7911	0.082	-0.163
Mof_C 	C 	0.9185	0.8184	0.0558	0.091
Mof_C 	C 	0.1513	0.7448	0.1061	-0.067
Mof_H 	H 	0.0536	0.0851	0.09	-0.02
Mof_H 	H 	0.8778	0.0669	0.1242	0.077
Mof_H 	H 	0.0995	0.6707	0.0392	0.078
Mof_H 	H 	0.9172	0.6515	0.0082	-0.019
Mof_H 	H 	0.2063	0.6759	0.096	0.043
Mof_H 	H 	0.1028	0.8175	0.2461	-0.019
Mof_H 	H 	0.0072	0.7738	0.2038	0.076
Mof_H 	H 	0.9145	0.7843	0.1016	0.079
Mof_H 	H 	0.8346	0.831	0.059	-0.018
Mof_H 	H 	0.0031	0.7507	0.1434	0.041
Mof_N 	N 	0.961	0.5937	0.5459	-0.206
Mof_C 	C 	0.97	0.5842	0.5796	0.088
Mof_C 	C 	0.8656	0.5731	0.6003	-0.166
Mof_C 	C 	0.0073	0.1787	0.5857	0.101
Mof_C 	C 	0.0174	0.1694	0.5504	-0.166
Mof_C 	C 	0.9079	0.1582	0.5321	0.087
Mof_C 	C 	0.1281	0.1922	0.6048	-0.066
Mof_N 	N 	0.9806	0.3281	0.527	-0.202
Mof_C 	C 	0.0989	0.3112	0.5243	0.092
Mof_C 	C 	0.1569	0.2846	0.5495	-0.168
Mof_C 	C 	0.0903	0.2738	0.5794	0.104
Mof_C 	C 	0.9667	0.2911	0.582	-0.164
Mof_C 	C 	0.9185	0.3184	0.5558	0.091
Mof_C 	C 	0.1513	0.2448	0.6061	-0.067
Mof_H 	H 	0.0536	0.5851	0.59	-0.02
Mof_H 	H 	0.8778	0.5669	0.6242	0.077
Mof_H 	H 	0.0995	0.1707	0.5392	0.078
Mof_H 	H 	0.9172	0.1515	0.5082	-0.019
Mof_H 	H 	0.2063	0.1759	0.596	0.044
Mof_H 	H 	0.1028	0.3175	0.7461	-0.018
Mof_H 	H 	0.0072	0.2738	0.7038	0.077
Mof_H 	H 	0.9145	0.2843	0.6016	0.08
Mof_H 	H 	0.8346	0.331	0.559	-0.017
Mof_H 	H 	0.0031	0.2507	0.6434	0.042
Mof_N 	N 	0.461	0.0937	0.5459	-0.204
Mof_C 	C 	0.47	0.0842	0.5796	0.089
Mof_C 	C 	0.3656	0.0731	0.6003	-0.165
Mof_C 	C 	0.5073	0.6787	0.5857	0.102
Mof_C 	C 	0.5174	0.6694	0.5504	-0.165
Mof_C 	C 	0.4079	0.6582	0.5321	0.088
Mof_C 	C 	0.6281	0.6922	0.6048	-0.065
Mof_N 	N 	0.4806	0.8281	0.527	-0.201
Mof_C 	C 	0.5989	0.8112	0.5243	0.093
Mof_C 	C 	0.6569	0.7846	0.5495	-0.167
Mof_C 	C 	0.5903	0.7738	0.5794	0.105
Mof_C 	C 	0.4667	0.7911	0.582	-0.162
Mof_C 	C 	0.4185	0.8184	0.5558	0.092
Mof_C 	C 	0.6513	0.7448	0.6061	-0.066
Mof_H 	H 	0.5536	0.0851	0.59	-0.019
Mof_H 	H 	0.3778	0.0669	0.6242	0.078
Mof_H 	H 	0.5995	0.6707	0.5392	0.079
Mof_H 	H 	0.4172	0.6515	0.5082	-0.018
Mof_H 	H 	0.7063	0.6759	0.596	0.044
Mof_H 	H 	0.6028	0.8175	0.7461	-0.018
Mof_H 	H 	0.5072	0.7738	0.7038	0.077
Mof_H 	H 	0.4145	0.7843	0.6016	0.08
Mof_H 	H 	0.3346	0.831	0.559	-0.017
Mof_H 	H 	0.5031	0.7507	0.6434	0.042
Mof_N 	N 	0.461	0.5937	0.0459	-0.204
Mof_C 	C 	0.47	0.5842	0.0796	0.089
Mof_C 	C 	0.3656	0.5731	0.1003	-0.165
Mof_C 	C 	0.5073	0.1787	0.0857	0.102
Mof_C 	C 	0.5174	0.1694	0.0504	-0.165
Mof_C 	C 	0.4079	0.1582	0.0321	0.088
Mof_C 	C 	0.6281	0.1922	0.1048	-0.065
Mof_N 	N 	0.4806	0.3281	0.027	-0.201
Mof_C 	C 	0.5989	0.3112	0.0243	0.093
Mof_C 	C 	0.6569	0.2846	0.0495	-0.167
Mof_C 	C 	0.5903	0.2738	0.0794	0.105
Mof_C 	C 	0.4667	0.2911	0.082	-0.162
Mof_C 	C 	0.4185	0.3184	0.0558	0.092
Mof_C 	C 	0.6513	0.2448	0.1061	-0.066
Mof_H 	H 	0.5536	0.5851	0.09	-0.019
Mof_H 	H 	0.3778	0.5669	0.1242	0.078
Mof_H 	H 	0.5995	0.1707	0.0392	0.079
Mof_H 	H 	0.4172	0.1515	0.0082	-0.018
Mof_H 	H 	0.7063	0.1759	0.096	0.044
Mof_H 	H 	0.6028	0.3175	0.2461	-0.018
Mof_H 	H 	0.5072	0.2738	0.2038	0.077
Mof_H 	H 	0.4145	0.2843	0.1016	0.08
Mof_H 	H 	0.3346	0.331	0.059	-0.017
Mof_H 	H 	0.5031	0.2507	0.1434	0.042
Mof_N 	N 	0.789	0.6563	0.0459	-0.204
Mof_C 	C 	0.78	0.6658	0.0796	0.089
Mof_C 	C 	0.8844	0.6769	0.1003	-0.165
Mof_C 	C 	0.7427	0.0713	0.0857	0.103
Mof_C 	C 	0.7326	0.0806	0.0504	-0.165
Mof_C 	C 	0.8421	0.0918	0.0321	0.088
Mof_C 	C 	0.6219	0.0578	0.1048	-0.065
Mof_N 	N 	0.7694	0.9219	0.027	-0.201
Mof_C 	C 	0.6511	0.9388	0.0243	0.093
Mof_C 	C 	0.5931	0.9654	0.0495	-0.167
Mof_C 	C 	0.6597	0.9762	0.0794	0.105
Mof_C 	C 	0.7833	0.9589	0.082	-0.162
Mof_C 	C 	0.8315	0.9316	0.0558	0.092
Mof_C 	C 	0.5987	0.0052	0.1061	-0.066
Mof_H 	H 	0.6964	0.6649	0.09	-0.019
Mof_H 	H 	0.8722	0.6831	0.1242	0.078
Mof_H 	H 	0.6505	0.0793	0.0392	0.079
Mof_H 	H 	0.8328	0.0985	0.0082	-0.018
Mof_H 	H 	0.5437	0.0741	0.096	0.044
Mof_H 	H 	0.6472	0.9325	0.2461	-0.018
Mof_H 	H 	0.7428	0.9762	0.2038	0.077
Mof_H 	H 	0.8355	0.9657	0.1016	0.08
Mof_H 	H 	0.9154	0.919	0.059	-0.017
Mof_H 	H 	0.7469	0.9993	0.1434	0.042
Mof_N 	N 	0.789	0.1563	0.5459	-0.204
Mof_C 	C 	0.78	0.1658	0.5796	0.089
Mof_C 	C 	0.8844	0.1769	0.6003	-0.165
Mof_C 	C 	0.7427	0.5713	0.5857	0.103
Mof_C 	C 	0.7326	0.5806	0.5504	-0.165
Mof_C 	C 	0.8421	0.5918	0.5321	0.088
Mof_C 	C 	0.6219	0.5578	0.6048	-0.065
Mof_N 	N 	0.7694	0.4219	0.527	-0.201
Mof_C 	C 	0.6511	0.4388	0.5243	0.093
Mof_C 	C 	0.5931	0.4654	0.5495	-0.167
Mof_C 	C 	0.6597	0.4762	0.5794	0.105
Mof_C 	C 	0.7833	0.4589	0.582	-0.162
Mof_C 	C 	0.8315	0.4316	0.5558	0.092
Mof_C 	C 	0.5987	0.5052	0.6061	-0.066
Mof_H 	H 	0.6964	0.1649	0.59	-0.019
Mof_H 	H 	0.8722	0.1831	0.6242	0.078
Mof_H 	H 	0.6505	0.5793	0.5392	0.079
Mof_H 	H 	0.8328	0.5985	0.5082	-0.018
Mof_H 	H 	0.5437	0.5741	0.596	0.044
Mof_H 	H 	0.6472	0.4325	0.7461	-0.018
Mof_H 	H 	0.7428	0.4762	0.7038	0.077
Mof_H 	H 	0.8355	0.4657	0.6016	0.08
Mof_H 	H 	0.9154	0.419	0.559	-0.017
Mof_H 	H 	0.7469	0.4993	0.6434	0.042
Mof_N 	N 	0.289	0.6563	0.5459	-0.204
Mof_C 	C 	0.28	0.6658	0.5796	0.089
Mof_C 	C 	0.3844	0.6769	0.6003	-0.165
Mof_C 	C 	0.2427	0.0713	0.5857	0.102
Mof_C 	C 	0.2326	0.0806	0.5504	-0.165
Mof_C 	C 	0.3421	0.0918	0.5321	0.088
Mof_C 	C 	0.1219	0.0578	0.6048	-0.065
Mof_N 	N 	0.2694	0.9219	0.527	-0.201
Mof_C 	C 	0.1511	0.9388	0.5243	0.093
Mof_C 	C 	0.0931	0.9654	0.5495	-0.167
Mof_C 	C 	0.1597	0.9762	0.5794	0.105
Mof_C 	C 	0.2833	0.9589	0.582	-0.162
Mof_C 	C 	0.3315	0.9316	0.5558	0.092
Mof_C 	C 	0.0987	0.0052	0.6061	-0.066
Mof_H 	H 	0.1964	0.6649	0.59	-0.019
Mof_H 	H 	0.3722	0.6831	0.6242	0.078
Mof_H 	H 	0.1505	0.0793	0.5392	0.079
Mof_H 	H 	0.3328	0.0985	0.5082	-0.018
Mof_H 	H 	0.0437	0.0741	0.596	0.044
Mof_H 	H 	0.1472	0.9325	0.7461	-0.018
Mof_H 	H 	0.2428	0.9762	0.7038	0.077
Mof_H 	H 	0.3355	0.9657	0.6016	0.08
Mof_H 	H 	0.4154	0.919	0.559	-0.017
Mof_H 	H 	0.2469	0.9993	0.6434	0.042
Mof_N 	N 	0.289	0.1563	0.0459	-0.204
Mof_C 	C 	0.28	0.1658	0.0796	0.089
Mof_C 	C 	0.3844	0.1769	0.1003	-0.165
Mof_C 	C 	0.2427	0.5713	0.0857	0.102
Mof_C 	C 	0.2326	0.5806	0.0504	-0.165
Mof_C 	C 	0.3421	0.5918	0.0321	0.088
Mof_C 	C 	0.1219	0.5578	0.1048	-0.065
Mof_N 	N 	0.2694	0.4219	0.027	-0.201
Mof_C 	C 	0.1511	0.4388	0.0243	0.093
Mof_C 	C 	0.0931	0.4654	0.0495	-0.167
Mof_C 	C 	0.1597	0.4762	0.0794	0.105
Mof_C 	C 	0.2833	0.4589	0.082	-0.162
Mof_C 	C 	0.3315	0.4316	0.0558	0.092
Mof_C 	C 	0.0987	0.5052	0.1061	-0.066
Mof_H 	H 	0.1964	0.1649	0.09	-0.019
Mof_H 	H 	0.3722	0.1831	0.1242	0.078
Mof_H 	H 	0.1505	0.5793	0.0392	0.079
Mof_H 	H 	0.3328	0.5985	0.0082	-0.018
Mof_H 	H 	0.0437	0.5741	0.096	0.044
Mof_H 	H 	0.1472	0.4325	0.2461	-0.018
Mof_H 	H 	0.2428	0.4762	0.2038	0.077
Mof_H 	H 	0.3355	0.4657	0.1016	0.08
Mof_H 	H 	0.4154	0.419	0.059	-0.017
Mof_H 	H 	0.2469	0.4993	0.1434	0.042
Mof_N 	N 	0.789	0.0937	0.7041	-0.204
Mof_C 	C 	0.78	0.0842	0.6704	0.089
Mof_C 	C 	0.8844	0.0731	0.6497	-0.165
Mof_C 	C 	0.7427	0.6787	0.6643	0.103
Mof_C 	C 	0.7326	0.6694	0.6996	-0.165
Mof_C 	C 	0.8421	0.6582	0.7179	0.088
Mof_C 	C 	0.6219	0.6922	0.6452	-0.065
Mof_N 	N 	0.7694	0.8281	0.723	-0.201
Mof_C 	C 	0.6511	0.8112	0.7257	0.093
Mof_C 	C 	0.5931	0.7846	0.7005	-0.167
Mof_C 	C 	0.6597	0.7738	0.6706	0.105
Mof_C 	C 	0.7833	0.7911	0.668	-0.162
Mof_C 	C 	0.8315	0.8184	0.6942	0.092
Mof_C 	C 	0.5987	0.7448	0.6439	-0.066
Mof_H 	H 	0.6964	0.0851	0.66	-0.019
Mof_H 	H 	0.8722	0.0669	0.6258	0.078
Mof_H 	H 	0.6505	0.6707	0.7108	0.079
Mof_H 	H 	0.8328	0.6515	0.7418	-0.018
Mof_H 	H 	0.5437	0.6759	0.654	0.044
Mof_H 	H 	0.6472	0.8175	0.5039	-0.018
Mof_H 	H 	0.7428	0.7738	0.5462	0.077
Mof_H 	H 	0.8355	0.7843	0.6484	0.08
Mof_H 	H 	0.9154	0.831	0.691	-0.017
Mof_H 	H 	0.7469	0.7507	0.6066	0.042
Mof_N 	N 	0.789	0.5937	0.2041	-0.204
Mof_C 	C 	0.78	0.5842	0.1704	0.089
Mof_C 	C 	0.8844	0.5731	0.1497	-0.165
Mof_C 	C 	0.7427	0.1787	0.1643	0.103
Mof_C 	C 	0.7326	0.1694	0.1996	-0.165
Mof_C 	C 	0.8421	0.1582	0.2179	0.088
Mof_C 	C 	0.6219	0.1922	0.1452	-0.065
Mof_N 	N 	0.7694	0.3281	0.223	-0.201
Mof_C 	C 	0.6511	0.3112	0.2257	0.093
Mof_C 	C 	0.5931	0.2846	0.2005	-0.167
Mof_C 	C 	0.6597	0.2738	0.1706	0.105
Mof_C 	C 	0.7833	0.2911	0.168	-0.162
Mof_C 	C 	0.8315	0.3184	0.1942	0.092
Mof_C 	C 	0.5987	0.2448	0.1439	-0.066
Mof_H 	H 	0.6964	0.5851	0.16	-0.019
Mof_H 	H 	0.8722	0.5669	0.1258	0.078
Mof_H 	H 	0.6505	0.1707	0.2108	0.079
Mof_H 	H 	0.8328	0.1515	0.2418	-0.018
Mof_H 	H 	0.5437	0.1759	0.154	0.044
Mof_H 	H 	0.6472	0.3175	0.0039	-0.018
Mof_H 	H 	0.7428	0.2738	0.0462	0.077
Mof_H 	H 	0.8355	0.2843	0.1484	0.08
Mof_H 	H 	0.9154	0.331	0.191	-0.017
Mof_H 	H 	0.7469	0.2507	0.1066	0.042
Mof_N 	N 	0.289	0.0937	0.2041	-0.204
Mof_C 	C 	0.28	0.0842	0.1704	0.089
Mof_C 	C 	0.3844	0.0731	0.1497	-0.165
Mof_C 	C 	0.2427	0.6787	0.1643	0.102
Mof_C 	C 	0.2326	0.6694	0.1996	-0.165
Mof_C 	C 	0.3421	0.6582	0.2179	0.088
Mof_C 	C 	0.1219	0.6922	0.1452	-0.065
Mof_N 	N 	0.2694	0.8281	0.223	-0.201
Mof_C 	C 	0.1511	0.8112	0.2257	0.093
Mof_C 	C 	0.0931	0.7846	0.2005	-0.167
Mof_C 	C 	0.1597	0.7738	0.1706	0.105
Mof_C 	C 	0.2833	0.7911	0.168	-0.162
Mof_C 	C 	0.3315	0.8184	0.1942	0.092
Mof_C 	C 	0.0987	0.7448	0.1439	-0.066
Mof_H 	H 	0.1964	0.0851	0.16	-0.019
Mof_H 	H 	0.3722	0.0669	0.1258	0.078
Mof_H 	H 	0.1505	0.6707	0.2108	0.079
Mof_H 	H 	0.3328	0.6515	0.2418	-0.018
Mof_H 	H 	0.0437	0.6759	0.154	0.044
Mof_H 	H 	0.1472	0.8175	0.0039	-0.018
Mof_H 	H 	0.2428	0.7738	0.0462	0.077
Mof_H 	H 	0.3355	0.7843	0.1484	0.08
Mof_H 	H 	0.4154	0.831	0.191	-0.017
Mof_H 	H 	0.2469	0.7507	0.1066	0.042
Mof_N 	N 	0.289	0.5937	0.7041	-0.204
Mof_C 	C 	0.28	0.5842	0.6704	0.089
Mof_C 	C 	0.3844	0.5731	0.6497	-0.165
Mof_C 	C 	0.2427	0.1787	0.6643	0.102
Mof_C 	C 	0.2326	0.1694	0.6996	-0.165
Mof_C 	C 	0.3421	0.1582	0.7179	0.088
Mof_C 	C 	0.1219	0.1922	0.6452	-0.065
Mof_N 	N 	0.2694	0.3281	0.723	-0.201
Mof_C 	C 	0.1511	0.3112	0.7257	0.093
Mof_C 	C 	0.0931	0.2846	0.7005	-0.167
Mof_C 	C 	0.1597	0.2738	0.6706	0.105
Mof_C 	C 	0.2833	0.2911	0.668	-0.162
Mof_C 	C 	0.3315	0.3184	0.6942	0.092
Mof_C 	C 	0.0987	0.2448	0.6439	-0.066
Mof_H 	H 	0.1964	0.5851	0.66	-0.019
Mof_H 	H 	0.3722	0.5669	0.6258	0.078
Mof_H 	H 	0.1505	0.1707	0.7108	0.079
Mof_H 	H 	0.3328	0.1515	0.7418	-0.018
Mof_H 	H 	0.0437	0.1759	0.654	0.044
Mof_H 	H 	0.1472	0.3175	0.5039	-0.018
Mof_H 	H 	0.2428	0.2738	0.5462	0.077
Mof_H 	H 	0.3355	0.2843	0.6484	0.08
Mof_H 	H 	0.4154	0.331	0.691	-0.017
Mof_H 	H 	0.2469	0.2507	0.6066	0.042
Mof_N 	N 	0.961	0.6563	0.7041	-0.205
Mof_C 	C 	0.97	0.6658	0.6704	0.089
Mof_C 	C 	0.8656	0.6769	0.6497	-0.165
Mof_C 	C 	0.0073	0.0713	0.6643	0.102
Mof_C 	C 	0.0174	0.0806	0.6996	-0.165
Mof_C 	C 	0.9079	0.0918	0.7179	0.088
Mof_C 	C 	0.1281	0.0578	0.6452	-0.065
Mof_N 	N 	0.9806	0.9219	0.723	-0.201
Mof_C 	C 	0.0989	0.9388	0.7257	0.093
Mof_C 	C 	0.1569	0.9654	0.7005	-0.167
Mof_C 	C 	0.0903	0.9762	0.6706	0.105
Mof_C 	C 	0.9667	0.9589	0.668	-0.163
Mof_C 	C 	0.9185	0.9316	0.6942	0.092
Mof_C 	C 	0.1513	0.0052	0.6439	-0.066
Mof_H 	H 	0.0536	0.6649	0.66	-0.019
Mof_H 	H 	0.8778	0.6831	0.6258	0.078
Mof_H 	H 	0.0995	0.0793	0.7108	0.079
Mof_H 	H 	0.9172	0.0985	0.7418	-0.018
Mof_H 	H 	0.2063	0.0741	0.654	0.044
Mof_H 	H 	0.1028	0.9325	0.5039	-0.018
Mof_H 	H 	0.0072	0.9762	0.5462	0.077
Mof_H 	H 	0.9145	0.9657	0.6484	0.08
Mof_H 	H 	0.8346	0.919	0.691	-0.017
Mof_H 	H 	0.0031	0.9993	0.6066	0.042
Mof_N 	N 	0.961	0.1563	0.2041	-0.205
Mof_C 	C 	0.97	0.1658	0.1704	0.089
Mof_C 	C 	0.8656	0.1769	0.1497	-0.165
Mof_C 	C 	0.0073	0.5713	0.1643	0.102
Mof_C 	C 	0.0174	0.5806	0.1996	-0.165
Mof_C 	C 	0.9079	0.5918	0.2179	0.088
Mof_C 	C 	0.1281	0.5578	0.1452	-0.065
Mof_N 	N 	0.9806	0.4219	0.223	-0.201
Mof_C 	C 	0.0989	0.4388	0.2257	0.093
Mof_C 	C 	0.1569	0.4654	0.2005	-0.167
Mof_C 	C 	0.0903	0.4762	0.1706	0.105
Mof_C 	C 	0.9667	0.4589	0.168	-0.162
Mof_C 	C 	0.9185	0.4316	0.1942	0.092
Mof_C 	C 	0.1513	0.5052	0.1439	-0.066
Mof_H 	H 	0.0536	0.1649	0.16	-0.019
Mof_H 	H 	0.8778	0.1831	0.1258	0.078
Mof_H 	H 	0.0995	0.5793	0.2108	0.079
Mof_H 	H 	0.9172	0.5985	0.2418	-0.018
Mof_H 	H 	0.2063	0.5741	0.154	0.044
Mof_H 	H 	0.1028	0.4325	0.0039	-0.018
Mof_H 	H 	0.0072	0.4762	0.0462	0.077
Mof_H 	H 	0.9145	0.4657	0.1484	0.08
Mof_H 	H 	0.8346	0.419	0.191	-0.017
Mof_H 	H 	0.0031	0.4993	0.1066	0.042
Mof_N 	N 	0.461	0.6563	0.2041	-0.204
Mof_C 	C 	0.47	0.6658	0.1704	0.089
Mof_C 	C 	0.3656	0.6769	0.1497	-0.165
Mof_C 	C 	0.5073	0.0713	0.1643	0.102
Mof_C 	C 	0.5174	0.0806	0.1996	-0.165
Mof_C 	C 	0.4079	0.0918	0.2179	0.088
Mof_C 	C 	0.6281	0.0578	0.1452	-0.065
Mof_N 	N 	0.4806	0.9219	0.223	-0.201
Mof_C 	C 	0.5989	0.9388	0.2257	0.093
Mof_C 	C 	0.6569	0.9654	0.2005	-0.167
Mof_C 	C 	0.5903	0.9762	0.1706	0.105
Mof_C 	C 	0.4667	0.9589	0.168	-0.162
Mof_C 	C 	0.4185	0.9316	0.1942	0.092
Mof_C 	C 	0.6513	0.0052	0.1439	-0.066
Mof_H 	H 	0.5536	0.6649	0.16	-0.019
Mof_H 	H 	0.3778	0.6831	0.1258	0.078
Mof_H 	H 	0.5995	0.0793	0.2108	0.079
Mof_H 	H 	0.4172	0.0985	0.2418	-0.018
Mof_H 	H 	0.7063	0.0741	0.154	0.044
Mof_H 	H 	0.6028	0.9325	0.0039	-0.018
Mof_H 	H 	0.5072	0.9762	0.0462	0.077
Mof_H 	H 	0.4145	0.9657	0.1484	0.08
Mof_H 	H 	0.3346	0.919	0.191	-0.017
Mof_H 	H 	0.5031	0.9993	0.1066	0.042
Mof_N 	N 	0.461	0.1563	0.7041	-0.204
Mof_C 	C 	0.47	0.1658	0.6704	0.089
Mof_C 	C 	0.3656	0.1769	0.6497	-0.165
Mof_C 	C 	0.5073	0.5713	0.6643	0.102
Mof_C 	C 	0.5174	0.5806	0.6996	-0.165
Mof_C 	C 	0.4079	0.5918	0.7179	0.088
Mof_C 	C 	0.6281	0.5578	0.6452	-0.065
Mof_N 	N 	0.4806	0.4219	0.723	-0.201
Mof_C 	C 	0.5989	0.4388	0.7257	0.093
Mof_C 	C 	0.6569	0.4654	0.7005	-0.167
Mof_C 	C 	0.5903	0.4762	0.6706	0.105
Mof_C 	C 	0.4667	0.4589	0.668	-0.162
Mof_C 	C 	0.4185	0.4316	0.6942	0.092
Mof_C 	C 	0.6513	0.5052	0.6439	-0.066
Mof_H 	H 	0.5536	0.1649	0.66	-0.019
Mof_H 	H 	0.3778	0.1831	0.6258	0.078
Mof_H 	H 	0.5995	0.5793	0.7108	0.079
Mof_H 	H 	0.4172	0.5985	0.7418	-0.018
Mof_H 	H 	0.7063	0.5741	0.654	0.044
Mof_H 	H 	0.6028	0.4325	0.5039	-0.018
Mof_H 	H 	0.5072	0.4762	0.5462	0.077
Mof_H 	H 	0.4145	0.4657	0.6484	0.08
Mof_H 	H 	0.3346	0.419	0.691	-0.017
Mof_H 	H 	0.5031	0.4993	0.6066	0.042
Mof_N 	N 	0.039	0.9063	0.9541	-0.205
Mof_C 	C 	0.03	0.9158	0.9204	0.089
Mof_C 	C 	0.1344	0.9269	0.8997	-0.165
Mof_C 	C 	0.9927	0.3213	0.9143	0.102
Mof_C 	C 	0.9826	0.3306	0.9496	-0.165
Mof_C 	C 	0.0921	0.3418	0.9679	0.088
Mof_C 	C 	0.8719	0.3078	0.8952	-0.065
Mof_N 	N 	0.0194	0.1719	0.973	-0.201
Mof_C 	C 	0.9011	0.1888	0.9757	0.093
Mof_C 	C 	0.8431	0.2154	0.9505	-0.167
Mof_C 	C 	0.9097	0.2262	0.9206	0.104
Mof_C 	C 	0.0333	0.2089	0.918	-0.162
Mof_C 	C 	0.0815	0.1816	0.9442	0.092
Mof_C 	C 	0.8487	0.2552	0.8939	-0.066
Mof_H 	H 	0.9464	0.9149	0.91	-0.019
Mof_H 	H 	0.1222	0.9331	0.8758	0.078
Mof_H 	H 	0.9005	0.3293	0.9608	0.079
Mof_H 	H 	0.0828	0.3485	0.9918	-0.018
Mof_H 	H 	0.7937	0.3241	0.904	0.044
Mof_H 	H 	0.8972	0.1825	0.7539	-0.018
Mof_H 	H 	0.9928	0.2262	0.7962	0.077
Mof_H 	H 	0.0855	0.2157	0.8984	0.08
Mof_H 	H 	0.1654	0.169	0.941	-0.017
Mof_H 	H 	0.9969	0.2493	0.8566	0.042
Mof_N 	N 	0.039	0.4063	0.4541	-0.205
Mof_C 	C 	0.03	0.4158	0.4204	0.089
Mof_C 	C 	0.1344	0.4269	0.3997	-0.165
Mof_C 	C 	0.9927	0.8213	0.4143	0.102
Mof_C 	C 	0.9826	0.8306	0.4496	-0.165
Mof_C 	C 	0.0921	0.8418	0.4679	0.088
Mof_C 	C 	0.8719	0.8078	0.3952	-0.065
Mof_N 	N 	0.0194	0.6719	0.473	-0.201
Mof_C 	C 	0.9011	0.6888	0.4757	0.093
Mof_C 	C 	0.8431	0.7154	0.4505	-0.167
Mof_C 	C 	0.9097	0.7262	0.4206	0.105
Mof_C 	C 	0.0333	0.7089	0.418	-0.163
Mof_C 	C 	0.0815	0.6816	0.4442	0.092
Mof_C 	C 	0.8487	0.7552	0.3939	-0.066
Mof_H 	H 	0.9464	0.4149	0.41	-0.019
Mof_H 	H 	0.1222	0.4331	0.3758	0.078
Mof_H 	H 	0.9005	0.8293	0.4608	0.079
Mof_H 	H 	0.0828	0.8485	0.4918	-0.018
Mof_H 	H 	0.7937	0.8241	0.404	0.044
Mof_H 	H 	0.8972	0.6825	0.2539	-0.018
Mof_H 	H 	0.9928	0.7262	0.2962	0.077
Mof_H 	H 	0.0855	0.7157	0.3984	0.08
Mof_H 	H 	0.1654	0.669	0.441	-0.017
Mof_H 	H 	0.9969	0.7493	0.3566	0.042
Mof_N 	N 	0.539	0.9063	0.4541	-0.204
Mof_C 	C 	0.53	0.9158	0.4204	0.089
Mof_C 	C 	0.6344	0.9269	0.3997	-0.165
Mof_C 	C 	0.4927	0.3213	0.4143	0.102
Mof_C 	C 	0.4826	0.3306	0.4496	-0.165
Mof_C 	C 	0.5921	0.3418	0.4679	0.088
Mof_C 	C 	0.3719	0.3078	0.3952	-0.065
Mof_N 	N 	0.5194	0.1719	0.473	-0.201
Mof_C 	C 	0.4011	0.1888	0.4757	0.093
Mof_C 	C 	0.3431	0.2154	0.4505	-0.167
Mof_C 	C 	0.4097	0.2262	0.4206	0.105
Mof_C 	C 	0.5333	0.2089	0.418	-0.162
Mof_C 	C 	0.5815	0.1816	0.4442	0.092
Mof_C 	C 	0.3487	0.2552	0.3939	-0.066
Mof_H 	H 	0.4464	0.9149	0.41	-0.019
Mof_H 	H 	0.6222	0.9331	0.3758	0.078
Mof_H 	H 	0.4005	0.3293	0.4608	0.079
Mof_H 	H 	0.5828	0.3485	0.4918	-0.018
Mof_H 	H 	0.2937	0.3241	0.404	0.044
Mof_H 	H 	0.3972	0.1825	0.2539	-0.018
Mof_H 	H 	0.4928	0.2262	0.2962	0.077
Mof_H 	H 	0.5855	0.2157	0.3984	0.08
Mof_H 	H 	0.6654	0.169	0.441	-0.017
Mof_H 	H 	0.4969	0.2493	0.3566	0.042
Mof_N 	N 	0.539	0.4063	0.9541	-0.204
Mof_C 	C 	0.53	0.4158	0.9204	0.089
Mof_C 	C 	0.6344	0.4269	0.8997	-0.165
Mof_C 	C 	0.4927	0.8213	0.9143	0.102
Mof_C 	C 	0.4826	0.8306	0.9496	-0.165
Mof_C 	C 	0.5921	0.8418	0.9679	0.088
Mof_C 	C 	0.3719	0.8078	0.8952	-0.065
Mof_N 	N 	0.5194	0.6719	0.973	-0.201
Mof_C 	C 	0.4011	0.6888	0.9757	0.093
Mof_C 	C 	0.3431	0.7154	0.9505	-0.167
Mof_C 	C 	0.4097	0.7262	0.9206	0.105
Mof_C 	C 	0.5333	0.7089	0.918	-0.162
Mof_C 	C 	0.5815	0.6816	0.9442	0.092
Mof_C 	C 	0.3487	0.7552	0.8939	-0.066
Mof_H 	H 	0.4464	0.4149	0.91	-0.019
Mof_H 	H 	0.6222	0.4331	0.8758	0.078
Mof_H 	H 	0.4005	0.8293	0.9608	0.079
Mof_H 	H 	0.5828	0.8485	0.9918	-0.018
Mof_H 	H 	0.2937	0.8241	0.904	0.044
Mof_H 	H 	0.3972	0.6825	0.7539	-0.018
Mof_H 	H 	0.4928	0.7262	0.7962	0.077
Mof_H 	H 	0.5855	0.7157	0.8984	0.08
Mof_H 	H 	0.6654	0.669	0.941	-0.017
Mof_H 	H 	0.4969	0.7493	0.8566	0.042
Mof_N 	N 	0.211	0.3437	0.9541	-0.204
Mof_C 	C 	0.22	0.3342	0.9204	0.089
Mof_C 	C 	0.1156	0.3231	0.8997	-0.165
Mof_C 	C 	0.2573	0.9287	0.9143	0.103
Mof_C 	C 	0.2674	0.9194	0.9496	-0.165
Mof_C 	C 	0.1579	0.9082	0.9679	0.088
Mof_C 	C 	0.3781	0.9422	0.8952	-0.065
Mof_N 	N 	0.2306	0.0781	0.973	-0.201
Mof_C 	C 	0.3489	0.0612	0.9757	0.093
Mof_C 	C 	0.4069	0.0346	0.9505	-0.167
Mof_C 	C 	0.3403	0.0238	0.9206	0.105
Mof_C 	C 	0.2167	0.0411	0.918	-0.162
Mof_C 	C 	0.1685	0.0684	0.9442	0.092
Mof_C 	C 	0.4013	0.9948	0.8939	-0.066
Mof_H 	H 	0.3036	0.3351	0.91	-0.019
Mof_H 	H 	0.1278	0.3169	0.8758	0.078
Mof_H 	H 	0.3495	0.9207	0.9608	0.079
Mof_H 	H 	0.1672	0.9015	0.9918	-0.018
Mof_H 	H 	0.4563	0.9259	0.904	0.044
Mof_H 	H 	0.3528	0.0675	0.7539	-0.018
Mof_H 	H 	0.2572	0.0238	0.7962	0.077
Mof_H 	H 	0.1645	0.0343	0.8984	0.08
Mof_H 	H 	0.0846	0.081	0.941	-0.017
Mof_H 	H 	0.2531	0.0007	0.8566	0.042
Mof_N 	N 	0.211	0.8437	0.4541	-0.204
Mof_C 	C 	0.22	0.8342	0.4204	0.089
Mof_C 	C 	0.1156	0.8231	0.3997	-0.165
Mof_C 	C 	0.2573	0.4287	0.4143	0.103
Mof_C 	C 	0.2674	0.4194	0.4496	-0.165
Mof_C 	C 	0.1579	0.4082	0.4679	0.088
Mof_C 	C 	0.3781	0.4422	0.3952	-0.065
Mof_N 	N 	0.2306	0.5781	0.473	-0.201
Mof_C 	C 	0.3489	0.5612	0.4757	0.093
Mof_C 	C 	0.4069	0.5346	0.4505	-0.167
Mof_C 	C 	0.3403	0.5238	0.4206	0.105
Mof_C 	C 	0.2167	0.5411	0.418	-0.162
Mof_C 	C 	0.1685	0.5684	0.4442	0.092
Mof_C 	C 	0.4013	0.4948	0.3939	-0.066
Mof_H 	H 	0.3036	0.8351	0.41	-0.019
Mof_H 	H 	0.1278	0.8169	0.3758	0.078
Mof_H 	H 	0.3495	0.4207	0.4608	0.079
Mof_H 	H 	0.1672	0.4015	0.4918	-0.018
Mof_H 	H 	0.4563	0.4259	0.404	0.044
Mof_H 	H 	0.3528	0.5675	0.2539	-0.018
Mof_H 	H 	0.2572	0.5238	0.2962	0.077
Mof_H 	H 	0.1645	0.5343	0.3984	0.08
Mof_H 	H 	0.0846	0.581	0.441	-0.017
Mof_H 	H 	0.2531	0.5007	0.3566	0.042
Mof_N 	N 	0.711	0.3437	0.4541	-0.204
Mof_C 	C 	0.72	0.3342	0.4204	0.089
Mof_C 	C 	0.6156	0.3231	0.3997	-0.165
Mof_C 	C 	0.7573	0.9287	0.4143	0.102
Mof_C 	C 	0.7674	0.9194	0.4496	-0.165
Mof_C 	C 	0.6579	0.9082	0.4679	0.088
Mof_C 	C 	0.8781	0.9422	0.3952	-0.065
Mof_N 	N 	0.7306	0.0781	0.473	-0.201
Mof_C 	C 	0.8489	0.0612	0.4757	0.093
Mof_C 	C 	0.9069	0.0346	0.4505	-0.167
Mof_C 	C 	0.8403	0.0238	0.4206	0.105
Mof_C 	C 	0.7167	0.0411	0.418	-0.162
Mof_C 	C 	0.6685	0.0684	0.4442	0.092
Mof_C 	C 	0.9013	0.9948	0.3939	-0.066
Mof_H 	H 	0.8036	0.3351	0.41	-0.019
Mof_H 	H 	0.6278	0.3169	0.3758	0.078
Mof_H 	H 	0.8495	0.9207	0.4608	0.079
Mof_H 	H 	0.6672	0.9015	0.4918	-0.018
Mof_H 	H 	0.9563	0.9259	0.404	0.044
Mof_H 	H 	0.8528	0.0675	0.2539	-0.018
Mof_H 	H 	0.7572	0.0238	0.2962	0.077
Mof_H 	H 	0.6645	0.0343	0.3984	0.08
Mof_H 	H 	0.5846	0.081	0.441	-0.017
Mof_H 	H 	0.7531	0.0007	0.3566	0.042
Mof_N 	N 	0.711	0.8437	0.9541	-0.204
Mof_C 	C 	0.72	0.8342	0.9204	0.089
Mof_C 	C 	0.6156	0.8231	0.8997	-0.165
Mof_C 	C 	0.7573	0.4287	0.9143	0.102
Mof_C 	C 	0.7674	0.4194	0.9496	-0.165
Mof_C 	C 	0.6579	0.4082	0.9679	0.088
Mof_C 	C 	0.8781	0.4422	0.8952	-0.065
Mof_N 	N 	0.7306	0.5781	0.973	-0.201
Mof_C 	C 	0.8489	0.5612	0.9757	0.093
Mof_C 	C 	0.9069	0.5346	0.9505	-0.167
Mof_C 	C 	0.8403	0.5238	0.9206	0.105
Mof_C 	C 	0.7167	0.5411	0.918	-0.162
Mof_C 	C 	0.6685	0.5684	0.9442	0.092
Mof_C 	C 	0.9013	0.4948	0.8939	-0.066
Mof_H 	H 	0.8036	0.8351	0.91	-0.019
Mof_H 	H 	0.6278	0.8169	0.8758	0.078
Mof_H 	H 	0.8495	0.4207	0.9608	0.079
Mof_H 	H 	0.6672	0.4015	0.9918	-0.018
Mof_H 	H 	0.9563	0.4259	0.904	0.044
Mof_H 	H 	0.8528	0.5675	0.7539	-0.018
Mof_H 	H 	0.7572	0.5238	0.7962	0.077
Mof_H 	H 	0.6645	0.5343	0.8984	0.08
Mof_H 	H 	0.5846	0.581	0.941	-0.017
Mof_H 	H 	0.7531	0.5007	0.8566	0.042
Mof_N 	N 	0.211	0.9063	0.2959	-0.204
Mof_C 	C 	0.22	0.9158	0.3296	0.089
Mof_C 	C 	0.1156	0.9269	0.3503	-0.165
Mof_C 	C 	0.2573	0.3213	0.3357	0.103
Mof_C 	C 	0.2674	0.3306	0.3004	-0.165
Mof_C 	C 	0.1579	0.3418	0.2821	0.088
Mof_C 	C 	0.3781	0.3078	0.3548	-0.065
Mof_N 	N 	0.2306	0.1719	0.277	-0.201
Mof_C 	C 	0.3489	0.1888	0.2743	0.093
Mof_C 	C 	0.4069	0.2154	0.2995	-0.167
Mof_C 	C 	0.3403	0.2262	0.3294	0.105
Mof_C 	C 	0.2167	0.2089	0.332	-0.162
Mof_C 	C 	0.1685	0.1816	0.3058	0.092
Mof_C 	C 	0.4013	0.2552	0.3561	-0.066
Mof_H 	H 	0.3036	0.9149	0.34	-0.019
Mof_H 	H 	0.1278	0.9331	0.3742	0.078
Mof_H 	H 	0.3495	0.3293	0.2892	0.079
Mof_H 	H 	0.1672	0.3485	0.2582	-0.018
Mof_H 	H 	0.4563	0.3241	0.346	0.044
Mof_H 	H 	0.3528	0.1825	0.4961	-0.018
Mof_H 	H 	0.2572	0.2262	0.4538	0.077
Mof_H 	H 	0.1645	0.2157	0.3516	0.08
Mof_H 	H 	0.0846	0.169	0.309	-0.017
Mof_H 	H 	0.2531	0.2493	0.3934	0.042
Mof_N 	N 	0.211	0.4063	0.7959	-0.204
Mof_C 	C 	0.22	0.4158	0.8296	0.089
Mof_C 	C 	0.1156	0.4269	0.8503	-0.165
Mof_C 	C 	0.2573	0.8213	0.8357	0.103
Mof_C 	C 	0.2674	0.8306	0.8004	-0.165
Mof_C 	C 	0.1579	0.8418	0.7821	0.088
Mof_C 	C 	0.3781	0.8078	0.8548	-0.065
Mof_N 	N 	0.2306	0.6719	0.777	-0.201
Mof_C 	C 	0.3489	0.6888	0.7743	0.093
Mof_C 	C 	0.4069	0.7154	0.7995	-0.167
Mof_C 	C 	0.3403	0.7262	0.8294	0.105
Mof_C 	C 	0.2167	0.7089	0.832	-0.162
Mof_C 	C 	0.1685	0.6816	0.8058	0.092
Mof_C 	C 	0.4013	0.7552	0.8561	-0.066
Mof_H 	H 	0.3036	0.4149	0.84	-0.019
Mof_H 	H 	0.1278	0.4331	0.8742	0.078
Mof_H 	H 	0.3495	0.8293	0.7892	0.079
Mof_H 	H 	0.1672	0.8485	0.7582	-0.018
Mof_H 	H 	0.4563	0.8241	0.846	0.044
Mof_H 	H 	0.3528	0.6825	0.9961	-0.018
Mof_H 	H 	0.2572	0.7262	0.9538	0.077
Mof_H 	H 	0.1645	0.7157	0.8516	0.08
Mof_H 	H 	0.0846	0.669	0.809	-0.017
Mof_H 	H 	0.2531	0.7493	0.8934	0.042
Mof_N 	N 	0.711	0.9063	0.7959	-0.204
Mof_C 	C 	0.72	0.9158	0.8296	0.089
Mof_C 	C 	0.6156	0.9269	0.8503	-0.165
Mof_C 	C 	0.7573	0.3213	0.8357	0.102
Mof_C 	C 	0.7674	0.3306	0.8004	-0.165
Mof_C 	C 	0.6579	0.3418	0.7821	0.088
Mof_C 	C 	0.8781	0.3078	0.8548	-0.065
Mof_N 	N 	0.7306	0.1719	0.777	-0.201
Mof_C 	C 	0.8489	0.1888	0.7743	0.093
Mof_C 	C 	0.9069	0.2154	0.7995	-0.167
Mof_C 	C 	0.8403	0.2262	0.8294	0.105
Mof_C 	C 	0.7167	0.2089	0.832	-0.162
Mof_C 	C 	0.6685	0.1816	0.8058	0.092
Mof_C 	C 	0.9013	0.2552	0.8561	-0.066
Mof_H 	H 	0.8036	0.9149	0.84	-0.019
Mof_H 	H 	0.6278	0.9331	0.8742	0.078
Mof_H 	H 	0.8495	0.3293	0.7892	0.079
Mof_H 	H 	0.6672	0.3485	0.7582	-0.018
Mof_H 	H 	0.9563	0.3241	0.846	0.044
Mof_H 	H 	0.8528	0.1825	0.9961	-0.018
Mof_H 	H 	0.7572	0.2262	0.9538	0.077
Mof_H 	H 	0.6645	0.2157	0.8516	0.08
Mof_H 	H 	0.5846	0.169	0.809	-0.017
Mof_H 	H 	0.7531	0.2493	0.8934	0.042
Mof_N 	N 	0.711	0.4063	0.2959	-0.204
Mof_C 	C 	0.72	0.4158	0.3296	0.089
Mof_C 	C 	0.6156	0.4269	0.3503	-0.165
Mof_C 	C 	0.7573	0.8213	0.3357	0.102
Mof_C 	C 	0.7674	0.8306	0.3004	-0.165
Mof_C 	C 	0.6579	0.8418	0.2821	0.088
Mof_C 	C 	0.8781	0.8078	0.3548	-0.065
Mof_N 	N 	0.7306	0.6719	0.277	-0.201
Mof_C 	C 	0.8489	0.6888	0.2743	0.093
Mof_C 	C 	0.9069	0.7154	0.2995	-0.167
Mof_C 	C 	0.8403	0.7262	0.3294	0.105
Mof_C 	C 	0.7167	0.7089	0.332	-0.162
Mof_C 	C 	0.6685	0.6816	0.3058	0.092
Mof_C 	C 	0.9013	0.7552	0.3561	-0.066
Mof_H 	H 	0.8036	0.4149	0.34	-0.019
Mof_H 	H 	0.6278	0.4331	0.3742	0.078
Mof_H 	H 	0.8495	0.8293	0.2892	0.079
Mof_H 	H 	0.6672	0.8485	0.2582	-0.018
Mof_H 	H 	0.9563	0.8241	0.346	0.044
Mof_H 	H 	0.8528	0.6825	0.4961	-0.018
Mof_H 	H 	0.7572	0.7262	0.4538	0.077
Mof_H 	H 	0.6645	0.7157	0.3516	0.08
Mof_H 	H 	0.5846	0.669	0.309	-0.017
Mof_H 	H 	0.7531	0.7493	0.3934	0.042
Mof_N 	N 	0.039	0.3437	0.2959	-0.205
Mof_C 	C 	0.03	0.3342	0.3296	0.089
Mof_C 	C 	0.1344	0.3231	0.3503	-0.165
Mof_C 	C 	0.9927	0.9287	0.3357	0.102
Mof_C 	C 	0.9826	0.9194	0.3004	-0.165
Mof_C 	C 	0.0921	0.9082	0.2821	0.088
Mof_C 	C 	0.8719	0.9422	0.3548	-0.065
Mof_N 	N 	0.0194	0.0781	0.277	-0.201
Mof_C 	C 	0.9011	0.0612	0.2743	0.093
Mof_C 	C 	0.8431	0.0346	0.2995	-0.167
Mof_C 	C 	0.9097	0.0238	0.3294	0.105
Mof_C 	C 	0.0333	0.0411	0.332	-0.163
Mof_C 	C 	0.0815	0.0684	0.3058	0.092
Mof_C 	C 	0.8487	0.9948	0.3561	-0.066
Mof_H 	H 	0.9464	0.3351	0.34	-0.019
Mof_H 	H 	0.1222	0.3169	0.3742	0.078
Mof_H 	H 	0.9005	0.9207	0.2892	0.079
Mof_H 	H 	0.0828	0.9015	0.2582	-0.018
Mof_H 	H 	0.7937	0.9259	0.346	0.044
Mof_H 	H 	0.8972	0.0675	0.4961	-0.018
Mof_H 	H 	0.9928	0.0238	0.4538	0.077
Mof_H 	H 	0.0855	0.0343	0.3516	0.08
Mof_H 	H 	0.1654	0.081	0.309	-0.017
Mof_H 	H 	0.9969	0.0007	0.3934	0.042
Mof_N 	N 	0.039	0.8437	0.7959	-0.205
Mof_C 	C 	0.03	0.8342	0.8296	0.089
Mof_C 	C 	0.1344	0.8231	0.8503	-0.165
Mof_C 	C 	0.9927	0.4287	0.8357	0.102
Mof_C 	C 	0.9826	0.4194	0.8004	-0.165
Mof_C 	C 	0.0921	0.4082	0.7821	0.088
Mof_C 	C 	0.8719	0.4422	0.8548	-0.065
Mof_N 	N 	0.0194	0.5781	0.777	-0.201
Mof_C 	C 	0.9011	0.5612	0.7743	0.093
Mof_C 	C 	0.8431	0.5346	0.7995	-0.167
Mof_C 	C 	0.9097	0.5238	0.8294	0.105
Mof_C 	C 	0.0333	0.5411	0.832	-0.162
Mof_C 	C 	0.0815	0.5684	0.8058	0.092
Mof_C 	C 	0.8487	0.4948	0.8561	-0.066
Mof_H 	H 	0.9464	0.8351	0.84	-0.019
Mof_H 	H 	0.1222	0.8169	0.8742	0.078
Mof_H 	H 	0.9005	0.4207	0.7892	0.079
Mof_H 	H 	0.0828	0.4015	0.7582	-0.018
Mof_H 	H 	0.7937	0.4259	0.846	0.044
Mof_H 	H 	0.8972	0.5675	0.9961	-0.018
Mof_H 	H 	0.9928	0.5238	0.9538	0.077
Mof_H 	H 	0.0855	0.5343	0.8516	0.08
Mof_H 	H 	0.1654	0.581	0.809	-0.017
Mof_H 	H 	0.9969	0.5007	0.8934	0.042
Mof_N 	N 	0.539	0.3437	0.7959	-0.204
Mof_C 	C 	0.53	0.3342	0.8296	0.089
Mof_C 	C 	0.6344	0.3231	0.8503	-0.165
Mof_C 	C 	0.4927	0.9287	0.8357	0.102
Mof_C 	C 	0.4826	0.9194	0.8004	-0.165
Mof_C 	C 	0.5921	0.9082	0.7821	0.088
Mof_C 	C 	0.3719	0.9422	0.8548	-0.065
Mof_N 	N 	0.5194	0.0781	0.777	-0.201
Mof_C 	C 	0.4011	0.0612	0.7743	0.093
Mof_C 	C 	0.3431	0.0346	0.7995	-0.167
Mof_C 	C 	0.4097	0.0238	0.8294	0.105
Mof_C 	C 	0.5333	0.0411	0.832	-0.162
Mof_C 	C 	0.5815	0.0684	0.8058	0.092
Mof_C 	C 	0.3487	0.9948	0.8561	-0.066
Mof_H 	H 	0.4464	0.3351	0.84	-0.019
Mof_H 	H 	0.6222	0.3169	0.8742	0.078
Mof_H 	H 	0.4005	0.9207	0.7892	0.079
Mof_H 	H 	0.5828	0.9015	0.7582	-0.018
Mof_H 	H 	0.2937	0.9259	0.846	0.044
Mof_H 	H 	0.3972	0.0675	0.9961	-0.018
Mof_H 	H 	0.4928	0.0238	0.9538	0.077
Mof_H 	H 	0.5855	0.0343	0.8516	0.08
Mof_H 	H 	0.6654	0.081	0.809	-0.017
Mof_H 	H 	0.4969	0.0007	0.8934	0.042
Mof_N 	N 	0.539	0.8437	0.2959	-0.204
Mof_C 	C 	0.53	0.8342	0.3296	0.089
Mof_C 	C 	0.6344	0.8231	0.3503	-0.165
Mof_C 	C 	0.4927	0.4287	0.3357	0.102
Mof_C 	C 	0.4826	0.4194	0.3004	-0.165
Mof_C 	C 	0.5921	0.4082	0.2821	0.088
Mof_C 	C 	0.3719	0.4422	0.3548	-0.065
Mof_N 	N 	0.5194	0.5781	0.277	-0.201
Mof_C 	C 	0.4011	0.5612	0.2743	0.093
Mof_C 	C 	0.3431	0.5346	0.2995	-0.167
Mof_C 	C 	0.4097	0.5238	0.3294	0.105
Mof_C 	C 	0.5333	0.5411	0.332	-0.162
Mof_C 	C 	0.5815	0.5684	0.3058	0.092
Mof_C 	C 	0.3487	0.4948	0.3561	-0.066
Mof_H 	H 	0.4464	0.8351	0.34	-0.019
Mof_H 	H 	0.6222	0.8169	0.3742	0.078
Mof_H 	H 	0.4005	0.4207	0.2892	0.079
Mof_H 	H 	0.5828	0.4015	0.2582	-0.018
Mof_H 	H 	0.2937	0.4259	0.346	0.044
Mof_H 	H 	0.3972	0.5675	0.4961	-0.018
Mof_H 	H 	0.4928	0.5238	0.4538	0.077
Mof_H 	H 	0.5855	0.5343	0.3516	0.08
Mof_H 	H 	0.6654	0.581	0.309	-0.017
Mof_H 	H 	0.4969	0.5007	0.3934	0.042
Mof_Ag	Ag	0.875	0.875	0.9866	0.599
Mof_Ag	Ag	0.875	0.375	0.4866	0.599
Mof_Ag	Ag	0.375	0.875	0.4866	0.599
Mof_Ag	Ag	0.375	0.375	0.9866	0.599
Mof_Ag	Ag	0.875	0.875	0.7634	0.599
Mof_Ag	Ag	0.875	0.375	0.2634	0.599
Mof_Ag	Ag	0.375	0.875	0.2634	0.599
Mof_Ag	Ag	0.375	0.375	0.7634	0.599
Mof_Ag	Ag	0.125	0.125	0.0134	0.599
Mof_Ag	Ag	0.125	0.625	0.5134	0.599
Mof_Ag	Ag	0.625	0.125	0.5134	0.599
Mof_Ag	Ag	0.625	0.625	0.0134	0.599
Mof_Ag	Ag	0.125	0.125	0.2366	0.599
Mof_Ag	Ag	0.125	0.625	0.7366	0.599
Mof_Ag	Ag	0.625	0.125	0.7366	0.599
Mof_Ag	Ag	0.625	0.625	0.2366	0.599
_end
