data_functionalizedCrystal
_audit_creation_method	'EQeq! by Chris Wilmer'
_symmetry_space_group_name_H-M	'P1'
_symmetry_Int_Tables_number	1
_symmetry_cell_setting	triclinic
loop_
_symmetry_equiv_pos_as_xyz
  x,y,z
_cell_length_a	12.282
_cell_length_b	22.79
_cell_length_c	13.58
_cell_angle_alpha	90
_cell_angle_beta	91.87
_cell_angle_gamma	90
loop_
_atom_site_label
_atom_site_type_symbol
_atom_site_fract_x
_atom_site_fract_y
_atom_site_fract_z
_atom_site_charge
Mof_N 	N 	0.4192	0.26468	0.4813	-0.219
Mof_C 	C 	0.4699	0.235	0.4102	0.096
Mof_H 	H 	0.431	0.205	0.3757	-0.033
Mof_C 	C 	0.5743	0.24629	0.386	-0.189
Mof_H 	H 	0.6065	0.2242	0.3353	0.078
Mof_C 	C 	0.6349	0.29009	0.4347	0.131
Mof_C 	C 	0.583	0.31899	0.5106	-0.192
Mof_H 	H 	0.6207	0.3483	0.5479	0.083
Mof_C 	C 	0.4775	0.3052	0.5315	0.097
Mof_H 	H 	0.4442	0.3252	0.584	-0.031
Mof_C 	C 	0.7468	0.30556	0.403	-0.165
Mof_H 	H 	0.7915	0.3171	0.4618	0.076
Mof_H 	H 	0.7806	0.2702	0.3745	0.072
Mof_N 	N 	0.7492	0.35347	0.33	-0.085
Mof_C 	C 	0.728	0.41168	0.3713	-0.052
Mof_H 	H 	0.7766	0.4185	0.4298	0.037
Mof_H 	H 	0.6517	0.4139	0.3924	0.026
Mof_C 	C 	0.7475	0.45815	0.2946	-0.065
Mof_H 	H 	0.7348	0.4975	0.3227	0.027
Mof_H 	H 	0.824	0.4562	0.274	0.047
Mof_N 	N 	0.6727	0.44851	0.208	-0.143
Mof_C 	C 	0.6967	0.38963	0.1669	-0.065
Mof_H 	H 	0.7729	0.3885	0.1453	0.035
Mof_H 	H 	0.6481	0.3821	0.1087	0.021
Mof_C 	C 	0.6803	0.34255	0.2435	-0.042
Mof_H 	H 	0.603	0.342	0.2622	0.022
Mof_H 	H 	0.6979	0.3037	0.2156	0.02
Mof_C 	C 	0.6903	0.49452	0.1323	-0.088
Mof_H 	H 	0.7565	0.4851	0.0957	0.042
Mof_H 	H 	0.7018	0.5329	0.1651	0.036
Mof_C 	C 	0.5938	0.4983	0.0615	-0.04
Mof_C 	C 	0.5055	0.53396	0.0848	-0.047
Mof_H 	H 	0.5093	0.5573	0.1427	0.01
Mof_C 	C 	0.5873	0.46449	0.9756	0.003
Mof_H 	H 	0.647	0.4404	0.9586	0.014
Mof_N 	N 	0.9192	0.76468	0.4813	-0.234
Mof_C 	C 	0.9699	0.735	0.4102	0.142
Mof_H 	H 	0.931	0.705	0.3757	-0.045
Mof_C 	C 	0.0743	0.74629	0.386	-0.244
Mof_H 	H 	0.1065	0.7242	0.3353	0.092
Mof_C 	C 	0.1349	0.79009	0.4347	0.164
Mof_C 	C 	0.083	0.81899	0.5106	-0.245
Mof_H 	H 	0.1207	0.8483	0.5479	0.097
Mof_C 	C 	0.9775	0.8052	0.5315	0.143
Mof_H 	H 	0.9442	0.8252	0.584	-0.041
Mof_C 	C 	0.2468	0.80556	0.403	-0.182
Mof_H 	H 	0.2915	0.8171	0.4618	0.078
Mof_H 	H 	0.2806	0.7702	0.3745	0.075
Mof_N 	N 	0.2492	0.85347	0.33	-0.084
Mof_C 	C 	0.228	0.91168	0.3713	-0.052
Mof_H 	H 	0.2766	0.9185	0.4298	0.035
Mof_H 	H 	0.1517	0.9139	0.3924	0.025
Mof_C 	C 	0.2475	0.95815	0.2946	-0.064
Mof_H 	H 	0.2348	0.9975	0.3227	0.026
Mof_H 	H 	0.324	0.9562	0.274	0.044
Mof_N 	N 	0.1727	0.94851	0.208	-0.139
Mof_C 	C 	0.1967	0.88963	0.1669	-0.065
Mof_H 	H 	0.2729	0.8885	0.1453	0.033
Mof_H 	H 	0.1481	0.8821	0.1087	0.02
Mof_C 	C 	0.1803	0.84255	0.2435	-0.042
Mof_H 	H 	0.103	0.842	0.2622	0.019
Mof_H 	H 	0.1979	0.8037	0.2156	0.019
Mof_C 	C 	0.1903	0.99452	0.1323	-0.107
Mof_H 	H 	0.2565	0.9851	0.0957	0.046
Mof_H 	H 	0.2018	0.0329	0.1651	0.039
Mof_C 	C 	0.0938	0.9983	0.0615	0.004
Mof_C 	C 	0.0055	0.03396	0.0848	-0.111
Mof_H 	H 	0.0093	0.0573	0.1427	0.027
Mof_C 	C 	0.0873	0.96449	0.9756	-0.064
Mof_H 	H 	0.147	0.9404	0.9586	0.034
Mof_N 	N 	0.5808	0.26468	0.0187	-0.226
Mof_C 	C 	0.5301	0.235	0.0898	0.082
Mof_H 	H 	0.569	0.205	0.1243	-0.03
Mof_C 	C 	0.4257	0.24629	0.114	-0.176
Mof_H 	H 	0.3935	0.2242	0.1647	0.072
Mof_C 	C 	0.3651	0.29009	0.0653	0.096
Mof_C 	C 	0.417	0.31899	0.9894	-0.159
Mof_H 	H 	0.3793	0.3483	0.9521	0.075
Mof_C 	C 	0.5225	0.3052	0.9685	0.104
Mof_H 	H 	0.5558	0.3252	0.916	-0.028
Mof_C 	C 	0.2532	0.30556	0.097	-0.145
Mof_H 	H 	0.2085	0.3171	0.0382	0.06
Mof_H 	H 	0.2194	0.2702	0.1255	0.061
Mof_N 	N 	0.2508	0.35347	0.17	-0.092
Mof_C 	C 	0.272	0.41168	0.1287	-0.048
Mof_H 	H 	0.2234	0.4185	0.0702	0.027
Mof_H 	H 	0.3483	0.4139	0.1076	0.021
Mof_C 	C 	0.2525	0.45815	0.2054	-0.065
Mof_H 	H 	0.2652	0.4975	0.1773	0.024
Mof_H 	H 	0.176	0.4562	0.226	0.041
Mof_N 	N 	0.3273	0.44851	0.292	-0.14
Mof_C 	C 	0.3033	0.38963	0.3331	-0.068
Mof_H 	H 	0.2271	0.3885	0.3547	0.034
Mof_H 	H 	0.3519	0.3821	0.3913	0.025
Mof_C 	C 	0.3197	0.34255	0.2565	-0.04
Mof_H 	H 	0.397	0.342	0.2378	0.021
Mof_H 	H 	0.3021	0.3037	0.2844	0.018
Mof_C 	C 	0.3097	0.49452	0.3677	-0.113
Mof_H 	H 	0.2435	0.4851	0.4043	0.05
Mof_H 	H 	0.2982	0.5329	0.3349	0.042
Mof_C 	C 	0.4062	0.4983	0.4385	0.015
Mof_C 	C 	0.4945	0.53396	0.4152	-0.093
Mof_H 	H 	0.4907	0.5573	0.3573	0.026
Mof_C 	C 	0.4127	0.46449	0.5244	-0.061
Mof_H 	H 	0.353	0.4404	0.5414	0.028
Mof_N 	N 	0.0808	0.76468	0.0187	-0.211
Mof_C 	C 	0.0301	0.735	0.0898	0.037
Mof_H 	H 	0.069	0.705	0.1243	-0.019
Mof_C 	C 	0.9257	0.74629	0.114	-0.122
Mof_H 	H 	0.8935	0.7242	0.1647	0.058
Mof_C 	C 	0.8651	0.79009	0.0653	0.062
Mof_C 	C 	0.917	0.81899	0.9894	-0.102
Mof_H 	H 	0.8793	0.8483	0.9521	0.06
Mof_C 	C 	0.0225	0.8052	0.9685	0.056
Mof_H 	H 	0.0558	0.8252	0.916	-0.017
Mof_C 	C 	0.7532	0.80556	0.097	-0.127
Mof_H 	H 	0.7085	0.8171	0.0382	0.056
Mof_H 	H 	0.7194	0.7702	0.1255	0.058
Mof_N 	N 	0.7508	0.85347	0.17	-0.092
Mof_C 	C 	0.772	0.91168	0.1287	-0.048
Mof_H 	H 	0.7234	0.9185	0.0702	0.03
Mof_H 	H 	0.8483	0.9139	0.1076	0.025
Mof_C 	C 	0.7525	0.95815	0.2054	-0.065
Mof_H 	H 	0.7652	0.9975	0.1773	0.027
Mof_H 	H 	0.676	0.9562	0.226	0.044
Mof_N 	N 	0.8273	0.94851	0.292	-0.137
Mof_C 	C 	0.8033	0.88963	0.3331	-0.066
Mof_H 	H 	0.7271	0.8885	0.3547	0.035
Mof_H 	H 	0.8519	0.8821	0.3913	0.027
Mof_C 	C 	0.8197	0.84255	0.2565	-0.041
Mof_H 	H 	0.897	0.842	0.2378	0.027
Mof_H 	H 	0.8021	0.8037	0.2844	0.019
Mof_C 	C 	0.8097	0.99452	0.3677	-0.092
Mof_H 	H 	0.7435	0.9851	0.4043	0.047
Mof_H 	H 	0.7982	0.0329	0.3349	0.038
Mof_C 	C 	0.9062	0.9983	0.4385	-0.02
Mof_C 	C 	0.9945	0.03396	0.4152	-0.031
Mof_H 	H 	0.9907	0.0573	0.3573	0.013
Mof_C 	C 	0.9127	0.96449	0.5244	-0
Mof_H 	H 	0.853	0.9404	0.5414	0.011
Mof_N 	N 	0.5808	0.73532	0.5187	-0.221
Mof_C 	C 	0.5301	0.765	0.5898	0.094
Mof_H 	H 	0.569	0.795	0.6243	-0.032
Mof_C 	C 	0.4257	0.75371	0.614	-0.189
Mof_H 	H 	0.3935	0.7758	0.6647	0.078
Mof_C 	C 	0.3651	0.70991	0.5653	0.129
Mof_C 	C 	0.417	0.68101	0.4894	-0.191
Mof_H 	H 	0.3793	0.6517	0.4521	0.081
Mof_C 	C 	0.5225	0.6948	0.4685	0.096
Mof_H 	H 	0.5558	0.6748	0.416	-0.03
Mof_C 	C 	0.2532	0.69444	0.597	-0.161
Mof_H 	H 	0.2085	0.6829	0.5382	0.071
Mof_H 	H 	0.2194	0.7298	0.6255	0.068
Mof_N 	N 	0.2508	0.64653	0.67	-0.088
Mof_C 	C 	0.272	0.58832	0.6287	-0.051
Mof_H 	H 	0.2234	0.5815	0.5702	0.033
Mof_H 	H 	0.3483	0.5861	0.6076	0.025
Mof_C 	C 	0.2525	0.54185	0.7054	-0.065
Mof_H 	H 	0.2652	0.5025	0.6773	0.025
Mof_H 	H 	0.176	0.5438	0.726	0.043
Mof_N 	N 	0.3273	0.55149	0.792	-0.136
Mof_C 	C 	0.3033	0.61037	0.8331	-0.072
Mof_H 	H 	0.2271	0.6115	0.8547	0.039
Mof_H 	H 	0.3519	0.6179	0.8913	0.032
Mof_C 	C 	0.3197	0.65745	0.7565	-0.039
Mof_H 	H 	0.397	0.658	0.7378	0.021
Mof_H 	H 	0.3021	0.6963	0.7844	0.02
Mof_C 	C 	0.3097	0.50548	0.8677	-0.143
Mof_H 	H 	0.2435	0.5149	0.9043	0.063
Mof_H 	H 	0.2982	0.4671	0.8349	0.052
Mof_C 	C 	0.4062	0.5017	0.9385	0.073
Mof_C 	C 	0.4945	0.46604	0.9152	-0.143
Mof_H 	H 	0.4907	0.4427	0.8573	0.043
Mof_C 	C 	0.4127	0.53551	0.0244	-0.128
Mof_H 	H 	0.353	0.5596	0.0414	0.045
Mof_N 	N 	0.0808	0.23532	0.5187	-0.207
Mof_C 	C 	0.0301	0.265	0.5898	0.047
Mof_H 	H 	0.069	0.295	0.6243	-0.021
Mof_C 	C 	0.9257	0.25371	0.614	-0.134
Mof_H 	H 	0.8935	0.2758	0.6647	0.064
Mof_C 	C 	0.8651	0.20991	0.5653	0.096
Mof_C 	C 	0.917	0.18101	0.4894	-0.137
Mof_H 	H 	0.8793	0.1517	0.4521	0.067
Mof_C 	C 	0.0225	0.1948	0.4685	0.05
Mof_H 	H 	0.0558	0.1748	0.416	-0.02
Mof_C 	C 	0.7532	0.19444	0.597	-0.144
Mof_H 	H 	0.7085	0.1829	0.5382	0.068
Mof_H 	H 	0.7194	0.2298	0.6255	0.066
Mof_N 	N 	0.7508	0.14653	0.67	-0.088
Mof_C 	C 	0.772	0.08832	0.6287	-0.052
Mof_H 	H 	0.7234	0.0815	0.5702	0.036
Mof_H 	H 	0.8483	0.0861	0.6076	0.03
Mof_C 	C 	0.7525	0.04185	0.7054	-0.064
Mof_H 	H 	0.7652	0.0025	0.6773	0.028
Mof_H 	H 	0.676	0.0438	0.726	0.045
Mof_N 	N 	0.8273	0.05149	0.792	-0.132
Mof_C 	C 	0.8033	0.11037	0.8331	-0.07
Mof_H 	H 	0.7271	0.1115	0.8547	0.04
Mof_H 	H 	0.8519	0.1179	0.8913	0.035
Mof_C 	C 	0.8197	0.15745	0.7565	-0.04
Mof_H 	H 	0.897	0.158	0.7378	0.027
Mof_H 	H 	0.8021	0.1963	0.7844	0.022
Mof_C 	C 	0.8097	0.00548	0.8677	-0.124
Mof_H 	H 	0.7435	0.0149	0.9043	0.06
Mof_H 	H 	0.7982	0.9671	0.8349	0.051
Mof_C 	C 	0.9062	0.0017	0.9385	0.035
Mof_C 	C 	0.9945	0.96604	0.9152	-0.072
Mof_H 	H 	0.9907	0.9427	0.8573	0.028
Mof_C 	C 	0.9127	0.03551	0.0244	-0.066
Mof_H 	H 	0.853	0.0596	0.0414	0.027
Mof_N 	N 	0.4192	0.73532	0.9813	-0.206
Mof_C 	C 	0.4699	0.765	0.9102	0.106
Mof_H 	H 	0.431	0.795	0.8757	-0.032
Mof_C 	C 	0.5743	0.75371	0.886	-0.202
Mof_H 	H 	0.6065	0.7758	0.8353	0.084
Mof_C 	C 	0.6349	0.70991	0.9347	0.164
Mof_C 	C 	0.583	0.68101	0.0106	-0.223
Mof_H 	H 	0.6207	0.6517	0.0479	0.088
Mof_C 	C 	0.4775	0.6948	0.0315	0.087
Mof_H 	H 	0.4442	0.6748	0.084	-0.029
Mof_C 	C 	0.7468	0.69444	0.903	-0.181
Mof_H 	H 	0.7915	0.6829	0.9618	0.088
Mof_H 	H 	0.7806	0.7298	0.8745	0.08
Mof_N 	N 	0.7492	0.64653	0.83	-0.082
Mof_C 	C 	0.728	0.58832	0.8713	-0.055
Mof_H 	H 	0.7766	0.5815	0.9298	0.044
Mof_H 	H 	0.6517	0.5861	0.8924	0.031
Mof_C 	C 	0.7475	0.54185	0.7946	-0.065
Mof_H 	H 	0.7348	0.5025	0.8227	0.03
Mof_H 	H 	0.824	0.5438	0.774	0.049
Mof_N 	N 	0.6727	0.55149	0.708	-0.139
Mof_C 	C 	0.6967	0.61037	0.6669	-0.069
Mof_H 	H 	0.7729	0.6115	0.6453	0.038
Mof_H 	H 	0.6481	0.6179	0.6087	0.026
Mof_C 	C 	0.6803	0.65745	0.7435	-0.041
Mof_H 	H 	0.603	0.658	0.7622	0.022
Mof_H 	H 	0.6979	0.6963	0.7156	0.019
Mof_C 	C 	0.6903	0.50548	0.6323	-0.118
Mof_H 	H 	0.7565	0.5149	0.5957	0.056
Mof_H 	H 	0.7018	0.4671	0.6651	0.047
Mof_C 	C 	0.5938	0.5017	0.5615	0.019
Mof_C 	C 	0.5055	0.46604	0.5848	-0.097
Mof_H 	H 	0.5093	0.4427	0.6427	0.027
Mof_C 	C 	0.5873	0.53551	0.4756	-0.064
Mof_H 	H 	0.647	0.5596	0.4586	0.03
Mof_N 	N 	0.9192	0.23532	0.9813	-0.218
Mof_C 	C 	0.9699	0.265	0.9102	0.153
Mof_H 	H 	0.931	0.295	0.8757	-0.043
Mof_C 	C 	0.0743	0.25371	0.886	-0.255
Mof_H 	H 	0.1065	0.2758	0.8353	0.097
Mof_C 	C 	0.1349	0.20991	0.9347	0.193
Mof_C 	C 	0.083	0.18101	0.0106	-0.27
Mof_H 	H 	0.1207	0.1517	0.0479	0.1
Mof_C 	C 	0.9775	0.1948	0.0315	0.129
Mof_H 	H 	0.9442	0.1748	0.084	-0.038
Mof_C 	C 	0.2468	0.19444	0.903	-0.197
Mof_H 	H 	0.2915	0.1829	0.9618	0.089
Mof_H 	H 	0.2806	0.2298	0.8745	0.081
Mof_N 	N 	0.2492	0.14653	0.83	-0.082
Mof_C 	C 	0.228	0.08832	0.8713	-0.055
Mof_H 	H 	0.2766	0.0815	0.9298	0.041
Mof_H 	H 	0.1517	0.0861	0.8924	0.029
Mof_C 	C 	0.2475	0.04185	0.7946	-0.064
Mof_H 	H 	0.2348	0.0025	0.8227	0.027
Mof_H 	H 	0.324	0.0438	0.774	0.045
Mof_N 	N 	0.1727	0.05149	0.708	-0.135
Mof_C 	C 	0.1967	0.11037	0.6669	-0.069
Mof_H 	H 	0.2729	0.1115	0.6453	0.036
Mof_H 	H 	0.1481	0.1179	0.6087	0.025
Mof_C 	C 	0.1803	0.15745	0.7435	-0.041
Mof_H 	H 	0.103	0.158	0.7622	0.019
Mof_H 	H 	0.1979	0.1963	0.7156	0.018
Mof_C 	C 	0.1903	0.00548	0.6323	-0.139
Mof_H 	H 	0.2565	0.0149	0.5957	0.059
Mof_H 	H 	0.2018	0.9671	0.6651	0.052
Mof_C 	C 	0.0938	0.0017	0.5615	0.056
Mof_C 	C 	0.0055	0.96604	0.5848	-0.156
Mof_H 	H 	0.0093	0.9427	0.6427	0.042
Mof_C 	C 	0.0873	0.03551	0.4756	-0.125
Mof_H 	H 	0.147	0.0596	0.4586	0.047
Mof_Ag	Ag	0.25	0.25	0.5	0.496
Mof_Ag	Ag	0.75	0.25	-0	0.475
Mof_Ag	Ag	0.75	0.75	0.5	0.507
Mof_Ag	Ag	0.25	0.75	-0	0.466
Mof_Ag	Ag	0.5	0.45117	0.25	0.55
Mof_Ag	Ag	1.07023e-33	0.95117	0.25	0.52
Mof_Ag	Ag	0.5	0.54883	0.75	0.553
Mof_Ag	Ag	3.2107e-33	0.04883	0.75	0.519
_end
