data_functionalizedCrystal
_audit_creation_method	'EQeq! by Chris Wilmer'
_symmetry_space_group_name_H-M	'P1'
_symmetry_Int_Tables_number	1
_symmetry_cell_setting	triclinic
loop_
_symmetry_equiv_pos_as_xyz
  x,y,z
_cell_length_a	9.272
_cell_length_b	9.272
_cell_length_c	17.716
_cell_angle_alpha	90
_cell_angle_beta	90
_cell_angle_gamma	120
loop_
_atom_site_label
_atom_site_type_symbol
_atom_site_fract_x
_atom_site_fract_y
_atom_site_fract_z
_atom_site_charge
Mof_La	La	0.33333	0.66666	0.75	2.105
Mof_La	La	0.66667	0.33334	0.25	2.103
Mof_Gd	Gd	-0	0	-0	1.362
Mof_Gd	Gd	1.91385e-32	0	0.5	1.423
Mof_H 	H 	0.5735	0.5998	0.9181	0.111
Mof_H 	H 	0.5095	0.6776	0.9765	0.117
Mof_H 	H 	0.0263	0.4265	0.9181	0.049
Mof_H 	H 	0.1681	0.4905	0.9765	0.08
Mof_H 	H 	0.4002	0.9737	0.9181	0.096
Mof_H 	H 	0.3224	0.8319	0.9765	0.079
Mof_H 	H 	0.5735	0.5998	0.5819	0.12
Mof_H 	H 	0.5095	0.6776	0.5235	0.12
Mof_H 	H 	0.0263	0.4265	0.5819	0.059
Mof_H 	H 	0.1681	0.4905	0.5235	0.084
Mof_H 	H 	0.4002	0.9737	0.5819	0.106
Mof_H 	H 	0.3224	0.8319	0.5235	0.083
Mof_H 	H 	0.9737	0.4002	0.0819	0.091
Mof_H 	H 	0.8319	0.3224	0.0235	0.065
Mof_H 	H 	0.5998	0.5735	0.0819	0.107
Mof_H 	H 	0.6776	0.5095	0.0235	0.107
Mof_H 	H 	0.4265	0.0263	0.0819	0.052
Mof_H 	H 	0.4905	0.1681	0.0235	0.074
Mof_H 	H 	0.9737	0.4002	0.4181	0.103
Mof_H 	H 	0.8319	0.3224	0.4765	0.08
Mof_H 	H 	0.5998	0.5735	0.4181	0.118
Mof_H 	H 	0.6776	0.5095	0.4765	0.121
Mof_H 	H 	0.4265	0.0263	0.4181	0.063
Mof_H 	H 	0.4905	0.1681	0.4765	0.088
Mof_C 	C 	0.6572	0.8413	0.8953	0.468
Mof_C 	C 	0.6032	0.6957	0.9478	-0.236
Mof_C 	C 	0.1841	0.3428	0.8953	0.441
Mof_C 	C 	0.0925	0.3968	0.9478	-0.168
Mof_C 	C 	0.1587	0.8159	0.8953	0.445
Mof_C 	C 	0.3043	0.9075	0.9478	-0.09
Mof_C 	C 	0.6572	0.8413	0.6047	0.482
Mof_C 	C 	0.6032	0.6957	0.5522	-0.289
Mof_C 	C 	0.1841	0.3428	0.6047	0.456
Mof_C 	C 	0.0925	0.3968	0.5522	-0.227
Mof_C 	C 	0.1587	0.8159	0.6047	0.459
Mof_C 	C 	0.3043	0.9075	0.5522	-0.144
Mof_C 	C 	0.8159	0.1587	0.1047	0.444
Mof_C 	C 	0.9075	0.3043	0.0522	-0.104
Mof_C 	C 	0.8413	0.6572	0.1047	0.471
Mof_C 	C 	0.6957	0.6032	0.0522	-0.266
Mof_C 	C 	0.3428	0.1841	0.1047	0.449
Mof_C 	C 	0.3968	0.0925	0.0522	-0.211
Mof_C 	C 	0.8159	0.1587	0.3953	0.455
Mof_C 	C 	0.9075	0.3043	0.4478	-0.129
Mof_C 	C 	0.8413	0.6572	0.3953	0.481
Mof_C 	C 	0.6957	0.6032	0.4478	-0.289
Mof_C 	C 	0.3428	0.1841	0.3953	0.459
Mof_C 	C 	0.3968	0.0925	0.4478	-0.234
Mof_O 	O 	0.7955	0.9679	0.90713	-0.289
Mof_O 	O 	0.559	0.8271	0.84415	-0.491
Mof_O 	O 	0.1724	0.2045	0.90713	-0.422
Mof_O 	O 	0.2681	0.441	0.84415	-0.524
Mof_O 	O 	0.0321	0.8276	0.90713	-0.394
Mof_O 	O 	0.1729	0.7319	0.84415	-0.519
Mof_O 	O 	0.7955	0.9679	0.59287	-0.311
Mof_O 	O 	0.559	0.8271	0.65585	-0.497
Mof_O 	O 	0.1724	0.2045	0.59287	-0.448
Mof_O 	O 	0.2681	0.441	0.65585	-0.531
Mof_O 	O 	0.0321	0.8276	0.59287	-0.418
Mof_O 	O 	0.1729	0.7319	0.65585	-0.526
Mof_O 	O 	0.8276	0.0321	0.09287	-0.406
Mof_O 	O 	0.7319	0.1729	0.15585	-0.521
Mof_O 	O 	0.9679	0.7955	0.09287	-0.306
Mof_O 	O 	0.8271	0.559	0.15585	-0.494
Mof_O 	O 	0.2045	0.1724	0.09287	-0.447
Mof_O 	O 	0.441	0.2681	0.15585	-0.53
Mof_O 	O 	0.8276	0.0321	0.40713	-0.411
Mof_O 	O 	0.7319	0.1729	0.34415	-0.524
Mof_O 	O 	0.9679	0.7955	0.40713	-0.311
Mof_O 	O 	0.8271	0.559	0.34415	-0.497
Mof_O 	O 	0.2045	0.1724	0.40713	-0.451
Mof_O 	O 	0.441	0.2681	0.34415	-0.533
Mof_O 	O 	0.7317	0.7317	-0	-0.155
Mof_O 	O 	-0	0.2683	-0	-0.326
Mof_O 	O 	0.2683	0	-0	-0.314
Mof_O 	O 	0.7317	0.7317	0.5	-0.122
Mof_O 	O 	-3.08045e-17	0.2683	0.5	-0.29
Mof_O 	O 	0.2683	0	0.5	-0.281
_end
