data_functionalizedCrystal
_audit_creation_method	'EQeq! by Chris Wilmer'
_symmetry_space_group_name_H-M	'P1'
_symmetry_Int_Tables_number	1
_symmetry_cell_setting	triclinic
loop_
_symmetry_equiv_pos_as_xyz
  x,y,z
_cell_length_a	7.2605
_cell_length_b	7.2605
_cell_length_c	8.2156
_cell_angle_alpha	90
_cell_angle_beta	90
_cell_angle_gamma	120
loop_
_atom_site_label
_atom_site_type_symbol
_atom_site_fract_x
_atom_site_fract_y
_atom_site_fract_z
_atom_site_charge
Mof_O 	O 	0.89073	0.31009	0.89398	-0.29
Mof_O 	O 	0.68991	0.58064	0.89398	-0.316
Mof_O 	O 	0.41936	0.10927	0.89398	-0.324
Mof_O 	O 	0.10927	0.68991	0.39398	-0.423
Mof_O 	O 	0.31009	0.41936	0.39398	-0.462
Mof_O 	O 	0.58064	0.89073	0.39398	-0.359
Mof_O 	O 	0.31009	0.89073	0.10602	-0.343
Mof_O 	O 	0.58064	0.68991	0.10602	-0.398
Mof_O 	O 	0.10927	0.41936	0.10602	-0.416
Mof_O 	O 	0.68991	0.10927	0.60602	-0.414
Mof_O 	O 	0.41936	0.31009	0.60602	-0.455
Mof_O 	O 	0.89073	0.58064	0.60602	-0.372
Mof_Mg	Mg	0.66667	0.33333	0.75	1.479
Mof_Mg	Mg	0.33333	0.66667	0.25	1.478
Mof_C 	C 	-0	0.4402	-0	0.28
Mof_H 	H 	-3.78894e-17	0.5683	-0	-0.086
Mof_C 	C 	0.5598	0.5598	-0	0.361
Mof_H 	H 	0.4317	0.4317	-0	-0.108
Mof_C 	C 	0.4402	0	-0	0.237
Mof_H 	H 	0.5683	0	-0	-0.081
Mof_C 	C 	6.49142e-18	0.5598	0.5	0.435
Mof_H 	H 	6.49142e-18	0.4317	0.5	-0.117
Mof_C 	C 	0.4402	0.4402	0.5	0.525
Mof_H 	H 	0.5683	0.5683	0.5	-0.119
Mof_C 	C 	0.5598	0	0.5	0.399
Mof_H 	H 	0.4317	0	0.5	-0.111
_end
