data_functionalizedCrystal
_audit_creation_method	'EQeq! by Chris Wilmer'
_symmetry_space_group_name_H-M	'P1'
_symmetry_Int_Tables_number	1
_symmetry_cell_setting	triclinic
loop_
_symmetry_equiv_pos_as_xyz
  x,y,z
_cell_length_a	16.295
_cell_length_b	16.295
_cell_length_c	28.946
_cell_angle_alpha	90
_cell_angle_beta	90
_cell_angle_gamma	90
loop_
_atom_site_label
_atom_site_type_symbol
_atom_site_fract_x
_atom_site_fract_y
_atom_site_fract_z
_atom_site_charge
Mof_C 	C 	0.76518	0.3324	0.57153	-0.159
Mof_C 	C 	0.72626	0.2998	0.53324	0.107
Mof_H 	H 	0.7475	0.2534	0.5188	0.028
Mof_C 	C 	0.65577	0.3364	0.51636	-0.161
Mof_C 	C 	0.62623	0.4065	0.53724	0.097
Mof_H 	H 	0.5783	0.4305	0.5262	0.036
Mof_C 	C 	0.6665	0.4418	0.57412	-0.141
Mof_C 	C 	0.7354	0.4038	0.59158	0.096
Mof_H 	H 	0.7621	0.4262	0.617	0.032
Mof_C 	C 	0.8392	0.29	0.59169	0.437
Mof_C 	C 	0.6116	0.3057	0.47464	0.433
Mof_C 	C 	0.6355	0.5218	0.59296	0.381
Mof_C 	C 	0.9004	0.0957	0.76805	-0.113
Mof_C 	C 	0.92903	0.0206	0.78223	0.052
Mof_H 	H 	0.9737	0.9971	0.7672	0.052
Mof_C 	C 	0.89223	0.9796	0.81857	-0.12
Mof_C 	C 	0.82612	0.0157	0.84119	0.051
Mof_H 	H 	0.8012	0.9887	0.8658	0.048
Mof_C 	C 	0.7974	0.0912	0.82739	-0.108
Mof_C 	C 	0.83441	0.1305	0.79074	0.059
Mof_H 	H 	0.8146	0.1813	0.7811	0.048
Mof_C 	C 	0.9409	0.1396	0.72901	0.364
Mof_C 	C 	0.9225	0.8973	0.83342	0.41
Mof_C 	C 	0.7268	0.1304	0.85213	0.346
Mof_O 	O 	0.87184	0.23552	0.56768	-0.506
Mof_O 	O 	0.86264	0.31397	0.63058	-0.51
Mof_O 	O 	0.64976	0.25944	0.44788	-0.488
Mof_O 	O 	0.53918	0.32934	0.46956	-0.493
Mof_O 	O 	0.57056	0.54736	0.57447	-0.471
Mof_O 	O 	0.67374	0.55794	0.62306	-0.31
Mof_O 	O 	0.91524	0.21258	0.72211	-0.467
Mof_O 	O 	0.99505	0.10514	0.70684	-0.337
Mof_O 	O 	0.98565	0.87005	0.81338	-0.49
Mof_O 	O 	0.88317	0.86107	0.8643	-0.493
Mof_O 	O 	0.71941	0.20737	0.84644	-0.447
Mof_O 	O 	0.68018	0.09061	0.87645	-0.327
Mof_O 	O 	0.02002	0.1973	0.63449	-0.873
Mof_H 	H 	0.0246	0.1607	0.6588	0.256
Mof_Zn	Zn	0.95951	0.15787	0.58058	1.234
Mof_Zn	Zn	0.95001	0.27515	0.66967	1.227
Mof_Zn	Zn	0.62713	0.25505	0.38191	1.232
Mof_C 	C 	0.73482	0.6676	0.07153	-0.16
Mof_C 	C 	0.77374	0.7002	0.03324	0.107
Mof_H 	H 	0.7525	0.7466	0.0188	0.027
Mof_C 	C 	0.84423	0.6636	0.01636	-0.163
Mof_C 	C 	0.87377	0.5935	0.03724	0.096
Mof_H 	H 	0.9217	0.5695	0.0262	0.035
Mof_C 	C 	0.8335	0.5582	0.07412	-0.142
Mof_C 	C 	0.7646	0.5962	0.09158	0.095
Mof_H 	H 	0.7379	0.5738	0.117	0.031
Mof_C 	C 	0.6608	0.71	0.09169	0.436
Mof_C 	C 	0.8884	0.6943	0.97464	0.434
Mof_C 	C 	0.8645	0.4782	0.09296	0.382
Mof_C 	C 	0.5996	0.9043	0.26805	-0.132
Mof_C 	C 	0.57097	0.9794	0.28223	0.089
Mof_H 	H 	0.5263	0.0029	0.2672	0.036
Mof_C 	C 	0.60777	0.0204	0.31857	-0.153
Mof_C 	C 	0.67388	0.9843	0.34119	0.087
Mof_H 	H 	0.6988	0.0113	0.3658	0.032
Mof_C 	C 	0.7026	0.9088	0.32739	-0.127
Mof_C 	C 	0.66559	0.8695	0.29074	0.077
Mof_H 	H 	0.6854	0.8187	0.2811	0.042
Mof_C 	C 	0.5591	0.8604	0.22901	0.371
Mof_C 	C 	0.5775	0.1027	0.33342	0.422
Mof_C 	C 	0.7732	0.8696	0.35213	0.353
Mof_O 	O 	0.62816	0.76448	0.06768	-0.505
Mof_O 	O 	0.63736	0.68603	0.13058	-0.509
Mof_O 	O 	0.85024	0.74056	0.94788	-0.487
Mof_O 	O 	0.96082	0.67066	0.96956	-0.492
Mof_O 	O 	0.92944	0.45264	0.07447	-0.472
Mof_O 	O 	0.82626	0.44206	0.12306	-0.31
Mof_O 	O 	0.58476	0.78742	0.22211	-0.468
Mof_O 	O 	0.50495	0.89486	0.20684	-0.337
Mof_O 	O 	0.51435	0.12995	0.31338	-0.495
Mof_O 	O 	0.61683	0.13893	0.3643	-0.497
Mof_O 	O 	0.78059	0.79263	0.34644	-0.449
Mof_O 	O 	0.81982	0.90939	0.37645	-0.328
Mof_O 	O 	0.47998	0.8027	0.13449	-0.874
Mof_H 	H 	0.4754	0.8393	0.1588	0.254
Mof_Zn	Zn	0.54049	0.84213	0.08058	1.235
Mof_Zn	Zn	0.54999	0.72485	0.16967	1.227
Mof_Zn	Zn	0.87287	0.74495	0.88191	1.232
Mof_C 	C 	0.23482	0.8324	0.92847	-0.161
Mof_C 	C 	0.27374	0.7998	0.96676	0.107
Mof_H 	H 	0.2525	0.7534	0.9812	0.026
Mof_C 	C 	0.34423	0.8364	0.98364	-0.163
Mof_C 	C 	0.37377	0.9065	0.96276	0.097
Mof_H 	H 	0.4217	0.9305	0.9738	0.035
Mof_C 	C 	0.3335	0.9418	0.92588	-0.145
Mof_C 	C 	0.2646	0.9038	0.90842	0.096
Mof_H 	H 	0.2379	0.9262	0.883	0.03
Mof_C 	C 	0.1608	0.79	0.90831	0.436
Mof_C 	C 	0.3884	0.8057	0.02536	0.434
Mof_C 	C 	0.3645	0.0218	0.90704	0.383
Mof_C 	C 	0.0996	0.5957	0.73195	-0.128
Mof_C 	C 	0.07097	0.5206	0.71777	0.082
Mof_H 	H 	0.0263	0.4971	0.7328	0.038
Mof_C 	C 	0.10777	0.4796	0.68143	-0.146
Mof_C 	C 	0.17388	0.5157	0.65881	0.078
Mof_H 	H 	0.1988	0.4887	0.6342	0.037
Mof_C 	C 	0.2026	0.5912	0.67261	-0.122
Mof_C 	C 	0.16559	0.6305	0.70926	0.073
Mof_H 	H 	0.1854	0.6813	0.7189	0.043
Mof_C 	C 	0.0591	0.6396	0.77099	0.37
Mof_C 	C 	0.0775	0.3973	0.66658	0.419
Mof_C 	C 	0.2732	0.6304	0.64787	0.351
Mof_O 	O 	0.12816	0.73552	0.93232	-0.506
Mof_O 	O 	0.13736	0.81397	0.86942	-0.511
Mof_O 	O 	0.35024	0.75944	0.05212	-0.487
Mof_O 	O 	0.46082	0.82934	0.03044	-0.493
Mof_O 	O 	0.42944	0.04736	0.92553	-0.472
Mof_O 	O 	0.32626	0.05794	0.87694	-0.31
Mof_O 	O 	0.08476	0.71258	0.77789	-0.469
Mof_O 	O 	0.00495	0.60514	0.79316	-0.338
Mof_O 	O 	0.01435	0.37005	0.68662	-0.493
Mof_O 	O 	0.11683	0.36107	0.6357	-0.495
Mof_O 	O 	0.28059	0.70737	0.65356	-0.449
Mof_O 	O 	0.31982	0.59061	0.62355	-0.328
Mof_O 	O 	0.97998	0.6973	0.86551	-0.872
Mof_H 	H 	0.9754	0.6607	0.8412	0.255
Mof_Zn	Zn	0.04049	0.65787	0.91942	1.234
Mof_Zn	Zn	0.04999	0.77515	0.83033	1.226
Mof_Zn	Zn	0.37287	0.75505	0.11809	1.232
Mof_C 	C 	0.26518	0.1676	0.42847	-0.158
Mof_C 	C 	0.22626	0.2002	0.46676	0.104
Mof_H 	H 	0.2475	0.2466	0.4812	0.028
Mof_C 	C 	0.15577	0.1636	0.48364	-0.16
Mof_C 	C 	0.12623	0.0935	0.46276	0.092
Mof_H 	H 	0.0783	0.0695	0.4738	0.038
Mof_C 	C 	0.1665	0.0582	0.42588	-0.136
Mof_C 	C 	0.2354	0.0962	0.40842	0.091
Mof_H 	H 	0.2621	0.0738	0.383	0.033
Mof_C 	C 	0.3392	0.21	0.40831	0.435
Mof_C 	C 	0.1116	0.1943	0.52536	0.432
Mof_C 	C 	0.1355	0.9782	0.40704	0.377
Mof_C 	C 	0.4004	0.4043	0.23195	-0.128
Mof_C 	C 	0.42903	0.4794	0.21777	0.082
Mof_H 	H 	0.4737	0.5029	0.2328	0.038
Mof_C 	C 	0.39223	0.5204	0.18143	-0.146
Mof_C 	C 	0.32612	0.4843	0.15881	0.078
Mof_H 	H 	0.3012	0.5113	0.1342	0.037
Mof_C 	C 	0.2974	0.4088	0.17261	-0.122
Mof_C 	C 	0.33441	0.3695	0.20926	0.073
Mof_H 	H 	0.3146	0.3187	0.2189	0.043
Mof_C 	C 	0.4409	0.3604	0.27099	0.37
Mof_C 	C 	0.4225	0.6027	0.16658	0.419
Mof_C 	C 	0.2268	0.3696	0.14787	0.351
Mof_O 	O 	0.37184	0.26448	0.43232	-0.505
Mof_O 	O 	0.36264	0.18603	0.36942	-0.509
Mof_O 	O 	0.14976	0.24056	0.55212	-0.487
Mof_O 	O 	0.03918	0.17066	0.53044	-0.491
Mof_O 	O 	0.07056	0.95264	0.42553	-0.473
Mof_O 	O 	0.17374	0.94206	0.37694	-0.31
Mof_O 	O 	0.41524	0.28742	0.27789	-0.468
Mof_O 	O 	0.49505	0.39486	0.29316	-0.337
Mof_O 	O 	0.48565	0.62995	0.18662	-0.494
Mof_O 	O 	0.38317	0.63893	0.1357	-0.496
Mof_O 	O 	0.21941	0.29263	0.15356	-0.448
Mof_O 	O 	0.18018	0.40939	0.12355	-0.328
Mof_O 	O 	0.52002	0.3027	0.36551	-0.874
Mof_H 	H 	0.5246	0.3393	0.3412	0.254
Mof_Zn	Zn	0.45951	0.34213	0.41942	1.235
Mof_Zn	Zn	0.45001	0.22485	0.33033	1.227
Mof_Zn	Zn	0.12713	0.24495	0.61809	1.232
Mof_C 	C 	0.23482	0.6676	0.42847	-0.16
Mof_C 	C 	0.27374	0.7002	0.46676	0.106
Mof_H 	H 	0.2525	0.7466	0.4812	0.027
Mof_C 	C 	0.34423	0.6636	0.48364	-0.162
Mof_C 	C 	0.37377	0.5935	0.46276	0.096
Mof_H 	H 	0.4217	0.5695	0.4738	0.035
Mof_C 	C 	0.3335	0.5582	0.42588	-0.142
Mof_C 	C 	0.2646	0.5962	0.40842	0.095
Mof_H 	H 	0.2379	0.5738	0.383	0.031
Mof_C 	C 	0.1608	0.71	0.40831	0.436
Mof_C 	C 	0.3884	0.6943	0.52536	0.433
Mof_C 	C 	0.3645	0.4782	0.40704	0.381
Mof_C 	C 	0.0996	0.9043	0.23195	-0.113
Mof_C 	C 	0.07097	0.9794	0.21777	0.052
Mof_H 	H 	0.0263	0.0029	0.2328	0.052
Mof_C 	C 	0.10777	0.0204	0.18143	-0.12
Mof_C 	C 	0.17388	0.9843	0.15881	0.051
Mof_H 	H 	0.1988	0.0113	0.1342	0.048
Mof_C 	C 	0.2026	0.9088	0.17261	-0.108
Mof_C 	C 	0.16559	0.8695	0.20926	0.059
Mof_H 	H 	0.1854	0.8187	0.2189	0.048
Mof_C 	C 	0.0591	0.8604	0.27099	0.364
Mof_C 	C 	0.0775	0.1027	0.16658	0.41
Mof_C 	C 	0.2732	0.8696	0.14787	0.346
Mof_O 	O 	0.12816	0.76448	0.43232	-0.506
Mof_O 	O 	0.13736	0.68603	0.36942	-0.51
Mof_O 	O 	0.35024	0.74056	0.55212	-0.488
Mof_O 	O 	0.46082	0.67066	0.53044	-0.493
Mof_O 	O 	0.42944	0.45264	0.42553	-0.471
Mof_O 	O 	0.32626	0.44206	0.37694	-0.31
Mof_O 	O 	0.08476	0.78742	0.27789	-0.467
Mof_O 	O 	0.00495	0.89486	0.29316	-0.337
Mof_O 	O 	0.01435	0.12995	0.18662	-0.49
Mof_O 	O 	0.11683	0.13893	0.1357	-0.493
Mof_O 	O 	0.28059	0.79263	0.15356	-0.447
Mof_O 	O 	0.31982	0.90939	0.12355	-0.327
Mof_O 	O 	0.97998	0.8027	0.36551	-0.873
Mof_H 	H 	0.9754	0.8393	0.3412	0.256
Mof_Zn	Zn	0.04049	0.84213	0.41942	1.234
Mof_Zn	Zn	0.04999	0.72485	0.33033	1.227
Mof_Zn	Zn	0.37287	0.74495	0.61809	1.232
Mof_C 	C 	0.26518	0.3324	0.92847	-0.16
Mof_C 	C 	0.22626	0.2998	0.96676	0.107
Mof_H 	H 	0.2475	0.2534	0.9812	0.027
Mof_C 	C 	0.15577	0.3364	0.98364	-0.163
Mof_C 	C 	0.12623	0.4065	0.96276	0.096
Mof_H 	H 	0.0783	0.4305	0.9738	0.035
Mof_C 	C 	0.1665	0.4418	0.92588	-0.142
Mof_C 	C 	0.2354	0.4038	0.90842	0.095
Mof_H 	H 	0.2621	0.4262	0.883	0.031
Mof_C 	C 	0.3392	0.29	0.90831	0.436
Mof_C 	C 	0.1116	0.3057	0.02536	0.434
Mof_C 	C 	0.1355	0.5218	0.90704	0.382
Mof_C 	C 	0.4004	0.0957	0.73195	-0.132
Mof_C 	C 	0.42903	0.0206	0.71777	0.089
Mof_H 	H 	0.4737	0.9971	0.7328	0.036
Mof_C 	C 	0.39223	0.9796	0.68143	-0.153
Mof_C 	C 	0.32612	0.0157	0.65881	0.087
Mof_H 	H 	0.3012	0.9887	0.6342	0.032
Mof_C 	C 	0.2974	0.0912	0.67261	-0.127
Mof_C 	C 	0.33441	0.1305	0.70926	0.077
Mof_H 	H 	0.3146	0.1813	0.7189	0.042
Mof_C 	C 	0.4409	0.1396	0.77099	0.371
Mof_C 	C 	0.4225	0.8973	0.66658	0.422
Mof_C 	C 	0.2268	0.1304	0.64787	0.353
Mof_O 	O 	0.37184	0.23552	0.93232	-0.505
Mof_O 	O 	0.36264	0.31397	0.86942	-0.509
Mof_O 	O 	0.14976	0.25944	0.05212	-0.487
Mof_O 	O 	0.03918	0.32934	0.03044	-0.492
Mof_O 	O 	0.07056	0.54736	0.92553	-0.472
Mof_O 	O 	0.17374	0.55794	0.87694	-0.31
Mof_O 	O 	0.41524	0.21258	0.77789	-0.468
Mof_O 	O 	0.49505	0.10514	0.79316	-0.337
Mof_O 	O 	0.48565	0.87005	0.68662	-0.495
Mof_O 	O 	0.38317	0.86107	0.6357	-0.497
Mof_O 	O 	0.21941	0.20737	0.65356	-0.449
Mof_O 	O 	0.18018	0.09061	0.62355	-0.328
Mof_O 	O 	0.52002	0.1973	0.86551	-0.874
Mof_H 	H 	0.5246	0.1607	0.8412	0.254
Mof_Zn	Zn	0.45951	0.15787	0.91942	1.235
Mof_Zn	Zn	0.45001	0.27515	0.83033	1.227
Mof_Zn	Zn	0.12713	0.25505	0.11809	1.232
Mof_C 	C 	0.76518	0.1676	0.07153	-0.161
Mof_C 	C 	0.72626	0.2002	0.03324	0.107
Mof_H 	H 	0.7475	0.2466	0.0188	0.026
Mof_C 	C 	0.65577	0.1636	0.01636	-0.163
Mof_C 	C 	0.62623	0.0935	0.03724	0.097
Mof_H 	H 	0.5783	0.0695	0.0262	0.035
Mof_C 	C 	0.6665	0.0582	0.07412	-0.145
Mof_C 	C 	0.7354	0.0962	0.09158	0.096
Mof_H 	H 	0.7621	0.0738	0.117	0.03
Mof_C 	C 	0.8392	0.21	0.09169	0.436
Mof_C 	C 	0.6116	0.1943	0.97464	0.434
Mof_C 	C 	0.6355	0.9782	0.09296	0.383
Mof_C 	C 	0.9004	0.4043	0.26805	-0.128
Mof_C 	C 	0.92903	0.4794	0.28223	0.082
Mof_H 	H 	0.9737	0.5029	0.2672	0.038
Mof_C 	C 	0.89223	0.5204	0.31857	-0.146
Mof_C 	C 	0.82612	0.4843	0.34119	0.078
Mof_H 	H 	0.8012	0.5113	0.3658	0.037
Mof_C 	C 	0.7974	0.4088	0.32739	-0.122
Mof_C 	C 	0.83441	0.3695	0.29074	0.073
Mof_H 	H 	0.8146	0.3187	0.2811	0.043
Mof_C 	C 	0.9409	0.3604	0.22901	0.37
Mof_C 	C 	0.9225	0.6027	0.33342	0.419
Mof_C 	C 	0.7268	0.3696	0.35213	0.351
Mof_O 	O 	0.87184	0.26448	0.06768	-0.506
Mof_O 	O 	0.86264	0.18603	0.13058	-0.511
Mof_O 	O 	0.64976	0.24056	0.94788	-0.487
Mof_O 	O 	0.53918	0.17066	0.96956	-0.493
Mof_O 	O 	0.57056	0.95264	0.07447	-0.472
Mof_O 	O 	0.67374	0.94206	0.12306	-0.31
Mof_O 	O 	0.91524	0.28742	0.22211	-0.469
Mof_O 	O 	0.99505	0.39486	0.20684	-0.338
Mof_O 	O 	0.98565	0.62995	0.31338	-0.493
Mof_O 	O 	0.88317	0.63893	0.3643	-0.495
Mof_O 	O 	0.71941	0.29263	0.34644	-0.449
Mof_O 	O 	0.68018	0.40939	0.37645	-0.328
Mof_O 	O 	0.02002	0.3027	0.13449	-0.872
Mof_H 	H 	0.0246	0.3393	0.1588	0.255
Mof_Zn	Zn	0.95951	0.34213	0.08058	1.234
Mof_Zn	Zn	0.95001	0.22485	0.16967	1.226
Mof_Zn	Zn	0.62713	0.24495	0.88191	1.232
Mof_C 	C 	0.73482	0.8324	0.57153	-0.158
Mof_C 	C 	0.77374	0.7998	0.53324	0.104
Mof_H 	H 	0.7525	0.7534	0.5188	0.028
Mof_C 	C 	0.84423	0.8364	0.51636	-0.16
Mof_C 	C 	0.87377	0.9065	0.53724	0.092
Mof_H 	H 	0.9217	0.9305	0.5262	0.038
Mof_C 	C 	0.8335	0.9418	0.57412	-0.136
Mof_C 	C 	0.7646	0.9038	0.59158	0.091
Mof_H 	H 	0.7379	0.9262	0.617	0.033
Mof_C 	C 	0.6608	0.79	0.59169	0.435
Mof_C 	C 	0.8884	0.8057	0.47464	0.432
Mof_C 	C 	0.8645	0.0218	0.59296	0.377
Mof_C 	C 	0.5996	0.5957	0.76805	-0.128
Mof_C 	C 	0.57097	0.5206	0.78223	0.082
Mof_H 	H 	0.5263	0.4971	0.7672	0.038
Mof_C 	C 	0.60777	0.4796	0.81857	-0.146
Mof_C 	C 	0.67388	0.5157	0.84119	0.078
Mof_H 	H 	0.6988	0.4887	0.8658	0.037
Mof_C 	C 	0.7026	0.5912	0.82739	-0.122
Mof_C 	C 	0.66559	0.6305	0.79074	0.073
Mof_H 	H 	0.6854	0.6813	0.7811	0.043
Mof_C 	C 	0.5591	0.6396	0.72901	0.37
Mof_C 	C 	0.5775	0.3973	0.83342	0.419
Mof_C 	C 	0.7732	0.6304	0.85213	0.351
Mof_O 	O 	0.62816	0.73552	0.56768	-0.505
Mof_O 	O 	0.63736	0.81397	0.63058	-0.509
Mof_O 	O 	0.85024	0.75944	0.44788	-0.487
Mof_O 	O 	0.96082	0.82934	0.46956	-0.491
Mof_O 	O 	0.92944	0.04736	0.57447	-0.473
Mof_O 	O 	0.82626	0.05794	0.62306	-0.31
Mof_O 	O 	0.58476	0.71258	0.72211	-0.468
Mof_O 	O 	0.50495	0.60514	0.70684	-0.337
Mof_O 	O 	0.51435	0.37005	0.81338	-0.494
Mof_O 	O 	0.61683	0.36107	0.8643	-0.496
Mof_O 	O 	0.78059	0.70737	0.84644	-0.448
Mof_O 	O 	0.81982	0.59061	0.87645	-0.328
Mof_O 	O 	0.47998	0.6973	0.63449	-0.874
Mof_H 	H 	0.4754	0.6607	0.6588	0.254
Mof_Zn	Zn	0.54049	0.65787	0.58058	1.235
Mof_Zn	Zn	0.54999	0.77515	0.66967	1.227
Mof_Zn	Zn	0.87287	0.75505	0.38191	1.232
_end
