data_functionalizedCrystal
_audit_creation_method	'EQeq! by Chris Wilmer'
_symmetry_space_group_name_H-M	'P1'
_symmetry_Int_Tables_number	1
_symmetry_cell_setting	triclinic
loop_
_symmetry_equiv_pos_as_xyz
  x,y,z
_cell_length_a	19.053
_cell_length_b	18.801
_cell_length_c	22.9434
_cell_angle_alpha	90
_cell_angle_beta	90
_cell_angle_gamma	90
loop_
_atom_site_label
_atom_site_type_symbol
_atom_site_fract_x
_atom_site_fract_y
_atom_site_fract_z
_atom_site_charge
Mof_Zn	Zn	0.35443	0.7628	0.21658	1.193
Mof_Zn	Zn	0.22837	0.73772	0.37421	1.23
Mof_Zn	Zn	0.22864	0.73381	0.12111	1.233
Mof_Zn	Zn	0.25461	0.10766	0.46896	1.195
Mof_C 	C 	0.2561	0.9102	0.2693	-0.081
Mof_C 	C 	0.2567	0.9669	0.3087	0.018
Mof_H 	H 	0.2589	0.957	0.3484	0.037
Mof_C 	C 	0.2541	0.0377	0.2907	-0.078
Mof_C 	C 	0.2509	0.0526	0.2315	-0.054
Mof_C 	C 	0.2521	0.9962	0.1922	0.008
Mof_H 	H 	0.2517	0.0064	0.1526	0.038
Mof_C 	C 	0.2538	0.9256	0.2095	-0.081
Mof_C 	C 	0.2557	0.8381	0.2979	0.359
Mof_C 	C 	0.2576	0.093	0.3386	0.411
Mof_C 	C 	0.2396	0.127	0.2067	0.391
Mof_C 	C 	0.2495	0.8694	0.1628	0.347
Mof_C 	C 	0.428	0.7285	0.0386	-0.075
Mof_C 	C 	0.4961	0.7135	0.0539	0.025
Mof_H 	H 	0.5064	0.7042	0.0928	0.034
Mof_C 	C 	0.5498	0.7116	0.0136	-0.077
Mof_C 	C 	0.5356	0.7253	0.9552	-0.041
Mof_C 	C 	0.4679	0.7391	0.9391	0.004
Mof_H 	H 	0.4579	0.7456	0.8998	0.036
Mof_C 	C 	0.4137	0.7438	0.9789	-0.067
Mof_C 	C 	0.3713	0.73	0.0837	0.397
Mof_C 	C 	0.6219	0.6953	0.0356	0.409
Mof_C 	C 	0.5943	0.7331	0.9105	0.348
Mof_C 	C 	0.3437	0.7736	0.9597	0.426
Mof_O 	O 	0.3053	0.7943	0.2922	-0.501
Mof_O 	O 	0.2062	0.8268	0.3325	-0.431
Mof_O 	O 	0.2567	0.8043	0.1802	-0.576
Mof_O 	O 	0.2371	0.8856	0.1127	-0.358
Mof_O 	O 	0.2778	0.1538	0.3245	-0.493
Mof_O 	O 	0.241	0.0736	0.3884	-0.531
Mof_O 	O 	0.2817	0.1451	0.1667	-0.464
Mof_O 	O 	0.1884	0.1614	0.2246	-0.467
Mof_O 	O 	0.3093	0.7196	0.0684	-0.476
Mof_O 	O 	0.3926	0.741	0.135	-0.499
Mof_O 	O 	0.6453	0.7354	0.0749	-0.489
Mof_O 	O 	0.6519	0.6411	0.0153	-0.512
Mof_O 	O 	0.65	0.759	0.9309	-0.455
Mof_O 	O 	0.5847	0.7164	0.8602	-0.311
Mof_O 	O 	0.3254	0.8311	0.9831	-0.52
Mof_O 	O 	0.3123	0.7422	0.9207	-0.506
Mof_Zn	Zn	0.14557	0.2372	0.71658	1.194
Mof_Zn	Zn	0.27163	0.26228	0.87421	1.231
Mof_Zn	Zn	0.27136	0.26619	0.62111	1.234
Mof_Zn	Zn	0.24539	0.89234	0.96896	1.196
Mof_C 	C 	0.2439	0.0898	0.7693	-0.081
Mof_C 	C 	0.2433	0.0331	0.8087	0.018
Mof_H 	H 	0.2411	0.043	0.8484	0.037
Mof_C 	C 	0.2459	0.9623	0.7907	-0.078
Mof_C 	C 	0.2491	0.9474	0.7315	-0.052
Mof_C 	C 	0.2479	0.0038	0.6922	0.005
Mof_H 	H 	0.2483	0.9936	0.6526	0.04
Mof_C 	C 	0.2462	0.0744	0.7095	-0.08
Mof_C 	C 	0.2443	0.1619	0.7979	0.359
Mof_C 	C 	0.2424	0.907	0.8386	0.411
Mof_C 	C 	0.2604	0.873	0.7067	0.391
Mof_C 	C 	0.2505	0.1306	0.6628	0.347
Mof_C 	C 	0.072	0.2715	0.5386	-0.075
Mof_C 	C 	0.0039	0.2865	0.5539	0.024
Mof_H 	H 	0.9936	0.2958	0.5928	0.035
Mof_C 	C 	0.9502	0.2884	0.5136	-0.076
Mof_C 	C 	0.9644	0.2747	0.4552	-0.041
Mof_C 	C 	0.0321	0.2609	0.4391	0.004
Mof_H 	H 	0.0421	0.2544	0.3998	0.036
Mof_C 	C 	0.0863	0.2562	0.4789	-0.067
Mof_C 	C 	0.1287	0.27	0.5837	0.397
Mof_C 	C 	0.8781	0.3047	0.5356	0.408
Mof_C 	C 	0.9057	0.2669	0.4105	0.348
Mof_C 	C 	0.1563	0.2264	0.4597	0.426
Mof_O 	O 	0.1947	0.2057	0.7922	-0.502
Mof_O 	O 	0.2938	0.1732	0.8325	-0.431
Mof_O 	O 	0.2433	0.1957	0.6802	-0.576
Mof_O 	O 	0.2629	0.1144	0.6127	-0.359
Mof_O 	O 	0.2222	0.8462	0.8245	-0.493
Mof_O 	O 	0.259	0.9264	0.8884	-0.53
Mof_O 	O 	0.2183	0.8549	0.6667	-0.464
Mof_O 	O 	0.3116	0.8386	0.7246	-0.467
Mof_O 	O 	0.1907	0.2804	0.5684	-0.477
Mof_O 	O 	0.1074	0.259	0.635	-0.499
Mof_O 	O 	0.8547	0.2646	0.5749	-0.489
Mof_O 	O 	0.8481	0.3589	0.5153	-0.512
Mof_O 	O 	0.85	0.241	0.4309	-0.455
Mof_O 	O 	0.9153	0.2836	0.3602	-0.311
Mof_O 	O 	0.1746	0.1689	0.4831	-0.52
Mof_O 	O 	0.1877	0.2578	0.4207	-0.506
Mof_Zn	Zn	0.64557	0.2628	0.28342	1.194
Mof_Zn	Zn	0.77163	0.23772	0.12579	1.231
Mof_Zn	Zn	0.77136	0.23381	0.37889	1.234
Mof_Zn	Zn	0.74539	0.60766	0.03104	1.196
Mof_C 	C 	0.7439	0.4102	0.2307	-0.081
Mof_C 	C 	0.7433	0.4669	0.1913	0.018
Mof_H 	H 	0.7411	0.457	0.1516	0.037
Mof_C 	C 	0.7459	0.5377	0.2093	-0.078
Mof_C 	C 	0.7491	0.5526	0.2685	-0.053
Mof_C 	C 	0.7479	0.4962	0.3078	0.006
Mof_H 	H 	0.7483	0.5064	0.3474	0.039
Mof_C 	C 	0.7462	0.4256	0.2905	-0.08
Mof_C 	C 	0.7443	0.3381	0.2021	0.359
Mof_C 	C 	0.7424	0.593	0.1614	0.411
Mof_C 	C 	0.7604	0.627	0.2933	0.391
Mof_C 	C 	0.7505	0.3694	0.3372	0.347
Mof_C 	C 	0.572	0.2285	0.4614	-0.075
Mof_C 	C 	0.5039	0.2135	0.4461	0.026
Mof_H 	H 	0.4936	0.2042	0.4072	0.034
Mof_C 	C 	0.4502	0.2116	0.4864	-0.077
Mof_C 	C 	0.4644	0.2253	0.5448	-0.041
Mof_C 	C 	0.5321	0.2391	0.5609	0.004
Mof_H 	H 	0.5421	0.2456	0.6002	0.036
Mof_C 	C 	0.5863	0.2438	0.5211	-0.067
Mof_C 	C 	0.6287	0.23	0.4163	0.397
Mof_C 	C 	0.3781	0.1953	0.4644	0.409
Mof_C 	C 	0.4057	0.2331	0.5895	0.348
Mof_C 	C 	0.6563	0.2736	0.5403	0.426
Mof_O 	O 	0.6947	0.2943	0.2078	-0.502
Mof_O 	O 	0.7938	0.3268	0.1675	-0.431
Mof_O 	O 	0.7433	0.3043	0.3198	-0.576
Mof_O 	O 	0.7629	0.3856	0.3873	-0.359
Mof_O 	O 	0.7222	0.6538	0.1755	-0.493
Mof_O 	O 	0.759	0.5736	0.1116	-0.53
Mof_O 	O 	0.7183	0.6451	0.3333	-0.464
Mof_O 	O 	0.8116	0.6614	0.2754	-0.467
Mof_O 	O 	0.6907	0.2196	0.4316	-0.477
Mof_O 	O 	0.6074	0.241	0.365	-0.499
Mof_O 	O 	0.3547	0.2354	0.4251	-0.489
Mof_O 	O 	0.3481	0.1411	0.4847	-0.512
Mof_O 	O 	0.35	0.259	0.5691	-0.455
Mof_O 	O 	0.4153	0.2164	0.6398	-0.311
Mof_O 	O 	0.6746	0.3311	0.5169	-0.52
Mof_O 	O 	0.6877	0.2422	0.5793	-0.506
Mof_Zn	Zn	0.85443	0.7372	0.78342	1.194
Mof_Zn	Zn	0.72837	0.76228	0.62579	1.231
Mof_Zn	Zn	0.72864	0.76619	0.87889	1.234
Mof_Zn	Zn	0.75461	0.39234	0.53104	1.196
Mof_C 	C 	0.7561	0.5898	0.7307	-0.081
Mof_C 	C 	0.7567	0.5331	0.6913	0.018
Mof_H 	H 	0.7589	0.543	0.6516	0.037
Mof_C 	C 	0.7541	0.4623	0.7093	-0.078
Mof_C 	C 	0.7509	0.4474	0.7685	-0.053
Mof_C 	C 	0.7521	0.5038	0.8078	0.006
Mof_H 	H 	0.7517	0.4936	0.8474	0.039
Mof_C 	C 	0.7538	0.5744	0.7905	-0.08
Mof_C 	C 	0.7557	0.6619	0.7021	0.359
Mof_C 	C 	0.7576	0.407	0.6614	0.411
Mof_C 	C 	0.7396	0.373	0.7933	0.391
Mof_C 	C 	0.7495	0.6306	0.8372	0.347
Mof_C 	C 	0.928	0.7715	0.9614	-0.076
Mof_C 	C 	0.9961	0.7865	0.9461	0.028
Mof_H 	H 	0.0064	0.7958	0.9072	0.033
Mof_C 	C 	0.0498	0.7884	0.9864	-0.08
Mof_C 	C 	0.0356	0.7747	0.0448	-0.038
Mof_C 	C 	0.9679	0.7609	0.0609	0.001
Mof_H 	H 	0.9579	0.7544	0.1002	0.037
Mof_C 	C 	0.9137	0.7562	0.0211	-0.066
Mof_C 	C 	0.8713	0.77	0.9163	0.397
Mof_C 	C 	0.1219	0.8047	0.9644	0.41
Mof_C 	C 	0.0943	0.7669	0.0895	0.347
Mof_C 	C 	0.8437	0.7264	0.0403	0.426
Mof_O 	O 	0.8053	0.7057	0.7078	-0.502
Mof_O 	O 	0.7062	0.6732	0.6675	-0.431
Mof_O 	O 	0.7567	0.6957	0.8198	-0.576
Mof_O 	O 	0.7371	0.6144	0.8873	-0.358
Mof_O 	O 	0.7778	0.3462	0.6755	-0.493
Mof_O 	O 	0.741	0.4264	0.6116	-0.53
Mof_O 	O 	0.7817	0.3549	0.8333	-0.464
Mof_O 	O 	0.6884	0.3386	0.7754	-0.467
Mof_O 	O 	0.8093	0.7804	0.9316	-0.477
Mof_O 	O 	0.8926	0.759	0.865	-0.499
Mof_O 	O 	0.1453	0.7646	0.9251	-0.489
Mof_O 	O 	0.1519	0.8589	0.9847	-0.512
Mof_O 	O 	0.15	0.741	0.0691	-0.454
Mof_O 	O 	0.0847	0.7836	0.1398	-0.31
Mof_O 	O 	0.8254	0.6689	0.0169	-0.52
Mof_O 	O 	0.8123	0.7578	0.0793	-0.506
Mof_Zn	Zn	0.64557	0.2372	0.78342	1.194
Mof_Zn	Zn	0.77163	0.26228	0.62579	1.231
Mof_Zn	Zn	0.77136	0.26619	0.87889	1.234
Mof_Zn	Zn	0.74539	0.89234	0.53104	1.196
Mof_C 	C 	0.7439	0.0898	0.7307	-0.081
Mof_C 	C 	0.7433	0.0331	0.6913	0.018
Mof_H 	H 	0.7411	0.043	0.6516	0.037
Mof_C 	C 	0.7459	0.9623	0.7093	-0.078
Mof_C 	C 	0.7491	0.9474	0.7685	-0.054
Mof_C 	C 	0.7479	0.0038	0.8078	0.008
Mof_H 	H 	0.7483	0.9936	0.8474	0.038
Mof_C 	C 	0.7462	0.0744	0.7905	-0.081
Mof_C 	C 	0.7443	0.1619	0.7021	0.359
Mof_C 	C 	0.7424	0.907	0.6614	0.411
Mof_C 	C 	0.7604	0.873	0.7933	0.391
Mof_C 	C 	0.7505	0.1306	0.8372	0.347
Mof_C 	C 	0.572	0.2715	0.9614	-0.075
Mof_C 	C 	0.5039	0.2865	0.9461	0.025
Mof_H 	H 	0.4936	0.2958	0.9072	0.034
Mof_C 	C 	0.4502	0.2884	0.9864	-0.077
Mof_C 	C 	0.4644	0.2747	0.0448	-0.041
Mof_C 	C 	0.5321	0.2609	0.0609	0.004
Mof_H 	H 	0.5421	0.2544	0.1002	0.036
Mof_C 	C 	0.5863	0.2562	0.0211	-0.067
Mof_C 	C 	0.6287	0.27	0.9163	0.397
Mof_C 	C 	0.3781	0.3047	0.9644	0.409
Mof_C 	C 	0.4057	0.2669	0.0895	0.348
Mof_C 	C 	0.6563	0.2264	0.0403	0.426
Mof_O 	O 	0.6947	0.2057	0.7078	-0.501
Mof_O 	O 	0.7938	0.1732	0.6675	-0.431
Mof_O 	O 	0.7433	0.1957	0.8198	-0.576
Mof_O 	O 	0.7629	0.1144	0.8873	-0.358
Mof_O 	O 	0.7222	0.8462	0.6755	-0.493
Mof_O 	O 	0.759	0.9264	0.6116	-0.531
Mof_O 	O 	0.7183	0.8549	0.8333	-0.464
Mof_O 	O 	0.8116	0.8386	0.7754	-0.467
Mof_O 	O 	0.6907	0.2804	0.9316	-0.476
Mof_O 	O 	0.6074	0.259	0.865	-0.499
Mof_O 	O 	0.3547	0.2646	0.9251	-0.489
Mof_O 	O 	0.3481	0.3589	0.9847	-0.512
Mof_O 	O 	0.35	0.241	0.0691	-0.455
Mof_O 	O 	0.4153	0.2836	0.1398	-0.311
Mof_O 	O 	0.6746	0.1689	0.0169	-0.52
Mof_O 	O 	0.6877	0.2578	0.0793	-0.506
Mof_Zn	Zn	0.85443	0.7628	0.28342	1.194
Mof_Zn	Zn	0.72837	0.73772	0.12579	1.231
Mof_Zn	Zn	0.72864	0.73381	0.37889	1.234
Mof_Zn	Zn	0.75461	0.10766	0.03104	1.196
Mof_C 	C 	0.7561	0.9102	0.2307	-0.081
Mof_C 	C 	0.7567	0.9669	0.1913	0.018
Mof_H 	H 	0.7589	0.957	0.1516	0.037
Mof_C 	C 	0.7541	0.0377	0.2093	-0.078
Mof_C 	C 	0.7509	0.0526	0.2685	-0.052
Mof_C 	C 	0.7521	0.9962	0.3078	0.005
Mof_H 	H 	0.7517	0.0064	0.3474	0.04
Mof_C 	C 	0.7538	0.9256	0.2905	-0.08
Mof_C 	C 	0.7557	0.8381	0.2021	0.359
Mof_C 	C 	0.7576	0.093	0.1614	0.411
Mof_C 	C 	0.7396	0.127	0.2933	0.391
Mof_C 	C 	0.7495	0.8694	0.3372	0.347
Mof_C 	C 	0.928	0.7285	0.4614	-0.075
Mof_C 	C 	0.9961	0.7135	0.4461	0.024
Mof_H 	H 	0.0064	0.7042	0.4072	0.035
Mof_C 	C 	0.0498	0.7116	0.4864	-0.076
Mof_C 	C 	0.0356	0.7253	0.5448	-0.041
Mof_C 	C 	0.9679	0.7391	0.5609	0.004
Mof_H 	H 	0.9579	0.7456	0.6002	0.036
Mof_C 	C 	0.9137	0.7438	0.5211	-0.067
Mof_C 	C 	0.8713	0.73	0.4163	0.397
Mof_C 	C 	0.1219	0.6953	0.4644	0.408
Mof_C 	C 	0.0943	0.7331	0.5895	0.348
Mof_C 	C 	0.8437	0.7736	0.5403	0.426
Mof_O 	O 	0.8053	0.7943	0.2078	-0.502
Mof_O 	O 	0.7062	0.8268	0.1675	-0.431
Mof_O 	O 	0.7567	0.8043	0.3198	-0.576
Mof_O 	O 	0.7371	0.8856	0.3873	-0.359
Mof_O 	O 	0.7778	0.1538	0.1755	-0.493
Mof_O 	O 	0.741	0.0736	0.1116	-0.53
Mof_O 	O 	0.7817	0.1451	0.3333	-0.464
Mof_O 	O 	0.6884	0.1614	0.2754	-0.467
Mof_O 	O 	0.8093	0.7196	0.4316	-0.477
Mof_O 	O 	0.8926	0.741	0.365	-0.499
Mof_O 	O 	0.1453	0.7354	0.4251	-0.489
Mof_O 	O 	0.1519	0.6411	0.4847	-0.512
Mof_O 	O 	0.15	0.759	0.5691	-0.455
Mof_O 	O 	0.0847	0.7164	0.6398	-0.311
Mof_O 	O 	0.8254	0.8311	0.5169	-0.52
Mof_O 	O 	0.8123	0.7422	0.5793	-0.506
Mof_Zn	Zn	0.35443	0.7372	0.71658	1.194
Mof_Zn	Zn	0.22837	0.76228	0.87421	1.231
Mof_Zn	Zn	0.22864	0.76619	0.62111	1.234
Mof_Zn	Zn	0.25461	0.39234	0.96896	1.196
Mof_C 	C 	0.2561	0.5898	0.7693	-0.081
Mof_C 	C 	0.2567	0.5331	0.8087	0.018
Mof_H 	H 	0.2589	0.543	0.8484	0.037
Mof_C 	C 	0.2541	0.4623	0.7907	-0.078
Mof_C 	C 	0.2509	0.4474	0.7315	-0.053
Mof_C 	C 	0.2521	0.5038	0.6922	0.006
Mof_H 	H 	0.2517	0.4936	0.6526	0.039
Mof_C 	C 	0.2538	0.5744	0.7095	-0.08
Mof_C 	C 	0.2557	0.6619	0.7979	0.359
Mof_C 	C 	0.2576	0.407	0.8386	0.411
Mof_C 	C 	0.2396	0.373	0.7067	0.391
Mof_C 	C 	0.2495	0.6306	0.6628	0.347
Mof_C 	C 	0.428	0.7715	0.5386	-0.075
Mof_C 	C 	0.4961	0.7865	0.5539	0.026
Mof_H 	H 	0.5064	0.7958	0.5928	0.034
Mof_C 	C 	0.5498	0.7884	0.5136	-0.077
Mof_C 	C 	0.5356	0.7747	0.4552	-0.041
Mof_C 	C 	0.4679	0.7609	0.4391	0.004
Mof_H 	H 	0.4579	0.7544	0.3998	0.036
Mof_C 	C 	0.4137	0.7562	0.4789	-0.067
Mof_C 	C 	0.3713	0.77	0.5837	0.397
Mof_C 	C 	0.6219	0.8047	0.5356	0.409
Mof_C 	C 	0.5943	0.7669	0.4105	0.348
Mof_C 	C 	0.3437	0.7264	0.4597	0.426
Mof_O 	O 	0.3053	0.7057	0.7922	-0.502
Mof_O 	O 	0.2062	0.6732	0.8325	-0.431
Mof_O 	O 	0.2567	0.6957	0.6802	-0.576
Mof_O 	O 	0.2371	0.6144	0.6127	-0.359
Mof_O 	O 	0.2778	0.3462	0.8245	-0.493
Mof_O 	O 	0.241	0.4264	0.8884	-0.53
Mof_O 	O 	0.2817	0.3549	0.6667	-0.464
Mof_O 	O 	0.1884	0.3386	0.7246	-0.467
Mof_O 	O 	0.3093	0.7804	0.5684	-0.477
Mof_O 	O 	0.3926	0.759	0.635	-0.499
Mof_O 	O 	0.6453	0.7646	0.5749	-0.489
Mof_O 	O 	0.6519	0.8589	0.5153	-0.512
Mof_O 	O 	0.65	0.741	0.4309	-0.455
Mof_O 	O 	0.5847	0.7836	0.3602	-0.311
Mof_O 	O 	0.3254	0.6689	0.4831	-0.52
Mof_O 	O 	0.3123	0.7578	0.4207	-0.506
Mof_Zn	Zn	0.14557	0.2628	0.21658	1.194
Mof_Zn	Zn	0.27163	0.23772	0.37421	1.231
Mof_Zn	Zn	0.27136	0.23381	0.12111	1.234
Mof_Zn	Zn	0.24539	0.60766	0.46896	1.196
Mof_C 	C 	0.2439	0.4102	0.2693	-0.081
Mof_C 	C 	0.2433	0.4669	0.3087	0.018
Mof_H 	H 	0.2411	0.457	0.3484	0.037
Mof_C 	C 	0.2459	0.5377	0.2907	-0.078
Mof_C 	C 	0.2491	0.5526	0.2315	-0.053
Mof_C 	C 	0.2479	0.4962	0.1922	0.006
Mof_H 	H 	0.2483	0.5064	0.1526	0.039
Mof_C 	C 	0.2462	0.4256	0.2095	-0.08
Mof_C 	C 	0.2443	0.3381	0.2979	0.359
Mof_C 	C 	0.2424	0.593	0.3386	0.411
Mof_C 	C 	0.2604	0.627	0.2067	0.391
Mof_C 	C 	0.2505	0.3694	0.1628	0.347
Mof_C 	C 	0.072	0.2285	0.0386	-0.076
Mof_C 	C 	0.0039	0.2135	0.0539	0.028
Mof_H 	H 	0.9936	0.2042	0.0928	0.033
Mof_C 	C 	0.9502	0.2116	0.0136	-0.08
Mof_C 	C 	0.9644	0.2253	0.9552	-0.038
Mof_C 	C 	0.0321	0.2391	0.9391	0.001
Mof_H 	H 	0.0421	0.2456	0.8998	0.037
Mof_C 	C 	0.0863	0.2438	0.9789	-0.066
Mof_C 	C 	0.1287	0.23	0.0837	0.397
Mof_C 	C 	0.8781	0.1953	0.0356	0.41
Mof_C 	C 	0.9057	0.2331	0.9105	0.347
Mof_C 	C 	0.1563	0.2736	0.9597	0.426
Mof_O 	O 	0.1947	0.2943	0.2922	-0.502
Mof_O 	O 	0.2938	0.3268	0.3325	-0.431
Mof_O 	O 	0.2433	0.3043	0.1802	-0.576
Mof_O 	O 	0.2629	0.3856	0.1127	-0.358
Mof_O 	O 	0.2222	0.6538	0.3245	-0.493
Mof_O 	O 	0.259	0.5736	0.3884	-0.53
Mof_O 	O 	0.2183	0.6451	0.1667	-0.464
Mof_O 	O 	0.3116	0.6614	0.2246	-0.467
Mof_O 	O 	0.1907	0.2196	0.0684	-0.477
Mof_O 	O 	0.1074	0.241	0.135	-0.499
Mof_O 	O 	0.8547	0.2354	0.0749	-0.489
Mof_O 	O 	0.8481	0.1411	0.0153	-0.512
Mof_O 	O 	0.85	0.259	0.9309	-0.454
Mof_O 	O 	0.9153	0.2164	0.8602	-0.31
Mof_O 	O 	0.1746	0.3311	0.9831	-0.52
Mof_O 	O 	0.1877	0.2422	0.9207	-0.506
_end
