data_functionalizedCrystal
_audit_creation_method	'EQeq! by Chris Wilmer'
_symmetry_space_group_name_H-M	'P1'
_symmetry_Int_Tables_number	1
_symmetry_cell_setting	triclinic
loop_
_symmetry_equiv_pos_as_xyz
  x,y,z
_cell_length_a	27.1683
_cell_length_b	15.3846
_cell_length_c	19.2713
_cell_angle_alpha	90
_cell_angle_beta	98.162
_cell_angle_gamma	90
loop_
_atom_site_label
_atom_site_type_symbol
_atom_site_fract_x
_atom_site_fract_y
_atom_site_fract_z
_atom_site_charge
Mof_Br	Br	0.18388	0.64376	0.42336	-0.344
Mof_C 	C 	0.53018	0.8135	0.3163	-0.063
Mof_C 	C 	0.50538	0.7491	0.3487	0.139
Mof_C 	C 	0.53214	0.7008	0.4027	-0.066
Mof_C 	C 	0.58149	0.7226	0.4275	0.056
Mof_H 	H 	0.5993	0.6895	0.4645	-0.014
Mof_C 	C 	0.60506	0.7921	0.3991	-0.218
Mof_C 	C 	0.57943	0.8344	0.3425	0.059
Mof_H 	H 	0.5956	0.8792	0.3204	-0.001
Mof_O 	O 	0.45509	0.7359	0.3299	-0.194
Mof_C 	C 	0.42888	0.7922	0.3731	-0.022
Mof_H 	H 	0.436	0.8538	0.3635	0.039
Mof_H 	H 	0.4404	0.7807	0.4233	0.039
Mof_C 	C 	0.37373	0.7756	0.357	0.019
Mof_C 	C 	0.34609	0.7747	0.4116	-0.022
Mof_H 	H 	0.363	0.7806	0.458	0.045
Mof_N 	N 	0.29627	0.7657	0.4027	-0.125
Mof_C 	C 	0.2733	0.7568	0.3376	0.011
Mof_H 	H 	0.2382	0.7503	0.3303	0.026
Mof_C 	C 	0.2982	0.7566	0.2802	-0.074
Mof_H 	H 	0.2805	0.7508	0.2343	0.018
Mof_C 	C 	0.3497	0.7648	0.2904	-0.067
Mof_H 	H 	0.3678	0.7629	0.2517	0.054
Mof_C 	C 	0.6581	0.8188	0.4305	0.584
Mof_C 	C 	0.6933	0.743	0.4247	-0.852
Mof_H 	H 	0.7275	0.7613	0.4413	0.238
Mof_H 	H 	0.6908	0.7245	0.3756	0.259
Mof_H 	H 	0.6844	0.6945	0.4534	0.253
Mof_C 	C 	0.6768	0.8973	0.3919	-0.867
Mof_H 	H 	0.654	0.9463	0.3937	0.282
Mof_H 	H 	0.6782	0.8817	0.343	0.262
Mof_H 	H 	0.71	0.9137	0.4147	0.254
Mof_C 	C 	0.6586	0.8439	0.5078	-0.851
Mof_H 	H 	0.6437	0.797	0.5322	0.253
Mof_H 	H 	0.6395	0.8975	0.5106	0.267
Mof_H 	H 	0.693	0.8531	0.5298	0.25
Mof_S 	S 	0.50367	0.62185	0.45109	0.018
Mof_C 	C 	0.4713	0.5506	0.3877	-0.086
Mof_C 	C 	0.49685	0.4967	0.3474	0.158
Mof_C 	C 	0.46976	0.4367	0.3021	-0.089
Mof_C 	C 	0.4191	0.4283	0.3012	0.123
Mof_H 	H 	0.4013	0.3875	0.2702	-0.024
Mof_C 	C 	0.39324	0.4782	0.3446	-0.33
Mof_C 	C 	0.42005	0.5412	0.3857	0.122
Mof_H 	H 	0.403	0.579	0.4132	-0.019
Mof_O 	O 	0.54803	0.5009	0.3523	-0.202
Mof_C 	C 	0.57046	0.4376	0.4017	-0.014
Mof_H 	H 	0.5594	0.3787	0.3859	0.039
Mof_H 	H 	0.5598	0.4481	0.448	0.035
Mof_C 	C 	0.6261	0.4431	0.4082	0.01
Mof_C 	C 	0.65373	0.3726	0.4343	-0.023
Mof_H 	H 	0.6365	0.3207	0.4425	0.044
Mof_N 	N 	0.70376	0.3724	0.4491	-0.128
Mof_C 	C 	0.72732	0.4449	0.434	0.014
Mof_H 	H 	0.7626	0.4466	0.4442	0.023
Mof_C 	C 	0.7029	0.5168	0.4045	-0.082
Mof_H 	H 	0.7211	0.566	0.3926	0.023
Mof_C 	C 	0.6513	0.5168	0.3922	-0.07
Mof_H 	H 	0.6336	0.5666	0.3732	0.055
Mof_C 	C 	0.3379	0.4624	0.3481	0.868
Mof_C 	C 	0.335	0.3907	0.4025	-1.025
Mof_H 	H 	0.3534	0.4087	0.4476	0.309
Mof_H 	H 	0.3495	0.3371	0.3868	0.299
Mof_H 	H 	0.3001	0.3804	0.4078	0.291
Mof_C 	C 	0.3115	0.4254	0.2832	-1.201
Mof_H 	H 	0.3255	0.3682	0.275	0.365
Mof_H 	H 	0.3152	0.464	0.2439	0.374
Mof_H 	H 	0.2761	0.4192	0.2875	0.353
Mof_C 	C 	0.3121	0.5377	0.376	-1.193
Mof_H 	H 	0.3201	0.5911	0.3521	0.376
Mof_H 	H 	0.3231	0.5435	0.4264	0.374
Mof_H 	H 	0.2761	0.5281	0.3677	0.364
Mof_Br	Br	0.68388	0.14376	0.42336	-0.343
Mof_C 	C 	0.03018	0.3135	0.3163	-0.062
Mof_C 	C 	0.00538	0.2491	0.3487	0.139
Mof_C 	C 	0.03214	0.2008	0.4027	-0.064
Mof_C 	C 	0.08149	0.2226	0.4275	0.057
Mof_H 	H 	0.0993	0.1895	0.4645	-0.013
Mof_C 	C 	0.10506	0.2921	0.3991	-0.216
Mof_C 	C 	0.07943	0.3344	0.3425	0.059
Mof_H 	H 	0.0956	0.3792	0.3204	-0
Mof_O 	O 	0.95509	0.2359	0.3299	-0.193
Mof_C 	C 	0.92888	0.2922	0.3731	-0.023
Mof_H 	H 	0.936	0.3538	0.3635	0.039
Mof_H 	H 	0.9404	0.2807	0.4233	0.039
Mof_C 	C 	0.87373	0.2756	0.357	0.019
Mof_C 	C 	0.84609	0.2747	0.4116	-0.022
Mof_H 	H 	0.863	0.2806	0.458	0.045
Mof_N 	N 	0.79627	0.2657	0.4027	-0.125
Mof_C 	C 	0.7733	0.2568	0.3376	0.011
Mof_H 	H 	0.7382	0.2503	0.3303	0.026
Mof_C 	C 	0.7982	0.2566	0.2802	-0.074
Mof_H 	H 	0.7805	0.2508	0.2343	0.018
Mof_C 	C 	0.8497	0.2648	0.2904	-0.068
Mof_H 	H 	0.8678	0.2629	0.2517	0.054
Mof_C 	C 	0.1581	0.3188	0.4305	0.584
Mof_C 	C 	0.1933	0.243	0.4247	-0.852
Mof_H 	H 	0.2275	0.2613	0.4413	0.238
Mof_H 	H 	0.1908	0.2245	0.3756	0.259
Mof_H 	H 	0.1844	0.1945	0.4534	0.253
Mof_C 	C 	0.1768	0.3973	0.3919	-0.866
Mof_H 	H 	0.154	0.4463	0.3937	0.282
Mof_H 	H 	0.1782	0.3817	0.343	0.262
Mof_H 	H 	0.21	0.4137	0.4147	0.254
Mof_C 	C 	0.1586	0.3439	0.5078	-0.851
Mof_H 	H 	0.1437	0.297	0.5322	0.252
Mof_H 	H 	0.1395	0.3975	0.5106	0.267
Mof_H 	H 	0.193	0.3531	0.5298	0.25
Mof_S 	S 	0.00367	0.12185	0.45109	0.016
Mof_C 	C 	0.9713	0.0506	0.3877	-0.084
Mof_C 	C 	0.99685	0.9967	0.3474	0.157
Mof_C 	C 	0.96976	0.9367	0.3021	-0.087
Mof_C 	C 	0.9191	0.9283	0.3012	0.122
Mof_H 	H 	0.9013	0.8875	0.2702	-0.024
Mof_C 	C 	0.89324	0.9782	0.3446	-0.329
Mof_C 	C 	0.92005	0.0412	0.3857	0.121
Mof_H 	H 	0.903	0.079	0.4132	-0.019
Mof_O 	O 	0.04803	0.0009	0.3523	-0.201
Mof_C 	C 	0.07046	0.9376	0.4017	-0.014
Mof_H 	H 	0.0594	0.8787	0.3859	0.038
Mof_H 	H 	0.0598	0.9481	0.448	0.035
Mof_C 	C 	0.1261	0.9431	0.4082	0.01
Mof_C 	C 	0.15373	0.8726	0.4343	-0.023
Mof_H 	H 	0.1365	0.8207	0.4425	0.044
Mof_N 	N 	0.20376	0.8724	0.4491	-0.128
Mof_C 	C 	0.22732	0.9449	0.434	0.014
Mof_H 	H 	0.2626	0.9466	0.4442	0.023
Mof_C 	C 	0.2029	0.0168	0.4045	-0.082
Mof_H 	H 	0.2211	0.066	0.3926	0.023
Mof_C 	C 	0.1513	0.0168	0.3922	-0.07
Mof_H 	H 	0.1336	0.0666	0.3732	0.055
Mof_C 	C 	0.8379	0.9624	0.3481	0.866
Mof_C 	C 	0.835	0.8907	0.4025	-1.023
Mof_H 	H 	0.8534	0.9087	0.4476	0.308
Mof_H 	H 	0.8495	0.8371	0.3868	0.299
Mof_H 	H 	0.8001	0.8804	0.4078	0.29
Mof_C 	C 	0.8115	0.9254	0.2832	-1.199
Mof_H 	H 	0.8255	0.8682	0.275	0.365
Mof_H 	H 	0.8152	0.964	0.2439	0.373
Mof_H 	H 	0.7761	0.9192	0.2875	0.353
Mof_C 	C 	0.8121	0.0377	0.376	-1.191
Mof_H 	H 	0.8201	0.0911	0.3521	0.376
Mof_H 	H 	0.8231	0.0435	0.4264	0.373
Mof_H 	H 	0.7761	0.0281	0.3677	0.363
Mof_Br	Br	0.81612	0.64376	0.07664	-0.349
Mof_C 	C 	0.46982	0.8135	0.1837	-0.06
Mof_C 	C 	0.49462	0.7491	0.1513	0.138
Mof_C 	C 	0.46786	0.7008	0.0973	-0.062
Mof_C 	C 	0.41851	0.7226	0.0725	0.05
Mof_H 	H 	0.4007	0.6895	0.0355	-0.014
Mof_C 	C 	0.39494	0.7921	0.1009	-0.207
Mof_C 	C 	0.42057	0.8344	0.1575	0.053
Mof_H 	H 	0.4044	0.8792	0.1796	0.002
Mof_O 	O 	0.54491	0.7359	0.1701	-0.194
Mof_C 	C 	0.57112	0.7922	0.1269	-0.02
Mof_H 	H 	0.564	0.8538	0.1365	0.037
Mof_H 	H 	0.5596	0.7807	0.0767	0.036
Mof_C 	C 	0.62627	0.7756	0.143	0.017
Mof_C 	C 	0.65391	0.7747	0.0884	-0.021
Mof_H 	H 	0.637	0.7806	0.042	0.04
Mof_N 	N 	0.70373	0.7657	0.0973	-0.126
Mof_C 	C 	0.7267	0.7568	0.1624	0.012
Mof_H 	H 	0.7618	0.7503	0.1697	0.026
Mof_C 	C 	0.7018	0.7566	0.2198	-0.075
Mof_H 	H 	0.7195	0.7508	0.2657	0.018
Mof_C 	C 	0.6503	0.7648	0.2096	-0.066
Mof_H 	H 	0.6322	0.7629	0.2483	0.053
Mof_C 	C 	0.3419	0.8188	0.0695	0.554
Mof_C 	C 	0.3067	0.743	0.0753	-0.824
Mof_H 	H 	0.2725	0.7613	0.0587	0.226
Mof_H 	H 	0.3092	0.7245	0.1244	0.251
Mof_H 	H 	0.3156	0.6945	0.0466	0.241
Mof_C 	C 	0.3232	0.8973	0.1081	-0.842
Mof_H 	H 	0.346	0.9463	0.1063	0.272
Mof_H 	H 	0.3218	0.8817	0.157	0.255
Mof_H 	H 	0.29	0.9137	0.0853	0.244
Mof_C 	C 	0.3414	0.8439	0.9922	-0.813
Mof_H 	H 	0.3563	0.797	0.9678	0.246
Mof_H 	H 	0.3605	0.8975	0.9894	0.261
Mof_H 	H 	0.307	0.8531	0.9702	0.243
Mof_S 	S 	0.49633	0.62185	0.04891	0.009
Mof_C 	C 	0.5287	0.5506	0.1123	-0.084
Mof_C 	C 	0.50315	0.4967	0.1526	0.157
Mof_C 	C 	0.53024	0.4367	0.1979	-0.088
Mof_C 	C 	0.5809	0.4283	0.1988	0.121
Mof_H 	H 	0.5987	0.3875	0.2298	-0.023
Mof_C 	C 	0.60676	0.4782	0.1554	-0.327
Mof_C 	C 	0.57995	0.5412	0.1143	0.119
Mof_H 	H 	0.597	0.579	0.0868	-0.02
Mof_O 	O 	0.45197	0.5009	0.1477	-0.202
Mof_C 	C 	0.42954	0.4376	0.0983	-0.011
Mof_H 	H 	0.4406	0.3787	0.1141	0.037
Mof_H 	H 	0.4402	0.4481	0.052	0.03
Mof_C 	C 	0.3739	0.4431	0.0918	0.007
Mof_C 	C 	0.34627	0.3726	0.0657	-0.024
Mof_H 	H 	0.3635	0.3207	0.0575	0.042
Mof_N 	N 	0.29624	0.3724	0.0509	-0.13
Mof_C 	C 	0.27268	0.4449	0.066	0.013
Mof_H 	H 	0.2374	0.4466	0.0558	0.021
Mof_C 	C 	0.2971	0.5168	0.0955	-0.084
Mof_H 	H 	0.2789	0.566	0.1074	0.022
Mof_C 	C 	0.3487	0.5168	0.1078	-0.07
Mof_H 	H 	0.3664	0.5666	0.1268	0.055
Mof_C 	C 	0.6621	0.4624	0.1519	0.86
Mof_C 	C 	0.665	0.3907	0.0975	-1.013
Mof_H 	H 	0.6466	0.4087	0.0524	0.301
Mof_H 	H 	0.6505	0.3371	0.1132	0.295
Mof_H 	H 	0.6999	0.3804	0.0922	0.286
Mof_C 	C 	0.6885	0.4254	0.2168	-1.194
Mof_H 	H 	0.6745	0.3682	0.225	0.363
Mof_H 	H 	0.6848	0.464	0.2561	0.372
Mof_H 	H 	0.7239	0.4192	0.2125	0.351
Mof_C 	C 	0.6879	0.5377	0.124	-1.183
Mof_H 	H 	0.6799	0.5911	0.1479	0.373
Mof_H 	H 	0.6769	0.5435	0.0736	0.368
Mof_H 	H 	0.7239	0.5281	0.1323	0.36
Mof_Br	Br	0.31612	0.14376	0.07664	-0.347
Mof_C 	C 	0.96982	0.3135	0.1837	-0.06
Mof_C 	C 	0.99462	0.2491	0.1513	0.139
Mof_C 	C 	0.96786	0.2008	0.0973	-0.062
Mof_C 	C 	0.91851	0.2226	0.0725	0.052
Mof_H 	H 	0.9007	0.1895	0.0355	-0.014
Mof_C 	C 	0.89494	0.2921	0.1009	-0.209
Mof_C 	C 	0.92057	0.3344	0.1575	0.054
Mof_H 	H 	0.9044	0.3792	0.1796	0.002
Mof_O 	O 	0.04491	0.2359	0.1701	-0.194
Mof_C 	C 	0.07112	0.2922	0.1269	-0.02
Mof_H 	H 	0.064	0.3538	0.1365	0.037
Mof_H 	H 	0.0596	0.2807	0.0767	0.036
Mof_C 	C 	0.12627	0.2756	0.143	0.017
Mof_C 	C 	0.15391	0.2747	0.0884	-0.021
Mof_H 	H 	0.137	0.2806	0.042	0.041
Mof_N 	N 	0.20373	0.2657	0.0973	-0.126
Mof_C 	C 	0.2267	0.2568	0.1624	0.012
Mof_H 	H 	0.2618	0.2503	0.1697	0.026
Mof_C 	C 	0.2018	0.2566	0.2198	-0.075
Mof_H 	H 	0.2195	0.2508	0.2657	0.018
Mof_C 	C 	0.1503	0.2648	0.2096	-0.066
Mof_H 	H 	0.1322	0.2629	0.2483	0.053
Mof_C 	C 	0.8419	0.3188	0.0695	0.559
Mof_C 	C 	0.8067	0.243	0.0753	-0.829
Mof_H 	H 	0.7725	0.2613	0.0587	0.228
Mof_H 	H 	0.8092	0.2245	0.1244	0.253
Mof_H 	H 	0.8156	0.1945	0.0466	0.243
Mof_C 	C 	0.8232	0.3973	0.1081	-0.846
Mof_H 	H 	0.846	0.4463	0.1063	0.274
Mof_H 	H 	0.8218	0.3817	0.157	0.257
Mof_H 	H 	0.79	0.4137	0.0853	0.246
Mof_C 	C 	0.8414	0.3439	0.9922	-0.82
Mof_H 	H 	0.8563	0.297	0.9678	0.247
Mof_H 	H 	0.8605	0.3975	0.9894	0.262
Mof_H 	H 	0.807	0.3531	0.9702	0.244
Mof_S 	S 	0.99633	0.12185	0.04891	0.011
Mof_C 	C 	0.0287	0.0506	0.1123	-0.083
Mof_C 	C 	0.00315	0.9967	0.1526	0.152
Mof_C 	C 	0.03024	0.9367	0.1979	-0.087
Mof_C 	C 	0.0809	0.9283	0.1988	0.12
Mof_H 	H 	0.0987	0.8875	0.2298	-0.023
Mof_C 	C 	0.10676	0.9782	0.1554	-0.328
Mof_C 	C 	0.07995	0.0412	0.1143	0.12
Mof_H 	H 	0.097	0.079	0.0868	-0.02
Mof_O 	O 	0.95197	0.0009	0.1477	-0.199
Mof_C 	C 	0.92954	0.9376	0.0983	-0.013
Mof_H 	H 	0.9406	0.8787	0.1141	0.037
Mof_H 	H 	0.9402	0.9481	0.052	0.03
Mof_C 	C 	0.8739	0.9431	0.0918	0.006
Mof_C 	C 	0.84627	0.8726	0.0657	-0.024
Mof_H 	H 	0.8635	0.8207	0.0575	0.041
Mof_N 	N 	0.79624	0.8724	0.0509	-0.13
Mof_C 	C 	0.77268	0.9449	0.066	0.01
Mof_H 	H 	0.7374	0.9466	0.0558	0.021
Mof_C 	C 	0.7971	0.0168	0.0955	-0.081
Mof_H 	H 	0.7789	0.066	0.1074	0.022
Mof_C 	C 	0.8487	0.0168	0.1078	-0.069
Mof_H 	H 	0.8664	0.0666	0.1268	0.054
Mof_C 	C 	0.1621	0.9624	0.1519	0.856
Mof_C 	C 	0.165	0.8907	0.0975	-1.01
Mof_H 	H 	0.1466	0.9087	0.0524	0.3
Mof_H 	H 	0.1505	0.8371	0.1132	0.293
Mof_H 	H 	0.1999	0.8804	0.0922	0.285
Mof_C 	C 	0.1885	0.9254	0.2168	-1.191
Mof_H 	H 	0.1745	0.8682	0.225	0.362
Mof_H 	H 	0.1848	0.964	0.2561	0.371
Mof_H 	H 	0.2239	0.9192	0.2125	0.35
Mof_C 	C 	0.1879	0.0377	0.124	-1.179
Mof_H 	H 	0.1799	0.0911	0.1479	0.372
Mof_H 	H 	0.1769	0.0435	0.0736	0.368
Mof_H 	H 	0.2239	0.0281	0.1323	0.36
Mof_Br	Br	0.81612	0.35624	0.57664	-0.343
Mof_C 	C 	0.46982	0.1865	0.6837	-0.063
Mof_C 	C 	0.49462	0.2509	0.6513	0.14
Mof_C 	C 	0.46786	0.2992	0.5973	-0.065
Mof_C 	C 	0.41851	0.2774	0.5725	0.057
Mof_H 	H 	0.4007	0.3105	0.5355	-0.013
Mof_C 	C 	0.39494	0.2079	0.6009	-0.217
Mof_C 	C 	0.42057	0.1656	0.6575	0.06
Mof_H 	H 	0.4044	0.1208	0.6796	-0
Mof_O 	O 	0.54491	0.2641	0.6701	-0.194
Mof_C 	C 	0.57112	0.2078	0.6269	-0.022
Mof_H 	H 	0.564	0.1462	0.6365	0.038
Mof_H 	H 	0.5596	0.2193	0.5767	0.039
Mof_C 	C 	0.62627	0.2244	0.643	0.018
Mof_C 	C 	0.65391	0.2253	0.5884	-0.022
Mof_H 	H 	0.637	0.2194	0.542	0.045
Mof_N 	N 	0.70373	0.2343	0.5973	-0.125
Mof_C 	C 	0.7267	0.2432	0.6624	0.011
Mof_H 	H 	0.7618	0.2497	0.6697	0.026
Mof_C 	C 	0.7018	0.2434	0.7198	-0.075
Mof_H 	H 	0.7195	0.2492	0.7657	0.017
Mof_C 	C 	0.6503	0.2352	0.7096	-0.068
Mof_H 	H 	0.6322	0.2371	0.7483	0.053
Mof_C 	C 	0.3419	0.1812	0.5695	0.584
Mof_C 	C 	0.3067	0.257	0.5753	-0.852
Mof_H 	H 	0.2725	0.2387	0.5587	0.238
Mof_H 	H 	0.3092	0.2755	0.6244	0.259
Mof_H 	H 	0.3156	0.3055	0.5466	0.253
Mof_C 	C 	0.3232	0.1027	0.6081	-0.867
Mof_H 	H 	0.346	0.0537	0.6063	0.282
Mof_H 	H 	0.3218	0.1183	0.657	0.262
Mof_H 	H 	0.29	0.0863	0.5853	0.254
Mof_C 	C 	0.3414	0.1561	0.4922	-0.851
Mof_H 	H 	0.3563	0.203	0.4678	0.253
Mof_H 	H 	0.3605	0.1025	0.4894	0.267
Mof_H 	H 	0.307	0.1469	0.4702	0.25
Mof_S 	S 	0.49633	0.37815	0.54891	0.018
Mof_C 	C 	0.5287	0.4494	0.6123	-0.086
Mof_C 	C 	0.50315	0.5033	0.6526	0.158
Mof_C 	C 	0.53024	0.5633	0.6979	-0.089
Mof_C 	C 	0.5809	0.5717	0.6988	0.124
Mof_H 	H 	0.5987	0.6125	0.7298	-0.024
Mof_C 	C 	0.60676	0.5218	0.6554	-0.33
Mof_C 	C 	0.57995	0.4588	0.6143	0.122
Mof_H 	H 	0.597	0.421	0.5868	-0.019
Mof_O 	O 	0.45197	0.4991	0.6477	-0.202
Mof_C 	C 	0.42954	0.5624	0.5983	-0.014
Mof_H 	H 	0.4406	0.6213	0.6141	0.039
Mof_H 	H 	0.4402	0.5519	0.552	0.035
Mof_C 	C 	0.3739	0.5569	0.5918	0.01
Mof_C 	C 	0.34627	0.6274	0.5657	-0.024
Mof_H 	H 	0.3635	0.6793	0.5575	0.044
Mof_N 	N 	0.29624	0.6276	0.5509	-0.128
Mof_C 	C 	0.27268	0.5551	0.566	0.014
Mof_H 	H 	0.2374	0.5534	0.5558	0.023
Mof_C 	C 	0.2971	0.4832	0.5955	-0.082
Mof_H 	H 	0.2789	0.434	0.6074	0.023
Mof_C 	C 	0.3487	0.4832	0.6078	-0.07
Mof_H 	H 	0.3664	0.4334	0.6268	0.055
Mof_C 	C 	0.6621	0.5376	0.6519	0.868
Mof_C 	C 	0.665	0.6093	0.5975	-1.025
Mof_H 	H 	0.6466	0.5913	0.5524	0.309
Mof_H 	H 	0.6505	0.6629	0.6132	0.299
Mof_H 	H 	0.6999	0.6196	0.5922	0.291
Mof_C 	C 	0.6885	0.5746	0.7168	-1.201
Mof_H 	H 	0.6745	0.6318	0.725	0.366
Mof_H 	H 	0.6848	0.536	0.7561	0.374
Mof_H 	H 	0.7239	0.5808	0.7125	0.353
Mof_C 	C 	0.6879	0.4623	0.624	-1.193
Mof_H 	H 	0.6799	0.4089	0.6479	0.376
Mof_H 	H 	0.6769	0.4565	0.5736	0.374
Mof_H 	H 	0.7239	0.4719	0.6323	0.364
Mof_Br	Br	0.31612	0.85624	0.57664	-0.342
Mof_C 	C 	0.96982	0.6865	0.6837	-0.062
Mof_C 	C 	0.99462	0.7509	0.6513	0.141
Mof_C 	C 	0.96786	0.7992	0.5973	-0.065
Mof_C 	C 	0.91851	0.7774	0.5725	0.058
Mof_H 	H 	0.9007	0.8105	0.5355	-0.013
Mof_C 	C 	0.89494	0.7079	0.6009	-0.217
Mof_C 	C 	0.92057	0.6656	0.6575	0.06
Mof_H 	H 	0.9044	0.6208	0.6796	-0
Mof_O 	O 	0.04491	0.7641	0.6701	-0.195
Mof_C 	C 	0.07112	0.7078	0.6269	-0.022
Mof_H 	H 	0.064	0.6462	0.6365	0.038
Mof_H 	H 	0.0596	0.7193	0.5767	0.038
Mof_C 	C 	0.12627	0.7244	0.643	0.018
Mof_C 	C 	0.15391	0.7253	0.5884	-0.022
Mof_H 	H 	0.137	0.7194	0.542	0.045
Mof_N 	N 	0.20373	0.7343	0.5973	-0.125
Mof_C 	C 	0.2267	0.7432	0.6624	0.011
Mof_H 	H 	0.2618	0.7497	0.6697	0.026
Mof_C 	C 	0.2018	0.7434	0.7198	-0.075
Mof_H 	H 	0.2195	0.7492	0.7657	0.017
Mof_C 	C 	0.1503	0.7352	0.7096	-0.067
Mof_H 	H 	0.1322	0.7371	0.7483	0.053
Mof_C 	C 	0.8419	0.6812	0.5695	0.585
Mof_C 	C 	0.8067	0.757	0.5753	-0.852
Mof_H 	H 	0.7725	0.7387	0.5587	0.238
Mof_H 	H 	0.8092	0.7755	0.6244	0.259
Mof_H 	H 	0.8156	0.8055	0.5466	0.253
Mof_C 	C 	0.8232	0.6027	0.6081	-0.867
Mof_H 	H 	0.846	0.5537	0.6063	0.282
Mof_H 	H 	0.8218	0.6183	0.657	0.263
Mof_H 	H 	0.79	0.5863	0.5853	0.254
Mof_C 	C 	0.8414	0.6561	0.4922	-0.851
Mof_H 	H 	0.8563	0.703	0.4678	0.253
Mof_H 	H 	0.8605	0.6025	0.4894	0.267
Mof_H 	H 	0.807	0.6469	0.4702	0.25
Mof_S 	S 	0.99633	0.87815	0.54891	0.019
Mof_C 	C 	0.0287	0.9494	0.6123	-0.085
Mof_C 	C 	0.00315	0.0033	0.6526	0.155
Mof_C 	C 	0.03024	0.0633	0.6979	-0.088
Mof_C 	C 	0.0809	0.0717	0.6988	0.123
Mof_H 	H 	0.0987	0.1125	0.7298	-0.024
Mof_C 	C 	0.10676	0.0218	0.6554	-0.33
Mof_C 	C 	0.07995	0.9588	0.6143	0.122
Mof_H 	H 	0.097	0.921	0.5868	-0.019
Mof_O 	O 	0.95197	0.9991	0.6477	-0.199
Mof_C 	C 	0.92954	0.0624	0.5983	-0.015
Mof_H 	H 	0.9406	0.1213	0.6141	0.039
Mof_H 	H 	0.9402	0.0519	0.552	0.035
Mof_C 	C 	0.8739	0.0569	0.5918	0.01
Mof_C 	C 	0.84627	0.1274	0.5657	-0.024
Mof_H 	H 	0.8635	0.1793	0.5575	0.044
Mof_N 	N 	0.79624	0.1276	0.5509	-0.128
Mof_C 	C 	0.77268	0.0551	0.566	0.013
Mof_H 	H 	0.7374	0.0534	0.5558	0.023
Mof_C 	C 	0.7971	0.9832	0.5955	-0.081
Mof_H 	H 	0.7789	0.934	0.6074	0.023
Mof_C 	C 	0.8487	0.9832	0.6078	-0.07
Mof_H 	H 	0.8664	0.9334	0.6268	0.055
Mof_C 	C 	0.1621	0.0376	0.6519	0.865
Mof_C 	C 	0.165	0.1093	0.5975	-1.023
Mof_H 	H 	0.1466	0.0913	0.5524	0.308
Mof_H 	H 	0.1505	0.1629	0.6132	0.299
Mof_H 	H 	0.1999	0.1196	0.5922	0.29
Mof_C 	C 	0.1885	0.0746	0.7168	-1.199
Mof_H 	H 	0.1745	0.1318	0.725	0.365
Mof_H 	H 	0.1848	0.036	0.7561	0.373
Mof_H 	H 	0.2239	0.0808	0.7125	0.352
Mof_C 	C 	0.1879	0.9623	0.624	-1.19
Mof_H 	H 	0.1799	0.9089	0.6479	0.376
Mof_H 	H 	0.1769	0.9565	0.5736	0.373
Mof_H 	H 	0.2239	0.9719	0.6323	0.363
Mof_Br	Br	0.18388	0.35624	0.92336	-0.334
Mof_C 	C 	0.53018	0.1865	0.8163	-0.065
Mof_C 	C 	0.50538	0.2509	0.8487	0.142
Mof_C 	C 	0.53214	0.2992	0.9027	-0.067
Mof_C 	C 	0.58149	0.2774	0.9275	0.063
Mof_H 	H 	0.5993	0.3105	0.9645	-0.012
Mof_C 	C 	0.60506	0.2079	0.8991	-0.224
Mof_C 	C 	0.57943	0.1656	0.8425	0.065
Mof_H 	H 	0.5956	0.1208	0.8204	-0.002
Mof_O 	O 	0.45509	0.2641	0.8299	-0.194
Mof_C 	C 	0.42888	0.2078	0.8731	-0.024
Mof_H 	H 	0.436	0.1462	0.8635	0.04
Mof_H 	H 	0.4404	0.2193	0.9233	0.041
Mof_C 	C 	0.37373	0.2244	0.857	0.02
Mof_C 	C 	0.34609	0.2253	0.9116	-0.022
Mof_H 	H 	0.363	0.2194	0.958	0.049
Mof_N 	N 	0.29627	0.2343	0.9027	-0.122
Mof_C 	C 	0.2733	0.2432	0.8376	0.011
Mof_H 	H 	0.2382	0.2497	0.8303	0.026
Mof_C 	C 	0.2982	0.2434	0.7802	-0.074
Mof_H 	H 	0.2805	0.2492	0.7343	0.017
Mof_C 	C 	0.3497	0.2352	0.7904	-0.069
Mof_H 	H 	0.3678	0.2371	0.7517	0.054
Mof_C 	C 	0.6581	0.1812	0.9305	0.608
Mof_C 	C 	0.6933	0.257	0.9247	-0.875
Mof_H 	H 	0.7275	0.2387	0.9413	0.247
Mof_H 	H 	0.6908	0.2755	0.8756	0.266
Mof_H 	H 	0.6844	0.3055	0.9534	0.263
Mof_C 	C 	0.6768	0.1027	0.8919	-0.886
Mof_H 	H 	0.654	0.0537	0.8937	0.289
Mof_H 	H 	0.6782	0.1183	0.843	0.267
Mof_H 	H 	0.71	0.0863	0.9147	0.261
Mof_C 	C 	0.6586	0.1561	0.0078	-0.881
Mof_H 	H 	0.6437	0.203	0.0322	0.258
Mof_H 	H 	0.6395	0.1025	0.0106	0.272
Mof_H 	H 	0.693	0.1469	0.0298	0.256
Mof_S 	S 	0.50367	0.37815	0.95109	0.026
Mof_C 	C 	0.4713	0.4494	0.8877	-0.087
Mof_C 	C 	0.49685	0.5033	0.8474	0.16
Mof_C 	C 	0.46976	0.5633	0.8021	-0.09
Mof_C 	C 	0.4191	0.5717	0.8012	0.126
Mof_H 	H 	0.4013	0.6125	0.7702	-0.025
Mof_C 	C 	0.39324	0.5218	0.8446	-0.333
Mof_C 	C 	0.42005	0.4588	0.8857	0.125
Mof_H 	H 	0.403	0.421	0.9132	-0.018
Mof_O 	O 	0.54803	0.4991	0.8523	-0.201
Mof_C 	C 	0.57046	0.5624	0.9017	-0.017
Mof_H 	H 	0.5594	0.6213	0.8859	0.041
Mof_H 	H 	0.5598	0.5519	0.948	0.039
Mof_C 	C 	0.6261	0.5569	0.9082	0.013
Mof_C 	C 	0.65373	0.6274	0.9343	-0.023
Mof_H 	H 	0.6365	0.6793	0.9425	0.048
Mof_N 	N 	0.70376	0.6276	0.9491	-0.124
Mof_C 	C 	0.72732	0.5551	0.934	0.015
Mof_H 	H 	0.7626	0.5534	0.9442	0.026
Mof_C 	C 	0.7029	0.4832	0.9045	-0.08
Mof_H 	H 	0.7211	0.434	0.8926	0.023
Mof_C 	C 	0.6513	0.4832	0.8922	-0.071
Mof_H 	H 	0.6336	0.4334	0.8732	0.055
Mof_C 	C 	0.3379	0.5376	0.8481	0.876
Mof_C 	C 	0.335	0.6093	0.9025	-1.037
Mof_H 	H 	0.3534	0.5913	0.9476	0.317
Mof_H 	H 	0.3495	0.6629	0.8868	0.305
Mof_H 	H 	0.3001	0.6196	0.9078	0.296
Mof_C 	C 	0.3115	0.5746	0.7832	-1.21
Mof_H 	H 	0.3255	0.6318	0.775	0.368
Mof_H 	H 	0.3152	0.536	0.7439	0.377
Mof_H 	H 	0.2761	0.5808	0.7875	0.355
Mof_C 	C 	0.3121	0.4623	0.876	-1.204
Mof_H 	H 	0.3201	0.4089	0.8521	0.38
Mof_H 	H 	0.3231	0.4565	0.9264	0.38
Mof_H 	H 	0.2761	0.4719	0.8677	0.367
Mof_Br	Br	0.68388	0.85624	0.92336	-0.332
Mof_C 	C 	0.03018	0.6865	0.8163	-0.065
Mof_C 	C 	0.00538	0.7509	0.8487	0.141
Mof_C 	C 	0.03214	0.7992	0.9027	-0.067
Mof_C 	C 	0.08149	0.7774	0.9275	0.064
Mof_H 	H 	0.0993	0.8105	0.9645	-0.012
Mof_C 	C 	0.10506	0.7079	0.8991	-0.225
Mof_C 	C 	0.07943	0.6656	0.8425	0.066
Mof_H 	H 	0.0956	0.6208	0.8204	-0.002
Mof_O 	O 	0.95509	0.7641	0.8299	-0.193
Mof_C 	C 	0.92888	0.7078	0.8731	-0.024
Mof_H 	H 	0.936	0.6462	0.8635	0.041
Mof_H 	H 	0.9404	0.7193	0.9233	0.042
Mof_C 	C 	0.87373	0.7244	0.857	0.021
Mof_C 	C 	0.84609	0.7253	0.9116	-0.023
Mof_H 	H 	0.863	0.7194	0.958	0.05
Mof_N 	N 	0.79627	0.7343	0.9027	-0.122
Mof_C 	C 	0.7733	0.7432	0.8376	0.011
Mof_H 	H 	0.7382	0.7497	0.8303	0.027
Mof_C 	C 	0.7982	0.7434	0.7802	-0.073
Mof_H 	H 	0.7805	0.7492	0.7343	0.017
Mof_C 	C 	0.8497	0.7352	0.7904	-0.069
Mof_H 	H 	0.8678	0.7371	0.7517	0.054
Mof_C 	C 	0.1581	0.6812	0.9305	0.613
Mof_C 	C 	0.1933	0.757	0.9247	-0.879
Mof_H 	H 	0.2275	0.7387	0.9413	0.249
Mof_H 	H 	0.1908	0.7755	0.8756	0.267
Mof_H 	H 	0.1844	0.8055	0.9534	0.265
Mof_C 	C 	0.1768	0.6027	0.8919	-0.89
Mof_H 	H 	0.154	0.5537	0.8937	0.291
Mof_H 	H 	0.1782	0.6183	0.843	0.269
Mof_H 	H 	0.21	0.5863	0.9147	0.263
Mof_C 	C 	0.1586	0.6561	0.0078	-0.887
Mof_H 	H 	0.1437	0.703	0.0322	0.259
Mof_H 	H 	0.1395	0.6025	0.0106	0.273
Mof_H 	H 	0.193	0.6469	0.0298	0.257
Mof_S 	S 	0.00367	0.87815	0.95109	0.026
Mof_C 	C 	0.9713	0.9494	0.8877	-0.084
Mof_C 	C 	0.99685	0.0033	0.8474	0.156
Mof_C 	C 	0.96976	0.0633	0.8021	-0.087
Mof_C 	C 	0.9191	0.0717	0.8012	0.124
Mof_H 	H 	0.9013	0.1125	0.7702	-0.024
Mof_C 	C 	0.89324	0.0218	0.8446	-0.333
Mof_C 	C 	0.92005	0.9588	0.8857	0.125
Mof_H 	H 	0.903	0.921	0.9132	-0.018
Mof_O 	O 	0.04803	0.9991	0.8523	-0.199
Mof_C 	C 	0.07046	0.0624	0.9017	-0.018
Mof_H 	H 	0.0594	0.1213	0.8859	0.041
Mof_H 	H 	0.0598	0.0519	0.948	0.038
Mof_C 	C 	0.1261	0.0569	0.9082	0.011
Mof_C 	C 	0.15373	0.1274	0.9343	-0.023
Mof_H 	H 	0.1365	0.1793	0.9425	0.047
Mof_N 	N 	0.20376	0.1276	0.9491	-0.125
Mof_C 	C 	0.22732	0.0551	0.934	0.012
Mof_H 	H 	0.2626	0.0534	0.9442	0.026
Mof_C 	C 	0.2029	0.9832	0.9045	-0.077
Mof_H 	H 	0.2211	0.934	0.8926	0.023
Mof_C 	C 	0.1513	0.9832	0.8922	-0.069
Mof_H 	H 	0.1336	0.9334	0.8732	0.055
Mof_C 	C 	0.8379	0.0376	0.8481	0.872
Mof_C 	C 	0.835	0.1093	0.9025	-1.032
Mof_H 	H 	0.8534	0.0913	0.9476	0.314
Mof_H 	H 	0.8495	0.1629	0.8868	0.303
Mof_H 	H 	0.8001	0.1196	0.9078	0.294
Mof_C 	C 	0.8115	0.0746	0.7832	-1.205
Mof_H 	H 	0.8255	0.1318	0.775	0.367
Mof_H 	H 	0.8152	0.036	0.7439	0.375
Mof_H 	H 	0.7761	0.0808	0.7875	0.354
Mof_C 	C 	0.8121	0.9623	0.876	-1.198
Mof_H 	H 	0.8201	0.9089	0.8521	0.379
Mof_H 	H 	0.8231	0.9565	0.9264	0.379
Mof_H 	H 	0.7761	0.9719	0.8677	0.367
Mof_Cd	Cd	0.25	0.75	0.5	0.398
Mof_Cd	Cd	0.75	0.75	-0	0.385
Mof_Cd	Cd	0.75	0.25	0.5	0.398
Mof_Cd	Cd	0.25	0.25	-0	0.387
Mof_S 	S 	0.5	0.88248	0.25	0.011
Mof_S 	S 	0.5	0.36429	0.25	0.024
Mof_S 	S 	-3.56461e-18	0.38248	0.25	0.01
Mof_S 	S 	7.59287e-34	0.86429	0.25	0.022
Mof_S 	S 	0.5	0.11752	0.75	0.013
Mof_S 	S 	0.5	0.63571	0.75	0.027
Mof_S 	S 	-1.42584e-17	0.61752	0.75	0.012
Mof_S 	S 	2.27786e-33	0.13571	0.75	0.024
_end
