data_functionalizedCrystal
_audit_creation_method	'EQeq! by Chris Wilmer'
_symmetry_space_group_name_H-M	'P1'
_symmetry_Int_Tables_number	1
_symmetry_cell_setting	triclinic
loop_
_symmetry_equiv_pos_as_xyz
  x,y,z
_cell_length_a	6.6552
_cell_length_b	18.3549
_cell_length_c	8.4346
_cell_angle_alpha	90
_cell_angle_beta	90
_cell_angle_gamma	90
loop_
_atom_site_label
_atom_site_type_symbol
_atom_site_fract_x
_atom_site_fract_y
_atom_site_fract_z
_atom_site_charge
Mof_O 	O 	0.3207	0.25808	0.8471	-0.586
Mof_O 	O 	0.1743	0.18375	0.0189	-0.562
Mof_O 	O 	0.1656	0.4054	0.7687	-0.444
Mof_O 	O 	0.4889	0.45012	0.5703	-0.586
Mof_C 	C 	0.2371	0.2439	0.9753	0.773
Mof_H 	H 	0.22	0.2825	0.0455	-0.27
Mof_O 	O 	0.8207	0.75808	0.8471	-0.458
Mof_O 	O 	0.6743	0.68375	0.0189	-0.543
Mof_O 	O 	0.6656	0.9054	0.7687	-0.379
Mof_O 	O 	0.9889	0.95012	0.5703	-0.122
Mof_C 	C 	0.7371	0.7439	0.9753	0.772
Mof_H 	H 	0.72	0.7825	0.0455	-0.218
Mof_O 	O 	0.6793	0.74192	0.3471	-0.516
Mof_O 	O 	0.8257	0.81625	0.5189	-0.419
Mof_O 	O 	0.8344	0.5946	0.2687	-0.317
Mof_O 	O 	0.5111	0.54988	0.0703	-0.57
Mof_C 	C 	0.7629	0.7561	0.4753	0.643
Mof_H 	H 	0.78	0.7175	0.5455	-0.152
Mof_O 	O 	0.1793	0.24192	0.3471	-0.552
Mof_O 	O 	0.3257	0.31625	0.5189	-0.529
Mof_O 	O 	0.3344	0.0946	0.2687	-0.461
Mof_O 	O 	0.0111	0.04988	0.0703	-0.765
Mof_C 	C 	0.2629	0.2561	0.4753	0.647
Mof_H 	H 	0.28	0.2175	0.5455	-0.203
Mof_O 	O 	0.6793	0.25808	0.6529	-0.52
Mof_O 	O 	0.8257	0.18375	0.4811	-0.427
Mof_O 	O 	0.8344	0.4054	0.7313	-0.312
Mof_O 	O 	0.5111	0.45012	0.9297	-0.541
Mof_C 	C 	0.7629	0.2439	0.5247	0.647
Mof_H 	H 	0.78	0.2825	0.4545	-0.157
Mof_O 	O 	0.1793	0.75808	0.6529	-0.551
Mof_O 	O 	0.3257	0.68375	0.4811	-0.527
Mof_O 	O 	0.3344	0.9054	0.7313	-0.435
Mof_O 	O 	0.0111	0.95012	0.9297	-0.691
Mof_C 	C 	0.2629	0.7439	0.5247	0.646
Mof_H 	H 	0.28	0.7825	0.4545	-0.202
Mof_O 	O 	0.3207	0.74192	0.1529	-0.524
Mof_O 	O 	0.1743	0.81625	0.9811	-0.442
Mof_O 	O 	0.1656	0.5946	0.2313	-0.454
Mof_O 	O 	0.4889	0.54988	0.4297	-0.585
Mof_C 	C 	0.2371	0.7561	0.0247	0.516
Mof_H 	H 	0.22	0.7175	0.9545	-0.143
Mof_O 	O 	0.8207	0.24192	0.1529	-0.398
Mof_O 	O 	0.6743	0.31625	0.9811	-0.421
Mof_O 	O 	0.6656	0.0946	0.2313	-0.414
Mof_O 	O 	0.9889	0.04988	0.4297	-0.175
Mof_C 	C 	0.7371	0.2561	0.0247	0.496
Mof_H 	H 	0.72	0.2175	0.9545	-0.086
Mof_Er	Er	0.5	0.35729	0.75	2.314
Mof_Er	Er	1.58141e-32	0.85729	0.75	1.883
Mof_Er	Er	0.5	0.64271	0.25	2.306
Mof_Er	Er	7.31306e-33	0.14271	0.25	1.875
Mof_C 	C 	3.56391e-33	0.3743	0.75	0.353
Mof_H 	H 	3.56391e-33	0.3236	0.75	-0.153
Mof_C 	C 	0.5	0.8743	0.75	0.569
Mof_H 	H 	0.5	0.8236	0.75	-0.158
Mof_C 	C 	1.18797e-33	0.6257	0.25	0.353
Mof_H 	H 	1.34382e-32	0.6764	0.25	-0.156
Mof_C 	C 	0.5	0.1257	0.25	0.568
Mof_H 	H 	0.5	0.1764	0.25	-0.164
Mof_C 	C 	0.5741	0.5	0.5	0.778
Mof_H 	H 	0.7138	0.5	0.5	-0.181
Mof_C 	C 	0.0741	3.06255e-33	0.5	-0.037
Mof_H 	H 	0.2138	3.06255e-33	0.5	0.036
Mof_C 	C 	0.4259	0.5	-0	0.731
Mof_H 	H 	0.2862	0.5	-0	-0.223
Mof_C 	C 	0.9259	0	-0	1.144
Mof_H 	H 	0.7862	0	-0	-0.321
_end
