data_functionalizedCrystal
_audit_creation_method	'EQeq! by Chris Wilmer'
_symmetry_space_group_name_H-M	'P1'
_symmetry_Int_Tables_number	1
_symmetry_cell_setting	triclinic
loop_
_symmetry_equiv_pos_as_xyz
  x,y,z
_cell_length_a	9.1625
_cell_length_b	11.089
_cell_length_c	12.9065
_cell_angle_alpha	115.371
_cell_angle_beta	96.593
_cell_angle_gamma	95.177
loop_
_atom_site_label
_atom_site_type_symbol
_atom_site_fract_x
_atom_site_fract_y
_atom_site_fract_z
_atom_site_charge
Mof_Ba	Ba	0.37211	0.37248	0.81297	1.725
Mof_Ba	Ba	0.12786	0.6275	0.68713	1.726
Mof_Ba	Ba	0.87214	0.3725	0.31287	1.726
Mof_Ba	Ba	0.62789	0.62752	0.18703	1.725
Mof_H 	H 	0.5878	0.8012	0.5281	-0.03
Mof_H 	H 	0.8006	0.1896	0.6996	-0.018
Mof_H 	H 	0.9148	0.1988	0.9741	-0.024
Mof_H 	H 	0.4601	0.1219	0.9172	-0.034
Mof_H 	H 	0.4122	0.1988	0.4719	-0.03
Mof_H 	H 	0.8327	0.021	0.1392	0.212
Mof_H 	H 	0.0852	0.8012	0.0259	-0.024
Mof_H 	H 	0.1673	0.979	0.8608	0.212
Mof_H 	H 	0.6988	0.8117	0.8021	-0.013
Mof_H 	H 	0.9629	0.1212	0.417	-0.04
Mof_H 	H 	0.3342	0.0168	0.6396	0.23
Mof_H 	H 	0.5399	0.8781	0.0828	-0.034
Mof_H 	H 	0.3012	0.1883	0.1979	-0.013
Mof_H 	H 	0.6658	0.9832	0.3604	0.23
Mof_H 	H 	0.1994	0.8104	0.3004	-0.018
Mof_H 	H 	0.0371	0.8788	0.583	-0.04
Mof_C 	C 	0.5354	0.0597	0.6434	0.443
Mof_C 	C 	0.4462	0.9108	0.0894	0.14
Mof_C 	C 	0.0805	0.1509	0.6914	0.378
Mof_C 	C 	0.8237	0.136	0.9421	0.144
Mof_C 	C 	0.8033	0.0943	0.6613	0.139
Mof_C 	C 	0.9673	0.9423	0.8574	0.44
Mof_C 	C 	0.9436	0.9117	0.5901	0.153
Mof_C 	C 	0.4418	0.0482	0.1441	-0.187
Mof_C 	C 	0.9195	0.8491	0.3086	0.378
Mof_C 	C 	0.3222	0.1346	0.4409	0.162
Mof_C 	C 	0.1886	0.18	0.4554	-0.25
Mof_C 	C 	0.0617	0.9507	0.3553	-0.197
Mof_C 	C 	0.6952	0.9066	0.8427	0.123
Mof_C 	C 	0.4646	0.9403	0.3566	0.443
Mof_C 	C 	0.4177	0.8486	0.8088	0.373
Mof_C 	C 	0.327	0.9969	0.3813	-0.221
Mof_C 	C 	0.3048	0.0934	0.1573	0.123
Mof_C 	C 	0.0327	0.0577	0.1426	0.44
Mof_C 	C 	0.1725	0.0021	0.1185	-0.207
Mof_C 	C 	0.3157	0.6692	0.9775	0.436
Mof_C 	C 	0.3127	0.8192	0.0435	-0.235
Mof_C 	C 	0.6873	0.1808	0.9565	-0.235
Mof_C 	C 	0.5582	0.9518	0.8559	-0.187
Mof_C 	C 	0.5538	0.0892	0.9106	0.14
Mof_C 	C 	0.8114	0.82	0.5446	-0.25
Mof_C 	C 	0.8275	0.9979	0.8815	-0.207
Mof_C 	C 	0.1763	0.864	0.0579	0.144
Mof_C 	C 	0.5823	0.1514	0.1912	0.373
Mof_C 	C 	0.1967	0.9057	0.3387	0.139
Mof_C 	C 	0.6778	0.8654	0.5591	0.162
Mof_C 	C 	0.6843	0.3308	0.0225	0.436
Mof_C 	C 	0.1818	0.3292	0.5219	0.436
Mof_C 	C 	0.673	0.0031	0.6187	-0.221
Mof_C 	C 	0.9383	0.0493	0.6447	-0.197
Mof_C 	C 	0.8182	0.6708	0.4781	0.436
Mof_C 	C 	0.0564	0.0883	0.4099	0.153
Mof_O 	O 	0.5874	0.031	0.3859	-0.434
Mof_O 	O 	0.913	0.97	0.1144	-0.42
Mof_O 	O 	0.4313	0.7271	0.7725	-0.445
Mof_O 	O 	0.5687	0.2729	0.2275	-0.445
Mof_O 	O 	0.4676	0.8192	0.312	-0.466
Mof_O 	O 	0.0304	0.1798	0.187	-0.462
Mof_O 	O 	0.9213	0.6234	0.5132	-0.592
Mof_O 	O 	0.7054	0.1101	0.1933	-0.417
Mof_O 	O 	0.4203	0.6233	0.0129	-0.591
Mof_O 	O 	0.4126	0.969	0.6141	-0.434
Mof_O 	O 	0.2038	0.11	0.6919	-0.414
Mof_O 	O 	0.7962	0.89	0.3081	-0.414
Mof_O 	O 	0.9696	0.8202	0.813	-0.462
Mof_O 	O 	0.2823	0.3992	0.6093	-0.556
Mof_O 	O 	0.2946	0.8899	0.8067	-0.417
Mof_O 	O 	0.087	0.03	0.8856	-0.42
Mof_O 	O 	0.9314	0.7268	0.2714	-0.444
Mof_O 	O 	0.5797	0.3767	0.9871	-0.591
Mof_O 	O 	0.0787	0.3766	0.4868	-0.592
Mof_O 	O 	0.0686	0.2732	0.7286	-0.444
Mof_O 	O 	0.2172	0.6009	0.8906	-0.563
Mof_O 	O 	0.5324	0.1808	0.688	-0.466
Mof_O 	O 	0.7828	0.3991	0.1094	-0.563
Mof_O 	O 	0.7177	0.6008	0.3907	-0.556
_end
