data_functionalizedCrystal
_audit_creation_method	'EQeq! by Chris Wilmer'
_symmetry_space_group_name_H-M	'P1'
_symmetry_Int_Tables_number	1
_symmetry_cell_setting	triclinic
loop_
_symmetry_equiv_pos_as_xyz
  x,y,z
_cell_length_a	10.0601
_cell_length_b	14.1851
_cell_length_c	10.2537
_cell_angle_alpha	92.262
_cell_angle_beta	90
_cell_angle_gamma	90
loop_
_atom_site_label
_atom_site_type_symbol
_atom_site_fract_x
_atom_site_fract_y
_atom_site_fract_z
_atom_site_charge
Mof_Cu	Cu	0.2491	0.28527	0.92567	0.934
Mof_Cu	Cu	0.23157	0.78866	0.93177	0.879
Mof_Cu	Cu	0.87774	0.77066	0.70152	0.917
Mof_Cu	Cu	0.40681	0.78158	0.6563	0.928
Mof_Cu	Cu	0.28124	0.6643	0.40819	0.913
Mof_Cu	Cu	0.26459	0.87612	0.44017	0.924
Mof_Cu	Cu	0.2572	0.28736	0.43799	0.955
Mof_Cu	Cu	0.7509	0.28527	0.42567	0.953
Mof_Cu	Cu	0.76843	0.78866	0.43177	0.926
Mof_Cu	Cu	0.12226	0.77066	0.20152	0.924
Mof_Cu	Cu	0.59319	0.78158	0.1563	0.952
Mof_Cu	Cu	0.71876	0.6643	0.90819	0.895
Mof_Cu	Cu	0.73541	0.87612	0.94017	0.898
Mof_Cu	Cu	0.7428	0.28736	0.93799	0.93
Mof_H 	H 	0.359	0.495	0.769	0.041
Mof_H 	H 	0.181	0.521	0.621	0.121
Mof_H 	H 	0.003	0.454	0.712	0.075
Mof_H 	H 	0.065	0.505	0.969	0.054
Mof_H 	H 	0.131	0.094	0.082	0.085
Mof_H 	H 	0.314	0.054	0.254	0.105
Mof_H 	H 	0.501	0.095	0.135	0.099
Mof_H 	H 	0.433	0.079	0.891	0.094
Mof_H 	H 	0.025	0.845	0.022	0.182
Mof_H 	H 	0.926	0.764	0.936	0.182
Mof_H 	H 	0.411	0.8704	0.858	0.189
Mof_H 	H 	0.474	0.774	0.422	0.231
Mof_H 	H 	0.641	0.495	0.269	0.055
Mof_H 	H 	0.819	0.521	0.121	0.149
Mof_H 	H 	0.997	0.454	0.212	0.09
Mof_H 	H 	0.935	0.505	0.469	0.087
Mof_H 	H 	0.869	0.094	0.582	0.095
Mof_H 	H 	0.686	0.054	0.754	0.09
Mof_H 	H 	0.499	0.095	0.635	0.114
Mof_H 	H 	0.567	0.079	0.391	0.07
Mof_H 	H 	0.975	0.845	0.522	0.169
Mof_H 	H 	0.074	0.764	0.436	0.223
Mof_H 	H 	0.589	0.8704	0.358	0.208
Mof_H 	H 	0.526	0.774	0.922	0.225
Mof_C 	C 	0.2746	0.462	0.7685	0.009
Mof_C 	C 	0.176	0.5318	0.7064	-0.185
Mof_C 	C 	0.0443	0.502	0.7659	-0.075
Mof_C 	C 	0.0803	0.4597	0.8971	-0.039
Mof_C 	C 	0.2845	0.3717	0.6834	0.289
Mof_C 	C 	0.2185	0.6321	0.7428	0.408
Mof_C 	C 	0.942	0.5813	0.7782	0.369
Mof_C 	C 	0.0016	0.369	0.9193	0.334
Mof_C 	C 	0.219	0.117	0.098	0.063
Mof_C 	C 	0.3097	0.0419	0.1588	-0.133
Mof_C 	C 	0.4458	0.0609	0.0912	-0.062
Mof_C 	C 	0.4097	0.1108	0.9672	-0.12
Mof_C 	C 	0.2261	0.2107	0.1778	0.31
Mof_C 	C 	0.2582	0.943	0.1247	0.4
Mof_C 	C 	0.5299	0.9741	0.0675	0.474
Mof_C 	C 	0.4913	0.201	0.9503	0.327
Mof_C 	C 	0.7254	0.462	0.2685	0.011
Mof_C 	C 	0.824	0.5318	0.2064	-0.187
Mof_C 	C 	0.9557	0.502	0.2659	-0.063
Mof_C 	C 	0.9197	0.4597	0.3971	-0.049
Mof_C 	C 	0.7155	0.3717	0.1834	0.288
Mof_C 	C 	0.7815	0.6321	0.2428	0.404
Mof_C 	C 	0.058	0.5813	0.2782	0.367
Mof_C 	C 	0.9984	0.369	0.4193	0.346
Mof_C 	C 	0.781	0.117	0.598	-0.044
Mof_C 	C 	0.6903	0.0419	0.6588	-0.095
Mof_C 	C 	0.5542	0.0609	0.5912	-0.153
Mof_C 	C 	0.5903	0.1108	0.4672	-0.013
Mof_C 	C 	0.7739	0.2107	0.6778	0.333
Mof_C 	C 	0.7418	0.943	0.6247	0.395
Mof_C 	C 	0.4701	0.9741	0.5675	0.372
Mof_C 	C 	0.5087	0.201	0.4503	0.315
Mof_Cl	Cl	0.10602	0.9702	0.52243	-0.495
Mof_Cl	Cl	0.62553	0.69028	0.65256	-0.592
Mof_Cl	Cl	0.89398	0.9702	0.02243	-0.403
Mof_Cl	Cl	0.37447	0.69028	0.15256	-0.54
Mof_O 	O 	0.2222	0.4439	0.8952	-0.24
Mof_O 	O 	0.2433	0.2954	0.7283	-0.354
Mof_O 	O 	0.3266	0.38087	0.5686	-0.35
Mof_O 	O 	0.2776	0.67535	0.6523	-0.48
Mof_O 	O 	0.1976	0.6627	0.8563	-0.433
Mof_O 	O 	0.9538	0.64452	0.6963	-0.406
Mof_O 	O 	0.854	0.57437	0.8646	-0.432
Mof_O 	O 	0.8788	0.3799	0.9188	-0.406
Mof_O 	O 	0.0595	0.2926	0.9392	-0.413
Mof_O 	O 	0.0673	0.7833	0.0243	-0.492
Mof_O 	O 	0.8456	0.7687	0.8875	-0.668
Mof_O 	O 	0.2692	0.12857	0.9689	-0.275
Mof_O 	O 	0.2586	0.2846	0.123	-0.304
Mof_O 	O 	0.1997	0.20316	0.2972	-0.348
Mof_O 	O 	0.2118	0.89595	0.2152	-0.467
Mof_O 	O 	0.2679	0.91592	0.0072	-0.355
Mof_O 	O 	0.5304	0.91547	0.1564	-0.428
Mof_O 	O 	0.5946	0.96689	0.9617	-0.493
Mof_O 	O 	0.6138	0.191	0.9721	-0.402
Mof_O 	O 	0.4392	0.2748	0.9118	-0.413
Mof_O 	O 	0.3935	0.80603	0.8391	-0.596
Mof_O 	O 	0.3912	0.76892	0.4676	-0.659
Mof_O 	O 	0.7778	0.4439	0.3952	-0.216
Mof_O 	O 	0.7567	0.2954	0.2283	-0.331
Mof_O 	O 	0.6734	0.38087	0.0686	-0.288
Mof_O 	O 	0.7224	0.67535	0.1523	-0.441
Mof_O 	O 	0.8024	0.6627	0.3563	-0.404
Mof_O 	O 	0.0462	0.64452	0.1963	-0.382
Mof_O 	O 	0.146	0.57437	0.3646	-0.404
Mof_O 	O 	0.1212	0.3799	0.4188	-0.375
Mof_O 	O 	0.9405	0.2926	0.4392	-0.38
Mof_O 	O 	0.9327	0.7833	0.5243	-0.55
Mof_O 	O 	0.1544	0.7687	0.3875	-0.662
Mof_O 	O 	0.7308	0.12857	0.4689	-0.209
Mof_O 	O 	0.7414	0.2846	0.623	-0.366
Mof_O 	O 	0.8003	0.20316	0.7972	-0.368
Mof_O 	O 	0.7882	0.89595	0.7152	-0.477
Mof_O 	O 	0.7321	0.91592	0.5072	-0.41
Mof_O 	O 	0.4696	0.91547	0.6564	-0.421
Mof_O 	O 	0.4054	0.96689	0.4617	-0.401
Mof_O 	O 	0.3862	0.191	0.4721	-0.358
Mof_O 	O 	0.5608	0.2748	0.4118	-0.381
Mof_O 	O 	0.6065	0.80603	0.3391	-0.583
Mof_O 	O 	0.6088	0.76892	0.9676	-0.706
_end
