data_functionalizedCrystal
_audit_creation_method	'EQeq! by Chris Wilmer'
_symmetry_space_group_name_H-M	'P1'
_symmetry_Int_Tables_number	1
_symmetry_cell_setting	triclinic
loop_
_symmetry_equiv_pos_as_xyz
  x,y,z
_cell_length_a	16.2799
_cell_length_b	7.2214
_cell_length_c	24.2716
_cell_angle_alpha	90
_cell_angle_beta	116.419
_cell_angle_gamma	90
loop_
_atom_site_label
_atom_site_type_symbol
_atom_site_fract_x
_atom_site_fract_y
_atom_site_fract_z
_atom_site_charge
Mof_Co	Co	0.44146	0.16272	0.98468	1.156
Mof_F 	F 	0.94483	0.3318	0.88846	-0.455
Mof_F 	F 	0.9119	0.4731	0.80375	-0.499
Mof_F 	F 	0.82643	0.2538	0.80654	-0.525
Mof_F 	F 	0.94566	0.7451	0.88884	-0.462
Mof_F 	F 	0.92151	0.5954	0.95639	-0.431
Mof_F 	F 	0.83314	0.81981	0.90781	-0.507
Mof_O 	O 	0.5188	0.2985	0.95171	-0.44
Mof_O 	O 	0.52486	0.7714	0.57305	-0.453
Mof_O 	O 	0.61477	0.0216	0.59776	-0.442
Mof_O 	O 	0.61142	0.0523	0.98107	-0.455
Mof_N 	N 	0.32734	0.3246	0.9634	-0.227
Mof_N 	N 	0.21971	0.5324	0.91657	-0.128
Mof_C 	C 	0.03993	0.755	0.77963	0.08
Mof_C 	C 	0.06064	0.9408	0.79518	0.138
Mof_C 	C 	0.13343	0.9978	0.84916	-0.04
Mof_H 	H 	0.1463	0.1227	0.8583	0.1
Mof_C 	C 	0.18627	0.8612	0.88896	-0.07
Mof_H 	H 	0.2357	0.8937	0.9259	0.085
Mof_C 	C 	0.16604	0.675	0.87405	0.147
Mof_C 	C 	0.09396	0.6193	0.81961	-0.093
Mof_H 	H 	0.0821	0.4944	0.8101	0.161
Mof_C 	C 	0.30334	0.4702	0.92697	0.113
Mof_H 	H 	0.3396	0.5234	0.9105	0.003
Mof_C 	C 	0.25588	0.2934	0.97784	0.033
Mof_H 	H 	0.2537	0.1993	0.0033	0.067
Mof_C 	C 	0.18931	0.4201	0.94935	0.004
Mof_H 	H 	0.1338	0.4295	0.9515	0.151
Mof_C 	C 	0.58765	0.2085	0.95598	0.419
Mof_C 	C 	0.64635	0.2944	0.92938	-0.242
Mof_C 	C 	0.62506	0.4655	0.90082	0.226
Mof_H 	H 	0.5744	0.5307	0.8987	-0.022
Mof_C 	C 	0.67899	0.54	0.8754	-0.35
Mof_H 	H 	0.6636	0.6546	0.8559	0.185
Mof_C 	C 	0.75523	0.4471	0.87851	0.419
Mof_C 	C 	0.77775	0.2777	0.90869	-0.344
Mof_H 	H 	0.8298	0.2148	0.9124	0.281
Mof_C 	C 	0.72357	0.2021	0.93328	0.251
Mof_H 	H 	0.739	0.0876	0.9528	0.001
Mof_C 	C 	0.81508	0.5408	0.85158	-0.542
Mof_C 	C 	0.75499	0.6381	0.78984	0.408
Mof_C 	C 	0.59065	0.8678	0.60976	0.421
Mof_C 	C 	0.64634	0.7891	0.67323	-0.234
Mof_C 	C 	0.71855	0.8888	0.71723	0.225
Mof_H 	H 	0.7307	0.0077	0.708	0.011
Mof_C 	C 	0.77286	0.8142	0.7746	-0.338
Mof_H 	H 	0.8217	0.8823	0.8032	0.262
Mof_C 	C 	0.68195	0.5392	0.74581	-0.339
Mof_H 	H 	0.6687	0.4215	0.7553	0.188
Mof_C 	C 	0.62882	0.6131	0.68827	0.219
Mof_H 	H 	0.5808	0.5441	0.6593	-0.019
Mof_C 	C 	0.87941	0.6756	0.90115	0.985
Mof_C 	C 	0.87497	0.3984	0.8379	0.994
Mof_Co	Co	0.55854	0.16272	0.51532	1.157
Mof_F 	F 	0.05517	0.3318	0.61154	-0.447
Mof_F 	F 	0.0881	0.4731	0.69625	-0.494
Mof_F 	F 	0.17357	0.2538	0.69346	-0.523
Mof_F 	F 	0.05434	0.7451	0.61116	-0.455
Mof_F 	F 	0.07849	0.5954	0.54361	-0.425
Mof_F 	F 	0.16686	0.81981	0.59219	-0.505
Mof_O 	O 	0.4812	0.2985	0.54829	-0.44
Mof_O 	O 	0.47514	0.7714	0.92695	-0.453
Mof_O 	O 	0.38523	0.0216	0.90224	-0.442
Mof_O 	O 	0.38858	0.0523	0.51893	-0.456
Mof_N 	N 	0.67266	0.3246	0.5366	-0.227
Mof_N 	N 	0.78029	0.5324	0.58343	-0.128
Mof_C 	C 	0.96007	0.755	0.72037	0.053
Mof_C 	C 	0.93936	0.9408	0.70482	0.136
Mof_C 	C 	0.86657	0.9978	0.65084	-0.044
Mof_H 	H 	0.8537	0.1227	0.6417	0.099
Mof_C 	C 	0.81373	0.8612	0.61104	-0.066
Mof_H 	H 	0.7643	0.8937	0.5741	0.083
Mof_C 	C 	0.83396	0.675	0.62595	0.14
Mof_C 	C 	0.90604	0.6193	0.68039	-0.08
Mof_H 	H 	0.9179	0.4944	0.6899	0.152
Mof_C 	C 	0.69666	0.4702	0.57303	0.112
Mof_H 	H 	0.6604	0.5234	0.5895	0.003
Mof_C 	C 	0.74412	0.2934	0.52216	0.031
Mof_H 	H 	0.7463	0.1993	0.4967	0.066
Mof_C 	C 	0.81069	0.4201	0.55065	0.003
Mof_H 	H 	0.8662	0.4295	0.5485	0.147
Mof_C 	C 	0.41235	0.2085	0.54402	0.419
Mof_C 	C 	0.35365	0.2944	0.57062	-0.242
Mof_C 	C 	0.37494	0.4655	0.59918	0.227
Mof_H 	H 	0.4256	0.5307	0.6013	-0.022
Mof_C 	C 	0.32101	0.54	0.6246	-0.35
Mof_H 	H 	0.3364	0.6546	0.6441	0.185
Mof_C 	C 	0.24477	0.4471	0.62149	0.419
Mof_C 	C 	0.22225	0.2777	0.59131	-0.344
Mof_H 	H 	0.1702	0.2148	0.5876	0.282
Mof_C 	C 	0.27643	0.2021	0.56672	0.252
Mof_H 	H 	0.261	0.0876	0.5472	0.001
Mof_C 	C 	0.18492	0.5408	0.64842	-0.541
Mof_C 	C 	0.24501	0.6381	0.71016	0.407
Mof_C 	C 	0.40935	0.8678	0.89024	0.421
Mof_C 	C 	0.35366	0.7891	0.82677	-0.234
Mof_C 	C 	0.28145	0.8888	0.78277	0.225
Mof_H 	H 	0.2693	0.0077	0.792	0.011
Mof_C 	C 	0.22714	0.8142	0.7254	-0.338
Mof_H 	H 	0.1783	0.8823	0.6968	0.263
Mof_C 	C 	0.31805	0.5392	0.75419	-0.339
Mof_H 	H 	0.3313	0.4215	0.7447	0.188
Mof_C 	C 	0.37118	0.6131	0.81173	0.219
Mof_H 	H 	0.4192	0.5441	0.8407	-0.019
Mof_C 	C 	0.12059	0.6756	0.59885	0.984
Mof_C 	C 	0.12503	0.3984	0.6621	0.993
Mof_Co	Co	0.55854	0.83728	0.01532	1.157
Mof_F 	F 	0.05517	0.6682	0.11154	-0.447
Mof_F 	F 	0.0881	0.5269	0.19625	-0.493
Mof_F 	F 	0.17357	0.7462	0.19346	-0.523
Mof_F 	F 	0.05434	0.2549	0.11116	-0.455
Mof_F 	F 	0.07849	0.4046	0.04361	-0.425
Mof_F 	F 	0.16686	0.18019	0.09219	-0.505
Mof_O 	O 	0.4812	0.7015	0.04829	-0.44
Mof_O 	O 	0.47514	0.2286	0.42695	-0.453
Mof_O 	O 	0.38523	0.9784	0.40224	-0.442
Mof_O 	O 	0.38858	0.9477	0.01893	-0.456
Mof_N 	N 	0.67266	0.6754	0.0366	-0.227
Mof_N 	N 	0.78029	0.4676	0.08343	-0.128
Mof_C 	C 	0.96007	0.245	0.22037	0.051
Mof_C 	C 	0.93936	0.0592	0.20482	0.135
Mof_C 	C 	0.86657	0.0022	0.15084	-0.045
Mof_H 	H 	0.8537	0.8773	0.1417	0.099
Mof_C 	C 	0.81373	0.1388	0.11104	-0.066
Mof_H 	H 	0.7643	0.1063	0.0741	0.083
Mof_C 	C 	0.83396	0.325	0.12595	0.139
Mof_C 	C 	0.90604	0.3807	0.18039	-0.079
Mof_H 	H 	0.9179	0.5056	0.1899	0.151
Mof_C 	C 	0.69666	0.5298	0.07303	0.112
Mof_H 	H 	0.6604	0.4766	0.0895	0.003
Mof_C 	C 	0.74412	0.7066	0.02216	0.028
Mof_H 	H 	0.7463	0.8007	0.9967	0.069
Mof_C 	C 	0.81069	0.5799	0.05065	0.005
Mof_H 	H 	0.8662	0.5705	0.0485	0.146
Mof_C 	C 	0.41235	0.7915	0.04402	0.419
Mof_C 	C 	0.35365	0.7056	0.07062	-0.242
Mof_C 	C 	0.37494	0.5345	0.09918	0.227
Mof_H 	H 	0.4256	0.4693	0.1013	-0.022
Mof_C 	C 	0.32101	0.46	0.1246	-0.35
Mof_H 	H 	0.3364	0.3454	0.1441	0.185
Mof_C 	C 	0.24477	0.5529	0.12149	0.419
Mof_C 	C 	0.22225	0.7223	0.09131	-0.344
Mof_H 	H 	0.1702	0.7852	0.0876	0.282
Mof_C 	C 	0.27643	0.7979	0.06672	0.252
Mof_H 	H 	0.261	0.9124	0.0472	0.001
Mof_C 	C 	0.18492	0.4592	0.14842	-0.541
Mof_C 	C 	0.24501	0.3619	0.21016	0.408
Mof_C 	C 	0.40935	0.1322	0.39024	0.421
Mof_C 	C 	0.35366	0.2109	0.32677	-0.235
Mof_C 	C 	0.28145	0.1112	0.28277	0.225
Mof_H 	H 	0.2693	0.9923	0.292	0.011
Mof_C 	C 	0.22714	0.1858	0.2254	-0.338
Mof_H 	H 	0.1783	0.1177	0.1968	0.263
Mof_C 	C 	0.31805	0.4608	0.25419	-0.339
Mof_H 	H 	0.3313	0.5785	0.2447	0.188
Mof_C 	C 	0.37118	0.3869	0.31173	0.219
Mof_H 	H 	0.4192	0.4559	0.3407	-0.019
Mof_C 	C 	0.12059	0.3244	0.09885	0.984
Mof_C 	C 	0.12503	0.6016	0.1621	0.993
Mof_Co	Co	0.44146	0.83728	0.48468	1.157
Mof_F 	F 	0.94483	0.6682	0.38846	-0.454
Mof_F 	F 	0.9119	0.5269	0.30375	-0.498
Mof_F 	F 	0.82643	0.7462	0.30654	-0.524
Mof_F 	F 	0.94566	0.2549	0.38884	-0.462
Mof_F 	F 	0.92151	0.4046	0.45639	-0.431
Mof_F 	F 	0.83314	0.18019	0.40781	-0.507
Mof_O 	O 	0.5188	0.7015	0.45171	-0.44
Mof_O 	O 	0.52486	0.2286	0.07305	-0.454
Mof_O 	O 	0.61477	0.9784	0.09776	-0.442
Mof_O 	O 	0.61142	0.9477	0.48107	-0.456
Mof_N 	N 	0.32734	0.6754	0.4634	-0.227
Mof_N 	N 	0.21971	0.4676	0.41657	-0.128
Mof_C 	C 	0.03993	0.245	0.27963	0.083
Mof_C 	C 	0.06064	0.0592	0.29518	0.137
Mof_C 	C 	0.13343	0.0022	0.34916	-0.039
Mof_H 	H 	0.1463	0.8773	0.3583	0.1
Mof_C 	C 	0.18627	0.1388	0.38896	-0.071
Mof_H 	H 	0.2357	0.1063	0.4259	0.085
Mof_C 	C 	0.16604	0.325	0.37405	0.148
Mof_C 	C 	0.09396	0.3807	0.31961	-0.094
Mof_H 	H 	0.0821	0.5056	0.3101	0.162
Mof_C 	C 	0.30334	0.5298	0.42697	0.113
Mof_H 	H 	0.3396	0.4766	0.4105	0.003
Mof_C 	C 	0.25588	0.7066	0.47784	0.032
Mof_H 	H 	0.2537	0.8007	0.5033	0.067
Mof_C 	C 	0.18931	0.5799	0.44935	0.004
Mof_H 	H 	0.1338	0.5705	0.4515	0.151
Mof_C 	C 	0.58765	0.7915	0.45598	0.419
Mof_C 	C 	0.64635	0.7056	0.42938	-0.242
Mof_C 	C 	0.62506	0.5345	0.40082	0.226
Mof_H 	H 	0.5744	0.4693	0.3987	-0.022
Mof_C 	C 	0.67899	0.46	0.3754	-0.35
Mof_H 	H 	0.6636	0.3454	0.3559	0.185
Mof_C 	C 	0.75523	0.5529	0.37851	0.419
Mof_C 	C 	0.77775	0.7223	0.40869	-0.344
Mof_H 	H 	0.8298	0.7852	0.4124	0.281
Mof_C 	C 	0.72357	0.7979	0.43328	0.251
Mof_H 	H 	0.739	0.9124	0.4528	0.001
Mof_C 	C 	0.81508	0.4592	0.35158	-0.542
Mof_C 	C 	0.75499	0.3619	0.28984	0.407
Mof_C 	C 	0.59065	0.1322	0.10976	0.421
Mof_C 	C 	0.64634	0.2109	0.17323	-0.234
Mof_C 	C 	0.71855	0.1112	0.21723	0.224
Mof_H 	H 	0.7307	0.9923	0.208	0.011
Mof_C 	C 	0.77286	0.1858	0.2746	-0.338
Mof_H 	H 	0.8217	0.1177	0.3032	0.262
Mof_C 	C 	0.68195	0.4608	0.24581	-0.339
Mof_H 	H 	0.6687	0.5785	0.2553	0.188
Mof_C 	C 	0.62882	0.3869	0.18827	0.219
Mof_H 	H 	0.5808	0.4559	0.1593	-0.019
Mof_C 	C 	0.87941	0.3244	0.40115	0.985
Mof_C 	C 	0.87497	0.6016	0.3379	0.994
Mof_O 	O 	6.05783e-33	0.0573	0.75	-0.14
Mof_O 	O 	-2.22439e-17	0.9427	0.25	-0.139
_end
