data_functionalizedCrystal
_audit_creation_method	'EQeq! by Chris Wilmer'
_symmetry_space_group_name_H-M	'P1'
_symmetry_Int_Tables_number	1
_symmetry_cell_setting	triclinic
loop_
_symmetry_equiv_pos_as_xyz
  x,y,z
_cell_length_a	16.615
_cell_length_b	30.564
_cell_length_c	28.217
_cell_angle_alpha	90
_cell_angle_beta	99.25
_cell_angle_gamma	90
loop_
_atom_site_label
_atom_site_type_symbol
_atom_site_fract_x
_atom_site_fract_y
_atom_site_fract_z
_atom_site_charge
Mof_Fe	Fe	0.2296	0.65423	0.50453	0.947
Mof_Fe	Fe	0.3016	0.70838	0.40614	1.034
Mof_Fe	Fe	0.1232	0.71839	0.40623	1.054
Mof_Fe	Fe	0.244	0.77208	0.4942	1.071
Mof_Fe	Fe	0.1692	0.54236	0.52209	0.982
Mof_Fe	Fe	0.203	0.60836	0.62013	1.068
Mof_Fe	Fe	0.3416	0.5615	0.56168	0.99
Mof_Fe	Fe	0.3241	0.28194	0.44705	0.919
Mof_Fe	Fe	0.3793	0.38326	0.50932	1.035
Mof_Fe	Fe	0.2096	0.3558	0.51261	0.976
Mof_Fe	Fe	0.354	0.29382	0.5769	1.036
Mof_Fe	Fe	0.4247	0.25265	0.34462	0.974
Mof_Fe	Fe	0.2453	0.25486	0.32327	1.077
Mof_Fe	Fe	0.3321	0.17286	0.3971	1.018
Mof_Fe	Fe	0.2808	0.34312	0.03344	1.006
Mof_Fe	Fe	0.2122	0.26786	0.11848	1.053
Mof_Fe	Fe	0.3829	0.29733	0.14471	1
Mof_Fe	Fe	0.3416	0.22842	0.04872	1.024
Mof_Fe	Fe	0.174	0.44509	0.00202	0.995
Mof_Fe	Fe	0.3476	0.44795	0.9939	1.016
Mof_Fe	Fe	0.2337	0.38536	0.91139	1.128
Mof_Fe	Fe	0.211	0.71864	0.09391	0.993
Mof_Fe	Fe	0.2423	0.7105	0.96906	1.077
Mof_Fe	Fe	0.1313	0.63117	0.01147	0.962
Mof_Fe	Fe	0.3082	0.6267	0.04488	1.02
Mof_Fe	Fe	0.1642	0.8249	0.14015	0.957
Mof_Fe	Fe	0.1255	0.73391	0.20337	1.015
Mof_Fe	Fe	0.2967	0.76139	0.2116	0.997
Mof_O 	O 	0.5187	0.5923	0.4898	-0.513
Mof_O 	O 	0.4449	0.5574	0.5346	-0.53
Mof_O 	O 	0.3398	0.6203	0.5301	-0.354
Mof_O 	O 	0.2866	0.6566	0.4475	-0.41
Mof_O 	O 	0.3715	0.6667	0.3788	-0.456
Mof_O 	O 	0.433	0.6013	0.3938	-0.434
Mof_O 	O 	0.0469	0.5515	0.3904	-0.399
Mof_O 	O 	0.1	0.526	0.4565	-0.434
Mof_O 	O 	0.1759	0.5974	0.4805	-0.383
Mof_O 	O 	0.1263	0.6741	0.4581	-0.377
Mof_O 	O 	0.9487	0.6327	0.3965	-0.415
Mof_O 	O 	0.0295	0.6793	0.3765	-0.414
Mof_O 	O 	0.1724	0.6611	0.6573	-0.414
Mof_O 	O 	0.1289	0.7283	0.6505	-0.38
Mof_O 	O 	0.1821	0.6524	0.5662	-0.383
Mof_O 	O 	0.2669	0.7133	0.5301	-0.382
Mof_O 	O 	0.2558	0.7944	0.5606	-0.415
Mof_O 	O 	0.28	0.7749	0.6373	-0.496
Mof_O 	O 	0.3671	0.4966	0.5867	-0.352
Mof_O 	O 	0.3957	0.4316	0.5583	-0.372
Mof_O 	O 	0.2736	0.5271	0.5043	-0.378
Mof_O 	O 	0.2668	0.4072	0.4815	-0.366
Mof_O 	O 	0.1537	0.4805	0.5465	-0.391
Mof_O 	O 	0.1757	0.4108	0.5511	-0.381
Mof_O 	O 	0.3156	0.7788	0.2824	-0.364
Mof_O 	O 	0.3209	0.752	0.3554	-0.4
Mof_O 	O 	0.232	0.7136	0.2396	-0.391
Mof_O 	O 	0.1998	0.6921	0.365	-0.406
Mof_O 	O 	0.1001	0.7567	0.3455	-0.368
Mof_O 	O 	0.0997	0.7554	0.2682	-0.385
Mof_O 	O 	0.0139	0.329	0.4162	-0.22
Mof_O 	O 	0.1051	0.3647	0.4716	-0.374
Mof_O 	O 	0.2193	0.3068	0.4666	-0.382
Mof_O 	O 	0.2557	0.2893	0.3812	-0.414
Mof_O 	O 	0.093	0.3521	0.3264	-0.237
Mof_O 	O 	0.1559	0.2967	0.3046	-0.383
Mof_O 	O 	0.4715	0.4216	0.3958	-0.263
Mof_O 	O 	0.4385	0.4206	0.4645	-0.306
Mof_O 	O 	0.3679	0.3447	0.4555	-0.405
Mof_O 	O 	0.4297	0.2808	0.4105	-0.35
Mof_O 	O 	0.5066	0.2993	0.3408	-0.472
Mof_O 	O 	0.586	0.3498	0.3884	-0.459
Mof_O 	O 	0.2936	0.1284	0.5241	-0.482
Mof_O 	O 	0.3225	0.1313	0.4536	-0.515
Mof_O 	O 	0.3021	0.2161	0.4479	-0.379
Mof_O 	O 	0.3746	0.2654	0.5183	-0.362
Mof_O 	O 	0.3937	0.2338	0.6033	-0.64
Mof_O 	O 	0.4286	0.1694	0.5826	-0.587
Mof_O 	O 	0.2174	0.2286	0.1778	-0.376
Mof_O 	O 	0.2291	0.2294	0.2588	-0.386
Mof_O 	O 	0.2816	0.3049	0.1728	-0.373
Mof_O 	O 	0.3344	0.2884	0.303	-0.419
Mof_O 	O 	0.425	0.2564	0.1999	-0.365
Mof_O 	O 	0.4382	0.2367	0.2744	-0.365
Mof_O 	O 	0.2171	0.2611	0.8662	-0.26
Mof_O 	O 	0.2233	0.3323	0.8692	-0.374
Mof_O 	O 	0.2371	0.3396	0.9644	-0.402
Mof_O 	O 	0.336	0.2873	0.0147	-0.392
Mof_O 	O 	0.3924	0.2368	0.9211	-0.294
Mof_O 	O 	0.3634	0.2096	0.9853	-0.368
Mof_O 	O 	0.4693	0.4178	0.169	-0.795
Mof_O 	O 	0.4423	0.3498	0.1799	-0.645
Mof_O 	O 	0.3428	0.3452	0.0978	-0.399
Mof_O 	O 	0.365	0.3891	0.0229	-0.423
Mof_O 	O 	0.4484	0.4607	0.0388	-0.358
Mof_O 	O 	0.5525	0.4331	0.0844	-0.33
Mof_O 	O 	0.1038	0.4522	0.0552	-0.388
Mof_O 	O 	0.0549	0.4194	0.1085	-0.386
Mof_O 	O 	0.2143	0.3938	0.0416	-0.409
Mof_O 	O 	0.1909	0.3122	0.064	-0.387
Mof_O 	O 	0.1115	0.293	0.1306	-0.364
Mof_O 	O 	0.996	0.3308	0.0985	-0.409
Mof_O 	O 	0.1236	0.5769	0.9708	-0.345
Mof_O 	O 	0.1324	0.5013	0.9705	-0.322
Mof_O 	O 	0.2132	0.59	0.0539	-0.373
Mof_O 	O 	0.2753	0.4766	0.0361	-0.373
Mof_O 	O 	0.3379	0.5788	0.9993	-0.345
Mof_O 	O 	0.3468	0.5132	0.9764	-0.362
Mof_O 	O 	0.2535	0.7701	0.9478	-0.372
Mof_O 	O 	0.2497	0.7405	0.0358	-0.388
Mof_O 	O 	0.163	0.7799	0.0894	-0.379
Mof_O 	O 	0.1016	0.8636	0.0061	-0.371
Mof_O 	O 	0.1439	0.8626	0.0818	-0.362
Mof_O 	O 	0.507	0.7005	0.1991	-0.398
Mof_O 	O 	0.4026	0.7301	0.23	-0.485
Mof_O 	O 	0.3068	0.7372	0.1449	-0.394
Mof_O 	O 	0.2815	0.6659	0.0962	-0.399
Mof_O 	O 	0.438	0.612	0.1766	-0.253
Mof_O 	O 	0.3808	0.6018	0.0983	-0.346
Mof_O 	O 	0.9343	0.633	0.0733	-0.296
Mof_O 	O 	0.0312	0.6103	0.0376	-0.326
Mof_O 	O 	0.1189	0.6812	0.0575	-0.378
Mof_O 	O 	0.1557	0.7005	0.1466	-0.393
Mof_O 	O 	0.0612	0.6788	0.2083	-0.335
Mof_O 	O 	0.0222	0.6139	0.1692	-0.32
Mof_O 	O 	0.3683	0.783	0.4959	-0.429
Mof_O 	O 	0.4027	0.731	0.4467	-0.481
Mof_O 	O 	0.1186	0.7753	0.5048	-0.368
Mof_O 	O 	0.0494	0.7591	0.4297	-0.561
Mof_O 	O 	0.2312	0.8332	0.47	-0.492
Mof_O 	O 	0.2003	0.8829	0.4163	-0.711
Mof_O 	O 	0.0601	0.5558	0.5383	-0.475
Mof_O 	O 	0.0788	0.5942	0.6085	-0.399
Mof_O 	O 	0.3251	0.6267	0.6497	-0.473
Mof_O 	O 	0.4064	0.5786	0.6275	-0.548
Mof_O 	O 	0.2113	0.5053	0.7158	-0.65
Mof_O 	O 	0.2152	0.5703	0.6796	-0.535
Mof_O 	O 	0.2396	0.2649	0.5729	-0.478
Mof_O 	O 	0.1479	0.3204	0.5559	-0.401
Mof_O 	O 	0.454	0.1747	0.4248	-0.43
Mof_O 	O 	0.5137	0.2096	0.3685	-0.419
Mof_O 	O 	0.1539	0.2144	0.3396	-0.4
Mof_O 	O 	0.2154	0.1545	0.3753	-0.417
Mof_O 	O 	0.3715	0.1213	0.3655	-0.453
Mof_O 	O 	0.4914	0.3642	0.5414	-0.508
Mof_O 	O 	0.4773	0.3176	0.5948	-0.434
Mof_O 	O 	0.3397	0.3119	0.6458	-0.587
Mof_O 	O 	0.2979	0.3499	0.7024	-0.556
Mof_O 	O 	0.4909	0.2868	0.1209	-0.601
Mof_O 	O 	0.4678	0.2341	0.0697	-0.472
Mof_O 	O 	0.2249	0.2114	0.0196	-0.436
Mof_O 	O 	0.1535	0.2196	0.0833	-0.431
Mof_O 	O 	0.3499	0.379	0.9078	-0.593
Mof_O 	O 	0.4187	0.4391	0.945	-0.415
Mof_O 	O 	0.0736	0.42	0.9616	-0.369
Mof_O 	O 	0.1186	0.3879	0.8946	-0.402
Mof_O 	O 	0.357	0.1654	0.0704	-0.409
Mof_O 	O 	0.2341	0.4223	0.8526	-0.566
Mof_O 	O 	0.2052	0.4829	0.816	-0.605
Mof_O 	O 	0.1146	0.7269	0.9525	-0.371
Mof_O 	O 	0.0538	0.6591	0.9557	-0.345
Mof_O 	O 	0.3673	0.7066	0.9751	-0.438
Mof_O 	O 	0.4076	0.6627	0.031	-0.493
Mof_O 	O 	0.0434	0.8213	0.1411	-0.443
Mof_O 	O 	0.0186	0.7582	0.1691	-0.456
Mof_O 	O 	0.2792	0.8452	0.1396	-0.485
Mof_O 	O 	0.3565	0.8182	0.203	-0.449
Mof_O 	O 	0.2287	0.6942	0.9029	-0.451
Mof_O 	O 	0.225	0.6407	0.8432	-0.501
Mof_O 	O 	0.2225	0.7421	0.4371	-0.598
Mof_O 	O 	0.2366	0.5696	0.5791	-0.594
Mof_O 	O 	0.3181	0.3453	0.5433	-0.588
Mof_O 	O 	0.3302	0.2189	0.3513	-0.587
Mof_O 	O 	0.3132	0.2552	0.107	-0.59
Mof_O 	O 	0.2456	0.4316	0.9571	-0.578
Mof_O 	O 	0.2296	0.6556	0.9957	-0.572
Mof_O 	O 	0.1892	0.7815	0.1868	-0.593
Mof_C 	C 	0.4587	0.5858	0.5098	0.469
Mof_C 	C 	0.3952	0.6214	0.4936	-0.102
Mof_H 	H 	0.4242	0.6494	0.4978	0.078
Mof_C 	C 	0.3384	0.6238	0.4448	0.055
Mof_H 	H 	0.3077	0.5964	0.4394	0.023
Mof_C 	C 	0.3832	0.632	0.4028	0.324
Mof_C 	C 	0.0961	0.554	0.433	0.408
Mof_C 	C 	0.1264	0.6002	0.4394	0.008
Mof_H 	H 	0.1586	0.6068	0.4141	0.03
Mof_C 	C 	0.0723	0.6392	0.4451	-0.059
Mof_H 	H 	0.0446	0.6331	0.4726	0.057
Mof_C 	C 	0.0089	0.6535	0.4047	0.417
Mof_C 	C 	0.1574	0.6971	0.6312	0.314
Mof_C 	C 	0.1751	0.6975	0.5814	-0.042
Mof_H 	H 	0.1315	0.7126	0.56	0.058
Mof_C 	C 	0.2603	0.7187	0.5778	-0.014
Mof_H 	H 	0.3031	0.7014	0.5973	0.053
Mof_C 	C 	0.2639	0.766	0.5973	0.37
Mof_C 	C 	0.3587	0.4673	0.5527	0.303
Mof_C 	C 	0.3057	0.4831	0.5049	-0.035
Mof_H 	H 	0.3405	0.4817	0.4801	0.066
Mof_C 	C 	0.2377	0.4471	0.4919	-0.009
Mof_H 	H 	0.2007	0.4572	0.4634	0.052
Mof_C 	C 	0.1887	0.4463	0.5346	0.335
Mof_C 	C 	0.3026	0.7489	0.3124	0.332
Mof_C 	C 	0.2516	0.7096	0.2921	-0.036
Mof_H 	H 	0.2867	0.6838	0.2986	0.02
Mof_C 	C 	0.1771	0.7014	0.3163	-0.003
Mof_H 	H 	0.1468	0.6764	0.3007	0.036
Mof_C 	C 	0.122	0.7418	0.3096	0.362
Mof_C 	C 	0.0871	0.3369	0.4397	0.29
Mof_C 	C 	0.1574	0.3072	0.428	0.013
Mof_H 	H 	0.1367	0.2773	0.4222	0.046
Mof_C 	C 	0.1986	0.3216	0.3854	0.012
Mof_H 	H 	0.2273	0.3492	0.3936	0.032
Mof_C 	C 	0.1503	0.325	0.3333	0.323
Mof_C 	C 	0.4428	0.399	0.4268	0.287
Mof_C 	C 	0.4129	0.3528	0.417	0.005
Mof_H 	H 	0.3755	0.352	0.3863	0.015
Mof_C 	C 	0.4762	0.3181	0.4173	-0.025
Mof_H 	H 	0.5095	0.317	0.4493	0.078
Mof_C 	C 	0.5316	0.3264	0.3806	0.32
Mof_C 	C 	0.311	0.1485	0.4921	0.43
Mof_C 	C 	0.3093	0.1996	0.4915	0.015
Mof_H 	H 	0.2618	0.209	0.5055	0.034
Mof_C 	C 	0.3853	0.2191	0.522	-0.114
Mof_H 	H 	0.4324	0.2114	0.5067	0.078
Mof_C 	C 	0.4043	0.2052	0.5745	0.546
Mof_C 	C 	0.2335	0.246	0.2162	0.367
Mof_C 	C 	0.2696	0.2919	0.2192	-0.056
Mof_H 	H 	0.2292	0.3117	0.2293	0.06
Mof_C 	C 	0.3481	0.2956	0.2562	0.051
Mof_H 	H 	0.3729	0.3244	0.2539	-0.06
Mof_C 	C 	0.4054	0.2601	0.244	0.272
Mof_C 	C 	0.227	0.2968	0.889	0.327
Mof_C 	C 	0.2517	0.2984	0.9453	-0.006
Mof_H 	H 	0.2156	0.2778	0.9583	0.045
Mof_C 	C 	0.3382	0.2859	0.9675	0.009
Mof_H 	H 	0.3774	0.3072	0.9589	0.048
Mof_C 	C 	0.3602	0.2396	0.9533	0.351
Mof_C 	C 	0.4406	0.3821	0.1513	0.408
Mof_C 	C 	0.3831	0.3881	0.1044	-0.104
Mof_H 	H 	0.3444	0.4122	0.1056	0.078
Mof_C 	C 	0.4228	0.3891	0.0582	0.08
Mof_H 	H 	0.4554	0.3625	0.057	-0.007
Mof_C 	C 	0.48	0.4303	0.0589	0.306
Mof_C 	C 	0.1002	0.4211	0.0797	0.395
Mof_C 	C 	0.1644	0.3839	0.076	-0.037
Mof_H 	H 	0.1997	0.3818	0.1073	0.046
Mof_C 	C 	0.1236	0.3382	0.0646	0.007
Mof_H 	H 	0.0911	0.3388	0.0324	0.034
Mof_C 	C 	0.0687	0.3236	0.1013	0.322
Mof_C 	C 	0.1476	0.5428	0.9926	0.275
Mof_C 	C 	0.1998	0.5448	0.042	-0.013
Mof_H 	H 	0.1697	0.5314	0.0654	0.06
Mof_C 	C 	0.2787	0.5211	0.0432	-0.017
Mof_H 	H 	0.3142	0.5274	0.0737	0.067
Mof_C 	C 	0.3183	0.5381	0.0027	0.344
Mof_C 	C 	0.236	0.7873	0.0299	-0.009
Mof_H 	H 	0.2769	0.8019	0.0535	0.049
Mof_C 	C 	0.1545	0.797	0.0435	0.002
Mof_H 	H 	0.1099	0.7832	0.0217	0.047
Mof_C 	C 	0.15	0.8466	0.0414	0.325
Mof_C 	C 	0.4303	0.7089	0.1969	0.265
Mof_C 	C 	0.3619	0.7083	0.1519	0.047
Mof_H 	H 	0.3926	0.714	0.1256	0.038
Mof_C 	C 	0.3326	0.6624	0.1417	-0.015
Mof_H 	H 	0.2977	0.6549	0.1654	0.035
Mof_C 	C 	0.3899	0.6231	0.1382	0.286
Mof_C 	C 	0.0013	0.6389	0.0643	0.317
Mof_C 	C 	0.0605	0.6728	0.0856	-0.004
Mof_H 	H 	0.0301	0.7	0.0881	0.048
Mof_C 	C 	0.1062	0.6618	0.1358	-0.015
Mof_H 	H 	0.1436	0.6379	0.1317	0.047
Mof_C 	C 	0.0551	0.6464	0.1711	0.304
Mof_C 	C 	0.4126	0.7615	0.474	0.572
Mof_H 	H 	0.4664	0.771	0.4798	-0.138
Mof_C 	C 	0.0519	0.7735	0.4629	0.589
Mof_H 	H 	0.0043	0.7879	0.4674	-0.141
Mof_C 	C 	0.209	0.8492	0.4254	0.77
Mof_H 	H 	0.1993	0.8291	0.4004	-0.257
Mof_C 	C 	0.0348	0.5726	0.5707	0.475
Mof_H 	H 	0.9788	0.571	0.5703	-0.161
Mof_C 	C 	0.3893	0.6059	0.6512	0.682
Mof_H 	H 	0.4305	0.614	0.6759	-0.206
Mof_C 	C 	0.206	0.5294	0.6809	0.554
Mof_H 	H 	0.1927	0.5157	0.6512	-0.194
Mof_C 	C 	0.1749	0.2808	0.5695	0.496
Mof_H 	H 	0.135	0.2623	0.5779	-0.115
Mof_C 	C 	0.5128	0.1894	0.4064	0.483
Mof_H 	H 	0.564	0.1842	0.4243	-0.112
Mof_C 	C 	0.1497	0.1763	0.3552	0.433
Mof_H 	H 	0.099	0.1629	0.3526	-0.12
Mof_C 	C 	0.5203	0.3439	0.5722	0.648
Mof_H 	H 	0.5763	0.3458	0.5822	-0.176
Mof_C 	C 	0.322	0.3521	0.66	0.447
Mof_H 	H 	0.3254	0.3777	0.6427	-0.176
Mof_C 	C 	0.507	0.2616	0.0946	0.727
Mof_H 	H 	0.5619	0.2619	0.0914	-0.184
Mof_C 	C 	0.169	0.2103	0.043	0.486
Mof_H 	H 	0.1226	0.1987	0.0243	-0.098
Mof_C 	C 	0.399	0.4	0.915	0.619
Mof_H 	H 	0.4414	0.3923	0.8985	-0.174
Mof_C 	C 	0.06	0.398	0.921	0.361
Mof_H 	H 	0.007	0.3887	0.9098	-0.066
Mof_C 	C 	0.335	0.1621	0.1107	0.485
Mof_H 	H 	0.2927	0.1785	0.1192	-0.141
Mof_C 	C 	0.228	0.4611	0.854	0.585
Mof_H 	H 	0.2412	0.4755	0.8833	-0.202
Mof_C 	C 	0.059	0.7006	0.9385	0.364
Mof_H 	H 	0.017	0.7099	0.9146	-0.074
Mof_C 	C 	0.421	0.6883	0.0043	0.65
Mof_H 	H 	0.4751	0.6961	0.0041	-0.144
Mof_C 	C 	0.995	0.7911	0.1498	0.559
Mof_H 	H 	0.9392	0.7951	0.1407	-0.13
Mof_C 	C 	0.342	0.8419	0.1677	0.558
Mof_H 	H 	0.3847	0.8595	0.1616	-0.159
Mof_C 	C 	0.223	0.6568	0.8888	0.468
Mof_H 	H 	0.2153	0.636	0.9118	-0.144
Mof_C 	C 	0.354	0.1245	0.3181	0.341
Mof_H 	H 	0.3223	0.1446	0.2988	-0.123
Mof_O 	O 	0.246	0.8442	0.9765	-0.363
Mof_O 	O 	0.398	0.0901	0.3063	-0.391
Mof_O 	O 	0.374	0.1352	0.1387	-0.457
Mof_C 	C 	0.256	0.7991	0.9797	0.27
Mof_Ba	Ba	0.59176	0.58135	0.40908	1.762
Mof_Ba	Ba	0.25988	0.86804	0.63246	1.605
Mof_Ba	Ba	0.24504	0.42345	0.74434	1.415
Mof_Ba	Ba	0.3697	0.04512	0.43271	1.783
Mof_Ba	Ba	0.2212	0.57094	0.78884	1.52
Mof_Ba	Ba	0.1335	0.93165	0.49094	1.511
Mof_Ba	Ba	0.1183	0.89563	0.91739	1.604
Mof_Ba	Ba	0.4031	0.237	0.71278	4.068
Mof_Ba	Ba	0.1699	0.7057	0.75694	1.85
Mof_Ba	Ba	0.9213	0.5638	0.3165	1.114
Mof_O 	O 	0.2891	0.8907	0.5691	-0.409
Mof_O 	O 	0.3007	0.6474	0.7509	-0.37
Mof_O 	O 	0.3802	0.9337	0.6501	-0.554
Mof_O 	O 	0.321	0.0327	0.5216	-0.463
Mof_O 	O 	0.1116	0.6386	0.751	-0.563
Mof_O 	O 	0.25	0.2679	0.719	-0.481
Mof_O 	O 	0.5102	0.286	0.6941	-0.573
Mof_O 	O 	0.345	0.1822	0.68	-0.062
Mof_O 	O 	0.271	0.7213	0.8084	-0.468
Mof_O 	O 	0.186	0.9519	0.593	-0.373
Mof_O 	O 	0.442	0.3038	0.7613	-1.183
Mof_C 	C 	0.0778	0.9715	0.8753	0.106
Mof_H 	H 	0.0351	0.9627	0.8518	-0.049
Mof_O 	O 	0.0682	0.9829	0.9176	-0.286
Mof_O 	O 	0.1547	0.9736	0.8685	-0.41
Mof_C 	C 	0.266	0.9708	0.4226	0.231
Mof_H 	H 	0.2144	0.9781	0.4059	-0.229
Mof_O 	O 	0.325	0.9642	0.3995	-0.454
Mof_O 	O 	0.276	0.9675	0.469	-0.401
Mof_O 	O 	0.1322	0.7962	0.7685	-0.424
Mof_O 	O 	0.487	0.5053	0.395	-0.192
Mof_O 	O 	0.208	0.915	0.715	-0.68
Mof_O 	O 	0.3846	0.1493	0.7586	-0.065
Mof_O 	O 	0.1218	0.8612	0.5571	-0.325
Mof_O 	O 	0.285	0.0111	0.3437	-0.454
Mof_O 	O 	0.5622	0.4605	0.2494	-4.644
Mof_C 	C 	0.905	0.397	0.353	0.2
Mof_H 	H 	0.9073	0.377	0.3775	-0.079
Mof_O 	O 	0.964	0.405	0.328	-0.221
Mof_O 	O 	0.842	0.422	0.337	-0.345
Mof_C 	C 	0.635	0.462	0.373	1.173
Mof_H 	H 	0.619	0.4909	0.3732	-0.508
Mof_O 	O 	0.658	0.444	0.335	-0.975
Mof_O 	O 	0.636	0.436	0.41	-0.419
Mof_C 	C 	0.608	0.5867	0.2001	0.525
Mof_H 	H 	0.6262	0.5689	0.2265	-0.214
Mof_O 	O 	0.609	0.6301	0.2027	-0.307
Mof_Ba	Ba	0.4978	0.1827	0.6843	1.004
Mof_Ba	Ba	0.3804	0.2878	0.7506	1.496
Mof_O 	O 	0.393	0.1968	0.7107	-2.074
Mof_O 	O 	0.257	0.2812	0.7671	-0.327
Mof_O 	O 	0.507	0.5046	0.4394	-0.164
Mof_Ba	Ba	0.5909	0.4287	0.2487	9.354
Mof_Ba	Ba	0.6001	0.4807	0.177	-0.348
Mof_Ba	Ba	0.1221	0.7238	0.7996	0.173
Mof_O 	O 	0.286	0.7602	0.8366	-0.172
Mof_Ba	Ba	0.2049	0.934	0.3331	1.278
Mof_Ba	Ba	0.6814	0.5848	0.1093	2.206
Mof_O 	O 	0.59	0.6586	0.1384	-0.145
Mof_O 	O 	0.635	0.6694	0.1584	-0.157
Mof_O 	O 	0.5817	0.5714	0.1583	-0.946
Mof_C 	C 	0.57	0.5727	0.1124	-0.913
Mof_H 	H 	0.5503	0.5823	0.1396	0.883
Mof_O 	O 	0.518	0.5517	0.0793	0.052
Mof_C 	C 	0.694	0.486	0.086	0.35
Mof_H 	H 	0.7196	0.4591	0.0826	-0.165
Mof_O 	O 	0.674	0.498	0.127	-0.455
Mof_O 	O 	0.677	0.513	0.05	-0.421
Mof_Ba	Ba	0.404	0.0716	0.2056	1.128
Mof_O 	O 	0.305	0.8977	0.5329	0.004
Mof_Fe	Fe	0.7704	0.15423	0.49547	0.948
Mof_Fe	Fe	0.6984	0.20838	0.59386	1.035
Mof_Fe	Fe	0.8768	0.21839	0.59377	1.054
Mof_Fe	Fe	0.756	0.27208	0.5058	1.071
Mof_Fe	Fe	0.8308	0.04236	0.47791	0.977
Mof_Fe	Fe	0.797	0.10836	0.37987	1.068
Mof_Fe	Fe	0.6584	0.0615	0.43832	0.986
Mof_Fe	Fe	0.6759	0.78194	0.55295	0.919
Mof_Fe	Fe	0.6207	0.88326	0.49068	1.035
Mof_Fe	Fe	0.7904	0.8558	0.48739	0.976
Mof_Fe	Fe	0.646	0.79382	0.4231	1.036
Mof_Fe	Fe	0.5753	0.75265	0.65538	0.974
Mof_Fe	Fe	0.7547	0.75486	0.67673	1.077
Mof_Fe	Fe	0.6679	0.67286	0.6029	1.018
Mof_Fe	Fe	0.7192	0.84312	0.96656	1.006
Mof_Fe	Fe	0.7878	0.76786	0.88152	1.053
Mof_Fe	Fe	0.6171	0.79733	0.85529	1
Mof_Fe	Fe	0.6584	0.72842	0.95128	1.024
Mof_Fe	Fe	0.826	0.94509	0.99798	1
Mof_Fe	Fe	0.6524	0.94795	0.0061	1.019
Mof_Fe	Fe	0.7663	0.88536	0.08861	1.128
Mof_Fe	Fe	0.789	0.21864	0.90609	0.994
Mof_Fe	Fe	0.7577	0.2105	0.03094	1.077
Mof_Fe	Fe	0.8687	0.13117	0.98853	0.962
Mof_Fe	Fe	0.6918	0.1267	0.95512	1.02
Mof_Fe	Fe	0.8358	0.3249	0.85985	0.957
Mof_Fe	Fe	0.8745	0.23391	0.79663	1.015
Mof_Fe	Fe	0.7033	0.26139	0.7884	0.997
Mof_O 	O 	0.4813	0.0923	0.5102	-0.513
Mof_O 	O 	0.5551	0.0574	0.4654	-0.531
Mof_O 	O 	0.6602	0.1203	0.4699	-0.353
Mof_O 	O 	0.7134	0.1566	0.5525	-0.41
Mof_O 	O 	0.6285	0.1667	0.6212	-0.456
Mof_O 	O 	0.567	0.1013	0.6062	-0.434
Mof_O 	O 	0.9531	0.0515	0.6096	-0.4
Mof_O 	O 	0.9	0.026	0.5435	-0.437
Mof_O 	O 	0.8241	0.0974	0.5195	-0.382
Mof_O 	O 	0.8737	0.1741	0.5419	-0.377
Mof_O 	O 	0.0513	0.1327	0.6035	-0.415
Mof_O 	O 	0.9705	0.1793	0.6235	-0.414
Mof_O 	O 	0.8276	0.1611	0.3427	-0.414
Mof_O 	O 	0.8711	0.2283	0.3495	-0.38
Mof_O 	O 	0.8179	0.1524	0.4338	-0.383
Mof_O 	O 	0.7331	0.2133	0.4699	-0.382
Mof_O 	O 	0.7442	0.2944	0.4394	-0.415
Mof_O 	O 	0.72	0.2749	0.3627	-0.496
Mof_O 	O 	0.6329	0.9966	0.4133	-0.346
Mof_O 	O 	0.6043	0.9316	0.4417	-0.371
Mof_O 	O 	0.7264	0.0271	0.4957	-0.385
Mof_O 	O 	0.7332	0.9072	0.5185	-0.366
Mof_O 	O 	0.8463	0.9805	0.4535	-0.386
Mof_O 	O 	0.8243	0.9108	0.4489	-0.38
Mof_O 	O 	0.6844	0.2788	0.7176	-0.364
Mof_O 	O 	0.6791	0.252	0.6446	-0.399
Mof_O 	O 	0.768	0.2136	0.7604	-0.391
Mof_O 	O 	0.8002	0.1921	0.635	-0.407
Mof_O 	O 	0.8999	0.2567	0.6545	-0.368
Mof_O 	O 	0.9003	0.2554	0.7318	-0.385
Mof_O 	O 	0.9861	0.829	0.5838	-0.22
Mof_O 	O 	0.8949	0.8647	0.5284	-0.374
Mof_O 	O 	0.7807	0.8068	0.5334	-0.382
Mof_O 	O 	0.7443	0.7893	0.6188	-0.414
Mof_O 	O 	0.907	0.8521	0.6736	-0.236
Mof_O 	O 	0.8441	0.7967	0.6954	-0.383
Mof_O 	O 	0.5285	0.9216	0.6042	-0.26
Mof_O 	O 	0.5615	0.9206	0.5355	-0.304
Mof_O 	O 	0.6321	0.8447	0.5445	-0.405
Mof_O 	O 	0.5703	0.7808	0.5895	-0.35
Mof_O 	O 	0.4934	0.7993	0.6592	-0.472
Mof_O 	O 	0.414	0.8498	0.6116	-0.459
Mof_O 	O 	0.7064	0.6284	0.4759	-0.483
Mof_O 	O 	0.6775	0.6313	0.5464	-0.515
Mof_O 	O 	0.6979	0.7161	0.5521	-0.379
Mof_O 	O 	0.6254	0.7654	0.4817	-0.362
Mof_O 	O 	0.6063	0.7338	0.3967	-0.641
Mof_O 	O 	0.5714	0.6694	0.4174	-0.588
Mof_O 	O 	0.7826	0.7286	0.8222	-0.376
Mof_O 	O 	0.7709	0.7294	0.7412	-0.385
Mof_O 	O 	0.7184	0.8049	0.8272	-0.372
Mof_O 	O 	0.6656	0.7884	0.697	-0.419
Mof_O 	O 	0.575	0.7564	0.8001	-0.366
Mof_O 	O 	0.5618	0.7367	0.7256	-0.365
Mof_O 	O 	0.7829	0.7611	0.1338	-0.26
Mof_O 	O 	0.7767	0.8323	0.1308	-0.374
Mof_O 	O 	0.7629	0.8396	0.0356	-0.402
Mof_O 	O 	0.664	0.7873	0.9853	-0.392
Mof_O 	O 	0.6076	0.7368	0.0789	-0.294
Mof_O 	O 	0.6366	0.7096	0.0147	-0.368
Mof_O 	O 	0.5307	0.9178	0.831	-0.795
Mof_O 	O 	0.5577	0.8498	0.8201	-0.644
Mof_O 	O 	0.6572	0.8452	0.9022	-0.399
Mof_O 	O 	0.635	0.8891	0.9771	-0.424
Mof_O 	O 	0.5516	0.9607	0.9612	-0.355
Mof_O 	O 	0.4475	0.9331	0.9156	-0.329
Mof_O 	O 	0.8962	0.9522	0.9448	-0.385
Mof_O 	O 	0.9451	0.9194	0.8915	-0.385
Mof_O 	O 	0.7857	0.8938	0.9584	-0.41
Mof_O 	O 	0.8091	0.8122	0.936	-0.387
Mof_O 	O 	0.8885	0.793	0.8694	-0.364
Mof_O 	O 	0.004	0.8308	0.9015	-0.409
Mof_O 	O 	0.8764	0.0769	0.0292	-0.346
Mof_O 	O 	0.8676	0.0013	0.0295	-0.329
Mof_O 	O 	0.7868	0.09	0.9461	-0.374
Mof_O 	O 	0.7247	0.9766	0.9639	-0.365
Mof_O 	O 	0.6621	0.0788	0.0007	-0.346
Mof_O 	O 	0.6532	0.0132	0.0236	-0.368
Mof_O 	O 	0.7465	0.2701	0.0522	-0.372
Mof_O 	O 	0.7503	0.2405	0.9642	-0.388
Mof_O 	O 	0.837	0.2799	0.9106	-0.379
Mof_O 	O 	0.8984	0.3636	0.9939	-0.371
Mof_O 	O 	0.8561	0.3626	0.9182	-0.362
Mof_O 	O 	0.493	0.2005	0.8009	-0.398
Mof_O 	O 	0.5974	0.2301	0.77	-0.485
Mof_O 	O 	0.6932	0.2372	0.8551	-0.394
Mof_O 	O 	0.7185	0.1659	0.9038	-0.399
Mof_O 	O 	0.562	0.112	0.8234	-0.254
Mof_O 	O 	0.6192	0.1018	0.9017	-0.347
Mof_O 	O 	0.0657	0.133	0.9267	-0.297
Mof_O 	O 	0.9688	0.1103	0.9624	-0.328
Mof_O 	O 	0.8811	0.1812	0.9425	-0.378
Mof_O 	O 	0.8443	0.2005	0.8534	-0.393
Mof_O 	O 	0.9388	0.1788	0.7917	-0.335
Mof_O 	O 	0.9778	0.1139	0.8308	-0.321
Mof_O 	O 	0.6317	0.283	0.5041	-0.429
Mof_O 	O 	0.5973	0.231	0.5533	-0.481
Mof_O 	O 	0.8814	0.2753	0.4952	-0.368
Mof_O 	O 	0.9506	0.2591	0.5703	-0.561
Mof_O 	O 	0.7688	0.3332	0.53	-0.491
Mof_O 	O 	0.7997	0.3829	0.5837	-0.71
Mof_O 	O 	0.9399	0.0558	0.4617	-0.477
Mof_O 	O 	0.9212	0.0942	0.3915	-0.4
Mof_O 	O 	0.6749	0.1267	0.3503	-0.473
Mof_O 	O 	0.5936	0.0786	0.3725	-0.549
Mof_O 	O 	0.7887	0.0053	0.2842	-0.656
Mof_O 	O 	0.7848	0.0703	0.3204	-0.536
Mof_O 	O 	0.7604	0.7649	0.4271	-0.478
Mof_O 	O 	0.8521	0.8204	0.4441	-0.401
Mof_O 	O 	0.546	0.6747	0.5752	-0.431
Mof_O 	O 	0.4863	0.7096	0.6315	-0.419
Mof_O 	O 	0.8461	0.7144	0.6604	-0.4
Mof_O 	O 	0.7846	0.6545	0.6247	-0.417
Mof_O 	O 	0.6285	0.6213	0.6345	-0.454
Mof_O 	O 	0.5086	0.8642	0.4586	-0.508
Mof_O 	O 	0.5227	0.8176	0.4052	-0.434
Mof_O 	O 	0.6603	0.8119	0.3542	-0.587
Mof_O 	O 	0.7021	0.8499	0.2976	-0.557
Mof_O 	O 	0.5091	0.7868	0.8791	-0.601
Mof_O 	O 	0.5322	0.7341	0.9303	-0.472
Mof_O 	O 	0.7751	0.7114	0.9804	-0.436
Mof_O 	O 	0.8465	0.7196	0.9167	-0.431
Mof_O 	O 	0.6501	0.879	0.0922	-0.593
Mof_O 	O 	0.5813	0.9391	0.055	-0.413
Mof_O 	O 	0.9264	0.92	0.0384	-0.368
Mof_O 	O 	0.8814	0.8879	0.1054	-0.402
Mof_O 	O 	0.643	0.6654	0.9296	-0.409
Mof_O 	O 	0.7659	0.9223	0.1474	-0.565
Mof_O 	O 	0.7948	0.9829	0.184	-0.6
Mof_O 	O 	0.8854	0.2269	0.0475	-0.371
Mof_O 	O 	0.9462	0.1591	0.0443	-0.345
Mof_O 	O 	0.6327	0.2066	0.0249	-0.438
Mof_O 	O 	0.5924	0.1627	0.969	-0.493
Mof_O 	O 	0.9566	0.3213	0.8589	-0.444
Mof_O 	O 	0.9814	0.2582	0.8309	-0.456
Mof_O 	O 	0.7208	0.3452	0.8604	-0.486
Mof_O 	O 	0.6435	0.3182	0.797	-0.449
Mof_O 	O 	0.7713	0.1942	0.0971	-0.451
Mof_O 	O 	0.775	0.1407	0.1568	-0.5
Mof_O 	O 	0.7775	0.2421	0.5629	-0.598
Mof_O 	O 	0.7634	0.0696	0.4209	-0.594
Mof_O 	O 	0.6819	0.8453	0.4567	-0.588
Mof_O 	O 	0.6698	0.7189	0.6487	-0.588
Mof_O 	O 	0.6868	0.7552	0.893	-0.59
Mof_O 	O 	0.7544	0.9316	0.0429	-0.578
Mof_O 	O 	0.7704	0.1556	0.0043	-0.571
Mof_O 	O 	0.8108	0.2815	0.8132	-0.593
Mof_C 	C 	0.5413	0.0858	0.4902	0.469
Mof_C 	C 	0.6048	0.1214	0.5064	-0.102
Mof_H 	H 	0.5758	0.1494	0.5022	0.079
Mof_C 	C 	0.6616	0.1238	0.5552	0.055
Mof_H 	H 	0.6923	0.0964	0.5606	0.023
Mof_C 	C 	0.6168	0.132	0.5972	0.323
Mof_C 	C 	0.9039	0.054	0.567	0.409
Mof_C 	C 	0.8736	0.1002	0.5606	0.007
Mof_H 	H 	0.8414	0.1068	0.5859	0.03
Mof_C 	C 	0.9277	0.1392	0.5549	-0.059
Mof_H 	H 	0.9554	0.1331	0.5274	0.057
Mof_C 	C 	0.9911	0.1535	0.5953	0.417
Mof_C 	C 	0.8426	0.1971	0.3688	0.314
Mof_C 	C 	0.8249	0.1975	0.4186	-0.042
Mof_H 	H 	0.8685	0.2126	0.44	0.058
Mof_C 	C 	0.7397	0.2187	0.4222	-0.014
Mof_H 	H 	0.6969	0.2014	0.4027	0.053
Mof_C 	C 	0.7361	0.266	0.4027	0.37
Mof_C 	C 	0.6413	0.9673	0.4473	0.301
Mof_C 	C 	0.6943	0.9831	0.4951	-0.025
Mof_H 	H 	0.6595	0.9817	0.5199	0.066
Mof_C 	C 	0.7623	0.9471	0.5081	-0.011
Mof_H 	H 	0.7993	0.9572	0.5366	0.055
Mof_C 	C 	0.8113	0.9463	0.4654	0.336
Mof_C 	C 	0.6974	0.2489	0.6876	0.332
Mof_C 	C 	0.7484	0.2096	0.7079	-0.036
Mof_H 	H 	0.7133	0.1838	0.7014	0.02
Mof_C 	C 	0.8229	0.2014	0.6837	-0.003
Mof_H 	H 	0.8532	0.1764	0.6993	0.036
Mof_C 	C 	0.878	0.2418	0.6904	0.362
Mof_C 	C 	0.9129	0.8369	0.5603	0.29
Mof_C 	C 	0.8426	0.8072	0.572	0.013
Mof_H 	H 	0.8633	0.7773	0.5778	0.045
Mof_C 	C 	0.8014	0.8216	0.6146	0.012
Mof_H 	H 	0.7727	0.8492	0.6064	0.032
Mof_C 	C 	0.8497	0.825	0.6667	0.323
Mof_C 	C 	0.5572	0.899	0.5732	0.287
Mof_C 	C 	0.5871	0.8528	0.583	0.005
Mof_H 	H 	0.6245	0.852	0.6137	0.015
Mof_C 	C 	0.5238	0.8181	0.5827	-0.025
Mof_H 	H 	0.4905	0.817	0.5507	0.078
Mof_C 	C 	0.4684	0.8264	0.6194	0.321
Mof_C 	C 	0.689	0.6485	0.5079	0.43
Mof_C 	C 	0.6907	0.6996	0.5085	0.015
Mof_H 	H 	0.7382	0.709	0.4945	0.034
Mof_C 	C 	0.6147	0.7191	0.478	-0.114
Mof_H 	H 	0.5676	0.7114	0.4933	0.078
Mof_C 	C 	0.5957	0.7052	0.4255	0.546
Mof_C 	C 	0.7665	0.746	0.7838	0.367
Mof_C 	C 	0.7304	0.7919	0.7808	-0.056
Mof_H 	H 	0.7708	0.8117	0.7707	0.061
Mof_C 	C 	0.6519	0.7956	0.7438	0.051
Mof_H 	H 	0.6271	0.8244	0.7461	-0.059
Mof_C 	C 	0.5946	0.7601	0.756	0.272
Mof_C 	C 	0.773	0.7968	0.111	0.327
Mof_C 	C 	0.7483	0.7984	0.0547	-0.005
Mof_H 	H 	0.7844	0.7778	0.0417	0.045
Mof_C 	C 	0.6618	0.7859	0.0325	0.009
Mof_H 	H 	0.6226	0.8072	0.0411	0.048
Mof_C 	C 	0.6398	0.7396	0.0467	0.351
Mof_C 	C 	0.5594	0.8821	0.8487	0.408
Mof_C 	C 	0.6169	0.8881	0.8956	-0.104
Mof_H 	H 	0.6556	0.9122	0.8944	0.078
Mof_C 	C 	0.5772	0.8891	0.9418	0.081
Mof_H 	H 	0.5446	0.8625	0.943	-0.007
Mof_C 	C 	0.52	0.9303	0.9411	0.306
Mof_C 	C 	0.8998	0.9211	0.9203	0.394
Mof_C 	C 	0.8356	0.8839	0.924	-0.036
Mof_H 	H 	0.8003	0.8818	0.8927	0.046
Mof_C 	C 	0.8764	0.8382	0.9354	0.006
Mof_H 	H 	0.9089	0.8388	0.9676	0.034
Mof_C 	C 	0.9313	0.8236	0.8987	0.322
Mof_C 	C 	0.8524	0.0428	0.0074	0.274
Mof_C 	C 	0.8002	0.0448	0.958	-0.009
Mof_H 	H 	0.8303	0.0314	0.9346	0.056
Mof_C 	C 	0.7213	0.0211	0.9568	-0.029
Mof_H 	H 	0.6858	0.0274	0.9263	0.068
Mof_C 	C 	0.6817	0.0381	0.9973	0.346
Mof_C 	C 	0.764	0.2873	0.9701	-0.009
Mof_H 	H 	0.7231	0.3019	0.9465	0.049
Mof_C 	C 	0.8455	0.297	0.9565	0.002
Mof_H 	H 	0.8901	0.2832	0.9783	0.047
Mof_C 	C 	0.85	0.3466	0.9586	0.325
Mof_C 	C 	0.5697	0.2089	0.8031	0.265
Mof_C 	C 	0.6381	0.2083	0.8481	0.047
Mof_H 	H 	0.6074	0.214	0.8744	0.038
Mof_C 	C 	0.6674	0.1624	0.8583	-0.015
Mof_H 	H 	0.7023	0.1549	0.8346	0.035
Mof_C 	C 	0.6101	0.1231	0.8618	0.286
Mof_C 	C 	0.9987	0.1389	0.9357	0.318
Mof_C 	C 	0.9395	0.1728	0.9144	-0.004
Mof_H 	H 	0.9699	0.2	0.9119	0.048
Mof_C 	C 	0.8938	0.1618	0.8642	-0.015
Mof_H 	H 	0.8564	0.1379	0.8683	0.047
Mof_C 	C 	0.9449	0.1464	0.8289	0.304
Mof_C 	C 	0.5874	0.2615	0.526	0.572
Mof_H 	H 	0.5336	0.271	0.5202	-0.138
Mof_C 	C 	0.9481	0.2735	0.5371	0.589
Mof_H 	H 	0.9957	0.2879	0.5326	-0.141
Mof_C 	C 	0.791	0.3492	0.5746	0.77
Mof_H 	H 	0.8007	0.3291	0.5996	-0.257
Mof_C 	C 	0.9652	0.0726	0.4293	0.475
Mof_H 	H 	0.0212	0.071	0.4297	-0.162
Mof_C 	C 	0.6107	0.1059	0.3488	0.682
Mof_H 	H 	0.5695	0.114	0.3241	-0.207
Mof_C 	C 	0.794	0.0294	0.3191	0.557
Mof_H 	H 	0.8073	0.0157	0.3488	-0.198
Mof_C 	C 	0.8251	0.7808	0.4305	0.496
Mof_H 	H 	0.865	0.7623	0.4221	-0.115
Mof_C 	C 	0.4872	0.6894	0.5936	0.483
Mof_H 	H 	0.436	0.6842	0.5757	-0.112
Mof_C 	C 	0.8503	0.6763	0.6448	0.433
Mof_H 	H 	0.901	0.6629	0.6474	-0.12
Mof_C 	C 	0.4797	0.8439	0.4278	0.648
Mof_H 	H 	0.4237	0.8458	0.4178	-0.176
Mof_C 	C 	0.678	0.8521	0.34	0.448
Mof_H 	H 	0.6746	0.8777	0.3573	-0.175
Mof_C 	C 	0.493	0.7616	0.9054	0.727
Mof_H 	H 	0.4381	0.7619	0.9086	-0.184
Mof_C 	C 	0.831	0.7103	0.957	0.486
Mof_H 	H 	0.8774	0.6987	0.9757	-0.098
Mof_C 	C 	0.601	0.9	0.085	0.619
Mof_H 	H 	0.5586	0.8923	0.1015	-0.173
Mof_C 	C 	0.94	0.898	0.079	0.361
Mof_H 	H 	0.993	0.8887	0.0902	-0.066
Mof_C 	C 	0.665	0.6621	0.8893	0.486
Mof_H 	H 	0.7073	0.6785	0.8808	-0.142
Mof_C 	C 	0.772	0.9611	0.146	0.583
Mof_H 	H 	0.7588	0.9755	0.1167	-0.199
Mof_C 	C 	0.941	0.2006	0.0615	0.364
Mof_H 	H 	0.983	0.2099	0.0854	-0.074
Mof_C 	C 	0.579	0.1883	0.9957	0.65
Mof_H 	H 	0.5249	0.1961	0.9959	-0.144
Mof_C 	C 	0.005	0.2911	0.8502	0.559
Mof_H 	H 	0.0608	0.2951	0.8593	-0.13
Mof_C 	C 	0.658	0.3419	0.8323	0.558
Mof_H 	H 	0.6153	0.3595	0.8384	-0.16
Mof_C 	C 	0.777	0.1568	0.1112	0.468
Mof_H 	H 	0.7847	0.136	0.0882	-0.145
Mof_C 	C 	0.646	0.6245	0.6819	0.341
Mof_H 	H 	0.6777	0.6446	0.7012	-0.123
Mof_O 	O 	0.754	0.3442	0.0235	-0.363
Mof_O 	O 	0.602	0.5901	0.6937	-0.391
Mof_O 	O 	0.626	0.6352	0.8613	-0.457
Mof_C 	C 	0.744	0.2991	0.0203	0.27
Mof_Ba	Ba	0.40824	0.08135	0.59092	1.756
Mof_Ba	Ba	0.74012	0.36804	0.36754	1.604
Mof_Ba	Ba	0.75496	0.92345	0.25566	1.425
Mof_Ba	Ba	0.6303	0.54512	0.56729	1.795
Mof_Ba	Ba	0.7788	0.07094	0.21116	1.51
Mof_Ba	Ba	0.8665	0.43165	0.50906	1.505
Mof_Ba	Ba	0.8817	0.39563	0.08261	1.601
Mof_Ba	Ba	0.5969	0.737	0.28722	4.068
Mof_Ba	Ba	0.8301	0.2057	0.24306	1.851
Mof_Ba	Ba	0.0787	0.0638	0.6835	1.103
Mof_O 	O 	0.7109	0.3907	0.4309	-0.408
Mof_O 	O 	0.6993	0.1474	0.2491	-0.369
Mof_O 	O 	0.6198	0.4337	0.3499	-0.555
Mof_O 	O 	0.679	0.5327	0.4784	-0.459
Mof_O 	O 	0.8884	0.1386	0.249	-0.563
Mof_O 	O 	0.75	0.7679	0.281	-0.481
Mof_O 	O 	0.4898	0.786	0.3059	-0.573
Mof_O 	O 	0.655	0.6822	0.32	-0.061
Mof_O 	O 	0.729	0.2213	0.1916	-0.468
Mof_O 	O 	0.814	0.4519	0.407	-0.375
Mof_O 	O 	0.558	0.8038	0.2387	-1.182
Mof_C 	C 	0.9222	0.4715	0.1247	0.107
Mof_H 	H 	0.9649	0.4627	0.1482	-0.05
Mof_O 	O 	0.9318	0.4829	0.0824	-0.289
Mof_O 	O 	0.8453	0.4736	0.1315	-0.412
Mof_C 	C 	0.734	0.4708	0.5774	0.23
Mof_H 	H 	0.7856	0.4781	0.5941	-0.231
Mof_O 	O 	0.675	0.4642	0.6005	-0.458
Mof_O 	O 	0.724	0.4675	0.531	-0.404
Mof_O 	O 	0.8678	0.2962	0.2315	-0.424
Mof_O 	O 	0.513	0.0053	0.605	-0.196
Mof_O 	O 	0.792	0.415	0.285	-0.681
Mof_O 	O 	0.6154	0.6493	0.2414	-0.065
Mof_O 	O 	0.8782	0.3612	0.4429	-0.325
Mof_O 	O 	0.715	0.5111	0.6563	-0.448
Mof_O 	O 	0.4378	0.9605	0.7506	-4.636
Mof_C 	C 	0.095	0.897	0.647	0.2
Mof_H 	H 	0.0927	0.877	0.6225	-0.079
Mof_O 	O 	0.036	0.905	0.672	-0.219
Mof_O 	O 	0.158	0.922	0.663	-0.344
Mof_C 	C 	0.365	0.962	0.627	1.172
Mof_H 	H 	0.381	0.9909	0.6268	-0.503
Mof_O 	O 	0.342	0.944	0.665	-0.972
Mof_O 	O 	0.364	0.936	0.59	-0.416
Mof_C 	C 	0.392	0.0867	0.7999	0.527
Mof_H 	H 	0.3738	0.0689	0.7735	-0.217
Mof_O 	O 	0.391	0.1301	0.7973	-0.307
Mof_Ba	Ba	0.5022	0.6827	0.3157	1.005
Mof_Ba	Ba	0.6196	0.7878	0.2494	1.495
Mof_O 	O 	0.607	0.6968	0.2893	-2.074
Mof_O 	O 	0.743	0.7812	0.2329	-0.327
Mof_O 	O 	0.493	0.0046	0.5606	-0.167
Mof_Ba	Ba	0.4091	0.9287	0.7513	9.339
Mof_Ba	Ba	0.3999	0.9807	0.823	-0.329
Mof_Ba	Ba	0.8779	0.2238	0.2004	0.172
Mof_O 	O 	0.714	0.2602	0.1634	-0.172
Mof_Ba	Ba	0.7951	0.434	0.6669	1.268
Mof_Ba	Ba	0.3186	0.0848	0.8907	2.196
Mof_O 	O 	0.41	0.1586	0.8616	-0.145
Mof_O 	O 	0.365	0.1694	0.8416	-0.156
Mof_O 	O 	0.4183	0.0714	0.8417	-0.951
Mof_C 	C 	0.43	0.0727	0.8876	-0.911
Mof_H 	H 	0.4497	0.0823	0.8604	0.884
Mof_O 	O 	0.482	0.0517	0.9207	0.048
Mof_C 	C 	0.306	0.986	0.914	0.366
Mof_H 	H 	0.2804	0.9591	0.9174	-0.17
Mof_O 	O 	0.326	0.998	0.873	-0.457
Mof_O 	O 	0.323	0.013	0.95	-0.432
Mof_Ba	Ba	0.596	0.5716	0.7944	1.136
Mof_O 	O 	0.695	0.3977	0.4671	0.003
_end
