data_functionalizedCrystal
_audit_creation_method	'EQeq! by Chris Wilmer'
_symmetry_space_group_name_H-M	'P1'
_symmetry_Int_Tables_number	1
_symmetry_cell_setting	triclinic
loop_
_symmetry_equiv_pos_as_xyz
  x,y,z
_cell_length_a	6.799
_cell_length_b	16.946
_cell_length_c	12.749
_cell_angle_alpha	90
_cell_angle_beta	90
_cell_angle_gamma	90
loop_
_atom_site_label
_atom_site_type_symbol
_atom_site_fract_x
_atom_site_fract_y
_atom_site_fract_z
_atom_site_charge
Mof_O 	O 	0.156	0.833	0.158	-0.466
Mof_C 	C 	0.804	0.964	0.026	0.031
Mof_O 	O 	0.656	0.333	0.658	-0.469
Mof_C 	C 	0.304	0.464	0.526	0.039
Mof_O 	O 	0.844	0.667	0.158	-0.475
Mof_C 	C 	0.196	0.536	0.026	0.037
Mof_O 	O 	0.344	0.167	0.658	-0.466
Mof_C 	C 	0.696	0.036	0.526	0.035
Mof_O 	O 	0.844	0.333	0.842	-0.475
Mof_C 	C 	0.196	0.464	0.974	0.037
Mof_O 	O 	0.344	0.833	0.342	-0.466
Mof_C 	C 	0.696	0.964	0.474	0.035
Mof_O 	O 	0.156	0.167	0.842	-0.467
Mof_C 	C 	0.804	0.036	0.974	0.03
Mof_O 	O 	0.656	0.667	0.342	-0.469
Mof_C 	C 	0.304	0.536	0.474	0.039
Mof_O 	O 	0.844	0.167	0.842	-0.475
Mof_C 	C 	0.196	0.036	0.974	0.037
Mof_O 	O 	0.344	0.667	0.342	-0.466
Mof_C 	C 	0.696	0.536	0.474	0.035
Mof_O 	O 	0.156	0.333	0.842	-0.467
Mof_C 	C 	0.804	0.464	0.974	0.03
Mof_O 	O 	0.656	0.833	0.342	-0.469
Mof_C 	C 	0.304	0.964	0.474	0.039
Mof_O 	O 	0.156	0.667	0.158	-0.467
Mof_C 	C 	0.804	0.536	0.026	0.03
Mof_O 	O 	0.656	0.167	0.658	-0.469
Mof_C 	C 	0.304	0.036	0.526	0.039
Mof_O 	O 	0.844	0.833	0.158	-0.475
Mof_C 	C 	0.196	0.964	0.026	0.037
Mof_O 	O 	0.344	0.333	0.658	-0.466
Mof_C 	C 	0.696	0.464	0.526	0.035
Mof_V 	V 	0.25	0.75	0.25	1.838
Mof_V 	V 	0.75	0.75	0.25	1.837
Mof_V 	V 	0.75	0.25	0.75	1.837
Mof_V 	V 	0.25	0.25	0.75	1.838
Mof_O 	O 	-2.13798e-33	0.75	0.307	-0.643
Mof_O 	O 	0.5	0.25	0.807	-0.649
Mof_O 	O 	4.87221e-33	0.25	0.693	-0.643
Mof_O 	O 	0.5	0.75	0.193	-0.649
Mof_C 	C 	2.60806e-32	0.94	0.043	-0.095
Mof_C 	C 	8.22581e-34	0.871	0.117	0.375
Mof_C 	C 	0.5	0.44	0.543	-0.103
Mof_C 	C 	0.5	0.371	0.617	0.367
Mof_C 	C 	8.89506e-33	0.56	0.043	-0.095
Mof_C 	C 	1.80081e-32	0.629	0.117	0.375
Mof_C 	C 	0.5	0.06	0.543	-0.103
Mof_C 	C 	0.5	0.129	0.617	0.367
Mof_C 	C 	-1.04572e-32	0.44	0.957	-0.095
Mof_C 	C 	4.0579e-32	0.371	0.883	0.375
Mof_C 	C 	0.5	0.94	0.457	-0.103
Mof_C 	C 	0.5	0.871	0.383	0.367
Mof_C 	C 	6.72829e-33	0.06	0.957	-0.095
Mof_C 	C 	6.20803e-33	0.129	0.883	0.375
Mof_C 	C 	0.5	0.56	0.457	-0.103
Mof_C 	C 	0.5	0.629	0.383	0.367
_end
