data_functionalizedCrystal
_audit_creation_method	'EQeq! by Chris Wilmer'
_symmetry_space_group_name_H-M	'P1'
_symmetry_Int_Tables_number	1
_symmetry_cell_setting	triclinic
loop_
_symmetry_equiv_pos_as_xyz
  x,y,z
_cell_length_a	11.9677
_cell_length_b	12.2012
_cell_length_c	14.7386
_cell_angle_alpha	67.613
_cell_angle_beta	74.527
_cell_angle_gamma	63.724
loop_
_atom_site_label
_atom_site_type_symbol
_atom_site_fract_x
_atom_site_fract_y
_atom_site_fract_z
_atom_site_charge
Mof_Mo	Mo	0.2792	0.29688	0.32419	1.119
Mof_Mo	Mo	0.7473	0.80512	0.33591	1.149
Mof_Mo	Mo	0.52953	0.81078	0.33217	1.149
Mof_Mo	Mo	0.57448	0.29207	0.32656	1.138
Mof_Mo	Mo	0.77406	0.0837	0.32996	1.096
Mof_Mo	Mo	0.26363	0.09394	0.32171	1.081
Mof_Mn	Mn	0.26165	0.83702	0.00873	0.976
Mof_P 	P 	0.55176	0.10838	0.21232	0.587
Mof_P 	P 	0.38521	0.51308	0.15815	0.574
Mof_P 	P 	0.30616	0.90377	0.19454	0.583
Mof_P 	P 	0.93402	0.92838	0.16496	0.604
Mof_O 	O 	0.614	0.1158	0.4176	-0.623
Mof_O 	O 	0.5868	0.8586	0.4203	-0.609
Mof_O 	O 	0.3386	0.1189	0.4131	-0.615
Mof_O 	O 	0.814	0.8855	0.4053	-0.454
Mof_O 	O 	0.3867	0.3323	0.3956	-0.479
Mof_O 	O 	0.6754	0.0218	0.2611	-0.469
Mof_O 	O 	0.248	0.2563	0.2208	-0.502
Mof_O 	O 	0.3476	0.8963	0.3964	-0.467
Mof_O 	O 	0.4837	0.2246	0.2547	-0.43
Mof_O 	O 	0.6755	0.8015	0.2342	-0.505
Mof_O 	O 	0.7169	0.2475	0.2285	-0.533
Mof_O 	O 	0.4685	0.0286	0.2506	-0.426
Mof_O 	O 	0.0807	0.8663	0.1374	-0.265
Mof_O 	O 	0.8718	0.992	0.0726	-0.331
Mof_O 	O 	0.5766	0.155	0.1013	-0.329
Mof_O 	O 	0.8983	0.8139	0.2337	-0.409
Mof_O 	O 	0.2529	0.0357	0.2124	-0.412
Mof_O 	O 	0.9131	0.0181	0.224	-0.437
Mof_O 	O 	0.3094	0.9257	0.0856	-0.292
Mof_O 	O 	0.4944	0.4605	0.2188	-0.402
Mof_O 	O 	0.4417	0.8282	0.2228	-0.384
Mof_O 	O 	0.2795	0.4696	0.2216	-0.404
Mof_O 	O 	0.4335	0.4464	0.0739	-0.199
Mof_O 	O 	0.2228	0.8286	0.2584	-0.261
Mof_O 	O 	0.3473	0.6536	0.1125	-0.345
Mof_Mo	Mo	0.7208	0.70312	0.67581	1.112
Mof_Mo	Mo	0.2527	0.19488	0.66409	1.107
Mof_Mo	Mo	0.47047	0.18922	0.66783	1.111
Mof_Mo	Mo	0.42552	0.70793	0.67344	1.13
Mof_Mo	Mo	0.22594	0.9163	0.67004	1.171
Mof_Mo	Mo	0.73637	0.90606	0.67829	1.162
Mof_Mn	Mn	0.73835	0.16298	0.99127	0.952
Mof_P 	P 	0.44824	0.89162	0.78768	0.588
Mof_P 	P 	0.61479	0.48692	0.84185	0.573
Mof_P 	P 	0.69384	0.09623	0.80546	0.526
Mof_P 	P 	0.06598	0.07162	0.83504	0.54
Mof_O 	O 	0.386	0.8842	0.5824	-0.608
Mof_O 	O 	0.4132	0.1414	0.5797	-0.625
Mof_O 	O 	0.6614	0.8811	0.5869	-0.6
Mof_O 	O 	0.186	0.1145	0.5947	-0.499
Mof_O 	O 	0.6133	0.6677	0.6044	-0.478
Mof_O 	O 	0.3246	0.9782	0.7389	-0.428
Mof_O 	O 	0.752	0.7437	0.7792	-0.507
Mof_O 	O 	0.6524	0.1037	0.6036	-0.511
Mof_O 	O 	0.5163	0.7754	0.7453	-0.428
Mof_O 	O 	0.3245	0.1985	0.7658	-0.513
Mof_O 	O 	0.2831	0.7525	0.7715	-0.538
Mof_O 	O 	0.5315	0.9714	0.7494	-0.388
Mof_O 	O 	0.9193	0.1337	0.8626	-0.268
Mof_O 	O 	0.1282	0.008	0.9274	-0.373
Mof_O 	O 	0.4234	0.845	0.8987	-0.31
Mof_O 	O 	0.1017	0.1861	0.7663	-0.41
Mof_O 	O 	0.7471	0.9643	0.7876	-0.356
Mof_O 	O 	0.0869	0.9819	0.776	-0.38
Mof_O 	O 	0.6906	0.0743	0.9144	-0.307
Mof_O 	O 	0.5056	0.5395	0.7812	-0.399
Mof_O 	O 	0.5583	0.1718	0.7772	-0.388
Mof_O 	O 	0.7205	0.5304	0.7784	-0.401
Mof_O 	O 	0.5665	0.5536	0.9261	-0.191
Mof_O 	O 	0.7772	0.1714	0.7416	-0.269
Mof_O 	O 	0.6527	0.3464	0.8875	-0.338
Mof_Mn	Mn	0.5	0	0.5	1.067
_end
