data_functionalizedCrystal
_audit_creation_method	'EQeq! by Chris Wilmer'
_symmetry_space_group_name_H-M	'P1'
_symmetry_Int_Tables_number	1
_symmetry_cell_setting	triclinic
loop_
_symmetry_equiv_pos_as_xyz
  x,y,z
_cell_length_a	26.7325
_cell_length_b	26.7325
_cell_length_c	26.7325
_cell_angle_alpha	109.471
_cell_angle_beta	109.471
_cell_angle_gamma	109.471
loop_
_atom_site_label
_atom_site_type_symbol
_atom_site_fract_x
_atom_site_fract_y
_atom_site_fract_z
_atom_site_charge
Mof_Cs	Cs	0.67858	0	0.32142	5.381
Mof_Cs	Cs	0.67858	0.35716	0.67858	6.128
Mof_Cs	Cs	0.32142	6.18443e-17	0.67858	5.38
Mof_Cs	Cs	0.32142	0.64284	0.32142	6.154
Mof_Cs	Cs	0.67858	0.32142	-0	5.38
Mof_Cs	Cs	0.32142	0.32142	0.64284	6.154
Mof_Cs	Cs	0.32142	0.67858	-0	5.381
Mof_Cs	Cs	0.67858	0.67858	0.35716	6.128
Mof_Cs	Cs	0.35716	0.67858	0.67858	6.128
Mof_Cs	Cs	-6.18443e-17	0.32142	0.67858	5.381
Mof_Cs	Cs	0.64284	0.32142	0.32142	6.154
Mof_Cs	Cs	-3.09222e-17	0.67858	0.32142	5.38
Mof_H 	H 	0.4565	0.9097	0.1222	0.02
Mof_H 	H 	0.5267	0.9197	0.2304	0.102
Mof_H 	H 	0.551	0.9892	0.1798	-0.036
Mof_H 	H 	0.6228	0.0503	0.3195	-0.525
Mof_H 	H 	0.5292	0.0174	0.2824	0.001
Mof_H 	H 	0.5407	0.0901	0.2224	-0.03
Mof_H 	H 	0.4802	0.1272	0.1584	0.056
Mof_H 	H 	0.4141	0.0871	0.1866	0.015
Mof_H 	H 	0.3746	0.0235	0.1223	-0.004
Mof_H 	H 	0.5977	0.1782	0.2951	-0.127
Mof_H 	H 	0.62	0.1269	0.3565	0.132
Mof_H 	H 	0.6452	0.2484	0.3938	-0.192
Mof_H 	H 	0.6158	0.2697	0.4995	0.049
Mof_H 	H 	0.5567	0.1699	0.4048	-0.006
Mof_H 	H 	0.5777	0.2908	0.4087	-0.105
Mof_H 	H 	0.4805	0.1698	0.3315	0.038
Mof_H 	H 	0.4876	0.324	0.32	0.178
Mof_H 	H 	0.4431	0.2152	0.2653	-0.025
Mof_H 	H 	0.439	0.2415	0.3265	0.004
Mof_H 	H 	0.7875	0.3343	0.8778	0.023
Mof_H 	H 	0.6893	0.2963	0.7696	0.077
Mof_H 	H 	0.8094	0.3712	0.8202	-0.037
Mof_H 	H 	0.7308	0.3033	0.6805	-0.589
Mof_H 	H 	0.735	0.2468	0.7176	-0.01
Mof_H 	H 	0.8677	0.3183	0.7776	0.008
Mof_H 	H 	0.9688	0.3218	0.8416	0.019
Mof_H 	H 	0.9005	0.2275	0.8134	0.06
Mof_H 	H 	0.9012	0.2523	0.8777	0.09
Mof_H 	H 	0.8831	0.3026	0.7049	-0.096
Mof_H 	H 	0.7704	0.2635	0.6435	0.129
Mof_H 	H 	0.8546	0.2514	0.6062	-0.155
Mof_H 	H 	0.7702	0.1163	0.5005	0.058
Mof_H 	H 	0.7651	0.1519	0.5952	-0.008
Mof_H 	H 	0.8821	0.169	0.5913	-0.079
Mof_H 	H 	0.8383	0.149	0.6685	0.035
Mof_H 	H 	0.004	0.1676	0.68	0.056
Mof_H 	H 	0.9499	0.1778	0.7347	0.029
Mof_H 	H 	0.915	0.1125	0.6735	0.032
Mof_H 	H 	0.2125	0.0903	0.5468	-0.006
Mof_H 	H 	0.3107	0.0803	0.607	0.064
Mof_H 	H 	0.1906	0.0108	0.5618	-0.034
Mof_H 	H 	0.2692	0.9497	0.5725	-0.469
Mof_H 	H 	0.265	0.9826	0.5118	-0.005
Mof_H 	H 	0.1323	0.9099	0.4506	0.022
Mof_H 	H 	0.0312	0.8728	0.353	0.075
Mof_H 	H 	0.0995	0.9129	0.327	0.049
Mof_H 	H 	0.0988	0.9765	0.3511	0.088
Mof_H 	H 	0.1169	0.8218	0.4195	-0.113
Mof_H 	H 	0.2296	0.8731	0.4931	0.138
Mof_H 	H 	0.1454	0.7516	0.3968	-0.167
Mof_H 	H 	0.2298	0.7303	0.3461	0.05
Mof_H 	H 	0.2349	0.8301	0.3868	0.01
Mof_H 	H 	0.1179	0.7092	0.2869	-0.091
Mof_H 	H 	0.1617	0.8302	0.3107	0.052
Mof_H 	H 	0.996	0.676	0.1636	0.277
Mof_H 	H 	0.0501	0.7848	0.2279	-0.05
Mof_H 	H 	0.085	0.7585	0.1975	-0.014
Mof_H 	H 	0.5435	0.6657	0.4532	0.011
Mof_H 	H 	0.4733	0.7037	0.393	0.079
Mof_H 	H 	0.449	0.6288	0.4382	-0.046
Mof_H 	H 	0.3772	0.6967	0.4275	-0.588
Mof_H 	H 	0.4708	0.7532	0.4882	-0
Mof_H 	H 	0.4593	0.6817	0.5494	-0.005
Mof_H 	H 	0.5198	0.6782	0.647	0.044
Mof_H 	H 	0.5859	0.7725	0.673	0.058
Mof_H 	H 	0.6254	0.7477	0.6489	0.076
Mof_H 	H 	0.4023	0.6974	0.5805	-0.125
Mof_H 	H 	0.38	0.7365	0.5069	0.133
Mof_H 	H 	0.3548	0.7486	0.6032	-0.195
Mof_H 	H 	0.3842	0.8837	0.6539	0.058
Mof_H 	H 	0.4433	0.8481	0.6132	0.014
Mof_H 	H 	0.4223	0.831	0.7131	-0.102
Mof_H 	H 	0.5195	0.851	0.6893	0.055
Mof_H 	H 	0.5124	0.8324	0.8364	0.19
Mof_H 	H 	0.5569	0.8222	0.7721	-0.002
Mof_H 	H 	0.561	0.8875	0.8025	0.037
Mof_H 	H 	0.5468	0.2125	0.0903	-0.006
Mof_H 	H 	0.607	0.3107	0.0803	0.064
Mof_H 	H 	0.5618	0.1906	0.0108	-0.034
Mof_H 	H 	0.5725	0.2692	0.9497	-0.469
Mof_H 	H 	0.5118	0.265	0.9826	-0.005
Mof_H 	H 	0.4506	0.1323	0.9099	0.022
Mof_H 	H 	0.353	0.0312	0.8728	0.075
Mof_H 	H 	0.327	0.0995	0.9129	0.049
Mof_H 	H 	0.3511	0.0988	0.9765	0.088
Mof_H 	H 	0.4195	0.1169	0.8218	-0.113
Mof_H 	H 	0.4931	0.2296	0.8731	0.138
Mof_H 	H 	0.3968	0.1454	0.7516	-0.167
Mof_H 	H 	0.3461	0.2298	0.7303	0.05
Mof_H 	H 	0.3868	0.2349	0.8301	0.01
Mof_H 	H 	0.2869	0.1179	0.7092	-0.091
Mof_H 	H 	0.3107	0.1617	0.8302	0.052
Mof_H 	H 	0.1636	0.996	0.676	0.277
Mof_H 	H 	0.2279	0.0501	0.7848	-0.05
Mof_H 	H 	0.1975	0.085	0.7585	-0.014
Mof_H 	H 	0.4532	0.5435	0.6657	0.011
Mof_H 	H 	0.393	0.4733	0.7037	0.079
Mof_H 	H 	0.4382	0.449	0.6288	-0.046
Mof_H 	H 	0.4275	0.3772	0.6967	-0.588
Mof_H 	H 	0.4882	0.4708	0.7532	-0
Mof_H 	H 	0.5494	0.4593	0.6817	-0.005
Mof_H 	H 	0.647	0.5198	0.6782	0.044
Mof_H 	H 	0.673	0.5859	0.7725	0.058
Mof_H 	H 	0.6489	0.6254	0.7477	0.076
Mof_H 	H 	0.5805	0.4023	0.6974	-0.125
Mof_H 	H 	0.5069	0.38	0.7365	0.133
Mof_H 	H 	0.6032	0.3548	0.7486	-0.195
Mof_H 	H 	0.6539	0.3842	0.8837	0.058
Mof_H 	H 	0.6132	0.4433	0.8481	0.014
Mof_H 	H 	0.7131	0.4223	0.831	-0.102
Mof_H 	H 	0.6893	0.5195	0.851	0.055
Mof_H 	H 	0.8364	0.5124	0.8324	0.19
Mof_H 	H 	0.7721	0.5569	0.8222	-0.002
Mof_H 	H 	0.8025	0.561	0.8875	0.037
Mof_H 	H 	0.1222	0.4565	0.9097	0.02
Mof_H 	H 	0.2304	0.5267	0.9197	0.102
Mof_H 	H 	0.1798	0.551	0.9892	-0.036
Mof_H 	H 	0.3195	0.6228	0.0503	-0.525
Mof_H 	H 	0.2824	0.5292	0.0174	0.001
Mof_H 	H 	0.2224	0.5407	0.0901	-0.03
Mof_H 	H 	0.1584	0.4802	0.1272	0.056
Mof_H 	H 	0.1866	0.4141	0.0871	0.015
Mof_H 	H 	0.1223	0.3746	0.0235	-0.004
Mof_H 	H 	0.2951	0.5977	0.1782	-0.127
Mof_H 	H 	0.3565	0.62	0.1269	0.132
Mof_H 	H 	0.3938	0.6452	0.2484	-0.192
Mof_H 	H 	0.4995	0.6158	0.2697	0.049
Mof_H 	H 	0.4048	0.5567	0.1699	-0.006
Mof_H 	H 	0.4087	0.5777	0.2908	-0.105
Mof_H 	H 	0.3315	0.4805	0.1698	0.038
Mof_H 	H 	0.32	0.4876	0.324	0.178
Mof_H 	H 	0.2653	0.4431	0.2152	-0.025
Mof_H 	H 	0.3265	0.439	0.2415	0.004
Mof_H 	H 	0.8778	0.7875	0.3343	0.023
Mof_H 	H 	0.7696	0.6893	0.2963	0.077
Mof_H 	H 	0.8202	0.8094	0.3712	-0.037
Mof_H 	H 	0.6805	0.7308	0.3033	-0.589
Mof_H 	H 	0.7176	0.735	0.2468	-0.01
Mof_H 	H 	0.7776	0.8677	0.3183	0.008
Mof_H 	H 	0.8416	0.9688	0.3218	0.019
Mof_H 	H 	0.8134	0.9005	0.2275	0.06
Mof_H 	H 	0.8777	0.9012	0.2523	0.09
Mof_H 	H 	0.7049	0.8831	0.3026	-0.096
Mof_H 	H 	0.6435	0.7704	0.2635	0.129
Mof_H 	H 	0.6062	0.8546	0.2514	-0.155
Mof_H 	H 	0.5005	0.7702	0.1163	0.058
Mof_H 	H 	0.5952	0.7651	0.1519	-0.008
Mof_H 	H 	0.5913	0.8821	0.169	-0.079
Mof_H 	H 	0.6685	0.8383	0.149	0.035
Mof_H 	H 	0.68	0.004	0.1676	0.056
Mof_H 	H 	0.7347	0.9499	0.1778	0.029
Mof_H 	H 	0.6735	0.915	0.1125	0.032
Mof_H 	H 	0.3343	0.8778	0.7875	0.023
Mof_H 	H 	0.2963	0.7696	0.6893	0.077
Mof_H 	H 	0.3712	0.8202	0.8094	-0.037
Mof_H 	H 	0.3033	0.6805	0.7308	-0.589
Mof_H 	H 	0.2468	0.7176	0.735	-0.01
Mof_H 	H 	0.3183	0.7776	0.8677	0.008
Mof_H 	H 	0.3218	0.8416	0.9688	0.019
Mof_H 	H 	0.2275	0.8134	0.9005	0.06
Mof_H 	H 	0.2523	0.8777	0.9012	0.09
Mof_H 	H 	0.3026	0.7049	0.8831	-0.096
Mof_H 	H 	0.2635	0.6435	0.7704	0.129
Mof_H 	H 	0.2514	0.6062	0.8546	-0.155
Mof_H 	H 	0.1163	0.5005	0.7702	0.058
Mof_H 	H 	0.1519	0.5952	0.7651	-0.008
Mof_H 	H 	0.169	0.5913	0.8821	-0.079
Mof_H 	H 	0.149	0.6685	0.8383	0.035
Mof_H 	H 	0.1676	0.68	0.004	0.056
Mof_H 	H 	0.1778	0.7347	0.9499	0.029
Mof_H 	H 	0.1125	0.6735	0.915	0.032
Mof_H 	H 	0.9097	0.1222	0.4565	0.02
Mof_H 	H 	0.9197	0.2304	0.5267	0.102
Mof_H 	H 	0.9892	0.1798	0.551	-0.036
Mof_H 	H 	0.0503	0.3195	0.6228	-0.525
Mof_H 	H 	0.0174	0.2824	0.5292	0.001
Mof_H 	H 	0.0901	0.2224	0.5407	-0.03
Mof_H 	H 	0.1272	0.1584	0.4802	0.056
Mof_H 	H 	0.0871	0.1866	0.4141	0.015
Mof_H 	H 	0.0235	0.1223	0.3746	-0.004
Mof_H 	H 	0.1782	0.2951	0.5977	-0.127
Mof_H 	H 	0.1269	0.3565	0.62	0.132
Mof_H 	H 	0.2484	0.3938	0.6452	-0.192
Mof_H 	H 	0.2697	0.4995	0.6158	0.049
Mof_H 	H 	0.1699	0.4048	0.5567	-0.006
Mof_H 	H 	0.2908	0.4087	0.5777	-0.105
Mof_H 	H 	0.1698	0.3315	0.4805	0.038
Mof_H 	H 	0.324	0.32	0.4876	0.178
Mof_H 	H 	0.2152	0.2653	0.4431	-0.025
Mof_H 	H 	0.2415	0.3265	0.439	0.004
Mof_H 	H 	0.6657	0.4532	0.5435	0.011
Mof_H 	H 	0.7037	0.393	0.4733	0.079
Mof_H 	H 	0.6288	0.4382	0.449	-0.046
Mof_H 	H 	0.6967	0.4275	0.3772	-0.588
Mof_H 	H 	0.7532	0.4882	0.4708	-0
Mof_H 	H 	0.6817	0.5494	0.4593	-0.005
Mof_H 	H 	0.6782	0.647	0.5198	0.044
Mof_H 	H 	0.7725	0.673	0.5859	0.058
Mof_H 	H 	0.7477	0.6489	0.6254	0.076
Mof_H 	H 	0.6974	0.5805	0.4023	-0.125
Mof_H 	H 	0.7365	0.5069	0.38	0.133
Mof_H 	H 	0.7486	0.6032	0.3548	-0.195
Mof_H 	H 	0.8837	0.6539	0.3842	0.058
Mof_H 	H 	0.8481	0.6132	0.4433	0.014
Mof_H 	H 	0.831	0.7131	0.4223	-0.102
Mof_H 	H 	0.851	0.6893	0.5195	0.055
Mof_H 	H 	0.8324	0.8364	0.5124	0.19
Mof_H 	H 	0.8222	0.7721	0.5569	-0.002
Mof_H 	H 	0.8875	0.8025	0.561	0.037
Mof_H 	H 	0.0903	0.5468	0.2125	-0.006
Mof_H 	H 	0.0803	0.607	0.3107	0.064
Mof_H 	H 	0.0108	0.5618	0.1906	-0.034
Mof_H 	H 	0.9497	0.5725	0.2692	-0.469
Mof_H 	H 	0.9826	0.5118	0.265	-0.005
Mof_H 	H 	0.9099	0.4506	0.1323	0.022
Mof_H 	H 	0.8728	0.353	0.0312	0.075
Mof_H 	H 	0.9129	0.327	0.0995	0.049
Mof_H 	H 	0.9765	0.3511	0.0988	0.088
Mof_H 	H 	0.8218	0.4195	0.1169	-0.113
Mof_H 	H 	0.8731	0.4931	0.2296	0.138
Mof_H 	H 	0.7516	0.3968	0.1454	-0.167
Mof_H 	H 	0.7303	0.3461	0.2298	0.05
Mof_H 	H 	0.8301	0.3868	0.2349	0.01
Mof_H 	H 	0.7092	0.2869	0.1179	-0.091
Mof_H 	H 	0.8302	0.3107	0.1617	0.052
Mof_H 	H 	0.676	0.1636	0.996	0.277
Mof_H 	H 	0.7848	0.2279	0.0501	-0.05
Mof_H 	H 	0.7585	0.1975	0.085	-0.014
Mof_H 	H 	0.0903	0.5435	0.8778	0.006
Mof_H 	H 	0.0803	0.4733	0.7696	0.064
Mof_H 	H 	0.0108	0.449	0.8202	-0.028
Mof_H 	H 	0.9497	0.3772	0.6805	-0.47
Mof_H 	H 	0.9826	0.4708	0.7176	-0.005
Mof_H 	H 	0.9099	0.4593	0.7776	0.028
Mof_H 	H 	0.8728	0.5198	0.8416	0.033
Mof_H 	H 	0.9129	0.5859	0.8134	0.075
Mof_H 	H 	0.9765	0.6254	0.8777	0.128
Mof_H 	H 	0.8218	0.4023	0.7049	-0.121
Mof_H 	H 	0.8731	0.38	0.6435	0.138
Mof_H 	H 	0.7516	0.3548	0.6062	-0.196
Mof_H 	H 	0.7303	0.3842	0.5005	0.049
Mof_H 	H 	0.8301	0.4433	0.5952	0.011
Mof_H 	H 	0.7092	0.4223	0.5913	-0.106
Mof_H 	H 	0.8302	0.5195	0.6685	0.053
Mof_H 	H 	0.676	0.5124	0.68	0.181
Mof_H 	H 	0.7848	0.5569	0.7347	-0.007
Mof_H 	H 	0.7585	0.561	0.6735	0.021
Mof_H 	H 	0.6657	0.2125	0.1222	0.005
Mof_H 	H 	0.7037	0.3107	0.2304	0.08
Mof_H 	H 	0.6288	0.1906	0.1798	-0.053
Mof_H 	H 	0.6967	0.2692	0.3195	-0.588
Mof_H 	H 	0.7532	0.265	0.2824	0
Mof_H 	H 	0.6817	0.1323	0.2224	-0.011
Mof_H 	H 	0.6782	0.0312	0.1584	0.087
Mof_H 	H 	0.7725	0.0995	0.1866	0.031
Mof_H 	H 	0.7477	0.0988	0.1223	0.034
Mof_H 	H 	0.6974	0.1169	0.2951	-0.117
Mof_H 	H 	0.7365	0.2296	0.3565	0.133
Mof_H 	H 	0.7486	0.1454	0.3938	-0.166
Mof_H 	H 	0.8837	0.2298	0.4995	0.059
Mof_H 	H 	0.8481	0.2349	0.4048	0.013
Mof_H 	H 	0.831	0.1179	0.4087	-0.087
Mof_H 	H 	0.851	0.1617	0.3315	0.054
Mof_H 	H 	0.8324	0.996	0.32	0.286
Mof_H 	H 	0.8222	0.0501	0.2653	-0.045
Mof_H 	H 	0.8875	0.085	0.3265	0.003
Mof_H 	H 	0.9097	0.7875	0.4532	0.027
Mof_H 	H 	0.9197	0.6893	0.393	0.101
Mof_H 	H 	0.9892	0.8094	0.4382	-0.028
Mof_H 	H 	0.0503	0.7308	0.4275	-0.525
Mof_H 	H 	0.0174	0.735	0.4882	-0
Mof_H 	H 	0.0901	0.8677	0.5494	-0.016
Mof_H 	H 	0.1272	0.9688	0.647	0.03
Mof_H 	H 	0.0871	0.9005	0.673	0.043
Mof_H 	H 	0.0235	0.9012	0.6489	0.038
Mof_H 	H 	0.1782	0.8831	0.5805	-0.097
Mof_H 	H 	0.1269	0.7704	0.5069	0.132
Mof_H 	H 	0.2484	0.8546	0.6032	-0.153
Mof_H 	H 	0.2697	0.7702	0.6539	0.05
Mof_H 	H 	0.1699	0.7651	0.6132	-0.007
Mof_H 	H 	0.2908	0.8821	0.7131	-0.077
Mof_H 	H 	0.1698	0.8383	0.6893	0.037
Mof_H 	H 	0.324	0.004	0.8364	0.065
Mof_H 	H 	0.2152	0.9499	0.7721	0.033
Mof_H 	H 	0.2415	0.915	0.8025	0.048
Mof_H 	H 	0.3343	0.4565	0.5468	0.011
Mof_H 	H 	0.2963	0.5267	0.607	0.077
Mof_H 	H 	0.3712	0.551	0.5618	-0.045
Mof_H 	H 	0.3033	0.6228	0.5725	-0.589
Mof_H 	H 	0.2468	0.5292	0.5118	-0.01
Mof_H 	H 	0.3183	0.5407	0.4506	-0.005
Mof_H 	H 	0.3218	0.4802	0.353	0.045
Mof_H 	H 	0.2275	0.4141	0.327	0.032
Mof_H 	H 	0.2523	0.3746	0.3511	0.047
Mof_H 	H 	0.3026	0.5977	0.4195	-0.126
Mof_H 	H 	0.2635	0.62	0.4931	0.129
Mof_H 	H 	0.2514	0.6452	0.3968	-0.194
Mof_H 	H 	0.1163	0.6158	0.3461	0.057
Mof_H 	H 	0.1519	0.5567	0.3868	-0.007
Mof_H 	H 	0.169	0.5777	0.2869	-0.108
Mof_H 	H 	0.149	0.4805	0.3107	0.036
Mof_H 	H 	0.1676	0.4876	0.1636	0.169
Mof_H 	H 	0.1778	0.4431	0.2279	-0.03
Mof_H 	H 	0.1125	0.439	0.1975	-0.012
Mof_H 	H 	0.7875	0.4532	0.9097	0.027
Mof_H 	H 	0.6893	0.393	0.9197	0.101
Mof_H 	H 	0.8094	0.4382	0.9892	-0.028
Mof_H 	H 	0.7308	0.4275	0.0503	-0.525
Mof_H 	H 	0.735	0.4882	0.0174	-0
Mof_H 	H 	0.8677	0.5494	0.0901	-0.016
Mof_H 	H 	0.9688	0.647	0.1272	0.03
Mof_H 	H 	0.9005	0.673	0.0871	0.043
Mof_H 	H 	0.9012	0.6489	0.0235	0.038
Mof_H 	H 	0.8831	0.5805	0.1782	-0.097
Mof_H 	H 	0.7704	0.5069	0.1269	0.132
Mof_H 	H 	0.8546	0.6032	0.2484	-0.153
Mof_H 	H 	0.7702	0.6539	0.2697	0.05
Mof_H 	H 	0.7651	0.6132	0.1699	-0.007
Mof_H 	H 	0.8821	0.7131	0.2908	-0.077
Mof_H 	H 	0.8383	0.6893	0.1698	0.037
Mof_H 	H 	0.004	0.8364	0.324	0.065
Mof_H 	H 	0.9499	0.7721	0.2152	0.033
Mof_H 	H 	0.915	0.8025	0.2415	0.048
Mof_H 	H 	0.4565	0.5468	0.3343	0.011
Mof_H 	H 	0.5267	0.607	0.2963	0.077
Mof_H 	H 	0.551	0.5618	0.3712	-0.045
Mof_H 	H 	0.6228	0.5725	0.3033	-0.589
Mof_H 	H 	0.5292	0.5118	0.2468	-0.01
Mof_H 	H 	0.5407	0.4506	0.3183	-0.005
Mof_H 	H 	0.4802	0.353	0.3218	0.045
Mof_H 	H 	0.4141	0.327	0.2275	0.032
Mof_H 	H 	0.3746	0.3511	0.2523	0.047
Mof_H 	H 	0.5977	0.4195	0.3026	-0.126
Mof_H 	H 	0.62	0.4931	0.2635	0.129
Mof_H 	H 	0.6452	0.3968	0.2514	-0.194
Mof_H 	H 	0.6158	0.3461	0.1163	0.057
Mof_H 	H 	0.5567	0.3868	0.1519	-0.007
Mof_H 	H 	0.5777	0.2869	0.169	-0.108
Mof_H 	H 	0.4805	0.3107	0.149	0.036
Mof_H 	H 	0.4876	0.1636	0.1676	0.169
Mof_H 	H 	0.4431	0.2279	0.1778	-0.03
Mof_H 	H 	0.439	0.1975	0.1125	-0.012
Mof_H 	H 	0.5435	0.8778	0.0903	0.006
Mof_H 	H 	0.4733	0.7696	0.0803	0.064
Mof_H 	H 	0.449	0.8202	0.0108	-0.028
Mof_H 	H 	0.3772	0.6805	0.9497	-0.47
Mof_H 	H 	0.4708	0.7176	0.9826	-0.005
Mof_H 	H 	0.4593	0.7776	0.9099	0.028
Mof_H 	H 	0.5198	0.8416	0.8728	0.033
Mof_H 	H 	0.5859	0.8134	0.9129	0.075
Mof_H 	H 	0.6254	0.8777	0.9765	0.128
Mof_H 	H 	0.4023	0.7049	0.8218	-0.121
Mof_H 	H 	0.38	0.6435	0.8731	0.138
Mof_H 	H 	0.3548	0.6062	0.7516	-0.196
Mof_H 	H 	0.3842	0.5005	0.7303	0.049
Mof_H 	H 	0.4433	0.5952	0.8301	0.011
Mof_H 	H 	0.4223	0.5913	0.7092	-0.106
Mof_H 	H 	0.5195	0.6685	0.8302	0.053
Mof_H 	H 	0.5124	0.68	0.676	0.181
Mof_H 	H 	0.5569	0.7347	0.7848	-0.007
Mof_H 	H 	0.561	0.6735	0.7585	0.021
Mof_H 	H 	0.2125	0.1222	0.6657	0.005
Mof_H 	H 	0.3107	0.2304	0.7037	0.08
Mof_H 	H 	0.1906	0.1798	0.6288	-0.053
Mof_H 	H 	0.2692	0.3195	0.6967	-0.588
Mof_H 	H 	0.265	0.2824	0.7532	0
Mof_H 	H 	0.1323	0.2224	0.6817	-0.011
Mof_H 	H 	0.0312	0.1584	0.6782	0.087
Mof_H 	H 	0.0995	0.1866	0.7725	0.031
Mof_H 	H 	0.0988	0.1223	0.7477	0.034
Mof_H 	H 	0.1169	0.2951	0.6974	-0.117
Mof_H 	H 	0.2296	0.3565	0.7365	0.133
Mof_H 	H 	0.1454	0.3938	0.7486	-0.166
Mof_H 	H 	0.2298	0.4995	0.8837	0.059
Mof_H 	H 	0.2349	0.4048	0.8481	0.013
Mof_H 	H 	0.1179	0.4087	0.831	-0.087
Mof_H 	H 	0.1617	0.3315	0.851	0.054
Mof_H 	H 	0.996	0.32	0.8324	0.286
Mof_H 	H 	0.0501	0.2653	0.8222	-0.045
Mof_H 	H 	0.085	0.3265	0.8875	0.003
Mof_H 	H 	0.1222	0.6657	0.2125	0.005
Mof_H 	H 	0.2304	0.7037	0.3107	0.08
Mof_H 	H 	0.1798	0.6288	0.1906	-0.053
Mof_H 	H 	0.3195	0.6967	0.2692	-0.588
Mof_H 	H 	0.2824	0.7532	0.265	0
Mof_H 	H 	0.2224	0.6817	0.1323	-0.011
Mof_H 	H 	0.1584	0.6782	0.0312	0.087
Mof_H 	H 	0.1866	0.7725	0.0995	0.031
Mof_H 	H 	0.1223	0.7477	0.0988	0.034
Mof_H 	H 	0.2951	0.6974	0.1169	-0.117
Mof_H 	H 	0.3565	0.7365	0.2296	0.133
Mof_H 	H 	0.3938	0.7486	0.1454	-0.166
Mof_H 	H 	0.4995	0.8837	0.2298	0.059
Mof_H 	H 	0.4048	0.8481	0.2349	0.013
Mof_H 	H 	0.4087	0.831	0.1179	-0.087
Mof_H 	H 	0.3315	0.851	0.1617	0.054
Mof_H 	H 	0.32	0.8324	0.996	0.286
Mof_H 	H 	0.2653	0.8222	0.0501	-0.045
Mof_H 	H 	0.3265	0.8875	0.085	0.003
Mof_H 	H 	0.8778	0.0903	0.5435	0.006
Mof_H 	H 	0.7696	0.0803	0.4733	0.064
Mof_H 	H 	0.8202	0.0108	0.449	-0.028
Mof_H 	H 	0.6805	0.9497	0.3772	-0.47
Mof_H 	H 	0.7176	0.9826	0.4708	-0.005
Mof_H 	H 	0.7776	0.9099	0.4593	0.028
Mof_H 	H 	0.8416	0.8728	0.5198	0.033
Mof_H 	H 	0.8134	0.9129	0.5859	0.075
Mof_H 	H 	0.8777	0.9765	0.6254	0.128
Mof_H 	H 	0.7049	0.8218	0.4023	-0.121
Mof_H 	H 	0.6435	0.8731	0.38	0.138
Mof_H 	H 	0.6062	0.7516	0.3548	-0.196
Mof_H 	H 	0.5005	0.7303	0.3842	0.049
Mof_H 	H 	0.5952	0.8301	0.4433	0.011
Mof_H 	H 	0.5913	0.7092	0.4223	-0.106
Mof_H 	H 	0.6685	0.8302	0.5195	0.053
Mof_H 	H 	0.68	0.676	0.5124	0.181
Mof_H 	H 	0.7347	0.7848	0.5569	-0.007
Mof_H 	H 	0.6735	0.7585	0.561	0.021
Mof_H 	H 	0.5468	0.3343	0.4565	0.011
Mof_H 	H 	0.607	0.2963	0.5267	0.077
Mof_H 	H 	0.5618	0.3712	0.551	-0.045
Mof_H 	H 	0.5725	0.3033	0.6228	-0.589
Mof_H 	H 	0.5118	0.2468	0.5292	-0.01
Mof_H 	H 	0.4506	0.3183	0.5407	-0.005
Mof_H 	H 	0.353	0.3218	0.4802	0.045
Mof_H 	H 	0.327	0.2275	0.4141	0.032
Mof_H 	H 	0.3511	0.2523	0.3746	0.047
Mof_H 	H 	0.4195	0.3026	0.5977	-0.126
Mof_H 	H 	0.4931	0.2635	0.62	0.129
Mof_H 	H 	0.3968	0.2514	0.6452	-0.194
Mof_H 	H 	0.3461	0.1163	0.6158	0.057
Mof_H 	H 	0.3868	0.1519	0.5567	-0.007
Mof_H 	H 	0.2869	0.169	0.5777	-0.108
Mof_H 	H 	0.3107	0.149	0.4805	0.036
Mof_H 	H 	0.1636	0.1676	0.4876	0.169
Mof_H 	H 	0.2279	0.1778	0.4431	-0.03
Mof_H 	H 	0.1975	0.1125	0.439	-0.012
Mof_H 	H 	0.4532	0.9097	0.7875	0.027
Mof_H 	H 	0.393	0.9197	0.6893	0.101
Mof_H 	H 	0.4382	0.9892	0.8094	-0.028
Mof_H 	H 	0.4275	0.0503	0.7308	-0.525
Mof_H 	H 	0.4882	0.0174	0.735	-0
Mof_H 	H 	0.5494	0.0901	0.8677	-0.016
Mof_H 	H 	0.647	0.1272	0.9688	0.03
Mof_H 	H 	0.673	0.0871	0.9005	0.043
Mof_H 	H 	0.6489	0.0235	0.9012	0.038
Mof_H 	H 	0.5805	0.1782	0.8831	-0.097
Mof_H 	H 	0.5069	0.1269	0.7704	0.132
Mof_H 	H 	0.6032	0.2484	0.8546	-0.153
Mof_H 	H 	0.6539	0.2697	0.7702	0.05
Mof_H 	H 	0.6132	0.1699	0.7651	-0.007
Mof_H 	H 	0.7131	0.2908	0.8821	-0.077
Mof_H 	H 	0.6893	0.1698	0.8383	0.037
Mof_H 	H 	0.8364	0.324	0.004	0.065
Mof_H 	H 	0.7721	0.2152	0.9499	0.033
Mof_H 	H 	0.8025	0.2415	0.915	0.048
Mof_C 	C 	0.4652	0.9436	0.1604	0.112
Mof_C 	C 	0.5303	0.9737	0.2008	0.253
Mof_C 	C 	0.5453	0.031	0.2577	-0.159
Mof_C 	C 	0.5185	0.07	0.2399	0.184
Mof_C 	C 	0.4474	0.0254	0.189	-0.05
Mof_C 	C 	0.4164	0.0548	0.1572	0.019
Mof_C 	C 	0.5726	0.1774	0.3158	0.125
Mof_C 	C 	0.6141	0.206	0.3801	0.038
Mof_C 	C 	0.5855	0.2109	0.4134	0.05
Mof_C 	C 	0.5497	0.2491	0.3994	0.086
Mof_C 	C 	0.5079	0.2111	0.3396	-0.006
Mof_C 	C 	0.4675	0.2407	0.3106	0.109
Mof_C 	C 	0.7832	0.3048	0.8396	0.148
Mof_C 	C 	0.7729	0.3295	0.7992	0.143
Mof_C 	C 	0.7733	0.2876	0.7423	-0.05
Mof_C 	C 	0.8301	0.2786	0.7601	0.126
Mof_C 	C 	0.8364	0.2584	0.811	0.078
Mof_C 	C 	0.8976	0.2592	0.8428	-0.056
Mof_C 	C 	0.8616	0.2568	0.6842	0.119
Mof_C 	C 	0.8259	0.234	0.6199	0.032
Mof_C 	C 	0.7975	0.1721	0.5866	0.054
Mof_C 	C 	0.8497	0.1503	0.6006	0.081
Mof_C 	C 	0.8715	0.1683	0.6604	0.007
Mof_C 	C 	0.9301	0.1569	0.6894	0.051
Mof_C 	C 	0.2168	0.0564	0.5216	0.203
Mof_C 	C 	0.2271	0.0263	0.5566	0.005
Mof_C 	C 	0.2267	0.969	0.5143	0.079
Mof_C 	C 	0.1699	0.93	0.4485	0.07
Mof_C 	C 	0.1636	0.9746	0.422	0.194
Mof_C 	C 	0.1024	0.9452	0.3616	-0.069
Mof_C 	C 	0.1384	0.8226	0.3952	0.117
Mof_C 	C 	0.1741	0.794	0.4081	0.039
Mof_C 	C 	0.2025	0.7891	0.3746	0.045
Mof_C 	C 	0.1503	0.7509	0.3006	0.092
Mof_C 	C 	0.1285	0.7889	0.2968	-0.019
Mof_C 	C 	0.0699	0.7593	0.2268	0.143
Mof_C 	C 	0.5348	0.6952	0.4784	0.154
Mof_C 	C 	0.4697	0.6705	0.4434	0.145
Mof_C 	C 	0.4547	0.7124	0.4857	-0.055
Mof_C 	C 	0.4815	0.7214	0.5515	0.132
Mof_C 	C 	0.5526	0.7416	0.578	0.085
Mof_C 	C 	0.5836	0.7408	0.6384	-0.047
Mof_C 	C 	0.4274	0.7432	0.6048	0.117
Mof_C 	C 	0.3859	0.766	0.5919	0.046
Mof_C 	C 	0.4145	0.8279	0.6254	0.043
Mof_C 	C 	0.4503	0.8497	0.6994	0.078
Mof_C 	C 	0.4921	0.8317	0.7032	0.002
Mof_C 	C 	0.5325	0.8431	0.7732	0.093
Mof_C 	C 	0.5216	0.2168	0.0564	0.203
Mof_C 	C 	0.5566	0.2271	0.0263	0.005
Mof_C 	C 	0.5143	0.2267	0.969	0.079
Mof_C 	C 	0.4485	0.1699	0.93	0.07
Mof_C 	C 	0.422	0.1636	0.9746	0.194
Mof_C 	C 	0.3616	0.1024	0.9452	-0.069
Mof_C 	C 	0.3952	0.1384	0.8226	0.117
Mof_C 	C 	0.4081	0.1741	0.794	0.039
Mof_C 	C 	0.3746	0.2025	0.7891	0.045
Mof_C 	C 	0.3006	0.1503	0.7509	0.092
Mof_C 	C 	0.2968	0.1285	0.7889	-0.019
Mof_C 	C 	0.2268	0.0699	0.7593	0.143
Mof_C 	C 	0.4784	0.5348	0.6952	0.154
Mof_C 	C 	0.4434	0.4697	0.6705	0.145
Mof_C 	C 	0.4857	0.4547	0.7124	-0.055
Mof_C 	C 	0.5515	0.4815	0.7214	0.132
Mof_C 	C 	0.578	0.5526	0.7416	0.085
Mof_C 	C 	0.6384	0.5836	0.7408	-0.047
Mof_C 	C 	0.6048	0.4274	0.7432	0.117
Mof_C 	C 	0.5919	0.3859	0.766	0.046
Mof_C 	C 	0.6254	0.4145	0.8279	0.043
Mof_C 	C 	0.6994	0.4503	0.8497	0.078
Mof_C 	C 	0.7032	0.4921	0.8317	0.002
Mof_C 	C 	0.7732	0.5325	0.8431	0.093
Mof_C 	C 	0.1604	0.4652	0.9436	0.112
Mof_C 	C 	0.2008	0.5303	0.9737	0.253
Mof_C 	C 	0.2577	0.5453	0.031	-0.159
Mof_C 	C 	0.2399	0.5185	0.07	0.184
Mof_C 	C 	0.189	0.4474	0.0254	-0.05
Mof_C 	C 	0.1572	0.4164	0.0548	0.019
Mof_C 	C 	0.3158	0.5726	0.1774	0.125
Mof_C 	C 	0.3801	0.6141	0.206	0.038
Mof_C 	C 	0.4134	0.5855	0.2109	0.05
Mof_C 	C 	0.3994	0.5497	0.2491	0.086
Mof_C 	C 	0.3396	0.5079	0.2111	-0.006
Mof_C 	C 	0.3106	0.4675	0.2407	0.109
Mof_C 	C 	0.8396	0.7832	0.3048	0.148
Mof_C 	C 	0.7992	0.7729	0.3295	0.143
Mof_C 	C 	0.7423	0.7733	0.2876	-0.05
Mof_C 	C 	0.7601	0.8301	0.2786	0.126
Mof_C 	C 	0.811	0.8364	0.2584	0.078
Mof_C 	C 	0.8428	0.8976	0.2592	-0.056
Mof_C 	C 	0.6842	0.8616	0.2568	0.119
Mof_C 	C 	0.6199	0.8259	0.234	0.032
Mof_C 	C 	0.5866	0.7975	0.1721	0.054
Mof_C 	C 	0.6006	0.8497	0.1503	0.081
Mof_C 	C 	0.6604	0.8715	0.1683	0.007
Mof_C 	C 	0.6894	0.9301	0.1569	0.051
Mof_C 	C 	0.3048	0.8396	0.7832	0.148
Mof_C 	C 	0.3295	0.7992	0.7729	0.143
Mof_C 	C 	0.2876	0.7423	0.7733	-0.05
Mof_C 	C 	0.2786	0.7601	0.8301	0.126
Mof_C 	C 	0.2584	0.811	0.8364	0.078
Mof_C 	C 	0.2592	0.8428	0.8976	-0.056
Mof_C 	C 	0.2568	0.6842	0.8616	0.119
Mof_C 	C 	0.234	0.6199	0.8259	0.032
Mof_C 	C 	0.1721	0.5866	0.7975	0.054
Mof_C 	C 	0.1503	0.6006	0.8497	0.081
Mof_C 	C 	0.1683	0.6604	0.8715	0.007
Mof_C 	C 	0.1569	0.6894	0.9301	0.051
Mof_C 	C 	0.9436	0.1604	0.4652	0.112
Mof_C 	C 	0.9737	0.2008	0.5303	0.253
Mof_C 	C 	0.031	0.2577	0.5453	-0.159
Mof_C 	C 	0.07	0.2399	0.5185	0.184
Mof_C 	C 	0.0254	0.189	0.4474	-0.05
Mof_C 	C 	0.0548	0.1572	0.4164	0.019
Mof_C 	C 	0.1774	0.3158	0.5726	0.125
Mof_C 	C 	0.206	0.3801	0.6141	0.038
Mof_C 	C 	0.2109	0.4134	0.5855	0.05
Mof_C 	C 	0.2491	0.3994	0.5497	0.086
Mof_C 	C 	0.2111	0.3396	0.5079	-0.006
Mof_C 	C 	0.2407	0.3106	0.4675	0.109
Mof_C 	C 	0.6952	0.4784	0.5348	0.154
Mof_C 	C 	0.6705	0.4434	0.4697	0.145
Mof_C 	C 	0.7124	0.4857	0.4547	-0.055
Mof_C 	C 	0.7214	0.5515	0.4815	0.132
Mof_C 	C 	0.7416	0.578	0.5526	0.085
Mof_C 	C 	0.7408	0.6384	0.5836	-0.047
Mof_C 	C 	0.7432	0.6048	0.4274	0.117
Mof_C 	C 	0.766	0.5919	0.3859	0.046
Mof_C 	C 	0.8279	0.6254	0.4145	0.043
Mof_C 	C 	0.8497	0.6994	0.4503	0.078
Mof_C 	C 	0.8317	0.7032	0.4921	0.002
Mof_C 	C 	0.8431	0.7732	0.5325	0.093
Mof_C 	C 	0.0564	0.5216	0.2168	0.203
Mof_C 	C 	0.0263	0.5566	0.2271	0.005
Mof_C 	C 	0.969	0.5143	0.2267	0.079
Mof_C 	C 	0.93	0.4485	0.1699	0.07
Mof_C 	C 	0.9746	0.422	0.1636	0.194
Mof_C 	C 	0.9452	0.3616	0.1024	-0.069
Mof_C 	C 	0.8226	0.3952	0.1384	0.117
Mof_C 	C 	0.794	0.4081	0.1741	0.039
Mof_C 	C 	0.7891	0.3746	0.2025	0.045
Mof_C 	C 	0.7509	0.3006	0.1503	0.092
Mof_C 	C 	0.7889	0.2968	0.1285	-0.019
Mof_C 	C 	0.7593	0.2268	0.0699	0.143
Mof_C 	C 	0.0564	0.5348	0.8396	0.196
Mof_C 	C 	0.0263	0.4697	0.7992	0.006
Mof_C 	C 	0.969	0.4547	0.7423	0.081
Mof_C 	C 	0.93	0.4815	0.7601	0.066
Mof_C 	C 	0.9746	0.5526	0.811	0.203
Mof_C 	C 	0.9452	0.5836	0.8428	-0.095
Mof_C 	C 	0.8226	0.4274	0.6842	0.108
Mof_C 	C 	0.794	0.3859	0.6199	0.05
Mof_C 	C 	0.7891	0.4145	0.5866	0.04
Mof_C 	C 	0.7509	0.4503	0.6006	0.09
Mof_C 	C 	0.7889	0.4921	0.6604	-0.007
Mof_C 	C 	0.7593	0.5325	0.6894	0.101
Mof_C 	C 	0.6952	0.2168	0.1604	0.154
Mof_C 	C 	0.6705	0.2271	0.2008	0.147
Mof_C 	C 	0.7124	0.2267	0.2577	-0.058
Mof_C 	C 	0.7214	0.1699	0.2399	0.137
Mof_C 	C 	0.7416	0.1636	0.189	0.073
Mof_C 	C 	0.7408	0.1024	0.1572	-0.02
Mof_C 	C 	0.7432	0.1384	0.3158	0.126
Mof_C 	C 	0.766	0.1741	0.3801	0.035
Mof_C 	C 	0.8279	0.2025	0.4134	0.049
Mof_C 	C 	0.8497	0.1503	0.3994	0.079
Mof_C 	C 	0.8317	0.1285	0.3396	-0.01
Mof_C 	C 	0.8431	0.0699	0.3106	0.135
Mof_C 	C 	0.9436	0.7832	0.4784	0.113
Mof_C 	C 	0.9737	0.7729	0.4434	0.25
Mof_C 	C 	0.031	0.7733	0.4857	-0.154
Mof_C 	C 	0.07	0.8301	0.5515	0.174
Mof_C 	C 	0.0254	0.8364	0.578	-0.036
Mof_C 	C 	0.0548	0.8976	0.6384	-0.009
Mof_C 	C 	0.1774	0.8616	0.6048	0.125
Mof_C 	C 	0.206	0.8259	0.5919	0.027
Mof_C 	C 	0.2109	0.7975	0.6254	0.06
Mof_C 	C 	0.2491	0.8497	0.6994	0.069
Mof_C 	C 	0.2111	0.8715	0.7032	0.015
Mof_C 	C 	0.2407	0.9301	0.7732	0.043
Mof_C 	C 	0.3048	0.4652	0.5216	0.155
Mof_C 	C 	0.3295	0.5303	0.5566	0.143
Mof_C 	C 	0.2876	0.5453	0.5143	-0.054
Mof_C 	C 	0.2786	0.5185	0.4485	0.136
Mof_C 	C 	0.2584	0.4474	0.422	0.064
Mof_C 	C 	0.2592	0.4164	0.3616	-0.027
Mof_C 	C 	0.2568	0.5726	0.3952	0.119
Mof_C 	C 	0.234	0.6141	0.4081	0.043
Mof_C 	C 	0.1721	0.5855	0.3746	0.044
Mof_C 	C 	0.1503	0.5497	0.3006	0.098
Mof_C 	C 	0.1683	0.5079	0.2968	-0.014
Mof_C 	C 	0.1569	0.4675	0.2268	0.116
Mof_C 	C 	0.7832	0.4784	0.9436	0.113
Mof_C 	C 	0.7729	0.4434	0.9737	0.25
Mof_C 	C 	0.7733	0.4857	0.031	-0.154
Mof_C 	C 	0.8301	0.5515	0.07	0.174
Mof_C 	C 	0.8364	0.578	0.0254	-0.036
Mof_C 	C 	0.8976	0.6384	0.0548	-0.009
Mof_C 	C 	0.8616	0.6048	0.1774	0.125
Mof_C 	C 	0.8259	0.5919	0.206	0.027
Mof_C 	C 	0.7975	0.6254	0.2109	0.06
Mof_C 	C 	0.8497	0.6994	0.2491	0.069
Mof_C 	C 	0.8715	0.7032	0.2111	0.015
Mof_C 	C 	0.9301	0.7732	0.2407	0.043
Mof_C 	C 	0.4652	0.5216	0.3048	0.155
Mof_C 	C 	0.5303	0.5566	0.3295	0.143
Mof_C 	C 	0.5453	0.5143	0.2876	-0.054
Mof_C 	C 	0.5185	0.4485	0.2786	0.136
Mof_C 	C 	0.4474	0.422	0.2584	0.064
Mof_C 	C 	0.4164	0.3616	0.2592	-0.027
Mof_C 	C 	0.5726	0.3952	0.2568	0.119
Mof_C 	C 	0.6141	0.4081	0.234	0.043
Mof_C 	C 	0.5855	0.3746	0.1721	0.044
Mof_C 	C 	0.5497	0.3006	0.1503	0.098
Mof_C 	C 	0.5079	0.2968	0.1683	-0.014
Mof_C 	C 	0.4675	0.2268	0.1569	0.116
Mof_C 	C 	0.5348	0.8396	0.0564	0.196
Mof_C 	C 	0.4697	0.7992	0.0263	0.006
Mof_C 	C 	0.4547	0.7423	0.969	0.081
Mof_C 	C 	0.4815	0.7601	0.93	0.066
Mof_C 	C 	0.5526	0.811	0.9746	0.203
Mof_C 	C 	0.5836	0.8428	0.9452	-0.095
Mof_C 	C 	0.4274	0.6842	0.8226	0.108
Mof_C 	C 	0.3859	0.6199	0.794	0.05
Mof_C 	C 	0.4145	0.5866	0.7891	0.04
Mof_C 	C 	0.4503	0.6006	0.7509	0.09
Mof_C 	C 	0.4921	0.6604	0.7889	-0.007
Mof_C 	C 	0.5325	0.6894	0.7593	0.101
Mof_C 	C 	0.2168	0.1604	0.6952	0.154
Mof_C 	C 	0.2271	0.2008	0.6705	0.147
Mof_C 	C 	0.2267	0.2577	0.7124	-0.058
Mof_C 	C 	0.1699	0.2399	0.7214	0.137
Mof_C 	C 	0.1636	0.189	0.7416	0.073
Mof_C 	C 	0.1024	0.1572	0.7408	-0.02
Mof_C 	C 	0.1384	0.3158	0.7432	0.126
Mof_C 	C 	0.1741	0.3801	0.766	0.035
Mof_C 	C 	0.2025	0.4134	0.8279	0.049
Mof_C 	C 	0.1503	0.3994	0.8497	0.079
Mof_C 	C 	0.1285	0.3396	0.8317	-0.01
Mof_C 	C 	0.0699	0.3106	0.8431	0.135
Mof_C 	C 	0.1604	0.6952	0.2168	0.154
Mof_C 	C 	0.2008	0.6705	0.2271	0.147
Mof_C 	C 	0.2577	0.7124	0.2267	-0.058
Mof_C 	C 	0.2399	0.7214	0.1699	0.137
Mof_C 	C 	0.189	0.7416	0.1636	0.073
Mof_C 	C 	0.1572	0.7408	0.1024	-0.02
Mof_C 	C 	0.3158	0.7432	0.1384	0.126
Mof_C 	C 	0.3801	0.766	0.1741	0.035
Mof_C 	C 	0.4134	0.8279	0.2025	0.049
Mof_C 	C 	0.3994	0.8497	0.1503	0.079
Mof_C 	C 	0.3396	0.8317	0.1285	-0.01
Mof_C 	C 	0.3106	0.8431	0.0699	0.135
Mof_C 	C 	0.8396	0.0564	0.5348	0.196
Mof_C 	C 	0.7992	0.0263	0.4697	0.006
Mof_C 	C 	0.7423	0.969	0.4547	0.081
Mof_C 	C 	0.7601	0.93	0.4815	0.066
Mof_C 	C 	0.811	0.9746	0.5526	0.203
Mof_C 	C 	0.8428	0.9452	0.5836	-0.095
Mof_C 	C 	0.6842	0.8226	0.4274	0.108
Mof_C 	C 	0.6199	0.794	0.3859	0.05
Mof_C 	C 	0.5866	0.7891	0.4145	0.04
Mof_C 	C 	0.6006	0.7509	0.4503	0.09
Mof_C 	C 	0.6604	0.7889	0.4921	-0.007
Mof_C 	C 	0.6894	0.7593	0.5325	0.101
Mof_C 	C 	0.5216	0.3048	0.4652	0.155
Mof_C 	C 	0.5566	0.3295	0.5303	0.143
Mof_C 	C 	0.5143	0.2876	0.5453	-0.054
Mof_C 	C 	0.4485	0.2786	0.5185	0.136
Mof_C 	C 	0.422	0.2584	0.4474	0.064
Mof_C 	C 	0.3616	0.2592	0.4164	-0.027
Mof_C 	C 	0.3952	0.2568	0.5726	0.119
Mof_C 	C 	0.4081	0.234	0.6141	0.043
Mof_C 	C 	0.3746	0.1721	0.5855	0.044
Mof_C 	C 	0.3006	0.1503	0.5497	0.098
Mof_C 	C 	0.2968	0.1683	0.5079	-0.014
Mof_C 	C 	0.2268	0.1569	0.4675	0.116
Mof_C 	C 	0.4784	0.9436	0.7832	0.113
Mof_C 	C 	0.4434	0.9737	0.7729	0.25
Mof_C 	C 	0.4857	0.031	0.7733	-0.154
Mof_C 	C 	0.5515	0.07	0.8301	0.174
Mof_C 	C 	0.578	0.0254	0.8364	-0.036
Mof_C 	C 	0.6384	0.0548	0.8976	-0.009
Mof_C 	C 	0.6048	0.1774	0.8616	0.125
Mof_C 	C 	0.5919	0.206	0.8259	0.027
Mof_C 	C 	0.6254	0.2109	0.7975	0.06
Mof_C 	C 	0.6994	0.2491	0.8497	0.069
Mof_C 	C 	0.7032	0.2111	0.8715	0.015
Mof_C 	C 	0.7732	0.2407	0.9301	0.043
Mof_O 	O 	0.439	0.9768	0.1398	-0.112
Mof_O 	O 	0.5469	0.9365	0.2106	-0.617
Mof_O 	O 	0.6079	0.064	0.2909	-0.238
Mof_O 	O 	0.5253	0.111	0.2871	-0.251
Mof_O 	O 	0.4597	0.0824	0.1351	-0.245
Mof_O 	O 	0.5385	0.2068	0.2985	-0.583
Mof_O 	O 	0.6476	0.1703	0.3877	-0.276
Mof_O 	O 	0.6315	0.2491	0.4764	-0.298
Mof_O 	O 	0.4332	0.9143	0.1833	-0.209
Mof_O 	O 	0.5102	0.3029	0.3287	-0.519
Mof_O 	O 	0.837	0.2992	0.8602	-0.189
Mof_O 	O 	0.7259	0.3363	0.7894	-0.646
Mof_O 	O 	0.7731	0.317	0.7091	-0.247
Mof_O 	O 	0.8239	0.2382	0.7129	-0.235
Mof_O 	O 	0.9473	0.3246	0.8649	-0.135
Mof_O 	O 	0.9083	0.24	0.7015	-0.513
Mof_O 	O 	0.7826	0.2599	0.6123	-0.274
Mof_O 	O 	0.7727	0.1551	0.5236	-0.296
Mof_O 	O 	0.731	0.2499	0.8167	-0.24
Mof_O 	O 	0.9742	0.1815	0.6713	-0.356
Mof_O 	O 	0.163	0.0232	0.4622	-0.315
Mof_O 	O 	0.2741	0.0635	0.6104	-0.579
Mof_O 	O 	0.2269	0.936	0.5439	-0.265
Mof_O 	O 	0.1761	0.889	0.4143	-0.216
Mof_O 	O 	0.0527	0.9176	0.3773	-0.208
Mof_O 	O 	0.0917	0.7932	0.3317	-0.545
Mof_O 	O 	0.2174	0.8297	0.4773	-0.27
Mof_O 	O 	0.2273	0.7509	0.3824	-0.289
Mof_O 	O 	0.269	0.0857	0.5189	-0.278
Mof_O 	O 	0.0258	0.6971	0.2073	-0.602
Mof_O 	O 	0.561	0.7008	0.5378	-0.206
Mof_O 	O 	0.4531	0.6637	0.3896	-0.649
Mof_O 	O 	0.3921	0.683	0.4561	-0.247
Mof_O 	O 	0.4747	0.7618	0.5857	-0.229
Mof_O 	O 	0.5403	0.6754	0.6227	-0.19
Mof_O 	O 	0.4615	0.76	0.6683	-0.58
Mof_O 	O 	0.3524	0.7401	0.5227	-0.276
Mof_O 	O 	0.3685	0.8449	0.6176	-0.283
Mof_O 	O 	0.5668	0.7501	0.4811	-0.24
Mof_O 	O 	0.4898	0.8185	0.7927	-0.515
Mof_O 	O 	0.4622	0.163	0.0232	-0.315
Mof_O 	O 	0.6104	0.2741	0.0635	-0.579
Mof_O 	O 	0.5439	0.2269	0.936	-0.265
Mof_O 	O 	0.4143	0.1761	0.889	-0.216
Mof_O 	O 	0.3773	0.0527	0.9176	-0.208
Mof_O 	O 	0.3317	0.0917	0.7932	-0.545
Mof_O 	O 	0.4773	0.2174	0.8297	-0.27
Mof_O 	O 	0.3824	0.2273	0.7509	-0.289
Mof_O 	O 	0.5189	0.269	0.0857	-0.278
Mof_O 	O 	0.2073	0.0258	0.6971	-0.602
Mof_O 	O 	0.5378	0.561	0.7008	-0.206
Mof_O 	O 	0.3896	0.4531	0.6637	-0.649
Mof_O 	O 	0.4561	0.3921	0.683	-0.247
Mof_O 	O 	0.5857	0.4747	0.7618	-0.229
Mof_O 	O 	0.6227	0.5403	0.6754	-0.19
Mof_O 	O 	0.6683	0.4615	0.76	-0.58
Mof_O 	O 	0.5227	0.3524	0.7401	-0.276
Mof_O 	O 	0.6176	0.3685	0.8449	-0.283
Mof_O 	O 	0.4811	0.5668	0.7501	-0.24
Mof_O 	O 	0.7927	0.4898	0.8185	-0.515
Mof_O 	O 	0.1398	0.439	0.9768	-0.112
Mof_O 	O 	0.2106	0.5469	0.9365	-0.617
Mof_O 	O 	0.2909	0.6079	0.064	-0.238
Mof_O 	O 	0.2871	0.5253	0.111	-0.251
Mof_O 	O 	0.1351	0.4597	0.0824	-0.245
Mof_O 	O 	0.2985	0.5385	0.2068	-0.583
Mof_O 	O 	0.3877	0.6476	0.1703	-0.276
Mof_O 	O 	0.4764	0.6315	0.2491	-0.298
Mof_O 	O 	0.1833	0.4332	0.9143	-0.209
Mof_O 	O 	0.3287	0.5102	0.3029	-0.519
Mof_O 	O 	0.8602	0.837	0.2992	-0.189
Mof_O 	O 	0.7894	0.7259	0.3363	-0.646
Mof_O 	O 	0.7091	0.7731	0.317	-0.247
Mof_O 	O 	0.7129	0.8239	0.2382	-0.235
Mof_O 	O 	0.8649	0.9473	0.3246	-0.135
Mof_O 	O 	0.7015	0.9083	0.24	-0.513
Mof_O 	O 	0.6123	0.7826	0.2599	-0.274
Mof_O 	O 	0.5236	0.7727	0.1551	-0.296
Mof_O 	O 	0.8167	0.731	0.2499	-0.24
Mof_O 	O 	0.6713	0.9742	0.1815	-0.356
Mof_O 	O 	0.2992	0.8602	0.837	-0.189
Mof_O 	O 	0.3363	0.7894	0.7259	-0.646
Mof_O 	O 	0.317	0.7091	0.7731	-0.247
Mof_O 	O 	0.2382	0.7129	0.8239	-0.235
Mof_O 	O 	0.3246	0.8649	0.9473	-0.135
Mof_O 	O 	0.24	0.7015	0.9083	-0.513
Mof_O 	O 	0.2599	0.6123	0.7826	-0.274
Mof_O 	O 	0.1551	0.5236	0.7727	-0.296
Mof_O 	O 	0.2499	0.8167	0.731	-0.24
Mof_O 	O 	0.1815	0.6713	0.9742	-0.356
Mof_O 	O 	0.9768	0.1398	0.439	-0.112
Mof_O 	O 	0.9365	0.2106	0.5469	-0.617
Mof_O 	O 	0.064	0.2909	0.6079	-0.238
Mof_O 	O 	0.111	0.2871	0.5253	-0.251
Mof_O 	O 	0.0824	0.1351	0.4597	-0.245
Mof_O 	O 	0.2068	0.2985	0.5385	-0.583
Mof_O 	O 	0.1703	0.3877	0.6476	-0.276
Mof_O 	O 	0.2491	0.4764	0.6315	-0.298
Mof_O 	O 	0.9143	0.1833	0.4332	-0.209
Mof_O 	O 	0.3029	0.3287	0.5102	-0.519
Mof_O 	O 	0.7008	0.5378	0.561	-0.206
Mof_O 	O 	0.6637	0.3896	0.4531	-0.649
Mof_O 	O 	0.683	0.4561	0.3921	-0.247
Mof_O 	O 	0.7618	0.5857	0.4747	-0.229
Mof_O 	O 	0.6754	0.6227	0.5403	-0.19
Mof_O 	O 	0.76	0.6683	0.4615	-0.58
Mof_O 	O 	0.7401	0.5227	0.3524	-0.276
Mof_O 	O 	0.8449	0.6176	0.3685	-0.283
Mof_O 	O 	0.7501	0.4811	0.5668	-0.24
Mof_O 	O 	0.8185	0.7927	0.4898	-0.515
Mof_O 	O 	0.0232	0.4622	0.163	-0.315
Mof_O 	O 	0.0635	0.6104	0.2741	-0.579
Mof_O 	O 	0.936	0.5439	0.2269	-0.265
Mof_O 	O 	0.889	0.4143	0.1761	-0.216
Mof_O 	O 	0.9176	0.3773	0.0527	-0.208
Mof_O 	O 	0.7932	0.3317	0.0917	-0.545
Mof_O 	O 	0.8297	0.4773	0.2174	-0.27
Mof_O 	O 	0.7509	0.3824	0.2273	-0.289
Mof_O 	O 	0.0857	0.5189	0.269	-0.278
Mof_O 	O 	0.6971	0.2073	0.0258	-0.602
Mof_O 	O 	0.0232	0.561	0.8602	-0.298
Mof_O 	O 	0.0635	0.4531	0.7894	-0.578
Mof_O 	O 	0.936	0.3921	0.7091	-0.265
Mof_O 	O 	0.889	0.4747	0.7129	-0.211
Mof_O 	O 	0.9176	0.5403	0.8649	-0.142
Mof_O 	O 	0.7932	0.4615	0.7015	-0.578
Mof_O 	O 	0.8297	0.3524	0.6123	-0.273
Mof_O 	O 	0.7509	0.3685	0.5236	-0.29
Mof_O 	O 	0.0857	0.5668	0.8167	-0.271
Mof_O 	O 	0.6971	0.4898	0.6713	-0.516
Mof_O 	O 	0.7008	0.163	0.1398	-0.22
Mof_O 	O 	0.6637	0.2741	0.2106	-0.65
Mof_O 	O 	0.683	0.2269	0.2909	-0.247
Mof_O 	O 	0.7618	0.1761	0.2871	-0.234
Mof_O 	O 	0.6754	0.0527	0.1351	-0.256
Mof_O 	O 	0.76	0.0917	0.2985	-0.547
Mof_O 	O 	0.7401	0.2174	0.3877	-0.273
Mof_O 	O 	0.8449	0.2273	0.4764	-0.282
Mof_O 	O 	0.7501	0.269	0.1833	-0.241
Mof_O 	O 	0.8185	0.0258	0.3287	-0.601
Mof_O 	O 	0.9768	0.837	0.5378	-0.099
Mof_O 	O 	0.9365	0.7259	0.3896	-0.615
Mof_O 	O 	0.064	0.7731	0.4561	-0.237
Mof_O 	O 	0.111	0.8239	0.5857	-0.246
Mof_O 	O 	0.0824	0.9473	0.6227	-0.182
Mof_O 	O 	0.2068	0.9083	0.6683	-0.514
Mof_O 	O 	0.1703	0.7826	0.5227	-0.272
Mof_O 	O 	0.2491	0.7727	0.6176	-0.297
Mof_O 	O 	0.9143	0.731	0.4811	-0.208
Mof_O 	O 	0.3029	0.9742	0.7927	-0.355
Mof_O 	O 	0.2992	0.439	0.4622	-0.206
Mof_O 	O 	0.3363	0.5469	0.6104	-0.647
Mof_O 	O 	0.317	0.6079	0.5439	-0.247
Mof_O 	O 	0.2382	0.5253	0.4143	-0.239
Mof_O 	O 	0.3246	0.4597	0.3773	-0.199
Mof_O 	O 	0.24	0.5385	0.3317	-0.581
Mof_O 	O 	0.2599	0.6476	0.4773	-0.278
Mof_O 	O 	0.1551	0.6315	0.3824	-0.297
Mof_O 	O 	0.2499	0.4332	0.5189	-0.247
Mof_O 	O 	0.1815	0.5102	0.2073	-0.52
Mof_O 	O 	0.837	0.5378	0.9768	-0.099
Mof_O 	O 	0.7259	0.3896	0.9365	-0.615
Mof_O 	O 	0.7731	0.4561	0.064	-0.237
Mof_O 	O 	0.8239	0.5857	0.111	-0.246
Mof_O 	O 	0.9473	0.6227	0.0824	-0.182
Mof_O 	O 	0.9083	0.6683	0.2068	-0.514
Mof_O 	O 	0.7826	0.5227	0.1703	-0.272
Mof_O 	O 	0.7727	0.6176	0.2491	-0.297
Mof_O 	O 	0.731	0.4811	0.9143	-0.208
Mof_O 	O 	0.9742	0.7927	0.3029	-0.355
Mof_O 	O 	0.439	0.4622	0.2992	-0.206
Mof_O 	O 	0.5469	0.6104	0.3363	-0.647
Mof_O 	O 	0.6079	0.5439	0.317	-0.247
Mof_O 	O 	0.5253	0.4143	0.2382	-0.239
Mof_O 	O 	0.4597	0.3773	0.3246	-0.199
Mof_O 	O 	0.5385	0.3317	0.24	-0.581
Mof_O 	O 	0.6476	0.4773	0.2599	-0.278
Mof_O 	O 	0.6315	0.3824	0.1551	-0.297
Mof_O 	O 	0.4332	0.5189	0.2499	-0.247
Mof_O 	O 	0.5102	0.2073	0.1815	-0.52
Mof_O 	O 	0.561	0.8602	0.0232	-0.298
Mof_O 	O 	0.4531	0.7894	0.0635	-0.578
Mof_O 	O 	0.3921	0.7091	0.936	-0.265
Mof_O 	O 	0.4747	0.7129	0.889	-0.211
Mof_O 	O 	0.5403	0.8649	0.9176	-0.142
Mof_O 	O 	0.4615	0.7015	0.7932	-0.578
Mof_O 	O 	0.3524	0.6123	0.8297	-0.273
Mof_O 	O 	0.3685	0.5236	0.7509	-0.29
Mof_O 	O 	0.5668	0.8167	0.0857	-0.271
Mof_O 	O 	0.4898	0.6713	0.6971	-0.516
Mof_O 	O 	0.163	0.1398	0.7008	-0.22
Mof_O 	O 	0.2741	0.2106	0.6637	-0.65
Mof_O 	O 	0.2269	0.2909	0.683	-0.247
Mof_O 	O 	0.1761	0.2871	0.7618	-0.234
Mof_O 	O 	0.0527	0.1351	0.6754	-0.256
Mof_O 	O 	0.0917	0.2985	0.76	-0.547
Mof_O 	O 	0.2174	0.3877	0.7401	-0.273
Mof_O 	O 	0.2273	0.4764	0.8449	-0.282
Mof_O 	O 	0.269	0.1833	0.7501	-0.241
Mof_O 	O 	0.0258	0.3287	0.8185	-0.601
Mof_O 	O 	0.1398	0.7008	0.163	-0.22
Mof_O 	O 	0.2106	0.6637	0.2741	-0.65
Mof_O 	O 	0.2909	0.683	0.2269	-0.247
Mof_O 	O 	0.2871	0.7618	0.1761	-0.234
Mof_O 	O 	0.1351	0.6754	0.0527	-0.256
Mof_O 	O 	0.2985	0.76	0.0917	-0.547
Mof_O 	O 	0.3877	0.7401	0.2174	-0.273
Mof_O 	O 	0.4764	0.8449	0.2273	-0.282
Mof_O 	O 	0.1833	0.7501	0.269	-0.241
Mof_O 	O 	0.3287	0.8185	0.0258	-0.601
Mof_O 	O 	0.8602	0.0232	0.561	-0.298
Mof_O 	O 	0.7894	0.0635	0.4531	-0.578
Mof_O 	O 	0.7091	0.936	0.3921	-0.265
Mof_O 	O 	0.7129	0.889	0.4747	-0.211
Mof_O 	O 	0.8649	0.9176	0.5403	-0.142
Mof_O 	O 	0.7015	0.7932	0.4615	-0.578
Mof_O 	O 	0.6123	0.8297	0.3524	-0.273
Mof_O 	O 	0.5236	0.7509	0.3685	-0.29
Mof_O 	O 	0.8167	0.0857	0.5668	-0.271
Mof_O 	O 	0.6713	0.6971	0.4898	-0.516
Mof_O 	O 	0.4622	0.2992	0.439	-0.206
Mof_O 	O 	0.6104	0.3363	0.5469	-0.647
Mof_O 	O 	0.5439	0.317	0.6079	-0.247
Mof_O 	O 	0.4143	0.2382	0.5253	-0.239
Mof_O 	O 	0.3773	0.3246	0.4597	-0.199
Mof_O 	O 	0.3317	0.24	0.5385	-0.581
Mof_O 	O 	0.4773	0.2599	0.6476	-0.278
Mof_O 	O 	0.3824	0.1551	0.6315	-0.297
Mof_O 	O 	0.5189	0.2499	0.4332	-0.247
Mof_O 	O 	0.2073	0.1815	0.5102	-0.52
Mof_O 	O 	0.5378	0.9768	0.837	-0.099
Mof_O 	O 	0.3896	0.9365	0.7259	-0.615
Mof_O 	O 	0.4561	0.064	0.7731	-0.237
Mof_O 	O 	0.5857	0.111	0.8239	-0.246
Mof_O 	O 	0.6227	0.0824	0.9473	-0.182
Mof_O 	O 	0.6683	0.2068	0.9083	-0.514
Mof_O 	O 	0.5227	0.1703	0.7826	-0.272
Mof_O 	O 	0.6176	0.2491	0.7727	-0.297
Mof_O 	O 	0.4811	0.9143	0.731	-0.208
Mof_O 	O 	0.7927	0.3029	0.9742	-0.355
_end
