data_functionalizedCrystal
_audit_creation_method	'EQeq! by Chris Wilmer'
_symmetry_space_group_name_H-M	'P1'
_symmetry_Int_Tables_number	1
_symmetry_cell_setting	triclinic
loop_
_symmetry_equiv_pos_as_xyz
  x,y,z
_cell_length_a	10
_cell_length_b	10
_cell_length_c	10
_cell_angle_alpha	90
_cell_angle_beta	90
_cell_angle_gamma	90
loop_
_atom_site_label
_atom_site_type_symbol
_atom_site_fract_x
_atom_site_fract_y
_atom_site_fract_z
_atom_site_charge
Mof_O 	O 	0.0548	0.64725	0.5893	-0.09
Mof_O 	O 	0.10084	0.58208	0.6685	-3.089
Mof_C 	C 	0.0919	0.6314	0.642	-0.598
Mof_C 	C 	0.13166	0.67358	0.6764	3.158
Mof_C 	C 	0.1706	0.66031	0.741	0.848
Mof_H 	H 	0.1712	0.6246	0.7664	-1.369
Mof_C 	C 	0.2086	0.69934	0.7684	0.807
Mof_H 	H 	0.2353	0.6901	0.8123	3.623
Mof_C 	C 	0.1687	0.76483	0.6665	-0.056
Mof_C 	C 	0.1696	0.8179	0.6141	0.131
Mof_H 	H 	0.198	0.842	0.6385	0.316
Mof_H 	H 	0.1338	0.8359	0.619	-0.276
Mof_H 	H 	0.1775	0.8101	0.5508	0.094
Mof_C 	C 	0.20763	0.75157	0.7312	-3.558
Mof_C 	C 	0.13068	0.72581	0.6391	1.913
Mof_H 	H 	0.1041	0.7348	0.595	-1.831
Mof_C 	C 	0.2474	0.6817	0.842	0.359
Mof_H 	H 	0.2422	0.6444	0.8609	-0.787
Mof_H 	H 	0.2834	0.6858	0.8168	-1.954
Mof_H 	H 	0.2435	0.7057	0.8927	-0.172
Mof_H 	H 	0.1658	0.7995	0.6433	0.259
Mof_O 	O 	0.9452	0.35275	0.5893	-0.204
Mof_O 	O 	0.89916	0.41792	0.6685	-2.832
Mof_C 	C 	0.9081	0.3686	0.642	-0.705
Mof_C 	C 	0.86834	0.32642	0.6764	2.984
Mof_C 	C 	0.8294	0.33969	0.741	0.864
Mof_H 	H 	0.8288	0.3754	0.7664	-1.277
Mof_C 	C 	0.7914	0.30066	0.7684	0.704
Mof_H 	H 	0.7647	0.3099	0.8123	3.052
Mof_C 	C 	0.8313	0.23517	0.6665	-0.107
Mof_C 	C 	0.8304	0.1821	0.6141	0.143
Mof_H 	H 	0.802	0.158	0.6385	0.413
Mof_H 	H 	0.8662	0.1641	0.619	-0.187
Mof_H 	H 	0.8225	0.1899	0.5508	0.075
Mof_C 	C 	0.79237	0.24843	0.7312	-3.154
Mof_C 	C 	0.86932	0.27419	0.6391	1.758
Mof_H 	H 	0.8959	0.2652	0.595	-1.618
Mof_C 	C 	0.7526	0.3183	0.842	0.336
Mof_H 	H 	0.7578	0.3556	0.8609	-0.629
Mof_H 	H 	0.7166	0.3142	0.8168	-1.642
Mof_H 	H 	0.7565	0.2943	0.8927	-0.148
Mof_H 	H 	0.8342	0.2005	0.6433	0.038
Mof_O 	O 	0.35275	0.0548	0.0893	-0.167
Mof_O 	O 	0.41792	0.10084	0.1685	-3.008
Mof_C 	C 	0.3686	0.0919	0.142	-0.556
Mof_C 	C 	0.32642	0.13166	0.1764	3.212
Mof_C 	C 	0.33969	0.1706	0.241	0.83
Mof_H 	H 	0.3754	0.1712	0.2664	-1.439
Mof_C 	C 	0.30066	0.2086	0.2684	0.888
Mof_H 	H 	0.3099	0.2353	0.3123	4.097
Mof_C 	C 	0.23517	0.1687	0.1665	-0.015
Mof_C 	C 	0.1821	0.1696	0.1141	0.091
Mof_H 	H 	0.158	0.198	0.1385	0.273
Mof_H 	H 	0.1641	0.1338	0.119	-0.352
Mof_H 	H 	0.1899	0.1775	0.0508	-0.015
Mof_C 	C 	0.24843	0.20763	0.2312	-3.85
Mof_C 	C 	0.27419	0.13068	0.1391	1.963
Mof_H 	H 	0.2652	0.1041	0.095	-1.926
Mof_C 	C 	0.3183	0.2474	0.342	0.368
Mof_H 	H 	0.3556	0.2422	0.3609	-0.899
Mof_H 	H 	0.3142	0.2834	0.3168	-2.213
Mof_H 	H 	0.2943	0.2435	0.3927	-0.227
Mof_H 	H 	0.2005	0.1658	0.1433	0.483
Mof_O 	O 	0.64725	0.9452	0.0893	-0.232
Mof_O 	O 	0.58208	0.89916	0.1685	-2.966
Mof_C 	C 	0.6314	0.9081	0.142	-0.595
Mof_C 	C 	0.67358	0.86834	0.1764	3.169
Mof_C 	C 	0.66031	0.8294	0.241	0.828
Mof_H 	H 	0.6246	0.8288	0.2664	-1.412
Mof_C 	C 	0.69934	0.7914	0.2684	0.855
Mof_H 	H 	0.6901	0.7647	0.3123	3.991
Mof_C 	C 	0.76483	0.8313	0.1665	-0.002
Mof_C 	C 	0.8179	0.8304	0.1141	0.094
Mof_H 	H 	0.842	0.802	0.1385	0.275
Mof_H 	H 	0.8359	0.8662	0.119	-0.371
Mof_H 	H 	0.8101	0.8225	0.0508	0.006
Mof_C 	C 	0.75157	0.79237	0.2312	-3.783
Mof_C 	C 	0.72581	0.86932	0.1391	1.953
Mof_H 	H 	0.7348	0.8959	0.095	-1.88
Mof_C 	C 	0.6817	0.7526	0.342	0.368
Mof_H 	H 	0.6444	0.7578	0.3609	-0.879
Mof_H 	H 	0.6858	0.7166	0.3168	-2.137
Mof_H 	H 	0.7057	0.7565	0.3927	-0.22
Mof_H 	H 	0.7995	0.8342	0.1433	0.443
Mof_O 	O 	0.9452	0.64725	0.4107	-0.264
Mof_O 	O 	0.89916	0.58208	0.3315	-2.907
Mof_C 	C 	0.9081	0.6314	0.358	-0.577
Mof_C 	C 	0.86834	0.67358	0.3236	3.135
Mof_C 	C 	0.8294	0.66031	0.259	0.816
Mof_H 	H 	0.8288	0.6246	0.2336	-1.416
Mof_C 	C 	0.7914	0.69934	0.2316	0.88
Mof_H 	H 	0.7647	0.6901	0.1877	4.034
Mof_C 	C 	0.8313	0.76483	0.3335	-0.026
Mof_C 	C 	0.8304	0.8179	0.3859	0.134
Mof_H 	H 	0.802	0.842	0.3615	0.269
Mof_H 	H 	0.8662	0.8359	0.381	-0.407
Mof_H 	H 	0.8225	0.8101	0.4492	0.097
Mof_C 	C 	0.79237	0.75157	0.2688	-3.808
Mof_C 	C 	0.86932	0.72581	0.3609	1.95
Mof_H 	H 	0.8959	0.7348	0.405	-1.844
Mof_C 	C 	0.7526	0.6817	0.158	0.362
Mof_H 	H 	0.7578	0.6444	0.1391	-0.89
Mof_H 	H 	0.7166	0.6858	0.1832	-2.176
Mof_H 	H 	0.7565	0.7057	0.1073	-0.251
Mof_H 	H 	0.8342	0.7995	0.3567	0.455
Mof_O 	O 	0.0548	0.35275	0.4107	-0.142
Mof_O 	O 	0.10084	0.41792	0.3315	-3.094
Mof_C 	C 	0.0919	0.3686	0.358	-0.521
Mof_C 	C 	0.13166	0.32642	0.3236	3.241
Mof_C 	C 	0.1706	0.33969	0.259	0.834
Mof_H 	H 	0.1712	0.3754	0.2336	-1.455
Mof_C 	C 	0.2086	0.30066	0.2316	0.913
Mof_H 	H 	0.2353	0.3099	0.1877	4.103
Mof_C 	C 	0.1687	0.23517	0.3335	-0.056
Mof_C 	C 	0.1696	0.1821	0.3859	0.14
Mof_H 	H 	0.198	0.158	0.3615	0.283
Mof_H 	H 	0.1338	0.1641	0.381	-0.35
Mof_H 	H 	0.1775	0.1899	0.4492	0.094
Mof_C 	C 	0.20763	0.24843	0.2688	-3.861
Mof_C 	C 	0.13068	0.27419	0.3609	1.986
Mof_H 	H 	0.1041	0.2652	0.405	-1.92
Mof_C 	C 	0.2474	0.3183	0.158	0.358
Mof_H 	H 	0.2422	0.3556	0.1391	-0.916
Mof_H 	H 	0.2834	0.3142	0.1832	-2.214
Mof_H 	H 	0.2435	0.2943	0.1073	-0.255
Mof_H 	H 	0.1658	0.2005	0.3567	0.435
Mof_O 	O 	0.64725	0.0548	0.9107	0.127
Mof_O 	O 	0.58208	0.10084	0.8315	-3.273
Mof_C 	C 	0.6314	0.0919	0.858	-0.646
Mof_C 	C 	0.67358	0.13166	0.8236	3.138
Mof_C 	C 	0.66031	0.1706	0.759	0.901
Mof_H 	H 	0.6246	0.1712	0.7336	-1.299
Mof_C 	C 	0.69934	0.2086	0.7316	0.719
Mof_H 	H 	0.6901	0.2353	0.6877	2.954
Mof_C 	C 	0.76483	0.1687	0.8335	-0.145
Mof_C 	C 	0.8179	0.1696	0.8859	0.183
Mof_H 	H 	0.842	0.198	0.8615	0.425
Mof_H 	H 	0.8359	0.1338	0.881	-0.096
Mof_H 	H 	0.8101	0.1775	0.9492	0.193
Mof_C 	C 	0.75157	0.20763	0.7688	-3.101
Mof_C 	C 	0.72581	0.13068	0.8609	1.827
Mof_H 	H 	0.7348	0.1041	0.905	-1.728
Mof_C 	C 	0.6817	0.2474	0.658	0.317
Mof_H 	H 	0.6444	0.2422	0.6391	-0.649
Mof_H 	H 	0.6858	0.2834	0.6832	-1.539
Mof_H 	H 	0.7057	0.2435	0.6073	-0.166
Mof_H 	H 	0.7995	0.1658	0.8567	-0.108
Mof_O 	O 	0.35275	0.9452	0.9107	-0.241
Mof_O 	O 	0.41792	0.89916	0.8315	-3.118
Mof_C 	C 	0.3686	0.9081	0.858	-0.665
Mof_C 	C 	0.32642	0.86834	0.8236	3.264
Mof_C 	C 	0.33969	0.8294	0.759	0.907
Mof_H 	H 	0.3754	0.8288	0.7336	-1.428
Mof_C 	C 	0.30066	0.7914	0.7316	0.82
Mof_H 	H 	0.3099	0.7647	0.6877	3.577
Mof_C 	C 	0.23517	0.8313	0.8335	-0.109
Mof_C 	C 	0.1821	0.8304	0.8859	0.176
Mof_H 	H 	0.158	0.802	0.8615	0.414
Mof_H 	H 	0.1641	0.8662	0.881	-0.271
Mof_H 	H 	0.1899	0.8225	0.9492	0.176
Mof_C 	C 	0.24843	0.79237	0.7688	-3.537
Mof_C 	C 	0.27419	0.86932	0.8609	1.938
Mof_H 	H 	0.2652	0.8959	0.905	-1.794
Mof_C 	C 	0.3183	0.7526	0.658	0.344
Mof_H 	H 	0.3556	0.7578	0.6391	-0.769
Mof_H 	H 	0.3142	0.7166	0.6832	-1.912
Mof_H 	H 	0.2943	0.7565	0.6073	-0.207
Mof_H 	H 	0.2005	0.8342	0.8567	0.113
Mof_O 	O 	0.9452	0.35275	0.4107	-0.299
Mof_O 	O 	0.89916	0.41792	0.3315	-3.026
Mof_C 	C 	0.9081	0.3686	0.358	-0.539
Mof_C 	C 	0.86834	0.32642	0.3236	3.277
Mof_C 	C 	0.8294	0.33969	0.259	0.833
Mof_H 	H 	0.8288	0.3754	0.2336	-1.497
Mof_C 	C 	0.7914	0.30066	0.2316	0.943
Mof_H 	H 	0.7647	0.3099	0.1877	4.331
Mof_C 	C 	0.8313	0.23517	0.3335	-0.035
Mof_C 	C 	0.8304	0.1821	0.3859	0.139
Mof_H 	H 	0.802	0.158	0.3615	0.275
Mof_H 	H 	0.8662	0.1641	0.381	-0.432
Mof_H 	H 	0.8225	0.1899	0.4492	0.099
Mof_C 	C 	0.79237	0.24843	0.2688	-4.023
Mof_C 	C 	0.86932	0.27419	0.3609	2.03
Mof_H 	H 	0.8959	0.2652	0.405	-1.939
Mof_C 	C 	0.7526	0.3183	0.158	0.369
Mof_H 	H 	0.7578	0.3556	0.1391	-0.961
Mof_H 	H 	0.7166	0.3142	0.1832	-2.345
Mof_H 	H 	0.7565	0.2943	0.1073	-0.27
Mof_H 	H 	0.8342	0.2005	0.3567	0.52
Mof_O 	O 	0.0548	0.64725	0.4107	-0.107
Mof_O 	O 	0.10084	0.58208	0.3315	-2.976
Mof_C 	C 	0.0919	0.6314	0.358	-0.559
Mof_C 	C 	0.13166	0.67358	0.3236	3.1
Mof_C 	C 	0.1706	0.66031	0.259	0.817
Mof_H 	H 	0.1712	0.6246	0.2336	-1.375
Mof_C 	C 	0.2086	0.69934	0.2316	0.85
Mof_H 	H 	0.2353	0.6901	0.1877	3.809
Mof_C 	C 	0.1687	0.76483	0.3335	-0.048
Mof_C 	C 	0.1696	0.8179	0.3859	0.136
Mof_H 	H 	0.198	0.842	0.3615	0.277
Mof_H 	H 	0.1338	0.8359	0.381	-0.324
Mof_H 	H 	0.1775	0.8101	0.4492	0.093
Mof_C 	C 	0.20763	0.75157	0.2688	-3.647
Mof_C 	C 	0.13068	0.72581	0.3609	1.907
Mof_H 	H 	0.1041	0.7348	0.405	-1.826
Mof_C 	C 	0.2474	0.6817	0.158	0.35
Mof_H 	H 	0.2422	0.6444	0.1391	-0.846
Mof_H 	H 	0.2834	0.6858	0.1832	-2.046
Mof_H 	H 	0.2435	0.7057	0.1073	-0.237
Mof_H 	H 	0.1658	0.7995	0.3567	0.371
Mof_O 	O 	0.64725	0.9452	0.9107	-0.239
Mof_O 	O 	0.58208	0.89916	0.8315	-3.144
Mof_C 	C 	0.6314	0.9081	0.858	-0.647
Mof_C 	C 	0.67358	0.86834	0.8236	3.284
Mof_C 	C 	0.66031	0.8294	0.759	0.895
Mof_H 	H 	0.6246	0.8288	0.7336	-1.443
Mof_C 	C 	0.69934	0.7914	0.7316	0.843
Mof_H 	H 	0.6901	0.7647	0.6877	3.742
Mof_C 	C 	0.76483	0.8313	0.8335	-0.081
Mof_C 	C 	0.8179	0.8304	0.8859	0.17
Mof_H 	H 	0.842	0.802	0.8615	0.374
Mof_H 	H 	0.8359	0.8662	0.881	-0.321
Mof_H 	H 	0.8101	0.8225	0.9492	0.185
Mof_C 	C 	0.75157	0.79237	0.7688	-3.653
Mof_C 	C 	0.72581	0.86932	0.8609	1.978
Mof_H 	H 	0.7348	0.8959	0.905	-1.839
Mof_C 	C 	0.6817	0.7526	0.658	0.354
Mof_H 	H 	0.6444	0.7578	0.6391	-0.813
Mof_H 	H 	0.6858	0.7166	0.6832	-2.001
Mof_H 	H 	0.7057	0.7565	0.6073	-0.213
Mof_H 	H 	0.7995	0.8342	0.8567	0.194
Mof_O 	O 	0.35275	0.0548	0.9107	0.125
Mof_O 	O 	0.41792	0.10084	0.8315	-3.247
Mof_C 	C 	0.3686	0.0919	0.858	-0.664
Mof_C 	C 	0.32642	0.13166	0.8236	3.117
Mof_C 	C 	0.33969	0.1706	0.759	0.914
Mof_H 	H 	0.3754	0.1712	0.7336	-1.284
Mof_C 	C 	0.30066	0.2086	0.7316	0.696
Mof_H 	H 	0.3099	0.2353	0.6877	2.787
Mof_C 	C 	0.23517	0.1687	0.8335	-0.173
Mof_C 	C 	0.1821	0.1696	0.8859	0.189
Mof_H 	H 	0.158	0.198	0.8615	0.465
Mof_H 	H 	0.1641	0.1338	0.881	-0.046
Mof_H 	H 	0.1899	0.1775	0.9492	0.183
Mof_C 	C 	0.24843	0.20763	0.7688	-2.984
Mof_C 	C 	0.27419	0.13068	0.8609	1.786
Mof_H 	H 	0.2652	0.1041	0.905	-1.682
Mof_C 	C 	0.3183	0.2474	0.658	0.308
Mof_H 	H 	0.3556	0.2422	0.6391	-0.605
Mof_H 	H 	0.3142	0.2834	0.6832	-1.449
Mof_H 	H 	0.2943	0.2435	0.6073	-0.16
Mof_H 	H 	0.2005	0.1658	0.8567	-0.189
Mof_O 	O 	0.0548	0.35275	0.5893	-0.057
Mof_O 	O 	0.10084	0.41792	0.6685	-2.901
Mof_C 	C 	0.0919	0.3686	0.642	-0.682
Mof_C 	C 	0.13166	0.32642	0.6764	2.957
Mof_C 	C 	0.1706	0.33969	0.741	0.863
Mof_H 	H 	0.1712	0.3754	0.7664	-1.244
Mof_C 	C 	0.2086	0.30066	0.7684	0.683
Mof_H 	H 	0.2353	0.3099	0.8123	2.881
Mof_C 	C 	0.1687	0.23517	0.6665	-0.125
Mof_C 	C 	0.1696	0.1821	0.6141	0.144
Mof_H 	H 	0.198	0.158	0.6385	0.415
Mof_H 	H 	0.1338	0.1641	0.619	-0.118
Mof_H 	H 	0.1775	0.1899	0.5508	0.072
Mof_C 	C 	0.20763	0.24843	0.7312	-3.031
Mof_C 	C 	0.13068	0.27419	0.6391	1.725
Mof_H 	H 	0.1041	0.2652	0.595	-1.612
Mof_C 	C 	0.2474	0.3183	0.842	0.326
Mof_H 	H 	0.2422	0.3556	0.8609	-0.597
Mof_H 	H 	0.2834	0.3142	0.8168	-1.544
Mof_H 	H 	0.2435	0.2943	0.8927	-0.137
Mof_H 	H 	0.1658	0.2005	0.6433	-0.022
Mof_O 	O 	0.9452	0.64725	0.5893	-0.239
Mof_O 	O 	0.89916	0.58208	0.6685	-3.021
Mof_C 	C 	0.9081	0.6314	0.642	-0.622
Mof_C 	C 	0.86834	0.67358	0.6764	3.184
Mof_C 	C 	0.8294	0.66031	0.741	0.85
Mof_H 	H 	0.8288	0.6246	0.7664	-1.401
Mof_C 	C 	0.7914	0.69934	0.7684	0.828
Mof_H 	H 	0.7647	0.6901	0.8123	3.791
Mof_C 	C 	0.8313	0.76483	0.6665	-0.039
Mof_C 	C 	0.8304	0.8179	0.6141	0.13
Mof_H 	H 	0.802	0.842	0.6385	0.314
Mof_H 	H 	0.8662	0.8359	0.619	-0.345
Mof_H 	H 	0.8225	0.8101	0.5508	0.097
Mof_C 	C 	0.79237	0.75157	0.7312	-3.679
Mof_C 	C 	0.86932	0.72581	0.6391	1.945
Mof_H 	H 	0.8959	0.7348	0.595	-1.836
Mof_C 	C 	0.7526	0.6817	0.842	0.368
Mof_H 	H 	0.7578	0.6444	0.8609	-0.818
Mof_H 	H 	0.7166	0.6858	0.8168	-2.05
Mof_H 	H 	0.7565	0.7057	0.8927	-0.183
Mof_H 	H 	0.8342	0.7995	0.6433	0.319
Mof_O 	O 	0.35275	0.9452	0.0893	-0.231
Mof_O 	O 	0.41792	0.89916	0.1685	-2.926
Mof_C 	C 	0.3686	0.9081	0.142	-0.618
Mof_C 	C 	0.32642	0.86834	0.1764	3.133
Mof_C 	C 	0.33969	0.8294	0.241	0.841
Mof_H 	H 	0.3754	0.8288	0.2664	-1.387
Mof_C 	C 	0.30066	0.7914	0.2684	0.824
Mof_H 	H 	0.3099	0.7647	0.3123	3.774
Mof_C 	C 	0.23517	0.8313	0.1665	-0.035
Mof_C 	C 	0.1821	0.8304	0.1141	0.102
Mof_H 	H 	0.158	0.802	0.1385	0.32
Mof_H 	H 	0.1641	0.8662	0.119	-0.311
Mof_H 	H 	0.1899	0.8225	0.0508	-0.002
Mof_C 	C 	0.24843	0.79237	0.2312	-3.631
Mof_C 	C 	0.27419	0.86932	0.1391	1.899
Mof_H 	H 	0.2652	0.8959	0.095	-1.819
Mof_C 	C 	0.3183	0.7526	0.342	0.356
Mof_H 	H 	0.3556	0.7578	0.3609	-0.822
Mof_H 	H 	0.3142	0.7166	0.3168	-2.019
Mof_H 	H 	0.2943	0.7565	0.3927	-0.212
Mof_H 	H 	0.2005	0.8342	0.1433	0.343
Mof_O 	O 	0.64725	0.0548	0.0893	-0.169
Mof_O 	O 	0.58208	0.10084	0.1685	-3.049
Mof_C 	C 	0.6314	0.0919	0.142	-0.533
Mof_C 	C 	0.67358	0.13166	0.1764	3.249
Mof_C 	C 	0.66031	0.1706	0.241	0.817
Mof_H 	H 	0.6246	0.1712	0.2664	-1.465
Mof_C 	C 	0.69934	0.2086	0.2684	0.92
Mof_H 	H 	0.6901	0.2353	0.3123	4.315
Mof_C 	C 	0.76483	0.1687	0.1665	0.018
Mof_C 	C 	0.8179	0.1696	0.1141	0.083
Mof_H 	H 	0.842	0.198	0.1385	0.227
Mof_H 	H 	0.8359	0.1338	0.119	-0.412
Mof_H 	H 	0.8101	0.1775	0.0508	-0.007
Mof_C 	C 	0.75157	0.20763	0.2312	-4.004
Mof_C 	C 	0.72581	0.13068	0.1391	2.017
Mof_H 	H 	0.7348	0.1041	0.095	-1.987
Mof_C 	C 	0.6817	0.2474	0.342	0.379
Mof_H 	H 	0.6444	0.2422	0.3609	-0.956
Mof_H 	H 	0.6858	0.2834	0.3168	-2.332
Mof_H 	H 	0.7057	0.2435	0.3927	-0.235
Mof_H 	H 	0.7995	0.1658	0.1433	0.583
Mof_Zr	Zr	0.07167	0.5	0.61938	4.192
Mof_O 	O 	0.0543	0.5	0.7648	0.609
Mof_O 	O 	0.16149	0.5	0.6084	-0.098
Mof_H 	H 	0.1707	0.5	0.5533	0.094
Mof_C 	C 	0.04934	0.5	0.953	0.403
Mof_H 	H 	0.0831	0.5	0.9211	0.514
Mof_Zr	Zr	0.92833	0.5	0.61938	4.189
Mof_O 	O 	0.9457	0.5	0.7648	0.482
Mof_O 	O 	0.83851	0.5	0.6084	-0.143
Mof_H 	H 	0.8293	0.5	0.5533	0.107
Mof_C 	C 	0.95066	0.5	0.953	0.503
Mof_H 	H 	0.9169	0.5	0.9211	0.425
Mof_Zr	Zr	0.5	0.07167	0.11938	4.204
Mof_O 	O 	0.5	0.0543	0.2648	0.82
Mof_O 	O 	0.5	0.16149	0.1084	-0.391
Mof_H 	H 	0.5	0.1707	0.0533	0.388
Mof_C 	C 	0.5	0.04934	0.453	0.633
Mof_H 	H 	0.5	0.0831	0.4211	0.474
Mof_Zr	Zr	0.5	0.92833	0.11938	4.194
Mof_O 	O 	0.5	0.9457	0.2648	0.656
Mof_O 	O 	0.5	0.83851	0.1084	-0.319
Mof_H 	H 	0.5	0.8293	0.0533	0.272
Mof_C 	C 	0.5	0.95066	0.453	0.755
Mof_H 	H 	0.5	0.9169	0.4211	0.353
Mof_Zr	Zr	0.92833	0.5	0.38062	4.197
Mof_O 	O 	0.9457	0.5	0.2352	0.657
Mof_O 	O 	0.83851	0.5	0.3916	-0.393
Mof_H 	H 	0.8293	0.5	0.4467	0.363
Mof_C 	C 	0.95066	0.5	0.047	0.781
Mof_H 	H 	0.9169	0.5	0.0789	0.316
Mof_Zr	Zr	0.07167	0.5	0.38062	4.2
Mof_O 	O 	0.0543	0.5	0.2352	0.784
Mof_O 	O 	0.16149	0.5	0.3916	-0.334
Mof_H 	H 	0.1707	0.5	0.4467	0.335
Mof_C 	C 	0.04934	0.5	0.047	0.673
Mof_H 	H 	0.0831	0.5	0.0789	0.411
Mof_Zr	Zr	0.5	0.07167	0.88062	4.184
Mof_O 	O 	0.5	0.0543	0.7352	0.792
Mof_O 	O 	0.5	0.16149	0.8916	0.308
Mof_H 	H 	0.5	0.1707	0.9467	-0.039
Mof_C 	C 	0.5	0.04934	0.547	0.63
Mof_H 	H 	0.5	0.0831	0.5789	0.395
Mof_Zr	Zr	0.5	0.92833	0.88062	4.183
Mof_O 	O 	0.5	0.9457	0.7352	0.613
Mof_O 	O 	0.5	0.83851	0.8916	0.059
Mof_H 	H 	0.5	0.8293	0.9467	0.129
Mof_C 	C 	0.5	0.95066	0.547	0.774
Mof_H 	H 	0.5	0.9169	0.5789	0.279
Mof_Zr	Zr	8.18559e-33	0.60101	0.5	3.905
Mof_Zr	Zr	-4.43619e-33	0.39899	0.5	3.905
Mof_Zr	Zr	0.39899	0	-0	3.885
Mof_Zr	Zr	0.60101	0	-0	3.885
Mof_O 	O 	2.24477e-33	0.5441	0.5987	-2.365
Mof_O 	O 	2.37487e-33	0.5558	0.6334	-0.804
Mof_H 	H 	2.56309e-33	0.5793	0.6836	2.241
Mof_O 	O 	1.48665e-32	0.4559	0.5987	-2.404
Mof_O 	O 	2.13075e-32	0.4442	0.6334	-0.835
Mof_H 	H 	2.56309e-33	0.4207	0.6836	2.208
Mof_O 	O 	0.4559	-7.88861e-34	0.0987	-2.346
Mof_O 	O 	0.4442	0	0.1334	-0.797
Mof_H 	H 	0.4207	1.57772e-33	0.1836	2.139
Mof_O 	O 	0.5441	-7.88861e-34	0.0987	-2.346
Mof_O 	O 	0.5558	0	0.1334	-0.797
Mof_H 	H 	0.5793	1.57772e-33	0.1836	2.15
Mof_O 	O 	1.50463e-33	0.5441	0.4013	-2.368
Mof_O 	O 	1.37453e-33	0.5558	0.3666	-0.841
Mof_H 	H 	4.34175e-33	0.5793	0.3164	2.16
Mof_O 	O 	1.41264e-32	0.4559	0.4013	-2.323
Mof_O 	O 	1.08409e-32	0.4442	0.3666	-0.806
Mof_H 	H 	4.34175e-33	0.4207	0.3164	2.172
Mof_O 	O 	0.5441	0	0.9013	-2.354
Mof_O 	O 	0.5558	0	0.8666	-0.708
Mof_H 	H 	0.5793	0	0.8164	2.22
Mof_O 	O 	0.4559	0	0.9013	-2.35
Mof_O 	O 	0.4442	0	0.8666	-0.705
Mof_H 	H 	0.4207	0	0.8164	2.211
Mof_O 	O 	0.0628	0.5416	0.5	-1.366
Mof_O 	O 	0.0816	0.5565	0.5	-0.094
Mof_H 	H 	0.1129	0.5792	0.5	0.524
Mof_O 	O 	0.9372	0.4584	0.5	-1.443
Mof_O 	O 	0.9184	0.4435	0.5	-0.134
Mof_H 	H 	0.8871	0.4208	0.5	0.644
Mof_O 	O 	0.4584	0.0628	-0	-1.395
Mof_O 	O 	0.4435	0.0816	-0	-0.138
Mof_H 	H 	0.4208	0.1129	-0	0.448
Mof_O 	O 	0.5416	0.9372	-0	-1.456
Mof_O 	O 	0.5565	0.9184	-0	-0.159
Mof_H 	H 	0.5792	0.8871	-0	0.591
Mof_O 	O 	0.9372	0.5416	0.5	-1.438
Mof_O 	O 	0.9184	0.5565	0.5	-0.131
Mof_H 	H 	0.8871	0.5792	0.5	0.642
Mof_O 	O 	0.0628	0.4584	0.5	-1.371
Mof_O 	O 	0.0816	0.4435	0.5	-0.098
Mof_H 	H 	0.1129	0.4208	0.5	0.526
Mof_O 	O 	0.5416	0.0628	-0	-1.391
Mof_O 	O 	0.5565	0.0816	-0	-0.135
Mof_H 	H 	0.5792	0.1129	-0	0.446
Mof_O 	O 	0.4584	0.9372	-0	-1.46
Mof_O 	O 	0.4435	0.9184	-0	-0.162
Mof_H 	H 	0.4208	0.8871	-0	0.593
Mof_C 	C 	9.32953e-33	0.5	0.8051	-0.704
Mof_C 	C 	-2.91243e-33	0.5	0.9064	-1.542
Mof_C 	C 	0.5	3.15544e-33	0.3051	-0.875
Mof_C 	C 	0.5	-3.15544e-33	0.4064	-1.972
Mof_C 	C 	-8.46964e-34	0.5	0.1949	-0.851
Mof_C 	C 	3.50639e-33	0.5	0.0936	-1.981
Mof_C 	C 	0.5	0	0.6949	-0.833
Mof_C 	C 	0.5	6.31089e-33	0.5936	-1.854
_end
