data_functionalizedCrystal
_audit_creation_method	'EQeq! by Chris Wilmer'
_symmetry_space_group_name_H-M	'P1'
_symmetry_Int_Tables_number	1
_symmetry_cell_setting	triclinic
loop_
_symmetry_equiv_pos_as_xyz
  x,y,z
_cell_length_a	7.219
_cell_length_b	10.795
_cell_length_c	11.662
_cell_angle_alpha	113.686
_cell_angle_beta	102.814
_cell_angle_gamma	95.069
loop_
_atom_site_label
_atom_site_type_symbol
_atom_site_fract_x
_atom_site_fract_y
_atom_site_fract_z
_atom_site_charge
Mof_Ba	Ba	0.54785	0.22705	0.61578	1.81
Mof_Ba	Ba	0.45215	0.77295	0.38422	1.81
Mof_V 	V 	0.86984	0.7498	0.17464	1.82
Mof_V 	V 	0.13016	0.2502	0.82536	1.82
Mof_H 	H 	0.596	0.73	0.7315	-0.022
Mof_H 	H 	0.76	0.1215	0.024	0.012
Mof_H 	H 	0.15	0.977	0.4246	0.229
Mof_H 	H 	0.187	0.953	0.545	0.224
Mof_H 	H 	0.404	0.27	0.2685	-0.022
Mof_H 	H 	0.24	0.8785	0.976	0.012
Mof_H 	H 	0.85	0.023	0.5754	0.229
Mof_H 	H 	0.813	0.047	0.455	0.224
Mof_C 	C 	0.7063	0.5978	0.8941	0.393
Mof_C 	C 	0.7133	0.7452	0.9144	-0.112
Mof_C 	C 	0.6521	0.7927	0.8216	0.085
Mof_C 	C 	0.6646	0.9346	0.863	-0.163
Mof_C 	C 	0.5907	0.9888	0.7617	0.431
Mof_C 	C 	0.7417	0.0239	0.9951	0.073
Mof_C 	C 	0.8032	0.9678	0.0817	-0.077
Mof_C 	C 	0.8879	0.0419	0.2276	0.33
Mof_C 	C 	0.2937	0.4022	0.1059	0.393
Mof_C 	C 	0.2867	0.2548	0.0856	-0.112
Mof_C 	C 	0.3479	0.2073	0.1784	0.085
Mof_C 	C 	0.3354	0.0654	0.137	-0.163
Mof_C 	C 	0.4093	0.0112	0.2383	0.431
Mof_C 	C 	0.2583	0.9761	0.0049	0.073
Mof_C 	C 	0.1968	0.0322	0.9183	-0.077
Mof_C 	C 	0.1121	0.9581	0.7724	0.33
Mof_N 	N 	0.7882	0.8316	0.0398	-0.225
Mof_N 	N 	0.2118	0.1684	0.9602	-0.225
Mof_O 	O 	0.6423	0.5013	0.7868	-0.45
Mof_O 	O 	0.7716	0.5878	0.0031	-0.513
Mof_O 	O 	0.9254	0.9577	0.2806	-0.525
Mof_O 	O 	0.915	0.1666	0.2872	-0.314
Mof_O 	O 	0.5674	0.909	0.6474	-0.501
Mof_O 	O 	0.5602	0.1081	0.8022	-0.42
Mof_O 	O 	0.7404	0.7102	0.256	-0.695
Mof_O 	O 	0.0868	0.7272	0.2187	-0.696
Mof_O 	O 	0.2421	0.9897	0.4987	-0.694
Mof_O 	O 	0.3577	0.4987	0.2132	-0.45
Mof_O 	O 	0.2284	0.4122	0.9969	-0.513
Mof_O 	O 	0.0746	0.0423	0.7194	-0.525
Mof_O 	O 	0.085	0.8334	0.7128	-0.314
Mof_O 	O 	0.4326	0.091	0.3526	-0.501
Mof_O 	O 	0.4398	0.8919	0.1978	-0.42
Mof_O 	O 	0.2596	0.2898	0.744	-0.695
Mof_O 	O 	0.9132	0.2728	0.7813	-0.696
Mof_O 	O 	0.7579	0.0103	0.5013	-0.694
_end
