data_functionalizedCrystal
_audit_creation_method	'EQeq! by Chris Wilmer'
_symmetry_space_group_name_H-M	'P1'
_symmetry_Int_Tables_number	1
_symmetry_cell_setting	triclinic
loop_
_symmetry_equiv_pos_as_xyz
  x,y,z
_cell_length_a	10.4772
_cell_length_b	15.6753
_cell_length_c	12.7708
_cell_angle_alpha	90
_cell_angle_beta	102.047
_cell_angle_gamma	90
loop_
_atom_site_label
_atom_site_type_symbol
_atom_site_fract_x
_atom_site_fract_y
_atom_site_fract_z
_atom_site_charge
Mof_O 	O 	0.8559	0.59646	0.21667	-0.154
Mof_O 	O 	0.5338	0.84912	0.1479	-0.158
Mof_O 	O 	0.9552	0.56145	0.08725	-0.141
Mof_O 	O 	0.6759	0.94826	0.1402	-0.153
Mof_C 	C 	0.8775	0.60882	0.1234	0.267
Mof_C 	C 	0.694	0.81369	0.0526	-0.014
Mof_C 	C 	0.8102	0.68004	0.0572	-0.013
Mof_C 	C 	0.7528	0.74326	0.1076	-0.012
Mof_C 	C 	0.6317	0.8761	0.1156	0.286
Mof_H 	H 	0.75394	0.73803	0.18272	0.084
Mof_O 	O 	0.3559	0.09646	0.21667	-0.156
Mof_O 	O 	0.0338	0.34912	0.1479	-0.161
Mof_O 	O 	0.4552	0.06145	0.08725	-0.145
Mof_O 	O 	0.1759	0.44826	0.1402	-0.155
Mof_C 	C 	0.3775	0.10882	0.1234	0.267
Mof_C 	C 	0.194	0.31369	0.0526	-0.015
Mof_C 	C 	0.3102	0.18004	0.0572	-0.013
Mof_C 	C 	0.2528	0.24326	0.1076	-0.012
Mof_C 	C 	0.1317	0.3761	0.1156	0.286
Mof_H 	H 	0.25394	0.23803	0.18272	0.084
Mof_O 	O 	0.1441	0.59646	0.28333	-0.157
Mof_O 	O 	0.4662	0.84912	0.3521	-0.159
Mof_O 	O 	0.0448	0.56145	0.41275	-0.147
Mof_O 	O 	0.3241	0.94826	0.3598	-0.155
Mof_C 	C 	0.1225	0.60882	0.3766	0.267
Mof_C 	C 	0.306	0.81369	0.4474	-0.015
Mof_C 	C 	0.1898	0.68004	0.4428	-0.014
Mof_C 	C 	0.2472	0.74326	0.3924	-0.012
Mof_C 	C 	0.3683	0.8761	0.3844	0.286
Mof_H 	H 	0.24606	0.73803	0.31728	0.083
Mof_O 	O 	0.6441	0.09646	0.28333	-0.156
Mof_O 	O 	0.9662	0.34912	0.3521	-0.157
Mof_O 	O 	0.5448	0.06145	0.41275	-0.145
Mof_O 	O 	0.8241	0.44826	0.3598	-0.153
Mof_C 	C 	0.6225	0.10882	0.3766	0.267
Mof_C 	C 	0.806	0.31369	0.4474	-0.014
Mof_C 	C 	0.6898	0.18004	0.4428	-0.013
Mof_C 	C 	0.7472	0.24326	0.3924	-0.012
Mof_C 	C 	0.8683	0.3761	0.3844	0.285
Mof_H 	H 	0.74606	0.23803	0.31728	0.084
Mof_O 	O 	0.1441	0.40354	0.78333	-0.157
Mof_O 	O 	0.4662	0.15088	0.8521	-0.159
Mof_O 	O 	0.0448	0.43855	0.91275	-0.146
Mof_O 	O 	0.3241	0.05174	0.8598	-0.155
Mof_C 	C 	0.1225	0.39118	0.8766	0.267
Mof_C 	C 	0.306	0.18631	0.9474	-0.015
Mof_C 	C 	0.1898	0.31996	0.9428	-0.014
Mof_C 	C 	0.2472	0.25674	0.8924	-0.012
Mof_C 	C 	0.3683	0.1239	0.8844	0.286
Mof_H 	H 	0.24606	0.26197	0.81728	0.083
Mof_O 	O 	0.6441	0.90354	0.78333	-0.156
Mof_O 	O 	0.9662	0.65088	0.8521	-0.157
Mof_O 	O 	0.5448	0.93855	0.91275	-0.145
Mof_O 	O 	0.8241	0.55174	0.8598	-0.153
Mof_C 	C 	0.6225	0.89118	0.8766	0.267
Mof_C 	C 	0.806	0.68631	0.9474	-0.015
Mof_C 	C 	0.6898	0.81996	0.9428	-0.014
Mof_C 	C 	0.7472	0.75674	0.8924	-0.012
Mof_C 	C 	0.8683	0.6239	0.8844	0.286
Mof_H 	H 	0.74606	0.76197	0.81728	0.084
Mof_O 	O 	0.8559	0.40354	0.71667	-0.155
Mof_O 	O 	0.5338	0.15088	0.6479	-0.159
Mof_O 	O 	0.9552	0.43855	0.58725	-0.143
Mof_O 	O 	0.6759	0.05174	0.6402	-0.154
Mof_C 	C 	0.8775	0.39118	0.6234	0.267
Mof_C 	C 	0.694	0.18631	0.5526	-0.014
Mof_C 	C 	0.8102	0.31996	0.5572	-0.013
Mof_C 	C 	0.7528	0.25674	0.6076	-0.012
Mof_C 	C 	0.6317	0.1239	0.6156	0.286
Mof_H 	H 	0.75394	0.26197	0.68272	0.084
Mof_O 	O 	0.3559	0.90354	0.71667	-0.156
Mof_O 	O 	0.0338	0.65088	0.6479	-0.161
Mof_O 	O 	0.4552	0.93855	0.58725	-0.145
Mof_O 	O 	0.1759	0.55174	0.6402	-0.155
Mof_C 	C 	0.3775	0.89118	0.6234	0.267
Mof_C 	C 	0.194	0.68631	0.5526	-0.015
Mof_C 	C 	0.3102	0.81996	0.5572	-0.014
Mof_C 	C 	0.2528	0.75674	0.6076	-0.012
Mof_C 	C 	0.1317	0.6239	0.6156	0.286
Mof_H 	H 	0.25394	0.76197	0.68272	0.084
Mof_U 	U 	1.38101e-33	0.47175	0.25	0.033
Mof_U 	U 	0.5	0.97175	0.25	0.035
Mof_U 	U 	-2.77123e-17	0.52825	0.75	0.033
Mof_U 	U 	0.5	0.02825	0.75	0.035
_end
