data_functionalizedCrystal
_audit_creation_method	'EQeq! by Chris Wilmer'
_symmetry_space_group_name_H-M	'P1'
_symmetry_Int_Tables_number	1
_symmetry_cell_setting	triclinic
loop_
_symmetry_equiv_pos_as_xyz
  x,y,z
_cell_length_a	21.823
_cell_length_b	21.823
_cell_length_c	6.8695
_cell_angle_alpha	90
_cell_angle_beta	90
_cell_angle_gamma	120
loop_
_atom_site_label
_atom_site_type_symbol
_atom_site_fract_x
_atom_site_fract_y
_atom_site_fract_z
_atom_site_charge
Mof_Fe	Fe	0.6138	0.2817	0.1429	0.805
Mof_O 	O 	0.6526	0.238	0.947	-0.445
Mof_O 	O 	0.6353	0.2819	0.592	-0.5
Mof_O 	O 	0.5812	0.2069	0.373	-0.397
Mof_C 	C 	0.6138	0.1744	0.8787	0.32
Mof_C 	C 	0.594	0.1649	0.681	-0.282
Mof_C 	C 	0.5602	0.0958	0.6029	0.072
Mof_C 	C 	0.5449	0.0355	0.7105	-0.048
Mof_C 	C 	0.5638	0.0465	0.9089	0.058
Mof_C 	C 	0.5962	0.1132	0.9911	-0.239
Mof_C 	C 	0.605	0.2229	0.5481	0.51
Mof_H 	H 	0.547	0.0898	0.4694	0.017
Mof_H 	H 	0.5538	0.0067	0.9881	0.011
Mof_H 	H 	0.607	0.1182	0.1262	0.117
Mof_Fe	Fe	0.7183	0.3321	0.80957	0.807
Mof_O 	O 	0.762	0.4146	0.61367	-0.445
Mof_O 	O 	0.7181	0.3534	0.25867	-0.5
Mof_O 	O 	0.7931	0.3743	0.03967	-0.397
Mof_C 	C 	0.8256	0.4394	0.54537	0.321
Mof_C 	C 	0.8351	0.4291	0.34767	-0.283
Mof_C 	C 	0.9042	0.4644	0.26957	0.073
Mof_C 	C 	0.9645	0.5094	0.37717	-0.049
Mof_C 	C 	0.9535	0.5173	0.57557	0.061
Mof_C 	C 	0.8868	0.483	0.65777	-0.243
Mof_C 	C 	0.7771	0.3821	0.21477	0.51
Mof_H 	H 	0.9102	0.4572	0.13607	0.017
Mof_H 	H 	0.9933	0.5471	0.65477	0.009
Mof_H 	H 	0.8818	0.4888	0.79287	0.119
Mof_Fe	Fe	0.6679	0.3862	0.47623	0.807
Mof_O 	O 	0.5854	0.3474	0.28033	-0.445
Mof_O 	O 	0.6466	0.3647	0.92533	-0.5
Mof_O 	O 	0.6257	0.4188	0.70633	-0.397
Mof_C 	C 	0.5606	0.3862	0.21203	0.321
Mof_C 	C 	0.5709	0.406	0.01433	-0.284
Mof_C 	C 	0.5356	0.4398	0.93623	0.074
Mof_C 	C 	0.4906	0.4551	0.04383	-0.049
Mof_C 	C 	0.4827	0.4362	0.24223	0.061
Mof_C 	C 	0.517	0.4038	0.32443	-0.243
Mof_C 	C 	0.6179	0.395	0.88143	0.51
Mof_H 	H 	0.5428	0.453	0.80273	0.017
Mof_H 	H 	0.4529	0.4462	0.32143	0.009
Mof_H 	H 	0.5112	0.393	0.45953	0.119
Mof_Fe	Fe	0.2817	0.6138	0.8571	0.806
Mof_O 	O 	0.238	0.6526	0.053	-0.444
Mof_O 	O 	0.2819	0.6353	0.408	-0.5
Mof_O 	O 	0.2069	0.5812	0.627	-0.397
Mof_C 	C 	0.1744	0.6138	0.1213	0.32
Mof_C 	C 	0.1649	0.594	0.319	-0.282
Mof_C 	C 	0.0958	0.5602	0.3971	0.072
Mof_C 	C 	0.0355	0.5449	0.2895	-0.048
Mof_C 	C 	0.0465	0.5638	0.0911	0.058
Mof_C 	C 	0.1132	0.5962	0.0089	-0.239
Mof_C 	C 	0.2229	0.605	0.4519	0.51
Mof_H 	H 	0.0898	0.547	0.5306	0.017
Mof_H 	H 	0.0067	0.5538	0.0119	0.011
Mof_H 	H 	0.1182	0.607	0.8738	0.117
Mof_Fe	Fe	0.3321	0.7183	0.19043	0.807
Mof_O 	O 	0.4146	0.762	0.38633	-0.445
Mof_O 	O 	0.3534	0.7181	0.74133	-0.5
Mof_O 	O 	0.3743	0.7931	0.96033	-0.397
Mof_C 	C 	0.4394	0.8256	0.45463	0.321
Mof_C 	C 	0.4291	0.8351	0.65233	-0.283
Mof_C 	C 	0.4644	0.9042	0.73043	0.073
Mof_C 	C 	0.5094	0.9645	0.62283	-0.049
Mof_C 	C 	0.5173	0.9535	0.42443	0.061
Mof_C 	C 	0.483	0.8868	0.34223	-0.243
Mof_C 	C 	0.3821	0.7771	0.78523	0.51
Mof_H 	H 	0.4572	0.9102	0.86393	0.017
Mof_H 	H 	0.5471	0.9933	0.34523	0.009
Mof_H 	H 	0.4888	0.8818	0.20713	0.119
Mof_Fe	Fe	0.3862	0.6679	0.52377	0.807
Mof_O 	O 	0.3474	0.5854	0.71967	-0.445
Mof_O 	O 	0.3647	0.6466	0.07467	-0.5
Mof_O 	O 	0.4188	0.6257	0.29367	-0.397
Mof_C 	C 	0.3862	0.5606	0.78797	0.321
Mof_C 	C 	0.406	0.5709	0.98567	-0.284
Mof_C 	C 	0.4398	0.5356	0.06377	0.074
Mof_C 	C 	0.4551	0.4906	0.95617	-0.049
Mof_C 	C 	0.4362	0.4827	0.75777	0.061
Mof_C 	C 	0.4038	0.517	0.67557	-0.243
Mof_C 	C 	0.395	0.6179	0.11857	0.51
Mof_H 	H 	0.453	0.5428	0.19727	0.017
Mof_H 	H 	0.4462	0.4529	0.67857	0.009
Mof_H 	H 	0.393	0.5112	0.54047	0.119
_end
