data_functionalizedCrystal
_audit_creation_method	'EQeq! by Chris Wilmer'
_symmetry_space_group_name_H-M	'P1'
_symmetry_Int_Tables_number	1
_symmetry_cell_setting	triclinic
loop_
_symmetry_equiv_pos_as_xyz
  x,y,z
_cell_length_a	20.7839
_cell_length_b	20.7839
_cell_length_c	20.7839
_cell_angle_alpha	109.045
_cell_angle_beta	109.045
_cell_angle_gamma	110.327
loop_
_atom_site_label
_atom_site_type_symbol
_atom_site_fract_x
_atom_site_fract_y
_atom_site_fract_z
_atom_site_charge
Mof_Ag	Ag	0.25	0.57851	0.32851	0.631
Mof_Ag	Ag	0.75	0.92149	0.17149	0.63
Mof_Ag	Ag	0.92149	0.25	0.17149	0.632
Mof_Ag	Ag	0.57851	0.75	0.32851	0.631
Mof_Ag	Ag	0.00519	0.75519	0.25	0.655
Mof_Ag	Ag	0.75519	0.00519	0.75	0.655
Mof_Ag	Ag	0.49481	0.74481	0.75	0.655
Mof_Ag	Ag	0.74481	0.49481	0.25	0.655
Mof_H 	H 	0.2543	0.752	0.3951	0.02
Mof_H 	H 	0.1764	0.805	0.3696	0.041
Mof_H 	H 	0.0035	0.5955	0.2018	0.003
Mof_H 	H 	0.9838	0.4068	0.106	0.251
Mof_H 	H 	0.9886	0.4795	0.0957	0.245
Mof_H 	H 	0.9541	0.458	0.1473	0.231
Mof_H 	H 	0.0548	0.295	0.0562	0.085
Mof_H 	H 	0.0241	0.1701	0.9754	0.054
Mof_H 	H 	0.0389	0.0885	0.0258	0.056
Mof_H 	H 	0.069	0.1254	0.154	0.055
Mof_H 	H 	0.1011	0.2519	0.2382	0.059
Mof_H 	H 	0.8569	0.8592	0.1049	0.02
Mof_H 	H 	0.9354	0.8068	0.1304	0.04
Mof_H 	H 	0.8937	0.8017	0.2982	0.003
Mof_H 	H 	0.8008	0.8778	0.394	0.25
Mof_H 	H 	0.8838	0.8929	0.4043	0.245
Mof_H 	H 	0.8107	0.8068	0.3527	0.231
Mof_H 	H 	0.7388	0.9986	0.4438	0.085
Mof_H 	H 	0.6947	0.0487	0.5246	0.054
Mof_H 	H 	0.5627	0.0131	0.4742	0.056
Mof_H 	H 	0.4714	0.915	0.346	0.055
Mof_H 	H 	0.5137	0.8629	0.2618	0.059
Mof_H 	H 	0.8592	0.2543	0.0023	0.022
Mof_H 	H 	0.8068	0.1764	0.8714	0.039
Mof_H 	H 	0.8017	0.0035	0.908	0.002
Mof_H 	H 	0.8778	0.9838	0.077	0.252
Mof_H 	H 	0.8929	0.9886	0.0091	0.247
Mof_H 	H 	0.8068	0.9541	0.9961	0.235
Mof_H 	H 	0.9986	0.0548	0.2598	0.081
Mof_H 	H 	0.0487	0.0241	0.354	0.057
Mof_H 	H 	0.0131	0.0389	0.4504	0.05
Mof_H 	H 	0.915	0.069	0.4436	0.057
Mof_H 	H 	0.8629	0.1011	0.3492	0.056
Mof_H 	H 	0.752	0.8569	0.4977	0.019
Mof_H 	H 	0.805	0.9354	0.6286	0.039
Mof_H 	H 	0.5955	0.8937	0.592	0.002
Mof_H 	H 	0.4068	0.8008	0.423	0.25
Mof_H 	H 	0.4795	0.8838	0.4909	0.244
Mof_H 	H 	0.458	0.8107	0.5039	0.23
Mof_H 	H 	0.295	0.7388	0.2402	0.083
Mof_H 	H 	0.1701	0.6947	0.146	0.054
Mof_H 	H 	0.0885	0.5627	0.0496	0.054
Mof_H 	H 	0.1254	0.4714	0.0564	0.055
Mof_H 	H 	0.2519	0.5137	0.1508	0.058
Mof_H 	H 	0.6431	0.748	0.0023	0.018
Mof_H 	H 	0.5646	0.695	0.8714	0.04
Mof_H 	H 	0.6063	0.9045	0.908	0.002
Mof_H 	H 	0.6992	0.0932	0.077	0.245
Mof_H 	H 	0.6162	0.0205	0.0091	0.24
Mof_H 	H 	0.6893	0.042	0.9961	0.225
Mof_H 	H 	0.7612	0.205	0.2598	0.083
Mof_H 	H 	0.8053	0.3299	0.354	0.054
Mof_H 	H 	0.9373	0.4115	0.4504	0.054
Mof_H 	H 	0.0286	0.3746	0.4436	0.054
Mof_H 	H 	0.9863	0.2481	0.3492	0.058
Mof_H 	H 	0.2457	0.6408	0.4977	0.019
Mof_H 	H 	0.3236	0.6932	0.6286	0.04
Mof_H 	H 	0.4965	0.6983	0.592	0.002
Mof_H 	H 	0.5162	0.6222	0.423	0.249
Mof_H 	H 	0.5114	0.6071	0.4909	0.244
Mof_H 	H 	0.5459	0.6932	0.5039	0.23
Mof_H 	H 	0.4452	0.5014	0.2402	0.083
Mof_H 	H 	0.4759	0.4513	0.146	0.054
Mof_H 	H 	0.4611	0.4869	0.0496	0.054
Mof_H 	H 	0.431	0.585	0.0564	0.055
Mof_H 	H 	0.3989	0.6371	0.1508	0.058
Mof_H 	H 	0.748	0.2457	0.1049	0.02
Mof_H 	H 	0.695	0.3236	0.1304	0.039
Mof_H 	H 	0.9045	0.4965	0.2982	0.002
Mof_H 	H 	0.0932	0.5162	0.394	0.25
Mof_H 	H 	0.0205	0.5114	0.4043	0.244
Mof_H 	H 	0.042	0.5459	0.3527	0.231
Mof_H 	H 	0.205	0.4452	0.4438	0.083
Mof_H 	H 	0.3299	0.4759	0.5246	0.054
Mof_H 	H 	0.4115	0.4611	0.4742	0.054
Mof_H 	H 	0.3746	0.431	0.346	0.055
Mof_H 	H 	0.2481	0.3989	0.2618	0.058
Mof_H 	H 	0.6408	0.6431	0.3951	0.019
Mof_H 	H 	0.6932	0.5646	0.3696	0.039
Mof_H 	H 	0.6983	0.6063	0.2018	0.002
Mof_H 	H 	0.6222	0.6992	0.106	0.249
Mof_H 	H 	0.6071	0.6162	0.0957	0.244
Mof_H 	H 	0.6932	0.6893	0.1473	0.23
Mof_H 	H 	0.5014	0.7612	0.0562	0.08
Mof_H 	H 	0.4513	0.8053	0.9754	0.058
Mof_H 	H 	0.4869	0.9373	0.0258	0.05
Mof_H 	H 	0.585	0.0286	0.154	0.059
Mof_H 	H 	0.6371	0.9863	0.2382	0.055
Mof_C 	C 	0.2025	0.7191	0.3538	0.011
Mof_C 	C 	0.156	0.7511	0.3393	0.017
Mof_C 	C 	0.0564	0.629	0.2408	0.035
Mof_C 	C 	0.1037	0.5978	0.2531	-0.044
Mof_C 	C 	0.076	0.5131	0.2039	0.214
Mof_C 	C 	0.9929	0.4594	0.1315	-0.697
Mof_C 	C 	0.1047	0.3665	0.207	0.014
Mof_C 	C 	0.0838	0.2872	0.157	0.019
Mof_C 	C 	0.0589	0.2616	0.0761	-0.088
Mof_C 	C 	0.041	0.1875	0.0283	-0.001
Mof_C 	C 	0.0479	0.1376	0.0583	-0.065
Mof_C 	C 	0.068	0.1603	0.1355	-0.015
Mof_C 	C 	0.0868	0.2359	0.1859	-0.087
Mof_C 	C 	0.8653	0.8487	0.1462	0.011
Mof_C 	C 	0.9118	0.8167	0.1607	0.017
Mof_C 	C 	0.8882	0.8156	0.2592	0.035
Mof_C 	C 	0.8447	0.8506	0.2469	-0.044
Mof_C 	C 	0.8092	0.8721	0.2961	0.215
Mof_C 	C 	0.8279	0.8614	0.3685	-0.697
Mof_C 	C 	0.6595	0.8977	0.293	0.014
Mof_C 	C 	0.6302	0.9268	0.343	0.02
Mof_C 	C 	0.6855	0.9828	0.4239	-0.088
Mof_C 	C 	0.6592	0.0127	0.4717	-0.001
Mof_C 	C 	0.5793	0.9896	0.4417	-0.066
Mof_C 	C 	0.5248	0.9325	0.3645	-0.014
Mof_C 	C 	0.55	0.9009	0.3141	-0.087
Mof_C 	C 	0.8487	0.2025	0.9834	0.006
Mof_C 	C 	0.8167	0.156	0.9049	0.019
Mof_C 	C 	0.8156	0.0564	0.9274	0.033
Mof_C 	C 	0.8506	0.1037	0.0059	-0.042
Mof_C 	C 	0.8721	0.076	0.0629	0.219
Mof_C 	C 	0.8614	0.9929	0.0335	-0.709
Mof_C 	C 	0.8977	0.1047	0.2382	0.017
Mof_C 	C 	0.9268	0.0838	0.2966	0.014
Mof_C 	C 	0.9828	0.0589	0.2973	-0.078
Mof_C 	C 	0.0127	0.041	0.3535	-0.014
Mof_C 	C 	0.9896	0.0479	0.4103	-0.053
Mof_C 	C 	0.9325	0.068	0.4077	-0.023
Mof_C 	C 	0.9009	0.0868	0.3509	-0.08
Mof_C 	C 	0.7191	0.8653	0.5166	0.011
Mof_C 	C 	0.7511	0.9118	0.5951	0.017
Mof_C 	C 	0.629	0.8882	0.5726	0.035
Mof_C 	C 	0.5978	0.8447	0.4941	-0.044
Mof_C 	C 	0.5131	0.8092	0.4371	0.215
Mof_C 	C 	0.4594	0.8279	0.4665	-0.698
Mof_C 	C 	0.3665	0.6595	0.2618	0.015
Mof_C 	C 	0.2872	0.6302	0.2034	0.018
Mof_C 	C 	0.2616	0.6855	0.2027	-0.085
Mof_C 	C 	0.1875	0.6592	0.1465	-0.005
Mof_C 	C 	0.1376	0.5793	0.0897	-0.063
Mof_C 	C 	0.1603	0.5248	0.0923	-0.016
Mof_C 	C 	0.2359	0.55	0.1491	-0.085
Mof_C 	C 	0.6347	0.7809	0.9834	0.014
Mof_C 	C 	0.5882	0.7489	0.9049	0.016
Mof_C 	C 	0.6118	0.871	0.9274	0.035
Mof_C 	C 	0.6553	0.9022	0.0059	-0.043
Mof_C 	C 	0.6908	0.9869	0.0629	0.208
Mof_C 	C 	0.6721	0.0406	0.0335	-0.682
Mof_C 	C 	0.8405	0.1335	0.2382	0.014
Mof_C 	C 	0.8698	0.2128	0.2966	0.019
Mof_C 	C 	0.8145	0.2384	0.2973	-0.086
Mof_C 	C 	0.8408	0.3125	0.3535	-0.004
Mof_C 	C 	0.9207	0.3624	0.4103	-0.064
Mof_C 	C 	0.9752	0.3397	0.4077	-0.015
Mof_C 	C 	0.95	0.2641	0.3509	-0.086
Mof_C 	C 	0.2975	0.6513	0.5166	0.011
Mof_C 	C 	0.344	0.6833	0.5951	0.017
Mof_C 	C 	0.4436	0.6844	0.5726	0.035
Mof_C 	C 	0.3963	0.6494	0.4941	-0.044
Mof_C 	C 	0.424	0.6279	0.4371	0.215
Mof_C 	C 	0.5071	0.6386	0.4665	-0.697
Mof_C 	C 	0.3953	0.6023	0.2618	0.015
Mof_C 	C 	0.4162	0.5732	0.2034	0.018
Mof_C 	C 	0.4411	0.5172	0.2027	-0.085
Mof_C 	C 	0.459	0.4873	0.1465	-0.005
Mof_C 	C 	0.4521	0.5104	0.0897	-0.063
Mof_C 	C 	0.432	0.5675	0.0923	-0.016
Mof_C 	C 	0.4132	0.5991	0.1491	-0.085
Mof_C 	C 	0.7809	0.2975	0.1462	0.011
Mof_C 	C 	0.7489	0.344	0.1607	0.017
Mof_C 	C 	0.871	0.4436	0.2592	0.035
Mof_C 	C 	0.9022	0.3963	0.2469	-0.044
Mof_C 	C 	0.9869	0.424	0.2961	0.215
Mof_C 	C 	0.0406	0.5071	0.3685	-0.698
Mof_C 	C 	0.1335	0.3953	0.293	0.015
Mof_C 	C 	0.2128	0.4162	0.343	0.018
Mof_C 	C 	0.2384	0.4411	0.4239	-0.085
Mof_C 	C 	0.3125	0.459	0.4717	-0.005
Mof_C 	C 	0.3624	0.4521	0.4417	-0.063
Mof_C 	C 	0.3397	0.432	0.3645	-0.016
Mof_C 	C 	0.2641	0.4132	0.3141	-0.085
Mof_C 	C 	0.6513	0.6347	0.3538	0.011
Mof_C 	C 	0.6833	0.5882	0.3393	0.017
Mof_C 	C 	0.6844	0.6118	0.2408	0.035
Mof_C 	C 	0.6494	0.6553	0.2531	-0.044
Mof_C 	C 	0.6279	0.6908	0.2039	0.215
Mof_C 	C 	0.6386	0.6721	0.1315	-0.697
Mof_C 	C 	0.6023	0.8405	0.207	0.017
Mof_C 	C 	0.5732	0.8698	0.157	0.013
Mof_C 	C 	0.5172	0.8145	0.0761	-0.079
Mof_C 	C 	0.4873	0.8408	0.0283	-0.014
Mof_C 	C 	0.5104	0.9207	0.0583	-0.055
Mof_C 	C 	0.5675	0.9752	0.1355	-0.026
Mof_C 	C 	0.5991	0.95	0.1859	-0.079
Mof_N 	N 	0.1773	0.6431	0.3118	-0.154
Mof_N 	N 	0.0829	0.7062	0.2827	-0.176
Mof_N 	N 	0.1219	0.4879	0.2284	-0.181
Mof_N 	N 	0.0969	0.4088	0.1757	-0.097
Mof_N 	N 	0.8313	0.8655	0.1882	-0.154
Mof_N 	N 	0.9235	0.8002	0.2173	-0.176
Mof_N 	N 	0.7595	0.8935	0.2716	-0.181
Mof_N 	N 	0.7331	0.9212	0.3243	-0.097
Mof_N 	N 	0.8655	0.1773	0.0342	-0.152
Mof_N 	N 	0.8002	0.0829	0.8767	-0.176
Mof_N 	N 	0.8935	0.1219	0.134	-0.182
Mof_N 	N 	0.9212	0.0969	0.1881	-0.097
Mof_N 	N 	0.6431	0.8313	0.4658	-0.154
Mof_N 	N 	0.7062	0.9235	0.6233	-0.176
Mof_N 	N 	0.4879	0.7595	0.366	-0.181
Mof_N 	N 	0.4088	0.7331	0.3119	-0.097
Mof_N 	N 	0.6687	0.8569	0.0342	-0.155
Mof_N 	N 	0.5765	0.7938	0.8767	-0.175
Mof_N 	N 	0.7405	0.0121	0.134	-0.179
Mof_N 	N 	0.7669	0.0912	0.1881	-0.097
Mof_N 	N 	0.3227	0.6345	0.4658	-0.154
Mof_N 	N 	0.4171	0.6998	0.6233	-0.176
Mof_N 	N 	0.3781	0.6065	0.366	-0.181
Mof_N 	N 	0.4031	0.5788	0.3119	-0.097
Mof_N 	N 	0.8569	0.3227	0.1882	-0.154
Mof_N 	N 	0.7938	0.4171	0.2173	-0.176
Mof_N 	N 	0.0121	0.3781	0.2716	-0.182
Mof_N 	N 	0.0912	0.4031	0.3243	-0.097
Mof_N 	N 	0.6345	0.6687	0.3118	-0.154
Mof_N 	N 	0.6998	0.5765	0.2827	-0.176
Mof_N 	N 	0.6065	0.7405	0.2284	-0.181
Mof_N 	N 	0.5788	0.7669	0.1757	-0.097
Mof_Ag	Ag	0.75	0.42149	0.67149	0.63
Mof_Ag	Ag	0.25	0.07851	0.82851	0.629
Mof_Ag	Ag	0.07851	0.75	0.82851	0.631
Mof_Ag	Ag	0.42149	0.25	0.67149	0.63
Mof_Ag	Ag	0.99481	0.24481	0.75	0.654
Mof_Ag	Ag	0.24481	0.99481	0.25	0.654
Mof_Ag	Ag	0.50519	0.25519	0.25	0.654
Mof_Ag	Ag	0.25519	0.50519	0.75	0.654
Mof_H 	H 	0.7457	0.248	0.6049	0.019
Mof_H 	H 	0.8236	0.195	0.6304	0.04
Mof_H 	H 	0.9965	0.4045	0.7982	0.002
Mof_H 	H 	0.0162	0.5932	0.894	0.25
Mof_H 	H 	0.0114	0.5205	0.9043	0.244
Mof_H 	H 	0.0459	0.542	0.8527	0.23
Mof_H 	H 	0.9452	0.705	0.9438	0.084
Mof_H 	H 	0.9759	0.8299	0.0246	0.053
Mof_H 	H 	0.9611	0.9115	0.9742	0.055
Mof_H 	H 	0.931	0.8746	0.846	0.054
Mof_H 	H 	0.8989	0.7481	0.7618	0.058
Mof_H 	H 	0.1431	0.1408	0.8951	0.019
Mof_H 	H 	0.0646	0.1932	0.8696	0.039
Mof_H 	H 	0.1063	0.1983	0.7018	0.002
Mof_H 	H 	0.1992	0.1222	0.606	0.249
Mof_H 	H 	0.1162	0.1071	0.5957	0.244
Mof_H 	H 	0.1893	0.1932	0.6473	0.23
Mof_H 	H 	0.2612	0.0014	0.5562	0.084
Mof_H 	H 	0.3053	0.9513	0.4754	0.053
Mof_H 	H 	0.4373	0.9869	0.5258	0.055
Mof_H 	H 	0.5286	0.085	0.654	0.054
Mof_H 	H 	0.4863	0.1371	0.7382	0.058
Mof_H 	H 	0.1408	0.7457	0.9977	0.022
Mof_H 	H 	0.1932	0.8236	0.1286	0.039
Mof_H 	H 	0.1983	0.9965	0.092	0.002
Mof_H 	H 	0.1222	0.0162	0.923	0.252
Mof_H 	H 	0.1071	0.0114	0.9909	0.247
Mof_H 	H 	0.1932	0.0459	0.0039	0.235
Mof_H 	H 	0.0014	0.9452	0.7402	0.081
Mof_H 	H 	0.9513	0.9759	0.646	0.057
Mof_H 	H 	0.9869	0.9611	0.5496	0.05
Mof_H 	H 	0.085	0.931	0.5564	0.057
Mof_H 	H 	0.1371	0.8989	0.6508	0.056
Mof_H 	H 	0.248	0.1431	0.5023	0.019
Mof_H 	H 	0.195	0.0646	0.3714	0.039
Mof_H 	H 	0.4045	0.1063	0.408	0.002
Mof_H 	H 	0.5932	0.1992	0.577	0.25
Mof_H 	H 	0.5205	0.1162	0.5091	0.244
Mof_H 	H 	0.542	0.1893	0.4961	0.23
Mof_H 	H 	0.705	0.2612	0.7598	0.083
Mof_H 	H 	0.8299	0.3053	0.854	0.054
Mof_H 	H 	0.9115	0.4373	0.9504	0.054
Mof_H 	H 	0.8746	0.5286	0.9436	0.055
Mof_H 	H 	0.7481	0.4863	0.8492	0.058
Mof_H 	H 	0.3569	0.252	0.9977	0.018
Mof_H 	H 	0.4354	0.305	0.1286	0.04
Mof_H 	H 	0.3937	0.0955	0.092	0.002
Mof_H 	H 	0.3008	0.9068	0.923	0.245
Mof_H 	H 	0.3838	0.9795	0.9909	0.24
Mof_H 	H 	0.3107	0.958	0.0039	0.225
Mof_H 	H 	0.2388	0.795	0.7402	0.083
Mof_H 	H 	0.1947	0.6701	0.646	0.054
Mof_H 	H 	0.0627	0.5885	0.5496	0.054
Mof_H 	H 	0.9714	0.6254	0.5564	0.054
Mof_H 	H 	0.0137	0.7519	0.6508	0.058
Mof_H 	H 	0.7543	0.3592	0.5023	0.019
Mof_H 	H 	0.6764	0.3068	0.3714	0.04
Mof_H 	H 	0.5035	0.3017	0.408	0.002
Mof_H 	H 	0.4838	0.3778	0.577	0.249
Mof_H 	H 	0.4886	0.3929	0.5091	0.244
Mof_H 	H 	0.4541	0.3068	0.4961	0.23
Mof_H 	H 	0.5548	0.4986	0.7598	0.083
Mof_H 	H 	0.5241	0.5487	0.854	0.054
Mof_H 	H 	0.5389	0.5131	0.9504	0.054
Mof_H 	H 	0.569	0.415	0.9436	0.055
Mof_H 	H 	0.6011	0.3629	0.8492	0.058
Mof_H 	H 	0.252	0.7543	0.8951	0.02
Mof_H 	H 	0.305	0.6764	0.8696	0.039
Mof_H 	H 	0.0955	0.5035	0.7018	0.002
Mof_H 	H 	0.9068	0.4838	0.606	0.25
Mof_H 	H 	0.9795	0.4886	0.5957	0.244
Mof_H 	H 	0.958	0.4541	0.6473	0.231
Mof_H 	H 	0.795	0.5548	0.5562	0.083
Mof_H 	H 	0.6701	0.5241	0.4754	0.054
Mof_H 	H 	0.5885	0.5389	0.5258	0.054
Mof_H 	H 	0.6254	0.569	0.654	0.055
Mof_H 	H 	0.7519	0.6011	0.7382	0.058
Mof_H 	H 	0.3592	0.3569	0.6049	0.019
Mof_H 	H 	0.3068	0.4354	0.6304	0.039
Mof_H 	H 	0.3017	0.3937	0.7982	0.002
Mof_H 	H 	0.3778	0.3008	0.894	0.249
Mof_H 	H 	0.3929	0.3838	0.9043	0.244
Mof_H 	H 	0.3068	0.3107	0.8527	0.23
Mof_H 	H 	0.4986	0.2388	0.9438	0.08
Mof_H 	H 	0.5487	0.1947	0.0246	0.058
Mof_H 	H 	0.5131	0.0627	0.9742	0.05
Mof_H 	H 	0.415	0.9714	0.846	0.059
Mof_H 	H 	0.3629	0.0137	0.7618	0.055
Mof_C 	C 	0.7975	0.2809	0.6462	0.011
Mof_C 	C 	0.844	0.2489	0.6607	0.017
Mof_C 	C 	0.9436	0.371	0.7592	0.035
Mof_C 	C 	0.8963	0.4022	0.7469	-0.044
Mof_C 	C 	0.924	0.4869	0.7961	0.214
Mof_C 	C 	0.0071	0.5406	0.8685	-0.697
Mof_C 	C 	0.8953	0.6335	0.793	0.014
Mof_C 	C 	0.9162	0.7128	0.843	0.019
Mof_C 	C 	0.9411	0.7384	0.9239	-0.088
Mof_C 	C 	0.959	0.8125	0.9717	-0.001
Mof_C 	C 	0.9521	0.8624	0.9417	-0.065
Mof_C 	C 	0.932	0.8397	0.8645	-0.015
Mof_C 	C 	0.9132	0.7641	0.8141	-0.087
Mof_C 	C 	0.1347	0.1513	0.8538	0.011
Mof_C 	C 	0.0882	0.1833	0.8393	0.017
Mof_C 	C 	0.1118	0.1844	0.7408	0.035
Mof_C 	C 	0.1553	0.1494	0.7531	-0.044
Mof_C 	C 	0.1908	0.1279	0.7039	0.215
Mof_C 	C 	0.1721	0.1386	0.6315	-0.697
Mof_C 	C 	0.3405	0.1023	0.707	0.014
Mof_C 	C 	0.3698	0.0732	0.657	0.02
Mof_C 	C 	0.3145	0.0172	0.5761	-0.088
Mof_C 	C 	0.3408	0.9873	0.5283	-0.001
Mof_C 	C 	0.4207	0.0104	0.5583	-0.066
Mof_C 	C 	0.4752	0.0675	0.6355	-0.014
Mof_C 	C 	0.45	0.0991	0.6859	-0.087
Mof_C 	C 	0.1513	0.7975	0.0166	0.006
Mof_C 	C 	0.1833	0.844	0.0951	0.019
Mof_C 	C 	0.1844	0.9436	0.0726	0.033
Mof_C 	C 	0.1494	0.8963	0.9941	-0.042
Mof_C 	C 	0.1279	0.924	0.9371	0.219
Mof_C 	C 	0.1386	0.0071	0.9665	-0.709
Mof_C 	C 	0.1023	0.8953	0.7618	0.017
Mof_C 	C 	0.0732	0.9162	0.7034	0.014
Mof_C 	C 	0.0172	0.9411	0.7027	-0.078
Mof_C 	C 	0.9873	0.959	0.6465	-0.014
Mof_C 	C 	0.0104	0.9521	0.5897	-0.053
Mof_C 	C 	0.0675	0.932	0.5923	-0.023
Mof_C 	C 	0.0991	0.9132	0.6491	-0.08
Mof_C 	C 	0.2809	0.1347	0.4834	0.011
Mof_C 	C 	0.2489	0.0882	0.4049	0.017
Mof_C 	C 	0.371	0.1118	0.4274	0.035
Mof_C 	C 	0.4022	0.1553	0.5059	-0.044
Mof_C 	C 	0.4869	0.1908	0.5629	0.215
Mof_C 	C 	0.5406	0.1721	0.5335	-0.698
Mof_C 	C 	0.6335	0.3405	0.7382	0.015
Mof_C 	C 	0.7128	0.3698	0.7966	0.018
Mof_C 	C 	0.7384	0.3145	0.7973	-0.085
Mof_C 	C 	0.8125	0.3408	0.8535	-0.005
Mof_C 	C 	0.8624	0.4207	0.9103	-0.063
Mof_C 	C 	0.8397	0.4752	0.9077	-0.016
Mof_C 	C 	0.7641	0.45	0.8509	-0.085
Mof_C 	C 	0.3653	0.2191	0.0166	0.014
Mof_C 	C 	0.4118	0.2511	0.0951	0.016
Mof_C 	C 	0.3882	0.129	0.0726	0.035
Mof_C 	C 	0.3447	0.0978	0.9941	-0.043
Mof_C 	C 	0.3092	0.0131	0.9371	0.208
Mof_C 	C 	0.3279	0.9594	0.9665	-0.682
Mof_C 	C 	0.1595	0.8665	0.7618	0.014
Mof_C 	C 	0.1302	0.7872	0.7034	0.019
Mof_C 	C 	0.1855	0.7616	0.7027	-0.086
Mof_C 	C 	0.1592	0.6875	0.6465	-0.004
Mof_C 	C 	0.0793	0.6376	0.5897	-0.064
Mof_C 	C 	0.0248	0.6603	0.5923	-0.015
Mof_C 	C 	0.05	0.7359	0.6491	-0.086
Mof_C 	C 	0.7025	0.3487	0.4834	0.011
Mof_C 	C 	0.656	0.3167	0.4049	0.017
Mof_C 	C 	0.5564	0.3156	0.4274	0.035
Mof_C 	C 	0.6037	0.3506	0.5059	-0.044
Mof_C 	C 	0.576	0.3721	0.5629	0.215
Mof_C 	C 	0.4929	0.3614	0.5335	-0.697
Mof_C 	C 	0.6047	0.3977	0.7382	0.015
Mof_C 	C 	0.5838	0.4268	0.7966	0.018
Mof_C 	C 	0.5589	0.4828	0.7973	-0.085
Mof_C 	C 	0.541	0.5127	0.8535	-0.005
Mof_C 	C 	0.5479	0.4896	0.9103	-0.063
Mof_C 	C 	0.568	0.4325	0.9077	-0.016
Mof_C 	C 	0.5868	0.4009	0.8509	-0.085
Mof_C 	C 	0.2191	0.7025	0.8538	0.011
Mof_C 	C 	0.2511	0.656	0.8393	0.017
Mof_C 	C 	0.129	0.5564	0.7408	0.035
Mof_C 	C 	0.0978	0.6037	0.7531	-0.044
Mof_C 	C 	0.0131	0.576	0.7039	0.215
Mof_C 	C 	0.9594	0.4929	0.6315	-0.698
Mof_C 	C 	0.8665	0.6047	0.707	0.015
Mof_C 	C 	0.7872	0.5838	0.657	0.018
Mof_C 	C 	0.7616	0.5589	0.5761	-0.085
Mof_C 	C 	0.6875	0.541	0.5283	-0.005
Mof_C 	C 	0.6376	0.5479	0.5583	-0.063
Mof_C 	C 	0.6603	0.568	0.6355	-0.016
Mof_C 	C 	0.7359	0.5868	0.6859	-0.085
Mof_C 	C 	0.3487	0.3653	0.6462	0.011
Mof_C 	C 	0.3167	0.4118	0.6607	0.017
Mof_C 	C 	0.3156	0.3882	0.7592	0.035
Mof_C 	C 	0.3506	0.3447	0.7469	-0.044
Mof_C 	C 	0.3721	0.3092	0.7961	0.215
Mof_C 	C 	0.3614	0.3279	0.8685	-0.697
Mof_C 	C 	0.3977	0.1595	0.793	0.017
Mof_C 	C 	0.4268	0.1302	0.843	0.013
Mof_C 	C 	0.4828	0.1855	0.9239	-0.079
Mof_C 	C 	0.5127	0.1592	0.9717	-0.014
Mof_C 	C 	0.4896	0.0793	0.9417	-0.055
Mof_C 	C 	0.4325	0.0248	0.8645	-0.026
Mof_C 	C 	0.4009	0.05	0.8141	-0.079
Mof_N 	N 	0.8227	0.3569	0.6882	-0.154
Mof_N 	N 	0.9171	0.2938	0.7173	-0.176
Mof_N 	N 	0.8781	0.5121	0.7716	-0.181
Mof_N 	N 	0.9031	0.5912	0.8243	-0.097
Mof_N 	N 	0.1687	0.1345	0.8118	-0.154
Mof_N 	N 	0.0765	0.1998	0.7827	-0.176
Mof_N 	N 	0.2405	0.1065	0.7284	-0.181
Mof_N 	N 	0.2669	0.0788	0.6757	-0.097
Mof_N 	N 	0.1345	0.8227	0.9658	-0.152
Mof_N 	N 	0.1998	0.9171	0.1233	-0.176
Mof_N 	N 	0.1065	0.8781	0.866	-0.182
Mof_N 	N 	0.0788	0.9031	0.8119	-0.097
Mof_N 	N 	0.3569	0.1687	0.5342	-0.154
Mof_N 	N 	0.2938	0.0765	0.3767	-0.176
Mof_N 	N 	0.5121	0.2405	0.634	-0.181
Mof_N 	N 	0.5912	0.2669	0.6881	-0.097
Mof_N 	N 	0.3313	0.1431	0.9658	-0.155
Mof_N 	N 	0.4235	0.2062	0.1233	-0.175
Mof_N 	N 	0.2595	0.9879	0.866	-0.179
Mof_N 	N 	0.2331	0.9088	0.8119	-0.097
Mof_N 	N 	0.6773	0.3655	0.5342	-0.154
Mof_N 	N 	0.5829	0.3002	0.3767	-0.176
Mof_N 	N 	0.6219	0.3935	0.634	-0.181
Mof_N 	N 	0.5969	0.4212	0.6881	-0.097
Mof_N 	N 	0.1431	0.6773	0.8118	-0.154
Mof_N 	N 	0.2062	0.5829	0.7827	-0.176
Mof_N 	N 	0.9879	0.6219	0.7284	-0.182
Mof_N 	N 	0.9088	0.5969	0.6757	-0.097
Mof_N 	N 	0.3655	0.3313	0.6882	-0.154
Mof_N 	N 	0.3002	0.4235	0.7173	-0.176
Mof_N 	N 	0.3935	0.2595	0.7716	-0.181
Mof_N 	N 	0.4212	0.2331	0.8243	-0.097
Mof_N 	N 	0.81106	0.4914	0.41346	0.064
Mof_O 	O 	0.7458	0.4829	0.3841	-0.171
Mof_O 	O 	0.8628	0.5343	0.4073	-0.179
Mof_O 	O 	0.8275	0.4701	0.461	-0.153
Mof_N 	N 	0.57794	0.3976	0.08654	0.064
Mof_O 	O 	0.5988	0.3617	0.1159	-0.171
Mof_O 	O 	0.627	0.4555	0.0927	-0.179
Mof_O 	O 	0.5091	0.3665	0.039	-0.153
Mof_N 	N 	0.3976	0.81106	0.81966	0.064
Mof_O 	O 	0.3617	0.7458	0.7629	-0.171
Mof_O 	O 	0.4555	0.8628	0.8285	-0.178
Mof_O 	O 	0.3665	0.8275	0.8574	-0.153
Mof_N 	N 	0.4914	0.57794	0.68034	0.064
Mof_O 	O 	0.4829	0.5988	0.7371	-0.171
Mof_O 	O 	0.5343	0.627	0.6715	-0.179
Mof_O 	O 	0.4701	0.5091	0.6426	-0.153
Mof_N 	N 	0.92206	0.0086	0.81966	0.064
Mof_O 	O 	0.9012	0.0171	0.7629	-0.171
Mof_O 	O 	0.873	0.9657	0.8285	-0.178
Mof_O 	O 	0.9909	0.0299	0.8574	-0.153
Mof_N 	N 	0.68894	0.1024	0.68034	0.064
Mof_O 	O 	0.7542	0.1383	0.7371	-0.171
Mof_O 	O 	0.6372	0.0445	0.6715	-0.179
Mof_O 	O 	0.6725	0.1335	0.6426	-0.153
Mof_N 	N 	0.0086	0.68894	0.08654	0.064
Mof_O 	O 	0.0171	0.7542	0.1159	-0.171
Mof_O 	O 	0.9657	0.6372	0.0927	-0.179
Mof_O 	O 	0.0299	0.6725	0.039	-0.153
Mof_N 	N 	0.1024	0.92206	0.41346	0.064
Mof_O 	O 	0.1383	0.9012	0.3841	-0.171
Mof_O 	O 	0.0445	0.873	0.4073	-0.179
Mof_O 	O 	0.1335	0.9909	0.461	-0.153
Mof_N 	N 	0.18894	0.5086	0.58654	0.064
Mof_O 	O 	0.2542	0.5171	0.6159	-0.171
Mof_O 	O 	0.1372	0.4657	0.5927	-0.179
Mof_O 	O 	0.1725	0.5299	0.539	-0.153
Mof_N 	N 	0.42206	0.6024	0.91346	0.064
Mof_O 	O 	0.4012	0.6383	0.8841	-0.171
Mof_O 	O 	0.373	0.5445	0.9073	-0.179
Mof_O 	O 	0.4909	0.6335	0.961	-0.153
Mof_N 	N 	0.6024	0.18894	0.18034	0.064
Mof_O 	O 	0.6383	0.2542	0.2371	-0.171
Mof_O 	O 	0.5445	0.1372	0.1715	-0.178
Mof_O 	O 	0.6335	0.1725	0.1426	-0.153
Mof_N 	N 	0.5086	0.42206	0.31966	0.064
Mof_O 	O 	0.5171	0.4012	0.2629	-0.171
Mof_O 	O 	0.4657	0.373	0.3285	-0.179
Mof_O 	O 	0.5299	0.4909	0.3574	-0.153
Mof_N 	N 	0.07794	0.9914	0.18034	0.064
Mof_O 	O 	0.0988	0.9829	0.2371	-0.171
Mof_O 	O 	0.127	0.0343	0.1715	-0.178
Mof_O 	O 	0.0091	0.9701	0.1426	-0.153
Mof_N 	N 	0.31106	0.8976	0.31966	0.064
Mof_O 	O 	0.2458	0.8617	0.2629	-0.171
Mof_O 	O 	0.3628	0.9555	0.3285	-0.179
Mof_O 	O 	0.3275	0.8665	0.3574	-0.153
Mof_N 	N 	0.9914	0.31106	0.91346	0.064
Mof_O 	O 	0.9829	0.2458	0.8841	-0.171
Mof_O 	O 	0.0343	0.3628	0.9073	-0.179
Mof_O 	O 	0.9701	0.3275	0.961	-0.153
Mof_N 	N 	0.8976	0.07794	0.58654	0.064
Mof_O 	O 	0.8617	0.0988	0.6159	-0.171
Mof_O 	O 	0.9555	0.127	0.5927	-0.179
Mof_O 	O 	0.8665	0.0091	0.539	-0.153
_end
