data_functionalizedCrystal
_audit_creation_method	'EQeq! by Chris Wilmer'
_symmetry_space_group_name_H-M	'P1'
_symmetry_Int_Tables_number	1
_symmetry_cell_setting	triclinic
loop_
_symmetry_equiv_pos_as_xyz
  x,y,z
_cell_length_a	40.709
_cell_length_b	40.709
_cell_length_c	17.468
_cell_angle_alpha	90
_cell_angle_beta	90
_cell_angle_gamma	90
loop_
_atom_site_label
_atom_site_type_symbol
_atom_site_fract_x
_atom_site_fract_y
_atom_site_fract_z
_atom_site_charge
Mof_Mn	Mn	0.29582	0.8242	0.07856	1.011
Mof_O 	O 	0.27079	0.84493	0.0036	-0.438
Mof_O 	O 	0.27751	0.74527	0.93435	-0.378
Mof_O 	O 	0.32031	0.79578	0.14742	-0.388
Mof_N 	N 	0.29019	0.78262	0.0264	-0.252
Mof_N 	N 	0.3059	0.75553	0.0639	-0.194
Mof_C 	C 	0.25513	0.83265	0.9457	0.321
Mof_C 	C 	0.23497	0.85414	0.901	-0.292
Mof_H 	H 	0.2313	0.8759	0.9189	0.133
Mof_C 	C 	0.2211	0.8449	0.8353	0.166
Mof_H 	H 	0.2081	0.8602	0.8078	-0.03
Mof_C 	C 	0.2252	0.8136	0.8062	-0.209
Mof_H 	H 	0.2158	0.8076	0.7584	0.106
Mof_C 	C 	0.2438	0.79066	0.8497	0.131
Mof_H 	H 	0.2463	0.7688	0.8315	0.002
Mof_C 	C 	0.25829	0.79985	0.9184	-0.249
Mof_C 	C 	0.276	0.77473	0.9611	0.302
Mof_C 	C 	0.32021	0.76529	0.1259	0.235
Mof_C 	C 	0.33749	0.74004	0.1745	-0.151
Mof_H 	H 	0.3503	0.7256	0.14	0.066
Mof_H 	H 	0.3206	0.7263	0.1995	0.076
Mof_C 	C 	0.3604	0.75268	0.2359	-0.249
Mof_H 	H 	0.376	0.7682	0.2132	0.101
Mof_H 	H 	0.3724	0.7342	0.2585	0.095
Mof_H 	H 	0.3476	0.7638	0.2757	0.1
Mof_Mn	Mn	0.28913	0.70912	0.00461	1.048
Mof_O 	O 	0.33059	0.69969	0.96493	-0.425
Mof_O 	O 	0.31744	0.63438	0.15214	-0.377
Mof_O 	O 	0.24693	0.71262	0.05571	-0.379
Mof_N 	N 	0.2937	0.67417	0.07927	-0.247
Mof_N 	N 	0.2655	0.66881	0.1245	-0.189
Mof_N 	N 	0.26291	0.67619	0.9174	-0.213
Mof_C 	C 	0.35236	0.67703	0.9861	0.319
Mof_C 	C 	0.38153	0.67542	0.9435	-0.28
Mof_H 	H 	0.385	0.6905	0.9027	0.131
Mof_C 	C 	0.40528	0.65222	0.9602	0.153
Mof_H 	H 	0.4244	0.6509	0.9291	-0.032
Mof_C 	C 	0.40175	0.63109	0.0208	-0.218
Mof_H 	H 	0.4184	0.6155	0.0327	0.107
Mof_C 	C 	0.37342	0.63293	0.0643	0.14
Mof_H 	H 	0.3708	0.6184	0.1065	0.002
Mof_C 	C 	0.3485	0.65562	0.0477	-0.251
Mof_C 	C 	0.31888	0.65447	0.0958	0.298
Mof_C 	C 	0.24278	0.68975	0.1072	0.225
Mof_C 	C 	0.20981	0.68707	0.1446	-0.127
Mof_H 	H 	0.2089	0.666	0.1728	0.057
Mof_H 	H 	0.2078	0.705	0.1827	0.062
Mof_C 	C 	0.18114	0.6887	0.0923	-0.273
Mof_H 	H 	0.1836	0.7075	0.0577	0.11
Mof_H 	H 	0.161	0.6912	0.1224	0.099
Mof_H 	H 	0.1799	0.6684	0.0622	0.104
Mof_C 	C 	0.2334	0.68519	0.894	0.118
Mof_H 	H 	0.2253	0.7062	0.9086	-0.004
Mof_C 	C 	0.2133	0.665	0.8485	-0.201
Mof_H 	H 	0.1915	0.6711	0.8356	0.092
Mof_C 	C 	0.2273	0.63485	0.8228	0.178
Mof_C 	C 	0.2534	0.62587	0.855	-0.255
Mof_H 	H 	0.2611	0.6041	0.8474	0.11
Mof_C 	C 	0.2714	0.64689	0.9013	0.158
Mof_H 	H 	0.2913	0.6389	0.9225	-0.028
Mof_C 	C 	0.2104	0.61233	0.7644	-0.173
Mof_H 	H 	0.2275	0.6029	0.7307	0.077
Mof_H 	H 	0.2001	0.5939	0.7925	0.073
Mof_Mn	Mn	0.22044	0.86339	0.2762	1.05
Mof_O 	O 	0.2406	0.90105	0.31263	-0.43
Mof_O 	O 	0.30292	0.86518	0.13573	-0.384
Mof_O 	O 	0.20526	0.82341	0.22736	-0.387
Mof_N 	N 	0.25618	0.85604	0.20426	-0.247
Mof_N 	N 	0.25359	0.82664	0.1623	-0.191
Mof_N 	N 	0.14199	0.56018	0.5594	-0.204
Mof_C 	C 	0.26571	0.91776	0.2833	0.314
Mof_C 	C 	0.27225	0.9487	0.3146	-0.277
Mof_H 	H 	0.2589	0.9564	0.3554	0.133
Mof_C 	C 	0.29724	0.96817	0.2887	0.144
Mof_H 	H 	0.3008	0.9891	0.3111	-0.025
Mof_C 	C 	0.31769	0.95722	0.229	-0.203
Mof_H 	H 	0.335	0.9707	0.2102	0.107
Mof_C 	C 	0.31202	0.92665	0.1987	0.136
Mof_H 	H 	0.3262	0.9188	0.1594	0.011
Mof_C 	C 	0.28634	0.90662	0.2231	-0.242
Mof_C 	C 	0.28177	0.87475	0.186	0.299
Mof_C 	C 	0.22625	0.81187	0.1783	0.247
Mof_C 	C 	0.21717	0.78092	0.138	-0.183
Mof_H 	H 	0.2368	0.771	0.1139	0.081
Mof_H 	H 	0.2079	0.7649	0.1749	0.083
Mof_C 	C 	0.1896	0.7901	0.072	-0.259
Mof_H 	H 	0.1973	0.8089	0.0419	0.102
Mof_H 	H 	0.1865	0.7711	0.0381	0.099
Mof_H 	H 	0.1687	0.7956	0.0967	0.103
Mof_C 	C 	0.16508	0.58066	0.5364	0.116
Mof_H 	H 	0.1712	0.5808	0.4839	0.001
Mof_C 	C 	0.18084	0.60207	0.5868	-0.195
Mof_H 	H 	0.198	0.6159	0.569	0.103
Mof_C 	C 	0.1713	0.60305	0.6636	0.138
Mof_C 	C 	0.14812	0.58135	0.6854	-0.204
Mof_H 	H 	0.1414	0.5807	0.7374	0.091
Mof_C 	C 	0.13428	0.56045	0.6347	0.12
Mof_H 	H 	0.1184	0.5452	0.6528	-0.012
Mof_C 	C 	0.187	0.6267	0.7193	-0.136
Mof_H 	H 	0.1972	0.6449	0.6902	0.068
Mof_H 	H 	0.1697	0.6362	0.7524	0.06
Mof_Mn	Mn	0.79582	0.3242	0.57856	1.01
Mof_O 	O 	0.77079	0.34493	0.5036	-0.438
Mof_O 	O 	0.77751	0.24527	0.43435	-0.379
Mof_O 	O 	0.82031	0.29578	0.64742	-0.389
Mof_N 	N 	0.79019	0.28262	0.5264	-0.253
Mof_N 	N 	0.8059	0.25553	0.5639	-0.195
Mof_C 	C 	0.75513	0.33265	0.4457	0.32
Mof_C 	C 	0.73497	0.35414	0.401	-0.293
Mof_H 	H 	0.7313	0.3759	0.4189	0.132
Mof_C 	C 	0.7211	0.3449	0.3353	0.165
Mof_H 	H 	0.7081	0.3602	0.3078	-0.031
Mof_C 	C 	0.7252	0.3136	0.3062	-0.21
Mof_H 	H 	0.7158	0.3076	0.2584	0.105
Mof_C 	C 	0.7438	0.29066	0.3497	0.13
Mof_H 	H 	0.7463	0.2688	0.3315	0.001
Mof_C 	C 	0.75829	0.29985	0.4184	-0.25
Mof_C 	C 	0.776	0.27473	0.4611	0.301
Mof_C 	C 	0.82021	0.26529	0.6259	0.234
Mof_C 	C 	0.83749	0.24004	0.6745	-0.152
Mof_H 	H 	0.8503	0.2256	0.64	0.065
Mof_H 	H 	0.8206	0.2263	0.6995	0.075
Mof_C 	C 	0.8604	0.25268	0.7359	-0.25
Mof_H 	H 	0.876	0.2682	0.7132	0.1
Mof_H 	H 	0.8724	0.2342	0.7585	0.094
Mof_H 	H 	0.8476	0.2638	0.7757	0.099
Mof_Mn	Mn	0.78913	0.20912	0.50461	1.048
Mof_O 	O 	0.83059	0.19969	0.46493	-0.426
Mof_O 	O 	0.81744	0.13438	0.65214	-0.378
Mof_O 	O 	0.74693	0.21262	0.55571	-0.38
Mof_N 	N 	0.7937	0.17417	0.57927	-0.248
Mof_N 	N 	0.7655	0.16881	0.6245	-0.19
Mof_N 	N 	0.76291	0.17619	0.4174	-0.214
Mof_C 	C 	0.85236	0.17703	0.4861	0.319
Mof_C 	C 	0.88153	0.17542	0.4435	-0.28
Mof_H 	H 	0.885	0.1905	0.4027	0.131
Mof_C 	C 	0.90528	0.15222	0.4602	0.153
Mof_H 	H 	0.9244	0.1509	0.4291	-0.032
Mof_C 	C 	0.90175	0.13109	0.5208	-0.218
Mof_H 	H 	0.9184	0.1155	0.5327	0.107
Mof_C 	C 	0.87342	0.13293	0.5643	0.14
Mof_H 	H 	0.8708	0.1184	0.6065	0.002
Mof_C 	C 	0.8485	0.15562	0.5477	-0.251
Mof_C 	C 	0.81888	0.15447	0.5958	0.298
Mof_C 	C 	0.74278	0.18975	0.6072	0.225
Mof_C 	C 	0.70981	0.18707	0.6446	-0.127
Mof_H 	H 	0.7089	0.166	0.6728	0.057
Mof_H 	H 	0.7078	0.205	0.6827	0.062
Mof_C 	C 	0.68114	0.1887	0.5923	-0.273
Mof_H 	H 	0.6836	0.2075	0.5577	0.11
Mof_H 	H 	0.661	0.1912	0.6224	0.099
Mof_H 	H 	0.6799	0.1684	0.5622	0.104
Mof_C 	C 	0.7334	0.18519	0.394	0.118
Mof_H 	H 	0.7253	0.2062	0.4086	-0.004
Mof_C 	C 	0.7133	0.165	0.3485	-0.201
Mof_H 	H 	0.6915	0.1711	0.3356	0.091
Mof_C 	C 	0.7273	0.13485	0.3228	0.178
Mof_C 	C 	0.7534	0.12587	0.355	-0.255
Mof_H 	H 	0.7611	0.1041	0.3474	0.11
Mof_C 	C 	0.7714	0.14689	0.4013	0.158
Mof_H 	H 	0.7913	0.1389	0.4225	-0.028
Mof_C 	C 	0.7104	0.11233	0.2644	-0.173
Mof_H 	H 	0.7275	0.1029	0.2307	0.077
Mof_H 	H 	0.7001	0.0939	0.2925	0.073
Mof_Mn	Mn	0.72044	0.36339	0.7762	1.05
Mof_O 	O 	0.7406	0.40105	0.81263	-0.43
Mof_O 	O 	0.80292	0.36518	0.63573	-0.384
Mof_O 	O 	0.70526	0.32341	0.72736	-0.387
Mof_N 	N 	0.75618	0.35604	0.70426	-0.247
Mof_N 	N 	0.75359	0.32664	0.6623	-0.191
Mof_N 	N 	0.64199	0.06018	0.0594	-0.204
Mof_C 	C 	0.76571	0.41776	0.7833	0.314
Mof_C 	C 	0.77225	0.4487	0.8146	-0.277
Mof_H 	H 	0.7589	0.4564	0.8554	0.133
Mof_C 	C 	0.79724	0.46817	0.7887	0.144
Mof_H 	H 	0.8008	0.4891	0.8111	-0.025
Mof_C 	C 	0.81769	0.45722	0.729	-0.203
Mof_H 	H 	0.835	0.4707	0.7102	0.107
Mof_C 	C 	0.81202	0.42665	0.6987	0.136
Mof_H 	H 	0.8262	0.4188	0.6594	0.011
Mof_C 	C 	0.78634	0.40662	0.7231	-0.242
Mof_C 	C 	0.78177	0.37475	0.686	0.299
Mof_C 	C 	0.72625	0.31187	0.6783	0.247
Mof_C 	C 	0.71717	0.28092	0.638	-0.183
Mof_H 	H 	0.7368	0.271	0.6139	0.081
Mof_H 	H 	0.7079	0.2649	0.6749	0.083
Mof_C 	C 	0.6896	0.2901	0.572	-0.259
Mof_H 	H 	0.6973	0.3089	0.5419	0.102
Mof_H 	H 	0.6865	0.2711	0.5381	0.099
Mof_H 	H 	0.6687	0.2956	0.5967	0.103
Mof_C 	C 	0.66508	0.08066	0.0364	0.116
Mof_H 	H 	0.6712	0.0808	0.9839	0.001
Mof_C 	C 	0.68084	0.10207	0.0868	-0.195
Mof_H 	H 	0.698	0.1159	0.069	0.103
Mof_C 	C 	0.6713	0.10305	0.1636	0.138
Mof_C 	C 	0.64812	0.08135	0.1854	-0.204
Mof_H 	H 	0.6414	0.0807	0.2374	0.091
Mof_C 	C 	0.63428	0.06045	0.1347	0.12
Mof_H 	H 	0.6184	0.0452	0.1528	-0.013
Mof_C 	C 	0.687	0.1267	0.2193	-0.136
Mof_H 	H 	0.6972	0.1449	0.1902	0.068
Mof_H 	H 	0.6697	0.1362	0.2524	0.06
Mof_Mn	Mn	0.20418	0.1758	0.57856	1.01
Mof_O 	O 	0.22921	0.15507	0.5036	-0.438
Mof_O 	O 	0.22249	0.25473	0.43435	-0.379
Mof_O 	O 	0.17969	0.20422	0.64742	-0.389
Mof_N 	N 	0.20981	0.21738	0.5264	-0.253
Mof_N 	N 	0.1941	0.24447	0.5639	-0.195
Mof_C 	C 	0.24487	0.16735	0.4457	0.32
Mof_C 	C 	0.26503	0.14586	0.401	-0.293
Mof_H 	H 	0.2687	0.1241	0.4189	0.132
Mof_C 	C 	0.2789	0.1551	0.3353	0.165
Mof_H 	H 	0.2919	0.1398	0.3078	-0.031
Mof_C 	C 	0.2748	0.1864	0.3062	-0.21
Mof_H 	H 	0.2842	0.1924	0.2584	0.105
Mof_C 	C 	0.2562	0.20934	0.3497	0.13
Mof_H 	H 	0.2537	0.2312	0.3315	0.001
Mof_C 	C 	0.24171	0.20015	0.4184	-0.25
Mof_C 	C 	0.224	0.22527	0.4611	0.301
Mof_C 	C 	0.17979	0.23471	0.6259	0.234
Mof_C 	C 	0.16251	0.25996	0.6745	-0.152
Mof_H 	H 	0.1497	0.2744	0.64	0.065
Mof_H 	H 	0.1794	0.2737	0.6995	0.075
Mof_C 	C 	0.1396	0.24732	0.7359	-0.25
Mof_H 	H 	0.124	0.2318	0.7132	0.1
Mof_H 	H 	0.1276	0.2658	0.7585	0.094
Mof_H 	H 	0.1524	0.2362	0.7757	0.099
Mof_Mn	Mn	0.21087	0.29088	0.50461	1.048
Mof_O 	O 	0.16941	0.30031	0.46493	-0.426
Mof_O 	O 	0.18256	0.36562	0.65214	-0.378
Mof_O 	O 	0.25307	0.28738	0.55571	-0.38
Mof_N 	N 	0.2063	0.32583	0.57927	-0.248
Mof_N 	N 	0.2345	0.33119	0.6245	-0.19
Mof_N 	N 	0.23709	0.32381	0.4174	-0.214
Mof_C 	C 	0.14764	0.32297	0.4861	0.319
Mof_C 	C 	0.11847	0.32458	0.4435	-0.28
Mof_H 	H 	0.115	0.3095	0.4027	0.131
Mof_C 	C 	0.09472	0.34778	0.4602	0.153
Mof_H 	H 	0.0756	0.3491	0.4291	-0.032
Mof_C 	C 	0.09825	0.36891	0.5208	-0.218
Mof_H 	H 	0.0816	0.3845	0.5327	0.107
Mof_C 	C 	0.12658	0.36707	0.5643	0.14
Mof_H 	H 	0.1292	0.3816	0.6065	0.002
Mof_C 	C 	0.1515	0.34438	0.5477	-0.251
Mof_C 	C 	0.18112	0.34553	0.5958	0.298
Mof_C 	C 	0.25722	0.31025	0.6072	0.225
Mof_C 	C 	0.29019	0.31293	0.6446	-0.127
Mof_H 	H 	0.2911	0.334	0.6728	0.057
Mof_H 	H 	0.2922	0.295	0.6827	0.062
Mof_C 	C 	0.31886	0.3113	0.5923	-0.273
Mof_H 	H 	0.3164	0.2925	0.5577	0.11
Mof_H 	H 	0.339	0.3088	0.6224	0.099
Mof_H 	H 	0.3201	0.3316	0.5622	0.104
Mof_C 	C 	0.2666	0.31481	0.394	0.118
Mof_H 	H 	0.2747	0.2938	0.4086	-0.004
Mof_C 	C 	0.2867	0.335	0.3485	-0.201
Mof_H 	H 	0.3085	0.3289	0.3356	0.091
Mof_C 	C 	0.2727	0.36515	0.3228	0.178
Mof_C 	C 	0.2466	0.37413	0.355	-0.255
Mof_H 	H 	0.2389	0.3959	0.3474	0.11
Mof_C 	C 	0.2286	0.35311	0.4013	0.158
Mof_H 	H 	0.2087	0.3611	0.4225	-0.028
Mof_C 	C 	0.2896	0.38767	0.2644	-0.173
Mof_H 	H 	0.2725	0.3971	0.2307	0.077
Mof_H 	H 	0.2999	0.4061	0.2925	0.073
Mof_Mn	Mn	0.27956	0.13661	0.7762	1.05
Mof_O 	O 	0.2594	0.09895	0.81263	-0.43
Mof_O 	O 	0.19708	0.13482	0.63573	-0.384
Mof_O 	O 	0.29474	0.17659	0.72736	-0.387
Mof_N 	N 	0.24382	0.14396	0.70426	-0.247
Mof_N 	N 	0.24641	0.17336	0.6623	-0.191
Mof_N 	N 	0.35801	0.43982	0.0594	-0.204
Mof_C 	C 	0.23429	0.08224	0.7833	0.314
Mof_C 	C 	0.22775	0.0513	0.8146	-0.277
Mof_H 	H 	0.2411	0.0436	0.8554	0.133
Mof_C 	C 	0.20276	0.03183	0.7887	0.144
Mof_H 	H 	0.1992	0.0109	0.8111	-0.025
Mof_C 	C 	0.18231	0.04278	0.729	-0.203
Mof_H 	H 	0.165	0.0293	0.7102	0.107
Mof_C 	C 	0.18798	0.07335	0.6987	0.136
Mof_H 	H 	0.1738	0.0812	0.6594	0.011
Mof_C 	C 	0.21366	0.09338	0.7231	-0.242
Mof_C 	C 	0.21823	0.12525	0.686	0.299
Mof_C 	C 	0.27375	0.18813	0.6783	0.247
Mof_C 	C 	0.28283	0.21908	0.638	-0.183
Mof_H 	H 	0.2632	0.229	0.6139	0.081
Mof_H 	H 	0.2921	0.2351	0.6749	0.083
Mof_C 	C 	0.3104	0.2099	0.572	-0.259
Mof_H 	H 	0.3027	0.1911	0.5419	0.102
Mof_H 	H 	0.3135	0.2289	0.5381	0.099
Mof_H 	H 	0.3313	0.2044	0.5967	0.103
Mof_C 	C 	0.33492	0.41934	0.0364	0.116
Mof_H 	H 	0.3288	0.4192	0.9839	0.001
Mof_C 	C 	0.31916	0.39793	0.0868	-0.195
Mof_H 	H 	0.302	0.3841	0.069	0.103
Mof_C 	C 	0.3287	0.39695	0.1636	0.138
Mof_C 	C 	0.35188	0.41865	0.1854	-0.204
Mof_H 	H 	0.3586	0.4193	0.2374	0.091
Mof_C 	C 	0.36572	0.43955	0.1347	0.12
Mof_H 	H 	0.3816	0.4548	0.1528	-0.013
Mof_C 	C 	0.313	0.3733	0.2193	-0.136
Mof_H 	H 	0.3028	0.3551	0.1902	0.068
Mof_H 	H 	0.3303	0.3638	0.2524	0.06
Mof_Mn	Mn	0.70418	0.6758	0.07856	1.01
Mof_O 	O 	0.72921	0.65507	0.0036	-0.439
Mof_O 	O 	0.72249	0.75473	0.93435	-0.379
Mof_O 	O 	0.67969	0.70422	0.14742	-0.389
Mof_N 	N 	0.70981	0.71738	0.0264	-0.253
Mof_N 	N 	0.6941	0.74447	0.0639	-0.195
Mof_C 	C 	0.74487	0.66735	0.9457	0.32
Mof_C 	C 	0.76503	0.64586	0.901	-0.294
Mof_H 	H 	0.7687	0.6241	0.9189	0.132
Mof_C 	C 	0.7789	0.6551	0.8353	0.165
Mof_H 	H 	0.7919	0.6398	0.8078	-0.031
Mof_C 	C 	0.7748	0.6864	0.8062	-0.21
Mof_H 	H 	0.7842	0.6924	0.7584	0.105
Mof_C 	C 	0.7562	0.70934	0.8497	0.13
Mof_H 	H 	0.7537	0.7312	0.8315	0.001
Mof_C 	C 	0.74171	0.70015	0.9184	-0.25
Mof_C 	C 	0.724	0.72527	0.9611	0.301
Mof_C 	C 	0.67979	0.73471	0.1259	0.234
Mof_C 	C 	0.66251	0.75996	0.1745	-0.152
Mof_H 	H 	0.6497	0.7744	0.14	0.065
Mof_H 	H 	0.6794	0.7737	0.1995	0.075
Mof_C 	C 	0.6396	0.74732	0.2359	-0.25
Mof_H 	H 	0.624	0.7318	0.2132	0.1
Mof_H 	H 	0.6276	0.7658	0.2585	0.094
Mof_H 	H 	0.6524	0.7362	0.2757	0.099
Mof_Mn	Mn	0.71087	0.79088	0.00461	1.047
Mof_O 	O 	0.66941	0.80031	0.96493	-0.426
Mof_O 	O 	0.68256	0.86562	0.15214	-0.378
Mof_O 	O 	0.75307	0.78738	0.05571	-0.38
Mof_N 	N 	0.7063	0.82583	0.07927	-0.248
Mof_N 	N 	0.7345	0.83119	0.1245	-0.19
Mof_N 	N 	0.73709	0.82381	0.9174	-0.214
Mof_C 	C 	0.64764	0.82297	0.9861	0.319
Mof_C 	C 	0.61847	0.82458	0.9435	-0.28
Mof_H 	H 	0.615	0.8095	0.9027	0.131
Mof_C 	C 	0.59472	0.84778	0.9602	0.153
Mof_H 	H 	0.5756	0.8491	0.9291	-0.032
Mof_C 	C 	0.59825	0.86891	0.0208	-0.218
Mof_H 	H 	0.5816	0.8845	0.0327	0.107
Mof_C 	C 	0.62658	0.86707	0.0643	0.14
Mof_H 	H 	0.6292	0.8816	0.1065	0.002
Mof_C 	C 	0.6515	0.84438	0.0477	-0.251
Mof_C 	C 	0.68112	0.84553	0.0958	0.298
Mof_C 	C 	0.75722	0.81025	0.1072	0.225
Mof_C 	C 	0.79019	0.81293	0.1446	-0.127
Mof_H 	H 	0.7911	0.834	0.1728	0.057
Mof_H 	H 	0.7922	0.795	0.1827	0.062
Mof_C 	C 	0.81886	0.8113	0.0923	-0.273
Mof_H 	H 	0.8164	0.7925	0.0577	0.11
Mof_H 	H 	0.839	0.8088	0.1224	0.099
Mof_H 	H 	0.8201	0.8316	0.0622	0.104
Mof_C 	C 	0.7666	0.81481	0.894	0.118
Mof_H 	H 	0.7747	0.7938	0.9086	-0.004
Mof_C 	C 	0.7867	0.835	0.8485	-0.201
Mof_H 	H 	0.8085	0.8289	0.8356	0.092
Mof_C 	C 	0.7727	0.86515	0.8228	0.178
Mof_C 	C 	0.7466	0.87413	0.855	-0.255
Mof_H 	H 	0.7389	0.8959	0.8474	0.11
Mof_C 	C 	0.7286	0.85311	0.9013	0.158
Mof_H 	H 	0.7087	0.8611	0.9225	-0.028
Mof_C 	C 	0.7896	0.88767	0.7644	-0.173
Mof_H 	H 	0.7725	0.8971	0.7307	0.077
Mof_H 	H 	0.7999	0.9061	0.7925	0.073
Mof_Mn	Mn	0.77956	0.63661	0.2762	1.05
Mof_O 	O 	0.7594	0.59895	0.31263	-0.43
Mof_O 	O 	0.69708	0.63482	0.13573	-0.384
Mof_O 	O 	0.79474	0.67659	0.22736	-0.387
Mof_N 	N 	0.74382	0.64396	0.20426	-0.247
Mof_N 	N 	0.74641	0.67336	0.1623	-0.191
Mof_N 	N 	0.85801	0.93982	0.5594	-0.204
Mof_C 	C 	0.73429	0.58224	0.2833	0.314
Mof_C 	C 	0.72775	0.5513	0.3146	-0.277
Mof_H 	H 	0.7411	0.5436	0.3554	0.133
Mof_C 	C 	0.70276	0.53183	0.2887	0.144
Mof_H 	H 	0.6992	0.5109	0.3111	-0.025
Mof_C 	C 	0.68231	0.54278	0.229	-0.203
Mof_H 	H 	0.665	0.5293	0.2102	0.107
Mof_C 	C 	0.68798	0.57335	0.1987	0.136
Mof_H 	H 	0.6738	0.5812	0.1594	0.011
Mof_C 	C 	0.71366	0.59338	0.2231	-0.242
Mof_C 	C 	0.71823	0.62525	0.186	0.299
Mof_C 	C 	0.77375	0.68813	0.1783	0.247
Mof_C 	C 	0.78283	0.71908	0.138	-0.183
Mof_H 	H 	0.7632	0.729	0.1139	0.081
Mof_H 	H 	0.7921	0.7351	0.1749	0.083
Mof_C 	C 	0.8104	0.7099	0.072	-0.259
Mof_H 	H 	0.8027	0.6911	0.0419	0.102
Mof_H 	H 	0.8135	0.7289	0.0381	0.099
Mof_H 	H 	0.8313	0.7044	0.0967	0.103
Mof_C 	C 	0.83492	0.91934	0.5364	0.116
Mof_H 	H 	0.8288	0.9192	0.4839	0.001
Mof_C 	C 	0.81916	0.89793	0.5868	-0.195
Mof_H 	H 	0.802	0.8841	0.569	0.103
Mof_C 	C 	0.8287	0.89695	0.6636	0.138
Mof_C 	C 	0.85188	0.91865	0.6854	-0.204
Mof_H 	H 	0.8586	0.9193	0.7374	0.091
Mof_C 	C 	0.86572	0.93955	0.6347	0.12
Mof_H 	H 	0.8816	0.9548	0.6528	-0.013
Mof_C 	C 	0.813	0.8733	0.7193	-0.136
Mof_H 	H 	0.8028	0.8551	0.6902	0.068
Mof_H 	H 	0.8303	0.8638	0.7524	0.06
Mof_Mn	Mn	0.9258	0.54582	0.32856	1.01
Mof_O 	O 	0.90507	0.52079	0.2536	-0.438
Mof_O 	O 	0.00473	0.52751	0.18435	-0.379
Mof_O 	O 	0.95422	0.57031	0.39742	-0.389
Mof_N 	N 	0.96738	0.54019	0.2764	-0.253
Mof_N 	N 	0.99447	0.5559	0.3139	-0.195
Mof_C 	C 	0.91735	0.50513	0.1957	0.32
Mof_C 	C 	0.89586	0.48497	0.151	-0.293
Mof_H 	H 	0.8741	0.4813	0.1689	0.132
Mof_C 	C 	0.9051	0.4711	0.0853	0.165
Mof_H 	H 	0.8898	0.4581	0.0578	-0.031
Mof_C 	C 	0.9364	0.4752	0.0562	-0.21
Mof_H 	H 	0.9424	0.4658	0.0084	0.105
Mof_C 	C 	0.95934	0.4938	0.0997	0.13
Mof_H 	H 	0.9812	0.4963	0.0815	0.001
Mof_C 	C 	0.95015	0.50829	0.1684	-0.25
Mof_C 	C 	0.97527	0.526	0.2111	0.301
Mof_C 	C 	0.98471	0.57021	0.3759	0.234
Mof_C 	C 	0.00996	0.58749	0.4245	-0.152
Mof_H 	H 	0.0244	0.6003	0.39	0.065
Mof_H 	H 	0.0237	0.5706	0.4495	0.075
Mof_C 	C 	0.99732	0.6104	0.4859	-0.25
Mof_H 	H 	0.9818	0.626	0.4632	0.1
Mof_H 	H 	0.0158	0.6224	0.5085	0.094
Mof_H 	H 	0.9862	0.5976	0.5257	0.099
Mof_Mn	Mn	0.04088	0.53913	0.25461	1.048
Mof_O 	O 	0.05031	0.58059	0.21493	-0.426
Mof_O 	O 	0.11562	0.56744	0.40214	-0.378
Mof_O 	O 	0.03738	0.49693	0.30571	-0.38
Mof_N 	N 	0.07583	0.5437	0.32927	-0.248
Mof_N 	N 	0.08119	0.5155	0.3745	-0.19
Mof_N 	N 	0.07381	0.51291	0.1674	-0.214
Mof_C 	C 	0.07297	0.60236	0.2361	0.319
Mof_C 	C 	0.07458	0.63153	0.1935	-0.28
Mof_H 	H 	0.0595	0.635	0.1527	0.131
Mof_C 	C 	0.09778	0.65528	0.2102	0.153
Mof_H 	H 	0.0991	0.6744	0.1791	-0.032
Mof_C 	C 	0.11891	0.65175	0.2708	-0.218
Mof_H 	H 	0.1345	0.6684	0.2827	0.107
Mof_C 	C 	0.11707	0.62342	0.3143	0.14
Mof_H 	H 	0.1316	0.6208	0.3565	0.002
Mof_C 	C 	0.09438	0.5985	0.2977	-0.251
Mof_C 	C 	0.09553	0.56888	0.3458	0.298
Mof_C 	C 	0.06025	0.49278	0.3572	0.225
Mof_C 	C 	0.06293	0.45981	0.3946	-0.127
Mof_H 	H 	0.084	0.4589	0.4228	0.057
Mof_H 	H 	0.045	0.4578	0.4327	0.062
Mof_C 	C 	0.0613	0.43114	0.3423	-0.273
Mof_H 	H 	0.0425	0.4336	0.3077	0.11
Mof_H 	H 	0.0588	0.411	0.3724	0.099
Mof_H 	H 	0.0816	0.4299	0.3122	0.104
Mof_C 	C 	0.06481	0.4834	0.144	0.117
Mof_H 	H 	0.0438	0.4753	0.1586	-0.004
Mof_C 	C 	0.085	0.4633	0.0985	-0.201
Mof_H 	H 	0.0789	0.4415	0.0856	0.091
Mof_C 	C 	0.11515	0.4773	0.0728	0.177
Mof_C 	C 	0.12413	0.5034	0.105	-0.255
Mof_H 	H 	0.1459	0.5111	0.0974	0.11
Mof_C 	C 	0.10311	0.5214	0.1513	0.158
Mof_H 	H 	0.1111	0.5413	0.1725	-0.028
Mof_C 	C 	0.13767	0.4604	0.0144	-0.172
Mof_H 	H 	0.1471	0.4775	0.9807	0.077
Mof_H 	H 	0.1561	0.4501	0.0425	0.073
Mof_Mn	Mn	0.88661	0.47044	0.5262	1.05
Mof_O 	O 	0.84895	0.4906	0.56263	-0.43
Mof_O 	O 	0.88482	0.55292	0.38573	-0.384
Mof_O 	O 	0.92659	0.45526	0.47736	-0.387
Mof_N 	N 	0.89396	0.50618	0.45426	-0.247
Mof_N 	N 	0.92336	0.50359	0.4123	-0.191
Mof_N 	N 	0.18982	0.39199	0.8094	-0.204
Mof_C 	C 	0.83224	0.51571	0.5333	0.314
Mof_C 	C 	0.8013	0.52225	0.5646	-0.277
Mof_H 	H 	0.7936	0.5089	0.6054	0.133
Mof_C 	C 	0.78183	0.54724	0.5387	0.144
Mof_H 	H 	0.7609	0.5508	0.5611	-0.025
Mof_C 	C 	0.79278	0.56769	0.479	-0.203
Mof_H 	H 	0.7793	0.585	0.4602	0.107
Mof_C 	C 	0.82335	0.56202	0.4487	0.136
Mof_H 	H 	0.8312	0.5762	0.4094	0.011
Mof_C 	C 	0.84338	0.53634	0.4731	-0.242
Mof_C 	C 	0.87525	0.53177	0.436	0.299
Mof_C 	C 	0.93813	0.47625	0.4283	0.247
Mof_C 	C 	0.96908	0.46717	0.388	-0.183
Mof_H 	H 	0.979	0.4868	0.3639	0.081
Mof_H 	H 	0.9851	0.4579	0.4249	0.083
Mof_C 	C 	0.9599	0.4396	0.322	-0.26
Mof_H 	H 	0.9411	0.4473	0.2919	0.102
Mof_H 	H 	0.9789	0.4365	0.2881	0.099
Mof_H 	H 	0.9544	0.4187	0.3467	0.103
Mof_C 	C 	0.16934	0.41508	0.7864	0.116
Mof_H 	H 	0.1692	0.4212	0.7339	0.001
Mof_C 	C 	0.14793	0.43084	0.8368	-0.195
Mof_H 	H 	0.1341	0.448	0.819	0.103
Mof_C 	C 	0.14695	0.4213	0.9136	0.139
Mof_C 	C 	0.16865	0.39812	0.9354	-0.204
Mof_H 	H 	0.1693	0.3914	0.9874	0.091
Mof_C 	C 	0.18955	0.38428	0.8847	0.12
Mof_H 	H 	0.2048	0.3684	0.9028	-0.013
Mof_C 	C 	0.1233	0.437	0.9693	-0.137
Mof_H 	H 	0.1051	0.4472	0.9402	0.068
Mof_H 	H 	0.1138	0.4197	0.0024	0.06
Mof_Mn	Mn	0.4258	0.04582	0.82856	1.01
Mof_O 	O 	0.40507	0.02079	0.7536	-0.438
Mof_O 	O 	0.50473	0.02751	0.68435	-0.379
Mof_O 	O 	0.45422	0.07031	0.89742	-0.389
Mof_N 	N 	0.46738	0.04019	0.7764	-0.253
Mof_N 	N 	0.49447	0.0559	0.8139	-0.195
Mof_C 	C 	0.41735	0.00513	0.6957	0.32
Mof_C 	C 	0.39586	0.98497	0.651	-0.293
Mof_H 	H 	0.3741	0.9813	0.6689	0.132
Mof_C 	C 	0.4051	0.9711	0.5853	0.165
Mof_H 	H 	0.3898	0.9581	0.5578	-0.031
Mof_C 	C 	0.4364	0.9752	0.5562	-0.21
Mof_H 	H 	0.4424	0.9658	0.5084	0.105
Mof_C 	C 	0.45934	0.9938	0.5997	0.13
Mof_H 	H 	0.4812	0.9963	0.5815	0.001
Mof_C 	C 	0.45015	0.00829	0.6684	-0.25
Mof_C 	C 	0.47527	0.026	0.7111	0.301
Mof_C 	C 	0.48471	0.07021	0.8759	0.234
Mof_C 	C 	0.50996	0.08749	0.9245	-0.152
Mof_H 	H 	0.5244	0.1003	0.89	0.065
Mof_H 	H 	0.5237	0.0706	0.9495	0.075
Mof_C 	C 	0.49732	0.1104	0.9859	-0.251
Mof_H 	H 	0.4818	0.126	0.9632	0.101
Mof_H 	H 	0.5158	0.1224	0.0085	0.094
Mof_H 	H 	0.4862	0.0976	0.0257	0.099
Mof_Mn	Mn	0.54088	0.03913	0.75461	1.048
Mof_O 	O 	0.55031	0.08059	0.71493	-0.426
Mof_O 	O 	0.61562	0.06744	0.90214	-0.378
Mof_O 	O 	0.53738	0.99693	0.80571	-0.38
Mof_N 	N 	0.57583	0.0437	0.82927	-0.248
Mof_N 	N 	0.58119	0.0155	0.8745	-0.19
Mof_N 	N 	0.57381	0.01291	0.6674	-0.214
Mof_C 	C 	0.57297	0.10236	0.7361	0.319
Mof_C 	C 	0.57458	0.13153	0.6935	-0.28
Mof_H 	H 	0.5595	0.135	0.6527	0.131
Mof_C 	C 	0.59778	0.15528	0.7102	0.153
Mof_H 	H 	0.5991	0.1744	0.6791	-0.032
Mof_C 	C 	0.61891	0.15175	0.7708	-0.218
Mof_H 	H 	0.6345	0.1684	0.7827	0.107
Mof_C 	C 	0.61707	0.12342	0.8143	0.14
Mof_H 	H 	0.6316	0.1208	0.8565	0.002
Mof_C 	C 	0.59438	0.0985	0.7977	-0.251
Mof_C 	C 	0.59553	0.06888	0.8458	0.298
Mof_C 	C 	0.56025	0.99278	0.8572	0.225
Mof_C 	C 	0.56293	0.95981	0.8946	-0.127
Mof_H 	H 	0.584	0.9589	0.9228	0.057
Mof_H 	H 	0.545	0.9578	0.9327	0.062
Mof_C 	C 	0.5613	0.93114	0.8423	-0.273
Mof_H 	H 	0.5425	0.9336	0.8077	0.11
Mof_H 	H 	0.5588	0.911	0.8724	0.099
Mof_H 	H 	0.5816	0.9299	0.8122	0.104
Mof_C 	C 	0.56481	0.9834	0.644	0.118
Mof_H 	H 	0.5438	0.9753	0.6586	-0.004
Mof_C 	C 	0.585	0.9633	0.5985	-0.201
Mof_H 	H 	0.5789	0.9415	0.5856	0.091
Mof_C 	C 	0.61515	0.9773	0.5728	0.178
Mof_C 	C 	0.62413	0.0034	0.605	-0.255
Mof_H 	H 	0.6459	0.0111	0.5974	0.11
Mof_C 	C 	0.60311	0.0214	0.6513	0.158
Mof_H 	H 	0.6111	0.0413	0.6725	-0.028
Mof_C 	C 	0.63767	0.9604	0.5144	-0.173
Mof_H 	H 	0.6471	0.9775	0.4807	0.077
Mof_H 	H 	0.6561	0.9501	0.5425	0.073
Mof_Mn	Mn	0.38661	0.97044	0.0262	1.05
Mof_O 	O 	0.34895	0.9906	0.06263	-0.43
Mof_O 	O 	0.38482	0.05292	0.88573	-0.384
Mof_O 	O 	0.42659	0.95526	0.97736	-0.387
Mof_N 	N 	0.39396	0.00618	0.95426	-0.247
Mof_N 	N 	0.42336	0.00359	0.9123	-0.191
Mof_N 	N 	0.68982	0.89199	0.3094	-0.204
Mof_C 	C 	0.33224	0.01571	0.0333	0.314
Mof_C 	C 	0.3013	0.02225	0.0646	-0.277
Mof_H 	H 	0.2936	0.0089	0.1054	0.133
Mof_C 	C 	0.28183	0.04724	0.0387	0.144
Mof_H 	H 	0.2609	0.0508	0.0611	-0.025
Mof_C 	C 	0.29278	0.06769	0.979	-0.202
Mof_H 	H 	0.2793	0.085	0.9602	0.107
Mof_C 	C 	0.32335	0.06202	0.9487	0.135
Mof_H 	H 	0.3312	0.0762	0.9094	0.011
Mof_C 	C 	0.34338	0.03634	0.9731	-0.242
Mof_C 	C 	0.37525	0.03177	0.936	0.299
Mof_C 	C 	0.43813	0.97625	0.9283	0.247
Mof_C 	C 	0.46908	0.96717	0.888	-0.183
Mof_H 	H 	0.479	0.9868	0.8639	0.081
Mof_H 	H 	0.4851	0.9579	0.9249	0.083
Mof_C 	C 	0.4599	0.9396	0.822	-0.26
Mof_H 	H 	0.4411	0.9473	0.7919	0.102
Mof_H 	H 	0.4789	0.9365	0.7881	0.099
Mof_H 	H 	0.4544	0.9187	0.8467	0.103
Mof_C 	C 	0.66934	0.91508	0.2864	0.116
Mof_H 	H 	0.6692	0.9212	0.2339	0.001
Mof_C 	C 	0.64793	0.93084	0.3368	-0.195
Mof_H 	H 	0.6341	0.948	0.319	0.103
Mof_C 	C 	0.64695	0.9213	0.4136	0.138
Mof_C 	C 	0.66865	0.89812	0.4354	-0.204
Mof_H 	H 	0.6693	0.8914	0.4874	0.091
Mof_C 	C 	0.68955	0.88428	0.3847	0.12
Mof_H 	H 	0.7048	0.8684	0.4028	-0.012
Mof_C 	C 	0.6233	0.937	0.4693	-0.136
Mof_H 	H 	0.6051	0.9472	0.4402	0.068
Mof_H 	H 	0.6138	0.9197	0.5024	0.06
Mof_Mn	Mn	0.5742	0.45418	0.82856	1.01
Mof_O 	O 	0.59493	0.47921	0.7536	-0.438
Mof_O 	O 	0.49527	0.47249	0.68435	-0.379
Mof_O 	O 	0.54578	0.42969	0.89742	-0.389
Mof_N 	N 	0.53262	0.45981	0.7764	-0.253
Mof_N 	N 	0.50553	0.4441	0.8139	-0.195
Mof_C 	C 	0.58265	0.49487	0.6957	0.32
Mof_C 	C 	0.60414	0.51503	0.651	-0.293
Mof_H 	H 	0.6259	0.5187	0.6689	0.132
Mof_C 	C 	0.5949	0.5289	0.5853	0.165
Mof_H 	H 	0.6102	0.5419	0.5578	-0.031
Mof_C 	C 	0.5636	0.5248	0.5562	-0.21
Mof_H 	H 	0.5576	0.5342	0.5084	0.105
Mof_C 	C 	0.54066	0.5062	0.5997	0.13
Mof_H 	H 	0.5188	0.5037	0.5815	0.001
Mof_C 	C 	0.54985	0.49171	0.6684	-0.25
Mof_C 	C 	0.52473	0.474	0.7111	0.301
Mof_C 	C 	0.51529	0.42979	0.8759	0.234
Mof_C 	C 	0.49004	0.41251	0.9245	-0.152
Mof_H 	H 	0.4756	0.3997	0.89	0.065
Mof_H 	H 	0.4763	0.4294	0.9495	0.074
Mof_C 	C 	0.50268	0.3896	0.9859	-0.251
Mof_H 	H 	0.5182	0.374	0.9632	0.101
Mof_H 	H 	0.4842	0.3776	0.0085	0.094
Mof_H 	H 	0.5138	0.4024	0.0257	0.099
Mof_Mn	Mn	0.45912	0.46087	0.75461	1.048
Mof_O 	O 	0.44969	0.41941	0.71493	-0.426
Mof_O 	O 	0.38438	0.43256	0.90214	-0.378
Mof_O 	O 	0.46262	0.50307	0.80571	-0.38
Mof_N 	N 	0.42417	0.4563	0.82927	-0.248
Mof_N 	N 	0.41881	0.4845	0.8745	-0.19
Mof_N 	N 	0.42619	0.48709	0.6674	-0.214
Mof_C 	C 	0.42703	0.39764	0.7361	0.319
Mof_C 	C 	0.42542	0.36847	0.6935	-0.28
Mof_H 	H 	0.4405	0.365	0.6527	0.131
Mof_C 	C 	0.40222	0.34472	0.7102	0.153
Mof_H 	H 	0.4009	0.3256	0.6791	-0.032
Mof_C 	C 	0.38109	0.34825	0.7708	-0.218
Mof_H 	H 	0.3655	0.3316	0.7827	0.107
Mof_C 	C 	0.38293	0.37658	0.8143	0.14
Mof_H 	H 	0.3684	0.3792	0.8565	0.002
Mof_C 	C 	0.40562	0.4015	0.7977	-0.251
Mof_C 	C 	0.40447	0.43112	0.8458	0.298
Mof_C 	C 	0.43975	0.50722	0.8572	0.225
Mof_C 	C 	0.43707	0.54019	0.8946	-0.127
Mof_H 	H 	0.416	0.5411	0.9228	0.057
Mof_H 	H 	0.455	0.5422	0.9327	0.062
Mof_C 	C 	0.4387	0.56886	0.8423	-0.273
Mof_H 	H 	0.4575	0.5664	0.8077	0.11
Mof_H 	H 	0.4412	0.589	0.8724	0.099
Mof_H 	H 	0.4184	0.5701	0.8122	0.104
Mof_C 	C 	0.43519	0.5166	0.644	0.118
Mof_H 	H 	0.4562	0.5247	0.6586	-0.004
Mof_C 	C 	0.415	0.5367	0.5985	-0.201
Mof_H 	H 	0.4211	0.5585	0.5856	0.091
Mof_C 	C 	0.38485	0.5227	0.5728	0.178
Mof_C 	C 	0.37587	0.4966	0.605	-0.255
Mof_H 	H 	0.3541	0.4889	0.5974	0.11
Mof_C 	C 	0.39689	0.4786	0.6513	0.158
Mof_H 	H 	0.3889	0.4587	0.6725	-0.028
Mof_C 	C 	0.36233	0.5396	0.5144	-0.173
Mof_H 	H 	0.3529	0.5225	0.4807	0.077
Mof_H 	H 	0.3439	0.5499	0.5425	0.073
Mof_Mn	Mn	0.61339	0.52956	0.0262	1.05
Mof_O 	O 	0.65105	0.5094	0.06263	-0.43
Mof_O 	O 	0.61518	0.44708	0.88573	-0.384
Mof_O 	O 	0.57341	0.54474	0.97736	-0.387
Mof_N 	N 	0.60604	0.49382	0.95426	-0.247
Mof_N 	N 	0.57664	0.49641	0.9123	-0.191
Mof_N 	N 	0.31018	0.60801	0.3094	-0.204
Mof_C 	C 	0.66776	0.48429	0.0333	0.314
Mof_C 	C 	0.6987	0.47775	0.0646	-0.277
Mof_H 	H 	0.7064	0.4911	0.1054	0.133
Mof_C 	C 	0.71817	0.45276	0.0387	0.144
Mof_H 	H 	0.7391	0.4492	0.0611	-0.025
Mof_C 	C 	0.70722	0.43231	0.979	-0.203
Mof_H 	H 	0.7207	0.415	0.9602	0.107
Mof_C 	C 	0.67665	0.43798	0.9487	0.136
Mof_H 	H 	0.6688	0.4238	0.9094	0.011
Mof_C 	C 	0.65662	0.46366	0.9731	-0.242
Mof_C 	C 	0.62475	0.46823	0.936	0.299
Mof_C 	C 	0.56187	0.52375	0.9283	0.247
Mof_C 	C 	0.53092	0.53283	0.888	-0.183
Mof_H 	H 	0.521	0.5132	0.8639	0.081
Mof_H 	H 	0.5149	0.5421	0.9249	0.083
Mof_C 	C 	0.5401	0.5604	0.822	-0.26
Mof_H 	H 	0.5589	0.5527	0.7919	0.102
Mof_H 	H 	0.5211	0.5635	0.7881	0.099
Mof_H 	H 	0.5456	0.5813	0.8467	0.103
Mof_C 	C 	0.33066	0.58492	0.2864	0.116
Mof_H 	H 	0.3308	0.5788	0.2339	0.001
Mof_C 	C 	0.35207	0.56916	0.3368	-0.195
Mof_H 	H 	0.3659	0.552	0.319	0.103
Mof_C 	C 	0.35305	0.5787	0.4136	0.138
Mof_C 	C 	0.33135	0.60188	0.4354	-0.204
Mof_H 	H 	0.3307	0.6086	0.4874	0.091
Mof_C 	C 	0.31045	0.61572	0.3847	0.12
Mof_H 	H 	0.2952	0.6316	0.4028	-0.012
Mof_C 	C 	0.3767	0.563	0.4693	-0.136
Mof_H 	H 	0.3949	0.5528	0.4402	0.068
Mof_H 	H 	0.3862	0.5803	0.5024	0.06
Mof_Mn	Mn	0.0742	0.95418	0.32856	1.01
Mof_O 	O 	0.09493	0.97921	0.2536	-0.438
Mof_O 	O 	0.99527	0.97249	0.18435	-0.379
Mof_O 	O 	0.04578	0.92969	0.39742	-0.389
Mof_N 	N 	0.03262	0.95981	0.2764	-0.253
Mof_N 	N 	0.00553	0.9441	0.3139	-0.195
Mof_C 	C 	0.08265	0.99487	0.1957	0.32
Mof_C 	C 	0.10414	0.01503	0.151	-0.293
Mof_H 	H 	0.1259	0.0187	0.1689	0.132
Mof_C 	C 	0.0949	0.0289	0.0853	0.165
Mof_H 	H 	0.1102	0.0419	0.0578	-0.031
Mof_C 	C 	0.0636	0.0248	0.0562	-0.21
Mof_H 	H 	0.0576	0.0342	0.0084	0.105
Mof_C 	C 	0.04066	0.0062	0.0997	0.13
Mof_H 	H 	0.0188	0.0037	0.0815	0.001
Mof_C 	C 	0.04985	0.99171	0.1684	-0.25
Mof_C 	C 	0.02473	0.974	0.2111	0.301
Mof_C 	C 	0.01529	0.92979	0.3759	0.234
Mof_C 	C 	0.99004	0.91251	0.4245	-0.152
Mof_H 	H 	0.9756	0.8997	0.39	0.065
Mof_H 	H 	0.9763	0.9294	0.4495	0.075
Mof_C 	C 	0.00268	0.8896	0.4859	-0.25
Mof_H 	H 	0.0182	0.874	0.4632	0.1
Mof_H 	H 	0.9842	0.8776	0.5085	0.094
Mof_H 	H 	0.0138	0.9024	0.5257	0.099
Mof_Mn	Mn	0.95912	0.96087	0.25461	1.048
Mof_O 	O 	0.94969	0.91941	0.21493	-0.426
Mof_O 	O 	0.88438	0.93256	0.40214	-0.378
Mof_O 	O 	0.96262	0.00307	0.30571	-0.38
Mof_N 	N 	0.92417	0.9563	0.32927	-0.248
Mof_N 	N 	0.91881	0.9845	0.3745	-0.19
Mof_N 	N 	0.92619	0.98709	0.1674	-0.214
Mof_C 	C 	0.92703	0.89764	0.2361	0.319
Mof_C 	C 	0.92542	0.86847	0.1935	-0.28
Mof_H 	H 	0.9405	0.865	0.1527	0.131
Mof_C 	C 	0.90222	0.84472	0.2102	0.153
Mof_H 	H 	0.9009	0.8256	0.1791	-0.032
Mof_C 	C 	0.88109	0.84825	0.2708	-0.218
Mof_H 	H 	0.8655	0.8316	0.2827	0.107
Mof_C 	C 	0.88293	0.87658	0.3143	0.14
Mof_H 	H 	0.8684	0.8792	0.3565	0.002
Mof_C 	C 	0.90562	0.9015	0.2977	-0.251
Mof_C 	C 	0.90447	0.93112	0.3458	0.298
Mof_C 	C 	0.93975	0.00722	0.3572	0.225
Mof_C 	C 	0.93707	0.04019	0.3946	-0.127
Mof_H 	H 	0.916	0.0411	0.4228	0.057
Mof_H 	H 	0.955	0.0422	0.4327	0.062
Mof_C 	C 	0.9387	0.06886	0.3423	-0.273
Mof_H 	H 	0.9575	0.0664	0.3077	0.11
Mof_H 	H 	0.9412	0.089	0.3724	0.099
Mof_H 	H 	0.9184	0.0701	0.3122	0.104
Mof_C 	C 	0.93519	0.0166	0.144	0.117
Mof_H 	H 	0.9562	0.0247	0.1586	-0.004
Mof_C 	C 	0.915	0.0367	0.0985	-0.201
Mof_H 	H 	0.9211	0.0585	0.0856	0.091
Mof_C 	C 	0.88485	0.0227	0.0728	0.177
Mof_C 	C 	0.87587	0.9966	0.105	-0.255
Mof_H 	H 	0.8541	0.9889	0.0974	0.11
Mof_C 	C 	0.89689	0.9786	0.1513	0.158
Mof_H 	H 	0.8889	0.9587	0.1725	-0.028
Mof_C 	C 	0.86233	0.0396	0.0144	-0.172
Mof_H 	H 	0.8529	0.0225	0.9807	0.077
Mof_H 	H 	0.8439	0.0499	0.0425	0.073
Mof_Mn	Mn	0.11339	0.02956	0.5262	1.05
Mof_O 	O 	0.15105	0.0094	0.56263	-0.43
Mof_O 	O 	0.11518	0.94708	0.38573	-0.384
Mof_O 	O 	0.07341	0.04474	0.47736	-0.387
Mof_N 	N 	0.10604	0.99382	0.45426	-0.247
Mof_N 	N 	0.07664	0.99641	0.4123	-0.191
Mof_N 	N 	0.81018	0.10801	0.8094	-0.204
Mof_C 	C 	0.16776	0.98429	0.5333	0.314
Mof_C 	C 	0.1987	0.97775	0.5646	-0.277
Mof_H 	H 	0.2064	0.9911	0.6054	0.133
Mof_C 	C 	0.21817	0.95276	0.5387	0.144
Mof_H 	H 	0.2391	0.9492	0.5611	-0.025
Mof_C 	C 	0.20722	0.93231	0.479	-0.203
Mof_H 	H 	0.2207	0.915	0.4602	0.107
Mof_C 	C 	0.17665	0.93798	0.4487	0.136
Mof_H 	H 	0.1688	0.9238	0.4094	0.011
Mof_C 	C 	0.15662	0.96366	0.4731	-0.242
Mof_C 	C 	0.12475	0.96823	0.436	0.299
Mof_C 	C 	0.06187	0.02375	0.4283	0.247
Mof_C 	C 	0.03092	0.03283	0.388	-0.183
Mof_H 	H 	0.021	0.0132	0.3639	0.081
Mof_H 	H 	0.0149	0.0421	0.4249	0.083
Mof_C 	C 	0.0401	0.0604	0.322	-0.26
Mof_H 	H 	0.0589	0.0527	0.2919	0.102
Mof_H 	H 	0.0211	0.0635	0.2881	0.099
Mof_H 	H 	0.0456	0.0813	0.3467	0.103
Mof_C 	C 	0.83066	0.08492	0.7864	0.116
Mof_H 	H 	0.8308	0.0788	0.7339	0.001
Mof_C 	C 	0.85207	0.06916	0.8368	-0.195
Mof_H 	H 	0.8659	0.052	0.819	0.103
Mof_C 	C 	0.85305	0.0787	0.9136	0.138
Mof_C 	C 	0.83135	0.10188	0.9354	-0.204
Mof_H 	H 	0.8307	0.1086	0.9874	0.091
Mof_C 	C 	0.81045	0.11572	0.8847	0.12
Mof_H 	H 	0.7952	0.1316	0.9028	-0.013
Mof_C 	C 	0.8767	0.063	0.9693	-0.137
Mof_H 	H 	0.8949	0.0528	0.9402	0.068
Mof_H 	H 	0.8862	0.0803	0.0024	0.06
Mof_Mn	Mn	0.70418	0.1758	0.92144	1.01
Mof_O 	O 	0.72921	0.15507	0.9964	-0.439
Mof_O 	O 	0.72249	0.25473	0.06565	-0.379
Mof_O 	O 	0.67969	0.20422	0.85258	-0.389
Mof_N 	N 	0.70981	0.21738	0.9736	-0.253
Mof_N 	N 	0.6941	0.24447	0.9361	-0.195
Mof_C 	C 	0.74487	0.16735	0.0543	0.32
Mof_C 	C 	0.76503	0.14586	0.099	-0.293
Mof_H 	H 	0.7687	0.1241	0.0811	0.132
Mof_C 	C 	0.7789	0.1551	0.1647	0.165
Mof_H 	H 	0.7919	0.1398	0.1922	-0.031
Mof_C 	C 	0.7748	0.1864	0.1938	-0.21
Mof_H 	H 	0.7842	0.1924	0.2416	0.105
Mof_C 	C 	0.7562	0.20934	0.1503	0.13
Mof_H 	H 	0.7537	0.2312	0.1685	0.001
Mof_C 	C 	0.74171	0.20015	0.0816	-0.25
Mof_C 	C 	0.724	0.22527	0.0389	0.301
Mof_C 	C 	0.67979	0.23471	0.8741	0.234
Mof_C 	C 	0.66251	0.25996	0.8255	-0.152
Mof_H 	H 	0.6497	0.2744	0.86	0.065
Mof_H 	H 	0.6794	0.2737	0.8005	0.075
Mof_C 	C 	0.6396	0.24732	0.7641	-0.25
Mof_H 	H 	0.624	0.2318	0.7868	0.1
Mof_H 	H 	0.6276	0.2658	0.7415	0.094
Mof_H 	H 	0.6524	0.2362	0.7243	0.099
Mof_Mn	Mn	0.71087	0.29088	0.99539	1.047
Mof_O 	O 	0.66941	0.30031	0.03507	-0.426
Mof_O 	O 	0.68256	0.36562	0.84786	-0.378
Mof_O 	O 	0.75307	0.28738	0.94429	-0.38
Mof_N 	N 	0.7063	0.32583	0.92073	-0.248
Mof_N 	N 	0.7345	0.33119	0.8755	-0.19
Mof_N 	N 	0.73709	0.32381	0.0826	-0.214
Mof_C 	C 	0.64764	0.32297	0.0139	0.319
Mof_C 	C 	0.61847	0.32458	0.0565	-0.28
Mof_H 	H 	0.615	0.3095	0.0973	0.131
Mof_C 	C 	0.59472	0.34778	0.0398	0.153
Mof_H 	H 	0.5756	0.3491	0.0709	-0.032
Mof_C 	C 	0.59825	0.36891	0.9792	-0.218
Mof_H 	H 	0.5816	0.3845	0.9673	0.107
Mof_C 	C 	0.62658	0.36707	0.9357	0.14
Mof_H 	H 	0.6292	0.3816	0.8935	0.002
Mof_C 	C 	0.6515	0.34438	0.9523	-0.251
Mof_C 	C 	0.68112	0.34553	0.9042	0.298
Mof_C 	C 	0.75722	0.31025	0.8928	0.225
Mof_C 	C 	0.79019	0.31293	0.8554	-0.127
Mof_H 	H 	0.7911	0.334	0.8272	0.057
Mof_H 	H 	0.7922	0.295	0.8173	0.062
Mof_C 	C 	0.81886	0.3113	0.9077	-0.273
Mof_H 	H 	0.8164	0.2925	0.9423	0.11
Mof_H 	H 	0.839	0.3088	0.8776	0.099
Mof_H 	H 	0.8201	0.3316	0.9378	0.104
Mof_C 	C 	0.7666	0.31481	0.106	0.118
Mof_H 	H 	0.7747	0.2938	0.0914	-0.004
Mof_C 	C 	0.7867	0.335	0.1515	-0.201
Mof_H 	H 	0.8085	0.3289	0.1644	0.092
Mof_C 	C 	0.7727	0.36515	0.1772	0.178
Mof_C 	C 	0.7466	0.37413	0.145	-0.255
Mof_H 	H 	0.7389	0.3959	0.1526	0.11
Mof_C 	C 	0.7286	0.35311	0.0987	0.158
Mof_H 	H 	0.7087	0.3611	0.0775	-0.028
Mof_C 	C 	0.7896	0.38767	0.2356	-0.173
Mof_H 	H 	0.7725	0.3971	0.2693	0.077
Mof_H 	H 	0.7999	0.4061	0.2075	0.073
Mof_Mn	Mn	0.77956	0.13661	0.7238	1.05
Mof_O 	O 	0.7594	0.09895	0.68737	-0.43
Mof_O 	O 	0.69708	0.13482	0.86427	-0.384
Mof_O 	O 	0.79474	0.17659	0.77264	-0.387
Mof_N 	N 	0.74382	0.14396	0.79574	-0.247
Mof_N 	N 	0.74641	0.17336	0.8377	-0.191
Mof_N 	N 	0.85801	0.43982	0.4406	-0.204
Mof_C 	C 	0.73429	0.08224	0.7167	0.314
Mof_C 	C 	0.72775	0.0513	0.6854	-0.277
Mof_H 	H 	0.7411	0.0436	0.6446	0.133
Mof_C 	C 	0.70276	0.03183	0.7113	0.144
Mof_H 	H 	0.6992	0.0109	0.6889	-0.025
Mof_C 	C 	0.68231	0.04278	0.771	-0.203
Mof_H 	H 	0.665	0.0293	0.7898	0.107
Mof_C 	C 	0.68798	0.07335	0.8013	0.136
Mof_H 	H 	0.6738	0.0812	0.8406	0.011
Mof_C 	C 	0.71366	0.09338	0.7769	-0.242
Mof_C 	C 	0.71823	0.12525	0.814	0.299
Mof_C 	C 	0.77375	0.18813	0.8217	0.247
Mof_C 	C 	0.78283	0.21908	0.862	-0.183
Mof_H 	H 	0.7632	0.229	0.8861	0.081
Mof_H 	H 	0.7921	0.2351	0.8251	0.083
Mof_C 	C 	0.8104	0.2099	0.928	-0.259
Mof_H 	H 	0.8027	0.1911	0.9581	0.102
Mof_H 	H 	0.8135	0.2289	0.9619	0.099
Mof_H 	H 	0.8313	0.2044	0.9033	0.103
Mof_C 	C 	0.83492	0.41934	0.4636	0.116
Mof_H 	H 	0.8288	0.4192	0.5161	0.001
Mof_C 	C 	0.81916	0.39793	0.4132	-0.195
Mof_H 	H 	0.802	0.3841	0.431	0.103
Mof_C 	C 	0.8287	0.39695	0.3364	0.138
Mof_C 	C 	0.85188	0.41865	0.3146	-0.204
Mof_H 	H 	0.8586	0.4193	0.2626	0.091
Mof_C 	C 	0.86572	0.43955	0.3653	0.12
Mof_H 	H 	0.8816	0.4548	0.3472	-0.012
Mof_C 	C 	0.813	0.3733	0.2807	-0.136
Mof_H 	H 	0.8028	0.3551	0.3098	0.068
Mof_H 	H 	0.8303	0.3638	0.2476	0.06
Mof_Mn	Mn	0.20418	0.6758	0.42144	1.01
Mof_O 	O 	0.22921	0.65507	0.4964	-0.438
Mof_O 	O 	0.22249	0.75473	0.56565	-0.379
Mof_O 	O 	0.17969	0.70422	0.35258	-0.389
Mof_N 	N 	0.20981	0.71738	0.4736	-0.253
Mof_N 	N 	0.1941	0.74447	0.4361	-0.195
Mof_C 	C 	0.24487	0.66735	0.5543	0.32
Mof_C 	C 	0.26503	0.64586	0.599	-0.293
Mof_H 	H 	0.2687	0.6241	0.5811	0.132
Mof_C 	C 	0.2789	0.6551	0.6647	0.165
Mof_H 	H 	0.2919	0.6398	0.6922	-0.031
Mof_C 	C 	0.2748	0.6864	0.6938	-0.21
Mof_H 	H 	0.2842	0.6924	0.7416	0.105
Mof_C 	C 	0.2562	0.70934	0.6503	0.13
Mof_H 	H 	0.2537	0.7312	0.6685	0.001
Mof_C 	C 	0.24171	0.70015	0.5816	-0.25
Mof_C 	C 	0.224	0.72527	0.5389	0.301
Mof_C 	C 	0.17979	0.73471	0.3741	0.234
Mof_C 	C 	0.16251	0.75996	0.3255	-0.152
Mof_H 	H 	0.1497	0.7744	0.36	0.065
Mof_H 	H 	0.1794	0.7737	0.3005	0.075
Mof_C 	C 	0.1396	0.74732	0.2641	-0.25
Mof_H 	H 	0.124	0.7318	0.2868	0.1
Mof_H 	H 	0.1276	0.7658	0.2415	0.094
Mof_H 	H 	0.1524	0.7362	0.2243	0.099
Mof_Mn	Mn	0.21087	0.79088	0.49539	1.048
Mof_O 	O 	0.16941	0.80031	0.53507	-0.426
Mof_O 	O 	0.18256	0.86562	0.34786	-0.378
Mof_O 	O 	0.25307	0.78738	0.44429	-0.38
Mof_N 	N 	0.2063	0.82583	0.42073	-0.248
Mof_N 	N 	0.2345	0.83119	0.3755	-0.19
Mof_N 	N 	0.23709	0.82381	0.5826	-0.214
Mof_C 	C 	0.14764	0.82297	0.5139	0.319
Mof_C 	C 	0.11847	0.82458	0.5565	-0.28
Mof_H 	H 	0.115	0.8095	0.5973	0.131
Mof_C 	C 	0.09472	0.84778	0.5398	0.153
Mof_H 	H 	0.0756	0.8491	0.5709	-0.032
Mof_C 	C 	0.09825	0.86891	0.4792	-0.218
Mof_H 	H 	0.0816	0.8845	0.4673	0.107
Mof_C 	C 	0.12658	0.86707	0.4357	0.14
Mof_H 	H 	0.1292	0.8816	0.3935	0.002
Mof_C 	C 	0.1515	0.84438	0.4523	-0.251
Mof_C 	C 	0.18112	0.84553	0.4042	0.298
Mof_C 	C 	0.25722	0.81025	0.3928	0.225
Mof_C 	C 	0.29019	0.81293	0.3554	-0.127
Mof_H 	H 	0.2911	0.834	0.3272	0.057
Mof_H 	H 	0.2922	0.795	0.3173	0.062
Mof_C 	C 	0.31886	0.8113	0.4077	-0.273
Mof_H 	H 	0.3164	0.7925	0.4423	0.11
Mof_H 	H 	0.339	0.8088	0.3776	0.099
Mof_H 	H 	0.3201	0.8316	0.4378	0.104
Mof_C 	C 	0.2666	0.81481	0.606	0.118
Mof_H 	H 	0.2747	0.7938	0.5914	-0.004
Mof_C 	C 	0.2867	0.835	0.6515	-0.201
Mof_H 	H 	0.3085	0.8289	0.6644	0.091
Mof_C 	C 	0.2727	0.86515	0.6772	0.178
Mof_C 	C 	0.2466	0.87413	0.645	-0.255
Mof_H 	H 	0.2389	0.8959	0.6526	0.11
Mof_C 	C 	0.2286	0.85311	0.5987	0.158
Mof_H 	H 	0.2087	0.8611	0.5775	-0.028
Mof_C 	C 	0.2896	0.88767	0.7356	-0.173
Mof_H 	H 	0.2725	0.8971	0.7693	0.077
Mof_H 	H 	0.2999	0.9061	0.7075	0.073
Mof_Mn	Mn	0.27956	0.63661	0.2238	1.05
Mof_O 	O 	0.2594	0.59895	0.18737	-0.43
Mof_O 	O 	0.19708	0.63482	0.36427	-0.384
Mof_O 	O 	0.29474	0.67659	0.27264	-0.387
Mof_N 	N 	0.24382	0.64396	0.29574	-0.247
Mof_N 	N 	0.24641	0.67336	0.3377	-0.191
Mof_N 	N 	0.35801	0.93982	0.9406	-0.204
Mof_C 	C 	0.23429	0.58224	0.2167	0.314
Mof_C 	C 	0.22775	0.5513	0.1854	-0.277
Mof_H 	H 	0.2411	0.5436	0.1446	0.133
Mof_C 	C 	0.20276	0.53183	0.2113	0.144
Mof_H 	H 	0.1992	0.5109	0.1889	-0.025
Mof_C 	C 	0.18231	0.54278	0.271	-0.203
Mof_H 	H 	0.165	0.5293	0.2898	0.107
Mof_C 	C 	0.18798	0.57335	0.3013	0.136
Mof_H 	H 	0.1738	0.5812	0.3406	0.011
Mof_C 	C 	0.21366	0.59338	0.2769	-0.242
Mof_C 	C 	0.21823	0.62525	0.314	0.299
Mof_C 	C 	0.27375	0.68813	0.3217	0.247
Mof_C 	C 	0.28283	0.71908	0.362	-0.183
Mof_H 	H 	0.2632	0.729	0.3861	0.081
Mof_H 	H 	0.2921	0.7351	0.3251	0.083
Mof_C 	C 	0.3104	0.7099	0.428	-0.259
Mof_H 	H 	0.3027	0.6911	0.4581	0.102
Mof_H 	H 	0.3135	0.7289	0.4619	0.099
Mof_H 	H 	0.3313	0.7044	0.4033	0.103
Mof_C 	C 	0.33492	0.91934	0.9636	0.116
Mof_H 	H 	0.3288	0.9192	0.0161	0.001
Mof_C 	C 	0.31916	0.89793	0.9132	-0.195
Mof_H 	H 	0.302	0.8841	0.931	0.103
Mof_C 	C 	0.3287	0.89695	0.8364	0.138
Mof_C 	C 	0.35188	0.91865	0.8146	-0.204
Mof_H 	H 	0.3586	0.9193	0.7626	0.091
Mof_C 	C 	0.36572	0.93955	0.8653	0.12
Mof_H 	H 	0.3816	0.9548	0.8472	-0.013
Mof_C 	C 	0.313	0.8733	0.7807	-0.136
Mof_H 	H 	0.3028	0.8551	0.8098	0.068
Mof_H 	H 	0.3303	0.8638	0.7476	0.06
Mof_Mn	Mn	0.79582	0.8242	0.42144	1.01
Mof_O 	O 	0.77079	0.84493	0.4964	-0.438
Mof_O 	O 	0.77751	0.74527	0.56565	-0.379
Mof_O 	O 	0.82031	0.79578	0.35258	-0.389
Mof_N 	N 	0.79019	0.78262	0.4736	-0.253
Mof_N 	N 	0.8059	0.75553	0.4361	-0.195
Mof_C 	C 	0.75513	0.83265	0.5543	0.32
Mof_C 	C 	0.73497	0.85414	0.599	-0.293
Mof_H 	H 	0.7313	0.8759	0.5811	0.132
Mof_C 	C 	0.7211	0.8449	0.6647	0.165
Mof_H 	H 	0.7081	0.8602	0.6922	-0.031
Mof_C 	C 	0.7252	0.8136	0.6938	-0.21
Mof_H 	H 	0.7158	0.8076	0.7416	0.105
Mof_C 	C 	0.7438	0.79066	0.6503	0.13
Mof_H 	H 	0.7463	0.7688	0.6685	0.001
Mof_C 	C 	0.75829	0.79985	0.5816	-0.25
Mof_C 	C 	0.776	0.77473	0.5389	0.301
Mof_C 	C 	0.82021	0.76529	0.3741	0.234
Mof_C 	C 	0.83749	0.74004	0.3255	-0.152
Mof_H 	H 	0.8503	0.7256	0.36	0.065
Mof_H 	H 	0.8206	0.7263	0.3005	0.075
Mof_C 	C 	0.8604	0.75268	0.2641	-0.25
Mof_H 	H 	0.876	0.7682	0.2868	0.1
Mof_H 	H 	0.8724	0.7342	0.2415	0.094
Mof_H 	H 	0.8476	0.7638	0.2243	0.099
Mof_Mn	Mn	0.78913	0.70912	0.49539	1.048
Mof_O 	O 	0.83059	0.69969	0.53507	-0.426
Mof_O 	O 	0.81744	0.63438	0.34786	-0.378
Mof_O 	O 	0.74693	0.71262	0.44429	-0.38
Mof_N 	N 	0.7937	0.67417	0.42073	-0.248
Mof_N 	N 	0.7655	0.66881	0.3755	-0.19
Mof_N 	N 	0.76291	0.67619	0.5826	-0.214
Mof_C 	C 	0.85236	0.67703	0.5139	0.319
Mof_C 	C 	0.88153	0.67542	0.5565	-0.28
Mof_H 	H 	0.885	0.6905	0.5973	0.131
Mof_C 	C 	0.90528	0.65222	0.5398	0.153
Mof_H 	H 	0.9244	0.6509	0.5709	-0.032
Mof_C 	C 	0.90175	0.63109	0.4792	-0.218
Mof_H 	H 	0.9184	0.6155	0.4673	0.107
Mof_C 	C 	0.87342	0.63293	0.4357	0.14
Mof_H 	H 	0.8708	0.6184	0.3935	0.002
Mof_C 	C 	0.8485	0.65562	0.4523	-0.251
Mof_C 	C 	0.81888	0.65447	0.4042	0.298
Mof_C 	C 	0.74278	0.68975	0.3928	0.225
Mof_C 	C 	0.70981	0.68707	0.3554	-0.127
Mof_H 	H 	0.7089	0.666	0.3272	0.057
Mof_H 	H 	0.7078	0.705	0.3173	0.062
Mof_C 	C 	0.68114	0.6887	0.4077	-0.273
Mof_H 	H 	0.6836	0.7075	0.4423	0.11
Mof_H 	H 	0.661	0.6912	0.3776	0.099
Mof_H 	H 	0.6799	0.6684	0.4378	0.104
Mof_C 	C 	0.7334	0.68519	0.606	0.118
Mof_H 	H 	0.7253	0.7062	0.5914	-0.004
Mof_C 	C 	0.7133	0.665	0.6515	-0.201
Mof_H 	H 	0.6915	0.6711	0.6644	0.091
Mof_C 	C 	0.7273	0.63485	0.6772	0.178
Mof_C 	C 	0.7534	0.62587	0.645	-0.255
Mof_H 	H 	0.7611	0.6041	0.6526	0.11
Mof_C 	C 	0.7714	0.64689	0.5987	0.158
Mof_H 	H 	0.7913	0.6389	0.5775	-0.028
Mof_C 	C 	0.7104	0.61233	0.7356	-0.173
Mof_H 	H 	0.7275	0.6029	0.7693	0.077
Mof_H 	H 	0.7001	0.5939	0.7075	0.073
Mof_Mn	Mn	0.72044	0.86339	0.2238	1.05
Mof_O 	O 	0.7406	0.90105	0.18737	-0.43
Mof_O 	O 	0.80292	0.86518	0.36427	-0.384
Mof_O 	O 	0.70526	0.82341	0.27264	-0.387
Mof_N 	N 	0.75618	0.85604	0.29574	-0.247
Mof_N 	N 	0.75359	0.82664	0.3377	-0.191
Mof_N 	N 	0.64199	0.56018	0.9406	-0.204
Mof_C 	C 	0.76571	0.91776	0.2167	0.314
Mof_C 	C 	0.77225	0.9487	0.1854	-0.277
Mof_H 	H 	0.7589	0.9564	0.1446	0.133
Mof_C 	C 	0.79724	0.96817	0.2113	0.144
Mof_H 	H 	0.8008	0.9891	0.1889	-0.025
Mof_C 	C 	0.81769	0.95722	0.271	-0.203
Mof_H 	H 	0.835	0.9707	0.2898	0.107
Mof_C 	C 	0.81202	0.92665	0.3013	0.136
Mof_H 	H 	0.8262	0.9188	0.3406	0.011
Mof_C 	C 	0.78634	0.90662	0.2769	-0.242
Mof_C 	C 	0.78177	0.87475	0.314	0.299
Mof_C 	C 	0.72625	0.81187	0.3217	0.247
Mof_C 	C 	0.71717	0.78092	0.362	-0.183
Mof_H 	H 	0.7368	0.771	0.3861	0.081
Mof_H 	H 	0.7079	0.7649	0.3251	0.083
Mof_C 	C 	0.6896	0.7901	0.428	-0.259
Mof_H 	H 	0.6973	0.8089	0.4581	0.102
Mof_H 	H 	0.6865	0.7711	0.4619	0.099
Mof_H 	H 	0.6687	0.7956	0.4033	0.103
Mof_C 	C 	0.66508	0.58066	0.9636	0.116
Mof_H 	H 	0.6712	0.5808	0.0161	0.001
Mof_C 	C 	0.68084	0.60207	0.9132	-0.195
Mof_H 	H 	0.698	0.6159	0.931	0.103
Mof_C 	C 	0.6713	0.60305	0.8364	0.138
Mof_C 	C 	0.64812	0.58135	0.8146	-0.204
Mof_H 	H 	0.6414	0.5807	0.7626	0.091
Mof_C 	C 	0.63428	0.56045	0.8653	0.12
Mof_H 	H 	0.6184	0.5452	0.8472	-0.013
Mof_C 	C 	0.687	0.6267	0.7807	-0.136
Mof_H 	H 	0.6972	0.6449	0.8098	0.068
Mof_H 	H 	0.6697	0.6362	0.7476	0.06
Mof_Mn	Mn	0.29582	0.3242	0.92144	1.01
Mof_O 	O 	0.27079	0.34493	0.9964	-0.439
Mof_O 	O 	0.27751	0.24527	0.06565	-0.379
Mof_O 	O 	0.32031	0.29578	0.85258	-0.389
Mof_N 	N 	0.29019	0.28262	0.9736	-0.253
Mof_N 	N 	0.3059	0.25553	0.9361	-0.195
Mof_C 	C 	0.25513	0.33265	0.0543	0.32
Mof_C 	C 	0.23497	0.35414	0.099	-0.294
Mof_H 	H 	0.2313	0.3759	0.0811	0.132
Mof_C 	C 	0.2211	0.3449	0.1647	0.165
Mof_H 	H 	0.2081	0.3602	0.1922	-0.031
Mof_C 	C 	0.2252	0.3136	0.1938	-0.21
Mof_H 	H 	0.2158	0.3076	0.2416	0.105
Mof_C 	C 	0.2438	0.29066	0.1503	0.13
Mof_H 	H 	0.2463	0.2688	0.1685	0.001
Mof_C 	C 	0.25829	0.29985	0.0816	-0.25
Mof_C 	C 	0.276	0.27473	0.0389	0.301
Mof_C 	C 	0.32021	0.26529	0.8741	0.234
Mof_C 	C 	0.33749	0.24004	0.8255	-0.152
Mof_H 	H 	0.3503	0.2256	0.86	0.065
Mof_H 	H 	0.3206	0.2263	0.8005	0.075
Mof_C 	C 	0.3604	0.25268	0.7641	-0.25
Mof_H 	H 	0.376	0.2682	0.7868	0.1
Mof_H 	H 	0.3724	0.2342	0.7415	0.094
Mof_H 	H 	0.3476	0.2638	0.7243	0.099
Mof_Mn	Mn	0.28913	0.20912	0.99539	1.047
Mof_O 	O 	0.33059	0.19969	0.03507	-0.426
Mof_O 	O 	0.31744	0.13438	0.84786	-0.378
Mof_O 	O 	0.24693	0.21262	0.94429	-0.38
Mof_N 	N 	0.2937	0.17417	0.92073	-0.248
Mof_N 	N 	0.2655	0.16881	0.8755	-0.19
Mof_N 	N 	0.26291	0.17619	0.0826	-0.214
Mof_C 	C 	0.35236	0.17703	0.0139	0.319
Mof_C 	C 	0.38153	0.17542	0.0565	-0.28
Mof_H 	H 	0.385	0.1905	0.0973	0.131
Mof_C 	C 	0.40528	0.15222	0.0398	0.153
Mof_H 	H 	0.4244	0.1509	0.0709	-0.032
Mof_C 	C 	0.40175	0.13109	0.9792	-0.218
Mof_H 	H 	0.4184	0.1155	0.9673	0.107
Mof_C 	C 	0.37342	0.13293	0.9357	0.14
Mof_H 	H 	0.3708	0.1184	0.8935	0.002
Mof_C 	C 	0.3485	0.15562	0.9523	-0.251
Mof_C 	C 	0.31888	0.15447	0.9042	0.298
Mof_C 	C 	0.24278	0.18975	0.8928	0.225
Mof_C 	C 	0.20981	0.18707	0.8554	-0.127
Mof_H 	H 	0.2089	0.166	0.8272	0.057
Mof_H 	H 	0.2078	0.205	0.8173	0.062
Mof_C 	C 	0.18114	0.1887	0.9077	-0.273
Mof_H 	H 	0.1836	0.2075	0.9423	0.11
Mof_H 	H 	0.161	0.1912	0.8776	0.099
Mof_H 	H 	0.1799	0.1684	0.9378	0.104
Mof_C 	C 	0.2334	0.18519	0.106	0.118
Mof_H 	H 	0.2253	0.2062	0.0914	-0.004
Mof_C 	C 	0.2133	0.165	0.1515	-0.201
Mof_H 	H 	0.1915	0.1711	0.1644	0.092
Mof_C 	C 	0.2273	0.13485	0.1772	0.178
Mof_C 	C 	0.2534	0.12587	0.145	-0.255
Mof_H 	H 	0.2611	0.1041	0.1526	0.11
Mof_C 	C 	0.2714	0.14689	0.0987	0.158
Mof_H 	H 	0.2913	0.1389	0.0775	-0.028
Mof_C 	C 	0.2104	0.11233	0.2356	-0.173
Mof_H 	H 	0.2275	0.1029	0.2693	0.077
Mof_H 	H 	0.2001	0.0939	0.2075	0.073
Mof_Mn	Mn	0.22044	0.36339	0.7238	1.05
Mof_O 	O 	0.2406	0.40105	0.68737	-0.43
Mof_O 	O 	0.30292	0.36518	0.86427	-0.384
Mof_O 	O 	0.20526	0.32341	0.77264	-0.387
Mof_N 	N 	0.25618	0.35604	0.79574	-0.247
Mof_N 	N 	0.25359	0.32664	0.8377	-0.191
Mof_N 	N 	0.14199	0.06018	0.4406	-0.204
Mof_C 	C 	0.26571	0.41776	0.7167	0.314
Mof_C 	C 	0.27225	0.4487	0.6854	-0.277
Mof_H 	H 	0.2589	0.4564	0.6446	0.133
Mof_C 	C 	0.29724	0.46817	0.7113	0.144
Mof_H 	H 	0.3008	0.4891	0.6889	-0.025
Mof_C 	C 	0.31769	0.45722	0.771	-0.203
Mof_H 	H 	0.335	0.4707	0.7898	0.107
Mof_C 	C 	0.31202	0.42665	0.8013	0.136
Mof_H 	H 	0.3262	0.4188	0.8406	0.011
Mof_C 	C 	0.28634	0.40662	0.7769	-0.242
Mof_C 	C 	0.28177	0.37475	0.814	0.299
Mof_C 	C 	0.22625	0.31187	0.8217	0.247
Mof_C 	C 	0.21717	0.28092	0.862	-0.183
Mof_H 	H 	0.2368	0.271	0.8861	0.081
Mof_H 	H 	0.2079	0.2649	0.8251	0.083
Mof_C 	C 	0.1896	0.2901	0.928	-0.259
Mof_H 	H 	0.1973	0.3089	0.9581	0.102
Mof_H 	H 	0.1865	0.2711	0.9619	0.099
Mof_H 	H 	0.1687	0.2956	0.9033	0.103
Mof_C 	C 	0.16508	0.08066	0.4636	0.116
Mof_H 	H 	0.1712	0.0808	0.5161	0.001
Mof_C 	C 	0.18084	0.10207	0.4132	-0.195
Mof_H 	H 	0.198	0.1159	0.431	0.103
Mof_C 	C 	0.1713	0.10305	0.3364	0.138
Mof_C 	C 	0.14812	0.08135	0.3146	-0.204
Mof_H 	H 	0.1414	0.0807	0.2626	0.091
Mof_C 	C 	0.13428	0.06045	0.3653	0.12
Mof_H 	H 	0.1184	0.0452	0.3472	-0.013
Mof_C 	C 	0.187	0.1267	0.2807	-0.136
Mof_H 	H 	0.1972	0.1449	0.3098	0.068
Mof_H 	H 	0.1697	0.1362	0.2476	0.06
Mof_Mn	Mn	0.0742	0.45418	0.67144	1.01
Mof_O 	O 	0.09493	0.47921	0.7464	-0.438
Mof_O 	O 	0.99527	0.47249	0.81565	-0.379
Mof_O 	O 	0.04578	0.42969	0.60258	-0.389
Mof_N 	N 	0.03262	0.45981	0.7236	-0.253
Mof_N 	N 	0.00553	0.4441	0.6861	-0.195
Mof_C 	C 	0.08265	0.49487	0.8043	0.32
Mof_C 	C 	0.10414	0.51503	0.849	-0.293
Mof_H 	H 	0.1259	0.5187	0.8311	0.132
Mof_C 	C 	0.0949	0.5289	0.9147	0.165
Mof_H 	H 	0.1102	0.5419	0.9422	-0.031
Mof_C 	C 	0.0636	0.5248	0.9438	-0.21
Mof_H 	H 	0.0576	0.5342	0.9916	0.105
Mof_C 	C 	0.04066	0.5062	0.9003	0.13
Mof_H 	H 	0.0188	0.5037	0.9185	0.001
Mof_C 	C 	0.04985	0.49171	0.8316	-0.25
Mof_C 	C 	0.02473	0.474	0.7889	0.301
Mof_C 	C 	0.01529	0.42979	0.6241	0.234
Mof_C 	C 	0.99004	0.41251	0.5755	-0.152
Mof_H 	H 	0.9756	0.3997	0.61	0.065
Mof_H 	H 	0.9763	0.4294	0.5505	0.075
Mof_C 	C 	0.00268	0.3896	0.5141	-0.25
Mof_H 	H 	0.0182	0.374	0.5368	0.1
Mof_H 	H 	0.9842	0.3776	0.4915	0.094
Mof_H 	H 	0.0138	0.4024	0.4743	0.099
Mof_Mn	Mn	0.95912	0.46087	0.74539	1.048
Mof_O 	O 	0.94969	0.41941	0.78507	-0.426
Mof_O 	O 	0.88438	0.43256	0.59786	-0.378
Mof_O 	O 	0.96262	0.50307	0.69429	-0.38
Mof_N 	N 	0.92417	0.4563	0.67073	-0.248
Mof_N 	N 	0.91881	0.4845	0.6255	-0.19
Mof_N 	N 	0.92619	0.48709	0.8326	-0.214
Mof_C 	C 	0.92703	0.39764	0.7639	0.319
Mof_C 	C 	0.92542	0.36847	0.8065	-0.28
Mof_H 	H 	0.9405	0.365	0.8473	0.131
Mof_C 	C 	0.90222	0.34472	0.7898	0.153
Mof_H 	H 	0.9009	0.3256	0.8209	-0.032
Mof_C 	C 	0.88109	0.34825	0.7292	-0.218
Mof_H 	H 	0.8655	0.3316	0.7173	0.107
Mof_C 	C 	0.88293	0.37658	0.6857	0.14
Mof_H 	H 	0.8684	0.3792	0.6435	0.002
Mof_C 	C 	0.90562	0.4015	0.7023	-0.251
Mof_C 	C 	0.90447	0.43112	0.6542	0.298
Mof_C 	C 	0.93975	0.50722	0.6428	0.225
Mof_C 	C 	0.93707	0.54019	0.6054	-0.127
Mof_H 	H 	0.916	0.5411	0.5772	0.057
Mof_H 	H 	0.955	0.5422	0.5673	0.062
Mof_C 	C 	0.9387	0.56886	0.6577	-0.273
Mof_H 	H 	0.9575	0.5664	0.6923	0.11
Mof_H 	H 	0.9412	0.589	0.6276	0.099
Mof_H 	H 	0.9184	0.5701	0.6878	0.104
Mof_C 	C 	0.93519	0.5166	0.856	0.117
Mof_H 	H 	0.9562	0.5247	0.8414	-0.004
Mof_C 	C 	0.915	0.5367	0.9015	-0.201
Mof_H 	H 	0.9211	0.5585	0.9144	0.091
Mof_C 	C 	0.88485	0.5227	0.9272	0.177
Mof_C 	C 	0.87587	0.4966	0.895	-0.255
Mof_H 	H 	0.8541	0.4889	0.9026	0.11
Mof_C 	C 	0.89689	0.4786	0.8487	0.158
Mof_H 	H 	0.8889	0.4587	0.8275	-0.028
Mof_C 	C 	0.86233	0.5396	0.9856	-0.172
Mof_H 	H 	0.8529	0.5225	0.0193	0.077
Mof_H 	H 	0.8439	0.5499	0.9575	0.073
Mof_Mn	Mn	0.11339	0.52956	0.4738	1.05
Mof_O 	O 	0.15105	0.5094	0.43737	-0.43
Mof_O 	O 	0.11518	0.44708	0.61427	-0.384
Mof_O 	O 	0.07341	0.54474	0.52264	-0.387
Mof_N 	N 	0.10604	0.49382	0.54574	-0.247
Mof_N 	N 	0.07664	0.49641	0.5877	-0.191
Mof_N 	N 	0.81018	0.60801	0.1906	-0.204
Mof_C 	C 	0.16776	0.48429	0.4667	0.314
Mof_C 	C 	0.1987	0.47775	0.4354	-0.277
Mof_H 	H 	0.2064	0.4911	0.3946	0.133
Mof_C 	C 	0.21817	0.45276	0.4613	0.144
Mof_H 	H 	0.2391	0.4492	0.4389	-0.025
Mof_C 	C 	0.20722	0.43231	0.521	-0.203
Mof_H 	H 	0.2207	0.415	0.5398	0.107
Mof_C 	C 	0.17665	0.43798	0.5513	0.136
Mof_H 	H 	0.1688	0.4238	0.5906	0.011
Mof_C 	C 	0.15662	0.46366	0.5269	-0.242
Mof_C 	C 	0.12475	0.46823	0.564	0.299
Mof_C 	C 	0.06187	0.52375	0.5717	0.247
Mof_C 	C 	0.03092	0.53283	0.612	-0.183
Mof_H 	H 	0.021	0.5132	0.6361	0.081
Mof_H 	H 	0.0149	0.5421	0.5751	0.083
Mof_C 	C 	0.0401	0.5604	0.678	-0.26
Mof_H 	H 	0.0589	0.5527	0.7081	0.102
Mof_H 	H 	0.0211	0.5635	0.7119	0.099
Mof_H 	H 	0.0456	0.5813	0.6533	0.103
Mof_C 	C 	0.83066	0.58492	0.2136	0.116
Mof_H 	H 	0.8308	0.5788	0.2661	0.001
Mof_C 	C 	0.85207	0.56916	0.1632	-0.195
Mof_H 	H 	0.8659	0.552	0.181	0.103
Mof_C 	C 	0.85305	0.5787	0.0864	0.139
Mof_C 	C 	0.83135	0.60188	0.0646	-0.204
Mof_H 	H 	0.8307	0.6086	0.0126	0.091
Mof_C 	C 	0.81045	0.61572	0.1153	0.12
Mof_H 	H 	0.7952	0.6316	0.0972	-0.013
Mof_C 	C 	0.8767	0.563	0.0307	-0.137
Mof_H 	H 	0.8949	0.5528	0.0598	0.068
Mof_H 	H 	0.8862	0.5803	0.9976	0.06
Mof_Mn	Mn	0.5742	0.95418	0.17144	1.01
Mof_O 	O 	0.59493	0.97921	0.2464	-0.438
Mof_O 	O 	0.49527	0.97249	0.31565	-0.379
Mof_O 	O 	0.54578	0.92969	0.10258	-0.389
Mof_N 	N 	0.53262	0.95981	0.2236	-0.253
Mof_N 	N 	0.50553	0.9441	0.1861	-0.195
Mof_C 	C 	0.58265	0.99487	0.3043	0.32
Mof_C 	C 	0.60414	0.01503	0.349	-0.293
Mof_H 	H 	0.6259	0.0187	0.3311	0.132
Mof_C 	C 	0.5949	0.0289	0.4147	0.165
Mof_H 	H 	0.6102	0.0419	0.4422	-0.031
Mof_C 	C 	0.5636	0.0248	0.4438	-0.21
Mof_H 	H 	0.5576	0.0342	0.4916	0.105
Mof_C 	C 	0.54066	0.0062	0.4003	0.13
Mof_H 	H 	0.5188	0.0037	0.4185	0.001
Mof_C 	C 	0.54985	0.99171	0.3316	-0.25
Mof_C 	C 	0.52473	0.974	0.2889	0.301
Mof_C 	C 	0.51529	0.92979	0.1241	0.234
Mof_C 	C 	0.49004	0.91251	0.0755	-0.152
Mof_H 	H 	0.4756	0.8997	0.11	0.065
Mof_H 	H 	0.4763	0.9294	0.0505	0.075
Mof_C 	C 	0.50268	0.8896	0.0141	-0.251
Mof_H 	H 	0.5182	0.874	0.0368	0.101
Mof_H 	H 	0.4842	0.8776	0.9915	0.094
Mof_H 	H 	0.5138	0.9024	0.9743	0.099
Mof_Mn	Mn	0.45912	0.96087	0.24539	1.048
Mof_O 	O 	0.44969	0.91941	0.28507	-0.426
Mof_O 	O 	0.38438	0.93256	0.09786	-0.378
Mof_O 	O 	0.46262	0.00307	0.19429	-0.38
Mof_N 	N 	0.42417	0.9563	0.17073	-0.248
Mof_N 	N 	0.41881	0.9845	0.1255	-0.19
Mof_N 	N 	0.42619	0.98709	0.3326	-0.214
Mof_C 	C 	0.42703	0.89764	0.2639	0.319
Mof_C 	C 	0.42542	0.86847	0.3065	-0.28
Mof_H 	H 	0.4405	0.865	0.3473	0.131
Mof_C 	C 	0.40222	0.84472	0.2898	0.153
Mof_H 	H 	0.4009	0.8256	0.3209	-0.032
Mof_C 	C 	0.38109	0.84825	0.2292	-0.218
Mof_H 	H 	0.3655	0.8316	0.2173	0.107
Mof_C 	C 	0.38293	0.87658	0.1857	0.14
Mof_H 	H 	0.3684	0.8792	0.1435	0.002
Mof_C 	C 	0.40562	0.9015	0.2023	-0.251
Mof_C 	C 	0.40447	0.93112	0.1542	0.298
Mof_C 	C 	0.43975	0.00722	0.1428	0.225
Mof_C 	C 	0.43707	0.04019	0.1054	-0.127
Mof_H 	H 	0.416	0.0411	0.0772	0.057
Mof_H 	H 	0.455	0.0422	0.0673	0.062
Mof_C 	C 	0.4387	0.06886	0.1577	-0.273
Mof_H 	H 	0.4575	0.0664	0.1923	0.11
Mof_H 	H 	0.4412	0.089	0.1276	0.099
Mof_H 	H 	0.4184	0.0701	0.1878	0.104
Mof_C 	C 	0.43519	0.0166	0.356	0.118
Mof_H 	H 	0.4562	0.0247	0.3414	-0.004
Mof_C 	C 	0.415	0.0367	0.4015	-0.201
Mof_H 	H 	0.4211	0.0585	0.4144	0.091
Mof_C 	C 	0.38485	0.0227	0.4272	0.178
Mof_C 	C 	0.37587	0.9966	0.395	-0.255
Mof_H 	H 	0.3541	0.9889	0.4026	0.11
Mof_C 	C 	0.39689	0.9786	0.3487	0.158
Mof_H 	H 	0.3889	0.9587	0.3275	-0.028
Mof_C 	C 	0.36233	0.0396	0.4856	-0.173
Mof_H 	H 	0.3529	0.0225	0.5193	0.077
Mof_H 	H 	0.3439	0.0499	0.4575	0.073
Mof_Mn	Mn	0.61339	0.02956	0.9738	1.05
Mof_O 	O 	0.65105	0.0094	0.93737	-0.43
Mof_O 	O 	0.61518	0.94708	0.11427	-0.384
Mof_O 	O 	0.57341	0.04474	0.02264	-0.387
Mof_N 	N 	0.60604	0.99382	0.04574	-0.247
Mof_N 	N 	0.57664	0.99641	0.0877	-0.191
Mof_N 	N 	0.31018	0.10801	0.6906	-0.204
Mof_C 	C 	0.66776	0.98429	0.9667	0.314
Mof_C 	C 	0.6987	0.97775	0.9354	-0.277
Mof_H 	H 	0.7064	0.9911	0.8946	0.133
Mof_C 	C 	0.71817	0.95276	0.9613	0.144
Mof_H 	H 	0.7391	0.9492	0.9389	-0.025
Mof_C 	C 	0.70722	0.93231	0.021	-0.202
Mof_H 	H 	0.7207	0.915	0.0398	0.107
Mof_C 	C 	0.67665	0.93798	0.0513	0.135
Mof_H 	H 	0.6688	0.9238	0.0906	0.011
Mof_C 	C 	0.65662	0.96366	0.0269	-0.242
Mof_C 	C 	0.62475	0.96823	0.064	0.299
Mof_C 	C 	0.56187	0.02375	0.0717	0.247
Mof_C 	C 	0.53092	0.03283	0.112	-0.183
Mof_H 	H 	0.521	0.0132	0.1361	0.081
Mof_H 	H 	0.5149	0.0421	0.0751	0.083
Mof_C 	C 	0.5401	0.0604	0.178	-0.26
Mof_H 	H 	0.5589	0.0527	0.2081	0.102
Mof_H 	H 	0.5211	0.0635	0.2119	0.099
Mof_H 	H 	0.5456	0.0813	0.1533	0.103
Mof_C 	C 	0.33066	0.08492	0.7136	0.116
Mof_H 	H 	0.3308	0.0788	0.7661	0.001
Mof_C 	C 	0.35207	0.06916	0.6632	-0.195
Mof_H 	H 	0.3659	0.052	0.681	0.103
Mof_C 	C 	0.35305	0.0787	0.5864	0.138
Mof_C 	C 	0.33135	0.10188	0.5646	-0.204
Mof_H 	H 	0.3307	0.1086	0.5126	0.091
Mof_C 	C 	0.31045	0.11572	0.6153	0.12
Mof_H 	H 	0.2952	0.1316	0.5972	-0.012
Mof_C 	C 	0.3767	0.063	0.5307	-0.136
Mof_H 	H 	0.3949	0.0528	0.5598	0.068
Mof_H 	H 	0.3862	0.0803	0.4976	0.06
Mof_Mn	Mn	0.4258	0.54582	0.17144	1.01
Mof_O 	O 	0.40507	0.52079	0.2464	-0.438
Mof_O 	O 	0.50473	0.52751	0.31565	-0.379
Mof_O 	O 	0.45422	0.57031	0.10258	-0.389
Mof_N 	N 	0.46738	0.54019	0.2236	-0.253
Mof_N 	N 	0.49447	0.5559	0.1861	-0.195
Mof_C 	C 	0.41735	0.50513	0.3043	0.32
Mof_C 	C 	0.39586	0.48497	0.349	-0.293
Mof_H 	H 	0.3741	0.4813	0.3311	0.132
Mof_C 	C 	0.4051	0.4711	0.4147	0.165
Mof_H 	H 	0.3898	0.4581	0.4422	-0.031
Mof_C 	C 	0.4364	0.4752	0.4438	-0.21
Mof_H 	H 	0.4424	0.4658	0.4916	0.105
Mof_C 	C 	0.45934	0.4938	0.4003	0.13
Mof_H 	H 	0.4812	0.4963	0.4185	0.001
Mof_C 	C 	0.45015	0.50829	0.3316	-0.25
Mof_C 	C 	0.47527	0.526	0.2889	0.301
Mof_C 	C 	0.48471	0.57021	0.1241	0.234
Mof_C 	C 	0.50996	0.58749	0.0755	-0.152
Mof_H 	H 	0.5244	0.6003	0.11	0.065
Mof_H 	H 	0.5237	0.5706	0.0505	0.074
Mof_C 	C 	0.49732	0.6104	0.0141	-0.251
Mof_H 	H 	0.4818	0.626	0.0368	0.101
Mof_H 	H 	0.5158	0.6224	0.9915	0.094
Mof_H 	H 	0.4862	0.5976	0.9743	0.099
Mof_Mn	Mn	0.54088	0.53913	0.24539	1.048
Mof_O 	O 	0.55031	0.58059	0.28507	-0.426
Mof_O 	O 	0.61562	0.56744	0.09786	-0.378
Mof_O 	O 	0.53738	0.49693	0.19429	-0.38
Mof_N 	N 	0.57583	0.5437	0.17073	-0.248
Mof_N 	N 	0.58119	0.5155	0.1255	-0.19
Mof_N 	N 	0.57381	0.51291	0.3326	-0.214
Mof_C 	C 	0.57297	0.60236	0.2639	0.319
Mof_C 	C 	0.57458	0.63153	0.3065	-0.28
Mof_H 	H 	0.5595	0.635	0.3473	0.131
Mof_C 	C 	0.59778	0.65528	0.2898	0.153
Mof_H 	H 	0.5991	0.6744	0.3209	-0.032
Mof_C 	C 	0.61891	0.65175	0.2292	-0.218
Mof_H 	H 	0.6345	0.6684	0.2173	0.107
Mof_C 	C 	0.61707	0.62342	0.1857	0.14
Mof_H 	H 	0.6316	0.6208	0.1435	0.002
Mof_C 	C 	0.59438	0.5985	0.2023	-0.251
Mof_C 	C 	0.59553	0.56888	0.1542	0.298
Mof_C 	C 	0.56025	0.49278	0.1428	0.225
Mof_C 	C 	0.56293	0.45981	0.1054	-0.127
Mof_H 	H 	0.584	0.4589	0.0772	0.057
Mof_H 	H 	0.545	0.4578	0.0673	0.062
Mof_C 	C 	0.5613	0.43114	0.1577	-0.273
Mof_H 	H 	0.5425	0.4336	0.1923	0.11
Mof_H 	H 	0.5588	0.411	0.1276	0.099
Mof_H 	H 	0.5816	0.4299	0.1878	0.104
Mof_C 	C 	0.56481	0.4834	0.356	0.118
Mof_H 	H 	0.5438	0.4753	0.3414	-0.004
Mof_C 	C 	0.585	0.4633	0.4015	-0.201
Mof_H 	H 	0.5789	0.4415	0.4144	0.091
Mof_C 	C 	0.61515	0.4773	0.4272	0.178
Mof_C 	C 	0.62413	0.5034	0.395	-0.255
Mof_H 	H 	0.6459	0.5111	0.4026	0.11
Mof_C 	C 	0.60311	0.5214	0.3487	0.158
Mof_H 	H 	0.6111	0.5413	0.3275	-0.028
Mof_C 	C 	0.63767	0.4604	0.4856	-0.173
Mof_H 	H 	0.6471	0.4775	0.5193	0.077
Mof_H 	H 	0.6561	0.4501	0.4575	0.073
Mof_Mn	Mn	0.38661	0.47044	0.9738	1.05
Mof_O 	O 	0.34895	0.4906	0.93737	-0.43
Mof_O 	O 	0.38482	0.55292	0.11427	-0.384
Mof_O 	O 	0.42659	0.45526	0.02264	-0.387
Mof_N 	N 	0.39396	0.50618	0.04574	-0.247
Mof_N 	N 	0.42336	0.50359	0.0877	-0.191
Mof_N 	N 	0.68982	0.39199	0.6906	-0.204
Mof_C 	C 	0.33224	0.51571	0.9667	0.314
Mof_C 	C 	0.3013	0.52225	0.9354	-0.277
Mof_H 	H 	0.2936	0.5089	0.8946	0.133
Mof_C 	C 	0.28183	0.54724	0.9613	0.144
Mof_H 	H 	0.2609	0.5508	0.9389	-0.025
Mof_C 	C 	0.29278	0.56769	0.021	-0.203
Mof_H 	H 	0.2793	0.585	0.0398	0.107
Mof_C 	C 	0.32335	0.56202	0.0513	0.136
Mof_H 	H 	0.3312	0.5762	0.0906	0.011
Mof_C 	C 	0.34338	0.53634	0.0269	-0.242
Mof_C 	C 	0.37525	0.53177	0.064	0.299
Mof_C 	C 	0.43813	0.47625	0.0717	0.247
Mof_C 	C 	0.46908	0.46717	0.112	-0.183
Mof_H 	H 	0.479	0.4868	0.1361	0.081
Mof_H 	H 	0.4851	0.4579	0.0751	0.083
Mof_C 	C 	0.4599	0.4396	0.178	-0.26
Mof_H 	H 	0.4411	0.4473	0.2081	0.102
Mof_H 	H 	0.4789	0.4365	0.2119	0.099
Mof_H 	H 	0.4544	0.4187	0.1533	0.103
Mof_C 	C 	0.66934	0.41508	0.7136	0.116
Mof_H 	H 	0.6692	0.4212	0.7661	0.001
Mof_C 	C 	0.64793	0.43084	0.6632	-0.195
Mof_H 	H 	0.6341	0.448	0.681	0.103
Mof_C 	C 	0.64695	0.4213	0.5864	0.138
Mof_C 	C 	0.66865	0.39812	0.5646	-0.204
Mof_H 	H 	0.6693	0.3914	0.5126	0.091
Mof_C 	C 	0.68955	0.38428	0.6153	0.12
Mof_H 	H 	0.7048	0.3684	0.5972	-0.012
Mof_C 	C 	0.6233	0.437	0.5307	-0.136
Mof_H 	H 	0.6051	0.4472	0.5598	0.068
Mof_H 	H 	0.6138	0.4197	0.4976	0.06
Mof_Mn	Mn	0.9258	0.04582	0.67144	1.01
Mof_O 	O 	0.90507	0.02079	0.7464	-0.438
Mof_O 	O 	0.00473	0.02751	0.81565	-0.379
Mof_O 	O 	0.95422	0.07031	0.60258	-0.389
Mof_N 	N 	0.96738	0.04019	0.7236	-0.253
Mof_N 	N 	0.99447	0.0559	0.6861	-0.195
Mof_C 	C 	0.91735	0.00513	0.8043	0.32
Mof_C 	C 	0.89586	0.98497	0.849	-0.293
Mof_H 	H 	0.8741	0.9813	0.8311	0.132
Mof_C 	C 	0.9051	0.9711	0.9147	0.165
Mof_H 	H 	0.8898	0.9581	0.9422	-0.031
Mof_C 	C 	0.9364	0.9752	0.9438	-0.21
Mof_H 	H 	0.9424	0.9658	0.9916	0.105
Mof_C 	C 	0.95934	0.9938	0.9003	0.13
Mof_H 	H 	0.9812	0.9963	0.9185	0.001
Mof_C 	C 	0.95015	0.00829	0.8316	-0.25
Mof_C 	C 	0.97527	0.026	0.7889	0.301
Mof_C 	C 	0.98471	0.07021	0.6241	0.234
Mof_C 	C 	0.00996	0.08749	0.5755	-0.152
Mof_H 	H 	0.0244	0.1003	0.61	0.065
Mof_H 	H 	0.0237	0.0706	0.5505	0.075
Mof_C 	C 	0.99732	0.1104	0.5141	-0.25
Mof_H 	H 	0.9818	0.126	0.5368	0.1
Mof_H 	H 	0.0158	0.1224	0.4915	0.094
Mof_H 	H 	0.9862	0.0976	0.4743	0.099
Mof_Mn	Mn	0.04088	0.03913	0.74539	1.048
Mof_O 	O 	0.05031	0.08059	0.78507	-0.426
Mof_O 	O 	0.11562	0.06744	0.59786	-0.378
Mof_O 	O 	0.03738	0.99693	0.69429	-0.38
Mof_N 	N 	0.07583	0.0437	0.67073	-0.248
Mof_N 	N 	0.08119	0.0155	0.6255	-0.19
Mof_N 	N 	0.07381	0.01291	0.8326	-0.214
Mof_C 	C 	0.07297	0.10236	0.7639	0.319
Mof_C 	C 	0.07458	0.13153	0.8065	-0.28
Mof_H 	H 	0.0595	0.135	0.8473	0.131
Mof_C 	C 	0.09778	0.15528	0.7898	0.153
Mof_H 	H 	0.0991	0.1744	0.8209	-0.032
Mof_C 	C 	0.11891	0.15175	0.7292	-0.218
Mof_H 	H 	0.1345	0.1684	0.7173	0.107
Mof_C 	C 	0.11707	0.12342	0.6857	0.14
Mof_H 	H 	0.1316	0.1208	0.6435	0.002
Mof_C 	C 	0.09438	0.0985	0.7023	-0.251
Mof_C 	C 	0.09553	0.06888	0.6542	0.298
Mof_C 	C 	0.06025	0.99278	0.6428	0.225
Mof_C 	C 	0.06293	0.95981	0.6054	-0.127
Mof_H 	H 	0.084	0.9589	0.5772	0.057
Mof_H 	H 	0.045	0.9578	0.5673	0.062
Mof_C 	C 	0.0613	0.93114	0.6577	-0.273
Mof_H 	H 	0.0425	0.9336	0.6923	0.11
Mof_H 	H 	0.0588	0.911	0.6276	0.099
Mof_H 	H 	0.0816	0.9299	0.6878	0.104
Mof_C 	C 	0.06481	0.9834	0.856	0.117
Mof_H 	H 	0.0438	0.9753	0.8414	-0.004
Mof_C 	C 	0.085	0.9633	0.9015	-0.201
Mof_H 	H 	0.0789	0.9415	0.9144	0.091
Mof_C 	C 	0.11515	0.9773	0.9272	0.177
Mof_C 	C 	0.12413	0.0034	0.895	-0.255
Mof_H 	H 	0.1459	0.0111	0.9026	0.11
Mof_C 	C 	0.10311	0.0214	0.8487	0.158
Mof_H 	H 	0.1111	0.0413	0.8275	-0.028
Mof_C 	C 	0.13767	0.9604	0.9856	-0.172
Mof_H 	H 	0.1471	0.9775	0.0193	0.077
Mof_H 	H 	0.1561	0.9501	0.9575	0.073
Mof_Mn	Mn	0.88661	0.97044	0.4738	1.05
Mof_O 	O 	0.84895	0.9906	0.43737	-0.43
Mof_O 	O 	0.88482	0.05292	0.61427	-0.384
Mof_O 	O 	0.92659	0.95526	0.52264	-0.387
Mof_N 	N 	0.89396	0.00618	0.54574	-0.247
Mof_N 	N 	0.92336	0.00359	0.5877	-0.191
Mof_N 	N 	0.18982	0.89199	0.1906	-0.204
Mof_C 	C 	0.83224	0.01571	0.4667	0.314
Mof_C 	C 	0.8013	0.02225	0.4354	-0.277
Mof_H 	H 	0.7936	0.0089	0.3946	0.133
Mof_C 	C 	0.78183	0.04724	0.4613	0.144
Mof_H 	H 	0.7609	0.0508	0.4389	-0.025
Mof_C 	C 	0.79278	0.06769	0.521	-0.203
Mof_H 	H 	0.7793	0.085	0.5398	0.107
Mof_C 	C 	0.82335	0.06202	0.5513	0.136
Mof_H 	H 	0.8312	0.0762	0.5906	0.011
Mof_C 	C 	0.84338	0.03634	0.5269	-0.242
Mof_C 	C 	0.87525	0.03177	0.564	0.299
Mof_C 	C 	0.93813	0.97625	0.5717	0.247
Mof_C 	C 	0.96908	0.96717	0.612	-0.183
Mof_H 	H 	0.979	0.9868	0.6361	0.081
Mof_H 	H 	0.9851	0.9579	0.5751	0.083
Mof_C 	C 	0.9599	0.9396	0.678	-0.26
Mof_H 	H 	0.9411	0.9473	0.7081	0.102
Mof_H 	H 	0.9789	0.9365	0.7119	0.099
Mof_H 	H 	0.9544	0.9187	0.6533	0.103
Mof_C 	C 	0.16934	0.91508	0.2136	0.116
Mof_H 	H 	0.1692	0.9212	0.2661	0.001
Mof_C 	C 	0.14793	0.93084	0.1632	-0.195
Mof_H 	H 	0.1341	0.948	0.181	0.103
Mof_C 	C 	0.14695	0.9213	0.0864	0.138
Mof_C 	C 	0.16865	0.89812	0.0646	-0.204
Mof_H 	H 	0.1693	0.8914	0.0126	0.091
Mof_C 	C 	0.18955	0.88428	0.1153	0.12
Mof_H 	H 	0.2048	0.8684	0.0972	-0.013
Mof_C 	C 	0.1233	0.937	0.0307	-0.137
Mof_H 	H 	0.1051	0.9472	0.0598	0.068
Mof_H 	H 	0.1138	0.9197	0.9976	0.06
_end
