data_functionalizedCrystal
_audit_creation_method	'EQeq! by Chris Wilmer'
_symmetry_space_group_name_H-M	'P1'
_symmetry_Int_Tables_number	1
_symmetry_cell_setting	triclinic
loop_
_symmetry_equiv_pos_as_xyz
  x,y,z
_cell_length_a	29.313
_cell_length_b	11.935
_cell_length_c	22.254
_cell_angle_alpha	90
_cell_angle_beta	114.98
_cell_angle_gamma	90
loop_
_atom_site_label
_atom_site_type_symbol
_atom_site_fract_x
_atom_site_fract_y
_atom_site_fract_z
_atom_site_charge
Mof_N 	N 	0.01318	0.1653	0.98801	-0.229
Mof_H 	H 	0.0133	0.1727	0.9433	0.09
Mof_N 	N 	0.07291	0.95114	0.02323	-0.25
Mof_H 	H 	0.0765	0.9409	0.9808	0.127
Mof_N 	N 	0.1043	0.14555	0.03688	-0.095
Mof_C 	C 	0.96869	0.22728	0.98584	0.038
Mof_H 	H 	0.9667	0.3018	0.9653	0.024
Mof_H 	H 	0.9714	0.2384	0.0313	-0.006
Mof_C 	C 	0.06208	0.20709	0.03692	-0.064
Mof_H 	H 	0.0656	0.2869	0.0274	0.026
Mof_H 	H 	0.0627	0.2028	0.0817	0.043
Mof_C 	C 	0.11129	0.03448	0.06447	-0.052
Mof_H 	H 	0.1107	0.0386	0.1086	0.042
Mof_H 	H 	0.145	0.0073	0.0711	0.039
Mof_C 	C 	0.07803	0.84065	0.05473	-0.042
Mof_H 	H 	0.0815	0.8494	0.1007	0.039
Mof_H 	H 	0.1084	0.802	0.0562	0.038
Mof_C 	C 	0.11256	0.1589	0.97633	-0.223
Mof_H 	H 	0.0898	0.2178	0.9482	0.107
Mof_H 	H 	0.104	0.0878	0.951	0.103
Mof_C 	C 	0.16635	0.1899	0.99156	0.376
Mof_H 	H 	0.1894	0.1327	0.0212	-0.116
Mof_H 	H 	0.1746	0.2628	0.0149	-0.105
Mof_C 	C 	0.1741	0.1978	0.92788	-0.679
Mof_H 	H 	0.1717	0.1229	0.9088	0.219
Mof_H 	H 	0.2074	0.2295	0.938	0.224
Mof_H 	H 	0.1481	0.2463	0.896	0.22
Mof_N 	N 	0.20985	0.27679	0.55502	-0.228
Mof_H 	H 	0.1748	0.2492	0.5286	0.093
Mof_N 	N 	0.2195	0.3919	0.4495	-0.166
Mof_H 	H 	0.185	0.3737	0.415	-0.21
Mof_N 	N 	0.18528	0.4537	0.5274	-0.001
Mof_C 	C 	0.2509	0.4247	0.4154	-0.09
Mof_H 	H 	0.2822	0.461	0.447	0.044
Mof_H 	H 	0.2325	0.4784	0.3793	0.026
Mof_C 	C 	0.2146	0.4835	0.4925	-0.034
Mof_H 	H 	0.2487	0.5054	0.525	0.041
Mof_H 	H 	0.1992	0.5497	0.4644	0.058
Mof_C 	C 	0.2073	0.3749	0.5805	-0.028
Mof_H 	H 	0.2414	0.4	0.6112	0.021
Mof_H 	H 	0.1865	0.369	0.6057	0.014
Mof_C 	C 	0.2367	0.1815	0.6131	0.001
Mof_H 	H 	0.2679	0.2127	0.6479	-0.012
Mof_H 	H 	0.2137	0.1625	0.6339	0.014
Mof_C 	C 	0.1311	0.4342	0.4886	-0.417
Mof_H 	H 	0.1254	0.4348	0.4414	0.242
Mof_H 	H 	0.1246	0.3566	0.4986	0.038
Mof_C 	C 	0.09977	0.4883	0.4917	0.184
Mof_H 	H 	0.1143	0.563	0.5083	0
Mof_H 	H 	0.0905	0.4546	0.5257	-0.038
Mof_C 	C 	0.0448	0.5087	0.4211	-0.252
Mof_H 	H 	0.0426	0.5872	0.4072	0.046
Mof_H 	H 	0.0159	0.4904	0.4305	0.092
Mof_H 	H 	0.0447	0.4601	0.3856	0.053
Mof_O 	O 	0.0203	0.03304	0.1031	-0.427
Mof_O 	O 	0.00115	0.87937	0.14558	-0.306
Mof_O 	O 	0.19015	0.16035	0.42636	-0.403
Mof_O 	O 	0.12491	0.16197	0.45349	-0.306
Mof_C 	C 	0.02045	0.97377	0.15026	0.363
Mof_C 	C 	0.04982	0.02145	0.21894	-0.103
Mof_C 	C 	0.10199	0.02638	0.24107	-0.006
Mof_H 	H 	0.1167	0.0025	0.2125	0.022
Mof_C 	C 	0.13264	0.06531	0.30371	-0.041
Mof_H 	H 	0.1681	0.0678	0.3179	0.04
Mof_C 	C 	0.11146	0.10096	0.34604	-0.071
Mof_C 	C 	0.05943	0.09644	0.32414	-0.039
Mof_H 	H 	0.045	0.1213	0.3528	0.043
Mof_C 	C 	0.02771	0.05622	0.26098	-0.005
Mof_C 	C 	0.14454	0.14466	0.41432	0.317
Mof_N 	N 	0.2272	0.3905	0.4379	-0.054
Mof_H 	H 	0.193	0.3744	0.4022	0.275
Mof_N 	N 	0.18965	0.4821	0.5057	-0.033
Mof_C 	C 	0.2618	0.3944	0.4077	-0.037
Mof_H 	H 	0.2939	0.4281	0.439	0.016
Mof_H 	H 	0.2477	0.4424	0.3677	0.028
Mof_C 	C 	0.2231	0.4913	0.4733	0.026
Mof_H 	H 	0.2571	0.5107	0.5071	-0.013
Mof_H 	H 	0.2115	0.5541	0.4413	-0.011
Mof_C 	C 	0.2069	0.413	0.5642	-0.011
Mof_H 	H 	0.1846	0.4267	0.5866	0.049
Mof_H 	H 	0.241	0.4391	0.5946	0.017
Mof_C 	C 	0.2282	0.2223	0.6117	-0.062
Mof_H 	H 	0.2036	0.2198	0.6314	0.029
Mof_H 	H 	0.2597	0.2576	0.6437	0.044
Mof_C 	C 	0.13612	0.4693	0.4594	-0.395
Mof_H 	H 	0.1352	0.4636	0.4145	0.041
Mof_H 	H 	0.1255	0.3954	0.4691	0.255
Mof_C 	C 	0.1043	0.5329	0.4552	0.221
Mof_H 	H 	0.1013	0.5856	0.4193	-0.042
Mof_H 	H 	0.1181	0.577	0.4967	-0.046
Mof_C 	C 	0.0467	0.5017	0.4422	-0.247
Mof_H 	H 	0.037	0.4306	0.418	0.099
Mof_H 	H 	0.0239	0.5612	0.416	0.113
Mof_H 	H 	0.0445	0.4946	0.4848	0.058
Mof_N 	N 	0.51318	0.6653	0.98801	-0.218
Mof_H 	H 	0.5133	0.6727	0.9433	0.1
Mof_N 	N 	0.57291	0.45114	0.02323	-0.258
Mof_H 	H 	0.5765	0.4409	0.9808	0.127
Mof_N 	N 	0.6043	0.64555	0.03688	-0.094
Mof_C 	C 	0.46869	0.72728	0.98584	0.021
Mof_H 	H 	0.4667	0.8018	0.9653	0.024
Mof_H 	H 	0.4714	0.7384	0.0313	-0.01
Mof_C 	C 	0.56208	0.70709	0.03692	-0.068
Mof_H 	H 	0.5656	0.7869	0.0274	0.032
Mof_H 	H 	0.5627	0.7028	0.0817	0.049
Mof_C 	C 	0.61129	0.53448	0.06447	-0.041
Mof_H 	H 	0.6107	0.5386	0.1086	0.042
Mof_H 	H 	0.645	0.5073	0.0711	0.042
Mof_C 	C 	0.57803	0.34065	0.05473	-0.047
Mof_H 	H 	0.5815	0.3494	0.1007	0.038
Mof_H 	H 	0.6084	0.302	0.0562	0.038
Mof_C 	C 	0.61256	0.6589	0.97633	-0.232
Mof_H 	H 	0.5898	0.7178	0.9482	0.113
Mof_H 	H 	0.604	0.5878	0.951	0.112
Mof_C 	C 	0.66635	0.6899	0.99156	0.39
Mof_H 	H 	0.6894	0.6327	0.0212	-0.118
Mof_H 	H 	0.6746	0.7628	0.0149	-0.109
Mof_C 	C 	0.6741	0.6978	0.92788	-0.698
Mof_H 	H 	0.6717	0.6229	0.9088	0.23
Mof_H 	H 	0.7074	0.7295	0.938	0.231
Mof_H 	H 	0.6481	0.7463	0.896	0.229
Mof_N 	N 	0.70985	0.77679	0.55502	-0.226
Mof_H 	H 	0.6748	0.7492	0.5286	0.093
Mof_N 	N 	0.7195	0.8919	0.4495	-0.17
Mof_H 	H 	0.685	0.8737	0.415	-0.235
Mof_N 	N 	0.68528	0.9537	0.5274	0.013
Mof_C 	C 	0.7509	0.9247	0.4154	-0.088
Mof_H 	H 	0.7822	0.961	0.447	0.048
Mof_H 	H 	0.7325	0.9784	0.3793	0.029
Mof_C 	C 	0.7146	0.9835	0.4925	-0.004
Mof_H 	H 	0.7487	0.0054	0.525	0.02
Mof_H 	H 	0.6992	0.0497	0.4644	0.04
Mof_C 	C 	0.7073	0.8749	0.5805	-0.041
Mof_H 	H 	0.7414	0.9	0.6112	0.025
Mof_H 	H 	0.6865	0.869	0.6057	0.019
Mof_C 	C 	0.7367	0.6815	0.6131	0
Mof_H 	H 	0.7679	0.7127	0.6479	-0.011
Mof_H 	H 	0.7137	0.6625	0.6339	0.017
Mof_C 	C 	0.6311	0.9342	0.4886	-0.434
Mof_H 	H 	0.6254	0.9348	0.4414	0.277
Mof_H 	H 	0.6246	0.8566	0.4986	0.04
Mof_C 	C 	0.59977	0.9883	0.4917	0.242
Mof_H 	H 	0.6143	0.063	0.5083	0.028
Mof_H 	H 	0.5905	0.9546	0.5257	-0.053
Mof_C 	C 	0.5448	0.0087	0.4211	-0.331
Mof_H 	H 	0.5426	0.0872	0.4072	0.063
Mof_H 	H 	0.5159	0.9904	0.4305	0.133
Mof_H 	H 	0.5447	0.9601	0.3856	0.079
Mof_O 	O 	0.5203	0.53304	0.1031	-0.398
Mof_O 	O 	0.50115	0.37937	0.14558	-0.288
Mof_O 	O 	0.69015	0.66035	0.42636	-0.401
Mof_O 	O 	0.62491	0.66197	0.45349	-0.303
Mof_C 	C 	0.52045	0.47377	0.15026	0.33
Mof_C 	C 	0.54982	0.52145	0.21894	-0.088
Mof_C 	C 	0.60199	0.52638	0.24107	-0.008
Mof_H 	H 	0.6167	0.5025	0.2125	0.028
Mof_C 	C 	0.63264	0.56531	0.30371	-0.04
Mof_H 	H 	0.6681	0.5678	0.3179	0.043
Mof_C 	C 	0.61146	0.60096	0.34604	-0.063
Mof_C 	C 	0.55943	0.59644	0.32414	-0.05
Mof_H 	H 	0.545	0.6213	0.3528	0.056
Mof_C 	C 	0.52771	0.55622	0.26098	0.032
Mof_C 	C 	0.64454	0.64466	0.41432	0.317
Mof_N 	N 	0.7272	0.8905	0.4379	-0.056
Mof_H 	H 	0.693	0.8744	0.4022	0.303
Mof_N 	N 	0.68965	0.9821	0.5057	-0.042
Mof_C 	C 	0.7618	0.8944	0.4077	-0.041
Mof_H 	H 	0.7939	0.9281	0.439	0.018
Mof_H 	H 	0.7477	0.9424	0.3677	0.031
Mof_C 	C 	0.7231	0.9913	0.4733	0.053
Mof_H 	H 	0.7571	0.0107	0.5071	-0.019
Mof_H 	H 	0.7115	0.0541	0.4413	-0.019
Mof_C 	C 	0.7069	0.913	0.5642	-0.009
Mof_H 	H 	0.6846	0.9267	0.5866	0.053
Mof_H 	H 	0.741	0.9391	0.5946	0.02
Mof_C 	C 	0.7282	0.7223	0.6117	-0.06
Mof_H 	H 	0.7036	0.7198	0.6314	0.029
Mof_H 	H 	0.7597	0.7576	0.6437	0.044
Mof_C 	C 	0.63612	0.9693	0.4594	-0.448
Mof_H 	H 	0.6352	0.9636	0.4145	0.049
Mof_H 	H 	0.6255	0.8954	0.4691	0.26
Mof_C 	C 	0.6043	0.0329	0.4552	0.241
Mof_H 	H 	0.6013	0.0856	0.4193	-0.046
Mof_H 	H 	0.6181	0.077	0.4967	-0.095
Mof_C 	C 	0.5467	0.0017	0.4422	-0.302
Mof_H 	H 	0.537	0.9306	0.418	0.126
Mof_H 	H 	0.5239	0.0612	0.416	0.134
Mof_H 	H 	0.5445	0.9946	0.4848	0.082
Mof_N 	N 	0.98682	0.1653	0.51199	-0.219
Mof_H 	H 	0.9867	0.1727	0.5567	0.105
Mof_N 	N 	0.92709	0.95114	0.47677	-0.215
Mof_H 	H 	0.9235	0.9409	0.5192	0.102
Mof_N 	N 	0.8957	0.14555	0.46312	-0.093
Mof_C 	C 	0.03131	0.22728	0.51416	-0.099
Mof_H 	H 	0.0333	0.3018	0.5347	0.038
Mof_H 	H 	0.0286	0.2384	0.4687	0.044
Mof_C 	C 	0.93792	0.20709	0.46308	-0.034
Mof_H 	H 	0.9344	0.2869	0.4726	0.042
Mof_H 	H 	0.9373	0.2028	0.4183	0.047
Mof_C 	C 	0.88871	0.03448	0.43553	-0.044
Mof_H 	H 	0.8893	0.0386	0.3914	0.04
Mof_H 	H 	0.855	0.0073	0.4289	0.042
Mof_C 	C 	0.92197	0.84065	0.44527	-0.092
Mof_H 	H 	0.9185	0.8494	0.3993	0.057
Mof_H 	H 	0.8916	0.802	0.4438	0.063
Mof_C 	C 	0.88744	0.1589	0.52367	-0.154
Mof_H 	H 	0.9102	0.2178	0.5518	0.083
Mof_H 	H 	0.896	0.0878	0.549	0.082
Mof_C 	C 	0.83365	0.1899	0.50844	0.111
Mof_H 	H 	0.8106	0.1327	0.4788	-0.012
Mof_H 	H 	0.8254	0.2628	0.4851	-0.002
Mof_C 	C 	0.8259	0.1978	0.57212	-0.48
Mof_H 	H 	0.8283	0.1229	0.5912	0.163
Mof_H 	H 	0.7926	0.2295	0.562	0.157
Mof_H 	H 	0.8519	0.2463	0.604	0.165
Mof_N 	N 	0.79015	0.27679	0.94498	-0.225
Mof_H 	H 	0.8252	0.2492	0.9714	0.11
Mof_N 	N 	0.7805	0.3919	0.0505	-0.171
Mof_H 	H 	0.815	0.3737	0.085	-0.181
Mof_N 	N 	0.81472	0.4537	0.9726	-0.026
Mof_C 	C 	0.7491	0.4247	0.0846	-0.096
Mof_H 	H 	0.7178	0.461	0.053	0.039
Mof_H 	H 	0.7675	0.4784	0.1207	0.03
Mof_C 	C 	0.7854	0.4835	0.0075	-0.042
Mof_H 	H 	0.7513	0.5054	0.975	0.022
Mof_H 	H 	0.8008	0.5497	0.0356	0.065
Mof_C 	C 	0.7927	0.3749	0.9195	-0.006
Mof_H 	H 	0.7586	0.4	0.8888	0.011
Mof_H 	H 	0.8135	0.369	0.8943	0.01
Mof_C 	C 	0.7633	0.1815	0.8869	-0
Mof_H 	H 	0.7321	0.2127	0.8521	-0.012
Mof_H 	H 	0.7863	0.1625	0.8661	0.014
Mof_C 	C 	0.8689	0.4342	0.0114	-0.471
Mof_H 	H 	0.8746	0.4348	0.0586	0.33
Mof_H 	H 	0.8754	0.3566	0.0014	0.023
Mof_C 	C 	0.90023	0.4883	0.0083	0.317
Mof_H 	H 	0.8857	0.563	0.9917	-0.145
Mof_H 	H 	0.9095	0.4546	0.9743	-0.041
Mof_C 	C 	0.9552	0.5087	0.0789	-0.282
Mof_H 	H 	0.9574	0.5872	0.0928	0.057
Mof_H 	H 	0.9841	0.4904	0.0695	0.108
Mof_H 	H 	0.9553	0.4601	0.1144	0.067
Mof_O 	O 	0.9797	0.03304	0.3969	-0.401
Mof_O 	O 	0.99885	0.87937	0.35442	-0.276
Mof_O 	O 	0.80985	0.16035	0.07364	-0.409
Mof_O 	O 	0.87509	0.16197	0.04651	-0.319
Mof_C 	C 	0.97955	0.97377	0.34974	0.37
Mof_C 	C 	0.95018	0.02145	0.28106	-0.119
Mof_C 	C 	0.89801	0.02638	0.25893	0.014
Mof_H 	H 	0.8833	0.0025	0.2875	0.018
Mof_C 	C 	0.86736	0.06531	0.19629	-0.055
Mof_H 	H 	0.8319	0.0678	0.1821	0.047
Mof_C 	C 	0.88854	0.10096	0.15396	-0.049
Mof_C 	C 	0.94057	0.09644	0.17586	-0.072
Mof_H 	H 	0.955	0.1213	0.1472	0.07
Mof_C 	C 	0.97229	0.05622	0.23902	0.076
Mof_C 	C 	0.85546	0.14466	0.08568	0.313
Mof_N 	N 	0.7728	0.3905	0.0621	-0.033
Mof_H 	H 	0.807	0.3744	0.0978	0.244
Mof_N 	N 	0.81035	0.4821	0.9943	0.05
Mof_C 	C 	0.7382	0.3944	0.0923	-0.036
Mof_H 	H 	0.7061	0.4281	0.061	0.013
Mof_H 	H 	0.7523	0.4424	0.1323	0.03
Mof_C 	C 	0.7769	0.4913	0.0267	-0.104
Mof_H 	H 	0.7429	0.5107	0.9929	0.07
Mof_H 	H 	0.7885	0.5541	0.0587	0.018
Mof_C 	C 	0.7931	0.413	0.9358	-0.012
Mof_H 	H 	0.8154	0.4267	0.9134	0.057
Mof_H 	H 	0.759	0.4391	0.9054	0.024
Mof_C 	C 	0.7718	0.2223	0.8883	-0.057
Mof_H 	H 	0.7964	0.2198	0.8686	0.028
Mof_H 	H 	0.7403	0.2576	0.8563	0.044
Mof_C 	C 	0.86388	0.4693	0.0406	-0.507
Mof_H 	H 	0.8648	0.4636	0.0855	0.041
Mof_H 	H 	0.8745	0.3954	0.0309	0.27
Mof_C 	C 	0.8957	0.5329	0.0448	0.107
Mof_H 	H 	0.8987	0.5856	0.0807	-0.007
Mof_H 	H 	0.8819	0.577	0.0033	0.105
Mof_C 	C 	0.9533	0.5017	0.0578	-0.251
Mof_H 	H 	0.963	0.4306	0.082	0.103
Mof_H 	H 	0.9761	0.5612	0.084	0.123
Mof_H 	H 	0.9555	0.4946	0.0152	0.043
Mof_N 	N 	0.48682	0.6653	0.51199	-0.233
Mof_H 	H 	0.4867	0.6727	0.5567	0.098
Mof_N 	N 	0.42709	0.45114	0.47677	-0.227
Mof_H 	H 	0.4235	0.4409	0.5192	0.097
Mof_N 	N 	0.3957	0.64555	0.46312	-0.094
Mof_C 	C 	0.53131	0.72728	0.51416	-0.075
Mof_H 	H 	0.5333	0.8018	0.5347	0.041
Mof_H 	H 	0.5286	0.7384	0.4687	0.043
Mof_C 	C 	0.43792	0.70709	0.46308	-0.033
Mof_H 	H 	0.4344	0.7869	0.4726	0.039
Mof_H 	H 	0.4373	0.7028	0.4183	0.042
Mof_C 	C 	0.38871	0.53448	0.43553	-0.035
Mof_H 	H 	0.3893	0.5386	0.3914	0.04
Mof_H 	H 	0.355	0.5073	0.4289	0.045
Mof_C 	C 	0.42197	0.34065	0.44527	-0.085
Mof_H 	H 	0.4185	0.3494	0.3993	0.048
Mof_H 	H 	0.3916	0.302	0.4438	0.059
Mof_C 	C 	0.38744	0.6589	0.52367	-0.154
Mof_H 	H 	0.4102	0.7178	0.5518	0.082
Mof_H 	H 	0.396	0.5878	0.549	0.084
Mof_C 	C 	0.33365	0.6899	0.50844	0.114
Mof_H 	H 	0.3106	0.6327	0.4788	-0.01
Mof_H 	H 	0.3254	0.7628	0.4851	-0.003
Mof_C 	C 	0.3259	0.6978	0.57212	-0.487
Mof_H 	H 	0.3283	0.6229	0.5912	0.169
Mof_H 	H 	0.2926	0.7295	0.562	0.16
Mof_H 	H 	0.3519	0.7463	0.604	0.168
Mof_N 	N 	0.29015	0.77679	0.94498	-0.224
Mof_H 	H 	0.3252	0.7492	0.9714	0.111
Mof_N 	N 	0.2805	0.8919	0.0505	-0.174
Mof_H 	H 	0.315	0.8737	0.085	-0.207
Mof_N 	N 	0.31472	0.9537	0.9726	-0.017
Mof_C 	C 	0.2491	0.9247	0.0846	-0.094
Mof_H 	H 	0.2178	0.961	0.053	0.043
Mof_H 	H 	0.2675	0.9784	0.1207	0.032
Mof_C 	C 	0.2854	0.9835	0.0075	-0.011
Mof_H 	H 	0.2513	0.0054	0.975	0.001
Mof_H 	H 	0.3008	0.0497	0.0356	0.045
Mof_C 	C 	0.2927	0.8749	0.9195	-0.015
Mof_H 	H 	0.2586	0.9	0.8888	0.013
Mof_H 	H 	0.3135	0.869	0.8943	0.013
Mof_C 	C 	0.2633	0.6815	0.8869	-0.001
Mof_H 	H 	0.2321	0.7127	0.8521	-0.013
Mof_H 	H 	0.2863	0.6625	0.8661	0.016
Mof_C 	C 	0.3689	0.9342	0.0114	-0.455
Mof_H 	H 	0.3746	0.9348	0.0586	0.346
Mof_H 	H 	0.3754	0.8566	0.0014	0.023
Mof_C 	C 	0.40023	0.9883	0.0083	0.349
Mof_H 	H 	0.3857	0.063	0.9917	-0.114
Mof_H 	H 	0.4095	0.9546	0.9743	-0.051
Mof_C 	C 	0.4552	0.0087	0.0789	-0.328
Mof_H 	H 	0.4574	0.0872	0.0928	0.063
Mof_H 	H 	0.4841	0.9904	0.0695	0.126
Mof_H 	H 	0.4553	0.9601	0.1144	0.08
Mof_O 	O 	0.4797	0.53304	0.3969	-0.395
Mof_O 	O 	0.49885	0.37937	0.35442	-0.288
Mof_O 	O 	0.30985	0.66035	0.07364	-0.409
Mof_O 	O 	0.37509	0.66197	0.04651	-0.32
Mof_C 	C 	0.47955	0.47377	0.34974	0.329
Mof_C 	C 	0.45018	0.52145	0.28106	-0.086
Mof_C 	C 	0.39801	0.52638	0.25893	-0.008
Mof_H 	H 	0.3833	0.5025	0.2875	0.029
Mof_C 	C 	0.36736	0.56531	0.19629	-0.037
Mof_H 	H 	0.3319	0.5678	0.1821	0.043
Mof_C 	C 	0.38854	0.60096	0.15396	-0.063
Mof_C 	C 	0.44057	0.59644	0.17586	-0.049
Mof_H 	H 	0.455	0.6213	0.1472	0.056
Mof_C 	C 	0.47229	0.55622	0.23902	0.032
Mof_C 	C 	0.35546	0.64466	0.08568	0.32
Mof_N 	N 	0.2728	0.8905	0.0621	-0.036
Mof_H 	H 	0.307	0.8744	0.0978	0.272
Mof_N 	N 	0.31035	0.9821	0.9943	0.038
Mof_C 	C 	0.2382	0.8944	0.0923	-0.04
Mof_H 	H 	0.2061	0.9281	0.061	0.015
Mof_H 	H 	0.2523	0.9424	0.1323	0.032
Mof_C 	C 	0.2769	0.9913	0.0267	-0.075
Mof_H 	H 	0.2429	0.0107	0.9929	0.063
Mof_H 	H 	0.2885	0.0541	0.0587	0.009
Mof_C 	C 	0.2931	0.913	0.9358	-0.01
Mof_H 	H 	0.3154	0.9267	0.9134	0.058
Mof_H 	H 	0.259	0.9391	0.9054	0.028
Mof_C 	C 	0.2718	0.7223	0.8883	-0.055
Mof_H 	H 	0.2964	0.7198	0.8686	0.029
Mof_H 	H 	0.2403	0.7576	0.8563	0.044
Mof_C 	C 	0.36388	0.9693	0.0406	-0.526
Mof_H 	H 	0.3648	0.9636	0.0855	0.046
Mof_H 	H 	0.3745	0.8954	0.0309	0.255
Mof_C 	C 	0.3957	0.0329	0.0448	0.1
Mof_H 	H 	0.3987	0.0856	0.0807	-0.007
Mof_H 	H 	0.3819	0.077	0.0033	0.062
Mof_C 	C 	0.4533	0.0017	0.0578	-0.279
Mof_H 	H 	0.463	0.9306	0.082	0.116
Mof_H 	H 	0.4761	0.0612	0.084	0.125
Mof_H 	H 	0.4555	0.9946	0.0152	0.053
Mof_N 	N 	0.98682	0.8347	0.01199	-0.23
Mof_H 	H 	0.9867	0.8273	0.0567	0.106
Mof_N 	N 	0.92709	0.04886	0.97677	-0.198
Mof_H 	H 	0.9235	0.0591	0.0192	0.068
Mof_N 	N 	0.8957	0.85445	0.96312	-0.094
Mof_C 	C 	0.03131	0.77272	0.01416	-0.187
Mof_H 	H 	0.0333	0.6982	0.0347	0.053
Mof_H 	H 	0.0286	0.7616	0.9687	0.094
Mof_C 	C 	0.93792	0.79291	0.96308	0.004
Mof_H 	H 	0.9344	0.7131	0.9726	0.047
Mof_H 	H 	0.9373	0.7972	0.9183	0.039
Mof_C 	C 	0.88871	0.96552	0.93553	-0.015
Mof_H 	H 	0.8893	0.9614	0.8914	0.038
Mof_H 	H 	0.855	0.9927	0.9289	0.051
Mof_C 	C 	0.92197	0.15935	0.94527	-0.125
Mof_H 	H 	0.9185	0.1506	0.8993	0.059
Mof_H 	H 	0.8916	0.198	0.9438	0.08
Mof_C 	C 	0.88744	0.8411	0.02367	-0.08
Mof_H 	H 	0.9102	0.7822	0.0518	0.055
Mof_H 	H 	0.896	0.9122	0.049	0.065
Mof_C 	C 	0.83365	0.8101	0.00844	-0.155
Mof_H 	H 	0.8106	0.8673	0.9788	0.098
Mof_H 	H 	0.8254	0.7372	0.9851	0.1
Mof_C 	C 	0.8259	0.8022	0.07212	-0.285
Mof_H 	H 	0.8283	0.8771	0.0912	0.114
Mof_H 	H 	0.7926	0.7705	0.062	0.092
Mof_H 	H 	0.8519	0.7537	0.104	0.11
Mof_N 	N 	0.79015	0.72321	0.44498	-0.228
Mof_H 	H 	0.8252	0.7508	0.4714	0.094
Mof_N 	N 	0.7805	0.6081	0.5505	-0.167
Mof_H 	H 	0.815	0.6263	0.585	-0.211
Mof_N 	N 	0.81472	0.5463	0.4726	0.005
Mof_C 	C 	0.7491	0.5753	0.5846	-0.09
Mof_H 	H 	0.7178	0.539	0.553	0.043
Mof_H 	H 	0.7675	0.5216	0.6207	0.026
Mof_C 	C 	0.7854	0.5165	0.5075	-0.034
Mof_H 	H 	0.7513	0.4946	0.475	0.04
Mof_H 	H 	0.8008	0.4503	0.5356	0.059
Mof_C 	C 	0.7927	0.6251	0.4195	-0.032
Mof_H 	H 	0.7586	0.6	0.3888	0.024
Mof_H 	H 	0.8135	0.631	0.3943	0.017
Mof_C 	C 	0.7633	0.8185	0.3869	-0.001
Mof_H 	H 	0.7321	0.7873	0.3521	-0.011
Mof_H 	H 	0.7863	0.8375	0.3661	0.019
Mof_C 	C 	0.8689	0.5658	0.5114	-0.447
Mof_H 	H 	0.8746	0.5652	0.5586	0.258
Mof_H 	H 	0.8754	0.6434	0.5014	0.04
Mof_C 	C 	0.90023	0.5117	0.5083	0.206
Mof_H 	H 	0.8857	0.437	0.4917	-0.004
Mof_H 	H 	0.9095	0.5454	0.4743	-0.041
Mof_C 	C 	0.9552	0.4913	0.5789	-0.28
Mof_H 	H 	0.9574	0.4128	0.5928	0.054
Mof_H 	H 	0.9841	0.5096	0.5695	0.112
Mof_H 	H 	0.9553	0.5399	0.6144	0.065
Mof_O 	O 	0.9797	0.96696	0.8969	-0.354
Mof_O 	O 	0.99885	0.12063	0.85442	-0.266
Mof_O 	O 	0.80985	0.83965	0.57364	-0.398
Mof_O 	O 	0.87509	0.83803	0.54651	-0.3
Mof_C 	C 	0.97955	0.02623	0.84974	0.293
Mof_C 	C 	0.95018	0.97855	0.78106	-0.071
Mof_C 	C 	0.89801	0.97362	0.75893	-0.01
Mof_H 	H 	0.8833	0.9975	0.7875	0.034
Mof_C 	C 	0.86736	0.93469	0.69629	-0.038
Mof_H 	H 	0.8319	0.9322	0.6821	0.045
Mof_C 	C 	0.88854	0.89904	0.65396	-0.055
Mof_C 	C 	0.94057	0.90356	0.67586	-0.061
Mof_H 	H 	0.955	0.8787	0.6472	0.069
Mof_C 	C 	0.97229	0.94378	0.73902	0.066
Mof_C 	C 	0.85546	0.85534	0.58568	0.316
Mof_N 	N 	0.7728	0.6095	0.5621	-0.052
Mof_H 	H 	0.807	0.6256	0.5978	0.278
Mof_N 	N 	0.81035	0.5179	0.4943	-0.032
Mof_C 	C 	0.7382	0.6056	0.5923	-0.038
Mof_H 	H 	0.7061	0.5719	0.561	0.017
Mof_H 	H 	0.7523	0.5576	0.6323	0.029
Mof_C 	C 	0.7769	0.5087	0.5267	0.025
Mof_H 	H 	0.7429	0.4893	0.4929	-0.012
Mof_H 	H 	0.7885	0.4459	0.5587	-0.011
Mof_C 	C 	0.7931	0.587	0.4358	-0.011
Mof_H 	H 	0.8154	0.5733	0.4134	0.052
Mof_H 	H 	0.759	0.5609	0.4054	0.016
Mof_C 	C 	0.7718	0.7777	0.3883	-0.058
Mof_H 	H 	0.7964	0.7802	0.3686	0.028
Mof_H 	H 	0.7403	0.7424	0.3563	0.043
Mof_C 	C 	0.86388	0.5307	0.5406	-0.425
Mof_H 	H 	0.8648	0.5364	0.5855	0.045
Mof_H 	H 	0.8745	0.6046	0.5309	0.273
Mof_C 	C 	0.8957	0.4671	0.5448	0.246
Mof_H 	H 	0.8987	0.4144	0.5807	-0.046
Mof_H 	H 	0.8819	0.423	0.5033	-0.049
Mof_C 	C 	0.9533	0.4983	0.5578	-0.27
Mof_H 	H 	0.963	0.5694	0.582	0.112
Mof_H 	H 	0.9761	0.4388	0.584	0.131
Mof_H 	H 	0.9555	0.5054	0.5152	0.071
Mof_N 	N 	0.48682	0.3347	0.01199	-0.245
Mof_H 	H 	0.4867	0.3273	0.0567	0.094
Mof_N 	N 	0.42709	0.54886	0.97677	-0.193
Mof_H 	H 	0.4235	0.5591	0.0192	0.067
Mof_N 	N 	0.3957	0.35445	0.96312	-0.095
Mof_C 	C 	0.53131	0.27272	0.01416	-0.168
Mof_H 	H 	0.5333	0.1982	0.0347	0.053
Mof_H 	H 	0.5286	0.2616	0.9687	0.095
Mof_C 	C 	0.43792	0.29291	0.96308	0.006
Mof_H 	H 	0.4344	0.2131	0.9726	0.041
Mof_H 	H 	0.4373	0.2972	0.9183	0.034
Mof_C 	C 	0.38871	0.46552	0.93553	-0.026
Mof_H 	H 	0.3893	0.4614	0.8914	0.037
Mof_H 	H 	0.355	0.4927	0.9289	0.048
Mof_C 	C 	0.42197	0.65935	0.94527	-0.122
Mof_H 	H 	0.4185	0.6506	0.8993	0.06
Mof_H 	H 	0.3916	0.698	0.9438	0.081
Mof_C 	C 	0.38744	0.3411	0.02367	-0.074
Mof_H 	H 	0.4102	0.2822	0.0518	0.049
Mof_H 	H 	0.396	0.4122	0.049	0.056
Mof_C 	C 	0.33365	0.3101	0.00844	-0.165
Mof_H 	H 	0.3106	0.3673	0.9788	0.099
Mof_H 	H 	0.3254	0.2372	0.9851	0.103
Mof_C 	C 	0.3259	0.3022	0.07212	-0.27
Mof_H 	H 	0.3283	0.3771	0.0912	0.106
Mof_H 	H 	0.2926	0.2705	0.062	0.086
Mof_H 	H 	0.3519	0.2537	0.104	0.102
Mof_N 	N 	0.29015	0.22321	0.44498	-0.23
Mof_H 	H 	0.3252	0.2508	0.4714	0.094
Mof_N 	N 	0.2805	0.1081	0.5505	-0.163
Mof_H 	H 	0.315	0.1263	0.585	-0.185
Mof_N 	N 	0.31472	0.0463	0.4726	-0.01
Mof_C 	C 	0.2491	0.0753	0.5846	-0.091
Mof_H 	H 	0.2178	0.039	0.553	0.039
Mof_H 	H 	0.2675	0.0216	0.6207	0.023
Mof_C 	C 	0.2854	0.0165	0.5075	-0.065
Mof_H 	H 	0.2513	0.9946	0.475	0.062
Mof_H 	H 	0.3008	0.9503	0.5356	0.078
Mof_C 	C 	0.2927	0.1251	0.4195	-0.018
Mof_H 	H 	0.2586	0.1	0.3888	0.02
Mof_H 	H 	0.3135	0.131	0.3943	0.012
Mof_C 	C 	0.2633	0.3185	0.3869	0
Mof_H 	H 	0.2321	0.2873	0.3521	-0.012
Mof_H 	H 	0.2863	0.3375	0.3661	0.017
Mof_C 	C 	0.3689	0.0658	0.5114	-0.431
Mof_H 	H 	0.3746	0.0652	0.5586	0.223
Mof_H 	H 	0.3754	0.1434	0.5014	0.038
Mof_C 	C 	0.40023	0.0117	0.5083	0.147
Mof_H 	H 	0.3857	0.937	0.4917	-0.033
Mof_H 	H 	0.4095	0.0454	0.4743	-0.025
Mof_C 	C 	0.4552	0.9913	0.5789	-0.201
Mof_H 	H 	0.4574	0.9128	0.5928	0.037
Mof_H 	H 	0.4841	0.0096	0.5695	0.072
Mof_H 	H 	0.4553	0.0399	0.6144	0.038
Mof_O 	O 	0.4797	0.46696	0.8969	-0.385
Mof_O 	O 	0.49885	0.62063	0.85442	-0.284
Mof_O 	O 	0.30985	0.33965	0.57364	-0.401
Mof_O 	O 	0.37509	0.33803	0.54651	-0.303
Mof_C 	C 	0.47955	0.52623	0.84974	0.325
Mof_C 	C 	0.45018	0.47855	0.78106	-0.085
Mof_C 	C 	0.39801	0.47362	0.75893	-0.009
Mof_H 	H 	0.3833	0.4975	0.7875	0.029
Mof_C 	C 	0.36736	0.43469	0.69629	-0.039
Mof_H 	H 	0.3319	0.4322	0.6821	0.042
Mof_C 	C 	0.38854	0.39904	0.65396	-0.063
Mof_C 	C 	0.44057	0.40356	0.67586	-0.05
Mof_H 	H 	0.455	0.3787	0.6472	0.056
Mof_C 	C 	0.47229	0.44378	0.73902	0.031
Mof_C 	C 	0.35546	0.35534	0.58568	0.317
Mof_N 	N 	0.2728	0.1095	0.5621	-0.05
Mof_H 	H 	0.307	0.1256	0.5978	0.249
Mof_N 	N 	0.31035	0.0179	0.4943	-0.022
Mof_C 	C 	0.2382	0.1056	0.5923	-0.033
Mof_H 	H 	0.2061	0.0719	0.561	0.014
Mof_H 	H 	0.2523	0.0576	0.6323	0.026
Mof_C 	C 	0.2769	0.0087	0.5267	-0.002
Mof_H 	H 	0.2429	0.9893	0.4929	-0.006
Mof_H 	H 	0.2885	0.9459	0.5587	-0.002
Mof_C 	C 	0.2931	0.087	0.4358	-0.014
Mof_H 	H 	0.3154	0.0733	0.4134	0.048
Mof_H 	H 	0.259	0.0609	0.4054	0.013
Mof_C 	C 	0.2718	0.2777	0.3883	-0.06
Mof_H 	H 	0.2964	0.2802	0.3686	0.028
Mof_H 	H 	0.2403	0.2424	0.3563	0.043
Mof_C 	C 	0.36388	0.0307	0.5406	-0.371
Mof_H 	H 	0.3648	0.0364	0.5855	0.036
Mof_H 	H 	0.3745	0.1046	0.5309	0.269
Mof_C 	C 	0.3957	0.9671	0.5448	0.228
Mof_H 	H 	0.3987	0.9144	0.5807	-0.042
Mof_H 	H 	0.3819	0.923	0.5033	0.001
Mof_C 	C 	0.4533	0.9983	0.5578	-0.215
Mof_H 	H 	0.463	0.0694	0.582	0.086
Mof_H 	H 	0.4761	0.9388	0.584	0.109
Mof_H 	H 	0.4555	0.0054	0.5152	0.047
Mof_N 	N 	0.01318	0.8347	0.48801	-0.243
Mof_H 	H 	0.0133	0.8273	0.4433	0.09
Mof_N 	N 	0.07291	0.04886	0.52323	-0.238
Mof_H 	H 	0.0765	0.0591	0.4808	0.091
Mof_N 	N 	0.1043	0.85445	0.53688	-0.096
Mof_C 	C 	0.96869	0.77272	0.48584	-0.051
Mof_H 	H 	0.9667	0.6982	0.4653	0.039
Mof_H 	H 	0.9714	0.7616	0.5313	0.043
Mof_C 	C 	0.06208	0.79291	0.53692	-0.028
Mof_H 	H 	0.0656	0.7131	0.5274	0.032
Mof_H 	H 	0.0627	0.7972	0.5817	0.036
Mof_C 	C 	0.11129	0.96552	0.56447	-0.022
Mof_H 	H 	0.1107	0.9614	0.6086	0.039
Mof_H 	H 	0.145	0.9927	0.5711	0.048
Mof_C 	C 	0.07803	0.15935	0.55473	-0.076
Mof_H 	H 	0.0815	0.1506	0.6007	0.04
Mof_H 	H 	0.1084	0.198	0.5562	0.055
Mof_C 	C 	0.11256	0.8411	0.47633	-0.152
Mof_H 	H 	0.0898	0.7822	0.4482	0.079
Mof_H 	H 	0.104	0.9122	0.451	0.087
Mof_C 	C 	0.16635	0.8101	0.49156	0.112
Mof_H 	H 	0.1894	0.8673	0.5212	-0.007
Mof_H 	H 	0.1746	0.7372	0.5149	-0.003
Mof_C 	C 	0.1741	0.8022	0.42788	-0.487
Mof_H 	H 	0.1717	0.8771	0.4088	0.172
Mof_H 	H 	0.2074	0.7705	0.438	0.16
Mof_H 	H 	0.1481	0.7537	0.396	0.166
Mof_N 	N 	0.20985	0.72321	0.05502	-0.227
Mof_H 	H 	0.1748	0.7508	0.0286	0.077
Mof_N 	N 	0.2195	0.6081	0.9495	-0.159
Mof_H 	H 	0.185	0.6263	0.915	-0.233
Mof_N 	N 	0.18528	0.5463	0.0274	0.03
Mof_C 	C 	0.2509	0.5753	0.9154	-0.082
Mof_H 	H 	0.2822	0.539	0.947	0.048
Mof_H 	H 	0.2325	0.5216	0.8793	0.022
Mof_C 	C 	0.2146	0.5165	0.9925	-0.026
Mof_H 	H 	0.2487	0.4946	0.025	0.059
Mof_H 	H 	0.1992	0.4503	0.9644	0.051
Mof_C 	C 	0.2073	0.6251	0.0805	-0.053
Mof_H 	H 	0.2414	0.6	0.1112	0.033
Mof_H 	H 	0.1865	0.631	0.1057	0.02
Mof_C 	C 	0.2367	0.8185	0.1131	0.001
Mof_H 	H 	0.2679	0.7873	0.1479	-0.01
Mof_H 	H 	0.2137	0.8375	0.1339	0.019
Mof_C 	C 	0.1311	0.5658	0.9886	-0.392
Mof_H 	H 	0.1254	0.5652	0.9414	0.17
Mof_H 	H 	0.1246	0.6434	0.9986	0.055
Mof_C 	C 	0.09977	0.5117	0.9917	0.073
Mof_H 	H 	0.1143	0.437	0.0083	0.142
Mof_H 	H 	0.0905	0.5454	0.0257	-0.038
Mof_C 	C 	0.0448	0.4913	0.9211	-0.251
Mof_H 	H 	0.0426	0.4128	0.9072	0.044
Mof_H 	H 	0.0159	0.5096	0.9305	0.097
Mof_H 	H 	0.0447	0.5399	0.8856	0.051
Mof_O 	O 	0.0203	0.96696	0.6031	-0.379
Mof_O 	O 	0.00115	0.12063	0.64558	-0.296
Mof_O 	O 	0.19015	0.83965	0.92636	-0.386
Mof_O 	O 	0.12491	0.83803	0.95349	-0.285
Mof_C 	C 	0.02045	0.02623	0.65026	0.279
Mof_C 	C 	0.04982	0.97855	0.71894	-0.051
Mof_C 	C 	0.10199	0.97362	0.74107	-0.031
Mof_H 	H 	0.1167	0.9975	0.7125	0.04
Mof_C 	C 	0.13264	0.93469	0.80371	-0.023
Mof_H 	H 	0.1681	0.9322	0.8179	0.039
Mof_C 	C 	0.11146	0.89904	0.84604	-0.075
Mof_C 	C 	0.05943	0.90356	0.82414	-0.028
Mof_H 	H 	0.045	0.8787	0.8528	0.044
Mof_C 	C 	0.02771	0.94378	0.76098	-0.01
Mof_C 	C 	0.14454	0.85534	0.91432	0.319
Mof_N 	N 	0.2272	0.6095	0.9379	-0.073
Mof_H 	H 	0.193	0.6256	0.9022	0.302
Mof_N 	N 	0.18965	0.5179	0.0057	-0.115
Mof_C 	C 	0.2618	0.6056	0.9077	-0.038
Mof_H 	H 	0.2939	0.5719	0.939	0.02
Mof_H 	H 	0.2477	0.5576	0.8677	0.028
Mof_C 	C 	0.2231	0.5087	0.9733	0.158
Mof_H 	H 	0.2571	0.4893	0.0071	-0.096
Mof_H 	H 	0.2115	0.4459	0.9413	-0.041
Mof_C 	C 	0.2069	0.587	0.0642	-0.011
Mof_H 	H 	0.1846	0.5733	0.0866	0.044
Mof_H 	H 	0.241	0.5609	0.0946	0.01
Mof_C 	C 	0.2282	0.7777	0.1117	-0.061
Mof_H 	H 	0.2036	0.7802	0.1314	0.028
Mof_H 	H 	0.2597	0.7424	0.1437	0.043
Mof_C 	C 	0.13612	0.5307	0.9594	-0.312
Mof_H 	H 	0.1352	0.5364	0.9145	0.044
Mof_H 	H 	0.1255	0.6046	0.9691	0.259
Mof_C 	C 	0.1043	0.4671	0.9552	0.361
Mof_H 	H 	0.1013	0.4144	0.9193	-0.082
Mof_H 	H 	0.1181	0.423	0.9967	-0.201
Mof_C 	C 	0.0467	0.4983	0.9422	-0.267
Mof_H 	H 	0.037	0.5694	0.918	0.109
Mof_H 	H 	0.0239	0.4388	0.916	0.121
Mof_H 	H 	0.0445	0.5054	0.9848	0.087
Mof_N 	N 	0.51318	0.3347	0.48801	-0.234
Mof_H 	H 	0.5133	0.3273	0.4433	0.096
Mof_N 	N 	0.57291	0.54886	0.52323	-0.228
Mof_H 	H 	0.5765	0.5591	0.4808	0.096
Mof_N 	N 	0.6043	0.35445	0.53688	-0.095
Mof_C 	C 	0.46869	0.27272	0.48584	-0.075
Mof_H 	H 	0.4667	0.1982	0.4653	0.036
Mof_H 	H 	0.4714	0.2616	0.5313	0.044
Mof_C 	C 	0.56208	0.29291	0.53692	-0.031
Mof_H 	H 	0.5656	0.2131	0.5274	0.035
Mof_H 	H 	0.5627	0.2972	0.5817	0.04
Mof_C 	C 	0.61129	0.46552	0.56447	-0.034
Mof_H 	H 	0.6107	0.4614	0.6086	0.04
Mof_H 	H 	0.645	0.4927	0.5711	0.045
Mof_C 	C 	0.57803	0.65935	0.55473	-0.085
Mof_H 	H 	0.5815	0.6506	0.6007	0.049
Mof_H 	H 	0.6084	0.698	0.5562	0.06
Mof_C 	C 	0.61256	0.3411	0.47633	-0.151
Mof_H 	H 	0.5898	0.2822	0.4482	0.08
Mof_H 	H 	0.604	0.4122	0.451	0.083
Mof_C 	C 	0.66635	0.3101	0.49156	0.11
Mof_H 	H 	0.6894	0.3673	0.5212	-0.009
Mof_H 	H 	0.6746	0.2372	0.5149	-0.002
Mof_C 	C 	0.6741	0.3022	0.42788	-0.48
Mof_H 	H 	0.6717	0.3771	0.4088	0.166
Mof_H 	H 	0.7074	0.2705	0.438	0.157
Mof_H 	H 	0.6481	0.2537	0.396	0.164
Mof_N 	N 	0.70985	0.22321	0.05502	-0.228
Mof_H 	H 	0.6748	0.2508	0.0286	0.076
Mof_N 	N 	0.7195	0.1081	0.9495	-0.156
Mof_H 	H 	0.685	0.1263	0.915	-0.208
Mof_N 	N 	0.68528	0.0463	0.0274	0.021
Mof_C 	C 	0.7509	0.0753	0.9154	-0.083
Mof_H 	H 	0.7822	0.039	0.947	0.043
Mof_H 	H 	0.7325	0.0216	0.8793	0.02
Mof_C 	C 	0.7146	0.0165	0.9925	-0.056
Mof_H 	H 	0.7487	0.9946	0.025	0.079
Mof_H 	H 	0.6992	0.9503	0.9644	0.071
Mof_C 	C 	0.7073	0.1251	0.0805	-0.044
Mof_H 	H 	0.7414	0.1	0.1112	0.032
Mof_H 	H 	0.6865	0.131	0.1057	0.017
Mof_C 	C 	0.7367	0.3185	0.1131	0.001
Mof_H 	H 	0.7679	0.2873	0.1479	-0.01
Mof_H 	H 	0.7137	0.3375	0.1339	0.017
Mof_C 	C 	0.6311	0.0658	0.9886	-0.411
Mof_H 	H 	0.6254	0.0652	0.9414	0.152
Mof_H 	H 	0.6246	0.1434	0.9986	0.055
Mof_C 	C 	0.59977	0.0117	0.9917	0.035
Mof_H 	H 	0.6143	0.937	0.0083	0.11
Mof_H 	H 	0.5905	0.0454	0.0257	-0.025
Mof_C 	C 	0.5448	0.9913	0.9211	-0.202
Mof_H 	H 	0.5426	0.9128	0.9072	0.036
Mof_H 	H 	0.5159	0.0096	0.9305	0.077
Mof_H 	H 	0.5447	0.0399	0.8856	0.037
Mof_O 	O 	0.5203	0.46696	0.6031	-0.395
Mof_O 	O 	0.50115	0.62063	0.64558	-0.285
Mof_O 	O 	0.69015	0.33965	0.92636	-0.387
Mof_O 	O 	0.62491	0.33803	0.95349	-0.285
Mof_C 	C 	0.52045	0.52623	0.65026	0.328
Mof_C 	C 	0.54982	0.47855	0.71894	-0.087
Mof_C 	C 	0.60199	0.47362	0.74107	-0.007
Mof_H 	H 	0.6167	0.4975	0.7125	0.028
Mof_C 	C 	0.63264	0.43469	0.80371	-0.043
Mof_H 	H 	0.6681	0.4322	0.8179	0.043
Mof_C 	C 	0.61146	0.39904	0.84604	-0.062
Mof_C 	C 	0.55943	0.40356	0.82414	-0.052
Mof_H 	H 	0.545	0.3787	0.8528	0.057
Mof_C 	C 	0.52771	0.44378	0.76098	0.033
Mof_C 	C 	0.64454	0.35534	0.91432	0.312
Mof_N 	N 	0.7272	0.1095	0.9379	-0.069
Mof_H 	H 	0.693	0.1256	0.9022	0.276
Mof_N 	N 	0.68965	0.0179	0.0057	-0.103
Mof_C 	C 	0.7618	0.1056	0.9077	-0.034
Mof_H 	H 	0.7939	0.0719	0.939	0.018
Mof_H 	H 	0.7477	0.0576	0.8677	0.025
Mof_C 	C 	0.7231	0.0087	0.9733	0.127
Mof_H 	H 	0.7571	0.9893	0.0071	-0.088
Mof_H 	H 	0.7115	0.9459	0.9413	-0.031
Mof_C 	C 	0.7069	0.087	0.0642	-0.013
Mof_H 	H 	0.6846	0.0733	0.0866	0.043
Mof_H 	H 	0.741	0.0609	0.0946	0.007
Mof_C 	C 	0.7282	0.2777	0.1117	-0.063
Mof_H 	H 	0.7036	0.2802	0.1314	0.028
Mof_H 	H 	0.7597	0.2424	0.1437	0.043
Mof_C 	C 	0.63612	0.0307	0.9594	-0.291
Mof_H 	H 	0.6352	0.0364	0.9145	0.04
Mof_H 	H 	0.6255	0.1046	0.9691	0.275
Mof_C 	C 	0.6043	0.9671	0.9552	0.372
Mof_H 	H 	0.6013	0.9144	0.9193	-0.082
Mof_H 	H 	0.6181	0.923	0.9967	-0.156
Mof_C 	C 	0.5467	0.9983	0.9422	-0.237
Mof_H 	H 	0.537	0.0694	0.918	0.095
Mof_H 	H 	0.5239	0.9388	0.916	0.118
Mof_H 	H 	0.5445	0.0054	0.9848	0.076
Mof_Ni	Ni	-0	0	-0	1.058
Mof_Ni	Ni	0.5	0.5	-0	1.075
Mof_Ni	Ni	2.02428e-33	0	0.5	1.075
Mof_Ni	Ni	0.5	0.5	0.5	1.094
Mof_Ni	Ni	0.25	0.25	0.5	1.098
Mof_Ni	Ni	0.75	0.25	-0	1.079
Mof_Ni	Ni	0.75	0.75	0.5	1.098
Mof_Ni	Ni	0.25	0.75	-0	1.079
_end
