data_functionalizedCrystal
_audit_creation_method	'EQeq! by Chris Wilmer'
_symmetry_space_group_name_H-M	'P1'
_symmetry_Int_Tables_number	1
_symmetry_cell_setting	triclinic
loop_
_symmetry_equiv_pos_as_xyz
  x,y,z
_cell_length_a	11.868
_cell_length_b	13.03
_cell_length_c	7.7113
_cell_angle_alpha	105.956
_cell_angle_beta	94.951
_cell_angle_gamma	91.584
loop_
_atom_site_label
_atom_site_type_symbol
_atom_site_fract_x
_atom_site_fract_y
_atom_site_fract_z
_atom_site_charge
Mof_Cd	Cd	0.24562	0.19412	0.11275	0.304
Mof_N 	N 	0.1484	0.0902	0.2751	-0.087
Mof_N 	N 	0.1324	0.1271	0.8431	-0.071
Mof_N 	N 	0.3589	0.3031	0.9879	-0.072
Mof_N 	N 	0.4242	0.6007	0.3657	-0.063
Mof_N 	N 	0.1206	0.3262	0.2273	-0.199
Mof_N 	N 	0.3397	0.2921	0.3927	-0.208
Mof_N 	N 	0.3503	0.0439	0.0202	-0.239
Mof_C 	C 	0.0936	0.0557	0.3614	-0.303
Mof_C 	C 	0.0818	0.0809	0.7115	-0.298
Mof_C 	C 	0.4121	0.3766	0.9885	-0.219
Mof_C 	C 	0.4546	0.5628	0.2298	-0.264
Mof_C 	C 	0.1827	0.4053	0.3906	-0.047
Mof_C 	C 	0.264	0.3617	0.4932	-0.009
Mof_C 	C 	0.474	0.0521	0.0408	-0.186
Mof_H 	H 	0.05252	0.29329	0.26347	0.05
Mof_H 	H 	0.09641	0.36291	0.1333	0.046
Mof_H 	H 	0.11952	0.44306	0.4807	0.008
Mof_H 	H 	0.22691	0.46635	0.34335	0.025
Mof_H 	H 	0.21766	0.31684	0.56896	0.021
Mof_H 	H 	0.31469	0.4287	0.58903	0.012
Mof_H 	H 	0.40556	0.33503	0.37135	0.082
Mof_H 	H 	0.36727	0.24178	0.46224	0.079
Mof_H 	H 	0.327	0.01191	0.88809	0.085
Mof_H 	H 	0.32709	0.99327	0.08902	0.107
Mof_H 	H 	0.50267	0.11132	0.9741	0.078
Mof_H 	H 	0.50299	0.07918	0.18623	0.041
Mof_Cd	Cd	0.75438	0.80588	0.88725	0.388
Mof_N 	N 	0.8516	0.9098	0.7249	-0.08
Mof_N 	N 	0.8676	0.8729	0.1569	-0.101
Mof_N 	N 	0.6411	0.6969	0.0121	-0.091
Mof_N 	N 	0.5758	0.3993	0.6343	-0.067
Mof_N 	N 	0.8794	0.6738	0.7727	-0.205
Mof_N 	N 	0.6603	0.7079	0.6073	-0.21
Mof_N 	N 	0.6497	0.9561	0.9798	-0.179
Mof_C 	C 	0.9064	0.9443	0.6386	-0.161
Mof_C 	C 	0.9182	0.9191	0.2885	-0.176
Mof_C 	C 	0.5879	0.6234	0.0115	-0.264
Mof_C 	C 	0.5454	0.4372	0.7702	-0.226
Mof_C 	C 	0.8173	0.5947	0.6094	-0.044
Mof_C 	C 	0.736	0.6383	0.5068	-0.006
Mof_C 	C 	0.526	0.9479	0.9592	0.119
Mof_H 	H 	0.94748	0.70671	0.73653	0.098
Mof_H 	H 	0.90359	0.63709	0.8667	0.099
Mof_H 	H 	0.88048	0.55694	0.5193	0.037
Mof_H 	H 	0.77309	0.53365	0.65665	0.042
Mof_H 	H 	0.78234	0.68316	0.43104	0.025
Mof_H 	H 	0.68531	0.5713	0.41097	0.011
Mof_H 	H 	0.59444	0.66497	0.62865	0.091
Mof_H 	H 	0.63273	0.75822	0.53776	0.085
Mof_H 	H 	0.673	0.98809	0.11191	0.068
Mof_H 	H 	0.67291	0.00673	0.91098	0.046
Mof_H 	H 	0.49733	0.88868	0.0259	-0.025
Mof_H 	H 	0.49701	0.92082	0.81377	0.007
Mof_Ni	Ni	-3.50409e-18	0	0.5	1.005
Mof_Ni	Ni	0.5	0.5	-0	1.041
_end
