data_functionalizedCrystal
_audit_creation_method	'EQeq! by Chris Wilmer'
_symmetry_space_group_name_H-M	'P1'
_symmetry_Int_Tables_number	1
_symmetry_cell_setting	triclinic
loop_
_symmetry_equiv_pos_as_xyz
  x,y,z
_cell_length_a	38.8298
_cell_length_b	27.7339
_cell_length_c	27.0455
_cell_angle_alpha	90
_cell_angle_beta	133.545
_cell_angle_gamma	90
loop_
_atom_site_label
_atom_site_type_symbol
_atom_site_fract_x
_atom_site_fract_y
_atom_site_fract_z
_atom_site_charge
Mof_C 	C 	0.10443	0.82848	0.8001	0.416
Mof_C 	C 	0.10644	0.87295	0.8352	-0.152
Mof_C 	C 	0.06502	0.89785	0.8055	0.084
Mof_H 	H 	0.0363	0.889	0.7628	0.018
Mof_C 	C 	0.0671	0.93617	0.8405	-0.157
Mof_H 	H 	0.0394	0.9529	0.8207	0.088
Mof_C 	C 	0.1088	0.94994	0.9033	0.111
Mof_C 	C 	0.1498	0.9259	0.9309	-0.158
Mof_H 	H 	0.1786	0.9351	0.9734	0.11
Mof_C 	C 	0.14853	0.88863	0.8966	0.093
Mof_H 	H 	0.1767	0.8737	0.9152	0.016
Mof_C 	C 	0.0815	0.0679	0.9434	0.182
Mof_C 	C 	0.0831	0.03	0.9099	-0.134
Mof_H 	H 	0.066	0.0331	0.8637	0.086
Mof_C 	C 	0.1077	0.9911	0.9418	-0.011
Mof_C 	C 	0.1333	0.9835	0.0117	0.117
Mof_C 	C 	0.1378	0.0196	0.0507	-0.069
Mof_H 	H 	0.1573	0.0152	0.0974	0.081
Mof_C 	C 	0.1119	0.065	0.0187	-0.094
Mof_C 	C 	0.067	0.1526	0.066	0.222
Mof_H 	H 	0.0382	0.1649	0.0484	-0.021
Mof_C 	C 	0.0678	0.1215	0.0274	-0.279
Mof_H 	H 	0.0398	0.1141	0.9831	0.146
Mof_C 	C 	0.1099	0.1012	0.0539	0.239
Mof_C 	C 	0.1513	0.1171	0.1163	-0.314
Mof_H 	H 	0.1807	0.107	0.1338	0.186
Mof_C 	C 	0.148	0.1478	0.1516	0.262
Mof_H 	H 	0.1761	0.1573	0.1947	-0.053
Mof_C 	C 	0.10719	0.16551	0.1287	-0.273
Mof_C 	C 	0.10655	0.19976	0.1718	0.462
Mof_C 	C 	0.0292	0.1158	0.8299	0.017
Mof_H 	H 	0.0094	0.0886	0.801	0.025
Mof_H 	H 	0.0498	0.1249	0.8231	0.043
Mof_C 	C 	0.9989	0.1607	0.8217	-0.143
Mof_H 	H 	0.0042	0.163	0.8623	0.105
Mof_H 	H 	0.9653	0.1548	0.7832	0.088
Mof_C 	C 	0.09325	0.67273	0.6867	0.419
Mof_C 	C 	0.09052	0.62939	0.6505	-0.145
Mof_C 	C 	0.04714	0.607	0.597	0.088
Mof_H 	H 	0.0194	0.6174	0.5851	0.019
Mof_C 	C 	0.0456	0.56912	0.5619	-0.156
Mof_H 	H 	0.0162	0.5563	0.5242	0.11
Mof_C 	C 	0.0854	0.55023	0.5808	0.115
Mof_C 	C 	0.1296	0.572	0.6368	-0.147
Mof_H 	H 	0.1576	0.5594	0.6516	0.099
Mof_C 	C 	0.13136	0.6116	0.6696	0.086
Mof_H 	H 	0.1604	0.6264	0.7048	0.029
Mof_C 	C 	0.0857	0.5109	0.5473	-0.021
Mof_C 	C 	0.0519	0.5078	0.4756	0.112
Mof_C 	C 	0.1191	0.4355	0.5456	0.235
Mof_C 	C 	0.08721	0.43411	0.4762	-0.108
Mof_C 	C 	0.053	0.4704	0.4388	-0.061
Mof_H 	H 	0.0314	0.4707	0.3915	0.062
Mof_C 	C 	0.1182	0.4715	0.5831	-0.157
Mof_H 	H 	0.1386	0.469	0.6302	0.105
Mof_C 	C 	0.13607	0.35708	0.4212	0.1
Mof_H 	H 	0.1651	0.3516	0.4343	0.014
Mof_C 	C 	0.1329	0.38943	0.4583	-0.181
Mof_H 	H 	0.1603	0.4047	0.4965	0.114
Mof_C 	C 	0.0903	0.39886	0.4391	0.16
Mof_C 	C 	0.04999	0.37512	0.3816	-0.193
Mof_H 	H 	0.0209	0.3811	0.368	0.108
Mof_C 	C 	0.05159	0.34293	0.3439	0.116
Mof_C 	C 	0.09579	0.33375	0.3654	-0.162
Mof_C 	C 	0.09794	0.30081	0.3229	0.414
Mof_C 	C 	0.9716	0.5299	0.3578	-0.023
Mof_H 	H 	0.9545	0.5005	0.3485	0.054
Mof_H 	H 	0.9797	0.5315	0.331	0.057
Mof_C 	C 	0.1751	0.3916	0.66	1.366
Mof_H 	H 	0.1987	0.4164	0.6896	-0.355
Mof_H 	H 	0.1504	0.3944	0.6605	-0.335
Mof_C 	C 	0.1996	0.3393	0.6882	-3.414
Mof_H 	H 	0.1797	0.3164	0.651	1.069
Mof_H 	H 	0.2298	0.3406	0.7008	1.07
Mof_C 	C 	0.2075	0.322	0.7416	4.363
Mof_H 	H 	0.2221	0.2908	0.7538	-1.282
Mof_H 	H 	0.1779	0.3193	0.7296	-1.231
Mof_H 	H 	0.2282	0.3435	0.7796	-1.236
Mof_C 	C 	0.2516	0.2574	0.4367	0.153
Mof_H 	H 	0.2356	0.2557	0.4509	-0.028
Mof_C 	C 	0.296	0.2598	0.4825	-0.202
Mof_H 	H 	0.3103	0.2648	0.5272	0.11
Mof_C 	C 	0.3246	0.2554	0.4701	0.085
Mof_C 	C 	0.2989	0.2534	0.4	-0.145
Mof_H 	H 	0.3147	0.2511	0.3855	0.054
Mof_C 	C 	0.2488	0.2549	0.3522	0.079
Mof_H 	H 	0.232	0.2543	0.306	0.004
Mof_C 	C 	0.45064	0.2815	0.6297	0.092
Mof_H 	H 	0.467	0.298	0.6705	0.001
Mof_C 	C 	0.40207	0.28184	0.5826	-0.13
Mof_H 	H 	0.3861	0.2978	0.5921	0.086
Mof_C 	C 	0.37705	0.25881	0.5217	0.053
Mof_C 	C 	0.40299	0.2371	0.5106	-0.121
Mof_H 	H 	0.3875	0.2222	0.469	0.059
Mof_C 	C 	0.4507	0.2372	0.5598	0.088
Mof_H 	H 	0.4673	0.2214	0.5513	0.005
Mof_N 	N 	0.22502	0.25706	0.36983	-0.264
Mof_N 	N 	0.47541	0.25852	0.61961	-0.251
Mof_O 	O 	0.14216	0.80701	0.82959	-0.476
Mof_O 	O 	0.064	0.81538	0.74613	-0.467
Mof_O 	O 	0.0576	0.107	0.9089	-0.219
Mof_O 	O 	0.162	0.9422	0.0479	-0.172
Mof_O 	O 	0.14482	0.2115	0.22938	-0.485
Mof_O 	O 	0.06634	0.21246	0.14734	-0.474
Mof_O 	O 	0.13321	0.68893	0.73586	-0.468
Mof_O 	O 	0.05439	0.68991	0.66212	-0.464
Mof_O 	O 	0.0147	0.5401	0.436	-0.182
Mof_O 	O 	0.1523	0.3996	0.5833	-0.412
Mof_O 	O 	0.13839	0.29315	0.34518	-0.467
Mof_O 	O 	0.06003	0.28353	0.26935	-0.471
Mof_Zn	Zn	0.15234	0.25326	0.29736	1.217
Mof_Zn	Zn	0.048	0.2467	0.19342	1.216
Mof_C 	C 	0.60443	0.32848	0.8001	0.415
Mof_C 	C 	0.60644	0.37295	0.8352	-0.153
Mof_C 	C 	0.56502	0.39785	0.8055	0.083
Mof_H 	H 	0.5363	0.389	0.7628	0.017
Mof_C 	C 	0.5671	0.43617	0.8405	-0.158
Mof_H 	H 	0.5394	0.4529	0.8207	0.087
Mof_C 	C 	0.6088	0.44994	0.9033	0.11
Mof_C 	C 	0.6498	0.4259	0.9309	-0.159
Mof_H 	H 	0.6786	0.4351	0.9734	0.109
Mof_C 	C 	0.64853	0.38863	0.8966	0.092
Mof_H 	H 	0.6767	0.3737	0.9152	0.015
Mof_C 	C 	0.5815	0.5679	0.9434	0.181
Mof_C 	C 	0.5831	0.53	0.9099	-0.134
Mof_H 	H 	0.566	0.5331	0.8637	0.084
Mof_C 	C 	0.6077	0.4911	0.9418	-0.013
Mof_C 	C 	0.6333	0.4835	0.0117	0.117
Mof_C 	C 	0.6378	0.5196	0.0507	-0.071
Mof_H 	H 	0.6573	0.5152	0.0974	0.081
Mof_C 	C 	0.6119	0.565	0.0187	-0.095
Mof_C 	C 	0.567	0.6526	0.066	0.221
Mof_H 	H 	0.5382	0.6649	0.0484	-0.022
Mof_C 	C 	0.5678	0.6215	0.0274	-0.279
Mof_H 	H 	0.5398	0.6141	0.9831	0.145
Mof_C 	C 	0.6099	0.6012	0.0539	0.239
Mof_C 	C 	0.6513	0.6171	0.1163	-0.314
Mof_H 	H 	0.6807	0.607	0.1338	0.185
Mof_C 	C 	0.648	0.6478	0.1516	0.262
Mof_H 	H 	0.6761	0.6573	0.1947	-0.053
Mof_C 	C 	0.60719	0.66551	0.1287	-0.273
Mof_C 	C 	0.60655	0.69976	0.1718	0.462
Mof_C 	C 	0.5292	0.6158	0.8299	0.017
Mof_H 	H 	0.5094	0.5886	0.801	0.025
Mof_H 	H 	0.5498	0.6249	0.8231	0.043
Mof_C 	C 	0.4989	0.6607	0.8217	-0.143
Mof_H 	H 	0.5042	0.663	0.8623	0.105
Mof_H 	H 	0.4653	0.6548	0.7832	0.088
Mof_C 	C 	0.59325	0.17273	0.6867	0.419
Mof_C 	C 	0.59052	0.12939	0.6505	-0.145
Mof_C 	C 	0.54714	0.107	0.597	0.088
Mof_H 	H 	0.5194	0.1174	0.5851	0.019
Mof_C 	C 	0.5456	0.06912	0.5619	-0.156
Mof_H 	H 	0.5162	0.0563	0.5242	0.11
Mof_C 	C 	0.5854	0.05023	0.5808	0.115
Mof_C 	C 	0.6296	0.072	0.6368	-0.147
Mof_H 	H 	0.6576	0.0594	0.6516	0.099
Mof_C 	C 	0.63136	0.1116	0.6696	0.086
Mof_H 	H 	0.6604	0.1264	0.7048	0.029
Mof_C 	C 	0.5857	0.0109	0.5473	-0.021
Mof_C 	C 	0.5519	0.0078	0.4756	0.112
Mof_C 	C 	0.6191	0.9355	0.5456	0.235
Mof_C 	C 	0.58721	0.93411	0.4762	-0.108
Mof_C 	C 	0.553	0.9704	0.4388	-0.061
Mof_H 	H 	0.5314	0.9707	0.3915	0.062
Mof_C 	C 	0.6182	0.9715	0.5831	-0.157
Mof_H 	H 	0.6386	0.969	0.6302	0.105
Mof_C 	C 	0.63607	0.85708	0.4212	0.1
Mof_H 	H 	0.6651	0.8516	0.4343	0.014
Mof_C 	C 	0.6329	0.88943	0.4583	-0.181
Mof_H 	H 	0.6603	0.9047	0.4965	0.114
Mof_C 	C 	0.5903	0.89886	0.4391	0.16
Mof_C 	C 	0.54999	0.87512	0.3816	-0.193
Mof_H 	H 	0.5209	0.8811	0.368	0.108
Mof_C 	C 	0.55159	0.84293	0.3439	0.116
Mof_C 	C 	0.59579	0.83375	0.3654	-0.162
Mof_C 	C 	0.59794	0.80081	0.3229	0.414
Mof_C 	C 	0.4716	0.0299	0.3578	-0.023
Mof_H 	H 	0.4545	0.0005	0.3485	0.054
Mof_H 	H 	0.4797	0.0315	0.331	0.057
Mof_C 	C 	0.6751	0.8916	0.66	1.366
Mof_H 	H 	0.6987	0.9164	0.6896	-0.355
Mof_H 	H 	0.6504	0.8944	0.6605	-0.334
Mof_C 	C 	0.6996	0.8393	0.6882	-3.414
Mof_H 	H 	0.6797	0.8164	0.651	1.069
Mof_H 	H 	0.7298	0.8406	0.7008	1.07
Mof_C 	C 	0.7075	0.822	0.7416	4.363
Mof_H 	H 	0.7221	0.7908	0.7538	-1.282
Mof_H 	H 	0.6779	0.8193	0.7296	-1.231
Mof_H 	H 	0.7282	0.8435	0.7796	-1.236
Mof_C 	C 	0.7516	0.7574	0.4367	0.153
Mof_H 	H 	0.7356	0.7557	0.4509	-0.028
Mof_C 	C 	0.796	0.7598	0.4825	-0.202
Mof_H 	H 	0.8103	0.7648	0.5272	0.11
Mof_C 	C 	0.8246	0.7554	0.4701	0.085
Mof_C 	C 	0.7989	0.7534	0.4	-0.145
Mof_H 	H 	0.8147	0.7511	0.3855	0.054
Mof_C 	C 	0.7488	0.7549	0.3522	0.079
Mof_H 	H 	0.732	0.7543	0.306	0.004
Mof_C 	C 	0.95064	0.7815	0.6297	0.092
Mof_H 	H 	0.967	0.798	0.6705	0.001
Mof_C 	C 	0.90207	0.78184	0.5826	-0.13
Mof_H 	H 	0.8861	0.7978	0.5921	0.086
Mof_C 	C 	0.87705	0.75881	0.5217	0.053
Mof_C 	C 	0.90299	0.7371	0.5106	-0.121
Mof_H 	H 	0.8875	0.7222	0.469	0.059
Mof_C 	C 	0.9507	0.7372	0.5598	0.088
Mof_H 	H 	0.9673	0.7214	0.5513	0.005
Mof_N 	N 	0.72502	0.75706	0.36983	-0.264
Mof_N 	N 	0.97541	0.75852	0.61961	-0.251
Mof_O 	O 	0.64216	0.30701	0.82959	-0.476
Mof_O 	O 	0.564	0.31538	0.74613	-0.467
Mof_O 	O 	0.5576	0.607	0.9089	-0.219
Mof_O 	O 	0.662	0.4422	0.0479	-0.172
Mof_O 	O 	0.64482	0.7115	0.22938	-0.485
Mof_O 	O 	0.56634	0.71246	0.14734	-0.474
Mof_O 	O 	0.63321	0.18893	0.73586	-0.468
Mof_O 	O 	0.55439	0.18991	0.66212	-0.464
Mof_O 	O 	0.5147	0.0401	0.436	-0.182
Mof_O 	O 	0.6523	0.8996	0.5833	-0.412
Mof_O 	O 	0.63839	0.79315	0.34518	-0.467
Mof_O 	O 	0.56003	0.78353	0.26935	-0.471
Mof_Zn	Zn	0.65234	0.75326	0.29736	1.217
Mof_Zn	Zn	0.548	0.7467	0.19342	1.216
Mof_C 	C 	0.10443	0.17152	0.3001	0.415
Mof_C 	C 	0.10644	0.12705	0.3352	-0.153
Mof_C 	C 	0.06502	0.10215	0.3055	0.083
Mof_H 	H 	0.0363	0.111	0.2628	0.017
Mof_C 	C 	0.0671	0.06383	0.3405	-0.158
Mof_H 	H 	0.0394	0.0471	0.3207	0.087
Mof_C 	C 	0.1088	0.05006	0.4033	0.11
Mof_C 	C 	0.1498	0.0741	0.4309	-0.159
Mof_H 	H 	0.1786	0.0649	0.4734	0.109
Mof_C 	C 	0.14853	0.11137	0.3966	0.092
Mof_H 	H 	0.1767	0.1263	0.4152	0.015
Mof_C 	C 	0.0815	0.9321	0.4434	0.181
Mof_C 	C 	0.0831	0.97	0.4099	-0.134
Mof_H 	H 	0.066	0.9669	0.3637	0.084
Mof_C 	C 	0.1077	0.0089	0.4418	-0.013
Mof_C 	C 	0.1333	0.0165	0.5117	0.117
Mof_C 	C 	0.1378	0.9804	0.5507	-0.071
Mof_H 	H 	0.1573	0.9848	0.5974	0.081
Mof_C 	C 	0.1119	0.935	0.5187	-0.095
Mof_C 	C 	0.067	0.8474	0.566	0.221
Mof_H 	H 	0.0382	0.8351	0.5484	-0.022
Mof_C 	C 	0.0678	0.8785	0.5274	-0.279
Mof_H 	H 	0.0398	0.8859	0.4831	0.145
Mof_C 	C 	0.1099	0.8988	0.5539	0.239
Mof_C 	C 	0.1513	0.8829	0.6163	-0.314
Mof_H 	H 	0.1807	0.893	0.6338	0.185
Mof_C 	C 	0.148	0.8522	0.6516	0.262
Mof_H 	H 	0.1761	0.8427	0.6947	-0.053
Mof_C 	C 	0.10719	0.83449	0.6287	-0.272
Mof_C 	C 	0.10655	0.80024	0.6718	0.462
Mof_C 	C 	0.0292	0.8842	0.3299	0.017
Mof_H 	H 	0.0094	0.9114	0.301	0.025
Mof_H 	H 	0.0498	0.8751	0.3231	0.043
Mof_C 	C 	0.9989	0.8393	0.3217	-0.143
Mof_H 	H 	0.0042	0.837	0.3623	0.104
Mof_H 	H 	0.9653	0.8452	0.2832	0.088
Mof_C 	C 	0.09325	0.32727	0.1867	0.419
Mof_C 	C 	0.09052	0.37061	0.1505	-0.145
Mof_C 	C 	0.04714	0.393	0.097	0.088
Mof_H 	H 	0.0194	0.3826	0.0851	0.019
Mof_C 	C 	0.0456	0.43088	0.0619	-0.156
Mof_H 	H 	0.0162	0.4437	0.0242	0.11
Mof_C 	C 	0.0854	0.44977	0.0808	0.115
Mof_C 	C 	0.1296	0.428	0.1368	-0.147
Mof_H 	H 	0.1576	0.4406	0.1516	0.099
Mof_C 	C 	0.13136	0.3884	0.1696	0.086
Mof_H 	H 	0.1604	0.3736	0.2048	0.029
Mof_C 	C 	0.0857	0.4891	0.0473	-0.021
Mof_C 	C 	0.0519	0.4922	0.9756	0.112
Mof_C 	C 	0.1191	0.5645	0.0456	0.235
Mof_C 	C 	0.08721	0.56589	0.9762	-0.107
Mof_C 	C 	0.053	0.5296	0.9388	-0.061
Mof_H 	H 	0.0314	0.5293	0.8915	0.062
Mof_C 	C 	0.1182	0.5285	0.0831	-0.157
Mof_H 	H 	0.1386	0.531	0.1302	0.105
Mof_C 	C 	0.13607	0.64292	0.9212	0.1
Mof_H 	H 	0.1651	0.6484	0.9343	0.014
Mof_C 	C 	0.1329	0.61057	0.9583	-0.181
Mof_H 	H 	0.1603	0.5953	0.9965	0.114
Mof_C 	C 	0.0903	0.60114	0.9391	0.159
Mof_C 	C 	0.04999	0.62488	0.8816	-0.193
Mof_H 	H 	0.0209	0.6189	0.868	0.108
Mof_C 	C 	0.05159	0.65707	0.8439	0.116
Mof_C 	C 	0.09579	0.66625	0.8654	-0.162
Mof_C 	C 	0.09794	0.69919	0.8229	0.414
Mof_C 	C 	0.9716	0.4701	0.8578	-0.023
Mof_H 	H 	0.9545	0.4995	0.8485	0.054
Mof_H 	H 	0.9797	0.4685	0.831	0.057
Mof_C 	C 	0.1751	0.6084	0.16	1.366
Mof_H 	H 	0.1987	0.5836	0.1896	-0.355
Mof_H 	H 	0.1504	0.6056	0.1605	-0.335
Mof_C 	C 	0.1996	0.6607	0.1882	-3.414
Mof_H 	H 	0.1797	0.6836	0.151	1.069
Mof_H 	H 	0.2298	0.6594	0.2008	1.07
Mof_C 	C 	0.2075	0.678	0.2416	4.363
Mof_H 	H 	0.2221	0.7092	0.2538	-1.282
Mof_H 	H 	0.1779	0.6807	0.2296	-1.231
Mof_H 	H 	0.2282	0.6565	0.2796	-1.236
Mof_C 	C 	0.2516	0.7426	0.9367	0.153
Mof_H 	H 	0.2356	0.7443	0.9509	-0.028
Mof_C 	C 	0.296	0.7402	0.9825	-0.202
Mof_H 	H 	0.3103	0.7352	0.0272	0.11
Mof_C 	C 	0.3246	0.7446	0.9701	0.085
Mof_C 	C 	0.2989	0.7466	0.9	-0.145
Mof_H 	H 	0.3147	0.7489	0.8855	0.053
Mof_C 	C 	0.2488	0.7451	0.8522	0.079
Mof_H 	H 	0.232	0.7457	0.806	0.004
Mof_C 	C 	0.45064	0.7185	0.1297	0.092
Mof_H 	H 	0.467	0.702	0.1705	0.001
Mof_C 	C 	0.40207	0.71816	0.0826	-0.13
Mof_H 	H 	0.3861	0.7022	0.0921	0.086
Mof_C 	C 	0.37705	0.74119	0.0217	0.053
Mof_C 	C 	0.40299	0.7629	0.0106	-0.121
Mof_H 	H 	0.3875	0.7778	0.969	0.059
Mof_C 	C 	0.4507	0.7628	0.0598	0.088
Mof_H 	H 	0.4673	0.7786	0.0513	0.005
Mof_N 	N 	0.22502	0.74294	0.86983	-0.264
Mof_N 	N 	0.47541	0.74148	0.11961	-0.251
Mof_O 	O 	0.14216	0.19299	0.32959	-0.476
Mof_O 	O 	0.064	0.18462	0.24613	-0.467
Mof_O 	O 	0.0576	0.893	0.4089	-0.219
Mof_O 	O 	0.162	0.0578	0.5479	-0.172
Mof_O 	O 	0.14482	0.7885	0.72938	-0.485
Mof_O 	O 	0.06634	0.78754	0.64734	-0.474
Mof_O 	O 	0.13321	0.31107	0.23586	-0.468
Mof_O 	O 	0.05439	0.31009	0.16212	-0.464
Mof_O 	O 	0.0147	0.4599	0.936	-0.182
Mof_O 	O 	0.1523	0.6004	0.0833	-0.412
Mof_O 	O 	0.13839	0.70685	0.84518	-0.467
Mof_O 	O 	0.06003	0.71647	0.76935	-0.471
Mof_Zn	Zn	0.15234	0.74674	0.79736	1.217
Mof_Zn	Zn	0.048	0.7533	0.69342	1.216
Mof_C 	C 	0.60443	0.67152	0.3001	0.415
Mof_C 	C 	0.60644	0.62705	0.3352	-0.153
Mof_C 	C 	0.56502	0.60215	0.3055	0.083
Mof_H 	H 	0.5363	0.611	0.2628	0.017
Mof_C 	C 	0.5671	0.56383	0.3405	-0.158
Mof_H 	H 	0.5394	0.5471	0.3207	0.087
Mof_C 	C 	0.6088	0.55006	0.4033	0.11
Mof_C 	C 	0.6498	0.5741	0.4309	-0.159
Mof_H 	H 	0.6786	0.5649	0.4734	0.109
Mof_C 	C 	0.64853	0.61137	0.3966	0.092
Mof_H 	H 	0.6767	0.6263	0.4152	0.015
Mof_C 	C 	0.5815	0.4321	0.4434	0.181
Mof_C 	C 	0.5831	0.47	0.4099	-0.134
Mof_H 	H 	0.566	0.4669	0.3637	0.084
Mof_C 	C 	0.6077	0.5089	0.4418	-0.013
Mof_C 	C 	0.6333	0.5165	0.5117	0.117
Mof_C 	C 	0.6378	0.4804	0.5507	-0.071
Mof_H 	H 	0.6573	0.4848	0.5974	0.081
Mof_C 	C 	0.6119	0.435	0.5187	-0.095
Mof_C 	C 	0.567	0.3474	0.566	0.221
Mof_H 	H 	0.5382	0.3351	0.5484	-0.022
Mof_C 	C 	0.5678	0.3785	0.5274	-0.279
Mof_H 	H 	0.5398	0.3859	0.4831	0.145
Mof_C 	C 	0.6099	0.3988	0.5539	0.239
Mof_C 	C 	0.6513	0.3829	0.6163	-0.314
Mof_H 	H 	0.6807	0.393	0.6338	0.185
Mof_C 	C 	0.648	0.3522	0.6516	0.262
Mof_H 	H 	0.6761	0.3427	0.6947	-0.053
Mof_C 	C 	0.60719	0.33449	0.6287	-0.272
Mof_C 	C 	0.60655	0.30024	0.6718	0.462
Mof_C 	C 	0.5292	0.3842	0.3299	0.017
Mof_H 	H 	0.5094	0.4114	0.301	0.025
Mof_H 	H 	0.5498	0.3751	0.3231	0.043
Mof_C 	C 	0.4989	0.3393	0.3217	-0.143
Mof_H 	H 	0.5042	0.337	0.3623	0.105
Mof_H 	H 	0.4653	0.3452	0.2832	0.088
Mof_C 	C 	0.59325	0.82727	0.1867	0.419
Mof_C 	C 	0.59052	0.87061	0.1505	-0.145
Mof_C 	C 	0.54714	0.893	0.097	0.088
Mof_H 	H 	0.5194	0.8826	0.0851	0.019
Mof_C 	C 	0.5456	0.93088	0.0619	-0.156
Mof_H 	H 	0.5162	0.9437	0.0242	0.11
Mof_C 	C 	0.5854	0.94977	0.0808	0.115
Mof_C 	C 	0.6296	0.928	0.1368	-0.147
Mof_H 	H 	0.6576	0.9406	0.1516	0.099
Mof_C 	C 	0.63136	0.8884	0.1696	0.086
Mof_H 	H 	0.6604	0.8736	0.2048	0.029
Mof_C 	C 	0.5857	0.9891	0.0473	-0.021
Mof_C 	C 	0.5519	0.9922	0.9756	0.112
Mof_C 	C 	0.6191	0.0645	0.0456	0.235
Mof_C 	C 	0.58721	0.06589	0.9762	-0.108
Mof_C 	C 	0.553	0.0296	0.9388	-0.061
Mof_H 	H 	0.5314	0.0293	0.8915	0.062
Mof_C 	C 	0.6182	0.0285	0.0831	-0.157
Mof_H 	H 	0.6386	0.031	0.1302	0.105
Mof_C 	C 	0.63607	0.14292	0.9212	0.1
Mof_H 	H 	0.6651	0.1484	0.9343	0.014
Mof_C 	C 	0.6329	0.11057	0.9583	-0.181
Mof_H 	H 	0.6603	0.0953	0.9965	0.114
Mof_C 	C 	0.5903	0.10114	0.9391	0.16
Mof_C 	C 	0.54999	0.12488	0.8816	-0.193
Mof_H 	H 	0.5209	0.1189	0.868	0.108
Mof_C 	C 	0.55159	0.15707	0.8439	0.116
Mof_C 	C 	0.59579	0.16625	0.8654	-0.162
Mof_C 	C 	0.59794	0.19919	0.8229	0.414
Mof_C 	C 	0.4716	0.9701	0.8578	-0.023
Mof_H 	H 	0.4545	0.9995	0.8485	0.054
Mof_H 	H 	0.4797	0.9685	0.831	0.057
Mof_C 	C 	0.6751	0.1084	0.16	1.366
Mof_H 	H 	0.6987	0.0836	0.1896	-0.355
Mof_H 	H 	0.6504	0.1056	0.1605	-0.335
Mof_C 	C 	0.6996	0.1607	0.1882	-3.415
Mof_H 	H 	0.6797	0.1836	0.151	1.069
Mof_H 	H 	0.7298	0.1594	0.2008	1.07
Mof_C 	C 	0.7075	0.178	0.2416	4.363
Mof_H 	H 	0.7221	0.2092	0.2538	-1.282
Mof_H 	H 	0.6779	0.1807	0.2296	-1.231
Mof_H 	H 	0.7282	0.1565	0.2796	-1.236
Mof_C 	C 	0.7516	0.2426	0.9367	0.153
Mof_H 	H 	0.7356	0.2443	0.9509	-0.028
Mof_C 	C 	0.796	0.2402	0.9825	-0.203
Mof_H 	H 	0.8103	0.2352	0.0272	0.11
Mof_C 	C 	0.8246	0.2446	0.9701	0.085
Mof_C 	C 	0.7989	0.2466	0.9	-0.145
Mof_H 	H 	0.8147	0.2489	0.8855	0.054
Mof_C 	C 	0.7488	0.2451	0.8522	0.079
Mof_H 	H 	0.732	0.2457	0.806	0.004
Mof_C 	C 	0.95064	0.2185	0.1297	0.092
Mof_H 	H 	0.967	0.202	0.1705	0.002
Mof_C 	C 	0.90207	0.21816	0.0826	-0.13
Mof_H 	H 	0.8861	0.2022	0.0921	0.086
Mof_C 	C 	0.87705	0.24119	0.0217	0.053
Mof_C 	C 	0.90299	0.2629	0.0106	-0.121
Mof_H 	H 	0.8875	0.2778	0.969	0.059
Mof_C 	C 	0.9507	0.2628	0.0598	0.087
Mof_H 	H 	0.9673	0.2786	0.0513	0.005
Mof_N 	N 	0.72502	0.24294	0.86983	-0.264
Mof_N 	N 	0.97541	0.24148	0.11961	-0.25
Mof_O 	O 	0.64216	0.69299	0.32959	-0.476
Mof_O 	O 	0.564	0.68462	0.24613	-0.467
Mof_O 	O 	0.5576	0.393	0.4089	-0.219
Mof_O 	O 	0.662	0.5578	0.5479	-0.172
Mof_O 	O 	0.64482	0.2885	0.72938	-0.485
Mof_O 	O 	0.56634	0.28754	0.64734	-0.474
Mof_O 	O 	0.63321	0.81107	0.23586	-0.468
Mof_O 	O 	0.55439	0.81009	0.16212	-0.464
Mof_O 	O 	0.5147	0.9599	0.936	-0.182
Mof_O 	O 	0.6523	0.1004	0.0833	-0.412
Mof_O 	O 	0.63839	0.20685	0.84518	-0.467
Mof_O 	O 	0.56003	0.21647	0.76935	-0.471
Mof_Zn	Zn	0.65234	0.24674	0.79736	1.217
Mof_Zn	Zn	0.548	0.2533	0.69342	1.216
Mof_C 	C 	0.89557	0.82848	0.6999	0.415
Mof_C 	C 	0.89356	0.87295	0.6648	-0.153
Mof_C 	C 	0.93498	0.89785	0.6945	0.083
Mof_H 	H 	0.9637	0.889	0.7372	0.017
Mof_C 	C 	0.9329	0.93617	0.6595	-0.158
Mof_H 	H 	0.9606	0.9529	0.6793	0.087
Mof_C 	C 	0.8912	0.94994	0.5967	0.11
Mof_C 	C 	0.8502	0.9259	0.5691	-0.159
Mof_H 	H 	0.8214	0.9351	0.5266	0.109
Mof_C 	C 	0.85147	0.88863	0.6034	0.092
Mof_H 	H 	0.8233	0.8737	0.5848	0.015
Mof_C 	C 	0.9185	0.0679	0.5566	0.181
Mof_C 	C 	0.9169	0.03	0.5901	-0.134
Mof_H 	H 	0.934	0.0331	0.6363	0.084
Mof_C 	C 	0.8923	0.9911	0.5582	-0.013
Mof_C 	C 	0.8667	0.9835	0.4883	0.117
Mof_C 	C 	0.8622	0.0196	0.4493	-0.071
Mof_H 	H 	0.8427	0.0152	0.4026	0.081
Mof_C 	C 	0.8881	0.065	0.4813	-0.095
Mof_C 	C 	0.933	0.1526	0.434	0.221
Mof_H 	H 	0.9618	0.1649	0.4516	-0.022
Mof_C 	C 	0.9322	0.1215	0.4726	-0.279
Mof_H 	H 	0.9602	0.1141	0.5169	0.145
Mof_C 	C 	0.8901	0.1012	0.4461	0.239
Mof_C 	C 	0.8487	0.1171	0.3837	-0.314
Mof_H 	H 	0.8193	0.107	0.3662	0.185
Mof_C 	C 	0.852	0.1478	0.3484	0.262
Mof_H 	H 	0.8239	0.1573	0.3053	-0.053
Mof_C 	C 	0.89281	0.16551	0.3713	-0.272
Mof_C 	C 	0.89345	0.19976	0.3282	0.462
Mof_C 	C 	0.9708	0.1158	0.6701	0.017
Mof_H 	H 	0.9906	0.0886	0.699	0.025
Mof_H 	H 	0.9502	0.1249	0.6769	0.043
Mof_C 	C 	0.0011	0.1607	0.6783	-0.143
Mof_H 	H 	0.9958	0.163	0.6377	0.104
Mof_H 	H 	0.0347	0.1548	0.7168	0.088
Mof_C 	C 	0.90675	0.67273	0.8133	0.419
Mof_C 	C 	0.90948	0.62939	0.8495	-0.145
Mof_C 	C 	0.95286	0.607	0.903	0.088
Mof_H 	H 	0.9806	0.6174	0.9149	0.019
Mof_C 	C 	0.9544	0.56912	0.9381	-0.156
Mof_H 	H 	0.9838	0.5563	0.9758	0.11
Mof_C 	C 	0.9146	0.55023	0.9192	0.115
Mof_C 	C 	0.8704	0.572	0.8632	-0.147
Mof_H 	H 	0.8424	0.5594	0.8484	0.099
Mof_C 	C 	0.86864	0.6116	0.8304	0.086
Mof_H 	H 	0.8396	0.6264	0.7952	0.029
Mof_C 	C 	0.9143	0.5109	0.9527	-0.021
Mof_C 	C 	0.9481	0.5078	0.0244	0.112
Mof_C 	C 	0.8809	0.4355	0.9544	0.235
Mof_C 	C 	0.91279	0.43411	0.0238	-0.107
Mof_C 	C 	0.947	0.4704	0.0612	-0.061
Mof_H 	H 	0.9686	0.4707	0.1085	0.062
Mof_C 	C 	0.8818	0.4715	0.9169	-0.157
Mof_H 	H 	0.8614	0.469	0.8698	0.105
Mof_C 	C 	0.86393	0.35708	0.0788	0.1
Mof_H 	H 	0.8349	0.3516	0.0657	0.014
Mof_C 	C 	0.8671	0.38943	0.0417	-0.181
Mof_H 	H 	0.8397	0.4047	0.0035	0.114
Mof_C 	C 	0.9097	0.39886	0.0609	0.159
Mof_C 	C 	0.95001	0.37512	0.1184	-0.193
Mof_H 	H 	0.9791	0.3811	0.132	0.108
Mof_C 	C 	0.94841	0.34293	0.1561	0.116
Mof_C 	C 	0.90421	0.33375	0.1346	-0.162
Mof_C 	C 	0.90206	0.30081	0.1771	0.414
Mof_C 	C 	0.0284	0.5299	0.1422	-0.023
Mof_H 	H 	0.0455	0.5005	0.1515	0.054
Mof_H 	H 	0.0203	0.5315	0.169	0.057
Mof_C 	C 	0.8249	0.3916	0.84	1.366
Mof_H 	H 	0.8013	0.4164	0.8104	-0.355
Mof_H 	H 	0.8496	0.3944	0.8395	-0.335
Mof_C 	C 	0.8004	0.3393	0.8118	-3.414
Mof_H 	H 	0.8203	0.3164	0.849	1.069
Mof_H 	H 	0.7702	0.3406	0.7992	1.07
Mof_C 	C 	0.7925	0.322	0.7584	4.363
Mof_H 	H 	0.7779	0.2908	0.7462	-1.282
Mof_H 	H 	0.8221	0.3193	0.7704	-1.231
Mof_H 	H 	0.7718	0.3435	0.7204	-1.236
Mof_C 	C 	0.7484	0.2574	0.0633	0.153
Mof_H 	H 	0.7644	0.2557	0.0491	-0.028
Mof_C 	C 	0.704	0.2598	0.0175	-0.202
Mof_H 	H 	0.6897	0.2648	0.9728	0.11
Mof_C 	C 	0.6754	0.2554	0.0299	0.085
Mof_C 	C 	0.7011	0.2534	0.1	-0.145
Mof_H 	H 	0.6853	0.2511	0.1145	0.053
Mof_C 	C 	0.7512	0.2549	0.1478	0.079
Mof_H 	H 	0.768	0.2543	0.194	0.004
Mof_C 	C 	0.54936	0.2815	0.8703	0.092
Mof_H 	H 	0.533	0.298	0.8295	0.001
Mof_C 	C 	0.59793	0.28184	0.9174	-0.13
Mof_H 	H 	0.6139	0.2978	0.9079	0.086
Mof_C 	C 	0.62295	0.25881	0.9783	0.053
Mof_C 	C 	0.59701	0.2371	0.9894	-0.121
Mof_H 	H 	0.6125	0.2222	0.031	0.059
Mof_C 	C 	0.5493	0.2372	0.9402	0.088
Mof_H 	H 	0.5327	0.2214	0.9487	0.005
Mof_N 	N 	0.77498	0.25706	0.13017	-0.264
Mof_N 	N 	0.52459	0.25852	0.88039	-0.251
Mof_O 	O 	0.85784	0.80701	0.67041	-0.476
Mof_O 	O 	0.936	0.81538	0.75387	-0.467
Mof_O 	O 	0.9424	0.107	0.5911	-0.219
Mof_O 	O 	0.838	0.9422	0.4521	-0.172
Mof_O 	O 	0.85518	0.2115	0.27062	-0.485
Mof_O 	O 	0.93366	0.21246	0.35266	-0.474
Mof_O 	O 	0.86679	0.68893	0.76414	-0.468
Mof_O 	O 	0.94561	0.68991	0.83788	-0.464
Mof_O 	O 	0.9853	0.5401	0.064	-0.182
Mof_O 	O 	0.8477	0.3996	0.9167	-0.412
Mof_O 	O 	0.86161	0.29315	0.15482	-0.467
Mof_O 	O 	0.93997	0.28353	0.23065	-0.471
Mof_Zn	Zn	0.84766	0.25326	0.20264	1.217
Mof_Zn	Zn	0.952	0.2467	0.30658	1.216
Mof_C 	C 	0.39557	0.32848	0.6999	0.415
Mof_C 	C 	0.39356	0.37295	0.6648	-0.153
Mof_C 	C 	0.43498	0.39785	0.6945	0.083
Mof_H 	H 	0.4637	0.389	0.7372	0.017
Mof_C 	C 	0.4329	0.43617	0.6595	-0.158
Mof_H 	H 	0.4606	0.4529	0.6793	0.087
Mof_C 	C 	0.3912	0.44994	0.5967	0.11
Mof_C 	C 	0.3502	0.4259	0.5691	-0.159
Mof_H 	H 	0.3214	0.4351	0.5266	0.109
Mof_C 	C 	0.35147	0.38863	0.6034	0.092
Mof_H 	H 	0.3233	0.3737	0.5848	0.015
Mof_C 	C 	0.4185	0.5679	0.5566	0.181
Mof_C 	C 	0.4169	0.53	0.5901	-0.134
Mof_H 	H 	0.434	0.5331	0.6363	0.084
Mof_C 	C 	0.3923	0.4911	0.5582	-0.013
Mof_C 	C 	0.3667	0.4835	0.4883	0.117
Mof_C 	C 	0.3622	0.5196	0.4493	-0.071
Mof_H 	H 	0.3427	0.5152	0.4026	0.081
Mof_C 	C 	0.3881	0.565	0.4813	-0.095
Mof_C 	C 	0.433	0.6526	0.434	0.221
Mof_H 	H 	0.4618	0.6649	0.4516	-0.022
Mof_C 	C 	0.4322	0.6215	0.4726	-0.279
Mof_H 	H 	0.4602	0.6141	0.5169	0.145
Mof_C 	C 	0.3901	0.6012	0.4461	0.239
Mof_C 	C 	0.3487	0.6171	0.3837	-0.314
Mof_H 	H 	0.3193	0.607	0.3662	0.185
Mof_C 	C 	0.352	0.6478	0.3484	0.262
Mof_H 	H 	0.3239	0.6573	0.3053	-0.053
Mof_C 	C 	0.39281	0.66551	0.3713	-0.272
Mof_C 	C 	0.39345	0.69976	0.3282	0.462
Mof_C 	C 	0.4708	0.6158	0.6701	0.017
Mof_H 	H 	0.4906	0.5886	0.699	0.025
Mof_H 	H 	0.4502	0.6249	0.6769	0.043
Mof_C 	C 	0.5011	0.6607	0.6783	-0.143
Mof_H 	H 	0.4958	0.663	0.6377	0.105
Mof_H 	H 	0.5347	0.6548	0.7168	0.088
Mof_C 	C 	0.40675	0.17273	0.8133	0.419
Mof_C 	C 	0.40948	0.12939	0.8495	-0.145
Mof_C 	C 	0.45286	0.107	0.903	0.088
Mof_H 	H 	0.4806	0.1174	0.9149	0.019
Mof_C 	C 	0.4544	0.06912	0.9381	-0.156
Mof_H 	H 	0.4838	0.0563	0.9758	0.11
Mof_C 	C 	0.4146	0.05023	0.9192	0.115
Mof_C 	C 	0.3704	0.072	0.8632	-0.147
Mof_H 	H 	0.3424	0.0594	0.8484	0.099
Mof_C 	C 	0.36864	0.1116	0.8304	0.086
Mof_H 	H 	0.3396	0.1264	0.7952	0.029
Mof_C 	C 	0.4143	0.0109	0.9527	-0.021
Mof_C 	C 	0.4481	0.0078	0.0244	0.112
Mof_C 	C 	0.3809	0.9355	0.9544	0.235
Mof_C 	C 	0.41279	0.93411	0.0238	-0.108
Mof_C 	C 	0.447	0.9704	0.0612	-0.061
Mof_H 	H 	0.4686	0.9707	0.1085	0.062
Mof_C 	C 	0.3818	0.9715	0.9169	-0.157
Mof_H 	H 	0.3614	0.969	0.8698	0.105
Mof_C 	C 	0.36393	0.85708	0.0788	0.1
Mof_H 	H 	0.3349	0.8516	0.0657	0.014
Mof_C 	C 	0.3671	0.88943	0.0417	-0.181
Mof_H 	H 	0.3397	0.9047	0.0035	0.114
Mof_C 	C 	0.4097	0.89886	0.0609	0.16
Mof_C 	C 	0.45001	0.87512	0.1184	-0.193
Mof_H 	H 	0.4791	0.8811	0.132	0.108
Mof_C 	C 	0.44841	0.84293	0.1561	0.116
Mof_C 	C 	0.40421	0.83375	0.1346	-0.162
Mof_C 	C 	0.40206	0.80081	0.1771	0.414
Mof_C 	C 	0.5284	0.0299	0.1422	-0.023
Mof_H 	H 	0.5455	0.0005	0.1515	0.054
Mof_H 	H 	0.5203	0.0315	0.169	0.057
Mof_C 	C 	0.3249	0.8916	0.84	1.366
Mof_H 	H 	0.3013	0.9164	0.8104	-0.355
Mof_H 	H 	0.3496	0.8944	0.8395	-0.335
Mof_C 	C 	0.3004	0.8393	0.8118	-3.415
Mof_H 	H 	0.3203	0.8164	0.849	1.069
Mof_H 	H 	0.2702	0.8406	0.7992	1.07
Mof_C 	C 	0.2925	0.822	0.7584	4.363
Mof_H 	H 	0.2779	0.7908	0.7462	-1.282
Mof_H 	H 	0.3221	0.8193	0.7704	-1.231
Mof_H 	H 	0.2718	0.8435	0.7204	-1.236
Mof_C 	C 	0.2484	0.7574	0.0633	0.153
Mof_H 	H 	0.2644	0.7557	0.0491	-0.028
Mof_C 	C 	0.204	0.7598	0.0175	-0.203
Mof_H 	H 	0.1897	0.7648	0.9728	0.11
Mof_C 	C 	0.1754	0.7554	0.0299	0.085
Mof_C 	C 	0.2011	0.7534	0.1	-0.145
Mof_H 	H 	0.1853	0.7511	0.1145	0.054
Mof_C 	C 	0.2512	0.7549	0.1478	0.079
Mof_H 	H 	0.268	0.7543	0.194	0.004
Mof_C 	C 	0.04936	0.7815	0.8703	0.092
Mof_H 	H 	0.033	0.798	0.8295	0.002
Mof_C 	C 	0.09793	0.78184	0.9174	-0.13
Mof_H 	H 	0.1139	0.7978	0.9079	0.086
Mof_C 	C 	0.12295	0.75881	0.9783	0.053
Mof_C 	C 	0.09701	0.7371	0.9894	-0.121
Mof_H 	H 	0.1125	0.7222	0.031	0.059
Mof_C 	C 	0.0493	0.7372	0.9402	0.087
Mof_H 	H 	0.0327	0.7214	0.9487	0.005
Mof_N 	N 	0.27498	0.75706	0.13017	-0.264
Mof_N 	N 	0.02459	0.75852	0.88039	-0.25
Mof_O 	O 	0.35784	0.30701	0.67041	-0.476
Mof_O 	O 	0.436	0.31538	0.75387	-0.467
Mof_O 	O 	0.4424	0.607	0.5911	-0.219
Mof_O 	O 	0.338	0.4422	0.4521	-0.172
Mof_O 	O 	0.35518	0.7115	0.27062	-0.485
Mof_O 	O 	0.43366	0.71246	0.35266	-0.474
Mof_O 	O 	0.36679	0.18893	0.76414	-0.468
Mof_O 	O 	0.44561	0.18991	0.83788	-0.464
Mof_O 	O 	0.4853	0.0401	0.064	-0.182
Mof_O 	O 	0.3477	0.8996	0.9167	-0.412
Mof_O 	O 	0.36161	0.79315	0.15482	-0.467
Mof_O 	O 	0.43997	0.78353	0.23065	-0.471
Mof_Zn	Zn	0.34766	0.75326	0.20264	1.217
Mof_Zn	Zn	0.452	0.7467	0.30658	1.216
Mof_C 	C 	0.89557	0.17152	0.1999	0.415
Mof_C 	C 	0.89356	0.12705	0.1648	-0.153
Mof_C 	C 	0.93498	0.10215	0.1945	0.083
Mof_H 	H 	0.9637	0.111	0.2372	0.017
Mof_C 	C 	0.9329	0.06383	0.1595	-0.158
Mof_H 	H 	0.9606	0.0471	0.1793	0.087
Mof_C 	C 	0.8912	0.05006	0.0967	0.11
Mof_C 	C 	0.8502	0.0741	0.0691	-0.159
Mof_H 	H 	0.8214	0.0649	0.0266	0.109
Mof_C 	C 	0.85147	0.11137	0.1034	0.092
Mof_H 	H 	0.8233	0.1263	0.0848	0.015
Mof_C 	C 	0.9185	0.9321	0.0566	0.181
Mof_C 	C 	0.9169	0.97	0.0901	-0.135
Mof_H 	H 	0.934	0.9669	0.1363	0.085
Mof_C 	C 	0.8923	0.0089	0.0582	-0.012
Mof_C 	C 	0.8667	0.0165	0.9883	0.116
Mof_C 	C 	0.8622	0.9804	0.9493	-0.07
Mof_H 	H 	0.8427	0.9848	0.9026	0.08
Mof_C 	C 	0.8881	0.935	0.9813	-0.095
Mof_C 	C 	0.933	0.8474	0.934	0.221
Mof_H 	H 	0.9618	0.8351	0.9516	-0.022
Mof_C 	C 	0.9322	0.8785	0.9726	-0.28
Mof_H 	H 	0.9602	0.8859	0.0169	0.146
Mof_C 	C 	0.8901	0.8988	0.9461	0.239
Mof_C 	C 	0.8487	0.8829	0.8837	-0.314
Mof_H 	H 	0.8193	0.893	0.8662	0.186
Mof_C 	C 	0.852	0.8522	0.8484	0.262
Mof_H 	H 	0.8239	0.8427	0.8053	-0.053
Mof_C 	C 	0.89281	0.83449	0.8713	-0.273
Mof_C 	C 	0.89345	0.80024	0.8282	0.462
Mof_C 	C 	0.9708	0.8842	0.1701	0.017
Mof_H 	H 	0.9906	0.9114	0.199	0.025
Mof_H 	H 	0.9502	0.8751	0.1769	0.043
Mof_C 	C 	0.0011	0.8393	0.1783	-0.143
Mof_H 	H 	0.9958	0.837	0.1377	0.105
Mof_H 	H 	0.0347	0.8452	0.2168	0.088
Mof_C 	C 	0.90675	0.32727	0.3133	0.419
Mof_C 	C 	0.90948	0.37061	0.3495	-0.145
Mof_C 	C 	0.95286	0.393	0.403	0.088
Mof_H 	H 	0.9806	0.3826	0.4149	0.019
Mof_C 	C 	0.9544	0.43088	0.4381	-0.156
Mof_H 	H 	0.9838	0.4437	0.4758	0.11
Mof_C 	C 	0.9146	0.44977	0.4192	0.115
Mof_C 	C 	0.8704	0.428	0.3632	-0.147
Mof_H 	H 	0.8424	0.4406	0.3484	0.099
Mof_C 	C 	0.86864	0.3884	0.3304	0.086
Mof_H 	H 	0.8396	0.3736	0.2952	0.029
Mof_C 	C 	0.9143	0.4891	0.4527	-0.021
Mof_C 	C 	0.9481	0.4922	0.5244	0.112
Mof_C 	C 	0.8809	0.5645	0.4544	0.235
Mof_C 	C 	0.91279	0.56589	0.5238	-0.108
Mof_C 	C 	0.947	0.5296	0.5612	-0.061
Mof_H 	H 	0.9686	0.5293	0.6085	0.062
Mof_C 	C 	0.8818	0.5285	0.4169	-0.157
Mof_H 	H 	0.8614	0.531	0.3698	0.105
Mof_C 	C 	0.86393	0.64292	0.5788	0.1
Mof_H 	H 	0.8349	0.6484	0.5657	0.014
Mof_C 	C 	0.8671	0.61057	0.5417	-0.181
Mof_H 	H 	0.8397	0.5953	0.5035	0.114
Mof_C 	C 	0.9097	0.60114	0.5609	0.16
Mof_C 	C 	0.95001	0.62488	0.6184	-0.193
Mof_H 	H 	0.9791	0.6189	0.632	0.108
Mof_C 	C 	0.94841	0.65707	0.6561	0.116
Mof_C 	C 	0.90421	0.66625	0.6346	-0.162
Mof_C 	C 	0.90206	0.69919	0.6771	0.414
Mof_C 	C 	0.0284	0.4701	0.6422	-0.023
Mof_H 	H 	0.0455	0.4995	0.6515	0.054
Mof_H 	H 	0.0203	0.4685	0.669	0.057
Mof_C 	C 	0.8249	0.6084	0.34	1.366
Mof_H 	H 	0.8013	0.5836	0.3104	-0.355
Mof_H 	H 	0.8496	0.6056	0.3395	-0.335
Mof_C 	C 	0.8004	0.6607	0.3118	-3.414
Mof_H 	H 	0.8203	0.6836	0.349	1.069
Mof_H 	H 	0.7702	0.6594	0.2992	1.07
Mof_C 	C 	0.7925	0.678	0.2584	4.363
Mof_H 	H 	0.7779	0.7092	0.2462	-1.282
Mof_H 	H 	0.8221	0.6807	0.2704	-1.231
Mof_H 	H 	0.7718	0.6565	0.2204	-1.236
Mof_C 	C 	0.7484	0.7426	0.5633	0.153
Mof_H 	H 	0.7644	0.7443	0.5491	-0.028
Mof_C 	C 	0.704	0.7402	0.5175	-0.202
Mof_H 	H 	0.6897	0.7352	0.4728	0.11
Mof_C 	C 	0.6754	0.7446	0.5299	0.085
Mof_C 	C 	0.7011	0.7466	0.6	-0.145
Mof_H 	H 	0.6853	0.7489	0.6145	0.054
Mof_C 	C 	0.7512	0.7451	0.6478	0.079
Mof_H 	H 	0.768	0.7457	0.694	0.004
Mof_C 	C 	0.54936	0.7185	0.3703	0.092
Mof_H 	H 	0.533	0.702	0.3295	0.001
Mof_C 	C 	0.59793	0.71816	0.4174	-0.13
Mof_H 	H 	0.6139	0.7022	0.4079	0.086
Mof_C 	C 	0.62295	0.74119	0.4783	0.053
Mof_C 	C 	0.59701	0.7629	0.4894	-0.121
Mof_H 	H 	0.6125	0.7778	0.531	0.059
Mof_C 	C 	0.5493	0.7628	0.4402	0.088
Mof_H 	H 	0.5327	0.7786	0.4487	0.005
Mof_N 	N 	0.77498	0.74294	0.63017	-0.264
Mof_N 	N 	0.52459	0.74148	0.38039	-0.251
Mof_O 	O 	0.85784	0.19299	0.17041	-0.476
Mof_O 	O 	0.936	0.18462	0.25387	-0.467
Mof_O 	O 	0.9424	0.893	0.0911	-0.219
Mof_O 	O 	0.838	0.0578	0.9521	-0.172
Mof_O 	O 	0.85518	0.7885	0.77062	-0.485
Mof_O 	O 	0.93366	0.78754	0.85266	-0.474
Mof_O 	O 	0.86679	0.31107	0.26414	-0.468
Mof_O 	O 	0.94561	0.31009	0.33788	-0.464
Mof_O 	O 	0.9853	0.4599	0.564	-0.182
Mof_O 	O 	0.8477	0.6004	0.4167	-0.412
Mof_O 	O 	0.86161	0.70685	0.65482	-0.467
Mof_O 	O 	0.93997	0.71647	0.73065	-0.471
Mof_Zn	Zn	0.84766	0.74674	0.70264	1.217
Mof_Zn	Zn	0.952	0.7533	0.80658	1.216
Mof_C 	C 	0.39557	0.67152	0.1999	0.415
Mof_C 	C 	0.39356	0.62705	0.1648	-0.153
Mof_C 	C 	0.43498	0.60215	0.1945	0.083
Mof_H 	H 	0.4637	0.611	0.2372	0.017
Mof_C 	C 	0.4329	0.56383	0.1595	-0.158
Mof_H 	H 	0.4606	0.5471	0.1793	0.087
Mof_C 	C 	0.3912	0.55006	0.0967	0.11
Mof_C 	C 	0.3502	0.5741	0.0691	-0.159
Mof_H 	H 	0.3214	0.5649	0.0266	0.109
Mof_C 	C 	0.35147	0.61137	0.1034	0.092
Mof_H 	H 	0.3233	0.6263	0.0848	0.015
Mof_C 	C 	0.4185	0.4321	0.0566	0.181
Mof_C 	C 	0.4169	0.47	0.0901	-0.134
Mof_H 	H 	0.434	0.4669	0.1363	0.084
Mof_C 	C 	0.3923	0.5089	0.0582	-0.013
Mof_C 	C 	0.3667	0.5165	0.9883	0.117
Mof_C 	C 	0.3622	0.4804	0.9493	-0.071
Mof_H 	H 	0.3427	0.4848	0.9026	0.081
Mof_C 	C 	0.3881	0.435	0.9813	-0.095
Mof_C 	C 	0.433	0.3474	0.934	0.221
Mof_H 	H 	0.4618	0.3351	0.9516	-0.022
Mof_C 	C 	0.4322	0.3785	0.9726	-0.279
Mof_H 	H 	0.4602	0.3859	0.0169	0.145
Mof_C 	C 	0.3901	0.3988	0.9461	0.239
Mof_C 	C 	0.3487	0.3829	0.8837	-0.314
Mof_H 	H 	0.3193	0.393	0.8662	0.185
Mof_C 	C 	0.352	0.3522	0.8484	0.262
Mof_H 	H 	0.3239	0.3427	0.8053	-0.053
Mof_C 	C 	0.39281	0.33449	0.8713	-0.273
Mof_C 	C 	0.39345	0.30024	0.8282	0.462
Mof_C 	C 	0.4708	0.3842	0.1701	0.017
Mof_H 	H 	0.4906	0.4114	0.199	0.025
Mof_H 	H 	0.4502	0.3751	0.1769	0.043
Mof_C 	C 	0.5011	0.3393	0.1783	-0.143
Mof_H 	H 	0.4958	0.337	0.1377	0.105
Mof_H 	H 	0.5347	0.3452	0.2168	0.088
Mof_C 	C 	0.40675	0.82727	0.3133	0.419
Mof_C 	C 	0.40948	0.87061	0.3495	-0.145
Mof_C 	C 	0.45286	0.893	0.403	0.088
Mof_H 	H 	0.4806	0.8826	0.4149	0.019
Mof_C 	C 	0.4544	0.93088	0.4381	-0.156
Mof_H 	H 	0.4838	0.9437	0.4758	0.11
Mof_C 	C 	0.4146	0.94977	0.4192	0.115
Mof_C 	C 	0.3704	0.928	0.3632	-0.147
Mof_H 	H 	0.3424	0.9406	0.3484	0.099
Mof_C 	C 	0.36864	0.8884	0.3304	0.086
Mof_H 	H 	0.3396	0.8736	0.2952	0.029
Mof_C 	C 	0.4143	0.9891	0.4527	-0.021
Mof_C 	C 	0.4481	0.9922	0.5244	0.112
Mof_C 	C 	0.3809	0.0645	0.4544	0.235
Mof_C 	C 	0.41279	0.06589	0.5238	-0.108
Mof_C 	C 	0.447	0.0296	0.5612	-0.061
Mof_H 	H 	0.4686	0.0293	0.6085	0.062
Mof_C 	C 	0.3818	0.0285	0.4169	-0.157
Mof_H 	H 	0.3614	0.031	0.3698	0.105
Mof_C 	C 	0.36393	0.14292	0.5788	0.1
Mof_H 	H 	0.3349	0.1484	0.5657	0.014
Mof_C 	C 	0.3671	0.11057	0.5417	-0.181
Mof_H 	H 	0.3397	0.0953	0.5035	0.114
Mof_C 	C 	0.4097	0.10114	0.5609	0.16
Mof_C 	C 	0.45001	0.12488	0.6184	-0.193
Mof_H 	H 	0.4791	0.1189	0.632	0.108
Mof_C 	C 	0.44841	0.15707	0.6561	0.116
Mof_C 	C 	0.40421	0.16625	0.6346	-0.162
Mof_C 	C 	0.40206	0.19919	0.6771	0.414
Mof_C 	C 	0.5284	0.9701	0.6422	-0.023
Mof_H 	H 	0.5455	0.9995	0.6515	0.054
Mof_H 	H 	0.5203	0.9685	0.669	0.057
Mof_C 	C 	0.3249	0.1084	0.34	1.366
Mof_H 	H 	0.3013	0.0836	0.3104	-0.355
Mof_H 	H 	0.3496	0.1056	0.3395	-0.334
Mof_C 	C 	0.3004	0.1607	0.3118	-3.414
Mof_H 	H 	0.3203	0.1836	0.349	1.069
Mof_H 	H 	0.2702	0.1594	0.2992	1.07
Mof_C 	C 	0.2925	0.178	0.2584	4.363
Mof_H 	H 	0.2779	0.2092	0.2462	-1.282
Mof_H 	H 	0.3221	0.1807	0.2704	-1.231
Mof_H 	H 	0.2718	0.1565	0.2204	-1.236
Mof_C 	C 	0.2484	0.2426	0.5633	0.153
Mof_H 	H 	0.2644	0.2443	0.5491	-0.028
Mof_C 	C 	0.204	0.2402	0.5175	-0.202
Mof_H 	H 	0.1897	0.2352	0.4728	0.11
Mof_C 	C 	0.1754	0.2446	0.5299	0.085
Mof_C 	C 	0.2011	0.2466	0.6	-0.145
Mof_H 	H 	0.1853	0.2489	0.6145	0.054
Mof_C 	C 	0.2512	0.2451	0.6478	0.079
Mof_H 	H 	0.268	0.2457	0.694	0.004
Mof_C 	C 	0.04936	0.2185	0.3703	0.092
Mof_H 	H 	0.033	0.202	0.3295	0.001
Mof_C 	C 	0.09793	0.21816	0.4174	-0.13
Mof_H 	H 	0.1139	0.2022	0.4079	0.086
Mof_C 	C 	0.12295	0.24119	0.4783	0.053
Mof_C 	C 	0.09701	0.2629	0.4894	-0.121
Mof_H 	H 	0.1125	0.2778	0.531	0.059
Mof_C 	C 	0.0493	0.2628	0.4402	0.088
Mof_H 	H 	0.0327	0.2786	0.4487	0.005
Mof_N 	N 	0.27498	0.24294	0.63017	-0.264
Mof_N 	N 	0.02459	0.24148	0.38039	-0.251
Mof_O 	O 	0.35784	0.69299	0.17041	-0.476
Mof_O 	O 	0.436	0.68462	0.25387	-0.467
Mof_O 	O 	0.4424	0.393	0.0911	-0.219
Mof_O 	O 	0.338	0.5578	0.9521	-0.172
Mof_O 	O 	0.35518	0.2885	0.77062	-0.485
Mof_O 	O 	0.43366	0.28754	0.85266	-0.474
Mof_O 	O 	0.36679	0.81107	0.26414	-0.468
Mof_O 	O 	0.44561	0.81009	0.33788	-0.464
Mof_O 	O 	0.4853	0.9599	0.564	-0.182
Mof_O 	O 	0.3477	0.1004	0.4167	-0.412
Mof_O 	O 	0.36161	0.20685	0.65482	-0.467
Mof_O 	O 	0.43997	0.21647	0.73065	-0.471
Mof_Zn	Zn	0.34766	0.24674	0.70264	1.217
Mof_Zn	Zn	0.452	0.2533	0.80658	1.216
_end
