data_functionalizedCrystal
_audit_creation_method	'EQeq! by Chris Wilmer'
_symmetry_space_group_name_H-M	'P1'
_symmetry_Int_Tables_number	1
_symmetry_cell_setting	triclinic
loop_
_symmetry_equiv_pos_as_xyz
  x,y,z
_cell_length_a	16.991
_cell_length_b	16.991
_cell_length_c	16.991
_cell_angle_alpha	90
_cell_angle_beta	90
_cell_angle_gamma	90
loop_
_atom_site_label
_atom_site_type_symbol
_atom_site_fract_x
_atom_site_fract_y
_atom_site_fract_z
_atom_site_charge
Mof_C 	C 	0.36851	0.89914	0.6875	-0.039
Mof_H 	H 	0.3777	0.8589	0.7234	-0.028
Mof_N 	N 	0.40973	0.96832	0.68278	-0.275
Mof_H 	H 	0.4587	0.0798	0.5743	0.144
Mof_H 	H 	0.4058	0.1228	0.6364	0.165
Mof_H 	H 	0.3724	0.1039	0.5525	0.139
Mof_C 	C 	0.86851	0.39914	0.1875	-0.035
Mof_H 	H 	0.8777	0.3589	0.2234	-0.021
Mof_N 	N 	0.90973	0.46832	0.18278	-0.355
Mof_H 	H 	0.9587	0.5798	0.0743	0.257
Mof_H 	H 	0.9058	0.6228	0.1364	0.255
Mof_H 	H 	0.8724	0.6039	0.0525	0.222
Mof_C 	C 	0.63149	0.10086	0.6875	-0.045
Mof_H 	H 	0.6223	0.1411	0.7234	-0.023
Mof_N 	N 	0.59027	0.03168	0.68278	-0.464
Mof_H 	H 	0.5413	0.9202	0.5743	0.33
Mof_H 	H 	0.5942	0.8772	0.6364	0.334
Mof_H 	H 	0.6276	0.8961	0.5525	0.317
Mof_C 	C 	0.13149	0.60086	0.1875	-0.049
Mof_H 	H 	0.1223	0.6411	0.2234	-0.031
Mof_N 	N 	0.09027	0.53168	0.18278	-0.352
Mof_H 	H 	0.0413	0.4202	0.0743	0.103
Mof_H 	H 	0.0942	0.3772	0.1364	0.142
Mof_H 	H 	0.1276	0.3961	0.0525	0.106
Mof_C 	C 	0.63149	0.89914	0.3125	-0.038
Mof_H 	H 	0.6223	0.8589	0.2766	-0.024
Mof_N 	N 	0.59027	0.96832	0.31722	-0.274
Mof_H 	H 	0.5413	0.0798	0.4257	0.143
Mof_H 	H 	0.5942	0.1228	0.3636	0.164
Mof_H 	H 	0.6276	0.1039	0.4475	0.137
Mof_C 	C 	0.13149	0.39914	0.8125	-0.05
Mof_H 	H 	0.1223	0.3589	0.7766	-0.029
Mof_N 	N 	0.09027	0.46832	0.81722	-0.387
Mof_H 	H 	0.0413	0.5798	0.9257	0.228
Mof_H 	H 	0.0942	0.6228	0.8636	0.256
Mof_H 	H 	0.1276	0.6039	0.9475	0.246
Mof_C 	C 	0.36851	0.10086	0.3125	-0.045
Mof_H 	H 	0.3777	0.1411	0.2766	-0.018
Mof_N 	N 	0.40973	0.03168	0.31722	-0.463
Mof_H 	H 	0.4587	0.9202	0.4257	0.334
Mof_H 	H 	0.4058	0.8772	0.3636	0.338
Mof_H 	H 	0.3724	0.8961	0.4475	0.321
Mof_C 	C 	0.86851	0.60086	0.8125	-0.034
Mof_H 	H 	0.8777	0.6411	0.7766	-0.013
Mof_N 	N 	0.90973	0.53168	0.81722	-0.384
Mof_H 	H 	0.9587	0.4202	0.9257	0.365
Mof_H 	H 	0.9058	0.3772	0.8636	0.349
Mof_H 	H 	0.8724	0.3961	0.9475	0.343
Mof_C 	C 	0.6875	0.36851	0.89914	-0.04
Mof_H 	H 	0.7234	0.3777	0.8589	-0.029
Mof_N 	N 	0.68278	0.40973	0.96832	-0.276
Mof_H 	H 	0.5743	0.4587	0.0798	0.143
Mof_H 	H 	0.6364	0.4058	0.1228	0.164
Mof_H 	H 	0.5525	0.3724	0.1039	0.138
Mof_C 	C 	0.1875	0.86851	0.39914	-0.035
Mof_H 	H 	0.2234	0.8777	0.3589	-0.021
Mof_N 	N 	0.18278	0.90973	0.46832	-0.355
Mof_H 	H 	0.0743	0.9587	0.5798	0.257
Mof_H 	H 	0.1364	0.9058	0.6228	0.255
Mof_H 	H 	0.0525	0.8724	0.6039	0.222
Mof_C 	C 	0.6875	0.63149	0.10086	-0.045
Mof_H 	H 	0.7234	0.6223	0.1411	-0.023
Mof_N 	N 	0.68278	0.59027	0.03168	-0.464
Mof_H 	H 	0.5743	0.5413	0.9202	0.33
Mof_H 	H 	0.6364	0.5942	0.8772	0.334
Mof_H 	H 	0.5525	0.6276	0.8961	0.317
Mof_C 	C 	0.1875	0.13149	0.60086	-0.049
Mof_H 	H 	0.2234	0.1223	0.6411	-0.031
Mof_N 	N 	0.18278	0.09027	0.53168	-0.352
Mof_H 	H 	0.0743	0.0413	0.4202	0.103
Mof_H 	H 	0.1364	0.0942	0.3772	0.142
Mof_H 	H 	0.0525	0.1276	0.3961	0.106
Mof_C 	C 	0.3125	0.63149	0.89914	-0.038
Mof_H 	H 	0.2766	0.6223	0.8589	-0.024
Mof_N 	N 	0.31722	0.59027	0.96832	-0.274
Mof_H 	H 	0.4257	0.5413	0.0798	0.143
Mof_H 	H 	0.3636	0.5942	0.1228	0.164
Mof_H 	H 	0.4475	0.6276	0.1039	0.137
Mof_C 	C 	0.8125	0.13149	0.39914	-0.05
Mof_H 	H 	0.7766	0.1223	0.3589	-0.029
Mof_N 	N 	0.81722	0.09027	0.46832	-0.387
Mof_H 	H 	0.9257	0.0413	0.5798	0.228
Mof_H 	H 	0.8636	0.0942	0.6228	0.256
Mof_H 	H 	0.9475	0.1276	0.6039	0.246
Mof_C 	C 	0.3125	0.36851	0.10086	-0.045
Mof_H 	H 	0.2766	0.3777	0.1411	-0.018
Mof_N 	N 	0.31722	0.40973	0.03168	-0.463
Mof_H 	H 	0.4257	0.4587	0.9202	0.334
Mof_H 	H 	0.3636	0.4058	0.8772	0.338
Mof_H 	H 	0.4475	0.3724	0.8961	0.321
Mof_C 	C 	0.8125	0.86851	0.60086	-0.034
Mof_H 	H 	0.7766	0.8777	0.6411	-0.013
Mof_N 	N 	0.81722	0.90973	0.53168	-0.384
Mof_H 	H 	0.9257	0.9587	0.4202	0.365
Mof_H 	H 	0.8636	0.9058	0.3772	0.349
Mof_H 	H 	0.9475	0.8724	0.3961	0.343
Mof_C 	C 	0.89914	0.6875	0.36851	-0.04
Mof_H 	H 	0.8589	0.7234	0.3777	-0.029
Mof_N 	N 	0.96832	0.68278	0.40973	-0.276
Mof_H 	H 	0.0798	0.5743	0.4587	0.143
Mof_H 	H 	0.1228	0.6364	0.4058	0.164
Mof_H 	H 	0.1039	0.5525	0.3724	0.138
Mof_C 	C 	0.39914	0.1875	0.86851	-0.035
Mof_H 	H 	0.3589	0.2234	0.8777	-0.021
Mof_N 	N 	0.46832	0.18278	0.90973	-0.355
Mof_H 	H 	0.5798	0.0743	0.9587	0.257
Mof_H 	H 	0.6228	0.1364	0.9058	0.255
Mof_H 	H 	0.6039	0.0525	0.8724	0.222
Mof_C 	C 	0.10086	0.6875	0.63149	-0.045
Mof_H 	H 	0.1411	0.7234	0.6223	-0.023
Mof_N 	N 	0.03168	0.68278	0.59027	-0.464
Mof_H 	H 	0.9202	0.5743	0.5413	0.33
Mof_H 	H 	0.8772	0.6364	0.5942	0.334
Mof_H 	H 	0.8961	0.5525	0.6276	0.317
Mof_C 	C 	0.60086	0.1875	0.13149	-0.049
Mof_H 	H 	0.6411	0.2234	0.1223	-0.031
Mof_N 	N 	0.53168	0.18278	0.09027	-0.352
Mof_H 	H 	0.4202	0.0743	0.0413	0.103
Mof_H 	H 	0.3772	0.1364	0.0942	0.142
Mof_H 	H 	0.3961	0.0525	0.1276	0.106
Mof_C 	C 	0.89914	0.3125	0.63149	-0.038
Mof_H 	H 	0.8589	0.2766	0.6223	-0.024
Mof_N 	N 	0.96832	0.31722	0.59027	-0.274
Mof_H 	H 	0.0798	0.4257	0.5413	0.143
Mof_H 	H 	0.1228	0.3636	0.5942	0.164
Mof_H 	H 	0.1039	0.4475	0.6276	0.137
Mof_C 	C 	0.39914	0.8125	0.13149	-0.05
Mof_H 	H 	0.3589	0.7766	0.1223	-0.029
Mof_N 	N 	0.46832	0.81722	0.09027	-0.387
Mof_H 	H 	0.5798	0.9257	0.0413	0.228
Mof_H 	H 	0.6228	0.8636	0.0942	0.256
Mof_H 	H 	0.6039	0.9475	0.1276	0.246
Mof_C 	C 	0.10086	0.3125	0.36851	-0.045
Mof_H 	H 	0.1411	0.2766	0.3777	-0.018
Mof_N 	N 	0.03168	0.31722	0.40973	-0.463
Mof_H 	H 	0.9202	0.4257	0.4587	0.334
Mof_H 	H 	0.8772	0.3636	0.4058	0.338
Mof_H 	H 	0.8961	0.4475	0.3724	0.321
Mof_C 	C 	0.60086	0.8125	0.86851	-0.034
Mof_H 	H 	0.6411	0.7766	0.8777	-0.013
Mof_N 	N 	0.53168	0.81722	0.90973	-0.384
Mof_H 	H 	0.4202	0.9257	0.9587	0.365
Mof_H 	H 	0.3772	0.8636	0.9058	0.349
Mof_H 	H 	0.3961	0.9475	0.8724	0.343
Mof_C 	C 	0.89914	0.36851	0.6875	-0.04
Mof_H 	H 	0.8589	0.3777	0.7234	-0.029
Mof_N 	N 	0.96832	0.40973	0.68278	-0.276
Mof_H 	H 	0.0798	0.4587	0.5743	0.143
Mof_H 	H 	0.1228	0.4058	0.6364	0.164
Mof_H 	H 	0.1039	0.3724	0.5525	0.138
Mof_C 	C 	0.39914	0.86851	0.1875	-0.035
Mof_H 	H 	0.3589	0.8777	0.2234	-0.021
Mof_N 	N 	0.46832	0.90973	0.18278	-0.355
Mof_H 	H 	0.5798	0.9587	0.0743	0.257
Mof_H 	H 	0.6228	0.9058	0.1364	0.255
Mof_H 	H 	0.6039	0.8724	0.0525	0.222
Mof_C 	C 	0.10086	0.63149	0.6875	-0.045
Mof_H 	H 	0.1411	0.6223	0.7234	-0.023
Mof_N 	N 	0.03168	0.59027	0.68278	-0.464
Mof_H 	H 	0.9202	0.5413	0.5743	0.33
Mof_H 	H 	0.8772	0.5942	0.6364	0.334
Mof_H 	H 	0.8961	0.6276	0.5525	0.317
Mof_C 	C 	0.60086	0.13149	0.1875	-0.049
Mof_H 	H 	0.6411	0.1223	0.2234	-0.031
Mof_N 	N 	0.53168	0.09027	0.18278	-0.352
Mof_H 	H 	0.4202	0.0413	0.0743	0.103
Mof_H 	H 	0.3772	0.0942	0.1364	0.142
Mof_H 	H 	0.3961	0.1276	0.0525	0.106
Mof_C 	C 	0.89914	0.63149	0.3125	-0.038
Mof_H 	H 	0.8589	0.6223	0.2766	-0.024
Mof_N 	N 	0.96832	0.59027	0.31722	-0.274
Mof_H 	H 	0.0798	0.5413	0.4257	0.143
Mof_H 	H 	0.1228	0.5942	0.3636	0.164
Mof_H 	H 	0.1039	0.6276	0.4475	0.137
Mof_C 	C 	0.39914	0.13149	0.8125	-0.05
Mof_H 	H 	0.3589	0.1223	0.7766	-0.029
Mof_N 	N 	0.46832	0.09027	0.81722	-0.387
Mof_H 	H 	0.5798	0.0413	0.9257	0.228
Mof_H 	H 	0.6228	0.0942	0.8636	0.256
Mof_H 	H 	0.6039	0.1276	0.9475	0.246
Mof_C 	C 	0.10086	0.36851	0.3125	-0.045
Mof_H 	H 	0.1411	0.3777	0.2766	-0.018
Mof_N 	N 	0.03168	0.40973	0.31722	-0.463
Mof_H 	H 	0.9202	0.4587	0.4257	0.334
Mof_H 	H 	0.8772	0.4058	0.3636	0.338
Mof_H 	H 	0.8961	0.3724	0.4475	0.321
Mof_C 	C 	0.60086	0.86851	0.8125	-0.034
Mof_H 	H 	0.6411	0.8777	0.7766	-0.013
Mof_N 	N 	0.53168	0.90973	0.81722	-0.384
Mof_H 	H 	0.4202	0.9587	0.9257	0.365
Mof_H 	H 	0.3772	0.9058	0.8636	0.349
Mof_H 	H 	0.3961	0.8724	0.9475	0.343
Mof_C 	C 	0.36851	0.6875	0.89914	-0.04
Mof_H 	H 	0.3777	0.7234	0.8589	-0.029
Mof_N 	N 	0.40973	0.68278	0.96832	-0.276
Mof_H 	H 	0.4587	0.5743	0.0798	0.143
Mof_H 	H 	0.4058	0.6364	0.1228	0.164
Mof_H 	H 	0.3724	0.5525	0.1039	0.138
Mof_C 	C 	0.86851	0.1875	0.39914	-0.035
Mof_H 	H 	0.8777	0.2234	0.3589	-0.021
Mof_N 	N 	0.90973	0.18278	0.46832	-0.355
Mof_H 	H 	0.9587	0.0743	0.5798	0.257
Mof_H 	H 	0.9058	0.1364	0.6228	0.255
Mof_H 	H 	0.8724	0.0525	0.6039	0.222
Mof_C 	C 	0.63149	0.6875	0.10086	-0.045
Mof_H 	H 	0.6223	0.7234	0.1411	-0.023
Mof_N 	N 	0.59027	0.68278	0.03168	-0.464
Mof_H 	H 	0.5413	0.5743	0.9202	0.33
Mof_H 	H 	0.5942	0.6364	0.8772	0.334
Mof_H 	H 	0.6276	0.5525	0.8961	0.317
Mof_C 	C 	0.13149	0.1875	0.60086	-0.049
Mof_H 	H 	0.1223	0.2234	0.6411	-0.031
Mof_N 	N 	0.09027	0.18278	0.53168	-0.352
Mof_H 	H 	0.0413	0.0743	0.4202	0.103
Mof_H 	H 	0.0942	0.1364	0.3772	0.142
Mof_H 	H 	0.1276	0.0525	0.3961	0.106
Mof_C 	C 	0.63149	0.3125	0.89914	-0.038
Mof_H 	H 	0.6223	0.2766	0.8589	-0.024
Mof_N 	N 	0.59027	0.31722	0.96832	-0.274
Mof_H 	H 	0.5413	0.4257	0.0798	0.143
Mof_H 	H 	0.5942	0.3636	0.1228	0.164
Mof_H 	H 	0.6276	0.4475	0.1039	0.137
Mof_C 	C 	0.13149	0.8125	0.39914	-0.05
Mof_H 	H 	0.1223	0.7766	0.3589	-0.029
Mof_N 	N 	0.09027	0.81722	0.46832	-0.387
Mof_H 	H 	0.0413	0.9257	0.5798	0.228
Mof_H 	H 	0.0942	0.8636	0.6228	0.256
Mof_H 	H 	0.1276	0.9475	0.6039	0.246
Mof_C 	C 	0.36851	0.3125	0.10086	-0.045
Mof_H 	H 	0.3777	0.2766	0.1411	-0.018
Mof_N 	N 	0.40973	0.31722	0.03168	-0.463
Mof_H 	H 	0.4587	0.4257	0.9202	0.334
Mof_H 	H 	0.4058	0.3636	0.8772	0.338
Mof_H 	H 	0.3724	0.4475	0.8961	0.321
Mof_C 	C 	0.86851	0.8125	0.60086	-0.034
Mof_H 	H 	0.8777	0.7766	0.6411	-0.013
Mof_N 	N 	0.90973	0.81722	0.53168	-0.384
Mof_H 	H 	0.9587	0.9257	0.4202	0.365
Mof_H 	H 	0.9058	0.8636	0.3772	0.349
Mof_H 	H 	0.8724	0.9475	0.3961	0.343
Mof_C 	C 	0.6875	0.89914	0.36851	-0.04
Mof_H 	H 	0.7234	0.8589	0.3777	-0.029
Mof_N 	N 	0.68278	0.96832	0.40973	-0.276
Mof_H 	H 	0.5743	0.0798	0.4587	0.143
Mof_H 	H 	0.6364	0.1228	0.4058	0.164
Mof_H 	H 	0.5525	0.1039	0.3724	0.138
Mof_C 	C 	0.1875	0.39914	0.86851	-0.035
Mof_H 	H 	0.2234	0.3589	0.8777	-0.021
Mof_N 	N 	0.18278	0.46832	0.90973	-0.355
Mof_H 	H 	0.0743	0.5798	0.9587	0.257
Mof_H 	H 	0.1364	0.6228	0.9058	0.255
Mof_H 	H 	0.0525	0.6039	0.8724	0.222
Mof_C 	C 	0.6875	0.10086	0.63149	-0.045
Mof_H 	H 	0.7234	0.1411	0.6223	-0.023
Mof_N 	N 	0.68278	0.03168	0.59027	-0.464
Mof_H 	H 	0.5743	0.9202	0.5413	0.33
Mof_H 	H 	0.6364	0.8772	0.5942	0.334
Mof_H 	H 	0.5525	0.8961	0.6276	0.317
Mof_C 	C 	0.1875	0.60086	0.13149	-0.049
Mof_H 	H 	0.2234	0.6411	0.1223	-0.031
Mof_N 	N 	0.18278	0.53168	0.09027	-0.352
Mof_H 	H 	0.0743	0.4202	0.0413	0.103
Mof_H 	H 	0.1364	0.3772	0.0942	0.142
Mof_H 	H 	0.0525	0.3961	0.1276	0.106
Mof_C 	C 	0.3125	0.89914	0.63149	-0.038
Mof_H 	H 	0.2766	0.8589	0.6223	-0.024
Mof_N 	N 	0.31722	0.96832	0.59027	-0.274
Mof_H 	H 	0.4257	0.0798	0.5413	0.143
Mof_H 	H 	0.3636	0.1228	0.5942	0.164
Mof_H 	H 	0.4475	0.1039	0.6276	0.137
Mof_C 	C 	0.8125	0.39914	0.13149	-0.05
Mof_H 	H 	0.7766	0.3589	0.1223	-0.029
Mof_N 	N 	0.81722	0.46832	0.09027	-0.387
Mof_H 	H 	0.9257	0.5798	0.0413	0.228
Mof_H 	H 	0.8636	0.6228	0.0942	0.256
Mof_H 	H 	0.9475	0.6039	0.1276	0.246
Mof_C 	C 	0.3125	0.10086	0.36851	-0.045
Mof_H 	H 	0.2766	0.1411	0.3777	-0.018
Mof_N 	N 	0.31722	0.03168	0.40973	-0.463
Mof_H 	H 	0.4257	0.9202	0.4587	0.334
Mof_H 	H 	0.3636	0.8772	0.4058	0.338
Mof_H 	H 	0.4475	0.8961	0.3724	0.321
Mof_C 	C 	0.8125	0.60086	0.86851	-0.034
Mof_H 	H 	0.7766	0.6411	0.8777	-0.013
Mof_N 	N 	0.81722	0.53168	0.90973	-0.384
Mof_H 	H 	0.9257	0.4202	0.9587	0.365
Mof_H 	H 	0.8636	0.3772	0.9058	0.349
Mof_H 	H 	0.9475	0.3961	0.8724	0.343
Mof_C 	C 	0.37705	0.0079	0.62295	0.142
Mof_C 	C 	0.4061	0.0855	0.5939	-1.033
Mof_C 	C 	0.87705	0.5079	0.12295	0.433
Mof_C 	C 	0.9061	0.5855	0.0939	-1.583
Mof_C 	C 	0.62295	0.9921	0.62295	0.71
Mof_C 	C 	0.5939	0.9145	0.5939	-2.072
Mof_C 	C 	0.12295	0.4921	0.12295	0.252
Mof_C 	C 	0.0939	0.4145	0.0939	-0.948
Mof_C 	C 	0.62295	0.0079	0.37705	0.142
Mof_C 	C 	0.5939	0.0855	0.4061	-1.033
Mof_C 	C 	0.12295	0.5079	0.87705	0.433
Mof_C 	C 	0.0939	0.5855	0.9061	-1.583
Mof_C 	C 	0.37705	0.9921	0.37705	0.714
Mof_C 	C 	0.4061	0.9145	0.4061	-2.092
Mof_C 	C 	0.87705	0.4921	0.87705	0.592
Mof_C 	C 	0.9061	0.4145	0.9061	-2.126
Mof_C 	C 	0.62295	0.37705	0.0079	0.142
Mof_C 	C 	0.5939	0.4061	0.0855	-1.033
Mof_C 	C 	0.12295	0.87705	0.5079	0.433
Mof_C 	C 	0.0939	0.9061	0.5855	-1.583
Mof_C 	C 	0.62295	0.62295	0.9921	0.71
Mof_C 	C 	0.5939	0.5939	0.9145	-2.072
Mof_C 	C 	0.12295	0.12295	0.4921	0.252
Mof_C 	C 	0.0939	0.0939	0.4145	-0.948
Mof_C 	C 	0.37705	0.62295	0.0079	0.142
Mof_C 	C 	0.4061	0.5939	0.0855	-1.033
Mof_C 	C 	0.87705	0.12295	0.5079	0.433
Mof_C 	C 	0.9061	0.0939	0.5855	-1.583
Mof_C 	C 	0.37705	0.37705	0.9921	0.714
Mof_C 	C 	0.4061	0.4061	0.9145	-2.092
Mof_C 	C 	0.87705	0.87705	0.4921	0.592
Mof_C 	C 	0.9061	0.9061	0.4145	-2.126
Mof_C 	C 	0.0079	0.62295	0.37705	0.142
Mof_C 	C 	0.0855	0.5939	0.4061	-1.033
Mof_C 	C 	0.5079	0.12295	0.87705	0.433
Mof_C 	C 	0.5855	0.0939	0.9061	-1.583
Mof_C 	C 	0.9921	0.62295	0.62295	0.71
Mof_C 	C 	0.9145	0.5939	0.5939	-2.072
Mof_C 	C 	0.4921	0.12295	0.12295	0.252
Mof_C 	C 	0.4145	0.0939	0.0939	-0.948
Mof_C 	C 	0.0079	0.37705	0.62295	0.142
Mof_C 	C 	0.0855	0.4061	0.5939	-1.033
Mof_C 	C 	0.5079	0.87705	0.12295	0.433
Mof_C 	C 	0.5855	0.9061	0.0939	-1.583
Mof_C 	C 	0.9921	0.37705	0.37705	0.714
Mof_C 	C 	0.9145	0.4061	0.4061	-2.092
Mof_C 	C 	0.4921	0.87705	0.87705	0.592
Mof_C 	C 	0.4145	0.9061	0.9061	-2.126
Mof_Zn	Zn	0.5	-5.14628e-33	0.75	1.134
Mof_Zn	Zn	0.5	-2.57314e-33	0.25	1.135
Mof_Zn	Zn	0.75	0.5	-0	1.134
Mof_Zn	Zn	0.25	0.5	-0	1.135
Mof_Zn	Zn	-3.27158e-33	0.75	0.5	1.134
Mof_Zn	Zn	-8.41786e-33	0.25	0.5	1.135
Mof_Zn	Zn	-2.33423e-33	0.5	0.75	1.134
Mof_Zn	Zn	-4.20893e-33	0.5	0.25	1.135
Mof_Zn	Zn	0.5	0.75	-0	1.134
Mof_Zn	Zn	0.5	0.25	-0	1.135
Mof_Zn	Zn	0.75	-5.14628e-33	0.5	1.134
Mof_Zn	Zn	0.25	-5.14628e-33	0.5	1.135
_end
