data_functionalizedCrystal
_audit_creation_method	'EQeq! by Chris Wilmer'
_symmetry_space_group_name_H-M	'P1'
_symmetry_Int_Tables_number	1
_symmetry_cell_setting	triclinic
loop_
_symmetry_equiv_pos_as_xyz
  x,y,z
_cell_length_a	10.5211
_cell_length_b	24.1489
_cell_length_c	37.8771
_cell_angle_alpha	88.2663
_cell_angle_beta	82.0167
_cell_angle_gamma	77.4181
loop_
_atom_site_label
_atom_site_type_symbol
_atom_site_fract_x
_atom_site_fract_y
_atom_site_fract_z
_atom_site_charge
Mof_Mn	Mn	0.39068	0.73654	0.58676	0.863
Mof_Mn	Mn	0.05843	0.73202	0.61748	1.047
Mof_Mn	Mn	0.79919	0.66961	0.63657	0.856
Mof_Mn	Mn	0.71398	0.26346	0.41324	0.864
Mof_Mn	Mn	0.40793	0.26798	0.38252	1.046
Mof_Mn	Mn	0.10537	0.33039	0.36343	0.855
Mof_Mn	Mn	0.22744	0.23654	0.91324	0.863
Mof_Mn	Mn	0.92591	0.23202	0.88252	1.044
Mof_Mn	Mn	0.68576	0.16961	0.86343	0.858
Mof_Mn	Mn	0.37722	0.76346	0.08676	0.863
Mof_Mn	Mn	0.04045	0.76798	0.11748	1.031
Mof_Mn	Mn	0.7188	0.83039	0.13657	0.858
Mof_H 	H 	0.0787	0.8488	0.8296	0.037
Mof_H 	H 	0.1098	0.7818	0.8298	0.034
Mof_H 	H 	0.3233	0.8694	0.8522	0.036
Mof_H 	H 	0.2885	0.8674	0.894	0.037
Mof_H 	H 	0.052	0.779	0.8968	0.033
Mof_H 	H 	0.0083	0.8454	0.894	0.038
Mof_H 	H 	0.3293	0.7644	0.8946	0.053
Mof_H 	H 	0.3733	0.7646	0.8534	0.051
Mof_H 	H 	0.1242	0.6572	0.8406	0.009
Mof_H 	H 	0.1521	0.5912	0.835	0.014
Mof_H 	H 	0.4611	0.5582	0.8696	0.027
Mof_H 	H 	0.4505	0.5686	0.8288	0.029
Mof_H 	H 	0.1721	0.5766	0.8964	0.027
Mof_H 	H 	0.1517	0.6416	0.904	0.014
Mof_H 	H 	0.405	0.6684	0.837	0.052
Mof_H 	H 	0.4164	0.66	0.8778	0.046
Mof_H 	H 	0.0619	0.8126	0.7724	0.159
Mof_H 	H 	0.0707	0.7914	0.7126	-0.031
Mof_H 	H 	0.4591	0.7738	0.6994	-0.031
Mof_H 	H 	0.4475	0.7914	0.7594	0.161
Mof_H 	H 	0.9786	0.0046	0.8774	0.202
Mof_H 	H 	0.9904	0.0934	0.891	-0.076
Mof_H 	H 	0.3789	0.0404	0.8864	-0.061
Mof_H 	H 	0.3575	0.9496	0.8748	0.193
Mof_H 	H 	0.1827	0.8374	0.9892	0.159
Mof_H 	H 	0.0574	0.837	0.045	-0.035
Mof_H 	H 	0.7627	0.8086	0.9998	-0.029
Mof_H 	H 	0.8838	0.8068	0.9436	0.146
Mof_H 	H 	0.0026	0.6384	0.8016	0.198
Mof_H 	H 	0.8864	0.6444	0.755	-0.078
Mof_H 	H 	0.212	0.6524	0.6898	-0.079
Mof_H 	H 	0.3267	0.6378	0.7374	0.208
Mof_H 	H 	0.285	0.423	0.8522	0.18
Mof_H 	H 	0.4086	0.3344	0.8546	-0.045
Mof_H 	H 	0.7302	0.3938	0.8502	-0.03
Mof_H 	H 	0.603	0.488	0.8466	0.158
Mof_H 	H 	0.4468	0.5796	0.9684	0.165
Mof_H 	H 	0.4081	0.6168	0.0264	-0.035
Mof_H 	H 	0.0553	0.6982	0.0102	-0.044
Mof_H 	H 	0.0912	0.661	0.9526	0.172
Mof_H 	H 	0.8059	0.5646	0.579	0.004
Mof_H 	H 	0.8502	0.5442	0.6792	0.033
Mof_H 	H 	0.8469	0.4532	0.658	0.031
Mof_H 	H 	0.8366	0.3892	0.6188	0.063
Mof_H 	H 	0.7952	0.3204	0.581	0.056
Mof_H 	H 	0.6822	0.4404	0.512	0.063
Mof_H 	H 	0.7209	0.5072	0.552	0.074
Mof_H 	H 	0.7323	0.3662	0.4706	-0.001
Mof_H 	H 	0.7064	0.265	0.5518	0.033
Mof_H 	H 	0.7013	0.2146	0.4968	0.024
Mof_H 	H 	0.7571	0.1512	0.1704	0.036
Mof_H 	H 	0.7214	0.2182	0.1702	0.033
Mof_H 	H 	0.0449	0.1306	0.1478	0.025
Mof_H 	H 	0.0499	0.1326	0.106	0.026
Mof_H 	H 	0.7278	0.221	0.1032	0.032
Mof_H 	H 	0.7477	0.1546	0.106	0.036
Mof_H 	H 	0.9883	0.2356	0.1054	0.053
Mof_H 	H 	0.9913	0.2354	0.1466	0.052
Mof_H 	H 	0.622	0.3428	0.1594	0.007
Mof_H 	H 	0.5783	0.4088	0.165	0.012
Mof_H 	H 	0.8889	0.4418	0.1304	0.028
Mof_H 	H 	0.8479	0.4314	0.1712	0.03
Mof_H 	H 	0.6451	0.4234	0.1036	0.027
Mof_H 	H 	0.6973	0.3584	0.096	0.013
Mof_H 	H 	0.9104	0.3316	0.163	0.053
Mof_H 	H 	0.9542	0.34	0.1222	0.047
Mof_H 	H 	0.6469	0.1874	0.2276	0.159
Mof_H 	H 	0.5747	0.2086	0.2874	-0.032
Mof_H 	H 	0.9323	0.2262	0.3006	-0.03
Mof_H 	H 	0.9983	0.2086	0.2406	0.164
Mof_H 	H 	0.8606	0.9954	0.1226	0.171
Mof_H 	H 	0.9748	0.9066	0.109	-0.033
Mof_H 	H 	0.3057	0.9596	0.1136	-0.04
Mof_H 	H 	0.1819	0.0504	0.1252	0.169
Mof_H 	H 	0.0093	0.1626	0.0108	0.158
Mof_H 	H 	0.9394	0.163	0.955	-0.038
Mof_H 	H 	0.5711	0.1914	0.0002	-0.034
Mof_H 	H 	0.6342	0.1932	0.0564	0.15
Mof_H 	H 	0.4426	0.3616	0.1984	0.207
Mof_H 	H 	0.2858	0.3556	0.245	-0.09
Mof_H 	H 	0.5542	0.3476	0.3102	-0.087
Mof_H 	H 	0.7019	0.3622	0.2626	0.217
Mof_H 	H 	0.5602	0.577	0.1478	0.179
Mof_H 	H 	0.5976	0.6656	0.1454	-0.044
Mof_H 	H 	0.9742	0.6062	0.1498	-0.027
Mof_H 	H 	0.9376	0.512	0.1534	0.159
Mof_H 	H 	0.9948	0.4204	0.0316	0.167
Mof_H 	H 	0.0513	0.3832	0.9736	-0.039
Mof_H 	H 	0.7637	0.3018	0.9898	-0.043
Mof_H 	H 	0.7048	0.339	0.0474	0.173
Mof_H 	H 	0.9495	0.4354	0.421	0.003
Mof_H 	H 	0.0736	0.4558	0.3208	0.037
Mof_H 	H 	0.9581	0.5468	0.342	0.029
Mof_H 	H 	0.8446	0.6108	0.3812	0.065
Mof_H 	H 	0.6966	0.6796	0.419	0.056
Mof_H 	H 	0.6346	0.5596	0.488	0.062
Mof_H 	H 	0.7801	0.4928	0.448	0.074
Mof_H 	H 	0.5691	0.6338	0.5294	-0.001
Mof_H 	H 	0.5232	0.735	0.4482	0.033
Mof_H 	H 	0.4127	0.7854	0.5032	0.024
Mof_H 	H 	0.1583	0.3488	0.6704	0.038
Mof_H 	H 	0.1896	0.2818	0.6702	0.035
Mof_H 	H 	0.4255	0.3694	0.6478	0.036
Mof_H 	H 	0.4325	0.3674	0.606	0.037
Mof_H 	H 	0.1988	0.279	0.6032	0.033
Mof_H 	H 	0.1523	0.3454	0.606	0.038
Mof_H 	H 	0.4739	0.2644	0.6054	0.053
Mof_H 	H 	0.4767	0.2646	0.6466	0.051
Mof_H 	H 	0.2148	0.1572	0.6594	0.01
Mof_H 	H 	0.2371	0.0912	0.665	0.015
Mof_H 	H 	0.5807	0.0582	0.6304	0.027
Mof_H 	H 	0.5293	0.0686	0.6712	0.029
Mof_H 	H 	0.3185	0.0766	0.6036	0.028
Mof_H 	H 	0.3057	0.1416	0.596	0.014
Mof_H 	H 	0.492	0.1684	0.663	0.052
Mof_H 	H 	0.5442	0.16	0.6222	0.046
Mof_H 	H 	0.0843	0.3126	0.7276	0.16
Mof_H 	H 	0.0333	0.2914	0.7874	-0.031
Mof_H 	H 	0.4085	0.2738	0.8006	-0.031
Mof_H 	H 	0.4569	0.2914	0.7406	0.161
Mof_H 	H 	0.106	0.5046	0.6226	0.207
Mof_H 	H 	0.1314	0.5934	0.609	-0.075
Mof_H 	H 	0.5153	0.5404	0.6136	-0.061
Mof_H 	H 	0.4823	0.4496	0.6252	0.194
Mof_H 	H 	0.4219	0.3374	0.5108	0.166
Mof_H 	H 	0.3524	0.337	0.455	-0.042
Mof_H 	H 	0.0125	0.3086	0.5002	-0.036
Mof_H 	H 	0.0774	0.3068	0.5564	0.153
Mof_H 	H 	0.0542	0.1384	0.6984	0.196
Mof_H 	H 	0.8914	0.1444	0.745	-0.075
Mof_H 	H 	0.1518	0.1524	0.8102	-0.077
Mof_H 	H 	0.3141	0.1378	0.7626	0.206
Mof_H 	H 	0.3872	0.923	0.6478	0.18
Mof_H 	H 	0.5132	0.8344	0.6454	-0.044
Mof_H 	H 	0.8304	0.8938	0.6498	-0.03
Mof_H 	H 	0.6996	0.988	0.6534	0.158
Mof_H 	H 	0.6652	0.0796	0.5316	0.165
Mof_H 	H 	0.6845	0.1168	0.4736	-0.035
Mof_H 	H 	0.3155	0.1982	0.4898	-0.042
Mof_H 	H 	0.2938	0.161	0.5474	0.173
Mof_H 	H 	0.6349	0.0646	0.921	0.004
Mof_H 	H 	0.7794	0.0442	0.8208	0.033
Mof_H 	H 	0.7549	0.9532	0.842	0.031
Mof_H 	H 	0.7054	0.8892	0.8812	0.064
Mof_H 	H 	0.6262	0.8204	0.919	0.056
Mof_H 	H 	0.4442	0.9404	0.988	0.062
Mof_H 	H 	0.5229	0.0072	0.948	0.073
Mof_H 	H 	0.4529	0.8662	0.0294	-0.001
Mof_H 	H 	0.5082	0.765	0.9482	0.033
Mof_H 	H 	0.4481	0.7146	0.0032	0.024
Mof_H 	H 	0.1775	0.6512	0.3296	0.036
Mof_H 	H 	0.1416	0.7182	0.3298	0.033
Mof_H 	H 	0.4427	0.6306	0.3522	0.036
Mof_H 	H 	0.4059	0.6326	0.394	0.037
Mof_H 	H 	0.081	0.721	0.3968	0.031
Mof_H 	H 	0.1037	0.6546	0.394	0.036
Mof_H 	H 	0.3437	0.7356	0.3946	0.053
Mof_H 	H 	0.3879	0.7354	0.3534	0.051
Mof_H 	H 	0.0314	0.8428	0.3406	0.016
Mof_H 	H 	0.9933	0.9088	0.335	0.029
Mof_H 	H 	0.2693	0.9418	0.3696	0.03
Mof_H 	H 	0.2691	0.9314	0.3288	0.031
Mof_H 	H 	0.9987	0.9234	0.3964	0.039
Mof_H 	H 	0.0433	0.8584	0.404	0.02
Mof_H 	H 	0.3234	0.8316	0.337	0.054
Mof_H 	H 	0.3264	0.84	0.3778	0.048
Mof_H 	H 	0.1245	0.6874	0.2724	0.158
Mof_H 	H 	0.1121	0.7086	0.2126	-0.035
Mof_H 	H 	0.4829	0.7262	0.1994	-0.031
Mof_H 	H 	0.4889	0.7086	0.2594	0.162
Mof_H 	H 	0.2332	0.4954	0.3774	0.205
Mof_H 	H 	0.3338	0.4066	0.391	-0.075
Mof_H 	H 	0.6693	0.4596	0.3864	-0.061
Mof_H 	H 	0.5571	0.5504	0.3748	0.193
Mof_H 	H 	0.2701	0.6626	0.4892	0.163
Mof_H 	H 	0.1444	0.663	0.545	-0.039
Mof_H 	H 	0.8213	0.6914	0.4998	-0.033
Mof_H 	H 	0.9406	0.6932	0.4436	0.15
Mof_H 	H 	0.891	0.8616	0.3016	0.187
Mof_H 	H 	0.7808	0.8556	0.255	-0.069
Mof_H 	H 	0.1144	0.8476	0.1898	-0.068
Mof_H 	H 	0.2145	0.8622	0.2374	0.196
Mof_H 	H 	0.958	0.077	0.3522	0.187
Mof_H 	H 	0.993	0.1656	0.3546	-0.038
Mof_H 	H 	0.374	0.1062	0.3502	-0.029
Mof_H 	H 	0.341	0.012	0.3466	0.159
Mof_H 	H 	0.2764	0.9204	0.4684	0.164
Mof_H 	H 	0.2749	0.8832	0.5264	-0.035
Mof_H 	H 	0.0035	0.8018	0.5102	-0.041
Mof_H 	H 	0.0022	0.839	0.4526	0.171
Mof_H 	H 	0.6205	0.9354	0.079	0.004
Mof_H 	H 	0.6444	0.9558	0.1792	0.033
Mof_H 	H 	0.5501	0.0468	0.158	0.032
Mof_H 	H 	0.4758	0.1108	0.1188	0.064
Mof_H 	H 	0.3656	0.1796	0.081	0.055
Mof_H 	H 	0.3726	0.0596	0.012	0.062
Mof_H 	H 	0.4781	0.9928	0.052	0.073
Mof_H 	H 	0.3485	0.1338	0.9706	-0.001
Mof_H 	H 	0.2214	0.235	0.0518	0.032
Mof_H 	H 	0.1659	0.2854	0.9968	0.023
Mof_C 	C 	0.19864	0.81482	0.8683	0.016
Mof_C 	C 	0.14592	0.81502	0.83214	0.025
Mof_C 	C 	0.2534	0.86782	0.87158	0.028
Mof_C 	C 	0.08119	0.8143	0.89732	0.023
Mof_C 	C 	0.29902	0.76432	0.87164	-0.015
Mof_C 	C 	0.28897	0.61538	0.86108	-0.026
Mof_C 	C 	0.19294	0.62368	0.83424	0.098
Mof_C 	C 	0.40145	0.56332	0.85178	0.054
Mof_C 	C 	0.21711	0.60748	0.8971	0.071
Mof_C 	C 	0.35606	0.66502	0.86026	-0.01
Mof_C 	C 	0.25261	0.80404	0.77174	0.358
Mof_C 	C 	0.14254	0.8044	0.75792	-0.355
Mof_C 	C 	0.14733	0.79266	0.72188	0.234
Mof_C 	C 	0.26358	0.78328	0.70056	-0.26
Mof_C 	C 	0.37844	0.78176	0.71396	0.224
Mof_C 	C 	0.37045	0.79232	0.74978	-0.337
Mof_C 	C 	0.26695	0.76754	0.66136	0.448
Mof_C 	C 	0.16743	0.96814	0.8764	0.449
Mof_C 	C 	0.05984	0.01202	0.8801	-0.451
Mof_C 	C 	0.06624	0.0649	0.88742	0.343
Mof_C 	C 	0.18584	0.07638	0.88954	-0.33
Mof_C 	C 	0.29642	0.03318	0.88498	0.309
Mof_C 	C 	0.28311	0.97896	0.87822	-0.452
Mof_C 	C 	0.1991	0.13576	0.89804	0.457
Mof_C 	C 	0.04613	0.82184	0.9613	0.323
Mof_C 	C 	0.09775	0.83126	0.99104	-0.321
Mof_C 	C 	0.02194	0.83166	0.02446	0.215
Mof_C 	C 	0.8994	0.82434	0.02706	-0.258
Mof_C 	C 	0.84794	0.81456	0.99736	0.212
Mof_C 	C 	0.91961	0.81326	0.96372	-0.32
Mof_C 	C 	0.82086	0.82296	0.06272	0.412
Mof_C 	C 	0.17479	0.6366	0.77422	0.466
Mof_C 	C 	0.04595	0.63992	0.77858	-0.482
Mof_C 	C 	0.97508	0.64534	0.7511	0.344
Mof_C 	C 	0.03547	0.6524	0.71706	-0.363
Mof_C 	C 	0.16779	0.64902	0.7126	0.347
Mof_C 	C 	0.2362	0.6407	0.7411	-0.465
Mof_C 	C 	0.9582	0.66122	0.68738	0.484
Mof_C 	C 	0.43417	0.46366	0.851	0.366
Mof_C 	C 	0.37511	0.41762	0.85236	-0.377
Mof_C 	C 	0.44904	0.36514	0.85378	0.275
Mof_C 	C 	0.58031	0.3553	0.85408	-0.295
Mof_C 	C 	0.63939	0.39994	0.85108	0.231
Mof_C 	C 	0.56306	0.45696	0.84912	-0.356
Mof_C 	C 	0.66436	0.29762	0.85886	0.472
Mof_C 	C 	0.26738	0.61818	0.95566	0.382
Mof_C 	C 	0.36755	0.60382	0.97668	-0.344
Mof_C 	C 	0.3445	0.62732	0.01128	0.226
Mof_C 	C 	0.23155	0.6649	0.0228	-0.285
Mof_C 	C 	0.13636	0.67526	0.00182	0.258
Mof_C 	C 	0.1571	0.65198	0.96722	-0.395
Mof_C 	C 	0.21891	0.69452	0.05886	0.485
Mof_C 	C 	0.81337	0.5493	0.60156	0.107
Mof_C 	C 	0.84048	0.53664	0.656	0.003
Mof_C 	C 	0.83524	0.4869	0.64522	-0.006
Mof_C 	C 	0.78408	0.45388	0.58696	0.114
Mof_C 	C 	0.80582	0.39982	0.59714	-0.097
Mof_C 	C 	0.78064	0.3584	0.57432	-0.081
Mof_C 	C 	0.73557	0.37452	0.54294	0.1
Mof_C 	C 	0.7131	0.4286	0.5334	-0.077
Mof_C 	C 	0.73856	0.4688	0.55788	-0.101
Mof_C 	C 	0.71888	0.33522	0.48462	0.124
Mof_C 	C 	0.70847	0.28	0.52886	-0.007
Mof_C 	C 	0.70265	0.25274	0.49856	0.021
Mof_C 	C 	0.88176	0.18518	0.1317	0.008
Mof_C 	C 	0.79308	0.18498	0.16786	0.029
Mof_C 	C 	0.9928	0.13218	0.12842	0.051
Mof_C 	C 	0.79281	0.1857	0.10268	0.028
Mof_C 	C 	0.93498	0.23568	0.12836	-0.011
Mof_C 	C 	0.76543	0.38462	0.13892	-0.027
Mof_C 	C 	0.65086	0.37632	0.16576	0.102
Mof_C 	C 	0.81655	0.43668	0.14822	0.054
Mof_C 	C 	0.72169	0.39252	0.1029	0.071
Mof_C 	C 	0.88134	0.33498	0.13974	-0.01
Mof_C 	C 	0.82839	0.19596	0.22826	0.359
Mof_C 	C 	0.70486	0.1956	0.24208	-0.356
Mof_C 	C 	0.66187	0.20734	0.27812	0.235
Mof_C 	C 	0.74742	0.21672	0.29944	-0.26
Mof_C 	C 	0.87416	0.21824	0.28604	0.225
Mof_C 	C 	0.91255	0.20768	0.25022	-0.337
Mof_C 	C 	0.69585	0.23246	0.33864	0.449
Mof_C 	C 	0.01197	0.03186	0.1236	0.376
Mof_C 	C 	0.95196	0.98798	0.1199	-0.353
Mof_C 	C 	0.01856	0.9351	0.11258	0.238
Mof_C 	C 	0.15176	0.92362	0.11046	-0.271
Mof_C 	C 	0.21458	0.96682	0.11502	0.245
Mof_C 	C 	0.14029	0.02104	0.12178	-0.384
Mof_C 	C 	0.2329	0.86424	0.10196	0.435
Mof_C 	C 	0.82927	0.17816	0.0387	0.332
Mof_C 	C 	0.92005	0.16874	0.00896	-0.326
Mof_C 	C 	0.87806	0.16834	0.97554	0.231
Mof_C 	C 	0.7508	0.17566	0.97294	-0.274
Mof_C 	C 	0.65986	0.18544	0.00264	0.225
Mof_C 	C 	0.69659	0.18674	0.03628	-0.333
Mof_C 	C 	0.70654	0.17704	0.93728	0.418
Mof_C 	C 	0.58561	0.3634	0.22578	0.487
Mof_C 	C 	0.46445	0.36008	0.22142	-0.512
Mof_C 	C 	0.37152	0.35466	0.2489	0.378
Mof_C 	C 	0.40493	0.3476	0.28294	-0.391
Mof_C 	C 	0.52941	0.35098	0.2874	0.371
Mof_C 	C 	0.618	0.3593	0.2589	-0.488
Mof_C 	C 	0.3068	0.33878	0.31262	0.501
Mof_C 	C 	0.74883	0.53634	0.149	0.365
Mof_C 	C 	0.64509	0.58238	0.14764	-0.374
Mof_C 	C 	0.66796	0.63486	0.14622	0.273
Mof_C 	C 	0.78969	0.6447	0.14592	-0.292
Mof_C 	C 	0.89041	0.60006	0.14892	0.23
Mof_C 	C 	0.86914	0.54304	0.15088	-0.354
Mof_C 	C 	0.82084	0.70238	0.14114	0.47
Mof_C 	C 	0.84122	0.38182	0.04434	0.384
Mof_C 	C 	0.94805	0.39618	0.02332	-0.347
Mof_C 	C 	0.9831	0.37268	0.98872	0.232
Mof_C 	C 	0.91925	0.3351	0.9772	-0.287
Mof_C 	C 	0.81344	0.32474	0.99818	0.261
Mof_C 	C 	0.7763	0.34802	0.03278	-0.397
Mof_C 	C 	0.97229	0.30548	0.94114	0.486
Mof_C 	C 	0.96423	0.4507	0.39844	0.114
Mof_C 	C 	0.03312	0.46336	0.344	-0.012
Mof_C 	C 	0.96736	0.5131	0.35478	0.01
Mof_C 	C 	0.82492	0.54612	0.41304	0.117
Mof_C 	C 	0.80278	0.60018	0.40286	-0.099
Mof_C 	C 	0.71336	0.6416	0.42568	-0.079
Mof_C 	C 	0.65303	0.62548	0.45706	0.099
Mof_C 	C 	0.6751	0.5714	0.4666	-0.076
Mof_C 	C 	0.76524	0.5312	0.44212	-0.103
Mof_C 	C 	0.53872	0.66478	0.51538	0.124
Mof_C 	C 	0.51733	0.72	0.47114	-0.007
Mof_C 	C 	0.45395	0.74726	0.50144	0.021
Mof_C 	C 	0.31694	0.31482	0.6317	0.016
Mof_C 	C 	0.22806	0.31502	0.66786	0.025
Mof_C 	C 	0.37498	0.36782	0.62842	0.029
Mof_C 	C 	0.22851	0.3143	0.60268	0.025
Mof_C 	C 	0.42066	0.26432	0.62836	-0.015
Mof_C 	C 	0.40005	0.11538	0.63892	-0.025
Mof_C 	C 	0.27718	0.12368	0.66576	0.096
Mof_C 	C 	0.50323	0.06332	0.64822	0.054
Mof_C 	C 	0.36421	0.10748	0.6029	0.07
Mof_C 	C 	0.46632	0.16502	0.63974	-0.01
Mof_C 	C 	0.27435	0.30404	0.72826	0.358
Mof_C 	C 	0.15046	0.3044	0.74208	-0.355
Mof_C 	C 	0.11921	0.29266	0.77812	0.234
Mof_C 	C 	0.21414	0.28328	0.79944	-0.26
Mof_C 	C 	0.3424	0.28176	0.78604	0.224
Mof_C 	C 	0.37023	0.29232	0.75022	-0.337
Mof_C 	C 	0.17831	0.26754	0.83864	0.448
Mof_C 	C 	0.29383	0.46814	0.6236	0.453
Mof_C 	C 	0.18994	0.51202	0.6199	-0.457
Mof_C 	C 	0.20366	0.5649	0.61258	0.344
Mof_C 	C 	0.32538	0.57638	0.61046	-0.331
Mof_C 	C 	0.4314	0.53318	0.61502	0.31
Mof_C 	C 	0.41133	0.47896	0.62178	-0.454
Mof_C 	C 	0.34714	0.63576	0.60196	0.458
Mof_C 	C 	0.25743	0.32184	0.5387	0.339
Mof_C 	C 	0.33879	0.33126	0.50896	-0.34
Mof_C 	C 	0.2964	0.33166	0.47554	0.241
Mof_C 	C 	0.17646	0.32434	0.47294	-0.28
Mof_C 	C 	0.0953	0.31456	0.50264	0.231
Mof_C 	C 	0.13333	0.31326	0.53628	-0.339
Mof_C 	C 	0.13358	0.32296	0.43728	0.42
Mof_C 	C 	0.19901	0.1366	0.72578	0.461
Mof_C 	C 	0.07453	0.13992	0.72142	-0.473
Mof_C 	C 	0.97618	0.14534	0.7489	0.335
Mof_C 	C 	0.00253	0.1524	0.78294	-0.357
Mof_C 	C 	0.13039	0.14902	0.7874	0.342
Mof_C 	C 	0.2273	0.1407	0.7589	-0.46
Mof_C 	C 	0.89558	0.16122	0.81262	0.484
Mof_C 	C 	0.53517	0.96366	0.649	0.366
Mof_C 	C 	0.47747	0.91762	0.64764	-0.376
Mof_C 	C 	0.55282	0.86514	0.64622	0.275
Mof_C 	C 	0.68439	0.8553	0.64592	-0.295
Mof_C 	C 	0.74047	0.89994	0.64892	0.231
Mof_C 	C 	0.66218	0.95696	0.65088	-0.356
Mof_C 	C 	0.77322	0.79762	0.64114	0.472
Mof_C 	C 	0.47304	0.11818	0.54434	0.382
Mof_C 	C 	0.59423	0.10382	0.52332	-0.344
Mof_C 	C 	0.60578	0.12732	0.48872	0.227
Mof_C 	C 	0.50435	0.1649	0.4772	-0.284
Mof_C 	C 	0.38818	0.17526	0.49818	0.259
Mof_C 	C 	0.37432	0.15198	0.53278	-0.395
Mof_C 	C 	0.52777	0.19452	0.44114	0.486
Mof_C 	C 	0.66493	0.0493	0.89844	0.107
Mof_C 	C 	0.74648	0.03664	0.844	0.002
Mof_C 	C 	0.73046	0.9869	0.85478	-0.005
Mof_C 	C 	0.62104	0.95388	0.91304	0.115
Mof_C 	C 	0.65296	0.89982	0.90286	-0.097
Mof_C 	C 	0.60496	0.8584	0.92568	-0.08
Mof_C 	C 	0.52851	0.87452	0.95706	0.1
Mof_C 	C 	0.4965	0.9286	0.9666	-0.077
Mof_C 	C 	0.54644	0.9688	0.94212	-0.102
Mof_C 	C 	0.4535	0.83522	0.01538	0.124
Mof_C 	C 	0.48733	0.78	0.97114	-0.006
Mof_C 	C 	0.45121	0.75274	0.00144	0.021
Mof_C 	C 	0.26346	0.68518	0.3683	0.015
Mof_C 	C 	0.21094	0.68498	0.33214	0.027
Mof_C 	C 	0.37122	0.63218	0.37158	0.029
Mof_C 	C 	0.14549	0.6857	0.39732	0.026
Mof_C 	C 	0.31334	0.73568	0.37164	-0.015
Mof_C 	C 	0.15435	0.88462	0.36108	-0.011
Mof_C 	C 	0.06662	0.87632	0.33424	0.067
Mof_C 	C 	0.21477	0.93668	0.35178	0.047
Mof_C 	C 	0.07459	0.89252	0.3971	0.048
Mof_C 	C 	0.27108	0.83498	0.36026	-0.018
Mof_C 	C 	0.30665	0.69596	0.27174	0.359
Mof_C 	C 	0.19694	0.6956	0.25792	-0.357
Mof_C 	C 	0.18999	0.70734	0.22188	0.235
Mof_C 	C 	0.29686	0.71672	0.20056	-0.261
Mof_C 	C 	0.4102	0.71824	0.21396	0.225
Mof_C 	C 	0.41277	0.70768	0.24978	-0.338
Mof_C 	C 	0.28449	0.73246	0.16136	0.448
Mof_C 	C 	0.38557	0.53186	0.3764	0.451
Mof_C 	C 	0.32186	0.48798	0.3801	-0.456
Mof_C 	C 	0.38114	0.4351	0.38742	0.342
Mof_C 	C 	0.51222	0.42362	0.38954	-0.33
Mof_C 	C 	0.5796	0.46682	0.38498	0.309
Mof_C 	C 	0.51207	0.52104	0.37822	-0.453
Mof_C 	C 	0.58486	0.36424	0.39804	0.457
Mof_C 	C 	0.11797	0.67816	0.4613	0.33
Mof_C 	C 	0.17901	0.66874	0.49104	-0.332
Mof_C 	C 	0.1036	0.66834	0.52446	0.233
Mof_C 	C 	0.97374	0.67566	0.52706	-0.273
Mof_C 	C 	0.9125	0.68544	0.49736	0.223
Mof_C 	C 	0.98287	0.68674	0.46372	-0.328
Mof_C 	C 	0.89382	0.67704	0.56272	0.417
Mof_C 	C 	0.06139	0.8634	0.27422	0.43
Mof_C 	C 	0.93587	0.86008	0.27858	-0.445
Mof_C 	C 	0.87042	0.85466	0.2511	0.323
Mof_C 	C 	0.93787	0.8476	0.21706	-0.338
Mof_C 	C 	0.06681	0.85098	0.2126	0.309
Mof_C 	C 	0.1269	0.8593	0.2411	-0.432
Mof_C 	C 	0.86942	0.83878	0.18738	0.481
Mof_C 	C 	0.14783	0.03634	0.351	0.369
Mof_C 	C 	0.04273	0.08238	0.35236	-0.385
Mof_C 	C 	0.06418	0.13486	0.35378	0.268
Mof_C 	C 	0.18561	0.1447	0.35408	-0.293
Mof_C 	C 	0.28933	0.10006	0.35108	0.231
Mof_C 	C 	0.27002	0.04304	0.34912	-0.358
Mof_C 	C 	0.21198	0.20238	0.35886	0.471
Mof_C 	C 	0.13556	0.88182	0.45566	0.378
Mof_C 	C 	0.22137	0.89618	0.47668	-0.342
Mof_C 	C 	0.22182	0.87268	0.51128	0.225
Mof_C 	C 	0.14645	0.8351	0.5228	-0.282
Mof_C 	C 	0.06162	0.82474	0.50182	0.256
Mof_C 	C 	0.05908	0.84802	0.46722	-0.391
Mof_C 	C 	0.16343	0.80548	0.55886	0.485
Mof_C 	C 	0.61267	0.9507	0.10156	0.107
Mof_C 	C 	0.62712	0.96336	0.156	0.004
Mof_C 	C 	0.57214	0.0131	0.14522	-0.005
Mof_C 	C 	0.48796	0.04612	0.08696	0.115
Mof_C 	C 	0.45564	0.10018	0.09714	-0.097
Mof_C 	C 	0.38904	0.1416	0.07432	-0.08
Mof_C 	C 	0.36009	0.12548	0.04294	0.1
Mof_C 	C 	0.3917	0.0714	0.0334	-0.077
Mof_C 	C 	0.45736	0.0312	0.05788	-0.101
Mof_C 	C 	0.3041	0.16478	0.98462	0.124
Mof_C 	C 	0.23847	0.22	0.02886	-0.007
Mof_C 	C 	0.20539	0.24726	0.99856	0.021
Mof_N 	N 	0.83002	0.57814	0.62902	-0.19
Mof_N 	N 	0.80828	0.49512	0.61012	-0.143
Mof_N 	N 	0.69946	0.28908	0.4718	-0.19
Mof_N 	N 	0.71779	0.33422	0.519	-0.148
Mof_N 	N 	0.03718	0.42186	0.37098	-0.191
Mof_N 	N 	0.91352	0.50488	0.38988	-0.146
Mof_N 	N 	0.46034	0.71092	0.5282	-0.19
Mof_N 	N 	0.57101	0.66578	0.481	-0.147
Mof_N 	N 	0.70904	0.07814	0.87098	-0.19
Mof_N 	N 	0.6684	0.99512	0.88988	-0.143
Mof_N 	N 	0.42126	0.78908	0.0282	-0.19
Mof_N 	N 	0.48679	0.83422	0.981	-0.148
Mof_N 	N 	0.65816	0.92186	0.12902	-0.19
Mof_N 	N 	0.5534	0.00488	0.11012	-0.143
Mof_N 	N 	0.23854	0.21092	0.9718	-0.19
Mof_N 	N 	0.30201	0.16578	0.019	-0.148
Mof_O 	O 	0.25211	0.71546	0.86832	-0.17
Mof_O 	O 	0.25998	0.81416	0.80648	-0.265
Mof_O 	O 	0.14506	0.9166	0.87008	-0.286
Mof_O 	O 	0.12969	0.82028	0.93014	-0.253
Mof_O 	O 	0.25318	0.62976	0.80068	-0.305
Mof_O 	O 	0.34623	0.51524	0.8509	-0.264
Mof_O 	O 	0.30467	0.59546	0.9222	-0.279
Mof_O 	O 	0.1614	0.76846	0.65154	-0.417
Mof_O 	O 	0.37818	0.75622	0.64222	-0.391
Mof_O 	O 	0.09885	0.17548	0.90242	-0.455
Mof_O 	O 	0.30743	0.14322	0.90092	-0.389
Mof_O 	O 	0.70111	0.82928	0.0665	-0.334
Mof_O 	O 	0.87838	0.81906	0.09098	-0.435
Mof_O 	O 	0.84281	0.6592	0.69078	-0.41
Mof_O 	O 	0.01499	0.6705	0.65672	-0.437
Mof_O 	O 	0.60311	0.25672	0.86086	-0.404
Mof_O 	O 	0.77951	0.2927	0.85988	-0.421
Mof_O 	O 	0.10427	0.71654	0.07112	-0.423
Mof_O 	O 	0.32097	0.6944	0.07006	-0.452
Mof_O 	O 	0.83589	0.28454	0.13168	-0.17
Mof_O 	O 	0.88062	0.18584	0.19352	-0.264
Mof_O 	O 	0.93174	0.0834	0.12992	-0.268
Mof_O 	O 	0.88011	0.17972	0.06986	-0.255
Mof_O 	O 	0.68362	0.37024	0.19932	-0.31
Mof_O 	O 	0.71237	0.48476	0.1491	-0.263
Mof_O 	O 	0.82233	0.40454	0.0778	-0.279
Mof_O 	O 	0.5814	0.23154	0.34846	-0.417
Mof_O 	O 	0.77662	0.24378	0.35778	-0.39
Mof_O 	O 	0.17675	0.82452	0.09758	-0.45
Mof_O 	O 	0.35157	0.85678	0.09908	-0.383
Mof_O 	O 	0.59689	0.17072	0.9335	-0.335
Mof_O 	O 	0.78842	0.18094	0.90902	-0.439
Mof_O 	O 	0.19279	0.3408	0.30922	-0.416
Mof_O 	O 	0.34221	0.3295	0.34328	-0.443
Mof_O 	O 	0.72069	0.74328	0.13914	-0.403
Mof_O 	O 	0.93209	0.7073	0.14012	-0.415
Mof_O 	O 	0.89193	0.28346	0.92888	-0.422
Mof_O 	O 	0.08543	0.3056	0.92994	-0.452
Mof_O 	O 	0.37043	0.21546	0.63168	-0.169
Mof_O 	O 	0.31646	0.31416	0.69352	-0.265
Mof_O 	O 	0.26514	0.4166	0.62992	-0.287
Mof_O 	O 	0.30983	0.32028	0.56986	-0.257
Mof_O 	O 	0.30386	0.12976	0.69932	-0.303
Mof_O 	O 	0.44713	0.01524	0.6491	-0.263
Mof_O 	O 	0.47687	0.09546	0.5778	-0.279
Mof_O 	O 	0.06294	0.26846	0.84846	-0.416
Mof_O 	O 	0.2704	0.25622	0.85778	-0.391
Mof_O 	O 	0.25127	0.67548	0.59758	-0.456
Mof_O 	O 	0.45835	0.64322	0.59908	-0.389
Mof_O 	O 	0.01761	0.32928	0.4335	-0.337
Mof_O 	O 	0.21936	0.31906	0.40902	-0.439
Mof_O 	O 	0.78359	0.1592	0.80922	-0.41
Mof_O 	O 	0.92171	0.1705	0.84328	-0.44
Mof_O 	O 	0.71397	0.75672	0.63914	-0.404
Mof_O 	O 	0.88939	0.7927	0.64012	-0.422
Mof_O 	O 	0.42539	0.21654	0.42888	-0.421
Mof_O 	O 	0.64103	0.1944	0.42994	-0.452
Mof_O 	O 	0.21757	0.78454	0.36832	-0.168
Mof_O 	O 	0.32414	0.68584	0.30648	-0.265
Mof_O 	O 	0.31166	0.5834	0.37008	-0.287
Mof_O 	O 	0.19997	0.67972	0.43014	-0.256
Mof_O 	O 	0.13294	0.87024	0.30068	-0.291
Mof_O 	O 	0.11147	0.98476	0.3509	-0.266
Mof_O 	O 	0.15013	0.90454	0.4222	-0.275
Mof_O 	O 	0.17986	0.73154	0.15154	-0.418
Mof_O 	O 	0.3844	0.74378	0.14222	-0.391
Mof_O 	O 	0.52433	0.32452	0.40242	-0.455
Mof_O 	O 	0.70065	0.35678	0.40092	-0.388
Mof_O 	O 	0.78039	0.67072	0.5665	-0.335
Mof_O 	O 	0.94744	0.68094	0.59098	-0.439
Mof_O 	O 	0.75201	0.8408	0.19078	-0.408
Mof_O 	O 	0.93549	0.8295	0.15672	-0.434
Mof_O 	O 	0.10983	0.24328	0.36086	-0.406
Mof_O 	O 	0.32221	0.2073	0.35988	-0.42
Mof_O 	O 	0.07081	0.78346	0.57112	-0.421
Mof_O 	O 	0.26537	0.8056	0.57006	-0.451
_end
