data_functionalizedCrystal
_audit_creation_method	'EQeq! by Chris Wilmer'
_symmetry_space_group_name_H-M	'P1'
_symmetry_Int_Tables_number	1
_symmetry_cell_setting	triclinic
loop_
_symmetry_equiv_pos_as_xyz
  x,y,z
_cell_length_a	9.153
_cell_length_b	17.895
_cell_length_c	10.668
_cell_angle_alpha	90
_cell_angle_beta	96.395
_cell_angle_gamma	90
loop_
_atom_site_label
_atom_site_type_symbol
_atom_site_fract_x
_atom_site_fract_y
_atom_site_fract_z
_atom_site_charge
Mof_Ag	Ag	0.63075	0.40979	0.97481	0.515
Mof_Ag	Ag	0.95235	0.45099	0.82649	0.565
Mof_N 	N 	0.6445	0.4756	0.1552	-0.169
Mof_N 	N 	0.5553	0.5372	0.1723	-0.156
Mof_N 	N 	0.7149	0.5243	0.3367	-0.115
Mof_N 	N 	0.7891	0.5338	0.4554	-0.113
Mof_N 	N 	0.9313	0.5809	0.6124	-0.106
Mof_N 	N 	0.8888	0.5086	0.6431	-0.161
Mof_N 	N 	0.8217	0.3378	0.7687	-0.161
Mof_N 	N 	0.6908	0.3267	0.8209	-0.165
Mof_N 	N 	0.7212	0.2354	0.6957	-0.116
Mof_N 	N 	0.6954	0.1706	0.6259	-0.114
Mof_N 	N 	0.5993	0.0935	0.4858	-0.184
Mof_N 	N 	0.6982	0.0542	0.5704	-0.164
Mof_C 	C 	0.7393	0.4688	0.2548	0.077
Mof_H 	H 	0.8114	0.4321	0.2677	-0.012
Mof_C 	C 	0.599	0.5649	0.2832	0.085
Mof_H 	H 	0.5575	0.6058	0.3197	-0.003
Mof_C 	C 	0.8712	0.594	0.4985	0.091
Mof_H 	H 	0.8824	0.6377	0.4534	-0.008
Mof_C 	C 	0.8018	0.4825	0.5489	0.102
Mof_H 	H 	0.7558	0.4361	0.5462	-0.006
Mof_C 	C 	0.8375	0.2815	0.6939	0.099
Mof_H 	H 	0.9161	0.2743	0.647	-0.016
Mof_C 	C 	0.6324	0.2647	0.7763	0.097
Mof_H 	H 	0.5447	0.2441	0.7963	-0.01
Mof_C 	C 	0.5993	0.1627	0.5204	0.083
Mof_H 	H 	0.5429	0.2007	0.4799	-0.012
Mof_C 	C 	0.7537	0.1022	0.6541	0.081
Mof_H 	H 	0.8225	0.0913	0.7225	-0.002
Mof_Ag	Ag	0.86925	0.90979	0.52519	0.513
Mof_Ag	Ag	0.54765	0.95099	0.67351	0.565
Mof_N 	N 	0.8555	0.9756	0.3448	-0.17
Mof_N 	N 	0.9447	0.0372	0.3277	-0.155
Mof_N 	N 	0.7851	0.0243	0.1633	-0.114
Mof_N 	N 	0.7109	0.0338	0.0446	-0.112
Mof_N 	N 	0.5687	0.0809	0.8876	-0.105
Mof_N 	N 	0.6112	0.0086	0.8569	-0.16
Mof_N 	N 	0.6783	0.8378	0.7313	-0.161
Mof_N 	N 	0.8092	0.8267	0.6791	-0.166
Mof_N 	N 	0.7788	0.7354	0.8043	-0.116
Mof_N 	N 	0.8046	0.6706	0.8741	-0.113
Mof_N 	N 	0.9007	0.5935	0.0142	-0.18
Mof_N 	N 	0.8018	0.5542	0.9296	-0.165
Mof_C 	C 	0.7607	0.9688	0.2452	0.077
Mof_H 	H 	0.6886	0.9321	0.2323	-0.012
Mof_C 	C 	0.901	0.0649	0.2168	0.085
Mof_H 	H 	0.9425	0.1058	0.1803	-0.002
Mof_C 	C 	0.6288	0.094	0.0015	0.091
Mof_H 	H 	0.6176	0.1377	0.0466	-0.008
Mof_C 	C 	0.6982	0.9825	0.9511	0.098
Mof_H 	H 	0.7442	0.9361	0.9538	-0.006
Mof_C 	C 	0.6625	0.7815	0.8061	0.099
Mof_H 	H 	0.5839	0.7743	0.853	-0.016
Mof_C 	C 	0.8676	0.7647	0.7237	0.097
Mof_H 	H 	0.9553	0.7441	0.7037	-0.011
Mof_C 	C 	0.9007	0.6627	0.9796	0.074
Mof_H 	H 	0.9571	0.7007	0.0201	-0.006
Mof_C 	C 	0.7463	0.6022	0.8459	0.081
Mof_H 	H 	0.6775	0.5913	0.7775	-0.003
Mof_Ag	Ag	0.36925	0.59021	0.02519	0.514
Mof_Ag	Ag	0.04765	0.54901	0.17351	0.564
Mof_N 	N 	0.3555	0.5244	0.8448	-0.169
Mof_N 	N 	0.4447	0.4628	0.8277	-0.156
Mof_N 	N 	0.2851	0.4757	0.6633	-0.115
Mof_N 	N 	0.2109	0.4662	0.5446	-0.113
Mof_N 	N 	0.0687	0.4191	0.3876	-0.106
Mof_N 	N 	0.1112	0.4914	0.3569	-0.161
Mof_N 	N 	0.1783	0.6622	0.2313	-0.161
Mof_N 	N 	0.3092	0.6733	0.1791	-0.165
Mof_N 	N 	0.2788	0.7646	0.3043	-0.116
Mof_N 	N 	0.3046	0.8294	0.3741	-0.114
Mof_N 	N 	0.4007	0.9065	0.5142	-0.184
Mof_N 	N 	0.3018	0.9458	0.4296	-0.164
Mof_C 	C 	0.2607	0.5312	0.7452	0.077
Mof_H 	H 	0.1886	0.5679	0.7323	-0.012
Mof_C 	C 	0.401	0.4351	0.7168	0.085
Mof_H 	H 	0.4425	0.3942	0.6803	-0.003
Mof_C 	C 	0.1288	0.406	0.5015	0.091
Mof_H 	H 	0.1176	0.3623	0.5466	-0.008
Mof_C 	C 	0.1982	0.5175	0.4511	0.102
Mof_H 	H 	0.2442	0.5639	0.4538	-0.006
Mof_C 	C 	0.1625	0.7185	0.3061	0.099
Mof_H 	H 	0.0839	0.7257	0.353	-0.016
Mof_C 	C 	0.3676	0.7353	0.2237	0.097
Mof_H 	H 	0.4553	0.7559	0.2037	-0.01
Mof_C 	C 	0.4007	0.8373	0.4796	0.083
Mof_H 	H 	0.4571	0.7993	0.5201	-0.012
Mof_C 	C 	0.2463	0.8978	0.3459	0.081
Mof_H 	H 	0.1775	0.9087	0.2775	-0.002
Mof_Ag	Ag	0.13075	0.09021	0.47481	0.513
Mof_Ag	Ag	0.45235	0.04901	0.32649	0.565
Mof_N 	N 	0.1445	0.0244	0.6552	-0.17
Mof_N 	N 	0.0553	0.9628	0.6723	-0.155
Mof_N 	N 	0.2149	0.9757	0.8367	-0.114
Mof_N 	N 	0.2891	0.9662	0.9554	-0.112
Mof_N 	N 	0.4313	0.9191	0.1124	-0.105
Mof_N 	N 	0.3888	0.9914	0.1431	-0.16
Mof_N 	N 	0.3217	0.1622	0.2687	-0.161
Mof_N 	N 	0.1908	0.1733	0.3209	-0.166
Mof_N 	N 	0.2212	0.2646	0.1957	-0.116
Mof_N 	N 	0.1954	0.3294	0.1259	-0.113
Mof_N 	N 	0.0993	0.4065	0.9858	-0.18
Mof_N 	N 	0.1982	0.4458	0.0704	-0.165
Mof_C 	C 	0.2393	0.0312	0.7548	0.077
Mof_H 	H 	0.3114	0.0679	0.7677	-0.012
Mof_C 	C 	0.099	0.9351	0.7832	0.085
Mof_H 	H 	0.0575	0.8942	0.8197	-0.002
Mof_C 	C 	0.3712	0.906	0.9985	0.091
Mof_H 	H 	0.3824	0.8623	0.9534	-0.008
Mof_C 	C 	0.3018	0.0175	0.0489	0.098
Mof_H 	H 	0.2558	0.0639	0.0462	-0.006
Mof_C 	C 	0.3375	0.2185	0.1939	0.099
Mof_H 	H 	0.4161	0.2257	0.147	-0.016
Mof_C 	C 	0.1324	0.2353	0.2763	0.097
Mof_H 	H 	0.0447	0.2559	0.2963	-0.011
Mof_C 	C 	0.0993	0.3373	0.0204	0.074
Mof_H 	H 	0.0429	0.2993	0.9799	-0.006
Mof_C 	C 	0.2537	0.3978	0.1541	0.081
Mof_H 	H 	0.3225	0.4087	0.2225	-0.003
_end
