data_functionalizedCrystal
_audit_creation_method	'EQeq! by Chris Wilmer'
_symmetry_space_group_name_H-M	'P1'
_symmetry_Int_Tables_number	1
_symmetry_cell_setting	triclinic
loop_
_symmetry_equiv_pos_as_xyz
  x,y,z
_cell_length_a	18.6108
_cell_length_b	18.6108
_cell_length_c	19.3734
_cell_angle_alpha	90
_cell_angle_beta	90
_cell_angle_gamma	120
loop_
_atom_site_label
_atom_site_type_symbol
_atom_site_fract_x
_atom_site_fract_y
_atom_site_fract_z
_atom_site_charge
Mof_Li	Li	0.1676	0.5067	0.14122	7.491
Mof_O 	O 	0.89797	0.34892	0.56221	-2.098
Mof_O 	O 	0.0325	0.42767	0.58573	-0.724
Mof_H 	H 	0.0281	0.432	0.6362	0.18
Mof_C 	C 	0.97028	0.38985	0.544	1.044
Mof_C 	C 	0.99288	0.40023	0.46915	-0.631
Mof_C 	C 	0.93101	0.35869	0.4207	0.347
Mof_H 	H 	0.8754	0.323	0.4351	-0.15
Mof_C 	C 	0.95061	0.36939	0.351	-0.338
Mof_H 	H 	0.9078	0.3415	0.3179	0.094
Mof_C 	C 	0.0322	0.42042	0.32865	0.067
Mof_C 	C 	0.09463	0.46098	0.37775	-0.849
Mof_C 	C 	0.0745	0.45119	0.44784	0.521
Mof_H 	H 	0.1168	0.4795	0.4812	-0.279
Mof_C 	C 	0.04913	0.43189	0.25189	0.673
Mof_O 	O 	0.98692	0.40551	0.21347	-0.635
Mof_O 	O 	0.12232	0.46648	0.23151	-2.158
Mof_C 	C 	0.1858	0.51524	0.36142	1.465
Mof_O 	O 	0.21701	0.59195	0.36965	-2.375
Mof_O 	O 	0.22604	0.47975	0.34665	-2.361
Mof_Li	Li	0.4933	0.6609	0.14122	7.513
Mof_O 	O 	0.65108	0.54905	0.56221	-2.101
Mof_O 	O 	0.57233	0.60483	0.58573	-0.727
Mof_H 	H 	0.568	0.5961	0.6362	0.179
Mof_C 	C 	0.61015	0.58043	0.544	1.049
Mof_C 	C 	0.59977	0.59265	0.46915	-0.635
Mof_C 	C 	0.64131	0.57232	0.4207	0.351
Mof_H 	H 	0.677	0.5524	0.4351	-0.152
Mof_C 	C 	0.63061	0.58122	0.351	-0.345
Mof_H 	H 	0.6585	0.5663	0.3179	0.096
Mof_C 	C 	0.57958	0.61178	0.32865	0.071
Mof_C 	C 	0.53902	0.63365	0.37775	-0.851
Mof_C 	C 	0.54881	0.62331	0.44784	0.525
Mof_H 	H 	0.5205	0.6373	0.4812	-0.28
Mof_C 	C 	0.56811	0.61724	0.25189	0.682
Mof_O 	O 	0.59449	0.58141	0.21347	-0.644
Mof_O 	O 	0.53352	0.65584	0.23151	-2.164
Mof_C 	C 	0.48476	0.67056	0.36142	1.465
Mof_O 	O 	0.40805	0.62506	0.36965	-2.376
Mof_O 	O 	0.52025	0.74629	0.34665	-2.36
Mof_Li	Li	0.3391	0.8324	0.14122	7.483
Mof_O 	O 	0.45095	0.10203	0.56221	-2.099
Mof_O 	O 	0.39517	0.9675	0.58573	-0.726
Mof_H 	H 	0.4039	0.9719	0.6362	0.179
Mof_C 	C 	0.41957	0.02972	0.544	1.045
Mof_C 	C 	0.40735	0.00712	0.46915	-0.63
Mof_C 	C 	0.42768	0.06899	0.4207	0.346
Mof_H 	H 	0.4476	0.1246	0.4351	-0.15
Mof_C 	C 	0.41878	0.04939	0.351	-0.337
Mof_H 	H 	0.4337	0.0922	0.3179	0.094
Mof_C 	C 	0.38822	0.9678	0.32865	0.066
Mof_C 	C 	0.36635	0.90537	0.37775	-0.848
Mof_C 	C 	0.37669	0.9255	0.44784	0.52
Mof_H 	H 	0.3627	0.8832	0.4812	-0.278
Mof_C 	C 	0.38276	0.95087	0.25189	0.671
Mof_O 	O 	0.41859	0.01308	0.21347	-0.635
Mof_O 	O 	0.34416	0.87768	0.23151	-2.156
Mof_C 	C 	0.32944	0.8142	0.36142	1.464
Mof_O 	O 	0.37494	0.78299	0.36965	-2.375
Mof_O 	O 	0.25371	0.77396	0.34665	-2.359
Mof_Li	Li	0.4933	0.8324	0.35878	7.515
Mof_O 	O 	0.65108	0.10203	0.93779	-2.086
Mof_O 	O 	0.57233	0.9675	0.91427	-0.706
Mof_H 	H 	0.568	0.9719	0.8638	0.175
Mof_C 	C 	0.61015	0.02972	0.956	1.003
Mof_C 	C 	0.59977	0.00712	0.03085	-0.58
Mof_C 	C 	0.64131	0.06899	0.0793	0.314
Mof_H 	H 	0.677	0.1246	0.0649	-0.135
Mof_C 	C 	0.63061	0.04939	0.149	-0.307
Mof_H 	H 	0.6585	0.0922	0.1821	0.085
Mof_C 	C 	0.57958	0.9678	0.17135	0.044
Mof_C 	C 	0.53902	0.90537	0.12225	-0.827
Mof_C 	C 	0.54881	0.9255	0.05216	0.479
Mof_H 	H 	0.5205	0.8832	0.0188	-0.268
Mof_C 	C 	0.56811	0.95087	0.24811	0.684
Mof_O 	O 	0.59449	0.01308	0.28653	-0.64
Mof_O 	O 	0.53352	0.87768	0.26849	-2.165
Mof_C 	C 	0.48476	0.8142	0.13858	1.455
Mof_O 	O 	0.40805	0.78299	0.13035	-2.368
Mof_O 	O 	0.52025	0.77396	0.15335	-2.357
Mof_Li	Li	0.3391	0.5067	0.35878	7.52
Mof_O 	O 	0.45095	0.34892	0.93779	-2.1
Mof_O 	O 	0.39517	0.42767	0.91427	-0.726
Mof_H 	H 	0.4039	0.432	0.8638	0.179
Mof_C 	C 	0.41957	0.38985	0.956	1.048
Mof_C 	C 	0.40735	0.40023	0.03085	-0.634
Mof_C 	C 	0.42768	0.35869	0.0793	0.35
Mof_H 	H 	0.4476	0.323	0.0649	-0.151
Mof_C 	C 	0.41878	0.36939	0.149	-0.344
Mof_H 	H 	0.4337	0.3415	0.1821	0.095
Mof_C 	C 	0.38822	0.42042	0.17135	0.07
Mof_C 	C 	0.36635	0.46098	0.12225	-0.85
Mof_C 	C 	0.37669	0.45119	0.05216	0.524
Mof_H 	H 	0.3627	0.4795	0.0188	-0.281
Mof_C 	C 	0.38276	0.43189	0.24811	0.682
Mof_O 	O 	0.41859	0.40551	0.28653	-0.644
Mof_O 	O 	0.34416	0.46648	0.26849	-2.166
Mof_C 	C 	0.32944	0.51524	0.13858	1.463
Mof_O 	O 	0.37494	0.59195	0.13035	-2.375
Mof_O 	O 	0.25371	0.47975	0.15335	-2.356
Mof_Li	Li	0.1676	0.6609	0.35878	7.514
Mof_O 	O 	0.89797	0.54905	0.93779	-2.087
Mof_O 	O 	0.0325	0.60483	0.91427	-0.706
Mof_H 	H 	0.0281	0.5961	0.8638	0.176
Mof_C 	C 	0.97028	0.58043	0.956	1.01
Mof_C 	C 	0.99288	0.59265	0.03085	-0.587
Mof_C 	C 	0.93101	0.57232	0.0793	0.317
Mof_H 	H 	0.8754	0.5524	0.0649	-0.138
Mof_C 	C 	0.95061	0.58122	0.149	-0.309
Mof_H 	H 	0.9078	0.5663	0.1821	0.085
Mof_C 	C 	0.0322	0.61178	0.17135	0.044
Mof_C 	C 	0.09463	0.63365	0.12225	-0.829
Mof_C 	C 	0.0745	0.62331	0.05216	0.481
Mof_H 	H 	0.1168	0.6373	0.0188	-0.271
Mof_C 	C 	0.04913	0.61724	0.24811	0.682
Mof_O 	O 	0.98692	0.58141	0.28653	-0.64
Mof_O 	O 	0.12232	0.65584	0.26849	-2.164
Mof_C 	C 	0.1858	0.67056	0.13858	1.454
Mof_O 	O 	0.21701	0.62506	0.13035	-2.368
Mof_O 	O 	0.22604	0.74629	0.15335	-2.352
Mof_Li	Li	0.8324	0.4933	0.85878	7.49
Mof_O 	O 	0.10203	0.65108	0.43779	-2.099
Mof_O 	O 	0.9675	0.57233	0.41427	-0.725
Mof_H 	H 	0.9719	0.568	0.3638	0.179
Mof_C 	C 	0.02972	0.61015	0.456	1.044
Mof_C 	C 	0.00712	0.59977	0.53085	-0.631
Mof_C 	C 	0.06899	0.64131	0.5793	0.347
Mof_H 	H 	0.1246	0.677	0.5649	-0.15
Mof_C 	C 	0.04939	0.63061	0.649	-0.338
Mof_H 	H 	0.0922	0.6585	0.6821	0.094
Mof_C 	C 	0.9678	0.57958	0.67135	0.067
Mof_C 	C 	0.90537	0.53902	0.62225	-0.849
Mof_C 	C 	0.9255	0.54881	0.55216	0.521
Mof_H 	H 	0.8832	0.5205	0.5188	-0.279
Mof_C 	C 	0.95087	0.56811	0.74811	0.673
Mof_O 	O 	0.01308	0.59449	0.78653	-0.635
Mof_O 	O 	0.87768	0.53352	0.76849	-2.158
Mof_C 	C 	0.8142	0.48476	0.63858	1.465
Mof_O 	O 	0.78299	0.40805	0.63035	-2.375
Mof_O 	O 	0.77396	0.52025	0.65335	-2.361
Mof_Li	Li	0.5067	0.3391	0.85878	7.513
Mof_O 	O 	0.34892	0.45095	0.43779	-2.101
Mof_O 	O 	0.42767	0.39517	0.41427	-0.727
Mof_H 	H 	0.432	0.4039	0.3638	0.179
Mof_C 	C 	0.38985	0.41957	0.456	1.049
Mof_C 	C 	0.40023	0.40735	0.53085	-0.635
Mof_C 	C 	0.35869	0.42768	0.5793	0.351
Mof_H 	H 	0.323	0.4476	0.5649	-0.152
Mof_C 	C 	0.36939	0.41878	0.649	-0.345
Mof_H 	H 	0.3415	0.4337	0.6821	0.096
Mof_C 	C 	0.42042	0.38822	0.67135	0.071
Mof_C 	C 	0.46098	0.36635	0.62225	-0.851
Mof_C 	C 	0.45119	0.37669	0.55216	0.525
Mof_H 	H 	0.4795	0.3627	0.5188	-0.28
Mof_C 	C 	0.43189	0.38276	0.74811	0.682
Mof_O 	O 	0.40551	0.41859	0.78653	-0.644
Mof_O 	O 	0.46648	0.34416	0.76849	-2.164
Mof_C 	C 	0.51524	0.32944	0.63858	1.465
Mof_O 	O 	0.59195	0.37494	0.63035	-2.376
Mof_O 	O 	0.47975	0.25371	0.65335	-2.36
Mof_Li	Li	0.6609	0.1676	0.85878	7.483
Mof_O 	O 	0.54905	0.89797	0.43779	-2.099
Mof_O 	O 	0.60483	0.0325	0.41427	-0.726
Mof_H 	H 	0.5961	0.0281	0.3638	0.179
Mof_C 	C 	0.58043	0.97028	0.456	1.045
Mof_C 	C 	0.59265	0.99288	0.53085	-0.63
Mof_C 	C 	0.57232	0.93101	0.5793	0.346
Mof_H 	H 	0.5524	0.8754	0.5649	-0.15
Mof_C 	C 	0.58122	0.95061	0.649	-0.337
Mof_H 	H 	0.5663	0.9078	0.6821	0.094
Mof_C 	C 	0.61178	0.0322	0.67135	0.066
Mof_C 	C 	0.63365	0.09463	0.62225	-0.848
Mof_C 	C 	0.62331	0.0745	0.55216	0.52
Mof_H 	H 	0.6373	0.1168	0.5188	-0.278
Mof_C 	C 	0.61724	0.04913	0.74811	0.671
Mof_O 	O 	0.58141	0.98692	0.78653	-0.635
Mof_O 	O 	0.65584	0.12232	0.76849	-2.156
Mof_C 	C 	0.67056	0.1858	0.63858	1.464
Mof_O 	O 	0.62506	0.21701	0.63035	-2.375
Mof_O 	O 	0.74629	0.22604	0.65335	-2.359
Mof_Li	Li	0.5067	0.1676	0.64122	7.515
Mof_O 	O 	0.34892	0.89797	0.06221	-2.086
Mof_O 	O 	0.42767	0.0325	0.08573	-0.706
Mof_H 	H 	0.432	0.0281	0.1362	0.175
Mof_C 	C 	0.38985	0.97028	0.044	1.003
Mof_C 	C 	0.40023	0.99288	0.96915	-0.58
Mof_C 	C 	0.35869	0.93101	0.9207	0.314
Mof_H 	H 	0.323	0.8754	0.9351	-0.135
Mof_C 	C 	0.36939	0.95061	0.851	-0.307
Mof_H 	H 	0.3415	0.9078	0.8179	0.085
Mof_C 	C 	0.42042	0.0322	0.82865	0.044
Mof_C 	C 	0.46098	0.09463	0.87775	-0.827
Mof_C 	C 	0.45119	0.0745	0.94784	0.479
Mof_H 	H 	0.4795	0.1168	0.9812	-0.268
Mof_C 	C 	0.43189	0.04913	0.75189	0.684
Mof_O 	O 	0.40551	0.98692	0.71347	-0.64
Mof_O 	O 	0.46648	0.12232	0.73151	-2.165
Mof_C 	C 	0.51524	0.1858	0.86142	1.455
Mof_O 	O 	0.59195	0.21701	0.86965	-2.368
Mof_O 	O 	0.47975	0.22604	0.84665	-2.357
Mof_Li	Li	0.6609	0.4933	0.64122	7.52
Mof_O 	O 	0.54905	0.65108	0.06221	-2.1
Mof_O 	O 	0.60483	0.57233	0.08573	-0.726
Mof_H 	H 	0.5961	0.568	0.1362	0.179
Mof_C 	C 	0.58043	0.61015	0.044	1.048
Mof_C 	C 	0.59265	0.59977	0.96915	-0.634
Mof_C 	C 	0.57232	0.64131	0.9207	0.35
Mof_H 	H 	0.5524	0.677	0.9351	-0.151
Mof_C 	C 	0.58122	0.63061	0.851	-0.344
Mof_H 	H 	0.5663	0.6585	0.8179	0.095
Mof_C 	C 	0.61178	0.57958	0.82865	0.07
Mof_C 	C 	0.63365	0.53902	0.87775	-0.85
Mof_C 	C 	0.62331	0.54881	0.94784	0.524
Mof_H 	H 	0.6373	0.5205	0.9812	-0.281
Mof_C 	C 	0.61724	0.56811	0.75189	0.682
Mof_O 	O 	0.58141	0.59449	0.71347	-0.644
Mof_O 	O 	0.65584	0.53352	0.73151	-2.166
Mof_C 	C 	0.67056	0.48476	0.86142	1.463
Mof_O 	O 	0.62506	0.40805	0.86965	-2.375
Mof_O 	O 	0.74629	0.52025	0.84665	-2.356
Mof_Li	Li	0.8324	0.3391	0.64122	7.514
Mof_O 	O 	0.10203	0.45095	0.06221	-2.087
Mof_O 	O 	0.9675	0.39517	0.08573	-0.706
Mof_H 	H 	0.9719	0.4039	0.1362	0.176
Mof_C 	C 	0.02972	0.41957	0.044	1.01
Mof_C 	C 	0.00712	0.40735	0.96915	-0.587
Mof_C 	C 	0.06899	0.42768	0.9207	0.317
Mof_H 	H 	0.1246	0.4476	0.9351	-0.138
Mof_C 	C 	0.04939	0.41878	0.851	-0.309
Mof_H 	H 	0.0922	0.4337	0.8179	0.085
Mof_C 	C 	0.9678	0.38822	0.82865	0.044
Mof_C 	C 	0.90537	0.36635	0.87775	-0.829
Mof_C 	C 	0.9255	0.37669	0.94784	0.481
Mof_H 	H 	0.8832	0.3627	0.9812	-0.271
Mof_C 	C 	0.95087	0.38276	0.75189	0.682
Mof_O 	O 	0.01308	0.41859	0.71347	-0.64
Mof_O 	O 	0.87768	0.34416	0.73151	-2.164
Mof_C 	C 	0.8142	0.32944	0.86142	1.454
Mof_O 	O 	0.78299	0.37494	0.86965	-2.368
Mof_O 	O 	0.77396	0.25371	0.84665	-2.352
Mof_Li	Li	0.21785	0.4357	0.25	1.317
Mof_Li	Li	0.5643	0.78215	0.25	1.315
Mof_Li	Li	0.21785	0.78215	0.25	1.311
Mof_Li	Li	0.78215	0.5643	0.75	1.317
Mof_Li	Li	0.4357	0.21785	0.75	1.315
Mof_Li	Li	0.78215	0.21785	0.75	1.311
Mof_Li	Li	0.33333	0.66667	0.3464	0.312
Mof_Li	Li	0.33333	0.66667	0.392	0.277
Mof_Li	Li	0.33333	0.66667	0.1536	0.304
Mof_Li	Li	0.33333	0.66667	0.108	0.285
Mof_Li	Li	0.66667	0.33333	0.6536	0.312
Mof_Li	Li	0.66667	0.33333	0.608	0.277
Mof_Li	Li	0.66667	0.33333	0.8464	0.304
Mof_Li	Li	0.66667	0.33333	0.892	0.285
Mof_O 	O 	0.33333	0.66667	0.25	-0.905
Mof_O 	O 	0.66667	0.33333	0.75	-0.905
_end
