data_functionalizedCrystal
_audit_creation_method	'EQeq! by Chris Wilmer'
_symmetry_space_group_name_H-M	'P1'
_symmetry_Int_Tables_number	1
_symmetry_cell_setting	triclinic
loop_
_symmetry_equiv_pos_as_xyz
  x,y,z
_cell_length_a	17.413
_cell_length_b	24.924
_cell_length_c	22.279
_cell_angle_alpha	90
_cell_angle_beta	90
_cell_angle_gamma	90
loop_
_atom_site_label
_atom_site_type_symbol
_atom_site_fract_x
_atom_site_fract_y
_atom_site_fract_z
_atom_site_charge
Mof_C 	C 	0.0034	0.51114	0.10464	0.051
Mof_C 	C 	0.93325	0.53048	0.08572	-0.12
Mof_H 	H 	0.8888	0.5177	0.1039	0.075
Mof_C 	C 	0.92691	0.56721	0.04183	0.055
Mof_C 	C 	0.99225	0.58809	0.01611	-0.114
Mof_H 	H 	0.988	0.6145	0.9868	0.069
Mof_C 	C 	0.06417	0.57026	0.03338	0.045
Mof_C 	C 	0.06982	0.53171	0.07772	-0.114
Mof_H 	H 	0.1178	0.5194	0.0897	0.071
Mof_C 	C 	0.01042	0.47002	0.15288	0.039
Mof_C 	C 	0.06081	0.42727	0.14761	-0.109
Mof_H 	H 	0.0913	0.4246	0.1134	0.07
Mof_C 	C 	0.06721	0.3881	0.19214	0.038
Mof_H 	H 	0.1019	0.36	0.1879	0.03
Mof_C 	C 	0.02134	0.39168	0.24253	-0.108
Mof_C 	C 	0.96908	0.43574	0.24947	0.029
Mof_H 	H 	0.9401	0.4398	0.2842	0.038
Mof_C 	C 	0.96332	0.47236	0.20215	-0.101
Mof_H 	H 	0.9263	0.4992	0.2041	0.067
Mof_C 	C 	0.02732	0.35069	0.29318	0.398
Mof_C 	C 	0.85003	0.58582	0.01945	0.04
Mof_C 	C 	0.78769	0.55139	0.02071	-0.111
Mof_H 	H 	0.7937	0.5164	0.0345	0.073
Mof_C 	C 	0.71542	0.56909	0.00124	0.043
Mof_H 	H 	0.6737	0.5458	0.003	0.035
Mof_C 	C 	0.70513	0.62058	0.9794	-0.125
Mof_C 	C 	0.76708	0.65471	0.97856	0.048
Mof_H 	H 	0.761	0.6894	0.9641	0.029
Mof_C 	C 	0.83734	0.63852	0.99861	-0.115
Mof_H 	H 	0.8779	0.6628	0.9985	0.069
Mof_C 	C 	0.62655	0.63914	0.9589	0.395
Mof_C 	C 	0.13611	0.59122	0.00367	0.054
Mof_C 	C 	0.13598	0.61471	0.94745	-0.132
Mof_H 	H 	0.0905	0.6153	0.9256	0.079
Mof_C 	C 	0.20009	0.63693	0.92308	0.069
Mof_H 	H 	0.1974	0.6518	0.8848	0.019
Mof_C 	C 	0.26886	0.63803	0.9536	-0.145
Mof_C 	C 	0.27056	0.61412	0.01032	0.062
Mof_H 	H 	0.3166	0.6124	0.0314	0.023
Mof_C 	C 	0.20506	0.59319	0.03519	-0.127
Mof_H 	H 	0.2068	0.5799	0.0742	0.075
Mof_C 	C 	0.33791	0.66379	0.92586	0.41
Mof_Co	Co	0.99745	0.32186	0.42149	1.166
Mof_O 	O 	0.0638	0.3096	0.28024	-0.434
Mof_O 	O 	0.99614	0.363	0.34122	-0.43
Mof_O 	O 	0.57132	0.6123	0.9691	-0.386
Mof_O 	O 	0.62218	0.68078	0.9326	-0.428
Mof_O 	O 	0.32932	0.69167	0.88178	-0.472
Mof_O 	O 	0.40187	0.65575	0.95347	-0.465
Mof_C 	C 	0.4966	0.48886	0.60464	0.052
Mof_C 	C 	0.56675	0.46952	0.58572	-0.124
Mof_H 	H 	0.6112	0.4823	0.6039	0.075
Mof_C 	C 	0.57309	0.43279	0.54183	0.057
Mof_C 	C 	0.50775	0.41191	0.51611	-0.119
Mof_H 	H 	0.512	0.3855	0.4868	0.071
Mof_C 	C 	0.43583	0.42974	0.53338	0.048
Mof_C 	C 	0.43018	0.46829	0.57772	-0.116
Mof_H 	H 	0.3822	0.4806	0.5897	0.072
Mof_C 	C 	0.48958	0.52998	0.65288	0.038
Mof_C 	C 	0.43919	0.57273	0.64761	-0.108
Mof_H 	H 	0.4087	0.5754	0.6134	0.07
Mof_C 	C 	0.43279	0.6119	0.69214	0.037
Mof_H 	H 	0.3981	0.64	0.6879	0.03
Mof_C 	C 	0.47866	0.60832	0.74253	-0.108
Mof_C 	C 	0.53092	0.56426	0.74947	0.029
Mof_H 	H 	0.5599	0.5602	0.7842	0.038
Mof_C 	C 	0.53668	0.52764	0.70215	-0.101
Mof_H 	H 	0.5737	0.5008	0.7041	0.067
Mof_C 	C 	0.47268	0.64931	0.79318	0.398
Mof_C 	C 	0.64997	0.41418	0.51945	0.037
Mof_C 	C 	0.71231	0.44861	0.52071	-0.109
Mof_H 	H 	0.7063	0.4836	0.5345	0.072
Mof_C 	C 	0.78458	0.43091	0.50124	0.041
Mof_H 	H 	0.8263	0.4542	0.503	0.035
Mof_C 	C 	0.79487	0.37942	0.4794	-0.123
Mof_C 	C 	0.73292	0.34529	0.47856	0.047
Mof_H 	H 	0.739	0.3106	0.4641	0.03
Mof_C 	C 	0.66266	0.36148	0.49861	-0.112
Mof_H 	H 	0.6221	0.3372	0.4985	0.068
Mof_C 	C 	0.87345	0.36086	0.4589	0.394
Mof_C 	C 	0.36389	0.40878	0.50367	0.054
Mof_C 	C 	0.36402	0.38529	0.44745	-0.133
Mof_H 	H 	0.4095	0.3847	0.4256	0.079
Mof_C 	C 	0.29991	0.36307	0.42308	0.07
Mof_H 	H 	0.3026	0.3482	0.3848	0.019
Mof_C 	C 	0.23114	0.36197	0.4536	-0.146
Mof_C 	C 	0.22944	0.38588	0.51032	0.063
Mof_H 	H 	0.1834	0.3876	0.5314	0.023
Mof_C 	C 	0.29494	0.40681	0.53519	-0.127
Mof_H 	H 	0.2932	0.4201	0.5742	0.075
Mof_C 	C 	0.16209	0.33621	0.42586	0.411
Mof_Co	Co	0.50255	0.67814	0.92149	1.166
Mof_O 	O 	0.4362	0.6904	0.78024	-0.434
Mof_O 	O 	0.50386	0.637	0.84122	-0.43
Mof_O 	O 	0.92868	0.3877	0.4691	-0.386
Mof_O 	O 	0.87782	0.31922	0.4326	-0.428
Mof_O 	O 	0.17068	0.30833	0.38178	-0.472
Mof_O 	O 	0.09813	0.34425	0.45347	-0.465
Mof_C 	C 	0.0034	0.98886	0.10464	0.043
Mof_C 	C 	0.93325	0.96952	0.08572	-0.115
Mof_H 	H 	0.8888	0.9823	0.1039	0.072
Mof_C 	C 	0.92691	0.93279	0.04183	0.051
Mof_C 	C 	0.99225	0.91191	0.01611	-0.11
Mof_H 	H 	0.988	0.8855	0.9868	0.068
Mof_C 	C 	0.06417	0.92974	0.03338	0.041
Mof_C 	C 	0.06982	0.96829	0.07772	-0.11
Mof_H 	H 	0.1178	0.9806	0.0897	0.069
Mof_C 	C 	0.01042	0.02998	0.15288	0.045
Mof_C 	C 	0.06081	0.07273	0.14761	-0.112
Mof_H 	H 	0.0913	0.0754	0.1134	0.072
Mof_C 	C 	0.06721	0.1119	0.19214	0.04
Mof_H 	H 	0.1019	0.14	0.1879	0.029
Mof_C 	C 	0.02134	0.10832	0.24253	-0.109
Mof_C 	C 	0.96908	0.06426	0.24947	0.031
Mof_H 	H 	0.9401	0.0602	0.2842	0.037
Mof_C 	C 	0.96332	0.02764	0.20215	-0.106
Mof_H 	H 	0.9263	0.0008	0.2041	0.069
Mof_C 	C 	0.02732	0.14931	0.29318	0.399
Mof_C 	C 	0.85003	0.91418	0.01945	0.041
Mof_C 	C 	0.78769	0.94861	0.02071	-0.112
Mof_H 	H 	0.7937	0.9836	0.0345	0.073
Mof_C 	C 	0.71542	0.93091	0.00124	0.044
Mof_H 	H 	0.6737	0.9542	0.003	0.034
Mof_C 	C 	0.70513	0.87942	0.9794	-0.125
Mof_C 	C 	0.76708	0.84529	0.97856	0.049
Mof_H 	H 	0.761	0.8106	0.9641	0.029
Mof_C 	C 	0.83734	0.86148	0.99861	-0.115
Mof_H 	H 	0.8779	0.8372	0.9985	0.069
Mof_C 	C 	0.62655	0.86086	0.9589	0.395
Mof_C 	C 	0.13611	0.90878	0.00367	0.055
Mof_C 	C 	0.13598	0.88529	0.94745	-0.132
Mof_H 	H 	0.0905	0.8847	0.9256	0.079
Mof_C 	C 	0.20009	0.86307	0.92308	0.07
Mof_H 	H 	0.1974	0.8482	0.8848	0.019
Mof_C 	C 	0.26886	0.86197	0.9536	-0.145
Mof_C 	C 	0.27056	0.88588	0.01032	0.062
Mof_H 	H 	0.3166	0.8876	0.0314	0.023
Mof_C 	C 	0.20506	0.90681	0.03519	-0.128
Mof_H 	H 	0.2068	0.9201	0.0742	0.075
Mof_C 	C 	0.33791	0.83621	0.92586	0.41
Mof_Co	Co	0.99745	0.17814	0.42149	1.166
Mof_O 	O 	0.0638	0.1904	0.28024	-0.435
Mof_O 	O 	0.99614	0.137	0.34122	-0.431
Mof_O 	O 	0.57132	0.8877	0.9691	-0.386
Mof_O 	O 	0.62218	0.81922	0.9326	-0.428
Mof_O 	O 	0.32932	0.80833	0.88178	-0.472
Mof_O 	O 	0.40187	0.84425	0.95347	-0.465
Mof_C 	C 	0.4966	0.01114	0.60464	0.052
Mof_C 	C 	0.56675	0.03048	0.58572	-0.124
Mof_H 	H 	0.6112	0.0177	0.6039	0.074
Mof_C 	C 	0.57309	0.06721	0.54183	0.057
Mof_C 	C 	0.50775	0.08809	0.51611	-0.118
Mof_H 	H 	0.512	0.1145	0.4868	0.07
Mof_C 	C 	0.43583	0.07026	0.53338	0.048
Mof_C 	C 	0.43018	0.03171	0.57772	-0.116
Mof_H 	H 	0.3822	0.0194	0.5897	0.072
Mof_C 	C 	0.48958	0.97002	0.65288	0.038
Mof_C 	C 	0.43919	0.92727	0.64761	-0.108
Mof_H 	H 	0.4087	0.9246	0.6134	0.07
Mof_C 	C 	0.43279	0.8881	0.69214	0.037
Mof_H 	H 	0.3981	0.86	0.6879	0.03
Mof_C 	C 	0.47866	0.89168	0.74253	-0.108
Mof_C 	C 	0.53092	0.93574	0.74947	0.029
Mof_H 	H 	0.5599	0.9398	0.7842	0.038
Mof_C 	C 	0.53668	0.97236	0.70215	-0.101
Mof_H 	H 	0.5737	0.9992	0.7041	0.067
Mof_C 	C 	0.47268	0.85069	0.79318	0.398
Mof_C 	C 	0.64997	0.08582	0.51945	0.037
Mof_C 	C 	0.71231	0.05139	0.52071	-0.11
Mof_H 	H 	0.7063	0.0164	0.5345	0.072
Mof_C 	C 	0.78458	0.06909	0.50124	0.041
Mof_H 	H 	0.8263	0.0458	0.503	0.035
Mof_C 	C 	0.79487	0.12058	0.4794	-0.123
Mof_C 	C 	0.73292	0.15471	0.47856	0.047
Mof_H 	H 	0.739	0.1894	0.4641	0.03
Mof_C 	C 	0.66266	0.13852	0.49861	-0.112
Mof_H 	H 	0.6221	0.1628	0.4985	0.068
Mof_C 	C 	0.87345	0.13914	0.4589	0.394
Mof_C 	C 	0.36389	0.09122	0.50367	0.054
Mof_C 	C 	0.36402	0.11471	0.44745	-0.133
Mof_H 	H 	0.4095	0.1153	0.4256	0.079
Mof_C 	C 	0.29991	0.13693	0.42308	0.07
Mof_H 	H 	0.3026	0.1518	0.3848	0.019
Mof_C 	C 	0.23114	0.13803	0.4536	-0.146
Mof_C 	C 	0.22944	0.11412	0.51032	0.063
Mof_H 	H 	0.1834	0.1124	0.5314	0.023
Mof_C 	C 	0.29494	0.09319	0.53519	-0.127
Mof_H 	H 	0.2932	0.0799	0.5742	0.075
Mof_C 	C 	0.16209	0.16379	0.42586	0.411
Mof_Co	Co	0.50255	0.82186	0.92149	1.166
Mof_O 	O 	0.4362	0.8096	0.78024	-0.434
Mof_O 	O 	0.50386	0.863	0.84122	-0.43
Mof_O 	O 	0.92868	0.1123	0.4691	-0.386
Mof_O 	O 	0.87782	0.18078	0.4326	-0.428
Mof_O 	O 	0.17068	0.19167	0.38178	-0.472
Mof_O 	O 	0.09813	0.15575	0.45347	-0.464
Mof_Co	Co	0.11314	0.25	0.33366	1.168
Mof_O 	O 	0.01109	0.25	0.38421	-0.617
Mof_Co	Co	0.38686	0.75	0.83366	1.168
Mof_O 	O 	0.48891	0.75	0.88421	-0.617
Mof_C 	C 	0.9966	0.01114	0.89536	0.043
Mof_C 	C 	0.06675	0.03048	0.91428	-0.115
Mof_H 	H 	0.1112	0.0177	0.8961	0.072
Mof_C 	C 	0.07309	0.06721	0.95817	0.051
Mof_C 	C 	0.00775	0.08809	0.98389	-0.11
Mof_H 	H 	0.012	0.1145	0.0132	0.068
Mof_C 	C 	0.93583	0.07026	0.96662	0.041
Mof_C 	C 	0.93018	0.03171	0.92228	-0.11
Mof_H 	H 	0.8822	0.0194	0.9103	0.069
Mof_C 	C 	0.98958	0.97002	0.84712	0.045
Mof_C 	C 	0.93919	0.92727	0.85239	-0.112
Mof_H 	H 	0.9087	0.9246	0.8866	0.072
Mof_C 	C 	0.93279	0.8881	0.80786	0.04
Mof_H 	H 	0.8981	0.86	0.8121	0.029
Mof_C 	C 	0.97866	0.89168	0.75747	-0.109
Mof_C 	C 	0.03092	0.93574	0.75053	0.031
Mof_H 	H 	0.0599	0.9398	0.7158	0.037
Mof_C 	C 	0.03668	0.97236	0.79785	-0.106
Mof_H 	H 	0.0737	0.9992	0.7959	0.069
Mof_C 	C 	0.97268	0.85069	0.70682	0.399
Mof_C 	C 	0.14997	0.08582	0.98055	0.041
Mof_C 	C 	0.21231	0.05139	0.97929	-0.112
Mof_H 	H 	0.2063	0.0164	0.9655	0.073
Mof_C 	C 	0.28458	0.06909	0.99876	0.044
Mof_H 	H 	0.3263	0.0458	0.997	0.034
Mof_C 	C 	0.29487	0.12058	0.0206	-0.125
Mof_C 	C 	0.23292	0.15471	0.02144	0.049
Mof_H 	H 	0.239	0.1894	0.0359	0.029
Mof_C 	C 	0.16266	0.13852	0.00139	-0.115
Mof_H 	H 	0.1221	0.1628	0.0015	0.069
Mof_C 	C 	0.37345	0.13914	0.0411	0.395
Mof_C 	C 	0.86389	0.09122	0.99633	0.055
Mof_C 	C 	0.86402	0.11471	0.05255	-0.132
Mof_H 	H 	0.9095	0.1153	0.0744	0.079
Mof_C 	C 	0.79991	0.13693	0.07692	0.07
Mof_H 	H 	0.8026	0.1518	0.1152	0.019
Mof_C 	C 	0.73114	0.13803	0.0464	-0.145
Mof_C 	C 	0.72944	0.11412	0.98968	0.062
Mof_H 	H 	0.6834	0.1124	0.9686	0.023
Mof_C 	C 	0.79494	0.09319	0.96481	-0.128
Mof_H 	H 	0.7932	0.0799	0.9258	0.075
Mof_C 	C 	0.66209	0.16379	0.07414	0.41
Mof_Co	Co	0.00255	0.82186	0.57851	1.166
Mof_O 	O 	0.9362	0.8096	0.71976	-0.435
Mof_O 	O 	0.00386	0.863	0.65878	-0.431
Mof_O 	O 	0.42868	0.1123	0.0309	-0.386
Mof_O 	O 	0.37782	0.18078	0.0674	-0.428
Mof_O 	O 	0.67068	0.19167	0.11822	-0.472
Mof_O 	O 	0.59813	0.15575	0.04653	-0.465
Mof_C 	C 	0.5034	0.98886	0.39536	0.052
Mof_C 	C 	0.43325	0.96952	0.41428	-0.124
Mof_H 	H 	0.3888	0.9823	0.3961	0.074
Mof_C 	C 	0.42691	0.93279	0.45817	0.057
Mof_C 	C 	0.49225	0.91191	0.48389	-0.118
Mof_H 	H 	0.488	0.8855	0.5132	0.07
Mof_C 	C 	0.56417	0.92974	0.46662	0.048
Mof_C 	C 	0.56982	0.96829	0.42228	-0.116
Mof_H 	H 	0.6178	0.9806	0.4103	0.072
Mof_C 	C 	0.51042	0.02998	0.34712	0.038
Mof_C 	C 	0.56081	0.07273	0.35239	-0.108
Mof_H 	H 	0.5913	0.0754	0.3866	0.07
Mof_C 	C 	0.56721	0.1119	0.30786	0.037
Mof_H 	H 	0.6019	0.14	0.3121	0.03
Mof_C 	C 	0.52134	0.10832	0.25747	-0.108
Mof_C 	C 	0.46908	0.06426	0.25053	0.029
Mof_H 	H 	0.4401	0.0602	0.2158	0.038
Mof_C 	C 	0.46332	0.02764	0.29785	-0.101
Mof_H 	H 	0.4263	0.0008	0.2959	0.067
Mof_C 	C 	0.52732	0.14931	0.20682	0.398
Mof_C 	C 	0.35003	0.91418	0.48055	0.037
Mof_C 	C 	0.28769	0.94861	0.47929	-0.11
Mof_H 	H 	0.2937	0.9836	0.4655	0.072
Mof_C 	C 	0.21542	0.93091	0.49876	0.041
Mof_H 	H 	0.1737	0.9542	0.497	0.035
Mof_C 	C 	0.20513	0.87942	0.5206	-0.123
Mof_C 	C 	0.26708	0.84529	0.52144	0.047
Mof_H 	H 	0.261	0.8106	0.5359	0.03
Mof_C 	C 	0.33734	0.86148	0.50139	-0.112
Mof_H 	H 	0.3779	0.8372	0.5015	0.068
Mof_C 	C 	0.12655	0.86086	0.5411	0.394
Mof_C 	C 	0.63611	0.90878	0.49633	0.054
Mof_C 	C 	0.63598	0.88529	0.55255	-0.133
Mof_H 	H 	0.5905	0.8847	0.5744	0.079
Mof_C 	C 	0.70009	0.86307	0.57692	0.07
Mof_H 	H 	0.6974	0.8482	0.6152	0.019
Mof_C 	C 	0.76886	0.86197	0.5464	-0.146
Mof_C 	C 	0.77056	0.88588	0.48968	0.063
Mof_H 	H 	0.8166	0.8876	0.4686	0.023
Mof_C 	C 	0.70506	0.90681	0.46481	-0.127
Mof_H 	H 	0.7068	0.9201	0.4258	0.075
Mof_C 	C 	0.83791	0.83621	0.57414	0.411
Mof_Co	Co	0.49745	0.17814	0.07851	1.166
Mof_O 	O 	0.5638	0.1904	0.21976	-0.434
Mof_O 	O 	0.49614	0.137	0.15878	-0.43
Mof_O 	O 	0.07132	0.8877	0.5309	-0.386
Mof_O 	O 	0.12218	0.81922	0.5674	-0.428
Mof_O 	O 	0.82932	0.80833	0.61822	-0.472
Mof_O 	O 	0.90187	0.84425	0.54653	-0.464
Mof_C 	C 	0.9966	0.48886	0.89536	0.05
Mof_C 	C 	0.06675	0.46952	0.91428	-0.121
Mof_H 	H 	0.1112	0.4823	0.8961	0.074
Mof_C 	C 	0.07309	0.43279	0.95817	0.054
Mof_C 	C 	0.00775	0.41191	0.98389	-0.114
Mof_H 	H 	0.012	0.3855	0.0132	0.069
Mof_C 	C 	0.93583	0.42974	0.96662	0.045
Mof_C 	C 	0.93018	0.46829	0.92228	-0.114
Mof_H 	H 	0.8822	0.4806	0.9103	0.071
Mof_C 	C 	0.98958	0.52998	0.84712	0.039
Mof_C 	C 	0.93919	0.57273	0.85239	-0.109
Mof_H 	H 	0.9087	0.5754	0.8866	0.07
Mof_C 	C 	0.93279	0.6119	0.80786	0.038
Mof_H 	H 	0.8981	0.64	0.8121	0.03
Mof_C 	C 	0.97866	0.60832	0.75747	-0.108
Mof_C 	C 	0.03092	0.56426	0.75053	0.029
Mof_H 	H 	0.0599	0.5602	0.7158	0.038
Mof_C 	C 	0.03668	0.52764	0.79785	-0.101
Mof_H 	H 	0.0737	0.5008	0.7959	0.067
Mof_C 	C 	0.97268	0.64931	0.70682	0.398
Mof_C 	C 	0.14997	0.41418	0.98055	0.04
Mof_C 	C 	0.21231	0.44861	0.97929	-0.111
Mof_H 	H 	0.2063	0.4836	0.9655	0.073
Mof_C 	C 	0.28458	0.43091	0.99876	0.043
Mof_H 	H 	0.3263	0.4542	0.997	0.035
Mof_C 	C 	0.29487	0.37942	0.0206	-0.125
Mof_C 	C 	0.23292	0.34529	0.02144	0.048
Mof_H 	H 	0.239	0.3106	0.0359	0.029
Mof_C 	C 	0.16266	0.36148	0.00139	-0.115
Mof_H 	H 	0.1221	0.3372	0.0015	0.069
Mof_C 	C 	0.37345	0.36086	0.0411	0.395
Mof_C 	C 	0.86389	0.40878	0.99633	0.054
Mof_C 	C 	0.86402	0.38529	0.05255	-0.132
Mof_H 	H 	0.9095	0.3847	0.0744	0.079
Mof_C 	C 	0.79991	0.36307	0.07692	0.069
Mof_H 	H 	0.8026	0.3482	0.1152	0.019
Mof_C 	C 	0.73114	0.36197	0.0464	-0.145
Mof_C 	C 	0.72944	0.38588	0.98968	0.062
Mof_H 	H 	0.6834	0.3876	0.9686	0.023
Mof_C 	C 	0.79494	0.40681	0.96481	-0.127
Mof_H 	H 	0.7932	0.4201	0.9258	0.075
Mof_C 	C 	0.66209	0.33621	0.07414	0.41
Mof_Co	Co	0.00255	0.67814	0.57851	1.166
Mof_O 	O 	0.9362	0.6904	0.71976	-0.434
Mof_O 	O 	0.00386	0.637	0.65878	-0.43
Mof_O 	O 	0.42868	0.3877	0.0309	-0.386
Mof_O 	O 	0.37782	0.31922	0.0674	-0.428
Mof_O 	O 	0.67068	0.30833	0.11822	-0.472
Mof_O 	O 	0.59813	0.34425	0.04653	-0.465
Mof_C 	C 	0.5034	0.51114	0.39536	0.052
Mof_C 	C 	0.43325	0.53048	0.41428	-0.124
Mof_H 	H 	0.3888	0.5177	0.3961	0.075
Mof_C 	C 	0.42691	0.56721	0.45817	0.057
Mof_C 	C 	0.49225	0.58809	0.48389	-0.119
Mof_H 	H 	0.488	0.6145	0.5132	0.071
Mof_C 	C 	0.56417	0.57026	0.46662	0.048
Mof_C 	C 	0.56982	0.53171	0.42228	-0.116
Mof_H 	H 	0.6178	0.5194	0.4103	0.072
Mof_C 	C 	0.51042	0.47002	0.34712	0.038
Mof_C 	C 	0.56081	0.42727	0.35239	-0.108
Mof_H 	H 	0.5913	0.4246	0.3866	0.07
Mof_C 	C 	0.56721	0.3881	0.30786	0.037
Mof_H 	H 	0.6019	0.36	0.3121	0.03
Mof_C 	C 	0.52134	0.39168	0.25747	-0.108
Mof_C 	C 	0.46908	0.43574	0.25053	0.029
Mof_H 	H 	0.4401	0.4398	0.2158	0.038
Mof_C 	C 	0.46332	0.47236	0.29785	-0.101
Mof_H 	H 	0.4263	0.4992	0.2959	0.067
Mof_C 	C 	0.52732	0.35069	0.20682	0.398
Mof_C 	C 	0.35003	0.58582	0.48055	0.037
Mof_C 	C 	0.28769	0.55139	0.47929	-0.109
Mof_H 	H 	0.2937	0.5164	0.4655	0.072
Mof_C 	C 	0.21542	0.56909	0.49876	0.041
Mof_H 	H 	0.1737	0.5458	0.497	0.035
Mof_C 	C 	0.20513	0.62058	0.5206	-0.123
Mof_C 	C 	0.26708	0.65471	0.52144	0.047
Mof_H 	H 	0.261	0.6894	0.5359	0.03
Mof_C 	C 	0.33734	0.63852	0.50139	-0.112
Mof_H 	H 	0.3779	0.6628	0.5015	0.068
Mof_C 	C 	0.12655	0.63914	0.5411	0.394
Mof_C 	C 	0.63611	0.59122	0.49633	0.054
Mof_C 	C 	0.63598	0.61471	0.55255	-0.133
Mof_H 	H 	0.5905	0.6153	0.5744	0.079
Mof_C 	C 	0.70009	0.63693	0.57692	0.07
Mof_H 	H 	0.6974	0.6518	0.6152	0.019
Mof_C 	C 	0.76886	0.63803	0.5464	-0.146
Mof_C 	C 	0.77056	0.61412	0.48968	0.063
Mof_H 	H 	0.8166	0.6124	0.4686	0.023
Mof_C 	C 	0.70506	0.59319	0.46481	-0.127
Mof_H 	H 	0.7068	0.5799	0.4258	0.075
Mof_C 	C 	0.83791	0.66379	0.57414	0.411
Mof_Co	Co	0.49745	0.32186	0.07851	1.166
Mof_O 	O 	0.5638	0.3096	0.21976	-0.434
Mof_O 	O 	0.49614	0.363	0.15878	-0.43
Mof_O 	O 	0.07132	0.6123	0.5309	-0.386
Mof_O 	O 	0.12218	0.68078	0.5674	-0.428
Mof_O 	O 	0.82932	0.69167	0.61822	-0.472
Mof_O 	O 	0.90187	0.65575	0.54653	-0.465
Mof_Co	Co	0.88686	0.75	0.66634	1.168
Mof_O 	O 	0.98891	0.75	0.61579	-0.617
Mof_Co	Co	0.61314	0.25	0.16634	1.168
Mof_O 	O 	0.51109	0.25	0.11579	-0.617
_end
