data_functionalizedCrystal
_audit_creation_method	'EQeq! by Chris Wilmer'
_symmetry_space_group_name_H-M	'P1'
_symmetry_Int_Tables_number	1
_symmetry_cell_setting	triclinic
loop_
_symmetry_equiv_pos_as_xyz
  x,y,z
_cell_length_a	9.203
_cell_length_b	11.5997
_cell_length_c	17.063
_cell_angle_alpha	104.601
_cell_angle_beta	90
_cell_angle_gamma	113.371
loop_
_atom_site_label
_atom_site_type_symbol
_atom_site_fract_x
_atom_site_fract_y
_atom_site_fract_z
_atom_site_charge
Mof_Eu	Eu	0.82791	0.02615	0.57317	2.447
Mof_Eu	Eu	0.80176	0.97385	0.92683	2.446
Mof_Eu	Eu	0.17209	0.97385	0.42683	2.447
Mof_Eu	Eu	0.19824	0.02615	0.07317	2.446
Mof_Cu	Cu	0.59057	0.32504	0.63067	0.848
Mof_Cu	Cu	0.26553	0.67496	0.86933	0.848
Mof_Cu	Cu	0.40943	0.67496	0.36933	0.848
Mof_Cu	Cu	0.73447	0.32504	0.13067	0.848
Mof_H 	H 	0.007	0.3004	0.1932	-0.017
Mof_H 	H 	0.5865	0.2246	0.264	0.015
Mof_H 	H 	0.637	0.1286	0.3567	0.039
Mof_H 	H 	0.0654	0.1976	0.2799	0.046
Mof_H 	H 	0.4176	0.4394	0.376	-0.006
Mof_H 	H 	0.2206	0.6466	0.5095	0.006
Mof_H 	H 	0.3134	0.2792	0.4408	0.027
Mof_H 	H 	0.1091	0.4904	0.5779	0.045
Mof_H 	H 	0.7066	0.6996	0.3068	-0.014
Mof_H 	H 	0.3619	0.7754	0.236	0.015
Mof_H 	H 	0.5084	0.8714	0.1433	0.04
Mof_H 	H 	0.8678	0.8024	0.2201	0.045
Mof_H 	H 	0.9782	0.5606	0.124	-0.001
Mof_H 	H 	0.574	0.3534	0.9905	0.009
Mof_H 	H 	0.0342	0.7208	0.0592	0.014
Mof_H 	H 	0.6187	0.5096	0.9221	0.042
Mof_H 	H 	0.993	0.6996	0.8068	-0.017
Mof_H 	H 	0.4135	0.7754	0.736	0.015
Mof_H 	H 	0.363	0.8714	0.6433	0.039
Mof_H 	H 	0.9346	0.8024	0.7201	0.046
Mof_H 	H 	0.5824	0.5606	0.624	-0.006
Mof_H 	H 	0.7794	0.3534	0.4905	0.006
Mof_H 	H 	0.6866	0.7208	0.5592	0.027
Mof_H 	H 	0.8909	0.5096	0.4221	0.045
Mof_H 	H 	0.2934	0.3004	0.6932	-0.014
Mof_H 	H 	0.6381	0.2246	0.764	0.015
Mof_H 	H 	0.4916	0.1286	0.8567	0.04
Mof_H 	H 	0.1322	0.1976	0.7799	0.045
Mof_H 	H 	0.0218	0.4394	0.876	-0.001
Mof_H 	H 	0.426	0.6466	0.0095	0.009
Mof_H 	H 	0.9658	0.2792	0.9408	0.014
Mof_H 	H 	0.3813	0.4904	0.0779	0.042
Mof_C 	C 	0.85519	0.14758	0.32614	-0.116
Mof_C 	C 	0.71893	0.92566	0.73196	0.271
Mof_C 	C 	0.10512	0.25004	0.5492	0.409
Mof_C 	C 	0.9297	0.262	0.2249	0.026
Mof_C 	C 	0.684	0.2186	0.2671	0.012
Mof_C 	C 	0.19333	0.36406	0.5145	-0.103
Mof_C 	C 	0.7126	0.1596	0.3224	-0.015
Mof_C 	C 	0.51965	0.0717	0.52318	0.28
Mof_C 	C 	0.88844	0.07708	0.38226	0.498
Mof_C 	C 	0.96658	0.20156	0.2775	-0.024
Mof_C 	C 	0.3523	0.4492	0.4164	0.019
Mof_C 	C 	0.2371	0.5702	0.4943	0.032
Mof_C 	C 	0.28992	0.35224	0.455	-0.025
Mof_C 	C 	0.1698	0.4768	0.5359	-0.042
Mof_C 	C 	0.70761	0.85242	0.17386	-0.115
Mof_C 	C 	0.79327	0.07434	0.76804	0.27
Mof_C 	C 	0.85508	0.74996	0.9508	0.414
Mof_C 	C 	0.6677	0.738	0.2751	0.024
Mof_C 	C 	0.4654	0.7814	0.2329	0.013
Mof_C 	C 	0.82927	0.63594	0.9855	-0.122
Mof_C 	C 	0.553	0.8404	0.1776	-0.015
Mof_C 	C 	0.44795	0.9283	0.97682	0.277
Mof_C 	C 	0.81136	0.92292	0.11774	0.498
Mof_C 	C 	0.76502	0.79844	0.2225	-0.019
Mof_C 	C 	0.9031	0.5508	0.0836	0.005
Mof_C 	C 	0.6669	0.4298	0.0057	0.026
Mof_C 	C 	0.93768	0.64776	0.045	0.002
Mof_C 	C 	0.693	0.5232	0.9641	-0.033
Mof_C 	C 	0.14481	0.85242	0.67386	-0.116
Mof_C 	C 	0.28107	0.07434	0.26804	0.271
Mof_C 	C 	0.89488	0.74996	0.4508	0.409
Mof_C 	C 	0.0703	0.738	0.7751	0.026
Mof_C 	C 	0.316	0.7814	0.7329	0.012
Mof_C 	C 	0.80667	0.63594	0.4855	-0.103
Mof_C 	C 	0.2874	0.8404	0.6776	-0.015
Mof_C 	C 	0.48035	0.9283	0.47682	0.28
Mof_C 	C 	0.11156	0.92292	0.61774	0.498
Mof_C 	C 	0.03342	0.79844	0.7225	-0.024
Mof_C 	C 	0.6477	0.5508	0.5836	0.019
Mof_C 	C 	0.7629	0.4298	0.5057	0.032
Mof_C 	C 	0.71008	0.64776	0.545	-0.025
Mof_C 	C 	0.8302	0.5232	0.4641	-0.042
Mof_C 	C 	0.29239	0.14758	0.82614	-0.115
Mof_C 	C 	0.20673	0.92566	0.23196	0.27
Mof_C 	C 	0.14492	0.25004	0.0492	0.414
Mof_C 	C 	0.3323	0.262	0.7249	0.024
Mof_C 	C 	0.5346	0.2186	0.7671	0.013
Mof_C 	C 	0.17073	0.36406	0.0145	-0.122
Mof_C 	C 	0.447	0.1596	0.8224	-0.015
Mof_C 	C 	0.55205	0.0717	0.02318	0.277
Mof_C 	C 	0.18864	0.07708	0.88226	0.498
Mof_C 	C 	0.23498	0.20156	0.7775	-0.019
Mof_C 	C 	0.0969	0.4492	0.9164	0.005
Mof_C 	C 	0.3331	0.5702	0.9943	0.026
Mof_C 	C 	0.06232	0.35224	0.955	0.002
Mof_C 	C 	0.307	0.4768	0.0359	-0.033
Mof_N 	N 	0.78966	0.26772	0.2176	-0.242
Mof_N 	N 	0.324	0.5556	0.4338	-0.243
Mof_N 	N 	0.52194	0.73228	0.2824	-0.241
Mof_N 	N 	0.7684	0.4444	0.0662	-0.24
Mof_N 	N 	0.21034	0.73228	0.7824	-0.242
Mof_N 	N 	0.676	0.4444	0.5662	-0.243
Mof_N 	N 	0.47806	0.26772	0.7176	-0.241
Mof_N 	N 	0.2316	0.5556	0.9338	-0.24
Mof_O 	O 	0.63733	0.12706	0.57714	-0.528
Mof_O 	O 	0.67769	0.88438	0.65675	-0.457
Mof_O 	O 	0.81468	0.07336	0.44378	-0.555
Mof_O 	O 	0.12593	0.14646	0.52466	-0.623
Mof_O 	O 	0.43287	0.12194	0.50409	-0.506
Mof_O 	O 	0.99001	0.03062	0.36318	-0.569
Mof_O 	O 	0.70236	0.85872	0.78148	-0.452
Mof_O 	O 	0.00673	0.26066	0.59778	-0.497
Mof_O 	O 	0.51027	0.87294	0.92286	-0.529
Mof_O 	O 	0.79331	0.11562	0.84325	-0.457
Mof_O 	O 	0.74132	0.92664	0.05622	-0.549
Mof_O 	O 	0.97947	0.85354	0.97534	-0.631
Mof_O 	O 	0.31093	0.87806	0.99591	-0.509
Mof_O 	O 	0.95939	0.96938	0.13682	-0.56
Mof_O 	O 	0.84364	0.14128	0.71852	-0.453
Mof_O 	O 	0.74607	0.73934	0.90222	-0.5
Mof_O 	O 	0.36267	0.87294	0.42286	-0.528
Mof_O 	O 	0.32231	0.11562	0.34325	-0.457
Mof_O 	O 	0.18532	0.92664	0.55622	-0.555
Mof_O 	O 	0.87407	0.85354	0.47534	-0.623
Mof_O 	O 	0.56713	0.87806	0.49591	-0.506
Mof_O 	O 	0.00999	0.96938	0.63682	-0.569
Mof_O 	O 	0.29764	0.14128	0.21852	-0.452
Mof_O 	O 	0.99327	0.73934	0.40222	-0.497
Mof_O 	O 	0.48973	0.12706	0.07714	-0.529
Mof_O 	O 	0.20669	0.88438	0.15675	-0.457
Mof_O 	O 	0.25868	0.07336	0.94378	-0.549
Mof_O 	O 	0.02053	0.14646	0.02466	-0.631
Mof_O 	O 	0.68907	0.12194	0.00409	-0.509
Mof_O 	O 	0.04061	0.03062	0.86318	-0.56
Mof_O 	O 	0.15636	0.85872	0.28148	-0.453
Mof_O 	O 	0.25393	0.26066	0.09778	-0.5
_end
