data_functionalizedCrystal
_audit_creation_method	'EQeq! by Chris Wilmer'
_symmetry_space_group_name_H-M	'P1'
_symmetry_Int_Tables_number	1
_symmetry_cell_setting	triclinic
loop_
_symmetry_equiv_pos_as_xyz
  x,y,z
_cell_length_a	11.406
_cell_length_b	14.981
_cell_length_c	16.867
_cell_angle_alpha	90
_cell_angle_beta	90
_cell_angle_gamma	90
loop_
_atom_site_label
_atom_site_type_symbol
_atom_site_fract_x
_atom_site_fract_y
_atom_site_fract_z
_atom_site_charge
Mof_N 	N 	0.3403	0.4432	0.64912	-0.233
Mof_N 	N 	0.4508	0.4323	0.61869	-0.217
Mof_H 	H 	0.5134	0.4497	0.6425	0.101
Mof_N 	N 	0.1792	0.3083	0.34588	-0.233
Mof_N 	N 	0.2402	0.2339	0.36515	-0.202
Mof_H 	H 	0.2373	0.1852	0.3382	0.075
Mof_C 	C 	0.1399	0.3997	0.6101	-0.66
Mof_H 	H 	0.1262	0.3928	0.6659	0.18
Mof_H 	H 	0.1088	0.349	0.5823	0.198
Mof_H 	H 	0.1021	0.453	0.5917	0.184
Mof_C 	C 	0.2698	0.4062	0.5951	0.208
Mof_C 	C 	0.3339	0.373	0.5299	-0.156
Mof_C 	C 	0.4513	0.391	0.547	0.261
Mof_C 	C 	0.5611	0.3719	0.5023	-0.771
Mof_H 	H 	0.6135	0.4218	0.5068	0.243
Mof_H 	H 	0.5426	0.3619	0.4475	0.252
Mof_H 	H 	0.5979	0.3196	0.5238	0.238
Mof_C 	C 	0.3813	0.1708	0.4626	-0.692
Mof_H 	H 	0.3447	0.1142	0.4525	0.199
Mof_H 	H 	0.3911	0.1786	0.5187	0.21
Mof_H 	H 	0.4565	0.1725	0.4371	0.204
Mof_C 	C 	0.3056	0.244	0.4306	0.229
Mof_C 	C 	0.2859	0.3298	0.4574	-0.142
Mof_C 	C 	0.2075	0.3683	0.4013	0.218
Mof_C 	C 	0.1627	0.4616	0.3976	-0.679
Mof_H 	H 	0.2252	0.501	0.3825	0.207
Mof_H 	H 	0.1332	0.4787	0.4487	0.198
Mof_H 	H 	0.1008	0.4651	0.3592	0.176
Mof_N 	N 	0.1597	0.9432	0.35088	-0.231
Mof_N 	N 	0.0492	0.9323	0.38131	-0.213
Mof_H 	H 	0.9866	0.9497	0.3575	0.095
Mof_N 	N 	0.3208	0.8083	0.65412	-0.231
Mof_N 	N 	0.2598	0.7339	0.63485	-0.202
Mof_H 	H 	0.2627	0.6852	0.6618	0.077
Mof_C 	C 	0.3601	0.8997	0.3899	-0.664
Mof_H 	H 	0.3738	0.8928	0.3341	0.181
Mof_H 	H 	0.3912	0.849	0.4177	0.2
Mof_H 	H 	0.3979	0.953	0.4083	0.185
Mof_C 	C 	0.2302	0.9062	0.4049	0.211
Mof_C 	C 	0.1661	0.873	0.4701	-0.159
Mof_C 	C 	0.0487	0.891	0.453	0.269
Mof_C 	C 	0.9389	0.8719	0.4977	-0.785
Mof_H 	H 	0.8865	0.9218	0.4932	0.245
Mof_H 	H 	0.9574	0.8619	0.5525	0.253
Mof_H 	H 	0.9021	0.8196	0.4762	0.241
Mof_C 	C 	0.1187	0.6708	0.5374	-0.694
Mof_H 	H 	0.1553	0.6142	0.5475	0.2
Mof_H 	H 	0.1089	0.6786	0.4813	0.211
Mof_H 	H 	0.0435	0.6725	0.5629	0.206
Mof_C 	C 	0.1944	0.744	0.5694	0.23
Mof_C 	C 	0.2141	0.8298	0.5426	-0.138
Mof_C 	C 	0.2925	0.8683	0.5987	0.214
Mof_C 	C 	0.3373	0.9616	0.6024	-0.662
Mof_H 	H 	0.2748	0.001	0.6175	0.199
Mof_H 	H 	0.3668	0.9787	0.5513	0.194
Mof_H 	H 	0.3992	0.9651	0.6408	0.172
Mof_N 	N 	0.6597	0.5568	0.14912	-0.232
Mof_N 	N 	0.5492	0.5677	0.11869	-0.216
Mof_H 	H 	0.4866	0.5503	0.1425	0.101
Mof_N 	N 	0.8208	0.6917	0.84588	-0.233
Mof_N 	N 	0.7598	0.7661	0.86515	-0.203
Mof_H 	H 	0.7627	0.8148	0.8382	0.076
Mof_C 	C 	0.8601	0.6003	0.1101	-0.664
Mof_H 	H 	0.8738	0.6072	0.1659	0.181
Mof_H 	H 	0.8912	0.651	0.0823	0.201
Mof_H 	H 	0.8979	0.547	0.0917	0.186
Mof_C 	C 	0.7302	0.5938	0.0951	0.209
Mof_C 	C 	0.6661	0.627	0.0299	-0.154
Mof_C 	C 	0.5487	0.609	0.047	0.26
Mof_C 	C 	0.4389	0.6281	0.0023	-0.772
Mof_H 	H 	0.3865	0.5782	0.0068	0.242
Mof_H 	H 	0.4574	0.6381	0.9475	0.253
Mof_H 	H 	0.4021	0.6804	0.0238	0.238
Mof_C 	C 	0.6187	0.8292	0.9626	-0.7
Mof_H 	H 	0.6553	0.8858	0.9525	0.201
Mof_H 	H 	0.6089	0.8214	0.0187	0.213
Mof_H 	H 	0.5435	0.8275	0.9371	0.206
Mof_C 	C 	0.6944	0.756	0.9306	0.232
Mof_C 	C 	0.7141	0.6702	0.9574	-0.145
Mof_C 	C 	0.7925	0.6317	0.9013	0.218
Mof_C 	C 	0.8373	0.5384	0.8976	-0.677
Mof_H 	H 	0.7748	0.499	0.8825	0.206
Mof_H 	H 	0.8668	0.5213	0.9487	0.196
Mof_H 	H 	0.8992	0.5349	0.8592	0.175
Mof_N 	N 	0.8403	0.0568	0.85088	-0.231
Mof_N 	N 	0.9508	0.0677	0.88131	-0.212
Mof_H 	H 	0.0134	0.0503	0.8575	0.097
Mof_N 	N 	0.6792	0.1917	0.15412	-0.231
Mof_N 	N 	0.7402	0.2661	0.13485	-0.201
Mof_H 	H 	0.7373	0.3148	0.1618	0.076
Mof_C 	C 	0.6399	0.1003	0.8899	-0.663
Mof_H 	H 	0.6262	0.1072	0.8341	0.181
Mof_H 	H 	0.6088	0.151	0.9177	0.199
Mof_H 	H 	0.6021	0.047	0.9083	0.185
Mof_C 	C 	0.7698	0.0938	0.9049	0.21
Mof_C 	C 	0.8339	0.127	0.9701	-0.158
Mof_C 	C 	0.9513	0.109	0.953	0.256
Mof_C 	C 	0.0611	0.1281	0.9977	-0.749
Mof_H 	H 	0.1135	0.0782	0.9932	0.236
Mof_H 	H 	0.0426	0.1381	0.0525	0.24
Mof_H 	H 	0.0979	0.1804	0.9762	0.231
Mof_C 	C 	0.8813	0.3292	0.0374	-0.674
Mof_H 	H 	0.8447	0.3858	0.0475	0.195
Mof_H 	H 	0.8911	0.3214	0.9813	0.202
Mof_H 	H 	0.9565	0.3275	0.0629	0.201
Mof_C 	C 	0.8056	0.256	0.0694	0.225
Mof_C 	C 	0.7859	0.1702	0.0426	-0.134
Mof_C 	C 	0.7075	0.1317	0.0987	0.213
Mof_C 	C 	0.6627	0.0384	0.1024	-0.661
Mof_H 	H 	0.7252	0.999	0.1175	0.2
Mof_H 	H 	0.6332	0.0213	0.0513	0.194
Mof_H 	H 	0.6008	0.0349	0.1408	0.172
Mof_N 	N 	0.6597	0.5568	0.35088	-0.232
Mof_N 	N 	0.5492	0.5677	0.38131	-0.216
Mof_H 	H 	0.4866	0.5503	0.3575	0.101
Mof_N 	N 	0.8208	0.6917	0.65412	-0.233
Mof_N 	N 	0.7598	0.7661	0.63485	-0.202
Mof_H 	H 	0.7627	0.8148	0.6618	0.075
Mof_C 	C 	0.8601	0.6003	0.3899	-0.66
Mof_H 	H 	0.8738	0.6072	0.3341	0.18
Mof_H 	H 	0.8912	0.651	0.4177	0.198
Mof_H 	H 	0.8979	0.547	0.4083	0.184
Mof_C 	C 	0.7302	0.5938	0.4049	0.208
Mof_C 	C 	0.6661	0.627	0.4701	-0.156
Mof_C 	C 	0.5487	0.609	0.453	0.261
Mof_C 	C 	0.4389	0.6281	0.4977	-0.771
Mof_H 	H 	0.3865	0.5782	0.4932	0.243
Mof_H 	H 	0.4574	0.6381	0.5525	0.252
Mof_H 	H 	0.4021	0.6804	0.4762	0.238
Mof_C 	C 	0.6187	0.8292	0.5374	-0.692
Mof_H 	H 	0.6553	0.8858	0.5475	0.199
Mof_H 	H 	0.6089	0.8214	0.4813	0.21
Mof_H 	H 	0.5435	0.8275	0.5629	0.204
Mof_C 	C 	0.6944	0.756	0.5694	0.229
Mof_C 	C 	0.7141	0.6702	0.5426	-0.142
Mof_C 	C 	0.7925	0.6317	0.5987	0.218
Mof_C 	C 	0.8373	0.5384	0.6024	-0.679
Mof_H 	H 	0.7748	0.499	0.6175	0.207
Mof_H 	H 	0.8668	0.5213	0.5513	0.198
Mof_H 	H 	0.8992	0.5349	0.6408	0.176
Mof_N 	N 	0.8403	0.0568	0.64912	-0.231
Mof_N 	N 	0.9508	0.0677	0.61869	-0.213
Mof_H 	H 	0.0134	0.0503	0.6425	0.095
Mof_N 	N 	0.6792	0.1917	0.34588	-0.231
Mof_N 	N 	0.7402	0.2661	0.36515	-0.202
Mof_H 	H 	0.7373	0.3148	0.3382	0.077
Mof_C 	C 	0.6399	0.1003	0.6101	-0.664
Mof_H 	H 	0.6262	0.1072	0.6659	0.181
Mof_H 	H 	0.6088	0.151	0.5823	0.2
Mof_H 	H 	0.6021	0.047	0.5917	0.185
Mof_C 	C 	0.7698	0.0938	0.5951	0.211
Mof_C 	C 	0.8339	0.127	0.5299	-0.159
Mof_C 	C 	0.9513	0.109	0.547	0.269
Mof_C 	C 	0.0611	0.1281	0.5023	-0.785
Mof_H 	H 	0.1135	0.0782	0.5068	0.245
Mof_H 	H 	0.0426	0.1381	0.4475	0.253
Mof_H 	H 	0.0979	0.1804	0.5238	0.241
Mof_C 	C 	0.8813	0.3292	0.4626	-0.694
Mof_H 	H 	0.8447	0.3858	0.4525	0.2
Mof_H 	H 	0.8911	0.3214	0.5187	0.211
Mof_H 	H 	0.9565	0.3275	0.4371	0.206
Mof_C 	C 	0.8056	0.256	0.4306	0.23
Mof_C 	C 	0.7859	0.1702	0.4574	-0.138
Mof_C 	C 	0.7075	0.1317	0.4013	0.214
Mof_C 	C 	0.6627	0.0384	0.3976	-0.662
Mof_H 	H 	0.7252	0.999	0.3825	0.199
Mof_H 	H 	0.6332	0.0213	0.4487	0.194
Mof_H 	H 	0.6008	0.0349	0.3592	0.172
Mof_N 	N 	0.3403	0.4432	0.85088	-0.232
Mof_N 	N 	0.4508	0.4323	0.88131	-0.216
Mof_H 	H 	0.5134	0.4497	0.8575	0.101
Mof_N 	N 	0.1792	0.3083	0.15412	-0.233
Mof_N 	N 	0.2402	0.2339	0.13485	-0.203
Mof_H 	H 	0.2373	0.1852	0.1618	0.076
Mof_C 	C 	0.1399	0.3997	0.8899	-0.664
Mof_H 	H 	0.1262	0.3928	0.8341	0.181
Mof_H 	H 	0.1088	0.349	0.9177	0.201
Mof_H 	H 	0.1021	0.453	0.9083	0.186
Mof_C 	C 	0.2698	0.4062	0.9049	0.209
Mof_C 	C 	0.3339	0.373	0.9701	-0.154
Mof_C 	C 	0.4513	0.391	0.953	0.26
Mof_C 	C 	0.5611	0.3719	0.9977	-0.772
Mof_H 	H 	0.6135	0.4218	0.9932	0.242
Mof_H 	H 	0.5426	0.3619	0.0525	0.253
Mof_H 	H 	0.5979	0.3196	0.9762	0.238
Mof_C 	C 	0.3813	0.1708	0.0374	-0.7
Mof_H 	H 	0.3447	0.1142	0.0475	0.201
Mof_H 	H 	0.3911	0.1786	0.9813	0.213
Mof_H 	H 	0.4565	0.1725	0.0629	0.206
Mof_C 	C 	0.3056	0.244	0.0694	0.232
Mof_C 	C 	0.2859	0.3298	0.0426	-0.145
Mof_C 	C 	0.2075	0.3683	0.0987	0.218
Mof_C 	C 	0.1627	0.4616	0.1024	-0.677
Mof_H 	H 	0.2252	0.501	0.1175	0.206
Mof_H 	H 	0.1332	0.4787	0.0513	0.196
Mof_H 	H 	0.1008	0.4651	0.1408	0.175
Mof_N 	N 	0.1597	0.9432	0.14912	-0.231
Mof_N 	N 	0.0492	0.9323	0.11869	-0.212
Mof_H 	H 	0.9866	0.9497	0.1425	0.097
Mof_N 	N 	0.3208	0.8083	0.84588	-0.231
Mof_N 	N 	0.2598	0.7339	0.86515	-0.201
Mof_H 	H 	0.2627	0.6852	0.8382	0.076
Mof_C 	C 	0.3601	0.8997	0.1101	-0.663
Mof_H 	H 	0.3738	0.8928	0.1659	0.181
Mof_H 	H 	0.3912	0.849	0.0823	0.199
Mof_H 	H 	0.3979	0.953	0.0917	0.185
Mof_C 	C 	0.2302	0.9062	0.0951	0.21
Mof_C 	C 	0.1661	0.873	0.0299	-0.158
Mof_C 	C 	0.0487	0.891	0.047	0.256
Mof_C 	C 	0.9389	0.8719	0.0023	-0.749
Mof_H 	H 	0.8865	0.9218	0.0068	0.236
Mof_H 	H 	0.9574	0.8619	0.9475	0.24
Mof_H 	H 	0.9021	0.8196	0.0238	0.231
Mof_C 	C 	0.1187	0.6708	0.9626	-0.674
Mof_H 	H 	0.1553	0.6142	0.9525	0.195
Mof_H 	H 	0.1089	0.6786	0.0187	0.202
Mof_H 	H 	0.0435	0.6725	0.9371	0.201
Mof_C 	C 	0.1944	0.744	0.9306	0.225
Mof_C 	C 	0.2141	0.8298	0.9574	-0.134
Mof_C 	C 	0.2925	0.8683	0.9013	0.213
Mof_C 	C 	0.3373	0.9616	0.8976	-0.661
Mof_H 	H 	0.2748	0.001	0.8825	0.2
Mof_H 	H 	0.3668	0.9787	0.9487	0.194
Mof_H 	H 	0.3992	0.9651	0.8592	0.172
Mof_I 	I 	0.50293	0.625	0.75	-0.445
Mof_Cu	Cu	0.31122	0.51716	0.75	0.836
Mof_Cu	Cu	0.4306	0.81664	0.75	0.834
Mof_N 	N 	0.159	0.5788	0.75	-0.21
Mof_C 	C 	0.0718	0.6138	0.75	-0.215
Mof_I 	I 	0.99707	0.125	0.25	-0.433
Mof_Cu	Cu	0.18878	0.01716	0.25	0.832
Mof_Cu	Cu	0.0694	0.31664	0.25	0.831
Mof_N 	N 	0.341	0.0788	0.25	-0.211
Mof_C 	C 	0.4282	0.1138	0.25	-0.217
Mof_I 	I 	0.49707	0.375	0.25	-0.445
Mof_Cu	Cu	0.68878	0.48284	0.25	0.836
Mof_Cu	Cu	0.5694	0.18336	0.25	0.834
Mof_N 	N 	0.841	0.4212	0.25	-0.21
Mof_C 	C 	0.9282	0.3862	0.25	-0.215
Mof_I 	I 	0.00293	0.875	0.75	-0.433
Mof_Cu	Cu	0.81122	0.98284	0.75	0.832
Mof_Cu	Cu	0.9306	0.68336	0.75	0.831
Mof_N 	N 	0.659	0.9212	0.75	-0.211
Mof_C 	C 	0.5718	0.8862	0.75	-0.217
_end
