data_functionalizedCrystal
_audit_creation_method	'EQeq! by Chris Wilmer'
_symmetry_space_group_name_H-M	'P1'
_symmetry_Int_Tables_number	1
_symmetry_cell_setting	triclinic
loop_
_symmetry_equiv_pos_as_xyz
  x,y,z
_cell_length_a	26.0483
_cell_length_b	26.0483
_cell_length_c	26.0483
_cell_angle_alpha	90
_cell_angle_beta	90
_cell_angle_gamma	90
loop_
_atom_site_label
_atom_site_type_symbol
_atom_site_fract_x
_atom_site_fract_y
_atom_site_fract_z
_atom_site_charge
Mof_Zr	Zr	0.51432	0.48322	0.40776	3.235
Mof_Cu	Cu	0.20629	0.48587	0.29169	0.916
Mof_Cl	Cl	0.13111	0.52495	0.28931	-0.429
Mof_Cl	Cl	0.20369	0.46074	0.3727	-0.427
Mof_O 	O 	0.38072	0.5062	0.40283	-0.16
Mof_O 	O 	0.44884	0.4856	0.35446	-0.274
Mof_O 	O 	0.09213	0.466	0.11784	-0.154
Mof_O 	O 	0.14289	0.46699	0.04957	-0.109
Mof_N 	N 	0.28219	0.48054	0.28557	-0.215
Mof_N 	N 	0.21265	0.4761	0.21564	-0.203
Mof_C 	C 	0.30057	0.47142	0.23836	0.062
Mof_C 	C 	0.35234	0.4664	0.22833	-0.094
Mof_H 	H 	0.3642	0.4578	0.1949	0.092
Mof_C 	C 	0.38672	0.4741	0.26865	0.03
Mof_H 	H 	0.4227	0.4716	0.2631	0.064
Mof_C 	C 	0.36765	0.48555	0.31693	-0.074
Mof_C 	C 	0.31475	0.48792	0.32384	0.059
Mof_H 	H 	0.3016	0.4951	0.3571	0.045
Mof_C 	C 	0.26077	0.467	0.198	0.043
Mof_C 	C 	0.27034	0.4567	0.14722	-0.065
Mof_H 	H 	0.3044	0.4507	0.1357	0.08
Mof_C 	C 	0.22955	0.4552	0.11284	-0.012
Mof_H 	H 	0.2353	0.4484	0.0775	0.09
Mof_C 	C 	0.18034	0.46367	0.13117	-0.016
Mof_C 	C 	0.17322	0.47388	0.18279	0.026
Mof_H 	H 	0.1394	0.4795	0.1953	0.059
Mof_C 	C 	0.40197	0.49347	0.36174	0.237
Mof_C 	C 	0.13504	0.46551	0.09665	0.142
Mof_O 	O 	0.53778	0.44789	0.47422	-1.732
Mof_O 	O 	0.3684	0.5107	0.4087	-0.39
Mof_O 	O 	0.452	0.4946	0.353	-0.28
Mof_O 	O 	0.087	0.4645	0.1302	-0.389
Mof_O 	O 	0.1539	0.4685	0.0421	-0.401
Mof_O 	O 	0.55105	0.43034	0.46566	0.618
Mof_Zr	Zr	0.98568	0.51678	0.90776	3.234
Mof_Cu	Cu	0.29371	0.51413	0.79169	0.915
Mof_Cl	Cl	0.36889	0.47505	0.78931	-0.43
Mof_Cl	Cl	0.29631	0.53926	0.8727	-0.428
Mof_O 	O 	0.11928	0.4938	0.90283	-0.161
Mof_O 	O 	0.05116	0.5144	0.85446	-0.275
Mof_O 	O 	0.40787	0.534	0.61784	-0.155
Mof_O 	O 	0.35711	0.53301	0.54957	-0.11
Mof_N 	N 	0.21781	0.51946	0.78557	-0.216
Mof_N 	N 	0.28735	0.5239	0.71564	-0.204
Mof_C 	C 	0.19943	0.52858	0.73836	0.062
Mof_C 	C 	0.14766	0.5336	0.72833	-0.094
Mof_H 	H 	0.1358	0.5422	0.6949	0.092
Mof_C 	C 	0.11328	0.5259	0.76865	0.03
Mof_H 	H 	0.0773	0.5284	0.7631	0.064
Mof_C 	C 	0.13235	0.51445	0.81693	-0.073
Mof_C 	C 	0.18525	0.51208	0.82384	0.059
Mof_H 	H 	0.1984	0.5049	0.8571	0.045
Mof_C 	C 	0.23923	0.533	0.698	0.043
Mof_C 	C 	0.22966	0.5433	0.64722	-0.065
Mof_H 	H 	0.1956	0.5493	0.6357	0.08
Mof_C 	C 	0.27045	0.5448	0.61284	-0.012
Mof_H 	H 	0.2647	0.5516	0.5775	0.09
Mof_C 	C 	0.31966	0.53633	0.63117	-0.016
Mof_C 	C 	0.32678	0.52612	0.68279	0.026
Mof_H 	H 	0.3606	0.5205	0.6953	0.059
Mof_C 	C 	0.09803	0.50653	0.86174	0.237
Mof_C 	C 	0.36496	0.53449	0.59665	0.142
Mof_O 	O 	0.96222	0.55211	0.97422	-1.733
Mof_O 	O 	0.1316	0.4893	0.9087	-0.39
Mof_O 	O 	0.048	0.5054	0.853	-0.28
Mof_O 	O 	0.413	0.5355	0.6302	-0.389
Mof_O 	O 	0.3461	0.5315	0.5421	-0.401
Mof_O 	O 	0.94895	0.56966	0.96566	0.618
Mof_Zr	Zr	0.48568	0.98322	0.09224	3.234
Mof_Cu	Cu	0.79371	0.98587	0.20831	0.915
Mof_Cl	Cl	0.86889	0.02495	0.21069	-0.43
Mof_Cl	Cl	0.79631	0.96074	0.1273	-0.427
Mof_O 	O 	0.61928	0.0062	0.09717	-0.161
Mof_O 	O 	0.55116	0.9856	0.14554	-0.275
Mof_O 	O 	0.90787	0.966	0.38216	-0.155
Mof_O 	O 	0.85711	0.96699	0.45043	-0.11
Mof_N 	N 	0.71781	0.98054	0.21443	-0.216
Mof_N 	N 	0.78735	0.9761	0.28436	-0.204
Mof_C 	C 	0.69943	0.97142	0.26164	0.062
Mof_C 	C 	0.64766	0.9664	0.27167	-0.094
Mof_H 	H 	0.6358	0.9578	0.3051	0.092
Mof_C 	C 	0.61328	0.9741	0.23135	0.03
Mof_H 	H 	0.5773	0.9716	0.2369	0.064
Mof_C 	C 	0.63235	0.98555	0.18307	-0.073
Mof_C 	C 	0.68525	0.98792	0.17616	0.059
Mof_H 	H 	0.6984	0.9951	0.1429	0.045
Mof_C 	C 	0.73923	0.967	0.302	0.043
Mof_C 	C 	0.72966	0.9567	0.35278	-0.065
Mof_H 	H 	0.6956	0.9507	0.3643	0.08
Mof_C 	C 	0.77045	0.9552	0.38716	-0.012
Mof_H 	H 	0.7647	0.9484	0.4225	0.09
Mof_C 	C 	0.81966	0.96367	0.36883	-0.016
Mof_C 	C 	0.82678	0.97388	0.31721	0.027
Mof_H 	H 	0.8606	0.9795	0.3047	0.059
Mof_C 	C 	0.59803	0.99347	0.13826	0.238
Mof_C 	C 	0.86496	0.96551	0.40335	0.142
Mof_O 	O 	0.46222	0.94789	0.02578	-1.73
Mof_O 	O 	0.6316	0.0107	0.0913	-0.391
Mof_O 	O 	0.548	0.9946	0.147	-0.28
Mof_O 	O 	0.913	0.9645	0.3698	-0.389
Mof_O 	O 	0.8461	0.9685	0.4579	-0.401
Mof_O 	O 	0.44895	0.93034	0.03434	0.617
Mof_Zr	Zr	0.01432	0.01678	0.59224	3.234
Mof_Cu	Cu	0.70629	0.01413	0.70831	0.915
Mof_Cl	Cl	0.63111	0.97505	0.71069	-0.431
Mof_Cl	Cl	0.70369	0.03926	0.6273	-0.427
Mof_O 	O 	0.88072	0.9938	0.59717	-0.161
Mof_O 	O 	0.94884	0.0144	0.64554	-0.274
Mof_O 	O 	0.59213	0.034	0.88216	-0.155
Mof_O 	O 	0.64289	0.03301	0.95043	-0.109
Mof_N 	N 	0.78219	0.01946	0.71443	-0.216
Mof_N 	N 	0.71265	0.0239	0.78436	-0.203
Mof_C 	C 	0.80057	0.02858	0.76164	0.062
Mof_C 	C 	0.85234	0.0336	0.77167	-0.094
Mof_H 	H 	0.8642	0.0422	0.8051	0.092
Mof_C 	C 	0.88672	0.0259	0.73135	0.03
Mof_H 	H 	0.9227	0.0284	0.7369	0.064
Mof_C 	C 	0.86765	0.01445	0.68307	-0.073
Mof_C 	C 	0.81475	0.01208	0.67616	0.059
Mof_H 	H 	0.8016	0.0049	0.6429	0.045
Mof_C 	C 	0.76077	0.033	0.802	0.043
Mof_C 	C 	0.77034	0.0433	0.85278	-0.065
Mof_H 	H 	0.8044	0.0493	0.8643	0.08
Mof_C 	C 	0.72955	0.0448	0.88716	-0.012
Mof_H 	H 	0.7353	0.0516	0.9225	0.09
Mof_C 	C 	0.68034	0.03633	0.86883	-0.015
Mof_C 	C 	0.67322	0.02612	0.81721	0.027
Mof_H 	H 	0.6394	0.0205	0.8047	0.059
Mof_C 	C 	0.90197	0.00653	0.63826	0.238
Mof_C 	C 	0.63504	0.03449	0.90335	0.142
Mof_O 	O 	0.03778	0.05211	0.52578	-1.734
Mof_O 	O 	0.8684	0.9893	0.5913	-0.392
Mof_O 	O 	0.952	0.0054	0.647	-0.28
Mof_O 	O 	0.587	0.0355	0.8698	-0.389
Mof_O 	O 	0.6539	0.0315	0.9579	-0.401
Mof_O 	O 	0.05105	0.06966	0.53434	0.619
Mof_Zr	Zr	0.40776	0.51432	0.48322	3.234
Mof_Cu	Cu	0.29169	0.20629	0.48587	0.915
Mof_Cl	Cl	0.28931	0.13111	0.52495	-0.43
Mof_Cl	Cl	0.3727	0.20369	0.46074	-0.428
Mof_O 	O 	0.40283	0.38072	0.5062	-0.161
Mof_O 	O 	0.35446	0.44884	0.4856	-0.275
Mof_O 	O 	0.11784	0.09213	0.466	-0.155
Mof_O 	O 	0.04957	0.14289	0.46699	-0.11
Mof_N 	N 	0.28557	0.28219	0.48054	-0.216
Mof_N 	N 	0.21564	0.21265	0.4761	-0.204
Mof_C 	C 	0.23836	0.30057	0.47142	0.062
Mof_C 	C 	0.22833	0.35234	0.4664	-0.094
Mof_H 	H 	0.1949	0.3642	0.4578	0.092
Mof_C 	C 	0.26865	0.38672	0.4741	0.03
Mof_H 	H 	0.2631	0.4227	0.4716	0.064
Mof_C 	C 	0.31693	0.36765	0.48555	-0.074
Mof_C 	C 	0.32384	0.31475	0.48792	0.059
Mof_H 	H 	0.3571	0.3016	0.4951	0.045
Mof_C 	C 	0.198	0.26077	0.467	0.043
Mof_C 	C 	0.14722	0.27034	0.4567	-0.065
Mof_H 	H 	0.1357	0.3044	0.4507	0.08
Mof_C 	C 	0.11284	0.22955	0.4552	-0.012
Mof_H 	H 	0.0775	0.2353	0.4484	0.09
Mof_C 	C 	0.13117	0.18034	0.46367	-0.016
Mof_C 	C 	0.18279	0.17322	0.47388	0.026
Mof_H 	H 	0.1953	0.1394	0.4795	0.059
Mof_C 	C 	0.36174	0.40197	0.49347	0.237
Mof_C 	C 	0.09665	0.13504	0.46551	0.142
Mof_O 	O 	0.47422	0.53778	0.44789	-1.732
Mof_O 	O 	0.4087	0.3684	0.5107	-0.39
Mof_O 	O 	0.353	0.452	0.4946	-0.28
Mof_O 	O 	0.1302	0.087	0.4645	-0.389
Mof_O 	O 	0.0421	0.1539	0.4685	-0.401
Mof_O 	O 	0.46566	0.55105	0.43034	0.618
Mof_Zr	Zr	0.90776	0.98568	0.51678	3.234
Mof_Cu	Cu	0.79169	0.29371	0.51413	0.915
Mof_Cl	Cl	0.78931	0.36889	0.47505	-0.43
Mof_Cl	Cl	0.8727	0.29631	0.53926	-0.428
Mof_O 	O 	0.90283	0.11928	0.4938	-0.161
Mof_O 	O 	0.85446	0.05116	0.5144	-0.275
Mof_O 	O 	0.61784	0.40787	0.534	-0.155
Mof_O 	O 	0.54957	0.35711	0.53301	-0.11
Mof_N 	N 	0.78557	0.21781	0.51946	-0.216
Mof_N 	N 	0.71564	0.28735	0.5239	-0.204
Mof_C 	C 	0.73836	0.19943	0.52858	0.062
Mof_C 	C 	0.72833	0.14766	0.5336	-0.094
Mof_H 	H 	0.6949	0.1358	0.5422	0.092
Mof_C 	C 	0.76865	0.11328	0.5259	0.03
Mof_H 	H 	0.7631	0.0773	0.5284	0.064
Mof_C 	C 	0.81693	0.13235	0.51445	-0.073
Mof_C 	C 	0.82384	0.18525	0.51208	0.059
Mof_H 	H 	0.8571	0.1984	0.5049	0.045
Mof_C 	C 	0.698	0.23923	0.533	0.043
Mof_C 	C 	0.64722	0.22966	0.5433	-0.065
Mof_H 	H 	0.6357	0.1956	0.5493	0.08
Mof_C 	C 	0.61284	0.27045	0.5448	-0.012
Mof_H 	H 	0.5775	0.2647	0.5516	0.09
Mof_C 	C 	0.63117	0.31966	0.53633	-0.016
Mof_C 	C 	0.68279	0.32678	0.52612	0.026
Mof_H 	H 	0.6953	0.3606	0.5205	0.059
Mof_C 	C 	0.86174	0.09803	0.50653	0.237
Mof_C 	C 	0.59665	0.36496	0.53449	0.142
Mof_O 	O 	0.97422	0.96222	0.55211	-1.733
Mof_O 	O 	0.9087	0.1316	0.4893	-0.39
Mof_O 	O 	0.853	0.048	0.5054	-0.28
Mof_O 	O 	0.6302	0.413	0.5355	-0.389
Mof_O 	O 	0.5421	0.3461	0.5315	-0.401
Mof_O 	O 	0.96566	0.94895	0.56966	0.618
Mof_Zr	Zr	0.09224	0.48568	0.98322	3.234
Mof_Cu	Cu	0.20831	0.79371	0.98587	0.915
Mof_Cl	Cl	0.21069	0.86889	0.02495	-0.43
Mof_Cl	Cl	0.1273	0.79631	0.96074	-0.427
Mof_O 	O 	0.09717	0.61928	0.0062	-0.161
Mof_O 	O 	0.14554	0.55116	0.9856	-0.275
Mof_O 	O 	0.38216	0.90787	0.966	-0.155
Mof_O 	O 	0.45043	0.85711	0.96699	-0.11
Mof_N 	N 	0.21443	0.71781	0.98054	-0.216
Mof_N 	N 	0.28436	0.78735	0.9761	-0.204
Mof_C 	C 	0.26164	0.69943	0.97142	0.062
Mof_C 	C 	0.27167	0.64766	0.9664	-0.094
Mof_H 	H 	0.3051	0.6358	0.9578	0.092
Mof_C 	C 	0.23135	0.61328	0.9741	0.03
Mof_H 	H 	0.2369	0.5773	0.9716	0.064
Mof_C 	C 	0.18307	0.63235	0.98555	-0.073
Mof_C 	C 	0.17616	0.68525	0.98792	0.059
Mof_H 	H 	0.1429	0.6984	0.9951	0.045
Mof_C 	C 	0.302	0.73923	0.967	0.043
Mof_C 	C 	0.35278	0.72966	0.9567	-0.065
Mof_H 	H 	0.3643	0.6956	0.9507	0.08
Mof_C 	C 	0.38716	0.77045	0.9552	-0.012
Mof_H 	H 	0.4225	0.7647	0.9484	0.09
Mof_C 	C 	0.36883	0.81966	0.96367	-0.016
Mof_C 	C 	0.31721	0.82678	0.97388	0.027
Mof_H 	H 	0.3047	0.8606	0.9795	0.059
Mof_C 	C 	0.13826	0.59803	0.99347	0.238
Mof_C 	C 	0.40335	0.86496	0.96551	0.142
Mof_O 	O 	0.02578	0.46222	0.94789	-1.73
Mof_O 	O 	0.0913	0.6316	0.0107	-0.391
Mof_O 	O 	0.147	0.548	0.9946	-0.28
Mof_O 	O 	0.3698	0.913	0.9645	-0.389
Mof_O 	O 	0.4579	0.8461	0.9685	-0.401
Mof_O 	O 	0.03434	0.44895	0.93034	0.617
Mof_Zr	Zr	0.59224	0.01432	0.01678	3.234
Mof_Cu	Cu	0.70831	0.70629	0.01413	0.915
Mof_Cl	Cl	0.71069	0.63111	0.97505	-0.431
Mof_Cl	Cl	0.6273	0.70369	0.03926	-0.427
Mof_O 	O 	0.59717	0.88072	0.9938	-0.161
Mof_O 	O 	0.64554	0.94884	0.0144	-0.274
Mof_O 	O 	0.88216	0.59213	0.034	-0.155
Mof_O 	O 	0.95043	0.64289	0.03301	-0.109
Mof_N 	N 	0.71443	0.78219	0.01946	-0.216
Mof_N 	N 	0.78436	0.71265	0.0239	-0.203
Mof_C 	C 	0.76164	0.80057	0.02858	0.062
Mof_C 	C 	0.77167	0.85234	0.0336	-0.094
Mof_H 	H 	0.8051	0.8642	0.0422	0.092
Mof_C 	C 	0.73135	0.88672	0.0259	0.03
Mof_H 	H 	0.7369	0.9227	0.0284	0.064
Mof_C 	C 	0.68307	0.86765	0.01445	-0.073
Mof_C 	C 	0.67616	0.81475	0.01208	0.059
Mof_H 	H 	0.6429	0.8016	0.0049	0.045
Mof_C 	C 	0.802	0.76077	0.033	0.043
Mof_C 	C 	0.85278	0.77034	0.0433	-0.065
Mof_H 	H 	0.8643	0.8044	0.0493	0.08
Mof_C 	C 	0.88716	0.72955	0.0448	-0.012
Mof_H 	H 	0.9225	0.7353	0.0516	0.09
Mof_C 	C 	0.86883	0.68034	0.03633	-0.015
Mof_C 	C 	0.81721	0.67322	0.02612	0.027
Mof_H 	H 	0.8047	0.6394	0.0205	0.059
Mof_C 	C 	0.63826	0.90197	0.00653	0.238
Mof_C 	C 	0.90335	0.63504	0.03449	0.142
Mof_O 	O 	0.52578	0.03778	0.05211	-1.734
Mof_O 	O 	0.5913	0.8684	0.9893	-0.392
Mof_O 	O 	0.647	0.952	0.0054	-0.28
Mof_O 	O 	0.8698	0.587	0.0355	-0.389
Mof_O 	O 	0.9579	0.6539	0.0315	-0.401
Mof_O 	O 	0.53434	0.05105	0.06966	0.619
Mof_Zr	Zr	0.48322	0.40776	0.51432	3.234
Mof_Cu	Cu	0.48587	0.29169	0.20629	0.915
Mof_Cl	Cl	0.52495	0.28931	0.13111	-0.43
Mof_Cl	Cl	0.46074	0.3727	0.20369	-0.428
Mof_O 	O 	0.5062	0.40283	0.38072	-0.161
Mof_O 	O 	0.4856	0.35446	0.44884	-0.275
Mof_O 	O 	0.466	0.11784	0.09213	-0.155
Mof_O 	O 	0.46699	0.04957	0.14289	-0.11
Mof_N 	N 	0.48054	0.28557	0.28219	-0.216
Mof_N 	N 	0.4761	0.21564	0.21265	-0.204
Mof_C 	C 	0.47142	0.23836	0.30057	0.062
Mof_C 	C 	0.4664	0.22833	0.35234	-0.094
Mof_H 	H 	0.4578	0.1949	0.3642	0.092
Mof_C 	C 	0.4741	0.26865	0.38672	0.03
Mof_H 	H 	0.4716	0.2631	0.4227	0.064
Mof_C 	C 	0.48555	0.31693	0.36765	-0.074
Mof_C 	C 	0.48792	0.32384	0.31475	0.059
Mof_H 	H 	0.4951	0.3571	0.3016	0.045
Mof_C 	C 	0.467	0.198	0.26077	0.043
Mof_C 	C 	0.4567	0.14722	0.27034	-0.065
Mof_H 	H 	0.4507	0.1357	0.3044	0.08
Mof_C 	C 	0.4552	0.11284	0.22955	-0.012
Mof_H 	H 	0.4484	0.0775	0.2353	0.09
Mof_C 	C 	0.46367	0.13117	0.18034	-0.016
Mof_C 	C 	0.47388	0.18279	0.17322	0.026
Mof_H 	H 	0.4795	0.1953	0.1394	0.059
Mof_C 	C 	0.49347	0.36174	0.40197	0.237
Mof_C 	C 	0.46551	0.09665	0.13504	0.142
Mof_O 	O 	0.44789	0.47422	0.53778	-1.732
Mof_O 	O 	0.5107	0.4087	0.3684	-0.39
Mof_O 	O 	0.4946	0.353	0.452	-0.28
Mof_O 	O 	0.4645	0.1302	0.087	-0.389
Mof_O 	O 	0.4685	0.0421	0.1539	-0.401
Mof_O 	O 	0.43034	0.46566	0.55105	0.618
Mof_Zr	Zr	0.51678	0.90776	0.98568	3.234
Mof_Cu	Cu	0.51413	0.79169	0.29371	0.915
Mof_Cl	Cl	0.47505	0.78931	0.36889	-0.43
Mof_Cl	Cl	0.53926	0.8727	0.29631	-0.428
Mof_O 	O 	0.4938	0.90283	0.11928	-0.161
Mof_O 	O 	0.5144	0.85446	0.05116	-0.275
Mof_O 	O 	0.534	0.61784	0.40787	-0.155
Mof_O 	O 	0.53301	0.54957	0.35711	-0.11
Mof_N 	N 	0.51946	0.78557	0.21781	-0.216
Mof_N 	N 	0.5239	0.71564	0.28735	-0.204
Mof_C 	C 	0.52858	0.73836	0.19943	0.062
Mof_C 	C 	0.5336	0.72833	0.14766	-0.094
Mof_H 	H 	0.5422	0.6949	0.1358	0.092
Mof_C 	C 	0.5259	0.76865	0.11328	0.03
Mof_H 	H 	0.5284	0.7631	0.0773	0.064
Mof_C 	C 	0.51445	0.81693	0.13235	-0.073
Mof_C 	C 	0.51208	0.82384	0.18525	0.059
Mof_H 	H 	0.5049	0.8571	0.1984	0.045
Mof_C 	C 	0.533	0.698	0.23923	0.043
Mof_C 	C 	0.5433	0.64722	0.22966	-0.065
Mof_H 	H 	0.5493	0.6357	0.1956	0.08
Mof_C 	C 	0.5448	0.61284	0.27045	-0.012
Mof_H 	H 	0.5516	0.5775	0.2647	0.09
Mof_C 	C 	0.53633	0.63117	0.31966	-0.016
Mof_C 	C 	0.52612	0.68279	0.32678	0.026
Mof_H 	H 	0.5205	0.6953	0.3606	0.059
Mof_C 	C 	0.50653	0.86174	0.09803	0.237
Mof_C 	C 	0.53449	0.59665	0.36496	0.142
Mof_O 	O 	0.55211	0.97422	0.96222	-1.733
Mof_O 	O 	0.4893	0.9087	0.1316	-0.39
Mof_O 	O 	0.5054	0.853	0.048	-0.28
Mof_O 	O 	0.5355	0.6302	0.413	-0.389
Mof_O 	O 	0.5315	0.5421	0.3461	-0.401
Mof_O 	O 	0.56966	0.96566	0.94895	0.618
Mof_Zr	Zr	0.98322	0.09224	0.48568	3.234
Mof_Cu	Cu	0.98587	0.20831	0.79371	0.915
Mof_Cl	Cl	0.02495	0.21069	0.86889	-0.43
Mof_Cl	Cl	0.96074	0.1273	0.79631	-0.427
Mof_O 	O 	0.0062	0.09717	0.61928	-0.161
Mof_O 	O 	0.9856	0.14554	0.55116	-0.275
Mof_O 	O 	0.966	0.38216	0.90787	-0.155
Mof_O 	O 	0.96699	0.45043	0.85711	-0.11
Mof_N 	N 	0.98054	0.21443	0.71781	-0.216
Mof_N 	N 	0.9761	0.28436	0.78735	-0.204
Mof_C 	C 	0.97142	0.26164	0.69943	0.062
Mof_C 	C 	0.9664	0.27167	0.64766	-0.094
Mof_H 	H 	0.9578	0.3051	0.6358	0.092
Mof_C 	C 	0.9741	0.23135	0.61328	0.03
Mof_H 	H 	0.9716	0.2369	0.5773	0.064
Mof_C 	C 	0.98555	0.18307	0.63235	-0.073
Mof_C 	C 	0.98792	0.17616	0.68525	0.059
Mof_H 	H 	0.9951	0.1429	0.6984	0.045
Mof_C 	C 	0.967	0.302	0.73923	0.043
Mof_C 	C 	0.9567	0.35278	0.72966	-0.065
Mof_H 	H 	0.9507	0.3643	0.6956	0.08
Mof_C 	C 	0.9552	0.38716	0.77045	-0.012
Mof_H 	H 	0.9484	0.4225	0.7647	0.09
Mof_C 	C 	0.96367	0.36883	0.81966	-0.016
Mof_C 	C 	0.97388	0.31721	0.82678	0.027
Mof_H 	H 	0.9795	0.3047	0.8606	0.059
Mof_C 	C 	0.99347	0.13826	0.59803	0.238
Mof_C 	C 	0.96551	0.40335	0.86496	0.142
Mof_O 	O 	0.94789	0.02578	0.46222	-1.73
Mof_O 	O 	0.0107	0.0913	0.6316	-0.391
Mof_O 	O 	0.9946	0.147	0.548	-0.28
Mof_O 	O 	0.9645	0.3698	0.913	-0.389
Mof_O 	O 	0.9685	0.4579	0.8461	-0.401
Mof_O 	O 	0.93034	0.03434	0.44895	0.617
Mof_Zr	Zr	0.01678	0.59224	0.01432	3.234
Mof_Cu	Cu	0.01413	0.70831	0.70629	0.915
Mof_Cl	Cl	0.97505	0.71069	0.63111	-0.431
Mof_Cl	Cl	0.03926	0.6273	0.70369	-0.427
Mof_O 	O 	0.9938	0.59717	0.88072	-0.161
Mof_O 	O 	0.0144	0.64554	0.94884	-0.274
Mof_O 	O 	0.034	0.88216	0.59213	-0.155
Mof_O 	O 	0.03301	0.95043	0.64289	-0.109
Mof_N 	N 	0.01946	0.71443	0.78219	-0.216
Mof_N 	N 	0.0239	0.78436	0.71265	-0.203
Mof_C 	C 	0.02858	0.76164	0.80057	0.062
Mof_C 	C 	0.0336	0.77167	0.85234	-0.094
Mof_H 	H 	0.0422	0.8051	0.8642	0.092
Mof_C 	C 	0.0259	0.73135	0.88672	0.03
Mof_H 	H 	0.0284	0.7369	0.9227	0.064
Mof_C 	C 	0.01445	0.68307	0.86765	-0.073
Mof_C 	C 	0.01208	0.67616	0.81475	0.059
Mof_H 	H 	0.0049	0.6429	0.8016	0.045
Mof_C 	C 	0.033	0.802	0.76077	0.043
Mof_C 	C 	0.0433	0.85278	0.77034	-0.065
Mof_H 	H 	0.0493	0.8643	0.8044	0.08
Mof_C 	C 	0.0448	0.88716	0.72955	-0.012
Mof_H 	H 	0.0516	0.9225	0.7353	0.09
Mof_C 	C 	0.03633	0.86883	0.68034	-0.015
Mof_C 	C 	0.02612	0.81721	0.67322	0.027
Mof_H 	H 	0.0205	0.8047	0.6394	0.059
Mof_C 	C 	0.00653	0.63826	0.90197	0.238
Mof_C 	C 	0.03449	0.90335	0.63504	0.142
Mof_O 	O 	0.05211	0.52578	0.03778	-1.734
Mof_O 	O 	0.9893	0.5913	0.8684	-0.392
Mof_O 	O 	0.0054	0.647	0.952	-0.28
Mof_O 	O 	0.0355	0.8698	0.587	-0.389
Mof_O 	O 	0.0315	0.9579	0.6539	-0.401
Mof_O 	O 	0.06966	0.53434	0.05105	0.619
Mof_Zr	Zr	0.48568	0.51678	0.59224	3.234
Mof_Cu	Cu	0.79371	0.51413	0.70831	0.915
Mof_Cl	Cl	0.86889	0.47505	0.71069	-0.43
Mof_Cl	Cl	0.79631	0.53926	0.6273	-0.428
Mof_O 	O 	0.61928	0.4938	0.59717	-0.161
Mof_O 	O 	0.55116	0.5144	0.64554	-0.275
Mof_O 	O 	0.90787	0.534	0.88216	-0.155
Mof_O 	O 	0.85711	0.53301	0.95043	-0.11
Mof_N 	N 	0.71781	0.51946	0.71443	-0.216
Mof_N 	N 	0.78735	0.5239	0.78436	-0.204
Mof_C 	C 	0.69943	0.52858	0.76164	0.062
Mof_C 	C 	0.64766	0.5336	0.77167	-0.094
Mof_H 	H 	0.6358	0.5422	0.8051	0.092
Mof_C 	C 	0.61328	0.5259	0.73135	0.03
Mof_H 	H 	0.5773	0.5284	0.7369	0.064
Mof_C 	C 	0.63235	0.51445	0.68307	-0.074
Mof_C 	C 	0.68525	0.51208	0.67616	0.059
Mof_H 	H 	0.6984	0.5049	0.6429	0.045
Mof_C 	C 	0.73923	0.533	0.802	0.043
Mof_C 	C 	0.72966	0.5433	0.85278	-0.065
Mof_H 	H 	0.6956	0.5493	0.8643	0.08
Mof_C 	C 	0.77045	0.5448	0.88716	-0.012
Mof_H 	H 	0.7647	0.5516	0.9225	0.09
Mof_C 	C 	0.81966	0.53633	0.86883	-0.016
Mof_C 	C 	0.82678	0.52612	0.81721	0.026
Mof_H 	H 	0.8606	0.5205	0.8047	0.059
Mof_C 	C 	0.59803	0.50653	0.63826	0.237
Mof_C 	C 	0.86496	0.53449	0.90335	0.142
Mof_O 	O 	0.46222	0.55211	0.52578	-1.732
Mof_O 	O 	0.6316	0.4893	0.5913	-0.39
Mof_O 	O 	0.548	0.5054	0.647	-0.28
Mof_O 	O 	0.913	0.5355	0.8698	-0.389
Mof_O 	O 	0.8461	0.5315	0.9579	-0.401
Mof_O 	O 	0.44895	0.56966	0.53434	0.618
Mof_Zr	Zr	0.01432	0.48322	0.09224	3.234
Mof_Cu	Cu	0.70629	0.48587	0.20831	0.915
Mof_Cl	Cl	0.63111	0.52495	0.21069	-0.43
Mof_Cl	Cl	0.70369	0.46074	0.1273	-0.428
Mof_O 	O 	0.88072	0.5062	0.09717	-0.161
Mof_O 	O 	0.94884	0.4856	0.14554	-0.275
Mof_O 	O 	0.59213	0.466	0.38216	-0.155
Mof_O 	O 	0.64289	0.46699	0.45043	-0.11
Mof_N 	N 	0.78219	0.48054	0.21443	-0.216
Mof_N 	N 	0.71265	0.4761	0.28436	-0.204
Mof_C 	C 	0.80057	0.47142	0.26164	0.062
Mof_C 	C 	0.85234	0.4664	0.27167	-0.094
Mof_H 	H 	0.8642	0.4578	0.3051	0.092
Mof_C 	C 	0.88672	0.4741	0.23135	0.03
Mof_H 	H 	0.9227	0.4716	0.2369	0.064
Mof_C 	C 	0.86765	0.48555	0.18307	-0.073
Mof_C 	C 	0.81475	0.48792	0.17616	0.059
Mof_H 	H 	0.8016	0.4951	0.1429	0.045
Mof_C 	C 	0.76077	0.467	0.302	0.043
Mof_C 	C 	0.77034	0.4567	0.35278	-0.065
Mof_H 	H 	0.8044	0.4507	0.3643	0.08
Mof_C 	C 	0.72955	0.4552	0.38716	-0.012
Mof_H 	H 	0.7353	0.4484	0.4225	0.09
Mof_C 	C 	0.68034	0.46367	0.36883	-0.016
Mof_C 	C 	0.67322	0.47388	0.31721	0.026
Mof_H 	H 	0.6394	0.4795	0.3047	0.059
Mof_C 	C 	0.90197	0.49347	0.13826	0.237
Mof_C 	C 	0.63504	0.46551	0.40335	0.142
Mof_O 	O 	0.03778	0.44789	0.02578	-1.733
Mof_O 	O 	0.8684	0.5107	0.0913	-0.39
Mof_O 	O 	0.952	0.4946	0.147	-0.28
Mof_O 	O 	0.587	0.4645	0.3698	-0.389
Mof_O 	O 	0.6539	0.4685	0.4579	-0.401
Mof_O 	O 	0.05105	0.43034	0.03434	0.618
Mof_Zr	Zr	0.51432	0.01678	0.90776	3.234
Mof_Cu	Cu	0.20629	0.01413	0.79169	0.915
Mof_Cl	Cl	0.13111	0.97505	0.78931	-0.43
Mof_Cl	Cl	0.20369	0.03926	0.8727	-0.427
Mof_O 	O 	0.38072	0.9938	0.90283	-0.161
Mof_O 	O 	0.44884	0.0144	0.85446	-0.275
Mof_O 	O 	0.09213	0.034	0.61784	-0.155
Mof_O 	O 	0.14289	0.03301	0.54957	-0.11
Mof_N 	N 	0.28219	0.01946	0.78557	-0.216
Mof_N 	N 	0.21265	0.0239	0.71564	-0.204
Mof_C 	C 	0.30057	0.02858	0.73836	0.062
Mof_C 	C 	0.35234	0.0336	0.72833	-0.094
Mof_H 	H 	0.3642	0.0422	0.6949	0.092
Mof_C 	C 	0.38672	0.0259	0.76865	0.03
Mof_H 	H 	0.4227	0.0284	0.7631	0.064
Mof_C 	C 	0.36765	0.01445	0.81693	-0.073
Mof_C 	C 	0.31475	0.01208	0.82384	0.059
Mof_H 	H 	0.3016	0.0049	0.8571	0.045
Mof_C 	C 	0.26077	0.033	0.698	0.043
Mof_C 	C 	0.27034	0.0433	0.64722	-0.065
Mof_H 	H 	0.3044	0.0493	0.6357	0.08
Mof_C 	C 	0.22955	0.0448	0.61284	-0.012
Mof_H 	H 	0.2353	0.0516	0.5775	0.09
Mof_C 	C 	0.18034	0.03633	0.63117	-0.016
Mof_C 	C 	0.17322	0.02612	0.68279	0.027
Mof_H 	H 	0.1394	0.0205	0.6953	0.059
Mof_C 	C 	0.40197	0.00653	0.86174	0.238
Mof_C 	C 	0.13504	0.03449	0.59665	0.142
Mof_O 	O 	0.53778	0.05211	0.97422	-1.73
Mof_O 	O 	0.3684	0.9893	0.9087	-0.391
Mof_O 	O 	0.452	0.0054	0.853	-0.28
Mof_O 	O 	0.087	0.0355	0.6302	-0.389
Mof_O 	O 	0.1539	0.0315	0.5421	-0.401
Mof_O 	O 	0.55105	0.06966	0.96566	0.617
Mof_Zr	Zr	0.98568	0.98322	0.40776	3.234
Mof_Cu	Cu	0.29371	0.98587	0.29169	0.915
Mof_Cl	Cl	0.36889	0.02495	0.28931	-0.431
Mof_Cl	Cl	0.29631	0.96074	0.3727	-0.427
Mof_O 	O 	0.11928	0.0062	0.40283	-0.161
Mof_O 	O 	0.05116	0.9856	0.35446	-0.274
Mof_O 	O 	0.40787	0.966	0.11784	-0.155
Mof_O 	O 	0.35711	0.96699	0.04957	-0.109
Mof_N 	N 	0.21781	0.98054	0.28557	-0.216
Mof_N 	N 	0.28735	0.9761	0.21564	-0.203
Mof_C 	C 	0.19943	0.97142	0.23836	0.062
Mof_C 	C 	0.14766	0.9664	0.22833	-0.094
Mof_H 	H 	0.1358	0.9578	0.1949	0.092
Mof_C 	C 	0.11328	0.9741	0.26865	0.03
Mof_H 	H 	0.0773	0.9716	0.2631	0.064
Mof_C 	C 	0.13235	0.98555	0.31693	-0.073
Mof_C 	C 	0.18525	0.98792	0.32384	0.059
Mof_H 	H 	0.1984	0.9951	0.3571	0.045
Mof_C 	C 	0.23923	0.967	0.198	0.043
Mof_C 	C 	0.22966	0.9567	0.14722	-0.065
Mof_H 	H 	0.1956	0.9507	0.1357	0.08
Mof_C 	C 	0.27045	0.9552	0.11284	-0.012
Mof_H 	H 	0.2647	0.9484	0.0775	0.09
Mof_C 	C 	0.31966	0.96367	0.13117	-0.015
Mof_C 	C 	0.32678	0.97388	0.18279	0.027
Mof_H 	H 	0.3606	0.9795	0.1953	0.059
Mof_C 	C 	0.09803	0.99347	0.36174	0.238
Mof_C 	C 	0.36496	0.96551	0.09665	0.142
Mof_O 	O 	0.96222	0.94789	0.47422	-1.734
Mof_O 	O 	0.1316	0.0107	0.4087	-0.392
Mof_O 	O 	0.048	0.9946	0.353	-0.28
Mof_O 	O 	0.413	0.9645	0.1302	-0.389
Mof_O 	O 	0.3461	0.9685	0.0421	-0.401
Mof_O 	O 	0.94895	0.93034	0.46566	0.619
Mof_Zr	Zr	0.59224	0.48568	0.51678	3.234
Mof_Cu	Cu	0.70831	0.79371	0.51413	0.915
Mof_Cl	Cl	0.71069	0.86889	0.47505	-0.43
Mof_Cl	Cl	0.6273	0.79631	0.53926	-0.428
Mof_O 	O 	0.59717	0.61928	0.4938	-0.161
Mof_O 	O 	0.64554	0.55116	0.5144	-0.275
Mof_O 	O 	0.88216	0.90787	0.534	-0.155
Mof_O 	O 	0.95043	0.85711	0.53301	-0.11
Mof_N 	N 	0.71443	0.71781	0.51946	-0.216
Mof_N 	N 	0.78436	0.78735	0.5239	-0.204
Mof_C 	C 	0.76164	0.69943	0.52858	0.062
Mof_C 	C 	0.77167	0.64766	0.5336	-0.094
Mof_H 	H 	0.8051	0.6358	0.5422	0.092
Mof_C 	C 	0.73135	0.61328	0.5259	0.03
Mof_H 	H 	0.7369	0.5773	0.5284	0.064
Mof_C 	C 	0.68307	0.63235	0.51445	-0.074
Mof_C 	C 	0.67616	0.68525	0.51208	0.059
Mof_H 	H 	0.6429	0.6984	0.5049	0.045
Mof_C 	C 	0.802	0.73923	0.533	0.043
Mof_C 	C 	0.85278	0.72966	0.5433	-0.065
Mof_H 	H 	0.8643	0.6956	0.5493	0.08
Mof_C 	C 	0.88716	0.77045	0.5448	-0.012
Mof_H 	H 	0.9225	0.7647	0.5516	0.09
Mof_C 	C 	0.86883	0.81966	0.53633	-0.016
Mof_C 	C 	0.81721	0.82678	0.52612	0.026
Mof_H 	H 	0.8047	0.8606	0.5205	0.059
Mof_C 	C 	0.63826	0.59803	0.50653	0.237
Mof_C 	C 	0.90335	0.86496	0.53449	0.142
Mof_O 	O 	0.52578	0.46222	0.55211	-1.732
Mof_O 	O 	0.5913	0.6316	0.4893	-0.39
Mof_O 	O 	0.647	0.548	0.5054	-0.28
Mof_O 	O 	0.8698	0.913	0.5355	-0.389
Mof_O 	O 	0.9579	0.8461	0.5315	-0.401
Mof_O 	O 	0.53434	0.44895	0.56966	0.618
Mof_Zr	Zr	0.09224	0.01432	0.48322	3.234
Mof_Cu	Cu	0.20831	0.70629	0.48587	0.915
Mof_Cl	Cl	0.21069	0.63111	0.52495	-0.43
Mof_Cl	Cl	0.1273	0.70369	0.46074	-0.428
Mof_O 	O 	0.09717	0.88072	0.5062	-0.161
Mof_O 	O 	0.14554	0.94884	0.4856	-0.275
Mof_O 	O 	0.38216	0.59213	0.466	-0.155
Mof_O 	O 	0.45043	0.64289	0.46699	-0.11
Mof_N 	N 	0.21443	0.78219	0.48054	-0.216
Mof_N 	N 	0.28436	0.71265	0.4761	-0.204
Mof_C 	C 	0.26164	0.80057	0.47142	0.062
Mof_C 	C 	0.27167	0.85234	0.4664	-0.094
Mof_H 	H 	0.3051	0.8642	0.4578	0.092
Mof_C 	C 	0.23135	0.88672	0.4741	0.03
Mof_H 	H 	0.2369	0.9227	0.4716	0.064
Mof_C 	C 	0.18307	0.86765	0.48555	-0.073
Mof_C 	C 	0.17616	0.81475	0.48792	0.059
Mof_H 	H 	0.1429	0.8016	0.4951	0.045
Mof_C 	C 	0.302	0.76077	0.467	0.043
Mof_C 	C 	0.35278	0.77034	0.4567	-0.065
Mof_H 	H 	0.3643	0.8044	0.4507	0.08
Mof_C 	C 	0.38716	0.72955	0.4552	-0.012
Mof_H 	H 	0.4225	0.7353	0.4484	0.09
Mof_C 	C 	0.36883	0.68034	0.46367	-0.016
Mof_C 	C 	0.31721	0.67322	0.47388	0.026
Mof_H 	H 	0.3047	0.6394	0.4795	0.059
Mof_C 	C 	0.13826	0.90197	0.49347	0.237
Mof_C 	C 	0.40335	0.63504	0.46551	0.142
Mof_O 	O 	0.02578	0.03778	0.44789	-1.733
Mof_O 	O 	0.0913	0.8684	0.5107	-0.39
Mof_O 	O 	0.147	0.952	0.4946	-0.28
Mof_O 	O 	0.3698	0.587	0.4645	-0.389
Mof_O 	O 	0.4579	0.6539	0.4685	-0.401
Mof_O 	O 	0.03434	0.05105	0.43034	0.618
Mof_Zr	Zr	0.90776	0.51432	0.01678	3.234
Mof_Cu	Cu	0.79169	0.20629	0.01413	0.915
Mof_Cl	Cl	0.78931	0.13111	0.97505	-0.43
Mof_Cl	Cl	0.8727	0.20369	0.03926	-0.427
Mof_O 	O 	0.90283	0.38072	0.9938	-0.161
Mof_O 	O 	0.85446	0.44884	0.0144	-0.275
Mof_O 	O 	0.61784	0.09213	0.034	-0.155
Mof_O 	O 	0.54957	0.14289	0.03301	-0.11
Mof_N 	N 	0.78557	0.28219	0.01946	-0.216
Mof_N 	N 	0.71564	0.21265	0.0239	-0.204
Mof_C 	C 	0.73836	0.30057	0.02858	0.062
Mof_C 	C 	0.72833	0.35234	0.0336	-0.094
Mof_H 	H 	0.6949	0.3642	0.0422	0.092
Mof_C 	C 	0.76865	0.38672	0.0259	0.03
Mof_H 	H 	0.7631	0.4227	0.0284	0.064
Mof_C 	C 	0.81693	0.36765	0.01445	-0.073
Mof_C 	C 	0.82384	0.31475	0.01208	0.059
Mof_H 	H 	0.8571	0.3016	0.0049	0.045
Mof_C 	C 	0.698	0.26077	0.033	0.043
Mof_C 	C 	0.64722	0.27034	0.0433	-0.065
Mof_H 	H 	0.6357	0.3044	0.0493	0.08
Mof_C 	C 	0.61284	0.22955	0.0448	-0.012
Mof_H 	H 	0.5775	0.2353	0.0516	0.09
Mof_C 	C 	0.63117	0.18034	0.03633	-0.016
Mof_C 	C 	0.68279	0.17322	0.02612	0.027
Mof_H 	H 	0.6953	0.1394	0.0205	0.059
Mof_C 	C 	0.86174	0.40197	0.00653	0.238
Mof_C 	C 	0.59665	0.13504	0.03449	0.142
Mof_O 	O 	0.97422	0.53778	0.05211	-1.73
Mof_O 	O 	0.9087	0.3684	0.9893	-0.391
Mof_O 	O 	0.853	0.452	0.0054	-0.28
Mof_O 	O 	0.6302	0.087	0.0355	-0.389
Mof_O 	O 	0.5421	0.1539	0.0315	-0.401
Mof_O 	O 	0.96566	0.55105	0.06966	0.617
Mof_Zr	Zr	0.40776	0.98568	0.98322	3.234
Mof_Cu	Cu	0.29169	0.29371	0.98587	0.915
Mof_Cl	Cl	0.28931	0.36889	0.02495	-0.431
Mof_Cl	Cl	0.3727	0.29631	0.96074	-0.427
Mof_O 	O 	0.40283	0.11928	0.0062	-0.161
Mof_O 	O 	0.35446	0.05116	0.9856	-0.274
Mof_O 	O 	0.11784	0.40787	0.966	-0.155
Mof_O 	O 	0.04957	0.35711	0.96699	-0.109
Mof_N 	N 	0.28557	0.21781	0.98054	-0.216
Mof_N 	N 	0.21564	0.28735	0.9761	-0.203
Mof_C 	C 	0.23836	0.19943	0.97142	0.062
Mof_C 	C 	0.22833	0.14766	0.9664	-0.094
Mof_H 	H 	0.1949	0.1358	0.9578	0.092
Mof_C 	C 	0.26865	0.11328	0.9741	0.03
Mof_H 	H 	0.2631	0.0773	0.9716	0.064
Mof_C 	C 	0.31693	0.13235	0.98555	-0.073
Mof_C 	C 	0.32384	0.18525	0.98792	0.059
Mof_H 	H 	0.3571	0.1984	0.9951	0.045
Mof_C 	C 	0.198	0.23923	0.967	0.043
Mof_C 	C 	0.14722	0.22966	0.9567	-0.065
Mof_H 	H 	0.1357	0.1956	0.9507	0.08
Mof_C 	C 	0.11284	0.27045	0.9552	-0.012
Mof_H 	H 	0.0775	0.2647	0.9484	0.09
Mof_C 	C 	0.13117	0.31966	0.96367	-0.015
Mof_C 	C 	0.18279	0.32678	0.97388	0.027
Mof_H 	H 	0.1953	0.3606	0.9795	0.059
Mof_C 	C 	0.36174	0.09803	0.99347	0.238
Mof_C 	C 	0.09665	0.36496	0.96551	0.142
Mof_O 	O 	0.47422	0.96222	0.94789	-1.734
Mof_O 	O 	0.4087	0.1316	0.0107	-0.392
Mof_O 	O 	0.353	0.048	0.9946	-0.28
Mof_O 	O 	0.1302	0.413	0.9645	-0.389
Mof_O 	O 	0.0421	0.3461	0.9685	-0.401
Mof_O 	O 	0.46566	0.94895	0.93034	0.619
Mof_Zr	Zr	0.51678	0.59224	0.48568	3.234
Mof_Cu	Cu	0.51413	0.70831	0.79371	0.915
Mof_Cl	Cl	0.47505	0.71069	0.86889	-0.43
Mof_Cl	Cl	0.53926	0.6273	0.79631	-0.428
Mof_O 	O 	0.4938	0.59717	0.61928	-0.161
Mof_O 	O 	0.5144	0.64554	0.55116	-0.275
Mof_O 	O 	0.534	0.88216	0.90787	-0.155
Mof_O 	O 	0.53301	0.95043	0.85711	-0.11
Mof_N 	N 	0.51946	0.71443	0.71781	-0.216
Mof_N 	N 	0.5239	0.78436	0.78735	-0.204
Mof_C 	C 	0.52858	0.76164	0.69943	0.062
Mof_C 	C 	0.5336	0.77167	0.64766	-0.094
Mof_H 	H 	0.5422	0.8051	0.6358	0.092
Mof_C 	C 	0.5259	0.73135	0.61328	0.03
Mof_H 	H 	0.5284	0.7369	0.5773	0.064
Mof_C 	C 	0.51445	0.68307	0.63235	-0.074
Mof_C 	C 	0.51208	0.67616	0.68525	0.059
Mof_H 	H 	0.5049	0.6429	0.6984	0.045
Mof_C 	C 	0.533	0.802	0.73923	0.043
Mof_C 	C 	0.5433	0.85278	0.72966	-0.065
Mof_H 	H 	0.5493	0.8643	0.6956	0.08
Mof_C 	C 	0.5448	0.88716	0.77045	-0.012
Mof_H 	H 	0.5516	0.9225	0.7647	0.09
Mof_C 	C 	0.53633	0.86883	0.81966	-0.016
Mof_C 	C 	0.52612	0.81721	0.82678	0.026
Mof_H 	H 	0.5205	0.8047	0.8606	0.059
Mof_C 	C 	0.50653	0.63826	0.59803	0.237
Mof_C 	C 	0.53449	0.90335	0.86496	0.142
Mof_O 	O 	0.55211	0.52578	0.46222	-1.732
Mof_O 	O 	0.4893	0.5913	0.6316	-0.39
Mof_O 	O 	0.5054	0.647	0.548	-0.28
Mof_O 	O 	0.5355	0.8698	0.913	-0.389
Mof_O 	O 	0.5315	0.9579	0.8461	-0.401
Mof_O 	O 	0.56966	0.53434	0.44895	0.618
Mof_Zr	Zr	0.48322	0.09224	0.01432	3.234
Mof_Cu	Cu	0.48587	0.20831	0.70629	0.915
Mof_Cl	Cl	0.52495	0.21069	0.63111	-0.43
Mof_Cl	Cl	0.46074	0.1273	0.70369	-0.428
Mof_O 	O 	0.5062	0.09717	0.88072	-0.161
Mof_O 	O 	0.4856	0.14554	0.94884	-0.275
Mof_O 	O 	0.466	0.38216	0.59213	-0.155
Mof_O 	O 	0.46699	0.45043	0.64289	-0.11
Mof_N 	N 	0.48054	0.21443	0.78219	-0.216
Mof_N 	N 	0.4761	0.28436	0.71265	-0.204
Mof_C 	C 	0.47142	0.26164	0.80057	0.062
Mof_C 	C 	0.4664	0.27167	0.85234	-0.094
Mof_H 	H 	0.4578	0.3051	0.8642	0.092
Mof_C 	C 	0.4741	0.23135	0.88672	0.03
Mof_H 	H 	0.4716	0.2369	0.9227	0.064
Mof_C 	C 	0.48555	0.18307	0.86765	-0.073
Mof_C 	C 	0.48792	0.17616	0.81475	0.059
Mof_H 	H 	0.4951	0.1429	0.8016	0.045
Mof_C 	C 	0.467	0.302	0.76077	0.043
Mof_C 	C 	0.4567	0.35278	0.77034	-0.065
Mof_H 	H 	0.4507	0.3643	0.8044	0.08
Mof_C 	C 	0.4552	0.38716	0.72955	-0.012
Mof_H 	H 	0.4484	0.4225	0.7353	0.09
Mof_C 	C 	0.46367	0.36883	0.68034	-0.016
Mof_C 	C 	0.47388	0.31721	0.67322	0.026
Mof_H 	H 	0.4795	0.3047	0.6394	0.059
Mof_C 	C 	0.49347	0.13826	0.90197	0.237
Mof_C 	C 	0.46551	0.40335	0.63504	0.142
Mof_O 	O 	0.44789	0.02578	0.03778	-1.733
Mof_O 	O 	0.5107	0.0913	0.8684	-0.39
Mof_O 	O 	0.4946	0.147	0.952	-0.28
Mof_O 	O 	0.4645	0.3698	0.587	-0.389
Mof_O 	O 	0.4685	0.4579	0.6539	-0.401
Mof_O 	O 	0.43034	0.03434	0.05105	0.618
Mof_Zr	Zr	0.01678	0.90776	0.51432	3.234
Mof_Cu	Cu	0.01413	0.79169	0.20629	0.915
Mof_Cl	Cl	0.97505	0.78931	0.13111	-0.43
Mof_Cl	Cl	0.03926	0.8727	0.20369	-0.427
Mof_O 	O 	0.9938	0.90283	0.38072	-0.161
Mof_O 	O 	0.0144	0.85446	0.44884	-0.275
Mof_O 	O 	0.034	0.61784	0.09213	-0.155
Mof_O 	O 	0.03301	0.54957	0.14289	-0.11
Mof_N 	N 	0.01946	0.78557	0.28219	-0.216
Mof_N 	N 	0.0239	0.71564	0.21265	-0.204
Mof_C 	C 	0.02858	0.73836	0.30057	0.062
Mof_C 	C 	0.0336	0.72833	0.35234	-0.094
Mof_H 	H 	0.0422	0.6949	0.3642	0.092
Mof_C 	C 	0.0259	0.76865	0.38672	0.03
Mof_H 	H 	0.0284	0.7631	0.4227	0.064
Mof_C 	C 	0.01445	0.81693	0.36765	-0.073
Mof_C 	C 	0.01208	0.82384	0.31475	0.059
Mof_H 	H 	0.0049	0.8571	0.3016	0.045
Mof_C 	C 	0.033	0.698	0.26077	0.043
Mof_C 	C 	0.0433	0.64722	0.27034	-0.065
Mof_H 	H 	0.0493	0.6357	0.3044	0.08
Mof_C 	C 	0.0448	0.61284	0.22955	-0.012
Mof_H 	H 	0.0516	0.5775	0.2353	0.09
Mof_C 	C 	0.03633	0.63117	0.18034	-0.016
Mof_C 	C 	0.02612	0.68279	0.17322	0.027
Mof_H 	H 	0.0205	0.6953	0.1394	0.059
Mof_C 	C 	0.00653	0.86174	0.40197	0.238
Mof_C 	C 	0.03449	0.59665	0.13504	0.142
Mof_O 	O 	0.05211	0.97422	0.53778	-1.73
Mof_O 	O 	0.9893	0.9087	0.3684	-0.391
Mof_O 	O 	0.0054	0.853	0.452	-0.28
Mof_O 	O 	0.0355	0.6302	0.087	-0.389
Mof_O 	O 	0.0315	0.5421	0.1539	-0.401
Mof_O 	O 	0.06966	0.96566	0.55105	0.617
Mof_Zr	Zr	0.98322	0.40776	0.98568	3.234
Mof_Cu	Cu	0.98587	0.29169	0.29371	0.915
Mof_Cl	Cl	0.02495	0.28931	0.36889	-0.431
Mof_Cl	Cl	0.96074	0.3727	0.29631	-0.427
Mof_O 	O 	0.0062	0.40283	0.11928	-0.161
Mof_O 	O 	0.9856	0.35446	0.05116	-0.274
Mof_O 	O 	0.966	0.11784	0.40787	-0.155
Mof_O 	O 	0.96699	0.04957	0.35711	-0.109
Mof_N 	N 	0.98054	0.28557	0.21781	-0.216
Mof_N 	N 	0.9761	0.21564	0.28735	-0.203
Mof_C 	C 	0.97142	0.23836	0.19943	0.062
Mof_C 	C 	0.9664	0.22833	0.14766	-0.094
Mof_H 	H 	0.9578	0.1949	0.1358	0.092
Mof_C 	C 	0.9741	0.26865	0.11328	0.03
Mof_H 	H 	0.9716	0.2631	0.0773	0.064
Mof_C 	C 	0.98555	0.31693	0.13235	-0.073
Mof_C 	C 	0.98792	0.32384	0.18525	0.059
Mof_H 	H 	0.9951	0.3571	0.1984	0.045
Mof_C 	C 	0.967	0.198	0.23923	0.043
Mof_C 	C 	0.9567	0.14722	0.22966	-0.065
Mof_H 	H 	0.9507	0.1357	0.1956	0.08
Mof_C 	C 	0.9552	0.11284	0.27045	-0.012
Mof_H 	H 	0.9484	0.0775	0.2647	0.09
Mof_C 	C 	0.96367	0.13117	0.31966	-0.015
Mof_C 	C 	0.97388	0.18279	0.32678	0.027
Mof_H 	H 	0.9795	0.1953	0.3606	0.059
Mof_C 	C 	0.99347	0.36174	0.09803	0.238
Mof_C 	C 	0.96551	0.09665	0.36496	0.142
Mof_O 	O 	0.94789	0.47422	0.96222	-1.734
Mof_O 	O 	0.0107	0.4087	0.1316	-0.392
Mof_O 	O 	0.9946	0.353	0.048	-0.28
Mof_O 	O 	0.9645	0.1302	0.413	-0.389
Mof_O 	O 	0.9685	0.0421	0.3461	-0.401
Mof_O 	O 	0.93034	0.46566	0.94895	0.619
Mof_O 	O 	0.45998	0.45998	0.45998	-1.505
Mof_O 	O 	0.44607	0.44607	0.44607	0.405
Mof_O 	O 	0.04002	0.54002	0.95998	-1.503
Mof_O 	O 	0.05393	0.55393	0.94607	0.404
Mof_O 	O 	0.54002	0.95998	0.04002	-1.503
Mof_O 	O 	0.55393	0.94607	0.05393	0.404
Mof_O 	O 	0.95998	0.04002	0.54002	-1.503
Mof_O 	O 	0.94607	0.05393	0.55393	0.404
Mof_O 	O 	0.54002	0.54002	0.54002	-1.505
Mof_O 	O 	0.55393	0.55393	0.55393	0.405
Mof_O 	O 	0.95998	0.45998	0.04002	-1.503
Mof_O 	O 	0.94607	0.44607	0.05393	0.404
Mof_O 	O 	0.45998	0.04002	0.95998	-1.503
Mof_O 	O 	0.44607	0.05393	0.94607	0.404
Mof_O 	O 	0.04002	0.95998	0.45998	-1.503
Mof_O 	O 	0.05393	0.94607	0.44607	0.404
_end
