data_functionalizedCrystal
_audit_creation_method	'EQeq! by Chris Wilmer'
_symmetry_space_group_name_H-M	'P1'
_symmetry_Int_Tables_number	1
_symmetry_cell_setting	triclinic
loop_
_symmetry_equiv_pos_as_xyz
  x,y,z
_cell_length_a	7.119
_cell_length_b	14.1051
_cell_length_c	17.698
_cell_angle_alpha	90
_cell_angle_beta	90
_cell_angle_gamma	90
loop_
_atom_site_label
_atom_site_type_symbol
_atom_site_fract_x
_atom_site_fract_y
_atom_site_fract_z
_atom_site_charge
Mof_O 	O 	0.8261	0.2302	0.8878	-0.208
Mof_C 	C 	0.8325	0.045	0.9841	0.059
Mof_H 	H 	0.7188	0.0747	0.9735	0.043
Mof_O 	O 	0.3261	0.7302	0.8878	-0.296
Mof_C 	C 	0.3325	0.545	0.9841	-0.043
Mof_H 	H 	0.2188	0.5747	0.9735	0.054
Mof_O 	O 	0.1739	0.7698	0.3878	-0.284
Mof_C 	C 	0.1675	0.955	0.4841	-0.029
Mof_H 	H 	0.2812	0.9253	0.4735	0.061
Mof_O 	O 	0.6739	0.2698	0.3878	-0.262
Mof_C 	C 	0.6675	0.455	0.4841	-0.038
Mof_H 	H 	0.7812	0.4253	0.4735	0.094
Mof_O 	O 	0.1739	0.2302	0.6122	-0.284
Mof_C 	C 	0.1675	0.045	0.5159	-0.029
Mof_H 	H 	0.2812	0.0747	0.5265	0.061
Mof_O 	O 	0.6739	0.7302	0.6122	-0.262
Mof_C 	C 	0.6675	0.545	0.5159	-0.038
Mof_H 	H 	0.7812	0.5747	0.5265	0.094
Mof_O 	O 	0.8261	0.7698	0.1122	-0.207
Mof_C 	C 	0.8325	0.955	0.0159	0.06
Mof_H 	H 	0.7188	0.9253	0.0265	0.044
Mof_O 	O 	0.3261	0.2698	0.1122	-0.295
Mof_C 	C 	0.3325	0.455	0.0159	-0.043
Mof_H 	H 	0.2188	0.4253	0.0265	0.054
Mof_O 	O 	0.1739	0.7698	0.1122	-0.284
Mof_C 	C 	0.1675	0.955	0.0159	-0.029
Mof_H 	H 	0.2812	0.9253	0.0265	0.061
Mof_O 	O 	0.6739	0.2698	0.1122	-0.262
Mof_C 	C 	0.6675	0.455	0.0159	-0.038
Mof_H 	H 	0.7812	0.4253	0.0265	0.093
Mof_O 	O 	0.8261	0.2302	0.6122	-0.207
Mof_C 	C 	0.8325	0.045	0.5159	0.06
Mof_H 	H 	0.7188	0.0747	0.5265	0.044
Mof_O 	O 	0.3261	0.7302	0.6122	-0.295
Mof_C 	C 	0.3325	0.545	0.5159	-0.043
Mof_H 	H 	0.2188	0.5747	0.5265	0.054
Mof_O 	O 	0.8261	0.7698	0.3878	-0.207
Mof_C 	C 	0.8325	0.955	0.4841	0.06
Mof_H 	H 	0.7188	0.9253	0.4735	0.044
Mof_O 	O 	0.3261	0.2698	0.3878	-0.295
Mof_C 	C 	0.3325	0.455	0.4841	-0.043
Mof_H 	H 	0.2188	0.4253	0.4735	0.054
Mof_O 	O 	0.1739	0.2302	0.8878	-0.284
Mof_C 	C 	0.1675	0.045	0.9841	-0.029
Mof_H 	H 	0.2812	0.0747	0.9735	0.061
Mof_O 	O 	0.6739	0.7302	0.8878	-0.262
Mof_C 	C 	0.6675	0.545	0.9841	-0.038
Mof_H 	H 	0.7812	0.5747	0.9735	0.093
Mof_U 	U 	0.5	0.23	0.86501	-0.028
Mof_U 	U 	8.06284e-33	0.73	0.86501	-0.078
Mof_U 	U 	0.5	0.77	0.36501	-0.028
Mof_U 	U 	-3.70004e-33	0.27	0.36501	-0.078
Mof_U 	U 	0.5	0.23	0.63499	-0.028
Mof_U 	U 	3.43281e-32	0.73	0.63499	-0.078
Mof_U 	U 	0.5	0.77	0.13499	-0.028
Mof_U 	U 	4.80942e-33	0.27	0.13499	-0.078
Mof_Sr	Sr	-3.56232e-32	0.27511	0.75	1.224
Mof_Sr	Sr	0.5	0.77511	0.75	1.411
Mof_Sr	Sr	3.07396e-32	0.72489	0.25	1.224
Mof_Sr	Sr	0.5	0.22489	0.25	1.411
Mof_P 	P 	-1.96827e-32	0.2124	0.93622	0.315
Mof_O 	O 	4.72336e-33	0.2744	0.0067	-0.222
Mof_C 	C 	9.02096e-33	0.0914	0.9678	-0.131
Mof_P 	P 	0.5	0.7124	0.93622	0.372
Mof_O 	O 	0.5	0.7744	0.0067	-0.186
Mof_C 	C 	0.5	0.5914	0.9678	-0.025
Mof_P 	P 	4.06605e-33	0.7876	0.43622	0.315
Mof_O 	O 	-9.48167e-33	0.7256	0.5067	-0.222
Mof_C 	C 	4.36041e-33	0.9086	0.4678	-0.131
Mof_P 	P 	0.5	0.2876	0.43622	0.372
Mof_O 	O 	0.5	0.2256	0.5067	-0.186
Mof_C 	C 	0.5	0.4086	0.4678	-0.025
Mof_P 	P 	1.94597e-32	0.2124	0.56378	0.315
Mof_O 	O 	-2.38112e-32	0.2744	0.4933	-0.222
Mof_C 	C 	-9.24398e-33	0.0914	0.5322	-0.131
Mof_P 	P 	0.5	0.7124	0.56378	0.372
Mof_O 	O 	0.5	0.7744	0.4933	-0.186
Mof_C 	C 	0.5	0.5914	0.5322	-0.025
Mof_P 	P 	-1.18346e-32	0.7876	0.06378	0.315
Mof_O 	O 	-1.91507e-32	0.7256	0.9933	-0.222
Mof_C 	C 	-1.21289e-32	0.9086	0.0322	-0.131
Mof_P 	P 	0.5	0.2876	0.06378	0.372
Mof_O 	O 	0.5	0.2256	0.9933	-0.186
Mof_C 	C 	0.5	0.4086	0.0322	-0.025
Mof_O 	O 	0.6716	0.2335	0.75	-0.223
Mof_O 	O 	0.1716	0.7335	0.75	-0.289
Mof_O 	O 	0.3284	0.7665	0.25	-0.254
Mof_O 	O 	0.8284	0.2665	0.25	-0.21
Mof_O 	O 	0.3284	0.2335	0.75	-0.254
Mof_O 	O 	0.8284	0.7335	0.75	-0.21
Mof_O 	O 	0.6716	0.7665	0.25	-0.223
Mof_O 	O 	0.1716	0.2665	0.25	-0.289
_end
