data_functionalizedCrystal
_audit_creation_method	'EQeq! by Chris Wilmer'
_symmetry_space_group_name_H-M	'P1'
_symmetry_Int_Tables_number	1
_symmetry_cell_setting	triclinic
loop_
_symmetry_equiv_pos_as_xyz
  x,y,z
_cell_length_a	10.5441
_cell_length_b	10.5441
_cell_length_c	10.7774
_cell_angle_alpha	101.669
_cell_angle_beta	117.578
_cell_angle_gamma	108.667
loop_
_atom_site_label
_atom_site_type_symbol
_atom_site_fract_x
_atom_site_fract_y
_atom_site_fract_z
_atom_site_charge
Mof_Eu	Eu	0.91374	0.50116	0.1237	1.8
Mof_Eu	Eu	0.22294	0.93435	0.85643	1.86
Mof_Eu	Eu	0.12254	0.20996	0.6237	2.302
Mof_Eu	Eu	0.42208	0.63349	0.35643	2.069
Mof_H 	H 	0.8058	0.8083	0.8717	0.126
Mof_H 	H 	0.874	0.848	0.0484	0.063
Mof_H 	H 	0.7769	0.0489	0.0866	0.12
Mof_H 	H 	0.6256	0.9489	0.9119	0.059
Mof_H 	H 	0.2866	0.027	0.4518	0.339
Mof_H 	H 	0.4114	0.9631	0.5209	0.204
Mof_H 	H 	0.5634	0.0659	0.3717	0.198
Mof_H 	H 	0.7004	0.1744	0.5484	0.168
Mof_H 	H 	0.5377	0.3097	0.5866	0.221
Mof_H 	H 	0.463	0.2863	0.4119	0.221
Mof_H 	H 	0.9248	0.1652	0.9518	0.109
Mof_H 	H 	0.0578	0.1095	0.0209	0.11
Mof_C 	C 	0.6919	0.6419	0.907	0.494
Mof_C 	C 	0.838	0.7706	0.9522	-0.486
Mof_C 	C 	0.982	0.7528	0.978	0.455
Mof_C 	C 	0.1719	0.7984	0.3613	0.62
Mof_C 	C 	0.6304	0.1444	0.003	0.522
Mof_C 	C 	0.6585	0.0115	0.0144	-0.314
Mof_C 	C 	0.5686	0.9106	0.0682	0.364
Mof_C 	C 	0.2739	0.952	0.6139	0.432
Mof_C 	C 	0.3012	0.9496	0.4864	-0.859
Mof_C 	C 	0.7651	0.2151	0.407	0.536
Mof_C 	C 	0.6816	0.1142	0.4522	-0.495
Mof_C 	C 	0.7252	0.996	0.478	0.323
Mof_C 	C 	0.0629	0.1894	0.8613	0.504
Mof_C 	C 	0.3586	0.3726	0.503	0.737
Mof_C 	C 	0.5029	0.3559	0.5144	-0.704
Mof_C 	C 	0.6576	0.4996	0.5682	0.575
Mof_C 	C 	0.1619	0.34	0.1139	0.418
Mof_C 	C 	0.0368	0.1852	0.9864	-0.326
Mof_O 	O 	0.7085	0.5494	0.9683	-0.519
Mof_O 	O 	0.5561	0.6289	0.8122	-0.362
Mof_O 	O 	0.0158	0.6625	0.0255	-0.482
Mof_O 	O 	0.0709	0.8383	0.942	-0.536
Mof_O 	O 	0.2121	0.7013	0.3286	-0.68
Mof_O 	O 	0.0281	0.7678	0.2961	-0.529
Mof_O 	O 	0.489	0.1267	0.9513	-0.426
Mof_O 	O 	0.743	0.2506	0.032	-0.629
Mof_O 	O 	0.4229	0.8712	0.0119	-0.567
Mof_O 	O 	0.6484	0.8718	0.1644	-0.394
Mof_O 	O 	0.2164	0.0278	0.6486	-0.559
Mof_O 	O 	0.3053	0.8659	0.6786	-0.501
Mof_O 	O 	0.9189	0.2598	0.4683	-0.628
Mof_O 	O 	0.6833	0.2561	0.3122	-0.379
Mof_O 	O 	0.863	0.0097	0.5255	-0.445
Mof_O 	O 	0.6037	0.8711	0.442	-0.609
Mof_O 	O 	0.1273	0.1165	0.8286	-0.607
Mof_O 	O 	0.0283	0.268	0.7961	-0.49
Mof_O 	O 	0.3246	0.4623	0.4513	-0.594
Mof_O 	O 	0.2814	0.289	0.532	-0.705
Mof_O 	O 	0.6407	0.589	0.5119	-0.606
Mof_O 	O 	0.7926	0.516	0.6644	-0.402
Mof_O 	O 	0.1208	0.4322	0.1486	-0.606
Mof_O 	O 	0.3127	0.3733	0.1786	-0.51
_end
