data_functionalizedCrystal
_audit_creation_method	'EQeq! by Chris Wilmer'
_symmetry_space_group_name_H-M	'P1'
_symmetry_Int_Tables_number	1
_symmetry_cell_setting	triclinic
loop_
_symmetry_equiv_pos_as_xyz
  x,y,z
_cell_length_a	41.674
_cell_length_b	41.674
_cell_length_c	41.939
_cell_angle_alpha	87.2873
_cell_angle_beta	61.2094
_cell_angle_gamma	117.885
loop_
_atom_site_label
_atom_site_type_symbol
_atom_site_fract_x
_atom_site_fract_y
_atom_site_fract_z
_atom_site_charge
Mof_Cu	Cu	0.82008	0.41683	0.29603	0.9
Mof_Cu	Cu	0.28805	0.42994	0.75261	0.902
Mof_Cu	Cu	0.81745	0.95934	0.75261	0.902
Mof_Cu	Cu	0.36124	0.42328	0.21548	0.9
Mof_Cu	Cu	0.29945	0.42235	0.2782	0.903
Mof_Cu	Cu	0.28091	0.8927	0.76507	0.905
Mof_Cu	Cu	0.82086	0.89771	0.75457	0.897
Mof_Cu	Cu	0.81968	0.42359	0.23361	0.91
Mof_Cu	Cu	0.34223	0.95402	0.76507	0.905
Mof_Cu	Cu	0.34772	0.42457	0.75457	0.897
Mof_Cu	Cu	0.3428	0.94671	0.23361	0.91
Mof_Cu	Cu	0.28714	0.88389	0.29603	0.9
Mof_H 	H 	0.3395	0.5472	0.7457	0.034
Mof_H 	H 	0.7252	0.8293	0.7243	0.028
Mof_H 	H 	0.5363	0.4549	0.4508	0.098
Mof_H 	H 	0.189	0.8282	0.0782	0.097
Mof_H 	H 	0.0936	0.7328	0.0782	0.097
Mof_H 	H 	0.3271	0.9328	0.6465	0.04
Mof_H 	H 	0.5501	0.4587	0.3484	0.105
Mof_H 	H 	0.5202	0.119	0.455	0.099
Mof_H 	H 	0.3481	0.5417	0.2454	0.021
Mof_H 	H 	0.1929	0.1015	0.3484	0.105
Mof_H 	H 	0.3532	0.4381	0.3463	0.029
Mof_H 	H 	0.1806	0.234	0.3734	0.075
Mof_H 	H 	0.475	0.8919	0.1329	0.077
Mof_H 	H 	0.4307	0.4404	0.6351	0.036
Mof_H 	H 	0.919	0.0298	0.7684	0.027
Mof_H 	H 	0.4212	0.0234	0.2678	0.029
Mof_H 	H 	0.1988	0.3917	0.0649	0.099
Mof_H 	H 	0.2489	0.0518	0.7899	0.066
Mof_H 	H 	0.4364	0.9196	0.163	0.028
Mof_H 	H 	0.2646	0.9965	0.2669	0.029
Mof_H 	H 	0.2838	0.0199	0.7873	0.037
Mof_H 	H 	0.3729	0.452	0.5673	0.071
Mof_H 	H 	0.2019	0.4078	0.8721	0.043
Mof_H 	H 	0.7163	0.295	0.3591	0.029
Mof_H 	H 	0.5396	0.8315	0.7217	0.091
Mof_H 	H 	0.379	0.9586	0.3886	0.077
Mof_H 	H 	0.9778	0.6031	0.2365	0.079
Mof_H 	H 	0.0921	0.7311	0.1768	0.088
Mof_H 	H 	0.4687	0.89	0.7347	0.07
Mof_H 	H 	0.1632	0.398	0.9382	0.069
Mof_H 	H 	0.4544	0.0595	0.5811	0.066
Mof_H 	H 	0.4466	0.4393	0.2491	0.031
Mof_H 	H 	0.4816	0.6159	0.7169	0.076
Mof_H 	H 	0.2897	0.91	0.1663	0.03
Mof_H 	H 	0.9799	0.3907	0.2268	0.077
Mof_H 	H 	0.1583	0.9612	0.7899	0.066
Mof_H 	H 	0.3747	0.6126	0.7383	0.075
Mof_H 	H 	0.922	0.3992	0.257	0.03
Mof_H 	H 	0.4861	0.4473	0.2762	0.076
Mof_H 	H 	0.9212	0.0294	0.6324	0.037
Mof_H 	H 	0.3822	0.6081	0.2183	0.082
Mof_H 	H 	0.9809	0.6096	0.1387	0.078
Mof_H 	H 	0.1869	0.1129	0.7922	0.135
Mof_H 	H 	0.4447	0.5462	0.1481	0.019
Mof_H 	H 	0.4207	0.0264	0.6465	0.04
Mof_H 	H 	0.3926	0.446	0.3734	0.075
Mof_H 	H 	0.1982	0.8152	0.2642	0.028
Mof_H 	H 	0.426	0.0248	0.455	0.099
Mof_H 	H 	0.3382	0.4464	0.6324	0.037
Mof_H 	H 	0.3459	0.9246	0.3591	0.029
Mof_H 	H 	0.259	0.886	0.9508	0.073
Mof_H 	H 	0.9807	0.0598	0.5673	0.071
Mof_H 	H 	0.9752	0.3921	0.1329	0.077
Mof_H 	H 	0.5434	0.7363	0.0649	0.099
Mof_H 	H 	0.6497	0.429	0.4021	0.075
Mof_H 	H 	0.4654	0.446	0.57	0.073
Mof_H 	H 	0.7088	0.311	0.2678	0.029
Mof_H 	H 	0.5431	0.7351	0.7218	0.093
Mof_H 	H 	0.3825	0.7933	0.2268	0.077
Mof_H 	H 	0.4468	0.7387	0.7217	0.091
Mof_H 	H 	0.2018	0.3126	0.7684	0.027
Mof_H 	H 	0.6608	0.8003	0.9429	0.07
Mof_H 	H 	0.2905	0.3056	0.7777	0.027
Mof_H 	H 	0.1632	0.7902	0.9508	0.073
Mof_H 	H 	0.9237	0.544	0.1663	0.03
Mof_H 	H 	0.3594	0.9645	0.5811	0.066
Mof_H 	H 	0.7071	0.9148	0.7457	0.034
Mof_H 	H 	0.1928	0.9289	0.7873	0.037
Mof_H 	H 	0.6672	0.8015	0.7169	0.076
Mof_H 	H 	0.1641	0.2467	0.7776	0.078
Mof_H 	H 	0.1736	0.3995	0.2183	0.082
Mof_H 	H 	0.2	0.8204	0.8848	0.033
Mof_H 	H 	0.9733	0.9603	0.7868	0.078
Mof_H 	H 	0.5267	0.1175	0.3558	0.103
Mof_H 	H 	0.1604	0.7857	0.2365	0.079
Mof_H 	H 	0.0943	0.0129	0.4508	0.098
Mof_H 	H 	0.3116	0.3043	0.2491	0.031
Mof_H 	H 	0.4326	0.9195	0.7411	0.029
Mof_H 	H 	0.1689	0.9482	0.4021	0.075
Mof_H 	H 	0.9167	0.9318	0.7777	0.028
Mof_H 	H 	0.9206	0.5376	0.2642	0.028
Mof_H 	H 	0.6638	0.8986	0.9382	0.069
Mof_H 	H 	0.2948	0.9152	0.8848	0.033
Mof_H 	H 	0.2957	0.4061	0.8768	0.04
Mof_H 	H 	0.0949	0.0209	0.7922	0.135
Mof_H 	H 	0.6491	0.887	0.7383	0.075
Mof_H 	H 	0.3394	0.8263	0.7411	0.029
Mof_H 	H 	0.9757	0.0583	0.7776	0.078
Mof_H 	H 	0.2529	0.2399	0.7868	0.078
Mof_H 	H 	0.3057	0.4072	0.1481	0.019
Mof_H 	H 	0.1001	0.3881	0.0654	0.099
Mof_H 	H 	0.3753	0.7966	0.7347	0.07
Mof_H 	H 	0.4463	0.4541	0.4374	0.097
Mof_H 	H 	0.0936	0.1191	0.7873	0.106
Mof_H 	H 	0.1014	0.3876	0.161	0.099
Mof_H 	H 	0.984	0.9646	0.57	0.073
Mof_H 	H 	0.2765	0.2377	0.2762	0.076
Mof_H 	H 	0.2664	0.4001	0.1211	0.083
Mof_H 	H 	0.9174	0.4006	0.163	0.028
Mof_H 	H 	0.1085	0.1163	0.4374	0.097
Mof_H 	H 	0.7201	0.926	0.8721	0.043
Mof_H 	H 	0.6528	0.2324	0.3886	0.077
Mof_H 	H 	0.7366	0.4685	0.2669	0.029
Mof_H 	H 	0.5465	0.8345	0.0654	0.099
Mof_H 	H 	0.2247	0.0228	0.2981	0.089
Mof_H 	H 	0.2089	0.9218	0.3709	0.032
Mof_H 	H 	0.4464	0.5505	0.7243	0.028
Mof_H 	H 	0.9245	0.9342	0.6351	0.037
Mof_H 	H 	0.3438	0.821	0.257	0.03
Mof_H 	H 	0.7073	0.4202	0.3709	0.032
Mof_H 	H 	0.4544	0.0573	0.2973	0.074
Mof_H 	H 	0.2129	0.4065	0.2454	0.021
Mof_H 	H 	0.7171	0.8275	0.8768	0.04
Mof_H 	H 	0.2517	0.8804	0.1387	0.078
Mof_H 	H 	0.6454	0.2483	0.2973	0.074
Mof_H 	H 	0.2156	0.3005	0.3463	0.029
Mof_H 	H 	0.4788	0.6125	0.1211	0.083
Mof_H 	H 	0.4514	0.7376	0.161	0.099
Mof_H 	H 	0.2568	0.3963	0.9429	0.07
Mof_H 	H 	0.6791	0.4772	0.2981	0.09
Mof_C 	C 	0.49426	0.73064	0.116	0.125
Mof_C 	C 	0.1461	0.7806	0.0733	0.123
Mof_C 	C 	0.26504	0.29378	0.77766	0.064
Mof_C 	C 	0.52604	0.45527	0.43527	-0.175
Mof_C 	C 	0.4668	0.8079	0.7253	-0.065
Mof_C 	C 	0.24064	0.95662	0.3159	-0.104
Mof_C 	C 	0.1896	0.2586	0.7776	-0.127
Mof_C 	C 	0.24737	0.87355	0.9373	-0.113
Mof_C 	C 	0.38322	0.87494	0.74184	-0.117
Mof_C 	C 	0.02761	0.03373	0.5221	-0.012
Mof_C 	C 	0.5888	0.81046	0.0194	-0.051
Mof_C 	C 	0.14596	0.78226	0.1286	0.099
Mof_C 	C 	0.24258	0.25451	0.78311	-0.128
Mof_C 	C 	0.24947	0.87023	0.8803	-0.096
Mof_C 	C 	0.16499	0.79881	0.1518	-0.028
Mof_C 	C 	0.56929	0.16311	0.3804	-0.045
Mof_C 	C 	0.36386	0.44636	0.6198	0.031
Mof_C 	C 	0.38917	0.60013	0.7355	-0.116
Mof_C 	C 	0.36199	0.89003	0.2313	0.344
Mof_C 	C 	0.65884	0.45394	0.3531	0.081
Mof_C 	C 	0.44262	0.87689	0.73549	-0.114
Mof_C 	C 	0.46994	0.06986	0.4602	0.123
Mof_C 	C 	0.87867	0.40671	0.2313	0.344
Mof_C 	C 	0.91418	0.4007	0.2129	-0.121
Mof_C 	C 	0.37031	0.83524	0.23193	0.053
Mof_C 	C 	0.87911	0.96041	0.68322	0.338
Mof_C 	C 	0.11788	0.10034	0.4273	-0.18
Mof_C 	C 	0.66725	0.43693	0.3748	-0.122
Mof_C 	C 	0.8811	0.4916	0.2325	0.366
Mof_C 	C 	0.38113	0.44289	0.64004	-0.09
Mof_C 	C 	0.08914	0.72544	0.1286	0.099
Mof_C 	C 	0.05849	0.04671	0.4889	-0.053
Mof_C 	C 	0.96879	0.59503	0.16398	-0.127
Mof_C 	C 	0.09547	0.06216	0.45031	0.124
Mof_C 	C 	0.49271	0.73361	0.72048	0.104
Mof_C 	C 	0.39483	0.5956	0.20417	-0.141
Mof_C 	C 	0.39614	0.43796	0.2951	-0.117
Mof_C 	C 	0.26429	0.25035	0.29032	-0.124
Mof_C 	C 	0.26777	0.94023	0.2978	0.33
Mof_C 	C 	0.20621	0.39621	0.94698	0.059
Mof_C 	C 	0.71908	0.46048	0.29418	0.049
Mof_C 	C 	0.27325	0.89045	0.8363	0.345
Mof_C 	C 	0.45176	0.05012	0.4416	-0.182
Mof_C 	C 	0.76197	0.43443	0.2978	0.33
Mof_C 	C 	0.51175	0.10565	0.3826	-0.18
Mof_C 	C 	0.43247	0.03061	0.3098	-0.125
Mof_C 	C 	0.451	0.8222	0.7268	-0.002
Mof_C 	C 	0.28514	0.29004	0.2742	0.05
Mof_C 	C 	0.37224	0.9773	0.5937	-0.094
Mof_C 	C 	0.53333	0.80825	0.07818	-0.182
Mof_C 	C 	0.72748	0.44346	0.3159	-0.104
Mof_C 	C 	0.17715	0.19295	0.7889	-0.003
Mof_C 	C 	0.26953	0.95347	0.777	0.36
Mof_C 	C 	0.27611	0.41508	0.82313	0.327
Mof_C 	C 	0.4743	0.6936	0.7217	-0.036
Mof_C 	C 	0.20486	0.23692	0.78308	0.072
Mof_C 	C 	0.40882	0.01422	0.633	0.021
Mof_C 	C 	0.43203	0.55867	0.1623	0.077
Mof_C 	C 	0.47371	0.69119	0.1341	-0.049
Mof_C 	C 	0.24977	0.31545	0.77218	-0.138
Mof_C 	C 	0.22785	0.28779	0.3322	0.049
Mof_C 	C 	0.11357	0.38849	0.07818	-0.182
Mof_C 	C 	0.65959	0.25773	0.3098	-0.125
Mof_C 	C 	0.18827	0.95795	0.3748	-0.122
Mof_C 	C 	0.24759	0.86545	0.2179	-0.114
Mof_C 	C 	0.21202	0.29783	0.77215	0.062
Mof_C 	C 	0.24099	0.86723	0.16398	-0.127
Mof_C 	C 	0.1446	0.1213	0.7909	0.171
Mof_C 	C 	0.21301	0.40549	0.8864	0.017
Mof_C 	C 	0.36779	0.95143	0.3466	0.054
Mof_C 	C 	0.15434	0.11505	0.38919	0.124
Mof_C 	C 	0.0516	0.0482	0.7886	-0.071
Mof_C 	C 	0.43384	0.61674	0.1671	0.087
Mof_C 	C 	0.70811	0.90059	0.8864	0.017
Mof_C 	C 	0.27307	0.35635	0.76618	0.393
Mof_C 	C 	0.28789	0.41383	0.2157	0.397
Mof_C 	C 	0.3709	0.43182	0.2778	0.365
Mof_C 	C 	0.1659	0.7987	0.0354	-0.053
Mof_C 	C 	0.52856	0.12478	0.4025	0.123
Mof_C 	C 	0.3933	0.81874	0.214	-0.125
Mof_C 	C 	0.52606	0.80616	0.72158	-0.161
Mof_C 	C 	0.43977	0.44604	0.58257	-0.111
Mof_C 	C 	0.34859	0.95661	0.6948	0.345
Mof_C 	C 	0.44837	0.04923	0.5024	-0.049
Mof_C 	C 	0.93002	0.01583	0.77215	0.062
Mof_C 	C 	0.43167	0.62065	0.72688	0.074
Mof_C 	C 	0.6017	0.1948	0.3665	-0.017
Mof_C 	C 	0.42552	0.89408	0.1759	0.052
Mof_C 	C 	0.1853	0.8156	0.9991	-0.011
Mof_C 	C 	0.45649	0.82311	0.1548	-0.018
Mof_C 	C 	0.4279	0.8399	0.7322	0.057
Mof_C 	C 	0.53143	0.74963	0.0779	-0.182
Mof_C 	C 	0.2682	0.8904	0.8989	0.038
Mof_C 	C 	0.36124	0.49915	0.74161	0.338
Mof_C 	C 	0.41988	0.0113	0.3458	0.075
Mof_C 	C 	0.53427	0.45752	0.37415	-0.175
Mof_C 	C 	0.54591	0.78681	0.72048	0.104
Mof_C 	C 	0.429	0.03406	0.5937	-0.094
Mof_C 	C 	0.72177	0.87476	0.73573	-0.096
Mof_C 	C 	0.26694	0.30876	0.2951	-0.117
Mof_C 	C 	0.65681	0.84681	0.94698	0.059
Mof_C 	C 	0.43192	0.56296	0.72712	0.039
Mof_C 	C 	0.68485	0.46571	0.3127	-0.132
Mof_C 	C 	0.4387	0.0318	0.3665	-0.017
Mof_C 	C 	0.24534	0.98674	0.29418	0.048
Mof_C 	C 	0.37444	0.55599	0.22029	0.076
Mof_C 	C 	0.69906	0.89202	0.73992	0.032
Mof_C 	C 	0.38762	0.82189	0.73549	-0.114
Mof_C 	C 	0.38951	0.5425	0.73573	-0.096
Mof_C 	C 	0.75924	0.89715	0.74161	0.338
Mof_C 	C 	0.69753	0.29511	0.29216	0.053
Mof_C 	C 	0.92856	0.9573	0.77766	0.064
Mof_C 	C 	0.29038	0.3513	0.2778	0.365
Mof_C 	C 	0.47272	0.06894	0.4025	0.123
Mof_C 	C 	0.17014	0.3918	0.0194	-0.051
Mof_C 	C 	0.159	0.0455	0.7955	-0.128
Mof_C 	C 	0.70992	0.84096	0.72712	0.039
Mof_C 	C 	0.41908	0.44274	0.62142	0.035
Mof_C 	C 	0.206	0.95439	0.78723	0.03
Mof_C 	C 	0.93283	0.39776	0.23193	0.053
Mof_C 	C 	0.42129	0.8945	0.73971	0.05
Mof_C 	C 	0.02209	0.38871	0.1548	-0.018
Mof_C 	C 	0.39309	0.53753	0.1993	-0.156
Mof_C 	C 	0.65247	0.84145	0.72688	0.074
Mof_C 	C 	0.93461	0.55595	0.1805	0.048
Mof_C 	C 	0.1632	0.1598	0.7886	-0.071
Mof_C 	C 	0.93384	0.01634	0.6198	0.031
Mof_C 	C 	0.45719	0.65801	0.1482	-0.02
Mof_C 	C 	0.23588	0.02642	0.7897	-0.094
Mof_C 	C 	0.96238	0.97431	0.78311	-0.128
Mof_C 	C 	0.09443	0.38756	0.11631	0.129
Mof_C 	C 	0.49613	0.78926	0.11631	0.129
Mof_C 	C 	0.35637	0.43767	0.68322	0.338
Mof_C 	C 	0.49576	0.45647	0.38919	0.124
Mof_C 	C 	0.3864	0.87292	0.2129	-0.121
Mof_C 	C 	0.21211	0.94223	0.3562	0.041
Mof_C 	C 	0.76179	0.90076	0.82313	0.327
Mof_C 	C 	0.6429	0.23432	0.3458	0.075
Mof_C 	C 	0.43274	0.03466	0.5326	-0.005
Mof_C 	C 	0.2759	0.8864	0.2325	0.366
Mof_C 	C 	0.93002	0.39858	0.1759	0.052
Mof_C 	C 	0.93281	0.55214	0.23885	0.054
Mof_C 	C 	0.5304	0.7485	0.7211	-0.161
Mof_C 	C 	0.70157	0.43169	0.3562	0.041
Mof_C 	C 	0.9645	0.39352	0.15794	-0.124
Mof_C 	C 	0.17336	0.00798	0.3698	-0.021
Mof_C 	C 	0.20704	0.2481	0.3483	-0.121
Mof_C 	C 	0.16505	0.80205	0.0911	-0.175
Mof_C 	C 	0.05724	0.38776	0.1364	-0.054
Mof_C 	C 	0.04939	0.68321	0.1518	-0.028
Mof_C 	C 	0.20023	0.401	0.20417	-0.141
Mof_C 	C 	0.6163	0.8208	0.7233	-0.023
Mof_C 	C 	0.96939	0.03449	0.58094	-0.111
Mof_C 	C 	0.22372	0.40527	0.22029	0.076
Mof_C 	C 	0.41273	0.01031	0.29216	0.053
Mof_C 	C 	0.17879	0.81221	0.1692	-0.032
Mof_C 	C 	0.72403	0.8794	0.86807	-0.07
Mof_C 	C 	0.37047	0.49641	0.2157	0.397
Mof_C 	C 	0.44322	0.44738	0.3274	0.072
Mof_C 	C 	0.24573	0.39861	0.92866	-0.103
Mof_C 	C 	0.45933	0.44539	0.29032	-0.124
Mof_C 	C 	0.43242	0.8399	0.177	0.076
Mof_C 	C 	0.2689	0.40446	0.8892	0.021
Mof_C 	C 	0.55098	0.78844	0.05898	0.124
Mof_C 	C 	0.10685	0.74385	0.0911	-0.175
Mof_C 	C 	0.01815	0.03395	0.7889	-0.003
Mof_C 	C 	0.45246	0.59827	0.14615	-0.142
Mof_C 	C 	0.66407	0.24828	0.36425	-0.125
Mof_C 	C 	0.21616	0.39906	0.1671	0.087
Mof_C 	C 	0.9669	0.59118	0.2224	-0.13
Mof_C 	C 	0.35693	0.94991	0.2929	0.38
Mof_C 	C 	0.4867	0.7907	0.7226	0.112
Mof_C 	C 	0.98	0.01206	0.78308	0.072
Mof_C 	C 	0.2442	0.9709	0.7849	-0.107
Mof_C 	C 	0.67526	0.82429	0.72269	-0.12
Mof_C 	C 	0.1143	0.38819	0.13525	-0.183
Mof_C 	C 	0.46439	0.45261	0.4889	-0.053
Mof_C 	C 	0.58922	0.45644	0.38222	-0.035
Mof_C 	C 	0.61963	0.82531	0.9868	-0.011
Mof_C 	C 	0.44417	0.45029	0.5221	-0.013
Mof_C 	C 	0.10611	0.04619	0.7927	-0.285
Mof_C 	C 	0.01859	0.65201	0.1692	-0.032
Mof_C 	C 	0.71867	0.30903	0.3106	-0.121
Mof_C 	C 	0.47236	0.45482	0.4273	-0.18
Mof_C 	C 	0.18915	0.81533	0.9373	-0.113
Mof_C 	C 	0.98495	0.61263	0.1849	0.085
Mof_C 	C 	0.91665	0.53451	0.2179	-0.114
Mof_C 	C 	0.97139	0.97766	0.58257	-0.11
Mof_C 	C 	0.14587	0.05339	0.3972	0.119
Mof_C 	C 	0.0878	0.0645	0.7909	0.171
Mof_C 	C 	0.62222	0.45684	0.3698	-0.021
Mof_C 	C 	0.70634	0.8419	0.8892	0.021
Mof_C 	C 	0.16111	0.10119	0.7927	-0.285
Mof_C 	C 	0.93584	0.9595	0.62142	0.034
Mof_C 	C 	0.42252	0.44951	0.56233	0.065
Mof_C 	C 	0.1404	0.0641	0.7955	0.246
Mof_C 	C 	0.37161	0.97699	0.6514	-0.085
Mof_C 	C 	0.18388	0.97442	0.7897	-0.094
Mof_C 	C 	0.9831	0.39058	0.177	0.075
Mof_C 	C 	0.45302	0.60205	0.72269	-0.12
Mof_C 	C 	0.15336	0.38974	0.116	0.125
Mof_C 	C 	0.87747	0.96075	0.76618	0.393
Mof_C 	C 	0.67273	0.82561	0.92866	-0.103
Mof_C 	C 	0.67455	0.88429	0.9258	-0.101
Mof_C 	C 	0.4116	0.0159	0.5725	0.048
Mof_C 	C 	0.20901	0.82834	0.23885	0.054
Mof_C 	C 	0.47656	0.75045	0.13525	-0.183
Mof_C 	C 	0.96726	0.3927	0.214	-0.125
Mof_C 	C 	0.17471	0.39219	0.1341	-0.049
Mof_C 	C 	0.46321	0.45289	0.3499	-0.013
Mof_C 	C 	0.1055	0.1053	0.7892	-0.198
Mof_C 	C 	0.16134	0.02856	0.38222	-0.035
Mof_C 	C 	0.27903	0.40567	0.1623	0.077
Mof_C 	C 	0.18642	0.8107	0.2224	-0.13
Mof_C 	C 	0.54941	0.45693	0.3972	0.119
Mof_C 	C 	0.22159	0.00245	0.3127	-0.131
Mof_C 	C 	0.9638	0.0328	0.7776	-0.127
Mof_C 	C 	0.91707	0.97883	0.64004	-0.09
Mof_C 	C 	0.36579	0.839	0.73971	0.05
Mof_C 	C 	0.48128	0.45602	0.3649	-0.05
Mof_C 	C 	0.66437	0.87533	0.7355	-0.116
Mof_C 	C 	0.17908	0.15382	0.3649	-0.05
Mof_C 	C 	0.38037	0.97073	0.3106	-0.122
Mof_C 	C 	0.25558	0.40139	0.14615	-0.142
Mof_C 	C 	0.98816	0.01515	0.56233	0.064
Mof_C 	C 	0.25838	0.00677	0.78723	0.03
Mof_C 	C 	0.17247	0.39067	0.0779	-0.182
Mof_C 	C 	0.75719	0.35017	0.2929	0.38
Mof_C 	C 	0.18991	0.39965	0.9258	-0.101
Mof_C 	C 	0.38747	0.97168	0.36425	-0.125
Mof_C 	C 	0.5847	0.804	0.7217	-0.036
Mof_C 	C 	0.4036	0.44466	0.3483	-0.121
Mof_C 	C 	0.47226	0.75236	0.72158	-0.161
Mof_C 	C 	0.19721	0.18689	0.3499	-0.013
Mof_C 	C 	0.1756	0.0303	0.7941	0.037
Mof_C 	C 	0.18789	0.39357	0.9868	-0.011
Mof_C 	C 	0.44854	0.87756	0.15794	-0.124
Mof_C 	C 	0.19296	0.98806	0.3531	0.081
Mof_C 	C 	0.91237	0.97805	0.77218	-0.137
Mof_C 	C 	0.10946	0.03869	0.43527	-0.175
Mof_C 	C 	0.20247	0.83015	0.1849	0.085
Mof_C 	C 	0.45649	0.05031	0.3804	-0.045
Mof_C 	C 	0.20716	0.83624	0.9566	0.063
Mof_C 	C 	0.2107	0.8329	0.8989	0.038
Mof_C 	C 	0.19379	0.39461	0.1482	-0.02
Mof_C 	C 	0.48753	0.45422	0.45031	0.124
Mof_C 	C 	0.15258	0.39004	0.05898	0.124
Mof_C 	C 	0.16833	0.09158	0.37415	-0.175
Mof_C 	C 	0.3577	0.8927	0.7496	0.334
Mof_C 	C 	0.10609	0.74361	0.1503	-0.151
Mof_C 	C 	0.25253	0.4079	0.86807	-0.07
Mof_C 	C 	0.50828	0.10664	0.4416	-0.182
Mof_C 	C 	0.70197	0.28561	0.3466	0.054
Mof_C 	C 	0.43576	0.44066	0.2742	0.05
Mof_C 	C 	0.47584	0.80636	0.1364	-0.054
Mof_C 	C 	0.1978	0.0104	0.7918	0.039
Mof_C 	C 	0.4559	0.6604	0.7233	-0.023
Mof_C 	C 	0.36806	0.56102	0.73992	0.032
Mof_C 	C 	0.22522	0.22938	0.3274	0.072
Mof_C 	C 	0.38001	0.43995	0.3322	0.049
Mof_C 	C 	0.26317	0.40761	0.1993	-0.156
Mof_C 	C 	0.26355	0.88489	0.1805	0.048
Mof_C 	C 	0.35278	0.95818	0.633	0.021
Mof_C 	C 	0.38457	0.44967	0.58094	-0.112
Mof_O 	O 	0.33672	0.47927	0.24929	-0.416
Mof_O 	O 	0.32421	0.44078	0.69721	-0.407
Mof_O 	O 	0.32555	0.86722	0.26685	-0.392
Mof_O 	O 	0.3127	0.41662	0.80964	-0.392
Mof_O 	O 	0.77374	0.87766	0.80964	-0.392
Mof_O 	O 	0.77447	0.42572	0.31799	-0.402
Mof_O 	O 	0.86455	0.92655	0.76712	-0.414
Mof_O 	O 	0.77013	0.36904	0.26109	-0.422
Mof_O 	O 	0.86839	0.47711	0.21358	-0.425
Mof_O 	O 	0.38832	0.47973	0.19713	-0.41
Mof_O 	O 	0.77036	0.92981	0.74475	-0.409
Mof_O 	O 	0.3031	0.97159	0.77779	-0.406
Mof_O 	O 	0.32487	0.36711	0.244	-0.409
Mof_O 	O 	0.86591	0.47373	0.2684	-0.39
Mof_O 	O 	0.32314	0.41455	0.19713	-0.41
Mof_O 	O 	0.31497	0.92247	0.70972	-0.405
Mof_O 	O 	0.27144	0.41399	0.24929	-0.416
Mof_O 	O 	0.77884	0.43842	0.26196	-0.396
Mof_O 	O 	0.25787	0.86569	0.2684	-0.39
Mof_O 	O 	0.30813	0.9248	0.81905	-0.405
Mof_O 	O 	0.32544	0.48489	0.74475	-0.409
Mof_O 	O 	0.864	0.98018	0.76184	-0.422
Mof_O 	O 	0.25798	0.37416	0.76184	-0.422
Mof_O 	O 	0.37387	0.43264	0.69949	-0.401
Mof_O 	O 	0.7731	0.36082	0.31258	-0.402
Mof_O 	O 	0.27179	0.36705	0.29698	-0.411
Mof_O 	O 	0.86201	0.97858	0.69721	-0.407
Mof_O 	O 	0.37973	0.48169	0.7414	-0.394
Mof_O 	O 	0.86593	0.4076	0.26685	-0.392
Mof_O 	O 	0.32076	0.87506	0.75248	-0.386
Mof_O 	O 	0.25629	0.90754	0.31799	-0.402
Mof_O 	O 	0.77408	0.93371	0.80855	-0.41
Mof_O 	O 	0.25615	0.87282	0.81905	-0.405
Mof_O 	O 	0.37246	0.92676	0.75248	-0.386
Mof_O 	O 	0.30931	0.91803	0.21358	-0.425
Mof_O 	O 	0.38889	0.43113	0.244	-0.409
Mof_O 	O 	0.25062	0.91911	0.77779	-0.406
Mof_O 	O 	0.36781	0.97531	0.70972	-0.405
Mof_O 	O 	0.37504	0.92379	0.21517	-0.414
Mof_O 	O 	0.86104	0.40979	0.21517	-0.414
Mof_O 	O 	0.77691	0.87887	0.7414	-0.394
Mof_O 	O 	0.33597	0.43123	0.29698	-0.411
Mof_O 	O 	0.36987	0.96878	0.26109	-0.422
Mof_O 	O 	0.3266	0.91432	0.31258	-0.402
Mof_O 	O 	0.25774	0.41737	0.80855	-0.41
Mof_O 	O 	0.30633	0.36833	0.76712	-0.414
Mof_O 	O 	0.29962	0.9592	0.26196	-0.396
Mof_O 	O 	0.86787	0.92664	0.69949	-0.401
Mof_Cu	Cu	0.71286	0.11611	0.70397	0.901
Mof_Cu	Cu	0.71195	0.57006	0.24739	0.903
Mof_Cu	Cu	0.6572	0.05329	0.76639	0.911
Mof_Cu	Cu	0.17992	0.58317	0.70397	0.901
Mof_Cu	Cu	0.63876	0.57672	0.78452	0.901
Mof_Cu	Cu	0.65228	0.57543	0.24543	0.898
Mof_Cu	Cu	0.18032	0.57641	0.76639	0.911
Mof_Cu	Cu	0.18255	0.04066	0.24739	0.903
Mof_Cu	Cu	0.70055	0.57765	0.7218	0.904
Mof_Cu	Cu	0.17914	0.10229	0.24543	0.898
Mof_Cu	Cu	0.65777	0.04598	0.23493	0.906
Mof_Cu	Cu	0.71909	0.1073	0.23493	0.906
Mof_H 	H 	0.6606	0.1737	0.2589	0.029
Mof_H 	H 	0.4733	0.8825	0.6442	0.103
Mof_H 	H 	0.741	0.114	0.0492	0.073
Mof_H 	H 	0.5536	0.4495	0.2757	0.028
Mof_H 	H 	0.621	0.0414	0.6114	0.077
Mof_H 	H 	0.6253	0.3874	0.2617	0.075
Mof_H 	H 	0.2799	0.074	0.1279	0.043
Mof_H 	H 	0.2829	0.1725	0.1232	0.04
Mof_H 	H 	0.9079	0.2689	0.8232	0.088
Mof_H 	H 	0.8311	0.0518	0.5979	0.075
Mof_H 	H 	0.0833	0.0682	0.2223	0.028
Mof_H 	H 	0.5534	0.5607	0.7509	0.031
Mof_H 	H 	0.5456	0.9427	0.7027	0.074
Mof_H 	H 	0.7471	0.7601	0.2132	0.078
Mof_H 	H 	0.0248	0.6079	0.8671	0.077
Mof_H 	H 	0.2634	0.5315	0.7331	0.029
Mof_H 	H 	0.0222	0.3969	0.7635	0.079
Mof_H 	H 	0.3362	0.1014	0.0618	0.069
Mof_H 	H 	0.9064	0.2672	0.9218	0.097
Mof_H 	H 	0.7981	0.5922	0.1279	0.043
Mof_H 	H 	0.081	0.9702	0.2316	0.027
Mof_H 	H 	0.4569	0.2649	0.2782	0.093
Mof_H 	H 	0.4566	0.2637	0.9351	0.099
Mof_H 	H 	0.5537	0.5459	0.5626	0.097
Mof_H 	H 	0.6468	0.5619	0.6537	0.029
Mof_H 	H 	0.8071	0.8985	0.6516	0.105
Mof_H 	H 	0.6729	0.0672	0.3535	0.04
Mof_H 	H 	0.078	0.6008	0.743	0.03
Mof_H 	H 	0.6562	0.179	0.743	0.03
Mof_H 	H 	0.5456	0.9405	0.4189	0.066
Mof_H 	H 	0.8018	0.1848	0.7358	0.028
Mof_H 	H 	0.8359	0.7533	0.2224	0.078
Mof_H 	H 	0.4499	0.5413	0.6516	0.105
Mof_H 	H 	0.6943	0.5928	0.8519	0.019
Mof_H 	H 	0.5139	0.5527	0.7238	0.076
Mof_H 	H 	0.7162	0.9801	0.2127	0.037
Mof_H 	H 	0.8072	0.0711	0.2127	0.037
Mof_H 	H 	0.574	0.9752	0.545	0.099
Mof_H 	H 	0.6074	0.554	0.6266	0.075
Mof_H 	H 	0.8194	0.766	0.6266	0.075
Mof_H 	H 	0.5693	0.5596	0.3649	0.036
Mof_H 	H 	0.7103	0.09	0.8337	0.03
Mof_H 	H 	0.6618	0.5536	0.3676	0.037
Mof_H 	H 	0.7871	0.5935	0.7546	0.021
Mof_H 	H 	0.7043	0.5939	0.1232	0.04
Mof_H 	H 	0.6178	0.3919	0.7817	0.082
Mof_H 	H 	0.6884	0.6957	0.7509	0.031
Mof_H 	H 	0.7354	0.0035	0.7331	0.029
Mof_H 	H 	0.5346	0.554	0.43	0.073
Mof_H 	H 	0.6541	0.0754	0.6409	0.029
Mof_H 	H 	0.5793	0.9736	0.3535	0.04
Mof_H 	H 	0.8417	0.0388	0.2101	0.066
Mof_H 	H 	0.0763	0.456	0.8337	0.03
Mof_H 	H 	0.2837	0.705	0.6409	0.029
Mof_H 	H 	0.3472	0.7676	0.6114	0.077
Mof_H 	H 	0.4604	0.1685	0.2783	0.091
Mof_H 	H 	0.0267	0.0397	0.2132	0.078
Mof_H 	H 	0.811	0.1718	0.9218	0.097
Mof_H 	H 	0.7052	0.0848	0.1152	0.033
Mof_H 	H 	0.3328	0.1985	0.2831	0.076
Mof_H 	H 	0.5788	0.9766	0.7322	0.029
Mof_H 	H 	0.7235	0.7623	0.7238	0.076
Mof_H 	H 	0.2929	0.0852	0.2543	0.034
Mof_H 	H 	0.0788	0.9706	0.3676	0.037
Mof_H 	H 	0.2912	0.689	0.7322	0.029
Mof_H 	H 	0.5674	0.0805	0.2589	0.029
Mof_H 	H 	0.4535	0.1655	0.9346	0.099
Mof_H 	H 	0.7483	0.1196	0.8613	0.078
Mof_H 	H 	0.2748	0.1707	0.2757	0.028
Mof_H 	H 	0.9051	0.9791	0.2078	0.135
Mof_H 	H 	0.8368	0.602	0.0618	0.069
Mof_H 	H 	0.0243	0.9417	0.2224	0.078
Mof_H 	H 	0.6175	0.2067	0.7732	0.077
Mof_H 	H 	0.5532	0.2613	0.2783	0.091
Mof_H 	H 	0.8396	0.2143	0.7635	0.079
Mof_H 	H 	0.8012	0.6083	0.9351	0.099
Mof_H 	H 	0.9057	0.9871	0.5492	0.098
Mof_H 	H 	0.3209	0.5228	0.7019	0.09
Mof_H 	H 	0.5486	0.2624	0.839	0.099
Mof_H 	H 	0.6271	0.548	0.4327	0.071
Mof_H 	H 	0.6247	0.2034	0.2653	0.07
Mof_H 	H 	0.5212	0.3875	0.8789	0.083
Mof_H 	H 	0.7982	0.6874	0.2316	0.027
Mof_H 	H 	0.2927	0.5798	0.6291	0.032
Mof_H 	H 	0.5313	0.11	0.2653	0.07
Mof_H 	H 	0.4798	0.881	0.545	0.099
Mof_H 	H 	0.8264	0.6005	0.7817	0.082
Mof_H 	H 	0.6519	0.4583	0.7546	0.021
Mof_H 	H 	0.8131	0.8871	0.2078	0.135
Mof_H 	H 	0.7844	0.6995	0.6537	0.029
Mof_H 	H 	0.8	0.1796	0.1152	0.033
Mof_H 	H 	0.3503	0.571	0.5979	0.075
Mof_H 	H 	0.7095	0.6944	0.2223	0.027
Mof_H 	H 	0.0826	0.5994	0.837	0.028
Mof_H 	H 	0.016	0.0354	0.43	0.073
Mof_H 	H 	0.9064	0.8809	0.2127	0.106
Mof_H 	H 	0.525	0.1081	0.8671	0.077
Mof_H 	H 	0.5553	0.4538	0.8519	0.019
Mof_H 	H 	0.5184	0.3841	0.2831	0.076
Mof_H 	H 	0.0201	0.6093	0.7732	0.077
Mof_H 	H 	0.3392	0.1997	0.0571	0.07
Mof_H 	H 	0.0191	0.3904	0.8613	0.078
Mof_H 	H 	0.4637	0.5451	0.5492	0.098
Mof_H 	H 	0.7911	0.0782	0.6291	0.032
Mof_H 	H 	0.0193	0.9402	0.4327	0.071
Mof_H 	H 	0.8915	0.8837	0.5626	0.097
Mof_H 	H 	0.3509	0.113	0.2617	0.075
Mof_H 	H 	0.7432	0.6037	0.0571	0.07
Mof_H 	H 	0.5636	0.0804	0.837	0.028
Mof_H 	H 	0.7511	0.9482	0.2101	0.066
Mof_H 	H 	0.7336	0.5999	0.8789	0.083
Mof_H 	H 	0.7753	0.9772	0.7019	0.089
Mof_H 	H 	0.8986	0.6124	0.839	0.099
Mof_H 	H 	0.8368	0.2098	0.0492	0.073
Mof_H 	H 	0.8999	0.6119	0.9346	0.099
Mof_H 	H 	0.6605	0.4528	0.2543	0.034
Mof_H 	H 	0.6406	0.0355	0.4189	0.066
Mof_H 	H 	0.0794	0.4624	0.7358	0.028
Mof_H 	H 	0.0755	0.0658	0.3649	0.037
Mof_H 	H 	0.3546	0.7517	0.7027	0.074
Mof_C 	C 	0.82285	0.80705	0.2111	-0.003
Mof_C 	C 	0.63614	0.55364	0.3802	0.031
Mof_C 	C 	0.61963	0.02927	0.6894	-0.122
Mof_C 	C 	0.56424	0.55934	0.7258	0.05
Mof_C 	C 	0.83495	0.19795	0.9089	-0.175
Mof_C 	C 	0.88643	0.61151	0.92182	-0.182
Mof_C 	C 	0.8244	0.9697	0.2059	0.037
Mof_C 	C 	0.84664	0.61026	0.884	0.125
Mof_C 	C 	0.76412	0.97358	0.2103	-0.094
Mof_C 	C 	0.75901	0.13277	0.83602	-0.127
Mof_C 	C 	0.51872	0.54398	0.6351	-0.05
Mof_C 	C 	0.55678	0.55262	0.6726	0.072
Mof_C 	C 	0.8596	0.9359	0.2045	0.246
Mof_C 	C 	0.5441	0.3396	0.2767	-0.023
Mof_C 	C 	0.81612	0.02558	0.2103	-0.094
Mof_C 	C 	0.29843	0.56831	0.6438	0.041
Mof_C 	C 	0.74747	0.5921	0.13193	-0.07
Mof_C 	C 	0.7558	0.0291	0.2151	-0.107
Mof_C 	C 	0.06539	0.44405	0.8195	0.048
Mof_C 	C 	0.97239	0.96627	0.4779	-0.012
Mof_C 	C 	0.85404	0.21774	0.8714	0.099
Mof_C 	C 	0.79284	0.16376	0.0434	0.063
Mof_C 	C 	0.5133	0.2093	0.2774	0.112
Mof_C 	C 	0.75466	0.01326	0.70582	0.048
Mof_C 	C 	0.63876	0.50085	0.25839	0.338
Mof_C 	C 	0.7893	0.1671	0.1011	0.038
Mof_C 	C 	0.45059	0.54307	0.6028	0.119
Mof_C 	C 	0.60517	0.4044	0.79583	-0.141
Mof_C 	C 	0.12253	0.03925	0.23382	0.393
Mof_C 	C 	0.78798	0.70217	0.22785	0.062
Mof_C 	C 	0.29803	0.71439	0.6534	0.054
Mof_C 	C 	0.78384	0.60094	0.8329	0.087
Mof_C 	C 	0.01184	0.98485	0.43767	0.064
Mof_C 	C 	0.52764	0.54518	0.5727	-0.18
Mof_C 	C 	0.841	0.9545	0.2045	-0.128
Mof_C 	C 	0.54351	0.17689	0.8452	-0.018
Mof_C 	C 	0.52774	0.24764	0.27842	-0.161
Mof_C 	C 	0.89054	0.96131	0.56473	-0.175
Mof_C 	C 	0.7311	0.59554	0.1108	0.021
Mof_C 	C 	0.73306	0.69124	0.7049	-0.117
Mof_C 	C 	0.3571	0.76568	0.6542	0.075
Mof_C 	C 	0.88212	0.89966	0.5727	-0.18
Mof_C 	C 	0.78789	0.05777	0.6438	0.041
Mof_C 	C 	0.03274	0.6073	0.786	-0.125
Mof_C 	C 	0.62776	0.0227	0.4063	-0.094
Mof_C 	C 	0.56023	0.55396	0.41743	-0.111
Mof_C 	C 	0.27252	0.55654	0.6841	-0.104
Mof_C 	C 	0.64307	0.05009	0.7071	0.38
Mof_C 	C 	0.37778	0.54316	0.6302	-0.021
Mof_C 	C 	0.8539	0.2194	0.9267	0.123
Mof_C 	C 	0.8857	0.61181	0.86475	-0.183
Mof_C 	C 	0.53006	0.93014	0.5398	0.123
Mof_C 	C 	0.72693	0.64365	0.23382	0.393
Mof_C 	C 	0.55146	0.12244	0.84206	-0.124
Mof_C 	C 	0.27597	0.1206	0.13193	-0.07
Mof_C 	C 	0.62839	0.02301	0.3486	-0.085
Mof_C 	C 	0.0355	0.60648	0.84206	-0.124
Mof_C 	C 	0.82664	0.99202	0.6302	-0.021
Mof_C 	C 	0.62953	0.50359	0.7843	0.397
Mof_C 	C 	0.56758	0.1601	0.823	0.076
Mof_C 	C 	0.55738	0.12311	0.26451	-0.114
Mof_C 	C 	0.33275	0.56307	0.6252	-0.122
Mof_C 	C 	0.82986	0.6082	0.9806	-0.051
Mof_C 	C 	0.0169	0.60942	0.823	0.075
Mof_C 	C 	0.49172	0.89336	0.5584	-0.182
Mof_C 	C 	0.52344	0.24955	0.86475	-0.183
Mof_C 	C 	0.4112	0.18954	0.9806	-0.051
Mof_C 	C 	0.89389	0.95381	0.2073	-0.285
Mof_C 	C 	0.73683	0.59239	0.8007	-0.156
Mof_C 	C 	0.83866	0.97144	0.61778	-0.035
Mof_C 	C 	0.28133	0.69097	0.6894	-0.121
Mof_C 	C 	0.83501	0.20119	0.8482	-0.028
Mof_C 	C 	0.61678	0.12506	0.25816	-0.117
Mof_C 	C 	0.58092	0.55726	0.37858	0.035
Mof_C 	C 	0.47144	0.87522	0.5975	0.123
Mof_C 	C 	0.54824	0.94988	0.5584	-0.182
Mof_C 	C 	0.02861	0.02234	0.41743	-0.11
Mof_C 	C 	0.6291	0.56818	0.7222	0.365
Mof_C 	C 	0.5964	0.55534	0.6517	-0.121
Mof_C 	C 	0.77628	0.59473	0.77971	0.076
Mof_C 	C 	0.72389	0.58492	0.17687	0.327
Mof_C 	C 	0.81173	0.04205	0.6252	-0.122
Mof_C 	C 	0.31515	0.53429	0.6873	-0.132
Mof_C 	C 	0.38037	0.17469	0.0132	-0.011
Mof_C 	C 	0.03762	0.02569	0.21689	-0.128
Mof_C 	C 	0.47396	0.54473	0.56473	-0.175
Mof_C 	C 	0.79379	0.60379	0.05302	0.059
Mof_C 	C 	0.54351	0.94969	0.6196	-0.045
Mof_C 	C 	0.79296	0.7519	0.6517	-0.121
Mof_C 	C 	0.33563	0.12467	0.2645	-0.116
Mof_C 	C 	0.03121	0.40497	0.83602	-0.127
Mof_C 	C 	0.61049	0.4575	0.26427	-0.096
Mof_C 	C 	0.90453	0.93784	0.54969	0.124
Mof_C 	C 	0.06998	0.98417	0.22785	0.062
Mof_C 	C 	0.8554	0.8787	0.2091	0.171
Mof_C 	C 	0.79099	0.17166	0.76115	0.054
Mof_C 	C 	0.29189	0.09941	0.1136	0.017
Mof_C 	C 	0.06616	0.98366	0.3802	0.031
Mof_C 	C 	0.59118	0.98578	0.367	0.021
Mof_C 	C 	0.75241	0.13455	0.7821	-0.114
Mof_C 	C 	0.08582	0.5993	0.7871	-0.121
Mof_C 	C 	0.79977	0.599	0.79583	-0.141
Mof_C 	C 	0.06717	0.60224	0.76807	0.053
Mof_C 	C 	0.64363	0.56233	0.31678	0.338
Mof_C 	C 	0.75053	0.12977	0.1197	-0.096
Mof_C 	C 	0.06416	0.0405	0.37858	0.034
Mof_C 	C 	0.53561	0.54739	0.5111	-0.053
Mof_C 	C 	0.0362	0.9672	0.2224	-0.127
Mof_C 	C 	0.50729	0.26639	0.27952	0.104
Mof_C 	C 	0.52728	0.93106	0.5975	0.123
Mof_C 	C 	0.45409	0.21319	0.27952	0.104
Mof_C 	C 	0.60386	0.56204	0.7049	-0.117
Mof_C 	C 	0.80704	0.01194	0.6469	0.081
Mof_C 	C 	0.53679	0.54711	0.6501	-0.013
Mof_C 	C 	0.73571	0.74965	0.70968	-0.124
Mof_C 	C 	0.56616	0.38326	0.8329	0.087
Mof_C 	C 	0.58727	0.98969	0.70784	0.053
Mof_C 	C 	0.47394	0.19384	0.27842	-0.161
Mof_C 	C 	0.24281	0.64983	0.7071	0.38
Mof_C 	C 	0.24076	0.10285	0.25839	0.338
Mof_C 	C 	0.4153	0.196	0.2783	-0.036
Mof_C 	C 	0.73223	0.05977	0.7022	0.33
Mof_C 	C 	0.61543	0.55033	0.41906	-0.112
Mof_C 	C 	0.90557	0.61244	0.88369	0.129
Mof_C 	C 	0.61253	0.02832	0.63575	-0.125
Mof_C 	C 	0.63801	0.10997	0.7687	0.344
Mof_C 	C 	0.8104	0.7414	0.2224	-0.127
Mof_C 	C 	0.8341	0.2013	0.9646	-0.053
Mof_C 	C 	0.34753	0.15855	0.27312	0.074
Mof_C 	C 	0.79514	0.76308	0.21692	0.072
Mof_C 	C 	0.84566	0.88495	0.61081	0.124
Mof_C 	C 	0.3837	0.1792	0.2767	-0.023
Mof_C 	C 	0.12089	0.03959	0.31678	0.338
Mof_C 	C 	0.58012	0.9887	0.6542	0.075
Mof_C 	C 	0.02	0.98794	0.21692	0.072
Mof_C 	C 	0.56753	0.96939	0.6902	-0.125
Mof_C 	C 	0.83167	0.90842	0.62585	-0.175
Mof_C 	C 	0.74162	0.99323	0.21277	0.03
Mof_C 	C 	0.23821	0.09924	0.17687	0.327
Mof_C 	C 	0.81085	0.18467	0.0627	-0.113
Mof_C 	C 	0.46667	0.19175	0.92182	-0.182
Mof_C 	C 	0.549	0.1778	0.2732	-0.002
Mof_C 	C 	0.32545	0.11571	0.0742	-0.101
Mof_C 	C 	0.6136	0.12708	0.7871	-0.121
Mof_C 	C 	0.77841	0.99755	0.6873	-0.131
Mof_C 	C 	0.89315	0.25615	0.9089	-0.175
Mof_C 	C 	0.82092	0.84618	0.6351	-0.05
Mof_C 	C 	0.43071	0.83689	0.6196	-0.045
Mof_C 	C 	0.30094	0.10798	0.26008	0.032
Mof_C 	C 	0.56808	0.43704	0.27288	0.039
Mof_C 	C 	0.7318	0.1096	0.1011	0.038
Mof_C 	C 	0.54754	0.40173	0.85385	-0.142
Mof_C 	C 	0.57871	0.1055	0.26029	0.05
Mof_C 	C 	0.75023	0.68455	0.22782	-0.138
Mof_C 	C 	0.61238	0.17811	0.26451	-0.114
Mof_C 	C 	0.9122	0.9355	0.2091	0.171
Mof_C 	C 	0.95061	0.31679	0.8482	-0.028
Mof_C 	C 	0.55583	0.54971	0.4779	-0.013
Mof_C 	C 	0.5332	0.1921	0.2747	-0.065
Mof_C 	C 	0.80279	0.81311	0.6501	-0.013
Mof_C 	C 	0.77215	0.71221	0.6678	0.049
Mof_C 	C 	0.94276	0.61224	0.8636	-0.054
Mof_C 	C 	0.54067	0.55461	0.70968	-0.124
Mof_C 	C 	0.8147	0.1844	0.0009	-0.011
Mof_C 	C 	0.6423	0.1073	0.2504	0.334
Mof_C 	C 	0.82753	0.60933	0.9221	-0.182
Mof_C 	C 	0.08763	0.02195	0.22782	-0.137
Mof_C 	C 	0.7241	0.1136	0.7675	0.366
Mof_C 	C 	0.62556	0.44401	0.77971	0.076
Mof_C 	C 	0.89391	0.25639	0.8497	-0.151
Mof_C 	C 	0.85413	0.94661	0.6028	0.119
Mof_C 	C 	0.5257	0.3064	0.2783	-0.036
Mof_C 	C 	0.97791	0.61129	0.8452	-0.018
Mof_C 	C 	0.83889	0.89881	0.2073	-0.285
Mof_C 	C 	0.63421	0.161	0.26029	0.05
Mof_C 	C 	0.3983	0.8052	0.6335	-0.017
Mof_C 	C 	0.98141	0.34799	0.8308	-0.032
Mof_C 	C 	0.46573	0.54248	0.62585	-0.175
Mof_C 	C 	0.56833	0.37935	0.27312	0.074
Mof_C 	C 	0.63221	0.04857	0.6534	0.054
Mof_C 	C 	0.0331	0.40882	0.7776	-0.13
Mof_C 	C 	0.65141	0.04339	0.3052	0.345
Mof_C 	C 	0.5721	0.1601	0.2678	0.057
Mof_C 	C 	0.61083	0.39987	0.2645	-0.116
Mof_C 	C 	0.75936	0.04338	0.6841	-0.104
Mof_C 	C 	0.73496	0.70622	0.22234	0.064
Mof_C 	C 	0.1189	0.5084	0.7675	0.366
Mof_C 	C 	0.32474	0.17571	0.27731	-0.12
Mof_C 	C 	0.72097	0.59433	0.8377	0.077
Mof_C 	C 	0.79753	0.16985	0.8151	0.085
Mof_C 	C 	0.61887	0.55711	0.35996	-0.09
Mof_C 	C 	0.57748	0.55049	0.43767	0.065
Mof_C 	C 	0.52416	0.19364	0.8636	-0.054
Mof_C 	C 	0.29008	0.15904	0.27288	0.039
Mof_C 	C 	0.4696	0.2515	0.2789	-0.161
Mof_C 	C 	0.77478	0.77062	0.6726	0.072
Mof_C 	C 	0.12133	0.59329	0.7687	0.344
Mof_C 	C 	0.48825	0.89435	0.6174	-0.18
Mof_C 	C 	0.51247	0.54578	0.54969	0.124
Mof_C 	C 	0.5884	0.9841	0.4275	0.048
Mof_C 	C 	0.8022	0.9896	0.2082	0.039
Mof_C 	C 	0.54698	0.39795	0.27731	-0.12
Mof_C 	C 	0.50424	0.54353	0.61081	0.124
Mof_C 	C 	0.56726	0.96534	0.4674	-0.005
Mof_C 	C 	0.94151	0.95329	0.5111	-0.053
Mof_C 	C 	0.41078	0.54356	0.61778	-0.035
Mof_C 	C 	0.64722	0.04182	0.367	0.021
Mof_C 	C 	0.63194	0.43898	0.26008	0.032
Mof_C 	C 	0.60691	0.46247	0.8007	-0.156
Mof_C 	C 	0.71486	0.70996	0.7258	0.05
Mof_C 	C 	0.72675	0.10955	0.1637	0.345
Mof_C 	C 	0.61999	0.56005	0.6678	0.049
Mof_C 	C 	0.01505	0.38737	0.8151	0.085
Mof_C 	C 	0.52629	0.30881	0.8659	-0.049
Mof_C 	C 	0.34319	0.15319	0.05302	0.059
Mof_C 	C 	0.29366	0.1581	0.1108	0.021
Mof_C 	C 	0.794	0.04561	0.21277	0.03
Mof_C 	C 	0.82121	0.18779	0.8308	-0.032
Mof_C 	C 	0.46857	0.25037	0.9221	-0.182
Mof_C 	C 	0.78699	0.59451	0.1136	0.017
Mof_C 	C 	0.571	0.96594	0.4063	-0.094
Mof_C 	C 	0.06998	0.60142	0.8241	0.052
Mof_C 	C 	0.32727	0.17439	0.07134	-0.103
Mof_C 	C 	0.5613	0.9682	0.6335	-0.017
Mof_C 	C 	0.23803	0.56557	0.7022	0.33
Mof_C 	C 	0.73047	0.04653	0.223	0.36
Mof_C 	C 	0.6067	0.18126	0.786	-0.125
Mof_C 	C 	0.81358	0.1893	0.7776	-0.13
Mof_C 	C 	0.34116	0.54606	0.6469	0.081
Mof_C 	C 	0.71211	0.58617	0.7843	0.397
Mof_C 	C 	0.27823	0.12524	0.26427	-0.096
Mof_C 	C 	0.55163	0.95077	0.4976	-0.049
Mof_C 	C 	0.08293	0.02117	0.35996	-0.09
Mof_C 	C 	0.54281	0.34199	0.8518	-0.02
Mof_C 	C 	0.91086	0.27456	0.8714	0.099
Mof_C 	C 	0.56797	0.44133	0.8377	0.077
Mof_C 	C 	0.34041	0.74227	0.6902	-0.125
Mof_C 	C 	0.73645	0.11511	0.8195	0.048
Mof_C 	C 	0.81009	0.60035	0.0742	-0.101
Mof_C 	C 	0.98185	0.96605	0.2111	-0.003
Mof_C 	C 	0.9484	0.9518	0.2114	-0.071
Mof_C 	C 	0.84742	0.60996	0.94102	0.124
Mof_C 	C 	0.70962	0.6487	0.7222	0.365
Mof_C 	C 	0.80621	0.60539	0.8518	-0.02
Mof_C 	C 	0.50574	0.26936	0.884	0.125
Mof_C 	C 	0.8945	0.8947	0.2108	-0.198
Mof_C 	C 	0.08335	0.46549	0.7821	-0.114
Mof_C 	C 	0.62969	0.16476	0.76807	0.053
Mof_C 	C 	0.28092	0.53952	0.70582	0.049
Mof_C 	C 	0.33593	0.75172	0.63575	-0.125
Mof_C 	C 	0.82529	0.60781	0.8659	-0.049
Mof_C 	C 	0.75427	0.60139	0.07134	-0.103
Mof_C 	C 	0.74442	0.59861	0.85385	-0.142
Mof_C 	C 	0.50387	0.21074	0.88369	0.129
Mof_C 	C 	0.06719	0.44786	0.76115	0.054
Mof_C 	C 	0.07144	0.0427	0.22234	0.064
Mof_C 	C 	0.03061	0.96551	0.41906	-0.111
Mof_C 	C 	0.81211	0.60643	0.0132	-0.011
Mof_C 	C 	0.8368	0.8402	0.2114	-0.071
Mof_C 	C 	0.30247	0.70489	0.70784	0.053
Mof_C 	C 	0.44902	0.21156	0.94102	0.124
Mof_C 	C 	0.57448	0.10592	0.8241	0.052
Mof_C 	C 	0.75263	0.12645	0.0627	-0.113
Mof_C 	C 	0.75742	0.74549	0.21689	-0.128
Mof_O 	O 	0.22626	0.12234	0.19036	-0.392
Mof_O 	O 	0.74938	0.08089	0.22221	-0.406
Mof_O 	O 	0.67579	0.55922	0.30279	-0.407
Mof_O 	O 	0.13161	0.52289	0.78642	-0.425
Mof_O 	O 	0.13545	0.07345	0.23288	-0.414
Mof_O 	O 	0.13896	0.59021	0.78483	-0.414
Mof_O 	O 	0.68503	0.07753	0.29028	-0.405
Mof_O 	O 	0.6873	0.58338	0.19036	-0.392
Mof_O 	O 	0.62613	0.56736	0.30051	-0.401
Mof_O 	O 	0.67686	0.58545	0.80287	-0.41
Mof_O 	O 	0.22116	0.56158	0.73804	-0.396
Mof_O 	O 	0.72856	0.58601	0.75071	-0.416
Mof_O 	O 	0.70038	0.0408	0.73804	-0.396
Mof_O 	O 	0.67456	0.51511	0.25525	-0.409
Mof_O 	O 	0.13213	0.07336	0.30051	-0.401
Mof_O 	O 	0.61111	0.56887	0.756	-0.409
Mof_O 	O 	0.69069	0.08197	0.78642	-0.425
Mof_O 	O 	0.74385	0.12718	0.18095	-0.405
Mof_O 	O 	0.66328	0.52073	0.75071	-0.416
Mof_O 	O 	0.67924	0.12494	0.24752	-0.386
Mof_O 	O 	0.66403	0.56877	0.70302	-0.411
Mof_O 	O 	0.63013	0.03122	0.73891	-0.422
Mof_O 	O 	0.22309	0.12113	0.2586	-0.394
Mof_O 	O 	0.22553	0.57428	0.68201	-0.402
Mof_O 	O 	0.69367	0.63167	0.23288	-0.414
Mof_O 	O 	0.136	0.01982	0.23816	-0.422
Mof_O 	O 	0.61168	0.52027	0.80287	-0.41
Mof_O 	O 	0.6969	0.02841	0.22221	-0.406
Mof_O 	O 	0.22987	0.63096	0.73891	-0.422
Mof_O 	O 	0.22964	0.07019	0.25525	-0.409
Mof_O 	O 	0.69187	0.0752	0.18095	-0.405
Mof_O 	O 	0.74213	0.13431	0.7316	-0.39
Mof_O 	O 	0.13799	0.02142	0.30279	-0.407
Mof_O 	O 	0.74371	0.09246	0.68201	-0.402
Mof_O 	O 	0.63219	0.02469	0.29028	-0.405
Mof_O 	O 	0.62496	0.07621	0.78483	-0.414
Mof_O 	O 	0.74202	0.62584	0.23816	-0.422
Mof_O 	O 	0.2269	0.63918	0.68742	-0.402
Mof_O 	O 	0.72821	0.63295	0.70302	-0.411
Mof_O 	O 	0.6734	0.08568	0.68742	-0.402
Mof_O 	O 	0.62754	0.07324	0.24752	-0.386
Mof_O 	O 	0.74226	0.58263	0.19145	-0.41
Mof_O 	O 	0.22592	0.06629	0.19145	-0.41
Mof_O 	O 	0.67513	0.63289	0.756	-0.409
Mof_O 	O 	0.62027	0.51831	0.2586	-0.394
Mof_O 	O 	0.13407	0.5924	0.73315	-0.392
Mof_O 	O 	0.67445	0.13278	0.73315	-0.392
Mof_O 	O 	0.13409	0.52627	0.7316	-0.39
_end
