data_functionalizedCrystal
_audit_creation_method	'EQeq! by Chris Wilmer'
_symmetry_space_group_name_H-M	'P1'
_symmetry_Int_Tables_number	1
_symmetry_cell_setting	triclinic
loop_
_symmetry_equiv_pos_as_xyz
  x,y,z
_cell_length_a	8.4671
_cell_length_b	8.4671
_cell_length_c	14.4437
_cell_angle_alpha	90
_cell_angle_beta	90
_cell_angle_gamma	90
loop_
_atom_site_label
_atom_site_type_symbol
_atom_site_fract_x
_atom_site_fract_y
_atom_site_fract_z
_atom_site_charge
Mof_Cu	Cu	0.5	0.853	-0	0.843
Mof_Cu	Cu	0.5	0.147	-0	0.833
Mof_Cu	Cu	0.147	0.5	0.5	0.893
Mof_Cu	Cu	0.853	0.5	0.5	0.903
Mof_H 	H 	0.7559	0.85	0.7105	0.102
Mof_H 	H 	0.2441	0.15	0.7105	0.103
Mof_H 	H 	0.15	0.7559	0.2105	0.072
Mof_H 	H 	0.85	0.2441	0.2105	0.086
Mof_H 	H 	0.2441	0.85	0.2895	0.094
Mof_H 	H 	0.7559	0.15	0.2895	0.079
Mof_H 	H 	0.85	0.7559	0.7895	0.111
Mof_H 	H 	0.15	0.2441	0.7895	0.111
Mof_H 	H 	0.2441	0.15	0.2895	0.087
Mof_H 	H 	0.7559	0.85	0.2895	0.086
Mof_H 	H 	0.85	0.2441	0.7895	0.119
Mof_H 	H 	0.15	0.7559	0.7895	0.104
Mof_H 	H 	0.7559	0.15	0.7105	0.096
Mof_H 	H 	0.2441	0.85	0.7105	0.111
Mof_H 	H 	0.15	0.2441	0.2105	0.079
Mof_H 	H 	0.85	0.7559	0.2105	0.078
Mof_H 	H 	-6.34834e-33	0.0947	0.9132	0.151
Mof_H 	H 	-6.34834e-33	0.9053	0.9132	0.174
Mof_H 	H 	0.9053	0	0.4132	0.121
Mof_H 	H 	0.0947	0	0.4132	0.097
Mof_H 	H 	2.07881e-33	0.0947	0.0868	0.055
Mof_H 	H 	-1.01103e-32	0.9053	0.0868	0.077
Mof_H 	H 	0.0947	0	0.5868	0.106
Mof_H 	H 	0.9053	0	0.5868	0.13
Mof_C 	C 	0.7123	0	0.8783	0.226
Mof_C 	C 	0.8509	0	0.8111	0.099
Mof_C 	C 	0.2877	0	0.8783	0.228
Mof_C 	C 	0.1491	0	0.8111	0.088
Mof_C 	C 	8.51415e-33	0.7123	0.3783	0.25
Mof_C 	C 	1.98978e-33	0.8509	0.3111	0.045
Mof_C 	C 	2.41959e-33	0.2877	0.3783	0.253
Mof_C 	C 	-4.10478e-33	0.1491	0.3111	0.034
Mof_C 	C 	0.2877	0	0.1217	0.259
Mof_C 	C 	0.1491	3.04728e-33	0.1889	0.019
Mof_C 	C 	0.7123	0	0.1217	0.256
Mof_C 	C 	0.8509	3.04728e-33	0.1889	0.03
Mof_C 	C 	-8.21276e-33	0.7123	0.6217	0.24
Mof_C 	C 	-7.78295e-33	0.8509	0.6889	0.08
Mof_C 	C 	-8.21276e-33	0.2877	0.6217	0.243
Mof_C 	C 	-7.78295e-33	0.1491	0.6889	0.069
Mof_C 	C 	0.8514	0.8514	0.75	-0.146
Mof_C 	C 	0.1486	0.1486	0.75	-0.214
Mof_C 	C 	0.1486	0.8514	0.25	-0.134
Mof_C 	C 	0.8514	0.1486	0.25	-0.133
Mof_C 	C 	0.1486	0.1486	0.25	-0.162
Mof_C 	C 	0.8514	0.8514	0.25	-0.094
Mof_C 	C 	0.8514	0.1486	0.75	-0.185
Mof_C 	C 	0.1486	0.8514	0.75	-0.186
Mof_C 	C 	5.58367e-33	0	0.873	-0.327
Mof_C 	C 	2.38569e-33	0	0.373	-0.259
Mof_C 	C 	-2.235e-33	-1.52364e-33	0.127	-0.224
Mof_C 	C 	4.01026e-33	0	0.627	-0.291
Mof_O 	O 	0.6618	0.8683	0.9058	-0.296
Mof_O 	O 	0.3382	0.1317	0.9058	-0.332
Mof_O 	O 	0.1317	0.6618	0.4058	-0.395
Mof_O 	O 	0.8683	0.3382	0.4058	-0.373
Mof_O 	O 	0.3382	0.8683	0.0942	-0.406
Mof_O 	O 	0.6618	0.1317	0.0942	-0.426
Mof_O 	O 	0.8683	0.6618	0.5942	-0.359
Mof_O 	O 	0.1317	0.3382	0.5942	-0.396
Mof_O 	O 	0.3382	0.1317	0.0942	-0.433
Mof_O 	O 	0.6618	0.8683	0.0942	-0.397
Mof_O 	O 	0.8683	0.3382	0.5942	-0.368
Mof_O 	O 	0.1317	0.6618	0.5942	-0.389
Mof_O 	O 	0.6618	0.1317	0.9058	-0.325
Mof_O 	O 	0.3382	0.8683	0.9058	-0.305
Mof_O 	O 	0.1317	0.3382	0.4058	-0.401
Mof_O 	O 	0.8683	0.6618	0.4058	-0.364
_end
