data_functionalizedCrystal
_audit_creation_method	'EQeq! by Chris Wilmer'
_symmetry_space_group_name_H-M	'P1'
_symmetry_Int_Tables_number	1
_symmetry_cell_setting	triclinic
loop_
_symmetry_equiv_pos_as_xyz
  x,y,z
_cell_length_a	15.683
_cell_length_b	15.683
_cell_length_c	11.5526
_cell_angle_alpha	90
_cell_angle_beta	90
_cell_angle_gamma	120
loop_
_atom_site_label
_atom_site_type_symbol
_atom_site_fract_x
_atom_site_fract_y
_atom_site_fract_z
_atom_site_charge
Mof_O 	O 	0.9345	0.572	0.7757	-0.39
Mof_O 	O 	0.8718	0.415	0.7911	-0.401
Mof_C 	C 	0.8742	0.4931	0.823	0.383
Mof_C 	C 	0.8082	0.4962	0.9104	-0.152
Mof_C 	C 	0.7326	0.4067	0.9564	0.214
Mof_C 	C 	0.8238	0.5853	0.9535	0.216
Mof_N 	N 	0.8976	0.679	0.913	-0.013
Mof_N 	N 	0.713	0.3131	0.916	-0.048
Mof_O 	O 	0.428	0.3625	0.44237	-0.508
Mof_O 	O 	0.585	0.4568	0.45777	-0.472
Mof_C 	C 	0.5069	0.3811	0.48967	0.373
Mof_C 	C 	0.5038	0.312	0.57707	-0.109
Mof_C 	C 	0.5933	0.3259	0.62307	0.082
Mof_C 	C 	0.4147	0.2385	0.62017	0.086
Mof_N 	N 	0.321	0.2186	0.57967	-0.078
Mof_N 	N 	0.6869	0.3999	0.58267	-0.05
Mof_O 	O 	0.6375	0.0655	0.10903	-0.483
Mof_O 	O 	0.5432	0.1282	0.12443	-0.46
Mof_C 	C 	0.6189	0.1258	0.15633	0.367
Mof_C 	C 	0.688	0.1918	0.24373	-0.122
Mof_C 	C 	0.6741	0.2674	0.28973	0.08
Mof_C 	C 	0.7615	0.1762	0.28683	0.089
Mof_N 	N 	0.7814	0.1024	0.24633	-0.073
Mof_N 	N 	0.6001	0.287	0.24933	-0.063
Mof_O 	O 	0.0655	0.428	0.7757	-0.502
Mof_O 	O 	0.1282	0.585	0.7911	-0.462
Mof_C 	C 	0.1258	0.5069	0.823	0.394
Mof_C 	C 	0.1918	0.5038	0.9104	-0.176
Mof_C 	C 	0.2674	0.5933	0.9564	0.205
Mof_C 	C 	0.1762	0.4147	0.9535	0.196
Mof_N 	N 	0.1024	0.321	0.913	-0.085
Mof_N 	N 	0.287	0.6869	0.916	-0.055
Mof_O 	O 	0.572	0.6375	0.44237	-0.484
Mof_O 	O 	0.415	0.5432	0.45777	-0.482
Mof_C 	C 	0.4931	0.6189	0.48967	0.375
Mof_C 	C 	0.4962	0.688	0.57707	-0.103
Mof_C 	C 	0.4067	0.6741	0.62307	0.088
Mof_C 	C 	0.5853	0.7615	0.62017	0.105
Mof_N 	N 	0.679	0.7814	0.57967	-0.028
Mof_N 	N 	0.3131	0.6001	0.58267	-0.056
Mof_O 	O 	0.3625	0.9345	0.10903	-0.405
Mof_O 	O 	0.4568	0.8718	0.12443	-0.396
Mof_C 	C 	0.3811	0.8742	0.15633	0.355
Mof_C 	C 	0.312	0.8082	0.24373	-0.103
Mof_C 	C 	0.3259	0.7326	0.28973	0.077
Mof_C 	C 	0.2385	0.8238	0.28683	0.086
Mof_N 	N 	0.2186	0.8976	0.24633	-0.056
Mof_N 	N 	0.3999	0.713	0.24933	-0.053
Mof_O 	O 	0.572	0.9345	0.89097	-0.338
Mof_O 	O 	0.415	0.8718	0.87557	-0.355
Mof_C 	C 	0.4931	0.8742	0.84367	0.348
Mof_C 	C 	0.4962	0.8082	0.75627	-0.081
Mof_C 	C 	0.4067	0.7326	0.71027	0.082
Mof_C 	C 	0.5853	0.8238	0.71317	0.101
Mof_N 	N 	0.679	0.8976	0.75367	-0.011
Mof_N 	N 	0.3131	0.713	0.75067	-0.049
Mof_O 	O 	0.3625	0.428	0.2243	-0.505
Mof_O 	O 	0.4568	0.585	0.2089	-0.472
Mof_C 	C 	0.3811	0.5069	0.177	0.344
Mof_C 	C 	0.312	0.5038	0.0896	-0.05
Mof_C 	C 	0.3259	0.5933	0.0436	-0.048
Mof_C 	C 	0.2385	0.4147	0.0465	-0.034
Mof_N 	N 	0.2186	0.321	0.087	-0.087
Mof_N 	N 	0.3999	0.6869	0.084	-0.053
Mof_O 	O 	0.0655	0.6375	0.55763	-0.488
Mof_O 	O 	0.1282	0.5432	0.54223	-0.466
Mof_C 	C 	0.1258	0.6189	0.51033	0.367
Mof_C 	C 	0.1918	0.688	0.42293	-0.116
Mof_C 	C 	0.2674	0.6741	0.37693	0.079
Mof_C 	C 	0.1762	0.7615	0.37983	0.087
Mof_N 	N 	0.1024	0.7814	0.42033	-0.071
Mof_N 	N 	0.287	0.6001	0.41733	-0.062
Mof_O 	O 	0.428	0.0655	0.89097	-0.432
Mof_O 	O 	0.585	0.1282	0.87557	-0.4
Mof_C 	C 	0.5069	0.1258	0.84367	0.357
Mof_C 	C 	0.5038	0.1918	0.75627	-0.103
Mof_C 	C 	0.5933	0.2674	0.71027	0.079
Mof_C 	C 	0.4147	0.1762	0.71317	0.083
Mof_N 	N 	0.321	0.1024	0.75367	-0.079
Mof_N 	N 	0.6869	0.287	0.75067	-0.053
Mof_O 	O 	0.6375	0.572	0.2243	-0.48
Mof_O 	O 	0.5432	0.415	0.2089	-0.481
Mof_C 	C 	0.6189	0.4931	0.177	0.346
Mof_C 	C 	0.688	0.4962	0.0896	-0.042
Mof_C 	C 	0.6741	0.4067	0.0436	-0.048
Mof_C 	C 	0.7615	0.5853	0.0465	-0.016
Mof_N 	N 	0.7814	0.679	0.087	-0.036
Mof_N 	N 	0.6001	0.3131	0.084	-0.058
Mof_O 	O 	0.9345	0.3625	0.55763	-0.396
Mof_O 	O 	0.8718	0.4568	0.54223	-0.396
Mof_C 	C 	0.8742	0.3811	0.51033	0.354
Mof_C 	C 	0.8082	0.312	0.42293	-0.094
Mof_C 	C 	0.7326	0.3259	0.37693	0.077
Mof_C 	C 	0.8238	0.2385	0.37983	0.088
Mof_N 	N 	0.8976	0.2186	0.42033	-0.043
Mof_N 	N 	0.713	0.3999	0.41733	-0.05
Mof_In	In	-1.39413e-17	0.5	0.66667	2.211
Mof_In	In	0.5	0.5	0.33333	2.596
Mof_In	In	0.5	0	-0	1.991
_end
