data_functionalizedCrystal
_audit_creation_method	'EQeq! by Chris Wilmer'
_symmetry_space_group_name_H-M	'P1'
_symmetry_Int_Tables_number	1
_symmetry_cell_setting	triclinic
loop_
_symmetry_equiv_pos_as_xyz
  x,y,z
_cell_length_a	14.902
_cell_length_b	19.4175
_cell_length_c	31.358
_cell_angle_alpha	101.708
_cell_angle_beta	90
_cell_angle_gamma	112.565
loop_
_atom_site_label
_atom_site_type_symbol
_atom_site_fract_x
_atom_site_fract_y
_atom_site_fract_z
_atom_site_charge
Mof_Zn	Zn	0.52955	0.34996	0.2826	1.161
Mof_Zn	Zn	0.47776	0.75592	0.42971	1.164
Mof_Zn	Zn	0.95603	0.14584	0.60145	1.165
Mof_Zn	Zn	0.82041	0.34996	0.7826	1.161
Mof_Zn	Zn	0.27816	0.75592	0.92971	1.165
Mof_Zn	Zn	0.18981	0.14584	0.10145	1.166
Mof_H 	H 	0.7264	0.4772	0.3259	-0.009
Mof_H 	H 	0.8899	0.4984	0.3261	0.079
Mof_H 	H 	0.8262	0.3004	0.2397	0.083
Mof_H 	H 	0.6614	0.2788	0.2441	-0.016
Mof_H 	H 	0.4556	0.6384	0.3461	-0.004
Mof_H 	H 	0.3372	0.5372	0.3007	0.092
Mof_H 	H 	0.1371	0.6	0.3656	0.086
Mof_H 	H 	0.2622	0.6952	0.412	-0.001
Mof_H 	H 	0.0216	0.1714	0.14	-0.002
Mof_H 	H 	0.984	0.2558	0.1943	0.088
Mof_H 	H 	0.2728	0.3882	0.2189	0.074
Mof_H 	H 	0.3018	0.3016	0.1631	-0.001
Mof_H 	H 	0.3972	0.8524	0.4953	-0.009
Mof_H 	H 	0.3614	0.9592	0.5034	0.083
Mof_H 	H 	0.413	0.9616	0.3768	0.084
Mof_H 	H 	0.4423	0.8504	0.3721	-0.01
Mof_H 	H 	0.0674	0.2134	0.5319	-0.012
Mof_H 	H 	0.198	0.2124	0.4927	0.081
Mof_H 	H 	0.1632	0.0132	0.5242	0.08
Mof_H 	H 	0.0382	0.0238	0.564	-0.012
Mof_H 	H 	0.4956	0.1952	0.2934	-0.019
Mof_H 	H 	0.4316	0.1124	0.3389	0.086
Mof_H 	H 	0.3777	0.2784	0.4181	0.089
Mof_H 	H 	0.4378	0.3566	0.3698	-0.012
Mof_H 	H 	0.7508	0.4772	0.8259	-0.009
Mof_H 	H 	0.6085	0.4984	0.8261	0.079
Mof_H 	H 	0.4742	0.3004	0.7397	0.083
Mof_H 	H 	0.6174	0.2788	0.7441	-0.016
Mof_H 	H 	0.1828	0.6384	0.8461	-0.004
Mof_H 	H 	0.2	0.5372	0.8007	0.092
Mof_H 	H 	0.4629	0.6	0.8656	0.086
Mof_H 	H 	0.433	0.6952	0.912	-0.001
Mof_H 	H 	0.1498	0.1714	0.64	-0.003
Mof_H 	H 	0.2718	0.2558	0.6943	0.09
Mof_H 	H 	0.1154	0.3882	0.7189	0.074
Mof_H 	H 	0.9998	0.3016	0.6631	-0.003
Mof_H 	H 	0.4552	0.8524	0.9953	-0.01
Mof_H 	H 	0.5978	0.9592	0.0034	0.084
Mof_H 	H 	0.5486	0.9616	0.8768	0.085
Mof_H 	H 	0.4081	0.8504	0.8721	-0.01
Mof_H 	H 	0.146	0.2134	0.0319	-0.012
Mof_H 	H 	0.0144	0.2124	0.9927	0.079
Mof_H 	H 	0.85	0.0132	0.0242	0.078
Mof_H 	H 	0.9856	0.0238	0.064	-0.012
Mof_H 	H 	0.6996	0.1952	0.7934	-0.019
Mof_H 	H 	0.6808	0.1124	0.8389	0.086
Mof_H 	H 	0.9007	0.2784	0.9181	0.089
Mof_H 	H 	0.9188	0.3566	0.8698	-0.012
Mof_C 	C 	0.7463	0.44	0.309	0.07
Mof_C 	C 	0.8437	0.453	0.3082	-0.122
Mof_C 	C 	0.8768	0.403	0.2825	0.06
Mof_C 	C 	0.8077	0.3372	0.2581	-0.12
Mof_C 	C 	0.7092	0.3248	0.2609	0.067
Mof_C 	C 	0.9824	0.4196	0.2793	0.098
Mof_C 	C 	0.1413	0.4916	0.2986	0.095
Mof_C 	C 	0.0971	0.3864	0.2459	0.105
Mof_C 	C 	0.3892	0.6286	0.3508	0.075
Mof_C 	C 	0.3197	0.5698	0.3229	-0.125
Mof_C 	C 	0.2218	0.5576	0.3274	0.048
Mof_C 	C 	0.2025	0.606	0.3613	-0.12
Mof_C 	C 	0.2774	0.6626	0.3888	0.077
Mof_C 	C 	0.0729	0.2154	0.1566	0.067
Mof_C 	C 	0.05	0.2668	0.1883	-0.106
Mof_C 	C 	0.1232	0.3332	0.2109	0.05
Mof_C 	C 	0.2201	0.345	0.2027	-0.112
Mof_C 	C 	0.2368	0.2918	0.1705	0.058
Mof_C 	C 	0.404	0.8766	0.4714	0.087
Mof_C 	C 	0.3804	0.9388	0.4764	-0.133
Mof_C 	C 	0.3855	0.97	0.4411	0.06
Mof_C 	C 	0.4103	0.9396	0.4015	-0.121
Mof_C 	C 	0.4309	0.8756	0.3995	0.067
Mof_C 	C 	0.356	0.0366	0.4432	0.092
Mof_C 	C 	0.2621	0.1016	0.4718	0.08
Mof_C 	C 	0.3619	0.1364	0.4165	0.104
Mof_C 	C 	0.0897	0.1736	0.5318	0.07
Mof_C 	C 	0.164	0.171	0.5062	-0.123
Mof_C 	C 	0.1886	0.11	0.5003	0.058
Mof_C 	C 	0.1444	0.0548	0.5249	-0.133
Mof_C 	C 	0.0729	0.064	0.5499	0.088
Mof_C 	C 	0.4734	0.2132	0.3201	0.078
Mof_C 	C 	0.435	0.1634	0.3469	-0.126
Mof_C 	C 	0.4015	0.1874	0.3849	0.073
Mof_C 	C 	0.4034	0.2604	0.3925	-0.123
Mof_C 	C 	0.4409	0.3076	0.3643	0.078
Mof_C 	C 	0.6937	0.44	0.809	0.07
Mof_C 	C 	0.6093	0.453	0.8082	-0.122
Mof_C 	C 	0.5262	0.403	0.7825	0.06
Mof_C 	C 	0.5295	0.3372	0.7581	-0.12
Mof_C 	C 	0.6156	0.3248	0.7609	0.067
Mof_C 	C 	0.4372	0.4196	0.7793	0.099
Mof_C 	C 	0.3503	0.4916	0.7986	0.095
Mof_C 	C 	0.2893	0.3864	0.7459	0.104
Mof_C 	C 	0.2394	0.6286	0.8508	0.075
Mof_C 	C 	0.2501	0.5698	0.8229	-0.125
Mof_C 	C 	0.3358	0.5576	0.8274	0.048
Mof_C 	C 	0.4035	0.606	0.8613	-0.12
Mof_C 	C 	0.3852	0.6626	0.8888	0.077
Mof_C 	C 	0.1425	0.2154	0.6566	0.068
Mof_C 	C 	0.2168	0.2668	0.6883	-0.11
Mof_C 	C 	0.21	0.3332	0.7109	0.052
Mof_C 	C 	0.1249	0.345	0.7027	-0.114
Mof_C 	C 	0.055	0.2918	0.6705	0.06
Mof_C 	C 	0.4726	0.8766	0.9714	0.088
Mof_C 	C 	0.5584	0.9388	0.9764	-0.134
Mof_C 	C 	0.5845	0.97	0.9411	0.061
Mof_C 	C 	0.5293	0.9396	0.9015	-0.122
Mof_C 	C 	0.4447	0.8756	0.8995	0.067
Mof_C 	C 	0.6806	0.0366	0.9432	0.091
Mof_C 	C 	0.8395	0.1016	0.9718	0.082
Mof_C 	C 	0.7745	0.1364	0.9165	0.104
Mof_C 	C 	0.0839	0.1736	0.0318	0.067
Mof_C 	C 	0.007	0.171	0.0062	-0.116
Mof_C 	C 	0.9214	0.11	0.0003	0.052
Mof_C 	C 	0.9104	0.0548	0.0249	-0.13
Mof_C 	C 	0.9911	0.064	0.0499	0.083
Mof_C 	C 	0.7398	0.2132	0.8201	0.078
Mof_C 	C 	0.7284	0.1634	0.8469	-0.126
Mof_C 	C 	0.7859	0.1874	0.8849	0.073
Mof_C 	C 	0.857	0.2604	0.8925	-0.123
Mof_C 	C 	0.8667	0.3076	0.8643	0.078
Mof_I 	I 	0.45673	0.2611	0.20823	-0.396
Mof_I 	I 	0.50646	0.47426	0.30838	-0.382
Mof_I 	I 	0.4545	0.71066	0.50071	-0.369
Mof_I 	I 	0.63487	0.79168	0.39246	-0.384
Mof_I 	I 	0.87357	0.03076	0.63494	-0.355
Mof_I 	I 	0.86746	0.2111	0.56842	-0.383
Mof_I 	I 	0.80437	0.2611	0.70823	-0.396
Mof_I 	I 	0.9678	0.47426	0.80838	-0.382
Mof_I 	I 	0.25616	0.71066	0.00071	-0.369
Mof_I 	I 	0.15681	0.79168	0.89246	-0.385
Mof_I 	I 	0.15719	0.03076	0.13494	-0.352
Mof_I 	I 	0.34364	0.2111	0.06842	-0.382
Mof_N 	N 	0.68	0.3744	0.2859	-0.268
Mof_N 	N 	0.0503	0.4814	0.3064	-0.14
Mof_N 	N 	0.1698	0.4472	0.2695	-0.144
Mof_N 	N 	0.0017	0.368	0.2496	-0.134
Mof_N 	N 	0.3702	0.674	0.3846	-0.275
Mof_N 	N 	0.1645	0.2268	0.1492	-0.264
Mof_N 	N 	0.4356	0.8472	0.4355	-0.272
Mof_N 	N 	0.2961	0.0462	0.4734	-0.144
Mof_N 	N 	0.2981	0.15	0.4445	-0.129
Mof_N 	N 	0.39	0.079	0.414	-0.135
Mof_N 	N 	0.0471	0.1232	0.5565	-0.278
Mof_N 	N 	0.4817	0.2856	0.3294	-0.277
Mof_N 	N 	0.6944	0.3744	0.7859	-0.268
Mof_N 	N 	0.4311	0.4814	0.8064	-0.14
Mof_N 	N 	0.2774	0.4472	0.7695	-0.144
Mof_N 	N 	0.3663	0.368	0.7496	-0.134
Mof_N 	N 	0.3038	0.674	0.8846	-0.275
Mof_N 	N 	0.0623	0.2268	0.6492	-0.264
Mof_N 	N 	0.4116	0.8472	0.9355	-0.272
Mof_N 	N 	0.7501	0.0462	0.9734	-0.144
Mof_N 	N 	0.8519	0.15	0.9445	-0.13
Mof_N 	N 	0.689	0.079	0.914	-0.135
Mof_N 	N 	0.0761	0.1232	0.0565	-0.276
Mof_N 	N 	0.8039	0.2856	0.8294	-0.277
Mof_Zn	Zn	0.17959	0.65004	0.2174	1.162
Mof_Zn	Zn	0.72184	0.24408	0.07029	1.165
Mof_Zn	Zn	0.81019	0.85416	0.89855	1.166
Mof_Zn	Zn	0.47045	0.65004	0.7174	1.162
Mof_Zn	Zn	0.52224	0.24408	0.57029	1.165
Mof_Zn	Zn	0.04397	0.85416	0.39855	1.166
Mof_H 	H 	0.2492	0.5228	0.1741	-0.009
Mof_H 	H 	0.3915	0.5016	0.1739	0.079
Mof_H 	H 	0.5258	0.6996	0.2603	0.083
Mof_H 	H 	0.3826	0.7212	0.2559	-0.016
Mof_H 	H 	0.8172	0.3616	0.1539	-0.004
Mof_H 	H 	0.8	0.4628	0.1993	0.092
Mof_H 	H 	0.5371	0.4	0.1344	0.086
Mof_H 	H 	0.567	0.3048	0.088	-0.001
Mof_H 	H 	0.8502	0.8286	0.36	-0.003
Mof_H 	H 	0.7282	0.7442	0.3057	0.09
Mof_H 	H 	0.8846	0.6118	0.2811	0.074
Mof_H 	H 	0.0002	0.6984	0.3369	-0.003
Mof_H 	H 	0.5448	0.1476	0.0047	-0.01
Mof_H 	H 	0.4022	0.0408	0.9966	0.084
Mof_H 	H 	0.4514	0.0384	0.1232	0.085
Mof_H 	H 	0.5919	0.1496	0.1279	-0.01
Mof_H 	H 	0.854	0.7866	0.9681	-0.012
Mof_H 	H 	0.9856	0.7876	0.0073	0.079
Mof_H 	H 	0.15	0.9868	0.9758	0.078
Mof_H 	H 	0.0144	0.9762	0.936	-0.012
Mof_H 	H 	0.3004	0.8048	0.2066	-0.019
Mof_H 	H 	0.3192	0.8876	0.1611	0.086
Mof_H 	H 	0.0993	0.7216	0.0819	0.089
Mof_H 	H 	0.0812	0.6434	0.1302	-0.012
Mof_H 	H 	0.2736	0.5228	0.6741	-0.009
Mof_H 	H 	0.1101	0.5016	0.6739	0.079
Mof_H 	H 	0.1738	0.6996	0.7603	0.083
Mof_H 	H 	0.3386	0.7212	0.7559	-0.016
Mof_H 	H 	0.5444	0.3616	0.6539	-0.004
Mof_H 	H 	0.6628	0.4628	0.6993	0.092
Mof_H 	H 	0.8629	0.4	0.6344	0.086
Mof_H 	H 	0.7378	0.3048	0.588	-0.001
Mof_H 	H 	0.9784	0.8286	0.86	-0.002
Mof_H 	H 	0.016	0.7442	0.8057	0.088
Mof_H 	H 	0.7272	0.6118	0.7811	0.074
Mof_H 	H 	0.6982	0.6984	0.8369	-0.001
Mof_H 	H 	0.6028	0.1476	0.5047	-0.009
Mof_H 	H 	0.6386	0.0408	0.4966	0.083
Mof_H 	H 	0.587	0.0384	0.6232	0.084
Mof_H 	H 	0.5577	0.1496	0.6279	-0.01
Mof_H 	H 	0.9326	0.7866	0.4681	-0.012
Mof_H 	H 	0.802	0.7876	0.5073	0.081
Mof_H 	H 	0.8368	0.9868	0.4758	0.08
Mof_H 	H 	0.9618	0.9762	0.436	-0.012
Mof_H 	H 	0.5044	0.8048	0.7066	-0.019
Mof_H 	H 	0.5684	0.8876	0.6611	0.086
Mof_H 	H 	0.6223	0.7216	0.5819	0.089
Mof_H 	H 	0.5622	0.6434	0.6302	-0.012
Mof_C 	C 	0.3063	0.56	0.191	0.07
Mof_C 	C 	0.3907	0.547	0.1918	-0.122
Mof_C 	C 	0.4738	0.597	0.2175	0.06
Mof_C 	C 	0.4705	0.6628	0.2419	-0.12
Mof_C 	C 	0.3844	0.6752	0.2391	0.067
Mof_C 	C 	0.5628	0.5804	0.2207	0.099
Mof_C 	C 	0.6497	0.5084	0.2014	0.095
Mof_C 	C 	0.7107	0.6136	0.2541	0.104
Mof_C 	C 	0.7606	0.3714	0.1492	0.075
Mof_C 	C 	0.7499	0.4302	0.1771	-0.125
Mof_C 	C 	0.6642	0.4424	0.1726	0.048
Mof_C 	C 	0.5965	0.394	0.1387	-0.12
Mof_C 	C 	0.6148	0.3374	0.1112	0.077
Mof_C 	C 	0.8575	0.7846	0.3434	0.068
Mof_C 	C 	0.7832	0.7332	0.3117	-0.11
Mof_C 	C 	0.79	0.6668	0.2891	0.052
Mof_C 	C 	0.8751	0.655	0.2973	-0.114
Mof_C 	C 	0.945	0.7082	0.3295	0.06
Mof_C 	C 	0.5274	0.1234	0.0286	0.088
Mof_C 	C 	0.4416	0.0612	0.0236	-0.134
Mof_C 	C 	0.4155	0.03	0.0589	0.061
Mof_C 	C 	0.4707	0.0604	0.0985	-0.122
Mof_C 	C 	0.5553	0.1244	0.1005	0.067
Mof_C 	C 	0.3194	0.9634	0.0568	0.091
Mof_C 	C 	0.1605	0.8984	0.0282	0.082
Mof_C 	C 	0.2255	0.8636	0.0835	0.104
Mof_C 	C 	0.9161	0.8264	0.9682	0.067
Mof_C 	C 	0.993	0.829	0.9938	-0.116
Mof_C 	C 	0.0786	0.89	0.9997	0.052
Mof_C 	C 	0.0896	0.9452	0.9751	-0.13
Mof_C 	C 	0.0089	0.936	0.9501	0.083
Mof_C 	C 	0.2602	0.7868	0.1799	0.078
Mof_C 	C 	0.2716	0.8366	0.1531	-0.126
Mof_C 	C 	0.2141	0.8126	0.1151	0.073
Mof_C 	C 	0.143	0.7396	0.1075	-0.123
Mof_C 	C 	0.1333	0.6924	0.1357	0.078
Mof_C 	C 	0.2537	0.56	0.691	0.07
Mof_C 	C 	0.1563	0.547	0.6918	-0.122
Mof_C 	C 	0.1232	0.597	0.7175	0.06
Mof_C 	C 	0.1923	0.6628	0.7419	-0.12
Mof_C 	C 	0.2908	0.6752	0.7391	0.067
Mof_C 	C 	0.0176	0.5804	0.7207	0.098
Mof_C 	C 	0.8587	0.5084	0.7014	0.095
Mof_C 	C 	0.9029	0.6136	0.7541	0.105
Mof_C 	C 	0.6108	0.3714	0.6492	0.075
Mof_C 	C 	0.6803	0.4302	0.6771	-0.125
Mof_C 	C 	0.7782	0.4424	0.6726	0.048
Mof_C 	C 	0.7975	0.394	0.6387	-0.12
Mof_C 	C 	0.7226	0.3374	0.6112	0.077
Mof_C 	C 	0.9271	0.7846	0.8434	0.067
Mof_C 	C 	0.95	0.7332	0.8117	-0.106
Mof_C 	C 	0.8768	0.6668	0.7891	0.05
Mof_C 	C 	0.7799	0.655	0.7973	-0.112
Mof_C 	C 	0.7632	0.7082	0.8295	0.058
Mof_C 	C 	0.596	0.1234	0.5286	0.087
Mof_C 	C 	0.6196	0.0612	0.5236	-0.133
Mof_C 	C 	0.6145	0.03	0.5589	0.06
Mof_C 	C 	0.5897	0.0604	0.5985	-0.121
Mof_C 	C 	0.5691	0.1244	0.6005	0.067
Mof_C 	C 	0.644	0.9634	0.5568	0.092
Mof_C 	C 	0.7379	0.8984	0.5282	0.08
Mof_C 	C 	0.6381	0.8636	0.5835	0.104
Mof_C 	C 	0.9103	0.8264	0.4682	0.07
Mof_C 	C 	0.836	0.829	0.4938	-0.123
Mof_C 	C 	0.8114	0.89	0.4997	0.058
Mof_C 	C 	0.8556	0.9452	0.4751	-0.133
Mof_C 	C 	0.9271	0.936	0.4501	0.088
Mof_C 	C 	0.5266	0.7868	0.6799	0.078
Mof_C 	C 	0.565	0.8366	0.6531	-0.126
Mof_C 	C 	0.5985	0.8126	0.6151	0.073
Mof_C 	C 	0.5966	0.7396	0.6075	-0.123
Mof_C 	C 	0.5591	0.6924	0.6357	0.078
Mof_I 	I 	0.19563	0.7389	0.29177	-0.396
Mof_I 	I 	0.0322	0.52574	0.19162	-0.382
Mof_I 	I 	0.74384	0.28934	0.99929	-0.369
Mof_I 	I 	0.84319	0.20832	0.10754	-0.385
Mof_I 	I 	0.84281	0.96924	0.86506	-0.352
Mof_I 	I 	0.65636	0.7889	0.93158	-0.382
Mof_I 	I 	0.54327	0.7389	0.79177	-0.396
Mof_I 	I 	0.49354	0.52574	0.69162	-0.382
Mof_I 	I 	0.5455	0.28934	0.49929	-0.369
Mof_I 	I 	0.36513	0.20832	0.60754	-0.384
Mof_I 	I 	0.12643	0.96924	0.36506	-0.355
Mof_I 	I 	0.13254	0.7889	0.43158	-0.383
Mof_N 	N 	0.3056	0.6256	0.2141	-0.268
Mof_N 	N 	0.5689	0.5186	0.1936	-0.14
Mof_N 	N 	0.7226	0.5528	0.2305	-0.144
Mof_N 	N 	0.6337	0.632	0.2504	-0.134
Mof_N 	N 	0.6962	0.326	0.1154	-0.275
Mof_N 	N 	0.9377	0.7732	0.3508	-0.264
Mof_N 	N 	0.5884	0.1528	0.0645	-0.272
Mof_N 	N 	0.2499	0.9538	0.0266	-0.144
Mof_N 	N 	0.1481	0.85	0.0555	-0.13
Mof_N 	N 	0.311	0.921	0.086	-0.135
Mof_N 	N 	0.9239	0.8768	0.9435	-0.276
Mof_N 	N 	0.1961	0.7144	0.1706	-0.277
Mof_N 	N 	0.32	0.6256	0.7141	-0.268
Mof_N 	N 	0.9497	0.5186	0.6936	-0.14
Mof_N 	N 	0.8302	0.5528	0.7305	-0.144
Mof_N 	N 	0.9983	0.632	0.7504	-0.134
Mof_N 	N 	0.6298	0.326	0.6154	-0.275
Mof_N 	N 	0.8355	0.7732	0.8508	-0.264
Mof_N 	N 	0.5644	0.1528	0.5645	-0.272
Mof_N 	N 	0.7039	0.9538	0.5266	-0.144
Mof_N 	N 	0.7019	0.85	0.5555	-0.129
Mof_N 	N 	0.61	0.921	0.586	-0.135
Mof_N 	N 	0.9529	0.8768	0.4435	-0.278
Mof_N 	N 	0.5183	0.7144	0.6706	-0.277
_end
