data_functionalizedCrystal
_audit_creation_method	'EQeq! by Chris Wilmer'
_symmetry_space_group_name_H-M	'P1'
_symmetry_Int_Tables_number	1
_symmetry_cell_setting	triclinic
loop_
_symmetry_equiv_pos_as_xyz
  x,y,z
_cell_length_a	16.085
_cell_length_b	16.0849
_cell_length_c	20.246
_cell_angle_alpha	90
_cell_angle_beta	90
_cell_angle_gamma	90
loop_
_atom_site_label
_atom_site_type_symbol
_atom_site_fract_x
_atom_site_fract_y
_atom_site_fract_z
_atom_site_charge
Mof_C 	C 	0.85819	0.43217	0.2932	0.106
Mof_H 	H 	0.8134	0.4625	0.2771	0.022
Mof_C 	C 	0.85443	0.34658	0.29016	-0.168
Mof_H 	H 	0.808	0.3206	0.2723	0.115
Mof_C 	C 	0.91986	0.29966	0.31375	0.121
Mof_C 	C 	0.9876	0.34279	0.34026	-0.172
Mof_H 	H 	0.0331	0.3139	0.357	0.097
Mof_C 	C 	0.98635	0.4283	0.34136	0.103
Mof_H 	H 	0.0319	0.456	0.3591	0.007
Mof_C 	C 	0.91885	0.20758	0.31166	-0.044
Mof_C 	C 	0.88352	0.16282	0.25758	0.05
Mof_C 	C 	0.88307	0.07368	0.25655	0.051
Mof_C 	C 	0.91744	0.02678	0.30989	-0.049
Mof_C 	C 	0.9512	0.07222	0.36039	-0.032
Mof_H 	H 	0.9744	0.044	0.396	0.044
Mof_C 	C 	0.9524	0.1604	0.36083	-0.035
Mof_H 	H 	0.9773	0.1873	0.3963	0.048
Mof_C 	C 	0.9836	0.89116	0.33763	-0.173
Mof_H 	H 	0.029	0.9194	0.3553	0.1
Mof_C 	C 	0.91687	0.93519	0.31079	0.124
Mof_C 	C 	0.8515	0.88875	0.2863	-0.174
Mof_H 	H 	0.8053	0.9152	0.2684	0.106
Mof_C 	C 	0.8549	0.80301	0.2885	0.106
Mof_H 	H 	0.8103	0.773	0.2715	0.01
Mof_C 	C 	0.9817	0.80551	0.33775	0.108
Mof_H 	H 	0.0268	0.7772	0.3556	0.01
Mof_C 	C 	0.13055	0.61707	0.32297	0.317
Mof_C 	C 	0.18001	0.61684	0.38638	-0.058
Mof_C 	C 	0.2658	0.6217	0.38363	-0.023
Mof_H 	H 	0.2924	0.6244	0.3429	0.054
Mof_C 	C 	0.3119	0.6228	0.44123	-0.022
Mof_H 	H 	0.3695	0.6266	0.4388	0.051
Mof_C 	C 	0.27403	0.61817	0.50213	-0.055
Mof_C 	C 	0.1887	0.6107	0.50485	-0.022
Mof_H 	H 	0.1624	0.6058	0.5455	0.06
Mof_C 	C 	0.1416	0.6106	0.44692	-0.025
Mof_H 	H 	0.084	0.6062	0.4493	0.062
Mof_C 	C 	0.3256	0.61949	0.5642	0.309
Mof_Cd	Cd	0.91292	0.61653	0.32093	0.464
Mof_N 	N 	0.85073	0.0417	0.20052	-0.122
Mof_N 	N 	0.85113	0.19663	0.20218	-0.122
Mof_N 	N 	0.92302	0.47368	0.31816	-0.156
Mof_N 	N 	0.91891	0.76123	0.3138	-0.156
Mof_O 	O 	0.05371	0.6185	0.32641	-0.298
Mof_O 	O 	0.17034	0.61605	0.26977	-0.288
Mof_O 	O 	0.4022	0.6259	0.56024	-0.273
Mof_O 	O 	0.29024	0.6141	0.61789	-0.274
Mof_S 	S 	0.82434	0.12013	0.1555	0.084
Mof_C 	C 	0.14181	0.43217	0.2068	0.107
Mof_H 	H 	0.1866	0.4625	0.2229	0.023
Mof_C 	C 	0.14557	0.34658	0.20984	-0.167
Mof_H 	H 	0.192	0.3206	0.2277	0.116
Mof_C 	C 	0.08014	0.29966	0.18625	0.122
Mof_C 	C 	0.0124	0.34279	0.15974	-0.17
Mof_H 	H 	0.9669	0.3139	0.143	0.097
Mof_C 	C 	0.01365	0.4283	0.15864	0.105
Mof_H 	H 	0.9681	0.456	0.1409	0.007
Mof_C 	C 	0.08115	0.20758	0.18834	-0.043
Mof_C 	C 	0.11648	0.16282	0.24242	0.051
Mof_C 	C 	0.11693	0.07368	0.24345	0.052
Mof_C 	C 	0.08256	0.02678	0.19011	-0.047
Mof_C 	C 	0.0488	0.07222	0.13961	-0.031
Mof_H 	H 	0.0256	0.044	0.104	0.045
Mof_C 	C 	0.0476	0.1604	0.13917	-0.035
Mof_H 	H 	0.0227	0.1873	0.1037	0.048
Mof_C 	C 	0.0164	0.89116	0.16237	-0.172
Mof_H 	H 	0.971	0.9194	0.1447	0.099
Mof_C 	C 	0.08313	0.93519	0.18921	0.123
Mof_C 	C 	0.1485	0.88875	0.2137	-0.174
Mof_H 	H 	0.1947	0.9152	0.2316	0.106
Mof_C 	C 	0.1451	0.80301	0.2115	0.105
Mof_H 	H 	0.1897	0.773	0.2285	0.01
Mof_C 	C 	0.0183	0.80551	0.16225	0.108
Mof_H 	H 	0.9732	0.7772	0.1444	0.01
Mof_C 	C 	0.86945	0.61707	0.17703	0.317
Mof_C 	C 	0.81999	0.61684	0.11362	-0.058
Mof_C 	C 	0.7342	0.6217	0.11637	-0.023
Mof_H 	H 	0.7076	0.6244	0.1571	0.054
Mof_C 	C 	0.6881	0.6228	0.05877	-0.022
Mof_H 	H 	0.6305	0.6266	0.0612	0.051
Mof_C 	C 	0.72597	0.61817	0.99787	-0.055
Mof_C 	C 	0.8113	0.6107	0.99515	-0.021
Mof_H 	H 	0.8376	0.6058	0.9545	0.06
Mof_C 	C 	0.8584	0.6106	0.05308	-0.026
Mof_H 	H 	0.916	0.6062	0.0507	0.062
Mof_C 	C 	0.6744	0.61949	0.9358	0.309
Mof_Cd	Cd	0.08708	0.61653	0.17907	0.464
Mof_N 	N 	0.14927	0.0417	0.29948	-0.122
Mof_N 	N 	0.14887	0.19663	0.29782	-0.122
Mof_N 	N 	0.07698	0.47368	0.18184	-0.156
Mof_N 	N 	0.08109	0.76123	0.1862	-0.156
Mof_O 	O 	0.94629	0.6185	0.17359	-0.298
Mof_O 	O 	0.82966	0.61605	0.23023	-0.288
Mof_O 	O 	0.5978	0.6259	0.93976	-0.273
Mof_O 	O 	0.70976	0.6141	0.88211	-0.274
Mof_S 	S 	0.17566	0.12013	0.3445	0.084
Mof_C 	C 	0.35819	0.43217	0.7068	0.107
Mof_H 	H 	0.3134	0.4625	0.7229	0.023
Mof_C 	C 	0.35443	0.34658	0.70984	-0.167
Mof_H 	H 	0.308	0.3206	0.7277	0.116
Mof_C 	C 	0.41986	0.29966	0.68625	0.122
Mof_C 	C 	0.4876	0.34279	0.65974	-0.171
Mof_H 	H 	0.5331	0.3139	0.643	0.098
Mof_C 	C 	0.48635	0.4283	0.65864	0.105
Mof_H 	H 	0.5319	0.456	0.6409	0.008
Mof_C 	C 	0.41885	0.20758	0.68834	-0.043
Mof_C 	C 	0.38352	0.16282	0.74242	0.051
Mof_C 	C 	0.38307	0.07368	0.74345	0.052
Mof_C 	C 	0.41744	0.02678	0.69011	-0.048
Mof_C 	C 	0.4512	0.07222	0.63961	-0.031
Mof_H 	H 	0.4744	0.044	0.604	0.044
Mof_C 	C 	0.4524	0.1604	0.63917	-0.035
Mof_H 	H 	0.4773	0.1873	0.6037	0.048
Mof_C 	C 	0.4836	0.89116	0.66237	-0.173
Mof_H 	H 	0.529	0.9194	0.6447	0.099
Mof_C 	C 	0.41687	0.93519	0.68921	0.124
Mof_C 	C 	0.3515	0.88875	0.7137	-0.174
Mof_H 	H 	0.3053	0.9152	0.7316	0.106
Mof_C 	C 	0.3549	0.80301	0.7115	0.106
Mof_H 	H 	0.3103	0.773	0.7285	0.01
Mof_C 	C 	0.4817	0.80551	0.66225	0.108
Mof_H 	H 	0.5268	0.7772	0.6444	0.01
Mof_C 	C 	0.63055	0.61707	0.67703	0.317
Mof_C 	C 	0.68001	0.61684	0.61362	-0.058
Mof_C 	C 	0.7658	0.6217	0.61637	-0.023
Mof_H 	H 	0.7924	0.6244	0.6571	0.054
Mof_C 	C 	0.8119	0.6228	0.55877	-0.022
Mof_H 	H 	0.8695	0.6266	0.5612	0.051
Mof_C 	C 	0.77403	0.61817	0.49787	-0.055
Mof_C 	C 	0.6887	0.6107	0.49515	-0.022
Mof_H 	H 	0.6624	0.6058	0.4545	0.06
Mof_C 	C 	0.6416	0.6106	0.55308	-0.025
Mof_H 	H 	0.584	0.6062	0.5507	0.062
Mof_C 	C 	0.8256	0.61949	0.4358	0.309
Mof_Cd	Cd	0.41292	0.61653	0.67907	0.464
Mof_N 	N 	0.35073	0.0417	0.79948	-0.122
Mof_N 	N 	0.35113	0.19663	0.79782	-0.122
Mof_N 	N 	0.42302	0.47368	0.68184	-0.156
Mof_N 	N 	0.41891	0.76123	0.6862	-0.156
Mof_O 	O 	0.55371	0.6185	0.67359	-0.298
Mof_O 	O 	0.67034	0.61605	0.73023	-0.288
Mof_O 	O 	0.9022	0.6259	0.43976	-0.273
Mof_O 	O 	0.79024	0.6141	0.38211	-0.274
Mof_S 	S 	0.32434	0.12013	0.8445	0.084
Mof_C 	C 	0.64181	0.43217	0.7932	0.107
Mof_H 	H 	0.6866	0.4625	0.7771	0.023
Mof_C 	C 	0.64557	0.34658	0.79016	-0.167
Mof_H 	H 	0.692	0.3206	0.7723	0.116
Mof_C 	C 	0.58014	0.29966	0.81375	0.122
Mof_C 	C 	0.5124	0.34279	0.84026	-0.171
Mof_H 	H 	0.4669	0.3139	0.857	0.098
Mof_C 	C 	0.51365	0.4283	0.84136	0.105
Mof_H 	H 	0.4681	0.456	0.8591	0.008
Mof_C 	C 	0.58115	0.20758	0.81166	-0.043
Mof_C 	C 	0.61648	0.16282	0.75758	0.051
Mof_C 	C 	0.61693	0.07368	0.75655	0.052
Mof_C 	C 	0.58256	0.02678	0.80989	-0.048
Mof_C 	C 	0.5488	0.07222	0.86039	-0.031
Mof_H 	H 	0.5256	0.044	0.896	0.044
Mof_C 	C 	0.5476	0.1604	0.86083	-0.035
Mof_H 	H 	0.5227	0.1873	0.8963	0.048
Mof_C 	C 	0.5164	0.89116	0.83763	-0.173
Mof_H 	H 	0.471	0.9194	0.8553	0.099
Mof_C 	C 	0.58313	0.93519	0.81079	0.124
Mof_C 	C 	0.6485	0.88875	0.7863	-0.174
Mof_H 	H 	0.6947	0.9152	0.7684	0.106
Mof_C 	C 	0.6451	0.80301	0.7885	0.106
Mof_H 	H 	0.6897	0.773	0.7715	0.01
Mof_C 	C 	0.5183	0.80551	0.83775	0.108
Mof_H 	H 	0.4732	0.7772	0.8556	0.01
Mof_C 	C 	0.36945	0.61707	0.82297	0.317
Mof_C 	C 	0.31999	0.61684	0.88638	-0.058
Mof_C 	C 	0.2342	0.6217	0.88363	-0.022
Mof_H 	H 	0.2076	0.6244	0.8429	0.053
Mof_C 	C 	0.1881	0.6228	0.94123	-0.023
Mof_H 	H 	0.1305	0.6266	0.9388	0.051
Mof_C 	C 	0.22597	0.61817	0.00213	-0.055
Mof_C 	C 	0.3113	0.6107	0.00485	-0.022
Mof_H 	H 	0.3376	0.6058	0.0455	0.06
Mof_C 	C 	0.3584	0.6106	0.94692	-0.025
Mof_H 	H 	0.416	0.6062	0.9493	0.062
Mof_C 	C 	0.1744	0.61949	0.0642	0.309
Mof_Cd	Cd	0.58708	0.61653	0.82093	0.464
Mof_N 	N 	0.64927	0.0417	0.70052	-0.122
Mof_N 	N 	0.64887	0.19663	0.70218	-0.122
Mof_N 	N 	0.57698	0.47368	0.81816	-0.156
Mof_N 	N 	0.58109	0.76123	0.8138	-0.156
Mof_O 	O 	0.44629	0.6185	0.82641	-0.298
Mof_O 	O 	0.32966	0.61605	0.76977	-0.288
Mof_O 	O 	0.0978	0.6259	0.06024	-0.273
Mof_O 	O 	0.20976	0.6141	0.11789	-0.274
Mof_S 	S 	0.67566	0.12013	0.6555	0.084
Mof_C 	C 	0.64181	0.56783	0.2932	0.107
Mof_H 	H 	0.6866	0.5375	0.2771	0.023
Mof_C 	C 	0.64557	0.65342	0.29016	-0.167
Mof_H 	H 	0.692	0.6794	0.2723	0.116
Mof_C 	C 	0.58014	0.70034	0.31375	0.122
Mof_C 	C 	0.5124	0.65721	0.34026	-0.171
Mof_H 	H 	0.4669	0.6861	0.357	0.098
Mof_C 	C 	0.51365	0.5717	0.34136	0.105
Mof_H 	H 	0.4681	0.544	0.3591	0.008
Mof_C 	C 	0.58115	0.79242	0.31166	-0.043
Mof_C 	C 	0.61648	0.83718	0.25758	0.051
Mof_C 	C 	0.61693	0.92632	0.25655	0.052
Mof_C 	C 	0.58256	0.97322	0.30989	-0.048
Mof_C 	C 	0.5488	0.92778	0.36039	-0.031
Mof_H 	H 	0.5256	0.956	0.396	0.044
Mof_C 	C 	0.5476	0.8396	0.36083	-0.035
Mof_H 	H 	0.5227	0.8127	0.3963	0.048
Mof_C 	C 	0.5164	0.10884	0.33763	-0.173
Mof_H 	H 	0.471	0.0806	0.3553	0.099
Mof_C 	C 	0.58313	0.06481	0.31079	0.124
Mof_C 	C 	0.6485	0.11125	0.2863	-0.174
Mof_H 	H 	0.6947	0.0848	0.2684	0.106
Mof_C 	C 	0.6451	0.19699	0.2885	0.106
Mof_H 	H 	0.6897	0.227	0.2715	0.01
Mof_C 	C 	0.5183	0.19449	0.33775	0.108
Mof_H 	H 	0.4732	0.2228	0.3556	0.01
Mof_C 	C 	0.36945	0.38293	0.32297	0.317
Mof_C 	C 	0.31999	0.38316	0.38638	-0.058
Mof_C 	C 	0.2342	0.3783	0.38363	-0.023
Mof_H 	H 	0.2076	0.3756	0.3429	0.054
Mof_C 	C 	0.1881	0.3772	0.44123	-0.022
Mof_H 	H 	0.1305	0.3734	0.4388	0.051
Mof_C 	C 	0.22597	0.38183	0.50213	-0.055
Mof_C 	C 	0.3113	0.3893	0.50485	-0.022
Mof_H 	H 	0.3376	0.3942	0.5455	0.06
Mof_C 	C 	0.3584	0.3894	0.44692	-0.025
Mof_H 	H 	0.416	0.3938	0.4493	0.062
Mof_C 	C 	0.1744	0.38051	0.5642	0.309
Mof_Cd	Cd	0.58708	0.38347	0.32093	0.464
Mof_N 	N 	0.64927	0.9583	0.20052	-0.122
Mof_N 	N 	0.64887	0.80337	0.20218	-0.122
Mof_N 	N 	0.57698	0.52632	0.31816	-0.156
Mof_N 	N 	0.58109	0.23877	0.3138	-0.156
Mof_O 	O 	0.44629	0.3815	0.32641	-0.298
Mof_O 	O 	0.32966	0.38395	0.26977	-0.288
Mof_O 	O 	0.0978	0.3741	0.56024	-0.273
Mof_O 	O 	0.20976	0.3859	0.61789	-0.274
Mof_S 	S 	0.67566	0.87987	0.1555	0.084
Mof_C 	C 	0.35819	0.56783	0.2068	0.107
Mof_H 	H 	0.3134	0.5375	0.2229	0.023
Mof_C 	C 	0.35443	0.65342	0.20984	-0.167
Mof_H 	H 	0.308	0.6794	0.2277	0.116
Mof_C 	C 	0.41986	0.70034	0.18625	0.122
Mof_C 	C 	0.4876	0.65721	0.15974	-0.171
Mof_H 	H 	0.5331	0.6861	0.143	0.098
Mof_C 	C 	0.48635	0.5717	0.15864	0.105
Mof_H 	H 	0.5319	0.544	0.1409	0.008
Mof_C 	C 	0.41885	0.79242	0.18834	-0.043
Mof_C 	C 	0.38352	0.83718	0.24242	0.051
Mof_C 	C 	0.38307	0.92632	0.24345	0.052
Mof_C 	C 	0.41744	0.97322	0.19011	-0.048
Mof_C 	C 	0.4512	0.92778	0.13961	-0.031
Mof_H 	H 	0.4744	0.956	0.104	0.044
Mof_C 	C 	0.4524	0.8396	0.13917	-0.035
Mof_H 	H 	0.4773	0.8127	0.1037	0.048
Mof_C 	C 	0.4836	0.10884	0.16237	-0.173
Mof_H 	H 	0.529	0.0806	0.1447	0.099
Mof_C 	C 	0.41687	0.06481	0.18921	0.124
Mof_C 	C 	0.3515	0.11125	0.2137	-0.174
Mof_H 	H 	0.3053	0.0848	0.2316	0.106
Mof_C 	C 	0.3549	0.19699	0.2115	0.106
Mof_H 	H 	0.3103	0.227	0.2285	0.01
Mof_C 	C 	0.4817	0.19449	0.16225	0.108
Mof_H 	H 	0.5268	0.2228	0.1444	0.01
Mof_C 	C 	0.63055	0.38293	0.17703	0.317
Mof_C 	C 	0.68001	0.38316	0.11362	-0.058
Mof_C 	C 	0.7658	0.3783	0.11637	-0.022
Mof_H 	H 	0.7924	0.3756	0.1571	0.053
Mof_C 	C 	0.8119	0.3772	0.05877	-0.023
Mof_H 	H 	0.8695	0.3734	0.0612	0.051
Mof_C 	C 	0.77403	0.38183	0.99787	-0.055
Mof_C 	C 	0.6887	0.3893	0.99515	-0.022
Mof_H 	H 	0.6624	0.3942	0.9545	0.06
Mof_C 	C 	0.6416	0.3894	0.05308	-0.025
Mof_H 	H 	0.584	0.3938	0.0507	0.062
Mof_C 	C 	0.8256	0.38051	0.9358	0.309
Mof_Cd	Cd	0.41292	0.38347	0.17907	0.464
Mof_N 	N 	0.35073	0.9583	0.29948	-0.122
Mof_N 	N 	0.35113	0.80337	0.29782	-0.122
Mof_N 	N 	0.42302	0.52632	0.18184	-0.156
Mof_N 	N 	0.41891	0.23877	0.1862	-0.156
Mof_O 	O 	0.55371	0.3815	0.17359	-0.298
Mof_O 	O 	0.67034	0.38395	0.23023	-0.288
Mof_O 	O 	0.9022	0.3741	0.93976	-0.273
Mof_O 	O 	0.79024	0.3859	0.88211	-0.274
Mof_S 	S 	0.32434	0.87987	0.3445	0.084
Mof_C 	C 	0.14181	0.56783	0.7068	0.107
Mof_H 	H 	0.1866	0.5375	0.7229	0.023
Mof_C 	C 	0.14557	0.65342	0.70984	-0.167
Mof_H 	H 	0.192	0.6794	0.7277	0.116
Mof_C 	C 	0.08014	0.70034	0.68625	0.122
Mof_C 	C 	0.0124	0.65721	0.65974	-0.171
Mof_H 	H 	0.9669	0.6861	0.643	0.098
Mof_C 	C 	0.01365	0.5717	0.65864	0.104
Mof_H 	H 	0.9681	0.544	0.6409	0.008
Mof_C 	C 	0.08115	0.79242	0.68834	-0.043
Mof_C 	C 	0.11648	0.83718	0.74242	0.051
Mof_C 	C 	0.11693	0.92632	0.74345	0.052
Mof_C 	C 	0.08256	0.97322	0.69011	-0.048
Mof_C 	C 	0.0488	0.92778	0.63961	-0.031
Mof_H 	H 	0.0256	0.956	0.604	0.044
Mof_C 	C 	0.0476	0.8396	0.63917	-0.035
Mof_H 	H 	0.0227	0.8127	0.6037	0.048
Mof_C 	C 	0.0164	0.10884	0.66237	-0.173
Mof_H 	H 	0.971	0.0806	0.6447	0.1
Mof_C 	C 	0.08313	0.06481	0.68921	0.124
Mof_C 	C 	0.1485	0.11125	0.7137	-0.174
Mof_H 	H 	0.1947	0.0848	0.7316	0.106
Mof_C 	C 	0.1451	0.19699	0.7115	0.106
Mof_H 	H 	0.1897	0.227	0.7285	0.01
Mof_C 	C 	0.0183	0.19449	0.66225	0.108
Mof_H 	H 	0.9732	0.2228	0.6444	0.01
Mof_C 	C 	0.86945	0.38293	0.67703	0.317
Mof_C 	C 	0.81999	0.38316	0.61362	-0.058
Mof_C 	C 	0.7342	0.3783	0.61637	-0.023
Mof_H 	H 	0.7076	0.3756	0.6571	0.054
Mof_C 	C 	0.6881	0.3772	0.55877	-0.022
Mof_H 	H 	0.6305	0.3734	0.5612	0.051
Mof_C 	C 	0.72597	0.38183	0.49787	-0.055
Mof_C 	C 	0.8113	0.3893	0.49515	-0.022
Mof_H 	H 	0.8376	0.3942	0.4545	0.06
Mof_C 	C 	0.8584	0.3894	0.55308	-0.025
Mof_H 	H 	0.916	0.3938	0.5507	0.062
Mof_C 	C 	0.6744	0.38051	0.4358	0.309
Mof_Cd	Cd	0.08708	0.38347	0.67907	0.464
Mof_N 	N 	0.14927	0.9583	0.79948	-0.122
Mof_N 	N 	0.14887	0.80337	0.79782	-0.122
Mof_N 	N 	0.07698	0.52632	0.68184	-0.156
Mof_N 	N 	0.08109	0.23877	0.6862	-0.156
Mof_O 	O 	0.94629	0.3815	0.67359	-0.298
Mof_O 	O 	0.82966	0.38395	0.73023	-0.288
Mof_O 	O 	0.5978	0.3741	0.43976	-0.273
Mof_O 	O 	0.70976	0.3859	0.38211	-0.274
Mof_S 	S 	0.17566	0.87987	0.8445	0.084
Mof_C 	C 	0.85819	0.56783	0.7932	0.107
Mof_H 	H 	0.8134	0.5375	0.7771	0.023
Mof_C 	C 	0.85443	0.65342	0.79016	-0.167
Mof_H 	H 	0.808	0.6794	0.7723	0.116
Mof_C 	C 	0.91986	0.70034	0.81375	0.122
Mof_C 	C 	0.9876	0.65721	0.84026	-0.17
Mof_H 	H 	0.0331	0.6861	0.857	0.097
Mof_C 	C 	0.98635	0.5717	0.84136	0.105
Mof_H 	H 	0.0319	0.544	0.8591	0.007
Mof_C 	C 	0.91885	0.79242	0.81166	-0.043
Mof_C 	C 	0.88352	0.83718	0.75758	0.051
Mof_C 	C 	0.88307	0.92632	0.75655	0.052
Mof_C 	C 	0.91744	0.97322	0.80989	-0.047
Mof_C 	C 	0.9512	0.92778	0.86039	-0.031
Mof_H 	H 	0.9744	0.956	0.896	0.045
Mof_C 	C 	0.9524	0.8396	0.86083	-0.035
Mof_H 	H 	0.9773	0.8127	0.8963	0.048
Mof_C 	C 	0.9836	0.10884	0.83763	-0.172
Mof_H 	H 	0.029	0.0806	0.8553	0.099
Mof_C 	C 	0.91687	0.06481	0.81079	0.123
Mof_C 	C 	0.8515	0.11125	0.7863	-0.174
Mof_H 	H 	0.8053	0.0848	0.7684	0.106
Mof_C 	C 	0.8549	0.19699	0.7885	0.105
Mof_H 	H 	0.8103	0.227	0.7715	0.01
Mof_C 	C 	0.9817	0.19449	0.83775	0.108
Mof_H 	H 	0.0268	0.2228	0.8556	0.01
Mof_C 	C 	0.13055	0.38293	0.82297	0.317
Mof_C 	C 	0.18001	0.38316	0.88638	-0.058
Mof_C 	C 	0.2658	0.3783	0.88363	-0.023
Mof_H 	H 	0.2924	0.3756	0.8429	0.054
Mof_C 	C 	0.3119	0.3772	0.94123	-0.022
Mof_H 	H 	0.3695	0.3734	0.9388	0.051
Mof_C 	C 	0.27403	0.38183	0.00213	-0.055
Mof_C 	C 	0.1887	0.3893	0.00485	-0.021
Mof_H 	H 	0.1624	0.3942	0.0455	0.06
Mof_C 	C 	0.1416	0.3894	0.94692	-0.026
Mof_H 	H 	0.084	0.3938	0.9493	0.062
Mof_C 	C 	0.3256	0.38051	0.0642	0.309
Mof_Cd	Cd	0.91292	0.38347	0.82093	0.464
Mof_N 	N 	0.85073	0.9583	0.70052	-0.122
Mof_N 	N 	0.85113	0.80337	0.70218	-0.122
Mof_N 	N 	0.92302	0.52632	0.81816	-0.156
Mof_N 	N 	0.91891	0.23877	0.8138	-0.156
Mof_O 	O 	0.05371	0.3815	0.82641	-0.298
Mof_O 	O 	0.17034	0.38395	0.76977	-0.288
Mof_O 	O 	0.4022	0.3741	0.06024	-0.273
Mof_O 	O 	0.29024	0.3859	0.11789	-0.274
Mof_S 	S 	0.82434	0.87987	0.6555	0.084
_end
