data_functionalizedCrystal
_audit_creation_method	'EQeq! by Chris Wilmer'
_symmetry_space_group_name_H-M	'P1'
_symmetry_Int_Tables_number	1
_symmetry_cell_setting	triclinic
loop_
_symmetry_equiv_pos_as_xyz
  x,y,z
_cell_length_a	17.8729
_cell_length_b	8.7298
_cell_length_c	22.7524
_cell_angle_alpha	90
_cell_angle_beta	96.072
_cell_angle_gamma	90
loop_
_atom_site_label
_atom_site_type_symbol
_atom_site_fract_x
_atom_site_fract_y
_atom_site_fract_z
_atom_site_charge
Mof_Cu	Cu	0.56745	0.03755	0.7552	0.845
Mof_N 	N 	0.633	0.965	0.6888	-0.236
Mof_N 	N 	0.7501	0.7555	0.51665	-0.195
Mof_H 	H 	0.7029	0.7736	0.5078	0.115
Mof_N 	N 	0.6493	0.5149	0.32595	-0.234
Mof_N 	N 	0.9257	0.8553	0.6858	-0.119
Mof_N 	N 	0.9364	0.4985	0.4166	-0.125
Mof_N 	N 	0.4984	0.355	0.7423	-0.194
Mof_C 	C 	0.689	0.0535	0.6737	0.078
Mof_H 	H 	0.6934	0.1519	0.6894	-0.021
Mof_C 	C 	0.7408	0.0068	0.636	-0.15
Mof_H 	H 	0.7793	0.0717	0.6271	0.087
Mof_C 	C 	0.7338	0.8625	0.6121	0.074
Mof_C 	C 	0.6754	0.7696	0.6266	-0.152
Mof_H 	H 	0.6689	0.6721	0.6105	0.077
Mof_C 	C 	0.6271	0.8246	0.6655	0.081
Mof_H 	H 	0.5889	0.7609	0.6758	-0.026
Mof_C 	C 	0.7855	0.8037	0.57	0.043
Mof_C 	C 	0.8602	0.793	0.5826	-0.039
Mof_C 	C 	0.913	0.7397	0.5376	-0.048
Mof_H 	H 	0.9481	0.6639	0.5566	0.061
Mof_C 	C 	0.865	0.6628	0.4867	-0.039
Mof_C 	C 	0.7897	0.6786	0.4773	0.044
Mof_C 	C 	0.7091	0.6014	0.3206	0.079
Mof_H 	H 	0.7196	0.6278	0.2827	-0.006
Mof_C 	C 	0.7572	0.655	0.368	-0.142
Mof_H 	H 	0.7986	0.7152	0.3619	0.086
Mof_C 	C 	0.742	0.6168	0.4249	0.063
Mof_C 	C 	0.6798	0.5253	0.4314	-0.139
Mof_H 	H 	0.6678	0.4985	0.4689	0.073
Mof_C 	C 	0.636	0.4746	0.3815	0.065
Mof_H 	H 	0.5956	0.4101	0.3861	-0.023
Mof_C 	C 	0.8954	0.8292	0.6402	0.087
Mof_C 	C 	0.9031	0.5705	0.4473	0.083
Mof_C 	C 	0.9581	0.8746	0.5171	0.046
Mof_C 	C 	0.9245	0.9831	0.4788	-0.059
Mof_H 	H 	0.8741	0.973	0.4644	0.058
Mof_C 	C 	0.9662	0.1086	0.4615	-0.065
Mof_H 	H 	0.9432	0.1811	0.4356	0.064
Mof_C 	C 	0.5276	0.2369	0.7478	-0.203
Mof_Cu	Cu	0.43255	0.53755	0.7448	0.847
Mof_N 	N 	0.367	0.465	0.8112	-0.236
Mof_N 	N 	0.2499	0.2555	0.98335	-0.195
Mof_H 	H 	0.2971	0.2736	0.9922	0.116
Mof_N 	N 	0.3507	0.0149	0.17405	-0.23
Mof_N 	N 	0.0743	0.3553	0.8142	-0.118
Mof_N 	N 	0.0636	0.9985	0.0834	-0.126
Mof_N 	N 	0.5016	0.855	0.7577	-0.193
Mof_C 	C 	0.311	0.5535	0.8263	0.079
Mof_H 	H 	0.3066	0.6519	0.8106	-0.02
Mof_C 	C 	0.2592	0.5068	0.864	-0.148
Mof_H 	H 	0.2207	0.5717	0.8729	0.086
Mof_C 	C 	0.2662	0.3625	0.8879	0.071
Mof_C 	C 	0.3246	0.2696	0.8734	-0.151
Mof_H 	H 	0.3311	0.1721	0.8895	0.077
Mof_C 	C 	0.3729	0.3246	0.8345	0.08
Mof_H 	H 	0.4111	0.2609	0.8242	-0.026
Mof_C 	C 	0.2145	0.3037	0.93	0.043
Mof_C 	C 	0.1398	0.293	0.9174	-0.039
Mof_C 	C 	0.087	0.2397	0.9624	-0.048
Mof_H 	H 	0.0519	0.1639	0.9434	0.061
Mof_C 	C 	0.135	0.1628	0.0133	-0.041
Mof_C 	C 	0.2103	0.1786	0.0227	0.046
Mof_C 	C 	0.2909	0.1014	0.1794	0.077
Mof_H 	H 	0.2804	0.1278	0.2173	-0.005
Mof_C 	C 	0.2428	0.155	0.132	-0.139
Mof_H 	H 	0.2014	0.2152	0.1381	0.085
Mof_C 	C 	0.258	0.1168	0.0751	0.059
Mof_C 	C 	0.3202	0.0253	0.0686	-0.129
Mof_H 	H 	0.3322	0.9985	0.0311	0.069
Mof_C 	C 	0.364	0.9746	0.1185	0.056
Mof_H 	H 	0.4044	0.9101	0.1139	-0.021
Mof_C 	C 	0.1046	0.3292	0.8598	0.087
Mof_C 	C 	0.0969	0.0705	0.0527	0.086
Mof_C 	C 	0.0419	0.3746	0.9829	0.045
Mof_C 	C 	0.0755	0.4831	0.0212	-0.058
Mof_H 	H 	0.1259	0.473	0.0356	0.058
Mof_C 	C 	0.0338	0.6086	0.0385	-0.064
Mof_H 	H 	0.0568	0.6811	0.0644	0.064
Mof_C 	C 	0.4724	0.7369	0.7522	-0.203
Mof_Cu	Cu	0.43255	0.96245	0.2448	0.846
Mof_N 	N 	0.367	0.035	0.3112	-0.235
Mof_N 	N 	0.2499	0.2445	0.48335	-0.194
Mof_H 	H 	0.2971	0.2264	0.4922	0.116
Mof_N 	N 	0.3507	0.4851	0.67405	-0.233
Mof_N 	N 	0.0743	0.1447	0.3142	-0.118
Mof_N 	N 	0.0636	0.5015	0.5834	-0.124
Mof_N 	N 	0.5016	0.645	0.2577	-0.193
Mof_C 	C 	0.311	0.9465	0.3263	0.078
Mof_H 	H 	0.3066	0.8481	0.3106	-0.021
Mof_C 	C 	0.2592	0.9932	0.364	-0.15
Mof_H 	H 	0.2207	0.9283	0.3729	0.087
Mof_C 	C 	0.2662	0.1375	0.3879	0.074
Mof_C 	C 	0.3246	0.2304	0.3734	-0.152
Mof_H 	H 	0.3311	0.3279	0.3895	0.077
Mof_C 	C 	0.3729	0.1754	0.3345	0.081
Mof_H 	H 	0.4111	0.2391	0.3242	-0.026
Mof_C 	C 	0.2145	0.1963	0.43	0.043
Mof_C 	C 	0.1398	0.207	0.4174	-0.039
Mof_C 	C 	0.087	0.2603	0.4624	-0.048
Mof_H 	H 	0.0519	0.3361	0.4434	0.061
Mof_C 	C 	0.135	0.3372	0.5133	-0.039
Mof_C 	C 	0.2103	0.3214	0.5227	0.044
Mof_C 	C 	0.2909	0.3986	0.6794	0.079
Mof_H 	H 	0.2804	0.3722	0.7173	-0.006
Mof_C 	C 	0.2428	0.345	0.632	-0.142
Mof_H 	H 	0.2014	0.2848	0.6381	0.086
Mof_C 	C 	0.258	0.3832	0.5751	0.063
Mof_C 	C 	0.3202	0.4747	0.5686	-0.139
Mof_H 	H 	0.3322	0.5015	0.5311	0.073
Mof_C 	C 	0.364	0.5254	0.6185	0.065
Mof_H 	H 	0.4044	0.5899	0.6139	-0.023
Mof_C 	C 	0.1046	0.1708	0.3598	0.087
Mof_C 	C 	0.0969	0.4295	0.5527	0.083
Mof_C 	C 	0.0419	0.1254	0.4829	0.046
Mof_C 	C 	0.0755	0.0169	0.5212	-0.059
Mof_H 	H 	0.1259	0.027	0.5356	0.058
Mof_C 	C 	0.0338	0.8914	0.5385	-0.065
Mof_H 	H 	0.0568	0.8189	0.5644	0.064
Mof_C 	C 	0.4724	0.7631	0.2522	-0.203
Mof_Cu	Cu	0.56745	0.46245	0.2552	0.847
Mof_N 	N 	0.633	0.535	0.1888	-0.236
Mof_N 	N 	0.7501	0.7445	0.01665	-0.195
Mof_H 	H 	0.7029	0.7264	0.0078	0.116
Mof_N 	N 	0.6493	0.9851	0.82595	-0.23
Mof_N 	N 	0.9257	0.6447	0.1858	-0.118
Mof_N 	N 	0.9364	0.0015	0.9166	-0.126
Mof_N 	N 	0.4984	0.145	0.2423	-0.193
Mof_C 	C 	0.689	0.4465	0.1737	0.079
Mof_H 	H 	0.6934	0.3481	0.1894	-0.02
Mof_C 	C 	0.7408	0.4932	0.136	-0.148
Mof_H 	H 	0.7793	0.4283	0.1271	0.086
Mof_C 	C 	0.7338	0.6375	0.1121	0.071
Mof_C 	C 	0.6754	0.7304	0.1266	-0.151
Mof_H 	H 	0.6689	0.8279	0.1105	0.077
Mof_C 	C 	0.6271	0.6754	0.1655	0.08
Mof_H 	H 	0.5889	0.7391	0.1758	-0.026
Mof_C 	C 	0.7855	0.6963	0.07	0.043
Mof_C 	C 	0.8602	0.707	0.0826	-0.039
Mof_C 	C 	0.913	0.7603	0.0376	-0.048
Mof_H 	H 	0.9481	0.8361	0.0566	0.061
Mof_C 	C 	0.865	0.8372	0.9867	-0.041
Mof_C 	C 	0.7897	0.8214	0.9773	0.046
Mof_C 	C 	0.7091	0.8986	0.8206	0.077
Mof_H 	H 	0.7196	0.8722	0.7827	-0.005
Mof_C 	C 	0.7572	0.845	0.868	-0.139
Mof_H 	H 	0.7986	0.7848	0.8619	0.085
Mof_C 	C 	0.742	0.8832	0.9249	0.059
Mof_C 	C 	0.6798	0.9747	0.9314	-0.129
Mof_H 	H 	0.6678	0.0015	0.9689	0.069
Mof_C 	C 	0.636	0.0254	0.8815	0.056
Mof_H 	H 	0.5956	0.0899	0.8861	-0.021
Mof_C 	C 	0.8954	0.6708	0.1402	0.087
Mof_C 	C 	0.9031	0.9295	0.9473	0.086
Mof_C 	C 	0.9581	0.6254	0.0171	0.045
Mof_C 	C 	0.9245	0.5169	0.9788	-0.058
Mof_H 	H 	0.8741	0.527	0.9644	0.058
Mof_C 	C 	0.9662	0.3914	0.9615	-0.064
Mof_H 	H 	0.9432	0.3189	0.9356	0.064
Mof_C 	C 	0.5276	0.2631	0.2478	-0.203
_end
