data_functionalizedCrystal
_audit_creation_method	'EQeq! by Chris Wilmer'
_symmetry_space_group_name_H-M	'P1'
_symmetry_Int_Tables_number	1
_symmetry_cell_setting	triclinic
loop_
_symmetry_equiv_pos_as_xyz
  x,y,z
_cell_length_a	6.5677
_cell_length_b	16.3984
_cell_length_c	13.164
_cell_angle_alpha	90
_cell_angle_beta	90
_cell_angle_gamma	90
loop_
_atom_site_label
_atom_site_type_symbol
_atom_site_fract_x
_atom_site_fract_y
_atom_site_fract_z
_atom_site_charge
Mof_O 	O 	0.169	0.16818	0.83997	-1.707
Mof_C 	C 	0.8071	0.0265	0.9543	0.018
Mof_O 	O 	0.669	0.66818	0.33997	-1.696
Mof_C 	C 	0.3071	0.5265	0.4543	0.063
Mof_O 	O 	0.831	0.33182	0.83997	-1.725
Mof_C 	C 	0.1929	0.4735	0.9543	0.051
Mof_O 	O 	0.331	0.83182	0.33997	-1.696
Mof_C 	C 	0.6929	0.9735	0.4543	0.042
Mof_O 	O 	0.831	0.66818	0.16003	-1.725
Mof_C 	C 	0.1929	0.5265	0.0457	0.051
Mof_O 	O 	0.331	0.16818	0.66003	-1.696
Mof_C 	C 	0.6929	0.0265	0.5457	0.042
Mof_O 	O 	0.169	0.83182	0.16003	-1.706
Mof_C 	C 	0.8071	0.9735	0.0457	0.019
Mof_O 	O 	0.669	0.33182	0.66003	-1.696
Mof_C 	C 	0.3071	0.4735	0.5457	0.063
Mof_O 	O 	0.831	0.83182	0.16003	-1.725
Mof_C 	C 	0.1929	0.9735	0.0457	0.051
Mof_O 	O 	0.331	0.33182	0.66003	-1.696
Mof_C 	C 	0.6929	0.4735	0.5457	0.042
Mof_O 	O 	0.169	0.66818	0.16003	-1.706
Mof_C 	C 	0.8071	0.5265	0.0457	0.019
Mof_O 	O 	0.669	0.16818	0.66003	-1.696
Mof_C 	C 	0.3071	0.0265	0.5457	0.063
Mof_O 	O 	0.169	0.33182	0.83997	-1.706
Mof_C 	C 	0.8071	0.4735	0.9543	0.019
Mof_O 	O 	0.669	0.83182	0.33997	-1.696
Mof_C 	C 	0.3071	0.9735	0.4543	0.063
Mof_O 	O 	0.831	0.16818	0.83997	-1.725
Mof_C 	C 	0.1929	0.0265	0.9543	0.051
Mof_O 	O 	0.331	0.66818	0.33997	-1.696
Mof_C 	C 	0.6929	0.5265	0.4543	0.042
Mof_Al	Al	0.25	0.25	0.75	7.165
Mof_Al	Al	0.75	0.25	0.75	7.074
Mof_Al	Al	0.75	0.75	0.25	7.074
Mof_Al	Al	0.25	0.75	0.25	7.165
Mof_F 	F 	5.21324e-33	0.25	0.6937	-2.382
Mof_F 	F 	0.5	0.75	0.1937	-2.403
Mof_F 	F 	-2.4406e-32	0.75	0.3063	-2.382
Mof_F 	F 	0.5	0.25	0.8063	-2.403
Mof_C 	C 	-1.06674e-32	0.0641	0.9498	-0.246
Mof_C 	C 	-2.90686e-32	0.1389	0.8705	1.246
Mof_C 	C 	0.5	0.5641	0.4498	-0.282
Mof_C 	C 	0.5	0.6389	0.3705	1.203
Mof_C 	C 	7.13787e-33	0.4359	0.9498	-0.246
Mof_C 	C 	-1.12633e-32	0.3611	0.8705	1.247
Mof_C 	C 	0.5	0.9359	0.4498	-0.282
Mof_C 	C 	0.5	0.8611	0.3705	1.203
Mof_C 	C 	-1.63152e-32	0.5641	0.0502	-0.246
Mof_C 	C 	-1.01551e-32	0.6389	0.1295	1.247
Mof_C 	C 	0.5	0.0641	0.5502	-0.282
Mof_C 	C 	0.5	0.1389	0.6295	1.203
Mof_C 	C 	1.49009e-33	0.9359	0.0502	-0.246
Mof_C 	C 	-2.79603e-32	0.8611	0.1295	1.246
Mof_C 	C 	0.5	0.4359	0.5502	-0.282
Mof_C 	C 	0.5	0.3611	0.6295	1.203
_end
