data_functionalizedCrystal
_audit_creation_method	'EQeq! by Chris Wilmer'
_symmetry_space_group_name_H-M	'P1'
_symmetry_Int_Tables_number	1
_symmetry_cell_setting	triclinic
loop_
_symmetry_equiv_pos_as_xyz
  x,y,z
_cell_length_a	12.975
_cell_length_b	13.06
_cell_length_c	22.382
_cell_angle_alpha	95.776
_cell_angle_beta	92.004
_cell_angle_gamma	112.678
loop_
_atom_site_label
_atom_site_type_symbol
_atom_site_fract_x
_atom_site_fract_y
_atom_site_fract_z
_atom_site_charge
Mof_Zn	Zn	0.86002	0.76082	0.29949	1.216
Mof_Zn	Zn	0.85366	0.71572	0.16722	1.216
Mof_O 	O 	0.8888	0.9227	0.28927	-0.441
Mof_C 	C 	0.8815	0.9434	0.23563	0.377
Mof_O 	O 	0.8807	0.8807	0.1898	-0.469
Mof_O 	O 	0.0222	0.7863	0.28874	-0.46
Mof_C 	C 	0.0624	0.7657	0.24116	0.376
Mof_O 	O 	0.0185	0.7532	0.18854	-0.453
Mof_O 	O 	0.8258	0.5944	0.28133	-0.465
Mof_C 	C 	0.8271	0.5333	0.2347	0.382
Mof_O 	O 	0.8278	0.5577	0.18192	-0.451
Mof_O 	O 	0.6979	0.7265	0.27369	-0.461
Mof_C 	C 	0.6483	0.7014	0.22169	0.381
Mof_O 	O 	0.6887	0.6819	0.17374	-0.454
Mof_N 	N 	0.861	0.7654	0.3908	-0.26
Mof_C 	C 	0.7765	0.6905	0.41539	0.116
Mof_H 	H 	0.7164	0.6366	0.3895	-0.008
Mof_C 	C 	0.7726	0.6879	0.47715	-0.191
Mof_H 	H 	0.7106	0.6346	0.4934	0.112
Mof_C 	C 	0.8618	0.7655	0.5143	0.205
Mof_C 	C 	0.95	0.8426	0.48912	-0.192
Mof_H 	H 	0.0122	0.896	0.5139	0.116
Mof_C 	C 	0.9458	0.8406	0.42727	0.111
Mof_H 	H 	0.0055	0.8947	0.41	0.008
Mof_N 	N 	0.863	0.7636	0.5784	-0.191
Mof_C 	C 	0.8518	0.8535	0.61374	0.216
Mof_C 	C 	0.8508	0.8481	0.67938	-0.053
Mof_C 	C 	0.8448	0.9353	0.71671	-0.022
Mof_H 	H 	0.8404	0.9978	0.7001	0.063
Mof_C 	C 	0.8452	0.9327	0.77953	-0.021
Mof_H 	H 	0.8416	0.9936	0.8052	0.061
Mof_C 	C 	0.8507	0.8414	0.80374	-0.055
Mof_C 	C 	0.8533	0.8411	0.86974	0.214
Mof_N 	N 	0.8572	0.7442	0.89097	-0.191
Mof_C 	C 	0.8634	0.6518	0.85539	0.214
Mof_C 	C 	0.8626	0.6566	0.78937	-0.055
Mof_C 	C 	0.8688	0.5687	0.75192	-0.023
Mof_H 	H 	0.8714	0.5054	0.7683	0.058
Mof_C 	C 	0.8715	0.5733	0.68971	-0.023
Mof_H 	H 	0.8777	0.5137	0.664	0.058
Mof_C 	C 	0.8651	0.6645	0.66567	-0.057
Mof_C 	C 	0.8701	0.6686	0.60017	0.212
Mof_C 	C 	0.8569	0.7538	0.70319	0.03
Mof_C 	C 	0.8559	0.7503	0.76599	0.031
Mof_O 	O 	0.8444	0.9301	0.59016	-0.228
Mof_O 	O 	0.8525	0.9178	0.90464	-0.225
Mof_O 	O 	0.8702	0.5749	0.87871	-0.227
Mof_O 	O 	0.8826	0.5974	0.56575	-0.22
Mof_C 	C 	0.173	0.7544	0.24769	-0.08
Mof_C 	C 	0.2302	0.776	0.3051	0.011
Mof_H 	H 	0.1984	0.797	0.3394	0.048
Mof_C 	C 	0.3316	0.7666	0.3117	-0.079
Mof_H 	H 	0.3699	0.782	0.3506	0.065
Mof_C 	C 	0.3799	0.7344	0.26109	0.023
Mof_C 	C 	0.4866	0.729	0.26609	-0.027
Mof_H 	H 	0.5278	0.7473	0.3043	0.059
Mof_C 	C 	0.5312	0.6976	0.21627	-0.083
Mof_C 	C 	0.4692	0.6676	0.1593	0.021
Mof_H 	H 	0.4998	0.6447	0.125	0.041
Mof_C 	C 	0.3663	0.6715	0.1536	-0.085
Mof_H 	H 	0.3251	0.6501	0.1153	0.073
Mof_C 	C 	0.3189	0.7072	0.204	0.033
Mof_C 	C 	0.2154	0.7189	0.19856	-0.035
Mof_H 	H 	0.1747	0.7018	0.1603	0.067
Mof_C 	C 	0.8717	0.0519	0.22605	-0.078
Mof_C 	C 	0.862	0.1207	0.27313	-0.03
Mof_H 	H 	0.8628	0.1006	0.3127	0.061
Mof_C 	C 	0.8508	0.2223	0.26448	0.028
Mof_C 	C 	0.8401	0.2941	0.313	-0.081
Mof_H 	H 	0.8396	0.2745	0.3528	0.069
Mof_C 	C 	0.8306	0.3923	0.3033	0.015
Mof_H 	H 	0.8238	0.4405	0.3363	0.047
Mof_C 	C 	0.8308	0.422	0.2438	-0.08
Mof_C 	C 	0.8402	0.3529	0.1964	-0.03
Mof_H 	H 	0.8404	0.3738	0.1569	0.064
Mof_C 	C 	0.8496	0.2506	0.20463	0.029
Mof_C 	C 	0.8598	0.1782	0.1567	-0.081
Mof_H 	H 	0.859	0.1971	0.1168	0.066
Mof_C 	C 	0.8707	0.081	0.16623	0.014
Mof_H 	H 	0.8776	0.033	0.1332	0.045
Mof_N 	N 	0.8563	0.7237	0.07697	-0.26
Mof_C 	C 	0.7709	0.6544	0.03894	0.118
Mof_H 	H 	0.7097	0.5993	0.0547	-0.011
Mof_C 	C 	0.7674	0.6591	0.97789	-0.193
Mof_H 	H 	0.7054	0.6084	0.9519	0.111
Mof_C 	C 	0.8568	0.7397	0.95525	0.204
Mof_C 	C 	0.9449	0.8118	0.99354	-0.185
Mof_H 	H 	0.0069	0.8675	0.9787	0.112
Mof_C 	C 	0.9419	0.8017	0.05457	0.105
Mof_H 	H 	0.0027	0.8519	0.0815	0.009
Mof_Zn	Zn	0.13998	0.23918	0.70051	1.217
Mof_Zn	Zn	0.14634	0.28428	0.83278	1.217
Mof_O 	O 	0.1112	0.0773	0.71073	-0.44
Mof_C 	C 	0.1185	0.0566	0.76437	0.378
Mof_O 	O 	0.1193	0.1193	0.8102	-0.468
Mof_O 	O 	0.9778	0.2137	0.71126	-0.459
Mof_C 	C 	0.9376	0.2343	0.75884	0.376
Mof_O 	O 	0.9815	0.2468	0.81146	-0.453
Mof_O 	O 	0.1742	0.4056	0.71867	-0.465
Mof_C 	C 	0.1729	0.4667	0.7653	0.382
Mof_O 	O 	0.1722	0.4423	0.81808	-0.451
Mof_O 	O 	0.3021	0.2735	0.72631	-0.461
Mof_C 	C 	0.3517	0.2986	0.77831	0.381
Mof_O 	O 	0.3113	0.3181	0.82626	-0.454
Mof_N 	N 	0.139	0.2346	0.6092	-0.26
Mof_C 	C 	0.2235	0.3095	0.58461	0.116
Mof_H 	H 	0.2836	0.3634	0.6105	-0.008
Mof_C 	C 	0.2274	0.3121	0.52285	-0.191
Mof_H 	H 	0.2894	0.3654	0.5066	0.112
Mof_C 	C 	0.1382	0.2345	0.4857	0.205
Mof_C 	C 	0.05	0.1574	0.51088	-0.192
Mof_H 	H 	0.9878	0.104	0.4861	0.116
Mof_C 	C 	0.0542	0.1594	0.57273	0.111
Mof_H 	H 	0.9945	0.1053	0.59	0.008
Mof_N 	N 	0.137	0.2364	0.4216	-0.191
Mof_C 	C 	0.1482	0.1465	0.38626	0.216
Mof_C 	C 	0.1492	0.1519	0.32062	-0.053
Mof_C 	C 	0.1552	0.0647	0.28329	-0.022
Mof_H 	H 	0.1596	0.0022	0.2999	0.063
Mof_C 	C 	0.1548	0.0673	0.22047	-0.021
Mof_H 	H 	0.1584	0.0064	0.1948	0.061
Mof_C 	C 	0.1493	0.1586	0.19626	-0.055
Mof_C 	C 	0.1467	0.1589	0.13026	0.214
Mof_N 	N 	0.1428	0.2558	0.10903	-0.191
Mof_C 	C 	0.1366	0.3482	0.14461	0.214
Mof_C 	C 	0.1374	0.3434	0.21063	-0.055
Mof_C 	C 	0.1312	0.4313	0.24808	-0.023
Mof_H 	H 	0.1286	0.4946	0.2317	0.058
Mof_C 	C 	0.1285	0.4267	0.31029	-0.023
Mof_H 	H 	0.1223	0.4863	0.336	0.058
Mof_C 	C 	0.1349	0.3355	0.33433	-0.057
Mof_C 	C 	0.1299	0.3314	0.39983	0.212
Mof_C 	C 	0.1431	0.2462	0.29681	0.03
Mof_C 	C 	0.1441	0.2497	0.23401	0.031
Mof_O 	O 	0.1556	0.0699	0.40984	-0.228
Mof_O 	O 	0.1475	0.0822	0.09536	-0.225
Mof_O 	O 	0.1298	0.4251	0.12129	-0.227
Mof_O 	O 	0.1174	0.4026	0.43425	-0.22
Mof_C 	C 	0.827	0.2456	0.75231	-0.08
Mof_C 	C 	0.7698	0.224	0.6949	0.011
Mof_H 	H 	0.8016	0.203	0.6606	0.048
Mof_C 	C 	0.6684	0.2334	0.6883	-0.079
Mof_H 	H 	0.6301	0.218	0.6494	0.065
Mof_C 	C 	0.6201	0.2656	0.73891	0.023
Mof_C 	C 	0.5134	0.271	0.73391	-0.027
Mof_H 	H 	0.4722	0.2527	0.6957	0.059
Mof_C 	C 	0.4688	0.3024	0.78373	-0.083
Mof_C 	C 	0.5308	0.3324	0.8407	0.021
Mof_H 	H 	0.5002	0.3553	0.875	0.041
Mof_C 	C 	0.6337	0.3285	0.8464	-0.085
Mof_H 	H 	0.6749	0.3499	0.8847	0.073
Mof_C 	C 	0.6811	0.2928	0.796	0.033
Mof_C 	C 	0.7846	0.2811	0.80144	-0.035
Mof_H 	H 	0.8253	0.2982	0.8397	0.067
Mof_C 	C 	0.1283	0.9481	0.77395	-0.078
Mof_C 	C 	0.138	0.8793	0.72687	-0.03
Mof_H 	H 	0.1372	0.8994	0.6873	0.061
Mof_C 	C 	0.1492	0.7777	0.73552	0.028
Mof_C 	C 	0.1599	0.7059	0.687	-0.081
Mof_H 	H 	0.1604	0.7255	0.6472	0.069
Mof_C 	C 	0.1694	0.6077	0.6967	0.015
Mof_H 	H 	0.1762	0.5595	0.6637	0.047
Mof_C 	C 	0.1692	0.578	0.7562	-0.08
Mof_C 	C 	0.1598	0.6471	0.8036	-0.03
Mof_H 	H 	0.1596	0.6262	0.8431	0.064
Mof_C 	C 	0.1504	0.7494	0.79537	0.029
Mof_C 	C 	0.1402	0.8218	0.8433	-0.081
Mof_H 	H 	0.141	0.8029	0.8832	0.066
Mof_C 	C 	0.1293	0.919	0.83377	0.014
Mof_H 	H 	0.1224	0.967	0.8668	0.045
Mof_N 	N 	0.1437	0.2763	0.92303	-0.26
Mof_C 	C 	0.2291	0.3456	0.96106	0.118
Mof_H 	H 	0.2903	0.4007	0.9453	-0.011
Mof_C 	C 	0.2326	0.3409	0.02211	-0.193
Mof_H 	H 	0.2946	0.3916	0.0481	0.111
Mof_C 	C 	0.1432	0.2603	0.04475	0.204
Mof_C 	C 	0.0551	0.1882	0.00646	-0.185
Mof_H 	H 	0.9931	0.1325	0.0213	0.112
Mof_C 	C 	0.0581	0.1983	0.94543	0.105
Mof_H 	H 	0.9973	0.1481	0.9185	0.009
_end
