data_functionalizedCrystal
_audit_creation_method	'EQeq! by Chris Wilmer'
_symmetry_space_group_name_H-M	'P1'
_symmetry_Int_Tables_number	1
_symmetry_cell_setting	triclinic
loop_
_symmetry_equiv_pos_as_xyz
  x,y,z
_cell_length_a	11.5284
_cell_length_b	14.761
_cell_length_c	25.593
_cell_angle_alpha	90
_cell_angle_beta	90
_cell_angle_gamma	90
loop_
_atom_site_label
_atom_site_type_symbol
_atom_site_fract_x
_atom_site_fract_y
_atom_site_fract_z
_atom_site_charge
Mof_Cu	Cu	0.5	0.5	0.5	0.879
Mof_Cu	Cu	0.5	0	-0	0.827
Mof_Cu	Cu	0.5	0.5	-0	0.855
Mof_Cu	Cu	0.5	-1.15924e-32	0.5	0.851
Mof_Cu	Cu	-1.9023e-32	0.5	0.5	0.846
Mof_Cu	Cu	-0	0	-0	0.793
Mof_Cu	Cu	-0	0.5	-0	0.821
Mof_Cu	Cu	4.16183e-33	-1.15924e-32	0.5	0.819
Mof_Cu	Cu	0.68506	0.51404	0.25	0.863
Mof_Cu	Cu	0.68506	0.98596	0.25	0.891
Mof_Cu	Cu	0.31494	0.48596	0.75	0.857
Mof_Cu	Cu	0.31494	0.01404	0.75	0.828
Mof_H 	H 	0.7501	0.4992	0.4846	-0.023
Mof_H 	H 	0.5781	0.5535	0.6119	-0.011
Mof_H 	H 	0.7512	0.5785	0.6544	0.103
Mof_H 	H 	0.9219	0.5556	0.6102	0.021
Mof_H 	H 	0.7501	0.0008	0.0154	-0.177
Mof_H 	H 	0.5781	0.9465	0.8881	-0.003
Mof_H 	H 	0.7512	0.9215	0.8456	0.115
Mof_H 	H 	0.9219	0.9444	0.8898	0.029
Mof_H 	H 	0.2499	0.5008	0.9846	0.046
Mof_H 	H 	0.4219	0.4465	0.1119	-0.011
Mof_H 	H 	0.2488	0.4215	0.1544	0.083
Mof_H 	H 	0.0781	0.4444	0.1102	-0.034
Mof_H 	H 	0.2499	0.9992	0.5154	0.071
Mof_H 	H 	0.4219	0.0535	0.3881	-0.019
Mof_H 	H 	0.2488	0.0785	0.3456	0.076
Mof_H 	H 	0.0781	0.0556	0.3898	-0.042
Mof_H 	H 	0.2499	0.5008	0.5154	-0.027
Mof_H 	H 	0.4219	0.4465	0.3881	-0.013
Mof_H 	H 	0.2488	0.4215	0.3456	0.086
Mof_H 	H 	0.0781	0.4444	0.3898	-0.035
Mof_H 	H 	0.2499	0.9992	0.9846	0.142
Mof_H 	H 	0.4219	0.0535	0.1119	-0.017
Mof_H 	H 	0.2488	0.0785	0.1544	0.073
Mof_H 	H 	0.0781	0.0556	0.1102	-0.04
Mof_H 	H 	0.7501	0.4992	0.0154	-0.09
Mof_H 	H 	0.5781	0.5535	0.8881	-0.011
Mof_H 	H 	0.7512	0.5785	0.8456	0.106
Mof_H 	H 	0.9219	0.5556	0.8898	0.021
Mof_H 	H 	0.7501	0.0008	0.4846	-0.111
Mof_H 	H 	0.5781	0.9465	0.6119	-0.002
Mof_H 	H 	0.7512	0.9215	0.6544	0.113
Mof_H 	H 	0.9219	0.9444	0.6102	0.029
Mof_W 	W 	0.7233	0.25	0.38944	0.502
Mof_W 	W 	0.7233	0.25	0.11056	0.501
Mof_W 	W 	0.2767	0.75	0.88944	0.506
Mof_W 	W 	0.2767	0.75	0.61056	0.503
Mof_W 	W 	0.77261	0.75	0.40051	0.495
Mof_W 	W 	0.77261	0.75	0.09949	0.505
Mof_W 	W 	0.22739	0.25	0.90051	0.511
Mof_W 	W 	0.22739	0.25	0.59949	0.519
Mof_C 	C 	0.626	0.3429	0.4391	-0.013
Mof_C 	C 	0.841	0.339	0.4313	-0.01
Mof_C 	C 	0.7104	0.3616	0.3345	-0.016
Mof_C 	C 	0.6367	0.6557	0.4236	-0.03
Mof_C 	C 	0.8836	0.6421	0.4275	-0.009
Mof_C 	C 	0.7349	0.6578	0.3369	-0.015
Mof_C 	C 	0.7502	0.5139	0.5199	0.114
Mof_C 	C 	0.6477	0.5465	0.594	0.104
Mof_C 	C 	0.7504	0.5606	0.6196	-0.163
Mof_C 	C 	0.8519	0.5477	0.5927	0.113
Mof_C 	C 	0.626	0.1571	0.0609	-0.026
Mof_C 	C 	0.841	0.161	0.0687	-0.021
Mof_C 	C 	0.7104	0.1384	0.1655	-0.021
Mof_C 	C 	0.6367	0.8443	0.0764	-0.029
Mof_C 	C 	0.8836	0.8579	0.0725	-0.005
Mof_C 	C 	0.7349	0.8422	0.1631	-0.006
Mof_C 	C 	0.7502	0.9861	0.9801	0.342
Mof_C 	C 	0.6477	0.9535	0.906	0.125
Mof_C 	C 	0.7504	0.9394	0.8804	-0.175
Mof_C 	C 	0.8519	0.9523	0.9073	0.134
Mof_C 	C 	0.374	0.6571	0.9391	-0.007
Mof_C 	C 	0.159	0.661	0.9313	-0.026
Mof_C 	C 	0.2896	0.6384	0.8345	-0.024
Mof_C 	C 	0.3633	0.3443	0.9236	-0.026
Mof_C 	C 	0.1164	0.3579	0.9275	-0.029
Mof_C 	C 	0.2651	0.3422	0.8369	-0.024
Mof_C 	C 	0.2498	0.4861	0.0199	-0.001
Mof_C 	C 	0.3523	0.4535	0.094	0.094
Mof_C 	C 	0.2496	0.4394	0.1196	-0.166
Mof_C 	C 	0.1481	0.4523	0.0927	0.098
Mof_C 	C 	0.374	0.8429	0.5609	-0.011
Mof_C 	C 	0.159	0.839	0.5687	-0.027
Mof_C 	C 	0.2896	0.8616	0.6655	-0.016
Mof_C 	C 	0.3633	0.1557	0.5764	-0.041
Mof_C 	C 	0.1164	0.1421	0.5725	-0.048
Mof_C 	C 	0.2651	0.1578	0.6631	-0.035
Mof_C 	C 	0.2498	0.0139	0.4801	-0.02
Mof_C 	C 	0.3523	0.0465	0.406	0.088
Mof_C 	C 	0.2496	0.0606	0.3804	-0.169
Mof_C 	C 	0.1481	0.0477	0.4073	0.092
Mof_C 	C 	0.374	0.6571	0.5609	-0.015
Mof_C 	C 	0.159	0.661	0.5687	-0.033
Mof_C 	C 	0.2896	0.6384	0.6655	-0.023
Mof_C 	C 	0.3633	0.3443	0.5764	-0.033
Mof_C 	C 	0.1164	0.3579	0.5725	-0.036
Mof_C 	C 	0.2651	0.3422	0.6631	-0.026
Mof_C 	C 	0.2498	0.4861	0.4801	0.11
Mof_C 	C 	0.3523	0.4535	0.406	0.102
Mof_C 	C 	0.2496	0.4394	0.3804	-0.175
Mof_C 	C 	0.1481	0.4523	0.4073	0.106
Mof_C 	C 	0.374	0.8429	0.9391	-0.003
Mof_C 	C 	0.159	0.839	0.9313	-0.021
Mof_C 	C 	0.2896	0.8616	0.8345	-0.016
Mof_C 	C 	0.3633	0.1557	0.9236	-0.034
Mof_C 	C 	0.1164	0.1421	0.9275	-0.041
Mof_C 	C 	0.2651	0.1578	0.8369	-0.034
Mof_C 	C 	0.2498	0.0139	0.0199	-0.128
Mof_C 	C 	0.3523	0.0465	0.094	0.08
Mof_C 	C 	0.2496	0.0606	0.1196	-0.16
Mof_C 	C 	0.1481	0.0477	0.0927	0.084
Mof_C 	C 	0.626	0.3429	0.0609	-0.021
Mof_C 	C 	0.841	0.339	0.0687	-0.016
Mof_C 	C 	0.7104	0.3616	0.1655	-0.015
Mof_C 	C 	0.6367	0.6557	0.0764	-0.037
Mof_C 	C 	0.8836	0.6421	0.0725	-0.015
Mof_C 	C 	0.7349	0.6578	0.1631	-0.016
Mof_C 	C 	0.7502	0.5139	0.9801	0.222
Mof_C 	C 	0.6477	0.5465	0.906	0.112
Mof_C 	C 	0.7504	0.5606	0.8804	-0.17
Mof_C 	C 	0.8519	0.5477	0.9073	0.121
Mof_C 	C 	0.626	0.1571	0.4391	-0.018
Mof_C 	C 	0.841	0.161	0.4313	-0.015
Mof_C 	C 	0.7104	0.1384	0.3345	-0.022
Mof_C 	C 	0.6367	0.8443	0.4236	-0.022
Mof_C 	C 	0.8836	0.8579	0.4275	0.001
Mof_C 	C 	0.7349	0.8422	0.3369	-0.005
Mof_C 	C 	0.7502	0.9861	0.5199	0.237
Mof_C 	C 	0.6477	0.9535	0.594	0.118
Mof_C 	C 	0.7504	0.9394	0.6196	-0.167
Mof_C 	C 	0.8519	0.9523	0.5927	0.126
Mof_C 	C 	0.5471	0.25	0.3588	-0.043
Mof_C 	C 	0.8853	0.25	0.3468	-0.024
Mof_C 	C 	0.5471	0.25	0.1412	-0.044
Mof_C 	C 	0.8853	0.25	0.1532	-0.025
Mof_C 	C 	0.4529	0.75	0.8588	-0.036
Mof_C 	C 	0.1147	0.75	0.8468	-0.047
Mof_C 	C 	0.4529	0.75	0.6412	-0.038
Mof_C 	C 	0.1147	0.75	0.6532	-0.048
Mof_C 	C 	0.9253	0.75	0.3508	0.058
Mof_C 	C 	0.7675	0.75	0.4859	-0.026
Mof_C 	C 	0.9253	0.75	0.1492	0.056
Mof_C 	C 	0.7675	0.75	0.0141	-0.096
Mof_C 	C 	0.0747	0.25	0.8508	-0.13
Mof_C 	C 	0.2325	0.25	0.9859	0.032
Mof_C 	C 	0.0747	0.25	0.6492	-0.133
Mof_C 	C 	0.2325	0.25	0.5141	-0.042
Mof_N 	N 	0.5768	0.3963	0.462	-0.203
Mof_N 	N 	0.9021	0.3858	0.4533	-0.14
Mof_N 	N 	0.7018	0.4195	0.3042	-0.213
Mof_N 	N 	0.5704	0.6024	0.4366	-0.166
Mof_N 	N 	0.9418	0.5862	0.446	-0.172
Mof_N 	N 	0.7156	0.6072	0.3042	-0.213
Mof_N 	N 	0.6462	0.5224	0.5427	-0.232
Mof_N 	N 	0.8538	0.5241	0.5423	-0.214
Mof_N 	N 	0.5768	0.1037	0.038	-0.22
Mof_N 	N 	0.9021	0.1142	0.0467	-0.155
Mof_N 	N 	0.7018	0.0805	0.1958	-0.232
Mof_N 	N 	0.5704	0.8976	0.0634	-0.153
Mof_N 	N 	0.9418	0.9138	0.054	-0.157
Mof_N 	N 	0.7156	0.8928	0.1958	-0.202
Mof_N 	N 	0.6462	0.9776	0.9573	-0.237
Mof_N 	N 	0.8538	0.9759	0.9577	-0.221
Mof_N 	N 	0.4232	0.6037	0.962	-0.187
Mof_N 	N 	0.0979	0.6142	0.9533	-0.168
Mof_N 	N 	0.2982	0.5805	0.8042	-0.218
Mof_N 	N 	0.4296	0.3976	0.9366	-0.153
Mof_N 	N 	0.0582	0.4138	0.946	-0.204
Mof_N 	N 	0.2844	0.3928	0.8042	-0.22
Mof_N 	N 	0.3538	0.4776	0.0427	-0.223
Mof_N 	N 	0.1462	0.4759	0.0423	-0.234
Mof_N 	N 	0.4232	0.8963	0.538	-0.187
Mof_N 	N 	0.0979	0.8858	0.5467	-0.168
Mof_N 	N 	0.2982	0.9195	0.6958	-0.198
Mof_N 	N 	0.4296	0.1024	0.5634	-0.179
Mof_N 	N 	0.0582	0.0862	0.554	-0.234
Mof_N 	N 	0.2844	0.1072	0.6958	-0.23
Mof_N 	N 	0.3538	0.0224	0.4573	-0.221
Mof_N 	N 	0.1462	0.0241	0.4577	-0.232
Mof_N 	N 	0.4232	0.6037	0.538	-0.203
Mof_N 	N 	0.0979	0.6142	0.5467	-0.182
Mof_N 	N 	0.2982	0.5805	0.6958	-0.218
Mof_N 	N 	0.4296	0.3976	0.5634	-0.165
Mof_N 	N 	0.0582	0.4138	0.554	-0.22
Mof_N 	N 	0.2844	0.3928	0.6958	-0.219
Mof_N 	N 	0.3538	0.4776	0.4573	-0.233
Mof_N 	N 	0.1462	0.4759	0.4577	-0.244
Mof_N 	N 	0.4232	0.8963	0.962	-0.171
Mof_N 	N 	0.0979	0.8858	0.9533	-0.154
Mof_N 	N 	0.2982	0.9195	0.8042	-0.198
Mof_N 	N 	0.4296	0.1024	0.9366	-0.167
Mof_N 	N 	0.0582	0.0862	0.946	-0.219
Mof_N 	N 	0.2844	0.1072	0.8042	-0.231
Mof_N 	N 	0.3538	0.0224	0.0427	-0.212
Mof_N 	N 	0.1462	0.0241	0.0423	-0.222
Mof_N 	N 	0.5768	0.3963	0.038	-0.212
Mof_N 	N 	0.9021	0.3858	0.0467	-0.148
Mof_N 	N 	0.7018	0.4195	0.1958	-0.213
Mof_N 	N 	0.5704	0.6024	0.0634	-0.173
Mof_N 	N 	0.9418	0.5862	0.054	-0.179
Mof_N 	N 	0.7156	0.6072	0.1958	-0.213
Mof_N 	N 	0.6462	0.5224	0.9573	-0.235
Mof_N 	N 	0.8538	0.5241	0.9577	-0.217
Mof_N 	N 	0.5768	0.1037	0.462	-0.211
Mof_N 	N 	0.9021	0.1142	0.4533	-0.146
Mof_N 	N 	0.7018	0.0805	0.3042	-0.232
Mof_N 	N 	0.5704	0.8976	0.4366	-0.146
Mof_N 	N 	0.9418	0.9138	0.446	-0.15
Mof_N 	N 	0.7156	0.8928	0.3042	-0.202
Mof_N 	N 	0.6462	0.9776	0.5427	-0.235
Mof_N 	N 	0.8538	0.9759	0.5423	-0.218
Mof_N 	N 	0.4547	0.25	0.3416	-0.101
Mof_N 	N 	0.9721	0.25	0.324	-0.067
Mof_N 	N 	0.4547	0.25	0.1584	-0.102
Mof_N 	N 	0.9721	0.25	0.176	-0.067
Mof_N 	N 	0.5453	0.75	0.8416	-0.09
Mof_N 	N 	0.0279	0.75	0.824	-0.111
Mof_N 	N 	0.5453	0.75	0.6584	-0.091
Mof_N 	N 	0.0279	0.75	0.676	-0.112
Mof_N 	N 	0.0058	0.75	0.3233	-0.163
Mof_N 	N 	0.7661	0.75	0.5304	-0.083
Mof_N 	N 	0.0058	0.75	0.1767	-0.164
Mof_N 	N 	0.7661	0.75	0.9696	-0.036
Mof_N 	N 	0.9942	0.25	0.8233	-0.017
Mof_N 	N 	0.2339	0.25	0.0304	-0.142
Mof_N 	N 	0.9942	0.25	0.6767	-0.017
Mof_N 	N 	0.2339	0.25	0.4696	-0.094
_end
