data_functionalizedCrystal
_audit_creation_method	'EQeq! by Chris Wilmer'
_symmetry_space_group_name_H-M	'P1'
_symmetry_Int_Tables_number	1
_symmetry_cell_setting	triclinic
loop_
_symmetry_equiv_pos_as_xyz
  x,y,z
_cell_length_a	16.377
_cell_length_b	12.209
_cell_length_c	10.2681
_cell_angle_alpha	90
_cell_angle_beta	127.226
_cell_angle_gamma	90
loop_
_atom_site_label
_atom_site_type_symbol
_atom_site_fract_x
_atom_site_fract_y
_atom_site_fract_z
_atom_site_charge
Mof_N 	N 	0.4214	0.3807	0.6686	-0.245
Mof_C 	C 	0.4778	0.3247	0.6372	0.088
Mof_C 	C 	0.3299	0.3226	0.5895	0.052
Mof_N 	N 	0.4332	0.2347	0.545	-0.245
Mof_H 	H 	0.5449	0.3471	0.6773	-0.044
Mof_C 	C 	0.3369	0.2316	0.5115	0.054
Mof_C 	C 	0.2426	0.3432	0.5804	-0.148
Mof_H 	H 	0.2379	0.404	0.6334	0.035
Mof_H 	H 	0.4104	0.041	0.6949	0.034
Mof_H 	H 	0.4664	0.9244	0.7467	0.033
Mof_H 	H 	0.533	0.0345	0.8082	0.008
Mof_H 	H 	0.5447	0.7403	0.9734	-0.103
Mof_H 	H 	0.43	0.7403	0.9182	-0.094
Mof_H 	H 	0.5252	0.7403	0.1084	-0.071
Mof_N 	N 	0.9214	0.8807	0.6686	-0.245
Mof_C 	C 	0.9778	0.8247	0.6372	0.136
Mof_C 	C 	0.8299	0.8226	0.5895	0.052
Mof_N 	N 	0.9332	0.7347	0.545	-0.245
Mof_H 	H 	0.0449	0.8471	0.6773	-0.073
Mof_C 	C 	0.8369	0.7316	0.5115	0.059
Mof_C 	C 	0.7426	0.8432	0.5804	-0.146
Mof_H 	H 	0.7379	0.904	0.6334	0.041
Mof_H 	H 	0.9104	0.541	0.6949	-0.016
Mof_H 	H 	0.9664	0.4244	0.7467	-0.012
Mof_H 	H 	0.033	0.5345	0.8082	-0.051
Mof_H 	H 	0.0447	0.2403	0.9734	-0.077
Mof_H 	H 	0.93	0.2403	0.9182	-0.054
Mof_H 	H 	0.0252	0.2403	0.1084	-0.044
Mof_N 	N 	0.5786	0.3807	0.3314	-0.242
Mof_C 	C 	0.5222	0.3247	0.3628	0.088
Mof_C 	C 	0.6701	0.3226	0.4105	0.056
Mof_N 	N 	0.5668	0.2347	0.455	-0.245
Mof_H 	H 	0.4551	0.3471	0.3227	-0.037
Mof_C 	C 	0.6631	0.2316	0.4885	0.05
Mof_C 	C 	0.7574	0.3432	0.4196	-0.145
Mof_H 	H 	0.7621	0.404	0.3666	0.043
Mof_H 	H 	0.5896	0.041	0.3051	0.05
Mof_H 	H 	0.5336	0.9244	0.2533	0.05
Mof_H 	H 	0.467	0.0345	0.1918	0.029
Mof_H 	H 	0.4553	0.7403	0.0266	-0.034
Mof_H 	H 	0.57	0.7403	0.0818	-0.027
Mof_H 	H 	0.4748	0.7403	0.8916	-0.049
Mof_N 	N 	0.0786	0.8807	0.3314	-0.233
Mof_C 	C 	0.0222	0.8247	0.3628	0.037
Mof_C 	C 	0.1701	0.8226	0.4105	0.055
Mof_N 	N 	0.0668	0.7347	0.455	-0.24
Mof_H 	H 	0.9551	0.8471	0.3227	0.001
Mof_C 	C 	0.1631	0.7316	0.4885	0.051
Mof_C 	C 	0.2574	0.8432	0.4196	-0.149
Mof_H 	H 	0.2621	0.904	0.3666	0.046
Mof_H 	H 	0.0896	0.541	0.3051	0.06
Mof_H 	H 	0.0336	0.4244	0.2533	0.033
Mof_H 	H 	0.967	0.5345	0.1918	0.057
Mof_H 	H 	0.9553	0.2403	0.0266	0.038
Mof_H 	H 	0.07	0.2403	0.0818	0.026
Mof_H 	H 	0.9748	0.2403	0.8916	0.023
Mof_N 	N 	0.5786	0.6193	0.3314	-0.242
Mof_C 	C 	0.5222	0.6753	0.3628	0.088
Mof_C 	C 	0.6701	0.6774	0.4105	0.054
Mof_N 	N 	0.5668	0.7653	0.455	-0.244
Mof_H 	H 	0.4551	0.6529	0.3227	-0.036
Mof_C 	C 	0.6631	0.7684	0.4885	0.054
Mof_C 	C 	0.7574	0.6568	0.4196	-0.143
Mof_H 	H 	0.7621	0.596	0.3666	0.043
Mof_H 	H 	0.5896	0.959	0.3051	0.081
Mof_H 	H 	0.5336	0.0756	0.2533	0.062
Mof_H 	H 	0.467	0.9655	0.1918	0.068
Mof_H 	H 	0.4553	0.2597	0.0266	-0.038
Mof_H 	H 	0.57	0.2597	0.0818	-0.032
Mof_H 	H 	0.4748	0.2597	0.8916	-0.053
Mof_N 	N 	0.0786	0.1193	0.3314	-0.24
Mof_C 	C 	0.0222	0.1753	0.3628	0.035
Mof_C 	C 	0.1701	0.1774	0.4105	0.049
Mof_N 	N 	0.0668	0.2653	0.455	-0.241
Mof_H 	H 	0.9551	0.1529	0.3227	-0.004
Mof_C 	C 	0.1631	0.2684	0.4885	0.052
Mof_C 	C 	0.2574	0.1568	0.4196	-0.147
Mof_H 	H 	0.2621	0.096	0.3666	0.035
Mof_H 	H 	0.0896	0.459	0.3051	0.06
Mof_H 	H 	0.0336	0.5756	0.2533	0.033
Mof_H 	H 	0.967	0.4655	0.1918	0.057
Mof_H 	H 	0.9553	0.7597	0.0266	0.042
Mof_H 	H 	0.07	0.7597	0.0818	0.031
Mof_H 	H 	0.9748	0.7597	0.8916	0.027
Mof_N 	N 	0.4214	0.6193	0.6686	-0.245
Mof_C 	C 	0.4778	0.6753	0.6372	0.088
Mof_C 	C 	0.3299	0.6774	0.5895	0.051
Mof_N 	N 	0.4332	0.7653	0.545	-0.244
Mof_H 	H 	0.5449	0.6529	0.6773	-0.043
Mof_C 	C 	0.3369	0.7684	0.5115	0.058
Mof_C 	C 	0.2426	0.6568	0.5804	-0.146
Mof_H 	H 	0.2379	0.596	0.6334	0.034
Mof_H 	H 	0.4104	0.959	0.6949	0.065
Mof_H 	H 	0.4664	0.0756	0.7467	0.045
Mof_H 	H 	0.533	0.9655	0.8082	0.047
Mof_H 	H 	0.5447	0.2597	0.9734	-0.107
Mof_H 	H 	0.43	0.2597	0.9182	-0.099
Mof_H 	H 	0.5252	0.2597	0.1084	-0.075
Mof_N 	N 	0.9214	0.1193	0.6686	-0.252
Mof_C 	C 	0.9778	0.1753	0.6372	0.134
Mof_C 	C 	0.8299	0.1774	0.5895	0.046
Mof_N 	N 	0.9332	0.2653	0.545	-0.245
Mof_H 	H 	0.0449	0.1529	0.6773	-0.079
Mof_C 	C 	0.8369	0.2684	0.5115	0.059
Mof_C 	C 	0.7426	0.1568	0.5804	-0.145
Mof_H 	H 	0.7379	0.096	0.6334	0.03
Mof_H 	H 	0.9104	0.459	0.6949	-0.016
Mof_H 	H 	0.9664	0.5756	0.7467	-0.012
Mof_H 	H 	0.033	0.4655	0.8082	-0.051
Mof_H 	H 	0.0447	0.7597	0.9734	-0.072
Mof_H 	H 	0.93	0.7597	0.9182	-0.049
Mof_H 	H 	0.0252	0.7597	0.1084	-0.04
Mof_Cu	Cu	0.46137	0.5	0.82284	0.872
Mof_Cu	Cu	0.96137	0	0.82284	0.871
Mof_Cu	Cu	0.53863	0.5	0.17716	0.888
Mof_Cu	Cu	0.03863	1.93021e-33	0.17716	0.871
Mof_O 	O 	0.5	0.5966	-0	-0.509
Mof_C 	C 	0.5	0.7136	-0	0.398
Mof_O 	O 	9.65103e-34	0.0966	-0	-0.485
Mof_C 	C 	1.93021e-33	0.2136	-0	0.124
Mof_O 	O 	0.5	0.4034	-0	-0.513
Mof_C 	C 	0.5	0.2864	-0	0.417
Mof_O 	O 	-0	0.9034	-0	-0.466
Mof_C 	C 	7.72082e-33	0.7864	-0	0.1
Mof_Cu	Cu	0.5	0.12436	0.5	0.873
Mof_Cu	Cu	-3.47715e-17	0.62436	0.5	0.865
Mof_Cu	Cu	0.5	0.87564	0.5	0.88
Mof_Cu	Cu	1.88648e-33	0.37564	0.5	0.864
Mof_O 	O 	0.4657	0	0.5746	-0.444
Mof_C 	C 	0.4692	-7.72082e-33	0.7174	-0.194
Mof_O 	O 	0.9657	0.5	0.5746	-0.477
Mof_C 	C 	0.9692	0.5	0.7174	0.175
Mof_O 	O 	0.5343	0	0.4254	-0.43
Mof_C 	C 	0.5308	0	0.2826	-0.269
Mof_O 	O 	0.0343	0.5	0.4254	-0.431
Mof_C 	C 	0.0308	0.5	0.2826	-0.239
_end
