data_functionalizedCrystal
_audit_creation_method	'EQeq! by Chris Wilmer'
_symmetry_space_group_name_H-M	'P1'
_symmetry_Int_Tables_number	1
_symmetry_cell_setting	triclinic
loop_
_symmetry_equiv_pos_as_xyz
  x,y,z
_cell_length_a	9.675
_cell_length_b	17.489
_cell_length_c	14.354
_cell_angle_alpha	75.416
_cell_angle_beta	90
_cell_angle_gamma	90
loop_
_atom_site_label
_atom_site_type_symbol
_atom_site_fract_x
_atom_site_fract_y
_atom_site_fract_z
_atom_site_charge
Mof_Cd	Cd	0.45497	0.67853	0.45142	0.375
Mof_Cd	Cd	0.96228	0.83239	0.54799	0.332
Mof_Cd	Cd	0.95497	0.32147	0.04858	0.374
Mof_Cd	Cd	0.46228	0.16761	0.95201	0.332
Mof_Cd	Cd	0.54503	0.32147	0.54858	0.374
Mof_Cd	Cd	0.03772	0.16761	0.45201	0.331
Mof_Cd	Cd	0.04503	0.67853	0.95142	0.373
Mof_Cd	Cd	0.53772	0.83239	0.04799	0.331
Mof_C 	C 	0.2441	0.7216	0.6269	0.093
Mof_C 	C 	0.1474	0.7568	0.3981	0.086
Mof_C 	C 	0.3458	0.4825	0.4489	0.092
Mof_C 	C 	0.6303	0.7003	0.2421	0.092
Mof_C 	C 	0.6538	0.8426	0.4462	0.087
Mof_C 	C 	0.9243	0.0036	0.6038	0.082
Mof_C 	C 	0.7441	0.2784	0.8731	0.093
Mof_C 	C 	0.6474	0.2432	0.1019	0.085
Mof_C 	C 	0.8458	0.5175	0.0511	0.092
Mof_C 	C 	0.1303	0.2997	0.2579	0.092
Mof_C 	C 	0.1538	0.1574	0.0538	0.088
Mof_C 	C 	0.4243	0.9964	0.8962	0.083
Mof_C 	C 	0.7559	0.2784	0.3731	0.093
Mof_C 	C 	0.8526	0.2432	0.6019	0.086
Mof_C 	C 	0.6542	0.5175	0.5511	0.092
Mof_C 	C 	0.3697	0.2997	0.7579	0.092
Mof_C 	C 	0.3462	0.1574	0.5538	0.087
Mof_C 	C 	0.0757	0.9964	0.3962	0.082
Mof_C 	C 	0.2559	0.7216	0.1269	0.093
Mof_C 	C 	0.3526	0.7568	0.8981	0.085
Mof_C 	C 	0.1542	0.4825	0.9489	0.092
Mof_C 	C 	0.8697	0.7003	0.7421	0.092
Mof_C 	C 	0.8462	0.8426	0.9462	0.088
Mof_C 	C 	0.5757	0.0036	0.1038	0.083
Mof_S 	S 	0.37941	0.66377	0.63875	-0.057
Mof_S 	S 	0.97787	0.75808	0.40345	-0.06
Mof_S 	S 	0.2683	0.56822	0.40984	-0.054
Mof_S 	S 	0.72118	0.72478	0.14196	-0.066
Mof_S 	S 	0.75115	0.91953	0.44469	-0.059
Mof_S 	S 	0.95725	0.91902	0.68031	-0.054
Mof_S 	S 	0.87941	0.33623	0.86125	-0.056
Mof_S 	S 	0.47787	0.24192	0.09655	-0.059
Mof_S 	S 	0.7683	0.43178	0.09016	-0.055
Mof_S 	S 	0.22118	0.27522	0.35804	-0.066
Mof_S 	S 	0.25115	0.08047	0.05531	-0.058
Mof_S 	S 	0.45725	0.08098	0.81969	-0.056
Mof_S 	S 	0.62059	0.33623	0.36125	-0.057
Mof_S 	S 	0.02213	0.24192	0.59655	-0.06
Mof_S 	S 	0.7317	0.43178	0.59016	-0.054
Mof_S 	S 	0.27882	0.27522	0.85804	-0.066
Mof_S 	S 	0.24885	0.08047	0.55531	-0.059
Mof_S 	S 	0.04275	0.08098	0.31969	-0.054
Mof_S 	S 	0.12059	0.66377	0.13875	-0.056
Mof_S 	S 	0.52213	0.75808	0.90345	-0.059
Mof_S 	S 	0.2317	0.56822	0.90984	-0.055
Mof_S 	S 	0.77882	0.72478	0.64196	-0.066
Mof_S 	S 	0.74885	0.91953	0.94469	-0.058
Mof_S 	S 	0.54275	0.91902	0.18031	-0.056
Mof_N 	N 	0.15	0.7623	0.6182	-0.153
Mof_N 	N 	0.2679	0.7563	0.3932	-0.146
Mof_N 	N 	0.3965	0.4219	0.4764	-0.151
Mof_N 	N 	0.5687	0.6811	0.3122	-0.149
Mof_N 	N 	0.5837	0.7888	0.4504	-0.147
Mof_N 	N 	0.8996	0.0631	0.5499	-0.143
Mof_N 	N 	0.65	0.2377	0.8818	-0.153
Mof_N 	N 	0.7679	0.2437	0.1068	-0.146
Mof_N 	N 	0.8965	0.5781	0.0236	-0.151
Mof_N 	N 	0.0687	0.3189	0.1878	-0.148
Mof_N 	N 	0.0837	0.2112	0.0496	-0.146
Mof_N 	N 	0.3996	0.9369	0.9501	-0.143
Mof_N 	N 	0.85	0.2377	0.3818	-0.153
Mof_N 	N 	0.7321	0.2437	0.6068	-0.146
Mof_N 	N 	0.6035	0.5781	0.5236	-0.151
Mof_N 	N 	0.4313	0.3189	0.6878	-0.149
Mof_N 	N 	0.4163	0.2112	0.5496	-0.147
Mof_N 	N 	0.1004	0.9369	0.4501	-0.143
Mof_N 	N 	0.35	0.7623	0.1182	-0.153
Mof_N 	N 	0.2321	0.7563	0.8932	-0.146
Mof_N 	N 	0.1035	0.4219	0.9764	-0.151
Mof_N 	N 	0.9313	0.6811	0.8122	-0.148
Mof_N 	N 	0.9163	0.7888	0.9504	-0.146
Mof_N 	N 	0.6004	0.0631	0.0499	-0.143
_end
