data_functionalizedCrystal
_audit_creation_method	'EQeq! by Chris Wilmer'
_symmetry_space_group_name_H-M	'P1'
_symmetry_Int_Tables_number	1
_symmetry_cell_setting	triclinic
loop_
_symmetry_equiv_pos_as_xyz
  x,y,z
_cell_length_a	13.113
_cell_length_b	29.058
_cell_length_c	30.167
_cell_angle_alpha	90
_cell_angle_beta	90
_cell_angle_gamma	90
loop_
_atom_site_label
_atom_site_type_symbol
_atom_site_fract_x
_atom_site_fract_y
_atom_site_fract_z
_atom_site_charge
Mof_C 	C 	0.3228	0.29984	0.06056	0.366
Mof_O 	O 	0.3782	0.26744	0.04636	-0.415
Mof_C 	C 	0.4324	0.37668	0.17247	0.044
Mof_C 	C 	0.3638	0.32711	0.09879	-0.115
Mof_C 	C 	0.3478	0.39162	0.14859	-0.108
Mof_H 	H 	0.3144	0.4184	0.1572	0.068
Mof_C 	C 	0.4681	0.45026	0.21248	-0.112
Mof_H 	H 	0.4472	0.4662	0.1874	0.07
Mof_C 	C 	0.4805	0.33674	0.15907	-0.112
Mof_H 	H 	0.5361	0.3257	0.175	0.069
Mof_C 	C 	0.3123	0.367	0.11189	0.037
Mof_H 	H 	0.2551	0.377	0.0964	0.029
Mof_C 	C 	0.4675	0.402	0.21248	0.044
Mof_C 	C 	0.4464	0.31276	0.12187	0.045
Mof_H 	H 	0.481	0.2865	0.1128	0.028
Mof_O 	O 	0.2369	0.31086	0.04573	-0.418
Mof_C 	C 	0.8228	0.79984	0.06056	0.365
Mof_O 	O 	0.8782	0.76744	0.04636	-0.415
Mof_C 	C 	0.9324	0.87668	0.17247	0.043
Mof_C 	C 	0.8638	0.82711	0.09879	-0.116
Mof_C 	C 	0.8478	0.89162	0.14859	-0.109
Mof_H 	H 	0.8144	0.9184	0.1572	0.067
Mof_C 	C 	0.9681	0.95026	0.21248	-0.113
Mof_H 	H 	0.9472	0.9662	0.1874	0.069
Mof_C 	C 	0.9805	0.83674	0.15907	-0.113
Mof_H 	H 	0.0361	0.8257	0.175	0.069
Mof_C 	C 	0.8123	0.867	0.11189	0.037
Mof_H 	H 	0.7551	0.877	0.0964	0.029
Mof_C 	C 	0.9675	0.902	0.21248	0.044
Mof_C 	C 	0.9464	0.81276	0.12187	0.045
Mof_H 	H 	0.981	0.7865	0.1128	0.028
Mof_O 	O 	0.7369	0.81086	0.04573	-0.418
Mof_C 	C 	0.6772	0.70016	0.06056	0.365
Mof_O 	O 	0.6218	0.73256	0.04636	-0.416
Mof_C 	C 	0.5676	0.62332	0.17247	0.043
Mof_C 	C 	0.6362	0.67289	0.09879	-0.116
Mof_C 	C 	0.6522	0.60838	0.14859	-0.109
Mof_H 	H 	0.6856	0.5816	0.1572	0.067
Mof_C 	C 	0.5319	0.54974	0.21248	-0.113
Mof_H 	H 	0.5528	0.5338	0.1874	0.069
Mof_C 	C 	0.5195	0.66326	0.15907	-0.113
Mof_H 	H 	0.4639	0.6743	0.175	0.069
Mof_C 	C 	0.6877	0.633	0.11189	0.037
Mof_H 	H 	0.7449	0.623	0.0964	0.029
Mof_C 	C 	0.5325	0.598	0.21248	0.044
Mof_C 	C 	0.5536	0.68724	0.12187	0.045
Mof_H 	H 	0.519	0.7135	0.1128	0.028
Mof_O 	O 	0.7631	0.68914	0.04573	-0.418
Mof_C 	C 	0.1772	0.20016	0.06056	0.365
Mof_O 	O 	0.1218	0.23256	0.04636	-0.415
Mof_C 	C 	0.0676	0.12332	0.17247	0.043
Mof_C 	C 	0.1362	0.17289	0.09879	-0.116
Mof_C 	C 	0.1522	0.10838	0.14859	-0.109
Mof_H 	H 	0.1856	0.0816	0.1572	0.067
Mof_C 	C 	0.0319	0.04974	0.21248	-0.113
Mof_H 	H 	0.0528	0.0338	0.1874	0.069
Mof_C 	C 	0.0195	0.16326	0.15907	-0.113
Mof_H 	H 	0.9639	0.1743	0.175	0.069
Mof_C 	C 	0.1877	0.133	0.11189	0.037
Mof_H 	H 	0.2449	0.123	0.0964	0.029
Mof_C 	C 	0.0325	0.098	0.21248	0.044
Mof_C 	C 	0.0536	0.18724	0.12187	0.045
Mof_H 	H 	0.019	0.2135	0.1128	0.028
Mof_O 	O 	0.2631	0.18914	0.04573	-0.418
Mof_C 	C 	0.6772	0.29984	0.43944	0.364
Mof_O 	O 	0.6218	0.26744	0.45364	-0.407
Mof_C 	C 	0.5676	0.37668	0.32753	0.042
Mof_C 	C 	0.6362	0.32711	0.40121	-0.111
Mof_C 	C 	0.6522	0.39162	0.35141	-0.105
Mof_H 	H 	0.6856	0.4184	0.3428	0.068
Mof_C 	C 	0.5319	0.45026	0.28752	-0.114
Mof_H 	H 	0.5528	0.4662	0.3126	0.071
Mof_C 	C 	0.5195	0.33674	0.34093	-0.11
Mof_H 	H 	0.4639	0.3257	0.325	0.069
Mof_C 	C 	0.6877	0.367	0.38811	0.036
Mof_H 	H 	0.7449	0.377	0.4036	0.034
Mof_C 	C 	0.5325	0.402	0.28752	0.045
Mof_C 	C 	0.5536	0.31276	0.37813	0.042
Mof_H 	H 	0.519	0.2865	0.3872	0.031
Mof_O 	O 	0.7631	0.31086	0.45427	-0.41
Mof_C 	C 	0.1772	0.79984	0.43944	0.364
Mof_O 	O 	0.1218	0.76744	0.45364	-0.407
Mof_C 	C 	0.0676	0.87668	0.32753	0.042
Mof_C 	C 	0.1362	0.82711	0.40121	-0.111
Mof_C 	C 	0.1522	0.89162	0.35141	-0.105
Mof_H 	H 	0.1856	0.9184	0.3428	0.068
Mof_C 	C 	0.0319	0.95026	0.28752	-0.114
Mof_H 	H 	0.0528	0.9662	0.3126	0.071
Mof_C 	C 	0.0195	0.83674	0.34093	-0.11
Mof_H 	H 	0.9639	0.8257	0.325	0.069
Mof_C 	C 	0.1877	0.867	0.38811	0.036
Mof_H 	H 	0.2449	0.877	0.4036	0.034
Mof_C 	C 	0.0325	0.902	0.28752	0.045
Mof_C 	C 	0.0536	0.81276	0.37813	0.042
Mof_H 	H 	0.019	0.7865	0.3872	0.031
Mof_O 	O 	0.2631	0.81086	0.45427	-0.41
Mof_C 	C 	0.3228	0.70016	0.43944	0.364
Mof_O 	O 	0.3782	0.73256	0.45364	-0.407
Mof_C 	C 	0.4324	0.62332	0.32753	0.042
Mof_C 	C 	0.3638	0.67289	0.40121	-0.111
Mof_C 	C 	0.3478	0.60838	0.35141	-0.105
Mof_H 	H 	0.3144	0.5816	0.3428	0.068
Mof_C 	C 	0.4681	0.54974	0.28752	-0.114
Mof_H 	H 	0.4472	0.5338	0.3126	0.071
Mof_C 	C 	0.4805	0.66326	0.34093	-0.11
Mof_H 	H 	0.5361	0.6743	0.325	0.069
Mof_C 	C 	0.3123	0.633	0.38811	0.036
Mof_H 	H 	0.2551	0.623	0.4036	0.034
Mof_C 	C 	0.4675	0.598	0.28752	0.045
Mof_C 	C 	0.4464	0.68724	0.37813	0.042
Mof_H 	H 	0.481	0.7135	0.3872	0.031
Mof_O 	O 	0.2369	0.68914	0.45427	-0.41
Mof_C 	C 	0.8228	0.20016	0.43944	0.364
Mof_O 	O 	0.8782	0.23256	0.45364	-0.407
Mof_C 	C 	0.9324	0.12332	0.32753	0.042
Mof_C 	C 	0.8638	0.17289	0.40121	-0.111
Mof_C 	C 	0.8478	0.10838	0.35141	-0.105
Mof_H 	H 	0.8144	0.0816	0.3428	0.068
Mof_C 	C 	0.9681	0.04974	0.28752	-0.114
Mof_H 	H 	0.9472	0.0338	0.3126	0.071
Mof_C 	C 	0.9805	0.16326	0.34093	-0.109
Mof_H 	H 	0.0361	0.1743	0.325	0.069
Mof_C 	C 	0.8123	0.133	0.38811	0.036
Mof_H 	H 	0.7551	0.123	0.4036	0.034
Mof_C 	C 	0.9675	0.098	0.28752	0.045
Mof_C 	C 	0.9464	0.18724	0.37813	0.042
Mof_H 	H 	0.981	0.2135	0.3872	0.031
Mof_O 	O 	0.7369	0.18914	0.45427	-0.41
Mof_C 	C 	0.6772	0.70016	0.93944	0.36
Mof_O 	O 	0.6218	0.73256	0.95364	-0.391
Mof_C 	C 	0.5676	0.62332	0.82753	0.04
Mof_C 	C 	0.6362	0.67289	0.90121	-0.103
Mof_C 	C 	0.6522	0.60838	0.85141	-0.101
Mof_H 	H 	0.6856	0.5816	0.8428	0.069
Mof_C 	C 	0.5319	0.54974	0.78752	-0.115
Mof_H 	H 	0.5528	0.5338	0.8126	0.073
Mof_C 	C 	0.5195	0.66326	0.84093	-0.105
Mof_H 	H 	0.4639	0.6743	0.825	0.069
Mof_C 	C 	0.6877	0.633	0.88811	0.033
Mof_H 	H 	0.7449	0.623	0.9036	0.039
Mof_C 	C 	0.5325	0.598	0.78752	0.048
Mof_C 	C 	0.5536	0.68724	0.87813	0.039
Mof_H 	H 	0.519	0.7135	0.8872	0.036
Mof_O 	O 	0.7631	0.68914	0.95427	-0.394
Mof_C 	C 	0.1772	0.20016	0.93944	0.36
Mof_O 	O 	0.1218	0.23256	0.95364	-0.392
Mof_C 	C 	0.0676	0.12332	0.82753	0.04
Mof_C 	C 	0.1362	0.17289	0.90121	-0.103
Mof_C 	C 	0.1522	0.10838	0.85141	-0.101
Mof_H 	H 	0.1856	0.0816	0.8428	0.069
Mof_C 	C 	0.0319	0.04974	0.78752	-0.115
Mof_H 	H 	0.0528	0.0338	0.8126	0.073
Mof_C 	C 	0.0195	0.16326	0.84093	-0.105
Mof_H 	H 	0.9639	0.1743	0.825	0.069
Mof_C 	C 	0.1877	0.133	0.88811	0.033
Mof_H 	H 	0.2449	0.123	0.9036	0.039
Mof_C 	C 	0.0325	0.098	0.78752	0.048
Mof_C 	C 	0.0536	0.18724	0.87813	0.039
Mof_H 	H 	0.019	0.2135	0.8872	0.035
Mof_O 	O 	0.2631	0.18914	0.95427	-0.394
Mof_C 	C 	0.3228	0.29984	0.93944	0.36
Mof_O 	O 	0.3782	0.26744	0.95364	-0.391
Mof_C 	C 	0.4324	0.37668	0.82753	0.04
Mof_C 	C 	0.3638	0.32711	0.90121	-0.103
Mof_C 	C 	0.3478	0.39162	0.85141	-0.101
Mof_H 	H 	0.3144	0.4184	0.8428	0.069
Mof_C 	C 	0.4681	0.45026	0.78752	-0.115
Mof_H 	H 	0.4472	0.4662	0.8126	0.073
Mof_C 	C 	0.4805	0.33674	0.84093	-0.105
Mof_H 	H 	0.5361	0.3257	0.825	0.069
Mof_C 	C 	0.3123	0.367	0.88811	0.033
Mof_H 	H 	0.2551	0.377	0.9036	0.039
Mof_C 	C 	0.4675	0.402	0.78752	0.048
Mof_C 	C 	0.4464	0.31276	0.87813	0.039
Mof_H 	H 	0.481	0.2865	0.8872	0.036
Mof_O 	O 	0.2369	0.31086	0.95427	-0.394
Mof_C 	C 	0.8228	0.79984	0.93944	0.36
Mof_O 	O 	0.8782	0.76744	0.95364	-0.392
Mof_C 	C 	0.9324	0.87668	0.82753	0.04
Mof_C 	C 	0.8638	0.82711	0.90121	-0.103
Mof_C 	C 	0.8478	0.89162	0.85141	-0.101
Mof_H 	H 	0.8144	0.9184	0.8428	0.069
Mof_C 	C 	0.9681	0.95026	0.78752	-0.115
Mof_H 	H 	0.9472	0.9662	0.8126	0.073
Mof_C 	C 	0.9805	0.83674	0.84093	-0.105
Mof_H 	H 	0.0361	0.8257	0.825	0.069
Mof_C 	C 	0.8123	0.867	0.88811	0.033
Mof_H 	H 	0.7551	0.877	0.9036	0.039
Mof_C 	C 	0.9675	0.902	0.78752	0.048
Mof_C 	C 	0.9464	0.81276	0.87813	0.039
Mof_H 	H 	0.981	0.7865	0.8872	0.035
Mof_O 	O 	0.7369	0.81086	0.95427	-0.394
Mof_C 	C 	0.3228	0.70016	0.56056	0.364
Mof_O 	O 	0.3782	0.73256	0.54636	-0.407
Mof_C 	C 	0.4324	0.62332	0.67247	0.042
Mof_C 	C 	0.3638	0.67289	0.59879	-0.11
Mof_C 	C 	0.3478	0.60838	0.64859	-0.105
Mof_H 	H 	0.3144	0.5816	0.6572	0.068
Mof_C 	C 	0.4681	0.54974	0.71248	-0.114
Mof_H 	H 	0.4472	0.5338	0.6874	0.071
Mof_C 	C 	0.4805	0.66326	0.65907	-0.109
Mof_H 	H 	0.5361	0.6743	0.675	0.07
Mof_C 	C 	0.3123	0.633	0.61189	0.036
Mof_H 	H 	0.2551	0.623	0.5964	0.034
Mof_C 	C 	0.4675	0.598	0.71248	0.047
Mof_C 	C 	0.4464	0.68724	0.62187	0.042
Mof_H 	H 	0.481	0.7135	0.6128	0.031
Mof_O 	O 	0.2369	0.68914	0.54573	-0.41
Mof_C 	C 	0.8228	0.20016	0.56056	0.364
Mof_O 	O 	0.8782	0.23256	0.54636	-0.407
Mof_C 	C 	0.9324	0.12332	0.67247	0.042
Mof_C 	C 	0.8638	0.17289	0.59879	-0.11
Mof_C 	C 	0.8478	0.10838	0.64859	-0.105
Mof_H 	H 	0.8144	0.0816	0.6572	0.068
Mof_C 	C 	0.9681	0.04974	0.71248	-0.114
Mof_H 	H 	0.9472	0.0338	0.6874	0.071
Mof_C 	C 	0.9805	0.16326	0.65907	-0.109
Mof_H 	H 	0.0361	0.1743	0.675	0.069
Mof_C 	C 	0.8123	0.133	0.61189	0.036
Mof_H 	H 	0.7551	0.123	0.5964	0.034
Mof_C 	C 	0.9675	0.098	0.71248	0.047
Mof_C 	C 	0.9464	0.18724	0.62187	0.042
Mof_H 	H 	0.981	0.2135	0.6128	0.031
Mof_O 	O 	0.7369	0.18914	0.54573	-0.41
Mof_C 	C 	0.6772	0.29984	0.56056	0.364
Mof_O 	O 	0.6218	0.26744	0.54636	-0.407
Mof_C 	C 	0.5676	0.37668	0.67247	0.042
Mof_C 	C 	0.6362	0.32711	0.59879	-0.11
Mof_C 	C 	0.6522	0.39162	0.64859	-0.105
Mof_H 	H 	0.6856	0.4184	0.6572	0.068
Mof_C 	C 	0.5319	0.45026	0.71248	-0.114
Mof_H 	H 	0.5528	0.4662	0.6874	0.071
Mof_C 	C 	0.5195	0.33674	0.65907	-0.109
Mof_H 	H 	0.4639	0.3257	0.675	0.07
Mof_C 	C 	0.6877	0.367	0.61189	0.036
Mof_H 	H 	0.7449	0.377	0.5964	0.034
Mof_C 	C 	0.5325	0.402	0.71248	0.047
Mof_C 	C 	0.5536	0.31276	0.62187	0.042
Mof_H 	H 	0.519	0.2865	0.6128	0.031
Mof_O 	O 	0.7631	0.31086	0.54573	-0.41
Mof_C 	C 	0.1772	0.79984	0.56056	0.364
Mof_O 	O 	0.1218	0.76744	0.54636	-0.407
Mof_C 	C 	0.0676	0.87668	0.67247	0.042
Mof_C 	C 	0.1362	0.82711	0.59879	-0.11
Mof_C 	C 	0.1522	0.89162	0.64859	-0.105
Mof_H 	H 	0.1856	0.9184	0.6572	0.068
Mof_C 	C 	0.0319	0.95026	0.71248	-0.114
Mof_H 	H 	0.0528	0.9662	0.6874	0.071
Mof_C 	C 	0.0195	0.83674	0.65907	-0.109
Mof_H 	H 	0.9639	0.8257	0.675	0.07
Mof_C 	C 	0.1877	0.867	0.61189	0.036
Mof_H 	H 	0.2449	0.877	0.5964	0.034
Mof_C 	C 	0.0325	0.902	0.71248	0.047
Mof_C 	C 	0.0536	0.81276	0.62187	0.043
Mof_H 	H 	0.019	0.7865	0.6128	0.031
Mof_O 	O 	0.2631	0.81086	0.54573	-0.41
Mof_Cu	Cu	0.33332	0.22469	-0	0.89
Mof_Cu	Cu	0.83332	0.72469	-0	0.89
Mof_Cu	Cu	0.66668	0.77531	-0	0.89
Mof_Cu	Cu	0.16668	0.27531	-0	0.89
Mof_Cu	Cu	0.66668	0.22469	0.5	0.904
Mof_Cu	Cu	0.16668	0.72469	0.5	0.904
Mof_Cu	Cu	0.33332	0.77531	0.5	0.904
Mof_Cu	Cu	0.83332	0.27531	0.5	0.904
Mof_C 	C 	0.5	0.4744	0.25	0.044
Mof_C 	C 	0.5	0.37886	0.25	-0.115
Mof_H 	H 	0.5	0.3469	0.25	0.071
Mof_C 	C 	-6.62796e-33	0.9744	0.25	0.044
Mof_C 	C 	-6.62796e-33	0.87886	0.25	-0.115
Mof_H 	H 	-6.62796e-33	0.8469	0.25	0.071
Mof_C 	C 	0.5	0.5256	0.25	0.044
Mof_C 	C 	0.5	0.62114	0.25	-0.115
Mof_H 	H 	0.5	0.6531	0.25	0.071
Mof_C 	C 	-2.23577e-33	0.0256	0.25	0.044
Mof_C 	C 	-2.23577e-33	0.12114	0.25	-0.115
Mof_H 	H 	6.5486e-33	0.1531	0.25	0.071
Mof_C 	C 	0.5	0.5256	0.75	0.045
Mof_C 	C 	0.5	0.62114	0.75	-0.116
Mof_H 	H 	0.5	0.6531	0.75	0.072
Mof_C 	C 	6.46924e-33	0.0256	0.75	0.045
Mof_C 	C 	6.46924e-33	0.12114	0.75	-0.116
Mof_H 	H 	6.46924e-33	0.1531	0.75	0.072
Mof_C 	C 	0.5	0.4744	0.75	0.045
Mof_C 	C 	0.5	0.37886	0.75	-0.116
Mof_H 	H 	0.5	0.3469	0.75	0.072
Mof_C 	C 	-1.10995e-32	0.9744	0.75	0.045
Mof_C 	C 	6.46924e-33	0.87886	0.75	-0.116
Mof_H 	H 	-1.10995e-32	0.8469	0.75	0.072
_end
