data_functionalizedCrystal
_audit_creation_method	'EQeq! by Chris Wilmer'
_symmetry_space_group_name_H-M	'P1'
_symmetry_Int_Tables_number	1
_symmetry_cell_setting	triclinic
loop_
_symmetry_equiv_pos_as_xyz
  x,y,z
_cell_length_a	26.5634
_cell_length_b	26.5634
_cell_length_c	5.1954
_cell_angle_alpha	90
_cell_angle_beta	90
_cell_angle_gamma	90
loop_
_atom_site_label
_atom_site_type_symbol
_atom_site_fract_x
_atom_site_fract_y
_atom_site_fract_z
_atom_site_charge
Mof_Zn	Zn	0.27245	0.21432	0.9223	1.229
Mof_O 	O 	0.2228	0.2538	0.0945	-0.788
Mof_H 	H 	0.202	0.2648	0.9823	0.281
Mof_N 	N 	0.2542	0.1431	0.907	-0.281
Mof_C 	C 	0.2681	0.1042	0.0426	0.12
Mof_H 	H 	0.2934	0.1065	0.1657	-0.013
Mof_N 	N 	0.2437	0.0602	0.9956	-0.167
Mof_C 	C 	0.2139	0.1205	0.7457	0.023
Mof_O 	O 	0.2785	0.8326	0.365	-0.506
Mof_C 	C 	0.1845	0.1437	0.5611	-0.112
Mof_H 	H 	0.1886	0.1777	0.5239	0.034
Mof_O 	O 	0.3203	0.8737	0.665	-0.234
Mof_C 	C 	0.1487	0.1151	0.4324	0.029
Mof_C 	C 	0.1185	0.1361	0.2445	-0.078
Mof_H 	H 	0.1224	0.17	0.2042	0.052
Mof_C 	C 	0.0823	0.1081	0.1138	-0.028
Mof_H 	H 	0.0623	0.1229	0.9883	0.03
Mof_C 	C 	0.0769	0.0574	0.1746	-0.022
Mof_H 	H 	0.053	0.0379	0.0899	0.032
Mof_C 	C 	0.1073	0.0361	0.3622	-0.097
Mof_H 	H 	0.1035	0.0022	0.4016	0.062
Mof_C 	C 	0.1433	0.0642	0.4932	0.055
Mof_C 	C 	0.1724	0.0404	0.6804	-0.141
Mof_H 	H 	0.1682	0.0065	0.719	0.079
Mof_C 	C 	0.2079	0.0698	0.807	0.086
Mof_C 	C 	0.258	0.0123	0.103	0.161
Mof_C 	C 	0.2857	0.9223	0.317	-0.126
Mof_C 	C 	0.3076	0.0043	0.164	-0.281
Mof_H 	H 	0.3312	0.0294	0.1322	0.137
Mof_C 	C 	0.323	0.9586	0.273	0.193
Mof_H 	H 	0.3566	0.9527	0.3147	-0.019
Mof_C 	C 	0.2343	0.9276	0.258	0.176
Mof_H 	H 	0.2105	0.9026	0.2872	-0.036
Mof_C 	C 	0.2231	0.9746	0.151	-0.273
Mof_H 	H 	0.1897	0.981	0.1089	0.122
Mof_C 	C 	0.2987	0.8727	0.443	0.392
Mof_O 	O 	0.348	0.868	0.502	-0.174
Mof_C 	C 	0.2769	0.0104	0.35	0.079
Mof_H 	H 	0.2802	0.0401	0.4435	0.009
Mof_C 	C 	0.2911	0.9656	0.462	-0.137
Mof_H 	H 	0.3038	0.9645	0.6288	0.092
Mof_C 	C 	0.2669	0.9223	0.07	-0.141
Mof_H 	H 	0.2635	0.8926	0.9773	0.092
Mof_C 	C 	0.2534	0.9679	0.965	0.089
Mof_H 	H 	0.2409	0.9689	0.7983	-0.001
Mof_Zn	Zn	0.77245	0.71432	0.4223	1.231
Mof_O 	O 	0.7228	0.7538	0.5945	-0.804
Mof_H 	H 	0.702	0.7648	0.4823	0.296
Mof_N 	N 	0.7542	0.6431	0.407	-0.278
Mof_C 	C 	0.7681	0.6042	0.5426	0.117
Mof_H 	H 	0.7934	0.6065	0.6657	-0.013
Mof_N 	N 	0.7437	0.5602	0.4956	-0.172
Mof_C 	C 	0.7139	0.6205	0.2457	0.019
Mof_O 	O 	0.7785	0.3326	0.865	-0.507
Mof_C 	C 	0.6845	0.6437	0.0611	-0.098
Mof_H 	H 	0.6886	0.6777	0.0239	0.031
Mof_O 	O 	0.8203	0.3737	0.165	-0.235
Mof_C 	C 	0.6487	0.6151	0.9324	0.011
Mof_C 	C 	0.6185	0.6361	0.7445	-0.064
Mof_H 	H 	0.6224	0.67	0.7042	0.045
Mof_C 	C 	0.5823	0.6081	0.6138	-0.048
Mof_H 	H 	0.5623	0.6229	0.4883	0.043
Mof_C 	C 	0.5769	0.5574	0.6746	-0.008
Mof_H 	H 	0.553	0.5379	0.5899	0.028
Mof_C 	C 	0.6073	0.5361	0.8622	-0.105
Mof_H 	H 	0.6035	0.5022	0.9016	0.066
Mof_C 	C 	0.6433	0.5642	0.9932	0.06
Mof_C 	C 	0.6724	0.5404	0.1804	-0.142
Mof_H 	H 	0.6682	0.5065	0.219	0.079
Mof_C 	C 	0.7079	0.5698	0.307	0.088
Mof_C 	C 	0.758	0.5123	0.603	0.188
Mof_C 	C 	0.7857	0.4223	0.817	-0.166
Mof_C 	C 	0.8076	0.5043	0.664	-0.012
Mof_H 	H 	0.8312	0.5294	0.6322	0.044
Mof_C 	C 	0.823	0.4586	0.773	-0.039
Mof_H 	H 	0.8566	0.4527	0.8147	0.062
Mof_C 	C 	0.7343	0.4276	0.758	-0.121
Mof_H 	H 	0.7105	0.4026	0.7872	0.071
Mof_C 	C 	0.7231	0.4746	0.651	0.044
Mof_H 	H 	0.6897	0.481	0.6089	0.013
Mof_C 	C 	0.7987	0.3727	0.943	0.411
Mof_O 	O 	0.848	0.368	0.002	-0.179
Mof_C 	C 	0.7769	0.5104	0.85	-0.22
Mof_H 	H 	0.7802	0.5401	0.9435	0.11
Mof_C 	C 	0.7911	0.4656	0.962	0.125
Mof_H 	H 	0.8038	0.4645	0.1288	0.002
Mof_C 	C 	0.7669	0.4223	0.57	0.212
Mof_H 	H 	0.7635	0.3926	0.4773	-0.036
Mof_C 	C 	0.7534	0.4679	0.465	-0.276
Mof_H 	H 	0.7409	0.4689	0.2983	0.128
Mof_Zn	Zn	0.72755	0.78568	0.9223	1.229
Mof_O 	O 	0.7772	0.7462	0.0945	-0.788
Mof_H 	H 	0.798	0.7352	0.9823	0.281
Mof_N 	N 	0.7458	0.8569	0.907	-0.281
Mof_C 	C 	0.7319	0.8958	0.0426	0.12
Mof_H 	H 	0.7066	0.8935	0.1657	-0.013
Mof_N 	N 	0.7563	0.9398	0.9956	-0.167
Mof_C 	C 	0.7861	0.8795	0.7457	0.023
Mof_O 	O 	0.7215	0.1674	0.365	-0.506
Mof_C 	C 	0.8155	0.8563	0.5611	-0.112
Mof_H 	H 	0.8114	0.8223	0.5239	0.034
Mof_O 	O 	0.6797	0.1263	0.665	-0.234
Mof_C 	C 	0.8513	0.8849	0.4324	0.029
Mof_C 	C 	0.8815	0.8639	0.2445	-0.078
Mof_H 	H 	0.8776	0.83	0.2042	0.052
Mof_C 	C 	0.9177	0.8919	0.1138	-0.028
Mof_H 	H 	0.9377	0.8771	0.9883	0.03
Mof_C 	C 	0.9231	0.9426	0.1746	-0.022
Mof_H 	H 	0.947	0.9621	0.0899	0.032
Mof_C 	C 	0.8927	0.9639	0.3622	-0.097
Mof_H 	H 	0.8965	0.9978	0.4016	0.062
Mof_C 	C 	0.8567	0.9358	0.4932	0.055
Mof_C 	C 	0.8276	0.9596	0.6804	-0.141
Mof_H 	H 	0.8318	0.9935	0.719	0.079
Mof_C 	C 	0.7921	0.9302	0.807	0.086
Mof_C 	C 	0.742	0.9877	0.103	0.161
Mof_C 	C 	0.7143	0.0777	0.317	-0.126
Mof_C 	C 	0.6924	0.9957	0.164	-0.281
Mof_H 	H 	0.6688	0.9706	0.1322	0.137
Mof_C 	C 	0.677	0.0414	0.273	0.193
Mof_H 	H 	0.6434	0.0473	0.3147	-0.019
Mof_C 	C 	0.7657	0.0724	0.258	0.176
Mof_H 	H 	0.7895	0.0974	0.2872	-0.036
Mof_C 	C 	0.7769	0.0254	0.151	-0.273
Mof_H 	H 	0.8103	0.019	0.1089	0.122
Mof_C 	C 	0.7013	0.1273	0.443	0.392
Mof_O 	O 	0.652	0.132	0.502	-0.174
Mof_C 	C 	0.7231	0.9896	0.35	0.079
Mof_H 	H 	0.7198	0.9599	0.4435	0.009
Mof_C 	C 	0.7089	0.0344	0.462	-0.137
Mof_H 	H 	0.6962	0.0355	0.6288	0.092
Mof_C 	C 	0.7331	0.0777	0.07	-0.141
Mof_H 	H 	0.7365	0.1074	0.9773	0.092
Mof_C 	C 	0.7466	0.0321	0.965	0.089
Mof_H 	H 	0.7591	0.0311	0.7983	-0.001
Mof_Zn	Zn	0.22755	0.28568	0.4223	1.231
Mof_O 	O 	0.2772	0.2462	0.5945	-0.804
Mof_H 	H 	0.298	0.2352	0.4823	0.296
Mof_N 	N 	0.2458	0.3569	0.407	-0.278
Mof_C 	C 	0.2319	0.3958	0.5426	0.117
Mof_H 	H 	0.2066	0.3935	0.6657	-0.013
Mof_N 	N 	0.2563	0.4398	0.4956	-0.172
Mof_C 	C 	0.2861	0.3795	0.2457	0.019
Mof_O 	O 	0.2215	0.6674	0.865	-0.507
Mof_C 	C 	0.3155	0.3563	0.0611	-0.098
Mof_H 	H 	0.3114	0.3223	0.0239	0.031
Mof_O 	O 	0.1797	0.6263	0.165	-0.235
Mof_C 	C 	0.3513	0.3849	0.9324	0.011
Mof_C 	C 	0.3815	0.3639	0.7445	-0.064
Mof_H 	H 	0.3776	0.33	0.7042	0.045
Mof_C 	C 	0.4177	0.3919	0.6138	-0.048
Mof_H 	H 	0.4377	0.3771	0.4883	0.043
Mof_C 	C 	0.4231	0.4426	0.6746	-0.008
Mof_H 	H 	0.447	0.4621	0.5899	0.028
Mof_C 	C 	0.3927	0.4639	0.8622	-0.105
Mof_H 	H 	0.3965	0.4978	0.9016	0.066
Mof_C 	C 	0.3567	0.4358	0.9932	0.06
Mof_C 	C 	0.3276	0.4596	0.1804	-0.142
Mof_H 	H 	0.3318	0.4935	0.219	0.079
Mof_C 	C 	0.2921	0.4302	0.307	0.088
Mof_C 	C 	0.242	0.4877	0.603	0.188
Mof_C 	C 	0.2143	0.5777	0.817	-0.166
Mof_C 	C 	0.1924	0.4957	0.664	-0.012
Mof_H 	H 	0.1688	0.4706	0.6322	0.044
Mof_C 	C 	0.177	0.5414	0.773	-0.039
Mof_H 	H 	0.1434	0.5473	0.8147	0.062
Mof_C 	C 	0.2657	0.5724	0.758	-0.121
Mof_H 	H 	0.2895	0.5974	0.7872	0.071
Mof_C 	C 	0.2769	0.5254	0.651	0.044
Mof_H 	H 	0.3103	0.519	0.6089	0.013
Mof_C 	C 	0.2013	0.6273	0.943	0.411
Mof_O 	O 	0.152	0.632	0.002	-0.179
Mof_C 	C 	0.2231	0.4896	0.85	-0.22
Mof_H 	H 	0.2198	0.4599	0.9435	0.11
Mof_C 	C 	0.2089	0.5344	0.962	0.125
Mof_H 	H 	0.1962	0.5355	0.1288	0.002
Mof_C 	C 	0.2331	0.5777	0.57	0.212
Mof_H 	H 	0.2365	0.6074	0.4773	-0.036
Mof_C 	C 	0.2466	0.5321	0.465	-0.276
Mof_H 	H 	0.2591	0.5311	0.2983	0.128
Mof_Zn	Zn	0.21432	0.72755	0.0777	1.229
Mof_O 	O 	0.2538	0.7772	0.9055	-0.788
Mof_H 	H 	0.2648	0.798	0.0177	0.281
Mof_N 	N 	0.1431	0.7458	0.093	-0.281
Mof_C 	C 	0.1042	0.7319	0.9574	0.12
Mof_H 	H 	0.1065	0.7066	0.8343	-0.013
Mof_N 	N 	0.0602	0.7563	0.0044	-0.167
Mof_C 	C 	0.1205	0.7861	0.2543	0.023
Mof_O 	O 	0.8326	0.7215	0.635	-0.506
Mof_C 	C 	0.1437	0.8155	0.4389	-0.112
Mof_H 	H 	0.1777	0.8114	0.4761	0.034
Mof_O 	O 	0.8737	0.6797	0.335	-0.234
Mof_C 	C 	0.1151	0.8513	0.5676	0.029
Mof_C 	C 	0.1361	0.8815	0.7555	-0.078
Mof_H 	H 	0.17	0.8776	0.7958	0.052
Mof_C 	C 	0.1081	0.9177	0.8862	-0.028
Mof_H 	H 	0.1229	0.9377	0.0117	0.03
Mof_C 	C 	0.0574	0.9231	0.8254	-0.022
Mof_H 	H 	0.0379	0.947	0.9101	0.032
Mof_C 	C 	0.0361	0.8927	0.6378	-0.097
Mof_H 	H 	0.0022	0.8965	0.5984	0.062
Mof_C 	C 	0.0642	0.8567	0.5068	0.055
Mof_C 	C 	0.0404	0.8276	0.3196	-0.141
Mof_H 	H 	0.0065	0.8318	0.281	0.079
Mof_C 	C 	0.0698	0.7921	0.193	0.086
Mof_C 	C 	0.0123	0.742	0.897	0.161
Mof_C 	C 	0.9223	0.7143	0.683	-0.126
Mof_C 	C 	0.0043	0.6924	0.836	-0.281
Mof_H 	H 	0.0294	0.6688	0.8678	0.137
Mof_C 	C 	0.9586	0.677	0.727	0.193
Mof_H 	H 	0.9527	0.6434	0.6853	-0.019
Mof_C 	C 	0.9276	0.7657	0.742	0.176
Mof_H 	H 	0.9026	0.7895	0.7128	-0.036
Mof_C 	C 	0.9746	0.7769	0.849	-0.273
Mof_H 	H 	0.981	0.8103	0.8911	0.122
Mof_C 	C 	0.8727	0.7013	0.557	0.392
Mof_O 	O 	0.868	0.652	0.498	-0.174
Mof_C 	C 	0.0104	0.7231	0.65	0.079
Mof_H 	H 	0.0401	0.7198	0.5565	0.009
Mof_C 	C 	0.9656	0.7089	0.538	-0.137
Mof_H 	H 	0.9645	0.6962	0.3712	0.092
Mof_C 	C 	0.9223	0.7331	0.93	-0.141
Mof_H 	H 	0.8926	0.7365	0.0227	0.092
Mof_C 	C 	0.9679	0.7466	0.035	0.089
Mof_H 	H 	0.9689	0.7591	0.2017	-0.001
Mof_Zn	Zn	0.71432	0.22755	0.5777	1.231
Mof_O 	O 	0.7538	0.2772	0.4055	-0.804
Mof_H 	H 	0.7648	0.298	0.5177	0.296
Mof_N 	N 	0.6431	0.2458	0.593	-0.278
Mof_C 	C 	0.6042	0.2319	0.4574	0.117
Mof_H 	H 	0.6065	0.2066	0.3343	-0.013
Mof_N 	N 	0.5602	0.2563	0.5044	-0.172
Mof_C 	C 	0.6205	0.2861	0.7543	0.019
Mof_O 	O 	0.3326	0.2215	0.135	-0.507
Mof_C 	C 	0.6437	0.3155	0.9389	-0.098
Mof_H 	H 	0.6777	0.3114	0.9761	0.031
Mof_O 	O 	0.3737	0.1797	0.835	-0.235
Mof_C 	C 	0.6151	0.3513	0.0676	0.011
Mof_C 	C 	0.6361	0.3815	0.2555	-0.064
Mof_H 	H 	0.67	0.3776	0.2958	0.045
Mof_C 	C 	0.6081	0.4177	0.3862	-0.048
Mof_H 	H 	0.6229	0.4377	0.5117	0.043
Mof_C 	C 	0.5574	0.4231	0.3254	-0.008
Mof_H 	H 	0.5379	0.447	0.4101	0.028
Mof_C 	C 	0.5361	0.3927	0.1378	-0.105
Mof_H 	H 	0.5022	0.3965	0.0984	0.066
Mof_C 	C 	0.5642	0.3567	0.0068	0.06
Mof_C 	C 	0.5404	0.3276	0.8196	-0.142
Mof_H 	H 	0.5065	0.3318	0.781	0.079
Mof_C 	C 	0.5698	0.2921	0.693	0.088
Mof_C 	C 	0.5123	0.242	0.397	0.188
Mof_C 	C 	0.4223	0.2143	0.183	-0.166
Mof_C 	C 	0.5043	0.1924	0.336	-0.012
Mof_H 	H 	0.5294	0.1688	0.3678	0.044
Mof_C 	C 	0.4586	0.177	0.227	-0.039
Mof_H 	H 	0.4527	0.1434	0.1853	0.062
Mof_C 	C 	0.4276	0.2657	0.242	-0.121
Mof_H 	H 	0.4026	0.2895	0.2128	0.071
Mof_C 	C 	0.4746	0.2769	0.349	0.044
Mof_H 	H 	0.481	0.3103	0.3911	0.013
Mof_C 	C 	0.3727	0.2013	0.057	0.411
Mof_O 	O 	0.368	0.152	0.998	-0.179
Mof_C 	C 	0.5104	0.2231	0.15	-0.22
Mof_H 	H 	0.5401	0.2198	0.0565	0.11
Mof_C 	C 	0.4656	0.2089	0.038	0.125
Mof_H 	H 	0.4645	0.1962	0.8712	0.002
Mof_C 	C 	0.4223	0.2331	0.43	0.212
Mof_H 	H 	0.3926	0.2365	0.5227	-0.036
Mof_C 	C 	0.4679	0.2466	0.535	-0.276
Mof_H 	H 	0.4689	0.2591	0.7017	0.128
Mof_Zn	Zn	0.78568	0.27245	0.0777	1.229
Mof_O 	O 	0.7462	0.2228	0.9055	-0.788
Mof_H 	H 	0.7352	0.202	0.0177	0.281
Mof_N 	N 	0.8569	0.2542	0.093	-0.281
Mof_C 	C 	0.8958	0.2681	0.9574	0.12
Mof_H 	H 	0.8935	0.2934	0.8343	-0.013
Mof_N 	N 	0.9398	0.2437	0.0044	-0.167
Mof_C 	C 	0.8795	0.2139	0.2543	0.023
Mof_O 	O 	0.1674	0.2785	0.635	-0.506
Mof_C 	C 	0.8563	0.1845	0.4389	-0.112
Mof_H 	H 	0.8223	0.1886	0.4761	0.034
Mof_O 	O 	0.1263	0.3203	0.335	-0.234
Mof_C 	C 	0.8849	0.1487	0.5676	0.029
Mof_C 	C 	0.8639	0.1185	0.7555	-0.078
Mof_H 	H 	0.83	0.1224	0.7958	0.052
Mof_C 	C 	0.8919	0.0823	0.8862	-0.028
Mof_H 	H 	0.8771	0.0623	0.0117	0.03
Mof_C 	C 	0.9426	0.0769	0.8254	-0.022
Mof_H 	H 	0.9621	0.053	0.9101	0.032
Mof_C 	C 	0.9639	0.1073	0.6378	-0.097
Mof_H 	H 	0.9978	0.1035	0.5984	0.062
Mof_C 	C 	0.9358	0.1433	0.5068	0.055
Mof_C 	C 	0.9596	0.1724	0.3196	-0.141
Mof_H 	H 	0.9935	0.1682	0.281	0.079
Mof_C 	C 	0.9302	0.2079	0.193	0.086
Mof_C 	C 	0.9877	0.258	0.897	0.161
Mof_C 	C 	0.0777	0.2857	0.683	-0.126
Mof_C 	C 	0.9957	0.3076	0.836	-0.281
Mof_H 	H 	0.9706	0.3312	0.8678	0.137
Mof_C 	C 	0.0414	0.323	0.727	0.193
Mof_H 	H 	0.0473	0.3566	0.6853	-0.019
Mof_C 	C 	0.0724	0.2343	0.742	0.176
Mof_H 	H 	0.0974	0.2105	0.7128	-0.036
Mof_C 	C 	0.0254	0.2231	0.849	-0.273
Mof_H 	H 	0.019	0.1897	0.8911	0.122
Mof_C 	C 	0.1273	0.2987	0.557	0.392
Mof_O 	O 	0.132	0.348	0.498	-0.174
Mof_C 	C 	0.9896	0.2769	0.65	0.079
Mof_H 	H 	0.9599	0.2802	0.5565	0.009
Mof_C 	C 	0.0344	0.2911	0.538	-0.137
Mof_H 	H 	0.0355	0.3038	0.3712	0.092
Mof_C 	C 	0.0777	0.2669	0.93	-0.141
Mof_H 	H 	0.1074	0.2635	0.0227	0.092
Mof_C 	C 	0.0321	0.2534	0.035	0.089
Mof_H 	H 	0.0311	0.2409	0.2017	-0.001
Mof_Zn	Zn	0.28568	0.77245	0.5777	1.231
Mof_O 	O 	0.2462	0.7228	0.4055	-0.804
Mof_H 	H 	0.2352	0.702	0.5177	0.296
Mof_N 	N 	0.3569	0.7542	0.593	-0.278
Mof_C 	C 	0.3958	0.7681	0.4574	0.117
Mof_H 	H 	0.3935	0.7934	0.3343	-0.013
Mof_N 	N 	0.4398	0.7437	0.5044	-0.172
Mof_C 	C 	0.3795	0.7139	0.7543	0.019
Mof_O 	O 	0.6674	0.7785	0.135	-0.507
Mof_C 	C 	0.3563	0.6845	0.9389	-0.098
Mof_H 	H 	0.3223	0.6886	0.9761	0.031
Mof_O 	O 	0.6263	0.8203	0.835	-0.235
Mof_C 	C 	0.3849	0.6487	0.0676	0.011
Mof_C 	C 	0.3639	0.6185	0.2555	-0.064
Mof_H 	H 	0.33	0.6224	0.2958	0.045
Mof_C 	C 	0.3919	0.5823	0.3862	-0.048
Mof_H 	H 	0.3771	0.5623	0.5117	0.043
Mof_C 	C 	0.4426	0.5769	0.3254	-0.008
Mof_H 	H 	0.4621	0.553	0.4101	0.028
Mof_C 	C 	0.4639	0.6073	0.1378	-0.105
Mof_H 	H 	0.4978	0.6035	0.0984	0.066
Mof_C 	C 	0.4358	0.6433	0.0068	0.06
Mof_C 	C 	0.4596	0.6724	0.8196	-0.142
Mof_H 	H 	0.4935	0.6682	0.781	0.079
Mof_C 	C 	0.4302	0.7079	0.693	0.088
Mof_C 	C 	0.4877	0.758	0.397	0.188
Mof_C 	C 	0.5777	0.7857	0.183	-0.166
Mof_C 	C 	0.4957	0.8076	0.336	-0.012
Mof_H 	H 	0.4706	0.8312	0.3678	0.044
Mof_C 	C 	0.5414	0.823	0.227	-0.039
Mof_H 	H 	0.5473	0.8566	0.1853	0.062
Mof_C 	C 	0.5724	0.7343	0.242	-0.121
Mof_H 	H 	0.5974	0.7105	0.2128	0.071
Mof_C 	C 	0.5254	0.7231	0.349	0.044
Mof_H 	H 	0.519	0.6897	0.3911	0.013
Mof_C 	C 	0.6273	0.7987	0.057	0.411
Mof_O 	O 	0.632	0.848	0.998	-0.179
Mof_C 	C 	0.4896	0.7769	0.15	-0.22
Mof_H 	H 	0.4599	0.7802	0.0565	0.11
Mof_C 	C 	0.5344	0.7911	0.038	0.125
Mof_H 	H 	0.5355	0.8038	0.8712	0.002
Mof_C 	C 	0.5777	0.7669	0.43	0.212
Mof_H 	H 	0.6074	0.7635	0.5227	-0.036
Mof_C 	C 	0.5321	0.7534	0.535	-0.276
Mof_H 	H 	0.5311	0.7409	0.7017	0.128
_end
