data_functionalizedCrystal
_audit_creation_method	'EQeq! by Chris Wilmer'
_symmetry_space_group_name_H-M	'P1'
_symmetry_Int_Tables_number	1
_symmetry_cell_setting	triclinic
loop_
_symmetry_equiv_pos_as_xyz
  x,y,z
_cell_length_a	12.647
_cell_length_b	13.284
_cell_length_c	24.926
_cell_angle_alpha	90
_cell_angle_beta	90
_cell_angle_gamma	90
loop_
_atom_site_label
_atom_site_type_symbol
_atom_site_fract_x
_atom_site_fract_y
_atom_site_fract_z
_atom_site_charge
Mof_O 	O 	0.5925	0.3358	0.7272	-0.02
Mof_U 	U 	0.61111	0.21192	0.80253	0.032
Mof_U 	U 	0.76106	0.30727	0.67798	0.035
Mof_U 	U 	0.90564	0.17151	0.79409	0.034
Mof_O 	O 	0.7565	0.1279	0.8472	-0.028
Mof_O 	O 	0.9331	0.2283	0.7005	-0.023
Mof_O 	O 	0.7582	0.2371	0.7569	-0.024
Mof_O 	O 	0.6581	0.3965	0.612	-0.151
Mof_O 	O 	0.4848	0.3935	0.6299	-0.15
Mof_O 	O 	0.8738	0.3418	0.603	-0.157
Mof_O 	O 	0.0326	0.3913	0.6308	-0.156
Mof_C 	C 	0.5631	0.4142	0.6002	0.276
Mof_C 	C 	0.5357	0.4607	0.5478	-0.01
Mof_C 	C 	0.9572	0.3932	0.599	0.286
Mof_C 	C 	0.974	0.4531	0.5488	-0.009
Mof_O 	O 	0.4075	0.6642	0.7272	-0.021
Mof_U 	U 	0.38889	0.78808	0.80253	0.031
Mof_U 	U 	0.23894	0.69273	0.67798	0.034
Mof_U 	U 	0.09436	0.82849	0.79409	0.033
Mof_O 	O 	0.2435	0.8721	0.8472	-0.028
Mof_O 	O 	0.0669	0.7717	0.7005	-0.023
Mof_O 	O 	0.2418	0.7629	0.7569	-0.024
Mof_O 	O 	0.3419	0.6035	0.612	-0.151
Mof_O 	O 	0.5152	0.6065	0.6299	-0.15
Mof_O 	O 	0.1262	0.6582	0.603	-0.157
Mof_O 	O 	0.9674	0.6087	0.6308	-0.156
Mof_C 	C 	0.4369	0.5858	0.6002	0.276
Mof_C 	C 	0.4643	0.5393	0.5478	-0.01
Mof_C 	C 	0.0428	0.6068	0.599	0.286
Mof_C 	C 	0.026	0.5469	0.5488	-0.009
Mof_O 	O 	0.9075	0.8358	0.7728	-0.021
Mof_U 	U 	0.88889	0.71192	0.69747	0.031
Mof_U 	U 	0.73894	0.80727	0.82202	0.034
Mof_U 	U 	0.59436	0.67151	0.70591	0.032
Mof_O 	O 	0.7435	0.6279	0.6528	-0.029
Mof_O 	O 	0.5669	0.7283	0.7995	-0.022
Mof_O 	O 	0.7418	0.7371	0.7431	-0.024
Mof_O 	O 	0.8419	0.8965	0.888	-0.149
Mof_O 	O 	0.0152	0.8935	0.8701	-0.148
Mof_O 	O 	0.6262	0.8418	0.897	-0.155
Mof_O 	O 	0.4674	0.8913	0.8692	-0.155
Mof_C 	C 	0.9369	0.9142	0.8998	0.273
Mof_C 	C 	0.9643	0.9607	0.9522	-0.003
Mof_C 	C 	0.5428	0.8932	0.901	0.285
Mof_C 	C 	0.526	0.9531	0.9512	-0.002
Mof_O 	O 	0.0925	0.1642	0.7728	-0.021
Mof_U 	U 	0.11111	0.28808	0.69747	0.031
Mof_U 	U 	0.26106	0.19273	0.82202	0.034
Mof_U 	U 	0.40564	0.32849	0.70591	0.032
Mof_O 	O 	0.2565	0.3721	0.6528	-0.029
Mof_O 	O 	0.4331	0.2717	0.7995	-0.022
Mof_O 	O 	0.2582	0.2629	0.7431	-0.024
Mof_O 	O 	0.1581	0.1035	0.888	-0.149
Mof_O 	O 	0.9848	0.1065	0.8701	-0.148
Mof_O 	O 	0.3738	0.1582	0.897	-0.155
Mof_O 	O 	0.5326	0.1087	0.8692	-0.155
Mof_C 	C 	0.0631	0.0858	0.8998	0.273
Mof_C 	C 	0.0357	0.0393	0.9522	-0.003
Mof_C 	C 	0.4572	0.1068	0.901	0.285
Mof_C 	C 	0.474	0.0469	0.9512	-0.002
Mof_O 	O 	0.4075	0.6642	0.2728	-0.021
Mof_U 	U 	0.38889	0.78808	0.19747	0.031
Mof_U 	U 	0.23894	0.69273	0.32202	0.034
Mof_U 	U 	0.09436	0.82849	0.20591	0.032
Mof_O 	O 	0.2435	0.8721	0.1528	-0.029
Mof_O 	O 	0.0669	0.7717	0.2995	-0.023
Mof_O 	O 	0.2418	0.7629	0.2431	-0.025
Mof_O 	O 	0.3419	0.6035	0.388	-0.151
Mof_O 	O 	0.5152	0.6065	0.3701	-0.15
Mof_O 	O 	0.1262	0.6582	0.397	-0.157
Mof_O 	O 	0.9674	0.6087	0.3692	-0.156
Mof_C 	C 	0.4369	0.5858	0.3998	0.276
Mof_C 	C 	0.4643	0.5393	0.4522	-0.01
Mof_C 	C 	0.0428	0.6068	0.401	0.287
Mof_C 	C 	0.026	0.5469	0.4512	-0.009
Mof_O 	O 	0.5925	0.3358	0.2728	-0.021
Mof_U 	U 	0.61111	0.21192	0.19747	0.031
Mof_U 	U 	0.76106	0.30727	0.32202	0.034
Mof_U 	U 	0.90564	0.17151	0.20591	0.032
Mof_O 	O 	0.7565	0.1279	0.1528	-0.029
Mof_O 	O 	0.9331	0.2283	0.2995	-0.023
Mof_O 	O 	0.7582	0.2371	0.2431	-0.025
Mof_O 	O 	0.6581	0.3965	0.388	-0.151
Mof_O 	O 	0.4848	0.3935	0.3701	-0.15
Mof_O 	O 	0.8738	0.3418	0.397	-0.157
Mof_O 	O 	0.0326	0.3913	0.3692	-0.156
Mof_C 	C 	0.5631	0.4142	0.3998	0.276
Mof_C 	C 	0.5357	0.4607	0.4522	-0.01
Mof_C 	C 	0.9572	0.3932	0.401	0.287
Mof_C 	C 	0.974	0.4531	0.4512	-0.009
Mof_O 	O 	0.0925	0.1642	0.2272	-0.021
Mof_U 	U 	0.11111	0.28808	0.30253	0.03
Mof_U 	U 	0.26106	0.19273	0.17798	0.033
Mof_U 	U 	0.40564	0.32849	0.29409	0.032
Mof_O 	O 	0.2565	0.3721	0.3472	-0.029
Mof_O 	O 	0.4331	0.2717	0.2005	-0.023
Mof_O 	O 	0.2582	0.2629	0.2569	-0.025
Mof_O 	O 	0.1581	0.1035	0.112	-0.151
Mof_O 	O 	0.9848	0.1065	0.1299	-0.149
Mof_O 	O 	0.3738	0.1582	0.103	-0.157
Mof_O 	O 	0.5326	0.1087	0.1308	-0.156
Mof_C 	C 	0.0631	0.0858	0.1002	0.274
Mof_C 	C 	0.0357	0.0393	0.0478	-0.009
Mof_C 	C 	0.4572	0.1068	0.099	0.285
Mof_C 	C 	0.474	0.0469	0.0488	-0.007
Mof_O 	O 	0.9075	0.8358	0.2272	-0.021
Mof_U 	U 	0.88889	0.71192	0.30253	0.03
Mof_U 	U 	0.73894	0.80727	0.17798	0.033
Mof_U 	U 	0.59436	0.67151	0.29409	0.032
Mof_O 	O 	0.7435	0.6279	0.3472	-0.029
Mof_O 	O 	0.5669	0.7283	0.2005	-0.023
Mof_O 	O 	0.7418	0.7371	0.2569	-0.025
Mof_O 	O 	0.8419	0.8965	0.112	-0.151
Mof_O 	O 	0.0152	0.8935	0.1299	-0.149
Mof_O 	O 	0.6262	0.8418	0.103	-0.157
Mof_O 	O 	0.4674	0.8913	0.1308	-0.156
Mof_C 	C 	0.9369	0.9142	0.1002	0.274
Mof_C 	C 	0.9643	0.9607	0.0478	-0.009
Mof_C 	C 	0.5428	0.8932	0.099	0.285
Mof_C 	C 	0.526	0.9531	0.0488	-0.007
Mof_C 	C 	0.573	0.421	0.5	-0.015
Mof_H 	H 	0.6216	0.3689	0.5	0.085
Mof_C 	C 	0.949	0.409	0.5	-0.017
Mof_H 	H 	0.9138	0.3471	0.5	0.088
Mof_C 	C 	0.427	0.579	0.5	-0.015
Mof_H 	H 	0.3784	0.6311	0.5	0.085
Mof_C 	C 	0.051	0.591	0.5	-0.017
Mof_H 	H 	0.0862	0.6529	0.5	0.088
Mof_C 	C 	0.927	0.921	-0	-0.025
Mof_H 	H 	0.8784	0.8689	-0	0.086
Mof_C 	C 	0.551	0.909	-0	-0.027
Mof_H 	H 	0.5862	0.8471	-0	0.089
Mof_C 	C 	0.073	0.079	-0	-0.025
Mof_H 	H 	0.1216	0.1311	-0	0.086
Mof_C 	C 	0.449	0.091	-0	-0.027
Mof_H 	H 	0.4138	0.1529	-0	0.089
_end
