data_functionalizedCrystal
_audit_creation_method	'EQeq! by Chris Wilmer'
_symmetry_space_group_name_H-M	'P1'
_symmetry_Int_Tables_number	1
_symmetry_cell_setting	triclinic
loop_
_symmetry_equiv_pos_as_xyz
  x,y,z
_cell_length_a	14.9215
_cell_length_b	15.3226
_cell_length_c	15.984
_cell_angle_alpha	72.669
_cell_angle_beta	63.676
_cell_angle_gamma	63.788
loop_
_atom_site_label
_atom_site_type_symbol
_atom_site_fract_x
_atom_site_fract_y
_atom_site_fract_z
_atom_site_charge
Mof_Zn	Zn	0.69815	0.10632	0.15399	1.165
Mof_Zn	Zn	0.21081	0.996	0.39022	1.184
Mof_Zn	Zn	0.31402	0.09747	0.48442	1.179
Mof_Zn	Zn	0.84251	0.34088	0.3526	1.211
Mof_C 	C 	0.2787	0.9781	0.6673	0.08
Mof_H 	H 	0.2954	0.0234	0.6799	-0.05
Mof_C 	C 	0.2478	0.9175	0.5779	0.09
Mof_C 	C 	0.227	0.8376	0.6421	0
Mof_C 	C 	0.2311	0.833	0.7271	0.068
Mof_C 	C 	0.2097	0.8254	0.5254	0.034
Mof_C 	C 	0.1472	0.2945	0.5075	0.117
Mof_H 	H 	0.1922	0.2981	0.5312	-0.027
Mof_C 	C 	0.1105	0.2094	0.4454	0.111
Mof_C 	C 	0.0194	0.2904	0.4382	-0.056
Mof_C 	C 	0.9958	0.3761	0.471	0.163
Mof_C 	C 	0.0286	0.1721	0.3865	0.078
Mof_H 	H 	0.0141	0.1357	0.36	-0.03
Mof_C 	C 	0.3666	0.9719	0.2053	0.093
Mof_H 	H 	0.32	0.9471	0.205	-0.019
Mof_C 	C 	0.4169	0.0325	0.2827	0.114
Mof_C 	C 	0.5016	0.04	0.2044	-0.067
Mof_C 	C 	0.5183	0.0168	0.1194	0.153
Mof_C 	C 	0.4957	0.0982	0.3132	0.081
Mof_H 	H 	0.5111	0.1278	0.3455	-0.044
Mof_C 	C 	0.0701	0.8591	0.318	-0.159
Mof_H 	H 	0.0194	0.8486	0.3816	0.07
Mof_C 	C 	0.0088	0.9329	0.2664	-0.029
Mof_H 	H 	0.9764	0.9935	0.2935	0.038
Mof_H 	H 	0.9513	0.9146	0.2732	0.028
Mof_C 	C 	0.075	0.9519	0.1585	-0.101
Mof_H 	H 	0.0291	0.0041	0.1271	0.055
Mof_H 	H 	0.1331	0.9706	0.1497	0.065
Mof_C 	C 	0.1198	0.8551	0.1182	-0.118
Mof_H 	H 	0.0595	0.8375	0.1289	0.07
Mof_C 	C 	0.1873	0.7769	0.1699	-0.08
Mof_H 	H 	0.2462	0.7943	0.1611	0.07
Mof_H 	H 	0.2172	0.7157	0.1444	0.046
Mof_C 	C 	0.121	0.7628	0.276	-0.054
Mof_H 	H 	0.0652	0.7408	0.2851	0.044
Mof_H 	H 	0.1672	0.7129	0.3083	0.053
Mof_C 	C 	0.1519	0.8864	0.3286	0.4
Mof_C 	C 	0.1797	0.8672	0.0167	0.301
Mof_C 	C 	0.4742	0.2023	0.5755	-0.112
Mof_H 	H 	0.5378	0.1419	0.5684	0.037
Mof_C 	C 	0.4552	0.239	0.6611	-0.059
Mof_H 	H 	0.4311	0.195	0.7163	0.049
Mof_H 	H 	0.5225	0.2375	0.6573	0.045
Mof_C 	C 	0.3743	0.3406	0.6729	-0.095
Mof_H 	H 	0.3688	0.3617	0.7271	0.065
Mof_H 	H 	0.3046	0.3415	0.6838	0.077
Mof_C 	C 	0.4076	0.4107	0.5848	-0.101
Mof_H 	H 	0.4784	0.4073	0.5756	0.07
Mof_C 	C 	0.419	0.377	0.4997	-0.081
Mof_H 	H 	0.4405	0.4216	0.4439	0.059
Mof_H 	H 	0.3506	0.3775	0.5073	0.064
Mof_C 	C 	0.5042	0.2721	0.4876	-0.072
Mof_H 	H 	0.5093	0.25	0.4343	0.048
Mof_H 	H 	0.5737	0.2727	0.4753	0.052
Mof_C 	C 	0.3826	0.1724	0.5847	0.35
Mof_C 	C 	0.3312	0.5136	0.6011	0.295
Mof_C 	C 	0.9562	0.4858	0.0978	-0.087
Mof_H 	H 	0.9325	0.555	0.1043	0.067
Mof_C 	C 	0.8995	0.4875	0.0467	-0.082
Mof_H 	H 	0.8233	0.5195	0.0795	0.053
Mof_H 	H 	0.9123	0.4207	0.043	0.064
Mof_C 	C 	0.0663	0.4573	0.0553	-0.085
Mof_H 	H 	0.0973	0.3872	0.0525	0.056
Mof_H 	H 	0.0939	0.4708	0.0928	0.05
Mof_C 	C 	0.9253	0.4373	0.1972	0.264
Mof_N 	N 	0.2603	0.9059	0.733	-0.28
Mof_N 	N 	0.2743	0.989	0.5816	-0.307
Mof_N 	N 	0.2009	0.7783	0.6129	-0.24
Mof_N 	N 	0.2348	0.9074	0.5019	-0.304
Mof_N 	N 	0.202	0.7572	0.795	-0.279
Mof_H 	H 	0.2441	0.7304	0.8268	0.104
Mof_H 	H 	0.1367	0.7824	0.8333	0.138
Mof_N 	N 	0.0681	0.3717	0.5054	-0.171
Mof_N 	N 	0.1769	0.2077	0.4809	-0.318
Mof_N 	N 	0.9678	0.2636	0.4011	-0.242
Mof_N 	N 	0.1138	0.1355	0.4131	-0.309
Mof_N 	N 	0.9164	0.4563	0.4651	-0.334
Mof_H 	H 	0.9077	0.5082	0.4827	0.176
Mof_H 	H 	0.8721	0.4578	0.4435	0.161
Mof_N 	N 	0.4478	0.9787	0.1235	-0.16
Mof_N 	N 	0.3463	0.9968	0.2864	-0.317
Mof_N 	N 	0.556	0.0815	0.2254	-0.266
Mof_N 	N 	0.4103	0.0699	0.3537	-0.318
Mof_N 	N 	0.5909	0.0292	0.0376	-0.332
Mof_H 	H 	0.5936	0.0139	0.9888	0.171
Mof_H 	H 	0.6361	0.0528	0.0325	0.153
Mof_O 	O 	0.1477	0.8617	0.9592	-0.395
Mof_O 	O 	0.2666	0.8852	0.9853	-0.464
Mof_O 	O 	0.1244	0.9592	0.3548	-0.535
Mof_O 	O 	0.2485	0.8176	0.3196	-0.314
Mof_O 	O 	0.4012	0.1418	0.5115	-0.497
Mof_O 	O 	0.3022	0.1779	0.6571	-0.315
Mof_O 	O 	0.2676	0.5582	0.5547	-0.417
Mof_O 	O 	0.3179	0.5494	0.6678	-0.358
Mof_O 	O 	0.9138	0.3512	0.2119	-0.404
Mof_O 	O 	0.9036	0.4738	0.267	-0.342
Mof_Zn	Zn	0.30185	0.89368	0.84601	1.164
Mof_Zn	Zn	0.78919	0.004	0.60978	1.183
Mof_Zn	Zn	0.68598	0.90253	0.51558	1.178
Mof_Zn	Zn	0.15749	0.65912	0.6474	1.21
Mof_C 	C 	0.7213	0.0219	0.3327	0.079
Mof_H 	H 	0.7046	0.9766	0.3201	-0.051
Mof_C 	C 	0.7522	0.0825	0.4221	0.09
Mof_C 	C 	0.773	0.1624	0.3579	0
Mof_C 	C 	0.7689	0.167	0.2729	0.068
Mof_C 	C 	0.7903	0.1746	0.4746	0.034
Mof_C 	C 	0.8528	0.7055	0.4925	0.117
Mof_H 	H 	0.8078	0.7019	0.4688	-0.027
Mof_C 	C 	0.8895	0.7906	0.5546	0.111
Mof_C 	C 	0.9806	0.7096	0.5618	-0.056
Mof_C 	C 	0.0042	0.6239	0.529	0.163
Mof_C 	C 	0.9714	0.8279	0.6135	0.078
Mof_H 	H 	0.9859	0.8643	0.64	-0.03
Mof_C 	C 	0.6334	0.0281	0.7947	0.093
Mof_H 	H 	0.68	0.0529	0.795	-0.019
Mof_C 	C 	0.5831	0.9675	0.7173	0.114
Mof_C 	C 	0.4984	0.96	0.7956	-0.067
Mof_C 	C 	0.4817	0.9832	0.8806	0.153
Mof_C 	C 	0.5043	0.9018	0.6868	0.081
Mof_H 	H 	0.4889	0.8722	0.6545	-0.044
Mof_C 	C 	0.9299	0.1409	0.682	-0.159
Mof_H 	H 	0.9806	0.1514	0.6184	0.07
Mof_C 	C 	0.9912	0.0671	0.7336	-0.029
Mof_H 	H 	0.0236	0.0065	0.7065	0.038
Mof_H 	H 	0.0487	0.0854	0.7268	0.028
Mof_C 	C 	0.925	0.0481	0.8415	-0.101
Mof_H 	H 	0.9709	0.9959	0.8729	0.055
Mof_H 	H 	0.8669	0.0294	0.8503	0.065
Mof_C 	C 	0.8802	0.1449	0.8818	-0.118
Mof_H 	H 	0.9405	0.1625	0.8711	0.07
Mof_C 	C 	0.8127	0.2231	0.8301	-0.08
Mof_H 	H 	0.7538	0.2057	0.8389	0.07
Mof_H 	H 	0.7828	0.2843	0.8556	0.046
Mof_C 	C 	0.879	0.2372	0.724	-0.054
Mof_H 	H 	0.9348	0.2592	0.7149	0.044
Mof_H 	H 	0.8328	0.2871	0.6917	0.053
Mof_C 	C 	0.8481	0.1136	0.6714	0.4
Mof_C 	C 	0.8203	0.1328	0.9833	0.301
Mof_C 	C 	0.5258	0.7977	0.4245	-0.112
Mof_H 	H 	0.4622	0.8581	0.4316	0.037
Mof_C 	C 	0.5448	0.761	0.3389	-0.059
Mof_H 	H 	0.5689	0.805	0.2837	0.049
Mof_H 	H 	0.4775	0.7625	0.3427	0.045
Mof_C 	C 	0.6257	0.6594	0.3271	-0.095
Mof_H 	H 	0.6312	0.6383	0.2729	0.065
Mof_H 	H 	0.6954	0.6585	0.3162	0.077
Mof_C 	C 	0.5924	0.5893	0.4152	-0.101
Mof_H 	H 	0.5216	0.5927	0.4244	0.07
Mof_C 	C 	0.581	0.623	0.5003	-0.081
Mof_H 	H 	0.5595	0.5784	0.5561	0.059
Mof_H 	H 	0.6494	0.6225	0.4927	0.064
Mof_C 	C 	0.4958	0.7279	0.5124	-0.072
Mof_H 	H 	0.4907	0.75	0.5657	0.048
Mof_H 	H 	0.4263	0.7273	0.5247	0.052
Mof_C 	C 	0.6174	0.8276	0.4153	0.35
Mof_C 	C 	0.6688	0.4864	0.3989	0.295
Mof_C 	C 	0.0438	0.5142	0.9022	-0.087
Mof_H 	H 	0.0675	0.445	0.8957	0.067
Mof_C 	C 	0.1005	0.5125	0.9533	-0.082
Mof_H 	H 	0.1767	0.4805	0.9205	0.053
Mof_H 	H 	0.0877	0.5793	0.957	0.064
Mof_C 	C 	0.9337	0.5427	0.9447	-0.085
Mof_H 	H 	0.9027	0.6128	0.9475	0.056
Mof_H 	H 	0.9061	0.5292	0.9072	0.05
Mof_C 	C 	0.0747	0.5627	0.8028	0.264
Mof_N 	N 	0.7397	0.0941	0.267	-0.28
Mof_N 	N 	0.7257	0.011	0.4184	-0.307
Mof_N 	N 	0.7991	0.2217	0.3871	-0.24
Mof_N 	N 	0.7652	0.0926	0.4981	-0.304
Mof_N 	N 	0.798	0.2428	0.205	-0.279
Mof_H 	H 	0.7559	0.2696	0.1732	0.104
Mof_H 	H 	0.8633	0.2176	0.1667	0.138
Mof_N 	N 	0.9319	0.6283	0.4946	-0.171
Mof_N 	N 	0.8231	0.7923	0.5191	-0.318
Mof_N 	N 	0.0322	0.7364	0.5989	-0.242
Mof_N 	N 	0.8862	0.8645	0.5869	-0.309
Mof_N 	N 	0.0836	0.5437	0.5349	-0.334
Mof_H 	H 	0.0923	0.4918	0.5173	0.176
Mof_H 	H 	0.1279	0.5422	0.5565	0.161
Mof_N 	N 	0.5522	0.0213	0.8765	-0.16
Mof_N 	N 	0.6537	0.0032	0.7136	-0.317
Mof_N 	N 	0.444	0.9185	0.7746	-0.266
Mof_N 	N 	0.5897	0.9301	0.6463	-0.318
Mof_N 	N 	0.4091	0.9708	0.9624	-0.332
Mof_H 	H 	0.4064	0.9861	0.0112	0.171
Mof_H 	H 	0.3639	0.9472	0.9675	0.153
Mof_O 	O 	0.8523	0.1383	0.0408	-0.395
Mof_O 	O 	0.7334	0.1148	0.0147	-0.464
Mof_O 	O 	0.8756	0.0408	0.6452	-0.535
Mof_O 	O 	0.7515	0.1824	0.6804	-0.314
Mof_O 	O 	0.5988	0.8582	0.4885	-0.497
Mof_O 	O 	0.6978	0.8221	0.3429	-0.315
Mof_O 	O 	0.7324	0.4418	0.4453	-0.417
Mof_O 	O 	0.6821	0.4506	0.3322	-0.358
Mof_O 	O 	0.0862	0.6488	0.7881	-0.404
Mof_O 	O 	0.0964	0.5262	0.733	-0.342
_end
