data_functionalizedCrystal
_audit_creation_method	'EQeq! by Chris Wilmer'
_symmetry_space_group_name_H-M	'P1'
_symmetry_Int_Tables_number	1
_symmetry_cell_setting	triclinic
loop_
_symmetry_equiv_pos_as_xyz
  x,y,z
_cell_length_a	8.3207
_cell_length_b	13.112
_cell_length_c	13.4253
_cell_angle_alpha	71.716
_cell_angle_beta	79.758
_cell_angle_gamma	88.055
loop_
_atom_site_label
_atom_site_type_symbol
_atom_site_fract_x
_atom_site_fract_y
_atom_site_fract_z
_atom_site_charge
Mof_Zn	Zn	0.77437	0.63699	0.36084	1.218
Mof_Zn	Zn	0.22563	0.36301	0.63916	1.198
Mof_Zn	Zn	-0	0	-0	1.088
Mof_H 	H 	0.8341	0.518	0.2122	-0.009
Mof_H 	H 	0.884	0.3467	0.2029	0.08
Mof_H 	H 	0.7312	0.2309	0.5213	0.105
Mof_H 	H 	0.6785	0.4048	0.5219	-0.027
Mof_H 	H 	0.9419	0.1632	0.2935	0.067
Mof_H 	H 	0.7525	0.1312	0.3342	0.049
Mof_H 	H 	0.8076	0.9512	0.4157	0.054
Mof_H 	H 	0.9971	0.9805	0.3681	0.09
Mof_H 	H 	0.1311	0.117	0.4104	0.04
Mof_H 	H 	0.0318	0.1798	0.4859	0.049
Mof_H 	H 	0.594	0.7724	0.4823	-0.006
Mof_H 	H 	0.5477	0.7896	0.6514	0.098
Mof_H 	H 	0.8311	0.5325	0.7455	0.118
Mof_H 	H 	0.8718	0.5226	0.5743	-0.007
Mof_H 	H 	0.5603	0.7217	0.8342	0.099
Mof_H 	H 	0.7502	0.7048	0.8401	0.11
Mof_H 	H 	0.3753	0.5666	0.8951	0.071
Mof_H 	H 	0.4918	0.5038	0.8264	0.056
Mof_H 	H 	0.6721	0.6205	0.0282	0.065
Mof_H 	H 	0.4837	0.6367	0.0166	0.049
Mof_H 	H 	0.5752	0.9013	0.1168	0.115
Mof_H 	H 	0.5146	0.8072	0.0794	0.114
Mof_H 	H 	0.3528	0.8538	0.2671	0.054
Mof_H 	H 	0.3122	0.6757	0.2685	0.137
Mof_H 	H 	0.2475	0.7195	0.1581	0.122
Mof_H 	H 	0.1659	0.482	0.7878	-0.016
Mof_H 	H 	0.116	0.6533	0.7971	0.081
Mof_H 	H 	0.2688	0.7691	0.4787	0.103
Mof_H 	H 	0.3215	0.5952	0.4781	-0.027
Mof_H 	H 	0.0581	0.8368	0.7065	0.069
Mof_H 	H 	0.2475	0.8688	0.6658	0.087
Mof_H 	H 	0.1924	0.0488	0.5843	0.04
Mof_H 	H 	0.0029	0.0195	0.6319	0.032
Mof_H 	H 	0.8689	0.883	0.5896	0.068
Mof_H 	H 	0.9682	0.8202	0.5141	0.066
Mof_H 	H 	0.406	0.2276	0.5177	-0.013
Mof_H 	H 	0.4523	0.2104	0.3486	0.073
Mof_H 	H 	0.1689	0.4675	0.2545	0.083
Mof_H 	H 	0.1282	0.4774	0.4257	-0.024
Mof_H 	H 	0.4397	0.2783	0.1658	0.049
Mof_H 	H 	0.2498	0.2952	0.1599	0.04
Mof_H 	H 	0.6247	0.4334	0.1049	0.026
Mof_H 	H 	0.5082	0.4962	0.1736	0.039
Mof_H 	H 	0.3279	0.3795	0.9718	0.045
Mof_H 	H 	0.5163	0.3633	0.9834	0.047
Mof_H 	H 	0.4248	0.0987	0.8832	0.127
Mof_H 	H 	0.4854	0.1928	0.9206	0.156
Mof_H 	H 	0.6472	0.1462	0.7329	0.014
Mof_H 	H 	0.6878	0.3243	0.7315	0.153
Mof_H 	H 	0.7525	0.2805	0.8419	0.156
Mof_C 	C 	0.8121	0.4588	0.27579	0.096
Mof_C 	C 	0.8434	0.35685	0.26979	-0.171
Mof_C 	C 	0.8155	0.26882	0.36162	0.142
Mof_C 	C 	0.7529	0.28871	0.45652	-0.177
Mof_C 	C 	0.7225	0.39275	0.45629	0.105
Mof_C 	C 	0.8495	0.15783	0.35274	-0.148
Mof_C 	C 	0.9105	0.97395	0.43086	-0.017
Mof_C 	C 	0.0433	0.10945	0.47279	-0.102
Mof_C 	C 	0.6421	0.72301	0.53666	0.098
Mof_C 	C 	0.6141	0.73367	0.63732	-0.189
Mof_C 	C 	0.6832	0.66249	0.71792	0.158
Mof_C 	C 	0.7809	0.58258	0.69267	-0.188
Mof_C 	C 	0.8041	0.57699	0.59072	0.106
Mof_C 	C 	0.652	0.67261	0.82839	-0.185
Mof_C 	C 	0.4686	0.51757	0.89598	-0.082
Mof_C 	C 	0.5757	0.58687	0.01597	-0.149
Mof_C 	C 	0.6253	0.75083	0.21104	0.361
Mof_C 	C 	0.5208	0.82951	0.14258	-0.312
Mof_C 	C 	0.3468	0.83904	0.19916	0.019
Mof_C 	C 	0.2513	0.73434	0.22559	-0.329
Mof_C 	C 	0.0784	0.73047	0.28536	0.396
Mof_C 	C 	0.2679	0.9347	0.12708	0.394
Mof_C 	C 	0.1879	0.5412	0.72421	0.08
Mof_C 	C 	0.1566	0.64315	0.73021	-0.183
Mof_C 	C 	0.1845	0.73118	0.63838	0.131
Mof_C 	C 	0.2471	0.71129	0.54348	-0.186
Mof_C 	C 	0.2775	0.60725	0.54371	0.094
Mof_C 	C 	0.1505	0.84217	0.64726	-0.164
Mof_C 	C 	0.0895	0.02605	0.56914	-0.108
Mof_C 	C 	0.9567	0.89055	0.52721	-0.019
Mof_C 	C 	0.3579	0.27699	0.46334	0.08
Mof_C 	C 	0.3859	0.26633	0.36268	-0.168
Mof_C 	C 	0.3168	0.33751	0.28208	0.114
Mof_C 	C 	0.2191	0.41742	0.30733	-0.171
Mof_C 	C 	0.1959	0.42301	0.40928	0.081
Mof_C 	C 	0.348	0.32739	0.17161	-0.138
Mof_C 	C 	0.5314	0.48243	0.10402	-0.026
Mof_C 	C 	0.4243	0.41313	0.98403	0.025
Mof_C 	C 	0.3747	0.24917	0.78896	0.377
Mof_C 	C 	0.4792	0.17049	0.85742	-0.374
Mof_C 	C 	0.6532	0.16096	0.80084	0.113
Mof_C 	C 	0.7487	0.26566	0.77441	-0.376
Mof_C 	C 	0.9216	0.26953	0.71464	0.41
Mof_C 	C 	0.7321	0.0653	0.87292	0.208
Mof_N 	N 	0.7521	0.47815	0.36745	-0.265
Mof_N 	N 	0.8887	0.07907	0.44947	-0.081
Mof_N 	N 	0.7351	0.64515	0.51293	-0.271
Mof_N 	N 	0.6127	0.56867	0.91158	-0.03
Mof_N 	N 	0.2479	0.52185	0.63255	-0.273
Mof_N 	N 	0.1113	0.92093	0.55053	-0.065
Mof_N 	N 	0.2649	0.35485	0.48707	-0.277
Mof_N 	N 	0.3873	0.43133	0.08842	-0.128
Mof_O 	O 	0.74636	0.71227	0.16768	-0.377
Mof_O 	O 	0.58935	0.72749	0.31208	-0.459
Mof_O 	O 	0.01024	0.63705	0.31773	-0.511
Mof_O 	O 	0.00937	0.81085	0.30077	-0.378
Mof_O 	O 	0.18361	0.91482	0.06593	-0.51
Mof_O 	O 	0.29648	0.02672	0.13089	-0.413
Mof_O 	O 	0.25364	0.28773	0.83232	-0.395
Mof_O 	O 	0.41065	0.27251	0.68792	-0.476
Mof_O 	O 	0.98976	0.36295	0.68227	-0.453
Mof_O 	O 	0.99063	0.18915	0.69923	-0.327
Mof_O 	O 	0.81639	0.08518	0.93407	-0.416
Mof_O 	O 	0.70352	0.97328	0.86911	-0.192
_end
