data_functionalizedCrystal
_audit_creation_method	'EQeq! by Chris Wilmer'
_symmetry_space_group_name_H-M	'P1'
_symmetry_Int_Tables_number	1
_symmetry_cell_setting	triclinic
loop_
_symmetry_equiv_pos_as_xyz
  x,y,z
_cell_length_a	8.9664
_cell_length_b	8.9664
_cell_length_c	12.3548
_cell_angle_alpha	90
_cell_angle_beta	90
_cell_angle_gamma	90
loop_
_atom_site_label
_atom_site_type_symbol
_atom_site_fract_x
_atom_site_fract_y
_atom_site_fract_z
_atom_site_charge
Mof_C 	C 	0.7605	0.5442	0.119	0.468
Mof_O 	O 	0.8867	0.6027	0.1371	-0.28
Mof_O 	O 	0.6853	0.6004	0.0369	-0.346
Mof_O 	O 	0.7065	0.4406	0.1752	-0.282
Mof_C 	C 	0.2395	0.4558	0.119	0.48
Mof_O 	O 	0.1133	0.3973	0.1371	-0.419
Mof_O 	O 	0.3147	0.3996	0.0369	-0.4
Mof_O 	O 	0.2935	0.5594	0.1752	-0.299
Mof_C 	C 	0.5442	0.2395	0.881	0.473
Mof_O 	O 	0.6027	0.1133	0.8629	-0.358
Mof_O 	O 	0.6004	0.3147	0.9631	-0.279
Mof_O 	O 	0.4406	0.2935	0.8248	-0.278
Mof_C 	C 	0.4558	0.7605	0.881	0.458
Mof_O 	O 	0.3973	0.8867	0.8629	-0.265
Mof_O 	O 	0.3996	0.6853	0.9631	-0.269
Mof_O 	O 	0.5594	0.7065	0.8248	-0.228
Mof_C 	C 	0.2605	0.9558	0.619	0.642
Mof_O 	O 	0.3867	0.8973	0.6371	-0.335
Mof_O 	O 	0.1853	0.8996	0.5369	-0.343
Mof_O 	O 	0.2065	0.0594	0.6752	-0.439
Mof_C 	C 	0.7395	0.0442	0.619	0.297
Mof_O 	O 	0.6133	0.1027	0.6371	-0.324
Mof_O 	O 	0.8147	0.1004	0.5369	-0.272
Mof_O 	O 	0.7935	0.9406	0.6752	-0.083
Mof_C 	C 	0.0442	0.2605	0.381	0.305
Mof_O 	O 	0.1027	0.3867	0.3629	-0.34
Mof_O 	O 	0.1004	0.1853	0.4631	-0.355
Mof_O 	O 	0.9406	0.2065	0.3248	-0.165
Mof_C 	C 	0.9558	0.7395	0.381	0.627
Mof_O 	O 	0.8973	0.6133	0.3629	-0.322
Mof_O 	O 	0.8996	0.8147	0.4631	-0.265
Mof_O 	O 	0.0594	0.7935	0.3248	-0.38
Mof_Cu	Cu	-1.88522e-33	0.5	0.25	0.903
Mof_Cu	Cu	0.5	-1.27072e-32	0.75	0.905
Mof_Cu	Cu	0.5	0.5	-0	0.922
Mof_Cu	Cu	8.93673e-33	6.35358e-33	0.5	0.846
_end
