data_functionalizedCrystal
_audit_creation_method	'EQeq! by Chris Wilmer'
_symmetry_space_group_name_H-M	'P1'
_symmetry_Int_Tables_number	1
_symmetry_cell_setting	triclinic
loop_
_symmetry_equiv_pos_as_xyz
  x,y,z
_cell_length_a	18.2186
_cell_length_b	18.2186
_cell_length_c	18.2186
_cell_angle_alpha	109.471
_cell_angle_beta	109.471
_cell_angle_gamma	109.471
loop_
_atom_site_label
_atom_site_type_symbol
_atom_site_fract_x
_atom_site_fract_y
_atom_site_fract_z
_atom_site_charge
Mof_Cu	Cu	-2.44221e-17	0.5157	0.88676	0.902
Mof_Cu	Cu	0.62894	0.11324	0.11324	0.904
Mof_Cu	Cu	0.37106	0.4843	0.4843	0.902
Mof_Cu	Cu	-4.88443e-17	0.88676	0.5157	0.901
Mof_Cu	Cu	0.4843	0.37106	0.4843	0.902
Mof_Cu	Cu	0.5157	0	0.88676	0.901
Mof_Cu	Cu	0.88676	0	0.5157	0.901
Mof_Cu	Cu	0.11324	0.62894	0.11324	0.903
Mof_Cu	Cu	0.11324	0.11324	0.62894	0.903
Mof_Cu	Cu	0.5157	0.88676	-0	0.901
Mof_Cu	Cu	0.88676	0.5157	-0	0.901
Mof_Cu	Cu	0.4843	0.4843	0.37106	0.902
Mof_H 	H 	0.8694	0.1795	0.5597	0.085
Mof_H 	H 	0.9462	0.3518	0.613	0.162
Mof_H 	H 	0.6198	0.3097	0.4403	0.083
Mof_H 	H 	0.7388	0.3332	0.387	0.174
Mof_H 	H 	0.3802	0.8205	0.6899	0.081
Mof_H 	H 	0.2612	0.6482	0.5944	0.176
Mof_H 	H 	0.1306	0.6903	0.3101	0.082
Mof_H 	H 	0.0538	0.6668	0.4056	0.171
Mof_H 	H 	0.6899	0.3802	0.8205	0.081
Mof_H 	H 	0.5944	0.2612	0.6482	0.176
Mof_H 	H 	0.3101	0.1306	0.6903	0.082
Mof_H 	H 	0.4056	0.0538	0.6668	0.171
Mof_H 	H 	0.5597	0.8694	0.1795	0.085
Mof_H 	H 	0.613	0.9462	0.3518	0.162
Mof_H 	H 	0.4403	0.6198	0.3097	0.083
Mof_H 	H 	0.387	0.7388	0.3332	0.174
Mof_H 	H 	0.3097	0.4403	0.6198	0.083
Mof_H 	H 	0.3332	0.387	0.7388	0.174
Mof_H 	H 	0.1795	0.5597	0.8694	0.085
Mof_H 	H 	0.3518	0.613	0.9462	0.162
Mof_H 	H 	0.6903	0.3101	0.1306	0.082
Mof_H 	H 	0.6668	0.4056	0.0538	0.171
Mof_H 	H 	0.8205	0.6899	0.3802	0.081
Mof_H 	H 	0.6482	0.5944	0.2612	0.176
Mof_H 	H 	0.3097	0.6198	0.4403	0.083
Mof_H 	H 	0.3332	0.7388	0.387	0.174
Mof_H 	H 	0.1795	0.8694	0.5597	0.085
Mof_H 	H 	0.3518	0.9462	0.613	0.162
Mof_H 	H 	0.6903	0.1306	0.3101	0.082
Mof_H 	H 	0.6668	0.0538	0.4056	0.171
Mof_H 	H 	0.8205	0.3802	0.6899	0.081
Mof_H 	H 	0.6482	0.2612	0.5944	0.176
Mof_H 	H 	0.8694	0.5597	0.1795	0.085
Mof_H 	H 	0.9462	0.613	0.3518	0.162
Mof_H 	H 	0.6198	0.4403	0.3097	0.083
Mof_H 	H 	0.7388	0.387	0.3332	0.174
Mof_H 	H 	0.3802	0.6899	0.8205	0.081
Mof_H 	H 	0.2612	0.5944	0.6482	0.176
Mof_H 	H 	0.1306	0.3101	0.6903	0.082
Mof_H 	H 	0.0538	0.4056	0.6668	0.171
Mof_H 	H 	0.6899	0.8205	0.3802	0.081
Mof_H 	H 	0.5944	0.6482	0.2612	0.176
Mof_H 	H 	0.3101	0.6903	0.1306	0.082
Mof_H 	H 	0.4056	0.6668	0.0538	0.171
Mof_H 	H 	0.5597	0.1795	0.8694	0.085
Mof_H 	H 	0.613	0.3518	0.9462	0.162
Mof_H 	H 	0.4403	0.3097	0.6198	0.083
Mof_H 	H 	0.387	0.3332	0.7388	0.174
Mof_C 	C 	0.93	0.1923	0.5851	0.123
Mof_C 	C 	0.6072	0.3449	0.4149	0.135
Mof_C 	C 	0.3928	0.8077	0.7377	0.133
Mof_C 	C 	0.07	0.6551	0.2623	0.137
Mof_C 	C 	0.7377	0.3928	0.8077	0.133
Mof_C 	C 	0.2623	0.07	0.6551	0.137
Mof_C 	C 	0.5851	0.93	0.1923	0.123
Mof_C 	C 	0.4149	0.6072	0.3449	0.135
Mof_C 	C 	0.3449	0.4149	0.6072	0.135
Mof_C 	C 	0.1923	0.5851	0.93	0.123
Mof_C 	C 	0.6551	0.2623	0.07	0.137
Mof_C 	C 	0.8077	0.7377	0.3928	0.133
Mof_C 	C 	0.3449	0.6072	0.4149	0.135
Mof_C 	C 	0.1923	0.93	0.5851	0.123
Mof_C 	C 	0.6551	0.07	0.2623	0.137
Mof_C 	C 	0.8077	0.3928	0.7377	0.133
Mof_C 	C 	0.93	0.5851	0.1923	0.123
Mof_C 	C 	0.6072	0.4149	0.3449	0.135
Mof_C 	C 	0.3928	0.7377	0.8077	0.133
Mof_C 	C 	0.07	0.2623	0.6551	0.137
Mof_C 	C 	0.7377	0.8077	0.3928	0.133
Mof_C 	C 	0.2623	0.6551	0.07	0.137
Mof_C 	C 	0.5851	0.1923	0.93	0.123
Mof_C 	C 	0.4149	0.3449	0.6072	0.135
Mof_C 	C 	4.88443e-17	0.3597	0.6601	-0.208
Mof_C 	C 	-0	0.3928	0.748	0.411
Mof_C 	C 	0.6996	0.3399	0.3399	-0.228
Mof_C 	C 	0.6448	0.252	0.252	0.414
Mof_C 	C 	0.3004	0.6403	0.6403	-0.23
Mof_C 	C 	0.3552	0.6072	0.6072	0.416
Mof_C 	C 	1.22111e-17	0.6601	0.3597	-0.208
Mof_C 	C 	3.66332e-17	0.748	0.3928	0.411
Mof_C 	C 	0.6403	0.3004	0.6403	-0.23
Mof_C 	C 	0.6072	0.3552	0.6072	0.416
Mof_C 	C 	0.3597	4.88443e-17	0.6601	-0.208
Mof_C 	C 	0.3928	0	0.748	0.411
Mof_C 	C 	0.6601	-2.44221e-17	0.3597	-0.208
Mof_C 	C 	0.748	-4.88443e-17	0.3928	0.411
Mof_C 	C 	0.3399	0.6996	0.3399	-0.228
Mof_C 	C 	0.252	0.6448	0.252	0.414
Mof_C 	C 	0.3399	0.3399	0.6996	-0.228
Mof_C 	C 	0.252	0.252	0.6448	0.414
Mof_C 	C 	0.3597	0.6601	-0	-0.208
Mof_C 	C 	0.3928	0.748	-0	0.411
Mof_C 	C 	0.6601	0.3597	-0	-0.208
Mof_C 	C 	0.748	0.3928	-0	0.411
Mof_C 	C 	0.6403	0.6403	0.3004	-0.23
Mof_C 	C 	0.6072	0.6072	0.3552	0.416
Mof_N 	N 	0.954	0.1315	0.5781	-0.2
Mof_N 	N 	0.5534	0.3759	0.4219	-0.196
Mof_N 	N 	0.4466	0.8685	0.8225	-0.2
Mof_N 	N 	0.046	0.6241	0.1775	-0.191
Mof_N 	N 	0.8225	0.4466	0.8685	-0.2
Mof_N 	N 	0.1775	0.046	0.6241	-0.191
Mof_N 	N 	0.5781	0.954	0.1315	-0.2
Mof_N 	N 	0.4219	0.5534	0.3759	-0.196
Mof_N 	N 	0.3759	0.4219	0.5534	-0.196
Mof_N 	N 	0.1315	0.5781	0.954	-0.2
Mof_N 	N 	0.6241	0.1775	0.046	-0.191
Mof_N 	N 	0.8685	0.8225	0.4466	-0.2
Mof_N 	N 	0.3759	0.5534	0.4219	-0.196
Mof_N 	N 	0.1315	0.954	0.5781	-0.2
Mof_N 	N 	0.6241	0.046	0.1775	-0.191
Mof_N 	N 	0.8685	0.4466	0.8225	-0.2
Mof_N 	N 	0.954	0.5781	0.1315	-0.2
Mof_N 	N 	0.5534	0.4219	0.3759	-0.196
Mof_N 	N 	0.4466	0.8225	0.8685	-0.2
Mof_N 	N 	0.046	0.1775	0.6241	-0.191
Mof_N 	N 	0.8225	0.8685	0.4466	-0.2
Mof_N 	N 	0.1775	0.6241	0.046	-0.191
Mof_N 	N 	0.5781	0.1315	0.954	-0.2
Mof_N 	N 	0.4219	0.3759	0.5534	-0.196
Mof_N 	N 	-0	0.273	0.6312	-0.085
Mof_N 	N 	0.6418	0.3688	0.3688	-0.09
Mof_N 	N 	0.3582	0.727	0.727	-0.089
Mof_N 	N 	-0	0.6312	0.273	-0.085
Mof_N 	N 	0.727	0.3582	0.727	-0.089
Mof_N 	N 	0.273	0	0.6312	-0.085
Mof_N 	N 	0.6312	0	0.273	-0.085
Mof_N 	N 	0.3688	0.6418	0.3688	-0.09
Mof_N 	N 	0.3688	0.3688	0.6418	-0.09
Mof_N 	N 	0.273	0.6312	-0	-0.085
Mof_N 	N 	0.6312	0.273	-0	-0.085
Mof_N 	N 	0.727	0.727	0.3582	-0.089
Mof_O 	O 	-4.88443e-17	0.3524	0.7874	-0.275
Mof_O 	O 	-0	0.4681	0.7741	-0.371
Mof_O 	O 	0.565	0.2126	0.2126	-0.275
Mof_O 	O 	0.694	0.2259	0.2259	-0.375
Mof_O 	O 	0.435	0.6476	0.6476	-0.281
Mof_O 	O 	0.306	0.5319	0.5319	-0.374
Mof_O 	O 	-0	0.7874	0.3524	-0.275
Mof_O 	O 	-4.88443e-17	0.7741	0.4681	-0.371
Mof_O 	O 	0.6476	0.435	0.6476	-0.281
Mof_O 	O 	0.5319	0.306	0.5319	-0.374
Mof_O 	O 	0.3524	-4.88443e-17	0.7874	-0.275
Mof_O 	O 	0.4681	0	0.7741	-0.371
Mof_O 	O 	0.7874	0	0.3524	-0.275
Mof_O 	O 	0.7741	0	0.4681	-0.371
Mof_O 	O 	0.2126	0.565	0.2126	-0.275
Mof_O 	O 	0.2259	0.694	0.2259	-0.375
Mof_O 	O 	0.2126	0.2126	0.565	-0.275
Mof_O 	O 	0.2259	0.2259	0.694	-0.375
Mof_O 	O 	0.3524	0.7874	-0	-0.275
Mof_O 	O 	0.4681	0.7741	-0	-0.371
Mof_O 	O 	0.7874	0.3524	-0	-0.275
Mof_O 	O 	0.7741	0.4681	-0	-0.371
Mof_O 	O 	0.6476	0.6476	0.435	-0.281
Mof_O 	O 	0.5319	0.5319	0.306	-0.374
Mof_O 	O 	2.44221e-17	0.5582	-0	-0.558
Mof_O 	O 	0.5582	0	-0	-0.558
Mof_O 	O 	0.4418	0.4418	0.4418	-0.569
Mof_O 	O 	-0	0	0.5582	-0.558
Mof_B 	B 	0.75	0.25	0.5	4.842
Mof_F 	F 	0.7643	0.2248	0.5601	-1.486
Mof_F 	F 	0.6647	0.2042	0.4399	-1.484
Mof_F 	F 	0.7958	0.2357	0.4605	-1.486
Mof_F 	F 	0.7752	0.3353	0.5395	-1.487
Mof_B 	B 	0.25	0.75	0.5	4.842
Mof_F 	F 	0.3353	0.7752	0.5395	-1.487
Mof_F 	F 	0.2357	0.7958	0.4605	-1.486
Mof_F 	F 	0.2042	0.6647	0.4399	-1.484
Mof_F 	F 	0.2248	0.7643	0.5601	-1.486
Mof_B 	B 	0.5	0.25	0.75	4.842
Mof_F 	F 	0.5395	0.3353	0.7752	-1.487
Mof_F 	F 	0.4605	0.2357	0.7958	-1.486
Mof_F 	F 	0.5601	0.2248	0.7643	-1.486
Mof_F 	F 	0.4399	0.2042	0.6647	-1.484
Mof_B 	B 	0.5	0.75	0.25	4.842
Mof_F 	F 	0.5601	0.7643	0.2248	-1.486
Mof_F 	F 	0.4399	0.6647	0.2042	-1.484
Mof_F 	F 	0.5395	0.7752	0.3353	-1.487
Mof_F 	F 	0.4605	0.7958	0.2357	-1.486
Mof_B 	B 	0.25	0.5	0.75	4.842
Mof_F 	F 	0.2042	0.4399	0.6647	-1.484
Mof_F 	F 	0.2248	0.5601	0.7643	-1.486
Mof_F 	F 	0.3353	0.5395	0.7752	-1.487
Mof_F 	F 	0.2357	0.4605	0.7958	-1.486
Mof_B 	B 	0.75	0.5	0.25	4.842
Mof_F 	F 	0.7958	0.4605	0.2357	-1.486
Mof_F 	F 	0.7752	0.5395	0.3353	-1.487
Mof_F 	F 	0.7643	0.5601	0.2248	-1.486
Mof_F 	F 	0.6647	0.4399	0.2042	-1.484
_end
