data_functionalizedCrystal
_audit_creation_method	'EQeq! by Chris Wilmer'
_symmetry_space_group_name_H-M	'P1'
_symmetry_Int_Tables_number	1
_symmetry_cell_setting	triclinic
loop_
_symmetry_equiv_pos_as_xyz
  x,y,z
_cell_length_a	37.011
_cell_length_b	8.5952
_cell_length_c	26.729
_cell_angle_alpha	90
_cell_angle_beta	129.231
_cell_angle_gamma	90
loop_
_atom_site_label
_atom_site_type_symbol
_atom_site_fract_x
_atom_site_fract_y
_atom_site_fract_z
_atom_site_charge
Mof_C 	C 	0.86414	0.6671	0.85498	0.02
Mof_H 	H 	0.8469	0.7096	0.8138	0.03
Mof_C 	C 	0.91078	0.639	0.88788	-0.042
Mof_H 	H 	0.9242	0.6612	0.8687	0.043
Mof_C 	C 	0.91534	0.5408	0.973	-0.104
Mof_H 	H 	0.9316	0.4951	0.0135	0.061
Mof_C 	C 	0.86827	0.5708	0.93703	0.047
Mof_H 	H 	0.8537	0.5437	0.9541	0.007
Mof_C 	C 	0.65562	0.676	0.68743	0.01
Mof_H 	H 	0.6694	0.7408	0.6759	0.015
Mof_C 	C 	0.60796	0.6558	0.6448	-0.103
Mof_H 	H 	0.5907	0.7079	0.6054	0.055
Mof_C 	C 	0.58485	0.5612	0.65823	0.021
Mof_C 	C 	0.61325	0.4891	0.71711	-0.069
Mof_H 	H 	0.5999	0.4229	0.7289	0.057
Mof_C 	C 	0.66105	0.511	0.75977	-0.004
Mof_H 	H 	0.6787	0.4602	0.7994	0.029
Mof_C 	C 	0.53444	0.5417	0.6125	-0.042
Mof_H 	H 	0.5188	0.6219	0.5825	0.04
Mof_C 	C 	0.50904	0.4401	0.60624	-0.077
Mof_H 	H 	0.5246	0.356	0.6341	0.051
Mof_C 	C 	0.45847	0.4277	0.5625	0.044
Mof_C 	C 	0.42932	0.5268	0.51138	-0.086
Mof_H 	H 	0.4424	0.6066	0.504	0.052
Mof_C 	C 	0.38125	0.5123	0.47044	0.035
Mof_H 	H 	0.3629	0.5854	0.438	0.021
Mof_C 	C 	0.38787	0.3004	0.5283	0.007
Mof_H 	H 	0.3742	0.2251	0.5366	0.038
Mof_C 	C 	0.43565	0.3138	0.56919	-0.072
Mof_H 	H 	0.4533	0.2428	0.6028	0.051
Mof_Mn	Mn	0.76283	0.62795	0.81378	0.838
Mof_S 	S 	0.83614	0.58718	0.67211	0.38
Mof_O 	O 	0.76326	0.6148	0.73236	-0.376
Mof_O 	O 	0.74128	0.3708	0.70301	-0.405
Mof_O 	O 	0.86062	0.5075	0.73236	-0.254
Mof_O 	O 	0.85615	0.7239	0.6678	-0.249
Mof_O 	O 	0.76696	0.5941	0.42944	-0.28
Mof_O 	O 	0.76957	0.3531	0.40087	-0.365
Mof_N 	N 	0.78576	0.6368	0.64889	-0.186
Mof_H 	H 	0.7773	0.7327	0.6413	0.15
Mof_N 	N 	0.68279	0.6046	0.74529	-0.176
Mof_N 	N 	0.36061	0.3934	0.4769	-0.131
Mof_N 	N 	0.8427	0.6375	0.87831	-0.182
Mof_C 	C 	0.75375	0.4987	0.69723	0.421
Mof_C 	C 	0.75434	0.5165	0.64087	-0.263
Mof_H 	H 	0.7229	0.5399	0.6022	0.126
Mof_H 	H 	0.7631	0.4175	0.634	0.125
Mof_C 	C 	0.82586	0.4483	0.61481	-0.07
Mof_C 	C 	0.83517	0.2937	0.6308	0.006
Mof_H 	H 	0.8477	0.2602	0.672	0.042
Mof_C 	C 	0.82561	0.1877	0.5844	-0.082
Mof_H 	H 	0.8319	0.0826	0.5948	0.069
Mof_C 	C 	0.80671	0.2377	0.52288	0.019
Mof_H 	H 	0.8005	0.1664	0.4921	0.035
Mof_C 	C 	0.79702	0.3948	0.50722	-0.092
Mof_C 	C 	0.80655	0.501	0.55364	0.015
Mof_H 	H 	0.8	0.6061	0.5436	0.05
Mof_C 	C 	0.77585	0.4525	0.44043	0.332
Mof_C 	C 	0.93799	0.577	0.9502	0.089
Mof_C 	C 	0.9872	0.5393	0.9864	-0.085
Mof_H 	H 	0.0007	0.6249	0.9827	0.056
Mof_C 	C 	0.15301	0.7779	0.21101	0.044
Mof_C 	C 	0.10533	0.7968	0.17371	-0.026
Mof_C 	C 	0.08528	0.937	0.16929	0.028
Mof_C 	C 	0.11666	0.0552	0.20486	-0.045
Mof_C 	C 	0.16425	0.0348	0.24204	0.037
Mof_C 	C 	0.03513	0.9572	0.13012	-0.027
Mof_C 	C 	0.00498	0.0115	0.07671	-0.041
Mof_C 	C 	0.9559	0.0423	0.04354	0.052
Mof_C 	C 	0.92458	0.0783	0.97885	-0.077
Mof_C 	C 	0.878	0.1073	0.94725	0.024
Mof_C 	C 	0.89002	0.0673	0.04199	0.042
Mof_C 	C 	0.93666	0.0378	0.07373	-0.091
Mof_C 	C 	0.35888	0.9355	0.35207	0.037
Mof_C 	C 	0.40537	0.9666	0.38532	-0.112
Mof_C 	C 	0.4211	0.8519	0.47624	-0.058
Mof_C 	C 	0.37386	0.8241	0.44013	0.013
Mof_H 	H 	0.1648	0.681	0.2124	0.013
Mof_H 	H 	0.086	0.712	0.1507	0.038
Mof_H 	H 	0.1054	0.1529	0.2038	0.043
Mof_H 	H 	0.184	0.1185	0.2654	0.012
Mof_H 	H 	0.0235	0.9207	0.1502	0.042
Mof_H 	H 	0.0149	0.0375	0.0534	0.035
Mof_H 	H 	0.9353	0.0833	0.9554	0.047
Mof_H 	H 	0.8584	0.1281	0.9032	0.026
Mof_H 	H 	0.8784	0.0609	0.0642	0.022
Mof_H 	H 	0.9559	0.0138	0.1175	0.059
Mof_H 	H 	0.3377	0.967	0.3092	0.021
Mof_H 	H 	0.4151	0.0163	0.3648	0.07
Mof_H 	H 	0.4415	0.8208	0.5192	0.043
Mof_H 	H 	0.3634	0.7762	0.4601	0.021
Mof_C 	C 	0.36414	0.1671	0.85498	0.017
Mof_H 	H 	0.3469	0.2096	0.8138	0.032
Mof_C 	C 	0.41078	0.139	0.88788	-0.041
Mof_H 	H 	0.4242	0.1612	0.8687	0.044
Mof_C 	C 	0.41534	0.0408	0.973	-0.104
Mof_H 	H 	0.4316	0.9951	0.0135	0.063
Mof_C 	C 	0.36827	0.0708	0.93703	0.045
Mof_H 	H 	0.3537	0.0437	0.9541	0.008
Mof_C 	C 	0.15562	0.176	0.68743	0.011
Mof_H 	H 	0.1694	0.2408	0.6759	0.016
Mof_C 	C 	0.10796	0.1558	0.6448	-0.101
Mof_H 	H 	0.0907	0.2079	0.6054	0.055
Mof_C 	C 	0.08485	0.0612	0.65823	0.021
Mof_C 	C 	0.11325	0.9891	0.71711	-0.066
Mof_H 	H 	0.0999	0.9229	0.7289	0.058
Mof_C 	C 	0.16105	0.011	0.75977	0.001
Mof_H 	H 	0.1787	0.9602	0.7994	0.028
Mof_C 	C 	0.03444	0.0417	0.6125	-0.042
Mof_H 	H 	0.0188	0.1219	0.5825	0.041
Mof_C 	C 	0.00904	0.9401	0.60624	-0.074
Mof_H 	H 	0.0246	0.856	0.6341	0.05
Mof_C 	C 	0.95847	0.9277	0.5625	0.047
Mof_C 	C 	0.92932	0.0268	0.51138	-0.089
Mof_H 	H 	0.9424	0.1066	0.504	0.053
Mof_C 	C 	0.88125	0.0123	0.47044	0.033
Mof_H 	H 	0.8629	0.0854	0.438	0.021
Mof_C 	C 	0.88787	0.8004	0.5283	0.007
Mof_H 	H 	0.8742	0.7251	0.5366	0.038
Mof_C 	C 	0.93565	0.8138	0.56919	-0.073
Mof_H 	H 	0.9533	0.7428	0.6028	0.051
Mof_Mn	Mn	0.26283	0.12795	0.81378	0.838
Mof_S 	S 	0.33614	0.08718	0.67211	0.385
Mof_O 	O 	0.26326	0.1148	0.73236	-0.374
Mof_O 	O 	0.24128	0.8708	0.70301	-0.403
Mof_O 	O 	0.36062	0.0075	0.73236	-0.254
Mof_O 	O 	0.35615	0.2239	0.6678	-0.25
Mof_O 	O 	0.26696	0.0941	0.42944	-0.279
Mof_O 	O 	0.26957	0.8531	0.40087	-0.365
Mof_N 	N 	0.28576	0.1368	0.64889	-0.187
Mof_H 	H 	0.2773	0.2327	0.6413	0.151
Mof_N 	N 	0.18279	0.1046	0.74529	-0.176
Mof_N 	N 	0.86061	0.8934	0.4769	-0.131
Mof_N 	N 	0.3427	0.1375	0.87831	-0.182
Mof_C 	C 	0.25375	0.9987	0.69723	0.417
Mof_C 	C 	0.25434	0.0165	0.64087	-0.256
Mof_H 	H 	0.2229	0.0399	0.6022	0.124
Mof_H 	H 	0.2631	0.9175	0.634	0.122
Mof_C 	C 	0.32586	0.9483	0.61481	-0.078
Mof_C 	C 	0.33517	0.7937	0.6308	0.013
Mof_H 	H 	0.3477	0.7602	0.672	0.04
Mof_C 	C 	0.32561	0.6877	0.5844	-0.088
Mof_H 	H 	0.3319	0.5826	0.5948	0.071
Mof_C 	C 	0.30671	0.7377	0.52288	0.024
Mof_H 	H 	0.3005	0.6664	0.4921	0.033
Mof_C 	C 	0.29702	0.8948	0.50722	-0.099
Mof_C 	C 	0.30655	0.001	0.55364	0.026
Mof_H 	H 	0.3	0.1061	0.5436	0.047
Mof_C 	C 	0.27585	0.9525	0.44043	0.333
Mof_C 	C 	0.43799	0.077	0.9502	0.09
Mof_C 	C 	0.4872	0.0393	0.9864	-0.085
Mof_H 	H 	0.5007	0.1249	0.9827	0.057
Mof_C 	C 	0.65301	0.2779	0.21101	0.045
Mof_C 	C 	0.60533	0.2968	0.17371	-0.024
Mof_C 	C 	0.58528	0.437	0.16929	0.028
Mof_C 	C 	0.61666	0.5552	0.20486	-0.044
Mof_C 	C 	0.66425	0.5348	0.24204	0.043
Mof_C 	C 	0.53513	0.4572	0.13012	-0.027
Mof_C 	C 	0.50498	0.5115	0.07671	-0.041
Mof_C 	C 	0.4559	0.5423	0.04354	0.054
Mof_C 	C 	0.42458	0.5783	0.97885	-0.081
Mof_C 	C 	0.378	0.6073	0.94725	0.023
Mof_C 	C 	0.39002	0.5673	0.04199	0.043
Mof_C 	C 	0.43666	0.5378	0.07373	-0.095
Mof_C 	C 	0.85888	0.4355	0.35207	0.034
Mof_C 	C 	0.90537	0.4666	0.38532	-0.113
Mof_C 	C 	0.9211	0.3519	0.47624	-0.058
Mof_C 	C 	0.87386	0.3241	0.44013	0.01
Mof_H 	H 	0.6648	0.181	0.2124	0.013
Mof_H 	H 	0.586	0.212	0.1507	0.037
Mof_H 	H 	0.6054	0.6529	0.2038	0.042
Mof_H 	H 	0.684	0.6185	0.2654	0.01
Mof_H 	H 	0.5235	0.4207	0.1502	0.042
Mof_H 	H 	0.5149	0.5375	0.0534	0.035
Mof_H 	H 	0.4353	0.5833	0.9554	0.048
Mof_H 	H 	0.3584	0.6281	0.9032	0.026
Mof_H 	H 	0.3784	0.5609	0.0642	0.021
Mof_H 	H 	0.4559	0.5138	0.1175	0.06
Mof_H 	H 	0.8377	0.467	0.3092	0.022
Mof_H 	H 	0.9151	0.5163	0.3648	0.071
Mof_H 	H 	0.9415	0.3208	0.5192	0.043
Mof_H 	H 	0.8634	0.2762	0.4601	0.022
Mof_C 	C 	0.13586	0.6671	0.64502	0.021
Mof_H 	H 	0.1531	0.7096	0.6862	0.031
Mof_C 	C 	0.08922	0.639	0.61212	-0.042
Mof_H 	H 	0.0758	0.6612	0.6313	0.044
Mof_C 	C 	0.08466	0.5408	0.527	-0.103
Mof_H 	H 	0.0684	0.4951	0.4865	0.062
Mof_C 	C 	0.13173	0.5708	0.56297	0.048
Mof_H 	H 	0.1463	0.5437	0.5459	0.008
Mof_C 	C 	0.34438	0.676	0.81257	0.011
Mof_H 	H 	0.3306	0.7408	0.8241	0.016
Mof_C 	C 	0.39204	0.6558	0.8552	-0.102
Mof_H 	H 	0.4093	0.7079	0.8946	0.056
Mof_C 	C 	0.41515	0.5612	0.84177	0.022
Mof_C 	C 	0.38675	0.4891	0.78289	-0.068
Mof_H 	H 	0.4001	0.4229	0.7711	0.058
Mof_C 	C 	0.33895	0.511	0.74023	-0.003
Mof_H 	H 	0.3213	0.4602	0.7006	0.029
Mof_C 	C 	0.46556	0.5417	0.8875	-0.042
Mof_H 	H 	0.4812	0.6219	0.9175	0.04
Mof_C 	C 	0.49096	0.4401	0.89376	-0.076
Mof_H 	H 	0.4754	0.356	0.8659	0.051
Mof_C 	C 	0.54153	0.4277	0.9375	0.045
Mof_C 	C 	0.57068	0.5268	0.98862	-0.086
Mof_H 	H 	0.5576	0.6066	0.996	0.052
Mof_C 	C 	0.61875	0.5123	0.02956	0.035
Mof_H 	H 	0.6371	0.5854	0.062	0.021
Mof_C 	C 	0.61213	0.3004	0.9717	0.007
Mof_H 	H 	0.6258	0.2251	0.9634	0.038
Mof_C 	C 	0.56435	0.3138	0.93081	-0.072
Mof_H 	H 	0.5467	0.2428	0.8972	0.051
Mof_Mn	Mn	0.23717	0.62795	0.68622	0.838
Mof_S 	S 	0.16386	0.58718	0.82789	0.38
Mof_O 	O 	0.23674	0.6148	0.76764	-0.376
Mof_O 	O 	0.25872	0.3708	0.79699	-0.405
Mof_O 	O 	0.13938	0.5075	0.76764	-0.254
Mof_O 	O 	0.14385	0.7239	0.8322	-0.249
Mof_O 	O 	0.23304	0.5941	0.07056	-0.28
Mof_O 	O 	0.23043	0.3531	0.09913	-0.365
Mof_N 	N 	0.21424	0.6368	0.85111	-0.186
Mof_H 	H 	0.2227	0.7327	0.8587	0.15
Mof_N 	N 	0.31721	0.6046	0.75471	-0.176
Mof_N 	N 	0.63939	0.3934	0.0231	-0.132
Mof_N 	N 	0.1573	0.6375	0.62169	-0.182
Mof_C 	C 	0.24625	0.4987	0.80277	0.421
Mof_C 	C 	0.24566	0.5165	0.85913	-0.263
Mof_H 	H 	0.2771	0.5399	0.8978	0.126
Mof_H 	H 	0.2369	0.4175	0.866	0.125
Mof_C 	C 	0.17414	0.4483	0.88519	-0.07
Mof_C 	C 	0.16483	0.2937	0.8692	0.007
Mof_H 	H 	0.1523	0.2602	0.828	0.042
Mof_C 	C 	0.17439	0.1877	0.9156	-0.082
Mof_H 	H 	0.1681	0.0826	0.9052	0.069
Mof_C 	C 	0.19329	0.2377	0.97712	0.019
Mof_H 	H 	0.1995	0.1664	0.0079	0.035
Mof_C 	C 	0.20298	0.3948	0.99278	-0.092
Mof_C 	C 	0.19345	0.501	0.94636	0.015
Mof_H 	H 	0.2	0.6061	0.9564	0.05
Mof_C 	C 	0.22415	0.4525	0.05957	0.333
Mof_C 	C 	0.06201	0.577	0.5498	0.09
Mof_C 	C 	0.0128	0.5393	0.5136	-0.085
Mof_H 	H 	0.9993	0.6249	0.5173	0.057
Mof_C 	C 	0.84699	0.7779	0.28899	0.044
Mof_C 	C 	0.89467	0.7968	0.32629	-0.026
Mof_C 	C 	0.91472	0.937	0.33071	0.028
Mof_C 	C 	0.88334	0.0552	0.29514	-0.045
Mof_C 	C 	0.83575	0.0348	0.25796	0.037
Mof_C 	C 	0.96487	0.9572	0.36988	-0.027
Mof_C 	C 	0.99502	0.0115	0.42329	-0.042
Mof_C 	C 	0.0441	0.0423	0.45646	0.053
Mof_C 	C 	0.07542	0.0783	0.52115	-0.078
Mof_C 	C 	0.122	0.1073	0.55275	0.024
Mof_C 	C 	0.10998	0.0673	0.45801	0.044
Mof_C 	C 	0.06334	0.0378	0.42627	-0.094
Mof_C 	C 	0.64112	0.9355	0.14793	0.037
Mof_C 	C 	0.59463	0.9666	0.11468	-0.112
Mof_C 	C 	0.5789	0.8519	0.02376	-0.058
Mof_C 	C 	0.62614	0.8241	0.05987	0.013
Mof_H 	H 	0.8352	0.681	0.2876	0.013
Mof_H 	H 	0.914	0.712	0.3493	0.038
Mof_H 	H 	0.8946	0.1529	0.2962	0.043
Mof_H 	H 	0.816	0.1185	0.2346	0.012
Mof_H 	H 	0.9765	0.9207	0.3498	0.041
Mof_H 	H 	0.9851	0.0375	0.4466	0.036
Mof_H 	H 	0.0647	0.0833	0.5446	0.047
Mof_H 	H 	0.1416	0.1281	0.5968	0.026
Mof_H 	H 	0.1216	0.0609	0.4358	0.021
Mof_H 	H 	0.0441	0.0138	0.3825	0.06
Mof_H 	H 	0.6623	0.967	0.1908	0.021
Mof_H 	H 	0.5849	0.0163	0.1352	0.07
Mof_H 	H 	0.5585	0.8208	0.9808	0.042
Mof_H 	H 	0.6366	0.7762	0.0399	0.021
Mof_C 	C 	0.63586	0.1671	0.64502	0.018
Mof_H 	H 	0.6531	0.2096	0.6862	0.031
Mof_C 	C 	0.58922	0.139	0.61212	-0.041
Mof_H 	H 	0.5758	0.1612	0.6313	0.044
Mof_C 	C 	0.58466	0.0408	0.527	-0.104
Mof_H 	H 	0.5684	0.9951	0.4865	0.063
Mof_C 	C 	0.63173	0.0708	0.56297	0.046
Mof_H 	H 	0.6463	0.0437	0.5459	0.008
Mof_C 	C 	0.84438	0.176	0.81257	0.011
Mof_H 	H 	0.8306	0.2408	0.8241	0.016
Mof_C 	C 	0.89204	0.1558	0.8552	-0.1
Mof_H 	H 	0.9093	0.2079	0.8946	0.055
Mof_C 	C 	0.91515	0.0612	0.84177	0.022
Mof_C 	C 	0.88675	0.9891	0.78289	-0.066
Mof_H 	H 	0.9001	0.9229	0.7711	0.058
Mof_C 	C 	0.83895	0.011	0.74023	0.002
Mof_H 	H 	0.8213	0.9602	0.7006	0.028
Mof_C 	C 	0.96556	0.0417	0.8875	-0.043
Mof_H 	H 	0.9812	0.1219	0.9175	0.041
Mof_C 	C 	0.99096	0.9401	0.89376	-0.074
Mof_H 	H 	0.9754	0.856	0.8659	0.05
Mof_C 	C 	0.04153	0.9277	0.9375	0.045
Mof_C 	C 	0.07068	0.0268	0.98862	-0.089
Mof_H 	H 	0.0576	0.1066	0.996	0.053
Mof_C 	C 	0.11875	0.0123	0.02956	0.032
Mof_H 	H 	0.1371	0.0854	0.062	0.022
Mof_C 	C 	0.11213	0.8004	0.9717	0.008
Mof_H 	H 	0.1258	0.7251	0.9634	0.037
Mof_C 	C 	0.06435	0.8138	0.93081	-0.074
Mof_H 	H 	0.0467	0.7428	0.8972	0.051
Mof_Mn	Mn	0.73717	0.12795	0.68622	0.838
Mof_S 	S 	0.66386	0.08718	0.82789	0.385
Mof_O 	O 	0.73674	0.1148	0.76764	-0.374
Mof_O 	O 	0.75872	0.8708	0.79699	-0.403
Mof_O 	O 	0.63938	0.0075	0.76764	-0.254
Mof_O 	O 	0.64385	0.2239	0.8322	-0.25
Mof_O 	O 	0.73304	0.0941	0.07056	-0.28
Mof_O 	O 	0.73043	0.8531	0.09913	-0.365
Mof_N 	N 	0.71424	0.1368	0.85111	-0.187
Mof_H 	H 	0.7227	0.2327	0.8587	0.151
Mof_N 	N 	0.81721	0.1046	0.75471	-0.176
Mof_N 	N 	0.13939	0.8934	0.0231	-0.13
Mof_N 	N 	0.6573	0.1375	0.62169	-0.182
Mof_C 	C 	0.74625	0.9987	0.80277	0.417
Mof_C 	C 	0.74566	0.0165	0.85913	-0.256
Mof_H 	H 	0.7771	0.0399	0.8978	0.124
Mof_H 	H 	0.7369	0.9175	0.866	0.122
Mof_C 	C 	0.67414	0.9483	0.88519	-0.08
Mof_C 	C 	0.66483	0.7937	0.8692	0.014
Mof_H 	H 	0.6523	0.7602	0.828	0.04
Mof_C 	C 	0.67439	0.6877	0.9156	-0.089
Mof_H 	H 	0.6681	0.5826	0.9052	0.072
Mof_C 	C 	0.69329	0.7377	0.97712	0.025
Mof_H 	H 	0.6995	0.6664	0.0079	0.033
Mof_C 	C 	0.70298	0.8948	0.99278	-0.1
Mof_C 	C 	0.69345	0.001	0.94636	0.027
Mof_H 	H 	0.7	0.1061	0.9564	0.046
Mof_C 	C 	0.72415	0.9525	0.05957	0.334
Mof_C 	C 	0.56201	0.077	0.5498	0.09
Mof_C 	C 	0.5128	0.0393	0.5136	-0.085
Mof_H 	H 	0.4993	0.1249	0.5173	0.057
Mof_C 	C 	0.34699	0.2779	0.28899	0.045
Mof_C 	C 	0.39467	0.2968	0.32629	-0.024
Mof_C 	C 	0.41472	0.437	0.33071	0.028
Mof_C 	C 	0.38334	0.5552	0.29514	-0.044
Mof_C 	C 	0.33575	0.5348	0.25796	0.043
Mof_C 	C 	0.46487	0.4572	0.36988	-0.027
Mof_C 	C 	0.49502	0.5115	0.42329	-0.041
Mof_C 	C 	0.5441	0.5423	0.45646	0.054
Mof_C 	C 	0.57542	0.5783	0.52115	-0.081
Mof_C 	C 	0.622	0.6073	0.55275	0.024
Mof_C 	C 	0.60998	0.5673	0.45801	0.043
Mof_C 	C 	0.56334	0.5378	0.42627	-0.095
Mof_C 	C 	0.14112	0.4355	0.14793	0.034
Mof_C 	C 	0.09463	0.4666	0.11468	-0.113
Mof_C 	C 	0.0789	0.3519	0.02376	-0.057
Mof_C 	C 	0.12614	0.3241	0.05987	0.009
Mof_H 	H 	0.3352	0.181	0.2876	0.013
Mof_H 	H 	0.414	0.212	0.3493	0.037
Mof_H 	H 	0.3946	0.6529	0.2962	0.042
Mof_H 	H 	0.316	0.6185	0.2346	0.01
Mof_H 	H 	0.4765	0.4207	0.3498	0.042
Mof_H 	H 	0.4851	0.5375	0.4466	0.035
Mof_H 	H 	0.5647	0.5833	0.5446	0.048
Mof_H 	H 	0.6416	0.6281	0.5968	0.026
Mof_H 	H 	0.6216	0.5609	0.4358	0.021
Mof_H 	H 	0.5441	0.5138	0.3825	0.06
Mof_H 	H 	0.1623	0.467	0.1908	0.022
Mof_H 	H 	0.0849	0.5163	0.1352	0.071
Mof_H 	H 	0.0585	0.3208	0.9808	0.043
Mof_H 	H 	0.1366	0.2762	0.0399	0.022
Mof_C 	C 	0.13586	0.3329	0.14502	0.021
Mof_H 	H 	0.1531	0.2904	0.1862	0.031
Mof_C 	C 	0.08922	0.361	0.11212	-0.041
Mof_H 	H 	0.0758	0.3388	0.1313	0.044
Mof_C 	C 	0.08466	0.4592	0.027	-0.103
Mof_H 	H 	0.0684	0.5049	0.9865	0.062
Mof_C 	C 	0.13173	0.4292	0.06297	0.048
Mof_H 	H 	0.1463	0.4563	0.0459	0.008
Mof_C 	C 	0.34438	0.324	0.31257	0.011
Mof_H 	H 	0.3306	0.2592	0.3241	0.016
Mof_C 	C 	0.39204	0.3442	0.3552	-0.102
Mof_H 	H 	0.4093	0.2921	0.3946	0.056
Mof_C 	C 	0.41515	0.4388	0.34177	0.022
Mof_C 	C 	0.38675	0.5109	0.28289	-0.068
Mof_H 	H 	0.4001	0.5771	0.2711	0.058
Mof_C 	C 	0.33895	0.489	0.24023	-0.003
Mof_H 	H 	0.3213	0.5398	0.2006	0.029
Mof_C 	C 	0.46556	0.4583	0.3875	-0.042
Mof_H 	H 	0.4812	0.3781	0.4175	0.04
Mof_C 	C 	0.49096	0.5599	0.39376	-0.077
Mof_H 	H 	0.4754	0.644	0.3659	0.051
Mof_C 	C 	0.54153	0.5723	0.4375	0.044
Mof_C 	C 	0.57068	0.4732	0.48862	-0.086
Mof_H 	H 	0.5576	0.3934	0.496	0.052
Mof_C 	C 	0.61875	0.4877	0.52956	0.035
Mof_H 	H 	0.6371	0.4146	0.562	0.021
Mof_C 	C 	0.61213	0.6996	0.4717	0.007
Mof_H 	H 	0.6258	0.7749	0.4634	0.038
Mof_C 	C 	0.56435	0.6862	0.43081	-0.072
Mof_H 	H 	0.5467	0.7572	0.3972	0.051
Mof_Mn	Mn	0.23717	0.37205	0.18622	0.838
Mof_S 	S 	0.16386	0.41282	0.32789	0.38
Mof_O 	O 	0.23674	0.3852	0.26764	-0.376
Mof_O 	O 	0.25872	0.6292	0.29699	-0.405
Mof_O 	O 	0.13938	0.4925	0.26764	-0.254
Mof_O 	O 	0.14385	0.2761	0.3322	-0.249
Mof_O 	O 	0.23304	0.4059	0.57056	-0.28
Mof_O 	O 	0.23043	0.6469	0.59913	-0.365
Mof_N 	N 	0.21424	0.3632	0.35111	-0.186
Mof_H 	H 	0.2227	0.2673	0.3587	0.15
Mof_N 	N 	0.31721	0.3954	0.25471	-0.176
Mof_N 	N 	0.63939	0.6066	0.5231	-0.131
Mof_N 	N 	0.1573	0.3625	0.12169	-0.182
Mof_C 	C 	0.24625	0.5013	0.30277	0.421
Mof_C 	C 	0.24566	0.4835	0.35913	-0.263
Mof_H 	H 	0.2771	0.4601	0.3978	0.126
Mof_H 	H 	0.2369	0.5825	0.366	0.125
Mof_C 	C 	0.17414	0.5517	0.38519	-0.07
Mof_C 	C 	0.16483	0.7063	0.3692	0.006
Mof_H 	H 	0.1523	0.7398	0.328	0.042
Mof_C 	C 	0.17439	0.8123	0.4156	-0.082
Mof_H 	H 	0.1681	0.9174	0.4052	0.069
Mof_C 	C 	0.19329	0.7623	0.47712	0.019
Mof_H 	H 	0.1995	0.8336	0.5079	0.035
Mof_C 	C 	0.20298	0.6052	0.49278	-0.092
Mof_C 	C 	0.19345	0.499	0.44636	0.015
Mof_H 	H 	0.2	0.3939	0.4564	0.05
Mof_C 	C 	0.22415	0.5475	0.55957	0.332
Mof_C 	C 	0.06201	0.423	0.0498	0.089
Mof_C 	C 	0.0128	0.4607	0.0136	-0.085
Mof_H 	H 	0.9993	0.3751	0.0173	0.056
Mof_C 	C 	0.84699	0.2221	0.78899	0.044
Mof_C 	C 	0.89467	0.2032	0.82629	-0.026
Mof_C 	C 	0.91472	0.063	0.83071	0.028
Mof_C 	C 	0.88334	0.9448	0.79514	-0.045
Mof_C 	C 	0.83575	0.9652	0.75796	0.037
Mof_C 	C 	0.96487	0.0428	0.86988	-0.027
Mof_C 	C 	0.99502	0.9885	0.92329	-0.041
Mof_C 	C 	0.0441	0.9577	0.95646	0.052
Mof_C 	C 	0.07542	0.9217	0.02115	-0.077
Mof_C 	C 	0.122	0.8927	0.05275	0.024
Mof_C 	C 	0.10998	0.9327	0.95801	0.042
Mof_C 	C 	0.06334	0.9622	0.92627	-0.091
Mof_C 	C 	0.64112	0.0645	0.64793	0.037
Mof_C 	C 	0.59463	0.0334	0.61468	-0.112
Mof_C 	C 	0.5789	0.1481	0.52376	-0.058
Mof_C 	C 	0.62614	0.1759	0.55987	0.013
Mof_H 	H 	0.8352	0.319	0.7876	0.013
Mof_H 	H 	0.914	0.288	0.8493	0.038
Mof_H 	H 	0.8946	0.8471	0.7962	0.043
Mof_H 	H 	0.816	0.8815	0.7346	0.012
Mof_H 	H 	0.9765	0.0793	0.8498	0.042
Mof_H 	H 	0.9851	0.9625	0.9466	0.035
Mof_H 	H 	0.0647	0.9167	0.0446	0.047
Mof_H 	H 	0.1416	0.8719	0.0968	0.026
Mof_H 	H 	0.1216	0.9391	0.9358	0.022
Mof_H 	H 	0.0441	0.9862	0.8825	0.059
Mof_H 	H 	0.6623	0.033	0.6908	0.021
Mof_H 	H 	0.5849	0.9837	0.6352	0.07
Mof_H 	H 	0.5585	0.1792	0.4808	0.043
Mof_H 	H 	0.6366	0.2238	0.5399	0.021
Mof_C 	C 	0.63586	0.8329	0.14502	0.017
Mof_H 	H 	0.6531	0.7904	0.1862	0.032
Mof_C 	C 	0.58922	0.861	0.11212	-0.041
Mof_H 	H 	0.5758	0.8388	0.1313	0.044
Mof_C 	C 	0.58466	0.9592	0.027	-0.104
Mof_H 	H 	0.5684	0.0049	0.9865	0.063
Mof_C 	C 	0.63173	0.9292	0.06297	0.045
Mof_H 	H 	0.6463	0.9563	0.0459	0.008
Mof_C 	C 	0.84438	0.824	0.31257	0.011
Mof_H 	H 	0.8306	0.7592	0.3241	0.016
Mof_C 	C 	0.89204	0.8442	0.3552	-0.101
Mof_H 	H 	0.9093	0.7921	0.3946	0.055
Mof_C 	C 	0.91515	0.9388	0.34177	0.021
Mof_C 	C 	0.88675	0.0109	0.28289	-0.066
Mof_H 	H 	0.9001	0.0771	0.2711	0.058
Mof_C 	C 	0.83895	0.989	0.24023	0.001
Mof_H 	H 	0.8213	0.0398	0.2006	0.028
Mof_C 	C 	0.96556	0.9583	0.3875	-0.042
Mof_H 	H 	0.9812	0.8781	0.4175	0.041
Mof_C 	C 	0.99096	0.0599	0.39376	-0.074
Mof_H 	H 	0.9754	0.144	0.3659	0.05
Mof_C 	C 	0.04153	0.0723	0.4375	0.047
Mof_C 	C 	0.07068	0.9732	0.48862	-0.089
Mof_H 	H 	0.0576	0.8934	0.496	0.053
Mof_C 	C 	0.11875	0.9877	0.52956	0.033
Mof_H 	H 	0.1371	0.9146	0.562	0.021
Mof_C 	C 	0.11213	0.1996	0.4717	0.007
Mof_H 	H 	0.1258	0.2749	0.4634	0.038
Mof_C 	C 	0.06435	0.1862	0.43081	-0.073
Mof_H 	H 	0.0467	0.2572	0.3972	0.051
Mof_Mn	Mn	0.73717	0.87205	0.18622	0.838
Mof_S 	S 	0.66386	0.91282	0.32789	0.385
Mof_O 	O 	0.73674	0.8852	0.26764	-0.374
Mof_O 	O 	0.75872	0.1292	0.29699	-0.403
Mof_O 	O 	0.63938	0.9925	0.26764	-0.254
Mof_O 	O 	0.64385	0.7761	0.3322	-0.25
Mof_O 	O 	0.73304	0.9059	0.57056	-0.279
Mof_O 	O 	0.73043	0.1469	0.59913	-0.365
Mof_N 	N 	0.71424	0.8632	0.35111	-0.187
Mof_H 	H 	0.7227	0.7673	0.3587	0.151
Mof_N 	N 	0.81721	0.8954	0.25471	-0.176
Mof_N 	N 	0.13939	0.1066	0.5231	-0.131
Mof_N 	N 	0.6573	0.8625	0.12169	-0.182
Mof_C 	C 	0.74625	0.0013	0.30277	0.417
Mof_C 	C 	0.74566	0.9835	0.35913	-0.256
Mof_H 	H 	0.7771	0.9601	0.3978	0.124
Mof_H 	H 	0.7369	0.0825	0.366	0.122
Mof_C 	C 	0.67414	0.0517	0.38519	-0.078
Mof_C 	C 	0.66483	0.2063	0.3692	0.013
Mof_H 	H 	0.6523	0.2398	0.328	0.04
Mof_C 	C 	0.67439	0.3123	0.4156	-0.088
Mof_H 	H 	0.6681	0.4174	0.4052	0.071
Mof_C 	C 	0.69329	0.2623	0.47712	0.024
Mof_H 	H 	0.6995	0.3336	0.5079	0.033
Mof_C 	C 	0.70298	0.1052	0.49278	-0.099
Mof_C 	C 	0.69345	0.999	0.44636	0.026
Mof_H 	H 	0.7	0.8939	0.4564	0.047
Mof_C 	C 	0.72415	0.0475	0.55957	0.333
Mof_C 	C 	0.56201	0.923	0.0498	0.09
Mof_C 	C 	0.5128	0.9607	0.0136	-0.085
Mof_H 	H 	0.4993	0.8751	0.0173	0.057
Mof_C 	C 	0.34699	0.7221	0.78899	0.045
Mof_C 	C 	0.39467	0.7032	0.82629	-0.024
Mof_C 	C 	0.41472	0.563	0.83071	0.028
Mof_C 	C 	0.38334	0.4448	0.79514	-0.044
Mof_C 	C 	0.33575	0.4652	0.75796	0.043
Mof_C 	C 	0.46487	0.5428	0.86988	-0.027
Mof_C 	C 	0.49502	0.4885	0.92329	-0.041
Mof_C 	C 	0.5441	0.4577	0.95646	0.054
Mof_C 	C 	0.57542	0.4217	0.02115	-0.081
Mof_C 	C 	0.622	0.3927	0.05275	0.023
Mof_C 	C 	0.60998	0.4327	0.95801	0.043
Mof_C 	C 	0.56334	0.4622	0.92627	-0.095
Mof_C 	C 	0.14112	0.5645	0.64793	0.034
Mof_C 	C 	0.09463	0.5334	0.61468	-0.113
Mof_C 	C 	0.0789	0.6481	0.52376	-0.058
Mof_C 	C 	0.12614	0.6759	0.55987	0.01
Mof_H 	H 	0.3352	0.819	0.7876	0.013
Mof_H 	H 	0.414	0.788	0.8493	0.037
Mof_H 	H 	0.3946	0.3471	0.7962	0.042
Mof_H 	H 	0.316	0.3815	0.7346	0.01
Mof_H 	H 	0.4765	0.5793	0.8498	0.042
Mof_H 	H 	0.4851	0.4625	0.9466	0.035
Mof_H 	H 	0.5647	0.4167	0.0446	0.048
Mof_H 	H 	0.6416	0.3719	0.0968	0.026
Mof_H 	H 	0.6216	0.4391	0.9358	0.021
Mof_H 	H 	0.5441	0.4862	0.8825	0.06
Mof_H 	H 	0.1623	0.533	0.6908	0.022
Mof_H 	H 	0.0849	0.4837	0.6352	0.071
Mof_H 	H 	0.0585	0.6792	0.4808	0.043
Mof_H 	H 	0.1366	0.7238	0.5399	0.022
Mof_C 	C 	0.86414	0.3329	0.35498	0.021
Mof_H 	H 	0.8469	0.2904	0.3138	0.031
Mof_C 	C 	0.91078	0.361	0.38788	-0.042
Mof_H 	H 	0.9242	0.3388	0.3687	0.044
Mof_C 	C 	0.91534	0.4592	0.473	-0.103
Mof_H 	H 	0.9316	0.5049	0.5135	0.062
Mof_C 	C 	0.86827	0.4292	0.43703	0.048
Mof_H 	H 	0.8537	0.4563	0.4541	0.008
Mof_C 	C 	0.65562	0.324	0.18743	0.011
Mof_H 	H 	0.6694	0.2592	0.1759	0.016
Mof_C 	C 	0.60796	0.3442	0.1448	-0.102
Mof_H 	H 	0.5907	0.2921	0.1054	0.056
Mof_C 	C 	0.58485	0.4388	0.15823	0.022
Mof_C 	C 	0.61325	0.5109	0.21711	-0.068
Mof_H 	H 	0.5999	0.5771	0.2289	0.058
Mof_C 	C 	0.66105	0.489	0.25977	-0.003
Mof_H 	H 	0.6787	0.5398	0.2994	0.029
Mof_C 	C 	0.53444	0.4583	0.1125	-0.042
Mof_H 	H 	0.5188	0.3781	0.0825	0.04
Mof_C 	C 	0.50904	0.5599	0.10624	-0.076
Mof_H 	H 	0.5246	0.644	0.1341	0.051
Mof_C 	C 	0.45847	0.5723	0.0625	0.045
Mof_C 	C 	0.42932	0.4732	0.01138	-0.086
Mof_H 	H 	0.4424	0.3934	0.004	0.052
Mof_C 	C 	0.38125	0.4877	0.97044	0.035
Mof_H 	H 	0.3629	0.4146	0.938	0.021
Mof_C 	C 	0.38787	0.6996	0.0283	0.007
Mof_H 	H 	0.3742	0.7749	0.0366	0.038
Mof_C 	C 	0.43565	0.6862	0.06919	-0.072
Mof_H 	H 	0.4533	0.7572	0.1028	0.051
Mof_Mn	Mn	0.76283	0.37205	0.31378	0.838
Mof_S 	S 	0.83614	0.41282	0.17211	0.38
Mof_O 	O 	0.76326	0.3852	0.23236	-0.376
Mof_O 	O 	0.74128	0.6292	0.20301	-0.405
Mof_O 	O 	0.86062	0.4925	0.23236	-0.254
Mof_O 	O 	0.85615	0.2761	0.1678	-0.249
Mof_O 	O 	0.76696	0.4059	0.92944	-0.28
Mof_O 	O 	0.76957	0.6469	0.90087	-0.365
Mof_N 	N 	0.78576	0.3632	0.14889	-0.186
Mof_H 	H 	0.7773	0.2673	0.1413	0.15
Mof_N 	N 	0.68279	0.3954	0.24529	-0.176
Mof_N 	N 	0.36061	0.6066	0.9769	-0.132
Mof_N 	N 	0.8427	0.3625	0.37831	-0.182
Mof_C 	C 	0.75375	0.5013	0.19723	0.421
Mof_C 	C 	0.75434	0.4835	0.14087	-0.263
Mof_H 	H 	0.7229	0.4601	0.1022	0.126
Mof_H 	H 	0.7631	0.5825	0.134	0.125
Mof_C 	C 	0.82586	0.5517	0.11481	-0.07
Mof_C 	C 	0.83517	0.7063	0.1308	0.007
Mof_H 	H 	0.8477	0.7398	0.172	0.042
Mof_C 	C 	0.82561	0.8123	0.0844	-0.082
Mof_H 	H 	0.8319	0.9174	0.0948	0.069
Mof_C 	C 	0.80671	0.7623	0.02288	0.019
Mof_H 	H 	0.8005	0.8336	0.9921	0.035
Mof_C 	C 	0.79702	0.6052	0.00722	-0.092
Mof_C 	C 	0.80655	0.499	0.05364	0.015
Mof_H 	H 	0.8	0.3939	0.0436	0.05
Mof_C 	C 	0.77585	0.5475	0.94043	0.333
Mof_C 	C 	0.93799	0.423	0.4502	0.09
Mof_C 	C 	0.9872	0.4607	0.4864	-0.085
Mof_H 	H 	0.0007	0.3751	0.4827	0.057
Mof_C 	C 	0.15301	0.2221	0.71101	0.044
Mof_C 	C 	0.10533	0.2032	0.67371	-0.026
Mof_C 	C 	0.08528	0.063	0.66929	0.028
Mof_C 	C 	0.11666	0.9448	0.70486	-0.045
Mof_C 	C 	0.16425	0.9652	0.74204	0.037
Mof_C 	C 	0.03513	0.0428	0.63012	-0.027
Mof_C 	C 	0.00498	0.9885	0.57671	-0.042
Mof_C 	C 	0.9559	0.9577	0.54354	0.053
Mof_C 	C 	0.92458	0.9217	0.47885	-0.078
Mof_C 	C 	0.878	0.8927	0.44725	0.024
Mof_C 	C 	0.89002	0.9327	0.54199	0.044
Mof_C 	C 	0.93666	0.9622	0.57373	-0.094
Mof_C 	C 	0.35888	0.0645	0.85207	0.037
Mof_C 	C 	0.40537	0.0334	0.88532	-0.112
Mof_C 	C 	0.4211	0.1481	0.97624	-0.058
Mof_C 	C 	0.37386	0.1759	0.94013	0.013
Mof_H 	H 	0.1648	0.319	0.7124	0.013
Mof_H 	H 	0.086	0.288	0.6507	0.038
Mof_H 	H 	0.1054	0.8471	0.7038	0.043
Mof_H 	H 	0.184	0.8815	0.7654	0.012
Mof_H 	H 	0.0235	0.0793	0.6502	0.041
Mof_H 	H 	0.0149	0.9625	0.5534	0.036
Mof_H 	H 	0.9353	0.9167	0.4554	0.047
Mof_H 	H 	0.8584	0.8719	0.4032	0.026
Mof_H 	H 	0.8784	0.9391	0.5642	0.021
Mof_H 	H 	0.9559	0.9862	0.6175	0.06
Mof_H 	H 	0.3377	0.033	0.8092	0.021
Mof_H 	H 	0.4151	0.9837	0.8648	0.07
Mof_H 	H 	0.4415	0.1792	0.0192	0.042
Mof_H 	H 	0.3634	0.2238	0.9601	0.021
Mof_C 	C 	0.36414	0.8329	0.35498	0.018
Mof_H 	H 	0.3469	0.7904	0.3138	0.031
Mof_C 	C 	0.41078	0.861	0.38788	-0.041
Mof_H 	H 	0.4242	0.8388	0.3687	0.044
Mof_C 	C 	0.41534	0.9592	0.473	-0.104
Mof_H 	H 	0.4316	0.0049	0.5135	0.063
Mof_C 	C 	0.36827	0.9292	0.43703	0.046
Mof_H 	H 	0.3537	0.9563	0.4541	0.008
Mof_C 	C 	0.15562	0.824	0.18743	0.011
Mof_H 	H 	0.1694	0.7592	0.1759	0.016
Mof_C 	C 	0.10796	0.8442	0.1448	-0.1
Mof_H 	H 	0.0907	0.7921	0.1054	0.055
Mof_C 	C 	0.08485	0.9388	0.15823	0.022
Mof_C 	C 	0.11325	0.0109	0.21711	-0.066
Mof_H 	H 	0.0999	0.0771	0.2289	0.058
Mof_C 	C 	0.16105	0.989	0.25977	0.002
Mof_H 	H 	0.1787	0.0398	0.2994	0.028
Mof_C 	C 	0.03444	0.9583	0.1125	-0.043
Mof_H 	H 	0.0188	0.8781	0.0825	0.041
Mof_C 	C 	0.00904	0.0599	0.10624	-0.074
Mof_H 	H 	0.0246	0.144	0.1341	0.05
Mof_C 	C 	0.95847	0.0723	0.0625	0.045
Mof_C 	C 	0.92932	0.9732	0.01138	-0.089
Mof_H 	H 	0.9424	0.8934	0.004	0.053
Mof_C 	C 	0.88125	0.9877	0.97044	0.032
Mof_H 	H 	0.8629	0.9146	0.938	0.022
Mof_C 	C 	0.88787	0.1996	0.0283	0.008
Mof_H 	H 	0.8742	0.2749	0.0366	0.037
Mof_C 	C 	0.93565	0.1862	0.06919	-0.074
Mof_H 	H 	0.9533	0.2572	0.1028	0.051
Mof_Mn	Mn	0.26283	0.87205	0.31378	0.838
Mof_S 	S 	0.33614	0.91282	0.17211	0.385
Mof_O 	O 	0.26326	0.8852	0.23236	-0.374
Mof_O 	O 	0.24128	0.1292	0.20301	-0.403
Mof_O 	O 	0.36062	0.9925	0.23236	-0.254
Mof_O 	O 	0.35615	0.7761	0.1678	-0.25
Mof_O 	O 	0.26696	0.9059	0.92944	-0.28
Mof_O 	O 	0.26957	0.1469	0.90087	-0.365
Mof_N 	N 	0.28576	0.8632	0.14889	-0.187
Mof_H 	H 	0.2773	0.7673	0.1413	0.151
Mof_N 	N 	0.18279	0.8954	0.24529	-0.176
Mof_N 	N 	0.86061	0.1066	0.9769	-0.13
Mof_N 	N 	0.3427	0.8625	0.37831	-0.182
Mof_C 	C 	0.25375	0.0013	0.19723	0.417
Mof_C 	C 	0.25434	0.9835	0.14087	-0.256
Mof_H 	H 	0.2229	0.9601	0.1022	0.124
Mof_H 	H 	0.2631	0.0825	0.134	0.122
Mof_C 	C 	0.32586	0.0517	0.11481	-0.08
Mof_C 	C 	0.33517	0.2063	0.1308	0.014
Mof_H 	H 	0.3477	0.2398	0.172	0.04
Mof_C 	C 	0.32561	0.3123	0.0844	-0.089
Mof_H 	H 	0.3319	0.4174	0.0948	0.072
Mof_C 	C 	0.30671	0.2623	0.02288	0.025
Mof_H 	H 	0.3005	0.3336	0.9921	0.033
Mof_C 	C 	0.29702	0.1052	0.00722	-0.1
Mof_C 	C 	0.30655	0.999	0.05364	0.027
Mof_H 	H 	0.3	0.8939	0.0436	0.046
Mof_C 	C 	0.27585	0.0475	0.94043	0.334
Mof_C 	C 	0.43799	0.923	0.4502	0.09
Mof_C 	C 	0.4872	0.9607	0.4864	-0.085
Mof_H 	H 	0.5007	0.8751	0.4827	0.057
Mof_C 	C 	0.65301	0.7221	0.71101	0.045
Mof_C 	C 	0.60533	0.7032	0.67371	-0.024
Mof_C 	C 	0.58528	0.563	0.66929	0.028
Mof_C 	C 	0.61666	0.4448	0.70486	-0.044
Mof_C 	C 	0.66425	0.4652	0.74204	0.043
Mof_C 	C 	0.53513	0.5428	0.63012	-0.027
Mof_C 	C 	0.50498	0.4885	0.57671	-0.041
Mof_C 	C 	0.4559	0.4577	0.54354	0.054
Mof_C 	C 	0.42458	0.4217	0.47885	-0.081
Mof_C 	C 	0.378	0.3927	0.44725	0.024
Mof_C 	C 	0.39002	0.4327	0.54199	0.043
Mof_C 	C 	0.43666	0.4622	0.57373	-0.095
Mof_C 	C 	0.85888	0.5645	0.85207	0.034
Mof_C 	C 	0.90537	0.5334	0.88532	-0.113
Mof_C 	C 	0.9211	0.6481	0.97624	-0.057
Mof_C 	C 	0.87386	0.6759	0.94013	0.009
Mof_H 	H 	0.6648	0.819	0.7124	0.013
Mof_H 	H 	0.586	0.788	0.6507	0.037
Mof_H 	H 	0.6054	0.3471	0.7038	0.042
Mof_H 	H 	0.684	0.3815	0.7654	0.01
Mof_H 	H 	0.5235	0.5793	0.6502	0.042
Mof_H 	H 	0.5149	0.4625	0.5534	0.035
Mof_H 	H 	0.4353	0.4167	0.4554	0.048
Mof_H 	H 	0.3584	0.3719	0.4032	0.026
Mof_H 	H 	0.3784	0.4391	0.5642	0.021
Mof_H 	H 	0.4559	0.4862	0.6175	0.06
Mof_H 	H 	0.8377	0.533	0.8092	0.022
Mof_H 	H 	0.9151	0.4837	0.8648	0.071
Mof_H 	H 	0.9415	0.6792	0.0192	0.043
Mof_H 	H 	0.8634	0.7238	0.9601	0.022
_end
