data_functionalizedCrystal
_audit_creation_method	'EQeq! by Chris Wilmer'
_symmetry_space_group_name_H-M	'P1'
_symmetry_Int_Tables_number	1
_symmetry_cell_setting	triclinic
loop_
_symmetry_equiv_pos_as_xyz
  x,y,z
_cell_length_a	24.743
_cell_length_b	24.743
_cell_length_c	24.743
_cell_angle_alpha	90
_cell_angle_beta	90
_cell_angle_gamma	90
loop_
_atom_site_label
_atom_site_type_symbol
_atom_site_fract_x
_atom_site_fract_y
_atom_site_fract_z
_atom_site_charge
Mof_N 	N 	0.9106	0.5207	0.1866	-0.221
Mof_C 	C 	0.867	0.5317	0.1578	0.025
Mof_N 	N 	0.9106	0.0207	0.6866	-0.221
Mof_C 	C 	0.867	0.0317	0.6578	0.025
Mof_N 	N 	0.4106	0.5207	0.6866	-0.221
Mof_C 	C 	0.367	0.5317	0.6578	0.025
Mof_N 	N 	0.4106	0.0207	0.1866	-0.22
Mof_C 	C 	0.367	0.0317	0.1578	0.026
Mof_N 	N 	0.3394	0.2293	0.6866	-0.221
Mof_C 	C 	0.383	0.2183	0.6578	0.025
Mof_N 	N 	0.3394	0.7293	0.1866	-0.221
Mof_C 	C 	0.383	0.7183	0.1578	0.025
Mof_N 	N 	0.8394	0.2293	0.1866	-0.221
Mof_C 	C 	0.883	0.2183	0.1578	0.025
Mof_N 	N 	0.8394	0.7293	0.6866	-0.221
Mof_C 	C 	0.883	0.7183	0.6578	0.025
Mof_N 	N 	0.8394	0.0207	0.0634	-0.22
Mof_C 	C 	0.883	0.0317	0.0922	0.025
Mof_N 	N 	0.8394	0.5207	0.5634	-0.221
Mof_C 	C 	0.883	0.5317	0.5922	0.025
Mof_N 	N 	0.3394	0.0207	0.5634	-0.22
Mof_C 	C 	0.383	0.0317	0.5922	0.026
Mof_N 	N 	0.3394	0.5207	0.0634	-0.221
Mof_C 	C 	0.383	0.5317	0.0922	0.025
Mof_N 	N 	0.4106	0.7293	0.5634	-0.221
Mof_C 	C 	0.367	0.7183	0.5922	0.025
Mof_N 	N 	0.4106	0.2293	0.0634	-0.221
Mof_C 	C 	0.367	0.2183	0.0922	0.026
Mof_N 	N 	0.9106	0.7293	0.0634	-0.221
Mof_C 	C 	0.867	0.7183	0.0922	0.025
Mof_N 	N 	0.9106	0.2293	0.5634	-0.221
Mof_C 	C 	0.867	0.2183	0.5922	0.025
Mof_N 	N 	0.1866	0.9106	0.5207	-0.221
Mof_C 	C 	0.1578	0.867	0.5317	0.025
Mof_N 	N 	0.1866	0.4106	0.0207	-0.22
Mof_C 	C 	0.1578	0.367	0.0317	0.026
Mof_N 	N 	0.6866	0.9106	0.0207	-0.221
Mof_C 	C 	0.6578	0.867	0.0317	0.025
Mof_N 	N 	0.6866	0.4106	0.5207	-0.221
Mof_C 	C 	0.6578	0.367	0.5317	0.025
Mof_N 	N 	0.6866	0.3394	0.2293	-0.221
Mof_C 	C 	0.6578	0.383	0.2183	0.025
Mof_N 	N 	0.6866	0.8394	0.7293	-0.221
Mof_C 	C 	0.6578	0.883	0.7183	0.025
Mof_N 	N 	0.1866	0.3394	0.7293	-0.221
Mof_C 	C 	0.1578	0.383	0.7183	0.025
Mof_N 	N 	0.1866	0.8394	0.2293	-0.221
Mof_C 	C 	0.1578	0.883	0.2183	0.025
Mof_N 	N 	0.0634	0.8394	0.0207	-0.22
Mof_C 	C 	0.0922	0.883	0.0317	0.025
Mof_N 	N 	0.0634	0.3394	0.5207	-0.221
Mof_C 	C 	0.0922	0.383	0.5317	0.025
Mof_N 	N 	0.5634	0.8394	0.5207	-0.221
Mof_C 	C 	0.5922	0.883	0.5317	0.025
Mof_N 	N 	0.5634	0.3394	0.0207	-0.22
Mof_C 	C 	0.5922	0.383	0.0317	0.026
Mof_N 	N 	0.5634	0.4106	0.7293	-0.221
Mof_C 	C 	0.5922	0.367	0.7183	0.025
Mof_N 	N 	0.5634	0.9106	0.2293	-0.221
Mof_C 	C 	0.5922	0.867	0.2183	0.025
Mof_N 	N 	0.0634	0.4106	0.2293	-0.221
Mof_C 	C 	0.0922	0.367	0.2183	0.026
Mof_N 	N 	0.0634	0.9106	0.7293	-0.221
Mof_C 	C 	0.0922	0.867	0.7183	0.025
Mof_N 	N 	0.5207	0.1866	0.9106	-0.221
Mof_C 	C 	0.5317	0.1578	0.867	0.025
Mof_N 	N 	0.5207	0.6866	0.4106	-0.221
Mof_C 	C 	0.5317	0.6578	0.367	0.025
Mof_N 	N 	0.0207	0.1866	0.4106	-0.22
Mof_C 	C 	0.0317	0.1578	0.367	0.026
Mof_N 	N 	0.0207	0.6866	0.9106	-0.221
Mof_C 	C 	0.0317	0.6578	0.867	0.025
Mof_N 	N 	0.2293	0.6866	0.3394	-0.221
Mof_C 	C 	0.2183	0.6578	0.383	0.025
Mof_N 	N 	0.2293	0.1866	0.8394	-0.221
Mof_C 	C 	0.2183	0.1578	0.883	0.025
Mof_N 	N 	0.7293	0.6866	0.8394	-0.221
Mof_C 	C 	0.7183	0.6578	0.883	0.025
Mof_N 	N 	0.7293	0.1866	0.3394	-0.221
Mof_C 	C 	0.7183	0.1578	0.383	0.025
Mof_N 	N 	0.0207	0.0634	0.8394	-0.22
Mof_C 	C 	0.0317	0.0922	0.883	0.025
Mof_N 	N 	0.0207	0.5634	0.3394	-0.22
Mof_C 	C 	0.0317	0.5922	0.383	0.026
Mof_N 	N 	0.5207	0.0634	0.3394	-0.221
Mof_C 	C 	0.5317	0.0922	0.383	0.025
Mof_N 	N 	0.5207	0.5634	0.8394	-0.221
Mof_C 	C 	0.5317	0.5922	0.883	0.025
Mof_N 	N 	0.7293	0.5634	0.4106	-0.221
Mof_C 	C 	0.7183	0.5922	0.367	0.025
Mof_N 	N 	0.7293	0.0634	0.9106	-0.221
Mof_C 	C 	0.7183	0.0922	0.867	0.025
Mof_N 	N 	0.2293	0.5634	0.9106	-0.221
Mof_C 	C 	0.2183	0.5922	0.867	0.025
Mof_N 	N 	0.2293	0.0634	0.4106	-0.221
Mof_C 	C 	0.2183	0.0922	0.367	0.026
Mof_N 	N 	0.2707	0.1606	0.8134	-0.221
Mof_C 	C 	0.2817	0.117	0.8422	0.025
Mof_N 	N 	0.2707	0.6606	0.3134	-0.221
Mof_C 	C 	0.2817	0.617	0.3422	0.025
Mof_N 	N 	0.7707	0.1606	0.3134	-0.221
Mof_C 	C 	0.7817	0.117	0.3422	0.025
Mof_N 	N 	0.7707	0.6606	0.8134	-0.221
Mof_C 	C 	0.7817	0.617	0.8422	0.025
Mof_N 	N 	0.9793	0.5894	0.3134	-0.222
Mof_C 	C 	0.9683	0.633	0.3422	0.024
Mof_N 	N 	0.9793	0.0894	0.8134	-0.222
Mof_C 	C 	0.9683	0.133	0.8422	0.024
Mof_N 	N 	0.4793	0.5894	0.8134	-0.221
Mof_C 	C 	0.4683	0.633	0.8422	0.025
Mof_N 	N 	0.4793	0.0894	0.3134	-0.221
Mof_C 	C 	0.4683	0.133	0.3422	0.025
Mof_N 	N 	0.7707	0.0894	0.9366	-0.221
Mof_C 	C 	0.7817	0.133	0.9078	0.025
Mof_N 	N 	0.7707	0.5894	0.4366	-0.221
Mof_C 	C 	0.7817	0.633	0.4078	0.025
Mof_N 	N 	0.2707	0.0894	0.4366	-0.221
Mof_C 	C 	0.2817	0.133	0.4078	0.025
Mof_N 	N 	0.2707	0.5894	0.9366	-0.221
Mof_C 	C 	0.2817	0.633	0.9078	0.025
Mof_N 	N 	0.4793	0.6606	0.4366	-0.221
Mof_C 	C 	0.4683	0.617	0.4078	0.025
Mof_N 	N 	0.4793	0.1606	0.9366	-0.222
Mof_C 	C 	0.4683	0.117	0.9078	0.025
Mof_N 	N 	0.9793	0.6606	0.9366	-0.221
Mof_C 	C 	0.9683	0.617	0.9078	0.024
Mof_N 	N 	0.9793	0.1606	0.4366	-0.222
Mof_C 	C 	0.9683	0.117	0.4078	0.023
Mof_N 	N 	0.6606	0.4366	0.4793	-0.221
Mof_C 	C 	0.617	0.4078	0.4683	0.025
Mof_N 	N 	0.6606	0.9366	0.9793	-0.221
Mof_C 	C 	0.617	0.9078	0.9683	0.024
Mof_N 	N 	0.1606	0.4366	0.9793	-0.222
Mof_C 	C 	0.117	0.4078	0.9683	0.023
Mof_N 	N 	0.1606	0.9366	0.4793	-0.222
Mof_C 	C 	0.117	0.9078	0.4683	0.025
Mof_N 	N 	0.0894	0.9366	0.7707	-0.221
Mof_C 	C 	0.133	0.9078	0.7817	0.025
Mof_N 	N 	0.0894	0.4366	0.2707	-0.221
Mof_C 	C 	0.133	0.4078	0.2817	0.025
Mof_N 	N 	0.5894	0.9366	0.2707	-0.221
Mof_C 	C 	0.633	0.9078	0.2817	0.025
Mof_N 	N 	0.5894	0.4366	0.7707	-0.221
Mof_C 	C 	0.633	0.4078	0.7817	0.025
Mof_N 	N 	0.5894	0.3134	0.9793	-0.222
Mof_C 	C 	0.633	0.3422	0.9683	0.024
Mof_N 	N 	0.5894	0.8134	0.4793	-0.221
Mof_C 	C 	0.633	0.8422	0.4683	0.025
Mof_N 	N 	0.0894	0.3134	0.4793	-0.221
Mof_C 	C 	0.133	0.3422	0.4683	0.025
Mof_N 	N 	0.0894	0.8134	0.9793	-0.222
Mof_C 	C 	0.133	0.8422	0.9683	0.024
Mof_N 	N 	0.1606	0.8134	0.2707	-0.221
Mof_C 	C 	0.117	0.8422	0.2817	0.025
Mof_N 	N 	0.1606	0.3134	0.7707	-0.221
Mof_C 	C 	0.117	0.3422	0.7817	0.025
Mof_N 	N 	0.6606	0.8134	0.7707	-0.221
Mof_C 	C 	0.617	0.8422	0.7817	0.025
Mof_N 	N 	0.6606	0.3134	0.2707	-0.221
Mof_C 	C 	0.617	0.3422	0.2817	0.025
Mof_N 	N 	0.9366	0.7707	0.0894	-0.221
Mof_C 	C 	0.9078	0.7817	0.133	0.025
Mof_N 	N 	0.9366	0.2707	0.5894	-0.221
Mof_C 	C 	0.9078	0.2817	0.633	0.025
Mof_N 	N 	0.4366	0.7707	0.5894	-0.221
Mof_C 	C 	0.4078	0.7817	0.633	0.025
Mof_N 	N 	0.4366	0.2707	0.0894	-0.221
Mof_C 	C 	0.4078	0.2817	0.133	0.025
Mof_N 	N 	0.4366	0.4793	0.6606	-0.221
Mof_C 	C 	0.4078	0.4683	0.617	0.025
Mof_N 	N 	0.4366	0.9793	0.1606	-0.222
Mof_C 	C 	0.4078	0.9683	0.117	0.023
Mof_N 	N 	0.9366	0.4793	0.1606	-0.222
Mof_C 	C 	0.9078	0.4683	0.117	0.025
Mof_N 	N 	0.9366	0.9793	0.6606	-0.221
Mof_C 	C 	0.9078	0.9683	0.617	0.024
Mof_N 	N 	0.8134	0.2707	0.1606	-0.221
Mof_C 	C 	0.8422	0.2817	0.117	0.025
Mof_N 	N 	0.8134	0.7707	0.6606	-0.221
Mof_C 	C 	0.8422	0.7817	0.617	0.025
Mof_N 	N 	0.3134	0.2707	0.6606	-0.221
Mof_C 	C 	0.3422	0.2817	0.617	0.025
Mof_N 	N 	0.3134	0.7707	0.1606	-0.221
Mof_C 	C 	0.3422	0.7817	0.117	0.025
Mof_N 	N 	0.3134	0.9793	0.5894	-0.222
Mof_C 	C 	0.3422	0.9683	0.633	0.024
Mof_N 	N 	0.3134	0.4793	0.0894	-0.221
Mof_C 	C 	0.3422	0.4683	0.133	0.025
Mof_N 	N 	0.8134	0.9793	0.0894	-0.222
Mof_C 	C 	0.8422	0.9683	0.133	0.024
Mof_N 	N 	0.8134	0.4793	0.5894	-0.221
Mof_C 	C 	0.8422	0.4683	0.633	0.025
Mof_N 	N 	0.0894	0.4793	0.8134	-0.221
Mof_C 	C 	0.133	0.4683	0.8422	0.025
Mof_N 	N 	0.0894	0.9793	0.3134	-0.222
Mof_C 	C 	0.133	0.9683	0.3422	0.023
Mof_N 	N 	0.5894	0.4793	0.3134	-0.221
Mof_C 	C 	0.633	0.4683	0.3422	0.025
Mof_N 	N 	0.5894	0.9793	0.8134	-0.221
Mof_C 	C 	0.633	0.9683	0.8422	0.024
Mof_N 	N 	0.6606	0.7707	0.3134	-0.221
Mof_C 	C 	0.617	0.7817	0.3422	0.025
Mof_N 	N 	0.6606	0.2707	0.8134	-0.221
Mof_C 	C 	0.617	0.2817	0.8422	0.025
Mof_N 	N 	0.1606	0.7707	0.8134	-0.221
Mof_C 	C 	0.117	0.7817	0.8422	0.025
Mof_N 	N 	0.1606	0.2707	0.3134	-0.221
Mof_C 	C 	0.117	0.2817	0.3422	0.025
Mof_N 	N 	0.1606	0.9793	0.9366	-0.222
Mof_C 	C 	0.117	0.9683	0.9078	0.023
Mof_N 	N 	0.1606	0.4793	0.4366	-0.221
Mof_C 	C 	0.117	0.4683	0.4078	0.025
Mof_N 	N 	0.6606	0.9793	0.4366	-0.221
Mof_C 	C 	0.617	0.9683	0.4078	0.024
Mof_N 	N 	0.6606	0.4793	0.9366	-0.221
Mof_C 	C 	0.617	0.4683	0.9078	0.025
Mof_N 	N 	0.5894	0.2707	0.4366	-0.221
Mof_C 	C 	0.633	0.2817	0.4078	0.025
Mof_N 	N 	0.5894	0.7707	0.9366	-0.221
Mof_C 	C 	0.633	0.7817	0.9078	0.025
Mof_N 	N 	0.0894	0.2707	0.9366	-0.222
Mof_C 	C 	0.133	0.2817	0.9078	0.025
Mof_N 	N 	0.0894	0.7707	0.4366	-0.221
Mof_C 	C 	0.133	0.7817	0.4078	0.025
Mof_N 	N 	0.8134	0.0894	0.4793	-0.221
Mof_C 	C 	0.8422	0.133	0.4683	0.025
Mof_N 	N 	0.8134	0.5894	0.9793	-0.221
Mof_C 	C 	0.8422	0.633	0.9683	0.024
Mof_N 	N 	0.3134	0.0894	0.9793	-0.222
Mof_C 	C 	0.3422	0.133	0.9683	0.023
Mof_N 	N 	0.3134	0.5894	0.4793	-0.221
Mof_C 	C 	0.3422	0.633	0.4683	0.025
Mof_N 	N 	0.3134	0.6606	0.7707	-0.221
Mof_C 	C 	0.3422	0.617	0.7817	0.025
Mof_N 	N 	0.3134	0.1606	0.2707	-0.221
Mof_C 	C 	0.3422	0.117	0.2817	0.025
Mof_N 	N 	0.8134	0.6606	0.2707	-0.221
Mof_C 	C 	0.8422	0.617	0.2817	0.025
Mof_N 	N 	0.8134	0.1606	0.7707	-0.221
Mof_C 	C 	0.8422	0.117	0.7817	0.025
Mof_N 	N 	0.9366	0.1606	0.9793	-0.222
Mof_C 	C 	0.9078	0.117	0.9683	0.023
Mof_N 	N 	0.9366	0.6606	0.4793	-0.221
Mof_C 	C 	0.9078	0.617	0.4683	0.025
Mof_N 	N 	0.4366	0.1606	0.4793	-0.221
Mof_C 	C 	0.4078	0.117	0.4683	0.025
Mof_N 	N 	0.4366	0.6606	0.9793	-0.221
Mof_C 	C 	0.4078	0.617	0.9683	0.024
Mof_N 	N 	0.4366	0.5894	0.2707	-0.221
Mof_C 	C 	0.4078	0.633	0.2817	0.025
Mof_N 	N 	0.4366	0.0894	0.7707	-0.221
Mof_C 	C 	0.4078	0.133	0.7817	0.025
Mof_N 	N 	0.9366	0.5894	0.7707	-0.221
Mof_C 	C 	0.9078	0.633	0.7817	0.025
Mof_N 	N 	0.9366	0.0894	0.2707	-0.222
Mof_C 	C 	0.9078	0.133	0.2817	0.025
Mof_N 	N 	0.4793	0.8134	0.0894	-0.221
Mof_C 	C 	0.4683	0.8422	0.133	0.025
Mof_N 	N 	0.4793	0.3134	0.5894	-0.221
Mof_C 	C 	0.4683	0.3422	0.633	0.025
Mof_N 	N 	0.9793	0.8134	0.5894	-0.221
Mof_C 	C 	0.9683	0.8422	0.633	0.024
Mof_N 	N 	0.9793	0.3134	0.0894	-0.222
Mof_C 	C 	0.9683	0.3422	0.133	0.023
Mof_N 	N 	0.7707	0.3134	0.6606	-0.221
Mof_C 	C 	0.7817	0.3422	0.617	0.025
Mof_N 	N 	0.7707	0.8134	0.1606	-0.221
Mof_C 	C 	0.7817	0.8422	0.117	0.025
Mof_N 	N 	0.2707	0.3134	0.1606	-0.221
Mof_C 	C 	0.2817	0.3422	0.117	0.025
Mof_N 	N 	0.2707	0.8134	0.6606	-0.221
Mof_C 	C 	0.2817	0.8422	0.617	0.025
Mof_N 	N 	0.9793	0.9366	0.1606	-0.222
Mof_C 	C 	0.9683	0.9078	0.117	0.023
Mof_N 	N 	0.9793	0.4366	0.6606	-0.221
Mof_C 	C 	0.9683	0.4078	0.617	0.024
Mof_N 	N 	0.4793	0.9366	0.6606	-0.221
Mof_C 	C 	0.4683	0.9078	0.617	0.025
Mof_N 	N 	0.4793	0.4366	0.1606	-0.221
Mof_C 	C 	0.4683	0.4078	0.117	0.025
Mof_N 	N 	0.2707	0.4366	0.5894	-0.221
Mof_C 	C 	0.2817	0.4078	0.633	0.025
Mof_N 	N 	0.2707	0.9366	0.0894	-0.222
Mof_C 	C 	0.2817	0.9078	0.133	0.025
Mof_N 	N 	0.7707	0.4366	0.0894	-0.221
Mof_C 	C 	0.7817	0.4078	0.133	0.025
Mof_N 	N 	0.7707	0.9366	0.5894	-0.221
Mof_C 	C 	0.7817	0.9078	0.633	0.025
Mof_N 	N 	0.7293	0.8394	0.1866	-0.221
Mof_C 	C 	0.7183	0.883	0.1578	0.025
Mof_N 	N 	0.7293	0.3394	0.6866	-0.221
Mof_C 	C 	0.7183	0.383	0.6578	0.025
Mof_N 	N 	0.2293	0.8394	0.6866	-0.221
Mof_C 	C 	0.2183	0.883	0.6578	0.025
Mof_N 	N 	0.2293	0.3394	0.1866	-0.221
Mof_C 	C 	0.2183	0.383	0.1578	0.025
Mof_N 	N 	0.0207	0.4106	0.6866	-0.22
Mof_C 	C 	0.0317	0.367	0.6578	0.026
Mof_N 	N 	0.0207	0.9106	0.1866	-0.221
Mof_C 	C 	0.0317	0.867	0.1578	0.025
Mof_N 	N 	0.5207	0.4106	0.1866	-0.221
Mof_C 	C 	0.5317	0.367	0.1578	0.025
Mof_N 	N 	0.5207	0.9106	0.6866	-0.221
Mof_C 	C 	0.5317	0.867	0.6578	0.025
Mof_N 	N 	0.2293	0.9106	0.0634	-0.221
Mof_C 	C 	0.2183	0.867	0.0922	0.025
Mof_N 	N 	0.2293	0.4106	0.5634	-0.221
Mof_C 	C 	0.2183	0.367	0.5922	0.025
Mof_N 	N 	0.7293	0.9106	0.5634	-0.221
Mof_C 	C 	0.7183	0.867	0.5922	0.025
Mof_N 	N 	0.7293	0.4106	0.0634	-0.221
Mof_C 	C 	0.7183	0.367	0.0922	0.025
Mof_N 	N 	0.5207	0.3394	0.5634	-0.221
Mof_C 	C 	0.5317	0.383	0.5922	0.025
Mof_N 	N 	0.5207	0.8394	0.0634	-0.221
Mof_C 	C 	0.5317	0.883	0.0922	0.025
Mof_N 	N 	0.0207	0.3394	0.0634	-0.22
Mof_C 	C 	0.0317	0.383	0.0922	0.026
Mof_N 	N 	0.0207	0.8394	0.5634	-0.221
Mof_C 	C 	0.0317	0.883	0.5922	0.025
Mof_N 	N 	0.3394	0.5634	0.5207	-0.221
Mof_C 	C 	0.383	0.5922	0.5317	0.025
Mof_N 	N 	0.3394	0.0634	0.0207	-0.22
Mof_C 	C 	0.383	0.0922	0.0317	0.026
Mof_N 	N 	0.8394	0.5634	0.0207	-0.221
Mof_C 	C 	0.883	0.5922	0.0317	0.025
Mof_N 	N 	0.8394	0.0634	0.5207	-0.221
Mof_C 	C 	0.883	0.0922	0.5317	0.025
Mof_N 	N 	0.9106	0.0634	0.2293	-0.221
Mof_C 	C 	0.867	0.0922	0.2183	0.025
Mof_N 	N 	0.9106	0.5634	0.7293	-0.221
Mof_C 	C 	0.867	0.5922	0.7183	0.025
Mof_N 	N 	0.4106	0.0634	0.7293	-0.221
Mof_C 	C 	0.367	0.0922	0.7183	0.025
Mof_N 	N 	0.4106	0.5634	0.2293	-0.221
Mof_C 	C 	0.367	0.5922	0.2183	0.025
Mof_N 	N 	0.4106	0.6866	0.0207	-0.22
Mof_C 	C 	0.367	0.6578	0.0317	0.026
Mof_N 	N 	0.4106	0.1866	0.5207	-0.221
Mof_C 	C 	0.367	0.1578	0.5317	0.025
Mof_N 	N 	0.9106	0.6866	0.5207	-0.221
Mof_C 	C 	0.867	0.6578	0.5317	0.025
Mof_N 	N 	0.9106	0.1866	0.0207	-0.221
Mof_C 	C 	0.867	0.1578	0.0317	0.025
Mof_N 	N 	0.8394	0.1866	0.7293	-0.221
Mof_C 	C 	0.883	0.1578	0.7183	0.025
Mof_N 	N 	0.8394	0.6866	0.2293	-0.221
Mof_C 	C 	0.883	0.6578	0.2183	0.025
Mof_N 	N 	0.3394	0.1866	0.2293	-0.221
Mof_C 	C 	0.383	0.1578	0.2183	0.025
Mof_N 	N 	0.3394	0.6866	0.7293	-0.221
Mof_C 	C 	0.383	0.6578	0.7183	0.025
Mof_N 	N 	0.0634	0.2293	0.9106	-0.221
Mof_C 	C 	0.0922	0.2183	0.867	0.025
Mof_N 	N 	0.0634	0.7293	0.4106	-0.221
Mof_C 	C 	0.0922	0.7183	0.367	0.025
Mof_N 	N 	0.5634	0.2293	0.4106	-0.221
Mof_C 	C 	0.5922	0.2183	0.367	0.025
Mof_N 	N 	0.5634	0.7293	0.9106	-0.221
Mof_C 	C 	0.5922	0.7183	0.867	0.025
Mof_N 	N 	0.5634	0.5207	0.3394	-0.221
Mof_C 	C 	0.5922	0.5317	0.383	0.025
Mof_N 	N 	0.5634	0.0207	0.8394	-0.221
Mof_C 	C 	0.5922	0.0317	0.883	0.025
Mof_N 	N 	0.0634	0.5207	0.8394	-0.221
Mof_C 	C 	0.0922	0.5317	0.883	0.025
Mof_N 	N 	0.0634	0.0207	0.3394	-0.22
Mof_C 	C 	0.0922	0.0317	0.383	0.026
Mof_N 	N 	0.1866	0.7293	0.8394	-0.221
Mof_C 	C 	0.1578	0.7183	0.883	0.025
Mof_N 	N 	0.1866	0.2293	0.3394	-0.221
Mof_C 	C 	0.1578	0.2183	0.383	0.025
Mof_N 	N 	0.6866	0.7293	0.3394	-0.221
Mof_C 	C 	0.6578	0.7183	0.383	0.025
Mof_N 	N 	0.6866	0.2293	0.8394	-0.221
Mof_C 	C 	0.6578	0.2183	0.883	0.025
Mof_N 	N 	0.6866	0.0207	0.4106	-0.22
Mof_C 	C 	0.6578	0.0317	0.367	0.026
Mof_N 	N 	0.6866	0.5207	0.9106	-0.221
Mof_C 	C 	0.6578	0.5317	0.867	0.025
Mof_N 	N 	0.1866	0.0207	0.9106	-0.221
Mof_C 	C 	0.1578	0.0317	0.867	0.025
Mof_N 	N 	0.1866	0.5207	0.4106	-0.221
Mof_C 	C 	0.1578	0.5317	0.367	0.025
Mof_Cu	Cu	0.8065	0.5	0.0565	0.841
Mof_N 	N 	0.8636	0.5	0.1136	-0.243
Mof_Cu	Cu	0.8065	0	0.5565	0.841
Mof_N 	N 	0.8636	0	0.6136	-0.242
Mof_Cu	Cu	0.4435	0.25	0.5565	0.841
Mof_N 	N 	0.3864	0.25	0.6136	-0.243
Mof_Cu	Cu	0.4435	0.75	0.0565	0.841
Mof_N 	N 	0.3864	0.75	0.1136	-0.243
Mof_Cu	Cu	0.9435	-1.66645e-33	0.1935	0.84
Mof_N 	N 	0.8864	0	0.1364	-0.242
Mof_Cu	Cu	0.9435	0.5	0.6935	0.84
Mof_N 	N 	0.8864	0.5	0.6364	-0.243
Mof_Cu	Cu	0.3065	0.75	0.6935	0.841
Mof_N 	N 	0.3636	0.75	0.6364	-0.243
Mof_Cu	Cu	0.3065	0.25	0.1935	0.841
Mof_N 	N 	0.3636	0.25	0.1364	-0.243
Mof_Cu	Cu	0.0565	0.8065	0.5	0.841
Mof_N 	N 	0.1136	0.8636	0.5	-0.243
Mof_Cu	Cu	0.0565	0.3065	-0	0.841
Mof_N 	N 	0.1136	0.3636	-0	-0.241
Mof_Cu	Cu	0.5565	0.4435	0.25	0.841
Mof_N 	N 	0.6136	0.3864	0.25	-0.243
Mof_Cu	Cu	0.5565	0.9435	0.75	0.84
Mof_N 	N 	0.6136	0.8864	0.75	-0.243
Mof_Cu	Cu	0.1935	0.9435	-0	0.84
Mof_N 	N 	0.1364	0.8864	-0	-0.242
Mof_Cu	Cu	0.1935	0.4435	0.5	0.841
Mof_N 	N 	0.1364	0.3864	0.5	-0.243
Mof_Cu	Cu	0.6935	0.3065	0.75	0.841
Mof_N 	N 	0.6364	0.3636	0.75	-0.243
Mof_Cu	Cu	0.6935	0.8065	0.25	0.841
Mof_N 	N 	0.6364	0.8636	0.25	-0.243
Mof_Cu	Cu	0.5	0.0565	0.8065	0.841
Mof_N 	N 	0.5	0.1136	0.8636	-0.243
Mof_Cu	Cu	1.14919e-33	0.0565	0.3065	0.841
Mof_N 	N 	1.36328e-33	0.1136	0.3636	-0.241
Mof_Cu	Cu	0.25	0.5565	0.4435	0.841
Mof_N 	N 	0.25	0.6136	0.3864	-0.243
Mof_Cu	Cu	0.75	0.5565	0.9435	0.84
Mof_N 	N 	0.75	0.6136	0.8864	-0.243
Mof_Cu	Cu	3.53756e-33	0.1935	0.9435	0.84
Mof_N 	N 	-1.00082e-32	0.1364	0.8864	-0.242
Mof_Cu	Cu	0.5	0.1935	0.4435	0.841
Mof_N 	N 	0.5	0.1364	0.3864	-0.243
Mof_Cu	Cu	0.75	0.6935	0.3065	0.841
Mof_N 	N 	0.75	0.6364	0.3636	-0.243
Mof_Cu	Cu	0.25	0.6935	0.8065	0.841
Mof_N 	N 	0.25	0.6364	0.8636	-0.243
Mof_Cu	Cu	0.25	0.0565	0.9435	0.84
Mof_N 	N 	0.25	0.1136	0.8864	-0.243
Mof_Cu	Cu	0.75	0.0565	0.4435	0.841
Mof_N 	N 	0.75	0.1136	0.3864	-0.243
Mof_Cu	Cu	-5.00296e-33	0.6935	0.4435	0.841
Mof_N 	N 	8.11458e-33	0.6364	0.3864	-0.242
Mof_Cu	Cu	0.5	0.6935	0.9435	0.84
Mof_N 	N 	0.5	0.6364	0.8864	-0.243
Mof_Cu	Cu	0.75	0.1935	0.8065	0.841
Mof_N 	N 	0.75	0.1364	0.8636	-0.243
Mof_Cu	Cu	0.25	0.1935	0.3065	0.841
Mof_N 	N 	0.25	0.1364	0.3636	-0.243
Mof_Cu	Cu	0.5	0.5565	0.3065	0.841
Mof_N 	N 	0.5	0.6136	0.3636	-0.243
Mof_Cu	Cu	-3.64193e-33	0.5565	0.8065	0.841
Mof_N 	N 	-1.00937e-32	0.6136	0.8636	-0.242
Mof_Cu	Cu	0.5565	0.3065	0.5	0.841
Mof_N 	N 	0.6136	0.3636	0.5	-0.243
Mof_Cu	Cu	0.5565	0.8065	-0	0.841
Mof_N 	N 	0.6136	0.8636	-0	-0.242
Mof_Cu	Cu	0.1935	0.8065	0.75	0.841
Mof_N 	N 	0.1364	0.8636	0.75	-0.243
Mof_Cu	Cu	0.1935	0.3065	0.25	0.841
Mof_N 	N 	0.1364	0.3636	0.25	-0.243
Mof_Cu	Cu	0.6935	0.4435	-0	0.841
Mof_N 	N 	0.6364	0.3864	-0	-0.242
Mof_Cu	Cu	0.6935	0.9435	0.5	0.84
Mof_N 	N 	0.6364	0.8864	0.5	-0.243
Mof_Cu	Cu	0.0565	0.9435	0.25	0.84
Mof_N 	N 	0.1136	0.8864	0.25	-0.243
Mof_Cu	Cu	0.0565	0.4435	0.75	0.841
Mof_N 	N 	0.1136	0.3864	0.75	-0.243
Mof_Cu	Cu	0.8065	0.75	0.1935	0.841
Mof_N 	N 	0.8636	0.75	0.1364	-0.243
Mof_Cu	Cu	0.8065	0.25	0.6935	0.841
Mof_N 	N 	0.8636	0.25	0.6364	-0.243
Mof_Cu	Cu	0.3065	0.5	0.5565	0.841
Mof_N 	N 	0.3636	0.5	0.6136	-0.243
Mof_Cu	Cu	0.3065	0	0.0565	0.841
Mof_N 	N 	0.3636	0	0.1136	-0.241
Mof_Cu	Cu	0.9435	0.25	0.0565	0.84
Mof_N 	N 	0.8864	0.25	0.1136	-0.243
Mof_Cu	Cu	0.9435	0.75	0.5565	0.84
Mof_N 	N 	0.8864	0.75	0.6136	-0.243
Mof_Cu	Cu	0.4435	0	0.6935	0.841
Mof_N 	N 	0.3864	0	0.6364	-0.242
Mof_Cu	Cu	0.4435	0.5	0.1935	0.841
Mof_N 	N 	0.3864	0.5	0.1364	-0.243
Mof_Cu	Cu	0.1935	0.5	0.9435	0.84
Mof_N 	N 	0.1364	0.5	0.8864	-0.243
Mof_Cu	Cu	0.1935	-3.33291e-33	0.4435	0.841
Mof_N 	N 	0.1364	3.33291e-33	0.3864	-0.241
Mof_Cu	Cu	0.5565	0.75	0.4435	0.841
Mof_N 	N 	0.6136	0.75	0.3864	-0.243
Mof_Cu	Cu	0.5565	0.25	0.9435	0.84
Mof_N 	N 	0.6136	0.25	0.8864	-0.243
Mof_Cu	Cu	0.0565	0	0.8065	0.841
Mof_N 	N 	0.1136	0	0.8636	-0.242
Mof_Cu	Cu	0.0565	0.5	0.3065	0.841
Mof_N 	N 	0.1136	0.5	0.3636	-0.243
Mof_Cu	Cu	0.6935	0.25	0.3065	0.841
Mof_N 	N 	0.6364	0.25	0.3636	-0.243
Mof_Cu	Cu	0.6935	0.75	0.8065	0.841
Mof_N 	N 	0.6364	0.75	0.8636	-0.243
Mof_Cu	Cu	0.9435	0.1935	0.5	0.84
Mof_N 	N 	0.8864	0.1364	0.5	-0.243
Mof_Cu	Cu	0.9435	0.6935	-0	0.84
Mof_N 	N 	0.8864	0.6364	-0	-0.242
Mof_Cu	Cu	0.4435	0.5565	0.75	0.841
Mof_N 	N 	0.3864	0.6136	0.75	-0.243
Mof_Cu	Cu	0.4435	0.0565	0.25	0.841
Mof_N 	N 	0.3864	0.1136	0.25	-0.243
Mof_Cu	Cu	0.8065	0.0565	-0	0.841
Mof_N 	N 	0.8636	0.1136	-0	-0.242
Mof_Cu	Cu	0.8065	0.5565	0.5	0.841
Mof_N 	N 	0.8636	0.6136	0.5	-0.243
Mof_Cu	Cu	0.3065	0.6935	0.25	0.841
Mof_N 	N 	0.3636	0.6364	0.25	-0.243
Mof_Cu	Cu	0.3065	0.1935	0.75	0.841
Mof_N 	N 	0.3636	0.1364	0.75	-0.243
Mof_Cu	Cu	0.5	0.9435	0.1935	0.84
Mof_N 	N 	0.5	0.8864	0.1364	-0.243
Mof_Cu	Cu	-1.07314e-32	0.9435	0.6935	0.84
Mof_N 	N 	2.38612e-33	0.8864	0.6364	-0.242
Mof_Cu	Cu	0.75	0.4435	0.5565	0.841
Mof_N 	N 	0.75	0.3864	0.6136	-0.243
Mof_Cu	Cu	0.25	0.4435	0.0565	0.841
Mof_N 	N 	0.25	0.3864	0.1136	-0.243
Mof_Cu	Cu	3.54475e-33	0.8065	0.0565	0.841
Mof_N 	N 	-1.24052e-33	0.8636	0.1136	-0.242
Mof_Cu	Cu	0.5	0.8065	0.5565	0.841
Mof_N 	N 	0.5	0.8636	0.6136	-0.243
Mof_Cu	Cu	0.25	0.3065	0.6935	0.841
Mof_N 	N 	0.25	0.3636	0.6364	-0.243
Mof_Cu	Cu	0.75	0.3065	0.1935	0.841
Mof_N 	N 	0.75	0.3636	0.1364	-0.243
Mof_Cu	Cu	0.75	0.9435	0.0565	0.84
Mof_N 	N 	0.75	0.8864	0.1136	-0.243
Mof_Cu	Cu	0.25	0.9435	0.5565	0.84
Mof_N 	N 	0.25	0.8864	0.6136	-0.243
Mof_Cu	Cu	2.08654e-33	0.3065	0.5565	0.841
Mof_N 	N 	2.30063e-33	0.3636	0.6136	-0.242
Mof_Cu	Cu	0.5	0.3065	0.0565	0.841
Mof_N 	N 	0.5	0.3636	0.1136	-0.243
Mof_Cu	Cu	0.25	0.8065	0.1935	0.841
Mof_N 	N 	0.25	0.8636	0.1364	-0.243
Mof_Cu	Cu	0.75	0.8065	0.6935	0.841
Mof_N 	N 	0.75	0.8636	0.6364	-0.243
Mof_Cu	Cu	0.5	0.4435	0.6935	0.841
Mof_N 	N 	0.5	0.3864	0.6364	-0.243
Mof_Cu	Cu	2.39196e-33	0.4435	0.1935	0.841
Mof_N 	N 	5.11418e-34	0.3864	0.1364	-0.241
Mof_Cu	Cu	0.4435	0.6935	0.5	0.841
Mof_N 	N 	0.3864	0.6364	0.5	-0.243
Mof_Cu	Cu	0.4435	0.1935	-0	0.841
Mof_N 	N 	0.3864	0.1364	-0	-0.241
Mof_Cu	Cu	0.8065	0.1935	0.25	0.841
Mof_N 	N 	0.8636	0.1364	0.25	-0.243
Mof_Cu	Cu	0.8065	0.6935	0.75	0.841
Mof_N 	N 	0.8636	0.6364	0.75	-0.243
Mof_Cu	Cu	0.3065	0.5565	-0	0.841
Mof_N 	N 	0.3636	0.6136	-0	-0.242
Mof_Cu	Cu	0.3065	0.0565	0.5	0.841
Mof_N 	N 	0.3636	0.1136	0.5	-0.243
Mof_Cu	Cu	0.9435	0.0565	0.75	0.84
Mof_N 	N 	0.8864	0.1136	0.75	-0.243
Mof_Cu	Cu	0.9435	0.5565	0.25	0.84
Mof_N 	N 	0.8864	0.6136	0.25	-0.243
Mof_Cu	Cu	0.1935	0.25	0.8065	0.841
Mof_N 	N 	0.1364	0.25	0.8636	-0.243
Mof_Cu	Cu	0.1935	0.75	0.3065	0.841
Mof_N 	N 	0.1364	0.75	0.3636	-0.243
Mof_Cu	Cu	0.6935	0.5	0.4435	0.841
Mof_N 	N 	0.6364	0.5	0.3864	-0.243
Mof_Cu	Cu	0.6935	0	0.9435	0.84
Mof_N 	N 	0.6364	-6.66582e-33	0.8864	-0.242
Mof_Cu	Cu	0.0565	0.75	0.9435	0.84
Mof_N 	N 	0.1136	0.75	0.8864	-0.243
Mof_Cu	Cu	0.0565	0.25	0.4435	0.841
Mof_N 	N 	0.1136	0.25	0.3864	-0.243
Mof_Cu	Cu	0.5565	0	0.3065	0.841
Mof_N 	N 	0.6136	0	0.3636	-0.242
Mof_Cu	Cu	0.5565	0.5	0.8065	0.841
Mof_N 	N 	0.6136	0.5	0.8636	-0.243
Mof_O 	O 	0.75	0.5	-0	-0.618
Mof_O 	O 	0.75	0	0.5	-0.618
Mof_O 	O 	0.5	0.25	0.5	-0.618
Mof_O 	O 	0.5	0.75	-0	-0.618
Mof_O 	O 	1.8747e-33	0.75	0.5	-0.618
Mof_O 	O 	9.3735e-34	0	0.25	-0.616
Mof_O 	O 	-3.85377e-33	0.5	0.75	-0.618
Mof_O 	O 	0.25	0.75	0.75	-0.618
Mof_O 	O 	0.25	0.25	0.25	-0.618
Mof_O 	O 	0.5	0.5	0.25	-0.618
Mof_O 	O 	0.5	0	0.75	-0.618
Mof_O 	O 	0.25	0	-0	-0.616
Mof_O 	O 	0.75	0.25	0.75	-0.618
Mof_O 	O 	0.25	0.5	0.5	-0.618
Mof_O 	O 	-0	0.25	-0	-0.616
Mof_O 	O 	0.75	0.75	0.25	-0.618
Mof_O 	O 	0.25	0.5	-0	-0.617
Mof_O 	O 	0.25	0	0.5	-0.617
Mof_O 	O 	0.5	0.75	0.5	-0.618
Mof_O 	O 	0.5	0.25	-0	-0.617
Mof_O 	O 	2.81205e-33	0	0.75	-0.616
Mof_O 	O 	7.60317e-33	0.5	0.25	-0.617
Mof_O 	O 	0.75	0.25	0.25	-0.618
Mof_O 	O 	0.75	0.75	0.75	-0.618
Mof_O 	O 	1.8747e-33	0.25	0.5	-0.617
Mof_O 	O 	0.5	0.5	0.75	-0.618
Mof_O 	O 	0.75	0	-0	-0.616
Mof_O 	O 	0.25	0.75	0.25	-0.618
Mof_O 	O 	0.5	0	0.25	-0.617
Mof_O 	O 	0.75	0.5	0.5	-0.618
Mof_O 	O 	-0	0.75	-0	-0.616
Mof_O 	O 	0.25	0.25	0.75	-0.618
_end
