data_functionalizedCrystal
_audit_creation_method	'EQeq! by Chris Wilmer'
_symmetry_space_group_name_H-M	'P1'
_symmetry_Int_Tables_number	1
_symmetry_cell_setting	triclinic
loop_
_symmetry_equiv_pos_as_xyz
  x,y,z
_cell_length_a	9.4916
_cell_length_b	22.4131
_cell_length_c	10.1084
_cell_angle_alpha	90
_cell_angle_beta	102.5
_cell_angle_gamma	90
loop_
_atom_site_label
_atom_site_type_symbol
_atom_site_fract_x
_atom_site_fract_y
_atom_site_fract_z
_atom_site_charge
Mof_Tb	Tb	0.7184	0.43434	0.85995	2.091
Mof_Tb	Tb	0.24869	0.27656	0.04949	1.893
Mof_N 	N 	0.5995	0.41505	0.6261	-0.249
Mof_N 	N 	0.5327	0.41333	0.4047	-0.2
Mof_H 	H 	0.52723	0.42256	0.32118	0.153
Mof_N 	N 	0.775	0.50784	0.6461	-0.206
Mof_O 	O 	0.0664	0.33749	0.1113	-0.443
Mof_O 	O 	0.0312	0.28688	0.8683	-0.429
Mof_O 	O 	0.8295	0.34106	0.7966	-0.408
Mof_O 	O 	0.8507	0.3806	0.0504	-0.424
Mof_O 	O 	0.523	0.36048	0.8218	-0.481
Mof_O 	O 	0.3794	0.29552	0.6935	-0.543
Mof_O 	O 	0.2756	0.29407	0.3928	-0.565
Mof_O 	O 	0.3663	0.33668	0.231	-0.506
Mof_O 	O 	0.6017	0.43646	0.0521	-0.41
Mof_O 	O 	0.469	0.49137	0.1634	-0.445
Mof_O 	O 	0.976	0.44801	0.8697	-0.443
Mof_O 	O 	0.1785	0.48189	0.002	-0.443
Mof_C 	C 	0.455	0.36906	0.4507	-0.04
Mof_C 	C 	0.499	0.37105	0.5901	-0.064
Mof_C 	C 	0.6184	0.43977	0.5119	0.117
Mof_C 	C 	0.7215	0.48878	0.5174	0.046
Mof_C 	C 	0.7635	0.5123	0.4055	-0.122
Mof_H 	H 	0.72747	0.49715	0.31908	0.087
Mof_C 	C 	0.8617	0.5595	0.4265	0.052
Mof_H 	H 	0.89227	0.57687	0.35401	0.009
Mof_C 	C 	0.9125	0.5799	0.5565	-0.15
Mof_H 	H 	0.97602	0.61198	0.57268	0.081
Mof_C 	C 	0.869	0.5525	0.6615	0.111
Mof_H 	H 	0.90732	0.56601	0.74895	-0.001
Mof_C 	C 	0.3572	0.33021	0.352	0.445
Mof_C 	C 	0.462	0.33872	0.7068	0.421
Mof_C 	C 	0.5202	0.47895	0.0617	0.268
Mof_C 	C 	0.0442	0.47999	0.962	0.277
Mof_C 	C 	0.9526	0.34885	0.0292	0.276
Mof_C 	C 	0.9351	0.32319	0.8844	0.241
Mof_Tb	Tb	0.2816	0.93434	0.64005	2.088
Mof_Tb	Tb	0.75131	0.77656	0.45051	1.901
Mof_N 	N 	0.4005	0.91505	0.8739	-0.248
Mof_N 	N 	0.4673	0.91333	0.0953	-0.199
Mof_H 	H 	0.47277	0.92256	0.17882	0.153
Mof_N 	N 	0.225	0.00784	0.8539	-0.202
Mof_O 	O 	0.9336	0.83749	0.3887	-0.438
Mof_O 	O 	0.9688	0.78688	0.6317	-0.435
Mof_O 	O 	0.1705	0.84106	0.7034	-0.409
Mof_O 	O 	0.1493	0.8806	0.4496	-0.424
Mof_O 	O 	0.477	0.86048	0.6782	-0.482
Mof_O 	O 	0.6206	0.79552	0.8065	-0.544
Mof_O 	O 	0.7244	0.79407	0.1072	-0.562
Mof_O 	O 	0.6337	0.83668	0.269	-0.506
Mof_O 	O 	0.3983	0.93646	0.4479	-0.41
Mof_O 	O 	0.531	0.99137	0.3366	-0.444
Mof_O 	O 	0.024	0.94801	0.6303	-0.441
Mof_O 	O 	0.8215	0.98189	0.498	-0.439
Mof_C 	C 	0.545	0.86906	0.0493	-0.035
Mof_C 	C 	0.501	0.87105	0.9099	-0.068
Mof_C 	C 	0.3816	0.93977	0.9881	0.116
Mof_C 	C 	0.2785	0.98878	0.9826	0.042
Mof_C 	C 	0.2365	0.0123	0.0945	-0.117
Mof_H 	H 	0.27253	0.99715	0.18092	0.085
Mof_C 	C 	0.1383	0.0595	0.0735	0.037
Mof_H 	H 	0.10773	0.07687	0.14599	0.013
Mof_C 	C 	0.0875	0.0799	0.9435	-0.133
Mof_H 	H 	0.02398	0.11198	0.92732	0.077
Mof_C 	C 	0.131	0.0525	0.8385	0.105
Mof_H 	H 	0.09268	0.06601	0.75105	0.003
Mof_C 	C 	0.6428	0.83021	0.148	0.443
Mof_C 	C 	0.538	0.83872	0.7932	0.422
Mof_C 	C 	0.4798	0.97895	0.4383	0.267
Mof_C 	C 	0.9558	0.97999	0.538	0.272
Mof_C 	C 	0.0474	0.84885	0.4708	0.268
Mof_C 	C 	0.0649	0.82319	0.6156	0.247
Mof_Tb	Tb	0.2816	0.56566	0.14005	2.092
Mof_Tb	Tb	0.75131	0.72344	0.95051	1.894
Mof_N 	N 	0.4005	0.58495	0.3739	-0.249
Mof_N 	N 	0.4673	0.58667	0.5953	-0.2
Mof_H 	H 	0.47277	0.57744	0.67882	0.153
Mof_N 	N 	0.225	0.49216	0.3539	-0.206
Mof_O 	O 	0.9336	0.66251	0.8887	-0.443
Mof_O 	O 	0.9688	0.71312	0.1317	-0.429
Mof_O 	O 	0.1705	0.65894	0.2034	-0.408
Mof_O 	O 	0.1493	0.6194	0.9496	-0.424
Mof_O 	O 	0.477	0.63952	0.1782	-0.481
Mof_O 	O 	0.6206	0.70448	0.3065	-0.543
Mof_O 	O 	0.7244	0.70593	0.6072	-0.565
Mof_O 	O 	0.6337	0.66332	0.769	-0.506
Mof_O 	O 	0.3983	0.56354	0.9479	-0.41
Mof_O 	O 	0.531	0.50863	0.8366	-0.445
Mof_O 	O 	0.024	0.55199	0.1303	-0.443
Mof_O 	O 	0.8215	0.51811	0.998	-0.443
Mof_C 	C 	0.545	0.63094	0.5493	-0.04
Mof_C 	C 	0.501	0.62895	0.4099	-0.064
Mof_C 	C 	0.3816	0.56023	0.4881	0.117
Mof_C 	C 	0.2785	0.51122	0.4826	0.046
Mof_C 	C 	0.2365	0.4877	0.5945	-0.122
Mof_H 	H 	0.27253	0.50285	0.68092	0.087
Mof_C 	C 	0.1383	0.4405	0.5735	0.052
Mof_H 	H 	0.10773	0.42313	0.64599	0.009
Mof_C 	C 	0.0875	0.4201	0.4435	-0.15
Mof_H 	H 	0.02398	0.38802	0.42732	0.081
Mof_C 	C 	0.131	0.4475	0.3385	0.111
Mof_H 	H 	0.09268	0.43399	0.25105	-0.001
Mof_C 	C 	0.6428	0.66979	0.648	0.445
Mof_C 	C 	0.538	0.66128	0.2932	0.421
Mof_C 	C 	0.4798	0.52105	0.9383	0.268
Mof_C 	C 	0.9558	0.52001	0.038	0.277
Mof_C 	C 	0.0474	0.65115	0.9708	0.276
Mof_C 	C 	0.0649	0.67681	0.1156	0.241
Mof_Tb	Tb	0.7184	0.06566	0.35995	2.088
Mof_Tb	Tb	0.24869	0.22344	0.54949	1.901
Mof_N 	N 	0.5995	0.08495	0.1261	-0.248
Mof_N 	N 	0.5327	0.08667	0.9047	-0.199
Mof_H 	H 	0.52723	0.07744	0.82118	0.153
Mof_N 	N 	0.775	0.99216	0.1461	-0.202
Mof_O 	O 	0.0664	0.16251	0.6113	-0.438
Mof_O 	O 	0.0312	0.21312	0.3683	-0.435
Mof_O 	O 	0.8295	0.15894	0.2966	-0.409
Mof_O 	O 	0.8507	0.1194	0.5504	-0.424
Mof_O 	O 	0.523	0.13952	0.3218	-0.482
Mof_O 	O 	0.3794	0.20448	0.1935	-0.544
Mof_O 	O 	0.2756	0.20593	0.8928	-0.562
Mof_O 	O 	0.3663	0.16332	0.731	-0.506
Mof_O 	O 	0.6017	0.06354	0.5521	-0.41
Mof_O 	O 	0.469	0.00863	0.6634	-0.444
Mof_O 	O 	0.976	0.05199	0.3697	-0.441
Mof_O 	O 	0.1785	0.01811	0.502	-0.439
Mof_C 	C 	0.455	0.13094	0.9507	-0.035
Mof_C 	C 	0.499	0.12895	0.0901	-0.068
Mof_C 	C 	0.6184	0.06023	0.0119	0.116
Mof_C 	C 	0.7215	0.01122	0.0174	0.042
Mof_C 	C 	0.7635	0.9877	0.9055	-0.117
Mof_H 	H 	0.72747	0.00285	0.81908	0.085
Mof_C 	C 	0.8617	0.9405	0.9265	0.037
Mof_H 	H 	0.89227	0.92313	0.85401	0.013
Mof_C 	C 	0.9125	0.9201	0.0565	-0.133
Mof_H 	H 	0.97602	0.88802	0.07268	0.077
Mof_C 	C 	0.869	0.9475	0.1615	0.105
Mof_H 	H 	0.90732	0.93399	0.24895	0.003
Mof_C 	C 	0.3572	0.16979	0.852	0.443
Mof_C 	C 	0.462	0.16128	0.2068	0.422
Mof_C 	C 	0.5202	0.02105	0.5617	0.267
Mof_C 	C 	0.0442	0.02001	0.462	0.272
Mof_C 	C 	0.9526	0.15115	0.5292	0.268
Mof_C 	C 	0.9351	0.17681	0.3844	0.247
_end
