data_functionalizedCrystal
_audit_creation_method	'EQeq! by Chris Wilmer'
_symmetry_space_group_name_H-M	'P1'
_symmetry_Int_Tables_number	1
_symmetry_cell_setting	triclinic
loop_
_symmetry_equiv_pos_as_xyz
  x,y,z
_cell_length_a	34.2658
_cell_length_b	34.2658
_cell_length_c	21.8681
_cell_angle_alpha	90
_cell_angle_beta	90
_cell_angle_gamma	120
loop_
_atom_site_label
_atom_site_type_symbol
_atom_site_fract_x
_atom_site_fract_y
_atom_site_fract_z
_atom_site_charge
Mof_La	La	0.04516	0.96919	0.66368	2.042
Mof_La	La	0.40953	0.69778	0.37481	2.089
Mof_La	La	0.36418	0.62098	0.54099	2.385
Mof_O 	O 	0.1301	0.0385	0.6928	-0.459
Mof_O 	O 	0.1008	0.9852	0.4736	-0.488
Mof_O 	O 	0.975	0.9933	0.7862	-0.586
Mof_O 	O 	0.0574	0.9635	0.5518	-0.579
Mof_O 	O 	0.1037	0.0495	0.606	-0.595
Mof_O 	O 	0.0357	0.0244	0.7263	-0.484
Mof_O 	O 	0.2848	0.5699	0.5948	-0.59
Mof_O 	O 	0.6474	0.3025	0.4844	-0.621
Mof_O 	O 	0.3431	0.6913	0.4258	-0.517
Mof_O 	O 	0.7799	0.3456	0.5666	-0.419
Mof_O 	O 	0.7123	0.298	0.6605	-0.426
Mof_O 	O 	0.3119	0.6347	0.4843	-0.64
Mof_O 	O 	0.6765	0.3582	0.4249	-0.544
Mof_O 	O 	0.392	0.5696	0.5591	-0.732
Mof_O 	O 	0.3816	0.6172	0.4267	-0.598
Mof_O 	O 	0.3017	0.5408	0.5154	-0.446
Mof_O 	O 	0.6763	0.2313	0.7302	-0.418
Mof_O 	O 	0.428	0.6355	0.3527	-0.491
Mof_O 	O 	0.7476	0.3771	0.4927	-0.443
Mof_N 	N 	0.4144	0.5171	0.5938	-0.053
Mof_C 	C 	0.0704	0.9093	0.4923	-0.186
Mof_C 	C 	0.8251	0.4217	0.5397	-0.033
Mof_C 	C 	0.8676	0.3198	0.6418	-0.078
Mof_C 	C 	0.7546	0.2619	0.7068	-0.026
Mof_C 	C 	0.1707	0.1042	0.6432	-0.276
Mof_C 	C 	0.907	0.3191	0.6465	-0.039
Mof_C 	C 	0.1331	0.0624	0.6509	0.476
Mof_C 	C 	0.1638	0.6268	0.549	0
Mof_C 	C 	0.9959	0.0178	0.7519	0.521
Mof_C 	C 	0.4186	0.5556	0.5608	0.111
Mof_C 	C 	0.372	0.4946	0.6276	-0.215
Mof_C 	C 	0.428	0.4853	0.6147	-0.241
Mof_C 	C 	0.4596	0.3314	0.5178	0.052
Mof_C 	C 	0.1727	0.1383	0.6127	0.096
Mof_C 	C 	0.2926	0.2231	0.6032	-0.138
Mof_C 	C 	0.0354	0.287	0.6635	-0.14
Mof_C 	C 	0.0688	0.7874	0.482	-0.146
Mof_C 	C 	0.0435	0.8746	0.5251	0.05
Mof_C 	C 	0.0689	0.8276	0.4802	0.11
Mof_C 	C 	0.2547	0.1848	0.6211	0.118
Mof_C 	C 	0.252	0.2496	0.5385	-0.083
Mof_C 	C 	0.0003	0.2054	0.6836	0.018
Mof_C 	C 	0.4163	0.3679	0.4989	-0.092
Mof_C 	C 	0.0135	0.09	0.7001	0.035
Mof_C 	C 	0.4172	0.3328	0.5194	0.03
Mof_C 	C 	0.9595	0.2502	0.6893	-0.141
Mof_C 	C 	0.2112	0.21	0.5562	-0.009
Mof_C 	C 	0.0403	0.6257	0.5208	-0.096
Mof_C 	C 	0.0839	0.706	0.5105	-0.094
Mof_C 	C 	0.9982	0.2508	0.6792	0.081
Mof_C 	C 	0.1993	0.6525	0.506	-0.06
Mof_C 	C 	0.0968	0.9053	0.4502	0.097
Mof_C 	C 	0.1982	0.6849	0.4689	0.097
Mof_C 	C 	0.3769	0.294	0.5414	-0.093
Mof_C 	C 	0.0395	0.7513	0.5247	0.056
Mof_C 	C 	0.3354	0.2941	0.5399	0.032
Mof_C 	C 	0.8383	0.2638	0.7182	0.03
Mof_C 	C 	0.0745	0.9553	0.5028	0.45
Mof_C 	C 	0.9945	0.3277	0.6678	-0.13
Mof_C 	C 	0.125	0.6662	0.5162	0.043
Mof_C 	C 	0.2952	0.2584	0.5598	0.031
Mof_C 	C 	0.2349	0.6441	0.5013	0.068
Mof_C 	C 	0.4861	0.3492	0.4739	-0.13
Mof_C 	C 	0.0097	0.1283	0.6938	-0.037
Mof_C 	C 	0.1452	0.4132	0.5797	0.065
Mof_C 	C 	0.0404	0.7071	0.5191	0.025
Mof_C 	C 	0.2112	0.1148	0.6679	0.162
Mof_C 	C 	0.0269	0.1584	0.6374	-0.027
Mof_C 	C 	0.0818	0.6654	0.5115	0.033
Mof_C 	C 	0.0941	0.8643	0.4423	-0.173
Mof_C 	C 	0.8781	0.2607	0.7222	-0.086
Mof_C 	C 	0.4016	0.481	0.4211	0.082
Mof_C 	C 	0.9562	0.2891	0.6839	0.071
Mof_C 	C 	0.0096	0.7535	0.5616	-0.116
Mof_C 	C 	0.0774	0.3718	0.6352	0.037
Mof_C 	C 	0.4045	0.4406	0.4362	-0.139
Mof_C 	C 	0.8578	0.4263	0.5814	-0.014
Mof_C 	C 	0.9038	0.5043	0.5532	0.051
Mof_C 	C 	0.9477	0.5459	0.5543	-0.118
Mof_C 	C 	0.2693	0.668	0.4595	-0.217
Mof_C 	C 	0.5742	0.317	0.5044	0.07
Mof_C 	C 	0.1962	0.4949	0.5945	-0.014
Mof_C 	C 	0.0341	0.327	0.6573	0.057
Mof_C 	C 	0.2681	0.7003	0.4223	0.109
Mof_C 	C 	0.9846	0.1371	0.7359	0.093
Mof_C 	C 	0.2513	0.1508	0.6619	-0.22
Mof_C 	C 	0.0015	0.6687	0.5276	-0.094
Mof_C 	C 	0.0119	0.7925	0.5622	0.015
Mof_C 	C 	0.3406	0.4186	0.4983	-0.103
Mof_C 	C 	0.5362	0.3216	0.5091	-0.051
Mof_C 	C 	0.9924	0.0605	0.7484	-0.16
Mof_C 	C 	0.3733	0.3696	0.4959	0.017
Mof_C 	C 	0.3374	0.4551	0.4813	-0
Mof_C 	C 	0.0824	0.4116	0.6612	-0.083
Mof_C 	C 	0.107	0.3724	0.5983	-0.123
Mof_C 	C 	0.0005	0.6254	0.5286	0.026
Mof_C 	C 	0.3668	0.5287	0.4301	0.022
Mof_C 	C 	0.9673	0.0693	0.7905	0.081
Mof_C 	C 	0.2115	0.1781	0.5982	-0.084
Mof_C 	C 	0.2268	0.4956	0.5586	-0.113
Mof_C 	C 	0.0216	0.1955	0.6421	-0.066
Mof_C 	C 	0.399	0.5615	0.3918	-0.161
Mof_C 	C 	0.7903	0.2941	0.6718	-0.088
Mof_C 	C 	0.9778	0.1739	0.7353	-0.116
Mof_C 	C 	0.5068	0.3028	0.5565	-0.006
Mof_C 	C 	0.2736	0.5379	0.5545	0.354
Mof_C 	C 	0.6033	0.3352	0.4588	-0.199
Mof_C 	C 	0.8711	0.4998	0.5115	-0.007
Mof_C 	C 	0.373	0.4117	0.4737	0.059
Mof_C 	C 	0.8318	0.4585	0.5048	-0.046
Mof_C 	C 	0.3683	0.4865	0.4454	-0.04
Mof_C 	C 	0.18	0.4131	0.5445	-0.116
Mof_C 	C 	0.8323	0.2949	0.6751	0.029
Mof_C 	C 	0.5305	0.349	0.4645	0.085
Mof_C 	C 	0.9542	0.5814	0.5232	0.042
Mof_C 	C 	0.1557	0.6881	0.4757	-0.127
Mof_C 	C 	0.1199	0.4505	0.6474	-0.025
Mof_C 	C 	0.3364	0.3312	0.5178	-0.091
Mof_C 	C 	0.9134	0.2888	0.6874	-0.002
Mof_C 	C 	0.0396	0.8306	0.5254	-0.069
Mof_C 	C 	0.4338	0.5118	0.3822	-0.127
Mof_C 	C 	0.8846	0.5371	0.4805	-0.028
Mof_C 	C 	0.7619	0.2369	0.7479	-0.023
Mof_C 	C 	0.8971	0.4676	0.5881	-0.093
Mof_C 	C 	0.4676	0.3055	0.5648	-0.088
Mof_C 	C 	0.9634	0.1076	0.7842	-0.145
Mof_C 	C 	0.5623	0.3664	0.4169	-0.144
Mof_C 	C 	0.7819	0.3776	0.5326	0.205
Mof_C 	C 	0.9215	0.5757	0.484	-0.086
Mof_C 	C 	0.1286	0.6312	0.5567	-0.086
Mof_C 	C 	0.4339	0.5559	0.3669	0.032
Mof_C 	C 	0.2326	0.7088	0.427	-0.16
Mof_C 	C 	0.1514	0.4525	0.609	-0.032
Mof_C 	C 	0.8013	0.2375	0.7545	-0.081
Mof_C 	C 	0.5987	0.3597	0.4105	0.093
Mof_C 	C 	0.221	0.4533	0.5341	0.013
Mof_C 	C 	0.7107	0.2591	0.6974	0.161
Mof_C 	C 	0.4023	0.6056	0.3877	0.434
Mof_C 	C 	0.644	0.3275	0.4542	0.618
Mof_C 	C 	0.3097	0.6615	0.4575	0.618
Mof_H 	H 	0.86593	0.33937	0.61256	0.05
Mof_H 	H 	0.9317	0.33955	0.62201	0.037
Mof_H 	H 	0.16621	0.60521	0.5734	0.035
Mof_H 	H 	0.44543	0.57217	0.53757	-0.577
Mof_H 	H 	0.36933	0.46797	0.64838	0.078
Mof_H 	H 	0.34676	0.48525	0.59924	0.097
Mof_H 	H 	0.37153	0.51533	0.65803	0.095
Mof_H 	H 	0.40313	0.46062	0.63703	0.091
Mof_H 	H 	0.45426	0.50075	0.64168	0.094
Mof_H 	H 	0.43595	0.47302	0.5793	0.096
Mof_H 	H 	0.14499	0.13522	0.59927	-0.006
Mof_H 	H 	0.32033	0.22811	0.61991	0.073
Mof_H 	H 	0.06242	0.28631	0.65647	0.075
Mof_H 	H 	0.0879	0.78285	0.45516	0.077
Mof_H 	H 	0.02397	0.87851	0.55202	0.013
Mof_H 	H 	0.25041	0.27062	0.51182	0.052
Mof_H 	H 	0.44362	0.39318	0.4854	0.054
Mof_H 	H 	0.03067	0.08405	0.67138	0.029
Mof_H 	H 	0.93358	0.22266	0.70054	0.077
Mof_H 	H 	0.1833	0.20475	0.53972	0.03
Mof_H 	H 	0.03992	0.59776	0.52176	0.059
Mof_H 	H 	0.11179	0.73297	0.50463	0.06
Mof_H 	H 	0.11702	0.93055	0.42623	0.004
Mof_H 	H 	0.37803	0.2686	0.55667	0.06
Mof_H 	H 	0.99415	0.3551	0.66379	0.069
Mof_H 	H 	0.23569	0.62201	0.52666	0.014
Mof_H 	H 	0.47815	0.36397	0.44389	0.072
Mof_H 	H 	0.21052	0.09226	0.69396	-0.017
Mof_H 	H 	0.03982	0.1522	0.60295	0.051
Mof_H 	H 	0.11029	0.86088	0.40939	0.082
Mof_H 	H 	0.87964	0.2396	0.74872	0.056
Mof_H 	H 	0.98852	0.72869	0.58542	0.066
Mof_H 	H 	0.42738	0.43571	0.42005	0.071
Mof_H 	H 	0.85329	0.40122	0.60525	0.042
Mof_H 	H 	0.97165	0.54719	0.57783	0.064
Mof_H 	H 	0.57938	0.30037	0.5348	0.015
Mof_H 	H 	0.20208	0.52246	0.61286	0.023
Mof_H 	H 	0.29165	0.71666	0.39372	0.016
Mof_H 	H 	0.27675	0.15405	0.68377	0.097
Mof_H 	H 	0.97442	0.66941	0.533	0.06
Mof_H 	H 	0.99276	0.79588	0.59044	0.024
Mof_H 	H 	0.32012	0.3979	0.52741	0.058
Mof_H 	H 	0.3128	0.45803	0.49531	0.032
Mof_H 	H 	0.06001	0.41106	0.68751	0.049
Mof_H 	H 	0.10313	0.34463	0.58322	0.067
Mof_H 	H 	0.34358	0.53301	0.44679	0.027
Mof_H 	H 	0.95281	0.04915	0.82352	0.012
Mof_H 	H 	0.03534	0.21715	0.61044	0.054
Mof_H 	H 	0.78681	0.31468	0.64668	0.064
Mof_H 	H 	0.96041	0.17843	0.76531	0.068
Mof_H 	H 	0.51326	0.28664	0.58614	0.04
Mof_H 	H 	0.80944	0.45533	0.47634	0.054
Mof_H 	H 	0.17564	0.38562	0.52774	0.061
Mof_H 	H 	0.1515	0.70744	0.44867	0.072
Mof_H 	H 	0.12425	0.4776	0.66552	0.031
Mof_H 	H 	0.30853	0.33087	0.5172	0.056
Mof_H 	H 	0.45575	0.50601	0.36483	0.065
Mof_H 	H 	0.86392	0.53566	0.45038	0.033
Mof_H 	H 	0.7377	0.21754	0.77388	0.044
Mof_H 	H 	0.91946	0.47074	0.61657	0.055
Mof_H 	H 	0.4477	0.2917	0.59833	0.063
Mof_H 	H 	0.94628	0.1136	0.81296	0.08
Mof_H 	H 	0.55854	0.38415	0.38664	0.082
Mof_H 	H 	0.92539	0.60005	0.45896	0.054
Mof_H 	H 	0.10602	0.6136	0.586	0.06
Mof_H 	H 	0.45664	0.57832	0.34168	0.017
Mof_H 	H 	0.23177	0.73086	0.40165	0.087
Mof_H 	H 	0.80368	0.21916	0.78524	0.053
Mof_H 	H 	0.6187	0.37053	0.37657	0.019
Mof_H 	H 	0.2445	0.45301	0.51153	0.027
Mof_N 	N 	0.4669	0.5751	0.5296	0.236
Mof_C 	C 	0.4296	0.5839	0.5369	1.021
Mof_C 	C 	0.5012	0.6122	0.4937	-0.425
Mof_C 	C 	0.4938	0.553	0.5343	-0.403
Mof_H 	H 	0.43757	0.61131	0.51649	-0.375
Mof_H 	H 	0.52668	0.60723	0.48688	0.133
Mof_H 	H 	0.51159	0.64055	0.51579	0.145
Mof_H 	H 	0.48844	0.61361	0.45423	0.143
Mof_H 	H 	0.52232	0.57086	0.51236	0.127
Mof_H 	H 	0.4772	0.52285	0.51636	0.148
Mof_H 	H 	0.50009	0.55061	0.57749	0.147
Mof_La	La	0.03081	0.07597	0.33035	2.041
Mof_La	La	0.30222	0.71175	0.04148	2.059
Mof_La	La	0.37902	0.7432	0.20766	2.384
Mof_O 	O 	0.9615	0.0916	0.35947	-0.46
Mof_O 	O 	0.0148	0.1156	0.14027	-0.491
Mof_O 	O 	0.0067	0.9817	0.45287	-0.587
Mof_O 	O 	0.0365	0.0939	0.21847	-0.58
Mof_O 	O 	0.9505	0.0542	0.27267	-0.595
Mof_O 	O 	0.9756	0.0113	0.39297	-0.485
Mof_O 	O 	0.4301	0.7149	0.26147	-0.591
Mof_O 	O 	0.6975	0.3449	0.15107	-0.622
Mof_O 	O 	0.3087	0.6518	0.09247	-0.518
Mof_O 	O 	0.6544	0.4343	0.23327	-0.42
Mof_O 	O 	0.702	0.4143	0.32717	-0.427
Mof_O 	O 	0.3653	0.6772	0.15097	-0.641
Mof_O 	O 	0.6418	0.3183	0.09157	-0.546
Mof_O 	O 	0.4304	0.8224	0.22577	-0.734
Mof_O 	O 	0.3828	0.7644	0.09337	-0.598
Mof_O 	O 	0.4592	0.7609	0.18207	-0.446
Mof_O 	O 	0.7687	0.445	0.39687	-0.418
Mof_O 	O 	0.3645	0.7925	0.01937	-0.496
Mof_O 	O 	0.6229	0.3705	0.15937	-0.441
Mof_N 	N 	0.4829	0.8973	0.26047	-0.053
Mof_C 	C 	0.0907	0.1611	0.15897	-0.186
Mof_C 	C 	0.5783	0.4034	0.20637	-0.033
Mof_C 	C 	0.6802	0.5478	0.30847	-0.078
Mof_C 	C 	0.7381	0.4927	0.37347	-0.026
Mof_C 	C 	0.8958	0.0665	0.30987	-0.275
Mof_C 	C 	0.6809	0.5879	0.31317	-0.039
Mof_C 	C 	0.9376	0.0707	0.31757	0.476
Mof_C 	C 	0.3732	0.537	0.21567	-0
Mof_C 	C 	0.9822	0.9781	0.41857	0.52
Mof_C 	C 	0.4444	0.863	0.22747	0.109
Mof_C 	C 	0.5054	0.8774	0.29427	-0.215
Mof_C 	C 	0.5147	0.9427	0.28137	-0.241
Mof_C 	C 	0.6686	0.1282	0.18447	0.051
Mof_C 	C 	0.8617	0.0344	0.27937	0.096
Mof_C 	C 	0.7769	0.0695	0.26987	-0.138
Mof_C 	C 	0.713	0.7484	0.33017	-0.14
Mof_C 	C 	0.2126	0.2814	0.14867	-0.146
Mof_C 	C 	0.1254	0.1689	0.19177	0.049
Mof_C 	C 	0.1724	0.2413	0.14687	0.108
Mof_C 	C 	0.8152	0.0699	0.28777	0.118
Mof_C 	C 	0.7504	0.0024	0.20517	-0.084
Mof_C 	C 	0.7946	0.7949	0.35027	0.017
Mof_C 	C 	0.6321	0.0484	0.16557	-0.092
Mof_C 	C 	0.91	0.9235	0.36677	0.034
Mof_C 	C 	0.6672	0.0844	0.18607	0.029
Mof_C 	C 	0.7498	0.7093	0.35597	-0.142
Mof_C 	C 	0.79	0.0012	0.22287	-0.01
Mof_C 	C 	0.3743	0.4146	0.18747	-0.096
Mof_C 	C 	0.294	0.3779	0.17717	-0.094
Mof_C 	C 	0.7492	0.7474	0.34587	0.081
Mof_C 	C 	0.3475	0.5468	0.17267	-0.06
Mof_C 	C 	0.0947	0.1915	0.11687	0.095
Mof_C 	C 	0.3151	0.5133	0.13557	0.096
Mof_C 	C 	0.706	0.0829	0.20807	-0.093
Mof_C 	C 	0.2487	0.2882	0.19137	0.056
Mof_C 	C 	0.7059	0.0413	0.20657	0.032
Mof_C 	C 	0.7362	0.5745	0.38487	0.03
Mof_C 	C 	0.0447	0.1192	0.16947	0.45
Mof_C 	C 	0.6723	0.6668	0.33447	-0.13
Mof_C 	C 	0.3338	0.4588	0.18287	0.043
Mof_C 	C 	0.7416	0.0368	0.22647	0.031
Mof_C 	C 	0.3559	0.5908	0.16797	0.068
Mof_C 	C 	0.6508	0.1369	0.14057	-0.13
Mof_C 	C 	0.8717	0.8814	0.36047	-0.037
Mof_C 	C 	0.5868	0.732	0.24637	0.065
Mof_C 	C 	0.2929	0.3333	0.18577	0.024
Mof_C 	C 	0.8852	0.0964	0.33457	0.162
Mof_C 	C 	0.8416	0.8685	0.30407	-0.027
Mof_C 	C 	0.3346	0.4164	0.17817	0.032
Mof_C 	C 	0.1357	0.2298	0.10897	-0.173
Mof_C 	C 	0.7393	0.6174	0.38887	-0.085
Mof_C 	C 	0.519	0.9206	0.08777	0.081
Mof_C 	C 	0.7109	0.6671	0.35057	0.071
Mof_C 	C 	0.2465	0.2561	0.22827	-0.115
Mof_C 	C 	0.6282	0.7056	0.30187	0.037
Mof_C 	C 	0.5594	0.9639	0.10287	-0.139
Mof_C 	C 	0.5737	0.4315	0.24807	-0.014
Mof_C 	C 	0.4957	0.3995	0.21987	0.051
Mof_C 	C 	0.4541	0.4018	0.22097	-0.118
Mof_C 	C 	0.332	0.6013	0.12617	-0.218
Mof_C 	C 	0.683	0.2572	0.17107	0.069
Mof_C 	C 	0.5051	0.7013	0.26117	-0.014
Mof_C 	C 	0.673	0.7071	0.32397	0.057
Mof_C 	C 	0.2997	0.5678	0.08897	0.108
Mof_C 	C 	0.8629	0.8475	0.40257	0.092
Mof_C 	C 	0.8492	0.1005	0.32857	-0.22
Mof_C 	C 	0.3313	0.3328	0.19427	-0.094
Mof_C 	C 	0.2075	0.2194	0.22887	0.014
Mof_C 	C 	0.5814	0.922	0.16497	-0.104
Mof_C 	C 	0.6784	0.2146	0.17577	-0.051
Mof_C 	C 	0.9395	0.9319	0.41507	-0.159
Mof_C 	C 	0.6304	0.0037	0.16257	0.016
Mof_C 	C 	0.5449	0.8823	0.14797	-0
Mof_C 	C 	0.5884	0.6708	0.32787	-0.083
Mof_C 	C 	0.6276	0.7346	0.26497	-0.123
Mof_C 	C 	0.3746	0.3751	0.19527	0.026
Mof_C 	C 	0.4713	0.8381	0.09677	0.022
Mof_C 	C 	0.9307	0.898	0.45717	0.08
Mof_C 	C 	0.8219	0.0334	0.26487	-0.083
Mof_C 	C 	0.5044	0.7312	0.22527	-0.113
Mof_C 	C 	0.8045	0.8261	0.30877	-0.066
Mof_C 	C 	0.4385	0.8375	0.05847	-0.164
Mof_C 	C 	0.7059	0.4962	0.33847	-0.088
Mof_C 	C 	0.8261	0.8039	0.40197	-0.116
Mof_C 	C 	0.6972	0.204	0.22317	-0.006
Mof_C 	C 	0.4621	0.7357	0.22117	0.354
Mof_C 	C 	0.6648	0.2681	0.12547	-0.2
Mof_C 	C 	0.5002	0.3713	0.17817	-0.008
Mof_C 	C 	0.5883	0.9613	0.14037	0.058
Mof_C 	C 	0.5415	0.3733	0.17147	-0.045
Mof_C 	C 	0.5135	0.8818	0.11207	-0.042
Mof_C 	C 	0.5869	0.7669	0.21117	-0.116
Mof_C 	C 	0.7051	0.5374	0.34177	0.029
Mof_C 	C 	0.651	0.1815	0.13117	0.083
Mof_C 	C 	0.4186	0.3728	0.18987	0.042
Mof_C 	C 	0.3119	0.4676	0.14237	-0.127
Mof_C 	C 	0.5495	0.6694	0.31407	-0.025
Mof_C 	C 	0.6688	0.0052	0.18447	-0.092
Mof_C 	C 	0.7112	0.6246	0.35407	-0.002
Mof_C 	C 	0.1694	0.209	0.19207	-0.069
Mof_C 	C 	0.4882	0.922	0.04887	-0.129
Mof_C 	C 	0.4629	0.3475	0.14717	-0.028
Mof_C 	C 	0.7631	0.525	0.41457	-0.023
Mof_C 	C 	0.5324	0.4295	0.25477	-0.093
Mof_C 	C 	0.6945	0.1621	0.23147	-0.088
Mof_C 	C 	0.8924	0.8558	0.45087	-0.145
Mof_C 	C 	0.6336	0.1959	0.08357	-0.144
Mof_C 	C 	0.6224	0.4043	0.19927	0.206
Mof_C 	C 	0.4243	0.3458	0.15067	-0.086
Mof_C 	C 	0.3688	0.4974	0.22337	-0.086
Mof_C 	C 	0.4441	0.878	0.03357	0.032
Mof_C 	C 	0.2912	0.5238	0.09367	-0.161
Mof_C 	C 	0.5475	0.6989	0.27567	-0.032
Mof_C 	C 	0.7625	0.5638	0.42117	-0.08
Mof_C 	C 	0.6403	0.239	0.07717	0.092
Mof_C 	C 	0.5467	0.7677	0.20077	0.013
Mof_C 	C 	0.7409	0.4516	0.36407	0.161
Mof_C 	C 	0.3944	0.7967	0.05437	0.434
Mof_C 	C 	0.6725	0.3165	0.12087	0.617
Mof_C 	C 	0.3385	0.6482	0.12417	0.617
Mof_H 	H 	0.66063	0.52656	0.27923	0.05
Mof_H 	H 	0.66045	0.59215	0.28868	0.036
Mof_H 	H 	0.39479	0.561	0.24007	0.035
Mof_H 	H 	0.42783	0.87326	0.20424	-0.582
Mof_H 	H 	0.53203	0.90136	0.31505	0.078
Mof_H 	H 	0.51475	0.86151	0.26591	0.097
Mof_H 	H 	0.48467	0.8562	0.3247	0.095
Mof_H 	H 	0.53938	0.94251	0.3037	0.091
Mof_H 	H 	0.49925	0.95351	0.30835	0.094
Mof_H 	H 	0.52698	0.96293	0.24597	0.096
Mof_H 	H 	0.86478	0.00977	0.26594	-0.006
Mof_H 	H 	0.77189	0.09222	0.28658	0.073
Mof_H 	H 	0.71369	0.77611	0.32314	0.075
Mof_H 	H 	0.21715	0.30505	0.12183	0.075
Mof_H 	H 	0.12149	0.14546	0.21869	0.013
Mof_H 	H 	0.72938	0.97979	0.17849	0.051
Mof_H 	H 	0.60682	0.05044	0.15207	0.054
Mof_H 	H 	0.91595	0.94662	0.33805	0.029
Mof_H 	H 	0.77734	0.71092	0.36721	0.077
Mof_H 	H 	0.79525	0.97855	0.20639	0.03
Mof_H 	H 	0.40224	0.44216	0.18843	0.058
Mof_H 	H 	0.26703	0.37882	0.1713	0.06
Mof_H 	H 	0.06945	0.18647	0.0929	0.002
Mof_H 	H 	0.7314	0.10943	0.22334	0.06
Mof_H 	H 	0.6449	0.63905	0.33046	0.069
Mof_H 	H 	0.37799	0.61368	0.19333	0.014
Mof_H 	H 	0.63603	0.11418	0.11056	0.07
Mof_H 	H 	0.90774	0.11826	0.36063	-0.017
Mof_H 	H 	0.8478	0.88762	0.26962	0.052
Mof_H 	H 	0.13912	0.24941	0.07606	0.079
Mof_H 	H 	0.7604	0.64004	0.41539	0.055
Mof_H 	H 	0.27131	0.25983	0.25209	0.065
Mof_H 	H 	0.56429	0.99167	0.08672	0.069
Mof_H 	H 	0.59878	0.45207	0.27192	0.041
Mof_H 	H 	0.45281	0.42446	0.2445	0.064
Mof_H 	H 	0.69963	0.27901	0.20147	0.014
Mof_H 	H 	0.47754	0.67962	0.27953	0.023
Mof_H 	H 	0.28334	0.57499	0.06039	0.013
Mof_H 	H 	0.84595	0.1227	0.35044	0.097
Mof_H 	H 	0.33059	0.30501	0.19967	0.059
Mof_H 	H 	0.20412	0.19688	0.25711	0.024
Mof_H 	H 	0.6021	0.92222	0.19408	0.058
Mof_H 	H 	0.54197	0.85477	0.16198	0.031
Mof_H 	H 	0.58894	0.64895	0.35418	0.048
Mof_H 	H 	0.65537	0.7585	0.24989	0.067
Mof_H 	H 	0.46699	0.81057	0.11346	0.027
Mof_H 	H 	0.95085	0.90366	0.49019	0.012
Mof_H 	H 	0.78285	0.81819	0.27711	0.054
Mof_H 	H 	0.68532	0.47213	0.31335	0.064
Mof_H 	H 	0.82157	0.78198	0.43198	0.067
Mof_H 	H 	0.71336	0.22662	0.25281	0.04
Mof_H 	H 	0.54467	0.35411	0.14301	0.052
Mof_H 	H 	0.61438	0.79002	0.19441	0.061
Mof_H 	H 	0.29256	0.44406	0.11534	0.07
Mof_H 	H 	0.5224	0.64665	0.33219	0.03
Mof_H 	H 	0.66913	0.97766	0.18387	0.056
Mof_H 	H 	0.49399	0.94974	0.0315	0.063
Mof_H 	H 	0.46434	0.32826	0.11705	0.032
Mof_H 	H 	0.78246	0.52016	0.44055	0.044
Mof_H 	H 	0.52926	0.44872	0.28324	0.055
Mof_H 	H 	0.7083	0.156	0.265	0.063
Mof_H 	H 	0.8864	0.83268	0.47963	0.079
Mof_H 	H 	0.61585	0.17439	0.05331	0.078
Mof_H 	H 	0.39995	0.32534	0.12563	0.052
Mof_H 	H 	0.3864	0.49242	0.25267	0.06
Mof_H 	H 	0.42168	0.87832	0.00835	0.013
Mof_H 	H 	0.26914	0.50091	0.06832	0.084
Mof_H 	H 	0.78084	0.58452	0.45191	0.052
Mof_H 	H 	0.62947	0.24817	0.04324	0.015
Mof_H 	H 	0.54699	0.79149	0.1782	0.027
Mof_N 	N 	0.4249	0.8918	0.19627	0.238
Mof_C 	C 	0.4161	0.8457	0.20357	1.028
Mof_C 	C 	0.3878	0.889	0.16037	-0.425
Mof_C 	C 	0.447	0.9408	0.20097	-0.403
Mof_H 	H 	0.38869	0.82626	0.18316	-0.378
Mof_H 	H 	0.39277	0.91945	0.15355	0.132
Mof_H 	H 	0.35945	0.87104	0.18246	0.144
Mof_H 	H 	0.38639	0.87483	0.1209	0.141
Mof_H 	H 	0.42914	0.95146	0.17903	0.127
Mof_H 	H 	0.47715	0.95435	0.18303	0.147
Mof_H 	H 	0.44939	0.94948	0.24416	0.147
Mof_La	La	0.92403	0.95484	0.99701	2.072
Mof_La	La	0.28825	0.59047	0.70814	2.088
Mof_La	La	0.2568	0.63582	0.87432	2.384
Mof_O 	O 	0.9084	0.8699	0.02613	-0.468
Mof_O 	O 	0.8844	0.8992	0.80693	-0.489
Mof_O 	O 	0.0183	0.025	0.11953	-0.588
Mof_O 	O 	0.9061	0.9426	0.88513	-0.583
Mof_O 	O 	0.9458	0.8963	0.93933	-0.593
Mof_O 	O 	0.9887	0.9643	0.05963	-0.492
Mof_O 	O 	0.2851	0.7152	0.92813	-0.584
Mof_O 	O 	0.6551	0.3526	0.81773	-0.622
Mof_O 	O 	0.3482	0.6569	0.75913	-0.518
Mof_O 	O 	0.5657	0.2201	0.89993	-0.42
Mof_O 	O 	0.5857	0.2877	0.99383	-0.414
Mof_O 	O 	0.3228	0.6881	0.81763	-0.641
Mof_O 	O 	0.6817	0.3235	0.75823	-0.544
Mof_O 	O 	0.1776	0.608	0.89243	-0.73
Mof_O 	O 	0.2356	0.6184	0.76003	-0.599
Mof_O 	O 	0.2391	0.6983	0.84873	-0.445
Mof_O 	O 	0.555	0.3237	0.06353	-0.413
Mof_O 	O 	0.2075	0.572	0.68603	-0.491
Mof_O 	O 	0.6295	0.2524	0.82603	-0.443
Mof_N 	N 	0.1027	0.5856	0.92713	-0.051
Mof_C 	C 	0.8389	0.9296	0.82563	-0.187
Mof_C 	C 	0.5966	0.1749	0.87303	-0.033
Mof_C 	C 	0.4522	0.1324	0.97513	-0.078
Mof_C 	C 	0.5073	0.2454	0.04013	-0.009
Mof_C 	C 	0.9335	0.8293	0.97653	-0.202
Mof_C 	C 	0.4121	0.093	0.97983	-0.01
Mof_C 	C 	0.9293	0.8669	0.98423	0.462
Mof_C 	C 	0.463	0.8362	0.88233	0.001
Mof_C 	C 	0.0219	0.0041	0.08523	0.52
Mof_C 	C 	0.137	0.5814	0.89413	0.113
Mof_C 	C 	0.1226	0.628	0.96093	-0.221
Mof_C 	C 	0.0573	0.572	0.94803	-0.245
Mof_C 	C 	0.8718	0.5404	0.85113	0.051
Mof_C 	C 	0.9656	0.8273	0.94603	0.045
Mof_C 	C 	0.9305	0.7074	0.93653	-0.105
Mof_C 	C 	0.2516	0.9646	0.99683	-0.15
Mof_C 	C 	0.7186	0.9312	0.81533	-0.147
Mof_C 	C 	0.8311	0.9565	0.85843	0.052
Mof_C 	C 	0.7587	0.9311	0.81353	0.111
Mof_C 	C 	0.9301	0.7453	0.95443	0.066
Mof_C 	C 	0.9976	0.748	0.87183	-0.065
Mof_C 	C 	0.2051	0.9997	0.01693	-0.003
Mof_C 	C 	0.9516	0.5837	0.83223	-0.095
Mof_C 	C 	0.0765	0.9865	0.03343	0.04
Mof_C 	C 	0.9156	0.5828	0.85273	0.034
Mof_C 	C 	0.2907	0.0405	0.02263	-0.165
Mof_C 	C 	0.9988	0.7888	0.88953	-0.034
Mof_C 	C 	0.5854	0.9597	0.85413	-0.095
Mof_C 	C 	0.6221	0.9161	0.84383	-0.093
Mof_C 	C 	0.2526	0.0018	0.01253	0.087
Mof_C 	C 	0.4532	0.8007	0.83933	-0.059
Mof_C 	C 	0.8085	0.9032	0.78353	0.099
Mof_C 	C 	0.4867	0.8018	0.80223	0.097
Mof_C 	C 	0.9171	0.6231	0.87473	-0.098
Mof_C 	C 	0.7118	0.9605	0.85803	0.058
Mof_C 	C 	0.9587	0.6646	0.87323	0.044
Mof_C 	C 	0.4255	0.1617	0.05153	0.014
Mof_C 	C 	0.8808	0.9255	0.83613	0.452
Mof_C 	C 	0.3332	0.0055	0.00113	-0.202
Mof_C 	C 	0.5412	0.875	0.84953	0.045
Mof_C 	C 	0.9632	0.7048	0.89313	0.015
Mof_C 	C 	0.4092	0.7651	0.83463	0.068
Mof_C 	C 	0.8631	0.5139	0.80723	-0.128
Mof_C 	C 	0.1186	0.9903	0.02713	-0.049
Mof_C 	C 	0.268	0.8548	0.91303	0.043
Mof_C 	C 	0.6667	0.9596	0.85243	0.025
Mof_C 	C 	0.9036	0.7888	0.00123	0.051
Mof_C 	C 	0.1315	0.9731	0.97073	-0.021
Mof_C 	C 	0.5836	0.9182	0.84483	0.033
Mof_C 	C 	0.7702	0.9059	0.77563	-0.174
Mof_C 	C 	0.3826	0.1219	0.05553	-0.065
Mof_C 	C 	0.0794	0.5984	0.75443	0.081
Mof_C 	C 	0.3329	0.0438	0.01723	0.107
Mof_C 	C 	0.7439	0.9904	0.89493	-0.117
Mof_C 	C 	0.2944	0.9226	0.96853	-0.002
Mof_C 	C 	0.0361	0.5955	0.76953	-0.138
Mof_C 	C 	0.5685	0.1422	0.91473	-0.012
Mof_C 	C 	0.6005	0.0962	0.88653	0.054
Mof_C 	C 	0.5982	0.0523	0.88763	-0.119
Mof_C 	C 	0.3987	0.7307	0.79283	-0.217
Mof_C 	C 	0.7428	0.4258	0.83773	0.069
Mof_C 	C 	0.2987	0.8038	0.92783	-0.028
Mof_C 	C 	0.2929	0.9659	0.99063	0.104
Mof_C 	C 	0.4322	0.7319	0.75563	0.109
Mof_C 	C 	0.1525	0.0154	0.06923	0.092
Mof_C 	C 	0.8995	0.7487	0.99523	-0.109
Mof_C 	C 	0.6672	0.9985	0.86093	-0.094
Mof_C 	C 	0.7806	0.9881	0.89553	0.016
Mof_C 	C 	0.078	0.6594	0.83163	-0.102
Mof_C 	C 	0.7854	0.4638	0.84243	-0.05
Mof_C 	C 	0.0681	0.0076	0.08173	-0.164
Mof_C 	C 	0.9963	0.6267	0.82923	0.021
Mof_C 	C 	0.1177	0.6626	0.81463	-0.001
Mof_C 	C 	0.3292	0.9176	0.99453	-0.024
Mof_C 	C 	0.2654	0.893	0.93163	-0.091
Mof_C 	C 	0.6249	0.9995	0.86193	0.027
Mof_C 	C 	0.1619	0.6332	0.76343	0.022
Mof_C 	C 	0.102	0.0327	0.12383	0.082
Mof_C 	C 	0.9666	0.7885	0.93153	-0.042
Mof_C 	C 	0.2688	0.7732	0.89193	-0.102
Mof_C 	C 	0.1739	0.9784	0.97543	-0.044
Mof_C 	C 	0.1625	0.601	0.72513	-0.16
Mof_C 	C 	0.5038	0.2097	0.00513	-0.122
Mof_C 	C 	0.1961	0.0222	0.06863	-0.112
Mof_C 	C 	0.796	0.4932	0.88983	-0.006
Mof_C 	C 	0.2643	0.7264	0.88783	0.35
Mof_C 	C 	0.7319	0.3967	0.79213	-0.198
Mof_C 	C 	0.6287	0.1289	0.84483	-0.009
Mof_C 	C 	0.0387	0.627	0.80703	0.057
Mof_C 	C 	0.6267	0.1682	0.83813	-0.044
Mof_C 	C 	0.1182	0.6317	0.77873	-0.04
Mof_C 	C 	0.2331	0.82	0.87783	-0.101
Mof_C 	C 	0.4626	0.1677	0.00843	0.032
Mof_C 	C 	0.8185	0.4695	0.79783	0.085
Mof_C 	C 	0.6272	0.0458	0.85653	0.045
Mof_C 	C 	0.5324	0.8443	0.80903	-0.127
Mof_C 	C 	0.3306	0.8801	0.98073	-0.066
Mof_C 	C 	0.9948	0.6636	0.85113	-0.098
Mof_C 	C 	0.3754	0.0866	0.02073	-0.038
Mof_C 	C 	0.791	0.9604	0.85873	-0.07
Mof_C 	C 	0.078	0.5662	0.71553	-0.127
Mof_C 	C 	0.6525	0.1154	0.81383	-0.026
Mof_C 	C 	0.475	0.2381	0.08123	-0.04
Mof_C 	C 	0.5705	0.1029	0.92143	-0.094
Mof_C 	C 	0.8379	0.5324	0.89813	-0.086
Mof_C 	C 	0.1442	0.0366	0.11753	-0.147
Mof_C 	C 	0.8041	0.4377	0.75023	-0.143
Mof_C 	C 	0.5957	0.2181	0.86593	0.206
Mof_C 	C 	0.6542	0.0785	0.81733	-0.088
Mof_C 	C 	0.5026	0.8714	0.89003	-0.085
Mof_C 	C 	0.122	0.5661	0.70023	0.032
Mof_C 	C 	0.4762	0.7674	0.76033	-0.16
Mof_C 	C 	0.3011	0.8486	0.94233	-0.005
Mof_C 	C 	0.4362	0.1987	0.08783	-0.066
Mof_C 	C 	0.761	0.4013	0.74383	0.093
Mof_C 	C 	0.2323	0.779	0.86743	0.004
Mof_C 	C 	0.5484	0.2893	0.03073	0.144
Mof_C 	C 	0.2033	0.5977	0.72103	0.434
Mof_C 	C 	0.6835	0.356	0.78753	0.618
Mof_C 	C 	0.3518	0.6903	0.79083	0.618
Mof_H 	H 	0.47344	0.13407	0.94589	0.052
Mof_H 	H 	0.40785	0.0683	0.95534	0.03
Mof_H 	H 	0.439	0.83379	0.90673	0.038
Mof_H 	H 	0.12674	0.55457	0.8709	-0.576
Mof_H 	H 	0.09864	0.63067	0.98171	0.083
Mof_H 	H 	0.13849	0.65324	0.93257	0.1
Mof_H 	H 	0.1438	0.62847	0.99136	0.102
Mof_H 	H 	0.05749	0.59687	0.97036	0.094
Mof_H 	H 	0.04649	0.54574	0.97501	0.1
Mof_H 	H 	0.03707	0.56405	0.91263	0.098
Mof_H 	H 	0.99023	0.85501	0.9326	0.011
Mof_H 	H 	0.90778	0.67967	0.95324	0.066
Mof_H 	H 	0.22389	0.93758	0.9898	0.082
Mof_H 	H 	0.69495	0.9121	0.78849	0.078
Mof_H 	H 	0.85454	0.97603	0.88535	0.012
Mof_H 	H 	0.02021	0.74959	0.84515	0.047
Mof_H 	H 	0.94956	0.55638	0.81873	0.056
Mof_H 	H 	0.05338	0.96933	0.00471	0.022
Mof_H 	H 	0.28908	0.06642	0.03387	0.083
Mof_H 	H 	0.02145	0.8167	0.87305	0.039
Mof_H 	H 	0.55784	0.96008	0.85509	0.059
Mof_H 	H 	0.62118	0.88821	0.83796	0.061
Mof_H 	H 	0.81353	0.88298	0.75956	0.004
Mof_H 	H 	0.89057	0.62197	0.89	0.064
Mof_H 	H 	0.36095	0.00585	0.99712	0.104
Mof_H 	H 	0.38632	0.76431	0.85999	0.015
Mof_H 	H 	0.88582	0.52185	0.77722	0.072
Mof_H 	H 	0.88174	0.78948	0.02729	0.016
Mof_H 	H 	0.11238	0.96018	0.93628	0.052
Mof_H 	H 	0.75059	0.88971	0.74272	0.083
Mof_H 	H 	0.35996	0.12036	0.08205	0.047
Mof_H 	H 	0.74017	0.01148	0.91875	0.069
Mof_H 	H 	0.00833	0.57262	0.75338	0.071
Mof_H 	H 	0.54793	0.14671	0.93858	0.043
Mof_H 	H 	0.57554	0.02835	0.91116	0.067
Mof_H 	H 	0.72099	0.42062	0.86813	0.016
Mof_H 	H 	0.32038	0.79792	0.94619	0.031
Mof_H 	H 	0.42501	0.70835	0.72705	0.016
Mof_H 	H 	0.8773	0.72325	0.0171	0.052
Mof_H 	H 	0.69499	0.02558	0.86633	0.061
Mof_H 	H 	0.80312	0.00724	0.92377	0.026
Mof_H 	H 	0.07778	0.67988	0.86074	0.059
Mof_H 	H 	0.14523	0.6872	0.82864	0.032
Mof_H 	H 	0.35105	0.93999	0.02084	0.018
Mof_H 	H 	0.2415	0.89687	0.91655	0.057
Mof_H 	H 	0.18943	0.65642	0.78012	0.027
Mof_H 	H 	0.09634	0.04719	0.15685	0.011
Mof_H 	H 	0.18181	0.96466	0.94377	0.049
Mof_H 	H 	0.52787	0.21319	0.98001	0.084
Mof_H 	H 	0.21802	0.03959	0.09864	0.065
Mof_H 	H 	0.77338	0.48674	0.91947	0.044
Mof_H 	H 	0.64589	0.19056	0.80967	0.053
Mof_H 	H 	0.20998	0.82436	0.86107	0.057
Mof_H 	H 	0.55594	0.8485	0.782	0.072
Mof_H 	H 	0.35335	0.87575	0.99885	0.049
Mof_H 	H 	0.02234	0.69147	0.85053	0.06
Mof_H 	H 	0.05026	0.54425	0.69816	0.065
Mof_H 	H 	0.67174	0.13608	0.78371	0.032
Mof_H 	H 	0.47984	0.2623	0.10721	0.049
Mof_H 	H 	0.55128	0.08054	0.9499	0.058
Mof_H 	H 	0.844	0.5523	0.93166	0.065
Mof_H 	H 	0.16732	0.05372	0.14629	0.08
Mof_H 	H 	0.82561	0.44146	0.71997	0.081
Mof_H 	H 	0.67466	0.07461	0.79229	0.055
Mof_H 	H 	0.50758	0.89398	0.91933	0.063
Mof_H 	H 	0.12168	0.54336	0.67501	0.017
Mof_H 	H 	0.49909	0.76823	0.73498	0.087
Mof_H 	H 	0.41548	0.19632	0.11857	0.047
Mof_H 	H 	0.75183	0.3813	0.7099	0.019
Mof_H 	H 	0.20851	0.7555	0.84486	0.031
Mof_N 	N 	0.1082	0.5331	0.86293	0.237
Mof_C 	C 	0.1543	0.5704	0.87023	1.018
Mof_C 	C 	0.111	0.4988	0.82703	-0.425
Mof_C 	C 	0.0592	0.5062	0.86763	-0.406
Mof_H 	H 	0.17374	0.56243	0.84982	-0.374
Mof_H 	H 	0.08055	0.47332	0.82021	0.133
Mof_H 	H 	0.12896	0.48841	0.84912	0.146
Mof_H 	H 	0.12517	0.51156	0.78756	0.143
Mof_H 	H 	0.04854	0.47768	0.84569	0.129
Mof_H 	H 	0.04565	0.5228	0.84969	0.149
Mof_H 	H 	0.05052	0.49991	0.91082	0.15
Mof_La	La	0.95484	0.03081	0.16368	2.035
Mof_La	La	0.59047	0.30222	0.87481	2.093
Mof_La	La	0.63582	0.37902	0.04099	2.367
Mof_O 	O 	0.8699	0.9615	0.1928	-0.461
Mof_O 	O 	0.8992	0.0148	0.9736	-0.467
Mof_O 	O 	0.025	0.0067	0.2862	-0.586
Mof_O 	O 	0.9426	0.0365	0.0518	-0.575
Mof_O 	O 	0.8963	0.9505	0.106	-0.602
Mof_O 	O 	0.9643	0.9756	0.2263	-0.484
Mof_O 	O 	0.7152	0.4301	0.0948	-0.591
Mof_O 	O 	0.3526	0.6975	0.9844	-0.607
Mof_O 	O 	0.6569	0.3087	0.9258	-0.515
Mof_O 	O 	0.2201	0.6544	0.0666	-0.417
Mof_O 	O 	0.2877	0.702	0.1605	-0.425
Mof_O 	O 	0.6881	0.3653	0.9843	-0.629
Mof_O 	O 	0.3235	0.6418	0.9249	-0.54
Mof_O 	O 	0.608	0.4304	0.0591	-0.773
Mof_O 	O 	0.6184	0.3828	0.9267	-0.592
Mof_O 	O 	0.6983	0.4592	0.0154	-0.451
Mof_O 	O 	0.3237	0.7687	0.2302	-0.418
Mof_O 	O 	0.572	0.3645	0.8527	-0.489
Mof_O 	O 	0.2524	0.6229	0.9927	-0.429
Mof_N 	N 	0.5856	0.4829	0.0938	-0.046
Mof_C 	C 	0.9296	0.0907	0.9923	-0.121
Mof_C 	C 	0.1749	0.5783	0.0397	-0.017
Mof_C 	C 	0.1324	0.6802	0.1418	-0.078
Mof_C 	C 	0.2454	0.7381	0.2068	-0.026
Mof_C 	C 	0.8293	0.8958	0.1432	-0.278
Mof_C 	C 	0.093	0.6809	0.1465	-0.04
Mof_C 	C 	0.8669	0.9376	0.1509	0.478
Mof_C 	C 	0.8362	0.3732	0.049	-0.009
Mof_C 	C 	0.0041	0.9822	0.2519	0.52
Mof_C 	C 	0.5814	0.4444	0.0608	0.077
Mof_C 	C 	0.628	0.5054	0.1276	-0.215
Mof_C 	C 	0.572	0.5147	0.1147	-0.243
Mof_C 	C 	0.5404	0.6686	0.0178	0.026
Mof_C 	C 	0.8273	0.8617	0.1127	0.096
Mof_C 	C 	0.7074	0.7769	0.1032	-0.136
Mof_C 	C 	0.9646	0.713	0.1635	-0.14
Mof_C 	C 	0.9312	0.2126	0.982	-0.114
Mof_C 	C 	0.9565	0.1254	0.0251	-0.007
Mof_C 	C 	0.9311	0.1724	0.9802	0.094
Mof_C 	C 	0.7453	0.8152	0.1211	0.116
Mof_C 	C 	0.748	0.7504	0.0385	-0.081
Mof_C 	C 	0.9997	0.7946	0.1836	0.017
Mof_C 	C 	0.5837	0.6321	0.9989	-0.086
Mof_C 	C 	0.9865	0.91	0.2001	0.035
Mof_C 	C 	0.5828	0.6672	0.0194	0.027
Mof_C 	C 	0.0405	0.7498	0.1893	-0.141
Mof_C 	C 	0.7888	0.79	0.0562	-0.012
Mof_C 	C 	0.9597	0.3743	0.0208	-0.11
Mof_C 	C 	0.9161	0.294	0.0105	-0.107
Mof_C 	C 	0.0018	0.7492	0.1792	0.08
Mof_C 	C 	0.8007	0.3475	0.006	-0.061
Mof_C 	C 	0.9032	0.0947	0.9502	0.056
Mof_C 	C 	0.8018	0.3151	0.9689	0.098
Mof_C 	C 	0.6231	0.706	0.0414	-0.101
Mof_C 	C 	0.9605	0.2487	0.0247	0.027
Mof_C 	C 	0.6646	0.7059	0.0399	0.045
Mof_C 	C 	0.1617	0.7362	0.2182	0.029
Mof_C 	C 	0.9255	0.0447	0.0028	0.399
Mof_C 	C 	0.0055	0.6723	0.1678	-0.131
Mof_C 	C 	0.875	0.3338	0.0162	0.017
Mof_C 	C 	0.7048	0.7416	0.0598	0.024
Mof_C 	C 	0.7651	0.3559	0.0013	0.044
Mof_C 	C 	0.5139	0.6508	0.9739	-0.1
Mof_C 	C 	0.9903	0.8717	0.1938	-0.037
Mof_C 	C 	0.8548	0.5868	0.0797	0.064
Mof_C 	C 	0.9596	0.2929	0.0191	0.036
Mof_C 	C 	0.7888	0.8852	0.1679	0.163
Mof_C 	C 	0.9731	0.8416	0.1374	-0.028
Mof_C 	C 	0.9182	0.3346	0.0115	0.045
Mof_C 	C 	0.9059	0.1357	0.9423	-0.141
Mof_C 	C 	0.1219	0.7393	0.2222	-0.086
Mof_C 	C 	0.5984	0.519	0.9211	0.063
Mof_C 	C 	0.0438	0.7109	0.1839	0.07
Mof_C 	C 	0.9904	0.2465	0.0616	-0.089
Mof_C 	C 	0.9226	0.6282	0.1352	0.036
Mof_C 	C 	0.5955	0.5594	0.9362	-0.112
Mof_C 	C 	0.1422	0.5737	0.0814	-0.029
Mof_C 	C 	0.0962	0.4957	0.0532	0.035
Mof_C 	C 	0.0523	0.4541	0.0543	-0.101
Mof_C 	C 	0.7307	0.332	0.9595	-0.194
Mof_C 	C 	0.4258	0.683	0.0044	0.039
Mof_C 	C 	0.8038	0.5051	0.0945	-0.013
Mof_C 	C 	0.9659	0.673	0.1573	0.056
Mof_C 	C 	0.7319	0.2997	0.9223	0.099
Mof_C 	C 	0.0154	0.8629	0.2359	0.092
Mof_C 	C 	0.7487	0.8492	0.1619	-0.221
Mof_C 	C 	0.9985	0.3313	0.0276	-0.106
Mof_C 	C 	0.9881	0.2075	0.0622	-0.012
Mof_C 	C 	0.6594	0.5814	0.9983	-0.045
Mof_C 	C 	0.4638	0.6784	0.0091	-0.048
Mof_C 	C 	0.0076	0.9395	0.2484	-0.16
Mof_C 	C 	0.6267	0.6304	0.9959	0.046
Mof_C 	C 	0.6626	0.5449	0.9813	-0.038
Mof_C 	C 	0.9176	0.5884	0.1612	-0.084
Mof_C 	C 	0.893	0.6276	0.0983	-0.124
Mof_C 	C 	0.9995	0.3746	0.0286	0.04
Mof_C 	C 	0.6332	0.4713	0.9301	0.01
Mof_C 	C 	0.0327	0.9307	0.2905	0.08
Mof_C 	C 	0.7885	0.8219	0.0982	-0.084
Mof_C 	C 	0.7732	0.5044	0.0586	-0.117
Mof_C 	C 	0.9784	0.8045	0.1421	-0.066
Mof_C 	C 	0.601	0.4385	0.8918	-0.152
Mof_C 	C 	0.2097	0.7059	0.1718	-0.089
Mof_C 	C 	0.0222	0.8261	0.2353	-0.116
Mof_C 	C 	0.4932	0.6972	0.0565	-0.017
Mof_C 	C 	0.7264	0.4621	0.0545	0.354
Mof_C 	C 	0.3967	0.6648	0.9588	-0.17
Mof_C 	C 	0.1289	0.5002	0.0115	0.001
Mof_C 	C 	0.627	0.5883	0.9737	0.026
Mof_C 	C 	0.1682	0.5415	0.0048	-0.081
Mof_C 	C 	0.6317	0.5135	0.9454	-0.013
Mof_C 	C 	0.82	0.5869	0.0445	-0.118
Mof_C 	C 	0.1677	0.7051	0.1751	0.028
Mof_C 	C 	0.4695	0.651	0.9645	0.083
Mof_C 	C 	0.0458	0.4186	0.0232	0.01
Mof_C 	C 	0.8443	0.3119	0.9757	-0.099
Mof_C 	C 	0.8801	0.5495	0.1474	-0.025
Mof_C 	C 	0.6636	0.6688	0.0178	-0.122
Mof_C 	C 	0.0866	0.7112	0.1874	-0.003
Mof_C 	C 	0.9604	0.1694	0.0254	-0.05
Mof_C 	C 	0.5662	0.4882	0.8822	-0.115
Mof_C 	C 	0.1154	0.4629	0.9805	-0.036
Mof_C 	C 	0.2381	0.7631	0.2479	-0.024
Mof_C 	C 	0.1029	0.5324	0.0881	-0.081
Mof_C 	C 	0.5324	0.6945	0.0648	-0.077
Mof_C 	C 	0.0366	0.8924	0.2842	-0.145
Mof_C 	C 	0.4377	0.6336	0.9169	-0.132
Mof_C 	C 	0.2181	0.6224	0.0326	0.188
Mof_C 	C 	0.0785	0.4243	0.984	-0.051
Mof_C 	C 	0.8714	0.3688	0.0567	-0.076
Mof_C 	C 	0.5661	0.4441	0.8669	0.025
Mof_C 	C 	0.7674	0.2912	0.927	-0.152
Mof_C 	C 	0.8486	0.5475	0.109	-0.034
Mof_C 	C 	0.1987	0.7625	0.2545	-0.081
Mof_C 	C 	0.4013	0.6403	0.9105	0.079
Mof_C 	C 	0.779	0.5467	0.0341	0.014
Mof_C 	C 	0.2893	0.7409	0.1974	0.161
Mof_C 	C 	0.5977	0.3944	0.8877	0.432
Mof_C 	C 	0.356	0.6725	0.9542	0.606
Mof_C 	C 	0.6903	0.3385	0.9575	0.61
Mof_H 	H 	0.13407	0.66063	0.11256	0.047
Mof_H 	H 	0.0683	0.66045	0.12201	0.035
Mof_H 	H 	0.83379	0.39479	0.0734	0.037
Mof_H 	H 	0.55457	0.42783	0.03757	-0.682
Mof_H 	H 	0.63067	0.53203	0.14838	0.078
Mof_H 	H 	0.65324	0.51475	0.09924	0.096
Mof_H 	H 	0.62847	0.48467	0.15803	0.096
Mof_H 	H 	0.59687	0.53938	0.13703	0.09
Mof_H 	H 	0.54574	0.49925	0.14168	0.094
Mof_H 	H 	0.56405	0.52698	0.0793	0.093
Mof_H 	H 	0.85501	0.86478	0.09927	-0.008
Mof_H 	H 	0.67967	0.77189	0.11991	0.072
Mof_H 	H 	0.93758	0.71369	0.15647	0.074
Mof_H 	H 	0.9121	0.21715	0.95516	0.07
Mof_H 	H 	0.97603	0.12149	0.05202	0.03
Mof_H 	H 	0.74959	0.72938	0.01182	0.049
Mof_H 	H 	0.55638	0.60682	0.9854	0.057
Mof_H 	H 	0.96933	0.91595	0.17138	0.028
Mof_H 	H 	0.06642	0.77734	0.20054	0.076
Mof_H 	H 	0.8167	0.79525	0.03972	0.028
Mof_H 	H 	0.96008	0.40224	0.02176	0.062
Mof_H 	H 	0.88821	0.26703	0.00463	0.061
Mof_H 	H 	0.88298	0.06945	0.92623	0.019
Mof_H 	H 	0.62197	0.7314	0.05667	0.062
Mof_H 	H 	0.00585	0.6449	0.16379	0.068
Mof_H 	H 	0.76431	0.37799	0.02666	0.019
Mof_H 	H 	0.52185	0.63603	0.94389	0.065
Mof_H 	H 	0.78948	0.90774	0.19396	-0.018
Mof_H 	H 	0.96018	0.8478	0.10295	0.05
Mof_H 	H 	0.88971	0.13912	0.90939	0.073
Mof_H 	H 	0.12036	0.7604	0.24872	0.055
Mof_H 	H 	0.01148	0.27131	0.08542	0.055
Mof_H 	H 	0.57262	0.56429	0.92005	0.063
Mof_H 	H 	0.14671	0.59878	0.10525	0.045
Mof_H 	H 	0.02835	0.45281	0.07783	0.057
Mof_H 	H 	0.42062	0.69963	0.0348	0.022
Mof_H 	H 	0.79792	0.47754	0.11286	0.022
Mof_H 	H 	0.70835	0.28334	0.89372	0.02
Mof_H 	H 	0.72325	0.84595	0.18377	0.097
Mof_H 	H 	0.02558	0.33059	0.033	0.062
Mof_H 	H 	0.00724	0.20412	0.09044	0.032
Mof_H 	H 	0.67988	0.6021	0.02741	0.031
Mof_H 	H 	0.6872	0.54197	0.99531	0.05
Mof_H 	H 	0.93999	0.58894	0.18751	0.048
Mof_H 	H 	0.89687	0.65537	0.08322	0.066
Mof_H 	H 	0.65642	0.46699	0.94679	0.035
Mof_H 	H 	0.04719	0.95085	0.32352	0.012
Mof_H 	H 	0.96466	0.78285	0.11044	0.052
Mof_H 	H 	0.21319	0.68532	0.14668	0.064
Mof_H 	H 	0.03959	0.82157	0.26531	0.068
Mof_H 	H 	0.48674	0.71336	0.08614	0.043
Mof_H 	H 	0.19056	0.54467	0.97634	0.073
Mof_H 	H 	0.82436	0.61438	0.02774	0.06
Mof_H 	H 	0.8485	0.29256	0.94867	0.066
Mof_H 	H 	0.87575	0.5224	0.16552	0.03
Mof_H 	H 	0.69147	0.66913	0.0172	0.064
Mof_H 	H 	0.54425	0.49399	0.86483	0.062
Mof_H 	H 	0.13608	0.46434	0.95038	0.038
Mof_H 	H 	0.2623	0.78246	0.27388	0.044
Mof_H 	H 	0.08054	0.52926	0.11657	0.049
Mof_H 	H 	0.5523	0.7083	0.09833	0.059
Mof_H 	H 	0.05372	0.8864	0.31296	0.079
Mof_H 	H 	0.44146	0.61585	0.88664	0.078
Mof_H 	H 	0.07461	0.39995	0.95896	0.046
Mof_H 	H 	0.89398	0.3864	0.086	0.056
Mof_H 	H 	0.54336	0.42168	0.84168	0.02
Mof_H 	H 	0.76823	0.26914	0.90165	0.085
Mof_H 	H 	0.19632	0.78084	0.28524	0.052
Mof_H 	H 	0.3813	0.62947	0.87657	0.024
Mof_H 	H 	0.7555	0.54699	0.01153	0.023
Mof_N 	N 	0.5331	0.4249	0.0296	0.283
Mof_C 	C 	0.5704	0.4161	0.0369	1.206
Mof_C 	C 	0.4988	0.3878	0.9937	-0.406
Mof_C 	C 	0.5062	0.447	0.0343	-0.431
Mof_H 	H 	0.56243	0.38869	0.01649	-0.442
Mof_H 	H 	0.47332	0.39277	0.98688	0.133
Mof_H 	H 	0.48841	0.35945	0.01579	0.132
Mof_H 	H 	0.51156	0.38639	0.95423	0.142
Mof_H 	H 	0.47768	0.42914	0.01236	0.129
Mof_H 	H 	0.5228	0.47715	0.01636	0.152
Mof_H 	H 	0.49991	0.44939	0.07749	0.155
Mof_La	La	0.96919	0.92403	0.83035	2.041
Mof_La	La	0.69778	0.28825	0.54148	2.088
Mof_La	La	0.62098	0.2568	0.70766	2.384
Mof_O 	O 	0.0385	0.9084	0.85947	-0.461
Mof_O 	O 	0.9852	0.8844	0.64027	-0.489
Mof_O 	O 	0.9933	0.0183	0.95287	-0.585
Mof_O 	O 	0.9635	0.9061	0.71847	-0.58
Mof_O 	O 	0.0495	0.9458	0.77267	-0.596
Mof_O 	O 	0.0244	0.9887	0.89297	-0.484
Mof_O 	O 	0.5699	0.2851	0.76147	-0.592
Mof_O 	O 	0.3025	0.6551	0.65107	-0.622
Mof_O 	O 	0.6913	0.3482	0.59247	-0.518
Mof_O 	O 	0.3456	0.5657	0.73327	-0.42
Mof_O 	O 	0.298	0.5857	0.82717	-0.427
Mof_O 	O 	0.6347	0.3228	0.65097	-0.641
Mof_O 	O 	0.3582	0.6817	0.59157	-0.544
Mof_O 	O 	0.5696	0.1776	0.72577	-0.732
Mof_O 	O 	0.6172	0.2356	0.59337	-0.598
Mof_O 	O 	0.5408	0.2391	0.68207	-0.446
Mof_O 	O 	0.2313	0.555	0.89687	-0.418
Mof_O 	O 	0.6355	0.2075	0.51937	-0.491
Mof_O 	O 	0.3771	0.6295	0.65937	-0.443
Mof_N 	N 	0.5171	0.1027	0.76047	-0.053
Mof_C 	C 	0.9093	0.8389	0.65897	-0.186
Mof_C 	C 	0.4217	0.5966	0.70637	-0.033
Mof_C 	C 	0.3198	0.4522	0.80847	-0.077
Mof_C 	C 	0.2619	0.5073	0.87347	-0.026
Mof_C 	C 	0.1042	0.9335	0.80987	-0.276
Mof_C 	C 	0.3191	0.4121	0.81317	-0.039
Mof_C 	C 	0.0624	0.9293	0.81757	0.477
Mof_C 	C 	0.6268	0.463	0.71567	0
Mof_C 	C 	0.0178	0.0219	0.91857	0.522
Mof_C 	C 	0.5556	0.137	0.72747	0.11
Mof_C 	C 	0.4946	0.1226	0.79427	-0.215
Mof_C 	C 	0.4853	0.0573	0.78137	-0.242
Mof_C 	C 	0.3314	0.8718	0.68447	0.052
Mof_C 	C 	0.1383	0.9656	0.77937	0.097
Mof_C 	C 	0.2231	0.9305	0.76987	-0.138
Mof_C 	C 	0.287	0.2516	0.83017	-0.14
Mof_C 	C 	0.7874	0.7186	0.64867	-0.146
Mof_C 	C 	0.8746	0.8311	0.69177	0.05
Mof_C 	C 	0.8276	0.7587	0.64687	0.11
Mof_C 	C 	0.1848	0.9301	0.78777	0.118
Mof_C 	C 	0.2496	0.9976	0.70517	-0.083
Mof_C 	C 	0.2054	0.2051	0.85027	0.018
Mof_C 	C 	0.3679	0.9516	0.66557	-0.092
Mof_C 	C 	0.09	0.0765	0.86677	0.034
Mof_C 	C 	0.3328	0.9156	0.68607	0.03
Mof_C 	C 	0.2502	0.2907	0.85597	-0.141
Mof_C 	C 	0.21	0.9988	0.72287	-0.01
Mof_C 	C 	0.6257	0.5854	0.68747	-0.096
Mof_C 	C 	0.706	0.6221	0.67717	-0.094
Mof_C 	C 	0.2508	0.2526	0.84587	0.082
Mof_C 	C 	0.6525	0.4532	0.67267	-0.06
Mof_C 	C 	0.9053	0.8085	0.61687	0.097
Mof_C 	C 	0.6849	0.4867	0.63557	0.097
Mof_C 	C 	0.294	0.9171	0.70807	-0.093
Mof_C 	C 	0.7513	0.7118	0.69137	0.057
Mof_C 	C 	0.2941	0.9587	0.70657	0.033
Mof_C 	C 	0.2638	0.4255	0.88487	0.032
Mof_C 	C 	0.9553	0.8808	0.66947	0.45
Mof_C 	C 	0.3277	0.3332	0.83447	-0.13
Mof_C 	C 	0.6662	0.5412	0.68287	0.043
Mof_C 	C 	0.2584	0.9632	0.72647	0.032
Mof_C 	C 	0.6441	0.4092	0.66797	0.068
Mof_C 	C 	0.3492	0.8631	0.64057	-0.13
Mof_C 	C 	0.1283	0.1186	0.86047	-0.036
Mof_C 	C 	0.4132	0.268	0.74637	0.066
Mof_C 	C 	0.7071	0.6667	0.68577	0.025
Mof_C 	C 	0.1148	0.9036	0.83457	0.163
Mof_C 	C 	0.1584	0.1315	0.80407	-0.027
Mof_C 	C 	0.6654	0.5836	0.67817	0.033
Mof_C 	C 	0.8643	0.7702	0.60897	-0.173
Mof_C 	C 	0.2607	0.3826	0.88887	-0.086
Mof_C 	C 	0.481	0.0794	0.58777	0.082
Mof_C 	C 	0.2891	0.3329	0.85057	0.072
Mof_C 	C 	0.7535	0.7439	0.72827	-0.116
Mof_C 	C 	0.3718	0.2944	0.80187	0.038
Mof_C 	C 	0.4406	0.0361	0.60287	-0.139
Mof_C 	C 	0.4263	0.5685	0.74807	-0.014
Mof_C 	C 	0.5043	0.6005	0.71987	0.052
Mof_C 	C 	0.5459	0.5982	0.72097	-0.118
Mof_C 	C 	0.668	0.3987	0.62617	-0.217
Mof_C 	C 	0.317	0.7428	0.67107	0.07
Mof_C 	C 	0.4949	0.2987	0.76117	-0.013
Mof_C 	C 	0.327	0.2929	0.82397	0.058
Mof_C 	C 	0.7003	0.4322	0.58897	0.109
Mof_C 	C 	0.1371	0.1525	0.90257	0.094
Mof_C 	C 	0.1508	0.8995	0.82857	-0.22
Mof_C 	C 	0.6687	0.6672	0.69427	-0.093
Mof_C 	C 	0.7925	0.7806	0.72887	0.015
Mof_C 	C 	0.4186	0.078	0.66497	-0.103
Mof_C 	C 	0.3216	0.7854	0.67577	-0.051
Mof_C 	C 	0.0605	0.0681	0.91507	-0.157
Mof_C 	C 	0.3696	0.9963	0.66257	0.017
Mof_C 	C 	0.4551	0.1177	0.64797	0
Mof_C 	C 	0.4116	0.3292	0.82787	-0.083
Mof_C 	C 	0.3724	0.2654	0.76497	-0.123
Mof_C 	C 	0.6254	0.6249	0.69527	0.027
Mof_C 	C 	0.5287	0.1619	0.59677	0.022
Mof_C 	C 	0.0693	0.102	0.95717	0.081
Mof_C 	C 	0.1781	0.9666	0.76487	-0.083
Mof_C 	C 	0.4956	0.2688	0.72527	-0.113
Mof_C 	C 	0.1955	0.1739	0.80877	-0.066
Mof_C 	C 	0.5615	0.1625	0.55847	-0.161
Mof_C 	C 	0.2941	0.5038	0.83847	-0.087
Mof_C 	C 	0.1739	0.1961	0.90197	-0.115
Mof_C 	C 	0.3028	0.796	0.72317	-0.005
Mof_C 	C 	0.5379	0.2643	0.72117	0.354
Mof_C 	C 	0.3352	0.7319	0.62547	-0.199
Mof_C 	C 	0.4998	0.6287	0.67817	-0.007
Mof_C 	C 	0.4117	0.0387	0.64037	0.059
Mof_C 	C 	0.4585	0.6267	0.67147	-0.045
Mof_C 	C 	0.4865	0.1182	0.61207	-0.041
Mof_C 	C 	0.4131	0.2331	0.71117	-0.116
Mof_C 	C 	0.2949	0.4626	0.84177	0.029
Mof_C 	C 	0.349	0.8185	0.63117	0.085
Mof_C 	C 	0.5814	0.6272	0.68987	0.043
Mof_C 	C 	0.6881	0.5324	0.64237	-0.127
Mof_C 	C 	0.4505	0.3306	0.81407	-0.024
Mof_C 	C 	0.3312	0.9948	0.68447	-0.092
Mof_C 	C 	0.2888	0.3754	0.85407	-0.001
Mof_C 	C 	0.8306	0.791	0.69207	-0.069
Mof_C 	C 	0.5118	0.078	0.54887	-0.127
Mof_C 	C 	0.5371	0.6525	0.64717	-0.028
Mof_C 	C 	0.2369	0.475	0.91457	-0.022
Mof_C 	C 	0.4676	0.5705	0.75477	-0.093
Mof_C 	C 	0.3055	0.8379	0.73147	-0.088
Mof_C 	C 	0.1076	0.1442	0.95087	-0.144
Mof_C 	C 	0.3664	0.8041	0.58357	-0.144
Mof_C 	C 	0.3776	0.5957	0.69927	0.205
Mof_C 	C 	0.5757	0.6542	0.65067	-0.086
Mof_C 	C 	0.6312	0.5026	0.72337	-0.086
Mof_C 	C 	0.5559	0.122	0.53357	0.032
Mof_C 	C 	0.7088	0.4762	0.59367	-0.161
Mof_C 	C 	0.4525	0.3011	0.77567	-0.032
Mof_C 	C 	0.2375	0.4362	0.92117	-0.081
Mof_C 	C 	0.3597	0.761	0.57717	0.093
Mof_C 	C 	0.4533	0.2323	0.70077	0.014
Mof_C 	C 	0.2591	0.5484	0.86407	0.162
Mof_C 	C 	0.6056	0.2033	0.55437	0.434
Mof_C 	C 	0.3275	0.6835	0.62087	0.618
Mof_C 	C 	0.6615	0.3518	0.62417	0.618
Mof_H 	H 	0.33937	0.47344	0.77923	0.05
Mof_H 	H 	0.33955	0.40785	0.78868	0.037
Mof_H 	H 	0.60521	0.439	0.74007	0.035
Mof_H 	H 	0.57217	0.12674	0.70424	-0.577
Mof_H 	H 	0.46797	0.09864	0.81505	0.079
Mof_H 	H 	0.48525	0.13849	0.76591	0.097
Mof_H 	H 	0.51533	0.1438	0.8247	0.095
Mof_H 	H 	0.46062	0.05749	0.8037	0.091
Mof_H 	H 	0.50075	0.04649	0.80835	0.095
Mof_H 	H 	0.47302	0.03707	0.74597	0.096
Mof_H 	H 	0.13522	0.99023	0.76594	-0.006
Mof_H 	H 	0.22811	0.90778	0.78658	0.074
Mof_H 	H 	0.28631	0.22389	0.82314	0.076
Mof_H 	H 	0.78285	0.69495	0.62183	0.077
Mof_H 	H 	0.87851	0.85454	0.71869	0.014
Mof_H 	H 	0.27062	0.02021	0.67849	0.053
Mof_H 	H 	0.39318	0.94956	0.65207	0.054
Mof_H 	H 	0.08405	0.05338	0.83805	0.029
Mof_H 	H 	0.22266	0.28908	0.86721	0.078
Mof_H 	H 	0.20475	0.02145	0.70639	0.031
Mof_H 	H 	0.59776	0.55784	0.68843	0.059
Mof_H 	H 	0.73297	0.62118	0.6713	0.061
Mof_H 	H 	0.93055	0.81353	0.5929	0.004
Mof_H 	H 	0.2686	0.89057	0.72334	0.06
Mof_H 	H 	0.3551	0.36095	0.83046	0.07
Mof_H 	H 	0.62201	0.38632	0.69333	0.014
Mof_H 	H 	0.36397	0.88582	0.61056	0.072
Mof_H 	H 	0.09226	0.88174	0.86063	-0.017
Mof_H 	H 	0.1522	0.11238	0.76962	0.052
Mof_H 	H 	0.86088	0.75059	0.57606	0.082
Mof_H 	H 	0.2396	0.35996	0.91539	0.057
Mof_H 	H 	0.72869	0.74017	0.75209	0.067
Mof_H 	H 	0.43571	0.00833	0.58672	0.071
Mof_H 	H 	0.40122	0.54793	0.77192	0.042
Mof_H 	H 	0.54719	0.57554	0.7445	0.065
Mof_H 	H 	0.30037	0.72099	0.70147	0.015
Mof_H 	H 	0.52246	0.32038	0.77953	0.023
Mof_H 	H 	0.71666	0.42501	0.56039	0.016
Mof_H 	H 	0.15405	0.8773	0.85044	0.098
Mof_H 	H 	0.66941	0.69499	0.69967	0.06
Mof_H 	H 	0.79588	0.80312	0.75711	0.025
Mof_H 	H 	0.3979	0.07778	0.69408	0.059
Mof_H 	H 	0.45803	0.14523	0.66198	0.032
Mof_H 	H 	0.41106	0.35105	0.85418	0.05
Mof_H 	H 	0.34463	0.2415	0.74989	0.067
Mof_H 	H 	0.53301	0.18943	0.61346	0.027
Mof_H 	H 	0.04915	0.09634	0.99019	0.016
Mof_H 	H 	0.21715	0.18181	0.77711	0.055
Mof_H 	H 	0.31468	0.52787	0.81335	0.064
Mof_H 	H 	0.17843	0.21802	0.93198	0.07
Mof_H 	H 	0.28664	0.77338	0.75281	0.04
Mof_H 	H 	0.45533	0.64589	0.64301	0.054
Mof_H 	H 	0.38562	0.20998	0.69441	0.062
Mof_H 	H 	0.70744	0.55594	0.61534	0.072
Mof_H 	H 	0.4776	0.35335	0.83219	0.031
Mof_H 	H 	0.33087	0.02234	0.68387	0.057
Mof_H 	H 	0.50601	0.05026	0.5315	0.065
Mof_H 	H 	0.53566	0.67174	0.61705	0.033
Mof_H 	H 	0.21754	0.47984	0.94055	0.045
Mof_H 	H 	0.47074	0.55128	0.78324	0.055
Mof_H 	H 	0.2917	0.844	0.765	0.063
Mof_H 	H 	0.1136	0.16732	0.97963	0.083
Mof_H 	H 	0.38415	0.82561	0.55331	0.082
Mof_H 	H 	0.60005	0.67466	0.62563	0.054
Mof_H 	H 	0.6136	0.50758	0.75267	0.06
Mof_H 	H 	0.57832	0.12168	0.50835	0.017
Mof_H 	H 	0.73086	0.49909	0.56832	0.087
Mof_H 	H 	0.21916	0.41548	0.95191	0.055
Mof_H 	H 	0.37053	0.75183	0.54324	0.019
Mof_H 	H 	0.45301	0.20851	0.6782	0.027
Mof_N 	N 	0.5751	0.1082	0.69627	0.236
Mof_C 	C 	0.5839	0.1543	0.70357	1.02
Mof_C 	C 	0.6122	0.111	0.66037	-0.425
Mof_C 	C 	0.553	0.0592	0.70097	-0.403
Mof_H 	H 	0.61131	0.17374	0.68316	-0.375
Mof_H 	H 	0.60723	0.08055	0.65355	0.133
Mof_H 	H 	0.64055	0.12896	0.68246	0.145
Mof_H 	H 	0.61361	0.12517	0.6209	0.143
Mof_H 	H 	0.57086	0.04854	0.67903	0.127
Mof_H 	H 	0.52285	0.04565	0.68303	0.148
Mof_H 	H 	0.55061	0.05052	0.74416	0.147
Mof_La	La	0.07597	0.04516	0.49701	2.042
Mof_La	La	0.71175	0.40953	0.20814	2.088
Mof_La	La	0.7432	0.36418	0.37432	2.384
Mof_O 	O 	0.0916	0.1301	0.52613	-0.461
Mof_O 	O 	0.1156	0.1008	0.30693	-0.489
Mof_O 	O 	0.9817	0.975	0.61953	-0.586
Mof_O 	O 	0.0939	0.0574	0.38513	-0.58
Mof_O 	O 	0.0542	0.1037	0.43933	-0.596
Mof_O 	O 	0.0113	0.0357	0.55963	-0.485
Mof_O 	O 	0.7149	0.2848	0.42813	-0.591
Mof_O 	O 	0.3449	0.6474	0.31773	-0.622
Mof_O 	O 	0.6518	0.3431	0.25913	-0.518
Mof_O 	O 	0.4343	0.7799	0.39993	-0.42
Mof_O 	O 	0.4143	0.7123	0.49383	-0.427
Mof_O 	O 	0.6772	0.3119	0.31763	-0.641
Mof_O 	O 	0.3183	0.6765	0.25823	-0.544
Mof_O 	O 	0.8224	0.392	0.39243	-0.732
Mof_O 	O 	0.7644	0.3816	0.26003	-0.599
Mof_O 	O 	0.7609	0.3017	0.34873	-0.446
Mof_O 	O 	0.445	0.6763	0.56353	-0.418
Mof_O 	O 	0.7925	0.428	0.18603	-0.491
Mof_O 	O 	0.3705	0.7476	0.32603	-0.443
Mof_N 	N 	0.8973	0.4144	0.42713	-0.053
Mof_C 	C 	0.1611	0.0704	0.32563	-0.186
Mof_C 	C 	0.4034	0.8251	0.37303	-0.033
Mof_C 	C 	0.5478	0.8676	0.47513	-0.078
Mof_C 	C 	0.4927	0.7546	0.54013	-0.026
Mof_C 	C 	0.0665	0.1707	0.47653	-0.276
Mof_C 	C 	0.5879	0.907	0.47983	-0.039
Mof_C 	C 	0.0707	0.1331	0.48423	0.477
Mof_C 	C 	0.537	0.1638	0.38233	0
Mof_C 	C 	0.9781	0.9959	0.58523	0.52
Mof_C 	C 	0.863	0.4186	0.39413	0.111
Mof_C 	C 	0.8774	0.372	0.46093	-0.215
Mof_C 	C 	0.9427	0.428	0.44803	-0.241
Mof_C 	C 	0.1282	0.4596	0.35113	0.052
Mof_C 	C 	0.0344	0.1727	0.44603	0.096
Mof_C 	C 	0.0695	0.2926	0.43653	-0.138
Mof_C 	C 	0.7484	0.0354	0.49683	-0.14
Mof_C 	C 	0.2814	0.0688	0.31533	-0.146
Mof_C 	C 	0.1689	0.0435	0.35843	0.049
Mof_C 	C 	0.2413	0.0689	0.31353	0.11
Mof_C 	C 	0.0699	0.2547	0.45443	0.118
Mof_C 	C 	0.0024	0.252	0.37183	-0.083
Mof_C 	C 	0.7949	0.0003	0.51693	0.018
Mof_C 	C 	0.0484	0.4163	0.33223	-0.092
Mof_C 	C 	0.9235	0.0135	0.53343	0.035
Mof_C 	C 	0.0844	0.4172	0.35273	0.03
Mof_C 	C 	0.7093	0.9595	0.52263	-0.141
Mof_C 	C 	0.0012	0.2112	0.38953	-0.01
Mof_C 	C 	0.4146	0.0403	0.35413	-0.096
Mof_C 	C 	0.3779	0.0839	0.34383	-0.094
Mof_C 	C 	0.7474	0.9982	0.51253	0.081
Mof_C 	C 	0.5468	0.1993	0.33933	-0.06
Mof_C 	C 	0.1915	0.0968	0.28353	0.097
Mof_C 	C 	0.5133	0.1982	0.30223	0.097
Mof_C 	C 	0.0829	0.3769	0.37473	-0.093
Mof_C 	C 	0.2882	0.0395	0.35803	0.056
Mof_C 	C 	0.0413	0.3354	0.37323	0.032
Mof_C 	C 	0.5745	0.8383	0.55153	0.03
Mof_C 	C 	0.1192	0.0745	0.33613	0.45
Mof_C 	C 	0.6668	0.9945	0.50113	-0.13
Mof_C 	C 	0.4588	0.125	0.34953	0.043
Mof_C 	C 	0.0368	0.2952	0.39313	0.031
Mof_C 	C 	0.5908	0.2349	0.33463	0.068
Mof_C 	C 	0.1369	0.4861	0.30723	-0.13
Mof_C 	C 	0.8814	0.0097	0.52713	-0.037
Mof_C 	C 	0.732	0.1452	0.41303	0.065
Mof_C 	C 	0.3333	0.0404	0.35243	0.025
Mof_C 	C 	0.0964	0.2112	0.50123	0.162
Mof_C 	C 	0.8685	0.0269	0.47073	-0.027
Mof_C 	C 	0.4164	0.0818	0.34483	0.033
Mof_C 	C 	0.2298	0.0941	0.27563	-0.173
Mof_C 	C 	0.6174	0.8781	0.55553	-0.086
Mof_C 	C 	0.9206	0.4016	0.25443	0.082
Mof_C 	C 	0.6671	0.9562	0.51723	0.07
Mof_C 	C 	0.2561	0.0096	0.39493	-0.116
Mof_C 	C 	0.7056	0.0774	0.46853	0.037
Mof_C 	C 	0.9639	0.4045	0.26953	-0.139
Mof_C 	C 	0.4315	0.8578	0.41473	-0.014
Mof_C 	C 	0.3995	0.9038	0.38653	0.051
Mof_C 	C 	0.4018	0.9477	0.38763	-0.118
Mof_C 	C 	0.6013	0.2693	0.29283	-0.217
Mof_C 	C 	0.2572	0.5742	0.33773	0.07
Mof_C 	C 	0.7013	0.1962	0.42783	-0.014
Mof_C 	C 	0.7071	0.0341	0.49063	0.057
Mof_C 	C 	0.5678	0.2681	0.25563	0.109
Mof_C 	C 	0.8475	0.9846	0.56923	0.092
Mof_C 	C 	0.1005	0.2513	0.49523	-0.22
Mof_C 	C 	0.3328	0.0015	0.36093	-0.094
Mof_C 	C 	0.2194	0.0119	0.39553	0.015
Mof_C 	C 	0.922	0.3406	0.33163	-0.103
Mof_C 	C 	0.2146	0.5362	0.34243	-0.051
Mof_C 	C 	0.9319	0.9924	0.58173	-0.159
Mof_C 	C 	0.0037	0.3733	0.32923	0.017
Mof_C 	C 	0.8823	0.3374	0.31463	-0
Mof_C 	C 	0.6708	0.0824	0.49453	-0.083
Mof_C 	C 	0.7346	0.107	0.43163	-0.123
Mof_C 	C 	0.3751	0.0005	0.36193	0.026
Mof_C 	C 	0.8381	0.3668	0.26343	0.022
Mof_C 	C 	0.898	0.9673	0.62383	0.08
Mof_C 	C 	0.0334	0.2115	0.43153	-0.084
Mof_C 	C 	0.7312	0.2268	0.39193	-0.113
Mof_C 	C 	0.8261	0.0216	0.47543	-0.066
Mof_C 	C 	0.8375	0.399	0.22513	-0.161
Mof_C 	C 	0.4962	0.7903	0.50513	-0.088
Mof_C 	C 	0.8039	0.9778	0.56863	-0.116
Mof_C 	C 	0.204	0.5068	0.38983	-0.006
Mof_C 	C 	0.7357	0.2736	0.38783	0.354
Mof_C 	C 	0.2681	0.6033	0.29213	-0.199
Mof_C 	C 	0.3713	0.8711	0.34483	-0.007
Mof_C 	C 	0.9613	0.373	0.30703	0.059
Mof_C 	C 	0.3733	0.8318	0.33813	-0.046
Mof_C 	C 	0.8818	0.3683	0.27873	-0.041
Mof_C 	C 	0.7669	0.18	0.37783	-0.116
Mof_C 	C 	0.5374	0.8323	0.50843	0.029
Mof_C 	C 	0.1815	0.5305	0.29783	0.085
Mof_C 	C 	0.3728	0.9542	0.35653	0.042
Mof_C 	C 	0.4676	0.1557	0.30903	-0.127
Mof_C 	C 	0.6694	0.1199	0.48073	-0.025
Mof_C 	C 	0.0052	0.3364	0.35113	-0.091
Mof_C 	C 	0.6246	0.9134	0.52073	-0.002
Mof_C 	C 	0.209	0.0396	0.35873	-0.069
Mof_C 	C 	0.922	0.4338	0.21553	-0.127
Mof_C 	C 	0.3475	0.8846	0.31383	-0.029
Mof_C 	C 	0.525	0.7619	0.58123	-0.023
Mof_C 	C 	0.4295	0.8971	0.42143	-0.093
Mof_C 	C 	0.1621	0.4676	0.39813	-0.088
Mof_C 	C 	0.8558	0.9634	0.61753	-0.145
Mof_C 	C 	0.1959	0.5623	0.25023	-0.144
Mof_C 	C 	0.4043	0.7819	0.36593	0.205
Mof_C 	C 	0.3458	0.9215	0.31733	-0.086
Mof_C 	C 	0.4974	0.1286	0.39003	-0.086
Mof_C 	C 	0.878	0.4339	0.20023	0.032
Mof_C 	C 	0.5238	0.2326	0.26033	-0.161
Mof_C 	C 	0.6989	0.1514	0.44233	-0.032
Mof_C 	C 	0.5638	0.8013	0.58783	-0.081
Mof_C 	C 	0.239	0.5987	0.24383	0.093
Mof_C 	C 	0.7677	0.221	0.36743	0.013
Mof_C 	C 	0.4516	0.7107	0.53073	0.161
Mof_C 	C 	0.7967	0.4023	0.22103	0.434
Mof_C 	C 	0.3165	0.644	0.28753	0.618
Mof_C 	C 	0.6482	0.3097	0.29083	0.618
Mof_H 	H 	0.52656	0.86593	0.44589	0.05
Mof_H 	H 	0.59215	0.9317	0.45534	0.037
Mof_H 	H 	0.561	0.16621	0.40673	0.035
Mof_H 	H 	0.87326	0.44543	0.3709	-0.577
Mof_H 	H 	0.90136	0.36933	0.48171	0.078
Mof_H 	H 	0.86151	0.34676	0.43257	0.097
Mof_H 	H 	0.8562	0.37153	0.49136	0.095
Mof_H 	H 	0.94251	0.40313	0.47036	0.091
Mof_H 	H 	0.95351	0.45426	0.47501	0.094
Mof_H 	H 	0.96293	0.43595	0.41263	0.096
Mof_H 	H 	0.00977	0.14499	0.4326	-0.006
Mof_H 	H 	0.09222	0.32033	0.45324	0.073
Mof_H 	H 	0.77611	0.06242	0.4898	0.075
Mof_H 	H 	0.30505	0.0879	0.28849	0.077
Mof_H 	H 	0.14546	0.02397	0.38535	0.013
Mof_H 	H 	0.97979	0.25041	0.34515	0.052
Mof_H 	H 	0.05044	0.44362	0.31873	0.054
Mof_H 	H 	0.94662	0.03067	0.50471	0.029
Mof_H 	H 	0.71092	0.93358	0.53387	0.076
Mof_H 	H 	0.97855	0.1833	0.37305	0.031
Mof_H 	H 	0.44216	0.03992	0.35509	0.059
Mof_H 	H 	0.37882	0.11179	0.33796	0.06
Mof_H 	H 	0.18647	0.11702	0.25956	0.004
Mof_H 	H 	0.10943	0.37803	0.39	0.06
Mof_H 	H 	0.63905	0.99415	0.49712	0.069
Mof_H 	H 	0.61368	0.23569	0.35999	0.014
Mof_H 	H 	0.11418	0.47815	0.27722	0.072
Mof_H 	H 	0.11826	0.21052	0.52729	-0.017
Mof_H 	H 	0.88762	0.03982	0.43628	0.051
Mof_H 	H 	0.24941	0.11029	0.24272	0.082
Mof_H 	H 	0.64004	0.87964	0.58205	0.055
Mof_H 	H 	0.25983	0.98852	0.41875	0.066
Mof_H 	H 	0.99167	0.42738	0.25338	0.071
Mof_H 	H 	0.45207	0.85329	0.43858	0.041
Mof_H 	H 	0.42446	0.97165	0.41116	0.064
Mof_H 	H 	0.27901	0.57938	0.36813	0.015
Mof_H 	H 	0.67962	0.20208	0.44619	0.023
Mof_H 	H 	0.57499	0.29165	0.22705	0.016
Mof_H 	H 	0.1227	0.27675	0.5171	0.097
Mof_H 	H 	0.30501	0.97442	0.36633	0.06
Mof_H 	H 	0.19688	0.99276	0.42377	0.024
Mof_H 	H 	0.92222	0.32012	0.36074	0.058
Mof_H 	H 	0.85477	0.3128	0.32864	0.032
Mof_H 	H 	0.64895	0.06001	0.52084	0.049
Mof_H 	H 	0.7585	0.10313	0.41655	0.067
Mof_H 	H 	0.81057	0.34358	0.28012	0.027
Mof_H 	H 	0.90366	0.95281	0.65685	0.012
Mof_H 	H 	0.81819	0.03534	0.44377	0.054
Mof_H 	H 	0.47213	0.78681	0.48001	0.064
Mof_H 	H 	0.78198	0.96041	0.59864	0.068
Mof_H 	H 	0.22662	0.51326	0.41947	0.04
Mof_H 	H 	0.35411	0.80944	0.30967	0.054
Mof_H 	H 	0.79002	0.17564	0.36107	0.061
Mof_H 	H 	0.44406	0.1515	0.282	0.072
Mof_H 	H 	0.64665	0.12425	0.49885	0.031
Mof_H 	H 	0.97766	0.30853	0.35053	0.057
Mof_H 	H 	0.94974	0.45575	0.19816	0.065
Mof_H 	H 	0.32826	0.86392	0.28371	0.033
Mof_H 	H 	0.52016	0.7377	0.60721	0.044
Mof_H 	H 	0.44872	0.91946	0.4499	0.054
Mof_H 	H 	0.156	0.4477	0.43166	0.063
Mof_H 	H 	0.83268	0.94628	0.64629	0.079
Mof_H 	H 	0.17439	0.55854	0.21997	0.081
Mof_H 	H 	0.32534	0.92539	0.29229	0.053
Mof_H 	H 	0.49242	0.10602	0.41933	0.06
Mof_H 	H 	0.87832	0.45664	0.17501	0.017
Mof_H 	H 	0.50091	0.23177	0.23498	0.087
Mof_H 	H 	0.58452	0.80368	0.61857	0.052
Mof_H 	H 	0.24817	0.6187	0.2099	0.019
Mof_H 	H 	0.79149	0.2445	0.34486	0.027
Mof_N 	N 	0.8918	0.4669	0.36293	0.236
Mof_C 	C 	0.8457	0.4296	0.37023	1.021
Mof_C 	C 	0.889	0.5012	0.32703	-0.425
Mof_C 	C 	0.9408	0.4938	0.36763	-0.403
Mof_H 	H 	0.82626	0.43757	0.34982	-0.375
Mof_H 	H 	0.91945	0.52668	0.32021	0.133
Mof_H 	H 	0.87104	0.51159	0.34912	0.145
Mof_H 	H 	0.87483	0.48844	0.28756	0.143
Mof_H 	H 	0.95146	0.52232	0.34569	0.127
Mof_H 	H 	0.95435	0.4772	0.34969	0.148
Mof_H 	H 	0.94948	0.50009	0.41082	0.147
_end
