data_functionalizedCrystal
_audit_creation_method	'EQeq! by Chris Wilmer'
_symmetry_space_group_name_H-M	'P1'
_symmetry_Int_Tables_number	1
_symmetry_cell_setting	triclinic
loop_
_symmetry_equiv_pos_as_xyz
  x,y,z
_cell_length_a	15.4636
_cell_length_b	15.4636
_cell_length_c	12.2904
_cell_angle_alpha	90
_cell_angle_beta	90
_cell_angle_gamma	90
loop_
_atom_site_label
_atom_site_type_symbol
_atom_site_fract_x
_atom_site_fract_y
_atom_site_fract_z
_atom_site_charge
Mof_O 	O 	0.6139	0.3806	0.616	-0.796
Mof_O 	O 	0.5938	0.291	0.7512	-0.787
Mof_C 	C 	0.5837	0.3644	0.7088	0.674
Mof_C 	C 	0.53685	0.43088	0.7674	-0.27
Mof_C 	C 	0.53685	0.43088	0.88125	0.052
Mof_H 	H 	0.5645	0.379	0.924	0.021
Mof_O 	O 	0.1139	0.8806	0.116	-0.762
Mof_O 	O 	0.0938	0.791	0.2512	-0.778
Mof_C 	C 	0.0837	0.8644	0.2088	0.654
Mof_C 	C 	0.03685	0.93088	0.2674	-0.276
Mof_C 	C 	0.03685	0.93088	0.38125	0.115
Mof_H 	H 	0.0645	0.879	0.424	-0.023
Mof_O 	O 	0.8861	0.1194	0.116	-0.768
Mof_O 	O 	0.9062	0.209	0.2512	-0.779
Mof_C 	C 	0.9163	0.1356	0.2088	0.655
Mof_C 	C 	0.96315	0.06912	0.2674	-0.288
Mof_C 	C 	0.96315	0.06912	0.38125	0.102
Mof_H 	H 	0.9355	0.121	0.424	-0.022
Mof_O 	O 	0.3861	0.6194	0.616	-0.796
Mof_O 	O 	0.4062	0.709	0.7512	-0.784
Mof_C 	C 	0.4163	0.6356	0.7088	0.674
Mof_C 	C 	0.46315	0.56912	0.7674	-0.269
Mof_C 	C 	0.46315	0.56912	0.88125	0.052
Mof_H 	H 	0.4355	0.621	0.924	0.023
Mof_O 	O 	0.6194	0.1139	0.866	-0.861
Mof_O 	O 	0.709	0.0938	0.0012	-0.89
Mof_C 	C 	0.6356	0.0837	0.9588	0.978
Mof_C 	C 	0.56912	0.03685	0.0174	-0.686
Mof_C 	C 	0.56912	0.03685	0.13125	0.288
Mof_H 	H 	0.621	0.0645	0.174	-0.078
Mof_O 	O 	0.1194	0.6139	0.366	-0.798
Mof_O 	O 	0.209	0.5938	0.5012	-0.79
Mof_C 	C 	0.1356	0.5837	0.4588	0.684
Mof_C 	C 	0.06912	0.53685	0.5174	-0.317
Mof_C 	C 	0.06912	0.53685	0.63125	0.128
Mof_H 	H 	0.121	0.5645	0.674	-0.028
Mof_O 	O 	0.8806	0.3861	0.366	-0.796
Mof_O 	O 	0.791	0.4062	0.5012	-0.788
Mof_C 	C 	0.8644	0.4163	0.4588	0.683
Mof_C 	C 	0.93088	0.46315	0.5174	-0.31
Mof_C 	C 	0.93088	0.46315	0.63125	0.135
Mof_H 	H 	0.879	0.4355	0.674	-0.028
Mof_O 	O 	0.3806	0.8861	0.866	-0.855
Mof_O 	O 	0.291	0.9062	0.0012	-0.889
Mof_C 	C 	0.3644	0.9163	0.9588	0.983
Mof_C 	C 	0.43088	0.96315	0.0174	-0.671
Mof_C 	C 	0.43088	0.96315	0.13125	0.308
Mof_H 	H 	0.379	0.9355	0.174	-0.079
Mof_O 	O 	0.8861	0.3806	0.134	-0.712
Mof_O 	O 	0.9062	0.291	0.9988	-0.574
Mof_C 	C 	0.9163	0.3644	0.0412	0.332
Mof_C 	C 	0.96315	0.43088	0.9826	0.123
Mof_C 	C 	0.96315	0.43088	0.86875	-0.103
Mof_H 	H 	0.9355	0.379	0.826	0.042
Mof_O 	O 	0.3861	0.8806	0.634	-0.793
Mof_O 	O 	0.4062	0.791	0.4988	-0.787
Mof_C 	C 	0.4163	0.8644	0.5412	0.674
Mof_C 	C 	0.46315	0.93088	0.4826	-0.265
Mof_C 	C 	0.46315	0.93088	0.36875	0.088
Mof_H 	H 	0.4355	0.879	0.326	-0.017
Mof_O 	O 	0.6139	0.1194	0.634	-0.801
Mof_O 	O 	0.5938	0.209	0.4988	-0.79
Mof_C 	C 	0.5837	0.1356	0.5412	0.675
Mof_C 	C 	0.53685	0.06912	0.4826	-0.284
Mof_C 	C 	0.53685	0.06912	0.36875	0.069
Mof_H 	H 	0.5645	0.121	0.326	-0.016
Mof_O 	O 	0.1139	0.6194	0.134	-0.715
Mof_O 	O 	0.0938	0.709	0.9988	-0.573
Mof_C 	C 	0.0837	0.6356	0.0412	0.332
Mof_C 	C 	0.03685	0.56912	0.9826	0.117
Mof_C 	C 	0.03685	0.56912	0.86875	-0.11
Mof_H 	H 	0.0645	0.621	0.826	0.043
Mof_O 	O 	0.8806	0.1139	0.884	-0.707
Mof_O 	O 	0.791	0.0938	0.7488	-0.776
Mof_C 	C 	0.8644	0.0837	0.7912	0.651
Mof_C 	C 	0.93088	0.03685	0.7326	-0.267
Mof_C 	C 	0.93088	0.03685	0.61875	0.094
Mof_H 	H 	0.879	0.0645	0.576	-0.021
Mof_O 	O 	0.3806	0.6139	0.384	-0.801
Mof_O 	O 	0.291	0.5938	0.2488	-0.794
Mof_C 	C 	0.3644	0.5837	0.2912	0.689
Mof_C 	C 	0.43088	0.53685	0.2326	-0.335
Mof_C 	C 	0.43088	0.53685	0.11875	0.144
Mof_H 	H 	0.379	0.5645	0.076	-0.062
Mof_O 	O 	0.6194	0.3861	0.384	-0.802
Mof_O 	O 	0.709	0.4062	0.2488	-0.793
Mof_C 	C 	0.6356	0.4163	0.2912	0.689
Mof_C 	C 	0.56912	0.46315	0.2326	-0.334
Mof_C 	C 	0.56912	0.46315	0.11875	0.144
Mof_H 	H 	0.621	0.4355	0.076	-0.061
Mof_O 	O 	0.1194	0.8861	0.884	-0.701
Mof_O 	O 	0.209	0.9062	0.7488	-0.772
Mof_C 	C 	0.1356	0.9163	0.7912	0.65
Mof_C 	C 	0.06912	0.96315	0.7326	-0.252
Mof_C 	C 	0.06912	0.96315	0.61875	0.108
Mof_H 	H 	0.121	0.9355	0.576	-0.02
Mof_In	In	0.6875	0.3125	0.5	3.008
Mof_In	In	0.1875	0.8125	-0	2.671
Mof_In	In	0.8125	0.1875	-0	2.672
Mof_In	In	0.3125	0.6875	0.5	3.009
Mof_In	In	0.6875	0.1875	0.75	3.064
Mof_In	In	0.1875	0.6875	0.25	2.958
Mof_In	In	0.8125	0.3125	0.25	2.957
Mof_In	In	0.3125	0.8125	0.75	3.07
Mof_O 	O 	0.7617	0.25	0.625	-1.232
Mof_H 	H 	0.8199	0.25	0.625	0.374
Mof_O 	O 	0.2617	0.75	0.125	-1.177
Mof_H 	H 	0.3199	0.75	0.125	0.348
Mof_O 	O 	0.7383	0.25	0.125	-1.177
Mof_H 	H 	0.6801	0.25	0.125	0.348
Mof_O 	O 	0.2383	0.75	0.625	-1.233
Mof_H 	H 	0.1801	0.75	0.625	0.375
Mof_O 	O 	0.75	0.2617	0.875	-1.155
Mof_H 	H 	0.75	0.3199	0.875	0.371
Mof_O 	O 	0.25	0.7617	0.375	-1.216
Mof_H 	H 	0.25	0.8199	0.375	0.372
Mof_O 	O 	0.75	0.2383	0.375	-1.216
Mof_H 	H 	0.75	0.1801	0.375	0.37
Mof_O 	O 	0.25	0.7383	0.875	-1.155
Mof_H 	H 	0.25	0.6801	0.875	0.37
Mof_C 	C 	0.5	0.5	0.7106	0.177
Mof_C 	C 	0.5	0.5	0.93814	0.064
Mof_H 	H 	0.5	0.5	0.6251	-0.004
Mof_C 	C 	6.27589e-34	0	0.2106	0.152
Mof_C 	C 	-2.98904e-33	-4.2947e-33	0.43814	-0.1
Mof_H 	H 	3.72799e-34	0	0.1251	-0.025
Mof_C 	C 	0.5	0	0.9606	0.6
Mof_C 	C 	0.5	-1.07368e-33	0.18814	-0.239
Mof_H 	H 	0.5	0	0.8751	-0.114
Mof_C 	C 	-2.92211e-33	0.5	0.4606	0.2
Mof_C 	C 	-1.08334e-32	0.5	0.68814	-0.136
Mof_H 	H 	-5.32426e-33	0.5	0.3751	-0.019
Mof_C 	C 	-5.51939e-33	0.5	0.0394	-0.264
Mof_C 	C 	-6.17006e-33	0.5	0.81186	0.082
Mof_H 	H 	-1.77515e-33	0.5	0.1249	0.101
Mof_C 	C 	0.5	-4.2947e-33	0.5394	0.156
Mof_C 	C 	0.5	0	0.31186	-0.039
Mof_H 	H 	0.5	-4.2947e-33	0.6249	-0.001
Mof_C 	C 	-6.23699e-33	-4.2947e-33	0.7894	0.141
Mof_C 	C 	1.67435e-33	0	0.56186	-0.092
Mof_H 	H 	-5.9822e-33	-8.58941e-33	0.8749	0.016
Mof_C 	C 	0.5	0.5	0.2894	0.219
Mof_C 	C 	0.5	0.5	0.06186	-0.207
Mof_H 	H 	0.5	0.5	0.3749	-0.017
_end
