data_functionalizedCrystal
_audit_creation_method	'EQeq! by Chris Wilmer'
_symmetry_space_group_name_H-M	'P1'
_symmetry_Int_Tables_number	1
_symmetry_cell_setting	triclinic
loop_
_symmetry_equiv_pos_as_xyz
  x,y,z
_cell_length_a	12.6947
_cell_length_b	12.8242
_cell_length_c	14.7971
_cell_angle_alpha	85.11
_cell_angle_beta	65.988
_cell_angle_gamma	89.663
loop_
_atom_site_label
_atom_site_type_symbol
_atom_site_fract_x
_atom_site_fract_y
_atom_site_fract_z
_atom_site_charge
Mof_Zn	Zn	0.28282	0.04782	0.44211	1.223
Mof_Zn	Zn	0.84472	0.40285	0.86813	1.243
Mof_O 	O 	0.8188	0.4626	0.0564	-0.411
Mof_O 	O 	0.7579	0.3299	0.9997	-0.335
Mof_O 	O 	0.6398	0.2377	0.1815	-0.167
Mof_O 	O 	0.4946	0.0658	0.2495	-0.287
Mof_O 	O 	0.4439	0.1014	0.4073	-0.546
Mof_O 	O 	0.6593	0.9988	0.3826	-0.396
Mof_O 	O 	0.7857	0.9036	0.4225	-0.394
Mof_O 	O 	0.8442	0.8003	0.259	-0.124
Mof_O 	O 	0.9509	0.6424	0.0584	-0.443
Mof_O 	O 	0.0032	0.659	0.185	-0.49
Mof_O 	O 	0.7731	0.3492	0.7854	-0.371
Mof_O 	O 	0.6416	0.4708	0.8403	-0.23
Mof_O 	O 	0.667	0.2731	0.6797	-0.138
Mof_O 	O 	0.7015	0.1019	0.5805	-0.443
Mof_O 	O 	0.5418	0.1324	0.5511	-0.445
Mof_O 	O 	0.9787	0.4193	0.1367	-0.375
Mof_O 	O 	0.138	0.4464	0.1635	-0.433
Mof_O 	O 	0.1107	0.2663	0.2694	-0.122
Mof_O 	O 	0.2464	0.1639	0.3472	-0.385
Mof_O 	O 	0.1349	0.0397	0.4111	-0.45
Mof_C 	C 	0.7646	0.3774	0.0685	0.241
Mof_C 	C 	0.6995	0.3302	0.171	0.057
Mof_C 	C 	0.6809	0.3605	0.2613	-0.051
Mof_H 	H 	0.7121	0.4217	0.2744	0.071
Mof_C 	C 	0.6059	0.2835	0.3328	-0.041
Mof_H 	H 	0.5772	0.2827	0.403	0.065
Mof_C 	C 	0.5835	0.2117	0.2808	0.038
Mof_C 	C 	0.5047	0.1178	0.3108	0.303
Mof_C 	C 	0.7332	0.9295	0.3677	0.326
Mof_C 	C 	0.7613	0.8743	0.2769	0.051
Mof_C 	C 	0.718	0.879	0.2076	-0.056
Mof_H 	H 	0.6591	0.9231	0.2043	0.098
Mof_C 	C 	0.7781	0.8045	0.1402	-0.001
Mof_H 	H 	0.7677	0.7897	0.0824	0.057
Mof_C 	C 	0.8531	0.7586	0.1743	0.003
Mof_C 	C 	0.9425	0.6794	0.136	0.428
Mof_C 	C 	0.683	0.3975	0.7899	0.29
Mof_C 	C 	0.624	0.3597	0.7304	0.062
Mof_C 	C 	0.5283	0.3916	0.7184	-0.05
Mof_H 	H 	0.4831	0.4496	0.7454	0.077
Mof_C 	C 	0.509	0.3206	0.657	-0.024
Mof_H 	H 	0.4484	0.3225	0.6349	0.059
Mof_C 	C 	0.5937	0.2503	0.6363	0.022
Mof_C 	C 	0.6143	0.1539	0.5844	0.35
Mof_C 	C 	0.0486	0.3946	0.1735	0.296
Mof_C 	C 	0.0257	0.2948	0.238	-0.028
Mof_C 	C 	0.9367	0.225	0.2771	0.001
Mof_H 	H 	0.8679	0.2266	0.2663	0.051
Mof_C 	C 	0.9654	0.1482	0.3379	0.05
Mof_H 	H 	0.9192	0.0892	0.3765	0.022
Mof_C 	C 	0.0717	0.1762	0.3297	-0.059
Mof_C 	C 	0.1512	0.1291	0.3712	0.378
Mof_O 	O 	0.0965	0.0601	0.4498	0.029
Mof_Zn	Zn	0.71718	0.95218	0.55789	1.247
Mof_Zn	Zn	0.15528	0.59715	0.13187	1.233
Mof_O 	O 	0.1812	0.5374	0.9436	-0.419
Mof_O 	O 	0.2421	0.6701	0.0003	-0.495
Mof_O 	O 	0.3602	0.7623	0.8185	-0.114
Mof_O 	O 	0.5054	0.9342	0.7505	-0.209
Mof_O 	O 	0.5561	0.8986	0.5927	-0.51
Mof_O 	O 	0.3407	0.0012	0.6174	-0.468
Mof_O 	O 	0.2143	0.0964	0.5775	-0.436
Mof_O 	O 	0.1558	0.1997	0.741	-0.157
Mof_O 	O 	0.0491	0.3576	0.9416	-0.396
Mof_O 	O 	0.9968	0.341	0.815	-0.377
Mof_O 	O 	0.2269	0.6508	0.2146	-0.384
Mof_O 	O 	0.3584	0.5292	0.1597	-0.265
Mof_O 	O 	0.333	0.7269	0.3203	-0.139
Mof_O 	O 	0.2985	0.8981	0.4195	-0.389
Mof_O 	O 	0.4582	0.8676	0.4489	-0.411
Mof_O 	O 	0.0213	0.5807	0.8633	-0.442
Mof_O 	O 	0.862	0.5536	0.8365	-0.417
Mof_O 	O 	0.8893	0.7337	0.7306	-0.145
Mof_O 	O 	0.7536	0.8361	0.6528	-0.343
Mof_O 	O 	0.8651	0.9603	0.5889	-0.386
Mof_C 	C 	0.2354	0.6226	0.9315	0.43
Mof_C 	C 	0.3005	0.6698	0.829	0.007
Mof_C 	C 	0.3191	0.6395	0.7387	-0.011
Mof_H 	H 	0.2879	0.5783	0.7256	0.053
Mof_C 	C 	0.3941	0.7165	0.6672	-0.056
Mof_H 	H 	0.4228	0.7173	0.597	0.073
Mof_C 	C 	0.4165	0.7883	0.7192	0.057
Mof_C 	C 	0.4953	0.8822	0.6892	0.307
Mof_C 	C 	0.2668	0.0705	0.6323	0.334
Mof_C 	C 	0.2387	0.1257	0.7231	0.022
Mof_C 	C 	0.282	0.121	0.7924	-0.031
Mof_H 	H 	0.3409	0.0769	0.7957	0.066
Mof_C 	C 	0.2219	0.1955	0.8598	-0.045
Mof_H 	H 	0.2323	0.2103	0.9176	0.084
Mof_C 	C 	0.1469	0.2414	0.8257	0.046
Mof_C 	C 	0.0575	0.3206	0.864	0.297
Mof_C 	C 	0.317	0.6025	0.2101	0.295
Mof_C 	C 	0.376	0.6403	0.2696	0.049
Mof_C 	C 	0.4717	0.6084	0.2816	-0.047
Mof_H 	H 	0.5169	0.5504	0.2546	0.069
Mof_C 	C 	0.491	0.6794	0.343	-0.031
Mof_H 	H 	0.5516	0.6775	0.3651	0.062
Mof_C 	C 	0.4063	0.7497	0.3637	0.028
Mof_C 	C 	0.3857	0.8461	0.4156	0.346
Mof_C 	C 	0.9514	0.6054	0.8265	0.393
Mof_C 	C 	0.9743	0.7052	0.762	0.08
Mof_C 	C 	0.0633	0.775	0.7229	-0.065
Mof_H 	H 	0.1321	0.7734	0.7337	0.082
Mof_C 	C 	0.0346	0.8518	0.6621	-0.08
Mof_H 	H 	0.0808	0.9108	0.6235	0.089
Mof_C 	C 	0.9283	0.8238	0.6703	0.107
Mof_C 	C 	0.8488	0.8709	0.6288	0.326
Mof_O 	O 	0.9035	0.9399	0.5502	0.077
Mof_Zn	Zn	0.5	0	0.5	1.215
Mof_Zn	Zn	4.05306e-19	0.5	-0	1.198
_end
