data_functionalizedCrystal
_audit_creation_method	'EQeq! by Chris Wilmer'
_symmetry_space_group_name_H-M	'P1'
_symmetry_Int_Tables_number	1
_symmetry_cell_setting	triclinic
loop_
_symmetry_equiv_pos_as_xyz
  x,y,z
_cell_length_a	24.8217
_cell_length_b	24.8217
_cell_length_c	56.734
_cell_angle_alpha	90
_cell_angle_beta	90
_cell_angle_gamma	120
loop_
_atom_site_label
_atom_site_type_symbol
_atom_site_fract_x
_atom_site_fract_y
_atom_site_fract_z
_atom_site_charge
Mof_O 	O 	0.4371	0.7805	0.02611	-0.485
Mof_O 	O 	0.6547	0.2206	0.1307	-0.509
Mof_C 	C 	0.1906	0.8862	0.95	-0.007
Mof_C 	C 	0.2164	0.8486	0.8706	-0.003
Mof_C 	C 	0.4944	0.8893	0.0524	-0.052
Mof_H 	H 	0.5181	0.8725	0.0469	0.069
Mof_C 	C 	0.5224	0.9452	0.0653	0.018
Mof_C 	C 	0.5778	0.057	0.0919	0.016
Mof_C 	C 	0.6038	0.1128	0.10444	-0.036
Mof_H 	H 	0.6461	0.1331	0.108	0.065
Mof_C 	C 	0.571	0.9578	0.0856	0
Mof_C 	C 	0.5932	0.9856	0.0661	-0.001
Mof_C 	C 	0.604	0.014	0.0905	-0.005
Mof_C 	C 	0.6155	0.0332	0.081	-0.01
Mof_O 	O 	0.10377	0.11383	0.35944	-0.487
Mof_O 	O 	0.32137	0.55393	0.46403	-0.509
Mof_C 	C 	0.85727	0.21953	0.28333	-0.008
Mof_C 	C 	0.88307	0.18193	0.20393	-0.002
Mof_C 	C 	0.16107	0.22263	0.38573	-0.058
Mof_H 	H 	0.18477	0.20583	0.38023	0.069
Mof_C 	C 	0.18907	0.27853	0.39863	0.024
Mof_C 	C 	0.24447	0.39033	0.42523	0.007
Mof_C 	C 	0.27047	0.44613	0.43777	-0.031
Mof_H 	H 	0.31277	0.46643	0.44133	0.062
Mof_C 	C 	0.23767	0.29113	0.41893	-0.004
Mof_C 	C 	0.25987	0.31893	0.39943	-0.013
Mof_C 	C 	0.27067	0.34733	0.42383	-0.009
Mof_C 	C 	0.28217	0.36653	0.41433	0.004
Mof_O 	O 	0.77043	0.44717	0.69278	-0.485
Mof_O 	O 	0.98803	0.88727	0.79737	-0.505
Mof_C 	C 	0.52393	0.55287	0.61667	-0.01
Mof_C 	C 	0.54973	0.51527	0.53727	-0.004
Mof_C 	C 	0.82773	0.55597	0.71907	-0.058
Mof_H 	H 	0.85143	0.53917	0.71357	0.07
Mof_C 	C 	0.85573	0.61187	0.73197	0.024
Mof_C 	C 	0.91113	0.72367	0.75857	0.009
Mof_C 	C 	0.93713	0.77947	0.77111	-0.032
Mof_H 	H 	0.97943	0.79977	0.77467	0.065
Mof_C 	C 	0.90433	0.62447	0.75227	-0.004
Mof_C 	C 	0.92653	0.65227	0.73277	-0.011
Mof_C 	C 	0.93733	0.68067	0.75717	-0.006
Mof_C 	C 	0.94883	0.69987	0.74767	0.003
Mof_O 	O 	0.2195	0.6566	0.02611	-0.486
Mof_O 	O 	0.7794	0.4341	0.1307	-0.51
Mof_C 	C 	0.1138	0.3044	0.95	-0.011
Mof_C 	C 	0.1514	0.3678	0.8706	-0.005
Mof_C 	C 	0.1107	0.6051	0.0524	-0.061
Mof_H 	H 	0.1275	0.6456	0.0469	0.071
Mof_C 	C 	0.0548	0.5772	0.0653	0.029
Mof_C 	C 	0.943	0.5208	0.0919	0.002
Mof_C 	C 	0.8872	0.491	0.10444	-0.027
Mof_H 	H 	0.8669	0.513	0.108	0.061
Mof_C 	C 	0.0422	0.6132	0.0856	-0.006
Mof_C 	C 	0.0144	0.6076	0.0661	-0.02
Mof_C 	C 	0.986	0.59	0.0905	-0.009
Mof_C 	C 	0.9668	0.5823	0.081	0.012
Mof_O 	O 	0.88617	0.98993	0.35944	-0.482
Mof_O 	O 	0.44607	0.76743	0.46403	-0.51
Mof_C 	C 	0.78047	0.63773	0.28333	-0.01
Mof_C 	C 	0.81807	0.70113	0.20393	-0.005
Mof_C 	C 	0.77737	0.93843	0.38573	-0.058
Mof_H 	H 	0.79417	0.97893	0.38023	0.071
Mof_C 	C 	0.72147	0.91053	0.39863	0.024
Mof_C 	C 	0.60967	0.85413	0.42523	0.008
Mof_C 	C 	0.55387	0.82433	0.43777	-0.031
Mof_H 	H 	0.53357	0.84633	0.44133	0.063
Mof_C 	C 	0.70887	0.94653	0.41893	-0.002
Mof_C 	C 	0.68107	0.94093	0.39943	-0.012
Mof_C 	C 	0.65267	0.92333	0.42383	-0.008
Mof_C 	C 	0.63347	0.91563	0.41433	0.004
Mof_O 	O 	0.55283	0.32327	0.69278	-0.486
Mof_O 	O 	0.11273	0.10077	0.79737	-0.511
Mof_C 	C 	0.44713	0.97107	0.61667	-0.006
Mof_C 	C 	0.48473	0.03447	0.53727	-0.008
Mof_C 	C 	0.44403	0.27177	0.71907	-0.058
Mof_H 	H 	0.46083	0.31227	0.71357	0.07
Mof_C 	C 	0.38813	0.24387	0.73197	0.024
Mof_C 	C 	0.27633	0.18747	0.75857	0.007
Mof_C 	C 	0.22053	0.15767	0.77111	-0.031
Mof_H 	H 	0.20023	0.17967	0.77467	0.062
Mof_C 	C 	0.37553	0.27987	0.75227	-0.004
Mof_C 	C 	0.34773	0.27427	0.73277	-0.014
Mof_C 	C 	0.31933	0.25667	0.75717	-0.009
Mof_C 	C 	0.30013	0.24897	0.74767	0.004
Mof_O 	O 	0.3434	0.5629	0.02611	-0.486
Mof_O 	O 	0.5659	0.3453	0.1307	-0.51
Mof_C 	C 	0.6956	0.8094	0.95	-0.009
Mof_C 	C 	0.6322	0.7836	0.8706	-0.005
Mof_C 	C 	0.3949	0.5056	0.0524	-0.058
Mof_H 	H 	0.3544	0.4819	0.0469	0.07
Mof_C 	C 	0.4228	0.4776	0.0653	0.024
Mof_C 	C 	0.4792	0.4222	0.0919	0.007
Mof_C 	C 	0.509	0.3962	0.10444	-0.031
Mof_H 	H 	0.487	0.3539	0.108	0.062
Mof_C 	C 	0.3868	0.429	0.0856	-0.004
Mof_C 	C 	0.3924	0.4068	0.0661	-0.014
Mof_C 	C 	0.41	0.396	0.0905	-0.009
Mof_C 	C 	0.4177	0.3845	0.081	0.004
Mof_O 	O 	0.01007	0.89623	0.35944	-0.486
Mof_O 	O 	0.23257	0.67863	0.46403	-0.51
Mof_C 	C 	0.36227	0.14273	0.28333	-0.012
Mof_C 	C 	0.29887	0.11693	0.20393	-0.007
Mof_C 	C 	0.06157	0.83893	0.38573	-0.058
Mof_H 	H 	0.02107	0.81523	0.38023	0.069
Mof_C 	C 	0.08947	0.81093	0.39863	0.024
Mof_C 	C 	0.14587	0.75553	0.42523	0.007
Mof_C 	C 	0.17567	0.72953	0.43777	-0.031
Mof_H 	H 	0.15367	0.68723	0.44133	0.062
Mof_C 	C 	0.05347	0.76233	0.41893	-0.004
Mof_C 	C 	0.05907	0.74013	0.39943	-0.014
Mof_C 	C 	0.07667	0.72933	0.42383	-0.009
Mof_C 	C 	0.08437	0.71783	0.41433	0.004
Mof_O 	O 	0.67673	0.22957	0.69278	-0.486
Mof_O 	O 	0.89923	0.01197	0.79737	-0.51
Mof_C 	C 	0.02893	0.47607	0.61667	-0.016
Mof_C 	C 	0.96553	0.45027	0.53727	-0
Mof_C 	C 	0.72823	0.17227	0.71907	-0.058
Mof_H 	H 	0.68773	0.14857	0.71357	0.069
Mof_C 	C 	0.75613	0.14427	0.73197	0.024
Mof_C 	C 	0.81253	0.08887	0.75857	0.008
Mof_C 	C 	0.84233	0.06287	0.77111	-0.031
Mof_H 	H 	0.82033	0.02057	0.77467	0.062
Mof_C 	C 	0.72013	0.09567	0.75227	-0.003
Mof_C 	C 	0.72573	0.07347	0.73277	-0.014
Mof_C 	C 	0.74333	0.06267	0.75717	-0.01
Mof_C 	C 	0.75103	0.05117	0.74767	0.004
Mof_O 	O 	0.2195	0.5629	0.02611	-0.486
Mof_O 	O 	0.7794	0.3453	0.1307	-0.51
Mof_C 	C 	0.1138	0.8094	0.95	-0.011
Mof_C 	C 	0.1514	0.7836	0.8706	-0.006
Mof_C 	C 	0.1107	0.5056	0.0524	-0.061
Mof_H 	H 	0.1275	0.4819	0.0469	0.071
Mof_C 	C 	0.0548	0.4776	0.0653	0.029
Mof_C 	C 	0.943	0.4222	0.0919	0.002
Mof_C 	C 	0.8872	0.3962	0.10444	-0.027
Mof_H 	H 	0.8669	0.3539	0.108	0.061
Mof_C 	C 	0.0422	0.429	0.0856	-0.006
Mof_C 	C 	0.0144	0.4068	0.0661	-0.021
Mof_C 	C 	0.986	0.396	0.0905	-0.009
Mof_C 	C 	0.9668	0.3845	0.081	0.013
Mof_O 	O 	0.88617	0.89623	0.35944	-0.484
Mof_O 	O 	0.44607	0.67863	0.46403	-0.51
Mof_C 	C 	0.78047	0.14273	0.28333	-0.011
Mof_C 	C 	0.81807	0.11693	0.20393	-0.007
Mof_C 	C 	0.77737	0.83893	0.38573	-0.058
Mof_H 	H 	0.79417	0.81523	0.38023	0.07
Mof_C 	C 	0.72147	0.81093	0.39863	0.024
Mof_C 	C 	0.60967	0.75553	0.42523	0.008
Mof_C 	C 	0.55387	0.72953	0.43777	-0.031
Mof_H 	H 	0.53357	0.68723	0.44133	0.062
Mof_C 	C 	0.70887	0.76233	0.41893	-0.003
Mof_C 	C 	0.68107	0.74013	0.39943	-0.013
Mof_C 	C 	0.65267	0.72933	0.42383	-0.009
Mof_C 	C 	0.63347	0.71783	0.41433	0.004
Mof_O 	O 	0.55283	0.22957	0.69278	-0.486
Mof_O 	O 	0.11273	0.01197	0.79737	-0.513
Mof_C 	C 	0.44713	0.47607	0.61667	-0.01
Mof_C 	C 	0.48473	0.45027	0.53727	-0.005
Mof_C 	C 	0.44403	0.17227	0.71907	-0.058
Mof_H 	H 	0.46083	0.14857	0.71357	0.069
Mof_C 	C 	0.38813	0.14427	0.73197	0.024
Mof_C 	C 	0.27633	0.08887	0.75857	0.007
Mof_C 	C 	0.22053	0.06287	0.77111	-0.031
Mof_H 	H 	0.20023	0.02057	0.77467	0.061
Mof_C 	C 	0.37553	0.09567	0.75227	-0.003
Mof_C 	C 	0.34773	0.07347	0.73277	-0.014
Mof_C 	C 	0.31933	0.06267	0.75717	-0.01
Mof_C 	C 	0.30013	0.05117	0.74767	0.005
Mof_O 	O 	0.3434	0.7805	0.02611	-0.486
Mof_O 	O 	0.5659	0.2206	0.1307	-0.51
Mof_C 	C 	0.6956	0.8862	0.95	-0.008
Mof_C 	C 	0.6322	0.8486	0.8706	-0.004
Mof_C 	C 	0.3949	0.8893	0.0524	-0.053
Mof_H 	H 	0.3544	0.8725	0.0469	0.068
Mof_C 	C 	0.4228	0.9452	0.0653	0.017
Mof_C 	C 	0.4792	0.057	0.0919	0.015
Mof_C 	C 	0.509	0.1128	0.10444	-0.037
Mof_H 	H 	0.487	0.1331	0.108	0.064
Mof_C 	C 	0.3868	0.9578	0.0856	-0.001
Mof_C 	C 	0.3924	0.9856	0.0661	-0.002
Mof_C 	C 	0.41	0.014	0.0905	-0.006
Mof_C 	C 	0.4177	0.0332	0.081	-0.011
Mof_O 	O 	0.01007	0.11383	0.35944	-0.489
Mof_O 	O 	0.23257	0.55393	0.46403	-0.51
Mof_C 	C 	0.36227	0.21953	0.28333	-0.01
Mof_C 	C 	0.29887	0.18193	0.20393	-0.004
Mof_C 	C 	0.06157	0.22263	0.38573	-0.058
Mof_H 	H 	0.02107	0.20583	0.38023	0.069
Mof_C 	C 	0.08947	0.27853	0.39863	0.024
Mof_C 	C 	0.14587	0.39033	0.42523	0.007
Mof_C 	C 	0.17567	0.44613	0.43777	-0.031
Mof_H 	H 	0.15367	0.46643	0.44133	0.062
Mof_C 	C 	0.05347	0.29113	0.41893	-0.005
Mof_C 	C 	0.05907	0.31893	0.39943	-0.014
Mof_C 	C 	0.07667	0.34733	0.42383	-0.009
Mof_C 	C 	0.08437	0.36653	0.41433	0.004
Mof_O 	O 	0.67673	0.44717	0.69278	-0.486
Mof_O 	O 	0.89923	0.88727	0.79737	-0.508
Mof_C 	C 	0.02893	0.55287	0.61667	-0.016
Mof_C 	C 	0.96553	0.51527	0.53727	0
Mof_C 	C 	0.72823	0.55597	0.71907	-0.058
Mof_H 	H 	0.68773	0.53917	0.71357	0.07
Mof_C 	C 	0.75613	0.61187	0.73197	0.024
Mof_C 	C 	0.81253	0.72367	0.75857	0.008
Mof_C 	C 	0.84233	0.77947	0.77111	-0.032
Mof_H 	H 	0.82033	0.79977	0.77467	0.063
Mof_C 	C 	0.72013	0.62447	0.75227	-0.003
Mof_C 	C 	0.72573	0.65227	0.73277	-0.013
Mof_C 	C 	0.74333	0.68067	0.75717	-0.009
Mof_C 	C 	0.75103	0.69987	0.74767	0.004
Mof_O 	O 	0.4371	0.6566	0.02611	-0.486
Mof_O 	O 	0.6547	0.4341	0.1307	-0.51
Mof_C 	C 	0.1906	0.3044	0.95	-0.01
Mof_C 	C 	0.2164	0.3678	0.8706	-0.004
Mof_C 	C 	0.4944	0.6051	0.0524	-0.058
Mof_H 	H 	0.5181	0.6456	0.0469	0.07
Mof_C 	C 	0.5224	0.5772	0.0653	0.024
Mof_C 	C 	0.5778	0.5208	0.0919	0.008
Mof_C 	C 	0.6038	0.491	0.10444	-0.031
Mof_H 	H 	0.6461	0.513	0.108	0.062
Mof_C 	C 	0.571	0.6132	0.0856	-0.003
Mof_C 	C 	0.5932	0.6076	0.0661	-0.013
Mof_C 	C 	0.604	0.59	0.0905	-0.009
Mof_C 	C 	0.6155	0.5823	0.081	0.004
Mof_O 	O 	0.10377	0.98993	0.35944	-0.483
Mof_O 	O 	0.32137	0.76743	0.46403	-0.51
Mof_C 	C 	0.85727	0.63773	0.28333	-0.009
Mof_C 	C 	0.88307	0.70113	0.20393	-0.004
Mof_C 	C 	0.16107	0.93843	0.38573	-0.058
Mof_H 	H 	0.18477	0.97893	0.38023	0.071
Mof_C 	C 	0.18907	0.91053	0.39863	0.024
Mof_C 	C 	0.24447	0.85413	0.42523	0.008
Mof_C 	C 	0.27047	0.82433	0.43777	-0.031
Mof_H 	H 	0.31277	0.84633	0.44133	0.062
Mof_C 	C 	0.23767	0.94653	0.41893	-0.003
Mof_C 	C 	0.25987	0.94093	0.39943	-0.012
Mof_C 	C 	0.27067	0.92333	0.42383	-0.008
Mof_C 	C 	0.28217	0.91563	0.41433	0.004
Mof_O 	O 	0.77043	0.32327	0.69278	-0.485
Mof_O 	O 	0.98803	0.10077	0.79737	-0.505
Mof_C 	C 	0.52393	0.97107	0.61667	-0.006
Mof_C 	C 	0.54973	0.03447	0.53727	-0.008
Mof_C 	C 	0.82773	0.27177	0.71907	-0.058
Mof_H 	H 	0.85143	0.31227	0.71357	0.07
Mof_C 	C 	0.85573	0.24387	0.73197	0.024
Mof_C 	C 	0.91113	0.18747	0.75857	0.008
Mof_C 	C 	0.93713	0.15767	0.77111	-0.031
Mof_H 	H 	0.97943	0.17967	0.77467	0.065
Mof_C 	C 	0.90433	0.27987	0.75227	-0.004
Mof_C 	C 	0.92653	0.27427	0.73277	-0.011
Mof_C 	C 	0.93733	0.25667	0.75717	-0.006
Mof_C 	C 	0.94883	0.24897	0.74767	0.003
Mof_Zn	Zn	0.33333	0.66667	0.9617	1.212
Mof_O 	O 	0.33333	0.66667	0.99559	-0.955
Mof_Zn	Zn	-0	0	0.29503	1.21
Mof_O 	O 	1.33424e-32	0	0.32892	-0.96
Mof_Zn	Zn	0.66667	0.33333	0.62837	1.212
Mof_O 	O 	0.66667	0.33333	0.66226	-0.955
Mof_Zn	Zn	0.41919	0.7096	0.00717	1.213
Mof_Zn	Zn	0.08586	0.04293	0.34051	1.212
Mof_Zn	Zn	0.75252	0.37626	0.67384	1.213
Mof_Zn	Zn	0.2904	0.7096	0.00717	1.213
Mof_Zn	Zn	0.95707	0.04293	0.34051	1.213
Mof_Zn	Zn	0.62374	0.37626	0.67384	1.213
Mof_Zn	Zn	0.2904	0.58081	0.00717	1.213
Mof_Zn	Zn	0.95707	0.91414	0.34051	1.215
Mof_Zn	Zn	0.62374	0.24748	0.67384	1.213
Mof_Zn	Zn	0.04156	0.95844	0.8174	1.214
Mof_O 	O 	0.29179	0.70821	0.94794	-0.496
Mof_O 	O 	0.26266	0.73734	0.98047	-0.51
Mof_O 	O 	0.07524	0.92476	0.83979	-0.52
Mof_O 	O 	0.0461	0.9539	0.871	-0.563
Mof_C 	C 	0.23864	0.76136	0.92001	-0.03
Mof_H 	H 	0.2579	0.7421	0.9126	0.063
Mof_C 	C 	0.2375	0.7625	0.943	-0.075
Mof_C 	C 	0.2093	0.7907	0.9538	-0.036
Mof_H 	H 	0.2085	0.7915	0.9701	0.062
Mof_C 	C 	0.1278	0.8722	0.9396	-0.007
Mof_C 	C 	0.0991	0.9009	0.9	-0.016
Mof_H 	H 	0.08	0.92	0.9076	0.046
Mof_C 	C 	0.1008	0.8992	0.8758	-0.104
Mof_C 	C 	0.1276	0.8724	0.86627	-0.007
Mof_H 	H 	0.1293	0.8707	0.85	0.055
Mof_C 	C 	0.2127	0.7873	0.87986	-0.009
Mof_C 	C 	0.21185	0.78815	0.90617	0.012
Mof_C 	C 	0.1833	0.8167	0.91686	-0.009
Mof_C 	C 	0.1811	0.8189	0.9409	0.015
Mof_C 	C 	0.1273	0.8727	0.913	0.001
Mof_C 	C 	0.1547	0.8453	0.9023	0.002
Mof_C 	C 	0.1548	0.8452	0.88009	0.001
Mof_C 	C 	0.2659	0.7341	0.9583	0.383
Mof_C 	C 	0.0705	0.9295	0.8613	0.462
Mof_Zn	Zn	0.70823	0.29177	0.15073	1.214
Mof_O 	O 	0.95846	0.04154	0.28127	-0.496
Mof_O 	O 	0.92932	0.07068	0.3138	-0.51
Mof_O 	O 	0.74191	0.25809	0.17312	-0.52
Mof_O 	O 	0.71277	0.28723	0.20433	-0.564
Mof_C 	C 	0.90531	0.09469	0.25334	-0.03
Mof_H 	H 	0.92457	0.07543	0.24593	0.062
Mof_C 	C 	0.90417	0.09583	0.27633	-0.076
Mof_C 	C 	0.87597	0.12403	0.28713	-0.036
Mof_H 	H 	0.87517	0.12483	0.30343	0.061
Mof_C 	C 	0.79447	0.20553	0.27293	-0.007
Mof_C 	C 	0.76577	0.23423	0.23333	-0.016
Mof_H 	H 	0.74667	0.25333	0.24093	0.046
Mof_C 	C 	0.76747	0.23253	0.20913	-0.104
Mof_C 	C 	0.79427	0.20573	0.1996	-0.007
Mof_H 	H 	0.79597	0.20403	0.18333	0.055
Mof_C 	C 	0.87937	0.12063	0.21319	-0.01
Mof_C 	C 	0.87852	0.12148	0.2395	0.012
Mof_C 	C 	0.84997	0.15003	0.25019	-0.009
Mof_C 	C 	0.84777	0.15223	0.27423	0.015
Mof_C 	C 	0.79397	0.20603	0.24633	0.001
Mof_C 	C 	0.82137	0.17863	0.23563	0.002
Mof_C 	C 	0.82147	0.17853	0.21342	0.001
Mof_C 	C 	0.93257	0.06743	0.29163	0.382
Mof_C 	C 	0.73717	0.26283	0.19463	0.462
Mof_Zn	Zn	0.37489	0.62511	0.48407	1.214
Mof_O 	O 	0.62512	0.37488	0.61461	-0.496
Mof_O 	O 	0.59599	0.40401	0.64714	-0.51
Mof_O 	O 	0.40857	0.59143	0.50646	-0.519
Mof_O 	O 	0.37943	0.62057	0.53767	-0.564
Mof_C 	C 	0.57197	0.42803	0.58668	-0.03
Mof_H 	H 	0.59123	0.40877	0.57927	0.063
Mof_C 	C 	0.57083	0.42917	0.60967	-0.075
Mof_C 	C 	0.54263	0.45737	0.62047	-0.036
Mof_H 	H 	0.54183	0.45817	0.63677	0.062
Mof_C 	C 	0.46113	0.53887	0.60627	-0.007
Mof_C 	C 	0.43243	0.56757	0.56667	-0.016
Mof_H 	H 	0.41333	0.58667	0.57427	0.046
Mof_C 	C 	0.43413	0.56587	0.54247	-0.104
Mof_C 	C 	0.46093	0.53907	0.53294	-0.007
Mof_H 	H 	0.46263	0.53737	0.51667	0.055
Mof_C 	C 	0.54603	0.45397	0.54653	-0.009
Mof_C 	C 	0.54518	0.45482	0.57284	0.012
Mof_C 	C 	0.51663	0.48337	0.58353	-0.009
Mof_C 	C 	0.51443	0.48557	0.60757	0.015
Mof_C 	C 	0.46063	0.53937	0.57967	0.001
Mof_C 	C 	0.48803	0.51197	0.56897	0.002
Mof_C 	C 	0.48813	0.51187	0.54676	0.001
Mof_C 	C 	0.59923	0.40077	0.62497	0.382
Mof_C 	C 	0.40383	0.59617	0.52797	0.462
Mof_Zn	Zn	0.04156	0.08312	0.8174	1.212
Mof_O 	O 	0.29179	0.58358	0.94794	-0.496
Mof_O 	O 	0.26266	0.52531	0.98047	-0.51
Mof_O 	O 	0.07524	0.15048	0.83979	-0.521
Mof_O 	O 	0.0461	0.0922	0.871	-0.566
Mof_C 	C 	0.23864	0.47728	0.92001	-0.03
Mof_H 	H 	0.2579	0.5158	0.9126	0.063
Mof_C 	C 	0.2375	0.475	0.943	-0.075
Mof_C 	C 	0.2093	0.4186	0.9538	-0.036
Mof_H 	H 	0.2085	0.417	0.9701	0.061
Mof_C 	C 	0.1278	0.2556	0.9396	-0.008
Mof_C 	C 	0.0991	0.1982	0.9	-0.016
Mof_H 	H 	0.08	0.16	0.9076	0.044
Mof_C 	C 	0.1008	0.2016	0.8758	-0.106
Mof_C 	C 	0.1276	0.2552	0.86627	-0.006
Mof_H 	H 	0.1293	0.2586	0.85	0.055
Mof_C 	C 	0.2127	0.4254	0.87986	-0.009
Mof_C 	C 	0.21185	0.4237	0.90617	0.012
Mof_C 	C 	0.1833	0.3666	0.91686	-0.009
Mof_C 	C 	0.1811	0.3622	0.9409	0.016
Mof_C 	C 	0.1273	0.2546	0.913	0
Mof_C 	C 	0.1547	0.3094	0.9023	0.003
Mof_C 	C 	0.1548	0.3096	0.88009	-0
Mof_C 	C 	0.2659	0.5318	0.9583	0.382
Mof_C 	C 	0.0705	0.141	0.8613	0.463
Mof_Zn	Zn	0.70823	0.41645	0.15073	1.214
Mof_O 	O 	0.95846	0.91691	0.28127	-0.492
Mof_O 	O 	0.92932	0.85864	0.3138	-0.508
Mof_O 	O 	0.74191	0.48381	0.17312	-0.519
Mof_O 	O 	0.71277	0.42553	0.20433	-0.564
Mof_C 	C 	0.90531	0.81061	0.25334	-0.03
Mof_H 	H 	0.92457	0.84913	0.24593	0.064
Mof_C 	C 	0.90417	0.80833	0.27633	-0.074
Mof_C 	C 	0.87597	0.75193	0.28713	-0.036
Mof_H 	H 	0.87517	0.75033	0.30343	0.062
Mof_C 	C 	0.79447	0.58893	0.27293	-0.007
Mof_C 	C 	0.76577	0.53153	0.23333	-0.016
Mof_H 	H 	0.74667	0.49333	0.24093	0.046
Mof_C 	C 	0.76747	0.53493	0.20913	-0.104
Mof_C 	C 	0.79427	0.58853	0.1996	-0.006
Mof_H 	H 	0.79597	0.59193	0.18333	0.055
Mof_C 	C 	0.87937	0.75873	0.21319	-0.009
Mof_C 	C 	0.87852	0.75703	0.2395	0.013
Mof_C 	C 	0.84997	0.69993	0.25019	-0.009
Mof_C 	C 	0.84777	0.69553	0.27423	0.016
Mof_C 	C 	0.79397	0.58793	0.24633	0.001
Mof_C 	C 	0.82137	0.64273	0.23563	0.003
Mof_C 	C 	0.82147	0.64293	0.21342	0
Mof_C 	C 	0.93257	0.86513	0.29163	0.382
Mof_C 	C 	0.73717	0.47433	0.19463	0.462
Mof_Zn	Zn	0.37489	0.74979	0.48407	1.214
Mof_O 	O 	0.62512	0.25025	0.61461	-0.496
Mof_O 	O 	0.59599	0.19198	0.64714	-0.511
Mof_O 	O 	0.40857	0.81715	0.50646	-0.519
Mof_O 	O 	0.37943	0.75887	0.53767	-0.564
Mof_C 	C 	0.57197	0.14395	0.58668	-0.029
Mof_H 	H 	0.59123	0.18247	0.57927	0.062
Mof_C 	C 	0.57083	0.14167	0.60967	-0.077
Mof_C 	C 	0.54263	0.08527	0.62047	-0.034
Mof_H 	H 	0.54183	0.08367	0.63677	0.06
Mof_C 	C 	0.46113	0.92227	0.60627	-0.008
Mof_C 	C 	0.43243	0.86487	0.56667	-0.017
Mof_H 	H 	0.41333	0.82667	0.57427	0.046
Mof_C 	C 	0.43413	0.86827	0.54247	-0.102
Mof_C 	C 	0.46093	0.92187	0.53294	-0.01
Mof_H 	H 	0.46263	0.92527	0.51667	0.057
Mof_C 	C 	0.54603	0.09207	0.54653	-0.008
Mof_C 	C 	0.54518	0.09037	0.57284	0.011
Mof_C 	C 	0.51663	0.03327	0.58353	-0.01
Mof_C 	C 	0.51443	0.02887	0.60757	0.011
Mof_C 	C 	0.46063	0.92127	0.57967	0.003
Mof_C 	C 	0.48803	0.97607	0.56897	0.003
Mof_C 	C 	0.48813	0.97627	0.54676	0.007
Mof_C 	C 	0.59923	0.19847	0.62497	0.383
Mof_C 	C 	0.40383	0.80767	0.52797	0.462
Mof_Zn	Zn	0.91688	0.95844	0.8174	1.216
Mof_O 	O 	0.41642	0.70821	0.94794	-0.496
Mof_O 	O 	0.47469	0.73734	0.98047	-0.51
Mof_O 	O 	0.84952	0.92476	0.83979	-0.518
Mof_O 	O 	0.9078	0.9539	0.871	-0.559
Mof_C 	C 	0.52272	0.76136	0.92001	-0.029
Mof_H 	H 	0.4842	0.7421	0.9126	0.062
Mof_C 	C 	0.525	0.7625	0.943	-0.075
Mof_C 	C 	0.5814	0.7907	0.9538	-0.036
Mof_H 	H 	0.583	0.7915	0.9701	0.062
Mof_C 	C 	0.7444	0.8722	0.9396	-0.006
Mof_C 	C 	0.8018	0.9009	0.9	-0.017
Mof_H 	H 	0.84	0.92	0.9076	0.047
Mof_C 	C 	0.7984	0.8992	0.8758	-0.102
Mof_C 	C 	0.7448	0.8724	0.86627	-0.007
Mof_H 	H 	0.7414	0.8707	0.85	0.056
Mof_C 	C 	0.5746	0.7873	0.87986	-0.009
Mof_C 	C 	0.5763	0.78815	0.90617	0.012
Mof_C 	C 	0.6334	0.8167	0.91686	-0.008
Mof_C 	C 	0.6378	0.8189	0.9409	0.015
Mof_C 	C 	0.7454	0.8727	0.913	0.002
Mof_C 	C 	0.6906	0.8453	0.9023	0.002
Mof_C 	C 	0.6904	0.8452	0.88009	0.001
Mof_C 	C 	0.4682	0.7341	0.9583	0.383
Mof_C 	C 	0.859	0.9295	0.8613	0.461
Mof_Zn	Zn	0.58355	0.29177	0.15073	1.214
Mof_O 	O 	0.08309	0.04154	0.28127	-0.499
Mof_O 	O 	0.14136	0.07068	0.3138	-0.512
Mof_O 	O 	0.51619	0.25809	0.17312	-0.52
Mof_O 	O 	0.57447	0.28723	0.20433	-0.564
Mof_C 	C 	0.18939	0.09469	0.25334	-0.029
Mof_H 	H 	0.15087	0.07543	0.24593	0.061
Mof_C 	C 	0.19167	0.09583	0.27633	-0.077
Mof_C 	C 	0.24807	0.12403	0.28713	-0.036
Mof_H 	H 	0.24967	0.12483	0.30343	0.061
Mof_C 	C 	0.41107	0.20553	0.27293	-0.007
Mof_C 	C 	0.46847	0.23423	0.23333	-0.016
Mof_H 	H 	0.50667	0.25333	0.24093	0.046
Mof_C 	C 	0.46507	0.23253	0.20913	-0.104
Mof_C 	C 	0.41147	0.20573	0.1996	-0.007
Mof_H 	H 	0.40807	0.20403	0.18333	0.055
Mof_C 	C 	0.24127	0.12063	0.21319	-0.01
Mof_C 	C 	0.24297	0.12148	0.2395	0.011
Mof_C 	C 	0.30007	0.15003	0.25019	-0.009
Mof_C 	C 	0.30447	0.15223	0.27423	0.015
Mof_C 	C 	0.41207	0.20603	0.24633	0.001
Mof_C 	C 	0.35727	0.17863	0.23563	0.002
Mof_C 	C 	0.35707	0.17853	0.21342	0.001
Mof_C 	C 	0.13487	0.06743	0.29163	0.383
Mof_C 	C 	0.52567	0.26283	0.19463	0.462
Mof_Zn	Zn	0.25021	0.62511	0.48407	1.214
Mof_O 	O 	0.74975	0.37488	0.61461	-0.496
Mof_O 	O 	0.80802	0.40401	0.64714	-0.51
Mof_O 	O 	0.18285	0.59143	0.50646	-0.52
Mof_O 	O 	0.24113	0.62057	0.53767	-0.564
Mof_C 	C 	0.85605	0.42803	0.58668	-0.032
Mof_H 	H 	0.81753	0.40877	0.57927	0.063
Mof_C 	C 	0.85833	0.42917	0.60967	-0.072
Mof_C 	C 	0.91473	0.45737	0.62047	-0.04
Mof_H 	H 	0.91633	0.45817	0.63677	0.064
Mof_C 	C 	0.07773	0.53887	0.60627	-0.005
Mof_C 	C 	0.13513	0.56757	0.56667	-0.015
Mof_H 	H 	0.17333	0.58667	0.57427	0.045
Mof_C 	C 	0.13173	0.56587	0.54247	-0.107
Mof_C 	C 	0.07813	0.53907	0.53294	-0.003
Mof_H 	H 	0.07473	0.53737	0.51667	0.053
Mof_C 	C 	0.90793	0.45397	0.54653	-0.011
Mof_C 	C 	0.90963	0.45482	0.57284	0.014
Mof_C 	C 	0.96673	0.48337	0.58353	-0.007
Mof_C 	C 	0.97113	0.48557	0.60757	0.024
Mof_C 	C 	0.07873	0.53937	0.57967	-0
Mof_C 	C 	0.02393	0.51197	0.56897	0.001
Mof_C 	C 	0.02373	0.51187	0.54676	-0.007
Mof_C 	C 	0.80153	0.40077	0.62497	0.382
Mof_C 	C 	0.19233	0.59617	0.52797	0.463
Mof_Zn	Zn	-2.66848e-32	-5.33695e-32	0.86537	1.201
Mof_O 	O 	-0	0	0.82952	-0.964
Mof_Zn	Zn	0.66667	0.33333	0.1987	1.204
Mof_O 	O 	0.66667	0.33333	0.16285	-0.959
Mof_Zn	Zn	0.33333	0.66667	0.53204	1.204
Mof_O 	O 	0.33333	0.66667	0.49619	-0.959
Mof_C 	C 	0.42935	0.8587	0.0481	-0.041
Mof_C 	C 	0.48475	0.9695	0.0726	-0.002
Mof_C 	C 	0.51395	0.0279	0.0867	-0.014
Mof_C 	C 	0.5691	0.1382	0.1115	-0.071
Mof_C 	C 	0.4006	0.8012	0.0324	0.322
Mof_C 	C 	0.59885	0.1977	0.12616	0.405
Mof_C 	C 	0.09602	0.19203	0.38143	-0.039
Mof_C 	C 	0.15142	0.30283	0.40593	-0.015
Mof_C 	C 	0.18062	0.36123	0.42003	-0.001
Mof_C 	C 	0.23577	0.47153	0.44483	-0.075
Mof_C 	C 	0.06727	0.13453	0.36573	0.321
Mof_C 	C 	0.26552	0.53103	0.45949	0.407
Mof_C 	C 	0.76268	0.52537	0.71477	-0.037
Mof_C 	C 	0.81808	0.63617	0.73927	-0.014
Mof_C 	C 	0.84728	0.69457	0.75337	-0.001
Mof_C 	C 	0.90243	0.80487	0.77817	-0.074
Mof_C 	C 	0.73393	0.46787	0.69907	0.321
Mof_C 	C 	0.93218	0.86437	0.79283	0.406
Mof_C 	C 	0.1413	0.57065	0.0481	-0.036
Mof_C 	C 	0.0305	0.51525	0.0726	-0.023
Mof_C 	C 	0.9721	0.48605	0.0867	0.008
Mof_C 	C 	0.8618	0.4309	0.1115	-0.078
Mof_C 	C 	0.1988	0.5994	0.0324	0.32
Mof_C 	C 	0.8023	0.40115	0.12616	0.408
Mof_C 	C 	0.80797	0.90398	0.38143	-0.037
Mof_C 	C 	0.69717	0.84858	0.40593	-0.014
Mof_C 	C 	0.63877	0.81938	0.42003	-0.001
Mof_C 	C 	0.52847	0.76423	0.44483	-0.075
Mof_C 	C 	0.86547	0.93273	0.36573	0.321
Mof_C 	C 	0.46897	0.73448	0.45949	0.407
Mof_C 	C 	0.47463	0.23732	0.71477	-0.038
Mof_C 	C 	0.36383	0.18192	0.73927	-0.015
Mof_C 	C 	0.30543	0.15272	0.75337	-0.001
Mof_C 	C 	0.19513	0.09757	0.77817	-0.076
Mof_C 	C 	0.53213	0.26607	0.69907	0.321
Mof_C 	C 	0.13563	0.06782	0.79283	0.408
Mof_C 	C 	0.42935	0.57065	0.0481	-0.038
Mof_C 	C 	0.48475	0.51525	0.0726	-0.014
Mof_C 	C 	0.51395	0.48605	0.0867	-0.001
Mof_C 	C 	0.5691	0.4309	0.1115	-0.075
Mof_C 	C 	0.4006	0.5994	0.0324	0.321
Mof_C 	C 	0.59885	0.40115	0.12616	0.407
Mof_C 	C 	0.09602	0.90398	0.38143	-0.037
Mof_C 	C 	0.15142	0.84858	0.40593	-0.014
Mof_C 	C 	0.18062	0.81938	0.42003	-0.001
Mof_C 	C 	0.23577	0.76423	0.44483	-0.075
Mof_C 	C 	0.06727	0.93273	0.36573	0.321
Mof_C 	C 	0.26552	0.73448	0.45949	0.407
Mof_C 	C 	0.76268	0.23732	0.71477	-0.038
Mof_C 	C 	0.81808	0.18192	0.73927	-0.014
Mof_C 	C 	0.84728	0.15272	0.75337	-0.001
Mof_C 	C 	0.90243	0.09757	0.77817	-0.074
Mof_C 	C 	0.73393	0.26607	0.69907	0.321
Mof_C 	C 	0.93218	0.06782	0.79283	0.407
Mof_O 	O 	0.7805	0.4371	0.97389	-0.486
Mof_O 	O 	0.2206	0.6547	0.8693	-0.51
Mof_C 	C 	0.8862	0.1906	0.05	-0.008
Mof_C 	C 	0.8486	0.2164	0.1294	-0.004
Mof_C 	C 	0.8893	0.4944	0.9476	-0.053
Mof_H 	H 	0.8725	0.5181	0.9531	0.068
Mof_C 	C 	0.9452	0.5224	0.9347	0.017
Mof_C 	C 	0.057	0.5778	0.9081	0.015
Mof_C 	C 	0.1128	0.6038	0.89556	-0.037
Mof_H 	H 	0.1331	0.6461	0.892	0.064
Mof_C 	C 	0.9578	0.571	0.9144	-0.001
Mof_C 	C 	0.9856	0.5932	0.9339	-0.002
Mof_C 	C 	0.014	0.604	0.9095	-0.006
Mof_C 	C 	0.0332	0.6155	0.919	-0.011
Mof_O 	O 	0.44717	0.77043	0.30722	-0.485
Mof_O 	O 	0.88727	0.98803	0.20263	-0.505
Mof_C 	C 	0.55287	0.52393	0.38333	-0.01
Mof_C 	C 	0.51527	0.54973	0.46273	-0.004
Mof_C 	C 	0.55597	0.82773	0.28093	-0.058
Mof_H 	H 	0.53917	0.85143	0.28643	0.07
Mof_C 	C 	0.61187	0.85573	0.26803	0.024
Mof_C 	C 	0.72367	0.91113	0.24143	0.009
Mof_C 	C 	0.77947	0.93713	0.22889	-0.032
Mof_H 	H 	0.79977	0.97943	0.22533	0.065
Mof_C 	C 	0.62447	0.90433	0.24773	-0.004
Mof_C 	C 	0.65227	0.92653	0.26723	-0.011
Mof_C 	C 	0.68067	0.93733	0.24283	-0.006
Mof_C 	C 	0.69987	0.94883	0.25233	0.003
Mof_O 	O 	0.11383	0.10377	0.64056	-0.488
Mof_O 	O 	0.55393	0.32137	0.53597	-0.51
Mof_C 	C 	0.21953	0.85727	0.71667	-0.009
Mof_C 	C 	0.18193	0.88307	0.79607	-0.003
Mof_C 	C 	0.22263	0.16107	0.61427	-0.058
Mof_H 	H 	0.20583	0.18477	0.61977	0.069
Mof_C 	C 	0.27853	0.18907	0.60137	0.024
Mof_C 	C 	0.39033	0.24447	0.57477	0.007
Mof_C 	C 	0.44613	0.27047	0.56223	-0.031
Mof_H 	H 	0.46643	0.31277	0.55867	0.062
Mof_C 	C 	0.29113	0.23767	0.58107	-0.004
Mof_C 	C 	0.31893	0.25987	0.60057	-0.013
Mof_C 	C 	0.34733	0.27067	0.57617	-0.009
Mof_C 	C 	0.36653	0.28217	0.58567	0.004
Mof_O 	O 	0.6566	0.2195	0.97389	-0.486
Mof_O 	O 	0.4341	0.7794	0.8693	-0.51
Mof_C 	C 	0.3044	0.1138	0.05	-0.011
Mof_C 	C 	0.3678	0.1514	0.1294	-0.005
Mof_C 	C 	0.6051	0.1107	0.9476	-0.061
Mof_H 	H 	0.6456	0.1275	0.9531	0.071
Mof_C 	C 	0.5772	0.0548	0.9347	0.029
Mof_C 	C 	0.5208	0.943	0.9081	0.002
Mof_C 	C 	0.491	0.8872	0.89556	-0.027
Mof_H 	H 	0.513	0.8669	0.892	0.061
Mof_C 	C 	0.6132	0.0422	0.9144	-0.006
Mof_C 	C 	0.6076	0.0144	0.9339	-0.02
Mof_C 	C 	0.59	0.986	0.9095	-0.009
Mof_C 	C 	0.5823	0.9668	0.919	0.012
Mof_O 	O 	0.32327	0.55283	0.30722	-0.486
Mof_O 	O 	0.10077	0.11273	0.20263	-0.511
Mof_C 	C 	0.97107	0.44713	0.38333	-0.006
Mof_C 	C 	0.03447	0.48473	0.46273	-0.008
Mof_C 	C 	0.27177	0.44403	0.28093	-0.058
Mof_H 	H 	0.31227	0.46083	0.28643	0.07
Mof_C 	C 	0.24387	0.38813	0.26803	0.024
Mof_C 	C 	0.18747	0.27633	0.24143	0.007
Mof_C 	C 	0.15767	0.22053	0.22889	-0.031
Mof_H 	H 	0.17967	0.20023	0.22533	0.062
Mof_C 	C 	0.27987	0.37553	0.24773	-0.004
Mof_C 	C 	0.27427	0.34773	0.26723	-0.014
Mof_C 	C 	0.25667	0.31933	0.24283	-0.009
Mof_C 	C 	0.24897	0.30013	0.25233	0.004
Mof_O 	O 	0.98993	0.88617	0.64056	-0.482
Mof_O 	O 	0.76743	0.44607	0.53597	-0.51
Mof_C 	C 	0.63773	0.78047	0.71667	-0.01
Mof_C 	C 	0.70113	0.81807	0.79607	-0.005
Mof_C 	C 	0.93843	0.77737	0.61427	-0.058
Mof_H 	H 	0.97893	0.79417	0.61977	0.071
Mof_C 	C 	0.91053	0.72147	0.60137	0.024
Mof_C 	C 	0.85413	0.60967	0.57477	0.008
Mof_C 	C 	0.82433	0.55387	0.56223	-0.031
Mof_H 	H 	0.84633	0.53357	0.55867	0.063
Mof_C 	C 	0.94653	0.70887	0.58107	-0.002
Mof_C 	C 	0.94093	0.68107	0.60057	-0.012
Mof_C 	C 	0.92333	0.65267	0.57617	-0.008
Mof_C 	C 	0.91563	0.63347	0.58567	0.004
Mof_O 	O 	0.5629	0.3434	0.97389	-0.486
Mof_O 	O 	0.3453	0.5659	0.8693	-0.51
Mof_C 	C 	0.8094	0.6956	0.05	-0.009
Mof_C 	C 	0.7836	0.6322	0.1294	-0.005
Mof_C 	C 	0.5056	0.3949	0.9476	-0.058
Mof_H 	H 	0.4819	0.3544	0.9531	0.07
Mof_C 	C 	0.4776	0.4228	0.9347	0.024
Mof_C 	C 	0.4222	0.4792	0.9081	0.007
Mof_C 	C 	0.3962	0.509	0.89556	-0.031
Mof_H 	H 	0.3539	0.487	0.892	0.062
Mof_C 	C 	0.429	0.3868	0.9144	-0.004
Mof_C 	C 	0.4068	0.3924	0.9339	-0.014
Mof_C 	C 	0.396	0.41	0.9095	-0.009
Mof_C 	C 	0.3845	0.4177	0.919	0.004
Mof_O 	O 	0.22957	0.67673	0.30722	-0.486
Mof_O 	O 	0.01197	0.89923	0.20263	-0.51
Mof_C 	C 	0.47607	0.02893	0.38333	-0.016
Mof_C 	C 	0.45027	0.96553	0.46273	-0
Mof_C 	C 	0.17227	0.72823	0.28093	-0.058
Mof_H 	H 	0.14857	0.68773	0.28643	0.069
Mof_C 	C 	0.14427	0.75613	0.26803	0.024
Mof_C 	C 	0.08887	0.81253	0.24143	0.008
Mof_C 	C 	0.06287	0.84233	0.22889	-0.031
Mof_H 	H 	0.02057	0.82033	0.22533	0.062
Mof_C 	C 	0.09567	0.72013	0.24773	-0.003
Mof_C 	C 	0.07347	0.72573	0.26723	-0.014
Mof_C 	C 	0.06267	0.74333	0.24283	-0.01
Mof_C 	C 	0.05117	0.75103	0.25233	0.004
Mof_O 	O 	0.89623	0.01007	0.64056	-0.486
Mof_O 	O 	0.67863	0.23257	0.53597	-0.51
Mof_C 	C 	0.14273	0.36227	0.71667	-0.012
Mof_C 	C 	0.11693	0.29887	0.79607	-0.007
Mof_C 	C 	0.83893	0.06157	0.61427	-0.058
Mof_H 	H 	0.81523	0.02107	0.61977	0.069
Mof_C 	C 	0.81093	0.08947	0.60137	0.024
Mof_C 	C 	0.75553	0.14587	0.57477	0.007
Mof_C 	C 	0.72953	0.17567	0.56223	-0.031
Mof_H 	H 	0.68723	0.15367	0.55867	0.062
Mof_C 	C 	0.76233	0.05347	0.58107	-0.004
Mof_C 	C 	0.74013	0.05907	0.60057	-0.014
Mof_C 	C 	0.72933	0.07667	0.57617	-0.009
Mof_C 	C 	0.71783	0.08437	0.58567	0.004
Mof_O 	O 	0.5629	0.2195	0.97389	-0.486
Mof_O 	O 	0.3453	0.7794	0.8693	-0.51
Mof_C 	C 	0.8094	0.1138	0.05	-0.011
Mof_C 	C 	0.7836	0.1514	0.1294	-0.006
Mof_C 	C 	0.5056	0.1107	0.9476	-0.061
Mof_H 	H 	0.4819	0.1275	0.9531	0.071
Mof_C 	C 	0.4776	0.0548	0.9347	0.029
Mof_C 	C 	0.4222	0.943	0.9081	0.002
Mof_C 	C 	0.3962	0.8872	0.89556	-0.027
Mof_H 	H 	0.3539	0.8669	0.892	0.061
Mof_C 	C 	0.429	0.0422	0.9144	-0.006
Mof_C 	C 	0.4068	0.0144	0.9339	-0.021
Mof_C 	C 	0.396	0.986	0.9095	-0.009
Mof_C 	C 	0.3845	0.9668	0.919	0.013
Mof_O 	O 	0.22957	0.55283	0.30722	-0.486
Mof_O 	O 	0.01197	0.11273	0.20263	-0.513
Mof_C 	C 	0.47607	0.44713	0.38333	-0.01
Mof_C 	C 	0.45027	0.48473	0.46273	-0.005
Mof_C 	C 	0.17227	0.44403	0.28093	-0.058
Mof_H 	H 	0.14857	0.46083	0.28643	0.069
Mof_C 	C 	0.14427	0.38813	0.26803	0.024
Mof_C 	C 	0.08887	0.27633	0.24143	0.007
Mof_C 	C 	0.06287	0.22053	0.22889	-0.031
Mof_H 	H 	0.02057	0.20023	0.22533	0.061
Mof_C 	C 	0.09567	0.37553	0.24773	-0.003
Mof_C 	C 	0.07347	0.34773	0.26723	-0.014
Mof_C 	C 	0.06267	0.31933	0.24283	-0.01
Mof_C 	C 	0.05117	0.30013	0.25233	0.005
Mof_O 	O 	0.89623	0.88617	0.64056	-0.484
Mof_O 	O 	0.67863	0.44607	0.53597	-0.51
Mof_C 	C 	0.14273	0.78047	0.71667	-0.011
Mof_C 	C 	0.11693	0.81807	0.79607	-0.007
Mof_C 	C 	0.83893	0.77737	0.61427	-0.058
Mof_H 	H 	0.81523	0.79417	0.61977	0.07
Mof_C 	C 	0.81093	0.72147	0.60137	0.024
Mof_C 	C 	0.75553	0.60967	0.57477	0.008
Mof_C 	C 	0.72953	0.55387	0.56223	-0.031
Mof_H 	H 	0.68723	0.53357	0.55867	0.062
Mof_C 	C 	0.76233	0.70887	0.58107	-0.003
Mof_C 	C 	0.74013	0.68107	0.60057	-0.013
Mof_C 	C 	0.72933	0.65267	0.57617	-0.009
Mof_C 	C 	0.71783	0.63347	0.58567	0.004
Mof_O 	O 	0.7805	0.3434	0.97389	-0.486
Mof_O 	O 	0.2206	0.5659	0.8693	-0.51
Mof_C 	C 	0.8862	0.6956	0.05	-0.008
Mof_C 	C 	0.8486	0.6322	0.1294	-0.004
Mof_C 	C 	0.8893	0.3949	0.9476	-0.053
Mof_H 	H 	0.8725	0.3544	0.9531	0.068
Mof_C 	C 	0.9452	0.4228	0.9347	0.017
Mof_C 	C 	0.057	0.4792	0.9081	0.015
Mof_C 	C 	0.1128	0.509	0.89556	-0.037
Mof_H 	H 	0.1331	0.487	0.892	0.064
Mof_C 	C 	0.9578	0.3868	0.9144	-0.001
Mof_C 	C 	0.9856	0.3924	0.9339	-0.002
Mof_C 	C 	0.014	0.41	0.9095	-0.006
Mof_C 	C 	0.0332	0.4177	0.919	-0.011
Mof_O 	O 	0.44717	0.67673	0.30722	-0.486
Mof_O 	O 	0.88727	0.89923	0.20263	-0.508
Mof_C 	C 	0.55287	0.02893	0.38333	-0.016
Mof_C 	C 	0.51527	0.96553	0.46273	0
Mof_C 	C 	0.55597	0.72823	0.28093	-0.058
Mof_H 	H 	0.53917	0.68773	0.28643	0.07
Mof_C 	C 	0.61187	0.75613	0.26803	0.024
Mof_C 	C 	0.72367	0.81253	0.24143	0.008
Mof_C 	C 	0.77947	0.84233	0.22889	-0.032
Mof_H 	H 	0.79977	0.82033	0.22533	0.063
Mof_C 	C 	0.62447	0.72013	0.24773	-0.003
Mof_C 	C 	0.65227	0.72573	0.26723	-0.013
Mof_C 	C 	0.68067	0.74333	0.24283	-0.009
Mof_C 	C 	0.69987	0.75103	0.25233	0.004
Mof_O 	O 	0.11383	0.01007	0.64056	-0.489
Mof_O 	O 	0.55393	0.23257	0.53597	-0.51
Mof_C 	C 	0.21953	0.36227	0.71667	-0.01
Mof_C 	C 	0.18193	0.29887	0.79607	-0.004
Mof_C 	C 	0.22263	0.06157	0.61427	-0.058
Mof_H 	H 	0.20583	0.02107	0.61977	0.069
Mof_C 	C 	0.27853	0.08947	0.60137	0.024
Mof_C 	C 	0.39033	0.14587	0.57477	0.007
Mof_C 	C 	0.44613	0.17567	0.56223	-0.031
Mof_H 	H 	0.46643	0.15367	0.55867	0.062
Mof_C 	C 	0.29113	0.05347	0.58107	-0.005
Mof_C 	C 	0.31893	0.05907	0.60057	-0.014
Mof_C 	C 	0.34733	0.07667	0.57617	-0.009
Mof_C 	C 	0.36653	0.08437	0.58567	0.004
Mof_O 	O 	0.6566	0.4371	0.97389	-0.486
Mof_O 	O 	0.4341	0.6547	0.8693	-0.51
Mof_C 	C 	0.3044	0.1906	0.05	-0.01
Mof_C 	C 	0.3678	0.2164	0.1294	-0.004
Mof_C 	C 	0.6051	0.4944	0.9476	-0.058
Mof_H 	H 	0.6456	0.5181	0.9531	0.07
Mof_C 	C 	0.5772	0.5224	0.9347	0.024
Mof_C 	C 	0.5208	0.5778	0.9081	0.008
Mof_C 	C 	0.491	0.6038	0.89556	-0.031
Mof_H 	H 	0.513	0.6461	0.892	0.062
Mof_C 	C 	0.6132	0.571	0.9144	-0.003
Mof_C 	C 	0.6076	0.5932	0.9339	-0.013
Mof_C 	C 	0.59	0.604	0.9095	-0.009
Mof_C 	C 	0.5823	0.6155	0.919	0.004
Mof_O 	O 	0.32327	0.77043	0.30722	-0.485
Mof_O 	O 	0.10077	0.98803	0.20263	-0.505
Mof_C 	C 	0.97107	0.52393	0.38333	-0.006
Mof_C 	C 	0.03447	0.54973	0.46273	-0.008
Mof_C 	C 	0.27177	0.82773	0.28093	-0.058
Mof_H 	H 	0.31227	0.85143	0.28643	0.07
Mof_C 	C 	0.24387	0.85573	0.26803	0.024
Mof_C 	C 	0.18747	0.91113	0.24143	0.008
Mof_C 	C 	0.15767	0.93713	0.22889	-0.031
Mof_H 	H 	0.17967	0.97943	0.22533	0.065
Mof_C 	C 	0.27987	0.90433	0.24773	-0.004
Mof_C 	C 	0.27427	0.92653	0.26723	-0.011
Mof_C 	C 	0.25667	0.93733	0.24283	-0.006
Mof_C 	C 	0.24897	0.94883	0.25233	0.003
Mof_O 	O 	0.98993	0.10377	0.64056	-0.483
Mof_O 	O 	0.76743	0.32137	0.53597	-0.51
Mof_C 	C 	0.63773	0.85727	0.71667	-0.009
Mof_C 	C 	0.70113	0.88307	0.79607	-0.004
Mof_C 	C 	0.93843	0.16107	0.61427	-0.058
Mof_H 	H 	0.97893	0.18477	0.61977	0.071
Mof_C 	C 	0.91053	0.18907	0.60137	0.024
Mof_C 	C 	0.85413	0.24447	0.57477	0.008
Mof_C 	C 	0.82433	0.27047	0.56223	-0.031
Mof_H 	H 	0.84633	0.31277	0.55867	0.062
Mof_C 	C 	0.94653	0.23767	0.58107	-0.003
Mof_C 	C 	0.94093	0.25987	0.60057	-0.012
Mof_C 	C 	0.92333	0.27067	0.57617	-0.008
Mof_C 	C 	0.91563	0.28217	0.58567	0.004
Mof_Zn	Zn	0.66667	0.33333	0.0383	1.212
Mof_O 	O 	0.66667	0.33333	0.00441	-0.955
Mof_Zn	Zn	0.33333	0.66667	0.37163	1.212
Mof_O 	O 	0.33333	0.66667	0.33774	-0.955
Mof_Zn	Zn	-4.00271e-32	0	0.70497	1.21
Mof_O 	O 	1.33424e-32	-2.66848e-32	0.67108	-0.96
Mof_Zn	Zn	0.7096	0.41919	0.99283	1.213
Mof_Zn	Zn	0.37626	0.75252	0.32616	1.213
Mof_Zn	Zn	0.04293	0.08586	0.65949	1.212
Mof_Zn	Zn	0.7096	0.2904	0.99283	1.213
Mof_Zn	Zn	0.37626	0.62374	0.32616	1.213
Mof_Zn	Zn	0.04293	0.95707	0.65949	1.213
Mof_Zn	Zn	0.58081	0.2904	0.99283	1.213
Mof_Zn	Zn	0.24748	0.62374	0.32616	1.213
Mof_Zn	Zn	0.91414	0.95707	0.65949	1.215
Mof_Zn	Zn	0.95844	0.04156	0.1826	1.214
Mof_O 	O 	0.70821	0.29179	0.05206	-0.496
Mof_O 	O 	0.73734	0.26266	0.01953	-0.51
Mof_O 	O 	0.92476	0.07524	0.16021	-0.52
Mof_O 	O 	0.9539	0.0461	0.129	-0.563
Mof_C 	C 	0.76136	0.23864	0.07999	-0.03
Mof_H 	H 	0.7421	0.2579	0.0874	0.063
Mof_C 	C 	0.7625	0.2375	0.057	-0.075
Mof_C 	C 	0.7907	0.2093	0.0462	-0.036
Mof_H 	H 	0.7915	0.2085	0.0299	0.062
Mof_C 	C 	0.8722	0.1278	0.0604	-0.007
Mof_C 	C 	0.9009	0.0991	0.1	-0.016
Mof_H 	H 	0.92	0.08	0.0924	0.046
Mof_C 	C 	0.8992	0.1008	0.1242	-0.104
Mof_C 	C 	0.8724	0.1276	0.13373	-0.007
Mof_H 	H 	0.8707	0.1293	0.15	0.055
Mof_C 	C 	0.7873	0.2127	0.12014	-0.009
Mof_C 	C 	0.78815	0.21185	0.09383	0.012
Mof_C 	C 	0.8167	0.1833	0.08314	-0.009
Mof_C 	C 	0.8189	0.1811	0.0591	0.015
Mof_C 	C 	0.8727	0.1273	0.087	0.001
Mof_C 	C 	0.8453	0.1547	0.0977	0.002
Mof_C 	C 	0.8452	0.1548	0.11991	0.001
Mof_C 	C 	0.7341	0.2659	0.0417	0.383
Mof_C 	C 	0.9295	0.0705	0.1387	0.462
Mof_Zn	Zn	0.62511	0.37489	0.51593	1.214
Mof_O 	O 	0.37488	0.62512	0.38539	-0.496
Mof_O 	O 	0.40401	0.59599	0.35286	-0.51
Mof_O 	O 	0.59143	0.40857	0.49354	-0.519
Mof_O 	O 	0.62057	0.37943	0.46233	-0.564
Mof_C 	C 	0.42803	0.57197	0.41332	-0.03
Mof_H 	H 	0.40877	0.59123	0.42073	0.063
Mof_C 	C 	0.42917	0.57083	0.39033	-0.075
Mof_C 	C 	0.45737	0.54263	0.37953	-0.036
Mof_H 	H 	0.45817	0.54183	0.36323	0.062
Mof_C 	C 	0.53887	0.46113	0.39373	-0.007
Mof_C 	C 	0.56757	0.43243	0.43333	-0.016
Mof_H 	H 	0.58667	0.41333	0.42573	0.046
Mof_C 	C 	0.56587	0.43413	0.45753	-0.104
Mof_C 	C 	0.53907	0.46093	0.46706	-0.007
Mof_H 	H 	0.53737	0.46263	0.48333	0.055
Mof_C 	C 	0.45397	0.54603	0.45347	-0.009
Mof_C 	C 	0.45482	0.54518	0.42716	0.012
Mof_C 	C 	0.48337	0.51663	0.41647	-0.009
Mof_C 	C 	0.48557	0.51443	0.39243	0.015
Mof_C 	C 	0.53937	0.46063	0.42033	0.001
Mof_C 	C 	0.51197	0.48803	0.43103	0.002
Mof_C 	C 	0.51187	0.48813	0.45324	0.001
Mof_C 	C 	0.40077	0.59923	0.37503	0.382
Mof_C 	C 	0.59617	0.40383	0.47203	0.462
Mof_Zn	Zn	0.29177	0.70823	0.84927	1.214
Mof_O 	O 	0.04154	0.95846	0.71873	-0.496
Mof_O 	O 	0.07068	0.92932	0.6862	-0.51
Mof_O 	O 	0.25809	0.74191	0.82688	-0.52
Mof_O 	O 	0.28723	0.71277	0.79567	-0.564
Mof_C 	C 	0.09469	0.90531	0.74666	-0.03
Mof_H 	H 	0.07543	0.92457	0.75407	0.062
Mof_C 	C 	0.09583	0.90417	0.72367	-0.076
Mof_C 	C 	0.12403	0.87597	0.71287	-0.036
Mof_H 	H 	0.12483	0.87517	0.69657	0.061
Mof_C 	C 	0.20553	0.79447	0.72707	-0.007
Mof_C 	C 	0.23423	0.76577	0.76667	-0.016
Mof_H 	H 	0.25333	0.74667	0.75907	0.046
Mof_C 	C 	0.23253	0.76747	0.79087	-0.104
Mof_C 	C 	0.20573	0.79427	0.8004	-0.007
Mof_H 	H 	0.20403	0.79597	0.81667	0.055
Mof_C 	C 	0.12063	0.87937	0.78681	-0.01
Mof_C 	C 	0.12148	0.87852	0.7605	0.012
Mof_C 	C 	0.15003	0.84997	0.74981	-0.009
Mof_C 	C 	0.15223	0.84777	0.72577	0.015
Mof_C 	C 	0.20603	0.79397	0.75367	0.001
Mof_C 	C 	0.17863	0.82137	0.76437	0.002
Mof_C 	C 	0.17853	0.82147	0.78658	0.001
Mof_C 	C 	0.06743	0.93257	0.70837	0.382
Mof_C 	C 	0.26283	0.73717	0.80537	0.462
Mof_Zn	Zn	0.08312	0.04156	0.1826	1.212
Mof_O 	O 	0.58358	0.29179	0.05206	-0.496
Mof_O 	O 	0.52531	0.26266	0.01953	-0.51
Mof_O 	O 	0.15048	0.07524	0.16021	-0.521
Mof_O 	O 	0.0922	0.0461	0.129	-0.566
Mof_C 	C 	0.47728	0.23864	0.07999	-0.03
Mof_H 	H 	0.5158	0.2579	0.0874	0.063
Mof_C 	C 	0.475	0.2375	0.057	-0.075
Mof_C 	C 	0.4186	0.2093	0.0462	-0.036
Mof_H 	H 	0.417	0.2085	0.0299	0.061
Mof_C 	C 	0.2556	0.1278	0.0604	-0.008
Mof_C 	C 	0.1982	0.0991	0.1	-0.016
Mof_H 	H 	0.16	0.08	0.0924	0.044
Mof_C 	C 	0.2016	0.1008	0.1242	-0.106
Mof_C 	C 	0.2552	0.1276	0.13373	-0.006
Mof_H 	H 	0.2586	0.1293	0.15	0.055
Mof_C 	C 	0.4254	0.2127	0.12014	-0.009
Mof_C 	C 	0.4237	0.21185	0.09383	0.012
Mof_C 	C 	0.3666	0.1833	0.08314	-0.009
Mof_C 	C 	0.3622	0.1811	0.0591	0.016
Mof_C 	C 	0.2546	0.1273	0.087	0
Mof_C 	C 	0.3094	0.1547	0.0977	0.003
Mof_C 	C 	0.3096	0.1548	0.11991	-0
Mof_C 	C 	0.5318	0.2659	0.0417	0.382
Mof_C 	C 	0.141	0.0705	0.1387	0.463
Mof_Zn	Zn	0.74979	0.37489	0.51593	1.214
Mof_O 	O 	0.25025	0.62512	0.38539	-0.496
Mof_O 	O 	0.19198	0.59599	0.35286	-0.511
Mof_O 	O 	0.81715	0.40857	0.49354	-0.519
Mof_O 	O 	0.75887	0.37943	0.46233	-0.564
Mof_C 	C 	0.14395	0.57197	0.41332	-0.029
Mof_H 	H 	0.18247	0.59123	0.42073	0.062
Mof_C 	C 	0.14167	0.57083	0.39033	-0.077
Mof_C 	C 	0.08527	0.54263	0.37953	-0.034
Mof_H 	H 	0.08367	0.54183	0.36323	0.06
Mof_C 	C 	0.92227	0.46113	0.39373	-0.008
Mof_C 	C 	0.86487	0.43243	0.43333	-0.017
Mof_H 	H 	0.82667	0.41333	0.42573	0.046
Mof_C 	C 	0.86827	0.43413	0.45753	-0.102
Mof_C 	C 	0.92187	0.46093	0.46706	-0.01
Mof_H 	H 	0.92527	0.46263	0.48333	0.057
Mof_C 	C 	0.09207	0.54603	0.45347	-0.008
Mof_C 	C 	0.09037	0.54518	0.42716	0.011
Mof_C 	C 	0.03327	0.51663	0.41647	-0.01
Mof_C 	C 	0.02887	0.51443	0.39243	0.011
Mof_C 	C 	0.92127	0.46063	0.42033	0.003
Mof_C 	C 	0.97607	0.48803	0.43103	0.003
Mof_C 	C 	0.97627	0.48813	0.45324	0.007
Mof_C 	C 	0.19847	0.59923	0.37503	0.383
Mof_C 	C 	0.80767	0.40383	0.47203	0.462
Mof_Zn	Zn	0.41645	0.70823	0.84927	1.214
Mof_O 	O 	0.91691	0.95846	0.71873	-0.492
Mof_O 	O 	0.85864	0.92932	0.6862	-0.508
Mof_O 	O 	0.48381	0.74191	0.82688	-0.519
Mof_O 	O 	0.42553	0.71277	0.79567	-0.564
Mof_C 	C 	0.81061	0.90531	0.74666	-0.03
Mof_H 	H 	0.84913	0.92457	0.75407	0.064
Mof_C 	C 	0.80833	0.90417	0.72367	-0.074
Mof_C 	C 	0.75193	0.87597	0.71287	-0.036
Mof_H 	H 	0.75033	0.87517	0.69657	0.062
Mof_C 	C 	0.58893	0.79447	0.72707	-0.007
Mof_C 	C 	0.53153	0.76577	0.76667	-0.016
Mof_H 	H 	0.49333	0.74667	0.75907	0.046
Mof_C 	C 	0.53493	0.76747	0.79087	-0.104
Mof_C 	C 	0.58853	0.79427	0.8004	-0.006
Mof_H 	H 	0.59193	0.79597	0.81667	0.055
Mof_C 	C 	0.75873	0.87937	0.78681	-0.009
Mof_C 	C 	0.75703	0.87852	0.7605	0.013
Mof_C 	C 	0.69993	0.84997	0.74981	-0.009
Mof_C 	C 	0.69553	0.84777	0.72577	0.016
Mof_C 	C 	0.58793	0.79397	0.75367	0.001
Mof_C 	C 	0.64273	0.82137	0.76437	0.003
Mof_C 	C 	0.64293	0.82147	0.78658	0
Mof_C 	C 	0.86513	0.93257	0.70837	0.382
Mof_C 	C 	0.47433	0.73717	0.80537	0.462
Mof_Zn	Zn	0.95844	0.91688	0.1826	1.216
Mof_O 	O 	0.70821	0.41642	0.05206	-0.496
Mof_O 	O 	0.73734	0.47469	0.01953	-0.51
Mof_O 	O 	0.92476	0.84952	0.16021	-0.518
Mof_O 	O 	0.9539	0.9078	0.129	-0.559
Mof_C 	C 	0.76136	0.52272	0.07999	-0.029
Mof_H 	H 	0.7421	0.4842	0.0874	0.062
Mof_C 	C 	0.7625	0.525	0.057	-0.075
Mof_C 	C 	0.7907	0.5814	0.0462	-0.036
Mof_H 	H 	0.7915	0.583	0.0299	0.062
Mof_C 	C 	0.8722	0.7444	0.0604	-0.006
Mof_C 	C 	0.9009	0.8018	0.1	-0.017
Mof_H 	H 	0.92	0.84	0.0924	0.047
Mof_C 	C 	0.8992	0.7984	0.1242	-0.102
Mof_C 	C 	0.8724	0.7448	0.13373	-0.007
Mof_H 	H 	0.8707	0.7414	0.15	0.056
Mof_C 	C 	0.7873	0.5746	0.12014	-0.009
Mof_C 	C 	0.78815	0.5763	0.09383	0.012
Mof_C 	C 	0.8167	0.6334	0.08314	-0.008
Mof_C 	C 	0.8189	0.6378	0.0591	0.015
Mof_C 	C 	0.8727	0.7454	0.087	0.002
Mof_C 	C 	0.8453	0.6906	0.0977	0.002
Mof_C 	C 	0.8452	0.6904	0.11991	0.001
Mof_C 	C 	0.7341	0.4682	0.0417	0.383
Mof_C 	C 	0.9295	0.859	0.1387	0.461
Mof_Zn	Zn	0.62511	0.25021	0.51593	1.214
Mof_O 	O 	0.37488	0.74975	0.38539	-0.496
Mof_O 	O 	0.40401	0.80802	0.35286	-0.51
Mof_O 	O 	0.59143	0.18285	0.49354	-0.52
Mof_O 	O 	0.62057	0.24113	0.46233	-0.564
Mof_C 	C 	0.42803	0.85605	0.41332	-0.032
Mof_H 	H 	0.40877	0.81753	0.42073	0.063
Mof_C 	C 	0.42917	0.85833	0.39033	-0.072
Mof_C 	C 	0.45737	0.91473	0.37953	-0.04
Mof_H 	H 	0.45817	0.91633	0.36323	0.064
Mof_C 	C 	0.53887	0.07773	0.39373	-0.005
Mof_C 	C 	0.56757	0.13513	0.43333	-0.015
Mof_H 	H 	0.58667	0.17333	0.42573	0.045
Mof_C 	C 	0.56587	0.13173	0.45753	-0.107
Mof_C 	C 	0.53907	0.07813	0.46706	-0.003
Mof_H 	H 	0.53737	0.07473	0.48333	0.053
Mof_C 	C 	0.45397	0.90793	0.45347	-0.011
Mof_C 	C 	0.45482	0.90963	0.42716	0.014
Mof_C 	C 	0.48337	0.96673	0.41647	-0.007
Mof_C 	C 	0.48557	0.97113	0.39243	0.024
Mof_C 	C 	0.53937	0.07873	0.42033	-0
Mof_C 	C 	0.51197	0.02393	0.43103	0.001
Mof_C 	C 	0.51187	0.02373	0.45324	-0.007
Mof_C 	C 	0.40077	0.80153	0.37503	0.382
Mof_C 	C 	0.59617	0.19233	0.47203	0.463
Mof_Zn	Zn	0.29177	0.58355	0.84927	1.214
Mof_O 	O 	0.04154	0.08309	0.71873	-0.499
Mof_O 	O 	0.07068	0.14136	0.6862	-0.512
Mof_O 	O 	0.25809	0.51619	0.82688	-0.52
Mof_O 	O 	0.28723	0.57447	0.79567	-0.564
Mof_C 	C 	0.09469	0.18939	0.74666	-0.029
Mof_H 	H 	0.07543	0.15087	0.75407	0.061
Mof_C 	C 	0.09583	0.19167	0.72367	-0.077
Mof_C 	C 	0.12403	0.24807	0.71287	-0.036
Mof_H 	H 	0.12483	0.24967	0.69657	0.061
Mof_C 	C 	0.20553	0.41107	0.72707	-0.007
Mof_C 	C 	0.23423	0.46847	0.76667	-0.016
Mof_H 	H 	0.25333	0.50667	0.75907	0.046
Mof_C 	C 	0.23253	0.46507	0.79087	-0.104
Mof_C 	C 	0.20573	0.41147	0.8004	-0.007
Mof_H 	H 	0.20403	0.40807	0.81667	0.055
Mof_C 	C 	0.12063	0.24127	0.78681	-0.01
Mof_C 	C 	0.12148	0.24297	0.7605	0.011
Mof_C 	C 	0.15003	0.30007	0.74981	-0.009
Mof_C 	C 	0.15223	0.30447	0.72577	0.015
Mof_C 	C 	0.20603	0.41207	0.75367	0.001
Mof_C 	C 	0.17863	0.35727	0.76437	0.002
Mof_C 	C 	0.17853	0.35707	0.78658	0.001
Mof_C 	C 	0.06743	0.13487	0.70837	0.383
Mof_C 	C 	0.26283	0.52567	0.80537	0.462
Mof_Zn	Zn	-6.67119e-33	-6.67119e-33	0.13463	1.201
Mof_O 	O 	-3.3356e-33	0	0.17048	-0.964
Mof_Zn	Zn	0.66667	0.33333	0.46796	1.204
Mof_O 	O 	0.66667	0.33333	0.50381	-0.959
Mof_Zn	Zn	0.33333	0.66667	0.8013	1.204
Mof_O 	O 	0.33333	0.66667	0.83715	-0.959
Mof_C 	C 	0.8587	0.42935	0.9519	-0.041
Mof_C 	C 	0.9695	0.48475	0.9274	-0.002
Mof_C 	C 	0.0279	0.51395	0.9133	-0.014
Mof_C 	C 	0.1382	0.5691	0.8885	-0.071
Mof_C 	C 	0.8012	0.4006	0.9676	0.322
Mof_C 	C 	0.1977	0.59885	0.87384	0.405
Mof_C 	C 	0.52537	0.76268	0.28523	-0.037
Mof_C 	C 	0.63617	0.81808	0.26073	-0.014
Mof_C 	C 	0.69457	0.84728	0.24663	-0.001
Mof_C 	C 	0.80487	0.90243	0.22183	-0.074
Mof_C 	C 	0.46787	0.73393	0.30093	0.321
Mof_C 	C 	0.86437	0.93218	0.20717	0.406
Mof_C 	C 	0.19203	0.09602	0.61857	-0.039
Mof_C 	C 	0.30283	0.15142	0.59407	-0.015
Mof_C 	C 	0.36123	0.18062	0.57997	-0.001
Mof_C 	C 	0.47153	0.23577	0.55517	-0.075
Mof_C 	C 	0.13453	0.06727	0.63427	0.321
Mof_C 	C 	0.53103	0.26552	0.54051	0.407
Mof_C 	C 	0.57065	0.1413	0.9519	-0.036
Mof_C 	C 	0.51525	0.0305	0.9274	-0.023
Mof_C 	C 	0.48605	0.9721	0.9133	0.008
Mof_C 	C 	0.4309	0.8618	0.8885	-0.078
Mof_C 	C 	0.5994	0.1988	0.9676	0.32
Mof_C 	C 	0.40115	0.8023	0.87384	0.408
Mof_C 	C 	0.23732	0.47463	0.28523	-0.038
Mof_C 	C 	0.18192	0.36383	0.26073	-0.015
Mof_C 	C 	0.15272	0.30543	0.24663	-0.001
Mof_C 	C 	0.09757	0.19513	0.22183	-0.076
Mof_C 	C 	0.26607	0.53213	0.30093	0.321
Mof_C 	C 	0.06782	0.13563	0.20717	0.408
Mof_C 	C 	0.90398	0.80797	0.61857	-0.037
Mof_C 	C 	0.84858	0.69717	0.59407	-0.014
Mof_C 	C 	0.81938	0.63877	0.57997	-0.001
Mof_C 	C 	0.76423	0.52847	0.55517	-0.075
Mof_C 	C 	0.93273	0.86547	0.63427	0.321
Mof_C 	C 	0.73448	0.46897	0.54051	0.407
Mof_C 	C 	0.57065	0.42935	0.9519	-0.038
Mof_C 	C 	0.51525	0.48475	0.9274	-0.014
Mof_C 	C 	0.48605	0.51395	0.9133	-0.001
Mof_C 	C 	0.4309	0.5691	0.8885	-0.075
Mof_C 	C 	0.5994	0.4006	0.9676	0.321
Mof_C 	C 	0.40115	0.59885	0.87384	0.407
Mof_C 	C 	0.23732	0.76268	0.28523	-0.038
Mof_C 	C 	0.18192	0.81808	0.26073	-0.014
Mof_C 	C 	0.15272	0.84728	0.24663	-0.001
Mof_C 	C 	0.09757	0.90243	0.22183	-0.074
Mof_C 	C 	0.26607	0.73393	0.30093	0.321
Mof_C 	C 	0.06782	0.93218	0.20717	0.407
Mof_C 	C 	0.90398	0.09602	0.61857	-0.037
Mof_C 	C 	0.84858	0.15142	0.59407	-0.014
Mof_C 	C 	0.81938	0.18062	0.57997	-0.001
Mof_C 	C 	0.76423	0.23577	0.55517	-0.075
Mof_C 	C 	0.93273	0.06727	0.63427	0.321
Mof_C 	C 	0.73448	0.26552	0.54051	0.407
_end
