data_functionalizedCrystal
_audit_creation_method	'EQeq! by Chris Wilmer'
_symmetry_space_group_name_H-M	'P1'
_symmetry_Int_Tables_number	1
_symmetry_cell_setting	triclinic
loop_
_symmetry_equiv_pos_as_xyz
  x,y,z
_cell_length_a	23.024
_cell_length_b	23.024
_cell_length_c	18.6484
_cell_angle_alpha	90
_cell_angle_beta	90
_cell_angle_gamma	90
loop_
_atom_site_label
_atom_site_type_symbol
_atom_site_fract_x
_atom_site_fract_y
_atom_site_fract_z
_atom_site_charge
Mof_O 	O 	0.4425	0.1573	0.0689	-0.654
Mof_C 	C 	0.4048	0.1393	0.113	0.548
Mof_O 	O 	0.3942	0.0877	0.1294	-0.815
Mof_C 	C 	0.3729	0.1839	0.1558	-0.135
Mof_C 	C 	0.3716	0.2418	0.1349	-0.004
Mof_C 	C 	0.3409	0.16568	0.2148	0.002
Mof_H 	H 	0.3935	0.2543	0.0946	0.082
Mof_C 	C 	0.3384	0.28158	0.1732	0.077
Mof_C 	C 	0.3076	0.2054	0.2531	0.055
Mof_H 	H 	0.3417	0.1261	0.2291	0.021
Mof_C 	C 	0.3063	0.2634	0.2322	0.019
Mof_N 	N 	0.3414	0.3411	0.1447	0.017
Mof_N 	N 	0.2759	0.1798	0.3146	0.048
Mof_O 	O 	0.3875	0.3604	0.1233	-0.045
Mof_O 	O 	0.2941	0.3676	0.145	-0.062
Mof_O 	O 	0.3008	0.1445	0.3524	-0.106
Mof_O 	O 	0.2251	0.1967	0.323	-0.1
Mof_O 	O 	0.339	0.3495	0.0802	-0.055
Mof_O 	O 	0.3468	0.3802	0.1906	-0.042
Mof_O 	O 	0.2715	0.2083	0.3699	-0.072
Mof_O 	O 	0.2554	0.1308	0.3072	-0.137
Mof_O 	O 	0.5575	0.8427	0.0689	-0.641
Mof_C 	C 	0.5952	0.8607	0.113	0.522
Mof_O 	O 	0.6058	0.9123	0.1294	-0.681
Mof_C 	C 	0.6271	0.8161	0.1558	-0.079
Mof_C 	C 	0.6284	0.7582	0.1349	-0.023
Mof_C 	C 	0.6591	0.83432	0.2148	-0.024
Mof_H 	H 	0.6065	0.7457	0.0946	0.092
Mof_C 	C 	0.6616	0.71842	0.1732	0.095
Mof_C 	C 	0.6924	0.7946	0.2531	0.1
Mof_H 	H 	0.6583	0.8739	0.2291	0.094
Mof_C 	C 	0.6937	0.7366	0.2322	0.007
Mof_N 	N 	0.6586	0.6589	0.1447	0.011
Mof_N 	N 	0.7241	0.8202	0.3146	-0.001
Mof_O 	O 	0.6125	0.6396	0.1233	-0.044
Mof_O 	O 	0.7059	0.6324	0.145	-0.048
Mof_O 	O 	0.6992	0.8555	0.3524	-0.024
Mof_O 	O 	0.7749	0.8033	0.323	-0.027
Mof_O 	O 	0.661	0.6505	0.0802	-0.045
Mof_O 	O 	0.6532	0.6198	0.1906	-0.039
Mof_O 	O 	0.7285	0.7917	0.3699	-0.033
Mof_O 	O 	0.7446	0.8692	0.3072	-0.009
Mof_O 	O 	0.8427	0.4425	0.5689	-0.635
Mof_C 	C 	0.8607	0.4048	0.613	0.521
Mof_O 	O 	0.9123	0.3942	0.6294	-0.686
Mof_C 	C 	0.8161	0.3729	0.6558	-0.081
Mof_C 	C 	0.7582	0.3716	0.6349	-0.025
Mof_C 	C 	0.83432	0.3409	0.7148	-0.025
Mof_H 	H 	0.7457	0.3935	0.5946	0.096
Mof_C 	C 	0.71842	0.3384	0.6732	0.096
Mof_C 	C 	0.7946	0.3076	0.7531	0.096
Mof_H 	H 	0.8739	0.3417	0.7291	0.089
Mof_C 	C 	0.7366	0.3063	0.7322	0.005
Mof_N 	N 	0.6589	0.3414	0.6447	0.012
Mof_N 	N 	0.8202	0.2759	0.8146	0.012
Mof_O 	O 	0.6396	0.3875	0.6233	-0.041
Mof_O 	O 	0.6324	0.2941	0.645	-0.058
Mof_O 	O 	0.8555	0.3008	0.8524	-0.032
Mof_O 	O 	0.8033	0.2251	0.823	-0.062
Mof_O 	O 	0.6505	0.339	0.5802	-0.045
Mof_O 	O 	0.6198	0.3468	0.6906	-0.041
Mof_O 	O 	0.7917	0.2715	0.8699	-0.043
Mof_O 	O 	0.8692	0.2554	0.8072	-0.043
Mof_O 	O 	0.1573	0.5575	0.5689	-0.647
Mof_C 	C 	0.1393	0.5952	0.613	0.547
Mof_O 	O 	0.0877	0.6058	0.6294	-0.804
Mof_C 	C 	0.1839	0.6271	0.6558	-0.125
Mof_C 	C 	0.2418	0.6284	0.6349	-0.006
Mof_C 	C 	0.16568	0.6591	0.7148	0
Mof_H 	H 	0.2543	0.6065	0.5946	0.088
Mof_C 	C 	0.28158	0.6616	0.6732	0.082
Mof_C 	C 	0.2054	0.6924	0.7531	0.064
Mof_H 	H 	0.1261	0.6583	0.7291	0.03
Mof_C 	C 	0.2634	0.6937	0.7322	0.02
Mof_N 	N 	0.3411	0.6586	0.6447	0.011
Mof_N 	N 	0.1798	0.7241	0.8146	0.031
Mof_O 	O 	0.3604	0.6125	0.6233	-0.041
Mof_O 	O 	0.3676	0.7059	0.645	-0.045
Mof_O 	O 	0.1445	0.6992	0.8524	-0.09
Mof_O 	O 	0.1967	0.7749	0.823	-0.06
Mof_O 	O 	0.3495	0.661	0.5802	-0.04
Mof_O 	O 	0.3802	0.6532	0.6906	-0.038
Mof_O 	O 	0.2083	0.7285	0.8699	-0.053
Mof_O 	O 	0.1308	0.7446	0.8072	-0.096
Mof_O 	O 	0.5575	0.1573	0.9311	-0.638
Mof_C 	C 	0.5952	0.1393	0.887	0.547
Mof_O 	O 	0.6058	0.0877	0.8706	-0.798
Mof_C 	C 	0.6271	0.1839	0.8442	-0.122
Mof_C 	C 	0.6284	0.2418	0.8651	-0.007
Mof_C 	C 	0.6591	0.16568	0.7852	-0.001
Mof_H 	H 	0.6065	0.2543	0.9054	0.092
Mof_C 	C 	0.6616	0.28158	0.8268	0.085
Mof_C 	C 	0.6924	0.2054	0.7469	0.065
Mof_H 	H 	0.6583	0.1261	0.7709	0.03
Mof_C 	C 	0.6937	0.2634	0.7678	0.019
Mof_N 	N 	0.6586	0.3411	0.8553	0.009
Mof_N 	N 	0.7241	0.1798	0.6854	0.033
Mof_O 	O 	0.6125	0.3604	0.8767	-0.038
Mof_O 	O 	0.7059	0.3676	0.855	-0.043
Mof_O 	O 	0.6992	0.1445	0.6476	-0.094
Mof_O 	O 	0.7749	0.1967	0.677	-0.061
Mof_O 	O 	0.661	0.3495	0.9198	-0.032
Mof_O 	O 	0.6532	0.3802	0.8094	-0.037
Mof_O 	O 	0.7285	0.2083	0.6301	-0.058
Mof_O 	O 	0.7446	0.1308	0.6928	-0.096
Mof_O 	O 	0.4425	0.8427	0.9311	-0.626
Mof_C 	C 	0.4048	0.8607	0.887	0.52
Mof_O 	O 	0.3942	0.9123	0.8706	-0.683
Mof_C 	C 	0.3729	0.8161	0.8442	-0.078
Mof_C 	C 	0.3716	0.7582	0.8651	-0.026
Mof_C 	C 	0.3409	0.83432	0.7852	-0.026
Mof_H 	H 	0.3935	0.7457	0.9054	0.1
Mof_C 	C 	0.3384	0.71842	0.8268	0.099
Mof_C 	C 	0.3076	0.7946	0.7469	0.096
Mof_H 	H 	0.3417	0.8739	0.7709	0.089
Mof_C 	C 	0.3063	0.7366	0.7678	0.004
Mof_N 	N 	0.3414	0.6589	0.8553	0.01
Mof_N 	N 	0.2759	0.8202	0.6854	0.013
Mof_O 	O 	0.3875	0.6396	0.8767	-0.038
Mof_O 	O 	0.2941	0.6324	0.855	-0.055
Mof_O 	O 	0.3008	0.8555	0.6476	-0.036
Mof_O 	O 	0.2251	0.8033	0.677	-0.064
Mof_O 	O 	0.339	0.6505	0.9198	-0.038
Mof_O 	O 	0.3468	0.6198	0.8094	-0.04
Mof_O 	O 	0.2715	0.7917	0.6301	-0.047
Mof_O 	O 	0.2554	0.8692	0.6928	-0.044
Mof_O 	O 	0.1573	0.4425	0.4311	-0.649
Mof_C 	C 	0.1393	0.4048	0.387	0.547
Mof_O 	O 	0.0877	0.3942	0.3706	-0.814
Mof_C 	C 	0.1839	0.3729	0.3442	-0.133
Mof_C 	C 	0.2418	0.3716	0.3651	-0.006
Mof_C 	C 	0.16568	0.3409	0.2852	0.002
Mof_H 	H 	0.2543	0.3935	0.4054	0.086
Mof_C 	C 	0.28158	0.3384	0.3268	0.08
Mof_C 	C 	0.2054	0.3076	0.2469	0.055
Mof_H 	H 	0.1261	0.3417	0.2709	0.02
Mof_C 	C 	0.2634	0.3063	0.2678	0.018
Mof_N 	N 	0.3411	0.3414	0.3553	0.015
Mof_N 	N 	0.1798	0.2759	0.1854	0.049
Mof_O 	O 	0.3604	0.3875	0.3767	-0.042
Mof_O 	O 	0.3676	0.2941	0.355	-0.059
Mof_O 	O 	0.1445	0.3008	0.1476	-0.11
Mof_O 	O 	0.1967	0.2251	0.177	-0.102
Mof_O 	O 	0.3495	0.339	0.4198	-0.048
Mof_O 	O 	0.3802	0.3468	0.3094	-0.042
Mof_O 	O 	0.2083	0.2715	0.1301	-0.075
Mof_O 	O 	0.1308	0.2554	0.1928	-0.138
Mof_O 	O 	0.8427	0.5575	0.4311	-0.634
Mof_C 	C 	0.8607	0.5952	0.387	0.521
Mof_O 	O 	0.9123	0.6058	0.3706	-0.678
Mof_C 	C 	0.8161	0.6271	0.3442	-0.076
Mof_C 	C 	0.7582	0.6284	0.3651	-0.024
Mof_C 	C 	0.83432	0.6591	0.2852	-0.025
Mof_H 	H 	0.7457	0.6065	0.4054	0.097
Mof_C 	C 	0.71842	0.6616	0.3268	0.098
Mof_C 	C 	0.7946	0.6924	0.2469	0.1
Mof_H 	H 	0.8739	0.6583	0.2709	0.094
Mof_C 	C 	0.7366	0.6937	0.2678	0.006
Mof_N 	N 	0.6589	0.6586	0.3553	0.009
Mof_N 	N 	0.8202	0.7241	0.1854	0.001
Mof_O 	O 	0.6396	0.6125	0.3767	-0.04
Mof_O 	O 	0.6324	0.7059	0.355	-0.044
Mof_O 	O 	0.8555	0.6992	0.1476	-0.029
Mof_O 	O 	0.8033	0.7749	0.177	-0.029
Mof_O 	O 	0.6505	0.661	0.4198	-0.037
Mof_O 	O 	0.6198	0.6532	0.3094	-0.038
Mof_O 	O 	0.7917	0.7285	0.1301	-0.038
Mof_O 	O 	0.8692	0.7446	0.1928	-0.01
Mof_O 	O 	0.5575	0.8427	0.9311	-0.625
Mof_C 	C 	0.5952	0.8607	0.887	0.521
Mof_O 	O 	0.6058	0.9123	0.8706	-0.673
Mof_C 	C 	0.6271	0.8161	0.8442	-0.072
Mof_C 	C 	0.6284	0.7582	0.8651	-0.026
Mof_C 	C 	0.6591	0.83432	0.7852	-0.027
Mof_H 	H 	0.6065	0.7457	0.9054	0.101
Mof_C 	C 	0.6616	0.71842	0.8268	0.101
Mof_C 	C 	0.6924	0.7946	0.7469	0.103
Mof_H 	H 	0.6583	0.8739	0.7709	0.096
Mof_C 	C 	0.6937	0.7366	0.7678	0.005
Mof_N 	N 	0.6586	0.6589	0.8553	0.006
Mof_N 	N 	0.7241	0.8202	0.6854	-0.001
Mof_O 	O 	0.6125	0.6396	0.8767	-0.037
Mof_O 	O 	0.7059	0.6324	0.855	-0.042
Mof_O 	O 	0.6992	0.8555	0.6476	-0.024
Mof_O 	O 	0.7749	0.8033	0.677	-0.026
Mof_O 	O 	0.661	0.6505	0.9198	-0.03
Mof_O 	O 	0.6532	0.6198	0.8094	-0.037
Mof_O 	O 	0.7285	0.7917	0.6301	-0.033
Mof_O 	O 	0.7446	0.8692	0.6928	-0.006
Mof_O 	O 	0.4425	0.1573	0.9311	-0.639
Mof_C 	C 	0.4048	0.1393	0.887	0.546
Mof_O 	O 	0.3942	0.0877	0.8706	-0.807
Mof_C 	C 	0.3729	0.1839	0.8442	-0.128
Mof_C 	C 	0.3716	0.2418	0.8651	-0.007
Mof_C 	C 	0.3409	0.16568	0.7852	0
Mof_H 	H 	0.3935	0.2543	0.9054	0.09
Mof_C 	C 	0.3384	0.28158	0.8268	0.083
Mof_C 	C 	0.3076	0.2054	0.7469	0.058
Mof_H 	H 	0.3417	0.1261	0.7709	0.023
Mof_C 	C 	0.3063	0.2634	0.7678	0.017
Mof_N 	N 	0.3414	0.3411	0.8553	0.012
Mof_N 	N 	0.2759	0.1798	0.6854	0.047
Mof_O 	O 	0.3875	0.3604	0.8767	-0.039
Mof_O 	O 	0.2941	0.3676	0.855	-0.056
Mof_O 	O 	0.3008	0.1445	0.6476	-0.106
Mof_O 	O 	0.2251	0.1967	0.677	-0.099
Mof_O 	O 	0.339	0.3495	0.9198	-0.04
Mof_O 	O 	0.3468	0.3802	0.8094	-0.04
Mof_O 	O 	0.2715	0.2083	0.6301	-0.072
Mof_O 	O 	0.2554	0.1308	0.6928	-0.134
Mof_O 	O 	0.1573	0.5575	0.4311	-0.648
Mof_C 	C 	0.1393	0.5952	0.387	0.548
Mof_O 	O 	0.0877	0.6058	0.3706	-0.805
Mof_C 	C 	0.1839	0.6271	0.3442	-0.127
Mof_C 	C 	0.2418	0.6284	0.3651	-0.006
Mof_C 	C 	0.16568	0.6591	0.2852	0.001
Mof_H 	H 	0.2543	0.6065	0.4054	0.087
Mof_C 	C 	0.28158	0.6616	0.3268	0.082
Mof_C 	C 	0.2054	0.6924	0.2469	0.062
Mof_H 	H 	0.1261	0.6583	0.2709	0.028
Mof_C 	C 	0.2634	0.6937	0.2678	0.02
Mof_N 	N 	0.3411	0.6586	0.3553	0.011
Mof_N 	N 	0.1798	0.7241	0.1854	0.035
Mof_O 	O 	0.3604	0.6125	0.3767	-0.041
Mof_O 	O 	0.3676	0.7059	0.355	-0.045
Mof_O 	O 	0.1445	0.6992	0.1476	-0.099
Mof_O 	O 	0.1967	0.7749	0.177	-0.065
Mof_O 	O 	0.3495	0.661	0.4198	-0.04
Mof_O 	O 	0.3802	0.6532	0.3094	-0.039
Mof_O 	O 	0.2083	0.7285	0.1301	-0.062
Mof_O 	O 	0.1308	0.7446	0.1928	-0.1
Mof_O 	O 	0.8427	0.4425	0.4311	-0.636
Mof_C 	C 	0.8607	0.4048	0.387	0.521
Mof_O 	O 	0.9123	0.3942	0.3706	-0.688
Mof_C 	C 	0.8161	0.3729	0.3442	-0.082
Mof_C 	C 	0.7582	0.3716	0.3651	-0.024
Mof_C 	C 	0.83432	0.3409	0.2852	-0.025
Mof_H 	H 	0.7457	0.3935	0.4054	0.095
Mof_C 	C 	0.71842	0.3384	0.3268	0.096
Mof_C 	C 	0.7946	0.3076	0.2469	0.093
Mof_H 	H 	0.8739	0.3417	0.2709	0.087
Mof_C 	C 	0.7366	0.3063	0.2678	0.005
Mof_N 	N 	0.6589	0.3414	0.3553	0.012
Mof_N 	N 	0.8202	0.2759	0.1854	0.016
Mof_O 	O 	0.6396	0.3875	0.3767	-0.041
Mof_O 	O 	0.6324	0.2941	0.355	-0.058
Mof_O 	O 	0.8555	0.3008	0.1476	-0.041
Mof_O 	O 	0.8033	0.2251	0.177	-0.066
Mof_O 	O 	0.6505	0.339	0.4198	-0.045
Mof_O 	O 	0.6198	0.3468	0.3094	-0.041
Mof_O 	O 	0.7917	0.2715	0.1301	-0.052
Mof_O 	O 	0.8692	0.2554	0.1928	-0.047
Mof_O 	O 	0.4425	0.8427	0.0689	-0.643
Mof_C 	C 	0.4048	0.8607	0.113	0.522
Mof_O 	O 	0.3942	0.9123	0.1294	-0.69
Mof_C 	C 	0.3729	0.8161	0.1558	-0.085
Mof_C 	C 	0.3716	0.7582	0.1349	-0.023
Mof_C 	C 	0.3409	0.83432	0.2148	-0.024
Mof_H 	H 	0.3935	0.7457	0.0946	0.091
Mof_C 	C 	0.3384	0.71842	0.1732	0.093
Mof_C 	C 	0.3076	0.7946	0.2531	0.093
Mof_H 	H 	0.3417	0.8739	0.2291	0.086
Mof_C 	C 	0.3063	0.7366	0.2322	0.006
Mof_N 	N 	0.3414	0.6589	0.1447	0.015
Mof_N 	N 	0.2759	0.8202	0.3146	0.014
Mof_O 	O 	0.3875	0.6396	0.1233	-0.045
Mof_O 	O 	0.2941	0.6324	0.145	-0.061
Mof_O 	O 	0.3008	0.8555	0.3524	-0.037
Mof_O 	O 	0.2251	0.8033	0.323	-0.065
Mof_O 	O 	0.339	0.6505	0.0802	-0.053
Mof_O 	O 	0.3468	0.6198	0.1906	-0.042
Mof_O 	O 	0.2715	0.7917	0.3699	-0.047
Mof_O 	O 	0.2554	0.8692	0.3072	-0.047
Mof_O 	O 	0.5575	0.1573	0.0689	-0.654
Mof_C 	C 	0.5952	0.1393	0.113	0.548
Mof_O 	O 	0.6058	0.0877	0.1294	-0.805
Mof_C 	C 	0.6271	0.1839	0.1558	-0.129
Mof_C 	C 	0.6284	0.2418	0.1349	-0.004
Mof_C 	C 	0.6591	0.16568	0.2148	0.001
Mof_H 	H 	0.6065	0.2543	0.0946	0.083
Mof_C 	C 	0.6616	0.28158	0.1732	0.08
Mof_C 	C 	0.6924	0.2054	0.2531	0.062
Mof_H 	H 	0.6583	0.1261	0.2291	0.028
Mof_C 	C 	0.6937	0.2634	0.2322	0.021
Mof_N 	N 	0.6586	0.3411	0.1447	0.013
Mof_N 	N 	0.7241	0.1798	0.3146	0.033
Mof_O 	O 	0.6125	0.3604	0.1233	-0.044
Mof_O 	O 	0.7059	0.3676	0.145	-0.049
Mof_O 	O 	0.6992	0.1445	0.3524	-0.094
Mof_O 	O 	0.7749	0.1967	0.323	-0.062
Mof_O 	O 	0.661	0.3495	0.0802	-0.047
Mof_O 	O 	0.6532	0.3802	0.1906	-0.04
Mof_O 	O 	0.7285	0.2083	0.3699	-0.058
Mof_O 	O 	0.7446	0.1308	0.3072	-0.099
Mof_O 	O 	0.8427	0.5575	0.5689	-0.634
Mof_C 	C 	0.8607	0.5952	0.613	0.521
Mof_O 	O 	0.9123	0.6058	0.6294	-0.677
Mof_C 	C 	0.8161	0.6271	0.6558	-0.075
Mof_C 	C 	0.7582	0.6284	0.6349	-0.025
Mof_C 	C 	0.83432	0.6591	0.7148	-0.026
Mof_H 	H 	0.7457	0.6065	0.5946	0.097
Mof_C 	C 	0.71842	0.6616	0.6732	0.099
Mof_C 	C 	0.7946	0.6924	0.7531	0.103
Mof_H 	H 	0.8739	0.6583	0.7291	0.097
Mof_C 	C 	0.7366	0.6937	0.7322	0.006
Mof_N 	N 	0.6589	0.6586	0.6447	0.008
Mof_N 	N 	0.8202	0.7241	0.8146	-0.003
Mof_O 	O 	0.6396	0.6125	0.6233	-0.04
Mof_O 	O 	0.6324	0.7059	0.645	-0.044
Mof_O 	O 	0.8555	0.6992	0.8524	-0.021
Mof_O 	O 	0.8033	0.7749	0.823	-0.024
Mof_O 	O 	0.6505	0.661	0.5802	-0.037
Mof_O 	O 	0.6198	0.6532	0.6906	-0.038
Mof_O 	O 	0.7917	0.7285	0.8699	-0.029
Mof_O 	O 	0.8692	0.7446	0.8072	-0.005
Mof_O 	O 	0.1573	0.4425	0.5689	-0.649
Mof_C 	C 	0.1393	0.4048	0.613	0.547
Mof_O 	O 	0.0877	0.3942	0.6294	-0.813
Mof_C 	C 	0.1839	0.3729	0.6558	-0.132
Mof_C 	C 	0.2418	0.3716	0.6349	-0.006
Mof_C 	C 	0.16568	0.3409	0.7148	0.001
Mof_H 	H 	0.2543	0.3935	0.5946	0.086
Mof_C 	C 	0.28158	0.3384	0.6732	0.08
Mof_C 	C 	0.2054	0.3076	0.7531	0.057
Mof_H 	H 	0.1261	0.3417	0.7291	0.022
Mof_C 	C 	0.2634	0.3063	0.7322	0.018
Mof_N 	N 	0.3411	0.3414	0.6447	0.015
Mof_N 	N 	0.1798	0.2759	0.8146	0.046
Mof_O 	O 	0.3604	0.3875	0.6233	-0.042
Mof_O 	O 	0.3676	0.2941	0.645	-0.059
Mof_O 	O 	0.1445	0.3008	0.8524	-0.102
Mof_O 	O 	0.1967	0.2251	0.823	-0.097
Mof_O 	O 	0.3495	0.339	0.5802	-0.048
Mof_O 	O 	0.3802	0.3468	0.6906	-0.041
Mof_O 	O 	0.2083	0.2715	0.8699	-0.067
Mof_O 	O 	0.1308	0.2554	0.8072	-0.133
Mof_Zr	Zr	0.5	0.1067	-0	3.218
Mof_Zr	Zr	0.5	0.8933	-0	3.216
Mof_Zr	Zr	0.8933	0.5	0.5	3.218
Mof_Zr	Zr	0.1067	0.5	0.5	3.22
Mof_O 	O 	0.5	0.052	0.092	-1.432
Mof_O 	O 	0.5	0.948	0.092	-1.254
Mof_O 	O 	0.948	0.5	0.592	-1.251
Mof_O 	O 	0.052	0.5	0.592	-1.432
Mof_O 	O 	0.5	0.052	0.908	-1.422
Mof_O 	O 	0.5	0.948	0.908	-1.244
Mof_O 	O 	0.052	0.5	0.408	-1.433
Mof_O 	O 	0.948	0.5	0.408	-1.252
Mof_O 	O 	0.4225	0.053	-0	-1.426
Mof_O 	O 	0.5775	0.947	-0	-1.248
Mof_O 	O 	0.947	0.4225	0.5	-1.239
Mof_O 	O 	0.053	0.5775	0.5	-1.41
Mof_O 	O 	0.5775	0.053	-0	-1.42
Mof_O 	O 	0.4225	0.947	-0	-1.255
Mof_O 	O 	0.053	0.4225	0.5	-1.417
Mof_O 	O 	0.947	0.5775	0.5	-1.232
Mof_Zr	Zr	0.42387	0	0.09248	3.151
Mof_Zr	Zr	0.57613	0	0.09248	3.152
Mof_Zr	Zr	1.79927e-33	0.42387	0.59248	3.15
Mof_Zr	Zr	1.79927e-33	0.57613	0.59248	3.151
Mof_Zr	Zr	0.57613	-5.10713e-33	0.90752	3.154
Mof_Zr	Zr	0.42387	-5.10713e-33	0.90752	3.153
Mof_Zr	Zr	-6.42313e-33	0.42387	0.40752	3.15
Mof_Zr	Zr	3.79114e-33	0.57613	0.40752	3.151
_end
