data_functionalizedCrystal
_audit_creation_method	'EQeq! by Chris Wilmer'
_symmetry_space_group_name_H-M	'P1'
_symmetry_Int_Tables_number	1
_symmetry_cell_setting	triclinic
loop_
_symmetry_equiv_pos_as_xyz
  x,y,z
_cell_length_a	30.8454
_cell_length_b	30.8454
_cell_length_c	30.8454
_cell_angle_alpha	60
_cell_angle_beta	60
_cell_angle_gamma	60
loop_
_atom_site_label
_atom_site_type_symbol
_atom_site_fract_x
_atom_site_fract_y
_atom_site_fract_z
_atom_site_charge
Mof_Zn	Zn	0.70059	0.29941	0.70059	1.19
Mof_Zn	Zn	0.6601	0.0197	0.6601	1.186
Mof_Zn	Zn	0.6601	0.6601	0.6601	1.186
Mof_Zn	Zn	0.76872	0.23128	0.76872	1.197
Mof_Zn	Zn	0.3399	0.9803	0.3399	1.186
Mof_Zn	Zn	0.61336	0.61336	0.15992	1.195
Mof_Zn	Zn	0.23128	0.76872	0.23128	1.197
Mof_Zn	Zn	0.61336	0.61336	0.61336	1.195
Mof_Zn	Zn	0.38664	0.38664	0.38664	1.195
Mof_Zn	Zn	0.23128	0.23128	0.76872	1.197
Mof_Zn	Zn	0.70059	0.29941	0.29941	1.19
Mof_Zn	Zn	0.29941	0.29941	0.70059	1.19
Mof_Zn	Zn	0.70059	0.70059	0.29941	1.19
Mof_Zn	Zn	0.6601	0.6601	0.0197	1.186
Mof_Zn	Zn	0.3399	0.3399	0.9803	1.186
Mof_Zn	Zn	0.84008	0.38664	0.38664	1.195
Mof_Zn	Zn	0.61336	0.15992	0.61336	1.195
Mof_Zn	Zn	0.29941	0.70059	0.29941	1.19
Mof_Zn	Zn	0.38664	0.38664	0.84008	1.194
Mof_Zn	Zn	0.15992	0.61336	0.61336	1.194
Mof_Zn	Zn	0.3399	0.3399	0.3399	1.185
Mof_Zn	Zn	0.29941	0.70059	0.70059	1.189
Mof_Zn	Zn	0.23128	0.76872	0.76872	1.196
Mof_Zn	Zn	0.76872	0.23128	0.23128	1.196
Mof_Zn	Zn	0.76872	0.76872	0.23128	1.196
Mof_Zn	Zn	0.38664	0.84008	0.38664	1.194
Mof_Zn	Zn	0.0197	0.6601	0.6601	1.185
Mof_Zn	Zn	0.9803	0.3399	0.3399	1.185
Mof_H 	H 	0.156	0.6344	0.2084	-0.031
Mof_H 	H 	0.7306	0.9173	0.9173	0.186
Mof_H 	H 	0.96	0.9078	0.3802	0.186
Mof_H 	H 	0.7916	0.3656	0.844	-0.031
Mof_H 	H 	0.6888	0.6888	0.1722	0.016
Mof_H 	H 	0.0817	0.3549	0.7817	0.062
Mof_H 	H 	0.5498	0.8278	0.3112	0.016
Mof_H 	H 	0.9173	0.4348	0.7306	0.186
Mof_H 	H 	0.6344	0.2084	0.156	-0.031
Mof_H 	H 	0.3112	0.8278	0.3112	0.016
Mof_H 	H 	0.0101	0.7385	0.5129	0.052
Mof_H 	H 	0.04	0.248	0.6198	0.186
Mof_H 	H 	0.9078	0.752	0.3802	0.186
Mof_H 	H 	0.6888	0.6888	0.4502	0.016
Mof_H 	H 	0.248	0.6198	0.04	0.186
Mof_H 	H 	0.7817	0.0817	0.3549	0.062
Mof_H 	H 	0.6888	0.1722	0.6888	0.016
Mof_H 	H 	0.0827	0.0827	0.5652	0.186
Mof_H 	H 	0.2183	0.9183	0.2183	0.061
Mof_H 	H 	0.7385	0.0101	0.5129	0.052
Mof_H 	H 	0.0827	0.2694	0.0827	0.186
Mof_H 	H 	0.2615	0.4871	0.2615	0.052
Mof_H 	H 	0.9173	0.9173	0.4348	0.186
Mof_H 	H 	0.3549	0.7817	0.0817	0.062
Mof_H 	H 	0.7916	0.844	0.3656	-0.031
Mof_H 	H 	0.4348	0.9173	0.9173	0.186
Mof_H 	H 	0.96	0.752	0.9078	0.186
Mof_H 	H 	0.9183	0.6451	0.2183	0.062
Mof_H 	H 	0.3112	0.3112	0.5498	0.016
Mof_H 	H 	0.7916	0.3656	0.9988	-0.031
Mof_H 	H 	0.9988	0.7916	0.844	-0.03
Mof_H 	H 	0.0827	0.5652	0.0827	0.186
Mof_H 	H 	0.3656	0.9988	0.844	-0.031
Mof_H 	H 	0.9173	0.7306	0.4348	0.186
Mof_H 	H 	0.5652	0.0827	0.2694	0.186
Mof_H 	H 	0.9078	0.96	0.752	0.186
Mof_H 	H 	0.2615	0.9899	0.2615	0.052
Mof_H 	H 	0.3656	0.844	0.9988	-0.031
Mof_H 	H 	0.6198	0.248	0.04	0.186
Mof_H 	H 	0.04	0.248	0.0922	0.186
Mof_H 	H 	0.844	0.7916	0.3656	-0.031
Mof_H 	H 	0.4871	0.9899	0.2615	0.052
Mof_H 	H 	0.3802	0.752	0.96	0.186
Mof_H 	H 	0.9173	0.9173	0.7306	0.186
Mof_H 	H 	0.7306	0.9173	0.4348	0.186
Mof_H 	H 	0.3802	0.96	0.9078	0.186
Mof_H 	H 	0.2084	0.0012	0.156	-0.03
Mof_H 	H 	0.2694	0.5652	0.0827	0.186
Mof_H 	H 	0.2084	0.6344	0.0012	-0.031
Mof_H 	H 	0.2615	0.2615	0.4871	0.052
Mof_H 	H 	0.3802	0.9078	0.752	0.186
Mof_H 	H 	0.6344	0.0012	0.2084	-0.031
Mof_H 	H 	0.0012	0.156	0.6344	-0.031
Mof_H 	H 	0.7385	0.5129	0.7385	0.052
Mof_H 	H 	0.3802	0.752	0.9078	0.186
Mof_H 	H 	0.0817	0.7817	0.3549	0.062
Mof_H 	H 	0.2183	0.6451	0.2183	0.062
Mof_H 	H 	0.0922	0.248	0.04	0.186
Mof_H 	H 	0.7385	0.7385	0.5129	0.052
Mof_H 	H 	0.6198	0.04	0.0922	0.186
Mof_H 	H 	0.6198	0.04	0.248	0.186
Mof_H 	H 	0.156	0.2084	0.6344	-0.031
Mof_H 	H 	0.3112	0.3112	0.8278	0.016
Mof_H 	H 	0.2694	0.0827	0.0827	0.186
Mof_H 	H 	0.2084	0.0012	0.6344	-0.031
Mof_H 	H 	0.9988	0.3656	0.844	-0.031
Mof_H 	H 	0.9173	0.4348	0.9173	0.186
Mof_H 	H 	0.248	0.6198	0.0922	0.186
Mof_H 	H 	0.7916	0.844	0.9988	-0.03
Mof_H 	H 	0.4502	0.1722	0.6888	0.016
Mof_H 	H 	0.156	0.6344	0.0012	-0.031
Mof_H 	H 	0.5129	0.7385	0.0101	0.052
Mof_H 	H 	0.2183	0.2183	0.6451	0.062
Mof_H 	H 	0.752	0.96	0.3802	0.186
Mof_H 	H 	0.0827	0.0827	0.2694	0.186
Mof_H 	H 	0.844	0.9988	0.7916	-0.03
Mof_H 	H 	0.248	0.0922	0.6198	0.186
Mof_H 	H 	0.9078	0.3802	0.752	0.186
Mof_H 	H 	0.04	0.6198	0.248	0.186
Mof_H 	H 	0.6888	0.4502	0.6888	0.016
Mof_H 	H 	0.2615	0.2615	0.9899	0.052
Mof_H 	H 	0.7916	0.9988	0.844	-0.03
Mof_H 	H 	0.3802	0.96	0.752	0.186
Mof_H 	H 	0.96	0.3802	0.752	0.186
Mof_H 	H 	0.1722	0.6888	0.6888	0.016
Mof_H 	H 	0.7817	0.0817	0.7817	0.061
Mof_H 	H 	0.2183	0.6451	0.9183	0.062
Mof_H 	H 	0.248	0.0922	0.04	0.186
Mof_H 	H 	0.5498	0.3112	0.8278	0.016
Mof_H 	H 	0.9183	0.2183	0.6451	0.062
Mof_H 	H 	0.1722	0.4502	0.6888	0.016
Mof_H 	H 	0.0101	0.7385	0.7385	0.052
Mof_H 	H 	0.9988	0.844	0.7916	-0.03
Mof_H 	H 	0.0922	0.04	0.6198	0.186
Mof_H 	H 	0.752	0.96	0.9078	0.186
Mof_H 	H 	0.2084	0.156	0.6344	-0.031
Mof_H 	H 	0.2084	0.156	0.0012	-0.03
Mof_H 	H 	0.844	0.3656	0.9988	-0.031
Mof_H 	H 	0.3656	0.7916	0.9988	-0.031
Mof_H 	H 	0.9899	0.2615	0.4871	0.052
Mof_H 	H 	0.7817	0.7817	0.0817	0.061
Mof_H 	H 	0.5652	0.0827	0.0827	0.186
Mof_H 	H 	0.0012	0.156	0.2084	-0.03
Mof_H 	H 	0.7385	0.5129	0.0101	0.052
Mof_H 	H 	0.752	0.9078	0.3802	0.186
Mof_H 	H 	0.844	0.9988	0.3656	-0.031
Mof_H 	H 	0.3112	0.5498	0.8278	0.016
Mof_H 	H 	0.7916	0.9988	0.3656	-0.031
Mof_H 	H 	0.156	0.0012	0.6344	-0.031
Mof_H 	H 	0.0012	0.6344	0.2084	-0.031
Mof_H 	H 	0.9988	0.7916	0.3656	-0.031
Mof_H 	H 	0.3802	0.9078	0.96	0.186
Mof_H 	H 	0.0827	0.2694	0.5652	0.186
Mof_H 	H 	0.4871	0.2615	0.2615	0.052
Mof_H 	H 	0.0817	0.7817	0.7817	0.061
Mof_H 	H 	0.4871	0.2615	0.9899	0.052
Mof_H 	H 	0.9078	0.96	0.3802	0.186
Mof_H 	H 	0.4348	0.9173	0.7306	0.186
Mof_H 	H 	0.3656	0.7916	0.844	-0.031
Mof_H 	H 	0.8278	0.5498	0.3112	0.016
Mof_H 	H 	0.3549	0.0817	0.7817	0.062
Mof_H 	H 	0.6451	0.9183	0.2183	0.062
Mof_H 	H 	0.5129	0.7385	0.7385	0.052
Mof_H 	H 	0.0827	0.5652	0.2694	0.186
Mof_H 	H 	0.9988	0.844	0.3656	-0.031
Mof_H 	H 	0.752	0.3802	0.9078	0.186
Mof_H 	H 	0.2084	0.6344	0.156	-0.031
Mof_H 	H 	0.4502	0.6888	0.1722	0.016
Mof_H 	H 	0.3549	0.7817	0.7817	0.062
Mof_H 	H 	0.2615	0.9899	0.4871	0.052
Mof_H 	H 	0.9899	0.4871	0.2615	0.052
Mof_H 	H 	0.248	0.04	0.6198	0.186
Mof_H 	H 	0.0012	0.2084	0.6344	-0.031
Mof_H 	H 	0.4502	0.6888	0.6888	0.016
Mof_H 	H 	0.8278	0.3112	0.5498	0.016
Mof_H 	H 	0.2183	0.2183	0.9183	0.061
Mof_H 	H 	0.5129	0.0101	0.7385	0.052
Mof_H 	H 	0.7385	0.7385	0.0101	0.052
Mof_H 	H 	0.9173	0.7306	0.9173	0.186
Mof_H 	H 	0.96	0.3802	0.9078	0.186
Mof_H 	H 	0.6344	0.0012	0.156	-0.031
Mof_H 	H 	0.9183	0.2183	0.2183	0.061
Mof_H 	H 	0.6198	0.0922	0.248	0.186
Mof_H 	H 	0.6451	0.2183	0.9183	0.062
Mof_H 	H 	0.752	0.3802	0.96	0.186
Mof_H 	H 	0.2694	0.0827	0.5652	0.186
Mof_H 	H 	0.5652	0.2694	0.0827	0.186
Mof_H 	H 	0.3112	0.8278	0.5498	0.016
Mof_H 	H 	0.04	0.6198	0.0922	0.186
Mof_H 	H 	0.5498	0.3112	0.3112	0.016
Mof_H 	H 	0.6888	0.4502	0.1722	0.016
Mof_H 	H 	0.0922	0.248	0.6198	0.186
Mof_H 	H 	0.248	0.04	0.0922	0.186
Mof_H 	H 	0.844	0.7916	0.9988	-0.03
Mof_H 	H 	0.3656	0.9988	0.7916	-0.031
Mof_H 	H 	0.156	0.2084	0.0012	-0.03
Mof_H 	H 	0.1722	0.6888	0.4502	0.016
Mof_H 	H 	0.9078	0.3802	0.96	0.186
Mof_H 	H 	0.6198	0.0922	0.04	0.186
Mof_H 	H 	0.7817	0.7817	0.3549	0.062
Mof_H 	H 	0.7306	0.4348	0.9173	0.186
Mof_H 	H 	0.2183	0.9183	0.6451	0.062
Mof_H 	H 	0.8278	0.3112	0.3112	0.016
Mof_H 	H 	0.0012	0.2084	0.156	-0.03
Mof_H 	H 	0.0101	0.5129	0.7385	0.052
Mof_H 	H 	0.0922	0.6198	0.04	0.186
Mof_H 	H 	0.6344	0.156	0.2084	-0.031
Mof_H 	H 	0.844	0.3656	0.7916	-0.031
Mof_H 	H 	0.3656	0.844	0.7916	-0.031
Mof_H 	H 	0.04	0.0922	0.248	0.186
Mof_H 	H 	0.4348	0.7306	0.9173	0.186
Mof_H 	H 	0.7817	0.3549	0.7817	0.062
Mof_H 	H 	0.7385	0.0101	0.7385	0.052
Mof_H 	H 	0.6888	0.1722	0.4502	0.016
Mof_H 	H 	0.0922	0.04	0.248	0.186
Mof_H 	H 	0.0012	0.6344	0.156	-0.031
Mof_H 	H 	0.156	0.0012	0.2084	-0.03
Mof_H 	H 	0.96	0.752	0.3802	0.186
Mof_H 	H 	0.6344	0.156	0.0012	-0.031
Mof_H 	H 	0.96	0.9078	0.752	0.186
Mof_H 	H 	0.6198	0.248	0.0922	0.186
Mof_H 	H 	0.3112	0.5498	0.3112	0.016
Mof_H 	H 	0.9078	0.752	0.96	0.186
Mof_H 	H 	0.6451	0.2183	0.2183	0.062
Mof_H 	H 	0.752	0.9078	0.96	0.186
Mof_H 	H 	0.6344	0.2084	0.0012	-0.031
Mof_H 	H 	0.7817	0.3549	0.0817	0.062
Mof_H 	H 	0.0922	0.6198	0.248	0.186
Mof_H 	H 	0.9899	0.2615	0.2615	0.052
Mof_H 	H 	0.04	0.0922	0.6198	0.186
Mof_H 	H 	0.9988	0.3656	0.7916	-0.031
Mof_H 	H 	0.2615	0.4871	0.9899	0.052
Mof_C 	C 	0.8398	0.8398	0.4028	-0.193
Mof_C 	C 	0.1602	0.5972	0.0824	-0.193
Mof_C 	C 	0.9221	0.9221	0.7569	-0.554
Mof_C 	C 	0.5972	0.1602	0.0824	-0.193
Mof_C 	C 	0.0171	0.1845	0.6139	0.168
Mof_C 	C 	0.2644	0.6512	0.2644	0.416
Mof_C 	C 	0.2923	0.8621	0.2923	0.067
Mof_C 	C 	0.6011	0.0779	0.2431	-0.554
Mof_C 	C 	0.7636	0.4328	0.04	0.126
Mof_C 	C 	0.2644	0.2644	0.6512	0.416
Mof_C 	C 	0.9157	0.2369	0.2369	-0.071
Mof_C 	C 	0.5167	0.2627	0.2627	-0.046
Mof_C 	C 	0.1845	0.0171	0.1845	0.167
Mof_C 	C 	0.2369	0.6105	0.2369	-0.071
Mof_C 	C 	0.3989	0.9221	0.7569	-0.554
Mof_C 	C 	0.1379	0.7077	0.7077	0.067
Mof_C 	C 	0.7636	0.7636	0.4328	0.126
Mof_C 	C 	0.13316	0.7351	0.7351	-0.118
Mof_C 	C 	0.2923	0.5533	0.2923	0.067
Mof_C 	C 	0.13316	0.7351	0.39664	-0.118
Mof_C 	C 	0.9076	0.2924	0.2924	-0.159
Mof_C 	C 	0.0779	0.0779	0.6011	-0.554
Mof_C 	C 	0.2924	0.9076	0.5076	-0.159
Mof_C 	C 	0.7077	0.4467	0.1379	0.067
Mof_C 	C 	0.0779	0.2431	0.0779	-0.554
Mof_C 	C 	0.5972	0.1082	0.1864	0.228
Mof_C 	C 	0.3218	0.3218	0.453	0.564
Mof_C 	C 	0.4467	0.1379	0.7077	0.067
Mof_C 	C 	0.9829	0.8155	0.8155	0.167
Mof_C 	C 	0.0924	0.7076	0.7076	-0.159
Mof_C 	C 	0.5533	0.8621	0.2923	0.067
Mof_C 	C 	0.6782	0.547	0.0966	0.564
Mof_C 	C 	0.0843	0.7631	0.3895	-0.071
Mof_C 	C 	0.2431	0.0779	0.6011	-0.554
Mof_C 	C 	0.7569	0.9221	0.3989	-0.554
Mof_C 	C 	0.7373	0.7373	0.0421	-0.046
Mof_C 	C 	0.9076	0.2924	0.5076	-0.159
Mof_C 	C 	0.5672	0.2364	0.96	0.126
Mof_C 	C 	0.7373	0.4833	0.0421	-0.046
Mof_C 	C 	0.1082	0.5972	0.1082	0.228
Mof_C 	C 	0.2627	0.9579	0.5167	-0.046
Mof_C 	C 	0.6011	0.2431	0.0779	-0.554
Mof_C 	C 	0.7356	0.18	0.7356	0.416
Mof_C 	C 	0.5972	0.1864	0.1082	0.228
Mof_C 	C 	0.6782	0.6782	0.0966	0.564
Mof_C 	C 	0.4028	0.8398	0.8398	-0.193
Mof_C 	C 	0.547	0.6782	0.6782	0.564
Mof_C 	C 	0.9579	0.2627	0.5167	-0.046
Mof_C 	C 	0.1602	0.1602	0.0824	-0.193
Mof_C 	C 	0.1082	0.1864	0.5972	0.228
Mof_C 	C 	0.7631	0.7631	0.0843	-0.071
Mof_C 	C 	0.4924	0.7076	0.7076	-0.159
Mof_C 	C 	0.39664	0.7351	0.7351	-0.118
Mof_C 	C 	0.8155	0.9829	0.8155	0.167
Mof_C 	C 	0.0779	0.6011	0.0779	-0.554
Mof_C 	C 	0.86684	0.60336	0.2649	-0.118
Mof_C 	C 	0.0824	0.1602	0.1602	-0.193
Mof_C 	C 	0.4924	0.7076	0.0924	-0.159
Mof_C 	C 	0.2644	0.82	0.2644	0.416
Mof_C 	C 	0.9579	0.5167	0.2627	-0.046
Mof_C 	C 	0.7636	0.04	0.7636	0.126
Mof_C 	C 	0.82	0.6512	0.2644	0.416
Mof_C 	C 	0.2924	0.9076	0.2924	-0.159
Mof_C 	C 	0.3895	0.0843	0.7631	-0.071
Mof_C 	C 	0.0966	0.6782	0.6782	0.564
Mof_C 	C 	0.2924	0.2924	0.9076	-0.159
Mof_C 	C 	0.1602	0.5972	0.1602	-0.193
Mof_C 	C 	0.4028	0.8918	0.8136	0.228
Mof_C 	C 	0.1602	0.0824	0.5972	-0.193
Mof_C 	C 	0.8155	0.8155	0.9829	0.167
Mof_C 	C 	0.7636	0.4328	0.7636	0.126
Mof_C 	C 	0.18	0.3488	0.7356	0.416
Mof_C 	C 	0.1082	0.1082	0.5972	0.228
Mof_C 	C 	0.7077	0.7077	0.1379	0.067
Mof_C 	C 	0.2369	0.6105	0.9157	-0.071
Mof_C 	C 	0.0779	0.0779	0.2431	-0.554
Mof_C 	C 	0.0824	0.5972	0.1602	-0.193
Mof_C 	C 	0.3861	0.8155	0.9829	0.168
Mof_C 	C 	0.7076	0.0924	0.7076	-0.159
Mof_C 	C 	0.8136	0.4028	0.8918	0.228
Mof_C 	C 	0.7076	0.7076	0.4924	-0.159
Mof_C 	C 	0.13316	0.39664	0.7351	-0.118
Mof_C 	C 	0.7631	0.0843	0.3895	-0.071
Mof_C 	C 	0.4028	0.8918	0.8918	0.228
Mof_C 	C 	0.6139	0.1845	0.0171	0.168
Mof_C 	C 	0.8398	0.4028	0.8398	-0.193
Mof_C 	C 	0.8918	0.8136	0.4028	0.228
Mof_C 	C 	0.8398	0.4028	0.9176	-0.193
Mof_C 	C 	0.60336	0.2649	0.86684	-0.118
Mof_C 	C 	0.6782	0.6782	0.547	0.564
Mof_C 	C 	0.7356	0.3488	0.18	0.416
Mof_C 	C 	0.9221	0.9221	0.3989	-0.554
Mof_C 	C 	0.2364	0.5672	0.96	0.126
Mof_C 	C 	0.0966	0.6782	0.547	0.564
Mof_C 	C 	0.5167	0.2627	0.9579	-0.046
Mof_C 	C 	0.2369	0.9157	0.6105	-0.071
Mof_C 	C 	0.2644	0.6512	0.82	0.416
Mof_C 	C 	0.3218	0.3218	0.9034	0.564
Mof_C 	C 	0.8136	0.8918	0.4028	0.228
Mof_C 	C 	0.0779	0.2431	0.6011	-0.554
Mof_C 	C 	0.1379	0.7077	0.4467	0.067
Mof_C 	C 	0.5533	0.2923	0.2923	0.067
Mof_C 	C 	0.2364	0.5672	0.2364	0.126
Mof_C 	C 	0.8398	0.9176	0.8398	-0.193
Mof_C 	C 	0.96	0.5672	0.2364	0.126
Mof_C 	C 	0.1845	0.0171	0.6139	0.168
Mof_C 	C 	0.9034	0.453	0.3218	0.564
Mof_C 	C 	0.2627	0.5167	0.9579	-0.046
Mof_C 	C 	0.3488	0.7356	0.7356	0.416
Mof_C 	C 	0.7351	0.13316	0.39664	-0.118
Mof_C 	C 	0.8136	0.8918	0.8918	0.228
Mof_C 	C 	0.4028	0.9176	0.8398	-0.193
Mof_C 	C 	0.1602	0.1602	0.5972	-0.193
Mof_C 	C 	0.7356	0.7356	0.18	0.416
Mof_C 	C 	0.8918	0.8918	0.8136	0.228
Mof_C 	C 	0.6139	0.1845	0.1845	0.168
Mof_C 	C 	0.18	0.7356	0.7356	0.416
Mof_C 	C 	0.4328	0.04	0.7636	0.126
Mof_C 	C 	0.2924	0.2924	0.5076	-0.159
Mof_C 	C 	0.3989	0.9221	0.9221	-0.554
Mof_C 	C 	0.7356	0.3488	0.7356	0.416
Mof_C 	C 	0.0421	0.7373	0.4833	-0.046
Mof_C 	C 	0.2627	0.2627	0.5167	-0.046
Mof_C 	C 	0.7351	0.13316	0.7351	-0.118
Mof_C 	C 	0.2649	0.60336	0.86684	-0.118
Mof_C 	C 	0.9221	0.7569	0.9221	-0.554
Mof_C 	C 	0.5672	0.96	0.2364	0.126
Mof_C 	C 	0.453	0.9034	0.3218	0.564
Mof_C 	C 	0.1082	0.1082	0.1864	0.228
Mof_C 	C 	0.6139	0.0171	0.1845	0.168
Mof_C 	C 	0.1845	0.1845	0.6139	0.168
Mof_C 	C 	0.7631	0.0843	0.7631	-0.071
Mof_C 	C 	0.7569	0.3989	0.9221	-0.554
Mof_C 	C 	0.2431	0.0779	0.0779	-0.554
Mof_C 	C 	0.1082	0.1864	0.1082	0.228
Mof_C 	C 	0.5672	0.2364	0.2364	0.126
Mof_C 	C 	0.82	0.2644	0.6512	0.416
Mof_C 	C 	0.4833	0.7373	0.0421	-0.046
Mof_C 	C 	0.7076	0.4924	0.7076	-0.159
Mof_C 	C 	0.2364	0.2364	0.5672	0.126
Mof_C 	C 	0.4467	0.7077	0.7077	0.067
Mof_C 	C 	0.2369	0.2369	0.6105	-0.071
Mof_C 	C 	0.2627	0.2627	0.9579	-0.046
Mof_C 	C 	0.4028	0.8136	0.8918	0.228
Mof_C 	C 	0.2649	0.86684	0.60336	-0.118
Mof_C 	C 	0.1864	0.1082	0.5972	0.228
Mof_C 	C 	0.2649	0.86684	0.2649	-0.118
Mof_C 	C 	0.2369	0.9157	0.2369	-0.071
Mof_C 	C 	0.547	0.0966	0.6782	0.564
Mof_C 	C 	0.3218	0.453	0.9034	0.564
Mof_C 	C 	0.04	0.7636	0.4328	0.126
Mof_C 	C 	0.9034	0.3218	0.3218	0.564
Mof_C 	C 	0.1864	0.5972	0.1082	0.228
Mof_C 	C 	0.2364	0.96	0.5672	0.126
Mof_C 	C 	0.86684	0.2649	0.60336	-0.118
Mof_C 	C 	0.4924	0.0924	0.7076	-0.159
Mof_C 	C 	0.86684	0.2649	0.2649	-0.118
Mof_C 	C 	0.5972	0.0824	0.1602	-0.193
Mof_C 	C 	0.8918	0.8918	0.4028	0.228
Mof_C 	C 	0.9829	0.3861	0.8155	0.168
Mof_C 	C 	0.7631	0.3895	0.7631	-0.071
Mof_C 	C 	0.9034	0.3218	0.453	0.564
Mof_C 	C 	0.9176	0.8398	0.8398	-0.193
Mof_C 	C 	0.6105	0.2369	0.2369	-0.071
Mof_C 	C 	0.0171	0.1845	0.1845	0.167
Mof_C 	C 	0.2649	0.2649	0.60336	-0.118
Mof_C 	C 	0.2627	0.5167	0.2627	-0.046
Mof_C 	C 	0.9221	0.7569	0.3989	-0.554
Mof_C 	C 	0.2364	0.2364	0.96	0.126
Mof_C 	C 	0.8918	0.4028	0.8136	0.228
Mof_C 	C 	0.4833	0.0421	0.7373	-0.046
Mof_C 	C 	0.3218	0.9034	0.3218	0.564
Mof_C 	C 	0.0421	0.4833	0.7373	-0.046
Mof_C 	C 	0.8398	0.8398	0.9176	-0.193
Mof_C 	C 	0.96	0.2364	0.5672	0.126
Mof_C 	C 	0.8155	0.9829	0.3861	0.168
Mof_C 	C 	0.6512	0.2644	0.2644	0.416
Mof_C 	C 	0.9176	0.8398	0.4028	-0.193
Mof_C 	C 	0.3895	0.7631	0.0843	-0.071
Mof_C 	C 	0.7077	0.1379	0.4467	0.067
Mof_C 	C 	0.7351	0.7351	0.13316	-0.118
Mof_C 	C 	0.4467	0.7077	0.1379	0.067
Mof_C 	C 	0.9221	0.3989	0.7569	-0.554
Mof_C 	C 	0.8621	0.2923	0.2923	0.067
Mof_C 	C 	0.5076	0.9076	0.2924	-0.159
Mof_C 	C 	0.9221	0.3989	0.9221	-0.554
Mof_C 	C 	0.7076	0.4924	0.0924	-0.159
Mof_C 	C 	0.9829	0.8155	0.3861	0.168
Mof_C 	C 	0.3861	0.9829	0.8155	0.168
Mof_C 	C 	0.7373	0.0421	0.4833	-0.046
Mof_C 	C 	0.7569	0.9221	0.9221	-0.554
Mof_C 	C 	0.2924	0.5076	0.2924	-0.159
Mof_C 	C 	0.2644	0.82	0.6512	0.416
Mof_C 	C 	0.7373	0.4833	0.7373	-0.046
Mof_C 	C 	0.3218	0.9034	0.453	0.564
Mof_C 	C 	0.2364	0.96	0.2364	0.126
Mof_C 	C 	0.8918	0.8136	0.8918	0.228
Mof_C 	C 	0.0924	0.4924	0.7076	-0.159
Mof_C 	C 	0.8621	0.5533	0.2923	0.067
Mof_C 	C 	0.96	0.2364	0.2364	0.126
Mof_C 	C 	0.6512	0.2644	0.82	0.416
Mof_C 	C 	0.8155	0.3861	0.9829	0.168
Mof_C 	C 	0.1845	0.1845	0.0171	0.167
Mof_C 	C 	0.82	0.2644	0.2644	0.416
Mof_C 	C 	0.2923	0.2923	0.5533	0.067
Mof_C 	C 	0.3488	0.7356	0.18	0.416
Mof_C 	C 	0.547	0.6782	0.0966	0.564
Mof_C 	C 	0.6011	0.0779	0.0779	-0.554
Mof_C 	C 	0.2923	0.8621	0.5533	0.067
Mof_C 	C 	0.0966	0.547	0.6782	0.564
Mof_C 	C 	0.9579	0.2627	0.2627	-0.046
Mof_C 	C 	0.7351	0.39664	0.7351	-0.118
Mof_C 	C 	0.1845	0.6139	0.0171	0.168
Mof_C 	C 	0.18	0.7356	0.3488	0.416
Mof_C 	C 	0.7351	0.7351	0.39664	-0.118
Mof_C 	C 	0.7631	0.7631	0.3895	-0.071
Mof_C 	C 	0.5167	0.9579	0.2627	-0.046
Mof_C 	C 	0.1082	0.5972	0.1864	0.228
Mof_C 	C 	0.7351	0.39664	0.13316	-0.118
Mof_C 	C 	0.9076	0.5076	0.2924	-0.159
Mof_C 	C 	0.7077	0.7077	0.4467	0.067
Mof_C 	C 	0.7356	0.7356	0.3488	0.416
Mof_C 	C 	0.2649	0.2649	0.86684	-0.118
Mof_C 	C 	0.0171	0.6139	0.1845	0.168
Mof_C 	C 	0.6105	0.2369	0.9157	-0.071
Mof_C 	C 	0.60336	0.2649	0.2649	-0.118
Mof_C 	C 	0.8155	0.3861	0.8155	0.168
Mof_C 	C 	0.3861	0.8155	0.8155	0.168
Mof_C 	C 	0.5076	0.2924	0.9076	-0.159
Mof_C 	C 	0.7636	0.7636	0.04	0.126
Mof_C 	C 	0.1845	0.6139	0.1845	0.168
Mof_C 	C 	0.1602	0.0824	0.1602	-0.193
Mof_C 	C 	0.4328	0.7636	0.04	0.126
Mof_C 	C 	0.7077	0.1379	0.7077	0.067
Mof_C 	C 	0.6782	0.547	0.6782	0.564
Mof_C 	C 	0.7077	0.4467	0.7077	0.067
Mof_C 	C 	0.6512	0.82	0.2644	0.416
Mof_C 	C 	0.04	0.7636	0.7636	0.126
Mof_C 	C 	0.5972	0.1602	0.1602	-0.193
Mof_C 	C 	0.3218	0.453	0.3218	0.564
Mof_C 	C 	0.3488	0.18	0.7356	0.416
Mof_C 	C 	0.9157	0.2369	0.6105	-0.071
Mof_C 	C 	0.39664	0.7351	0.13316	-0.118
Mof_C 	C 	0.0924	0.7076	0.4924	-0.159
Mof_C 	C 	0.7076	0.7076	0.0924	-0.159
Mof_C 	C 	0.2923	0.2923	0.8621	0.067
Mof_C 	C 	0.5972	0.1082	0.1082	0.228
Mof_C 	C 	0.9176	0.4028	0.8398	-0.193
Mof_C 	C 	0.2644	0.2644	0.82	0.416
Mof_C 	C 	0.6782	0.0966	0.6782	0.564
Mof_C 	C 	0.6105	0.9157	0.2369	-0.071
Mof_C 	C 	0.2369	0.2369	0.9157	-0.071
Mof_C 	C 	0.7636	0.04	0.4328	0.126
Mof_C 	C 	0.8621	0.2923	0.5533	0.067
Mof_C 	C 	0.9157	0.6105	0.2369	-0.071
Mof_C 	C 	0.1864	0.1082	0.1082	0.228
Mof_C 	C 	0.5076	0.2924	0.2924	-0.159
Mof_C 	C 	0.8398	0.9176	0.4028	-0.193
Mof_C 	C 	0.3989	0.7569	0.9221	-0.554
Mof_C 	C 	0.4833	0.7373	0.7373	-0.046
Mof_C 	C 	0.0421	0.7373	0.7373	-0.046
Mof_C 	C 	0.0843	0.3895	0.7631	-0.071
Mof_C 	C 	0.2649	0.60336	0.2649	-0.118
Mof_C 	C 	0.60336	0.86684	0.2649	-0.118
Mof_C 	C 	0.453	0.3218	0.3218	0.564
Mof_C 	C 	0.6782	0.0966	0.547	0.564
Mof_C 	C 	0.0824	0.1602	0.5972	-0.193
Mof_C 	C 	0.7631	0.3895	0.0843	-0.071
Mof_C 	C 	0.0843	0.7631	0.7631	-0.071
Mof_C 	C 	0.0779	0.6011	0.2431	-0.554
Mof_C 	C 	0.453	0.3218	0.9034	0.564
Mof_C 	C 	0.8155	0.8155	0.3861	0.168
Mof_C 	C 	0.2431	0.6011	0.0779	-0.554
Mof_C 	C 	0.7373	0.7373	0.4833	-0.046
Mof_C 	C 	0.7076	0.0924	0.4924	-0.159
Mof_C 	C 	0.1379	0.4467	0.7077	0.067
Mof_C 	C 	0.04	0.4328	0.7636	0.126
Mof_C 	C 	0.7373	0.0421	0.7373	-0.046
Mof_C 	C 	0.4328	0.7636	0.7636	0.126
Mof_C 	C 	0.7356	0.18	0.3488	0.416
Mof_C 	C 	0.8918	0.4028	0.8918	0.228
Mof_C 	C 	0.2923	0.5533	0.8621	0.067
Mof_C 	C 	0.5533	0.2923	0.8621	0.067
Mof_C 	C 	0.2924	0.5076	0.9076	-0.159
Mof_C 	C 	0.4028	0.8398	0.9176	-0.193
Mof_C 	C 	0.2627	0.9579	0.2627	-0.046
Mof_C 	C 	0.3895	0.7631	0.7631	-0.071
Mof_C 	C 	0.39664	0.13316	0.7351	-0.118
Mof_O 	O 	0.2909	0.64378	0.2909	-0.481
Mof_O 	O 	0.3173	0.4177	0.9477	-0.584
Mof_O 	O 	0.77442	0.64378	0.2909	-0.481
Mof_O 	O 	0.2909	0.2909	0.64378	-0.481
Mof_O 	O 	0.0523	0.6827	0.5823	-0.584
Mof_O 	O 	0.4177	0.9477	0.3173	-0.584
Mof_O 	O 	0.9873	0.4321	0.7903	-0.258
Mof_O 	O 	0.7597	0.3052	0.1754	-0.5
Mof_O 	O 	0.6558	0.55066	0.13774	-0.621
Mof_O 	O 	0.13774	0.55066	0.6558	-0.621
Mof_O 	O 	0.22558	0.7091	0.35622	-0.481
Mof_O 	O 	0.7903	0.7903	0.9873	-0.258
Mof_O 	O 	0.7091	0.7091	0.22558	-0.481
Mof_O 	O 	0.3052	0.1754	0.7597	-0.5
Mof_O 	O 	0.4177	0.3173	0.3173	-0.584
Mof_O 	O 	0.0127	0.2097	0.5679	-0.258
Mof_O 	O 	0.3173	0.3173	0.9477	-0.584
Mof_O 	O 	0.13774	0.6558	0.55066	-0.621
Mof_O 	O 	0.5823	0.0523	0.6827	-0.584
Mof_O 	O 	0.7597	0.1754	0.7597	-0.5
Mof_O 	O 	0.77442	0.2909	0.2909	-0.481
Mof_O 	O 	0.7597	0.1754	0.3052	-0.5
Mof_O 	O 	0.3052	0.7597	0.1754	-0.5
Mof_O 	O 	0.1754	0.3052	0.7597	-0.5
Mof_O 	O 	0.6558	0.13774	0.55066	-0.621
Mof_O 	O 	0.3173	0.9477	0.4177	-0.584
Mof_O 	O 	0.9477	0.4177	0.3173	-0.584
Mof_O 	O 	0.2403	0.8246	0.2403	-0.5
Mof_O 	O 	0.64378	0.2909	0.77442	-0.481
Mof_O 	O 	0.55066	0.6558	0.13774	-0.621
Mof_O 	O 	0.7903	0.7903	0.4321	-0.258
Mof_O 	O 	0.6827	0.0523	0.6827	-0.584
Mof_O 	O 	0.9873	0.7903	0.4321	-0.258
Mof_O 	O 	0.4177	0.3173	0.9477	-0.584
Mof_O 	O 	0.44934	0.86226	0.3442	-0.621
Mof_O 	O 	0.2097	0.0127	0.5679	-0.258
Mof_O 	O 	0.3052	0.7597	0.7597	-0.5
Mof_O 	O 	0.5823	0.6827	0.0523	-0.584
Mof_O 	O 	0.2909	0.64378	0.77442	-0.481
Mof_O 	O 	0.1754	0.7597	0.7597	-0.5
Mof_O 	O 	0.3173	0.9477	0.3173	-0.584
Mof_O 	O 	0.1754	0.7597	0.3052	-0.5
Mof_O 	O 	0.22558	0.7091	0.7091	-0.481
Mof_O 	O 	0.8246	0.2403	0.2403	-0.5
Mof_O 	O 	0.3442	0.86226	0.44934	-0.621
Mof_O 	O 	0.8246	0.2403	0.6948	-0.5
Mof_O 	O 	0.6948	0.8246	0.2403	-0.5
Mof_O 	O 	0.7597	0.7597	0.1754	-0.5
Mof_O 	O 	0.2097	0.0127	0.2097	-0.258
Mof_O 	O 	0.2909	0.77442	0.2909	-0.481
Mof_O 	O 	0.6827	0.6827	0.5823	-0.584
Mof_O 	O 	0.55066	0.13774	0.6558	-0.621
Mof_O 	O 	0.44934	0.3442	0.3442	-0.621
Mof_O 	O 	0.0523	0.6827	0.6827	-0.584
Mof_O 	O 	0.35622	0.7091	0.7091	-0.481
Mof_O 	O 	0.5679	0.2097	0.0127	-0.258
Mof_O 	O 	0.55066	0.6558	0.6558	-0.621
Mof_O 	O 	0.13774	0.6558	0.6558	-0.621
Mof_O 	O 	0.7903	0.9873	0.4321	-0.258
Mof_O 	O 	0.6558	0.6558	0.55066	-0.621
Mof_O 	O 	0.8246	0.6948	0.2403	-0.5
Mof_O 	O 	0.64378	0.77442	0.2909	-0.481
Mof_O 	O 	0.2097	0.5679	0.0127	-0.258
Mof_O 	O 	0.6558	0.6558	0.13774	-0.621
Mof_O 	O 	0.35622	0.22558	0.7091	-0.481
Mof_O 	O 	0.7903	0.4321	0.7903	-0.258
Mof_O 	O 	0.3173	0.4177	0.3173	-0.584
Mof_O 	O 	0.4321	0.7903	0.7903	-0.258
Mof_O 	O 	0.6948	0.2403	0.2403	-0.5
Mof_O 	O 	0.2097	0.2097	0.0127	-0.258
Mof_O 	O 	0.6948	0.2403	0.8246	-0.5
Mof_O 	O 	0.6827	0.5823	0.0523	-0.584
Mof_O 	O 	0.5823	0.6827	0.6827	-0.584
Mof_O 	O 	0.86226	0.3442	0.3442	-0.621
Mof_O 	O 	0.86226	0.44934	0.3442	-0.621
Mof_O 	O 	0.3442	0.44934	0.86226	-0.621
Mof_O 	O 	0.7091	0.22558	0.35622	-0.481
Mof_O 	O 	0.7597	0.3052	0.7597	-0.5
Mof_O 	O 	0.9477	0.3173	0.4177	-0.584
Mof_O 	O 	0.6558	0.55066	0.6558	-0.621
Mof_O 	O 	0.3442	0.86226	0.3442	-0.621
Mof_O 	O 	0.2909	0.77442	0.64378	-0.481
Mof_O 	O 	0.2403	0.8246	0.6948	-0.5
Mof_O 	O 	0.7903	0.9873	0.7903	-0.258
Mof_O 	O 	0.7597	0.7597	0.3052	-0.5
Mof_O 	O 	0.0127	0.5679	0.2097	-0.258
Mof_O 	O 	0.7903	0.4321	0.9873	-0.258
Mof_O 	O 	0.2097	0.2097	0.5679	-0.258
Mof_O 	O 	0.7091	0.35622	0.22558	-0.481
Mof_O 	O 	0.7091	0.7091	0.35622	-0.481
Mof_O 	O 	0.0127	0.2097	0.2097	-0.258
Mof_O 	O 	0.2403	0.2403	0.8246	-0.5
Mof_O 	O 	0.7091	0.22558	0.7091	-0.481
Mof_O 	O 	0.4321	0.7903	0.9873	-0.258
Mof_O 	O 	0.5679	0.0127	0.2097	-0.258
Mof_O 	O 	0.0523	0.5823	0.6827	-0.584
Mof_O 	O 	0.5679	0.2097	0.2097	-0.258
Mof_O 	O 	0.86226	0.3442	0.44934	-0.621
Mof_O 	O 	0.77442	0.2909	0.64378	-0.481
Mof_O 	O 	0.6558	0.13774	0.6558	-0.621
Mof_O 	O 	0.3442	0.44934	0.3442	-0.621
Mof_O 	O 	0.2403	0.6948	0.8246	-0.5
Mof_O 	O 	0.6827	0.6827	0.0523	-0.584
Mof_O 	O 	0.2403	0.6948	0.2403	-0.5
Mof_O 	O 	0.35622	0.7091	0.22558	-0.481
Mof_O 	O 	0.9477	0.3173	0.3173	-0.584
Mof_O 	O 	0.3442	0.3442	0.86226	-0.621
Mof_O 	O 	0.4321	0.9873	0.7903	-0.258
Mof_O 	O 	0.6827	0.0523	0.5823	-0.584
Mof_O 	O 	0.9873	0.7903	0.7903	-0.258
Mof_O 	O 	0.2097	0.5679	0.2097	-0.258
Mof_O 	O 	0.3173	0.3173	0.4177	-0.584
Mof_O 	O 	0.22558	0.35622	0.7091	-0.481
Mof_O 	O 	0.64378	0.2909	0.2909	-0.481
Mof_O 	O 	0.3442	0.3442	0.44934	-0.621
Mof_O 	O 	0.7091	0.35622	0.7091	-0.481
Mof_O 	O 	0.2909	0.2909	0.77442	-0.481
Mof_O 	O 	0.2403	0.2403	0.6948	-0.5
Mof_O 	O 	0.44934	0.3442	0.86226	-0.621
Mof_O 	O 	0.6827	0.5823	0.6827	-0.584
_end
