data_functionalizedCrystal
_audit_creation_method	'EQeq! by Chris Wilmer'
_symmetry_space_group_name_H-M	'P1'
_symmetry_Int_Tables_number	1
_symmetry_cell_setting	triclinic
loop_
_symmetry_equiv_pos_as_xyz
  x,y,z
_cell_length_a	12.232
_cell_length_b	21.818
_cell_length_c	22.784
_cell_angle_alpha	90
_cell_angle_beta	91.401
_cell_angle_gamma	90
loop_
_atom_site_label
_atom_site_type_symbol
_atom_site_fract_x
_atom_site_fract_y
_atom_site_fract_z
_atom_site_charge
Mof_Sm	Sm	0.86717	0.28997	0.91336	2.529
Mof_Sm	Sm	0.35248	0.3838	0.9155	2.624
Mof_Sm	Sm	0.13283	0.78997	0.58664	2.533
Mof_Sm	Sm	0.64752	0.8838	0.5845	2.624
Mof_Sm	Sm	0.13283	0.71003	0.08664	2.529
Mof_Sm	Sm	0.64752	0.6162	0.0845	2.624
Mof_Sm	Sm	0.86717	0.21003	0.41336	2.533
Mof_Sm	Sm	0.35248	0.1162	0.4155	2.624
Mof_H 	H 	0.3808	0.4245	0.764	0.007
Mof_H 	H 	0.3039	0.414	0.6662	0.081
Mof_H 	H 	0.518	0.3378	0.755	0.018
Mof_H 	H 	0.7758	0.293	0.6661	0.072
Mof_H 	H 	0.0454	0.3452	0.7398	0.04
Mof_H 	H 	0.8835	0.2782	0.7537	0.047
Mof_H 	H 	0.6192	0.9245	0.736	0.007
Mof_H 	H 	0.6961	0.914	0.8338	0.081
Mof_H 	H 	0.482	0.8378	0.745	0.018
Mof_H 	H 	0.2242	0.793	0.8339	0.072
Mof_H 	H 	0.9546	0.8452	0.7602	0.039
Mof_H 	H 	0.1165	0.7782	0.7463	0.047
Mof_H 	H 	0.6192	0.5755	0.236	0.007
Mof_H 	H 	0.6961	0.586	0.3338	0.081
Mof_H 	H 	0.482	0.6622	0.245	0.018
Mof_H 	H 	0.2242	0.707	0.3339	0.072
Mof_H 	H 	0.9546	0.6548	0.2602	0.04
Mof_H 	H 	0.1165	0.7218	0.2463	0.047
Mof_H 	H 	0.3808	0.0755	0.264	0.007
Mof_H 	H 	0.3039	0.086	0.1662	0.081
Mof_H 	H 	0.518	0.1622	0.255	0.018
Mof_H 	H 	0.7758	0.207	0.1661	0.072
Mof_H 	H 	0.0454	0.1548	0.2398	0.039
Mof_H 	H 	0.8835	0.2218	0.2537	0.047
Mof_W 	W 	0.22111	0.07853	0.89093	1.372
Mof_W 	W 	0.15485	0.95555	0.80658	1.363
Mof_W 	W 	0.30711	0.21919	0.81907	1.404
Mof_W 	W 	0.32834	0.22738	0.67469	1.351
Mof_W 	W 	0.50585	0.14335	0.75485	1.373
Mof_W 	W 	0.18351	0.96557	0.64745	1.437
Mof_W 	W 	0.2616	0.09095	0.58534	1.417
Mof_W 	W 	0.4383	0.01059	0.66212	1.412
Mof_W 	W 	0.0236	0.16764	0.79947	1.408
Mof_W 	W 	0.96256	0.04665	0.71841	1.312
Mof_W 	W 	0.41884	0.00081	0.82197	1.348
Mof_W 	W 	0.04408	0.17945	0.65725	1.327
Mof_W 	W 	0.77889	0.57853	0.60907	1.375
Mof_W 	W 	0.84515	0.45555	0.69342	1.362
Mof_W 	W 	0.69289	0.71919	0.68093	1.404
Mof_W 	W 	0.67166	0.72738	0.82531	1.351
Mof_W 	W 	0.49415	0.64335	0.74515	1.373
Mof_W 	W 	0.81649	0.46557	0.85255	1.431
Mof_W 	W 	0.7384	0.59095	0.91466	1.417
Mof_W 	W 	0.5617	0.51059	0.83788	1.415
Mof_W 	W 	0.9764	0.66764	0.70053	1.407
Mof_W 	W 	0.03744	0.54665	0.78159	1.312
Mof_W 	W 	0.58116	0.50081	0.67803	1.354
Mof_W 	W 	0.95592	0.67945	0.84275	1.327
Mof_W 	W 	0.77889	0.92147	0.10907	1.372
Mof_W 	W 	0.84515	0.04445	0.19342	1.363
Mof_W 	W 	0.69289	0.78081	0.18093	1.404
Mof_W 	W 	0.67166	0.77262	0.32531	1.351
Mof_W 	W 	0.49415	0.85665	0.24515	1.373
Mof_W 	W 	0.81649	0.03443	0.35255	1.437
Mof_W 	W 	0.7384	0.90905	0.41466	1.417
Mof_W 	W 	0.5617	0.98941	0.33788	1.412
Mof_W 	W 	0.9764	0.83236	0.20053	1.408
Mof_W 	W 	0.03744	0.95335	0.28159	1.312
Mof_W 	W 	0.58116	0.99919	0.17803	1.348
Mof_W 	W 	0.95592	0.82055	0.34275	1.327
Mof_W 	W 	0.22111	0.42147	0.39093	1.375
Mof_W 	W 	0.15485	0.54445	0.30658	1.362
Mof_W 	W 	0.30711	0.28081	0.31907	1.404
Mof_W 	W 	0.32834	0.27262	0.17469	1.351
Mof_W 	W 	0.50585	0.35665	0.25485	1.373
Mof_W 	W 	0.18351	0.53443	0.14745	1.431
Mof_W 	W 	0.2616	0.40905	0.08534	1.417
Mof_W 	W 	0.4383	0.48941	0.16212	1.415
Mof_W 	W 	0.0236	0.33236	0.29947	1.407
Mof_W 	W 	0.96256	0.45335	0.21841	1.312
Mof_W 	W 	0.41884	0.49919	0.32197	1.354
Mof_W 	W 	0.04408	0.32055	0.15725	1.327
Mof_C 	C 	0.104	0.351	0.8581	0.442
Mof_C 	C 	0.61	0.328	0.8715	0.488
Mof_C 	C 	0.309	0.4076	0.7595	0.101
Mof_C 	C 	0.655	0.315	0.8105	-0.082
Mof_C 	C 	0.164	0.367	0.804	-0.079
Mof_C 	C 	0.265	0.402	0.7005	-0.001
Mof_C 	C 	0.591	0.322	0.7547	0.117
Mof_C 	C 	0.743	0.296	0.704	0.027
Mof_C 	C 	0.117	0.363	0.745	0.093
Mof_C 	C 	0.807	0.286	0.756	0.051
Mof_C 	C 	0.896	0.851	0.6419	0.442
Mof_C 	C 	0.39	0.828	0.6285	0.488
Mof_C 	C 	0.691	0.9076	0.7405	0.101
Mof_C 	C 	0.345	0.815	0.6895	-0.082
Mof_C 	C 	0.836	0.867	0.696	-0.08
Mof_C 	C 	0.735	0.902	0.7995	-0.001
Mof_C 	C 	0.409	0.822	0.7453	0.117
Mof_C 	C 	0.257	0.796	0.796	0.027
Mof_C 	C 	0.883	0.863	0.755	0.093
Mof_C 	C 	0.193	0.786	0.744	0.051
Mof_C 	C 	0.896	0.649	0.1419	0.442
Mof_C 	C 	0.39	0.672	0.1285	0.488
Mof_C 	C 	0.691	0.5924	0.2405	0.101
Mof_C 	C 	0.345	0.685	0.1895	-0.082
Mof_C 	C 	0.836	0.633	0.196	-0.079
Mof_C 	C 	0.735	0.598	0.2995	-0.001
Mof_C 	C 	0.409	0.678	0.2453	0.117
Mof_C 	C 	0.257	0.704	0.296	0.027
Mof_C 	C 	0.883	0.637	0.255	0.093
Mof_C 	C 	0.193	0.714	0.244	0.051
Mof_C 	C 	0.104	0.149	0.3581	0.442
Mof_C 	C 	0.61	0.172	0.3715	0.488
Mof_C 	C 	0.309	0.0924	0.2595	0.101
Mof_C 	C 	0.655	0.185	0.3105	-0.082
Mof_C 	C 	0.164	0.133	0.304	-0.08
Mof_C 	C 	0.265	0.098	0.2005	-0.001
Mof_C 	C 	0.591	0.178	0.2547	0.117
Mof_C 	C 	0.743	0.204	0.204	0.027
Mof_C 	C 	0.117	0.137	0.245	0.093
Mof_C 	C 	0.807	0.214	0.256	0.051
Mof_N 	N 	0.264	0.3918	0.8067	-0.208
Mof_N 	N 	0.761	0.2961	0.8106	-0.201
Mof_N 	N 	0.165	0.3795	0.698	-0.098
Mof_N 	N 	0.63	0.3068	0.7081	-0.102
Mof_N 	N 	0.736	0.8918	0.6933	-0.208
Mof_N 	N 	0.239	0.7961	0.6894	-0.201
Mof_N 	N 	0.835	0.8795	0.802	-0.099
Mof_N 	N 	0.37	0.8068	0.7919	-0.102
Mof_N 	N 	0.736	0.6082	0.1933	-0.208
Mof_N 	N 	0.239	0.7039	0.1894	-0.201
Mof_N 	N 	0.835	0.6205	0.302	-0.098
Mof_N 	N 	0.37	0.6932	0.2919	-0.102
Mof_N 	N 	0.264	0.1082	0.3067	-0.208
Mof_N 	N 	0.761	0.2039	0.3106	-0.201
Mof_N 	N 	0.165	0.1205	0.198	-0.099
Mof_N 	N 	0.63	0.1932	0.2081	-0.102
Mof_O 	O 	0.201	0.0865	0.9601	-0.422
Mof_O 	O 	0.554	0.9711	0.6402	-0.547
Mof_O 	O 	0.938	0.2096	0.8428	-0.567
Mof_O 	O 	0.014	0.3257	0.8524	-0.514
Mof_O 	O 	0.841	0.013	0.7096	-0.372
Mof_O 	O 	0.267	0.1063	0.5152	-0.598
Mof_O 	O 	0.147	0.8991	0.6128	-0.603
Mof_O 	O 	0.666	0.3197	0.9182	-0.459
Mof_O 	O 	0.475	0.2086	0.6955	-0.44
Mof_O 	O 	0.758	0.2003	0.9189	-0.369
Mof_O 	O 	0.515	0.348	0.8747	-0.554
Mof_O 	O 	0.157	0.3639	0.9075	-0.485
Mof_O 	O 	0.276	0.0486	0.6692	-0.48
Mof_O 	O 	0.519	0.9597	0.8583	-0.365
Mof_O 	O 	0.973	0.2206	0.6074	-0.35
Mof_O 	O 	0.49	0.4313	0.9801	-0.321
Mof_O 	O 	0.478	0.0766	0.8089	-0.492
Mof_O 	O 	0.103	0.1152	0.7281	-0.406
Mof_O 	O 	0.176	0.2264	0.6682	-0.493
Mof_O 	O 	0.941	0.1137	0.6587	-0.408
Mof_O 	O 	0.356	0.2903	0.6357	-0.359
Mof_O 	O 	0.501	0.082	0.6947	-0.491
Mof_O 	O 	0.319	0.2709	0.7504	-0.461
Mof_O 	O 	0.093	0.1159	0.8544	-0.513
Mof_O 	O 	0.461	0.2032	0.8142	-0.456
Mof_O 	O 	0.259	0.482	0.9223	-0.313
Mof_O 	O 	0.341	0.9488	0.6451	-0.514
Mof_O 	O 	0.187	0.0139	0.5761	-0.461
Mof_O 	O 	0.995	0.3492	0.9785	-0.286
Mof_O 	O 	0.99	0.217	0.9696	-0.314
Mof_O 	O 	0.919	0.1049	0.777	-0.46
Mof_O 	O 	0.333	0.1638	0.6173	-0.478
Mof_O 	O 	0.253	0.0441	0.8005	-0.39
Mof_O 	O 	0.144	0.9997	0.8808	-0.47
Mof_O 	O 	0.154	0.216	0.8035	-0.516
Mof_O 	O 	0.102	0.889	0.8227	-0.418
Mof_O 	O 	0.31	0.9367	0.8265	-0.457
Mof_O 	O 	0.037	0.9967	0.7775	-0.515
Mof_O 	O 	0.408	0.05	0.5883	-0.45
Mof_O 	O 	0.438	0.9819	0.7452	-0.499
Mof_O 	O 	0.3204	0.2803	0.8695	-0.573
Mof_O 	O 	0.412	0.2935	0.9833	-0.276
Mof_O 	O 	0.799	0.294	0.0165	-0.282
Mof_O 	O 	0.193	0.9415	0.726	-0.51
Mof_O 	O 	0.989	0.2097	0.7295	-0.493
Mof_O 	O 	0.329	0.1555	0.7442	-0.427
Mof_O 	O 	0.048	0.0021	0.6636	-0.496
Mof_O 	O 	0.357	0.041	0.8926	-0.466
Mof_O 	O 	0.301	0.1525	0.8656	-0.503
Mof_O 	O 	0.123	0.1256	0.6046	-0.459
Mof_O 	O 	0.635	0.153	0.7589	-0.403
Mof_O 	O 	0.799	0.5865	0.5399	-0.421
Mof_O 	O 	0.446	0.4711	0.8598	-0.547
Mof_O 	O 	0.062	0.7096	0.6572	-0.567
Mof_O 	O 	0.986	0.8257	0.6476	-0.516
Mof_O 	O 	0.159	0.513	0.7904	-0.372
Mof_O 	O 	0.733	0.6063	0.9848	-0.598
Mof_O 	O 	0.853	0.3991	0.8872	-0.603
Mof_O 	O 	0.334	0.8197	0.5818	-0.459
Mof_O 	O 	0.525	0.7086	0.8045	-0.44
Mof_O 	O 	0.242	0.7003	0.5811	-0.368
Mof_O 	O 	0.485	0.848	0.6253	-0.553
Mof_O 	O 	0.843	0.8639	0.5925	-0.485
Mof_O 	O 	0.724	0.5486	0.8308	-0.479
Mof_O 	O 	0.481	0.4597	0.6417	-0.367
Mof_O 	O 	0.027	0.7206	0.8926	-0.349
Mof_O 	O 	0.51	0.9313	0.5199	-0.32
Mof_O 	O 	0.522	0.5766	0.6911	-0.493
Mof_O 	O 	0.897	0.6152	0.7719	-0.405
Mof_O 	O 	0.824	0.7264	0.8318	-0.493
Mof_O 	O 	0.059	0.6137	0.8413	-0.409
Mof_O 	O 	0.644	0.7903	0.8643	-0.359
Mof_O 	O 	0.499	0.582	0.8053	-0.492
Mof_O 	O 	0.681	0.7709	0.7496	-0.461
Mof_O 	O 	0.907	0.6159	0.6456	-0.513
Mof_O 	O 	0.539	0.7032	0.6858	-0.456
Mof_O 	O 	0.741	0.982	0.5777	-0.313
Mof_O 	O 	0.659	0.4488	0.8549	-0.514
Mof_O 	O 	0.813	0.5139	0.9239	-0.459
Mof_O 	O 	0.005	0.8492	0.5215	-0.284
Mof_O 	O 	0.01	0.717	0.5304	-0.312
Mof_O 	O 	0.081	0.6049	0.723	-0.459
Mof_O 	O 	0.667	0.6638	0.8827	-0.478
Mof_O 	O 	0.747	0.5441	0.6995	-0.388
Mof_O 	O 	0.856	0.4997	0.6192	-0.473
Mof_O 	O 	0.846	0.716	0.6965	-0.516
Mof_O 	O 	0.898	0.389	0.6773	-0.419
Mof_O 	O 	0.69	0.4367	0.6735	-0.459
Mof_O 	O 	0.963	0.4967	0.7225	-0.518
Mof_O 	O 	0.592	0.55	0.9117	-0.45
Mof_O 	O 	0.562	0.4819	0.7548	-0.502
Mof_O 	O 	0.6796	0.7803	0.6305	-0.573
Mof_O 	O 	0.588	0.7935	0.5167	-0.275
Mof_O 	O 	0.201	0.794	0.4835	-0.284
Mof_O 	O 	0.807	0.4415	0.774	-0.51
Mof_O 	O 	0.011	0.7097	0.7705	-0.492
Mof_O 	O 	0.671	0.6555	0.7558	-0.427
Mof_O 	O 	0.952	0.5021	0.8364	-0.493
Mof_O 	O 	0.643	0.541	0.6074	-0.466
Mof_O 	O 	0.699	0.6525	0.6344	-0.503
Mof_O 	O 	0.877	0.6256	0.8954	-0.458
Mof_O 	O 	0.365	0.653	0.7411	-0.403
Mof_O 	O 	0.799	0.9135	0.0399	-0.422
Mof_O 	O 	0.446	0.0289	0.3598	-0.547
Mof_O 	O 	0.062	0.7904	0.1572	-0.567
Mof_O 	O 	0.986	0.6743	0.1476	-0.514
Mof_O 	O 	0.159	0.987	0.2904	-0.372
Mof_O 	O 	0.733	0.8937	0.4848	-0.598
Mof_O 	O 	0.853	0.1009	0.3872	-0.603
Mof_O 	O 	0.334	0.6803	0.0818	-0.459
Mof_O 	O 	0.525	0.7914	0.3045	-0.44
Mof_O 	O 	0.242	0.7997	0.0811	-0.369
Mof_O 	O 	0.485	0.652	0.1253	-0.554
Mof_O 	O 	0.843	0.6361	0.0925	-0.485
Mof_O 	O 	0.724	0.9514	0.3308	-0.48
Mof_O 	O 	0.481	0.0403	0.1417	-0.365
Mof_O 	O 	0.027	0.7794	0.3926	-0.35
Mof_O 	O 	0.51	0.5687	0.0199	-0.321
Mof_O 	O 	0.522	0.9234	0.1911	-0.492
Mof_O 	O 	0.897	0.8848	0.2719	-0.406
Mof_O 	O 	0.824	0.7736	0.3318	-0.493
Mof_O 	O 	0.059	0.8863	0.3413	-0.408
Mof_O 	O 	0.644	0.7097	0.3643	-0.359
Mof_O 	O 	0.499	0.918	0.3053	-0.491
Mof_O 	O 	0.681	0.7291	0.2496	-0.461
Mof_O 	O 	0.907	0.8841	0.1456	-0.513
Mof_O 	O 	0.539	0.7968	0.1858	-0.456
Mof_O 	O 	0.741	0.518	0.0777	-0.313
Mof_O 	O 	0.659	0.0512	0.3549	-0.514
Mof_O 	O 	0.813	0.9861	0.4239	-0.461
Mof_O 	O 	0.005	0.6508	0.0215	-0.286
Mof_O 	O 	0.01	0.783	0.0304	-0.314
Mof_O 	O 	0.081	0.8951	0.223	-0.46
Mof_O 	O 	0.667	0.8362	0.3827	-0.478
Mof_O 	O 	0.747	0.9559	0.1995	-0.39
Mof_O 	O 	0.856	0.0003	0.1192	-0.47
Mof_O 	O 	0.846	0.784	0.1965	-0.516
Mof_O 	O 	0.898	0.111	0.1773	-0.418
Mof_O 	O 	0.69	0.0633	0.1735	-0.457
Mof_O 	O 	0.963	0.0033	0.2225	-0.515
Mof_O 	O 	0.592	0.95	0.4117	-0.45
Mof_O 	O 	0.562	0.0181	0.2548	-0.499
Mof_O 	O 	0.6796	0.7197	0.1305	-0.573
Mof_O 	O 	0.588	0.7065	0.0167	-0.276
Mof_O 	O 	0.201	0.706	0.9835	-0.282
Mof_O 	O 	0.807	0.0585	0.274	-0.51
Mof_O 	O 	0.011	0.7903	0.2705	-0.493
Mof_O 	O 	0.671	0.8445	0.2558	-0.427
Mof_O 	O 	0.952	0.9979	0.3364	-0.496
Mof_O 	O 	0.643	0.959	0.1074	-0.466
Mof_O 	O 	0.699	0.8475	0.1344	-0.503
Mof_O 	O 	0.877	0.8744	0.3954	-0.459
Mof_O 	O 	0.365	0.847	0.2411	-0.403
Mof_O 	O 	0.201	0.4135	0.4601	-0.421
Mof_O 	O 	0.554	0.5289	0.1402	-0.547
Mof_O 	O 	0.938	0.2904	0.3428	-0.567
Mof_O 	O 	0.014	0.1743	0.3524	-0.516
Mof_O 	O 	0.841	0.487	0.2096	-0.372
Mof_O 	O 	0.267	0.3937	0.0152	-0.598
Mof_O 	O 	0.147	0.6009	0.1128	-0.603
Mof_O 	O 	0.666	0.1803	0.4182	-0.459
Mof_O 	O 	0.475	0.2914	0.1955	-0.44
Mof_O 	O 	0.758	0.2997	0.4189	-0.368
Mof_O 	O 	0.515	0.152	0.3747	-0.553
Mof_O 	O 	0.157	0.1361	0.4075	-0.485
Mof_O 	O 	0.276	0.4514	0.1692	-0.479
Mof_O 	O 	0.519	0.5403	0.3583	-0.367
Mof_O 	O 	0.973	0.2794	0.1074	-0.349
Mof_O 	O 	0.49	0.0687	0.4801	-0.32
Mof_O 	O 	0.478	0.4234	0.3089	-0.493
Mof_O 	O 	0.103	0.3848	0.2281	-0.405
Mof_O 	O 	0.176	0.2736	0.1682	-0.493
Mof_O 	O 	0.941	0.3863	0.1587	-0.409
Mof_O 	O 	0.356	0.2097	0.1357	-0.359
Mof_O 	O 	0.501	0.418	0.1947	-0.492
Mof_O 	O 	0.319	0.2291	0.2504	-0.461
Mof_O 	O 	0.093	0.3841	0.3544	-0.513
Mof_O 	O 	0.461	0.2968	0.3142	-0.456
Mof_O 	O 	0.259	0.018	0.4223	-0.313
Mof_O 	O 	0.341	0.5512	0.1451	-0.514
Mof_O 	O 	0.187	0.4861	0.0761	-0.459
Mof_O 	O 	0.995	0.1508	0.4785	-0.284
Mof_O 	O 	0.99	0.283	0.4696	-0.312
Mof_O 	O 	0.919	0.3951	0.277	-0.459
Mof_O 	O 	0.333	0.3362	0.1173	-0.478
Mof_O 	O 	0.253	0.4559	0.3005	-0.388
Mof_O 	O 	0.144	0.5003	0.3808	-0.473
Mof_O 	O 	0.154	0.284	0.3035	-0.516
Mof_O 	O 	0.102	0.611	0.3227	-0.419
Mof_O 	O 	0.31	0.5633	0.3265	-0.459
Mof_O 	O 	0.037	0.5033	0.2775	-0.518
Mof_O 	O 	0.408	0.45	0.0883	-0.45
Mof_O 	O 	0.438	0.5181	0.2452	-0.502
Mof_O 	O 	0.3204	0.2197	0.3695	-0.573
Mof_O 	O 	0.412	0.2065	0.4833	-0.275
Mof_O 	O 	0.799	0.206	0.5165	-0.284
Mof_O 	O 	0.193	0.5585	0.226	-0.51
Mof_O 	O 	0.989	0.2903	0.2295	-0.492
Mof_O 	O 	0.329	0.3445	0.2442	-0.427
Mof_O 	O 	0.048	0.4979	0.1636	-0.493
Mof_O 	O 	0.357	0.459	0.3926	-0.466
Mof_O 	O 	0.301	0.3475	0.3656	-0.503
Mof_O 	O 	0.123	0.3744	0.1046	-0.458
Mof_O 	O 	0.635	0.347	0.2589	-0.403
Mof_H 	H 	0.9226	0.4618	0.4429	0.144
Mof_H 	H 	0.8696	0.5256	0.428	0.153
Mof_H 	H 	0.8472	0.4693	0.3867	0.147
Mof_H 	H 	0.9633	0.4998	0.3893	0.157
Mof_N 	N 	0.901	0.489	0.412	-0.373
Mof_H 	H 	0.734	0.0963	0.0862	0.154
Mof_H 	H 	0.6456	0.1228	0.0421	0.159
Mof_H 	H 	0.6911	0.0563	0.0333	0.15
Mof_H 	H 	0.7661	0.1132	0.022	0.145
Mof_N 	N 	0.709	0.097	0.046	-0.373
Mof_H 	H 	0.0774	0.9618	0.0571	0.143
Mof_H 	H 	0.1304	0.0256	0.072	0.153
Mof_H 	H 	0.1528	0.9693	0.1133	0.146
Mof_H 	H 	0.0367	0.9998	0.1107	0.156
Mof_N 	N 	0.099	0.989	0.088	-0.373
Mof_H 	H 	0.266	0.5963	0.4138	0.154
Mof_H 	H 	0.3544	0.6228	0.4579	0.159
Mof_H 	H 	0.3089	0.5563	0.4667	0.149
Mof_H 	H 	0.2339	0.6132	0.478	0.144
Mof_N 	N 	0.291	0.597	0.454	-0.372
Mof_H 	H 	0.0774	0.5382	0.5571	0.144
Mof_H 	H 	0.1304	0.4744	0.572	0.153
Mof_H 	H 	0.1528	0.5307	0.6133	0.147
Mof_H 	H 	0.0367	0.5002	0.6107	0.157
Mof_N 	N 	0.099	0.511	0.588	-0.373
Mof_H 	H 	0.266	0.9037	0.9138	0.154
Mof_H 	H 	0.3544	0.8772	0.9579	0.159
Mof_H 	H 	0.3089	0.9437	0.9667	0.15
Mof_H 	H 	0.2339	0.8868	0.978	0.145
Mof_N 	N 	0.291	0.903	0.954	-0.373
Mof_H 	H 	0.9226	0.0382	0.9429	0.143
Mof_H 	H 	0.8696	0.9744	0.928	0.153
Mof_H 	H 	0.8472	0.0307	0.8867	0.146
Mof_H 	H 	0.9633	0.0002	0.8893	0.156
Mof_N 	N 	0.901	0.011	0.912	-0.373
Mof_H 	H 	0.734	0.4037	0.5862	0.154
Mof_H 	H 	0.6456	0.3772	0.5421	0.159
Mof_H 	H 	0.6911	0.4437	0.5333	0.149
Mof_H 	H 	0.7661	0.3868	0.522	0.144
Mof_N 	N 	0.709	0.403	0.546	-0.372
_end
