data_functionalizedCrystal
_audit_creation_method	'EQeq! by Chris Wilmer'
_symmetry_space_group_name_H-M	'P1'
_symmetry_Int_Tables_number	1
_symmetry_cell_setting	triclinic
loop_
_symmetry_equiv_pos_as_xyz
  x,y,z
_cell_length_a	9.341
_cell_length_b	8.892
_cell_length_c	9.48
_cell_angle_alpha	90
_cell_angle_beta	117.6
_cell_angle_gamma	90
loop_
_atom_site_label
_atom_site_type_symbol
_atom_site_fract_x
_atom_site_fract_y
_atom_site_fract_z
_atom_site_charge
Mof_P 	P 	0.837	0.8997	0.0669	0.536
Mof_P 	P 	0.1376	0.6586	0.4676	0.57
Mof_O 	O 	0.0097	0.8546	0.1181	-0.321
Mof_O 	O 	0.2422	0.7326	0.4034	-0.309
Mof_O 	O 	0.7481	0.9443	0.8908	-0.285
Mof_O 	O 	0.2445	0.5485	0.5945	-0.309
Mof_O 	O 	0.9859	0.5876	0.3387	-0.336
Mof_O 	O 	0.7375	0.7748	0.0927	-0.289
Mof_O 	O 	0.8462	0.039	0.1722	-0.152
Mof_O 	O 	0.0801	0.7833	0.5499	-0.16
Mof_P 	P 	0.663	0.8997	0.4331	0.549
Mof_P 	P 	0.3624	0.6586	0.0324	0.565
Mof_O 	O 	0.4903	0.8546	0.3819	-0.323
Mof_O 	O 	0.2578	0.7326	0.0966	-0.31
Mof_O 	O 	0.7519	0.9443	0.6092	-0.293
Mof_O 	O 	0.2555	0.5485	0.9055	-0.307
Mof_O 	O 	0.5141	0.5876	0.1613	-0.334
Mof_O 	O 	0.7625	0.7748	0.4073	-0.289
Mof_O 	O 	0.6538	0.039	0.3278	-0.158
Mof_O 	O 	0.4199	0.7833	0.9501	-0.156
Mof_P 	P 	0.163	0.1003	0.9331	0.536
Mof_P 	P 	0.8624	0.3414	0.5324	0.57
Mof_O 	O 	0.9903	0.1454	0.8819	-0.321
Mof_O 	O 	0.7578	0.2674	0.5966	-0.309
Mof_O 	O 	0.2519	0.0557	0.1092	-0.285
Mof_O 	O 	0.7555	0.4515	0.4055	-0.309
Mof_O 	O 	0.0141	0.4124	0.6613	-0.336
Mof_O 	O 	0.2625	0.2252	0.9073	-0.289
Mof_O 	O 	0.1538	0.961	0.8278	-0.152
Mof_O 	O 	0.9199	0.2167	0.4501	-0.16
Mof_P 	P 	0.337	0.1003	0.5669	0.549
Mof_P 	P 	0.6376	0.3414	0.9676	0.565
Mof_O 	O 	0.5097	0.1454	0.6181	-0.323
Mof_O 	O 	0.7422	0.2674	0.9034	-0.31
Mof_O 	O 	0.2481	0.0557	0.3908	-0.293
Mof_O 	O 	0.7445	0.4515	0.0945	-0.307
Mof_O 	O 	0.4859	0.4124	0.8387	-0.334
Mof_O 	O 	0.2375	0.2252	0.5927	-0.289
Mof_O 	O 	0.3462	0.961	0.6722	-0.158
Mof_O 	O 	0.5801	0.2167	0.0499	-0.156
Mof_Fe	Fe	0.25	0.8818	0.25	1.05
Mof_Fe	Fe	0.75	0.1182	0.75	1.05
Mof_Fe	Fe	0.75	0.6042	0.25	1.061
Mof_Fe	Fe	0.25	0.3958	0.75	1.061
_end
