data_functionalizedCrystal
_audit_creation_method	'EQeq! by Chris Wilmer'
_symmetry_space_group_name_H-M	'P1'
_symmetry_Int_Tables_number	1
_symmetry_cell_setting	triclinic
loop_
_symmetry_equiv_pos_as_xyz
  x,y,z
_cell_length_a	9.6685
_cell_length_b	9.6685
_cell_length_c	14.8879
_cell_angle_alpha	90
_cell_angle_beta	90
_cell_angle_gamma	120
loop_
_atom_site_label
_atom_site_type_symbol
_atom_site_fract_x
_atom_site_fract_y
_atom_site_fract_z
_atom_site_charge
Mof_P 	P 	0.76137	0.6066	0.92644	0.738
Mof_O 	O 	0.6142	0.4796	0.9731	-0.436
Mof_O 	O 	0.779	0.7749	0.9396	-0.733
Mof_O 	O 	0.9139	0.6214	0.9616	-0.43
Mof_O 	O 	0.7442	0.5648	0.8248	-0.768
Mof_P 	P 	0.3934	0.15477	0.59311	0.739
Mof_O 	O 	0.5204	0.1346	0.63977	-0.435
Mof_O 	O 	0.2251	0.0041	0.60627	-0.733
Mof_O 	O 	0.3786	0.2925	0.62827	-0.432
Mof_O 	O 	0.4352	0.1794	0.49147	-0.767
Mof_P 	P 	0.84523	0.23863	0.25977	0.739
Mof_O 	O 	0.8654	0.3858	0.30643	-0.436
Mof_O 	O 	0.9959	0.221	0.27293	-0.736
Mof_O 	O 	0.7075	0.0861	0.29493	-0.433
Mof_O 	O 	0.8206	0.2558	0.15813	-0.767
Mof_P 	P 	0.23863	0.3934	0.42644	0.739
Mof_O 	O 	0.3858	0.5204	0.4731	-0.435
Mof_O 	O 	0.221	0.2251	0.4396	-0.734
Mof_O 	O 	0.0861	0.3786	0.4616	-0.432
Mof_O 	O 	0.2558	0.4352	0.3248	-0.768
Mof_P 	P 	0.6066	0.84523	0.09311	0.739
Mof_O 	O 	0.4796	0.8654	0.13977	-0.434
Mof_O 	O 	0.7749	0.9959	0.10627	-0.732
Mof_O 	O 	0.6214	0.7075	0.12827	-0.433
Mof_O 	O 	0.5648	0.8206	0.99147	-0.768
Mof_P 	P 	0.15477	0.76137	0.75977	0.739
Mof_O 	O 	0.1346	0.6142	0.80643	-0.437
Mof_O 	O 	0.0041	0.779	0.77293	-0.737
Mof_O 	O 	0.2925	0.9139	0.79493	-0.433
Mof_O 	O 	0.1794	0.7442	0.65813	-0.767
Mof_P 	P 	0.6066	0.76137	0.74023	0.739
Mof_O 	O 	0.4796	0.6142	0.69357	-0.435
Mof_O 	O 	0.7749	0.779	0.72707	-0.735
Mof_O 	O 	0.6214	0.9139	0.70507	-0.433
Mof_O 	O 	0.5648	0.7442	0.84187	-0.767
Mof_P 	P 	0.15477	0.3934	0.07356	0.739
Mof_O 	O 	0.1346	0.5204	0.0269	-0.433
Mof_O 	O 	0.0041	0.2251	0.0604	-0.73
Mof_O 	O 	0.2925	0.3786	0.0384	-0.432
Mof_O 	O 	0.1794	0.4352	0.1752	-0.767
Mof_P 	P 	0.23863	0.84523	0.40689	0.739
Mof_O 	O 	0.3858	0.8654	0.36023	-0.435
Mof_O 	O 	0.221	0.9959	0.39373	-0.733
Mof_O 	O 	0.0861	0.7075	0.37173	-0.432
Mof_O 	O 	0.2558	0.8206	0.50853	-0.767
Mof_P 	P 	0.3934	0.23863	0.24023	0.739
Mof_O 	O 	0.5204	0.3858	0.19357	-0.436
Mof_O 	O 	0.2251	0.221	0.22707	-0.734
Mof_O 	O 	0.3786	0.0861	0.20507	-0.433
Mof_O 	O 	0.4352	0.2558	0.34187	-0.767
Mof_P 	P 	0.84523	0.6066	0.57356	0.739
Mof_O 	O 	0.8654	0.4796	0.5269	-0.435
Mof_O 	O 	0.9959	0.7749	0.5604	-0.733
Mof_O 	O 	0.7075	0.6214	0.5384	-0.432
Mof_O 	O 	0.8206	0.5648	0.6752	-0.768
Mof_P 	P 	0.76137	0.15477	0.90689	0.741
Mof_O 	O 	0.6142	0.1346	0.86023	-0.435
Mof_O 	O 	0.779	0.0041	0.89373	-0.732
Mof_O 	O 	0.9139	0.2925	0.87173	-0.431
Mof_O 	O 	0.7442	0.1794	0.00853	-0.769
Mof_Zn	Zn	0.51002	0.48998	0.08333	1.245
Mof_Zn	Zn	0.51002	0.02004	0.75	1.245
Mof_Zn	Zn	0.97996	0.48998	0.41667	1.245
Mof_Zn	Zn	0.48998	0.51002	0.58333	1.245
Mof_Zn	Zn	0.48998	0.97996	0.25	1.245
Mof_Zn	Zn	0.02004	0.51002	0.91667	1.243
Mof_B 	B 	0.6705	0.83525	0.91667	2.013
Mof_B 	B 	0.16475	0.83525	0.58333	2.013
Mof_B 	B 	0.16475	0.3295	0.25	2.018
Mof_B 	B 	0.3295	0.16475	0.41667	2.014
Mof_B 	B 	0.83525	0.16475	0.08333	2.006
Mof_B 	B 	0.83525	0.6705	0.75	2.019
_end
