data_functionalizedCrystal
_audit_creation_method	'EQeq! by Chris Wilmer'
_symmetry_space_group_name_H-M	'P1'
_symmetry_Int_Tables_number	1
_symmetry_cell_setting	triclinic
loop_
_symmetry_equiv_pos_as_xyz
  x,y,z
_cell_length_a	24.4992
_cell_length_b	24.4992
_cell_length_c	8.3379
_cell_angle_alpha	90
_cell_angle_beta	90
_cell_angle_gamma	120
loop_
_atom_site_label
_atom_site_type_symbol
_atom_site_fract_x
_atom_site_fract_y
_atom_site_fract_z
_atom_site_charge
Mof_N 	N 	0.92629	0.27787	0.54022	-0.16
Mof_C 	C 	0.87607	0.22162	0.58427	0.078
Mof_N 	N 	0.59296	0.6112	0.87355	-0.145
Mof_C 	C 	0.54274	0.55495	0.9176	0.187
Mof_N 	N 	0.25962	0.94454	0.20689	-0.164
Mof_C 	C 	0.2094	0.88829	0.25094	0.063
Mof_N 	N 	0.72213	0.64842	0.54022	-0.161
Mof_C 	C 	0.77838	0.65445	0.58427	0.078
Mof_N 	N 	0.3888	0.98175	0.87355	-0.146
Mof_C 	C 	0.44505	0.98778	0.9176	0.178
Mof_N 	N 	0.05546	0.31509	0.20689	-0.161
Mof_C 	C 	0.11171	0.32112	0.25094	0.064
Mof_N 	N 	0.35158	0.07371	0.54022	-0.16
Mof_C 	C 	0.34555	0.12393	0.58427	0.078
Mof_N 	N 	0.01825	0.40704	0.87355	-0.142
Mof_C 	C 	0.01222	0.45726	0.9176	0.174
Mof_N 	N 	0.68491	0.74038	0.20689	-0.161
Mof_C 	C 	0.67888	0.7906	0.25094	0.065
Mof_N 	N 	0.27787	0.92629	0.45978	-0.165
Mof_C 	C 	0.22162	0.87607	0.41573	0.079
Mof_N 	N 	0.94454	0.25962	0.79311	-0.129
Mof_C 	C 	0.88829	0.2094	0.74906	0.093
Mof_N 	N 	0.6112	0.59296	0.12645	-0.152
Mof_C 	C 	0.55495	0.54274	0.0824	-0.031
Mof_N 	N 	0.64842	0.72213	0.45978	-0.164
Mof_C 	C 	0.65445	0.77838	0.41573	0.079
Mof_N 	N 	0.31509	0.05546	0.79311	-0.133
Mof_C 	C 	0.32112	0.11171	0.74906	0.092
Mof_N 	N 	0.98175	0.3888	0.12645	-0.149
Mof_C 	C 	0.98778	0.44505	0.0824	-0.015
Mof_N 	N 	0.07371	0.35158	0.45978	-0.165
Mof_C 	C 	0.12393	0.34555	0.41573	0.079
Mof_N 	N 	0.74038	0.68491	0.79311	-0.134
Mof_C 	C 	0.7906	0.67888	0.74906	0.091
Mof_N 	N 	0.40704	0.01825	0.12645	-0.153
Mof_C 	C 	0.45726	0.01222	0.0824	-0.022
Mof_N 	N 	0.07371	0.72213	0.45978	-0.165
Mof_C 	C 	0.12393	0.77838	0.41573	0.079
Mof_N 	N 	0.74038	0.05546	0.79311	-0.133
Mof_C 	C 	0.7906	0.11171	0.74906	0.092
Mof_N 	N 	0.40704	0.3888	0.12645	-0.152
Mof_C 	C 	0.45726	0.44505	0.0824	-0.032
Mof_N 	N 	0.27787	0.35158	0.45978	-0.164
Mof_C 	C 	0.22162	0.34555	0.41573	0.079
Mof_N 	N 	0.94454	0.68491	0.79311	-0.13
Mof_C 	C 	0.88829	0.67888	0.74906	0.092
Mof_N 	N 	0.6112	0.01825	0.12645	-0.153
Mof_C 	C 	0.55495	0.01222	0.0824	-0.022
Mof_N 	N 	0.64842	0.92629	0.45978	-0.165
Mof_C 	C 	0.65445	0.87607	0.41573	0.079
Mof_N 	N 	0.31509	0.25962	0.79311	-0.133
Mof_C 	C 	0.32112	0.2094	0.74906	0.092
Mof_N 	N 	0.98175	0.59296	0.12645	-0.149
Mof_C 	C 	0.98778	0.54274	0.0824	-0.015
Mof_N 	N 	0.72213	0.07371	0.54022	-0.16
Mof_C 	C 	0.77838	0.12393	0.58427	0.078
Mof_N 	N 	0.3888	0.40704	0.87355	-0.144
Mof_C 	C 	0.44505	0.45726	0.9176	0.189
Mof_N 	N 	0.05546	0.74038	0.20689	-0.161
Mof_C 	C 	0.11171	0.7906	0.25094	0.064
Mof_N 	N 	0.35158	0.27787	0.54022	-0.16
Mof_C 	C 	0.34555	0.22162	0.58427	0.078
Mof_N 	N 	0.01825	0.6112	0.87355	-0.143
Mof_C 	C 	0.01222	0.55495	0.9176	0.174
Mof_N 	N 	0.68491	0.94454	0.20689	-0.163
Mof_C 	C 	0.67888	0.88829	0.25094	0.065
Mof_N 	N 	0.92629	0.64842	0.54022	-0.16
Mof_C 	C 	0.87607	0.65445	0.58427	0.078
Mof_N 	N 	0.59296	0.98175	0.87355	-0.146
Mof_C 	C 	0.54274	0.98778	0.9176	0.177
Mof_N 	N 	0.25962	0.31509	0.20689	-0.161
Mof_C 	C 	0.2094	0.32112	0.25094	0.065
Mof_Mn	Mn	0.94888	0.33333	0.33333	0.876
Mof_Mn	Mn	0.66667	0.61555	0.33333	0.865
Mof_Mn	Mn	0.38445	0.05112	0.33333	0.868
Mof_Mn	Mn	0.33333	0.94888	0.66667	0.871
Mof_Mn	Mn	-0	0.28221	-0	0.755
Mof_Mn	Mn	0.61555	0.66667	0.66667	0.878
Mof_Mn	Mn	0.28221	0	-0	0.775
Mof_Mn	Mn	0.05112	0.38445	0.66667	0.874
Mof_Mn	Mn	0.71779	0.71779	-0	0.769
Mof_Mn	Mn	0.05112	0.66667	0.66667	0.873
Mof_Mn	Mn	0.71779	0	-0	0.777
Mof_Mn	Mn	0.38445	0.33333	0.33333	0.865
Mof_Mn	Mn	0.33333	0.38445	0.66667	0.878
Mof_Mn	Mn	-5.24625e-17	0.71779	-0	0.755
Mof_Mn	Mn	0.61555	0.94888	0.66667	0.871
Mof_Mn	Mn	0.28221	0.28221	-0	0.767
Mof_Mn	Mn	0.66667	0.05112	0.33333	0.868
Mof_Mn	Mn	0.94888	0.61555	0.33333	0.876
Mof_Cl	Cl	-2.08394e-17	0.42296	0.5	-0.567
Mof_Cl	Cl	0.66667	0.75629	0.83333	-0.492
Mof_Cl	Cl	0.33333	0.08963	0.16667	-0.578
Mof_Cl	Cl	0.57704	0.57704	0.5	-0.558
Mof_Cl	Cl	0.24371	0.91037	0.83333	-0.496
Mof_Cl	Cl	0.91037	0.24371	0.16667	-0.571
Mof_Cl	Cl	0.42296	2.91225e-33	0.5	-0.552
Mof_Cl	Cl	0.08963	0.33333	0.83333	-0.491
Mof_Cl	Cl	0.75629	0.66667	0.16667	-0.577
Mof_Cl	Cl	-2.08394e-17	0.57704	0.5	-0.567
Mof_Cl	Cl	0.66667	0.91037	0.83333	-0.496
Mof_Cl	Cl	0.33333	0.24371	0.16667	-0.578
Mof_Cl	Cl	0.42296	0.42296	0.5	-0.558
Mof_Cl	Cl	0.08963	0.75629	0.83333	-0.493
Mof_Cl	Cl	0.75629	0.08963	0.16667	-0.576
Mof_Cl	Cl	0.57704	2.91225e-33	0.5	-0.552
Mof_Cl	Cl	0.24371	0.33333	0.83333	-0.492
Mof_Cl	Cl	0.91037	0.66667	0.16667	-0.571
Mof_N 	N 	0.96471	0.29805	0.66667	-0.109
Mof_N 	N 	0.63138	0.63138	-0	-0.155
Mof_N 	N 	0.70195	0.66667	0.66667	-0.114
Mof_N 	N 	0.36862	0	-0	-0.152
Mof_N 	N 	0.33333	0.03529	0.66667	-0.111
Mof_N 	N 	-0	0.36862	-0	-0.16
Mof_N 	N 	0.29805	0.96471	0.33333	-0.121
Mof_N 	N 	0.66667	0.70195	0.33333	-0.119
Mof_N 	N 	0.03529	0.33333	0.33333	-0.122
Mof_N 	N 	0.03529	0.70195	0.33333	-0.122
Mof_N 	N 	0.29805	0.33333	0.33333	-0.119
Mof_N 	N 	0.66667	0.96471	0.33333	-0.121
Mof_N 	N 	0.70195	0.03529	0.66667	-0.111
Mof_N 	N 	0.36862	0.36862	-0	-0.155
Mof_N 	N 	0.33333	0.29805	0.66667	-0.114
Mof_N 	N 	-0	0.63138	-0	-0.16
Mof_N 	N 	0.96471	0.66667	0.66667	-0.109
Mof_N 	N 	0.63138	0	-0	-0.152
Mof_C 	C 	0.82062	0.17938	0.50045	-0.104
Mof_H 	H 	0.81086	0.18914	0.38127	0.085
Mof_C 	C 	0.48729	0.51271	0.83378	-0.165
Mof_H 	H 	0.47753	0.52247	0.7146	0.104
Mof_C 	C 	0.15395	0.84605	0.16712	-0.111
Mof_H 	H 	0.14419	0.85581	0.04794	0.061
Mof_C 	C 	0.82062	0.64124	0.50045	-0.104
Mof_H 	H 	0.81086	0.62172	0.38127	0.085
Mof_C 	C 	0.48729	0.97457	0.83378	-0.16
Mof_H 	H 	0.47753	0.95505	0.7146	0.101
Mof_C 	C 	0.15395	0.30791	0.16712	-0.11
Mof_H 	H 	0.14419	0.28839	0.04794	0.062
Mof_C 	C 	0.35876	0.17938	0.50045	-0.104
Mof_H 	H 	0.37828	0.18914	0.38127	0.085
Mof_C 	C 	0.02543	0.51271	0.83378	-0.157
Mof_H 	H 	0.04495	0.52247	0.7146	0.102
Mof_C 	C 	0.69209	0.84605	0.16712	-0.11
Mof_H 	H 	0.71161	0.85581	0.04794	0.062
Mof_C 	C 	0.17938	0.82062	0.49955	-0.113
Mof_H 	H 	0.18914	0.81086	0.61873	0.091
Mof_C 	C 	0.84605	0.15395	0.83288	-0.097
Mof_H 	H 	0.85581	0.14419	0.95206	0.126
Mof_C 	C 	0.51271	0.48729	0.16622	-0.052
Mof_H 	H 	0.52247	0.47753	0.2854	0.072
Mof_C 	C 	0.64124	0.82062	0.49955	-0.112
Mof_H 	H 	0.62172	0.81086	0.61873	0.091
Mof_C 	C 	0.30791	0.15395	0.83288	-0.098
Mof_H 	H 	0.28839	0.14419	0.95206	0.125
Mof_C 	C 	0.97457	0.48729	0.16622	-0.06
Mof_H 	H 	0.95505	0.47753	0.2854	0.077
Mof_C 	C 	0.17938	0.35876	0.49955	-0.113
Mof_H 	H 	0.18914	0.37828	0.61873	0.091
Mof_C 	C 	0.84605	0.69209	0.83288	-0.097
Mof_H 	H 	0.85581	0.71161	0.95206	0.125
Mof_C 	C 	0.51271	0.02543	0.16622	-0.058
Mof_H 	H 	0.52247	0.04495	0.2854	0.074
_end
