data_functionalizedCrystal
_audit_creation_method	'EQeq! by Chris Wilmer'
_symmetry_space_group_name_H-M	'P1'
_symmetry_Int_Tables_number	1
_symmetry_cell_setting	triclinic
loop_
_symmetry_equiv_pos_as_xyz
  x,y,z
_cell_length_a	39.356
_cell_length_b	9.332
_cell_length_c	9.842
_cell_angle_alpha	90
_cell_angle_beta	101.864
_cell_angle_gamma	90
loop_
_atom_site_label
_atom_site_type_symbol
_atom_site_fract_x
_atom_site_fract_y
_atom_site_fract_z
_atom_site_charge
Mof_Zn	Zn	0.21419	0.31089	0.08561	1.183
Mof_N 	N 	0.24832	0.1524	0.1514	-0.308
Mof_N 	N 	0.27597	0.1155	0.0938	-0.31
Mof_N 	N 	0.27571	0.9731	0.2716	-0.367
Mof_O 	O 	0.166	0.271	0.0823	-0.568
Mof_O 	O 	0.16866	0.0976	0.9508	-0.424
Mof_C 	C 	0.1524	0.1707	0.0102	0.505
Mof_C 	C 	0.11553	0.1354	0.014	-0.298
Mof_C 	C 	0.09809	0.2111	0.0905	0.227
Mof_H 	H 	0.1087	0.2885	0.1417	-0.053
Mof_C 	C 	0.0991	0.0239	0.9429	0.206
Mof_H 	H 	0.1109	0.9654	0.8915	-0.035
Mof_C 	C 	0.064	0.9948	0.9457	-0.274
Mof_H 	H 	0.0529	0.9187	0.8938	0.119
Mof_C 	C 	0.064	0.1762	0.0952	-0.296
Mof_H 	H 	0.0531	0.2285	0.1545	0.121
Mof_C 	C 	0.04629	0.0738	0.0211	0.215
Mof_C 	C 	0.00985	0.047	0.0274	-0.114
Mof_H 	H 	0.0004	0.1114	0.0814	0.06
Mof_C 	C 	0.29185	0.0084	0.168	0.299
Mof_C 	C 	0.32344	0.9394	0.1375	-0.898
Mof_H 	H 	0.317	0.8544	0.0833	0.265
Mof_H 	H 	0.3389	0.9143	0.2231	0.292
Mof_H 	H 	0.3349	0.0048	0.0865	0.264
Mof_C 	C 	0.24892	0.0655	0.256	0.284
Mof_C 	C 	0.22331	0.0723	0.3477	-0.862
Mof_H 	H 	0.2345	0.1077	0.4373	0.248
Mof_H 	H 	0.2143	0.9781	0.3574	0.264
Mof_H 	H 	0.2047	0.1353	0.3076	0.252
Mof_Zn	Zn	0.71419	0.81089	0.08561	1.184
Mof_N 	N 	0.74832	0.6524	0.1514	-0.307
Mof_N 	N 	0.77597	0.6155	0.0938	-0.31
Mof_N 	N 	0.77571	0.4731	0.2716	-0.367
Mof_O 	O 	0.666	0.771	0.0823	-0.568
Mof_O 	O 	0.66866	0.5976	0.9508	-0.424
Mof_C 	C 	0.6524	0.6707	0.0102	0.504
Mof_C 	C 	0.61553	0.6354	0.014	-0.293
Mof_C 	C 	0.59809	0.7111	0.0905	0.222
Mof_H 	H 	0.6087	0.7885	0.1417	-0.052
Mof_C 	C 	0.5991	0.5239	0.9429	0.198
Mof_H 	H 	0.6109	0.4654	0.8915	-0.032
Mof_C 	C 	0.564	0.4948	0.9457	-0.267
Mof_H 	H 	0.5529	0.4187	0.8938	0.117
Mof_C 	C 	0.564	0.6762	0.0952	-0.292
Mof_H 	H 	0.5531	0.7285	0.1545	0.119
Mof_C 	C 	0.54629	0.5738	0.0211	0.211
Mof_C 	C 	0.50985	0.547	0.0274	-0.112
Mof_H 	H 	0.5004	0.6114	0.0814	0.06
Mof_C 	C 	0.79185	0.5084	0.168	0.301
Mof_C 	C 	0.82344	0.4394	0.1375	-0.902
Mof_H 	H 	0.817	0.3544	0.0833	0.266
Mof_H 	H 	0.8389	0.4143	0.2231	0.293
Mof_H 	H 	0.8349	0.5048	0.0865	0.266
Mof_C 	C 	0.74892	0.5655	0.256	0.285
Mof_C 	C 	0.72331	0.5723	0.3477	-0.861
Mof_H 	H 	0.7345	0.6077	0.4373	0.248
Mof_H 	H 	0.7143	0.4781	0.3574	0.264
Mof_H 	H 	0.7047	0.6353	0.3076	0.252
Mof_Zn	Zn	0.78581	0.31089	0.41439	1.184
Mof_N 	N 	0.75168	0.1524	0.3486	-0.307
Mof_N 	N 	0.72403	0.1155	0.4062	-0.31
Mof_N 	N 	0.72429	0.9731	0.2284	-0.366
Mof_O 	O 	0.834	0.271	0.4177	-0.568
Mof_O 	O 	0.83134	0.0976	0.5492	-0.425
Mof_C 	C 	0.8476	0.1707	0.4898	0.504
Mof_C 	C 	0.88447	0.1354	0.486	-0.294
Mof_C 	C 	0.90191	0.2111	0.4095	0.223
Mof_H 	H 	0.8913	0.2885	0.3583	-0.052
Mof_C 	C 	0.9009	0.0239	0.5571	0.198
Mof_H 	H 	0.8891	0.9654	0.6085	-0.032
Mof_C 	C 	0.936	0.9948	0.5543	-0.268
Mof_H 	H 	0.9471	0.9187	0.6062	0.117
Mof_C 	C 	0.936	0.1762	0.4048	-0.293
Mof_H 	H 	0.9469	0.2285	0.3455	0.119
Mof_C 	C 	0.95371	0.0738	0.4789	0.211
Mof_C 	C 	0.99015	0.047	0.4726	-0.113
Mof_H 	H 	0.9996	0.1114	0.4186	0.06
Mof_C 	C 	0.70815	0.0084	0.332	0.299
Mof_C 	C 	0.67656	0.9394	0.3625	-0.898
Mof_H 	H 	0.683	0.8544	0.4167	0.265
Mof_H 	H 	0.6611	0.9143	0.2769	0.292
Mof_H 	H 	0.6651	0.0048	0.4135	0.264
Mof_C 	C 	0.75108	0.0655	0.244	0.285
Mof_C 	C 	0.77669	0.0723	0.1523	-0.864
Mof_H 	H 	0.7655	0.1077	0.0627	0.249
Mof_H 	H 	0.7857	0.9781	0.1426	0.265
Mof_H 	H 	0.7953	0.1353	0.1924	0.253
Mof_Zn	Zn	0.28581	0.81089	0.41439	1.184
Mof_N 	N 	0.25168	0.6524	0.3486	-0.307
Mof_N 	N 	0.22403	0.6155	0.4062	-0.31
Mof_N 	N 	0.22429	0.4731	0.2284	-0.367
Mof_O 	O 	0.334	0.771	0.4177	-0.568
Mof_O 	O 	0.33134	0.5976	0.5492	-0.424
Mof_C 	C 	0.3476	0.6707	0.4898	0.504
Mof_C 	C 	0.38447	0.6354	0.486	-0.293
Mof_C 	C 	0.40191	0.7111	0.4095	0.222
Mof_H 	H 	0.3913	0.7885	0.3583	-0.052
Mof_C 	C 	0.4009	0.5239	0.5571	0.198
Mof_H 	H 	0.3891	0.4654	0.6085	-0.032
Mof_C 	C 	0.436	0.4948	0.5543	-0.267
Mof_H 	H 	0.4471	0.4187	0.6062	0.116
Mof_C 	C 	0.436	0.6762	0.4048	-0.292
Mof_H 	H 	0.4469	0.7285	0.3455	0.119
Mof_C 	C 	0.45371	0.5738	0.4789	0.211
Mof_C 	C 	0.49015	0.547	0.4726	-0.112
Mof_H 	H 	0.4996	0.6114	0.4186	0.06
Mof_C 	C 	0.20815	0.5084	0.332	0.301
Mof_C 	C 	0.17656	0.4394	0.3625	-0.902
Mof_H 	H 	0.183	0.3544	0.4167	0.266
Mof_H 	H 	0.1611	0.4143	0.2769	0.293
Mof_H 	H 	0.1651	0.5048	0.4135	0.265
Mof_C 	C 	0.25108	0.5655	0.244	0.285
Mof_C 	C 	0.27669	0.5723	0.1523	-0.862
Mof_H 	H 	0.2655	0.6077	0.0627	0.249
Mof_H 	H 	0.2857	0.4781	0.1426	0.264
Mof_H 	H 	0.2953	0.6353	0.1924	0.252
Mof_Zn	Zn	0.78581	0.68911	0.91439	1.184
Mof_N 	N 	0.75168	0.8476	0.8486	-0.307
Mof_N 	N 	0.72403	0.8845	0.9062	-0.31
Mof_N 	N 	0.72429	0.0269	0.7284	-0.367
Mof_O 	O 	0.834	0.729	0.9177	-0.568
Mof_O 	O 	0.83134	0.9024	0.0492	-0.424
Mof_C 	C 	0.8476	0.8293	0.9898	0.505
Mof_C 	C 	0.88447	0.8646	0.986	-0.298
Mof_C 	C 	0.90191	0.7889	0.9095	0.227
Mof_H 	H 	0.8913	0.7115	0.8583	-0.053
Mof_C 	C 	0.9009	0.9761	0.0571	0.206
Mof_H 	H 	0.8891	0.0346	0.1085	-0.035
Mof_C 	C 	0.936	0.0052	0.0543	-0.274
Mof_H 	H 	0.9471	0.0813	0.1062	0.119
Mof_C 	C 	0.936	0.8238	0.9048	-0.296
Mof_H 	H 	0.9469	0.7715	0.8455	0.121
Mof_C 	C 	0.95371	0.9262	0.9789	0.215
Mof_C 	C 	0.99015	0.953	0.9726	-0.114
Mof_H 	H 	0.9996	0.8886	0.9186	0.06
Mof_C 	C 	0.70815	0.9916	0.832	0.299
Mof_C 	C 	0.67656	0.0606	0.8625	-0.898
Mof_H 	H 	0.683	0.1456	0.9167	0.265
Mof_H 	H 	0.6611	0.0857	0.7769	0.292
Mof_H 	H 	0.6651	0.9952	0.9135	0.264
Mof_C 	C 	0.75108	0.9345	0.744	0.284
Mof_C 	C 	0.77669	0.9277	0.6523	-0.862
Mof_H 	H 	0.7655	0.8923	0.5627	0.248
Mof_H 	H 	0.7857	0.0219	0.6426	0.264
Mof_H 	H 	0.7953	0.8647	0.6924	0.252
Mof_Zn	Zn	0.28581	0.18911	0.91439	1.184
Mof_N 	N 	0.25168	0.3476	0.8486	-0.307
Mof_N 	N 	0.22403	0.3845	0.9062	-0.31
Mof_N 	N 	0.22429	0.5269	0.7284	-0.367
Mof_O 	O 	0.334	0.229	0.9177	-0.568
Mof_O 	O 	0.33134	0.4024	0.0492	-0.424
Mof_C 	C 	0.3476	0.3293	0.9898	0.504
Mof_C 	C 	0.38447	0.3646	0.986	-0.293
Mof_C 	C 	0.40191	0.2889	0.9095	0.222
Mof_H 	H 	0.3913	0.2115	0.8583	-0.052
Mof_C 	C 	0.4009	0.4761	0.0571	0.198
Mof_H 	H 	0.3891	0.5346	0.1085	-0.032
Mof_C 	C 	0.436	0.5052	0.0543	-0.267
Mof_H 	H 	0.4471	0.5813	0.1062	0.117
Mof_C 	C 	0.436	0.3238	0.9048	-0.292
Mof_H 	H 	0.4469	0.2715	0.8455	0.119
Mof_C 	C 	0.45371	0.4262	0.9789	0.211
Mof_C 	C 	0.49015	0.453	0.9726	-0.112
Mof_H 	H 	0.4996	0.3886	0.9186	0.06
Mof_C 	C 	0.20815	0.4916	0.832	0.301
Mof_C 	C 	0.17656	0.5606	0.8625	-0.902
Mof_H 	H 	0.183	0.6456	0.9167	0.266
Mof_H 	H 	0.1611	0.5857	0.7769	0.293
Mof_H 	H 	0.1651	0.4952	0.9135	0.266
Mof_C 	C 	0.25108	0.4345	0.744	0.285
Mof_C 	C 	0.27669	0.4277	0.6523	-0.861
Mof_H 	H 	0.2655	0.3923	0.5627	0.248
Mof_H 	H 	0.2857	0.5219	0.6426	0.264
Mof_H 	H 	0.2953	0.3647	0.6924	0.252
Mof_Zn	Zn	0.21419	0.68911	0.58561	1.184
Mof_N 	N 	0.24832	0.8476	0.6514	-0.307
Mof_N 	N 	0.27597	0.8845	0.5938	-0.31
Mof_N 	N 	0.27571	0.0269	0.7716	-0.366
Mof_O 	O 	0.166	0.729	0.5823	-0.568
Mof_O 	O 	0.16866	0.9024	0.4508	-0.425
Mof_C 	C 	0.1524	0.8293	0.5102	0.504
Mof_C 	C 	0.11553	0.8646	0.514	-0.294
Mof_C 	C 	0.09809	0.7889	0.5905	0.223
Mof_H 	H 	0.1087	0.7115	0.6417	-0.052
Mof_C 	C 	0.0991	0.9761	0.4429	0.198
Mof_H 	H 	0.1109	0.0346	0.3915	-0.032
Mof_C 	C 	0.064	0.0052	0.4457	-0.268
Mof_H 	H 	0.0529	0.0813	0.3938	0.117
Mof_C 	C 	0.064	0.8238	0.5952	-0.293
Mof_H 	H 	0.0531	0.7715	0.6545	0.119
Mof_C 	C 	0.04629	0.9262	0.5211	0.211
Mof_C 	C 	0.00985	0.953	0.5274	-0.113
Mof_H 	H 	0.0004	0.8886	0.5814	0.06
Mof_C 	C 	0.29185	0.9916	0.668	0.299
Mof_C 	C 	0.32344	0.0606	0.6375	-0.898
Mof_H 	H 	0.317	0.1456	0.5833	0.265
Mof_H 	H 	0.3389	0.0857	0.7231	0.292
Mof_H 	H 	0.3349	0.9952	0.5865	0.264
Mof_C 	C 	0.24892	0.9345	0.756	0.285
Mof_C 	C 	0.22331	0.9277	0.8477	-0.864
Mof_H 	H 	0.2345	0.8923	0.9373	0.249
Mof_H 	H 	0.2143	0.0219	0.8574	0.265
Mof_H 	H 	0.2047	0.8647	0.8076	0.253
Mof_Zn	Zn	0.71419	0.18911	0.58561	1.184
Mof_N 	N 	0.74832	0.3476	0.6514	-0.307
Mof_N 	N 	0.77597	0.3845	0.5938	-0.31
Mof_N 	N 	0.77571	0.5269	0.7716	-0.367
Mof_O 	O 	0.666	0.229	0.5823	-0.568
Mof_O 	O 	0.66866	0.4024	0.4508	-0.424
Mof_C 	C 	0.6524	0.3293	0.5102	0.504
Mof_C 	C 	0.61553	0.3646	0.514	-0.293
Mof_C 	C 	0.59809	0.2889	0.5905	0.222
Mof_H 	H 	0.6087	0.2115	0.6417	-0.052
Mof_C 	C 	0.5991	0.4761	0.4429	0.198
Mof_H 	H 	0.6109	0.5346	0.3915	-0.032
Mof_C 	C 	0.564	0.5052	0.4457	-0.267
Mof_H 	H 	0.5529	0.5813	0.3938	0.116
Mof_C 	C 	0.564	0.3238	0.5952	-0.292
Mof_H 	H 	0.5531	0.2715	0.6545	0.119
Mof_C 	C 	0.54629	0.4262	0.5211	0.211
Mof_C 	C 	0.50985	0.453	0.5274	-0.112
Mof_H 	H 	0.5004	0.3886	0.5814	0.06
Mof_C 	C 	0.79185	0.4916	0.668	0.301
Mof_C 	C 	0.82344	0.5606	0.6375	-0.902
Mof_H 	H 	0.817	0.6456	0.5833	0.266
Mof_H 	H 	0.8389	0.5857	0.7231	0.293
Mof_H 	H 	0.8349	0.4952	0.5865	0.265
Mof_C 	C 	0.74892	0.4345	0.756	0.285
Mof_C 	C 	0.72331	0.4277	0.8477	-0.862
Mof_H 	H 	0.7345	0.3923	0.9373	0.249
Mof_H 	H 	0.7143	0.5219	0.8574	0.264
Mof_H 	H 	0.7047	0.3647	0.8076	0.252
_end
