data_functionalizedCrystal
_audit_creation_method	'EQeq! by Chris Wilmer'
_symmetry_space_group_name_H-M	'P1'
_symmetry_Int_Tables_number	1
_symmetry_cell_setting	triclinic
loop_
_symmetry_equiv_pos_as_xyz
  x,y,z
_cell_length_a	9.038
_cell_length_b	9.038
_cell_length_c	18.975
_cell_angle_alpha	90
_cell_angle_beta	90
_cell_angle_gamma	120
loop_
_atom_site_label
_atom_site_type_symbol
_atom_site_fract_x
_atom_site_fract_y
_atom_site_fract_z
_atom_site_charge
Mof_C 	C 	0.7692	0.9984	0.0778	0.393
Mof_O 	O 	0.8535	0.112	0.1252	-0.436
Mof_C 	C 	0.6311	0.9969	0.0381	0.249
Mof_O 	O 	0.8137	0.8877	0.0695	-0.26
Mof_C 	C 	0.0016	0.7708	0.74447	0.135
Mof_O 	O 	0.888	0.7415	0.79187	-0.202
Mof_C 	C 	0.0031	0.6342	0.70477	-0.094
Mof_O 	O 	0.1123	0.926	0.73617	-0.258
Mof_C 	C 	0.2292	0.2308	0.41113	0.331
Mof_O 	O 	0.2585	0.1465	0.45853	-0.465
Mof_C 	C 	0.3658	0.3689	0.37143	-0.052
Mof_O 	O 	0.074	0.1863	0.40283	-0.464
Mof_C 	C 	0.2308	0.0016	0.0778	0.145
Mof_O 	O 	0.1465	0.888	0.1252	-0.274
Mof_C 	C 	0.3689	0.0031	0.0381	-0.123
Mof_O 	O 	0.1863	0.1123	0.0695	-0.395
Mof_C 	C 	0.9984	0.2292	0.74447	0.434
Mof_O 	O 	0.112	0.2585	0.79187	-0.538
Mof_C 	C 	0.9969	0.3658	0.70477	0.24
Mof_O 	O 	0.8877	0.074	0.73617	-0.384
Mof_C 	C 	0.7708	0.7692	0.41113	0.286
Mof_O 	O 	0.7415	0.8535	0.45853	-0.293
Mof_C 	C 	0.6342	0.6311	0.37143	-0.013
Mof_O 	O 	0.926	0.8137	0.40283	-0.206
Mof_C 	C 	0.9984	0.7692	0.58887	0.394
Mof_O 	O 	0.112	0.8535	0.54147	-0.436
Mof_C 	C 	0.9969	0.6311	0.62857	0.25
Mof_O 	O 	0.8877	0.8137	0.59717	-0.259
Mof_C 	C 	0.7708	0.0016	0.9222	0.134
Mof_O 	O 	0.7415	0.888	0.8748	-0.202
Mof_C 	C 	0.6342	0.0031	0.9619	-0.095
Mof_O 	O 	0.926	0.1123	0.9305	-0.26
Mof_C 	C 	0.2308	0.2292	0.25553	0.331
Mof_O 	O 	0.1465	0.2585	0.20813	-0.465
Mof_C 	C 	0.3689	0.3658	0.29523	-0.052
Mof_O 	O 	0.1863	0.074	0.26383	-0.464
Mof_C 	C 	0.0016	0.2308	0.58887	0.144
Mof_O 	O 	0.888	0.1465	0.54147	-0.273
Mof_C 	C 	0.0031	0.3689	0.62857	-0.123
Mof_O 	O 	0.1123	0.1863	0.59717	-0.395
Mof_C 	C 	0.2292	0.9984	0.9222	0.435
Mof_O 	O 	0.2585	0.112	0.8748	-0.539
Mof_C 	C 	0.3658	0.9969	0.9619	0.239
Mof_O 	O 	0.074	0.8877	0.9305	-0.383
Mof_C 	C 	0.7692	0.7708	0.25553	0.287
Mof_O 	O 	0.8535	0.7415	0.20813	-0.294
Mof_C 	C 	0.6311	0.6342	0.29523	-0.013
Mof_O 	O 	0.8137	0.926	0.26383	-0.207
Mof_In	In	4.70147e-33	0	0.16667	1.636
Mof_In	In	-0	0	0.83333	1.635
Mof_In	In	9.40293e-33	0	0.5	1.633
Mof_C 	C 	0.5	0	0.0715	-0.219
Mof_H 	H 	0.5	4.70147e-33	0.1215	0.084
Mof_C 	C 	-2.04033e-17	0.5	0.73817	-0.231
Mof_H 	H 	9.08821e-18	0.5	0.78817	0.089
Mof_C 	C 	0.5	0.5	0.40483	0.008
Mof_H 	H 	0.5	0.5	0.45483	0.062
Mof_C 	C 	1.63635e-17	0.5	0.59517	-0.219
Mof_H 	H 	-5.5475e-17	0.5	0.54517	0.084
Mof_C 	C 	0.5	0	0.9285	-0.231
Mof_H 	H 	0.5	-3.76117e-32	0.8785	0.089
Mof_C 	C 	0.5	0.5	0.26183	0.008
Mof_H 	H 	0.5	0.5	0.21183	0.062
_end
