data_functionalizedCrystal
_audit_creation_method	'EQeq! by Chris Wilmer'
_symmetry_space_group_name_H-M	'P1'
_symmetry_Int_Tables_number	1
_symmetry_cell_setting	triclinic
loop_
_symmetry_equiv_pos_as_xyz
  x,y,z
_cell_length_a	41.0051
_cell_length_b	41.0051
_cell_length_c	41.0051
_cell_angle_alpha	90
_cell_angle_beta	90
_cell_angle_gamma	90
loop_
_atom_site_label
_atom_site_type_symbol
_atom_site_fract_x
_atom_site_fract_y
_atom_site_fract_z
_atom_site_charge
Mof_O 	O 	0.65253	0.74707	0.9499	-0.4
Mof_O 	O 	0.69521	0.71654	0.96213	-0.533
Mof_C 	C 	0.67077	0.72306	0.94486	0.38
Mof_C 	C 	0.66351	0.70127	0.91716	-0.113
Mof_S 	S 	0.63026	0.70964	0.89261	0.031
Mof_C 	C 	0.6815	0.67387	0.90758	-0.024
Mof_C 	C 	0.6392	0.67679	0.868	-0.023
Mof_H 	H 	0.6999	0.6659	0.9181	0.037
Mof_C 	C 	0.6669	0.6599	0.8788	0.013
Mof_O 	O 	0.65253	0.24707	0.4499	-0.407
Mof_O 	O 	0.69521	0.21654	0.46213	-0.544
Mof_C 	C 	0.67077	0.22306	0.44486	0.382
Mof_C 	C 	0.66351	0.20127	0.41716	-0.116
Mof_S 	S 	0.63026	0.20964	0.39261	0.029
Mof_C 	C 	0.6815	0.17387	0.40758	-0.024
Mof_C 	C 	0.6392	0.17679	0.368	-0.023
Mof_H 	H 	0.6999	0.1659	0.4181	0.035
Mof_C 	C 	0.6669	0.1599	0.3788	0.011
Mof_O 	O 	0.15253	0.74707	0.4499	-0.407
Mof_O 	O 	0.19521	0.71654	0.46213	-0.544
Mof_C 	C 	0.17077	0.72306	0.44486	0.382
Mof_C 	C 	0.16351	0.70127	0.41716	-0.116
Mof_S 	S 	0.13026	0.70964	0.39261	0.028
Mof_C 	C 	0.1815	0.67387	0.40758	-0.024
Mof_C 	C 	0.1392	0.67679	0.368	-0.023
Mof_H 	H 	0.1999	0.6659	0.4181	0.035
Mof_C 	C 	0.1669	0.6599	0.3788	0.011
Mof_O 	O 	0.15253	0.24707	0.9499	-0.4
Mof_O 	O 	0.19521	0.21654	0.96213	-0.533
Mof_C 	C 	0.17077	0.22306	0.94486	0.38
Mof_C 	C 	0.16351	0.20127	0.91716	-0.114
Mof_S 	S 	0.13026	0.20964	0.89261	0.03
Mof_C 	C 	0.1815	0.17387	0.90758	-0.024
Mof_C 	C 	0.1392	0.17679	0.868	-0.023
Mof_H 	H 	0.1999	0.1659	0.9181	0.037
Mof_C 	C 	0.1669	0.1599	0.8788	0.012
Mof_O 	O 	0.34747	0.25293	0.9499	-0.4
Mof_O 	O 	0.30479	0.28346	0.96213	-0.533
Mof_C 	C 	0.32923	0.27694	0.94486	0.38
Mof_C 	C 	0.33649	0.29873	0.91716	-0.113
Mof_S 	S 	0.36974	0.29036	0.89261	0.031
Mof_C 	C 	0.3185	0.32613	0.90758	-0.024
Mof_C 	C 	0.3608	0.32321	0.868	-0.023
Mof_H 	H 	0.3001	0.3341	0.9181	0.037
Mof_C 	C 	0.3331	0.3401	0.8788	0.013
Mof_O 	O 	0.34747	0.75293	0.4499	-0.407
Mof_O 	O 	0.30479	0.78346	0.46213	-0.544
Mof_C 	C 	0.32923	0.77694	0.44486	0.383
Mof_C 	C 	0.33649	0.79873	0.41716	-0.116
Mof_S 	S 	0.36974	0.79036	0.39261	0.03
Mof_C 	C 	0.3185	0.82613	0.40758	-0.023
Mof_C 	C 	0.3608	0.82321	0.368	-0.022
Mof_H 	H 	0.3001	0.8341	0.4181	0.036
Mof_C 	C 	0.3331	0.8401	0.3788	0.012
Mof_O 	O 	0.84747	0.25293	0.4499	-0.406
Mof_O 	O 	0.80479	0.28346	0.46213	-0.544
Mof_C 	C 	0.82923	0.27694	0.44486	0.383
Mof_C 	C 	0.83649	0.29873	0.41716	-0.116
Mof_S 	S 	0.86974	0.29036	0.39261	0.031
Mof_C 	C 	0.8185	0.32613	0.40758	-0.023
Mof_C 	C 	0.8608	0.32321	0.368	-0.023
Mof_H 	H 	0.8001	0.3341	0.4181	0.036
Mof_C 	C 	0.8331	0.3401	0.3788	0.012
Mof_O 	O 	0.84747	0.75293	0.9499	-0.399
Mof_O 	O 	0.80479	0.78346	0.96213	-0.533
Mof_C 	C 	0.82923	0.77694	0.94486	0.38
Mof_C 	C 	0.83649	0.79873	0.91716	-0.113
Mof_S 	S 	0.86974	0.79036	0.89261	0.033
Mof_C 	C 	0.8185	0.82613	0.90758	-0.024
Mof_C 	C 	0.8608	0.82321	0.868	-0.023
Mof_H 	H 	0.8001	0.8341	0.9181	0.038
Mof_C 	C 	0.8331	0.8401	0.8788	0.014
Mof_O 	O 	0.34747	0.74707	0.0501	-0.408
Mof_O 	O 	0.30479	0.71654	0.03787	-0.543
Mof_C 	C 	0.32923	0.72306	0.05514	0.38
Mof_C 	C 	0.33649	0.70127	0.08284	-0.117
Mof_S 	S 	0.36974	0.70964	0.10739	0.027
Mof_C 	C 	0.3185	0.67387	0.09242	-0.025
Mof_C 	C 	0.3608	0.67679	0.132	-0.023
Mof_H 	H 	0.3001	0.6659	0.0819	0.035
Mof_C 	C 	0.3331	0.6599	0.1212	0.01
Mof_O 	O 	0.34747	0.24707	0.5501	-0.408
Mof_O 	O 	0.30479	0.21654	0.53787	-0.545
Mof_C 	C 	0.32923	0.22306	0.55514	0.381
Mof_C 	C 	0.33649	0.20127	0.58284	-0.117
Mof_S 	S 	0.36974	0.20964	0.60739	0.028
Mof_C 	C 	0.3185	0.17387	0.59242	-0.025
Mof_C 	C 	0.3608	0.17679	0.632	-0.024
Mof_H 	H 	0.3001	0.1659	0.5819	0.034
Mof_C 	C 	0.3331	0.1599	0.6212	0.01
Mof_O 	O 	0.84747	0.74707	0.5501	-0.407
Mof_O 	O 	0.80479	0.71654	0.53787	-0.545
Mof_C 	C 	0.82923	0.72306	0.55514	0.381
Mof_C 	C 	0.83649	0.70127	0.58284	-0.117
Mof_S 	S 	0.86974	0.70964	0.60739	0.03
Mof_C 	C 	0.8185	0.67387	0.59242	-0.025
Mof_C 	C 	0.8608	0.67679	0.632	-0.024
Mof_H 	H 	0.8001	0.6659	0.5819	0.035
Mof_C 	C 	0.8331	0.6599	0.6212	0.011
Mof_O 	O 	0.84747	0.24707	0.0501	-0.407
Mof_O 	O 	0.80479	0.21654	0.03787	-0.543
Mof_C 	C 	0.82923	0.22306	0.05514	0.38
Mof_C 	C 	0.83649	0.20127	0.08284	-0.117
Mof_S 	S 	0.86974	0.20964	0.10739	0.028
Mof_C 	C 	0.8185	0.17387	0.09242	-0.025
Mof_C 	C 	0.8608	0.17679	0.132	-0.024
Mof_H 	H 	0.8001	0.1659	0.0819	0.035
Mof_C 	C 	0.8331	0.1599	0.1212	0.01
Mof_O 	O 	0.65253	0.25293	0.0501	-0.408
Mof_O 	O 	0.69521	0.28346	0.03787	-0.543
Mof_C 	C 	0.67077	0.27694	0.05514	0.38
Mof_C 	C 	0.66351	0.29873	0.08284	-0.117
Mof_S 	S 	0.63026	0.29036	0.10739	0.027
Mof_C 	C 	0.6815	0.32613	0.09242	-0.025
Mof_C 	C 	0.6392	0.32321	0.132	-0.023
Mof_H 	H 	0.6999	0.3341	0.0819	0.035
Mof_C 	C 	0.6669	0.3401	0.1212	0.01
Mof_O 	O 	0.65253	0.75293	0.5501	-0.408
Mof_O 	O 	0.69521	0.78346	0.53787	-0.545
Mof_C 	C 	0.67077	0.77694	0.55514	0.381
Mof_C 	C 	0.66351	0.79873	0.58284	-0.117
Mof_S 	S 	0.63026	0.79036	0.60739	0.029
Mof_C 	C 	0.6815	0.82613	0.59242	-0.025
Mof_C 	C 	0.6392	0.82321	0.632	-0.024
Mof_H 	H 	0.6999	0.8341	0.5819	0.035
Mof_C 	C 	0.6669	0.8401	0.6212	0.011
Mof_O 	O 	0.15253	0.25293	0.5501	-0.408
Mof_O 	O 	0.19521	0.28346	0.53787	-0.545
Mof_C 	C 	0.17077	0.27694	0.55514	0.381
Mof_C 	C 	0.16351	0.29873	0.58284	-0.117
Mof_S 	S 	0.13026	0.29036	0.60739	0.027
Mof_C 	C 	0.1815	0.32613	0.59242	-0.025
Mof_C 	C 	0.1392	0.32321	0.632	-0.023
Mof_H 	H 	0.1999	0.3341	0.5819	0.034
Mof_C 	C 	0.1669	0.3401	0.6212	0.01
Mof_O 	O 	0.15253	0.75293	0.0501	-0.408
Mof_O 	O 	0.19521	0.78346	0.03787	-0.543
Mof_C 	C 	0.17077	0.77694	0.05514	0.38
Mof_C 	C 	0.16351	0.79873	0.08284	-0.117
Mof_S 	S 	0.13026	0.79036	0.10739	0.026
Mof_C 	C 	0.1815	0.82613	0.09242	-0.025
Mof_C 	C 	0.1392	0.82321	0.132	-0.023
Mof_H 	H 	0.1999	0.8341	0.0819	0.035
Mof_C 	C 	0.1669	0.8401	0.1212	0.011
Mof_O 	O 	0.9499	0.65253	0.74707	-0.401
Mof_O 	O 	0.96213	0.69521	0.71654	-0.534
Mof_C 	C 	0.94486	0.67077	0.72306	0.379
Mof_C 	C 	0.91716	0.66351	0.70127	-0.114
Mof_S 	S 	0.89261	0.63026	0.70964	0.03
Mof_C 	C 	0.90758	0.6815	0.67387	-0.025
Mof_C 	C 	0.868	0.6392	0.67679	-0.024
Mof_H 	H 	0.9181	0.6999	0.6659	0.036
Mof_C 	C 	0.8788	0.6669	0.6599	0.012
Mof_O 	O 	0.9499	0.15253	0.24707	-0.401
Mof_O 	O 	0.96213	0.19521	0.21654	-0.534
Mof_C 	C 	0.94486	0.17077	0.22306	0.379
Mof_C 	C 	0.91716	0.16351	0.20127	-0.115
Mof_S 	S 	0.89261	0.13026	0.20964	0.029
Mof_C 	C 	0.90758	0.1815	0.17387	-0.025
Mof_C 	C 	0.868	0.1392	0.17679	-0.024
Mof_H 	H 	0.9181	0.1999	0.1659	0.036
Mof_C 	C 	0.8788	0.1669	0.1599	0.011
Mof_O 	O 	0.4499	0.65253	0.24707	-0.408
Mof_O 	O 	0.46213	0.69521	0.21654	-0.545
Mof_C 	C 	0.44486	0.67077	0.22306	0.381
Mof_C 	C 	0.41716	0.66351	0.20127	-0.117
Mof_S 	S 	0.39261	0.63026	0.20964	0.028
Mof_C 	C 	0.40758	0.6815	0.17387	-0.025
Mof_C 	C 	0.368	0.6392	0.17679	-0.024
Mof_H 	H 	0.4181	0.6999	0.1659	0.034
Mof_C 	C 	0.3788	0.6669	0.1599	0.01
Mof_O 	O 	0.4499	0.15253	0.74707	-0.408
Mof_O 	O 	0.46213	0.19521	0.71654	-0.545
Mof_C 	C 	0.44486	0.17077	0.72306	0.381
Mof_C 	C 	0.41716	0.16351	0.70127	-0.117
Mof_S 	S 	0.39261	0.13026	0.70964	0.027
Mof_C 	C 	0.40758	0.1815	0.67387	-0.025
Mof_C 	C 	0.368	0.1392	0.67679	-0.024
Mof_H 	H 	0.4181	0.1999	0.6659	0.034
Mof_C 	C 	0.3788	0.1669	0.6599	0.01
Mof_O 	O 	0.9499	0.34747	0.25293	-0.401
Mof_O 	O 	0.96213	0.30479	0.28346	-0.534
Mof_C 	C 	0.94486	0.32923	0.27694	0.379
Mof_C 	C 	0.91716	0.33649	0.29873	-0.114
Mof_S 	S 	0.89261	0.36974	0.29036	0.03
Mof_C 	C 	0.90758	0.3185	0.32613	-0.025
Mof_C 	C 	0.868	0.3608	0.32321	-0.024
Mof_H 	H 	0.9181	0.3001	0.3341	0.036
Mof_C 	C 	0.8788	0.3331	0.3401	0.012
Mof_O 	O 	0.9499	0.84747	0.75293	-0.4
Mof_O 	O 	0.96213	0.80479	0.78346	-0.534
Mof_C 	C 	0.94486	0.82923	0.77694	0.379
Mof_C 	C 	0.91716	0.83649	0.79873	-0.114
Mof_S 	S 	0.89261	0.86974	0.79036	0.032
Mof_C 	C 	0.90758	0.8185	0.82613	-0.025
Mof_C 	C 	0.868	0.8608	0.82321	-0.024
Mof_H 	H 	0.9181	0.8001	0.8341	0.037
Mof_C 	C 	0.8788	0.8331	0.8401	0.013
Mof_O 	O 	0.4499	0.34747	0.75293	-0.408
Mof_O 	O 	0.46213	0.30479	0.78346	-0.545
Mof_C 	C 	0.44486	0.32923	0.77694	0.382
Mof_C 	C 	0.41716	0.33649	0.79873	-0.117
Mof_S 	S 	0.39261	0.36974	0.79036	0.029
Mof_C 	C 	0.40758	0.3185	0.82613	-0.024
Mof_C 	C 	0.368	0.3608	0.82321	-0.023
Mof_H 	H 	0.4181	0.3001	0.8341	0.035
Mof_C 	C 	0.3788	0.3331	0.8401	0.011
Mof_O 	O 	0.4499	0.84747	0.25293	-0.407
Mof_O 	O 	0.46213	0.80479	0.28346	-0.545
Mof_C 	C 	0.44486	0.82923	0.27694	0.382
Mof_C 	C 	0.41716	0.83649	0.29873	-0.117
Mof_S 	S 	0.39261	0.86974	0.29036	0.03
Mof_C 	C 	0.40758	0.8185	0.32613	-0.024
Mof_C 	C 	0.368	0.8608	0.32321	-0.024
Mof_H 	H 	0.4181	0.8001	0.3341	0.035
Mof_C 	C 	0.3788	0.8331	0.3401	0.011
Mof_O 	O 	0.0501	0.34747	0.74707	-0.408
Mof_O 	O 	0.03787	0.30479	0.71654	-0.543
Mof_C 	C 	0.05514	0.32923	0.72306	0.38
Mof_C 	C 	0.08284	0.33649	0.70127	-0.117
Mof_S 	S 	0.10739	0.36974	0.70964	0.027
Mof_C 	C 	0.09242	0.3185	0.67387	-0.025
Mof_C 	C 	0.132	0.3608	0.67679	-0.023
Mof_H 	H 	0.0819	0.3001	0.6659	0.035
Mof_C 	C 	0.1212	0.3331	0.6599	0.01
Mof_O 	O 	0.0501	0.84747	0.24707	-0.407
Mof_O 	O 	0.03787	0.80479	0.21654	-0.543
Mof_C 	C 	0.05514	0.82923	0.22306	0.38
Mof_C 	C 	0.08284	0.83649	0.20127	-0.117
Mof_S 	S 	0.10739	0.86974	0.20964	0.028
Mof_C 	C 	0.09242	0.8185	0.17387	-0.025
Mof_C 	C 	0.132	0.8608	0.17679	-0.024
Mof_H 	H 	0.0819	0.8001	0.1659	0.035
Mof_C 	C 	0.1212	0.8331	0.1599	0.01
Mof_O 	O 	0.5501	0.34747	0.24707	-0.408
Mof_O 	O 	0.53787	0.30479	0.21654	-0.545
Mof_C 	C 	0.55514	0.32923	0.22306	0.381
Mof_C 	C 	0.58284	0.33649	0.20127	-0.117
Mof_S 	S 	0.60739	0.36974	0.20964	0.028
Mof_C 	C 	0.59242	0.3185	0.17387	-0.025
Mof_C 	C 	0.632	0.3608	0.17679	-0.024
Mof_H 	H 	0.5819	0.3001	0.1659	0.034
Mof_C 	C 	0.6212	0.3331	0.1599	0.01
Mof_O 	O 	0.5501	0.84747	0.74707	-0.407
Mof_O 	O 	0.53787	0.80479	0.71654	-0.545
Mof_C 	C 	0.55514	0.82923	0.72306	0.381
Mof_C 	C 	0.58284	0.83649	0.70127	-0.117
Mof_S 	S 	0.60739	0.86974	0.70964	0.03
Mof_C 	C 	0.59242	0.8185	0.67387	-0.025
Mof_C 	C 	0.632	0.8608	0.67679	-0.024
Mof_H 	H 	0.5819	0.8001	0.6659	0.035
Mof_C 	C 	0.6212	0.8331	0.6599	0.011
Mof_O 	O 	0.0501	0.65253	0.25293	-0.408
Mof_O 	O 	0.03787	0.69521	0.28346	-0.543
Mof_C 	C 	0.05514	0.67077	0.27694	0.38
Mof_C 	C 	0.08284	0.66351	0.29873	-0.117
Mof_S 	S 	0.10739	0.63026	0.29036	0.027
Mof_C 	C 	0.09242	0.6815	0.32613	-0.025
Mof_C 	C 	0.132	0.6392	0.32321	-0.023
Mof_H 	H 	0.0819	0.6999	0.3341	0.035
Mof_C 	C 	0.1212	0.6669	0.3401	0.01
Mof_O 	O 	0.0501	0.15253	0.75293	-0.408
Mof_O 	O 	0.03787	0.19521	0.78346	-0.543
Mof_C 	C 	0.05514	0.17077	0.77694	0.38
Mof_C 	C 	0.08284	0.16351	0.79873	-0.117
Mof_S 	S 	0.10739	0.13026	0.79036	0.026
Mof_C 	C 	0.09242	0.1815	0.82613	-0.025
Mof_C 	C 	0.132	0.1392	0.82321	-0.023
Mof_H 	H 	0.0819	0.1999	0.8341	0.035
Mof_C 	C 	0.1212	0.1669	0.8401	0.011
Mof_O 	O 	0.5501	0.65253	0.75293	-0.408
Mof_O 	O 	0.53787	0.69521	0.78346	-0.545
Mof_C 	C 	0.55514	0.67077	0.77694	0.381
Mof_C 	C 	0.58284	0.66351	0.79873	-0.117
Mof_S 	S 	0.60739	0.63026	0.79036	0.029
Mof_C 	C 	0.59242	0.6815	0.82613	-0.025
Mof_C 	C 	0.632	0.6392	0.82321	-0.024
Mof_H 	H 	0.5819	0.6999	0.8341	0.035
Mof_C 	C 	0.6212	0.6669	0.8401	0.011
Mof_O 	O 	0.5501	0.15253	0.25293	-0.408
Mof_O 	O 	0.53787	0.19521	0.28346	-0.545
Mof_C 	C 	0.55514	0.17077	0.27694	0.381
Mof_C 	C 	0.58284	0.16351	0.29873	-0.117
Mof_S 	S 	0.60739	0.13026	0.29036	0.027
Mof_C 	C 	0.59242	0.1815	0.32613	-0.025
Mof_C 	C 	0.632	0.1392	0.32321	-0.023
Mof_H 	H 	0.5819	0.1999	0.3341	0.034
Mof_C 	C 	0.6212	0.1669	0.3401	0.01
Mof_O 	O 	0.74707	0.9499	0.65253	-0.401
Mof_O 	O 	0.71654	0.96213	0.69521	-0.534
Mof_C 	C 	0.72306	0.94486	0.67077	0.379
Mof_C 	C 	0.70127	0.91716	0.66351	-0.114
Mof_S 	S 	0.70964	0.89261	0.63026	0.03
Mof_C 	C 	0.67387	0.90758	0.6815	-0.025
Mof_C 	C 	0.67679	0.868	0.6392	-0.024
Mof_H 	H 	0.6659	0.9181	0.6999	0.036
Mof_C 	C 	0.6599	0.8788	0.6669	0.012
Mof_O 	O 	0.74707	0.4499	0.15253	-0.408
Mof_O 	O 	0.71654	0.46213	0.19521	-0.545
Mof_C 	C 	0.72306	0.44486	0.17077	0.381
Mof_C 	C 	0.70127	0.41716	0.16351	-0.117
Mof_S 	S 	0.70964	0.39261	0.13026	0.027
Mof_C 	C 	0.67387	0.40758	0.1815	-0.025
Mof_C 	C 	0.67679	0.368	0.1392	-0.024
Mof_H 	H 	0.6659	0.4181	0.1999	0.034
Mof_C 	C 	0.6599	0.3788	0.1669	0.01
Mof_O 	O 	0.24707	0.9499	0.15253	-0.401
Mof_O 	O 	0.21654	0.96213	0.19521	-0.534
Mof_C 	C 	0.22306	0.94486	0.17077	0.379
Mof_C 	C 	0.20127	0.91716	0.16351	-0.115
Mof_S 	S 	0.20964	0.89261	0.13026	0.029
Mof_C 	C 	0.17387	0.90758	0.1815	-0.025
Mof_C 	C 	0.17679	0.868	0.1392	-0.024
Mof_H 	H 	0.1659	0.9181	0.1999	0.036
Mof_C 	C 	0.1599	0.8788	0.1669	0.011
Mof_O 	O 	0.24707	0.4499	0.65253	-0.408
Mof_O 	O 	0.21654	0.46213	0.69521	-0.545
Mof_C 	C 	0.22306	0.44486	0.67077	0.381
Mof_C 	C 	0.20127	0.41716	0.66351	-0.117
Mof_S 	S 	0.20964	0.39261	0.63026	0.028
Mof_C 	C 	0.17387	0.40758	0.6815	-0.025
Mof_C 	C 	0.17679	0.368	0.6392	-0.024
Mof_H 	H 	0.1659	0.4181	0.6999	0.034
Mof_C 	C 	0.1599	0.3788	0.6669	0.01
Mof_O 	O 	0.25293	0.9499	0.34747	-0.401
Mof_O 	O 	0.28346	0.96213	0.30479	-0.534
Mof_C 	C 	0.27694	0.94486	0.32923	0.379
Mof_C 	C 	0.29873	0.91716	0.33649	-0.114
Mof_S 	S 	0.29036	0.89261	0.36974	0.03
Mof_C 	C 	0.32613	0.90758	0.3185	-0.025
Mof_C 	C 	0.32321	0.868	0.3608	-0.024
Mof_H 	H 	0.3341	0.9181	0.3001	0.036
Mof_C 	C 	0.3401	0.8788	0.3331	0.012
Mof_O 	O 	0.25293	0.4499	0.84747	-0.407
Mof_O 	O 	0.28346	0.46213	0.80479	-0.545
Mof_C 	C 	0.27694	0.44486	0.82923	0.382
Mof_C 	C 	0.29873	0.41716	0.83649	-0.117
Mof_S 	S 	0.29036	0.39261	0.86974	0.03
Mof_C 	C 	0.32613	0.40758	0.8185	-0.024
Mof_C 	C 	0.32321	0.368	0.8608	-0.024
Mof_H 	H 	0.3341	0.4181	0.8001	0.035
Mof_C 	C 	0.3401	0.3788	0.8331	0.011
Mof_O 	O 	0.75293	0.9499	0.84747	-0.4
Mof_O 	O 	0.78346	0.96213	0.80479	-0.534
Mof_C 	C 	0.77694	0.94486	0.82923	0.379
Mof_C 	C 	0.79873	0.91716	0.83649	-0.114
Mof_S 	S 	0.79036	0.89261	0.86974	0.032
Mof_C 	C 	0.82613	0.90758	0.8185	-0.025
Mof_C 	C 	0.82321	0.868	0.8608	-0.024
Mof_H 	H 	0.8341	0.9181	0.8001	0.037
Mof_C 	C 	0.8401	0.8788	0.8331	0.013
Mof_O 	O 	0.75293	0.4499	0.34747	-0.408
Mof_O 	O 	0.78346	0.46213	0.30479	-0.545
Mof_C 	C 	0.77694	0.44486	0.32923	0.382
Mof_C 	C 	0.79873	0.41716	0.33649	-0.117
Mof_S 	S 	0.79036	0.39261	0.36974	0.029
Mof_C 	C 	0.82613	0.40758	0.3185	-0.024
Mof_C 	C 	0.82321	0.368	0.3608	-0.023
Mof_H 	H 	0.8341	0.4181	0.3001	0.035
Mof_C 	C 	0.8401	0.3788	0.3331	0.011
Mof_O 	O 	0.74707	0.0501	0.34747	-0.408
Mof_O 	O 	0.71654	0.03787	0.30479	-0.543
Mof_C 	C 	0.72306	0.05514	0.32923	0.38
Mof_C 	C 	0.70127	0.08284	0.33649	-0.117
Mof_S 	S 	0.70964	0.10739	0.36974	0.027
Mof_C 	C 	0.67387	0.09242	0.3185	-0.025
Mof_C 	C 	0.67679	0.132	0.3608	-0.023
Mof_H 	H 	0.6659	0.0819	0.3001	0.035
Mof_C 	C 	0.6599	0.1212	0.3331	0.01
Mof_O 	O 	0.74707	0.5501	0.84747	-0.407
Mof_O 	O 	0.71654	0.53787	0.80479	-0.545
Mof_C 	C 	0.72306	0.55514	0.82923	0.381
Mof_C 	C 	0.70127	0.58284	0.83649	-0.117
Mof_S 	S 	0.70964	0.60739	0.86974	0.03
Mof_C 	C 	0.67387	0.59242	0.8185	-0.025
Mof_C 	C 	0.67679	0.632	0.8608	-0.024
Mof_H 	H 	0.6659	0.5819	0.8001	0.035
Mof_C 	C 	0.6599	0.6212	0.8331	0.011
Mof_O 	O 	0.24707	0.0501	0.84747	-0.407
Mof_O 	O 	0.21654	0.03787	0.80479	-0.543
Mof_C 	C 	0.22306	0.05514	0.82923	0.38
Mof_C 	C 	0.20127	0.08284	0.83649	-0.117
Mof_S 	S 	0.20964	0.10739	0.86974	0.028
Mof_C 	C 	0.17387	0.09242	0.8185	-0.025
Mof_C 	C 	0.17679	0.132	0.8608	-0.024
Mof_H 	H 	0.1659	0.0819	0.8001	0.035
Mof_C 	C 	0.1599	0.1212	0.8331	0.01
Mof_O 	O 	0.24707	0.5501	0.34747	-0.408
Mof_O 	O 	0.21654	0.53787	0.30479	-0.545
Mof_C 	C 	0.22306	0.55514	0.32923	0.381
Mof_C 	C 	0.20127	0.58284	0.33649	-0.117
Mof_S 	S 	0.20964	0.60739	0.36974	0.028
Mof_C 	C 	0.17387	0.59242	0.3185	-0.025
Mof_C 	C 	0.17679	0.632	0.3608	-0.024
Mof_H 	H 	0.1659	0.5819	0.3001	0.034
Mof_C 	C 	0.1599	0.6212	0.3331	0.01
Mof_O 	O 	0.25293	0.0501	0.65253	-0.408
Mof_O 	O 	0.28346	0.03787	0.69521	-0.543
Mof_C 	C 	0.27694	0.05514	0.67077	0.38
Mof_C 	C 	0.29873	0.08284	0.66351	-0.117
Mof_S 	S 	0.29036	0.10739	0.63026	0.027
Mof_C 	C 	0.32613	0.09242	0.6815	-0.025
Mof_C 	C 	0.32321	0.132	0.6392	-0.023
Mof_H 	H 	0.3341	0.0819	0.6999	0.035
Mof_C 	C 	0.3401	0.1212	0.6669	0.01
Mof_O 	O 	0.25293	0.5501	0.15253	-0.408
Mof_O 	O 	0.28346	0.53787	0.19521	-0.545
Mof_C 	C 	0.27694	0.55514	0.17077	0.381
Mof_C 	C 	0.29873	0.58284	0.16351	-0.117
Mof_S 	S 	0.29036	0.60739	0.13026	0.027
Mof_C 	C 	0.32613	0.59242	0.1815	-0.025
Mof_C 	C 	0.32321	0.632	0.1392	-0.023
Mof_H 	H 	0.3341	0.5819	0.1999	0.034
Mof_C 	C 	0.3401	0.6212	0.1669	0.01
Mof_O 	O 	0.75293	0.0501	0.15253	-0.408
Mof_O 	O 	0.78346	0.03787	0.19521	-0.543
Mof_C 	C 	0.77694	0.05514	0.17077	0.38
Mof_C 	C 	0.79873	0.08284	0.16351	-0.117
Mof_S 	S 	0.79036	0.10739	0.13026	0.026
Mof_C 	C 	0.82613	0.09242	0.1815	-0.025
Mof_C 	C 	0.82321	0.132	0.1392	-0.023
Mof_H 	H 	0.8341	0.0819	0.1999	0.035
Mof_C 	C 	0.8401	0.1212	0.1669	0.011
Mof_O 	O 	0.75293	0.5501	0.65253	-0.408
Mof_O 	O 	0.78346	0.53787	0.69521	-0.545
Mof_C 	C 	0.77694	0.55514	0.67077	0.381
Mof_C 	C 	0.79873	0.58284	0.66351	-0.117
Mof_S 	S 	0.79036	0.60739	0.63026	0.029
Mof_C 	C 	0.82613	0.59242	0.6815	-0.025
Mof_C 	C 	0.82321	0.632	0.6392	-0.024
Mof_H 	H 	0.8341	0.5819	0.6999	0.035
Mof_C 	C 	0.8401	0.6212	0.6669	0.011
Mof_O 	O 	0.24707	0.15253	0.5501	-0.408
Mof_O 	O 	0.21654	0.19521	0.53787	-0.545
Mof_C 	C 	0.22306	0.17077	0.55514	0.381
Mof_C 	C 	0.20127	0.16351	0.58284	-0.117
Mof_S 	S 	0.20964	0.13026	0.60739	0.027
Mof_C 	C 	0.17387	0.1815	0.59242	-0.025
Mof_C 	C 	0.17679	0.1392	0.632	-0.024
Mof_H 	H 	0.1659	0.1999	0.5819	0.034
Mof_C 	C 	0.1599	0.1669	0.6212	0.01
Mof_O 	O 	0.24707	0.65253	0.0501	-0.408
Mof_O 	O 	0.21654	0.69521	0.03787	-0.543
Mof_C 	C 	0.22306	0.67077	0.05514	0.38
Mof_C 	C 	0.20127	0.66351	0.08284	-0.117
Mof_S 	S 	0.20964	0.63026	0.10739	0.027
Mof_C 	C 	0.17387	0.6815	0.09242	-0.025
Mof_C 	C 	0.17679	0.6392	0.132	-0.023
Mof_H 	H 	0.1659	0.6999	0.0819	0.034
Mof_C 	C 	0.1599	0.6669	0.1212	0.01
Mof_O 	O 	0.74707	0.15253	0.0501	-0.408
Mof_O 	O 	0.71654	0.19521	0.03787	-0.543
Mof_C 	C 	0.72306	0.17077	0.05514	0.38
Mof_C 	C 	0.70127	0.16351	0.08284	-0.117
Mof_S 	S 	0.70964	0.13026	0.10739	0.026
Mof_C 	C 	0.67387	0.1815	0.09242	-0.025
Mof_C 	C 	0.67679	0.1392	0.132	-0.023
Mof_H 	H 	0.6659	0.1999	0.0819	0.035
Mof_C 	C 	0.6599	0.1669	0.1212	0.01
Mof_O 	O 	0.74707	0.65253	0.5501	-0.408
Mof_O 	O 	0.71654	0.69521	0.53787	-0.545
Mof_C 	C 	0.72306	0.67077	0.55514	0.381
Mof_C 	C 	0.70127	0.66351	0.58284	-0.117
Mof_S 	S 	0.70964	0.63026	0.60739	0.028
Mof_C 	C 	0.67387	0.6815	0.59242	-0.025
Mof_C 	C 	0.67679	0.6392	0.632	-0.024
Mof_H 	H 	0.6659	0.6999	0.5819	0.034
Mof_C 	C 	0.6599	0.6669	0.6212	0.01
Mof_O 	O 	0.75293	0.84747	0.5501	-0.407
Mof_O 	O 	0.78346	0.80479	0.53787	-0.545
Mof_C 	C 	0.77694	0.82923	0.55514	0.382
Mof_C 	C 	0.79873	0.83649	0.58284	-0.117
Mof_S 	S 	0.79036	0.86974	0.60739	0.03
Mof_C 	C 	0.82613	0.8185	0.59242	-0.024
Mof_C 	C 	0.82321	0.8608	0.632	-0.024
Mof_H 	H 	0.8341	0.8001	0.5819	0.035
Mof_C 	C 	0.8401	0.8331	0.6212	0.011
Mof_O 	O 	0.75293	0.34747	0.0501	-0.408
Mof_O 	O 	0.78346	0.30479	0.03787	-0.543
Mof_C 	C 	0.77694	0.32923	0.05514	0.38
Mof_C 	C 	0.79873	0.33649	0.08284	-0.116
Mof_S 	S 	0.79036	0.36974	0.10739	0.027
Mof_C 	C 	0.82613	0.3185	0.09242	-0.025
Mof_C 	C 	0.82321	0.3608	0.132	-0.023
Mof_H 	H 	0.8341	0.3001	0.0819	0.035
Mof_C 	C 	0.8401	0.3331	0.1212	0.011
Mof_O 	O 	0.25293	0.84747	0.0501	-0.407
Mof_O 	O 	0.28346	0.80479	0.03787	-0.543
Mof_C 	C 	0.27694	0.82923	0.05514	0.38
Mof_C 	C 	0.29873	0.83649	0.08284	-0.117
Mof_S 	S 	0.29036	0.86974	0.10739	0.029
Mof_C 	C 	0.32613	0.8185	0.09242	-0.025
Mof_C 	C 	0.32321	0.8608	0.132	-0.024
Mof_H 	H 	0.3341	0.8001	0.0819	0.035
Mof_C 	C 	0.3401	0.8331	0.1212	0.011
Mof_O 	O 	0.25293	0.34747	0.5501	-0.408
Mof_O 	O 	0.28346	0.30479	0.53787	-0.545
Mof_C 	C 	0.27694	0.32923	0.55514	0.381
Mof_C 	C 	0.29873	0.33649	0.58284	-0.117
Mof_S 	S 	0.29036	0.36974	0.60739	0.028
Mof_C 	C 	0.32613	0.3185	0.59242	-0.025
Mof_C 	C 	0.32321	0.3608	0.632	-0.023
Mof_H 	H 	0.3341	0.3001	0.5819	0.035
Mof_C 	C 	0.3401	0.3331	0.6212	0.011
Mof_O 	O 	0.24707	0.84747	0.4499	-0.407
Mof_O 	O 	0.21654	0.80479	0.46213	-0.545
Mof_C 	C 	0.22306	0.82923	0.44486	0.381
Mof_C 	C 	0.20127	0.83649	0.41716	-0.117
Mof_S 	S 	0.20964	0.86974	0.39261	0.03
Mof_C 	C 	0.17387	0.8185	0.40758	-0.024
Mof_C 	C 	0.17679	0.8608	0.368	-0.024
Mof_H 	H 	0.1659	0.8001	0.4181	0.034
Mof_C 	C 	0.1599	0.8331	0.3788	0.011
Mof_O 	O 	0.24707	0.34747	0.9499	-0.401
Mof_O 	O 	0.21654	0.30479	0.96213	-0.534
Mof_C 	C 	0.22306	0.32923	0.94486	0.379
Mof_C 	C 	0.20127	0.33649	0.91716	-0.114
Mof_S 	S 	0.20964	0.36974	0.89261	0.03
Mof_C 	C 	0.17387	0.3185	0.90758	-0.025
Mof_C 	C 	0.17679	0.3608	0.868	-0.024
Mof_H 	H 	0.1659	0.3001	0.9181	0.036
Mof_C 	C 	0.1599	0.3331	0.8788	0.011
Mof_O 	O 	0.74707	0.84747	0.9499	-0.4
Mof_O 	O 	0.71654	0.80479	0.96213	-0.534
Mof_C 	C 	0.72306	0.82923	0.94486	0.379
Mof_C 	C 	0.70127	0.83649	0.91716	-0.114
Mof_S 	S 	0.70964	0.86974	0.89261	0.032
Mof_C 	C 	0.67387	0.8185	0.90758	-0.025
Mof_C 	C 	0.67679	0.8608	0.868	-0.024
Mof_H 	H 	0.6659	0.8001	0.9181	0.036
Mof_C 	C 	0.6599	0.8331	0.8788	0.012
Mof_O 	O 	0.74707	0.34747	0.4499	-0.408
Mof_O 	O 	0.71654	0.30479	0.46213	-0.545
Mof_C 	C 	0.72306	0.32923	0.44486	0.381
Mof_C 	C 	0.70127	0.33649	0.41716	-0.117
Mof_S 	S 	0.70964	0.36974	0.39261	0.028
Mof_C 	C 	0.67387	0.3185	0.40758	-0.025
Mof_C 	C 	0.67679	0.3608	0.368	-0.024
Mof_H 	H 	0.6659	0.3001	0.4181	0.035
Mof_C 	C 	0.6599	0.3331	0.3788	0.011
Mof_O 	O 	0.75293	0.15253	0.4499	-0.408
Mof_O 	O 	0.78346	0.19521	0.46213	-0.545
Mof_C 	C 	0.77694	0.17077	0.44486	0.381
Mof_C 	C 	0.79873	0.16351	0.41716	-0.117
Mof_S 	S 	0.79036	0.13026	0.39261	0.028
Mof_C 	C 	0.82613	0.1815	0.40758	-0.025
Mof_C 	C 	0.82321	0.1392	0.368	-0.024
Mof_H 	H 	0.8341	0.1999	0.4181	0.035
Mof_C 	C 	0.8401	0.1669	0.3788	0.011
Mof_O 	O 	0.75293	0.65253	0.9499	-0.401
Mof_O 	O 	0.78346	0.69521	0.96213	-0.534
Mof_C 	C 	0.77694	0.67077	0.94486	0.379
Mof_C 	C 	0.79873	0.66351	0.91716	-0.114
Mof_S 	S 	0.79036	0.63026	0.89261	0.03
Mof_C 	C 	0.82613	0.6815	0.90758	-0.025
Mof_C 	C 	0.82321	0.6392	0.868	-0.024
Mof_H 	H 	0.8341	0.6999	0.9181	0.036
Mof_C 	C 	0.8401	0.6669	0.8788	0.012
Mof_O 	O 	0.25293	0.15253	0.9499	-0.401
Mof_O 	O 	0.28346	0.19521	0.96213	-0.534
Mof_C 	C 	0.27694	0.17077	0.94486	0.379
Mof_C 	C 	0.29873	0.16351	0.91716	-0.114
Mof_S 	S 	0.29036	0.13026	0.89261	0.029
Mof_C 	C 	0.32613	0.1815	0.90758	-0.025
Mof_C 	C 	0.32321	0.1392	0.868	-0.024
Mof_H 	H 	0.3341	0.1999	0.9181	0.036
Mof_C 	C 	0.3401	0.1669	0.8788	0.011
Mof_O 	O 	0.25293	0.65253	0.4499	-0.408
Mof_O 	O 	0.28346	0.69521	0.46213	-0.545
Mof_C 	C 	0.27694	0.67077	0.44486	0.381
Mof_C 	C 	0.29873	0.66351	0.41716	-0.117
Mof_S 	S 	0.29036	0.63026	0.39261	0.028
Mof_C 	C 	0.32613	0.6815	0.40758	-0.025
Mof_C 	C 	0.32321	0.6392	0.368	-0.023
Mof_H 	H 	0.3341	0.6999	0.4181	0.035
Mof_C 	C 	0.3401	0.6669	0.3788	0.011
Mof_O 	O 	0.15253	0.4499	0.75293	-0.408
Mof_O 	O 	0.19521	0.46213	0.78346	-0.545
Mof_C 	C 	0.17077	0.44486	0.77694	0.381
Mof_C 	C 	0.16351	0.41716	0.79873	-0.117
Mof_S 	S 	0.13026	0.39261	0.79036	0.028
Mof_C 	C 	0.1815	0.40758	0.82613	-0.025
Mof_C 	C 	0.1392	0.368	0.82321	-0.024
Mof_H 	H 	0.1999	0.4181	0.8341	0.035
Mof_C 	C 	0.1669	0.3788	0.8401	0.011
Mof_O 	O 	0.15253	0.9499	0.25293	-0.401
Mof_O 	O 	0.19521	0.96213	0.28346	-0.534
Mof_C 	C 	0.17077	0.94486	0.27694	0.379
Mof_C 	C 	0.16351	0.91716	0.29873	-0.114
Mof_S 	S 	0.13026	0.89261	0.29036	0.029
Mof_C 	C 	0.1815	0.90758	0.32613	-0.025
Mof_C 	C 	0.1392	0.868	0.32321	-0.024
Mof_H 	H 	0.1999	0.9181	0.3341	0.036
Mof_C 	C 	0.1669	0.8788	0.3401	0.011
Mof_O 	O 	0.65253	0.4499	0.25293	-0.408
Mof_O 	O 	0.69521	0.46213	0.28346	-0.545
Mof_C 	C 	0.67077	0.44486	0.27694	0.381
Mof_C 	C 	0.66351	0.41716	0.29873	-0.117
Mof_S 	S 	0.63026	0.39261	0.29036	0.028
Mof_C 	C 	0.6815	0.40758	0.32613	-0.025
Mof_C 	C 	0.6392	0.368	0.32321	-0.023
Mof_H 	H 	0.6999	0.4181	0.3341	0.035
Mof_C 	C 	0.6669	0.3788	0.3401	0.011
Mof_O 	O 	0.65253	0.9499	0.75293	-0.401
Mof_O 	O 	0.69521	0.96213	0.78346	-0.534
Mof_C 	C 	0.67077	0.94486	0.77694	0.379
Mof_C 	C 	0.66351	0.91716	0.79873	-0.114
Mof_S 	S 	0.63026	0.89261	0.79036	0.03
Mof_C 	C 	0.6815	0.90758	0.82613	-0.025
Mof_C 	C 	0.6392	0.868	0.82321	-0.024
Mof_H 	H 	0.6999	0.9181	0.8341	0.036
Mof_C 	C 	0.6669	0.8788	0.8401	0.012
Mof_O 	O 	0.84747	0.4499	0.24707	-0.407
Mof_O 	O 	0.80479	0.46213	0.21654	-0.545
Mof_C 	C 	0.82923	0.44486	0.22306	0.381
Mof_C 	C 	0.83649	0.41716	0.20127	-0.117
Mof_S 	S 	0.86974	0.39261	0.20964	0.03
Mof_C 	C 	0.8185	0.40758	0.17387	-0.024
Mof_C 	C 	0.8608	0.368	0.17679	-0.024
Mof_H 	H 	0.8001	0.4181	0.1659	0.034
Mof_C 	C 	0.8331	0.3788	0.1599	0.011
Mof_O 	O 	0.84747	0.9499	0.74707	-0.4
Mof_O 	O 	0.80479	0.96213	0.71654	-0.534
Mof_C 	C 	0.82923	0.94486	0.72306	0.379
Mof_C 	C 	0.83649	0.91716	0.70127	-0.114
Mof_S 	S 	0.86974	0.89261	0.70964	0.032
Mof_C 	C 	0.8185	0.90758	0.67387	-0.025
Mof_C 	C 	0.8608	0.868	0.67679	-0.024
Mof_H 	H 	0.8001	0.9181	0.6659	0.036
Mof_C 	C 	0.8331	0.8788	0.6599	0.012
Mof_O 	O 	0.34747	0.4499	0.74707	-0.408
Mof_O 	O 	0.30479	0.46213	0.71654	-0.545
Mof_C 	C 	0.32923	0.44486	0.72306	0.381
Mof_C 	C 	0.33649	0.41716	0.70127	-0.117
Mof_S 	S 	0.36974	0.39261	0.70964	0.028
Mof_C 	C 	0.3185	0.40758	0.67387	-0.025
Mof_C 	C 	0.3608	0.368	0.67679	-0.024
Mof_H 	H 	0.3001	0.4181	0.6659	0.035
Mof_C 	C 	0.3331	0.3788	0.6599	0.011
Mof_O 	O 	0.34747	0.9499	0.24707	-0.401
Mof_O 	O 	0.30479	0.96213	0.21654	-0.534
Mof_C 	C 	0.32923	0.94486	0.22306	0.379
Mof_C 	C 	0.33649	0.91716	0.20127	-0.114
Mof_S 	S 	0.36974	0.89261	0.20964	0.03
Mof_C 	C 	0.3185	0.90758	0.17387	-0.025
Mof_C 	C 	0.3608	0.868	0.17679	-0.024
Mof_H 	H 	0.3001	0.9181	0.1659	0.036
Mof_C 	C 	0.3331	0.8788	0.1599	0.011
Mof_O 	O 	0.84747	0.5501	0.75293	-0.407
Mof_O 	O 	0.80479	0.53787	0.78346	-0.545
Mof_C 	C 	0.82923	0.55514	0.77694	0.382
Mof_C 	C 	0.83649	0.58284	0.79873	-0.117
Mof_S 	S 	0.86974	0.60739	0.79036	0.03
Mof_C 	C 	0.8185	0.59242	0.82613	-0.024
Mof_C 	C 	0.8608	0.632	0.82321	-0.024
Mof_H 	H 	0.8001	0.5819	0.8341	0.035
Mof_C 	C 	0.8331	0.6212	0.8401	0.011
Mof_O 	O 	0.84747	0.0501	0.25293	-0.407
Mof_O 	O 	0.80479	0.03787	0.28346	-0.543
Mof_C 	C 	0.82923	0.05514	0.27694	0.38
Mof_C 	C 	0.83649	0.08284	0.29873	-0.117
Mof_S 	S 	0.86974	0.10739	0.29036	0.029
Mof_C 	C 	0.8185	0.09242	0.32613	-0.025
Mof_C 	C 	0.8608	0.132	0.32321	-0.024
Mof_H 	H 	0.8001	0.0819	0.3341	0.035
Mof_C 	C 	0.8331	0.1212	0.3401	0.011
Mof_O 	O 	0.34747	0.5501	0.25293	-0.408
Mof_O 	O 	0.30479	0.53787	0.28346	-0.545
Mof_C 	C 	0.32923	0.55514	0.27694	0.381
Mof_C 	C 	0.33649	0.58284	0.29873	-0.117
Mof_S 	S 	0.36974	0.60739	0.29036	0.028
Mof_C 	C 	0.3185	0.59242	0.32613	-0.025
Mof_C 	C 	0.3608	0.632	0.32321	-0.023
Mof_H 	H 	0.3001	0.5819	0.3341	0.035
Mof_C 	C 	0.3331	0.6212	0.3401	0.011
Mof_O 	O 	0.34747	0.0501	0.75293	-0.408
Mof_O 	O 	0.30479	0.03787	0.78346	-0.543
Mof_C 	C 	0.32923	0.05514	0.77694	0.38
Mof_C 	C 	0.33649	0.08284	0.79873	-0.116
Mof_S 	S 	0.36974	0.10739	0.79036	0.027
Mof_C 	C 	0.3185	0.09242	0.82613	-0.025
Mof_C 	C 	0.3608	0.132	0.82321	-0.023
Mof_H 	H 	0.3001	0.0819	0.8341	0.035
Mof_C 	C 	0.3331	0.1212	0.8401	0.011
Mof_O 	O 	0.15253	0.5501	0.24707	-0.408
Mof_O 	O 	0.19521	0.53787	0.21654	-0.545
Mof_C 	C 	0.17077	0.55514	0.22306	0.381
Mof_C 	C 	0.16351	0.58284	0.20127	-0.117
Mof_S 	S 	0.13026	0.60739	0.20964	0.027
Mof_C 	C 	0.1815	0.59242	0.17387	-0.025
Mof_C 	C 	0.1392	0.632	0.17679	-0.024
Mof_H 	H 	0.1999	0.5819	0.1659	0.034
Mof_C 	C 	0.1669	0.6212	0.1599	0.01
Mof_O 	O 	0.15253	0.0501	0.74707	-0.408
Mof_O 	O 	0.19521	0.03787	0.71654	-0.543
Mof_C 	C 	0.17077	0.05514	0.72306	0.38
Mof_C 	C 	0.16351	0.08284	0.70127	-0.117
Mof_S 	S 	0.13026	0.10739	0.70964	0.026
Mof_C 	C 	0.1815	0.09242	0.67387	-0.025
Mof_C 	C 	0.1392	0.132	0.67679	-0.023
Mof_H 	H 	0.1999	0.0819	0.6659	0.035
Mof_C 	C 	0.1669	0.1212	0.6599	0.01
Mof_O 	O 	0.65253	0.5501	0.74707	-0.408
Mof_O 	O 	0.69521	0.53787	0.71654	-0.545
Mof_C 	C 	0.67077	0.55514	0.72306	0.381
Mof_C 	C 	0.66351	0.58284	0.70127	-0.117
Mof_S 	S 	0.63026	0.60739	0.70964	0.028
Mof_C 	C 	0.6815	0.59242	0.67387	-0.025
Mof_C 	C 	0.6392	0.632	0.67679	-0.024
Mof_H 	H 	0.6999	0.5819	0.6659	0.034
Mof_C 	C 	0.6669	0.6212	0.6599	0.01
Mof_O 	O 	0.65253	0.0501	0.24707	-0.408
Mof_O 	O 	0.69521	0.03787	0.21654	-0.543
Mof_C 	C 	0.67077	0.05514	0.22306	0.38
Mof_C 	C 	0.66351	0.08284	0.20127	-0.117
Mof_S 	S 	0.63026	0.10739	0.20964	0.027
Mof_C 	C 	0.6815	0.09242	0.17387	-0.025
Mof_C 	C 	0.6392	0.132	0.17679	-0.023
Mof_H 	H 	0.6999	0.0819	0.1659	0.034
Mof_C 	C 	0.6669	0.1212	0.1599	0.01
Mof_O 	O 	0.4499	0.24707	0.84747	-0.407
Mof_O 	O 	0.46213	0.21654	0.80479	-0.545
Mof_C 	C 	0.44486	0.22306	0.82923	0.381
Mof_C 	C 	0.41716	0.20127	0.83649	-0.117
Mof_S 	S 	0.39261	0.20964	0.86974	0.03
Mof_C 	C 	0.40758	0.17387	0.8185	-0.024
Mof_C 	C 	0.368	0.17679	0.8608	-0.024
Mof_H 	H 	0.4181	0.1659	0.8001	0.034
Mof_C 	C 	0.3788	0.1599	0.8331	0.011
Mof_O 	O 	0.4499	0.74707	0.34747	-0.408
Mof_O 	O 	0.46213	0.71654	0.30479	-0.545
Mof_C 	C 	0.44486	0.72306	0.32923	0.381
Mof_C 	C 	0.41716	0.70127	0.33649	-0.117
Mof_S 	S 	0.39261	0.70964	0.36974	0.028
Mof_C 	C 	0.40758	0.67387	0.3185	-0.025
Mof_C 	C 	0.368	0.67679	0.3608	-0.024
Mof_H 	H 	0.4181	0.6659	0.3001	0.035
Mof_C 	C 	0.3788	0.6599	0.3331	0.011
Mof_O 	O 	0.9499	0.24707	0.34747	-0.401
Mof_O 	O 	0.96213	0.21654	0.30479	-0.534
Mof_C 	C 	0.94486	0.22306	0.32923	0.379
Mof_C 	C 	0.91716	0.20127	0.33649	-0.114
Mof_S 	S 	0.89261	0.20964	0.36974	0.03
Mof_C 	C 	0.90758	0.17387	0.3185	-0.025
Mof_C 	C 	0.868	0.17679	0.3608	-0.024
Mof_H 	H 	0.9181	0.1659	0.3001	0.036
Mof_C 	C 	0.8788	0.1599	0.3331	0.011
Mof_O 	O 	0.9499	0.74707	0.84747	-0.4
Mof_O 	O 	0.96213	0.71654	0.80479	-0.534
Mof_C 	C 	0.94486	0.72306	0.82923	0.379
Mof_C 	C 	0.91716	0.70127	0.83649	-0.114
Mof_S 	S 	0.89261	0.70964	0.86974	0.032
Mof_C 	C 	0.90758	0.67387	0.8185	-0.025
Mof_C 	C 	0.868	0.67679	0.8608	-0.024
Mof_H 	H 	0.9181	0.6659	0.8001	0.036
Mof_C 	C 	0.8788	0.6599	0.8331	0.012
Mof_O 	O 	0.4499	0.75293	0.15253	-0.408
Mof_O 	O 	0.46213	0.78346	0.19521	-0.545
Mof_C 	C 	0.44486	0.77694	0.17077	0.381
Mof_C 	C 	0.41716	0.79873	0.16351	-0.117
Mof_S 	S 	0.39261	0.79036	0.13026	0.028
Mof_C 	C 	0.40758	0.82613	0.1815	-0.025
Mof_C 	C 	0.368	0.82321	0.1392	-0.024
Mof_H 	H 	0.4181	0.8341	0.1999	0.035
Mof_C 	C 	0.3788	0.8401	0.1669	0.011
Mof_O 	O 	0.4499	0.25293	0.65253	-0.408
Mof_O 	O 	0.46213	0.28346	0.69521	-0.545
Mof_C 	C 	0.44486	0.27694	0.67077	0.381
Mof_C 	C 	0.41716	0.29873	0.66351	-0.117
Mof_S 	S 	0.39261	0.29036	0.63026	0.028
Mof_C 	C 	0.40758	0.32613	0.6815	-0.025
Mof_C 	C 	0.368	0.32321	0.6392	-0.023
Mof_H 	H 	0.4181	0.3341	0.6999	0.035
Mof_C 	C 	0.3788	0.3401	0.6669	0.011
Mof_O 	O 	0.9499	0.75293	0.65253	-0.401
Mof_O 	O 	0.96213	0.78346	0.69521	-0.534
Mof_C 	C 	0.94486	0.77694	0.67077	0.379
Mof_C 	C 	0.91716	0.79873	0.66351	-0.114
Mof_S 	S 	0.89261	0.79036	0.63026	0.03
Mof_C 	C 	0.90758	0.82613	0.6815	-0.025
Mof_C 	C 	0.868	0.82321	0.6392	-0.024
Mof_H 	H 	0.9181	0.8341	0.6999	0.036
Mof_C 	C 	0.8788	0.8401	0.6669	0.012
Mof_O 	O 	0.9499	0.25293	0.15253	-0.401
Mof_O 	O 	0.96213	0.28346	0.19521	-0.534
Mof_C 	C 	0.94486	0.27694	0.17077	0.379
Mof_C 	C 	0.91716	0.29873	0.16351	-0.114
Mof_S 	S 	0.89261	0.29036	0.13026	0.029
Mof_C 	C 	0.90758	0.32613	0.1815	-0.025
Mof_C 	C 	0.868	0.32321	0.1392	-0.024
Mof_H 	H 	0.9181	0.3341	0.1999	0.036
Mof_C 	C 	0.8788	0.3401	0.1669	0.011
Mof_O 	O 	0.5501	0.24707	0.15253	-0.408
Mof_O 	O 	0.53787	0.21654	0.19521	-0.545
Mof_C 	C 	0.55514	0.22306	0.17077	0.381
Mof_C 	C 	0.58284	0.20127	0.16351	-0.117
Mof_S 	S 	0.60739	0.20964	0.13026	0.027
Mof_C 	C 	0.59242	0.17387	0.1815	-0.025
Mof_C 	C 	0.632	0.17679	0.1392	-0.024
Mof_H 	H 	0.5819	0.1659	0.1999	0.034
Mof_C 	C 	0.6212	0.1599	0.1669	0.01
Mof_O 	O 	0.5501	0.74707	0.65253	-0.408
Mof_O 	O 	0.53787	0.71654	0.69521	-0.545
Mof_C 	C 	0.55514	0.72306	0.67077	0.381
Mof_C 	C 	0.58284	0.70127	0.66351	-0.117
Mof_S 	S 	0.60739	0.70964	0.63026	0.028
Mof_C 	C 	0.59242	0.67387	0.6815	-0.025
Mof_C 	C 	0.632	0.67679	0.6392	-0.024
Mof_H 	H 	0.5819	0.6659	0.6999	0.034
Mof_C 	C 	0.6212	0.6599	0.6669	0.01
Mof_O 	O 	0.0501	0.24707	0.65253	-0.408
Mof_O 	O 	0.03787	0.21654	0.69521	-0.543
Mof_C 	C 	0.05514	0.22306	0.67077	0.38
Mof_C 	C 	0.08284	0.20127	0.66351	-0.117
Mof_S 	S 	0.10739	0.20964	0.63026	0.027
Mof_C 	C 	0.09242	0.17387	0.6815	-0.025
Mof_C 	C 	0.132	0.17679	0.6392	-0.023
Mof_H 	H 	0.0819	0.1659	0.6999	0.034
Mof_C 	C 	0.1212	0.1599	0.6669	0.01
Mof_O 	O 	0.0501	0.74707	0.15253	-0.408
Mof_O 	O 	0.03787	0.71654	0.19521	-0.543
Mof_C 	C 	0.05514	0.72306	0.17077	0.38
Mof_C 	C 	0.08284	0.70127	0.16351	-0.117
Mof_S 	S 	0.10739	0.70964	0.13026	0.026
Mof_C 	C 	0.09242	0.67387	0.1815	-0.025
Mof_C 	C 	0.132	0.67679	0.1392	-0.023
Mof_H 	H 	0.0819	0.6659	0.1999	0.035
Mof_C 	C 	0.1212	0.6599	0.1669	0.01
Mof_O 	O 	0.5501	0.75293	0.84747	-0.407
Mof_O 	O 	0.53787	0.78346	0.80479	-0.545
Mof_C 	C 	0.55514	0.77694	0.82923	0.382
Mof_C 	C 	0.58284	0.79873	0.83649	-0.117
Mof_S 	S 	0.60739	0.79036	0.86974	0.03
Mof_C 	C 	0.59242	0.82613	0.8185	-0.024
Mof_C 	C 	0.632	0.82321	0.8608	-0.024
Mof_H 	H 	0.5819	0.8341	0.8001	0.035
Mof_C 	C 	0.6212	0.8401	0.8331	0.011
Mof_O 	O 	0.5501	0.25293	0.34747	-0.408
Mof_O 	O 	0.53787	0.28346	0.30479	-0.545
Mof_C 	C 	0.55514	0.27694	0.32923	0.381
Mof_C 	C 	0.58284	0.29873	0.33649	-0.117
Mof_S 	S 	0.60739	0.29036	0.36974	0.028
Mof_C 	C 	0.59242	0.32613	0.3185	-0.025
Mof_C 	C 	0.632	0.32321	0.3608	-0.023
Mof_H 	H 	0.5819	0.3341	0.3001	0.035
Mof_C 	C 	0.6212	0.3401	0.3331	0.011
Mof_O 	O 	0.0501	0.75293	0.34747	-0.408
Mof_O 	O 	0.03787	0.78346	0.30479	-0.543
Mof_C 	C 	0.05514	0.77694	0.32923	0.38
Mof_C 	C 	0.08284	0.79873	0.33649	-0.116
Mof_S 	S 	0.10739	0.79036	0.36974	0.027
Mof_C 	C 	0.09242	0.82613	0.3185	-0.025
Mof_C 	C 	0.132	0.82321	0.3608	-0.023
Mof_H 	H 	0.0819	0.8341	0.3001	0.035
Mof_C 	C 	0.1212	0.8401	0.3331	0.011
Mof_O 	O 	0.0501	0.25293	0.84747	-0.407
Mof_O 	O 	0.03787	0.28346	0.80479	-0.543
Mof_C 	C 	0.05514	0.27694	0.82923	0.38
Mof_C 	C 	0.08284	0.29873	0.83649	-0.117
Mof_S 	S 	0.10739	0.29036	0.86974	0.029
Mof_C 	C 	0.09242	0.32613	0.8185	-0.025
Mof_C 	C 	0.132	0.32321	0.8608	-0.024
Mof_H 	H 	0.0819	0.3341	0.8001	0.035
Mof_C 	C 	0.1212	0.3401	0.8331	0.011
Mof_O 	O 	0.34747	0.25293	0.0501	-0.408
Mof_O 	O 	0.30479	0.28346	0.03787	-0.543
Mof_C 	C 	0.32923	0.27694	0.05514	0.38
Mof_C 	C 	0.33649	0.29873	0.08284	-0.117
Mof_S 	S 	0.36974	0.29036	0.10739	0.027
Mof_C 	C 	0.3185	0.32613	0.09242	-0.025
Mof_C 	C 	0.3608	0.32321	0.132	-0.023
Mof_H 	H 	0.3001	0.3341	0.0819	0.035
Mof_C 	C 	0.3331	0.3401	0.1212	0.01
Mof_O 	O 	0.34747	0.75293	0.5501	-0.408
Mof_O 	O 	0.30479	0.78346	0.53787	-0.545
Mof_C 	C 	0.32923	0.77694	0.55514	0.382
Mof_C 	C 	0.33649	0.79873	0.58284	-0.117
Mof_S 	S 	0.36974	0.79036	0.60739	0.029
Mof_C 	C 	0.3185	0.82613	0.59242	-0.025
Mof_C 	C 	0.3608	0.82321	0.632	-0.024
Mof_H 	H 	0.3001	0.8341	0.5819	0.035
Mof_C 	C 	0.3331	0.8401	0.6212	0.011
Mof_O 	O 	0.84747	0.25293	0.5501	-0.407
Mof_O 	O 	0.80479	0.28346	0.53787	-0.545
Mof_C 	C 	0.82923	0.27694	0.55514	0.382
Mof_C 	C 	0.83649	0.29873	0.58284	-0.117
Mof_S 	S 	0.86974	0.29036	0.60739	0.03
Mof_C 	C 	0.8185	0.32613	0.59242	-0.024
Mof_C 	C 	0.8608	0.32321	0.632	-0.024
Mof_H 	H 	0.8001	0.3341	0.5819	0.035
Mof_C 	C 	0.8331	0.3401	0.6212	0.011
Mof_O 	O 	0.84747	0.75293	0.0501	-0.407
Mof_O 	O 	0.80479	0.78346	0.03787	-0.543
Mof_C 	C 	0.82923	0.77694	0.05514	0.38
Mof_C 	C 	0.83649	0.79873	0.08284	-0.116
Mof_S 	S 	0.86974	0.79036	0.10739	0.029
Mof_C 	C 	0.8185	0.82613	0.09242	-0.025
Mof_C 	C 	0.8608	0.82321	0.132	-0.024
Mof_H 	H 	0.8001	0.8341	0.0819	0.035
Mof_C 	C 	0.8331	0.8401	0.1212	0.011
Mof_O 	O 	0.65253	0.74707	0.0501	-0.408
Mof_O 	O 	0.69521	0.71654	0.03787	-0.543
Mof_C 	C 	0.67077	0.72306	0.05514	0.38
Mof_C 	C 	0.66351	0.70127	0.08284	-0.117
Mof_S 	S 	0.63026	0.70964	0.10739	0.027
Mof_C 	C 	0.6815	0.67387	0.09242	-0.025
Mof_C 	C 	0.6392	0.67679	0.132	-0.023
Mof_H 	H 	0.6999	0.6659	0.0819	0.035
Mof_C 	C 	0.6669	0.6599	0.1212	0.01
Mof_O 	O 	0.65253	0.24707	0.5501	-0.408
Mof_O 	O 	0.69521	0.21654	0.53787	-0.545
Mof_C 	C 	0.67077	0.22306	0.55514	0.381
Mof_C 	C 	0.66351	0.20127	0.58284	-0.117
Mof_S 	S 	0.63026	0.20964	0.60739	0.028
Mof_C 	C 	0.6815	0.17387	0.59242	-0.025
Mof_C 	C 	0.6392	0.17679	0.632	-0.024
Mof_H 	H 	0.6999	0.1659	0.5819	0.034
Mof_C 	C 	0.6669	0.1599	0.6212	0.01
Mof_O 	O 	0.15253	0.74707	0.5501	-0.408
Mof_O 	O 	0.19521	0.71654	0.53787	-0.545
Mof_C 	C 	0.17077	0.72306	0.55514	0.381
Mof_C 	C 	0.16351	0.70127	0.58284	-0.117
Mof_S 	S 	0.13026	0.70964	0.60739	0.027
Mof_C 	C 	0.1815	0.67387	0.59242	-0.025
Mof_C 	C 	0.1392	0.67679	0.632	-0.024
Mof_H 	H 	0.1999	0.6659	0.5819	0.034
Mof_C 	C 	0.1669	0.6599	0.6212	0.01
Mof_O 	O 	0.15253	0.24707	0.0501	-0.408
Mof_O 	O 	0.19521	0.21654	0.03787	-0.543
Mof_C 	C 	0.17077	0.22306	0.05514	0.38
Mof_C 	C 	0.16351	0.20127	0.08284	-0.117
Mof_S 	S 	0.13026	0.20964	0.10739	0.026
Mof_C 	C 	0.1815	0.17387	0.09242	-0.025
Mof_C 	C 	0.1392	0.17679	0.132	-0.023
Mof_H 	H 	0.1999	0.1659	0.0819	0.034
Mof_C 	C 	0.1669	0.1599	0.1212	0.01
Mof_O 	O 	0.65253	0.25293	0.9499	-0.401
Mof_O 	O 	0.69521	0.28346	0.96213	-0.534
Mof_C 	C 	0.67077	0.27694	0.94486	0.379
Mof_C 	C 	0.66351	0.29873	0.91716	-0.114
Mof_S 	S 	0.63026	0.29036	0.89261	0.03
Mof_C 	C 	0.6815	0.32613	0.90758	-0.025
Mof_C 	C 	0.6392	0.32321	0.868	-0.024
Mof_H 	H 	0.6999	0.3341	0.9181	0.036
Mof_C 	C 	0.6669	0.3401	0.8788	0.012
Mof_O 	O 	0.65253	0.75293	0.4499	-0.408
Mof_O 	O 	0.69521	0.78346	0.46213	-0.545
Mof_C 	C 	0.67077	0.77694	0.44486	0.381
Mof_C 	C 	0.66351	0.79873	0.41716	-0.117
Mof_S 	S 	0.63026	0.79036	0.39261	0.029
Mof_C 	C 	0.6815	0.82613	0.40758	-0.025
Mof_C 	C 	0.6392	0.82321	0.368	-0.024
Mof_H 	H 	0.6999	0.8341	0.4181	0.035
Mof_C 	C 	0.6669	0.8401	0.3788	0.011
Mof_O 	O 	0.15253	0.25293	0.4499	-0.408
Mof_O 	O 	0.19521	0.28346	0.46213	-0.545
Mof_C 	C 	0.17077	0.27694	0.44486	0.381
Mof_C 	C 	0.16351	0.29873	0.41716	-0.117
Mof_S 	S 	0.13026	0.29036	0.39261	0.027
Mof_C 	C 	0.1815	0.32613	0.40758	-0.025
Mof_C 	C 	0.1392	0.32321	0.368	-0.023
Mof_H 	H 	0.1999	0.3341	0.4181	0.034
Mof_C 	C 	0.1669	0.3401	0.3788	0.01
Mof_O 	O 	0.15253	0.75293	0.9499	-0.401
Mof_O 	O 	0.19521	0.78346	0.96213	-0.534
Mof_C 	C 	0.17077	0.77694	0.94486	0.379
Mof_C 	C 	0.16351	0.79873	0.91716	-0.114
Mof_S 	S 	0.13026	0.79036	0.89261	0.029
Mof_C 	C 	0.1815	0.82613	0.90758	-0.025
Mof_C 	C 	0.1392	0.82321	0.868	-0.024
Mof_H 	H 	0.1999	0.8341	0.9181	0.036
Mof_C 	C 	0.1669	0.8401	0.8788	0.012
Mof_O 	O 	0.34747	0.74707	0.9499	-0.401
Mof_O 	O 	0.30479	0.71654	0.96213	-0.534
Mof_C 	C 	0.32923	0.72306	0.94486	0.379
Mof_C 	C 	0.33649	0.70127	0.91716	-0.114
Mof_S 	S 	0.36974	0.70964	0.89261	0.03
Mof_C 	C 	0.3185	0.67387	0.90758	-0.025
Mof_C 	C 	0.3608	0.67679	0.868	-0.024
Mof_H 	H 	0.3001	0.6659	0.9181	0.036
Mof_C 	C 	0.3331	0.6599	0.8788	0.012
Mof_O 	O 	0.34747	0.24707	0.4499	-0.408
Mof_O 	O 	0.30479	0.21654	0.46213	-0.545
Mof_C 	C 	0.32923	0.22306	0.44486	0.381
Mof_C 	C 	0.33649	0.20127	0.41716	-0.117
Mof_S 	S 	0.36974	0.20964	0.39261	0.028
Mof_C 	C 	0.3185	0.17387	0.40758	-0.025
Mof_C 	C 	0.3608	0.17679	0.368	-0.023
Mof_H 	H 	0.3001	0.1659	0.4181	0.034
Mof_C 	C 	0.3331	0.1599	0.3788	0.01
Mof_O 	O 	0.84747	0.74707	0.4499	-0.407
Mof_O 	O 	0.80479	0.71654	0.46213	-0.545
Mof_C 	C 	0.82923	0.72306	0.44486	0.381
Mof_C 	C 	0.83649	0.70127	0.41716	-0.117
Mof_S 	S 	0.86974	0.70964	0.39261	0.03
Mof_C 	C 	0.8185	0.67387	0.40758	-0.024
Mof_C 	C 	0.8608	0.67679	0.368	-0.024
Mof_H 	H 	0.8001	0.6659	0.4181	0.035
Mof_C 	C 	0.8331	0.6599	0.3788	0.011
Mof_O 	O 	0.84747	0.24707	0.9499	-0.4
Mof_O 	O 	0.80479	0.21654	0.96213	-0.534
Mof_C 	C 	0.82923	0.22306	0.94486	0.379
Mof_C 	C 	0.83649	0.20127	0.91716	-0.114
Mof_S 	S 	0.86974	0.20964	0.89261	0.031
Mof_C 	C 	0.8185	0.17387	0.90758	-0.025
Mof_C 	C 	0.8608	0.17679	0.868	-0.024
Mof_H 	H 	0.8001	0.1659	0.9181	0.036
Mof_C 	C 	0.8331	0.1599	0.8788	0.012
Mof_O 	O 	0.0501	0.34747	0.25293	-0.408
Mof_O 	O 	0.03787	0.30479	0.28346	-0.543
Mof_C 	C 	0.05514	0.32923	0.27694	0.38
Mof_C 	C 	0.08284	0.33649	0.29873	-0.117
Mof_S 	S 	0.10739	0.36974	0.29036	0.027
Mof_C 	C 	0.09242	0.3185	0.32613	-0.025
Mof_C 	C 	0.132	0.3608	0.32321	-0.023
Mof_H 	H 	0.0819	0.3001	0.3341	0.035
Mof_C 	C 	0.1212	0.3331	0.3401	0.01
Mof_O 	O 	0.0501	0.84747	0.75293	-0.407
Mof_O 	O 	0.03787	0.80479	0.78346	-0.543
Mof_C 	C 	0.05514	0.82923	0.77694	0.38
Mof_C 	C 	0.08284	0.83649	0.79873	-0.116
Mof_S 	S 	0.10739	0.86974	0.79036	0.029
Mof_C 	C 	0.09242	0.8185	0.82613	-0.025
Mof_C 	C 	0.132	0.8608	0.82321	-0.024
Mof_H 	H 	0.0819	0.8001	0.8341	0.035
Mof_C 	C 	0.1212	0.8331	0.8401	0.011
Mof_O 	O 	0.5501	0.34747	0.75293	-0.408
Mof_O 	O 	0.53787	0.30479	0.78346	-0.545
Mof_C 	C 	0.55514	0.32923	0.77694	0.382
Mof_C 	C 	0.58284	0.33649	0.79873	-0.117
Mof_S 	S 	0.60739	0.36974	0.79036	0.029
Mof_C 	C 	0.59242	0.3185	0.82613	-0.025
Mof_C 	C 	0.632	0.3608	0.82321	-0.024
Mof_H 	H 	0.5819	0.3001	0.8341	0.035
Mof_C 	C 	0.6212	0.3331	0.8401	0.011
Mof_O 	O 	0.5501	0.84747	0.25293	-0.407
Mof_O 	O 	0.53787	0.80479	0.28346	-0.545
Mof_C 	C 	0.55514	0.82923	0.27694	0.382
Mof_C 	C 	0.58284	0.83649	0.29873	-0.117
Mof_S 	S 	0.60739	0.86974	0.29036	0.03
Mof_C 	C 	0.59242	0.8185	0.32613	-0.024
Mof_C 	C 	0.632	0.8608	0.32321	-0.024
Mof_H 	H 	0.5819	0.8001	0.3341	0.035
Mof_C 	C 	0.6212	0.8331	0.3401	0.011
Mof_O 	O 	0.0501	0.65253	0.74707	-0.408
Mof_O 	O 	0.03787	0.69521	0.71654	-0.543
Mof_C 	C 	0.05514	0.67077	0.72306	0.38
Mof_C 	C 	0.08284	0.66351	0.70127	-0.117
Mof_S 	S 	0.10739	0.63026	0.70964	0.027
Mof_C 	C 	0.09242	0.6815	0.67387	-0.025
Mof_C 	C 	0.132	0.6392	0.67679	-0.023
Mof_H 	H 	0.0819	0.6999	0.6659	0.035
Mof_C 	C 	0.1212	0.6669	0.6599	0.01
Mof_O 	O 	0.0501	0.15253	0.24707	-0.408
Mof_O 	O 	0.03787	0.19521	0.21654	-0.543
Mof_C 	C 	0.05514	0.17077	0.22306	0.38
Mof_C 	C 	0.08284	0.16351	0.20127	-0.117
Mof_S 	S 	0.10739	0.13026	0.20964	0.026
Mof_C 	C 	0.09242	0.1815	0.17387	-0.025
Mof_C 	C 	0.132	0.1392	0.17679	-0.023
Mof_H 	H 	0.0819	0.1999	0.1659	0.034
Mof_C 	C 	0.1212	0.1669	0.1599	0.01
Mof_O 	O 	0.5501	0.65253	0.24707	-0.408
Mof_O 	O 	0.53787	0.69521	0.21654	-0.545
Mof_C 	C 	0.55514	0.67077	0.22306	0.381
Mof_C 	C 	0.58284	0.66351	0.20127	-0.117
Mof_S 	S 	0.60739	0.63026	0.20964	0.028
Mof_C 	C 	0.59242	0.6815	0.17387	-0.025
Mof_C 	C 	0.632	0.6392	0.17679	-0.024
Mof_H 	H 	0.5819	0.6999	0.1659	0.034
Mof_C 	C 	0.6212	0.6669	0.1599	0.01
Mof_O 	O 	0.5501	0.15253	0.74707	-0.408
Mof_O 	O 	0.53787	0.19521	0.71654	-0.545
Mof_C 	C 	0.55514	0.17077	0.72306	0.381
Mof_C 	C 	0.58284	0.16351	0.70127	-0.117
Mof_S 	S 	0.60739	0.13026	0.70964	0.027
Mof_C 	C 	0.59242	0.1815	0.67387	-0.025
Mof_C 	C 	0.632	0.1392	0.67679	-0.024
Mof_H 	H 	0.5819	0.1999	0.6659	0.034
Mof_C 	C 	0.6212	0.1669	0.6599	0.01
Mof_O 	O 	0.9499	0.65253	0.25293	-0.401
Mof_O 	O 	0.96213	0.69521	0.28346	-0.534
Mof_C 	C 	0.94486	0.67077	0.27694	0.379
Mof_C 	C 	0.91716	0.66351	0.29873	-0.114
Mof_S 	S 	0.89261	0.63026	0.29036	0.03
Mof_C 	C 	0.90758	0.6815	0.32613	-0.025
Mof_C 	C 	0.868	0.6392	0.32321	-0.024
Mof_H 	H 	0.9181	0.6999	0.3341	0.036
Mof_C 	C 	0.8788	0.6669	0.3401	0.012
Mof_O 	O 	0.9499	0.15253	0.75293	-0.401
Mof_O 	O 	0.96213	0.19521	0.78346	-0.534
Mof_C 	C 	0.94486	0.17077	0.77694	0.379
Mof_C 	C 	0.91716	0.16351	0.79873	-0.114
Mof_S 	S 	0.89261	0.13026	0.79036	0.029
Mof_C 	C 	0.90758	0.1815	0.82613	-0.025
Mof_C 	C 	0.868	0.1392	0.82321	-0.024
Mof_H 	H 	0.9181	0.1999	0.8341	0.036
Mof_C 	C 	0.8788	0.1669	0.8401	0.012
Mof_O 	O 	0.4499	0.65253	0.75293	-0.408
Mof_O 	O 	0.46213	0.69521	0.78346	-0.545
Mof_C 	C 	0.44486	0.67077	0.77694	0.381
Mof_C 	C 	0.41716	0.66351	0.79873	-0.117
Mof_S 	S 	0.39261	0.63026	0.79036	0.029
Mof_C 	C 	0.40758	0.6815	0.82613	-0.025
Mof_C 	C 	0.368	0.6392	0.82321	-0.024
Mof_H 	H 	0.4181	0.6999	0.8341	0.035
Mof_C 	C 	0.3788	0.6669	0.8401	0.011
Mof_O 	O 	0.4499	0.15253	0.25293	-0.408
Mof_O 	O 	0.46213	0.19521	0.28346	-0.545
Mof_C 	C 	0.44486	0.17077	0.27694	0.381
Mof_C 	C 	0.41716	0.16351	0.29873	-0.117
Mof_S 	S 	0.39261	0.13026	0.29036	0.027
Mof_C 	C 	0.40758	0.1815	0.32613	-0.025
Mof_C 	C 	0.368	0.1392	0.32321	-0.023
Mof_H 	H 	0.4181	0.1999	0.3341	0.034
Mof_C 	C 	0.3788	0.1669	0.3401	0.01
Mof_O 	O 	0.9499	0.34747	0.74707	-0.401
Mof_O 	O 	0.96213	0.30479	0.71654	-0.534
Mof_C 	C 	0.94486	0.32923	0.72306	0.379
Mof_C 	C 	0.91716	0.33649	0.70127	-0.114
Mof_S 	S 	0.89261	0.36974	0.70964	0.03
Mof_C 	C 	0.90758	0.3185	0.67387	-0.025
Mof_C 	C 	0.868	0.3608	0.67679	-0.024
Mof_H 	H 	0.9181	0.3001	0.6659	0.036
Mof_C 	C 	0.8788	0.3331	0.6599	0.012
Mof_O 	O 	0.9499	0.84747	0.24707	-0.4
Mof_O 	O 	0.96213	0.80479	0.21654	-0.534
Mof_C 	C 	0.94486	0.82923	0.22306	0.379
Mof_C 	C 	0.91716	0.83649	0.20127	-0.114
Mof_S 	S 	0.89261	0.86974	0.20964	0.031
Mof_C 	C 	0.90758	0.8185	0.17387	-0.025
Mof_C 	C 	0.868	0.8608	0.17679	-0.024
Mof_H 	H 	0.9181	0.8001	0.1659	0.036
Mof_C 	C 	0.8788	0.8331	0.1599	0.012
Mof_O 	O 	0.4499	0.34747	0.24707	-0.408
Mof_O 	O 	0.46213	0.30479	0.21654	-0.545
Mof_C 	C 	0.44486	0.32923	0.22306	0.381
Mof_C 	C 	0.41716	0.33649	0.20127	-0.117
Mof_S 	S 	0.39261	0.36974	0.20964	0.028
Mof_C 	C 	0.40758	0.3185	0.17387	-0.025
Mof_C 	C 	0.368	0.3608	0.17679	-0.023
Mof_H 	H 	0.4181	0.3001	0.1659	0.034
Mof_C 	C 	0.3788	0.3331	0.1599	0.01
Mof_O 	O 	0.4499	0.84747	0.74707	-0.407
Mof_O 	O 	0.46213	0.80479	0.71654	-0.545
Mof_C 	C 	0.44486	0.82923	0.72306	0.381
Mof_C 	C 	0.41716	0.83649	0.70127	-0.117
Mof_S 	S 	0.39261	0.86974	0.70964	0.03
Mof_C 	C 	0.40758	0.8185	0.67387	-0.024
Mof_C 	C 	0.368	0.8608	0.67679	-0.024
Mof_H 	H 	0.4181	0.8001	0.6659	0.035
Mof_C 	C 	0.3788	0.8331	0.6599	0.011
Mof_O 	O 	0.25293	0.0501	0.34747	-0.408
Mof_O 	O 	0.28346	0.03787	0.30479	-0.543
Mof_C 	C 	0.27694	0.05514	0.32923	0.38
Mof_C 	C 	0.29873	0.08284	0.33649	-0.117
Mof_S 	S 	0.29036	0.10739	0.36974	0.027
Mof_C 	C 	0.32613	0.09242	0.3185	-0.025
Mof_C 	C 	0.32321	0.132	0.3608	-0.023
Mof_H 	H 	0.3341	0.0819	0.3001	0.035
Mof_C 	C 	0.3401	0.1212	0.3331	0.01
Mof_O 	O 	0.25293	0.5501	0.84747	-0.407
Mof_O 	O 	0.28346	0.53787	0.80479	-0.545
Mof_C 	C 	0.27694	0.55514	0.82923	0.382
Mof_C 	C 	0.29873	0.58284	0.83649	-0.117
Mof_S 	S 	0.29036	0.60739	0.86974	0.03
Mof_C 	C 	0.32613	0.59242	0.8185	-0.024
Mof_C 	C 	0.32321	0.632	0.8608	-0.024
Mof_H 	H 	0.3341	0.5819	0.8001	0.035
Mof_C 	C 	0.3401	0.6212	0.8331	0.011
Mof_O 	O 	0.75293	0.0501	0.84747	-0.407
Mof_O 	O 	0.78346	0.03787	0.80479	-0.543
Mof_C 	C 	0.77694	0.05514	0.82923	0.38
Mof_C 	C 	0.79873	0.08284	0.83649	-0.116
Mof_S 	S 	0.79036	0.10739	0.86974	0.029
Mof_C 	C 	0.82613	0.09242	0.8185	-0.025
Mof_C 	C 	0.82321	0.132	0.8608	-0.024
Mof_H 	H 	0.8341	0.0819	0.8001	0.035
Mof_C 	C 	0.8401	0.1212	0.8331	0.011
Mof_O 	O 	0.75293	0.5501	0.34747	-0.408
Mof_O 	O 	0.78346	0.53787	0.30479	-0.545
Mof_C 	C 	0.77694	0.55514	0.32923	0.382
Mof_C 	C 	0.79873	0.58284	0.33649	-0.117
Mof_S 	S 	0.79036	0.60739	0.36974	0.029
Mof_C 	C 	0.82613	0.59242	0.3185	-0.025
Mof_C 	C 	0.82321	0.632	0.3608	-0.024
Mof_H 	H 	0.8341	0.5819	0.3001	0.035
Mof_C 	C 	0.8401	0.6212	0.3331	0.011
Mof_O 	O 	0.74707	0.0501	0.65253	-0.408
Mof_O 	O 	0.71654	0.03787	0.69521	-0.543
Mof_C 	C 	0.72306	0.05514	0.67077	0.38
Mof_C 	C 	0.70127	0.08284	0.66351	-0.117
Mof_S 	S 	0.70964	0.10739	0.63026	0.027
Mof_C 	C 	0.67387	0.09242	0.6815	-0.025
Mof_C 	C 	0.67679	0.132	0.6392	-0.023
Mof_H 	H 	0.6659	0.0819	0.6999	0.035
Mof_C 	C 	0.6599	0.1212	0.6669	0.01
Mof_O 	O 	0.74707	0.5501	0.15253	-0.408
Mof_O 	O 	0.71654	0.53787	0.19521	-0.545
Mof_C 	C 	0.72306	0.55514	0.17077	0.381
Mof_C 	C 	0.70127	0.58284	0.16351	-0.117
Mof_S 	S 	0.70964	0.60739	0.13026	0.027
Mof_C 	C 	0.67387	0.59242	0.1815	-0.025
Mof_C 	C 	0.67679	0.632	0.1392	-0.024
Mof_H 	H 	0.6659	0.5819	0.1999	0.034
Mof_C 	C 	0.6599	0.6212	0.1669	0.01
Mof_O 	O 	0.24707	0.0501	0.15253	-0.408
Mof_O 	O 	0.21654	0.03787	0.19521	-0.543
Mof_C 	C 	0.22306	0.05514	0.17077	0.38
Mof_C 	C 	0.20127	0.08284	0.16351	-0.117
Mof_S 	S 	0.20964	0.10739	0.13026	0.026
Mof_C 	C 	0.17387	0.09242	0.1815	-0.025
Mof_C 	C 	0.17679	0.132	0.1392	-0.023
Mof_H 	H 	0.1659	0.0819	0.1999	0.034
Mof_C 	C 	0.1599	0.1212	0.1669	0.01
Mof_O 	O 	0.24707	0.5501	0.65253	-0.408
Mof_O 	O 	0.21654	0.53787	0.69521	-0.545
Mof_C 	C 	0.22306	0.55514	0.67077	0.381
Mof_C 	C 	0.20127	0.58284	0.66351	-0.117
Mof_S 	S 	0.20964	0.60739	0.63026	0.028
Mof_C 	C 	0.17387	0.59242	0.6815	-0.025
Mof_C 	C 	0.17679	0.632	0.6392	-0.024
Mof_H 	H 	0.1659	0.5819	0.6999	0.034
Mof_C 	C 	0.1599	0.6212	0.6669	0.01
Mof_O 	O 	0.25293	0.9499	0.65253	-0.401
Mof_O 	O 	0.28346	0.96213	0.69521	-0.534
Mof_C 	C 	0.27694	0.94486	0.67077	0.379
Mof_C 	C 	0.29873	0.91716	0.66351	-0.114
Mof_S 	S 	0.29036	0.89261	0.63026	0.03
Mof_C 	C 	0.32613	0.90758	0.6815	-0.025
Mof_C 	C 	0.32321	0.868	0.6392	-0.024
Mof_H 	H 	0.3341	0.9181	0.6999	0.036
Mof_C 	C 	0.3401	0.8788	0.6669	0.012
Mof_O 	O 	0.25293	0.4499	0.15253	-0.408
Mof_O 	O 	0.28346	0.46213	0.19521	-0.545
Mof_C 	C 	0.27694	0.44486	0.17077	0.381
Mof_C 	C 	0.29873	0.41716	0.16351	-0.117
Mof_S 	S 	0.29036	0.39261	0.13026	0.027
Mof_C 	C 	0.32613	0.40758	0.1815	-0.025
Mof_C 	C 	0.32321	0.368	0.1392	-0.023
Mof_H 	H 	0.3341	0.4181	0.1999	0.034
Mof_C 	C 	0.3401	0.3788	0.1669	0.01
Mof_O 	O 	0.75293	0.9499	0.15253	-0.401
Mof_O 	O 	0.78346	0.96213	0.19521	-0.534
Mof_C 	C 	0.77694	0.94486	0.17077	0.379
Mof_C 	C 	0.79873	0.91716	0.16351	-0.114
Mof_S 	S 	0.79036	0.89261	0.13026	0.029
Mof_C 	C 	0.82613	0.90758	0.1815	-0.025
Mof_C 	C 	0.82321	0.868	0.1392	-0.024
Mof_H 	H 	0.8341	0.9181	0.1999	0.036
Mof_C 	C 	0.8401	0.8788	0.1669	0.012
Mof_O 	O 	0.75293	0.4499	0.65253	-0.408
Mof_O 	O 	0.78346	0.46213	0.69521	-0.545
Mof_C 	C 	0.77694	0.44486	0.67077	0.381
Mof_C 	C 	0.79873	0.41716	0.66351	-0.117
Mof_S 	S 	0.79036	0.39261	0.63026	0.029
Mof_C 	C 	0.82613	0.40758	0.6815	-0.025
Mof_C 	C 	0.82321	0.368	0.6392	-0.024
Mof_H 	H 	0.8341	0.4181	0.6999	0.035
Mof_C 	C 	0.8401	0.3788	0.6669	0.011
Mof_O 	O 	0.74707	0.9499	0.34747	-0.401
Mof_O 	O 	0.71654	0.96213	0.30479	-0.534
Mof_C 	C 	0.72306	0.94486	0.32923	0.379
Mof_C 	C 	0.70127	0.91716	0.33649	-0.114
Mof_S 	S 	0.70964	0.89261	0.36974	0.03
Mof_C 	C 	0.67387	0.90758	0.3185	-0.025
Mof_C 	C 	0.67679	0.868	0.3608	-0.024
Mof_H 	H 	0.6659	0.9181	0.3001	0.036
Mof_C 	C 	0.6599	0.8788	0.3331	0.012
Mof_O 	O 	0.74707	0.4499	0.84747	-0.407
Mof_O 	O 	0.71654	0.46213	0.80479	-0.545
Mof_C 	C 	0.72306	0.44486	0.82923	0.381
Mof_C 	C 	0.70127	0.41716	0.83649	-0.117
Mof_S 	S 	0.70964	0.39261	0.86974	0.03
Mof_C 	C 	0.67387	0.40758	0.8185	-0.024
Mof_C 	C 	0.67679	0.368	0.8608	-0.024
Mof_H 	H 	0.6659	0.4181	0.8001	0.035
Mof_C 	C 	0.6599	0.3788	0.8331	0.011
Mof_O 	O 	0.24707	0.9499	0.84747	-0.4
Mof_O 	O 	0.21654	0.96213	0.80479	-0.534
Mof_C 	C 	0.22306	0.94486	0.82923	0.379
Mof_C 	C 	0.20127	0.91716	0.83649	-0.114
Mof_S 	S 	0.20964	0.89261	0.86974	0.031
Mof_C 	C 	0.17387	0.90758	0.8185	-0.025
Mof_C 	C 	0.17679	0.868	0.8608	-0.024
Mof_H 	H 	0.1659	0.9181	0.8001	0.036
Mof_C 	C 	0.1599	0.8788	0.8331	0.012
Mof_O 	O 	0.24707	0.4499	0.34747	-0.408
Mof_O 	O 	0.21654	0.46213	0.30479	-0.545
Mof_C 	C 	0.22306	0.44486	0.32923	0.381
Mof_C 	C 	0.20127	0.41716	0.33649	-0.117
Mof_S 	S 	0.20964	0.39261	0.36974	0.028
Mof_C 	C 	0.17387	0.40758	0.3185	-0.025
Mof_C 	C 	0.17679	0.368	0.3608	-0.023
Mof_H 	H 	0.1659	0.4181	0.3001	0.034
Mof_C 	C 	0.1599	0.3788	0.3331	0.01
Mof_O 	O 	0.75293	0.84747	0.4499	-0.407
Mof_O 	O 	0.78346	0.80479	0.46213	-0.545
Mof_C 	C 	0.77694	0.82923	0.44486	0.382
Mof_C 	C 	0.79873	0.83649	0.41716	-0.117
Mof_S 	S 	0.79036	0.86974	0.39261	0.031
Mof_C 	C 	0.82613	0.8185	0.40758	-0.024
Mof_C 	C 	0.82321	0.8608	0.368	-0.024
Mof_H 	H 	0.8341	0.8001	0.4181	0.035
Mof_C 	C 	0.8401	0.8331	0.3788	0.011
Mof_O 	O 	0.75293	0.34747	0.9499	-0.401
Mof_O 	O 	0.78346	0.30479	0.96213	-0.534
Mof_C 	C 	0.77694	0.32923	0.94486	0.379
Mof_C 	C 	0.79873	0.33649	0.91716	-0.114
Mof_S 	S 	0.79036	0.36974	0.89261	0.03
Mof_C 	C 	0.82613	0.3185	0.90758	-0.025
Mof_C 	C 	0.82321	0.3608	0.868	-0.024
Mof_H 	H 	0.8341	0.3001	0.9181	0.036
Mof_C 	C 	0.8401	0.3331	0.8788	0.012
Mof_O 	O 	0.25293	0.84747	0.9499	-0.4
Mof_O 	O 	0.28346	0.80479	0.96213	-0.534
Mof_C 	C 	0.27694	0.82923	0.94486	0.379
Mof_C 	C 	0.29873	0.83649	0.91716	-0.114
Mof_S 	S 	0.29036	0.86974	0.89261	0.032
Mof_C 	C 	0.32613	0.8185	0.90758	-0.025
Mof_C 	C 	0.32321	0.8608	0.868	-0.024
Mof_H 	H 	0.3341	0.8001	0.9181	0.036
Mof_C 	C 	0.3401	0.8331	0.8788	0.012
Mof_O 	O 	0.25293	0.34747	0.4499	-0.408
Mof_O 	O 	0.28346	0.30479	0.46213	-0.545
Mof_C 	C 	0.27694	0.32923	0.44486	0.381
Mof_C 	C 	0.29873	0.33649	0.41716	-0.117
Mof_S 	S 	0.29036	0.36974	0.39261	0.028
Mof_C 	C 	0.32613	0.3185	0.40758	-0.024
Mof_C 	C 	0.32321	0.3608	0.368	-0.023
Mof_H 	H 	0.3341	0.3001	0.4181	0.035
Mof_C 	C 	0.3401	0.3331	0.3788	0.011
Mof_O 	O 	0.24707	0.15253	0.4499	-0.408
Mof_O 	O 	0.21654	0.19521	0.46213	-0.545
Mof_C 	C 	0.22306	0.17077	0.44486	0.381
Mof_C 	C 	0.20127	0.16351	0.41716	-0.117
Mof_S 	S 	0.20964	0.13026	0.39261	0.027
Mof_C 	C 	0.17387	0.1815	0.40758	-0.025
Mof_C 	C 	0.17679	0.1392	0.368	-0.024
Mof_H 	H 	0.1659	0.1999	0.4181	0.034
Mof_C 	C 	0.1599	0.1669	0.3788	0.01
Mof_O 	O 	0.24707	0.65253	0.9499	-0.401
Mof_O 	O 	0.21654	0.69521	0.96213	-0.534
Mof_C 	C 	0.22306	0.67077	0.94486	0.379
Mof_C 	C 	0.20127	0.66351	0.91716	-0.114
Mof_S 	S 	0.20964	0.63026	0.89261	0.029
Mof_C 	C 	0.17387	0.6815	0.90758	-0.025
Mof_C 	C 	0.17679	0.6392	0.868	-0.024
Mof_H 	H 	0.1659	0.6999	0.9181	0.036
Mof_C 	C 	0.1599	0.6669	0.8788	0.011
Mof_O 	O 	0.74707	0.15253	0.9499	-0.401
Mof_O 	O 	0.71654	0.19521	0.96213	-0.534
Mof_C 	C 	0.72306	0.17077	0.94486	0.379
Mof_C 	C 	0.70127	0.16351	0.91716	-0.114
Mof_S 	S 	0.70964	0.13026	0.89261	0.029
Mof_C 	C 	0.67387	0.1815	0.90758	-0.025
Mof_C 	C 	0.67679	0.1392	0.868	-0.024
Mof_H 	H 	0.6659	0.1999	0.9181	0.036
Mof_C 	C 	0.6599	0.1669	0.8788	0.011
Mof_O 	O 	0.74707	0.65253	0.4499	-0.408
Mof_O 	O 	0.71654	0.69521	0.46213	-0.545
Mof_C 	C 	0.72306	0.67077	0.44486	0.381
Mof_C 	C 	0.70127	0.66351	0.41716	-0.117
Mof_S 	S 	0.70964	0.63026	0.39261	0.028
Mof_C 	C 	0.67387	0.6815	0.40758	-0.025
Mof_C 	C 	0.67679	0.6392	0.368	-0.024
Mof_H 	H 	0.6659	0.6999	0.4181	0.034
Mof_C 	C 	0.6599	0.6669	0.3788	0.011
Mof_O 	O 	0.75293	0.15253	0.5501	-0.408
Mof_O 	O 	0.78346	0.19521	0.53787	-0.545
Mof_C 	C 	0.77694	0.17077	0.55514	0.381
Mof_C 	C 	0.79873	0.16351	0.58284	-0.117
Mof_S 	S 	0.79036	0.13026	0.60739	0.028
Mof_C 	C 	0.82613	0.1815	0.59242	-0.025
Mof_C 	C 	0.82321	0.1392	0.632	-0.024
Mof_H 	H 	0.8341	0.1999	0.5819	0.035
Mof_C 	C 	0.8401	0.1669	0.6212	0.011
Mof_O 	O 	0.75293	0.65253	0.0501	-0.408
Mof_O 	O 	0.78346	0.69521	0.03787	-0.543
Mof_C 	C 	0.77694	0.67077	0.05514	0.38
Mof_C 	C 	0.79873	0.66351	0.08284	-0.117
Mof_S 	S 	0.79036	0.63026	0.10739	0.027
Mof_C 	C 	0.82613	0.6815	0.09242	-0.025
Mof_C 	C 	0.82321	0.6392	0.132	-0.023
Mof_H 	H 	0.8341	0.6999	0.0819	0.035
Mof_C 	C 	0.8401	0.6669	0.1212	0.011
Mof_O 	O 	0.25293	0.15253	0.0501	-0.408
Mof_O 	O 	0.28346	0.19521	0.03787	-0.543
Mof_C 	C 	0.27694	0.17077	0.05514	0.38
Mof_C 	C 	0.29873	0.16351	0.08284	-0.117
Mof_S 	S 	0.29036	0.13026	0.10739	0.026
Mof_C 	C 	0.32613	0.1815	0.09242	-0.025
Mof_C 	C 	0.32321	0.1392	0.132	-0.023
Mof_H 	H 	0.3341	0.1999	0.0819	0.035
Mof_C 	C 	0.3401	0.1669	0.1212	0.01
Mof_O 	O 	0.25293	0.65253	0.5501	-0.408
Mof_O 	O 	0.28346	0.69521	0.53787	-0.545
Mof_C 	C 	0.27694	0.67077	0.55514	0.381
Mof_C 	C 	0.29873	0.66351	0.58284	-0.117
Mof_S 	S 	0.29036	0.63026	0.60739	0.028
Mof_C 	C 	0.32613	0.6815	0.59242	-0.025
Mof_C 	C 	0.32321	0.6392	0.632	-0.024
Mof_H 	H 	0.3341	0.6999	0.5819	0.034
Mof_C 	C 	0.3401	0.6669	0.6212	0.011
Mof_O 	O 	0.24707	0.84747	0.5501	-0.407
Mof_O 	O 	0.21654	0.80479	0.53787	-0.545
Mof_C 	C 	0.22306	0.82923	0.55514	0.381
Mof_C 	C 	0.20127	0.83649	0.58284	-0.117
Mof_S 	S 	0.20964	0.86974	0.60739	0.03
Mof_C 	C 	0.17387	0.8185	0.59242	-0.025
Mof_C 	C 	0.17679	0.8608	0.632	-0.024
Mof_H 	H 	0.1659	0.8001	0.5819	0.034
Mof_C 	C 	0.1599	0.8331	0.6212	0.011
Mof_O 	O 	0.24707	0.34747	0.0501	-0.408
Mof_O 	O 	0.21654	0.30479	0.03787	-0.543
Mof_C 	C 	0.22306	0.32923	0.05514	0.38
Mof_C 	C 	0.20127	0.33649	0.08284	-0.117
Mof_S 	S 	0.20964	0.36974	0.10739	0.027
Mof_C 	C 	0.17387	0.3185	0.09242	-0.025
Mof_C 	C 	0.17679	0.3608	0.132	-0.023
Mof_H 	H 	0.1659	0.3001	0.0819	0.034
Mof_C 	C 	0.1599	0.3331	0.1212	0.01
Mof_O 	O 	0.74707	0.84747	0.0501	-0.407
Mof_O 	O 	0.71654	0.80479	0.03787	-0.543
Mof_C 	C 	0.72306	0.82923	0.05514	0.38
Mof_C 	C 	0.70127	0.83649	0.08284	-0.117
Mof_S 	S 	0.70964	0.86974	0.10739	0.029
Mof_C 	C 	0.67387	0.8185	0.09242	-0.025
Mof_C 	C 	0.67679	0.8608	0.132	-0.024
Mof_H 	H 	0.6659	0.8001	0.0819	0.035
Mof_C 	C 	0.6599	0.8331	0.1212	0.011
Mof_O 	O 	0.74707	0.34747	0.5501	-0.408
Mof_O 	O 	0.71654	0.30479	0.53787	-0.545
Mof_C 	C 	0.72306	0.32923	0.55514	0.381
Mof_C 	C 	0.70127	0.33649	0.58284	-0.117
Mof_S 	S 	0.70964	0.36974	0.60739	0.028
Mof_C 	C 	0.67387	0.3185	0.59242	-0.025
Mof_C 	C 	0.67679	0.3608	0.632	-0.024
Mof_H 	H 	0.6659	0.3001	0.5819	0.035
Mof_C 	C 	0.6599	0.3331	0.6212	0.011
Mof_O 	O 	0.84747	0.5501	0.24707	-0.407
Mof_O 	O 	0.80479	0.53787	0.21654	-0.545
Mof_C 	C 	0.82923	0.55514	0.22306	0.381
Mof_C 	C 	0.83649	0.58284	0.20127	-0.117
Mof_S 	S 	0.86974	0.60739	0.20964	0.03
Mof_C 	C 	0.8185	0.59242	0.17387	-0.025
Mof_C 	C 	0.8608	0.632	0.17679	-0.024
Mof_H 	H 	0.8001	0.5819	0.1659	0.034
Mof_C 	C 	0.8331	0.6212	0.1599	0.011
Mof_O 	O 	0.84747	0.0501	0.74707	-0.407
Mof_O 	O 	0.80479	0.03787	0.71654	-0.543
Mof_C 	C 	0.82923	0.05514	0.72306	0.38
Mof_C 	C 	0.83649	0.08284	0.70127	-0.117
Mof_S 	S 	0.86974	0.10739	0.70964	0.029
Mof_C 	C 	0.8185	0.09242	0.67387	-0.025
Mof_C 	C 	0.8608	0.132	0.67679	-0.024
Mof_H 	H 	0.8001	0.0819	0.6659	0.035
Mof_C 	C 	0.8331	0.1212	0.6599	0.011
Mof_O 	O 	0.34747	0.5501	0.74707	-0.408
Mof_O 	O 	0.30479	0.53787	0.71654	-0.545
Mof_C 	C 	0.32923	0.55514	0.72306	0.381
Mof_C 	C 	0.33649	0.58284	0.70127	-0.117
Mof_S 	S 	0.36974	0.60739	0.70964	0.028
Mof_C 	C 	0.3185	0.59242	0.67387	-0.025
Mof_C 	C 	0.3608	0.632	0.67679	-0.024
Mof_H 	H 	0.3001	0.5819	0.6659	0.035
Mof_C 	C 	0.3331	0.6212	0.6599	0.011
Mof_O 	O 	0.34747	0.0501	0.24707	-0.408
Mof_O 	O 	0.30479	0.03787	0.21654	-0.543
Mof_C 	C 	0.32923	0.05514	0.22306	0.38
Mof_C 	C 	0.33649	0.08284	0.20127	-0.117
Mof_S 	S 	0.36974	0.10739	0.20964	0.027
Mof_C 	C 	0.3185	0.09242	0.17387	-0.025
Mof_C 	C 	0.3608	0.132	0.17679	-0.023
Mof_H 	H 	0.3001	0.0819	0.1659	0.034
Mof_C 	C 	0.3331	0.1212	0.1599	0.01
Mof_O 	O 	0.15253	0.5501	0.75293	-0.408
Mof_O 	O 	0.19521	0.53787	0.78346	-0.545
Mof_C 	C 	0.17077	0.55514	0.77694	0.381
Mof_C 	C 	0.16351	0.58284	0.79873	-0.117
Mof_S 	S 	0.13026	0.60739	0.79036	0.028
Mof_C 	C 	0.1815	0.59242	0.82613	-0.025
Mof_C 	C 	0.1392	0.632	0.82321	-0.024
Mof_H 	H 	0.1999	0.5819	0.8341	0.035
Mof_C 	C 	0.1669	0.6212	0.8401	0.011
Mof_O 	O 	0.15253	0.0501	0.25293	-0.408
Mof_O 	O 	0.19521	0.03787	0.28346	-0.543
Mof_C 	C 	0.17077	0.05514	0.27694	0.38
Mof_C 	C 	0.16351	0.08284	0.29873	-0.117
Mof_S 	S 	0.13026	0.10739	0.29036	0.026
Mof_C 	C 	0.1815	0.09242	0.32613	-0.025
Mof_C 	C 	0.1392	0.132	0.32321	-0.023
Mof_H 	H 	0.1999	0.0819	0.3341	0.035
Mof_C 	C 	0.1669	0.1212	0.3401	0.01
Mof_O 	O 	0.65253	0.5501	0.25293	-0.408
Mof_O 	O 	0.69521	0.53787	0.28346	-0.545
Mof_C 	C 	0.67077	0.55514	0.27694	0.381
Mof_C 	C 	0.66351	0.58284	0.29873	-0.117
Mof_S 	S 	0.63026	0.60739	0.29036	0.028
Mof_C 	C 	0.6815	0.59242	0.32613	-0.025
Mof_C 	C 	0.6392	0.632	0.32321	-0.024
Mof_H 	H 	0.6999	0.5819	0.3341	0.034
Mof_C 	C 	0.6669	0.6212	0.3401	0.011
Mof_O 	O 	0.65253	0.0501	0.75293	-0.408
Mof_O 	O 	0.69521	0.03787	0.78346	-0.543
Mof_C 	C 	0.67077	0.05514	0.77694	0.38
Mof_C 	C 	0.66351	0.08284	0.79873	-0.117
Mof_S 	S 	0.63026	0.10739	0.79036	0.027
Mof_C 	C 	0.6815	0.09242	0.82613	-0.025
Mof_C 	C 	0.6392	0.132	0.82321	-0.023
Mof_H 	H 	0.6999	0.0819	0.8341	0.035
Mof_C 	C 	0.6669	0.1212	0.8401	0.011
Mof_O 	O 	0.15253	0.4499	0.24707	-0.408
Mof_O 	O 	0.19521	0.46213	0.21654	-0.545
Mof_C 	C 	0.17077	0.44486	0.22306	0.381
Mof_C 	C 	0.16351	0.41716	0.20127	-0.117
Mof_S 	S 	0.13026	0.39261	0.20964	0.027
Mof_C 	C 	0.1815	0.40758	0.17387	-0.025
Mof_C 	C 	0.1392	0.368	0.17679	-0.024
Mof_H 	H 	0.1999	0.4181	0.1659	0.034
Mof_C 	C 	0.1669	0.3788	0.1599	0.01
Mof_O 	O 	0.15253	0.9499	0.74707	-0.401
Mof_O 	O 	0.19521	0.96213	0.71654	-0.534
Mof_C 	C 	0.17077	0.94486	0.72306	0.379
Mof_C 	C 	0.16351	0.91716	0.70127	-0.114
Mof_S 	S 	0.13026	0.89261	0.70964	0.029
Mof_C 	C 	0.1815	0.90758	0.67387	-0.025
Mof_C 	C 	0.1392	0.868	0.67679	-0.024
Mof_H 	H 	0.1999	0.9181	0.6659	0.036
Mof_C 	C 	0.1669	0.8788	0.6599	0.011
Mof_O 	O 	0.65253	0.4499	0.74707	-0.408
Mof_O 	O 	0.69521	0.46213	0.71654	-0.545
Mof_C 	C 	0.67077	0.44486	0.72306	0.381
Mof_C 	C 	0.66351	0.41716	0.70127	-0.117
Mof_S 	S 	0.63026	0.39261	0.70964	0.028
Mof_C 	C 	0.6815	0.40758	0.67387	-0.025
Mof_C 	C 	0.6392	0.368	0.67679	-0.024
Mof_H 	H 	0.6999	0.4181	0.6659	0.034
Mof_C 	C 	0.6669	0.3788	0.6599	0.011
Mof_O 	O 	0.65253	0.9499	0.24707	-0.401
Mof_O 	O 	0.69521	0.96213	0.21654	-0.534
Mof_C 	C 	0.67077	0.94486	0.22306	0.379
Mof_C 	C 	0.66351	0.91716	0.20127	-0.114
Mof_S 	S 	0.63026	0.89261	0.20964	0.029
Mof_C 	C 	0.6815	0.90758	0.17387	-0.025
Mof_C 	C 	0.6392	0.868	0.17679	-0.024
Mof_H 	H 	0.6999	0.9181	0.1659	0.036
Mof_C 	C 	0.6669	0.8788	0.1599	0.011
Mof_O 	O 	0.84747	0.4499	0.75293	-0.407
Mof_O 	O 	0.80479	0.46213	0.78346	-0.545
Mof_C 	C 	0.82923	0.44486	0.77694	0.382
Mof_C 	C 	0.83649	0.41716	0.79873	-0.117
Mof_S 	S 	0.86974	0.39261	0.79036	0.031
Mof_C 	C 	0.8185	0.40758	0.82613	-0.024
Mof_C 	C 	0.8608	0.368	0.82321	-0.024
Mof_H 	H 	0.8001	0.4181	0.8341	0.035
Mof_C 	C 	0.8331	0.3788	0.8401	0.011
Mof_O 	O 	0.84747	0.9499	0.25293	-0.4
Mof_O 	O 	0.80479	0.96213	0.28346	-0.534
Mof_C 	C 	0.82923	0.94486	0.27694	0.379
Mof_C 	C 	0.83649	0.91716	0.29873	-0.114
Mof_S 	S 	0.86974	0.89261	0.29036	0.032
Mof_C 	C 	0.8185	0.90758	0.32613	-0.025
Mof_C 	C 	0.8608	0.868	0.32321	-0.024
Mof_H 	H 	0.8001	0.9181	0.3341	0.036
Mof_C 	C 	0.8331	0.8788	0.3401	0.012
Mof_O 	O 	0.34747	0.4499	0.25293	-0.408
Mof_O 	O 	0.30479	0.46213	0.28346	-0.545
Mof_C 	C 	0.32923	0.44486	0.27694	0.381
Mof_C 	C 	0.33649	0.41716	0.29873	-0.117
Mof_S 	S 	0.36974	0.39261	0.29036	0.028
Mof_C 	C 	0.3185	0.40758	0.32613	-0.024
Mof_C 	C 	0.3608	0.368	0.32321	-0.023
Mof_H 	H 	0.3001	0.4181	0.3341	0.035
Mof_C 	C 	0.3331	0.3788	0.3401	0.011
Mof_O 	O 	0.34747	0.9499	0.75293	-0.401
Mof_O 	O 	0.30479	0.96213	0.78346	-0.534
Mof_C 	C 	0.32923	0.94486	0.77694	0.379
Mof_C 	C 	0.33649	0.91716	0.79873	-0.114
Mof_S 	S 	0.36974	0.89261	0.79036	0.03
Mof_C 	C 	0.3185	0.90758	0.82613	-0.025
Mof_C 	C 	0.3608	0.868	0.82321	-0.024
Mof_H 	H 	0.3001	0.9181	0.8341	0.036
Mof_C 	C 	0.3331	0.8788	0.8401	0.012
Mof_O 	O 	0.5501	0.75293	0.15253	-0.408
Mof_O 	O 	0.53787	0.78346	0.19521	-0.545
Mof_C 	C 	0.55514	0.77694	0.17077	0.381
Mof_C 	C 	0.58284	0.79873	0.16351	-0.117
Mof_S 	S 	0.60739	0.79036	0.13026	0.028
Mof_C 	C 	0.59242	0.82613	0.1815	-0.025
Mof_C 	C 	0.632	0.82321	0.1392	-0.024
Mof_H 	H 	0.5819	0.8341	0.1999	0.035
Mof_C 	C 	0.6212	0.8401	0.1669	0.011
Mof_O 	O 	0.5501	0.25293	0.65253	-0.408
Mof_O 	O 	0.53787	0.28346	0.69521	-0.545
Mof_C 	C 	0.55514	0.27694	0.67077	0.381
Mof_C 	C 	0.58284	0.29873	0.66351	-0.117
Mof_S 	S 	0.60739	0.29036	0.63026	0.028
Mof_C 	C 	0.59242	0.32613	0.6815	-0.025
Mof_C 	C 	0.632	0.32321	0.6392	-0.024
Mof_H 	H 	0.5819	0.3341	0.6999	0.034
Mof_C 	C 	0.6212	0.3401	0.6669	0.011
Mof_O 	O 	0.0501	0.75293	0.65253	-0.408
Mof_O 	O 	0.03787	0.78346	0.69521	-0.543
Mof_C 	C 	0.05514	0.77694	0.67077	0.38
Mof_C 	C 	0.08284	0.79873	0.66351	-0.117
Mof_S 	S 	0.10739	0.79036	0.63026	0.027
Mof_C 	C 	0.09242	0.82613	0.6815	-0.025
Mof_C 	C 	0.132	0.82321	0.6392	-0.023
Mof_H 	H 	0.0819	0.8341	0.6999	0.035
Mof_C 	C 	0.1212	0.8401	0.6669	0.011
Mof_O 	O 	0.0501	0.25293	0.15253	-0.408
Mof_O 	O 	0.03787	0.28346	0.19521	-0.543
Mof_C 	C 	0.05514	0.27694	0.17077	0.38
Mof_C 	C 	0.08284	0.29873	0.16351	-0.117
Mof_S 	S 	0.10739	0.29036	0.13026	0.026
Mof_C 	C 	0.09242	0.32613	0.1815	-0.025
Mof_C 	C 	0.132	0.32321	0.1392	-0.023
Mof_H 	H 	0.0819	0.3341	0.1999	0.035
Mof_C 	C 	0.1212	0.3401	0.1669	0.01
Mof_O 	O 	0.5501	0.24707	0.84747	-0.407
Mof_O 	O 	0.53787	0.21654	0.80479	-0.545
Mof_C 	C 	0.55514	0.22306	0.82923	0.381
Mof_C 	C 	0.58284	0.20127	0.83649	-0.117
Mof_S 	S 	0.60739	0.20964	0.86974	0.03
Mof_C 	C 	0.59242	0.17387	0.8185	-0.025
Mof_C 	C 	0.632	0.17679	0.8608	-0.024
Mof_H 	H 	0.5819	0.1659	0.8001	0.034
Mof_C 	C 	0.6212	0.1599	0.8331	0.011
Mof_O 	O 	0.5501	0.74707	0.34747	-0.408
Mof_O 	O 	0.53787	0.71654	0.30479	-0.545
Mof_C 	C 	0.55514	0.72306	0.32923	0.381
Mof_C 	C 	0.58284	0.70127	0.33649	-0.117
Mof_S 	S 	0.60739	0.70964	0.36974	0.028
Mof_C 	C 	0.59242	0.67387	0.3185	-0.025
Mof_C 	C 	0.632	0.67679	0.3608	-0.024
Mof_H 	H 	0.5819	0.6659	0.3001	0.035
Mof_C 	C 	0.6212	0.6599	0.3331	0.011
Mof_O 	O 	0.0501	0.24707	0.34747	-0.408
Mof_O 	O 	0.03787	0.21654	0.30479	-0.543
Mof_C 	C 	0.05514	0.22306	0.32923	0.38
Mof_C 	C 	0.08284	0.20127	0.33649	-0.117
Mof_S 	S 	0.10739	0.20964	0.36974	0.027
Mof_C 	C 	0.09242	0.17387	0.3185	-0.025
Mof_C 	C 	0.132	0.17679	0.3608	-0.023
Mof_H 	H 	0.0819	0.1659	0.3001	0.034
Mof_C 	C 	0.1212	0.1599	0.3331	0.01
Mof_O 	O 	0.0501	0.74707	0.84747	-0.407
Mof_O 	O 	0.03787	0.71654	0.80479	-0.543
Mof_C 	C 	0.05514	0.72306	0.82923	0.38
Mof_C 	C 	0.08284	0.70127	0.83649	-0.117
Mof_S 	S 	0.10739	0.70964	0.86974	0.029
Mof_C 	C 	0.09242	0.67387	0.8185	-0.025
Mof_C 	C 	0.132	0.67679	0.8608	-0.024
Mof_H 	H 	0.0819	0.6659	0.8001	0.035
Mof_C 	C 	0.1212	0.6599	0.8331	0.011
Mof_O 	O 	0.4499	0.75293	0.84747	-0.407
Mof_O 	O 	0.46213	0.78346	0.80479	-0.545
Mof_C 	C 	0.44486	0.77694	0.82923	0.382
Mof_C 	C 	0.41716	0.79873	0.83649	-0.117
Mof_S 	S 	0.39261	0.79036	0.86974	0.031
Mof_C 	C 	0.40758	0.82613	0.8185	-0.024
Mof_C 	C 	0.368	0.82321	0.8608	-0.024
Mof_H 	H 	0.4181	0.8341	0.8001	0.035
Mof_C 	C 	0.3788	0.8401	0.8331	0.011
Mof_O 	O 	0.4499	0.25293	0.34747	-0.408
Mof_O 	O 	0.46213	0.28346	0.30479	-0.545
Mof_C 	C 	0.44486	0.27694	0.32923	0.381
Mof_C 	C 	0.41716	0.29873	0.33649	-0.117
Mof_S 	S 	0.39261	0.29036	0.36974	0.028
Mof_C 	C 	0.40758	0.32613	0.3185	-0.024
Mof_C 	C 	0.368	0.32321	0.3608	-0.023
Mof_H 	H 	0.4181	0.3341	0.3001	0.035
Mof_C 	C 	0.3788	0.3401	0.3331	0.011
Mof_O 	O 	0.9499	0.75293	0.34747	-0.401
Mof_O 	O 	0.96213	0.78346	0.30479	-0.534
Mof_C 	C 	0.94486	0.77694	0.32923	0.379
Mof_C 	C 	0.91716	0.79873	0.33649	-0.114
Mof_S 	S 	0.89261	0.79036	0.36974	0.03
Mof_C 	C 	0.90758	0.82613	0.3185	-0.025
Mof_C 	C 	0.868	0.82321	0.3608	-0.024
Mof_H 	H 	0.9181	0.8341	0.3001	0.036
Mof_C 	C 	0.8788	0.8401	0.3331	0.012
Mof_O 	O 	0.9499	0.25293	0.84747	-0.4
Mof_O 	O 	0.96213	0.28346	0.80479	-0.534
Mof_C 	C 	0.94486	0.27694	0.82923	0.379
Mof_C 	C 	0.91716	0.29873	0.83649	-0.114
Mof_S 	S 	0.89261	0.29036	0.86974	0.032
Mof_C 	C 	0.90758	0.32613	0.8185	-0.025
Mof_C 	C 	0.868	0.32321	0.8608	-0.024
Mof_H 	H 	0.9181	0.3341	0.8001	0.036
Mof_C 	C 	0.8788	0.3401	0.8331	0.012
Mof_O 	O 	0.4499	0.24707	0.15253	-0.408
Mof_O 	O 	0.46213	0.21654	0.19521	-0.545
Mof_C 	C 	0.44486	0.22306	0.17077	0.381
Mof_C 	C 	0.41716	0.20127	0.16351	-0.117
Mof_S 	S 	0.39261	0.20964	0.13026	0.027
Mof_C 	C 	0.40758	0.17387	0.1815	-0.025
Mof_C 	C 	0.368	0.17679	0.1392	-0.024
Mof_H 	H 	0.4181	0.1659	0.1999	0.034
Mof_C 	C 	0.3788	0.1599	0.1669	0.01
Mof_O 	O 	0.4499	0.74707	0.65253	-0.408
Mof_O 	O 	0.46213	0.71654	0.69521	-0.545
Mof_C 	C 	0.44486	0.72306	0.67077	0.381
Mof_C 	C 	0.41716	0.70127	0.66351	-0.117
Mof_S 	S 	0.39261	0.70964	0.63026	0.028
Mof_C 	C 	0.40758	0.67387	0.6815	-0.025
Mof_C 	C 	0.368	0.67679	0.6392	-0.024
Mof_H 	H 	0.4181	0.6659	0.6999	0.034
Mof_C 	C 	0.3788	0.6599	0.6669	0.011
Mof_O 	O 	0.9499	0.24707	0.65253	-0.401
Mof_O 	O 	0.96213	0.21654	0.69521	-0.534
Mof_C 	C 	0.94486	0.22306	0.67077	0.379
Mof_C 	C 	0.91716	0.20127	0.66351	-0.114
Mof_S 	S 	0.89261	0.20964	0.63026	0.029
Mof_C 	C 	0.90758	0.17387	0.6815	-0.025
Mof_C 	C 	0.868	0.17679	0.6392	-0.024
Mof_H 	H 	0.9181	0.1659	0.6999	0.036
Mof_C 	C 	0.8788	0.1599	0.6669	0.011
Mof_O 	O 	0.9499	0.74707	0.15253	-0.401
Mof_O 	O 	0.96213	0.71654	0.19521	-0.534
Mof_C 	C 	0.94486	0.72306	0.17077	0.379
Mof_C 	C 	0.91716	0.70127	0.16351	-0.114
Mof_S 	S 	0.89261	0.70964	0.13026	0.029
Mof_C 	C 	0.90758	0.67387	0.1815	-0.025
Mof_C 	C 	0.868	0.67679	0.1392	-0.024
Mof_H 	H 	0.9181	0.6659	0.1999	0.036
Mof_C 	C 	0.8788	0.6599	0.1669	0.011
Mof_Sr	Sr	0.68796	0.76812	-0	1.443
Mof_Sr	Sr	0.68796	0.26812	0.5	1.466
Mof_Sr	Sr	0.18796	0.76812	0.5	1.465
Mof_Sr	Sr	0.18796	0.26812	-0	1.442
Mof_Sr	Sr	0.31204	0.23188	-0	1.443
Mof_Sr	Sr	0.31204	0.73188	0.5	1.466
Mof_Sr	Sr	0.81204	0.23188	0.5	1.467
Mof_Sr	Sr	0.81204	0.73188	-0	1.444
Mof_Sr	Sr	0.31204	0.76812	-0	1.444
Mof_Sr	Sr	0.31204	0.26812	0.5	1.466
Mof_Sr	Sr	0.81204	0.76812	0.5	1.468
Mof_Sr	Sr	0.81204	0.26812	-0	1.444
Mof_Sr	Sr	0.68796	0.23188	-0	1.442
Mof_Sr	Sr	0.68796	0.73188	0.5	1.466
Mof_Sr	Sr	0.18796	0.23188	0.5	1.465
Mof_Sr	Sr	0.18796	0.73188	-0	1.442
Mof_Sr	Sr	2.87999e-33	0.68796	0.76812	1.443
Mof_Sr	Sr	-1.92376e-33	0.18796	0.26812	1.442
Mof_Sr	Sr	0.5	0.68796	0.26812	1.466
Mof_Sr	Sr	0.5	0.18796	0.76812	1.465
Mof_Sr	Sr	8.69411e-34	0.31204	0.23188	1.443
Mof_Sr	Sr	1.44603e-32	0.81204	0.73188	1.444
Mof_Sr	Sr	0.5	0.31204	0.73188	1.466
Mof_Sr	Sr	0.5	0.81204	0.23188	1.467
Mof_Sr	Sr	2.87999e-33	0.31204	0.76812	1.444
Mof_Sr	Sr	9.79244e-33	0.81204	0.26812	1.444
Mof_Sr	Sr	0.5	0.31204	0.26812	1.466
Mof_Sr	Sr	0.5	0.81204	0.76812	1.468
Mof_Sr	Sr	6.72751e-33	0.68796	0.23188	1.442
Mof_Sr	Sr	-3.11399e-33	0.18796	0.73188	1.442
Mof_Sr	Sr	0.5	0.68796	0.73188	1.466
Mof_Sr	Sr	0.5	0.18796	0.23188	1.465
Mof_Sr	Sr	0.76812	5.8581e-33	0.68796	1.443
Mof_Sr	Sr	0.76812	0.5	0.18796	1.465
Mof_Sr	Sr	0.26812	0	0.18796	1.442
Mof_Sr	Sr	0.26812	0.5	0.68796	1.466
Mof_Sr	Sr	0.23188	0	0.31204	1.443
Mof_Sr	Sr	0.23188	0.5	0.81204	1.467
Mof_Sr	Sr	0.73188	5.8581e-33	0.81204	1.444
Mof_Sr	Sr	0.73188	0.5	0.31204	1.466
Mof_Sr	Sr	0.76812	0	0.31204	1.444
Mof_Sr	Sr	0.76812	0.5	0.81204	1.468
Mof_Sr	Sr	0.26812	5.8581e-33	0.81204	1.444
Mof_Sr	Sr	0.26812	0.5	0.31204	1.466
Mof_Sr	Sr	0.23188	5.8581e-33	0.68796	1.442
Mof_Sr	Sr	0.23188	0.5	0.18796	1.465
Mof_Sr	Sr	0.73188	0	0.18796	1.442
Mof_Sr	Sr	0.73188	0.5	0.68796	1.466
Mof_Sr	Sr	0.26812	0.18796	0.5	1.465
Mof_Sr	Sr	0.26812	0.68796	-0	1.443
Mof_Sr	Sr	0.76812	0.18796	-0	1.443
Mof_Sr	Sr	0.76812	0.68796	0.5	1.466
Mof_Sr	Sr	0.73188	0.81204	0.5	1.467
Mof_Sr	Sr	0.73188	0.31204	-0	1.443
Mof_Sr	Sr	0.23188	0.81204	-0	1.444
Mof_Sr	Sr	0.23188	0.31204	0.5	1.466
Mof_Sr	Sr	0.26812	0.81204	0.5	1.467
Mof_Sr	Sr	0.26812	0.31204	-0	1.443
Mof_Sr	Sr	0.76812	0.81204	-0	1.445
Mof_Sr	Sr	0.76812	0.31204	0.5	1.467
Mof_Sr	Sr	0.73188	0.18796	0.5	1.465
Mof_Sr	Sr	0.73188	0.68796	-0	1.443
Mof_Sr	Sr	0.23188	0.18796	-0	1.442
Mof_Sr	Sr	0.23188	0.68796	0.5	1.465
Mof_Sr	Sr	0.18796	0.5	0.73188	1.465
Mof_Sr	Sr	0.18796	0	0.23188	1.442
Mof_Sr	Sr	0.68796	0.5	0.23188	1.465
Mof_Sr	Sr	0.68796	0	0.73188	1.443
Mof_Sr	Sr	0.81204	0.5	0.26812	1.467
Mof_Sr	Sr	0.81204	0	0.76812	1.445
Mof_Sr	Sr	0.31204	0.5	0.76812	1.467
Mof_Sr	Sr	0.31204	2.92905e-33	0.26812	1.443
Mof_Sr	Sr	0.81204	0.5	0.73188	1.467
Mof_Sr	Sr	0.81204	0	0.23188	1.444
Mof_Sr	Sr	0.31204	0.5	0.23188	1.466
Mof_Sr	Sr	0.31204	0	0.73188	1.443
Mof_Sr	Sr	0.18796	0.5	0.26812	1.465
Mof_Sr	Sr	0.18796	0	0.76812	1.443
Mof_Sr	Sr	0.68796	0.5	0.76812	1.466
Mof_Sr	Sr	0.68796	2.92905e-33	0.26812	1.443
Mof_Sr	Sr	0.5	0.26812	0.81204	1.467
Mof_Sr	Sr	0.5	0.76812	0.31204	1.467
Mof_Sr	Sr	4.09901e-33	0.26812	0.31204	1.443
Mof_Sr	Sr	-1.45296e-32	0.76812	0.81204	1.445
Mof_Sr	Sr	0.5	0.73188	0.18796	1.465
Mof_Sr	Sr	0.5	0.23188	0.68796	1.465
Mof_Sr	Sr	8.43754e-33	0.73188	0.68796	1.443
Mof_Sr	Sr	3.63379e-33	0.23188	0.18796	1.442
Mof_Sr	Sr	0.5	0.26812	0.18796	1.465
Mof_Sr	Sr	0.5	0.76812	0.68796	1.466
Mof_Sr	Sr	2.57944e-33	0.26812	0.68796	1.443
Mof_Sr	Sr	-2.22431e-33	0.76812	0.18796	1.443
Mof_Sr	Sr	0.5	0.73188	0.81204	1.467
Mof_Sr	Sr	0.5	0.23188	0.31204	1.466
Mof_Sr	Sr	1.16996e-33	0.73188	0.31204	1.443
Mof_Sr	Sr	1.47609e-32	0.23188	0.81204	1.444
Mof_O 	O 	0.75	0.75	-0	-0.559
Mof_O 	O 	0.25	0.25	-0	-0.558
Mof_O 	O 	0.25	0.75	-0	-0.559
Mof_O 	O 	0.75	0.25	-0	-0.559
Mof_O 	O 	-3.04605e-33	0.75	0.75	-0.559
Mof_O 	O 	9.3735e-34	0.25	0.25	-0.558
Mof_O 	O 	2.81205e-33	0.25	0.75	-0.559
Mof_O 	O 	3.8664e-33	0.75	0.25	-0.559
Mof_O 	O 	0.75	0	0.75	-0.559
Mof_O 	O 	0.25	0	0.25	-0.558
Mof_O 	O 	0.75	0	0.25	-0.559
Mof_O 	O 	0.25	0	0.75	-0.559
Mof_O 	O 	0.25	0.25	0.5	-0.559
Mof_O 	O 	0.75	0.75	0.5	-0.559
Mof_O 	O 	0.25	0.75	0.5	-0.559
Mof_O 	O 	0.75	0.25	0.5	-0.559
Mof_O 	O 	0.25	0.5	0.75	-0.559
Mof_O 	O 	0.75	0.5	0.25	-0.559
Mof_O 	O 	0.75	0.5	0.75	-0.559
Mof_O 	O 	0.25	0.5	0.25	-0.559
Mof_O 	O 	0.5	0.25	0.75	-0.559
Mof_O 	O 	0.5	0.75	0.25	-0.559
Mof_O 	O 	0.5	0.25	0.25	-0.559
Mof_O 	O 	0.5	0.75	0.75	-0.559
_end
