data_functionalizedCrystal
_audit_creation_method	'EQeq! by Chris Wilmer'
_symmetry_space_group_name_H-M	'P1'
_symmetry_Int_Tables_number	1
_symmetry_cell_setting	triclinic
loop_
_symmetry_equiv_pos_as_xyz
  x,y,z
_cell_length_a	11.0763
_cell_length_b	11.0763
_cell_length_c	27.4307
_cell_angle_alpha	90
_cell_angle_beta	90
_cell_angle_gamma	90
loop_
_atom_site_label
_atom_site_type_symbol
_atom_site_fract_x
_atom_site_fract_y
_atom_site_fract_z
_atom_site_charge
Mof_N 	N 	0.5339	0.5028	0.92688	-0.24
Mof_N 	N 	0.5935	0.7063	0.91961	-0.172
Mof_N 	N 	0.5351	0.4846	0.82564	-0.247
Mof_C 	C 	0.5122	0.3968	0.90407	-0.011
Mof_H 	H 	0.4959	0.327	0.9231	-0.021
Mof_C 	C 	0.5129	0.3872	0.85424	-0.019
Mof_H 	H 	0.4977	0.3111	0.8395	-0.016
Mof_C 	C 	0.5585	0.5884	0.84807	-0.054
Mof_H 	H 	0.5738	0.6583	0.829	-0.01
Mof_C 	C 	0.5614	0.598	0.89911	0.095
Mof_C 	C 	0.6622	0.7208	0.96204	0.115
Mof_C 	C 	0.7477	0.8123	0.96293	-0.033
Mof_H 	H 	0.8675	0.7517	0.0635	0.023
Mof_N 	N 	0.4661	0.4972	0.42688	-0.247
Mof_N 	N 	0.4065	0.2937	0.41961	-0.173
Mof_N 	N 	0.4649	0.5154	0.32564	-0.248
Mof_C 	C 	0.4878	0.6032	0.40407	-0.013
Mof_H 	H 	0.5041	0.673	0.4231	-0.028
Mof_C 	C 	0.4871	0.6128	0.35424	-0.021
Mof_H 	H 	0.5023	0.6889	0.3395	-0.017
Mof_C 	C 	0.4415	0.4116	0.34807	-0.054
Mof_H 	H 	0.4262	0.3417	0.329	-0.012
Mof_C 	C 	0.4386	0.402	0.39911	0.09
Mof_C 	C 	0.3378	0.2792	0.46204	0.094
Mof_C 	C 	0.2523	0.1877	0.46293	-0.061
Mof_H 	H 	0.1325	0.2483	0.5635	0.024
Mof_N 	N 	0.5028	0.5339	0.07312	-0.249
Mof_N 	N 	0.7063	0.5935	0.08039	-0.174
Mof_N 	N 	0.4846	0.5351	0.17436	-0.248
Mof_C 	C 	0.3968	0.5122	0.09593	-0.014
Mof_H 	H 	0.327	0.4959	0.0769	-0.032
Mof_C 	C 	0.3872	0.5129	0.14576	-0.022
Mof_H 	H 	0.3111	0.4977	0.1605	-0.018
Mof_C 	C 	0.5884	0.5585	0.15193	-0.054
Mof_H 	H 	0.6583	0.5738	0.171	-0.012
Mof_C 	C 	0.598	0.5614	0.10089	0.088
Mof_C 	C 	0.7208	0.6622	0.03796	0.089
Mof_C 	C 	0.8123	0.7477	0.03707	-0.066
Mof_H 	H 	0.7517	0.8675	0.9365	0.02
Mof_N 	N 	0.4972	0.4661	0.57312	-0.247
Mof_N 	N 	0.2937	0.4065	0.58039	-0.173
Mof_N 	N 	0.5154	0.4649	0.67436	-0.247
Mof_C 	C 	0.6032	0.4878	0.59593	-0.013
Mof_H 	H 	0.673	0.5041	0.5769	-0.028
Mof_C 	C 	0.6128	0.4871	0.64576	-0.021
Mof_H 	H 	0.6889	0.5023	0.6605	-0.017
Mof_C 	C 	0.4116	0.4415	0.65193	-0.054
Mof_H 	H 	0.3417	0.4262	0.671	-0.011
Mof_C 	C 	0.402	0.4386	0.60089	0.09
Mof_C 	C 	0.2792	0.3378	0.53796	0.094
Mof_C 	C 	0.1877	0.2523	0.53707	-0.061
Mof_H 	H 	0.2483	0.1325	0.4365	0.024
Mof_Cu	Cu	0.51609	0.51609	-0	0.799
Mof_N 	N 	0.646	0.646	-0	-0.265
Mof_N 	N 	0.8245	0.8245	-0	-0.219
Mof_Cu	Cu	0.48391	0.48391	0.5	0.81
Mof_N 	N 	0.354	0.354	0.5	-0.248
Mof_N 	N 	0.1755	0.1755	0.5	-0.199
Mof_Ni	Ni	0.52836	0.47164	0.75	0.966
Mof_Ni	Ni	0.47164	0.52836	0.25	0.965
Mof_N 	N 	0.9972	0.0339	0.67688	-0.246
Mof_N 	N 	0.7937	0.0935	0.66961	-0.173
Mof_N 	N 	0.0154	0.0351	0.57564	-0.248
Mof_C 	C 	0.1032	0.0122	0.65407	-0.016
Mof_H 	H 	0.173	0.9959	0.6731	-0.025
Mof_C 	C 	0.1128	0.0129	0.60424	-0.022
Mof_H 	H 	0.1889	0.9977	0.5895	-0.016
Mof_C 	C 	0.9116	0.0585	0.59807	-0.053
Mof_H 	H 	0.8417	0.0738	0.579	-0.012
Mof_C 	C 	0.902	0.0614	0.64911	0.09
Mof_C 	C 	0.7792	0.1622	0.71204	0.094
Mof_C 	C 	0.6877	0.2477	0.71293	-0.061
Mof_H 	H 	0.7483	0.3675	0.8135	0.025
Mof_N 	N 	0.0028	0.9661	0.17688	-0.246
Mof_N 	N 	0.2063	0.9065	0.16961	-0.173
Mof_N 	N 	0.9846	0.9649	0.07564	-0.251
Mof_C 	C 	0.8968	0.9878	0.15407	-0.016
Mof_H 	H 	0.827	0.0041	0.1731	-0.027
Mof_C 	C 	0.8872	0.9871	0.10424	-0.022
Mof_H 	H 	0.8111	0.0023	0.0895	-0.02
Mof_C 	C 	0.0884	0.9415	0.09807	-0.053
Mof_H 	H 	0.1583	0.9262	0.079	-0.016
Mof_C 	C 	0.098	0.9386	0.14911	0.088
Mof_C 	C 	0.2208	0.8378	0.21204	0.094
Mof_C 	C 	0.3123	0.7523	0.21293	-0.061
Mof_H 	H 	0.2517	0.6325	0.3135	0.024
Mof_N 	N 	0.9661	0.0028	0.82312	-0.247
Mof_N 	N 	0.9065	0.2063	0.83039	-0.172
Mof_N 	N 	0.9649	0.9846	0.92436	-0.24
Mof_C 	C 	0.9878	0.8968	0.84593	-0.012
Mof_H 	H 	0.0041	0.827	0.8269	-0.026
Mof_C 	C 	0.9871	0.8872	0.89576	-0.02
Mof_H 	H 	0.0023	0.8111	0.9105	-0.011
Mof_C 	C 	0.9415	0.0884	0.90193	-0.053
Mof_H 	H 	0.9262	0.1583	0.921	-0.005
Mof_C 	C 	0.9386	0.098	0.85089	0.092
Mof_C 	C 	0.8378	0.2208	0.78796	0.095
Mof_C 	C 	0.7523	0.3123	0.78707	-0.061
Mof_H 	H 	0.6325	0.2517	0.6865	0.024
Mof_N 	N 	0.0339	0.9972	0.32312	-0.246
Mof_N 	N 	0.0935	0.7937	0.33039	-0.173
Mof_N 	N 	0.0351	0.0154	0.42436	-0.248
Mof_C 	C 	0.0122	0.1032	0.34593	-0.015
Mof_H 	H 	0.9959	0.173	0.3269	-0.027
Mof_C 	C 	0.0129	0.1128	0.39576	-0.021
Mof_H 	H 	0.9977	0.1889	0.4105	-0.017
Mof_C 	C 	0.0585	0.9116	0.40193	-0.052
Mof_H 	H 	0.0738	0.8417	0.421	-0.012
Mof_C 	C 	0.0614	0.902	0.35089	0.09
Mof_C 	C 	0.1622	0.7792	0.28796	0.094
Mof_C 	C 	0.2477	0.6877	0.28707	-0.061
Mof_H 	H 	0.3675	0.7483	0.1865	0.023
Mof_Cu	Cu	0.98391	0.01609	0.75	0.81
Mof_N 	N 	0.854	0.146	0.75	-0.248
Mof_N 	N 	0.6755	0.3245	0.75	-0.199
Mof_Cu	Cu	0.01609	0.98391	0.25	0.81
Mof_N 	N 	0.146	0.854	0.25	-0.248
Mof_N 	N 	0.3245	0.6755	0.25	-0.199
Mof_Ni	Ni	0.02836	0.02836	0.5	0.965
Mof_Ni	Ni	0.97164	0.97164	-0	0.955
_end
