data_functionalizedCrystal
_audit_creation_method	'EQeq! by Chris Wilmer'
_symmetry_space_group_name_H-M	'P1'
_symmetry_Int_Tables_number	1
_symmetry_cell_setting	triclinic
loop_
_symmetry_equiv_pos_as_xyz
  x,y,z
_cell_length_a	14.2079
_cell_length_b	17.2295
_cell_length_c	26.1584
_cell_angle_alpha	88.764
_cell_angle_beta	74.47
_cell_angle_gamma	70.377
loop_
_atom_site_label
_atom_site_type_symbol
_atom_site_fract_x
_atom_site_fract_y
_atom_site_fract_z
_atom_site_charge
Mof_Zn	Zn	0.11005	0.79977	0.42005	1.216
Mof_Zn	Zn	0.17306	0.61911	0.47782	1.215
Mof_Zn	Zn	0.46896	0.21843	0.70865	1.175
Mof_Zn	Zn	0.6662	0.11612	0.00883	1.214
Mof_Zn	Zn	0.85584	0.27887	0.19851	1.189
Mof_Zn	Zn	0.57025	0.31381	0.07135	1.217
Mof_C 	C 	0.3264	0.671	0.3953	0.113
Mof_C 	C 	0.3238	0.7872	0.3632	0.085
Mof_H 	H 	0.299	0.8425	0.3563	-0.037
Mof_C 	C 	0.4255	0.6612	0.3633	-0.046
Mof_C 	C 	0.5024	0.5844	0.3533	0.164
Mof_C 	C 	0.3841	0.536	0.409	0.115
Mof_H 	H 	0.3729	0.491	0.4265	-0.013
Mof_C 	C 	0.0575	0.8294	0.5882	-0.159
Mof_C 	C 	0.0842	0.794	0.6323	0.097
Mof_H 	H 	0.1226	0.738	0.6304	0.031
Mof_C 	C 	0.0541	0.8416	0.679	-0.156
Mof_C 	C 	0.0056	0.9271	0.6798	0.086
Mof_H 	H 	0.9849	0.9597	0.7115	0.028
Mof_C 	C 	0.9882	0.9638	0.6342	-0.143
Mof_C 	C 	0.0137	0.9152	0.5888	0.086
Mof_H 	H 	0.0019	0.9393	0.5579	0.032
Mof_C 	C 	0.0869	0.7798	0.5372	0.399
Mof_C 	C 	0.0829	0.8095	0.7275	0.384
Mof_C 	C 	0.9375	0.0557	0.6347	0.35
Mof_C 	C 	0.1899	0.4207	0.5731	-0.117
Mof_C 	C 	0.245	0.376	0.6073	0.06
Mof_H 	H 	0.2987	0.3902	0.6136	0.035
Mof_C 	C 	0.2202	0.31	0.6319	-0.13
Mof_C 	C 	0.1379	0.2917	0.624	0.069
Mof_H 	H 	0.1192	0.2489	0.6408	0.038
Mof_C 	C 	0.0834	0.3377	0.5907	-0.134
Mof_C 	C 	0.1085	0.4033	0.566	0.068
Mof_H 	H 	0.0693	0.4349	0.5447	0.04
Mof_C 	C 	0.2141	0.4928	0.5452	0.35
Mof_C 	C 	0.2792	0.2616	0.6689	0.368
Mof_C 	C 	0.9952	0.3161	0.581	0.385
Mof_C 	C 	0.5274	0.3165	0.8297	-0.107
Mof_C 	C 	0.5716	0.2699	0.8675	0.061
Mof_H 	H 	0.5962	0.2125	0.8629	0.043
Mof_C 	C 	0.5786	0.3078	0.9106	-0.13
Mof_C 	C 	0.5531	0.3923	0.9149	0.053
Mof_H 	H 	0.558	0.4179	0.9446	0.045
Mof_C 	C 	0.5195	0.4405	0.8741	-0.104
Mof_C 	C 	0.5048	0.4017	0.8336	0.049
Mof_H 	H 	0.479	0.433	0.8078	0.034
Mof_C 	C 	0.5113	0.2756	0.7859	0.301
Mof_C 	C 	0.6156	0.2602	0.9547	0.401
Mof_C 	C 	0.4896	0.5338	0.8799	0.334
Mof_C 	C 	0.1653	0.2317	0.1224	-0.131
Mof_C 	C 	0.1754	0.1531	0.098	0.047
Mof_H 	H 	0.1177	0.1373	0.1014	0.038
Mof_C 	C 	0.2783	0.1003	0.0682	-0.107
Mof_C 	C 	0.3609	0.1211	0.0639	0.064
Mof_H 	H 	0.426	0.0852	0.045	0.038
Mof_C 	C 	0.3525	0.197	0.0875	-0.139
Mof_C 	C 	0.2562	0.2504	0.1169	0.075
Mof_H 	H 	0.2519	0.2994	0.1332	0.037
Mof_C 	C 	0.0651	0.2828	0.1534	0.364
Mof_C 	C 	0.2833	0.0216	0.0433	0.313
Mof_C 	C 	0.8272	0.1591	0.1168	-0.047
Mof_C 	C 	0.4492	0.2177	0.0803	0.396
Mof_C 	C 	0.7077	0.2757	0.1412	0.082
Mof_H 	H 	0.666	0.3261	0.16	-0.042
Mof_C 	C 	0.7613	0.171	0.086	0.117
Mof_C 	C 	0.8557	0.0496	0.041	0.101
Mof_H 	H 	0.868	0.0115	0.0132	-0.005
Mof_C 	C 	0.9101	0.0854	0.1076	0.158
Mof_N 	N 	0.9262	0.0296	0.0676	-0.147
Mof_N 	N 	0.9796	0.0666	0.1368	-0.327
Mof_H 	H 	0.0313	0.0208	0.1295	0.183
Mof_H 	H 	0.9721	0.1004	0.1625	0.177
Mof_N 	N 	0.7939	0.2284	0.15268	-0.259
Mof_N 	N 	0.6846	0.2467	0.1015	-0.296
Mof_N 	N 	0.7696	0.1154	0.0474	-0.3
Mof_N 	N 	0.3013	0.6072	0.4206	-0.306
Mof_N 	N 	0.2621	0.7486	0.3951	-0.306
Mof_N 	N 	0.4218	0.739	0.3431	-0.238
Mof_N 	N 	0.6002	0.5652	0.3227	-0.319
Mof_H 	H 	0.6423	0.515	0.3191	0.162
Mof_H 	H 	0.621	0.603	0.3066	0.161
Mof_N 	N 	0.4757	0.5209	0.3774	-0.152
Mof_O 	O 	0.0595	0.8139	0.49839	-0.495
Mof_O 	O 	0.1382	0.7016	0.53611	-0.479
Mof_O 	O 	0.1311	0.7303	0.7275	-0.455
Mof_O 	O 	0.0613	0.8493	0.7676	-0.403
Mof_O 	O 	0.8902	0.1028	0.6755	-0.294
Mof_O 	O 	0.9427	0.084	0.58846	-0.447
Mof_O 	O 	0.2731	0.5236	0.5594	-0.285
Mof_O 	O 	0.1755	0.5145	0.50765	-0.454
Mof_O 	O 	0.9443	0.3613	0.55147	-0.497
Mof_O 	O 	0.9744	0.253	0.60208	-0.475
Mof_O 	O 	0.2498	0.2083	0.6938	-0.308
Mof_O 	O 	0.3583	0.2767	0.67165	-0.472
Mof_O 	O 	0.4902	0.5715	0.8362	-0.3
Mof_O 	O 	0.469	0.5672	0.924	-0.453
Mof_O 	O 	0.4346	0.3177	0.7671	-0.395
Mof_O 	O 	0.5593	0.2011	0.77018	-0.389
Mof_O 	O 	0.622	0.3	0.99361	-0.5
Mof_O 	O 	0.6346	0.1849	0.9503	-0.476
Mof_O 	O 	0.0595	0.3377	0.187	-0.275
Mof_O 	O 	0.9864	0.2708	0.1465	-0.472
Mof_O 	O 	0.2131	0.9914	0.0574	-0.345
Mof_O 	O 	0.3642	0.9855	0.0059	-0.407
Mof_O 	O 	0.5336	0.1637	0.0684	-0.521
Mof_O 	O 	0.4356	0.2959	0.0884	-0.452
Mof_Zn	Zn	0.88995	0.20023	0.57995	1.217
Mof_Zn	Zn	0.82694	0.38089	0.52218	1.216
Mof_Zn	Zn	0.53104	0.78157	0.29135	1.176
Mof_Zn	Zn	0.3338	0.88388	0.99117	1.215
Mof_Zn	Zn	0.14416	0.72113	0.80149	1.19
Mof_Zn	Zn	0.42975	0.68619	0.92865	1.218
Mof_C 	C 	0.6736	0.329	0.6047	0.113
Mof_C 	C 	0.6762	0.2128	0.6368	0.085
Mof_H 	H 	0.701	0.1575	0.6437	-0.037
Mof_C 	C 	0.5745	0.3388	0.6367	-0.046
Mof_C 	C 	0.4976	0.4156	0.6467	0.164
Mof_C 	C 	0.6159	0.464	0.591	0.115
Mof_H 	H 	0.6271	0.509	0.5735	-0.013
Mof_C 	C 	0.9425	0.1706	0.4118	-0.159
Mof_C 	C 	0.9158	0.206	0.3677	0.097
Mof_H 	H 	0.8774	0.262	0.3696	0.031
Mof_C 	C 	0.9459	0.1584	0.321	-0.156
Mof_C 	C 	0.9944	0.0729	0.3202	0.086
Mof_H 	H 	0.0151	0.0403	0.2885	0.028
Mof_C 	C 	0.0118	0.0362	0.3658	-0.143
Mof_C 	C 	0.9863	0.0848	0.4112	0.086
Mof_H 	H 	0.9981	0.0607	0.4421	0.032
Mof_C 	C 	0.9131	0.2202	0.4628	0.399
Mof_C 	C 	0.9171	0.1905	0.2725	0.384
Mof_C 	C 	0.0625	0.9443	0.3653	0.35
Mof_C 	C 	0.8101	0.5793	0.4269	-0.117
Mof_C 	C 	0.755	0.624	0.3927	0.06
Mof_H 	H 	0.7013	0.6098	0.3864	0.035
Mof_C 	C 	0.7798	0.69	0.3681	-0.13
Mof_C 	C 	0.8621	0.7083	0.376	0.069
Mof_H 	H 	0.8808	0.7511	0.3592	0.038
Mof_C 	C 	0.9166	0.6623	0.4093	-0.134
Mof_C 	C 	0.8915	0.5967	0.434	0.068
Mof_H 	H 	0.9307	0.5651	0.4553	0.04
Mof_C 	C 	0.7859	0.5072	0.4548	0.35
Mof_C 	C 	0.7208	0.7384	0.3311	0.368
Mof_C 	C 	0.0048	0.6839	0.419	0.385
Mof_C 	C 	0.4726	0.6835	0.1703	-0.107
Mof_C 	C 	0.4284	0.7301	0.1325	0.061
Mof_H 	H 	0.4038	0.7875	0.1371	0.043
Mof_C 	C 	0.4214	0.6922	0.0894	-0.13
Mof_C 	C 	0.4469	0.6077	0.0851	0.053
Mof_H 	H 	0.442	0.5821	0.0554	0.045
Mof_C 	C 	0.4805	0.5595	0.1259	-0.104
Mof_C 	C 	0.4952	0.5983	0.1664	0.049
Mof_H 	H 	0.521	0.567	0.1922	0.034
Mof_C 	C 	0.4887	0.7244	0.2141	0.301
Mof_C 	C 	0.3844	0.7398	0.0453	0.401
Mof_C 	C 	0.5104	0.4662	0.1201	0.334
Mof_C 	C 	0.8347	0.7683	0.8776	-0.131
Mof_C 	C 	0.8246	0.8469	0.902	0.047
Mof_H 	H 	0.8823	0.8627	0.8986	0.038
Mof_C 	C 	0.7217	0.8997	0.9318	-0.107
Mof_C 	C 	0.6391	0.8789	0.9361	0.064
Mof_H 	H 	0.574	0.9148	0.955	0.038
Mof_C 	C 	0.6475	0.803	0.9125	-0.139
Mof_C 	C 	0.7438	0.7496	0.8831	0.075
Mof_H 	H 	0.7481	0.7006	0.8668	0.037
Mof_C 	C 	0.9349	0.7172	0.8466	0.364
Mof_C 	C 	0.7167	0.9784	0.9567	0.313
Mof_C 	C 	0.1728	0.8409	0.8832	-0.047
Mof_C 	C 	0.5508	0.7823	0.9197	0.396
Mof_C 	C 	0.2923	0.7243	0.8588	0.082
Mof_H 	H 	0.334	0.6739	0.84	-0.042
Mof_C 	C 	0.2387	0.829	0.914	0.117
Mof_C 	C 	0.1443	0.9504	0.959	0.101
Mof_H 	H 	0.132	0.9885	0.9868	-0.005
Mof_C 	C 	0.0899	0.9146	0.8924	0.158
Mof_N 	N 	0.0738	0.9704	0.9324	-0.147
Mof_N 	N 	0.0204	0.9334	0.8632	-0.327
Mof_H 	H 	0.9687	0.9792	0.8705	0.183
Mof_H 	H 	0.0279	0.8996	0.8375	0.177
Mof_N 	N 	0.2061	0.7716	0.84732	-0.259
Mof_N 	N 	0.3154	0.7533	0.8985	-0.296
Mof_N 	N 	0.2304	0.8846	0.9526	-0.3
Mof_N 	N 	0.6987	0.3928	0.5794	-0.306
Mof_N 	N 	0.7379	0.2514	0.6049	-0.306
Mof_N 	N 	0.5782	0.261	0.6569	-0.238
Mof_N 	N 	0.3998	0.4348	0.6773	-0.319
Mof_H 	H 	0.3577	0.485	0.6809	0.162
Mof_H 	H 	0.379	0.397	0.6934	0.161
Mof_N 	N 	0.5243	0.4791	0.6226	-0.152
Mof_O 	O 	0.9405	0.1861	0.50161	-0.495
Mof_O 	O 	0.8618	0.2984	0.46389	-0.479
Mof_O 	O 	0.8689	0.2697	0.2725	-0.455
Mof_O 	O 	0.9387	0.1507	0.2324	-0.403
Mof_O 	O 	0.1098	0.8972	0.3245	-0.294
Mof_O 	O 	0.0573	0.916	0.41154	-0.447
Mof_O 	O 	0.7269	0.4764	0.4406	-0.285
Mof_O 	O 	0.8245	0.4855	0.49235	-0.454
Mof_O 	O 	0.0557	0.6387	0.44853	-0.497
Mof_O 	O 	0.0256	0.747	0.39792	-0.475
Mof_O 	O 	0.7502	0.7917	0.3062	-0.308
Mof_O 	O 	0.6417	0.7233	0.32835	-0.472
Mof_O 	O 	0.5098	0.4285	0.1638	-0.3
Mof_O 	O 	0.531	0.4328	0.076	-0.453
Mof_O 	O 	0.5654	0.6823	0.2329	-0.395
Mof_O 	O 	0.4407	0.7989	0.22982	-0.389
Mof_O 	O 	0.378	0.7	0.00639	-0.5
Mof_O 	O 	0.3654	0.8151	0.0497	-0.476
Mof_O 	O 	0.9405	0.6623	0.813	-0.275
Mof_O 	O 	0.0136	0.7292	0.8535	-0.472
Mof_O 	O 	0.7869	0.0086	0.9426	-0.345
Mof_O 	O 	0.6358	0.0145	0.9941	-0.407
Mof_O 	O 	0.4664	0.8363	0.9316	-0.521
Mof_O 	O 	0.5644	0.7041	0.9116	-0.452
_end
