data_functionalizedCrystal
_audit_creation_method	'EQeq! by Chris Wilmer'
_symmetry_space_group_name_H-M	'P1'
_symmetry_Int_Tables_number	1
_symmetry_cell_setting	triclinic
loop_
_symmetry_equiv_pos_as_xyz
  x,y,z
_cell_length_a	13.6542
_cell_length_b	13.6542
_cell_length_c	42.16
_cell_angle_alpha	90
_cell_angle_beta	90
_cell_angle_gamma	90
loop_
_atom_site_label
_atom_site_type_symbol
_atom_site_fract_x
_atom_site_fract_y
_atom_site_fract_z
_atom_site_charge
Mof_Cu	Cu	0.55767	0.51279	0.27928	0.911
Mof_Cu	Cu	0.72394	0.4218	0.23633	0.914
Mof_Cu	Cu	0.32772	0.54182	0.27036	0.93
Mof_Cu	Cu	0.63234	0.84817	0.25398	0.898
Mof_S 	S 	0.71554	0.38635	0.30821	0.715
Mof_S 	S 	0.46042	0.6998	0.30074	0.699
Mof_S 	S 	0.68642	0.6486	0.2155	0.732
Mof_O 	O 	0.2078	0.5486	0.29446	-0.395
Mof_O 	O 	0.10041	0.4311	0.28302	-0.423
Mof_O 	O 	0.654	0.4747	0.31065	-0.41
Mof_O 	O 	0.77848	0.3967	0.28024	-0.429
Mof_O 	O 	0.6495	0.3017	0.30391	-0.431
Mof_O 	O 	0.7732	0.374	0.33646	-0.27
Mof_O 	O 	0.5283	0.61837	0.30832	-0.414
Mof_O 	O 	0.3607	0.6603	0.29633	-0.402
Mof_O 	O 	0.4926	0.7451	0.27059	-0.487
Mof_O 	O 	0.4612	0.7703	0.32594	-0.276
Mof_O 	O 	0.71	0.57859	0.24087	-0.446
Mof_O 	O 	0.6964	0.7479	0.22912	-0.438
Mof_O 	O 	0.5861	0.633	0.20483	-0.443
Mof_O 	O 	0.7533	0.6403	0.18881	-0.293
Mof_N 	N 	0.93274	0.63829	0.46926	-0.207
Mof_N 	N 	0.9123	0.46912	0.47213	-0.225
Mof_C 	C 	0.91	0.5578	0.48476	0.119
Mof_H 	H 	0.8912	0.5636	0.5059	0.006
Mof_C 	C 	0.9616	0.6309	0.43897	0.073
Mof_H 	H 	0.9764	0.6874	0.4276	0.031
Mof_C 	C 	0.9697	0.5408	0.42445	-0.08
Mof_C 	C 	0.9423	0.4606	0.44218	0.062
Mof_H 	H 	0.9448	0.3988	0.433	0.023
Mof_C 	C 	0.0087	0.5305	0.39205	0.165
Mof_C 	C 	0.0834	0.5915	0.38171	-0.203
Mof_H 	H 	0.1079	0.6396	0.3952	0.14
Mof_C 	C 	0.1207	0.5816	0.35221	0.137
Mof_H 	H 	0.1702	0.6237	0.3456	0.023
Mof_C 	C 	0.0867	0.5098	0.33139	-0.176
Mof_C 	C 	0.0112	0.45	0.3412	0.135
Mof_H 	H 	0.9864	0.4024	0.3276	0.023
Mof_C 	C 	0.9723	0.4612	0.37136	-0.186
Mof_H 	H 	0.9208	0.4213	0.3778	0.131
Mof_C 	C 	0.135	0.4949	0.30046	0.432
Mof_Cu	Cu	0.44233	0.48721	0.77928	0.912
Mof_Cu	Cu	0.27606	0.5782	0.73633	0.915
Mof_Cu	Cu	0.67228	0.45818	0.77036	0.931
Mof_Cu	Cu	0.36766	0.15183	0.75398	0.899
Mof_S 	S 	0.28446	0.61365	0.80821	0.716
Mof_S 	S 	0.53958	0.3002	0.80074	0.7
Mof_S 	S 	0.31358	0.3514	0.7155	0.733
Mof_O 	O 	0.7922	0.4514	0.79446	-0.394
Mof_O 	O 	0.89959	0.5689	0.78302	-0.422
Mof_O 	O 	0.346	0.5253	0.81065	-0.409
Mof_O 	O 	0.22152	0.6033	0.78024	-0.428
Mof_O 	O 	0.3505	0.6983	0.80391	-0.43
Mof_O 	O 	0.2268	0.626	0.83646	-0.27
Mof_O 	O 	0.4717	0.38163	0.80832	-0.414
Mof_O 	O 	0.6393	0.3397	0.79633	-0.402
Mof_O 	O 	0.5074	0.2549	0.77059	-0.487
Mof_O 	O 	0.5388	0.2297	0.82594	-0.276
Mof_O 	O 	0.29	0.42141	0.74087	-0.446
Mof_O 	O 	0.3036	0.2521	0.72912	-0.438
Mof_O 	O 	0.4139	0.367	0.70483	-0.443
Mof_O 	O 	0.2467	0.3597	0.68881	-0.293
Mof_N 	N 	0.06726	0.36171	0.96926	-0.206
Mof_N 	N 	0.0877	0.53088	0.97213	-0.224
Mof_C 	C 	0.09	0.4422	0.98476	0.112
Mof_H 	H 	0.1088	0.4364	0.0059	0.011
Mof_C 	C 	0.0384	0.3691	0.93897	0.073
Mof_H 	H 	0.0236	0.3126	0.9276	0.031
Mof_C 	C 	0.0303	0.4592	0.92445	-0.08
Mof_C 	C 	0.0577	0.5394	0.94218	0.062
Mof_H 	H 	0.0552	0.6012	0.933	0.023
Mof_C 	C 	0.9913	0.4695	0.89205	0.166
Mof_C 	C 	0.9166	0.4085	0.88171	-0.204
Mof_H 	H 	0.8921	0.3604	0.8952	0.14
Mof_C 	C 	0.8793	0.4184	0.85221	0.137
Mof_H 	H 	0.8298	0.3763	0.8456	0.023
Mof_C 	C 	0.9133	0.4902	0.83139	-0.176
Mof_C 	C 	0.9888	0.55	0.8412	0.135
Mof_H 	H 	0.0136	0.5976	0.8276	0.023
Mof_C 	C 	0.0277	0.5388	0.87136	-0.187
Mof_H 	H 	0.0792	0.5787	0.8778	0.131
Mof_C 	C 	0.865	0.5051	0.80046	0.432
Mof_Cu	Cu	0.98721	0.05767	0.02928	0.911
Mof_Cu	Cu	0.0782	0.22394	0.98633	0.914
Mof_Cu	Cu	0.95818	0.82772	0.02036	0.932
Mof_Cu	Cu	0.65183	0.13234	0.00398	0.9
Mof_S 	S 	0.11365	0.21554	0.05821	0.716
Mof_S 	S 	0.8002	0.96042	0.05074	0.702
Mof_S 	S 	0.8514	0.18642	0.9655	0.733
Mof_O 	O 	0.9514	0.7078	0.04446	-0.393
Mof_O 	O 	0.0689	0.60041	0.03302	-0.42
Mof_O 	O 	0.0253	0.154	0.06065	-0.407
Mof_O 	O 	0.1033	0.27848	0.03024	-0.426
Mof_O 	O 	0.1983	0.1495	0.05391	-0.43
Mof_O 	O 	0.126	0.2732	0.08646	-0.269
Mof_O 	O 	0.88163	0.0283	0.05832	-0.416
Mof_O 	O 	0.8397	0.8607	0.04633	-0.402
Mof_O 	O 	0.7549	0.9926	0.02059	-0.486
Mof_O 	O 	0.7297	0.9612	0.07594	-0.275
Mof_O 	O 	0.92141	0.21	0.99087	-0.448
Mof_O 	O 	0.7521	0.1964	0.97912	-0.44
Mof_O 	O 	0.867	0.0861	0.95483	-0.444
Mof_O 	O 	0.8597	0.2533	0.93881	-0.294
Mof_N 	N 	0.86171	0.43274	0.21926	-0.207
Mof_N 	N 	0.03088	0.4123	0.22213	-0.224
Mof_C 	C 	0.9422	0.41	0.23476	0.118
Mof_H 	H 	0.9364	0.3912	0.2559	0.006
Mof_C 	C 	0.8691	0.4616	0.18897	0.073
Mof_H 	H 	0.8126	0.4764	0.1776	0.031
Mof_C 	C 	0.9592	0.4697	0.17445	-0.08
Mof_C 	C 	0.0394	0.4423	0.19218	0.063
Mof_H 	H 	0.1012	0.4448	0.183	0.023
Mof_C 	C 	0.9695	0.5087	0.14205	0.164
Mof_C 	C 	0.9085	0.5834	0.13171	-0.202
Mof_H 	H 	0.8604	0.6079	0.1452	0.14
Mof_C 	C 	0.9184	0.6207	0.10221	0.135
Mof_H 	H 	0.8763	0.6702	0.0956	0.024
Mof_C 	C 	0.9902	0.5867	0.08139	-0.174
Mof_C 	C 	0.05	0.5112	0.0912	0.132
Mof_H 	H 	0.0976	0.4864	0.0776	0.025
Mof_C 	C 	0.0388	0.4723	0.12136	-0.183
Mof_H 	H 	0.0787	0.4208	0.1278	0.13
Mof_C 	C 	0.0051	0.635	0.05046	0.431
Mof_Cu	Cu	0.01279	0.94233	0.52928	0.911
Mof_Cu	Cu	0.9218	0.77606	0.48633	0.916
Mof_Cu	Cu	0.04182	0.17228	0.52036	0.931
Mof_Cu	Cu	0.34817	0.86766	0.50398	0.898
Mof_S 	S 	0.88635	0.78446	0.55821	0.716
Mof_S 	S 	0.1998	0.03958	0.55074	0.702
Mof_S 	S 	0.1486	0.81358	0.4655	0.733
Mof_O 	O 	0.0486	0.2922	0.54446	-0.393
Mof_O 	O 	0.9311	0.39959	0.53302	-0.422
Mof_O 	O 	0.9747	0.846	0.56065	-0.408
Mof_O 	O 	0.8967	0.72152	0.53024	-0.428
Mof_O 	O 	0.8017	0.8505	0.55391	-0.43
Mof_O 	O 	0.874	0.7268	0.58646	-0.27
Mof_O 	O 	0.11837	0.9717	0.55832	-0.416
Mof_O 	O 	0.1603	0.1393	0.54633	-0.402
Mof_O 	O 	0.2451	0.0074	0.52059	-0.487
Mof_O 	O 	0.2703	0.0388	0.57594	-0.276
Mof_O 	O 	0.07859	0.79	0.49087	-0.447
Mof_O 	O 	0.2479	0.8036	0.47912	-0.438
Mof_O 	O 	0.133	0.9139	0.45483	-0.443
Mof_O 	O 	0.1403	0.7467	0.43881	-0.293
Mof_N 	N 	0.13829	0.56726	0.71926	-0.207
Mof_N 	N 	0.96912	0.5877	0.72213	-0.224
Mof_C 	C 	0.0578	0.59	0.73476	0.118
Mof_H 	H 	0.0636	0.6088	0.7559	0.006
Mof_C 	C 	0.1309	0.5384	0.68897	0.073
Mof_H 	H 	0.1874	0.5236	0.6776	0.03
Mof_C 	C 	0.0408	0.5303	0.67445	-0.08
Mof_C 	C 	0.9606	0.5577	0.69218	0.063
Mof_H 	H 	0.8988	0.5552	0.683	0.023
Mof_C 	C 	0.0305	0.4913	0.64205	0.164
Mof_C 	C 	0.0915	0.4166	0.63171	-0.201
Mof_H 	H 	0.1396	0.3921	0.6452	0.14
Mof_C 	C 	0.0816	0.3793	0.60221	0.135
Mof_H 	H 	0.1237	0.3298	0.5956	0.024
Mof_C 	C 	0.0098	0.4133	0.58139	-0.173
Mof_C 	C 	0.95	0.4888	0.5912	0.131
Mof_H 	H 	0.9024	0.5136	0.5776	0.025
Mof_C 	C 	0.9612	0.5277	0.62136	-0.183
Mof_H 	H 	0.9213	0.5792	0.6278	0.13
Mof_C 	C 	0.9949	0.365	0.55046	0.43
Mof_Cu	Cu	0.94233	0.01279	0.47072	0.911
Mof_Cu	Cu	0.77606	0.9218	0.51367	0.916
Mof_Cu	Cu	0.17228	0.04182	0.47964	0.931
Mof_Cu	Cu	0.86766	0.34817	0.49602	0.898
Mof_S 	S 	0.78446	0.88635	0.44179	0.716
Mof_S 	S 	0.03958	0.1998	0.44926	0.702
Mof_S 	S 	0.81358	0.1486	0.5345	0.733
Mof_O 	O 	0.2922	0.0486	0.45554	-0.393
Mof_O 	O 	0.39959	0.9311	0.46698	-0.422
Mof_O 	O 	0.846	0.9747	0.43935	-0.408
Mof_O 	O 	0.72152	0.8967	0.46976	-0.428
Mof_O 	O 	0.8505	0.8017	0.44609	-0.43
Mof_O 	O 	0.7268	0.874	0.41354	-0.27
Mof_O 	O 	0.9717	0.11837	0.44168	-0.416
Mof_O 	O 	0.1393	0.1603	0.45367	-0.402
Mof_O 	O 	0.0074	0.2451	0.47941	-0.487
Mof_O 	O 	0.0388	0.2703	0.42406	-0.276
Mof_O 	O 	0.79	0.07859	0.50913	-0.447
Mof_O 	O 	0.8036	0.2479	0.52088	-0.438
Mof_O 	O 	0.9139	0.133	0.54517	-0.443
Mof_O 	O 	0.7467	0.1403	0.56119	-0.293
Mof_N 	N 	0.56726	0.13829	0.28074	-0.207
Mof_N 	N 	0.5877	0.96912	0.27787	-0.224
Mof_C 	C 	0.59	0.0578	0.26524	0.118
Mof_H 	H 	0.6088	0.0636	0.2441	0.006
Mof_C 	C 	0.5384	0.1309	0.31103	0.073
Mof_H 	H 	0.5236	0.1874	0.3224	0.03
Mof_C 	C 	0.5303	0.0408	0.32555	-0.08
Mof_C 	C 	0.5577	0.9606	0.30782	0.063
Mof_H 	H 	0.5552	0.8988	0.317	0.023
Mof_C 	C 	0.4913	0.0305	0.35795	0.164
Mof_C 	C 	0.4166	0.0915	0.36829	-0.201
Mof_H 	H 	0.3921	0.1396	0.3548	0.14
Mof_C 	C 	0.3793	0.0816	0.39779	0.135
Mof_H 	H 	0.3298	0.1237	0.4044	0.024
Mof_C 	C 	0.4133	0.0098	0.41861	-0.173
Mof_C 	C 	0.4888	0.95	0.4088	0.131
Mof_H 	H 	0.5136	0.9024	0.4224	0.025
Mof_C 	C 	0.5277	0.9612	0.37864	-0.183
Mof_H 	H 	0.5792	0.9213	0.3722	0.13
Mof_C 	C 	0.365	0.9949	0.44954	0.43
Mof_Cu	Cu	0.05767	0.98721	0.97072	0.91
Mof_Cu	Cu	0.22394	0.0782	0.01367	0.916
Mof_Cu	Cu	0.82772	0.95818	0.97964	0.93
Mof_Cu	Cu	0.13234	0.65183	0.99602	0.897
Mof_S 	S 	0.21554	0.11365	0.94179	0.716
Mof_S 	S 	0.96042	0.8002	0.94926	0.702
Mof_S 	S 	0.18642	0.8514	0.0345	0.732
Mof_O 	O 	0.7078	0.9514	0.95554	-0.394
Mof_O 	O 	0.60041	0.0689	0.96698	-0.423
Mof_O 	O 	0.154	0.0253	0.93935	-0.408
Mof_O 	O 	0.27848	0.1033	0.96976	-0.429
Mof_O 	O 	0.1495	0.1983	0.94609	-0.43
Mof_O 	O 	0.2732	0.126	0.91354	-0.27
Mof_O 	O 	0.0283	0.88163	0.94168	-0.417
Mof_O 	O 	0.8607	0.8397	0.95367	-0.403
Mof_O 	O 	0.9926	0.7549	0.97941	-0.489
Mof_O 	O 	0.9612	0.7297	0.92406	-0.276
Mof_O 	O 	0.21	0.92141	0.00913	-0.445
Mof_O 	O 	0.1964	0.7521	0.02088	-0.437
Mof_O 	O 	0.0861	0.867	0.04517	-0.443
Mof_O 	O 	0.2533	0.8597	0.06119	-0.293
Mof_N 	N 	0.43274	0.86171	0.78074	-0.207
Mof_N 	N 	0.4123	0.03088	0.77787	-0.224
Mof_C 	C 	0.41	0.9422	0.76524	0.118
Mof_H 	H 	0.3912	0.9364	0.7441	0.006
Mof_C 	C 	0.4616	0.8691	0.81103	0.073
Mof_H 	H 	0.4764	0.8126	0.8224	0.03
Mof_C 	C 	0.4697	0.9592	0.82555	-0.08
Mof_C 	C 	0.4423	0.0394	0.80782	0.063
Mof_H 	H 	0.4448	0.1012	0.817	0.023
Mof_C 	C 	0.5087	0.9695	0.85795	0.164
Mof_C 	C 	0.5834	0.9085	0.86829	-0.202
Mof_H 	H 	0.6079	0.8604	0.8548	0.14
Mof_C 	C 	0.6207	0.9184	0.89779	0.136
Mof_H 	H 	0.6702	0.8763	0.9044	0.023
Mof_C 	C 	0.5867	0.9902	0.91861	-0.175
Mof_C 	C 	0.5112	0.05	0.9088	0.132
Mof_H 	H 	0.4864	0.0976	0.9224	0.024
Mof_C 	C 	0.4723	0.0388	0.87864	-0.184
Mof_H 	H 	0.4208	0.0787	0.8722	0.13
Mof_C 	C 	0.635	0.0051	0.94954	0.431
Mof_Cu	Cu	0.51279	0.55767	0.72072	0.912
Mof_Cu	Cu	0.4218	0.72394	0.76367	0.915
Mof_Cu	Cu	0.54182	0.32772	0.72964	0.931
Mof_Cu	Cu	0.84817	0.63234	0.74602	0.899
Mof_S 	S 	0.38635	0.71554	0.69179	0.716
Mof_S 	S 	0.6998	0.46042	0.69926	0.7
Mof_S 	S 	0.6486	0.68642	0.7845	0.733
Mof_O 	O 	0.5486	0.2078	0.70554	-0.394
Mof_O 	O 	0.4311	0.10041	0.71698	-0.422
Mof_O 	O 	0.4747	0.654	0.68935	-0.409
Mof_O 	O 	0.3967	0.77848	0.71976	-0.428
Mof_O 	O 	0.3017	0.6495	0.69609	-0.43
Mof_O 	O 	0.374	0.7732	0.66354	-0.27
Mof_O 	O 	0.61837	0.5283	0.69168	-0.414
Mof_O 	O 	0.6603	0.3607	0.70367	-0.402
Mof_O 	O 	0.7451	0.4926	0.72941	-0.487
Mof_O 	O 	0.7703	0.4612	0.67406	-0.276
Mof_O 	O 	0.57859	0.71	0.75913	-0.446
Mof_O 	O 	0.7479	0.6964	0.77088	-0.438
Mof_O 	O 	0.633	0.5861	0.79517	-0.443
Mof_O 	O 	0.6403	0.7533	0.81119	-0.293
Mof_N 	N 	0.63829	0.93274	0.53074	-0.207
Mof_N 	N 	0.46912	0.9123	0.52787	-0.225
Mof_C 	C 	0.5578	0.91	0.51524	0.119
Mof_H 	H 	0.5636	0.8912	0.4941	0.006
Mof_C 	C 	0.6309	0.9616	0.56103	0.073
Mof_H 	H 	0.6874	0.9764	0.5724	0.031
Mof_C 	C 	0.5408	0.9697	0.57555	-0.08
Mof_C 	C 	0.4606	0.9423	0.55782	0.062
Mof_H 	H 	0.3988	0.9448	0.567	0.023
Mof_C 	C 	0.5305	0.0087	0.60795	0.165
Mof_C 	C 	0.5915	0.0834	0.61829	-0.203
Mof_H 	H 	0.6396	0.1079	0.6048	0.14
Mof_C 	C 	0.5816	0.1207	0.64779	0.137
Mof_H 	H 	0.6237	0.1702	0.6544	0.023
Mof_C 	C 	0.5098	0.0867	0.66861	-0.176
Mof_C 	C 	0.45	0.0112	0.6588	0.135
Mof_H 	H 	0.4024	0.9864	0.6724	0.023
Mof_C 	C 	0.4612	0.9723	0.62864	-0.186
Mof_H 	H 	0.4213	0.9208	0.6222	0.131
Mof_C 	C 	0.4949	0.135	0.69954	0.432
Mof_Cu	Cu	0.48721	0.44233	0.22072	0.912
Mof_Cu	Cu	0.5782	0.27606	0.26367	0.915
Mof_Cu	Cu	0.45818	0.67228	0.22964	0.931
Mof_Cu	Cu	0.15183	0.36766	0.24602	0.899
Mof_S 	S 	0.61365	0.28446	0.19179	0.716
Mof_S 	S 	0.3002	0.53958	0.19926	0.7
Mof_S 	S 	0.3514	0.31358	0.2845	0.733
Mof_O 	O 	0.4514	0.7922	0.20554	-0.394
Mof_O 	O 	0.5689	0.89959	0.21698	-0.422
Mof_O 	O 	0.5253	0.346	0.18935	-0.409
Mof_O 	O 	0.6033	0.22152	0.21976	-0.428
Mof_O 	O 	0.6983	0.3505	0.19609	-0.43
Mof_O 	O 	0.626	0.2268	0.16354	-0.27
Mof_O 	O 	0.38163	0.4717	0.19168	-0.414
Mof_O 	O 	0.3397	0.6393	0.20367	-0.402
Mof_O 	O 	0.2549	0.5074	0.22941	-0.487
Mof_O 	O 	0.2297	0.5388	0.17406	-0.275
Mof_O 	O 	0.42141	0.29	0.25913	-0.446
Mof_O 	O 	0.2521	0.3036	0.27088	-0.438
Mof_O 	O 	0.367	0.4139	0.29517	-0.443
Mof_O 	O 	0.3597	0.2467	0.31119	-0.293
Mof_N 	N 	0.36171	0.06726	0.03074	-0.208
Mof_N 	N 	0.53088	0.0877	0.02787	-0.225
Mof_C 	C 	0.4422	0.09	0.01524	0.125
Mof_H 	H 	0.4364	0.1088	0.9941	0.002
Mof_C 	C 	0.3691	0.0384	0.06103	0.074
Mof_H 	H 	0.3126	0.0236	0.0724	0.031
Mof_C 	C 	0.4592	0.0303	0.07555	-0.08
Mof_C 	C 	0.5394	0.0577	0.05782	0.063
Mof_H 	H 	0.6012	0.0552	0.067	0.022
Mof_C 	C 	0.4695	0.9913	0.10795	0.166
Mof_C 	C 	0.4085	0.9166	0.11829	-0.204
Mof_H 	H 	0.3604	0.8921	0.1048	0.141
Mof_C 	C 	0.4184	0.8793	0.14779	0.137
Mof_H 	H 	0.3763	0.8298	0.1544	0.023
Mof_C 	C 	0.4902	0.9133	0.16861	-0.176
Mof_C 	C 	0.55	0.9888	0.1588	0.135
Mof_H 	H 	0.5976	0.0136	0.1724	0.023
Mof_C 	C 	0.5388	0.0277	0.12864	-0.187
Mof_H 	H 	0.5787	0.0792	0.1222	0.131
Mof_C 	C 	0.5051	0.865	0.19954	0.432
Mof_O 	O 	0.59106	0.40894	0.25	-0.678
Mof_O 	O 	0.45389	0.54611	0.25	-0.675
Mof_O 	O 	0.40894	0.59106	0.75	-0.678
Mof_O 	O 	0.54611	0.45389	0.75	-0.675
Mof_O 	O 	0.09106	0.09106	-0	-0.675
Mof_O 	O 	0.95389	0.95389	-0	-0.672
Mof_O 	O 	0.90894	0.90894	0.5	-0.677
Mof_O 	O 	0.04611	0.04611	0.5	-0.674
_end
