data_functionalizedCrystal
_audit_creation_method	'EQeq! by Chris Wilmer'
_symmetry_space_group_name_H-M	'P1'
_symmetry_Int_Tables_number	1
_symmetry_cell_setting	triclinic
loop_
_symmetry_equiv_pos_as_xyz
  x,y,z
_cell_length_a	31.8033
_cell_length_b	31.8033
_cell_length_c	34.5593
_cell_angle_alpha	90
_cell_angle_beta	90
_cell_angle_gamma	90
loop_
_atom_site_label
_atom_site_type_symbol
_atom_site_fract_x
_atom_site_fract_y
_atom_site_fract_z
_atom_site_charge
Mof_P 	P 	0.05084	0.50152	0.17064	0.557
Mof_P 	P 	0.17618	0.69861	0.325	0.574
Mof_P 	P 	0.96685	0.32645	0.07578	0.556
Mof_P 	P 	0.15376	0.58464	0.27232	0.582
Mof_O 	O 	0.22003	0.71025	0.34217	-0.423
Mof_O 	O 	0.21739	0.65015	0.2229	-0.485
Mof_O 	O 	0.15634	0.73952	0.30922	-0.417
Mof_O 	O 	0.98302	0.32929	0.03414	-0.389
Mof_O 	O 	0.96566	0.48094	0.05215	-0.632
Mof_O 	O 	0.05809	0.51715	0.02728	-0.648
Mof_O 	O 	0.93896	0.36456	0.08547	-0.393
Mof_O 	O 	0.12432	0.49616	0.08138	-0.503
Mof_O 	O 	0.00932	0.54589	0.08927	-0.48
Mof_O 	O 	0.10658	0.69321	0.25626	-0.497
Mof_O 	O 	0.14998	0.67728	0.35548	-0.162
Mof_O 	O 	0.96691	0.43531	0.12457	-0.496
Mof_O 	O 	0.18421	0.66951	0.28973	-0.417
Mof_O 	O 	0.1859	0.73168	0.23377	-0.627
Mof_O 	O 	0.00066	0.32018	0.10589	-0.17
Mof_O 	O 	0.05816	0.51868	0.21071	-0.434
Mof_O 	O 	0.20177	0.58587	0.27467	-0.404
Mof_O 	O 	0.15624	0.80649	0.26561	-0.483
Mof_O 	O 	0.07754	0.52567	0.14101	-0.401
Mof_O 	O 	0.00431	0.50413	0.15991	-0.408
Mof_O 	O 	0.13782	0.61619	0.24208	-0.404
Mof_O 	O 	0.93704	0.28676	0.07547	-0.174
Mof_O 	O 	0.1393	0.54118	0.26336	-0.443
Mof_O 	O 	0.06374	0.45373	0.17202	-0.203
Mof_O 	O 	0.1351	0.59702	0.31307	-0.166
Mof_Mo	Mo	0.12816	0.74962	0.24913	1.12
Mof_Mo	Mo	0.15711	0.67671	0.22935	1.121
Mof_Mo	Mo	0.07437	0.5302	0.08095	1.112
Mof_Mo	Mo	0.94356	0.42704	0.07316	1.127
Mof_Mo	Mo	0.24492	0.63376	0.27578	1.124
Mof_Mo	Mo	0.97411	0.49272	0.10758	1.14
Mof_P 	P 	0.55084	0.00152	0.67064	0.535
Mof_P 	P 	0.67618	0.19861	0.825	0.573
Mof_P 	P 	0.46685	0.82645	0.57578	0.542
Mof_P 	P 	0.65376	0.08464	0.77232	0.581
Mof_O 	O 	0.72003	0.21025	0.84217	-0.423
Mof_O 	O 	0.71739	0.15015	0.7229	-0.487
Mof_O 	O 	0.65634	0.23952	0.80922	-0.418
Mof_O 	O 	0.48302	0.82929	0.53414	-0.384
Mof_O 	O 	0.46566	0.98094	0.55215	-0.625
Mof_O 	O 	0.55809	0.01715	0.52728	-0.658
Mof_O 	O 	0.43896	0.86456	0.58547	-0.391
Mof_O 	O 	0.62432	0.99616	0.58138	-0.491
Mof_O 	O 	0.50932	0.04589	0.58927	-0.48
Mof_O 	O 	0.60658	0.19321	0.75626	-0.497
Mof_O 	O 	0.64998	0.17728	0.85548	-0.162
Mof_O 	O 	0.46691	0.93531	0.62457	-0.502
Mof_O 	O 	0.68421	0.16951	0.78973	-0.418
Mof_O 	O 	0.6859	0.23168	0.73377	-0.628
Mof_O 	O 	0.50066	0.82018	0.60589	-0.157
Mof_O 	O 	0.55816	0.01868	0.71071	-0.439
Mof_O 	O 	0.70177	0.08587	0.77467	-0.408
Mof_O 	O 	0.65624	0.30649	0.76561	-0.484
Mof_O 	O 	0.57754	0.02567	0.64101	-0.402
Mof_O 	O 	0.50431	0.00413	0.65991	-0.417
Mof_O 	O 	0.63782	0.11619	0.74208	-0.404
Mof_O 	O 	0.43704	0.78676	0.57547	-0.172
Mof_O 	O 	0.6393	0.04118	0.76336	-0.452
Mof_O 	O 	0.56374	0.95373	0.67202	-0.182
Mof_O 	O 	0.6351	0.09702	0.81307	-0.168
Mof_Mo	Mo	0.62816	0.24962	0.74913	1.122
Mof_Mo	Mo	0.65711	0.17671	0.72935	1.121
Mof_Mo	Mo	0.57437	0.0302	0.58095	1.063
Mof_Mo	Mo	0.44356	0.92704	0.57316	1.129
Mof_Mo	Mo	0.74492	0.13376	0.77578	1.12
Mof_Mo	Mo	0.47411	0.99272	0.60758	1.166
Mof_P 	P 	0.44916	0.49848	0.67064	0.555
Mof_P 	P 	0.32382	0.30139	0.825	0.573
Mof_P 	P 	0.53315	0.67355	0.57578	0.542
Mof_P 	P 	0.34624	0.41536	0.77232	0.581
Mof_O 	O 	0.27997	0.28975	0.84217	-0.423
Mof_O 	O 	0.28261	0.34985	0.7229	-0.486
Mof_O 	O 	0.34366	0.26048	0.80922	-0.417
Mof_O 	O 	0.51698	0.67071	0.53414	-0.385
Mof_O 	O 	0.53434	0.51906	0.55215	-0.632
Mof_O 	O 	0.44191	0.48285	0.52728	-0.642
Mof_O 	O 	0.56104	0.63544	0.58547	-0.393
Mof_O 	O 	0.37568	0.50384	0.58138	-0.507
Mof_O 	O 	0.49068	0.45411	0.58927	-0.47
Mof_O 	O 	0.39342	0.30679	0.75626	-0.496
Mof_O 	O 	0.35002	0.32272	0.85548	-0.162
Mof_O 	O 	0.53309	0.56469	0.62457	-0.499
Mof_O 	O 	0.31579	0.33049	0.78973	-0.418
Mof_O 	O 	0.3141	0.26832	0.73377	-0.629
Mof_O 	O 	0.49934	0.67982	0.60589	-0.157
Mof_O 	O 	0.44184	0.48132	0.71071	-0.433
Mof_O 	O 	0.29823	0.41413	0.77467	-0.404
Mof_O 	O 	0.34376	0.19351	0.76561	-0.485
Mof_O 	O 	0.42246	0.47433	0.64101	-0.4
Mof_O 	O 	0.49569	0.49587	0.65991	-0.397
Mof_O 	O 	0.36218	0.38381	0.74208	-0.403
Mof_O 	O 	0.56296	0.71324	0.57547	-0.172
Mof_O 	O 	0.3607	0.45882	0.76336	-0.443
Mof_O 	O 	0.43626	0.54627	0.67202	-0.2
Mof_O 	O 	0.3649	0.40298	0.81307	-0.166
Mof_Mo	Mo	0.37184	0.25038	0.74913	1.121
Mof_Mo	Mo	0.34289	0.32329	0.72935	1.123
Mof_Mo	Mo	0.42563	0.4698	0.58095	1.115
Mof_Mo	Mo	0.55644	0.57296	0.57316	1.127
Mof_Mo	Mo	0.25508	0.36624	0.77578	1.124
Mof_Mo	Mo	0.52589	0.50728	0.60758	1.112
Mof_P 	P 	0.94916	0.99848	0.17064	0.573
Mof_P 	P 	0.82382	0.80139	0.325	0.573
Mof_P 	P 	0.03315	0.17355	0.07578	0.534
Mof_P 	P 	0.84624	0.91536	0.27232	0.581
Mof_O 	O 	0.77997	0.78975	0.34217	-0.424
Mof_O 	O 	0.78261	0.84985	0.2229	-0.485
Mof_O 	O 	0.84366	0.76048	0.30922	-0.418
Mof_O 	O 	0.01698	0.17071	0.03414	-0.411
Mof_O 	O 	0.03434	0.01906	0.05215	-0.641
Mof_O 	O 	0.94191	0.98285	0.02728	-0.624
Mof_O 	O 	0.06104	0.13544	0.08547	-0.397
Mof_O 	O 	0.87568	0.00384	0.08138	-0.52
Mof_O 	O 	0.99068	0.95411	0.08927	-0.448
Mof_O 	O 	0.89342	0.80679	0.25626	-0.495
Mof_O 	O 	0.85002	0.82272	0.35548	-0.162
Mof_O 	O 	0.03309	0.06469	0.12457	-0.499
Mof_O 	O 	0.81579	0.83049	0.28973	-0.419
Mof_O 	O 	0.8141	0.76832	0.23377	-0.629
Mof_O 	O 	0.99934	0.17982	0.10589	-0.145
Mof_O 	O 	0.94184	0.98132	0.21071	-0.42
Mof_O 	O 	0.79823	0.91413	0.27467	-0.4
Mof_O 	O 	0.84376	0.69351	0.26561	-0.484
Mof_O 	O 	0.92246	0.97433	0.14101	-0.397
Mof_O 	O 	0.99569	0.99587	0.15991	-0.366
Mof_O 	O 	0.86218	0.88381	0.24208	-0.401
Mof_O 	O 	0.06296	0.21324	0.07547	-0.177
Mof_O 	O 	0.8607	0.95882	0.26336	-0.429
Mof_O 	O 	0.93626	0.04627	0.17202	-0.215
Mof_O 	O 	0.8649	0.90298	0.31307	-0.163
Mof_Mo	Mo	0.87184	0.75038	0.24913	1.124
Mof_Mo	Mo	0.84289	0.82329	0.22935	1.124
Mof_Mo	Mo	0.92563	0.9698	0.08095	1.168
Mof_Mo	Mo	0.05644	0.07296	0.07316	1.116
Mof_Mo	Mo	0.75508	0.86624	0.27578	1.13
Mof_Mo	Mo	0.02589	0.00728	0.10758	1.032
Mof_P 	P 	0.74848	0.80084	0.42064	0.555
Mof_P 	P 	0.55139	0.92618	0.575	0.573
Mof_P 	P 	0.92355	0.71685	0.32578	0.542
Mof_P 	P 	0.66536	0.90376	0.52232	0.583
Mof_O 	O 	0.53975	0.97003	0.59217	-0.41
Mof_O 	O 	0.59985	0.96739	0.4729	-0.48
Mof_O 	O 	0.51048	0.90634	0.55922	-0.418
Mof_O 	O 	0.92071	0.73302	0.28414	-0.383
Mof_O 	O 	0.76906	0.71566	0.30215	-0.632
Mof_O 	O 	0.73285	0.80809	0.27728	-0.643
Mof_O 	O 	0.88544	0.68896	0.33547	-0.392
Mof_O 	O 	0.75384	0.87432	0.33138	-0.505
Mof_O 	O 	0.70411	0.75932	0.33927	-0.47
Mof_O 	O 	0.55679	0.85658	0.50626	-0.497
Mof_O 	O 	0.57272	0.89998	0.60548	-0.162
Mof_O 	O 	0.81469	0.71691	0.37457	-0.499
Mof_O 	O 	0.58049	0.93421	0.53973	-0.419
Mof_O 	O 	0.51832	0.9359	0.48377	-0.623
Mof_O 	O 	0.92982	0.75066	0.35589	-0.155
Mof_O 	O 	0.73132	0.80816	0.46071	-0.432
Mof_O 	O 	0.66413	0.95177	0.52467	-0.407
Mof_O 	O 	0.44351	0.90624	0.51561	-0.481
Mof_O 	O 	0.72433	0.82754	0.39101	-0.399
Mof_O 	O 	0.74587	0.75431	0.40991	-0.397
Mof_O 	O 	0.63381	0.88782	0.49208	-0.403
Mof_O 	O 	0.96324	0.68704	0.32547	-0.166
Mof_O 	O 	0.70882	0.8893	0.51336	-0.441
Mof_O 	O 	0.79627	0.81374	0.42202	-0.2
Mof_O 	O 	0.65298	0.8851	0.56307	-0.166
Mof_Mo	Mo	0.50038	0.87816	0.49913	1.121
Mof_Mo	Mo	0.57329	0.90711	0.47935	1.128
Mof_Mo	Mo	0.7198	0.82437	0.33095	1.117
Mof_Mo	Mo	0.82296	0.69356	0.32316	1.127
Mof_Mo	Mo	0.61624	0.99492	0.52578	1.173
Mof_Mo	Mo	0.75728	0.72411	0.35758	1.112
Mof_P 	P 	0.24848	0.30084	0.92064	0.554
Mof_P 	P 	0.05139	0.42618	0.075	0.574
Mof_P 	P 	0.42355	0.21685	0.82578	0.542
Mof_P 	P 	0.16536	0.40376	0.02232	0.566
Mof_O 	O 	0.03975	0.47003	0.09217	-0.429
Mof_O 	O 	0.09985	0.46739	0.9729	-0.475
Mof_O 	O 	0.01048	0.40634	0.05922	-0.433
Mof_O 	O 	0.42071	0.23302	0.78414	-0.385
Mof_O 	O 	0.26906	0.21566	0.80215	-0.632
Mof_O 	O 	0.23285	0.30809	0.77728	-0.642
Mof_O 	O 	0.38544	0.18896	0.83547	-0.393
Mof_O 	O 	0.25384	0.37432	0.83138	-0.506
Mof_O 	O 	0.20411	0.25932	0.83927	-0.47
Mof_O 	O 	0.05679	0.35658	0.00626	-0.524
Mof_O 	O 	0.07272	0.39998	0.10548	-0.165
Mof_O 	O 	0.31469	0.21691	0.87457	-0.498
Mof_O 	O 	0.08049	0.43421	0.03973	-0.426
Mof_O 	O 	0.01832	0.4359	0.98377	-0.631
Mof_O 	O 	0.42982	0.25066	0.85589	-0.157
Mof_O 	O 	0.23132	0.30816	0.96071	-0.423
Mof_O 	O 	0.16413	0.45177	0.02467	-0.406
Mof_O 	O 	0.94351	0.40624	0.01561	-0.496
Mof_O 	O 	0.22433	0.32754	0.89101	-0.399
Mof_O 	O 	0.24587	0.25431	0.90991	-0.395
Mof_O 	O 	0.13381	0.38782	0.99208	-0.386
Mof_O 	O 	0.46324	0.18704	0.82547	-0.173
Mof_O 	O 	0.20882	0.3893	0.01336	-0.45
Mof_O 	O 	0.29627	0.31374	0.92202	-0.197
Mof_O 	O 	0.15298	0.3851	0.06307	-0.166
Mof_Mo	Mo	0.00038	0.37816	0.99913	1.156
Mof_Mo	Mo	0.07329	0.40711	0.97935	1.147
Mof_Mo	Mo	0.2198	0.32437	0.83095	1.115
Mof_Mo	Mo	0.32296	0.19356	0.82316	1.124
Mof_Mo	Mo	0.11624	0.49492	0.02578	1.098
Mof_Mo	Mo	0.25728	0.22411	0.85758	1.111
Mof_P 	P 	0.75152	0.19916	0.92064	0.554
Mof_P 	P 	0.94861	0.07382	0.075	0.574
Mof_P 	P 	0.57645	0.28315	0.82578	0.542
Mof_P 	P 	0.83464	0.09624	0.02232	0.564
Mof_O 	O 	0.96025	0.02997	0.09217	-0.43
Mof_O 	O 	0.90015	0.03261	0.9729	-0.479
Mof_O 	O 	0.98952	0.09366	0.05922	-0.42
Mof_O 	O 	0.57929	0.26698	0.78414	-0.385
Mof_O 	O 	0.73094	0.28434	0.80215	-0.632
Mof_O 	O 	0.76715	0.19191	0.77728	-0.642
Mof_O 	O 	0.61456	0.31104	0.83547	-0.392
Mof_O 	O 	0.74616	0.12568	0.83138	-0.508
Mof_O 	O 	0.79589	0.24068	0.83927	-0.469
Mof_O 	O 	0.94321	0.14342	0.00626	-0.525
Mof_O 	O 	0.92728	0.10002	0.10548	-0.162
Mof_O 	O 	0.68531	0.28309	0.87457	-0.498
Mof_O 	O 	0.91951	0.06579	0.03973	-0.425
Mof_O 	O 	0.98168	0.0641	0.98377	-0.629
Mof_O 	O 	0.57018	0.24934	0.85589	-0.157
Mof_O 	O 	0.76868	0.19184	0.96071	-0.422
Mof_O 	O 	0.83587	0.04823	0.02467	-0.404
Mof_O 	O 	0.05649	0.09376	0.01561	-0.515
Mof_O 	O 	0.77567	0.17246	0.89101	-0.399
Mof_O 	O 	0.75413	0.24569	0.90991	-0.394
Mof_O 	O 	0.86619	0.11218	0.99208	-0.384
Mof_O 	O 	0.53676	0.31296	0.82547	-0.172
Mof_O 	O 	0.79118	0.1107	0.01336	-0.451
Mof_O 	O 	0.70373	0.18626	0.92202	-0.198
Mof_O 	O 	0.84702	0.1149	0.06307	-0.166
Mof_Mo	Mo	0.99962	0.12184	0.99913	1.211
Mof_Mo	Mo	0.92671	0.09289	0.97935	1.14
Mof_Mo	Mo	0.7802	0.17563	0.83095	1.115
Mof_Mo	Mo	0.67704	0.30644	0.82316	1.128
Mof_Mo	Mo	0.88376	0.00508	0.02578	1.051
Mof_Mo	Mo	0.74272	0.27589	0.85758	1.115
Mof_P 	P 	0.25152	0.69916	0.42064	0.555
Mof_P 	P 	0.44861	0.57382	0.575	0.573
Mof_P 	P 	0.07645	0.78315	0.32578	0.542
Mof_P 	P 	0.33464	0.59624	0.52232	0.581
Mof_O 	O 	0.46025	0.52997	0.59217	-0.423
Mof_O 	O 	0.40015	0.53261	0.4729	-0.486
Mof_O 	O 	0.48952	0.59366	0.55922	-0.418
Mof_O 	O 	0.07929	0.76698	0.28414	-0.387
Mof_O 	O 	0.23094	0.78434	0.30215	-0.632
Mof_O 	O 	0.26715	0.69191	0.27728	-0.642
Mof_O 	O 	0.11456	0.81104	0.33547	-0.392
Mof_O 	O 	0.24616	0.62568	0.33138	-0.507
Mof_O 	O 	0.29589	0.74068	0.33927	-0.47
Mof_O 	O 	0.44321	0.64342	0.50626	-0.496
Mof_O 	O 	0.42728	0.60002	0.60548	-0.163
Mof_O 	O 	0.18531	0.78309	0.37457	-0.499
Mof_O 	O 	0.41951	0.56579	0.53973	-0.418
Mof_O 	O 	0.48168	0.5641	0.48377	-0.629
Mof_O 	O 	0.07018	0.74934	0.35589	-0.16
Mof_O 	O 	0.26868	0.69184	0.46071	-0.432
Mof_O 	O 	0.33587	0.54823	0.52467	-0.405
Mof_O 	O 	0.55649	0.59376	0.51561	-0.484
Mof_O 	O 	0.27567	0.67246	0.39101	-0.4
Mof_O 	O 	0.25413	0.74569	0.40991	-0.396
Mof_O 	O 	0.36619	0.61218	0.49208	-0.403
Mof_O 	O 	0.03676	0.81296	0.32547	-0.177
Mof_O 	O 	0.29118	0.6107	0.51336	-0.443
Mof_O 	O 	0.20373	0.68626	0.42202	-0.2
Mof_O 	O 	0.34702	0.6149	0.56307	-0.166
Mof_Mo	Mo	0.49962	0.62184	0.49913	1.122
Mof_Mo	Mo	0.42671	0.59289	0.47935	1.123
Mof_Mo	Mo	0.2802	0.67563	0.33095	1.115
Mof_Mo	Mo	0.17704	0.80644	0.32316	1.13
Mof_Mo	Mo	0.38376	0.50508	0.52578	1.124
Mof_Mo	Mo	0.24272	0.77589	0.35758	1.114
Mof_P 	P 	0.44916	0.50152	0.82936	0.555
Mof_P 	P 	0.32382	0.69861	0.675	0.573
Mof_P 	P 	0.53315	0.32645	0.92422	0.54
Mof_P 	P 	0.34624	0.58464	0.72768	0.581
Mof_O 	O 	0.27997	0.71025	0.65783	-0.423
Mof_O 	O 	0.28261	0.65015	0.7771	-0.486
Mof_O 	O 	0.34366	0.73952	0.69078	-0.418
Mof_O 	O 	0.51698	0.32929	0.96586	-0.369
Mof_O 	O 	0.53434	0.48094	0.94785	-0.626
Mof_O 	O 	0.44191	0.51715	0.97272	-0.635
Mof_O 	O 	0.56104	0.36456	0.91453	-0.391
Mof_O 	O 	0.37568	0.49616	0.91862	-0.51
Mof_O 	O 	0.49068	0.54589	0.91073	-0.47
Mof_O 	O 	0.39342	0.69321	0.74374	-0.496
Mof_O 	O 	0.35002	0.67728	0.64452	-0.163
Mof_O 	O 	0.53309	0.43531	0.87543	-0.5
Mof_O 	O 	0.31579	0.66951	0.71027	-0.418
Mof_O 	O 	0.3141	0.73168	0.76623	-0.629
Mof_O 	O 	0.49934	0.32018	0.89411	-0.156
Mof_O 	O 	0.44184	0.51868	0.78929	-0.432
Mof_O 	O 	0.29823	0.58587	0.72533	-0.405
Mof_O 	O 	0.34376	0.80649	0.73439	-0.483
Mof_O 	O 	0.42246	0.52567	0.85899	-0.399
Mof_O 	O 	0.49569	0.50413	0.84009	-0.397
Mof_O 	O 	0.36218	0.61619	0.75792	-0.403
Mof_O 	O 	0.56296	0.28676	0.92453	-0.169
Mof_O 	O 	0.3607	0.54118	0.73664	-0.443
Mof_O 	O 	0.43626	0.45373	0.82798	-0.2
Mof_O 	O 	0.3649	0.59702	0.68693	-0.166
Mof_Mo	Mo	0.37184	0.74962	0.75087	1.123
Mof_Mo	Mo	0.34289	0.67671	0.77065	1.124
Mof_Mo	Mo	0.42563	0.5302	0.91905	1.115
Mof_Mo	Mo	0.55644	0.42704	0.92684	1.131
Mof_Mo	Mo	0.25508	0.63376	0.72422	1.124
Mof_Mo	Mo	0.52589	0.49272	0.89242	1.111
Mof_P 	P 	0.94916	0.00152	0.32936	0.535
Mof_P 	P 	0.82382	0.19861	0.175	0.573
Mof_P 	P 	0.03315	0.82645	0.42422	0.532
Mof_P 	P 	0.84624	0.08464	0.22768	0.581
Mof_O 	O 	0.77997	0.21025	0.15783	-0.423
Mof_O 	O 	0.78261	0.15015	0.2771	-0.487
Mof_O 	O 	0.84366	0.23952	0.19078	-0.418
Mof_O 	O 	0.01698	0.82929	0.46586	-0.395
Mof_O 	O 	0.03434	0.98094	0.44785	-0.626
Mof_O 	O 	0.94191	0.01715	0.47272	-0.655
Mof_O 	O 	0.06104	0.86456	0.41453	-0.392
Mof_O 	O 	0.87568	0.99616	0.41862	-0.491
Mof_O 	O 	0.99068	0.04589	0.41073	-0.469
Mof_O 	O 	0.89342	0.19321	0.24374	-0.495
Mof_O 	O 	0.85002	0.17728	0.14452	-0.163
Mof_O 	O 	0.03309	0.93531	0.37543	-0.504
Mof_O 	O 	0.81579	0.16951	0.21027	-0.418
Mof_O 	O 	0.8141	0.23168	0.26623	-0.629
Mof_O 	O 	0.99934	0.82018	0.39411	-0.144
Mof_O 	O 	0.94184	0.01868	0.28929	-0.437
Mof_O 	O 	0.79823	0.08587	0.22533	-0.409
Mof_O 	O 	0.84376	0.30649	0.23439	-0.484
Mof_O 	O 	0.92246	0.02567	0.35899	-0.401
Mof_O 	O 	0.99569	0.00413	0.34009	-0.406
Mof_O 	O 	0.86218	0.11619	0.25792	-0.403
Mof_O 	O 	0.06296	0.78676	0.42453	-0.173
Mof_O 	O 	0.8607	0.04118	0.23664	-0.452
Mof_O 	O 	0.93626	0.95373	0.32798	-0.18
Mof_O 	O 	0.8649	0.09702	0.18693	-0.167
Mof_Mo	Mo	0.87184	0.24962	0.25087	1.124
Mof_Mo	Mo	0.84289	0.17671	0.27065	1.123
Mof_Mo	Mo	0.92563	0.0302	0.41905	1.066
Mof_Mo	Mo	0.05644	0.92704	0.42684	1.125
Mof_Mo	Mo	0.75508	0.13376	0.22422	1.119
Mof_Mo	Mo	0.02589	0.99272	0.39242	1.139
Mof_P 	P 	0.05084	0.49848	0.32936	0.556
Mof_P 	P 	0.17618	0.30139	0.175	0.573
Mof_P 	P 	0.96685	0.67355	0.42422	0.552
Mof_P 	P 	0.15376	0.41536	0.22768	0.581
Mof_O 	O 	0.22003	0.28975	0.15783	-0.423
Mof_O 	O 	0.21739	0.34985	0.2771	-0.486
Mof_O 	O 	0.15634	0.26048	0.19078	-0.417
Mof_O 	O 	0.98302	0.67071	0.46586	-0.374
Mof_O 	O 	0.96566	0.51906	0.44785	-0.63
Mof_O 	O 	0.05809	0.48285	0.47272	-0.644
Mof_O 	O 	0.93896	0.63544	0.41453	-0.392
Mof_O 	O 	0.12432	0.50384	0.41862	-0.507
Mof_O 	O 	0.00932	0.45411	0.41073	-0.481
Mof_O 	O 	0.10658	0.30679	0.24374	-0.498
Mof_O 	O 	0.14998	0.32272	0.14452	-0.163
Mof_O 	O 	0.96691	0.56469	0.37543	-0.497
Mof_O 	O 	0.18421	0.33049	0.21027	-0.418
Mof_O 	O 	0.1859	0.26832	0.26623	-0.628
Mof_O 	O 	0.00066	0.67982	0.39411	-0.17
Mof_O 	O 	0.05816	0.48132	0.28929	-0.435
Mof_O 	O 	0.20177	0.41413	0.22533	-0.405
Mof_O 	O 	0.15624	0.19351	0.23439	-0.486
Mof_O 	O 	0.07754	0.47433	0.35899	-0.401
Mof_O 	O 	0.00431	0.49587	0.34009	-0.408
Mof_O 	O 	0.13782	0.38381	0.25792	-0.404
Mof_O 	O 	0.93704	0.71324	0.42453	-0.171
Mof_O 	O 	0.1393	0.45882	0.23664	-0.443
Mof_O 	O 	0.06374	0.54627	0.32798	-0.203
Mof_O 	O 	0.1351	0.40298	0.18693	-0.166
Mof_Mo	Mo	0.12816	0.25038	0.25087	1.119
Mof_Mo	Mo	0.15711	0.32329	0.27065	1.122
Mof_Mo	Mo	0.07437	0.4698	0.41905	1.113
Mof_Mo	Mo	0.94356	0.57296	0.42684	1.131
Mof_Mo	Mo	0.24492	0.36624	0.22422	1.124
Mof_Mo	Mo	0.97411	0.50728	0.39242	1.139
Mof_P 	P 	0.55084	0.99848	0.82936	0.574
Mof_P 	P 	0.67618	0.80139	0.675	0.573
Mof_P 	P 	0.46685	0.17355	0.92422	0.54
Mof_P 	P 	0.65376	0.91536	0.72768	0.581
Mof_O 	O 	0.72003	0.78975	0.65783	-0.424
Mof_O 	O 	0.71739	0.84985	0.7771	-0.484
Mof_O 	O 	0.65634	0.76048	0.69078	-0.418
Mof_O 	O 	0.48302	0.17071	0.96586	-0.369
Mof_O 	O 	0.46566	0.01906	0.94785	-0.63
Mof_O 	O 	0.55809	0.98285	0.97272	-0.616
Mof_O 	O 	0.43896	0.13544	0.91453	-0.392
Mof_O 	O 	0.62432	0.00384	0.91862	-0.525
Mof_O 	O 	0.50932	0.95411	0.91073	-0.459
Mof_O 	O 	0.60658	0.80679	0.74374	-0.496
Mof_O 	O 	0.64998	0.82272	0.64452	-0.162
Mof_O 	O 	0.46691	0.06469	0.87543	-0.497
Mof_O 	O 	0.68421	0.83049	0.71027	-0.419
Mof_O 	O 	0.6859	0.76832	0.76623	-0.629
Mof_O 	O 	0.50066	0.17982	0.89411	-0.156
Mof_O 	O 	0.55816	0.98132	0.78929	-0.422
Mof_O 	O 	0.70177	0.91413	0.72533	-0.4
Mof_O 	O 	0.65624	0.69351	0.73439	-0.484
Mof_O 	O 	0.57754	0.97433	0.85899	-0.397
Mof_O 	O 	0.50431	0.99587	0.84009	-0.377
Mof_O 	O 	0.63782	0.88381	0.75792	-0.401
Mof_O 	O 	0.43704	0.21324	0.92453	-0.169
Mof_O 	O 	0.6393	0.95882	0.73664	-0.429
Mof_O 	O 	0.56374	0.04627	0.82798	-0.218
Mof_O 	O 	0.6351	0.90298	0.68693	-0.164
Mof_Mo	Mo	0.62816	0.75038	0.75087	1.122
Mof_Mo	Mo	0.65711	0.82329	0.77065	1.125
Mof_Mo	Mo	0.57437	0.9698	0.91905	1.167
Mof_Mo	Mo	0.44356	0.07296	0.92684	1.128
Mof_Mo	Mo	0.74492	0.86624	0.72422	1.131
Mof_Mo	Mo	0.47411	0.00728	0.89242	1.058
Mof_P 	P 	0.75152	0.80084	0.57936	0.555
Mof_P 	P 	0.94861	0.92618	0.425	0.573
Mof_P 	P 	0.57645	0.71685	0.67422	0.542
Mof_P 	P 	0.83464	0.90376	0.47768	0.582
Mof_O 	O 	0.96025	0.97003	0.40783	-0.405
Mof_O 	O 	0.90015	0.96739	0.5271	-0.48
Mof_O 	O 	0.98952	0.90634	0.44078	-0.412
Mof_O 	O 	0.57929	0.73302	0.71586	-0.385
Mof_O 	O 	0.73094	0.71566	0.69785	-0.632
Mof_O 	O 	0.76715	0.80809	0.72272	-0.643
Mof_O 	O 	0.61456	0.68896	0.66453	-0.393
Mof_O 	O 	0.74616	0.87432	0.66862	-0.505
Mof_O 	O 	0.79589	0.75932	0.66073	-0.469
Mof_O 	O 	0.94321	0.85658	0.49374	-0.498
Mof_O 	O 	0.92728	0.89998	0.39452	-0.16
Mof_O 	O 	0.68531	0.71691	0.62543	-0.5
Mof_O 	O 	0.91951	0.93421	0.46027	-0.419
Mof_O 	O 	0.98168	0.9359	0.51623	-0.62
Mof_O 	O 	0.57018	0.75066	0.64411	-0.157
Mof_O 	O 	0.76868	0.80816	0.53929	-0.432
Mof_O 	O 	0.83587	0.95177	0.47533	-0.407
Mof_O 	O 	0.05649	0.90624	0.48439	-0.489
Mof_O 	O 	0.77567	0.82754	0.60899	-0.399
Mof_O 	O 	0.75413	0.75431	0.59009	-0.397
Mof_O 	O 	0.86619	0.88782	0.50792	-0.403
Mof_O 	O 	0.53676	0.68704	0.67453	-0.172
Mof_O 	O 	0.79118	0.8893	0.48664	-0.441
Mof_O 	O 	0.70373	0.81374	0.57798	-0.2
Mof_O 	O 	0.84702	0.8851	0.43693	-0.165
Mof_Mo	Mo	0.99962	0.87816	0.50087	1.148
Mof_Mo	Mo	0.92671	0.90711	0.52065	1.127
Mof_Mo	Mo	0.7802	0.82437	0.66905	1.118
Mof_Mo	Mo	0.67704	0.69356	0.67684	1.127
Mof_Mo	Mo	0.88376	0.99492	0.47422	1.172
Mof_Mo	Mo	0.74272	0.72411	0.64242	1.112
Mof_P 	P 	0.25152	0.30084	0.07936	0.555
Mof_P 	P 	0.44861	0.42618	0.925	0.572
Mof_P 	P 	0.07645	0.21685	0.17422	0.542
Mof_P 	P 	0.33464	0.40376	0.97768	0.597
Mof_O 	O 	0.46025	0.47003	0.90783	-0.423
Mof_O 	O 	0.40015	0.46739	0.0271	-0.497
Mof_O 	O 	0.48952	0.40634	0.94078	-0.408
Mof_O 	O 	0.07929	0.23302	0.21586	-0.387
Mof_O 	O 	0.23094	0.21566	0.19785	-0.631
Mof_O 	O 	0.26715	0.30809	0.22272	-0.642
Mof_O 	O 	0.11456	0.18896	0.16453	-0.394
Mof_O 	O 	0.24616	0.37432	0.16862	-0.507
Mof_O 	O 	0.29589	0.25932	0.16073	-0.47
Mof_O 	O 	0.44321	0.35658	0.99374	-0.468
Mof_O 	O 	0.42728	0.39998	0.89452	-0.162
Mof_O 	O 	0.18531	0.21691	0.12543	-0.501
Mof_O 	O 	0.41951	0.43421	0.96027	-0.41
Mof_O 	O 	0.48168	0.4359	0.01623	-0.626
Mof_O 	O 	0.07018	0.25066	0.14411	-0.16
Mof_O 	O 	0.26868	0.30816	0.03929	-0.441
Mof_O 	O 	0.33587	0.45177	0.97533	-0.402
Mof_O 	O 	0.55649	0.40624	0.98439	-0.464
Mof_O 	O 	0.27567	0.32754	0.10899	-0.401
Mof_O 	O 	0.25413	0.25431	0.09009	-0.4
Mof_O 	O 	0.36619	0.38782	0.00792	-0.42
Mof_O 	O 	0.03676	0.18704	0.17453	-0.18
Mof_O 	O 	0.29118	0.3893	0.98664	-0.433
Mof_O 	O 	0.20373	0.31374	0.07798	-0.203
Mof_O 	O 	0.34702	0.3851	0.93693	-0.165
Mof_Mo	Mo	0.49962	0.37816	0.00087	1.06
Mof_Mo	Mo	0.42671	0.40711	0.02065	1.1
Mof_Mo	Mo	0.2802	0.32437	0.16905	1.114
Mof_Mo	Mo	0.17704	0.19356	0.17684	1.122
Mof_Mo	Mo	0.38376	0.49492	0.97422	1.151
Mof_Mo	Mo	0.24272	0.22411	0.14242	1.107
Mof_P 	P 	0.74848	0.19916	0.07936	0.555
Mof_P 	P 	0.55139	0.07382	0.925	0.571
Mof_P 	P 	0.92355	0.28315	0.17422	0.542
Mof_P 	P 	0.66536	0.09624	0.97768	0.595
Mof_O 	O 	0.53975	0.02997	0.90783	-0.435
Mof_O 	O 	0.59985	0.03261	0.0271	-0.502
Mof_O 	O 	0.51048	0.09366	0.94078	-0.408
Mof_O 	O 	0.92071	0.26698	0.21586	-0.383
Mof_O 	O 	0.76906	0.28434	0.19785	-0.632
Mof_O 	O 	0.73285	0.19191	0.22272	-0.641
Mof_O 	O 	0.88544	0.31104	0.16453	-0.393
Mof_O 	O 	0.75384	0.12568	0.16862	-0.509
Mof_O 	O 	0.70411	0.24068	0.16073	-0.47
Mof_O 	O 	0.55679	0.14342	0.99374	-0.467
Mof_O 	O 	0.57272	0.10002	0.89452	-0.163
Mof_O 	O 	0.81469	0.28309	0.12543	-0.501
Mof_O 	O 	0.58049	0.06579	0.96027	-0.409
Mof_O 	O 	0.51832	0.0641	0.01623	-0.63
Mof_O 	O 	0.92982	0.24934	0.14411	-0.155
Mof_O 	O 	0.73132	0.19184	0.03929	-0.44
Mof_O 	O 	0.66413	0.04823	0.97533	-0.4
Mof_O 	O 	0.44351	0.09376	0.98439	-0.466
Mof_O 	O 	0.72433	0.17246	0.10899	-0.402
Mof_O 	O 	0.74587	0.24569	0.09009	-0.399
Mof_O 	O 	0.63381	0.11218	0.00792	-0.42
Mof_O 	O 	0.96324	0.31296	0.17453	-0.166
Mof_O 	O 	0.70882	0.1107	0.98664	-0.434
Mof_O 	O 	0.79627	0.18626	0.07798	-0.203
Mof_O 	O 	0.65298	0.1149	0.93693	-0.166
Mof_Mo	Mo	0.50038	0.12184	0.00087	1.061
Mof_Mo	Mo	0.57329	0.09289	0.02065	1.095
Mof_Mo	Mo	0.7198	0.17563	0.16905	1.112
Mof_Mo	Mo	0.82296	0.30644	0.17684	1.126
Mof_Mo	Mo	0.61624	0.00508	0.97422	1.104
Mof_Mo	Mo	0.75728	0.27589	0.14242	1.109
Mof_P 	P 	0.24848	0.69916	0.57936	0.555
Mof_P 	P 	0.05139	0.57382	0.425	0.573
Mof_P 	P 	0.42355	0.78315	0.67422	0.542
Mof_P 	P 	0.16536	0.59624	0.47768	0.581
Mof_O 	O 	0.03975	0.52997	0.40783	-0.429
Mof_O 	O 	0.09985	0.53261	0.5271	-0.486
Mof_O 	O 	0.01048	0.59366	0.44078	-0.424
Mof_O 	O 	0.42071	0.76698	0.71586	-0.384
Mof_O 	O 	0.26906	0.78434	0.69785	-0.632
Mof_O 	O 	0.23285	0.69191	0.72272	-0.642
Mof_O 	O 	0.38544	0.81104	0.66453	-0.392
Mof_O 	O 	0.25384	0.62568	0.66862	-0.507
Mof_O 	O 	0.20411	0.74068	0.66073	-0.47
Mof_O 	O 	0.05679	0.64342	0.49374	-0.495
Mof_O 	O 	0.07272	0.60002	0.39452	-0.164
Mof_O 	O 	0.31469	0.78309	0.62543	-0.499
Mof_O 	O 	0.08049	0.56579	0.46027	-0.418
Mof_O 	O 	0.01832	0.5641	0.51623	-0.631
Mof_O 	O 	0.42982	0.74934	0.64411	-0.157
Mof_O 	O 	0.23132	0.69184	0.53929	-0.432
Mof_O 	O 	0.16413	0.54823	0.47533	-0.405
Mof_O 	O 	0.94351	0.59376	0.48439	-0.476
Mof_O 	O 	0.22433	0.67246	0.60899	-0.4
Mof_O 	O 	0.24587	0.74569	0.59009	-0.396
Mof_O 	O 	0.13381	0.61218	0.50792	-0.403
Mof_O 	O 	0.46324	0.81296	0.67453	-0.171
Mof_O 	O 	0.20882	0.6107	0.48664	-0.443
Mof_O 	O 	0.29627	0.68626	0.57798	-0.2
Mof_O 	O 	0.15298	0.6149	0.43693	-0.166
Mof_Mo	Mo	0.00038	0.62184	0.50087	1.094
Mof_Mo	Mo	0.07329	0.59289	0.52065	1.123
Mof_Mo	Mo	0.2198	0.67563	0.66905	1.114
Mof_Mo	Mo	0.32296	0.80644	0.67684	1.131
Mof_Mo	Mo	0.11624	0.50508	0.47422	1.125
Mof_Mo	Mo	0.25728	0.77589	0.64242	1.114
Mof_P 	P 	0.94916	0.49848	0.82936	0.554
Mof_P 	P 	0.82382	0.30139	0.675	0.573
Mof_P 	P 	0.03315	0.67355	0.92422	0.53
Mof_P 	P 	0.84624	0.41536	0.72768	0.581
Mof_O 	O 	0.77997	0.28975	0.65783	-0.423
Mof_O 	O 	0.78261	0.34985	0.7771	-0.486
Mof_O 	O 	0.84366	0.26048	0.69078	-0.417
Mof_O 	O 	0.01698	0.67071	0.96586	-0.379
Mof_O 	O 	0.03434	0.51906	0.94785	-0.627
Mof_O 	O 	0.94191	0.48285	0.97272	-0.632
Mof_O 	O 	0.06104	0.63544	0.91453	-0.392
Mof_O 	O 	0.87568	0.50384	0.91862	-0.51
Mof_O 	O 	0.99068	0.45411	0.91073	-0.458
Mof_O 	O 	0.89342	0.30679	0.74374	-0.495
Mof_O 	O 	0.85002	0.32272	0.64452	-0.162
Mof_O 	O 	0.03309	0.56469	0.87543	-0.502
Mof_O 	O 	0.81579	0.33049	0.71027	-0.418
Mof_O 	O 	0.8141	0.26832	0.76623	-0.629
Mof_O 	O 	0.99934	0.67982	0.89411	-0.143
Mof_O 	O 	0.94184	0.48132	0.78929	-0.43
Mof_O 	O 	0.79823	0.41413	0.72533	-0.404
Mof_O 	O 	0.84376	0.19351	0.73439	-0.485
Mof_O 	O 	0.92246	0.47433	0.85899	-0.398
Mof_O 	O 	0.99569	0.49587	0.84009	-0.386
Mof_O 	O 	0.86218	0.38381	0.75792	-0.402
Mof_O 	O 	0.06296	0.71324	0.92453	-0.17
Mof_O 	O 	0.8607	0.45882	0.73664	-0.443
Mof_O 	O 	0.93626	0.54627	0.82798	-0.198
Mof_O 	O 	0.8649	0.40298	0.68693	-0.165
Mof_Mo	Mo	0.87184	0.25038	0.75087	1.124
Mof_Mo	Mo	0.84289	0.32329	0.77065	1.125
Mof_Mo	Mo	0.92563	0.4698	0.91905	1.118
Mof_Mo	Mo	0.05644	0.57296	0.92684	1.127
Mof_Mo	Mo	0.75508	0.36624	0.72422	1.125
Mof_Mo	Mo	0.02589	0.50728	0.89242	1.084
Mof_P 	P 	0.44916	0.99848	0.32936	0.574
Mof_P 	P 	0.32382	0.80139	0.175	0.573
Mof_P 	P 	0.53315	0.17355	0.42422	0.542
Mof_P 	P 	0.34624	0.91536	0.22768	0.581
Mof_O 	O 	0.27997	0.78975	0.15783	-0.423
Mof_O 	O 	0.28261	0.84985	0.2771	-0.485
Mof_O 	O 	0.34366	0.76048	0.19078	-0.418
Mof_O 	O 	0.51698	0.17071	0.46586	-0.385
Mof_O 	O 	0.53434	0.01906	0.44785	-0.636
Mof_O 	O 	0.44191	0.98285	0.47272	-0.623
Mof_O 	O 	0.56104	0.13544	0.41453	-0.394
Mof_O 	O 	0.37568	0.00384	0.41862	-0.523
Mof_O 	O 	0.49068	0.95411	0.41073	-0.459
Mof_O 	O 	0.39342	0.80679	0.24374	-0.496
Mof_O 	O 	0.35002	0.82272	0.14452	-0.163
Mof_O 	O 	0.53309	0.06469	0.37543	-0.497
Mof_O 	O 	0.31579	0.83049	0.21027	-0.419
Mof_O 	O 	0.3141	0.76832	0.26623	-0.629
Mof_O 	O 	0.49934	0.17982	0.39411	-0.157
Mof_O 	O 	0.44184	0.98132	0.28929	-0.422
Mof_O 	O 	0.29823	0.91413	0.22533	-0.401
Mof_O 	O 	0.34376	0.69351	0.23439	-0.484
Mof_O 	O 	0.42246	0.97433	0.35899	-0.398
Mof_O 	O 	0.49569	0.99587	0.34009	-0.377
Mof_O 	O 	0.36218	0.88381	0.25792	-0.401
Mof_O 	O 	0.56296	0.21324	0.42453	-0.173
Mof_O 	O 	0.3607	0.95882	0.23664	-0.43
Mof_O 	O 	0.43626	0.04627	0.32798	-0.218
Mof_O 	O 	0.3649	0.90298	0.18693	-0.164
Mof_Mo	Mo	0.37184	0.75038	0.25087	1.122
Mof_Mo	Mo	0.34289	0.82329	0.27065	1.124
Mof_Mo	Mo	0.42563	0.9698	0.41905	1.167
Mof_Mo	Mo	0.55644	0.07296	0.42684	1.124
Mof_Mo	Mo	0.25508	0.86624	0.22422	1.129
Mof_Mo	Mo	0.52589	0.00728	0.39242	1.058
Mof_P 	P 	0.55084	0.50152	0.32936	0.555
Mof_P 	P 	0.67618	0.69861	0.175	0.573
Mof_P 	P 	0.46685	0.32645	0.42422	0.542
Mof_P 	P 	0.65376	0.58464	0.22768	0.581
Mof_O 	O 	0.72003	0.71025	0.15783	-0.423
Mof_O 	O 	0.71739	0.65015	0.2771	-0.486
Mof_O 	O 	0.65634	0.73952	0.19078	-0.418
Mof_O 	O 	0.48302	0.32929	0.46586	-0.385
Mof_O 	O 	0.46566	0.48094	0.44785	-0.632
Mof_O 	O 	0.55809	0.51715	0.47272	-0.642
Mof_O 	O 	0.43896	0.36456	0.41453	-0.393
Mof_O 	O 	0.62432	0.49616	0.41862	-0.507
Mof_O 	O 	0.50932	0.54589	0.41073	-0.47
Mof_O 	O 	0.60658	0.69321	0.24374	-0.496
Mof_O 	O 	0.64998	0.67728	0.14452	-0.163
Mof_O 	O 	0.46691	0.43531	0.37543	-0.499
Mof_O 	O 	0.68421	0.66951	0.21027	-0.418
Mof_O 	O 	0.6859	0.73168	0.26623	-0.629
Mof_O 	O 	0.50066	0.32018	0.39411	-0.157
Mof_O 	O 	0.55816	0.51868	0.28929	-0.432
Mof_O 	O 	0.70177	0.58587	0.22533	-0.405
Mof_O 	O 	0.65624	0.80649	0.23439	-0.483
Mof_O 	O 	0.57754	0.52567	0.35899	-0.4
Mof_O 	O 	0.50431	0.50413	0.34009	-0.397
Mof_O 	O 	0.63782	0.61619	0.25792	-0.403
Mof_O 	O 	0.43704	0.28676	0.42453	-0.172
Mof_O 	O 	0.6393	0.54118	0.23664	-0.443
Mof_O 	O 	0.56374	0.45373	0.32798	-0.2
Mof_O 	O 	0.6351	0.59702	0.18693	-0.166
Mof_Mo	Mo	0.62816	0.74962	0.25087	1.123
Mof_Mo	Mo	0.65711	0.67671	0.27065	1.123
Mof_Mo	Mo	0.57437	0.5302	0.41905	1.115
Mof_Mo	Mo	0.44356	0.42704	0.42684	1.127
Mof_Mo	Mo	0.74492	0.63376	0.22422	1.125
Mof_Mo	Mo	0.47411	0.49272	0.39242	1.112
Mof_P 	P 	0.05084	0.00152	0.82936	0.536
Mof_P 	P 	0.17618	0.19861	0.675	0.573
Mof_P 	P 	0.96685	0.82645	0.92422	0.55
Mof_P 	P 	0.15376	0.08464	0.72768	0.581
Mof_O 	O 	0.22003	0.21025	0.65783	-0.423
Mof_O 	O 	0.21739	0.15015	0.7771	-0.487
Mof_O 	O 	0.15634	0.23952	0.69078	-0.417
Mof_O 	O 	0.98302	0.82929	0.96586	-0.358
Mof_O 	O 	0.96566	0.98094	0.94785	-0.618
Mof_O 	O 	0.05809	0.01715	0.97272	-0.654
Mof_O 	O 	0.93896	0.86456	0.91453	-0.389
Mof_O 	O 	0.12432	0.99616	0.91862	-0.493
Mof_O 	O 	0.00932	0.04589	0.91073	-0.491
Mof_O 	O 	0.10658	0.19321	0.74374	-0.498
Mof_O 	O 	0.14998	0.17728	0.64452	-0.163
Mof_O 	O 	0.96691	0.93531	0.87543	-0.5
Mof_O 	O 	0.18421	0.16951	0.71027	-0.418
Mof_O 	O 	0.1859	0.23168	0.76623	-0.628
Mof_O 	O 	0.00066	0.82018	0.89411	-0.169
Mof_O 	O 	0.05816	0.01868	0.78929	-0.442
Mof_O 	O 	0.20177	0.08587	0.72533	-0.408
Mof_O 	O 	0.15624	0.30649	0.73439	-0.485
Mof_O 	O 	0.07754	0.02567	0.85899	-0.402
Mof_O 	O 	0.00431	0.00413	0.84009	-0.427
Mof_O 	O 	0.13782	0.11619	0.75792	-0.405
Mof_O 	O 	0.93704	0.78676	0.92453	-0.167
Mof_O 	O 	0.1393	0.04118	0.73664	-0.452
Mof_O 	O 	0.06374	0.95373	0.82798	-0.185
Mof_O 	O 	0.1351	0.09702	0.68693	-0.168
Mof_Mo	Mo	0.12816	0.24962	0.75087	1.12
Mof_Mo	Mo	0.15711	0.17671	0.77065	1.121
Mof_Mo	Mo	0.07437	0.0302	0.91905	1.062
Mof_Mo	Mo	0.94356	0.92704	0.92684	1.137
Mof_Mo	Mo	0.24492	0.13376	0.72422	1.12
Mof_Mo	Mo	0.97411	0.99272	0.89242	1.192
Mof_P 	P 	0.25152	0.19916	0.57936	0.555
Mof_P 	P 	0.44861	0.07382	0.425	0.573
Mof_P 	P 	0.07645	0.28315	0.67422	0.542
Mof_P 	P 	0.33464	0.09624	0.47768	0.58
Mof_O 	O 	0.46025	0.02997	0.40783	-0.436
Mof_O 	O 	0.40015	0.03261	0.5271	-0.491
Mof_O 	O 	0.48952	0.09366	0.44078	-0.417
Mof_O 	O 	0.07929	0.26698	0.71586	-0.387
Mof_O 	O 	0.23094	0.28434	0.69785	-0.632
Mof_O 	O 	0.26715	0.19191	0.72272	-0.641
Mof_O 	O 	0.11456	0.31104	0.66453	-0.393
Mof_O 	O 	0.24616	0.12568	0.66862	-0.508
Mof_O 	O 	0.29589	0.24068	0.66073	-0.47
Mof_O 	O 	0.44321	0.14342	0.49374	-0.496
Mof_O 	O 	0.42728	0.10002	0.39452	-0.163
Mof_O 	O 	0.18531	0.28309	0.62543	-0.499
Mof_O 	O 	0.41951	0.06579	0.46027	-0.417
Mof_O 	O 	0.48168	0.0641	0.51623	-0.632
Mof_O 	O 	0.07018	0.24934	0.64411	-0.16
Mof_O 	O 	0.26868	0.19184	0.53929	-0.433
Mof_O 	O 	0.33587	0.04823	0.47533	-0.402
Mof_O 	O 	0.55649	0.09376	0.48439	-0.487
Mof_O 	O 	0.27567	0.17246	0.60899	-0.401
Mof_O 	O 	0.25413	0.24569	0.59009	-0.397
Mof_O 	O 	0.36619	0.11218	0.50792	-0.403
Mof_O 	O 	0.03676	0.31296	0.67453	-0.178
Mof_O 	O 	0.29118	0.1107	0.48664	-0.444
Mof_O 	O 	0.20373	0.18626	0.57798	-0.201
Mof_O 	O 	0.34702	0.1149	0.43693	-0.166
Mof_Mo	Mo	0.49962	0.12184	0.50087	1.122
Mof_Mo	Mo	0.42671	0.09289	0.52065	1.118
Mof_Mo	Mo	0.2802	0.17563	0.66905	1.113
Mof_Mo	Mo	0.17704	0.30644	0.67684	1.126
Mof_Mo	Mo	0.38376	0.00508	0.47422	1.077
Mof_Mo	Mo	0.24272	0.27589	0.64242	1.112
Mof_P 	P 	0.75152	0.69916	0.07936	0.555
Mof_P 	P 	0.94861	0.57382	0.925	0.572
Mof_P 	P 	0.57645	0.78315	0.17422	0.542
Mof_P 	P 	0.83464	0.59624	0.97768	0.596
Mof_O 	O 	0.96025	0.52997	0.90783	-0.417
Mof_O 	O 	0.90015	0.53261	0.0271	-0.497
Mof_O 	O 	0.98952	0.59366	0.94078	-0.403
Mof_O 	O 	0.57929	0.76698	0.21586	-0.384
Mof_O 	O 	0.73094	0.78434	0.19785	-0.632
Mof_O 	O 	0.76715	0.69191	0.22272	-0.642
Mof_O 	O 	0.61456	0.81104	0.16453	-0.392
Mof_O 	O 	0.74616	0.62568	0.16862	-0.507
Mof_O 	O 	0.79589	0.74068	0.16073	-0.47
Mof_O 	O 	0.94321	0.64342	0.99374	-0.469
Mof_O 	O 	0.92728	0.60002	0.89452	-0.16
Mof_O 	O 	0.68531	0.78309	0.12543	-0.5
Mof_O 	O 	0.91951	0.56579	0.96027	-0.41
Mof_O 	O 	0.98168	0.5641	0.01623	-0.623
Mof_O 	O 	0.57018	0.74934	0.14411	-0.157
Mof_O 	O 	0.76868	0.69184	0.03929	-0.439
Mof_O 	O 	0.83587	0.54823	0.97533	-0.402
Mof_O 	O 	0.05649	0.59376	0.98439	-0.472
Mof_O 	O 	0.77567	0.67246	0.10899	-0.401
Mof_O 	O 	0.75413	0.74569	0.09009	-0.399
Mof_O 	O 	0.86619	0.61218	0.00792	-0.419
Mof_O 	O 	0.53676	0.81296	0.17453	-0.171
Mof_O 	O 	0.79118	0.6107	0.98664	-0.433
Mof_O 	O 	0.70373	0.68626	0.07798	-0.203
Mof_O 	O 	0.84702	0.6149	0.93693	-0.165
Mof_Mo	Mo	0.99962	0.62184	0.00087	1.088
Mof_Mo	Mo	0.92671	0.59289	0.02065	1.1
Mof_Mo	Mo	0.7802	0.67563	0.16905	1.116
Mof_Mo	Mo	0.67704	0.80644	0.17684	1.13
Mof_Mo	Mo	0.88376	0.50508	0.97422	1.151
Mof_Mo	Mo	0.74272	0.77589	0.14242	1.112
Mof_P 	P 	0.24848	0.80084	0.07936	0.555
Mof_P 	P 	0.05139	0.92618	0.925	0.572
Mof_P 	P 	0.42355	0.71685	0.17422	0.542
Mof_P 	P 	0.16536	0.90376	0.97768	0.598
Mof_O 	O 	0.03975	0.97003	0.90783	-0.416
Mof_O 	O 	0.09985	0.96739	0.0271	-0.492
Mof_O 	O 	0.01048	0.90634	0.94078	-0.415
Mof_O 	O 	0.42071	0.73302	0.21586	-0.385
Mof_O 	O 	0.26906	0.71566	0.19785	-0.632
Mof_O 	O 	0.23285	0.80809	0.22272	-0.642
Mof_O 	O 	0.38544	0.68896	0.16453	-0.393
Mof_O 	O 	0.25384	0.87432	0.16862	-0.506
Mof_O 	O 	0.20411	0.75932	0.16073	-0.471
Mof_O 	O 	0.05679	0.85658	0.99374	-0.468
Mof_O 	O 	0.07272	0.89998	0.89452	-0.163
Mof_O 	O 	0.31469	0.71691	0.12543	-0.501
Mof_O 	O 	0.08049	0.93421	0.96027	-0.411
Mof_O 	O 	0.01832	0.9359	0.01623	-0.622
Mof_O 	O 	0.42982	0.75066	0.14411	-0.157
Mof_O 	O 	0.23132	0.80816	0.03929	-0.44
Mof_O 	O 	0.16413	0.95177	0.97533	-0.405
Mof_O 	O 	0.94351	0.90624	0.98439	-0.454
Mof_O 	O 	0.22433	0.82754	0.10899	-0.4
Mof_O 	O 	0.24587	0.75431	0.09009	-0.4
Mof_O 	O 	0.13381	0.88782	0.00792	-0.421
Mof_O 	O 	0.46324	0.68704	0.17453	-0.172
Mof_O 	O 	0.20882	0.8893	0.98664	-0.431
Mof_O 	O 	0.29627	0.81374	0.07798	-0.203
Mof_O 	O 	0.15298	0.8851	0.93693	-0.165
Mof_Mo	Mo	0.00038	0.87816	0.00087	1.034
Mof_Mo	Mo	0.07329	0.90711	0.02065	1.106
Mof_Mo	Mo	0.2198	0.82437	0.16905	1.115
Mof_Mo	Mo	0.32296	0.69356	0.17684	1.126
Mof_Mo	Mo	0.11624	0.99492	0.97422	1.2
Mof_Mo	Mo	0.25728	0.72411	0.14242	1.109
Mof_P 	P 	0.74848	0.30084	0.57936	0.555
Mof_P 	P 	0.55139	0.42618	0.425	0.573
Mof_P 	P 	0.92355	0.21685	0.67422	0.542
Mof_P 	P 	0.66536	0.40376	0.47768	0.581
Mof_O 	O 	0.53975	0.47003	0.40783	-0.423
Mof_O 	O 	0.59985	0.46739	0.5271	-0.486
Mof_O 	O 	0.51048	0.40634	0.44078	-0.418
Mof_O 	O 	0.92071	0.23302	0.71586	-0.383
Mof_O 	O 	0.76906	0.21566	0.69785	-0.632
Mof_O 	O 	0.73285	0.30809	0.72272	-0.642
Mof_O 	O 	0.88544	0.18896	0.66453	-0.393
Mof_O 	O 	0.75384	0.37432	0.66862	-0.507
Mof_O 	O 	0.70411	0.25932	0.66073	-0.47
Mof_O 	O 	0.55679	0.35658	0.49374	-0.496
Mof_O 	O 	0.57272	0.39998	0.39452	-0.162
Mof_O 	O 	0.81469	0.21691	0.62543	-0.5
Mof_O 	O 	0.58049	0.43421	0.46027	-0.418
Mof_O 	O 	0.51832	0.4359	0.51623	-0.629
Mof_O 	O 	0.92982	0.25066	0.64411	-0.155
Mof_O 	O 	0.73132	0.30816	0.53929	-0.433
Mof_O 	O 	0.66413	0.45177	0.47533	-0.405
Mof_O 	O 	0.44351	0.40624	0.48439	-0.484
Mof_O 	O 	0.72433	0.32754	0.60899	-0.4
Mof_O 	O 	0.74587	0.25431	0.59009	-0.397
Mof_O 	O 	0.63381	0.38782	0.50792	-0.403
Mof_O 	O 	0.96324	0.18704	0.67453	-0.167
Mof_O 	O 	0.70882	0.3893	0.48664	-0.443
Mof_O 	O 	0.79627	0.31374	0.57798	-0.2
Mof_O 	O 	0.65298	0.3851	0.43693	-0.166
Mof_Mo	Mo	0.50038	0.37816	0.50087	1.122
Mof_Mo	Mo	0.57329	0.40711	0.52065	1.123
Mof_Mo	Mo	0.7198	0.32437	0.66905	1.115
Mof_Mo	Mo	0.82296	0.19356	0.67684	1.124
Mof_Mo	Mo	0.61624	0.49492	0.47422	1.124
Mof_Mo	Mo	0.75728	0.22411	0.64242	1.109
Mof_P 	P 	0.55084	0.49848	0.17064	0.555
Mof_P 	P 	0.67618	0.30139	0.325	0.573
Mof_P 	P 	0.46685	0.67355	0.07578	0.544
Mof_P 	P 	0.65376	0.41536	0.27232	0.581
Mof_O 	O 	0.72003	0.28975	0.34217	-0.423
Mof_O 	O 	0.71739	0.34985	0.2229	-0.486
Mof_O 	O 	0.65634	0.26048	0.30922	-0.417
Mof_O 	O 	0.48302	0.67071	0.03414	-0.401
Mof_O 	O 	0.46566	0.51906	0.05215	-0.636
Mof_O 	O 	0.55809	0.48285	0.02728	-0.646
Mof_O 	O 	0.43896	0.63544	0.08547	-0.395
Mof_O 	O 	0.62432	0.50384	0.08138	-0.504
Mof_O 	O 	0.50932	0.45411	0.08927	-0.47
Mof_O 	O 	0.60658	0.30679	0.25626	-0.496
Mof_O 	O 	0.64998	0.32272	0.35548	-0.162
Mof_O 	O 	0.46691	0.56469	0.12457	-0.499
Mof_O 	O 	0.68421	0.33049	0.28973	-0.418
Mof_O 	O 	0.6859	0.26832	0.23377	-0.628
Mof_O 	O 	0.50066	0.67982	0.10589	-0.158
Mof_O 	O 	0.55816	0.48132	0.21071	-0.433
Mof_O 	O 	0.70177	0.41413	0.27467	-0.405
Mof_O 	O 	0.65624	0.19351	0.26561	-0.485
Mof_O 	O 	0.57754	0.47433	0.14101	-0.4
Mof_O 	O 	0.50431	0.49587	0.15991	-0.397
Mof_O 	O 	0.63782	0.38381	0.24208	-0.403
Mof_O 	O 	0.43704	0.71324	0.07547	-0.176
Mof_O 	O 	0.6393	0.45882	0.26336	-0.443
Mof_O 	O 	0.56374	0.54627	0.17202	-0.2
Mof_O 	O 	0.6351	0.40298	0.31307	-0.166
Mof_Mo	Mo	0.62816	0.25038	0.24913	1.12
Mof_Mo	Mo	0.65711	0.32329	0.22935	1.122
Mof_Mo	Mo	0.57437	0.4698	0.08095	1.115
Mof_Mo	Mo	0.44356	0.57296	0.07316	1.123
Mof_Mo	Mo	0.74492	0.36624	0.27578	1.125
Mof_Mo	Mo	0.47411	0.50728	0.10758	1.112
Mof_P 	P 	0.05084	0.99848	0.67064	0.575
Mof_P 	P 	0.17618	0.80139	0.825	0.573
Mof_P 	P 	0.96685	0.17355	0.57578	0.553
Mof_P 	P 	0.15376	0.91536	0.77232	0.581
Mof_O 	O 	0.22003	0.78975	0.84217	-0.424
Mof_O 	O 	0.21739	0.84985	0.7229	-0.485
Mof_O 	O 	0.15634	0.76048	0.80922	-0.418
Mof_O 	O 	0.98302	0.17071	0.53414	-0.374
Mof_O 	O 	0.96566	0.01906	0.55215	-0.634
Mof_O 	O 	0.05809	0.98285	0.52728	-0.625
Mof_O 	O 	0.93896	0.13544	0.58547	-0.393
Mof_O 	O 	0.12432	0.00384	0.58138	-0.522
Mof_O 	O 	0.00932	0.95411	0.58927	-0.471
Mof_O 	O 	0.10658	0.80679	0.75626	-0.498
Mof_O 	O 	0.14998	0.82272	0.85548	-0.162
Mof_O 	O 	0.96691	0.06469	0.62457	-0.495
Mof_O 	O 	0.18421	0.83049	0.78973	-0.419
Mof_O 	O 	0.1859	0.76832	0.73377	-0.629
Mof_O 	O 	0.00066	0.17982	0.60589	-0.17
Mof_O 	O 	0.05816	0.98132	0.71071	-0.424
Mof_O 	O 	0.20177	0.91413	0.77467	-0.4
Mof_O 	O 	0.15624	0.69351	0.76561	-0.485
Mof_O 	O 	0.07754	0.97433	0.64101	-0.399
Mof_O 	O 	0.00431	0.99587	0.65991	-0.388
Mof_O 	O 	0.13782	0.88381	0.74208	-0.402
Mof_O 	O 	0.93704	0.21324	0.57547	-0.171
Mof_O 	O 	0.1393	0.95882	0.76336	-0.43
Mof_O 	O 	0.06374	0.04627	0.67202	-0.22
Mof_O 	O 	0.1351	0.90298	0.81307	-0.164
Mof_Mo	Mo	0.12816	0.75038	0.74913	1.119
Mof_Mo	Mo	0.15711	0.82329	0.72935	1.123
Mof_Mo	Mo	0.07437	0.9698	0.58095	1.164
Mof_Mo	Mo	0.94356	0.07296	0.57316	1.128
Mof_Mo	Mo	0.24492	0.86624	0.77578	1.13
Mof_Mo	Mo	0.97411	0.00728	0.60758	1.086
Mof_P 	P 	0.94916	0.50152	0.67064	0.554
Mof_P 	P 	0.82382	0.69861	0.825	0.573
Mof_P 	P 	0.03315	0.32645	0.57578	0.532
Mof_P 	P 	0.84624	0.58464	0.77232	0.581
Mof_O 	O 	0.77997	0.71025	0.84217	-0.424
Mof_O 	O 	0.78261	0.65015	0.7229	-0.486
Mof_O 	O 	0.84366	0.73952	0.80922	-0.418
Mof_O 	O 	0.01698	0.32929	0.53414	-0.395
Mof_O 	O 	0.03434	0.48094	0.55215	-0.633
Mof_O 	O 	0.94191	0.51715	0.52728	-0.638
Mof_O 	O 	0.06104	0.36456	0.58547	-0.393
Mof_O 	O 	0.87568	0.49616	0.58138	-0.507
Mof_O 	O 	0.99068	0.54589	0.58927	-0.458
Mof_O 	O 	0.89342	0.69321	0.75626	-0.495
Mof_O 	O 	0.85002	0.67728	0.85548	-0.162
Mof_O 	O 	0.03309	0.43531	0.62457	-0.502
Mof_O 	O 	0.81579	0.66951	0.78973	-0.418
Mof_O 	O 	0.8141	0.73168	0.73377	-0.629
Mof_O 	O 	0.99934	0.32018	0.60589	-0.144
Mof_O 	O 	0.94184	0.51868	0.71071	-0.43
Mof_O 	O 	0.79823	0.58587	0.77467	-0.404
Mof_O 	O 	0.84376	0.80649	0.76561	-0.483
Mof_O 	O 	0.92246	0.52567	0.64101	-0.399
Mof_O 	O 	0.99569	0.50413	0.65991	-0.386
Mof_O 	O 	0.86218	0.61619	0.74208	-0.402
Mof_O 	O 	0.06296	0.28676	0.57547	-0.173
Mof_O 	O 	0.8607	0.54118	0.76336	-0.443
Mof_O 	O 	0.93626	0.45373	0.67202	-0.198
Mof_O 	O 	0.8649	0.59702	0.81307	-0.165
Mof_Mo	Mo	0.87184	0.74962	0.74913	1.125
Mof_Mo	Mo	0.84289	0.67671	0.72935	1.124
Mof_Mo	Mo	0.92563	0.5302	0.58095	1.117
Mof_Mo	Mo	0.05644	0.42704	0.57316	1.123
Mof_Mo	Mo	0.75508	0.63376	0.77578	1.124
Mof_Mo	Mo	0.02589	0.49272	0.60758	1.084
Mof_P 	P 	0.44916	0.00152	0.17064	0.535
Mof_P 	P 	0.32382	0.19861	0.325	0.573
Mof_P 	P 	0.53315	0.82645	0.07578	0.544
Mof_P 	P 	0.34624	0.08464	0.27232	0.581
Mof_O 	O 	0.27997	0.21025	0.34217	-0.423
Mof_O 	O 	0.28261	0.15015	0.2229	-0.487
Mof_O 	O 	0.34366	0.23952	0.30922	-0.417
Mof_O 	O 	0.51698	0.82929	0.03414	-0.4
Mof_O 	O 	0.53434	0.98094	0.05215	-0.629
Mof_O 	O 	0.44191	0.01715	0.02728	-0.663
Mof_O 	O 	0.56104	0.86456	0.08547	-0.393
Mof_O 	O 	0.37568	0.99616	0.08138	-0.488
Mof_O 	O 	0.49068	0.04589	0.08927	-0.48
Mof_O 	O 	0.39342	0.19321	0.25626	-0.497
Mof_O 	O 	0.35002	0.17728	0.35548	-0.163
Mof_O 	O 	0.53309	0.93531	0.12457	-0.502
Mof_O 	O 	0.31579	0.16951	0.28973	-0.417
Mof_O 	O 	0.3141	0.23168	0.23377	-0.628
Mof_O 	O 	0.49934	0.82018	0.10589	-0.158
Mof_O 	O 	0.44184	0.01868	0.21071	-0.44
Mof_O 	O 	0.29823	0.08587	0.27467	-0.409
Mof_O 	O 	0.34376	0.30649	0.26561	-0.484
Mof_O 	O 	0.42246	0.02567	0.14101	-0.402
Mof_O 	O 	0.49569	0.00413	0.15991	-0.417
Mof_O 	O 	0.36218	0.11619	0.24208	-0.404
Mof_O 	O 	0.56296	0.78676	0.07547	-0.175
Mof_O 	O 	0.3607	0.04118	0.26336	-0.452
Mof_O 	O 	0.43626	0.95373	0.17202	-0.182
Mof_O 	O 	0.3649	0.09702	0.31307	-0.168
Mof_Mo	Mo	0.37184	0.24962	0.24913	1.121
Mof_Mo	Mo	0.34289	0.17671	0.22935	1.12
Mof_Mo	Mo	0.42563	0.0302	0.08095	1.063
Mof_Mo	Mo	0.55644	0.92704	0.07316	1.125
Mof_Mo	Mo	0.25508	0.13376	0.27578	1.118
Mof_Mo	Mo	0.52589	0.99272	0.10758	1.167
Mof_P 	P 	0.24848	0.19916	0.42064	0.555
Mof_P 	P 	0.05139	0.07382	0.575	0.573
Mof_P 	P 	0.42355	0.28315	0.32578	0.542
Mof_P 	P 	0.16536	0.09624	0.52232	0.58
Mof_O 	O 	0.03975	0.02997	0.59217	-0.442
Mof_O 	O 	0.09985	0.03261	0.4729	-0.491
Mof_O 	O 	0.01048	0.09366	0.55922	-0.423
Mof_O 	O 	0.42071	0.26698	0.28414	-0.385
Mof_O 	O 	0.26906	0.28434	0.30215	-0.632
Mof_O 	O 	0.23285	0.19191	0.27728	-0.641
Mof_O 	O 	0.38544	0.31104	0.33547	-0.393
Mof_O 	O 	0.25384	0.12568	0.33138	-0.508
Mof_O 	O 	0.20411	0.24068	0.33927	-0.47
Mof_O 	O 	0.05679	0.14342	0.50626	-0.495
Mof_O 	O 	0.07272	0.10002	0.60548	-0.165
Mof_O 	O 	0.31469	0.28309	0.37457	-0.499
Mof_O 	O 	0.08049	0.06579	0.53973	-0.417
Mof_O 	O 	0.01832	0.0641	0.48377	-0.634
Mof_O 	O 	0.42982	0.24934	0.35589	-0.157
Mof_O 	O 	0.23132	0.19184	0.46071	-0.433
Mof_O 	O 	0.16413	0.04823	0.52467	-0.402
Mof_O 	O 	0.94351	0.09376	0.51561	-0.479
Mof_O 	O 	0.22433	0.17246	0.39101	-0.401
Mof_O 	O 	0.24587	0.24569	0.40991	-0.397
Mof_O 	O 	0.13381	0.11218	0.49208	-0.403
Mof_O 	O 	0.46324	0.31296	0.32547	-0.172
Mof_O 	O 	0.20882	0.1107	0.51336	-0.445
Mof_O 	O 	0.29627	0.18626	0.42202	-0.201
Mof_O 	O 	0.15298	0.1149	0.56307	-0.166
Mof_Mo	Mo	0.00038	0.12184	0.49913	1.095
Mof_Mo	Mo	0.07329	0.09289	0.47935	1.118
Mof_Mo	Mo	0.2198	0.17563	0.33095	1.112
Mof_Mo	Mo	0.32296	0.30644	0.32316	1.127
Mof_Mo	Mo	0.11624	0.00508	0.52578	1.077
Mof_Mo	Mo	0.25728	0.27589	0.35758	1.111
Mof_P 	P 	0.74848	0.69916	0.92064	0.554
Mof_P 	P 	0.55139	0.57382	0.075	0.574
Mof_P 	P 	0.92355	0.78315	0.82578	0.542
Mof_P 	P 	0.66536	0.59624	0.02232	0.565
Mof_O 	O 	0.53975	0.52997	0.09217	-0.423
Mof_O 	O 	0.59985	0.53261	0.9729	-0.474
Mof_O 	O 	0.51048	0.59366	0.05922	-0.427
Mof_O 	O 	0.92071	0.76698	0.78414	-0.382
Mof_O 	O 	0.76906	0.78434	0.80215	-0.633
Mof_O 	O 	0.73285	0.69191	0.77728	-0.642
Mof_O 	O 	0.88544	0.81104	0.83547	-0.391
Mof_O 	O 	0.75384	0.62568	0.83138	-0.506
Mof_O 	O 	0.70411	0.74068	0.83927	-0.469
Mof_O 	O 	0.55679	0.64342	0.00626	-0.525
Mof_O 	O 	0.57272	0.60002	0.10548	-0.163
Mof_O 	O 	0.81469	0.78309	0.87457	-0.498
Mof_O 	O 	0.58049	0.56579	0.03973	-0.426
Mof_O 	O 	0.51832	0.5641	0.98377	-0.629
Mof_O 	O 	0.92982	0.74934	0.85589	-0.154
Mof_O 	O 	0.73132	0.69184	0.96071	-0.422
Mof_O 	O 	0.66413	0.54823	0.02467	-0.406
Mof_O 	O 	0.44351	0.59376	0.01561	-0.505
Mof_O 	O 	0.72433	0.67246	0.89101	-0.398
Mof_O 	O 	0.74587	0.74569	0.90991	-0.393
Mof_O 	O 	0.63381	0.61218	0.99208	-0.385
Mof_O 	O 	0.96324	0.81296	0.82547	-0.165
Mof_O 	O 	0.70882	0.6107	0.01336	-0.45
Mof_O 	O 	0.79627	0.68626	0.92202	-0.197
Mof_O 	O 	0.65298	0.6149	0.06307	-0.166
Mof_Mo	Mo	0.50038	0.62184	0.99913	1.184
Mof_Mo	Mo	0.57329	0.59289	0.97935	1.146
Mof_Mo	Mo	0.7198	0.67563	0.83095	1.116
Mof_Mo	Mo	0.82296	0.80644	0.82316	1.132
Mof_Mo	Mo	0.61624	0.50508	0.02578	1.098
Mof_Mo	Mo	0.75728	0.77589	0.85758	1.117
Mof_P 	P 	0.25152	0.80084	0.92064	0.554
Mof_P 	P 	0.44861	0.92618	0.075	0.574
Mof_P 	P 	0.07645	0.71685	0.82578	0.542
Mof_P 	P 	0.33464	0.90376	0.02232	0.567
Mof_O 	O 	0.46025	0.97003	0.09217	-0.411
Mof_O 	O 	0.40015	0.96739	0.9729	-0.469
Mof_O 	O 	0.48952	0.90634	0.05922	-0.427
Mof_O 	O 	0.07929	0.73302	0.78414	-0.387
Mof_O 	O 	0.23094	0.71566	0.80215	-0.632
Mof_O 	O 	0.26715	0.80809	0.77728	-0.643
Mof_O 	O 	0.11456	0.68896	0.83547	-0.393
Mof_O 	O 	0.24616	0.87432	0.83138	-0.505
Mof_O 	O 	0.29589	0.75932	0.83927	-0.469
Mof_O 	O 	0.44321	0.85658	0.00626	-0.525
Mof_O 	O 	0.42728	0.89998	0.10548	-0.162
Mof_O 	O 	0.18531	0.71691	0.87457	-0.498
Mof_O 	O 	0.41951	0.93421	0.03973	-0.427
Mof_O 	O 	0.48168	0.9359	0.98377	-0.623
Mof_O 	O 	0.07018	0.75066	0.85589	-0.159
Mof_O 	O 	0.26868	0.80816	0.96071	-0.422
Mof_O 	O 	0.33587	0.95177	0.02467	-0.409
Mof_O 	O 	0.55649	0.90624	0.01561	-0.502
Mof_O 	O 	0.27567	0.82754	0.89101	-0.397
Mof_O 	O 	0.25413	0.75431	0.90991	-0.394
Mof_O 	O 	0.36619	0.88782	0.99208	-0.386
Mof_O 	O 	0.03676	0.68704	0.82547	-0.178
Mof_O 	O 	0.29118	0.8893	0.01336	-0.448
Mof_O 	O 	0.20373	0.81374	0.92202	-0.197
Mof_O 	O 	0.34702	0.8851	0.06307	-0.166
Mof_Mo	Mo	0.49962	0.87816	0.99913	1.183
Mof_Mo	Mo	0.42671	0.90711	0.97935	1.151
Mof_Mo	Mo	0.2802	0.82437	0.83095	1.118
Mof_Mo	Mo	0.17704	0.69356	0.82316	1.127
Mof_Mo	Mo	0.38376	0.99492	0.02578	1.147
Mof_Mo	Mo	0.24272	0.72411	0.85758	1.114
Mof_P 	P 	0.75152	0.30084	0.42064	0.555
Mof_P 	P 	0.94861	0.42618	0.575	0.573
Mof_P 	P 	0.57645	0.21685	0.32578	0.542
Mof_P 	P 	0.83464	0.40376	0.52232	0.581
Mof_O 	O 	0.96025	0.47003	0.59217	-0.417
Mof_O 	O 	0.90015	0.46739	0.4729	-0.485
Mof_O 	O 	0.98952	0.40634	0.55922	-0.411
Mof_O 	O 	0.57929	0.23302	0.28414	-0.385
Mof_O 	O 	0.73094	0.21566	0.30215	-0.632
Mof_O 	O 	0.76715	0.30809	0.27728	-0.642
Mof_O 	O 	0.61456	0.18896	0.33547	-0.394
Mof_O 	O 	0.74616	0.37432	0.33138	-0.507
Mof_O 	O 	0.79589	0.25932	0.33927	-0.469
Mof_O 	O 	0.94321	0.35658	0.50626	-0.497
Mof_O 	O 	0.92728	0.39998	0.60548	-0.161
Mof_O 	O 	0.68531	0.21691	0.37457	-0.5
Mof_O 	O 	0.91951	0.43421	0.53973	-0.418
Mof_O 	O 	0.98168	0.4359	0.48377	-0.625
Mof_O 	O 	0.57018	0.25066	0.35589	-0.157
Mof_O 	O 	0.76868	0.30816	0.46071	-0.433
Mof_O 	O 	0.83587	0.45177	0.52467	-0.404
Mof_O 	O 	0.05649	0.40624	0.51561	-0.492
Mof_O 	O 	0.77567	0.32754	0.39101	-0.4
Mof_O 	O 	0.75413	0.25431	0.40991	-0.397
Mof_O 	O 	0.86619	0.38782	0.49208	-0.402
Mof_O 	O 	0.53676	0.18704	0.32547	-0.173
Mof_O 	O 	0.79118	0.3893	0.51336	-0.443
Mof_O 	O 	0.70373	0.31374	0.42202	-0.201
Mof_O 	O 	0.84702	0.3851	0.56307	-0.166
Mof_Mo	Mo	0.99962	0.37816	0.49913	1.149
Mof_Mo	Mo	0.92671	0.40711	0.47935	1.122
Mof_Mo	Mo	0.7802	0.32437	0.33095	1.116
Mof_Mo	Mo	0.67704	0.19356	0.32316	1.123
Mof_Mo	Mo	0.88376	0.49492	0.52578	1.124
Mof_Mo	Mo	0.74272	0.22411	0.35758	1.11
Mof_Zn	Zn	0.0979	0.5	0.25	1.247
Mof_Zn	Zn	0.5979	1.15548e-32	0.75	1.238
Mof_Zn	Zn	0.4021	0.5	0.75	1.247
Mof_Zn	Zn	0.9021	0	0.25	1.238
Mof_Zn	Zn	0.75	0.8479	0.5	1.247
Mof_Zn	Zn	0.25	0.3479	-0	1.24
Mof_Zn	Zn	0.75	0.1521	-0	1.24
Mof_Zn	Zn	0.25	0.6521	0.5	1.247
Mof_Zn	Zn	0.9021	0.5	0.75	1.247
Mof_Zn	Zn	0.4021	0	0.25	1.238
Mof_Zn	Zn	0.5979	0.5	0.25	1.247
Mof_Zn	Zn	0.0979	1.15548e-32	0.75	1.238
Mof_Zn	Zn	0.25	0.1521	0.5	1.247
Mof_Zn	Zn	0.75	0.6521	-0	1.24
Mof_Zn	Zn	0.25	0.8479	-0	1.24
Mof_Zn	Zn	0.75	0.3479	0.5	1.247
Mof_Zn	Zn	0.25	0.75	0.25	1.241
Mof_Zn	Zn	0.25	0.25	0.75	1.241
Mof_Zn	Zn	0.5	0	0.5	1.232
Mof_Zn	Zn	-0	0.5	-0	1.23
Mof_Zn	Zn	-0	0	-0	1.221
Mof_Zn	Zn	0.5	0.5	0.5	1.241
Mof_Zn	Zn	0.25	0.75	0.75	1.241
Mof_Zn	Zn	0.25	0.25	0.25	1.241
Mof_Zn	Zn	2.03716e-33	0	0.5	1.228
Mof_Zn	Zn	0.5	0.5	-0	1.234
Mof_Zn	Zn	0.5	0	-0	1.225
Mof_Zn	Zn	-3.74023e-33	0.5	0.5	1.237
Mof_Zn	Zn	0.75	0.25	0.75	1.241
Mof_Zn	Zn	0.75	0.75	0.25	1.241
Mof_Zn	Zn	0.75	0.25	0.25	1.241
Mof_Zn	Zn	0.75	0.75	0.75	1.241
_end
