data_functionalizedCrystal
_audit_creation_method	'EQeq! by Chris Wilmer'
_symmetry_space_group_name_H-M	'P1'
_symmetry_Int_Tables_number	1
_symmetry_cell_setting	triclinic
loop_
_symmetry_equiv_pos_as_xyz
  x,y,z
_cell_length_a	15.0186
_cell_length_b	15.0186
_cell_length_c	17.947
_cell_angle_alpha	94.5508
_cell_angle_beta	94.5508
_cell_angle_gamma	90.2886
loop_
_atom_site_label
_atom_site_type_symbol
_atom_site_fract_x
_atom_site_fract_y
_atom_site_fract_z
_atom_site_charge
Mof_Cu	Cu	0.62768	0.80214	0.4875	0.828
Mof_Cu	Cu	0.80791	0.71707	0.35919	0.825
Mof_Cu	Cu	0.77035	0.59421	0.52747	0.825
Mof_Cu	Cu	0.19786	0.37232	0.0125	0.828
Mof_Cu	Cu	0.28293	0.19209	0.14081	0.825
Mof_Cu	Cu	0.40579	0.22965	0.97253	0.825
Mof_Mo	Mo	0.8046	0.76698	0.5047	0.513
Mof_Mo	Mo	0.23302	0.1954	0.9953	0.511
Mof_H 	H 	0.7171	0.9453	0.6017	-0.037
Mof_H 	H 	0.6864	0.0378	0.7036	0.086
Mof_H 	H 	0.4244	0.0002	0.6358	0.069
Mof_H 	H 	0.4676	0.909	0.5374	0.003
Mof_H 	H 	0.5669	0.1119	0.9302	-0.013
Mof_H 	H 	0.615	0.0336	0.825	0.074
Mof_H 	H 	0.4223	0.1489	0.7036	0.073
Mof_H 	H 	0.3778	0.2206	0.8085	-0.013
Mof_H 	H 	0.9912	0.799	0.4008	-0.029
Mof_H 	H 	0.0833	0.8971	0.3654	0.074
Mof_H 	H 	0.9393	0.9005	0.1691	0.057
Mof_H 	H 	0.8417	0.8011	0.213	-0.021
Mof_H 	H 	0.8442	0.5778	0.2359	-0.013
Mof_H 	H 	0.7675	0.4803	0.1501	0.075
Mof_H 	H 	0.5419	0.5771	0.223	0.08
Mof_H 	H 	0.6198	0.6618	0.3132	-0.033
Mof_H 	H 	0.4038	0.417	0.0329	-0.035
Mof_H 	H 	0.4804	0.516	0.1129	0.085
Mof_H 	H 	0.6873	0.3503	0.1161	0.078
Mof_H 	H 	0.6006	0.2524	0.0364	-0.02
Mof_H 	H 	0.0547	0.2829	0.8983	-0.036
Mof_H 	H 	0.9622	0.3136	0.7964	0.086
Mof_H 	H 	0.9998	0.5756	0.8642	0.071
Mof_H 	H 	0.091	0.5324	0.9626	0.003
Mof_H 	H 	0.8881	0.4331	0.5698	-0.013
Mof_H 	H 	0.9664	0.385	0.675	0.074
Mof_H 	H 	0.8511	0.5777	0.7964	0.073
Mof_H 	H 	0.7794	0.6222	0.6915	-0.013
Mof_H 	H 	0.201	0.0088	0.0992	-0.029
Mof_H 	H 	0.1029	0.9167	0.1346	0.075
Mof_H 	H 	0.0995	0.0607	0.3309	0.057
Mof_H 	H 	0.1989	0.1583	0.287	-0.021
Mof_H 	H 	0.4222	0.1558	0.2641	-0.013
Mof_H 	H 	0.5197	0.2325	0.3499	0.075
Mof_H 	H 	0.4229	0.4581	0.277	0.08
Mof_H 	H 	0.3382	0.3802	0.1868	-0.033
Mof_H 	H 	0.583	0.5962	0.4671	-0.036
Mof_H 	H 	0.484	0.5196	0.3871	0.085
Mof_H 	H 	0.6497	0.3127	0.3839	0.078
Mof_H 	H 	0.7476	0.3994	0.4636	-0.021
Mof_C 	C 	0.6575	0.9567	0.6091	0.102
Mof_C 	C 	0.6402	0.0126	0.6711	-0.15
Mof_C 	C 	0.5501	0.0303	0.6838	0.051
Mof_C 	C 	0.4848	0.99	0.6307	-0.129
Mof_C 	C 	0.5113	0.9357	0.5716	0.057
Mof_C 	C 	0.5364	0.1184	0.8838	0.078
Mof_C 	C 	0.5669	0.0721	0.8203	-0.141
Mof_C 	C 	0.526	0.0836	0.7519	0.064
Mof_C 	C 	0.453	0.1402	0.7495	-0.14
Mof_C 	C 	0.4261	0.1823	0.8125	0.071
Mof_C 	C 	0.9798	0.82	0.3536	0.077
Mof_C 	C 	0.0345	0.8779	0.3328	-0.15
Mof_C 	C 	0.0225	0.9127	0.2623	0.053
Mof_C 	C 	0.9501	0.8813	0.217	-0.14
Mof_C 	C 	0.8922	0.8202	0.2435	0.072
Mof_C 	C 	0.7821	0.5771	0.2336	0.074
Mof_C 	C 	0.7363	0.5173	0.1827	-0.14
Mof_C 	C 	0.6454	0.512	0.1795	0.059
Mof_C 	C 	0.6039	0.5737	0.2271	-0.144
Mof_C 	C 	0.6503	0.6277	0.278	0.081
Mof_C 	C 	0.4613	0.4025	0.0509	0.079
Mof_C 	C 	0.5076	0.4628	0.0977	-0.148
Mof_C 	C 	0.5939	0.4481	0.124	0.06
Mof_C 	C 	0.6293	0.3653	0.1002	-0.144
Mof_C 	C 	0.576	0.3066	0.0524	0.092
Mof_C 	C 	0.0433	0.3425	0.8909	0.102
Mof_C 	C 	0.9874	0.3598	0.8289	-0.149
Mof_C 	C 	0.9697	0.4499	0.8162	0.052
Mof_C 	C 	0.01	0.5152	0.8693	-0.132
Mof_C 	C 	0.0643	0.4887	0.9284	0.058
Mof_C 	C 	0.8816	0.4636	0.6162	0.078
Mof_C 	C 	0.9279	0.4331	0.6797	-0.141
Mof_C 	C 	0.9164	0.474	0.7481	0.063
Mof_C 	C 	0.8598	0.547	0.7505	-0.139
Mof_C 	C 	0.8177	0.5739	0.6875	0.071
Mof_C 	C 	0.18	0.0202	0.1464	0.081
Mof_C 	C 	0.1221	0.9655	0.1672	-0.154
Mof_C 	C 	0.0873	0.9775	0.2377	0.053
Mof_C 	C 	0.1187	0.0499	0.283	-0.138
Mof_C 	C 	0.1798	0.1078	0.2565	0.072
Mof_C 	C 	0.4229	0.2179	0.2664	0.074
Mof_C 	C 	0.4827	0.2637	0.3173	-0.14
Mof_C 	C 	0.488	0.3546	0.3205	0.059
Mof_C 	C 	0.4263	0.3961	0.2729	-0.144
Mof_C 	C 	0.3723	0.3497	0.222	0.081
Mof_C 	C 	0.5975	0.5387	0.4491	0.079
Mof_C 	C 	0.5372	0.4924	0.4023	-0.148
Mof_C 	C 	0.5519	0.4061	0.376	0.06
Mof_C 	C 	0.6347	0.3707	0.3998	-0.144
Mof_C 	C 	0.6934	0.424	0.4476	0.092
Mof_S 	S 	0.73279	0.83653	0.41051	-0.555
Mof_S 	S 	0.87475	0.64463	0.4551	-0.554
Mof_S 	S 	0.69996	0.71962	0.57618	-0.531
Mof_S 	S 	0.16347	0.26721	0.08949	-0.553
Mof_S 	S 	0.35537	0.12525	0.0449	-0.551
Mof_S 	S 	0.28038	0.30004	0.92382	-0.53
Mof_I 	I 	0.48218	0.75366	0.42961	-0.343
Mof_I 	I 	0.24634	0.51782	0.07039	-0.343
Mof_N 	N 	0.5985	0.9191	0.5606	-0.225
Mof_N 	N 	0.4655	0.1717	0.8808	-0.236
Mof_N 	N 	0.906	0.788	0.31	-0.233
Mof_N 	N 	0.7403	0.6351	0.2807	-0.25
Mof_N 	N 	0.4932	0.322	0.0283	-0.251
Mof_N 	N 	0.0809	0.4015	0.9394	-0.226
Mof_N 	N 	0.8283	0.5345	0.6192	-0.236
Mof_N 	N 	0.212	0.094	0.19	-0.233
Mof_N 	N 	0.3649	0.2597	0.2193	-0.25
Mof_N 	N 	0.678	0.5068	0.4717	-0.252
Mof_Cu	Cu	0.37232	0.19786	0.5125	0.828
Mof_Cu	Cu	0.19209	0.28293	0.64081	0.825
Mof_Cu	Cu	0.22965	0.40579	0.47253	0.825
Mof_Cu	Cu	0.80214	0.62768	0.9875	0.828
Mof_Cu	Cu	0.71707	0.80791	0.85919	0.825
Mof_Cu	Cu	0.59421	0.77035	0.02747	0.825
Mof_Mo	Mo	0.1954	0.23302	0.4953	0.513
Mof_Mo	Mo	0.76698	0.8046	0.0047	0.511
Mof_H 	H 	0.2829	0.0547	0.3983	-0.037
Mof_H 	H 	0.3136	0.9622	0.2964	0.086
Mof_H 	H 	0.5756	0.9998	0.3642	0.069
Mof_H 	H 	0.5324	0.091	0.4626	0.003
Mof_H 	H 	0.4331	0.8881	0.0698	-0.013
Mof_H 	H 	0.385	0.9664	0.175	0.074
Mof_H 	H 	0.5777	0.8511	0.2964	0.073
Mof_H 	H 	0.6222	0.7794	0.1915	-0.013
Mof_H 	H 	0.0088	0.201	0.5992	-0.029
Mof_H 	H 	0.9167	0.1029	0.6346	0.074
Mof_H 	H 	0.0607	0.0995	0.8309	0.057
Mof_H 	H 	0.1583	0.1989	0.787	-0.021
Mof_H 	H 	0.1558	0.4222	0.7641	-0.013
Mof_H 	H 	0.2325	0.5197	0.8499	0.075
Mof_H 	H 	0.4581	0.4229	0.777	0.08
Mof_H 	H 	0.3802	0.3382	0.6868	-0.033
Mof_H 	H 	0.5962	0.583	0.9671	-0.035
Mof_H 	H 	0.5196	0.484	0.8871	0.085
Mof_H 	H 	0.3127	0.6497	0.8839	0.078
Mof_H 	H 	0.3994	0.7476	0.9636	-0.02
Mof_H 	H 	0.9453	0.7171	0.1017	-0.036
Mof_H 	H 	0.0378	0.6864	0.2036	0.086
Mof_H 	H 	0.0002	0.4244	0.1358	0.071
Mof_H 	H 	0.909	0.4676	0.0374	0.003
Mof_H 	H 	0.1119	0.5669	0.4302	-0.013
Mof_H 	H 	0.0336	0.615	0.325	0.074
Mof_H 	H 	0.1489	0.4223	0.2036	0.073
Mof_H 	H 	0.2206	0.3778	0.3085	-0.013
Mof_H 	H 	0.799	0.9912	0.9008	-0.029
Mof_H 	H 	0.8971	0.0833	0.8654	0.075
Mof_H 	H 	0.9005	0.9393	0.6691	0.057
Mof_H 	H 	0.8011	0.8417	0.713	-0.021
Mof_H 	H 	0.5778	0.8442	0.7359	-0.013
Mof_H 	H 	0.4803	0.7675	0.6501	0.075
Mof_H 	H 	0.5771	0.5419	0.723	0.08
Mof_H 	H 	0.6618	0.6198	0.8132	-0.033
Mof_H 	H 	0.417	0.4038	0.5329	-0.036
Mof_H 	H 	0.516	0.4804	0.6129	0.085
Mof_H 	H 	0.3503	0.6873	0.6161	0.078
Mof_H 	H 	0.2524	0.6006	0.5364	-0.021
Mof_C 	C 	0.3425	0.0433	0.3909	0.102
Mof_C 	C 	0.3598	0.9874	0.3289	-0.15
Mof_C 	C 	0.4499	0.9697	0.3162	0.051
Mof_C 	C 	0.5152	0.01	0.3693	-0.129
Mof_C 	C 	0.4887	0.0643	0.4284	0.057
Mof_C 	C 	0.4636	0.8816	0.1162	0.078
Mof_C 	C 	0.4331	0.9279	0.1797	-0.141
Mof_C 	C 	0.474	0.9164	0.2481	0.064
Mof_C 	C 	0.547	0.8598	0.2505	-0.14
Mof_C 	C 	0.5739	0.8177	0.1875	0.071
Mof_C 	C 	0.0202	0.18	0.6464	0.077
Mof_C 	C 	0.9655	0.1221	0.6672	-0.15
Mof_C 	C 	0.9775	0.0873	0.7377	0.053
Mof_C 	C 	0.0499	0.1187	0.783	-0.14
Mof_C 	C 	0.1078	0.1798	0.7565	0.072
Mof_C 	C 	0.2179	0.4229	0.7664	0.074
Mof_C 	C 	0.2637	0.4827	0.8173	-0.14
Mof_C 	C 	0.3546	0.488	0.8205	0.059
Mof_C 	C 	0.3961	0.4263	0.7729	-0.144
Mof_C 	C 	0.3497	0.3723	0.722	0.081
Mof_C 	C 	0.5387	0.5975	0.9491	0.079
Mof_C 	C 	0.4924	0.5372	0.9023	-0.148
Mof_C 	C 	0.4061	0.5519	0.876	0.06
Mof_C 	C 	0.3707	0.6347	0.8998	-0.144
Mof_C 	C 	0.424	0.6934	0.9476	0.092
Mof_C 	C 	0.9567	0.6575	0.1091	0.102
Mof_C 	C 	0.0126	0.6402	0.1711	-0.149
Mof_C 	C 	0.0303	0.5501	0.1838	0.052
Mof_C 	C 	0.99	0.4848	0.1307	-0.132
Mof_C 	C 	0.9357	0.5113	0.0716	0.058
Mof_C 	C 	0.1184	0.5364	0.3838	0.078
Mof_C 	C 	0.0721	0.5669	0.3203	-0.141
Mof_C 	C 	0.0836	0.526	0.2519	0.063
Mof_C 	C 	0.1402	0.453	0.2495	-0.139
Mof_C 	C 	0.1823	0.4261	0.3125	0.071
Mof_C 	C 	0.82	0.9798	0.8536	0.081
Mof_C 	C 	0.8779	0.0345	0.8328	-0.154
Mof_C 	C 	0.9127	0.0225	0.7623	0.053
Mof_C 	C 	0.8813	0.9501	0.717	-0.138
Mof_C 	C 	0.8202	0.8922	0.7435	0.072
Mof_C 	C 	0.5771	0.7821	0.7336	0.074
Mof_C 	C 	0.5173	0.7363	0.6827	-0.14
Mof_C 	C 	0.512	0.6454	0.6795	0.059
Mof_C 	C 	0.5737	0.6039	0.7271	-0.144
Mof_C 	C 	0.6277	0.6503	0.778	0.081
Mof_C 	C 	0.4025	0.4613	0.5509	0.079
Mof_C 	C 	0.4628	0.5076	0.5977	-0.148
Mof_C 	C 	0.4481	0.5939	0.624	0.06
Mof_C 	C 	0.3653	0.6293	0.6002	-0.144
Mof_C 	C 	0.3066	0.576	0.5524	0.092
Mof_S 	S 	0.26721	0.16347	0.58949	-0.555
Mof_S 	S 	0.12525	0.35537	0.5449	-0.554
Mof_S 	S 	0.30004	0.28038	0.42382	-0.531
Mof_S 	S 	0.83653	0.73279	0.91051	-0.553
Mof_S 	S 	0.64463	0.87475	0.9551	-0.551
Mof_S 	S 	0.71962	0.69996	0.07618	-0.53
Mof_I 	I 	0.51782	0.24634	0.57039	-0.343
Mof_I 	I 	0.75366	0.48218	0.92961	-0.343
Mof_N 	N 	0.4015	0.0809	0.4394	-0.225
Mof_N 	N 	0.5345	0.8283	0.1192	-0.236
Mof_N 	N 	0.094	0.212	0.69	-0.233
Mof_N 	N 	0.2597	0.3649	0.7193	-0.25
Mof_N 	N 	0.5068	0.678	0.9717	-0.251
Mof_N 	N 	0.9191	0.5985	0.0606	-0.226
Mof_N 	N 	0.1717	0.4655	0.3808	-0.236
Mof_N 	N 	0.788	0.906	0.81	-0.233
Mof_N 	N 	0.6351	0.7403	0.7807	-0.25
Mof_N 	N 	0.322	0.4932	0.5283	-0.252
_end
