data_functionalizedCrystal
_audit_creation_method	'EQeq! by Chris Wilmer'
_symmetry_space_group_name_H-M	'P1'
_symmetry_Int_Tables_number	1
_symmetry_cell_setting	triclinic
loop_
_symmetry_equiv_pos_as_xyz
  x,y,z
_cell_length_a	13.51
_cell_length_b	13.51
_cell_length_c	16.0684
_cell_angle_alpha	90
_cell_angle_beta	90
_cell_angle_gamma	90
loop_
_atom_site_label
_atom_site_type_symbol
_atom_site_fract_x
_atom_site_fract_y
_atom_site_fract_z
_atom_site_charge
Mof_S 	S 	0.2862	0.2218	0.13937	0.024
Mof_O 	O 	0.4555	0.1239	0.233	-0.435
Mof_O 	O 	0.502	0.026	0.1324	-0.516
Mof_O 	O 	0.1073	0.3008	0.9582	-0.435
Mof_O 	O 	0.1146	0.3472	0.0883	-0.464
Mof_C 	C 	0.3681	0.1371	0.105	-0.003
Mof_C 	C 	0.354	0.1149	0.0229	-0.296
Mof_H 	H 	0.3948	0.0721	0.9933	0.174
Mof_C 	C 	0.2722	0.1625	0.9875	0.223
Mof_H 	H 	0.2494	0.1519	0.9336	-0.035
Mof_C 	C 	0.2301	0.2275	0.0436	-0.199
Mof_C 	C 	0.4475	0.0937	0.1605	0.287
Mof_C 	C 	0.1468	0.2941	0.0288	0.294
Mof_S 	S 	0.7138	0.7782	0.63937	0.168
Mof_O 	O 	0.5445	0.8761	0.733	-0.318
Mof_O 	O 	0.498	0.974	0.6324	-0.356
Mof_O 	O 	0.8927	0.6992	0.4582	-0.377
Mof_O 	O 	0.8854	0.6528	0.5883	-0.312
Mof_C 	C 	0.6319	0.8629	0.605	-0.049
Mof_C 	C 	0.646	0.8851	0.5229	-0.002
Mof_H 	H 	0.6052	0.9279	0.4933	0.096
Mof_C 	C 	0.7278	0.8375	0.4875	0.006
Mof_H 	H 	0.7506	0.8481	0.4336	0.09
Mof_C 	C 	0.7699	0.7725	0.5436	-0.059
Mof_C 	C 	0.5525	0.9063	0.6605	0.318
Mof_C 	C 	0.8532	0.7059	0.5288	0.319
Mof_S 	S 	0.7782	0.2862	0.38937	0.088
Mof_O 	O 	0.8761	0.4555	0.483	-0.336
Mof_O 	O 	0.974	0.502	0.3824	-0.362
Mof_O 	O 	0.6992	0.1073	0.2082	-0.489
Mof_O 	O 	0.6528	0.1146	0.3383	-0.47
Mof_C 	C 	0.8629	0.3681	0.355	-0.042
Mof_C 	C 	0.8851	0.354	0.2729	-0.027
Mof_H 	H 	0.9279	0.3948	0.2433	0.098
Mof_C 	C 	0.8375	0.2722	0.2375	0.01
Mof_H 	H 	0.8481	0.2494	0.1836	0.064
Mof_C 	C 	0.7725	0.2301	0.2936	-0.095
Mof_C 	C 	0.9063	0.4475	0.4105	0.307
Mof_C 	C 	0.7059	0.1468	0.2788	0.334
Mof_S 	S 	0.2218	0.7138	0.88937	0.129
Mof_O 	O 	0.1239	0.5445	0.983	-0.386
Mof_O 	O 	0.026	0.498	0.8824	-0.483
Mof_O 	O 	0.3008	0.8927	0.7082	-0.388
Mof_O 	O 	0.3472	0.8854	0.8383	-0.312
Mof_C 	C 	0.1371	0.6319	0.855	-0.091
Mof_C 	C 	0.1149	0.646	0.7729	-0.003
Mof_H 	H 	0.0721	0.6052	0.7433	0.047
Mof_C 	C 	0.1625	0.7278	0.7375	-0.028
Mof_H 	H 	0.1519	0.7506	0.6836	0.067
Mof_C 	C 	0.2275	0.7699	0.7936	-0.062
Mof_C 	C 	0.0937	0.5525	0.9105	0.332
Mof_C 	C 	0.2941	0.8532	0.7788	0.308
Mof_S 	S 	0.7138	0.2218	0.86063	0.114
Mof_O 	O 	0.5445	0.1239	0.767	-0.435
Mof_O 	O 	0.498	0.026	0.8676	-0.523
Mof_O 	O 	0.8927	0.3008	0.0418	-0.4
Mof_O 	O 	0.8854	0.3472	0.9117	-0.298
Mof_C 	C 	0.6319	0.1371	0.895	-0.173
Mof_C 	C 	0.646	0.1149	0.9771	0.241
Mof_H 	H 	0.6052	0.0721	0.0067	-0.071
Mof_C 	C 	0.7278	0.1625	0.0125	-0.254
Mof_H 	H 	0.7506	0.1519	0.0664	0.138
Mof_C 	C 	0.7699	0.2275	0.9564	0.033
Mof_C 	C 	0.5525	0.0937	0.8395	0.37
Mof_C 	C 	0.8532	0.2941	0.9712	0.318
Mof_S 	S 	0.2862	0.7782	0.36063	0.082
Mof_O 	O 	0.4555	0.8761	0.267	-0.339
Mof_O 	O 	0.502	0.974	0.3676	-0.359
Mof_O 	O 	0.1073	0.6992	0.5418	-0.483
Mof_O 	O 	0.1146	0.6528	0.4117	-0.471
Mof_C 	C 	0.3681	0.8629	0.395	-0.042
Mof_C 	C 	0.354	0.8851	0.4771	-0.025
Mof_H 	H 	0.3948	0.9279	0.5067	0.098
Mof_C 	C 	0.2722	0.8375	0.5125	0.009
Mof_H 	H 	0.2494	0.8481	0.5664	0.068
Mof_C 	C 	0.2301	0.7725	0.4564	-0.091
Mof_C 	C 	0.4475	0.9063	0.3395	0.308
Mof_C 	C 	0.1468	0.7059	0.4712	0.333
Mof_S 	S 	0.2218	0.2862	0.61063	0.034
Mof_O 	O 	0.1239	0.4555	0.517	-0.442
Mof_O 	O 	0.026	0.502	0.6176	-0.519
Mof_O 	O 	0.3008	0.1073	0.7918	-0.491
Mof_O 	O 	0.3472	0.1146	0.6617	-0.477
Mof_C 	C 	0.1371	0.3681	0.645	-0.088
Mof_C 	C 	0.1149	0.354	0.7271	-0.024
Mof_H 	H 	0.0721	0.3948	0.7567	0.049
Mof_C 	C 	0.1625	0.2722	0.7625	-0.027
Mof_H 	H 	0.1519	0.2494	0.8164	0.049
Mof_C 	C 	0.2275	0.2301	0.7064	-0.092
Mof_C 	C 	0.0937	0.4475	0.5895	0.324
Mof_C 	C 	0.2941	0.1468	0.7212	0.32
Mof_S 	S 	0.7782	0.7138	0.11063	0.143
Mof_O 	O 	0.8761	0.5445	0.017	-0.329
Mof_O 	O 	0.974	0.498	0.1176	-0.346
Mof_O 	O 	0.6992	0.8927	0.2918	-0.375
Mof_O 	O 	0.6528	0.8854	0.1617	-0.318
Mof_C 	C 	0.8629	0.6319	0.145	-0.052
Mof_C 	C 	0.8851	0.646	0.2271	-0.003
Mof_H 	H 	0.9279	0.6052	0.2567	0.095
Mof_C 	C 	0.8375	0.7278	0.2625	0.003
Mof_H 	H 	0.8481	0.7506	0.3164	0.09
Mof_C 	C 	0.7725	0.7699	0.2064	-0.057
Mof_C 	C 	0.9063	0.5525	0.0895	0.317
Mof_C 	C 	0.7059	0.8532	0.2212	0.317
Mof_In	In	0.58169	0	0.25	1.888
Mof_In	In	0.41831	-8.6073e-33	0.75	1.885
Mof_In	In	-6.37759e-33	0.58169	0.5	1.897
Mof_In	In	-4.30365e-33	0.41831	-0	1.728
_end
