data_functionalizedCrystal
_audit_creation_method	'EQeq! by Chris Wilmer'
_symmetry_space_group_name_H-M	'P1'
_symmetry_Int_Tables_number	1
_symmetry_cell_setting	triclinic
loop_
_symmetry_equiv_pos_as_xyz
  x,y,z
_cell_length_a	18.0831
_cell_length_b	18.0831
_cell_length_c	18.0831
_cell_angle_alpha	61.1189
_cell_angle_beta	61.1189
_cell_angle_gamma	61.1189
loop_
_atom_site_label
_atom_site_type_symbol
_atom_site_fract_x
_atom_site_fract_y
_atom_site_fract_z
_atom_site_charge
Mof_Zn	Zn	0.80614	0.80612	0.97929	1.202
Mof_Zn	Zn	0.80612	0.97929	0.80614	1.202
Mof_Zn	Zn	0.39056	0.39053	0.22083	1.215
Mof_Zn	Zn	0.39053	0.22083	0.39056	1.215
Mof_Zn	Zn	0.39496	0.39496	0.39496	1.212
Mof_Zn	Zn	0.22083	0.39056	0.39053	1.215
Mof_Zn	Zn	0.97929	0.80614	0.80612	1.202
Mof_Zn	Zn	0.8052	0.8052	0.8052	1.209
Mof_H 	H 	0.246	0.5307	0.5852	0.033
Mof_H 	H 	0.6753	0.1549	0.6166	0.045
Mof_H 	H 	0.6166	0.6753	0.1549	0.045
Mof_H 	H 	0.5311	0.0313	0.2543	0.009
Mof_H 	H 	0.1625	0.6656	0.9493	0.074
Mof_H 	H 	0.5979	0.1527	0.6914	0.027
Mof_H 	H 	0.5957	0.5161	0.242	0.044
Mof_H 	H 	0.6914	0.5979	0.1527	0.027
Mof_H 	H 	0.5852	0.246	0.5307	0.032
Mof_H 	H 	0.948	0.6642	0.1637	0.068
Mof_H 	H 	0.9493	0.1625	0.6656	0.073
Mof_H 	H 	0.5829	0.0393	0.2479	0.05
Mof_H 	H 	0.242	0.5957	0.5161	0.043
Mof_H 	H 	0.5846	0.2483	0.0393	0.047
Mof_H 	H 	0.6127	0.1604	0.9437	0.024
Mof_H 	H 	0.5161	0.242	0.5957	0.043
Mof_H 	H 	0.1637	0.948	0.6642	0.068
Mof_H 	H 	0.1604	0.9437	0.6127	0.024
Mof_H 	H 	0.1609	0.6121	0.9432	0.02
Mof_H 	H 	0.2483	0.0393	0.5846	0.047
Mof_H 	H 	0.1527	0.6914	0.5979	0.026
Mof_H 	H 	0.0393	0.5846	0.2483	0.047
Mof_H 	H 	0.9432	0.1609	0.6121	0.02
Mof_H 	H 	0.5307	0.5852	0.246	0.032
Mof_H 	H 	0.2543	0.5311	0.0313	0.008
Mof_H 	H 	0.5305	0.2523	0.0321	0.014
Mof_H 	H 	0.6656	0.9493	0.1625	0.073
Mof_H 	H 	0.0321	0.5305	0.2523	0.014
Mof_H 	H 	0.6121	0.9432	0.1609	0.02
Mof_H 	H 	0.2479	0.5829	0.0393	0.05
Mof_H 	H 	0.1549	0.6166	0.6753	0.044
Mof_H 	H 	0.2523	0.0321	0.5305	0.014
Mof_H 	H 	0.0393	0.2479	0.5829	0.05
Mof_H 	H 	0.0313	0.2543	0.5311	0.008
Mof_H 	H 	0.6642	0.1637	0.948	0.068
Mof_H 	H 	0.9437	0.6127	0.1604	0.024
Mof_C 	C 	0.1444	0.5574	0.5314	-0.041
Mof_C 	C 	0.98228	0.70988	0.71078	0.365
Mof_C 	C 	0.1377	0.6069	0.0046	0.042
Mof_C 	C 	0.0448	0.0454	0.6518	-0.01
Mof_C 	C 	0.0454	0.6518	0.0448	-0.01
Mof_C 	C 	0.1359	0.6381	0.0112	-0.122
Mof_C 	C 	0.063	0.5881	0.1875	-0.049
Mof_C 	C 	0.5368	0.5532	0.1474	-0.008
Mof_C 	C 	0.5972	0.1299	0.6543	0.016
Mof_C 	C 	0.6071	0.137	0.0051	0.029
Mof_C 	C 	0.137	0.0051	0.6071	0.029
Mof_C 	C 	0.5314	0.1444	0.5574	-0.041
Mof_C 	C 	0.6378	0.1368	0.0103	-0.107
Mof_C 	C 	0.1521	0.5411	0.1526	-0.103
Mof_C 	C 	0.0547	0.5714	0.5708	0.012
Mof_C 	C 	0.0112	0.1359	0.6381	-0.122
Mof_C 	C 	0.71078	0.98228	0.70988	0.365
Mof_C 	C 	0.9865	0.9871	0.7138	0.239
Mof_C 	C 	0.1474	0.5368	0.5532	-0.008
Mof_C 	C 	0.6247	0.6244	0.0021	0.041
Mof_C 	C 	0.0046	0.1377	0.6069	0.042
Mof_C 	C 	0.0572	0.1917	0.5561	0.071
Mof_C 	C 	0.7138	0.9865	0.9871	0.239
Mof_C 	C 	0.1307	0.6084	0.6444	-0.037
Mof_C 	C 	0.20995	0.48165	0.21015	0.399
Mof_C 	C 	0.0021	0.6247	0.6244	0.041
Mof_C 	C 	0.5574	0.5314	0.1444	-0.041
Mof_C 	C 	0.6024	0.5449	0.1801	-0.034
Mof_C 	C 	0.5874	0.0636	0.1867	-0.065
Mof_C 	C 	0.6444	0.1307	0.6084	-0.037
Mof_C 	C 	0.0051	0.6071	0.137	0.029
Mof_C 	C 	0.5022	0.4712	0.1962	0.064
Mof_C 	C 	0.1962	0.5022	0.4712	0.064
Mof_C 	C 	0.6543	0.5972	0.1299	0.016
Mof_C 	C 	0.9871	0.7138	0.9865	0.239
Mof_C 	C 	0.5449	0.1801	0.6024	-0.034
Mof_C 	C 	0.5708	0.0547	0.5714	0.012
Mof_C 	C 	0.4712	0.1962	0.5022	0.064
Mof_C 	C 	0.1917	0.5561	0.0572	0.071
Mof_C 	C 	0.4971	0.2059	0.4777	0.241
Mof_C 	C 	0.1875	0.063	0.5881	-0.049
Mof_C 	C 	0.5714	0.5708	0.0547	0.012
Mof_C 	C 	0.6518	0.0448	0.0454	-0.01
Mof_C 	C 	0.48165	0.21015	0.20995	0.399
Mof_C 	C 	0.21015	0.20995	0.48165	0.399
Mof_C 	C 	0.6244	0.0021	0.6247	0.041
Mof_C 	C 	0.2059	0.4777	0.4971	0.241
Mof_C 	C 	0.5411	0.1526	0.1521	-0.103
Mof_C 	C 	0.1837	0.5557	0.594	-0.017
Mof_C 	C 	0.1526	0.1521	0.5411	-0.103
Mof_C 	C 	0.5557	0.594	0.1837	-0.017
Mof_C 	C 	0.5562	0.1898	0.0581	0.055
Mof_C 	C 	0.70988	0.71078	0.98228	0.365
Mof_C 	C 	0.4777	0.4971	0.2059	0.241
Mof_C 	C 	0.594	0.1837	0.5557	-0.017
Mof_C 	C 	0.0389	0.6526	0.653	-0.096
Mof_C 	C 	0.0103	0.6378	0.1368	-0.107
Mof_C 	C 	0.5532	0.1474	0.5368	-0.008
Mof_C 	C 	0.6084	0.6444	0.1307	-0.037
Mof_C 	C 	0.0636	0.1867	0.5874	-0.065
Mof_C 	C 	0.6381	0.0112	0.1359	-0.122
Mof_C 	C 	0.1801	0.6024	0.5449	-0.034
Mof_C 	C 	0.1867	0.5874	0.0636	-0.065
Mof_C 	C 	0.1299	0.6543	0.5972	0.016
Mof_C 	C 	0.0581	0.5562	0.1898	0.055
Mof_C 	C 	0.1368	0.0103	0.6378	-0.107
Mof_C 	C 	0.1898	0.0581	0.5562	0.055
Mof_C 	C 	0.653	0.0389	0.6526	-0.096
Mof_C 	C 	0.6069	0.0046	0.1377	0.042
Mof_C 	C 	0.6526	0.653	0.0389	-0.096
Mof_C 	C 	0.5881	0.1875	0.063	-0.049
Mof_C 	C 	0.5561	0.0572	0.1917	0.071
Mof_O 	O 	0.17162	0.45982	0.29272	-0.505
Mof_O 	O 	0.4589	0.4747	0.2918	-0.316
Mof_O 	O 	0.4993	0.4269	0.2776	-0.227
Mof_O 	O 	0.46392	0.16272	0.46412	-0.453
Mof_O 	O 	0.46412	0.46392	0.16272	-0.453
Mof_O 	O 	0.2776	0.4993	0.4269	-0.227
Mof_O 	O 	0.8494	0.8494	0.8494	-0.975
Mof_O 	O 	0.73318	0.73338	0.02218	-0.493
Mof_O 	O 	0.0285	0.9014	0.7329	-0.454
Mof_O 	O 	0.9015	0.0282	0.734	-0.457
Mof_O 	O 	0.734	0.9015	0.0282	-0.457
Mof_O 	O 	0.9014	0.7329	0.0285	-0.454
Mof_O 	O 	0.2918	0.4589	0.4747	-0.316
Mof_O 	O 	0.29272	0.17162	0.45982	-0.505
Mof_O 	O 	0.16272	0.46412	0.46392	-0.453
Mof_O 	O 	0.0282	0.734	0.9015	-0.457
Mof_O 	O 	0.02218	0.73318	0.73338	-0.493
Mof_O 	O 	0.34954	0.34954	0.34954	-0.954
Mof_O 	O 	0.73338	0.02218	0.73318	-0.493
Mof_O 	O 	0.90009	0.73139	0.73189	-0.505
Mof_O 	O 	0.73139	0.73189	0.90009	-0.505
Mof_O 	O 	0.7329	0.0285	0.9014	-0.454
Mof_O 	O 	0.4269	0.2776	0.4993	-0.227
Mof_O 	O 	0.17164	0.29284	0.45944	-0.505
Mof_O 	O 	0.45944	0.17164	0.29284	-0.505
Mof_O 	O 	0.29284	0.45944	0.17164	-0.505
Mof_O 	O 	0.4747	0.2918	0.4589	-0.316
Mof_O 	O 	0.73189	0.90009	0.73139	-0.505
Mof_O 	O 	0.45982	0.29272	0.17162	-0.505
Mof_Zn	Zn	0.19388	0.02071	0.19386	1.201
Mof_Zn	Zn	0.19386	0.19388	0.02071	1.201
Mof_Zn	Zn	0.60504	0.60504	0.60504	1.211
Mof_Zn	Zn	0.60944	0.60947	0.77917	1.214
Mof_Zn	Zn	0.02071	0.19386	0.19388	1.201
Mof_Zn	Zn	0.1948	0.1948	0.1948	1.208
Mof_Zn	Zn	0.60947	0.77917	0.60944	1.214
Mof_Zn	Zn	0.77917	0.60944	0.60947	1.214
Mof_H 	H 	0.4171	0.9607	0.7521	0.05
Mof_H 	H 	0.4021	0.8473	0.3086	0.026
Mof_H 	H 	0.4839	0.758	0.4043	0.043
Mof_H 	H 	0.9607	0.7521	0.4171	0.05
Mof_H 	H 	0.3879	0.0568	0.8391	0.02
Mof_H 	H 	0.7457	0.4689	0.9687	0.008
Mof_H 	H 	0.4043	0.4839	0.758	0.043
Mof_H 	H 	0.8451	0.3834	0.3247	0.044
Mof_H 	H 	0.4693	0.4148	0.754	0.032
Mof_H 	H 	0.3358	0.8363	0.052	0.068
Mof_H 	H 	0.9607	0.4154	0.7517	0.047
Mof_H 	H 	0.8391	0.3879	0.0568	0.02
Mof_H 	H 	0.9679	0.4695	0.7477	0.014
Mof_H 	H 	0.9687	0.7457	0.4689	0.008
Mof_H 	H 	0.0563	0.3873	0.8396	0.024
Mof_H 	H 	0.4689	0.9687	0.7457	0.008
Mof_H 	H 	0.7521	0.4171	0.9607	0.05
Mof_H 	H 	0.4154	0.7517	0.9607	0.047
Mof_H 	H 	0.0507	0.8375	0.3344	0.073
Mof_H 	H 	0.8363	0.052	0.3358	0.068
Mof_H 	H 	0.4695	0.7477	0.9679	0.014
Mof_H 	H 	0.8473	0.3086	0.4021	0.026
Mof_H 	H 	0.3873	0.8396	0.0563	0.024
Mof_H 	H 	0.7477	0.9679	0.4695	0.014
Mof_H 	H 	0.8396	0.0563	0.3873	0.024
Mof_H 	H 	0.4148	0.754	0.4693	0.032
Mof_H 	H 	0.3344	0.0507	0.8375	0.073
Mof_H 	H 	0.754	0.4693	0.4148	0.032
Mof_H 	H 	0.052	0.3358	0.8363	0.068
Mof_H 	H 	0.758	0.4043	0.4839	0.043
Mof_H 	H 	0.7517	0.9607	0.4154	0.047
Mof_H 	H 	0.8375	0.3344	0.0507	0.073
Mof_H 	H 	0.3247	0.8451	0.3834	0.044
Mof_H 	H 	0.0568	0.8391	0.3879	0.02
Mof_H 	H 	0.3834	0.3247	0.8451	0.044
Mof_H 	H 	0.3086	0.4021	0.8473	0.026
Mof_C 	C 	0.3976	0.4551	0.8199	-0.034
Mof_C 	C 	0.8479	0.4589	0.8474	-0.103
Mof_C 	C 	0.8474	0.8479	0.4589	-0.103
Mof_C 	C 	0.8556	0.4426	0.4686	-0.041
Mof_C 	C 	0.4426	0.4686	0.8556	-0.041
Mof_C 	C 	0.406	0.8163	0.4443	-0.017
Mof_C 	C 	0.4632	0.4468	0.8526	-0.008
Mof_C 	C 	0.5029	0.7941	0.5223	0.241
Mof_C 	C 	0.4443	0.406	0.8163	-0.017
Mof_C 	C 	0.4978	0.5288	0.8038	0.064
Mof_C 	C 	0.9979	0.3753	0.3756	0.041
Mof_C 	C 	0.8133	0.4126	0.9364	-0.065
Mof_C 	C 	0.9888	0.8641	0.3619	-0.122
Mof_C 	C 	0.01772	0.29012	0.28922	0.365
Mof_C 	C 	0.4286	0.4292	0.9453	0.012
Mof_C 	C 	0.8102	0.9419	0.4438	0.055
Mof_C 	C 	0.9546	0.3482	0.9552	-0.01
Mof_C 	C 	0.3556	0.8693	0.3916	-0.037
Mof_C 	C 	0.3931	0.9954	0.8623	0.042
Mof_C 	C 	0.3916	0.3556	0.8693	-0.037
Mof_C 	C 	0.8083	0.4439	0.9428	0.071
Mof_C 	C 	0.5223	0.5029	0.7941	0.241
Mof_C 	C 	0.3929	0.863	0.9949	0.029
Mof_C 	C 	0.9428	0.8083	0.4439	0.071
Mof_C 	C 	0.8526	0.4632	0.4468	-0.008
Mof_C 	C 	0.4686	0.8556	0.4426	-0.041
Mof_C 	C 	0.8163	0.4443	0.406	-0.017
Mof_C 	C 	0.3474	0.347	0.9611	-0.096
Mof_C 	C 	0.4119	0.8125	0.937	-0.049
Mof_C 	C 	0.8693	0.3916	0.3556	-0.037
Mof_C 	C 	0.8199	0.3976	0.4551	-0.034
Mof_C 	C 	0.4126	0.9364	0.8133	-0.065
Mof_C 	C 	0.8632	0.9897	0.3622	-0.107
Mof_C 	C 	0.3753	0.3756	0.9979	0.041
Mof_C 	C 	0.3619	0.9888	0.8641	-0.122
Mof_C 	C 	0.5288	0.8038	0.4978	0.064
Mof_C 	C 	0.8641	0.3619	0.9888	-0.122
Mof_C 	C 	0.0129	0.2862	0.0135	0.239
Mof_C 	C 	0.78985	0.79005	0.51835	0.399
Mof_C 	C 	0.9419	0.4438	0.8102	0.055
Mof_C 	C 	0.9897	0.3622	0.8632	-0.107
Mof_C 	C 	0.4439	0.9428	0.8083	0.071
Mof_C 	C 	0.4551	0.8199	0.3976	-0.034
Mof_C 	C 	0.9611	0.3474	0.347	-0.096
Mof_C 	C 	0.8623	0.3931	0.9954	0.042
Mof_C 	C 	0.3482	0.9552	0.9546	-0.01
Mof_C 	C 	0.4438	0.8102	0.9419	0.055
Mof_C 	C 	0.4589	0.8474	0.8479	-0.103
Mof_C 	C 	0.2862	0.0135	0.0129	0.239
Mof_C 	C 	0.8038	0.4978	0.5288	0.064
Mof_C 	C 	0.9364	0.8133	0.4126	-0.065
Mof_C 	C 	0.29012	0.28922	0.01772	0.365
Mof_C 	C 	0.79005	0.51835	0.78985	0.399
Mof_C 	C 	0.8701	0.3457	0.4028	0.016
Mof_C 	C 	0.347	0.9611	0.3474	-0.096
Mof_C 	C 	0.3756	0.9979	0.3753	0.041
Mof_C 	C 	0.9949	0.3929	0.863	0.029
Mof_C 	C 	0.3457	0.4028	0.8701	0.016
Mof_C 	C 	0.8125	0.937	0.4119	-0.049
Mof_C 	C 	0.9453	0.4286	0.4292	0.012
Mof_C 	C 	0.937	0.4119	0.8125	-0.049
Mof_C 	C 	0.9552	0.9546	0.3482	-0.01
Mof_C 	C 	0.4028	0.8701	0.3457	0.016
Mof_C 	C 	0.9954	0.8623	0.3931	0.042
Mof_C 	C 	0.0135	0.0129	0.2862	0.239
Mof_C 	C 	0.4292	0.9453	0.4286	0.012
Mof_C 	C 	0.3622	0.8632	0.9897	-0.107
Mof_C 	C 	0.7941	0.5223	0.5029	0.241
Mof_C 	C 	0.51835	0.78985	0.79005	0.399
Mof_C 	C 	0.28922	0.01772	0.29012	0.365
Mof_C 	C 	0.4468	0.8526	0.4632	-0.008
Mof_C 	C 	0.863	0.9949	0.3929	0.029
Mof_O 	O 	0.09991	0.26861	0.26811	-0.505
Mof_O 	O 	0.53608	0.83728	0.53588	-0.453
Mof_O 	O 	0.26861	0.26811	0.09991	-0.505
Mof_O 	O 	0.2671	0.9715	0.0986	-0.454
Mof_O 	O 	0.83728	0.53588	0.53608	-0.453
Mof_O 	O 	0.5253	0.7082	0.5411	-0.316
Mof_O 	O 	0.26662	0.97782	0.26682	-0.493
Mof_O 	O 	0.26682	0.26662	0.97782	-0.493
Mof_O 	O 	0.266	0.0985	0.9718	-0.457
Mof_O 	O 	0.82836	0.70716	0.54056	-0.505
Mof_O 	O 	0.70716	0.54056	0.82836	-0.505
Mof_O 	O 	0.82838	0.54018	0.70728	-0.505
Mof_O 	O 	0.97782	0.26682	0.26662	-0.493
Mof_O 	O 	0.9718	0.266	0.0985	-0.457
Mof_O 	O 	0.0985	0.9718	0.266	-0.457
Mof_O 	O 	0.7082	0.5411	0.5253	-0.316
Mof_O 	O 	0.5007	0.5731	0.7224	-0.227
Mof_O 	O 	0.7224	0.5007	0.5731	-0.227
Mof_O 	O 	0.70728	0.82838	0.54018	-0.505
Mof_O 	O 	0.1506	0.1506	0.1506	-0.975
Mof_O 	O 	0.65046	0.65046	0.65046	-0.954
Mof_O 	O 	0.9715	0.0986	0.2671	-0.454
Mof_O 	O 	0.53588	0.53608	0.83728	-0.453
Mof_O 	O 	0.5731	0.7224	0.5007	-0.227
Mof_O 	O 	0.0986	0.2671	0.9715	-0.454
Mof_O 	O 	0.54018	0.70728	0.82838	-0.505
Mof_O 	O 	0.5411	0.5253	0.7082	-0.316
Mof_O 	O 	0.26811	0.09991	0.26861	-0.505
Mof_O 	O 	0.54056	0.82836	0.70716	-0.505
_end
