data_functionalizedCrystal
_audit_creation_method	'EQeq! by Chris Wilmer'
_symmetry_space_group_name_H-M	'P1'
_symmetry_Int_Tables_number	1
_symmetry_cell_setting	triclinic
loop_
_symmetry_equiv_pos_as_xyz
  x,y,z
_cell_length_a	10.8471
_cell_length_b	6.3389
_cell_length_c	16.8839
_cell_angle_alpha	90
_cell_angle_beta	105.592
_cell_angle_gamma	90
loop_
_atom_site_label
_atom_site_type_symbol
_atom_site_fract_x
_atom_site_fract_y
_atom_site_fract_z
_atom_site_charge
Mof_Co	Co	0.03419	0.50306	0.41605	1.079
Mof_O 	O 	0.9446	0.6897	0.4833	-0.935
Mof_O 	O 	0.8599	0.374	0.3452	-0.419
Mof_C 	C 	0.6779	0.258	0.1988	-0.052
Mof_H 	H 	0.7151	0.3904	0.1997	0.057
Mof_C 	C 	0.831	0.1858	0.336	0.38
Mof_C 	C 	0.5366	0.3468	0.0619	0.054
Mof_C 	C 	0.4136	0.4321	0.0408	-0.127
Mof_H 	H 	0.3548	0.3851	0.068	0.054
Mof_C 	C 	0.5775	0.1997	0.1319	0.047
Mof_C 	C 	0.6666	0.9234	0.2606	-0.01
Mof_H 	H 	0.6978	0.8267	0.3026	0.044
Mof_C 	C 	0.7232	0.1194	0.2645	-0.115
Mof_C 	C 	0.5649	0.8682	0.1957	0.071
Mof_H 	H 	0.5265	0.7368	0.1951	0.013
Mof_C 	C 	0.52	0.0056	0.1321	-0.225
Mof_H 	H 	0.4504	0.9681	0.0888	0.131
Mof_O 	O 	0.8849	0.0372	0.3819	-0.418
Mof_C 	C 	0.377	0.5831	0.9811	-0.023
Mof_C 	C 	0.2428	0.6721	0.9644	0.364
Mof_O 	O 	0.1563	0.5334	0.9523	-0.47
Mof_O 	O 	0.2245	0.8618	0.9658	-0.437
Mof_H 	H 	0.88	0.684	0.461	0.495
Mof_Co	Co	0.96581	0.00306	0.08395	1.173
Mof_O 	O 	0.0554	0.1897	0.0167	-1.211
Mof_O 	O 	0.1401	0.874	0.1548	-0.51
Mof_C 	C 	0.3221	0.758	0.3012	-0.038
Mof_H 	H 	0.2849	0.8904	0.3003	0.043
Mof_C 	C 	0.169	0.6858	0.164	0.387
Mof_C 	C 	0.4634	0.8468	0.4381	-0.026
Mof_C 	C 	0.5864	0.9321	0.4592	0.074
Mof_H 	H 	0.6452	0.8851	0.432	0.013
Mof_C 	C 	0.4225	0.6997	0.3681	0.026
Mof_C 	C 	0.3334	0.4234	0.2394	-0.001
Mof_H 	H 	0.3022	0.3267	0.1974	0.013
Mof_C 	C 	0.2768	0.6194	0.2355	-0.124
Mof_C 	C 	0.4351	0.3682	0.3043	-0.052
Mof_H 	H 	0.4735	0.2368	0.3049	0.044
Mof_C 	C 	0.48	0.5056	0.3679	-0.071
Mof_H 	H 	0.5496	0.4681	0.4112	0.066
Mof_O 	O 	0.1151	0.5372	0.1181	-0.51
Mof_C 	C 	0.623	0.0831	0.5189	-0.185
Mof_C 	C 	0.7572	0.1721	0.5356	0.403
Mof_O 	O 	0.8437	0.0334	0.5477	-0.43
Mof_O 	O 	0.7755	0.3618	0.5342	-0.435
Mof_H 	H 	0.12	0.184	0.039	0.569
Mof_Co	Co	0.96581	0.49694	0.58395	1.201
Mof_O 	O 	0.0554	0.3103	0.5167	-1.182
Mof_O 	O 	0.1401	0.626	0.6548	-0.524
Mof_C 	C 	0.3221	0.742	0.8012	0.006
Mof_H 	H 	0.2849	0.6096	0.8003	0.019
Mof_C 	C 	0.169	0.8142	0.664	0.396
Mof_C 	C 	0.4634	0.6532	0.9381	0.007
Mof_C 	C 	0.5864	0.5679	0.9592	0.071
Mof_H 	H 	0.6452	0.6149	0.932	0.018
Mof_C 	C 	0.4225	0.8003	0.8681	-0.047
Mof_C 	C 	0.3334	0.0766	0.7394	0.031
Mof_H 	H 	0.3022	0.1733	0.6974	0.001
Mof_C 	C 	0.2768	0.8806	0.7355	-0.13
Mof_C 	C 	0.4351	0.1318	0.8043	-0.187
Mof_H 	H 	0.4735	0.2632	0.8049	0.1
Mof_C 	C 	0.48	0.9944	0.8679	0.114
Mof_H 	H 	0.5496	0.0319	0.9112	-0.007
Mof_O 	O 	0.1151	0.9628	0.6181	-0.485
Mof_C 	C 	0.623	0.4169	0.0189	-0.183
Mof_C 	C 	0.7572	0.3279	0.0356	0.399
Mof_O 	O 	0.8437	0.4666	0.0477	-0.426
Mof_O 	O 	0.7755	0.1382	0.0342	-0.462
Mof_H 	H 	0.12	0.316	0.539	0.57
Mof_Co	Co	0.03419	0.99694	0.91605	1.101
Mof_O 	O 	0.9446	0.8103	0.9833	-0.899
Mof_O 	O 	0.8599	0.126	0.8452	-0.429
Mof_C 	C 	0.6779	0.242	0.6988	-0.002
Mof_H 	H 	0.7151	0.1096	0.6997	0.032
Mof_C 	C 	0.831	0.3142	0.836	0.389
Mof_C 	C 	0.5366	0.1532	0.5619	0.09
Mof_C 	C 	0.4136	0.0679	0.5408	-0.136
Mof_H 	H 	0.3548	0.1149	0.568	0.06
Mof_C 	C 	0.5775	0.3003	0.6319	-0.035
Mof_C 	C 	0.6666	0.5766	0.7606	0.025
Mof_H 	H 	0.6978	0.6733	0.8026	0.031
Mof_C 	C 	0.7232	0.3806	0.7645	-0.12
Mof_C 	C 	0.5649	0.6318	0.6957	-0.079
Mof_H 	H 	0.5265	0.7632	0.6951	0.074
Mof_C 	C 	0.52	0.4944	0.6321	-0.019
Mof_H 	H 	0.4504	0.5319	0.5888	0.048
Mof_O 	O 	0.8849	0.4628	0.8819	-0.386
Mof_C 	C 	0.377	0.9169	0.4811	-0.019
Mof_C 	C 	0.2428	0.8279	0.4644	0.36
Mof_O 	O 	0.1563	0.9666	0.4523	-0.464
Mof_O 	O 	0.2245	0.6382	0.4658	-0.46
Mof_H 	H 	0.88	0.816	0.961	0.493
Mof_Co	Co	3.70236e-33	0	0.5	1.136
Mof_Co	Co	-0	0.5	-0	1.133
_end
