data_functionalizedCrystal
_audit_creation_method	'EQeq! by Chris Wilmer'
_symmetry_space_group_name_H-M	'P1'
_symmetry_Int_Tables_number	1
_symmetry_cell_setting	triclinic
loop_
_symmetry_equiv_pos_as_xyz
  x,y,z
_cell_length_a	8.303
_cell_length_b	8.303
_cell_length_c	20.334
_cell_angle_alpha	90
_cell_angle_beta	90
_cell_angle_gamma	120
loop_
_atom_site_label
_atom_site_type_symbol
_atom_site_fract_x
_atom_site_fract_y
_atom_site_fract_z
_atom_site_charge
Mof_Co	Co	0.42224	0.28532	0.00066	1.084
Mof_Co	Co	0.86308	0.57776	0.00066	1.106
Mof_Co	Co	0.71468	0.13692	0.00066	1.069
Mof_Co	Co	0.13692	0.71468	0.49934	1.07
Mof_Co	Co	0.28532	0.42224	0.49934	1.084
Mof_Co	Co	0.57776	0.86308	0.49934	1.107
Mof_Co	Co	0.57776	0.71468	0.99934	1.091
Mof_Co	Co	0.13692	0.42224	0.99934	1.067
Mof_Co	Co	0.28532	0.86308	0.99934	1.104
Mof_Co	Co	0.86308	0.28532	0.50066	1.106
Mof_Co	Co	0.71468	0.57776	0.50066	1.091
Mof_Co	Co	0.42224	0.13692	0.50066	1.067
Mof_Co	Co	2.59918e-33	0	0.08472	1.087
Mof_Co	Co	-0	-2.07935e-32	0.41528	1.086
Mof_Co	Co	-0	-4.15869e-32	0.91528	1.088
Mof_Co	Co	-0	0	0.58472	1.086
Mof_H 	H 	0.305	0.085	0.09	0.378
Mof_H 	H 	0.4773	0.1028	0.9034	0.11
Mof_H 	H 	0.1511	0.8735	0.2066	0.079
Mof_H 	H 	0.9425	0.7304	0.1899	0.082
Mof_H 	H 	0.78	0.695	0.09	0.369
Mof_H 	H 	0.6255	0.5227	0.9034	0.127
Mof_H 	H 	0.7224	0.8489	0.2066	-0.12
Mof_H 	H 	0.7879	0.0575	0.1899	-0.191
Mof_H 	H 	0.915	0.22	0.09	0.378
Mof_H 	H 	0.8972	0.3745	0.9034	0.138
Mof_H 	H 	0.1265	0.2776	0.2066	-0.032
Mof_H 	H 	0.2696	0.2121	0.1899	-0.045
Mof_H 	H 	0.22	0.915	0.41	0.378
Mof_H 	H 	0.3745	0.8972	0.5966	0.137
Mof_H 	H 	0.2776	0.1265	0.2934	-0.032
Mof_H 	H 	0.2121	0.2696	0.3101	-0.045
Mof_H 	H 	0.085	0.305	0.41	0.379
Mof_H 	H 	0.1028	0.4773	0.5966	0.109
Mof_H 	H 	0.8735	0.1511	0.2934	0.084
Mof_H 	H 	0.7304	0.9425	0.3101	0.092
Mof_H 	H 	0.695	0.78	0.41	0.369
Mof_H 	H 	0.5227	0.6255	0.5966	0.127
Mof_H 	H 	0.8489	0.7224	0.2934	-0.113
Mof_H 	H 	0.0575	0.7879	0.3101	-0.182
Mof_H 	H 	0.695	0.915	0.91	0.372
Mof_H 	H 	0.5227	0.8972	0.0966	0.139
Mof_H 	H 	0.8489	0.1265	0.7934	-0.141
Mof_H 	H 	0.0575	0.2696	0.8101	-0.208
Mof_H 	H 	0.22	0.305	0.91	0.382
Mof_H 	H 	0.3745	0.4773	0.0966	0.122
Mof_H 	H 	0.2776	0.1511	0.7934	0.081
Mof_H 	H 	0.2121	0.9425	0.8101	0.104
Mof_H 	H 	0.085	0.78	0.91	0.371
Mof_H 	H 	0.1028	0.6255	0.0966	0.113
Mof_H 	H 	0.8735	0.7224	0.7934	-0.013
Mof_H 	H 	0.7304	0.7879	0.8101	-0.051
Mof_H 	H 	0.78	0.085	0.59	0.371
Mof_H 	H 	0.6255	0.1028	0.4034	0.112
Mof_H 	H 	0.7224	0.8735	0.7066	-0.013
Mof_H 	H 	0.7879	0.7304	0.6899	-0.05
Mof_H 	H 	0.915	0.695	0.59	0.373
Mof_H 	H 	0.8972	0.5227	0.4034	0.138
Mof_H 	H 	0.1265	0.8489	0.7066	-0.136
Mof_H 	H 	0.2696	0.0575	0.6899	-0.198
Mof_H 	H 	0.305	0.22	0.59	0.383
Mof_H 	H 	0.4773	0.3745	0.4034	0.122
Mof_H 	H 	0.1511	0.2776	0.7066	0.087
Mof_H 	H 	0.9425	0.2121	0.6899	0.114
Mof_C 	C 	0.0238	0.8453	0.2129	-0.297
Mof_C 	C 	0.8215	0.9762	0.2129	0.365
Mof_C 	C 	0.1547	0.1785	0.2129	-0.048
Mof_C 	C 	0.1785	0.1547	0.2871	-0.049
Mof_C 	C 	0.8453	0.0238	0.2871	-0.322
Mof_C 	C 	0.9762	0.8215	0.2871	0.343
Mof_C 	C 	0.9762	0.1547	0.7871	0.37
Mof_C 	C 	0.1785	0.0238	0.7871	-0.39
Mof_C 	C 	0.8453	0.8215	0.7871	0.042
Mof_C 	C 	0.8215	0.8453	0.7129	0.041
Mof_C 	C 	0.1547	0.9762	0.7129	0.345
Mof_C 	C 	0.0238	0.1785	0.7129	-0.412
Mof_N 	N 	-0	-1.03967e-32	0.1855	-0.312
Mof_N 	N 	-1.03967e-32	0	0.3145	-0.307
Mof_N 	N 	4.15869e-32	4.15869e-32	0.8145	-0.312
Mof_N 	N 	-0	-4.15869e-32	0.6855	-0.306
Mof_O 	O 	0.2499	0.0535	0.0595	-1.062
Mof_O 	O 	0.4771	0.1016	0.95262	-0.789
Mof_O 	O 	0.8036	0.7501	0.0595	-0.97
Mof_O 	O 	0.6245	0.5229	0.95262	-0.764
Mof_O 	O 	0.9465	0.1964	0.0595	-0.992
Mof_O 	O 	0.8984	0.3755	0.95262	-0.744
Mof_O 	O 	0.1964	0.9465	0.4405	-0.988
Mof_O 	O 	0.3755	0.8984	0.54738	-0.748
Mof_O 	O 	0.0535	0.2499	0.4405	-1.062
Mof_O 	O 	0.1016	0.4771	0.54738	-0.792
Mof_O 	O 	0.7501	0.8036	0.4405	-0.97
Mof_O 	O 	0.5229	0.6245	0.54738	-0.765
Mof_O 	O 	0.7501	0.9465	0.9405	-0.956
Mof_O 	O 	0.5229	0.8984	0.04738	-0.742
Mof_O 	O 	0.1964	0.2499	0.9405	-1.046
Mof_O 	O 	0.3755	0.4771	0.04738	-0.771
Mof_O 	O 	0.0535	0.8036	0.9405	-1.022
Mof_O 	O 	0.1016	0.6245	0.04738	-0.785
Mof_O 	O 	0.8036	0.0535	0.5595	-1.018
Mof_O 	O 	0.6245	0.1016	0.45262	-0.788
Mof_O 	O 	0.9465	0.7501	0.5595	-0.956
Mof_O 	O 	0.8984	0.5229	0.45262	-0.745
Mof_O 	O 	0.2499	0.1964	0.5595	-1.047
Mof_O 	O 	0.4771	0.3755	0.45262	-0.772
_end
