data_functionalizedCrystal
_audit_creation_method	'EQeq! by Chris Wilmer'
_symmetry_space_group_name_H-M	'P1'
_symmetry_Int_Tables_number	1
_symmetry_cell_setting	triclinic
loop_
_symmetry_equiv_pos_as_xyz
  x,y,z
_cell_length_a	10.8308
_cell_length_b	10.8308
_cell_length_c	19.557
_cell_angle_alpha	75.6925
_cell_angle_beta	75.6925
_cell_angle_gamma	64.7067
loop_
_atom_site_label
_atom_site_type_symbol
_atom_site_fract_x
_atom_site_fract_y
_atom_site_fract_z
_atom_site_charge
Mof_Yb	Yb	0.59575	0.25461	0.08293	1.591
Mof_Yb	Yb	0.74539	0.40425	0.41707	1.591
Mof_Yb	Yb	0.40425	0.74539	0.91707	1.59
Mof_Yb	Yb	0.25461	0.59575	0.58293	1.59
Mof_H 	H 	0.514	0.344	0.327	0.014
Mof_H 	H 	0.223	0.313	0.284	0.011
Mof_H 	H 	0.174	0.4	0.471	0.027
Mof_H 	H 	0.656	0.486	0.173	0.014
Mof_H 	H 	0.687	0.777	0.216	0.009
Mof_H 	H 	0.6	0.826	0.029	0.027
Mof_H 	H 	0.486	0.656	0.673	0.014
Mof_H 	H 	0.777	0.687	0.716	0.011
Mof_H 	H 	0.826	0.6	0.529	0.027
Mof_H 	H 	0.344	0.514	0.827	0.014
Mof_H 	H 	0.313	0.223	0.784	0.009
Mof_H 	H 	0.4	0.174	0.971	0.027
Mof_C 	C 	0.454	0.295	0.2172	0.344
Mof_C 	C 	0.3743	0.3207	0.2892	-0.146
Mof_C 	C 	0.4302	0.3472	0.3383	0.098
Mof_C 	C 	0.3532	0.3774	0.4056	-0.199
Mof_C 	C 	0.2206	0.3822	0.4227	0.097
Mof_C 	C 	0.1636	0.3552	0.3748	-0.148
Mof_C 	C 	0.2411	0.3259	0.3081	0.094
Mof_C 	C 	0.017	0.3662	0.3927	0.346
Mof_C 	C 	0.4153	0.4083	0.4567	0.48
Mof_C 	C 	0.705	0.546	0.2828	0.344
Mof_C 	C 	0.6793	0.6257	0.2108	-0.147
Mof_C 	C 	0.6528	0.5698	0.1617	0.099
Mof_C 	C 	0.6226	0.6468	0.0944	-0.199
Mof_C 	C 	0.6178	0.7794	0.0773	0.097
Mof_C 	C 	0.6448	0.8364	0.1252	-0.148
Mof_C 	C 	0.6741	0.7589	0.1919	0.096
Mof_C 	C 	0.6338	0.983	0.1073	0.341
Mof_C 	C 	0.5917	0.5847	0.0433	0.479
Mof_C 	C 	0.546	0.705	0.7828	0.344
Mof_C 	C 	0.6257	0.6793	0.7108	-0.146
Mof_C 	C 	0.5698	0.6528	0.6617	0.098
Mof_C 	C 	0.6468	0.6226	0.5944	-0.199
Mof_C 	C 	0.7794	0.6178	0.5773	0.097
Mof_C 	C 	0.8364	0.6448	0.6252	-0.148
Mof_C 	C 	0.7589	0.6741	0.6919	0.094
Mof_C 	C 	0.983	0.6338	0.6073	0.346
Mof_C 	C 	0.5847	0.5917	0.5433	0.48
Mof_C 	C 	0.295	0.454	0.7172	0.344
Mof_C 	C 	0.3207	0.3743	0.7892	-0.147
Mof_C 	C 	0.3472	0.4302	0.8383	0.099
Mof_C 	C 	0.3774	0.3532	0.9056	-0.199
Mof_C 	C 	0.3822	0.2206	0.9227	0.097
Mof_C 	C 	0.3552	0.1636	0.8748	-0.148
Mof_C 	C 	0.3259	0.2411	0.8081	0.096
Mof_C 	C 	0.3662	0.017	0.8927	0.341
Mof_C 	C 	0.4083	0.4153	0.9567	0.479
Mof_O 	O 	0.5789	0.2811	0.2029	-0.388
Mof_O 	O 	0.3965	0.2895	0.1702	-0.385
Mof_O 	O 	0.9711	0.3279	0.3512	-0.411
Mof_O 	O 	0.9398	0.4112	0.4466	-0.422
Mof_O 	O 	0.5286	0.4214	0.4332	-0.523
Mof_O 	O 	0.3499	0.4197	0.5182	-0.479
Mof_O 	O 	0.7189	0.4211	0.2971	-0.388
Mof_O 	O 	0.7105	0.6035	0.3298	-0.385
Mof_O 	O 	0.6721	0.0289	0.1488	-0.408
Mof_O 	O 	0.5888	0.0602	0.0534	-0.42
Mof_O 	O 	0.5786	0.4714	0.0668	-0.523
Mof_O 	O 	0.5803	0.6501	0.9818	-0.479
Mof_O 	O 	0.4211	0.7189	0.7971	-0.388
Mof_O 	O 	0.6035	0.7105	0.8298	-0.385
Mof_O 	O 	0.0289	0.6721	0.6488	-0.411
Mof_O 	O 	0.0602	0.5888	0.5534	-0.422
Mof_O 	O 	0.4714	0.5786	0.5668	-0.523
Mof_O 	O 	0.6501	0.5803	0.4818	-0.479
Mof_O 	O 	0.2811	0.5789	0.7029	-0.388
Mof_O 	O 	0.2895	0.3965	0.6702	-0.385
Mof_O 	O 	0.3279	0.9711	0.8512	-0.408
Mof_O 	O 	0.4112	0.9398	0.9466	-0.42
Mof_O 	O 	0.4214	0.5286	0.9332	-0.523
Mof_O 	O 	0.4197	0.3499	0.0182	-0.479
_end
