data_functionalizedCrystal
_audit_creation_method	'EQeq! by Chris Wilmer'
_symmetry_space_group_name_H-M	'P1'
_symmetry_Int_Tables_number	1
_symmetry_cell_setting	triclinic
loop_
_symmetry_equiv_pos_as_xyz
  x,y,z
_cell_length_a	14.5154
_cell_length_b	39.356
_cell_length_c	21.629
_cell_angle_alpha	90
_cell_angle_beta	90
_cell_angle_gamma	90
loop_
_atom_site_label
_atom_site_type_symbol
_atom_site_fract_x
_atom_site_fract_y
_atom_site_fract_z
_atom_site_charge
Mof_Zn	Zn	0.10165	0.11053	0.58176	1.187
Mof_Zn	Zn	0.26639	0.15079	0.67029	1.191
Mof_Zn	Zn	0.19079	0.62691	0.47329	1.223
Mof_Zn	Zn	0.69079	0.87309	0.47329	1.223
Mof_Zn	Zn	0.60165	0.61053	0.91824	1.187
Mof_Zn	Zn	0.76639	0.34921	0.67029	1.191
Mof_Zn	Zn	0.80921	0.37309	0.52671	1.224
Mof_Zn	Zn	0.76639	0.65079	0.82971	1.192
Mof_Zn	Zn	0.73361	0.15079	0.17029	1.192
Mof_Zn	Zn	0.39835	0.61053	0.41824	1.188
Mof_Zn	Zn	0.89835	0.88947	0.41824	1.188
Mof_Zn	Zn	0.39835	0.38947	0.08176	1.188
Mof_Zn	Zn	0.19079	0.37309	0.02671	1.224
Mof_Zn	Zn	0.69079	0.12691	0.02671	1.224
Mof_Zn	Zn	0.80921	0.62691	0.97329	1.224
Mof_Zn	Zn	0.23361	0.34921	0.17029	1.192
Mof_Zn	Zn	0.26639	0.84921	0.82971	1.192
Mof_Zn	Zn	0.73361	0.84921	0.32971	1.192
Mof_Zn	Zn	0.23361	0.65079	0.32971	1.192
Mof_Zn	Zn	0.30921	0.12691	0.52671	1.224
Mof_Zn	Zn	0.60165	0.38947	0.58176	1.188
Mof_Zn	Zn	0.10165	0.88947	0.91824	1.188
Mof_Zn	Zn	0.30921	0.87309	0.97329	1.224
Mof_Zn	Zn	0.89835	0.11053	0.08176	1.188
Mof_B 	B 	0.4991	0.2739	0.0206	0.181
Mof_B 	B 	0.461	0.02067	0.0633	0.163
Mof_B 	B 	0.5265	0.65935	0.6711	0.638
Mof_B 	B 	0.961	0.52067	0.4367	0.163
Mof_B 	B 	0.0667	0.88193	0.6597	-0.512
Mof_B 	B 	0.0731	0.84243	0.2187	0.351
Mof_B 	B 	0.4147	0.33754	0.8617	-0.199
Mof_B 	B 	0.1181	0.0923	0.3346	-0.247
Mof_B 	B 	0.539	0.02067	0.5633	0.163
Mof_B 	B 	0.395	0.25041	0.0287	0.201
Mof_B 	B 	0.5731	0.34243	0.2813	0.352
Mof_B 	B 	0.8745	0.74362	0.3908	0.272
Mof_B 	B 	0.0345	0.71934	0.8607	0.287
Mof_B 	B 	0.4543	0.03904	0.9879	0.342
Mof_B 	B 	0.6255	0.24362	0.6092	0.273
Mof_B 	B 	0.0006	0.72961	0.9909	0.359
Mof_B 	B 	0.91	0.25083	0.5501	0.174
Mof_B 	B 	0.9735	0.84065	0.1711	0.638
Mof_B 	B 	0.4543	0.96096	0.5121	0.341
Mof_B 	B 	0.4269	0.34243	0.7813	0.352
Mof_B 	B 	0.9991	0.2261	0.0206	0.181
Mof_B 	B 	0.0604	0.49379	0.4341	0.156
Mof_B 	B 	0.5006	0.22961	0.5091	0.357
Mof_B 	B 	0.405	0.38679	0.764	-0.03
Mof_B 	B 	0.539	0.97933	0.9367	0.163
Mof_B 	B 	0.4315	0.75729	0.8688	0.161
Mof_B 	B 	0.992	0.08946	0.8002	1.006
Mof_B 	B 	0.9269	0.15757	0.7813	0.351
Mof_B 	B 	0.1152	0.50355	0.9929	0.255
Mof_B 	B 	0.9577	0.78187	0.9037	0.392
Mof_B 	B 	0.5853	0.33754	0.3617	-0.199
Mof_B 	B 	0.5185	0.5947	0.1192	0.532
Mof_B 	B 	0.6152	0.99645	0.9929	0.254
Mof_B 	B 	0.0776	0.71092	0.9369	0.168
Mof_B 	B 	0.9506	0.52412	0.0555	0.288
Mof_B 	B 	0.0009	0.7739	0.9794	0.181
Mof_B 	B 	0.8745	0.25638	0.1092	0.273
Mof_B 	B 	0.008	0.91054	0.1998	1.006
Mof_B 	B 	0.1181	0.9077	0.1654	-0.247
Mof_B 	B 	0.508	0.58946	0.1998	1.008
Mof_B 	B 	0.4815	0.5947	0.6192	0.532
Mof_B 	B 	0.0853	0.16246	0.3617	-0.199
Mof_B 	B 	0.09	0.25083	0.0501	0.173
Mof_B 	B 	0.0025	0.86186	0.601	0.412
Mof_B 	B 	0.039	0.47933	0.5633	0.163
Mof_B 	B 	0.5685	0.75729	0.3688	0.162
Mof_B 	B 	0.9815	0.9053	0.6192	0.531
Mof_B 	B 	0.1591	0.86589	0.1779	0.594
Mof_B 	B 	0.6591	0.36589	0.3221	0.594
Mof_B 	B 	0.8848	0.49645	0.0071	0.255
Mof_B 	B 	0.5009	0.2739	0.5206	0.184
Mof_B 	B 	0.9396	0.49379	0.9341	0.156
Mof_B 	B 	0.0348	0.23646	0.65006	0.279
Mof_B 	B 	0.9975	0.86186	0.101	0.412
Mof_B 	B 	0.0185	0.9053	0.1192	0.532
Mof_B 	B 	0.0667	0.11807	0.8403	-0.512
Mof_B 	B 	0.9506	0.47588	0.4445	0.287
Mof_B 	B 	0.4975	0.63814	0.101	0.411
Mof_B 	B 	0.09	0.74917	0.4499	0.174
Mof_B 	B 	0.4269	0.65757	0.7187	0.352
Mof_B 	B 	0.0265	0.15935	0.8289	0.638
Mof_B 	B 	0.9147	0.83754	0.6383	-0.199
Mof_B 	B 	0.4994	0.77039	0.4909	0.357
Mof_B 	B 	0.59	0.75083	0.4499	0.174
Mof_B 	B 	0.9991	0.7739	0.4794	0.184
Mof_B 	B 	0.5185	0.4053	0.3808	0.532
Mof_B 	B 	0.1591	0.13411	0.3221	0.594
Mof_B 	B 	0.5025	0.36186	0.899	0.411
Mof_B 	B 	0.605	0.74959	0.9713	0.201
Mof_B 	B 	0.095	0.88679	0.236	-0.029
Mof_B 	B 	0.9315	0.74271	0.8688	0.161
Mof_B 	B 	0.0494	0.52412	0.5555	0.287
Mof_B 	B 	0.9396	0.50621	0.5659	0.156
Mof_B 	B 	0.5853	0.66246	0.1383	-0.199
Mof_B 	B 	0.9333	0.11807	0.3403	-0.512
Mof_B 	B 	0.9975	0.13814	0.399	0.412
Mof_B 	B 	0.4735	0.34065	0.3289	0.638
Mof_B 	B 	0.9315	0.25729	0.6312	0.162
Mof_B 	B 	0.4655	0.21934	0.1393	0.285
Mof_B 	B 	0.91	0.74917	0.9499	0.173
Mof_B 	B 	0.5025	0.63814	0.601	0.411
Mof_B 	B 	0.3409	0.63411	0.6779	0.594
Mof_B 	B 	0.8409	0.13411	0.8221	0.594
Mof_B 	B 	0.0265	0.84065	0.6711	0.638
Mof_B 	B 	0.5348	0.26354	0.65006	0.279
Mof_B 	B 	0.895	0.75041	0.4713	0.202
Mof_B 	B 	0.492	0.41054	0.8002	1.008
Mof_B 	B 	0.0345	0.28066	0.6393	0.284
Mof_B 	B 	0.3848	0.00355	0.0071	0.254
Mof_B 	B 	0.5776	0.78908	0.9369	0.169
Mof_B 	B 	0.0423	0.21813	0.0963	0.392
Mof_B 	B 	0.9994	0.72961	0.4909	0.357
Mof_B 	B 	0.5667	0.61807	0.6597	-0.512
Mof_B 	B 	0.9147	0.16246	0.8617	-0.199
Mof_B 	B 	0.5457	0.03904	0.4879	0.341
Mof_B 	B 	0.4333	0.61807	0.1597	-0.512
Mof_B 	B 	0.4652	0.26354	0.15006	0.276
Mof_B 	B 	0.0604	0.50621	0.0659	0.156
Mof_B 	B 	0.9543	0.46096	0.9879	0.34
Mof_B 	B 	0.0457	0.53904	0.0121	0.34
Mof_B 	B 	0.0006	0.27039	0.5091	0.357
Mof_B 	B 	0.5494	0.97588	0.5555	0.287
Mof_B 	B 	0.595	0.61321	0.236	-0.03
Mof_B 	B 	0.41	0.75083	0.9499	0.174
Mof_B 	B 	0.4577	0.71813	0.9037	0.392
Mof_B 	B 	0.6181	0.4077	0.3346	-0.247
Mof_B 	B 	0.008	0.08946	0.3002	1.007
Mof_B 	B 	0.0776	0.28908	0.5631	0.17
Mof_B 	B 	0.905	0.88679	0.736	-0.03
Mof_B 	B 	0.4577	0.28187	0.5963	0.389
Mof_B 	B 	0.3819	0.5923	0.6654	-0.247
Mof_B 	B 	0.105	0.75041	0.9713	0.202
Mof_B 	B 	0.0348	0.76354	0.84994	0.276
Mof_B 	B 	0.1152	0.49645	0.5071	0.255
Mof_B 	B 	0.8848	0.50355	0.4929	0.255
Mof_B 	B 	0.095	0.11321	0.264	-0.03
Mof_B 	B 	0.0009	0.2261	0.5206	0.184
Mof_B 	B 	0.4224	0.78908	0.4369	0.17
Mof_B 	B 	0.105	0.24959	0.5287	0.202
Mof_B 	B 	0.4506	0.97588	0.0555	0.287
Mof_B 	B 	0.9333	0.88193	0.1597	-0.512
Mof_B 	B 	0.9815	0.0947	0.8808	0.532
Mof_B 	B 	0.039	0.52067	0.9367	0.164
Mof_B 	B 	0.5604	0.00621	0.4341	0.156
Mof_B 	B 	0.961	0.47933	0.0633	0.164
Mof_B 	B 	0.492	0.58946	0.6998	1.008
Mof_B 	B 	0.3848	0.99645	0.4929	0.255
Mof_B 	B 	0.8819	0.9077	0.6654	-0.247
Mof_B 	B 	0.0685	0.25729	0.1312	0.161
Mof_B 	B 	0.6181	0.5923	0.1654	-0.247
Mof_B 	B 	0.59	0.24917	0.0501	0.174
Mof_B 	B 	0.3819	0.4077	0.8346	-0.247
Mof_B 	B 	0.8409	0.86589	0.6779	0.594
Mof_B 	B 	0.0494	0.47588	0.9445	0.288
Mof_B 	B 	0.9269	0.84243	0.7187	0.351
Mof_B 	B 	0.605	0.25041	0.5287	0.201
Mof_B 	B 	0.905	0.11321	0.764	-0.029
Mof_B 	B 	0.4991	0.7261	0.4794	0.184
Mof_B 	B 	0.4396	0.00621	0.9341	0.157
Mof_B 	B 	0.5731	0.65757	0.2187	0.352
Mof_B 	B 	0.5776	0.21092	0.5631	0.17
Mof_B 	B 	0.0853	0.83754	0.1383	-0.199
Mof_B 	B 	0.6591	0.63411	0.1779	0.594
Mof_B 	B 	0.5009	0.7261	0.9794	0.181
Mof_B 	B 	0.9655	0.71934	0.3607	0.284
Mof_B 	B 	0.41	0.24917	0.5501	0.174
Mof_B 	B 	0.9543	0.53904	0.5121	0.341
Mof_B 	B 	0.8819	0.0923	0.8346	-0.247
Mof_B 	B 	0.895	0.24959	0.0287	0.202
Mof_B 	B 	0.4652	0.73646	0.34994	0.279
Mof_B 	B 	0.4975	0.36186	0.399	0.411
Mof_B 	B 	0.4994	0.22961	0.0091	0.357
Mof_B 	B 	0.395	0.74959	0.4713	0.201
Mof_B 	B 	0.405	0.61321	0.736	-0.03
Mof_B 	B 	0.9224	0.28908	0.0631	0.168
Mof_B 	B 	0.0457	0.46096	0.4879	0.341
Mof_B 	B 	0.595	0.38679	0.264	-0.03
Mof_B 	B 	0.3409	0.36589	0.8221	0.594
Mof_B 	B 	0.0423	0.78187	0.4037	0.389
Mof_B 	B 	0.0731	0.15757	0.2813	0.351
Mof_B 	B 	0.0685	0.74271	0.3688	0.162
Mof_B 	B 	0.0185	0.0947	0.3808	0.531
Mof_B 	B 	0.4735	0.65935	0.1711	0.638
Mof_B 	B 	0.1255	0.74362	0.8908	0.273
Mof_B 	B 	0.5685	0.24271	0.1312	0.161
Mof_B 	B 	0.5423	0.28187	0.0963	0.392
Mof_B 	B 	0.5265	0.34065	0.8289	0.638
Mof_B 	B 	0.0025	0.13814	0.899	0.412
Mof_B 	B 	0.3745	0.75638	0.3908	0.273
Mof_B 	B 	0.9735	0.15935	0.3289	0.638
Mof_B 	B 	0.9994	0.27039	0.0091	0.359
Mof_B 	B 	0.9652	0.23646	0.15006	0.276
Mof_B 	B 	0.5494	0.02412	0.9445	0.287
Mof_B 	B 	0.4815	0.4053	0.8808	0.532
Mof_B 	B 	0.5423	0.71813	0.4037	0.389
Mof_B 	B 	0.5006	0.77039	0.9909	0.357
Mof_B 	B 	0.4315	0.24271	0.6312	0.162
Mof_B 	B 	0.5457	0.96096	0.0121	0.342
Mof_B 	B 	0.992	0.91054	0.6998	1.007
Mof_B 	B 	0.9224	0.71092	0.4369	0.17
Mof_B 	B 	0.6255	0.75638	0.8908	0.273
Mof_B 	B 	0.5345	0.21934	0.6393	0.283
Mof_B 	B 	0.5345	0.78066	0.8607	0.285
Mof_B 	B 	0.4333	0.38193	0.3403	-0.512
Mof_B 	B 	0.9652	0.76354	0.34994	0.279
Mof_B 	B 	0.5348	0.73646	0.84994	0.276
Mof_B 	B 	0.4506	0.02412	0.4445	0.287
Mof_B 	B 	0.508	0.41054	0.3002	1.008
Mof_B 	B 	0.3745	0.24362	0.1092	0.273
Mof_B 	B 	0.9655	0.28066	0.1393	0.287
Mof_B 	B 	0.5667	0.38193	0.8403	-0.512
Mof_B 	B 	0.461	0.97933	0.4367	0.163
Mof_B 	B 	0.4224	0.21092	0.0631	0.169
Mof_B 	B 	0.4655	0.78066	0.3607	0.283
Mof_B 	B 	0.1255	0.25638	0.6092	0.272
Mof_B 	B 	0.6152	0.00355	0.5071	0.255
Mof_B 	B 	0.4147	0.66246	0.6383	-0.199
Mof_B 	B 	0.5604	0.99379	0.0659	0.157
Mof_B 	B 	0.9577	0.21813	0.5963	0.389
Mof_B 	B 	0.4396	0.99379	0.5659	0.156
Mof_H 	H 	0.02	0.1529	0.94	-0.19
Mof_H 	H 	0.127	0.2629	0.159	-0.113
Mof_H 	H 	0.925	0.1801	0.319	-0.246
Mof_H 	H 	0.575	0.3199	0.819	-0.246
Mof_H 	H 	0.189	0.2525	0.6311	-0.143
Mof_H 	H 	0.52	0.6529	0.56	-0.19
Mof_H 	H 	0.339	0.5733	0.659	0.022
Mof_H 	H 	0.481	0.2162	0.47	-0.166
Mof_H 	H 	0.995	0.7941	0.012	-0.112
Mof_H 	H 	0.935	0.4635	0.107	-0.102
Mof_H 	H 	0.077	0.8036	0.397	-0.204
Mof_H 	H 	0.311	0.2475	0.1311	-0.144
Mof_H 	H 	0.431	0.9374	0.516	-0.185
Mof_H 	H 	0.26	0.3619	0.824	-0.192
Mof_H 	H 	0.95	0.7748	0.312	-0.172
Mof_H 	H 	0.811	0.2525	0.1311	-0.144
Mof_H 	H 	0.519	0.2162	0.97	-0.165
Mof_H 	H 	0.52	0.3471	0.94	-0.19
Mof_H 	H 	0.839	0.0733	0.841	0.022
Mof_H 	H 	0.597	0.8127	0.956	-0.119
Mof_H 	H 	0.065	0.4635	0.607	-0.102
Mof_H 	H 	0.74	0.6381	0.176	-0.192
Mof_H 	H 	0.87	0.1174	0.346	0.114
Mof_H 	H 	0.005	0.2059	0.988	-0.112
Mof_H 	H 	0.495	0.7059	0.012	-0.112
Mof_H 	H 	0.898	0.8165	0.612	0.003
Mof_H 	H 	0.602	0.6835	0.112	0.003
Mof_H 	H 	0.527	0.576	0.094	-0.273
Mof_H 	H 	0.005	0.7941	0.512	-0.113
Mof_H 	H 	0.63	0.3826	0.846	0.114
Mof_H 	H 	0.889	0.1043	0.723	-0.059
Mof_H 	H 	0.462	0.7989	0.327	-0.157
Mof_H 	H 	0.903	0.3127	0.044	-0.118
Mof_H 	H 	0.102	0.1835	0.388	0.003
Mof_H 	H 	0.111	0.1043	0.223	-0.059
Mof_H 	H 	0.923	0.8036	0.897	-0.205
Mof_H 	H 	0.37	0.6174	0.154	0.114
Mof_H 	H 	0.74	0.3619	0.324	-0.192
Mof_H 	H 	0.373	0.7629	0.841	-0.114
Mof_H 	H 	0.538	0.7989	0.827	-0.158
Mof_H 	H 	0.584	0.0401	0.915	-0.154
Mof_H 	H 	0.627	0.2371	0.159	-0.114
Mof_H 	H 	0.335	0.7434	0.506	-0.109
Mof_H 	H 	0.389	0.3957	0.723	-0.059
Mof_H 	H 	0.246	0.589	0.394	0.115
Mof_H 	H 	0.903	0.6873	0.456	-0.119
Mof_H 	H 	0.577	0.3036	0.103	-0.205
Mof_H 	H 	0.102	0.8165	0.112	0.003
Mof_H 	H 	0.505	0.2941	0.988	-0.112
Mof_H 	H 	0.189	0.7475	0.8689	-0.144
Mof_H 	H 	0.565	0.9635	0.893	-0.102
Mof_H 	H 	0.76	0.1381	0.824	-0.193
Mof_H 	H 	0.097	0.3127	0.544	-0.119
Mof_H 	H 	0.981	0.2838	0.47	-0.166
Mof_H 	H 	0.416	0.9599	0.085	-0.154
Mof_H 	H 	0.481	0.7838	0.03	-0.165
Mof_H 	H 	0.55	0.2748	0.688	-0.172
Mof_H 	H 	0.889	0.8957	0.777	-0.059
Mof_H 	H 	0.611	0.3957	0.223	-0.059
Mof_H 	H 	0.022	0.9314	0.713	-0.442
Mof_H 	H 	0.084	0.4599	0.915	-0.154
Mof_H 	H 	0.907	0.8268	0.752	-0.202
Mof_H 	H 	0.916	0.4599	0.415	-0.154
Mof_H 	H 	0.873	0.2629	0.659	-0.114
Mof_H 	H 	0.601	0.9956	0.111	-0.09
Mof_H 	H 	0.075	0.8199	0.681	-0.246
Mof_H 	H 	0.577	0.6964	0.397	-0.203
Mof_H 	H 	0.161	0.9267	0.159	0.022
Mof_H 	H 	0.995	0.2059	0.488	-0.113
Mof_H 	H 	0.661	0.2463	0.0348	-0.107
Mof_H 	H 	0.839	0.9267	0.659	0.022
Mof_H 	H 	0.431	0.0626	0.984	-0.185
Mof_H 	H 	0.473	0.424	0.906	-0.273
Mof_H 	H 	0.962	0.2989	0.173	-0.158
Mof_H 	H 	0.24	0.1381	0.324	-0.193
Mof_H 	H 	0.978	0.9314	0.213	-0.441
Mof_H 	H 	0.746	0.911	0.394	0.115
Mof_H 	H 	0.161	0.2537	0.0348	-0.107
Mof_H 	H 	0.597	0.1873	0.544	-0.119
Mof_H 	H 	0.05	0.2252	0.688	-0.172
Mof_H 	H 	0.602	0.3165	0.388	0.003
Mof_H 	H 	0.403	0.1873	0.044	-0.119
Mof_H 	H 	0.873	0.7371	0.841	-0.113
Mof_H 	H 	0.407	0.6732	0.752	-0.202
Mof_H 	H 	0.254	0.911	0.894	0.115
Mof_H 	H 	0.627	0.7629	0.341	-0.114
Mof_H 	H 	0.399	0.0044	0.889	-0.09
Mof_H 	H 	0.962	0.7011	0.327	-0.157
Mof_H 	H 	0.661	0.7537	0.4652	-0.107
Mof_H 	H 	0.907	0.1732	0.748	-0.202
Mof_H 	H 	0.593	0.6732	0.252	-0.202
Mof_H 	H 	0.161	0.7463	0.4652	-0.107
Mof_H 	H 	0.13	0.8826	0.654	0.114
Mof_H 	H 	0.339	0.2463	0.5348	-0.107
Mof_H 	H 	0.478	0.4314	0.287	-0.442
Mof_H 	H 	0.87	0.8826	0.154	0.114
Mof_H 	H 	0.519	0.7838	0.53	-0.166
Mof_H 	H 	0.569	0.9374	0.016	-0.185
Mof_H 	H 	0.462	0.2011	0.173	-0.158
Mof_H 	H 	0.527	0.424	0.406	-0.273
Mof_H 	H 	0.312	0.9978	0.4949	-0.145
Mof_H 	H 	0.161	0.0733	0.341	0.022
Mof_H 	H 	0.505	0.7059	0.512	-0.114
Mof_H 	H 	0.95	0.2252	0.188	-0.171
Mof_H 	H 	0.093	0.8268	0.252	-0.202
Mof_H 	H 	0.188	0.4978	0.5051	-0.145
Mof_H 	H 	0.569	0.0626	0.484	-0.185
Mof_H 	H 	0.019	0.2838	0.97	-0.166
Mof_H 	H 	0.339	0.7537	0.9652	-0.107
Mof_H 	H 	0.931	0.4374	0.984	-0.185
Mof_H 	H 	0.093	0.1732	0.248	-0.202
Mof_H 	H 	0.839	0.2537	0.5348	-0.107
Mof_H 	H 	0.389	0.6043	0.777	-0.059
Mof_H 	H 	0.584	0.9599	0.585	-0.154
Mof_H 	H 	0.593	0.3268	0.248	-0.202
Mof_H 	H 	0.399	0.9956	0.611	-0.09
Mof_H 	H 	0.312	0.0022	0.0051	-0.145
Mof_H 	H 	0.398	0.3165	0.888	0.003
Mof_H 	H 	0.973	0.076	0.906	-0.274
Mof_H 	H 	0.373	0.2371	0.659	-0.114
Mof_H 	H 	0.097	0.6873	0.956	-0.118
Mof_H 	H 	0.065	0.5365	0.893	-0.102
Mof_H 	H 	0.916	0.5401	0.085	-0.154
Mof_H 	H 	0.754	0.411	0.606	0.115
Mof_H 	H 	0.435	0.0365	0.107	-0.102
Mof_H 	H 	0.069	0.4374	0.484	-0.185
Mof_H 	H 	0.925	0.8199	0.181	-0.246
Mof_H 	H 	0.077	0.1964	0.103	-0.205
Mof_H 	H 	0.038	0.7011	0.827	-0.158
Mof_H 	H 	0.98	0.1529	0.44	-0.19
Mof_H 	H 	0.05	0.7748	0.812	-0.171
Mof_H 	H 	0.689	0.2475	0.6311	-0.143
Mof_H 	H 	0.812	0.5022	0.4949	-0.145
Mof_H 	H 	0.416	0.0401	0.415	-0.154
Mof_H 	H 	0.027	0.076	0.406	-0.273
Mof_H 	H 	0.835	0.7566	0.506	-0.109
Mof_H 	H 	0.027	0.924	0.094	-0.274
Mof_H 	H 	0.63	0.6174	0.654	0.114
Mof_H 	H 	0.665	0.7434	0.006	-0.108
Mof_H 	H 	0.13	0.1174	0.846	0.114
Mof_H 	H 	0.45	0.2748	0.188	-0.171
Mof_H 	H 	0.435	0.9635	0.393	-0.102
Mof_H 	H 	0.98	0.8471	0.06	-0.19
Mof_H 	H 	0.76	0.8619	0.676	-0.193
Mof_H 	H 	0.339	0.4267	0.841	0.022
Mof_H 	H 	0.565	0.0365	0.607	-0.102
Mof_H 	H 	0.26	0.6381	0.676	-0.192
Mof_H 	H 	0.423	0.3036	0.603	-0.203
Mof_H 	H 	0.688	0.9978	0.9949	-0.145
Mof_H 	H 	0.981	0.7162	0.03	-0.166
Mof_H 	H 	0.473	0.576	0.594	-0.273
Mof_H 	H 	0.665	0.2566	0.494	-0.109
Mof_H 	H 	0.48	0.3471	0.44	-0.19
Mof_H 	H 	0.898	0.1835	0.888	0.003
Mof_H 	H 	0.101	0.5044	0.111	-0.089
Mof_H 	H 	0.165	0.2434	0.494	-0.109
Mof_H 	H 	0.24	0.8619	0.176	-0.193
Mof_H 	H 	0.127	0.7371	0.341	-0.114
Mof_H 	H 	0.495	0.2941	0.488	-0.114
Mof_H 	H 	0.48	0.6529	0.06	-0.19
Mof_H 	H 	0.425	0.6801	0.181	-0.246
Mof_H 	H 	0.37	0.3826	0.346	0.114
Mof_H 	H 	0.812	0.4978	0.0051	-0.145
Mof_H 	H 	0.311	0.7525	0.3689	-0.143
Mof_H 	H 	0.019	0.7162	0.53	-0.166
Mof_H 	H 	0.611	0.6043	0.277	-0.059
Mof_H 	H 	0.522	0.4314	0.787	-0.442
Mof_H 	H 	0.973	0.924	0.594	-0.273
Mof_H 	H 	0.069	0.5626	0.016	-0.185
Mof_H 	H 	0.022	0.0686	0.787	-0.441
Mof_H 	H 	0.101	0.4956	0.389	-0.09
Mof_H 	H 	0.661	0.4267	0.341	0.022
Mof_H 	H 	0.398	0.6835	0.612	0.003
Mof_H 	H 	0.188	0.5022	0.9949	-0.145
Mof_H 	H 	0.111	0.8957	0.277	-0.059
Mof_H 	H 	0.425	0.3199	0.319	-0.246
Mof_H 	H 	0.835	0.2434	0.994	-0.109
Mof_H 	H 	0.02	0.8471	0.56	-0.19
Mof_H 	H 	0.522	0.5686	0.713	-0.442
Mof_H 	H 	0.538	0.2011	0.673	-0.157
Mof_H 	H 	0.935	0.5365	0.393	-0.102
Mof_H 	H 	0.084	0.5401	0.585	-0.154
Mof_H 	H 	0.899	0.5044	0.611	-0.09
Mof_H 	H 	0.335	0.2566	0.994	-0.108
Mof_H 	H 	0.661	0.5733	0.159	0.022
Mof_H 	H 	0.899	0.4956	0.889	-0.089
Mof_H 	H 	0.254	0.089	0.606	0.115
Mof_H 	H 	0.839	0.7463	0.9652	-0.107
Mof_H 	H 	0.931	0.5626	0.516	-0.185
Mof_H 	H 	0.038	0.2989	0.673	-0.157
Mof_H 	H 	0.811	0.7475	0.3689	-0.143
Mof_H 	H 	0.403	0.8127	0.456	-0.119
Mof_H 	H 	0.165	0.7566	0.006	-0.109
Mof_H 	H 	0.45	0.7252	0.312	-0.172
Mof_H 	H 	0.601	0.0044	0.389	-0.09
Mof_H 	H 	0.923	0.1964	0.603	-0.204
Mof_H 	H 	0.688	0.0022	0.5051	-0.145
Mof_H 	H 	0.423	0.6964	0.897	-0.205
Mof_H 	H 	0.407	0.3268	0.748	-0.202
Mof_H 	H 	0.075	0.1801	0.819	-0.246
Mof_H 	H 	0.478	0.5686	0.213	-0.442
Mof_H 	H 	0.575	0.6801	0.681	-0.246
Mof_H 	H 	0.978	0.0686	0.287	-0.442
Mof_H 	H 	0.246	0.411	0.106	0.115
Mof_H 	H 	0.754	0.589	0.894	0.115
Mof_H 	H 	0.55	0.7252	0.812	-0.171
Mof_H 	H 	0.746	0.089	0.106	0.115
Mof_H 	H 	0.689	0.7525	0.8689	-0.144
Mof_C 	C 	0.5586	0.96954	0.47714	-0.572
Mof_C 	C 	0.4617	0.21295	0.57736	-0.568
Mof_C 	C 	0.9855	0.12912	0.27285	-0.677
Mof_C 	C 	0.1066	0.12276	0.38928	-0.561
Mof_C 	C 	0.5145	0.37088	0.77285	-0.678
Mof_C 	C 	0.8833	0.56058	0.95378	0.484
Mof_C 	C 	0.6066	0.62276	0.11072	-0.561
Mof_C 	C 	0.8934	0.12276	0.88928	-0.561
Mof_C 	C 	0.4617	0.78705	0.92264	-0.568
Mof_C 	C 	0.8708	0.81317	0.41296	0.555
Mof_C 	C 	0.3833	0.06058	0.54622	0.484
Mof_C 	C 	0.1292	0.81317	0.91296	0.555
Mof_C 	C 	0.5586	0.03046	0.02286	-0.573
Mof_C 	C 	0.9073	0.67974	0.9221	0.52
Mof_C 	C 	0.5739	0.27982	0.58211	-0.617
Mof_C 	C 	0.6648	0.6186	0.05203	0.511
Mof_C 	C 	0.0383	0.28705	0.07736	-0.568
Mof_C 	C 	0.0927	0.67974	0.4221	0.519
Mof_C 	C 	0.5773	0.63086	0.78414	0.638
Mof_C 	C 	0.6167	0.06058	0.04622	0.484
Mof_C 	C 	0.6648	0.3814	0.44797	0.511
Mof_C 	C 	0.0383	0.71295	0.42264	-0.568
Mof_C 	C 	0.3352	0.3814	0.94797	0.511
Mof_C 	C 	0.6292	0.68683	0.91296	0.555
Mof_C 	C 	0.9227	0.13086	0.21586	0.638
Mof_C 	C 	0.9261	0.22018	0.08211	-0.616
Mof_C 	C 	0.5383	0.21295	0.07736	-0.568
Mof_C 	C 	0.3352	0.6186	0.55203	0.511
Mof_C 	C 	0.3833	0.93942	0.95378	0.484
Mof_C 	C 	0.6066	0.37724	0.38928	-0.561
Mof_C 	C 	0.8352	0.8814	0.55203	0.511
Mof_C 	C 	0.9227	0.86914	0.28414	0.638
Mof_C 	C 	0.3708	0.31317	0.08704	0.555
Mof_C 	C 	0.0927	0.32026	0.0779	0.52
Mof_C 	C 	0.0739	0.77982	0.91789	-0.616
Mof_C 	C 	0.4073	0.17974	0.5779	0.519
Mof_C 	C 	0.4073	0.82026	0.9221	0.519
Mof_C 	C 	0.0145	0.12912	0.77285	-0.677
Mof_C 	C 	0.3934	0.37724	0.88928	-0.561
Mof_C 	C 	0.5739	0.72018	0.91789	-0.616
Mof_C 	C 	0.4855	0.37088	0.27285	-0.678
Mof_C 	C 	0.9261	0.77982	0.41789	-0.617
Mof_C 	C 	0.6292	0.31317	0.58704	0.555
Mof_C 	C 	0.9855	0.87088	0.22715	-0.677
Mof_C 	C 	0.8708	0.18683	0.08704	0.555
Mof_C 	C 	0.0586	0.53046	0.47714	-0.572
Mof_C 	C 	0.8934	0.87724	0.61072	-0.561
Mof_C 	C 	0.0739	0.22018	0.58211	-0.617
Mof_C 	C 	0.5773	0.36914	0.71586	0.638
Mof_C 	C 	0.5927	0.17974	0.0779	0.519
Mof_C 	C 	0.8352	0.1186	0.94797	0.511
Mof_C 	C 	0.4855	0.62912	0.22715	-0.678
Mof_C 	C 	0.9414	0.46954	0.52286	-0.572
Mof_C 	C 	0.1292	0.18683	0.58704	0.555
Mof_C 	C 	0.1167	0.56058	0.45378	0.484
Mof_C 	C 	0.0145	0.87088	0.72715	-0.677
Mof_C 	C 	0.0773	0.13086	0.71586	0.638
Mof_C 	C 	0.9073	0.32026	0.5779	0.519
Mof_C 	C 	0.4227	0.36914	0.21586	0.638
Mof_C 	C 	0.4414	0.03046	0.52286	-0.572
Mof_C 	C 	0.4261	0.27982	0.08211	-0.616
Mof_C 	C 	0.4261	0.72018	0.41789	-0.617
Mof_C 	C 	0.1648	0.1186	0.44797	0.511
Mof_C 	C 	0.3708	0.68683	0.41296	0.555
Mof_C 	C 	0.0773	0.86914	0.78414	0.638
Mof_C 	C 	0.6167	0.93942	0.45378	0.484
Mof_C 	C 	0.9414	0.53046	0.97714	-0.573
Mof_C 	C 	0.1066	0.87724	0.11072	-0.561
Mof_C 	C 	0.1648	0.8814	0.05203	0.511
Mof_C 	C 	0.9617	0.71295	0.92264	-0.568
Mof_C 	C 	0.8833	0.43942	0.54622	0.484
Mof_C 	C 	0.4227	0.63086	0.28414	0.638
Mof_C 	C 	0.1167	0.43942	0.04622	0.484
Mof_C 	C 	0.4414	0.96954	0.97714	-0.573
Mof_C 	C 	0.3934	0.62276	0.61072	-0.561
Mof_C 	C 	0.0586	0.46954	0.02286	-0.573
Mof_C 	C 	0.5145	0.62912	0.72715	-0.678
Mof_C 	C 	0.5383	0.78705	0.42264	-0.568
Mof_C 	C 	0.5927	0.82026	0.4221	0.519
Mof_C 	C 	0.9617	0.28705	0.57736	-0.568
Mof_O 	O 	0.61266	0.0868	0.01165	-0.514
Mof_O 	O 	0.89308	0.33384	0.62858	-0.554
Mof_O 	O 	0.88734	0.4132	0.51165	-0.513
Mof_O 	O 	0.0473	0.11832	0.6685	-0.602
Mof_O 	O 	0.10692	0.66616	0.37142	-0.554
Mof_O 	O 	0.6342	0.59922	0.01153	-0.558
Mof_O 	O 	0.26186	0.36478	0.95042	-0.516
Mof_O 	O 	0.8007	0.18808	0.1185	-0.541
Mof_O 	O 	0.1342	0.09922	0.48847	-0.558
Mof_O 	O 	0.8484	0.85565	0.2766	-0.601
Mof_O 	O 	0.0952	0.16176	0.55992	-0.541
Mof_O 	O 	0.6516	0.64435	0.7766	-0.601
Mof_O 	O 	0.1993	0.81192	0.8815	-0.541
Mof_O 	O 	0.2397	0.88413	0.8978	-0.749
Mof_O 	O 	0.5473	0.61832	0.8315	-0.603
Mof_O 	O 	0.76186	0.13522	0.95042	-0.517
Mof_O 	O 	0.3007	0.68808	0.3815	-0.541
Mof_O 	O 	0.4527	0.38168	0.1685	-0.603
Mof_O 	O 	0.0952	0.83824	0.94008	-0.541
Mof_O 	O 	0.3658	0.59922	0.51153	-0.558
Mof_O 	O 	0.88734	0.5868	0.98835	-0.514
Mof_O 	O 	0.7397	0.38413	0.6022	-0.748
Mof_O 	O 	0.8007	0.81192	0.3815	-0.541
Mof_O 	O 	0.38194	0.83092	0.97423	-0.522
Mof_O 	O 	0.60692	0.16616	0.12858	-0.555
Mof_O 	O 	0.1605	0.55693	0.40668	-0.407
Mof_O 	O 	0.5952	0.33824	0.55992	-0.541
Mof_O 	O 	0.11806	0.66908	0.47423	-0.521
Mof_O 	O 	0.9527	0.11832	0.1685	-0.602
Mof_O 	O 	0.11266	0.5868	0.48835	-0.513
Mof_O 	O 	0.3658	0.40078	0.98847	-0.558
Mof_O 	O 	0.8658	0.09922	0.98847	-0.558
Mof_O 	O 	0.8395	0.44307	0.59332	-0.407
Mof_O 	O 	0.8484	0.14435	0.2234	-0.601
Mof_O 	O 	0.3007	0.31192	0.1185	-0.541
Mof_O 	O 	0.23814	0.86478	0.04958	-0.517
Mof_O 	O 	0.1993	0.18808	0.6185	-0.541
Mof_O 	O 	0.11266	0.4132	0.01165	-0.514
Mof_O 	O 	0.38734	0.9132	0.98835	-0.514
Mof_O 	O 	0.3484	0.35565	0.2234	-0.601
Mof_O 	O 	0.0473	0.88168	0.8315	-0.602
Mof_O 	O 	0.2603	0.38413	0.1022	-0.749
Mof_O 	O 	0.73814	0.36478	0.45042	-0.517
Mof_O 	O 	0.88194	0.33092	0.52577	-0.521
Mof_O 	O 	0.1342	0.90078	0.01153	-0.558
Mof_O 	O 	0.26186	0.63522	0.54958	-0.517
Mof_O 	O 	0.89308	0.66616	0.87142	-0.555
Mof_O 	O 	0.8395	0.55693	0.90668	-0.407
Mof_O 	O 	0.5952	0.66176	0.94008	-0.541
Mof_O 	O 	0.6605	0.94307	0.40668	-0.407
Mof_O 	O 	0.23814	0.13522	0.45042	-0.517
Mof_O 	O 	0.9048	0.83824	0.44008	-0.541
Mof_O 	O 	0.38194	0.16908	0.52577	-0.521
Mof_O 	O 	0.9527	0.88168	0.3315	-0.602
Mof_O 	O 	0.11806	0.33092	0.02577	-0.522
Mof_O 	O 	0.4048	0.33824	0.05992	-0.541
Mof_O 	O 	0.2397	0.11587	0.6022	-0.748
Mof_O 	O 	0.39308	0.16616	0.62858	-0.554
Mof_O 	O 	0.76186	0.86478	0.54958	-0.517
Mof_O 	O 	0.61266	0.9132	0.48835	-0.514
Mof_O 	O 	0.61806	0.16908	0.02577	-0.522
Mof_O 	O 	0.38734	0.0868	0.51165	-0.514
Mof_O 	O 	0.6993	0.68808	0.8815	-0.541
Mof_O 	O 	0.9048	0.16176	0.05992	-0.541
Mof_O 	O 	0.3484	0.64435	0.2766	-0.601
Mof_O 	O 	0.4527	0.61832	0.3315	-0.603
Mof_O 	O 	0.6516	0.35565	0.7234	-0.601
Mof_O 	O 	0.6993	0.31192	0.6185	-0.541
Mof_O 	O 	0.60692	0.83384	0.37142	-0.554
Mof_O 	O 	0.3395	0.94307	0.90668	-0.407
Mof_O 	O 	0.73814	0.63522	0.04958	-0.516
Mof_O 	O 	0.5473	0.38168	0.6685	-0.603
Mof_O 	O 	0.1605	0.44307	0.09332	-0.407
Mof_O 	O 	0.7603	0.11587	0.1022	-0.749
Mof_O 	O 	0.10692	0.33384	0.12858	-0.555
Mof_O 	O 	0.1516	0.14435	0.7234	-0.601
Mof_O 	O 	0.1516	0.85565	0.7766	-0.601
Mof_O 	O 	0.7397	0.61587	0.8978	-0.749
Mof_O 	O 	0.61806	0.83092	0.47423	-0.521
Mof_O 	O 	0.4048	0.66176	0.44008	-0.541
Mof_O 	O 	0.6605	0.05693	0.09332	-0.407
Mof_O 	O 	0.3395	0.05693	0.59332	-0.407
Mof_O 	O 	0.2603	0.61587	0.3978	-0.748
Mof_O 	O 	0.6342	0.40078	0.48847	-0.558
Mof_O 	O 	0.88194	0.66908	0.97423	-0.522
Mof_O 	O 	0.7603	0.88413	0.3978	-0.748
Mof_O 	O 	0.8658	0.90078	0.51153	-0.558
Mof_O 	O 	0.39308	0.83384	0.87142	-0.555
_end
