data_functionalizedCrystal
_audit_creation_method	'EQeq! by Chris Wilmer'
_symmetry_space_group_name_H-M	'P1'
_symmetry_Int_Tables_number	1
_symmetry_cell_setting	triclinic
loop_
_symmetry_equiv_pos_as_xyz
  x,y,z
_cell_length_a	19.6939
_cell_length_b	27.4554
_cell_length_c	41.4894
_cell_angle_alpha	90
_cell_angle_beta	90
_cell_angle_gamma	90
loop_
_atom_site_label
_atom_site_type_symbol
_atom_site_fract_x
_atom_site_fract_y
_atom_site_fract_z
_atom_site_charge
Mof_Cu	Cu	0.18298	0.46137	0.0919	0.875
Mof_Cu	Cu	0.14292	0.3908	0.02289	0.921
Mof_Cl	Cl	0.22981	0.38199	0.05883	-0.538
Mof_N 	N 	0.1501	0.49158	0.99683	-0.097
Mof_N 	N 	0.1581	0.46257	0.02231	-0.153
Mof_N 	N 	0.168	0.48935	0.04824	-0.157
Mof_N 	N 	0.1653	0.53643	0.04057	-0.1
Mof_N 	N 	0.3096	0.65907	0.93444	-0.132
Mof_N 	N 	0.3405	0.67851	0.90876	-0.142
Mof_N 	N 	0.2981	0.68096	0.88483	-0.144
Mof_N 	N 	0.2376	0.66356	0.89345	-0.091
Mof_C 	C 	0.1541	0.5366	0.00893	0.047
Mof_C 	C 	0.1412	0.5808	0.98832	0.161
Mof_C 	C 	0.2027	0.5915	0.96674	-0.285
Mof_H 	H 	0.243	0.5983	0.9803	0.12
Mof_H 	H 	0.2128	0.5628	0.9532	0.118
Mof_C 	C 	0.1877	0.6355	0.94531	0.162
Mof_H 	H 	0.1342	0.5966	0.9101	0.121
Mof_H 	H 	0.0856	0.6175	0.024	0.102
Mof_C 	C 	0.0787	0.5698	0.96687	-0.269
Mof_H 	H 	0.0391	0.5621	0.9806	0.105
Mof_H 	H 	0.0883	0.5411	0.9531	0.108
Mof_C 	C 	0.2458	0.6503	0.92433	0.06
Mof_O 	O 	0.1219	0.3226	0.0223	-0.633
Mof_N 	N 	0.1365	0.2436	0.0082	-0.018
Mof_C 	C 	0.1563	0.2881	0.0133	-0.088
Mof_H 	H 	0.2031	0.2946	0.0097	0.02
Mof_C 	C 	0.066	0.229	0.0076	-0.314
Mof_H 	H 	0.0395	0.2509	0.0214	0.14
Mof_H 	H 	0.0619	0.1956	0.0156	0.121
Mof_H 	H 	0.0488	0.2308	0.9855	0.131
Mof_C 	C 	0.1873	0.2052	0.0026	-0.327
Mof_H 	H 	0.1787	0.1896	0.9818	0.144
Mof_H 	H 	0.1844	0.1809	0.0198	0.124
Mof_H 	H 	0.2328	0.2197	0.0025	0.126
Mof_O 	O 	0.0768	0.4061	0.9866	-0.112
Mof_N 	N 	0.0153	0.4058	0.9407	-0.191
Mof_C 	C 	0.0499	0.3843	0.9639	0.379
Mof_H 	H 	0.0544	0.3499	0.9631	-0.055
Mof_C 	C 	0.9861	0.3776	0.9141	-0.359
Mof_H 	H 	0.0196	0.3539	0.9064	0.128
Mof_H 	H 	0.9739	0.3997	0.8964	0.139
Mof_H 	H 	0.9455	0.3605	0.9216	0.134
Mof_C 	C 	0.0057	0.459	0.9416	-0.039
Mof_H 	H 	0.969	0.467	0.9566	0.095
Mof_H 	H 	0.9938	0.4706	0.92	0.019
Mof_H 	H 	0.0478	0.4746	0.9487	0.074
Mof_O 	O 	0.0927	0.3876	0.9781	-0.422
Mof_N 	N 	0.0711	0.4375	0.9357	-0.113
Mof_C 	C 	0.1049	0.4194	0.9591	0.191
Mof_H 	H 	0.1482	0.4339	0.962	-0.033
Mof_C 	C 	0.1035	0.4493	0.9048	-0.245
Mof_H 	H 	0.153	0.4488	0.9073	0.096
Mof_H 	H 	0.0891	0.4818	0.8978	0.093
Mof_H 	H 	0.09	0.4252	0.8885	0.093
Mof_C 	C 	0.9987	0.4483	0.9368	-0.073
Mof_H 	H 	0.9728	0.4179	0.9352	0.164
Mof_H 	H 	0.9868	0.4696	0.9187	0.037
Mof_H 	H 	0.9878	0.4647	0.9571	-0.05
Mof_Cl	Cl	0.1355	0.3114	0.0144	0.443
Mof_Cu	Cu	0.18298	0.96137	0.5919	0.875
Mof_Cu	Cu	0.14292	0.8908	0.52289	0.921
Mof_Cl	Cl	0.22981	0.88199	0.55883	-0.538
Mof_N 	N 	0.1501	0.99158	0.49683	-0.097
Mof_N 	N 	0.1581	0.96257	0.52231	-0.153
Mof_N 	N 	0.168	0.98935	0.54824	-0.157
Mof_N 	N 	0.1653	0.03643	0.54057	-0.099
Mof_N 	N 	0.3096	0.15907	0.43444	-0.132
Mof_N 	N 	0.3405	0.17851	0.40876	-0.142
Mof_N 	N 	0.2981	0.18096	0.38483	-0.144
Mof_N 	N 	0.2376	0.16356	0.39345	-0.091
Mof_C 	C 	0.1541	0.0366	0.50893	0.047
Mof_C 	C 	0.1412	0.0808	0.48832	0.161
Mof_C 	C 	0.2027	0.0915	0.46674	-0.285
Mof_H 	H 	0.243	0.0983	0.4803	0.12
Mof_H 	H 	0.2128	0.0628	0.4532	0.118
Mof_C 	C 	0.1877	0.1355	0.44531	0.162
Mof_H 	H 	0.1342	0.0966	0.4101	0.121
Mof_H 	H 	0.0856	0.1175	0.524	0.102
Mof_C 	C 	0.0787	0.0698	0.46687	-0.269
Mof_H 	H 	0.0391	0.0621	0.4806	0.105
Mof_H 	H 	0.0883	0.0411	0.4531	0.108
Mof_C 	C 	0.2458	0.1503	0.42433	0.06
Mof_O 	O 	0.1219	0.8226	0.5223	-0.633
Mof_N 	N 	0.1365	0.7436	0.5082	-0.018
Mof_C 	C 	0.1563	0.7881	0.5133	-0.088
Mof_H 	H 	0.2031	0.7946	0.5097	0.019
Mof_C 	C 	0.066	0.729	0.5076	-0.314
Mof_H 	H 	0.0395	0.7509	0.5214	0.14
Mof_H 	H 	0.0619	0.6956	0.5156	0.121
Mof_H 	H 	0.0488	0.7308	0.4855	0.132
Mof_C 	C 	0.1873	0.7052	0.5026	-0.327
Mof_H 	H 	0.1787	0.6896	0.4818	0.145
Mof_H 	H 	0.1844	0.6809	0.5198	0.124
Mof_H 	H 	0.2328	0.7197	0.5025	0.126
Mof_O 	O 	0.0768	0.9061	0.4866	-0.112
Mof_N 	N 	0.0153	0.9058	0.4407	-0.191
Mof_C 	C 	0.0499	0.8843	0.4639	0.379
Mof_H 	H 	0.0544	0.8499	0.4631	-0.055
Mof_C 	C 	0.9861	0.8776	0.4141	-0.358
Mof_H 	H 	0.0196	0.8539	0.4064	0.128
Mof_H 	H 	0.9739	0.8997	0.3964	0.139
Mof_H 	H 	0.9455	0.8605	0.4216	0.134
Mof_C 	C 	0.0057	0.959	0.4416	-0.039
Mof_H 	H 	0.969	0.967	0.4566	0.095
Mof_H 	H 	0.9938	0.9706	0.42	0.019
Mof_H 	H 	0.0478	0.9746	0.4487	0.073
Mof_O 	O 	0.0927	0.8876	0.4781	-0.423
Mof_N 	N 	0.0711	0.9375	0.4357	-0.114
Mof_C 	C 	0.1049	0.9194	0.4591	0.19
Mof_H 	H 	0.1482	0.9339	0.462	-0.034
Mof_C 	C 	0.1035	0.9493	0.4048	-0.246
Mof_H 	H 	0.153	0.9488	0.4073	0.095
Mof_H 	H 	0.0891	0.9818	0.3978	0.092
Mof_H 	H 	0.09	0.9252	0.3885	0.092
Mof_C 	C 	0.9987	0.9483	0.4368	-0.075
Mof_H 	H 	0.9728	0.9179	0.4352	0.163
Mof_H 	H 	0.9868	0.9696	0.4187	0.037
Mof_H 	H 	0.9878	0.9647	0.4571	-0.051
Mof_Cl	Cl	0.1355	0.8114	0.5144	0.442
Mof_Cu	Cu	0.68298	0.46137	0.5919	0.874
Mof_Cu	Cu	0.64292	0.3908	0.52289	0.92
Mof_Cl	Cl	0.72981	0.38199	0.55883	-0.539
Mof_N 	N 	0.6501	0.49158	0.49683	-0.098
Mof_N 	N 	0.6581	0.46257	0.52231	-0.154
Mof_N 	N 	0.668	0.48935	0.54824	-0.158
Mof_N 	N 	0.6653	0.53643	0.54057	-0.101
Mof_N 	N 	0.8096	0.65907	0.43444	-0.133
Mof_N 	N 	0.8405	0.67851	0.40876	-0.143
Mof_N 	N 	0.7981	0.68096	0.38483	-0.145
Mof_N 	N 	0.7376	0.66356	0.39345	-0.092
Mof_C 	C 	0.6541	0.5366	0.50893	0.046
Mof_C 	C 	0.6412	0.5808	0.48832	0.16
Mof_C 	C 	0.7027	0.5915	0.46674	-0.286
Mof_H 	H 	0.743	0.5983	0.4803	0.119
Mof_H 	H 	0.7128	0.5628	0.4532	0.117
Mof_C 	C 	0.6877	0.6355	0.44531	0.161
Mof_H 	H 	0.6342	0.5966	0.4101	0.12
Mof_H 	H 	0.5856	0.6175	0.524	0.101
Mof_C 	C 	0.5787	0.5698	0.46687	-0.27
Mof_H 	H 	0.5391	0.5621	0.4806	0.104
Mof_H 	H 	0.5883	0.5411	0.4531	0.107
Mof_C 	C 	0.7458	0.6503	0.42433	0.059
Mof_O 	O 	0.6219	0.3226	0.5223	-0.634
Mof_N 	N 	0.6365	0.2436	0.5082	-0.019
Mof_C 	C 	0.6563	0.2881	0.5133	-0.089
Mof_H 	H 	0.7031	0.2946	0.5097	0.018
Mof_C 	C 	0.566	0.229	0.5076	-0.315
Mof_H 	H 	0.5395	0.2509	0.5214	0.139
Mof_H 	H 	0.5619	0.1956	0.5156	0.12
Mof_H 	H 	0.5488	0.2308	0.4855	0.131
Mof_C 	C 	0.6873	0.2052	0.5026	-0.328
Mof_H 	H 	0.6787	0.1896	0.4818	0.144
Mof_H 	H 	0.6844	0.1809	0.5198	0.123
Mof_H 	H 	0.7328	0.2197	0.5025	0.125
Mof_O 	O 	0.5768	0.4061	0.4866	-0.113
Mof_N 	N 	0.5153	0.4058	0.4407	-0.192
Mof_C 	C 	0.5499	0.3843	0.4639	0.378
Mof_H 	H 	0.5544	0.3499	0.4631	-0.056
Mof_C 	C 	0.4861	0.3776	0.4141	-0.36
Mof_H 	H 	0.5196	0.3539	0.4064	0.127
Mof_H 	H 	0.4739	0.3997	0.3964	0.138
Mof_H 	H 	0.4455	0.3605	0.4216	0.133
Mof_C 	C 	0.5057	0.459	0.4416	-0.04
Mof_H 	H 	0.469	0.467	0.4566	0.094
Mof_H 	H 	0.4938	0.4706	0.42	0.018
Mof_H 	H 	0.5478	0.4746	0.4487	0.073
Mof_O 	O 	0.5927	0.3876	0.4781	-0.423
Mof_N 	N 	0.5711	0.4375	0.4357	-0.114
Mof_C 	C 	0.6049	0.4194	0.4591	0.19
Mof_H 	H 	0.6482	0.4339	0.462	-0.034
Mof_C 	C 	0.6035	0.4493	0.4048	-0.246
Mof_H 	H 	0.653	0.4488	0.4073	0.095
Mof_H 	H 	0.5891	0.4818	0.3978	0.092
Mof_H 	H 	0.59	0.4252	0.3885	0.092
Mof_C 	C 	0.4987	0.4483	0.4368	-0.074
Mof_H 	H 	0.4728	0.4179	0.4352	0.163
Mof_H 	H 	0.4868	0.4696	0.4187	0.036
Mof_H 	H 	0.4878	0.4647	0.4571	-0.051
Mof_Cl	Cl	0.6355	0.3114	0.5144	0.442
Mof_Cu	Cu	0.68298	0.96137	0.0919	0.874
Mof_Cu	Cu	0.64292	0.8908	0.02289	0.92
Mof_Cl	Cl	0.72981	0.88199	0.05883	-0.539
Mof_N 	N 	0.6501	0.99158	0.99683	-0.098
Mof_N 	N 	0.6581	0.96257	0.02231	-0.154
Mof_N 	N 	0.668	0.98935	0.04824	-0.158
Mof_N 	N 	0.6653	0.03643	0.04057	-0.101
Mof_N 	N 	0.8096	0.15907	0.93444	-0.133
Mof_N 	N 	0.8405	0.17851	0.90876	-0.143
Mof_N 	N 	0.7981	0.18096	0.88483	-0.145
Mof_N 	N 	0.7376	0.16356	0.89345	-0.092
Mof_C 	C 	0.6541	0.0366	0.00893	0.046
Mof_C 	C 	0.6412	0.0808	0.98832	0.16
Mof_C 	C 	0.7027	0.0915	0.96674	-0.286
Mof_H 	H 	0.743	0.0983	0.9803	0.119
Mof_H 	H 	0.7128	0.0628	0.9532	0.117
Mof_C 	C 	0.6877	0.1355	0.94531	0.161
Mof_H 	H 	0.6342	0.0966	0.9101	0.12
Mof_H 	H 	0.5856	0.1175	0.024	0.101
Mof_C 	C 	0.5787	0.0698	0.96687	-0.27
Mof_H 	H 	0.5391	0.0621	0.9806	0.104
Mof_H 	H 	0.5883	0.0411	0.9531	0.107
Mof_C 	C 	0.7458	0.1503	0.92433	0.059
Mof_O 	O 	0.6219	0.8226	0.0223	-0.634
Mof_N 	N 	0.6365	0.7436	0.0082	-0.019
Mof_C 	C 	0.6563	0.7881	0.0133	-0.089
Mof_H 	H 	0.7031	0.7946	0.0097	0.018
Mof_C 	C 	0.566	0.729	0.0076	-0.316
Mof_H 	H 	0.5395	0.7509	0.0214	0.139
Mof_H 	H 	0.5619	0.6956	0.0156	0.12
Mof_H 	H 	0.5488	0.7308	0.9855	0.131
Mof_C 	C 	0.6873	0.7052	0.0026	-0.328
Mof_H 	H 	0.6787	0.6896	0.9818	0.144
Mof_H 	H 	0.6844	0.6809	0.0198	0.123
Mof_H 	H 	0.7328	0.7197	0.0025	0.125
Mof_O 	O 	0.5768	0.9061	0.9866	-0.113
Mof_N 	N 	0.5153	0.9058	0.9407	-0.192
Mof_C 	C 	0.5499	0.8843	0.9639	0.378
Mof_H 	H 	0.5544	0.8499	0.9631	-0.056
Mof_C 	C 	0.4861	0.8776	0.9141	-0.36
Mof_H 	H 	0.5196	0.8539	0.9064	0.127
Mof_H 	H 	0.4739	0.8997	0.8964	0.138
Mof_H 	H 	0.4455	0.8605	0.9216	0.133
Mof_C 	C 	0.5057	0.959	0.9416	-0.04
Mof_H 	H 	0.469	0.967	0.9566	0.094
Mof_H 	H 	0.4938	0.9706	0.92	0.018
Mof_H 	H 	0.5478	0.9746	0.9487	0.073
Mof_O 	O 	0.5927	0.8876	0.9781	-0.423
Mof_N 	N 	0.5711	0.9375	0.9357	-0.114
Mof_C 	C 	0.6049	0.9194	0.9591	0.19
Mof_H 	H 	0.6482	0.9339	0.962	-0.034
Mof_C 	C 	0.6035	0.9493	0.9048	-0.246
Mof_H 	H 	0.653	0.9488	0.9073	0.095
Mof_H 	H 	0.5891	0.9818	0.8978	0.092
Mof_H 	H 	0.59	0.9252	0.8885	0.092
Mof_C 	C 	0.4987	0.9483	0.9368	-0.074
Mof_H 	H 	0.4728	0.9179	0.9352	0.163
Mof_H 	H 	0.4868	0.9696	0.9187	0.036
Mof_H 	H 	0.4878	0.9647	0.9571	-0.051
Mof_Cl	Cl	0.6355	0.8114	0.0144	0.442
Mof_Cu	Cu	0.56702	0.28863	0.0919	0.874
Mof_Cu	Cu	0.60708	0.3592	0.02289	0.92
Mof_Cl	Cl	0.52019	0.36801	0.05883	-0.539
Mof_N 	N 	0.5999	0.25842	0.99683	-0.098
Mof_N 	N 	0.5919	0.28743	0.02231	-0.154
Mof_N 	N 	0.582	0.26065	0.04824	-0.158
Mof_N 	N 	0.5847	0.21357	0.04057	-0.101
Mof_N 	N 	0.4404	0.09093	0.93444	-0.133
Mof_N 	N 	0.4095	0.07149	0.90876	-0.143
Mof_N 	N 	0.4519	0.06904	0.88483	-0.145
Mof_N 	N 	0.5124	0.08644	0.89345	-0.092
Mof_C 	C 	0.5959	0.2134	0.00893	0.047
Mof_C 	C 	0.6088	0.1692	0.98832	0.16
Mof_C 	C 	0.5473	0.1585	0.96674	-0.286
Mof_H 	H 	0.507	0.1517	0.9803	0.119
Mof_H 	H 	0.5372	0.1872	0.9532	0.117
Mof_C 	C 	0.5623	0.1145	0.94531	0.161
Mof_H 	H 	0.6158	0.1534	0.9101	0.12
Mof_H 	H 	0.6644	0.1325	0.024	0.101
Mof_C 	C 	0.6713	0.1802	0.96687	-0.27
Mof_H 	H 	0.7109	0.1879	0.9806	0.104
Mof_H 	H 	0.6617	0.2089	0.9531	0.107
Mof_C 	C 	0.5042	0.0997	0.92433	0.059
Mof_O 	O 	0.6281	0.4274	0.0223	-0.634
Mof_N 	N 	0.6135	0.5064	0.0082	-0.019
Mof_C 	C 	0.5937	0.4619	0.0133	-0.089
Mof_H 	H 	0.5469	0.4554	0.0097	0.019
Mof_C 	C 	0.684	0.521	0.0076	-0.315
Mof_H 	H 	0.7105	0.4991	0.0214	0.139
Mof_H 	H 	0.6881	0.5544	0.0156	0.12
Mof_H 	H 	0.7012	0.5192	0.9855	0.131
Mof_C 	C 	0.5627	0.5448	0.0026	-0.328
Mof_H 	H 	0.5713	0.5604	0.9818	0.144
Mof_H 	H 	0.5656	0.5691	0.0198	0.123
Mof_H 	H 	0.5172	0.5303	0.0025	0.125
Mof_O 	O 	0.6732	0.3439	0.9866	-0.113
Mof_N 	N 	0.7347	0.3442	0.9407	-0.192
Mof_C 	C 	0.7001	0.3657	0.9639	0.378
Mof_H 	H 	0.6956	0.4001	0.9631	-0.056
Mof_C 	C 	0.7639	0.3724	0.9141	-0.36
Mof_H 	H 	0.7304	0.3961	0.9064	0.127
Mof_H 	H 	0.7761	0.3503	0.8964	0.138
Mof_H 	H 	0.8045	0.3895	0.9216	0.133
Mof_C 	C 	0.7443	0.291	0.9416	-0.04
Mof_H 	H 	0.781	0.283	0.9566	0.094
Mof_H 	H 	0.7562	0.2794	0.92	0.018
Mof_H 	H 	0.7022	0.2754	0.9487	0.073
Mof_O 	O 	0.6573	0.3624	0.9781	-0.423
Mof_N 	N 	0.6789	0.3125	0.9357	-0.114
Mof_C 	C 	0.6451	0.3306	0.9591	0.19
Mof_H 	H 	0.6018	0.3161	0.962	-0.034
Mof_C 	C 	0.6465	0.3007	0.9048	-0.246
Mof_H 	H 	0.597	0.3012	0.9073	0.095
Mof_H 	H 	0.6609	0.2682	0.8978	0.092
Mof_H 	H 	0.66	0.3248	0.8885	0.092
Mof_C 	C 	0.7513	0.3017	0.9368	-0.074
Mof_H 	H 	0.7772	0.3321	0.9352	0.163
Mof_H 	H 	0.7632	0.2804	0.9187	0.036
Mof_H 	H 	0.7622	0.2853	0.9571	-0.051
Mof_Cl	Cl	0.6145	0.4386	0.0144	0.442
Mof_Cu	Cu	0.56702	0.78863	0.5919	0.874
Mof_Cu	Cu	0.60708	0.8592	0.52289	0.92
Mof_Cl	Cl	0.52019	0.86801	0.55883	-0.539
Mof_N 	N 	0.5999	0.75842	0.49683	-0.098
Mof_N 	N 	0.5919	0.78743	0.52231	-0.154
Mof_N 	N 	0.582	0.76065	0.54824	-0.158
Mof_N 	N 	0.5847	0.71357	0.54057	-0.101
Mof_N 	N 	0.4404	0.59093	0.43444	-0.133
Mof_N 	N 	0.4095	0.57149	0.40876	-0.143
Mof_N 	N 	0.4519	0.56904	0.38483	-0.145
Mof_N 	N 	0.5124	0.58644	0.39345	-0.092
Mof_C 	C 	0.5959	0.7134	0.50893	0.046
Mof_C 	C 	0.6088	0.6692	0.48832	0.16
Mof_C 	C 	0.5473	0.6585	0.46674	-0.286
Mof_H 	H 	0.507	0.6517	0.4803	0.119
Mof_H 	H 	0.5372	0.6872	0.4532	0.117
Mof_C 	C 	0.5623	0.6145	0.44531	0.161
Mof_H 	H 	0.6158	0.6534	0.4101	0.12
Mof_H 	H 	0.6644	0.6325	0.524	0.101
Mof_C 	C 	0.6713	0.6802	0.46687	-0.27
Mof_H 	H 	0.7109	0.6879	0.4806	0.104
Mof_H 	H 	0.6617	0.7089	0.4531	0.107
Mof_C 	C 	0.5042	0.5997	0.42433	0.059
Mof_O 	O 	0.6281	0.9274	0.5223	-0.634
Mof_N 	N 	0.6135	0.0064	0.5082	-0.019
Mof_C 	C 	0.5937	0.9619	0.5133	-0.089
Mof_H 	H 	0.5469	0.9554	0.5097	0.018
Mof_C 	C 	0.684	0.021	0.5076	-0.316
Mof_H 	H 	0.7105	0.9991	0.5214	0.139
Mof_H 	H 	0.6881	0.0544	0.5156	0.12
Mof_H 	H 	0.7012	0.0192	0.4855	0.131
Mof_C 	C 	0.5627	0.0448	0.5026	-0.328
Mof_H 	H 	0.5713	0.0604	0.4818	0.144
Mof_H 	H 	0.5656	0.0691	0.5198	0.123
Mof_H 	H 	0.5172	0.0303	0.5025	0.125
Mof_O 	O 	0.6732	0.8439	0.4866	-0.113
Mof_N 	N 	0.7347	0.8442	0.4407	-0.192
Mof_C 	C 	0.7001	0.8657	0.4639	0.378
Mof_H 	H 	0.6956	0.9001	0.4631	-0.056
Mof_C 	C 	0.7639	0.8724	0.4141	-0.36
Mof_H 	H 	0.7304	0.8961	0.4064	0.127
Mof_H 	H 	0.7761	0.8503	0.3964	0.138
Mof_H 	H 	0.8045	0.8895	0.4216	0.133
Mof_C 	C 	0.7443	0.791	0.4416	-0.04
Mof_H 	H 	0.781	0.783	0.4566	0.094
Mof_H 	H 	0.7562	0.7794	0.42	0.018
Mof_H 	H 	0.7022	0.7754	0.4487	0.073
Mof_O 	O 	0.6573	0.8624	0.4781	-0.423
Mof_N 	N 	0.6789	0.8125	0.4357	-0.114
Mof_C 	C 	0.6451	0.8306	0.4591	0.19
Mof_H 	H 	0.6018	0.8161	0.462	-0.034
Mof_C 	C 	0.6465	0.8007	0.4048	-0.246
Mof_H 	H 	0.597	0.8012	0.4073	0.095
Mof_H 	H 	0.6609	0.7682	0.3978	0.092
Mof_H 	H 	0.66	0.8248	0.3885	0.092
Mof_C 	C 	0.7513	0.8017	0.4368	-0.074
Mof_H 	H 	0.7772	0.8321	0.4352	0.163
Mof_H 	H 	0.7632	0.7804	0.4187	0.036
Mof_H 	H 	0.7622	0.7853	0.4571	-0.051
Mof_Cl	Cl	0.6145	0.9386	0.5144	0.442
Mof_Cu	Cu	0.06702	0.28863	0.5919	0.874
Mof_Cu	Cu	0.10708	0.3592	0.52289	0.92
Mof_Cl	Cl	0.02019	0.36801	0.55883	-0.539
Mof_N 	N 	0.0999	0.25842	0.49683	-0.098
Mof_N 	N 	0.0919	0.28743	0.52231	-0.154
Mof_N 	N 	0.082	0.26065	0.54824	-0.158
Mof_N 	N 	0.0847	0.21357	0.54057	-0.101
Mof_N 	N 	0.9404	0.09093	0.43444	-0.133
Mof_N 	N 	0.9095	0.07149	0.40876	-0.143
Mof_N 	N 	0.9519	0.06904	0.38483	-0.145
Mof_N 	N 	0.0124	0.08644	0.39345	-0.092
Mof_C 	C 	0.0959	0.2134	0.50893	0.046
Mof_C 	C 	0.1088	0.1692	0.48832	0.16
Mof_C 	C 	0.0473	0.1585	0.46674	-0.286
Mof_H 	H 	0.007	0.1517	0.4803	0.119
Mof_H 	H 	0.0372	0.1872	0.4532	0.117
Mof_C 	C 	0.0623	0.1145	0.44531	0.161
Mof_H 	H 	0.1158	0.1534	0.4101	0.12
Mof_H 	H 	0.1644	0.1325	0.524	0.101
Mof_C 	C 	0.1713	0.1802	0.46687	-0.27
Mof_H 	H 	0.2109	0.1879	0.4806	0.104
Mof_H 	H 	0.1617	0.2089	0.4531	0.107
Mof_C 	C 	0.0042	0.0997	0.42433	0.059
Mof_O 	O 	0.1281	0.4274	0.5223	-0.634
Mof_N 	N 	0.1135	0.5064	0.5082	-0.019
Mof_C 	C 	0.0937	0.4619	0.5133	-0.089
Mof_H 	H 	0.0469	0.4554	0.5097	0.018
Mof_C 	C 	0.184	0.521	0.5076	-0.315
Mof_H 	H 	0.2105	0.4991	0.5214	0.139
Mof_H 	H 	0.1881	0.5544	0.5156	0.12
Mof_H 	H 	0.2012	0.5192	0.4855	0.131
Mof_C 	C 	0.0627	0.5448	0.5026	-0.328
Mof_H 	H 	0.0713	0.5604	0.4818	0.144
Mof_H 	H 	0.0656	0.5691	0.5198	0.123
Mof_H 	H 	0.0172	0.5303	0.5025	0.125
Mof_O 	O 	0.1732	0.3439	0.4866	-0.113
Mof_N 	N 	0.2347	0.3442	0.4407	-0.192
Mof_C 	C 	0.2001	0.3657	0.4639	0.378
Mof_H 	H 	0.1956	0.4001	0.4631	-0.056
Mof_C 	C 	0.2639	0.3724	0.4141	-0.36
Mof_H 	H 	0.2304	0.3961	0.4064	0.127
Mof_H 	H 	0.2761	0.3503	0.3964	0.138
Mof_H 	H 	0.3045	0.3895	0.4216	0.133
Mof_C 	C 	0.2443	0.291	0.4416	-0.04
Mof_H 	H 	0.281	0.283	0.4566	0.094
Mof_H 	H 	0.2562	0.2794	0.42	0.018
Mof_H 	H 	0.2022	0.2754	0.4487	0.073
Mof_O 	O 	0.1573	0.3624	0.4781	-0.423
Mof_N 	N 	0.1789	0.3125	0.4357	-0.114
Mof_C 	C 	0.1451	0.3306	0.4591	0.19
Mof_H 	H 	0.1018	0.3161	0.462	-0.034
Mof_C 	C 	0.1465	0.3007	0.4048	-0.246
Mof_H 	H 	0.097	0.3012	0.4073	0.095
Mof_H 	H 	0.1609	0.2682	0.3978	0.092
Mof_H 	H 	0.16	0.3248	0.3885	0.092
Mof_C 	C 	0.2513	0.3017	0.4368	-0.074
Mof_H 	H 	0.2772	0.3321	0.4352	0.163
Mof_H 	H 	0.2632	0.2804	0.4187	0.036
Mof_H 	H 	0.2622	0.2853	0.4571	-0.051
Mof_Cl	Cl	0.1145	0.4386	0.5144	0.442
Mof_Cu	Cu	0.06702	0.78863	0.0919	0.874
Mof_Cu	Cu	0.10708	0.8592	0.02289	0.92
Mof_Cl	Cl	0.02019	0.86801	0.05883	-0.539
Mof_N 	N 	0.0999	0.75842	0.99683	-0.098
Mof_N 	N 	0.0919	0.78743	0.02231	-0.154
Mof_N 	N 	0.082	0.76065	0.04824	-0.158
Mof_N 	N 	0.0847	0.71357	0.04057	-0.101
Mof_N 	N 	0.9404	0.59093	0.93444	-0.133
Mof_N 	N 	0.9095	0.57149	0.90876	-0.143
Mof_N 	N 	0.9519	0.56904	0.88483	-0.145
Mof_N 	N 	0.0124	0.58644	0.89345	-0.092
Mof_C 	C 	0.0959	0.7134	0.00893	0.046
Mof_C 	C 	0.1088	0.6692	0.98832	0.16
Mof_C 	C 	0.0473	0.6585	0.96674	-0.286
Mof_H 	H 	0.007	0.6517	0.9803	0.119
Mof_H 	H 	0.0372	0.6872	0.9532	0.117
Mof_C 	C 	0.0623	0.6145	0.94531	0.161
Mof_H 	H 	0.1158	0.6534	0.9101	0.12
Mof_H 	H 	0.1644	0.6325	0.024	0.101
Mof_C 	C 	0.1713	0.6802	0.96687	-0.27
Mof_H 	H 	0.2109	0.6879	0.9806	0.104
Mof_H 	H 	0.1617	0.7089	0.9531	0.107
Mof_C 	C 	0.0042	0.5997	0.92433	0.059
Mof_O 	O 	0.1281	0.9274	0.0223	-0.634
Mof_N 	N 	0.1135	0.0064	0.0082	-0.019
Mof_C 	C 	0.0937	0.9619	0.0133	-0.089
Mof_H 	H 	0.0469	0.9554	0.0097	0.018
Mof_C 	C 	0.184	0.021	0.0076	-0.314
Mof_H 	H 	0.2105	0.9991	0.0214	0.138
Mof_H 	H 	0.1881	0.0544	0.0156	0.12
Mof_H 	H 	0.2012	0.0192	0.9855	0.13
Mof_C 	C 	0.0627	0.0448	0.0026	-0.327
Mof_H 	H 	0.0713	0.0604	0.9818	0.143
Mof_H 	H 	0.0656	0.0691	0.0198	0.123
Mof_H 	H 	0.0172	0.0303	0.0025	0.125
Mof_O 	O 	0.1732	0.8439	0.9866	-0.113
Mof_N 	N 	0.2347	0.8442	0.9407	-0.192
Mof_C 	C 	0.2001	0.8657	0.9639	0.378
Mof_H 	H 	0.1956	0.9001	0.9631	-0.056
Mof_C 	C 	0.2639	0.8724	0.9141	-0.36
Mof_H 	H 	0.2304	0.8961	0.9064	0.127
Mof_H 	H 	0.2761	0.8503	0.8964	0.138
Mof_H 	H 	0.3045	0.8895	0.9216	0.133
Mof_C 	C 	0.2443	0.791	0.9416	-0.04
Mof_H 	H 	0.281	0.783	0.9566	0.094
Mof_H 	H 	0.2562	0.7794	0.92	0.018
Mof_H 	H 	0.2022	0.7754	0.9487	0.073
Mof_O 	O 	0.1573	0.8624	0.9781	-0.423
Mof_N 	N 	0.1789	0.8125	0.9357	-0.114
Mof_C 	C 	0.1451	0.8306	0.9591	0.19
Mof_H 	H 	0.1018	0.8161	0.962	-0.034
Mof_C 	C 	0.1465	0.8007	0.9048	-0.246
Mof_H 	H 	0.097	0.8012	0.9073	0.095
Mof_H 	H 	0.1609	0.7682	0.8978	0.092
Mof_H 	H 	0.16	0.8248	0.8885	0.092
Mof_C 	C 	0.2513	0.8017	0.9368	-0.074
Mof_H 	H 	0.2772	0.8321	0.9352	0.163
Mof_H 	H 	0.2632	0.7804	0.9187	0.036
Mof_H 	H 	0.2622	0.7853	0.9571	-0.051
Mof_Cl	Cl	0.1145	0.9386	0.0144	0.442
Mof_Cu	Cu	0.56702	0.46137	0.6581	0.874
Mof_Cu	Cu	0.60708	0.3908	0.72711	0.92
Mof_Cl	Cl	0.52019	0.38199	0.69117	-0.539
Mof_N 	N 	0.5999	0.49158	0.75317	-0.098
Mof_N 	N 	0.5919	0.46257	0.72769	-0.154
Mof_N 	N 	0.582	0.48935	0.70176	-0.158
Mof_N 	N 	0.5847	0.53643	0.70943	-0.101
Mof_N 	N 	0.4404	0.65907	0.81556	-0.133
Mof_N 	N 	0.4095	0.67851	0.84124	-0.143
Mof_N 	N 	0.4519	0.68096	0.86517	-0.145
Mof_N 	N 	0.5124	0.66356	0.85655	-0.092
Mof_C 	C 	0.5959	0.5366	0.74107	0.046
Mof_C 	C 	0.6088	0.5808	0.76168	0.16
Mof_C 	C 	0.5473	0.5915	0.78326	-0.286
Mof_H 	H 	0.507	0.5983	0.7697	0.119
Mof_H 	H 	0.5372	0.5628	0.7968	0.117
Mof_C 	C 	0.5623	0.6355	0.80469	0.161
Mof_H 	H 	0.6158	0.5966	0.8399	0.12
Mof_H 	H 	0.6644	0.6175	0.726	0.101
Mof_C 	C 	0.6713	0.5698	0.78313	-0.27
Mof_H 	H 	0.7109	0.5621	0.7694	0.104
Mof_H 	H 	0.6617	0.5411	0.7969	0.107
Mof_C 	C 	0.5042	0.6503	0.82567	0.059
Mof_O 	O 	0.6281	0.3226	0.7277	-0.634
Mof_N 	N 	0.6135	0.2436	0.7418	-0.019
Mof_C 	C 	0.5937	0.2881	0.7367	-0.089
Mof_H 	H 	0.5469	0.2946	0.7403	0.018
Mof_C 	C 	0.684	0.229	0.7424	-0.315
Mof_H 	H 	0.7105	0.2509	0.7286	0.139
Mof_H 	H 	0.6881	0.1956	0.7344	0.12
Mof_H 	H 	0.7012	0.2308	0.7645	0.131
Mof_C 	C 	0.5627	0.2052	0.7474	-0.328
Mof_H 	H 	0.5713	0.1896	0.7682	0.144
Mof_H 	H 	0.5656	0.1809	0.7302	0.123
Mof_H 	H 	0.5172	0.2197	0.7475	0.125
Mof_O 	O 	0.6732	0.4061	0.7634	-0.113
Mof_N 	N 	0.7347	0.4058	0.8093	-0.192
Mof_C 	C 	0.7001	0.3843	0.7861	0.378
Mof_H 	H 	0.6956	0.3499	0.7869	-0.056
Mof_C 	C 	0.7639	0.3776	0.8359	-0.36
Mof_H 	H 	0.7304	0.3539	0.8436	0.127
Mof_H 	H 	0.7761	0.3997	0.8536	0.138
Mof_H 	H 	0.8045	0.3605	0.8284	0.133
Mof_C 	C 	0.7443	0.459	0.8084	-0.04
Mof_H 	H 	0.781	0.467	0.7934	0.094
Mof_H 	H 	0.7562	0.4706	0.83	0.018
Mof_H 	H 	0.7022	0.4746	0.8013	0.073
Mof_O 	O 	0.6573	0.3876	0.7719	-0.423
Mof_N 	N 	0.6789	0.4375	0.8143	-0.114
Mof_C 	C 	0.6451	0.4194	0.7909	0.19
Mof_H 	H 	0.6018	0.4339	0.788	-0.034
Mof_C 	C 	0.6465	0.4493	0.8452	-0.246
Mof_H 	H 	0.597	0.4488	0.8427	0.095
Mof_H 	H 	0.6609	0.4818	0.8522	0.092
Mof_H 	H 	0.66	0.4252	0.8615	0.092
Mof_C 	C 	0.7513	0.4483	0.8132	-0.074
Mof_H 	H 	0.7772	0.4179	0.8148	0.163
Mof_H 	H 	0.7632	0.4696	0.8313	0.036
Mof_H 	H 	0.7622	0.4647	0.7929	-0.051
Mof_Cl	Cl	0.6145	0.3114	0.7356	0.442
Mof_Cu	Cu	0.56702	0.96137	0.1581	0.874
Mof_Cu	Cu	0.60708	0.8908	0.22711	0.92
Mof_Cl	Cl	0.52019	0.88199	0.19117	-0.539
Mof_N 	N 	0.5999	0.99158	0.25317	-0.098
Mof_N 	N 	0.5919	0.96257	0.22769	-0.154
Mof_N 	N 	0.582	0.98935	0.20176	-0.158
Mof_N 	N 	0.5847	0.03643	0.20943	-0.1
Mof_N 	N 	0.4404	0.15907	0.31556	-0.133
Mof_N 	N 	0.4095	0.17851	0.34124	-0.143
Mof_N 	N 	0.4519	0.18096	0.36517	-0.145
Mof_N 	N 	0.5124	0.16356	0.35655	-0.092
Mof_C 	C 	0.5959	0.0366	0.24107	0.046
Mof_C 	C 	0.6088	0.0808	0.26168	0.16
Mof_C 	C 	0.5473	0.0915	0.28326	-0.286
Mof_H 	H 	0.507	0.0983	0.2697	0.119
Mof_H 	H 	0.5372	0.0628	0.2968	0.117
Mof_C 	C 	0.5623	0.1355	0.30469	0.161
Mof_H 	H 	0.6158	0.0966	0.3399	0.12
Mof_H 	H 	0.6644	0.1175	0.226	0.101
Mof_C 	C 	0.6713	0.0698	0.28313	-0.27
Mof_H 	H 	0.7109	0.0621	0.2694	0.104
Mof_H 	H 	0.6617	0.0411	0.2969	0.107
Mof_C 	C 	0.5042	0.1503	0.32567	0.059
Mof_O 	O 	0.6281	0.8226	0.2277	-0.634
Mof_N 	N 	0.6135	0.7436	0.2418	-0.019
Mof_C 	C 	0.5937	0.7881	0.2367	-0.089
Mof_H 	H 	0.5469	0.7946	0.2403	0.018
Mof_C 	C 	0.684	0.729	0.2424	-0.315
Mof_H 	H 	0.7105	0.7509	0.2286	0.139
Mof_H 	H 	0.6881	0.6956	0.2344	0.12
Mof_H 	H 	0.7012	0.7308	0.2645	0.131
Mof_C 	C 	0.5627	0.7052	0.2474	-0.328
Mof_H 	H 	0.5713	0.6896	0.2682	0.144
Mof_H 	H 	0.5656	0.6809	0.2302	0.123
Mof_H 	H 	0.5172	0.7197	0.2475	0.125
Mof_O 	O 	0.6732	0.9061	0.2634	-0.113
Mof_N 	N 	0.7347	0.9058	0.3093	-0.192
Mof_C 	C 	0.7001	0.8843	0.2861	0.378
Mof_H 	H 	0.6956	0.8499	0.2869	-0.056
Mof_C 	C 	0.7639	0.8776	0.3359	-0.36
Mof_H 	H 	0.7304	0.8539	0.3436	0.127
Mof_H 	H 	0.7761	0.8997	0.3536	0.138
Mof_H 	H 	0.8045	0.8605	0.3284	0.133
Mof_C 	C 	0.7443	0.959	0.3084	-0.04
Mof_H 	H 	0.781	0.967	0.2934	0.094
Mof_H 	H 	0.7562	0.9706	0.33	0.018
Mof_H 	H 	0.7022	0.9746	0.3013	0.073
Mof_O 	O 	0.6573	0.8876	0.2719	-0.423
Mof_N 	N 	0.6789	0.9375	0.3143	-0.114
Mof_C 	C 	0.6451	0.9194	0.2909	0.19
Mof_H 	H 	0.6018	0.9339	0.288	-0.034
Mof_C 	C 	0.6465	0.9493	0.3452	-0.246
Mof_H 	H 	0.597	0.9488	0.3427	0.095
Mof_H 	H 	0.6609	0.9818	0.3522	0.092
Mof_H 	H 	0.66	0.9252	0.3615	0.092
Mof_C 	C 	0.7513	0.9483	0.3132	-0.074
Mof_H 	H 	0.7772	0.9179	0.3148	0.163
Mof_H 	H 	0.7632	0.9696	0.3313	0.036
Mof_H 	H 	0.7622	0.9647	0.2929	-0.051
Mof_Cl	Cl	0.6145	0.8114	0.2356	0.442
Mof_Cu	Cu	0.06702	0.46137	0.1581	0.874
Mof_Cu	Cu	0.10708	0.3908	0.22711	0.92
Mof_Cl	Cl	0.02019	0.38199	0.19117	-0.539
Mof_N 	N 	0.0999	0.49158	0.25317	-0.098
Mof_N 	N 	0.0919	0.46257	0.22769	-0.154
Mof_N 	N 	0.082	0.48935	0.20176	-0.158
Mof_N 	N 	0.0847	0.53643	0.20943	-0.101
Mof_N 	N 	0.9404	0.65907	0.31556	-0.133
Mof_N 	N 	0.9095	0.67851	0.34124	-0.143
Mof_N 	N 	0.9519	0.68096	0.36517	-0.145
Mof_N 	N 	0.0124	0.66356	0.35655	-0.092
Mof_C 	C 	0.0959	0.5366	0.24107	0.046
Mof_C 	C 	0.1088	0.5808	0.26168	0.16
Mof_C 	C 	0.0473	0.5915	0.28326	-0.286
Mof_H 	H 	0.007	0.5983	0.2697	0.119
Mof_H 	H 	0.0372	0.5628	0.2968	0.117
Mof_C 	C 	0.0623	0.6355	0.30469	0.161
Mof_H 	H 	0.1158	0.5966	0.3399	0.12
Mof_H 	H 	0.1644	0.6175	0.226	0.101
Mof_C 	C 	0.1713	0.5698	0.28313	-0.27
Mof_H 	H 	0.2109	0.5621	0.2694	0.104
Mof_H 	H 	0.1617	0.5411	0.2969	0.107
Mof_C 	C 	0.0042	0.6503	0.32567	0.059
Mof_O 	O 	0.1281	0.3226	0.2277	-0.634
Mof_N 	N 	0.1135	0.2436	0.2418	-0.019
Mof_C 	C 	0.0937	0.2881	0.2367	-0.089
Mof_H 	H 	0.0469	0.2946	0.2403	0.019
Mof_C 	C 	0.184	0.229	0.2424	-0.315
Mof_H 	H 	0.2105	0.2509	0.2286	0.139
Mof_H 	H 	0.1881	0.1956	0.2344	0.12
Mof_H 	H 	0.2012	0.2308	0.2645	0.131
Mof_C 	C 	0.0627	0.2052	0.2474	-0.328
Mof_H 	H 	0.0713	0.1896	0.2682	0.144
Mof_H 	H 	0.0656	0.1809	0.2302	0.123
Mof_H 	H 	0.0172	0.2197	0.2475	0.125
Mof_O 	O 	0.1732	0.4061	0.2634	-0.113
Mof_N 	N 	0.2347	0.4058	0.3093	-0.192
Mof_C 	C 	0.2001	0.3843	0.2861	0.378
Mof_H 	H 	0.1956	0.3499	0.2869	-0.056
Mof_C 	C 	0.2639	0.3776	0.3359	-0.36
Mof_H 	H 	0.2304	0.3539	0.3436	0.127
Mof_H 	H 	0.2761	0.3997	0.3536	0.138
Mof_H 	H 	0.3045	0.3605	0.3284	0.133
Mof_C 	C 	0.2443	0.459	0.3084	-0.04
Mof_H 	H 	0.281	0.467	0.2934	0.094
Mof_H 	H 	0.2562	0.4706	0.33	0.018
Mof_H 	H 	0.2022	0.4746	0.3013	0.073
Mof_O 	O 	0.1573	0.3876	0.2719	-0.423
Mof_N 	N 	0.1789	0.4375	0.3143	-0.114
Mof_C 	C 	0.1451	0.4194	0.2909	0.19
Mof_H 	H 	0.1018	0.4339	0.288	-0.034
Mof_C 	C 	0.1465	0.4493	0.3452	-0.246
Mof_H 	H 	0.097	0.4488	0.3427	0.095
Mof_H 	H 	0.1609	0.4818	0.3522	0.092
Mof_H 	H 	0.16	0.4252	0.3615	0.092
Mof_C 	C 	0.2513	0.4483	0.3132	-0.074
Mof_H 	H 	0.2772	0.4179	0.3148	0.163
Mof_H 	H 	0.2632	0.4696	0.3313	0.036
Mof_H 	H 	0.2622	0.4647	0.2929	-0.051
Mof_Cl	Cl	0.1145	0.3114	0.2356	0.442
Mof_Cu	Cu	0.06702	0.96137	0.6581	0.874
Mof_Cu	Cu	0.10708	0.8908	0.72711	0.92
Mof_Cl	Cl	0.02019	0.88199	0.69117	-0.539
Mof_N 	N 	0.0999	0.99158	0.75317	-0.098
Mof_N 	N 	0.0919	0.96257	0.72769	-0.154
Mof_N 	N 	0.082	0.98935	0.70176	-0.158
Mof_N 	N 	0.0847	0.03643	0.70943	-0.1
Mof_N 	N 	0.9404	0.15907	0.81556	-0.133
Mof_N 	N 	0.9095	0.17851	0.84124	-0.143
Mof_N 	N 	0.9519	0.18096	0.86517	-0.145
Mof_N 	N 	0.0124	0.16356	0.85655	-0.092
Mof_C 	C 	0.0959	0.0366	0.74107	0.046
Mof_C 	C 	0.1088	0.0808	0.76168	0.16
Mof_C 	C 	0.0473	0.0915	0.78326	-0.286
Mof_H 	H 	0.007	0.0983	0.7697	0.119
Mof_H 	H 	0.0372	0.0628	0.7968	0.117
Mof_C 	C 	0.0623	0.1355	0.80469	0.161
Mof_H 	H 	0.1158	0.0966	0.8399	0.12
Mof_H 	H 	0.1644	0.1175	0.726	0.101
Mof_C 	C 	0.1713	0.0698	0.78313	-0.27
Mof_H 	H 	0.2109	0.0621	0.7694	0.104
Mof_H 	H 	0.1617	0.0411	0.7969	0.107
Mof_C 	C 	0.0042	0.1503	0.82567	0.059
Mof_O 	O 	0.1281	0.8226	0.7277	-0.634
Mof_N 	N 	0.1135	0.7436	0.7418	-0.019
Mof_C 	C 	0.0937	0.7881	0.7367	-0.089
Mof_H 	H 	0.0469	0.7946	0.7403	0.018
Mof_C 	C 	0.184	0.729	0.7424	-0.315
Mof_H 	H 	0.2105	0.7509	0.7286	0.139
Mof_H 	H 	0.1881	0.6956	0.7344	0.12
Mof_H 	H 	0.2012	0.7308	0.7645	0.131
Mof_C 	C 	0.0627	0.7052	0.7474	-0.328
Mof_H 	H 	0.0713	0.6896	0.7682	0.144
Mof_H 	H 	0.0656	0.6809	0.7302	0.123
Mof_H 	H 	0.0172	0.7197	0.7475	0.125
Mof_O 	O 	0.1732	0.9061	0.7634	-0.113
Mof_N 	N 	0.2347	0.9058	0.8093	-0.192
Mof_C 	C 	0.2001	0.8843	0.7861	0.378
Mof_H 	H 	0.1956	0.8499	0.7869	-0.056
Mof_C 	C 	0.2639	0.8776	0.8359	-0.36
Mof_H 	H 	0.2304	0.8539	0.8436	0.127
Mof_H 	H 	0.2761	0.8997	0.8536	0.138
Mof_H 	H 	0.3045	0.8605	0.8284	0.133
Mof_C 	C 	0.2443	0.959	0.8084	-0.04
Mof_H 	H 	0.281	0.967	0.7934	0.094
Mof_H 	H 	0.2562	0.9706	0.83	0.018
Mof_H 	H 	0.2022	0.9746	0.8013	0.073
Mof_O 	O 	0.1573	0.8876	0.7719	-0.423
Mof_N 	N 	0.1789	0.9375	0.8143	-0.114
Mof_C 	C 	0.1451	0.9194	0.7909	0.19
Mof_H 	H 	0.1018	0.9339	0.788	-0.034
Mof_C 	C 	0.1465	0.9493	0.8452	-0.246
Mof_H 	H 	0.097	0.9488	0.8427	0.095
Mof_H 	H 	0.1609	0.9818	0.8522	0.092
Mof_H 	H 	0.16	0.9252	0.8615	0.092
Mof_C 	C 	0.2513	0.9483	0.8132	-0.074
Mof_H 	H 	0.2772	0.9179	0.8148	0.163
Mof_H 	H 	0.2632	0.9696	0.8313	0.036
Mof_H 	H 	0.2622	0.9647	0.7929	-0.051
Mof_Cl	Cl	0.1145	0.8114	0.7356	0.442
Mof_Cu	Cu	0.18298	0.28863	0.6581	0.874
Mof_Cu	Cu	0.14292	0.3592	0.72711	0.92
Mof_Cl	Cl	0.22981	0.36801	0.69117	-0.539
Mof_N 	N 	0.1501	0.25842	0.75317	-0.098
Mof_N 	N 	0.1581	0.28743	0.72769	-0.154
Mof_N 	N 	0.168	0.26065	0.70176	-0.158
Mof_N 	N 	0.1653	0.21357	0.70943	-0.101
Mof_N 	N 	0.3096	0.09093	0.81556	-0.133
Mof_N 	N 	0.3405	0.07149	0.84124	-0.143
Mof_N 	N 	0.2981	0.06904	0.86517	-0.145
Mof_N 	N 	0.2376	0.08644	0.85655	-0.092
Mof_C 	C 	0.1541	0.2134	0.74107	0.046
Mof_C 	C 	0.1412	0.1692	0.76168	0.16
Mof_C 	C 	0.2027	0.1585	0.78326	-0.286
Mof_H 	H 	0.243	0.1517	0.7697	0.119
Mof_H 	H 	0.2128	0.1872	0.7968	0.117
Mof_C 	C 	0.1877	0.1145	0.80469	0.161
Mof_H 	H 	0.1342	0.1534	0.8399	0.12
Mof_H 	H 	0.0856	0.1325	0.726	0.101
Mof_C 	C 	0.0787	0.1802	0.78313	-0.27
Mof_H 	H 	0.0391	0.1879	0.7694	0.104
Mof_H 	H 	0.0883	0.2089	0.7969	0.107
Mof_C 	C 	0.2458	0.0997	0.82567	0.059
Mof_O 	O 	0.1219	0.4274	0.7277	-0.634
Mof_N 	N 	0.1365	0.5064	0.7418	-0.019
Mof_C 	C 	0.1563	0.4619	0.7367	-0.089
Mof_H 	H 	0.2031	0.4554	0.7403	0.018
Mof_C 	C 	0.066	0.521	0.7424	-0.315
Mof_H 	H 	0.0395	0.4991	0.7286	0.139
Mof_H 	H 	0.0619	0.5544	0.7344	0.12
Mof_H 	H 	0.0488	0.5192	0.7645	0.131
Mof_C 	C 	0.1873	0.5448	0.7474	-0.328
Mof_H 	H 	0.1787	0.5604	0.7682	0.144
Mof_H 	H 	0.1844	0.5691	0.7302	0.123
Mof_H 	H 	0.2328	0.5303	0.7475	0.125
Mof_O 	O 	0.0768	0.3439	0.7634	-0.113
Mof_N 	N 	0.0153	0.3442	0.8093	-0.192
Mof_C 	C 	0.0499	0.3657	0.7861	0.378
Mof_H 	H 	0.0544	0.4001	0.7869	-0.056
Mof_C 	C 	0.9861	0.3724	0.8359	-0.36
Mof_H 	H 	0.0196	0.3961	0.8436	0.127
Mof_H 	H 	0.9739	0.3503	0.8536	0.138
Mof_H 	H 	0.9455	0.3895	0.8284	0.133
Mof_C 	C 	0.0057	0.291	0.8084	-0.04
Mof_H 	H 	0.969	0.283	0.7934	0.094
Mof_H 	H 	0.9938	0.2794	0.83	0.018
Mof_H 	H 	0.0478	0.2754	0.8013	0.073
Mof_O 	O 	0.0927	0.3624	0.7719	-0.423
Mof_N 	N 	0.0711	0.3125	0.8143	-0.114
Mof_C 	C 	0.1049	0.3306	0.7909	0.19
Mof_H 	H 	0.1482	0.3161	0.788	-0.034
Mof_C 	C 	0.1035	0.3007	0.8452	-0.246
Mof_H 	H 	0.153	0.3012	0.8427	0.095
Mof_H 	H 	0.0891	0.2682	0.8522	0.092
Mof_H 	H 	0.09	0.3248	0.8615	0.092
Mof_C 	C 	0.9987	0.3017	0.8132	-0.074
Mof_H 	H 	0.9728	0.3321	0.8148	0.163
Mof_H 	H 	0.9868	0.2804	0.8313	0.036
Mof_H 	H 	0.9878	0.2853	0.7929	-0.051
Mof_Cl	Cl	0.1355	0.4386	0.7356	0.442
Mof_Cu	Cu	0.18298	0.78863	0.1581	0.874
Mof_Cu	Cu	0.14292	0.8592	0.22711	0.92
Mof_Cl	Cl	0.22981	0.86801	0.19117	-0.539
Mof_N 	N 	0.1501	0.75842	0.25317	-0.098
Mof_N 	N 	0.1581	0.78743	0.22769	-0.154
Mof_N 	N 	0.168	0.76065	0.20176	-0.158
Mof_N 	N 	0.1653	0.71357	0.20943	-0.101
Mof_N 	N 	0.3096	0.59093	0.31556	-0.133
Mof_N 	N 	0.3405	0.57149	0.34124	-0.143
Mof_N 	N 	0.2981	0.56904	0.36517	-0.145
Mof_N 	N 	0.2376	0.58644	0.35655	-0.092
Mof_C 	C 	0.1541	0.7134	0.24107	0.046
Mof_C 	C 	0.1412	0.6692	0.26168	0.16
Mof_C 	C 	0.2027	0.6585	0.28326	-0.286
Mof_H 	H 	0.243	0.6517	0.2697	0.119
Mof_H 	H 	0.2128	0.6872	0.2968	0.117
Mof_C 	C 	0.1877	0.6145	0.30469	0.161
Mof_H 	H 	0.1342	0.6534	0.3399	0.12
Mof_H 	H 	0.0856	0.6325	0.226	0.101
Mof_C 	C 	0.0787	0.6802	0.28313	-0.27
Mof_H 	H 	0.0391	0.6879	0.2694	0.104
Mof_H 	H 	0.0883	0.7089	0.2969	0.107
Mof_C 	C 	0.2458	0.5997	0.32567	0.059
Mof_O 	O 	0.1219	0.9274	0.2277	-0.634
Mof_N 	N 	0.1365	0.0064	0.2418	-0.019
Mof_C 	C 	0.1563	0.9619	0.2367	-0.089
Mof_H 	H 	0.2031	0.9554	0.2403	0.019
Mof_C 	C 	0.066	0.021	0.2424	-0.315
Mof_H 	H 	0.0395	0.9991	0.2286	0.138
Mof_H 	H 	0.0619	0.0544	0.2344	0.12
Mof_H 	H 	0.0488	0.0192	0.2645	0.131
Mof_C 	C 	0.1873	0.0448	0.2474	-0.328
Mof_H 	H 	0.1787	0.0604	0.2682	0.144
Mof_H 	H 	0.1844	0.0691	0.2302	0.123
Mof_H 	H 	0.2328	0.0303	0.2475	0.125
Mof_O 	O 	0.0768	0.8439	0.2634	-0.113
Mof_N 	N 	0.0153	0.8442	0.3093	-0.192
Mof_C 	C 	0.0499	0.8657	0.2861	0.378
Mof_H 	H 	0.0544	0.9001	0.2869	-0.056
Mof_C 	C 	0.9861	0.8724	0.3359	-0.359
Mof_H 	H 	0.0196	0.8961	0.3436	0.127
Mof_H 	H 	0.9739	0.8503	0.3536	0.138
Mof_H 	H 	0.9455	0.8895	0.3284	0.133
Mof_C 	C 	0.0057	0.791	0.3084	-0.04
Mof_H 	H 	0.969	0.783	0.2934	0.094
Mof_H 	H 	0.9938	0.7794	0.33	0.018
Mof_H 	H 	0.0478	0.7754	0.3013	0.073
Mof_O 	O 	0.0927	0.8624	0.2719	-0.423
Mof_N 	N 	0.0711	0.8125	0.3143	-0.114
Mof_C 	C 	0.1049	0.8306	0.2909	0.19
Mof_H 	H 	0.1482	0.8161	0.288	-0.034
Mof_C 	C 	0.1035	0.8007	0.3452	-0.246
Mof_H 	H 	0.153	0.8012	0.3427	0.095
Mof_H 	H 	0.0891	0.7682	0.3522	0.092
Mof_H 	H 	0.09	0.8248	0.3615	0.092
Mof_C 	C 	0.9987	0.8017	0.3132	-0.075
Mof_H 	H 	0.9728	0.8321	0.3148	0.163
Mof_H 	H 	0.9868	0.7804	0.3313	0.036
Mof_H 	H 	0.9878	0.7853	0.2929	-0.051
Mof_Cl	Cl	0.1355	0.9386	0.2356	0.442
Mof_Cu	Cu	0.68298	0.28863	0.1581	0.874
Mof_Cu	Cu	0.64292	0.3592	0.22711	0.92
Mof_Cl	Cl	0.72981	0.36801	0.19117	-0.539
Mof_N 	N 	0.6501	0.25842	0.25317	-0.098
Mof_N 	N 	0.6581	0.28743	0.22769	-0.154
Mof_N 	N 	0.668	0.26065	0.20176	-0.158
Mof_N 	N 	0.6653	0.21357	0.20943	-0.101
Mof_N 	N 	0.8096	0.09093	0.31556	-0.133
Mof_N 	N 	0.8405	0.07149	0.34124	-0.143
Mof_N 	N 	0.7981	0.06904	0.36517	-0.145
Mof_N 	N 	0.7376	0.08644	0.35655	-0.092
Mof_C 	C 	0.6541	0.2134	0.24107	0.046
Mof_C 	C 	0.6412	0.1692	0.26168	0.16
Mof_C 	C 	0.7027	0.1585	0.28326	-0.286
Mof_H 	H 	0.743	0.1517	0.2697	0.119
Mof_H 	H 	0.7128	0.1872	0.2968	0.117
Mof_C 	C 	0.6877	0.1145	0.30469	0.161
Mof_H 	H 	0.6342	0.1534	0.3399	0.12
Mof_H 	H 	0.5856	0.1325	0.226	0.101
Mof_C 	C 	0.5787	0.1802	0.28313	-0.27
Mof_H 	H 	0.5391	0.1879	0.2694	0.104
Mof_H 	H 	0.5883	0.2089	0.2969	0.107
Mof_C 	C 	0.7458	0.0997	0.32567	0.059
Mof_O 	O 	0.6219	0.4274	0.2277	-0.634
Mof_N 	N 	0.6365	0.5064	0.2418	-0.019
Mof_C 	C 	0.6563	0.4619	0.2367	-0.089
Mof_H 	H 	0.7031	0.4554	0.2403	0.018
Mof_C 	C 	0.566	0.521	0.2424	-0.315
Mof_H 	H 	0.5395	0.4991	0.2286	0.139
Mof_H 	H 	0.5619	0.5544	0.2344	0.12
Mof_H 	H 	0.5488	0.5192	0.2645	0.131
Mof_C 	C 	0.6873	0.5448	0.2474	-0.328
Mof_H 	H 	0.6787	0.5604	0.2682	0.144
Mof_H 	H 	0.6844	0.5691	0.2302	0.123
Mof_H 	H 	0.7328	0.5303	0.2475	0.125
Mof_O 	O 	0.5768	0.3439	0.2634	-0.113
Mof_N 	N 	0.5153	0.3442	0.3093	-0.192
Mof_C 	C 	0.5499	0.3657	0.2861	0.378
Mof_H 	H 	0.5544	0.4001	0.2869	-0.056
Mof_C 	C 	0.4861	0.3724	0.3359	-0.36
Mof_H 	H 	0.5196	0.3961	0.3436	0.127
Mof_H 	H 	0.4739	0.3503	0.3536	0.138
Mof_H 	H 	0.4455	0.3895	0.3284	0.133
Mof_C 	C 	0.5057	0.291	0.3084	-0.04
Mof_H 	H 	0.469	0.283	0.2934	0.094
Mof_H 	H 	0.4938	0.2794	0.33	0.018
Mof_H 	H 	0.5478	0.2754	0.3013	0.073
Mof_O 	O 	0.5927	0.3624	0.2719	-0.423
Mof_N 	N 	0.5711	0.3125	0.3143	-0.114
Mof_C 	C 	0.6049	0.3306	0.2909	0.19
Mof_H 	H 	0.6482	0.3161	0.288	-0.034
Mof_C 	C 	0.6035	0.3007	0.3452	-0.246
Mof_H 	H 	0.653	0.3012	0.3427	0.095
Mof_H 	H 	0.5891	0.2682	0.3522	0.092
Mof_H 	H 	0.59	0.3248	0.3615	0.092
Mof_C 	C 	0.4987	0.3017	0.3132	-0.074
Mof_H 	H 	0.4728	0.3321	0.3148	0.163
Mof_H 	H 	0.4868	0.2804	0.3313	0.036
Mof_H 	H 	0.4878	0.2853	0.2929	-0.051
Mof_Cl	Cl	0.6355	0.4386	0.2356	0.442
Mof_Cu	Cu	0.68298	0.78863	0.6581	0.874
Mof_Cu	Cu	0.64292	0.8592	0.72711	0.92
Mof_Cl	Cl	0.72981	0.86801	0.69117	-0.539
Mof_N 	N 	0.6501	0.75842	0.75317	-0.098
Mof_N 	N 	0.6581	0.78743	0.72769	-0.154
Mof_N 	N 	0.668	0.76065	0.70176	-0.158
Mof_N 	N 	0.6653	0.71357	0.70943	-0.101
Mof_N 	N 	0.8096	0.59093	0.81556	-0.133
Mof_N 	N 	0.8405	0.57149	0.84124	-0.143
Mof_N 	N 	0.7981	0.56904	0.86517	-0.145
Mof_N 	N 	0.7376	0.58644	0.85655	-0.092
Mof_C 	C 	0.6541	0.7134	0.74107	0.046
Mof_C 	C 	0.6412	0.6692	0.76168	0.16
Mof_C 	C 	0.7027	0.6585	0.78326	-0.286
Mof_H 	H 	0.743	0.6517	0.7697	0.119
Mof_H 	H 	0.7128	0.6872	0.7968	0.117
Mof_C 	C 	0.6877	0.6145	0.80469	0.161
Mof_H 	H 	0.6342	0.6534	0.8399	0.12
Mof_H 	H 	0.5856	0.6325	0.726	0.101
Mof_C 	C 	0.5787	0.6802	0.78313	-0.27
Mof_H 	H 	0.5391	0.6879	0.7694	0.104
Mof_H 	H 	0.5883	0.7089	0.7969	0.107
Mof_C 	C 	0.7458	0.5997	0.82567	0.059
Mof_O 	O 	0.6219	0.9274	0.7277	-0.634
Mof_N 	N 	0.6365	0.0064	0.7418	-0.019
Mof_C 	C 	0.6563	0.9619	0.7367	-0.089
Mof_H 	H 	0.7031	0.9554	0.7403	0.018
Mof_C 	C 	0.566	0.021	0.7424	-0.316
Mof_H 	H 	0.5395	0.9991	0.7286	0.139
Mof_H 	H 	0.5619	0.0544	0.7344	0.12
Mof_H 	H 	0.5488	0.0192	0.7645	0.131
Mof_C 	C 	0.6873	0.0448	0.7474	-0.328
Mof_H 	H 	0.6787	0.0604	0.7682	0.144
Mof_H 	H 	0.6844	0.0691	0.7302	0.123
Mof_H 	H 	0.7328	0.0303	0.7475	0.125
Mof_O 	O 	0.5768	0.8439	0.7634	-0.113
Mof_N 	N 	0.5153	0.8442	0.8093	-0.192
Mof_C 	C 	0.5499	0.8657	0.7861	0.378
Mof_H 	H 	0.5544	0.9001	0.7869	-0.056
Mof_C 	C 	0.4861	0.8724	0.8359	-0.36
Mof_H 	H 	0.5196	0.8961	0.8436	0.127
Mof_H 	H 	0.4739	0.8503	0.8536	0.138
Mof_H 	H 	0.4455	0.8895	0.8284	0.133
Mof_C 	C 	0.5057	0.791	0.8084	-0.04
Mof_H 	H 	0.469	0.783	0.7934	0.094
Mof_H 	H 	0.4938	0.7794	0.83	0.018
Mof_H 	H 	0.5478	0.7754	0.8013	0.073
Mof_O 	O 	0.5927	0.8624	0.7719	-0.423
Mof_N 	N 	0.5711	0.8125	0.8143	-0.114
Mof_C 	C 	0.6049	0.8306	0.7909	0.19
Mof_H 	H 	0.6482	0.8161	0.788	-0.034
Mof_C 	C 	0.6035	0.8007	0.8452	-0.246
Mof_H 	H 	0.653	0.8012	0.8427	0.095
Mof_H 	H 	0.5891	0.7682	0.8522	0.092
Mof_H 	H 	0.59	0.8248	0.8615	0.092
Mof_C 	C 	0.4987	0.8017	0.8132	-0.074
Mof_H 	H 	0.4728	0.8321	0.8148	0.163
Mof_H 	H 	0.4868	0.7804	0.8313	0.036
Mof_H 	H 	0.4878	0.7853	0.7929	-0.051
Mof_Cl	Cl	0.6355	0.9386	0.7356	0.442
Mof_Cu	Cu	0.81702	0.53863	0.9081	0.874
Mof_Cu	Cu	0.85708	0.6092	0.97711	0.92
Mof_Cl	Cl	0.77019	0.61801	0.94117	-0.539
Mof_N 	N 	0.8499	0.50842	0.00317	-0.098
Mof_N 	N 	0.8419	0.53743	0.97769	-0.154
Mof_N 	N 	0.832	0.51065	0.95176	-0.158
Mof_N 	N 	0.8347	0.46357	0.95943	-0.101
Mof_N 	N 	0.6904	0.34093	0.06556	-0.133
Mof_N 	N 	0.6595	0.32149	0.09124	-0.143
Mof_N 	N 	0.7019	0.31904	0.11517	-0.145
Mof_N 	N 	0.7624	0.33644	0.10655	-0.092
Mof_C 	C 	0.8459	0.4634	0.99107	0.046
Mof_C 	C 	0.8588	0.4192	0.01168	0.16
Mof_C 	C 	0.7973	0.4085	0.03326	-0.286
Mof_H 	H 	0.757	0.4017	0.0197	0.119
Mof_H 	H 	0.7872	0.4372	0.0468	0.117
Mof_C 	C 	0.8123	0.3645	0.05469	0.161
Mof_H 	H 	0.8658	0.4034	0.0899	0.12
Mof_H 	H 	0.9144	0.3825	0.976	0.101
Mof_C 	C 	0.9213	0.4302	0.03313	-0.27
Mof_H 	H 	0.9609	0.4379	0.0194	0.104
Mof_H 	H 	0.9117	0.4589	0.0469	0.107
Mof_C 	C 	0.7542	0.3497	0.07567	0.059
Mof_O 	O 	0.8781	0.6774	0.9777	-0.634
Mof_N 	N 	0.8635	0.7564	0.9918	-0.019
Mof_C 	C 	0.8437	0.7119	0.9867	-0.089
Mof_H 	H 	0.7969	0.7054	0.9903	0.019
Mof_C 	C 	0.934	0.771	0.9924	-0.315
Mof_H 	H 	0.9605	0.7491	0.9786	0.139
Mof_H 	H 	0.9381	0.8044	0.9844	0.12
Mof_H 	H 	0.9512	0.7692	0.0145	0.13
Mof_C 	C 	0.8127	0.7948	0.9974	-0.328
Mof_H 	H 	0.8213	0.8104	0.0182	0.143
Mof_H 	H 	0.8156	0.8191	0.9802	0.123
Mof_H 	H 	0.7672	0.7803	0.9975	0.125
Mof_O 	O 	0.9232	0.5939	0.0134	-0.113
Mof_N 	N 	0.9847	0.5942	0.0593	-0.192
Mof_C 	C 	0.9501	0.6157	0.0361	0.378
Mof_H 	H 	0.9456	0.6501	0.0369	-0.056
Mof_C 	C 	0.0139	0.6224	0.0859	-0.36
Mof_H 	H 	0.9804	0.6461	0.0936	0.127
Mof_H 	H 	0.0261	0.6003	0.1036	0.138
Mof_H 	H 	0.0545	0.6395	0.0784	0.133
Mof_C 	C 	0.9943	0.541	0.0584	-0.04
Mof_H 	H 	0.031	0.533	0.0434	0.094
Mof_H 	H 	0.0062	0.5294	0.08	0.018
Mof_H 	H 	0.9522	0.5254	0.0513	0.073
Mof_O 	O 	0.9073	0.6124	0.0219	-0.423
Mof_N 	N 	0.9289	0.5625	0.0643	-0.114
Mof_C 	C 	0.8951	0.5806	0.0409	0.19
Mof_H 	H 	0.8518	0.5661	0.038	-0.034
Mof_C 	C 	0.8965	0.5507	0.0952	-0.246
Mof_H 	H 	0.847	0.5512	0.0927	0.095
Mof_H 	H 	0.9109	0.5182	0.1022	0.092
Mof_H 	H 	0.91	0.5748	0.1115	0.092
Mof_C 	C 	0.0013	0.5517	0.0632	-0.074
Mof_H 	H 	0.0272	0.5821	0.0648	0.163
Mof_H 	H 	0.0132	0.5304	0.0813	0.036
Mof_H 	H 	0.0122	0.5353	0.0429	-0.051
Mof_Cl	Cl	0.8645	0.6886	0.9856	0.442
Mof_Cu	Cu	0.81702	0.03863	0.4081	0.874
Mof_Cu	Cu	0.85708	0.1092	0.47711	0.92
Mof_Cl	Cl	0.77019	0.11801	0.44117	-0.539
Mof_N 	N 	0.8499	0.00842	0.50317	-0.098
Mof_N 	N 	0.8419	0.03743	0.47769	-0.154
Mof_N 	N 	0.832	0.01065	0.45176	-0.158
Mof_N 	N 	0.8347	0.96357	0.45943	-0.1
Mof_N 	N 	0.6904	0.84093	0.56556	-0.133
Mof_N 	N 	0.6595	0.82149	0.59124	-0.143
Mof_N 	N 	0.7019	0.81904	0.61517	-0.145
Mof_N 	N 	0.7624	0.83644	0.60655	-0.092
Mof_C 	C 	0.8459	0.9634	0.49107	0.046
Mof_C 	C 	0.8588	0.9192	0.51168	0.16
Mof_C 	C 	0.7973	0.9085	0.53326	-0.286
Mof_H 	H 	0.757	0.9017	0.5197	0.119
Mof_H 	H 	0.7872	0.9372	0.5468	0.117
Mof_C 	C 	0.8123	0.8645	0.55469	0.161
Mof_H 	H 	0.8658	0.9034	0.5899	0.12
Mof_H 	H 	0.9144	0.8825	0.476	0.101
Mof_C 	C 	0.9213	0.9302	0.53313	-0.27
Mof_H 	H 	0.9609	0.9379	0.5194	0.104
Mof_H 	H 	0.9117	0.9589	0.5469	0.107
Mof_C 	C 	0.7542	0.8497	0.57567	0.059
Mof_O 	O 	0.8781	0.1774	0.4777	-0.634
Mof_N 	N 	0.8635	0.2564	0.4918	-0.019
Mof_C 	C 	0.8437	0.2119	0.4867	-0.089
Mof_H 	H 	0.7969	0.2054	0.4903	0.018
Mof_C 	C 	0.934	0.271	0.4924	-0.315
Mof_H 	H 	0.9605	0.2491	0.4786	0.139
Mof_H 	H 	0.9381	0.3044	0.4844	0.12
Mof_H 	H 	0.9512	0.2692	0.5145	0.131
Mof_C 	C 	0.8127	0.2948	0.4974	-0.328
Mof_H 	H 	0.8213	0.3104	0.5182	0.144
Mof_H 	H 	0.8156	0.3191	0.4802	0.123
Mof_H 	H 	0.7672	0.2803	0.4975	0.125
Mof_O 	O 	0.9232	0.0939	0.5134	-0.113
Mof_N 	N 	0.9847	0.0942	0.5593	-0.192
Mof_C 	C 	0.9501	0.1157	0.5361	0.378
Mof_H 	H 	0.9456	0.1501	0.5369	-0.056
Mof_C 	C 	0.0139	0.1224	0.5859	-0.359
Mof_H 	H 	0.9804	0.1461	0.5936	0.127
Mof_H 	H 	0.0261	0.1003	0.6036	0.138
Mof_H 	H 	0.0545	0.1395	0.5784	0.133
Mof_C 	C 	0.9943	0.041	0.5584	-0.04
Mof_H 	H 	0.031	0.033	0.5434	0.094
Mof_H 	H 	0.0062	0.0294	0.58	0.018
Mof_H 	H 	0.9522	0.0254	0.5513	0.073
Mof_O 	O 	0.9073	0.1124	0.5219	-0.423
Mof_N 	N 	0.9289	0.0625	0.5643	-0.114
Mof_C 	C 	0.8951	0.0806	0.5409	0.19
Mof_H 	H 	0.8518	0.0661	0.538	-0.034
Mof_C 	C 	0.8965	0.0507	0.5952	-0.246
Mof_H 	H 	0.847	0.0512	0.5927	0.095
Mof_H 	H 	0.9109	0.0182	0.6022	0.092
Mof_H 	H 	0.91	0.0748	0.6115	0.092
Mof_C 	C 	0.0013	0.0517	0.5632	-0.075
Mof_H 	H 	0.0272	0.0821	0.5648	0.163
Mof_H 	H 	0.0132	0.0304	0.5813	0.037
Mof_H 	H 	0.0122	0.0353	0.5429	-0.051
Mof_Cl	Cl	0.8645	0.1886	0.4856	0.442
Mof_Cu	Cu	0.31702	0.53863	0.4081	0.874
Mof_Cu	Cu	0.35708	0.6092	0.47711	0.92
Mof_Cl	Cl	0.27019	0.61801	0.44117	-0.539
Mof_N 	N 	0.3499	0.50842	0.50317	-0.098
Mof_N 	N 	0.3419	0.53743	0.47769	-0.154
Mof_N 	N 	0.332	0.51065	0.45176	-0.158
Mof_N 	N 	0.3347	0.46357	0.45943	-0.101
Mof_N 	N 	0.1904	0.34093	0.56556	-0.133
Mof_N 	N 	0.1595	0.32149	0.59124	-0.143
Mof_N 	N 	0.2019	0.31904	0.61517	-0.145
Mof_N 	N 	0.2624	0.33644	0.60655	-0.092
Mof_C 	C 	0.3459	0.4634	0.49107	0.046
Mof_C 	C 	0.3588	0.4192	0.51168	0.16
Mof_C 	C 	0.2973	0.4085	0.53326	-0.286
Mof_H 	H 	0.257	0.4017	0.5197	0.119
Mof_H 	H 	0.2872	0.4372	0.5468	0.117
Mof_C 	C 	0.3123	0.3645	0.55469	0.161
Mof_H 	H 	0.3658	0.4034	0.5899	0.12
Mof_H 	H 	0.4144	0.3825	0.476	0.101
Mof_C 	C 	0.4213	0.4302	0.53313	-0.27
Mof_H 	H 	0.4609	0.4379	0.5194	0.104
Mof_H 	H 	0.4117	0.4589	0.5469	0.107
Mof_C 	C 	0.2542	0.3497	0.57567	0.059
Mof_O 	O 	0.3781	0.6774	0.4777	-0.634
Mof_N 	N 	0.3635	0.7564	0.4918	-0.019
Mof_C 	C 	0.3437	0.7119	0.4867	-0.089
Mof_H 	H 	0.2969	0.7054	0.4903	0.018
Mof_C 	C 	0.434	0.771	0.4924	-0.315
Mof_H 	H 	0.4605	0.7491	0.4786	0.139
Mof_H 	H 	0.4381	0.8044	0.4844	0.12
Mof_H 	H 	0.4512	0.7692	0.5145	0.131
Mof_C 	C 	0.3127	0.7948	0.4974	-0.328
Mof_H 	H 	0.3213	0.8104	0.5182	0.144
Mof_H 	H 	0.3156	0.8191	0.4802	0.123
Mof_H 	H 	0.2672	0.7803	0.4975	0.125
Mof_O 	O 	0.4232	0.5939	0.5134	-0.113
Mof_N 	N 	0.4847	0.5942	0.5593	-0.192
Mof_C 	C 	0.4501	0.6157	0.5361	0.378
Mof_H 	H 	0.4456	0.6501	0.5369	-0.056
Mof_C 	C 	0.5139	0.6224	0.5859	-0.36
Mof_H 	H 	0.4804	0.6461	0.5936	0.127
Mof_H 	H 	0.5261	0.6003	0.6036	0.138
Mof_H 	H 	0.5545	0.6395	0.5784	0.133
Mof_C 	C 	0.4943	0.541	0.5584	-0.04
Mof_H 	H 	0.531	0.533	0.5434	0.094
Mof_H 	H 	0.5062	0.5294	0.58	0.018
Mof_H 	H 	0.4522	0.5254	0.5513	0.073
Mof_O 	O 	0.4073	0.6124	0.5219	-0.423
Mof_N 	N 	0.4289	0.5625	0.5643	-0.114
Mof_C 	C 	0.3951	0.5806	0.5409	0.19
Mof_H 	H 	0.3518	0.5661	0.538	-0.034
Mof_C 	C 	0.3965	0.5507	0.5952	-0.246
Mof_H 	H 	0.347	0.5512	0.5927	0.095
Mof_H 	H 	0.4109	0.5182	0.6022	0.092
Mof_H 	H 	0.41	0.5748	0.6115	0.092
Mof_C 	C 	0.5013	0.5517	0.5632	-0.074
Mof_H 	H 	0.5272	0.5821	0.5648	0.163
Mof_H 	H 	0.5132	0.5304	0.5813	0.036
Mof_H 	H 	0.5122	0.5353	0.5429	-0.051
Mof_Cl	Cl	0.3645	0.6886	0.4856	0.442
Mof_Cu	Cu	0.31702	0.03863	0.9081	0.874
Mof_Cu	Cu	0.35708	0.1092	0.97711	0.92
Mof_Cl	Cl	0.27019	0.11801	0.94117	-0.539
Mof_N 	N 	0.3499	0.00842	0.00317	-0.098
Mof_N 	N 	0.3419	0.03743	0.97769	-0.154
Mof_N 	N 	0.332	0.01065	0.95176	-0.158
Mof_N 	N 	0.3347	0.96357	0.95943	-0.101
Mof_N 	N 	0.1904	0.84093	0.06556	-0.133
Mof_N 	N 	0.1595	0.82149	0.09124	-0.143
Mof_N 	N 	0.2019	0.81904	0.11517	-0.145
Mof_N 	N 	0.2624	0.83644	0.10655	-0.092
Mof_C 	C 	0.3459	0.9634	0.99107	0.046
Mof_C 	C 	0.3588	0.9192	0.01168	0.16
Mof_C 	C 	0.2973	0.9085	0.03326	-0.286
Mof_H 	H 	0.257	0.9017	0.0197	0.119
Mof_H 	H 	0.2872	0.9372	0.0468	0.117
Mof_C 	C 	0.3123	0.8645	0.05469	0.161
Mof_H 	H 	0.3658	0.9034	0.0899	0.12
Mof_H 	H 	0.4144	0.8825	0.976	0.101
Mof_C 	C 	0.4213	0.9302	0.03313	-0.27
Mof_H 	H 	0.4609	0.9379	0.0194	0.104
Mof_H 	H 	0.4117	0.9589	0.0469	0.107
Mof_C 	C 	0.2542	0.8497	0.07567	0.059
Mof_O 	O 	0.3781	0.1774	0.9777	-0.634
Mof_N 	N 	0.3635	0.2564	0.9918	-0.019
Mof_C 	C 	0.3437	0.2119	0.9867	-0.089
Mof_H 	H 	0.2969	0.2054	0.9903	0.018
Mof_C 	C 	0.434	0.271	0.9924	-0.316
Mof_H 	H 	0.4605	0.2491	0.9786	0.139
Mof_H 	H 	0.4381	0.3044	0.9844	0.12
Mof_H 	H 	0.4512	0.2692	0.0145	0.131
Mof_C 	C 	0.3127	0.2948	0.9974	-0.328
Mof_H 	H 	0.3213	0.3104	0.0182	0.144
Mof_H 	H 	0.3156	0.3191	0.9802	0.123
Mof_H 	H 	0.2672	0.2803	0.9975	0.125
Mof_O 	O 	0.4232	0.0939	0.0134	-0.113
Mof_N 	N 	0.4847	0.0942	0.0593	-0.192
Mof_C 	C 	0.4501	0.1157	0.0361	0.378
Mof_H 	H 	0.4456	0.1501	0.0369	-0.056
Mof_C 	C 	0.5139	0.1224	0.0859	-0.36
Mof_H 	H 	0.4804	0.1461	0.0936	0.127
Mof_H 	H 	0.5261	0.1003	0.1036	0.138
Mof_H 	H 	0.5545	0.1395	0.0784	0.133
Mof_C 	C 	0.4943	0.041	0.0584	-0.04
Mof_H 	H 	0.531	0.033	0.0434	0.094
Mof_H 	H 	0.5062	0.0294	0.08	0.018
Mof_H 	H 	0.4522	0.0254	0.0513	0.073
Mof_O 	O 	0.4073	0.1124	0.0219	-0.423
Mof_N 	N 	0.4289	0.0625	0.0643	-0.114
Mof_C 	C 	0.3951	0.0806	0.0409	0.19
Mof_H 	H 	0.3518	0.0661	0.038	-0.034
Mof_C 	C 	0.3965	0.0507	0.0952	-0.246
Mof_H 	H 	0.347	0.0512	0.0927	0.095
Mof_H 	H 	0.4109	0.0182	0.1022	0.092
Mof_H 	H 	0.41	0.0748	0.1115	0.092
Mof_C 	C 	0.5013	0.0517	0.0632	-0.074
Mof_H 	H 	0.5272	0.0821	0.0648	0.163
Mof_H 	H 	0.5132	0.0304	0.0813	0.036
Mof_H 	H 	0.5122	0.0353	0.0429	-0.051
Mof_Cl	Cl	0.3645	0.1886	0.9856	0.442
Mof_Cu	Cu	0.43298	0.71137	0.9081	0.874
Mof_Cu	Cu	0.39292	0.6408	0.97711	0.92
Mof_Cl	Cl	0.47981	0.63199	0.94117	-0.539
Mof_N 	N 	0.4001	0.74158	0.00317	-0.098
Mof_N 	N 	0.4081	0.71257	0.97769	-0.154
Mof_N 	N 	0.418	0.73935	0.95176	-0.158
Mof_N 	N 	0.4153	0.78643	0.95943	-0.101
Mof_N 	N 	0.5596	0.90907	0.06556	-0.133
Mof_N 	N 	0.5905	0.92851	0.09124	-0.143
Mof_N 	N 	0.5481	0.93096	0.11517	-0.145
Mof_N 	N 	0.4876	0.91356	0.10655	-0.092
Mof_C 	C 	0.4041	0.7866	0.99107	0.047
Mof_C 	C 	0.3912	0.8308	0.01168	0.16
Mof_C 	C 	0.4527	0.8415	0.03326	-0.286
Mof_H 	H 	0.493	0.8483	0.0197	0.119
Mof_H 	H 	0.4628	0.8128	0.0468	0.117
Mof_C 	C 	0.4377	0.8855	0.05469	0.161
Mof_H 	H 	0.3842	0.8466	0.0899	0.12
Mof_H 	H 	0.3356	0.8675	0.976	0.101
Mof_C 	C 	0.3287	0.8198	0.03313	-0.27
Mof_H 	H 	0.2891	0.8121	0.0194	0.104
Mof_H 	H 	0.3383	0.7911	0.0469	0.107
Mof_C 	C 	0.4958	0.9003	0.07567	0.059
Mof_O 	O 	0.3719	0.5726	0.9777	-0.634
Mof_N 	N 	0.3865	0.4936	0.9918	-0.019
Mof_C 	C 	0.4063	0.5381	0.9867	-0.089
Mof_H 	H 	0.4531	0.5446	0.9903	0.019
Mof_C 	C 	0.316	0.479	0.9924	-0.315
Mof_H 	H 	0.2895	0.5009	0.9786	0.139
Mof_H 	H 	0.3119	0.4456	0.9844	0.12
Mof_H 	H 	0.2988	0.4808	0.0145	0.131
Mof_C 	C 	0.4373	0.4552	0.9974	-0.328
Mof_H 	H 	0.4287	0.4396	0.0182	0.144
Mof_H 	H 	0.4344	0.4309	0.9802	0.123
Mof_H 	H 	0.4828	0.4697	0.9975	0.125
Mof_O 	O 	0.3268	0.6561	0.0134	-0.113
Mof_N 	N 	0.2653	0.6558	0.0593	-0.192
Mof_C 	C 	0.2999	0.6343	0.0361	0.378
Mof_H 	H 	0.3044	0.5999	0.0369	-0.056
Mof_C 	C 	0.2361	0.6276	0.0859	-0.36
Mof_H 	H 	0.2696	0.6039	0.0936	0.127
Mof_H 	H 	0.2239	0.6497	0.1036	0.138
Mof_H 	H 	0.1955	0.6105	0.0784	0.133
Mof_C 	C 	0.2557	0.709	0.0584	-0.04
Mof_H 	H 	0.219	0.717	0.0434	0.094
Mof_H 	H 	0.2438	0.7206	0.08	0.018
Mof_H 	H 	0.2978	0.7246	0.0513	0.073
Mof_O 	O 	0.3427	0.6376	0.0219	-0.423
Mof_N 	N 	0.3211	0.6875	0.0643	-0.114
Mof_C 	C 	0.3549	0.6694	0.0409	0.19
Mof_H 	H 	0.3982	0.6839	0.038	-0.034
Mof_C 	C 	0.3535	0.6993	0.0952	-0.246
Mof_H 	H 	0.403	0.6988	0.0927	0.095
Mof_H 	H 	0.3391	0.7318	0.1022	0.092
Mof_H 	H 	0.34	0.6752	0.1115	0.092
Mof_C 	C 	0.2487	0.6983	0.0632	-0.074
Mof_H 	H 	0.2228	0.6679	0.0648	0.163
Mof_H 	H 	0.2368	0.7196	0.0813	0.036
Mof_H 	H 	0.2378	0.7147	0.0429	-0.051
Mof_Cl	Cl	0.3855	0.5614	0.9856	0.442
Mof_Cu	Cu	0.43298	0.21137	0.4081	0.874
Mof_Cu	Cu	0.39292	0.1408	0.47711	0.92
Mof_Cl	Cl	0.47981	0.13199	0.44117	-0.539
Mof_N 	N 	0.4001	0.24158	0.50317	-0.098
Mof_N 	N 	0.4081	0.21257	0.47769	-0.154
Mof_N 	N 	0.418	0.23935	0.45176	-0.158
Mof_N 	N 	0.4153	0.28643	0.45943	-0.101
Mof_N 	N 	0.5596	0.40907	0.56556	-0.133
Mof_N 	N 	0.5905	0.42851	0.59124	-0.143
Mof_N 	N 	0.5481	0.43096	0.61517	-0.145
Mof_N 	N 	0.4876	0.41356	0.60655	-0.092
Mof_C 	C 	0.4041	0.2866	0.49107	0.046
Mof_C 	C 	0.3912	0.3308	0.51168	0.16
Mof_C 	C 	0.4527	0.3415	0.53326	-0.286
Mof_H 	H 	0.493	0.3483	0.5197	0.119
Mof_H 	H 	0.4628	0.3128	0.5468	0.117
Mof_C 	C 	0.4377	0.3855	0.55469	0.161
Mof_H 	H 	0.3842	0.3466	0.5899	0.12
Mof_H 	H 	0.3356	0.3675	0.476	0.101
Mof_C 	C 	0.3287	0.3198	0.53313	-0.27
Mof_H 	H 	0.2891	0.3121	0.5194	0.104
Mof_H 	H 	0.3383	0.2911	0.5469	0.107
Mof_C 	C 	0.4958	0.4003	0.57567	0.059
Mof_O 	O 	0.3719	0.0726	0.4777	-0.634
Mof_N 	N 	0.3865	0.9936	0.4918	-0.019
Mof_C 	C 	0.4063	0.0381	0.4867	-0.089
Mof_H 	H 	0.4531	0.0446	0.4903	0.018
Mof_C 	C 	0.316	0.979	0.4924	-0.316
Mof_H 	H 	0.2895	0.0009	0.4786	0.139
Mof_H 	H 	0.3119	0.9456	0.4844	0.12
Mof_H 	H 	0.2988	0.9808	0.5145	0.131
Mof_C 	C 	0.4373	0.9552	0.4974	-0.328
Mof_H 	H 	0.4287	0.9396	0.5182	0.144
Mof_H 	H 	0.4344	0.9309	0.4802	0.123
Mof_H 	H 	0.4828	0.9697	0.4975	0.125
Mof_O 	O 	0.3268	0.1561	0.5134	-0.113
Mof_N 	N 	0.2653	0.1558	0.5593	-0.192
Mof_C 	C 	0.2999	0.1343	0.5361	0.378
Mof_H 	H 	0.3044	0.0999	0.5369	-0.056
Mof_C 	C 	0.2361	0.1276	0.5859	-0.36
Mof_H 	H 	0.2696	0.1039	0.5936	0.127
Mof_H 	H 	0.2239	0.1497	0.6036	0.138
Mof_H 	H 	0.1955	0.1105	0.5784	0.133
Mof_C 	C 	0.2557	0.209	0.5584	-0.04
Mof_H 	H 	0.219	0.217	0.5434	0.094
Mof_H 	H 	0.2438	0.2206	0.58	0.018
Mof_H 	H 	0.2978	0.2246	0.5513	0.073
Mof_O 	O 	0.3427	0.1376	0.5219	-0.423
Mof_N 	N 	0.3211	0.1875	0.5643	-0.114
Mof_C 	C 	0.3549	0.1694	0.5409	0.19
Mof_H 	H 	0.3982	0.1839	0.538	-0.034
Mof_C 	C 	0.3535	0.1993	0.5952	-0.246
Mof_H 	H 	0.403	0.1988	0.5927	0.095
Mof_H 	H 	0.3391	0.2318	0.6022	0.092
Mof_H 	H 	0.34	0.1752	0.6115	0.092
Mof_C 	C 	0.2487	0.1983	0.5632	-0.074
Mof_H 	H 	0.2228	0.1679	0.5648	0.163
Mof_H 	H 	0.2368	0.2196	0.5813	0.036
Mof_H 	H 	0.2378	0.2147	0.5429	-0.051
Mof_Cl	Cl	0.3855	0.0614	0.4856	0.442
Mof_Cu	Cu	0.93298	0.71137	0.4081	0.874
Mof_Cu	Cu	0.89292	0.6408	0.47711	0.92
Mof_Cl	Cl	0.97981	0.63199	0.44117	-0.539
Mof_N 	N 	0.9001	0.74158	0.50317	-0.098
Mof_N 	N 	0.9081	0.71257	0.47769	-0.154
Mof_N 	N 	0.918	0.73935	0.45176	-0.158
Mof_N 	N 	0.9153	0.78643	0.45943	-0.101
Mof_N 	N 	0.0596	0.90907	0.56556	-0.133
Mof_N 	N 	0.0905	0.92851	0.59124	-0.143
Mof_N 	N 	0.0481	0.93096	0.61517	-0.145
Mof_N 	N 	0.9876	0.91356	0.60655	-0.092
Mof_C 	C 	0.9041	0.7866	0.49107	0.046
Mof_C 	C 	0.8912	0.8308	0.51168	0.16
Mof_C 	C 	0.9527	0.8415	0.53326	-0.286
Mof_H 	H 	0.993	0.8483	0.5197	0.119
Mof_H 	H 	0.9628	0.8128	0.5468	0.117
Mof_C 	C 	0.9377	0.8855	0.55469	0.161
Mof_H 	H 	0.8842	0.8466	0.5899	0.12
Mof_H 	H 	0.8356	0.8675	0.476	0.101
Mof_C 	C 	0.8287	0.8198	0.53313	-0.27
Mof_H 	H 	0.7891	0.8121	0.5194	0.104
Mof_H 	H 	0.8383	0.7911	0.5469	0.107
Mof_C 	C 	0.9958	0.9003	0.57567	0.059
Mof_O 	O 	0.8719	0.5726	0.4777	-0.634
Mof_N 	N 	0.8865	0.4936	0.4918	-0.019
Mof_C 	C 	0.9063	0.5381	0.4867	-0.089
Mof_H 	H 	0.9531	0.5446	0.4903	0.018
Mof_C 	C 	0.816	0.479	0.4924	-0.315
Mof_H 	H 	0.7895	0.5009	0.4786	0.139
Mof_H 	H 	0.8119	0.4456	0.4844	0.12
Mof_H 	H 	0.7988	0.4808	0.5145	0.131
Mof_C 	C 	0.9373	0.4552	0.4974	-0.328
Mof_H 	H 	0.9287	0.4396	0.5182	0.144
Mof_H 	H 	0.9344	0.4309	0.4802	0.123
Mof_H 	H 	0.9828	0.4697	0.4975	0.125
Mof_O 	O 	0.8268	0.6561	0.5134	-0.113
Mof_N 	N 	0.7653	0.6558	0.5593	-0.192
Mof_C 	C 	0.7999	0.6343	0.5361	0.378
Mof_H 	H 	0.8044	0.5999	0.5369	-0.056
Mof_C 	C 	0.7361	0.6276	0.5859	-0.36
Mof_H 	H 	0.7696	0.6039	0.5936	0.127
Mof_H 	H 	0.7239	0.6497	0.6036	0.138
Mof_H 	H 	0.6955	0.6105	0.5784	0.133
Mof_C 	C 	0.7557	0.709	0.5584	-0.04
Mof_H 	H 	0.719	0.717	0.5434	0.094
Mof_H 	H 	0.7438	0.7206	0.58	0.018
Mof_H 	H 	0.7978	0.7246	0.5513	0.073
Mof_O 	O 	0.8427	0.6376	0.5219	-0.423
Mof_N 	N 	0.8211	0.6875	0.5643	-0.114
Mof_C 	C 	0.8549	0.6694	0.5409	0.19
Mof_H 	H 	0.8982	0.6839	0.538	-0.034
Mof_C 	C 	0.8535	0.6993	0.5952	-0.246
Mof_H 	H 	0.903	0.6988	0.5927	0.095
Mof_H 	H 	0.8391	0.7318	0.6022	0.092
Mof_H 	H 	0.84	0.6752	0.6115	0.092
Mof_C 	C 	0.7487	0.6983	0.5632	-0.074
Mof_H 	H 	0.7228	0.6679	0.5648	0.163
Mof_H 	H 	0.7368	0.7196	0.5813	0.036
Mof_H 	H 	0.7378	0.7147	0.5429	-0.051
Mof_Cl	Cl	0.8855	0.5614	0.4856	0.442
Mof_Cu	Cu	0.93298	0.21137	0.9081	0.874
Mof_Cu	Cu	0.89292	0.1408	0.97711	0.92
Mof_Cl	Cl	0.97981	0.13199	0.94117	-0.539
Mof_N 	N 	0.9001	0.24158	0.00317	-0.098
Mof_N 	N 	0.9081	0.21257	0.97769	-0.154
Mof_N 	N 	0.918	0.23935	0.95176	-0.158
Mof_N 	N 	0.9153	0.28643	0.95943	-0.101
Mof_N 	N 	0.0596	0.40907	0.06556	-0.133
Mof_N 	N 	0.0905	0.42851	0.09124	-0.143
Mof_N 	N 	0.0481	0.43096	0.11517	-0.145
Mof_N 	N 	0.9876	0.41356	0.10655	-0.092
Mof_C 	C 	0.9041	0.2866	0.99107	0.046
Mof_C 	C 	0.8912	0.3308	0.01168	0.16
Mof_C 	C 	0.9527	0.3415	0.03326	-0.286
Mof_H 	H 	0.993	0.3483	0.0197	0.119
Mof_H 	H 	0.9628	0.3128	0.0468	0.117
Mof_C 	C 	0.9377	0.3855	0.05469	0.161
Mof_H 	H 	0.8842	0.3466	0.0899	0.12
Mof_H 	H 	0.8356	0.3675	0.976	0.101
Mof_C 	C 	0.8287	0.3198	0.03313	-0.27
Mof_H 	H 	0.7891	0.3121	0.0194	0.104
Mof_H 	H 	0.8383	0.2911	0.0469	0.107
Mof_C 	C 	0.9958	0.4003	0.07567	0.059
Mof_O 	O 	0.8719	0.0726	0.9777	-0.634
Mof_N 	N 	0.8865	0.9936	0.9918	-0.019
Mof_C 	C 	0.9063	0.0381	0.9867	-0.089
Mof_H 	H 	0.9531	0.0446	0.9903	0.018
Mof_C 	C 	0.816	0.979	0.9924	-0.314
Mof_H 	H 	0.7895	0.0009	0.9786	0.138
Mof_H 	H 	0.8119	0.9456	0.9844	0.12
Mof_H 	H 	0.7988	0.9808	0.0145	0.13
Mof_C 	C 	0.9373	0.9552	0.9974	-0.327
Mof_H 	H 	0.9287	0.9396	0.0182	0.143
Mof_H 	H 	0.9344	0.9309	0.9802	0.123
Mof_H 	H 	0.9828	0.9697	0.9975	0.125
Mof_O 	O 	0.8268	0.1561	0.0134	-0.113
Mof_N 	N 	0.7653	0.1558	0.0593	-0.192
Mof_C 	C 	0.7999	0.1343	0.0361	0.378
Mof_H 	H 	0.8044	0.0999	0.0369	-0.056
Mof_C 	C 	0.7361	0.1276	0.0859	-0.36
Mof_H 	H 	0.7696	0.1039	0.0936	0.127
Mof_H 	H 	0.7239	0.1497	0.1036	0.138
Mof_H 	H 	0.6955	0.1105	0.0784	0.133
Mof_C 	C 	0.7557	0.209	0.0584	-0.04
Mof_H 	H 	0.719	0.217	0.0434	0.094
Mof_H 	H 	0.7438	0.2206	0.08	0.018
Mof_H 	H 	0.7978	0.2246	0.0513	0.073
Mof_O 	O 	0.8427	0.1376	0.0219	-0.423
Mof_N 	N 	0.8211	0.1875	0.0643	-0.114
Mof_C 	C 	0.8549	0.1694	0.0409	0.19
Mof_H 	H 	0.8982	0.1839	0.038	-0.034
Mof_C 	C 	0.8535	0.1993	0.0952	-0.246
Mof_H 	H 	0.903	0.1988	0.0927	0.095
Mof_H 	H 	0.8391	0.2318	0.1022	0.092
Mof_H 	H 	0.84	0.1752	0.1115	0.092
Mof_C 	C 	0.7487	0.1983	0.0632	-0.074
Mof_H 	H 	0.7228	0.1679	0.0648	0.163
Mof_H 	H 	0.7368	0.2196	0.0813	0.036
Mof_H 	H 	0.7378	0.2147	0.0429	-0.051
Mof_Cl	Cl	0.8855	0.0614	0.9856	0.442
Mof_Cu	Cu	0.43298	0.53863	0.3419	0.874
Mof_Cu	Cu	0.39292	0.6092	0.27289	0.92
Mof_Cl	Cl	0.47981	0.61801	0.30883	-0.539
Mof_N 	N 	0.4001	0.50842	0.24683	-0.098
Mof_N 	N 	0.4081	0.53743	0.27231	-0.154
Mof_N 	N 	0.418	0.51065	0.29824	-0.158
Mof_N 	N 	0.4153	0.46357	0.29057	-0.101
Mof_N 	N 	0.5596	0.34093	0.18444	-0.133
Mof_N 	N 	0.5905	0.32149	0.15876	-0.143
Mof_N 	N 	0.5481	0.31904	0.13483	-0.145
Mof_N 	N 	0.4876	0.33644	0.14345	-0.092
Mof_C 	C 	0.4041	0.4634	0.25893	0.046
Mof_C 	C 	0.3912	0.4192	0.23832	0.16
Mof_C 	C 	0.4527	0.4085	0.21674	-0.286
Mof_H 	H 	0.493	0.4017	0.2303	0.119
Mof_H 	H 	0.4628	0.4372	0.2032	0.117
Mof_C 	C 	0.4377	0.3645	0.19531	0.161
Mof_H 	H 	0.3842	0.4034	0.1601	0.12
Mof_H 	H 	0.3356	0.3825	0.274	0.101
Mof_C 	C 	0.3287	0.4302	0.21687	-0.27
Mof_H 	H 	0.2891	0.4379	0.2306	0.104
Mof_H 	H 	0.3383	0.4589	0.2031	0.107
Mof_C 	C 	0.4958	0.3497	0.17433	0.059
Mof_O 	O 	0.3719	0.6774	0.2723	-0.634
Mof_N 	N 	0.3865	0.7564	0.2582	-0.019
Mof_C 	C 	0.4063	0.7119	0.2633	-0.089
Mof_H 	H 	0.4531	0.7054	0.2597	0.018
Mof_C 	C 	0.316	0.771	0.2576	-0.315
Mof_H 	H 	0.2895	0.7491	0.2714	0.139
Mof_H 	H 	0.3119	0.8044	0.2656	0.12
Mof_H 	H 	0.2988	0.7692	0.2355	0.131
Mof_C 	C 	0.4373	0.7948	0.2526	-0.328
Mof_H 	H 	0.4287	0.8104	0.2318	0.144
Mof_H 	H 	0.4344	0.8191	0.2698	0.123
Mof_H 	H 	0.4828	0.7803	0.2525	0.125
Mof_O 	O 	0.3268	0.5939	0.2366	-0.113
Mof_N 	N 	0.2653	0.5942	0.1907	-0.192
Mof_C 	C 	0.2999	0.6157	0.2139	0.378
Mof_H 	H 	0.3044	0.6501	0.2131	-0.056
Mof_C 	C 	0.2361	0.6224	0.1641	-0.36
Mof_H 	H 	0.2696	0.6461	0.1564	0.127
Mof_H 	H 	0.2239	0.6003	0.1464	0.138
Mof_H 	H 	0.1955	0.6395	0.1716	0.133
Mof_C 	C 	0.2557	0.541	0.1916	-0.04
Mof_H 	H 	0.219	0.533	0.2066	0.094
Mof_H 	H 	0.2438	0.5294	0.17	0.018
Mof_H 	H 	0.2978	0.5254	0.1987	0.073
Mof_O 	O 	0.3427	0.6124	0.2281	-0.423
Mof_N 	N 	0.3211	0.5625	0.1857	-0.114
Mof_C 	C 	0.3549	0.5806	0.2091	0.19
Mof_H 	H 	0.3982	0.5661	0.212	-0.034
Mof_C 	C 	0.3535	0.5507	0.1548	-0.246
Mof_H 	H 	0.403	0.5512	0.1573	0.095
Mof_H 	H 	0.3391	0.5182	0.1478	0.092
Mof_H 	H 	0.34	0.5748	0.1385	0.092
Mof_C 	C 	0.2487	0.5517	0.1868	-0.074
Mof_H 	H 	0.2228	0.5821	0.1852	0.163
Mof_H 	H 	0.2368	0.5304	0.1687	0.036
Mof_H 	H 	0.2378	0.5353	0.2071	-0.051
Mof_Cl	Cl	0.3855	0.6886	0.2644	0.442
Mof_Cu	Cu	0.43298	0.03863	0.8419	0.874
Mof_Cu	Cu	0.39292	0.1092	0.77289	0.92
Mof_Cl	Cl	0.47981	0.11801	0.80883	-0.539
Mof_N 	N 	0.4001	0.00842	0.74683	-0.098
Mof_N 	N 	0.4081	0.03743	0.77231	-0.154
Mof_N 	N 	0.418	0.01065	0.79824	-0.158
Mof_N 	N 	0.4153	0.96357	0.79057	-0.1
Mof_N 	N 	0.5596	0.84093	0.68444	-0.133
Mof_N 	N 	0.5905	0.82149	0.65876	-0.143
Mof_N 	N 	0.5481	0.81904	0.63483	-0.145
Mof_N 	N 	0.4876	0.83644	0.64345	-0.092
Mof_C 	C 	0.4041	0.9634	0.75893	0.046
Mof_C 	C 	0.3912	0.9192	0.73832	0.16
Mof_C 	C 	0.4527	0.9085	0.71674	-0.286
Mof_H 	H 	0.493	0.9017	0.7303	0.119
Mof_H 	H 	0.4628	0.9372	0.7032	0.117
Mof_C 	C 	0.4377	0.8645	0.69531	0.161
Mof_H 	H 	0.3842	0.9034	0.6601	0.12
Mof_H 	H 	0.3356	0.8825	0.774	0.101
Mof_C 	C 	0.3287	0.9302	0.71687	-0.27
Mof_H 	H 	0.2891	0.9379	0.7306	0.104
Mof_H 	H 	0.3383	0.9589	0.7031	0.107
Mof_C 	C 	0.4958	0.8497	0.67433	0.059
Mof_O 	O 	0.3719	0.1774	0.7723	-0.634
Mof_N 	N 	0.3865	0.2564	0.7582	-0.019
Mof_C 	C 	0.4063	0.2119	0.7633	-0.089
Mof_H 	H 	0.4531	0.2054	0.7597	0.018
Mof_C 	C 	0.316	0.271	0.7576	-0.315
Mof_H 	H 	0.2895	0.2491	0.7714	0.139
Mof_H 	H 	0.3119	0.3044	0.7656	0.12
Mof_H 	H 	0.2988	0.2692	0.7355	0.131
Mof_C 	C 	0.4373	0.2948	0.7526	-0.328
Mof_H 	H 	0.4287	0.3104	0.7318	0.144
Mof_H 	H 	0.4344	0.3191	0.7698	0.123
Mof_H 	H 	0.4828	0.2803	0.7525	0.125
Mof_O 	O 	0.3268	0.0939	0.7366	-0.113
Mof_N 	N 	0.2653	0.0942	0.6907	-0.192
Mof_C 	C 	0.2999	0.1157	0.7139	0.378
Mof_H 	H 	0.3044	0.1501	0.7131	-0.056
Mof_C 	C 	0.2361	0.1224	0.6641	-0.36
Mof_H 	H 	0.2696	0.1461	0.6564	0.127
Mof_H 	H 	0.2239	0.1003	0.6464	0.138
Mof_H 	H 	0.1955	0.1395	0.6716	0.133
Mof_C 	C 	0.2557	0.041	0.6916	-0.04
Mof_H 	H 	0.219	0.033	0.7066	0.094
Mof_H 	H 	0.2438	0.0294	0.67	0.018
Mof_H 	H 	0.2978	0.0254	0.6987	0.073
Mof_O 	O 	0.3427	0.1124	0.7281	-0.423
Mof_N 	N 	0.3211	0.0625	0.6857	-0.114
Mof_C 	C 	0.3549	0.0806	0.7091	0.19
Mof_H 	H 	0.3982	0.0661	0.712	-0.034
Mof_C 	C 	0.3535	0.0507	0.6548	-0.246
Mof_H 	H 	0.403	0.0512	0.6573	0.095
Mof_H 	H 	0.3391	0.0182	0.6478	0.092
Mof_H 	H 	0.34	0.0748	0.6385	0.092
Mof_C 	C 	0.2487	0.0517	0.6868	-0.074
Mof_H 	H 	0.2228	0.0821	0.6852	0.163
Mof_H 	H 	0.2368	0.0304	0.6687	0.036
Mof_H 	H 	0.2378	0.0353	0.7071	-0.051
Mof_Cl	Cl	0.3855	0.1886	0.7644	0.442
Mof_Cu	Cu	0.93298	0.53863	0.8419	0.874
Mof_Cu	Cu	0.89292	0.6092	0.77289	0.92
Mof_Cl	Cl	0.97981	0.61801	0.80883	-0.539
Mof_N 	N 	0.9001	0.50842	0.74683	-0.098
Mof_N 	N 	0.9081	0.53743	0.77231	-0.154
Mof_N 	N 	0.918	0.51065	0.79824	-0.158
Mof_N 	N 	0.9153	0.46357	0.79057	-0.101
Mof_N 	N 	0.0596	0.34093	0.68444	-0.133
Mof_N 	N 	0.0905	0.32149	0.65876	-0.143
Mof_N 	N 	0.0481	0.31904	0.63483	-0.145
Mof_N 	N 	0.9876	0.33644	0.64345	-0.092
Mof_C 	C 	0.9041	0.4634	0.75893	0.046
Mof_C 	C 	0.8912	0.4192	0.73832	0.16
Mof_C 	C 	0.9527	0.4085	0.71674	-0.286
Mof_H 	H 	0.993	0.4017	0.7303	0.119
Mof_H 	H 	0.9628	0.4372	0.7032	0.117
Mof_C 	C 	0.9377	0.3645	0.69531	0.161
Mof_H 	H 	0.8842	0.4034	0.6601	0.12
Mof_H 	H 	0.8356	0.3825	0.774	0.101
Mof_C 	C 	0.8287	0.4302	0.71687	-0.27
Mof_H 	H 	0.7891	0.4379	0.7306	0.104
Mof_H 	H 	0.8383	0.4589	0.7031	0.107
Mof_C 	C 	0.9958	0.3497	0.67433	0.059
Mof_O 	O 	0.8719	0.6774	0.7723	-0.634
Mof_N 	N 	0.8865	0.7564	0.7582	-0.019
Mof_C 	C 	0.9063	0.7119	0.7633	-0.089
Mof_H 	H 	0.9531	0.7054	0.7597	0.019
Mof_C 	C 	0.816	0.771	0.7576	-0.315
Mof_H 	H 	0.7895	0.7491	0.7714	0.139
Mof_H 	H 	0.8119	0.8044	0.7656	0.12
Mof_H 	H 	0.7988	0.7692	0.7355	0.131
Mof_C 	C 	0.9373	0.7948	0.7526	-0.328
Mof_H 	H 	0.9287	0.8104	0.7318	0.144
Mof_H 	H 	0.9344	0.8191	0.7698	0.123
Mof_H 	H 	0.9828	0.7803	0.7525	0.125
Mof_O 	O 	0.8268	0.5939	0.7366	-0.113
Mof_N 	N 	0.7653	0.5942	0.6907	-0.192
Mof_C 	C 	0.7999	0.6157	0.7139	0.378
Mof_H 	H 	0.8044	0.6501	0.7131	-0.056
Mof_C 	C 	0.7361	0.6224	0.6641	-0.36
Mof_H 	H 	0.7696	0.6461	0.6564	0.127
Mof_H 	H 	0.7239	0.6003	0.6464	0.138
Mof_H 	H 	0.6955	0.6395	0.6716	0.133
Mof_C 	C 	0.7557	0.541	0.6916	-0.04
Mof_H 	H 	0.719	0.533	0.7066	0.094
Mof_H 	H 	0.7438	0.5294	0.67	0.018
Mof_H 	H 	0.7978	0.5254	0.6987	0.073
Mof_O 	O 	0.8427	0.6124	0.7281	-0.423
Mof_N 	N 	0.8211	0.5625	0.6857	-0.114
Mof_C 	C 	0.8549	0.5806	0.7091	0.19
Mof_H 	H 	0.8982	0.5661	0.712	-0.034
Mof_C 	C 	0.8535	0.5507	0.6548	-0.246
Mof_H 	H 	0.903	0.5512	0.6573	0.095
Mof_H 	H 	0.8391	0.5182	0.6478	0.092
Mof_H 	H 	0.84	0.5748	0.6385	0.092
Mof_C 	C 	0.7487	0.5517	0.6868	-0.074
Mof_H 	H 	0.7228	0.5821	0.6852	0.163
Mof_H 	H 	0.7368	0.5304	0.6687	0.036
Mof_H 	H 	0.7378	0.5353	0.7071	-0.051
Mof_Cl	Cl	0.8855	0.6886	0.7644	0.442
Mof_Cu	Cu	0.93298	0.03863	0.3419	0.874
Mof_Cu	Cu	0.89292	0.1092	0.27289	0.92
Mof_Cl	Cl	0.97981	0.11801	0.30883	-0.539
Mof_N 	N 	0.9001	0.00842	0.24683	-0.098
Mof_N 	N 	0.9081	0.03743	0.27231	-0.154
Mof_N 	N 	0.918	0.01065	0.29824	-0.158
Mof_N 	N 	0.9153	0.96357	0.29057	-0.1
Mof_N 	N 	0.0596	0.84093	0.18444	-0.133
Mof_N 	N 	0.0905	0.82149	0.15876	-0.143
Mof_N 	N 	0.0481	0.81904	0.13483	-0.145
Mof_N 	N 	0.9876	0.83644	0.14345	-0.092
Mof_C 	C 	0.9041	0.9634	0.25893	0.046
Mof_C 	C 	0.8912	0.9192	0.23832	0.16
Mof_C 	C 	0.9527	0.9085	0.21674	-0.286
Mof_H 	H 	0.993	0.9017	0.2303	0.119
Mof_H 	H 	0.9628	0.9372	0.2032	0.117
Mof_C 	C 	0.9377	0.8645	0.19531	0.161
Mof_H 	H 	0.8842	0.9034	0.1601	0.12
Mof_H 	H 	0.8356	0.8825	0.274	0.101
Mof_C 	C 	0.8287	0.9302	0.21687	-0.27
Mof_H 	H 	0.7891	0.9379	0.2306	0.104
Mof_H 	H 	0.8383	0.9589	0.2031	0.107
Mof_C 	C 	0.9958	0.8497	0.17433	0.059
Mof_O 	O 	0.8719	0.1774	0.2723	-0.634
Mof_N 	N 	0.8865	0.2564	0.2582	-0.019
Mof_C 	C 	0.9063	0.2119	0.2633	-0.089
Mof_H 	H 	0.9531	0.2054	0.2597	0.018
Mof_C 	C 	0.816	0.271	0.2576	-0.315
Mof_H 	H 	0.7895	0.2491	0.2714	0.139
Mof_H 	H 	0.8119	0.3044	0.2656	0.12
Mof_H 	H 	0.7988	0.2692	0.2355	0.131
Mof_C 	C 	0.9373	0.2948	0.2526	-0.328
Mof_H 	H 	0.9287	0.3104	0.2318	0.144
Mof_H 	H 	0.9344	0.3191	0.2698	0.123
Mof_H 	H 	0.9828	0.2803	0.2525	0.125
Mof_O 	O 	0.8268	0.0939	0.2366	-0.113
Mof_N 	N 	0.7653	0.0942	0.1907	-0.192
Mof_C 	C 	0.7999	0.1157	0.2139	0.378
Mof_H 	H 	0.8044	0.1501	0.2131	-0.056
Mof_C 	C 	0.7361	0.1224	0.1641	-0.36
Mof_H 	H 	0.7696	0.1461	0.1564	0.127
Mof_H 	H 	0.7239	0.1003	0.1464	0.138
Mof_H 	H 	0.6955	0.1395	0.1716	0.133
Mof_C 	C 	0.7557	0.041	0.1916	-0.04
Mof_H 	H 	0.719	0.033	0.2066	0.094
Mof_H 	H 	0.7438	0.0294	0.17	0.018
Mof_H 	H 	0.7978	0.0254	0.1987	0.073
Mof_O 	O 	0.8427	0.1124	0.2281	-0.423
Mof_N 	N 	0.8211	0.0625	0.1857	-0.114
Mof_C 	C 	0.8549	0.0806	0.2091	0.19
Mof_H 	H 	0.8982	0.0661	0.212	-0.034
Mof_C 	C 	0.8535	0.0507	0.1548	-0.246
Mof_H 	H 	0.903	0.0512	0.1573	0.095
Mof_H 	H 	0.8391	0.0182	0.1478	0.092
Mof_H 	H 	0.84	0.0748	0.1385	0.092
Mof_C 	C 	0.7487	0.0517	0.1868	-0.074
Mof_H 	H 	0.7228	0.0821	0.1852	0.163
Mof_H 	H 	0.7368	0.0304	0.1687	0.036
Mof_H 	H 	0.7378	0.0353	0.2071	-0.051
Mof_Cl	Cl	0.8855	0.1886	0.2644	0.442
Mof_Cu	Cu	0.81702	0.71137	0.3419	0.874
Mof_Cu	Cu	0.85708	0.6408	0.27289	0.92
Mof_Cl	Cl	0.77019	0.63199	0.30883	-0.539
Mof_N 	N 	0.8499	0.74158	0.24683	-0.098
Mof_N 	N 	0.8419	0.71257	0.27231	-0.154
Mof_N 	N 	0.832	0.73935	0.29824	-0.158
Mof_N 	N 	0.8347	0.78643	0.29057	-0.101
Mof_N 	N 	0.6904	0.90907	0.18444	-0.133
Mof_N 	N 	0.6595	0.92851	0.15876	-0.143
Mof_N 	N 	0.7019	0.93096	0.13483	-0.145
Mof_N 	N 	0.7624	0.91356	0.14345	-0.092
Mof_C 	C 	0.8459	0.7866	0.25893	0.046
Mof_C 	C 	0.8588	0.8308	0.23832	0.16
Mof_C 	C 	0.7973	0.8415	0.21674	-0.286
Mof_H 	H 	0.757	0.8483	0.2303	0.119
Mof_H 	H 	0.7872	0.8128	0.2032	0.117
Mof_C 	C 	0.8123	0.8855	0.19531	0.161
Mof_H 	H 	0.8658	0.8466	0.1601	0.12
Mof_H 	H 	0.9144	0.8675	0.274	0.101
Mof_C 	C 	0.9213	0.8198	0.21687	-0.27
Mof_H 	H 	0.9609	0.8121	0.2306	0.104
Mof_H 	H 	0.9117	0.7911	0.2031	0.107
Mof_C 	C 	0.7542	0.9003	0.17433	0.059
Mof_O 	O 	0.8781	0.5726	0.2723	-0.634
Mof_N 	N 	0.8635	0.4936	0.2582	-0.019
Mof_C 	C 	0.8437	0.5381	0.2633	-0.089
Mof_H 	H 	0.7969	0.5446	0.2597	0.018
Mof_C 	C 	0.934	0.479	0.2576	-0.315
Mof_H 	H 	0.9605	0.5009	0.2714	0.139
Mof_H 	H 	0.9381	0.4456	0.2656	0.12
Mof_H 	H 	0.9512	0.4808	0.2355	0.131
Mof_C 	C 	0.8127	0.4552	0.2526	-0.328
Mof_H 	H 	0.8213	0.4396	0.2318	0.144
Mof_H 	H 	0.8156	0.4309	0.2698	0.123
Mof_H 	H 	0.7672	0.4697	0.2525	0.125
Mof_O 	O 	0.9232	0.6561	0.2366	-0.113
Mof_N 	N 	0.9847	0.6558	0.1907	-0.192
Mof_C 	C 	0.9501	0.6343	0.2139	0.378
Mof_H 	H 	0.9456	0.5999	0.2131	-0.056
Mof_C 	C 	0.0139	0.6276	0.1641	-0.36
Mof_H 	H 	0.9804	0.6039	0.1564	0.127
Mof_H 	H 	0.0261	0.6497	0.1464	0.138
Mof_H 	H 	0.0545	0.6105	0.1716	0.133
Mof_C 	C 	0.9943	0.709	0.1916	-0.04
Mof_H 	H 	0.031	0.717	0.2066	0.094
Mof_H 	H 	0.0062	0.7206	0.17	0.018
Mof_H 	H 	0.9522	0.7246	0.1987	0.073
Mof_O 	O 	0.9073	0.6376	0.2281	-0.423
Mof_N 	N 	0.9289	0.6875	0.1857	-0.114
Mof_C 	C 	0.8951	0.6694	0.2091	0.19
Mof_H 	H 	0.8518	0.6839	0.212	-0.034
Mof_C 	C 	0.8965	0.6993	0.1548	-0.246
Mof_H 	H 	0.847	0.6988	0.1573	0.095
Mof_H 	H 	0.9109	0.7318	0.1478	0.092
Mof_H 	H 	0.91	0.6752	0.1385	0.092
Mof_C 	C 	0.0013	0.6983	0.1868	-0.074
Mof_H 	H 	0.0272	0.6679	0.1852	0.163
Mof_H 	H 	0.0132	0.7196	0.1687	0.036
Mof_H 	H 	0.0122	0.7147	0.2071	-0.051
Mof_Cl	Cl	0.8645	0.5614	0.2644	0.442
Mof_Cu	Cu	0.81702	0.21137	0.8419	0.874
Mof_Cu	Cu	0.85708	0.1408	0.77289	0.92
Mof_Cl	Cl	0.77019	0.13199	0.80883	-0.539
Mof_N 	N 	0.8499	0.24158	0.74683	-0.098
Mof_N 	N 	0.8419	0.21257	0.77231	-0.154
Mof_N 	N 	0.832	0.23935	0.79824	-0.158
Mof_N 	N 	0.8347	0.28643	0.79057	-0.101
Mof_N 	N 	0.6904	0.40907	0.68444	-0.133
Mof_N 	N 	0.6595	0.42851	0.65876	-0.143
Mof_N 	N 	0.7019	0.43096	0.63483	-0.145
Mof_N 	N 	0.7624	0.41356	0.64345	-0.092
Mof_C 	C 	0.8459	0.2866	0.75893	0.046
Mof_C 	C 	0.8588	0.3308	0.73832	0.16
Mof_C 	C 	0.7973	0.3415	0.71674	-0.286
Mof_H 	H 	0.757	0.3483	0.7303	0.119
Mof_H 	H 	0.7872	0.3128	0.7032	0.117
Mof_C 	C 	0.8123	0.3855	0.69531	0.161
Mof_H 	H 	0.8658	0.3466	0.6601	0.12
Mof_H 	H 	0.9144	0.3675	0.774	0.101
Mof_C 	C 	0.9213	0.3198	0.71687	-0.27
Mof_H 	H 	0.9609	0.3121	0.7306	0.104
Mof_H 	H 	0.9117	0.2911	0.7031	0.107
Mof_C 	C 	0.7542	0.4003	0.67433	0.059
Mof_O 	O 	0.8781	0.0726	0.7723	-0.634
Mof_N 	N 	0.8635	0.9936	0.7582	-0.019
Mof_C 	C 	0.8437	0.0381	0.7633	-0.089
Mof_H 	H 	0.7969	0.0446	0.7597	0.019
Mof_C 	C 	0.934	0.979	0.7576	-0.315
Mof_H 	H 	0.9605	0.0009	0.7714	0.138
Mof_H 	H 	0.9381	0.9456	0.7656	0.12
Mof_H 	H 	0.9512	0.9808	0.7355	0.131
Mof_C 	C 	0.8127	0.9552	0.7526	-0.328
Mof_H 	H 	0.8213	0.9396	0.7318	0.144
Mof_H 	H 	0.8156	0.9309	0.7698	0.123
Mof_H 	H 	0.7672	0.9697	0.7525	0.125
Mof_O 	O 	0.9232	0.1561	0.7366	-0.113
Mof_N 	N 	0.9847	0.1558	0.6907	-0.192
Mof_C 	C 	0.9501	0.1343	0.7139	0.378
Mof_H 	H 	0.9456	0.0999	0.7131	-0.056
Mof_C 	C 	0.0139	0.1276	0.6641	-0.359
Mof_H 	H 	0.9804	0.1039	0.6564	0.127
Mof_H 	H 	0.0261	0.1497	0.6464	0.138
Mof_H 	H 	0.0545	0.1105	0.6716	0.133
Mof_C 	C 	0.9943	0.209	0.6916	-0.04
Mof_H 	H 	0.031	0.217	0.7066	0.094
Mof_H 	H 	0.0062	0.2206	0.67	0.018
Mof_H 	H 	0.9522	0.2246	0.6987	0.073
Mof_O 	O 	0.9073	0.1376	0.7281	-0.423
Mof_N 	N 	0.9289	0.1875	0.6857	-0.114
Mof_C 	C 	0.8951	0.1694	0.7091	0.19
Mof_H 	H 	0.8518	0.1839	0.712	-0.034
Mof_C 	C 	0.8965	0.1993	0.6548	-0.246
Mof_H 	H 	0.847	0.1988	0.6573	0.095
Mof_H 	H 	0.9109	0.2318	0.6478	0.092
Mof_H 	H 	0.91	0.1752	0.6385	0.092
Mof_C 	C 	0.0013	0.1983	0.6868	-0.075
Mof_H 	H 	0.0272	0.1679	0.6852	0.163
Mof_H 	H 	0.0132	0.2196	0.6687	0.036
Mof_H 	H 	0.0122	0.2147	0.7071	-0.051
Mof_Cl	Cl	0.8645	0.0614	0.7644	0.442
Mof_Cu	Cu	0.31702	0.71137	0.8419	0.874
Mof_Cu	Cu	0.35708	0.6408	0.77289	0.92
Mof_Cl	Cl	0.27019	0.63199	0.80883	-0.539
Mof_N 	N 	0.3499	0.74158	0.74683	-0.098
Mof_N 	N 	0.3419	0.71257	0.77231	-0.154
Mof_N 	N 	0.332	0.73935	0.79824	-0.158
Mof_N 	N 	0.3347	0.78643	0.79057	-0.101
Mof_N 	N 	0.1904	0.90907	0.68444	-0.133
Mof_N 	N 	0.1595	0.92851	0.65876	-0.143
Mof_N 	N 	0.2019	0.93096	0.63483	-0.145
Mof_N 	N 	0.2624	0.91356	0.64345	-0.092
Mof_C 	C 	0.3459	0.7866	0.75893	0.046
Mof_C 	C 	0.3588	0.8308	0.73832	0.16
Mof_C 	C 	0.2973	0.8415	0.71674	-0.286
Mof_H 	H 	0.257	0.8483	0.7303	0.119
Mof_H 	H 	0.2872	0.8128	0.7032	0.117
Mof_C 	C 	0.3123	0.8855	0.69531	0.161
Mof_H 	H 	0.3658	0.8466	0.6601	0.12
Mof_H 	H 	0.4144	0.8675	0.774	0.101
Mof_C 	C 	0.4213	0.8198	0.71687	-0.27
Mof_H 	H 	0.4609	0.8121	0.7306	0.104
Mof_H 	H 	0.4117	0.7911	0.7031	0.107
Mof_C 	C 	0.2542	0.9003	0.67433	0.059
Mof_O 	O 	0.3781	0.5726	0.7723	-0.634
Mof_N 	N 	0.3635	0.4936	0.7582	-0.019
Mof_C 	C 	0.3437	0.5381	0.7633	-0.089
Mof_H 	H 	0.2969	0.5446	0.7597	0.018
Mof_C 	C 	0.434	0.479	0.7576	-0.315
Mof_H 	H 	0.4605	0.5009	0.7714	0.139
Mof_H 	H 	0.4381	0.4456	0.7656	0.12
Mof_H 	H 	0.4512	0.4808	0.7355	0.131
Mof_C 	C 	0.3127	0.4552	0.7526	-0.328
Mof_H 	H 	0.3213	0.4396	0.7318	0.144
Mof_H 	H 	0.3156	0.4309	0.7698	0.123
Mof_H 	H 	0.2672	0.4697	0.7525	0.125
Mof_O 	O 	0.4232	0.6561	0.7366	-0.113
Mof_N 	N 	0.4847	0.6558	0.6907	-0.192
Mof_C 	C 	0.4501	0.6343	0.7139	0.378
Mof_H 	H 	0.4456	0.5999	0.7131	-0.056
Mof_C 	C 	0.5139	0.6276	0.6641	-0.36
Mof_H 	H 	0.4804	0.6039	0.6564	0.127
Mof_H 	H 	0.5261	0.6497	0.6464	0.138
Mof_H 	H 	0.5545	0.6105	0.6716	0.133
Mof_C 	C 	0.4943	0.709	0.6916	-0.04
Mof_H 	H 	0.531	0.717	0.7066	0.094
Mof_H 	H 	0.5062	0.7206	0.67	0.018
Mof_H 	H 	0.4522	0.7246	0.6987	0.073
Mof_O 	O 	0.4073	0.6376	0.7281	-0.423
Mof_N 	N 	0.4289	0.6875	0.6857	-0.114
Mof_C 	C 	0.3951	0.6694	0.7091	0.19
Mof_H 	H 	0.3518	0.6839	0.712	-0.034
Mof_C 	C 	0.3965	0.6993	0.6548	-0.246
Mof_H 	H 	0.347	0.6988	0.6573	0.095
Mof_H 	H 	0.4109	0.7318	0.6478	0.092
Mof_H 	H 	0.41	0.6752	0.6385	0.092
Mof_C 	C 	0.5013	0.6983	0.6868	-0.074
Mof_H 	H 	0.5272	0.6679	0.6852	0.163
Mof_H 	H 	0.5132	0.7196	0.6687	0.036
Mof_H 	H 	0.5122	0.7147	0.7071	-0.051
Mof_Cl	Cl	0.3645	0.5614	0.7644	0.442
Mof_Cu	Cu	0.31702	0.21137	0.3419	0.874
Mof_Cu	Cu	0.35708	0.1408	0.27289	0.92
Mof_Cl	Cl	0.27019	0.13199	0.30883	-0.539
Mof_N 	N 	0.3499	0.24158	0.24683	-0.098
Mof_N 	N 	0.3419	0.21257	0.27231	-0.154
Mof_N 	N 	0.332	0.23935	0.29824	-0.158
Mof_N 	N 	0.3347	0.28643	0.29057	-0.101
Mof_N 	N 	0.1904	0.40907	0.18444	-0.133
Mof_N 	N 	0.1595	0.42851	0.15876	-0.143
Mof_N 	N 	0.2019	0.43096	0.13483	-0.145
Mof_N 	N 	0.2624	0.41356	0.14345	-0.092
Mof_C 	C 	0.3459	0.2866	0.25893	0.046
Mof_C 	C 	0.3588	0.3308	0.23832	0.16
Mof_C 	C 	0.2973	0.3415	0.21674	-0.286
Mof_H 	H 	0.257	0.3483	0.2303	0.119
Mof_H 	H 	0.2872	0.3128	0.2032	0.117
Mof_C 	C 	0.3123	0.3855	0.19531	0.161
Mof_H 	H 	0.3658	0.3466	0.1601	0.12
Mof_H 	H 	0.4144	0.3675	0.274	0.101
Mof_C 	C 	0.4213	0.3198	0.21687	-0.27
Mof_H 	H 	0.4609	0.3121	0.2306	0.104
Mof_H 	H 	0.4117	0.2911	0.2031	0.107
Mof_C 	C 	0.2542	0.4003	0.17433	0.059
Mof_O 	O 	0.3781	0.0726	0.2723	-0.634
Mof_N 	N 	0.3635	0.9936	0.2582	-0.019
Mof_C 	C 	0.3437	0.0381	0.2633	-0.089
Mof_H 	H 	0.2969	0.0446	0.2597	0.018
Mof_C 	C 	0.434	0.979	0.2576	-0.316
Mof_H 	H 	0.4605	0.0009	0.2714	0.139
Mof_H 	H 	0.4381	0.9456	0.2656	0.12
Mof_H 	H 	0.4512	0.9808	0.2355	0.131
Mof_C 	C 	0.3127	0.9552	0.2526	-0.328
Mof_H 	H 	0.3213	0.9396	0.2318	0.144
Mof_H 	H 	0.3156	0.9309	0.2698	0.123
Mof_H 	H 	0.2672	0.9697	0.2525	0.125
Mof_O 	O 	0.4232	0.1561	0.2366	-0.113
Mof_N 	N 	0.4847	0.1558	0.1907	-0.192
Mof_C 	C 	0.4501	0.1343	0.2139	0.378
Mof_H 	H 	0.4456	0.0999	0.2131	-0.056
Mof_C 	C 	0.5139	0.1276	0.1641	-0.36
Mof_H 	H 	0.4804	0.1039	0.1564	0.127
Mof_H 	H 	0.5261	0.1497	0.1464	0.138
Mof_H 	H 	0.5545	0.1105	0.1716	0.133
Mof_C 	C 	0.4943	0.209	0.1916	-0.04
Mof_H 	H 	0.531	0.217	0.2066	0.094
Mof_H 	H 	0.5062	0.2206	0.17	0.018
Mof_H 	H 	0.4522	0.2246	0.1987	0.073
Mof_O 	O 	0.4073	0.1376	0.2281	-0.423
Mof_N 	N 	0.4289	0.1875	0.1857	-0.114
Mof_C 	C 	0.3951	0.1694	0.2091	0.19
Mof_H 	H 	0.3518	0.1839	0.212	-0.034
Mof_C 	C 	0.3965	0.1993	0.1548	-0.246
Mof_H 	H 	0.347	0.1988	0.1573	0.095
Mof_H 	H 	0.4109	0.2318	0.1478	0.092
Mof_H 	H 	0.41	0.1752	0.1385	0.092
Mof_C 	C 	0.5013	0.1983	0.1868	-0.074
Mof_H 	H 	0.5272	0.1679	0.1852	0.163
Mof_H 	H 	0.5132	0.2196	0.1687	0.036
Mof_H 	H 	0.5122	0.2147	0.2071	-0.051
Mof_Cl	Cl	0.3645	0.0614	0.2644	0.442
Mof_Cl	Cl	0.125	0.53016	0.125	-0.563
Mof_Cl	Cl	0.125	0.03016	0.625	-0.563
Mof_Cl	Cl	0.625	0.21984	0.125	-0.563
Mof_Cl	Cl	0.625	0.71984	0.625	-0.563
Mof_Cl	Cl	0.625	0.53016	0.625	-0.563
Mof_Cl	Cl	0.625	0.03016	0.125	-0.563
Mof_Cl	Cl	0.125	0.21984	0.625	-0.563
Mof_Cl	Cl	0.125	0.71984	0.125	-0.563
Mof_Cl	Cl	0.875	0.46984	0.875	-0.563
Mof_Cl	Cl	0.875	0.96984	0.375	-0.563
Mof_Cl	Cl	0.375	0.78016	0.875	-0.563
Mof_Cl	Cl	0.375	0.28016	0.375	-0.563
Mof_Cl	Cl	0.375	0.46984	0.375	-0.563
Mof_Cl	Cl	0.375	0.96984	0.875	-0.563
Mof_Cl	Cl	0.875	0.78016	0.375	-0.563
Mof_Cl	Cl	0.875	0.28016	0.875	-0.563
Mof_C 	C 	0.125	0.625	0.92407	-0.279
Mof_C 	C 	0.125	0.625	0.01	-0.269
Mof_C 	C 	0.125	0.125	0.42407	-0.279
Mof_C 	C 	0.125	0.125	0.51	-0.269
Mof_C 	C 	0.625	0.625	0.42407	-0.279
Mof_C 	C 	0.625	0.625	0.51	-0.269
Mof_C 	C 	0.625	0.125	0.92407	-0.279
Mof_C 	C 	0.625	0.125	0.01	-0.268
Mof_C 	C 	0.625	0.625	0.82593	-0.279
Mof_C 	C 	0.625	0.625	0.74	-0.269
Mof_C 	C 	0.625	0.125	0.32593	-0.279
Mof_C 	C 	0.625	0.125	0.24	-0.269
Mof_C 	C 	0.125	0.125	0.82593	-0.279
Mof_C 	C 	0.125	0.125	0.74	-0.269
Mof_C 	C 	0.125	0.625	0.32593	-0.279
Mof_C 	C 	0.125	0.625	0.24	-0.269
Mof_C 	C 	0.875	0.375	0.07593	-0.279
Mof_C 	C 	0.875	0.375	0.99	-0.269
Mof_C 	C 	0.875	0.875	0.57593	-0.279
Mof_C 	C 	0.875	0.875	0.49	-0.269
Mof_C 	C 	0.375	0.875	0.07593	-0.279
Mof_C 	C 	0.375	0.875	0.99	-0.268
Mof_C 	C 	0.375	0.375	0.57593	-0.279
Mof_C 	C 	0.375	0.375	0.49	-0.269
Mof_C 	C 	0.375	0.375	0.17407	-0.279
Mof_C 	C 	0.375	0.375	0.26	-0.269
Mof_C 	C 	0.375	0.875	0.67407	-0.279
Mof_C 	C 	0.375	0.875	0.76	-0.269
Mof_C 	C 	0.875	0.875	0.17407	-0.279
Mof_C 	C 	0.875	0.875	0.26	-0.269
Mof_C 	C 	0.875	0.375	0.67407	-0.279
Mof_C 	C 	0.875	0.375	0.76	-0.269
_end
