data_functionalizedCrystal
_audit_creation_method	'EQeq! by Chris Wilmer'
_symmetry_space_group_name_H-M	'P1'
_symmetry_Int_Tables_number	1
_symmetry_cell_setting	triclinic
loop_
_symmetry_equiv_pos_as_xyz
  x,y,z
_cell_length_a	6.6837
_cell_length_b	18.4684
_cell_length_c	8.4759
_cell_angle_alpha	90
_cell_angle_beta	90
_cell_angle_gamma	90
loop_
_atom_site_label
_atom_site_type_symbol
_atom_site_fract_x
_atom_site_fract_y
_atom_site_fract_z
_atom_site_charge
Mof_O 	O 	0.5121	0.95002	0.0693	-0.511
Mof_O 	O 	0.8363	0.90585	0.2716	-0.316
Mof_O 	O 	0.8202	0.74263	0.8471	-0.474
Mof_O 	O 	0.6751	0.81686	0.0178	-0.576
Mof_C 	C 	0.7356	0.7572	0.9749	0.812
Mof_H 	H 	0.7164	0.7189	0.0445	-0.243
Mof_O 	O 	0.0121	0.45002	0.0693	-0.82
Mof_O 	O 	0.3363	0.40585	0.2716	-0.481
Mof_O 	O 	0.3202	0.24263	0.8471	-0.614
Mof_O 	O 	0.1751	0.31686	0.0178	-0.6
Mof_C 	C 	0.2356	0.2572	0.9749	0.816
Mof_H 	H 	0.2164	0.2189	0.0445	-0.299
Mof_O 	O 	0.4879	0.04998	0.5693	-0.592
Mof_O 	O 	0.1637	0.09415	0.7716	-0.481
Mof_O 	O 	0.1798	0.25737	0.3471	-0.58
Mof_O 	O 	0.3249	0.18314	0.5178	-0.567
Mof_C 	C 	0.2644	0.2428	0.4749	0.672
Mof_H 	H 	0.2836	0.2811	0.5445	-0.218
Mof_O 	O 	0.9879	0.54998	0.5693	-0.191
Mof_O 	O 	0.6637	0.59415	0.7716	-0.417
Mof_O 	O 	0.6798	0.75737	0.3471	-0.54
Mof_O 	O 	0.8249	0.68314	0.5178	-0.448
Mof_C 	C 	0.7644	0.7428	0.4749	0.666
Mof_H 	H 	0.7836	0.7811	0.5445	-0.159
Mof_O 	O 	0.4879	0.95002	0.4307	-0.531
Mof_O 	O 	0.1637	0.90585	0.2284	-0.465
Mof_O 	O 	0.1798	0.74263	0.6529	-0.574
Mof_O 	O 	0.3249	0.81686	0.4822	-0.557
Mof_C 	C 	0.2644	0.7572	0.5251	0.674
Mof_H 	H 	0.2836	0.7189	0.4555	-0.223
Mof_O 	O 	0.9879	0.45002	0.4307	-0.191
Mof_O 	O 	0.6637	0.40585	0.2284	-0.43
Mof_O 	O 	0.6798	0.24263	0.6529	-0.539
Mof_O 	O 	0.8249	0.31686	0.4822	-0.448
Mof_C 	C 	0.7644	0.2572	0.5251	0.671
Mof_H 	H 	0.7836	0.2189	0.4555	-0.171
Mof_O 	O 	0.5121	0.04998	0.9307	-0.541
Mof_O 	O 	0.8363	0.09415	0.7284	-0.338
Mof_O 	O 	0.8202	0.25737	0.1529	-0.412
Mof_O 	O 	0.6751	0.18314	0.9822	-0.445
Mof_C 	C 	0.7356	0.2428	0.0251	0.501
Mof_H 	H 	0.7164	0.2811	0.9555	-0.089
Mof_O 	O 	0.0121	0.54998	0.9307	-0.791
Mof_O 	O 	0.3363	0.59415	0.7284	-0.478
Mof_O 	O 	0.3202	0.75737	0.1529	-0.55
Mof_O 	O 	0.1751	0.68314	0.9822	-0.471
Mof_C 	C 	0.2356	0.7428	0.0251	0.527
Mof_H 	H 	0.2164	0.7811	0.9555	-0.151
Mof_Dy	Dy	0.5	0.85736	0.25	2.494
Mof_Dy	Dy	-4.84326e-33	0.35736	0.25	2.034
Mof_Dy	Dy	0.5	0.14264	0.75	2.491
Mof_Dy	Dy	3.56609e-33	0.64264	0.75	2.04
Mof_C 	C 	0.426	0	-0	0.609
Mof_H 	H 	0.2868	0	-0	-0.213
Mof_C 	C 	0.926	0.5	-0	1.287
Mof_H 	H 	0.7868	0.5	-0	-0.353
Mof_C 	C 	0.574	0	0.5	0.665
Mof_H 	H 	0.7132	0	0.5	-0.169
Mof_C 	C 	0.074	0.5	0.5	0.037
Mof_H 	H 	0.2132	0.5	0.5	0.023
Mof_C 	C 	-1.69072e-32	0.8753	0.25	0.365
Mof_H 	H 	-1.69072e-32	0.8249	0.25	-0.172
Mof_C 	C 	0.5	0.3753	0.25	0.602
Mof_H 	H 	0.5	0.3249	0.25	-0.182
Mof_C 	C 	3.56609e-33	0.1247	0.75	0.365
Mof_H 	H 	3.56609e-33	0.1751	0.75	-0.169
Mof_C 	C 	0.5	0.6247	0.75	0.604
Mof_H 	H 	0.5	0.6751	0.75	-0.175
_end
