data_functionalizedCrystal
_audit_creation_method	'EQeq! by Chris Wilmer'
_symmetry_space_group_name_H-M	'P1'
_symmetry_Int_Tables_number	1
_symmetry_cell_setting	triclinic
loop_
_symmetry_equiv_pos_as_xyz
  x,y,z
_cell_length_a	27.033
_cell_length_b	36.13
_cell_length_c	34.291
_cell_angle_alpha	108.81
_cell_angle_beta	90
_cell_angle_gamma	90
loop_
_atom_site_label
_atom_site_type_symbol
_atom_site_fract_x
_atom_site_fract_y
_atom_site_fract_z
_atom_site_charge
Mof_Zn	Zn	0.53312	0.59917	0.80317	1.221
Mof_Zn	Zn	0.50176	0.60486	0.71691	1.223
Mof_Zn	Zn	0.9869	0.68119	0.29105	1.223
Mof_Zn	Zn	0.42368	0.62349	0.78972	1.204
Mof_Zn	Zn	0.99568	0.12726	0.36434	1.215
Mof_Zn	Zn	0.01122	0.04985	0.29092	1.177
Mof_Zn	Zn	0.46836	0.13388	0.77991	1.223
Mof_Zn	Zn	0.92285	0.10575	0.28838	1.21
Mof_Zn	Zn	0.96688	0.59917	0.30317	1.221
Mof_Zn	Zn	0.99824	0.60486	0.21691	1.223
Mof_Zn	Zn	0.5131	0.68119	0.79105	1.223
Mof_Zn	Zn	0.07632	0.62349	0.28972	1.204
Mof_Zn	Zn	0.50432	0.12726	0.86434	1.215
Mof_Zn	Zn	0.48878	0.04985	0.79092	1.177
Mof_Zn	Zn	0.03164	0.13388	0.27991	1.223
Mof_Zn	Zn	0.57715	0.10575	0.78838	1.21
Mof_H 	H 	0.644	0.3763	0.6552	0.128
Mof_H 	H 	0.7185	0.2213	0.4829	0.139
Mof_H 	H 	0.5993	0.2656	0.6391	0.129
Mof_H 	H 	0.8697	0.7781	0.1193	0.128
Mof_H 	H 	0.74	0.7334	0.9782	0.132
Mof_H 	H 	0.8943	0.8795	0.096	0.131
Mof_H 	H 	0.1245	0.8557	0.4702	0.131
Mof_H 	H 	0.1548	0.9592	0.4512	0.131
Mof_H 	H 	0.2911	0.9938	0.5837	0.131
Mof_H 	H 	0.4041	0.4753	0.952	0.132
Mof_H 	H 	0.3551	0.3545	0.9268	0.129
Mof_H 	H 	0.2175	0.4872	0.0574	0.135
Mof_H 	H 	0.5781	0.5088	0.6485	-0.015
Mof_H 	H 	0.5992	0.4473	0.6111	0.147
Mof_H 	H 	0.6333	0.4263	0.7166	0.117
Mof_H 	H 	0.6079	0.4894	0.7529	-0.006
Mof_H 	H 	0.7022	0.339	0.5396	0.057
Mof_H 	H 	0.7139	0.2324	0.5545	0.055
Mof_H 	H 	0.6268	0.3153	0.6301	0.019
Mof_H 	H 	0.8436	0.2428	0.4828	0.129
Mof_H 	H 	0.8996	0.2065	0.4375	-0
Mof_H 	H 	0.7934	0.1393	0.3693	0.004
Mof_H 	H 	0.7336	0.1741	0.4142	0.117
Mof_H 	H 	0.6724	0.2115	0.6828	0.133
Mof_H 	H 	0.6409	0.1735	0.7231	-0.002
Mof_H 	H 	0.5073	0.1991	0.7044	-0.003
Mof_H 	H 	0.5296	0.2377	0.6637	0.121
Mof_H 	H 	0.9441	0.6504	0.1249	-0.013
Mof_H 	H 	0.9134	0.6818	0.0826	0.152
Mof_H 	H 	0.8866	0.776	0.1808	0.111
Mof_H 	H 	0.9264	0.7456	0.2238	-0.008
Mof_H 	H 	0.8112	0.7375	0.0013	0.036
Mof_H 	H 	0.7785	0.8502	0.015	0.049
Mof_H 	H 	0.8676	0.825	0.0969	0.015
Mof_H 	H 	0.7035	0.762	0.8934	0.131
Mof_H 	H 	0.6471	0.7256	0.8422	0.005
Mof_H 	H 	0.6293	0.6506	0.9062	0.011
Mof_H 	H 	0.6785	0.6872	0.957	0.126
Mof_H 	H 	0.9526	0.9193	0.1289	0.112
Mof_H 	H 	0.9792	0.9782	0.1797	-0.008
Mof_H 	H 	0.8395	0.0139	0.1951	-0.009
Mof_H 	H 	0.8145	0.9572	0.143	0.146
Mof_H 	H 	0.0304	0.7747	0.3765	-0.007
Mof_H 	H 	0.0661	0.8287	0.4278	0.109
Mof_H 	H 	0.1899	0.7659	0.4304	0.145
Mof_H 	H 	0.1521	0.7136	0.383	-0.011
Mof_H 	H 	0.1516	0.9116	0.4702	0.015
Mof_H 	H 	0.217	0.9926	0.5655	0.03
Mof_H 	H 	0.2494	0.8785	0.5416	0.045
Mof_H 	H 	0.1224	0.9656	0.3909	0.109
Mof_H 	H 	0.1063	0.0126	0.3577	-0.009
Mof_H 	H 	0.0569	0.0853	0.4621	-0.001
Mof_H 	H 	0.1011	0.0494	0.4976	0.141
Mof_H 	H 	0.3286	0.0515	0.6168	0.109
Mof_H 	H 	0.376	0.0885	0.6732	0.004
Mof_H 	H 	0.382	0.9977	0.7174	-0.006
Mof_H 	H 	0.3279	0.962	0.6656	0.128
Mof_H 	H 	0.4988	0.5352	0.8858	-0.021
Mof_H 	H 	0.4692	0.5011	0.9258	0.139
Mof_H 	H 	0.3312	0.5308	0.9102	0.164
Mof_H 	H 	0.3607	0.563	0.8669	-0.02
Mof_H 	H 	0.3715	0.419	0.9506	0.023
Mof_H 	H 	0.3071	0.3956	0.0478	0.048
Mof_H 	H 	0.2869	0.501	0.0328	0.041
Mof_H 	H 	0.3518	0.2991	0.8698	0.109
Mof_H 	H 	0.3831	0.2376	0.8334	0.003
Mof_H 	H 	0.4602	0.2374	0.9332	0.009
Mof_H 	H 	0.4247	0.2991	0.9713	0.135
Mof_H 	H 	0.1528	0.5267	0.0741	0.117
Mof_H 	H 	0.0889	0.5511	0.1222	0.004
Mof_H 	H 	0.1716	0.5311	0.212	-0.011
Mof_H 	H 	0.2244	0.4938	0.1589	0.15
Mof_H 	H 	0.856	0.3763	0.1552	0.129
Mof_H 	H 	0.7815	0.2213	0.9829	0.14
Mof_H 	H 	0.9007	0.2656	0.1391	0.13
Mof_H 	H 	0.6303	0.7781	0.6193	0.129
Mof_H 	H 	0.76	0.7334	0.4782	0.133
Mof_H 	H 	0.6057	0.8795	0.596	0.132
Mof_H 	H 	0.3755	0.8557	0.9702	0.131
Mof_H 	H 	0.3452	0.9592	0.9512	0.132
Mof_H 	H 	0.2089	0.9938	0.0837	0.132
Mof_H 	H 	0.0959	0.4753	0.452	0.133
Mof_H 	H 	0.1449	0.3545	0.4268	0.13
Mof_H 	H 	0.2825	0.4872	0.5574	0.136
Mof_H 	H 	0.9219	0.5088	0.1485	-0.014
Mof_H 	H 	0.9008	0.4473	0.1111	0.148
Mof_H 	H 	0.8667	0.4263	0.2166	0.117
Mof_H 	H 	0.8921	0.4894	0.2529	-0.006
Mof_H 	H 	0.7978	0.339	0.0396	0.057
Mof_H 	H 	0.7861	0.2324	0.0545	0.055
Mof_H 	H 	0.8732	0.3153	0.1301	0.019
Mof_H 	H 	0.6564	0.2428	0.9828	0.129
Mof_H 	H 	0.6004	0.2065	0.9375	-0
Mof_H 	H 	0.7066	0.1393	0.8693	0.004
Mof_H 	H 	0.7664	0.1741	0.9142	0.117
Mof_H 	H 	0.8276	0.2115	0.1828	0.133
Mof_H 	H 	0.8591	0.1735	0.2231	-0.002
Mof_H 	H 	0.9927	0.1991	0.2044	-0.002
Mof_H 	H 	0.9704	0.2377	0.1637	0.121
Mof_H 	H 	0.5559	0.6504	0.6249	-0.013
Mof_H 	H 	0.5866	0.6818	0.5826	0.152
Mof_H 	H 	0.6134	0.776	0.6808	0.111
Mof_H 	H 	0.5736	0.7456	0.7238	-0.008
Mof_H 	H 	0.6888	0.7375	0.5013	0.036
Mof_H 	H 	0.7215	0.8502	0.515	0.049
Mof_H 	H 	0.6324	0.825	0.5969	0.015
Mof_H 	H 	0.7965	0.762	0.3934	0.131
Mof_H 	H 	0.8529	0.7256	0.3422	0.005
Mof_H 	H 	0.8707	0.6506	0.4062	0.011
Mof_H 	H 	0.8215	0.6872	0.457	0.126
Mof_H 	H 	0.5474	0.9193	0.6289	0.112
Mof_H 	H 	0.5208	0.9782	0.6797	-0.008
Mof_H 	H 	0.6605	0.0139	0.6951	-0.01
Mof_H 	H 	0.6855	0.9572	0.643	0.146
Mof_H 	H 	0.4696	0.7747	0.8765	-0.007
Mof_H 	H 	0.4339	0.8287	0.9278	0.108
Mof_H 	H 	0.3101	0.7659	0.9304	0.145
Mof_H 	H 	0.3479	0.7136	0.883	-0.011
Mof_H 	H 	0.3484	0.9116	0.9702	0.015
Mof_H 	H 	0.283	0.9926	0.0655	0.03
Mof_H 	H 	0.2506	0.8785	0.0416	0.045
Mof_H 	H 	0.3776	0.9656	0.8909	0.109
Mof_H 	H 	0.3937	0.0126	0.8577	-0.009
Mof_H 	H 	0.4431	0.0853	0.9621	-0.001
Mof_H 	H 	0.3989	0.0494	0.9976	0.141
Mof_H 	H 	0.1714	0.0515	0.1168	0.109
Mof_H 	H 	0.124	0.0885	0.1732	0.004
Mof_H 	H 	0.118	0.9977	0.2174	-0.006
Mof_H 	H 	0.1721	0.962	0.1656	0.128
Mof_H 	H 	0.0012	0.5352	0.3858	-0.021
Mof_H 	H 	0.0308	0.5011	0.4258	0.139
Mof_H 	H 	0.1688	0.5308	0.4102	0.164
Mof_H 	H 	0.1393	0.563	0.3669	-0.02
Mof_H 	H 	0.1285	0.419	0.4506	0.023
Mof_H 	H 	0.1929	0.3956	0.5478	0.048
Mof_H 	H 	0.2131	0.501	0.5328	0.041
Mof_H 	H 	0.1482	0.2991	0.3698	0.109
Mof_H 	H 	0.1169	0.2376	0.3334	0.003
Mof_H 	H 	0.0398	0.2374	0.4332	0.009
Mof_H 	H 	0.0753	0.2991	0.4713	0.135
Mof_H 	H 	0.3472	0.5267	0.5741	0.117
Mof_H 	H 	0.4111	0.5511	0.6222	0.003
Mof_H 	H 	0.3284	0.5311	0.712	-0.011
Mof_H 	H 	0.2756	0.4938	0.6589	0.15
Mof_C 	C 	0.5674	0.5429	0.727	0.407
Mof_C 	C 	0.5875	0.50443	0.7041	-0.237
Mof_C 	C 	0.5881	0.4913	0.6626	0.195
Mof_C 	C 	0.6015	0.4555	0.6403	-0.269
Mof_C 	C 	0.6192	0.42998	0.6601	0.236
Mof_C 	C 	0.6213	0.44293	0.7022	-0.254
Mof_C 	C 	0.6057	0.4804	0.7237	0.17
Mof_C 	C 	0.6444	0.37414	0.5986	0.24
Mof_C 	C 	0.6618	0.33256	0.5866	-0.071
Mof_C 	C 	0.6932	0.32117	0.5535	0.011
Mof_C 	C 	0.7122	0.28221	0.5401	-0.075
Mof_C 	C 	0.7004	0.258	0.5621	0.005
Mof_C 	C 	0.6689	0.27073	0.59529	-0.072
Mof_C 	C 	0.6491	0.30738	0.60746	0.008
Mof_C 	C 	0.7479	0.2712	0.5069	0.242
Mof_C 	C 	0.7807	0.21375	0.4528	0.22
Mof_C 	C 	0.8328	0.22197	0.4595	-0.22
Mof_C 	C 	0.8654	0.2005	0.43317	0.147
Mof_C 	C 	0.851	0.16911	0.3991	-0.199
Mof_C 	C 	0.803	0.1605	0.3927	0.15
Mof_C 	C 	0.7674	0.18144	0.419	-0.228
Mof_C 	C 	0.8895	0.1466	0.3706	0.398
Mof_C 	C 	0.6591	0.24314	0.6195	0.246
Mof_C 	C 	0.6017	0.22511	0.6664	0.23
Mof_C 	C 	0.6379	0.2086	0.6862	-0.226
Mof_C 	C 	0.6181	0.18717	0.7117	0.167
Mof_C 	C 	0.5722	0.18517	0.7201	-0.247
Mof_C 	C 	0.5416	0.2022	0.7005	0.168
Mof_C 	C 	0.5537	0.2244	0.6745	-0.257
Mof_C 	C 	0.5536	0.16231	0.74464	0.428
Mof_C 	C 	0.9594	0.6743	0.20472	0.425
Mof_C 	C 	0.9399	0.6948	0.17751	-0.231
Mof_C 	C 	0.9342	0.6769	0.1364	0.195
Mof_C 	C 	0.9151	0.6951	0.1114	-0.284
Mof_C 	C 	0.8983	0.7324	0.127	0.255
Mof_C 	C 	0.9005	0.7506	0.1692	-0.248
Mof_C 	C 	0.923	0.7324	0.1951	0.156
Mof_C 	C 	0.8673	0.7458	0.0652	0.237
Mof_C 	C 	0.8454	0.776	0.0489	-0.078
Mof_C 	C 	0.8151	0.76461	0.0159	0.02
Mof_C 	C 	0.7895	0.79159	0.0028	-0.083
Mof_C 	C 	0.7958	0.83151	0.024	0.035
Mof_C 	C 	0.8259	0.8439	0.0569	-0.101
Mof_C 	C 	0.8494	0.8166	0.0719	0.016
Mof_C 	C 	0.7582	0.7808	0.9652	0.24
Mof_C 	C 	0.6994	0.72676	0.9291	0.222
Mof_C 	C 	0.6882	0.7392	0.8959	-0.214
Mof_C 	C 	0.6538	0.71793	0.8657	0.122
Mof_C 	C 	0.6305	0.68615	0.8709	-0.189
Mof_C 	C 	0.6431	0.6741	0.9041	0.154
Mof_C 	C 	0.6738	0.69458	0.933	-0.238
Mof_C 	C 	0.5947	0.6639	0.8378	0.412
Mof_C 	C 	0.8316	0.8837	0.0813	0.267
Mof_C 	C 	0.881	0.9335	0.1317	0.257
Mof_C 	C 	0.9291	0.9388	0.1424	-0.25
Mof_C 	C 	0.945	0.9733	0.1737	0.14
Mof_C 	C 	0.9094	0.9995	0.1953	-0.226
Mof_C 	C 	0.8633	0.99434	0.1825	0.177
Mof_C 	C 	0.8484	0.9606	0.1508	-0.273
Mof_C 	C 	0.9277	0.0345	0.2277	0.399
Mof_C 	C 	0.0709	0.7091	0.3407	0.396
Mof_C 	C 	0.0923	0.7393	0.3743	-0.234
Mof_C 	C 	0.0624	0.7733	0.3874	0.141
Mof_C 	C 	0.0841	0.8049	0.4181	-0.238
Mof_C 	C 	0.1298	0.8035	0.4349	0.243
Mof_C 	C 	0.1576	0.76818	0.4205	-0.255
Mof_C 	C 	0.1351	0.73794	0.3915	0.189
Mof_C 	C 	0.1908	0.84678	0.4781	0.247
Mof_C 	C 	0.1973	0.88888	0.50303	-0.084
Mof_C 	C 	0.1732	0.91793	0.49329	0.02
Mof_C 	C 	0.1803	0.95772	0.5177	-0.096
Mof_C 	C 	0.2124	0.96604	0.54933	0.029
Mof_C 	C 	0.2387	0.93804	0.55921	-0.09
Mof_C 	C 	0.2313	0.89849	0.53552	0.023
Mof_C 	C 	0.1553	0.9901	0.5088	0.254
Mof_C 	C 	0.1206	0.005	0.4485	0.245
Mof_C 	C 	0.115	0.992	0.4062	-0.242
Mof_C 	C 	0.0985	0.0176	0.3859	0.147
Mof_C 	C 	0.0718	0.049	0.406	-0.21
Mof_C 	C 	0.0731	0.0616	0.4471	0.152
Mof_C 	C 	0.0991	0.03946	0.4684	-0.246
Mof_C 	C 	0.0444	0.0704	0.3804	0.425
Mof_C 	C 	0.2717	0.94694	0.5939	0.231
Mof_C 	C 	0.3238	0.003	0.6357	0.213
Mof_C 	C 	0.3382	0.0409	0.6377	-0.222
Mof_C 	C 	0.3669	0.0625	0.6711	0.141
Mof_C 	C 	0.3818	0.0479	0.7002	-0.202
Mof_C 	C 	0.3694	0.0087	0.6978	0.129
Mof_C 	C 	0.3388	0.9873	0.6664	-0.216
Mof_C 	C 	0.4116	0.0724	0.7351	0.435
Mof_C 	C 	0.4522	0.57505	0.84403	0.454
Mof_C 	C 	0.4318	0.55249	0.86997	-0.254
Mof_C 	C 	0.4642	0.53403	0.8897	0.213
Mof_C 	C 	0.4465	0.51465	0.91407	-0.325
Mof_C 	C 	0.399	0.51347	0.9226	0.3
Mof_C 	C 	0.3656	0.5314	0.9049	-0.307
Mof_C 	C 	0.3838	0.5504	0.8792	0.215
Mof_C 	C 	0.3399	0.49478	0.96719	0.258
Mof_C 	C 	0.3321	0.46451	0.98788	-0.076
Mof_C 	C 	0.3515	0.42743	0.97464	0.003
Mof_C 	C 	0.3408	0.40151	0.9979	-0.068
Mof_C 	C 	0.3125	0.41273	0.03222	0.014
Mof_C 	C 	0.2919	0.4489	0.04401	-0.071
Mof_C 	C 	0.3011	0.4756	0.0233	0.007
Mof_C 	C 	0.3644	0.36171	0.984	0.228
Mof_C 	C 	0.3864	0.30509	0.924	0.229
Mof_C 	C 	0.3736	0.2864	0.8831	-0.23
Mof_C 	C 	0.3917	0.24988	0.8615	0.136
Mof_C 	C 	0.4218	0.23193	0.881	-0.18
Mof_C 	C 	0.4368	0.24969	0.92069	0.125
Mof_C 	C 	0.4167	0.28708	0.94307	-0.229
Mof_C 	C 	0.4417	0.1911	0.8582	0.406
Mof_C 	C 	0.2625	0.4607	0.0835	0.241
Mof_C 	C 	0.1928	0.5059	0.1139	0.262
Mof_C 	C 	0.1547	0.5258	0.1015	-0.244
Mof_C 	C 	0.1201	0.544	0.1304	0.14
Mof_C 	C 	0.1316	0.5523	0.1741	-0.219
Mof_C 	C 	0.1674	0.5309	0.1845	0.17
Mof_C 	C 	0.1982	0.5082	0.1521	-0.277
Mof_C 	C 	0.0955	0.5766	0.2032	0.463
Mof_C 	C 	0.9326	0.5429	0.227	0.407
Mof_C 	C 	0.9125	0.50443	0.2041	-0.237
Mof_C 	C 	0.9119	0.4913	0.1626	0.195
Mof_C 	C 	0.8985	0.4555	0.1403	-0.269
Mof_C 	C 	0.8808	0.42998	0.1601	0.236
Mof_C 	C 	0.8787	0.44293	0.2022	-0.254
Mof_C 	C 	0.8943	0.4804	0.2237	0.17
Mof_C 	C 	0.8556	0.37414	0.0986	0.24
Mof_C 	C 	0.8382	0.33256	0.0866	-0.071
Mof_C 	C 	0.8068	0.32117	0.0535	0.011
Mof_C 	C 	0.7878	0.28221	0.0401	-0.075
Mof_C 	C 	0.7996	0.258	0.0621	0.005
Mof_C 	C 	0.8311	0.27073	0.09529	-0.072
Mof_C 	C 	0.8509	0.30738	0.10746	0.008
Mof_C 	C 	0.7521	0.2712	0.0069	0.242
Mof_C 	C 	0.7193	0.21375	0.9528	0.22
Mof_C 	C 	0.6672	0.22197	0.9595	-0.22
Mof_C 	C 	0.6346	0.2005	0.93317	0.147
Mof_C 	C 	0.649	0.16911	0.8991	-0.199
Mof_C 	C 	0.697	0.1605	0.8927	0.15
Mof_C 	C 	0.7326	0.18144	0.919	-0.228
Mof_C 	C 	0.6105	0.1466	0.8706	0.398
Mof_C 	C 	0.8409	0.24314	0.1195	0.246
Mof_C 	C 	0.8983	0.22511	0.1664	0.23
Mof_C 	C 	0.8621	0.2086	0.1862	-0.226
Mof_C 	C 	0.8819	0.18717	0.2117	0.167
Mof_C 	C 	0.9278	0.18517	0.2201	-0.247
Mof_C 	C 	0.9584	0.2022	0.2005	0.168
Mof_C 	C 	0.9463	0.2244	0.1745	-0.257
Mof_C 	C 	0.9464	0.16231	0.24464	0.428
Mof_C 	C 	0.5406	0.6743	0.70472	0.425
Mof_C 	C 	0.5601	0.6948	0.67751	-0.231
Mof_C 	C 	0.5658	0.6769	0.6364	0.195
Mof_C 	C 	0.5849	0.6951	0.6114	-0.284
Mof_C 	C 	0.6017	0.7324	0.627	0.255
Mof_C 	C 	0.5995	0.7506	0.6692	-0.248
Mof_C 	C 	0.577	0.7324	0.6951	0.156
Mof_C 	C 	0.6327	0.7458	0.5652	0.237
Mof_C 	C 	0.6546	0.776	0.5489	-0.078
Mof_C 	C 	0.6849	0.76461	0.5159	0.02
Mof_C 	C 	0.7105	0.79159	0.5028	-0.082
Mof_C 	C 	0.7042	0.83151	0.524	0.034
Mof_C 	C 	0.6741	0.8439	0.5569	-0.101
Mof_C 	C 	0.6506	0.8166	0.5719	0.016
Mof_C 	C 	0.7418	0.7808	0.4652	0.24
Mof_C 	C 	0.8006	0.72676	0.4291	0.222
Mof_C 	C 	0.8118	0.7392	0.3959	-0.214
Mof_C 	C 	0.8462	0.71793	0.3657	0.122
Mof_C 	C 	0.8695	0.68615	0.3709	-0.189
Mof_C 	C 	0.8569	0.6741	0.4041	0.154
Mof_C 	C 	0.8262	0.69458	0.433	-0.238
Mof_C 	C 	0.9053	0.6639	0.3378	0.412
Mof_C 	C 	0.6684	0.8837	0.5813	0.267
Mof_C 	C 	0.619	0.9335	0.6317	0.257
Mof_C 	C 	0.5709	0.9388	0.6424	-0.25
Mof_C 	C 	0.555	0.9733	0.6737	0.14
Mof_C 	C 	0.5906	0.9995	0.6953	-0.226
Mof_C 	C 	0.6367	0.99434	0.6825	0.178
Mof_C 	C 	0.6516	0.9606	0.6508	-0.273
Mof_C 	C 	0.5723	0.0345	0.7277	0.398
Mof_C 	C 	0.4291	0.7091	0.8407	0.396
Mof_C 	C 	0.4077	0.7393	0.8743	-0.234
Mof_C 	C 	0.4376	0.7733	0.8874	0.141
Mof_C 	C 	0.4159	0.8049	0.9181	-0.238
Mof_C 	C 	0.3702	0.8035	0.9349	0.243
Mof_C 	C 	0.3424	0.76818	0.9205	-0.255
Mof_C 	C 	0.3649	0.73794	0.8915	0.189
Mof_C 	C 	0.3092	0.84678	0.9781	0.247
Mof_C 	C 	0.3027	0.88888	0.00303	-0.084
Mof_C 	C 	0.3268	0.91793	0.99329	0.02
Mof_C 	C 	0.3197	0.95772	0.0177	-0.096
Mof_C 	C 	0.2876	0.96604	0.04933	0.029
Mof_C 	C 	0.2613	0.93804	0.05921	-0.09
Mof_C 	C 	0.2687	0.89849	0.03552	0.023
Mof_C 	C 	0.3447	0.9901	0.0088	0.254
Mof_C 	C 	0.3794	0.005	0.9485	0.245
Mof_C 	C 	0.385	0.992	0.9062	-0.243
Mof_C 	C 	0.4015	0.0176	0.8859	0.147
Mof_C 	C 	0.4282	0.049	0.906	-0.21
Mof_C 	C 	0.4269	0.0616	0.9471	0.152
Mof_C 	C 	0.4009	0.03946	0.9684	-0.246
Mof_C 	C 	0.4556	0.0704	0.8804	0.425
Mof_C 	C 	0.2283	0.94694	0.0939	0.231
Mof_C 	C 	0.1762	0.003	0.1357	0.213
Mof_C 	C 	0.1618	0.0409	0.1377	-0.222
Mof_C 	C 	0.1331	0.0625	0.1711	0.141
Mof_C 	C 	0.1182	0.0479	0.2002	-0.202
Mof_C 	C 	0.1306	0.0087	0.1978	0.129
Mof_C 	C 	0.1612	0.9873	0.1664	-0.216
Mof_C 	C 	0.0884	0.0724	0.2351	0.435
Mof_C 	C 	0.0478	0.57505	0.34403	0.454
Mof_C 	C 	0.0682	0.55249	0.36997	-0.254
Mof_C 	C 	0.0358	0.53403	0.3897	0.213
Mof_C 	C 	0.0535	0.51465	0.41407	-0.325
Mof_C 	C 	0.101	0.51347	0.4226	0.3
Mof_C 	C 	0.1344	0.5314	0.4049	-0.307
Mof_C 	C 	0.1162	0.5504	0.3792	0.215
Mof_C 	C 	0.1601	0.49478	0.46719	0.258
Mof_C 	C 	0.1679	0.46451	0.48788	-0.076
Mof_C 	C 	0.1485	0.42743	0.47464	0.003
Mof_C 	C 	0.1592	0.40151	0.4979	-0.068
Mof_C 	C 	0.1875	0.41273	0.53222	0.013
Mof_C 	C 	0.2081	0.4489	0.54401	-0.07
Mof_C 	C 	0.1989	0.4756	0.5233	0.007
Mof_C 	C 	0.1356	0.36171	0.484	0.228
Mof_C 	C 	0.1136	0.30509	0.424	0.229
Mof_C 	C 	0.1264	0.2864	0.3831	-0.23
Mof_C 	C 	0.1083	0.24988	0.3615	0.136
Mof_C 	C 	0.0782	0.23193	0.381	-0.18
Mof_C 	C 	0.0632	0.24969	0.42069	0.125
Mof_C 	C 	0.0833	0.28708	0.44307	-0.229
Mof_C 	C 	0.0583	0.1911	0.3582	0.406
Mof_C 	C 	0.2375	0.4607	0.5835	0.241
Mof_C 	C 	0.3072	0.5059	0.6139	0.262
Mof_C 	C 	0.3453	0.5258	0.6015	-0.244
Mof_C 	C 	0.3799	0.544	0.6304	0.14
Mof_C 	C 	0.3684	0.5523	0.6741	-0.219
Mof_C 	C 	0.3326	0.5309	0.6845	0.17
Mof_C 	C 	0.3018	0.5082	0.6521	-0.277
Mof_C 	C 	0.4045	0.5766	0.7032	0.463
Mof_N 	N 	0.6371	0.39073	0.63951	-0.254
Mof_N 	N 	0.7456	0.23423	0.48138	-0.255
Mof_N 	N 	0.6191	0.24678	0.64066	-0.262
Mof_N 	N 	0.8775	0.75409	0.10441	-0.268
Mof_N 	N 	0.7334	0.74524	0.96006	-0.249
Mof_N 	N 	0.8697	0.89634	0.1013	-0.278
Mof_N 	N 	0.1468	0.83704	0.4619	-0.271
Mof_N 	N 	0.1447	0.98209	0.46752	-0.263
Mof_N 	N 	0.2951	0.98232	0.6025	-0.252
Mof_N 	N 	0.3829	0.49234	0.94815	-0.277
Mof_N 	N 	0.36698	0.34232	0.9432	-0.258
Mof_N 	N 	0.2236	0.4848	0.08165	-0.262
Mof_N 	N 	0.8629	0.39073	0.13951	-0.254
Mof_N 	N 	0.7544	0.23423	0.98138	-0.255
Mof_N 	N 	0.8809	0.24678	0.14066	-0.262
Mof_N 	N 	0.6225	0.75409	0.60441	-0.268
Mof_N 	N 	0.7666	0.74524	0.46006	-0.249
Mof_N 	N 	0.6303	0.89634	0.6013	-0.278
Mof_N 	N 	0.3532	0.83704	0.9619	-0.271
Mof_N 	N 	0.3553	0.98209	0.96752	-0.263
Mof_N 	N 	0.2049	0.98232	0.1025	-0.252
Mof_N 	N 	0.1171	0.49234	0.44815	-0.277
Mof_N 	N 	0.13302	0.34232	0.4432	-0.258
Mof_N 	N 	0.2764	0.4848	0.58165	-0.262
Mof_O 	O 	0.56716	0.55431	0.76662	-0.486
Mof_O 	O 	0.5491	0.56363	0.70585	-0.501
Mof_O 	O 	0.9319	0.14879	0.38554	-0.512
Mof_O 	O 	0.87593	0.12518	0.33356	-0.488
Mof_O 	O 	0.50613	0.16176	0.75065	-0.486
Mof_O 	O 	0.5848	0.14534	0.76013	-0.492
Mof_O 	O 	0.6395	0.39024	0.57297	-0.234
Mof_O 	O 	0.7795	0.29366	0.50244	-0.228
Mof_O 	O 	0.691	0.21918	0.62008	-0.231
Mof_O 	O 	0.96945	0.69461	0.24246	-0.504
Mof_O 	O 	0.97113	0.63906	0.18891	-0.498
Mof_O 	O 	0.57935	0.6792	0.81244	-0.521
Mof_O 	O 	0.57919	0.6318	0.84127	-0.493
Mof_O 	O 	0.8963	0.05926	0.24688	-0.494
Mof_O 	O 	0.974	0.03667	0.23559	-0.518
Mof_O 	O 	0.8777	0.71331	0.0398	-0.23
Mof_O 	O 	0.7507	0.80061	0.94389	-0.238
Mof_O 	O 	0.7953	0.90607	0.0825	-0.232
Mof_O 	O 	0.0332	0.71223	0.321	-0.564
Mof_O 	O 	0.0965	0.67299	0.32832	-0.479
Mof_O 	O 	0.02218	0.10063	0.40009	-0.505
Mof_O 	O 	0.0527	0.0586	0.3433	-0.544
Mof_O 	O 	0.4242	0.05611	0.76201	-0.486
Mof_O 	O 	0.42487	0.10528	0.73736	-0.507
Mof_O 	O 	0.22528	0.82298	0.47261	-0.235
Mof_O 	O 	0.1437	0.01994	0.53399	-0.251
Mof_O 	O 	0.28055	0.92448	0.61411	-0.234
Mof_O 	O 	0.49756	0.57583	0.8384	-0.506
Mof_O 	O 	0.42	0.59032	0.82728	-0.492
Mof_O 	O 	0.43407	0.17826	0.8201	-0.488
Mof_O 	O 	0.46494	0.17466	0.88006	-0.493
Mof_O 	O 	0.0552	0.5862	0.1889	-0.54
Mof_O 	O 	0.1051	0.5843	0.2392	-0.538
Mof_O 	O 	0.30833	0.51747	0.96612	-0.246
Mof_O 	O 	0.38118	0.3485	0.01018	-0.239
Mof_O 	O 	0.2716	0.45095	0.11278	-0.24
Mof_O 	O 	0.49343	0.62654	0.77569	-0.958
Mof_O 	O 	0.98961	0.10632	0.30592	-0.959
Mof_O 	O 	0.93284	0.55431	0.26662	-0.486
Mof_O 	O 	0.9509	0.56363	0.20585	-0.501
Mof_O 	O 	0.5681	0.14879	0.88554	-0.512
Mof_O 	O 	0.62407	0.12518	0.83356	-0.488
Mof_O 	O 	0.99387	0.16176	0.25065	-0.486
Mof_O 	O 	0.9152	0.14534	0.26013	-0.492
Mof_O 	O 	0.8605	0.39024	0.07297	-0.234
Mof_O 	O 	0.7205	0.29366	0.00244	-0.228
Mof_O 	O 	0.809	0.21918	0.12008	-0.231
Mof_O 	O 	0.53055	0.69461	0.74246	-0.504
Mof_O 	O 	0.52887	0.63906	0.68891	-0.498
Mof_O 	O 	0.92065	0.6792	0.31244	-0.521
Mof_O 	O 	0.92081	0.6318	0.34127	-0.493
Mof_O 	O 	0.6037	0.05926	0.74688	-0.494
Mof_O 	O 	0.526	0.03667	0.73559	-0.519
Mof_O 	O 	0.6223	0.71331	0.5398	-0.23
Mof_O 	O 	0.7493	0.80061	0.44389	-0.238
Mof_O 	O 	0.7047	0.90607	0.5825	-0.232
Mof_O 	O 	0.4668	0.71223	0.821	-0.564
Mof_O 	O 	0.4035	0.67299	0.82832	-0.479
Mof_O 	O 	0.47782	0.10063	0.90009	-0.505
Mof_O 	O 	0.4473	0.0586	0.8433	-0.544
Mof_O 	O 	0.0758	0.05611	0.26201	-0.486
Mof_O 	O 	0.07513	0.10528	0.23736	-0.507
Mof_O 	O 	0.27472	0.82298	0.97261	-0.235
Mof_O 	O 	0.3563	0.01994	0.03399	-0.251
Mof_O 	O 	0.21945	0.92448	0.11411	-0.234
Mof_O 	O 	0.00244	0.57583	0.3384	-0.506
Mof_O 	O 	0.08	0.59032	0.32728	-0.492
Mof_O 	O 	0.06593	0.17826	0.3201	-0.488
Mof_O 	O 	0.03506	0.17466	0.38006	-0.493
Mof_O 	O 	0.4448	0.5862	0.6889	-0.541
Mof_O 	O 	0.3949	0.5843	0.7392	-0.538
Mof_O 	O 	0.19167	0.51747	0.46612	-0.246
Mof_O 	O 	0.11882	0.3485	0.51018	-0.239
Mof_O 	O 	0.2284	0.45095	0.61278	-0.24
Mof_O 	O 	0.00657	0.62654	0.27569	-0.958
Mof_O 	O 	0.51039	0.10632	0.80592	-0.96
Mof_Zn	Zn	0.03312	0.40083	0.69683	1.222
Mof_Zn	Zn	0.00176	0.39514	0.78309	1.224
Mof_Zn	Zn	0.4869	0.31881	0.20895	1.224
Mof_Zn	Zn	0.92368	0.37651	0.71028	1.205
Mof_Zn	Zn	0.49568	0.87274	0.13566	1.216
Mof_Zn	Zn	0.51122	0.95015	0.20908	1.178
Mof_Zn	Zn	0.96836	0.86612	0.72009	1.224
Mof_Zn	Zn	0.42285	0.89425	0.21162	1.211
Mof_Zn	Zn	0.46688	0.40083	0.19683	1.222
Mof_Zn	Zn	0.49824	0.39514	0.28309	1.224
Mof_Zn	Zn	0.0131	0.31881	0.70895	1.224
Mof_Zn	Zn	0.57632	0.37651	0.21028	1.205
Mof_Zn	Zn	0.00432	0.87274	0.63566	1.216
Mof_Zn	Zn	0.98878	0.95015	0.70908	1.178
Mof_Zn	Zn	0.53164	0.86612	0.22009	1.224
Mof_Zn	Zn	0.07715	0.89425	0.71162	1.211
Mof_H 	H 	0.144	0.6237	0.8448	0.129
Mof_H 	H 	0.2185	0.7787	0.0171	0.14
Mof_H 	H 	0.0993	0.7344	0.8609	0.13
Mof_H 	H 	0.3697	0.2219	0.3807	0.129
Mof_H 	H 	0.24	0.2666	0.5218	0.133
Mof_H 	H 	0.3943	0.1205	0.404	0.132
Mof_H 	H 	0.6245	0.1443	0.0298	0.131
Mof_H 	H 	0.6548	0.0408	0.0488	0.132
Mof_H 	H 	0.7911	0.0062	0.9163	0.132
Mof_H 	H 	0.9041	0.5247	0.548	0.133
Mof_H 	H 	0.8551	0.6455	0.5732	0.13
Mof_H 	H 	0.7175	0.5128	0.4426	0.136
Mof_H 	H 	0.0781	0.4912	0.8515	-0.014
Mof_H 	H 	0.0992	0.5527	0.8889	0.148
Mof_H 	H 	0.1333	0.5737	0.7834	0.117
Mof_H 	H 	0.1079	0.5106	0.7471	-0.006
Mof_H 	H 	0.2022	0.661	0.9604	0.057
Mof_H 	H 	0.2139	0.7676	0.9455	0.055
Mof_H 	H 	0.1268	0.6847	0.8699	0.019
Mof_H 	H 	0.3436	0.7572	0.0172	0.129
Mof_H 	H 	0.3996	0.7935	0.0625	-0
Mof_H 	H 	0.2934	0.8607	0.1307	0.004
Mof_H 	H 	0.2336	0.8259	0.0858	0.117
Mof_H 	H 	0.1724	0.7885	0.8172	0.133
Mof_H 	H 	0.1409	0.8265	0.7769	-0.002
Mof_H 	H 	0.0073	0.8009	0.7956	-0.002
Mof_H 	H 	0.0296	0.7623	0.8363	0.121
Mof_H 	H 	0.4441	0.3496	0.3751	-0.013
Mof_H 	H 	0.4134	0.3182	0.4174	0.152
Mof_H 	H 	0.3866	0.224	0.3192	0.111
Mof_H 	H 	0.4264	0.2544	0.2762	-0.008
Mof_H 	H 	0.3112	0.2625	0.4987	0.036
Mof_H 	H 	0.2785	0.1498	0.485	0.049
Mof_H 	H 	0.3676	0.175	0.4031	0.015
Mof_H 	H 	0.2035	0.238	0.6066	0.131
Mof_H 	H 	0.1471	0.2744	0.6578	0.005
Mof_H 	H 	0.1293	0.3494	0.5938	0.011
Mof_H 	H 	0.1785	0.3128	0.543	0.126
Mof_H 	H 	0.4526	0.0807	0.3711	0.112
Mof_H 	H 	0.4792	0.0218	0.3203	-0.008
Mof_H 	H 	0.3395	0.9861	0.3049	-0.01
Mof_H 	H 	0.3145	0.0428	0.357	0.146
Mof_H 	H 	0.5304	0.2253	0.1235	-0.007
Mof_H 	H 	0.5661	0.1713	0.0722	0.108
Mof_H 	H 	0.6899	0.2341	0.0696	0.145
Mof_H 	H 	0.6521	0.2864	0.117	-0.011
Mof_H 	H 	0.6516	0.0884	0.0298	0.015
Mof_H 	H 	0.717	0.0074	0.9345	0.03
Mof_H 	H 	0.7494	0.1215	0.9584	0.045
Mof_H 	H 	0.6224	0.0344	0.1091	0.109
Mof_H 	H 	0.6063	0.9874	0.1423	-0.009
Mof_H 	H 	0.5569	0.9147	0.0379	-0.001
Mof_H 	H 	0.6011	0.9506	0.0024	0.141
Mof_H 	H 	0.8286	0.9485	0.8832	0.109
Mof_H 	H 	0.876	0.9115	0.8268	0.004
Mof_H 	H 	0.882	0.0023	0.7826	-0.006
Mof_H 	H 	0.8279	0.038	0.8344	0.128
Mof_H 	H 	0.9988	0.4648	0.6142	-0.021
Mof_H 	H 	0.9692	0.4989	0.5742	0.139
Mof_H 	H 	0.8312	0.4692	0.5898	0.164
Mof_H 	H 	0.8607	0.437	0.6331	-0.02
Mof_H 	H 	0.8715	0.581	0.5494	0.023
Mof_H 	H 	0.8071	0.6044	0.4522	0.048
Mof_H 	H 	0.7869	0.499	0.4672	0.041
Mof_H 	H 	0.8518	0.7009	0.6302	0.109
Mof_H 	H 	0.8831	0.7624	0.6666	0.003
Mof_H 	H 	0.9602	0.7626	0.5668	0.009
Mof_H 	H 	0.9247	0.7009	0.5287	0.135
Mof_H 	H 	0.6528	0.4733	0.4259	0.117
Mof_H 	H 	0.5889	0.4489	0.3778	0.003
Mof_H 	H 	0.6716	0.4689	0.288	-0.011
Mof_H 	H 	0.7244	0.5062	0.3411	0.15
Mof_H 	H 	0.356	0.6237	0.3448	0.129
Mof_H 	H 	0.2815	0.7787	0.5171	0.14
Mof_H 	H 	0.4007	0.7344	0.3609	0.13
Mof_H 	H 	0.1303	0.2219	0.8807	0.129
Mof_H 	H 	0.26	0.2666	0.0218	0.133
Mof_H 	H 	0.1057	0.1205	0.904	0.132
Mof_H 	H 	0.8755	0.1443	0.5298	0.132
Mof_H 	H 	0.8452	0.0408	0.5488	0.132
Mof_H 	H 	0.7089	0.0062	0.4163	0.132
Mof_H 	H 	0.5959	0.5247	0.048	0.133
Mof_H 	H 	0.6449	0.6455	0.0732	0.13
Mof_H 	H 	0.7825	0.5128	0.9426	0.136
Mof_H 	H 	0.4219	0.4912	0.3515	-0.014
Mof_H 	H 	0.4008	0.5527	0.3889	0.148
Mof_H 	H 	0.3667	0.5737	0.2834	0.117
Mof_H 	H 	0.3921	0.5106	0.2471	-0.006
Mof_H 	H 	0.2978	0.661	0.4604	0.057
Mof_H 	H 	0.2861	0.7676	0.4455	0.055
Mof_H 	H 	0.3732	0.6847	0.3699	0.019
Mof_H 	H 	0.1564	0.7572	0.5172	0.129
Mof_H 	H 	0.1004	0.7935	0.5625	-0
Mof_H 	H 	0.2066	0.8607	0.6307	0.004
Mof_H 	H 	0.2664	0.8259	0.5858	0.117
Mof_H 	H 	0.3276	0.7885	0.3172	0.133
Mof_H 	H 	0.3591	0.8265	0.2769	-0.002
Mof_H 	H 	0.4927	0.8009	0.2956	-0.003
Mof_H 	H 	0.4704	0.7623	0.3363	0.121
Mof_H 	H 	0.0559	0.3496	0.8751	-0.013
Mof_H 	H 	0.0866	0.3182	0.9174	0.152
Mof_H 	H 	0.1134	0.224	0.8192	0.111
Mof_H 	H 	0.0736	0.2544	0.7762	-0.008
Mof_H 	H 	0.1888	0.2625	0.9987	0.036
Mof_H 	H 	0.2215	0.1498	0.985	0.049
Mof_H 	H 	0.1324	0.175	0.9031	0.015
Mof_H 	H 	0.2965	0.238	0.1066	0.131
Mof_H 	H 	0.3529	0.2744	0.1578	0.005
Mof_H 	H 	0.3707	0.3494	0.0938	0.011
Mof_H 	H 	0.3215	0.3128	0.043	0.126
Mof_H 	H 	0.0474	0.0807	0.8711	0.112
Mof_H 	H 	0.0208	0.0218	0.8203	-0.008
Mof_H 	H 	0.1605	0.9861	0.8049	-0.009
Mof_H 	H 	0.1855	0.0428	0.857	0.146
Mof_H 	H 	0.9696	0.2253	0.6235	-0.007
Mof_H 	H 	0.9339	0.1713	0.5722	0.109
Mof_H 	H 	0.8101	0.2341	0.5696	0.145
Mof_H 	H 	0.8479	0.2864	0.617	-0.011
Mof_H 	H 	0.8484	0.0884	0.5298	0.015
Mof_H 	H 	0.783	0.0074	0.4345	0.03
Mof_H 	H 	0.7506	0.1215	0.4584	0.045
Mof_H 	H 	0.8776	0.0344	0.6091	0.109
Mof_H 	H 	0.8937	0.9874	0.6423	-0.009
Mof_H 	H 	0.9431	0.9147	0.5379	-0.001
Mof_H 	H 	0.8989	0.9506	0.5024	0.141
Mof_H 	H 	0.6714	0.9485	0.3832	0.109
Mof_H 	H 	0.624	0.9115	0.3268	0.004
Mof_H 	H 	0.618	0.0023	0.2826	-0.006
Mof_H 	H 	0.6721	0.038	0.3344	0.128
Mof_H 	H 	0.5012	0.4648	0.1142	-0.021
Mof_H 	H 	0.5308	0.4989	0.0742	0.139
Mof_H 	H 	0.6688	0.4692	0.0898	0.164
Mof_H 	H 	0.6393	0.437	0.1331	-0.02
Mof_H 	H 	0.6285	0.581	0.0494	0.023
Mof_H 	H 	0.6929	0.6044	0.9522	0.048
Mof_H 	H 	0.7131	0.499	0.9672	0.041
Mof_H 	H 	0.6482	0.7009	0.1302	0.109
Mof_H 	H 	0.6169	0.7624	0.1666	0.003
Mof_H 	H 	0.5398	0.7626	0.0668	0.009
Mof_H 	H 	0.5753	0.7009	0.0287	0.135
Mof_H 	H 	0.8472	0.4733	0.9259	0.117
Mof_H 	H 	0.9111	0.4489	0.8778	0.004
Mof_H 	H 	0.8284	0.4689	0.788	-0.011
Mof_H 	H 	0.7756	0.5062	0.8411	0.15
Mof_C 	C 	0.0674	0.4571	0.773	0.407
Mof_C 	C 	0.0875	0.49557	0.7959	-0.237
Mof_C 	C 	0.0881	0.5087	0.8374	0.195
Mof_C 	C 	0.1015	0.5445	0.8597	-0.269
Mof_C 	C 	0.1192	0.57002	0.8399	0.236
Mof_C 	C 	0.1213	0.55707	0.7978	-0.254
Mof_C 	C 	0.1057	0.5196	0.7763	0.17
Mof_C 	C 	0.1444	0.62586	0.9014	0.24
Mof_C 	C 	0.1618	0.66744	0.9134	-0.071
Mof_C 	C 	0.1932	0.67883	0.9465	0.011
Mof_C 	C 	0.2122	0.71779	0.9599	-0.075
Mof_C 	C 	0.2004	0.742	0.9379	0.005
Mof_C 	C 	0.1689	0.72927	0.90471	-0.072
Mof_C 	C 	0.1491	0.69262	0.89254	0.008
Mof_C 	C 	0.2479	0.7288	0.9931	0.242
Mof_C 	C 	0.2807	0.78625	0.0472	0.22
Mof_C 	C 	0.3328	0.77803	0.0405	-0.22
Mof_C 	C 	0.3654	0.7995	0.06683	0.147
Mof_C 	C 	0.351	0.83089	0.1009	-0.199
Mof_C 	C 	0.303	0.8395	0.1073	0.15
Mof_C 	C 	0.2674	0.81856	0.081	-0.228
Mof_C 	C 	0.3895	0.8534	0.1294	0.398
Mof_C 	C 	0.1591	0.75686	0.8805	0.246
Mof_C 	C 	0.1017	0.77489	0.8336	0.23
Mof_C 	C 	0.1379	0.7914	0.8138	-0.226
Mof_C 	C 	0.1181	0.81283	0.7883	0.167
Mof_C 	C 	0.0722	0.81483	0.7799	-0.247
Mof_C 	C 	0.0416	0.7978	0.7995	0.168
Mof_C 	C 	0.0537	0.7756	0.8255	-0.257
Mof_C 	C 	0.0536	0.83769	0.75536	0.428
Mof_C 	C 	0.4594	0.3257	0.29528	0.425
Mof_C 	C 	0.4399	0.3052	0.32249	-0.231
Mof_C 	C 	0.4342	0.3231	0.3636	0.195
Mof_C 	C 	0.4151	0.3049	0.3886	-0.284
Mof_C 	C 	0.3983	0.2676	0.373	0.255
Mof_C 	C 	0.4005	0.2494	0.3308	-0.248
Mof_C 	C 	0.423	0.2676	0.3049	0.156
Mof_C 	C 	0.3673	0.2542	0.4348	0.237
Mof_C 	C 	0.3454	0.224	0.4511	-0.078
Mof_C 	C 	0.3151	0.23539	0.4841	0.02
Mof_C 	C 	0.2895	0.20841	0.4972	-0.082
Mof_C 	C 	0.2958	0.16849	0.476	0.034
Mof_C 	C 	0.3259	0.1561	0.4431	-0.101
Mof_C 	C 	0.3494	0.1834	0.4281	0.016
Mof_C 	C 	0.2582	0.2192	0.5348	0.24
Mof_C 	C 	0.1994	0.27324	0.5709	0.222
Mof_C 	C 	0.1882	0.2608	0.6041	-0.214
Mof_C 	C 	0.1538	0.28207	0.6343	0.122
Mof_C 	C 	0.1305	0.31385	0.6291	-0.189
Mof_C 	C 	0.1431	0.3259	0.5959	0.154
Mof_C 	C 	0.1738	0.30542	0.567	-0.238
Mof_C 	C 	0.0947	0.3361	0.6622	0.412
Mof_C 	C 	0.3316	0.1163	0.4187	0.267
Mof_C 	C 	0.381	0.0665	0.3683	0.257
Mof_C 	C 	0.4291	0.0612	0.3576	-0.25
Mof_C 	C 	0.445	0.0267	0.3263	0.14
Mof_C 	C 	0.4094	0.0005	0.3047	-0.226
Mof_C 	C 	0.3633	0.00566	0.3175	0.178
Mof_C 	C 	0.3484	0.0394	0.3492	-0.273
Mof_C 	C 	0.4277	0.9655	0.2723	0.398
Mof_C 	C 	0.5709	0.2909	0.1593	0.396
Mof_C 	C 	0.5923	0.2607	0.1257	-0.234
Mof_C 	C 	0.5624	0.2267	0.1126	0.141
Mof_C 	C 	0.5841	0.1951	0.0819	-0.238
Mof_C 	C 	0.6298	0.1965	0.0651	0.243
Mof_C 	C 	0.6576	0.23182	0.0795	-0.255
Mof_C 	C 	0.6351	0.26206	0.1085	0.189
Mof_C 	C 	0.6908	0.15322	0.0219	0.247
Mof_C 	C 	0.6973	0.11112	0.99697	-0.084
Mof_C 	C 	0.6732	0.08207	0.00671	0.02
Mof_C 	C 	0.6803	0.04228	0.9823	-0.096
Mof_C 	C 	0.7124	0.03396	0.95067	0.029
Mof_C 	C 	0.7387	0.06196	0.94079	-0.09
Mof_C 	C 	0.7313	0.10151	0.96448	0.023
Mof_C 	C 	0.6553	0.0099	0.9912	0.254
Mof_C 	C 	0.6206	0.995	0.0515	0.245
Mof_C 	C 	0.615	0.008	0.0938	-0.243
Mof_C 	C 	0.5985	0.9824	0.1141	0.147
Mof_C 	C 	0.5718	0.951	0.094	-0.21
Mof_C 	C 	0.5731	0.9384	0.0529	0.152
Mof_C 	C 	0.5991	0.96054	0.0316	-0.246
Mof_C 	C 	0.5444	0.9296	0.1196	0.425
Mof_C 	C 	0.7717	0.05306	0.9061	0.231
Mof_C 	C 	0.8238	0.997	0.8643	0.213
Mof_C 	C 	0.8382	0.9591	0.8623	-0.222
Mof_C 	C 	0.8669	0.9375	0.8289	0.141
Mof_C 	C 	0.8818	0.9521	0.7998	-0.202
Mof_C 	C 	0.8694	0.9913	0.8022	0.129
Mof_C 	C 	0.8388	0.0127	0.8336	-0.216
Mof_C 	C 	0.9116	0.9276	0.7649	0.435
Mof_C 	C 	0.9522	0.42495	0.65597	0.454
Mof_C 	C 	0.9318	0.44751	0.63003	-0.254
Mof_C 	C 	0.9642	0.46597	0.6103	0.213
Mof_C 	C 	0.9465	0.48535	0.58593	-0.325
Mof_C 	C 	0.899	0.48653	0.5774	0.3
Mof_C 	C 	0.8656	0.4686	0.5951	-0.307
Mof_C 	C 	0.8838	0.4496	0.6208	0.215
Mof_C 	C 	0.8399	0.50522	0.53281	0.258
Mof_C 	C 	0.8321	0.53549	0.51212	-0.076
Mof_C 	C 	0.8515	0.57257	0.52536	0.003
Mof_C 	C 	0.8408	0.59849	0.5021	-0.068
Mof_C 	C 	0.8125	0.58727	0.46778	0.013
Mof_C 	C 	0.7919	0.5511	0.45599	-0.07
Mof_C 	C 	0.8011	0.5244	0.4767	0.007
Mof_C 	C 	0.8644	0.63829	0.516	0.228
Mof_C 	C 	0.8864	0.69491	0.576	0.229
Mof_C 	C 	0.8736	0.7136	0.6169	-0.23
Mof_C 	C 	0.8917	0.75012	0.6385	0.136
Mof_C 	C 	0.9218	0.76807	0.619	-0.18
Mof_C 	C 	0.9368	0.75031	0.57931	0.125
Mof_C 	C 	0.9167	0.71292	0.55693	-0.229
Mof_C 	C 	0.9417	0.8089	0.6418	0.406
Mof_C 	C 	0.7625	0.5393	0.4165	0.241
Mof_C 	C 	0.6928	0.4941	0.3861	0.262
Mof_C 	C 	0.6547	0.4742	0.3985	-0.244
Mof_C 	C 	0.6201	0.456	0.3696	0.14
Mof_C 	C 	0.6316	0.4477	0.3259	-0.219
Mof_C 	C 	0.6674	0.4691	0.3155	0.17
Mof_C 	C 	0.6982	0.4918	0.3479	-0.277
Mof_C 	C 	0.5955	0.4234	0.2968	0.463
Mof_C 	C 	0.4326	0.4571	0.273	0.407
Mof_C 	C 	0.4125	0.49557	0.2959	-0.237
Mof_C 	C 	0.4119	0.5087	0.3374	0.195
Mof_C 	C 	0.3985	0.5445	0.3597	-0.269
Mof_C 	C 	0.3808	0.57002	0.3399	0.236
Mof_C 	C 	0.3787	0.55707	0.2978	-0.254
Mof_C 	C 	0.3943	0.5196	0.2763	0.17
Mof_C 	C 	0.3556	0.62586	0.4014	0.24
Mof_C 	C 	0.3382	0.66744	0.4134	-0.071
Mof_C 	C 	0.3068	0.67883	0.4465	0.011
Mof_C 	C 	0.2878	0.71779	0.4599	-0.075
Mof_C 	C 	0.2996	0.742	0.4379	0.005
Mof_C 	C 	0.3311	0.72927	0.40471	-0.072
Mof_C 	C 	0.3509	0.69262	0.39254	0.008
Mof_C 	C 	0.2521	0.7288	0.4931	0.242
Mof_C 	C 	0.2193	0.78625	0.5472	0.22
Mof_C 	C 	0.1672	0.77803	0.5405	-0.22
Mof_C 	C 	0.1346	0.7995	0.56683	0.147
Mof_C 	C 	0.149	0.83089	0.6009	-0.199
Mof_C 	C 	0.197	0.8395	0.6073	0.15
Mof_C 	C 	0.2326	0.81856	0.581	-0.228
Mof_C 	C 	0.1105	0.8534	0.6294	0.398
Mof_C 	C 	0.3409	0.75686	0.3805	0.246
Mof_C 	C 	0.3983	0.77489	0.3336	0.23
Mof_C 	C 	0.3621	0.7914	0.3138	-0.226
Mof_C 	C 	0.3819	0.81283	0.2883	0.167
Mof_C 	C 	0.4278	0.81483	0.2799	-0.247
Mof_C 	C 	0.4584	0.7978	0.2995	0.168
Mof_C 	C 	0.4463	0.7756	0.3255	-0.257
Mof_C 	C 	0.4464	0.83769	0.25536	0.428
Mof_C 	C 	0.0406	0.3257	0.79528	0.425
Mof_C 	C 	0.0601	0.3052	0.82249	-0.231
Mof_C 	C 	0.0658	0.3231	0.8636	0.195
Mof_C 	C 	0.0849	0.3049	0.8886	-0.284
Mof_C 	C 	0.1017	0.2676	0.873	0.255
Mof_C 	C 	0.0995	0.2494	0.8308	-0.248
Mof_C 	C 	0.077	0.2676	0.8049	0.156
Mof_C 	C 	0.1327	0.2542	0.9348	0.237
Mof_C 	C 	0.1546	0.224	0.9511	-0.078
Mof_C 	C 	0.1849	0.23539	0.9841	0.02
Mof_C 	C 	0.2105	0.20841	0.9972	-0.083
Mof_C 	C 	0.2042	0.16849	0.976	0.035
Mof_C 	C 	0.1741	0.1561	0.9431	-0.101
Mof_C 	C 	0.1506	0.1834	0.9281	0.016
Mof_C 	C 	0.2418	0.2192	0.0348	0.24
Mof_C 	C 	0.3006	0.27324	0.0709	0.222
Mof_C 	C 	0.3118	0.2608	0.1041	-0.214
Mof_C 	C 	0.3462	0.28207	0.1343	0.122
Mof_C 	C 	0.3695	0.31385	0.1291	-0.189
Mof_C 	C 	0.3569	0.3259	0.0959	0.154
Mof_C 	C 	0.3262	0.30542	0.067	-0.238
Mof_C 	C 	0.4053	0.3361	0.1622	0.412
Mof_C 	C 	0.1684	0.1163	0.9187	0.267
Mof_C 	C 	0.119	0.0665	0.8683	0.257
Mof_C 	C 	0.0709	0.0612	0.8576	-0.25
Mof_C 	C 	0.055	0.0267	0.8263	0.14
Mof_C 	C 	0.0906	0.0005	0.8047	-0.226
Mof_C 	C 	0.1367	0.00566	0.8175	0.177
Mof_C 	C 	0.1516	0.0394	0.8492	-0.273
Mof_C 	C 	0.0723	0.9655	0.7723	0.399
Mof_C 	C 	0.9291	0.2909	0.6593	0.396
Mof_C 	C 	0.9077	0.2607	0.6257	-0.234
Mof_C 	C 	0.9376	0.2267	0.6126	0.141
Mof_C 	C 	0.9159	0.1951	0.5819	-0.238
Mof_C 	C 	0.8702	0.1965	0.5651	0.243
Mof_C 	C 	0.8424	0.23182	0.5795	-0.255
Mof_C 	C 	0.8649	0.26206	0.6085	0.189
Mof_C 	C 	0.8092	0.15322	0.5219	0.247
Mof_C 	C 	0.8027	0.11112	0.49697	-0.084
Mof_C 	C 	0.8268	0.08207	0.50671	0.02
Mof_C 	C 	0.8197	0.04228	0.4823	-0.096
Mof_C 	C 	0.7876	0.03396	0.45067	0.029
Mof_C 	C 	0.7613	0.06196	0.44079	-0.09
Mof_C 	C 	0.7687	0.10151	0.46448	0.023
Mof_C 	C 	0.8447	0.0099	0.4912	0.254
Mof_C 	C 	0.8794	0.995	0.5515	0.245
Mof_C 	C 	0.885	0.008	0.5938	-0.242
Mof_C 	C 	0.9015	0.9824	0.6141	0.147
Mof_C 	C 	0.9282	0.951	0.594	-0.21
Mof_C 	C 	0.9269	0.9384	0.5529	0.152
Mof_C 	C 	0.9009	0.96054	0.5316	-0.246
Mof_C 	C 	0.9556	0.9296	0.6196	0.425
Mof_C 	C 	0.7283	0.05306	0.4061	0.231
Mof_C 	C 	0.6762	0.997	0.3643	0.213
Mof_C 	C 	0.6618	0.9591	0.3623	-0.222
Mof_C 	C 	0.6331	0.9375	0.3289	0.141
Mof_C 	C 	0.6182	0.9521	0.2998	-0.202
Mof_C 	C 	0.6306	0.9913	0.3022	0.129
Mof_C 	C 	0.6612	0.0127	0.3336	-0.216
Mof_C 	C 	0.5884	0.9276	0.2649	0.435
Mof_C 	C 	0.5478	0.42495	0.15597	0.454
Mof_C 	C 	0.5682	0.44751	0.13003	-0.254
Mof_C 	C 	0.5358	0.46597	0.1103	0.213
Mof_C 	C 	0.5535	0.48535	0.08593	-0.325
Mof_C 	C 	0.601	0.48653	0.0774	0.3
Mof_C 	C 	0.6344	0.4686	0.0951	-0.307
Mof_C 	C 	0.6162	0.4496	0.1208	0.215
Mof_C 	C 	0.6601	0.50522	0.03281	0.258
Mof_C 	C 	0.6679	0.53549	0.01212	-0.076
Mof_C 	C 	0.6485	0.57257	0.02536	0.003
Mof_C 	C 	0.6592	0.59849	0.0021	-0.068
Mof_C 	C 	0.6875	0.58727	0.96778	0.014
Mof_C 	C 	0.7081	0.5511	0.95599	-0.071
Mof_C 	C 	0.6989	0.5244	0.9767	0.007
Mof_C 	C 	0.6356	0.63829	0.016	0.228
Mof_C 	C 	0.6136	0.69491	0.076	0.229
Mof_C 	C 	0.6264	0.7136	0.1169	-0.23
Mof_C 	C 	0.6083	0.75012	0.1385	0.136
Mof_C 	C 	0.5782	0.76807	0.119	-0.18
Mof_C 	C 	0.5632	0.75031	0.07931	0.125
Mof_C 	C 	0.5833	0.71292	0.05693	-0.229
Mof_C 	C 	0.5583	0.8089	0.1418	0.406
Mof_C 	C 	0.7375	0.5393	0.9165	0.241
Mof_C 	C 	0.8072	0.4941	0.8861	0.262
Mof_C 	C 	0.8453	0.4742	0.8985	-0.244
Mof_C 	C 	0.8799	0.456	0.8696	0.14
Mof_C 	C 	0.8684	0.4477	0.8259	-0.219
Mof_C 	C 	0.8326	0.4691	0.8155	0.17
Mof_C 	C 	0.8018	0.4918	0.8479	-0.277
Mof_C 	C 	0.9045	0.4234	0.7968	0.463
Mof_N 	N 	0.1371	0.60927	0.86049	-0.254
Mof_N 	N 	0.2456	0.76577	0.01862	-0.255
Mof_N 	N 	0.1191	0.75322	0.85934	-0.262
Mof_N 	N 	0.3775	0.24591	0.39559	-0.268
Mof_N 	N 	0.2334	0.25476	0.53994	-0.249
Mof_N 	N 	0.3697	0.10366	0.3987	-0.278
Mof_N 	N 	0.6468	0.16296	0.0381	-0.271
Mof_N 	N 	0.6447	0.01791	0.03248	-0.263
Mof_N 	N 	0.7951	0.01768	0.8975	-0.252
Mof_N 	N 	0.8829	0.50766	0.55185	-0.277
Mof_N 	N 	0.86698	0.65768	0.5568	-0.258
Mof_N 	N 	0.7236	0.5152	0.41835	-0.262
Mof_N 	N 	0.3629	0.60927	0.36049	-0.254
Mof_N 	N 	0.2544	0.76577	0.51862	-0.255
Mof_N 	N 	0.3809	0.75322	0.35934	-0.262
Mof_N 	N 	0.1225	0.24591	0.89559	-0.268
Mof_N 	N 	0.2666	0.25476	0.03994	-0.249
Mof_N 	N 	0.1303	0.10366	0.8987	-0.278
Mof_N 	N 	0.8532	0.16296	0.5381	-0.271
Mof_N 	N 	0.8553	0.01791	0.53248	-0.263
Mof_N 	N 	0.7049	0.01768	0.3975	-0.252
Mof_N 	N 	0.6171	0.50766	0.05185	-0.277
Mof_N 	N 	0.63302	0.65768	0.0568	-0.258
Mof_N 	N 	0.7764	0.5152	0.91835	-0.262
Mof_O 	O 	0.06716	0.44569	0.73338	-0.486
Mof_O 	O 	0.0491	0.43637	0.79415	-0.501
Mof_O 	O 	0.4319	0.85121	0.11446	-0.512
Mof_O 	O 	0.37593	0.87482	0.16644	-0.488
Mof_O 	O 	0.00613	0.83824	0.74935	-0.486
Mof_O 	O 	0.0848	0.85466	0.73987	-0.492
Mof_O 	O 	0.1395	0.60976	0.92703	-0.234
Mof_O 	O 	0.2795	0.70634	0.99756	-0.228
Mof_O 	O 	0.191	0.78082	0.87992	-0.231
Mof_O 	O 	0.46945	0.30539	0.25754	-0.504
Mof_O 	O 	0.47113	0.36094	0.31109	-0.498
Mof_O 	O 	0.07935	0.3208	0.68756	-0.521
Mof_O 	O 	0.07919	0.3682	0.65873	-0.493
Mof_O 	O 	0.3963	0.94074	0.25312	-0.494
Mof_O 	O 	0.474	0.96333	0.26441	-0.519
Mof_O 	O 	0.3777	0.28669	0.4602	-0.23
Mof_O 	O 	0.2507	0.19939	0.55611	-0.238
Mof_O 	O 	0.2953	0.09393	0.4175	-0.232
Mof_O 	O 	0.5332	0.28777	0.179	-0.564
Mof_O 	O 	0.5965	0.32701	0.17168	-0.479
Mof_O 	O 	0.52218	0.89937	0.09991	-0.505
Mof_O 	O 	0.5527	0.9414	0.1567	-0.544
Mof_O 	O 	0.9242	0.94389	0.73799	-0.486
Mof_O 	O 	0.92487	0.89472	0.76264	-0.507
Mof_O 	O 	0.72528	0.17702	0.02739	-0.235
Mof_O 	O 	0.6437	0.98006	0.96601	-0.251
Mof_O 	O 	0.78055	0.07552	0.88589	-0.234
Mof_O 	O 	0.99756	0.42417	0.6616	-0.506
Mof_O 	O 	0.92	0.40968	0.67272	-0.492
Mof_O 	O 	0.93407	0.82174	0.6799	-0.488
Mof_O 	O 	0.96494	0.82534	0.61994	-0.493
Mof_O 	O 	0.5552	0.4138	0.3111	-0.541
Mof_O 	O 	0.6051	0.4157	0.2608	-0.538
Mof_O 	O 	0.80833	0.48253	0.53388	-0.246
Mof_O 	O 	0.88118	0.6515	0.48982	-0.239
Mof_O 	O 	0.7716	0.54905	0.38722	-0.24
Mof_O 	O 	0.99343	0.37346	0.72431	-0.958
Mof_O 	O 	0.48961	0.89368	0.19408	-0.96
Mof_O 	O 	0.43284	0.44569	0.23338	-0.486
Mof_O 	O 	0.4509	0.43637	0.29415	-0.501
Mof_O 	O 	0.0681	0.85121	0.61446	-0.512
Mof_O 	O 	0.12407	0.87482	0.66644	-0.488
Mof_O 	O 	0.49387	0.83824	0.24935	-0.486
Mof_O 	O 	0.4152	0.85466	0.23987	-0.492
Mof_O 	O 	0.3605	0.60976	0.42703	-0.234
Mof_O 	O 	0.2205	0.70634	0.49756	-0.228
Mof_O 	O 	0.309	0.78082	0.37992	-0.231
Mof_O 	O 	0.03055	0.30539	0.75754	-0.504
Mof_O 	O 	0.02887	0.36094	0.81109	-0.498
Mof_O 	O 	0.42065	0.3208	0.18756	-0.521
Mof_O 	O 	0.42081	0.3682	0.15873	-0.493
Mof_O 	O 	0.1037	0.94074	0.75312	-0.494
Mof_O 	O 	0.026	0.96333	0.76441	-0.518
Mof_O 	O 	0.1223	0.28669	0.9602	-0.23
Mof_O 	O 	0.2493	0.19939	0.05611	-0.238
Mof_O 	O 	0.2047	0.09393	0.9175	-0.232
Mof_O 	O 	0.9668	0.28777	0.679	-0.564
Mof_O 	O 	0.9035	0.32701	0.67168	-0.479
Mof_O 	O 	0.97782	0.89937	0.59991	-0.505
Mof_O 	O 	0.9473	0.9414	0.6567	-0.544
Mof_O 	O 	0.5758	0.94389	0.23799	-0.486
Mof_O 	O 	0.57513	0.89472	0.26264	-0.507
Mof_O 	O 	0.77472	0.17702	0.52739	-0.235
Mof_O 	O 	0.8563	0.98006	0.46601	-0.251
Mof_O 	O 	0.71945	0.07552	0.38589	-0.234
Mof_O 	O 	0.50244	0.42417	0.1616	-0.506
Mof_O 	O 	0.58	0.40968	0.17272	-0.492
Mof_O 	O 	0.56593	0.82174	0.1799	-0.488
Mof_O 	O 	0.53506	0.82534	0.11994	-0.493
Mof_O 	O 	0.9448	0.4138	0.8111	-0.54
Mof_O 	O 	0.8949	0.4157	0.7608	-0.538
Mof_O 	O 	0.69167	0.48253	0.03388	-0.246
Mof_O 	O 	0.61882	0.6515	0.98982	-0.239
Mof_O 	O 	0.7284	0.54905	0.88722	-0.24
Mof_O 	O 	0.50657	0.37346	0.22431	-0.958
Mof_O 	O 	0.01039	0.89368	0.69408	-0.959
_end
