data_functionalizedCrystal
_audit_creation_method	'EQeq! by Chris Wilmer'
_symmetry_space_group_name_H-M	'P1'
_symmetry_Int_Tables_number	1
_symmetry_cell_setting	triclinic
loop_
_symmetry_equiv_pos_as_xyz
  x,y,z
_cell_length_a	18.2451
_cell_length_b	18.2451
_cell_length_c	19.8056
_cell_angle_alpha	90
_cell_angle_beta	90
_cell_angle_gamma	120
loop_
_atom_site_label
_atom_site_type_symbol
_atom_site_fract_x
_atom_site_fract_y
_atom_site_fract_z
_atom_site_charge
Mof_Gd	Gd	0.58289	0.49211	0.55586	1.915
Mof_O 	O 	0.6699	0.42563	0.70292	-0.51
Mof_O 	O 	0.68402	0.63569	0.51971	-0.475
Mof_C 	C 	0.6459	0.469	0.84612	-0.355
Mof_H 	H 	0.6453	0.4153	0.8407	0.132
Mof_C 	C 	0.6531	0.5164	0.78105	-0.376
Mof_H 	H 	0.6251	0.5503	0.7834	0.153
Mof_C 	C 	0.7284	0.5476	0.82804	0.652
Mof_C 	C 	0.6486	0.48	0.71263	0.526
Mof_C 	C 	0.6336	0.6458	0.48267	0.327
Mof_C 	C 	0.5904	0.4706	0.90064	0.489
Mof_C 	C 	0.6629	0.7319	0.4521	-0.21
Mof_H 	H 	0.7178	0.7758	0.4693	-1.339
Mof_C 	C 	0.608	0.7674	0.4245	-0.144
Mof_H 	H 	0.6362	0.8292	0.4277	0.071
Mof_C 	C 	0.801	0.5336	0.8116	-1.209
Mof_H 	H 	0.8272	0.5305	0.8527	0.375
Mof_H 	H 	0.8418	0.5798	0.7846	0.352
Mof_H 	H 	0.7803	0.4817	0.7869	0.396
Mof_C 	C 	0.6531	0.7374	0.3754	0.252
Mof_C 	C 	0.7561	0.6306	0.864	-1.033
Mof_H 	H 	0.7076	0.6364	0.8731	0.286
Mof_H 	H 	0.7951	0.6766	0.836	0.283
Mof_H 	H 	0.7832	0.6314	0.9058	0.238
Mof_C 	C 	0.607	0.6577	0.3325	-0.348
Mof_H 	H 	0.5798	0.6681	0.2952	-0.023
Mof_H 	H 	0.5652	0.6123	0.3595	0.029
Mof_H 	H 	0.6469	0.6424	0.3157	0.013
Mof_C 	C 	0.7291	0.8094	0.3406	-1.1
Mof_H 	H 	0.7593	0.7872	0.3162	0.307
Mof_H 	H 	0.7658	0.8492	0.3738	0.43
Mof_H 	H 	0.7104	0.8372	0.3098	0.329
Mof_O 	O 	0.6219	0.50951	0.6673	-0.538
Mof_O 	O 	0.48177	0.77333	0.43828	-0.584
Mof_C 	C 	0.5126	0.7261	0.42688	0.501
Mof_O 	O 	0.46269	0.64995	0.40903	-0.603
Mof_O 	O 	0.57309	0.41989	0.95037	-0.51
Mof_O 	O 	0.56461	0.52266	0.89495	-0.532
Mof_O 	O 	0.56148	0.58321	0.46842	-0.573
Mof_C 	C 	0.6606	0.7318	0.4616	0.081
Mof_H 	H 	0.7079	0.7734	0.489	1.357
Mof_C 	C 	0.6043	0.7669	0.4362	-0.225
Mof_H 	H 	0.627	0.8254	0.4515	0.041
Mof_C 	C 	0.667	0.7608	0.3892	0.368
Mof_C 	C 	0.6354	0.6926	0.3364	-0.657
Mof_H 	H 	0.6524	0.6522	0.3479	0.288
Mof_H 	H 	0.6587	0.7173	0.2933	0.225
Mof_H 	H 	0.5747	0.6647	0.3343	0.383
Mof_C 	C 	0.7429	0.8428	0.3684	-0.026
Mof_H 	H 	0.759	0.8829	0.4046	-0.113
Mof_H 	H 	0.7294	0.8645	0.3292	-0.02
Mof_H 	H 	0.789	0.8333	0.3582	0
Mof_Gd	Gd	0.50789	0.09078	0.55586	1.874
Mof_O 	O 	0.57437	0.24427	0.70292	-0.512
Mof_O 	O 	0.36431	0.04833	0.51971	-0.443
Mof_C 	C 	0.531	0.1769	0.84612	-0.363
Mof_H 	H 	0.5847	0.23	0.8407	0.134
Mof_C 	C 	0.4836	0.1367	0.78105	-0.383
Mof_H 	H 	0.4497	0.0748	0.7834	0.155
Mof_C 	C 	0.4524	0.1808	0.82804	0.674
Mof_C 	C 	0.52	0.1686	0.71263	0.526
Mof_C 	C 	0.3542	0.9878	0.48267	0.064
Mof_C 	C 	0.5294	0.1198	0.90064	0.492
Mof_C 	C 	0.2681	0.931	0.4521	-0.487
Mof_H 	H 	0.2242	0.942	0.4693	-5.077
Mof_C 	C 	0.2326	0.8406	0.4245	-0.243
Mof_H 	H 	0.1708	0.807	0.4277	0.284
Mof_C 	C 	0.4664	0.2674	0.8116	-1.235
Mof_H 	H 	0.4695	0.2967	0.8527	0.383
Mof_H 	H 	0.4202	0.262	0.7846	0.361
Mof_H 	H 	0.5183	0.2986	0.7869	0.404
Mof_C 	C 	0.2626	0.9157	0.3754	0.598
Mof_C 	C 	0.3694	0.1255	0.864	-1.083
Mof_H 	H 	0.3636	0.0712	0.8731	0.309
Mof_H 	H 	0.3234	0.1185	0.836	0.303
Mof_H 	H 	0.3686	0.1518	0.9058	0.268
Mof_C 	C 	0.3423	0.9493	0.3325	-0.658
Mof_H 	H 	0.3319	0.9117	0.2952	-0.009
Mof_H 	H 	0.3877	0.9529	0.3595	0.07
Mof_H 	H 	0.3576	0.0045	0.3157	0.054
Mof_C 	C 	0.1906	0.9197	0.3406	-1.434
Mof_H 	H 	0.2128	0.9721	0.3162	0.416
Mof_H 	H 	0.1508	0.9166	0.3738	0.613
Mof_H 	H 	0.1628	0.8732	0.3098	0.421
Mof_O 	O 	0.49049	0.11239	0.6673	-0.538
Mof_O 	O 	0.22667	0.70844	0.43828	-0.606
Mof_C 	C 	0.2739	0.7865	0.42688	0.553
Mof_O 	O 	0.35005	0.81274	0.40903	-0.635
Mof_O 	O 	0.58011	0.1532	0.95037	-0.509
Mof_O 	O 	0.47734	0.04195	0.89495	-0.53
Mof_O 	O 	0.41679	0.97827	0.46842	-0.513
Mof_C 	C 	0.2682	0.9288	0.4616	0.716
Mof_H 	H 	0.2266	0.9345	0.489	4.922
Mof_C 	C 	0.2331	0.8374	0.4362	-0.365
Mof_H 	H 	0.1746	0.8016	0.4515	-0.119
Mof_C 	C 	0.2392	0.9062	0.3892	0.445
Mof_C 	C 	0.3074	0.9428	0.3364	-0.989
Mof_H 	H 	0.3478	0.0002	0.3479	0.462
Mof_H 	H 	0.2827	0.9414	0.2933	0.348
Mof_H 	H 	0.3353	0.91	0.3343	0.606
Mof_C 	C 	0.1572	0.9001	0.3684	-0.057
Mof_H 	H 	0.1171	0.8761	0.4046	-0.082
Mof_H 	H 	0.1355	0.8649	0.3292	-0.016
Mof_H 	H 	0.1667	0.9557	0.3582	0.042
Mof_Gd	Gd	0.90922	0.41711	0.55586	1.909
Mof_O 	O 	0.75573	0.3301	0.70292	-0.515
Mof_O 	O 	0.95167	0.31598	0.51971	-0.48
Mof_C 	C 	0.8231	0.3541	0.84612	-0.368
Mof_H 	H 	0.77	0.3547	0.8407	0.136
Mof_C 	C 	0.8633	0.3469	0.78105	-0.392
Mof_H 	H 	0.9252	0.3749	0.7834	0.157
Mof_C 	C 	0.8192	0.2716	0.82804	0.697
Mof_C 	C 	0.8314	0.3514	0.71263	0.529
Mof_C 	C 	0.0122	0.3664	0.48267	0.29
Mof_C 	C 	0.8802	0.4096	0.90064	0.498
Mof_C 	C 	0.069	0.3371	0.4521	-0.248
Mof_H 	H 	0.058	0.2822	0.4693	-1.87
Mof_C 	C 	0.1594	0.392	0.4245	-0.158
Mof_H 	H 	0.193	0.3638	0.4277	0.116
Mof_C 	C 	0.7326	0.199	0.8116	-1.252
Mof_H 	H 	0.7033	0.1728	0.8527	0.388
Mof_H 	H 	0.738	0.1582	0.7846	0.356
Mof_H 	H 	0.7014	0.2197	0.7869	0.406
Mof_C 	C 	0.0843	0.3469	0.3754	0.299
Mof_C 	C 	0.8745	0.2439	0.864	-1.156
Mof_H 	H 	0.9288	0.2924	0.8731	0.345
Mof_H 	H 	0.8815	0.2049	0.836	0.326
Mof_H 	H 	0.8482	0.2168	0.9058	0.318
Mof_C 	C 	0.0507	0.393	0.3325	-0.39
Mof_H 	H 	0.0883	0.4202	0.2952	-0.02
Mof_H 	H 	0.0471	0.4348	0.3595	0.035
Mof_H 	H 	0.9955	0.3531	0.3157	0.021
Mof_C 	C 	0.0803	0.2709	0.3406	-1.145
Mof_H 	H 	0.0279	0.2407	0.3162	0.323
Mof_H 	H 	0.0834	0.2342	0.3738	0.451
Mof_H 	H 	0.1268	0.2896	0.3098	0.339
Mof_O 	O 	0.88761	0.3781	0.6673	-0.541
Mof_O 	O 	0.29156	0.51823	0.43828	-0.591
Mof_C 	C 	0.2135	0.4874	0.42688	0.51
Mof_O 	O 	0.18726	0.53731	0.40903	-0.608
Mof_O 	O 	0.8468	0.42691	0.95037	-0.51
Mof_O 	O 	0.95805	0.43539	0.89495	-0.53
Mof_O 	O 	0.02173	0.43852	0.46842	-0.564
Mof_C 	C 	0.0712	0.3394	0.4616	0.17
Mof_H 	H 	0.0655	0.2921	0.489	1.857
Mof_C 	C 	0.1626	0.3957	0.4362	-0.247
Mof_H 	H 	0.1984	0.373	0.4515	0.007
Mof_C 	C 	0.0938	0.333	0.3892	0.377
Mof_C 	C 	0.0572	0.3646	0.3364	-0.701
Mof_H 	H 	0.9998	0.3476	0.3479	0.309
Mof_H 	H 	0.0586	0.3413	0.2933	0.243
Mof_H 	H 	0.09	0.4253	0.3343	0.412
Mof_C 	C 	0.0999	0.2571	0.3684	-0.029
Mof_H 	H 	0.1239	0.241	0.4046	-0.101
Mof_H 	H 	0.1351	0.2706	0.3292	-0.014
Mof_H 	H 	0.0443	0.211	0.3582	0.005
Mof_Gd	Gd	0.49211	0.58289	0.94414	1.893
Mof_O 	O 	0.42563	0.6699	0.79708	-0.515
Mof_O 	O 	0.63569	0.68402	0.98029	-0.462
Mof_C 	C 	0.469	0.6459	0.65388	-0.377
Mof_H 	H 	0.4153	0.6453	0.6593	0.139
Mof_C 	C 	0.5164	0.6531	0.71895	-0.399
Mof_H 	H 	0.5503	0.6251	0.7166	0.16
Mof_C 	C 	0.5476	0.7284	0.67196	0.725
Mof_C 	C 	0.48	0.6486	0.78737	0.532
Mof_C 	C 	0.6458	0.6336	0.01733	0.191
Mof_C 	C 	0.4706	0.5904	0.59936	0.502
Mof_C 	C 	0.7319	0.6629	0.0479	-0.354
Mof_H 	H 	0.7758	0.7178	0.0307	-3.283
Mof_C 	C 	0.7674	0.608	0.0755	-0.196
Mof_H 	H 	0.8292	0.6362	0.0723	0.189
Mof_C 	C 	0.5336	0.801	0.6884	-1.289
Mof_H 	H 	0.5305	0.8272	0.6473	0.4
Mof_H 	H 	0.5798	0.8418	0.7154	0.372
Mof_H 	H 	0.4817	0.7803	0.7131	0.418
Mof_C 	C 	0.7374	0.6531	0.1246	0.431
Mof_C 	C 	0.6306	0.7561	0.636	-1.214
Mof_H 	H 	0.6364	0.7076	0.6269	0.369
Mof_H 	H 	0.6766	0.7951	0.664	0.35
Mof_H 	H 	0.6314	0.7832	0.5942	0.35
Mof_C 	C 	0.6577	0.607	0.1675	-0.51
Mof_H 	H 	0.6681	0.5798	0.2048	-0.016
Mof_H 	H 	0.6123	0.5652	0.1405	0.05
Mof_H 	H 	0.6424	0.6469	0.1843	0.037
Mof_C 	C 	0.8094	0.7291	0.1594	-1.276
Mof_H 	H 	0.7872	0.7593	0.1838	0.366
Mof_H 	H 	0.8492	0.7658	0.1262	0.524
Mof_H 	H 	0.8372	0.7104	0.1902	0.376
Mof_O 	O 	0.50951	0.6219	0.8327	-0.541
Mof_O 	O 	0.77333	0.48177	0.06172	-0.597
Mof_C 	C 	0.7261	0.5126	0.07312	0.529
Mof_O 	O 	0.64995	0.46269	0.09097	-0.62
Mof_O 	O 	0.41989	0.57309	0.54963	-0.513
Mof_O 	O 	0.52266	0.56461	0.60505	-0.532
Mof_O 	O 	0.58321	0.56148	0.03158	-0.542
Mof_C 	C 	0.7318	0.6606	0.0384	0.41
Mof_H 	H 	0.7734	0.7079	0.011	3.209
Mof_C 	C 	0.7669	0.6043	0.0638	-0.3
Mof_H 	H 	0.8254	0.627	0.0485	-0.047
Mof_C 	C 	0.7608	0.667	0.1108	0.41
Mof_C 	C 	0.6926	0.6354	0.1636	-0.832
Mof_H 	H 	0.6522	0.6524	0.1521	0.379
Mof_H 	H 	0.7173	0.6587	0.2067	0.291
Mof_H 	H 	0.6647	0.5747	0.1657	0.5
Mof_C 	C 	0.8428	0.7429	0.1316	-0.042
Mof_H 	H 	0.8829	0.759	0.0954	-0.094
Mof_H 	H 	0.8645	0.7294	0.1708	-0.015
Mof_H 	H 	0.8333	0.789	0.1418	0.022
Mof_Gd	Gd	0.09078	0.50789	0.94414	1.907
Mof_O 	O 	0.24427	0.57437	0.79708	-0.513
Mof_O 	O 	0.04833	0.36431	0.98029	-0.476
Mof_C 	C 	0.1769	0.531	0.65388	-0.367
Mof_H 	H 	0.23	0.5847	0.6593	0.136
Mof_C 	C 	0.1367	0.4836	0.71895	-0.389
Mof_H 	H 	0.0748	0.4497	0.7166	0.156
Mof_C 	C 	0.1808	0.4524	0.67196	0.691
Mof_C 	C 	0.1686	0.52	0.78737	0.529
Mof_C 	C 	0.9878	0.3542	0.01733	0.297
Mof_C 	C 	0.1198	0.5294	0.59936	0.498
Mof_C 	C 	0.931	0.2681	0.0479	-0.24
Mof_H 	H 	0.942	0.2242	0.0307	-1.748
Mof_C 	C 	0.8406	0.2326	0.0755	-0.155
Mof_H 	H 	0.807	0.1708	0.0723	0.102
Mof_C 	C 	0.2674	0.4664	0.6884	-1.25
Mof_H 	H 	0.2967	0.4695	0.6473	0.387
Mof_H 	H 	0.262	0.4202	0.7154	0.361
Mof_H 	H 	0.2986	0.5183	0.7131	0.407
Mof_C 	C 	0.9157	0.2626	0.1246	0.288
Mof_C 	C 	0.1255	0.3694	0.636	-1.135
Mof_H 	H 	0.0712	0.3636	0.6269	0.335
Mof_H 	H 	0.1185	0.3234	0.664	0.318
Mof_H 	H 	0.1518	0.3686	0.5942	0.304
Mof_C 	C 	0.9493	0.3423	0.1675	-0.384
Mof_H 	H 	0.9117	0.3319	0.2048	-0.02
Mof_H 	H 	0.9529	0.3877	0.1405	0.033
Mof_H 	H 	0.0045	0.3576	0.1843	0.02
Mof_C 	C 	0.9197	0.1906	0.1594	-1.142
Mof_H 	H 	0.9721	0.2128	0.1838	0.321
Mof_H 	H 	0.9166	0.1508	0.1262	0.45
Mof_H 	H 	0.8732	0.1628	0.1902	0.341
Mof_O 	O 	0.11239	0.49049	0.8327	-0.54
Mof_O 	O 	0.70844	0.22667	0.06172	-0.589
Mof_C 	C 	0.7865	0.2739	0.07312	0.508
Mof_O 	O 	0.81274	0.35005	0.09097	-0.607
Mof_O 	O 	0.1532	0.58011	0.54963	-0.512
Mof_O 	O 	0.04195	0.47734	0.60505	-0.532
Mof_O 	O 	0.97827	0.41679	0.03158	-0.566
Mof_C 	C 	0.9288	0.2682	0.0384	0.148
Mof_H 	H 	0.9345	0.2266	0.011	1.743
Mof_C 	C 	0.8374	0.2331	0.0638	-0.243
Mof_H 	H 	0.8016	0.1746	0.0485	0.018
Mof_C 	C 	0.9062	0.2392	0.1108	0.382
Mof_C 	C 	0.9428	0.3074	0.1636	-0.701
Mof_H 	H 	0.0002	0.3478	0.1521	0.311
Mof_H 	H 	0.9414	0.2827	0.2067	0.243
Mof_H 	H 	0.91	0.3353	0.1657	0.411
Mof_C 	C 	0.9001	0.1572	0.1316	-0.029
Mof_H 	H 	0.8761	0.1171	0.0954	-0.107
Mof_H 	H 	0.8649	0.1355	0.1708	-0.017
Mof_H 	H 	0.9557	0.1667	0.1418	0.004
Mof_Gd	Gd	0.41711	0.90922	0.94414	1.894
Mof_O 	O 	0.3301	0.75573	0.79708	-0.509
Mof_O 	O 	0.31598	0.95167	0.98029	-0.464
Mof_C 	C 	0.3541	0.8231	0.65388	-0.339
Mof_H 	H 	0.3547	0.77	0.6593	0.126
Mof_C 	C 	0.3469	0.8633	0.71895	-0.358
Mof_H 	H 	0.3749	0.9252	0.7166	0.147
Mof_C 	C 	0.2716	0.8192	0.67196	0.59
Mof_C 	C 	0.3514	0.8314	0.78737	0.518
Mof_C 	C 	0.3664	0.0122	0.01733	0.221
Mof_C 	C 	0.4096	0.8802	0.59936	0.477
Mof_C 	C 	0.3371	0.069	0.0479	-0.323
Mof_H 	H 	0.2822	0.058	0.0307	-2.857
Mof_C 	C 	0.392	0.1594	0.0755	-0.185
Mof_H 	H 	0.3638	0.193	0.0723	0.159
Mof_C 	C 	0.199	0.7326	0.6884	-1.136
Mof_H 	H 	0.1728	0.7033	0.6473	0.352
Mof_H 	H 	0.1582	0.738	0.7154	0.33
Mof_H 	H 	0.2197	0.7014	0.7131	0.374
Mof_C 	C 	0.3469	0.0843	0.1246	0.39
Mof_C 	C 	0.2439	0.8745	0.636	-0.881
Mof_H 	H 	0.2924	0.9288	0.6269	0.217
Mof_H 	H 	0.2049	0.8815	0.664	0.228
Mof_H 	H 	0.2168	0.8482	0.5942	0.145
Mof_C 	C 	0.393	0.0507	0.1675	-0.474
Mof_H 	H 	0.4202	0.0883	0.2048	-0.02
Mof_H 	H 	0.4348	0.0471	0.1405	0.044
Mof_H 	H 	0.3531	0.9955	0.1843	0.027
Mof_C 	C 	0.2709	0.0803	0.1594	-1.231
Mof_H 	H 	0.2407	0.0279	0.1838	0.347
Mof_H 	H 	0.2342	0.0834	0.1262	0.5
Mof_H 	H 	0.2896	0.1268	0.1902	0.363
Mof_O 	O 	0.3781	0.88761	0.8327	-0.536
Mof_O 	O 	0.51823	0.29156	0.06172	-0.594
Mof_C 	C 	0.4874	0.2135	0.07312	0.522
Mof_O 	O 	0.53731	0.18726	0.09097	-0.616
Mof_O 	O 	0.42691	0.8468	0.54963	-0.509
Mof_O 	O 	0.43539	0.95805	0.60505	-0.532
Mof_O 	O 	0.43852	0.02173	0.03158	-0.549
Mof_C 	C 	0.3394	0.0712	0.0384	0.338
Mof_H 	H 	0.2921	0.0655	0.011	2.804
Mof_C 	C 	0.3957	0.1626	0.0638	-0.282
Mof_H 	H 	0.373	0.1984	0.0485	-0.025
Mof_C 	C 	0.333	0.0938	0.1108	0.401
Mof_C 	C 	0.3646	0.0572	0.1636	-0.796
Mof_H 	H 	0.3476	0.9998	0.1521	0.363
Mof_H 	H 	0.3413	0.0586	0.2067	0.273
Mof_H 	H 	0.4253	0.09	0.1657	0.476
Mof_C 	C 	0.2571	0.0999	0.1316	-0.037
Mof_H 	H 	0.241	0.1239	0.0954	-0.099
Mof_H 	H 	0.2706	0.1351	0.1708	-0.017
Mof_H 	H 	0.211	0.0443	0.1418	0.018
Mof_Gd	Gd	0.41711	0.50789	0.44414	1.914
Mof_O 	O 	0.3301	0.57437	0.29708	-0.511
Mof_O 	O 	0.31598	0.36431	0.48029	-0.476
Mof_C 	C 	0.3541	0.531	0.15388	-0.356
Mof_H 	H 	0.3547	0.5847	0.1593	0.132
Mof_C 	C 	0.3469	0.4836	0.21895	-0.376
Mof_H 	H 	0.3749	0.4497	0.2166	0.153
Mof_C 	C 	0.2716	0.4524	0.17196	0.652
Mof_C 	C 	0.3514	0.52	0.28737	0.526
Mof_C 	C 	0.3664	0.3542	0.51733	0.327
Mof_C 	C 	0.4096	0.5294	0.09936	0.489
Mof_C 	C 	0.3371	0.2681	0.5479	-0.21
Mof_H 	H 	0.2822	0.2242	0.5307	-1.339
Mof_C 	C 	0.392	0.2326	0.5755	-0.144
Mof_H 	H 	0.3638	0.1708	0.5723	0.071
Mof_C 	C 	0.199	0.4664	0.1884	-1.209
Mof_H 	H 	0.1728	0.4695	0.1473	0.375
Mof_H 	H 	0.1582	0.4202	0.2154	0.352
Mof_H 	H 	0.2197	0.5183	0.2131	0.396
Mof_C 	C 	0.3469	0.2626	0.6246	0.252
Mof_C 	C 	0.2439	0.3694	0.136	-1.033
Mof_H 	H 	0.2924	0.3636	0.1269	0.286
Mof_H 	H 	0.2049	0.3234	0.164	0.283
Mof_H 	H 	0.2168	0.3686	0.0942	0.238
Mof_C 	C 	0.393	0.3423	0.6675	-0.348
Mof_H 	H 	0.4202	0.3319	0.7048	-0.023
Mof_H 	H 	0.4348	0.3877	0.6405	0.029
Mof_H 	H 	0.3531	0.3576	0.6843	0.013
Mof_C 	C 	0.2709	0.1906	0.6594	-1.1
Mof_H 	H 	0.2407	0.2128	0.6838	0.307
Mof_H 	H 	0.2342	0.1508	0.6262	0.43
Mof_H 	H 	0.2896	0.1628	0.6902	0.329
Mof_O 	O 	0.3781	0.49049	0.3327	-0.538
Mof_O 	O 	0.51823	0.22667	0.56172	-0.584
Mof_C 	C 	0.4874	0.2739	0.57312	0.501
Mof_O 	O 	0.53731	0.35005	0.59097	-0.603
Mof_O 	O 	0.42691	0.58011	0.04963	-0.51
Mof_O 	O 	0.43539	0.47734	0.10505	-0.532
Mof_O 	O 	0.43852	0.41679	0.53158	-0.573
Mof_C 	C 	0.3394	0.2682	0.5384	0.081
Mof_H 	H 	0.2921	0.2266	0.511	1.357
Mof_C 	C 	0.3957	0.2331	0.5638	-0.225
Mof_H 	H 	0.373	0.1746	0.5485	0.041
Mof_C 	C 	0.333	0.2392	0.6108	0.368
Mof_C 	C 	0.3646	0.3074	0.6636	-0.657
Mof_H 	H 	0.3476	0.3478	0.6521	0.288
Mof_H 	H 	0.3413	0.2827	0.7067	0.225
Mof_H 	H 	0.4253	0.3353	0.6657	0.383
Mof_C 	C 	0.2571	0.1572	0.6316	-0.026
Mof_H 	H 	0.241	0.1171	0.5954	-0.113
Mof_H 	H 	0.2706	0.1355	0.6708	-0.02
Mof_H 	H 	0.211	0.1667	0.6418	0
Mof_Gd	Gd	0.49211	0.90922	0.44414	1.874
Mof_O 	O 	0.42563	0.75573	0.29708	-0.512
Mof_O 	O 	0.63569	0.95167	0.48029	-0.443
Mof_C 	C 	0.469	0.8231	0.15388	-0.363
Mof_H 	H 	0.4153	0.77	0.1593	0.134
Mof_C 	C 	0.5164	0.8633	0.21895	-0.383
Mof_H 	H 	0.5503	0.9252	0.2166	0.155
Mof_C 	C 	0.5476	0.8192	0.17196	0.674
Mof_C 	C 	0.48	0.8314	0.28737	0.526
Mof_C 	C 	0.6458	0.0122	0.51733	0.064
Mof_C 	C 	0.4706	0.8802	0.09936	0.492
Mof_C 	C 	0.7319	0.069	0.5479	-0.487
Mof_H 	H 	0.7758	0.058	0.5307	-5.077
Mof_C 	C 	0.7674	0.1594	0.5755	-0.243
Mof_H 	H 	0.8292	0.193	0.5723	0.284
Mof_C 	C 	0.5336	0.7326	0.1884	-1.235
Mof_H 	H 	0.5305	0.7033	0.1473	0.383
Mof_H 	H 	0.5798	0.738	0.2154	0.361
Mof_H 	H 	0.4817	0.7014	0.2131	0.404
Mof_C 	C 	0.7374	0.0843	0.6246	0.598
Mof_C 	C 	0.6306	0.8745	0.136	-1.083
Mof_H 	H 	0.6364	0.9288	0.1269	0.309
Mof_H 	H 	0.6766	0.8815	0.164	0.303
Mof_H 	H 	0.6314	0.8482	0.0942	0.268
Mof_C 	C 	0.6577	0.0507	0.6675	-0.658
Mof_H 	H 	0.6681	0.0883	0.7048	-0.009
Mof_H 	H 	0.6123	0.0471	0.6405	0.07
Mof_H 	H 	0.6424	0.9955	0.6843	0.054
Mof_C 	C 	0.8094	0.0803	0.6594	-1.434
Mof_H 	H 	0.7872	0.0279	0.6838	0.416
Mof_H 	H 	0.8492	0.0834	0.6262	0.613
Mof_H 	H 	0.8372	0.1268	0.6902	0.421
Mof_O 	O 	0.50951	0.88761	0.3327	-0.538
Mof_O 	O 	0.77333	0.29156	0.56172	-0.606
Mof_C 	C 	0.7261	0.2135	0.57312	0.553
Mof_O 	O 	0.64995	0.18726	0.59097	-0.635
Mof_O 	O 	0.41989	0.8468	0.04963	-0.509
Mof_O 	O 	0.52266	0.95805	0.10505	-0.53
Mof_O 	O 	0.58321	0.02173	0.53158	-0.513
Mof_C 	C 	0.7318	0.0712	0.5384	0.716
Mof_H 	H 	0.7734	0.0655	0.511	4.922
Mof_C 	C 	0.7669	0.1626	0.5638	-0.365
Mof_H 	H 	0.8254	0.1984	0.5485	-0.119
Mof_C 	C 	0.7608	0.0938	0.6108	0.445
Mof_C 	C 	0.6926	0.0572	0.6636	-0.989
Mof_H 	H 	0.6522	0.9998	0.6521	0.462
Mof_H 	H 	0.7173	0.0586	0.7067	0.348
Mof_H 	H 	0.6647	0.09	0.6657	0.606
Mof_C 	C 	0.8428	0.0999	0.6316	-0.057
Mof_H 	H 	0.8829	0.1239	0.5954	-0.082
Mof_H 	H 	0.8645	0.1351	0.6708	-0.016
Mof_H 	H 	0.8333	0.0443	0.6418	0.042
Mof_Gd	Gd	0.09078	0.58289	0.44414	1.909
Mof_O 	O 	0.24427	0.6699	0.29708	-0.515
Mof_O 	O 	0.04833	0.68402	0.48029	-0.48
Mof_C 	C 	0.1769	0.6459	0.15388	-0.368
Mof_H 	H 	0.23	0.6453	0.1593	0.136
Mof_C 	C 	0.1367	0.6531	0.21895	-0.392
Mof_H 	H 	0.0748	0.6251	0.2166	0.157
Mof_C 	C 	0.1808	0.7284	0.17196	0.697
Mof_C 	C 	0.1686	0.6486	0.28737	0.529
Mof_C 	C 	0.9878	0.6336	0.51733	0.29
Mof_C 	C 	0.1198	0.5904	0.09936	0.498
Mof_C 	C 	0.931	0.6629	0.5479	-0.248
Mof_H 	H 	0.942	0.7178	0.5307	-1.87
Mof_C 	C 	0.8406	0.608	0.5755	-0.158
Mof_H 	H 	0.807	0.6362	0.5723	0.116
Mof_C 	C 	0.2674	0.801	0.1884	-1.252
Mof_H 	H 	0.2967	0.8272	0.1473	0.388
Mof_H 	H 	0.262	0.8418	0.2154	0.356
Mof_H 	H 	0.2986	0.7803	0.2131	0.406
Mof_C 	C 	0.9157	0.6531	0.6246	0.299
Mof_C 	C 	0.1255	0.7561	0.136	-1.156
Mof_H 	H 	0.0712	0.7076	0.1269	0.345
Mof_H 	H 	0.1185	0.7951	0.164	0.326
Mof_H 	H 	0.1518	0.7832	0.0942	0.318
Mof_C 	C 	0.9493	0.607	0.6675	-0.39
Mof_H 	H 	0.9117	0.5798	0.7048	-0.02
Mof_H 	H 	0.9529	0.5652	0.6405	0.035
Mof_H 	H 	0.0045	0.6469	0.6843	0.021
Mof_C 	C 	0.9197	0.7291	0.6594	-1.145
Mof_H 	H 	0.9721	0.7593	0.6838	0.323
Mof_H 	H 	0.9166	0.7658	0.6262	0.451
Mof_H 	H 	0.8732	0.7104	0.6902	0.339
Mof_O 	O 	0.11239	0.6219	0.3327	-0.541
Mof_O 	O 	0.70844	0.48177	0.56172	-0.591
Mof_C 	C 	0.7865	0.5126	0.57312	0.51
Mof_O 	O 	0.81274	0.46269	0.59097	-0.608
Mof_O 	O 	0.1532	0.57309	0.04963	-0.51
Mof_O 	O 	0.04195	0.56461	0.10505	-0.53
Mof_O 	O 	0.97827	0.56148	0.53158	-0.564
Mof_C 	C 	0.9288	0.6606	0.5384	0.17
Mof_H 	H 	0.9345	0.7079	0.511	1.857
Mof_C 	C 	0.8374	0.6043	0.5638	-0.247
Mof_H 	H 	0.8016	0.627	0.5485	0.007
Mof_C 	C 	0.9062	0.667	0.6108	0.377
Mof_C 	C 	0.9428	0.6354	0.6636	-0.701
Mof_H 	H 	0.0002	0.6524	0.6521	0.309
Mof_H 	H 	0.9414	0.6587	0.7067	0.243
Mof_H 	H 	0.91	0.5747	0.6657	0.412
Mof_C 	C 	0.9001	0.7429	0.6316	-0.029
Mof_H 	H 	0.8761	0.759	0.5954	-0.101
Mof_H 	H 	0.8649	0.7294	0.6708	-0.014
Mof_H 	H 	0.9557	0.789	0.6418	0.005
Mof_Gd	Gd	0.50789	0.41711	0.05586	1.893
Mof_O 	O 	0.57437	0.3301	0.20292	-0.515
Mof_O 	O 	0.36431	0.31598	0.01971	-0.462
Mof_C 	C 	0.531	0.3541	0.34612	-0.377
Mof_H 	H 	0.5847	0.3547	0.3407	0.139
Mof_C 	C 	0.4836	0.3469	0.28105	-0.399
Mof_H 	H 	0.4497	0.3749	0.2834	0.16
Mof_C 	C 	0.4524	0.2716	0.32804	0.725
Mof_C 	C 	0.52	0.3514	0.21263	0.532
Mof_C 	C 	0.3542	0.3664	0.98267	0.191
Mof_C 	C 	0.5294	0.4096	0.40064	0.502
Mof_C 	C 	0.2681	0.3371	0.9521	-0.354
Mof_H 	H 	0.2242	0.2822	0.9693	-3.283
Mof_C 	C 	0.2326	0.392	0.9245	-0.196
Mof_H 	H 	0.1708	0.3638	0.9277	0.189
Mof_C 	C 	0.4664	0.199	0.3116	-1.289
Mof_H 	H 	0.4695	0.1728	0.3527	0.4
Mof_H 	H 	0.4202	0.1582	0.2846	0.372
Mof_H 	H 	0.5183	0.2197	0.2869	0.418
Mof_C 	C 	0.2626	0.3469	0.8754	0.431
Mof_C 	C 	0.3694	0.2439	0.364	-1.214
Mof_H 	H 	0.3636	0.2924	0.3731	0.369
Mof_H 	H 	0.3234	0.2049	0.336	0.35
Mof_H 	H 	0.3686	0.2168	0.4058	0.35
Mof_C 	C 	0.3423	0.393	0.8325	-0.51
Mof_H 	H 	0.3319	0.4202	0.7952	-0.016
Mof_H 	H 	0.3877	0.4348	0.8595	0.05
Mof_H 	H 	0.3576	0.3531	0.8157	0.037
Mof_C 	C 	0.1906	0.2709	0.8406	-1.276
Mof_H 	H 	0.2128	0.2407	0.8162	0.366
Mof_H 	H 	0.1508	0.2342	0.8738	0.524
Mof_H 	H 	0.1628	0.2896	0.8098	0.376
Mof_O 	O 	0.49049	0.3781	0.1673	-0.541
Mof_O 	O 	0.22667	0.51823	0.93828	-0.597
Mof_C 	C 	0.2739	0.4874	0.92688	0.529
Mof_O 	O 	0.35005	0.53731	0.90903	-0.62
Mof_O 	O 	0.58011	0.42691	0.45037	-0.513
Mof_O 	O 	0.47734	0.43539	0.39495	-0.532
Mof_O 	O 	0.41679	0.43852	0.96842	-0.542
Mof_C 	C 	0.2682	0.3394	0.9616	0.41
Mof_H 	H 	0.2266	0.2921	0.989	3.209
Mof_C 	C 	0.2331	0.3957	0.9362	-0.3
Mof_H 	H 	0.1746	0.373	0.9515	-0.047
Mof_C 	C 	0.2392	0.333	0.8892	0.41
Mof_C 	C 	0.3074	0.3646	0.8364	-0.832
Mof_H 	H 	0.3478	0.3476	0.8479	0.379
Mof_H 	H 	0.2827	0.3413	0.7933	0.291
Mof_H 	H 	0.3353	0.4253	0.8343	0.5
Mof_C 	C 	0.1572	0.2571	0.8684	-0.042
Mof_H 	H 	0.1171	0.241	0.9046	-0.094
Mof_H 	H 	0.1355	0.2706	0.8292	-0.015
Mof_H 	H 	0.1667	0.211	0.8582	0.022
Mof_Gd	Gd	0.90922	0.49211	0.05586	1.907
Mof_O 	O 	0.75573	0.42563	0.20292	-0.513
Mof_O 	O 	0.95167	0.63569	0.01971	-0.476
Mof_C 	C 	0.8231	0.469	0.34612	-0.367
Mof_H 	H 	0.77	0.4153	0.3407	0.136
Mof_C 	C 	0.8633	0.5164	0.28105	-0.389
Mof_H 	H 	0.9252	0.5503	0.2834	0.156
Mof_C 	C 	0.8192	0.5476	0.32804	0.691
Mof_C 	C 	0.8314	0.48	0.21263	0.529
Mof_C 	C 	0.0122	0.6458	0.98267	0.297
Mof_C 	C 	0.8802	0.4706	0.40064	0.498
Mof_C 	C 	0.069	0.7319	0.9521	-0.24
Mof_H 	H 	0.058	0.7758	0.9693	-1.748
Mof_C 	C 	0.1594	0.7674	0.9245	-0.155
Mof_H 	H 	0.193	0.8292	0.9277	0.102
Mof_C 	C 	0.7326	0.5336	0.3116	-1.25
Mof_H 	H 	0.7033	0.5305	0.3527	0.387
Mof_H 	H 	0.738	0.5798	0.2846	0.361
Mof_H 	H 	0.7014	0.4817	0.2869	0.407
Mof_C 	C 	0.0843	0.7374	0.8754	0.288
Mof_C 	C 	0.8745	0.6306	0.364	-1.135
Mof_H 	H 	0.9288	0.6364	0.3731	0.335
Mof_H 	H 	0.8815	0.6766	0.336	0.318
Mof_H 	H 	0.8482	0.6314	0.4058	0.304
Mof_C 	C 	0.0507	0.6577	0.8325	-0.384
Mof_H 	H 	0.0883	0.6681	0.7952	-0.02
Mof_H 	H 	0.0471	0.6123	0.8595	0.033
Mof_H 	H 	0.9955	0.6424	0.8157	0.02
Mof_C 	C 	0.0803	0.8094	0.8406	-1.142
Mof_H 	H 	0.0279	0.7872	0.8162	0.321
Mof_H 	H 	0.0834	0.8492	0.8738	0.45
Mof_H 	H 	0.1268	0.8372	0.8098	0.341
Mof_O 	O 	0.88761	0.50951	0.1673	-0.54
Mof_O 	O 	0.29156	0.77333	0.93828	-0.589
Mof_C 	C 	0.2135	0.7261	0.92688	0.508
Mof_O 	O 	0.18726	0.64995	0.90903	-0.607
Mof_O 	O 	0.8468	0.41989	0.45037	-0.512
Mof_O 	O 	0.95805	0.52266	0.39495	-0.532
Mof_O 	O 	0.02173	0.58321	0.96842	-0.566
Mof_C 	C 	0.0712	0.7318	0.9616	0.148
Mof_H 	H 	0.0655	0.7734	0.989	1.743
Mof_C 	C 	0.1626	0.7669	0.9362	-0.243
Mof_H 	H 	0.1984	0.8254	0.9515	0.018
Mof_C 	C 	0.0938	0.7608	0.8892	0.382
Mof_C 	C 	0.0572	0.6926	0.8364	-0.701
Mof_H 	H 	0.9998	0.6522	0.8479	0.311
Mof_H 	H 	0.0586	0.7173	0.7933	0.243
Mof_H 	H 	0.09	0.6647	0.8343	0.411
Mof_C 	C 	0.0999	0.8428	0.8684	-0.029
Mof_H 	H 	0.1239	0.8829	0.9046	-0.107
Mof_H 	H 	0.1351	0.8645	0.8292	-0.017
Mof_H 	H 	0.0443	0.8333	0.8582	0.004
Mof_Gd	Gd	0.58289	0.09078	0.05586	1.894
Mof_O 	O 	0.6699	0.24427	0.20292	-0.509
Mof_O 	O 	0.68402	0.04833	0.01971	-0.464
Mof_C 	C 	0.6459	0.1769	0.34612	-0.339
Mof_H 	H 	0.6453	0.23	0.3407	0.126
Mof_C 	C 	0.6531	0.1367	0.28105	-0.358
Mof_H 	H 	0.6251	0.0748	0.2834	0.147
Mof_C 	C 	0.7284	0.1808	0.32804	0.59
Mof_C 	C 	0.6486	0.1686	0.21263	0.518
Mof_C 	C 	0.6336	0.9878	0.98267	0.221
Mof_C 	C 	0.5904	0.1198	0.40064	0.477
Mof_C 	C 	0.6629	0.931	0.9521	-0.323
Mof_H 	H 	0.7178	0.942	0.9693	-2.857
Mof_C 	C 	0.608	0.8406	0.9245	-0.185
Mof_H 	H 	0.6362	0.807	0.9277	0.159
Mof_C 	C 	0.801	0.2674	0.3116	-1.136
Mof_H 	H 	0.8272	0.2967	0.3527	0.352
Mof_H 	H 	0.8418	0.262	0.2846	0.33
Mof_H 	H 	0.7803	0.2986	0.2869	0.374
Mof_C 	C 	0.6531	0.9157	0.8754	0.39
Mof_C 	C 	0.7561	0.1255	0.364	-0.881
Mof_H 	H 	0.7076	0.0712	0.3731	0.217
Mof_H 	H 	0.7951	0.1185	0.336	0.228
Mof_H 	H 	0.7832	0.1518	0.4058	0.145
Mof_C 	C 	0.607	0.9493	0.8325	-0.474
Mof_H 	H 	0.5798	0.9117	0.7952	-0.02
Mof_H 	H 	0.5652	0.9529	0.8595	0.044
Mof_H 	H 	0.6469	0.0045	0.8157	0.027
Mof_C 	C 	0.7291	0.9197	0.8406	-1.231
Mof_H 	H 	0.7593	0.9721	0.8162	0.347
Mof_H 	H 	0.7658	0.9166	0.8738	0.5
Mof_H 	H 	0.7104	0.8732	0.8098	0.363
Mof_O 	O 	0.6219	0.11239	0.1673	-0.536
Mof_O 	O 	0.48177	0.70844	0.93828	-0.594
Mof_C 	C 	0.5126	0.7865	0.92688	0.522
Mof_O 	O 	0.46269	0.81274	0.90903	-0.616
Mof_O 	O 	0.57309	0.1532	0.45037	-0.509
Mof_O 	O 	0.56461	0.04195	0.39495	-0.532
Mof_O 	O 	0.56148	0.97827	0.96842	-0.549
Mof_C 	C 	0.6606	0.9288	0.9616	0.338
Mof_H 	H 	0.7079	0.9345	0.989	2.804
Mof_C 	C 	0.6043	0.8374	0.9362	-0.282
Mof_H 	H 	0.627	0.8016	0.9515	-0.025
Mof_C 	C 	0.667	0.9062	0.8892	0.401
Mof_C 	C 	0.6354	0.9428	0.8364	-0.796
Mof_H 	H 	0.6524	0.0002	0.8479	0.363
Mof_H 	H 	0.6587	0.9414	0.7933	0.273
Mof_H 	H 	0.5747	0.91	0.8343	0.476
Mof_C 	C 	0.7429	0.9001	0.8684	-0.037
Mof_H 	H 	0.759	0.8761	0.9046	-0.099
Mof_H 	H 	0.7294	0.8649	0.8292	-0.017
Mof_H 	H 	0.789	0.9557	0.8582	0.018
Mof_Gd	Gd	0.66667	0.33333	0.61818	1.738
Mof_Gd	Gd	0.33333	0.66667	0.88182	1.738
Mof_Gd	Gd	0.33333	0.66667	0.38182	1.738
Mof_Gd	Gd	0.66667	0.33333	0.11818	1.738
_end
