data_functionalizedCrystal
_audit_creation_method	'EQeq! by Chris Wilmer'
_symmetry_space_group_name_H-M	'P1'
_symmetry_Int_Tables_number	1
_symmetry_cell_setting	triclinic
loop_
_symmetry_equiv_pos_as_xyz
  x,y,z
_cell_length_a	9.1034
_cell_length_b	9.1034
_cell_length_c	25.4708
_cell_angle_alpha	90
_cell_angle_beta	90
_cell_angle_gamma	120
loop_
_atom_site_label
_atom_site_type_symbol
_atom_site_fract_x
_atom_site_fract_y
_atom_site_fract_z
_atom_site_charge
Mof_Ce	Ce	0.50013	0.50013	0.33333	2.467
Mof_Ce	Ce	-1.07644e-17	0.49987	0.66667	1.991
Mof_Ce	Ce	0.49987	0	-0	1.827
Mof_Zr	Zr	0.99994	0	0.5	3.192
Mof_Zr	Zr	6e-05	6e-05	0.83333	3.157
Mof_Zr	Zr	5.08196e-18	0.99994	0.16667	3.19
Mof_C 	C 	0.1544	0.241	0.4084	0.253
Mof_C 	C 	0.3044	0.2355	0.4338	0.276
Mof_C 	C 	0.6981	0.7676	0.4334	0.302
Mof_C 	C 	0.8448	0.7537	0.4095	0.252
Mof_C 	C 	0.0866	0.8456	0.74173	0.083
Mof_C 	C 	0.9311	0.6956	0.76713	0.47
Mof_C 	C 	0.0695	0.3019	0.76673	0.112
Mof_C 	C 	0.9089	0.1552	0.74283	0.402
Mof_C 	C 	0.759	0.9134	0.07507	0.41
Mof_C 	C 	0.7645	0.0689	0.10047	0.135
Mof_C 	C 	0.2324	0.9305	0.10007	0.39
Mof_C 	C 	0.2463	0.0911	0.07617	0.113
Mof_C 	C 	0.9134	0.759	0.5916	0.421
Mof_C 	C 	0.0689	0.7645	0.5662	0.132
Mof_C 	C 	0.9305	0.2324	0.5666	0.405
Mof_C 	C 	0.0911	0.2463	0.5905	0.105
Mof_C 	C 	0.241	0.1544	0.25827	0.252
Mof_C 	C 	0.2355	0.3044	0.23287	0.277
Mof_C 	C 	0.7676	0.6981	0.23327	0.302
Mof_C 	C 	0.7537	0.8448	0.25717	0.253
Mof_C 	C 	0.8456	0.0866	0.92493	0.088
Mof_C 	C 	0.6956	0.9311	0.89953	0.466
Mof_C 	C 	0.3019	0.0695	0.89993	0.12
Mof_C 	C 	0.1552	0.9089	0.92383	0.395
Mof_O 	O 	0.1883	0.3363	0.3697	-0.453
Mof_O 	O 	0.448	0.317	0.4155	-0.444
Mof_O 	O 	0.0144	0.1603	0.4319	-0.69
Mof_O 	O 	0.2643	0.1389	0.4731	-0.641
Mof_O 	O 	0.7362	0.8607	0.474	-0.477
Mof_O 	O 	0.9865	0.8372	0.4323	-0.408
Mof_O 	O 	0.5538	0.6836	0.4148	-0.422
Mof_O 	O 	0.8128	0.6663	0.3685	-0.355
Mof_O 	O 	0.148	0.8117	0.70303	-0.321
Mof_O 	O 	0.869	0.552	0.74883	-0.371
Mof_O 	O 	0.1459	0.9856	0.76523	-0.456
Mof_O 	O 	0.8746	0.7357	0.80643	-0.494
Mof_O 	O 	0.1245	0.2638	0.80733	-0.597
Mof_O 	O 	0.8507	0.0135	0.76563	-0.638
Mof_O 	O 	0.1298	0.4462	0.74813	-0.38
Mof_O 	O 	0.8535	0.1872	0.70183	-0.382
Mof_O 	O 	0.6637	0.852	0.03637	-0.343
Mof_O 	O 	0.683	0.131	0.08217	-0.358
Mof_O 	O 	0.8397	0.8541	0.09857	-0.493
Mof_O 	O 	0.8611	0.1254	0.13977	-0.516
Mof_O 	O 	0.1393	0.8755	0.14067	-0.606
Mof_O 	O 	0.1628	0.1493	0.09897	-0.612
Mof_O 	O 	0.3164	0.8702	0.08147	-0.373
Mof_O 	O 	0.3337	0.1465	0.03517	-0.381
Mof_O 	O 	0.852	0.6637	0.6303	-0.334
Mof_O 	O 	0.131	0.683	0.5845	-0.366
Mof_O 	O 	0.8541	0.8397	0.5681	-0.489
Mof_O 	O 	0.1254	0.8611	0.5269	-0.52
Mof_O 	O 	0.8755	0.1393	0.526	-0.603
Mof_O 	O 	0.1493	0.1628	0.5677	-0.605
Mof_O 	O 	0.8702	0.3164	0.5852	-0.379
Mof_O 	O 	0.1465	0.3337	0.6315	-0.372
Mof_O 	O 	0.3363	0.1883	0.29697	-0.452
Mof_O 	O 	0.317	0.448	0.25117	-0.446
Mof_O 	O 	0.1603	0.0144	0.23477	-0.688
Mof_O 	O 	0.1389	0.2643	0.19357	-0.643
Mof_O 	O 	0.8607	0.7362	0.19267	-0.477
Mof_O 	O 	0.8372	0.9865	0.23437	-0.41
Mof_O 	O 	0.6836	0.5538	0.25187	-0.422
Mof_O 	O 	0.6663	0.8128	0.29817	-0.356
Mof_O 	O 	0.8117	0.148	0.96363	-0.274
Mof_O 	O 	0.552	0.869	0.91783	-0.341
Mof_O 	O 	0.9856	0.1459	0.90143	-0.443
Mof_O 	O 	0.7357	0.8746	0.86023	-0.493
Mof_O 	O 	0.2638	0.1245	0.85933	-0.596
Mof_O 	O 	0.0135	0.8507	0.90103	-0.632
Mof_O 	O 	0.4462	0.1298	0.91853	-0.348
Mof_O 	O 	0.1872	0.8535	0.96483	-0.338
_end
