data_functionalizedCrystal
_audit_creation_method	'EQeq! by Chris Wilmer'
_symmetry_space_group_name_H-M	'P1'
_symmetry_Int_Tables_number	1
_symmetry_cell_setting	triclinic
loop_
_symmetry_equiv_pos_as_xyz
  x,y,z
_cell_length_a	20.1244
_cell_length_b	12.6619
_cell_length_c	21.1518
_cell_angle_alpha	90
_cell_angle_beta	110.946
_cell_angle_gamma	90
loop_
_atom_site_label
_atom_site_type_symbol
_atom_site_fract_x
_atom_site_fract_y
_atom_site_fract_z
_atom_site_charge
Mof_C 	C 	0.0743	0.9906	0.9328	0.61
Mof_C 	C 	0.1335	0.9197	0.9283	-0.677
Mof_H 	H 	0.1434	0.8656	0.9622	0.145
Mof_H 	H 	0.1188	0.8878	0.8843	0.084
Mof_H 	H 	0.1755	0.9611	0.9356	0.1
Mof_O 	O 	0.5053	0.129	0.5665	-0.922
Mof_O 	O 	0.5553	0.8382	0.7278	-0.925
Mof_O 	O 	0.6754	0.8566	0.5632	-0.993
Mof_O 	O 	0.6489	0.0555	0.6095	-0.784
Mof_O 	O 	0.5835	0.0466	0.6967	-0.807
Mof_O 	O 	0.6726	0.9004	0.6943	-0.616
Mof_O 	O 	0.7698	0.0251	0.5908	-0.837
Mof_O 	O 	0.6231	0.2623	0.5924	-0.793
Mof_O 	O 	0.5572	0.2543	0.682	-0.818
Mof_O 	O 	0.5974	0.0047	0.8228	-0.781
Mof_O 	O 	0.69	0.8524	0.8238	-0.589
Mof_O 	O 	0.7964	0.863	0.6781	-0.75
Mof_O 	O 	0.6879	0.2103	0.7142	-0.72
Mof_O 	O 	0.7158	0.044	0.8089	-0.755
Mof_O 	O 	0.7865	0.0509	0.7156	-0.713
Mof_O 	O 	0.7621	0.2244	0.6202	-0.76
Mof_O 	O 	0.6521	0.4028	0.6913	-0.601
Mof_O 	O 	0.5777	0.423	0.7773	-0.958
Mof_O 	O 	0.6185	0.2103	0.813	-0.856
Mof_O 	O 	0.6222	0.1312	0.9373	-0.892
Mof_O 	O 	0.7234	0.9891	0.9247	-0.555
Mof_O 	O 	0.8136	0.8153	0.9399	-0.76
Mof_O 	O 	0.8156	0.8819	0.8102	-0.584
Mof_O 	O 	0.9328	0.8198	0.7733	-0.92
Mof_O 	O 	0.8968	0.0077	0.6925	-0.83
Mof_O 	O 	0.8837	0.2144	0.7212	-0.781
Mof_O 	O 	0.7926	0.3608	0.7197	-0.513
Mof_O 	O 	0.7167	0.3492	0.8235	-0.646
Mof_O 	O 	0.7421	0.1983	0.9109	-0.758
Mof_O 	O 	0.8526	0.0139	0.9136	-0.595
Mof_O 	O 	0.9223	0.0158	0.8256	-0.777
Mof_O 	O 	0.8218	0.2031	0.8225	-0.769
Mof_O 	O 	0.9348	0.4203	0.7721	-0.907
Mof_O 	O 	0.8569	0.3892	0.8566	-0.569
Mof_O 	O 	0.797	0.3979	0.9559	-0.84
Mof_O 	O 	0.8877	0.2411	0.9548	-0.622
Mof_O 	O 	0.9597	0.2473	0.8535	-0.854
Mof_O 	O 	0.0321	0.957	0.962	-0.626
Mof_O 	O 	0.0665	0.0797	0.9071	-1.053
Mof_O 	O 	0.1756	0.1035	0.8191	-0.864
Mof_O 	O 	0.3674	0.1989	0.6104	-0.88
Mof_O 	O 	0.6847	0.8782	0.0197	-0.793
Mof_Na	Na	0.407	0.2555	0.5206	1.876
Mof_K 	K 	0.80939	0.7629	0.0682	2.467
Mof_K 	K 	0.47163	0.1315	0.73855	3.415
Mof_Ge	Ge	0.75503	0.1285	0.76695	1.858
Mof_Y 	Y 	0.95335	0.11049	0.92627	1.499
Mof_W 	W 	0.58627	0.15086	0.6311	1.208
Mof_W 	W 	0.62305	0.92723	0.75431	1.355
Mof_W 	W 	0.71521	0.93871	0.63011	1.295
Mof_W 	W 	0.83848	0.1249	0.64702	0.802
Mof_W 	W 	0.71164	0.33549	0.64788	0.947
Mof_W 	W 	0.63007	0.32854	0.7604	1.338
Mof_W 	W 	0.66266	0.10557	0.87993	1.227
Mof_W 	W 	0.78417	0.92035	0.88336	1.385
Mof_W 	W 	0.87471	0.92614	0.76152	1.318
Mof_W 	W 	0.88939	0.31811	0.79169	1.35
Mof_W 	W 	0.80866	0.30278	0.90287	1.306
Mof_Rb	Rb	0.02904	0.11838	0.76864	3.891
Mof_Rb	Rb	0.67309	0.34138	0.98986	3.532
Mof_C 	C 	0.9257	0.4906	0.5672	0.578
Mof_C 	C 	0.8665	0.4197	0.5717	-0.645
Mof_H 	H 	0.8566	0.3656	0.5378	0.133
Mof_H 	H 	0.8812	0.3878	0.6157	0.071
Mof_H 	H 	0.8245	0.4611	0.5644	0.086
Mof_O 	O 	0.4947	0.629	0.9335	-0.921
Mof_O 	O 	0.4447	0.3382	0.7722	-0.925
Mof_O 	O 	0.3246	0.3566	0.9368	-0.995
Mof_O 	O 	0.3511	0.5555	0.8905	-0.787
Mof_O 	O 	0.4165	0.5466	0.8033	-0.809
Mof_O 	O 	0.3274	0.4004	0.8057	-0.617
Mof_O 	O 	0.2302	0.5251	0.9092	-0.841
Mof_O 	O 	0.3769	0.7623	0.9076	-0.792
Mof_O 	O 	0.4428	0.7543	0.818	-0.819
Mof_O 	O 	0.4026	0.5047	0.6772	-0.782
Mof_O 	O 	0.31	0.3524	0.6762	-0.59
Mof_O 	O 	0.2036	0.363	0.8219	-0.753
Mof_O 	O 	0.3121	0.7103	0.7858	-0.721
Mof_O 	O 	0.2842	0.544	0.6911	-0.759
Mof_O 	O 	0.2135	0.5509	0.7844	-0.719
Mof_O 	O 	0.2379	0.7244	0.8798	-0.759
Mof_O 	O 	0.3479	0.9028	0.8087	-0.6
Mof_O 	O 	0.4223	0.923	0.7227	-0.957
Mof_O 	O 	0.3815	0.7103	0.687	-0.856
Mof_O 	O 	0.3778	0.6312	0.5627	-0.892
Mof_O 	O 	0.2766	0.4891	0.5753	-0.55
Mof_O 	O 	0.1864	0.3153	0.5601	-0.76
Mof_O 	O 	0.1844	0.3819	0.6898	-0.585
Mof_O 	O 	0.0672	0.3198	0.7267	-0.915
Mof_O 	O 	0.1032	0.5077	0.8075	-0.842
Mof_O 	O 	0.1163	0.7144	0.7788	-0.784
Mof_O 	O 	0.2074	0.8608	0.7803	-0.511
Mof_O 	O 	0.2833	0.8492	0.6765	-0.645
Mof_O 	O 	0.2579	0.6983	0.5891	-0.758
Mof_O 	O 	0.1474	0.5139	0.5864	-0.601
Mof_O 	O 	0.0777	0.5158	0.6744	-0.789
Mof_O 	O 	0.1782	0.7031	0.6775	-0.769
Mof_O 	O 	0.0652	0.9203	0.7279	-0.896
Mof_O 	O 	0.1431	0.8892	0.6434	-0.566
Mof_O 	O 	0.203	0.8979	0.5441	-0.837
Mof_O 	O 	0.1123	0.7411	0.5452	-0.619
Mof_O 	O 	0.0403	0.7473	0.6465	-0.855
Mof_O 	O 	0.9679	0.457	0.538	-0.626
Mof_O 	O 	0.9335	0.5797	0.5929	-1.035
Mof_O 	O 	0.8244	0.6035	0.6809	-0.86
Mof_O 	O 	0.6326	0.6989	0.8896	-0.88
Mof_O 	O 	0.3153	0.3782	0.4803	-0.788
Mof_Na	Na	0.593	0.7555	0.9794	1.879
Mof_K 	K 	0.19061	0.2629	0.4318	2.445
Mof_K 	K 	0.52837	0.6315	0.76145	3.427
Mof_Ge	Ge	0.24497	0.6285	0.73305	1.859
Mof_Y 	Y 	0.04665	0.61049	0.57373	1.498
Mof_W 	W 	0.41373	0.65086	0.8689	1.209
Mof_W 	W 	0.37695	0.42723	0.74569	1.361
Mof_W 	W 	0.28479	0.43871	0.86989	1.31
Mof_W 	W 	0.16152	0.6249	0.85298	0.801
Mof_W 	W 	0.28836	0.83549	0.85212	0.95
Mof_W 	W 	0.36993	0.82854	0.7396	1.337
Mof_W 	W 	0.33734	0.60557	0.62007	1.224
Mof_W 	W 	0.21583	0.42035	0.61664	1.399
Mof_W 	W 	0.12529	0.42614	0.73848	1.344
Mof_W 	W 	0.11061	0.81811	0.70831	1.349
Mof_W 	W 	0.19134	0.80278	0.59713	1.306
Mof_Rb	Rb	0.97096	0.61838	0.73136	3.941
Mof_Rb	Rb	0.32691	0.84138	0.51014	3.539
Mof_C 	C 	0.9257	0.0094	0.0672	0.609
Mof_C 	C 	0.8665	0.0803	0.0717	-0.678
Mof_H 	H 	0.8566	0.1344	0.0378	0.145
Mof_H 	H 	0.8812	0.1122	0.1157	0.084
Mof_H 	H 	0.8245	0.0389	0.0644	0.1
Mof_O 	O 	0.4947	0.871	0.4335	-0.922
Mof_O 	O 	0.4447	0.1618	0.2722	-0.925
Mof_O 	O 	0.3246	0.1434	0.4368	-0.993
Mof_O 	O 	0.3511	0.9445	0.3905	-0.784
Mof_O 	O 	0.4165	0.9534	0.3033	-0.807
Mof_O 	O 	0.3274	0.0996	0.3057	-0.616
Mof_O 	O 	0.2302	0.9749	0.4092	-0.837
Mof_O 	O 	0.3769	0.7377	0.4076	-0.793
Mof_O 	O 	0.4428	0.7457	0.318	-0.818
Mof_O 	O 	0.4026	0.9953	0.1772	-0.781
Mof_O 	O 	0.31	0.1476	0.1762	-0.589
Mof_O 	O 	0.2036	0.137	0.3219	-0.75
Mof_O 	O 	0.3121	0.7897	0.2858	-0.72
Mof_O 	O 	0.2842	0.956	0.1911	-0.755
Mof_O 	O 	0.2135	0.9491	0.2844	-0.713
Mof_O 	O 	0.2379	0.7756	0.3798	-0.76
Mof_O 	O 	0.3479	0.5972	0.3087	-0.601
Mof_O 	O 	0.4223	0.577	0.2227	-0.958
Mof_O 	O 	0.3815	0.7897	0.187	-0.856
Mof_O 	O 	0.3778	0.8688	0.0627	-0.892
Mof_O 	O 	0.2766	0.0109	0.0753	-0.555
Mof_O 	O 	0.1864	0.1847	0.0601	-0.76
Mof_O 	O 	0.1844	0.1181	0.1898	-0.584
Mof_O 	O 	0.0672	0.1802	0.2267	-0.92
Mof_O 	O 	0.1032	0.9923	0.3075	-0.83
Mof_O 	O 	0.1163	0.7856	0.2788	-0.781
Mof_O 	O 	0.2074	0.6392	0.2803	-0.513
Mof_O 	O 	0.2833	0.6508	0.1765	-0.646
Mof_O 	O 	0.2579	0.8017	0.0891	-0.758
Mof_O 	O 	0.1474	0.9861	0.0864	-0.595
Mof_O 	O 	0.0777	0.9842	0.1744	-0.777
Mof_O 	O 	0.1782	0.7969	0.1775	-0.769
Mof_O 	O 	0.0652	0.5797	0.2279	-0.907
Mof_O 	O 	0.1431	0.6108	0.1434	-0.569
Mof_O 	O 	0.203	0.6021	0.0441	-0.84
Mof_O 	O 	0.1123	0.7589	0.0452	-0.622
Mof_O 	O 	0.0403	0.7527	0.1465	-0.854
Mof_O 	O 	0.9679	0.043	0.038	-0.626
Mof_O 	O 	0.9335	0.9203	0.0929	-1.053
Mof_O 	O 	0.8244	0.8965	0.1809	-0.864
Mof_O 	O 	0.6326	0.8011	0.3896	-0.88
Mof_O 	O 	0.3153	0.1218	0.9803	-0.793
Mof_Na	Na	0.593	0.7445	0.4794	1.876
Mof_K 	K 	0.19061	0.2371	0.9318	2.467
Mof_K 	K 	0.52837	0.8685	0.26145	3.415
Mof_Ge	Ge	0.24497	0.8715	0.23305	1.858
Mof_Y 	Y 	0.04665	0.88951	0.07373	1.499
Mof_W 	W 	0.41373	0.84914	0.3689	1.208
Mof_W 	W 	0.37695	0.07277	0.24569	1.355
Mof_W 	W 	0.28479	0.06129	0.36989	1.295
Mof_W 	W 	0.16152	0.8751	0.35298	0.802
Mof_W 	W 	0.28836	0.66451	0.35212	0.947
Mof_W 	W 	0.36993	0.67146	0.2396	1.338
Mof_W 	W 	0.33734	0.89443	0.12007	1.227
Mof_W 	W 	0.21583	0.07965	0.11664	1.385
Mof_W 	W 	0.12529	0.07386	0.23848	1.318
Mof_W 	W 	0.11061	0.68189	0.20831	1.35
Mof_W 	W 	0.19134	0.69722	0.09713	1.306
Mof_Rb	Rb	0.97096	0.88162	0.23136	3.891
Mof_Rb	Rb	0.32691	0.65862	0.01014	3.532
Mof_C 	C 	0.0743	0.5094	0.4328	0.578
Mof_C 	C 	0.1335	0.5803	0.4283	-0.645
Mof_H 	H 	0.1434	0.6344	0.4622	0.133
Mof_H 	H 	0.1188	0.6122	0.3843	0.071
Mof_H 	H 	0.1755	0.5389	0.4356	0.086
Mof_O 	O 	0.5053	0.371	0.0665	-0.921
Mof_O 	O 	0.5553	0.6618	0.2278	-0.925
Mof_O 	O 	0.6754	0.6434	0.0632	-0.995
Mof_O 	O 	0.6489	0.4445	0.1095	-0.787
Mof_O 	O 	0.5835	0.4534	0.1967	-0.809
Mof_O 	O 	0.6726	0.5996	0.1943	-0.617
Mof_O 	O 	0.7698	0.4749	0.0908	-0.841
Mof_O 	O 	0.6231	0.2377	0.0924	-0.792
Mof_O 	O 	0.5572	0.2457	0.182	-0.819
Mof_O 	O 	0.5974	0.4953	0.3228	-0.782
Mof_O 	O 	0.69	0.6476	0.3238	-0.59
Mof_O 	O 	0.7964	0.637	0.1781	-0.753
Mof_O 	O 	0.6879	0.2897	0.2142	-0.721
Mof_O 	O 	0.7158	0.456	0.3089	-0.759
Mof_O 	O 	0.7865	0.4491	0.2156	-0.719
Mof_O 	O 	0.7621	0.2756	0.1202	-0.759
Mof_O 	O 	0.6521	0.0972	0.1913	-0.6
Mof_O 	O 	0.5777	0.077	0.2773	-0.957
Mof_O 	O 	0.6185	0.2897	0.313	-0.856
Mof_O 	O 	0.6222	0.3688	0.4373	-0.892
Mof_O 	O 	0.7234	0.5109	0.4247	-0.55
Mof_O 	O 	0.8136	0.6847	0.4399	-0.76
Mof_O 	O 	0.8156	0.6181	0.3102	-0.585
Mof_O 	O 	0.9328	0.6802	0.2733	-0.915
Mof_O 	O 	0.8968	0.4923	0.1925	-0.842
Mof_O 	O 	0.8837	0.2856	0.2212	-0.784
Mof_O 	O 	0.7926	0.1392	0.2197	-0.511
Mof_O 	O 	0.7167	0.1508	0.3235	-0.645
Mof_O 	O 	0.7421	0.3017	0.4109	-0.758
Mof_O 	O 	0.8526	0.4861	0.4136	-0.601
Mof_O 	O 	0.9223	0.4842	0.3256	-0.789
Mof_O 	O 	0.8218	0.2969	0.3225	-0.769
Mof_O 	O 	0.9348	0.0797	0.2721	-0.896
Mof_O 	O 	0.8569	0.1108	0.3566	-0.566
Mof_O 	O 	0.797	0.1021	0.4559	-0.837
Mof_O 	O 	0.8877	0.2589	0.4548	-0.619
Mof_O 	O 	0.9597	0.2527	0.3535	-0.855
Mof_O 	O 	0.0321	0.543	0.462	-0.626
Mof_O 	O 	0.0665	0.4203	0.4071	-1.035
Mof_O 	O 	0.1756	0.3965	0.3191	-0.86
Mof_O 	O 	0.3674	0.3011	0.1104	-0.88
Mof_O 	O 	0.6847	0.6218	0.5197	-0.788
Mof_Na	Na	0.407	0.2445	0.0206	1.879
Mof_K 	K 	0.80939	0.7371	0.5682	2.445
Mof_K 	K 	0.47163	0.3685	0.23855	3.427
Mof_Ge	Ge	0.75503	0.3715	0.26695	1.859
Mof_Y 	Y 	0.95335	0.38951	0.42627	1.498
Mof_W 	W 	0.58627	0.34914	0.1311	1.209
Mof_W 	W 	0.62305	0.57277	0.25431	1.361
Mof_W 	W 	0.71521	0.56129	0.13011	1.31
Mof_W 	W 	0.83848	0.3751	0.14702	0.801
Mof_W 	W 	0.71164	0.16451	0.14788	0.95
Mof_W 	W 	0.63007	0.17146	0.2604	1.337
Mof_W 	W 	0.66266	0.39443	0.37993	1.224
Mof_W 	W 	0.78417	0.57965	0.38336	1.399
Mof_W 	W 	0.87471	0.57386	0.26152	1.344
Mof_W 	W 	0.88939	0.18189	0.29169	1.349
Mof_W 	W 	0.80866	0.19722	0.40287	1.306
Mof_Rb	Rb	0.02904	0.38162	0.26864	3.941
Mof_Rb	Rb	0.67309	0.15862	0.48986	3.539
_end
