data_functionalizedCrystal
_audit_creation_method	'EQeq! by Chris Wilmer'
_symmetry_space_group_name_H-M	'P1'
_symmetry_Int_Tables_number	1
_symmetry_cell_setting	triclinic
loop_
_symmetry_equiv_pos_as_xyz
  x,y,z
_cell_length_a	23.04
_cell_length_b	23.04
_cell_length_c	25.1398
_cell_angle_alpha	90
_cell_angle_beta	90
_cell_angle_gamma	120
loop_
_atom_site_label
_atom_site_type_symbol
_atom_site_fract_x
_atom_site_fract_y
_atom_site_fract_z
_atom_site_charge
Mof_N 	N 	0.63237	0.86874	0.6806	-0.234
Mof_C 	C 	0.69519	0.90023	0.7056	0.064
Mof_H 	H 	0.71651	0.94658	0.71408	0.022
Mof_N 	N 	0.84822	0.04669	0.4537	-0.233
Mof_C 	C 	0.86553	0.02958	0.40519	0.015
Mof_H 	H 	0.83565	0.98811	0.38861	0.058
Mof_N 	N 	0.67236	0.94757	0.52248	-0.222
Mof_C 	C 	0.55052	0.85721	0.5707	0.064
Mof_H 	H 	0.50918	0.82655	0.58707	0.003
Mof_C 	C 	0.62123	0.89653	0.49235	0.065
Mof_H 	H 	0.62786	0.89254	0.45552	0.021
Mof_C 	C 	0.66257	0.95343	0.57672	0.239
Mof_C 	C 	0.56031	0.85135	0.51646	-0.115
Mof_H 	H 	0.5256	0.8167	0.496	0.068
Mof_N 	N 	0.60165	0.90825	0.60083	-0.268
Mof_O 	O 	0.70824	0.99902	0.60365	-0.261
Mof_N 	N 	0.29904	0.20207	0.01393	-0.237
Mof_C 	C 	0.36186	0.23356	0.03893	0.049
Mof_H 	H 	0.38318	0.27991	0.04741	0.005
Mof_N 	N 	0.51489	0.38002	0.78703	-0.237
Mof_C 	C 	0.5322	0.36291	0.73852	0.072
Mof_H 	H 	0.50232	0.32144	0.72194	0.01
Mof_N 	N 	0.33903	0.2809	0.85581	-0.232
Mof_C 	C 	0.21719	0.19054	0.90403	0.063
Mof_H 	H 	0.17585	0.15988	0.9204	0.004
Mof_C 	C 	0.2879	0.22986	0.82568	0.063
Mof_H 	H 	0.29453	0.22587	0.78885	0.015
Mof_C 	C 	0.32924	0.28676	0.91005	0.238
Mof_C 	C 	0.22698	0.18468	0.84979	-0.116
Mof_H 	H 	0.19227	0.15003	0.82933	0.063
Mof_N 	N 	0.26832	0.24158	0.93416	-0.253
Mof_O 	O 	0.37491	0.33235	0.93698	-0.26
Mof_N 	N 	0.9657	0.53541	0.34727	-0.215
Mof_C 	C 	0.02852	0.5669	0.37227	0.016
Mof_H 	H 	0.04984	0.61325	0.38075	0.02
Mof_N 	N 	0.18155	0.71336	0.12037	-0.239
Mof_C 	C 	0.19886	0.69625	0.07186	0.067
Mof_H 	H 	0.16898	0.65478	0.05528	0.001
Mof_N 	N 	0.00569	0.61424	0.18915	-0.27
Mof_C 	C 	0.88385	0.52388	0.23737	0.074
Mof_H 	H 	0.84251	0.49322	0.25374	-0.003
Mof_C 	C 	0.95456	0.5632	0.15902	0.102
Mof_H 	H 	0.96119	0.55921	0.12219	0.008
Mof_C 	C 	0.9959	0.6201	0.24339	0.299
Mof_C 	C 	0.89364	0.51802	0.18313	-0.136
Mof_H 	H 	0.85893	0.48337	0.16267	0.07
Mof_N 	N 	0.93498	0.57492	0.2675	-0.278
Mof_O 	O 	0.04157	0.66569	0.27032	-0.318
Mof_N 	N 	0.13126	0.76363	0.6806	-0.236
Mof_C 	C 	0.09977	0.79496	0.7056	0.063
Mof_H 	H 	0.05342	0.76993	0.71408	0.004
Mof_N 	N 	0.95331	0.80153	0.4537	-0.239
Mof_C 	C 	0.97042	0.83595	0.40519	0.146
Mof_H 	H 	0.01189	0.84754	0.38861	-0.034
Mof_N 	N 	0.05243	0.72479	0.52248	-0.238
Mof_C 	C 	0.14279	0.69331	0.5707	0.059
Mof_H 	H 	0.17345	0.68263	0.58707	0.002
Mof_C 	C 	0.10347	0.7247	0.49235	0.059
Mof_H 	H 	0.10746	0.73532	0.45552	0.012
Mof_C 	C 	0.04657	0.70914	0.57672	0.234
Mof_C 	C 	0.14865	0.70896	0.51646	-0.117
Mof_H 	H 	0.1833	0.7089	0.496	0.067
Mof_N 	N 	0.09175	0.6934	0.60083	-0.272
Mof_O 	O 	0.00098	0.70922	0.60365	-0.295
Mof_N 	N 	0.79793	0.09696	0.01393	-0.24
Mof_C 	C 	0.76644	0.12829	0.03893	0.048
Mof_H 	H 	0.72009	0.10326	0.04741	-0
Mof_N 	N 	0.61998	0.13486	0.78703	-0.239
Mof_C 	C 	0.63709	0.16928	0.73852	0.07
Mof_H 	H 	0.67856	0.18087	0.72194	0.01
Mof_N 	N 	0.7191	0.05812	0.85581	-0.234
Mof_C 	C 	0.80946	0.02664	0.90403	0.058
Mof_H 	H 	0.84012	0.01596	0.9204	0.005
Mof_C 	C 	0.77014	0.05803	0.82568	0.059
Mof_H 	H 	0.77413	0.06865	0.78885	0.013
Mof_C 	C 	0.71324	0.04247	0.91005	0.234
Mof_C 	C 	0.81532	0.04229	0.84979	-0.118
Mof_H 	H 	0.84997	0.04223	0.82933	0.065
Mof_N 	N 	0.75842	0.02673	0.93416	-0.257
Mof_O 	O 	0.66765	0.04255	0.93698	-0.27
Mof_N 	N 	0.46459	0.4303	0.34727	-0.236
Mof_C 	C 	0.4331	0.46163	0.37227	0.063
Mof_H 	H 	0.38675	0.4366	0.38075	0.012
Mof_N 	N 	0.28664	0.4682	0.12037	-0.239
Mof_C 	C 	0.30375	0.50262	0.07186	0.067
Mof_H 	H 	0.34522	0.51421	0.05528	0.002
Mof_N 	N 	0.38576	0.39146	0.18915	-0.233
Mof_C 	C 	0.47612	0.35998	0.23737	0.061
Mof_H 	H 	0.50678	0.3493	0.25374	0.001
Mof_C 	C 	0.4368	0.39137	0.15902	0.062
Mof_H 	H 	0.44079	0.40199	0.12219	0.011
Mof_C 	C 	0.3799	0.37581	0.24339	0.236
Mof_C 	C 	0.48198	0.37563	0.18313	-0.117
Mof_H 	H 	0.51663	0.37557	0.16267	0.063
Mof_N 	N 	0.42508	0.36007	0.2675	-0.27
Mof_O 	O 	0.33431	0.37589	0.27032	-0.28
Mof_N 	N 	0.23637	0.36763	0.6806	-0.236
Mof_C 	C 	0.20504	0.30481	0.7056	0.062
Mof_H 	H 	0.23007	0.28349	0.71408	0.011
Mof_N 	N 	0.19847	0.15178	0.4537	-0.234
Mof_C 	C 	0.16405	0.13447	0.40519	0.05
Mof_H 	H 	0.15246	0.16435	0.38861	0.014
Mof_N 	N 	0.27521	0.32764	0.52248	-0.233
Mof_C 	C 	0.30669	0.44948	0.5707	0.061
Mof_H 	H 	0.31737	0.49082	0.58707	0.002
Mof_C 	C 	0.2753	0.37877	0.49235	0.063
Mof_H 	H 	0.26468	0.37214	0.45552	0.015
Mof_C 	C 	0.29086	0.33743	0.57672	0.237
Mof_C 	C 	0.29104	0.43969	0.51646	-0.116
Mof_H 	H 	0.2911	0.4744	0.496	0.067
Mof_N 	N 	0.3066	0.39835	0.60083	-0.27
Mof_O 	O 	0.29078	0.29176	0.60365	-0.28
Mof_N 	N 	0.90304	0.70096	0.01393	-0.229
Mof_C 	C 	0.87171	0.63814	0.03893	0.052
Mof_H 	H 	0.89674	0.61682	0.04741	0.011
Mof_N 	N 	0.86514	0.48511	0.78703	-0.236
Mof_C 	C 	0.83072	0.4678	0.73852	0.074
Mof_H 	H 	0.81913	0.49768	0.72194	0.01
Mof_N 	N 	0.94188	0.66097	0.85581	-0.23
Mof_C 	C 	0.97336	0.78281	0.90403	0.068
Mof_H 	H 	0.98404	0.82415	0.9204	0.02
Mof_C 	C 	0.94197	0.7121	0.82568	0.069
Mof_H 	H 	0.93135	0.70547	0.78885	0.019
Mof_C 	C 	0.95753	0.67076	0.91005	0.243
Mof_C 	C 	0.95771	0.77302	0.84979	-0.112
Mof_H 	H 	0.95777	0.80773	0.82933	0.076
Mof_N 	N 	0.97327	0.73168	0.93416	-0.245
Mof_O 	O 	0.95745	0.62509	0.93698	-0.249
Mof_N 	N 	0.5697	0.0343	0.34727	-0.258
Mof_C 	C 	0.53837	0.97148	0.37227	0.114
Mof_H 	H 	0.5634	0.95016	0.38075	0.004
Mof_N 	N 	0.5318	0.81845	0.12037	-0.238
Mof_C 	C 	0.49738	0.80114	0.07186	0.067
Mof_H 	H 	0.48579	0.83102	0.05528	0.005
Mof_N 	N 	0.60854	0.99431	0.18915	-0.191
Mof_C 	C 	0.64002	0.11615	0.23737	0.046
Mof_H 	H 	0.6507	0.15749	0.25374	0.006
Mof_C 	C 	0.60863	0.04544	0.15902	0.018
Mof_H 	H 	0.59801	0.03881	0.12219	0.014
Mof_C 	C 	0.62419	0.0041	0.24339	0.166
Mof_C 	C 	0.62437	0.10636	0.18313	-0.095
Mof_H 	H 	0.62443	0.14107	0.16267	0.055
Mof_N 	N 	0.63993	0.06502	0.2675	-0.261
Mof_O 	O 	0.62411	0.95843	0.27032	-0.235
Mof_N 	N 	0.86874	0.63237	0.3194	-0.235
Mof_C 	C 	0.90023	0.69519	0.2944	0.063
Mof_H 	H 	0.94658	0.71651	0.28592	0.021
Mof_N 	N 	0.04669	0.84822	0.5463	-0.235
Mof_C 	C 	0.02958	0.86553	0.59481	0.02
Mof_H 	H 	0.98811	0.83565	0.61139	0.053
Mof_N 	N 	0.94757	0.67236	0.47752	-0.223
Mof_C 	C 	0.85721	0.55052	0.4293	0.063
Mof_H 	H 	0.82655	0.50918	0.41293	0.002
Mof_C 	C 	0.89653	0.62123	0.50765	0.065
Mof_H 	H 	0.89254	0.62786	0.54448	0.021
Mof_C 	C 	0.95343	0.66257	0.42328	0.239
Mof_C 	C 	0.85135	0.56031	0.48354	-0.115
Mof_H 	H 	0.8167	0.5256	0.504	0.068
Mof_N 	N 	0.90825	0.60165	0.39917	-0.268
Mof_O 	O 	0.99902	0.70824	0.39635	-0.261
Mof_N 	N 	0.53541	0.9657	0.65273	-0.214
Mof_C 	C 	0.5669	0.02852	0.62773	0.013
Mof_H 	H 	0.61325	0.04984	0.61925	0.02
Mof_N 	N 	0.71336	0.18155	0.87963	-0.237
Mof_C 	C 	0.69625	0.19886	0.92814	0.078
Mof_H 	H 	0.65478	0.16898	0.94472	0.016
Mof_N 	N 	0.61424	0.00569	0.81085	-0.271
Mof_C 	C 	0.52388	0.88385	0.76263	0.075
Mof_H 	H 	0.49322	0.84251	0.74626	-0.002
Mof_C 	C 	0.5632	0.95456	0.84098	0.103
Mof_H 	H 	0.55921	0.96119	0.87781	0.018
Mof_C 	C 	0.6201	0.9959	0.75661	0.301
Mof_C 	C 	0.51802	0.89364	0.81687	-0.135
Mof_H 	H 	0.48337	0.85893	0.83733	0.079
Mof_N 	N 	0.57492	0.93498	0.7325	-0.278
Mof_O 	O 	0.66569	0.04157	0.72968	-0.319
Mof_N 	N 	0.20207	0.29904	0.98607	-0.229
Mof_C 	C 	0.23356	0.36186	0.96107	0.075
Mof_H 	H 	0.27991	0.38318	0.95259	0.02
Mof_N 	N 	0.38002	0.51489	0.21297	-0.238
Mof_C 	C 	0.36291	0.5322	0.26148	0.073
Mof_H 	H 	0.32144	0.50232	0.27806	0.01
Mof_N 	N 	0.2809	0.33903	0.14419	-0.233
Mof_C 	C 	0.19054	0.21719	0.09597	0.059
Mof_H 	H 	0.15988	0.17585	0.0796	-0.009
Mof_C 	C 	0.22986	0.2879	0.17432	0.061
Mof_H 	H 	0.22587	0.29453	0.21115	0.015
Mof_C 	C 	0.28676	0.32924	0.08995	0.234
Mof_C 	C 	0.18468	0.22698	0.15021	-0.118
Mof_H 	H 	0.15003	0.19227	0.17067	0.061
Mof_N 	N 	0.24158	0.26832	0.06584	-0.277
Mof_O 	O 	0.33235	0.37491	0.06302	-0.296
Mof_N 	N 	0.76363	0.13126	0.3194	-0.237
Mof_C 	C 	0.79496	0.09977	0.2944	0.063
Mof_H 	H 	0.76993	0.05342	0.28592	0.003
Mof_N 	N 	0.80153	0.95331	0.5463	-0.239
Mof_C 	C 	0.83595	0.97042	0.59481	0.149
Mof_H 	H 	0.84754	0.01189	0.61139	-0.037
Mof_N 	N 	0.72479	0.05243	0.47752	-0.239
Mof_C 	C 	0.69331	0.14279	0.4293	0.059
Mof_H 	H 	0.68263	0.17345	0.41293	0.002
Mof_C 	C 	0.7247	0.10347	0.50765	0.059
Mof_H 	H 	0.73532	0.10746	0.54448	0.012
Mof_C 	C 	0.70914	0.04657	0.42328	0.234
Mof_C 	C 	0.70896	0.14865	0.48354	-0.117
Mof_H 	H 	0.7089	0.1833	0.504	0.067
Mof_N 	N 	0.6934	0.09175	0.39917	-0.272
Mof_O 	O 	0.70922	0.00098	0.39635	-0.296
Mof_N 	N 	0.4303	0.46459	0.65273	-0.236
Mof_C 	C 	0.46163	0.4331	0.62773	0.063
Mof_H 	H 	0.4366	0.38675	0.61925	0.012
Mof_N 	N 	0.4682	0.28664	0.87963	-0.236
Mof_C 	C 	0.50262	0.30375	0.92814	0.078
Mof_H 	H 	0.51421	0.34522	0.94472	0.018
Mof_N 	N 	0.39146	0.38576	0.81085	-0.233
Mof_C 	C 	0.35998	0.47612	0.76263	0.061
Mof_H 	H 	0.3493	0.50678	0.74626	0.003
Mof_C 	C 	0.39137	0.4368	0.84098	0.062
Mof_H 	H 	0.40199	0.44079	0.87781	0.021
Mof_C 	C 	0.37581	0.3799	0.75661	0.236
Mof_C 	C 	0.37563	0.48198	0.81687	-0.116
Mof_H 	H 	0.37557	0.51663	0.83733	0.071
Mof_N 	N 	0.36007	0.42508	0.7325	-0.27
Mof_O 	O 	0.37589	0.33431	0.72968	-0.28
Mof_N 	N 	0.09696	0.79793	0.98607	-0.232
Mof_C 	C 	0.12829	0.76644	0.96107	0.074
Mof_H 	H 	0.10326	0.72009	0.95259	0.014
Mof_N 	N 	0.13486	0.61998	0.21297	-0.239
Mof_C 	C 	0.16928	0.63709	0.26148	0.071
Mof_H 	H 	0.18087	0.67856	0.27806	0.01
Mof_N 	N 	0.05812	0.7191	0.14419	-0.235
Mof_C 	C 	0.02664	0.80946	0.09597	0.055
Mof_H 	H 	0.01596	0.84012	0.0796	-0.007
Mof_C 	C 	0.05803	0.77014	0.17432	0.057
Mof_H 	H 	0.06865	0.77413	0.21115	0.014
Mof_C 	C 	0.04247	0.71324	0.08995	0.23
Mof_C 	C 	0.04229	0.81532	0.15021	-0.119
Mof_H 	H 	0.04223	0.84997	0.17067	0.064
Mof_N 	N 	0.02673	0.75842	0.06584	-0.28
Mof_O 	O 	0.04255	0.66765	0.06302	-0.305
Mof_N 	N 	0.36763	0.23637	0.3194	-0.236
Mof_C 	C 	0.30481	0.20504	0.2944	0.062
Mof_H 	H 	0.28349	0.23007	0.28592	0.011
Mof_N 	N 	0.15178	0.19847	0.5463	-0.235
Mof_C 	C 	0.13447	0.16405	0.59481	0.051
Mof_H 	H 	0.16435	0.15246	0.61139	0.013
Mof_N 	N 	0.32764	0.27521	0.47752	-0.233
Mof_C 	C 	0.44948	0.30669	0.4293	0.061
Mof_H 	H 	0.49082	0.31737	0.41293	0.002
Mof_C 	C 	0.37877	0.2753	0.50765	0.063
Mof_H 	H 	0.37214	0.26468	0.54448	0.015
Mof_C 	C 	0.33743	0.29086	0.42328	0.237
Mof_C 	C 	0.43969	0.29104	0.48354	-0.116
Mof_H 	H 	0.4744	0.2911	0.504	0.067
Mof_N 	N 	0.39835	0.3066	0.39917	-0.27
Mof_O 	O 	0.29176	0.29078	0.39635	-0.28
Mof_N 	N 	0.0343	0.5697	0.65273	-0.257
Mof_C 	C 	0.97148	0.53837	0.62773	0.11
Mof_H 	H 	0.95016	0.5634	0.61925	0.004
Mof_N 	N 	0.81845	0.5318	0.87963	-0.236
Mof_C 	C 	0.80114	0.49738	0.92814	0.078
Mof_H 	H 	0.83102	0.48579	0.94472	0.02
Mof_N 	N 	0.99431	0.60854	0.81085	-0.194
Mof_C 	C 	0.11615	0.64002	0.76263	0.048
Mof_H 	H 	0.15749	0.6507	0.74626	0.007
Mof_C 	C 	0.04544	0.60863	0.84098	0.022
Mof_H 	H 	0.03881	0.59801	0.87781	0.024
Mof_C 	C 	0.0041	0.62419	0.75661	0.172
Mof_C 	C 	0.10636	0.62437	0.81687	-0.095
Mof_H 	H 	0.14107	0.62443	0.83733	0.064
Mof_N 	N 	0.06502	0.63993	0.7325	-0.261
Mof_O 	O 	0.95843	0.62411	0.72968	-0.239
Mof_N 	N 	0.70096	0.90304	0.98607	-0.221
Mof_C 	C 	0.63814	0.87171	0.96107	0.077
Mof_H 	H 	0.61682	0.89674	0.95259	0.025
Mof_N 	N 	0.48511	0.86514	0.21297	-0.236
Mof_C 	C 	0.4678	0.83072	0.26148	0.075
Mof_H 	H 	0.49768	0.81913	0.27806	0.01
Mof_N 	N 	0.66097	0.94188	0.14419	-0.231
Mof_C 	C 	0.78281	0.97336	0.09597	0.066
Mof_H 	H 	0.82415	0.98404	0.0796	0.008
Mof_C 	C 	0.7121	0.94197	0.17432	0.067
Mof_H 	H 	0.70547	0.93135	0.21115	0.02
Mof_C 	C 	0.67076	0.95753	0.08995	0.239
Mof_C 	C 	0.77302	0.95771	0.15021	-0.114
Mof_H 	H 	0.80773	0.95777	0.17067	0.075
Mof_N 	N 	0.73168	0.97327	0.06584	-0.267
Mof_O 	O 	0.62509	0.95745	0.06302	-0.283
Mof_N 	N 	0.36763	0.13126	0.3194	-0.237
Mof_C 	C 	0.30481	0.09977	0.2944	0.062
Mof_H 	H 	0.28349	0.05342	0.28592	0.002
Mof_N 	N 	0.15178	0.95331	0.5463	-0.236
Mof_C 	C 	0.13447	0.97042	0.59481	0.129
Mof_H 	H 	0.16435	0.01189	0.61139	-0.034
Mof_N 	N 	0.32764	0.05243	0.47752	-0.239
Mof_C 	C 	0.44948	0.14279	0.4293	0.059
Mof_H 	H 	0.49082	0.17345	0.41293	0.002
Mof_C 	C 	0.37877	0.10347	0.50765	0.059
Mof_H 	H 	0.37214	0.10746	0.54448	0.011
Mof_C 	C 	0.33743	0.04657	0.42328	0.234
Mof_C 	C 	0.43969	0.14865	0.48354	-0.117
Mof_H 	H 	0.4744	0.1833	0.504	0.067
Mof_N 	N 	0.39835	0.09175	0.39917	-0.272
Mof_O 	O 	0.29176	0.00098	0.39635	-0.297
Mof_N 	N 	0.0343	0.46459	0.65273	-0.257
Mof_C 	C 	0.97148	0.4331	0.62773	0.11
Mof_H 	H 	0.95016	0.38675	0.61925	0.004
Mof_N 	N 	0.81845	0.28664	0.87963	-0.236
Mof_C 	C 	0.80114	0.30375	0.92814	0.078
Mof_H 	H 	0.83102	0.34522	0.94472	0.02
Mof_N 	N 	0.99431	0.38576	0.81085	-0.194
Mof_C 	C 	0.11615	0.47612	0.76263	0.048
Mof_H 	H 	0.15749	0.50678	0.74626	0.007
Mof_C 	C 	0.04544	0.4368	0.84098	0.022
Mof_H 	H 	0.03881	0.44079	0.87781	0.024
Mof_C 	C 	0.0041	0.3799	0.75661	0.172
Mof_C 	C 	0.10636	0.48198	0.81687	-0.096
Mof_H 	H 	0.14107	0.51663	0.83733	0.064
Mof_N 	N 	0.06502	0.42508	0.7325	-0.261
Mof_O 	O 	0.95843	0.33431	0.72968	-0.239
Mof_N 	N 	0.70096	0.79793	0.98607	-0.228
Mof_C 	C 	0.63814	0.76644	0.96107	0.076
Mof_H 	H 	0.61682	0.72009	0.95259	0.02
Mof_N 	N 	0.48511	0.61998	0.21297	-0.238
Mof_C 	C 	0.4678	0.63709	0.26148	0.072
Mof_H 	H 	0.49768	0.67856	0.27806	0.01
Mof_N 	N 	0.66097	0.7191	0.14419	-0.233
Mof_C 	C 	0.78281	0.80946	0.09597	0.06
Mof_H 	H 	0.82415	0.84012	0.0796	0.002
Mof_C 	C 	0.7121	0.77014	0.17432	0.062
Mof_H 	H 	0.70547	0.77413	0.21115	0.017
Mof_C 	C 	0.67076	0.71324	0.08995	0.234
Mof_C 	C 	0.77302	0.81532	0.15021	-0.116
Mof_H 	H 	0.80773	0.84997	0.17067	0.072
Mof_N 	N 	0.73168	0.75842	0.06584	-0.277
Mof_O 	O 	0.62509	0.66765	0.06302	-0.296
Mof_N 	N 	0.86874	0.23637	0.3194	-0.235
Mof_C 	C 	0.90023	0.20504	0.2944	0.062
Mof_H 	H 	0.94658	0.23007	0.28592	0.02
Mof_N 	N 	0.04669	0.19847	0.5463	-0.232
Mof_C 	C 	0.02958	0.16405	0.59481	-0.002
Mof_H 	H 	0.98811	0.15246	0.61139	0.056
Mof_N 	N 	0.94757	0.27521	0.47752	-0.223
Mof_C 	C 	0.85721	0.30669	0.4293	0.063
Mof_H 	H 	0.82655	0.31737	0.41293	0.002
Mof_C 	C 	0.89653	0.2753	0.50765	0.066
Mof_H 	H 	0.89254	0.26468	0.54448	0.02
Mof_C 	C 	0.95343	0.29086	0.42328	0.239
Mof_C 	C 	0.85135	0.29104	0.48354	-0.115
Mof_H 	H 	0.8167	0.2911	0.504	0.068
Mof_N 	N 	0.90825	0.3066	0.39917	-0.268
Mof_O 	O 	0.99902	0.29078	0.39635	-0.262
Mof_N 	N 	0.53541	0.5697	0.65273	-0.236
Mof_C 	C 	0.5669	0.53837	0.62773	0.063
Mof_H 	H 	0.61325	0.5634	0.61925	0.012
Mof_N 	N 	0.71336	0.5318	0.87963	-0.236
Mof_C 	C 	0.69625	0.49738	0.92814	0.078
Mof_H 	H 	0.65478	0.48579	0.94472	0.018
Mof_N 	N 	0.61424	0.60854	0.81085	-0.232
Mof_C 	C 	0.52388	0.64002	0.76263	0.062
Mof_H 	H 	0.49322	0.6507	0.74626	0.003
Mof_C 	C 	0.5632	0.60863	0.84098	0.062
Mof_H 	H 	0.55921	0.59801	0.87781	0.021
Mof_C 	C 	0.6201	0.62419	0.75661	0.236
Mof_C 	C 	0.51802	0.62437	0.81687	-0.115
Mof_H 	H 	0.48337	0.62443	0.83733	0.072
Mof_N 	N 	0.57492	0.63993	0.7325	-0.27
Mof_O 	O 	0.66569	0.62411	0.72968	-0.279
Mof_N 	N 	0.20207	0.90304	0.98607	-0.222
Mof_C 	C 	0.23356	0.87171	0.96107	0.076
Mof_H 	H 	0.27991	0.89674	0.95259	0.025
Mof_N 	N 	0.38002	0.86514	0.21297	-0.236
Mof_C 	C 	0.36291	0.83072	0.26148	0.075
Mof_H 	H 	0.32144	0.81913	0.27806	0.01
Mof_N 	N 	0.2809	0.94188	0.14419	-0.231
Mof_C 	C 	0.19054	0.97336	0.09597	0.065
Mof_H 	H 	0.15988	0.98404	0.0796	0.004
Mof_C 	C 	0.22986	0.94197	0.17432	0.067
Mof_H 	H 	0.22587	0.93135	0.21115	0.019
Mof_C 	C 	0.28676	0.95753	0.08995	0.239
Mof_C 	C 	0.18468	0.95771	0.15021	-0.114
Mof_H 	H 	0.15003	0.95777	0.17067	0.071
Mof_N 	N 	0.24158	0.97327	0.06584	-0.267
Mof_O 	O 	0.33235	0.95745	0.06302	-0.282
Mof_N 	N 	0.76363	0.63237	0.3194	-0.236
Mof_C 	C 	0.79496	0.69519	0.2944	0.063
Mof_H 	H 	0.76993	0.71651	0.28592	0.013
Mof_N 	N 	0.80153	0.84822	0.5463	-0.241
Mof_C 	C 	0.83595	0.86553	0.59481	0.094
Mof_H 	H 	0.84754	0.83565	0.61139	0.007
Mof_N 	N 	0.72479	0.67236	0.47752	-0.233
Mof_C 	C 	0.69331	0.55052	0.4293	0.061
Mof_H 	H 	0.68263	0.50918	0.41293	0.002
Mof_C 	C 	0.7247	0.62123	0.50765	0.062
Mof_H 	H 	0.73532	0.62786	0.54448	0.016
Mof_C 	C 	0.70914	0.66257	0.42328	0.236
Mof_C 	C 	0.70896	0.56031	0.48354	-0.116
Mof_H 	H 	0.7089	0.5256	0.504	0.067
Mof_N 	N 	0.6934	0.60165	0.39917	-0.27
Mof_O 	O 	0.70922	0.70824	0.39635	-0.278
Mof_N 	N 	0.4303	0.9657	0.65273	-0.214
Mof_C 	C 	0.46163	0.02852	0.62773	0.013
Mof_H 	H 	0.4366	0.04984	0.61925	0.02
Mof_N 	N 	0.4682	0.18155	0.87963	-0.237
Mof_C 	C 	0.50262	0.19886	0.92814	0.079
Mof_H 	H 	0.51421	0.16898	0.94472	0.016
Mof_N 	N 	0.39146	0.00569	0.81085	-0.271
Mof_C 	C 	0.35998	0.88385	0.76263	0.075
Mof_H 	H 	0.3493	0.84251	0.74626	-0.002
Mof_C 	C 	0.39137	0.95456	0.84098	0.103
Mof_H 	H 	0.40199	0.96119	0.87781	0.018
Mof_C 	C 	0.37581	0.9959	0.75661	0.301
Mof_C 	C 	0.37563	0.89364	0.81687	-0.136
Mof_H 	H 	0.37557	0.85893	0.83733	0.079
Mof_N 	N 	0.36007	0.93498	0.7325	-0.278
Mof_O 	O 	0.37589	0.04157	0.72968	-0.32
Mof_N 	N 	0.09696	0.29904	0.98607	-0.232
Mof_C 	C 	0.12829	0.36186	0.96107	0.074
Mof_H 	H 	0.10326	0.38318	0.95259	0.015
Mof_N 	N 	0.13486	0.51489	0.21297	-0.239
Mof_C 	C 	0.16928	0.5322	0.26148	0.071
Mof_H 	H 	0.18087	0.50232	0.27806	0.01
Mof_N 	N 	0.05812	0.33903	0.14419	-0.235
Mof_C 	C 	0.02664	0.21719	0.09597	0.055
Mof_H 	H 	0.01596	0.17585	0.0796	-0.013
Mof_C 	C 	0.05803	0.2879	0.17432	0.056
Mof_H 	H 	0.06865	0.29453	0.21115	0.013
Mof_C 	C 	0.04247	0.32924	0.08995	0.23
Mof_C 	C 	0.04229	0.22698	0.15021	-0.12
Mof_H 	H 	0.04223	0.19227	0.17067	0.058
Mof_N 	N 	0.02673	0.26832	0.06584	-0.281
Mof_O 	O 	0.04255	0.37491	0.06302	-0.305
Mof_N 	N 	0.13126	0.36763	0.6806	-0.237
Mof_C 	C 	0.09977	0.30481	0.7056	0.063
Mof_H 	H 	0.05342	0.28349	0.71408	0.003
Mof_N 	N 	0.95331	0.15178	0.4537	-0.236
Mof_C 	C 	0.97042	0.13447	0.40519	0.124
Mof_H 	H 	0.01189	0.16435	0.38861	-0.032
Mof_N 	N 	0.05243	0.32764	0.52248	-0.238
Mof_C 	C 	0.14279	0.44948	0.5707	0.059
Mof_H 	H 	0.17345	0.49082	0.58707	0.002
Mof_C 	C 	0.10347	0.37877	0.49235	0.06
Mof_H 	H 	0.10746	0.37214	0.45552	0.011
Mof_C 	C 	0.04657	0.33743	0.57672	0.234
Mof_C 	C 	0.14865	0.43969	0.51646	-0.117
Mof_H 	H 	0.1833	0.4744	0.496	0.067
Mof_N 	N 	0.09175	0.39835	0.60083	-0.272
Mof_O 	O 	0.00098	0.29176	0.60365	-0.295
Mof_N 	N 	0.79793	0.70096	0.01393	-0.236
Mof_C 	C 	0.76644	0.63814	0.03893	0.051
Mof_H 	H 	0.72009	0.61682	0.04741	0.005
Mof_N 	N 	0.61998	0.48511	0.78703	-0.237
Mof_C 	C 	0.63709	0.4678	0.73852	0.072
Mof_H 	H 	0.67856	0.49768	0.72194	0.01
Mof_N 	N 	0.7191	0.66097	0.85581	-0.232
Mof_C 	C 	0.80946	0.78281	0.90403	0.064
Mof_H 	H 	0.84012	0.82415	0.9204	0.014
Mof_C 	C 	0.77014	0.7121	0.82568	0.064
Mof_H 	H 	0.77413	0.70547	0.78885	0.017
Mof_C 	C 	0.71324	0.67076	0.91005	0.239
Mof_C 	C 	0.81532	0.77302	0.84979	-0.115
Mof_H 	H 	0.84997	0.80773	0.82933	0.073
Mof_N 	N 	0.75842	0.73168	0.93416	-0.253
Mof_O 	O 	0.66765	0.62509	0.93698	-0.26
Mof_N 	N 	0.46459	0.0343	0.34727	-0.258
Mof_C 	C 	0.4331	0.97148	0.37227	0.114
Mof_H 	H 	0.38675	0.95016	0.38075	0.003
Mof_N 	N 	0.28664	0.81845	0.12037	-0.238
Mof_C 	C 	0.30375	0.80114	0.07186	0.067
Mof_H 	H 	0.34522	0.83102	0.05528	0.005
Mof_N 	N 	0.38576	0.99431	0.18915	-0.191
Mof_C 	C 	0.47612	0.11615	0.23737	0.046
Mof_H 	H 	0.50678	0.15749	0.25374	0.006
Mof_C 	C 	0.4368	0.04544	0.15902	0.018
Mof_H 	H 	0.44079	0.03881	0.12219	0.014
Mof_C 	C 	0.3799	0.0041	0.24339	0.166
Mof_C 	C 	0.48198	0.10636	0.18313	-0.095
Mof_H 	H 	0.51663	0.14107	0.16267	0.055
Mof_N 	N 	0.42508	0.06502	0.2675	-0.261
Mof_O 	O 	0.33431	0.95843	0.27032	-0.236
Mof_N 	N 	0.23637	0.86874	0.6806	-0.235
Mof_C 	C 	0.20504	0.90023	0.7056	0.063
Mof_H 	H 	0.23007	0.94658	0.71408	0.02
Mof_N 	N 	0.19847	0.04669	0.4537	-0.231
Mof_C 	C 	0.16405	0.02958	0.40519	-0.007
Mof_H 	H 	0.15246	0.98811	0.38861	0.06
Mof_N 	N 	0.27521	0.94757	0.52248	-0.223
Mof_C 	C 	0.30669	0.85721	0.5707	0.063
Mof_H 	H 	0.31737	0.82655	0.58707	0.002
Mof_C 	C 	0.2753	0.89653	0.49235	0.066
Mof_H 	H 	0.26468	0.89254	0.45552	0.021
Mof_C 	C 	0.29086	0.95343	0.57672	0.239
Mof_C 	C 	0.29104	0.85135	0.51646	-0.115
Mof_H 	H 	0.2911	0.8167	0.496	0.068
Mof_N 	N 	0.3066	0.90825	0.60083	-0.268
Mof_O 	O 	0.29078	0.99902	0.60365	-0.261
Mof_N 	N 	0.90304	0.20207	0.01393	-0.229
Mof_C 	C 	0.87171	0.23356	0.03893	0.051
Mof_H 	H 	0.89674	0.27991	0.04741	0.011
Mof_N 	N 	0.86514	0.38002	0.78703	-0.236
Mof_C 	C 	0.83072	0.36291	0.73852	0.074
Mof_H 	H 	0.81913	0.32144	0.72194	0.01
Mof_N 	N 	0.94188	0.2809	0.85581	-0.23
Mof_C 	C 	0.97336	0.19054	0.90403	0.068
Mof_H 	H 	0.98404	0.15988	0.9204	0.015
Mof_C 	C 	0.94197	0.22986	0.82568	0.068
Mof_H 	H 	0.93135	0.22587	0.78885	0.018
Mof_C 	C 	0.95753	0.28676	0.91005	0.243
Mof_C 	C 	0.95771	0.18468	0.84979	-0.113
Mof_H 	H 	0.95777	0.15003	0.82933	0.071
Mof_N 	N 	0.97327	0.24158	0.93416	-0.245
Mof_O 	O 	0.95745	0.33235	0.93698	-0.249
Mof_N 	N 	0.5697	0.53541	0.34727	-0.236
Mof_C 	C 	0.53837	0.5669	0.37227	0.063
Mof_H 	H 	0.5634	0.61325	0.38075	0.012
Mof_N 	N 	0.5318	0.71336	0.12037	-0.238
Mof_C 	C 	0.49738	0.69625	0.07186	0.067
Mof_H 	H 	0.48579	0.65478	0.05528	0.002
Mof_N 	N 	0.60854	0.61424	0.18915	-0.233
Mof_C 	C 	0.64002	0.52388	0.23737	0.061
Mof_H 	H 	0.6507	0.49322	0.25374	0.001
Mof_C 	C 	0.60863	0.5632	0.15902	0.063
Mof_H 	H 	0.59801	0.55921	0.12219	0.011
Mof_C 	C 	0.62419	0.6201	0.24339	0.236
Mof_C 	C 	0.62437	0.51802	0.18313	-0.116
Mof_H 	H 	0.62443	0.48337	0.16267	0.063
Mof_N 	N 	0.63993	0.57492	0.2675	-0.27
Mof_O 	O 	0.62411	0.66569	0.27032	-0.279
Mof_N 	N 	0.63237	0.76363	0.6806	-0.236
Mof_C 	C 	0.69519	0.79496	0.7056	0.063
Mof_H 	H 	0.71651	0.76993	0.71408	0.013
Mof_N 	N 	0.84822	0.80153	0.4537	-0.24
Mof_C 	C 	0.86553	0.83595	0.40519	0.093
Mof_H 	H 	0.83565	0.84754	0.38861	0.007
Mof_N 	N 	0.67236	0.72479	0.52248	-0.233
Mof_C 	C 	0.55052	0.69331	0.5707	0.061
Mof_H 	H 	0.50918	0.68263	0.58707	0.002
Mof_C 	C 	0.62123	0.7247	0.49235	0.062
Mof_H 	H 	0.62786	0.73532	0.45552	0.016
Mof_C 	C 	0.66257	0.70914	0.57672	0.236
Mof_C 	C 	0.56031	0.70896	0.51646	-0.116
Mof_H 	H 	0.5256	0.7089	0.496	0.067
Mof_N 	N 	0.60165	0.6934	0.60083	-0.27
Mof_O 	O 	0.70824	0.70922	0.60365	-0.278
Mof_N 	N 	0.29904	0.09696	0.01393	-0.24
Mof_C 	C 	0.36186	0.12829	0.03893	0.048
Mof_H 	H 	0.38318	0.10326	0.04741	-0
Mof_N 	N 	0.51489	0.13486	0.78703	-0.239
Mof_C 	C 	0.5322	0.16928	0.73852	0.07
Mof_H 	H 	0.50232	0.18087	0.72194	0.01
Mof_N 	N 	0.33903	0.05812	0.85581	-0.234
Mof_C 	C 	0.21719	0.02664	0.90403	0.058
Mof_H 	H 	0.17585	0.01596	0.9204	-0
Mof_C 	C 	0.2879	0.05803	0.82568	0.058
Mof_H 	H 	0.29453	0.06865	0.78885	0.012
Mof_C 	C 	0.32924	0.04247	0.91005	0.234
Mof_C 	C 	0.22698	0.04229	0.84979	-0.118
Mof_H 	H 	0.19227	0.04223	0.82933	0.06
Mof_N 	N 	0.26832	0.02673	0.93416	-0.257
Mof_O 	O 	0.37491	0.04255	0.93698	-0.27
Mof_N 	N 	0.9657	0.4303	0.34727	-0.215
Mof_C 	C 	0.02852	0.46163	0.37227	0.016
Mof_H 	H 	0.04984	0.4366	0.38075	0.019
Mof_N 	N 	0.18155	0.4682	0.12037	-0.239
Mof_C 	C 	0.19886	0.50262	0.07186	0.067
Mof_H 	H 	0.16898	0.51421	0.05528	0.001
Mof_N 	N 	0.00569	0.39146	0.18915	-0.271
Mof_C 	C 	0.88385	0.35998	0.23737	0.074
Mof_H 	H 	0.84251	0.3493	0.25374	-0.003
Mof_C 	C 	0.95456	0.39137	0.15902	0.102
Mof_H 	H 	0.96119	0.40199	0.12219	0.008
Mof_C 	C 	0.9959	0.37581	0.24339	0.299
Mof_C 	C 	0.89364	0.37563	0.18313	-0.136
Mof_H 	H 	0.85893	0.37557	0.16267	0.07
Mof_N 	N 	0.93498	0.36007	0.2675	-0.278
Mof_O 	O 	0.04157	0.37589	0.27032	-0.319
Mof_Cu	Cu	0.76747	0	0.5	0.878
Mof_Cu	Cu	0.43414	0.33333	0.83333	0.893
Mof_Cu	Cu	0.1008	0.66667	0.16667	0.891
Mof_Cu	Cu	1.18813e-17	0.76747	0.5	0.879
Mof_Cu	Cu	0.66667	0.1008	0.83333	0.892
Mof_Cu	Cu	0.33333	0.43414	0.16667	0.892
Mof_Cu	Cu	0.23253	0.23253	0.5	0.892
Mof_Cu	Cu	0.8992	0.56586	0.83333	0.895
Mof_Cu	Cu	0.56586	0.8992	0.16667	0.894
Mof_Cu	Cu	0.23253	0	0.5	0.877
Mof_Cu	Cu	0.8992	0.33333	0.83333	0.895
Mof_Cu	Cu	0.56586	0.66667	0.16667	0.892
Mof_Cu	Cu	-7.79222e-18	0.23253	0.5	0.878
Mof_Cu	Cu	0.66667	0.56586	0.83333	0.893
Mof_Cu	Cu	0.33333	0.8992	0.16667	0.894
Mof_Cu	Cu	0.76747	0.76747	0.5	0.893
Mof_Cu	Cu	0.43414	0.1008	0.83333	0.892
Mof_Cu	Cu	0.1008	0.43414	0.16667	0.891
Mof_Cu	Cu	0.57987	0.91321	0.66667	0.911
Mof_Cu	Cu	0.24654	0.24654	-0	0.881
Mof_Cu	Cu	0.08679	0.66667	0.66667	0.906
Mof_Cu	Cu	0.75346	0	-0	0.866
Mof_Cu	Cu	0.33333	0.42013	0.66667	0.908
Mof_Cu	Cu	-0	0.75346	-0	0.869
Mof_Cu	Cu	0.91321	0.57987	0.33333	0.911
Mof_Cu	Cu	0.66667	0.08679	0.33333	0.906
Mof_Cu	Cu	0.42013	0.33333	0.33333	0.908
Mof_Cu	Cu	0.42013	0.08679	0.33333	0.906
Mof_Cu	Cu	0.91321	0.33333	0.33333	0.911
Mof_Cu	Cu	0.66667	0.57987	0.33333	0.908
Mof_Cu	Cu	0.08679	0.42013	0.66667	0.906
Mof_Cu	Cu	0.75346	0.75346	-0	0.883
Mof_Cu	Cu	0.33333	0.91321	0.66667	0.911
Mof_Cu	Cu	-0	0.24654	-0	0.868
Mof_Cu	Cu	0.57987	0.66667	0.66667	0.908
Mof_Cu	Cu	0.24654	0	-0	0.866
Mof_C 	C 	0.60112	0.80056	0.66808	0.232
Mof_C 	C 	0.72644	0.86322	0.71812	-0.118
Mof_H 	H 	0.76899	0.8845	0.7351	0.075
Mof_O 	O 	0.54513	0.77257	0.64573	-0.291
Mof_C 	C 	0.26779	0.13389	0.00141	0.155
Mof_C 	C 	0.39311	0.19655	0.05145	-0.12
Mof_H 	H 	0.43566	0.21783	0.06843	0.058
Mof_O 	O 	0.2118	0.1059	0.97906	-0.229
Mof_C 	C 	0.93445	0.46723	0.33475	0.235
Mof_C 	C 	0.05977	0.52989	0.38479	-0.09
Mof_H 	H 	0.10232	0.55116	0.40177	0.057
Mof_O 	O 	0.87846	0.43923	0.3124	-0.291
Mof_C 	C 	0.19944	0.80056	0.66808	0.232
Mof_C 	C 	0.13678	0.86322	0.71812	-0.119
Mof_H 	H 	0.1155	0.8845	0.7351	0.069
Mof_O 	O 	0.22744	0.77257	0.64573	-0.291
Mof_C 	C 	0.86611	0.13389	0.00141	0.156
Mof_C 	C 	0.80345	0.19655	0.05145	-0.119
Mof_H 	H 	0.78217	0.21783	0.06843	0.058
Mof_O 	O 	0.8941	0.1059	0.97906	-0.221
Mof_C 	C 	0.53277	0.46723	0.33475	0.232
Mof_C 	C 	0.47011	0.52989	0.38479	-0.119
Mof_H 	H 	0.44884	0.55116	0.40177	0.069
Mof_O 	O 	0.56077	0.43923	0.3124	-0.292
Mof_C 	C 	0.19944	0.39888	0.66808	0.232
Mof_C 	C 	0.13678	0.27356	0.71812	-0.121
Mof_H 	H 	0.1155	0.23101	0.7351	0.063
Mof_O 	O 	0.22743	0.45487	0.64573	-0.291
Mof_C 	C 	0.86611	0.73221	0.00141	0.16
Mof_C 	C 	0.80345	0.60689	0.05145	-0.118
Mof_H 	H 	0.78217	0.56434	0.06843	0.059
Mof_O 	O 	0.8941	0.7882	0.97906	-0.217
Mof_C 	C 	0.53277	0.06555	0.33475	0.229
Mof_C 	C 	0.47011	0.94023	0.38479	-0.15
Mof_H 	H 	0.44884	0.89768	0.40177	0.081
Mof_O 	O 	0.56077	0.12154	0.3124	-0.292
Mof_C 	C 	0.80056	0.60112	0.33192	0.232
Mof_C 	C 	0.86322	0.72644	0.28188	-0.117
Mof_H 	H 	0.8845	0.76899	0.2649	0.074
Mof_O 	O 	0.77257	0.54513	0.35427	-0.292
Mof_C 	C 	0.46723	0.93445	0.66525	0.235
Mof_C 	C 	0.52989	0.05977	0.61521	-0.089
Mof_H 	H 	0.55116	0.10232	0.59823	0.056
Mof_O 	O 	0.43923	0.87846	0.6876	-0.291
Mof_C 	C 	0.13389	0.26779	0.99859	0.308
Mof_C 	C 	0.19655	0.39311	0.94855	-0.12
Mof_H 	H 	0.21783	0.43566	0.93157	0.078
Mof_O 	O 	0.1059	0.2118	0.02094	-0.362
Mof_C 	C 	0.80056	0.19944	0.33192	0.232
Mof_C 	C 	0.86322	0.13678	0.28188	-0.119
Mof_H 	H 	0.8845	0.1155	0.2649	0.068
Mof_O 	O 	0.77257	0.22744	0.35427	-0.292
Mof_C 	C 	0.46723	0.53277	0.66525	0.232
Mof_C 	C 	0.52989	0.47011	0.61521	-0.119
Mof_H 	H 	0.55116	0.44884	0.59823	0.068
Mof_O 	O 	0.43923	0.56077	0.6876	-0.291
Mof_C 	C 	0.13389	0.86611	0.99859	0.304
Mof_C 	C 	0.19655	0.80345	0.94855	-0.118
Mof_H 	H 	0.21783	0.78217	0.93157	0.078
Mof_O 	O 	0.1059	0.8941	0.02094	-0.349
Mof_C 	C 	0.39888	0.19944	0.33192	0.232
Mof_C 	C 	0.27356	0.13678	0.28188	-0.121
Mof_H 	H 	0.23101	0.1155	0.2649	0.062
Mof_O 	O 	0.45487	0.22743	0.35427	-0.292
Mof_C 	C 	0.06555	0.53277	0.66525	0.229
Mof_C 	C 	0.94023	0.47011	0.61521	-0.148
Mof_H 	H 	0.89768	0.44884	0.59823	0.08
Mof_O 	O 	0.12154	0.56077	0.6876	-0.292
Mof_C 	C 	0.73221	0.86611	0.99859	0.306
Mof_C 	C 	0.60689	0.80345	0.94855	-0.118
Mof_H 	H 	0.56434	0.78217	0.93157	0.079
Mof_O 	O 	0.7882	0.8941	0.02094	-0.344
Mof_C 	C 	0.89223	0.10777	0.47809	0.217
Mof_C 	C 	0.92665	0.07335	0.38107	-0.126
Mof_H 	H 	0.93834	0.06166	0.34814	0.069
Mof_O 	O 	0.87686	0.12314	0.52143	-0.31
Mof_C 	C 	0.5589	0.4411	0.81142	0.216
Mof_C 	C 	0.59332	0.40668	0.7144	-0.129
Mof_H 	H 	0.605	0.395	0.68147	0.071
Mof_O 	O 	0.54353	0.45647	0.85476	-0.308
Mof_C 	C 	0.22556	0.77444	0.14476	0.214
Mof_C 	C 	0.25998	0.74002	0.04774	-0.133
Mof_H 	H 	0.27167	0.72833	0.01481	0.057
Mof_O 	O 	0.21019	0.78981	0.1881	-0.312
Mof_C 	C 	0.89223	0.78446	0.47809	0.222
Mof_C 	C 	0.92665	0.8533	0.38107	-0.163
Mof_H 	H 	0.93834	0.87667	0.34814	0.095
Mof_O 	O 	0.87686	0.75372	0.52143	-0.307
Mof_C 	C 	0.5589	0.11779	0.81142	0.213
Mof_C 	C 	0.59332	0.18663	0.7144	-0.129
Mof_H 	H 	0.605	0.21	0.68147	0.07
Mof_O 	O 	0.54353	0.08705	0.85476	-0.317
Mof_C 	C 	0.22556	0.45113	0.14476	0.214
Mof_C 	C 	0.25998	0.51997	0.04774	-0.134
Mof_H 	H 	0.27167	0.54334	0.01481	0.056
Mof_O 	O 	0.21019	0.42039	0.1881	-0.312
Mof_C 	C 	0.21554	0.10777	0.47809	0.212
Mof_C 	C 	0.1467	0.07335	0.38107	-0.091
Mof_H 	H 	0.12333	0.06166	0.34814	0.044
Mof_O 	O 	0.24628	0.12314	0.52143	-0.315
Mof_C 	C 	0.88221	0.4411	0.81142	0.218
Mof_C 	C 	0.81337	0.40668	0.7144	-0.129
Mof_H 	H 	0.79	0.395	0.68147	0.071
Mof_O 	O 	0.91295	0.45647	0.85476	-0.3
Mof_C 	C 	0.54887	0.77444	0.14476	0.214
Mof_C 	C 	0.48003	0.74002	0.04774	-0.133
Mof_H 	H 	0.45666	0.72833	0.01481	0.057
Mof_O 	O 	0.57961	0.78981	0.1881	-0.312
Mof_C 	C 	0.10777	0.89223	0.52191	0.218
Mof_C 	C 	0.07335	0.92665	0.61893	-0.13
Mof_H 	H 	0.06166	0.93834	0.65186	0.071
Mof_O 	O 	0.12314	0.87686	0.47857	-0.31
Mof_C 	C 	0.77444	0.22556	0.85524	0.22
Mof_C 	C 	0.74002	0.25998	0.95226	-0.124
Mof_H 	H 	0.72833	0.27167	0.98519	0.085
Mof_O 	O 	0.78981	0.21019	0.8119	-0.312
Mof_C 	C 	0.4411	0.5589	0.18858	0.217
Mof_C 	C 	0.40668	0.59332	0.2856	-0.129
Mof_H 	H 	0.395	0.605	0.31853	0.071
Mof_O 	O 	0.45647	0.54353	0.14524	-0.316
Mof_C 	C 	0.78446	0.89223	0.52191	0.222
Mof_C 	C 	0.8533	0.92665	0.61893	-0.165
Mof_H 	H 	0.87667	0.93834	0.65186	0.096
Mof_O 	O 	0.75372	0.87686	0.47857	-0.307
Mof_C 	C 	0.45113	0.22556	0.85524	0.22
Mof_C 	C 	0.51997	0.25998	0.95226	-0.124
Mof_H 	H 	0.54334	0.27167	0.98519	0.085
Mof_O 	O 	0.42039	0.21019	0.8119	-0.312
Mof_C 	C 	0.11779	0.5589	0.18858	0.215
Mof_C 	C 	0.18663	0.59332	0.2856	-0.129
Mof_H 	H 	0.21	0.605	0.31853	0.07
Mof_O 	O 	0.08705	0.54353	0.14524	-0.324
Mof_C 	C 	0.10777	0.21554	0.52191	0.212
Mof_C 	C 	0.07335	0.1467	0.61893	-0.094
Mof_H 	H 	0.06166	0.12333	0.65186	0.046
Mof_O 	O 	0.12314	0.24628	0.47857	-0.315
Mof_C 	C 	0.77444	0.54887	0.85524	0.219
Mof_C 	C 	0.74002	0.48003	0.95226	-0.124
Mof_H 	H 	0.72833	0.45666	0.98519	0.085
Mof_O 	O 	0.78981	0.57961	0.8119	-0.312
Mof_C 	C 	0.4411	0.88221	0.18858	0.22
Mof_C 	C 	0.40668	0.81337	0.2856	-0.129
Mof_H 	H 	0.395	0.79	0.31853	0.071
Mof_O 	O 	0.45647	0.91295	0.14524	-0.306
_end
