data_functionalizedCrystal
_audit_creation_method	'EQeq! by Chris Wilmer'
_symmetry_space_group_name_H-M	'P1'
_symmetry_Int_Tables_number	1
_symmetry_cell_setting	triclinic
loop_
_symmetry_equiv_pos_as_xyz
  x,y,z
_cell_length_a	19.3776
_cell_length_b	19.3776
_cell_length_c	31.6139
_cell_angle_alpha	105.796
_cell_angle_beta	105.796
_cell_angle_gamma	94.1829
loop_
_atom_site_label
_atom_site_type_symbol
_atom_site_fract_x
_atom_site_fract_y
_atom_site_fract_z
_atom_site_charge
Mof_Zn	Zn	0.75496	0.53136	0.6502	1.213
Mof_Zn	Zn	0.60879	0.44621	0.57314	1.211
Mof_Zn	Zn	0.68387	0.37943	0.65215	1.214
Mof_Zn	Zn	0.75593	0.38811	0.57351	1.211
Mof_Zn	Zn	0.53136	0.75496	0.1502	1.213
Mof_Zn	Zn	0.44621	0.60879	0.07314	1.211
Mof_Zn	Zn	0.37943	0.68387	0.15215	1.214
Mof_Zn	Zn	0.38811	0.75593	0.07351	1.211
Mof_H 	H 	0.5098	0.3832	0.7034	0.03
Mof_H 	H 	0.424	0.425	0.7404	0.065
Mof_H 	H 	0.3277	0.5015	0.6359	0.069
Mof_H 	H 	0.4136	0.4618	0.5997	0.026
Mof_H 	H 	0.3886	0.5234	0.7831	0.067
Mof_H 	H 	0.1851	0.5613	0.7809	0.065
Mof_H 	H 	0.2262	0.4754	0.6597	0.064
Mof_H 	H 	0.3768	0.4938	0.85	0.068
Mof_H 	H 	0.4077	0.5309	0.9297	0.033
Mof_H 	H 	0.2947	0.6975	0.9275	0.023
Mof_H 	H 	0.2603	0.6601	0.8494	0.067
Mof_H 	H 	0.1052	0.419	0.6397	0.061
Mof_H 	H 	0.981	0.4084	0.6036	0.035
Mof_H 	H 	0.9787	0.5969	0.6987	0.034
Mof_H 	H 	0.1012	0.607	0.7348	0.06
Mof_H 	H 	0.5531	0.6097	0.5258	0.033
Mof_H 	H 	0.5421	0.6973	0.488	0.059
Mof_H 	H 	0.7316	0.8158	0.5833	0.061
Mof_H 	H 	0.7372	0.7294	0.6215	0.032
Mof_H 	H 	0.5867	0.7521	0.4428	0.072
Mof_H 	H 	0.6266	0.959	0.4429	0.066
Mof_H 	H 	0.6729	0.9091	0.5627	0.066
Mof_H 	H 	0.7344	0.0526	0.4925	0.067
Mof_H 	H 	0.7571	0.1765	0.5283	0.025
Mof_H 	H 	0.6562	0.1466	0.6196	0.016
Mof_H 	H 	0.6332	0.0256	0.5854	0.074
Mof_H 	H 	0.4779	0.7743	0.3781	0.07
Mof_H 	H 	0.4342	0.7366	0.2976	0.028
Mof_H 	H 	0.6176	0.8366	0.2909	0.032
Mof_H 	H 	0.6627	0.8801	0.3733	0.065
Mof_H 	H 	0.3832	0.5098	0.2034	0.03
Mof_H 	H 	0.425	0.424	0.2404	0.065
Mof_H 	H 	0.5015	0.3277	0.1359	0.069
Mof_H 	H 	0.4618	0.4136	0.0997	0.026
Mof_H 	H 	0.5234	0.3886	0.2831	0.067
Mof_H 	H 	0.5613	0.1851	0.2809	0.065
Mof_H 	H 	0.4754	0.2262	0.1597	0.064
Mof_H 	H 	0.4938	0.3768	0.35	0.068
Mof_H 	H 	0.5309	0.4077	0.4297	0.033
Mof_H 	H 	0.6975	0.2947	0.4275	0.023
Mof_H 	H 	0.6601	0.2603	0.3494	0.067
Mof_H 	H 	0.419	0.1052	0.1397	0.061
Mof_H 	H 	0.4084	0.981	0.1036	0.035
Mof_H 	H 	0.5969	0.9787	0.1987	0.034
Mof_H 	H 	0.607	0.1012	0.2348	0.06
Mof_H 	H 	0.6097	0.5531	0.0258	0.032
Mof_H 	H 	0.6973	0.5421	0.988	0.06
Mof_H 	H 	0.8158	0.7316	0.0833	0.061
Mof_H 	H 	0.7294	0.7372	0.1215	0.032
Mof_H 	H 	0.7521	0.5867	0.9428	0.072
Mof_H 	H 	0.959	0.6266	0.9429	0.066
Mof_H 	H 	0.9091	0.6729	0.0627	0.066
Mof_H 	H 	0.0526	0.7344	0.9925	0.066
Mof_H 	H 	0.1765	0.7571	0.0283	0.025
Mof_H 	H 	0.1466	0.6562	0.1196	0.016
Mof_H 	H 	0.0256	0.6332	0.0854	0.074
Mof_H 	H 	0.7743	0.4779	0.8781	0.07
Mof_H 	H 	0.7366	0.4342	0.7976	0.028
Mof_H 	H 	0.8366	0.6176	0.7909	0.031
Mof_H 	H 	0.8801	0.6627	0.8733	0.065
Mof_C 	C 	0.5315	0.4021	0.6306	0.371
Mof_C 	C 	0.4706	0.421	0.6497	-0.131
Mof_C 	C 	0.4738	0.4084	0.6902	0.043
Mof_C 	C 	0.4226	0.4332	0.7119	-0.105
Mof_C 	C 	0.3693	0.4697	0.6925	0.045
Mof_C 	C 	0.3653	0.4789	0.6501	-0.112
Mof_C 	C 	0.4159	0.4551	0.6287	0.045
Mof_C 	C 	0.3154	0.496	0.7174	0.036
Mof_C 	C 	0.3396	0.5226	0.7663	-0.103
Mof_C 	C 	0.2898	0.5472	0.7891	0.041
Mof_C 	C 	0.2186	0.5448	0.7647	-0.105
Mof_C 	C 	0.1944	0.5186	0.7165	0.042
Mof_C 	C 	0.2423	0.4937	0.6925	-0.102
Mof_C 	C 	0.3141	0.5737	0.8406	0.042
Mof_C 	C 	0.3598	0.535	0.8656	-0.106
Mof_C 	C 	0.379	0.5582	0.9131	0.05
Mof_C 	C 	0.3584	0.6188	0.9373	-0.137
Mof_C 	C 	0.3116	0.6564	0.9118	0.052
Mof_C 	C 	0.2914	0.634	0.8657	-0.113
Mof_C 	C 	0.1163	0.5143	0.6917	0.031
Mof_C 	C 	0.0788	0.4548	0.6518	-0.092
Mof_C 	C 	0.0049	0.4479	0.6304	0.026
Mof_C 	C 	0.9674	0.4982	0.6481	-0.104
Mof_C 	C 	0.0048	0.5602	0.6874	0.025
Mof_C 	C 	0.0774	0.5666	0.7085	-0.095
Mof_C 	C 	0.6569	0.6031	0.6	0.373
Mof_C 	C 	0.6471	0.6617	0.5774	-0.121
Mof_C 	C 	0.5886	0.6522	0.5373	0.032
Mof_C 	C 	0.5823	0.7041	0.5147	-0.089
Mof_C 	C 	0.635	0.7672	0.5305	0.025
Mof_C 	C 	0.6946	0.7744	0.5717	-0.093
Mof_C 	C 	0.6985	0.7227	0.5941	0.036
Mof_C 	C 	0.6307	0.8223	0.5066	0.05
Mof_C 	C 	0.6042	0.802	0.4593	-0.112
Mof_C 	C 	0.6022	0.8524	0.4347	0.043
Mof_C 	C 	0.6274	0.924	0.459	-0.104
Mof_C 	C 	0.6548	0.9466	0.508	0.038
Mof_C 	C 	0.6551	0.8945	0.5299	-0.108
Mof_C 	C 	0.6777	0.0255	0.5332	0.049
Mof_C 	C 	0.7175	0.0723	0.5181	-0.113
Mof_C 	C 	0.7322	0.1448	0.5394	0.05
Mof_C 	C 	0.7091	0.1721	0.5789	-0.148
Mof_C 	C 	0.6721	0.1269	0.5937	0.077
Mof_C 	C 	0.6575	0.0561	0.5732	-0.129
Mof_C 	C 	0.5765	0.8307	0.3835	0.041
Mof_C 	C 	0.5066	0.7876	0.3607	-0.105
Mof_C 	C 	0.4809	0.7651	0.3127	0.053
Mof_C 	C 	0.5209	0.7831	0.2869	-0.129
Mof_C 	C 	0.5889	0.8247	0.3088	0.037
Mof_C 	C 	0.6167	0.8501	0.3584	-0.102
Mof_C 	C 	0.4996	0.7592	0.2354	0.394
Mof_C 	C 	0.7223	0.2515	0.5968	0.375
Mof_C 	C 	0.8848	0.4844	0.6267	0.365
Mof_C 	C 	0.3786	0.6394	0.9885	0.397
Mof_C 	C 	0.4021	0.5315	0.1306	0.371
Mof_C 	C 	0.421	0.4706	0.1497	-0.131
Mof_C 	C 	0.4084	0.4738	0.1902	0.043
Mof_C 	C 	0.4332	0.4226	0.2119	-0.105
Mof_C 	C 	0.4697	0.3693	0.1925	0.045
Mof_C 	C 	0.4789	0.3653	0.1501	-0.112
Mof_C 	C 	0.4551	0.4159	0.1287	0.045
Mof_C 	C 	0.496	0.3154	0.2174	0.036
Mof_C 	C 	0.5226	0.3396	0.2663	-0.103
Mof_C 	C 	0.5472	0.2898	0.2891	0.041
Mof_C 	C 	0.5448	0.2186	0.2647	-0.105
Mof_C 	C 	0.5186	0.1944	0.2165	0.042
Mof_C 	C 	0.4937	0.2423	0.1925	-0.102
Mof_C 	C 	0.5737	0.3141	0.3406	0.042
Mof_C 	C 	0.535	0.3598	0.3656	-0.106
Mof_C 	C 	0.5582	0.379	0.4131	0.05
Mof_C 	C 	0.6188	0.3584	0.4373	-0.137
Mof_C 	C 	0.6564	0.3116	0.4118	0.052
Mof_C 	C 	0.634	0.2914	0.3657	-0.113
Mof_C 	C 	0.5143	0.1163	0.1917	0.031
Mof_C 	C 	0.4548	0.0788	0.1518	-0.091
Mof_C 	C 	0.4479	0.0049	0.1304	0.026
Mof_C 	C 	0.4982	0.9674	0.1481	-0.103
Mof_C 	C 	0.5602	0.0048	0.1874	0.025
Mof_C 	C 	0.5666	0.0774	0.2085	-0.095
Mof_C 	C 	0.6031	0.6569	0.1	0.374
Mof_C 	C 	0.6617	0.6471	0.0774	-0.121
Mof_C 	C 	0.6522	0.5886	0.0373	0.032
Mof_C 	C 	0.7041	0.5823	0.0147	-0.09
Mof_C 	C 	0.7672	0.635	0.0305	0.025
Mof_C 	C 	0.7744	0.6946	0.0717	-0.094
Mof_C 	C 	0.7227	0.6985	0.0941	0.036
Mof_C 	C 	0.8223	0.6307	0.0066	0.049
Mof_C 	C 	0.802	0.6042	0.9593	-0.111
Mof_C 	C 	0.8524	0.6022	0.9347	0.042
Mof_C 	C 	0.924	0.6274	0.959	-0.103
Mof_C 	C 	0.9466	0.6548	0.008	0.037
Mof_C 	C 	0.8945	0.6551	0.0299	-0.108
Mof_C 	C 	0.0255	0.6777	0.0332	0.049
Mof_C 	C 	0.0723	0.7175	0.0181	-0.112
Mof_C 	C 	0.1448	0.7322	0.0394	0.05
Mof_C 	C 	0.1721	0.7091	0.0789	-0.148
Mof_C 	C 	0.1269	0.6721	0.0937	0.077
Mof_C 	C 	0.0561	0.6575	0.0732	-0.129
Mof_C 	C 	0.8307	0.5765	0.8835	0.041
Mof_C 	C 	0.7876	0.5066	0.8607	-0.106
Mof_C 	C 	0.7651	0.4809	0.8127	0.053
Mof_C 	C 	0.7831	0.5209	0.7869	-0.129
Mof_C 	C 	0.8247	0.5889	0.8088	0.037
Mof_C 	C 	0.8501	0.6167	0.8584	-0.103
Mof_C 	C 	0.7592	0.4996	0.7354	0.394
Mof_C 	C 	0.2515	0.7223	0.0968	0.375
Mof_C 	C 	0.4844	0.8848	0.1267	0.365
Mof_C 	C 	0.6394	0.3786	0.4885	0.398
Mof_O 	O 	0.70013	0.43595	0.6123	-0.963
Mof_O 	O 	0.71487	0.60993	0.63154	-0.507
Mof_O 	O 	0.60483	0.54917	0.58394	-0.502
Mof_O 	O 	0.52574	0.4128	0.59091	-0.484
Mof_O 	O 	0.58395	0.37925	0.65241	-0.506
Mof_O 	O 	0.43085	0.73335	0.21723	-0.494
Mof_O 	O 	0.54433	0.76587	0.21528	-0.515
Mof_O 	O 	0.69581	0.28061	0.63007	-0.498
Mof_O 	O 	0.75809	0.29011	0.58082	-0.492
Mof_O 	O 	0.85617	0.42983	0.59365	-0.515
Mof_O 	O 	0.85334	0.53454	0.64792	-0.498
Mof_O 	O 	0.40513	0.59657	0.00806	-0.525
Mof_O 	O 	0.36705	0.70395	0.00877	-0.506
Mof_O 	O 	0.43595	0.70013	0.1123	-0.963
Mof_O 	O 	0.60993	0.71487	0.13154	-0.507
Mof_O 	O 	0.54917	0.60483	0.08394	-0.502
Mof_O 	O 	0.4128	0.52574	0.09091	-0.484
Mof_O 	O 	0.37925	0.58395	0.15241	-0.506
Mof_O 	O 	0.73335	0.43085	0.71723	-0.494
Mof_O 	O 	0.76587	0.54433	0.71528	-0.515
Mof_O 	O 	0.28061	0.69581	0.13007	-0.498
Mof_O 	O 	0.29011	0.75809	0.08082	-0.492
Mof_O 	O 	0.42983	0.85617	0.09365	-0.515
Mof_O 	O 	0.53454	0.85334	0.14792	-0.498
Mof_O 	O 	0.59657	0.40513	0.50806	-0.525
Mof_O 	O 	0.70395	0.36705	0.50877	-0.506
Mof_Zn	Zn	0.46864	0.24504	0.8498	1.212
Mof_Zn	Zn	0.55379	0.39121	0.92686	1.21
Mof_Zn	Zn	0.62057	0.31613	0.84785	1.213
Mof_Zn	Zn	0.61189	0.24407	0.92649	1.21
Mof_Zn	Zn	0.24504	0.46864	0.3498	1.212
Mof_Zn	Zn	0.39121	0.55379	0.42686	1.21
Mof_Zn	Zn	0.31613	0.62057	0.34785	1.213
Mof_Zn	Zn	0.24407	0.61189	0.42649	1.21
Mof_H 	H 	0.6168	0.4902	0.7966	0.03
Mof_H 	H 	0.575	0.576	0.7596	0.065
Mof_H 	H 	0.4985	0.6723	0.8641	0.069
Mof_H 	H 	0.5382	0.5864	0.9003	0.026
Mof_H 	H 	0.4766	0.6114	0.7169	0.067
Mof_H 	H 	0.4387	0.8149	0.7191	0.065
Mof_H 	H 	0.5246	0.7738	0.8403	0.064
Mof_H 	H 	0.5062	0.6232	0.65	0.068
Mof_H 	H 	0.4691	0.5923	0.5703	0.033
Mof_H 	H 	0.3025	0.7053	0.5725	0.023
Mof_H 	H 	0.3399	0.7397	0.6506	0.067
Mof_H 	H 	0.581	0.8948	0.8603	0.061
Mof_H 	H 	0.5916	0.019	0.8964	0.035
Mof_H 	H 	0.4031	0.0213	0.8013	0.034
Mof_H 	H 	0.393	0.8988	0.7652	0.06
Mof_H 	H 	0.3903	0.4469	0.9742	0.032
Mof_H 	H 	0.3027	0.4579	0.012	0.06
Mof_H 	H 	0.1842	0.2684	0.9167	0.061
Mof_H 	H 	0.2706	0.2628	0.8785	0.032
Mof_H 	H 	0.2479	0.4133	0.0572	0.072
Mof_H 	H 	0.041	0.3734	0.0571	0.066
Mof_H 	H 	0.0909	0.3271	0.9373	0.066
Mof_H 	H 	0.9474	0.2656	0.0075	0.066
Mof_H 	H 	0.8235	0.2429	0.9717	0.025
Mof_H 	H 	0.8534	0.3438	0.8804	0.016
Mof_H 	H 	0.9744	0.3668	0.9146	0.074
Mof_H 	H 	0.2257	0.5221	0.1219	0.07
Mof_H 	H 	0.2634	0.5658	0.2024	0.028
Mof_H 	H 	0.1634	0.3824	0.2091	0.031
Mof_H 	H 	0.1199	0.3373	0.1267	0.065
Mof_H 	H 	0.4902	0.6168	0.2966	0.03
Mof_H 	H 	0.576	0.575	0.2596	0.065
Mof_H 	H 	0.6723	0.4985	0.3641	0.069
Mof_H 	H 	0.5864	0.5382	0.4003	0.026
Mof_H 	H 	0.6114	0.4766	0.2169	0.067
Mof_H 	H 	0.8149	0.4387	0.2191	0.065
Mof_H 	H 	0.7738	0.5246	0.3403	0.064
Mof_H 	H 	0.6232	0.5062	0.15	0.068
Mof_H 	H 	0.5923	0.4691	0.0703	0.033
Mof_H 	H 	0.7053	0.3025	0.0725	0.023
Mof_H 	H 	0.7397	0.3399	0.1506	0.067
Mof_H 	H 	0.8948	0.581	0.3603	0.061
Mof_H 	H 	0.019	0.5916	0.3964	0.035
Mof_H 	H 	0.0213	0.4031	0.3013	0.034
Mof_H 	H 	0.8988	0.393	0.2652	0.06
Mof_H 	H 	0.4469	0.3903	0.4742	0.033
Mof_H 	H 	0.4579	0.3027	0.512	0.059
Mof_H 	H 	0.2684	0.1842	0.4167	0.061
Mof_H 	H 	0.2628	0.2706	0.3785	0.032
Mof_H 	H 	0.4133	0.2479	0.5572	0.072
Mof_H 	H 	0.3734	0.041	0.5571	0.066
Mof_H 	H 	0.3271	0.0909	0.4373	0.066
Mof_H 	H 	0.2656	0.9474	0.5075	0.067
Mof_H 	H 	0.2429	0.8235	0.4717	0.025
Mof_H 	H 	0.3438	0.8534	0.3804	0.016
Mof_H 	H 	0.3668	0.9744	0.4146	0.074
Mof_H 	H 	0.5221	0.2257	0.6219	0.07
Mof_H 	H 	0.5658	0.2634	0.7024	0.028
Mof_H 	H 	0.3824	0.1634	0.7091	0.032
Mof_H 	H 	0.3373	0.1199	0.6267	0.065
Mof_C 	C 	0.5979	0.4685	0.8694	0.371
Mof_C 	C 	0.579	0.5294	0.8503	-0.131
Mof_C 	C 	0.5916	0.5262	0.8098	0.043
Mof_C 	C 	0.5668	0.5774	0.7881	-0.105
Mof_C 	C 	0.5303	0.6307	0.8075	0.045
Mof_C 	C 	0.5211	0.6347	0.8499	-0.112
Mof_C 	C 	0.5449	0.5841	0.8713	0.045
Mof_C 	C 	0.504	0.6846	0.7826	0.036
Mof_C 	C 	0.4774	0.6604	0.7337	-0.103
Mof_C 	C 	0.4528	0.7102	0.7109	0.041
Mof_C 	C 	0.4552	0.7814	0.7353	-0.105
Mof_C 	C 	0.4814	0.8056	0.7835	0.042
Mof_C 	C 	0.5063	0.7577	0.8075	-0.102
Mof_C 	C 	0.4263	0.6859	0.6594	0.042
Mof_C 	C 	0.465	0.6402	0.6344	-0.106
Mof_C 	C 	0.4418	0.621	0.5869	0.05
Mof_C 	C 	0.3812	0.6416	0.5627	-0.137
Mof_C 	C 	0.3436	0.6884	0.5882	0.052
Mof_C 	C 	0.366	0.7086	0.6343	-0.113
Mof_C 	C 	0.4857	0.8837	0.8083	0.031
Mof_C 	C 	0.5452	0.9212	0.8482	-0.091
Mof_C 	C 	0.5521	0.9951	0.8696	0.026
Mof_C 	C 	0.5018	0.0326	0.8519	-0.103
Mof_C 	C 	0.4398	0.9952	0.8126	0.025
Mof_C 	C 	0.4334	0.9226	0.7915	-0.095
Mof_C 	C 	0.3969	0.3431	0.9	0.374
Mof_C 	C 	0.3383	0.3529	0.9226	-0.121
Mof_C 	C 	0.3478	0.4114	0.9627	0.032
Mof_C 	C 	0.2959	0.4177	0.9853	-0.09
Mof_C 	C 	0.2328	0.365	0.9695	0.025
Mof_C 	C 	0.2256	0.3054	0.9283	-0.094
Mof_C 	C 	0.2773	0.3015	0.9059	0.036
Mof_C 	C 	0.1777	0.3693	0.9934	0.049
Mof_C 	C 	0.198	0.3958	0.0407	-0.111
Mof_C 	C 	0.1476	0.3978	0.0653	0.042
Mof_C 	C 	0.076	0.3726	0.041	-0.103
Mof_C 	C 	0.0534	0.3452	0.992	0.037
Mof_C 	C 	0.1055	0.3449	0.9701	-0.108
Mof_C 	C 	0.9745	0.3223	0.9668	0.049
Mof_C 	C 	0.9277	0.2825	0.9819	-0.112
Mof_C 	C 	0.8552	0.2678	0.9606	0.05
Mof_C 	C 	0.8279	0.2909	0.9211	-0.148
Mof_C 	C 	0.8731	0.3279	0.9063	0.077
Mof_C 	C 	0.9439	0.3425	0.9268	-0.129
Mof_C 	C 	0.1693	0.4235	0.1165	0.041
Mof_C 	C 	0.2124	0.4934	0.1393	-0.106
Mof_C 	C 	0.2349	0.5191	0.1873	0.053
Mof_C 	C 	0.2169	0.4791	0.2131	-0.129
Mof_C 	C 	0.1753	0.4111	0.1912	0.037
Mof_C 	C 	0.1499	0.3833	0.1416	-0.103
Mof_C 	C 	0.2408	0.5004	0.2646	0.394
Mof_C 	C 	0.7485	0.2777	0.9032	0.375
Mof_C 	C 	0.5156	0.1152	0.8733	0.365
Mof_C 	C 	0.3606	0.6214	0.5115	0.398
Mof_C 	C 	0.4685	0.5979	0.3694	0.371
Mof_C 	C 	0.5294	0.579	0.3503	-0.131
Mof_C 	C 	0.5262	0.5916	0.3098	0.043
Mof_C 	C 	0.5774	0.5668	0.2881	-0.105
Mof_C 	C 	0.6307	0.5303	0.3075	0.045
Mof_C 	C 	0.6347	0.5211	0.3499	-0.112
Mof_C 	C 	0.5841	0.5449	0.3713	0.045
Mof_C 	C 	0.6846	0.504	0.2826	0.036
Mof_C 	C 	0.6604	0.4774	0.2337	-0.103
Mof_C 	C 	0.7102	0.4528	0.2109	0.041
Mof_C 	C 	0.7814	0.4552	0.2353	-0.105
Mof_C 	C 	0.8056	0.4814	0.2835	0.042
Mof_C 	C 	0.7577	0.5063	0.3075	-0.102
Mof_C 	C 	0.6859	0.4263	0.1594	0.042
Mof_C 	C 	0.6402	0.465	0.1344	-0.106
Mof_C 	C 	0.621	0.4418	0.0869	0.05
Mof_C 	C 	0.6416	0.3812	0.0627	-0.137
Mof_C 	C 	0.6884	0.3436	0.0882	0.052
Mof_C 	C 	0.7086	0.366	0.1343	-0.113
Mof_C 	C 	0.8837	0.4857	0.3083	0.031
Mof_C 	C 	0.9212	0.5452	0.3482	-0.092
Mof_C 	C 	0.9951	0.5521	0.3696	0.026
Mof_C 	C 	0.0326	0.5018	0.3519	-0.104
Mof_C 	C 	0.9952	0.4398	0.3126	0.025
Mof_C 	C 	0.9226	0.4334	0.2915	-0.095
Mof_C 	C 	0.3431	0.3969	0.4	0.373
Mof_C 	C 	0.3529	0.3383	0.4226	-0.121
Mof_C 	C 	0.4114	0.3478	0.4627	0.032
Mof_C 	C 	0.4177	0.2959	0.4853	-0.089
Mof_C 	C 	0.365	0.2328	0.4695	0.025
Mof_C 	C 	0.3054	0.2256	0.4283	-0.093
Mof_C 	C 	0.3015	0.2773	0.4059	0.036
Mof_C 	C 	0.3693	0.1777	0.4934	0.05
Mof_C 	C 	0.3958	0.198	0.5407	-0.112
Mof_C 	C 	0.3978	0.1476	0.5653	0.043
Mof_C 	C 	0.3726	0.076	0.541	-0.104
Mof_C 	C 	0.3452	0.0534	0.492	0.038
Mof_C 	C 	0.3449	0.1055	0.4701	-0.108
Mof_C 	C 	0.3223	0.9745	0.4668	0.049
Mof_C 	C 	0.2825	0.9277	0.4819	-0.113
Mof_C 	C 	0.2678	0.8552	0.4606	0.05
Mof_C 	C 	0.2909	0.8279	0.4211	-0.148
Mof_C 	C 	0.3279	0.8731	0.4063	0.077
Mof_C 	C 	0.3425	0.9439	0.4268	-0.129
Mof_C 	C 	0.4235	0.1693	0.6165	0.041
Mof_C 	C 	0.4934	0.2124	0.6393	-0.105
Mof_C 	C 	0.5191	0.2349	0.6873	0.053
Mof_C 	C 	0.4791	0.2169	0.7131	-0.129
Mof_C 	C 	0.4111	0.1753	0.6912	0.037
Mof_C 	C 	0.3833	0.1499	0.6416	-0.102
Mof_C 	C 	0.5004	0.2408	0.7646	0.394
Mof_C 	C 	0.2777	0.7485	0.4032	0.375
Mof_C 	C 	0.1152	0.5156	0.3733	0.365
Mof_C 	C 	0.6214	0.3606	0.0115	0.397
Mof_O 	O 	0.56405	0.29987	0.8877	-0.963
Mof_O 	O 	0.39007	0.28513	0.86846	-0.507
Mof_O 	O 	0.45083	0.39517	0.91606	-0.502
Mof_O 	O 	0.5872	0.47426	0.90909	-0.484
Mof_O 	O 	0.62075	0.41605	0.84759	-0.506
Mof_O 	O 	0.26665	0.56915	0.28277	-0.494
Mof_O 	O 	0.23413	0.45567	0.28472	-0.515
Mof_O 	O 	0.71939	0.30419	0.86993	-0.498
Mof_O 	O 	0.70989	0.24191	0.91918	-0.492
Mof_O 	O 	0.57017	0.14383	0.90635	-0.515
Mof_O 	O 	0.46546	0.14666	0.85208	-0.498
Mof_O 	O 	0.40343	0.59487	0.49194	-0.525
Mof_O 	O 	0.29605	0.63295	0.49123	-0.506
Mof_O 	O 	0.29987	0.56405	0.3877	-0.963
Mof_O 	O 	0.28513	0.39007	0.36846	-0.507
Mof_O 	O 	0.39517	0.45083	0.41606	-0.502
Mof_O 	O 	0.47426	0.5872	0.40909	-0.484
Mof_O 	O 	0.41605	0.62075	0.34759	-0.506
Mof_O 	O 	0.56915	0.26665	0.78277	-0.494
Mof_O 	O 	0.45567	0.23413	0.78472	-0.515
Mof_O 	O 	0.30419	0.71939	0.36993	-0.498
Mof_O 	O 	0.24191	0.70989	0.41918	-0.492
Mof_O 	O 	0.14383	0.57017	0.40635	-0.515
Mof_O 	O 	0.14666	0.46546	0.35208	-0.498
Mof_O 	O 	0.59487	0.40343	0.99194	-0.525
Mof_O 	O 	0.63295	0.29605	0.99123	-0.506
_end
