data_functionalizedCrystal
_audit_creation_method	'EQeq! by Chris Wilmer'
_symmetry_space_group_name_H-M	'P1'
_symmetry_Int_Tables_number	1
_symmetry_cell_setting	triclinic
loop_
_symmetry_equiv_pos_as_xyz
  x,y,z
_cell_length_a	7.1139
_cell_length_b	6.9109
_cell_length_c	6.7799
_cell_angle_alpha	90
_cell_angle_beta	90
_cell_angle_gamma	90
loop_
_atom_site_label
_atom_site_type_symbol
_atom_site_fract_x
_atom_site_fract_y
_atom_site_fract_z
_atom_site_charge
Mof_Ni	Ni	0.5	0.5	-0	1.054
Mof_Fe	Fe	-0	0	-0	0.586
Mof_N 	N 	0.1948	0.1973	-0	-0.135
Mof_C 	C 	0.3125	0.3111	-0	-0.244
Mof_N 	N 	0.8052	0.8027	-0	-0.091
Mof_C 	C 	0.6875	0.6889	-0	-0.219
Mof_N 	N 	0.8052	0.1973	-0	-0.105
Mof_C 	C 	0.6875	0.3111	-0	-0.228
Mof_N 	N 	0.1948	0.8027	-0	-0.119
Mof_C 	C 	0.3125	0.6889	-0	-0.235
Mof_N 	N 	-1.32002e-33	-2.36665e-33	0.2929	-0.196
Mof_N 	N 	-2.20658e-33	0	0.7071	-0.173
Mof_C 	C 	1.41934e-33	0.1641	0.3972	-0.002
Mof_H 	H 	1.17635e-33	0.2843	0.3292	0.009
Mof_C 	C 	1.41934e-33	0.8359	0.3972	0.031
Mof_H 	H 	1.0643e-32	0.7157	0.3292	0.002
Mof_C 	C 	2.15402e-33	0.1641	0.6028	-0.004
Mof_H 	H 	7.13032e-33	0.2843	0.6708	0.025
Mof_C 	C 	2.15402e-33	0.8359	0.6028	0.025
Mof_H 	H 	1.18636e-32	0.7157	0.6708	0.019
_end
