data_functionalizedCrystal
_audit_creation_method	'EQeq! by Chris Wilmer'
_symmetry_space_group_name_H-M	'P1'
_symmetry_Int_Tables_number	1
_symmetry_cell_setting	triclinic
loop_
_symmetry_equiv_pos_as_xyz
  x,y,z
_cell_length_a	13.8164
_cell_length_b	27.9987
_cell_length_c	44.1589
_cell_angle_alpha	90
_cell_angle_beta	90
_cell_angle_gamma	90
loop_
_atom_site_label
_atom_site_type_symbol
_atom_site_fract_x
_atom_site_fract_y
_atom_site_fract_z
_atom_site_charge
Mof_Zn	Zn	0.13888	0.54794	0.91065	1.164
Mof_Zn	Zn	0.18873	0.73851	0.17895	1.164
Mof_Zn	Zn	0.38149	0.52451	0.08659	1.163
Mof_Zn	Zn	0.86112	0.95206	0.41065	1.164
Mof_Zn	Zn	0.81127	0.76149	0.67895	1.164
Mof_Zn	Zn	0.61851	0.97549	0.58659	1.163
Mof_Zn	Zn	0.63888	0.45206	0.58935	1.164
Mof_Zn	Zn	0.68873	0.26149	0.32105	1.164
Mof_Zn	Zn	0.88149	0.47549	0.41341	1.163
Mof_Zn	Zn	0.36112	0.04794	0.08935	1.164
Mof_Zn	Zn	0.31127	0.23851	0.82105	1.164
Mof_Zn	Zn	0.11851	0.02451	0.91341	1.163
Mof_H 	H 	0.2192	0.6865	0.1218	-0.014
Mof_H 	H 	0.1341	0.6475	0.0839	0.077
Mof_H 	H 	0.9807	0.7099	0.1677	-0.014
Mof_H 	H 	0.888	0.6694	0.1315	0.084
Mof_H 	H 	0.54	0.5754	0.12	-0.008
Mof_H 	H 	0.6994	0.5998	0.1134	0.098
Mof_H 	H 	0.5197	0.5363	0.0345	-0.005
Mof_H 	H 	0.6768	0.5631	0.0251	0.089
Mof_H 	H 	0.9521	0.5276	0.9419	-0.014
Mof_H 	H 	0.8732	0.5483	0.9866	0.09
Mof_H 	H 	0.2015	0.5732	0.9746	-0.004
Mof_H 	H 	0.1292	0.5942	0.02	0.079
Mof_H 	H 	0.1205	0.6532	0.93	-0.013
Mof_H 	H 	0.0889	0.7269	0.9085	0.076
Mof_H 	H 	0.0575	0.5864	0.8539	-0.011
Mof_H 	H 	0.0295	0.6579	0.8295	0.077
Mof_H 	H 	0.9327	0.7043	0.7217	0.004
Mof_H 	H 	0.9977	0.7104	0.7705	0.077
Mof_H 	H 	0.8581	0.8398	0.7221	-0.01
Mof_H 	H 	0.9265	0.8516	0.7701	0.076
Mof_H 	H 	0.054	0.9874	0.8535	-0.011
Mof_H 	H 	0.024	0.9162	0.8284	0.08
Mof_H 	H 	0.1098	0.9193	0.9293	-0.01
Mof_H 	H 	0.0862	0.8462	0.9062	0.08
Mof_H 	H 	0.7808	0.8135	0.6218	-0.012
Mof_H 	H 	0.8659	0.8525	0.5839	0.078
Mof_H 	H 	0.0193	0.7901	0.6677	-0.011
Mof_H 	H 	0.112	0.8306	0.6315	0.084
Mof_H 	H 	0.46	0.9246	0.62	-0.007
Mof_H 	H 	0.3006	0.9002	0.6134	0.099
Mof_H 	H 	0.4803	0.9637	0.5345	-0.004
Mof_H 	H 	0.3232	0.9369	0.5251	0.09
Mof_H 	H 	0.0479	0.9724	0.4419	-0.013
Mof_H 	H 	0.1268	0.9517	0.4866	0.092
Mof_H 	H 	0.7985	0.9268	0.4746	-0.003
Mof_H 	H 	0.8708	0.9058	0.52	0.08
Mof_H 	H 	0.8795	0.8468	0.43	-0.012
Mof_H 	H 	0.9111	0.7731	0.4085	0.077
Mof_H 	H 	0.9425	0.9136	0.3539	-0.01
Mof_H 	H 	0.9705	0.8421	0.3295	0.078
Mof_H 	H 	0.0673	0.7957	0.2217	0.005
Mof_H 	H 	0.0023	0.7896	0.2705	0.078
Mof_H 	H 	0.1419	0.6602	0.2221	-0.009
Mof_H 	H 	0.0735	0.6484	0.2701	0.078
Mof_H 	H 	0.946	0.5126	0.3535	-0.011
Mof_H 	H 	0.976	0.5838	0.3284	0.081
Mof_H 	H 	0.8902	0.5807	0.4293	-0.01
Mof_H 	H 	0.9138	0.6538	0.4062	0.08
Mof_H 	H 	0.7192	0.3135	0.3782	-0.013
Mof_H 	H 	0.6341	0.3525	0.4161	0.078
Mof_H 	H 	0.4807	0.2901	0.3323	-0.012
Mof_H 	H 	0.388	0.3306	0.3685	0.085
Mof_H 	H 	0.04	0.4246	0.38	-0.007
Mof_H 	H 	0.1994	0.4002	0.3866	0.099
Mof_H 	H 	0.0197	0.4637	0.4655	-0.004
Mof_H 	H 	0.1768	0.4369	0.4749	0.09
Mof_H 	H 	0.4521	0.4724	0.5581	-0.013
Mof_H 	H 	0.3732	0.4517	0.5134	0.091
Mof_H 	H 	0.7015	0.4268	0.5254	-0.003
Mof_H 	H 	0.6292	0.4058	0.48	0.08
Mof_H 	H 	0.6205	0.3468	0.57	-0.012
Mof_H 	H 	0.5889	0.2731	0.5915	0.077
Mof_H 	H 	0.5575	0.4136	0.6461	-0.01
Mof_H 	H 	0.5295	0.3421	0.6705	0.078
Mof_H 	H 	0.4327	0.2957	0.7783	0.005
Mof_H 	H 	0.4977	0.2896	0.7295	0.078
Mof_H 	H 	0.3581	0.1602	0.7779	-0.009
Mof_H 	H 	0.4265	0.1484	0.7299	0.078
Mof_H 	H 	0.554	0.0126	0.6465	-0.011
Mof_H 	H 	0.524	0.0838	0.6716	0.081
Mof_H 	H 	0.6098	0.0807	0.5707	-0.01
Mof_H 	H 	0.5862	0.1538	0.5938	0.08
Mof_H 	H 	0.2808	0.1865	0.8782	-0.013
Mof_H 	H 	0.3659	0.1475	0.9161	0.078
Mof_H 	H 	0.5193	0.2099	0.8323	-0.012
Mof_H 	H 	0.612	0.1694	0.8685	0.085
Mof_H 	H 	0.96	0.0754	0.88	-0.007
Mof_H 	H 	0.8006	0.0998	0.8866	0.099
Mof_H 	H 	0.9803	0.0363	0.9655	-0.004
Mof_H 	H 	0.8232	0.0631	0.9749	0.09
Mof_H 	H 	0.5479	0.0276	0.0581	-0.013
Mof_H 	H 	0.6268	0.0483	0.0134	0.091
Mof_H 	H 	0.2985	0.0732	0.0254	-0.003
Mof_H 	H 	0.3708	0.0942	0.98	0.08
Mof_H 	H 	0.3795	0.1532	0.07	-0.012
Mof_H 	H 	0.4111	0.2269	0.0915	0.077
Mof_H 	H 	0.4425	0.0864	0.1461	-0.01
Mof_H 	H 	0.4705	0.1579	0.1705	0.078
Mof_H 	H 	0.5673	0.2043	0.2783	0.005
Mof_H 	H 	0.5023	0.2104	0.2295	0.078
Mof_H 	H 	0.6419	0.3398	0.2779	-0.009
Mof_H 	H 	0.5735	0.3516	0.2299	0.078
Mof_H 	H 	0.446	0.4874	0.1465	-0.011
Mof_H 	H 	0.476	0.4162	0.1716	0.081
Mof_H 	H 	0.3902	0.4193	0.0707	-0.01
Mof_H 	H 	0.4138	0.3462	0.0938	0.08
Mof_C 	C 	0.151	0.6835	0.12367	0.073
Mof_C 	C 	0.1007	0.6599	0.10101	-0.113
Mof_C 	C 	0.012	0.6968	0.15045	0.073
Mof_C 	C 	0.9558	0.6729	0.12886	-0.12
Mof_C 	C 	0.0013	0.6546	0.10356	0.061
Mof_C 	C 	0.9468	0.6291	0.08	0.103
Mof_C 	C 	0.5687	0.5724	0.10056	0.079
Mof_C 	C 	0.6636	0.5872	0.09687	-0.131
Mof_C 	C 	0.5563	0.55	0.05052	0.068
Mof_C 	C 	0.6503	0.5651	0.04489	-0.122
Mof_C 	C 	0.7047	0.5832	0.06857	0.054
Mof_C 	C 	0.8085	0.596	0.06351	0.091
Mof_C 	C 	0.9877	0.5424	0.95768	0.064
Mof_C 	C 	0.9405	0.5543	0.98434	-0.121
Mof_C 	C 	0.1336	0.569	0.97683	0.067
Mof_C 	C 	0.0913	0.5815	0.00401	-0.116
Mof_C 	C 	0.9924	0.5749	0.00745	0.055
Mof_C 	C 	0.9424	0.5904	0.03549	0.096
Mof_C 	C 	0.1019	0.6545	0.90929	0.068
Mof_C 	C 	0.0841	0.6986	0.89669	-0.116
Mof_C 	C 	0.0659	0.6153	0.86483	0.055
Mof_C 	C 	0.0484	0.6576	0.85015	-0.111
Mof_C 	C 	0.0588	0.7005	0.86631	0.047
Mof_C 	C 	0.0429	0.7466	0.85029	0.106
Mof_C 	C 	0.9303	0.7341	0.73196	0.053
Mof_C 	C 	0.9698	0.7375	0.76093	-0.104
Mof_C 	C 	0.8874	0.8135	0.73208	0.063
Mof_C 	C 	0.927	0.8209	0.76091	-0.109
Mof_C 	C 	0.9674	0.7815	0.7756	0.043
Mof_C 	C 	0.0026	0.7851	0.80743	0.107
Mof_C 	C 	0.0602	0.9582	0.86425	0.073
Mof_C 	C 	0.0431	0.916	0.84903	-0.115
Mof_C 	C 	0.0934	0.9185	0.90846	0.073
Mof_C 	C 	0.079	0.8748	0.89486	-0.115
Mof_C 	C 	0.0543	0.8729	0.86474	0.055
Mof_C 	C 	0.0407	0.8263	0.84918	0.103
Mof_C 	C 	0.849	0.8165	0.62367	0.072
Mof_C 	C 	0.8993	0.8401	0.60101	-0.111
Mof_C 	C 	0.988	0.8032	0.65045	0.069
Mof_C 	C 	0.0442	0.8271	0.62886	-0.115
Mof_C 	C 	0.9987	0.8454	0.60356	0.057
Mof_C 	C 	0.0532	0.8709	0.58	0.105
Mof_C 	C 	0.4313	0.9276	0.60056	0.079
Mof_C 	C 	0.3364	0.9128	0.59687	-0.131
Mof_C 	C 	0.4437	0.95	0.55052	0.068
Mof_C 	C 	0.3497	0.9349	0.54489	-0.122
Mof_C 	C 	0.2953	0.9168	0.56857	0.054
Mof_C 	C 	0.1915	0.904	0.56351	0.091
Mof_C 	C 	0.0123	0.9576	0.45768	0.066
Mof_C 	C 	0.0595	0.9457	0.48434	-0.122
Mof_C 	C 	0.8664	0.931	0.47683	0.068
Mof_C 	C 	0.9087	0.9185	0.50401	-0.118
Mof_C 	C 	0.0076	0.9251	0.50745	0.057
Mof_C 	C 	0.0576	0.9096	0.53549	0.095
Mof_C 	C 	0.8981	0.8455	0.40929	0.067
Mof_C 	C 	0.9159	0.8014	0.39669	-0.116
Mof_C 	C 	0.9341	0.8847	0.36483	0.055
Mof_C 	C 	0.9516	0.8424	0.35015	-0.111
Mof_C 	C 	0.9412	0.7995	0.36631	0.047
Mof_C 	C 	0.9571	0.7534	0.35029	0.106
Mof_C 	C 	0.0697	0.7659	0.23196	0.053
Mof_C 	C 	0.0302	0.7625	0.26093	-0.104
Mof_C 	C 	0.1126	0.6865	0.23208	0.063
Mof_C 	C 	0.073	0.6791	0.26091	-0.11
Mof_C 	C 	0.0326	0.7185	0.2756	0.044
Mof_C 	C 	0.9974	0.7149	0.30743	0.106
Mof_C 	C 	0.9398	0.5418	0.36425	0.073
Mof_C 	C 	0.9569	0.584	0.34903	-0.115
Mof_C 	C 	0.9066	0.5815	0.40846	0.073
Mof_C 	C 	0.921	0.6252	0.39486	-0.116
Mof_C 	C 	0.9457	0.6271	0.36474	0.055
Mof_C 	C 	0.9593	0.6737	0.34918	0.103
Mof_C 	C 	0.651	0.3165	0.37633	0.073
Mof_C 	C 	0.6007	0.3401	0.39899	-0.113
Mof_C 	C 	0.512	0.3032	0.34955	0.072
Mof_C 	C 	0.4558	0.3271	0.37114	-0.119
Mof_C 	C 	0.5013	0.3454	0.39644	0.061
Mof_C 	C 	0.4468	0.3709	0.42	0.103
Mof_C 	C 	0.0687	0.4276	0.39944	0.079
Mof_C 	C 	0.1636	0.4128	0.40313	-0.131
Mof_C 	C 	0.0563	0.45	0.44948	0.068
Mof_C 	C 	0.1503	0.4349	0.45511	-0.122
Mof_C 	C 	0.2047	0.4168	0.43143	0.054
Mof_C 	C 	0.3085	0.404	0.43649	0.091
Mof_C 	C 	0.4877	0.4576	0.54232	0.065
Mof_C 	C 	0.4405	0.4457	0.51566	-0.121
Mof_C 	C 	0.6336	0.431	0.52317	0.067
Mof_C 	C 	0.5913	0.4185	0.49599	-0.116
Mof_C 	C 	0.4924	0.4251	0.49255	0.055
Mof_C 	C 	0.4424	0.4096	0.46451	0.096
Mof_C 	C 	0.6019	0.3455	0.59071	0.068
Mof_C 	C 	0.5841	0.3014	0.60331	-0.116
Mof_C 	C 	0.5659	0.3847	0.63517	0.055
Mof_C 	C 	0.5484	0.3424	0.64985	-0.11
Mof_C 	C 	0.5588	0.2995	0.63369	0.047
Mof_C 	C 	0.5429	0.2534	0.64971	0.106
Mof_C 	C 	0.4303	0.2659	0.76804	0.053
Mof_C 	C 	0.4698	0.2625	0.73907	-0.104
Mof_C 	C 	0.3874	0.1865	0.76792	0.063
Mof_C 	C 	0.427	0.1791	0.73909	-0.11
Mof_C 	C 	0.4674	0.2185	0.7244	0.044
Mof_C 	C 	0.5026	0.2149	0.69257	0.107
Mof_C 	C 	0.5602	0.0418	0.63575	0.073
Mof_C 	C 	0.5431	0.084	0.65097	-0.115
Mof_C 	C 	0.5934	0.0815	0.59154	0.073
Mof_C 	C 	0.579	0.1252	0.60514	-0.115
Mof_C 	C 	0.5543	0.1271	0.63526	0.055
Mof_C 	C 	0.5407	0.1737	0.65082	0.103
Mof_C 	C 	0.349	0.1835	0.87633	0.073
Mof_C 	C 	0.3993	0.1599	0.89899	-0.113
Mof_C 	C 	0.488	0.1968	0.84955	0.072
Mof_C 	C 	0.5442	0.1729	0.87114	-0.119
Mof_C 	C 	0.4987	0.1546	0.89644	0.061
Mof_C 	C 	0.5532	0.1291	0.92	0.103
Mof_C 	C 	0.9313	0.0724	0.89944	0.079
Mof_C 	C 	0.8364	0.0872	0.90313	-0.131
Mof_C 	C 	0.9437	0.05	0.94948	0.068
Mof_C 	C 	0.8497	0.0651	0.95511	-0.122
Mof_C 	C 	0.7953	0.0832	0.93143	0.054
Mof_C 	C 	0.6915	0.096	0.93649	0.091
Mof_C 	C 	0.5123	0.0424	0.04232	0.065
Mof_C 	C 	0.5595	0.0543	0.01566	-0.121
Mof_C 	C 	0.3664	0.069	0.02317	0.067
Mof_C 	C 	0.4087	0.0815	0.99599	-0.116
Mof_C 	C 	0.5076	0.0749	0.99255	0.055
Mof_C 	C 	0.5576	0.0904	0.96451	0.096
Mof_C 	C 	0.3981	0.1545	0.09071	0.067
Mof_C 	C 	0.4159	0.1986	0.10331	-0.116
Mof_C 	C 	0.4341	0.1153	0.13517	0.055
Mof_C 	C 	0.4516	0.1576	0.14985	-0.11
Mof_C 	C 	0.4412	0.2005	0.13369	0.047
Mof_C 	C 	0.4571	0.2466	0.14971	0.106
Mof_C 	C 	0.5697	0.2341	0.26804	0.053
Mof_C 	C 	0.5302	0.2375	0.23907	-0.104
Mof_C 	C 	0.6126	0.3135	0.26792	0.063
Mof_C 	C 	0.573	0.3209	0.23909	-0.11
Mof_C 	C 	0.5326	0.2815	0.2244	0.044
Mof_C 	C 	0.4974	0.2851	0.19257	0.107
Mof_C 	C 	0.4398	0.4582	0.13575	0.073
Mof_C 	C 	0.4569	0.416	0.15097	-0.115
Mof_C 	C 	0.4066	0.4185	0.09154	0.073
Mof_C 	C 	0.421	0.3748	0.10514	-0.116
Mof_C 	C 	0.4457	0.3729	0.13526	0.055
Mof_C 	C 	0.4593	0.3263	0.15082	0.103
Mof_I 	I 	0.32302	0.55387	0.91426	-0.38
Mof_I 	I 	0.0545	0.4837	0.8803	-0.365
Mof_I 	I 	0.18645	0.82736	0.16598	-0.371
Mof_I 	I 	0.35109	0.69646	0.18473	-0.372
Mof_I 	I 	0.29857	0.57358	0.12687	-0.371
Mof_I 	I 	0.30483	0.50822	0.03472	-0.391
Mof_I 	I 	0.67698	0.94613	0.41426	-0.38
Mof_I 	I 	0.9455	0.0163	0.3803	-0.364
Mof_I 	I 	0.81355	0.67264	0.66598	-0.371
Mof_I 	I 	0.64891	0.80354	0.68473	-0.372
Mof_I 	I 	0.70143	0.92642	0.62687	-0.371
Mof_I 	I 	0.69517	0.99178	0.53472	-0.391
Mof_I 	I 	0.82302	0.44613	0.58574	-0.38
Mof_I 	I 	0.5545	0.5163	0.6197	-0.365
Mof_I 	I 	0.68645	0.17264	0.33402	-0.371
Mof_I 	I 	0.85109	0.30354	0.31527	-0.371
Mof_I 	I 	0.79857	0.42642	0.37313	-0.371
Mof_I 	I 	0.80483	0.49178	0.46528	-0.391
Mof_I 	I 	0.17698	0.05387	0.08574	-0.381
Mof_I 	I 	0.4455	0.9837	0.1197	-0.365
Mof_I 	I 	0.31355	0.32736	0.83402	-0.371
Mof_I 	I 	0.14891	0.19646	0.81527	-0.372
Mof_I 	I 	0.20143	0.07358	0.87313	-0.371
Mof_I 	I 	0.19517	0.00822	0.96528	-0.391
Mof_N 	N 	0.1082	0.7021	0.14786	-0.276
Mof_N 	N 	0.5157	0.55409	0.0782	-0.271
Mof_N 	N 	0.083	0.55135	0.95351	-0.274
Mof_N 	N 	0.8514	0.6222	0.08493	-0.133
Mof_N 	N 	0.849	0.5796	0.03856	-0.144
Mof_N 	N 	0.9953	0.61458	0.0558	-0.14
Mof_N 	N 	0.0947	0.61283	0.89394	-0.272
Mof_N 	N 	0.8889	0.7715	0.71808	-0.27
Mof_N 	N 	0.0852	0.95977	0.89342	-0.269
Mof_N 	N 	0.0166	0.7432	0.82133	-0.142
Mof_N 	N 	0.0134	0.82765	0.8199	-0.14
Mof_N 	N 	0.0563	0.78709	0.8652	-0.142
Mof_N 	N 	0.8918	0.7979	0.64786	-0.275
Mof_N 	N 	0.4843	0.94591	0.5782	-0.271
Mof_N 	N 	0.917	0.94865	0.45351	-0.274
Mof_N 	N 	0.1486	0.8778	0.58493	-0.134
Mof_N 	N 	0.151	0.9204	0.53856	-0.144
Mof_N 	N 	0.0047	0.88542	0.5558	-0.14
Mof_N 	N 	0.9053	0.88717	0.39394	-0.273
Mof_N 	N 	0.1111	0.7285	0.21808	-0.27
Mof_N 	N 	0.9148	0.54023	0.39342	-0.269
Mof_N 	N 	0.9834	0.7568	0.32133	-0.142
Mof_N 	N 	0.9866	0.67235	0.3199	-0.14
Mof_N 	N 	0.9437	0.71291	0.3652	-0.142
Mof_N 	N 	0.6082	0.2979	0.35214	-0.276
Mof_N 	N 	0.0157	0.44591	0.4218	-0.271
Mof_N 	N 	0.583	0.44865	0.54649	-0.274
Mof_N 	N 	0.3514	0.3778	0.41507	-0.133
Mof_N 	N 	0.349	0.4204	0.46144	-0.144
Mof_N 	N 	0.4953	0.38542	0.4442	-0.14
Mof_N 	N 	0.5947	0.38717	0.60606	-0.272
Mof_N 	N 	0.3889	0.2285	0.78192	-0.27
Mof_N 	N 	0.5852	0.04023	0.60658	-0.269
Mof_N 	N 	0.5166	0.2568	0.67867	-0.142
Mof_N 	N 	0.5134	0.17235	0.6801	-0.14
Mof_N 	N 	0.5563	0.21291	0.6348	-0.142
Mof_N 	N 	0.3918	0.2021	0.85214	-0.276
Mof_N 	N 	0.9843	0.05409	0.9218	-0.271
Mof_N 	N 	0.417	0.05135	0.04649	-0.274
Mof_N 	N 	0.6486	0.1222	0.91507	-0.133
Mof_N 	N 	0.651	0.0796	0.96144	-0.144
Mof_N 	N 	0.5047	0.11458	0.9442	-0.14
Mof_N 	N 	0.4053	0.11283	0.10606	-0.272
Mof_N 	N 	0.6111	0.2715	0.28192	-0.27
Mof_N 	N 	0.4148	0.45977	0.10658	-0.269
Mof_N 	N 	0.4834	0.2432	0.17867	-0.142
Mof_N 	N 	0.4866	0.32765	0.1801	-0.14
Mof_N 	N 	0.4437	0.28709	0.1348	-0.142
Mof_Zn	Zn	0.86112	0.45206	0.08935	1.165
Mof_Zn	Zn	0.81127	0.26149	0.82105	1.165
Mof_Zn	Zn	0.61851	0.47549	0.91341	1.164
Mof_Zn	Zn	0.13888	0.04794	0.58935	1.165
Mof_Zn	Zn	0.18873	0.23851	0.32105	1.165
Mof_Zn	Zn	0.38149	0.02451	0.41341	1.164
Mof_Zn	Zn	0.36112	0.54794	0.41065	1.165
Mof_Zn	Zn	0.31127	0.73851	0.67895	1.165
Mof_Zn	Zn	0.11851	0.52451	0.58659	1.164
Mof_Zn	Zn	0.63888	0.95206	0.91065	1.165
Mof_Zn	Zn	0.68873	0.76149	0.17895	1.165
Mof_Zn	Zn	0.88149	0.97549	0.08659	1.164
Mof_H 	H 	0.7808	0.3135	0.8782	-0.013
Mof_H 	H 	0.8659	0.3525	0.9161	0.078
Mof_H 	H 	0.0193	0.2901	0.8323	-0.013
Mof_H 	H 	0.112	0.3306	0.8685	0.085
Mof_H 	H 	0.46	0.4246	0.88	-0.007
Mof_H 	H 	0.3006	0.4002	0.8866	0.099
Mof_H 	H 	0.4803	0.4637	0.9655	-0.004
Mof_H 	H 	0.3232	0.4369	0.9749	0.09
Mof_H 	H 	0.0479	0.4724	0.0581	-0.013
Mof_H 	H 	0.1268	0.4517	0.0134	0.091
Mof_H 	H 	0.7985	0.4268	0.0254	-0.003
Mof_H 	H 	0.8708	0.4058	0.98	0.08
Mof_H 	H 	0.8795	0.3468	0.07	-0.012
Mof_H 	H 	0.9111	0.2731	0.0915	0.077
Mof_H 	H 	0.9425	0.4136	0.1461	-0.01
Mof_H 	H 	0.9705	0.3421	0.1705	0.078
Mof_H 	H 	0.0673	0.2957	0.2783	0.005
Mof_H 	H 	0.0023	0.2896	0.2295	0.078
Mof_H 	H 	0.1419	0.1602	0.2779	-0.009
Mof_H 	H 	0.0735	0.1484	0.2299	0.077
Mof_H 	H 	0.946	0.0126	0.1465	-0.01
Mof_H 	H 	0.976	0.0838	0.1716	0.081
Mof_H 	H 	0.8902	0.0807	0.0707	-0.01
Mof_H 	H 	0.9138	0.1538	0.0938	0.08
Mof_H 	H 	0.2192	0.1865	0.3782	-0.012
Mof_H 	H 	0.1341	0.1475	0.4161	0.078
Mof_H 	H 	0.9807	0.2099	0.3323	-0.011
Mof_H 	H 	0.888	0.1694	0.3685	0.084
Mof_H 	H 	0.54	0.0754	0.38	-0.007
Mof_H 	H 	0.6994	0.0998	0.3866	0.099
Mof_H 	H 	0.5197	0.0363	0.4655	-0.004
Mof_H 	H 	0.6768	0.0631	0.4749	0.09
Mof_H 	H 	0.9521	0.0276	0.5581	-0.013
Mof_H 	H 	0.8732	0.0483	0.5134	0.092
Mof_H 	H 	0.2015	0.0732	0.5254	-0.003
Mof_H 	H 	0.1292	0.0942	0.48	0.08
Mof_H 	H 	0.1205	0.1532	0.57	-0.012
Mof_H 	H 	0.0889	0.2269	0.5915	0.077
Mof_H 	H 	0.0575	0.0864	0.6461	-0.01
Mof_H 	H 	0.0295	0.1579	0.6705	0.078
Mof_H 	H 	0.9327	0.2043	0.7783	0.005
Mof_H 	H 	0.9977	0.2104	0.7295	0.078
Mof_H 	H 	0.8581	0.3398	0.7779	-0.009
Mof_H 	H 	0.9265	0.3516	0.7299	0.078
Mof_H 	H 	0.054	0.4874	0.6465	-0.011
Mof_H 	H 	0.024	0.4162	0.6716	0.081
Mof_H 	H 	0.1098	0.4193	0.5707	-0.01
Mof_H 	H 	0.0862	0.3462	0.5938	0.08
Mof_H 	H 	0.2808	0.6865	0.6218	-0.013
Mof_H 	H 	0.3659	0.6475	0.5839	0.078
Mof_H 	H 	0.5193	0.7099	0.6677	-0.012
Mof_H 	H 	0.612	0.6694	0.6315	0.085
Mof_H 	H 	0.96	0.5754	0.62	-0.007
Mof_H 	H 	0.8006	0.5998	0.6134	0.099
Mof_H 	H 	0.9803	0.5363	0.5345	-0.004
Mof_H 	H 	0.8232	0.5631	0.5251	0.09
Mof_H 	H 	0.5479	0.5276	0.4419	-0.013
Mof_H 	H 	0.6268	0.5483	0.4866	0.091
Mof_H 	H 	0.2985	0.5732	0.4746	-0.003
Mof_H 	H 	0.3708	0.5942	0.52	0.08
Mof_H 	H 	0.3795	0.6532	0.43	-0.012
Mof_H 	H 	0.4111	0.7269	0.4085	0.077
Mof_H 	H 	0.4425	0.5864	0.3539	-0.01
Mof_H 	H 	0.4705	0.6579	0.3295	0.078
Mof_H 	H 	0.5673	0.7043	0.2217	0.005
Mof_H 	H 	0.5023	0.7104	0.2705	0.078
Mof_H 	H 	0.6419	0.8398	0.2221	-0.009
Mof_H 	H 	0.5735	0.8516	0.2701	0.078
Mof_H 	H 	0.446	0.9874	0.3535	-0.011
Mof_H 	H 	0.476	0.9162	0.3284	0.081
Mof_H 	H 	0.3902	0.9193	0.4293	-0.01
Mof_H 	H 	0.4138	0.8462	0.4062	0.08
Mof_H 	H 	0.7192	0.8135	0.1218	-0.013
Mof_H 	H 	0.6341	0.8525	0.0839	0.078
Mof_H 	H 	0.4807	0.7901	0.1677	-0.012
Mof_H 	H 	0.388	0.8306	0.1315	0.085
Mof_H 	H 	0.04	0.9246	0.12	-0.007
Mof_H 	H 	0.1994	0.9002	0.1134	0.099
Mof_H 	H 	0.0197	0.9637	0.0345	-0.004
Mof_H 	H 	0.1768	0.9369	0.0251	0.09
Mof_H 	H 	0.4521	0.9724	0.9419	-0.013
Mof_H 	H 	0.3732	0.9517	0.9866	0.091
Mof_H 	H 	0.7015	0.9268	0.9746	-0.003
Mof_H 	H 	0.6292	0.9058	0.02	0.08
Mof_H 	H 	0.6205	0.8468	0.93	-0.012
Mof_H 	H 	0.5889	0.7731	0.9085	0.077
Mof_H 	H 	0.5575	0.9136	0.8539	-0.01
Mof_H 	H 	0.5295	0.8421	0.8295	0.078
Mof_H 	H 	0.4327	0.7957	0.7217	0.005
Mof_H 	H 	0.4977	0.7896	0.7705	0.078
Mof_H 	H 	0.3581	0.6602	0.7221	-0.009
Mof_H 	H 	0.4265	0.6484	0.7701	0.078
Mof_H 	H 	0.554	0.5126	0.8535	-0.011
Mof_H 	H 	0.524	0.5838	0.8284	0.081
Mof_H 	H 	0.6098	0.5807	0.9293	-0.01
Mof_H 	H 	0.5862	0.6538	0.9062	0.08
Mof_C 	C 	0.849	0.3165	0.87633	0.073
Mof_C 	C 	0.8993	0.3401	0.89899	-0.113
Mof_C 	C 	0.988	0.3032	0.84955	0.073
Mof_C 	C 	0.0442	0.3271	0.87114	-0.12
Mof_C 	C 	0.9987	0.3454	0.89644	0.061
Mof_C 	C 	0.0532	0.3709	0.92	0.103
Mof_C 	C 	0.4313	0.4276	0.89944	0.079
Mof_C 	C 	0.3364	0.4128	0.90313	-0.131
Mof_C 	C 	0.4437	0.45	0.94948	0.068
Mof_C 	C 	0.3497	0.4349	0.95511	-0.122
Mof_C 	C 	0.2953	0.4168	0.93143	0.054
Mof_C 	C 	0.1915	0.404	0.93649	0.091
Mof_C 	C 	0.0123	0.4576	0.04232	0.064
Mof_C 	C 	0.0595	0.4457	0.01566	-0.121
Mof_C 	C 	0.8664	0.431	0.02317	0.067
Mof_C 	C 	0.9087	0.4185	0.99599	-0.116
Mof_C 	C 	0.0076	0.4251	0.99255	0.055
Mof_C 	C 	0.0576	0.4096	0.96451	0.096
Mof_C 	C 	0.8981	0.3455	0.09071	0.068
Mof_C 	C 	0.9159	0.3014	0.10331	-0.116
Mof_C 	C 	0.9341	0.3847	0.13517	0.055
Mof_C 	C 	0.9516	0.3424	0.14985	-0.111
Mof_C 	C 	0.9412	0.2995	0.13369	0.047
Mof_C 	C 	0.9571	0.2534	0.14971	0.106
Mof_C 	C 	0.0697	0.2659	0.26804	0.053
Mof_C 	C 	0.0302	0.2625	0.23907	-0.104
Mof_C 	C 	0.1126	0.1865	0.26792	0.063
Mof_C 	C 	0.073	0.1791	0.23909	-0.109
Mof_C 	C 	0.0326	0.2185	0.2244	0.043
Mof_C 	C 	0.9974	0.2149	0.19257	0.107
Mof_C 	C 	0.9398	0.0418	0.13575	0.073
Mof_C 	C 	0.9569	0.084	0.15097	-0.115
Mof_C 	C 	0.9066	0.0815	0.09154	0.073
Mof_C 	C 	0.921	0.1252	0.10514	-0.115
Mof_C 	C 	0.9457	0.1271	0.13526	0.055
Mof_C 	C 	0.9593	0.1737	0.15082	0.103
Mof_C 	C 	0.151	0.1835	0.37633	0.072
Mof_C 	C 	0.1007	0.1599	0.39899	-0.111
Mof_C 	C 	0.012	0.1968	0.34955	0.069
Mof_C 	C 	0.9558	0.1729	0.37114	-0.115
Mof_C 	C 	0.0013	0.1546	0.39644	0.057
Mof_C 	C 	0.9468	0.1291	0.42	0.105
Mof_C 	C 	0.5687	0.0724	0.39944	0.079
Mof_C 	C 	0.6636	0.0872	0.40313	-0.131
Mof_C 	C 	0.5563	0.05	0.44948	0.068
Mof_C 	C 	0.6503	0.0651	0.45511	-0.122
Mof_C 	C 	0.7047	0.0832	0.43143	0.054
Mof_C 	C 	0.8085	0.096	0.43649	0.091
Mof_C 	C 	0.9877	0.0424	0.54232	0.066
Mof_C 	C 	0.9405	0.0543	0.51566	-0.122
Mof_C 	C 	0.1336	0.069	0.52317	0.068
Mof_C 	C 	0.0913	0.0815	0.49599	-0.118
Mof_C 	C 	0.9924	0.0749	0.49255	0.057
Mof_C 	C 	0.9424	0.0904	0.46451	0.095
Mof_C 	C 	0.1019	0.1545	0.59071	0.067
Mof_C 	C 	0.0841	0.1986	0.60331	-0.116
Mof_C 	C 	0.0659	0.1153	0.63517	0.055
Mof_C 	C 	0.0484	0.1576	0.64985	-0.111
Mof_C 	C 	0.0588	0.2005	0.63369	0.047
Mof_C 	C 	0.0429	0.2466	0.64971	0.106
Mof_C 	C 	0.9303	0.2341	0.76804	0.053
Mof_C 	C 	0.9698	0.2375	0.73907	-0.104
Mof_C 	C 	0.8874	0.3135	0.76792	0.063
Mof_C 	C 	0.927	0.3209	0.73909	-0.11
Mof_C 	C 	0.9674	0.2815	0.7244	0.044
Mof_C 	C 	0.0026	0.2851	0.69257	0.106
Mof_C 	C 	0.0602	0.4582	0.63575	0.073
Mof_C 	C 	0.0431	0.416	0.65097	-0.115
Mof_C 	C 	0.0934	0.4185	0.59154	0.073
Mof_C 	C 	0.079	0.3748	0.60514	-0.116
Mof_C 	C 	0.0543	0.3729	0.63526	0.055
Mof_C 	C 	0.0407	0.3263	0.65082	0.103
Mof_C 	C 	0.349	0.6835	0.62367	0.073
Mof_C 	C 	0.3993	0.6599	0.60101	-0.113
Mof_C 	C 	0.488	0.6968	0.65045	0.072
Mof_C 	C 	0.5442	0.6729	0.62886	-0.119
Mof_C 	C 	0.4987	0.6546	0.60356	0.061
Mof_C 	C 	0.5532	0.6291	0.58	0.103
Mof_C 	C 	0.9313	0.5724	0.60056	0.079
Mof_C 	C 	0.8364	0.5872	0.59687	-0.131
Mof_C 	C 	0.9437	0.55	0.55052	0.068
Mof_C 	C 	0.8497	0.5651	0.54489	-0.122
Mof_C 	C 	0.7953	0.5832	0.56857	0.054
Mof_C 	C 	0.6915	0.596	0.56351	0.091
Mof_C 	C 	0.5123	0.5424	0.45768	0.065
Mof_C 	C 	0.5595	0.5543	0.48434	-0.121
Mof_C 	C 	0.3664	0.569	0.47683	0.067
Mof_C 	C 	0.4087	0.5815	0.50401	-0.116
Mof_C 	C 	0.5076	0.5749	0.50745	0.055
Mof_C 	C 	0.5576	0.5904	0.53549	0.096
Mof_C 	C 	0.3981	0.6545	0.40929	0.068
Mof_C 	C 	0.4159	0.6986	0.39669	-0.116
Mof_C 	C 	0.4341	0.6153	0.36483	0.055
Mof_C 	C 	0.4516	0.6576	0.35015	-0.11
Mof_C 	C 	0.4412	0.7005	0.36631	0.047
Mof_C 	C 	0.4571	0.7466	0.35029	0.106
Mof_C 	C 	0.5697	0.7341	0.23196	0.053
Mof_C 	C 	0.5302	0.7375	0.26093	-0.104
Mof_C 	C 	0.6126	0.8135	0.23208	0.063
Mof_C 	C 	0.573	0.8209	0.26091	-0.11
Mof_C 	C 	0.5326	0.7815	0.2756	0.044
Mof_C 	C 	0.4974	0.7851	0.30743	0.107
Mof_C 	C 	0.4398	0.9582	0.36425	0.073
Mof_C 	C 	0.4569	0.916	0.34903	-0.115
Mof_C 	C 	0.4066	0.9185	0.40846	0.073
Mof_C 	C 	0.421	0.8748	0.39486	-0.115
Mof_C 	C 	0.4457	0.8729	0.36474	0.055
Mof_C 	C 	0.4593	0.8263	0.34918	0.103
Mof_C 	C 	0.651	0.8165	0.12367	0.073
Mof_C 	C 	0.6007	0.8401	0.10101	-0.113
Mof_C 	C 	0.512	0.8032	0.15045	0.072
Mof_C 	C 	0.4558	0.8271	0.12886	-0.119
Mof_C 	C 	0.5013	0.8454	0.10356	0.061
Mof_C 	C 	0.4468	0.8709	0.08	0.103
Mof_C 	C 	0.0687	0.9276	0.10056	0.079
Mof_C 	C 	0.1636	0.9128	0.09687	-0.131
Mof_C 	C 	0.0563	0.95	0.05052	0.068
Mof_C 	C 	0.1503	0.9349	0.04489	-0.122
Mof_C 	C 	0.2047	0.9168	0.06857	0.054
Mof_C 	C 	0.3085	0.904	0.06351	0.091
Mof_C 	C 	0.4877	0.9576	0.95768	0.065
Mof_C 	C 	0.4405	0.9457	0.98434	-0.121
Mof_C 	C 	0.6336	0.931	0.97683	0.067
Mof_C 	C 	0.5913	0.9185	0.00401	-0.116
Mof_C 	C 	0.4924	0.9251	0.00745	0.055
Mof_C 	C 	0.4424	0.9096	0.03549	0.096
Mof_C 	C 	0.6019	0.8455	0.90929	0.067
Mof_C 	C 	0.5841	0.8014	0.89669	-0.116
Mof_C 	C 	0.5659	0.8847	0.86483	0.055
Mof_C 	C 	0.5484	0.8424	0.85015	-0.11
Mof_C 	C 	0.5588	0.7995	0.86631	0.047
Mof_C 	C 	0.5429	0.7534	0.85029	0.106
Mof_C 	C 	0.4303	0.7659	0.73196	0.053
Mof_C 	C 	0.4698	0.7625	0.76093	-0.104
Mof_C 	C 	0.3874	0.6865	0.73208	0.063
Mof_C 	C 	0.427	0.6791	0.76091	-0.11
Mof_C 	C 	0.4674	0.7185	0.7756	0.044
Mof_C 	C 	0.5026	0.7149	0.80743	0.107
Mof_C 	C 	0.5602	0.5418	0.86425	0.073
Mof_C 	C 	0.5431	0.584	0.84903	-0.115
Mof_C 	C 	0.5934	0.5815	0.90846	0.073
Mof_C 	C 	0.579	0.6252	0.89486	-0.116
Mof_C 	C 	0.5543	0.6271	0.86474	0.055
Mof_C 	C 	0.5407	0.6737	0.84918	0.103
Mof_I 	I 	0.67698	0.44613	0.08574	-0.38
Mof_I 	I 	0.9455	0.5163	0.1197	-0.365
Mof_I 	I 	0.81355	0.17264	0.83402	-0.371
Mof_I 	I 	0.64891	0.30354	0.81527	-0.372
Mof_I 	I 	0.70143	0.42642	0.87313	-0.371
Mof_I 	I 	0.69517	0.49178	0.96528	-0.391
Mof_I 	I 	0.32302	0.05387	0.58574	-0.38
Mof_I 	I 	0.0545	0.9837	0.6197	-0.364
Mof_I 	I 	0.18645	0.32736	0.33402	-0.371
Mof_I 	I 	0.35109	0.19646	0.31527	-0.372
Mof_I 	I 	0.29857	0.07358	0.37313	-0.371
Mof_I 	I 	0.30483	0.00822	0.46528	-0.391
Mof_I 	I 	0.17698	0.55387	0.41426	-0.38
Mof_I 	I 	0.4455	0.4837	0.3803	-0.365
Mof_I 	I 	0.31355	0.82736	0.66598	-0.371
Mof_I 	I 	0.14891	0.69646	0.68473	-0.371
Mof_I 	I 	0.20143	0.57358	0.62687	-0.371
Mof_I 	I 	0.19517	0.50822	0.53472	-0.391
Mof_I 	I 	0.82302	0.94613	0.91426	-0.381
Mof_I 	I 	0.5545	0.0163	0.8803	-0.365
Mof_I 	I 	0.68645	0.67264	0.16598	-0.371
Mof_I 	I 	0.85109	0.80354	0.18473	-0.372
Mof_I 	I 	0.79857	0.92642	0.12687	-0.371
Mof_I 	I 	0.80483	0.99178	0.03472	-0.391
Mof_N 	N 	0.8918	0.2979	0.85214	-0.276
Mof_N 	N 	0.4843	0.44591	0.9218	-0.271
Mof_N 	N 	0.917	0.44865	0.04649	-0.274
Mof_N 	N 	0.1486	0.3778	0.91507	-0.133
Mof_N 	N 	0.151	0.4204	0.96144	-0.144
Mof_N 	N 	0.0047	0.38542	0.9442	-0.14
Mof_N 	N 	0.9053	0.38717	0.10606	-0.272
Mof_N 	N 	0.1111	0.2285	0.28192	-0.27
Mof_N 	N 	0.9148	0.04023	0.10658	-0.269
Mof_N 	N 	0.9834	0.2568	0.17867	-0.142
Mof_N 	N 	0.9866	0.17235	0.1801	-0.14
Mof_N 	N 	0.9437	0.21291	0.1348	-0.142
Mof_N 	N 	0.1082	0.2021	0.35214	-0.275
Mof_N 	N 	0.5157	0.05409	0.4218	-0.271
Mof_N 	N 	0.083	0.05135	0.54649	-0.274
Mof_N 	N 	0.8514	0.1222	0.41507	-0.134
Mof_N 	N 	0.849	0.0796	0.46144	-0.144
Mof_N 	N 	0.9953	0.11458	0.4442	-0.14
Mof_N 	N 	0.0947	0.11283	0.60606	-0.273
Mof_N 	N 	0.8889	0.2715	0.78192	-0.27
Mof_N 	N 	0.0852	0.45977	0.60658	-0.269
Mof_N 	N 	0.0166	0.2432	0.67867	-0.142
Mof_N 	N 	0.0134	0.32765	0.6801	-0.14
Mof_N 	N 	0.0563	0.28709	0.6348	-0.142
Mof_N 	N 	0.3918	0.7021	0.64786	-0.276
Mof_N 	N 	0.9843	0.55409	0.5782	-0.271
Mof_N 	N 	0.417	0.55135	0.45351	-0.274
Mof_N 	N 	0.6486	0.6222	0.58493	-0.133
Mof_N 	N 	0.651	0.5796	0.53856	-0.144
Mof_N 	N 	0.5047	0.61458	0.5558	-0.14
Mof_N 	N 	0.4053	0.61283	0.39394	-0.272
Mof_N 	N 	0.6111	0.7715	0.21808	-0.27
Mof_N 	N 	0.4148	0.95977	0.39342	-0.269
Mof_N 	N 	0.4834	0.7432	0.32133	-0.142
Mof_N 	N 	0.4866	0.82765	0.3199	-0.14
Mof_N 	N 	0.4437	0.78709	0.3652	-0.142
Mof_N 	N 	0.6082	0.7979	0.14786	-0.276
Mof_N 	N 	0.0157	0.94591	0.0782	-0.271
Mof_N 	N 	0.583	0.94865	0.95351	-0.274
Mof_N 	N 	0.3514	0.8778	0.08493	-0.133
Mof_N 	N 	0.349	0.9204	0.03856	-0.144
Mof_N 	N 	0.4953	0.88542	0.0558	-0.14
Mof_N 	N 	0.5947	0.88717	0.89394	-0.272
Mof_N 	N 	0.3889	0.7285	0.71808	-0.27
Mof_N 	N 	0.5852	0.54023	0.89342	-0.269
Mof_N 	N 	0.5166	0.7568	0.82133	-0.142
Mof_N 	N 	0.5134	0.67235	0.8199	-0.14
Mof_N 	N 	0.5563	0.71291	0.8652	-0.142
_end
