data_functionalizedCrystal
_audit_creation_method	'EQeq! by Chris Wilmer'
_symmetry_space_group_name_H-M	'P1'
_symmetry_Int_Tables_number	1
_symmetry_cell_setting	triclinic
loop_
_symmetry_equiv_pos_as_xyz
  x,y,z
_cell_length_a	25.914
_cell_length_b	25.914
_cell_length_c	6.7986
_cell_angle_alpha	90
_cell_angle_beta	90
_cell_angle_gamma	120
loop_
_atom_site_label
_atom_site_type_symbol
_atom_site_fract_x
_atom_site_fract_y
_atom_site_fract_z
_atom_site_charge
Mof_Zn	Zn	0.3836	0.3546	0.1436	1.224
Mof_O 	O 	0.3281	0.2966	0.3751	-0.585
Mof_O 	O 	0.3001	0.2267	0.6112	-0.483
Mof_O 	O 	0.3537	0.2743	0.0166	-0.564
Mof_C 	C 	0.3157	0.2448	0.4339	0.393
Mof_C 	C 	0.327	0.2064	0.2837	-0.161
Mof_C 	C 	0.3431	0.2212	0.0919	0.226
Mof_C 	C 	0.3525	0.1841	0.9644	-0.142
Mof_H 	H 	0.3609	0.191	0.835	0.099
Mof_Zn	Zn	0.05027	0.68793	0.47693	1.223
Mof_O 	O 	0.99477	0.62993	0.70843	-0.586
Mof_O 	O 	0.96677	0.56003	0.94453	-0.484
Mof_O 	O 	0.02037	0.60763	0.34993	-0.565
Mof_C 	C 	0.98237	0.57813	0.76723	0.392
Mof_C 	C 	0.99367	0.53973	0.61703	-0.162
Mof_C 	C 	0.00977	0.55453	0.42523	0.226
Mof_C 	C 	0.01917	0.51743	0.29773	-0.143
Mof_H 	H 	0.02757	0.52433	0.16833	0.099
Mof_Zn	Zn	0.71693	0.02127	0.81027	1.223
Mof_O 	O 	0.66143	0.96327	0.04177	-0.586
Mof_O 	O 	0.63343	0.89337	0.27787	-0.485
Mof_O 	O 	0.68703	0.94097	0.68327	-0.565
Mof_C 	C 	0.64903	0.91147	0.10057	0.392
Mof_C 	C 	0.66033	0.87307	0.95037	-0.164
Mof_C 	C 	0.67643	0.88787	0.75857	0.227
Mof_C 	C 	0.68583	0.85077	0.63107	-0.143
Mof_H 	H 	0.69423	0.85767	0.50167	0.099
Mof_Zn	Zn	0.6454	0.029	0.1436	1.223
Mof_O 	O 	0.7034	0.0315	0.3751	-0.586
Mof_O 	O 	0.7733	0.0734	0.6112	-0.484
Mof_O 	O 	0.7257	0.0794	0.0166	-0.565
Mof_C 	C 	0.7552	0.0709	0.4339	0.391
Mof_C 	C 	0.7936	0.1206	0.2837	-0.162
Mof_C 	C 	0.7788	0.1219	0.0919	0.225
Mof_C 	C 	0.8159	0.1684	0.9644	-0.14
Mof_H 	H 	0.809	0.1699	0.835	0.098
Mof_Zn	Zn	0.31207	0.36233	0.47693	1.223
Mof_O 	O 	0.37007	0.36483	0.70843	-0.586
Mof_O 	O 	0.43997	0.40673	0.94453	-0.485
Mof_O 	O 	0.39237	0.41273	0.34993	-0.565
Mof_C 	C 	0.42187	0.40423	0.76723	0.392
Mof_C 	C 	0.46027	0.45393	0.61703	-0.162
Mof_C 	C 	0.44547	0.45523	0.42523	0.226
Mof_C 	C 	0.48257	0.50173	0.29773	-0.143
Mof_H 	H 	0.47567	0.50323	0.16833	0.099
Mof_Zn	Zn	0.97873	0.69567	0.81027	1.223
Mof_O 	O 	0.03673	0.69817	0.04177	-0.586
Mof_O 	O 	0.10663	0.74007	0.27787	-0.485
Mof_O 	O 	0.05903	0.74607	0.68327	-0.565
Mof_C 	C 	0.08853	0.73757	0.10057	0.393
Mof_C 	C 	0.12693	0.78727	0.95037	-0.165
Mof_C 	C 	0.11213	0.78857	0.75857	0.227
Mof_C 	C 	0.14923	0.83507	0.63107	-0.144
Mof_H 	H 	0.14233	0.83657	0.50167	0.1
Mof_Zn	Zn	0.971	0.6164	0.1436	1.223
Mof_O 	O 	0.9685	0.6719	0.3751	-0.586
Mof_O 	O 	0.9266	0.6999	0.6112	-0.484
Mof_O 	O 	0.9206	0.6463	0.0166	-0.565
Mof_C 	C 	0.9291	0.6843	0.4339	0.392
Mof_C 	C 	0.8794	0.673	0.2837	-0.162
Mof_C 	C 	0.8781	0.6569	0.0919	0.226
Mof_C 	C 	0.8316	0.6475	0.9644	-0.142
Mof_H 	H 	0.8301	0.6391	0.835	0.099
Mof_Zn	Zn	0.63767	0.94973	0.47693	1.223
Mof_O 	O 	0.63517	0.00523	0.70843	-0.586
Mof_O 	O 	0.59327	0.03323	0.94453	-0.484
Mof_O 	O 	0.58727	0.97963	0.34993	-0.565
Mof_C 	C 	0.59577	0.01763	0.76723	0.392
Mof_C 	C 	0.54607	0.00633	0.61703	-0.162
Mof_C 	C 	0.54477	0.99023	0.42523	0.226
Mof_C 	C 	0.49827	0.98083	0.29773	-0.143
Mof_H 	H 	0.49677	0.97243	0.16833	0.099
Mof_Zn	Zn	0.30433	0.28307	0.81027	1.223
Mof_O 	O 	0.30183	0.33857	0.04177	-0.586
Mof_O 	O 	0.25993	0.36657	0.27787	-0.484
Mof_O 	O 	0.25393	0.31297	0.68327	-0.565
Mof_C 	C 	0.26243	0.35097	0.10057	0.392
Mof_C 	C 	0.21273	0.33967	0.95037	-0.163
Mof_C 	C 	0.21143	0.32357	0.75857	0.227
Mof_C 	C 	0.16493	0.31417	0.63107	-0.143
Mof_H 	H 	0.16343	0.30577	0.50167	0.099
Mof_Zn	Zn	0.6164	0.6454	0.8564	1.223
Mof_O 	O 	0.6719	0.7034	0.6249	-0.586
Mof_O 	O 	0.6999	0.7733	0.3888	-0.484
Mof_O 	O 	0.6463	0.7257	0.9834	-0.565
Mof_C 	C 	0.6843	0.7552	0.5661	0.392
Mof_C 	C 	0.673	0.7936	0.7163	-0.162
Mof_C 	C 	0.6569	0.7788	0.9081	0.226
Mof_C 	C 	0.6475	0.8159	0.0356	-0.142
Mof_H 	H 	0.6391	0.809	0.165	0.099
Mof_Zn	Zn	0.28307	0.97873	0.18973	1.223
Mof_O 	O 	0.33857	0.03673	0.95823	-0.586
Mof_O 	O 	0.36657	0.10663	0.72213	-0.485
Mof_O 	O 	0.31297	0.05903	0.31673	-0.565
Mof_C 	C 	0.35097	0.08853	0.89943	0.392
Mof_C 	C 	0.33967	0.12693	0.04963	-0.164
Mof_C 	C 	0.32357	0.11213	0.24143	0.227
Mof_C 	C 	0.31417	0.14923	0.36893	-0.143
Mof_H 	H 	0.30577	0.14233	0.49833	0.099
Mof_Zn	Zn	0.94973	0.31207	0.52307	1.223
Mof_O 	O 	0.00523	0.37007	0.29157	-0.586
Mof_O 	O 	0.03323	0.43997	0.05547	-0.484
Mof_O 	O 	0.97963	0.39237	0.65007	-0.565
Mof_C 	C 	0.01763	0.42187	0.23277	0.392
Mof_C 	C 	0.00633	0.46027	0.38297	-0.162
Mof_C 	C 	0.99023	0.44547	0.57477	0.226
Mof_C 	C 	0.98083	0.48257	0.70227	-0.143
Mof_H 	H 	0.97243	0.47567	0.83167	0.099
Mof_Zn	Zn	0.3546	0.971	0.8564	1.223
Mof_O 	O 	0.2966	0.9685	0.6249	-0.586
Mof_O 	O 	0.2267	0.9266	0.3888	-0.484
Mof_O 	O 	0.2743	0.9206	0.9834	-0.565
Mof_C 	C 	0.2448	0.9291	0.5661	0.391
Mof_C 	C 	0.2064	0.8794	0.7163	-0.162
Mof_C 	C 	0.2212	0.8781	0.9081	0.225
Mof_C 	C 	0.1841	0.8316	0.0356	-0.14
Mof_H 	H 	0.191	0.8301	0.165	0.098
Mof_Zn	Zn	0.02127	0.30433	0.18973	1.223
Mof_O 	O 	0.96327	0.30183	0.95823	-0.586
Mof_O 	O 	0.89337	0.25993	0.72213	-0.485
Mof_O 	O 	0.94097	0.25393	0.31673	-0.565
Mof_C 	C 	0.91147	0.26243	0.89943	0.393
Mof_C 	C 	0.87307	0.21273	0.04963	-0.165
Mof_C 	C 	0.88787	0.21143	0.24143	0.227
Mof_C 	C 	0.85077	0.16493	0.36893	-0.144
Mof_H 	H 	0.85767	0.16343	0.49833	0.1
Mof_Zn	Zn	0.68793	0.63767	0.52307	1.223
Mof_O 	O 	0.62993	0.63517	0.29157	-0.586
Mof_O 	O 	0.56003	0.59327	0.05547	-0.485
Mof_O 	O 	0.60763	0.58727	0.65007	-0.565
Mof_C 	C 	0.57813	0.59577	0.23277	0.392
Mof_C 	C 	0.53973	0.54607	0.38297	-0.162
Mof_C 	C 	0.55453	0.54477	0.57477	0.226
Mof_C 	C 	0.51743	0.49827	0.70227	-0.143
Mof_H 	H 	0.52433	0.49677	0.83167	0.099
Mof_Zn	Zn	0.029	0.3836	0.8564	1.223
Mof_O 	O 	0.0315	0.3281	0.6249	-0.586
Mof_O 	O 	0.0734	0.3001	0.3888	-0.484
Mof_O 	O 	0.0794	0.3537	0.9834	-0.565
Mof_C 	C 	0.0709	0.3157	0.5661	0.392
Mof_C 	C 	0.1206	0.327	0.7163	-0.162
Mof_C 	C 	0.1219	0.3431	0.9081	0.226
Mof_C 	C 	0.1684	0.3525	0.0356	-0.142
Mof_H 	H 	0.1699	0.3609	0.165	0.099
Mof_Zn	Zn	0.69567	0.71693	0.18973	1.223
Mof_O 	O 	0.69817	0.66143	0.95823	-0.586
Mof_O 	O 	0.74007	0.63343	0.72213	-0.484
Mof_O 	O 	0.74607	0.68703	0.31673	-0.565
Mof_C 	C 	0.73757	0.64903	0.89943	0.392
Mof_C 	C 	0.78727	0.66033	0.04963	-0.163
Mof_C 	C 	0.78857	0.67643	0.24143	0.227
Mof_C 	C 	0.83507	0.68583	0.36893	-0.143
Mof_H 	H 	0.83657	0.69423	0.49833	0.099
Mof_Zn	Zn	0.36233	0.05027	0.52307	1.223
Mof_O 	O 	0.36483	0.99477	0.29157	-0.586
Mof_O 	O 	0.40673	0.96677	0.05547	-0.484
Mof_O 	O 	0.41273	0.02037	0.65007	-0.565
Mof_C 	C 	0.40423	0.98237	0.23277	0.392
Mof_C 	C 	0.45393	0.99367	0.38297	-0.162
Mof_C 	C 	0.45523	0.00977	0.57477	0.226
Mof_C 	C 	0.50173	0.01917	0.70227	-0.143
Mof_H 	H 	0.50323	0.02757	0.83167	0.099
_end
