data_functionalizedCrystal
_audit_creation_method	'EQeq! by Chris Wilmer'
_symmetry_space_group_name_H-M	'P1'
_symmetry_Int_Tables_number	1
_symmetry_cell_setting	triclinic
loop_
_symmetry_equiv_pos_as_xyz
  x,y,z
_cell_length_a	37.9569
_cell_length_b	37.9569
_cell_length_c	37.9569
_cell_angle_alpha	90
_cell_angle_beta	90
_cell_angle_gamma	90
loop_
_atom_site_label
_atom_site_type_symbol
_atom_site_fract_x
_atom_site_fract_y
_atom_site_fract_z
_atom_site_charge
Mof_Gd	Gd	0.24384	0.91137	0.25577	1.813
Mof_O 	O 	0.2426	0.8828	0.2011	-0.416
Mof_O 	O 	0.2552	0.9391	0.2017	-0.397
Mof_O 	O 	0.2996	0.8834	0.2592	-0.433
Mof_O 	O 	0.2997	0.9401	0.2664	-0.392
Mof_O 	O 	0.4121	0.8186	0.2613	-0.511
Mof_O 	O 	0.4621	0.8424	0.277	-0.49
Mof_O 	O 	0.2542	0.8186	0.0869	-0.535
Mof_O 	O 	0.2995	0.835	0.0577	-0.537
Mof_C 	C 	0.2524	0.9112	0.1831	0.292
Mof_C 	C 	0.2615	0.9094	0.1444	-0.096
Mof_C 	C 	0.2808	0.9391	0.1336	0.007
Mof_H 	H 	0.2836	0.9592	0.1483	0.058
Mof_C 	C 	0.2956	0.9375	0.0998	-0.053
Mof_C 	C 	0.2931	0.906	0.0809	0.058
Mof_H 	H 	0.3054	0.9046	0.0591	0.02
Mof_C 	C 	0.2741	0.8762	0.0916	-0.205
Mof_C 	C 	0.2591	0.8783	0.1251	0.076
Mof_H 	H 	0.2471	0.8585	0.1347	0.018
Mof_C 	C 	0.3148	0.9694	0.0858	0.114
Mof_C 	C 	0.3456	0.9684	0.0658	-0.131
Mof_H 	H 	0.3584	0.9472	0.0626	0.082
Mof_C 	C 	0.3153	0.9117	0.2672	0.339
Mof_C 	C 	0.354	0.9079	0.2727	-0.102
Mof_C 	C 	0.3733	0.8771	0.2681	0.077
Mof_H 	H 	0.3623	0.8571	0.2578	0.022
Mof_C 	C 	0.4085	0.8751	0.2782	-0.164
Mof_C 	C 	0.4235	0.9049	0.2935	0.04
Mof_H 	H 	0.4475	0.904	0.3008	0.032
Mof_C 	C 	0.4049	0.9361	0.2987	-0.045
Mof_C 	C 	0.3689	0.9376	0.292	0.013
Mof_H 	H 	0.3553	0.9603	0.2964	0.057
Mof_C 	C 	0.421	0.9708	0.3117	0.115
Mof_C 	C 	0.4549	0.9699	0.3255	-0.128
Mof_H 	H 	0.4698	0.9501	0.3226	0.081
Mof_C 	C 	0.4306	0.8425	0.2718	0.534
Mof_C 	C 	0.2757	0.8405	0.0779	0.548
Mof_O 	O 	0.2311	0.9719	0.2679	-0.6
Mof_Gd	Gd	0.74384	0.41137	0.75577	1.815
Mof_O 	O 	0.7426	0.3828	0.7011	-0.416
Mof_O 	O 	0.7552	0.4391	0.7017	-0.398
Mof_O 	O 	0.7996	0.3834	0.7592	-0.432
Mof_O 	O 	0.7997	0.4401	0.7664	-0.392
Mof_O 	O 	0.9121	0.3186	0.7613	-0.51
Mof_O 	O 	0.9621	0.3424	0.777	-0.483
Mof_O 	O 	0.7542	0.3186	0.5869	-0.535
Mof_O 	O 	0.7995	0.335	0.5577	-0.538
Mof_C 	C 	0.7524	0.4112	0.6831	0.294
Mof_C 	C 	0.7615	0.4094	0.6444	-0.095
Mof_C 	C 	0.7808	0.4391	0.6336	0.008
Mof_H 	H 	0.7836	0.4592	0.6483	0.057
Mof_C 	C 	0.7956	0.4375	0.5998	-0.053
Mof_C 	C 	0.7931	0.406	0.5809	0.06
Mof_H 	H 	0.8054	0.4046	0.5591	0.02
Mof_C 	C 	0.7741	0.3762	0.5916	-0.206
Mof_C 	C 	0.7591	0.3783	0.6251	0.076
Mof_H 	H 	0.7471	0.3585	0.6347	0.018
Mof_C 	C 	0.8148	0.4694	0.5858	0.111
Mof_C 	C 	0.8456	0.4684	0.5658	-0.144
Mof_H 	H 	0.8584	0.4472	0.5626	0.086
Mof_C 	C 	0.8153	0.4117	0.7672	0.339
Mof_C 	C 	0.854	0.4079	0.7727	-0.102
Mof_C 	C 	0.8733	0.3771	0.7681	0.077
Mof_H 	H 	0.8623	0.3571	0.7578	0.022
Mof_C 	C 	0.9085	0.3751	0.7782	-0.163
Mof_C 	C 	0.9235	0.4049	0.7935	0.039
Mof_H 	H 	0.9475	0.404	0.8008	0.034
Mof_C 	C 	0.9049	0.4361	0.7987	-0.044
Mof_C 	C 	0.8689	0.4376	0.792	0.012
Mof_H 	H 	0.8553	0.4603	0.7964	0.055
Mof_C 	C 	0.921	0.4708	0.8117	0.112
Mof_C 	C 	0.9549	0.4699	0.8255	-0.138
Mof_H 	H 	0.9698	0.4501	0.8226	0.085
Mof_C 	C 	0.9306	0.3425	0.7718	0.532
Mof_C 	C 	0.7757	0.3405	0.5779	0.549
Mof_O 	O 	0.7311	0.4719	0.7679	-0.611
Mof_Gd	Gd	0.75616	0.08863	0.25577	1.813
Mof_O 	O 	0.7574	0.1172	0.2011	-0.415
Mof_O 	O 	0.7448	0.0609	0.2017	-0.399
Mof_O 	O 	0.7004	0.1166	0.2592	-0.432
Mof_O 	O 	0.7003	0.0599	0.2664	-0.394
Mof_O 	O 	0.5879	0.1814	0.2613	-0.511
Mof_O 	O 	0.5379	0.1576	0.277	-0.489
Mof_O 	O 	0.7458	0.1814	0.0869	-0.534
Mof_O 	O 	0.7005	0.165	0.0577	-0.536
Mof_C 	C 	0.7476	0.0888	0.1831	0.294
Mof_C 	C 	0.7385	0.0906	0.1444	-0.096
Mof_C 	C 	0.7192	0.0609	0.1336	0.008
Mof_H 	H 	0.7164	0.0408	0.1483	0.055
Mof_C 	C 	0.7044	0.0625	0.0998	-0.053
Mof_C 	C 	0.7069	0.094	0.0809	0.059
Mof_H 	H 	0.6946	0.0954	0.0591	0.019
Mof_C 	C 	0.7259	0.1238	0.0916	-0.206
Mof_C 	C 	0.7409	0.1217	0.1251	0.076
Mof_H 	H 	0.7529	0.1415	0.1347	0.018
Mof_C 	C 	0.6852	0.0306	0.0858	0.107
Mof_C 	C 	0.6544	0.0316	0.0658	-0.139
Mof_H 	H 	0.6416	0.0528	0.0626	0.082
Mof_C 	C 	0.6847	0.0883	0.2672	0.34
Mof_C 	C 	0.646	0.0921	0.2727	-0.103
Mof_C 	C 	0.6267	0.1229	0.2681	0.078
Mof_H 	H 	0.6377	0.1429	0.2578	0.022
Mof_C 	C 	0.5915	0.1249	0.2782	-0.165
Mof_C 	C 	0.5765	0.0951	0.2935	0.04
Mof_H 	H 	0.5525	0.096	0.3008	0.032
Mof_C 	C 	0.5951	0.0639	0.2987	-0.046
Mof_C 	C 	0.6311	0.0624	0.292	0.012
Mof_H 	H 	0.6447	0.0397	0.2964	0.054
Mof_C 	C 	0.579	0.0292	0.3117	0.109
Mof_C 	C 	0.5451	0.0301	0.3255	-0.137
Mof_H 	H 	0.5302	0.0499	0.3226	0.082
Mof_C 	C 	0.5694	0.1575	0.2718	0.534
Mof_C 	C 	0.7243	0.1595	0.0779	0.548
Mof_O 	O 	0.7689	0.0281	0.2679	-0.607
Mof_Gd	Gd	0.25616	0.58863	0.75577	1.815
Mof_O 	O 	0.2574	0.6172	0.7011	-0.416
Mof_O 	O 	0.2448	0.5609	0.7017	-0.398
Mof_O 	O 	0.2004	0.6166	0.7592	-0.433
Mof_O 	O 	0.2003	0.5599	0.7664	-0.393
Mof_O 	O 	0.0879	0.6814	0.7613	-0.511
Mof_O 	O 	0.0379	0.6576	0.777	-0.489
Mof_O 	O 	0.2458	0.6814	0.5869	-0.535
Mof_O 	O 	0.2005	0.665	0.5577	-0.538
Mof_C 	C 	0.2476	0.5888	0.6831	0.294
Mof_C 	C 	0.2385	0.5906	0.6444	-0.095
Mof_C 	C 	0.2192	0.5609	0.6336	0.008
Mof_H 	H 	0.2164	0.5408	0.6483	0.057
Mof_C 	C 	0.2044	0.5625	0.5998	-0.053
Mof_C 	C 	0.2069	0.594	0.5809	0.06
Mof_H 	H 	0.1946	0.5954	0.5591	0.02
Mof_C 	C 	0.2259	0.6238	0.5916	-0.206
Mof_C 	C 	0.2409	0.6217	0.6251	0.076
Mof_H 	H 	0.2529	0.6415	0.6347	0.018
Mof_C 	C 	0.1852	0.5306	0.5858	0.111
Mof_C 	C 	0.1544	0.5316	0.5658	-0.144
Mof_H 	H 	0.1416	0.5528	0.5626	0.085
Mof_C 	C 	0.1847	0.5883	0.7672	0.34
Mof_C 	C 	0.146	0.5921	0.7727	-0.103
Mof_C 	C 	0.1267	0.6229	0.7681	0.078
Mof_H 	H 	0.1377	0.6429	0.7578	0.022
Mof_C 	C 	0.0915	0.6249	0.7782	-0.165
Mof_C 	C 	0.0765	0.5951	0.7935	0.041
Mof_H 	H 	0.0525	0.596	0.8008	0.031
Mof_C 	C 	0.0951	0.5639	0.7987	-0.047
Mof_C 	C 	0.1311	0.5624	0.792	0.013
Mof_H 	H 	0.1447	0.5397	0.7964	0.055
Mof_C 	C 	0.079	0.5292	0.8117	0.113
Mof_C 	C 	0.0451	0.5301	0.8255	-0.145
Mof_H 	H 	0.0302	0.5499	0.8226	0.083
Mof_C 	C 	0.0694	0.6575	0.7718	0.534
Mof_C 	C 	0.2243	0.6595	0.5779	0.549
Mof_O 	O 	0.2689	0.5281	0.7679	-0.611
Mof_Gd	Gd	0.75616	0.91137	0.74423	1.814
Mof_O 	O 	0.7574	0.8828	0.7989	-0.415
Mof_O 	O 	0.7448	0.9391	0.7983	-0.396
Mof_O 	O 	0.7004	0.8834	0.7408	-0.432
Mof_O 	O 	0.7003	0.9401	0.7336	-0.391
Mof_O 	O 	0.5879	0.8186	0.7387	-0.51
Mof_O 	O 	0.5379	0.8424	0.723	-0.489
Mof_O 	O 	0.7458	0.8186	0.9131	-0.533
Mof_O 	O 	0.7005	0.835	0.9423	-0.533
Mof_C 	C 	0.7476	0.9112	0.8169	0.293
Mof_C 	C 	0.7385	0.9094	0.8556	-0.093
Mof_C 	C 	0.7192	0.9391	0.8664	0.008
Mof_H 	H 	0.7164	0.9592	0.8517	0.059
Mof_C 	C 	0.7044	0.9375	0.9002	-0.05
Mof_C 	C 	0.7069	0.906	0.9191	0.058
Mof_H 	H 	0.6946	0.9046	0.9409	0.023
Mof_C 	C 	0.7259	0.8762	0.9084	-0.202
Mof_C 	C 	0.7409	0.8783	0.8749	0.075
Mof_H 	H 	0.7529	0.8585	0.8653	0.019
Mof_C 	C 	0.6852	0.9694	0.9142	0.114
Mof_C 	C 	0.6544	0.9684	0.9342	-0.129
Mof_H 	H 	0.6416	0.9472	0.9374	0.083
Mof_C 	C 	0.6847	0.9117	0.7328	0.339
Mof_C 	C 	0.646	0.9079	0.7273	-0.102
Mof_C 	C 	0.6267	0.8771	0.7319	0.077
Mof_H 	H 	0.6377	0.8571	0.7422	0.022
Mof_C 	C 	0.5915	0.8751	0.7218	-0.164
Mof_C 	C 	0.5765	0.9049	0.7065	0.04
Mof_H 	H 	0.5525	0.904	0.6992	0.032
Mof_C 	C 	0.5951	0.9361	0.7013	-0.045
Mof_C 	C 	0.6311	0.9376	0.708	0.013
Mof_H 	H 	0.6447	0.9603	0.7036	0.057
Mof_C 	C 	0.579	0.9708	0.6883	0.115
Mof_C 	C 	0.5451	0.9699	0.6745	-0.128
Mof_H 	H 	0.5302	0.9501	0.6774	0.081
Mof_C 	C 	0.5694	0.8425	0.7282	0.534
Mof_C 	C 	0.7243	0.8405	0.9221	0.548
Mof_O 	O 	0.7689	0.9719	0.7321	-0.6
Mof_Gd	Gd	0.25616	0.41137	0.24423	1.815
Mof_O 	O 	0.2574	0.3828	0.2989	-0.415
Mof_O 	O 	0.2448	0.4391	0.2983	-0.398
Mof_O 	O 	0.2004	0.3834	0.2408	-0.433
Mof_O 	O 	0.2003	0.4401	0.2336	-0.393
Mof_O 	O 	0.0879	0.3186	0.2387	-0.51
Mof_O 	O 	0.0379	0.3424	0.223	-0.489
Mof_O 	O 	0.2458	0.3186	0.4131	-0.534
Mof_O 	O 	0.2005	0.335	0.4423	-0.538
Mof_C 	C 	0.2476	0.4112	0.3169	0.294
Mof_C 	C 	0.2385	0.4094	0.3556	-0.095
Mof_C 	C 	0.2192	0.4391	0.3664	0.008
Mof_H 	H 	0.2164	0.4592	0.3517	0.057
Mof_C 	C 	0.2044	0.4375	0.4002	-0.053
Mof_C 	C 	0.2069	0.406	0.4191	0.06
Mof_H 	H 	0.1946	0.4046	0.4409	0.02
Mof_C 	C 	0.2259	0.3762	0.4084	-0.206
Mof_C 	C 	0.2409	0.3783	0.3749	0.076
Mof_H 	H 	0.2529	0.3585	0.3653	0.018
Mof_C 	C 	0.1852	0.4694	0.4142	0.111
Mof_C 	C 	0.1544	0.4684	0.4342	-0.144
Mof_H 	H 	0.1416	0.4472	0.4374	0.085
Mof_C 	C 	0.1847	0.4117	0.2328	0.34
Mof_C 	C 	0.146	0.4079	0.2273	-0.103
Mof_C 	C 	0.1267	0.3771	0.2319	0.078
Mof_H 	H 	0.1377	0.3571	0.2422	0.022
Mof_C 	C 	0.0915	0.3751	0.2218	-0.165
Mof_C 	C 	0.0765	0.4049	0.2065	0.041
Mof_H 	H 	0.0525	0.404	0.1992	0.031
Mof_C 	C 	0.0951	0.4361	0.2013	-0.047
Mof_C 	C 	0.1311	0.4376	0.208	0.013
Mof_H 	H 	0.1447	0.4603	0.2036	0.055
Mof_C 	C 	0.079	0.4708	0.1883	0.113
Mof_C 	C 	0.0451	0.4699	0.1745	-0.145
Mof_H 	H 	0.0302	0.4501	0.1774	0.083
Mof_C 	C 	0.0694	0.3425	0.2282	0.534
Mof_C 	C 	0.2243	0.3405	0.4221	0.549
Mof_O 	O 	0.2689	0.4719	0.2321	-0.611
Mof_Gd	Gd	0.24384	0.08863	0.74423	1.813
Mof_O 	O 	0.2426	0.1172	0.7989	-0.415
Mof_O 	O 	0.2552	0.0609	0.7983	-0.399
Mof_O 	O 	0.2996	0.1166	0.7408	-0.432
Mof_O 	O 	0.2997	0.0599	0.7336	-0.394
Mof_O 	O 	0.4121	0.1814	0.7387	-0.511
Mof_O 	O 	0.4621	0.1576	0.723	-0.489
Mof_O 	O 	0.2542	0.1814	0.9131	-0.533
Mof_O 	O 	0.2995	0.165	0.9423	-0.533
Mof_C 	C 	0.2524	0.0888	0.8169	0.293
Mof_C 	C 	0.2615	0.0906	0.8556	-0.095
Mof_C 	C 	0.2808	0.0609	0.8664	0.007
Mof_H 	H 	0.2836	0.0408	0.8517	0.056
Mof_C 	C 	0.2956	0.0625	0.9002	-0.052
Mof_C 	C 	0.2931	0.094	0.9191	0.058
Mof_H 	H 	0.3054	0.0954	0.9409	0.022
Mof_C 	C 	0.2741	0.1238	0.9084	-0.203
Mof_C 	C 	0.2591	0.1217	0.8749	0.075
Mof_H 	H 	0.2471	0.1415	0.8653	0.018
Mof_C 	C 	0.3148	0.0306	0.9142	0.108
Mof_C 	C 	0.3456	0.0316	0.9342	-0.137
Mof_H 	H 	0.3584	0.0528	0.9374	0.084
Mof_C 	C 	0.3153	0.0883	0.7328	0.34
Mof_C 	C 	0.354	0.0921	0.7273	-0.103
Mof_C 	C 	0.3733	0.1229	0.7319	0.078
Mof_H 	H 	0.3623	0.1429	0.7422	0.022
Mof_C 	C 	0.4085	0.1249	0.7218	-0.165
Mof_C 	C 	0.4235	0.0951	0.7065	0.04
Mof_H 	H 	0.4475	0.096	0.6992	0.032
Mof_C 	C 	0.4049	0.0639	0.7013	-0.046
Mof_C 	C 	0.3689	0.0624	0.708	0.012
Mof_H 	H 	0.3553	0.0397	0.7036	0.054
Mof_C 	C 	0.421	0.0292	0.6883	0.109
Mof_C 	C 	0.4549	0.0301	0.6745	-0.137
Mof_H 	H 	0.4698	0.0499	0.6774	0.082
Mof_C 	C 	0.4306	0.1575	0.7282	0.534
Mof_C 	C 	0.2757	0.1595	0.9221	0.548
Mof_O 	O 	0.2311	0.0281	0.7321	-0.607
Mof_Gd	Gd	0.74384	0.58863	0.24423	1.815
Mof_O 	O 	0.7426	0.6172	0.2989	-0.415
Mof_O 	O 	0.7552	0.5609	0.2983	-0.398
Mof_O 	O 	0.7996	0.6166	0.2408	-0.432
Mof_O 	O 	0.7997	0.5599	0.2336	-0.392
Mof_O 	O 	0.9121	0.6814	0.2387	-0.51
Mof_O 	O 	0.9621	0.6576	0.223	-0.483
Mof_O 	O 	0.7542	0.6814	0.4131	-0.535
Mof_O 	O 	0.7995	0.665	0.4423	-0.538
Mof_C 	C 	0.7524	0.5888	0.3169	0.294
Mof_C 	C 	0.7615	0.5906	0.3556	-0.095
Mof_C 	C 	0.7808	0.5609	0.3664	0.008
Mof_H 	H 	0.7836	0.5408	0.3517	0.057
Mof_C 	C 	0.7956	0.5625	0.4002	-0.053
Mof_C 	C 	0.7931	0.594	0.4191	0.06
Mof_H 	H 	0.8054	0.5954	0.4409	0.02
Mof_C 	C 	0.7741	0.6238	0.4084	-0.206
Mof_C 	C 	0.7591	0.6217	0.3749	0.076
Mof_H 	H 	0.7471	0.6415	0.3653	0.018
Mof_C 	C 	0.8148	0.5306	0.4142	0.111
Mof_C 	C 	0.8456	0.5316	0.4342	-0.144
Mof_H 	H 	0.8584	0.5528	0.4374	0.086
Mof_C 	C 	0.8153	0.5883	0.2328	0.339
Mof_C 	C 	0.854	0.5921	0.2273	-0.102
Mof_C 	C 	0.8733	0.6229	0.2319	0.077
Mof_H 	H 	0.8623	0.6429	0.2422	0.022
Mof_C 	C 	0.9085	0.6249	0.2218	-0.163
Mof_C 	C 	0.9235	0.5951	0.2065	0.039
Mof_H 	H 	0.9475	0.596	0.1992	0.034
Mof_C 	C 	0.9049	0.5639	0.2013	-0.045
Mof_C 	C 	0.8689	0.5624	0.208	0.012
Mof_H 	H 	0.8553	0.5397	0.2036	0.055
Mof_C 	C 	0.921	0.5292	0.1883	0.112
Mof_C 	C 	0.9549	0.5301	0.1745	-0.138
Mof_H 	H 	0.9698	0.5499	0.1774	0.085
Mof_C 	C 	0.9306	0.6575	0.2282	0.532
Mof_C 	C 	0.7757	0.6595	0.4221	0.549
Mof_O 	O 	0.7311	0.5281	0.2321	-0.611
Mof_Gd	Gd	0.25577	0.24384	0.91137	1.814
Mof_O 	O 	0.2011	0.2426	0.8828	-0.415
Mof_O 	O 	0.2017	0.2552	0.9391	-0.396
Mof_O 	O 	0.2592	0.2996	0.8834	-0.432
Mof_O 	O 	0.2664	0.2997	0.9401	-0.391
Mof_O 	O 	0.2613	0.4121	0.8186	-0.51
Mof_O 	O 	0.277	0.4621	0.8424	-0.489
Mof_O 	O 	0.0869	0.2542	0.8186	-0.534
Mof_O 	O 	0.0577	0.2995	0.835	-0.536
Mof_C 	C 	0.1831	0.2524	0.9112	0.293
Mof_C 	C 	0.1444	0.2615	0.9094	-0.095
Mof_C 	C 	0.1336	0.2808	0.9391	0.008
Mof_H 	H 	0.1483	0.2836	0.9592	0.059
Mof_C 	C 	0.0998	0.2956	0.9375	-0.052
Mof_C 	C 	0.0809	0.2931	0.906	0.059
Mof_H 	H 	0.0591	0.3054	0.9046	0.02
Mof_C 	C 	0.0916	0.2741	0.8762	-0.205
Mof_C 	C 	0.1251	0.2591	0.8783	0.076
Mof_H 	H 	0.1347	0.2471	0.8585	0.018
Mof_C 	C 	0.0858	0.3148	0.9694	0.114
Mof_C 	C 	0.0658	0.3456	0.9684	-0.131
Mof_H 	H 	0.0626	0.3584	0.9472	0.082
Mof_C 	C 	0.2672	0.3153	0.9117	0.339
Mof_C 	C 	0.2727	0.354	0.9079	-0.102
Mof_C 	C 	0.2681	0.3733	0.8771	0.077
Mof_H 	H 	0.2578	0.3623	0.8571	0.022
Mof_C 	C 	0.2782	0.4085	0.8751	-0.164
Mof_C 	C 	0.2935	0.4235	0.9049	0.04
Mof_H 	H 	0.3008	0.4475	0.904	0.032
Mof_C 	C 	0.2987	0.4049	0.9361	-0.045
Mof_C 	C 	0.292	0.3689	0.9376	0.013
Mof_H 	H 	0.2964	0.3553	0.9603	0.057
Mof_C 	C 	0.3117	0.421	0.9708	0.115
Mof_C 	C 	0.3255	0.4549	0.9699	-0.128
Mof_H 	H 	0.3226	0.4698	0.9501	0.081
Mof_C 	C 	0.2718	0.4306	0.8425	0.534
Mof_C 	C 	0.0779	0.2757	0.8405	0.548
Mof_O 	O 	0.2679	0.2311	0.9719	-0.6
Mof_Gd	Gd	0.75577	0.74384	0.41137	1.815
Mof_O 	O 	0.7011	0.7426	0.3828	-0.416
Mof_O 	O 	0.7017	0.7552	0.4391	-0.398
Mof_O 	O 	0.7592	0.7996	0.3834	-0.432
Mof_O 	O 	0.7664	0.7997	0.4401	-0.392
Mof_O 	O 	0.7613	0.9121	0.3186	-0.51
Mof_O 	O 	0.777	0.9621	0.3424	-0.483
Mof_O 	O 	0.5869	0.7542	0.3186	-0.535
Mof_O 	O 	0.5577	0.7995	0.335	-0.538
Mof_C 	C 	0.6831	0.7524	0.4112	0.294
Mof_C 	C 	0.6444	0.7615	0.4094	-0.095
Mof_C 	C 	0.6336	0.7808	0.4391	0.008
Mof_H 	H 	0.6483	0.7836	0.4592	0.057
Mof_C 	C 	0.5998	0.7956	0.4375	-0.053
Mof_C 	C 	0.5809	0.7931	0.406	0.06
Mof_H 	H 	0.5591	0.8054	0.4046	0.02
Mof_C 	C 	0.5916	0.7741	0.3762	-0.206
Mof_C 	C 	0.6251	0.7591	0.3783	0.076
Mof_H 	H 	0.6347	0.7471	0.3585	0.018
Mof_C 	C 	0.5858	0.8148	0.4694	0.111
Mof_C 	C 	0.5658	0.8456	0.4684	-0.144
Mof_H 	H 	0.5626	0.8584	0.4472	0.086
Mof_C 	C 	0.7672	0.8153	0.4117	0.339
Mof_C 	C 	0.7727	0.854	0.4079	-0.102
Mof_C 	C 	0.7681	0.8733	0.3771	0.077
Mof_H 	H 	0.7578	0.8623	0.3571	0.022
Mof_C 	C 	0.7782	0.9085	0.3751	-0.163
Mof_C 	C 	0.7935	0.9235	0.4049	0.039
Mof_H 	H 	0.8008	0.9475	0.404	0.034
Mof_C 	C 	0.7987	0.9049	0.4361	-0.044
Mof_C 	C 	0.792	0.8689	0.4376	0.012
Mof_H 	H 	0.7964	0.8553	0.4603	0.055
Mof_C 	C 	0.8117	0.921	0.4708	0.112
Mof_C 	C 	0.8255	0.9549	0.4699	-0.138
Mof_H 	H 	0.8226	0.9698	0.4501	0.085
Mof_C 	C 	0.7718	0.9306	0.3425	0.532
Mof_C 	C 	0.5779	0.7757	0.3405	0.549
Mof_O 	O 	0.7679	0.7311	0.4719	-0.611
Mof_Gd	Gd	0.25577	0.75616	0.08863	1.813
Mof_O 	O 	0.2011	0.7574	0.1172	-0.415
Mof_O 	O 	0.2017	0.7448	0.0609	-0.399
Mof_O 	O 	0.2592	0.7004	0.1166	-0.432
Mof_O 	O 	0.2664	0.7003	0.0599	-0.394
Mof_O 	O 	0.2613	0.5879	0.1814	-0.511
Mof_O 	O 	0.277	0.5379	0.1576	-0.489
Mof_O 	O 	0.0869	0.7458	0.1814	-0.534
Mof_O 	O 	0.0577	0.7005	0.165	-0.536
Mof_C 	C 	0.1831	0.7476	0.0888	0.294
Mof_C 	C 	0.1444	0.7385	0.0906	-0.096
Mof_C 	C 	0.1336	0.7192	0.0609	0.008
Mof_H 	H 	0.1483	0.7164	0.0408	0.055
Mof_C 	C 	0.0998	0.7044	0.0625	-0.053
Mof_C 	C 	0.0809	0.7069	0.094	0.059
Mof_H 	H 	0.0591	0.6946	0.0954	0.019
Mof_C 	C 	0.0916	0.7259	0.1238	-0.206
Mof_C 	C 	0.1251	0.7409	0.1217	0.076
Mof_H 	H 	0.1347	0.7529	0.1415	0.018
Mof_C 	C 	0.0858	0.6852	0.0306	0.107
Mof_C 	C 	0.0658	0.6544	0.0316	-0.139
Mof_H 	H 	0.0626	0.6416	0.0528	0.082
Mof_C 	C 	0.2672	0.6847	0.0883	0.34
Mof_C 	C 	0.2727	0.646	0.0921	-0.103
Mof_C 	C 	0.2681	0.6267	0.1229	0.078
Mof_H 	H 	0.2578	0.6377	0.1429	0.022
Mof_C 	C 	0.2782	0.5915	0.1249	-0.165
Mof_C 	C 	0.2935	0.5765	0.0951	0.04
Mof_H 	H 	0.3008	0.5525	0.096	0.032
Mof_C 	C 	0.2987	0.5951	0.0639	-0.046
Mof_C 	C 	0.292	0.6311	0.0624	0.012
Mof_H 	H 	0.2964	0.6447	0.0397	0.054
Mof_C 	C 	0.3117	0.579	0.0292	0.109
Mof_C 	C 	0.3255	0.5451	0.0301	-0.137
Mof_H 	H 	0.3226	0.5302	0.0499	0.082
Mof_C 	C 	0.2718	0.5694	0.1575	0.534
Mof_C 	C 	0.0779	0.7243	0.1595	0.548
Mof_O 	O 	0.2679	0.7689	0.0281	-0.607
Mof_Gd	Gd	0.75577	0.25616	0.58863	1.815
Mof_O 	O 	0.7011	0.2574	0.6172	-0.416
Mof_O 	O 	0.7017	0.2448	0.5609	-0.398
Mof_O 	O 	0.7592	0.2004	0.6166	-0.433
Mof_O 	O 	0.7664	0.2003	0.5599	-0.393
Mof_O 	O 	0.7613	0.0879	0.6814	-0.511
Mof_O 	O 	0.777	0.0379	0.6576	-0.489
Mof_O 	O 	0.5869	0.2458	0.6814	-0.535
Mof_O 	O 	0.5577	0.2005	0.665	-0.538
Mof_C 	C 	0.6831	0.2476	0.5888	0.294
Mof_C 	C 	0.6444	0.2385	0.5906	-0.095
Mof_C 	C 	0.6336	0.2192	0.5609	0.008
Mof_H 	H 	0.6483	0.2164	0.5408	0.057
Mof_C 	C 	0.5998	0.2044	0.5625	-0.053
Mof_C 	C 	0.5809	0.2069	0.594	0.06
Mof_H 	H 	0.5591	0.1946	0.5954	0.02
Mof_C 	C 	0.5916	0.2259	0.6238	-0.206
Mof_C 	C 	0.6251	0.2409	0.6217	0.076
Mof_H 	H 	0.6347	0.2529	0.6415	0.018
Mof_C 	C 	0.5858	0.1852	0.5306	0.111
Mof_C 	C 	0.5658	0.1544	0.5316	-0.144
Mof_H 	H 	0.5626	0.1416	0.5528	0.085
Mof_C 	C 	0.7672	0.1847	0.5883	0.34
Mof_C 	C 	0.7727	0.146	0.5921	-0.103
Mof_C 	C 	0.7681	0.1267	0.6229	0.078
Mof_H 	H 	0.7578	0.1377	0.6429	0.022
Mof_C 	C 	0.7782	0.0915	0.6249	-0.165
Mof_C 	C 	0.7935	0.0765	0.5951	0.041
Mof_H 	H 	0.8008	0.0525	0.596	0.031
Mof_C 	C 	0.7987	0.0951	0.5639	-0.047
Mof_C 	C 	0.792	0.1311	0.5624	0.013
Mof_H 	H 	0.7964	0.1447	0.5397	0.055
Mof_C 	C 	0.8117	0.079	0.5292	0.113
Mof_C 	C 	0.8255	0.0451	0.5301	-0.145
Mof_H 	H 	0.8226	0.0302	0.5499	0.083
Mof_C 	C 	0.7718	0.0694	0.6575	0.534
Mof_C 	C 	0.5779	0.2243	0.6595	0.549
Mof_O 	O 	0.7679	0.2689	0.5281	-0.611
Mof_Gd	Gd	0.74423	0.75616	0.91137	1.814
Mof_O 	O 	0.7989	0.7574	0.8828	-0.415
Mof_O 	O 	0.7983	0.7448	0.9391	-0.396
Mof_O 	O 	0.7408	0.7004	0.8834	-0.432
Mof_O 	O 	0.7336	0.7003	0.9401	-0.391
Mof_O 	O 	0.7387	0.5879	0.8186	-0.51
Mof_O 	O 	0.723	0.5379	0.8424	-0.489
Mof_O 	O 	0.9131	0.7458	0.8186	-0.533
Mof_O 	O 	0.9423	0.7005	0.835	-0.533
Mof_C 	C 	0.8169	0.7476	0.9112	0.293
Mof_C 	C 	0.8556	0.7385	0.9094	-0.093
Mof_C 	C 	0.8664	0.7192	0.9391	0.008
Mof_H 	H 	0.8517	0.7164	0.9592	0.059
Mof_C 	C 	0.9002	0.7044	0.9375	-0.05
Mof_C 	C 	0.9191	0.7069	0.906	0.058
Mof_H 	H 	0.9409	0.6946	0.9046	0.023
Mof_C 	C 	0.9084	0.7259	0.8762	-0.202
Mof_C 	C 	0.8749	0.7409	0.8783	0.075
Mof_H 	H 	0.8653	0.7529	0.8585	0.019
Mof_C 	C 	0.9142	0.6852	0.9694	0.114
Mof_C 	C 	0.9342	0.6544	0.9684	-0.129
Mof_H 	H 	0.9374	0.6416	0.9472	0.083
Mof_C 	C 	0.7328	0.6847	0.9117	0.339
Mof_C 	C 	0.7273	0.646	0.9079	-0.102
Mof_C 	C 	0.7319	0.6267	0.8771	0.077
Mof_H 	H 	0.7422	0.6377	0.8571	0.022
Mof_C 	C 	0.7218	0.5915	0.8751	-0.164
Mof_C 	C 	0.7065	0.5765	0.9049	0.04
Mof_H 	H 	0.6992	0.5525	0.904	0.032
Mof_C 	C 	0.7013	0.5951	0.9361	-0.045
Mof_C 	C 	0.708	0.6311	0.9376	0.013
Mof_H 	H 	0.7036	0.6447	0.9603	0.057
Mof_C 	C 	0.6883	0.579	0.9708	0.115
Mof_C 	C 	0.6745	0.5451	0.9699	-0.128
Mof_H 	H 	0.6774	0.5302	0.9501	0.081
Mof_C 	C 	0.7282	0.5694	0.8425	0.534
Mof_C 	C 	0.9221	0.7243	0.8405	0.548
Mof_O 	O 	0.7321	0.7689	0.9719	-0.6
Mof_Gd	Gd	0.24423	0.25616	0.41137	1.815
Mof_O 	O 	0.2989	0.2574	0.3828	-0.415
Mof_O 	O 	0.2983	0.2448	0.4391	-0.398
Mof_O 	O 	0.2408	0.2004	0.3834	-0.433
Mof_O 	O 	0.2336	0.2003	0.4401	-0.393
Mof_O 	O 	0.2387	0.0879	0.3186	-0.51
Mof_O 	O 	0.223	0.0379	0.3424	-0.489
Mof_O 	O 	0.4131	0.2458	0.3186	-0.534
Mof_O 	O 	0.4423	0.2005	0.335	-0.538
Mof_C 	C 	0.3169	0.2476	0.4112	0.294
Mof_C 	C 	0.3556	0.2385	0.4094	-0.095
Mof_C 	C 	0.3664	0.2192	0.4391	0.008
Mof_H 	H 	0.3517	0.2164	0.4592	0.057
Mof_C 	C 	0.4002	0.2044	0.4375	-0.053
Mof_C 	C 	0.4191	0.2069	0.406	0.06
Mof_H 	H 	0.4409	0.1946	0.4046	0.02
Mof_C 	C 	0.4084	0.2259	0.3762	-0.206
Mof_C 	C 	0.3749	0.2409	0.3783	0.076
Mof_H 	H 	0.3653	0.2529	0.3585	0.018
Mof_C 	C 	0.4142	0.1852	0.4694	0.111
Mof_C 	C 	0.4342	0.1544	0.4684	-0.144
Mof_H 	H 	0.4374	0.1416	0.4472	0.085
Mof_C 	C 	0.2328	0.1847	0.4117	0.34
Mof_C 	C 	0.2273	0.146	0.4079	-0.103
Mof_C 	C 	0.2319	0.1267	0.3771	0.078
Mof_H 	H 	0.2422	0.1377	0.3571	0.022
Mof_C 	C 	0.2218	0.0915	0.3751	-0.165
Mof_C 	C 	0.2065	0.0765	0.4049	0.041
Mof_H 	H 	0.1992	0.0525	0.404	0.031
Mof_C 	C 	0.2013	0.0951	0.4361	-0.047
Mof_C 	C 	0.208	0.1311	0.4376	0.013
Mof_H 	H 	0.2036	0.1447	0.4603	0.055
Mof_C 	C 	0.1883	0.079	0.4708	0.113
Mof_C 	C 	0.1745	0.0451	0.4699	-0.145
Mof_H 	H 	0.1774	0.0302	0.4501	0.083
Mof_C 	C 	0.2282	0.0694	0.3425	0.534
Mof_C 	C 	0.4221	0.2243	0.3405	0.549
Mof_O 	O 	0.2321	0.2689	0.4719	-0.611
Mof_Gd	Gd	0.74423	0.24384	0.08863	1.813
Mof_O 	O 	0.7989	0.2426	0.1172	-0.415
Mof_O 	O 	0.7983	0.2552	0.0609	-0.399
Mof_O 	O 	0.7408	0.2996	0.1166	-0.432
Mof_O 	O 	0.7336	0.2997	0.0599	-0.394
Mof_O 	O 	0.7387	0.4121	0.1814	-0.511
Mof_O 	O 	0.723	0.4621	0.1576	-0.489
Mof_O 	O 	0.9131	0.2542	0.1814	-0.533
Mof_O 	O 	0.9423	0.2995	0.165	-0.533
Mof_C 	C 	0.8169	0.2524	0.0888	0.293
Mof_C 	C 	0.8556	0.2615	0.0906	-0.095
Mof_C 	C 	0.8664	0.2808	0.0609	0.007
Mof_H 	H 	0.8517	0.2836	0.0408	0.056
Mof_C 	C 	0.9002	0.2956	0.0625	-0.052
Mof_C 	C 	0.9191	0.2931	0.094	0.058
Mof_H 	H 	0.9409	0.3054	0.0954	0.022
Mof_C 	C 	0.9084	0.2741	0.1238	-0.203
Mof_C 	C 	0.8749	0.2591	0.1217	0.075
Mof_H 	H 	0.8653	0.2471	0.1415	0.018
Mof_C 	C 	0.9142	0.3148	0.0306	0.108
Mof_C 	C 	0.9342	0.3456	0.0316	-0.137
Mof_H 	H 	0.9374	0.3584	0.0528	0.084
Mof_C 	C 	0.7328	0.3153	0.0883	0.34
Mof_C 	C 	0.7273	0.354	0.0921	-0.103
Mof_C 	C 	0.7319	0.3733	0.1229	0.078
Mof_H 	H 	0.7422	0.3623	0.1429	0.022
Mof_C 	C 	0.7218	0.4085	0.1249	-0.165
Mof_C 	C 	0.7065	0.4235	0.0951	0.04
Mof_H 	H 	0.6992	0.4475	0.096	0.032
Mof_C 	C 	0.7013	0.4049	0.0639	-0.046
Mof_C 	C 	0.708	0.3689	0.0624	0.012
Mof_H 	H 	0.7036	0.3553	0.0397	0.054
Mof_C 	C 	0.6883	0.421	0.0292	0.109
Mof_C 	C 	0.6745	0.4549	0.0301	-0.137
Mof_H 	H 	0.6774	0.4698	0.0499	0.082
Mof_C 	C 	0.7282	0.4306	0.1575	0.534
Mof_C 	C 	0.9221	0.2757	0.1595	0.548
Mof_O 	O 	0.7321	0.2311	0.0281	-0.607
Mof_Gd	Gd	0.24423	0.74384	0.58863	1.815
Mof_O 	O 	0.2989	0.7426	0.6172	-0.415
Mof_O 	O 	0.2983	0.7552	0.5609	-0.398
Mof_O 	O 	0.2408	0.7996	0.6166	-0.432
Mof_O 	O 	0.2336	0.7997	0.5599	-0.392
Mof_O 	O 	0.2387	0.9121	0.6814	-0.51
Mof_O 	O 	0.223	0.9621	0.6576	-0.483
Mof_O 	O 	0.4131	0.7542	0.6814	-0.535
Mof_O 	O 	0.4423	0.7995	0.665	-0.538
Mof_C 	C 	0.3169	0.7524	0.5888	0.294
Mof_C 	C 	0.3556	0.7615	0.5906	-0.095
Mof_C 	C 	0.3664	0.7808	0.5609	0.008
Mof_H 	H 	0.3517	0.7836	0.5408	0.057
Mof_C 	C 	0.4002	0.7956	0.5625	-0.053
Mof_C 	C 	0.4191	0.7931	0.594	0.06
Mof_H 	H 	0.4409	0.8054	0.5954	0.02
Mof_C 	C 	0.4084	0.7741	0.6238	-0.206
Mof_C 	C 	0.3749	0.7591	0.6217	0.076
Mof_H 	H 	0.3653	0.7471	0.6415	0.018
Mof_C 	C 	0.4142	0.8148	0.5306	0.111
Mof_C 	C 	0.4342	0.8456	0.5316	-0.144
Mof_H 	H 	0.4374	0.8584	0.5528	0.086
Mof_C 	C 	0.2328	0.8153	0.5883	0.339
Mof_C 	C 	0.2273	0.854	0.5921	-0.102
Mof_C 	C 	0.2319	0.8733	0.6229	0.077
Mof_H 	H 	0.2422	0.8623	0.6429	0.022
Mof_C 	C 	0.2218	0.9085	0.6249	-0.163
Mof_C 	C 	0.2065	0.9235	0.5951	0.039
Mof_H 	H 	0.1992	0.9475	0.596	0.034
Mof_C 	C 	0.2013	0.9049	0.5639	-0.045
Mof_C 	C 	0.208	0.8689	0.5624	0.012
Mof_H 	H 	0.2036	0.8553	0.5397	0.055
Mof_C 	C 	0.1883	0.921	0.5292	0.112
Mof_C 	C 	0.1745	0.9549	0.5301	-0.138
Mof_H 	H 	0.1774	0.9698	0.5499	0.085
Mof_C 	C 	0.2282	0.9306	0.6575	0.532
Mof_C 	C 	0.4221	0.7757	0.6595	0.549
Mof_O 	O 	0.2321	0.7311	0.5281	-0.611
Mof_Gd	Gd	0.91137	0.25577	0.24384	1.814
Mof_O 	O 	0.8828	0.2011	0.2426	-0.415
Mof_O 	O 	0.9391	0.2017	0.2552	-0.396
Mof_O 	O 	0.8834	0.2592	0.2996	-0.432
Mof_O 	O 	0.9401	0.2664	0.2997	-0.391
Mof_O 	O 	0.8186	0.2613	0.4121	-0.51
Mof_O 	O 	0.8424	0.277	0.4621	-0.489
Mof_O 	O 	0.8186	0.0869	0.2542	-0.534
Mof_O 	O 	0.835	0.0577	0.2995	-0.536
Mof_C 	C 	0.9112	0.1831	0.2524	0.293
Mof_C 	C 	0.9094	0.1444	0.2615	-0.095
Mof_C 	C 	0.9391	0.1336	0.2808	0.008
Mof_H 	H 	0.9592	0.1483	0.2836	0.059
Mof_C 	C 	0.9375	0.0998	0.2956	-0.052
Mof_C 	C 	0.906	0.0809	0.2931	0.059
Mof_H 	H 	0.9046	0.0591	0.3054	0.02
Mof_C 	C 	0.8762	0.0916	0.2741	-0.205
Mof_C 	C 	0.8783	0.1251	0.2591	0.076
Mof_H 	H 	0.8585	0.1347	0.2471	0.018
Mof_C 	C 	0.9694	0.0858	0.3148	0.114
Mof_C 	C 	0.9684	0.0658	0.3456	-0.131
Mof_H 	H 	0.9472	0.0626	0.3584	0.082
Mof_C 	C 	0.9117	0.2672	0.3153	0.339
Mof_C 	C 	0.9079	0.2727	0.354	-0.102
Mof_C 	C 	0.8771	0.2681	0.3733	0.077
Mof_H 	H 	0.8571	0.2578	0.3623	0.022
Mof_C 	C 	0.8751	0.2782	0.4085	-0.164
Mof_C 	C 	0.9049	0.2935	0.4235	0.04
Mof_H 	H 	0.904	0.3008	0.4475	0.032
Mof_C 	C 	0.9361	0.2987	0.4049	-0.045
Mof_C 	C 	0.9376	0.292	0.3689	0.013
Mof_H 	H 	0.9603	0.2964	0.3553	0.057
Mof_C 	C 	0.9708	0.3117	0.421	0.115
Mof_C 	C 	0.9699	0.3255	0.4549	-0.128
Mof_H 	H 	0.9501	0.3226	0.4698	0.081
Mof_C 	C 	0.8425	0.2718	0.4306	0.534
Mof_C 	C 	0.8405	0.0779	0.2757	0.548
Mof_O 	O 	0.9719	0.2679	0.2311	-0.6
Mof_Gd	Gd	0.41137	0.75577	0.74384	1.815
Mof_O 	O 	0.3828	0.7011	0.7426	-0.416
Mof_O 	O 	0.4391	0.7017	0.7552	-0.398
Mof_O 	O 	0.3834	0.7592	0.7996	-0.432
Mof_O 	O 	0.4401	0.7664	0.7997	-0.392
Mof_O 	O 	0.3186	0.7613	0.9121	-0.51
Mof_O 	O 	0.3424	0.777	0.9621	-0.483
Mof_O 	O 	0.3186	0.5869	0.7542	-0.535
Mof_O 	O 	0.335	0.5577	0.7995	-0.538
Mof_C 	C 	0.4112	0.6831	0.7524	0.294
Mof_C 	C 	0.4094	0.6444	0.7615	-0.095
Mof_C 	C 	0.4391	0.6336	0.7808	0.008
Mof_H 	H 	0.4592	0.6483	0.7836	0.057
Mof_C 	C 	0.4375	0.5998	0.7956	-0.053
Mof_C 	C 	0.406	0.5809	0.7931	0.06
Mof_H 	H 	0.4046	0.5591	0.8054	0.02
Mof_C 	C 	0.3762	0.5916	0.7741	-0.206
Mof_C 	C 	0.3783	0.6251	0.7591	0.076
Mof_H 	H 	0.3585	0.6347	0.7471	0.018
Mof_C 	C 	0.4694	0.5858	0.8148	0.111
Mof_C 	C 	0.4684	0.5658	0.8456	-0.144
Mof_H 	H 	0.4472	0.5626	0.8584	0.086
Mof_C 	C 	0.4117	0.7672	0.8153	0.339
Mof_C 	C 	0.4079	0.7727	0.854	-0.102
Mof_C 	C 	0.3771	0.7681	0.8733	0.077
Mof_H 	H 	0.3571	0.7578	0.8623	0.022
Mof_C 	C 	0.3751	0.7782	0.9085	-0.163
Mof_C 	C 	0.4049	0.7935	0.9235	0.039
Mof_H 	H 	0.404	0.8008	0.9475	0.034
Mof_C 	C 	0.4361	0.7987	0.9049	-0.044
Mof_C 	C 	0.4376	0.792	0.8689	0.012
Mof_H 	H 	0.4603	0.7964	0.8553	0.055
Mof_C 	C 	0.4708	0.8117	0.921	0.112
Mof_C 	C 	0.4699	0.8255	0.9549	-0.138
Mof_H 	H 	0.4501	0.8226	0.9698	0.085
Mof_C 	C 	0.3425	0.7718	0.9306	0.532
Mof_C 	C 	0.3405	0.5779	0.7757	0.549
Mof_O 	O 	0.4719	0.7679	0.7311	-0.611
Mof_Gd	Gd	0.08863	0.25577	0.75616	1.813
Mof_O 	O 	0.1172	0.2011	0.7574	-0.415
Mof_O 	O 	0.0609	0.2017	0.7448	-0.399
Mof_O 	O 	0.1166	0.2592	0.7004	-0.432
Mof_O 	O 	0.0599	0.2664	0.7003	-0.394
Mof_O 	O 	0.1814	0.2613	0.5879	-0.511
Mof_O 	O 	0.1576	0.277	0.5379	-0.489
Mof_O 	O 	0.1814	0.0869	0.7458	-0.534
Mof_O 	O 	0.165	0.0577	0.7005	-0.536
Mof_C 	C 	0.0888	0.1831	0.7476	0.294
Mof_C 	C 	0.0906	0.1444	0.7385	-0.096
Mof_C 	C 	0.0609	0.1336	0.7192	0.008
Mof_H 	H 	0.0408	0.1483	0.7164	0.055
Mof_C 	C 	0.0625	0.0998	0.7044	-0.053
Mof_C 	C 	0.094	0.0809	0.7069	0.059
Mof_H 	H 	0.0954	0.0591	0.6946	0.019
Mof_C 	C 	0.1238	0.0916	0.7259	-0.206
Mof_C 	C 	0.1217	0.1251	0.7409	0.076
Mof_H 	H 	0.1415	0.1347	0.7529	0.018
Mof_C 	C 	0.0306	0.0858	0.6852	0.107
Mof_C 	C 	0.0316	0.0658	0.6544	-0.139
Mof_H 	H 	0.0528	0.0626	0.6416	0.082
Mof_C 	C 	0.0883	0.2672	0.6847	0.34
Mof_C 	C 	0.0921	0.2727	0.646	-0.103
Mof_C 	C 	0.1229	0.2681	0.6267	0.078
Mof_H 	H 	0.1429	0.2578	0.6377	0.022
Mof_C 	C 	0.1249	0.2782	0.5915	-0.165
Mof_C 	C 	0.0951	0.2935	0.5765	0.04
Mof_H 	H 	0.096	0.3008	0.5525	0.032
Mof_C 	C 	0.0639	0.2987	0.5951	-0.046
Mof_C 	C 	0.0624	0.292	0.6311	0.012
Mof_H 	H 	0.0397	0.2964	0.6447	0.054
Mof_C 	C 	0.0292	0.3117	0.579	0.109
Mof_C 	C 	0.0301	0.3255	0.5451	-0.137
Mof_H 	H 	0.0499	0.3226	0.5302	0.082
Mof_C 	C 	0.1575	0.2718	0.5694	0.534
Mof_C 	C 	0.1595	0.0779	0.7243	0.548
Mof_O 	O 	0.0281	0.2679	0.7689	-0.607
Mof_Gd	Gd	0.58863	0.75577	0.25616	1.815
Mof_O 	O 	0.6172	0.7011	0.2574	-0.416
Mof_O 	O 	0.5609	0.7017	0.2448	-0.398
Mof_O 	O 	0.6166	0.7592	0.2004	-0.433
Mof_O 	O 	0.5599	0.7664	0.2003	-0.393
Mof_O 	O 	0.6814	0.7613	0.0879	-0.511
Mof_O 	O 	0.6576	0.777	0.0379	-0.489
Mof_O 	O 	0.6814	0.5869	0.2458	-0.535
Mof_O 	O 	0.665	0.5577	0.2005	-0.538
Mof_C 	C 	0.5888	0.6831	0.2476	0.294
Mof_C 	C 	0.5906	0.6444	0.2385	-0.095
Mof_C 	C 	0.5609	0.6336	0.2192	0.008
Mof_H 	H 	0.5408	0.6483	0.2164	0.057
Mof_C 	C 	0.5625	0.5998	0.2044	-0.053
Mof_C 	C 	0.594	0.5809	0.2069	0.06
Mof_H 	H 	0.5954	0.5591	0.1946	0.02
Mof_C 	C 	0.6238	0.5916	0.2259	-0.206
Mof_C 	C 	0.6217	0.6251	0.2409	0.076
Mof_H 	H 	0.6415	0.6347	0.2529	0.018
Mof_C 	C 	0.5306	0.5858	0.1852	0.111
Mof_C 	C 	0.5316	0.5658	0.1544	-0.144
Mof_H 	H 	0.5528	0.5626	0.1416	0.085
Mof_C 	C 	0.5883	0.7672	0.1847	0.34
Mof_C 	C 	0.5921	0.7727	0.146	-0.103
Mof_C 	C 	0.6229	0.7681	0.1267	0.078
Mof_H 	H 	0.6429	0.7578	0.1377	0.022
Mof_C 	C 	0.6249	0.7782	0.0915	-0.165
Mof_C 	C 	0.5951	0.7935	0.0765	0.041
Mof_H 	H 	0.596	0.8008	0.0525	0.031
Mof_C 	C 	0.5639	0.7987	0.0951	-0.047
Mof_C 	C 	0.5624	0.792	0.1311	0.013
Mof_H 	H 	0.5397	0.7964	0.1447	0.055
Mof_C 	C 	0.5292	0.8117	0.079	0.113
Mof_C 	C 	0.5301	0.8255	0.0451	-0.145
Mof_H 	H 	0.5499	0.8226	0.0302	0.083
Mof_C 	C 	0.6575	0.7718	0.0694	0.534
Mof_C 	C 	0.6595	0.5779	0.2243	0.549
Mof_O 	O 	0.5281	0.7679	0.2689	-0.611
Mof_Gd	Gd	0.91137	0.74423	0.75616	1.814
Mof_O 	O 	0.8828	0.7989	0.7574	-0.415
Mof_O 	O 	0.9391	0.7983	0.7448	-0.396
Mof_O 	O 	0.8834	0.7408	0.7004	-0.432
Mof_O 	O 	0.9401	0.7336	0.7003	-0.391
Mof_O 	O 	0.8186	0.7387	0.5879	-0.51
Mof_O 	O 	0.8424	0.723	0.5379	-0.489
Mof_O 	O 	0.8186	0.9131	0.7458	-0.533
Mof_O 	O 	0.835	0.9423	0.7005	-0.533
Mof_C 	C 	0.9112	0.8169	0.7476	0.293
Mof_C 	C 	0.9094	0.8556	0.7385	-0.093
Mof_C 	C 	0.9391	0.8664	0.7192	0.008
Mof_H 	H 	0.9592	0.8517	0.7164	0.059
Mof_C 	C 	0.9375	0.9002	0.7044	-0.05
Mof_C 	C 	0.906	0.9191	0.7069	0.058
Mof_H 	H 	0.9046	0.9409	0.6946	0.023
Mof_C 	C 	0.8762	0.9084	0.7259	-0.202
Mof_C 	C 	0.8783	0.8749	0.7409	0.075
Mof_H 	H 	0.8585	0.8653	0.7529	0.019
Mof_C 	C 	0.9694	0.9142	0.6852	0.114
Mof_C 	C 	0.9684	0.9342	0.6544	-0.129
Mof_H 	H 	0.9472	0.9374	0.6416	0.083
Mof_C 	C 	0.9117	0.7328	0.6847	0.339
Mof_C 	C 	0.9079	0.7273	0.646	-0.102
Mof_C 	C 	0.8771	0.7319	0.6267	0.077
Mof_H 	H 	0.8571	0.7422	0.6377	0.022
Mof_C 	C 	0.8751	0.7218	0.5915	-0.164
Mof_C 	C 	0.9049	0.7065	0.5765	0.04
Mof_H 	H 	0.904	0.6992	0.5525	0.032
Mof_C 	C 	0.9361	0.7013	0.5951	-0.045
Mof_C 	C 	0.9376	0.708	0.6311	0.013
Mof_H 	H 	0.9603	0.7036	0.6447	0.057
Mof_C 	C 	0.9708	0.6883	0.579	0.115
Mof_C 	C 	0.9699	0.6745	0.5451	-0.128
Mof_H 	H 	0.9501	0.6774	0.5302	0.081
Mof_C 	C 	0.8425	0.7282	0.5694	0.534
Mof_C 	C 	0.8405	0.9221	0.7243	0.548
Mof_O 	O 	0.9719	0.7321	0.7689	-0.6
Mof_Gd	Gd	0.41137	0.24423	0.25616	1.815
Mof_O 	O 	0.3828	0.2989	0.2574	-0.415
Mof_O 	O 	0.4391	0.2983	0.2448	-0.398
Mof_O 	O 	0.3834	0.2408	0.2004	-0.433
Mof_O 	O 	0.4401	0.2336	0.2003	-0.393
Mof_O 	O 	0.3186	0.2387	0.0879	-0.51
Mof_O 	O 	0.3424	0.223	0.0379	-0.489
Mof_O 	O 	0.3186	0.4131	0.2458	-0.534
Mof_O 	O 	0.335	0.4423	0.2005	-0.538
Mof_C 	C 	0.4112	0.3169	0.2476	0.294
Mof_C 	C 	0.4094	0.3556	0.2385	-0.095
Mof_C 	C 	0.4391	0.3664	0.2192	0.008
Mof_H 	H 	0.4592	0.3517	0.2164	0.057
Mof_C 	C 	0.4375	0.4002	0.2044	-0.053
Mof_C 	C 	0.406	0.4191	0.2069	0.06
Mof_H 	H 	0.4046	0.4409	0.1946	0.02
Mof_C 	C 	0.3762	0.4084	0.2259	-0.206
Mof_C 	C 	0.3783	0.3749	0.2409	0.076
Mof_H 	H 	0.3585	0.3653	0.2529	0.018
Mof_C 	C 	0.4694	0.4142	0.1852	0.111
Mof_C 	C 	0.4684	0.4342	0.1544	-0.144
Mof_H 	H 	0.4472	0.4374	0.1416	0.085
Mof_C 	C 	0.4117	0.2328	0.1847	0.34
Mof_C 	C 	0.4079	0.2273	0.146	-0.103
Mof_C 	C 	0.3771	0.2319	0.1267	0.078
Mof_H 	H 	0.3571	0.2422	0.1377	0.022
Mof_C 	C 	0.3751	0.2218	0.0915	-0.165
Mof_C 	C 	0.4049	0.2065	0.0765	0.041
Mof_H 	H 	0.404	0.1992	0.0525	0.031
Mof_C 	C 	0.4361	0.2013	0.0951	-0.047
Mof_C 	C 	0.4376	0.208	0.1311	0.013
Mof_H 	H 	0.4603	0.2036	0.1447	0.055
Mof_C 	C 	0.4708	0.1883	0.079	0.113
Mof_C 	C 	0.4699	0.1745	0.0451	-0.145
Mof_H 	H 	0.4501	0.1774	0.0302	0.083
Mof_C 	C 	0.3425	0.2282	0.0694	0.534
Mof_C 	C 	0.3405	0.4221	0.2243	0.549
Mof_O 	O 	0.4719	0.2321	0.2689	-0.611
Mof_Gd	Gd	0.08863	0.74423	0.24384	1.813
Mof_O 	O 	0.1172	0.7989	0.2426	-0.415
Mof_O 	O 	0.0609	0.7983	0.2552	-0.399
Mof_O 	O 	0.1166	0.7408	0.2996	-0.432
Mof_O 	O 	0.0599	0.7336	0.2997	-0.394
Mof_O 	O 	0.1814	0.7387	0.4121	-0.511
Mof_O 	O 	0.1576	0.723	0.4621	-0.489
Mof_O 	O 	0.1814	0.9131	0.2542	-0.533
Mof_O 	O 	0.165	0.9423	0.2995	-0.533
Mof_C 	C 	0.0888	0.8169	0.2524	0.293
Mof_C 	C 	0.0906	0.8556	0.2615	-0.095
Mof_C 	C 	0.0609	0.8664	0.2808	0.007
Mof_H 	H 	0.0408	0.8517	0.2836	0.056
Mof_C 	C 	0.0625	0.9002	0.2956	-0.052
Mof_C 	C 	0.094	0.9191	0.2931	0.058
Mof_H 	H 	0.0954	0.9409	0.3054	0.022
Mof_C 	C 	0.1238	0.9084	0.2741	-0.203
Mof_C 	C 	0.1217	0.8749	0.2591	0.075
Mof_H 	H 	0.1415	0.8653	0.2471	0.018
Mof_C 	C 	0.0306	0.9142	0.3148	0.108
Mof_C 	C 	0.0316	0.9342	0.3456	-0.137
Mof_H 	H 	0.0528	0.9374	0.3584	0.084
Mof_C 	C 	0.0883	0.7328	0.3153	0.34
Mof_C 	C 	0.0921	0.7273	0.354	-0.103
Mof_C 	C 	0.1229	0.7319	0.3733	0.078
Mof_H 	H 	0.1429	0.7422	0.3623	0.022
Mof_C 	C 	0.1249	0.7218	0.4085	-0.165
Mof_C 	C 	0.0951	0.7065	0.4235	0.04
Mof_H 	H 	0.096	0.6992	0.4475	0.032
Mof_C 	C 	0.0639	0.7013	0.4049	-0.046
Mof_C 	C 	0.0624	0.708	0.3689	0.012
Mof_H 	H 	0.0397	0.7036	0.3553	0.054
Mof_C 	C 	0.0292	0.6883	0.421	0.109
Mof_C 	C 	0.0301	0.6745	0.4549	-0.137
Mof_H 	H 	0.0499	0.6774	0.4698	0.082
Mof_C 	C 	0.1575	0.7282	0.4306	0.534
Mof_C 	C 	0.1595	0.9221	0.2757	0.548
Mof_O 	O 	0.0281	0.7321	0.2311	-0.607
Mof_Gd	Gd	0.58863	0.24423	0.74384	1.815
Mof_O 	O 	0.6172	0.2989	0.7426	-0.415
Mof_O 	O 	0.5609	0.2983	0.7552	-0.398
Mof_O 	O 	0.6166	0.2408	0.7996	-0.432
Mof_O 	O 	0.5599	0.2336	0.7997	-0.392
Mof_O 	O 	0.6814	0.2387	0.9121	-0.51
Mof_O 	O 	0.6576	0.223	0.9621	-0.483
Mof_O 	O 	0.6814	0.4131	0.7542	-0.535
Mof_O 	O 	0.665	0.4423	0.7995	-0.538
Mof_C 	C 	0.5888	0.3169	0.7524	0.294
Mof_C 	C 	0.5906	0.3556	0.7615	-0.095
Mof_C 	C 	0.5609	0.3664	0.7808	0.008
Mof_H 	H 	0.5408	0.3517	0.7836	0.057
Mof_C 	C 	0.5625	0.4002	0.7956	-0.053
Mof_C 	C 	0.594	0.4191	0.7931	0.06
Mof_H 	H 	0.5954	0.4409	0.8054	0.02
Mof_C 	C 	0.6238	0.4084	0.7741	-0.206
Mof_C 	C 	0.6217	0.3749	0.7591	0.076
Mof_H 	H 	0.6415	0.3653	0.7471	0.018
Mof_C 	C 	0.5306	0.4142	0.8148	0.111
Mof_C 	C 	0.5316	0.4342	0.8456	-0.144
Mof_H 	H 	0.5528	0.4374	0.8584	0.086
Mof_C 	C 	0.5883	0.2328	0.8153	0.339
Mof_C 	C 	0.5921	0.2273	0.854	-0.102
Mof_C 	C 	0.6229	0.2319	0.8733	0.077
Mof_H 	H 	0.6429	0.2422	0.8623	0.022
Mof_C 	C 	0.6249	0.2218	0.9085	-0.163
Mof_C 	C 	0.5951	0.2065	0.9235	0.039
Mof_H 	H 	0.596	0.1992	0.9475	0.034
Mof_C 	C 	0.5639	0.2013	0.9049	-0.045
Mof_C 	C 	0.5624	0.208	0.8689	0.012
Mof_H 	H 	0.5397	0.2036	0.8553	0.055
Mof_C 	C 	0.5292	0.1883	0.921	0.112
Mof_C 	C 	0.5301	0.1745	0.9549	-0.138
Mof_H 	H 	0.5499	0.1774	0.9698	0.085
Mof_C 	C 	0.6575	0.2282	0.9306	0.532
Mof_C 	C 	0.6595	0.4221	0.7757	0.549
Mof_O 	O 	0.5281	0.2321	0.7311	-0.611
Mof_Gd	Gd	0.75616	0.08863	0.74423	1.813
Mof_O 	O 	0.7574	0.1172	0.7989	-0.415
Mof_O 	O 	0.7448	0.0609	0.7983	-0.399
Mof_O 	O 	0.7004	0.1166	0.7408	-0.433
Mof_O 	O 	0.7003	0.0599	0.7336	-0.394
Mof_O 	O 	0.5879	0.1814	0.7387	-0.511
Mof_O 	O 	0.5379	0.1576	0.723	-0.489
Mof_O 	O 	0.7458	0.1814	0.9131	-0.533
Mof_O 	O 	0.7005	0.165	0.9423	-0.533
Mof_C 	C 	0.7476	0.0888	0.8169	0.293
Mof_C 	C 	0.7385	0.0906	0.8556	-0.095
Mof_C 	C 	0.7192	0.0609	0.8664	0.007
Mof_H 	H 	0.7164	0.0408	0.8517	0.056
Mof_C 	C 	0.7044	0.0625	0.9002	-0.052
Mof_C 	C 	0.7069	0.094	0.9191	0.058
Mof_H 	H 	0.6946	0.0954	0.9409	0.022
Mof_C 	C 	0.7259	0.1238	0.9084	-0.203
Mof_C 	C 	0.7409	0.1217	0.8749	0.075
Mof_H 	H 	0.7529	0.1415	0.8653	0.019
Mof_C 	C 	0.6852	0.0306	0.9142	0.108
Mof_C 	C 	0.6544	0.0316	0.9342	-0.137
Mof_H 	H 	0.6416	0.0528	0.9374	0.084
Mof_C 	C 	0.6847	0.0883	0.7328	0.34
Mof_C 	C 	0.646	0.0921	0.7273	-0.103
Mof_C 	C 	0.6267	0.1229	0.7319	0.078
Mof_H 	H 	0.6377	0.1429	0.7422	0.022
Mof_C 	C 	0.5915	0.1249	0.7218	-0.165
Mof_C 	C 	0.5765	0.0951	0.7065	0.04
Mof_H 	H 	0.5525	0.096	0.6992	0.032
Mof_C 	C 	0.5951	0.0639	0.7013	-0.046
Mof_C 	C 	0.6311	0.0624	0.708	0.012
Mof_H 	H 	0.6447	0.0397	0.7036	0.054
Mof_C 	C 	0.579	0.0292	0.6883	0.109
Mof_C 	C 	0.5451	0.0301	0.6745	-0.137
Mof_H 	H 	0.5302	0.0499	0.6774	0.082
Mof_C 	C 	0.5694	0.1575	0.7282	0.534
Mof_C 	C 	0.7243	0.1595	0.9221	0.548
Mof_O 	O 	0.7689	0.0281	0.7321	-0.607
Mof_Gd	Gd	0.25616	0.58863	0.24423	1.815
Mof_O 	O 	0.2574	0.6172	0.2989	-0.415
Mof_O 	O 	0.2448	0.5609	0.2983	-0.398
Mof_O 	O 	0.2004	0.6166	0.2408	-0.433
Mof_O 	O 	0.2003	0.5599	0.2336	-0.393
Mof_O 	O 	0.0879	0.6814	0.2387	-0.51
Mof_O 	O 	0.0379	0.6576	0.223	-0.489
Mof_O 	O 	0.2458	0.6814	0.4131	-0.535
Mof_O 	O 	0.2005	0.665	0.4423	-0.538
Mof_C 	C 	0.2476	0.5888	0.3169	0.294
Mof_C 	C 	0.2385	0.5906	0.3556	-0.095
Mof_C 	C 	0.2192	0.5609	0.3664	0.008
Mof_H 	H 	0.2164	0.5408	0.3517	0.057
Mof_C 	C 	0.2044	0.5625	0.4002	-0.053
Mof_C 	C 	0.2069	0.594	0.4191	0.06
Mof_H 	H 	0.1946	0.5954	0.4409	0.02
Mof_C 	C 	0.2259	0.6238	0.4084	-0.206
Mof_C 	C 	0.2409	0.6217	0.3749	0.076
Mof_H 	H 	0.2529	0.6415	0.3653	0.018
Mof_C 	C 	0.1852	0.5306	0.4142	0.111
Mof_C 	C 	0.1544	0.5316	0.4342	-0.144
Mof_H 	H 	0.1416	0.5528	0.4374	0.085
Mof_C 	C 	0.1847	0.5883	0.2328	0.34
Mof_C 	C 	0.146	0.5921	0.2273	-0.103
Mof_C 	C 	0.1267	0.6229	0.2319	0.078
Mof_H 	H 	0.1377	0.6429	0.2422	0.022
Mof_C 	C 	0.0915	0.6249	0.2218	-0.165
Mof_C 	C 	0.0765	0.5951	0.2065	0.041
Mof_H 	H 	0.0525	0.596	0.1992	0.031
Mof_C 	C 	0.0951	0.5639	0.2013	-0.047
Mof_C 	C 	0.1311	0.5624	0.208	0.013
Mof_H 	H 	0.1447	0.5397	0.2036	0.055
Mof_C 	C 	0.079	0.5292	0.1883	0.113
Mof_C 	C 	0.0451	0.5301	0.1745	-0.145
Mof_H 	H 	0.0302	0.5499	0.1774	0.083
Mof_C 	C 	0.0694	0.6575	0.2282	0.534
Mof_C 	C 	0.2243	0.6595	0.4221	0.549
Mof_O 	O 	0.2689	0.5281	0.2321	-0.611
Mof_Gd	Gd	0.24384	0.91137	0.74423	1.814
Mof_O 	O 	0.2426	0.8828	0.7989	-0.415
Mof_O 	O 	0.2552	0.9391	0.7983	-0.396
Mof_O 	O 	0.2996	0.8834	0.7408	-0.432
Mof_O 	O 	0.2997	0.9401	0.7336	-0.391
Mof_O 	O 	0.4121	0.8186	0.7387	-0.51
Mof_O 	O 	0.4621	0.8424	0.723	-0.489
Mof_O 	O 	0.2542	0.8186	0.9131	-0.533
Mof_O 	O 	0.2995	0.835	0.9423	-0.533
Mof_C 	C 	0.2524	0.9112	0.8169	0.293
Mof_C 	C 	0.2615	0.9094	0.8556	-0.093
Mof_C 	C 	0.2808	0.9391	0.8664	0.008
Mof_H 	H 	0.2836	0.9592	0.8517	0.059
Mof_C 	C 	0.2956	0.9375	0.9002	-0.051
Mof_C 	C 	0.2931	0.906	0.9191	0.059
Mof_H 	H 	0.3054	0.9046	0.9409	0.023
Mof_C 	C 	0.2741	0.8762	0.9084	-0.203
Mof_C 	C 	0.2591	0.8783	0.8749	0.075
Mof_H 	H 	0.2471	0.8585	0.8653	0.019
Mof_C 	C 	0.3148	0.9694	0.9142	0.114
Mof_C 	C 	0.3456	0.9684	0.9342	-0.129
Mof_H 	H 	0.3584	0.9472	0.9374	0.083
Mof_C 	C 	0.3153	0.9117	0.7328	0.339
Mof_C 	C 	0.354	0.9079	0.7273	-0.102
Mof_C 	C 	0.3733	0.8771	0.7319	0.077
Mof_H 	H 	0.3623	0.8571	0.7422	0.022
Mof_C 	C 	0.4085	0.8751	0.7218	-0.164
Mof_C 	C 	0.4235	0.9049	0.7065	0.04
Mof_H 	H 	0.4475	0.904	0.6992	0.033
Mof_C 	C 	0.4049	0.9361	0.7013	-0.045
Mof_C 	C 	0.3689	0.9376	0.708	0.013
Mof_H 	H 	0.3553	0.9603	0.7036	0.057
Mof_C 	C 	0.421	0.9708	0.6883	0.115
Mof_C 	C 	0.4549	0.9699	0.6745	-0.128
Mof_H 	H 	0.4698	0.9501	0.6774	0.081
Mof_C 	C 	0.4306	0.8425	0.7282	0.534
Mof_C 	C 	0.2757	0.8405	0.9221	0.548
Mof_O 	O 	0.2311	0.9719	0.7321	-0.6
Mof_Gd	Gd	0.74384	0.41137	0.24423	1.815
Mof_O 	O 	0.7426	0.3828	0.2989	-0.415
Mof_O 	O 	0.7552	0.4391	0.2983	-0.398
Mof_O 	O 	0.7996	0.3834	0.2408	-0.432
Mof_O 	O 	0.7997	0.4401	0.2336	-0.392
Mof_O 	O 	0.9121	0.3186	0.2387	-0.51
Mof_O 	O 	0.9621	0.3424	0.223	-0.483
Mof_O 	O 	0.7542	0.3186	0.4131	-0.535
Mof_O 	O 	0.7995	0.335	0.4423	-0.538
Mof_C 	C 	0.7524	0.4112	0.3169	0.294
Mof_C 	C 	0.7615	0.4094	0.3556	-0.095
Mof_C 	C 	0.7808	0.4391	0.3664	0.008
Mof_H 	H 	0.7836	0.4592	0.3517	0.057
Mof_C 	C 	0.7956	0.4375	0.4002	-0.053
Mof_C 	C 	0.7931	0.406	0.4191	0.06
Mof_H 	H 	0.8054	0.4046	0.4409	0.02
Mof_C 	C 	0.7741	0.3762	0.4084	-0.206
Mof_C 	C 	0.7591	0.3783	0.3749	0.076
Mof_H 	H 	0.7471	0.3585	0.3653	0.018
Mof_C 	C 	0.8148	0.4694	0.4142	0.111
Mof_C 	C 	0.8456	0.4684	0.4342	-0.144
Mof_H 	H 	0.8584	0.4472	0.4374	0.086
Mof_C 	C 	0.8153	0.4117	0.2328	0.339
Mof_C 	C 	0.854	0.4079	0.2273	-0.102
Mof_C 	C 	0.8733	0.3771	0.2319	0.077
Mof_H 	H 	0.8623	0.3571	0.2422	0.022
Mof_C 	C 	0.9085	0.3751	0.2218	-0.163
Mof_C 	C 	0.9235	0.4049	0.2065	0.039
Mof_H 	H 	0.9475	0.404	0.1992	0.034
Mof_C 	C 	0.9049	0.4361	0.2013	-0.045
Mof_C 	C 	0.8689	0.4376	0.208	0.012
Mof_H 	H 	0.8553	0.4603	0.2036	0.055
Mof_C 	C 	0.921	0.4708	0.1883	0.112
Mof_C 	C 	0.9549	0.4699	0.1745	-0.138
Mof_H 	H 	0.9698	0.4501	0.1774	0.085
Mof_C 	C 	0.9306	0.3425	0.2282	0.532
Mof_C 	C 	0.7757	0.3405	0.4221	0.549
Mof_O 	O 	0.7311	0.4719	0.2321	-0.611
Mof_Gd	Gd	0.24384	0.08863	0.25577	1.813
Mof_O 	O 	0.2426	0.1172	0.2011	-0.416
Mof_O 	O 	0.2552	0.0609	0.2017	-0.399
Mof_O 	O 	0.2996	0.1166	0.2592	-0.432
Mof_O 	O 	0.2997	0.0599	0.2664	-0.394
Mof_O 	O 	0.4121	0.1814	0.2613	-0.511
Mof_O 	O 	0.4621	0.1576	0.277	-0.489
Mof_O 	O 	0.2542	0.1814	0.0869	-0.535
Mof_O 	O 	0.2995	0.165	0.0577	-0.536
Mof_C 	C 	0.2524	0.0888	0.1831	0.293
Mof_C 	C 	0.2615	0.0906	0.1444	-0.096
Mof_C 	C 	0.2808	0.0609	0.1336	0.008
Mof_H 	H 	0.2836	0.0408	0.1483	0.055
Mof_C 	C 	0.2956	0.0625	0.0998	-0.053
Mof_C 	C 	0.2931	0.094	0.0809	0.059
Mof_H 	H 	0.3054	0.0954	0.0591	0.019
Mof_C 	C 	0.2741	0.1238	0.0916	-0.206
Mof_C 	C 	0.2591	0.1217	0.1251	0.076
Mof_H 	H 	0.2471	0.1415	0.1347	0.018
Mof_C 	C 	0.3148	0.0306	0.0858	0.107
Mof_C 	C 	0.3456	0.0316	0.0658	-0.139
Mof_H 	H 	0.3584	0.0528	0.0626	0.082
Mof_C 	C 	0.3153	0.0883	0.2672	0.34
Mof_C 	C 	0.354	0.0921	0.2727	-0.103
Mof_C 	C 	0.3733	0.1229	0.2681	0.078
Mof_H 	H 	0.3623	0.1429	0.2578	0.022
Mof_C 	C 	0.4085	0.1249	0.2782	-0.165
Mof_C 	C 	0.4235	0.0951	0.2935	0.04
Mof_H 	H 	0.4475	0.096	0.3008	0.032
Mof_C 	C 	0.4049	0.0639	0.2987	-0.046
Mof_C 	C 	0.3689	0.0624	0.292	0.012
Mof_H 	H 	0.3553	0.0397	0.2964	0.054
Mof_C 	C 	0.421	0.0292	0.3117	0.109
Mof_C 	C 	0.4549	0.0301	0.3255	-0.137
Mof_H 	H 	0.4698	0.0499	0.3226	0.082
Mof_C 	C 	0.4306	0.1575	0.2718	0.534
Mof_C 	C 	0.2757	0.1595	0.0779	0.548
Mof_O 	O 	0.2311	0.0281	0.2679	-0.607
Mof_Gd	Gd	0.74384	0.58863	0.75577	1.815
Mof_O 	O 	0.7426	0.6172	0.7011	-0.416
Mof_O 	O 	0.7552	0.5609	0.7017	-0.398
Mof_O 	O 	0.7996	0.6166	0.7592	-0.432
Mof_O 	O 	0.7997	0.5599	0.7664	-0.392
Mof_O 	O 	0.9121	0.6814	0.7613	-0.51
Mof_O 	O 	0.9621	0.6576	0.777	-0.483
Mof_O 	O 	0.7542	0.6814	0.5869	-0.535
Mof_O 	O 	0.7995	0.665	0.5577	-0.538
Mof_C 	C 	0.7524	0.5888	0.6831	0.294
Mof_C 	C 	0.7615	0.5906	0.6444	-0.095
Mof_C 	C 	0.7808	0.5609	0.6336	0.008
Mof_H 	H 	0.7836	0.5408	0.6483	0.057
Mof_C 	C 	0.7956	0.5625	0.5998	-0.053
Mof_C 	C 	0.7931	0.594	0.5809	0.06
Mof_H 	H 	0.8054	0.5954	0.5591	0.02
Mof_C 	C 	0.7741	0.6238	0.5916	-0.206
Mof_C 	C 	0.7591	0.6217	0.6251	0.076
Mof_H 	H 	0.7471	0.6415	0.6347	0.018
Mof_C 	C 	0.8148	0.5306	0.5858	0.111
Mof_C 	C 	0.8456	0.5316	0.5658	-0.144
Mof_H 	H 	0.8584	0.5528	0.5626	0.086
Mof_C 	C 	0.8153	0.5883	0.7672	0.339
Mof_C 	C 	0.854	0.5921	0.7727	-0.102
Mof_C 	C 	0.8733	0.6229	0.7681	0.077
Mof_H 	H 	0.8623	0.6429	0.7578	0.022
Mof_C 	C 	0.9085	0.6249	0.7782	-0.163
Mof_C 	C 	0.9235	0.5951	0.7935	0.039
Mof_H 	H 	0.9475	0.596	0.8008	0.034
Mof_C 	C 	0.9049	0.5639	0.7987	-0.044
Mof_C 	C 	0.8689	0.5624	0.792	0.012
Mof_H 	H 	0.8553	0.5397	0.7964	0.055
Mof_C 	C 	0.921	0.5292	0.8117	0.112
Mof_C 	C 	0.9549	0.5301	0.8255	-0.138
Mof_H 	H 	0.9698	0.5499	0.8226	0.085
Mof_C 	C 	0.9306	0.6575	0.7718	0.532
Mof_C 	C 	0.7757	0.6595	0.5779	0.549
Mof_O 	O 	0.7311	0.5281	0.7679	-0.611
Mof_Gd	Gd	0.75616	0.91137	0.25577	1.814
Mof_O 	O 	0.7574	0.8828	0.2011	-0.415
Mof_O 	O 	0.7448	0.9391	0.2017	-0.396
Mof_O 	O 	0.7004	0.8834	0.2592	-0.432
Mof_O 	O 	0.7003	0.9401	0.2664	-0.391
Mof_O 	O 	0.5879	0.8186	0.2613	-0.51
Mof_O 	O 	0.5379	0.8424	0.277	-0.489
Mof_O 	O 	0.7458	0.8186	0.0869	-0.534
Mof_O 	O 	0.7005	0.835	0.0577	-0.536
Mof_C 	C 	0.7476	0.9112	0.1831	0.293
Mof_C 	C 	0.7385	0.9094	0.1444	-0.094
Mof_C 	C 	0.7192	0.9391	0.1336	0.008
Mof_H 	H 	0.7164	0.9592	0.1483	0.059
Mof_C 	C 	0.7044	0.9375	0.0998	-0.052
Mof_C 	C 	0.7069	0.906	0.0809	0.059
Mof_H 	H 	0.6946	0.9046	0.0591	0.02
Mof_C 	C 	0.7259	0.8762	0.0916	-0.205
Mof_C 	C 	0.7409	0.8783	0.1251	0.076
Mof_H 	H 	0.7529	0.8585	0.1347	0.018
Mof_C 	C 	0.6852	0.9694	0.0858	0.114
Mof_C 	C 	0.6544	0.9684	0.0658	-0.131
Mof_H 	H 	0.6416	0.9472	0.0626	0.082
Mof_C 	C 	0.6847	0.9117	0.2672	0.339
Mof_C 	C 	0.646	0.9079	0.2727	-0.102
Mof_C 	C 	0.6267	0.8771	0.2681	0.077
Mof_H 	H 	0.6377	0.8571	0.2578	0.022
Mof_C 	C 	0.5915	0.8751	0.2782	-0.164
Mof_C 	C 	0.5765	0.9049	0.2935	0.04
Mof_H 	H 	0.5525	0.904	0.3008	0.032
Mof_C 	C 	0.5951	0.9361	0.2987	-0.045
Mof_C 	C 	0.6311	0.9376	0.292	0.013
Mof_H 	H 	0.6447	0.9603	0.2964	0.057
Mof_C 	C 	0.579	0.9708	0.3117	0.115
Mof_C 	C 	0.5451	0.9699	0.3255	-0.128
Mof_H 	H 	0.5302	0.9501	0.3226	0.081
Mof_C 	C 	0.5694	0.8425	0.2718	0.534
Mof_C 	C 	0.7243	0.8405	0.0779	0.548
Mof_O 	O 	0.7689	0.9719	0.2679	-0.6
Mof_Gd	Gd	0.25616	0.41137	0.75577	1.815
Mof_O 	O 	0.2574	0.3828	0.7011	-0.415
Mof_O 	O 	0.2448	0.4391	0.7017	-0.398
Mof_O 	O 	0.2004	0.3834	0.7592	-0.433
Mof_O 	O 	0.2003	0.4401	0.7664	-0.393
Mof_O 	O 	0.0879	0.3186	0.7613	-0.51
Mof_O 	O 	0.0379	0.3424	0.777	-0.489
Mof_O 	O 	0.2458	0.3186	0.5869	-0.535
Mof_O 	O 	0.2005	0.335	0.5577	-0.538
Mof_C 	C 	0.2476	0.4112	0.6831	0.294
Mof_C 	C 	0.2385	0.4094	0.6444	-0.095
Mof_C 	C 	0.2192	0.4391	0.6336	0.008
Mof_H 	H 	0.2164	0.4592	0.6483	0.057
Mof_C 	C 	0.2044	0.4375	0.5998	-0.053
Mof_C 	C 	0.2069	0.406	0.5809	0.06
Mof_H 	H 	0.1946	0.4046	0.5591	0.02
Mof_C 	C 	0.2259	0.3762	0.5916	-0.206
Mof_C 	C 	0.2409	0.3783	0.6251	0.076
Mof_H 	H 	0.2529	0.3585	0.6347	0.018
Mof_C 	C 	0.1852	0.4694	0.5858	0.111
Mof_C 	C 	0.1544	0.4684	0.5658	-0.144
Mof_H 	H 	0.1416	0.4472	0.5626	0.085
Mof_C 	C 	0.1847	0.4117	0.7672	0.34
Mof_C 	C 	0.146	0.4079	0.7727	-0.103
Mof_C 	C 	0.1267	0.3771	0.7681	0.078
Mof_H 	H 	0.1377	0.3571	0.7578	0.022
Mof_C 	C 	0.0915	0.3751	0.7782	-0.165
Mof_C 	C 	0.0765	0.4049	0.7935	0.041
Mof_H 	H 	0.0525	0.404	0.8008	0.031
Mof_C 	C 	0.0951	0.4361	0.7987	-0.047
Mof_C 	C 	0.1311	0.4376	0.792	0.013
Mof_H 	H 	0.1447	0.4603	0.7964	0.055
Mof_C 	C 	0.079	0.4708	0.8117	0.113
Mof_C 	C 	0.0451	0.4699	0.8255	-0.145
Mof_H 	H 	0.0302	0.4501	0.8226	0.083
Mof_C 	C 	0.0694	0.3425	0.7718	0.534
Mof_C 	C 	0.2243	0.3405	0.5779	0.549
Mof_O 	O 	0.2689	0.4719	0.7679	-0.611
Mof_Gd	Gd	0.74423	0.75616	0.08863	1.813
Mof_O 	O 	0.7989	0.7574	0.1172	-0.415
Mof_O 	O 	0.7983	0.7448	0.0609	-0.399
Mof_O 	O 	0.7408	0.7004	0.1166	-0.433
Mof_O 	O 	0.7336	0.7003	0.0599	-0.394
Mof_O 	O 	0.7387	0.5879	0.1814	-0.511
Mof_O 	O 	0.723	0.5379	0.1576	-0.489
Mof_O 	O 	0.9131	0.7458	0.1814	-0.533
Mof_O 	O 	0.9423	0.7005	0.165	-0.533
Mof_C 	C 	0.8169	0.7476	0.0888	0.293
Mof_C 	C 	0.8556	0.7385	0.0906	-0.095
Mof_C 	C 	0.8664	0.7192	0.0609	0.007
Mof_H 	H 	0.8517	0.7164	0.0408	0.056
Mof_C 	C 	0.9002	0.7044	0.0625	-0.052
Mof_C 	C 	0.9191	0.7069	0.094	0.058
Mof_H 	H 	0.9409	0.6946	0.0954	0.022
Mof_C 	C 	0.9084	0.7259	0.1238	-0.203
Mof_C 	C 	0.8749	0.7409	0.1217	0.075
Mof_H 	H 	0.8653	0.7529	0.1415	0.019
Mof_C 	C 	0.9142	0.6852	0.0306	0.108
Mof_C 	C 	0.9342	0.6544	0.0316	-0.137
Mof_H 	H 	0.9374	0.6416	0.0528	0.084
Mof_C 	C 	0.7328	0.6847	0.0883	0.34
Mof_C 	C 	0.7273	0.646	0.0921	-0.103
Mof_C 	C 	0.7319	0.6267	0.1229	0.078
Mof_H 	H 	0.7422	0.6377	0.1429	0.022
Mof_C 	C 	0.7218	0.5915	0.1249	-0.165
Mof_C 	C 	0.7065	0.5765	0.0951	0.04
Mof_H 	H 	0.6992	0.5525	0.096	0.032
Mof_C 	C 	0.7013	0.5951	0.0639	-0.046
Mof_C 	C 	0.708	0.6311	0.0624	0.012
Mof_H 	H 	0.7036	0.6447	0.0397	0.054
Mof_C 	C 	0.6883	0.579	0.0292	0.109
Mof_C 	C 	0.6745	0.5451	0.0301	-0.137
Mof_H 	H 	0.6774	0.5302	0.0499	0.082
Mof_C 	C 	0.7282	0.5694	0.1575	0.534
Mof_C 	C 	0.9221	0.7243	0.1595	0.548
Mof_O 	O 	0.7321	0.7689	0.0281	-0.607
Mof_Gd	Gd	0.24423	0.25616	0.58863	1.815
Mof_O 	O 	0.2989	0.2574	0.6172	-0.415
Mof_O 	O 	0.2983	0.2448	0.5609	-0.398
Mof_O 	O 	0.2408	0.2004	0.6166	-0.433
Mof_O 	O 	0.2336	0.2003	0.5599	-0.393
Mof_O 	O 	0.2387	0.0879	0.6814	-0.51
Mof_O 	O 	0.223	0.0379	0.6576	-0.489
Mof_O 	O 	0.4131	0.2458	0.6814	-0.535
Mof_O 	O 	0.4423	0.2005	0.665	-0.538
Mof_C 	C 	0.3169	0.2476	0.5888	0.294
Mof_C 	C 	0.3556	0.2385	0.5906	-0.095
Mof_C 	C 	0.3664	0.2192	0.5609	0.008
Mof_H 	H 	0.3517	0.2164	0.5408	0.057
Mof_C 	C 	0.4002	0.2044	0.5625	-0.053
Mof_C 	C 	0.4191	0.2069	0.594	0.06
Mof_H 	H 	0.4409	0.1946	0.5954	0.02
Mof_C 	C 	0.4084	0.2259	0.6238	-0.206
Mof_C 	C 	0.3749	0.2409	0.6217	0.076
Mof_H 	H 	0.3653	0.2529	0.6415	0.018
Mof_C 	C 	0.4142	0.1852	0.5306	0.111
Mof_C 	C 	0.4342	0.1544	0.5316	-0.144
Mof_H 	H 	0.4374	0.1416	0.5528	0.085
Mof_C 	C 	0.2328	0.1847	0.5883	0.34
Mof_C 	C 	0.2273	0.146	0.5921	-0.103
Mof_C 	C 	0.2319	0.1267	0.6229	0.078
Mof_H 	H 	0.2422	0.1377	0.6429	0.022
Mof_C 	C 	0.2218	0.0915	0.6249	-0.165
Mof_C 	C 	0.2065	0.0765	0.5951	0.041
Mof_H 	H 	0.1992	0.0525	0.596	0.031
Mof_C 	C 	0.2013	0.0951	0.5639	-0.047
Mof_C 	C 	0.208	0.1311	0.5624	0.013
Mof_H 	H 	0.2036	0.1447	0.5397	0.055
Mof_C 	C 	0.1883	0.079	0.5292	0.113
Mof_C 	C 	0.1745	0.0451	0.5301	-0.145
Mof_H 	H 	0.1774	0.0302	0.5499	0.083
Mof_C 	C 	0.2282	0.0694	0.6575	0.534
Mof_C 	C 	0.4221	0.2243	0.6595	0.549
Mof_O 	O 	0.2321	0.2689	0.5281	-0.611
Mof_Gd	Gd	0.74423	0.24384	0.91137	1.814
Mof_O 	O 	0.7989	0.2426	0.8828	-0.415
Mof_O 	O 	0.7983	0.2552	0.9391	-0.396
Mof_O 	O 	0.7408	0.2996	0.8834	-0.432
Mof_O 	O 	0.7336	0.2997	0.9401	-0.391
Mof_O 	O 	0.7387	0.4121	0.8186	-0.51
Mof_O 	O 	0.723	0.4621	0.8424	-0.489
Mof_O 	O 	0.9131	0.2542	0.8186	-0.533
Mof_O 	O 	0.9423	0.2995	0.835	-0.533
Mof_C 	C 	0.8169	0.2524	0.9112	0.293
Mof_C 	C 	0.8556	0.2615	0.9094	-0.093
Mof_C 	C 	0.8664	0.2808	0.9391	0.008
Mof_H 	H 	0.8517	0.2836	0.9592	0.059
Mof_C 	C 	0.9002	0.2956	0.9375	-0.051
Mof_C 	C 	0.9191	0.2931	0.906	0.059
Mof_H 	H 	0.9409	0.3054	0.9046	0.023
Mof_C 	C 	0.9084	0.2741	0.8762	-0.203
Mof_C 	C 	0.8749	0.2591	0.8783	0.075
Mof_H 	H 	0.8653	0.2471	0.8585	0.019
Mof_C 	C 	0.9142	0.3148	0.9694	0.114
Mof_C 	C 	0.9342	0.3456	0.9684	-0.129
Mof_H 	H 	0.9374	0.3584	0.9472	0.083
Mof_C 	C 	0.7328	0.3153	0.9117	0.339
Mof_C 	C 	0.7273	0.354	0.9079	-0.102
Mof_C 	C 	0.7319	0.3733	0.8771	0.077
Mof_H 	H 	0.7422	0.3623	0.8571	0.022
Mof_C 	C 	0.7218	0.4085	0.8751	-0.164
Mof_C 	C 	0.7065	0.4235	0.9049	0.04
Mof_H 	H 	0.6992	0.4475	0.904	0.033
Mof_C 	C 	0.7013	0.4049	0.9361	-0.045
Mof_C 	C 	0.708	0.3689	0.9376	0.013
Mof_H 	H 	0.7036	0.3553	0.9603	0.057
Mof_C 	C 	0.6883	0.421	0.9708	0.115
Mof_C 	C 	0.6745	0.4549	0.9699	-0.128
Mof_H 	H 	0.6774	0.4698	0.9501	0.081
Mof_C 	C 	0.7282	0.4306	0.8425	0.534
Mof_C 	C 	0.9221	0.2757	0.8405	0.548
Mof_O 	O 	0.7321	0.2311	0.9719	-0.6
Mof_Gd	Gd	0.24423	0.74384	0.41137	1.815
Mof_O 	O 	0.2989	0.7426	0.3828	-0.415
Mof_O 	O 	0.2983	0.7552	0.4391	-0.398
Mof_O 	O 	0.2408	0.7996	0.3834	-0.432
Mof_O 	O 	0.2336	0.7997	0.4401	-0.392
Mof_O 	O 	0.2387	0.9121	0.3186	-0.51
Mof_O 	O 	0.223	0.9621	0.3424	-0.483
Mof_O 	O 	0.4131	0.7542	0.3186	-0.535
Mof_O 	O 	0.4423	0.7995	0.335	-0.538
Mof_C 	C 	0.3169	0.7524	0.4112	0.294
Mof_C 	C 	0.3556	0.7615	0.4094	-0.095
Mof_C 	C 	0.3664	0.7808	0.4391	0.008
Mof_H 	H 	0.3517	0.7836	0.4592	0.057
Mof_C 	C 	0.4002	0.7956	0.4375	-0.053
Mof_C 	C 	0.4191	0.7931	0.406	0.06
Mof_H 	H 	0.4409	0.8054	0.4046	0.02
Mof_C 	C 	0.4084	0.7741	0.3762	-0.206
Mof_C 	C 	0.3749	0.7591	0.3783	0.076
Mof_H 	H 	0.3653	0.7471	0.3585	0.018
Mof_C 	C 	0.4142	0.8148	0.4694	0.111
Mof_C 	C 	0.4342	0.8456	0.4684	-0.144
Mof_H 	H 	0.4374	0.8584	0.4472	0.086
Mof_C 	C 	0.2328	0.8153	0.4117	0.339
Mof_C 	C 	0.2273	0.854	0.4079	-0.102
Mof_C 	C 	0.2319	0.8733	0.3771	0.077
Mof_H 	H 	0.2422	0.8623	0.3571	0.022
Mof_C 	C 	0.2218	0.9085	0.3751	-0.163
Mof_C 	C 	0.2065	0.9235	0.4049	0.039
Mof_H 	H 	0.1992	0.9475	0.404	0.034
Mof_C 	C 	0.2013	0.9049	0.4361	-0.045
Mof_C 	C 	0.208	0.8689	0.4376	0.012
Mof_H 	H 	0.2036	0.8553	0.4603	0.055
Mof_C 	C 	0.1883	0.921	0.4708	0.112
Mof_C 	C 	0.1745	0.9549	0.4699	-0.138
Mof_H 	H 	0.1774	0.9698	0.4501	0.085
Mof_C 	C 	0.2282	0.9306	0.3425	0.532
Mof_C 	C 	0.4221	0.7757	0.3405	0.549
Mof_O 	O 	0.2321	0.7311	0.4719	-0.611
Mof_Gd	Gd	0.25577	0.24384	0.08863	1.813
Mof_O 	O 	0.2011	0.2426	0.1172	-0.416
Mof_O 	O 	0.2017	0.2552	0.0609	-0.399
Mof_O 	O 	0.2592	0.2996	0.1166	-0.432
Mof_O 	O 	0.2664	0.2997	0.0599	-0.394
Mof_O 	O 	0.2613	0.4121	0.1814	-0.511
Mof_O 	O 	0.277	0.4621	0.1576	-0.489
Mof_O 	O 	0.0869	0.2542	0.1814	-0.535
Mof_O 	O 	0.0577	0.2995	0.165	-0.536
Mof_C 	C 	0.1831	0.2524	0.0888	0.293
Mof_C 	C 	0.1444	0.2615	0.0906	-0.096
Mof_C 	C 	0.1336	0.2808	0.0609	0.008
Mof_H 	H 	0.1483	0.2836	0.0408	0.055
Mof_C 	C 	0.0998	0.2956	0.0625	-0.053
Mof_C 	C 	0.0809	0.2931	0.094	0.059
Mof_H 	H 	0.0591	0.3054	0.0954	0.019
Mof_C 	C 	0.0916	0.2741	0.1238	-0.206
Mof_C 	C 	0.1251	0.2591	0.1217	0.076
Mof_H 	H 	0.1347	0.2471	0.1415	0.018
Mof_C 	C 	0.0858	0.3148	0.0306	0.107
Mof_C 	C 	0.0658	0.3456	0.0316	-0.139
Mof_H 	H 	0.0626	0.3584	0.0528	0.082
Mof_C 	C 	0.2672	0.3153	0.0883	0.34
Mof_C 	C 	0.2727	0.354	0.0921	-0.103
Mof_C 	C 	0.2681	0.3733	0.1229	0.078
Mof_H 	H 	0.2578	0.3623	0.1429	0.022
Mof_C 	C 	0.2782	0.4085	0.1249	-0.165
Mof_C 	C 	0.2935	0.4235	0.0951	0.04
Mof_H 	H 	0.3008	0.4475	0.096	0.032
Mof_C 	C 	0.2987	0.4049	0.0639	-0.046
Mof_C 	C 	0.292	0.3689	0.0624	0.012
Mof_H 	H 	0.2964	0.3553	0.0397	0.054
Mof_C 	C 	0.3117	0.421	0.0292	0.109
Mof_C 	C 	0.3255	0.4549	0.0301	-0.137
Mof_H 	H 	0.3226	0.4698	0.0499	0.082
Mof_C 	C 	0.2718	0.4306	0.1575	0.534
Mof_C 	C 	0.0779	0.2757	0.1595	0.548
Mof_O 	O 	0.2679	0.2311	0.0281	-0.607
Mof_Gd	Gd	0.75577	0.74384	0.58863	1.815
Mof_O 	O 	0.7011	0.7426	0.6172	-0.416
Mof_O 	O 	0.7017	0.7552	0.5609	-0.398
Mof_O 	O 	0.7592	0.7996	0.6166	-0.432
Mof_O 	O 	0.7664	0.7997	0.5599	-0.392
Mof_O 	O 	0.7613	0.9121	0.6814	-0.51
Mof_O 	O 	0.777	0.9621	0.6576	-0.483
Mof_O 	O 	0.5869	0.7542	0.6814	-0.535
Mof_O 	O 	0.5577	0.7995	0.665	-0.538
Mof_C 	C 	0.6831	0.7524	0.5888	0.294
Mof_C 	C 	0.6444	0.7615	0.5906	-0.095
Mof_C 	C 	0.6336	0.7808	0.5609	0.008
Mof_H 	H 	0.6483	0.7836	0.5408	0.057
Mof_C 	C 	0.5998	0.7956	0.5625	-0.053
Mof_C 	C 	0.5809	0.7931	0.594	0.06
Mof_H 	H 	0.5591	0.8054	0.5954	0.02
Mof_C 	C 	0.5916	0.7741	0.6238	-0.206
Mof_C 	C 	0.6251	0.7591	0.6217	0.076
Mof_H 	H 	0.6347	0.7471	0.6415	0.018
Mof_C 	C 	0.5858	0.8148	0.5306	0.111
Mof_C 	C 	0.5658	0.8456	0.5316	-0.144
Mof_H 	H 	0.5626	0.8584	0.5528	0.086
Mof_C 	C 	0.7672	0.8153	0.5883	0.339
Mof_C 	C 	0.7727	0.854	0.5921	-0.102
Mof_C 	C 	0.7681	0.8733	0.6229	0.077
Mof_H 	H 	0.7578	0.8623	0.6429	0.022
Mof_C 	C 	0.7782	0.9085	0.6249	-0.163
Mof_C 	C 	0.7935	0.9235	0.5951	0.039
Mof_H 	H 	0.8008	0.9475	0.596	0.034
Mof_C 	C 	0.7987	0.9049	0.5639	-0.044
Mof_C 	C 	0.792	0.8689	0.5624	0.012
Mof_H 	H 	0.7964	0.8553	0.5397	0.055
Mof_C 	C 	0.8117	0.921	0.5292	0.112
Mof_C 	C 	0.8255	0.9549	0.5301	-0.138
Mof_H 	H 	0.8226	0.9698	0.5499	0.085
Mof_C 	C 	0.7718	0.9306	0.6575	0.532
Mof_C 	C 	0.5779	0.7757	0.6595	0.549
Mof_O 	O 	0.7679	0.7311	0.5281	-0.611
Mof_Gd	Gd	0.25577	0.75616	0.91137	1.814
Mof_O 	O 	0.2011	0.7574	0.8828	-0.415
Mof_O 	O 	0.2017	0.7448	0.9391	-0.396
Mof_O 	O 	0.2592	0.7004	0.8834	-0.432
Mof_O 	O 	0.2664	0.7003	0.9401	-0.391
Mof_O 	O 	0.2613	0.5879	0.8186	-0.51
Mof_O 	O 	0.277	0.5379	0.8424	-0.489
Mof_O 	O 	0.0869	0.7458	0.8186	-0.534
Mof_O 	O 	0.0577	0.7005	0.835	-0.536
Mof_C 	C 	0.1831	0.7476	0.9112	0.293
Mof_C 	C 	0.1444	0.7385	0.9094	-0.094
Mof_C 	C 	0.1336	0.7192	0.9391	0.008
Mof_H 	H 	0.1483	0.7164	0.9592	0.059
Mof_C 	C 	0.0998	0.7044	0.9375	-0.052
Mof_C 	C 	0.0809	0.7069	0.906	0.059
Mof_H 	H 	0.0591	0.6946	0.9046	0.02
Mof_C 	C 	0.0916	0.7259	0.8762	-0.205
Mof_C 	C 	0.1251	0.7409	0.8783	0.076
Mof_H 	H 	0.1347	0.7529	0.8585	0.018
Mof_C 	C 	0.0858	0.6852	0.9694	0.114
Mof_C 	C 	0.0658	0.6544	0.9684	-0.131
Mof_H 	H 	0.0626	0.6416	0.9472	0.082
Mof_C 	C 	0.2672	0.6847	0.9117	0.339
Mof_C 	C 	0.2727	0.646	0.9079	-0.102
Mof_C 	C 	0.2681	0.6267	0.8771	0.077
Mof_H 	H 	0.2578	0.6377	0.8571	0.022
Mof_C 	C 	0.2782	0.5915	0.8751	-0.164
Mof_C 	C 	0.2935	0.5765	0.9049	0.04
Mof_H 	H 	0.3008	0.5525	0.904	0.032
Mof_C 	C 	0.2987	0.5951	0.9361	-0.045
Mof_C 	C 	0.292	0.6311	0.9376	0.013
Mof_H 	H 	0.2964	0.6447	0.9603	0.057
Mof_C 	C 	0.3117	0.579	0.9708	0.115
Mof_C 	C 	0.3255	0.5451	0.9699	-0.128
Mof_H 	H 	0.3226	0.5302	0.9501	0.081
Mof_C 	C 	0.2718	0.5694	0.8425	0.534
Mof_C 	C 	0.0779	0.7243	0.8405	0.548
Mof_O 	O 	0.2679	0.7689	0.9719	-0.6
Mof_Gd	Gd	0.75577	0.25616	0.41137	1.815
Mof_O 	O 	0.7011	0.2574	0.3828	-0.415
Mof_O 	O 	0.7017	0.2448	0.4391	-0.398
Mof_O 	O 	0.7592	0.2004	0.3834	-0.433
Mof_O 	O 	0.7664	0.2003	0.4401	-0.393
Mof_O 	O 	0.7613	0.0879	0.3186	-0.51
Mof_O 	O 	0.777	0.0379	0.3424	-0.489
Mof_O 	O 	0.5869	0.2458	0.3186	-0.535
Mof_O 	O 	0.5577	0.2005	0.335	-0.538
Mof_C 	C 	0.6831	0.2476	0.4112	0.294
Mof_C 	C 	0.6444	0.2385	0.4094	-0.095
Mof_C 	C 	0.6336	0.2192	0.4391	0.008
Mof_H 	H 	0.6483	0.2164	0.4592	0.057
Mof_C 	C 	0.5998	0.2044	0.4375	-0.053
Mof_C 	C 	0.5809	0.2069	0.406	0.06
Mof_H 	H 	0.5591	0.1946	0.4046	0.02
Mof_C 	C 	0.5916	0.2259	0.3762	-0.206
Mof_C 	C 	0.6251	0.2409	0.3783	0.076
Mof_H 	H 	0.6347	0.2529	0.3585	0.018
Mof_C 	C 	0.5858	0.1852	0.4694	0.111
Mof_C 	C 	0.5658	0.1544	0.4684	-0.144
Mof_H 	H 	0.5626	0.1416	0.4472	0.085
Mof_C 	C 	0.7672	0.1847	0.4117	0.34
Mof_C 	C 	0.7727	0.146	0.4079	-0.103
Mof_C 	C 	0.7681	0.1267	0.3771	0.078
Mof_H 	H 	0.7578	0.1377	0.3571	0.022
Mof_C 	C 	0.7782	0.0915	0.3751	-0.165
Mof_C 	C 	0.7935	0.0765	0.4049	0.041
Mof_H 	H 	0.8008	0.0525	0.404	0.031
Mof_C 	C 	0.7987	0.0951	0.4361	-0.047
Mof_C 	C 	0.792	0.1311	0.4376	0.013
Mof_H 	H 	0.7964	0.1447	0.4603	0.055
Mof_C 	C 	0.8117	0.079	0.4708	0.113
Mof_C 	C 	0.8255	0.0451	0.4699	-0.145
Mof_H 	H 	0.8226	0.0302	0.4501	0.083
Mof_C 	C 	0.7718	0.0694	0.3425	0.534
Mof_C 	C 	0.5779	0.2243	0.3405	0.549
Mof_O 	O 	0.7679	0.2689	0.4719	-0.611
Mof_Gd	Gd	0.08863	0.74423	0.75616	1.813
Mof_O 	O 	0.1172	0.7989	0.7574	-0.415
Mof_O 	O 	0.0609	0.7983	0.7448	-0.399
Mof_O 	O 	0.1166	0.7408	0.7004	-0.433
Mof_O 	O 	0.0599	0.7336	0.7003	-0.394
Mof_O 	O 	0.1814	0.7387	0.5879	-0.511
Mof_O 	O 	0.1576	0.723	0.5379	-0.489
Mof_O 	O 	0.1814	0.9131	0.7458	-0.533
Mof_O 	O 	0.165	0.9423	0.7005	-0.533
Mof_C 	C 	0.0888	0.8169	0.7476	0.293
Mof_C 	C 	0.0906	0.8556	0.7385	-0.095
Mof_C 	C 	0.0609	0.8664	0.7192	0.007
Mof_H 	H 	0.0408	0.8517	0.7164	0.056
Mof_C 	C 	0.0625	0.9002	0.7044	-0.052
Mof_C 	C 	0.094	0.9191	0.7069	0.058
Mof_H 	H 	0.0954	0.9409	0.6946	0.022
Mof_C 	C 	0.1238	0.9084	0.7259	-0.203
Mof_C 	C 	0.1217	0.8749	0.7409	0.075
Mof_H 	H 	0.1415	0.8653	0.7529	0.019
Mof_C 	C 	0.0306	0.9142	0.6852	0.108
Mof_C 	C 	0.0316	0.9342	0.6544	-0.137
Mof_H 	H 	0.0528	0.9374	0.6416	0.084
Mof_C 	C 	0.0883	0.7328	0.6847	0.34
Mof_C 	C 	0.0921	0.7273	0.646	-0.103
Mof_C 	C 	0.1229	0.7319	0.6267	0.078
Mof_H 	H 	0.1429	0.7422	0.6377	0.022
Mof_C 	C 	0.1249	0.7218	0.5915	-0.165
Mof_C 	C 	0.0951	0.7065	0.5765	0.04
Mof_H 	H 	0.096	0.6992	0.5525	0.032
Mof_C 	C 	0.0639	0.7013	0.5951	-0.046
Mof_C 	C 	0.0624	0.708	0.6311	0.012
Mof_H 	H 	0.0397	0.7036	0.6447	0.054
Mof_C 	C 	0.0292	0.6883	0.579	0.109
Mof_C 	C 	0.0301	0.6745	0.5451	-0.137
Mof_H 	H 	0.0499	0.6774	0.5302	0.082
Mof_C 	C 	0.1575	0.7282	0.5694	0.534
Mof_C 	C 	0.1595	0.9221	0.7243	0.548
Mof_O 	O 	0.0281	0.7321	0.7689	-0.607
Mof_Gd	Gd	0.58863	0.24423	0.25616	1.815
Mof_O 	O 	0.6172	0.2989	0.2574	-0.415
Mof_O 	O 	0.5609	0.2983	0.2448	-0.398
Mof_O 	O 	0.6166	0.2408	0.2004	-0.433
Mof_O 	O 	0.5599	0.2336	0.2003	-0.393
Mof_O 	O 	0.6814	0.2387	0.0879	-0.51
Mof_O 	O 	0.6576	0.223	0.0379	-0.489
Mof_O 	O 	0.6814	0.4131	0.2458	-0.535
Mof_O 	O 	0.665	0.4423	0.2005	-0.538
Mof_C 	C 	0.5888	0.3169	0.2476	0.294
Mof_C 	C 	0.5906	0.3556	0.2385	-0.095
Mof_C 	C 	0.5609	0.3664	0.2192	0.008
Mof_H 	H 	0.5408	0.3517	0.2164	0.057
Mof_C 	C 	0.5625	0.4002	0.2044	-0.053
Mof_C 	C 	0.594	0.4191	0.2069	0.06
Mof_H 	H 	0.5954	0.4409	0.1946	0.02
Mof_C 	C 	0.6238	0.4084	0.2259	-0.206
Mof_C 	C 	0.6217	0.3749	0.2409	0.076
Mof_H 	H 	0.6415	0.3653	0.2529	0.018
Mof_C 	C 	0.5306	0.4142	0.1852	0.111
Mof_C 	C 	0.5316	0.4342	0.1544	-0.144
Mof_H 	H 	0.5528	0.4374	0.1416	0.085
Mof_C 	C 	0.5883	0.2328	0.1847	0.34
Mof_C 	C 	0.5921	0.2273	0.146	-0.103
Mof_C 	C 	0.6229	0.2319	0.1267	0.078
Mof_H 	H 	0.6429	0.2422	0.1377	0.022
Mof_C 	C 	0.6249	0.2218	0.0915	-0.165
Mof_C 	C 	0.5951	0.2065	0.0765	0.041
Mof_H 	H 	0.596	0.1992	0.0525	0.031
Mof_C 	C 	0.5639	0.2013	0.0951	-0.047
Mof_C 	C 	0.5624	0.208	0.1311	0.013
Mof_H 	H 	0.5397	0.2036	0.1447	0.055
Mof_C 	C 	0.5292	0.1883	0.079	0.113
Mof_C 	C 	0.5301	0.1745	0.0451	-0.145
Mof_H 	H 	0.5499	0.1774	0.0302	0.083
Mof_C 	C 	0.6575	0.2282	0.0694	0.534
Mof_C 	C 	0.6595	0.4221	0.2243	0.549
Mof_O 	O 	0.5281	0.2321	0.2689	-0.611
Mof_Gd	Gd	0.91137	0.74423	0.24384	1.814
Mof_O 	O 	0.8828	0.7989	0.2426	-0.415
Mof_O 	O 	0.9391	0.7983	0.2552	-0.396
Mof_O 	O 	0.8834	0.7408	0.2996	-0.432
Mof_O 	O 	0.9401	0.7336	0.2997	-0.391
Mof_O 	O 	0.8186	0.7387	0.4121	-0.51
Mof_O 	O 	0.8424	0.723	0.4621	-0.489
Mof_O 	O 	0.8186	0.9131	0.2542	-0.533
Mof_O 	O 	0.835	0.9423	0.2995	-0.533
Mof_C 	C 	0.9112	0.8169	0.2524	0.293
Mof_C 	C 	0.9094	0.8556	0.2615	-0.093
Mof_C 	C 	0.9391	0.8664	0.2808	0.008
Mof_H 	H 	0.9592	0.8517	0.2836	0.059
Mof_C 	C 	0.9375	0.9002	0.2956	-0.051
Mof_C 	C 	0.906	0.9191	0.2931	0.059
Mof_H 	H 	0.9046	0.9409	0.3054	0.023
Mof_C 	C 	0.8762	0.9084	0.2741	-0.203
Mof_C 	C 	0.8783	0.8749	0.2591	0.075
Mof_H 	H 	0.8585	0.8653	0.2471	0.019
Mof_C 	C 	0.9694	0.9142	0.3148	0.114
Mof_C 	C 	0.9684	0.9342	0.3456	-0.129
Mof_H 	H 	0.9472	0.9374	0.3584	0.083
Mof_C 	C 	0.9117	0.7328	0.3153	0.339
Mof_C 	C 	0.9079	0.7273	0.354	-0.102
Mof_C 	C 	0.8771	0.7319	0.3733	0.077
Mof_H 	H 	0.8571	0.7422	0.3623	0.022
Mof_C 	C 	0.8751	0.7218	0.4085	-0.164
Mof_C 	C 	0.9049	0.7065	0.4235	0.04
Mof_H 	H 	0.904	0.6992	0.4475	0.033
Mof_C 	C 	0.9361	0.7013	0.4049	-0.045
Mof_C 	C 	0.9376	0.708	0.3689	0.013
Mof_H 	H 	0.9603	0.7036	0.3553	0.057
Mof_C 	C 	0.9708	0.6883	0.421	0.115
Mof_C 	C 	0.9699	0.6745	0.4549	-0.128
Mof_H 	H 	0.9501	0.6774	0.4698	0.081
Mof_C 	C 	0.8425	0.7282	0.4306	0.534
Mof_C 	C 	0.8405	0.9221	0.2757	0.548
Mof_O 	O 	0.9719	0.7321	0.2311	-0.6
Mof_Gd	Gd	0.41137	0.24423	0.74384	1.815
Mof_O 	O 	0.3828	0.2989	0.7426	-0.415
Mof_O 	O 	0.4391	0.2983	0.7552	-0.398
Mof_O 	O 	0.3834	0.2408	0.7996	-0.432
Mof_O 	O 	0.4401	0.2336	0.7997	-0.392
Mof_O 	O 	0.3186	0.2387	0.9121	-0.51
Mof_O 	O 	0.3424	0.223	0.9621	-0.483
Mof_O 	O 	0.3186	0.4131	0.7542	-0.535
Mof_O 	O 	0.335	0.4423	0.7995	-0.538
Mof_C 	C 	0.4112	0.3169	0.7524	0.294
Mof_C 	C 	0.4094	0.3556	0.7615	-0.095
Mof_C 	C 	0.4391	0.3664	0.7808	0.008
Mof_H 	H 	0.4592	0.3517	0.7836	0.057
Mof_C 	C 	0.4375	0.4002	0.7956	-0.053
Mof_C 	C 	0.406	0.4191	0.7931	0.06
Mof_H 	H 	0.4046	0.4409	0.8054	0.02
Mof_C 	C 	0.3762	0.4084	0.7741	-0.206
Mof_C 	C 	0.3783	0.3749	0.7591	0.076
Mof_H 	H 	0.3585	0.3653	0.7471	0.018
Mof_C 	C 	0.4694	0.4142	0.8148	0.111
Mof_C 	C 	0.4684	0.4342	0.8456	-0.144
Mof_H 	H 	0.4472	0.4374	0.8584	0.086
Mof_C 	C 	0.4117	0.2328	0.8153	0.339
Mof_C 	C 	0.4079	0.2273	0.854	-0.102
Mof_C 	C 	0.3771	0.2319	0.8733	0.077
Mof_H 	H 	0.3571	0.2422	0.8623	0.022
Mof_C 	C 	0.3751	0.2218	0.9085	-0.163
Mof_C 	C 	0.4049	0.2065	0.9235	0.039
Mof_H 	H 	0.404	0.1992	0.9475	0.034
Mof_C 	C 	0.4361	0.2013	0.9049	-0.045
Mof_C 	C 	0.4376	0.208	0.8689	0.012
Mof_H 	H 	0.4603	0.2036	0.8553	0.055
Mof_C 	C 	0.4708	0.1883	0.921	0.112
Mof_C 	C 	0.4699	0.1745	0.9549	-0.138
Mof_H 	H 	0.4501	0.1774	0.9698	0.085
Mof_C 	C 	0.3425	0.2282	0.9306	0.532
Mof_C 	C 	0.3405	0.4221	0.7757	0.549
Mof_O 	O 	0.4719	0.2321	0.7311	-0.611
Mof_Gd	Gd	0.08863	0.25577	0.24384	1.813
Mof_O 	O 	0.1172	0.2011	0.2426	-0.416
Mof_O 	O 	0.0609	0.2017	0.2552	-0.399
Mof_O 	O 	0.1166	0.2592	0.2996	-0.432
Mof_O 	O 	0.0599	0.2664	0.2997	-0.394
Mof_O 	O 	0.1814	0.2613	0.4121	-0.511
Mof_O 	O 	0.1576	0.277	0.4621	-0.489
Mof_O 	O 	0.1814	0.0869	0.2542	-0.535
Mof_O 	O 	0.165	0.0577	0.2995	-0.536
Mof_C 	C 	0.0888	0.1831	0.2524	0.293
Mof_C 	C 	0.0906	0.1444	0.2615	-0.096
Mof_C 	C 	0.0609	0.1336	0.2808	0.008
Mof_H 	H 	0.0408	0.1483	0.2836	0.055
Mof_C 	C 	0.0625	0.0998	0.2956	-0.053
Mof_C 	C 	0.094	0.0809	0.2931	0.059
Mof_H 	H 	0.0954	0.0591	0.3054	0.019
Mof_C 	C 	0.1238	0.0916	0.2741	-0.206
Mof_C 	C 	0.1217	0.1251	0.2591	0.076
Mof_H 	H 	0.1415	0.1347	0.2471	0.018
Mof_C 	C 	0.0306	0.0858	0.3148	0.107
Mof_C 	C 	0.0316	0.0658	0.3456	-0.139
Mof_H 	H 	0.0528	0.0626	0.3584	0.082
Mof_C 	C 	0.0883	0.2672	0.3153	0.34
Mof_C 	C 	0.0921	0.2727	0.354	-0.103
Mof_C 	C 	0.1229	0.2681	0.3733	0.078
Mof_H 	H 	0.1429	0.2578	0.3623	0.022
Mof_C 	C 	0.1249	0.2782	0.4085	-0.165
Mof_C 	C 	0.0951	0.2935	0.4235	0.04
Mof_H 	H 	0.096	0.3008	0.4475	0.032
Mof_C 	C 	0.0639	0.2987	0.4049	-0.046
Mof_C 	C 	0.0624	0.292	0.3689	0.012
Mof_H 	H 	0.0397	0.2964	0.3553	0.054
Mof_C 	C 	0.0292	0.3117	0.421	0.109
Mof_C 	C 	0.0301	0.3255	0.4549	-0.137
Mof_H 	H 	0.0499	0.3226	0.4698	0.082
Mof_C 	C 	0.1575	0.2718	0.4306	0.534
Mof_C 	C 	0.1595	0.0779	0.2757	0.548
Mof_O 	O 	0.0281	0.2679	0.2311	-0.607
Mof_Gd	Gd	0.58863	0.75577	0.74384	1.815
Mof_O 	O 	0.6172	0.7011	0.7426	-0.416
Mof_O 	O 	0.5609	0.7017	0.7552	-0.398
Mof_O 	O 	0.6166	0.7592	0.7996	-0.432
Mof_O 	O 	0.5599	0.7664	0.7997	-0.392
Mof_O 	O 	0.6814	0.7613	0.9121	-0.51
Mof_O 	O 	0.6576	0.777	0.9621	-0.483
Mof_O 	O 	0.6814	0.5869	0.7542	-0.535
Mof_O 	O 	0.665	0.5577	0.7995	-0.538
Mof_C 	C 	0.5888	0.6831	0.7524	0.294
Mof_C 	C 	0.5906	0.6444	0.7615	-0.095
Mof_C 	C 	0.5609	0.6336	0.7808	0.008
Mof_H 	H 	0.5408	0.6483	0.7836	0.057
Mof_C 	C 	0.5625	0.5998	0.7956	-0.053
Mof_C 	C 	0.594	0.5809	0.7931	0.06
Mof_H 	H 	0.5954	0.5591	0.8054	0.02
Mof_C 	C 	0.6238	0.5916	0.7741	-0.206
Mof_C 	C 	0.6217	0.6251	0.7591	0.076
Mof_H 	H 	0.6415	0.6347	0.7471	0.018
Mof_C 	C 	0.5306	0.5858	0.8148	0.111
Mof_C 	C 	0.5316	0.5658	0.8456	-0.144
Mof_H 	H 	0.5528	0.5626	0.8584	0.086
Mof_C 	C 	0.5883	0.7672	0.8153	0.339
Mof_C 	C 	0.5921	0.7727	0.854	-0.102
Mof_C 	C 	0.6229	0.7681	0.8733	0.077
Mof_H 	H 	0.6429	0.7578	0.8623	0.022
Mof_C 	C 	0.6249	0.7782	0.9085	-0.163
Mof_C 	C 	0.5951	0.7935	0.9235	0.039
Mof_H 	H 	0.596	0.8008	0.9475	0.034
Mof_C 	C 	0.5639	0.7987	0.9049	-0.044
Mof_C 	C 	0.5624	0.792	0.8689	0.012
Mof_H 	H 	0.5397	0.7964	0.8553	0.055
Mof_C 	C 	0.5292	0.8117	0.921	0.112
Mof_C 	C 	0.5301	0.8255	0.9549	-0.138
Mof_H 	H 	0.5499	0.8226	0.9698	0.085
Mof_C 	C 	0.6575	0.7718	0.9306	0.532
Mof_C 	C 	0.6595	0.5779	0.7757	0.549
Mof_O 	O 	0.5281	0.7679	0.7311	-0.611
Mof_Gd	Gd	0.91137	0.25577	0.75616	1.814
Mof_O 	O 	0.8828	0.2011	0.7574	-0.415
Mof_O 	O 	0.9391	0.2017	0.7448	-0.396
Mof_O 	O 	0.8834	0.2592	0.7004	-0.432
Mof_O 	O 	0.9401	0.2664	0.7003	-0.391
Mof_O 	O 	0.8186	0.2613	0.5879	-0.51
Mof_O 	O 	0.8424	0.277	0.5379	-0.489
Mof_O 	O 	0.8186	0.0869	0.7458	-0.534
Mof_O 	O 	0.835	0.0577	0.7005	-0.536
Mof_C 	C 	0.9112	0.1831	0.7476	0.293
Mof_C 	C 	0.9094	0.1444	0.7385	-0.094
Mof_C 	C 	0.9391	0.1336	0.7192	0.008
Mof_H 	H 	0.9592	0.1483	0.7164	0.059
Mof_C 	C 	0.9375	0.0998	0.7044	-0.052
Mof_C 	C 	0.906	0.0809	0.7069	0.059
Mof_H 	H 	0.9046	0.0591	0.6946	0.02
Mof_C 	C 	0.8762	0.0916	0.7259	-0.205
Mof_C 	C 	0.8783	0.1251	0.7409	0.076
Mof_H 	H 	0.8585	0.1347	0.7529	0.018
Mof_C 	C 	0.9694	0.0858	0.6852	0.114
Mof_C 	C 	0.9684	0.0658	0.6544	-0.131
Mof_H 	H 	0.9472	0.0626	0.6416	0.082
Mof_C 	C 	0.9117	0.2672	0.6847	0.339
Mof_C 	C 	0.9079	0.2727	0.646	-0.102
Mof_C 	C 	0.8771	0.2681	0.6267	0.077
Mof_H 	H 	0.8571	0.2578	0.6377	0.022
Mof_C 	C 	0.8751	0.2782	0.5915	-0.164
Mof_C 	C 	0.9049	0.2935	0.5765	0.04
Mof_H 	H 	0.904	0.3008	0.5525	0.032
Mof_C 	C 	0.9361	0.2987	0.5951	-0.045
Mof_C 	C 	0.9376	0.292	0.6311	0.013
Mof_H 	H 	0.9603	0.2964	0.6447	0.057
Mof_C 	C 	0.9708	0.3117	0.579	0.115
Mof_C 	C 	0.9699	0.3255	0.5451	-0.128
Mof_H 	H 	0.9501	0.3226	0.5302	0.081
Mof_C 	C 	0.8425	0.2718	0.5694	0.534
Mof_C 	C 	0.8405	0.0779	0.7243	0.548
Mof_O 	O 	0.9719	0.2679	0.7689	-0.6
Mof_Gd	Gd	0.41137	0.75577	0.25616	1.815
Mof_O 	O 	0.3828	0.7011	0.2574	-0.415
Mof_O 	O 	0.4391	0.7017	0.2448	-0.398
Mof_O 	O 	0.3834	0.7592	0.2004	-0.433
Mof_O 	O 	0.4401	0.7664	0.2003	-0.393
Mof_O 	O 	0.3186	0.7613	0.0879	-0.51
Mof_O 	O 	0.3424	0.777	0.0379	-0.489
Mof_O 	O 	0.3186	0.5869	0.2458	-0.535
Mof_O 	O 	0.335	0.5577	0.2005	-0.538
Mof_C 	C 	0.4112	0.6831	0.2476	0.294
Mof_C 	C 	0.4094	0.6444	0.2385	-0.095
Mof_C 	C 	0.4391	0.6336	0.2192	0.008
Mof_H 	H 	0.4592	0.6483	0.2164	0.057
Mof_C 	C 	0.4375	0.5998	0.2044	-0.053
Mof_C 	C 	0.406	0.5809	0.2069	0.06
Mof_H 	H 	0.4046	0.5591	0.1946	0.02
Mof_C 	C 	0.3762	0.5916	0.2259	-0.206
Mof_C 	C 	0.3783	0.6251	0.2409	0.076
Mof_H 	H 	0.3585	0.6347	0.2529	0.018
Mof_C 	C 	0.4694	0.5858	0.1852	0.111
Mof_C 	C 	0.4684	0.5658	0.1544	-0.144
Mof_H 	H 	0.4472	0.5626	0.1416	0.085
Mof_C 	C 	0.4117	0.7672	0.1847	0.34
Mof_C 	C 	0.4079	0.7727	0.146	-0.103
Mof_C 	C 	0.3771	0.7681	0.1267	0.078
Mof_H 	H 	0.3571	0.7578	0.1377	0.022
Mof_C 	C 	0.3751	0.7782	0.0915	-0.165
Mof_C 	C 	0.4049	0.7935	0.0765	0.041
Mof_H 	H 	0.404	0.8008	0.0525	0.031
Mof_C 	C 	0.4361	0.7987	0.0951	-0.047
Mof_C 	C 	0.4376	0.792	0.1311	0.013
Mof_H 	H 	0.4603	0.7964	0.1447	0.055
Mof_C 	C 	0.4708	0.8117	0.079	0.113
Mof_C 	C 	0.4699	0.8255	0.0451	-0.145
Mof_H 	H 	0.4501	0.8226	0.0302	0.083
Mof_C 	C 	0.3425	0.7718	0.0694	0.534
Mof_C 	C 	0.3405	0.5779	0.2243	0.549
Mof_O 	O 	0.4719	0.7679	0.2689	-0.611
Mof_Gd	Gd	0.18663	-3.69291e-33	0.30957	1.859
Mof_O 	O 	0.1247	0	0.3372	-0.388
Mof_O 	O 	0.1586	-3.69291e-33	0.3709	-0.402
Mof_C 	C 	0.3567	0	0.0506	0.048
Mof_H 	H 	0.3716	0	0.0305	0.012
Mof_C 	C 	0.4692	0	0.3409	0.048
Mof_H 	H 	0.4881	-3.69291e-33	0.3573	0.009
Mof_C 	C 	0.2421	-1.84645e-33	0.255	0.594
Mof_H 	H 	0.2587	-1.84645e-33	0.2362	-0.151
Mof_N 	N 	0.3001	0	0.097	-0.142
Mof_N 	N 	0.4012	0	0.3103	-0.144
Mof_C 	C 	0.1269	0	0.3711	0.455
Mof_H 	H 	0.1098	-3.69291e-33	0.3894	-0.123
Mof_Gd	Gd	0.68663	0.5	0.80957	1.876
Mof_O 	O 	0.6247	0.5	0.8372	-0.386
Mof_O 	O 	0.6586	0.5	0.8709	-0.4
Mof_C 	C 	0.8567	0.5	0.5506	0.064
Mof_H 	H 	0.8716	0.5	0.5305	0.012
Mof_C 	C 	0.9692	0.5	0.8409	0.059
Mof_H 	H 	0.9881	0.5	0.8573	0.015
Mof_C 	C 	0.7421	0.5	0.755	0.609
Mof_H 	H 	0.7587	0.5	0.7362	-0.153
Mof_N 	N 	0.8001	0.5	0.597	-0.137
Mof_N 	N 	0.9012	0.5	0.8103	-0.14
Mof_C 	C 	0.6269	0.5	0.8711	0.456
Mof_H 	H 	0.6098	0.5	0.8894	-0.12
Mof_Gd	Gd	0.81337	-3.69291e-33	0.30957	1.86
Mof_O 	O 	0.8753	0	0.3372	-0.388
Mof_O 	O 	0.8414	-3.69291e-33	0.3709	-0.402
Mof_C 	C 	0.6433	0	0.0506	0.048
Mof_H 	H 	0.6284	0	0.0305	0.012
Mof_C 	C 	0.5308	0	0.3409	0.048
Mof_H 	H 	0.5119	-3.69291e-33	0.3573	0.009
Mof_C 	C 	0.7579	-1.84645e-33	0.255	0.594
Mof_H 	H 	0.7413	-1.84645e-33	0.2362	-0.151
Mof_N 	N 	0.6999	0	0.097	-0.141
Mof_N 	N 	0.5988	0	0.3103	-0.145
Mof_C 	C 	0.8731	0	0.3711	0.455
Mof_H 	H 	0.8902	-3.69291e-33	0.3894	-0.122
Mof_Gd	Gd	0.31337	0.5	0.80957	1.876
Mof_O 	O 	0.3753	0.5	0.8372	-0.386
Mof_O 	O 	0.3414	0.5	0.8709	-0.4
Mof_C 	C 	0.1433	0.5	0.5506	0.064
Mof_H 	H 	0.1284	0.5	0.5305	0.011
Mof_C 	C 	0.0308	0.5	0.8409	0.067
Mof_H 	H 	0.0119	0.5	0.8573	-0.002
Mof_C 	C 	0.2579	0.5	0.755	0.609
Mof_H 	H 	0.2413	0.5	0.7362	-0.153
Mof_N 	N 	0.1999	0.5	0.597	-0.137
Mof_N 	N 	0.0988	0.5	0.8103	-0.141
Mof_C 	C 	0.3731	0.5	0.8711	0.456
Mof_H 	H 	0.3902	0.5	0.8894	-0.12
Mof_Gd	Gd	0.81337	0	0.69043	1.86
Mof_O 	O 	0.8753	7.38581e-33	0.6628	-0.388
Mof_O 	O 	0.8414	-7.38581e-33	0.6291	-0.402
Mof_C 	C 	0.6433	7.38581e-33	0.9494	0.048
Mof_H 	H 	0.6284	0	0.9695	0.017
Mof_C 	C 	0.5308	0	0.6591	0.048
Mof_H 	H 	0.5119	0	0.6427	0.009
Mof_C 	C 	0.7579	0	0.745	0.594
Mof_H 	H 	0.7413	0	0.7638	-0.151
Mof_N 	N 	0.6999	7.38581e-33	0.903	-0.141
Mof_N 	N 	0.5988	0	0.6897	-0.145
Mof_C 	C 	0.8731	0	0.6289	0.455
Mof_H 	H 	0.8902	0	0.6106	-0.122
Mof_Gd	Gd	0.31337	0.5	0.19043	1.876
Mof_O 	O 	0.3753	0.5	0.1628	-0.387
Mof_O 	O 	0.3414	0.5	0.1291	-0.4
Mof_C 	C 	0.1433	0.5	0.4494	0.064
Mof_H 	H 	0.1284	0.5	0.4695	0.011
Mof_C 	C 	0.0308	0.5	0.1591	0.066
Mof_H 	H 	0.0119	0.5	0.1427	-0.002
Mof_C 	C 	0.2579	0.5	0.245	0.609
Mof_H 	H 	0.2413	0.5	0.2638	-0.153
Mof_N 	N 	0.1999	0.5	0.403	-0.137
Mof_N 	N 	0.0988	0.5	0.1897	-0.141
Mof_C 	C 	0.3731	0.5	0.1289	0.456
Mof_H 	H 	0.3902	0.5	0.1106	-0.121
Mof_Gd	Gd	0.18663	0	0.69043	1.86
Mof_O 	O 	0.1247	7.38581e-33	0.6628	-0.388
Mof_O 	O 	0.1586	-7.38581e-33	0.6291	-0.402
Mof_C 	C 	0.3567	7.38581e-33	0.9494	0.048
Mof_H 	H 	0.3716	0	0.9695	0.017
Mof_C 	C 	0.4692	0	0.6591	0.048
Mof_H 	H 	0.4881	0	0.6427	0.009
Mof_C 	C 	0.2421	0	0.745	0.594
Mof_H 	H 	0.2587	0	0.7638	-0.151
Mof_N 	N 	0.3001	7.38581e-33	0.903	-0.141
Mof_N 	N 	0.4012	0	0.6897	-0.144
Mof_C 	C 	0.1269	0	0.6289	0.455
Mof_H 	H 	0.1098	0	0.6106	-0.123
Mof_Gd	Gd	0.68663	0.5	0.19043	1.876
Mof_O 	O 	0.6247	0.5	0.1628	-0.387
Mof_O 	O 	0.6586	0.5	0.1291	-0.4
Mof_C 	C 	0.8567	0.5	0.4494	0.064
Mof_H 	H 	0.8716	0.5	0.4695	0.012
Mof_C 	C 	0.9692	0.5	0.1591	0.058
Mof_H 	H 	0.9881	0.5	0.1427	0.015
Mof_C 	C 	0.7421	0.5	0.245	0.609
Mof_H 	H 	0.7587	0.5	0.2638	-0.153
Mof_N 	N 	0.8001	0.5	0.403	-0.137
Mof_N 	N 	0.9012	0.5	0.1897	-0.14
Mof_C 	C 	0.6269	0.5	0.1289	0.456
Mof_H 	H 	0.6098	0.5	0.1106	-0.121
Mof_Gd	Gd	0.30957	0.18663	-0	1.859
Mof_O 	O 	0.3372	0.1247	-0	-0.388
Mof_O 	O 	0.3709	0.1586	-0	-0.402
Mof_C 	C 	0.0506	0.3567	-0	0.048
Mof_H 	H 	0.0305	0.3716	-0	0.012
Mof_C 	C 	0.3409	0.4692	-0	0.048
Mof_H 	H 	0.3573	0.4881	-0	0.009
Mof_C 	C 	0.255	0.2421	-0	0.594
Mof_H 	H 	0.2362	0.2587	-0	-0.151
Mof_N 	N 	0.097	0.3001	-0	-0.142
Mof_N 	N 	0.3103	0.4012	-0	-0.144
Mof_C 	C 	0.3711	0.1269	-0	0.455
Mof_H 	H 	0.3894	0.1098	-0	-0.123
Mof_Gd	Gd	0.80957	0.68663	0.5	1.876
Mof_O 	O 	0.8372	0.6247	0.5	-0.386
Mof_O 	O 	0.8709	0.6586	0.5	-0.4
Mof_C 	C 	0.5506	0.8567	0.5	0.064
Mof_H 	H 	0.5305	0.8716	0.5	0.012
Mof_C 	C 	0.8409	0.9692	0.5	0.059
Mof_H 	H 	0.8573	0.9881	0.5	0.015
Mof_C 	C 	0.755	0.7421	0.5	0.609
Mof_H 	H 	0.7362	0.7587	0.5	-0.153
Mof_N 	N 	0.597	0.8001	0.5	-0.137
Mof_N 	N 	0.8103	0.9012	0.5	-0.14
Mof_C 	C 	0.8711	0.6269	0.5	0.456
Mof_H 	H 	0.8894	0.6098	0.5	-0.12
Mof_Gd	Gd	0.30957	0.81337	-0	1.86
Mof_O 	O 	0.3372	0.8753	-0	-0.388
Mof_O 	O 	0.3709	0.8414	-0	-0.402
Mof_C 	C 	0.0506	0.6433	-0	0.048
Mof_H 	H 	0.0305	0.6284	-0	0.012
Mof_C 	C 	0.3409	0.5308	-0	0.048
Mof_H 	H 	0.3573	0.5119	-0	0.009
Mof_C 	C 	0.255	0.7579	-0	0.594
Mof_H 	H 	0.2362	0.7413	-0	-0.151
Mof_N 	N 	0.097	0.6999	-0	-0.141
Mof_N 	N 	0.3103	0.5988	-0	-0.145
Mof_C 	C 	0.3711	0.8731	-0	0.455
Mof_H 	H 	0.3894	0.8902	-0	-0.122
Mof_Gd	Gd	0.80957	0.31337	0.5	1.876
Mof_O 	O 	0.8372	0.3753	0.5	-0.386
Mof_O 	O 	0.8709	0.3414	0.5	-0.4
Mof_C 	C 	0.5506	0.1433	0.5	0.064
Mof_H 	H 	0.5305	0.1284	0.5	0.011
Mof_C 	C 	0.8409	0.0308	0.5	0.067
Mof_H 	H 	0.8573	0.0119	0.5	-0.002
Mof_C 	C 	0.755	0.2579	0.5	0.609
Mof_H 	H 	0.7362	0.2413	0.5	-0.153
Mof_N 	N 	0.597	0.1999	0.5	-0.137
Mof_N 	N 	0.8103	0.0988	0.5	-0.141
Mof_C 	C 	0.8711	0.3731	0.5	0.456
Mof_H 	H 	0.8894	0.3902	0.5	-0.12
Mof_Gd	Gd	0.69043	0.81337	-0	1.86
Mof_O 	O 	0.6628	0.8753	-0	-0.388
Mof_O 	O 	0.6291	0.8414	-0	-0.402
Mof_C 	C 	0.9494	0.6433	-0	0.048
Mof_H 	H 	0.9695	0.6284	-0	0.017
Mof_C 	C 	0.6591	0.5308	-0	0.048
Mof_H 	H 	0.6427	0.5119	-0	0.009
Mof_C 	C 	0.745	0.7579	-0	0.594
Mof_H 	H 	0.7638	0.7413	-0	-0.151
Mof_N 	N 	0.903	0.6999	-0	-0.141
Mof_N 	N 	0.6897	0.5988	-0	-0.145
Mof_C 	C 	0.6289	0.8731	-0	0.455
Mof_H 	H 	0.6106	0.8902	-0	-0.122
Mof_Gd	Gd	0.19043	0.31337	0.5	1.876
Mof_O 	O 	0.1628	0.3753	0.5	-0.387
Mof_O 	O 	0.1291	0.3414	0.5	-0.4
Mof_C 	C 	0.4494	0.1433	0.5	0.064
Mof_H 	H 	0.4695	0.1284	0.5	0.011
Mof_C 	C 	0.1591	0.0308	0.5	0.066
Mof_H 	H 	0.1427	0.0119	0.5	-0.002
Mof_C 	C 	0.245	0.2579	0.5	0.609
Mof_H 	H 	0.2638	0.2413	0.5	-0.153
Mof_N 	N 	0.403	0.1999	0.5	-0.137
Mof_N 	N 	0.1897	0.0988	0.5	-0.141
Mof_C 	C 	0.1289	0.3731	0.5	0.456
Mof_H 	H 	0.1106	0.3902	0.5	-0.121
Mof_Gd	Gd	0.69043	0.18663	-0	1.86
Mof_O 	O 	0.6628	0.1247	-0	-0.388
Mof_O 	O 	0.6291	0.1586	-0	-0.402
Mof_C 	C 	0.9494	0.3567	-0	0.048
Mof_H 	H 	0.9695	0.3716	-0	0.017
Mof_C 	C 	0.6591	0.4692	-0	0.048
Mof_H 	H 	0.6427	0.4881	-0	0.009
Mof_C 	C 	0.745	0.2421	-0	0.594
Mof_H 	H 	0.7638	0.2587	-0	-0.151
Mof_N 	N 	0.903	0.3001	-0	-0.141
Mof_N 	N 	0.6897	0.4012	-0	-0.144
Mof_C 	C 	0.6289	0.1269	-0	0.455
Mof_H 	H 	0.6106	0.1098	-0	-0.123
Mof_Gd	Gd	0.19043	0.68663	0.5	1.876
Mof_O 	O 	0.1628	0.6247	0.5	-0.387
Mof_O 	O 	0.1291	0.6586	0.5	-0.4
Mof_C 	C 	0.4494	0.8567	0.5	0.064
Mof_H 	H 	0.4695	0.8716	0.5	0.012
Mof_C 	C 	0.1591	0.9692	0.5	0.058
Mof_H 	H 	0.1427	0.9881	0.5	0.015
Mof_C 	C 	0.245	0.7421	0.5	0.609
Mof_H 	H 	0.2638	0.7587	0.5	-0.153
Mof_N 	N 	0.403	0.8001	0.5	-0.137
Mof_N 	N 	0.1897	0.9012	0.5	-0.14
Mof_C 	C 	0.1289	0.6269	0.5	0.456
Mof_H 	H 	0.1106	0.6098	0.5	-0.121
Mof_Gd	Gd	-4.83961e-33	0.30957	0.18663	1.859
Mof_O 	O 	-2.30213e-33	0.3372	0.1247	-0.388
Mof_O 	O 	-1.2518e-33	0.3709	0.1586	-0.402
Mof_C 	C 	-2.35549e-33	0.0506	0.3567	0.048
Mof_H 	H 	-2.29963e-33	0.0305	0.3716	0.012
Mof_C 	C 	5.45212e-33	0.3409	0.4692	0.048
Mof_H 	H 	1.83008e-33	0.3573	0.4881	0.009
Mof_C 	C 	-2.78518e-33	0.255	0.2421	0.594
Mof_H 	H 	-8.76483e-34	0.2362	0.2587	-0.151
Mof_N 	N 	1.12519e-33	0.097	0.3001	-0.142
Mof_N 	N 	5.19716e-33	0.3103	0.4012	-0.144
Mof_C 	C 	1.39903e-33	0.3711	0.1269	0.455
Mof_H 	H 	-1.43477e-33	0.3894	0.1098	-0.123
Mof_Gd	Gd	0.5	0.80957	0.68663	1.876
Mof_O 	O 	0.5	0.8372	0.6247	-0.386
Mof_O 	O 	0.5	0.8709	0.6586	-0.4
Mof_C 	C 	0.5	0.5506	0.8567	0.064
Mof_H 	H 	0.5	0.5305	0.8716	0.012
Mof_C 	C 	0.5	0.8409	0.9692	0.059
Mof_H 	H 	0.5	0.8573	0.9881	0.015
Mof_C 	C 	0.5	0.755	0.7421	0.609
Mof_H 	H 	0.5	0.7362	0.7587	-0.153
Mof_N 	N 	0.5	0.597	0.8001	-0.137
Mof_N 	N 	0.5	0.8103	0.9012	-0.14
Mof_C 	C 	0.5	0.8711	0.6269	0.456
Mof_H 	H 	0.5	0.8894	0.6098	-0.12
Mof_Gd	Gd	-4.33616e-33	0.30957	0.81337	1.86
Mof_O 	O 	-4.10396e-33	0.3372	0.8753	-0.388
Mof_O 	O 	3.15474e-33	0.3709	0.8414	-0.402
Mof_C 	C 	2.41199e-33	0.0506	0.6433	0.048
Mof_H 	H 	2.35612e-33	0.0305	0.6284	0.012
Mof_C 	C 	5.68309e-33	0.3409	0.5308	0.048
Mof_H 	H 	1.91932e-33	0.3573	0.5119	0.009
Mof_C 	C 	-4.54414e-33	0.255	0.7579	0.594
Mof_H 	H 	-1.19922e-32	0.2362	0.7413	-0.151
Mof_N 	N 	2.6242e-33	0.097	0.6999	-0.141
Mof_N 	N 	2.24514e-33	0.3103	0.5988	-0.145
Mof_C 	C 	-4.11221e-33	0.3711	0.8731	0.455
Mof_H 	H 	3.33772e-33	0.3894	0.8902	-0.122
Mof_Gd	Gd	0.5	0.80957	0.31337	1.876
Mof_O 	O 	0.5	0.8372	0.3753	-0.386
Mof_O 	O 	0.5	0.8709	0.3414	-0.4
Mof_C 	C 	0.5	0.5506	0.1433	0.064
Mof_H 	H 	0.5	0.5305	0.1284	0.011
Mof_C 	C 	0.5	0.8409	0.0308	0.067
Mof_H 	H 	0.5	0.8573	0.0119	-0.002
Mof_C 	C 	0.5	0.755	0.2579	0.609
Mof_H 	H 	0.5	0.7362	0.2413	-0.153
Mof_N 	N 	0.5	0.597	0.1999	-0.137
Mof_N 	N 	0.5	0.8103	0.0988	-0.141
Mof_C 	C 	0.5	0.8711	0.3731	0.456
Mof_H 	H 	0.5	0.8894	0.3902	-0.12
Mof_Gd	Gd	-1.91078e-32	0.69043	0.81337	1.86
Mof_O 	O 	-2.62614e-32	0.6628	0.8753	-0.388
Mof_O 	O 	-4.23107e-33	0.6291	0.8414	-0.402
Mof_C 	C 	2.41199e-33	0.9494	0.6433	0.048
Mof_H 	H 	9.74193e-33	0.9695	0.6284	0.017
Mof_C 	C 	5.68309e-33	0.6591	0.5308	0.048
Mof_H 	H 	-9.1594e-33	0.6427	0.5119	0.009
Mof_C 	C 	1.02275e-32	0.745	0.7579	0.594
Mof_H 	H 	2.77943e-33	0.7638	0.7413	-0.151
Mof_N 	N 	1.73958e-32	0.903	0.6999	-0.141
Mof_N 	N 	9.63095e-33	0.6897	0.5988	-0.145
Mof_C 	C 	-4.11221e-33	0.6289	0.8731	0.455
Mof_H 	H 	3.33772e-33	0.6106	0.8902	-0.122
Mof_Gd	Gd	0.5	0.19043	0.31337	1.876
Mof_O 	O 	0.5	0.1628	0.3753	-0.387
Mof_O 	O 	0.5	0.1291	0.3414	-0.4
Mof_C 	C 	0.5	0.4494	0.1433	0.064
Mof_H 	H 	0.5	0.4695	0.1284	0.011
Mof_C 	C 	0.5	0.1591	0.0308	0.066
Mof_H 	H 	0.5	0.1427	0.0119	-0.002
Mof_C 	C 	0.5	0.245	0.2579	0.609
Mof_H 	H 	0.5	0.2638	0.2413	-0.153
Mof_N 	N 	0.5	0.403	0.1999	-0.137
Mof_N 	N 	0.5	0.1897	0.0988	-0.141
Mof_C 	C 	0.5	0.1289	0.3731	0.456
Mof_H 	H 	0.5	0.1106	0.3902	-0.121
Mof_Gd	Gd	-1.1467e-33	0.69043	0.18663	1.86
Mof_O 	O 	1.24695e-32	0.6628	0.1247	-0.388
Mof_O 	O 	-8.63761e-33	0.6291	0.1586	-0.402
Mof_C 	C 	5.03032e-33	0.9494	0.3567	0.048
Mof_H 	H 	-5.99253e-33	0.9695	0.3716	0.017
Mof_C 	C 	5.45212e-33	0.6591	0.4692	0.048
Mof_H 	H 	5.52299e-33	0.6427	0.4881	0.009
Mof_C 	C 	6.44709e-33	0.745	0.2421	0.594
Mof_H 	H 	4.66288e-33	0.7638	0.2587	-0.151
Mof_N 	N 	1.12519e-33	0.903	0.3001	-0.141
Mof_N 	N 	5.19716e-33	0.6897	0.4012	-0.144
Mof_C 	C 	-2.29388e-33	0.6289	0.1269	0.455
Mof_H 	H 	-1.43477e-33	0.6106	0.1098	-0.123
Mof_Gd	Gd	0.5	0.19043	0.68663	1.876
Mof_O 	O 	0.5	0.1628	0.6247	-0.387
Mof_O 	O 	0.5	0.1291	0.6586	-0.4
Mof_C 	C 	0.5	0.4494	0.8567	0.064
Mof_H 	H 	0.5	0.4695	0.8716	0.012
Mof_C 	C 	0.5	0.1591	0.9692	0.058
Mof_H 	H 	0.5	0.1427	0.9881	0.015
Mof_C 	C 	0.5	0.245	0.7421	0.609
Mof_H 	H 	0.5	0.2638	0.7587	-0.153
Mof_N 	N 	0.5	0.403	0.8001	-0.137
Mof_N 	N 	0.5	0.1897	0.9012	-0.14
Mof_C 	C 	0.5	0.1289	0.6269	0.456
Mof_H 	H 	0.5	0.1106	0.6098	-0.121
_end
