data_functionalizedCrystal
_audit_creation_method	'EQeq! by Chris Wilmer'
_symmetry_space_group_name_H-M	'P1'
_symmetry_Int_Tables_number	1
_symmetry_cell_setting	triclinic
loop_
_symmetry_equiv_pos_as_xyz
  x,y,z
_cell_length_a	10.8924
_cell_length_b	10.9631
_cell_length_c	16.774
_cell_angle_alpha	90
_cell_angle_beta	90
_cell_angle_gamma	102.254
loop_
_atom_site_label
_atom_site_type_symbol
_atom_site_fract_x
_atom_site_fract_y
_atom_site_fract_z
_atom_site_charge
Mof_Tb	Tb	0.34901	0.08321	0.88764	1.857
Mof_Tb	Tb	0.15099	0.41679	0.38764	1.874
Mof_Tb	Tb	0.65099	0.91679	0.11237	1.857
Mof_Tb	Tb	0.84901	0.58321	0.61236	1.874
Mof_H 	H 	0.1773	0.7572	0.6806	-0.023
Mof_H 	H 	0.3935	0.5702	0.5577	0.018
Mof_H 	H 	0.5393	0.7913	0.739	0.024
Mof_H 	H 	0.3227	0.7428	0.1806	-0.024
Mof_H 	H 	0.1065	0.9298	0.0577	0.018
Mof_H 	H 	0.9607	0.7087	0.239	0.023
Mof_H 	H 	0.8227	0.2428	0.3194	-0.023
Mof_H 	H 	0.6065	0.4298	0.4423	0.018
Mof_H 	H 	0.4607	0.2087	0.261	0.024
Mof_H 	H 	0.6773	0.2572	0.8194	-0.024
Mof_H 	H 	0.8935	0.0702	0.9423	0.018
Mof_H 	H 	0.0393	0.2913	0.761	0.023
Mof_C 	C 	0.343	0.8786	0.788	0.335
Mof_C 	C 	0.3548	0.7878	0.7216	-0.154
Mof_C 	C 	0.2549	0.7368	0.6721	0.12
Mof_C 	C 	0.2675	0.6562	0.6104	-0.227
Mof_C 	C 	0.3846	0.6254	0.5983	0.105
Mof_C 	C 	0.4888	0.6759	0.6461	-0.153
Mof_C 	C 	0.4713	0.7566	0.7068	0.072
Mof_C 	C 	0.1585	0.6047	0.5546	0.558
Mof_C 	C 	0.6125	0.6426	0.6348	0.348
Mof_C 	C 	0.157	0.6214	0.288	0.336
Mof_C 	C 	0.1452	0.7122	0.2216	-0.155
Mof_C 	C 	0.2451	0.7632	0.1721	0.118
Mof_C 	C 	0.2325	0.8438	0.1104	-0.223
Mof_C 	C 	0.1154	0.8746	0.0983	0.102
Mof_C 	C 	0.0112	0.8241	0.1461	-0.151
Mof_C 	C 	0.0287	0.7434	0.2068	0.072
Mof_C 	C 	0.3415	0.8953	0.0546	0.544
Mof_C 	C 	0.8875	0.8574	0.1348	0.346
Mof_C 	C 	0.657	0.1214	0.212	0.335
Mof_C 	C 	0.6452	0.2122	0.2784	-0.154
Mof_C 	C 	0.7451	0.2632	0.3279	0.12
Mof_C 	C 	0.7325	0.3438	0.3896	-0.227
Mof_C 	C 	0.6154	0.3746	0.4017	0.105
Mof_C 	C 	0.5112	0.3241	0.3539	-0.153
Mof_C 	C 	0.5287	0.2434	0.2932	0.072
Mof_C 	C 	0.8415	0.3953	0.4454	0.558
Mof_C 	C 	0.3875	0.3574	0.3652	0.348
Mof_C 	C 	0.843	0.3786	0.712	0.336
Mof_C 	C 	0.8548	0.2878	0.7784	-0.155
Mof_C 	C 	0.7549	0.2368	0.8279	0.118
Mof_C 	C 	0.7675	0.1562	0.8896	-0.223
Mof_C 	C 	0.8846	0.1254	0.9017	0.102
Mof_C 	C 	0.9888	0.1759	0.8539	-0.151
Mof_C 	C 	0.9713	0.2566	0.7932	0.072
Mof_C 	C 	0.6585	0.1047	0.9454	0.544
Mof_C 	C 	0.1125	0.1426	0.8652	0.346
Mof_O 	O 	0.2438	0.9173	0.7959	-0.422
Mof_O 	O 	0.4368	0.919	0.831	-0.442
Mof_O 	O 	0.6979	0.6798	0.6844	-0.462
Mof_O 	O 	0.6297	0.5776	0.5758	-0.427
Mof_O 	O 	0.1818	0.54	0.4978	-0.559
Mof_O 	O 	0.0572	0.635	0.5681	-0.571
Mof_O 	O 	0.2562	0.5827	0.2959	-0.428
Mof_O 	O 	0.0632	0.581	0.331	-0.447
Mof_O 	O 	0.8021	0.8202	0.1844	-0.461
Mof_O 	O 	0.8703	0.9224	0.0758	-0.429
Mof_O 	O 	0.3182	0.96	0.9978	-0.543
Mof_O 	O 	0.4428	0.865	0.0681	-0.569
Mof_O 	O 	0.7562	0.0827	0.2041	-0.422
Mof_O 	O 	0.5632	0.081	0.169	-0.442
Mof_O 	O 	0.3021	0.3202	0.3156	-0.462
Mof_O 	O 	0.3703	0.4224	0.4242	-0.427
Mof_O 	O 	0.8182	0.46	0.5022	-0.559
Mof_O 	O 	0.9428	0.365	0.4319	-0.571
Mof_O 	O 	0.7438	0.4173	0.7041	-0.428
Mof_O 	O 	0.9368	0.419	0.669	-0.447
Mof_O 	O 	0.1979	0.1798	0.8156	-0.461
Mof_O 	O 	0.1297	0.0776	0.9242	-0.429
Mof_O 	O 	0.6818	0.04	0.0022	-0.543
Mof_O 	O 	0.5572	0.135	0.9319	-0.569
_end
