data_functionalizedCrystal
_audit_creation_method	'EQeq! by Chris Wilmer'
_symmetry_space_group_name_H-M	'P1'
_symmetry_Int_Tables_number	1
_symmetry_cell_setting	triclinic
loop_
_symmetry_equiv_pos_as_xyz
  x,y,z
_cell_length_a	16.1811
_cell_length_b	16.1811
_cell_length_c	30.4774
_cell_angle_alpha	90
_cell_angle_beta	90
_cell_angle_gamma	120
loop_
_atom_site_label
_atom_site_type_symbol
_atom_site_fract_x
_atom_site_fract_y
_atom_site_fract_z
_atom_site_charge
Mof_O 	O 	0.6431	0.1235	0.44678	-0.501
Mof_O 	O 	0.9723	0.6993	0.23985	-0.483
Mof_O 	O 	0.4984	0.102	0.45773	-0.578
Mof_C 	C 	0.6214	0.2571	0.44027	-0.263
Mof_C 	C 	0.686	0.4499	0.42262	0.212
Mof_N 	N 	0.7198	0.5478	0.41358	-0.208
Mof_O 	O 	0.6747	0.7898	0.56772	-0.276
Mof_O 	O 	0.6828	0.8746	0.5091	-0.47
Mof_C 	C 	0.841	0.5979	0.30593	0.182
Mof_H 	H 	0.8314	0.5691	0.2786	-0.021
Mof_C 	C 	0.5628	0.2963	0.44675	0.187
Mof_H 	H 	0.5012	0.2577	0.4573	-0.037
Mof_C 	C 	0.6862	0.586	0.48679	-0.23
Mof_H 	H 	0.6853	0.5323	0.4983	0.115
Mof_C 	C 	0.5939	0.3909	0.43787	-0.27
Mof_H 	H 	0.5531	0.4151	0.4421	0.128
Mof_C 	C 	0.7884	0.5947	0.37999	0.206
Mof_C 	C 	0.7141	0.3171	0.42548	0.175
Mof_H 	H 	0.7548	0.2927	0.4212	-0.012
Mof_C 	C 	0.6983	0.6034	0.44191	0.195
Mof_C 	C 	0.9362	0.7284	0.35449	0.179
Mof_H 	H 	0.9904	0.7869	0.36	0.034
Mof_C 	C 	0.7753	0.5525	0.33852	-0.253
Mof_H 	H 	0.7218	0.4933	0.3331	0.124
Mof_C 	C 	0.6927	0.6807	0.42487	-0.233
Mof_H 	H 	0.6952	0.6902	0.3947	0.12
Mof_C 	C 	0.6754	0.6477	0.51434	0.137
Mof_H 	H 	0.6674	0.6354	0.5443	-0.006
Mof_C 	C 	0.5858	0.1544	0.44913	0.511
Mof_C 	C 	0.8696	0.6828	0.38739	-0.238
Mof_H 	H 	0.8793	0.7115	0.4148	0.14
Mof_C 	C 	0.9923	0.7311	0.27646	0.615
Mof_O 	O 	0.0759	0.7996	0.28713	-0.494
Mof_H 	H 	0.1416	0.8137	0.2893	0.248
Mof_C 	C 	0.6772	0.8031	0.52661	0.451
Mof_C 	C 	0.7462	0.4119	0.41714	-0.26
Mof_H 	H 	0.8087	0.4512	0.4078	0.134
Mof_C 	C 	0.9221	0.6869	0.31313	-0.251
Mof_C 	C 	0.6835	0.7426	0.45249	0.15
Mof_H 	H 	0.6819	0.7949	0.4408	-0.002
Mof_C 	C 	0.6765	0.7286	0.49756	-0.204
Mof_O 	O 	0.8765	0.5196	0.11345	-0.455
Mof_O 	O 	0.3007	0.273	0.90652	-0.518
Mof_O 	O 	0.898	0.3964	0.1244	-0.532
Mof_C 	C 	0.7429	0.3643	0.10694	-0.245
Mof_C 	C 	0.5501	0.2361	0.08929	0.199
Mof_N 	N 	0.4522	0.172	0.08025	-0.21
Mof_O 	O 	0.2102	0.8849	0.23439	-0.267
Mof_O 	O 	0.1254	0.8082	0.17577	-0.506
Mof_C 	C 	0.4021	0.2431	0.9726	0.163
Mof_H 	H 	0.4309	0.2623	0.94527	-0.021
Mof_C 	C 	0.7037	0.2665	0.11342	0.169
Mof_H 	H 	0.7423	0.2435	0.12397	-0.032
Mof_C 	C 	0.414	0.1002	0.15346	-0.218
Mof_H 	H 	0.4677	0.153	0.16497	0.106
Mof_C 	C 	0.6091	0.203	0.10454	-0.256
Mof_H 	H 	0.5849	0.138	0.10877	0.11
Mof_C 	C 	0.4053	0.1937	0.04666	0.195
Mof_C 	C 	0.6829	0.397	0.09215	0.16
Mof_H 	H 	0.7073	0.4621	0.08787	-0.009
Mof_C 	C 	0.3966	0.0949	0.10858	0.208
Mof_C 	C 	0.2716	0.2078	0.02116	0.154
Mof_H 	H 	0.2131	0.2035	0.02667	-0.005
Mof_C 	C 	0.4475	0.2228	0.00519	-0.25
Mof_H 	H 	0.5067	0.2285	0.99977	0.117
Mof_C 	C 	0.3193	0.012	0.09154	-0.354
Mof_H 	H 	0.3098	0.005	0.06137	0.133
Mof_C 	C 	0.3523	0.0277	0.18101	0.04
Mof_H 	H 	0.3646	0.032	0.21097	0.006
Mof_C 	C 	0.8456	0.4314	0.1158	0.496
Mof_C 	C 	0.3172	0.1868	0.05406	-0.24
Mof_H 	H 	0.2885	0.1678	0.08147	0.118
Mof_C 	C 	0.2689	0.2612	0.94313	0.526
Mof_O 	O 	0.2004	0.2763	0.9538	-0.435
Mof_H 	H 	0.1863	0.3279	0.95597	0.224
Mof_C 	C 	0.1969	0.8741	0.19328	0.443
Mof_C 	C 	0.5881	0.3343	0.08381	-0.247
Mof_H 	H 	0.5488	0.3575	0.07447	0.123
Mof_C 	C 	0.3131	0.2352	0.9798	-0.248
Mof_C 	C 	0.2574	0.9409	0.11916	0.248
Mof_H 	H 	0.2051	0.887	0.10747	-0.034
Mof_C 	C 	0.2714	0.9479	0.16423	-0.156
Mof_O 	O 	0.4804	0.3569	0.78011	-0.507
Mof_O 	O 	0.727	0.0277	0.57318	-0.486
Mof_O 	O 	0.6036	0.5016	0.79106	-0.594
Mof_C 	C 	0.6357	0.3786	0.7736	-0.273
Mof_C 	C 	0.7639	0.314	0.75595	0.217
Mof_N 	N 	0.828	0.2802	0.74691	-0.202
Mof_O 	O 	0.1151	0.3253	0.90105	-0.32
Mof_O 	O 	0.1918	0.3172	0.84243	-0.533
Mof_C 	C 	0.7569	0.159	0.63926	0.142
Mof_H 	H 	0.7377	0.1686	0.61193	-0.009
Mof_C 	C 	0.7335	0.4372	0.78008	0.2
Mof_H 	H 	0.7565	0.4988	0.79063	-0.042
Mof_C 	C 	0.8998	0.3138	0.82012	-0.253
Mof_H 	H 	0.847	0.3147	0.83163	0.126
Mof_C 	C 	0.797	0.4061	0.7712	-0.279
Mof_H 	H 	0.862	0.4469	0.77543	0.143
Mof_C 	C 	0.8063	0.2116	0.71332	0.19
Mof_C 	C 	0.603	0.2859	0.75881	0.179
Mof_H 	H 	0.5379	0.2452	0.75453	-0.022
Mof_C 	C 	0.9051	0.3017	0.77524	0.182
Mof_C 	C 	0.7922	0.0638	0.68782	0.132
Mof_H 	H 	0.7965	0.0096	0.69333	-0.004
Mof_C 	C 	0.7772	0.2247	0.67185	-0.229
Mof_H 	H 	0.7715	0.2782	0.66643	0.118
Mof_C 	C 	0.988	0.3073	0.7582	-0.126
Mof_H 	H 	0.995	0.3048	0.72803	0.103
Mof_C 	C 	0.9723	0.3246	0.84767	0.237
Mof_H 	H 	0.968	0.3326	0.87763	-0.021
Mof_C 	C 	0.5686	0.4142	0.78246	0.526
Mof_C 	C 	0.8132	0.1304	0.72072	-0.223
Mof_H 	H 	0.8322	0.1207	0.74813	0.118
Mof_C 	C 	0.7388	0.0077	0.60979	0.424
Mof_O 	O 	0.7237	0.9241	0.62046	-0.33
Mof_H 	H 	0.6721	0.8584	0.62263	0.214
Mof_C 	C 	0.1259	0.3228	0.85994	0.474
Mof_C 	C 	0.6657	0.2538	0.75047	-0.265
Mof_H 	H 	0.6425	0.1913	0.74113	0.12
Mof_C 	C 	0.7648	0.0779	0.64646	-0.207
Mof_C 	C 	0.0591	0.3165	0.78582	0.051
Mof_H 	H 	0.113	0.3181	0.77413	0.012
Mof_C 	C 	0.0521	0.3235	0.83089	-0.279
Mof_O 	O 	0.3569	0.8765	0.44678	-0.455
Mof_O 	O 	0.0277	0.3007	0.23985	-0.49
Mof_O 	O 	0.5016	0.898	0.45773	-0.534
Mof_C 	C 	0.3786	0.7429	0.44027	-0.248
Mof_C 	C 	0.314	0.5501	0.42262	0.204
Mof_N 	N 	0.2802	0.4522	0.41358	-0.204
Mof_O 	O 	0.3253	0.2102	0.56772	-0.296
Mof_O 	O 	0.3172	0.1254	0.5091	-0.516
Mof_C 	C 	0.159	0.4021	0.30593	0.139
Mof_H 	H 	0.1686	0.4309	0.2786	-0.011
Mof_C 	C 	0.4372	0.7037	0.44675	0.176
Mof_H 	H 	0.4988	0.7423	0.4573	-0.033
Mof_C 	C 	0.3138	0.414	0.48679	-0.235
Mof_H 	H 	0.3147	0.4677	0.4983	0.115
Mof_C 	C 	0.4061	0.6091	0.43787	-0.261
Mof_H 	H 	0.4469	0.5849	0.4421	0.124
Mof_C 	C 	0.2116	0.4053	0.37999	0.186
Mof_C 	C 	0.2859	0.6829	0.42548	0.162
Mof_H 	H 	0.2452	0.7073	0.4212	-0.014
Mof_C 	C 	0.3017	0.3966	0.44191	0.193
Mof_C 	C 	0.0638	0.2716	0.35449	0.128
Mof_H 	H 	0.0096	0.2131	0.36	-0.016
Mof_C 	C 	0.2247	0.4475	0.33852	-0.233
Mof_H 	H 	0.2782	0.5067	0.3331	0.115
Mof_C 	C 	0.3073	0.3193	0.42487	-0.239
Mof_H 	H 	0.3048	0.3098	0.3947	0.116
Mof_C 	C 	0.3246	0.3523	0.51434	0.136
Mof_H 	H 	0.3326	0.3646	0.5443	-0.007
Mof_C 	C 	0.4142	0.8456	0.44913	0.498
Mof_C 	C 	0.1304	0.3172	0.38739	-0.227
Mof_H 	H 	0.1207	0.2885	0.4148	0.11
Mof_C 	C 	0.0077	0.2689	0.27646	0.42
Mof_O 	O 	0.9241	0.2004	0.28713	-0.341
Mof_H 	H 	0.8584	0.1863	0.2893	0.209
Mof_C 	C 	0.3228	0.1969	0.52661	0.453
Mof_C 	C 	0.2538	0.5881	0.41714	-0.25
Mof_H 	H 	0.1913	0.5488	0.4078	0.116
Mof_C 	C 	0.0779	0.3131	0.31313	-0.215
Mof_C 	C 	0.3165	0.2574	0.45249	0.145
Mof_H 	H 	0.3181	0.2051	0.4408	-0.011
Mof_C 	C 	0.3235	0.2714	0.49756	-0.217
Mof_O 	O 	0.1235	0.4804	0.11345	-0.5
Mof_O 	O 	0.6993	0.727	0.90652	-0.509
Mof_O 	O 	0.102	0.6036	0.1244	-0.579
Mof_C 	C 	0.2571	0.6357	0.10694	-0.266
Mof_C 	C 	0.4499	0.7639	0.08929	0.217
Mof_N 	N 	0.5478	0.828	0.08025	-0.203
Mof_O 	O 	0.7898	0.1151	0.23439	-0.305
Mof_O 	O 	0.8746	0.1918	0.17577	-0.479
Mof_C 	C 	0.5979	0.7569	0.9726	0.17
Mof_H 	H 	0.5691	0.7377	0.94527	-0.018
Mof_C 	C 	0.2963	0.7335	0.11342	0.194
Mof_H 	H 	0.2577	0.7565	0.12397	-0.038
Mof_C 	C 	0.586	0.8998	0.15346	-0.247
Mof_H 	H 	0.5323	0.847	0.16497	0.124
Mof_C 	C 	0.3909	0.797	0.10454	-0.275
Mof_H 	H 	0.4151	0.862	0.10877	0.142
Mof_C 	C 	0.5947	0.8063	0.04666	0.202
Mof_C 	C 	0.3171	0.603	0.09215	0.176
Mof_H 	H 	0.2927	0.5379	0.08787	-0.018
Mof_C 	C 	0.6034	0.9051	0.10858	0.181
Mof_C 	C 	0.7284	0.7922	0.02116	0.164
Mof_H 	H 	0.7869	0.7965	0.02667	0.019
Mof_C 	C 	0.5525	0.7772	0.00519	-0.244
Mof_H 	H 	0.4933	0.7715	0.99977	0.124
Mof_C 	C 	0.6807	0.988	0.09154	-0.119
Mof_H 	H 	0.6902	0.995	0.06137	0.103
Mof_C 	C 	0.6477	0.9723	0.18101	0.233
Mof_H 	H 	0.6354	0.968	0.21097	-0.018
Mof_C 	C 	0.1544	0.5686	0.1158	0.512
Mof_C 	C 	0.6828	0.8132	0.05406	-0.233
Mof_H 	H 	0.7115	0.8322	0.08147	0.135
Mof_C 	C 	0.7311	0.7388	0.94313	0.535
Mof_O 	O 	0.7996	0.7237	0.9538	-0.413
Mof_H 	H 	0.8137	0.6721	0.95597	0.234
Mof_C 	C 	0.8031	0.1259	0.19328	0.46
Mof_C 	C 	0.4119	0.6657	0.08381	-0.263
Mof_H 	H 	0.4512	0.6425	0.07447	0.127
Mof_C 	C 	0.6869	0.7648	0.9798	-0.234
Mof_C 	C 	0.7426	0.0591	0.11916	0.047
Mof_H 	H 	0.7949	0.113	0.10747	0.021
Mof_C 	C 	0.7286	0.0521	0.16423	-0.265
Mof_O 	O 	0.5196	0.6431	0.78011	-0.507
Mof_O 	O 	0.273	0.9723	0.57318	-0.488
Mof_O 	O 	0.3964	0.4984	0.79106	-0.592
Mof_C 	C 	0.3643	0.6214	0.7736	-0.267
Mof_C 	C 	0.2361	0.686	0.75595	0.208
Mof_N 	N 	0.172	0.7198	0.74691	-0.213
Mof_O 	O 	0.8849	0.6747	0.90105	-0.263
Mof_O 	O 	0.8082	0.6828	0.84243	-0.513
Mof_C 	C 	0.2431	0.841	0.63926	0.18
Mof_H 	H 	0.2623	0.8314	0.61193	-0.023
Mof_C 	C 	0.2665	0.5628	0.78008	0.186
Mof_H 	H 	0.2435	0.5012	0.79063	-0.041
Mof_C 	C 	0.1002	0.6862	0.82012	-0.22
Mof_H 	H 	0.153	0.6853	0.83163	0.108
Mof_C 	C 	0.203	0.5939	0.7712	-0.269
Mof_H 	H 	0.138	0.5531	0.77543	0.114
Mof_C 	C 	0.1937	0.7884	0.71332	0.203
Mof_C 	C 	0.397	0.7141	0.75881	0.177
Mof_H 	H 	0.4621	0.7548	0.75453	-0.012
Mof_C 	C 	0.0949	0.6983	0.77524	0.212
Mof_C 	C 	0.2078	0.9362	0.68782	0.175
Mof_H 	H 	0.2035	0.9904	0.69333	0.022
Mof_C 	C 	0.2228	0.7753	0.67185	-0.258
Mof_H 	H 	0.2285	0.7218	0.66643	0.121
Mof_C 	C 	0.012	0.6927	0.7582	-0.356
Mof_H 	H 	0.005	0.6952	0.72803	0.137
Mof_C 	C 	0.0277	0.6754	0.84767	0.049
Mof_H 	H 	0.032	0.6674	0.87763	0.004
Mof_C 	C 	0.4314	0.5858	0.78246	0.524
Mof_C 	C 	0.1868	0.8696	0.72072	-0.243
Mof_H 	H 	0.1678	0.8793	0.74813	0.132
Mof_C 	C 	0.2612	0.9923	0.60979	0.611
Mof_O 	O 	0.2763	0.0759	0.62046	-0.506
Mof_H 	H 	0.3279	0.1416	0.62263	0.243
Mof_C 	C 	0.8741	0.6772	0.85994	0.457
Mof_C 	C 	0.3343	0.7462	0.75047	-0.26
Mof_H 	H 	0.3575	0.8087	0.74113	0.134
Mof_C 	C 	0.2352	0.9221	0.64646	-0.259
Mof_C 	C 	0.9409	0.6835	0.78582	0.256
Mof_H 	H 	0.887	0.6819	0.77413	-0.033
Mof_C 	C 	0.9479	0.6765	0.83089	-0.16
Mof_O 	O 	0.1235	0.6431	0.21989	-0.5
Mof_O 	O 	0.6993	0.9723	0.42682	-0.483
Mof_O 	O 	0.102	0.4984	0.20894	-0.578
Mof_C 	C 	0.2571	0.6214	0.2264	-0.263
Mof_C 	C 	0.4499	0.686	0.24405	0.212
Mof_N 	N 	0.5478	0.7198	0.25309	-0.208
Mof_O 	O 	0.7898	0.6747	0.09895	-0.276
Mof_O 	O 	0.8746	0.6828	0.15757	-0.469
Mof_C 	C 	0.5979	0.841	0.36074	0.182
Mof_H 	H 	0.5691	0.8314	0.38807	-0.021
Mof_C 	C 	0.2963	0.5628	0.21992	0.187
Mof_H 	H 	0.2577	0.5012	0.20937	-0.037
Mof_C 	C 	0.586	0.6862	0.17988	-0.23
Mof_H 	H 	0.5323	0.6853	0.16837	0.115
Mof_C 	C 	0.3909	0.5939	0.2288	-0.27
Mof_H 	H 	0.4151	0.5531	0.22457	0.128
Mof_C 	C 	0.5947	0.7884	0.28668	0.206
Mof_C 	C 	0.3171	0.7141	0.24119	0.175
Mof_H 	H 	0.2927	0.7548	0.24547	-0.012
Mof_C 	C 	0.6034	0.6983	0.22476	0.195
Mof_C 	C 	0.7284	0.9362	0.31218	0.179
Mof_H 	H 	0.7869	0.9904	0.30667	0.034
Mof_C 	C 	0.5525	0.7753	0.32815	-0.253
Mof_H 	H 	0.4933	0.7218	0.33357	0.124
Mof_C 	C 	0.6807	0.6927	0.2418	-0.233
Mof_H 	H 	0.6902	0.6952	0.27197	0.12
Mof_C 	C 	0.6477	0.6754	0.15233	0.137
Mof_H 	H 	0.6354	0.6674	0.12237	-0.006
Mof_C 	C 	0.1544	0.5858	0.21754	0.511
Mof_C 	C 	0.6828	0.8696	0.27928	-0.238
Mof_H 	H 	0.7115	0.8793	0.25187	0.14
Mof_C 	C 	0.7311	0.9923	0.39021	0.614
Mof_O 	O 	0.7996	0.0759	0.37954	-0.494
Mof_H 	H 	0.8137	0.1416	0.37737	0.248
Mof_C 	C 	0.8031	0.6772	0.14006	0.451
Mof_C 	C 	0.4119	0.7462	0.24953	-0.26
Mof_H 	H 	0.4512	0.8087	0.25887	0.134
Mof_C 	C 	0.6869	0.9221	0.35354	-0.251
Mof_C 	C 	0.7426	0.6835	0.21418	0.149
Mof_H 	H 	0.7949	0.6819	0.22587	-0.002
Mof_C 	C 	0.7286	0.6765	0.16911	-0.204
Mof_O 	O 	0.5196	0.8765	0.55322	-0.455
Mof_O 	O 	0.273	0.3007	0.76015	-0.519
Mof_O 	O 	0.3964	0.898	0.54227	-0.533
Mof_C 	C 	0.3643	0.7429	0.55973	-0.245
Mof_C 	C 	0.2361	0.5501	0.57738	0.199
Mof_N 	N 	0.172	0.4522	0.58642	-0.21
Mof_O 	O 	0.8849	0.2102	0.43228	-0.266
Mof_O 	O 	0.8082	0.1254	0.4909	-0.506
Mof_C 	C 	0.2431	0.4021	0.69407	0.165
Mof_H 	H 	0.2623	0.4309	0.7214	-0.021
Mof_C 	C 	0.2665	0.7037	0.55325	0.169
Mof_H 	H 	0.2435	0.7423	0.5427	-0.032
Mof_C 	C 	0.1002	0.414	0.51321	-0.218
Mof_H 	H 	0.153	0.4677	0.5017	0.106
Mof_C 	C 	0.203	0.6091	0.56213	-0.256
Mof_H 	H 	0.138	0.5849	0.5579	0.11
Mof_C 	C 	0.1937	0.4053	0.62001	0.196
Mof_C 	C 	0.397	0.6829	0.57452	0.16
Mof_H 	H 	0.4621	0.7073	0.5788	-0.009
Mof_C 	C 	0.0949	0.3966	0.55809	0.208
Mof_C 	C 	0.2078	0.2716	0.64551	0.155
Mof_H 	H 	0.2035	0.2131	0.64	-0.005
Mof_C 	C 	0.2228	0.4475	0.66148	-0.252
Mof_H 	H 	0.2285	0.5067	0.6669	0.118
Mof_C 	C 	0.012	0.3193	0.57513	-0.354
Mof_H 	H 	0.005	0.3098	0.6053	0.134
Mof_C 	C 	0.0277	0.3523	0.48566	0.04
Mof_H 	H 	0.032	0.3646	0.4557	0.006
Mof_C 	C 	0.4314	0.8456	0.55087	0.496
Mof_C 	C 	0.1868	0.3172	0.61261	-0.241
Mof_H 	H 	0.1678	0.2885	0.5852	0.118
Mof_C 	C 	0.2612	0.2689	0.72354	0.526
Mof_O 	O 	0.2763	0.2004	0.71287	-0.436
Mof_H 	H 	0.3279	0.1863	0.7107	0.224
Mof_C 	C 	0.8741	0.1969	0.47339	0.443
Mof_C 	C 	0.3343	0.5881	0.58286	-0.247
Mof_H 	H 	0.3575	0.5488	0.5922	0.123
Mof_C 	C 	0.2352	0.3131	0.68687	-0.249
Mof_C 	C 	0.9409	0.2574	0.54751	0.248
Mof_H 	H 	0.887	0.2051	0.5592	-0.034
Mof_C 	C 	0.9479	0.2714	0.50244	-0.155
Mof_O 	O 	0.3569	0.4804	0.88655	-0.507
Mof_O 	O 	0.0277	0.727	0.09348	-0.485
Mof_O 	O 	0.5016	0.6036	0.8756	-0.594
Mof_C 	C 	0.3786	0.6357	0.89306	-0.273
Mof_C 	C 	0.314	0.7639	0.91071	0.218
Mof_N 	N 	0.2802	0.828	0.91975	-0.202
Mof_O 	O 	0.3253	0.1151	0.76561	-0.321
Mof_O 	O 	0.3172	0.1918	0.82423	-0.533
Mof_C 	C 	0.159	0.7569	0.0274	0.139
Mof_H 	H 	0.1686	0.7377	0.05473	-0.008
Mof_C 	C 	0.4372	0.7335	0.88658	0.2
Mof_H 	H 	0.4988	0.7565	0.87603	-0.042
Mof_C 	C 	0.3138	0.8998	0.84654	-0.254
Mof_H 	H 	0.3147	0.847	0.83503	0.126
Mof_C 	C 	0.4061	0.797	0.89546	-0.279
Mof_H 	H 	0.4469	0.862	0.89123	0.143
Mof_C 	C 	0.2116	0.8063	0.95334	0.189
Mof_C 	C 	0.2859	0.603	0.90785	0.18
Mof_H 	H 	0.2452	0.5379	0.91213	-0.022
Mof_C 	C 	0.3017	0.9051	0.89142	0.182
Mof_C 	C 	0.0638	0.7922	0.97884	0.133
Mof_H 	H 	0.0096	0.7965	0.97333	-0.004
Mof_C 	C 	0.2247	0.7772	0.99481	-0.225
Mof_H 	H 	0.2782	0.7715	0.00023	0.116
Mof_C 	C 	0.3073	0.988	0.90846	-0.125
Mof_H 	H 	0.3048	0.995	0.93863	0.103
Mof_C 	C 	0.3246	0.9723	0.81899	0.239
Mof_H 	H 	0.3326	0.968	0.78903	-0.021
Mof_C 	C 	0.4142	0.5686	0.8842	0.526
Mof_C 	C 	0.1304	0.8132	0.94594	-0.222
Mof_H 	H 	0.1207	0.8322	0.91853	0.119
Mof_C 	C 	0.0077	0.7388	0.05687	0.424
Mof_O 	O 	0.9241	0.7237	0.0462	-0.33
Mof_H 	H 	0.8584	0.6721	0.04403	0.214
Mof_C 	C 	0.3228	0.1259	0.80672	0.475
Mof_C 	C 	0.2538	0.6657	0.91619	-0.265
Mof_H 	H 	0.1913	0.6425	0.92553	0.121
Mof_C 	C 	0.0779	0.7648	0.0202	-0.207
Mof_C 	C 	0.3165	0.0591	0.88084	0.05
Mof_H 	H 	0.3181	0.113	0.89253	0.013
Mof_C 	C 	0.3235	0.0521	0.83577	-0.281
Mof_O 	O 	0.8765	0.3569	0.21989	-0.455
Mof_O 	O 	0.3007	0.0277	0.42682	-0.49
Mof_O 	O 	0.898	0.5016	0.20894	-0.533
Mof_C 	C 	0.7429	0.3786	0.2264	-0.248
Mof_C 	C 	0.5501	0.314	0.24405	0.204
Mof_N 	N 	0.4522	0.2802	0.25309	-0.204
Mof_O 	O 	0.2102	0.3253	0.09895	-0.296
Mof_O 	O 	0.1254	0.3172	0.15757	-0.516
Mof_C 	C 	0.4021	0.159	0.36074	0.139
Mof_H 	H 	0.4309	0.1686	0.38807	-0.011
Mof_C 	C 	0.7037	0.4372	0.21992	0.176
Mof_H 	H 	0.7423	0.4988	0.20937	-0.033
Mof_C 	C 	0.414	0.3138	0.17988	-0.235
Mof_H 	H 	0.4677	0.3147	0.16837	0.115
Mof_C 	C 	0.6091	0.4061	0.2288	-0.261
Mof_H 	H 	0.5849	0.4469	0.22457	0.124
Mof_C 	C 	0.4053	0.2116	0.28668	0.186
Mof_C 	C 	0.6829	0.2859	0.24119	0.162
Mof_H 	H 	0.7073	0.2452	0.24547	-0.014
Mof_C 	C 	0.3966	0.3017	0.22476	0.193
Mof_C 	C 	0.2716	0.0638	0.31218	0.128
Mof_H 	H 	0.2131	0.0096	0.30667	-0.016
Mof_C 	C 	0.4475	0.2247	0.32815	-0.233
Mof_H 	H 	0.5067	0.2782	0.33357	0.115
Mof_C 	C 	0.3193	0.3073	0.2418	-0.239
Mof_H 	H 	0.3098	0.3048	0.27197	0.116
Mof_C 	C 	0.3523	0.3246	0.15233	0.136
Mof_H 	H 	0.3646	0.3326	0.12237	-0.007
Mof_C 	C 	0.8456	0.4142	0.21754	0.497
Mof_C 	C 	0.3172	0.1304	0.27928	-0.227
Mof_H 	H 	0.2885	0.1207	0.25187	0.11
Mof_C 	C 	0.2689	0.0077	0.39021	0.421
Mof_O 	O 	0.2004	0.9241	0.37954	-0.342
Mof_H 	H 	0.1863	0.8584	0.37737	0.209
Mof_C 	C 	0.1969	0.3228	0.14006	0.452
Mof_C 	C 	0.5881	0.2538	0.24953	-0.25
Mof_H 	H 	0.5488	0.1913	0.25887	0.116
Mof_C 	C 	0.3131	0.0779	0.35354	-0.215
Mof_C 	C 	0.2574	0.3165	0.21418	0.145
Mof_H 	H 	0.2051	0.3181	0.22587	-0.011
Mof_C 	C 	0.2714	0.3235	0.16911	-0.217
Mof_O 	O 	0.4804	0.1235	0.55322	-0.5
Mof_O 	O 	0.727	0.6993	0.76015	-0.509
Mof_O 	O 	0.6036	0.102	0.54227	-0.579
Mof_C 	C 	0.6357	0.2571	0.55973	-0.266
Mof_C 	C 	0.7639	0.4499	0.57738	0.217
Mof_N 	N 	0.828	0.5478	0.58642	-0.203
Mof_O 	O 	0.1151	0.7898	0.43228	-0.305
Mof_O 	O 	0.1918	0.8746	0.4909	-0.48
Mof_C 	C 	0.7569	0.5979	0.69407	0.17
Mof_H 	H 	0.7377	0.5691	0.7214	-0.018
Mof_C 	C 	0.7335	0.2963	0.55325	0.194
Mof_H 	H 	0.7565	0.2577	0.5427	-0.038
Mof_C 	C 	0.8998	0.586	0.51321	-0.247
Mof_H 	H 	0.847	0.5323	0.5017	0.124
Mof_C 	C 	0.797	0.3909	0.56213	-0.275
Mof_H 	H 	0.862	0.4151	0.5579	0.142
Mof_C 	C 	0.8063	0.5947	0.62001	0.202
Mof_C 	C 	0.603	0.3171	0.57452	0.176
Mof_H 	H 	0.5379	0.2927	0.5788	-0.018
Mof_C 	C 	0.9051	0.6034	0.55809	0.181
Mof_C 	C 	0.7922	0.7284	0.64551	0.163
Mof_H 	H 	0.7965	0.7869	0.64	0.019
Mof_C 	C 	0.7772	0.5525	0.66148	-0.243
Mof_H 	H 	0.7715	0.4933	0.6669	0.124
Mof_C 	C 	0.988	0.6807	0.57513	-0.119
Mof_H 	H 	0.995	0.6902	0.6053	0.103
Mof_C 	C 	0.9723	0.6477	0.48566	0.233
Mof_H 	H 	0.968	0.6354	0.4557	-0.018
Mof_C 	C 	0.5686	0.1544	0.55087	0.512
Mof_C 	C 	0.8132	0.6828	0.61261	-0.232
Mof_H 	H 	0.8322	0.7115	0.5852	0.135
Mof_C 	C 	0.7388	0.7311	0.72354	0.534
Mof_O 	O 	0.7237	0.7996	0.71287	-0.412
Mof_H 	H 	0.6721	0.8137	0.7107	0.234
Mof_C 	C 	0.1259	0.8031	0.47339	0.46
Mof_C 	C 	0.6657	0.4119	0.58286	-0.263
Mof_H 	H 	0.6425	0.4512	0.5922	0.127
Mof_C 	C 	0.7648	0.6869	0.68687	-0.233
Mof_C 	C 	0.0591	0.7426	0.54751	0.047
Mof_H 	H 	0.113	0.7949	0.5592	0.021
Mof_C 	C 	0.0521	0.7286	0.50244	-0.266
Mof_O 	O 	0.6431	0.5196	0.88655	-0.507
Mof_O 	O 	0.9723	0.273	0.09348	-0.488
Mof_O 	O 	0.4984	0.3964	0.8756	-0.592
Mof_C 	C 	0.6214	0.3643	0.89306	-0.267
Mof_C 	C 	0.686	0.2361	0.91071	0.208
Mof_N 	N 	0.7198	0.172	0.91975	-0.213
Mof_O 	O 	0.6747	0.8849	0.76561	-0.262
Mof_O 	O 	0.6828	0.8082	0.82423	-0.513
Mof_C 	C 	0.841	0.2431	0.0274	0.184
Mof_H 	H 	0.8314	0.2623	0.05473	-0.024
Mof_C 	C 	0.5628	0.2665	0.88658	0.186
Mof_H 	H 	0.5012	0.2435	0.87603	-0.041
Mof_C 	C 	0.6862	0.1002	0.84654	-0.22
Mof_H 	H 	0.6853	0.153	0.83503	0.107
Mof_C 	C 	0.5939	0.203	0.89546	-0.268
Mof_H 	H 	0.5531	0.138	0.89123	0.114
Mof_C 	C 	0.7884	0.1937	0.95334	0.204
Mof_C 	C 	0.7141	0.397	0.90785	0.177
Mof_H 	H 	0.7548	0.4621	0.91213	-0.012
Mof_C 	C 	0.6983	0.0949	0.89142	0.212
Mof_C 	C 	0.9362	0.2078	0.97884	0.174
Mof_H 	H 	0.9904	0.2035	0.97333	0.022
Mof_C 	C 	0.7753	0.2228	0.99481	-0.263
Mof_H 	H 	0.7218	0.2285	0.00023	0.124
Mof_C 	C 	0.6927	0.012	0.90846	-0.357
Mof_H 	H 	0.6952	0.005	0.93863	0.137
Mof_C 	C 	0.6754	0.0277	0.81899	0.046
Mof_H 	H 	0.6674	0.032	0.78903	0.004
Mof_C 	C 	0.5858	0.4314	0.8842	0.524
Mof_C 	C 	0.8696	0.1868	0.94594	-0.243
Mof_H 	H 	0.8793	0.1678	0.91853	0.132
Mof_C 	C 	0.9923	0.2612	0.05687	0.612
Mof_O 	O 	0.0759	0.2763	0.0462	-0.507
Mof_H 	H 	0.1416	0.3279	0.04403	0.243
Mof_C 	C 	0.6772	0.8741	0.80672	0.456
Mof_C 	C 	0.7462	0.3343	0.91619	-0.26
Mof_H 	H 	0.8087	0.3575	0.92553	0.134
Mof_C 	C 	0.9221	0.2352	0.0202	-0.259
Mof_C 	C 	0.6835	0.9409	0.88084	0.258
Mof_H 	H 	0.6819	0.887	0.89253	-0.033
Mof_C 	C 	0.6765	0.9479	0.83577	-0.158
Mof_La	La	0.35666	0	0.5	2.351
Mof_La	La	-5.54336e-18	0.35666	0.16667	2.35
Mof_La	La	0.64334	0.64334	0.83333	2.583
Mof_La	La	0.64334	0	0.5	2.357
Mof_La	La	-3.84448e-17	0.64334	0.16667	2.356
Mof_La	La	0.35666	0.35666	0.83333	2.57
_end
