data_functionalizedCrystal
_audit_creation_method	'EQeq! by Chris Wilmer'
_symmetry_space_group_name_H-M	'P1'
_symmetry_Int_Tables_number	1
_symmetry_cell_setting	triclinic
loop_
_symmetry_equiv_pos_as_xyz
  x,y,z
_cell_length_a	14.37
_cell_length_b	28.431
_cell_length_c	17.883
_cell_angle_alpha	90
_cell_angle_beta	100.673
_cell_angle_gamma	90
loop_
_atom_site_label
_atom_site_type_symbol
_atom_site_fract_x
_atom_site_fract_y
_atom_site_fract_z
_atom_site_charge
Mof_Co	Co	0.13656	0.13466	0.44267	1.13
Mof_Co	Co	0.51161	0.1492	0.53366	1.132
Mof_Na	Na	0.33179	0.16695	0.3911	3.498
Mof_C 	C 	0.262	0.03582	0.9253	0.001
Mof_C 	C 	0.2247	0.99111	0.9313	0.004
Mof_C 	C 	0.2652	0.96118	0.9909	0.009
Mof_C 	C 	0.3462	0.97489	0.0418	-0.002
Mof_C 	C 	0.3868	0.01924	0.0333	-0.004
Mof_C 	C 	0.3433	0.05004	0.9764	0.009
Mof_C 	C 	0.2118	0.06968	0.8668	-0.007
Mof_H 	H 	0.1464	0.0601	0.8504	0.047
Mof_H 	H 	0.2126	0.101	0.8883	0.047
Mof_C 	C 	0.1411	0.97424	0.8739	-0.008
Mof_H 	H 	0.1403	0.9894	0.8252	0.045
Mof_H 	H 	0.1447	0.9405	0.8671	0.051
Mof_C 	C 	0.2157	0.91462	0.9987	0.005
Mof_H 	H 	0.2373	0.9013	0.0489	0.043
Mof_H 	H 	0.1477	0.9191	0.9912	0.044
Mof_C 	C 	0.3899	0.94294	0.1063	0.001
Mof_H 	H 	0.4501	0.9556	0.1321	0.045
Mof_H 	H 	0.3483	0.94	0.143	0.041
Mof_C 	C 	0.4752	0.03393	0.0873	0.005
Mof_H 	H 	0.5205	0.0083	0.094	0.038
Mof_H 	H 	0.5039	0.0606	0.0664	0.046
Mof_C 	C 	0.3815	0.099	0.9714	-0.012
Mof_H 	H 	0.4499	0.0983	0.9767	0.052
Mof_H 	H 	0.3548	0.1132	0.9229	0.053
Mof_C 	C 	0.2278	0.1018	0.7472	0.168
Mof_C 	C 	0.1493	0.12999	0.7456	-0.146
Mof_H 	H 	0.1131	0.1276	0.7835	0.093
Mof_C 	C 	0.1254	0.16182	0.6868	0.002
Mof_H 	H 	0.0725	0.1808	0.6854	0.042
Mof_C 	C 	0.1783	0.1661	0.6299	-0.014
Mof_H 	H 	0.1618	0.1882	0.5914	0.014
Mof_C 	C 	0.2559	0.13723	0.6308	-0.126
Mof_C 	C 	0.2808	0.10502	0.69	-0.079
Mof_H 	H 	0.3332	0.0856	0.6911	0.074
Mof_C 	C 	0.3124	0.14117	0.5689	0.506
Mof_C 	C 	0.9744	0.96624	0.8664	0.159
Mof_C 	C 	0.8999	0.97046	0.9041	-0.13
Mof_H 	H 	0.9073	0.9866	0.9501	0.097
Mof_C 	C 	0.8133	0.9503	0.8728	-0.036
Mof_H 	H 	0.7629	0.9523	0.8987	0.059
Mof_C 	C 	0.8014	0.92756	0.8042	0.035
Mof_H 	H 	0.7432	0.9143	0.7836	-0.007
Mof_C 	C 	0.875	0.92437	0.766	-0.144
Mof_C 	C 	0.962	0.9437	0.7975	-0.085
Mof_H 	H 	0.0123	0.9414	0.7717	0.073
Mof_C 	C 	0.8618	0.90121	0.6892	0.533
Mof_C 	C 	0.1949	0.84142	0.9311	0.183
Mof_C 	C 	0.2039	0.81796	0.8652	-0.169
Mof_H 	H 	0.2369	0.8316	0.8306	0.101
Mof_C 	C 	0.1638	0.77417	0.8511	0.021
Mof_H 	H 	0.1688	0.7585	0.8064	0.022
Mof_C 	C 	0.1164	0.75343	0.9026	-0.054
Mof_H 	H 	0.0894	0.7238	0.8926	0.022
Mof_C 	C 	0.1088	0.77632	0.9687	-0.057
Mof_C 	C 	0.1459	0.82096	0.9832	-0.119
Mof_H 	H 	0.1384	0.837	0.027	0.078
Mof_C 	C 	0.4249	0.86013	0.123	0.179
Mof_C 	C 	0.38	0.81824	0.0995	-0.104
Mof_H 	H 	0.3316	0.8177	0.057	0.08
Mof_C 	C 	0.4068	0.77712	0.139	-0.077
Mof_C 	C 	0.4757	0.77914	0.2032	-0.041
Mof_H 	H 	0.4945	0.7518	0.2304	0.039
Mof_C 	C 	0.517	0.8213	0.2276	0.029
Mof_H 	H 	0.5626	0.8223	0.2719	0.025
Mof_C 	C 	0.4921	0.86196	0.188	-0.171
Mof_H 	H 	0.5205	0.8904	0.2049	0.102
Mof_C 	C 	0.3558	0.73153	0.1138	0.505
Mof_C 	C 	0.4675	0.19954	0.1856	-0.163
Mof_C 	C 	0.4062	0.16828	0.1429	-0.035
Mof_H 	H 	0.3581	0.1544	0.1636	0.045
Mof_C 	C 	0.4159	0.15742	0.0693	0.152
Mof_C 	C 	0.4865	0.17881	0.0384	-0.131
Mof_H 	H 	0.4922	0.1724	0.9884	0.092
Mof_C 	C 	0.5479	0.20943	0.0811	-0.011
Mof_H 	H 	0.5951	0.2238	0.0599	0.035
Mof_C 	C 	0.5405	0.21911	0.155	0.015
Mof_H 	H 	0.5845	0.2388	0.1845	0.04
Mof_C 	C 	0.4522	0.21064	0.2632	0.632
Mof_C 	C 	0.5674	0.1007	0.3356	-0.073
Mof_C 	C 	0.4993	0.08129	0.2788	-0.092
Mof_H 	H 	0.4368	0.0791	0.2856	0.033
Mof_C 	C 	0.524	0.06518	0.2121	0.178
Mof_C 	C 	0.6174	0.06912	0.2014	-0.169
Mof_H 	H 	0.6346	0.0583	0.1569	0.105
Mof_C 	C 	0.6838	0.08936	0.258	0.037
Mof_H 	H 	0.7459	0.0925	0.2506	0.019
Mof_C 	C 	0.6605	0.10481	0.3243	-0.06
Mof_H 	H 	0.7065	0.118	0.3619	0.062
Mof_C 	C 	0.5422	0.11724	0.4081	0.365
Mof_C 	C 	0.0609	0.75257	0.027	0.332
Mof_C 	C 	0.6359	0.22493	0.6321	0.036
Mof_H 	H 	0.6015	0.2472	0.6002	0.012
Mof_C 	C 	0.7075	0.24033	0.6908	-0.06
Mof_H 	H 	0.7195	0.2723	0.6977	0.025
Mof_C 	C 	0.7586	0.2091	0.737	-0.028
Mof_H 	H 	0.8062	0.2194	0.776	0.033
Mof_C 	C 	0.7404	0.16043	0.7266	0.009
Mof_C 	C 	0.6676	0.14789	0.6666	0.024
Mof_C 	C 	0.6448	0.0992	0.6525	0.027
Mof_C 	C 	0.697	0.06445	0.6981	0.006
Mof_C 	C 	0.7719	0.0788	0.7575	-0.059
Mof_H 	H 	0.8071	0.0561	0.7877	0.053
Mof_C 	C 	0.7926	0.1238	0.7706	-0.054
Mof_H 	H 	0.8424	0.1319	0.8095	0.054
Mof_C 	C 	0.6703	0.01746	0.6805	-0.032
Mof_H 	H 	0.703	0.9931	0.7086	0.036
Mof_C 	C 	0.5979	0.00758	0.6235	-0.086
Mof_H 	H 	0.5799	0.9766	0.6124	0.053
Mof_C 	C 	0.5499	0.04432	0.5811	0.062
Mof_H 	H 	0.5001	0.0371	0.5416	-0.004
Mof_C 	C 	0.2336	0.03741	0.4927	0.104
Mof_H 	H 	0.2789	0.0456	0.464	-0.047
Mof_C 	C 	0.2428	0.9942	0.5314	-0.121
Mof_H 	H 	0.2935	0.9745	0.5283	0.076
Mof_C 	C 	0.1778	0.9815	0.5733	-0.01
Mof_H 	H 	0.1834	0.9529	0.5989	0.039
Mof_C 	C 	0.1033	0.01107	0.578	0.003
Mof_C 	C 	0.0986	0.05386	0.5378	0.033
Mof_C 	C 	0.0241	0.08663	0.541	0.027
Mof_C 	C 	0.9545	0.0752	0.5841	0.014
Mof_C 	C 	0.9606	0.0317	0.6234	-0.053
Mof_H 	H 	0.9148	0.0244	0.6522	0.052
Mof_C 	C 	0.0286	0.0015	0.6206	-0.051
Mof_H 	H 	0.0292	0.9732	0.6466	0.061
Mof_C 	C 	0.9549	0.1569	0.5041	0.053
Mof_H 	H 	0.9542	0.1849	0.4773	0.016
Mof_C 	C 	0.883	0.1486	0.5448	-0.078
Mof_H 	H 	0.8353	0.1708	0.5449	0.066
Mof_C 	C 	0.8833	0.108	0.5841	-0.037
Mof_H 	H 	0.8353	0.102	0.6113	0.05
Mof_O 	O 	0.05779	0.98609	0.90258	-0.214
Mof_O 	O 	0.2397	0.88412	0.94111	-0.217
Mof_O 	O 	0.4036	0.89808	0.07385	-0.219
Mof_O 	O 	0.45217	0.04642	0.15928	-0.222
Mof_O 	O 	0.3544	0.12476	0.03236	-0.208
Mof_O 	O 	0.2601	0.06956	0.8034	-0.217
Mof_O 	O 	0.9325	0.89897	0.65667	-0.47
Mof_O 	O 	0.7837	0.88663	0.65805	-0.893
Mof_O 	O 	0.46055	0.11073	0.42321	-0.766
Mof_O 	O 	0.60509	0.13798	0.45581	-0.415
Mof_O 	O 	0.3911	0.19142	0.29012	-0.89
Mof_O 	O 	0.5072	0.24347	0.298	-0.59
Mof_H 	H 	0.4948	0.2478	0.3404	0.315
Mof_O 	O 	0.0445	0.77709	0.08184	-0.326
Mof_O 	O 	0.0411	0.70989	0.01995	-0.751
Mof_O 	O 	0.40083	0.13492	0.58763	-0.519
Mof_O 	O 	0.2713	0.15067	0.50268	-0.89
Mof_O 	O 	0.2712	0.72898	0.1151	-0.807
Mof_O 	O 	0.405	0.69976	0.09142	-0.521
Mof_N 	N 	0.5724	0.0891	0.59473	-0.216
Mof_N 	N 	0.6152	0.17966	0.6202	-0.217
Mof_N 	N 	0.1638	0.06651	0.4953	-0.234
Mof_N 	N 	0.0239	0.12686	0.5016	-0.222
Mof_Co	Co	0.36344	0.63466	0.05733	1.131
Mof_Co	Co	0.98839	0.6492	0.96634	1.131
Mof_Na	Na	0.16821	0.66695	0.1089	3.493
Mof_C 	C 	0.238	0.53582	0.5747	0.002
Mof_C 	C 	0.2753	0.49111	0.5687	0.003
Mof_C 	C 	0.2348	0.46118	0.5091	0.008
Mof_C 	C 	0.1538	0.47489	0.4582	0.001
Mof_C 	C 	0.1132	0.51924	0.4667	-0.004
Mof_C 	C 	0.1567	0.55004	0.5236	0.008
Mof_C 	C 	0.2882	0.56968	0.6332	-0.006
Mof_H 	H 	0.3536	0.5601	0.6496	0.047
Mof_H 	H 	0.2874	0.601	0.6117	0.046
Mof_C 	C 	0.3589	0.47424	0.6261	-0.006
Mof_H 	H 	0.3597	0.4894	0.6748	0.044
Mof_H 	H 	0.3553	0.4405	0.6329	0.05
Mof_C 	C 	0.2843	0.41462	0.5013	-0.001
Mof_H 	H 	0.2627	0.4013	0.4511	0.046
Mof_H 	H 	0.3523	0.4191	0.5088	0.044
Mof_C 	C 	0.1101	0.44294	0.3937	0.002
Mof_H 	H 	0.0499	0.4556	0.3679	0.044
Mof_H 	H 	0.1517	0.44	0.357	0.04
Mof_C 	C 	0.0248	0.53393	0.4127	0.003
Mof_H 	H 	0.9795	0.5083	0.406	0.039
Mof_H 	H 	0.9961	0.5606	0.4336	0.047
Mof_C 	C 	0.1185	0.599	0.5286	-0.013
Mof_H 	H 	0.0501	0.5983	0.5233	0.053
Mof_H 	H 	0.1452	0.6132	0.5771	0.054
Mof_C 	C 	0.2722	0.6018	0.7528	0.168
Mof_C 	C 	0.3507	0.62999	0.7544	-0.146
Mof_H 	H 	0.3869	0.6276	0.7165	0.093
Mof_C 	C 	0.3746	0.66182	0.8132	0.003
Mof_H 	H 	0.4275	0.6808	0.8146	0.042
Mof_C 	C 	0.3217	0.6661	0.8701	-0.015
Mof_H 	H 	0.3382	0.6882	0.9086	0.014
Mof_C 	C 	0.2441	0.63723	0.8692	-0.124
Mof_C 	C 	0.2192	0.60502	0.81	-0.08
Mof_H 	H 	0.1668	0.5856	0.8089	0.075
Mof_C 	C 	0.1876	0.64117	0.9311	0.505
Mof_C 	C 	0.5256	0.46624	0.6336	0.162
Mof_C 	C 	0.6001	0.47046	0.5959	-0.131
Mof_H 	H 	0.5927	0.4866	0.5499	0.099
Mof_C 	C 	0.6867	0.4503	0.6272	-0.036
Mof_H 	H 	0.7371	0.4523	0.6013	0.059
Mof_C 	C 	0.6986	0.42756	0.6958	0.035
Mof_H 	H 	0.7568	0.4143	0.7164	-0.007
Mof_C 	C 	0.625	0.42437	0.734	-0.145
Mof_C 	C 	0.538	0.4437	0.7025	-0.081
Mof_H 	H 	0.4877	0.4414	0.7283	0.07
Mof_C 	C 	0.6382	0.40121	0.8108	0.534
Mof_C 	C 	0.3051	0.34142	0.5689	0.185
Mof_C 	C 	0.2961	0.31796	0.6348	-0.171
Mof_H 	H 	0.2631	0.3316	0.6694	0.102
Mof_C 	C 	0.3362	0.27417	0.6489	0.021
Mof_H 	H 	0.3312	0.2585	0.6936	0.022
Mof_C 	C 	0.3836	0.25343	0.5974	-0.053
Mof_H 	H 	0.4106	0.2238	0.6074	0.02
Mof_C 	C 	0.3912	0.27632	0.5313	-0.06
Mof_C 	C 	0.3541	0.32096	0.5168	-0.127
Mof_H 	H 	0.3616	0.337	0.473	0.084
Mof_C 	C 	0.0751	0.36013	0.377	0.19
Mof_C 	C 	0.12	0.31824	0.4005	-0.114
Mof_H 	H 	0.1684	0.3177	0.443	0.084
Mof_C 	C 	0.0932	0.27712	0.361	-0.067
Mof_C 	C 	0.0243	0.27914	0.2968	-0.057
Mof_H 	H 	0.0055	0.2518	0.2696	0.044
Mof_C 	C 	0.983	0.3213	0.2724	0.051
Mof_H 	H 	0.9374	0.3223	0.2281	0.018
Mof_C 	C 	0.0079	0.36196	0.312	-0.192
Mof_H 	H 	0.9795	0.3904	0.2951	0.11
Mof_C 	C 	0.1442	0.23153	0.3862	0.502
Mof_C 	C 	0.0325	0.69954	0.3144	-0.163
Mof_C 	C 	0.0938	0.66828	0.3571	-0.035
Mof_H 	H 	0.1419	0.6544	0.3364	0.045
Mof_C 	C 	0.0841	0.65742	0.4307	0.152
Mof_C 	C 	0.0135	0.67881	0.4616	-0.134
Mof_H 	H 	0.0078	0.6724	0.5116	0.093
Mof_C 	C 	0.9521	0.70943	0.4189	-0.009
Mof_H 	H 	0.9049	0.7238	0.4401	0.034
Mof_C 	C 	0.9595	0.71911	0.345	0.016
Mof_H 	H 	0.9155	0.7388	0.3155	0.04
Mof_C 	C 	0.0478	0.71064	0.2368	0.626
Mof_C 	C 	0.9326	0.6007	0.1644	-0.065
Mof_C 	C 	0.0007	0.58129	0.2212	-0.106
Mof_H 	H 	0.0632	0.5791	0.2144	0.037
Mof_C 	C 	0.976	0.56518	0.2879	0.189
Mof_C 	C 	0.8826	0.56912	0.2986	-0.178
Mof_H 	H 	0.8654	0.5583	0.3431	0.108
Mof_C 	C 	0.8162	0.58936	0.242	0.046
Mof_H 	H 	0.7541	0.5925	0.2494	0.017
Mof_C 	C 	0.8395	0.60481	0.1757	-0.068
Mof_H 	H 	0.7935	0.618	0.1381	0.065
Mof_C 	C 	0.9578	0.61724	0.0919	0.368
Mof_C 	C 	0.4391	0.25257	0.473	0.336
Mof_C 	C 	0.8641	0.72493	0.8679	0.036
Mof_H 	H 	0.8985	0.7472	0.8998	0.012
Mof_C 	C 	0.7925	0.74033	0.8092	-0.06
Mof_H 	H 	0.7805	0.7723	0.8023	0.025
Mof_C 	C 	0.7414	0.7091	0.763	-0.028
Mof_H 	H 	0.6938	0.7194	0.724	0.033
Mof_C 	C 	0.7596	0.66043	0.7734	0.009
Mof_C 	C 	0.8324	0.64789	0.8334	0.024
Mof_C 	C 	0.8552	0.5992	0.8475	0.026
Mof_C 	C 	0.803	0.56445	0.8019	0.006
Mof_C 	C 	0.7281	0.5788	0.7425	-0.059
Mof_H 	H 	0.6929	0.5561	0.7123	0.053
Mof_C 	C 	0.7074	0.6238	0.7294	-0.054
Mof_H 	H 	0.6576	0.6319	0.6905	0.055
Mof_C 	C 	0.8297	0.51746	0.8195	-0.032
Mof_H 	H 	0.797	0.4931	0.7914	0.036
Mof_C 	C 	0.9021	0.50758	0.8765	-0.087
Mof_H 	H 	0.9201	0.4766	0.8876	0.053
Mof_C 	C 	0.9501	0.54432	0.9189	0.061
Mof_H 	H 	0.9999	0.5371	0.9584	-0.005
Mof_C 	C 	0.2664	0.53741	0.0073	0.098
Mof_H 	H 	0.2211	0.5456	0.036	-0.046
Mof_C 	C 	0.2572	0.4942	0.9686	-0.114
Mof_H 	H 	0.2065	0.4745	0.9717	0.075
Mof_C 	C 	0.3222	0.4815	0.9267	-0.014
Mof_H 	H 	0.3166	0.4529	0.9011	0.041
Mof_C 	C 	0.3967	0.51107	0.922	0.006
Mof_C 	C 	0.4014	0.55386	0.9622	0.033
Mof_C 	C 	0.4759	0.58663	0.959	0.026
Mof_C 	C 	0.5455	0.5752	0.9159	0.013
Mof_C 	C 	0.5394	0.5317	0.8766	-0.05
Mof_H 	H 	0.5852	0.5244	0.8478	0.051
Mof_C 	C 	0.4714	0.5015	0.8794	-0.055
Mof_H 	H 	0.4708	0.4732	0.8534	0.062
Mof_C 	C 	0.5451	0.6569	0.9959	0.052
Mof_H 	H 	0.5458	0.6849	0.0227	0.016
Mof_C 	C 	0.617	0.6486	0.9552	-0.078
Mof_H 	H 	0.6647	0.6708	0.9551	0.065
Mof_C 	C 	0.6167	0.608	0.9159	-0.037
Mof_H 	H 	0.6647	0.602	0.8887	0.05
Mof_O 	O 	0.44221	0.48609	0.59742	-0.218
Mof_O 	O 	0.2603	0.38412	0.55889	-0.217
Mof_O 	O 	0.0964	0.39808	0.42615	-0.221
Mof_O 	O 	0.04783	0.54642	0.34072	-0.225
Mof_O 	O 	0.1456	0.62476	0.46764	-0.207
Mof_O 	O 	0.2399	0.56956	0.6966	-0.217
Mof_O 	O 	0.5675	0.39897	0.84333	-0.47
Mof_O 	O 	0.7163	0.38663	0.84195	-0.892
Mof_O 	O 	0.03945	0.61073	0.07679	-0.769
Mof_O 	O 	0.89491	0.63798	0.04419	-0.414
Mof_O 	O 	0.1089	0.69142	0.20988	-0.887
Mof_O 	O 	0.9928	0.74347	0.202	-0.582
Mof_H 	H 	0.0052	0.7478	0.1596	0.31
Mof_O 	O 	0.4555	0.27709	0.41816	-0.326
Mof_O 	O 	0.4589	0.20989	0.48005	-0.751
Mof_O 	O 	0.09917	0.63492	0.91237	-0.516
Mof_O 	O 	0.2287	0.65067	0.99732	-0.887
Mof_O 	O 	0.2288	0.22898	0.3849	-0.806
Mof_O 	O 	0.095	0.19976	0.40858	-0.52
Mof_N 	N 	0.9276	0.5891	0.90527	-0.217
Mof_N 	N 	0.8848	0.67966	0.8798	-0.217
Mof_N 	N 	0.3362	0.56651	0.0047	-0.234
Mof_N 	N 	0.4761	0.62686	0.9984	-0.221
Mof_Co	Co	0.86344	0.86534	0.55733	1.131
Mof_Co	Co	0.48839	0.8508	0.46634	1.133
Mof_Na	Na	0.66821	0.83305	0.6089	3.499
Mof_C 	C 	0.738	0.96418	0.0747	0.002
Mof_C 	C 	0.7753	0.00889	0.0687	0.004
Mof_C 	C 	0.7348	0.03882	0.0091	0.009
Mof_C 	C 	0.6538	0.02511	0.9582	-0.002
Mof_C 	C 	0.6132	0.98076	0.9667	-0.004
Mof_C 	C 	0.6567	0.94996	0.0236	0.009
Mof_C 	C 	0.7882	0.93032	0.1332	-0.007
Mof_H 	H 	0.8536	0.9399	0.1496	0.047
Mof_H 	H 	0.7874	0.899	0.1117	0.047
Mof_C 	C 	0.8589	0.02576	0.1261	-0.008
Mof_H 	H 	0.8597	0.0106	0.1748	0.045
Mof_H 	H 	0.8553	0.0595	0.1329	0.051
Mof_C 	C 	0.7843	0.08538	0.0013	0.005
Mof_H 	H 	0.7627	0.0987	0.9511	0.043
Mof_H 	H 	0.8523	0.0809	0.0088	0.044
Mof_C 	C 	0.6101	0.05706	0.8937	0.001
Mof_H 	H 	0.5499	0.0444	0.8679	0.045
Mof_H 	H 	0.6517	0.06	0.857	0.041
Mof_C 	C 	0.5248	0.96607	0.9127	0.005
Mof_H 	H 	0.4795	0.9917	0.906	0.038
Mof_H 	H 	0.4961	0.9394	0.9336	0.046
Mof_C 	C 	0.6185	0.901	0.0286	-0.012
Mof_H 	H 	0.5501	0.9017	0.0233	0.052
Mof_H 	H 	0.6452	0.8868	0.0771	0.053
Mof_C 	C 	0.7722	0.8982	0.2528	0.168
Mof_C 	C 	0.8507	0.87001	0.2544	-0.146
Mof_H 	H 	0.8869	0.8724	0.2165	0.093
Mof_C 	C 	0.8746	0.83818	0.3132	0.002
Mof_H 	H 	0.9275	0.8192	0.3146	0.042
Mof_C 	C 	0.8217	0.8339	0.3701	-0.014
Mof_H 	H 	0.8382	0.8118	0.4086	0.014
Mof_C 	C 	0.7441	0.86277	0.3692	-0.126
Mof_C 	C 	0.7192	0.89498	0.31	-0.079
Mof_H 	H 	0.6668	0.9144	0.3089	0.074
Mof_C 	C 	0.6876	0.85883	0.4311	0.506
Mof_C 	C 	0.0256	0.03376	0.1336	0.159
Mof_C 	C 	0.1001	0.02954	0.0959	-0.13
Mof_H 	H 	0.0927	0.0134	0.0499	0.097
Mof_C 	C 	0.1867	0.0497	0.1272	-0.036
Mof_H 	H 	0.2371	0.0477	0.1013	0.059
Mof_C 	C 	0.1986	0.07244	0.1958	0.035
Mof_H 	H 	0.2568	0.0857	0.2164	-0.007
Mof_C 	C 	0.125	0.07563	0.234	-0.144
Mof_C 	C 	0.038	0.0563	0.2025	-0.085
Mof_H 	H 	0.9877	0.0586	0.2283	0.073
Mof_C 	C 	0.1382	0.09879	0.3108	0.533
Mof_C 	C 	0.8051	0.15858	0.0689	0.183
Mof_C 	C 	0.7961	0.18204	0.1348	-0.169
Mof_H 	H 	0.7631	0.1684	0.1694	0.101
Mof_C 	C 	0.8362	0.22583	0.1489	0.021
Mof_H 	H 	0.8312	0.2415	0.1936	0.022
Mof_C 	C 	0.8836	0.24657	0.0974	-0.054
Mof_H 	H 	0.9106	0.2762	0.1074	0.022
Mof_C 	C 	0.8912	0.22368	0.0313	-0.057
Mof_C 	C 	0.8541	0.17904	0.0168	-0.119
Mof_H 	H 	0.8616	0.163	0.973	0.078
Mof_C 	C 	0.5751	0.13987	0.877	0.179
Mof_C 	C 	0.62	0.18176	0.9005	-0.104
Mof_H 	H 	0.6684	0.1823	0.943	0.08
Mof_C 	C 	0.5932	0.22288	0.861	-0.077
Mof_C 	C 	0.5243	0.22086	0.7968	-0.041
Mof_H 	H 	0.5055	0.2482	0.7696	0.039
Mof_C 	C 	0.483	0.1787	0.7724	0.029
Mof_H 	H 	0.4374	0.1777	0.7281	0.025
Mof_C 	C 	0.5079	0.13804	0.812	-0.171
Mof_H 	H 	0.4795	0.1096	0.7951	0.102
Mof_C 	C 	0.6442	0.26847	0.8862	0.505
Mof_C 	C 	0.5325	0.80046	0.8144	-0.163
Mof_C 	C 	0.5938	0.83172	0.8571	-0.035
Mof_H 	H 	0.6419	0.8456	0.8364	0.045
Mof_C 	C 	0.5841	0.84258	0.9307	0.152
Mof_C 	C 	0.5135	0.82119	0.9616	-0.131
Mof_H 	H 	0.5078	0.8276	0.0116	0.092
Mof_C 	C 	0.4521	0.79057	0.9189	-0.011
Mof_H 	H 	0.4049	0.7762	0.9401	0.035
Mof_C 	C 	0.4595	0.78089	0.845	0.015
Mof_H 	H 	0.4155	0.7612	0.8155	0.04
Mof_C 	C 	0.5478	0.78936	0.7368	0.632
Mof_C 	C 	0.4326	0.8993	0.6644	-0.073
Mof_C 	C 	0.5007	0.91871	0.7212	-0.092
Mof_H 	H 	0.5632	0.9209	0.7144	0.033
Mof_C 	C 	0.476	0.93482	0.7879	0.178
Mof_C 	C 	0.3826	0.93088	0.7986	-0.169
Mof_H 	H 	0.3654	0.9417	0.8431	0.105
Mof_C 	C 	0.3162	0.91064	0.742	0.037
Mof_H 	H 	0.2541	0.9075	0.7494	0.019
Mof_C 	C 	0.3395	0.89519	0.6757	-0.06
Mof_H 	H 	0.2935	0.882	0.6381	0.062
Mof_C 	C 	0.4578	0.88276	0.5919	0.365
Mof_C 	C 	0.9391	0.24743	0.973	0.332
Mof_C 	C 	0.3641	0.77507	0.3679	0.036
Mof_H 	H 	0.3985	0.7528	0.3998	0.012
Mof_C 	C 	0.2925	0.75967	0.3092	-0.06
Mof_H 	H 	0.2805	0.7277	0.3023	0.025
Mof_C 	C 	0.2414	0.7909	0.263	-0.028
Mof_H 	H 	0.1938	0.7806	0.224	0.033
Mof_C 	C 	0.2596	0.83957	0.2734	0.009
Mof_C 	C 	0.3324	0.85211	0.3334	0.024
Mof_C 	C 	0.3552	0.9008	0.3475	0.027
Mof_C 	C 	0.303	0.93555	0.3019	0.006
Mof_C 	C 	0.2281	0.9212	0.2425	-0.059
Mof_H 	H 	0.1929	0.9439	0.2123	0.053
Mof_C 	C 	0.2074	0.8762	0.2294	-0.054
Mof_H 	H 	0.1576	0.8681	0.1905	0.054
Mof_C 	C 	0.3297	0.98254	0.3195	-0.032
Mof_H 	H 	0.297	0.0069	0.2914	0.036
Mof_C 	C 	0.4021	0.99242	0.3765	-0.086
Mof_H 	H 	0.4201	0.0234	0.3876	0.053
Mof_C 	C 	0.4501	0.95568	0.4189	0.062
Mof_H 	H 	0.4999	0.9629	0.4584	-0.004
Mof_C 	C 	0.7664	0.96259	0.5073	0.104
Mof_H 	H 	0.7211	0.9544	0.536	-0.047
Mof_C 	C 	0.7572	0.0058	0.4686	-0.121
Mof_H 	H 	0.7065	0.0255	0.4717	0.076
Mof_C 	C 	0.8222	0.0185	0.4267	-0.01
Mof_H 	H 	0.8166	0.0471	0.4011	0.039
Mof_C 	C 	0.8967	0.98893	0.422	0.003
Mof_C 	C 	0.9014	0.94614	0.4622	0.033
Mof_C 	C 	0.9759	0.91337	0.459	0.027
Mof_C 	C 	0.0455	0.9248	0.4159	0.014
Mof_C 	C 	0.0394	0.9683	0.3766	-0.053
Mof_H 	H 	0.0852	0.9756	0.3478	0.052
Mof_C 	C 	0.9714	0.9985	0.3794	-0.051
Mof_H 	H 	0.9708	0.0268	0.3534	0.061
Mof_C 	C 	0.0451	0.8431	0.4959	0.053
Mof_H 	H 	0.0458	0.8151	0.5227	0.016
Mof_C 	C 	0.117	0.8514	0.4552	-0.078
Mof_H 	H 	0.1647	0.8292	0.4551	0.066
Mof_C 	C 	0.1167	0.892	0.4159	-0.037
Mof_H 	H 	0.1647	0.898	0.3887	0.05
Mof_O 	O 	0.94221	0.01391	0.09742	-0.214
Mof_O 	O 	0.7603	0.11588	0.05889	-0.217
Mof_O 	O 	0.5964	0.10192	0.92615	-0.219
Mof_O 	O 	0.54783	0.95358	0.84072	-0.222
Mof_O 	O 	0.6456	0.87524	0.96764	-0.208
Mof_O 	O 	0.7399	0.93044	0.1966	-0.217
Mof_O 	O 	0.0675	0.10103	0.34333	-0.47
Mof_O 	O 	0.2163	0.11337	0.34195	-0.893
Mof_O 	O 	0.53945	0.88927	0.57679	-0.766
Mof_O 	O 	0.39491	0.86202	0.54419	-0.415
Mof_O 	O 	0.6089	0.80858	0.70988	-0.89
Mof_O 	O 	0.4928	0.75653	0.702	-0.59
Mof_H 	H 	0.5052	0.7522	0.6596	0.315
Mof_O 	O 	0.9555	0.22291	0.91816	-0.326
Mof_O 	O 	0.9589	0.29011	0.98005	-0.751
Mof_O 	O 	0.59917	0.86508	0.41237	-0.519
Mof_O 	O 	0.7287	0.84933	0.49732	-0.89
Mof_O 	O 	0.7288	0.27102	0.8849	-0.807
Mof_O 	O 	0.595	0.30024	0.90858	-0.521
Mof_N 	N 	0.4276	0.9109	0.40527	-0.216
Mof_N 	N 	0.3848	0.82034	0.3798	-0.217
Mof_N 	N 	0.8362	0.93349	0.5047	-0.234
Mof_N 	N 	0.9761	0.87314	0.4984	-0.222
Mof_Co	Co	0.63656	0.36534	0.94267	1.131
Mof_Co	Co	0.01161	0.3508	0.03366	1.131
Mof_Na	Na	0.83179	0.33305	0.8911	3.493
Mof_C 	C 	0.762	0.46418	0.4253	0.002
Mof_C 	C 	0.7247	0.50889	0.4313	0.003
Mof_C 	C 	0.7652	0.53882	0.4909	0.008
Mof_C 	C 	0.8462	0.52511	0.5418	0.001
Mof_C 	C 	0.8868	0.48076	0.5333	-0.004
Mof_C 	C 	0.8433	0.44996	0.4764	0.008
Mof_C 	C 	0.7118	0.43032	0.3668	-0.006
Mof_H 	H 	0.6464	0.4399	0.3504	0.047
Mof_H 	H 	0.7126	0.399	0.3883	0.046
Mof_C 	C 	0.6411	0.52576	0.3739	-0.006
Mof_H 	H 	0.6403	0.5106	0.3252	0.044
Mof_H 	H 	0.6447	0.5595	0.3671	0.05
Mof_C 	C 	0.7157	0.58538	0.4987	-0.001
Mof_H 	H 	0.7373	0.5987	0.5489	0.046
Mof_H 	H 	0.6477	0.5809	0.4912	0.044
Mof_C 	C 	0.8899	0.55706	0.6063	0.002
Mof_H 	H 	0.9501	0.5444	0.6321	0.044
Mof_H 	H 	0.8483	0.56	0.643	0.04
Mof_C 	C 	0.9752	0.46607	0.5873	0.003
Mof_H 	H 	0.0205	0.4917	0.594	0.039
Mof_H 	H 	0.0039	0.4394	0.5664	0.047
Mof_C 	C 	0.8815	0.401	0.4714	-0.013
Mof_H 	H 	0.9499	0.4017	0.4767	0.053
Mof_H 	H 	0.8548	0.3868	0.4229	0.054
Mof_C 	C 	0.7278	0.3982	0.2472	0.168
Mof_C 	C 	0.6493	0.37001	0.2456	-0.146
Mof_H 	H 	0.6131	0.3724	0.2835	0.093
Mof_C 	C 	0.6254	0.33818	0.1868	0.003
Mof_H 	H 	0.5725	0.3192	0.1854	0.042
Mof_C 	C 	0.6783	0.3339	0.1299	-0.015
Mof_H 	H 	0.6618	0.3118	0.0914	0.014
Mof_C 	C 	0.7559	0.36277	0.1308	-0.124
Mof_C 	C 	0.7808	0.39498	0.19	-0.08
Mof_H 	H 	0.8332	0.4144	0.1911	0.075
Mof_C 	C 	0.8124	0.35883	0.0689	0.505
Mof_C 	C 	0.4744	0.53376	0.3664	0.162
Mof_C 	C 	0.3999	0.52954	0.4041	-0.131
Mof_H 	H 	0.4073	0.5134	0.4501	0.099
Mof_C 	C 	0.3133	0.5497	0.3728	-0.036
Mof_H 	H 	0.2629	0.5477	0.3987	0.059
Mof_C 	C 	0.3014	0.57244	0.3042	0.035
Mof_H 	H 	0.2432	0.5857	0.2836	-0.007
Mof_C 	C 	0.375	0.57563	0.266	-0.145
Mof_C 	C 	0.462	0.5563	0.2975	-0.081
Mof_H 	H 	0.5123	0.5586	0.2717	0.07
Mof_C 	C 	0.3618	0.59879	0.1892	0.534
Mof_C 	C 	0.6949	0.65858	0.4311	0.185
Mof_C 	C 	0.7039	0.68204	0.3652	-0.171
Mof_H 	H 	0.7369	0.6684	0.3306	0.102
Mof_C 	C 	0.6638	0.72583	0.3511	0.021
Mof_H 	H 	0.6688	0.7415	0.3064	0.022
Mof_C 	C 	0.6164	0.74657	0.4026	-0.053
Mof_H 	H 	0.5894	0.7762	0.3926	0.02
Mof_C 	C 	0.6088	0.72368	0.4687	-0.06
Mof_C 	C 	0.6459	0.67904	0.4832	-0.127
Mof_H 	H 	0.6384	0.663	0.527	0.084
Mof_C 	C 	0.9249	0.63987	0.623	0.19
Mof_C 	C 	0.88	0.68176	0.5995	-0.114
Mof_H 	H 	0.8316	0.6823	0.557	0.084
Mof_C 	C 	0.9068	0.72288	0.639	-0.067
Mof_C 	C 	0.9757	0.72086	0.7032	-0.057
Mof_H 	H 	0.9945	0.7482	0.7304	0.044
Mof_C 	C 	0.017	0.6787	0.7276	0.051
Mof_H 	H 	0.0626	0.6777	0.7719	0.018
Mof_C 	C 	0.9921	0.63804	0.688	-0.192
Mof_H 	H 	0.0205	0.6096	0.7049	0.11
Mof_C 	C 	0.8558	0.76847	0.6138	0.502
Mof_C 	C 	0.9675	0.30046	0.6856	-0.163
Mof_C 	C 	0.9062	0.33172	0.6429	-0.035
Mof_H 	H 	0.8581	0.3456	0.6636	0.045
Mof_C 	C 	0.9159	0.34258	0.5693	0.152
Mof_C 	C 	0.9865	0.32119	0.5384	-0.134
Mof_H 	H 	0.9922	0.3276	0.4884	0.093
Mof_C 	C 	0.0479	0.29057	0.5811	-0.009
Mof_H 	H 	0.0951	0.2762	0.5599	0.034
Mof_C 	C 	0.0405	0.28089	0.655	0.016
Mof_H 	H 	0.0845	0.2612	0.6845	0.04
Mof_C 	C 	0.9522	0.28936	0.7632	0.626
Mof_C 	C 	0.0674	0.3993	0.8356	-0.065
Mof_C 	C 	0.9993	0.41871	0.7788	-0.106
Mof_H 	H 	0.9368	0.4209	0.7856	0.037
Mof_C 	C 	0.024	0.43482	0.7121	0.189
Mof_C 	C 	0.1174	0.43088	0.7014	-0.178
Mof_H 	H 	0.1346	0.4417	0.6569	0.108
Mof_C 	C 	0.1838	0.41064	0.758	0.046
Mof_H 	H 	0.2459	0.4075	0.7506	0.017
Mof_C 	C 	0.1605	0.39519	0.8243	-0.068
Mof_H 	H 	0.2065	0.382	0.8619	0.065
Mof_C 	C 	0.0422	0.38276	0.9081	0.368
Mof_C 	C 	0.5609	0.74743	0.527	0.336
Mof_C 	C 	0.1359	0.27507	0.1321	0.036
Mof_H 	H 	0.1015	0.2528	0.1002	0.012
Mof_C 	C 	0.2075	0.25967	0.1908	-0.06
Mof_H 	H 	0.2195	0.2277	0.1977	0.025
Mof_C 	C 	0.2586	0.2909	0.237	-0.028
Mof_H 	H 	0.3062	0.2806	0.276	0.033
Mof_C 	C 	0.2404	0.33957	0.2266	0.009
Mof_C 	C 	0.1676	0.35211	0.1666	0.024
Mof_C 	C 	0.1448	0.4008	0.1525	0.026
Mof_C 	C 	0.197	0.43555	0.1981	0.006
Mof_C 	C 	0.2719	0.4212	0.2575	-0.059
Mof_H 	H 	0.3071	0.4439	0.2877	0.053
Mof_C 	C 	0.2926	0.3762	0.2706	-0.054
Mof_H 	H 	0.3424	0.3681	0.3095	0.055
Mof_C 	C 	0.1703	0.48254	0.1805	-0.032
Mof_H 	H 	0.203	0.5069	0.2086	0.036
Mof_C 	C 	0.0979	0.49242	0.1235	-0.087
Mof_H 	H 	0.0799	0.5234	0.1124	0.053
Mof_C 	C 	0.0499	0.45568	0.0811	0.061
Mof_H 	H 	0.0001	0.4629	0.0416	-0.005
Mof_C 	C 	0.7336	0.46259	0.9927	0.098
Mof_H 	H 	0.7789	0.4544	0.964	-0.046
Mof_C 	C 	0.7428	0.5058	0.0314	-0.114
Mof_H 	H 	0.7935	0.5255	0.0283	0.075
Mof_C 	C 	0.6778	0.5185	0.0733	-0.014
Mof_H 	H 	0.6834	0.5471	0.0989	0.041
Mof_C 	C 	0.6033	0.48893	0.078	0.006
Mof_C 	C 	0.5986	0.44614	0.0378	0.033
Mof_C 	C 	0.5241	0.41337	0.041	0.026
Mof_C 	C 	0.4545	0.4248	0.0841	0.013
Mof_C 	C 	0.4606	0.4683	0.1234	-0.05
Mof_H 	H 	0.4148	0.4756	0.1522	0.051
Mof_C 	C 	0.5286	0.4985	0.1206	-0.055
Mof_H 	H 	0.5292	0.5268	0.1466	0.062
Mof_C 	C 	0.4549	0.3431	0.0041	0.052
Mof_H 	H 	0.4542	0.3151	0.9773	0.016
Mof_C 	C 	0.383	0.3514	0.0448	-0.078
Mof_H 	H 	0.3353	0.3292	0.0449	0.065
Mof_C 	C 	0.3833	0.392	0.0841	-0.037
Mof_H 	H 	0.3353	0.398	0.1113	0.05
Mof_O 	O 	0.55779	0.51391	0.40258	-0.218
Mof_O 	O 	0.7397	0.61588	0.44111	-0.217
Mof_O 	O 	0.9036	0.60192	0.57385	-0.221
Mof_O 	O 	0.95217	0.45358	0.65928	-0.225
Mof_O 	O 	0.8544	0.37524	0.53236	-0.207
Mof_O 	O 	0.7601	0.43044	0.3034	-0.217
Mof_O 	O 	0.4325	0.60103	0.15667	-0.47
Mof_O 	O 	0.2837	0.61337	0.15805	-0.892
Mof_O 	O 	0.96055	0.38927	0.92321	-0.769
Mof_O 	O 	0.10509	0.36202	0.95581	-0.414
Mof_O 	O 	0.8911	0.30858	0.79012	-0.887
Mof_O 	O 	0.0072	0.25653	0.798	-0.582
Mof_H 	H 	0.9948	0.2522	0.8404	0.31
Mof_O 	O 	0.5445	0.72291	0.58184	-0.326
Mof_O 	O 	0.5411	0.79011	0.51995	-0.751
Mof_O 	O 	0.90083	0.36508	0.08763	-0.516
Mof_O 	O 	0.7713	0.34933	0.00268	-0.887
Mof_O 	O 	0.7712	0.77102	0.6151	-0.806
Mof_O 	O 	0.905	0.80024	0.59142	-0.52
Mof_N 	N 	0.0724	0.4109	0.09473	-0.217
Mof_N 	N 	0.1152	0.32034	0.1202	-0.217
Mof_N 	N 	0.6638	0.43349	0.9953	-0.234
Mof_N 	N 	0.5239	0.37314	0.0016	-0.221
_end
