data_functionalizedCrystal
_audit_creation_method	'EQeq! by Chris Wilmer'
_symmetry_space_group_name_H-M	'P1'
_symmetry_Int_Tables_number	1
_symmetry_cell_setting	triclinic
loop_
_symmetry_equiv_pos_as_xyz
  x,y,z
_cell_length_a	9.263
_cell_length_b	11.0891
_cell_length_c	21.1717
_cell_angle_alpha	90
_cell_angle_beta	100.104
_cell_angle_gamma	90
loop_
_atom_site_label
_atom_site_type_symbol
_atom_site_fract_x
_atom_site_fract_y
_atom_site_fract_z
_atom_site_charge
Mof_Cu	Cu	0.83814	0.37908	0.64904	0.867
Mof_F 	F 	0.091	0.6044	0.34151	-0.337
Mof_F 	F 	0.2027	0.6704	0.45931	-0.341
Mof_F 	F 	0.6139	0.4208	0.45463	-0.376
Mof_F 	F 	0.5005	0.3524	0.33706	-0.363
Mof_N 	N 	-1.3275e-17	0.5268	0.19842	-0.189
Mof_N 	N 	0.4212	0.7852	0.58022	-0.211
Mof_N 	N 	0.6615	0.463	0.60593	-0.243
Mof_N 	N 	0.3022	0.2543	0.20755	-0.223
Mof_C 	C 	0.4838	0.4678	0.42762	0.247
Mof_C 	C 	0.2889	0.4721	0.33362	-0.06
Mof_C 	C 	0.4159	0.55	0.46275	-0.069
Mof_C 	C 	0.4756	0.5855	0.52844	-0.029
Mof_C 	C 	0.5793	0.5167	0.56906	0.162
Mof_C 	C 	0.4229	0.4315	0.36626	0.238
Mof_C 	C 	0.0999	0.4877	0.23203	0.197
Mof_C 	C 	0.2216	0.5574	0.36823	0.248
Mof_C 	C 	0.2815	0.5929	0.42943	0.246
Mof_C 	C 	0.4416	0.6965	0.55469	0.168
Mof_C 	C 	0.2245	0.4341	0.26887	-0.032
Mof_C 	C 	0.2743	0.3342	0.23767	0.193
Mof_Cu	Cu	0.33814	0.87908	0.64904	0.902
Mof_F 	F 	0.591	0.1044	0.34151	-0.366
Mof_F 	F 	0.7027	0.1704	0.45931	-0.356
Mof_F 	F 	0.1139	0.9208	0.45463	-0.292
Mof_F 	F 	0.0005	0.8524	0.33706	-0.272
Mof_N 	N 	0.5	0.0268	0.19842	-0.234
Mof_N 	N 	0.9212	0.2852	0.58022	-0.247
Mof_N 	N 	0.1615	0.963	0.60593	-0.259
Mof_N 	N 	0.8022	0.7543	0.20755	-0.246
Mof_C 	C 	0.9838	0.9678	0.42762	0.131
Mof_C 	C 	0.7889	0.9721	0.33362	-0.067
Mof_C 	C 	0.9159	0.05	0.46275	-0.013
Mof_C 	C 	0.9756	0.0855	0.52844	-0.203
Mof_C 	C 	0.0793	0.0167	0.56906	0.343
Mof_C 	C 	0.9229	0.9315	0.36626	0.166
Mof_C 	C 	0.5999	0.9877	0.23203	0.171
Mof_C 	C 	0.7216	0.0574	0.36823	0.245
Mof_C 	C 	0.7815	0.0929	0.42943	0.209
Mof_C 	C 	0.9416	0.1965	0.55469	0.18
Mof_C 	C 	0.7245	0.9341	0.26887	-0.05
Mof_C 	C 	0.7743	0.8342	0.23767	0.15
Mof_Cu	Cu	0.83814	0.62092	0.14904	0.862
Mof_F 	F 	0.091	0.3956	0.84151	-0.337
Mof_F 	F 	0.2027	0.3296	0.95931	-0.322
Mof_F 	F 	0.6139	0.5792	0.95463	-0.357
Mof_F 	F 	0.5005	0.6476	0.83706	-0.363
Mof_N 	N 	7.03528e-33	0.4732	0.69842	-0.187
Mof_N 	N 	0.4212	0.2148	0.08022	-0.222
Mof_N 	N 	0.6615	0.537	0.10593	-0.252
Mof_N 	N 	0.3022	0.7457	0.70755	-0.221
Mof_C 	C 	0.4838	0.5322	0.92762	0.231
Mof_C 	C 	0.2889	0.5279	0.83362	-0.066
Mof_C 	C 	0.4159	0.45	0.96275	-0.003
Mof_C 	C 	0.4756	0.4145	0.02844	-0.093
Mof_C 	C 	0.5793	0.4833	0.06906	0.163
Mof_C 	C 	0.4229	0.5685	0.86626	0.25
Mof_C 	C 	0.0999	0.5123	0.73203	0.199
Mof_C 	C 	0.2216	0.4426	0.86823	0.26
Mof_C 	C 	0.2815	0.4071	0.92943	0.23
Mof_C 	C 	0.4416	0.3035	0.05469	0.166
Mof_C 	C 	0.2245	0.5659	0.76887	-0.029
Mof_C 	C 	0.2743	0.6658	0.73767	0.195
Mof_Cu	Cu	0.33814	0.12092	0.14904	0.899
Mof_F 	F 	0.591	0.8956	0.84151	-0.365
Mof_F 	F 	0.7027	0.8296	0.95931	-0.337
Mof_F 	F 	0.1139	0.0792	0.95463	-0.272
Mof_F 	F 	0.0005	0.1476	0.83706	-0.27
Mof_N 	N 	0.5	0.9732	0.69842	-0.232
Mof_N 	N 	0.9212	0.7148	0.08022	-0.258
Mof_N 	N 	0.1615	0.037	0.10593	-0.267
Mof_N 	N 	0.8022	0.2457	0.70755	-0.244
Mof_C 	C 	0.9838	0.0322	0.92762	0.117
Mof_C 	C 	0.7889	0.0279	0.83362	-0.07
Mof_C 	C 	0.9159	0.95	0.96275	0.049
Mof_C 	C 	0.9756	0.9145	0.02844	-0.263
Mof_C 	C 	0.0793	0.9833	0.06906	0.34
Mof_C 	C 	0.9229	0.0685	0.86626	0.176
Mof_C 	C 	0.5999	0.0123	0.73203	0.176
Mof_C 	C 	0.7216	0.9426	0.86823	0.254
Mof_C 	C 	0.7815	0.9071	0.92943	0.195
Mof_C 	C 	0.9416	0.8035	0.05469	0.178
Mof_C 	C 	0.7245	0.0659	0.76887	-0.048
Mof_C 	C 	0.7743	0.1658	0.73767	0.153
_end
