data_functionalizedCrystal
_audit_creation_method	'EQeq! by Chris Wilmer'
_symmetry_space_group_name_H-M	'P1'
_symmetry_Int_Tables_number	1
_symmetry_cell_setting	triclinic
loop_
_symmetry_equiv_pos_as_xyz
  x,y,z
_cell_length_a	14.583
_cell_length_b	23.241
_cell_length_c	15.6338
_cell_angle_alpha	90
_cell_angle_beta	106.99
_cell_angle_gamma	90
loop_
_atom_site_label
_atom_site_type_symbol
_atom_site_fract_x
_atom_site_fract_y
_atom_site_fract_z
_atom_site_charge
Mof_Cd	Cd	0.23637	0.43763	0.58375	0.509
Mof_Cd	Cd	0.25806	0.30106	0.6964	0.463
Mof_C 	C 	0.1562	0.536	0.1322	0.196
Mof_C 	C 	0.2371	0.5089	0.1869	-0.219
Mof_H 	H 	0.29	0.502	0.1665	0.118
Mof_C 	C 	0.238	0.4921	0.2727	0.119
Mof_H 	H 	0.2902	0.4713	0.3073	0.013
Mof_C 	C 	0.1665	0.5048	0.3071	-0.166
Mof_C 	C 	0.087	0.5333	0.2521	0.12
Mof_H 	H 	0.0359	0.5425	0.2738	0.007
Mof_C 	C 	0.0834	0.5478	0.1663	-0.237
Mof_H 	H 	0.0292	0.5664	0.1306	0.117
Mof_C 	C 	0.1685	0.4879	0.3998	0.351
Mof_C 	C 	0.1857	0.5076	0.9912	0.204
Mof_C 	C 	0.2268	0.5243	0.9257	-0.231
Mof_H 	H 	0.2359	0.5632	0.9169	0.12
Mof_C 	C 	0.2539	0.4847	0.8744	0.129
Mof_H 	H 	0.281	0.4969	0.8306	0.009
Mof_C 	C 	0.2417	0.4263	0.886	-0.165
Mof_C 	C 	0.2018	0.4109	0.9492	0.134
Mof_H 	H 	0.1945	0.3719	0.9586	0.009
Mof_C 	C 	0.1705	0.45	0.0018	-0.247
Mof_H 	H 	0.1401	0.4376	0.0431	0.124
Mof_C 	C 	0.2669	0.3827	0.825	0.331
Mof_C 	C 	0.8751	0.7208	0.8808	0.322
Mof_C 	C 	0.953	0.6774	0.9202	-0.139
Mof_C 	C 	0.9609	0.6273	0.8758	0.117
Mof_H 	H 	0.9199	0.6211	0.8187	0.012
Mof_C 	C 	0.0283	0.5864	0.9144	-0.241
Mof_H 	H 	0.0324	0.5529	0.8831	0.12
Mof_C 	C 	0.0894	0.5944	0.9985	0.205
Mof_C 	C 	0.0859	0.6462	0.0395	-0.237
Mof_H 	H 	0.1309	0.6537	0.0942	0.116
Mof_C 	C 	0.0202	0.6862	0.0036	0.103
Mof_H 	H 	0.019	0.7204	0.0343	0.006
Mof_C 	C 	0.8429	0.2934	0.6634	0.165
Mof_C 	C 	0.8244	0.3137	0.5774	-0.187
Mof_H 	H 	0.764	0.3091	0.5367	0.105
Mof_C 	C 	0.8964	0.341	0.5521	0.088
Mof_H 	H 	0.8839	0.3552	0.4942	0.023
Mof_C 	C 	0.9868	0.3475	0.6117	-0.117
Mof_C 	C 	0.0019	0.3266	0.6967	0.06
Mof_H 	H 	0.0621	0.3309	0.7378	0.034
Mof_C 	C 	0.9314	0.2995	0.7232	-0.173
Mof_H 	H 	0.9438	0.2855	0.7812	0.105
Mof_C 	C 	0.0609	0.37861	0.5827	0.342
Mof_C 	C 	0.7827	0.2116	0.7308	0.175
Mof_C 	C 	0.8527	0.1733	0.7196	-0.201
Mof_H 	H 	0.8907	0.1834	0.6834	0.115
Mof_C 	C 	0.8652	0.1205	0.7621	0.107
Mof_H 	H 	0.9143	0.0964	0.7575	0.013
Mof_C 	C 	0.8065	0.1037	0.8107	-0.15
Mof_C 	C 	0.739	0.1411	0.8241	0.105
Mof_H 	H 	0.7004	0.1295	0.8589	0.013
Mof_C 	C 	0.7275	0.1947	0.7873	-0.202
Mof_H 	H 	0.6835	0.2201	0.7994	0.107
Mof_C 	C 	0.8168	0.0444	0.8511	0.339
Mof_C 	C 	0.6763	0.2915	0.6669	0.192
Mof_C 	C 	0.5929	0.2593	0.6318	-0.212
Mof_H 	H 	0.5971	0.2203	0.6199	0.112
Mof_C 	C 	0.5031	0.2856	0.6144	0.114
Mof_H 	H 	0.4475	0.2638	0.5938	0.007
Mof_C 	C 	0.4971	0.3431	0.6279	-0.168
Mof_C 	C 	0.5797	0.3754	0.6607	0.125
Mof_H 	H 	0.5757	0.4146	0.6711	0.01
Mof_C 	C 	0.668	0.3492	0.6778	-0.223
Mof_H 	H 	0.7232	0.3714	0.6972	0.12
Mof_C 	C 	0.4014	0.3706	0.6103	0.362
Mof_N 	N 	0.1537	0.55012	0.0432	-0.207
Mof_N 	N 	0.7667	0.26527	0.6892	-0.195
Mof_O 	O 	0.1109	0.51543	0.4332	-0.289
Mof_O 	O 	0.2237	0.4496	0.4388	-0.279
Mof_O 	O 	0.3128	0.3978	0.7739	-0.268
Mof_O 	O 	0.2377	0.3312	0.8283	-0.269
Mof_O 	O 	0.8501	0.75425	0.9323	-0.254
Mof_O 	O 	0.837	0.72015	0.7986	-0.269
Mof_O 	O 	0.0403	0.40536	0.5124	-0.296
Mof_O 	O 	0.1469	0.37612	0.6347	-0.297
Mof_O 	O 	0.8912	0.01696	0.8642	-0.293
Mof_O 	O 	0.7405	0.02532	0.8667	-0.277
Mof_O 	O 	0.3278	0.34112	0.5954	-0.296
Mof_O 	O 	0.3968	0.42356	0.6113	-0.272
Mof_Cd	Cd	0.76363	0.93763	0.91625	0.515
Mof_Cd	Cd	0.74194	0.80106	0.8036	0.464
Mof_C 	C 	0.8438	0.036	0.3678	0.211
Mof_C 	C 	0.7629	0.0089	0.3131	-0.247
Mof_H 	H 	0.71	0.002	0.3335	0.126
Mof_C 	C 	0.762	0.9921	0.2273	0.155
Mof_H 	H 	0.7098	0.9713	0.1927	0.003
Mof_C 	C 	0.8335	0.0048	0.1929	-0.194
Mof_C 	C 	0.913	0.0333	0.2479	0.142
Mof_H 	H 	0.9641	0.0425	0.2262	0.005
Mof_C 	C 	0.9166	0.0478	0.3337	-0.254
Mof_H 	H 	0.9708	0.0664	0.3694	0.129
Mof_C 	C 	0.8315	0.9879	0.1002	0.369
Mof_C 	C 	0.8143	0.0076	0.5088	0.178
Mof_C 	C 	0.7732	0.0243	0.5743	-0.22
Mof_H 	H 	0.7641	0.0632	0.5831	0.115
Mof_C 	C 	0.7461	0.9847	0.6256	0.121
Mof_H 	H 	0.719	0.9969	0.6694	0.014
Mof_C 	C 	0.7583	0.9263	0.614	-0.149
Mof_C 	C 	0.7982	0.9109	0.5508	0.108
Mof_H 	H 	0.8055	0.8719	0.5414	0.018
Mof_C 	C 	0.8295	0.95	0.4982	-0.206
Mof_H 	H 	0.8599	0.9376	0.4569	0.115
Mof_C 	C 	0.7331	0.8827	0.675	0.327
Mof_C 	C 	0.1249	0.2208	0.6192	0.324
Mof_C 	C 	0.047	0.1774	0.5798	-0.156
Mof_C 	C 	0.0391	0.1273	0.6242	0.082
Mof_H 	H 	0.0801	0.1211	0.6813	0.019
Mof_C 	C 	0.9717	0.0864	0.5856	-0.2
Mof_H 	H 	0.9676	0.0529	0.6169	0.11
Mof_C 	C 	0.9106	0.0944	0.5015	0.186
Mof_C 	C 	0.9141	0.1462	0.4605	-0.231
Mof_H 	H 	0.8691	0.1537	0.4058	0.115
Mof_C 	C 	0.9798	0.1862	0.4964	0.13
Mof_H 	H 	0.981	0.2204	0.4657	0.005
Mof_C 	C 	0.1571	0.7934	0.8366	0.228
Mof_C 	C 	0.1756	0.8137	0.9226	-0.266
Mof_H 	H 	0.236	0.8091	0.9633	0.133
Mof_C 	C 	0.1036	0.841	0.9479	0.184
Mof_H 	H 	0.1161	0.8552	0.0058	-0.016
Mof_C 	C 	0.0132	0.8475	0.8883	-0.231
Mof_C 	C 	0.9981	0.8266	0.8033	0.201
Mof_H 	H 	0.9379	0.8309	0.7622	-0.01
Mof_C 	C 	0.0686	0.7995	0.7768	-0.287
Mof_H 	H 	0.0562	0.7855	0.7188	0.14
Mof_C 	C 	0.9391	0.87861	0.9173	0.396
Mof_C 	C 	0.2173	0.7116	0.7692	0.178
Mof_C 	C 	0.1473	0.6733	0.7804	-0.205
Mof_H 	H 	0.1093	0.6834	0.8166	0.113
Mof_C 	C 	0.1348	0.6205	0.7379	0.109
Mof_H 	H 	0.0857	0.5964	0.7425	0.008
Mof_C 	C 	0.1935	0.6037	0.6893	-0.152
Mof_C 	C 	0.261	0.6411	0.6759	0.108
Mof_H 	H 	0.2996	0.6295	0.6411	0.012
Mof_C 	C 	0.2725	0.6947	0.7127	-0.205
Mof_H 	H 	0.3165	0.7201	0.7006	0.108
Mof_C 	C 	0.1832	0.5444	0.6489	0.341
Mof_C 	C 	0.3237	0.7915	0.8331	0.194
Mof_C 	C 	0.4071	0.7593	0.8682	-0.213
Mof_H 	H 	0.4029	0.7203	0.8801	0.113
Mof_C 	C 	0.4969	0.7856	0.8856	0.115
Mof_H 	H 	0.5525	0.7638	0.9062	0.008
Mof_C 	C 	0.5029	0.8431	0.8721	-0.167
Mof_C 	C 	0.4203	0.8754	0.8393	0.126
Mof_H 	H 	0.4243	0.9146	0.8289	0.011
Mof_C 	C 	0.332	0.8492	0.8222	-0.225
Mof_H 	H 	0.2768	0.8714	0.8028	0.12
Mof_C 	C 	0.5986	0.8706	0.8897	0.362
Mof_N 	N 	0.8463	0.05012	0.4568	-0.199
Mof_N 	N 	0.2333	0.76527	0.8108	-0.206
Mof_O 	O 	0.8891	0.01543	0.0668	-0.291
Mof_O 	O 	0.7763	0.9496	0.0612	-0.284
Mof_O 	O 	0.6872	0.8978	0.7261	-0.267
Mof_O 	O 	0.7623	0.8312	0.6717	-0.265
Mof_O 	O 	0.1499	0.25425	0.5677	-0.261
Mof_O 	O 	0.163	0.22015	0.7014	-0.272
Mof_O 	O 	0.9597	0.90536	0.9876	-0.297
Mof_O 	O 	0.8531	0.87612	0.8653	-0.308
Mof_O 	O 	0.1088	0.51696	0.6358	-0.298
Mof_O 	O 	0.2595	0.52532	0.6333	-0.275
Mof_O 	O 	0.6722	0.84112	0.9046	-0.295
Mof_O 	O 	0.6032	0.92356	0.8887	-0.27
Mof_Cd	Cd	0.76363	0.56237	0.41625	0.509
Mof_Cd	Cd	0.74194	0.69894	0.3036	0.464
Mof_C 	C 	0.8438	0.464	0.8678	0.195
Mof_C 	C 	0.7629	0.4911	0.8131	-0.217
Mof_H 	H 	0.71	0.498	0.8335	0.119
Mof_C 	C 	0.762	0.5079	0.7273	0.118
Mof_H 	H 	0.7098	0.5287	0.6927	0.014
Mof_C 	C 	0.8335	0.4952	0.6929	-0.162
Mof_C 	C 	0.913	0.4667	0.7479	0.12
Mof_H 	H 	0.9641	0.4575	0.7262	0.013
Mof_C 	C 	0.9166	0.4522	0.8337	-0.234
Mof_H 	H 	0.9708	0.4336	0.8694	0.123
Mof_C 	C 	0.8315	0.5121	0.6002	0.35
Mof_C 	C 	0.8143	0.4924	0.0088	0.156
Mof_C 	C 	0.7732	0.4757	0.0743	-0.191
Mof_H 	H 	0.7641	0.4368	0.0831	0.105
Mof_C 	C 	0.7461	0.5153	0.1256	0.092
Mof_H 	H 	0.719	0.5031	0.1694	0.021
Mof_C 	C 	0.7583	0.5737	0.114	-0.131
Mof_C 	C 	0.7982	0.5891	0.0508	0.079
Mof_H 	H 	0.8055	0.6281	0.0414	0.026
Mof_C 	C 	0.8295	0.55	0.9982	-0.178
Mof_H 	H 	0.8599	0.5624	0.9569	0.105
Mof_C 	C 	0.7331	0.6173	0.175	0.319
Mof_C 	C 	0.1249	0.2792	0.1192	0.325
Mof_C 	C 	0.047	0.3226	0.0798	-0.159
Mof_C 	C 	0.0391	0.3727	0.1242	0.082
Mof_H 	H 	0.0801	0.3789	0.1813	0.02
Mof_C 	C 	0.9717	0.4136	0.0856	-0.197
Mof_H 	H 	0.9676	0.4471	0.1169	0.11
Mof_C 	C 	0.9106	0.4056	0.0015	0.174
Mof_C 	C 	0.9141	0.3538	0.9605	-0.22
Mof_H 	H 	0.8691	0.3463	0.9058	0.112
Mof_C 	C 	0.9798	0.3138	0.9964	0.131
Mof_H 	H 	0.981	0.2796	0.9657	0.006
Mof_C 	C 	0.1571	0.7066	0.3366	0.225
Mof_C 	C 	0.1756	0.6863	0.4226	-0.258
Mof_H 	H 	0.236	0.6909	0.4633	0.129
Mof_C 	C 	0.1036	0.659	0.4479	0.169
Mof_H 	H 	0.1161	0.6448	0.5058	-0.008
Mof_C 	C 	0.0132	0.6525	0.3883	-0.228
Mof_C 	C 	0.9981	0.6734	0.3033	0.201
Mof_H 	H 	0.9379	0.6691	0.2622	-0.01
Mof_C 	C 	0.0686	0.7005	0.2768	-0.285
Mof_H 	H 	0.0562	0.7145	0.2188	0.139
Mof_C 	C 	0.9391	0.62139	0.4173	0.396
Mof_C 	C 	0.2173	0.7884	0.2692	0.177
Mof_C 	C 	0.1473	0.8267	0.2804	-0.204
Mof_H 	H 	0.1093	0.8166	0.3166	0.112
Mof_C 	C 	0.1348	0.8795	0.2379	0.107
Mof_H 	H 	0.0857	0.9036	0.2425	0.01
Mof_C 	C 	0.1935	0.8963	0.1893	-0.15
Mof_C 	C 	0.261	0.8589	0.1759	0.107
Mof_H 	H 	0.2996	0.8705	0.1411	0.012
Mof_C 	C 	0.2725	0.8053	0.2127	-0.204
Mof_H 	H 	0.3165	0.7799	0.2006	0.107
Mof_C 	C 	0.1832	0.9556	0.1489	0.339
Mof_C 	C 	0.3237	0.7085	0.3331	0.194
Mof_C 	C 	0.4071	0.7407	0.3682	-0.214
Mof_H 	H 	0.4029	0.7797	0.3801	0.113
Mof_C 	C 	0.4969	0.7144	0.3856	0.116
Mof_H 	H 	0.5525	0.7362	0.4062	0.007
Mof_C 	C 	0.5029	0.6569	0.3721	-0.169
Mof_C 	C 	0.4203	0.6246	0.3393	0.126
Mof_H 	H 	0.4243	0.5854	0.3289	0.009
Mof_C 	C 	0.332	0.6508	0.3222	-0.226
Mof_H 	H 	0.2768	0.6286	0.3028	0.12
Mof_C 	C 	0.5986	0.6294	0.3897	0.363
Mof_N 	N 	0.8463	0.44988	0.9568	-0.188
Mof_N 	N 	0.2333	0.73473	0.3108	-0.205
Mof_O 	O 	0.8891	0.48457	0.5668	-0.284
Mof_O 	O 	0.7763	0.5504	0.5612	-0.278
Mof_O 	O 	0.6872	0.6022	0.2261	-0.266
Mof_O 	O 	0.7623	0.6688	0.1717	-0.264
Mof_O 	O 	0.1499	0.24575	0.0677	-0.262
Mof_O 	O 	0.163	0.27985	0.2014	-0.272
Mof_O 	O 	0.9597	0.59464	0.4876	-0.301
Mof_O 	O 	0.8531	0.62388	0.3653	-0.308
Mof_O 	O 	0.1088	0.98304	0.1358	-0.292
Mof_O 	O 	0.2595	0.97468	0.1333	-0.272
Mof_O 	O 	0.6722	0.65888	0.4046	-0.296
Mof_O 	O 	0.6032	0.57644	0.3887	-0.273
Mof_Cd	Cd	0.23637	0.06237	0.08375	0.501
Mof_Cd	Cd	0.25806	0.19894	0.1964	0.461
Mof_C 	C 	0.1562	0.964	0.6322	0.17
Mof_C 	C 	0.2371	0.9911	0.6869	-0.173
Mof_H 	H 	0.29	0.998	0.6665	0.105
Mof_C 	C 	0.238	0.0079	0.7727	0.057
Mof_H 	H 	0.2902	0.0287	0.8073	0.033
Mof_C 	C 	0.1665	0.9952	0.8071	-0.112
Mof_C 	C 	0.087	0.9667	0.7521	0.082
Mof_H 	H 	0.0359	0.9575	0.7738	0.022
Mof_C 	C 	0.0834	0.9522	0.6663	-0.203
Mof_H 	H 	0.0292	0.9336	0.6306	0.107
Mof_C 	C 	0.1685	0.0121	0.8998	0.316
Mof_C 	C 	0.1857	0.9924	0.4912	0.185
Mof_C 	C 	0.2268	0.9757	0.4257	-0.198
Mof_H 	H 	0.2359	0.9368	0.4169	0.109
Mof_C 	C 	0.2539	0.0153	0.3744	0.095
Mof_H 	H 	0.281	0.0031	0.3306	0.017
Mof_C 	C 	0.2417	0.0737	0.386	-0.146
Mof_C 	C 	0.2018	0.0891	0.4492	0.107
Mof_H 	H 	0.1945	0.1281	0.4586	0.016
Mof_C 	C 	0.1705	0.05	0.5018	-0.223
Mof_H 	H 	0.1401	0.0624	0.5431	0.114
Mof_C 	C 	0.2669	0.1173	0.325	0.323
Mof_C 	C 	0.8751	0.7792	0.3808	0.322
Mof_C 	C 	0.953	0.8226	0.4202	-0.141
Mof_C 	C 	0.9609	0.8727	0.3758	0.111
Mof_H 	H 	0.9199	0.8789	0.3187	0.014
Mof_C 	C 	0.0283	0.9136	0.4144	-0.232
Mof_H 	H 	0.0324	0.9471	0.3831	0.118
Mof_C 	C 	0.0894	0.9056	0.4985	0.191
Mof_C 	C 	0.0859	0.8538	0.5395	-0.225
Mof_H 	H 	0.1309	0.8463	0.5942	0.112
Mof_C 	C 	0.0202	0.8138	0.5036	0.104
Mof_H 	H 	0.019	0.7796	0.5343	0.007
Mof_C 	C 	0.8429	0.2066	0.1634	0.156
Mof_C 	C 	0.8244	0.1863	0.0774	-0.173
Mof_H 	H 	0.764	0.1909	0.0367	0.098
Mof_C 	C 	0.8964	0.159	0.0521	0.067
Mof_H 	H 	0.8839	0.1448	0.9942	0.034
Mof_C 	C 	0.9868	0.1525	0.1117	-0.104
Mof_C 	C 	0.0019	0.1734	0.1967	0.047
Mof_H 	H 	0.0621	0.1691	0.2378	0.038
Mof_C 	C 	0.9314	0.2005	0.2232	-0.162
Mof_H 	H 	0.9438	0.2145	0.2812	0.101
Mof_C 	C 	0.0609	0.12139	0.0827	0.336
Mof_C 	C 	0.7827	0.2884	0.2308	0.174
Mof_C 	C 	0.8527	0.3267	0.2196	-0.2
Mof_H 	H 	0.8907	0.3166	0.1834	0.114
Mof_C 	C 	0.8652	0.3795	0.2621	0.106
Mof_H 	H 	0.9143	0.4036	0.2575	0.014
Mof_C 	C 	0.8065	0.3963	0.3107	-0.149
Mof_C 	C 	0.739	0.3589	0.3241	0.104
Mof_H 	H 	0.7004	0.3705	0.3589	0.013
Mof_C 	C 	0.7275	0.3053	0.2873	-0.201
Mof_H 	H 	0.6835	0.2799	0.2994	0.106
Mof_C 	C 	0.8168	0.4556	0.3511	0.338
Mof_C 	C 	0.6763	0.2085	0.1669	0.192
Mof_C 	C 	0.5929	0.2407	0.1318	-0.213
Mof_H 	H 	0.5971	0.2797	0.1199	0.112
Mof_C 	C 	0.5031	0.2144	0.1144	0.115
Mof_H 	H 	0.4475	0.2362	0.0938	0.006
Mof_C 	C 	0.4971	0.1569	0.1279	-0.17
Mof_C 	C 	0.5797	0.1246	0.1607	0.125
Mof_H 	H 	0.5757	0.0854	0.1711	0.008
Mof_C 	C 	0.668	0.1508	0.1778	-0.224
Mof_H 	H 	0.7232	0.1286	0.1972	0.119
Mof_C 	C 	0.4014	0.1294	0.1103	0.363
Mof_N 	N 	0.1537	0.94988	0.5432	-0.194
Mof_N 	N 	0.7667	0.23473	0.1892	-0.194
Mof_O 	O 	0.1109	0.98457	0.9332	-0.27
Mof_O 	O 	0.2237	0.0504	0.9388	-0.269
Mof_O 	O 	0.3128	0.1022	0.2739	-0.268
Mof_O 	O 	0.2377	0.1688	0.3283	-0.268
Mof_O 	O 	0.8501	0.74575	0.4323	-0.256
Mof_O 	O 	0.837	0.77985	0.2986	-0.27
Mof_O 	O 	0.0403	0.09464	0.0124	-0.297
Mof_O 	O 	0.1469	0.12388	0.1347	-0.296
Mof_O 	O 	0.8912	0.48304	0.3642	-0.292
Mof_O 	O 	0.7405	0.47468	0.3667	-0.275
Mof_O 	O 	0.3278	0.15888	0.0954	-0.297
Mof_O 	O 	0.3968	0.07644	0.1113	-0.275
Mof_Cd	Cd	2.59705e-33	0.5	0.5	0.516
Mof_Cd	Cd	-0	0	-0	0.501
_end
