data_functionalizedCrystal
_audit_creation_method	'EQeq! by Chris Wilmer'
_symmetry_space_group_name_H-M	'P1'
_symmetry_Int_Tables_number	1
_symmetry_cell_setting	triclinic
loop_
_symmetry_equiv_pos_as_xyz
  x,y,z
_cell_length_a	12.919
_cell_length_b	26.8433
_cell_length_c	13.2924
_cell_angle_alpha	90
_cell_angle_beta	116.759
_cell_angle_gamma	90
loop_
_atom_site_label
_atom_site_type_symbol
_atom_site_fract_x
_atom_site_fract_y
_atom_site_fract_z
_atom_site_charge
Mof_Sm	Sm	0.82163	0.00178	0.92328	2.371
Mof_O 	O 	0.0344	0.04329	0.1067	-0.629
Mof_O 	O 	0.8543	0.06162	0.0706	-0.546
Mof_O 	O 	0.6701	0.04849	0.7943	-0.642
Mof_O 	O 	0.9013	0.9445	0.0715	-0.603
Mof_O 	O 	0.9106	0.07127	0.873	-0.566
Mof_O 	O 	0.7064	0.9329	0.82	-0.629
Mof_C 	C 	0.9601	0.0726	0.1141	0.481
Mof_C 	C 	0.6129	0.078	0.7157	0.58
Mof_C 	C 	0.996	0.1227	0.1667	-0.22
Mof_C 	C 	0.594	0.1302	0.7464	-0.257
Mof_O 	O 	0.5665	0.06671	0.6124	-0.598
Mof_C 	C 	0.099	0.1443	0.1767	0.111
Mof_C 	C 	0.9258	0.1492	0.2013	0.146
Mof_C 	C 	0.5115	0.1607	0.6654	0.175
Mof_C 	C 	0.6604	0.1473	0.8557	0.135
Mof_Sm	Sm	0.44491	0.00642	0.49725	1.172
Mof_H 	H 	0.1477	0.1262	0.1561	-0.01
Mof_C 	C 	0.1292	0.1927	0.2169	-0.175
Mof_H 	H 	0.8578	0.135	0.1958	-0.025
Mof_C 	C 	0.9572	0.1971	0.2443	-0.24
Mof_H 	H 	0.4679	0.1491	0.5923	-0.024
Mof_C 	C 	0.4949	0.2083	0.6943	-0.259
Mof_H 	H 	0.7155	0.1266	0.9091	-0.027
Mof_C 	C 	0.6446	0.1953	0.8852	-0.192
Mof_O 	O 	0.302	0.0743	0.5042	-0.251
Mof_O 	O 	0.3663	0.0281	0.6345	-0.263
Mof_O 	O 	0.5752	0.9509	0.6493	-0.642
Mof_H 	H 	0.1971	0.207	0.2223	0.072
Mof_C 	C 	0.0567	0.2193	0.2489	0.072
Mof_C 	C 	0.8939	0.233	0.2874	0.56
Mof_C 	C 	0.5623	0.2256	0.8035	0.068
Mof_C 	C 	0.4089	0.2486	0.6211	0.596
Mof_H 	H 	0.6883	0.207	0.9581	0.063
Mof_N 	N 	0.2984	0.0638	0.586	0.086
Mof_C 	C 	0.0626	0.2706	0.287	0.067
Mof_C 	C 	0.8988	0.2144	0.3986	-1.048
Mof_C 	C 	0.7696	0.242	0.1982	-1.06
Mof_C 	C 	0.9675	0.2799	0.3076	-0.245
Mof_C 	C 	0.5291	0.2777	0.8107	0.095
Mof_C 	C 	0.2832	0.2306	0.5786	-1.1
Mof_C 	C 	0.4295	0.2634	0.5212	-1.098
Mof_C 	C 	0.4385	0.291	0.7057	-0.286
Mof_O 	O 	0.2562	0.0868	0.6369	-0.156
Mof_C 	C 	0.1427	0.3089	0.3017	-0.18
Mof_H 	H 	0.8682	0.2395	0.4292	0.333
Mof_H 	H 	0.9777	0.2074	0.4511	0.336
Mof_H 	H 	0.8535	0.1845	0.385	0.331
Mof_H 	H 	0.7355	0.2681	0.2229	0.342
Mof_H 	H 	0.7255	0.212	0.1868	0.332
Mof_H 	H 	0.7698	0.2517	0.1287	0.33
Mof_C 	C 	0.9496	0.3274	0.3384	0.152
Mof_C 	C 	0.5721	0.3108	0.8996	-0.227
Mof_H 	H 	0.2717	0.2194	0.6415	0.354
Mof_H 	H 	0.2685	0.2036	0.5266	0.361
Mof_H 	H 	0.2309	0.2575	0.5416	0.353
Mof_H 	H 	0.3824	0.2918	0.4843	0.35
Mof_H 	H 	0.4095	0.2361	0.4691	0.353
Mof_H 	H 	0.5098	0.2717	0.5472	0.343
Mof_C 	C 	0.3898	0.3376	0.6918	0.203
Mof_H 	H 	0.2064	0.3033	0.2882	0.066
Mof_C 	C 	0.1243	0.3552	0.3366	0.116
Mof_H 	H 	0.8844	0.3338	0.3489	-0.029
Mof_C 	C 	0.0278	0.3651	0.3534	-0.238
Mof_H 	H 	0.6331	0.3019	0.9684	0.077
Mof_C 	C 	0.5223	0.3577	0.8838	0.169
Mof_H 	H 	0.3297	0.3468	0.6227	-0.05
Mof_C 	C 	0.4307	0.3707	0.7809	-0.302
Mof_H 	H 	0.1781	0.3805	0.3491	-0.01
Mof_C 	C 	0.011	0.4165	0.3878	0.523
Mof_H 	H 	0.5503	0.3807	0.9425	-0.046
Mof_C 	C 	0.3754	0.4214	0.7679	0.615
Mof_Sm	Sm	0.17837	0.50178	0.57672	2.378
Mof_O 	O 	0.9656	0.54329	0.3933	-0.633
Mof_O 	O 	0.1457	0.56162	0.4294	-0.551
Mof_O 	O 	0.3299	0.54849	0.7057	-0.643
Mof_O 	O 	0.0987	0.4445	0.4285	-0.605
Mof_O 	O 	0.0894	0.57127	0.627	-0.566
Mof_O 	O 	0.2936	0.4329	0.68	-0.633
Mof_C 	C 	0.0399	0.5726	0.3859	0.481
Mof_C 	C 	0.3871	0.578	0.7843	0.579
Mof_C 	C 	0.004	0.6227	0.3333	-0.224
Mof_C 	C 	0.406	0.6302	0.7536	-0.257
Mof_O 	O 	0.4335	0.56671	0.8876	-0.598
Mof_C 	C 	0.901	0.6443	0.3233	0.112
Mof_C 	C 	0.0742	0.6492	0.2987	0.146
Mof_C 	C 	0.4885	0.6607	0.8346	0.172
Mof_C 	C 	0.3396	0.6473	0.6443	0.133
Mof_Sm	Sm	0.55509	0.50642	0.00275	1.171
Mof_H 	H 	0.8523	0.6262	0.3439	-0.012
Mof_C 	C 	0.8708	0.6927	0.2831	-0.177
Mof_H 	H 	0.1422	0.635	0.3042	-0.026
Mof_C 	C 	0.0428	0.6971	0.2557	-0.242
Mof_H 	H 	0.5321	0.6491	0.9077	-0.022
Mof_C 	C 	0.5051	0.7083	0.8057	-0.255
Mof_H 	H 	0.2845	0.6266	0.5909	-0.026
Mof_C 	C 	0.3554	0.6953	0.6148	-0.191
Mof_O 	O 	0.698	0.5743	0.9958	-0.25
Mof_O 	O 	0.6337	0.5281	0.8655	-0.263
Mof_O 	O 	0.4248	0.4509	0.8507	-0.643
Mof_H 	H 	0.8029	0.707	0.2777	0.072
Mof_C 	C 	0.9433	0.7193	0.2511	0.074
Mof_C 	C 	0.1061	0.733	0.2126	0.559
Mof_C 	C 	0.4377	0.7256	0.6965	0.066
Mof_C 	C 	0.5911	0.7486	0.8789	0.586
Mof_H 	H 	0.3117	0.707	0.5419	0.063
Mof_N 	N 	0.7016	0.5638	0.914	0.085
Mof_C 	C 	0.9374	0.7706	0.213	0.067
Mof_C 	C 	0.1012	0.7144	0.1014	-1.045
Mof_C 	C 	0.2304	0.742	0.3018	-1.057
Mof_C 	C 	0.0325	0.7799	0.1924	-0.245
Mof_C 	C 	0.4709	0.7777	0.6893	0.094
Mof_C 	C 	0.7168	0.7306	0.9214	-1.09
Mof_C 	C 	0.5705	0.7634	0.9788	-1.068
Mof_C 	C 	0.5615	0.791	0.7943	-0.281
Mof_O 	O 	0.7438	0.5868	0.8631	-0.156
Mof_C 	C 	0.8573	0.8089	0.1983	-0.18
Mof_H 	H 	0.1318	0.7395	0.0708	0.332
Mof_H 	H 	0.0223	0.7074	0.0489	0.334
Mof_H 	H 	0.1465	0.6845	0.115	0.33
Mof_H 	H 	0.2645	0.7681	0.2771	0.341
Mof_H 	H 	0.2745	0.712	0.3132	0.33
Mof_H 	H 	0.2302	0.7517	0.3713	0.328
Mof_C 	C 	0.0504	0.8274	0.1616	0.149
Mof_C 	C 	0.4279	0.8108	0.6004	-0.226
Mof_H 	H 	0.7283	0.7194	0.8585	0.351
Mof_H 	H 	0.7315	0.7036	0.9734	0.359
Mof_H 	H 	0.7691	0.7575	0.9584	0.352
Mof_H 	H 	0.6176	0.7918	0.0157	0.339
Mof_H 	H 	0.5905	0.7361	0.0309	0.343
Mof_H 	H 	0.4902	0.7717	0.9528	0.335
Mof_C 	C 	0.6102	0.8376	0.8082	0.2
Mof_H 	H 	0.7936	0.8033	0.2118	0.066
Mof_C 	C 	0.8757	0.8552	0.1634	0.115
Mof_H 	H 	0.1156	0.8338	0.1511	-0.029
Mof_C 	C 	0.9722	0.8651	0.1466	-0.236
Mof_H 	H 	0.3669	0.8019	0.5316	0.077
Mof_C 	C 	0.4777	0.8577	0.6162	0.168
Mof_H 	H 	0.6703	0.8468	0.8773	-0.048
Mof_C 	C 	0.5693	0.8707	0.7191	-0.3
Mof_H 	H 	0.8219	0.8805	0.1509	-0.01
Mof_C 	C 	0.989	0.9165	0.1122	0.524
Mof_H 	H 	0.4497	0.8807	0.5575	-0.045
Mof_C 	C 	0.6246	0.9214	0.7321	0.614
Mof_Sm	Sm	0.17837	0.99822	0.07672	2.37
Mof_O 	O 	0.9656	0.95671	0.8933	-0.63
Mof_O 	O 	0.1457	0.93838	0.9294	-0.547
Mof_O 	O 	0.3299	0.95151	0.2057	-0.643
Mof_O 	O 	0.0987	0.0555	0.9285	-0.604
Mof_O 	O 	0.0894	0.92873	0.127	-0.567
Mof_O 	O 	0.2936	0.0671	0.18	-0.63
Mof_C 	C 	0.0399	0.9274	0.8859	0.48
Mof_C 	C 	0.3871	0.922	0.2843	0.579
Mof_C 	C 	0.004	0.8773	0.8333	-0.221
Mof_C 	C 	0.406	0.8698	0.2536	-0.258
Mof_O 	O 	0.4335	0.93329	0.3876	-0.599
Mof_C 	C 	0.901	0.8557	0.8233	0.11
Mof_C 	C 	0.0742	0.8508	0.7987	0.145
Mof_C 	C 	0.4885	0.8393	0.3346	0.174
Mof_C 	C 	0.3396	0.8527	0.1443	0.134
Mof_Sm	Sm	0.55509	0.99358	0.50275	1.172
Mof_H 	H 	0.8523	0.8738	0.8439	-0.01
Mof_C 	C 	0.8708	0.8073	0.7831	-0.175
Mof_H 	H 	0.1422	0.865	0.8042	-0.025
Mof_C 	C 	0.0428	0.8029	0.7557	-0.24
Mof_H 	H 	0.5321	0.8509	0.4077	-0.024
Mof_C 	C 	0.5051	0.7917	0.3057	-0.259
Mof_H 	H 	0.2845	0.8734	0.0909	-0.027
Mof_C 	C 	0.3554	0.8047	0.1148	-0.192
Mof_O 	O 	0.698	0.9257	0.4958	-0.251
Mof_O 	O 	0.6337	0.9719	0.3655	-0.263
Mof_O 	O 	0.4248	0.0491	0.3507	-0.642
Mof_H 	H 	0.8029	0.793	0.7777	0.072
Mof_C 	C 	0.9433	0.7807	0.7511	0.072
Mof_C 	C 	0.1061	0.767	0.7126	0.56
Mof_C 	C 	0.4377	0.7744	0.1965	0.068
Mof_C 	C 	0.5911	0.7514	0.3789	0.596
Mof_H 	H 	0.3117	0.793	0.0419	0.063
Mof_N 	N 	0.7016	0.9362	0.414	0.086
Mof_C 	C 	0.9374	0.7294	0.713	0.067
Mof_C 	C 	0.1012	0.7856	0.6014	-1.048
Mof_C 	C 	0.2304	0.758	0.8018	-1.06
Mof_C 	C 	0.0325	0.7201	0.6924	-0.245
Mof_C 	C 	0.4709	0.7223	0.1893	0.095
Mof_C 	C 	0.7168	0.7694	0.4214	-1.1
Mof_C 	C 	0.5705	0.7366	0.4788	-1.098
Mof_C 	C 	0.5615	0.709	0.2943	-0.286
Mof_O 	O 	0.7438	0.9132	0.3631	-0.156
Mof_C 	C 	0.8573	0.6911	0.6983	-0.18
Mof_H 	H 	0.1318	0.7605	0.5708	0.333
Mof_H 	H 	0.0223	0.7926	0.5489	0.336
Mof_H 	H 	0.1465	0.8155	0.615	0.331
Mof_H 	H 	0.2645	0.7319	0.7771	0.342
Mof_H 	H 	0.2745	0.788	0.8132	0.332
Mof_H 	H 	0.2302	0.7483	0.8713	0.33
Mof_C 	C 	0.0504	0.6726	0.6616	0.152
Mof_C 	C 	0.4279	0.6892	0.1004	-0.227
Mof_H 	H 	0.7283	0.7806	0.3585	0.354
Mof_H 	H 	0.7315	0.7964	0.4734	0.361
Mof_H 	H 	0.7691	0.7425	0.4584	0.353
Mof_H 	H 	0.6176	0.7082	0.5157	0.35
Mof_H 	H 	0.5905	0.7639	0.5309	0.353
Mof_H 	H 	0.4902	0.7283	0.4528	0.343
Mof_C 	C 	0.6102	0.6624	0.3082	0.203
Mof_H 	H 	0.7936	0.6967	0.7118	0.066
Mof_C 	C 	0.8757	0.6448	0.6634	0.116
Mof_H 	H 	0.1156	0.6662	0.6511	-0.029
Mof_C 	C 	0.9722	0.6349	0.6466	-0.238
Mof_H 	H 	0.3669	0.6981	0.0316	0.077
Mof_C 	C 	0.4777	0.6423	0.1162	0.169
Mof_H 	H 	0.6703	0.6532	0.3773	-0.05
Mof_C 	C 	0.5693	0.6293	0.2191	-0.302
Mof_H 	H 	0.8219	0.6195	0.6509	-0.01
Mof_C 	C 	0.989	0.5835	0.6122	0.523
Mof_H 	H 	0.4497	0.6193	0.0575	-0.046
Mof_C 	C 	0.6246	0.5786	0.2321	0.615
Mof_Sm	Sm	0.82163	0.49822	0.42328	2.378
Mof_O 	O 	0.0344	0.45671	0.6067	-0.633
Mof_O 	O 	0.8543	0.43838	0.5706	-0.551
Mof_O 	O 	0.6701	0.45151	0.2943	-0.643
Mof_O 	O 	0.9013	0.5555	0.5715	-0.605
Mof_O 	O 	0.9106	0.42873	0.373	-0.566
Mof_O 	O 	0.7064	0.5671	0.32	-0.633
Mof_C 	C 	0.9601	0.4274	0.6141	0.481
Mof_C 	C 	0.6129	0.422	0.2157	0.579
Mof_C 	C 	0.996	0.3773	0.6667	-0.224
Mof_C 	C 	0.594	0.3698	0.2464	-0.257
Mof_O 	O 	0.5665	0.43329	0.1124	-0.598
Mof_C 	C 	0.099	0.3557	0.6767	0.112
Mof_C 	C 	0.9258	0.3508	0.7013	0.146
Mof_C 	C 	0.5115	0.3393	0.1654	0.172
Mof_C 	C 	0.6604	0.3527	0.3557	0.133
Mof_Sm	Sm	0.44491	0.49358	0.99725	1.171
Mof_H 	H 	0.1477	0.3738	0.6561	-0.012
Mof_C 	C 	0.1292	0.3073	0.7169	-0.177
Mof_H 	H 	0.8578	0.365	0.6958	-0.026
Mof_C 	C 	0.9572	0.3029	0.7443	-0.242
Mof_H 	H 	0.4679	0.3509	0.0923	-0.022
Mof_C 	C 	0.4949	0.2917	0.1943	-0.255
Mof_H 	H 	0.7155	0.3734	0.4091	-0.026
Mof_C 	C 	0.6446	0.3047	0.3852	-0.191
Mof_O 	O 	0.302	0.4257	0.0042	-0.25
Mof_O 	O 	0.3663	0.4719	0.1345	-0.263
Mof_O 	O 	0.5752	0.5491	0.1493	-0.643
Mof_H 	H 	0.1971	0.293	0.7223	0.072
Mof_C 	C 	0.0567	0.2807	0.7489	0.074
Mof_C 	C 	0.8939	0.267	0.7874	0.559
Mof_C 	C 	0.5623	0.2744	0.3035	0.066
Mof_C 	C 	0.4089	0.2514	0.1211	0.586
Mof_H 	H 	0.6883	0.293	0.4581	0.063
Mof_N 	N 	0.2984	0.4362	0.086	0.085
Mof_C 	C 	0.0626	0.2294	0.787	0.067
Mof_C 	C 	0.8988	0.2856	0.8986	-1.045
Mof_C 	C 	0.7696	0.258	0.6982	-1.057
Mof_C 	C 	0.9675	0.2201	0.8076	-0.245
Mof_C 	C 	0.5291	0.2223	0.3107	0.094
Mof_C 	C 	0.2832	0.2694	0.0786	-1.09
Mof_C 	C 	0.4295	0.2366	0.0212	-1.068
Mof_C 	C 	0.4385	0.209	0.2057	-0.281
Mof_O 	O 	0.2562	0.4132	0.1369	-0.156
Mof_C 	C 	0.1427	0.1911	0.8017	-0.18
Mof_H 	H 	0.8682	0.2605	0.9292	0.332
Mof_H 	H 	0.9777	0.2926	0.9511	0.334
Mof_H 	H 	0.8535	0.3155	0.885	0.33
Mof_H 	H 	0.7355	0.2319	0.7229	0.341
Mof_H 	H 	0.7255	0.288	0.6868	0.33
Mof_H 	H 	0.7698	0.2483	0.6287	0.328
Mof_C 	C 	0.9496	0.1726	0.8384	0.149
Mof_C 	C 	0.5721	0.1892	0.3996	-0.226
Mof_H 	H 	0.2717	0.2806	0.1415	0.351
Mof_H 	H 	0.2685	0.2964	0.0266	0.359
Mof_H 	H 	0.2309	0.2425	0.0416	0.352
Mof_H 	H 	0.3824	0.2082	0.9843	0.339
Mof_H 	H 	0.4095	0.2639	0.9691	0.343
Mof_H 	H 	0.5098	0.2283	0.0472	0.335
Mof_C 	C 	0.3898	0.1624	0.1918	0.2
Mof_H 	H 	0.2064	0.1967	0.7882	0.066
Mof_C 	C 	0.1243	0.1448	0.8366	0.115
Mof_H 	H 	0.8844	0.1662	0.8489	-0.029
Mof_C 	C 	0.0278	0.1349	0.8534	-0.236
Mof_H 	H 	0.6331	0.1981	0.4684	0.077
Mof_C 	C 	0.5223	0.1423	0.3838	0.168
Mof_H 	H 	0.3297	0.1532	0.1227	-0.048
Mof_C 	C 	0.4307	0.1293	0.2809	-0.3
Mof_H 	H 	0.1781	0.1195	0.8491	-0.01
Mof_C 	C 	0.011	0.0835	0.8878	0.524
Mof_H 	H 	0.5503	0.1193	0.4425	-0.045
Mof_C 	C 	0.3754	0.0786	0.2679	0.614
_end
