data_functionalizedCrystal
_audit_creation_method	'EQeq! by Chris Wilmer'
_symmetry_space_group_name_H-M	'P1'
_symmetry_Int_Tables_number	1
_symmetry_cell_setting	triclinic
loop_
_symmetry_equiv_pos_as_xyz
  x,y,z
_cell_length_a	17.2023
_cell_length_b	17.2023
_cell_length_c	13.3086
_cell_angle_alpha	90
_cell_angle_beta	90
_cell_angle_gamma	90
loop_
_atom_site_label
_atom_site_type_symbol
_atom_site_fract_x
_atom_site_fract_y
_atom_site_fract_z
_atom_site_charge
Mof_P 	P 	0.6742	0.4196	0.9512	0.604
Mof_P 	P 	0.8232	0.4082	0.6151	0.549
Mof_P 	P 	0.6044	0.1833	0.8762	0.546
Mof_P 	P 	0.592	0.3343	0.5494	0.572
Mof_F 	F 	0.7306	0.2422	0.6462	-0.549
Mof_F 	F 	0.7644	0.2762	0.8531	-0.55
Mof_O 	O 	0.6988	0.3533	0.0191	-0.356
Mof_O 	O 	0.6132	0.4679	0.0038	-0.338
Mof_O 	O 	0.5415	0.3914	0.4931	-0.32
Mof_O 	O 	0.6523	0.1996	0.9688	-0.298
Mof_O 	O 	0.6228	0.3642	0.649	-0.357
Mof_O 	O 	0.6141	0.2419	0.7922	-0.315
Mof_O 	O 	0.5389	0.2628	0.5789	-0.148
Mof_O 	O 	0.6499	0.3936	0.8463	-0.35
Mof_O 	O 	0.7802	0.387	0.7092	-0.306
Mof_O 	O 	0.5185	0.1793	0.9068	-0.133
Mof_O 	O 	0.655	0.3052	0.4789	-0.324
Mof_O 	O 	0.6282	0.1028	0.8299	-0.141
Mof_O 	O 	0.7475	0.474	0.9308	-0.131
Mof_O 	O 	0.8072	0.3549	0.5256	-0.296
Mof_O 	O 	0.9104	0.4102	0.6394	-0.105
Mof_O 	O 	0.8031	0.4915	0.5866	-0.141
Mof_Fe	Fe	0.6932	0.3179	0.7492	1.233
Mof_Fe	Fe	0.7531	0.254	0.9993	1.266
Mof_P 	P 	0.3258	0.5804	0.9512	0.605
Mof_P 	P 	0.1768	0.5918	0.6151	0.551
Mof_P 	P 	0.3956	0.8167	0.8762	0.545
Mof_P 	P 	0.408	0.6657	0.5494	0.572
Mof_F 	F 	0.2694	0.7578	0.6462	-0.545
Mof_F 	F 	0.2356	0.7238	0.8531	-0.553
Mof_O 	O 	0.3012	0.6467	0.0191	-0.356
Mof_O 	O 	0.3868	0.5321	0.0038	-0.338
Mof_O 	O 	0.4585	0.6086	0.4931	-0.32
Mof_O 	O 	0.3477	0.8004	0.9688	-0.29
Mof_O 	O 	0.3772	0.6358	0.649	-0.356
Mof_O 	O 	0.3859	0.7581	0.7922	-0.312
Mof_O 	O 	0.4611	0.7372	0.5789	-0.144
Mof_O 	O 	0.3501	0.6064	0.8463	-0.351
Mof_O 	O 	0.2198	0.613	0.7092	-0.311
Mof_O 	O 	0.4815	0.8207	0.9068	-0.125
Mof_O 	O 	0.345	0.6948	0.4789	-0.324
Mof_O 	O 	0.3718	0.8972	0.8299	-0.102
Mof_O 	O 	0.2525	0.526	0.9308	-0.135
Mof_O 	O 	0.1928	0.6451	0.5256	-0.304
Mof_O 	O 	0.0896	0.5898	0.6394	-0.146
Mof_O 	O 	0.1969	0.5085	0.5866	-0.147
Mof_Fe	Fe	0.3068	0.6821	0.7492	1.233
Mof_Fe	Fe	0.2469	0.746	0.9993	1.265
Mof_P 	P 	0.4196	0.3258	0.0488	0.523
Mof_P 	P 	0.4082	0.1768	0.3849	0.55
Mof_P 	P 	0.1833	0.3956	0.1238	0.544
Mof_P 	P 	0.3343	0.408	0.4506	0.572
Mof_F 	F 	0.2422	0.2694	0.3538	-0.552
Mof_F 	F 	0.2762	0.2356	0.1469	-0.556
Mof_O 	O 	0.3533	0.3012	0.9809	-0.288
Mof_O 	O 	0.4679	0.3868	0.9962	-0.278
Mof_O 	O 	0.3914	0.4585	0.5069	-0.32
Mof_O 	O 	0.1996	0.3477	0.0312	-0.309
Mof_O 	O 	0.3642	0.3772	0.351	-0.357
Mof_O 	O 	0.2419	0.3859	0.2078	-0.316
Mof_O 	O 	0.2628	0.4611	0.4211	-0.149
Mof_O 	O 	0.3936	0.3501	0.1537	-0.345
Mof_O 	O 	0.387	0.2198	0.2908	-0.315
Mof_O 	O 	0.1793	0.4815	0.0932	-0.148
Mof_O 	O 	0.3052	0.345	0.5211	-0.323
Mof_O 	O 	0.1028	0.3718	0.1701	-0.146
Mof_O 	O 	0.474	0.2525	0.0692	-0.153
Mof_O 	O 	0.3549	0.1928	0.4744	-0.304
Mof_O 	O 	0.4102	0.0896	0.3606	-0.151
Mof_O 	O 	0.4915	0.1969	0.4134	-0.148
Mof_Fe	Fe	0.3179	0.3068	0.2508	1.226
Mof_Fe	Fe	0.254	0.2469	0.0007	1.176
Mof_P 	P 	0.5804	0.6742	0.0488	0.525
Mof_P 	P 	0.5918	0.8232	0.3849	0.549
Mof_P 	P 	0.8167	0.6044	0.1238	0.544
Mof_P 	P 	0.6657	0.592	0.4506	0.572
Mof_F 	F 	0.7578	0.7306	0.3538	-0.542
Mof_F 	F 	0.7238	0.7644	0.1469	-0.547
Mof_O 	O 	0.6467	0.6988	0.9809	-0.291
Mof_O 	O 	0.5321	0.6132	0.9962	-0.28
Mof_O 	O 	0.6086	0.5415	0.5069	-0.32
Mof_O 	O 	0.8004	0.6523	0.0312	-0.302
Mof_O 	O 	0.6358	0.6228	0.351	-0.357
Mof_O 	O 	0.7581	0.6141	0.2078	-0.313
Mof_O 	O 	0.7372	0.5389	0.4211	-0.144
Mof_O 	O 	0.6064	0.6499	0.1537	-0.345
Mof_O 	O 	0.613	0.7802	0.2908	-0.308
Mof_O 	O 	0.8207	0.5185	0.0932	-0.138
Mof_O 	O 	0.6948	0.655	0.5211	-0.323
Mof_O 	O 	0.8972	0.6282	0.1701	-0.104
Mof_O 	O 	0.526	0.7475	0.0692	-0.148
Mof_O 	O 	0.6451	0.8072	0.4744	-0.296
Mof_O 	O 	0.5898	0.9104	0.3606	-0.108
Mof_O 	O 	0.5085	0.8031	0.4134	-0.142
Mof_Fe	Fe	0.6821	0.6932	0.2508	1.23
Mof_Fe	Fe	0.746	0.7531	0.0007	1.183
Mof_P 	P 	0.8258	0.9196	0.5488	0.562
Mof_P 	P 	0.6768	0.9082	0.8849	0.548
Mof_P 	P 	0.8956	0.6833	0.6238	0.545
Mof_P 	P 	0.908	0.8343	0.9506	0.601
Mof_F 	F 	0.7694	0.7422	0.8538	-0.537
Mof_F 	F 	0.7356	0.7762	0.6469	-0.551
Mof_O 	O 	0.8012	0.8533	0.4809	-0.312
Mof_O 	O 	0.8868	0.9679	0.4962	-0.253
Mof_O 	O 	0.9585	0.8914	0.0069	-0.275
Mof_O 	O 	0.8477	0.6996	0.5312	-0.293
Mof_O 	O 	0.8772	0.8642	0.851	-0.339
Mof_O 	O 	0.8859	0.7419	0.7078	-0.305
Mof_O 	O 	0.9611	0.7628	0.9211	-0.113
Mof_O 	O 	0.8501	0.8936	0.6537	-0.33
Mof_O 	O 	0.7198	0.887	0.7908	-0.302
Mof_O 	O 	0.9815	0.6793	0.5932	-0.105
Mof_O 	O 	0.845	0.8052	0.0211	-0.328
Mof_O 	O 	0.8718	0.6028	0.6701	-0.114
Mof_O 	O 	0.7525	0.974	0.5692	-0.117
Mof_O 	O 	0.6928	0.8549	0.9744	-0.275
Mof_O 	O 	0.5896	0.9102	0.8606	-0.112
Mof_O 	O 	0.6969	0.9915	0.9134	-0.107
Mof_Fe	Fe	0.8068	0.8179	0.7508	1.234
Mof_Fe	Fe	0.7469	0.754	0.5007	1.224
Mof_P 	P 	0.1742	0.0804	0.5488	0.561
Mof_P 	P 	0.3232	0.0918	0.8849	0.549
Mof_P 	P 	0.1044	0.3167	0.6238	0.545
Mof_P 	P 	0.092	0.1657	0.9506	0.606
Mof_F 	F 	0.2306	0.2578	0.8538	-0.537
Mof_F 	F 	0.2644	0.2238	0.6469	-0.552
Mof_O 	O 	0.1988	0.1467	0.4809	-0.332
Mof_O 	O 	0.1132	0.0321	0.4962	-0.327
Mof_O 	O 	0.0415	0.1086	0.0069	-0.352
Mof_O 	O 	0.1523	0.3004	0.5312	-0.307
Mof_O 	O 	0.1228	0.1358	0.851	-0.366
Mof_O 	O 	0.1141	0.2581	0.7078	-0.32
Mof_O 	O 	0.0389	0.2372	0.9211	-0.159
Mof_O 	O 	0.1499	0.1064	0.6537	-0.357
Mof_O 	O 	0.2802	0.113	0.7908	-0.314
Mof_O 	O 	0.0185	0.3207	0.5932	-0.167
Mof_O 	O 	0.155	0.1948	0.0211	-0.35
Mof_O 	O 	0.1282	0.3972	0.6701	-0.129
Mof_O 	O 	0.2475	0.026	0.5692	-0.165
Mof_O 	O 	0.3072	0.1451	0.9744	-0.285
Mof_O 	O 	0.4104	0.0898	0.8606	-0.137
Mof_O 	O 	0.3031	0.0085	0.9134	-0.168
Mof_Fe	Fe	0.1932	0.1821	0.7508	1.23
Mof_Fe	Fe	0.2531	0.246	0.5007	1.22
Mof_P 	P 	0.0804	0.8258	0.4512	0.563
Mof_P 	P 	0.0918	0.6768	0.1151	0.552
Mof_P 	P 	0.3167	0.8956	0.3762	0.545
Mof_P 	P 	0.1657	0.908	0.0494	0.529
Mof_F 	F 	0.2578	0.7694	0.1462	-0.557
Mof_F 	F 	0.2238	0.7356	0.3531	-0.553
Mof_O 	O 	0.1467	0.8012	0.5191	-0.321
Mof_O 	O 	0.0321	0.8868	0.5038	-0.295
Mof_O 	O 	0.1086	0.9585	0.9931	-0.247
Mof_O 	O 	0.3004	0.8477	0.4688	-0.293
Mof_O 	O 	0.1358	0.8772	0.149	-0.351
Mof_O 	O 	0.2581	0.8859	0.2922	-0.308
Mof_O 	O 	0.2372	0.9611	0.0789	-0.13
Mof_O 	O 	0.1064	0.8501	0.3463	-0.343
Mof_O 	O 	0.113	0.7198	0.2092	-0.317
Mof_O 	O 	0.3207	0.9815	0.4068	-0.106
Mof_O 	O 	0.1948	0.845	0.9789	-0.303
Mof_O 	O 	0.3972	0.8718	0.3299	-0.118
Mof_O 	O 	0.026	0.7525	0.4308	-0.163
Mof_O 	O 	0.1451	0.6928	0.0256	-0.325
Mof_O 	O 	0.0898	0.5896	0.1394	-0.144
Mof_O 	O 	0.0085	0.6969	0.0866	-0.181
Mof_Fe	Fe	0.1821	0.8068	0.2492	1.228
Mof_Fe	Fe	0.246	0.7469	0.4993	1.223
Mof_P 	P 	0.9196	0.1742	0.4512	0.56
Mof_P 	P 	0.9082	0.3232	0.1151	0.55
Mof_P 	P 	0.6833	0.1044	0.3762	0.545
Mof_P 	P 	0.8343	0.092	0.0494	0.53
Mof_F 	F 	0.7422	0.2306	0.1462	-0.559
Mof_F 	F 	0.7762	0.2644	0.3531	-0.551
Mof_O 	O 	0.8533	0.1988	0.5191	-0.32
Mof_O 	O 	0.9679	0.1132	0.5038	-0.278
Mof_O 	O 	0.8914	0.0415	0.9931	-0.263
Mof_O 	O 	0.6996	0.1523	0.4688	-0.306
Mof_O 	O 	0.8642	0.1228	0.149	-0.347
Mof_O 	O 	0.7419	0.1141	0.2922	-0.321
Mof_O 	O 	0.7628	0.0389	0.0789	-0.174
Mof_O 	O 	0.8936	0.1499	0.3463	-0.344
Mof_O 	O 	0.887	0.2802	0.2092	-0.305
Mof_O 	O 	0.6793	0.0185	0.4068	-0.166
Mof_O 	O 	0.8052	0.155	0.9789	-0.304
Mof_O 	O 	0.6028	0.1282	0.3299	-0.134
Mof_O 	O 	0.974	0.2475	0.4308	-0.117
Mof_O 	O 	0.8549	0.3072	0.0256	-0.313
Mof_O 	O 	0.9102	0.4104	0.1394	-0.118
Mof_O 	O 	0.9915	0.3031	0.0866	-0.121
Mof_Fe	Fe	0.8179	0.1932	0.2492	1.228
Mof_Fe	Fe	0.754	0.2531	0.4993	1.222
Mof_Fe	Fe	0.5	0.5	-0	0.852
Mof_Fe	Fe	1.45037e-33	0	0.5	0.75
Mof_Fe	Fe	0.5	0.5	0.5	0.907
Mof_Fe	Fe	-0	0	-0	0.727
_end
