data_functionalizedCrystal
_audit_creation_method	'EQeq! by Chris Wilmer'
_symmetry_space_group_name_H-M	'P1'
_symmetry_Int_Tables_number	1
_symmetry_cell_setting	triclinic
loop_
_symmetry_equiv_pos_as_xyz
  x,y,z
_cell_length_a	26.985
_cell_length_b	26.985
_cell_length_c	26.985
_cell_angle_alpha	90
_cell_angle_beta	90
_cell_angle_gamma	90
loop_
_atom_site_label
_atom_site_type_symbol
_atom_site_fract_x
_atom_site_fract_y
_atom_site_fract_z
_atom_site_charge
Mof_O 	O 	0.44764	0.05013	0.14894	-0.426
Mof_O 	O 	0.44841	0.04932	0.23146	-0.431
Mof_C 	C 	0.2947	0.14578	0.19793	0.032
Mof_C 	C 	0.43065	0.06221	0.19081	0.37
Mof_C 	C 	0.36024	0.10707	0.14947	0.03
Mof_H 	H 	0.3739	0.0987	0.1181	0.021
Mof_C 	C 	0.31955	0.13006	0.24131	-0.105
Mof_H 	H 	0.3057	0.1373	0.2729	0.067
Mof_C 	C 	0.31558	0.13431	0.15198	-0.104
Mof_H 	H 	0.2997	0.1448	0.1224	0.053
Mof_C 	C 	0.36398	0.10418	0.23828	0.033
Mof_H 	H 	0.3806	0.0944	0.2677	0.03
Mof_C 	C 	0.21669	0.17021	0.24202	-0.103
Mof_H 	H 	0.2214	0.143	0.2639	0.06
Mof_C 	C 	0.38415	0.09259	0.19255	-0.119
Mof_C 	C 	0.24963	0.17732	0.20245	0.035
Mof_O 	O 	0.55236	0.94987	0.14894	-0.384
Mof_O 	O 	0.55159	0.95068	0.23146	-0.39
Mof_C 	C 	0.7053	0.85422	0.19793	0.031
Mof_C 	C 	0.56935	0.93779	0.19081	0.364
Mof_C 	C 	0.63976	0.89293	0.14947	0.028
Mof_H 	H 	0.6261	0.9013	0.1181	0.036
Mof_C 	C 	0.68045	0.86994	0.24131	-0.091
Mof_H 	H 	0.6943	0.8627	0.2729	0.068
Mof_C 	C 	0.68442	0.86569	0.15198	-0.09
Mof_H 	H 	0.7003	0.8552	0.1224	0.061
Mof_C 	C 	0.63602	0.89582	0.23828	0.03
Mof_H 	H 	0.6194	0.9056	0.2677	0.044
Mof_C 	C 	0.78331	0.82979	0.24202	-0.107
Mof_H 	H 	0.7786	0.857	0.2639	0.073
Mof_C 	C 	0.61585	0.90741	0.19255	-0.097
Mof_C 	C 	0.75037	0.82268	0.20245	0.049
Mof_O 	O 	0.55236	0.05013	0.85106	-0.414
Mof_O 	O 	0.55159	0.04932	0.76854	-0.431
Mof_C 	C 	0.7053	0.14578	0.80207	0.033
Mof_C 	C 	0.56935	0.06221	0.80919	0.366
Mof_C 	C 	0.63976	0.10707	0.85053	0.03
Mof_H 	H 	0.6261	0.0987	0.8819	0.037
Mof_C 	C 	0.68045	0.13006	0.75869	-0.101
Mof_H 	H 	0.6943	0.1373	0.7271	0.067
Mof_C 	C 	0.68442	0.13431	0.84802	-0.098
Mof_H 	H 	0.7003	0.1448	0.8776	0.069
Mof_C 	C 	0.63602	0.10418	0.76172	0.031
Mof_H 	H 	0.6194	0.0944	0.7323	0.031
Mof_C 	C 	0.78331	0.17021	0.75798	-0.106
Mof_H 	H 	0.7786	0.143	0.7361	0.066
Mof_C 	C 	0.61585	0.09259	0.80745	-0.113
Mof_C 	C 	0.75037	0.17732	0.79755	0.046
Mof_O 	O 	0.44764	0.94987	0.85106	-0.372
Mof_O 	O 	0.44841	0.95068	0.76854	-0.389
Mof_C 	C 	0.2947	0.85422	0.80207	0.031
Mof_C 	C 	0.43065	0.93779	0.80919	0.361
Mof_C 	C 	0.36024	0.89293	0.85053	0.027
Mof_H 	H 	0.3739	0.9013	0.8819	0.051
Mof_C 	C 	0.31955	0.86994	0.75869	-0.089
Mof_H 	H 	0.3057	0.8627	0.7271	0.068
Mof_C 	C 	0.31558	0.86569	0.84802	-0.086
Mof_H 	H 	0.2997	0.8552	0.8776	0.071
Mof_C 	C 	0.36398	0.89582	0.76172	0.027
Mof_H 	H 	0.3806	0.9056	0.7323	0.045
Mof_C 	C 	0.21669	0.82979	0.75798	-0.106
Mof_H 	H 	0.2214	0.857	0.7361	0.072
Mof_C 	C 	0.38415	0.90741	0.80745	-0.092
Mof_C 	C 	0.24963	0.82268	0.79755	0.051
Mof_O 	O 	0.14894	0.44764	0.05013	-0.427
Mof_O 	O 	0.23146	0.44841	0.04932	-0.432
Mof_C 	C 	0.19793	0.2947	0.14578	0.031
Mof_C 	C 	0.19081	0.43065	0.06221	0.369
Mof_C 	C 	0.14947	0.36024	0.10707	0.029
Mof_H 	H 	0.1181	0.3739	0.0987	0.02
Mof_C 	C 	0.24131	0.31955	0.13006	-0.105
Mof_H 	H 	0.2729	0.3057	0.1373	0.067
Mof_C 	C 	0.15198	0.31558	0.13431	-0.104
Mof_H 	H 	0.1224	0.2997	0.1448	0.053
Mof_C 	C 	0.23828	0.36398	0.10418	0.033
Mof_H 	H 	0.2677	0.3806	0.0944	0.03
Mof_C 	C 	0.24202	0.21669	0.17021	-0.103
Mof_H 	H 	0.2639	0.2214	0.143	0.06
Mof_C 	C 	0.19255	0.38415	0.09259	-0.119
Mof_C 	C 	0.20245	0.24963	0.17732	0.035
Mof_O 	O 	0.14894	0.55236	0.94987	-0.384
Mof_O 	O 	0.23146	0.55159	0.95068	-0.39
Mof_C 	C 	0.19793	0.7053	0.85422	0.031
Mof_C 	C 	0.19081	0.56935	0.93779	0.364
Mof_C 	C 	0.14947	0.63976	0.89293	0.028
Mof_H 	H 	0.1181	0.6261	0.9013	0.036
Mof_C 	C 	0.24131	0.68045	0.86994	-0.091
Mof_H 	H 	0.2729	0.6943	0.8627	0.068
Mof_C 	C 	0.15198	0.68442	0.86569	-0.09
Mof_H 	H 	0.1224	0.7003	0.8552	0.061
Mof_C 	C 	0.23828	0.63602	0.89582	0.03
Mof_H 	H 	0.2677	0.6194	0.9056	0.044
Mof_C 	C 	0.24202	0.78331	0.82979	-0.107
Mof_H 	H 	0.2639	0.7786	0.857	0.073
Mof_C 	C 	0.19255	0.61585	0.90741	-0.097
Mof_C 	C 	0.20245	0.75037	0.82268	0.049
Mof_O 	O 	0.85106	0.55236	0.05013	-0.414
Mof_O 	O 	0.76854	0.55159	0.04932	-0.431
Mof_C 	C 	0.80207	0.7053	0.14578	0.033
Mof_C 	C 	0.80919	0.56935	0.06221	0.366
Mof_C 	C 	0.85053	0.63976	0.10707	0.03
Mof_H 	H 	0.8819	0.6261	0.0987	0.037
Mof_C 	C 	0.75869	0.68045	0.13006	-0.101
Mof_H 	H 	0.7271	0.6943	0.1373	0.067
Mof_C 	C 	0.84802	0.68442	0.13431	-0.098
Mof_H 	H 	0.8776	0.7003	0.1448	0.069
Mof_C 	C 	0.76172	0.63602	0.10418	0.031
Mof_H 	H 	0.7323	0.6194	0.0944	0.031
Mof_C 	C 	0.75798	0.78331	0.17021	-0.106
Mof_H 	H 	0.7361	0.7786	0.143	0.066
Mof_C 	C 	0.80745	0.61585	0.09259	-0.113
Mof_C 	C 	0.79755	0.75037	0.17732	0.046
Mof_O 	O 	0.85106	0.44764	0.94987	-0.372
Mof_O 	O 	0.76854	0.44841	0.95068	-0.389
Mof_C 	C 	0.80207	0.2947	0.85422	0.031
Mof_C 	C 	0.80919	0.43065	0.93779	0.361
Mof_C 	C 	0.85053	0.36024	0.89293	0.027
Mof_H 	H 	0.8819	0.3739	0.9013	0.051
Mof_C 	C 	0.75869	0.31955	0.86994	-0.089
Mof_H 	H 	0.7271	0.3057	0.8627	0.068
Mof_C 	C 	0.84802	0.31558	0.86569	-0.086
Mof_H 	H 	0.8776	0.2997	0.8552	0.071
Mof_C 	C 	0.76172	0.36398	0.89582	0.027
Mof_H 	H 	0.7323	0.3806	0.9056	0.045
Mof_C 	C 	0.75798	0.21669	0.82979	-0.106
Mof_H 	H 	0.7361	0.2214	0.857	0.072
Mof_C 	C 	0.80745	0.38415	0.90741	-0.092
Mof_C 	C 	0.79755	0.24963	0.82268	0.051
Mof_O 	O 	0.05013	0.14894	0.44764	-0.427
Mof_O 	O 	0.04932	0.23146	0.44841	-0.432
Mof_C 	C 	0.14578	0.19793	0.2947	0.031
Mof_C 	C 	0.06221	0.19081	0.43065	0.369
Mof_C 	C 	0.10707	0.14947	0.36024	0.029
Mof_H 	H 	0.0987	0.1181	0.3739	0.02
Mof_C 	C 	0.13006	0.24131	0.31955	-0.105
Mof_H 	H 	0.1373	0.2729	0.3057	0.067
Mof_C 	C 	0.13431	0.15198	0.31558	-0.104
Mof_H 	H 	0.1448	0.1224	0.2997	0.053
Mof_C 	C 	0.10418	0.23828	0.36398	0.033
Mof_H 	H 	0.0944	0.2677	0.3806	0.03
Mof_C 	C 	0.17021	0.24202	0.21669	-0.103
Mof_H 	H 	0.143	0.2639	0.2214	0.06
Mof_C 	C 	0.09259	0.19255	0.38415	-0.119
Mof_C 	C 	0.17732	0.20245	0.24963	0.035
Mof_O 	O 	0.94987	0.14894	0.55236	-0.384
Mof_O 	O 	0.95068	0.23146	0.55159	-0.39
Mof_C 	C 	0.85422	0.19793	0.7053	0.031
Mof_C 	C 	0.93779	0.19081	0.56935	0.364
Mof_C 	C 	0.89293	0.14947	0.63976	0.028
Mof_H 	H 	0.9013	0.1181	0.6261	0.036
Mof_C 	C 	0.86994	0.24131	0.68045	-0.091
Mof_H 	H 	0.8627	0.2729	0.6943	0.068
Mof_C 	C 	0.86569	0.15198	0.68442	-0.09
Mof_H 	H 	0.8552	0.1224	0.7003	0.061
Mof_C 	C 	0.89582	0.23828	0.63602	0.03
Mof_H 	H 	0.9056	0.2677	0.6194	0.044
Mof_C 	C 	0.82979	0.24202	0.78331	-0.107
Mof_H 	H 	0.857	0.2639	0.7786	0.073
Mof_C 	C 	0.90741	0.19255	0.61585	-0.097
Mof_C 	C 	0.82268	0.20245	0.75037	0.049
Mof_O 	O 	0.05013	0.85106	0.55236	-0.414
Mof_O 	O 	0.04932	0.76854	0.55159	-0.431
Mof_C 	C 	0.14578	0.80207	0.7053	0.033
Mof_C 	C 	0.06221	0.80919	0.56935	0.366
Mof_C 	C 	0.10707	0.85053	0.63976	0.03
Mof_H 	H 	0.0987	0.8819	0.6261	0.037
Mof_C 	C 	0.13006	0.75869	0.68045	-0.101
Mof_H 	H 	0.1373	0.7271	0.6943	0.067
Mof_C 	C 	0.13431	0.84802	0.68442	-0.098
Mof_H 	H 	0.1448	0.8776	0.7003	0.069
Mof_C 	C 	0.10418	0.76172	0.63602	0.031
Mof_H 	H 	0.0944	0.7323	0.6194	0.031
Mof_C 	C 	0.17021	0.75798	0.78331	-0.106
Mof_H 	H 	0.143	0.7361	0.7786	0.066
Mof_C 	C 	0.09259	0.80745	0.61585	-0.113
Mof_C 	C 	0.17732	0.79755	0.75037	0.046
Mof_O 	O 	0.94987	0.85106	0.44764	-0.372
Mof_O 	O 	0.95068	0.76854	0.44841	-0.389
Mof_C 	C 	0.85422	0.80207	0.2947	0.031
Mof_C 	C 	0.93779	0.80919	0.43065	0.361
Mof_C 	C 	0.89293	0.85053	0.36024	0.027
Mof_H 	H 	0.9013	0.8819	0.3739	0.051
Mof_C 	C 	0.86994	0.75869	0.31955	-0.089
Mof_H 	H 	0.8627	0.7271	0.3057	0.068
Mof_C 	C 	0.86569	0.84802	0.31558	-0.086
Mof_H 	H 	0.8552	0.8776	0.2997	0.071
Mof_C 	C 	0.89582	0.76172	0.36398	0.027
Mof_H 	H 	0.9056	0.7323	0.3806	0.045
Mof_C 	C 	0.82979	0.75798	0.21669	-0.106
Mof_H 	H 	0.857	0.7361	0.2214	0.072
Mof_C 	C 	0.90741	0.80745	0.38415	-0.092
Mof_C 	C 	0.82268	0.79755	0.24963	0.051
Mof_O 	O 	0.55236	0.94987	0.85106	-0.372
Mof_O 	O 	0.55159	0.95068	0.76854	-0.389
Mof_C 	C 	0.7053	0.85422	0.80207	0.032
Mof_C 	C 	0.56935	0.93779	0.80919	0.362
Mof_C 	C 	0.63976	0.89293	0.85053	0.028
Mof_H 	H 	0.6261	0.9013	0.8819	0.052
Mof_C 	C 	0.68045	0.86994	0.75869	-0.088
Mof_H 	H 	0.6943	0.8627	0.7271	0.068
Mof_C 	C 	0.68442	0.86569	0.84802	-0.085
Mof_H 	H 	0.7003	0.8552	0.8776	0.074
Mof_C 	C 	0.63602	0.89582	0.76172	0.028
Mof_H 	H 	0.6194	0.9056	0.7323	0.045
Mof_C 	C 	0.78331	0.82979	0.75798	-0.108
Mof_H 	H 	0.7786	0.857	0.7361	0.075
Mof_C 	C 	0.61585	0.90741	0.80745	-0.091
Mof_C 	C 	0.75037	0.82268	0.79755	0.055
Mof_O 	O 	0.44764	0.05013	0.85106	-0.415
Mof_O 	O 	0.44841	0.04932	0.76854	-0.431
Mof_C 	C 	0.2947	0.14578	0.80207	0.032
Mof_C 	C 	0.43065	0.06221	0.80919	0.366
Mof_C 	C 	0.36024	0.10707	0.85053	0.03
Mof_H 	H 	0.3739	0.0987	0.8819	0.035
Mof_C 	C 	0.31955	0.13006	0.75869	-0.102
Mof_H 	H 	0.3057	0.1373	0.7271	0.066
Mof_C 	C 	0.31558	0.13431	0.84802	-0.099
Mof_H 	H 	0.2997	0.1448	0.8776	0.066
Mof_C 	C 	0.36398	0.10418	0.76172	0.031
Mof_H 	H 	0.3806	0.0944	0.7323	0.031
Mof_C 	C 	0.21669	0.17021	0.75798	-0.104
Mof_H 	H 	0.2214	0.143	0.7361	0.062
Mof_C 	C 	0.38415	0.09259	0.80745	-0.113
Mof_C 	C 	0.24963	0.17732	0.79755	0.042
Mof_O 	O 	0.44764	0.94987	0.14894	-0.384
Mof_O 	O 	0.44841	0.95068	0.23146	-0.39
Mof_C 	C 	0.2947	0.85422	0.19793	0.031
Mof_C 	C 	0.43065	0.93779	0.19081	0.364
Mof_C 	C 	0.36024	0.89293	0.14947	0.027
Mof_H 	H 	0.3739	0.9013	0.1181	0.035
Mof_C 	C 	0.31955	0.86994	0.24131	-0.092
Mof_H 	H 	0.3057	0.8627	0.2729	0.068
Mof_C 	C 	0.31558	0.86569	0.15198	-0.091
Mof_H 	H 	0.2997	0.8552	0.1224	0.058
Mof_C 	C 	0.36398	0.89582	0.23828	0.029
Mof_H 	H 	0.3806	0.9056	0.2677	0.044
Mof_C 	C 	0.21669	0.82979	0.24202	-0.105
Mof_H 	H 	0.2214	0.857	0.2639	0.07
Mof_C 	C 	0.38415	0.90741	0.19255	-0.098
Mof_C 	C 	0.24963	0.82268	0.20245	0.044
Mof_O 	O 	0.55236	0.05013	0.14894	-0.426
Mof_O 	O 	0.55159	0.04932	0.23146	-0.432
Mof_C 	C 	0.7053	0.14578	0.19793	0.032
Mof_C 	C 	0.56935	0.06221	0.19081	0.369
Mof_C 	C 	0.63976	0.10707	0.14947	0.03
Mof_H 	H 	0.6261	0.0987	0.1181	0.021
Mof_C 	C 	0.68045	0.13006	0.24131	-0.104
Mof_H 	H 	0.6943	0.1373	0.2729	0.067
Mof_C 	C 	0.68442	0.13431	0.15198	-0.103
Mof_H 	H 	0.7003	0.1448	0.1224	0.055
Mof_C 	C 	0.63602	0.10418	0.23828	0.033
Mof_H 	H 	0.6194	0.0944	0.2677	0.03
Mof_C 	C 	0.78331	0.17021	0.24202	-0.105
Mof_H 	H 	0.7786	0.143	0.2639	0.063
Mof_C 	C 	0.61585	0.09259	0.19255	-0.119
Mof_C 	C 	0.75037	0.17732	0.20245	0.04
Mof_O 	O 	0.85106	0.55236	0.94987	-0.372
Mof_O 	O 	0.76854	0.55159	0.95068	-0.389
Mof_C 	C 	0.80207	0.7053	0.85422	0.032
Mof_C 	C 	0.80919	0.56935	0.93779	0.362
Mof_C 	C 	0.85053	0.63976	0.89293	0.028
Mof_H 	H 	0.8819	0.6261	0.9013	0.052
Mof_C 	C 	0.75869	0.68045	0.86994	-0.088
Mof_H 	H 	0.7271	0.6943	0.8627	0.068
Mof_C 	C 	0.84802	0.68442	0.86569	-0.085
Mof_H 	H 	0.8776	0.7003	0.8552	0.074
Mof_C 	C 	0.76172	0.63602	0.89582	0.028
Mof_H 	H 	0.7323	0.6194	0.9056	0.045
Mof_C 	C 	0.75798	0.78331	0.82979	-0.108
Mof_H 	H 	0.7361	0.7786	0.857	0.075
Mof_C 	C 	0.80745	0.61585	0.90741	-0.091
Mof_C 	C 	0.79755	0.75037	0.82268	0.055
Mof_O 	O 	0.85106	0.44764	0.05013	-0.415
Mof_O 	O 	0.76854	0.44841	0.04932	-0.431
Mof_C 	C 	0.80207	0.2947	0.14578	0.032
Mof_C 	C 	0.80919	0.43065	0.06221	0.366
Mof_C 	C 	0.85053	0.36024	0.10707	0.03
Mof_H 	H 	0.8819	0.3739	0.0987	0.035
Mof_C 	C 	0.75869	0.31955	0.13006	-0.102
Mof_H 	H 	0.7271	0.3057	0.1373	0.066
Mof_C 	C 	0.84802	0.31558	0.13431	-0.099
Mof_H 	H 	0.8776	0.2997	0.1448	0.066
Mof_C 	C 	0.76172	0.36398	0.10418	0.031
Mof_H 	H 	0.7323	0.3806	0.0944	0.031
Mof_C 	C 	0.75798	0.21669	0.17021	-0.104
Mof_H 	H 	0.7361	0.2214	0.143	0.062
Mof_C 	C 	0.80745	0.38415	0.09259	-0.113
Mof_C 	C 	0.79755	0.24963	0.17732	0.042
Mof_O 	O 	0.14894	0.44764	0.94987	-0.384
Mof_O 	O 	0.23146	0.44841	0.95068	-0.39
Mof_C 	C 	0.19793	0.2947	0.85422	0.031
Mof_C 	C 	0.19081	0.43065	0.93779	0.364
Mof_C 	C 	0.14947	0.36024	0.89293	0.027
Mof_H 	H 	0.1181	0.3739	0.9013	0.035
Mof_C 	C 	0.24131	0.31955	0.86994	-0.092
Mof_H 	H 	0.2729	0.3057	0.8627	0.068
Mof_C 	C 	0.15198	0.31558	0.86569	-0.091
Mof_H 	H 	0.1224	0.2997	0.8552	0.058
Mof_C 	C 	0.23828	0.36398	0.89582	0.029
Mof_H 	H 	0.2677	0.3806	0.9056	0.044
Mof_C 	C 	0.24202	0.21669	0.82979	-0.105
Mof_H 	H 	0.2639	0.2214	0.857	0.07
Mof_C 	C 	0.19255	0.38415	0.90741	-0.098
Mof_C 	C 	0.20245	0.24963	0.82268	0.044
Mof_O 	O 	0.14894	0.55236	0.05013	-0.426
Mof_O 	O 	0.23146	0.55159	0.04932	-0.432
Mof_C 	C 	0.19793	0.7053	0.14578	0.032
Mof_C 	C 	0.19081	0.56935	0.06221	0.369
Mof_C 	C 	0.14947	0.63976	0.10707	0.03
Mof_H 	H 	0.1181	0.6261	0.0987	0.021
Mof_C 	C 	0.24131	0.68045	0.13006	-0.104
Mof_H 	H 	0.2729	0.6943	0.1373	0.067
Mof_C 	C 	0.15198	0.68442	0.13431	-0.103
Mof_H 	H 	0.1224	0.7003	0.1448	0.055
Mof_C 	C 	0.23828	0.63602	0.10418	0.033
Mof_H 	H 	0.2677	0.6194	0.0944	0.03
Mof_C 	C 	0.24202	0.78331	0.17021	-0.105
Mof_H 	H 	0.2639	0.7786	0.143	0.063
Mof_C 	C 	0.19255	0.61585	0.09259	-0.119
Mof_C 	C 	0.20245	0.75037	0.17732	0.04
Mof_O 	O 	0.94987	0.85106	0.55236	-0.372
Mof_O 	O 	0.95068	0.76854	0.55159	-0.389
Mof_C 	C 	0.85422	0.80207	0.7053	0.032
Mof_C 	C 	0.93779	0.80919	0.56935	0.362
Mof_C 	C 	0.89293	0.85053	0.63976	0.028
Mof_H 	H 	0.9013	0.8819	0.6261	0.052
Mof_C 	C 	0.86994	0.75869	0.68045	-0.088
Mof_H 	H 	0.8627	0.7271	0.6943	0.068
Mof_C 	C 	0.86569	0.84802	0.68442	-0.085
Mof_H 	H 	0.8552	0.8776	0.7003	0.074
Mof_C 	C 	0.89582	0.76172	0.63602	0.028
Mof_H 	H 	0.9056	0.7323	0.6194	0.045
Mof_C 	C 	0.82979	0.75798	0.78331	-0.108
Mof_H 	H 	0.857	0.7361	0.7786	0.075
Mof_C 	C 	0.90741	0.80745	0.61585	-0.091
Mof_C 	C 	0.82268	0.79755	0.75037	0.055
Mof_O 	O 	0.05013	0.85106	0.44764	-0.415
Mof_O 	O 	0.04932	0.76854	0.44841	-0.431
Mof_C 	C 	0.14578	0.80207	0.2947	0.032
Mof_C 	C 	0.06221	0.80919	0.43065	0.366
Mof_C 	C 	0.10707	0.85053	0.36024	0.03
Mof_H 	H 	0.0987	0.8819	0.3739	0.035
Mof_C 	C 	0.13006	0.75869	0.31955	-0.102
Mof_H 	H 	0.1373	0.7271	0.3057	0.066
Mof_C 	C 	0.13431	0.84802	0.31558	-0.099
Mof_H 	H 	0.1448	0.8776	0.2997	0.066
Mof_C 	C 	0.10418	0.76172	0.36398	0.031
Mof_H 	H 	0.0944	0.7323	0.3806	0.031
Mof_C 	C 	0.17021	0.75798	0.21669	-0.104
Mof_H 	H 	0.143	0.7361	0.2214	0.062
Mof_C 	C 	0.09259	0.80745	0.38415	-0.113
Mof_C 	C 	0.17732	0.79755	0.24963	0.042
Mof_O 	O 	0.94987	0.14894	0.44764	-0.384
Mof_O 	O 	0.95068	0.23146	0.44841	-0.39
Mof_C 	C 	0.85422	0.19793	0.2947	0.031
Mof_C 	C 	0.93779	0.19081	0.43065	0.364
Mof_C 	C 	0.89293	0.14947	0.36024	0.027
Mof_H 	H 	0.9013	0.1181	0.3739	0.035
Mof_C 	C 	0.86994	0.24131	0.31955	-0.092
Mof_H 	H 	0.8627	0.2729	0.3057	0.068
Mof_C 	C 	0.86569	0.15198	0.31558	-0.091
Mof_H 	H 	0.8552	0.1224	0.2997	0.058
Mof_C 	C 	0.89582	0.23828	0.36398	0.029
Mof_H 	H 	0.9056	0.2677	0.3806	0.044
Mof_C 	C 	0.82979	0.24202	0.21669	-0.105
Mof_H 	H 	0.857	0.2639	0.2214	0.07
Mof_C 	C 	0.90741	0.19255	0.38415	-0.098
Mof_C 	C 	0.82268	0.20245	0.24963	0.044
Mof_O 	O 	0.05013	0.14894	0.55236	-0.426
Mof_O 	O 	0.04932	0.23146	0.55159	-0.432
Mof_C 	C 	0.14578	0.19793	0.7053	0.032
Mof_C 	C 	0.06221	0.19081	0.56935	0.369
Mof_C 	C 	0.10707	0.14947	0.63976	0.03
Mof_H 	H 	0.0987	0.1181	0.6261	0.021
Mof_C 	C 	0.13006	0.24131	0.68045	-0.104
Mof_H 	H 	0.1373	0.2729	0.6943	0.067
Mof_C 	C 	0.13431	0.15198	0.68442	-0.103
Mof_H 	H 	0.1448	0.1224	0.7003	0.055
Mof_C 	C 	0.10418	0.23828	0.63602	0.033
Mof_H 	H 	0.0944	0.2677	0.6194	0.03
Mof_C 	C 	0.17021	0.24202	0.78331	-0.105
Mof_H 	H 	0.143	0.2639	0.7786	0.063
Mof_C 	C 	0.09259	0.19255	0.61585	-0.119
Mof_C 	C 	0.17732	0.20245	0.75037	0.04
Mof_Cu	Cu	0.5	-1.28465e-33	0.1444	0.874
Mof_Cu	Cu	0.5	0	0.24026	0.881
Mof_Cu	Cu	0.5	0	0.8556	0.88
Mof_Cu	Cu	0.5	-1.02772e-32	0.75974	0.881
Mof_Cu	Cu	0.1444	0.5	-0	0.874
Mof_Cu	Cu	0.24026	0.5	-0	0.881
Mof_Cu	Cu	0.8556	0.5	-0	0.88
Mof_Cu	Cu	0.75974	0.5	-0	0.881
Mof_Cu	Cu	-3.26388e-33	0.1444	0.5	0.874
Mof_Cu	Cu	1.8747e-33	0.24026	0.5	0.881
Mof_Cu	Cu	-8.40246e-33	0.8556	0.5	0.88
Mof_Cu	Cu	-1.86796e-32	0.75974	0.5	0.881
Mof_O 	O 	0.94764	0.55013	0.64894	-0.378
Mof_O 	O 	0.94841	0.54932	0.73146	-0.387
Mof_C 	C 	0.7947	0.64578	0.69793	0.028
Mof_C 	C 	0.93065	0.56221	0.69081	0.36
Mof_C 	C 	0.86024	0.60707	0.64947	0.024
Mof_H 	H 	0.8739	0.5987	0.6181	0.042
Mof_C 	C 	0.81955	0.63006	0.74131	-0.091
Mof_H 	H 	0.8057	0.6373	0.7729	0.066
Mof_C 	C 	0.81558	0.63431	0.65198	-0.09
Mof_H 	H 	0.7997	0.6448	0.6224	0.062
Mof_C 	C 	0.86398	0.60418	0.73828	0.025
Mof_H 	H 	0.8806	0.5944	0.7677	0.045
Mof_C 	C 	0.71669	0.67021	0.74202	-0.109
Mof_H 	H 	0.7214	0.643	0.7639	0.069
Mof_C 	C 	0.88415	0.59259	0.69255	-0.095
Mof_C 	C 	0.74963	0.67732	0.70245	0.048
Mof_O 	O 	0.05236	0.44987	0.64894	-0.421
Mof_O 	O 	0.05159	0.45068	0.73146	-0.431
Mof_C 	C 	0.2053	0.35422	0.69793	0.034
Mof_C 	C 	0.06935	0.43779	0.69081	0.369
Mof_C 	C 	0.13976	0.39293	0.64947	0.032
Mof_H 	H 	0.1261	0.4013	0.6181	0.03
Mof_C 	C 	0.18045	0.36994	0.74131	-0.101
Mof_H 	H 	0.1943	0.3627	0.7729	0.068
Mof_C 	C 	0.18442	0.36569	0.65198	-0.099
Mof_H 	H 	0.2003	0.3552	0.6224	0.064
Mof_C 	C 	0.13602	0.39582	0.73828	0.034
Mof_H 	H 	0.1194	0.4056	0.7677	0.033
Mof_C 	C 	0.28331	0.32979	0.74202	-0.105
Mof_H 	H 	0.2786	0.357	0.7639	0.067
Mof_C 	C 	0.11585	0.40741	0.69255	-0.114
Mof_C 	C 	0.25037	0.32268	0.70245	0.044
Mof_O 	O 	0.05236	0.55013	0.35106	-0.421
Mof_O 	O 	0.05159	0.54932	0.26854	-0.433
Mof_C 	C 	0.2053	0.64578	0.30207	0.035
Mof_C 	C 	0.06935	0.56221	0.30919	0.37
Mof_C 	C 	0.13976	0.60707	0.35053	0.033
Mof_H 	H 	0.1261	0.5987	0.3819	0.03
Mof_C 	C 	0.18045	0.63006	0.25869	-0.102
Mof_H 	H 	0.1943	0.6373	0.2271	0.069
Mof_C 	C 	0.18442	0.63431	0.34802	-0.1
Mof_H 	H 	0.2003	0.6448	0.3776	0.064
Mof_C 	C 	0.13602	0.60418	0.26172	0.035
Mof_H 	H 	0.1194	0.5944	0.2323	0.031
Mof_C 	C 	0.28331	0.67021	0.25798	-0.104
Mof_H 	H 	0.2786	0.643	0.2361	0.067
Mof_C 	C 	0.11585	0.59259	0.30745	-0.115
Mof_C 	C 	0.25037	0.67732	0.29755	0.043
Mof_O 	O 	0.94764	0.44987	0.35106	-0.378
Mof_O 	O 	0.94841	0.45068	0.26854	-0.39
Mof_C 	C 	0.7947	0.35422	0.30207	0.03
Mof_C 	C 	0.93065	0.43779	0.30919	0.361
Mof_C 	C 	0.86024	0.39293	0.35053	0.025
Mof_H 	H 	0.8739	0.4013	0.3819	0.041
Mof_C 	C 	0.81955	0.36994	0.25869	-0.093
Mof_H 	H 	0.8057	0.3627	0.2271	0.067
Mof_C 	C 	0.81558	0.36569	0.34802	-0.091
Mof_H 	H 	0.7997	0.3552	0.3776	0.063
Mof_C 	C 	0.86398	0.39582	0.26172	0.027
Mof_H 	H 	0.8806	0.4056	0.2323	0.042
Mof_C 	C 	0.71669	0.32979	0.25798	-0.105
Mof_H 	H 	0.7214	0.357	0.2361	0.067
Mof_C 	C 	0.88415	0.40741	0.30745	-0.097
Mof_C 	C 	0.74963	0.32268	0.29755	0.045
Mof_O 	O 	0.64894	0.94764	0.55013	-0.378
Mof_O 	O 	0.73146	0.94841	0.54932	-0.387
Mof_C 	C 	0.69793	0.7947	0.64578	0.028
Mof_C 	C 	0.69081	0.93065	0.56221	0.36
Mof_C 	C 	0.64947	0.86024	0.60707	0.024
Mof_H 	H 	0.6181	0.8739	0.5987	0.042
Mof_C 	C 	0.74131	0.81955	0.63006	-0.091
Mof_H 	H 	0.7729	0.8057	0.6373	0.066
Mof_C 	C 	0.65198	0.81558	0.63431	-0.09
Mof_H 	H 	0.6224	0.7997	0.6448	0.062
Mof_C 	C 	0.73828	0.86398	0.60418	0.025
Mof_H 	H 	0.7677	0.8806	0.5944	0.045
Mof_C 	C 	0.74202	0.71669	0.67021	-0.109
Mof_H 	H 	0.7639	0.7214	0.643	0.069
Mof_C 	C 	0.69255	0.88415	0.59259	-0.095
Mof_C 	C 	0.70245	0.74963	0.67732	0.048
Mof_O 	O 	0.64894	0.05236	0.44987	-0.421
Mof_O 	O 	0.73146	0.05159	0.45068	-0.431
Mof_C 	C 	0.69793	0.2053	0.35422	0.034
Mof_C 	C 	0.69081	0.06935	0.43779	0.369
Mof_C 	C 	0.64947	0.13976	0.39293	0.032
Mof_H 	H 	0.6181	0.1261	0.4013	0.03
Mof_C 	C 	0.74131	0.18045	0.36994	-0.101
Mof_H 	H 	0.7729	0.1943	0.3627	0.068
Mof_C 	C 	0.65198	0.18442	0.36569	-0.099
Mof_H 	H 	0.6224	0.2003	0.3552	0.064
Mof_C 	C 	0.73828	0.13602	0.39582	0.034
Mof_H 	H 	0.7677	0.1194	0.4056	0.033
Mof_C 	C 	0.74202	0.28331	0.32979	-0.105
Mof_H 	H 	0.7639	0.2786	0.357	0.067
Mof_C 	C 	0.69255	0.11585	0.40741	-0.114
Mof_C 	C 	0.70245	0.25037	0.32268	0.044
Mof_O 	O 	0.35106	0.05236	0.55013	-0.421
Mof_O 	O 	0.26854	0.05159	0.54932	-0.433
Mof_C 	C 	0.30207	0.2053	0.64578	0.035
Mof_C 	C 	0.30919	0.06935	0.56221	0.37
Mof_C 	C 	0.35053	0.13976	0.60707	0.033
Mof_H 	H 	0.3819	0.1261	0.5987	0.03
Mof_C 	C 	0.25869	0.18045	0.63006	-0.102
Mof_H 	H 	0.2271	0.1943	0.6373	0.069
Mof_C 	C 	0.34802	0.18442	0.63431	-0.1
Mof_H 	H 	0.3776	0.2003	0.6448	0.064
Mof_C 	C 	0.26172	0.13602	0.60418	0.035
Mof_H 	H 	0.2323	0.1194	0.5944	0.031
Mof_C 	C 	0.25798	0.28331	0.67021	-0.104
Mof_H 	H 	0.2361	0.2786	0.643	0.067
Mof_C 	C 	0.30745	0.11585	0.59259	-0.115
Mof_C 	C 	0.29755	0.25037	0.67732	0.043
Mof_O 	O 	0.35106	0.94764	0.44987	-0.378
Mof_O 	O 	0.26854	0.94841	0.45068	-0.39
Mof_C 	C 	0.30207	0.7947	0.35422	0.03
Mof_C 	C 	0.30919	0.93065	0.43779	0.361
Mof_C 	C 	0.35053	0.86024	0.39293	0.025
Mof_H 	H 	0.3819	0.8739	0.4013	0.041
Mof_C 	C 	0.25869	0.81955	0.36994	-0.093
Mof_H 	H 	0.2271	0.8057	0.3627	0.067
Mof_C 	C 	0.34802	0.81558	0.36569	-0.091
Mof_H 	H 	0.3776	0.7997	0.3552	0.063
Mof_C 	C 	0.26172	0.86398	0.39582	0.027
Mof_H 	H 	0.2323	0.8806	0.4056	0.042
Mof_C 	C 	0.25798	0.71669	0.32979	-0.105
Mof_H 	H 	0.2361	0.7214	0.357	0.067
Mof_C 	C 	0.30745	0.88415	0.40741	-0.097
Mof_C 	C 	0.29755	0.74963	0.32268	0.045
Mof_O 	O 	0.55013	0.64894	0.94764	-0.378
Mof_O 	O 	0.54932	0.73146	0.94841	-0.387
Mof_C 	C 	0.64578	0.69793	0.7947	0.028
Mof_C 	C 	0.56221	0.69081	0.93065	0.36
Mof_C 	C 	0.60707	0.64947	0.86024	0.024
Mof_H 	H 	0.5987	0.6181	0.8739	0.042
Mof_C 	C 	0.63006	0.74131	0.81955	-0.091
Mof_H 	H 	0.6373	0.7729	0.8057	0.066
Mof_C 	C 	0.63431	0.65198	0.81558	-0.09
Mof_H 	H 	0.6448	0.6224	0.7997	0.062
Mof_C 	C 	0.60418	0.73828	0.86398	0.025
Mof_H 	H 	0.5944	0.7677	0.8806	0.045
Mof_C 	C 	0.67021	0.74202	0.71669	-0.109
Mof_H 	H 	0.643	0.7639	0.7214	0.069
Mof_C 	C 	0.59259	0.69255	0.88415	-0.095
Mof_C 	C 	0.67732	0.70245	0.74963	0.048
Mof_O 	O 	0.44987	0.64894	0.05236	-0.421
Mof_O 	O 	0.45068	0.73146	0.05159	-0.431
Mof_C 	C 	0.35422	0.69793	0.2053	0.034
Mof_C 	C 	0.43779	0.69081	0.06935	0.369
Mof_C 	C 	0.39293	0.64947	0.13976	0.032
Mof_H 	H 	0.4013	0.6181	0.1261	0.03
Mof_C 	C 	0.36994	0.74131	0.18045	-0.101
Mof_H 	H 	0.3627	0.7729	0.1943	0.068
Mof_C 	C 	0.36569	0.65198	0.18442	-0.099
Mof_H 	H 	0.3552	0.6224	0.2003	0.064
Mof_C 	C 	0.39582	0.73828	0.13602	0.034
Mof_H 	H 	0.4056	0.7677	0.1194	0.033
Mof_C 	C 	0.32979	0.74202	0.28331	-0.105
Mof_H 	H 	0.357	0.7639	0.2786	0.067
Mof_C 	C 	0.40741	0.69255	0.11585	-0.114
Mof_C 	C 	0.32268	0.70245	0.25037	0.044
Mof_O 	O 	0.55013	0.35106	0.05236	-0.421
Mof_O 	O 	0.54932	0.26854	0.05159	-0.433
Mof_C 	C 	0.64578	0.30207	0.2053	0.035
Mof_C 	C 	0.56221	0.30919	0.06935	0.37
Mof_C 	C 	0.60707	0.35053	0.13976	0.033
Mof_H 	H 	0.5987	0.3819	0.1261	0.03
Mof_C 	C 	0.63006	0.25869	0.18045	-0.102
Mof_H 	H 	0.6373	0.2271	0.1943	0.069
Mof_C 	C 	0.63431	0.34802	0.18442	-0.1
Mof_H 	H 	0.6448	0.3776	0.2003	0.064
Mof_C 	C 	0.60418	0.26172	0.13602	0.035
Mof_H 	H 	0.5944	0.2323	0.1194	0.031
Mof_C 	C 	0.67021	0.25798	0.28331	-0.104
Mof_H 	H 	0.643	0.2361	0.2786	0.067
Mof_C 	C 	0.59259	0.30745	0.11585	-0.115
Mof_C 	C 	0.67732	0.29755	0.25037	0.043
Mof_O 	O 	0.44987	0.35106	0.94764	-0.378
Mof_O 	O 	0.45068	0.26854	0.94841	-0.39
Mof_C 	C 	0.35422	0.30207	0.7947	0.03
Mof_C 	C 	0.43779	0.30919	0.93065	0.361
Mof_C 	C 	0.39293	0.35053	0.86024	0.025
Mof_H 	H 	0.4013	0.3819	0.8739	0.041
Mof_C 	C 	0.36994	0.25869	0.81955	-0.093
Mof_H 	H 	0.3627	0.2271	0.8057	0.067
Mof_C 	C 	0.36569	0.34802	0.81558	-0.091
Mof_H 	H 	0.3552	0.3776	0.7997	0.063
Mof_C 	C 	0.39582	0.26172	0.86398	0.027
Mof_H 	H 	0.4056	0.2323	0.8806	0.042
Mof_C 	C 	0.32979	0.25798	0.71669	-0.105
Mof_H 	H 	0.357	0.2361	0.7214	0.067
Mof_C 	C 	0.40741	0.30745	0.88415	-0.097
Mof_C 	C 	0.32268	0.29755	0.74963	0.045
Mof_O 	O 	0.05236	0.44987	0.35106	-0.421
Mof_O 	O 	0.05159	0.45068	0.26854	-0.433
Mof_C 	C 	0.2053	0.35422	0.30207	0.035
Mof_C 	C 	0.06935	0.43779	0.30919	0.37
Mof_C 	C 	0.13976	0.39293	0.35053	0.033
Mof_H 	H 	0.1261	0.4013	0.3819	0.03
Mof_C 	C 	0.18045	0.36994	0.25869	-0.102
Mof_H 	H 	0.1943	0.3627	0.2271	0.069
Mof_C 	C 	0.18442	0.36569	0.34802	-0.1
Mof_H 	H 	0.2003	0.3552	0.3776	0.064
Mof_C 	C 	0.13602	0.39582	0.26172	0.035
Mof_H 	H 	0.1194	0.4056	0.2323	0.031
Mof_C 	C 	0.28331	0.32979	0.25798	-0.103
Mof_H 	H 	0.2786	0.357	0.2361	0.066
Mof_C 	C 	0.11585	0.40741	0.30745	-0.116
Mof_C 	C 	0.25037	0.32268	0.29755	0.042
Mof_O 	O 	0.94764	0.55013	0.35106	-0.378
Mof_O 	O 	0.94841	0.54932	0.26854	-0.39
Mof_C 	C 	0.7947	0.64578	0.30207	0.029
Mof_C 	C 	0.93065	0.56221	0.30919	0.361
Mof_C 	C 	0.86024	0.60707	0.35053	0.025
Mof_H 	H 	0.8739	0.5987	0.3819	0.041
Mof_C 	C 	0.81955	0.63006	0.25869	-0.092
Mof_H 	H 	0.8057	0.6373	0.2271	0.067
Mof_C 	C 	0.81558	0.63431	0.34802	-0.091
Mof_H 	H 	0.7997	0.6448	0.3776	0.063
Mof_C 	C 	0.86398	0.60418	0.26172	0.027
Mof_H 	H 	0.8806	0.5944	0.2323	0.043
Mof_C 	C 	0.71669	0.67021	0.25798	-0.106
Mof_H 	H 	0.7214	0.643	0.2361	0.068
Mof_C 	C 	0.88415	0.59259	0.30745	-0.097
Mof_C 	C 	0.74963	0.67732	0.29755	0.046
Mof_O 	O 	0.94764	0.44987	0.64894	-0.378
Mof_O 	O 	0.94841	0.45068	0.73146	-0.388
Mof_C 	C 	0.7947	0.35422	0.69793	0.028
Mof_C 	C 	0.93065	0.43779	0.69081	0.361
Mof_C 	C 	0.86024	0.39293	0.64947	0.024
Mof_H 	H 	0.8739	0.4013	0.6181	0.042
Mof_C 	C 	0.81955	0.36994	0.74131	-0.091
Mof_H 	H 	0.8057	0.3627	0.7729	0.066
Mof_C 	C 	0.81558	0.36569	0.65198	-0.09
Mof_H 	H 	0.7997	0.3552	0.6224	0.063
Mof_C 	C 	0.86398	0.39582	0.73828	0.025
Mof_H 	H 	0.8806	0.4056	0.7677	0.045
Mof_C 	C 	0.71669	0.32979	0.74202	-0.107
Mof_H 	H 	0.7214	0.357	0.7639	0.068
Mof_C 	C 	0.88415	0.40741	0.69255	-0.095
Mof_C 	C 	0.74963	0.32268	0.70245	0.047
Mof_O 	O 	0.05236	0.55013	0.64894	-0.421
Mof_O 	O 	0.05159	0.54932	0.73146	-0.431
Mof_C 	C 	0.2053	0.64578	0.69793	0.033
Mof_C 	C 	0.06935	0.56221	0.69081	0.369
Mof_C 	C 	0.13976	0.60707	0.64947	0.032
Mof_H 	H 	0.1261	0.5987	0.6181	0.03
Mof_C 	C 	0.18045	0.63006	0.74131	-0.1
Mof_H 	H 	0.1943	0.6373	0.7729	0.068
Mof_C 	C 	0.18442	0.63431	0.65198	-0.099
Mof_H 	H 	0.2003	0.6448	0.6224	0.063
Mof_C 	C 	0.13602	0.60418	0.73828	0.034
Mof_H 	H 	0.1194	0.5944	0.7677	0.033
Mof_C 	C 	0.28331	0.67021	0.74202	-0.107
Mof_H 	H 	0.2786	0.643	0.7639	0.068
Mof_C 	C 	0.11585	0.59259	0.69255	-0.114
Mof_C 	C 	0.25037	0.67732	0.70245	0.045
Mof_O 	O 	0.35106	0.05236	0.44987	-0.421
Mof_O 	O 	0.26854	0.05159	0.45068	-0.433
Mof_C 	C 	0.30207	0.2053	0.35422	0.035
Mof_C 	C 	0.30919	0.06935	0.43779	0.37
Mof_C 	C 	0.35053	0.13976	0.39293	0.033
Mof_H 	H 	0.3819	0.1261	0.4013	0.03
Mof_C 	C 	0.25869	0.18045	0.36994	-0.102
Mof_H 	H 	0.2271	0.1943	0.3627	0.069
Mof_C 	C 	0.34802	0.18442	0.36569	-0.1
Mof_H 	H 	0.3776	0.2003	0.3552	0.064
Mof_C 	C 	0.26172	0.13602	0.39582	0.035
Mof_H 	H 	0.2323	0.1194	0.4056	0.031
Mof_C 	C 	0.25798	0.28331	0.32979	-0.103
Mof_H 	H 	0.2361	0.2786	0.357	0.066
Mof_C 	C 	0.30745	0.11585	0.40741	-0.116
Mof_C 	C 	0.29755	0.25037	0.32268	0.042
Mof_O 	O 	0.35106	0.94764	0.55013	-0.378
Mof_O 	O 	0.26854	0.94841	0.54932	-0.39
Mof_C 	C 	0.30207	0.7947	0.64578	0.029
Mof_C 	C 	0.30919	0.93065	0.56221	0.361
Mof_C 	C 	0.35053	0.86024	0.60707	0.025
Mof_H 	H 	0.3819	0.8739	0.5987	0.041
Mof_C 	C 	0.25869	0.81955	0.63006	-0.092
Mof_H 	H 	0.2271	0.8057	0.6373	0.067
Mof_C 	C 	0.34802	0.81558	0.63431	-0.091
Mof_H 	H 	0.3776	0.7997	0.6448	0.063
Mof_C 	C 	0.26172	0.86398	0.60418	0.027
Mof_H 	H 	0.2323	0.8806	0.5944	0.043
Mof_C 	C 	0.25798	0.71669	0.67021	-0.106
Mof_H 	H 	0.2361	0.7214	0.643	0.068
Mof_C 	C 	0.30745	0.88415	0.59259	-0.097
Mof_C 	C 	0.29755	0.74963	0.67732	0.046
Mof_O 	O 	0.64894	0.94764	0.44987	-0.378
Mof_O 	O 	0.73146	0.94841	0.45068	-0.388
Mof_C 	C 	0.69793	0.7947	0.35422	0.028
Mof_C 	C 	0.69081	0.93065	0.43779	0.361
Mof_C 	C 	0.64947	0.86024	0.39293	0.024
Mof_H 	H 	0.6181	0.8739	0.4013	0.042
Mof_C 	C 	0.74131	0.81955	0.36994	-0.091
Mof_H 	H 	0.7729	0.8057	0.3627	0.066
Mof_C 	C 	0.65198	0.81558	0.36569	-0.09
Mof_H 	H 	0.6224	0.7997	0.3552	0.063
Mof_C 	C 	0.73828	0.86398	0.39582	0.025
Mof_H 	H 	0.7677	0.8806	0.4056	0.045
Mof_C 	C 	0.74202	0.71669	0.32979	-0.107
Mof_H 	H 	0.7639	0.7214	0.357	0.068
Mof_C 	C 	0.69255	0.88415	0.40741	-0.095
Mof_C 	C 	0.70245	0.74963	0.32268	0.047
Mof_O 	O 	0.64894	0.05236	0.55013	-0.421
Mof_O 	O 	0.73146	0.05159	0.54932	-0.431
Mof_C 	C 	0.69793	0.2053	0.64578	0.033
Mof_C 	C 	0.69081	0.06935	0.56221	0.369
Mof_C 	C 	0.64947	0.13976	0.60707	0.032
Mof_H 	H 	0.6181	0.1261	0.5987	0.03
Mof_C 	C 	0.74131	0.18045	0.63006	-0.1
Mof_H 	H 	0.7729	0.1943	0.6373	0.068
Mof_C 	C 	0.65198	0.18442	0.63431	-0.099
Mof_H 	H 	0.6224	0.2003	0.6448	0.063
Mof_C 	C 	0.73828	0.13602	0.60418	0.034
Mof_H 	H 	0.7677	0.1194	0.5944	0.033
Mof_C 	C 	0.74202	0.28331	0.67021	-0.107
Mof_H 	H 	0.7639	0.2786	0.643	0.068
Mof_C 	C 	0.69255	0.11585	0.59259	-0.114
Mof_C 	C 	0.70245	0.25037	0.67732	0.045
Mof_O 	O 	0.44987	0.35106	0.05236	-0.421
Mof_O 	O 	0.45068	0.26854	0.05159	-0.433
Mof_C 	C 	0.35422	0.30207	0.2053	0.035
Mof_C 	C 	0.43779	0.30919	0.06935	0.37
Mof_C 	C 	0.39293	0.35053	0.13976	0.033
Mof_H 	H 	0.4013	0.3819	0.1261	0.03
Mof_C 	C 	0.36994	0.25869	0.18045	-0.102
Mof_H 	H 	0.3627	0.2271	0.1943	0.069
Mof_C 	C 	0.36569	0.34802	0.18442	-0.1
Mof_H 	H 	0.3552	0.3776	0.2003	0.064
Mof_C 	C 	0.39582	0.26172	0.13602	0.035
Mof_H 	H 	0.4056	0.2323	0.1194	0.031
Mof_C 	C 	0.32979	0.25798	0.28331	-0.103
Mof_H 	H 	0.357	0.2361	0.2786	0.066
Mof_C 	C 	0.40741	0.30745	0.11585	-0.116
Mof_C 	C 	0.32268	0.29755	0.25037	0.042
Mof_O 	O 	0.55013	0.35106	0.94764	-0.378
Mof_O 	O 	0.54932	0.26854	0.94841	-0.39
Mof_C 	C 	0.64578	0.30207	0.7947	0.029
Mof_C 	C 	0.56221	0.30919	0.93065	0.361
Mof_C 	C 	0.60707	0.35053	0.86024	0.025
Mof_H 	H 	0.5987	0.3819	0.8739	0.041
Mof_C 	C 	0.63006	0.25869	0.81955	-0.092
Mof_H 	H 	0.6373	0.2271	0.8057	0.067
Mof_C 	C 	0.63431	0.34802	0.81558	-0.091
Mof_H 	H 	0.6448	0.3776	0.7997	0.063
Mof_C 	C 	0.60418	0.26172	0.86398	0.027
Mof_H 	H 	0.5944	0.2323	0.8806	0.043
Mof_C 	C 	0.67021	0.25798	0.71669	-0.106
Mof_H 	H 	0.643	0.2361	0.7214	0.068
Mof_C 	C 	0.59259	0.30745	0.88415	-0.097
Mof_C 	C 	0.67732	0.29755	0.74963	0.046
Mof_O 	O 	0.44987	0.64894	0.94764	-0.378
Mof_O 	O 	0.45068	0.73146	0.94841	-0.388
Mof_C 	C 	0.35422	0.69793	0.7947	0.028
Mof_C 	C 	0.43779	0.69081	0.93065	0.361
Mof_C 	C 	0.39293	0.64947	0.86024	0.024
Mof_H 	H 	0.4013	0.6181	0.8739	0.042
Mof_C 	C 	0.36994	0.74131	0.81955	-0.091
Mof_H 	H 	0.3627	0.7729	0.8057	0.066
Mof_C 	C 	0.36569	0.65198	0.81558	-0.09
Mof_H 	H 	0.3552	0.6224	0.7997	0.063
Mof_C 	C 	0.39582	0.73828	0.86398	0.025
Mof_H 	H 	0.4056	0.7677	0.8806	0.045
Mof_C 	C 	0.32979	0.74202	0.71669	-0.107
Mof_H 	H 	0.357	0.7639	0.7214	0.068
Mof_C 	C 	0.40741	0.69255	0.88415	-0.095
Mof_C 	C 	0.32268	0.70245	0.74963	0.047
Mof_O 	O 	0.55013	0.64894	0.05236	-0.421
Mof_O 	O 	0.54932	0.73146	0.05159	-0.431
Mof_C 	C 	0.64578	0.69793	0.2053	0.033
Mof_C 	C 	0.56221	0.69081	0.06935	0.369
Mof_C 	C 	0.60707	0.64947	0.13976	0.032
Mof_H 	H 	0.5987	0.6181	0.1261	0.03
Mof_C 	C 	0.63006	0.74131	0.18045	-0.1
Mof_H 	H 	0.6373	0.7729	0.1943	0.068
Mof_C 	C 	0.63431	0.65198	0.18442	-0.099
Mof_H 	H 	0.6448	0.6224	0.2003	0.063
Mof_C 	C 	0.60418	0.73828	0.13602	0.034
Mof_H 	H 	0.5944	0.7677	0.1194	0.033
Mof_C 	C 	0.67021	0.74202	0.28331	-0.107
Mof_H 	H 	0.643	0.7639	0.2786	0.068
Mof_C 	C 	0.59259	0.69255	0.11585	-0.114
Mof_C 	C 	0.67732	0.70245	0.25037	0.045
Mof_Cu	Cu	-2.72247e-33	0.5	0.6444	0.877
Mof_Cu	Cu	-7.50163e-33	0.5	0.74026	0.881
Mof_Cu	Cu	-8.94387e-33	0.5	0.3556	0.877
Mof_Cu	Cu	3.54316e-33	0.5	0.25974	0.88
Mof_Cu	Cu	0.6444	0	0.5	0.877
Mof_Cu	Cu	0.74026	0	0.5	0.881
Mof_Cu	Cu	0.3556	0	0.5	0.877
Mof_Cu	Cu	0.25974	0	0.5	0.88
Mof_Cu	Cu	0.5	0.6444	-0	0.877
Mof_Cu	Cu	0.5	0.74026	-0	0.881
Mof_Cu	Cu	0.5	0.3556	-0	0.877
Mof_Cu	Cu	0.5	0.25974	-0	0.88
_end
