data_functionalizedCrystal
_audit_creation_method	'EQeq! by Chris Wilmer'
_symmetry_space_group_name_H-M	'P1'
_symmetry_Int_Tables_number	1
_symmetry_cell_setting	triclinic
loop_
_symmetry_equiv_pos_as_xyz
  x,y,z
_cell_length_a	14.8966
_cell_length_b	14.8966
_cell_length_c	14.8966
_cell_angle_alpha	78.2453
_cell_angle_beta	78.2453
_cell_angle_gamma	78.2453
loop_
_atom_site_label
_atom_site_type_symbol
_atom_site_fract_x
_atom_site_fract_y
_atom_site_fract_z
_atom_site_charge
Mof_Cu	Cu	0.48611	0.91873	0.48608	0.907
Mof_Cu	Cu	0.48608	0.48611	0.91873	0.907
Mof_Cu	Cu	0.91873	0.48608	0.48611	0.907
Mof_Cu	Cu	0.51389	0.08127	0.51392	0.907
Mof_Cu	Cu	0.51392	0.51389	0.08127	0.907
Mof_Cu	Cu	0.08127	0.51392	0.51389	0.907
Mof_H 	H 	0.7713	0.7651	0.4781	0.075
Mof_H 	H 	0.1915	0.9797	0.5033	0.085
Mof_H 	H 	0.9708	0.188	0.5151	0.087
Mof_H 	H 	0.4781	0.7713	0.7651	0.075
Mof_H 	H 	0.5033	0.1915	0.9797	0.085
Mof_H 	H 	0.5151	0.9708	0.188	0.087
Mof_H 	H 	0.7651	0.4781	0.7713	0.075
Mof_H 	H 	0.9797	0.5033	0.1915	0.085
Mof_H 	H 	0.188	0.5151	0.9708	0.087
Mof_H 	H 	0.2287	0.2349	0.5219	0.075
Mof_H 	H 	0.8085	0.0203	0.4967	0.085
Mof_H 	H 	0.0292	0.812	0.4849	0.087
Mof_H 	H 	0.5219	0.2287	0.2349	0.075
Mof_H 	H 	0.4967	0.8085	0.0203	0.085
Mof_H 	H 	0.4849	0.0292	0.812	0.087
Mof_H 	H 	0.2349	0.5219	0.2287	0.075
Mof_H 	H 	0.0203	0.4967	0.8085	0.085
Mof_H 	H 	0.812	0.4849	0.0292	0.087
Mof_C 	C 	0.2294	0.0941	0.5193	-0.033
Mof_C 	C 	0.0942	0.23	0.5132	-0.012
Mof_C 	C 	0.1896	0.194	0.5186	-0.031
Mof_C 	C 	0.1694	0.0426	0.5081	-0.081
Mof_C 	C 	0.3271	0.0678	0.519	0.295
Mof_C 	C 	0.0355	0.1688	0.5113	-0.085
Mof_C 	C 	0.0783	0.0766	0.5031	0.105
Mof_C 	C 	0.939	0.6656	0.4843	0.299
Mof_C 	C 	0.5193	0.2294	0.0941	-0.033
Mof_C 	C 	0.5132	0.0942	0.23	-0.012
Mof_C 	C 	0.5186	0.1896	0.194	-0.031
Mof_C 	C 	0.5081	0.1694	0.0426	-0.081
Mof_C 	C 	0.519	0.3271	0.0678	0.295
Mof_C 	C 	0.5113	0.0355	0.1688	-0.085
Mof_C 	C 	0.5031	0.0783	0.0766	0.105
Mof_C 	C 	0.4843	0.939	0.6656	0.299
Mof_C 	C 	0.0941	0.5193	0.2294	-0.033
Mof_C 	C 	0.23	0.5132	0.0942	-0.012
Mof_C 	C 	0.194	0.5186	0.1896	-0.031
Mof_C 	C 	0.0426	0.5081	0.1694	-0.081
Mof_C 	C 	0.0678	0.519	0.3271	0.295
Mof_C 	C 	0.1688	0.5113	0.0355	-0.085
Mof_C 	C 	0.0766	0.5031	0.0783	0.105
Mof_C 	C 	0.6656	0.4843	0.939	0.299
Mof_C 	C 	0.7706	0.9059	0.4807	-0.033
Mof_C 	C 	0.9058	0.77	0.4868	-0.012
Mof_C 	C 	0.8104	0.806	0.4814	-0.031
Mof_C 	C 	0.8306	0.9574	0.4919	-0.081
Mof_C 	C 	0.6729	0.9322	0.481	0.295
Mof_C 	C 	0.9645	0.8312	0.4887	-0.085
Mof_C 	C 	0.9217	0.9234	0.4969	0.105
Mof_C 	C 	0.061	0.3344	0.5157	0.299
Mof_C 	C 	0.4807	0.7706	0.9059	-0.033
Mof_C 	C 	0.4868	0.9058	0.77	-0.012
Mof_C 	C 	0.4814	0.8104	0.806	-0.031
Mof_C 	C 	0.4919	0.8306	0.9574	-0.081
Mof_C 	C 	0.481	0.6729	0.9322	0.295
Mof_C 	C 	0.4887	0.9645	0.8312	-0.085
Mof_C 	C 	0.4969	0.9217	0.9234	0.105
Mof_C 	C 	0.5157	0.061	0.3344	0.299
Mof_C 	C 	0.9059	0.4807	0.7706	-0.033
Mof_C 	C 	0.77	0.4868	0.9058	-0.012
Mof_C 	C 	0.806	0.4814	0.8104	-0.031
Mof_C 	C 	0.9574	0.4919	0.8306	-0.081
Mof_C 	C 	0.9322	0.481	0.6729	0.295
Mof_C 	C 	0.8312	0.4887	0.9645	-0.085
Mof_C 	C 	0.9234	0.4969	0.9217	0.105
Mof_C 	C 	0.3344	0.5157	0.061	0.299
Mof_N 	N 	0.02	0.017	0.504	-0.074
Mof_N 	N 	0.504	0.02	0.017	-0.074
Mof_N 	N 	0.017	0.504	0.02	-0.074
Mof_N 	N 	0.98	0.983	0.496	-0.074
Mof_N 	N 	0.496	0.98	0.983	-0.074
Mof_N 	N 	0.983	0.496	0.98	-0.074
Mof_O 	O 	0.3831	0.1203	0.5215	-0.392
Mof_O 	O 	0.8777	0.6198	0.4768	-0.382
Mof_O 	O 	0.022	0.643	0.5004	-0.393
Mof_O 	O 	0.3553	0.9781	0.5055	-0.37
Mof_O 	O 	0.5215	0.3831	0.1203	-0.392
Mof_O 	O 	0.4768	0.8777	0.6198	-0.382
Mof_O 	O 	0.5004	0.022	0.643	-0.393
Mof_O 	O 	0.5055	0.3553	0.9781	-0.37
Mof_O 	O 	0.1203	0.5215	0.3831	-0.392
Mof_O 	O 	0.6198	0.4768	0.8777	-0.382
Mof_O 	O 	0.643	0.5004	0.022	-0.393
Mof_O 	O 	0.9781	0.5055	0.3553	-0.37
Mof_O 	O 	0.6169	0.8797	0.4785	-0.392
Mof_O 	O 	0.1223	0.3802	0.5232	-0.382
Mof_O 	O 	0.978	0.357	0.4996	-0.393
Mof_O 	O 	0.6447	0.0219	0.4945	-0.37
Mof_O 	O 	0.4785	0.6169	0.8797	-0.392
Mof_O 	O 	0.5232	0.1223	0.3802	-0.382
Mof_O 	O 	0.4996	0.978	0.357	-0.393
Mof_O 	O 	0.4945	0.6447	0.0219	-0.37
Mof_O 	O 	0.8797	0.4785	0.6169	-0.392
Mof_O 	O 	0.3802	0.5232	0.1223	-0.382
Mof_O 	O 	0.357	0.4996	0.978	-0.393
Mof_O 	O 	0.0219	0.4945	0.6447	-0.37
_end
