data_functionalizedCrystal
_audit_creation_method	'EQeq! by Chris Wilmer'
_symmetry_space_group_name_H-M	'P1'
_symmetry_Int_Tables_number	1
_symmetry_cell_setting	triclinic
loop_
_symmetry_equiv_pos_as_xyz
  x,y,z
_cell_length_a	9.241
_cell_length_b	9.7459
_cell_length_c	10.661
_cell_angle_alpha	67.7116
_cell_angle_beta	84.68
_cell_angle_gamma	61.7352
loop_
_atom_site_label
_atom_site_type_symbol
_atom_site_fract_x
_atom_site_fract_y
_atom_site_fract_z
_atom_site_charge
Mof_Nd	Nd	0.77969	0.45649	0.01839	2.208
Mof_Nd	Nd	0.22031	0.54351	0.98161	2.208
Mof_H 	H 	0.5883	0.9627	0.1279	0.181
Mof_H 	H 	0.564	0.967	0.2728	0.168
Mof_H 	H 	0.5662	0.6998	0.3895	0.018
Mof_H 	H 	0.6382	0.6597	0.2494	0.025
Mof_H 	H 	0.5448	0.4623	0.382	0.099
Mof_H 	H 	0.3618	0.622	0.3739	0.123
Mof_H 	H 	0.1159	0.2771	0.4305	0.172
Mof_H 	H 	0.1767	0.4062	0.3567	0.144
Mof_H 	H 	0.3236	0.9399	0.2639	-0.021
Mof_H 	H 	0.379	0.9054	0.135	-0.02
Mof_H 	H 	0.8741	0.4779	0.4634	0.018
Mof_H 	H 	0.9015	0.6328	0.3673	0.001
Mof_H 	H 	0.4117	0.0373	0.8721	0.181
Mof_H 	H 	0.436	0.033	0.7272	0.168
Mof_H 	H 	0.4338	0.3002	0.6105	0.018
Mof_H 	H 	0.3618	0.3403	0.7506	0.025
Mof_H 	H 	0.4552	0.5377	0.618	0.099
Mof_H 	H 	0.6382	0.378	0.6261	0.123
Mof_H 	H 	0.8841	0.7229	0.5695	0.172
Mof_H 	H 	0.8233	0.5938	0.6433	0.144
Mof_H 	H 	0.6764	0.0601	0.7361	-0.021
Mof_H 	H 	0.621	0.0946	0.865	-0.02
Mof_H 	H 	0.1259	0.5221	0.5366	0.018
Mof_H 	H 	0.0985	0.3672	0.6327	0.001
Mof_C 	C 	0.4093	0.5852	0.19054	0.527
Mof_C 	C 	0.5132	0.9865	0.1899	-0.492
Mof_C 	C 	0.5355	0.6994	0.2985	-0.031
Mof_C 	C 	0.9922	0.4051	0.25053	0.495
Mof_C 	C 	0.4555	0.5873	0.3208	-0.348
Mof_C 	C 	0.0782	0.3843	0.3742	-0.452
Mof_C 	C 	0.4056	0.1748	0.1221	0.427
Mof_C 	C 	0.4215	0.8849	0.2149	0.091
Mof_C 	C 	0.9584	0.5055	0.4388	0.019
Mof_C 	C 	0.5907	0.4148	0.80946	0.527
Mof_C 	C 	0.4868	0.0135	0.8101	-0.492
Mof_C 	C 	0.4645	0.3006	0.7015	-0.031
Mof_C 	C 	0.0078	0.5949	0.74947	0.495
Mof_C 	C 	0.5445	0.4127	0.6792	-0.348
Mof_C 	C 	0.9218	0.6157	0.6258	-0.452
Mof_C 	C 	0.5944	0.8252	0.8779	0.427
Mof_C 	C 	0.5785	0.1151	0.7851	0.091
Mof_C 	C 	0.0416	0.4945	0.5612	0.019
Mof_O 	O 	0.5166	0.5489	0.11082	-0.62
Mof_O 	O 	0.02816	0.4668	0.13285	-0.644
Mof_O 	O 	0.30521	0.23722	0.01884	-0.478
Mof_O 	O 	0.26342	0.6169	0.16619	-0.575
Mof_O 	O 	0.42071	0.27039	0.16802	-0.491
Mof_O 	O 	0.8778	0.3663	0.26385	-0.544
Mof_O 	O 	0.4834	0.4511	0.88918	-0.62
Mof_O 	O 	0.97184	0.5332	0.86715	-0.644
Mof_O 	O 	0.69479	0.76278	0.98116	-0.478
Mof_O 	O 	0.73658	0.3831	0.83381	-0.575
Mof_O 	O 	0.57929	0.72961	0.83198	-0.491
Mof_O 	O 	0.1222	0.6337	0.73615	-0.544
_end
