data_functionalizedCrystal
_audit_creation_method	'EQeq! by Chris Wilmer'
_symmetry_space_group_name_H-M	'P1'
_symmetry_Int_Tables_number	1
_symmetry_cell_setting	triclinic
loop_
_symmetry_equiv_pos_as_xyz
  x,y,z
_cell_length_a	15.3105
_cell_length_b	15.3105
_cell_length_c	15.3105
_cell_angle_alpha	90
_cell_angle_beta	90
_cell_angle_gamma	90
loop_
_atom_site_label
_atom_site_type_symbol
_atom_site_fract_x
_atom_site_fract_y
_atom_site_fract_z
_atom_site_charge
Mof_O 	O 	0.87416	0.88692	0.73964	-0.304
Mof_O 	O 	0.37416	0.38692	0.23964	-0.304
Mof_O 	O 	0.62584	0.11308	0.23964	-0.304
Mof_O 	O 	0.12584	0.61308	0.73964	-0.304
Mof_O 	O 	0.12584	0.38692	0.76036	-0.304
Mof_O 	O 	0.62584	0.88692	0.26036	-0.304
Mof_O 	O 	0.37416	0.61308	0.26036	-0.304
Mof_O 	O 	0.87416	0.11308	0.76036	-0.304
Mof_O 	O 	0.73964	0.87416	0.88692	-0.304
Mof_O 	O 	0.23964	0.37416	0.38692	-0.304
Mof_O 	O 	0.23964	0.62584	0.11308	-0.304
Mof_O 	O 	0.73964	0.12584	0.61308	-0.304
Mof_O 	O 	0.76036	0.12584	0.38692	-0.304
Mof_O 	O 	0.26036	0.62584	0.88692	-0.304
Mof_O 	O 	0.26036	0.37416	0.61308	-0.304
Mof_O 	O 	0.76036	0.87416	0.11308	-0.304
Mof_O 	O 	0.88692	0.73964	0.87416	-0.304
Mof_O 	O 	0.38692	0.23964	0.37416	-0.304
Mof_O 	O 	0.11308	0.23964	0.62584	-0.304
Mof_O 	O 	0.61308	0.73964	0.12584	-0.304
Mof_O 	O 	0.38692	0.76036	0.12584	-0.304
Mof_O 	O 	0.88692	0.26036	0.62584	-0.304
Mof_O 	O 	0.61308	0.26036	0.37416	-0.304
Mof_O 	O 	0.11308	0.76036	0.87416	-0.304
Mof_O 	O 	0.63692	0.12416	0.51036	-0.304
Mof_O 	O 	0.13692	0.62416	0.01036	-0.304
Mof_O 	O 	0.86308	0.87584	0.01036	-0.304
Mof_O 	O 	0.36308	0.37584	0.51036	-0.304
Mof_O 	O 	0.13692	0.37584	0.48964	-0.304
Mof_O 	O 	0.63692	0.87584	0.98964	-0.304
Mof_O 	O 	0.36308	0.62416	0.98964	-0.304
Mof_O 	O 	0.86308	0.12416	0.48964	-0.304
Mof_O 	O 	0.62416	0.98964	0.36308	-0.304
Mof_O 	O 	0.12416	0.48964	0.86308	-0.304
Mof_O 	O 	0.37584	0.48964	0.13692	-0.304
Mof_O 	O 	0.87584	0.98964	0.63692	-0.304
Mof_O 	O 	0.87584	0.01036	0.86308	-0.304
Mof_O 	O 	0.37584	0.51036	0.36308	-0.304
Mof_O 	O 	0.12416	0.51036	0.63692	-0.304
Mof_O 	O 	0.62416	0.01036	0.13692	-0.304
Mof_O 	O 	0.48964	0.13692	0.37584	-0.304
Mof_O 	O 	0.98964	0.63692	0.87584	-0.304
Mof_O 	O 	0.98964	0.36308	0.62416	-0.304
Mof_O 	O 	0.48964	0.86308	0.12416	-0.304
Mof_O 	O 	0.51036	0.63692	0.12416	-0.304
Mof_O 	O 	0.01036	0.13692	0.62416	-0.304
Mof_O 	O 	0.01036	0.86308	0.87584	-0.304
Mof_O 	O 	0.51036	0.36308	0.37584	-0.304
Mof_Ni	Ni	0.875	0.875	0.875	1.128
Mof_Ni	Ni	0.375	0.375	0.375	1.128
Mof_Ni	Ni	0.625	0.125	0.375	1.128
Mof_Ni	Ni	0.125	0.625	0.875	1.128
Mof_Ni	Ni	0.125	0.375	0.625	1.128
Mof_Ni	Ni	0.625	0.875	0.125	1.128
Mof_Ni	Ni	0.375	0.625	0.125	1.128
Mof_Ni	Ni	0.875	0.125	0.625	1.128
Mof_C 	C 	0.875	0.96423	0.71423	0.232
Mof_C 	C 	0.625	0.03577	0.21423	0.232
Mof_C 	C 	0.125	0.46423	0.78577	0.232
Mof_C 	C 	0.375	0.53577	0.28577	0.232
Mof_C 	C 	0.71423	0.875	0.96423	0.232
Mof_C 	C 	0.21423	0.625	0.03577	0.232
Mof_C 	C 	0.78577	0.125	0.46423	0.232
Mof_C 	C 	0.28577	0.375	0.53577	0.232
Mof_C 	C 	0.96423	0.71423	0.875	0.232
Mof_C 	C 	0.03577	0.21423	0.625	0.232
Mof_C 	C 	0.46423	0.78577	0.125	0.232
Mof_C 	C 	0.53577	0.28577	0.375	0.232
Mof_C 	C 	0.71423	0.125	0.53577	0.232
Mof_C 	C 	0.78577	0.875	0.03577	0.232
Mof_C 	C 	0.21423	0.375	0.46423	0.232
Mof_C 	C 	0.28577	0.625	0.96423	0.232
Mof_C 	C 	0.625	0.96423	0.28577	0.232
Mof_C 	C 	0.375	0.46423	0.21423	0.232
Mof_C 	C 	0.875	0.03577	0.78577	0.232
Mof_C 	C 	0.125	0.53577	0.71423	0.232
Mof_C 	C 	0.46423	0.21423	0.375	0.232
Mof_C 	C 	0.96423	0.28577	0.625	0.232
Mof_C 	C 	0.53577	0.71423	0.125	0.232
Mof_C 	C 	0.03577	0.78577	0.875	0.232
_end
