data_functionalizedCrystal
_audit_creation_method	'EQeq! by Chris Wilmer'
_symmetry_space_group_name_H-M	'P1'
_symmetry_Int_Tables_number	1
_symmetry_cell_setting	triclinic
loop_
_symmetry_equiv_pos_as_xyz
  x,y,z
_cell_length_a	16.8375
_cell_length_b	16.8375
_cell_length_c	16.8375
_cell_angle_alpha	90
_cell_angle_beta	90
_cell_angle_gamma	90
loop_
_atom_site_label
_atom_site_type_symbol
_atom_site_fract_x
_atom_site_fract_y
_atom_site_fract_z
_atom_site_charge
Mof_O 	O 	0.80497	0.51783	0.90602	-0.298
Mof_O 	O 	0.30497	0.01783	0.40602	-0.574
Mof_O 	O 	0.19503	0.48217	0.90602	-0.326
Mof_O 	O 	0.69503	0.98217	0.40602	-0.284
Mof_O 	O 	0.19503	0.51783	0.09398	-0.508
Mof_O 	O 	0.69503	0.01783	0.59398	-0.542
Mof_O 	O 	0.80497	0.48217	0.09398	-0.477
Mof_O 	O 	0.30497	0.98217	0.59398	-0.29
Mof_O 	O 	0.90602	0.80497	0.51783	-0.299
Mof_O 	O 	0.40602	0.30497	0.01783	-0.575
Mof_O 	O 	0.90602	0.19503	0.48217	-0.327
Mof_O 	O 	0.40602	0.69503	0.98217	-0.284
Mof_O 	O 	0.09398	0.19503	0.51783	-0.508
Mof_O 	O 	0.59398	0.69503	0.01783	-0.542
Mof_O 	O 	0.09398	0.80497	0.48217	-0.477
Mof_O 	O 	0.59398	0.30497	0.98217	-0.29
Mof_O 	O 	0.51783	0.90602	0.80497	-0.299
Mof_O 	O 	0.01783	0.40602	0.30497	-0.575
Mof_O 	O 	0.48217	0.90602	0.19503	-0.327
Mof_O 	O 	0.98217	0.40602	0.69503	-0.284
Mof_O 	O 	0.51783	0.09398	0.19503	-0.508
Mof_O 	O 	0.01783	0.59398	0.69503	-0.542
Mof_O 	O 	0.48217	0.09398	0.80497	-0.477
Mof_O 	O 	0.98217	0.59398	0.30497	-0.29
Mof_O 	O 	0.51783	0.80497	0.90602	-0.299
Mof_O 	O 	0.01783	0.30497	0.40602	-0.575
Mof_O 	O 	0.48217	0.19503	0.90602	-0.327
Mof_O 	O 	0.98217	0.69503	0.40602	-0.284
Mof_O 	O 	0.51783	0.19503	0.09398	-0.508
Mof_O 	O 	0.01783	0.69503	0.59398	-0.542
Mof_O 	O 	0.48217	0.80497	0.09398	-0.477
Mof_O 	O 	0.98217	0.30497	0.59398	-0.29
Mof_O 	O 	0.80497	0.90602	0.51783	-0.299
Mof_O 	O 	0.30497	0.40602	0.01783	-0.575
Mof_O 	O 	0.19503	0.90602	0.48217	-0.327
Mof_O 	O 	0.69503	0.40602	0.98217	-0.284
Mof_O 	O 	0.19503	0.09398	0.51783	-0.508
Mof_O 	O 	0.69503	0.59398	0.01783	-0.542
Mof_O 	O 	0.80497	0.09398	0.48217	-0.477
Mof_O 	O 	0.30497	0.59398	0.98217	-0.29
Mof_O 	O 	0.90602	0.51783	0.80497	-0.299
Mof_O 	O 	0.40602	0.01783	0.30497	-0.575
Mof_O 	O 	0.90602	0.48217	0.19503	-0.327
Mof_O 	O 	0.40602	0.98217	0.69503	-0.284
Mof_O 	O 	0.09398	0.51783	0.19503	-0.508
Mof_O 	O 	0.59398	0.01783	0.69503	-0.542
Mof_O 	O 	0.09398	0.48217	0.80497	-0.477
Mof_O 	O 	0.59398	0.98217	0.30497	-0.29
Mof_Ga	Ga	-0	0.5	-0	0.918
Mof_Ga	Ga	0.5	0	0.5	2.073
Mof_Ga	Ga	1.8747e-33	0	0.5	0.918
Mof_Ga	Ga	0.5	0.5	-0	2.073
Mof_Ga	Ga	0.5	0	-0	0.918
Mof_Ga	Ga	1.8747e-33	0.5	0.5	2.073
Mof_Zn	Zn	0.75	0.5	-0	1.17
Mof_Zn	Zn	0.25	0.5	-0	1.164
Mof_Zn	Zn	-3.41362e-33	0.75	0.5	1.17
Mof_Zn	Zn	1.8747e-33	0.25	0.5	1.164
Mof_Zn	Zn	0.5	0	0.75	1.17
Mof_Zn	Zn	0.5	0	0.25	1.164
Mof_Zn	Zn	0.5	0.75	-0	1.17
Mof_Zn	Zn	0.5	0.25	-0	1.164
Mof_Zn	Zn	0.75	0	0.5	1.17
Mof_Zn	Zn	0.25	0	0.5	1.164
Mof_Zn	Zn	-2.47627e-33	0.5	0.75	1.17
Mof_Zn	Zn	3.58151e-33	0.5	0.25	1.164
Mof_P 	P 	0.87638	0.56648	0.87638	0.56
Mof_O 	O 	0.85285	0.65002	0.85285	-0.054
Mof_O 	O 	0.94072	0.57099	0.94072	-0.144
Mof_P 	P 	0.37638	0.06648	0.37638	0.605
Mof_O 	O 	0.35285	0.15002	0.35285	-0.245
Mof_O 	O 	0.44072	0.07099	0.44072	-0.748
Mof_P 	P 	0.12362	0.43352	0.87638	0.558
Mof_O 	O 	0.14715	0.34998	0.85285	-0.207
Mof_O 	O 	0.05928	0.42901	0.94072	-0.401
Mof_P 	P 	0.62362	0.93352	0.37638	0.598
Mof_O 	O 	0.64715	0.84998	0.35285	-0.165
Mof_O 	O 	0.55928	0.92901	0.44072	-0.551
Mof_P 	P 	0.12362	0.56648	0.12362	0.555
Mof_O 	O 	0.14715	0.65002	0.14715	-0.284
Mof_O 	O 	0.05928	0.57099	0.05928	-0.626
Mof_P 	P 	0.62362	0.06648	0.62362	0.607
Mof_O 	O 	0.64715	0.15002	0.64715	-0.199
Mof_O 	O 	0.55928	0.07099	0.55928	-0.747
Mof_P 	P 	0.87638	0.43352	0.12362	0.558
Mof_O 	O 	0.85285	0.34998	0.14715	-0.207
Mof_O 	O 	0.94072	0.42901	0.05928	-0.401
Mof_P 	P 	0.37638	0.93352	0.62362	0.598
Mof_O 	O 	0.35285	0.84998	0.64715	-0.165
Mof_O 	O 	0.44072	0.92901	0.55928	-0.551
Mof_P 	P 	0.87638	0.87638	0.56648	0.56
Mof_O 	O 	0.85285	0.85285	0.65002	-0.054
Mof_O 	O 	0.94072	0.94072	0.57099	-0.144
Mof_P 	P 	0.37638	0.37638	0.06648	0.605
Mof_O 	O 	0.35285	0.35285	0.15002	-0.245
Mof_O 	O 	0.44072	0.44072	0.07099	-0.748
Mof_P 	P 	0.87638	0.12362	0.43352	0.558
Mof_O 	O 	0.85285	0.14715	0.34998	-0.207
Mof_O 	O 	0.94072	0.05928	0.42901	-0.401
Mof_P 	P 	0.37638	0.62362	0.93352	0.598
Mof_O 	O 	0.35285	0.64715	0.84998	-0.165
Mof_O 	O 	0.44072	0.55928	0.92901	-0.551
Mof_P 	P 	0.12362	0.12362	0.56648	0.555
Mof_O 	O 	0.14715	0.14715	0.65002	-0.284
Mof_O 	O 	0.05928	0.05928	0.57099	-0.626
Mof_P 	P 	0.62362	0.62362	0.06648	0.607
Mof_O 	O 	0.64715	0.64715	0.15002	-0.199
Mof_O 	O 	0.55928	0.55928	0.07099	-0.747
Mof_P 	P 	0.12362	0.87638	0.43352	0.558
Mof_O 	O 	0.14715	0.85285	0.34998	-0.207
Mof_O 	O 	0.05928	0.94072	0.42901	-0.401
Mof_P 	P 	0.62362	0.37638	0.93352	0.598
Mof_O 	O 	0.64715	0.35285	0.84998	-0.165
Mof_O 	O 	0.55928	0.44072	0.92901	-0.551
Mof_P 	P 	0.56648	0.87638	0.87638	0.56
Mof_O 	O 	0.65002	0.85285	0.85285	-0.054
Mof_O 	O 	0.57099	0.94072	0.94072	-0.144
Mof_P 	P 	0.06648	0.37638	0.37638	0.605
Mof_O 	O 	0.15002	0.35285	0.35285	-0.245
Mof_O 	O 	0.07099	0.44072	0.44072	-0.748
Mof_P 	P 	0.43352	0.87638	0.12362	0.558
Mof_O 	O 	0.34998	0.85285	0.14715	-0.207
Mof_O 	O 	0.42901	0.94072	0.05928	-0.401
Mof_P 	P 	0.93352	0.37638	0.62362	0.598
Mof_O 	O 	0.84998	0.35285	0.64715	-0.165
Mof_O 	O 	0.92901	0.44072	0.55928	-0.551
Mof_P 	P 	0.56648	0.12362	0.12362	0.555
Mof_O 	O 	0.65002	0.14715	0.14715	-0.284
Mof_O 	O 	0.57099	0.05928	0.05928	-0.626
Mof_P 	P 	0.06648	0.62362	0.62362	0.607
Mof_O 	O 	0.15002	0.64715	0.64715	-0.199
Mof_O 	O 	0.07099	0.55928	0.55928	-0.747
Mof_P 	P 	0.43352	0.12362	0.87638	0.558
Mof_O 	O 	0.34998	0.14715	0.85285	-0.207
Mof_O 	O 	0.42901	0.05928	0.94072	-0.401
Mof_P 	P 	0.93352	0.62362	0.37638	0.598
Mof_O 	O 	0.84998	0.64715	0.35285	-0.165
Mof_O 	O 	0.92901	0.55928	0.44072	-0.551
_end
