data_functionalizedCrystal
_audit_creation_method	'EQeq! by Chris Wilmer'
_symmetry_space_group_name_H-M	'P1'
_symmetry_Int_Tables_number	1
_symmetry_cell_setting	triclinic
loop_
_symmetry_equiv_pos_as_xyz
  x,y,z
_cell_length_a	9.1427
_cell_length_b	24.503
_cell_length_c	24.588
_cell_angle_alpha	90
_cell_angle_beta	91.089
_cell_angle_gamma	90
loop_
_atom_site_label
_atom_site_type_symbol
_atom_site_fract_x
_atom_site_fract_y
_atom_site_fract_z
_atom_site_charge
Mof_C 	C 	0.1495	0.8481	0.0164	0.161
Mof_C 	C 	0.1932	0.8229	0.1027	0.177
Mof_C 	C 	0.1035	0.7613	0.0436	0.168
Mof_C 	C 	0.1454	0.8688	0.9166	0.045
Mof_H 	H 	0.2427	0.8618	0.9033	0.016
Mof_H 	H 	0.0895	0.8353	0.9139	0.013
Mof_C 	C 	0.0748	0.911	0.8833	-0.223
Mof_H 	H 	0.9737	0.9158	0.8949	0.111
Mof_C 	C 	0.1577	0.9651	0.8906	0.013
Mof_H 	H 	0.2556	0.9615	0.8764	0.031
Mof_H 	H 	0.1075	0.9937	0.8704	0.017
Mof_C 	C 	0.1663	0.9798	0.9495	-0.135
Mof_H 	H 	0.2232	0.013	0.9536	0.054
Mof_H 	H 	0.0683	0.9874	0.962	0.073
Mof_C 	C 	0.2307	0.9382	0.9838	-0.018
Mof_H 	H 	0.2233	0.9487	0.0217	0.045
Mof_H 	H 	0.3336	0.9342	0.9756	0.051
Mof_C 	C 	0.0744	0.8925	0.8239	0.404
Mof_C 	C 	0.2918	0.8931	0.1664	0.044
Mof_H 	H 	0.3885	0.8957	0.1832	0.026
Mof_H 	H 	0.2883	0.9164	0.1346	0.026
Mof_C 	C 	0.1785	0.9097	0.2055	-0.243
Mof_H 	H 	0.0836	0.9065	0.1866	0.112
Mof_C 	C 	0.1732	0.8742	0.2541	0.064
Mof_H 	H 	0.093	0.8857	0.2767	-0.003
Mof_H 	H 	0.2633	0.8783	0.2752	0.014
Mof_C 	C 	0.1531	0.8151	0.239	-0.203
Mof_H 	H 	0.0541	0.8095	0.2252	0.083
Mof_H 	H 	0.1669	0.7926	0.2711	0.08
Mof_C 	C 	0.2611	0.7977	0.1959	0.023
Mof_H 	H 	0.3589	0.7963	0.2119	0.024
Mof_H 	H 	0.2362	0.7615	0.1829	0.028
Mof_C 	C 	0.1991	0.97	0.22	0.463
Mof_C 	C 	0.0124	0.6715	0.0771	-0.024
Mof_H 	H 	0.9078	0.6679	0.0821	0.047
Mof_H 	H 	0.0571	0.6833	0.1112	0.041
Mof_C 	C 	0.0768	0.6178	0.0596	-0.146
Mof_H 	H 	0.056	0.5903	0.0867	0.064
Mof_H 	H 	0.1822	0.6214	0.0576	0.082
Mof_C 	C 	0.0162	0.599	0.0046	-0.018
Mof_H 	H 	0.0615	0.5648	0.9946	0.035
Mof_H 	H 	0.9116	0.5932	0.0068	0.039
Mof_C 	C 	0.0468	0.6418	0.9619	-0.163
Mof_H 	H 	0.1533	0.6462	0.9616	0.085
Mof_C 	C 	0.9831	0.6981	0.9784	0.011
Mof_H 	H 	0.0108	0.7257	0.9523	0.036
Mof_H 	H 	0.8772	0.6963	0.9791	0.039
Mof_C 	C 	9.28871e-33	0.6271	0.904	0.329
Mof_C 	C 	0.4555	0.1551	0.9029	0.183
Mof_C 	C 	0.3915	0.222	0.9577	0.175
Mof_C 	C 	0.5057	0.1492	0.9948	0.185
Mof_C 	C 	0.5449	0.0825	0.8437	0.009
Mof_H 	H 	0.5772	0.0665	0.8779	0.041
Mof_H 	H 	0.6307	0.0905	0.8225	0.033
Mof_C 	C 	0.4472	0.0423	0.8128	-0.176
Mof_H 	H 	0.358	0.036	0.8334	0.082
Mof_C 	C 	0.4064	0.0698	0.7581	-0.003
Mof_H 	H 	0.3434	0.0457	0.7369	0.027
Mof_H 	H 	0.4944	0.0763	0.7377	0.031
Mof_C 	C 	0.3261	0.1251	0.7679	-0.177
Mof_H 	H 	0.3118	0.1441	0.7336	0.07
Mof_H 	H 	0.2308	0.1183	0.7832	0.076
Mof_C 	C 	0.4139	0.1587	0.8053	0.027
Mof_H 	H 	0.4986	0.1718	0.786	0.022
Mof_H 	H 	0.3563	0.1904	0.815	0.025
Mof_C 	C 	0.5268	0.9885	0.8055	0.347
Mof_C 	C 	0.2636	0.3019	0.9161	0.006
Mof_H 	H 	0.2907	0.2831	0.8831	0.034
Mof_H 	H 	0.1578	0.3021	0.918	0.035
Mof_C 	C 	0.3186	0.3577	0.9153	-0.171
Mof_H 	H 	0.2724	0.377	0.885	0.072
Mof_H 	H 	0.423	0.3569	0.9089	0.086
Mof_C 	C 	0.2913	0.3897	0.9679	0.019
Mof_H 	H 	0.1874	0.3918	0.9748	0.029
Mof_H 	H 	0.3298	0.4265	0.9652	0.027
Mof_C 	C 	0.3712	0.3581	0.0141	-0.229
Mof_H 	H 	0.4761	0.3564	0.0069	0.111
Mof_C 	C 	0.3066	0.2999	0.015	0.045
Mof_H 	H 	0.3535	0.279	0.044	0.017
Mof_H 	H 	0.2028	0.3018	0.0223	0.027
Mof_C 	C 	0.3456	0.3904	0.0675	0.5
Mof_C 	C 	0.5187	0.1322	0.0891	0.098
Mof_H 	H 	0.4857	0.1698	0.0897	-0.003
Mof_H 	H 	0.6065	0.1301	0.1118	-0.007
Mof_C 	C 	0.4041	0.0979	0.1149	-0.283
Mof_H 	H 	0.3083	0.1089	0.1002	0.12
Mof_C 	C 	0.4289	0.0364	0.101	0.111
Mof_H 	H 	0.5027	0.0217	0.1258	-0.006
Mof_H 	H 	0.3387	0.0166	0.1068	-0.011
Mof_C 	C 	0.4753	0.0275	0.045	-0.279
Mof_H 	H 	0.3921	0.0334	0.0206	0.115
Mof_H 	H 	0.5052	0.9897	0.0412	0.124
Mof_C 	C 	0.5988	0.0637	0.0278	0.072
Mof_H 	H 	0.6859	0.0557	0.0495	0.008
Mof_H 	H 	0.6205	0.057	0.9899	0.018
Mof_C 	C 	0.399	0.0998	0.1768	0.472
Mof_C 	C 	0.565	0.8118	0.4981	0.167
Mof_C 	C 	0.6373	0.7309	0.4633	0.179
Mof_C 	C 	0.6102	0.8043	0.4101	0.176
Mof_C 	C 	0.5043	0.9029	0.5331	0.022
Mof_H 	H 	0.4753	0.9115	0.496	0.037
Mof_H 	H 	0.4297	0.9167	0.557	0.027
Mof_C 	C 	0.6452	0.9292	0.5464	-0.2
Mof_H 	H 	0.6372	0.9684	0.5418	0.098
Mof_H 	H 	0.7203	0.9159	0.5224	0.098
Mof_C 	C 	0.6865	0.915	0.6074	0.048
Mof_H 	H 	0.7836	0.9291	0.6157	0.018
Mof_H 	H 	0.6185	0.9334	0.631	0.018
Mof_C 	C 	0.6841	0.8536	0.62	-0.272
Mof_H 	H 	0.7688	0.8361	0.6034	0.116
Mof_C 	C 	0.539	0.8268	0.5962	0.061
Mof_H 	H 	0.546	0.7873	0.5987	0.004
Mof_H 	H 	0.4562	0.8385	0.6173	0.003
Mof_C 	C 	0.6995	0.8505	0.6784	0.468
Mof_C 	C 	0.6711	0.6495	0.5229	0.086
Mof_H 	H 	0.7644	0.6328	0.5324	0.016
Mof_H 	H 	0.6472	0.6752	0.5514	0.007
Mof_C 	C 	0.5593	0.6077	0.5195	-0.289
Mof_H 	H 	0.4643	0.6257	0.5147	0.125
Mof_C 	C 	0.5814	0.5686	0.47	0.046
Mof_H 	H 	0.4977	0.5445	0.4661	0.026
Mof_H 	H 	0.6679	0.5464	0.4763	0.02
Mof_C 	C 	0.5991	0.603	0.4167	-0.193
Mof_H 	H 	0.6244	0.5792	0.3868	0.081
Mof_H 	H 	0.5076	0.6211	0.4074	0.094
Mof_C 	C 	0.7193	0.6454	0.4258	0.024
Mof_H 	H 	0.8117	0.6271	0.4333	0.033
Mof_H 	H 	0.7299	0.6673	0.3933	0.03
Mof_C 	C 	0.5527	0.5717	0.5699	0.574
Mof_C 	C 	0.6517	0.7956	0.3138	0.016
Mof_H 	H 	0.5612	0.7868	0.2946	0.025
Mof_H 	H 	0.6987	0.7617	0.3246	0.029
Mof_C 	C 	0.752	0.8276	0.2762	-0.176
Mof_H 	H 	0.8468	0.8325	0.2939	0.08
Mof_H 	H 	0.7663	0.8069	0.2431	0.071
Mof_C 	C 	0.6874	0.8826	0.2623	0.015
Mof_H 	H 	0.5964	0.8776	0.242	0.029
Mof_H 	H 	0.7543	0.9025	0.2394	0.025
Mof_C 	C 	0.6582	0.9162	0.3137	-0.194
Mof_H 	H 	0.7518	0.9236	0.3323	0.094
Mof_C 	C 	0.5616	0.881	0.352	0.01
Mof_H 	H 	0.5547	0.899	0.3869	0.047
Mof_H 	H 	0.4636	0.8782	0.3364	0.036
Mof_C 	C 	0.5844	0.9688	0.3018	0.386
Mof_C 	C 	0.9083	0.1049	0.5104	0.182
Mof_C 	C 	0.922	0.1915	0.5367	0.18
Mof_C 	C 	0.8526	0.126	0.5957	0.176
Mof_C 	C 	0.9262	0.0854	0.4129	0.077
Mof_H 	H 	0.8298	0.0819	0.396	0.008
Mof_H 	H 	0.9551	0.1234	0.411	0.008
Mof_C 	C 	0.0313	0.0516	0.3833	-0.262
Mof_H 	H 	0.1288	0.057	0.3996	0.115
Mof_C 	C 	0.9907	0.9891	0.387	0.066
Mof_H 	H 	0.896	0.9825	0.3698	0.014
Mof_H 	H 	0.0633	0.9672	0.3688	-0.003
Mof_C 	C 	0.9868	0.9749	0.4461	-0.176
Mof_H 	H 	0.9542	0.9375	0.4499	0.077
Mof_H 	H 	0.085	0.9774	0.4616	0.084
Mof_C 	C 	0.8887	0.0111	0.4767	0.003
Mof_H 	H 	0.7885	0.0044	0.4648	0.043
Mof_H 	H 	0.8962	0.002	0.5151	0.034
Mof_C 	C 	0.0379	0.0645	0.322	0.434
Mof_C 	C 	0.9915	0.2628	0.4731	0.016
Mof_H 	H 	0.9858	0.2324	0.448	0.041
Mof_H 	H 	0.0897	0.2777	0.4723	0.031
Mof_C 	C 	0.8821	0.306	0.4565	-0.159
Mof_H 	H 	0.7855	0.2887	0.4552	0.082
Mof_C 	C 	0.8748	0.351	0.4954	0.002
Mof_H 	H 	0.7962	0.3756	0.4849	0.032
Mof_H 	H 	0.9658	0.3713	0.4953	0.033
Mof_C 	C 	0.8474	0.3282	0.5541	-0.18
Mof_H 	H 	0.856	0.3578	0.5802	0.075
Mof_H 	H 	0.7488	0.3138	0.5557	0.09
Mof_C 	C 	0.9536	0.2845	0.5689	0.03
Mof_H 	H 	0.0499	0.3004	0.5744	0.024
Mof_H 	H 	0.9249	0.2676	0.6027	0.028
Mof_C 	C 	0.9151	0.3267	0.397	0.347
Mof_C 	C 	0.7884	0.0539	0.6611	0.054
Mof_H 	H 	0.7907	0.0304	0.6294	0.018
Mof_H 	H 	0.6962	0.048	0.6791	0.02
Mof_C 	C 	0.9119	0.0398	0.6989	-0.255
Mof_H 	H 	0.0052	0.0453	0.6807	0.109
Mof_C 	C 	0.9024	0.078	0.7483	0.056
Mof_H 	H 	0.811	0.0717	0.7667	0.016
Mof_H 	H 	0.9819	0.0699	0.7738	0.002
Mof_C 	C 	0.911	0.136	0.7313	-0.19
Mof_H 	H 	0.0073	0.1436	0.7173	0.077
Mof_H 	H 	0.8959	0.1595	0.7625	0.077
Mof_C 	C 	0.7942	0.1479	0.6874	0.028
Mof_H 	H 	0.6983	0.146	0.7034	0.021
Mof_H 	H 	0.8077	0.1847	0.6739	0.027
Mof_C 	C 	0.8956	0.9814	0.7142	0.467
Mof_Gd	Gd	0.08031	0.85996	0.70944	1.443
Mof_Gd	Gd	0.6965	0.88953	0.79039	1.57
Mof_Gd	Gd	0.40866	0.06615	0.28767	1.567
Mof_Gd	Gd	0.01872	0.09213	0.20519	1.44
Mof_N 	N 	0.1921	0.8643	0.0656	-0.165
Mof_N 	N 	0.1499	0.773	0.0951	-0.169
Mof_N 	N 	0.1076	0.7964	0.0015	-0.163
Mof_N 	N 	0.1555	0.8864	0.9747	-0.133
Mof_N 	N 	0.2591	0.8352	0.1509	-0.143
Mof_N 	N 	0.0426	0.7119	0.0331	-0.13
Mof_N 	N 	0.3921	0.2019	0.9081	-0.175
Mof_N 	N 	0.4449	0.1987	0.0036	-0.169
Mof_N 	N 	0.5079	0.1246	0.9465	-0.169
Mof_N 	N 	0.4636	0.1332	0.854	-0.145
Mof_N 	N 	0.3275	0.273	0.9644	-0.137
Mof_N 	N 	0.5579	0.1195	0.0349	-0.167
Mof_N 	N 	0.5966	0.7586	0.5078	-0.168
Mof_N 	N 	0.6544	0.7509	0.4135	-0.167
Mof_N 	N 	0.569	0.8361	0.4481	-0.171
Mof_N 	N 	0.5168	0.8428	0.5394	-0.145
Mof_N 	N 	0.6839	0.6793	0.47	-0.146
Mof_N 	N 	0.6212	0.8265	0.3599	-0.139
Mof_N 	N 	0.9311	0.157	0.4965	-0.173
Mof_N 	N 	0.8806	0.1793	0.5879	-0.167
Mof_N 	N 	0.8695	0.0867	0.5584	-0.171
Mof_N 	N 	0.9206	0.068	0.4701	-0.144
Mof_N 	N 	0.9593	0.2445	0.5276	-0.138
Mof_N 	N 	0.7999	0.1116	0.6441	-0.148
Mof_O 	O 	0.9464	0.8889	0.8004	-0.54
Mof_O 	O 	0.1892	0.883	0.8011	-0.458
Mof_O 	O 	0.1024	0.0031	0.2032	-0.47
Mof_O 	O 	0.313	0.9846	0.2452	-0.426
Mof_O 	O 	0.9909	0.5763	0.8924	-0.392
Mof_O 	O 	0.9753	0.6615	0.8696	-0.431
Mof_O 	O 	0.6285	0.9737	0.8376	-0.422
Mof_O 	O 	0.4945	0.9563	0.7657	-0.372
Mof_O 	O 	0.4041	0.4371	0.0662	-0.581
Mof_H 	H 	0.3889	0.4532	0.0948	0.327
Mof_O 	O 	0.2785	0.3731	0.1049	-0.483
Mof_O 	O 	0.275	0.0998	0.1983	-0.558
Mof_O 	O 	0.5089	0.0964	0.2042	-0.512
Mof_O 	O 	0.5886	0.8533	0.7084	-0.486
Mof_O 	O 	0.8191	0.8511	0.7021	-0.551
Mof_O 	O 	0.6099	0.5847	0.6104	-0.527
Mof_O 	O 	0.4795	0.5284	0.5653	-0.61
Mof_H 	H 	0.4822	0.5118	0.5943	0.342
Mof_O 	O 	0.6118	0.9969	0.2634	-0.384
Mof_O 	O 	0.5001	0.9894	0.3382	-0.433
Mof_O 	O 	0.1569	0.0712	0.2992	-0.563
Mof_O 	O 	0.9196	0.0688	0.2964	-0.452
Mof_O 	O 	0.9418	0.2909	0.3631	-0.438
Mof_O 	O 	0.913	0.3752	0.3865	-0.419
Mof_O 	O 	0.786	0.9645	0.7391	-0.431
Mof_O 	O 	0.0006	0.9492	0.7016	-0.453
Mof_C 	C 	0.8505	0.3481	0.9836	0.165
Mof_C 	C 	0.8068	0.3229	0.8973	0.179
Mof_C 	C 	0.8965	0.2613	0.9564	0.171
Mof_C 	C 	0.8546	0.3688	0.0834	0.045
Mof_H 	H 	0.7573	0.3618	0.0967	0.015
Mof_H 	H 	0.9105	0.3353	0.0861	0.016
Mof_C 	C 	0.9252	0.411	0.1167	-0.22
Mof_H 	H 	0.0263	0.4158	0.1051	0.102
Mof_C 	C 	0.8423	0.4651	0.1094	0.039
Mof_H 	H 	0.7444	0.4615	0.1236	0.021
Mof_H 	H 	0.8925	0.4937	0.1296	0.008
Mof_C 	C 	0.8337	0.4798	0.0505	-0.187
Mof_H 	H 	0.7768	0.513	0.0464	0.079
Mof_H 	H 	0.9317	0.4874	0.038	0.088
Mof_C 	C 	0.7693	0.4382	0.0162	0.012
Mof_H 	H 	0.7767	0.4487	0.9783	0.033
Mof_H 	H 	0.6664	0.4342	0.0244	0.041
Mof_C 	C 	0.9256	0.3925	0.1761	0.415
Mof_C 	C 	0.7082	0.3931	0.8336	0.043
Mof_H 	H 	0.6115	0.3957	0.8168	0.025
Mof_H 	H 	0.7117	0.4164	0.8654	0.025
Mof_C 	C 	0.8215	0.4097	0.7945	-0.238
Mof_H 	H 	0.9164	0.4065	0.8134	0.111
Mof_C 	C 	0.8268	0.3742	0.7459	0.062
Mof_H 	H 	0.907	0.3857	0.7233	-0.001
Mof_H 	H 	0.7367	0.3783	0.7248	0.015
Mof_C 	C 	0.8469	0.3151	0.761	-0.203
Mof_H 	H 	0.9459	0.3095	0.7748	0.086
Mof_H 	H 	0.8331	0.2926	0.7289	0.081
Mof_C 	C 	0.7389	0.2977	0.8041	0.023
Mof_H 	H 	0.6411	0.2963	0.7881	0.024
Mof_H 	H 	0.7638	0.2615	0.8171	0.029
Mof_C 	C 	0.8009	0.47	0.78	0.449
Mof_C 	C 	0.9876	0.1715	0.9229	0.009
Mof_H 	H 	0.0922	0.1679	0.9179	0.03
Mof_H 	H 	0.9429	0.1833	0.8888	0.033
Mof_C 	C 	0.9232	0.1178	0.9404	-0.171
Mof_H 	H 	0.944	0.0903	0.9133	0.073
Mof_H 	H 	0.8178	0.1214	0.9424	0.088
Mof_C 	C 	0.9838	0.099	0.9954	0.009
Mof_H 	H 	0.9385	0.0648	0.0054	0.029
Mof_H 	H 	0.0884	0.0932	0.9932	0.023
Mof_C 	C 	0.9532	0.1418	0.0381	-0.148
Mof_H 	H 	0.8467	0.1462	0.0384	0.081
Mof_C 	C 	0.0169	0.1981	0.0216	-0.034
Mof_H 	H 	0.9892	0.2257	0.0477	0.057
Mof_H 	H 	0.1228	0.1963	0.0209	0.05
Mof_C 	C 	6.45092e-19	0.1271	0.096	0.332
Mof_C 	C 	0.5445	0.6551	0.0971	0.183
Mof_C 	C 	0.6085	0.722	0.0423	0.176
Mof_C 	C 	0.4943	0.6492	0.0052	0.184
Mof_C 	C 	0.4551	0.5825	0.1563	0.001
Mof_H 	H 	0.4228	0.5665	0.1221	0.046
Mof_H 	H 	0.3693	0.5905	0.1775	0.036
Mof_C 	C 	0.5528	0.5423	0.1872	-0.16
Mof_H 	H 	0.642	0.536	0.1666	0.082
Mof_C 	C 	0.5936	0.5698	0.2419	-0.013
Mof_H 	H 	0.6566	0.5457	0.2631	0.033
Mof_H 	H 	0.5056	0.5763	0.2623	0.036
Mof_C 	C 	0.6739	0.6251	0.2321	-0.172
Mof_H 	H 	0.6882	0.6441	0.2664	0.07
Mof_H 	H 	0.7692	0.6183	0.2168	0.077
Mof_C 	C 	0.5861	0.6587	0.1947	0.024
Mof_H 	H 	0.5014	0.6718	0.214	0.023
Mof_H 	H 	0.6437	0.6904	0.185	0.026
Mof_C 	C 	0.4732	0.4885	0.1945	0.334
Mof_C 	C 	0.7364	0.8019	0.0839	0.002
Mof_H 	H 	0.7093	0.7831	0.1169	0.036
Mof_H 	H 	0.8422	0.8021	0.082	0.039
Mof_C 	C 	0.6814	0.8577	0.0847	-0.166
Mof_H 	H 	0.7276	0.877	0.115	0.073
Mof_H 	H 	0.577	0.8569	0.0911	0.085
Mof_C 	C 	0.7087	0.8897	0.0321	0.014
Mof_H 	H 	0.8126	0.8918	0.0252	0.034
Mof_H 	H 	0.6702	0.9265	0.0348	0.031
Mof_C 	C 	0.6288	0.8581	0.9859	-0.226
Mof_H 	H 	0.5239	0.8564	0.9931	0.11
Mof_C 	C 	0.6934	0.7999	0.985	0.042
Mof_H 	H 	0.6465	0.779	0.956	0.018
Mof_H 	H 	0.7972	0.8018	0.9777	0.03
Mof_C 	C 	0.6544	0.8904	0.9325	0.499
Mof_C 	C 	0.4813	0.6322	0.9109	0.09
Mof_H 	H 	0.5143	0.6698	0.9103	-0.001
Mof_H 	H 	0.3935	0.6301	0.8882	-0.006
Mof_C 	C 	0.5959	0.5979	0.8851	-0.27
Mof_H 	H 	0.6917	0.6089	0.8998	0.116
Mof_C 	C 	0.5711	0.5364	0.899	0.076
Mof_H 	H 	0.4973	0.5217	0.8742	0.007
Mof_H 	H 	0.6613	0.5166	0.8932	0.003
Mof_C 	C 	0.5247	0.5275	0.955	-0.227
Mof_H 	H 	0.6079	0.5334	0.9794	0.102
Mof_H 	H 	0.4948	0.4897	0.9588	0.1
Mof_C 	C 	0.4012	0.5637	0.9722	0.045
Mof_H 	H 	0.3141	0.5557	0.9505	0.017
Mof_H 	H 	0.3795	0.557	0.0101	0.029
Mof_C 	C 	0.601	0.5998	0.8232	0.469
Mof_C 	C 	0.435	0.3118	0.5019	0.167
Mof_C 	C 	0.3627	0.2309	0.5367	0.178
Mof_C 	C 	0.3898	0.3043	0.5899	0.176
Mof_C 	C 	0.4957	0.4029	0.4669	0.022
Mof_H 	H 	0.5247	0.4115	0.504	0.036
Mof_H 	H 	0.5703	0.4167	0.443	0.026
Mof_C 	C 	0.3548	0.4292	0.4536	-0.199
Mof_H 	H 	0.3628	0.4684	0.4582	0.093
Mof_H 	H 	0.2797	0.4159	0.4776	0.095
Mof_C 	C 	0.3135	0.415	0.3926	0.05
Mof_H 	H 	0.2164	0.4291	0.3843	0.014
Mof_H 	H 	0.3815	0.4334	0.369	0.016
Mof_C 	C 	0.3159	0.3536	0.38	-0.273
Mof_H 	H 	0.2312	0.3361	0.3966	0.115
Mof_C 	C 	0.461	0.3268	0.4038	0.061
Mof_H 	H 	0.454	0.2873	0.4013	0.004
Mof_H 	H 	0.5438	0.3385	0.3827	0.003
Mof_C 	C 	0.3005	0.3505	0.3216	0.469
Mof_C 	C 	0.3289	0.1495	0.4771	0.089
Mof_H 	H 	0.2356	0.1328	0.4676	0.013
Mof_H 	H 	0.3528	0.1752	0.4486	0.006
Mof_C 	C 	0.4407	0.1077	0.4805	-0.292
Mof_H 	H 	0.5357	0.1257	0.4853	0.125
Mof_C 	C 	0.4186	0.0686	0.53	0.052
Mof_H 	H 	0.5023	0.0445	0.5339	0.021
Mof_H 	H 	0.3321	0.0464	0.5237	0.016
Mof_C 	C 	0.4009	0.103	0.5833	-0.197
Mof_H 	H 	0.3756	0.0792	0.6132	0.08
Mof_H 	H 	0.4924	0.1211	0.5926	0.095
Mof_C 	C 	0.2807	0.1454	0.5742	0.028
Mof_H 	H 	0.1883	0.1271	0.5667	0.029
Mof_H 	H 	0.2701	0.1673	0.6067	0.028
Mof_C 	C 	0.4473	0.0717	0.4301	0.574
Mof_C 	C 	0.3483	0.2956	0.6862	0.016
Mof_H 	H 	0.4388	0.2868	0.7054	0.025
Mof_H 	H 	0.3013	0.2617	0.6754	0.029
Mof_C 	C 	0.248	0.3276	0.7238	-0.175
Mof_H 	H 	0.1532	0.3325	0.7061	0.077
Mof_H 	H 	0.2337	0.3069	0.7569	0.069
Mof_C 	C 	0.3126	0.3826	0.7377	0.016
Mof_H 	H 	0.4036	0.3776	0.758	0.028
Mof_H 	H 	0.2457	0.4025	0.7606	0.022
Mof_C 	C 	0.3418	0.4162	0.6863	-0.196
Mof_H 	H 	0.2482	0.4236	0.6677	0.092
Mof_C 	C 	0.4384	0.381	0.648	0.011
Mof_H 	H 	0.4453	0.399	0.6131	0.045
Mof_H 	H 	0.5364	0.3782	0.6636	0.035
Mof_C 	C 	0.4156	0.4688	0.6982	0.389
Mof_C 	C 	0.0917	0.6049	0.4896	0.18
Mof_C 	C 	0.078	0.6915	0.4633	0.177
Mof_C 	C 	0.1474	0.626	0.4043	0.175
Mof_C 	C 	0.0738	0.5854	0.5871	0.05
Mof_H 	H 	0.1702	0.5819	0.604	0.016
Mof_H 	H 	0.0449	0.6234	0.589	0.012
Mof_C 	C 	0.9687	0.5516	0.6167	-0.222
Mof_H 	H 	0.8712	0.557	0.6004	0.107
Mof_C 	C 	0.0093	0.4891	0.613	0.018
Mof_H 	H 	0.104	0.4825	0.6302	0.023
Mof_H 	H 	0.9367	0.4672	0.6312	0.014
Mof_C 	C 	0.0132	0.4749	0.5539	-0.185
Mof_H 	H 	0.0458	0.4375	0.5501	0.076
Mof_H 	H 	0.915	0.4774	0.5384	0.089
Mof_C 	C 	0.1113	0.5111	0.5233	0.012
Mof_H 	H 	0.2115	0.5044	0.5352	0.044
Mof_H 	H 	0.1038	0.502	0.4849	0.034
Mof_C 	C 	0.9621	0.5645	0.678	0.439
Mof_C 	C 	0.0085	0.7628	0.5269	-0.012
Mof_H 	H 	0.0142	0.7324	0.552	0.047
Mof_H 	H 	0.9103	0.7777	0.5277	0.046
Mof_C 	C 	0.1179	0.806	0.5435	-0.145
Mof_H 	H 	0.2145	0.7887	0.5448	0.078
Mof_C 	C 	0.1252	0.851	0.5046	-0.015
Mof_H 	H 	0.2038	0.8756	0.5151	0.037
Mof_H 	H 	0.0342	0.8713	0.5047	0.036
Mof_C 	C 	0.1526	0.8282	0.4459	-0.158
Mof_H 	H 	0.144	0.8578	0.4198	0.067
Mof_H 	H 	0.2512	0.8138	0.4443	0.084
Mof_C 	C 	0.0464	0.7845	0.4311	-0.003
Mof_H 	H 	0.9501	0.8004	0.4256	0.041
Mof_H 	H 	0.0751	0.7676	0.3973	0.036
Mof_C 	C 	0.0849	0.8267	0.603	0.341
Mof_C 	C 	0.2116	0.5539	0.3389	0.057
Mof_H 	H 	0.2093	0.5304	0.3706	0.019
Mof_H 	H 	0.3038	0.548	0.3209	0.022
Mof_C 	C 	0.0881	0.5398	0.3011	-0.266
Mof_H 	H 	0.9948	0.5453	0.3193	0.122
Mof_C 	C 	0.0976	0.578	0.2517	0.079
Mof_H 	H 	0.189	0.5717	0.2333	0.011
Mof_H 	H 	0.0181	0.5699	0.2262	-0.006
Mof_C 	C 	0.089	0.636	0.2687	-0.231
Mof_H 	H 	0.9927	0.6436	0.2827	0.097
Mof_H 	H 	0.1041	0.6595	0.2375	0.087
Mof_C 	C 	0.2058	0.6479	0.3126	0.046
Mof_H 	H 	0.3017	0.646	0.2966	0.016
Mof_H 	H 	0.1923	0.6847	0.3261	0.02
Mof_C 	C 	0.1044	0.4814	0.2858	0.451
Mof_Gd	Gd	0.91969	0.35996	0.29056	1.454
Mof_Gd	Gd	0.3035	0.38953	0.20961	1.567
Mof_Gd	Gd	0.59134	0.56615	0.71233	1.583
Mof_Gd	Gd	0.98128	0.59213	0.79481	1.456
Mof_N 	N 	0.8079	0.3643	0.9344	-0.166
Mof_N 	N 	0.8501	0.273	0.9049	-0.168
Mof_N 	N 	0.8924	0.2964	0.9985	-0.162
Mof_N 	N 	0.8445	0.3864	0.0253	-0.136
Mof_N 	N 	0.7409	0.3352	0.8491	-0.143
Mof_N 	N 	0.9574	0.2119	0.9669	-0.125
Mof_N 	N 	0.6079	0.7019	0.0919	-0.175
Mof_N 	N 	0.5551	0.6987	0.9964	-0.169
Mof_N 	N 	0.4921	0.6246	0.0535	-0.169
Mof_N 	N 	0.5364	0.6332	0.146	-0.144
Mof_N 	N 	0.6725	0.773	0.0356	-0.136
Mof_N 	N 	0.4421	0.6195	0.9651	-0.163
Mof_N 	N 	0.4034	0.2586	0.4922	-0.168
Mof_N 	N 	0.3456	0.2509	0.5865	-0.167
Mof_N 	N 	0.431	0.3361	0.5519	-0.172
Mof_N 	N 	0.4832	0.3428	0.4606	-0.146
Mof_N 	N 	0.3161	0.1793	0.53	-0.148
Mof_N 	N 	0.3788	0.3265	0.6401	-0.14
Mof_N 	N 	0.0689	0.657	0.5035	-0.174
Mof_N 	N 	0.1194	0.6793	0.4121	-0.168
Mof_N 	N 	0.1305	0.5867	0.4416	-0.171
Mof_N 	N 	0.0794	0.568	0.5299	-0.142
Mof_N 	N 	0.0407	0.7445	0.4724	-0.131
Mof_N 	N 	0.2001	0.6116	0.3559	-0.152
Mof_O 	O 	0.0536	0.3889	0.1996	-0.551
Mof_O 	O 	0.8108	0.383	0.1989	-0.461
Mof_O 	O 	0.8976	0.5031	0.7968	-0.458
Mof_O 	O 	0.687	0.4846	0.7548	-0.429
Mof_O 	O 	0.0091	0.0763	0.1076	-0.399
Mof_O 	O 	0.0247	0.1615	0.1304	-0.436
Mof_O 	O 	0.3715	0.4737	0.1624	-0.422
Mof_O 	O 	0.5055	0.4563	0.2343	-0.372
Mof_O 	O 	0.5959	0.9371	0.9338	-0.58
Mof_H 	H 	0.6111	0.9532	0.9052	0.329
Mof_O 	O 	0.7215	0.8731	0.8951	-0.482
Mof_O 	O 	0.725	0.5998	0.8017	-0.559
Mof_O 	O 	0.4911	0.5964	0.7958	-0.512
Mof_O 	O 	0.4114	0.3533	0.2916	-0.487
Mof_O 	O 	0.1809	0.3511	0.2979	-0.556
Mof_O 	O 	0.3901	0.0847	0.3896	-0.527
Mof_O 	O 	0.5205	0.0284	0.4347	-0.611
Mof_H 	H 	0.5178	0.0118	0.4057	0.337
Mof_O 	O 	0.3882	0.4969	0.7366	-0.393
Mof_O 	O 	0.4999	0.4894	0.6618	-0.442
Mof_O 	O 	0.8431	0.5712	0.7008	-0.563
Mof_O 	O 	0.0804	0.5688	0.7036	-0.462
Mof_O 	O 	0.0582	0.7909	0.6369	-0.439
Mof_O 	O 	0.087	0.8752	0.6135	-0.417
Mof_O 	O 	0.214	0.4645	0.2609	-0.431
Mof_O 	O 	0.9994	0.4492	0.2984	-0.446
_end
