data_functionalizedCrystal
_audit_creation_method	'EQeq! by Chris Wilmer'
_symmetry_space_group_name_H-M	'P1'
_symmetry_Int_Tables_number	1
_symmetry_cell_setting	triclinic
loop_
_symmetry_equiv_pos_as_xyz
  x,y,z
_cell_length_a	20.501
_cell_length_b	20.501
_cell_length_c	20.501
_cell_angle_alpha	90
_cell_angle_beta	90
_cell_angle_gamma	90
loop_
_atom_site_label
_atom_site_type_symbol
_atom_site_fract_x
_atom_site_fract_y
_atom_site_fract_z
_atom_site_charge
Mof_O 	O 	0.1334	0.8101	0.2425	-0.509
Mof_O 	O 	0.0587	0.8815	0.2117	-0.364
Mof_N 	N 	0.9963	0.6507	0.013	-0.257
Mof_H 	H 	0.959	0.6632	0.9959	0.162
Mof_N 	N 	0.9888	0.5745	0.932	-0.18
Mof_C 	C 	0.0865	0.8279	0.2073	0.4
Mof_C 	C 	0.0638	0.7806	0.1566	-0.203
Mof_C 	C 	0.0139	0.7959	0.1145	0.132
Mof_H 	H 	0.9941	0.8377	0.1169	-0.015
Mof_C 	C 	0.9921	0.7516	0.0689	-0.238
Mof_H 	H 	0.9569	0.7632	0.0411	0.109
Mof_C 	C 	0.0204	0.6907	0.0628	0.216
Mof_C 	C 	0.0716	0.6751	0.1048	-0.24
Mof_H 	H 	0.0919	0.6335	0.1019	0.121
Mof_C 	C 	0.0925	0.7184	0.1495	0.139
Mof_H 	H 	0.1277	0.7067	0.1773	-0.009
Mof_C 	C 	0.0223	0.5946	0.9868	0.188
Mof_O 	O 	0.3666	0.1899	0.7425	-0.508
Mof_O 	O 	0.4413	0.1185	0.7117	-0.363
Mof_N 	N 	0.5037	0.3493	0.513	-0.255
Mof_H 	H 	0.541	0.3368	0.4959	0.162
Mof_N 	N 	0.5112	0.4255	0.432	-0.18
Mof_C 	C 	0.4135	0.1721	0.7073	0.399
Mof_C 	C 	0.4362	0.2194	0.6566	-0.202
Mof_C 	C 	0.4861	0.2041	0.6145	0.13
Mof_H 	H 	0.5059	0.1623	0.6169	-0.014
Mof_C 	C 	0.5079	0.2484	0.5689	-0.236
Mof_H 	H 	0.5431	0.2368	0.5411	0.108
Mof_C 	C 	0.4796	0.3093	0.5628	0.215
Mof_C 	C 	0.4284	0.3249	0.6048	-0.239
Mof_H 	H 	0.4081	0.3665	0.6019	0.121
Mof_C 	C 	0.4075	0.2816	0.6495	0.138
Mof_H 	H 	0.3723	0.2933	0.6773	-0.009
Mof_C 	C 	0.4777	0.4054	0.4868	0.189
Mof_O 	O 	0.8666	0.3101	0.2575	-0.508
Mof_O 	O 	0.9413	0.3815	0.2883	-0.363
Mof_N 	N 	0.0037	0.1507	0.487	-0.255
Mof_H 	H 	0.041	0.1632	0.5041	0.162
Mof_N 	N 	0.0112	0.0745	0.568	-0.18
Mof_C 	C 	0.9135	0.3279	0.2927	0.399
Mof_C 	C 	0.9362	0.2806	0.3434	-0.201
Mof_C 	C 	0.9861	0.2959	0.3855	0.128
Mof_H 	H 	0.0059	0.3377	0.3831	-0.013
Mof_C 	C 	0.0079	0.2516	0.4311	-0.234
Mof_H 	H 	0.0431	0.2632	0.4589	0.107
Mof_C 	C 	0.9796	0.1907	0.4372	0.213
Mof_C 	C 	0.9284	0.1751	0.3952	-0.238
Mof_H 	H 	0.9081	0.1335	0.3981	0.12
Mof_C 	C 	0.9075	0.2184	0.3505	0.137
Mof_H 	H 	0.8723	0.2067	0.3227	-0.008
Mof_C 	C 	0.9777	0.0946	0.5132	0.188
Mof_O 	O 	0.6334	0.6899	0.7575	-0.508
Mof_O 	O 	0.5587	0.6185	0.7883	-0.363
Mof_N 	N 	0.4963	0.8493	0.987	-0.256
Mof_H 	H 	0.459	0.8368	0.0041	0.162
Mof_N 	N 	0.4888	0.9255	0.068	-0.18
Mof_C 	C 	0.5865	0.6721	0.7927	0.399
Mof_C 	C 	0.5638	0.7194	0.8434	-0.202
Mof_C 	C 	0.5139	0.7041	0.8855	0.13
Mof_H 	H 	0.4941	0.6623	0.8831	-0.014
Mof_C 	C 	0.4921	0.7484	0.9311	-0.236
Mof_H 	H 	0.4569	0.7368	0.9589	0.108
Mof_C 	C 	0.5204	0.8093	0.9372	0.215
Mof_C 	C 	0.5716	0.8249	0.8952	-0.239
Mof_H 	H 	0.5919	0.8665	0.8981	0.121
Mof_C 	C 	0.5925	0.7816	0.8505	0.138
Mof_H 	H 	0.6277	0.7933	0.8227	-0.009
Mof_C 	C 	0.5223	0.9054	0.0132	0.189
Mof_O 	O 	0.2425	0.1334	0.8101	-0.508
Mof_O 	O 	0.2117	0.0587	0.8815	-0.363
Mof_N 	N 	0.013	0.9963	0.6507	-0.256
Mof_H 	H 	0.9959	0.959	0.6632	0.162
Mof_N 	N 	0.932	0.9888	0.5745	-0.18
Mof_C 	C 	0.2073	0.0865	0.8279	0.4
Mof_C 	C 	0.1566	0.0638	0.7806	-0.203
Mof_C 	C 	0.1145	0.0139	0.7959	0.132
Mof_H 	H 	0.1169	0.9941	0.8377	-0.015
Mof_C 	C 	0.0689	0.9921	0.7516	-0.238
Mof_H 	H 	0.0411	0.9569	0.7632	0.109
Mof_C 	C 	0.0628	0.0204	0.6907	0.216
Mof_C 	C 	0.1048	0.0716	0.6751	-0.24
Mof_H 	H 	0.1019	0.0919	0.6335	0.121
Mof_C 	C 	0.1495	0.0925	0.7184	0.139
Mof_H 	H 	0.1773	0.1277	0.7067	-0.009
Mof_C 	C 	0.9868	0.0223	0.5946	0.188
Mof_O 	O 	0.7425	0.3666	0.1899	-0.508
Mof_O 	O 	0.7117	0.4413	0.1185	-0.363
Mof_N 	N 	0.513	0.5037	0.3493	-0.255
Mof_H 	H 	0.4959	0.541	0.3368	0.162
Mof_N 	N 	0.432	0.5112	0.4255	-0.18
Mof_C 	C 	0.7073	0.4135	0.1721	0.399
Mof_C 	C 	0.6566	0.4362	0.2194	-0.202
Mof_C 	C 	0.6145	0.4861	0.2041	0.13
Mof_H 	H 	0.6169	0.5059	0.1623	-0.014
Mof_C 	C 	0.5689	0.5079	0.2484	-0.236
Mof_H 	H 	0.5411	0.5431	0.2368	0.108
Mof_C 	C 	0.5628	0.4796	0.3093	0.215
Mof_C 	C 	0.6048	0.4284	0.3249	-0.239
Mof_H 	H 	0.6019	0.4081	0.3665	0.121
Mof_C 	C 	0.6495	0.4075	0.2816	0.138
Mof_H 	H 	0.6773	0.3723	0.2933	-0.009
Mof_C 	C 	0.4868	0.4777	0.4054	0.189
Mof_O 	O 	0.2575	0.8666	0.3101	-0.508
Mof_O 	O 	0.2883	0.9413	0.3815	-0.363
Mof_N 	N 	0.487	0.0037	0.1507	-0.255
Mof_H 	H 	0.5041	0.041	0.1632	0.162
Mof_N 	N 	0.568	0.0112	0.0745	-0.18
Mof_C 	C 	0.2927	0.9135	0.3279	0.399
Mof_C 	C 	0.3434	0.9362	0.2806	-0.201
Mof_C 	C 	0.3855	0.9861	0.2959	0.128
Mof_H 	H 	0.3831	0.0059	0.3377	-0.013
Mof_C 	C 	0.4311	0.0079	0.2516	-0.234
Mof_H 	H 	0.4589	0.0431	0.2632	0.107
Mof_C 	C 	0.4372	0.9796	0.1907	0.213
Mof_C 	C 	0.3952	0.9284	0.1751	-0.238
Mof_H 	H 	0.3981	0.9081	0.1335	0.12
Mof_C 	C 	0.3505	0.9075	0.2184	0.137
Mof_H 	H 	0.3227	0.8723	0.2067	-0.008
Mof_C 	C 	0.5132	0.9777	0.0946	0.188
Mof_O 	O 	0.7575	0.6334	0.6899	-0.508
Mof_O 	O 	0.7883	0.5587	0.6185	-0.363
Mof_N 	N 	0.987	0.4963	0.8493	-0.256
Mof_H 	H 	0.0041	0.459	0.8368	0.162
Mof_N 	N 	0.068	0.4888	0.9255	-0.18
Mof_C 	C 	0.7927	0.5865	0.6721	0.399
Mof_C 	C 	0.8434	0.5638	0.7194	-0.202
Mof_C 	C 	0.8855	0.5139	0.7041	0.13
Mof_H 	H 	0.8831	0.4941	0.6623	-0.014
Mof_C 	C 	0.9311	0.4921	0.7484	-0.236
Mof_H 	H 	0.9589	0.4569	0.7368	0.108
Mof_C 	C 	0.9372	0.5204	0.8093	0.215
Mof_C 	C 	0.8952	0.5716	0.8249	-0.239
Mof_H 	H 	0.8981	0.5919	0.8665	0.121
Mof_C 	C 	0.8505	0.5925	0.7816	0.138
Mof_H 	H 	0.8227	0.6277	0.7933	-0.009
Mof_C 	C 	0.0132	0.5223	0.9054	0.189
Mof_O 	O 	0.8101	0.2425	0.1334	-0.508
Mof_O 	O 	0.8815	0.2117	0.0587	-0.363
Mof_N 	N 	0.6507	0.013	0.9963	-0.256
Mof_H 	H 	0.6632	0.9959	0.959	0.162
Mof_N 	N 	0.5745	0.932	0.9888	-0.18
Mof_C 	C 	0.8279	0.2073	0.0865	0.4
Mof_C 	C 	0.7806	0.1566	0.0638	-0.203
Mof_C 	C 	0.7959	0.1145	0.0139	0.132
Mof_H 	H 	0.8377	0.1169	0.9941	-0.015
Mof_C 	C 	0.7516	0.0689	0.9921	-0.238
Mof_H 	H 	0.7632	0.0411	0.9569	0.109
Mof_C 	C 	0.6907	0.0628	0.0204	0.216
Mof_C 	C 	0.6751	0.1048	0.0716	-0.24
Mof_H 	H 	0.6335	0.1019	0.0919	0.121
Mof_C 	C 	0.7184	0.1495	0.0925	0.139
Mof_H 	H 	0.7067	0.1773	0.1277	-0.009
Mof_C 	C 	0.5946	0.9868	0.0223	0.188
Mof_O 	O 	0.1899	0.7425	0.3666	-0.508
Mof_O 	O 	0.1185	0.7117	0.4413	-0.363
Mof_N 	N 	0.3493	0.513	0.5037	-0.255
Mof_H 	H 	0.3368	0.4959	0.541	0.162
Mof_N 	N 	0.4255	0.432	0.5112	-0.18
Mof_C 	C 	0.1721	0.7073	0.4135	0.399
Mof_C 	C 	0.2194	0.6566	0.4362	-0.202
Mof_C 	C 	0.2041	0.6145	0.4861	0.13
Mof_H 	H 	0.1623	0.6169	0.5059	-0.014
Mof_C 	C 	0.2484	0.5689	0.5079	-0.236
Mof_H 	H 	0.2368	0.5411	0.5431	0.108
Mof_C 	C 	0.3093	0.5628	0.4796	0.215
Mof_C 	C 	0.3249	0.6048	0.4284	-0.239
Mof_H 	H 	0.3665	0.6019	0.4081	0.121
Mof_C 	C 	0.2816	0.6495	0.4075	0.138
Mof_H 	H 	0.2933	0.6773	0.3723	-0.009
Mof_C 	C 	0.4054	0.4868	0.4777	0.189
Mof_O 	O 	0.3101	0.2575	0.8666	-0.508
Mof_O 	O 	0.3815	0.2883	0.9413	-0.363
Mof_N 	N 	0.1507	0.487	0.0037	-0.255
Mof_H 	H 	0.1632	0.5041	0.041	0.162
Mof_N 	N 	0.0745	0.568	0.0112	-0.18
Mof_C 	C 	0.3279	0.2927	0.9135	0.399
Mof_C 	C 	0.2806	0.3434	0.9362	-0.201
Mof_C 	C 	0.2959	0.3855	0.9861	0.128
Mof_H 	H 	0.3377	0.3831	0.0059	-0.013
Mof_C 	C 	0.2516	0.4311	0.0079	-0.234
Mof_H 	H 	0.2632	0.4589	0.0431	0.107
Mof_C 	C 	0.1907	0.4372	0.9796	0.213
Mof_C 	C 	0.1751	0.3952	0.9284	-0.238
Mof_H 	H 	0.1335	0.3981	0.9081	0.12
Mof_C 	C 	0.2184	0.3505	0.9075	0.137
Mof_H 	H 	0.2067	0.3227	0.8723	-0.008
Mof_C 	C 	0.0946	0.5132	0.9777	0.188
Mof_O 	O 	0.6899	0.7575	0.6334	-0.508
Mof_O 	O 	0.6185	0.7883	0.5587	-0.363
Mof_N 	N 	0.8493	0.987	0.4963	-0.256
Mof_H 	H 	0.8368	0.0041	0.459	0.162
Mof_N 	N 	0.9255	0.068	0.4888	-0.18
Mof_C 	C 	0.6721	0.7927	0.5865	0.399
Mof_C 	C 	0.7194	0.8434	0.5638	-0.202
Mof_C 	C 	0.7041	0.8855	0.5139	0.13
Mof_H 	H 	0.6623	0.8831	0.4941	-0.014
Mof_C 	C 	0.7484	0.9311	0.4921	-0.236
Mof_H 	H 	0.7368	0.9589	0.4569	0.108
Mof_C 	C 	0.8093	0.9372	0.5204	0.215
Mof_C 	C 	0.8249	0.8952	0.5716	-0.239
Mof_H 	H 	0.8665	0.8981	0.5919	0.121
Mof_C 	C 	0.7816	0.8505	0.5925	0.138
Mof_H 	H 	0.7933	0.8227	0.6277	-0.009
Mof_C 	C 	0.9054	0.0132	0.5223	0.189
Mof_Eu	Eu	0.15433	0.84567	0.34567	1.641
Mof_Eu	Eu	0.34567	0.15433	0.84567	1.641
Mof_Eu	Eu	0.84567	0.34567	0.15433	1.641
Mof_Eu	Eu	0.65433	0.65433	0.65433	1.641
Mof_O 	O 	0.2353	0.6178	0.1804	-0.542
Mof_O 	O 	0.2086	0.5342	0.116	-0.351
Mof_N 	N 	0.0081	0.4901	0.3513	-0.254
Mof_H 	H 	0.9898	0.4527	0.3407	0.154
Mof_N 	N 	0.0117	0.5716	0.4294	-0.18
Mof_C 	C 	0.2017	0.5665	0.1666	0.418
Mof_C 	C 	0.1525	0.5475	0.2163	-0.214
Mof_C 	C 	0.1481	0.5797	0.2748	0.135
Mof_H 	H 	0.1775	0.6143	0.2842	-0.009
Mof_C 	C 	0.1005	0.5621	0.3211	-0.227
Mof_H 	H 	0.0973	0.5852	0.3612	0.12
Mof_C 	C 	0.0585	0.511	0.3079	0.207
Mof_C 	C 	0.0644	0.4789	0.2487	-0.241
Mof_H 	H 	0.0356	0.4438	0.2391	0.099
Mof_C 	C 	0.1095	0.4961	0.2045	0.14
Mof_H 	H 	0.1122	0.4728	0.1645	-0.02
Mof_C 	C 	0.984	0.5177	0.4048	0.195
Mof_O 	O 	0.2647	0.3822	0.6804	-0.542
Mof_O 	O 	0.2914	0.4658	0.616	-0.352
Mof_N 	N 	0.4919	0.5099	0.8513	-0.255
Mof_H 	H 	0.5102	0.5473	0.8407	0.154
Mof_N 	N 	0.4883	0.4284	0.9294	-0.18
Mof_C 	C 	0.2983	0.4335	0.6666	0.418
Mof_C 	C 	0.3475	0.4525	0.7163	-0.214
Mof_C 	C 	0.3519	0.4203	0.7748	0.135
Mof_H 	H 	0.3225	0.3857	0.7842	-0.009
Mof_C 	C 	0.3995	0.4379	0.8211	-0.227
Mof_H 	H 	0.4027	0.4148	0.8612	0.12
Mof_C 	C 	0.4415	0.489	0.8079	0.207
Mof_C 	C 	0.4356	0.5211	0.7487	-0.241
Mof_H 	H 	0.4644	0.5562	0.7391	0.098
Mof_C 	C 	0.3905	0.5039	0.7045	0.14
Mof_H 	H 	0.3878	0.5272	0.6645	-0.02
Mof_C 	C 	0.516	0.4823	0.9048	0.196
Mof_O 	O 	0.7647	0.1178	0.3196	-0.542
Mof_O 	O 	0.7914	0.0342	0.384	-0.352
Mof_N 	N 	0.9919	0.9901	0.1487	-0.255
Mof_H 	H 	0.0102	0.9527	0.1593	0.154
Mof_N 	N 	0.9883	0.0716	0.0706	-0.181
Mof_C 	C 	0.7983	0.0665	0.3334	0.418
Mof_C 	C 	0.8475	0.0475	0.2837	-0.214
Mof_C 	C 	0.8519	0.0797	0.2252	0.135
Mof_H 	H 	0.8225	0.1143	0.2158	-0.009
Mof_C 	C 	0.8995	0.0621	0.1789	-0.227
Mof_H 	H 	0.9027	0.0852	0.1388	0.12
Mof_C 	C 	0.9415	0.011	0.1921	0.207
Mof_C 	C 	0.9356	0.9789	0.2513	-0.241
Mof_H 	H 	0.9644	0.9438	0.2609	0.098
Mof_C 	C 	0.8905	0.9961	0.2955	0.139
Mof_H 	H 	0.8878	0.9728	0.3355	-0.02
Mof_C 	C 	0.016	0.0177	0.0952	0.197
Mof_O 	O 	0.7353	0.8822	0.8196	-0.542
Mof_O 	O 	0.7086	0.9658	0.884	-0.352
Mof_N 	N 	0.5081	0.0099	0.6487	-0.254
Mof_H 	H 	0.4898	0.0473	0.6593	0.154
Mof_N 	N 	0.5117	0.9284	0.5706	-0.18
Mof_C 	C 	0.7017	0.9335	0.8334	0.418
Mof_C 	C 	0.6525	0.9525	0.7837	-0.214
Mof_C 	C 	0.6481	0.9203	0.7252	0.135
Mof_H 	H 	0.6775	0.8857	0.7158	-0.009
Mof_C 	C 	0.6005	0.9379	0.6789	-0.227
Mof_H 	H 	0.5973	0.9148	0.6388	0.12
Mof_C 	C 	0.5585	0.989	0.6921	0.207
Mof_C 	C 	0.5644	0.0211	0.7513	-0.24
Mof_H 	H 	0.5356	0.0562	0.7609	0.098
Mof_C 	C 	0.6095	0.0039	0.7955	0.139
Mof_H 	H 	0.6122	0.0272	0.8355	-0.02
Mof_C 	C 	0.484	0.9823	0.5952	0.195
Mof_O 	O 	0.1804	0.2353	0.6178	-0.542
Mof_O 	O 	0.116	0.2086	0.5342	-0.351
Mof_N 	N 	0.3513	0.0081	0.4901	-0.254
Mof_H 	H 	0.3407	0.9898	0.4527	0.154
Mof_N 	N 	0.4294	0.0117	0.5716	-0.18
Mof_C 	C 	0.1666	0.2017	0.5665	0.418
Mof_C 	C 	0.2163	0.1525	0.5475	-0.214
Mof_C 	C 	0.2748	0.1481	0.5797	0.135
Mof_H 	H 	0.2842	0.1775	0.6143	-0.009
Mof_C 	C 	0.3211	0.1005	0.5621	-0.227
Mof_H 	H 	0.3612	0.0973	0.5852	0.12
Mof_C 	C 	0.3079	0.0585	0.511	0.207
Mof_C 	C 	0.2487	0.0644	0.4789	-0.241
Mof_H 	H 	0.2391	0.0356	0.4438	0.099
Mof_C 	C 	0.2045	0.1095	0.4961	0.14
Mof_H 	H 	0.1645	0.1122	0.4728	-0.02
Mof_C 	C 	0.4048	0.984	0.5177	0.195
Mof_O 	O 	0.6804	0.2647	0.3822	-0.542
Mof_O 	O 	0.616	0.2914	0.4658	-0.352
Mof_N 	N 	0.8513	0.4919	0.5099	-0.255
Mof_H 	H 	0.8407	0.5102	0.5473	0.154
Mof_N 	N 	0.9294	0.4883	0.4284	-0.18
Mof_C 	C 	0.6666	0.2983	0.4335	0.418
Mof_C 	C 	0.7163	0.3475	0.4525	-0.214
Mof_C 	C 	0.7748	0.3519	0.4203	0.135
Mof_H 	H 	0.7842	0.3225	0.3857	-0.009
Mof_C 	C 	0.8211	0.3995	0.4379	-0.227
Mof_H 	H 	0.8612	0.4027	0.4148	0.12
Mof_C 	C 	0.8079	0.4415	0.489	0.207
Mof_C 	C 	0.7487	0.4356	0.5211	-0.241
Mof_H 	H 	0.7391	0.4644	0.5562	0.098
Mof_C 	C 	0.7045	0.3905	0.5039	0.14
Mof_H 	H 	0.6645	0.3878	0.5272	-0.02
Mof_C 	C 	0.9048	0.516	0.4823	0.196
Mof_O 	O 	0.3196	0.7647	0.1178	-0.542
Mof_O 	O 	0.384	0.7914	0.0342	-0.352
Mof_N 	N 	0.1487	0.9919	0.9901	-0.255
Mof_H 	H 	0.1593	0.0102	0.9527	0.154
Mof_N 	N 	0.0706	0.9883	0.0716	-0.181
Mof_C 	C 	0.3334	0.7983	0.0665	0.418
Mof_C 	C 	0.2837	0.8475	0.0475	-0.214
Mof_C 	C 	0.2252	0.8519	0.0797	0.135
Mof_H 	H 	0.2158	0.8225	0.1143	-0.009
Mof_C 	C 	0.1789	0.8995	0.0621	-0.227
Mof_H 	H 	0.1388	0.9027	0.0852	0.12
Mof_C 	C 	0.1921	0.9415	0.011	0.207
Mof_C 	C 	0.2513	0.9356	0.9789	-0.241
Mof_H 	H 	0.2609	0.9644	0.9438	0.098
Mof_C 	C 	0.2955	0.8905	0.9961	0.139
Mof_H 	H 	0.3355	0.8878	0.9728	-0.02
Mof_C 	C 	0.0952	0.016	0.0177	0.197
Mof_O 	O 	0.8196	0.7353	0.8822	-0.542
Mof_O 	O 	0.884	0.7086	0.9658	-0.352
Mof_N 	N 	0.6487	0.5081	0.0099	-0.254
Mof_H 	H 	0.6593	0.4898	0.0473	0.154
Mof_N 	N 	0.5706	0.5117	0.9284	-0.18
Mof_C 	C 	0.8334	0.7017	0.9335	0.418
Mof_C 	C 	0.7837	0.6525	0.9525	-0.214
Mof_C 	C 	0.7252	0.6481	0.9203	0.135
Mof_H 	H 	0.7158	0.6775	0.8857	-0.009
Mof_C 	C 	0.6789	0.6005	0.9379	-0.227
Mof_H 	H 	0.6388	0.5973	0.9148	0.12
Mof_C 	C 	0.6921	0.5585	0.989	0.207
Mof_C 	C 	0.7513	0.5644	0.0211	-0.24
Mof_H 	H 	0.7609	0.5356	0.0562	0.098
Mof_C 	C 	0.7955	0.6095	0.0039	0.139
Mof_H 	H 	0.8355	0.6122	0.0272	-0.02
Mof_C 	C 	0.5952	0.484	0.9823	0.195
Mof_O 	O 	0.6178	0.1804	0.2353	-0.542
Mof_O 	O 	0.5342	0.116	0.2086	-0.351
Mof_N 	N 	0.4901	0.3513	0.0081	-0.254
Mof_H 	H 	0.4527	0.3407	0.9898	0.154
Mof_N 	N 	0.5716	0.4294	0.0117	-0.18
Mof_C 	C 	0.5665	0.1666	0.2017	0.418
Mof_C 	C 	0.5475	0.2163	0.1525	-0.214
Mof_C 	C 	0.5797	0.2748	0.1481	0.135
Mof_H 	H 	0.6143	0.2842	0.1775	-0.009
Mof_C 	C 	0.5621	0.3211	0.1005	-0.227
Mof_H 	H 	0.5852	0.3612	0.0973	0.12
Mof_C 	C 	0.511	0.3079	0.0585	0.207
Mof_C 	C 	0.4789	0.2487	0.0644	-0.241
Mof_H 	H 	0.4438	0.2391	0.0356	0.099
Mof_C 	C 	0.4961	0.2045	0.1095	0.14
Mof_H 	H 	0.4728	0.1645	0.1122	-0.02
Mof_C 	C 	0.5177	0.4048	0.984	0.195
Mof_O 	O 	0.3822	0.6804	0.2647	-0.542
Mof_O 	O 	0.4658	0.616	0.2914	-0.352
Mof_N 	N 	0.5099	0.8513	0.4919	-0.255
Mof_H 	H 	0.5473	0.8407	0.5102	0.154
Mof_N 	N 	0.4284	0.9294	0.4883	-0.18
Mof_C 	C 	0.4335	0.6666	0.2983	0.418
Mof_C 	C 	0.4525	0.7163	0.3475	-0.214
Mof_C 	C 	0.4203	0.7748	0.3519	0.135
Mof_H 	H 	0.3857	0.7842	0.3225	-0.009
Mof_C 	C 	0.4379	0.8211	0.3995	-0.227
Mof_H 	H 	0.4148	0.8612	0.4027	0.12
Mof_C 	C 	0.489	0.8079	0.4415	0.207
Mof_C 	C 	0.5211	0.7487	0.4356	-0.241
Mof_H 	H 	0.5562	0.7391	0.4644	0.098
Mof_C 	C 	0.5039	0.7045	0.3905	0.14
Mof_H 	H 	0.5272	0.6645	0.3878	-0.02
Mof_C 	C 	0.4823	0.9048	0.516	0.196
Mof_O 	O 	0.1178	0.3196	0.7647	-0.542
Mof_O 	O 	0.0342	0.384	0.7914	-0.352
Mof_N 	N 	0.9901	0.1487	0.9919	-0.255
Mof_H 	H 	0.9527	0.1593	0.0102	0.154
Mof_N 	N 	0.0716	0.0706	0.9883	-0.181
Mof_C 	C 	0.0665	0.3334	0.7983	0.418
Mof_C 	C 	0.0475	0.2837	0.8475	-0.214
Mof_C 	C 	0.0797	0.2252	0.8519	0.135
Mof_H 	H 	0.1143	0.2158	0.8225	-0.009
Mof_C 	C 	0.0621	0.1789	0.8995	-0.227
Mof_H 	H 	0.0852	0.1388	0.9027	0.12
Mof_C 	C 	0.011	0.1921	0.9415	0.207
Mof_C 	C 	0.9789	0.2513	0.9356	-0.241
Mof_H 	H 	0.9438	0.2609	0.9644	0.098
Mof_C 	C 	0.9961	0.2955	0.8905	0.139
Mof_H 	H 	0.9728	0.3355	0.8878	-0.02
Mof_C 	C 	0.0177	0.0952	0.016	0.197
Mof_O 	O 	0.8822	0.8196	0.7353	-0.542
Mof_O 	O 	0.9658	0.884	0.7086	-0.352
Mof_N 	N 	0.0099	0.6487	0.5081	-0.254
Mof_H 	H 	0.0473	0.6593	0.4898	0.154
Mof_N 	N 	0.9284	0.5706	0.5117	-0.18
Mof_C 	C 	0.9335	0.8334	0.7017	0.418
Mof_C 	C 	0.9525	0.7837	0.6525	-0.214
Mof_C 	C 	0.9203	0.7252	0.6481	0.135
Mof_H 	H 	0.8857	0.7158	0.6775	-0.009
Mof_C 	C 	0.9379	0.6789	0.6005	-0.227
Mof_H 	H 	0.9148	0.6388	0.5973	0.12
Mof_C 	C 	0.989	0.6921	0.5585	0.207
Mof_C 	C 	0.0211	0.7513	0.5644	-0.24
Mof_H 	H 	0.0562	0.7609	0.5356	0.098
Mof_C 	C 	0.0039	0.7955	0.6095	0.139
Mof_H 	H 	0.0272	0.8355	0.6122	-0.02
Mof_C 	C 	0.9823	0.5952	0.484	0.195
Mof_Eu	Eu	0.3339	0.6661	0.1661	1.71
Mof_Eu	Eu	0.1661	0.3339	0.6661	1.71
Mof_Eu	Eu	0.6661	0.1661	0.3339	1.71
Mof_Eu	Eu	0.8339	0.8339	0.8339	1.71
_end
