data_functionalizedCrystal
_audit_creation_method	'EQeq! by Chris Wilmer'
_symmetry_space_group_name_H-M	'P1'
_symmetry_Int_Tables_number	1
_symmetry_cell_setting	triclinic
loop_
_symmetry_equiv_pos_as_xyz
  x,y,z
_cell_length_a	23.9647
_cell_length_b	23.9647
_cell_length_c	23.9647
_cell_angle_alpha	90
_cell_angle_beta	90
_cell_angle_gamma	90
loop_
_atom_site_label
_atom_site_type_symbol
_atom_site_fract_x
_atom_site_fract_y
_atom_site_fract_z
_atom_site_charge
Mof_C 	C 	0.8906	0.6107	0.2483	-0.068
Mof_C 	C 	0.9403	0.6458	0.2692	0.154
Mof_H 	H 	0.9637	0.6556	0.2376	0.006
Mof_H 	H 	0.9263	0.6802	0.2853	0.009
Mof_O 	O 	0.9697	0.6207	0.3053	-0.299
Mof_C 	C 	0.0264	0.6267	0.3117	0.332
Mof_C 	C 	0.0553	0.5815	0.3296	-0.304
Mof_H 	H 	0.037	0.5479	0.3364	0.149
Mof_C 	C 	0.1148	0.5861	0.3381	0.192
Mof_H 	H 	0.1352	0.5551	0.3493	-0.019
Mof_C 	C 	0.1411	0.6357	0.3299	-0.248
Mof_C 	C 	0.1122	0.6811	0.3106	0.171
Mof_H 	H 	0.1304	0.7147	0.304	-0.012
Mof_C 	C 	0.0511	0.6759	0.3005	-0.296
Mof_H 	H 	0.0305	0.7058	0.2867	0.14
Mof_C 	C 	0.2025	0.6388	0.3332	0.495
Mof_O 	O 	0.2254	0.5972	0.3531	-0.539
Mof_O 	O 	0.2246	0.6824	0.3191	-0.545
Mof_C 	C 	0.9122	0.5608	0.2155	0.137
Mof_H 	H 	0.9333	0.5736	0.1834	0.011
Mof_H 	H 	0.9368	0.5387	0.2388	-0.001
Mof_O 	O 	0.8703	0.53	0.1986	-0.299
Mof_C 	C 	0.8695	0.4746	0.1878	0.349
Mof_C 	C 	0.9156	0.4477	0.1717	-0.32
Mof_H 	H 	0.9497	0.466	0.1696	0.148
Mof_C 	C 	0.9106	0.389	0.1577	0.186
Mof_H 	H 	0.9399	0.3709	0.1398	-0.016
Mof_C 	C 	0.8629	0.3597	0.1708	-0.241
Mof_C 	C 	0.8181	0.388	0.1897	0.187
Mof_H 	H 	0.7847	0.3691	0.1959	-0.017
Mof_C 	C 	0.8212	0.4474	0.2005	-0.31
Mof_H 	H 	0.7911	0.4665	0.2158	0.149
Mof_C 	C 	0.862	0.2971	0.1652	0.477
Mof_O 	O 	0.9017	0.2743	0.1468	-0.554
Mof_O 	O 	0.8155	0.2753	0.1806	-0.519
Mof_C 	C 	0.8578	0.6506	0.2051	0.08
Mof_H 	H 	0.8289	0.6305	0.1851	0.025
Mof_H 	H 	0.8416	0.6827	0.2237	0.022
Mof_O 	O 	0.9001	0.6652	0.1712	-0.252
Mof_C 	C 	0.8857	0.6994	0.1269	0.24
Mof_C 	C 	0.833	0.7184	0.1189	-0.202
Mof_H 	H 	0.8049	0.7124	0.1451	0.109
Mof_C 	C 	0.8223	0.7498	0.0649	0.061
Mof_H 	H 	0.7863	0.7555	0.0514	0.024
Mof_C 	C 	0.8683	0.7694	0.0371	-0.09
Mof_C 	C 	0.9215	0.7499	0.0463	0.053
Mof_H 	H 	0.9502	0.7573	0.0213	0.033
Mof_C 	C 	0.9313	0.7172	0.0966	-0.192
Mof_H 	H 	0.9674	0.7085	0.108	0.114
Mof_C 	C 	0.8696	0.802	0.9829	0.259
Mof_O 	O 	0.9138	0.8029	0.9548	-0.47
Mof_O 	O 	0.8178	0.8306	0.9813	-0.438
Mof_C 	C 	0.8509	0.5927	0.2927	0.07
Mof_H 	H 	0.8221	0.5688	0.2773	0.027
Mof_H 	H 	0.8704	0.5724	0.3218	0.024
Mof_O 	O 	0.8278	0.6415	0.3138	-0.242
Mof_C 	C 	0.8006	0.6347	0.3652	0.231
Mof_C 	C 	0.7744	0.6814	0.3852	-0.183
Mof_H 	H 	0.777	0.715	0.366	0.111
Mof_C 	C 	0.742	0.6775	0.4378	0.042
Mof_H 	H 	0.726	0.7093	0.4533	0.037
Mof_C 	C 	0.7357	0.6267	0.4636	-0.067
Mof_C 	C 	0.7566	0.5782	0.4395	0.047
Mof_H 	H 	0.7484	0.5433	0.4544	0.03
Mof_C 	C 	0.793	0.5843	0.3885	-0.194
Mof_H 	H 	0.8102	0.5531	0.3732	0.107
Mof_C 	C 	0.7037	0.631	0.518	0.196
Mof_O 	O 	0.6991	0.5844	0.5487	-0.448
Mof_O 	O 	0.6672	0.6813	0.5178	-0.415
Mof_Zn	Zn	0.30362	0.58752	0.37162	1.208
Mof_Zn	Zn	0.08743	0.80379	0.12868	1.204
Mof_C 	C 	0.1094	0.3893	0.2483	-0.069
Mof_C 	C 	0.0597	0.3542	0.2692	0.153
Mof_H 	H 	0.0363	0.3444	0.2376	0.005
Mof_H 	H 	0.0737	0.3198	0.2853	0.008
Mof_O 	O 	0.0303	0.3793	0.3053	-0.299
Mof_C 	C 	0.9736	0.3733	0.3117	0.332
Mof_C 	C 	0.9447	0.4185	0.3296	-0.304
Mof_H 	H 	0.963	0.4521	0.3364	0.149
Mof_C 	C 	0.8852	0.4139	0.3381	0.192
Mof_H 	H 	0.8648	0.4449	0.3493	-0.019
Mof_C 	C 	0.8589	0.3643	0.3299	-0.248
Mof_C 	C 	0.8878	0.3189	0.3106	0.171
Mof_H 	H 	0.8696	0.2853	0.304	-0.012
Mof_C 	C 	0.9489	0.3241	0.3005	-0.296
Mof_H 	H 	0.9695	0.2942	0.2867	0.14
Mof_C 	C 	0.7975	0.3612	0.3332	0.495
Mof_O 	O 	0.7746	0.4028	0.3531	-0.539
Mof_O 	O 	0.7754	0.3176	0.3191	-0.545
Mof_C 	C 	0.0878	0.4392	0.2155	0.137
Mof_H 	H 	0.0667	0.4264	0.1834	0.011
Mof_H 	H 	0.0632	0.4613	0.2388	-0.001
Mof_O 	O 	0.1297	0.47	0.1986	-0.299
Mof_C 	C 	0.1305	0.5254	0.1878	0.349
Mof_C 	C 	0.0844	0.5523	0.1717	-0.32
Mof_H 	H 	0.0503	0.534	0.1696	0.148
Mof_C 	C 	0.0894	0.611	0.1577	0.186
Mof_H 	H 	0.0601	0.6291	0.1398	-0.016
Mof_C 	C 	0.1371	0.6403	0.1708	-0.241
Mof_C 	C 	0.1819	0.612	0.1897	0.187
Mof_H 	H 	0.2153	0.6309	0.1959	-0.017
Mof_C 	C 	0.1788	0.5526	0.2005	-0.31
Mof_H 	H 	0.2089	0.5335	0.2158	0.149
Mof_C 	C 	0.138	0.7029	0.1652	0.477
Mof_O 	O 	0.0983	0.7257	0.1468	-0.554
Mof_O 	O 	0.1845	0.7247	0.1806	-0.519
Mof_C 	C 	0.1422	0.3494	0.2051	0.08
Mof_H 	H 	0.1711	0.3695	0.1851	0.025
Mof_H 	H 	0.1584	0.3173	0.2237	0.022
Mof_O 	O 	0.0999	0.3348	0.1712	-0.252
Mof_C 	C 	0.1143	0.3006	0.1269	0.24
Mof_C 	C 	0.167	0.2816	0.1189	-0.202
Mof_H 	H 	0.1951	0.2876	0.1451	0.109
Mof_C 	C 	0.1777	0.2502	0.0649	0.061
Mof_H 	H 	0.2137	0.2445	0.0514	0.024
Mof_C 	C 	0.1317	0.2306	0.0371	-0.09
Mof_C 	C 	0.0785	0.2501	0.0463	0.053
Mof_H 	H 	0.0498	0.2427	0.0213	0.033
Mof_C 	C 	0.0687	0.2828	0.0966	-0.192
Mof_H 	H 	0.0326	0.2915	0.108	0.114
Mof_C 	C 	0.1304	0.198	0.9829	0.259
Mof_O 	O 	0.0862	0.1971	0.9548	-0.47
Mof_O 	O 	0.1822	0.1694	0.9813	-0.438
Mof_C 	C 	0.1491	0.4073	0.2927	0.07
Mof_H 	H 	0.1779	0.4312	0.2773	0.027
Mof_H 	H 	0.1296	0.4276	0.3218	0.024
Mof_O 	O 	0.1722	0.3585	0.3138	-0.242
Mof_C 	C 	0.1994	0.3653	0.3652	0.231
Mof_C 	C 	0.2256	0.3186	0.3852	-0.183
Mof_H 	H 	0.223	0.285	0.366	0.111
Mof_C 	C 	0.258	0.3225	0.4378	0.042
Mof_H 	H 	0.274	0.2907	0.4533	0.037
Mof_C 	C 	0.2643	0.3733	0.4636	-0.067
Mof_C 	C 	0.2434	0.4218	0.4395	0.047
Mof_H 	H 	0.2516	0.4567	0.4544	0.03
Mof_C 	C 	0.207	0.4157	0.3885	-0.194
Mof_H 	H 	0.1898	0.4469	0.3732	0.107
Mof_C 	C 	0.2963	0.369	0.518	0.196
Mof_O 	O 	0.3009	0.4156	0.5487	-0.448
Mof_O 	O 	0.3328	0.3187	0.5178	-0.415
Mof_Zn	Zn	0.69638	0.41248	0.37162	1.208
Mof_Zn	Zn	0.91257	0.19621	0.12868	1.204
Mof_C 	C 	0.1094	0.6107	0.7517	-0.069
Mof_C 	C 	0.0597	0.6458	0.7308	0.153
Mof_H 	H 	0.0363	0.6556	0.7624	0.005
Mof_H 	H 	0.0737	0.6802	0.7147	0.008
Mof_O 	O 	0.0303	0.6207	0.6947	-0.299
Mof_C 	C 	0.9736	0.6267	0.6883	0.332
Mof_C 	C 	0.9447	0.5815	0.6704	-0.304
Mof_H 	H 	0.963	0.5479	0.6636	0.149
Mof_C 	C 	0.8852	0.5861	0.6619	0.192
Mof_H 	H 	0.8648	0.5551	0.6507	-0.019
Mof_C 	C 	0.8589	0.6357	0.6701	-0.248
Mof_C 	C 	0.8878	0.6811	0.6894	0.171
Mof_H 	H 	0.8696	0.7147	0.696	-0.012
Mof_C 	C 	0.9489	0.6759	0.6995	-0.296
Mof_H 	H 	0.9695	0.7058	0.7133	0.14
Mof_C 	C 	0.7975	0.6388	0.6668	0.495
Mof_O 	O 	0.7746	0.5972	0.6469	-0.539
Mof_O 	O 	0.7754	0.6824	0.6809	-0.545
Mof_C 	C 	0.0878	0.5608	0.7845	0.137
Mof_H 	H 	0.0667	0.5736	0.8166	0.011
Mof_H 	H 	0.0632	0.5387	0.7612	-0.001
Mof_O 	O 	0.1297	0.53	0.8014	-0.299
Mof_C 	C 	0.1305	0.4746	0.8122	0.349
Mof_C 	C 	0.0844	0.4477	0.8283	-0.32
Mof_H 	H 	0.0503	0.466	0.8304	0.148
Mof_C 	C 	0.0894	0.389	0.8423	0.186
Mof_H 	H 	0.0601	0.3709	0.8602	-0.016
Mof_C 	C 	0.1371	0.3597	0.8292	-0.241
Mof_C 	C 	0.1819	0.388	0.8103	0.187
Mof_H 	H 	0.2153	0.3691	0.8041	-0.017
Mof_C 	C 	0.1788	0.4474	0.7995	-0.31
Mof_H 	H 	0.2089	0.4665	0.7842	0.149
Mof_C 	C 	0.138	0.2971	0.8348	0.477
Mof_O 	O 	0.0983	0.2743	0.8532	-0.554
Mof_O 	O 	0.1845	0.2753	0.8194	-0.519
Mof_C 	C 	0.1422	0.6506	0.7949	0.08
Mof_H 	H 	0.1711	0.6305	0.8149	0.025
Mof_H 	H 	0.1584	0.6827	0.7763	0.022
Mof_O 	O 	0.0999	0.6652	0.8288	-0.252
Mof_C 	C 	0.1143	0.6994	0.8731	0.24
Mof_C 	C 	0.167	0.7184	0.8811	-0.202
Mof_H 	H 	0.1951	0.7124	0.8549	0.109
Mof_C 	C 	0.1777	0.7498	0.9351	0.061
Mof_H 	H 	0.2137	0.7555	0.9486	0.024
Mof_C 	C 	0.1317	0.7694	0.9629	-0.09
Mof_C 	C 	0.0785	0.7499	0.9537	0.053
Mof_H 	H 	0.0498	0.7573	0.9787	0.033
Mof_C 	C 	0.0687	0.7172	0.9034	-0.192
Mof_H 	H 	0.0326	0.7085	0.892	0.114
Mof_C 	C 	0.1304	0.802	0.0171	0.259
Mof_O 	O 	0.0862	0.8029	0.0452	-0.47
Mof_O 	O 	0.1822	0.8306	0.0187	-0.438
Mof_C 	C 	0.1491	0.5927	0.7073	0.07
Mof_H 	H 	0.1779	0.5688	0.7227	0.027
Mof_H 	H 	0.1296	0.5724	0.6782	0.024
Mof_O 	O 	0.1722	0.6415	0.6862	-0.242
Mof_C 	C 	0.1994	0.6347	0.6348	0.231
Mof_C 	C 	0.2256	0.6814	0.6148	-0.183
Mof_H 	H 	0.223	0.715	0.634	0.111
Mof_C 	C 	0.258	0.6775	0.5622	0.042
Mof_H 	H 	0.274	0.7093	0.5467	0.037
Mof_C 	C 	0.2643	0.6267	0.5364	-0.067
Mof_C 	C 	0.2434	0.5782	0.5605	0.047
Mof_H 	H 	0.2516	0.5433	0.5456	0.03
Mof_C 	C 	0.207	0.5843	0.6115	-0.194
Mof_H 	H 	0.1898	0.5531	0.6268	0.107
Mof_C 	C 	0.2963	0.631	0.482	0.196
Mof_O 	O 	0.3009	0.5844	0.4513	-0.448
Mof_O 	O 	0.3328	0.6813	0.4822	-0.415
Mof_Zn	Zn	0.69638	0.58752	0.62838	1.208
Mof_Zn	Zn	0.91257	0.80379	0.87132	1.204
Mof_C 	C 	0.8906	0.3893	0.7517	-0.069
Mof_C 	C 	0.9403	0.3542	0.7308	0.153
Mof_H 	H 	0.9637	0.3444	0.7624	0.005
Mof_H 	H 	0.9263	0.3198	0.7147	0.008
Mof_O 	O 	0.9697	0.3793	0.6947	-0.299
Mof_C 	C 	0.0264	0.3733	0.6883	0.332
Mof_C 	C 	0.0553	0.4185	0.6704	-0.304
Mof_H 	H 	0.037	0.4521	0.6636	0.149
Mof_C 	C 	0.1148	0.4139	0.6619	0.192
Mof_H 	H 	0.1352	0.4449	0.6507	-0.019
Mof_C 	C 	0.1411	0.3643	0.6701	-0.248
Mof_C 	C 	0.1122	0.3189	0.6894	0.171
Mof_H 	H 	0.1304	0.2853	0.696	-0.012
Mof_C 	C 	0.0511	0.3241	0.6995	-0.296
Mof_H 	H 	0.0305	0.2942	0.7133	0.14
Mof_C 	C 	0.2025	0.3612	0.6668	0.495
Mof_O 	O 	0.2254	0.4028	0.6469	-0.539
Mof_O 	O 	0.2246	0.3176	0.6809	-0.545
Mof_C 	C 	0.9122	0.4392	0.7845	0.137
Mof_H 	H 	0.9333	0.4264	0.8166	0.011
Mof_H 	H 	0.9368	0.4613	0.7612	-0.001
Mof_O 	O 	0.8703	0.47	0.8014	-0.299
Mof_C 	C 	0.8695	0.5254	0.8122	0.349
Mof_C 	C 	0.9156	0.5523	0.8283	-0.32
Mof_H 	H 	0.9497	0.534	0.8304	0.148
Mof_C 	C 	0.9106	0.611	0.8423	0.186
Mof_H 	H 	0.9399	0.6291	0.8602	-0.016
Mof_C 	C 	0.8629	0.6403	0.8292	-0.241
Mof_C 	C 	0.8181	0.612	0.8103	0.187
Mof_H 	H 	0.7847	0.6309	0.8041	-0.017
Mof_C 	C 	0.8212	0.5526	0.7995	-0.31
Mof_H 	H 	0.7911	0.5335	0.7842	0.149
Mof_C 	C 	0.862	0.7029	0.8348	0.477
Mof_O 	O 	0.9017	0.7257	0.8532	-0.554
Mof_O 	O 	0.8155	0.7247	0.8194	-0.519
Mof_C 	C 	0.8578	0.3494	0.7949	0.08
Mof_H 	H 	0.8289	0.3695	0.8149	0.025
Mof_H 	H 	0.8416	0.3173	0.7763	0.022
Mof_O 	O 	0.9001	0.3348	0.8288	-0.252
Mof_C 	C 	0.8857	0.3006	0.8731	0.24
Mof_C 	C 	0.833	0.2816	0.8811	-0.202
Mof_H 	H 	0.8049	0.2876	0.8549	0.109
Mof_C 	C 	0.8223	0.2502	0.9351	0.061
Mof_H 	H 	0.7863	0.2445	0.9486	0.024
Mof_C 	C 	0.8683	0.2306	0.9629	-0.09
Mof_C 	C 	0.9215	0.2501	0.9537	0.053
Mof_H 	H 	0.9502	0.2427	0.9787	0.033
Mof_C 	C 	0.9313	0.2828	0.9034	-0.192
Mof_H 	H 	0.9674	0.2915	0.892	0.114
Mof_C 	C 	0.8696	0.198	0.0171	0.259
Mof_O 	O 	0.9138	0.1971	0.0452	-0.47
Mof_O 	O 	0.8178	0.1694	0.0187	-0.438
Mof_C 	C 	0.8509	0.4073	0.7073	0.07
Mof_H 	H 	0.8221	0.4312	0.7227	0.027
Mof_H 	H 	0.8704	0.4276	0.6782	0.024
Mof_O 	O 	0.8278	0.3585	0.6862	-0.242
Mof_C 	C 	0.8006	0.3653	0.6348	0.231
Mof_C 	C 	0.7744	0.3186	0.6148	-0.183
Mof_H 	H 	0.777	0.285	0.634	0.111
Mof_C 	C 	0.742	0.3225	0.5622	0.042
Mof_H 	H 	0.726	0.2907	0.5467	0.037
Mof_C 	C 	0.7357	0.3733	0.5364	-0.067
Mof_C 	C 	0.7566	0.4218	0.5605	0.047
Mof_H 	H 	0.7484	0.4567	0.5456	0.03
Mof_C 	C 	0.793	0.4157	0.6115	-0.194
Mof_H 	H 	0.8102	0.4469	0.6268	0.107
Mof_C 	C 	0.7037	0.369	0.482	0.196
Mof_O 	O 	0.6991	0.4156	0.4513	-0.448
Mof_O 	O 	0.6672	0.3187	0.4822	-0.415
Mof_Zn	Zn	0.30362	0.41248	0.62838	1.208
Mof_Zn	Zn	0.08743	0.19621	0.87132	1.204
Mof_C 	C 	0.2483	0.8906	0.6107	-0.069
Mof_C 	C 	0.2692	0.9403	0.6458	0.153
Mof_H 	H 	0.2376	0.9637	0.6556	0.005
Mof_H 	H 	0.2853	0.9263	0.6802	0.008
Mof_O 	O 	0.3053	0.9697	0.6207	-0.299
Mof_C 	C 	0.3117	0.0264	0.6267	0.332
Mof_C 	C 	0.3296	0.0553	0.5815	-0.304
Mof_H 	H 	0.3364	0.037	0.5479	0.149
Mof_C 	C 	0.3381	0.1148	0.5861	0.192
Mof_H 	H 	0.3493	0.1352	0.5551	-0.019
Mof_C 	C 	0.3299	0.1411	0.6357	-0.248
Mof_C 	C 	0.3106	0.1122	0.6811	0.171
Mof_H 	H 	0.304	0.1304	0.7147	-0.012
Mof_C 	C 	0.3005	0.0511	0.6759	-0.296
Mof_H 	H 	0.2867	0.0305	0.7058	0.14
Mof_C 	C 	0.3332	0.2025	0.6388	0.495
Mof_O 	O 	0.3531	0.2254	0.5972	-0.539
Mof_O 	O 	0.3191	0.2246	0.6824	-0.545
Mof_C 	C 	0.2155	0.9122	0.5608	0.137
Mof_H 	H 	0.1834	0.9333	0.5736	0.011
Mof_H 	H 	0.2388	0.9368	0.5387	-0.001
Mof_O 	O 	0.1986	0.8703	0.53	-0.299
Mof_C 	C 	0.1878	0.8695	0.4746	0.349
Mof_C 	C 	0.1717	0.9156	0.4477	-0.32
Mof_H 	H 	0.1696	0.9497	0.466	0.148
Mof_C 	C 	0.1577	0.9106	0.389	0.186
Mof_H 	H 	0.1398	0.9399	0.3709	-0.016
Mof_C 	C 	0.1708	0.8629	0.3597	-0.241
Mof_C 	C 	0.1897	0.8181	0.388	0.187
Mof_H 	H 	0.1959	0.7847	0.3691	-0.017
Mof_C 	C 	0.2005	0.8212	0.4474	-0.31
Mof_H 	H 	0.2158	0.7911	0.4665	0.149
Mof_C 	C 	0.1652	0.862	0.2971	0.477
Mof_O 	O 	0.1468	0.9017	0.2743	-0.554
Mof_O 	O 	0.1806	0.8155	0.2753	-0.519
Mof_C 	C 	0.2051	0.8578	0.6506	0.08
Mof_H 	H 	0.1851	0.8289	0.6305	0.025
Mof_H 	H 	0.2237	0.8416	0.6827	0.022
Mof_O 	O 	0.1712	0.9001	0.6652	-0.252
Mof_C 	C 	0.1269	0.8857	0.6994	0.24
Mof_C 	C 	0.1189	0.833	0.7184	-0.202
Mof_H 	H 	0.1451	0.8049	0.7124	0.109
Mof_C 	C 	0.0649	0.8223	0.7498	0.061
Mof_H 	H 	0.0514	0.7863	0.7555	0.024
Mof_C 	C 	0.0371	0.8683	0.7694	-0.09
Mof_C 	C 	0.0463	0.9215	0.7499	0.053
Mof_H 	H 	0.0213	0.9502	0.7573	0.033
Mof_C 	C 	0.0966	0.9313	0.7172	-0.192
Mof_H 	H 	0.108	0.9674	0.7085	0.114
Mof_C 	C 	0.9829	0.8696	0.802	0.259
Mof_O 	O 	0.9548	0.9138	0.8029	-0.47
Mof_O 	O 	0.9813	0.8178	0.8306	-0.438
Mof_C 	C 	0.2927	0.8509	0.5927	0.07
Mof_H 	H 	0.2773	0.8221	0.5688	0.027
Mof_H 	H 	0.3218	0.8704	0.5724	0.024
Mof_O 	O 	0.3138	0.8278	0.6415	-0.242
Mof_C 	C 	0.3652	0.8006	0.6347	0.231
Mof_C 	C 	0.3852	0.7744	0.6814	-0.183
Mof_H 	H 	0.366	0.777	0.715	0.111
Mof_C 	C 	0.4378	0.742	0.6775	0.042
Mof_H 	H 	0.4533	0.726	0.7093	0.037
Mof_C 	C 	0.4636	0.7357	0.6267	-0.067
Mof_C 	C 	0.4395	0.7566	0.5782	0.047
Mof_H 	H 	0.4544	0.7484	0.5433	0.03
Mof_C 	C 	0.3885	0.793	0.5843	-0.194
Mof_H 	H 	0.3732	0.8102	0.5531	0.107
Mof_C 	C 	0.518	0.7037	0.631	0.196
Mof_O 	O 	0.5487	0.6991	0.5844	-0.448
Mof_O 	O 	0.5178	0.6672	0.6813	-0.415
Mof_Zn	Zn	0.37162	0.30362	0.58752	1.208
Mof_Zn	Zn	0.12868	0.08743	0.80379	1.204
Mof_C 	C 	0.2483	0.1094	0.3893	-0.069
Mof_C 	C 	0.2692	0.0597	0.3542	0.153
Mof_H 	H 	0.2376	0.0363	0.3444	0.005
Mof_H 	H 	0.2853	0.0737	0.3198	0.008
Mof_O 	O 	0.3053	0.0303	0.3793	-0.299
Mof_C 	C 	0.3117	0.9736	0.3733	0.332
Mof_C 	C 	0.3296	0.9447	0.4185	-0.304
Mof_H 	H 	0.3364	0.963	0.4521	0.149
Mof_C 	C 	0.3381	0.8852	0.4139	0.192
Mof_H 	H 	0.3493	0.8648	0.4449	-0.019
Mof_C 	C 	0.3299	0.8589	0.3643	-0.248
Mof_C 	C 	0.3106	0.8878	0.3189	0.171
Mof_H 	H 	0.304	0.8696	0.2853	-0.012
Mof_C 	C 	0.3005	0.9489	0.3241	-0.296
Mof_H 	H 	0.2867	0.9695	0.2942	0.14
Mof_C 	C 	0.3332	0.7975	0.3612	0.495
Mof_O 	O 	0.3531	0.7746	0.4028	-0.539
Mof_O 	O 	0.3191	0.7754	0.3176	-0.545
Mof_C 	C 	0.2155	0.0878	0.4392	0.137
Mof_H 	H 	0.1834	0.0667	0.4264	0.011
Mof_H 	H 	0.2388	0.0632	0.4613	-0.001
Mof_O 	O 	0.1986	0.1297	0.47	-0.299
Mof_C 	C 	0.1878	0.1305	0.5254	0.349
Mof_C 	C 	0.1717	0.0844	0.5523	-0.32
Mof_H 	H 	0.1696	0.0503	0.534	0.148
Mof_C 	C 	0.1577	0.0894	0.611	0.186
Mof_H 	H 	0.1398	0.0601	0.6291	-0.016
Mof_C 	C 	0.1708	0.1371	0.6403	-0.241
Mof_C 	C 	0.1897	0.1819	0.612	0.187
Mof_H 	H 	0.1959	0.2153	0.6309	-0.017
Mof_C 	C 	0.2005	0.1788	0.5526	-0.31
Mof_H 	H 	0.2158	0.2089	0.5335	0.149
Mof_C 	C 	0.1652	0.138	0.7029	0.477
Mof_O 	O 	0.1468	0.0983	0.7257	-0.554
Mof_O 	O 	0.1806	0.1845	0.7247	-0.519
Mof_C 	C 	0.2051	0.1422	0.3494	0.08
Mof_H 	H 	0.1851	0.1711	0.3695	0.025
Mof_H 	H 	0.2237	0.1584	0.3173	0.022
Mof_O 	O 	0.1712	0.0999	0.3348	-0.252
Mof_C 	C 	0.1269	0.1143	0.3006	0.24
Mof_C 	C 	0.1189	0.167	0.2816	-0.202
Mof_H 	H 	0.1451	0.1951	0.2876	0.109
Mof_C 	C 	0.0649	0.1777	0.2502	0.061
Mof_H 	H 	0.0514	0.2137	0.2445	0.024
Mof_C 	C 	0.0371	0.1317	0.2306	-0.09
Mof_C 	C 	0.0463	0.0785	0.2501	0.053
Mof_H 	H 	0.0213	0.0498	0.2427	0.033
Mof_C 	C 	0.0966	0.0687	0.2828	-0.192
Mof_H 	H 	0.108	0.0326	0.2915	0.114
Mof_C 	C 	0.9829	0.1304	0.198	0.259
Mof_O 	O 	0.9548	0.0862	0.1971	-0.47
Mof_O 	O 	0.9813	0.1822	0.1694	-0.438
Mof_C 	C 	0.2927	0.1491	0.4073	0.07
Mof_H 	H 	0.2773	0.1779	0.4312	0.027
Mof_H 	H 	0.3218	0.1296	0.4276	0.024
Mof_O 	O 	0.3138	0.1722	0.3585	-0.242
Mof_C 	C 	0.3652	0.1994	0.3653	0.231
Mof_C 	C 	0.3852	0.2256	0.3186	-0.183
Mof_H 	H 	0.366	0.223	0.285	0.111
Mof_C 	C 	0.4378	0.258	0.3225	0.042
Mof_H 	H 	0.4533	0.274	0.2907	0.037
Mof_C 	C 	0.4636	0.2643	0.3733	-0.067
Mof_C 	C 	0.4395	0.2434	0.4218	0.047
Mof_H 	H 	0.4544	0.2516	0.4567	0.03
Mof_C 	C 	0.3885	0.207	0.4157	-0.194
Mof_H 	H 	0.3732	0.1898	0.4469	0.107
Mof_C 	C 	0.518	0.2963	0.369	0.196
Mof_O 	O 	0.5487	0.3009	0.4156	-0.448
Mof_O 	O 	0.5178	0.3328	0.3187	-0.415
Mof_Zn	Zn	0.37162	0.69638	0.41248	1.208
Mof_Zn	Zn	0.12868	0.91257	0.19621	1.204
Mof_C 	C 	0.7517	0.1094	0.6107	-0.069
Mof_C 	C 	0.7308	0.0597	0.6458	0.153
Mof_H 	H 	0.7624	0.0363	0.6556	0.005
Mof_H 	H 	0.7147	0.0737	0.6802	0.008
Mof_O 	O 	0.6947	0.0303	0.6207	-0.299
Mof_C 	C 	0.6883	0.9736	0.6267	0.332
Mof_C 	C 	0.6704	0.9447	0.5815	-0.304
Mof_H 	H 	0.6636	0.963	0.5479	0.149
Mof_C 	C 	0.6619	0.8852	0.5861	0.192
Mof_H 	H 	0.6507	0.8648	0.5551	-0.019
Mof_C 	C 	0.6701	0.8589	0.6357	-0.248
Mof_C 	C 	0.6894	0.8878	0.6811	0.171
Mof_H 	H 	0.696	0.8696	0.7147	-0.012
Mof_C 	C 	0.6995	0.9489	0.6759	-0.296
Mof_H 	H 	0.7133	0.9695	0.7058	0.14
Mof_C 	C 	0.6668	0.7975	0.6388	0.495
Mof_O 	O 	0.6469	0.7746	0.5972	-0.539
Mof_O 	O 	0.6809	0.7754	0.6824	-0.545
Mof_C 	C 	0.7845	0.0878	0.5608	0.137
Mof_H 	H 	0.8166	0.0667	0.5736	0.011
Mof_H 	H 	0.7612	0.0632	0.5387	-0.001
Mof_O 	O 	0.8014	0.1297	0.53	-0.299
Mof_C 	C 	0.8122	0.1305	0.4746	0.349
Mof_C 	C 	0.8283	0.0844	0.4477	-0.32
Mof_H 	H 	0.8304	0.0503	0.466	0.148
Mof_C 	C 	0.8423	0.0894	0.389	0.186
Mof_H 	H 	0.8602	0.0601	0.3709	-0.016
Mof_C 	C 	0.8292	0.1371	0.3597	-0.241
Mof_C 	C 	0.8103	0.1819	0.388	0.187
Mof_H 	H 	0.8041	0.2153	0.3691	-0.017
Mof_C 	C 	0.7995	0.1788	0.4474	-0.31
Mof_H 	H 	0.7842	0.2089	0.4665	0.149
Mof_C 	C 	0.8348	0.138	0.2971	0.477
Mof_O 	O 	0.8532	0.0983	0.2743	-0.554
Mof_O 	O 	0.8194	0.1845	0.2753	-0.519
Mof_C 	C 	0.7949	0.1422	0.6506	0.08
Mof_H 	H 	0.8149	0.1711	0.6305	0.025
Mof_H 	H 	0.7763	0.1584	0.6827	0.022
Mof_O 	O 	0.8288	0.0999	0.6652	-0.252
Mof_C 	C 	0.8731	0.1143	0.6994	0.24
Mof_C 	C 	0.8811	0.167	0.7184	-0.202
Mof_H 	H 	0.8549	0.1951	0.7124	0.109
Mof_C 	C 	0.9351	0.1777	0.7498	0.061
Mof_H 	H 	0.9486	0.2137	0.7555	0.024
Mof_C 	C 	0.9629	0.1317	0.7694	-0.09
Mof_C 	C 	0.9537	0.0785	0.7499	0.053
Mof_H 	H 	0.9787	0.0498	0.7573	0.033
Mof_C 	C 	0.9034	0.0687	0.7172	-0.192
Mof_H 	H 	0.892	0.0326	0.7085	0.114
Mof_C 	C 	0.0171	0.1304	0.802	0.259
Mof_O 	O 	0.0452	0.0862	0.8029	-0.47
Mof_O 	O 	0.0187	0.1822	0.8306	-0.438
Mof_C 	C 	0.7073	0.1491	0.5927	0.07
Mof_H 	H 	0.7227	0.1779	0.5688	0.027
Mof_H 	H 	0.6782	0.1296	0.5724	0.024
Mof_O 	O 	0.6862	0.1722	0.6415	-0.242
Mof_C 	C 	0.6348	0.1994	0.6347	0.231
Mof_C 	C 	0.6148	0.2256	0.6814	-0.183
Mof_H 	H 	0.634	0.223	0.715	0.111
Mof_C 	C 	0.5622	0.258	0.6775	0.042
Mof_H 	H 	0.5467	0.274	0.7093	0.037
Mof_C 	C 	0.5364	0.2643	0.6267	-0.067
Mof_C 	C 	0.5605	0.2434	0.5782	0.047
Mof_H 	H 	0.5456	0.2516	0.5433	0.03
Mof_C 	C 	0.6115	0.207	0.5843	-0.194
Mof_H 	H 	0.6268	0.1898	0.5531	0.107
Mof_C 	C 	0.482	0.2963	0.631	0.196
Mof_O 	O 	0.4513	0.3009	0.5844	-0.448
Mof_O 	O 	0.4822	0.3328	0.6813	-0.415
Mof_Zn	Zn	0.62838	0.69638	0.58752	1.208
Mof_Zn	Zn	0.87132	0.91257	0.80379	1.204
Mof_C 	C 	0.7517	0.8906	0.3893	-0.069
Mof_C 	C 	0.7308	0.9403	0.3542	0.153
Mof_H 	H 	0.7624	0.9637	0.3444	0.005
Mof_H 	H 	0.7147	0.9263	0.3198	0.008
Mof_O 	O 	0.6947	0.9697	0.3793	-0.299
Mof_C 	C 	0.6883	0.0264	0.3733	0.332
Mof_C 	C 	0.6704	0.0553	0.4185	-0.304
Mof_H 	H 	0.6636	0.037	0.4521	0.149
Mof_C 	C 	0.6619	0.1148	0.4139	0.192
Mof_H 	H 	0.6507	0.1352	0.4449	-0.019
Mof_C 	C 	0.6701	0.1411	0.3643	-0.248
Mof_C 	C 	0.6894	0.1122	0.3189	0.171
Mof_H 	H 	0.696	0.1304	0.2853	-0.012
Mof_C 	C 	0.6995	0.0511	0.3241	-0.296
Mof_H 	H 	0.7133	0.0305	0.2942	0.14
Mof_C 	C 	0.6668	0.2025	0.3612	0.495
Mof_O 	O 	0.6469	0.2254	0.4028	-0.539
Mof_O 	O 	0.6809	0.2246	0.3176	-0.545
Mof_C 	C 	0.7845	0.9122	0.4392	0.137
Mof_H 	H 	0.8166	0.9333	0.4264	0.011
Mof_H 	H 	0.7612	0.9368	0.4613	-0.001
Mof_O 	O 	0.8014	0.8703	0.47	-0.299
Mof_C 	C 	0.8122	0.8695	0.5254	0.349
Mof_C 	C 	0.8283	0.9156	0.5523	-0.32
Mof_H 	H 	0.8304	0.9497	0.534	0.148
Mof_C 	C 	0.8423	0.9106	0.611	0.186
Mof_H 	H 	0.8602	0.9399	0.6291	-0.016
Mof_C 	C 	0.8292	0.8629	0.6403	-0.241
Mof_C 	C 	0.8103	0.8181	0.612	0.187
Mof_H 	H 	0.8041	0.7847	0.6309	-0.017
Mof_C 	C 	0.7995	0.8212	0.5526	-0.31
Mof_H 	H 	0.7842	0.7911	0.5335	0.149
Mof_C 	C 	0.8348	0.862	0.7029	0.477
Mof_O 	O 	0.8532	0.9017	0.7257	-0.554
Mof_O 	O 	0.8194	0.8155	0.7247	-0.519
Mof_C 	C 	0.7949	0.8578	0.3494	0.08
Mof_H 	H 	0.8149	0.8289	0.3695	0.025
Mof_H 	H 	0.7763	0.8416	0.3173	0.022
Mof_O 	O 	0.8288	0.9001	0.3348	-0.252
Mof_C 	C 	0.8731	0.8857	0.3006	0.24
Mof_C 	C 	0.8811	0.833	0.2816	-0.202
Mof_H 	H 	0.8549	0.8049	0.2876	0.109
Mof_C 	C 	0.9351	0.8223	0.2502	0.061
Mof_H 	H 	0.9486	0.7863	0.2445	0.024
Mof_C 	C 	0.9629	0.8683	0.2306	-0.09
Mof_C 	C 	0.9537	0.9215	0.2501	0.053
Mof_H 	H 	0.9787	0.9502	0.2427	0.033
Mof_C 	C 	0.9034	0.9313	0.2828	-0.192
Mof_H 	H 	0.892	0.9674	0.2915	0.114
Mof_C 	C 	0.0171	0.8696	0.198	0.259
Mof_O 	O 	0.0452	0.9138	0.1971	-0.47
Mof_O 	O 	0.0187	0.8178	0.1694	-0.438
Mof_C 	C 	0.7073	0.8509	0.4073	0.07
Mof_H 	H 	0.7227	0.8221	0.4312	0.027
Mof_H 	H 	0.6782	0.8704	0.4276	0.024
Mof_O 	O 	0.6862	0.8278	0.3585	-0.242
Mof_C 	C 	0.6348	0.8006	0.3653	0.231
Mof_C 	C 	0.6148	0.7744	0.3186	-0.183
Mof_H 	H 	0.634	0.777	0.285	0.111
Mof_C 	C 	0.5622	0.742	0.3225	0.042
Mof_H 	H 	0.5467	0.726	0.2907	0.037
Mof_C 	C 	0.5364	0.7357	0.3733	-0.067
Mof_C 	C 	0.5605	0.7566	0.4218	0.047
Mof_H 	H 	0.5456	0.7484	0.4567	0.03
Mof_C 	C 	0.6115	0.793	0.4157	-0.194
Mof_H 	H 	0.6268	0.8102	0.4469	0.107
Mof_C 	C 	0.482	0.7037	0.369	0.196
Mof_O 	O 	0.4513	0.6991	0.4156	-0.448
Mof_O 	O 	0.4822	0.6672	0.3187	-0.415
Mof_Zn	Zn	0.62838	0.30362	0.41248	1.208
Mof_Zn	Zn	0.87132	0.08743	0.19621	1.204
Mof_C 	C 	0.6107	0.2483	0.8906	-0.069
Mof_C 	C 	0.6458	0.2692	0.9403	0.153
Mof_H 	H 	0.6556	0.2376	0.9637	0.005
Mof_H 	H 	0.6802	0.2853	0.9263	0.008
Mof_O 	O 	0.6207	0.3053	0.9697	-0.299
Mof_C 	C 	0.6267	0.3117	0.0264	0.332
Mof_C 	C 	0.5815	0.3296	0.0553	-0.304
Mof_H 	H 	0.5479	0.3364	0.037	0.149
Mof_C 	C 	0.5861	0.3381	0.1148	0.192
Mof_H 	H 	0.5551	0.3493	0.1352	-0.019
Mof_C 	C 	0.6357	0.3299	0.1411	-0.248
Mof_C 	C 	0.6811	0.3106	0.1122	0.171
Mof_H 	H 	0.7147	0.304	0.1304	-0.012
Mof_C 	C 	0.6759	0.3005	0.0511	-0.296
Mof_H 	H 	0.7058	0.2867	0.0305	0.14
Mof_C 	C 	0.6388	0.3332	0.2025	0.495
Mof_O 	O 	0.5972	0.3531	0.2254	-0.539
Mof_O 	O 	0.6824	0.3191	0.2246	-0.545
Mof_C 	C 	0.5608	0.2155	0.9122	0.137
Mof_H 	H 	0.5736	0.1834	0.9333	0.011
Mof_H 	H 	0.5387	0.2388	0.9368	-0.001
Mof_O 	O 	0.53	0.1986	0.8703	-0.299
Mof_C 	C 	0.4746	0.1878	0.8695	0.349
Mof_C 	C 	0.4477	0.1717	0.9156	-0.32
Mof_H 	H 	0.466	0.1696	0.9497	0.148
Mof_C 	C 	0.389	0.1577	0.9106	0.186
Mof_H 	H 	0.3709	0.1398	0.9399	-0.016
Mof_C 	C 	0.3597	0.1708	0.8629	-0.241
Mof_C 	C 	0.388	0.1897	0.8181	0.187
Mof_H 	H 	0.3691	0.1959	0.7847	-0.017
Mof_C 	C 	0.4474	0.2005	0.8212	-0.31
Mof_H 	H 	0.4665	0.2158	0.7911	0.149
Mof_C 	C 	0.2971	0.1652	0.862	0.477
Mof_O 	O 	0.2743	0.1468	0.9017	-0.554
Mof_O 	O 	0.2753	0.1806	0.8155	-0.519
Mof_C 	C 	0.6506	0.2051	0.8578	0.08
Mof_H 	H 	0.6305	0.1851	0.8289	0.025
Mof_H 	H 	0.6827	0.2237	0.8416	0.022
Mof_O 	O 	0.6652	0.1712	0.9001	-0.252
Mof_C 	C 	0.6994	0.1269	0.8857	0.24
Mof_C 	C 	0.7184	0.1189	0.833	-0.202
Mof_H 	H 	0.7124	0.1451	0.8049	0.109
Mof_C 	C 	0.7498	0.0649	0.8223	0.061
Mof_H 	H 	0.7555	0.0514	0.7863	0.024
Mof_C 	C 	0.7694	0.0371	0.8683	-0.09
Mof_C 	C 	0.7499	0.0463	0.9215	0.053
Mof_H 	H 	0.7573	0.0213	0.9502	0.033
Mof_C 	C 	0.7172	0.0966	0.9313	-0.192
Mof_H 	H 	0.7085	0.108	0.9674	0.114
Mof_C 	C 	0.802	0.9829	0.8696	0.259
Mof_O 	O 	0.8029	0.9548	0.9138	-0.47
Mof_O 	O 	0.8306	0.9813	0.8178	-0.438
Mof_C 	C 	0.5927	0.2927	0.8509	0.07
Mof_H 	H 	0.5688	0.2773	0.8221	0.027
Mof_H 	H 	0.5724	0.3218	0.8704	0.024
Mof_O 	O 	0.6415	0.3138	0.8278	-0.242
Mof_C 	C 	0.6347	0.3652	0.8006	0.231
Mof_C 	C 	0.6814	0.3852	0.7744	-0.183
Mof_H 	H 	0.715	0.366	0.777	0.111
Mof_C 	C 	0.6775	0.4378	0.742	0.042
Mof_H 	H 	0.7093	0.4533	0.726	0.037
Mof_C 	C 	0.6267	0.4636	0.7357	-0.067
Mof_C 	C 	0.5782	0.4395	0.7566	0.047
Mof_H 	H 	0.5433	0.4544	0.7484	0.03
Mof_C 	C 	0.5843	0.3885	0.793	-0.194
Mof_H 	H 	0.5531	0.3732	0.8102	0.107
Mof_C 	C 	0.631	0.518	0.7037	0.196
Mof_O 	O 	0.5844	0.5487	0.6991	-0.448
Mof_O 	O 	0.6813	0.5178	0.6672	-0.415
Mof_Zn	Zn	0.58752	0.37162	0.30362	1.208
Mof_Zn	Zn	0.80379	0.12868	0.08743	1.204
Mof_C 	C 	0.3893	0.2483	0.1094	-0.069
Mof_C 	C 	0.3542	0.2692	0.0597	0.153
Mof_H 	H 	0.3444	0.2376	0.0363	0.005
Mof_H 	H 	0.3198	0.2853	0.0737	0.008
Mof_O 	O 	0.3793	0.3053	0.0303	-0.299
Mof_C 	C 	0.3733	0.3117	0.9736	0.332
Mof_C 	C 	0.4185	0.3296	0.9447	-0.304
Mof_H 	H 	0.4521	0.3364	0.963	0.149
Mof_C 	C 	0.4139	0.3381	0.8852	0.192
Mof_H 	H 	0.4449	0.3493	0.8648	-0.019
Mof_C 	C 	0.3643	0.3299	0.8589	-0.248
Mof_C 	C 	0.3189	0.3106	0.8878	0.171
Mof_H 	H 	0.2853	0.304	0.8696	-0.012
Mof_C 	C 	0.3241	0.3005	0.9489	-0.296
Mof_H 	H 	0.2942	0.2867	0.9695	0.14
Mof_C 	C 	0.3612	0.3332	0.7975	0.495
Mof_O 	O 	0.4028	0.3531	0.7746	-0.539
Mof_O 	O 	0.3176	0.3191	0.7754	-0.545
Mof_C 	C 	0.4392	0.2155	0.0878	0.137
Mof_H 	H 	0.4264	0.1834	0.0667	0.011
Mof_H 	H 	0.4613	0.2388	0.0632	-0.001
Mof_O 	O 	0.47	0.1986	0.1297	-0.299
Mof_C 	C 	0.5254	0.1878	0.1305	0.349
Mof_C 	C 	0.5523	0.1717	0.0844	-0.32
Mof_H 	H 	0.534	0.1696	0.0503	0.148
Mof_C 	C 	0.611	0.1577	0.0894	0.186
Mof_H 	H 	0.6291	0.1398	0.0601	-0.016
Mof_C 	C 	0.6403	0.1708	0.1371	-0.241
Mof_C 	C 	0.612	0.1897	0.1819	0.187
Mof_H 	H 	0.6309	0.1959	0.2153	-0.017
Mof_C 	C 	0.5526	0.2005	0.1788	-0.31
Mof_H 	H 	0.5335	0.2158	0.2089	0.149
Mof_C 	C 	0.7029	0.1652	0.138	0.477
Mof_O 	O 	0.7257	0.1468	0.0983	-0.554
Mof_O 	O 	0.7247	0.1806	0.1845	-0.519
Mof_C 	C 	0.3494	0.2051	0.1422	0.08
Mof_H 	H 	0.3695	0.1851	0.1711	0.025
Mof_H 	H 	0.3173	0.2237	0.1584	0.022
Mof_O 	O 	0.3348	0.1712	0.0999	-0.252
Mof_C 	C 	0.3006	0.1269	0.1143	0.24
Mof_C 	C 	0.2816	0.1189	0.167	-0.202
Mof_H 	H 	0.2876	0.1451	0.1951	0.109
Mof_C 	C 	0.2502	0.0649	0.1777	0.061
Mof_H 	H 	0.2445	0.0514	0.2137	0.024
Mof_C 	C 	0.2306	0.0371	0.1317	-0.09
Mof_C 	C 	0.2501	0.0463	0.0785	0.053
Mof_H 	H 	0.2427	0.0213	0.0498	0.033
Mof_C 	C 	0.2828	0.0966	0.0687	-0.192
Mof_H 	H 	0.2915	0.108	0.0326	0.114
Mof_C 	C 	0.198	0.9829	0.1304	0.259
Mof_O 	O 	0.1971	0.9548	0.0862	-0.47
Mof_O 	O 	0.1694	0.9813	0.1822	-0.438
Mof_C 	C 	0.4073	0.2927	0.1491	0.07
Mof_H 	H 	0.4312	0.2773	0.1779	0.027
Mof_H 	H 	0.4276	0.3218	0.1296	0.024
Mof_O 	O 	0.3585	0.3138	0.1722	-0.242
Mof_C 	C 	0.3653	0.3652	0.1994	0.231
Mof_C 	C 	0.3186	0.3852	0.2256	-0.183
Mof_H 	H 	0.285	0.366	0.223	0.111
Mof_C 	C 	0.3225	0.4378	0.258	0.042
Mof_H 	H 	0.2907	0.4533	0.274	0.037
Mof_C 	C 	0.3733	0.4636	0.2643	-0.067
Mof_C 	C 	0.4218	0.4395	0.2434	0.047
Mof_H 	H 	0.4567	0.4544	0.2516	0.03
Mof_C 	C 	0.4157	0.3885	0.207	-0.194
Mof_H 	H 	0.4469	0.3732	0.1898	0.107
Mof_C 	C 	0.369	0.518	0.2963	0.196
Mof_O 	O 	0.4156	0.5487	0.3009	-0.448
Mof_O 	O 	0.3187	0.5178	0.3328	-0.415
Mof_Zn	Zn	0.41248	0.37162	0.69638	1.208
Mof_Zn	Zn	0.19621	0.12868	0.91257	1.204
Mof_C 	C 	0.6107	0.7517	0.1094	-0.069
Mof_C 	C 	0.6458	0.7308	0.0597	0.153
Mof_H 	H 	0.6556	0.7624	0.0363	0.005
Mof_H 	H 	0.6802	0.7147	0.0737	0.008
Mof_O 	O 	0.6207	0.6947	0.0303	-0.299
Mof_C 	C 	0.6267	0.6883	0.9736	0.332
Mof_C 	C 	0.5815	0.6704	0.9447	-0.304
Mof_H 	H 	0.5479	0.6636	0.963	0.149
Mof_C 	C 	0.5861	0.6619	0.8852	0.192
Mof_H 	H 	0.5551	0.6507	0.8648	-0.019
Mof_C 	C 	0.6357	0.6701	0.8589	-0.248
Mof_C 	C 	0.6811	0.6894	0.8878	0.171
Mof_H 	H 	0.7147	0.696	0.8696	-0.012
Mof_C 	C 	0.6759	0.6995	0.9489	-0.296
Mof_H 	H 	0.7058	0.7133	0.9695	0.14
Mof_C 	C 	0.6388	0.6668	0.7975	0.495
Mof_O 	O 	0.5972	0.6469	0.7746	-0.539
Mof_O 	O 	0.6824	0.6809	0.7754	-0.545
Mof_C 	C 	0.5608	0.7845	0.0878	0.137
Mof_H 	H 	0.5736	0.8166	0.0667	0.011
Mof_H 	H 	0.5387	0.7612	0.0632	-0.001
Mof_O 	O 	0.53	0.8014	0.1297	-0.299
Mof_C 	C 	0.4746	0.8122	0.1305	0.349
Mof_C 	C 	0.4477	0.8283	0.0844	-0.32
Mof_H 	H 	0.466	0.8304	0.0503	0.148
Mof_C 	C 	0.389	0.8423	0.0894	0.186
Mof_H 	H 	0.3709	0.8602	0.0601	-0.016
Mof_C 	C 	0.3597	0.8292	0.1371	-0.241
Mof_C 	C 	0.388	0.8103	0.1819	0.187
Mof_H 	H 	0.3691	0.8041	0.2153	-0.017
Mof_C 	C 	0.4474	0.7995	0.1788	-0.31
Mof_H 	H 	0.4665	0.7842	0.2089	0.149
Mof_C 	C 	0.2971	0.8348	0.138	0.477
Mof_O 	O 	0.2743	0.8532	0.0983	-0.554
Mof_O 	O 	0.2753	0.8194	0.1845	-0.519
Mof_C 	C 	0.6506	0.7949	0.1422	0.08
Mof_H 	H 	0.6305	0.8149	0.1711	0.025
Mof_H 	H 	0.6827	0.7763	0.1584	0.022
Mof_O 	O 	0.6652	0.8288	0.0999	-0.252
Mof_C 	C 	0.6994	0.8731	0.1143	0.24
Mof_C 	C 	0.7184	0.8811	0.167	-0.202
Mof_H 	H 	0.7124	0.8549	0.1951	0.109
Mof_C 	C 	0.7498	0.9351	0.1777	0.061
Mof_H 	H 	0.7555	0.9486	0.2137	0.024
Mof_C 	C 	0.7694	0.9629	0.1317	-0.09
Mof_C 	C 	0.7499	0.9537	0.0785	0.053
Mof_H 	H 	0.7573	0.9787	0.0498	0.033
Mof_C 	C 	0.7172	0.9034	0.0687	-0.192
Mof_H 	H 	0.7085	0.892	0.0326	0.114
Mof_C 	C 	0.802	0.0171	0.1304	0.259
Mof_O 	O 	0.8029	0.0452	0.0862	-0.47
Mof_O 	O 	0.8306	0.0187	0.1822	-0.438
Mof_C 	C 	0.5927	0.7073	0.1491	0.07
Mof_H 	H 	0.5688	0.7227	0.1779	0.027
Mof_H 	H 	0.5724	0.6782	0.1296	0.024
Mof_O 	O 	0.6415	0.6862	0.1722	-0.242
Mof_C 	C 	0.6347	0.6348	0.1994	0.231
Mof_C 	C 	0.6814	0.6148	0.2256	-0.183
Mof_H 	H 	0.715	0.634	0.223	0.111
Mof_C 	C 	0.6775	0.5622	0.258	0.042
Mof_H 	H 	0.7093	0.5467	0.274	0.037
Mof_C 	C 	0.6267	0.5364	0.2643	-0.067
Mof_C 	C 	0.5782	0.5605	0.2434	0.047
Mof_H 	H 	0.5433	0.5456	0.2516	0.03
Mof_C 	C 	0.5843	0.6115	0.207	-0.194
Mof_H 	H 	0.5531	0.6268	0.1898	0.107
Mof_C 	C 	0.631	0.482	0.2963	0.196
Mof_O 	O 	0.5844	0.4513	0.3009	-0.448
Mof_O 	O 	0.6813	0.4822	0.3328	-0.415
Mof_Zn	Zn	0.58752	0.62838	0.69638	1.208
Mof_Zn	Zn	0.80379	0.87132	0.91257	1.204
Mof_C 	C 	0.3893	0.7517	0.8906	-0.069
Mof_C 	C 	0.3542	0.7308	0.9403	0.153
Mof_H 	H 	0.3444	0.7624	0.9637	0.005
Mof_H 	H 	0.3198	0.7147	0.9263	0.008
Mof_O 	O 	0.3793	0.6947	0.9697	-0.299
Mof_C 	C 	0.3733	0.6883	0.0264	0.332
Mof_C 	C 	0.4185	0.6704	0.0553	-0.304
Mof_H 	H 	0.4521	0.6636	0.037	0.149
Mof_C 	C 	0.4139	0.6619	0.1148	0.192
Mof_H 	H 	0.4449	0.6507	0.1352	-0.019
Mof_C 	C 	0.3643	0.6701	0.1411	-0.248
Mof_C 	C 	0.3189	0.6894	0.1122	0.171
Mof_H 	H 	0.2853	0.696	0.1304	-0.012
Mof_C 	C 	0.3241	0.6995	0.0511	-0.296
Mof_H 	H 	0.2942	0.7133	0.0305	0.14
Mof_C 	C 	0.3612	0.6668	0.2025	0.495
Mof_O 	O 	0.4028	0.6469	0.2254	-0.539
Mof_O 	O 	0.3176	0.6809	0.2246	-0.545
Mof_C 	C 	0.4392	0.7845	0.9122	0.137
Mof_H 	H 	0.4264	0.8166	0.9333	0.011
Mof_H 	H 	0.4613	0.7612	0.9368	-0.001
Mof_O 	O 	0.47	0.8014	0.8703	-0.299
Mof_C 	C 	0.5254	0.8122	0.8695	0.349
Mof_C 	C 	0.5523	0.8283	0.9156	-0.32
Mof_H 	H 	0.534	0.8304	0.9497	0.148
Mof_C 	C 	0.611	0.8423	0.9106	0.186
Mof_H 	H 	0.6291	0.8602	0.9399	-0.016
Mof_C 	C 	0.6403	0.8292	0.8629	-0.241
Mof_C 	C 	0.612	0.8103	0.8181	0.187
Mof_H 	H 	0.6309	0.8041	0.7847	-0.017
Mof_C 	C 	0.5526	0.7995	0.8212	-0.31
Mof_H 	H 	0.5335	0.7842	0.7911	0.149
Mof_C 	C 	0.7029	0.8348	0.862	0.477
Mof_O 	O 	0.7257	0.8532	0.9017	-0.554
Mof_O 	O 	0.7247	0.8194	0.8155	-0.519
Mof_C 	C 	0.3494	0.7949	0.8578	0.08
Mof_H 	H 	0.3695	0.8149	0.8289	0.025
Mof_H 	H 	0.3173	0.7763	0.8416	0.022
Mof_O 	O 	0.3348	0.8288	0.9001	-0.252
Mof_C 	C 	0.3006	0.8731	0.8857	0.24
Mof_C 	C 	0.2816	0.8811	0.833	-0.202
Mof_H 	H 	0.2876	0.8549	0.8049	0.109
Mof_C 	C 	0.2502	0.9351	0.8223	0.061
Mof_H 	H 	0.2445	0.9486	0.7863	0.024
Mof_C 	C 	0.2306	0.9629	0.8683	-0.09
Mof_C 	C 	0.2501	0.9537	0.9215	0.053
Mof_H 	H 	0.2427	0.9787	0.9502	0.033
Mof_C 	C 	0.2828	0.9034	0.9313	-0.192
Mof_H 	H 	0.2915	0.892	0.9674	0.114
Mof_C 	C 	0.198	0.0171	0.8696	0.259
Mof_O 	O 	0.1971	0.0452	0.9138	-0.47
Mof_O 	O 	0.1694	0.0187	0.8178	-0.438
Mof_C 	C 	0.4073	0.7073	0.8509	0.07
Mof_H 	H 	0.4312	0.7227	0.8221	0.027
Mof_H 	H 	0.4276	0.6782	0.8704	0.024
Mof_O 	O 	0.3585	0.6862	0.8278	-0.242
Mof_C 	C 	0.3653	0.6348	0.8006	0.231
Mof_C 	C 	0.3186	0.6148	0.7744	-0.183
Mof_H 	H 	0.285	0.634	0.777	0.111
Mof_C 	C 	0.3225	0.5622	0.742	0.042
Mof_H 	H 	0.2907	0.5467	0.726	0.037
Mof_C 	C 	0.3733	0.5364	0.7357	-0.067
Mof_C 	C 	0.4218	0.5605	0.7566	0.047
Mof_H 	H 	0.4567	0.5456	0.7484	0.03
Mof_C 	C 	0.4157	0.6115	0.793	-0.194
Mof_H 	H 	0.4469	0.6268	0.8102	0.107
Mof_C 	C 	0.369	0.482	0.7037	0.196
Mof_O 	O 	0.4156	0.4513	0.6991	-0.448
Mof_O 	O 	0.3187	0.4822	0.6672	-0.415
Mof_Zn	Zn	0.41248	0.62838	0.30362	1.208
Mof_Zn	Zn	0.19621	0.87132	0.08743	1.204
Mof_O 	O 	0.3488	0.6512	0.3488	-0.971
Mof_O 	O 	0.1519	0.8481	0.1519	-0.983
Mof_Zn	Zn	0.30317	0.69683	0.30317	1.213
Mof_Zn	Zn	0.19636	0.80364	0.19636	1.214
Mof_O 	O 	0.6512	0.3488	0.3488	-0.971
Mof_O 	O 	0.8481	0.1519	0.1519	-0.983
Mof_Zn	Zn	0.69683	0.30317	0.30317	1.213
Mof_Zn	Zn	0.80364	0.19636	0.19636	1.214
Mof_O 	O 	0.6512	0.6512	0.6512	-0.971
Mof_O 	O 	0.8481	0.8481	0.8481	-0.983
Mof_Zn	Zn	0.69683	0.69683	0.69683	1.213
Mof_Zn	Zn	0.80364	0.80364	0.80364	1.214
Mof_O 	O 	0.3488	0.3488	0.6512	-0.971
Mof_O 	O 	0.1519	0.1519	0.8481	-0.983
Mof_Zn	Zn	0.30317	0.30317	0.69683	1.213
Mof_Zn	Zn	0.19636	0.19636	0.80364	1.214
_end
