data_functionalizedCrystal
_audit_creation_method	'EQeq! by Chris Wilmer'
_symmetry_space_group_name_H-M	'P1'
_symmetry_Int_Tables_number	1
_symmetry_cell_setting	triclinic
loop_
_symmetry_equiv_pos_as_xyz
  x,y,z
_cell_length_a	15.9623
_cell_length_b	6.9351
_cell_length_c	14.3919
_cell_angle_alpha	90
_cell_angle_beta	90
_cell_angle_gamma	90
loop_
_atom_site_label
_atom_site_type_symbol
_atom_site_fract_x
_atom_site_fract_y
_atom_site_fract_z
_atom_site_charge
Mof_H 	H 	0.6949	0.0453	0.6951	-0.01
Mof_C 	C 	0.7177	0.9229	0.7179	0.082
Mof_O 	O 	0.5873	0.9086	0.588	-0.352
Mof_H 	H 	0.5	0.75	0.36862	0.204
Mof_H 	H 	0.1949	0.5453	0.1951	0.045
Mof_C 	C 	0.2177	0.4229	0.2179	-0.022
Mof_O 	O 	0.0873	0.4086	0.088	-0.383
Mof_H 	H 	2.93639e-33	0.25	0.86862	0.157
Mof_H 	H 	0.3051	0.4547	0.6951	0.04
Mof_C 	C 	0.2823	0.5771	0.7179	0.013
Mof_O 	O 	0.4127	0.5914	0.588	-0.392
Mof_H 	H 	0.8051	0.9547	0.1951	0.107
Mof_C 	C 	0.7823	0.0771	0.2179	-0.082
Mof_O 	O 	0.9127	0.0914	0.088	-0.343
Mof_H 	H 	0.3051	0.5453	0.3049	0.046
Mof_C 	C 	0.2823	0.4229	0.2821	-0.011
Mof_O 	O 	0.4127	0.4086	0.412	-0.393
Mof_H 	H 	0.5	0.25	0.63138	0.198
Mof_H 	H 	0.8051	0.0453	0.8049	0.014
Mof_C 	C 	0.7823	0.9229	0.7821	0.04
Mof_O 	O 	0.9127	0.9086	0.912	-0.232
Mof_H 	H 	1.43443e-33	0.75	0.13138	0.187
Mof_H 	H 	0.6949	0.9547	0.3049	0.099
Mof_C 	C 	0.7177	0.0771	0.2821	-0.061
Mof_O 	O 	0.5873	0.0914	0.412	-0.404
Mof_H 	H 	0.1949	0.4547	0.8049	0.053
Mof_C 	C 	0.2177	0.5771	0.7821	-0.015
Mof_O 	O 	0.0873	0.5914	0.912	-0.313
Mof_H 	H 	0.3051	0.9547	0.3049	0.098
Mof_C 	C 	0.2823	0.0771	0.2821	-0.071
Mof_O 	O 	0.4127	0.0914	0.412	-0.406
Mof_H 	H 	0.8051	0.4547	0.8049	0.064
Mof_C 	C 	0.7823	0.5771	0.7821	-0.018
Mof_O 	O 	0.9127	0.5914	0.912	-0.268
Mof_H 	H 	0.6949	0.5453	0.3049	0.048
Mof_C 	C 	0.7177	0.4229	0.2821	-0.001
Mof_O 	O 	0.5873	0.4086	0.412	-0.391
Mof_H 	H 	0.1949	0.0453	0.8049	0.002
Mof_C 	C 	0.2177	0.9229	0.7821	0.044
Mof_O 	O 	0.0873	0.9086	0.912	-0.275
Mof_H 	H 	0.6949	0.4547	0.6951	0.042
Mof_C 	C 	0.7177	0.5771	0.7179	0.023
Mof_O 	O 	0.5873	0.5914	0.588	-0.39
Mof_H 	H 	0.1949	0.9547	0.1951	0.097
Mof_C 	C 	0.2177	0.0771	0.2179	-0.081
Mof_O 	O 	0.0873	0.0914	0.088	-0.397
Mof_H 	H 	0.3051	0.0453	0.6951	-0.012
Mof_C 	C 	0.2823	0.9229	0.7179	0.074
Mof_O 	O 	0.4127	0.9086	0.588	-0.354
Mof_H 	H 	0.8051	0.5453	0.1951	0.057
Mof_C 	C 	0.7823	0.4229	0.2179	-0.024
Mof_O 	O 	0.9127	0.4086	0.088	-0.33
Mof_Fe	Fe	0.5	0	0.5	1.033
Mof_Fe	Fe	-0	0.5	-0	0.846
Mof_Fe	Fe	0.5	0.5	0.5	1.118
Mof_Fe	Fe	-0	0	-0	0.764
Mof_C 	C 	0.6854	0.75	0.6857	-0.121
Mof_C 	C 	0.6169	0.75	0.6175	0.412
Mof_C 	C 	0.1854	0.25	0.1857	-0.082
Mof_C 	C 	0.1169	0.25	0.1175	0.354
Mof_C 	C 	0.3146	0.75	0.6857	-0.121
Mof_C 	C 	0.3831	0.75	0.6175	0.409
Mof_C 	C 	0.8146	0.25	0.1857	-0.062
Mof_C 	C 	0.8831	0.25	0.1175	0.348
Mof_C 	C 	0.3146	0.25	0.3143	-0.09
Mof_C 	C 	0.3831	0.25	0.3825	0.387
Mof_C 	C 	0.8146	0.75	0.8143	-0.065
Mof_C 	C 	0.8831	0.75	0.8825	0.358
Mof_C 	C 	0.6854	0.25	0.3143	-0.091
Mof_C 	C 	0.6169	0.25	0.3825	0.391
Mof_C 	C 	0.1854	0.75	0.8143	-0.083
Mof_C 	C 	0.1169	0.75	0.8825	0.363
Mof_O 	O 	3.17127e-33	0.25	0.9381	-0.394
Mof_O 	O 	0.5	0.75	0.4381	-0.488
Mof_O 	O 	-7.81039e-34	0.75	0.0619	-0.48
Mof_O 	O 	0.5	0.25	0.5619	-0.509
_end
