data_functionalizedCrystal
_audit_creation_method	'EQeq! by Chris Wilmer'
_symmetry_space_group_name_H-M	'P1'
_symmetry_Int_Tables_number	1
_symmetry_cell_setting	triclinic
loop_
_symmetry_equiv_pos_as_xyz
  x,y,z
_cell_length_a	20.2644
_cell_length_b	19.1216
_cell_length_c	26.8248
_cell_angle_alpha	90
_cell_angle_beta	101.184
_cell_angle_gamma	90
loop_
_atom_site_label
_atom_site_type_symbol
_atom_site_fract_x
_atom_site_fract_y
_atom_site_fract_z
_atom_site_charge
Mof_Zn	Zn	0.51337	0.51578	0.0551	1.228
Mof_Zn	Zn	0.63651	0.40722	0.24283	1.245
Mof_Zn	Zn	0.78723	0.34237	0.26384	1.231
Mof_C 	C 	0.6572	0.8042	0.957	0.113
Mof_C 	C 	0.6214	0.766	0.9159	-0.147
Mof_H 	H 	0.6201	0.7807	0.8827	0.098
Mof_C 	C 	0.5883	0.7067	0.9257	0.056
Mof_H 	H 	0.5642	0.6808	0.8989	0.036
Mof_C 	C 	0.5905	0.6843	0.9764	-0.11
Mof_C 	C 	0.6252	0.7213	0.0158	0.007
Mof_H 	H 	0.6256	0.7066	0.0489	0.047
Mof_C 	C 	0.6609	0.7821	0.0072	-0.03
Mof_C 	C 	0.7057	0.8279	0.0393	-0.024
Mof_C 	C 	0.7299	0.8343	0.0915	-0
Mof_H 	H 	0.7156	0.8032	0.1139	0.044
Mof_C 	C 	0.775	0.8865	0.1099	-0.102
Mof_C 	C 	0.7958	0.9346	0.077	0.052
Mof_H 	H 	0.8262	0.9696	0.09	0.042
Mof_C 	C 	0.7717	0.9306	0.0253	-0.144
Mof_H 	H 	0.7844	0.9635	0.0035	0.094
Mof_C 	C 	0.7282	0.8767	0.0065	0.113
Mof_C 	C 	0.705	0.9022	0.9134	0.226
Mof_C 	C 	0.767	0.907	0.8996	-0.256
Mof_H 	H 	0.8036	0.8827	0.9179	0.137
Mof_C 	C 	0.7745	0.9473	0.8594	0.169
Mof_H 	H 	0.8164	0.9501	0.8501	-0.001
Mof_C 	C 	0.7207	0.9843	0.832	-0.22
Mof_C 	C 	0.6593	0.978	0.846	0.177
Mof_H 	H 	0.6224	0.0021	0.828	-0.012
Mof_C 	C 	0.6518	0.9369	0.8859	-0.268
Mof_H 	H 	0.6096	0.9326	0.8944	0.131
Mof_C 	C 	0.5567	0.6163	0.985	0.379
Mof_C 	C 	0.8024	0.8922	0.1655	0.337
Mof_C 	C 	0.7335	0.0324	0.7905	0.452
Mof_C 	C 	0.6376	0.2204	0.0275	0.115
Mof_C 	C 	0.5902	0.2581	0.0474	-0.148
Mof_H 	H 	0.5475	0.2668	0.0284	0.093
Mof_C 	C 	0.6093	0.282	0.0967	0.06
Mof_H 	H 	0.5791	0.3083	0.111	0.036
Mof_C 	C 	0.6739	0.2672	0.126	-0.116
Mof_C 	C 	0.7194	0.2287	0.1058	0.011
Mof_H 	H 	0.7617	0.219	0.125	0.051
Mof_C 	C 	0.7015	0.2043	0.0562	-0.03
Mof_C 	C 	0.7361	0.164	0.023	-0.024
Mof_C 	C 	0.6928	0.16	0.9758	0.107
Mof_C 	C 	0.7106	0.1256	0.9346	-0.145
Mof_H 	H 	0.6808	0.122	0.9037	0.091
Mof_C 	C 	0.7749	0.0967	0.9416	0.052
Mof_H 	H 	0.7888	0.0754	0.9142	0.031
Mof_C 	C 	0.8196	0.0989	0.9891	-0.111
Mof_C 	C 	0.7998	0.134	0.0299	0
Mof_H 	H 	0.8291	0.1371	0.0612	0.054
Mof_C 	C 	0.5726	0.1958	0.9406	0.172
Mof_C 	C 	0.5412	0.2581	0.9259	-0.195
Mof_H 	H 	0.5587	0.2999	0.9405	0.117
Mof_C 	C 	0.4822	0.2577	0.8885	0.096
Mof_H 	H 	0.4622	0.3006	0.8787	0.029
Mof_C 	C 	0.4529	0.201	0.8661	-0.136
Mof_C 	C 	0.4864	0.137	0.8828	0.084
Mof_H 	H 	0.4678	0.0956	0.8682	0.027
Mof_C 	C 	0.5455	0.1327	0.9197	-0.185
Mof_H 	H 	0.5656	0.09	0.9298	0.103
Mof_C 	C 	0.6918	0.2999	0.1774	0.406
Mof_C 	C 	0.8863	0.0652	0.995	0.375
Mof_C 	C 	0.3906	0.2061	0.8254	0.368
Mof_C 	C 	0.56	0.4813	0.1573	0.478
Mof_H 	H 	0.5645	0.4384	0.1419	-0.143
Mof_N 	N 	0.6985	0.8617	0.9568	-0.179
Mof_N 	N 	0.6321	0.1925	0.9794	-0.168
Mof_O 	O 	0.5566	0.6013	0.0307	-0.453
Mof_O 	O 	0.5312	0.5802	0.9471	-0.453
Mof_O 	O 	0.786	0.8464	0.1963	-0.523
Mof_O 	O 	0.8437	0.9394	0.1823	-0.392
Mof_O 	O 	0.7829	0.026	0.7711	-0.455
Mof_O 	O 	0.6909	0.079	0.7779	-0.475
Mof_O 	O 	0.6522	0.3438	0.1885	-0.481
Mof_O 	O 	0.7472	0.2824	0.2062	-0.458
Mof_O 	O 	0.9223	0.0636	0.0388	-0.442
Mof_O 	O 	0.9007	0.0381	0.9557	-0.442
Mof_O 	O 	0.3698	0.1468	0.8155	-0.449
Mof_O 	O 	0.3642	0.2617	0.8112	-0.321
Mof_O 	O 	0.5549	0.3478	0.25	-0.455
Mof_O 	O 	0.5782	0.4852	0.2055	-0.408
Mof_O 	O 	0.5372	0.5301	0.13	-0.445
Mof_Zn	Zn	0.01337	0.01578	0.0551	1.225
Mof_Zn	Zn	0.13651	0.90722	0.24283	1.243
Mof_Zn	Zn	0.28723	0.84237	0.26384	1.23
Mof_C 	C 	0.1572	0.3042	0.957	0.114
Mof_C 	C 	0.1214	0.266	0.9159	-0.149
Mof_H 	H 	0.1201	0.2807	0.8827	0.096
Mof_C 	C 	0.0883	0.2067	0.9257	0.055
Mof_H 	H 	0.0642	0.1808	0.8989	0.033
Mof_C 	C 	0.0905	0.1843	0.9764	-0.111
Mof_C 	C 	0.1252	0.2213	0.0158	0.005
Mof_H 	H 	0.1256	0.2066	0.0489	0.047
Mof_C 	C 	0.1609	0.2821	0.0072	-0.032
Mof_C 	C 	0.2057	0.3279	0.0393	-0.023
Mof_C 	C 	0.2299	0.3343	0.0915	-0.001
Mof_H 	H 	0.2156	0.3032	0.1139	0.044
Mof_C 	C 	0.275	0.3865	0.1099	-0.102
Mof_C 	C 	0.2958	0.4346	0.077	0.052
Mof_H 	H 	0.3262	0.4696	0.09	0.041
Mof_C 	C 	0.2717	0.4306	0.0253	-0.144
Mof_H 	H 	0.2844	0.4635	0.0035	0.093
Mof_C 	C 	0.2282	0.3767	0.0065	0.111
Mof_C 	C 	0.205	0.4022	0.9134	0.226
Mof_C 	C 	0.267	0.407	0.8996	-0.256
Mof_H 	H 	0.3036	0.3827	0.9179	0.137
Mof_C 	C 	0.2745	0.4473	0.8594	0.169
Mof_H 	H 	0.3164	0.4501	0.8501	-0.001
Mof_C 	C 	0.2207	0.4843	0.832	-0.221
Mof_C 	C 	0.1593	0.478	0.846	0.177
Mof_H 	H 	0.1224	0.5021	0.828	-0.013
Mof_C 	C 	0.1518	0.4369	0.8859	-0.269
Mof_H 	H 	0.1096	0.4326	0.8944	0.13
Mof_C 	C 	0.0567	0.1163	0.985	0.38
Mof_C 	C 	0.3024	0.3922	0.1655	0.337
Mof_C 	C 	0.2335	0.5324	0.7905	0.452
Mof_C 	C 	0.1376	0.7204	0.0275	0.114
Mof_C 	C 	0.0902	0.7581	0.0474	-0.149
Mof_H 	H 	0.0475	0.7668	0.0284	0.09
Mof_C 	C 	0.1093	0.782	0.0967	0.059
Mof_H 	H 	0.0791	0.8083	0.111	0.034
Mof_C 	C 	0.1739	0.7672	0.126	-0.117
Mof_C 	C 	0.2194	0.7287	0.1058	0.011
Mof_H 	H 	0.2617	0.719	0.125	0.05
Mof_C 	C 	0.2015	0.7043	0.0562	-0.03
Mof_C 	C 	0.2361	0.664	0.023	-0.025
Mof_C 	C 	0.1928	0.66	0.9758	0.109
Mof_C 	C 	0.2106	0.6256	0.9346	-0.146
Mof_H 	H 	0.1808	0.622	0.9037	0.091
Mof_C 	C 	0.2749	0.5967	0.9416	0.053
Mof_H 	H 	0.2888	0.5754	0.9142	0.031
Mof_C 	C 	0.3196	0.5989	0.9891	-0.112
Mof_C 	C 	0.2998	0.634	0.0299	-0
Mof_H 	H 	0.3291	0.6371	0.0612	0.053
Mof_C 	C 	0.0726	0.6958	0.9406	0.189
Mof_C 	C 	0.0412	0.7581	0.9259	-0.225
Mof_H 	H 	0.0587	0.7999	0.9405	0.126
Mof_C 	C 	0.9822	0.7577	0.8885	0.128
Mof_H 	H 	0.9622	0.8006	0.8787	0.02
Mof_C 	C 	0.9529	0.701	0.8661	-0.156
Mof_C 	C 	0.9864	0.637	0.8828	0.113
Mof_H 	H 	0.9678	0.5956	0.8682	0.019
Mof_C 	C 	0.0455	0.6327	0.9197	-0.214
Mof_H 	H 	0.0656	0.59	0.9298	0.111
Mof_C 	C 	0.1918	0.7999	0.1774	0.406
Mof_C 	C 	0.3863	0.5652	0.995	0.377
Mof_C 	C 	0.8906	0.7061	0.8254	0.376
Mof_C 	C 	0.06	0.9813	0.1573	0.479
Mof_H 	H 	0.0645	0.9384	0.1419	-0.145
Mof_N 	N 	0.1985	0.3617	0.9568	-0.179
Mof_N 	N 	0.1321	0.6925	0.9794	-0.171
Mof_O 	O 	0.0566	0.1013	0.0307	-0.456
Mof_O 	O 	0.0312	0.0802	0.9471	-0.457
Mof_O 	O 	0.286	0.3464	0.1963	-0.523
Mof_O 	O 	0.3437	0.4394	0.1823	-0.393
Mof_O 	O 	0.2829	0.526	0.7711	-0.456
Mof_O 	O 	0.1909	0.579	0.7779	-0.476
Mof_O 	O 	0.1522	0.8438	0.1885	-0.482
Mof_O 	O 	0.2472	0.7824	0.2062	-0.459
Mof_O 	O 	0.4223	0.5636	0.0388	-0.447
Mof_O 	O 	0.4007	0.5381	0.9557	-0.444
Mof_O 	O 	0.8698	0.6468	0.8155	-0.45
Mof_O 	O 	0.8642	0.7617	0.8112	-0.322
Mof_O 	O 	0.0549	0.8478	0.25	-0.452
Mof_O 	O 	0.0782	0.9852	0.2055	-0.41
Mof_O 	O 	0.0372	0.0301	0.13	-0.449
Mof_Zn	Zn	0.48663	0.51578	0.4449	1.227
Mof_Zn	Zn	0.36349	0.40722	0.25717	1.244
Mof_Zn	Zn	0.21277	0.34237	0.23616	1.23
Mof_C 	C 	0.3428	0.8042	0.543	0.113
Mof_C 	C 	0.3786	0.766	0.5841	-0.148
Mof_H 	H 	0.3799	0.7807	0.6173	0.097
Mof_C 	C 	0.4117	0.7067	0.5743	0.056
Mof_H 	H 	0.4358	0.6808	0.6011	0.035
Mof_C 	C 	0.4095	0.6843	0.5236	-0.111
Mof_C 	C 	0.3748	0.7213	0.4842	0.006
Mof_H 	H 	0.3744	0.7066	0.4511	0.047
Mof_C 	C 	0.3391	0.7821	0.4928	-0.031
Mof_C 	C 	0.2943	0.8279	0.4607	-0.024
Mof_C 	C 	0.2701	0.8343	0.4085	0
Mof_H 	H 	0.2844	0.8032	0.3861	0.044
Mof_C 	C 	0.225	0.8865	0.3901	-0.103
Mof_C 	C 	0.2042	0.9346	0.423	0.053
Mof_H 	H 	0.1738	0.9696	0.41	0.04
Mof_C 	C 	0.2283	0.9306	0.4747	-0.144
Mof_H 	H 	0.2156	0.9635	0.4965	0.094
Mof_C 	C 	0.2718	0.8767	0.4935	0.112
Mof_C 	C 	0.295	0.9022	0.5866	0.227
Mof_C 	C 	0.233	0.907	0.6004	-0.256
Mof_H 	H 	0.1964	0.8827	0.5821	0.137
Mof_C 	C 	0.2255	0.9473	0.6406	0.169
Mof_H 	H 	0.1836	0.9501	0.6499	-0.002
Mof_C 	C 	0.2793	0.9843	0.668	-0.22
Mof_C 	C 	0.3407	0.978	0.654	0.177
Mof_H 	H 	0.3776	0.0021	0.672	-0.012
Mof_C 	C 	0.3482	0.9369	0.6141	-0.269
Mof_H 	H 	0.3904	0.9326	0.6056	0.131
Mof_C 	C 	0.4433	0.6163	0.515	0.379
Mof_C 	C 	0.1976	0.8922	0.3345	0.337
Mof_C 	C 	0.2665	0.0324	0.7095	0.452
Mof_C 	C 	0.3624	0.2204	0.4725	0.115
Mof_C 	C 	0.4098	0.2581	0.4526	-0.148
Mof_H 	H 	0.4525	0.2668	0.4716	0.093
Mof_C 	C 	0.3907	0.282	0.4033	0.06
Mof_H 	H 	0.4209	0.3083	0.389	0.036
Mof_C 	C 	0.3261	0.2672	0.374	-0.116
Mof_C 	C 	0.2806	0.2287	0.3942	0.012
Mof_H 	H 	0.2383	0.219	0.375	0.05
Mof_C 	C 	0.2985	0.2043	0.4438	-0.03
Mof_C 	C 	0.2639	0.164	0.477	-0.025
Mof_C 	C 	0.3072	0.16	0.5242	0.108
Mof_C 	C 	0.2894	0.1256	0.5654	-0.146
Mof_H 	H 	0.3192	0.122	0.5963	0.092
Mof_C 	C 	0.2251	0.0967	0.5584	0.053
Mof_H 	H 	0.2112	0.0754	0.5858	0.031
Mof_C 	C 	0.1804	0.0989	0.5109	-0.112
Mof_C 	C 	0.2002	0.134	0.4701	0
Mof_H 	H 	0.1709	0.1371	0.4388	0.052
Mof_C 	C 	0.4274	0.1958	0.5594	0.172
Mof_C 	C 	0.4588	0.2581	0.5741	-0.195
Mof_H 	H 	0.4413	0.2999	0.5595	0.117
Mof_C 	C 	0.5178	0.2577	0.6115	0.096
Mof_H 	H 	0.5378	0.3006	0.6213	0.029
Mof_C 	C 	0.5471	0.201	0.6339	-0.136
Mof_C 	C 	0.5136	0.137	0.6172	0.084
Mof_H 	H 	0.5322	0.0956	0.6318	0.027
Mof_C 	C 	0.4545	0.1327	0.5803	-0.185
Mof_H 	H 	0.4344	0.09	0.5702	0.103
Mof_C 	C 	0.3082	0.2999	0.3226	0.406
Mof_C 	C 	0.1137	0.0652	0.505	0.378
Mof_C 	C 	0.6094	0.2061	0.6746	0.368
Mof_C 	C 	0.44	0.4813	0.3427	0.478
Mof_H 	H 	0.4355	0.4384	0.3581	-0.143
Mof_N 	N 	0.3015	0.8617	0.5432	-0.179
Mof_N 	N 	0.3679	0.1925	0.5206	-0.168
Mof_O 	O 	0.4434	0.6013	0.4693	-0.453
Mof_O 	O 	0.4688	0.5802	0.5529	-0.453
Mof_O 	O 	0.214	0.8464	0.3037	-0.524
Mof_O 	O 	0.1563	0.9394	0.3177	-0.394
Mof_O 	O 	0.2171	0.026	0.7289	-0.456
Mof_O 	O 	0.3091	0.079	0.7221	-0.475
Mof_O 	O 	0.3478	0.3438	0.3115	-0.481
Mof_O 	O 	0.2528	0.2824	0.2938	-0.459
Mof_O 	O 	0.0777	0.0636	0.4612	-0.45
Mof_O 	O 	0.0993	0.0381	0.5443	-0.446
Mof_O 	O 	0.6302	0.1468	0.6845	-0.449
Mof_O 	O 	0.6358	0.2617	0.6888	-0.321
Mof_O 	O 	0.4451	0.3478	0.25	-0.455
Mof_O 	O 	0.4218	0.4852	0.2945	-0.408
Mof_O 	O 	0.4628	0.5301	0.37	-0.445
Mof_Zn	Zn	0.98663	0.01578	0.4449	1.23
Mof_Zn	Zn	0.86349	0.90722	0.25717	1.244
Mof_Zn	Zn	0.71277	0.84237	0.23616	1.23
Mof_C 	C 	0.8428	0.3042	0.543	0.113
Mof_C 	C 	0.8786	0.266	0.5841	-0.146
Mof_H 	H 	0.8799	0.2807	0.6173	0.097
Mof_C 	C 	0.9117	0.2067	0.5743	0.055
Mof_H 	H 	0.9358	0.1808	0.6011	0.037
Mof_C 	C 	0.9095	0.1843	0.5236	-0.108
Mof_C 	C 	0.8748	0.2213	0.4842	0.006
Mof_H 	H 	0.8744	0.2066	0.4511	0.048
Mof_C 	C 	0.8391	0.2821	0.4928	-0.03
Mof_C 	C 	0.7943	0.3279	0.4607	-0.024
Mof_C 	C 	0.7701	0.3343	0.4085	0
Mof_H 	H 	0.7844	0.3032	0.3861	0.044
Mof_C 	C 	0.725	0.3865	0.3901	-0.102
Mof_C 	C 	0.7042	0.4346	0.423	0.053
Mof_H 	H 	0.6738	0.4696	0.41	0.041
Mof_C 	C 	0.7283	0.4306	0.4747	-0.144
Mof_H 	H 	0.7156	0.4635	0.4965	0.093
Mof_C 	C 	0.7718	0.3767	0.4935	0.112
Mof_C 	C 	0.795	0.4022	0.5866	0.227
Mof_C 	C 	0.733	0.407	0.6004	-0.256
Mof_H 	H 	0.6964	0.3827	0.5821	0.137
Mof_C 	C 	0.7255	0.4473	0.6406	0.169
Mof_H 	H 	0.6836	0.4501	0.6499	-0.001
Mof_C 	C 	0.7793	0.4843	0.668	-0.22
Mof_C 	C 	0.8407	0.478	0.654	0.177
Mof_H 	H 	0.8776	0.5021	0.672	-0.011
Mof_C 	C 	0.8482	0.4369	0.6141	-0.269
Mof_H 	H 	0.8904	0.4326	0.6056	0.132
Mof_C 	C 	0.9433	0.1163	0.515	0.379
Mof_C 	C 	0.6976	0.3922	0.3345	0.337
Mof_C 	C 	0.7665	0.5324	0.7095	0.452
Mof_C 	C 	0.8624	0.7204	0.4725	0.115
Mof_C 	C 	0.9098	0.7581	0.4526	-0.147
Mof_H 	H 	0.9525	0.7668	0.4716	0.096
Mof_C 	C 	0.8907	0.782	0.4033	0.06
Mof_H 	H 	0.9209	0.8083	0.389	0.038
Mof_C 	C 	0.8261	0.7672	0.374	-0.116
Mof_C 	C 	0.7806	0.7287	0.3942	0.012
Mof_H 	H 	0.7383	0.719	0.375	0.05
Mof_C 	C 	0.7985	0.7043	0.4438	-0.03
Mof_C 	C 	0.7639	0.664	0.477	-0.024
Mof_C 	C 	0.8072	0.66	0.5242	0.108
Mof_C 	C 	0.7894	0.6256	0.5654	-0.145
Mof_H 	H 	0.8192	0.622	0.5963	0.092
Mof_C 	C 	0.7251	0.5967	0.5584	0.053
Mof_H 	H 	0.7112	0.5754	0.5858	0.031
Mof_C 	C 	0.6804	0.5989	0.5109	-0.111
Mof_C 	C 	0.7002	0.634	0.4701	-0
Mof_H 	H 	0.6709	0.6371	0.4388	0.053
Mof_C 	C 	0.9274	0.6958	0.5594	0.153
Mof_C 	C 	0.9588	0.7581	0.5741	-0.161
Mof_H 	H 	0.9413	0.7999	0.5595	0.107
Mof_C 	C 	0.0178	0.7577	0.6115	0.062
Mof_H 	H 	0.0378	0.8006	0.6213	0.039
Mof_C 	C 	0.0471	0.701	0.6339	-0.115
Mof_C 	C 	0.0136	0.637	0.6172	0.053
Mof_H 	H 	0.0322	0.5956	0.6318	0.035
Mof_C 	C 	0.9545	0.6327	0.5803	-0.154
Mof_H 	H 	0.9344	0.59	0.5702	0.094
Mof_C 	C 	0.8082	0.7999	0.3226	0.406
Mof_C 	C 	0.6137	0.5652	0.505	0.377
Mof_C 	C 	0.1094	0.7061	0.6746	0.359
Mof_C 	C 	0.94	0.9813	0.3427	0.478
Mof_H 	H 	0.9355	0.9384	0.3581	-0.141
Mof_N 	N 	0.8015	0.3617	0.5432	-0.179
Mof_N 	N 	0.8679	0.6925	0.5206	-0.165
Mof_O 	O 	0.9434	0.1013	0.4693	-0.45
Mof_O 	O 	0.9688	0.0802	0.5529	-0.448
Mof_O 	O 	0.714	0.3464	0.3037	-0.523
Mof_O 	O 	0.6563	0.4394	0.3177	-0.393
Mof_O 	O 	0.7171	0.526	0.7289	-0.455
Mof_O 	O 	0.8091	0.579	0.7221	-0.474
Mof_O 	O 	0.8478	0.8438	0.3115	-0.481
Mof_O 	O 	0.7528	0.7824	0.2938	-0.458
Mof_O 	O 	0.5777	0.5636	0.4612	-0.447
Mof_O 	O 	0.5993	0.5381	0.5443	-0.444
Mof_O 	O 	0.1302	0.6468	0.6845	-0.448
Mof_O 	O 	0.1358	0.7617	0.6888	-0.319
Mof_O 	O 	0.9451	0.8478	0.25	-0.444
Mof_O 	O 	0.9218	0.9852	0.2945	-0.405
Mof_O 	O 	0.9628	0.0301	0.37	-0.441
Mof_Zn	Zn	0.48663	0.48422	0.9449	1.227
Mof_Zn	Zn	0.36349	0.59278	0.75717	1.244
Mof_Zn	Zn	0.21277	0.65763	0.73616	1.23
Mof_C 	C 	0.3428	0.1958	0.043	0.112
Mof_C 	C 	0.3786	0.234	0.0841	-0.148
Mof_H 	H 	0.3799	0.2193	0.1173	0.097
Mof_C 	C 	0.4117	0.2933	0.0743	0.055
Mof_H 	H 	0.4358	0.3192	0.1011	0.035
Mof_C 	C 	0.4095	0.3157	0.0236	-0.111
Mof_C 	C 	0.3748	0.2787	0.9842	0.006
Mof_H 	H 	0.3744	0.2934	0.9511	0.047
Mof_C 	C 	0.3391	0.2179	0.9928	-0.03
Mof_C 	C 	0.2943	0.1721	0.9607	-0.024
Mof_C 	C 	0.2701	0.1657	0.9085	0
Mof_H 	H 	0.2844	0.1968	0.8861	0.044
Mof_C 	C 	0.225	0.1135	0.8901	-0.103
Mof_C 	C 	0.2042	0.0654	0.923	0.053
Mof_H 	H 	0.1738	0.0304	0.91	0.041
Mof_C 	C 	0.2283	0.0694	0.9747	-0.145
Mof_H 	H 	0.2156	0.0365	0.9965	0.094
Mof_C 	C 	0.2718	0.1233	0.9935	0.113
Mof_C 	C 	0.295	0.0978	0.0866	0.226
Mof_C 	C 	0.233	0.093	0.1004	-0.256
Mof_H 	H 	0.1964	0.1173	0.0821	0.137
Mof_C 	C 	0.2255	0.0527	0.1406	0.169
Mof_H 	H 	0.1836	0.0499	0.1499	-0.002
Mof_C 	C 	0.2793	0.0157	0.168	-0.22
Mof_C 	C 	0.3407	0.022	0.154	0.177
Mof_H 	H 	0.3776	0.9979	0.172	-0.012
Mof_C 	C 	0.3482	0.0631	0.1141	-0.269
Mof_H 	H 	0.3904	0.0674	0.1056	0.131
Mof_C 	C 	0.4433	0.3837	0.015	0.379
Mof_C 	C 	0.1976	0.1078	0.8345	0.337
Mof_C 	C 	0.2665	0.9676	0.2095	0.452
Mof_C 	C 	0.3624	0.7796	0.9725	0.115
Mof_C 	C 	0.4098	0.7419	0.9526	-0.148
Mof_H 	H 	0.4525	0.7332	0.9716	0.093
Mof_C 	C 	0.3907	0.718	0.9033	0.06
Mof_H 	H 	0.4209	0.6917	0.889	0.036
Mof_C 	C 	0.3261	0.7328	0.874	-0.116
Mof_C 	C 	0.2806	0.7713	0.8942	0.012
Mof_H 	H 	0.2383	0.781	0.875	0.05
Mof_C 	C 	0.2985	0.7957	0.9438	-0.03
Mof_C 	C 	0.2639	0.836	0.977	-0.025
Mof_C 	C 	0.3072	0.84	0.0242	0.108
Mof_C 	C 	0.2894	0.8744	0.0654	-0.146
Mof_H 	H 	0.3192	0.878	0.0963	0.092
Mof_C 	C 	0.2251	0.9033	0.0584	0.053
Mof_H 	H 	0.2112	0.9246	0.0858	0.031
Mof_C 	C 	0.1804	0.9011	0.0109	-0.113
Mof_C 	C 	0.2002	0.866	0.9701	0.001
Mof_H 	H 	0.1709	0.8629	0.9388	0.052
Mof_C 	C 	0.4274	0.8042	0.0594	0.172
Mof_C 	C 	0.4588	0.7419	0.0741	-0.195
Mof_H 	H 	0.4413	0.7001	0.0595	0.117
Mof_C 	C 	0.5178	0.7423	0.1115	0.096
Mof_H 	H 	0.5378	0.6994	0.1213	0.029
Mof_C 	C 	0.5471	0.799	0.1339	-0.136
Mof_C 	C 	0.5136	0.863	0.1172	0.084
Mof_H 	H 	0.5322	0.9044	0.1318	0.027
Mof_C 	C 	0.4545	0.8673	0.0803	-0.185
Mof_H 	H 	0.4344	0.91	0.0702	0.103
Mof_C 	C 	0.3082	0.7001	0.8226	0.406
Mof_C 	C 	0.1137	0.9348	0.005	0.377
Mof_C 	C 	0.6094	0.7939	0.1746	0.368
Mof_C 	C 	0.44	0.5187	0.8427	0.478
Mof_H 	H 	0.4355	0.5616	0.8581	-0.143
Mof_N 	N 	0.3015	0.1383	0.0432	-0.179
Mof_N 	N 	0.3679	0.8075	0.0206	-0.168
Mof_O 	O 	0.4434	0.3987	0.9693	-0.453
Mof_O 	O 	0.4688	0.4198	0.0529	-0.453
Mof_O 	O 	0.214	0.1536	0.8037	-0.524
Mof_O 	O 	0.1563	0.0606	0.8177	-0.394
Mof_O 	O 	0.2171	0.974	0.2289	-0.456
Mof_O 	O 	0.3091	0.921	0.2221	-0.475
Mof_O 	O 	0.3478	0.6562	0.8115	-0.481
Mof_O 	O 	0.2528	0.7176	0.7938	-0.459
Mof_O 	O 	0.0777	0.9364	0.9612	-0.449
Mof_O 	O 	0.0993	0.9619	0.0443	-0.446
Mof_O 	O 	0.6302	0.8532	0.1845	-0.449
Mof_O 	O 	0.6358	0.7383	0.1888	-0.321
Mof_O 	O 	0.4451	0.6522	0.75	-0.455
Mof_O 	O 	0.4218	0.5148	0.7945	-0.408
Mof_O 	O 	0.4628	0.4699	0.87	-0.445
Mof_Zn	Zn	0.98663	0.98422	0.9449	1.229
Mof_Zn	Zn	0.86349	0.09278	0.75717	1.244
Mof_Zn	Zn	0.71277	0.15763	0.73616	1.23
Mof_C 	C 	0.8428	0.6958	0.043	0.114
Mof_C 	C 	0.8786	0.734	0.0841	-0.146
Mof_H 	H 	0.8799	0.7193	0.1173	0.097
Mof_C 	C 	0.9117	0.7933	0.0743	0.055
Mof_H 	H 	0.9358	0.8192	0.1011	0.037
Mof_C 	C 	0.9095	0.8157	0.0236	-0.107
Mof_C 	C 	0.8748	0.7787	0.9842	0.004
Mof_H 	H 	0.8744	0.7934	0.9511	0.048
Mof_C 	C 	0.8391	0.7179	0.9928	-0.031
Mof_C 	C 	0.7943	0.6721	0.9607	-0.023
Mof_C 	C 	0.7701	0.6657	0.9085	-0
Mof_H 	H 	0.7844	0.6968	0.8861	0.044
Mof_C 	C 	0.725	0.6135	0.8901	-0.102
Mof_C 	C 	0.7042	0.5654	0.923	0.052
Mof_H 	H 	0.6738	0.5304	0.91	0.041
Mof_C 	C 	0.7283	0.5694	0.9747	-0.143
Mof_H 	H 	0.7156	0.5365	0.9965	0.093
Mof_C 	C 	0.7718	0.6233	0.9935	0.111
Mof_C 	C 	0.795	0.5978	0.0866	0.227
Mof_C 	C 	0.733	0.593	0.1004	-0.256
Mof_H 	H 	0.6964	0.6173	0.0821	0.137
Mof_C 	C 	0.7255	0.5527	0.1406	0.169
Mof_H 	H 	0.6836	0.5499	0.1499	-0.001
Mof_C 	C 	0.7793	0.5157	0.168	-0.22
Mof_C 	C 	0.8407	0.522	0.154	0.177
Mof_H 	H 	0.8776	0.4979	0.172	-0.01
Mof_C 	C 	0.8482	0.5631	0.1141	-0.269
Mof_H 	H 	0.8904	0.5674	0.1056	0.133
Mof_C 	C 	0.9433	0.8837	0.015	0.38
Mof_C 	C 	0.6976	0.6078	0.8345	0.337
Mof_C 	C 	0.7665	0.4676	0.2095	0.452
Mof_C 	C 	0.8624	0.2796	0.9725	0.114
Mof_C 	C 	0.9098	0.2419	0.9526	-0.147
Mof_H 	H 	0.9525	0.2332	0.9716	0.095
Mof_C 	C 	0.8907	0.218	0.9033	0.06
Mof_H 	H 	0.9209	0.1917	0.889	0.038
Mof_C 	C 	0.8261	0.2328	0.874	-0.115
Mof_C 	C 	0.7806	0.2713	0.8942	0.011
Mof_H 	H 	0.7383	0.281	0.875	0.051
Mof_C 	C 	0.7985	0.2957	0.9438	-0.029
Mof_C 	C 	0.7639	0.336	0.977	-0.025
Mof_C 	C 	0.8072	0.34	0.0242	0.109
Mof_C 	C 	0.7894	0.3744	0.0654	-0.145
Mof_H 	H 	0.8192	0.378	0.0963	0.092
Mof_C 	C 	0.7251	0.4033	0.0584	0.053
Mof_H 	H 	0.7112	0.4246	0.0858	0.031
Mof_C 	C 	0.6804	0.4011	0.0109	-0.111
Mof_C 	C 	0.7002	0.366	0.9701	-0
Mof_H 	H 	0.6709	0.3629	0.9388	0.053
Mof_C 	C 	0.9274	0.3042	0.0594	0.151
Mof_C 	C 	0.9588	0.2419	0.0741	-0.157
Mof_H 	H 	0.9413	0.2001	0.0595	0.106
Mof_C 	C 	0.0178	0.2423	0.1115	0.058
Mof_H 	H 	0.0378	0.1994	0.1213	0.04
Mof_C 	C 	0.0471	0.299	0.1339	-0.112
Mof_C 	C 	0.0136	0.363	0.1172	0.049
Mof_H 	H 	0.0322	0.4044	0.1318	0.036
Mof_C 	C 	0.9545	0.3673	0.0803	-0.15
Mof_H 	H 	0.9344	0.41	0.0702	0.093
Mof_C 	C 	0.8082	0.2001	0.8226	0.406
Mof_C 	C 	0.6137	0.4348	0.005	0.377
Mof_C 	C 	0.1094	0.2939	0.1746	0.358
Mof_C 	C 	0.94	0.0187	0.8427	0.478
Mof_H 	H 	0.9355	0.0616	0.8581	-0.141
Mof_N 	N 	0.8015	0.6383	0.0432	-0.179
Mof_N 	N 	0.8679	0.3075	0.0206	-0.164
Mof_O 	O 	0.9434	0.8987	0.9693	-0.452
Mof_O 	O 	0.9688	0.9198	0.0529	-0.448
Mof_O 	O 	0.714	0.6536	0.8037	-0.523
Mof_O 	O 	0.6563	0.5606	0.8177	-0.393
Mof_O 	O 	0.7171	0.474	0.2289	-0.455
Mof_O 	O 	0.8091	0.421	0.2221	-0.474
Mof_O 	O 	0.8478	0.1562	0.8115	-0.481
Mof_O 	O 	0.7528	0.2176	0.7938	-0.458
Mof_O 	O 	0.5777	0.4364	0.9612	-0.447
Mof_O 	O 	0.5993	0.4619	0.0443	-0.444
Mof_O 	O 	0.1302	0.3532	0.1845	-0.448
Mof_O 	O 	0.1358	0.2383	0.1888	-0.319
Mof_O 	O 	0.9451	0.1522	0.75	-0.445
Mof_O 	O 	0.9218	0.0148	0.7945	-0.406
Mof_O 	O 	0.9628	0.9699	0.87	-0.442
Mof_Zn	Zn	0.51337	0.48422	0.5551	1.227
Mof_Zn	Zn	0.63651	0.59278	0.74283	1.244
Mof_Zn	Zn	0.78723	0.65763	0.76384	1.23
Mof_C 	C 	0.6572	0.1958	0.457	0.113
Mof_C 	C 	0.6214	0.234	0.4159	-0.148
Mof_H 	H 	0.6201	0.2193	0.3827	0.097
Mof_C 	C 	0.5883	0.2933	0.4257	0.056
Mof_H 	H 	0.5642	0.3192	0.3989	0.035
Mof_C 	C 	0.5905	0.3157	0.4764	-0.111
Mof_C 	C 	0.6252	0.2787	0.5158	0.006
Mof_H 	H 	0.6256	0.2934	0.5489	0.047
Mof_C 	C 	0.6609	0.2179	0.5072	-0.031
Mof_C 	C 	0.7057	0.1721	0.5393	-0.023
Mof_C 	C 	0.7299	0.1657	0.5915	-0.001
Mof_H 	H 	0.7156	0.1968	0.6139	0.044
Mof_C 	C 	0.775	0.1135	0.6099	-0.102
Mof_C 	C 	0.7958	0.0654	0.577	0.052
Mof_H 	H 	0.8262	0.0304	0.59	0.042
Mof_C 	C 	0.7717	0.0694	0.5253	-0.144
Mof_H 	H 	0.7844	0.0365	0.5035	0.093
Mof_C 	C 	0.7282	0.1233	0.5065	0.112
Mof_C 	C 	0.705	0.0978	0.4134	0.226
Mof_C 	C 	0.767	0.093	0.3996	-0.256
Mof_H 	H 	0.8036	0.1173	0.4179	0.137
Mof_C 	C 	0.7745	0.0527	0.3594	0.169
Mof_H 	H 	0.8164	0.0499	0.3501	-0.001
Mof_C 	C 	0.7207	0.0157	0.332	-0.22
Mof_C 	C 	0.6593	0.022	0.346	0.177
Mof_H 	H 	0.6224	0.9979	0.328	-0.012
Mof_C 	C 	0.6518	0.0631	0.3859	-0.268
Mof_H 	H 	0.6096	0.0674	0.3944	0.131
Mof_C 	C 	0.5567	0.3837	0.485	0.379
Mof_C 	C 	0.8024	0.1078	0.6655	0.337
Mof_C 	C 	0.7335	0.9676	0.2905	0.452
Mof_C 	C 	0.6376	0.7796	0.5275	0.115
Mof_C 	C 	0.5902	0.7419	0.5474	-0.148
Mof_H 	H 	0.5475	0.7332	0.5284	0.093
Mof_C 	C 	0.6093	0.718	0.5967	0.06
Mof_H 	H 	0.5791	0.6917	0.611	0.036
Mof_C 	C 	0.6739	0.7328	0.626	-0.116
Mof_C 	C 	0.7194	0.7713	0.6058	0.011
Mof_H 	H 	0.7617	0.781	0.625	0.051
Mof_C 	C 	0.7015	0.7957	0.5562	-0.03
Mof_C 	C 	0.7361	0.836	0.523	-0.024
Mof_C 	C 	0.6928	0.84	0.4758	0.108
Mof_C 	C 	0.7106	0.8744	0.4346	-0.145
Mof_H 	H 	0.6808	0.878	0.4037	0.092
Mof_C 	C 	0.7749	0.9033	0.4416	0.052
Mof_H 	H 	0.7888	0.9246	0.4142	0.031
Mof_C 	C 	0.8196	0.9011	0.4891	-0.111
Mof_C 	C 	0.7998	0.866	0.5299	-0.001
Mof_H 	H 	0.8291	0.8629	0.5612	0.054
Mof_C 	C 	0.5726	0.8042	0.4406	0.172
Mof_C 	C 	0.5412	0.7419	0.4259	-0.195
Mof_H 	H 	0.5587	0.7001	0.4405	0.117
Mof_C 	C 	0.4822	0.7423	0.3885	0.096
Mof_H 	H 	0.4622	0.6994	0.3787	0.029
Mof_C 	C 	0.4529	0.799	0.3661	-0.136
Mof_C 	C 	0.4864	0.863	0.3828	0.084
Mof_H 	H 	0.4678	0.9044	0.3682	0.027
Mof_C 	C 	0.5455	0.8673	0.4197	-0.185
Mof_H 	H 	0.5656	0.91	0.4298	0.103
Mof_C 	C 	0.6918	0.7001	0.6774	0.406
Mof_C 	C 	0.8863	0.9348	0.495	0.377
Mof_C 	C 	0.3906	0.7939	0.3254	0.368
Mof_C 	C 	0.56	0.5187	0.6573	0.478
Mof_H 	H 	0.5645	0.5616	0.6419	-0.143
Mof_N 	N 	0.6985	0.1383	0.4568	-0.179
Mof_N 	N 	0.6321	0.8075	0.4794	-0.168
Mof_O 	O 	0.5566	0.3987	0.5307	-0.453
Mof_O 	O 	0.5312	0.4198	0.4471	-0.453
Mof_O 	O 	0.786	0.1536	0.6963	-0.523
Mof_O 	O 	0.8437	0.0606	0.6823	-0.392
Mof_O 	O 	0.7829	0.974	0.2711	-0.455
Mof_O 	O 	0.6909	0.921	0.2779	-0.475
Mof_O 	O 	0.6522	0.6562	0.6885	-0.481
Mof_O 	O 	0.7472	0.7176	0.7062	-0.458
Mof_O 	O 	0.9223	0.9364	0.5388	-0.443
Mof_O 	O 	0.9007	0.9619	0.4557	-0.442
Mof_O 	O 	0.3698	0.8532	0.3155	-0.449
Mof_O 	O 	0.3642	0.7383	0.3112	-0.321
Mof_O 	O 	0.5549	0.6522	0.75	-0.455
Mof_O 	O 	0.5782	0.5148	0.7055	-0.408
Mof_O 	O 	0.5372	0.4699	0.63	-0.445
Mof_Zn	Zn	0.01337	0.98422	0.5551	1.225
Mof_Zn	Zn	0.13651	0.09278	0.74283	1.243
Mof_Zn	Zn	0.28723	0.15763	0.76384	1.23
Mof_C 	C 	0.1572	0.6958	0.457	0.113
Mof_C 	C 	0.1214	0.734	0.4159	-0.149
Mof_H 	H 	0.1201	0.7193	0.3827	0.096
Mof_C 	C 	0.0883	0.7933	0.4257	0.056
Mof_H 	H 	0.0642	0.8192	0.3989	0.033
Mof_C 	C 	0.0905	0.8157	0.4764	-0.113
Mof_C 	C 	0.1252	0.7787	0.5158	0.006
Mof_H 	H 	0.1256	0.7934	0.5489	0.047
Mof_C 	C 	0.1609	0.7179	0.5072	-0.032
Mof_C 	C 	0.2057	0.6721	0.5393	-0.024
Mof_C 	C 	0.2299	0.6657	0.5915	-0.001
Mof_H 	H 	0.2156	0.6968	0.6139	0.044
Mof_C 	C 	0.275	0.6135	0.6099	-0.102
Mof_C 	C 	0.2958	0.5654	0.577	0.052
Mof_H 	H 	0.3262	0.5304	0.59	0.041
Mof_C 	C 	0.2717	0.5694	0.5253	-0.144
Mof_H 	H 	0.2844	0.5365	0.5035	0.093
Mof_C 	C 	0.2282	0.6233	0.5065	0.112
Mof_C 	C 	0.205	0.5978	0.4134	0.226
Mof_C 	C 	0.267	0.593	0.3996	-0.256
Mof_H 	H 	0.3036	0.6173	0.4179	0.137
Mof_C 	C 	0.2745	0.5527	0.3594	0.169
Mof_H 	H 	0.3164	0.5499	0.3501	-0.002
Mof_C 	C 	0.2207	0.5157	0.332	-0.221
Mof_C 	C 	0.1593	0.522	0.346	0.177
Mof_H 	H 	0.1224	0.4979	0.328	-0.013
Mof_C 	C 	0.1518	0.5631	0.3859	-0.269
Mof_H 	H 	0.1096	0.5674	0.3944	0.129
Mof_C 	C 	0.0567	0.8837	0.485	0.379
Mof_C 	C 	0.3024	0.6078	0.6655	0.337
Mof_C 	C 	0.2335	0.4676	0.2905	0.452
Mof_C 	C 	0.1376	0.2796	0.5275	0.115
Mof_C 	C 	0.0902	0.2419	0.5474	-0.149
Mof_H 	H 	0.0475	0.2332	0.5284	0.091
Mof_C 	C 	0.1093	0.218	0.5967	0.06
Mof_H 	H 	0.0791	0.1917	0.611	0.034
Mof_C 	C 	0.1739	0.2328	0.626	-0.117
Mof_C 	C 	0.2194	0.2713	0.6058	0.011
Mof_H 	H 	0.2617	0.281	0.625	0.05
Mof_C 	C 	0.2015	0.2957	0.5562	-0.03
Mof_C 	C 	0.2361	0.336	0.523	-0.025
Mof_C 	C 	0.1928	0.34	0.4758	0.108
Mof_C 	C 	0.2106	0.3744	0.4346	-0.146
Mof_H 	H 	0.1808	0.378	0.4037	0.091
Mof_C 	C 	0.2749	0.4033	0.4416	0.053
Mof_H 	H 	0.2888	0.4246	0.4142	0.031
Mof_C 	C 	0.3196	0.4011	0.4891	-0.112
Mof_C 	C 	0.2998	0.366	0.5299	-0
Mof_H 	H 	0.3291	0.3629	0.5612	0.053
Mof_C 	C 	0.0726	0.3042	0.4406	0.191
Mof_C 	C 	0.0412	0.2419	0.4259	-0.23
Mof_H 	H 	0.0587	0.2001	0.4405	0.127
Mof_C 	C 	0.9822	0.2423	0.3885	0.133
Mof_H 	H 	0.9622	0.1994	0.3787	0.019
Mof_C 	C 	0.9529	0.299	0.3661	-0.159
Mof_C 	C 	0.9864	0.363	0.3828	0.118
Mof_H 	H 	0.9678	0.4044	0.3682	0.018
Mof_C 	C 	0.0455	0.3673	0.4197	-0.218
Mof_H 	H 	0.0656	0.41	0.4298	0.112
Mof_C 	C 	0.1918	0.2001	0.6774	0.406
Mof_C 	C 	0.3863	0.4348	0.495	0.377
Mof_C 	C 	0.8906	0.2939	0.3254	0.377
Mof_C 	C 	0.06	0.0187	0.6573	0.479
Mof_H 	H 	0.0645	0.0616	0.6419	-0.145
Mof_N 	N 	0.1985	0.6383	0.4568	-0.179
Mof_N 	N 	0.1321	0.3075	0.4794	-0.172
Mof_O 	O 	0.0566	0.8987	0.5307	-0.455
Mof_O 	O 	0.0312	0.9198	0.4471	-0.457
Mof_O 	O 	0.286	0.6536	0.6963	-0.523
Mof_O 	O 	0.3437	0.5606	0.6823	-0.393
Mof_O 	O 	0.2829	0.474	0.2711	-0.456
Mof_O 	O 	0.1909	0.421	0.2779	-0.476
Mof_O 	O 	0.1522	0.1562	0.6885	-0.482
Mof_O 	O 	0.2472	0.2176	0.7062	-0.459
Mof_O 	O 	0.4223	0.4364	0.5388	-0.447
Mof_O 	O 	0.4007	0.4619	0.4557	-0.444
Mof_O 	O 	0.8698	0.3532	0.3155	-0.45
Mof_O 	O 	0.8642	0.2383	0.3112	-0.322
Mof_O 	O 	0.0549	0.1522	0.75	-0.453
Mof_O 	O 	0.0782	0.0148	0.7055	-0.41
Mof_O 	O 	0.0372	0.9699	0.63	-0.448
Mof_C 	C 	0.5	0.3744	0.25	0.536
Mof_H 	H 	0.5	0.4231	0.25	-0.147
Mof_C 	C 	1.11492e-17	0.8744	0.25	0.518
Mof_H 	H 	1.11492e-17	0.9231	0.25	-0.144
Mof_C 	C 	0.5	0.6256	0.75	0.536
Mof_H 	H 	0.5	0.5769	0.75	-0.147
Mof_C 	C 	4.45967e-17	0.1256	0.75	0.52
Mof_H 	H 	4.45967e-17	0.0769	0.75	-0.144
_end
