data_functionalizedCrystal
_audit_creation_method	'EQeq! by Chris Wilmer'
_symmetry_space_group_name_H-M	'P1'
_symmetry_Int_Tables_number	1
_symmetry_cell_setting	triclinic
loop_
_symmetry_equiv_pos_as_xyz
  x,y,z
_cell_length_a	9.376
_cell_length_b	14.919
_cell_length_c	19.138
_cell_angle_alpha	90
_cell_angle_beta	90
_cell_angle_gamma	90
loop_
_atom_site_label
_atom_site_type_symbol
_atom_site_fract_x
_atom_site_fract_y
_atom_site_fract_z
_atom_site_charge
Mof_Cd	Cd	0.69059	0.5	0.25	0.461
Mof_Cd	Cd	0.30941	0.5	0.75	0.461
Mof_Cd	Cd	0.80941	9.42967e-33	0.75	0.437
Mof_Cd	Cd	0.19059	2.35742e-33	0.25	0.436
Mof_H 	H 	0.882	0.2872	0.2336	0.041
Mof_H 	H 	0.9032	0.717	0.437	0.137
Mof_H 	H 	0.0968	0.717	0.937	0.137
Mof_H 	H 	0.6012	0.3747	0.1092	0.02
Mof_H 	H 	0.3988	0.6253	0.8908	0.021
Mof_H 	H 	0.8988	0.1253	0.6092	0.018
Mof_H 	H 	0.1723	0.3915	0.9759	0.063
Mof_H 	H 	0.618	0.7872	0.7664	0.044
Mof_H 	H 	0.5968	0.783	0.937	0.137
Mof_H 	H 	0.4032	0.783	0.437	0.137
Mof_H 	H 	0.118	0.7128	0.7664	0.042
Mof_H 	H 	0.1723	0.6085	0.5241	0.065
Mof_H 	H 	0.882	0.7128	0.2664	0.042
Mof_H 	H 	0.6723	0.8915	0.5241	0.05
Mof_H 	H 	0.118	0.2872	0.7336	0.041
Mof_H 	H 	0.8988	0.8747	0.8908	0.025
Mof_H 	H 	0.382	0.7872	0.2664	0.044
Mof_H 	H 	0.3277	0.8915	0.0241	0.05
Mof_H 	H 	0.9032	0.283	0.063	0.134
Mof_H 	H 	0.5968	0.217	0.563	0.134
Mof_H 	H 	0.618	0.2128	0.7336	0.04
Mof_H 	H 	0.382	0.2128	0.2336	0.04
Mof_H 	H 	0.6012	0.6253	0.3908	0.021
Mof_H 	H 	0.0968	0.283	0.563	0.134
Mof_H 	H 	0.6723	0.1085	0.9759	0.079
Mof_H 	H 	0.1012	0.8747	0.3908	0.025
Mof_H 	H 	0.3988	0.3747	0.6092	0.02
Mof_H 	H 	0.8277	0.3915	0.4759	0.064
Mof_H 	H 	0.8277	0.6085	0.0241	0.066
Mof_H 	H 	0.4032	0.217	0.063	0.134
Mof_H 	H 	0.1012	0.1253	0.1092	0.017
Mof_H 	H 	0.3277	0.1085	0.4759	0.08
Mof_C 	C 	0.9446	0.1501	0.6491	0.11
Mof_C 	C 	0.6019	0.9356	0.5144	0.039
Mof_C 	C 	0.9246	0.4972	0.0628	-0.035
Mof_C 	C 	0.0271	0.4321	0.0477	-0.026
Mof_C 	C 	0.936	0.7624	0.2828	0.113
Mof_C 	C 	0.6019	0.0644	0.9856	-0.073
Mof_C 	C 	0.9373	0.6424	0.9023	0.222
Mof_C 	C 	0.436	0.2624	0.2172	0.111
Mof_C 	C 	0.5627	0.1424	0.0977	0.214
Mof_C 	C 	0.3431	0.0018	0.1309	0.261
Mof_C 	C 	0.9729	0.5679	0.9523	-0.02
Mof_C 	C 	0.064	0.2376	0.7172	0.111
Mof_C 	C 	0.0554	0.1501	0.1491	0.11
Mof_C 	C 	0.5271	0.0679	0.0477	0.003
Mof_C 	C 	0.9373	0.3576	0.5977	0.222
Mof_C 	C 	0.3981	0.0644	0.4856	-0.079
Mof_C 	C 	0.6569	0.0018	0.6309	0.263
Mof_C 	C 	0.936	0.2376	0.2172	0.111
Mof_C 	C 	0.4729	0.0679	0.5477	0.006
Mof_C 	C 	0.3431	0.9982	0.3691	0.303
Mof_C 	C 	0.3981	0.9356	0.0144	0.036
Mof_C 	C 	0.9729	0.4321	0.5477	-0.022
Mof_C 	C 	0.5554	0.3499	0.1491	0.112
Mof_C 	C 	0.4373	0.1424	0.5977	0.213
Mof_C 	C 	0.0271	0.5679	0.4523	-0.021
Mof_C 	C 	0.8981	0.5644	0.0144	-0.022
Mof_C 	C 	0.5627	0.8576	0.4023	0.233
Mof_C 	C 	0.4729	0.9321	0.9523	-0.047
Mof_C 	C 	0.564	0.2624	0.7172	0.111
Mof_C 	C 	0.6569	0.9982	0.8691	0.303
Mof_C 	C 	0.1569	0.4982	0.6309	0.283
Mof_C 	C 	0.4446	0.6501	0.8509	0.113
Mof_C 	C 	0.4373	0.8576	0.9023	0.232
Mof_C 	C 	0.1019	0.4356	0.9856	-0.015
Mof_C 	C 	0.9246	0.5028	0.4372	-0.038
Mof_C 	C 	0.5754	0.9972	0.9372	0.006
Mof_C 	C 	0.5271	0.9321	0.4523	-0.049
Mof_C 	C 	0.9446	0.8499	0.8509	0.113
Mof_C 	C 	0.4246	0.9972	0.4372	0.009
Mof_C 	C 	0.8981	0.4356	0.4856	-0.02
Mof_C 	C 	0.5754	0.0028	0.5628	-0.083
Mof_C 	C 	0.0754	0.4972	0.5628	-0.037
Mof_C 	C 	0.064	0.7624	0.7828	0.113
Mof_C 	C 	0.4446	0.3499	0.6491	0.112
Mof_C 	C 	0.0627	0.6424	0.4023	0.223
Mof_C 	C 	0.0754	0.5028	0.9372	-0.039
Mof_C 	C 	0.436	0.7376	0.2828	0.112
Mof_C 	C 	0.4246	0.0028	0.0628	-0.082
Mof_C 	C 	0.1569	0.5018	0.8691	0.283
Mof_C 	C 	0.5554	0.6501	0.3509	0.113
Mof_C 	C 	0.0627	0.3576	0.0977	0.223
Mof_C 	C 	0.1019	0.5644	0.5144	-0.02
Mof_C 	C 	0.0554	0.8499	0.3509	0.113
Mof_C 	C 	0.564	0.7376	0.7828	0.112
Mof_C 	C 	0.8431	0.4982	0.1309	0.282
Mof_C 	C 	0.8431	0.5018	0.3691	0.283
Mof_N 	N 	0.9788	0.1711	0.2559	-0.078
Mof_N 	N 	0.0322	0.2881	0.5961	-0.176
Mof_N 	N 	0.9678	0.2881	0.0961	-0.176
Mof_N 	N 	0.5206	0.7262	0.8499	-0.087
Mof_N 	N 	0.4788	0.6711	0.2441	-0.076
Mof_N 	N 	0.4794	0.7262	0.3499	-0.087
Mof_N 	N 	0.5561	0.6156	0.2882	-0.108
Mof_N 	N 	0.4678	0.7881	0.4039	-0.179
Mof_N 	N 	0.9794	0.7738	0.3499	-0.086
Mof_N 	N 	0.4788	0.3289	0.2559	-0.077
Mof_N 	N 	0.9439	0.8844	0.7882	-0.101
Mof_N 	N 	0.0212	0.1711	0.7559	-0.078
Mof_N 	N 	0.4439	0.6156	0.7882	-0.108
Mof_N 	N 	0.9678	0.7119	0.4039	-0.176
Mof_N 	N 	0.5212	0.6711	0.7441	-0.075
Mof_N 	N 	0.0561	0.8844	0.2882	-0.101
Mof_N 	N 	0.5322	0.2119	0.5961	-0.174
Mof_N 	N 	0.0212	0.8289	0.7441	-0.073
Mof_N 	N 	0.5561	0.3844	0.2118	-0.108
Mof_N 	N 	0.0561	0.1156	0.2118	-0.11
Mof_N 	N 	0.9439	0.1156	0.7118	-0.11
Mof_N 	N 	0.5206	0.2738	0.6501	-0.087
Mof_N 	N 	0.9788	0.8289	0.2441	-0.073
Mof_N 	N 	0.9794	0.2262	0.1501	-0.087
Mof_N 	N 	0.4439	0.3844	0.7118	-0.108
Mof_N 	N 	0.4678	0.2119	0.0961	-0.174
Mof_N 	N 	0.5322	0.7881	0.9039	-0.178
Mof_N 	N 	0.0206	0.7738	0.8499	-0.086
Mof_N 	N 	0.0322	0.7119	0.9039	-0.176
Mof_N 	N 	0.0206	0.2262	0.6501	-0.087
Mof_N 	N 	0.5212	0.3289	0.7559	-0.077
Mof_N 	N 	0.4794	0.2738	0.1501	-0.087
Mof_O 	O 	0.6712	0.1444	0.1328	-0.196
Mof_O 	O 	0.6243	0.0584	0.677	-0.244
Mof_O 	O 	0.6712	0.8556	0.3672	-0.193
Mof_O 	O 	0.1243	0.4416	0.677	-0.245
Mof_O 	O 	0.745	0.5544	0.1393	-0.256
Mof_O 	O 	0.3757	0.9416	0.323	-0.239
Mof_O 	O 	0.3757	0.0584	0.177	-0.244
Mof_O 	O 	0.8288	0.6444	0.8672	-0.194
Mof_O 	O 	0.8757	0.4416	0.177	-0.245
Mof_O 	O 	0.8757	0.5584	0.323	-0.245
Mof_O 	O 	0.6243	0.9416	0.823	-0.24
Mof_O 	O 	0.1712	0.3556	0.1328	-0.195
Mof_O 	O 	0.1712	0.6444	0.3672	-0.194
Mof_O 	O 	0.245	0.9456	0.1393	-0.227
Mof_O 	O 	0.8288	0.3556	0.6328	-0.194
Mof_O 	O 	0.255	0.4456	0.8607	-0.257
Mof_O 	O 	0.755	0.0544	0.8607	-0.278
Mof_O 	O 	0.3288	0.8556	0.8672	-0.192
Mof_O 	O 	0.255	0.5544	0.6393	-0.256
Mof_O 	O 	0.245	0.0544	0.3607	-0.279
Mof_O 	O 	0.1243	0.5584	0.823	-0.245
Mof_O 	O 	0.745	0.4456	0.3607	-0.257
Mof_O 	O 	0.3288	0.1444	0.6328	-0.195
Mof_O 	O 	0.755	0.9456	0.6393	-0.227
_end
