data_functionalizedCrystal
_audit_creation_method	'EQeq! by Chris Wilmer'
_symmetry_space_group_name_H-M	'P1'
_symmetry_Int_Tables_number	1
_symmetry_cell_setting	triclinic
loop_
_symmetry_equiv_pos_as_xyz
  x,y,z
_cell_length_a	12.8164
_cell_length_b	22.2866
_cell_length_c	22.2866
_cell_angle_alpha	120
_cell_angle_beta	90
_cell_angle_gamma	90
loop_
_atom_site_label
_atom_site_type_symbol
_atom_site_fract_x
_atom_site_fract_y
_atom_site_fract_z
_atom_site_charge
Mof_Cu	Cu	0.25	0	0.3791	0.861
Mof_Cu	Cu	0.25	0	0.2687	0.846
Mof_Cu	Cu	0.25	0.3791	-0	0.861
Mof_Cu	Cu	0.25	0.2687	-0	0.846
Mof_Cu	Cu	0.25	0.6209	0.6209	0.901
Mof_Cu	Cu	0.25	0.7313	0.7313	0.896
Mof_Cu	Cu	0.75	0	0.6209	0.861
Mof_Cu	Cu	0.75	4.12435e-17	0.7313	0.853
Mof_Cu	Cu	0.75	0.6209	-0	0.861
Mof_Cu	Cu	0.75	0.7313	-0	0.853
Mof_Cu	Cu	0.75	0.3791	0.3791	0.903
Mof_Cu	Cu	0.75	0.2687	0.2687	0.884
Mof_H 	H 	0.096	0.8259	0.3331	0.051
Mof_H 	H 	0.096	0.5072	0.1741	0.04
Mof_H 	H 	0.096	0.6669	0.4928	0.046
Mof_H 	H 	0.596	0.1741	0.6669	0.043
Mof_H 	H 	0.596	0.4928	0.8259	0.053
Mof_H 	H 	0.596	0.3331	0.5072	0.046
Mof_H 	H 	0.404	0.4928	0.6669	0.047
Mof_H 	H 	0.404	0.3331	0.8259	0.052
Mof_H 	H 	0.404	0.1741	0.5072	0.041
Mof_H 	H 	0.904	0.5072	0.3331	0.046
Mof_H 	H 	0.904	0.6669	0.1741	0.042
Mof_H 	H 	0.904	0.8259	0.4928	0.053
Mof_H 	H 	0.904	0.1741	0.6669	0.042
Mof_H 	H 	0.904	0.4928	0.8259	0.053
Mof_H 	H 	0.904	0.3331	0.5072	0.046
Mof_H 	H 	0.404	0.8259	0.3331	0.052
Mof_H 	H 	0.404	0.5072	0.1741	0.041
Mof_H 	H 	0.404	0.6669	0.4928	0.047
Mof_H 	H 	0.596	0.5072	0.3331	0.046
Mof_H 	H 	0.596	0.6669	0.1741	0.043
Mof_H 	H 	0.596	0.8259	0.4928	0.053
Mof_H 	H 	0.096	0.4928	0.6669	0.046
Mof_H 	H 	0.096	0.3331	0.8259	0.051
Mof_H 	H 	0.096	0.1741	0.5072	0.04
Mof_H 	H 	1.14474e-32	0.84285	0.15715	0.051
Mof_H 	H 	6.86843e-33	0.3143	0.15715	0.036
Mof_H 	H 	-3.20527e-32	0.84285	0.6857	0.066
Mof_H 	H 	0.5	0.15715	0.84285	0.052
Mof_H 	H 	0.5	0.6857	0.84285	0.067
Mof_H 	H 	0.5	0.15715	0.3143	0.036
Mof_H 	H 	1.83158e-32	0.15715	0.84285	0.051
Mof_H 	H 	-1.83158e-32	0.6857	0.84285	0.066
Mof_H 	H 	4.57895e-33	0.15715	0.3143	0.036
Mof_H 	H 	0.5	0.84285	0.15715	0.052
Mof_H 	H 	0.5	0.3143	0.15715	0.036
Mof_H 	H 	0.5	0.84285	0.6857	0.067
Mof_H 	H 	-0	0.6023	0.2046	0.049
Mof_H 	H 	1.37369e-32	0.6023	0.3977	0.055
Mof_H 	H 	-4.57895e-33	0.7954	0.3977	0.061
Mof_H 	H 	0.5	0.3977	0.7954	0.063
Mof_H 	H 	0.5	0.3977	0.6023	0.056
Mof_H 	H 	0.5	0.2046	0.6023	0.051
Mof_H 	H 	-9.1579e-33	0.3977	0.7954	0.061
Mof_H 	H 	9.1579e-33	0.3977	0.6023	0.055
Mof_H 	H 	9.1579e-33	0.2046	0.6023	0.049
Mof_H 	H 	0.5	0.6023	0.2046	0.051
Mof_H 	H 	0.5	0.6023	0.3977	0.056
Mof_H 	H 	0.5	0.7954	0.3977	0.063
Mof_C 	C 	0.0524	0.8044	0.2847	0.009
Mof_C 	C 	0.1175	0.9043	0.2763	0.321
Mof_C 	C 	0.0532	0.8404	0.2481	-0.078
Mof_C 	C 	0.0524	0.4803	0.1956	0.012
Mof_C 	C 	0.1175	0.372	0.0957	0.327
Mof_C 	C 	0.0532	0.4077	0.1596	-0.097
Mof_C 	C 	0.0524	0.7153	0.5197	0.008
Mof_C 	C 	0.1175	0.7237	0.628	0.323
Mof_C 	C 	0.0532	0.7519	0.5923	-0.077
Mof_C 	C 	0.5524	0.1956	0.7153	0.008
Mof_C 	C 	0.6175	0.0957	0.7237	0.325
Mof_C 	C 	0.5532	0.1596	0.7519	-0.089
Mof_C 	C 	0.5524	0.5197	0.8044	0.006
Mof_C 	C 	0.6175	0.628	0.9043	0.32
Mof_C 	C 	0.5532	0.5923	0.8404	-0.071
Mof_C 	C 	0.5524	0.2847	0.4803	0.01
Mof_C 	C 	0.6175	0.2763	0.372	0.329
Mof_C 	C 	0.5532	0.2481	0.4077	-0.093
Mof_C 	C 	0.4476	0.5197	0.7153	0.007
Mof_C 	C 	0.3825	0.628	0.7237	0.324
Mof_C 	C 	0.4468	0.5923	0.7519	-0.077
Mof_C 	C 	0.4476	0.2847	0.8044	0.008
Mof_C 	C 	0.3825	0.2763	0.9043	0.322
Mof_C 	C 	0.4468	0.2481	0.8404	-0.078
Mof_C 	C 	0.4476	0.1956	0.4803	0.01
Mof_C 	C 	0.3825	0.0957	0.372	0.328
Mof_C 	C 	0.4468	0.1596	0.4077	-0.098
Mof_C 	C 	0.9476	0.4803	0.2847	0.021
Mof_C 	C 	0.8825	0.372	0.2763	0.327
Mof_C 	C 	0.9468	0.4077	0.2481	-0.083
Mof_C 	C 	0.9476	0.7153	0.1956	0.02
Mof_C 	C 	0.8825	0.7237	0.0957	0.324
Mof_C 	C 	0.9468	0.7519	0.1596	-0.079
Mof_C 	C 	0.9476	0.8044	0.5197	0.017
Mof_C 	C 	0.8825	0.9043	0.628	0.318
Mof_C 	C 	0.9468	0.8404	0.5923	-0.061
Mof_C 	C 	0.9476	0.1956	0.7153	0.02
Mof_C 	C 	0.8825	0.0957	0.7237	0.324
Mof_C 	C 	0.9468	0.1596	0.7519	-0.079
Mof_C 	C 	0.9476	0.5197	0.8044	0.017
Mof_C 	C 	0.8825	0.628	0.9043	0.318
Mof_C 	C 	0.9468	0.5923	0.8404	-0.061
Mof_C 	C 	0.9476	0.2847	0.4803	0.021
Mof_C 	C 	0.8825	0.2763	0.372	0.327
Mof_C 	C 	0.9468	0.2481	0.4077	-0.083
Mof_C 	C 	0.4476	0.8044	0.2847	0.008
Mof_C 	C 	0.3825	0.9043	0.2763	0.322
Mof_C 	C 	0.4468	0.8404	0.2481	-0.078
Mof_C 	C 	0.4476	0.4803	0.1956	0.01
Mof_C 	C 	0.3825	0.372	0.0957	0.328
Mof_C 	C 	0.4468	0.4077	0.1596	-0.098
Mof_C 	C 	0.4476	0.7153	0.5197	0.007
Mof_C 	C 	0.3825	0.7237	0.628	0.324
Mof_C 	C 	0.4468	0.7519	0.5923	-0.077
Mof_C 	C 	0.5524	0.4803	0.2847	0.01
Mof_C 	C 	0.6175	0.372	0.2763	0.329
Mof_C 	C 	0.5532	0.4077	0.2481	-0.093
Mof_C 	C 	0.5524	0.7153	0.1956	0.008
Mof_C 	C 	0.6175	0.7237	0.0957	0.325
Mof_C 	C 	0.5532	0.7519	0.1596	-0.089
Mof_C 	C 	0.5524	0.8044	0.5197	0.006
Mof_C 	C 	0.6175	0.9043	0.628	0.32
Mof_C 	C 	0.5532	0.8404	0.5923	-0.071
Mof_C 	C 	0.0524	0.5197	0.7153	0.008
Mof_C 	C 	0.1175	0.628	0.7237	0.323
Mof_C 	C 	0.0532	0.5923	0.7519	-0.077
Mof_C 	C 	0.0524	0.2847	0.8044	0.009
Mof_C 	C 	0.1175	0.2763	0.9043	0.321
Mof_C 	C 	0.0532	0.2481	0.8404	-0.078
Mof_C 	C 	0.0524	0.1956	0.4803	0.012
Mof_C 	C 	0.1175	0.0957	0.372	0.327
Mof_C 	C 	0.0532	0.1596	0.4077	-0.097
Mof_C 	C 	1.37369e-32	0.7031	0.2969	0.054
Mof_C 	C 	-1.60263e-32	0.74125	0.25875	-0.039
Mof_C 	C 	9.1579e-33	0.81465	0.18535	0.028
Mof_C 	C 	1.37369e-32	0.5938	0.2969	0.054
Mof_C 	C 	-6.86843e-33	0.5175	0.25875	-0.044
Mof_C 	C 	-4.57895e-33	0.3707	0.18535	0.031
Mof_C 	C 	9.1579e-33	0.7031	0.4062	0.054
Mof_C 	C 	-2.74737e-32	0.74125	0.4825	-0.035
Mof_C 	C 	-0	0.81465	0.6293	0.027
Mof_C 	C 	0.5	0.2969	0.7031	0.051
Mof_C 	C 	0.5	0.25875	0.74125	-0.026
Mof_C 	C 	0.5	0.18535	0.81465	0.041
Mof_C 	C 	0.5	0.4062	0.7031	0.051
Mof_C 	C 	0.5	0.4825	0.74125	-0.022
Mof_C 	C 	0.5	0.6293	0.81465	0.04
Mof_C 	C 	0.5	0.2969	0.5938	0.05
Mof_C 	C 	0.5	0.25875	0.5175	-0.031
Mof_C 	C 	0.5	0.18535	0.3707	0.043
Mof_C 	C 	4.57895e-33	0.2969	0.7031	0.054
Mof_C 	C 	-0	0.25875	0.74125	-0.039
Mof_C 	C 	9.1579e-33	0.18535	0.81465	0.028
Mof_C 	C 	2.28948e-32	0.4062	0.7031	0.054
Mof_C 	C 	-1.83158e-32	0.4825	0.74125	-0.035
Mof_C 	C 	-9.1579e-33	0.6293	0.81465	0.027
Mof_C 	C 	9.1579e-33	0.2969	0.5938	0.054
Mof_C 	C 	-1.37369e-32	0.25875	0.5175	-0.044
Mof_C 	C 	-0	0.18535	0.3707	0.031
Mof_C 	C 	0.5	0.7031	0.2969	0.051
Mof_C 	C 	0.5	0.74125	0.25875	-0.026
Mof_C 	C 	0.5	0.81465	0.18535	0.041
Mof_C 	C 	0.5	0.5938	0.2969	0.05
Mof_C 	C 	0.5	0.5175	0.25875	-0.031
Mof_C 	C 	0.5	0.3707	0.18535	0.043
Mof_C 	C 	0.5	0.7031	0.4062	0.051
Mof_C 	C 	0.5	0.74125	0.4825	-0.022
Mof_C 	C 	0.5	0.81465	0.6293	0.04
Mof_C 	C 	-1.14474e-32	0.6306	0.2612	-0.09
Mof_C 	C 	1.37369e-32	0.6306	0.3694	-0.089
Mof_C 	C 	4.57895e-33	0.7388	0.3694	-0.089
Mof_C 	C 	0.5	0.3694	0.7388	-0.083
Mof_C 	C 	0.5	0.3694	0.6306	-0.084
Mof_C 	C 	0.5	0.2612	0.6306	-0.085
Mof_C 	C 	9.1579e-33	0.3694	0.7388	-0.089
Mof_C 	C 	1.37369e-32	0.3694	0.6306	-0.089
Mof_C 	C 	-4.57895e-33	0.2612	0.6306	-0.09
Mof_C 	C 	0.5	0.6306	0.2612	-0.085
Mof_C 	C 	0.5	0.6306	0.3694	-0.084
Mof_C 	C 	0.5	0.7388	0.3694	-0.083
Mof_O 	O 	0.1423	0.9266	0.2356	-0.354
Mof_O 	O 	0.145	0.9292	0.3397	-0.357
Mof_O 	O 	0.1423	0.309	0.0734	-0.417
Mof_O 	O 	0.145	0.4105	0.0708	-0.424
Mof_O 	O 	0.1423	0.7644	0.691	-0.374
Mof_O 	O 	0.145	0.6603	0.5895	-0.399
Mof_O 	O 	0.6423	0.0734	0.7644	-0.401
Mof_O 	O 	0.645	0.0708	0.6603	-0.422
Mof_O 	O 	0.6423	0.691	0.9266	-0.339
Mof_O 	O 	0.645	0.5895	0.9292	-0.354
Mof_O 	O 	0.6423	0.2356	0.309	-0.401
Mof_O 	O 	0.645	0.3397	0.4105	-0.401
Mof_O 	O 	0.3577	0.691	0.7644	-0.373
Mof_O 	O 	0.355	0.5895	0.6603	-0.398
Mof_O 	O 	0.3577	0.2356	0.9266	-0.353
Mof_O 	O 	0.355	0.3397	0.9292	-0.356
Mof_O 	O 	0.3577	0.0734	0.309	-0.416
Mof_O 	O 	0.355	0.0708	0.4105	-0.423
Mof_O 	O 	0.8577	0.309	0.2356	-0.398
Mof_O 	O 	0.855	0.4105	0.3397	-0.399
Mof_O 	O 	0.8577	0.7644	0.0734	-0.398
Mof_O 	O 	0.855	0.6603	0.0708	-0.42
Mof_O 	O 	0.8577	0.9266	0.691	-0.336
Mof_O 	O 	0.855	0.9292	0.5895	-0.353
Mof_O 	O 	0.8577	0.0734	0.7644	-0.398
Mof_O 	O 	0.855	0.0708	0.6603	-0.42
Mof_O 	O 	0.8577	0.691	0.9266	-0.336
Mof_O 	O 	0.855	0.5895	0.9292	-0.353
Mof_O 	O 	0.8577	0.2356	0.309	-0.398
Mof_O 	O 	0.855	0.3397	0.4105	-0.399
Mof_O 	O 	0.3577	0.9266	0.2356	-0.353
Mof_O 	O 	0.355	0.9292	0.3397	-0.356
Mof_O 	O 	0.3577	0.309	0.0734	-0.416
Mof_O 	O 	0.355	0.4105	0.0708	-0.423
Mof_O 	O 	0.3577	0.7644	0.691	-0.373
Mof_O 	O 	0.355	0.6603	0.5895	-0.398
Mof_O 	O 	0.6423	0.309	0.2356	-0.401
Mof_O 	O 	0.645	0.4105	0.3397	-0.401
Mof_O 	O 	0.6423	0.7644	0.0734	-0.401
Mof_O 	O 	0.645	0.6603	0.0708	-0.422
Mof_O 	O 	0.6423	0.9266	0.691	-0.339
Mof_O 	O 	0.645	0.9292	0.5895	-0.354
Mof_O 	O 	0.1423	0.691	0.7644	-0.374
Mof_O 	O 	0.145	0.5895	0.6603	-0.399
Mof_O 	O 	0.1423	0.2356	0.9266	-0.354
Mof_O 	O 	0.145	0.3397	0.9292	-0.357
Mof_O 	O 	0.1423	0.0734	0.309	-0.417
Mof_O 	O 	0.145	0.0708	0.4105	-0.424
_end
