data_functionalizedCrystal
_audit_creation_method	'EQeq! by Chris Wilmer'
_symmetry_space_group_name_H-M	'P1'
_symmetry_Int_Tables_number	1
_symmetry_cell_setting	triclinic
loop_
_symmetry_equiv_pos_as_xyz
  x,y,z
_cell_length_a	8.62
_cell_length_b	10.238
_cell_length_c	11.075
_cell_angle_alpha	64.03
_cell_angle_beta	71.59
_cell_angle_gamma	80.34
loop_
_atom_site_label
_atom_site_type_symbol
_atom_site_fract_x
_atom_site_fract_y
_atom_site_fract_z
_atom_site_charge
Mof_Eu	Eu	0.86884	0.5626	0.84495	1.922
Mof_Eu	Eu	0.13116	0.4374	0.15505	1.922
Mof_H 	H 	0.9479	0.768	0.1826	0.023
Mof_H 	H 	0.0005	0.0394	0.7752	0.043
Mof_H 	H 	0.4605	0.6533	0.614	0.043
Mof_H 	H 	0.278	0.3819	0.5165	0.05
Mof_H 	H 	0.7742	0.9454	0.4125	0.055
Mof_H 	H 	0.3665	0.8721	0.7368	0.034
Mof_H 	H 	0.0521	0.232	0.8174	0.023
Mof_H 	H 	0.9995	0.9606	0.2248	0.043
Mof_H 	H 	0.5395	0.3467	0.386	0.043
Mof_H 	H 	0.722	0.6181	0.4835	0.05
Mof_H 	H 	0.2258	0.0546	0.5875	0.055
Mof_H 	H 	0.6335	0.1279	0.2632	0.034
Mof_C 	C 	0.97	0.8867	0.975	-0.138
Mof_C 	C 	0.969	0.8619	0.1086	-0.006
Mof_C 	C 	0.0004	0.0236	0.8664	-0.004
Mof_C 	C 	0.9365	0.7652	0.9458	0.376
Mof_C 	C 	0.3438	0.5202	0.5792	-0.067
Mof_C 	C 	0.477	0.5908	0.5677	-0.032
Mof_C 	C 	0.3678	0.4295	0.5101	-0.032
Mof_C 	C 	0.1782	0.5442	0.6625	0.303
Mof_C 	C 	0.5841	0.8901	0.5872	-0.066
Mof_C 	C 	0.6621	0.9672	0.4482	-0.023
Mof_C 	C 	0.4208	0.9233	0.6409	-0.015
Mof_C 	C 	0.6767	0.77	0.6794	0.327
Mof_C 	C 	0.03	0.1133	0.025	-0.138
Mof_C 	C 	0.031	0.1381	0.8914	-0.006
Mof_C 	C 	0.9996	0.9764	0.1336	-0.004
Mof_C 	C 	0.0635	0.2348	0.0542	0.376
Mof_C 	C 	0.6562	0.4798	0.4208	-0.067
Mof_C 	C 	0.523	0.4092	0.4323	-0.032
Mof_C 	C 	0.6322	0.5705	0.4899	-0.032
Mof_C 	C 	0.8218	0.4558	0.3375	0.303
Mof_C 	C 	0.4159	0.1099	0.4128	-0.066
Mof_C 	C 	0.3379	0.0328	0.5518	-0.023
Mof_C 	C 	0.5792	0.0767	0.3591	-0.015
Mof_C 	C 	0.3233	0.23	0.3206	0.327
Mof_O 	O 	0.9693	0.6335	0.0178	-0.583
Mof_O 	O 	0.8766	0.7984	0.8458	-0.453
Mof_O 	O 	0.1588	0.6242	0.7287	-0.422
Mof_O 	O 	0.0569	0.484	0.669	-0.43
Mof_O 	O 	0.8216	0.7415	0.6257	-0.432
Mof_O 	O 	0.6062	0.6979	0.8061	-0.473
Mof_O 	O 	0.0307	0.3665	0.9822	-0.583
Mof_O 	O 	0.1234	0.2016	0.1542	-0.453
Mof_O 	O 	0.8412	0.3758	0.2713	-0.422
Mof_O 	O 	0.9431	0.516	0.331	-0.43
Mof_O 	O 	0.1784	0.2585	0.3743	-0.432
Mof_O 	O 	0.3938	0.3021	0.1939	-0.473
_end
