data_functionalizedCrystal
_audit_creation_method	'EQeq! by Chris Wilmer'
_symmetry_space_group_name_H-M	'P1'
_symmetry_Int_Tables_number	1
_symmetry_cell_setting	triclinic
loop_
_symmetry_equiv_pos_as_xyz
  x,y,z
_cell_length_a	11.3815
_cell_length_b	20.0676
_cell_length_c	29.4371
_cell_angle_alpha	90
_cell_angle_beta	98.782
_cell_angle_gamma	90
loop_
_atom_site_label
_atom_site_type_symbol
_atom_site_fract_x
_atom_site_fract_y
_atom_site_fract_z
_atom_site_charge
Mof_Zn	Zn	0.54099	0.92335	0.54722	1.223
Mof_Zn	Zn	0.52707	0.57823	0.45579	1.225
Mof_Zn	Zn	0.45901	0.42335	0.95278	1.223
Mof_Zn	Zn	0.47293	0.07823	0.04421	1.225
Mof_Zn	Zn	0.45901	0.07665	0.45278	1.223
Mof_Zn	Zn	0.47293	0.42177	0.54421	1.225
Mof_Zn	Zn	0.54099	0.57665	0.04722	1.223
Mof_Zn	Zn	0.52707	0.92177	0.95579	1.225
Mof_H 	H 	0.3854	0.6153	0.7076	0.127
Mof_H 	H 	0.359	0.6222	0.7751	0.127
Mof_H 	H 	0.5501	0.6947	0.5485	0.068
Mof_H 	H 	0.4596	0.5695	0.6453	0.079
Mof_H 	H 	0.482	0.771	0.6703	0.106
Mof_H 	H 	0.4369	0.5709	0.8471	0.08
Mof_H 	H 	0.5229	0.6947	0.9561	0.067
Mof_H 	H 	0.4574	0.7713	0.8266	0.105
Mof_H 	H 	0.3008	0.8876	0.4836	-0.002
Mof_H 	H 	0.1015	0.8889	0.484	0.074
Mof_H 	H 	0.166	0.9612	0.6139	0.076
Mof_H 	H 	0.3626	0.9593	0.6096	0.008
Mof_H 	H 	0.9315	0.8455	0.5062	0.069
Mof_H 	H 	0.7326	0.85	0.5076	0.013
Mof_H 	H 	0.7736	0.9962	0.5976	0.011
Mof_H 	H 	0.9714	0.9991	0.5962	0.071
Mof_H 	H 	0.2951	0.5142	0.4036	0.01
Mof_H 	H 	0.0958	0.5099	0.4043	0.073
Mof_H 	H 	0.1412	0.6455	0.5075	0.069
Mof_H 	H 	0.3433	0.6478	0.5027	0.004
Mof_H 	H 	0.9317	0.4843	0.4306	0.074
Mof_H 	H 	0.7271	0.4878	0.4305	0.011
Mof_H 	H 	0.7468	0.6663	0.4817	0.013
Mof_H 	H 	0.9538	0.6644	0.4877	0.071
Mof_H 	H 	0.6146	0.1153	0.7924	0.128
Mof_H 	H 	0.641	0.1222	0.7249	0.128
Mof_H 	H 	0.4499	0.1947	0.9515	0.069
Mof_H 	H 	0.5404	0.0695	0.8547	0.08
Mof_H 	H 	0.518	0.271	0.8297	0.106
Mof_H 	H 	0.5631	0.0709	0.6529	0.08
Mof_H 	H 	0.4771	0.1947	0.5439	0.067
Mof_H 	H 	0.5426	0.2713	0.6734	0.106
Mof_H 	H 	0.6992	0.3876	0.0164	-0.002
Mof_H 	H 	0.8985	0.3889	0.016	0.074
Mof_H 	H 	0.834	0.4612	0.8861	0.076
Mof_H 	H 	0.6374	0.4593	0.8904	0.009
Mof_H 	H 	0.0685	0.3455	0.9938	0.069
Mof_H 	H 	0.2674	0.35	0.9924	0.013
Mof_H 	H 	0.2264	0.4962	0.9024	0.011
Mof_H 	H 	0.0286	0.4991	0.9038	0.07
Mof_H 	H 	0.7049	0.0142	0.0964	0.01
Mof_H 	H 	0.9042	0.0099	0.0957	0.073
Mof_H 	H 	0.8588	0.1455	0.9925	0.07
Mof_H 	H 	0.6567	0.1478	0.9973	0.005
Mof_H 	H 	0.0683	0.9843	0.0694	0.074
Mof_H 	H 	0.2729	0.9878	0.0695	0.011
Mof_H 	H 	0.2532	0.1663	0.0183	0.013
Mof_H 	H 	0.0462	0.1644	0.0123	0.071
Mof_H 	H 	0.6146	0.3847	0.2924	0.128
Mof_H 	H 	0.641	0.3778	0.2249	0.128
Mof_H 	H 	0.4499	0.3053	0.4515	0.069
Mof_H 	H 	0.5404	0.4305	0.3547	0.08
Mof_H 	H 	0.518	0.229	0.3297	0.106
Mof_H 	H 	0.5631	0.4291	0.1529	0.08
Mof_H 	H 	0.4771	0.3053	0.0439	0.067
Mof_H 	H 	0.5426	0.2287	0.1734	0.105
Mof_H 	H 	0.6992	0.1124	0.5164	-0.002
Mof_H 	H 	0.8985	0.1111	0.516	0.074
Mof_H 	H 	0.834	0.0388	0.3861	0.076
Mof_H 	H 	0.6374	0.0407	0.3904	0.008
Mof_H 	H 	0.0685	0.1545	0.4938	0.069
Mof_H 	H 	0.2674	0.15	0.4924	0.013
Mof_H 	H 	0.2264	0.0038	0.4024	0.011
Mof_H 	H 	0.0286	0.0009	0.4038	0.071
Mof_H 	H 	0.7049	0.4858	0.5964	0.01
Mof_H 	H 	0.9042	0.4901	0.5957	0.073
Mof_H 	H 	0.8588	0.3545	0.4925	0.069
Mof_H 	H 	0.6567	0.3522	0.4973	0.004
Mof_H 	H 	0.0683	0.5157	0.5694	0.074
Mof_H 	H 	0.2729	0.5122	0.5695	0.011
Mof_H 	H 	0.2532	0.3337	0.5183	0.013
Mof_H 	H 	0.0462	0.3356	0.5123	0.071
Mof_H 	H 	0.3854	0.8847	0.2076	0.128
Mof_H 	H 	0.359	0.8778	0.2751	0.128
Mof_H 	H 	0.5501	0.8053	0.0485	0.069
Mof_H 	H 	0.4596	0.9305	0.1453	0.08
Mof_H 	H 	0.482	0.729	0.1703	0.106
Mof_H 	H 	0.4369	0.9291	0.3471	0.08
Mof_H 	H 	0.5229	0.8053	0.4561	0.067
Mof_H 	H 	0.4574	0.7287	0.3266	0.106
Mof_H 	H 	0.3008	0.6124	0.9836	-0.002
Mof_H 	H 	0.1015	0.6111	0.984	0.074
Mof_H 	H 	0.166	0.5388	0.1139	0.076
Mof_H 	H 	0.3626	0.5407	0.1096	0.009
Mof_H 	H 	0.9315	0.6545	0.0062	0.069
Mof_H 	H 	0.7326	0.65	0.0076	0.013
Mof_H 	H 	0.7736	0.5038	0.0976	0.011
Mof_H 	H 	0.9714	0.5009	0.0962	0.07
Mof_H 	H 	0.2951	0.9858	0.9036	0.01
Mof_H 	H 	0.0958	0.9901	0.9043	0.073
Mof_H 	H 	0.1412	0.8545	0.0075	0.07
Mof_H 	H 	0.3433	0.8522	0.0027	0.005
Mof_H 	H 	0.9317	0.0157	0.9306	0.074
Mof_H 	H 	0.7271	0.0122	0.9305	0.011
Mof_H 	H 	0.7468	0.8337	0.9817	0.013
Mof_H 	H 	0.9538	0.8356	0.9877	0.071
Mof_C 	C 	0.5291	0.8128	0.5902	0.268
Mof_C 	C 	0.5121	0.7429	0.6059	-0.013
Mof_C 	C 	0.5252	0.6882	0.5775	-0.027
Mof_C 	C 	0.502	0.6255	0.5919	-0.052
Mof_C 	C 	0.4718	0.6137	0.6354	-0.097
Mof_C 	C 	0.4599	0.6682	0.6646	0.14
Mof_C 	C 	0.4844	0.7341	0.6502	-0.108
Mof_C 	C 	0.5153	0.5651	0.562	0.375
Mof_C 	C 	0.449	0.6876	0.7466	0.31
Mof_C 	C 	0.4457	0.6689	0.8296	0.137
Mof_C 	C 	0.4514	0.6146	0.8591	-0.096
Mof_C 	C 	0.4785	0.6248	0.9064	-0.054
Mof_C 	C 	0.5008	0.6883	0.9239	-0.024
Mof_C 	C 	0.4907	0.7423	0.8944	-0.017
Mof_C 	C 	0.4635	0.734	0.8467	-0.107
Mof_C 	C 	0.4881	0.5641	0.9375	0.385
Mof_C 	C 	0.5078	0.8115	0.912	0.267
Mof_C 	C 	0.2721	0.9042	0.5101	0.079
Mof_C 	C 	0.1536	0.9038	0.5104	-0.127
Mof_C 	C 	0.1072	0.9247	0.549	0.055
Mof_C 	C 	0.1918	0.9463	0.5865	-0.124
Mof_C 	C 	0.3081	0.9457	0.5835	0.077
Mof_C 	C 	0.9796	0.9222	0.551	0.046
Mof_C 	C 	0.9012	0.8778	0.525	-0.113
Mof_C 	C 	0.7825	0.8803	0.5264	0.068
Mof_C 	C 	0.8059	0.9655	0.5783	0.072
Mof_C 	C 	0.9243	0.967	0.5779	-0.117
Mof_C 	C 	0.2626	0.5412	0.4251	0.072
Mof_C 	C 	0.1442	0.5387	0.4249	-0.119
Mof_C 	C 	0.0945	0.5784	0.4548	0.048
Mof_C 	C 	0.1718	0.6187	0.4854	-0.117
Mof_C 	C 	0.2927	0.6189	0.483	0.071
Mof_C 	C 	0.9623	0.5759	0.456	0.062
Mof_C 	C 	0.8963	0.523	0.4413	-0.126
Mof_C 	C 	0.772	0.5257	0.442	0.074
Mof_C 	C 	0.783	0.6273	0.4719	0.071
Mof_C 	C 	0.9082	0.628	0.4739	-0.123
Mof_C 	C 	0.4709	0.3128	0.9098	0.267
Mof_C 	C 	0.4879	0.2429	0.8941	-0.013
Mof_C 	C 	0.4748	0.1882	0.9225	-0.027
Mof_C 	C 	0.498	0.1255	0.9081	-0.051
Mof_C 	C 	0.5282	0.1137	0.8646	-0.097
Mof_C 	C 	0.5401	0.1682	0.8354	0.14
Mof_C 	C 	0.5156	0.2341	0.8498	-0.108
Mof_C 	C 	0.4847	0.0651	0.938	0.375
Mof_C 	C 	0.551	0.1876	0.7534	0.31
Mof_C 	C 	0.5543	0.1689	0.6704	0.137
Mof_C 	C 	0.5486	0.1146	0.6409	-0.096
Mof_C 	C 	0.5215	0.1248	0.5936	-0.054
Mof_C 	C 	0.4992	0.1883	0.5761	-0.024
Mof_C 	C 	0.5093	0.2423	0.6056	-0.016
Mof_C 	C 	0.5365	0.234	0.6533	-0.108
Mof_C 	C 	0.5119	0.0641	0.5625	0.385
Mof_C 	C 	0.4922	0.3115	0.588	0.267
Mof_C 	C 	0.7279	0.4042	0.9899	0.079
Mof_C 	C 	0.8464	0.4038	0.9896	-0.126
Mof_C 	C 	0.8928	0.4247	0.951	0.055
Mof_C 	C 	0.8082	0.4463	0.9135	-0.124
Mof_C 	C 	0.6919	0.4457	0.9165	0.077
Mof_C 	C 	0.0204	0.4222	0.949	0.046
Mof_C 	C 	0.0988	0.3778	0.975	-0.113
Mof_C 	C 	0.2175	0.3803	0.9736	0.068
Mof_C 	C 	0.1941	0.4655	0.9217	0.072
Mof_C 	C 	0.0757	0.467	0.9221	-0.117
Mof_C 	C 	0.7374	0.0412	0.0749	0.071
Mof_C 	C 	0.8558	0.0387	0.0751	-0.119
Mof_C 	C 	0.9055	0.0784	0.0452	0.048
Mof_C 	C 	0.8282	0.1187	0.0146	-0.118
Mof_C 	C 	0.7073	0.1189	0.017	0.07
Mof_C 	C 	0.0377	0.0759	0.044	0.063
Mof_C 	C 	0.1037	0.023	0.0587	-0.127
Mof_C 	C 	0.228	0.0257	0.058	0.073
Mof_C 	C 	0.217	0.1273	0.0281	0.071
Mof_C 	C 	0.0918	0.128	0.0261	-0.123
Mof_C 	C 	0.4709	0.1872	0.4098	0.268
Mof_C 	C 	0.4879	0.2571	0.3941	-0.013
Mof_C 	C 	0.4748	0.3118	0.4225	-0.027
Mof_C 	C 	0.498	0.3745	0.4081	-0.052
Mof_C 	C 	0.5282	0.3863	0.3646	-0.097
Mof_C 	C 	0.5401	0.3318	0.3354	0.14
Mof_C 	C 	0.5156	0.2659	0.3498	-0.108
Mof_C 	C 	0.4847	0.4349	0.438	0.375
Mof_C 	C 	0.551	0.3124	0.2534	0.31
Mof_C 	C 	0.5543	0.3311	0.1704	0.137
Mof_C 	C 	0.5486	0.3854	0.1409	-0.096
Mof_C 	C 	0.5215	0.3752	0.0936	-0.054
Mof_C 	C 	0.4992	0.3117	0.0761	-0.024
Mof_C 	C 	0.5093	0.2577	0.1056	-0.017
Mof_C 	C 	0.5365	0.266	0.1533	-0.107
Mof_C 	C 	0.5119	0.4359	0.0625	0.385
Mof_C 	C 	0.4922	0.1885	0.088	0.267
Mof_C 	C 	0.7279	0.0958	0.4899	0.079
Mof_C 	C 	0.8464	0.0962	0.4896	-0.127
Mof_C 	C 	0.8928	0.0753	0.451	0.055
Mof_C 	C 	0.8082	0.0537	0.4135	-0.124
Mof_C 	C 	0.6919	0.0543	0.4165	0.077
Mof_C 	C 	0.0204	0.0778	0.449	0.046
Mof_C 	C 	0.0988	0.1222	0.475	-0.113
Mof_C 	C 	0.2175	0.1197	0.4736	0.068
Mof_C 	C 	0.1941	0.0345	0.4217	0.072
Mof_C 	C 	0.0757	0.033	0.4221	-0.117
Mof_C 	C 	0.7374	0.4588	0.5749	0.072
Mof_C 	C 	0.8558	0.4613	0.5751	-0.119
Mof_C 	C 	0.9055	0.4216	0.5452	0.048
Mof_C 	C 	0.8282	0.3813	0.5146	-0.117
Mof_C 	C 	0.7073	0.3811	0.517	0.071
Mof_C 	C 	0.0377	0.4241	0.544	0.062
Mof_C 	C 	0.1037	0.477	0.5587	-0.126
Mof_C 	C 	0.228	0.4743	0.558	0.074
Mof_C 	C 	0.217	0.3727	0.5281	0.071
Mof_C 	C 	0.0918	0.372	0.5261	-0.123
Mof_C 	C 	0.5291	0.6872	0.0902	0.267
Mof_C 	C 	0.5121	0.7571	0.1059	-0.013
Mof_C 	C 	0.5252	0.8118	0.0775	-0.027
Mof_C 	C 	0.502	0.8745	0.0919	-0.051
Mof_C 	C 	0.4718	0.8863	0.1354	-0.097
Mof_C 	C 	0.4599	0.8318	0.1646	0.14
Mof_C 	C 	0.4844	0.7659	0.1502	-0.108
Mof_C 	C 	0.5153	0.9349	0.062	0.375
Mof_C 	C 	0.449	0.8124	0.2466	0.31
Mof_C 	C 	0.4457	0.8311	0.3296	0.137
Mof_C 	C 	0.4514	0.8854	0.3591	-0.096
Mof_C 	C 	0.4785	0.8752	0.4064	-0.054
Mof_C 	C 	0.5008	0.8117	0.4239	-0.024
Mof_C 	C 	0.4907	0.7577	0.3944	-0.016
Mof_C 	C 	0.4635	0.766	0.3467	-0.108
Mof_C 	C 	0.4881	0.9359	0.4375	0.385
Mof_C 	C 	0.5078	0.6885	0.412	0.267
Mof_C 	C 	0.2721	0.5958	0.0101	0.079
Mof_C 	C 	0.1536	0.5962	0.0104	-0.126
Mof_C 	C 	0.1072	0.5753	0.049	0.055
Mof_C 	C 	0.1918	0.5537	0.0865	-0.124
Mof_C 	C 	0.3081	0.5543	0.0835	0.077
Mof_C 	C 	0.9796	0.5778	0.051	0.046
Mof_C 	C 	0.9012	0.6222	0.025	-0.113
Mof_C 	C 	0.7825	0.6197	0.0264	0.068
Mof_C 	C 	0.8059	0.5345	0.0783	0.072
Mof_C 	C 	0.9243	0.533	0.0779	-0.117
Mof_C 	C 	0.2626	0.9588	0.9251	0.071
Mof_C 	C 	0.1442	0.9613	0.9249	-0.119
Mof_C 	C 	0.0945	0.9216	0.9548	0.048
Mof_C 	C 	0.1718	0.8813	0.9854	-0.118
Mof_C 	C 	0.2927	0.8811	0.983	0.07
Mof_C 	C 	0.9623	0.9241	0.956	0.063
Mof_C 	C 	0.8963	0.977	0.9413	-0.127
Mof_C 	C 	0.772	0.9743	0.942	0.073
Mof_C 	C 	0.783	0.8727	0.9719	0.071
Mof_C 	C 	0.9082	0.872	0.9739	-0.123
Mof_N 	N 	0.4262	0.6524	0.7066	-0.253
Mof_N 	N 	0.4103	0.6548	0.7822	-0.251
Mof_N 	N 	0.352	0.927	0.5452	-0.234
Mof_N 	N 	0.7306	0.9232	0.5529	-0.226
Mof_N 	N 	0.3396	0.5802	0.4543	-0.235
Mof_N 	N 	0.7113	0.5759	0.4572	-0.233
Mof_N 	N 	0.5738	0.1524	0.7934	-0.253
Mof_N 	N 	0.5897	0.1548	0.7178	-0.251
Mof_N 	N 	0.648	0.427	0.9548	-0.234
Mof_N 	N 	0.2694	0.4232	0.9471	-0.226
Mof_N 	N 	0.6604	0.0802	0.0457	-0.235
Mof_N 	N 	0.2887	0.0759	0.0428	-0.233
Mof_N 	N 	0.5738	0.3476	0.2934	-0.253
Mof_N 	N 	0.5897	0.3452	0.2178	-0.251
Mof_N 	N 	0.648	0.073	0.4548	-0.234
Mof_N 	N 	0.2694	0.0768	0.4471	-0.226
Mof_N 	N 	0.6604	0.4198	0.5457	-0.235
Mof_N 	N 	0.2887	0.4241	0.5428	-0.233
Mof_N 	N 	0.4262	0.8476	0.2066	-0.253
Mof_N 	N 	0.4103	0.8452	0.2822	-0.251
Mof_N 	N 	0.352	0.573	0.0452	-0.234
Mof_N 	N 	0.7306	0.5768	0.0529	-0.226
Mof_N 	N 	0.3396	0.9198	0.9543	-0.235
Mof_N 	N 	0.7113	0.9241	0.9572	-0.233
Mof_O 	O 	0.5369	0.86	0.6178	-0.324
Mof_O 	O 	0.5375	0.8205	0.5473	-0.387
Mof_O 	O 	0.5356	0.5719	0.9781	-0.481
Mof_O 	O 	0.4454	0.5109	0.9191	-0.457
Mof_O 	O 	0.5587	0.5741	0.5257	-0.465
Mof_O 	O 	0.4793	0.5103	0.5757	-0.458
Mof_O 	O 	0.5286	0.8193	0.9564	-0.385
Mof_O 	O 	0.5	0.8601	0.8857	-0.33
Mof_O 	O 	0.4968	0.741	0.7499	-0.253
Mof_O 	O 	0.4631	0.36	0.8822	-0.324
Mof_O 	O 	0.4625	0.3205	0.9527	-0.387
Mof_O 	O 	0.4644	0.0719	0.5219	-0.48
Mof_O 	O 	0.5546	0.0109	0.5809	-0.457
Mof_O 	O 	0.4413	0.0741	0.9743	-0.464
Mof_O 	O 	0.5207	0.0103	0.9243	-0.458
Mof_O 	O 	0.4714	0.3193	0.5436	-0.385
Mof_O 	O 	0.5	0.3601	0.6143	-0.33
Mof_O 	O 	0.5032	0.241	0.7501	-0.253
Mof_O 	O 	0.4631	0.14	0.3822	-0.324
Mof_O 	O 	0.4625	0.1795	0.4527	-0.387
Mof_O 	O 	0.4644	0.4281	0.0219	-0.481
Mof_O 	O 	0.5546	0.4891	0.0809	-0.457
Mof_O 	O 	0.4413	0.4259	0.4743	-0.465
Mof_O 	O 	0.5207	0.4897	0.4243	-0.458
Mof_O 	O 	0.4714	0.1807	0.0436	-0.385
Mof_O 	O 	0.5	0.1399	0.1143	-0.33
Mof_O 	O 	0.5032	0.259	0.2501	-0.253
Mof_O 	O 	0.5369	0.64	0.1178	-0.324
Mof_O 	O 	0.5375	0.6795	0.0473	-0.387
Mof_O 	O 	0.5356	0.9281	0.4781	-0.48
Mof_O 	O 	0.4454	0.9891	0.4191	-0.457
Mof_O 	O 	0.5587	0.9259	0.0257	-0.464
Mof_O 	O 	0.4793	0.9897	0.0757	-0.458
Mof_O 	O 	0.5286	0.6807	0.4564	-0.385
Mof_O 	O 	0.5	0.6399	0.3857	-0.33
Mof_O 	O 	0.4968	0.759	0.2499	-0.253
_end
