data_functionalizedCrystal
_audit_creation_method	'EQeq! by Chris Wilmer'
_symmetry_space_group_name_H-M	'P1'
_symmetry_Int_Tables_number	1
_symmetry_cell_setting	triclinic
loop_
_symmetry_equiv_pos_as_xyz
  x,y,z
_cell_length_a	6.5685
_cell_length_b	16.4032
_cell_length_c	13.1796
_cell_angle_alpha	90
_cell_angle_beta	90
_cell_angle_gamma	90
loop_
_atom_site_label
_atom_site_type_symbol
_atom_site_fract_x
_atom_site_fract_y
_atom_site_fract_z
_atom_site_charge
Mof_O 	O 	0.1703	0.16798	0.8395	-1.735
Mof_C 	C 	0.8051	0.0294	0.9577	0.022
Mof_O 	O 	0.6703	0.66798	0.3395	-1.724
Mof_C 	C 	0.3051	0.5294	0.4577	0.07
Mof_O 	O 	0.8297	0.33202	0.8395	-1.756
Mof_C 	C 	0.1949	0.4706	0.9577	0.056
Mof_O 	O 	0.3297	0.83202	0.3395	-1.724
Mof_C 	C 	0.6949	0.9706	0.4577	0.046
Mof_O 	O 	0.8297	0.66798	0.1605	-1.756
Mof_C 	C 	0.1949	0.5294	0.0423	0.056
Mof_O 	O 	0.3297	0.16798	0.6605	-1.724
Mof_C 	C 	0.6949	0.0294	0.5423	0.046
Mof_O 	O 	0.1703	0.83202	0.1605	-1.735
Mof_C 	C 	0.8051	0.9706	0.0423	0.022
Mof_O 	O 	0.6703	0.33202	0.6605	-1.724
Mof_C 	C 	0.3051	0.4706	0.5423	0.07
Mof_O 	O 	0.8297	0.83202	0.1605	-1.756
Mof_C 	C 	0.1949	0.9706	0.0423	0.056
Mof_O 	O 	0.3297	0.33202	0.6605	-1.724
Mof_C 	C 	0.6949	0.4706	0.5423	0.047
Mof_O 	O 	0.1703	0.66798	0.1605	-1.735
Mof_C 	C 	0.8051	0.5294	0.0423	0.022
Mof_O 	O 	0.6703	0.16798	0.6605	-1.724
Mof_C 	C 	0.3051	0.0294	0.5423	0.069
Mof_O 	O 	0.1703	0.33202	0.8395	-1.735
Mof_C 	C 	0.8051	0.4706	0.9577	0.022
Mof_O 	O 	0.6703	0.83202	0.3395	-1.724
Mof_C 	C 	0.3051	0.9706	0.4577	0.069
Mof_O 	O 	0.8297	0.16798	0.8395	-1.756
Mof_C 	C 	0.1949	0.0294	0.9577	0.056
Mof_O 	O 	0.3297	0.66798	0.3395	-1.724
Mof_C 	C 	0.6949	0.5294	0.4577	0.047
Mof_Al	Al	0.25	0.25	0.75	7.31
Mof_Al	Al	0.75	0.25	0.75	7.21
Mof_Al	Al	0.75	0.75	0.25	7.21
Mof_Al	Al	0.25	0.75	0.25	7.31
Mof_F 	F 	5.22556e-33	0.25	0.6946	-2.432
Mof_F 	F 	0.5	0.75	0.1946	-2.455
Mof_F 	F 	4.22953e-32	0.75	0.3054	-2.432
Mof_F 	F 	0.5	0.25	0.8054	-2.455
Mof_C 	C 	7.10107e-33	0.0632	0.9439	-0.254
Mof_C 	C 	2.43114e-32	0.1388	0.8686	1.262
Mof_C 	C 	0.5	0.5632	0.4439	-0.294
Mof_C 	C 	0.5	0.6388	0.3686	1.215
Mof_C 	C 	7.10107e-33	0.4368	0.9439	-0.254
Mof_C 	C 	2.43114e-32	0.3612	0.8686	1.262
Mof_C 	C 	0.5	0.9368	0.4439	-0.294
Mof_C 	C 	0.5	0.8612	0.3686	1.214
Mof_C 	C 	-6.89003e-34	0.5632	0.0561	-0.254
Mof_C 	C 	-5.67776e-33	0.6388	0.1314	1.262
Mof_C 	C 	0.5	0.0632	0.5561	-0.294
Mof_C 	C 	0.5	0.1388	0.6314	1.214
Mof_C 	C 	-6.89003e-34	0.9368	0.0561	-0.254
Mof_C 	C 	-5.67776e-33	0.8612	0.1314	1.262
Mof_C 	C 	0.5	0.4368	0.5561	-0.294
Mof_C 	C 	0.5	0.3612	0.6314	1.215
_end
