data_functionalizedCrystal
_audit_creation_method	'EQeq! by Chris Wilmer'
_symmetry_space_group_name_H-M	'P1'
_symmetry_Int_Tables_number	1
_symmetry_cell_setting	triclinic
loop_
_symmetry_equiv_pos_as_xyz
  x,y,z
_cell_length_a	9.674
_cell_length_b	11.761
_cell_length_c	12.315
_cell_angle_alpha	90
_cell_angle_beta	99.285
_cell_angle_gamma	90
loop_
_atom_site_label
_atom_site_type_symbol
_atom_site_fract_x
_atom_site_fract_y
_atom_site_fract_z
_atom_site_charge
Mof_Eu	Eu	0.71368	0.51552	0.33081	2.331
Mof_O 	O 	0.807	0.6409	0.2055	-0.455
Mof_O 	O 	0.866	0.8194	0.1726	-0.432
Mof_O 	O 	0.6396	0.7159	0.3435	-0.422
Mof_O 	O 	0.6851	0.895	0.3006	-0.418
Mof_O 	O 	0.6813	0.5115	0.5224	-0.437
Mof_O 	O 	0.5335	0.4854	0.6428	-0.435
Mof_O 	O 	0.916	0.6182	0.4341	-0.426
Mof_O 	O 	0.1006	0.6088	0.5673	-0.419
Mof_C 	C 	0.8002	0.7455	0.2175	0.292
Mof_C 	C 	0.699	0.7897	0.2946	0.27
Mof_C 	C 	0.5625	0.4992	0.5474	0.29
Mof_C 	C 	0.0046	0.5657	0.4997	0.285
Mof_Eu	Eu	0.78632	0.01552	0.16919	2.28
Mof_O 	O 	0.693	0.1409	0.2945	-0.452
Mof_O 	O 	0.634	0.3194	0.3274	-0.442
Mof_O 	O 	0.8604	0.2159	0.1565	-0.425
Mof_O 	O 	0.8149	0.395	0.1994	-0.43
Mof_O 	O 	0.8187	0.0115	0.9776	-0.418
Mof_O 	O 	0.9665	0.9854	0.8572	-0.425
Mof_O 	O 	0.584	0.1182	0.0659	-0.425
Mof_O 	O 	0.3994	0.1088	0.9327	-0.398
Mof_C 	C 	0.6998	0.2455	0.2825	0.291
Mof_C 	C 	0.801	0.2897	0.2054	0.27
Mof_C 	C 	0.9375	0.9992	0.9526	0.279
Mof_C 	C 	0.4954	0.0657	0.0003	0.271
Mof_Eu	Eu	0.28632	0.48448	0.66919	2.331
Mof_O 	O 	0.193	0.3591	0.7945	-0.455
Mof_O 	O 	0.134	0.1806	0.8274	-0.432
Mof_O 	O 	0.3604	0.2841	0.6565	-0.422
Mof_O 	O 	0.3149	0.105	0.6994	-0.418
Mof_O 	O 	0.3187	0.4885	0.4776	-0.437
Mof_O 	O 	0.4665	0.5146	0.3572	-0.435
Mof_O 	O 	0.084	0.3818	0.5659	-0.426
Mof_O 	O 	0.8994	0.3912	0.4327	-0.419
Mof_C 	C 	0.1998	0.2545	0.7825	0.292
Mof_C 	C 	0.301	0.2103	0.7054	0.27
Mof_C 	C 	0.4375	0.5008	0.4526	0.29
Mof_C 	C 	0.9954	0.4343	0.5003	0.285
Mof_Eu	Eu	0.21368	0.98448	0.83081	2.28
Mof_O 	O 	0.307	0.8591	0.7055	-0.452
Mof_O 	O 	0.366	0.6806	0.6726	-0.442
Mof_O 	O 	0.1396	0.7841	0.8435	-0.425
Mof_O 	O 	0.1851	0.605	0.8006	-0.43
Mof_O 	O 	0.1813	0.9885	0.0224	-0.418
Mof_O 	O 	0.0335	0.0146	0.1428	-0.425
Mof_O 	O 	0.416	0.8818	0.9341	-0.425
Mof_O 	O 	0.6006	0.8912	0.0673	-0.398
Mof_C 	C 	0.3002	0.7545	0.7175	0.291
Mof_C 	C 	0.199	0.7103	0.7946	0.27
Mof_C 	C 	0.0625	0.0008	0.0474	0.279
Mof_C 	C 	0.5046	0.9343	0.9997	0.271
_end
