data_functionalizedCrystal
_audit_creation_method	'EQeq! by Chris Wilmer'
_symmetry_space_group_name_H-M	'P1'
_symmetry_Int_Tables_number	1
_symmetry_cell_setting	triclinic
loop_
_symmetry_equiv_pos_as_xyz
  x,y,z
_cell_length_a	7.0472
_cell_length_b	13.4919
_cell_length_c	13.4919
_cell_angle_alpha	97.1364
_cell_angle_beta	98.6585
_cell_angle_gamma	98.6585
loop_
_atom_site_label
_atom_site_type_symbol
_atom_site_fract_x
_atom_site_fract_y
_atom_site_fract_z
_atom_site_charge
Mof_Co	Co	-0	0	-0	1.015
Mof_Co	Co	0.5	1.1465e-17	0.5	1.108
Mof_Co	Co	0.5	0.5	-0	1.108
Mof_H 	H 	0.0614	0.0028	0.7746	-0.027
Mof_H 	H 	0.5819	0.0061	0.8843	0.063
Mof_H 	H 	0.4145	0.0072	0.7254	0.025
Mof_H 	H 	0.9386	0.2254	0.9972	0.14
Mof_H 	H 	0.4181	0.1157	0.9939	0.072
Mof_H 	H 	0.5855	0.2746	0.9928	0.057
Mof_H 	H 	0.9386	0.9972	0.2254	0.14
Mof_H 	H 	0.4181	0.9939	0.1157	0.072
Mof_H 	H 	0.5855	0.9928	0.2746	0.057
Mof_H 	H 	0.0614	0.7746	0.0028	-0.027
Mof_H 	H 	0.5819	0.8843	0.0061	0.063
Mof_H 	H 	0.4145	0.7254	0.0072	0.025
Mof_C 	C 	0.8277	0.00256	0.66966	0.014
Mof_C 	C 	0.9281	0.00321	0.76587	0.105
Mof_C 	C 	0.6489	0.00542	0.82996	0.002
Mof_C 	C 	0.5473	0.00561	0.73365	0.031
Mof_C 	C 	0.9213	0.00078	0.57988	0.052
Mof_C 	C 	0.1723	0.33034	0.99744	0.064
Mof_C 	C 	0.0719	0.23413	0.99679	-0.066
Mof_C 	C 	0.3511	0.17004	0.99458	0.004
Mof_C 	C 	0.4527	0.26635	0.99439	0.064
Mof_C 	C 	0.0787	0.42012	0.99922	0.188
Mof_C 	C 	0.1723	0.99744	0.33034	0.064
Mof_C 	C 	0.0719	0.99679	0.23413	-0.066
Mof_C 	C 	0.3511	0.99458	0.17004	0.004
Mof_C 	C 	0.4527	0.99439	0.26635	0.064
Mof_C 	C 	0.0787	0.99922	0.42012	0.188
Mof_C 	C 	0.8277	0.66966	0.00256	0.014
Mof_C 	C 	0.9281	0.76587	0.00321	0.105
Mof_C 	C 	0.6489	0.82996	0.00542	0.002
Mof_C 	C 	0.5473	0.73365	0.00561	0.031
Mof_C 	C 	0.9213	0.57988	0.00078	0.052
Mof_N 	N 	0.6338	0.00357	0.65287	-0.208
Mof_N 	N 	0.8399	0.00436	0.84696	-0.181
Mof_N 	N 	0.8067	0.99985	0.49081	-0.065
Mof_N 	N 	0.114	0.0002	0.59182	-0.108
Mof_N 	N 	0.3662	0.34713	0.99643	-0.169
Mof_N 	N 	0.1601	0.15304	0.99564	-0.158
Mof_N 	N 	0.1933	0.50919	0.00015	-0.25
Mof_N 	N 	0.886	0.40818	0.9998	-0.048
Mof_N 	N 	0.3662	0.99643	0.34713	-0.169
Mof_N 	N 	0.1601	0.99564	0.15304	-0.158
Mof_N 	N 	0.1933	0.00015	0.50919	-0.25
Mof_N 	N 	0.886	0.9998	0.40818	-0.048
Mof_N 	N 	0.6338	0.65287	0.00357	-0.208
Mof_N 	N 	0.8399	0.84696	0.00436	-0.181
Mof_N 	N 	0.8067	0.49081	0.99985	-0.065
Mof_N 	N 	0.114	0.59182	0.0002	-0.108
Mof_Cl	Cl	0.6043	0.17652	0.52468	-0.438
Mof_Cl	Cl	0.3957	0.47532	0.82348	-0.325
Mof_Cl	Cl	0.3957	0.82348	0.47532	-0.325
Mof_Cl	Cl	0.6043	0.52468	0.17652	-0.438
Mof_Cl	Cl	0.76422	0.07688	0.07688	-0.645
Mof_Cl	Cl	0.23578	0.92312	0.92312	-0.262
_end
