data_functionalizedCrystal
_audit_creation_method	'EQeq! by Chris Wilmer'
_symmetry_space_group_name_H-M	'P1'
_symmetry_Int_Tables_number	1
_symmetry_cell_setting	triclinic
loop_
_symmetry_equiv_pos_as_xyz
  x,y,z
_cell_length_a	9.6615
_cell_length_b	10.49
_cell_length_c	11.9404
_cell_angle_alpha	110.295
_cell_angle_beta	91.875
_cell_angle_gamma	114.86
loop_
_atom_site_label
_atom_site_type_symbol
_atom_site_fract_x
_atom_site_fract_y
_atom_site_fract_z
_atom_site_charge
Mof_S 	S 	0.02389	0.05301	0.24333	-0.006
Mof_S 	S 	0.50972	0.54185	0.36569	0.105
Mof_Mg	Mg	0.52862	0.08436	0.32661	1.477
Mof_O 	O 	0.4554	0.8841	0.35015	-0.465
Mof_O 	O 	0.7617	0.1072	0.33026	-0.378
Mof_O 	O 	0.4405	0.7941	0.49545	-0.477
Mof_O 	O 	0.592	0.285	0.30318	-0.478
Mof_O 	O 	0.3068	0.0156	0.25045	-0.545
Mof_O 	O 	0.2848	0.9208	0.04735	-0.498
Mof_O 	O 	0.59743	0.9856	0.1541	-0.492
Mof_O 	O 	0.5464	0.2219	0.10122	-0.521
Mof_C 	C 	0.4627	0.7943	0.3924	0.481
Mof_C 	C 	0.5636	0.3066	0.2101	0.435
Mof_C 	C 	0.7275	0.0265	0.2172	0.195
Mof_C 	C 	0.8381	0.9743	0.1609	0.051
Mof_C 	C 	0.0709	0.9384	0.1266	-0.03
Mof_C 	C 	0.2348	0.9593	0.1417	0.479
Mof_C 	C 	0.8146	0.8638	0.0493	-0.149
Mof_H 	H 	0.7204	0.8077	0.9926	0.141
Mof_C 	C 	0.9488	0.8439	0.0289	-0.1
Mof_H 	H 	0.9533	0.7743	0.9571	0.123
Mof_C 	C 	0.546	0.4474	0.2307	-0.122
Mof_C 	C 	0.4963	0.6697	0.3128	-0.129
Mof_C 	C 	0.5203	0.6411	0.1969	0.002
Mof_H 	H 	0.5185	0.6995	0.1539	0.035
Mof_C 	C 	0.5484	0.5127	0.1491	0.001
Mof_H 	H 	0.5664	0.4767	0.071	0.02
Mof_S 	S 	0.97611	0.94699	0.75667	0.183
Mof_S 	S 	0.49028	0.45815	0.63431	0.103
Mof_Mg	Mg	0.47138	0.91564	0.67339	1.482
Mof_O 	O 	0.5446	0.1159	0.64985	-0.511
Mof_O 	O 	0.2383	0.8928	0.66974	-0.412
Mof_O 	O 	0.5595	0.2059	0.50455	-0.5
Mof_O 	O 	0.408	0.715	0.69682	-0.457
Mof_O 	O 	0.6932	0.9844	0.74955	-0.443
Mof_O 	O 	0.7152	0.0792	0.95265	-0.448
Mof_O 	O 	0.40257	0.0144	0.8459	-0.606
Mof_O 	O 	0.4536	0.7781	0.89878	-0.448
Mof_C 	C 	0.5373	0.2057	0.6076	0.487
Mof_C 	C 	0.4364	0.6934	0.7899	0.423
Mof_C 	C 	0.2725	0.9735	0.7828	0.486
Mof_C 	C 	0.1619	0.0257	0.8391	-0.223
Mof_C 	C 	0.9291	0.0616	0.8734	-0.191
Mof_C 	C 	0.7652	0.0407	0.8583	0.405
Mof_C 	C 	0.1854	0.1362	0.9507	0.132
Mof_H 	H 	0.2796	0.1923	0.0074	-0.06
Mof_C 	C 	0.0512	0.1561	0.9711	0.13
Mof_H 	H 	0.0467	0.2257	0.0429	-0.043
Mof_C 	C 	0.454	0.5526	0.7693	-0.103
Mof_C 	C 	0.5037	0.3303	0.6872	-0.139
Mof_C 	C 	0.4797	0.3589	0.8031	0.02
Mof_H 	H 	0.4815	0.3005	0.8461	0.052
Mof_C 	C 	0.4516	0.4873	0.8509	-0.008
Mof_H 	H 	0.4336	0.5233	0.929	0.068
Mof_Mg	Mg	0.5	0	-0	1.466
_end
