data_functionalizedCrystal
_audit_creation_method	'EQeq! by Chris Wilmer'
_symmetry_space_group_name_H-M	'P1'
_symmetry_Int_Tables_number	1
_symmetry_cell_setting	triclinic
loop_
_symmetry_equiv_pos_as_xyz
  x,y,z
_cell_length_a	17.3778
_cell_length_b	11.6404
_cell_length_c	18.3475
_cell_angle_alpha	90
_cell_angle_beta	110.413
_cell_angle_gamma	90
loop_
_atom_site_label
_atom_site_type_symbol
_atom_site_fract_x
_atom_site_fract_y
_atom_site_fract_z
_atom_site_charge
Mof_Tb	Tb	0.00103	0.91691	0.40541	2.184
Mof_Tb	Tb	0.49766	0.56926	0.60114	2.229
Mof_S 	S 	0.25036	0.79523	0.41038	0.07
Mof_S 	S 	0.24412	0.70701	0.61034	0.079
Mof_S 	S 	0.26399	0.27363	0.55926	0.082
Mof_O 	O 	0.10109	0.9339	0.35161	-0.567
Mof_O 	O 	0.40481	0.583	0.66402	-0.591
Mof_O 	O 	0.40761	0.414	0.55876	-0.55
Mof_O 	O 	0.40391	0.537	0.78163	-0.603
Mof_O 	O 	0.0781	0.9096	0.22526	-0.564
Mof_O 	O 	0.08026	0.0527	0.49489	-0.618
Mof_O 	O 	0.07064	0.9084	0.62462	-0.528
Mof_O 	O 	0.42418	0.5686	0.43392	-0.604
Mof_O 	O 	0.42104	0.3285	0.45394	-0.578
Mof_O 	O 	0.08231	0.8206	0.51974	-0.553
Mof_C 	C 	0.1163	0.8882	0.2944	0.512
Mof_O 	O 	0.39592	0.6869	0.51591	-0.529
Mof_C 	C 	0.3749	0.5874	0.7165	0.53
Mof_C 	C 	0.1865	0.8073	0.315	-0.187
Mof_O 	O 	0.11692	0.1832	0.5877	-0.512
Mof_C 	C 	0.3894	0.3401	0.5058	0.513
Mof_C 	C 	0.2984	0.6536	0.7017	-0.191
Mof_C 	C 	0.2014	0.161	0.5124	-0.137
Mof_C 	C 	0.193	0.7539	0.7226	-0.014
Mof_H 	H 	0.1628	0.7842	0.7511	0.041
Mof_C 	C 	0.2635	0.6846	0.7551	0.026
Mof_H 	H 	0.2839	0.6625	0.8071	0.006
Mof_C 	C 	0.1036	0.8389	0.5921	0.483
Mof_C 	C 	0.3228	0.2581	0.5014	-0.164
Mof_C 	C 	0.1742	0.7714	0.6448	-0.142
Mof_C 	C 	0.1291	0.131	0.5325	0.437
Mof_C 	C 	0.2263	0.1135	0.4555	-0.017
Mof_H 	H 	0.2001	0.0518	0.4246	0.046
Mof_C 	C 	0.3809	0.647	0.4485	0.455
Mof_C 	C 	0.2802	0.6709	0.3079	-0.016
Mof_H 	H 	0.3045	0.6185	0.2844	0.044
Mof_C 	C 	0.2955	0.1688	0.4497	0.02
Mof_H 	H 	0.3205	0.1473	0.4144	0.02
Mof_C 	C 	0.3089	0.6938	0.3858	-0.139
Mof_C 	C 	0.2091	0.7359	0.2669	0.021
Mof_H 	H 	0.1812	0.7305	0.2136	0.022
Mof_Tb	Tb	0.99897	0.91691	0.09459	2.142
Mof_Tb	Tb	0.50234	0.56926	0.89886	2.228
Mof_S 	S 	0.74964	0.79523	0.08962	0.062
Mof_S 	S 	0.75588	0.70701	0.88966	0.08
Mof_S 	S 	0.73601	0.27363	0.94074	0.082
Mof_O 	O 	0.89891	0.9339	0.14839	-0.568
Mof_O 	O 	0.59519	0.583	0.83598	-0.59
Mof_O 	O 	0.59239	0.414	0.94124	-0.55
Mof_O 	O 	0.59609	0.537	0.71837	-0.603
Mof_O 	O 	0.9219	0.9096	0.27474	-0.572
Mof_O 	O 	0.91974	0.0527	0.00511	-0.608
Mof_O 	O 	0.92936	0.9084	0.87538	-0.519
Mof_O 	O 	0.57582	0.5686	0.06608	-0.603
Mof_O 	O 	0.57896	0.3285	0.04606	-0.576
Mof_O 	O 	0.91769	0.8206	0.98026	-0.542
Mof_C 	C 	0.8837	0.8882	0.2056	0.513
Mof_O 	O 	0.60408	0.6869	0.98409	-0.524
Mof_C 	C 	0.6251	0.5874	0.7835	0.53
Mof_C 	C 	0.8135	0.8073	0.185	-0.188
Mof_O 	O 	0.88308	0.1832	0.9123	-0.505
Mof_C 	C 	0.6106	0.3401	0.9942	0.511
Mof_C 	C 	0.7016	0.6536	0.7983	-0.192
Mof_C 	C 	0.7986	0.161	0.9876	-0.138
Mof_C 	C 	0.807	0.7539	0.7774	-0.015
Mof_H 	H 	0.8372	0.7842	0.7489	0.042
Mof_C 	C 	0.7365	0.6846	0.7449	0.027
Mof_H 	H 	0.7161	0.6625	0.6929	0.006
Mof_C 	C 	0.8964	0.8389	0.9079	0.479
Mof_C 	C 	0.6772	0.2581	0.9986	-0.167
Mof_C 	C 	0.8258	0.7714	0.8552	-0.14
Mof_C 	C 	0.8709	0.131	0.9675	0.431
Mof_C 	C 	0.7737	0.1135	0.0445	-0.016
Mof_H 	H 	0.7999	0.0518	0.0754	0.047
Mof_C 	C 	0.6191	0.647	0.0515	0.448
Mof_C 	C 	0.7198	0.6709	0.1921	-0.018
Mof_H 	H 	0.6955	0.6185	0.2156	0.044
Mof_C 	C 	0.7045	0.1688	0.0503	0.024
Mof_H 	H 	0.6795	0.1473	0.0856	0.019
Mof_C 	C 	0.6911	0.6938	0.1142	-0.136
Mof_C 	C 	0.7909	0.7359	0.2331	0.021
Mof_H 	H 	0.8188	0.7305	0.2864	0.021
Mof_Tb	Tb	0.99897	0.08309	0.59459	2.183
Mof_Tb	Tb	0.50234	0.43074	0.39886	2.228
Mof_S 	S 	0.74964	0.20477	0.58962	0.069
Mof_S 	S 	0.75588	0.29299	0.38966	0.078
Mof_S 	S 	0.73601	0.72637	0.44074	0.081
Mof_O 	O 	0.89891	0.0661	0.64839	-0.568
Mof_O 	O 	0.59519	0.417	0.33598	-0.591
Mof_O 	O 	0.59239	0.586	0.44124	-0.55
Mof_O 	O 	0.59609	0.463	0.21837	-0.603
Mof_O 	O 	0.9219	0.0904	0.77474	-0.564
Mof_O 	O 	0.91974	0.9473	0.50511	-0.618
Mof_O 	O 	0.92936	0.0916	0.37538	-0.528
Mof_O 	O 	0.57582	0.4314	0.56608	-0.604
Mof_O 	O 	0.57896	0.6715	0.54606	-0.578
Mof_O 	O 	0.91769	0.1794	0.48026	-0.553
Mof_C 	C 	0.8837	0.1118	0.7056	0.512
Mof_O 	O 	0.60408	0.3131	0.48409	-0.529
Mof_C 	C 	0.6251	0.4126	0.2835	0.53
Mof_C 	C 	0.8135	0.1927	0.685	-0.187
Mof_O 	O 	0.88308	0.8168	0.4123	-0.512
Mof_C 	C 	0.6106	0.6599	0.4942	0.513
Mof_C 	C 	0.7016	0.3464	0.2983	-0.191
Mof_C 	C 	0.7986	0.839	0.4876	-0.137
Mof_C 	C 	0.807	0.2461	0.2774	-0.014
Mof_H 	H 	0.8372	0.2158	0.2489	0.041
Mof_C 	C 	0.7365	0.3154	0.2449	0.026
Mof_H 	H 	0.7161	0.3375	0.1929	0.006
Mof_C 	C 	0.8964	0.1611	0.4079	0.483
Mof_C 	C 	0.6772	0.7419	0.4986	-0.164
Mof_C 	C 	0.8258	0.2286	0.3552	-0.142
Mof_C 	C 	0.8709	0.869	0.4675	0.437
Mof_C 	C 	0.7737	0.8865	0.5445	-0.017
Mof_H 	H 	0.7999	0.9482	0.5754	0.046
Mof_C 	C 	0.6191	0.353	0.5515	0.455
Mof_C 	C 	0.7198	0.3291	0.6921	-0.016
Mof_H 	H 	0.6955	0.3815	0.7156	0.044
Mof_C 	C 	0.7045	0.8312	0.5503	0.02
Mof_H 	H 	0.6795	0.8527	0.5856	0.02
Mof_C 	C 	0.6911	0.3062	0.6142	-0.139
Mof_C 	C 	0.7909	0.2641	0.7331	0.021
Mof_H 	H 	0.8188	0.2695	0.7864	0.022
Mof_Tb	Tb	0.00103	0.08309	0.90541	2.142
Mof_Tb	Tb	0.49766	0.43074	0.10114	2.228
Mof_S 	S 	0.25036	0.20477	0.91038	0.062
Mof_S 	S 	0.24412	0.29299	0.11034	0.08
Mof_S 	S 	0.26399	0.72637	0.05926	0.082
Mof_O 	O 	0.10109	0.0661	0.85161	-0.568
Mof_O 	O 	0.40481	0.417	0.16402	-0.59
Mof_O 	O 	0.40761	0.586	0.05876	-0.55
Mof_O 	O 	0.40391	0.463	0.28163	-0.603
Mof_O 	O 	0.0781	0.0904	0.72526	-0.572
Mof_O 	O 	0.08026	0.9473	0.99489	-0.608
Mof_O 	O 	0.07064	0.0916	0.12462	-0.519
Mof_O 	O 	0.42418	0.4314	0.93392	-0.603
Mof_O 	O 	0.42104	0.6715	0.95394	-0.576
Mof_O 	O 	0.08231	0.1794	0.01974	-0.542
Mof_C 	C 	0.1163	0.1118	0.7944	0.513
Mof_O 	O 	0.39592	0.3131	0.01591	-0.524
Mof_C 	C 	0.3749	0.4126	0.2165	0.53
Mof_C 	C 	0.1865	0.1927	0.815	-0.188
Mof_O 	O 	0.11692	0.8168	0.0877	-0.505
Mof_C 	C 	0.3894	0.6599	0.0058	0.511
Mof_C 	C 	0.2984	0.3464	0.2017	-0.192
Mof_C 	C 	0.2014	0.839	0.0124	-0.138
Mof_C 	C 	0.193	0.2461	0.2226	-0.015
Mof_H 	H 	0.1628	0.2158	0.2511	0.042
Mof_C 	C 	0.2635	0.3154	0.2551	0.027
Mof_H 	H 	0.2839	0.3375	0.3071	0.006
Mof_C 	C 	0.1036	0.1611	0.0921	0.479
Mof_C 	C 	0.3228	0.7419	0.0014	-0.167
Mof_C 	C 	0.1742	0.2286	0.1448	-0.14
Mof_C 	C 	0.1291	0.869	0.0325	0.431
Mof_C 	C 	0.2263	0.8865	0.9555	-0.016
Mof_H 	H 	0.2001	0.9482	0.9246	0.047
Mof_C 	C 	0.3809	0.353	0.9485	0.448
Mof_C 	C 	0.2802	0.3291	0.8079	-0.018
Mof_H 	H 	0.3045	0.3815	0.7844	0.044
Mof_C 	C 	0.2955	0.8312	0.9497	0.024
Mof_H 	H 	0.3205	0.8527	0.9144	0.019
Mof_C 	C 	0.3089	0.3062	0.8858	-0.136
Mof_C 	C 	0.2091	0.2641	0.7669	0.021
Mof_H 	H 	0.1812	0.2695	0.7136	0.021
_end
