data_functionalizedCrystal
_audit_creation_method	'EQeq! by Chris Wilmer'
_symmetry_space_group_name_H-M	'P1'
_symmetry_Int_Tables_number	1
_symmetry_cell_setting	triclinic
loop_
_symmetry_equiv_pos_as_xyz
  x,y,z
_cell_length_a	30.342
_cell_length_b	16.219
_cell_length_c	21.787
_cell_angle_alpha	90
_cell_angle_beta	134.13
_cell_angle_gamma	90
loop_
_atom_site_label
_atom_site_type_symbol
_atom_site_fract_x
_atom_site_fract_y
_atom_site_fract_z
_atom_site_charge
Mof_Tb	Tb	0.1722	0.12932	0.54317	1.637
Mof_Tb	Tb	0.11072	0.12213	0.20103	1.557
Mof_O 	O 	0.1515	0.1247	0.3446	-0.523
Mof_O 	O 	0.1367	0.019	0.1472	-0.501
Mof_O 	O 	0.2482	0.2726	0.3542	-0.513
Mof_O 	O 	0.2172	0.1525	0.2862	-0.473
Mof_N 	N 	0.1677	0.9977	0.2912	-0.179
Mof_N 	N 	0.3612	0.2434	0.4385	-0.185
Mof_O 	O 	0.1772	0.0586	0.4529	-0.556
Mof_C 	C 	0.1881	0.9909	0.3696	-0.119
Mof_C 	C 	0.3405	0.1139	0.3717	0.009
Mof_H 	H 	0.312	0.0734	0.3338	0.017
Mof_O 	O 	0.4343	0.361	0.5433	-0.548
Mof_C 	C 	0.2237	0.9266	0.4237	0.031
Mof_H 	H 	0.2377	0.9254	0.4776	-0.003
Mof_C 	C 	0.3225	0.1844	0.3846	-0.081
Mof_C 	C 	0.2186	0.8695	0.3173	-0.002
Mof_H 	H 	0.2283	0.8289	0.2982	0.022
Mof_C 	C 	0.2573	0.2046	0.3376	0.409
Mof_C 	C 	0.1839	0.9375	0.2679	-0.071
Mof_C 	C 	0.4224	0.2326	0.4849	-0.107
Mof_C 	C 	0.444	0.1628	0.4764	0.017
Mof_H 	H 	0.4858	0.1551	0.5102	0.006
Mof_C 	C 	0.462	0.3015	0.5469	0.433
Mof_C 	C 	0.2389	0.8647	0.3994	-0.102
Mof_H 	H 	0.2619	0.82	0.4353	0.045
Mof_C 	C 	0.1727	0.0641	0.3922	0.448
Mof_C 	C 	0.4015	0.1045	0.416	-0.099
Mof_H 	H 	0.4142	0.0592	0.4054	0.043
Mof_O 	O 	0.5178	0.2971	0.5932	-0.53
Mof_O 	O 	0.1771	0.8988	0.1556	-0.481
Mof_C 	C 	0.163	0.9533	0.1813	0.399
Mof_Tb	Tb	0.6722	0.62932	0.54317	1.637
Mof_Tb	Tb	0.61072	0.62213	0.20103	1.556
Mof_O 	O 	0.6515	0.6247	0.3446	-0.523
Mof_O 	O 	0.6367	0.519	0.1472	-0.502
Mof_O 	O 	0.7482	0.7726	0.3542	-0.513
Mof_O 	O 	0.7172	0.6525	0.2862	-0.473
Mof_N 	N 	0.6677	0.4977	0.2912	-0.179
Mof_N 	N 	0.8612	0.7434	0.4385	-0.185
Mof_O 	O 	0.6772	0.5586	0.4529	-0.556
Mof_C 	C 	0.6881	0.4909	0.3696	-0.119
Mof_C 	C 	0.8405	0.6139	0.3717	0.009
Mof_H 	H 	0.812	0.5734	0.3338	0.017
Mof_O 	O 	0.9343	0.861	0.5433	-0.548
Mof_C 	C 	0.7237	0.4266	0.4237	0.03
Mof_H 	H 	0.7377	0.4254	0.4776	-0.003
Mof_C 	C 	0.8225	0.6844	0.3846	-0.081
Mof_C 	C 	0.7186	0.3695	0.3173	-0.002
Mof_H 	H 	0.7283	0.3289	0.2982	0.022
Mof_C 	C 	0.7573	0.7046	0.3376	0.409
Mof_C 	C 	0.6839	0.4375	0.2679	-0.071
Mof_C 	C 	0.9224	0.7326	0.4849	-0.107
Mof_C 	C 	0.944	0.6628	0.4764	0.017
Mof_H 	H 	0.9858	0.6551	0.5102	0.005
Mof_C 	C 	0.962	0.8015	0.5469	0.433
Mof_C 	C 	0.7389	0.3647	0.3994	-0.102
Mof_H 	H 	0.7619	0.32	0.4353	0.045
Mof_C 	C 	0.6727	0.5641	0.3922	0.447
Mof_C 	C 	0.9015	0.6045	0.416	-0.099
Mof_H 	H 	0.9142	0.5592	0.4054	0.043
Mof_O 	O 	0.0178	0.7971	0.5932	-0.53
Mof_O 	O 	0.6771	0.3988	0.1556	-0.482
Mof_C 	C 	0.663	0.4533	0.1813	0.401
Mof_Tb	Tb	0.8278	0.12932	0.95683	1.634
Mof_Tb	Tb	0.88928	0.12213	0.29897	1.557
Mof_O 	O 	0.8485	0.1247	0.1554	-0.523
Mof_O 	O 	0.8633	0.019	0.3528	-0.501
Mof_O 	O 	0.7518	0.2726	0.1458	-0.513
Mof_O 	O 	0.7828	0.1525	0.2138	-0.473
Mof_N 	N 	0.8323	0.9977	0.2088	-0.179
Mof_N 	N 	0.6388	0.2434	0.0615	-0.185
Mof_O 	O 	0.8228	0.0586	0.0471	-0.555
Mof_C 	C 	0.8119	0.9909	0.1304	-0.121
Mof_C 	C 	0.6595	0.1139	0.1283	0.011
Mof_H 	H 	0.688	0.0734	0.1662	0.017
Mof_O 	O 	0.5657	0.361	0.9567	-0.548
Mof_C 	C 	0.7763	0.9266	0.0763	0.032
Mof_H 	H 	0.7623	0.9254	0.0224	-0.004
Mof_C 	C 	0.6775	0.1844	0.1154	-0.081
Mof_C 	C 	0.7814	0.8695	0.1827	-0.001
Mof_H 	H 	0.7717	0.8289	0.2018	0.022
Mof_C 	C 	0.7427	0.2046	0.1624	0.409
Mof_C 	C 	0.8161	0.9375	0.2321	-0.071
Mof_C 	C 	0.5776	0.2326	0.0151	-0.107
Mof_C 	C 	0.556	0.1628	0.0236	0.022
Mof_H 	H 	0.5142	0.1551	0.9898	0.003
Mof_C 	C 	0.538	0.3015	0.9531	0.433
Mof_C 	C 	0.7611	0.8647	0.1006	-0.104
Mof_H 	H 	0.7381	0.82	0.0647	0.045
Mof_C 	C 	0.8273	0.0641	0.1078	0.449
Mof_C 	C 	0.5985	0.1045	0.084	-0.102
Mof_H 	H 	0.5858	0.0592	0.0946	0.045
Mof_O 	O 	0.4822	0.2971	0.9068	-0.53
Mof_O 	O 	0.8229	0.8988	0.3444	-0.481
Mof_C 	C 	0.837	0.9533	0.3187	0.4
Mof_Tb	Tb	0.3278	0.62932	0.95683	1.639
Mof_Tb	Tb	0.38928	0.62213	0.29897	1.556
Mof_O 	O 	0.3485	0.6247	0.1554	-0.523
Mof_O 	O 	0.3633	0.519	0.3528	-0.502
Mof_O 	O 	0.2518	0.7726	0.1458	-0.513
Mof_O 	O 	0.2828	0.6525	0.2138	-0.473
Mof_N 	N 	0.3323	0.4977	0.2088	-0.179
Mof_N 	N 	0.1388	0.7434	0.0615	-0.185
Mof_O 	O 	0.3228	0.5586	0.0471	-0.556
Mof_C 	C 	0.3119	0.4909	0.1304	-0.119
Mof_C 	C 	0.1595	0.6139	0.1283	0.008
Mof_H 	H 	0.188	0.5734	0.1662	0.017
Mof_O 	O 	0.0657	0.861	0.9567	-0.547
Mof_C 	C 	0.2763	0.4266	0.0763	0.031
Mof_H 	H 	0.2623	0.4254	0.0224	-0.003
Mof_C 	C 	0.1775	0.6844	0.1154	-0.081
Mof_C 	C 	0.2814	0.3695	0.1827	-0.001
Mof_H 	H 	0.2717	0.3289	0.2018	0.022
Mof_C 	C 	0.2427	0.7046	0.1624	0.409
Mof_C 	C 	0.3161	0.4375	0.2321	-0.071
Mof_C 	C 	0.0776	0.7326	0.0151	-0.107
Mof_C 	C 	0.056	0.6628	0.0236	0.016
Mof_H 	H 	0.0142	0.6551	0.9898	0.007
Mof_C 	C 	0.038	0.8015	0.9531	0.435
Mof_C 	C 	0.2611	0.3647	0.1006	-0.102
Mof_H 	H 	0.2381	0.32	0.0647	0.045
Mof_C 	C 	0.3273	0.5641	0.1078	0.447
Mof_C 	C 	0.0985	0.6045	0.084	-0.098
Mof_H 	H 	0.0858	0.5592	0.0946	0.043
Mof_O 	O 	0.9822	0.7971	0.9068	-0.53
Mof_O 	O 	0.3229	0.3988	0.3444	-0.482
Mof_C 	C 	0.337	0.4533	0.3187	0.401
Mof_Tb	Tb	0.8278	0.87068	0.45683	1.637
Mof_Tb	Tb	0.88928	0.87787	0.79897	1.557
Mof_O 	O 	0.8485	0.8753	0.6554	-0.523
Mof_O 	O 	0.8633	0.981	0.8528	-0.501
Mof_O 	O 	0.7518	0.7274	0.6458	-0.513
Mof_O 	O 	0.7828	0.8475	0.7138	-0.473
Mof_N 	N 	0.8323	0.0023	0.7088	-0.179
Mof_N 	N 	0.6388	0.7566	0.5615	-0.185
Mof_O 	O 	0.8228	0.9414	0.5471	-0.556
Mof_C 	C 	0.8119	0.0091	0.6304	-0.119
Mof_C 	C 	0.6595	0.8861	0.6283	0.009
Mof_H 	H 	0.688	0.9266	0.6662	0.017
Mof_O 	O 	0.5657	0.639	0.4567	-0.548
Mof_C 	C 	0.7763	0.0734	0.5763	0.031
Mof_H 	H 	0.7623	0.0746	0.5224	-0.003
Mof_C 	C 	0.6775	0.8156	0.6154	-0.081
Mof_C 	C 	0.7814	0.1305	0.6827	-0.002
Mof_H 	H 	0.7717	0.1711	0.7018	0.022
Mof_C 	C 	0.7427	0.7954	0.6624	0.409
Mof_C 	C 	0.8161	0.0625	0.7321	-0.071
Mof_C 	C 	0.5776	0.7674	0.5151	-0.107
Mof_C 	C 	0.556	0.8372	0.5236	0.017
Mof_H 	H 	0.5142	0.8449	0.4898	0.006
Mof_C 	C 	0.538	0.6985	0.4531	0.433
Mof_C 	C 	0.7611	0.1353	0.6006	-0.102
Mof_H 	H 	0.7381	0.18	0.5647	0.045
Mof_C 	C 	0.8273	0.9359	0.6078	0.448
Mof_C 	C 	0.5985	0.8955	0.584	-0.099
Mof_H 	H 	0.5858	0.9408	0.5946	0.043
Mof_O 	O 	0.4822	0.7029	0.4068	-0.53
Mof_O 	O 	0.8229	0.1012	0.8444	-0.481
Mof_C 	C 	0.837	0.0467	0.8187	0.399
Mof_Tb	Tb	0.3278	0.37068	0.45683	1.637
Mof_Tb	Tb	0.38928	0.37787	0.79897	1.556
Mof_O 	O 	0.3485	0.3753	0.6554	-0.523
Mof_O 	O 	0.3633	0.481	0.8528	-0.502
Mof_O 	O 	0.2518	0.2274	0.6458	-0.513
Mof_O 	O 	0.2828	0.3475	0.7138	-0.473
Mof_N 	N 	0.3323	0.5023	0.7088	-0.179
Mof_N 	N 	0.1388	0.2566	0.5615	-0.185
Mof_O 	O 	0.3228	0.4414	0.5471	-0.556
Mof_C 	C 	0.3119	0.5091	0.6304	-0.119
Mof_C 	C 	0.1595	0.3861	0.6283	0.009
Mof_H 	H 	0.188	0.4266	0.6662	0.017
Mof_O 	O 	0.0657	0.139	0.4567	-0.548
Mof_C 	C 	0.2763	0.5734	0.5763	0.03
Mof_H 	H 	0.2623	0.5746	0.5224	-0.003
Mof_C 	C 	0.1775	0.3156	0.6154	-0.081
Mof_C 	C 	0.2814	0.6305	0.6827	-0.002
Mof_H 	H 	0.2717	0.6711	0.7018	0.022
Mof_C 	C 	0.2427	0.2954	0.6624	0.409
Mof_C 	C 	0.3161	0.5625	0.7321	-0.071
Mof_C 	C 	0.0776	0.2674	0.5151	-0.107
Mof_C 	C 	0.056	0.3372	0.5236	0.017
Mof_H 	H 	0.0142	0.3449	0.4898	0.005
Mof_C 	C 	0.038	0.1985	0.4531	0.433
Mof_C 	C 	0.2611	0.6353	0.6006	-0.102
Mof_H 	H 	0.2381	0.68	0.5647	0.045
Mof_C 	C 	0.3273	0.4359	0.6078	0.447
Mof_C 	C 	0.0985	0.3955	0.584	-0.099
Mof_H 	H 	0.0858	0.4408	0.5946	0.043
Mof_O 	O 	0.9822	0.2029	0.4068	-0.53
Mof_O 	O 	0.3229	0.6012	0.8444	-0.482
Mof_C 	C 	0.337	0.5467	0.8187	0.401
Mof_Tb	Tb	0.1722	0.87068	0.04317	1.634
Mof_Tb	Tb	0.11072	0.87787	0.70103	1.557
Mof_O 	O 	0.1515	0.8753	0.8446	-0.523
Mof_O 	O 	0.1367	0.981	0.6472	-0.501
Mof_O 	O 	0.2482	0.7274	0.8542	-0.513
Mof_O 	O 	0.2172	0.8475	0.7862	-0.473
Mof_N 	N 	0.1677	0.0023	0.7912	-0.179
Mof_N 	N 	0.3612	0.7566	0.9385	-0.185
Mof_O 	O 	0.1772	0.9414	0.9529	-0.555
Mof_C 	C 	0.1881	0.0091	0.8696	-0.121
Mof_C 	C 	0.3405	0.8861	0.8717	0.011
Mof_H 	H 	0.312	0.9266	0.8338	0.017
Mof_O 	O 	0.4343	0.639	0.0433	-0.548
Mof_C 	C 	0.2237	0.0734	0.9237	0.032
Mof_H 	H 	0.2377	0.0746	0.9776	-0.004
Mof_C 	C 	0.3225	0.8156	0.8846	-0.081
Mof_C 	C 	0.2186	0.1305	0.8173	-0.001
Mof_H 	H 	0.2283	0.1711	0.7982	0.022
Mof_C 	C 	0.2573	0.7954	0.8376	0.409
Mof_C 	C 	0.1839	0.0625	0.7679	-0.071
Mof_C 	C 	0.4224	0.7674	0.9849	-0.107
Mof_C 	C 	0.444	0.8372	0.9764	0.022
Mof_H 	H 	0.4858	0.8449	0.0102	0.003
Mof_C 	C 	0.462	0.6985	0.0469	0.433
Mof_C 	C 	0.2389	0.1353	0.8994	-0.104
Mof_H 	H 	0.2619	0.18	0.9353	0.045
Mof_C 	C 	0.1727	0.9359	0.8922	0.449
Mof_C 	C 	0.4015	0.8955	0.916	-0.102
Mof_H 	H 	0.4142	0.9408	0.9054	0.045
Mof_O 	O 	0.5178	0.7029	0.0932	-0.53
Mof_O 	O 	0.1771	0.1012	0.6556	-0.481
Mof_C 	C 	0.163	0.0467	0.6813	0.4
Mof_Tb	Tb	0.6722	0.37068	0.04317	1.639
Mof_Tb	Tb	0.61072	0.37787	0.70103	1.556
Mof_O 	O 	0.6515	0.3753	0.8446	-0.523
Mof_O 	O 	0.6367	0.481	0.6472	-0.502
Mof_O 	O 	0.7482	0.2274	0.8542	-0.513
Mof_O 	O 	0.7172	0.3475	0.7862	-0.473
Mof_N 	N 	0.6677	0.5023	0.7912	-0.179
Mof_N 	N 	0.8612	0.2566	0.9385	-0.185
Mof_O 	O 	0.6772	0.4414	0.9529	-0.556
Mof_C 	C 	0.6881	0.5091	0.8696	-0.119
Mof_C 	C 	0.8405	0.3861	0.8717	0.008
Mof_H 	H 	0.812	0.4266	0.8338	0.017
Mof_O 	O 	0.9343	0.139	0.0433	-0.547
Mof_C 	C 	0.7237	0.5734	0.9237	0.031
Mof_H 	H 	0.7377	0.5746	0.9776	-0.003
Mof_C 	C 	0.8225	0.3156	0.8846	-0.081
Mof_C 	C 	0.7186	0.6305	0.8173	-0.001
Mof_H 	H 	0.7283	0.6711	0.7982	0.022
Mof_C 	C 	0.7573	0.2954	0.8376	0.409
Mof_C 	C 	0.6839	0.5625	0.7679	-0.071
Mof_C 	C 	0.9224	0.2674	0.9849	-0.107
Mof_C 	C 	0.944	0.3372	0.9764	0.016
Mof_H 	H 	0.9858	0.3449	0.0102	0.007
Mof_C 	C 	0.962	0.1985	0.0469	0.435
Mof_C 	C 	0.7389	0.6353	0.8994	-0.102
Mof_H 	H 	0.7619	0.68	0.9353	0.045
Mof_C 	C 	0.6727	0.4359	0.8922	0.447
Mof_C 	C 	0.9015	0.3955	0.916	-0.098
Mof_H 	H 	0.9142	0.4408	0.9054	0.043
Mof_O 	O 	0.0178	0.2029	0.0932	-0.53
Mof_O 	O 	0.6771	0.6012	0.6556	-0.482
Mof_C 	C 	0.663	0.5467	0.6813	0.401
_end
