data_functionalizedCrystal
_audit_creation_method	'EQeq! by Chris Wilmer'
_symmetry_space_group_name_H-M	'P1'
_symmetry_Int_Tables_number	1
_symmetry_cell_setting	triclinic
loop_
_symmetry_equiv_pos_as_xyz
  x,y,z
_cell_length_a	7.1849
_cell_length_b	10.7329
_cell_length_c	17.1753
_cell_angle_alpha	97.16
_cell_angle_beta	90
_cell_angle_gamma	90
loop_
_atom_site_label
_atom_site_type_symbol
_atom_site_fract_x
_atom_site_fract_y
_atom_site_fract_z
_atom_site_charge
Mof_Gd	Gd	0.02004	0.82501	0.75316	1.752
Mof_Gd	Gd	0.52004	0.67499	0.74684	1.773
Mof_Gd	Gd	0.97996	0.17499	0.24684	1.751
Mof_Gd	Gd	0.47996	0.32501	0.25316	1.772
Mof_H 	H 	0.317	0.507	0.4806	0.062
Mof_H 	H 	0.966	0.19	0.56	0.262
Mof_H 	H 	0.651	0.833	0.5518	0.05
Mof_H 	H 	0.817	0.993	0.0194	0.062
Mof_H 	H 	0.466	0.31	0.94	0.267
Mof_H 	H 	0.151	0.667	0.9482	0.051
Mof_H 	H 	0.683	0.493	0.5194	0.062
Mof_H 	H 	0.034	0.81	0.44	0.262
Mof_H 	H 	0.349	0.167	0.4482	0.05
Mof_H 	H 	0.183	0.007	0.9806	0.062
Mof_H 	H 	0.534	0.69	0.06	0.267
Mof_H 	H 	0.849	0.333	0.0518	0.051
Mof_C 	C 	0.2517	0.5944	0.62557	0.368
Mof_C 	C 	0.1177	0.5479	0.56187	-0.068
Mof_C 	C 	0.9258	0.5423	0.57337	-0.046
Mof_C 	C 	0.8269	0.584	0.64871	0.351
Mof_C 	C 	0.1899	0.5056	0.48818	-0.002
Mof_C 	C 	0.3525	0.8915	0.63405	0.44
Mof_C 	C 	0.4284	0.9527	0.56655	-0.087
Mof_C 	C 	0.3412	0.0537	0.53695	-0.036
Mof_C 	C 	0.1814	0.122	0.57921	0.358
Mof_C 	C 	0.5882	0.901	0.52949	0.018
Mof_C 	C 	0.7517	0.9056	0.87443	0.367
Mof_C 	C 	0.6177	0.9521	0.93813	-0.063
Mof_C 	C 	0.4258	0.9577	0.92663	-0.052
Mof_C 	C 	0.3269	0.916	0.85129	0.352
Mof_C 	C 	0.6899	0.9944	0.01182	-0.002
Mof_C 	C 	0.8525	0.6085	0.86595	0.437
Mof_C 	C 	0.9284	0.5473	0.93345	-0.077
Mof_C 	C 	0.8412	0.4463	0.96305	-0.036
Mof_C 	C 	0.6814	0.378	0.92079	0.359
Mof_C 	C 	0.0882	0.599	0.97051	0.008
Mof_C 	C 	0.7483	0.4056	0.37443	0.368
Mof_C 	C 	0.8823	0.4521	0.43813	-0.068
Mof_C 	C 	0.0742	0.4577	0.42663	-0.046
Mof_C 	C 	0.1731	0.416	0.35129	0.351
Mof_C 	C 	0.8101	0.4944	0.51182	-0.002
Mof_C 	C 	0.6475	0.1085	0.36595	0.44
Mof_C 	C 	0.5716	0.0473	0.43345	-0.087
Mof_C 	C 	0.6588	0.9463	0.46305	-0.036
Mof_C 	C 	0.8186	0.878	0.42079	0.358
Mof_C 	C 	0.4118	0.099	0.47051	0.018
Mof_C 	C 	0.2483	0.0944	0.12557	0.367
Mof_C 	C 	0.3823	0.0479	0.06187	-0.063
Mof_C 	C 	0.5742	0.0423	0.07337	-0.052
Mof_C 	C 	0.6731	0.084	0.14871	0.352
Mof_C 	C 	0.3101	0.0056	0.98818	-0.002
Mof_C 	C 	0.1475	0.3915	0.13405	0.437
Mof_C 	C 	0.0716	0.4527	0.06655	-0.077
Mof_C 	C 	0.1588	0.5537	0.03695	-0.036
Mof_C 	C 	0.3186	0.622	0.07921	0.359
Mof_C 	C 	0.9118	0.401	0.02949	0.008
Mof_O 	O 	0.1894	0.64428	0.69223	-0.52
Mof_O 	O 	0.421	0.5829	0.61371	-0.405
Mof_O 	O 	0.8081	0.70276	0.67043	-0.53
Mof_O 	O 	0.7477	0.50604	0.68465	-0.366
Mof_O 	O 	0.1789	0.88757	0.64288	-0.45
Mof_O 	O 	0.4688	0.84507	0.67622	-0.468
Mof_O 	O 	0.1824	0.1535	0.64992	-0.263
Mof_O 	O 	0.0474	0.1484	0.53301	-0.432
Mof_O 	O 	0.6894	0.85572	0.80777	-0.516
Mof_O 	O 	0.921	0.9171	0.88629	-0.398
Mof_O 	O 	0.3081	0.79724	0.82957	-0.535
Mof_O 	O 	0.2477	0.99396	0.81535	-0.369
Mof_O 	O 	0.6789	0.61243	0.85712	-0.448
Mof_O 	O 	0.9688	0.65493	0.82378	-0.462
Mof_O 	O 	0.6824	0.3465	0.85008	-0.265
Mof_O 	O 	0.5474	0.3516	0.96699	-0.44
Mof_O 	O 	0.8106	0.35572	0.30777	-0.52
Mof_O 	O 	0.579	0.4171	0.38629	-0.405
Mof_O 	O 	0.1919	0.29724	0.32957	-0.53
Mof_O 	O 	0.2523	0.49396	0.31535	-0.366
Mof_O 	O 	0.8211	0.11243	0.35712	-0.45
Mof_O 	O 	0.5312	0.15493	0.32378	-0.468
Mof_O 	O 	0.8176	0.8465	0.35008	-0.263
Mof_O 	O 	0.9526	0.8516	0.46699	-0.432
Mof_O 	O 	0.3106	0.14428	0.19223	-0.516
Mof_O 	O 	0.079	0.0829	0.11371	-0.398
Mof_O 	O 	0.6919	0.20276	0.17043	-0.535
Mof_O 	O 	0.7523	0.00604	0.18465	-0.369
Mof_O 	O 	0.3211	0.38757	0.14288	-0.448
Mof_O 	O 	0.0312	0.34507	0.17622	-0.462
Mof_O 	O 	0.3176	0.6535	0.14992	-0.265
Mof_O 	O 	0.4526	0.6484	0.03301	-0.44
_end
