data_functionalizedCrystal
_audit_creation_method	'EQeq! by Chris Wilmer'
_symmetry_space_group_name_H-M	'P1'
_symmetry_Int_Tables_number	1
_symmetry_cell_setting	triclinic
loop_
_symmetry_equiv_pos_as_xyz
  x,y,z
_cell_length_a	11.5733
_cell_length_b	14.6066
_cell_length_c	14.6066
_cell_angle_alpha	66.7111
_cell_angle_beta	74.6858
_cell_angle_gamma	105.314
loop_
_atom_site_label
_atom_site_type_symbol
_atom_site_fract_x
_atom_site_fract_y
_atom_site_fract_z
_atom_site_charge
Mof_Cu	Cu	0.08442	0.88186	0.51668	0.86
Mof_Cu	Cu	0.6011	0.51668	0.60146	0.852
Mof_Cu	Cu	0.20256	0.60146	0.88186	0.844
Mof_Cu	Cu	0.6011	0.39854	0.48332	0.853
Mof_Cu	Cu	0.20256	0.11814	0.39854	0.857
Mof_Cu	Cu	0.08442	0.48332	0.11814	0.87
Mof_Cu	Cu	0.91586	2.85756e-17	0.40469	0.789
Mof_Cu	Cu	0.32055	0.40469	0.59531	0.81
Mof_Cu	Cu	0.91586	0.59531	-0	0.797
Mof_H 	H 	0.6615	0.8594	0.4188	0.093
Mof_H 	H 	0.5511	0.7488	0.5272	0.128
Mof_H 	H 	0.6238	0.7452	0.4198	0.104
Mof_H 	H 	0.8265	0.5485	0.7079	0.112
Mof_H 	H 	0.9771	0.6293	0.6249	0.111
Mof_H 	H 	0.8898	0.5491	0.596	0.125
Mof_H 	H 	0.0803	0.4188	0.7218	0.114
Mof_H 	H 	0.0783	0.5272	0.724	0.147
Mof_H 	H 	0.0436	0.4198	0.835	0.121
Mof_H 	H 	0.5344	0.7079	0.7436	0.121
Mof_H 	H 	0.602	0.6249	0.7458	0.133
Mof_H 	H 	0.4858	0.596	0.8549	0.132
Mof_H 	H 	0.8021	0.7218	0.8594	0.061
Mof_H 	H 	0.8023	0.724	0.7488	0.1
Mof_H 	H 	0.8786	0.835	0.7452	0.067
Mof_H 	H 	0.278	0.7436	0.5485	0.133
Mof_H 	H 	0.3478	0.7458	0.6293	0.139
Mof_H 	H 	0.3407	0.8549	0.5491	0.142
Mof_H 	H 	0.0803	0.2782	0.5812	0.118
Mof_H 	H 	0.0783	0.276	0.4728	0.153
Mof_H 	H 	0.0436	0.165	0.5802	0.13
Mof_H 	H 	0.5344	0.2564	0.2921	0.132
Mof_H 	H 	0.602	0.2542	0.3751	0.141
Mof_H 	H 	0.4858	0.1451	0.404	0.147
Mof_H 	H 	0.8021	0.1406	0.2782	0.072
Mof_H 	H 	0.8023	0.2512	0.276	0.104
Mof_H 	H 	0.8786	0.2548	0.165	0.076
Mof_H 	H 	0.278	0.4515	0.2564	0.138
Mof_H 	H 	0.3478	0.3707	0.2542	0.145
Mof_H 	H 	0.3407	0.4509	0.1451	0.153
Mof_H 	H 	0.6615	0.5812	0.1406	0.1
Mof_H 	H 	0.5511	0.4728	0.2512	0.131
Mof_H 	H 	0.6238	0.5802	0.2548	0.107
Mof_H 	H 	0.8265	0.2921	0.4515	0.113
Mof_H 	H 	0.9771	0.3751	0.3707	0.109
Mof_H 	H 	0.8898	0.404	0.4509	0.125
Mof_H 	H 	0.1329	0	0.3299	0.23
Mof_H 	H 	0.4628	0.3299	0.6701	0.221
Mof_H 	H 	0.1329	0.6701	-0	0.227
Mof_C 	C 	0.6347	0.7804	0.4637	-0.499
Mof_C 	C 	0.7381	0.7619	0.5022	0.175
Mof_C 	C 	0.8466	0.6813	0.5734	0.178
Mof_C 	C 	0.8887	0.5946	0.6304	-0.503
Mof_C 	C 	0.0984	0.4637	0.7559	-0.529
Mof_C 	C 	0.2403	0.5022	0.7359	0.187
Mof_C 	C 	0.42	0.5734	0.7453	0.184
Mof_C 	C 	0.5191	0.6304	0.775	-0.522
Mof_C 	C 	0.8543	0.7559	0.7804	-0.414
Mof_C 	C 	0.9762	0.7359	0.7619	0.085
Mof_C 	C 	0.1653	0.7453	0.6813	0.196
Mof_C 	C 	0.2941	0.775	0.5946	-0.54
Mof_C 	C 	0.0984	0.2441	0.5363	-0.54
Mof_C 	C 	0.2403	0.2641	0.4978	0.192
Mof_C 	C 	0.42	0.2547	0.4266	0.193
Mof_C 	C 	0.5191	0.225	0.3696	-0.541
Mof_C 	C 	0.8543	0.2196	0.2441	-0.419
Mof_C 	C 	0.9762	0.2381	0.2641	0.076
Mof_C 	C 	0.1653	0.3187	0.2547	0.204
Mof_C 	C 	0.2941	0.4054	0.225	-0.552
Mof_C 	C 	0.6347	0.5363	0.2196	-0.506
Mof_C 	C 	0.7381	0.4978	0.2381	0.178
Mof_C 	C 	0.8466	0.4266	0.3187	0.178
Mof_C 	C 	0.8887	0.3696	0.4054	-0.503
Mof_N 	N 	0.8439	0.8374	0.4844	-0.269
Mof_N 	N 	0.9151	0.7881	0.5308	-0.26
Mof_N 	N 	0.7332	0.6604	0.5582	-0.292
Mof_N 	N 	0.3283	0.4844	0.6782	-0.263
Mof_N 	N 	0.4459	0.5308	0.6811	-0.248
Mof_N 	N 	0.2914	0.5582	0.7814	-0.296
Mof_N 	N 	0.0065	0.6782	0.8374	-0.226
Mof_N 	N 	0.127	0.6811	0.7881	-0.251
Mof_N 	N 	0.0728	0.7814	0.6604	-0.26
Mof_N 	N 	0.3283	0.3218	0.5156	-0.263
Mof_N 	N 	0.4459	0.3189	0.4692	-0.249
Mof_N 	N 	0.2914	0.2186	0.4418	-0.295
Mof_N 	N 	0.0065	0.1626	0.3218	-0.209
Mof_N 	N 	0.127	0.2119	0.3189	-0.246
Mof_N 	N 	0.0728	0.3396	0.2186	-0.252
Mof_N 	N 	0.8439	0.5156	0.1626	-0.267
Mof_N 	N 	0.9151	0.4692	0.2119	-0.26
Mof_N 	N 	0.7332	0.4418	0.3396	-0.292
Mof_O 	O 	0.08925	0	0.38645	-0.754
Mof_O 	O 	0.2411	-2.85756e-17	0.4826	-0.486
Mof_O 	O 	0.4757	0.38645	0.61355	-0.778
Mof_O 	O 	0.7237	0.4826	0.5174	-0.502
Mof_O 	O 	0.08925	0.61355	-0	-0.749
Mof_O 	O 	0.2411	0.5174	-0	-0.478
_end
