data_functionalizedCrystal
_audit_creation_method	'EQeq! by Chris Wilmer'
_symmetry_space_group_name_H-M	'P1'
_symmetry_Int_Tables_number	1
_symmetry_cell_setting	triclinic
loop_
_symmetry_equiv_pos_as_xyz
  x,y,z
_cell_length_a	15.269
_cell_length_b	15.269
_cell_length_c	10.336
_cell_angle_alpha	90
_cell_angle_beta	90
_cell_angle_gamma	120
loop_
_atom_site_label
_atom_site_type_symbol
_atom_site_fract_x
_atom_site_fract_y
_atom_site_fract_z
_atom_site_charge
Mof_O 	O 	0.15562	0.47295	0.06114	-0.181
Mof_P 	P 	0.10779	0.52766	0.68915	0.305
Mof_O 	O 	0.52705	0.68267	0.06114	-0.184
Mof_P 	P 	0.47234	0.58013	0.68915	0.312
Mof_O 	O 	0.31733	0.84438	0.06114	-0.178
Mof_P 	P 	0.41987	0.89221	0.68915	0.319
Mof_O 	O 	0.84438	0.52705	0.56114	-0.528
Mof_P 	P 	0.89221	0.47234	0.18915	0.34
Mof_O 	O 	0.47295	0.31733	0.56114	-0.524
Mof_P 	P 	0.52766	0.41987	0.18915	0.333
Mof_O 	O 	0.68267	0.15562	0.56114	-0.53
Mof_P 	P 	0.58013	0.10779	0.18915	0.323
Mof_O 	O 	0.52705	0.84438	0.06114	-0.18
Mof_P 	P 	0.47234	0.89221	0.68915	0.306
Mof_O 	O 	0.31733	0.47295	0.06114	-0.184
Mof_P 	P 	0.41987	0.52766	0.68915	0.312
Mof_O 	O 	0.15562	0.68267	0.06114	-0.178
Mof_P 	P 	0.10779	0.58013	0.68915	0.319
Mof_O 	O 	0.47295	0.15562	0.56114	-0.528
Mof_P 	P 	0.52766	0.10779	0.18915	0.34
Mof_O 	O 	0.68267	0.52705	0.56114	-0.524
Mof_P 	P 	0.58013	0.47234	0.18915	0.333
Mof_O 	O 	0.84438	0.31733	0.56114	-0.53
Mof_P 	P 	0.89221	0.41987	0.18915	0.323
Mof_Zn	Zn	0.08602	0.54301	0.99905	1.102
Mof_O 	O 	0.05766	0.52883	0.81528	-0.586
Mof_O 	O 	0.04752	0.52376	0.57061	-0.458
Mof_O 	O 	0.217	0.6085	0.67146	-1.056
Mof_Zn	Zn	0.45699	0.54301	0.99905	1.097
Mof_O 	O 	0.47117	0.52883	0.81528	-0.595
Mof_O 	O 	0.47624	0.52376	0.57061	-0.469
Mof_O 	O 	0.3915	0.6085	0.67146	-1.057
Mof_Zn	Zn	0.45699	0.91398	0.99905	1.102
Mof_O 	O 	0.47117	0.94234	0.81528	-0.586
Mof_O 	O 	0.47624	0.95248	0.57061	-0.458
Mof_O 	O 	0.3915	0.783	0.67146	-1.056
Mof_Zn	Zn	0.91398	0.45699	0.49905	1.223
Mof_O 	O 	0.94234	0.47117	0.31528	-0.509
Mof_O 	O 	0.95248	0.47624	0.07061	-0.352
Mof_O 	O 	0.783	0.3915	0.17146	-1.071
Mof_Zn	Zn	0.54301	0.45699	0.49905	1.227
Mof_O 	O 	0.52883	0.47117	0.31528	-0.5
Mof_O 	O 	0.52376	0.47624	0.07061	-0.338
Mof_O 	O 	0.6085	0.3915	0.17146	-1.069
Mof_Zn	Zn	0.54301	0.08602	0.49905	1.223
Mof_O 	O 	0.52883	0.05766	0.31528	-0.509
Mof_O 	O 	0.52376	0.04752	0.07061	-0.352
Mof_O 	O 	0.6085	0.217	0.17146	-1.071
Mof_Al	Al	0.33333	0.66667	0.77877	4.981
Mof_Al	Al	0.66667	0.33333	0.27877	5.342
Mof_P 	P 	0.23546	0.47092	0.98042	0.169
Mof_O 	O 	0.27444	0.54888	0.87825	-1.193
Mof_P 	P 	0.52908	0.76454	0.98042	0.169
Mof_O 	O 	0.45112	0.72556	0.87825	-1.193
Mof_P 	P 	0.23546	0.76454	0.98042	0.172
Mof_O 	O 	0.27444	0.72556	0.87825	-1.192
Mof_P 	P 	0.76454	0.52908	0.48042	0.688
Mof_O 	O 	0.72556	0.45112	0.37825	-1.271
Mof_P 	P 	0.47092	0.23546	0.48042	0.688
Mof_O 	O 	0.54888	0.27444	0.37825	-1.271
Mof_P 	P 	0.76454	0.23546	0.48042	0.685
Mof_O 	O 	0.72556	0.27444	0.37825	-1.272
_end
