data_functionalizedCrystal
_audit_creation_method	'EQeq! by Chris Wilmer'
_symmetry_space_group_name_H-M	'P1'
_symmetry_Int_Tables_number	1
_symmetry_cell_setting	triclinic
loop_
_symmetry_equiv_pos_as_xyz
  x,y,z
_cell_length_a	18.2569
_cell_length_b	9.5382
_cell_length_c	16.9373
_cell_angle_alpha	90
_cell_angle_beta	120.434
_cell_angle_gamma	90
loop_
_atom_site_label
_atom_site_type_symbol
_atom_site_fract_x
_atom_site_fract_y
_atom_site_fract_z
_atom_site_charge
Mof_N 	N 	0.1829	0.587	0.35197	-0.085
Mof_Ba	Ba	0.01159	0.74678	0.99826	1.629
Mof_Co	Co	0.22204	0.77995	0.30499	1.169
Mof_P 	P 	0.14927	0.53355	0.1804	0.439
Mof_O 	O 	0.07479	0.4873	0.09109	-0.533
Mof_O 	O 	0.16425	0.693	0.17968	-0.513
Mof_O 	O 	0.2321	0.4558	0.21305	-0.464
Mof_O 	O 	0.33534	0.6935	0.39039	-0.582
Mof_O 	O 	0.40503	0.496	0.4501	-0.552
Mof_O 	O 	0.14157	0.8633	0.34141	-0.47
Mof_O 	O 	0.04585	0.8189	0.38246	-0.444
Mof_C 	C 	0.11871	0.5173	0.2663	-0.263
Mof_H 	H 	0.0636	0.5603	0.2444	0.069
Mof_H 	H 	0.1145	0.419	0.2781	0.06
Mof_C 	C 	0.25936	0.4996	0.4049	-0.361
Mof_H 	H 	0.2504	0.4095	0.3747	0.106
Mof_H 	H 	0.2674	0.4828	0.4653	0.102
Mof_C 	C 	0.33859	0.5657	0.4149	0.448
Mof_C 	C 	0.1444	0.6386	0.4045	-0.325
Mof_H 	H 	0.1874	0.6425	0.4689	0.083
Mof_H 	H 	0.1006	0.5738	0.3975	0.071
Mof_C 	C 	0.1058	0.7834	0.3727	0.405
Mof_N 	N 	0.6829	0.087	0.35197	-0.086
Mof_Ba	Ba	0.51159	0.24678	0.99826	1.683
Mof_Co	Co	0.72204	0.27995	0.30499	1.168
Mof_P 	P 	0.64927	0.03355	0.1804	0.43
Mof_O 	O 	0.57479	0.9873	0.09109	-0.544
Mof_O 	O 	0.66425	0.193	0.17968	-0.52
Mof_O 	O 	0.7321	0.9558	0.21305	-0.462
Mof_O 	O 	0.83534	0.1935	0.39039	-0.582
Mof_O 	O 	0.90503	0.996	0.4501	-0.552
Mof_O 	O 	0.64157	0.3633	0.34141	-0.471
Mof_O 	O 	0.54585	0.3189	0.38246	-0.445
Mof_C 	C 	0.61871	0.0173	0.2663	-0.269
Mof_H 	H 	0.5636	0.0603	0.2444	0.066
Mof_H 	H 	0.6145	0.919	0.2781	0.062
Mof_C 	C 	0.75936	0.9996	0.4049	-0.357
Mof_H 	H 	0.7504	0.9095	0.3747	0.105
Mof_H 	H 	0.7674	0.9828	0.4653	0.101
Mof_C 	C 	0.83859	0.0657	0.4149	0.443
Mof_C 	C 	0.6444	0.1386	0.4045	-0.324
Mof_H 	H 	0.6874	0.1425	0.4689	0.083
Mof_H 	H 	0.6006	0.0738	0.3975	0.069
Mof_C 	C 	0.6058	0.2834	0.3727	0.404
Mof_N 	N 	0.8171	0.587	0.14803	-0.086
Mof_Ba	Ba	0.98841	0.74678	0.50174	1.675
Mof_Co	Co	0.77796	0.77995	0.19501	1.168
Mof_P 	P 	0.85073	0.53355	0.3196	0.438
Mof_O 	O 	0.92521	0.4873	0.40891	-0.547
Mof_O 	O 	0.83575	0.693	0.32032	-0.519
Mof_O 	O 	0.7679	0.4558	0.28695	-0.465
Mof_O 	O 	0.66466	0.6935	0.10961	-0.583
Mof_O 	O 	0.59497	0.496	0.0499	-0.554
Mof_O 	O 	0.85843	0.8633	0.15859	-0.471
Mof_O 	O 	0.95415	0.8189	0.11754	-0.444
Mof_C 	C 	0.88129	0.5173	0.2337	-0.261
Mof_H 	H 	0.9364	0.5603	0.2556	0.064
Mof_H 	H 	0.8855	0.419	0.2219	0.056
Mof_C 	C 	0.74064	0.4996	0.0951	-0.361
Mof_H 	H 	0.7496	0.4095	0.1253	0.105
Mof_H 	H 	0.7326	0.4828	0.0347	0.101
Mof_C 	C 	0.66141	0.5657	0.0851	0.448
Mof_C 	C 	0.8556	0.6386	0.0955	-0.324
Mof_H 	H 	0.8126	0.6425	0.0311	0.083
Mof_H 	H 	0.8994	0.5738	0.1025	0.069
Mof_C 	C 	0.8942	0.7834	0.1273	0.403
Mof_N 	N 	0.3171	0.087	0.14803	-0.087
Mof_Ba	Ba	0.48841	0.24678	0.50174	1.667
Mof_Co	Co	0.27796	0.27995	0.19501	1.168
Mof_P 	P 	0.35073	0.03355	0.3196	0.436
Mof_O 	O 	0.42521	0.9873	0.40891	-0.546
Mof_O 	O 	0.33575	0.193	0.32032	-0.518
Mof_O 	O 	0.2679	0.9558	0.28695	-0.463
Mof_O 	O 	0.16466	0.1935	0.10961	-0.573
Mof_O 	O 	0.09497	0.996	0.0499	-0.533
Mof_O 	O 	0.35843	0.3633	0.15859	-0.47
Mof_O 	O 	0.45415	0.3189	0.11754	-0.447
Mof_C 	C 	0.38129	0.0173	0.2337	-0.271
Mof_H 	H 	0.4364	0.0603	0.2556	0.067
Mof_H 	H 	0.3855	0.919	0.2219	0.063
Mof_C 	C 	0.24064	0.9996	0.0951	-0.349
Mof_H 	H 	0.2496	0.9095	0.1253	0.104
Mof_H 	H 	0.2326	0.9828	0.0347	0.103
Mof_C 	C 	0.16141	0.0657	0.0851	0.432
Mof_C 	C 	0.3556	0.1386	0.0955	-0.324
Mof_H 	H 	0.3126	0.1425	0.0311	0.083
Mof_H 	H 	0.3994	0.0738	0.1025	0.067
Mof_C 	C 	0.3942	0.2834	0.1273	0.405
Mof_N 	N 	0.8171	0.413	0.64803	-0.085
Mof_Ba	Ba	0.98841	0.25322	0.00174	1.629
Mof_Co	Co	0.77796	0.22005	0.69501	1.169
Mof_P 	P 	0.85073	0.46645	0.8196	0.439
Mof_O 	O 	0.92521	0.5127	0.90891	-0.533
Mof_O 	O 	0.83575	0.307	0.82032	-0.513
Mof_O 	O 	0.7679	0.5442	0.78695	-0.464
Mof_O 	O 	0.66466	0.3065	0.60961	-0.582
Mof_O 	O 	0.59497	0.504	0.5499	-0.552
Mof_O 	O 	0.85843	0.1367	0.65859	-0.47
Mof_O 	O 	0.95415	0.1811	0.61754	-0.444
Mof_C 	C 	0.88129	0.4827	0.7337	-0.263
Mof_H 	H 	0.9364	0.4397	0.7556	0.069
Mof_H 	H 	0.8855	0.581	0.7219	0.06
Mof_C 	C 	0.74064	0.5004	0.5951	-0.361
Mof_H 	H 	0.7496	0.5905	0.6253	0.106
Mof_H 	H 	0.7326	0.5172	0.5347	0.102
Mof_C 	C 	0.66141	0.4343	0.5851	0.448
Mof_C 	C 	0.8556	0.3614	0.5955	-0.325
Mof_H 	H 	0.8126	0.3575	0.5311	0.083
Mof_H 	H 	0.8994	0.4262	0.6025	0.071
Mof_C 	C 	0.8942	0.2166	0.6273	0.405
Mof_N 	N 	0.3171	0.913	0.64803	-0.086
Mof_Ba	Ba	0.48841	0.75322	0.00174	1.683
Mof_Co	Co	0.27796	0.72005	0.69501	1.168
Mof_P 	P 	0.35073	0.96645	0.8196	0.43
Mof_O 	O 	0.42521	0.0127	0.90891	-0.544
Mof_O 	O 	0.33575	0.807	0.82032	-0.52
Mof_O 	O 	0.2679	0.0442	0.78695	-0.462
Mof_O 	O 	0.16466	0.8065	0.60961	-0.582
Mof_O 	O 	0.09497	0.004	0.5499	-0.552
Mof_O 	O 	0.35843	0.6367	0.65859	-0.471
Mof_O 	O 	0.45415	0.6811	0.61754	-0.445
Mof_C 	C 	0.38129	0.9827	0.7337	-0.269
Mof_H 	H 	0.4364	0.9397	0.7556	0.066
Mof_H 	H 	0.3855	0.081	0.7219	0.062
Mof_C 	C 	0.24064	0.0004	0.5951	-0.357
Mof_H 	H 	0.2496	0.0905	0.6253	0.105
Mof_H 	H 	0.2326	0.0172	0.5347	0.101
Mof_C 	C 	0.16141	0.9343	0.5851	0.443
Mof_C 	C 	0.3556	0.8614	0.5955	-0.324
Mof_H 	H 	0.3126	0.8575	0.5311	0.083
Mof_H 	H 	0.3994	0.9262	0.6025	0.069
Mof_C 	C 	0.3942	0.7166	0.6273	0.404
Mof_N 	N 	0.1829	0.413	0.85197	-0.086
Mof_Ba	Ba	0.01159	0.25322	0.49826	1.675
Mof_Co	Co	0.22204	0.22005	0.80499	1.168
Mof_P 	P 	0.14927	0.46645	0.6804	0.438
Mof_O 	O 	0.07479	0.5127	0.59109	-0.547
Mof_O 	O 	0.16425	0.307	0.67968	-0.519
Mof_O 	O 	0.2321	0.5442	0.71305	-0.465
Mof_O 	O 	0.33534	0.3065	0.89039	-0.583
Mof_O 	O 	0.40503	0.504	0.9501	-0.554
Mof_O 	O 	0.14157	0.1367	0.84141	-0.471
Mof_O 	O 	0.04585	0.1811	0.88246	-0.444
Mof_C 	C 	0.11871	0.4827	0.7663	-0.261
Mof_H 	H 	0.0636	0.4397	0.7444	0.064
Mof_H 	H 	0.1145	0.581	0.7781	0.056
Mof_C 	C 	0.25936	0.5004	0.9049	-0.361
Mof_H 	H 	0.2504	0.5905	0.8747	0.105
Mof_H 	H 	0.2674	0.5172	0.9653	0.101
Mof_C 	C 	0.33859	0.4343	0.9149	0.448
Mof_C 	C 	0.1444	0.3614	0.9045	-0.324
Mof_H 	H 	0.1874	0.3575	0.9689	0.083
Mof_H 	H 	0.1006	0.4262	0.8975	0.069
Mof_C 	C 	0.1058	0.2166	0.8727	0.403
Mof_N 	N 	0.6829	0.913	0.85197	-0.087
Mof_Ba	Ba	0.51159	0.75322	0.49826	1.667
Mof_Co	Co	0.72204	0.72005	0.80499	1.168
Mof_P 	P 	0.64927	0.96645	0.6804	0.436
Mof_O 	O 	0.57479	0.0127	0.59109	-0.546
Mof_O 	O 	0.66425	0.807	0.67968	-0.518
Mof_O 	O 	0.7321	0.0442	0.71305	-0.463
Mof_O 	O 	0.83534	0.8065	0.89039	-0.573
Mof_O 	O 	0.90503	0.004	0.9501	-0.533
Mof_O 	O 	0.64157	0.6367	0.84141	-0.47
Mof_O 	O 	0.54585	0.6811	0.88246	-0.447
Mof_C 	C 	0.61871	0.9827	0.7663	-0.271
Mof_H 	H 	0.5636	0.9397	0.7444	0.067
Mof_H 	H 	0.6145	0.081	0.7781	0.063
Mof_C 	C 	0.75936	0.0004	0.9049	-0.349
Mof_H 	H 	0.7504	0.0905	0.8747	0.104
Mof_H 	H 	0.7674	0.0172	0.9653	0.103
Mof_C 	C 	0.83859	0.9343	0.9149	0.432
Mof_C 	C 	0.6444	0.8614	0.9045	-0.324
Mof_H 	H 	0.6874	0.8575	0.9689	0.083
Mof_H 	H 	0.6006	0.9262	0.8975	0.067
Mof_C 	C 	0.6058	0.7166	0.8727	0.405
_end
