data_functionalizedCrystal
_audit_creation_method	'EQeq! by Chris Wilmer'
_symmetry_space_group_name_H-M	'P1'
_symmetry_Int_Tables_number	1
_symmetry_cell_setting	triclinic
loop_
_symmetry_equiv_pos_as_xyz
  x,y,z
_cell_length_a	15.79
_cell_length_b	15.79
_cell_length_c	16.05
_cell_angle_alpha	90
_cell_angle_beta	90
_cell_angle_gamma	120
loop_
_atom_site_label
_atom_site_type_symbol
_atom_site_fract_x
_atom_site_fract_y
_atom_site_fract_z
_atom_site_charge
Mof_F 	F 	0.5348	0.1827	0.9739	-0.217
Mof_F 	F 	0.5814	0.0496	0.8494	-0.247
Mof_O 	O 	0.5145	0.1685	0.1599	-0.363
Mof_C 	C 	0.5185	0.0878	0.9881	0.181
Mof_C 	C 	0.5441	0.0188	0.9263	0.247
Mof_F 	F 	0.8173	0.3521	0.9739	-0.218
Mof_F 	F 	0.9504	0.5318	0.8494	-0.248
Mof_O 	O 	0.8315	0.346	0.1599	-0.363
Mof_C 	C 	0.9122	0.4307	0.9881	0.182
Mof_C 	C 	0.9812	0.5253	0.9263	0.248
Mof_F 	F 	0.6479	0.4652	0.9739	-0.218
Mof_F 	F 	0.4682	0.4186	0.8494	-0.248
Mof_O 	O 	0.654	0.4855	0.1599	-0.362
Mof_C 	C 	0.5693	0.4815	0.9881	0.181
Mof_C 	C 	0.4747	0.4559	0.9263	0.247
Mof_F 	F 	0.4652	0.8173	0.4739	-0.218
Mof_F 	F 	0.4186	0.9504	0.3494	-0.248
Mof_O 	O 	0.4855	0.8315	0.6599	-0.362
Mof_C 	C 	0.4815	0.9122	0.4881	0.181
Mof_C 	C 	0.4559	0.9812	0.4263	0.247
Mof_F 	F 	0.1827	0.6479	0.4739	-0.218
Mof_F 	F 	0.0496	0.4682	0.3494	-0.248
Mof_O 	O 	0.1685	0.654	0.6599	-0.362
Mof_C 	C 	0.0878	0.5693	0.4881	0.181
Mof_C 	C 	0.0188	0.4747	0.4263	0.247
Mof_F 	F 	0.3521	0.5348	0.4739	-0.218
Mof_F 	F 	0.5318	0.5814	0.3494	-0.248
Mof_O 	O 	0.346	0.5145	0.6599	-0.362
Mof_C 	C 	0.4307	0.5185	0.4881	0.181
Mof_C 	C 	0.5253	0.5441	0.4263	0.247
Mof_F 	F 	0.1827	0.5348	0.0261	-0.218
Mof_F 	F 	0.0496	0.5814	0.1506	-0.248
Mof_O 	O 	0.1685	0.5145	0.8401	-0.363
Mof_C 	C 	0.0878	0.5185	0.0119	0.181
Mof_C 	C 	0.0188	0.5441	0.0737	0.247
Mof_F 	F 	0.3521	0.8173	0.0261	-0.218
Mof_F 	F 	0.5318	0.9504	0.1506	-0.248
Mof_O 	O 	0.346	0.8315	0.8401	-0.363
Mof_C 	C 	0.4307	0.9122	0.0119	0.182
Mof_C 	C 	0.5253	0.9812	0.0737	0.248
Mof_F 	F 	0.4652	0.6479	0.0261	-0.218
Mof_F 	F 	0.4186	0.4682	0.1506	-0.248
Mof_O 	O 	0.4855	0.654	0.8401	-0.362
Mof_C 	C 	0.4815	0.5693	0.0119	0.181
Mof_C 	C 	0.4559	0.4747	0.0737	0.247
Mof_F 	F 	0.8173	0.4652	0.5261	-0.218
Mof_F 	F 	0.9504	0.4186	0.6506	-0.248
Mof_O 	O 	0.8315	0.4855	0.3401	-0.362
Mof_C 	C 	0.9122	0.4815	0.5119	0.181
Mof_C 	C 	0.9812	0.4559	0.5737	0.247
Mof_F 	F 	0.6479	0.1827	0.5261	-0.218
Mof_F 	F 	0.4682	0.0496	0.6506	-0.248
Mof_O 	O 	0.654	0.1685	0.3401	-0.362
Mof_C 	C 	0.5693	0.0878	0.5119	0.181
Mof_C 	C 	0.4747	0.0188	0.5737	0.247
Mof_F 	F 	0.5348	0.3521	0.5261	-0.218
Mof_F 	F 	0.5814	0.5318	0.6506	-0.248
Mof_O 	O 	0.5145	0.346	0.3401	-0.362
Mof_C 	C 	0.5185	0.4307	0.5119	0.181
Mof_C 	C 	0.5441	0.5253	0.5737	0.247
Mof_F 	F 	0.4652	0.8173	0.0261	-0.218
Mof_F 	F 	0.4186	0.9504	0.1506	-0.248
Mof_O 	O 	0.4855	0.8315	0.8401	-0.363
Mof_C 	C 	0.4815	0.9122	0.0119	0.181
Mof_C 	C 	0.4559	0.9812	0.0737	0.247
Mof_F 	F 	0.1827	0.6479	0.0261	-0.218
Mof_F 	F 	0.0496	0.4682	0.1506	-0.248
Mof_O 	O 	0.1685	0.654	0.8401	-0.363
Mof_C 	C 	0.0878	0.5693	0.0119	0.182
Mof_C 	C 	0.0188	0.4747	0.0737	0.248
Mof_F 	F 	0.3521	0.5348	0.0261	-0.218
Mof_F 	F 	0.5318	0.5814	0.1506	-0.248
Mof_O 	O 	0.346	0.5145	0.8401	-0.362
Mof_C 	C 	0.4307	0.5185	0.0119	0.181
Mof_C 	C 	0.5253	0.5441	0.0737	0.247
Mof_F 	F 	0.5348	0.1827	0.5261	-0.218
Mof_F 	F 	0.5814	0.0496	0.6506	-0.248
Mof_O 	O 	0.5145	0.1685	0.3401	-0.362
Mof_C 	C 	0.5185	0.0878	0.5119	0.181
Mof_C 	C 	0.5441	0.0188	0.5737	0.247
Mof_F 	F 	0.8173	0.3521	0.5261	-0.218
Mof_F 	F 	0.9504	0.5318	0.6506	-0.248
Mof_O 	O 	0.8315	0.346	0.3401	-0.362
Mof_C 	C 	0.9122	0.4307	0.5119	0.181
Mof_C 	C 	0.9812	0.5253	0.5737	0.247
Mof_F 	F 	0.6479	0.4652	0.5261	-0.218
Mof_F 	F 	0.4682	0.4186	0.6506	-0.248
Mof_O 	O 	0.654	0.4855	0.3401	-0.362
Mof_C 	C 	0.5693	0.4815	0.5119	0.181
Mof_C 	C 	0.4747	0.4559	0.5737	0.247
Mof_F 	F 	0.8173	0.4652	0.9739	-0.218
Mof_F 	F 	0.9504	0.4186	0.8494	-0.248
Mof_O 	O 	0.8315	0.4855	0.1599	-0.363
Mof_C 	C 	0.9122	0.4815	0.9881	0.181
Mof_C 	C 	0.9812	0.4559	0.9263	0.247
Mof_F 	F 	0.6479	0.1827	0.9739	-0.218
Mof_F 	F 	0.4682	0.0496	0.8494	-0.248
Mof_O 	O 	0.654	0.1685	0.1599	-0.363
Mof_C 	C 	0.5693	0.0878	0.9881	0.182
Mof_C 	C 	0.4747	0.0188	0.9263	0.248
Mof_F 	F 	0.5348	0.3521	0.9739	-0.218
Mof_F 	F 	0.5814	0.5318	0.8494	-0.248
Mof_O 	O 	0.5145	0.346	0.1599	-0.362
Mof_C 	C 	0.5185	0.4307	0.9881	0.181
Mof_C 	C 	0.5441	0.5253	0.9263	0.247
Mof_F 	F 	0.1827	0.5348	0.4739	-0.218
Mof_F 	F 	0.0496	0.5814	0.3494	-0.248
Mof_O 	O 	0.1685	0.5145	0.6599	-0.362
Mof_C 	C 	0.0878	0.5185	0.4881	0.181
Mof_C 	C 	0.0188	0.5441	0.4263	0.247
Mof_F 	F 	0.3521	0.8173	0.4739	-0.218
Mof_F 	F 	0.5318	0.9504	0.3494	-0.248
Mof_O 	O 	0.346	0.8315	0.6599	-0.362
Mof_C 	C 	0.4307	0.9122	0.4881	0.181
Mof_C 	C 	0.5253	0.9812	0.4263	0.247
Mof_F 	F 	0.4652	0.6479	0.4739	-0.218
Mof_F 	F 	0.4186	0.4682	0.3494	-0.248
Mof_O 	O 	0.4855	0.654	0.6599	-0.362
Mof_C 	C 	0.4815	0.5693	0.4881	0.181
Mof_C 	C 	0.4559	0.4747	0.4263	0.247
Mof_Fe	Fe	0.52879	0.26439	0.25	1.11
Mof_Fe	Fe	0.7356	0.26439	0.25	1.11
Mof_Fe	Fe	0.7356	0.47121	0.25	1.11
Mof_Fe	Fe	0.47121	0.7356	0.75	1.11
Mof_Fe	Fe	0.2644	0.7356	0.75	1.11
Mof_Fe	Fe	0.2644	0.52879	0.75	1.11
Mof_O 	O 	0.66667	0.33333	0.25	-0.593
Mof_O 	O 	0.33333	0.66667	0.75	-0.593
Mof_C 	C 	0.57045	0.1409	0.1367	0.63
Mof_C 	C 	0.5342	0.0684	0.0658	-0.287
Mof_C 	C 	0.8591	0.42955	0.1367	0.63
Mof_C 	C 	0.9316	0.4658	0.0658	-0.287
Mof_C 	C 	0.57045	0.42955	0.1367	0.629
Mof_C 	C 	0.5342	0.4658	0.0658	-0.285
Mof_C 	C 	0.42955	0.8591	0.6367	0.629
Mof_C 	C 	0.4658	0.9316	0.5658	-0.285
Mof_C 	C 	0.1409	0.57045	0.6367	0.629
Mof_C 	C 	0.0684	0.5342	0.5658	-0.285
Mof_C 	C 	0.42955	0.57045	0.6367	0.629
Mof_C 	C 	0.4658	0.5342	0.5658	-0.285
Mof_C 	C 	0.1409	0.57045	0.8633	0.63
Mof_C 	C 	0.0684	0.5342	0.9342	-0.287
Mof_C 	C 	0.42955	0.8591	0.8633	0.63
Mof_C 	C 	0.4658	0.9316	0.9342	-0.287
Mof_C 	C 	0.42955	0.57045	0.8633	0.629
Mof_C 	C 	0.4658	0.5342	0.9342	-0.285
Mof_C 	C 	0.8591	0.42955	0.3633	0.629
Mof_C 	C 	0.9316	0.4658	0.4342	-0.285
Mof_C 	C 	0.57045	0.1409	0.3633	0.629
Mof_C 	C 	0.5342	0.0684	0.4342	-0.285
Mof_C 	C 	0.57045	0.42955	0.3633	0.629
Mof_C 	C 	0.5342	0.4658	0.4342	-0.285
_end
