data_functionalizedCrystal
_audit_creation_method	'EQeq! by Chris Wilmer'
_symmetry_space_group_name_H-M	'P1'
_symmetry_Int_Tables_number	1
_symmetry_cell_setting	triclinic
loop_
_symmetry_equiv_pos_as_xyz
  x,y,z
_cell_length_a	9.638
_cell_length_b	15.443
_cell_length_c	18.717
_cell_angle_alpha	90
_cell_angle_beta	90
_cell_angle_gamma	90
loop_
_atom_site_label
_atom_site_type_symbol
_atom_site_fract_x
_atom_site_fract_y
_atom_site_fract_z
_atom_site_charge
Mof_Cd	Cd	0.11647	0.7831	0.93902	0.418
Mof_C 	C 	0.4181	0.8554	0.9834	0.077
Mof_H 	H 	0.3575	0.8927	0.0069	0.018
Mof_C 	C 	0.557	0.8699	0.9909	-0.066
Mof_H 	H 	0.5889	0.9162	0.0181	0.075
Mof_C 	C 	0.6489	0.8153	0.9577	-0.011
Mof_C 	C 	0.593	0.7485	0.9183	-0.078
Mof_H 	H 	0.6514	0.7095	0.8953	0.08
Mof_C 	C 	0.4527	0.739	0.9128	0.062
Mof_H 	H 	0.4183	0.6937	0.8852	0.018
Mof_C 	C 	0.8019	0.8311	0.9631	0.322
Mof_C 	C 	0.0507	0.8273	0.2994	0.045
Mof_H 	H 	0.9936	0.8534	0.3332	0.047
Mof_C 	C 	0.0464	0.8577	0.2306	-0.126
Mof_H 	H 	0.9901	0.9044	0.2187	0.124
Mof_C 	C 	0.1257	0.8183	0.18	0.013
Mof_C 	C 	0.2087	0.7503	0.2009	-0.093
Mof_H 	H 	0.2631	0.7213	0.1676	0.079
Mof_C 	C 	0.2105	0.7256	0.2715	0.067
Mof_H 	H 	0.2693	0.6808	0.2852	0.024
Mof_C 	C 	0.1189	0.8472	0.1031	0.298
Mof_N 	N 	0.3635	0.7913	0.9448	-0.142
Mof_N 	N 	0.1321	0.7627	0.3206	-0.145
Mof_N 	N 	0.1212	0.9285	0.9149	-0.101
Mof_N 	N 	0.171	0.9632	0.8667	-0.026
Mof_N 	N 	0.215	0.9976	0.8181	-0.057
Mof_O 	O 	0.1066	0.9259	0.09189	-0.264
Mof_O 	O 	0.1288	0.7883	0.05798	-0.291
Mof_O 	O 	0.8388	0.8929	0.0007	-0.266
Mof_O 	O 	0.8795	0.7804	0.92967	-0.267
Mof_Cd	Cd	0.88353	0.2831	0.56098	0.433
Mof_C 	C 	0.5819	0.3554	0.5166	0.061
Mof_H 	H 	0.6425	0.3927	0.4931	0.028
Mof_C 	C 	0.443	0.3699	0.5091	-0.082
Mof_H 	H 	0.4111	0.4162	0.4819	0.081
Mof_C 	C 	0.3511	0.3153	0.5423	-0.013
Mof_C 	C 	0.407	0.2485	0.5817	-0.082
Mof_H 	H 	0.3486	0.2095	0.6047	0.073
Mof_C 	C 	0.5473	0.239	0.5872	0.059
Mof_H 	H 	0.5817	0.1937	0.6148	0.016
Mof_C 	C 	0.1981	0.3311	0.5369	0.309
Mof_C 	C 	0.9493	0.3273	0.2006	0.092
Mof_H 	H 	0.0064	0.3534	0.1668	-0.006
Mof_C 	C 	0.9536	0.3577	0.2694	-0.053
Mof_H 	H 	0.0099	0.4044	0.2813	0.06
Mof_C 	C 	0.8743	0.3183	0.32	-0.015
Mof_C 	C 	0.7913	0.2503	0.2991	-0.076
Mof_H 	H 	0.7369	0.2213	0.3324	0.073
Mof_C 	C 	0.7895	0.2256	0.2285	0.06
Mof_H 	H 	0.7307	0.1808	0.2148	0.025
Mof_C 	C 	0.8811	0.3472	0.3969	0.315
Mof_N 	N 	0.6365	0.2913	0.5552	-0.142
Mof_N 	N 	0.8679	0.2627	0.1794	-0.148
Mof_N 	N 	0.8788	0.4285	0.5851	-0.102
Mof_N 	N 	0.829	0.4632	0.6333	-0.027
Mof_N 	N 	0.785	0.4976	0.6819	-0.061
Mof_O 	O 	0.8934	0.4259	0.40811	-0.263
Mof_O 	O 	0.8712	0.2883	0.44202	-0.283
Mof_O 	O 	0.1612	0.3929	0.4993	-0.282
Mof_O 	O 	0.1205	0.2804	0.57033	-0.292
Mof_Cd	Cd	0.88353	0.2169	0.06098	0.426
Mof_C 	C 	0.5819	0.1446	0.0166	0.047
Mof_H 	H 	0.6425	0.1073	0.9931	0.041
Mof_C 	C 	0.443	0.1301	0.0091	-0.111
Mof_H 	H 	0.4111	0.0838	0.9819	0.096
Mof_C 	C 	0.3511	0.1847	0.0423	0.001
Mof_C 	C 	0.407	0.2515	0.0817	-0.091
Mof_H 	H 	0.3486	0.2905	0.1047	0.078
Mof_C 	C 	0.5473	0.261	0.0872	0.063
Mof_H 	H 	0.5817	0.3063	0.1148	0.015
Mof_C 	C 	0.1981	0.1689	0.0369	0.282
Mof_C 	C 	0.9493	0.1727	0.7006	0.092
Mof_H 	H 	0.0064	0.1466	0.6668	-0.008
Mof_C 	C 	0.9536	0.1423	0.7694	-0.052
Mof_H 	H 	0.0099	0.0956	0.7813	0.055
Mof_C 	C 	0.8743	0.1817	0.82	-0.014
Mof_C 	C 	0.7913	0.2497	0.7991	-0.076
Mof_H 	H 	0.7369	0.2787	0.8324	0.077
Mof_C 	C 	0.7895	0.2744	0.7285	0.061
Mof_H 	H 	0.7307	0.3192	0.7148	0.027
Mof_C 	C 	0.8811	0.1528	0.8969	0.313
Mof_N 	N 	0.6365	0.2087	0.0552	-0.143
Mof_N 	N 	0.8679	0.2373	0.6794	-0.148
Mof_N 	N 	0.8788	0.0715	0.0851	-0.106
Mof_N 	N 	0.829	0.0368	0.1333	-0.031
Mof_N 	N 	0.785	0.0024	0.1819	-0.072
Mof_O 	O 	0.8934	0.0741	0.90811	-0.262
Mof_O 	O 	0.8712	0.2117	0.94202	-0.274
Mof_O 	O 	0.1612	0.1071	0.9993	-0.263
Mof_O 	O 	0.1205	0.2196	0.07033	-0.287
Mof_Cd	Cd	0.11647	0.7169	0.43902	0.412
Mof_C 	C 	0.4181	0.6446	0.4834	0.065
Mof_H 	H 	0.3575	0.6073	0.5069	0.028
Mof_C 	C 	0.557	0.6301	0.4909	-0.085
Mof_H 	H 	0.5889	0.5838	0.5181	0.084
Mof_C 	C 	0.6489	0.6847	0.4577	-0.004
Mof_C 	C 	0.593	0.7515	0.4183	-0.084
Mof_H 	H 	0.6514	0.7905	0.3953	0.083
Mof_C 	C 	0.4527	0.761	0.4128	0.064
Mof_H 	H 	0.4183	0.8063	0.3852	0.019
Mof_C 	C 	0.8019	0.6689	0.4631	0.306
Mof_C 	C 	0.0507	0.6727	0.7994	0.043
Mof_H 	H 	0.9936	0.6466	0.8332	0.046
Mof_C 	C 	0.0464	0.6423	0.7306	-0.126
Mof_H 	H 	0.9901	0.5956	0.7187	0.119
Mof_C 	C 	0.1257	0.6817	0.68	0.012
Mof_C 	C 	0.2087	0.7497	0.7009	-0.091
Mof_H 	H 	0.2631	0.7787	0.6676	0.082
Mof_C 	C 	0.2105	0.7744	0.7715	0.068
Mof_H 	H 	0.2693	0.8192	0.7852	0.026
Mof_C 	C 	0.1189	0.6528	0.6031	0.3
Mof_N 	N 	0.3635	0.7087	0.4448	-0.142
Mof_N 	N 	0.1321	0.7373	0.8206	-0.145
Mof_N 	N 	0.1212	0.5715	0.4149	-0.112
Mof_N 	N 	0.171	0.5368	0.3667	-0.03
Mof_N 	N 	0.215	0.5024	0.3181	-0.067
Mof_O 	O 	0.1066	0.5741	0.59189	-0.276
Mof_O 	O 	0.1288	0.7117	0.55798	-0.285
Mof_O 	O 	0.8388	0.6071	0.5007	-0.264
Mof_O 	O 	0.8795	0.7196	0.42967	-0.265
Mof_Cd	Cd	-0	0	-0	0.426
Mof_Cd	Cd	-5.42074e-33	0.5	0.5	0.465
_end
