data_functionalizedCrystal
_audit_creation_method	'EQeq! by Chris Wilmer'
_symmetry_space_group_name_H-M	'P1'
_symmetry_Int_Tables_number	1
_symmetry_cell_setting	triclinic
loop_
_symmetry_equiv_pos_as_xyz
  x,y,z
_cell_length_a	15.9568
_cell_length_b	29.329
_cell_length_c	28.657
_cell_angle_alpha	90
_cell_angle_beta	90
_cell_angle_gamma	90
loop_
_atom_site_label
_atom_site_type_symbol
_atom_site_fract_x
_atom_site_fract_y
_atom_site_fract_z
_atom_site_charge
Mof_C 	C 	0.3149	0.20147	0.93789	0.37
Mof_O 	O 	0.2457	0.18981	0.95199	-0.399
Mof_O 	O 	0.358	0.23645	0.95196	-0.381
Mof_C 	C 	0.466	0.04994	0.78568	0.151
Mof_C 	C 	0.4636	0.09764	0.78693	-0.089
Mof_C 	C 	0.3146	0.13614	0.88171	0.077
Mof_H 	H 	0.264	0.1267	0.8946	0.031
Mof_C 	C 	0.3537	0.17511	0.8988	-0.126
Mof_C 	C 	0.4299	0.18697	0.88033	0.077
Mof_H 	H 	0.4578	0.2123	0.8922	0.03
Mof_C 	C 	0.3507	0.11091	0.84534	-0.153
Mof_H 	H 	0.3226	0.0855	0.8337	0.111
Mof_C 	C 	0.4272	0.12301	0.82637	0.135
Mof_C 	C 	0.4673	0.16187	0.8438	-0.156
Mof_H 	H 	0.5183	0.1711	0.8314	0.096
Mof_O 	O 	0.4276	0.02817	0.82291	-0.165
Mof_C 	C 	0.8149	0.70147	0.93789	0.369
Mof_O 	O 	0.7457	0.68981	0.95199	-0.4
Mof_O 	O 	0.858	0.73645	0.95196	-0.382
Mof_C 	C 	0.966	0.54994	0.78568	0.151
Mof_C 	C 	0.9636	0.59764	0.78693	-0.089
Mof_C 	C 	0.8146	0.63614	0.88171	0.078
Mof_H 	H 	0.764	0.6267	0.8946	0.031
Mof_C 	C 	0.8537	0.67511	0.8988	-0.126
Mof_C 	C 	0.9299	0.68697	0.88033	0.077
Mof_H 	H 	0.9578	0.7123	0.8922	0.029
Mof_C 	C 	0.8507	0.61091	0.84534	-0.153
Mof_H 	H 	0.8226	0.5855	0.8337	0.111
Mof_C 	C 	0.9272	0.62301	0.82637	0.135
Mof_C 	C 	0.9673	0.66187	0.8438	-0.156
Mof_H 	H 	0.0183	0.6711	0.8314	0.096
Mof_O 	O 	0.9276	0.52817	0.82291	-0.165
Mof_C 	C 	0.6851	0.79853	0.93789	0.369
Mof_O 	O 	0.7543	0.81019	0.95199	-0.4
Mof_O 	O 	0.642	0.76355	0.95196	-0.381
Mof_C 	C 	0.534	0.95006	0.78568	0.151
Mof_C 	C 	0.5364	0.90236	0.78693	-0.089
Mof_C 	C 	0.6854	0.86386	0.88171	0.077
Mof_H 	H 	0.736	0.8733	0.8946	0.031
Mof_C 	C 	0.6463	0.82489	0.8988	-0.126
Mof_C 	C 	0.5701	0.81303	0.88033	0.077
Mof_H 	H 	0.5422	0.7877	0.8922	0.03
Mof_C 	C 	0.6493	0.88909	0.84534	-0.153
Mof_H 	H 	0.6774	0.9145	0.8337	0.111
Mof_C 	C 	0.5728	0.87699	0.82637	0.135
Mof_C 	C 	0.5327	0.83813	0.8438	-0.156
Mof_H 	H 	0.4817	0.8289	0.8314	0.096
Mof_O 	O 	0.5724	0.97183	0.82291	-0.165
Mof_C 	C 	0.1851	0.29853	0.93789	0.369
Mof_O 	O 	0.2543	0.31019	0.95199	-0.4
Mof_O 	O 	0.142	0.26355	0.95196	-0.382
Mof_C 	C 	0.034	0.45006	0.78568	0.151
Mof_C 	C 	0.0364	0.40236	0.78693	-0.089
Mof_C 	C 	0.1854	0.36386	0.88171	0.077
Mof_H 	H 	0.236	0.3733	0.8946	0.031
Mof_C 	C 	0.1463	0.32489	0.8988	-0.125
Mof_C 	C 	0.0701	0.31303	0.88033	0.076
Mof_H 	H 	0.0422	0.2877	0.8922	0.03
Mof_C 	C 	0.1493	0.38909	0.84534	-0.153
Mof_H 	H 	0.1774	0.4145	0.8337	0.111
Mof_C 	C 	0.0728	0.37699	0.82637	0.135
Mof_C 	C 	0.0327	0.33813	0.8438	-0.155
Mof_H 	H 	0.9817	0.3289	0.8314	0.095
Mof_O 	O 	0.0724	0.47183	0.82291	-0.165
Mof_C 	C 	0.6851	0.20147	0.56211	0.372
Mof_O 	O 	0.7543	0.18981	0.54801	-0.417
Mof_O 	O 	0.642	0.23645	0.54804	-0.398
Mof_C 	C 	0.534	0.04994	0.71432	0.152
Mof_C 	C 	0.5364	0.09764	0.71307	-0.09
Mof_C 	C 	0.6854	0.13614	0.61829	0.08
Mof_H 	H 	0.736	0.1267	0.6054	0.026
Mof_C 	C 	0.6463	0.17511	0.6012	-0.133
Mof_C 	C 	0.5701	0.18697	0.61967	0.079
Mof_H 	H 	0.5422	0.2123	0.6078	0.025
Mof_C 	C 	0.6493	0.11091	0.65466	-0.157
Mof_H 	H 	0.6774	0.0855	0.6663	0.11
Mof_C 	C 	0.5728	0.12301	0.67363	0.136
Mof_C 	C 	0.5327	0.16187	0.6562	-0.16
Mof_H 	H 	0.4817	0.1711	0.6686	0.095
Mof_O 	O 	0.5724	0.02817	0.67709	-0.169
Mof_C 	C 	0.1851	0.70147	0.56211	0.372
Mof_O 	O 	0.2543	0.68981	0.54801	-0.417
Mof_O 	O 	0.142	0.73645	0.54804	-0.398
Mof_C 	C 	0.034	0.54994	0.71432	0.152
Mof_C 	C 	0.0364	0.59764	0.71307	-0.09
Mof_C 	C 	0.1854	0.63614	0.61829	0.08
Mof_H 	H 	0.236	0.6267	0.6054	0.026
Mof_C 	C 	0.1463	0.67511	0.6012	-0.132
Mof_C 	C 	0.0701	0.68697	0.61967	0.079
Mof_H 	H 	0.0422	0.7123	0.6078	0.025
Mof_C 	C 	0.1493	0.61091	0.65466	-0.157
Mof_H 	H 	0.1774	0.5855	0.6663	0.11
Mof_C 	C 	0.0728	0.62301	0.67363	0.136
Mof_C 	C 	0.0327	0.66187	0.6562	-0.159
Mof_H 	H 	0.9817	0.6711	0.6686	0.095
Mof_O 	O 	0.0724	0.52817	0.67709	-0.169
Mof_C 	C 	0.3149	0.79853	0.56211	0.372
Mof_O 	O 	0.2457	0.81019	0.54801	-0.417
Mof_O 	O 	0.358	0.76355	0.54804	-0.398
Mof_C 	C 	0.466	0.95006	0.71432	0.152
Mof_C 	C 	0.4636	0.90236	0.71307	-0.09
Mof_C 	C 	0.3146	0.86386	0.61829	0.08
Mof_H 	H 	0.264	0.8733	0.6054	0.026
Mof_C 	C 	0.3537	0.82489	0.6012	-0.133
Mof_C 	C 	0.4299	0.81303	0.61967	0.079
Mof_H 	H 	0.4578	0.7877	0.6078	0.025
Mof_C 	C 	0.3507	0.88909	0.65466	-0.157
Mof_H 	H 	0.3226	0.9145	0.6663	0.111
Mof_C 	C 	0.4272	0.87699	0.67363	0.136
Mof_C 	C 	0.4673	0.83813	0.6562	-0.16
Mof_H 	H 	0.5183	0.8289	0.6686	0.095
Mof_O 	O 	0.4276	0.97183	0.67709	-0.169
Mof_C 	C 	0.8149	0.29853	0.56211	0.372
Mof_O 	O 	0.7457	0.31019	0.54801	-0.417
Mof_O 	O 	0.858	0.26355	0.54804	-0.398
Mof_C 	C 	0.966	0.45006	0.71432	0.151
Mof_C 	C 	0.9636	0.40236	0.71307	-0.09
Mof_C 	C 	0.8146	0.36386	0.61829	0.08
Mof_H 	H 	0.764	0.3733	0.6054	0.026
Mof_C 	C 	0.8537	0.32489	0.6012	-0.133
Mof_C 	C 	0.9299	0.31303	0.61967	0.08
Mof_H 	H 	0.9578	0.2877	0.6078	0.024
Mof_C 	C 	0.8507	0.38909	0.65466	-0.157
Mof_H 	H 	0.8226	0.4145	0.6663	0.111
Mof_C 	C 	0.9272	0.37699	0.67363	0.137
Mof_C 	C 	0.9673	0.33813	0.6562	-0.161
Mof_H 	H 	0.0183	0.3289	0.6686	0.096
Mof_O 	O 	0.9276	0.47183	0.67709	-0.169
Mof_C 	C 	0.6851	0.79853	0.06211	0.372
Mof_O 	O 	0.7543	0.81019	0.04801	-0.426
Mof_O 	O 	0.642	0.76355	0.04804	-0.407
Mof_C 	C 	0.534	0.95006	0.21432	0.152
Mof_C 	C 	0.5364	0.90236	0.21307	-0.093
Mof_C 	C 	0.6854	0.86386	0.11829	0.081
Mof_H 	H 	0.736	0.8733	0.1054	0.021
Mof_C 	C 	0.6463	0.82489	0.1012	-0.138
Mof_C 	C 	0.5701	0.81303	0.11967	0.081
Mof_H 	H 	0.5422	0.7877	0.1078	0.02
Mof_C 	C 	0.6493	0.88909	0.15466	-0.161
Mof_H 	H 	0.6774	0.9145	0.1663	0.109
Mof_C 	C 	0.5728	0.87699	0.17363	0.137
Mof_C 	C 	0.5327	0.83813	0.1562	-0.164
Mof_H 	H 	0.4817	0.8289	0.1686	0.094
Mof_O 	O 	0.5724	0.97183	0.17709	-0.173
Mof_C 	C 	0.1851	0.29853	0.06211	0.372
Mof_O 	O 	0.2543	0.31019	0.04801	-0.426
Mof_O 	O 	0.142	0.26355	0.04804	-0.407
Mof_C 	C 	0.034	0.45006	0.21432	0.152
Mof_C 	C 	0.0364	0.40236	0.21307	-0.093
Mof_C 	C 	0.1854	0.36386	0.11829	0.081
Mof_H 	H 	0.236	0.3733	0.1054	0.021
Mof_C 	C 	0.1463	0.32489	0.1012	-0.138
Mof_C 	C 	0.0701	0.31303	0.11967	0.08
Mof_H 	H 	0.0422	0.2877	0.1078	0.02
Mof_C 	C 	0.1493	0.38909	0.15466	-0.161
Mof_H 	H 	0.1774	0.4145	0.1663	0.109
Mof_C 	C 	0.0728	0.37699	0.17363	0.137
Mof_C 	C 	0.0327	0.33813	0.1562	-0.163
Mof_H 	H 	0.9817	0.3289	0.1686	0.094
Mof_O 	O 	0.0724	0.47183	0.17709	-0.173
Mof_C 	C 	0.3149	0.20147	0.06211	0.372
Mof_O 	O 	0.2457	0.18981	0.04801	-0.426
Mof_O 	O 	0.358	0.23645	0.04804	-0.408
Mof_C 	C 	0.466	0.04994	0.21432	0.152
Mof_C 	C 	0.4636	0.09764	0.21307	-0.093
Mof_C 	C 	0.3146	0.13614	0.11829	0.081
Mof_H 	H 	0.264	0.1267	0.1054	0.021
Mof_C 	C 	0.3537	0.17511	0.1012	-0.138
Mof_C 	C 	0.4299	0.18697	0.11967	0.081
Mof_H 	H 	0.4578	0.2123	0.1078	0.02
Mof_C 	C 	0.3507	0.11091	0.15466	-0.161
Mof_H 	H 	0.3226	0.0855	0.1663	0.109
Mof_C 	C 	0.4272	0.12301	0.17363	0.137
Mof_C 	C 	0.4673	0.16187	0.1562	-0.164
Mof_H 	H 	0.5183	0.1711	0.1686	0.094
Mof_O 	O 	0.4276	0.02817	0.17709	-0.173
Mof_C 	C 	0.8149	0.70147	0.06211	0.372
Mof_O 	O 	0.7457	0.68981	0.04801	-0.426
Mof_O 	O 	0.858	0.73645	0.04804	-0.407
Mof_C 	C 	0.966	0.54994	0.21432	0.152
Mof_C 	C 	0.9636	0.59764	0.21307	-0.093
Mof_C 	C 	0.8146	0.63614	0.11829	0.081
Mof_H 	H 	0.764	0.6267	0.1054	0.021
Mof_C 	C 	0.8537	0.67511	0.1012	-0.139
Mof_C 	C 	0.9299	0.68697	0.11967	0.081
Mof_H 	H 	0.9578	0.7123	0.1078	0.02
Mof_C 	C 	0.8507	0.61091	0.15466	-0.161
Mof_H 	H 	0.8226	0.5855	0.1663	0.109
Mof_C 	C 	0.9272	0.62301	0.17363	0.137
Mof_C 	C 	0.9673	0.66187	0.1562	-0.164
Mof_H 	H 	0.0183	0.6711	0.1686	0.094
Mof_O 	O 	0.9276	0.52817	0.17709	-0.173
Mof_C 	C 	0.3149	0.79853	0.43789	0.372
Mof_O 	O 	0.2457	0.81019	0.45199	-0.417
Mof_O 	O 	0.358	0.76355	0.45196	-0.399
Mof_C 	C 	0.466	0.95006	0.28568	0.152
Mof_C 	C 	0.4636	0.90236	0.28693	-0.092
Mof_C 	C 	0.3146	0.86386	0.38171	0.08
Mof_H 	H 	0.264	0.8733	0.3946	0.025
Mof_C 	C 	0.3537	0.82489	0.3988	-0.133
Mof_C 	C 	0.4299	0.81303	0.38033	0.079
Mof_H 	H 	0.4578	0.7877	0.3922	0.024
Mof_C 	C 	0.3507	0.88909	0.34534	-0.158
Mof_H 	H 	0.3226	0.9145	0.3337	0.11
Mof_C 	C 	0.4272	0.87699	0.32637	0.136
Mof_C 	C 	0.4673	0.83813	0.3438	-0.16
Mof_H 	H 	0.5183	0.8289	0.3314	0.095
Mof_O 	O 	0.4276	0.97183	0.32291	-0.169
Mof_C 	C 	0.8149	0.29853	0.43789	0.372
Mof_O 	O 	0.7457	0.31019	0.45199	-0.417
Mof_O 	O 	0.858	0.26355	0.45196	-0.399
Mof_C 	C 	0.966	0.45006	0.28568	0.152
Mof_C 	C 	0.9636	0.40236	0.28693	-0.092
Mof_C 	C 	0.8146	0.36386	0.38171	0.08
Mof_H 	H 	0.764	0.3733	0.3946	0.025
Mof_C 	C 	0.8537	0.32489	0.3988	-0.133
Mof_C 	C 	0.9299	0.31303	0.38033	0.08
Mof_H 	H 	0.9578	0.2877	0.3922	0.024
Mof_C 	C 	0.8507	0.38909	0.34534	-0.158
Mof_H 	H 	0.8226	0.4145	0.3337	0.11
Mof_C 	C 	0.9272	0.37699	0.32637	0.137
Mof_C 	C 	0.9673	0.33813	0.3438	-0.161
Mof_H 	H 	0.0183	0.3289	0.3314	0.095
Mof_O 	O 	0.9276	0.47183	0.32291	-0.169
Mof_C 	C 	0.6851	0.20147	0.43789	0.372
Mof_O 	O 	0.7543	0.18981	0.45199	-0.417
Mof_O 	O 	0.642	0.23645	0.45196	-0.399
Mof_C 	C 	0.534	0.04994	0.28568	0.152
Mof_C 	C 	0.5364	0.09764	0.28693	-0.092
Mof_C 	C 	0.6854	0.13614	0.38171	0.08
Mof_H 	H 	0.736	0.1267	0.3946	0.025
Mof_C 	C 	0.6463	0.17511	0.3988	-0.133
Mof_C 	C 	0.5701	0.18697	0.38033	0.079
Mof_H 	H 	0.5422	0.2123	0.3922	0.024
Mof_C 	C 	0.6493	0.11091	0.34534	-0.158
Mof_H 	H 	0.6774	0.0855	0.3337	0.11
Mof_C 	C 	0.5728	0.12301	0.32637	0.136
Mof_C 	C 	0.5327	0.16187	0.3438	-0.16
Mof_H 	H 	0.4817	0.1711	0.3314	0.095
Mof_O 	O 	0.5724	0.02817	0.32291	-0.169
Mof_C 	C 	0.1851	0.70147	0.43789	0.372
Mof_O 	O 	0.2543	0.68981	0.45199	-0.417
Mof_O 	O 	0.142	0.73645	0.45196	-0.399
Mof_C 	C 	0.034	0.54994	0.28568	0.152
Mof_C 	C 	0.0364	0.59764	0.28693	-0.092
Mof_C 	C 	0.1854	0.63614	0.38171	0.079
Mof_H 	H 	0.236	0.6267	0.3946	0.026
Mof_C 	C 	0.1463	0.67511	0.3988	-0.133
Mof_C 	C 	0.0701	0.68697	0.38033	0.079
Mof_H 	H 	0.0422	0.7123	0.3922	0.024
Mof_C 	C 	0.1493	0.61091	0.34534	-0.157
Mof_H 	H 	0.1774	0.5855	0.3337	0.109
Mof_C 	C 	0.0728	0.62301	0.32637	0.136
Mof_C 	C 	0.0327	0.66187	0.3438	-0.16
Mof_H 	H 	0.9817	0.6711	0.3314	0.094
Mof_O 	O 	0.0724	0.52817	0.32291	-0.169
Mof_Cu	Cu	0.18503	0.2227	-0	0.893
Mof_Cu	Cu	0.68503	0.7227	-0	0.893
Mof_Cu	Cu	0.81497	0.7773	-0	0.893
Mof_Cu	Cu	0.31497	0.2773	-0	0.893
Mof_Cu	Cu	0.81497	0.2227	0.5	0.908
Mof_Cu	Cu	0.31497	0.7227	0.5	0.908
Mof_Cu	Cu	0.18503	0.7773	0.5	0.908
Mof_Cu	Cu	0.68503	0.2773	0.5	0.908
Mof_C 	C 	0.5	0.02573	0.75	-0.05
Mof_C 	C 	0.5	0.11992	0.75	0.016
Mof_H 	H 	0.5	0.1516	0.75	0.03
Mof_C 	C 	-2.50658e-32	0.52573	0.75	-0.05
Mof_C 	C 	-1.00078e-32	0.61992	0.75	0.016
Mof_H 	H 	5.05019e-33	0.6516	0.75	0.03
Mof_C 	C 	0.5	0.97427	0.75	-0.05
Mof_C 	C 	0.5	0.88008	0.75	0.016
Mof_H 	H 	0.5	0.8484	0.75	0.03
Mof_C 	C 	5.05019e-33	0.47427	0.75	-0.05
Mof_C 	C 	5.05019e-33	0.38008	0.75	0.016
Mof_H 	H 	5.05019e-33	0.3484	0.75	0.03
Mof_C 	C 	0.5	0.97427	0.25	-0.052
Mof_C 	C 	0.5	0.88008	0.25	0.017
Mof_H 	H 	0.5	0.8484	0.25	0.029
Mof_C 	C 	5.44789e-33	0.47427	0.25	-0.051
Mof_C 	C 	5.44789e-33	0.38008	0.25	0.017
Mof_H 	H 	5.44789e-33	0.3484	0.25	0.029
Mof_C 	C 	0.5	0.02573	0.25	-0.052
Mof_C 	C 	0.5	0.11992	0.25	0.017
Mof_H 	H 	0.5	0.1516	0.25	0.029
Mof_C 	C 	5.44789e-33	0.52573	0.25	-0.051
Mof_C 	C 	-2.0811e-33	0.61992	0.25	0.017
Mof_H 	H 	1.29769e-32	0.6516	0.25	0.029
_end
