data_functionalizedCrystal
_audit_creation_method	'EQeq! by Chris Wilmer'
_symmetry_space_group_name_H-M	'P1'
_symmetry_Int_Tables_number	1
_symmetry_cell_setting	triclinic
loop_
_symmetry_equiv_pos_as_xyz
  x,y,z
_cell_length_a	20.467
_cell_length_b	20.467
_cell_length_c	34.344
_cell_angle_alpha	90
_cell_angle_beta	90
_cell_angle_gamma	90
loop_
_atom_site_label
_atom_site_type_symbol
_atom_site_fract_x
_atom_site_fract_y
_atom_site_fract_z
_atom_site_charge
Mof_Mn	Mn	0.31852	0.13038	0.19785	0.956
Mof_Mn	Mn	0.11302	0.31028	0.2138	0.952
Mof_Cu	Cu	0.31323	0.97107	0.92029	0.881
Mof_Cu	Cu	0.45192	0.17063	0.0639	0.882
Mof_C 	C 	0.3448	0.0513	0.03046	-0.253
Mof_H 	H 	0.3882	0.0381	0.0316	0.122
Mof_C 	C 	0.3014	0.0219	0.00379	0.208
Mof_C 	C 	0.2372	0.0435	0.0011	-0.244
Mof_H 	H 	0.2096	0.0258	0.9824	0.103
Mof_C 	C 	0.2144	0.0911	0.02598	0.152
Mof_H 	H 	0.1711	0.1044	0.0244	-0.021
Mof_C 	C 	0.2556	0.1196	0.05362	-0.224
Mof_H 	H 	0.2395	0.1508	0.0708	0.119
Mof_C 	C 	0.3219	0.1005	0.05521	0.201
Mof_C 	C 	0.356	0.9236	0.99052	0.113
Mof_C 	C 	0.3731	0.8719	0.96085	0.232
Mof_C 	C 	0.3582	0.1363	0.11685	0.104
Mof_C 	C 	0.4164	0.163	0.13996	0.244
Mof_C 	C 	0.388	0.1185	0.95411	-0.267
Mof_H 	H 	0.4183	0.0848	0.9522	0.126
Mof_C 	C 	0.332	0.1186	0.93008	0.215
Mof_C 	C 	0.2886	0.1697	0.93377	-0.245
Mof_H 	H 	0.2513	0.17	0.9182	0.124
Mof_C 	C 	0.2983	0.22	0.95954	0.163
Mof_H 	H 	0.2684	0.2542	0.9609	-0.032
Mof_C 	C 	0.3541	0.2195	0.98401	-0.254
Mof_H 	H 	0.361	0.2527	0.002	0.107
Mof_C 	C 	0.3976	0.1688	0.98045	0.221
Mof_C 	C 	0.3154	0.0735	0.86717	0.113
Mof_C 	C 	0.3068	0.0095	0.84457	0.249
Mof_C 	C 	0.5116	0.1663	0.99147	0.126
Mof_C 	C 	0.5662	0.1647	0.02265	0.248
Mof_C 	C 	0.1893	0.1898	0.21311	0.242
Mof_C 	C 	0.2402	0.2475	0.21238	0.244
Mof_N 	N 	0.324	0.9732	0.97749	-0.264
Mof_N 	N 	0.3674	0.1319	0.07976	-0.262
Mof_N 	N 	0.3212	0.0645	0.90514	-0.263
Mof_N 	N 	0.4524	0.167	0.00616	-0.268
Mof_O 	O 	0.62277	0.1616	0.01049	-0.295
Mof_O 	O 	0.52798	0.1695	0.95693	-0.296
Mof_O 	O 	0.5494	0.1677	0.05775	-0.334
Mof_O 	O 	0.2123	0.13348	0.209	-0.301
Mof_O 	O 	0.2985	0.23326	0.20693	-0.301
Mof_O 	O 	0.2193	0.30298	0.22	-0.3
Mof_O 	O 	0.1308	0.205	0.21551	-0.303
Mof_O 	O 	0.4653	0.1815	0.12044	-0.338
Mof_O 	O 	0.3984	0.81979	0.97236	-0.285
Mof_O 	O 	0.3719	0.91179	0.02624	-0.285
Mof_O 	O 	0.31761	0.12606	0.84874	-0.283
Mof_O 	O 	0.3016	0.0138	0.80855	-0.304
Mof_O 	O 	0.3055	0.9569	0.86371	-0.342
Mof_O 	O 	0.357	0.882	0.92567	-0.32
Mof_O 	O 	0.4134	0.1638	0.17614	-0.296
Mof_O 	O 	0.30757	0.11697	0.13624	-0.284
Mof_Mn	Mn	0.68148	0.86962	0.69785	0.957
Mof_Mn	Mn	0.88698	0.68972	0.7138	0.953
Mof_Cu	Cu	0.68677	0.02893	0.42029	0.882
Mof_Cu	Cu	0.54808	0.82937	0.5639	0.883
Mof_C 	C 	0.6552	0.9487	0.53046	-0.252
Mof_H 	H 	0.6118	0.9619	0.5316	0.123
Mof_C 	C 	0.6986	0.9781	0.50379	0.209
Mof_C 	C 	0.7628	0.9565	0.5011	-0.243
Mof_H 	H 	0.7904	0.9742	0.4824	0.104
Mof_C 	C 	0.7856	0.9089	0.52598	0.153
Mof_H 	H 	0.8289	0.8956	0.5244	-0.02
Mof_C 	C 	0.7444	0.8804	0.55362	-0.223
Mof_H 	H 	0.7605	0.8492	0.5708	0.12
Mof_C 	C 	0.6781	0.8995	0.55521	0.202
Mof_C 	C 	0.644	0.0764	0.49052	0.114
Mof_C 	C 	0.6269	0.1281	0.46085	0.233
Mof_C 	C 	0.6418	0.8637	0.61685	0.105
Mof_C 	C 	0.5836	0.837	0.63996	0.245
Mof_C 	C 	0.612	0.8815	0.45411	-0.266
Mof_H 	H 	0.5817	0.9152	0.4522	0.128
Mof_C 	C 	0.668	0.8814	0.43008	0.215
Mof_C 	C 	0.7114	0.8303	0.43377	-0.245
Mof_H 	H 	0.7487	0.83	0.4182	0.124
Mof_C 	C 	0.7017	0.78	0.45954	0.163
Mof_H 	H 	0.7316	0.7458	0.4609	-0.032
Mof_C 	C 	0.6459	0.7805	0.48401	-0.254
Mof_H 	H 	0.639	0.7473	0.502	0.107
Mof_C 	C 	0.6024	0.8312	0.48045	0.221
Mof_C 	C 	0.6846	0.9265	0.36717	0.113
Mof_C 	C 	0.6932	0.9905	0.34457	0.249
Mof_C 	C 	0.4884	0.8337	0.49147	0.126
Mof_C 	C 	0.4338	0.8353	0.52265	0.248
Mof_C 	C 	0.8107	0.8102	0.71311	0.242
Mof_C 	C 	0.7598	0.7525	0.71238	0.244
Mof_N 	N 	0.676	0.0268	0.47749	-0.264
Mof_N 	N 	0.6326	0.8681	0.57976	-0.262
Mof_N 	N 	0.6788	0.9355	0.40514	-0.263
Mof_N 	N 	0.5476	0.833	0.50616	-0.268
Mof_O 	O 	0.37723	0.8384	0.51049	-0.295
Mof_O 	O 	0.47202	0.8305	0.45693	-0.296
Mof_O 	O 	0.4506	0.8323	0.55775	-0.334
Mof_O 	O 	0.7877	0.86652	0.709	-0.301
Mof_O 	O 	0.7015	0.76674	0.70693	-0.301
Mof_O 	O 	0.7807	0.69702	0.72	-0.3
Mof_O 	O 	0.8692	0.795	0.71551	-0.303
Mof_O 	O 	0.5347	0.8185	0.62044	-0.338
Mof_O 	O 	0.6016	0.18021	0.47236	-0.285
Mof_O 	O 	0.6281	0.08821	0.52624	-0.285
Mof_O 	O 	0.68239	0.87394	0.34874	-0.283
Mof_O 	O 	0.6984	0.9862	0.30855	-0.304
Mof_O 	O 	0.6945	0.0431	0.36371	-0.342
Mof_O 	O 	0.643	0.118	0.42567	-0.32
Mof_O 	O 	0.5866	0.8362	0.67614	-0.296
Mof_O 	O 	0.69243	0.88303	0.63624	-0.284
Mof_Mn	Mn	0.36962	0.81852	0.44785	0.957
Mof_Mn	Mn	0.18972	0.61302	0.4638	0.953
Mof_Cu	Cu	0.52893	0.81323	0.17029	0.882
Mof_Cu	Cu	0.32937	0.95192	0.3139	0.883
Mof_C 	C 	0.4487	0.8448	0.28046	-0.252
Mof_H 	H 	0.4619	0.8882	0.2816	0.123
Mof_C 	C 	0.4781	0.8014	0.25379	0.208
Mof_C 	C 	0.4565	0.7372	0.2511	-0.243
Mof_H 	H 	0.4742	0.7096	0.2324	0.104
Mof_C 	C 	0.4089	0.7144	0.27598	0.153
Mof_H 	H 	0.3956	0.6711	0.2744	-0.02
Mof_C 	C 	0.3804	0.7556	0.30362	-0.223
Mof_H 	H 	0.3492	0.7395	0.3208	0.12
Mof_C 	C 	0.3995	0.8219	0.30521	0.202
Mof_C 	C 	0.5764	0.856	0.24052	0.114
Mof_C 	C 	0.6281	0.8731	0.21085	0.233
Mof_C 	C 	0.3637	0.8582	0.36685	0.105
Mof_C 	C 	0.337	0.9164	0.38996	0.245
Mof_C 	C 	0.3815	0.888	0.20411	-0.266
Mof_H 	H 	0.4152	0.9183	0.2022	0.127
Mof_C 	C 	0.3814	0.832	0.18008	0.215
Mof_C 	C 	0.3303	0.7886	0.18377	-0.245
Mof_H 	H 	0.33	0.7513	0.1682	0.124
Mof_C 	C 	0.28	0.7983	0.20954	0.163
Mof_H 	H 	0.2458	0.7684	0.2109	-0.032
Mof_C 	C 	0.2805	0.8541	0.23401	-0.254
Mof_H 	H 	0.2473	0.861	0.252	0.106
Mof_C 	C 	0.3312	0.8976	0.23045	0.221
Mof_C 	C 	0.4265	0.8154	0.11717	0.113
Mof_C 	C 	0.4905	0.8068	0.09457	0.249
Mof_C 	C 	0.3337	0.0116	0.24147	0.127
Mof_C 	C 	0.3353	0.0662	0.27265	0.248
Mof_C 	C 	0.3102	0.6893	0.46311	0.242
Mof_C 	C 	0.2525	0.7402	0.46238	0.244
Mof_N 	N 	0.5268	0.824	0.22749	-0.264
Mof_N 	N 	0.3681	0.8674	0.32976	-0.262
Mof_N 	N 	0.4355	0.8212	0.15514	-0.263
Mof_N 	N 	0.333	0.9524	0.25616	-0.268
Mof_O 	O 	0.3384	0.12277	0.26049	-0.295
Mof_O 	O 	0.3305	0.02798	0.20693	-0.296
Mof_O 	O 	0.3323	0.0494	0.30775	-0.333
Mof_O 	O 	0.36652	0.7123	0.459	-0.301
Mof_O 	O 	0.26674	0.7985	0.45693	-0.301
Mof_O 	O 	0.19702	0.7193	0.47	-0.3
Mof_O 	O 	0.295	0.6308	0.46551	-0.303
Mof_O 	O 	0.3185	0.9653	0.37044	-0.339
Mof_O 	O 	0.68021	0.8984	0.22236	-0.285
Mof_O 	O 	0.58821	0.8719	0.27624	-0.285
Mof_O 	O 	0.37394	0.81761	0.09874	-0.283
Mof_O 	O 	0.4862	0.8016	0.05855	-0.304
Mof_O 	O 	0.5431	0.8055	0.11371	-0.342
Mof_O 	O 	0.618	0.857	0.17567	-0.32
Mof_O 	O 	0.3362	0.9134	0.42614	-0.296
Mof_O 	O 	0.38303	0.80757	0.38624	-0.284
Mof_Mn	Mn	0.63038	0.18148	0.94785	0.956
Mof_Mn	Mn	0.81028	0.38698	0.9638	0.953
Mof_Cu	Cu	0.47107	0.18677	0.67029	0.882
Mof_Cu	Cu	0.67063	0.04808	0.8139	0.883
Mof_C 	C 	0.5513	0.1552	0.78046	-0.252
Mof_H 	H 	0.5381	0.1118	0.7816	0.123
Mof_C 	C 	0.5219	0.1986	0.75379	0.208
Mof_C 	C 	0.5435	0.2628	0.7511	-0.243
Mof_H 	H 	0.5258	0.2904	0.7324	0.104
Mof_C 	C 	0.5911	0.2856	0.77598	0.153
Mof_H 	H 	0.6044	0.3289	0.7744	-0.02
Mof_C 	C 	0.6196	0.2444	0.80362	-0.223
Mof_H 	H 	0.6508	0.2605	0.8208	0.12
Mof_C 	C 	0.6005	0.1781	0.80521	0.202
Mof_C 	C 	0.4236	0.144	0.74052	0.114
Mof_C 	C 	0.3719	0.1269	0.71085	0.233
Mof_C 	C 	0.6363	0.1418	0.86685	0.105
Mof_C 	C 	0.663	0.0836	0.88996	0.245
Mof_C 	C 	0.6185	0.112	0.70411	-0.266
Mof_H 	H 	0.5848	0.0817	0.7022	0.127
Mof_C 	C 	0.6186	0.168	0.68008	0.215
Mof_C 	C 	0.6697	0.2114	0.68377	-0.245
Mof_H 	H 	0.67	0.2487	0.6682	0.124
Mof_C 	C 	0.72	0.2017	0.70954	0.163
Mof_H 	H 	0.7542	0.2316	0.7109	-0.032
Mof_C 	C 	0.7195	0.1459	0.73401	-0.254
Mof_H 	H 	0.7527	0.139	0.752	0.106
Mof_C 	C 	0.6688	0.1024	0.73045	0.221
Mof_C 	C 	0.5735	0.1846	0.61717	0.113
Mof_C 	C 	0.5095	0.1932	0.59457	0.249
Mof_C 	C 	0.6663	0.9884	0.74147	0.127
Mof_C 	C 	0.6647	0.9338	0.77265	0.248
Mof_C 	C 	0.6898	0.3107	0.96311	0.242
Mof_C 	C 	0.7475	0.2598	0.96238	0.244
Mof_N 	N 	0.4732	0.176	0.72749	-0.264
Mof_N 	N 	0.6319	0.1326	0.82976	-0.262
Mof_N 	N 	0.5645	0.1788	0.65514	-0.263
Mof_N 	N 	0.667	0.0476	0.75616	-0.268
Mof_O 	O 	0.6616	0.87723	0.76049	-0.295
Mof_O 	O 	0.6695	0.97202	0.70693	-0.296
Mof_O 	O 	0.6677	0.9506	0.80775	-0.333
Mof_O 	O 	0.63348	0.2877	0.959	-0.301
Mof_O 	O 	0.73326	0.2015	0.95693	-0.301
Mof_O 	O 	0.80298	0.2807	0.97	-0.3
Mof_O 	O 	0.705	0.3692	0.96551	-0.303
Mof_O 	O 	0.6815	0.0347	0.87044	-0.339
Mof_O 	O 	0.31979	0.1016	0.72236	-0.285
Mof_O 	O 	0.41179	0.1281	0.77624	-0.285
Mof_O 	O 	0.62606	0.18239	0.59874	-0.283
Mof_O 	O 	0.5138	0.1984	0.55855	-0.304
Mof_O 	O 	0.4569	0.1945	0.61371	-0.342
Mof_O 	O 	0.382	0.143	0.67567	-0.32
Mof_O 	O 	0.6638	0.0866	0.92614	-0.296
Mof_O 	O 	0.61697	0.19243	0.88624	-0.284
Mof_Mn	Mn	0.18148	0.63038	0.05215	0.956
Mof_Mn	Mn	0.38698	0.81028	0.0362	0.953
Mof_Cu	Cu	0.18677	0.47107	0.32971	0.882
Mof_Cu	Cu	0.04808	0.67063	0.1861	0.883
Mof_C 	C 	0.1552	0.5513	0.21954	-0.252
Mof_H 	H 	0.1118	0.5381	0.2184	0.123
Mof_C 	C 	0.1986	0.5219	0.24621	0.208
Mof_C 	C 	0.2628	0.5435	0.2489	-0.243
Mof_H 	H 	0.2904	0.5258	0.2676	0.104
Mof_C 	C 	0.2856	0.5911	0.22402	0.153
Mof_H 	H 	0.3289	0.6044	0.2256	-0.02
Mof_C 	C 	0.2444	0.6196	0.19638	-0.223
Mof_H 	H 	0.2605	0.6508	0.1792	0.12
Mof_C 	C 	0.1781	0.6005	0.19479	0.202
Mof_C 	C 	0.144	0.4236	0.25948	0.114
Mof_C 	C 	0.1269	0.3719	0.28915	0.233
Mof_C 	C 	0.1418	0.6363	0.13315	0.105
Mof_C 	C 	0.0836	0.663	0.11004	0.245
Mof_C 	C 	0.112	0.6185	0.29589	-0.266
Mof_H 	H 	0.0817	0.5848	0.2978	0.127
Mof_C 	C 	0.168	0.6186	0.31992	0.215
Mof_C 	C 	0.2114	0.6697	0.31623	-0.245
Mof_H 	H 	0.2487	0.67	0.3318	0.124
Mof_C 	C 	0.2017	0.72	0.29046	0.163
Mof_H 	H 	0.2316	0.7542	0.2891	-0.032
Mof_C 	C 	0.1459	0.7195	0.26599	-0.254
Mof_H 	H 	0.139	0.7527	0.248	0.106
Mof_C 	C 	0.1024	0.6688	0.26955	0.221
Mof_C 	C 	0.1846	0.5735	0.38283	0.113
Mof_C 	C 	0.1932	0.5095	0.40543	0.249
Mof_C 	C 	0.9884	0.6663	0.25853	0.127
Mof_C 	C 	0.9338	0.6647	0.22735	0.248
Mof_C 	C 	0.3107	0.6898	0.03689	0.242
Mof_C 	C 	0.2598	0.7475	0.03762	0.244
Mof_N 	N 	0.176	0.4732	0.27251	-0.264
Mof_N 	N 	0.1326	0.6319	0.17024	-0.262
Mof_N 	N 	0.1788	0.5645	0.34486	-0.263
Mof_N 	N 	0.0476	0.667	0.24384	-0.268
Mof_O 	O 	0.87723	0.6616	0.23951	-0.295
Mof_O 	O 	0.97202	0.6695	0.29307	-0.296
Mof_O 	O 	0.9506	0.6677	0.19225	-0.333
Mof_O 	O 	0.2877	0.63348	0.041	-0.301
Mof_O 	O 	0.2015	0.73326	0.04307	-0.301
Mof_O 	O 	0.2807	0.80298	0.03	-0.3
Mof_O 	O 	0.3692	0.705	0.03449	-0.303
Mof_O 	O 	0.0347	0.6815	0.12956	-0.339
Mof_O 	O 	0.1016	0.31979	0.27764	-0.285
Mof_O 	O 	0.1281	0.41179	0.22376	-0.285
Mof_O 	O 	0.18239	0.62606	0.40126	-0.283
Mof_O 	O 	0.1984	0.5138	0.44145	-0.304
Mof_O 	O 	0.1945	0.4569	0.38629	-0.342
Mof_O 	O 	0.143	0.382	0.32433	-0.32
Mof_O 	O 	0.0866	0.6638	0.07386	-0.296
Mof_O 	O 	0.19243	0.61697	0.11376	-0.284
Mof_Mn	Mn	0.81852	0.36962	0.55215	0.957
Mof_Mn	Mn	0.61302	0.18972	0.5362	0.953
Mof_Cu	Cu	0.81323	0.52893	0.82971	0.882
Mof_Cu	Cu	0.95192	0.32937	0.6861	0.883
Mof_C 	C 	0.8448	0.4487	0.71954	-0.252
Mof_H 	H 	0.8882	0.4619	0.7184	0.123
Mof_C 	C 	0.8014	0.4781	0.74621	0.208
Mof_C 	C 	0.7372	0.4565	0.7489	-0.243
Mof_H 	H 	0.7096	0.4742	0.7676	0.104
Mof_C 	C 	0.7144	0.4089	0.72402	0.153
Mof_H 	H 	0.6711	0.3956	0.7256	-0.02
Mof_C 	C 	0.7556	0.3804	0.69638	-0.223
Mof_H 	H 	0.7395	0.3492	0.6792	0.12
Mof_C 	C 	0.8219	0.3995	0.69479	0.202
Mof_C 	C 	0.856	0.5764	0.75948	0.114
Mof_C 	C 	0.8731	0.6281	0.78915	0.233
Mof_C 	C 	0.8582	0.3637	0.63315	0.105
Mof_C 	C 	0.9164	0.337	0.61004	0.245
Mof_C 	C 	0.888	0.3815	0.79589	-0.266
Mof_H 	H 	0.9183	0.4152	0.7978	0.127
Mof_C 	C 	0.832	0.3814	0.81992	0.215
Mof_C 	C 	0.7886	0.3303	0.81623	-0.245
Mof_H 	H 	0.7513	0.33	0.8318	0.124
Mof_C 	C 	0.7983	0.28	0.79046	0.163
Mof_H 	H 	0.7684	0.2458	0.7891	-0.032
Mof_C 	C 	0.8541	0.2805	0.76599	-0.254
Mof_H 	H 	0.861	0.2473	0.748	0.106
Mof_C 	C 	0.8976	0.3312	0.76955	0.221
Mof_C 	C 	0.8154	0.4265	0.88283	0.113
Mof_C 	C 	0.8068	0.4905	0.90543	0.249
Mof_C 	C 	0.0116	0.3337	0.75853	0.127
Mof_C 	C 	0.0662	0.3353	0.72735	0.248
Mof_C 	C 	0.6893	0.3102	0.53689	0.242
Mof_C 	C 	0.7402	0.2525	0.53762	0.244
Mof_N 	N 	0.824	0.5268	0.77251	-0.264
Mof_N 	N 	0.8674	0.3681	0.67024	-0.262
Mof_N 	N 	0.8212	0.4355	0.84486	-0.263
Mof_N 	N 	0.9524	0.333	0.74384	-0.268
Mof_O 	O 	0.12277	0.3384	0.73951	-0.295
Mof_O 	O 	0.02798	0.3305	0.79307	-0.296
Mof_O 	O 	0.0494	0.3323	0.69225	-0.333
Mof_O 	O 	0.7123	0.36652	0.541	-0.301
Mof_O 	O 	0.7985	0.26674	0.54307	-0.301
Mof_O 	O 	0.7193	0.19702	0.53	-0.3
Mof_O 	O 	0.6308	0.295	0.53449	-0.303
Mof_O 	O 	0.9653	0.3185	0.62956	-0.339
Mof_O 	O 	0.8984	0.68021	0.77764	-0.285
Mof_O 	O 	0.8719	0.58821	0.72376	-0.285
Mof_O 	O 	0.81761	0.37394	0.90126	-0.283
Mof_O 	O 	0.8016	0.4862	0.94145	-0.304
Mof_O 	O 	0.8055	0.5431	0.88629	-0.342
Mof_O 	O 	0.857	0.618	0.82433	-0.32
Mof_O 	O 	0.9134	0.3362	0.57386	-0.296
Mof_O 	O 	0.80757	0.38303	0.61376	-0.284
Mof_Mn	Mn	0.13038	0.31852	0.80215	0.957
Mof_Mn	Mn	0.31028	0.11302	0.7862	0.953
Mof_Cu	Cu	0.97107	0.31323	0.07971	0.882
Mof_Cu	Cu	0.17063	0.45192	0.9361	0.883
Mof_C 	C 	0.0513	0.3448	0.96954	-0.252
Mof_H 	H 	0.0381	0.3882	0.9684	0.123
Mof_C 	C 	0.0219	0.3014	0.99621	0.209
Mof_C 	C 	0.0435	0.2372	0.9989	-0.243
Mof_H 	H 	0.0258	0.2096	0.0176	0.104
Mof_C 	C 	0.0911	0.2144	0.97402	0.153
Mof_H 	H 	0.1044	0.1711	0.9756	-0.02
Mof_C 	C 	0.1196	0.2556	0.94638	-0.223
Mof_H 	H 	0.1508	0.2395	0.9292	0.12
Mof_C 	C 	0.1005	0.3219	0.94479	0.202
Mof_C 	C 	0.9236	0.356	0.00948	0.114
Mof_C 	C 	0.8719	0.3731	0.03915	0.233
Mof_C 	C 	0.1363	0.3582	0.88315	0.105
Mof_C 	C 	0.163	0.4164	0.86004	0.245
Mof_C 	C 	0.1185	0.388	0.04589	-0.266
Mof_H 	H 	0.0848	0.4183	0.0478	0.127
Mof_C 	C 	0.1186	0.332	0.06992	0.215
Mof_C 	C 	0.1697	0.2886	0.06623	-0.245
Mof_H 	H 	0.17	0.2513	0.0818	0.124
Mof_C 	C 	0.22	0.2983	0.04046	0.163
Mof_H 	H 	0.2542	0.2684	0.0391	-0.032
Mof_C 	C 	0.2195	0.3541	0.01599	-0.254
Mof_H 	H 	0.2527	0.361	0.998	0.107
Mof_C 	C 	0.1688	0.3976	0.01955	0.221
Mof_C 	C 	0.0735	0.3154	0.13283	0.113
Mof_C 	C 	0.0095	0.3068	0.15543	0.249
Mof_C 	C 	0.1663	0.5116	0.00853	0.126
Mof_C 	C 	0.1647	0.5662	0.97735	0.248
Mof_C 	C 	0.1898	0.1893	0.78689	0.242
Mof_C 	C 	0.2475	0.2402	0.78762	0.244
Mof_N 	N 	0.9732	0.324	0.02251	-0.264
Mof_N 	N 	0.1319	0.3674	0.92024	-0.262
Mof_N 	N 	0.0645	0.3212	0.09486	-0.263
Mof_N 	N 	0.167	0.4524	0.99384	-0.268
Mof_O 	O 	0.1616	0.62277	0.98951	-0.295
Mof_O 	O 	0.1695	0.52798	0.04307	-0.296
Mof_O 	O 	0.1677	0.5494	0.94225	-0.334
Mof_O 	O 	0.13348	0.2123	0.791	-0.301
Mof_O 	O 	0.23326	0.2985	0.79307	-0.301
Mof_O 	O 	0.30298	0.2193	0.78	-0.3
Mof_O 	O 	0.205	0.1308	0.78449	-0.303
Mof_O 	O 	0.1815	0.4653	0.87956	-0.338
Mof_O 	O 	0.81979	0.3984	0.02764	-0.285
Mof_O 	O 	0.91179	0.3719	0.97376	-0.285
Mof_O 	O 	0.12606	0.31761	0.15126	-0.283
Mof_O 	O 	0.0138	0.3016	0.19145	-0.304
Mof_O 	O 	0.9569	0.3055	0.13629	-0.342
Mof_O 	O 	0.882	0.357	0.07433	-0.32
Mof_O 	O 	0.1638	0.4134	0.82386	-0.296
Mof_O 	O 	0.11697	0.30757	0.86376	-0.284
Mof_Mn	Mn	0.86962	0.68148	0.30215	0.957
Mof_Mn	Mn	0.68972	0.88698	0.2862	0.953
Mof_Cu	Cu	0.02893	0.68677	0.57971	0.882
Mof_Cu	Cu	0.82937	0.54808	0.4361	0.883
Mof_C 	C 	0.9487	0.6552	0.46954	-0.252
Mof_H 	H 	0.9619	0.6118	0.4684	0.123
Mof_C 	C 	0.9781	0.6986	0.49621	0.209
Mof_C 	C 	0.9565	0.7628	0.4989	-0.243
Mof_H 	H 	0.9742	0.7904	0.5176	0.104
Mof_C 	C 	0.9089	0.7856	0.47402	0.153
Mof_H 	H 	0.8956	0.8289	0.4756	-0.02
Mof_C 	C 	0.8804	0.7444	0.44638	-0.223
Mof_H 	H 	0.8492	0.7605	0.4292	0.12
Mof_C 	C 	0.8995	0.6781	0.44479	0.202
Mof_C 	C 	0.0764	0.644	0.50948	0.114
Mof_C 	C 	0.1281	0.6269	0.53915	0.233
Mof_C 	C 	0.8637	0.6418	0.38315	0.105
Mof_C 	C 	0.837	0.5836	0.36004	0.245
Mof_C 	C 	0.8815	0.612	0.54589	-0.266
Mof_H 	H 	0.9152	0.5817	0.5478	0.128
Mof_C 	C 	0.8814	0.668	0.56992	0.215
Mof_C 	C 	0.8303	0.7114	0.56623	-0.245
Mof_H 	H 	0.83	0.7487	0.5818	0.124
Mof_C 	C 	0.78	0.7017	0.54046	0.163
Mof_H 	H 	0.7458	0.7316	0.5391	-0.032
Mof_C 	C 	0.7805	0.6459	0.51599	-0.254
Mof_H 	H 	0.7473	0.639	0.498	0.107
Mof_C 	C 	0.8312	0.6024	0.51955	0.221
Mof_C 	C 	0.9265	0.6846	0.63283	0.113
Mof_C 	C 	0.9905	0.6932	0.65543	0.249
Mof_C 	C 	0.8337	0.4884	0.50853	0.126
Mof_C 	C 	0.8353	0.4338	0.47735	0.248
Mof_C 	C 	0.8102	0.8107	0.28689	0.242
Mof_C 	C 	0.7525	0.7598	0.28762	0.244
Mof_N 	N 	0.0268	0.676	0.52251	-0.264
Mof_N 	N 	0.8681	0.6326	0.42024	-0.262
Mof_N 	N 	0.9355	0.6788	0.59486	-0.263
Mof_N 	N 	0.833	0.5476	0.49384	-0.268
Mof_O 	O 	0.8384	0.37723	0.48951	-0.295
Mof_O 	O 	0.8305	0.47202	0.54307	-0.296
Mof_O 	O 	0.8323	0.4506	0.44225	-0.334
Mof_O 	O 	0.86652	0.7877	0.291	-0.301
Mof_O 	O 	0.76674	0.7015	0.29307	-0.301
Mof_O 	O 	0.69702	0.7807	0.28	-0.3
Mof_O 	O 	0.795	0.8692	0.28449	-0.303
Mof_O 	O 	0.8185	0.5347	0.37956	-0.338
Mof_O 	O 	0.18021	0.6016	0.52764	-0.285
Mof_O 	O 	0.08821	0.6281	0.47376	-0.285
Mof_O 	O 	0.87394	0.68239	0.65126	-0.283
Mof_O 	O 	0.9862	0.6984	0.69145	-0.304
Mof_O 	O 	0.0431	0.6945	0.63629	-0.342
Mof_O 	O 	0.118	0.643	0.57433	-0.32
Mof_O 	O 	0.8362	0.5866	0.32386	-0.296
Mof_O 	O 	0.88303	0.69243	0.36376	-0.284
_end
