data_functionalizedCrystal
_audit_creation_method	'EQeq! by Chris Wilmer'
_symmetry_space_group_name_H-M	'P1'
_symmetry_Int_Tables_number	1
_symmetry_cell_setting	triclinic
loop_
_symmetry_equiv_pos_as_xyz
  x,y,z
_cell_length_a	10.3277
_cell_length_b	17.6705
_cell_length_c	10.6009
_cell_angle_alpha	90
_cell_angle_beta	91.7
_cell_angle_gamma	90
loop_
_atom_site_label
_atom_site_type_symbol
_atom_site_fract_x
_atom_site_fract_y
_atom_site_fract_z
_atom_site_charge
Mof_Zn	Zn	0.23374	0.16877	0.49456	1.213
Mof_Zn	Zn	0.01116	0.17478	0.80813	1.213
Mof_P 	P 	0.29878	0.22838	0.76253	0.446
Mof_H 	H 	0.4022	0.1931	0.8048	-0.044
Mof_P 	P 	0.94171	0.20902	0.52879	0.507
Mof_H 	H 	0.8465	0.1801	0.4966	-0.077
Mof_O 	O 	0.1967	0.17178	0.7977	-0.514
Mof_O 	O 	0.3091	0.23885	0.6205	-0.454
Mof_O 	O 	0.286	0.30439	0.827	-0.472
Mof_O 	O 	0.0508	0.1543	0.5001	-0.516
Mof_O 	O 	0.9455	0.2811	0.4579	-0.48
Mof_O 	O 	0.928	0.2262	0.6674	-0.461
Mof_N 	N 	0.3169	0.0685	0.5417	-0.264
Mof_N 	N 	0.4466	0.9926	0.6494	-0.103
Mof_N 	N 	0.1662	0.0304	0.1247	-0.107
Mof_N 	N 	0.0478	0.9323	0.176	-0.268
Mof_C 	C 	0.4262	0.0635	0.6076	0.089
Mof_H 	H 	0.4823	0.1038	0.6234	-0.01
Mof_C 	C 	0.2641	0.9982	0.5412	0.021
Mof_H 	H 	0.186	0.985	0.5012	0.012
Mof_C 	C 	0.3426	0.9501	0.6079	-0.02
Mof_H 	H 	0.3287	0.8989	0.6225	0.044
Mof_C 	C 	0.5515	0.9683	0.7358	-0.118
Mof_H 	H 	0.6307	0.994	0.7137	0.071
Mof_H 	H 	0.5651	0.9144	0.7256	0.075
Mof_C 	C 	0.5237	0.9847	0.8731	0.046
Mof_C 	C 	0.4112	0.0207	0.9089	-0.121
Mof_H 	H 	0.3507	0.0349	0.8466	0.083
Mof_C 	C 	0.3853	0.0364	0.0329	0.044
Mof_C 	C 	0.2632	0.0782	0.0628	-0.113
Mof_H 	H 	0.285	0.1206	0.1176	0.084
Mof_H 	H 	0.2251	0.0985	0.9852	0.054
Mof_C 	C 	0.1448	0.9563	0.1083	0.091
Mof_H 	H 	0.1925	0.9255	0.0558	0
Mof_C 	C 	0.0769	0.0555	0.2069	-0.043
Mof_H 	H 	0.067	0.1047	0.2361	0.042
Mof_C 	C 	0.0053	0.9944	0.2374	0.054
Mof_H 	H 	0.9369	0.995	0.2925	-0.013
Mof_Zn	Zn	0.76626	0.66877	0.00544	1.21
Mof_Zn	Zn	0.98884	0.67478	0.69187	1.219
Mof_P 	P 	0.70122	0.72838	0.73747	0.447
Mof_H 	H 	0.5978	0.6931	0.6952	-0.043
Mof_P 	P 	0.05829	0.70902	0.97121	0.48
Mof_H 	H 	0.1535	0.6801	0.0034	-0.067
Mof_O 	O 	0.8033	0.67178	0.7023	-0.51
Mof_O 	O 	0.6909	0.73885	0.8795	-0.451
Mof_O 	O 	0.714	0.80439	0.673	-0.47
Mof_O 	O 	0.9492	0.6543	0.9999	-0.501
Mof_O 	O 	0.0545	0.7811	0.0421	-0.467
Mof_O 	O 	0.072	0.7262	0.8326	-0.464
Mof_N 	N 	0.6831	0.5685	0.9583	-0.261
Mof_N 	N 	0.5534	0.4926	0.8506	-0.105
Mof_N 	N 	0.8338	0.5304	0.3753	-0.108
Mof_N 	N 	0.9522	0.4323	0.324	-0.264
Mof_C 	C 	0.5738	0.5635	0.8924	0.09
Mof_H 	H 	0.5177	0.6038	0.8766	-0.011
Mof_C 	C 	0.7359	0.4982	0.9588	0.017
Mof_H 	H 	0.814	0.485	0.9988	0.014
Mof_C 	C 	0.6574	0.4501	0.8921	-0.019
Mof_H 	H 	0.6713	0.3989	0.8775	0.044
Mof_C 	C 	0.4485	0.4683	0.7642	-0.116
Mof_H 	H 	0.3693	0.494	0.7863	0.07
Mof_H 	H 	0.4349	0.4144	0.7744	0.074
Mof_C 	C 	0.4763	0.4847	0.6269	0.041
Mof_C 	C 	0.5888	0.5207	0.5911	-0.113
Mof_H 	H 	0.6493	0.5349	0.6534	0.082
Mof_C 	C 	0.6147	0.5364	0.4671	0.044
Mof_C 	C 	0.7368	0.5782	0.4372	-0.129
Mof_H 	H 	0.715	0.6206	0.3824	0.088
Mof_H 	H 	0.7749	0.5985	0.5148	0.066
Mof_C 	C 	0.8552	0.4563	0.3917	0.088
Mof_H 	H 	0.8075	0.4255	0.4442	0
Mof_C 	C 	0.9231	0.5555	0.2931	-0.016
Mof_H 	H 	0.933	0.6047	0.2639	0.028
Mof_C 	C 	0.9947	0.4944	0.2626	0.002
Mof_H 	H 	0.0631	0.495	0.2075	0.018
Mof_Zn	Zn	0.76626	0.83123	0.50544	1.214
Mof_Zn	Zn	0.98884	0.82522	0.19187	1.214
Mof_P 	P 	0.70122	0.77162	0.23747	0.447
Mof_H 	H 	0.5978	0.8069	0.1952	-0.043
Mof_P 	P 	0.05829	0.79098	0.47121	0.507
Mof_H 	H 	0.1535	0.8199	0.5034	-0.077
Mof_O 	O 	0.8033	0.82822	0.2023	-0.514
Mof_O 	O 	0.6909	0.76115	0.3795	-0.454
Mof_O 	O 	0.714	0.69561	0.173	-0.472
Mof_O 	O 	0.9492	0.8457	0.4999	-0.516
Mof_O 	O 	0.0545	0.7189	0.5421	-0.48
Mof_O 	O 	0.072	0.7738	0.3326	-0.461
Mof_N 	N 	0.6831	0.9315	0.4583	-0.264
Mof_N 	N 	0.5534	0.0074	0.3506	-0.103
Mof_N 	N 	0.8338	0.9696	0.8753	-0.107
Mof_N 	N 	0.9522	0.0677	0.824	-0.268
Mof_C 	C 	0.5738	0.9365	0.3924	0.089
Mof_H 	H 	0.5177	0.8962	0.3766	-0.01
Mof_C 	C 	0.7359	0.0018	0.4588	0.021
Mof_H 	H 	0.814	0.015	0.4988	0.012
Mof_C 	C 	0.6574	0.0499	0.3921	-0.02
Mof_H 	H 	0.6713	0.1011	0.3775	0.044
Mof_C 	C 	0.4485	0.0317	0.2642	-0.118
Mof_H 	H 	0.3693	0.006	0.2863	0.071
Mof_H 	H 	0.4349	0.0856	0.2744	0.075
Mof_C 	C 	0.4763	0.0153	0.1269	0.046
Mof_C 	C 	0.5888	0.9793	0.0911	-0.121
Mof_H 	H 	0.6493	0.9651	0.1534	0.083
Mof_C 	C 	0.6147	0.9636	0.9671	0.044
Mof_C 	C 	0.7368	0.9218	0.9372	-0.113
Mof_H 	H 	0.715	0.8794	0.8824	0.084
Mof_H 	H 	0.7749	0.9015	0.0148	0.054
Mof_C 	C 	0.8552	0.0437	0.8917	0.091
Mof_H 	H 	0.8075	0.0745	0.9442	0
Mof_C 	C 	0.9231	0.9445	0.7931	-0.043
Mof_H 	H 	0.933	0.8953	0.7639	0.042
Mof_C 	C 	0.9947	0.0056	0.7626	0.054
Mof_H 	H 	0.0631	0.005	0.7075	-0.013
Mof_Zn	Zn	0.23374	0.33123	0.99456	1.21
Mof_Zn	Zn	0.01116	0.32522	0.30813	1.219
Mof_P 	P 	0.29878	0.27162	0.26253	0.447
Mof_H 	H 	0.4022	0.3069	0.3048	-0.043
Mof_P 	P 	0.94171	0.29098	0.02879	0.48
Mof_H 	H 	0.8465	0.3199	0.9966	-0.067
Mof_O 	O 	0.1967	0.32822	0.2977	-0.51
Mof_O 	O 	0.3091	0.26115	0.1205	-0.451
Mof_O 	O 	0.286	0.19561	0.327	-0.47
Mof_O 	O 	0.0508	0.3457	0.0001	-0.501
Mof_O 	O 	0.9455	0.2189	0.9579	-0.467
Mof_O 	O 	0.928	0.2738	0.1674	-0.464
Mof_N 	N 	0.3169	0.4315	0.0417	-0.261
Mof_N 	N 	0.4466	0.5074	0.1494	-0.105
Mof_N 	N 	0.1662	0.4696	0.6247	-0.108
Mof_N 	N 	0.0478	0.5677	0.676	-0.264
Mof_C 	C 	0.4262	0.4365	0.1076	0.09
Mof_H 	H 	0.4823	0.3962	0.1234	-0.011
Mof_C 	C 	0.2641	0.5018	0.0412	0.017
Mof_H 	H 	0.186	0.515	0.0012	0.014
Mof_C 	C 	0.3426	0.5499	0.1079	-0.019
Mof_H 	H 	0.3287	0.6011	0.1225	0.044
Mof_C 	C 	0.5515	0.5317	0.2358	-0.116
Mof_H 	H 	0.6307	0.506	0.2137	0.07
Mof_H 	H 	0.5651	0.5856	0.2256	0.074
Mof_C 	C 	0.5237	0.5153	0.3731	0.041
Mof_C 	C 	0.4112	0.4793	0.4089	-0.113
Mof_H 	H 	0.3507	0.4651	0.3466	0.082
Mof_C 	C 	0.3853	0.4636	0.5329	0.044
Mof_C 	C 	0.2632	0.4218	0.5628	-0.129
Mof_H 	H 	0.285	0.3794	0.6176	0.088
Mof_H 	H 	0.2251	0.4015	0.4852	0.066
Mof_C 	C 	0.1448	0.5437	0.6083	0.088
Mof_H 	H 	0.1925	0.5745	0.5558	0
Mof_C 	C 	0.0769	0.4445	0.7069	-0.016
Mof_H 	H 	0.067	0.3953	0.7361	0.028
Mof_C 	C 	0.0053	0.5056	0.7374	0.002
Mof_H 	H 	0.9369	0.505	0.7925	0.018
_end
