data_functionalizedCrystal
_audit_creation_method	'EQeq! by Chris Wilmer'
_symmetry_space_group_name_H-M	'P1'
_symmetry_Int_Tables_number	1
_symmetry_cell_setting	triclinic
loop_
_symmetry_equiv_pos_as_xyz
  x,y,z
_cell_length_a	26.3386
_cell_length_b	26.3386
_cell_length_c	26.3386
_cell_angle_alpha	90
_cell_angle_beta	90
_cell_angle_gamma	90
loop_
_atom_site_label
_atom_site_type_symbol
_atom_site_fract_x
_atom_site_fract_y
_atom_site_fract_z
_atom_site_charge
Mof_O 	O 	0.31688	0.24405	0.94773	-0.368
Mof_O 	O 	0.31688	0.74405	0.44773	-0.396
Mof_O 	O 	0.81688	0.24405	0.44773	-0.394
Mof_O 	O 	0.81688	0.74405	0.94773	-0.36
Mof_O 	O 	0.68312	0.75595	0.94773	-0.366
Mof_O 	O 	0.68312	0.25595	0.44773	-0.4
Mof_O 	O 	0.18312	0.75595	0.44773	-0.402
Mof_O 	O 	0.18312	0.25595	0.94773	-0.374
Mof_O 	O 	0.68312	0.24405	0.05227	-0.415
Mof_O 	O 	0.68312	0.74405	0.55227	-0.395
Mof_O 	O 	0.18312	0.24405	0.55227	-0.403
Mof_O 	O 	0.18312	0.74405	0.05227	-0.416
Mof_O 	O 	0.31688	0.75595	0.05227	-0.412
Mof_O 	O 	0.31688	0.25595	0.55227	-0.399
Mof_O 	O 	0.81688	0.75595	0.55227	-0.391
Mof_O 	O 	0.81688	0.25595	0.05227	-0.41
Mof_O 	O 	0.94773	0.31688	0.24405	-0.367
Mof_O 	O 	0.94773	0.81688	0.74405	-0.359
Mof_O 	O 	0.44773	0.31688	0.74405	-0.395
Mof_O 	O 	0.44773	0.81688	0.24405	-0.393
Mof_O 	O 	0.94773	0.68312	0.75595	-0.365
Mof_O 	O 	0.94773	0.18312	0.25595	-0.373
Mof_O 	O 	0.44773	0.68312	0.25595	-0.399
Mof_O 	O 	0.44773	0.18312	0.75595	-0.401
Mof_O 	O 	0.05227	0.68312	0.24405	-0.414
Mof_O 	O 	0.05227	0.18312	0.74405	-0.416
Mof_O 	O 	0.55227	0.68312	0.74405	-0.395
Mof_O 	O 	0.55227	0.18312	0.24405	-0.403
Mof_O 	O 	0.05227	0.31688	0.75595	-0.412
Mof_O 	O 	0.05227	0.81688	0.25595	-0.41
Mof_O 	O 	0.55227	0.31688	0.25595	-0.399
Mof_O 	O 	0.55227	0.81688	0.75595	-0.391
Mof_O 	O 	0.24405	0.94773	0.31688	-0.367
Mof_O 	O 	0.24405	0.44773	0.81688	-0.393
Mof_O 	O 	0.74405	0.94773	0.81688	-0.359
Mof_O 	O 	0.74405	0.44773	0.31688	-0.395
Mof_O 	O 	0.75595	0.94773	0.68312	-0.365
Mof_O 	O 	0.75595	0.44773	0.18312	-0.401
Mof_O 	O 	0.25595	0.94773	0.18312	-0.373
Mof_O 	O 	0.25595	0.44773	0.68312	-0.399
Mof_O 	O 	0.24405	0.05227	0.68312	-0.414
Mof_O 	O 	0.24405	0.55227	0.18312	-0.403
Mof_O 	O 	0.74405	0.05227	0.18312	-0.416
Mof_O 	O 	0.74405	0.55227	0.68312	-0.395
Mof_O 	O 	0.75595	0.05227	0.31688	-0.412
Mof_O 	O 	0.75595	0.55227	0.81688	-0.391
Mof_O 	O 	0.25595	0.05227	0.81688	-0.41
Mof_O 	O 	0.25595	0.55227	0.31688	-0.399
Mof_O 	O 	0.24405	0.31688	0.05227	-0.415
Mof_O 	O 	0.24405	0.81688	0.55227	-0.393
Mof_O 	O 	0.74405	0.31688	0.55227	-0.395
Mof_O 	O 	0.74405	0.81688	0.05227	-0.406
Mof_O 	O 	0.75595	0.68312	0.05227	-0.412
Mof_O 	O 	0.75595	0.18312	0.55227	-0.401
Mof_O 	O 	0.25595	0.68312	0.55227	-0.399
Mof_O 	O 	0.25595	0.18312	0.05227	-0.42
Mof_O 	O 	0.24405	0.68312	0.94773	-0.367
Mof_O 	O 	0.24405	0.18312	0.44773	-0.403
Mof_O 	O 	0.74405	0.68312	0.44773	-0.395
Mof_O 	O 	0.74405	0.18312	0.94773	-0.369
Mof_O 	O 	0.75595	0.31688	0.94773	-0.365
Mof_O 	O 	0.75595	0.81688	0.44773	-0.391
Mof_O 	O 	0.25595	0.31688	0.44773	-0.399
Mof_O 	O 	0.25595	0.81688	0.94773	-0.363
Mof_O 	O 	0.31688	0.94773	0.75595	-0.365
Mof_O 	O 	0.31688	0.44773	0.25595	-0.399
Mof_O 	O 	0.81688	0.94773	0.25595	-0.363
Mof_O 	O 	0.81688	0.44773	0.75595	-0.391
Mof_O 	O 	0.68312	0.94773	0.24405	-0.367
Mof_O 	O 	0.68312	0.44773	0.74405	-0.395
Mof_O 	O 	0.18312	0.94773	0.74405	-0.369
Mof_O 	O 	0.18312	0.44773	0.24405	-0.403
Mof_O 	O 	0.68312	0.05227	0.75595	-0.412
Mof_O 	O 	0.68312	0.55227	0.25595	-0.399
Mof_O 	O 	0.18312	0.05227	0.25595	-0.42
Mof_O 	O 	0.18312	0.55227	0.75595	-0.401
Mof_O 	O 	0.31688	0.05227	0.24405	-0.415
Mof_O 	O 	0.31688	0.55227	0.74405	-0.395
Mof_O 	O 	0.81688	0.05227	0.74405	-0.406
Mof_O 	O 	0.81688	0.55227	0.24405	-0.393
Mof_O 	O 	0.94773	0.24405	0.68312	-0.367
Mof_O 	O 	0.94773	0.74405	0.18312	-0.369
Mof_O 	O 	0.44773	0.24405	0.18312	-0.403
Mof_O 	O 	0.44773	0.74405	0.68312	-0.395
Mof_O 	O 	0.94773	0.75595	0.31688	-0.365
Mof_O 	O 	0.94773	0.25595	0.81688	-0.363
Mof_O 	O 	0.44773	0.75595	0.81688	-0.391
Mof_O 	O 	0.44773	0.25595	0.31688	-0.399
Mof_O 	O 	0.05227	0.24405	0.31688	-0.415
Mof_O 	O 	0.05227	0.74405	0.81688	-0.406
Mof_O 	O 	0.55227	0.24405	0.81688	-0.393
Mof_O 	O 	0.55227	0.74405	0.31688	-0.395
Mof_O 	O 	0.05227	0.75595	0.68312	-0.412
Mof_O 	O 	0.05227	0.25595	0.18312	-0.42
Mof_O 	O 	0.55227	0.75595	0.18312	-0.401
Mof_O 	O 	0.55227	0.25595	0.68312	-0.399
Mof_O 	O 	0.68312	0.75595	0.05227	-0.412
Mof_O 	O 	0.68312	0.25595	0.55227	-0.399
Mof_O 	O 	0.18312	0.75595	0.55227	-0.401
Mof_O 	O 	0.18312	0.25595	0.05227	-0.42
Mof_O 	O 	0.31688	0.24405	0.05227	-0.415
Mof_O 	O 	0.31688	0.74405	0.55227	-0.395
Mof_O 	O 	0.81688	0.24405	0.55227	-0.393
Mof_O 	O 	0.81688	0.74405	0.05227	-0.406
Mof_O 	O 	0.31688	0.75595	0.94773	-0.365
Mof_O 	O 	0.31688	0.25595	0.44773	-0.399
Mof_O 	O 	0.81688	0.75595	0.44773	-0.391
Mof_O 	O 	0.81688	0.25595	0.94773	-0.363
Mof_O 	O 	0.68312	0.24405	0.94773	-0.367
Mof_O 	O 	0.68312	0.74405	0.44773	-0.395
Mof_O 	O 	0.18312	0.24405	0.44773	-0.403
Mof_O 	O 	0.18312	0.74405	0.94773	-0.369
Mof_O 	O 	0.05227	0.68312	0.75595	-0.412
Mof_O 	O 	0.05227	0.18312	0.25595	-0.42
Mof_O 	O 	0.55227	0.68312	0.25595	-0.399
Mof_O 	O 	0.55227	0.18312	0.75595	-0.401
Mof_O 	O 	0.05227	0.31688	0.24405	-0.415
Mof_O 	O 	0.05227	0.81688	0.74405	-0.406
Mof_O 	O 	0.55227	0.31688	0.74405	-0.395
Mof_O 	O 	0.55227	0.81688	0.24405	-0.393
Mof_O 	O 	0.94773	0.31688	0.75595	-0.365
Mof_O 	O 	0.94773	0.81688	0.25595	-0.363
Mof_O 	O 	0.44773	0.31688	0.25595	-0.399
Mof_O 	O 	0.44773	0.81688	0.75595	-0.391
Mof_O 	O 	0.94773	0.68312	0.24405	-0.367
Mof_O 	O 	0.94773	0.18312	0.74405	-0.369
Mof_O 	O 	0.44773	0.68312	0.74405	-0.395
Mof_O 	O 	0.44773	0.18312	0.24405	-0.403
Mof_O 	O 	0.75595	0.05227	0.68312	-0.412
Mof_O 	O 	0.75595	0.55227	0.18312	-0.401
Mof_O 	O 	0.25595	0.05227	0.18312	-0.42
Mof_O 	O 	0.25595	0.55227	0.68312	-0.399
Mof_O 	O 	0.24405	0.05227	0.31688	-0.415
Mof_O 	O 	0.24405	0.55227	0.81688	-0.393
Mof_O 	O 	0.74405	0.05227	0.81688	-0.406
Mof_O 	O 	0.74405	0.55227	0.31688	-0.395
Mof_O 	O 	0.75595	0.94773	0.31688	-0.365
Mof_O 	O 	0.75595	0.44773	0.81688	-0.391
Mof_O 	O 	0.25595	0.94773	0.81688	-0.363
Mof_O 	O 	0.25595	0.44773	0.31688	-0.399
Mof_O 	O 	0.24405	0.94773	0.68312	-0.367
Mof_O 	O 	0.24405	0.44773	0.18312	-0.403
Mof_O 	O 	0.74405	0.94773	0.18312	-0.369
Mof_O 	O 	0.74405	0.44773	0.68312	-0.395
Mof_O 	O 	0.75595	0.68312	0.94773	-0.365
Mof_O 	O 	0.75595	0.18312	0.44773	-0.401
Mof_O 	O 	0.25595	0.68312	0.44773	-0.399
Mof_O 	O 	0.25595	0.18312	0.94773	-0.373
Mof_O 	O 	0.24405	0.31688	0.94773	-0.367
Mof_O 	O 	0.24405	0.81688	0.44773	-0.393
Mof_O 	O 	0.74405	0.31688	0.44773	-0.395
Mof_O 	O 	0.74405	0.81688	0.94773	-0.359
Mof_O 	O 	0.75595	0.31688	0.05227	-0.412
Mof_O 	O 	0.75595	0.81688	0.55227	-0.391
Mof_O 	O 	0.25595	0.31688	0.55227	-0.399
Mof_O 	O 	0.25595	0.81688	0.05227	-0.41
Mof_O 	O 	0.24405	0.68312	0.05227	-0.414
Mof_O 	O 	0.24405	0.18312	0.55227	-0.403
Mof_O 	O 	0.74405	0.68312	0.55227	-0.395
Mof_O 	O 	0.74405	0.18312	0.05227	-0.416
Mof_O 	O 	0.68312	0.05227	0.24405	-0.414
Mof_O 	O 	0.68312	0.55227	0.74405	-0.395
Mof_O 	O 	0.18312	0.05227	0.74405	-0.416
Mof_O 	O 	0.18312	0.55227	0.24405	-0.403
Mof_O 	O 	0.31688	0.05227	0.75595	-0.412
Mof_O 	O 	0.31688	0.55227	0.25595	-0.399
Mof_O 	O 	0.81688	0.05227	0.25595	-0.41
Mof_O 	O 	0.81688	0.55227	0.75595	-0.391
Mof_O 	O 	0.31688	0.94773	0.24405	-0.367
Mof_O 	O 	0.31688	0.44773	0.74405	-0.395
Mof_O 	O 	0.81688	0.94773	0.74405	-0.359
Mof_O 	O 	0.81688	0.44773	0.24405	-0.393
Mof_O 	O 	0.68312	0.94773	0.75595	-0.365
Mof_O 	O 	0.68312	0.44773	0.25595	-0.399
Mof_O 	O 	0.18312	0.94773	0.25595	-0.373
Mof_O 	O 	0.18312	0.44773	0.75595	-0.401
Mof_O 	O 	0.05227	0.75595	0.31688	-0.412
Mof_O 	O 	0.05227	0.25595	0.81688	-0.41
Mof_O 	O 	0.55227	0.75595	0.81688	-0.391
Mof_O 	O 	0.55227	0.25595	0.31688	-0.399
Mof_O 	O 	0.05227	0.24405	0.68312	-0.414
Mof_O 	O 	0.05227	0.74405	0.18312	-0.416
Mof_O 	O 	0.55227	0.24405	0.18312	-0.403
Mof_O 	O 	0.55227	0.74405	0.68312	-0.395
Mof_O 	O 	0.94773	0.75595	0.68312	-0.365
Mof_O 	O 	0.94773	0.25595	0.18312	-0.373
Mof_O 	O 	0.44773	0.75595	0.18312	-0.401
Mof_O 	O 	0.44773	0.25595	0.68312	-0.399
Mof_O 	O 	0.94773	0.24405	0.31688	-0.367
Mof_O 	O 	0.94773	0.74405	0.81688	-0.359
Mof_O 	O 	0.44773	0.24405	0.81688	-0.393
Mof_O 	O 	0.44773	0.74405	0.31688	-0.395
Mof_Cu	Cu	0.28452	0.28452	-0	0.877
Mof_Cu	Cu	0.28452	0.78452	0.5	0.908
Mof_Cu	Cu	0.78452	0.28452	0.5	0.908
Mof_Cu	Cu	0.78452	0.78452	-0	0.88
Mof_Cu	Cu	0.71548	0.71548	-0	0.877
Mof_Cu	Cu	0.71548	0.21548	0.5	0.904
Mof_Cu	Cu	0.21548	0.71548	0.5	0.904
Mof_Cu	Cu	0.21548	0.21548	-0	0.874
Mof_Cu	Cu	0.71548	0.28452	-0	0.877
Mof_Cu	Cu	0.71548	0.78452	0.5	0.908
Mof_Cu	Cu	0.21548	0.28452	0.5	0.904
Mof_Cu	Cu	0.21548	0.78452	-0	0.877
Mof_Cu	Cu	0.28452	0.71548	-0	0.877
Mof_Cu	Cu	0.28452	0.21548	0.5	0.904
Mof_Cu	Cu	0.78452	0.71548	0.5	0.908
Mof_Cu	Cu	0.78452	0.21548	-0	0.877
Mof_Cu	Cu	-1.69636e-33	0.28452	0.28452	0.877
Mof_Cu	Cu	2.94148e-33	0.78452	0.78452	0.88
Mof_Cu	Cu	0.5	0.28452	0.78452	0.908
Mof_Cu	Cu	0.5	0.78452	0.28452	0.908
Mof_Cu	Cu	-8.36993e-33	0.71548	0.71548	0.877
Mof_Cu	Cu	-4.71835e-33	0.21548	0.21548	0.874
Mof_Cu	Cu	0.5	0.71548	0.21548	0.904
Mof_Cu	Cu	0.5	0.21548	0.71548	0.904
Mof_Cu	Cu	-4.45949e-33	0.71548	0.28452	0.877
Mof_Cu	Cu	-2.58479e-33	0.21548	0.78452	0.877
Mof_Cu	Cu	0.5	0.71548	0.78452	0.908
Mof_Cu	Cu	0.5	0.21548	0.28452	0.904
Mof_Cu	Cu	-8.36993e-33	0.28452	0.71548	0.877
Mof_Cu	Cu	-1.95522e-33	0.78452	0.21548	0.877
Mof_Cu	Cu	0.5	0.28452	0.21548	0.904
Mof_Cu	Cu	0.5	0.78452	0.71548	0.908
Mof_Cu	Cu	0.28452	0	0.28452	0.877
Mof_Cu	Cu	0.28452	0.5	0.78452	0.908
Mof_Cu	Cu	0.78452	0	0.78452	0.88
Mof_Cu	Cu	0.78452	0.5	0.28452	0.908
Mof_Cu	Cu	0.71548	-5.52627e-33	0.71548	0.877
Mof_Cu	Cu	0.71548	0.5	0.21548	0.904
Mof_Cu	Cu	0.21548	-2.76314e-33	0.21548	0.874
Mof_Cu	Cu	0.21548	0.5	0.71548	0.904
Mof_Cu	Cu	0.28452	-5.52627e-33	0.71548	0.877
Mof_Cu	Cu	0.28452	0.5	0.21548	0.904
Mof_Cu	Cu	0.78452	-2.76314e-33	0.21548	0.877
Mof_Cu	Cu	0.78452	0.5	0.71548	0.908
Mof_Cu	Cu	0.71548	0	0.28452	0.877
Mof_Cu	Cu	0.71548	0.5	0.78452	0.908
Mof_Cu	Cu	0.21548	0	0.78452	0.877
Mof_Cu	Cu	0.21548	0.5	0.28452	0.904
Mof_C 	C 	0.32158	0.17842	0.88646	-0.126
Mof_C 	C 	0.29729	0.20271	0.93076	0.345
Mof_C 	C 	0.32158	0.67842	0.38646	-0.131
Mof_C 	C 	0.29729	0.70271	0.43076	0.348
Mof_C 	C 	0.67842	0.82158	0.88646	-0.117
Mof_C 	C 	0.70271	0.79729	0.93076	0.343
Mof_C 	C 	0.67842	0.32158	0.38646	-0.131
Mof_C 	C 	0.70271	0.29729	0.43076	0.348
Mof_C 	C 	0.17842	0.32158	0.88646	-0.126
Mof_C 	C 	0.20271	0.29729	0.93076	0.345
Mof_C 	C 	0.67842	0.17842	0.11354	-0.14
Mof_C 	C 	0.70271	0.20271	0.06924	0.346
Mof_C 	C 	0.67842	0.67842	0.61354	-0.129
Mof_C 	C 	0.70271	0.70271	0.56924	0.346
Mof_C 	C 	0.17842	0.17842	0.61354	-0.138
Mof_C 	C 	0.20271	0.20271	0.56924	0.348
Mof_C 	C 	0.32158	0.82158	0.11354	-0.134
Mof_C 	C 	0.29729	0.79729	0.06924	0.348
Mof_C 	C 	0.32158	0.32158	0.61354	-0.132
Mof_C 	C 	0.29729	0.29729	0.56924	0.349
Mof_C 	C 	0.88646	0.32158	0.17842	-0.126
Mof_C 	C 	0.93076	0.29729	0.20271	0.345
Mof_C 	C 	0.38646	0.32158	0.67842	-0.131
Mof_C 	C 	0.43076	0.29729	0.70271	0.348
Mof_C 	C 	0.88646	0.67842	0.82158	-0.117
Mof_C 	C 	0.93076	0.70271	0.79729	0.343
Mof_C 	C 	0.88646	0.17842	0.32158	-0.126
Mof_C 	C 	0.93076	0.20271	0.29729	0.345
Mof_C 	C 	0.38646	0.67842	0.32158	-0.131
Mof_C 	C 	0.43076	0.70271	0.29729	0.348
Mof_C 	C 	0.11354	0.67842	0.17842	-0.14
Mof_C 	C 	0.06924	0.70271	0.20271	0.346
Mof_C 	C 	0.61354	0.67842	0.67842	-0.129
Mof_C 	C 	0.56924	0.70271	0.70271	0.346
Mof_C 	C 	0.61354	0.17842	0.17842	-0.138
Mof_C 	C 	0.56924	0.20271	0.20271	0.348
Mof_C 	C 	0.11354	0.32158	0.82158	-0.134
Mof_C 	C 	0.06924	0.29729	0.79729	0.348
Mof_C 	C 	0.61354	0.32158	0.32158	-0.132
Mof_C 	C 	0.56924	0.29729	0.29729	0.349
Mof_C 	C 	0.17842	0.88646	0.32158	-0.126
Mof_C 	C 	0.20271	0.93076	0.29729	0.345
Mof_C 	C 	0.17842	0.38646	0.82158	-0.13
Mof_C 	C 	0.20271	0.43076	0.79729	0.348
Mof_C 	C 	0.82158	0.88646	0.67842	-0.117
Mof_C 	C 	0.79729	0.93076	0.70271	0.343
Mof_C 	C 	0.82158	0.38646	0.17842	-0.13
Mof_C 	C 	0.79729	0.43076	0.20271	0.348
Mof_C 	C 	0.32158	0.88646	0.17842	-0.126
Mof_C 	C 	0.29729	0.93076	0.20271	0.345
Mof_C 	C 	0.17842	0.11354	0.67842	-0.14
Mof_C 	C 	0.20271	0.06924	0.70271	0.346
Mof_C 	C 	0.17842	0.61354	0.17842	-0.138
Mof_C 	C 	0.20271	0.56924	0.20271	0.348
Mof_C 	C 	0.82158	0.11354	0.32158	-0.134
Mof_C 	C 	0.79729	0.06924	0.29729	0.348
Mof_C 	C 	0.82158	0.61354	0.82158	-0.122
Mof_C 	C 	0.79729	0.56924	0.79729	0.347
Mof_C 	C 	0.32158	0.61354	0.32158	-0.132
Mof_C 	C 	0.29729	0.56924	0.29729	0.349
Mof_C 	C 	0.17842	0.32158	0.11354	-0.142
Mof_C 	C 	0.20271	0.29729	0.06924	0.348
Mof_C 	C 	0.17842	0.82158	0.61354	-0.13
Mof_C 	C 	0.20271	0.79729	0.56924	0.348
Mof_C 	C 	0.82158	0.67842	0.11354	-0.133
Mof_C 	C 	0.79729	0.70271	0.06924	0.346
Mof_C 	C 	0.82158	0.17842	0.61354	-0.13
Mof_C 	C 	0.79729	0.20271	0.56924	0.348
Mof_C 	C 	0.32158	0.17842	0.11354	-0.142
Mof_C 	C 	0.29729	0.20271	0.06924	0.348
Mof_C 	C 	0.17842	0.67842	0.88646	-0.124
Mof_C 	C 	0.20271	0.70271	0.93076	0.343
Mof_C 	C 	0.17842	0.17842	0.38646	-0.138
Mof_C 	C 	0.20271	0.20271	0.43076	0.348
Mof_C 	C 	0.82158	0.32158	0.88646	-0.118
Mof_C 	C 	0.79729	0.29729	0.93076	0.344
Mof_C 	C 	0.82158	0.82158	0.38646	-0.123
Mof_C 	C 	0.79729	0.79729	0.43076	0.348
Mof_C 	C 	0.32158	0.32158	0.38646	-0.133
Mof_C 	C 	0.29729	0.29729	0.43076	0.349
Mof_C 	C 	0.32158	0.88646	0.82158	-0.118
Mof_C 	C 	0.29729	0.93076	0.79729	0.344
Mof_C 	C 	0.32158	0.38646	0.32158	-0.133
Mof_C 	C 	0.29729	0.43076	0.29729	0.349
Mof_C 	C 	0.67842	0.88646	0.17842	-0.124
Mof_C 	C 	0.70271	0.93076	0.20271	0.343
Mof_C 	C 	0.67842	0.38646	0.67842	-0.129
Mof_C 	C 	0.70271	0.43076	0.70271	0.347
Mof_C 	C 	0.17842	0.38646	0.17842	-0.138
Mof_C 	C 	0.20271	0.43076	0.20271	0.348
Mof_C 	C 	0.67842	0.11354	0.82158	-0.133
Mof_C 	C 	0.70271	0.06924	0.79729	0.346
Mof_C 	C 	0.67842	0.61354	0.32158	-0.131
Mof_C 	C 	0.70271	0.56924	0.29729	0.348
Mof_C 	C 	0.17842	0.11354	0.32158	-0.142
Mof_C 	C 	0.20271	0.06924	0.29729	0.348
Mof_C 	C 	0.32158	0.11354	0.17842	-0.142
Mof_C 	C 	0.29729	0.06924	0.20271	0.348
Mof_C 	C 	0.32158	0.61354	0.67842	-0.131
Mof_C 	C 	0.29729	0.56924	0.70271	0.348
Mof_C 	C 	0.88646	0.17842	0.67842	-0.124
Mof_C 	C 	0.93076	0.20271	0.70271	0.343
Mof_C 	C 	0.38646	0.17842	0.17842	-0.138
Mof_C 	C 	0.43076	0.20271	0.20271	0.348
Mof_C 	C 	0.88646	0.82158	0.32158	-0.118
Mof_C 	C 	0.93076	0.79729	0.29729	0.344
Mof_C 	C 	0.38646	0.82158	0.82158	-0.123
Mof_C 	C 	0.43076	0.79729	0.79729	0.348
Mof_C 	C 	0.38646	0.32158	0.32158	-0.133
Mof_C 	C 	0.43076	0.29729	0.29729	0.349
Mof_C 	C 	0.11354	0.17842	0.32158	-0.142
Mof_C 	C 	0.06924	0.20271	0.29729	0.348
Mof_C 	C 	0.61354	0.17842	0.82158	-0.13
Mof_C 	C 	0.56924	0.20271	0.79729	0.348
Mof_C 	C 	0.11354	0.82158	0.67842	-0.133
Mof_C 	C 	0.06924	0.79729	0.70271	0.346
Mof_C 	C 	0.11354	0.32158	0.17842	-0.142
Mof_C 	C 	0.06924	0.29729	0.20271	0.348
Mof_C 	C 	0.61354	0.82158	0.17842	-0.13
Mof_C 	C 	0.56924	0.79729	0.20271	0.348
Mof_C 	C 	0.67842	0.82158	0.11354	-0.133
Mof_C 	C 	0.70271	0.79729	0.06924	0.346
Mof_C 	C 	0.67842	0.32158	0.61354	-0.131
Mof_C 	C 	0.70271	0.29729	0.56924	0.348
Mof_C 	C 	0.32158	0.67842	0.61354	-0.131
Mof_C 	C 	0.29729	0.70271	0.56924	0.348
Mof_C 	C 	0.32158	0.82158	0.88646	-0.118
Mof_C 	C 	0.29729	0.79729	0.93076	0.344
Mof_C 	C 	0.67842	0.17842	0.88646	-0.124
Mof_C 	C 	0.70271	0.20271	0.93076	0.343
Mof_C 	C 	0.67842	0.67842	0.38646	-0.129
Mof_C 	C 	0.70271	0.70271	0.43076	0.347
Mof_C 	C 	0.11354	0.67842	0.82158	-0.133
Mof_C 	C 	0.06924	0.70271	0.79729	0.346
Mof_C 	C 	0.61354	0.67842	0.32158	-0.131
Mof_C 	C 	0.56924	0.70271	0.29729	0.348
Mof_C 	C 	0.61354	0.32158	0.67842	-0.131
Mof_C 	C 	0.56924	0.29729	0.70271	0.348
Mof_C 	C 	0.88646	0.32158	0.82158	-0.118
Mof_C 	C 	0.93076	0.29729	0.79729	0.344
Mof_C 	C 	0.88646	0.67842	0.17842	-0.124
Mof_C 	C 	0.93076	0.70271	0.20271	0.343
Mof_C 	C 	0.38646	0.67842	0.67842	-0.129
Mof_C 	C 	0.43076	0.70271	0.70271	0.347
Mof_C 	C 	0.82158	0.11354	0.67842	-0.133
Mof_C 	C 	0.79729	0.06924	0.70271	0.346
Mof_C 	C 	0.82158	0.61354	0.17842	-0.13
Mof_C 	C 	0.79729	0.56924	0.20271	0.348
Mof_C 	C 	0.17842	0.61354	0.82158	-0.13
Mof_C 	C 	0.20271	0.56924	0.79729	0.348
Mof_C 	C 	0.82158	0.88646	0.32158	-0.118
Mof_C 	C 	0.79729	0.93076	0.29729	0.344
Mof_C 	C 	0.82158	0.38646	0.82158	-0.123
Mof_C 	C 	0.79729	0.43076	0.79729	0.348
Mof_C 	C 	0.17842	0.88646	0.67842	-0.124
Mof_C 	C 	0.20271	0.93076	0.70271	0.343
Mof_C 	C 	0.82158	0.67842	0.88646	-0.117
Mof_C 	C 	0.79729	0.70271	0.93076	0.343
Mof_C 	C 	0.82158	0.17842	0.38646	-0.13
Mof_C 	C 	0.79729	0.20271	0.43076	0.348
Mof_C 	C 	0.17842	0.82158	0.38646	-0.13
Mof_C 	C 	0.20271	0.79729	0.43076	0.348
Mof_C 	C 	0.82158	0.32158	0.11354	-0.134
Mof_C 	C 	0.79729	0.29729	0.06924	0.348
Mof_C 	C 	0.82158	0.82158	0.61354	-0.122
Mof_C 	C 	0.79729	0.79729	0.56924	0.347
Mof_C 	C 	0.17842	0.67842	0.11354	-0.14
Mof_C 	C 	0.20271	0.70271	0.06924	0.346
Mof_C 	C 	0.67842	0.11354	0.17842	-0.14
Mof_C 	C 	0.70271	0.06924	0.20271	0.346
Mof_C 	C 	0.67842	0.61354	0.67842	-0.129
Mof_C 	C 	0.70271	0.56924	0.70271	0.346
Mof_C 	C 	0.32158	0.11354	0.82158	-0.134
Mof_C 	C 	0.29729	0.06924	0.79729	0.348
Mof_C 	C 	0.32158	0.38646	0.67842	-0.131
Mof_C 	C 	0.29729	0.43076	0.70271	0.348
Mof_C 	C 	0.67842	0.88646	0.82158	-0.117
Mof_C 	C 	0.70271	0.93076	0.79729	0.343
Mof_C 	C 	0.67842	0.38646	0.32158	-0.131
Mof_C 	C 	0.70271	0.43076	0.29729	0.348
Mof_C 	C 	0.11354	0.82158	0.32158	-0.134
Mof_C 	C 	0.06924	0.79729	0.29729	0.348
Mof_C 	C 	0.61354	0.82158	0.82158	-0.122
Mof_C 	C 	0.56924	0.79729	0.79729	0.347
Mof_C 	C 	0.11354	0.17842	0.67842	-0.14
Mof_C 	C 	0.06924	0.20271	0.70271	0.346
Mof_C 	C 	0.88646	0.82158	0.67842	-0.117
Mof_C 	C 	0.93076	0.79729	0.70271	0.343
Mof_C 	C 	0.38646	0.82158	0.17842	-0.13
Mof_C 	C 	0.43076	0.79729	0.20271	0.348
Mof_C 	C 	0.38646	0.17842	0.82158	-0.13
Mof_C 	C 	0.43076	0.20271	0.79729	0.348
Mof_C 	C 	0.36481	0.19893	0.86481	0.081
Mof_H 	H 	0.38103	0.2354	0.88103	0.049
Mof_C 	C 	0.36481	0.69893	0.36481	0.081
Mof_H 	H 	0.38103	0.7354	0.38103	0.046
Mof_C 	C 	0.63519	0.80107	0.86481	0.08
Mof_H 	H 	0.61897	0.7646	0.88103	0.052
Mof_C 	C 	0.63519	0.30107	0.36481	0.081
Mof_H 	H 	0.61897	0.2646	0.38103	0.042
Mof_C 	C 	0.13519	0.80107	0.36481	0.08
Mof_H 	H 	0.11897	0.7646	0.38103	0.039
Mof_C 	C 	0.63519	0.19893	0.13519	0.079
Mof_H 	H 	0.61897	0.2354	0.11897	0.037
Mof_C 	C 	0.63519	0.69893	0.63519	0.079
Mof_H 	H 	0.61897	0.7354	0.61897	0.046
Mof_C 	C 	0.13519	0.69893	0.13519	0.079
Mof_H 	H 	0.11897	0.7354	0.11897	0.034
Mof_C 	C 	0.36481	0.80107	0.13519	0.08
Mof_H 	H 	0.38103	0.7646	0.11897	0.039
Mof_C 	C 	0.36481	0.30107	0.63519	0.081
Mof_H 	H 	0.38103	0.2646	0.61897	0.042
Mof_C 	C 	0.86481	0.36481	0.19893	0.081
Mof_H 	H 	0.88103	0.38103	0.2354	0.049
Mof_C 	C 	0.86481	0.86481	0.69893	0.079
Mof_H 	H 	0.88103	0.88103	0.7354	0.059
Mof_C 	C 	0.36481	0.36481	0.69893	0.081
Mof_H 	H 	0.38103	0.38103	0.7354	0.046
Mof_C 	C 	0.86481	0.63519	0.80107	0.08
Mof_H 	H 	0.88103	0.61897	0.7646	0.052
Mof_C 	C 	0.86481	0.13519	0.30107	0.08
Mof_H 	H 	0.88103	0.11897	0.2646	0.043
Mof_C 	C 	0.36481	0.13519	0.80107	0.08
Mof_H 	H 	0.38103	0.11897	0.7646	0.039
Mof_C 	C 	0.13519	0.63519	0.19893	0.079
Mof_H 	H 	0.11897	0.61897	0.2354	0.037
Mof_C 	C 	0.13519	0.13519	0.69893	0.079
Mof_H 	H 	0.11897	0.11897	0.7354	0.034
Mof_C 	C 	0.13519	0.36481	0.80107	0.08
Mof_H 	H 	0.11897	0.38103	0.7646	0.039
Mof_C 	C 	0.13519	0.86481	0.30107	0.08
Mof_H 	H 	0.11897	0.88103	0.2646	0.043
Mof_C 	C 	0.19893	0.86481	0.36481	0.081
Mof_H 	H 	0.2354	0.88103	0.38103	0.049
Mof_C 	C 	0.69893	0.86481	0.86481	0.079
Mof_H 	H 	0.7354	0.88103	0.88103	0.059
Mof_C 	C 	0.69893	0.36481	0.36481	0.081
Mof_H 	H 	0.7354	0.38103	0.38103	0.046
Mof_C 	C 	0.80107	0.86481	0.63519	0.08
Mof_H 	H 	0.7646	0.88103	0.61897	0.052
Mof_C 	C 	0.80107	0.36481	0.13519	0.08
Mof_H 	H 	0.7646	0.38103	0.11897	0.039
Mof_C 	C 	0.30107	0.86481	0.13519	0.08
Mof_H 	H 	0.2646	0.88103	0.11897	0.043
Mof_C 	C 	0.19893	0.13519	0.63519	0.079
Mof_H 	H 	0.2354	0.11897	0.61897	0.037
Mof_C 	C 	0.69893	0.13519	0.13519	0.079
Mof_H 	H 	0.7354	0.11897	0.11897	0.034
Mof_C 	C 	0.80107	0.13519	0.36481	0.08
Mof_H 	H 	0.7646	0.11897	0.38103	0.039
Mof_C 	C 	0.30107	0.13519	0.86481	0.08
Mof_H 	H 	0.2646	0.11897	0.88103	0.043
Mof_C 	C 	0.19893	0.36481	0.13519	0.08
Mof_H 	H 	0.2354	0.38103	0.11897	0.037
Mof_C 	C 	0.69893	0.36481	0.63519	0.08
Mof_H 	H 	0.7354	0.38103	0.61897	0.046
Mof_C 	C 	0.80107	0.63519	0.13519	0.079
Mof_H 	H 	0.7646	0.61897	0.11897	0.039
Mof_C 	C 	0.30107	0.63519	0.63519	0.08
Mof_H 	H 	0.2646	0.61897	0.61897	0.042
Mof_C 	C 	0.30107	0.13519	0.13519	0.08
Mof_H 	H 	0.2646	0.11897	0.11897	0.031
Mof_C 	C 	0.19893	0.63519	0.86481	0.08
Mof_H 	H 	0.2354	0.61897	0.88103	0.049
Mof_C 	C 	0.19893	0.13519	0.36481	0.08
Mof_H 	H 	0.2354	0.11897	0.38103	0.037
Mof_C 	C 	0.69893	0.63519	0.36481	0.08
Mof_H 	H 	0.7354	0.61897	0.38103	0.046
Mof_C 	C 	0.80107	0.36481	0.86481	0.08
Mof_H 	H 	0.7646	0.38103	0.88103	0.051
Mof_C 	C 	0.30107	0.36481	0.36481	0.082
Mof_H 	H 	0.2646	0.38103	0.38103	0.042
Mof_C 	C 	0.36481	0.86481	0.80107	0.08
Mof_H 	H 	0.38103	0.88103	0.7646	0.051
Mof_C 	C 	0.36481	0.36481	0.30107	0.082
Mof_H 	H 	0.38103	0.38103	0.2646	0.042
Mof_C 	C 	0.63519	0.86481	0.19893	0.08
Mof_H 	H 	0.61897	0.88103	0.2354	0.049
Mof_C 	C 	0.63519	0.36481	0.69893	0.08
Mof_H 	H 	0.61897	0.38103	0.7354	0.046
Mof_C 	C 	0.13519	0.36481	0.19893	0.08
Mof_H 	H 	0.11897	0.38103	0.2354	0.037
Mof_C 	C 	0.63519	0.13519	0.80107	0.079
Mof_H 	H 	0.61897	0.11897	0.7646	0.039
Mof_C 	C 	0.63519	0.63519	0.30107	0.08
Mof_H 	H 	0.61897	0.61897	0.2646	0.042
Mof_C 	C 	0.13519	0.13519	0.30107	0.08
Mof_H 	H 	0.11897	0.11897	0.2646	0.031
Mof_C 	C 	0.36481	0.13519	0.19893	0.08
Mof_H 	H 	0.38103	0.11897	0.2354	0.037
Mof_C 	C 	0.36481	0.63519	0.69893	0.08
Mof_H 	H 	0.38103	0.61897	0.7354	0.046
Mof_C 	C 	0.86481	0.19893	0.63519	0.08
Mof_H 	H 	0.88103	0.2354	0.61897	0.049
Mof_C 	C 	0.86481	0.69893	0.13519	0.079
Mof_H 	H 	0.88103	0.7354	0.11897	0.046
Mof_C 	C 	0.36481	0.19893	0.13519	0.08
Mof_H 	H 	0.38103	0.2354	0.11897	0.037
Mof_C 	C 	0.86481	0.80107	0.36481	0.08
Mof_H 	H 	0.88103	0.7646	0.38103	0.051
Mof_C 	C 	0.86481	0.30107	0.86481	0.08
Mof_H 	H 	0.88103	0.2646	0.88103	0.055
Mof_C 	C 	0.36481	0.30107	0.36481	0.082
Mof_H 	H 	0.38103	0.2646	0.38103	0.042
Mof_C 	C 	0.13519	0.19893	0.36481	0.08
Mof_H 	H 	0.11897	0.2354	0.38103	0.037
Mof_C 	C 	0.13519	0.69893	0.86481	0.079
Mof_H 	H 	0.11897	0.7354	0.88103	0.046
Mof_C 	C 	0.13519	0.80107	0.63519	0.079
Mof_H 	H 	0.11897	0.7646	0.61897	0.039
Mof_C 	C 	0.13519	0.30107	0.13519	0.08
Mof_H 	H 	0.11897	0.2646	0.11897	0.031
Mof_C 	C 	0.63519	0.80107	0.13519	0.079
Mof_H 	H 	0.61897	0.7646	0.11897	0.039
Mof_C 	C 	0.63519	0.30107	0.63519	0.08
Mof_H 	H 	0.61897	0.2646	0.61897	0.042
Mof_C 	C 	0.36481	0.69893	0.63519	0.08
Mof_H 	H 	0.38103	0.7354	0.61897	0.046
Mof_C 	C 	0.36481	0.80107	0.86481	0.08
Mof_H 	H 	0.38103	0.7646	0.88103	0.051
Mof_C 	C 	0.63519	0.19893	0.86481	0.08
Mof_H 	H 	0.61897	0.2354	0.88103	0.049
Mof_C 	C 	0.63519	0.69893	0.36481	0.08
Mof_H 	H 	0.61897	0.7354	0.38103	0.046
Mof_C 	C 	0.13519	0.63519	0.80107	0.079
Mof_H 	H 	0.11897	0.61897	0.7646	0.039
Mof_C 	C 	0.13519	0.86481	0.69893	0.079
Mof_H 	H 	0.11897	0.88103	0.7354	0.046
Mof_C 	C 	0.86481	0.36481	0.80107	0.08
Mof_H 	H 	0.88103	0.38103	0.7646	0.051
Mof_C 	C 	0.86481	0.86481	0.30107	0.08
Mof_H 	H 	0.88103	0.88103	0.2646	0.055
Mof_C 	C 	0.86481	0.63519	0.19893	0.08
Mof_H 	H 	0.88103	0.61897	0.2354	0.049
Mof_C 	C 	0.86481	0.13519	0.69893	0.079
Mof_H 	H 	0.88103	0.11897	0.7354	0.046
Mof_C 	C 	0.80107	0.13519	0.63519	0.079
Mof_H 	H 	0.7646	0.11897	0.61897	0.039
Mof_C 	C 	0.69893	0.13519	0.86481	0.079
Mof_H 	H 	0.7354	0.11897	0.88103	0.046
Mof_C 	C 	0.80107	0.86481	0.36481	0.08
Mof_H 	H 	0.7646	0.88103	0.38103	0.051
Mof_C 	C 	0.30107	0.86481	0.86481	0.08
Mof_H 	H 	0.2646	0.88103	0.88103	0.055
Mof_C 	C 	0.19893	0.86481	0.63519	0.08
Mof_H 	H 	0.2354	0.88103	0.61897	0.049
Mof_C 	C 	0.69893	0.86481	0.13519	0.079
Mof_H 	H 	0.7354	0.88103	0.11897	0.046
Mof_C 	C 	0.80107	0.63519	0.86481	0.08
Mof_H 	H 	0.7646	0.61897	0.88103	0.052
Mof_C 	C 	0.30107	0.63519	0.36481	0.081
Mof_H 	H 	0.2646	0.61897	0.38103	0.042
Mof_C 	C 	0.19893	0.36481	0.86481	0.081
Mof_H 	H 	0.2354	0.38103	0.88103	0.049
Mof_C 	C 	0.30107	0.36481	0.63519	0.081
Mof_H 	H 	0.2646	0.38103	0.61897	0.042
Mof_C 	C 	0.19893	0.63519	0.13519	0.079
Mof_H 	H 	0.2354	0.61897	0.11897	0.037
Mof_C 	C 	0.69893	0.63519	0.63519	0.079
Mof_H 	H 	0.7354	0.61897	0.61897	0.046
Mof_C 	C 	0.63519	0.13519	0.19893	0.079
Mof_H 	H 	0.61897	0.11897	0.2354	0.037
Mof_C 	C 	0.63519	0.63519	0.69893	0.079
Mof_H 	H 	0.61897	0.61897	0.7354	0.046
Mof_C 	C 	0.36481	0.63519	0.30107	0.081
Mof_H 	H 	0.38103	0.61897	0.2646	0.042
Mof_C 	C 	0.36481	0.86481	0.19893	0.081
Mof_H 	H 	0.38103	0.88103	0.2354	0.049
Mof_C 	C 	0.63519	0.86481	0.80107	0.08
Mof_H 	H 	0.61897	0.88103	0.7646	0.052
Mof_C 	C 	0.63519	0.36481	0.30107	0.081
Mof_H 	H 	0.61897	0.38103	0.2646	0.042
Mof_C 	C 	0.13519	0.30107	0.86481	0.08
Mof_H 	H 	0.11897	0.2646	0.88103	0.043
Mof_C 	C 	0.13519	0.19893	0.63519	0.079
Mof_H 	H 	0.11897	0.2354	0.61897	0.037
Mof_C 	C 	0.86481	0.80107	0.63519	0.08
Mof_H 	H 	0.88103	0.7646	0.61897	0.052
Mof_C 	C 	0.86481	0.30107	0.13519	0.08
Mof_H 	H 	0.88103	0.2646	0.11897	0.043
Mof_C 	C 	0.86481	0.19893	0.36481	0.081
Mof_H 	H 	0.88103	0.2354	0.38103	0.049
Mof_C 	C 	0.86481	0.69893	0.86481	0.079
Mof_H 	H 	0.88103	0.7354	0.88103	0.059
_end
