data_functionalizedCrystal
_audit_creation_method	'EQeq! by Chris Wilmer'
_symmetry_space_group_name_H-M	'P1'
_symmetry_Int_Tables_number	1
_symmetry_cell_setting	triclinic
loop_
_symmetry_equiv_pos_as_xyz
  x,y,z
_cell_length_a	25.4627
_cell_length_b	9.8868
_cell_length_c	21.9526
_cell_angle_alpha	90
_cell_angle_beta	130.157
_cell_angle_gamma	90
loop_
_atom_site_label
_atom_site_type_symbol
_atom_site_fract_x
_atom_site_fract_y
_atom_site_fract_z
_atom_site_charge
Mof_Cd	Cd	0.73201	0.41064	0.06164	0.456
Mof_H 	H 	0.762	0.3252	0.2262	0.01
Mof_H 	H 	0.7293	0.3642	0.3001	0.114
Mof_H 	H 	0.5998	0.6491	0.1404	0.112
Mof_H 	H 	0.64	0.6074	0.0756	-0.001
Mof_H 	H 	0.4938	0.8158	0.1792	0.11
Mof_H 	H 	0.379	0.7915	0.0716	0.012
Mof_H 	H 	0.4007	0.4085	0.0561	-0.002
Mof_H 	H 	0.5151	0.416	0.1624	0.105
Mof_H 	H 	0.6036	0.2447	0.3386	0.159
Mof_H 	H 	0.6209	0.2674	0.2825	0.158
Mof_H 	H 	0.709	0.38	0.441	0.026
Mof_C 	C 	0.729	0.3911	0.2089	0.116
Mof_C 	C 	0.7094	0.4134	0.2537	-0.202
Mof_C 	C 	0.6591	0.5113	0.2286	0.177
Mof_C 	C 	0.6331	0.583	0.1595	-0.202
Mof_C 	C 	0.6569	0.5557	0.1203	0.116
Mof_C 	C 	0.5195	0.6189	0.1822	0.181
Mof_C 	C 	0.4765	0.7321	0.1546	-0.205
Mof_C 	C 	0.4071	0.7158	0.0894	0.116
Mof_C 	C 	0.4202	0.4915	0.0807	0.111
Mof_C 	C 	0.489	0.4947	0.1444	-0.203
Mof_C 	C 	0.7223	0.618	0.4049	0.314
Mof_C 	C 	0.6774	0.5015	0.3521	-0.079
Mof_C 	C 	0.6781	0.3847	0.3814	0.114
Mof_C 	C 	0.6408	0.2581	0.3377	-0.403
Mof_C 	C 	0.6874	0.1352	0.3735	0.389
Mof_N 	N 	0.7034	0.4583	0.1421	-0.161
Mof_N 	N 	0.6336	0.5275	0.2683	-0.094
Mof_N 	N 	0.5885	0.6368	0.2444	-0.142
Mof_N 	N 	0.3783	0.6012	0.051	-0.171
Mof_O 	O 	0.71736	0.7231	0.3692	-0.28
Mof_O 	O 	0.76207	0.6044	0.4796	-0.276
Mof_O 	O 	0.6613	0.0202	0.3472	-0.294
Mof_O 	O 	0.75122	0.1518	0.4295	-0.291
Mof_H 	H 	0.39113	0.73543	0.22431	0.101
Mof_Cd	Cd	0.23201	0.91064	0.06164	0.455
Mof_H 	H 	0.262	0.8252	0.2262	0.01
Mof_H 	H 	0.2293	0.8642	0.3001	0.115
Mof_H 	H 	0.0998	0.1491	0.1404	0.114
Mof_H 	H 	0.14	0.1074	0.0756	-0
Mof_H 	H 	0.9938	0.3158	0.1792	0.111
Mof_H 	H 	0.879	0.2915	0.0716	0.014
Mof_H 	H 	0.9007	0.9085	0.0561	-0.001
Mof_H 	H 	0.0151	0.916	0.1624	0.105
Mof_H 	H 	0.1036	0.7447	0.3386	0.159
Mof_H 	H 	0.1209	0.7674	0.2825	0.159
Mof_H 	H 	0.209	0.88	0.441	0.028
Mof_C 	C 	0.229	0.8911	0.2089	0.116
Mof_C 	C 	0.2094	0.9134	0.2537	-0.204
Mof_C 	C 	0.1591	0.0113	0.2286	0.179
Mof_C 	C 	0.1331	0.083	0.1595	-0.203
Mof_C 	C 	0.1569	0.0557	0.1203	0.117
Mof_C 	C 	0.0195	0.1189	0.1822	0.179
Mof_C 	C 	0.9765	0.2321	0.1546	-0.202
Mof_C 	C 	0.9071	0.2158	0.0894	0.115
Mof_C 	C 	0.9202	0.9915	0.0807	0.108
Mof_C 	C 	0.989	0.9947	0.1444	-0.2
Mof_C 	C 	0.2223	0.118	0.4049	0.313
Mof_C 	C 	0.1774	0.0015	0.3521	-0.079
Mof_C 	C 	0.1781	0.8847	0.3814	0.114
Mof_C 	C 	0.1408	0.7581	0.3377	-0.403
Mof_C 	C 	0.1874	0.6352	0.3735	0.389
Mof_N 	N 	0.2034	0.9583	0.1421	-0.162
Mof_N 	N 	0.1336	0.0275	0.2683	-0.095
Mof_N 	N 	0.0885	0.1368	0.2444	-0.142
Mof_N 	N 	0.8783	0.1012	0.051	-0.169
Mof_O 	O 	0.21736	0.2231	0.3692	-0.28
Mof_O 	O 	0.26207	0.1044	0.4796	-0.276
Mof_O 	O 	0.1613	0.5202	0.3472	-0.294
Mof_O 	O 	0.25122	0.6518	0.4295	-0.292
Mof_H 	H 	0.89113	0.23543	0.22431	0.101
Mof_Cd	Cd	0.26799	0.41064	0.43836	0.457
Mof_H 	H 	0.238	0.3252	0.2738	0.011
Mof_H 	H 	0.2707	0.3642	0.1999	0.115
Mof_H 	H 	0.4002	0.6491	0.3596	0.113
Mof_H 	H 	0.36	0.6074	0.4244	0
Mof_H 	H 	0.5062	0.8158	0.3208	0.111
Mof_H 	H 	0.621	0.7915	0.4284	0.013
Mof_H 	H 	0.5993	0.4085	0.4439	-0.001
Mof_H 	H 	0.4849	0.416	0.3376	0.106
Mof_H 	H 	0.3964	0.2447	0.1614	0.16
Mof_H 	H 	0.3791	0.2674	0.2175	0.159
Mof_H 	H 	0.291	0.38	0.059	0.027
Mof_C 	C 	0.271	0.3911	0.2911	0.116
Mof_C 	C 	0.2906	0.4134	0.2463	-0.202
Mof_C 	C 	0.3409	0.5113	0.2714	0.177
Mof_C 	C 	0.3669	0.583	0.3405	-0.202
Mof_C 	C 	0.3431	0.5557	0.3797	0.115
Mof_C 	C 	0.4805	0.6189	0.3178	0.181
Mof_C 	C 	0.5235	0.7321	0.3454	-0.205
Mof_C 	C 	0.5929	0.7158	0.4106	0.116
Mof_C 	C 	0.5798	0.4915	0.4193	0.111
Mof_C 	C 	0.511	0.4947	0.3556	-0.203
Mof_C 	C 	0.2777	0.618	0.0951	0.314
Mof_C 	C 	0.3226	0.5015	0.1479	-0.079
Mof_C 	C 	0.3219	0.3847	0.1186	0.114
Mof_C 	C 	0.3592	0.2581	0.1623	-0.403
Mof_C 	C 	0.3126	0.1352	0.1265	0.389
Mof_N 	N 	0.2966	0.4583	0.3579	-0.161
Mof_N 	N 	0.3664	0.5275	0.2317	-0.094
Mof_N 	N 	0.4115	0.6368	0.2556	-0.142
Mof_N 	N 	0.6217	0.6012	0.449	-0.171
Mof_O 	O 	0.28264	0.7231	0.1308	-0.28
Mof_O 	O 	0.23793	0.6044	0.0204	-0.277
Mof_O 	O 	0.3387	0.0202	0.1528	-0.294
Mof_O 	O 	0.24878	0.1518	0.0705	-0.291
Mof_H 	H 	0.60887	0.73543	0.27569	0.101
Mof_Cd	Cd	0.76799	0.91064	0.43836	0.456
Mof_H 	H 	0.738	0.8252	0.2738	0.01
Mof_H 	H 	0.7707	0.8642	0.1999	0.115
Mof_H 	H 	0.9002	0.1491	0.3596	0.114
Mof_H 	H 	0.86	0.1074	0.4244	-0
Mof_H 	H 	0.0062	0.3158	0.3208	0.112
Mof_H 	H 	0.121	0.2915	0.4284	0.013
Mof_H 	H 	0.0993	0.9085	0.4439	-0.002
Mof_H 	H 	0.9849	0.916	0.3376	0.107
Mof_H 	H 	0.8964	0.7447	0.1614	0.159
Mof_H 	H 	0.8791	0.7674	0.2175	0.159
Mof_H 	H 	0.791	0.88	0.059	0.028
Mof_C 	C 	0.771	0.8911	0.2911	0.116
Mof_C 	C 	0.7906	0.9134	0.2463	-0.204
Mof_C 	C 	0.8409	0.0113	0.2714	0.179
Mof_C 	C 	0.8669	0.083	0.3405	-0.203
Mof_C 	C 	0.8431	0.0557	0.3797	0.117
Mof_C 	C 	0.9805	0.1189	0.3178	0.183
Mof_C 	C 	0.0235	0.2321	0.3454	-0.206
Mof_C 	C 	0.0929	0.2158	0.4106	0.117
Mof_C 	C 	0.0798	0.9915	0.4193	0.112
Mof_C 	C 	0.011	0.9947	0.3556	-0.205
Mof_C 	C 	0.7777	0.118	0.0951	0.313
Mof_C 	C 	0.8226	0.0015	0.1479	-0.077
Mof_C 	C 	0.8219	0.8847	0.1186	0.112
Mof_C 	C 	0.8592	0.7581	0.1623	-0.402
Mof_C 	C 	0.8126	0.6352	0.1265	0.388
Mof_N 	N 	0.7966	0.9583	0.3579	-0.161
Mof_N 	N 	0.8664	0.0275	0.2317	-0.095
Mof_N 	N 	0.9115	0.1368	0.2556	-0.142
Mof_N 	N 	0.1217	0.1012	0.449	-0.171
Mof_O 	O 	0.78264	0.2231	0.1308	-0.279
Mof_O 	O 	0.73793	0.1044	0.0204	-0.275
Mof_O 	O 	0.8387	0.5202	0.1528	-0.294
Mof_O 	O 	0.74878	0.6518	0.0705	-0.292
Mof_H 	H 	0.10887	0.23543	0.27569	0.101
Mof_Cd	Cd	0.26799	0.58936	0.93836	0.457
Mof_H 	H 	0.238	0.6748	0.7738	0.011
Mof_H 	H 	0.2707	0.6358	0.6999	0.115
Mof_H 	H 	0.4002	0.3509	0.8596	0.113
Mof_H 	H 	0.36	0.3926	0.9244	0
Mof_H 	H 	0.5062	0.1842	0.8208	0.111
Mof_H 	H 	0.621	0.2085	0.9284	0.013
Mof_H 	H 	0.5993	0.5915	0.9439	-0.001
Mof_H 	H 	0.4849	0.584	0.8376	0.106
Mof_H 	H 	0.3964	0.7553	0.6614	0.16
Mof_H 	H 	0.3791	0.7326	0.7175	0.159
Mof_H 	H 	0.291	0.62	0.559	0.027
Mof_C 	C 	0.271	0.6089	0.7911	0.116
Mof_C 	C 	0.2906	0.5866	0.7463	-0.202
Mof_C 	C 	0.3409	0.4887	0.7714	0.177
Mof_C 	C 	0.3669	0.417	0.8405	-0.202
Mof_C 	C 	0.3431	0.4443	0.8797	0.116
Mof_C 	C 	0.4805	0.3811	0.8178	0.181
Mof_C 	C 	0.5235	0.2679	0.8454	-0.205
Mof_C 	C 	0.5929	0.2842	0.9106	0.116
Mof_C 	C 	0.5798	0.5085	0.9193	0.111
Mof_C 	C 	0.511	0.5053	0.8556	-0.203
Mof_C 	C 	0.2777	0.382	0.5951	0.314
Mof_C 	C 	0.3226	0.4985	0.6479	-0.079
Mof_C 	C 	0.3219	0.6153	0.6186	0.114
Mof_C 	C 	0.3592	0.7419	0.6623	-0.403
Mof_C 	C 	0.3126	0.8648	0.6265	0.389
Mof_N 	N 	0.2966	0.5417	0.8579	-0.161
Mof_N 	N 	0.3664	0.4725	0.7317	-0.094
Mof_N 	N 	0.4115	0.3632	0.7556	-0.142
Mof_N 	N 	0.6217	0.3988	0.949	-0.171
Mof_O 	O 	0.28264	0.2769	0.6308	-0.28
Mof_O 	O 	0.23793	0.3956	0.5204	-0.276
Mof_O 	O 	0.3387	0.9798	0.6528	-0.294
Mof_O 	O 	0.24878	0.8482	0.5705	-0.291
Mof_H 	H 	0.60887	0.26457	0.77569	0.101
Mof_Cd	Cd	0.76799	0.08936	0.93836	0.455
Mof_H 	H 	0.738	0.1748	0.7738	0.01
Mof_H 	H 	0.7707	0.1358	0.6999	0.115
Mof_H 	H 	0.9002	0.8509	0.8596	0.114
Mof_H 	H 	0.86	0.8926	0.9244	-0
Mof_H 	H 	0.0062	0.6842	0.8208	0.111
Mof_H 	H 	0.121	0.7085	0.9284	0.014
Mof_H 	H 	0.0993	0.0915	0.9439	-0.001
Mof_H 	H 	0.9849	0.084	0.8376	0.105
Mof_H 	H 	0.8964	0.2553	0.6614	0.159
Mof_H 	H 	0.8791	0.2326	0.7175	0.159
Mof_H 	H 	0.791	0.12	0.559	0.028
Mof_C 	C 	0.771	0.1089	0.7911	0.116
Mof_C 	C 	0.7906	0.0866	0.7463	-0.204
Mof_C 	C 	0.8409	0.9887	0.7714	0.179
Mof_C 	C 	0.8669	0.917	0.8405	-0.203
Mof_C 	C 	0.8431	0.9443	0.8797	0.117
Mof_C 	C 	0.9805	0.8811	0.8178	0.179
Mof_C 	C 	0.0235	0.7679	0.8454	-0.202
Mof_C 	C 	0.0929	0.7842	0.9106	0.115
Mof_C 	C 	0.0798	0.0085	0.9193	0.108
Mof_C 	C 	0.011	0.0053	0.8556	-0.2
Mof_C 	C 	0.7777	0.882	0.5951	0.313
Mof_C 	C 	0.8226	0.9985	0.6479	-0.079
Mof_C 	C 	0.8219	0.1153	0.6186	0.114
Mof_C 	C 	0.8592	0.2419	0.6623	-0.403
Mof_C 	C 	0.8126	0.3648	0.6265	0.389
Mof_N 	N 	0.7966	0.0417	0.8579	-0.162
Mof_N 	N 	0.8664	0.9725	0.7317	-0.095
Mof_N 	N 	0.9115	0.8632	0.7556	-0.142
Mof_N 	N 	0.1217	0.8988	0.949	-0.169
Mof_O 	O 	0.78264	0.7769	0.6308	-0.28
Mof_O 	O 	0.73793	0.8956	0.5204	-0.276
Mof_O 	O 	0.8387	0.4798	0.6528	-0.294
Mof_O 	O 	0.74878	0.3482	0.5705	-0.292
Mof_H 	H 	0.10887	0.76457	0.77569	0.101
Mof_Cd	Cd	0.73201	0.58936	0.56164	0.457
Mof_H 	H 	0.762	0.6748	0.7262	0.011
Mof_H 	H 	0.7293	0.6358	0.8001	0.115
Mof_H 	H 	0.5998	0.3509	0.6404	0.113
Mof_H 	H 	0.64	0.3926	0.5756	0
Mof_H 	H 	0.4938	0.1842	0.6792	0.111
Mof_H 	H 	0.379	0.2085	0.5716	0.013
Mof_H 	H 	0.4007	0.5915	0.5561	-0.001
Mof_H 	H 	0.5151	0.584	0.6624	0.106
Mof_H 	H 	0.6036	0.7553	0.8386	0.16
Mof_H 	H 	0.6209	0.7326	0.7825	0.159
Mof_H 	H 	0.709	0.62	0.941	0.027
Mof_C 	C 	0.729	0.6089	0.7089	0.116
Mof_C 	C 	0.7094	0.5866	0.7537	-0.202
Mof_C 	C 	0.6591	0.4887	0.7286	0.177
Mof_C 	C 	0.6331	0.417	0.6595	-0.202
Mof_C 	C 	0.6569	0.4443	0.6203	0.115
Mof_C 	C 	0.5195	0.3811	0.6822	0.181
Mof_C 	C 	0.4765	0.2679	0.6546	-0.205
Mof_C 	C 	0.4071	0.2842	0.5894	0.116
Mof_C 	C 	0.4202	0.5085	0.5807	0.111
Mof_C 	C 	0.489	0.5053	0.6444	-0.203
Mof_C 	C 	0.7223	0.382	0.9049	0.314
Mof_C 	C 	0.6774	0.4985	0.8521	-0.079
Mof_C 	C 	0.6781	0.6153	0.8814	0.114
Mof_C 	C 	0.6408	0.7419	0.8377	-0.403
Mof_C 	C 	0.6874	0.8648	0.8735	0.389
Mof_N 	N 	0.7034	0.5417	0.6421	-0.161
Mof_N 	N 	0.6336	0.4725	0.7683	-0.094
Mof_N 	N 	0.5885	0.3632	0.7444	-0.142
Mof_N 	N 	0.3783	0.3988	0.551	-0.171
Mof_O 	O 	0.71736	0.2769	0.8692	-0.28
Mof_O 	O 	0.76207	0.3956	0.9796	-0.277
Mof_O 	O 	0.6613	0.9798	0.8472	-0.294
Mof_O 	O 	0.75122	0.8482	0.9295	-0.291
Mof_H 	H 	0.39113	0.26457	0.72431	0.101
Mof_Cd	Cd	0.23201	0.08936	0.56164	0.456
Mof_H 	H 	0.262	0.1748	0.7262	0.01
Mof_H 	H 	0.2293	0.1358	0.8001	0.115
Mof_H 	H 	0.0998	0.8509	0.6404	0.114
Mof_H 	H 	0.14	0.8926	0.5756	-0
Mof_H 	H 	0.9938	0.6842	0.6792	0.112
Mof_H 	H 	0.879	0.7085	0.5716	0.013
Mof_H 	H 	0.9007	0.0915	0.5561	-0.002
Mof_H 	H 	0.0151	0.084	0.6624	0.107
Mof_H 	H 	0.1036	0.2553	0.8386	0.159
Mof_H 	H 	0.1209	0.2326	0.7825	0.159
Mof_H 	H 	0.209	0.12	0.941	0.028
Mof_C 	C 	0.229	0.1089	0.7089	0.116
Mof_C 	C 	0.2094	0.0866	0.7537	-0.204
Mof_C 	C 	0.1591	0.9887	0.7286	0.179
Mof_C 	C 	0.1331	0.917	0.6595	-0.203
Mof_C 	C 	0.1569	0.9443	0.6203	0.117
Mof_C 	C 	0.0195	0.8811	0.6822	0.183
Mof_C 	C 	0.9765	0.7679	0.6546	-0.206
Mof_C 	C 	0.9071	0.7842	0.5894	0.117
Mof_C 	C 	0.9202	0.0085	0.5807	0.112
Mof_C 	C 	0.989	0.0053	0.6444	-0.205
Mof_C 	C 	0.2223	0.882	0.9049	0.313
Mof_C 	C 	0.1774	0.9985	0.8521	-0.077
Mof_C 	C 	0.1781	0.1153	0.8814	0.112
Mof_C 	C 	0.1408	0.2419	0.8377	-0.402
Mof_C 	C 	0.1874	0.3648	0.8735	0.388
Mof_N 	N 	0.2034	0.0417	0.6421	-0.161
Mof_N 	N 	0.1336	0.9725	0.7683	-0.095
Mof_N 	N 	0.0885	0.8632	0.7444	-0.142
Mof_N 	N 	0.8783	0.8988	0.551	-0.171
Mof_O 	O 	0.21736	0.7769	0.8692	-0.279
Mof_O 	O 	0.26207	0.8956	0.9796	-0.275
Mof_O 	O 	0.1613	0.4798	0.8472	-0.294
Mof_O 	O 	0.25122	0.3482	0.9295	-0.292
Mof_H 	H 	0.89113	0.76457	0.72431	0.101
_end
