data_functionalizedCrystal
_audit_creation_method	'EQeq! by Chris Wilmer'
_symmetry_space_group_name_H-M	'P1'
_symmetry_Int_Tables_number	1
_symmetry_cell_setting	triclinic
loop_
_symmetry_equiv_pos_as_xyz
  x,y,z
_cell_length_a	34.72
_cell_length_b	14.7122
_cell_length_c	31.412
_cell_angle_alpha	90
_cell_angle_beta	103.293
_cell_angle_gamma	90
loop_
_atom_site_label
_atom_site_type_symbol
_atom_site_fract_x
_atom_site_fract_y
_atom_site_fract_z
_atom_site_charge
Mof_Br	Br	0.85854	0.53176	0.07102	-0.469
Mof_Br	Br	0.76874	0.6383	0.12363	-0.448
Mof_Br	Br	0.1192	0.68336	0.5084	-0.461
Mof_Br	Br	0.285	0.4359	0.60522	-0.446
Mof_Br	Br	0.38906	0.49165	0.56969	-0.47
Mof_Br	Br	0.40757	0.5884	0.71016	0.22
Mof_Br	Br	0.61808	0.36005	0.00844	-0.464
Mof_Br	Br	0.64334	0.51505	0.90694	-0.479
Mof_Br	Br	0.97952	0.98378	0.79331	-0.485
Mof_Br	Br	0.14017	0.53626	0.40222	-0.482
Mof_Br	Br	0.50237	0.5425	0.811	-0.412
Mof_Br	Br	0.87828	0.06197	0.70157	-0.485
Mof_C 	C 	0.863	0.8044	0.1517	0.088
Mof_H 	H 	0.8419	0.8335	0.1331	-0.003
Mof_C 	C 	0.8882	0.8576	0.1828	-0.135
Mof_H 	H 	0.8851	0.9202	0.1839	0.109
Mof_C 	C 	0.9182	0.8129	0.2122	0.073
Mof_C 	C 	0.9227	0.7176	0.208	-0.149
Mof_H 	H 	0.9424	0.6851	0.2269	0.099
Mof_C 	C 	0.8961	0.6761	0.1743	0.098
Mof_H 	H 	0.8993	0.614	0.1709	-0.004
Mof_C 	C 	0.9434	0.8665	0.247	0.097
Mof_C 	C 	0.9615	0.001	0.2784	0.11
Mof_C 	C 	0.9939	0.8745	0.3085	0.088
Mof_C 	C 	0.9569	0.1008	0.2761	0.069
Mof_C 	C 	0.9343	0.1417	0.2402	-0.143
Mof_H 	H 	0.9234	0.1064	0.2159	0.103
Mof_C 	C 	0.9272	0.2318	0.2389	0.097
Mof_H 	H 	0.911	0.2561	0.2136	-0.009
Mof_C 	C 	0.9669	0.2506	0.308	0.066
Mof_H 	H 	0.9783	0.2897	0.3306	-0.002
Mof_C 	C 	0.9756	0.1589	0.3125	-0.119
Mof_H 	H 	0.9926	0.1356	0.3375	0.086
Mof_C 	C 	0.0255	0.8298	0.3408	0.06
Mof_C 	C 	0.055	0.8765	0.3676	-0.125
Mof_H 	H 	0.0549	0.9397	0.3675	0.1
Mof_C 	C 	0.0853	0.8292	0.3952	0.082
Mof_H 	H 	0.1059	0.8616	0.4129	0.017
Mof_C 	C 	0.0561	0.6898	0.3715	0.072
Mof_H 	H 	0.0562	0.6268	0.3736	0.007
Mof_C 	C 	0.0261	0.7325	0.3422	-0.126
Mof_H 	H 	0.0065	0.6988	0.3237	0.108
Mof_C 	C 	0.1977	0.7511	0.4048	0.1
Mof_H 	H 	0.1896	0.7075	0.3832	-0.012
Mof_C 	C 	0.2273	0.8074	0.4015	-0.136
Mof_H 	H 	0.2395	0.8015	0.3782	0.098
Mof_C 	C 	0.2395	0.8734	0.4324	0.063
Mof_C 	C 	0.223	0.876	0.4705	-0.11
Mof_H 	H 	0.2326	0.9154	0.4937	0.082
Mof_C 	C 	0.1921	0.8164	0.4706	0.065
Mof_H 	H 	0.1795	0.8181	0.4938	0.011
Mof_C 	C 	0.2741	0.9369	0.4333	0.108
Mof_C 	C 	0.3111	0.0591	0.4599	0.103
Mof_C 	C 	0.325	0.9757	0.4049	0.125
Mof_C 	C 	0.3513	0.9607	0.3743	0.069
Mof_C 	C 	0.3922	0.9678	0.3903	-0.12
Mof_H 	H 	0.4027	0.9866	0.4189	0.101
Mof_C 	C 	0.4171	0.9463	0.3624	0.081
Mof_H 	H 	0.4444	0.949	0.3729	-0.009
Mof_C 	C 	0.3634	0.9155	0.3048	0.064
Mof_H 	H 	0.3538	0.8985	0.2758	0.008
Mof_C 	C 	0.3377	0.9343	0.3314	-0.116
Mof_H 	H 	0.3106	0.929	0.3201	0.092
Mof_C 	C 	0.3176	0.1377	0.488	0.054
Mof_C 	C 	0.2898	0.1669	0.5097	-0.111
Mof_H 	H 	0.266	0.1357	0.5066	0.078
Mof_C 	C 	0.2974	0.2444	0.5368	0.077
Mof_H 	H 	0.2779	0.2647	0.5504	-0.001
Mof_C 	C 	0.3604	0.2599	0.5244	0.054
Mof_H 	H 	0.3847	0.2896	0.5305	0.003
Mof_C 	C 	0.354	0.1828	0.4948	-0.098
Mof_H 	H 	0.3735	0.164	0.4807	0.083
Mof_C 	C 	0.3701	0.2281	0.6479	0.076
Mof_H 	H 	0.35	0.1987	0.6279	0.013
Mof_C 	C 	0.3924	0.1778	0.6823	-0.114
Mof_H 	H 	0.3883	0.1156	0.6842	0.105
Mof_C 	C 	0.4213	0.2219	0.7141	0.059
Mof_C 	C 	0.4273	0.3144	0.7084	-0.123
Mof_H 	H 	0.4465	0.3461	0.7285	0.078
Mof_C 	C 	0.4047	0.3578	0.6729	0.069
Mof_H 	H 	0.4092	0.4195	0.6697	0.004
Mof_C 	C 	0.4454	0.1731	0.7503	0.102
Mof_C 	C 	0.4613	0.0408	0.7872	0.099
Mof_C 	C 	0.4981	0.1674	0.8093	0.079
Mof_C 	C 	0.4556	0.9432	0.7911	0.064
Mof_C 	C 	0.4231	0.9023	0.7641	-0.125
Mof_H 	H 	0.4041	0.9376	0.7456	0.093
Mof_C 	C 	0.419	0.8076	0.7646	0.077
Mof_H 	H 	0.3961	0.7815	0.7479	-0.002
Mof_C 	C 	0.4784	0.7941	0.8149	0.068
Mof_H 	H 	0.4974	0.7573	0.8324	-0.002
Mof_C 	C 	0.4833	0.8858	0.8169	-0.127
Mof_H 	H 	0.5055	0.9104	0.8358	0.088
Mof_C 	C 	0.5379	0.3052	0.8297	-0.116
Mof_H 	H 	0.5239	0.335	0.8048	0.094
Mof_C 	C 	0.5288	0.2151	0.8392	0.063
Mof_C 	C 	0.5508	0.1754	0.8769	-0.133
Mof_H 	H 	0.5458	0.1155	0.8833	0.112
Mof_C 	C 	0.58	0.223	0.905	0.107
Mof_H 	H 	0.593	0.1954	0.931	0.003
Mof_C 	C 	0.5685	0.3472	0.859	0.062
Mof_H 	H 	0.5748	0.4067	0.8533	0.019
Mof_C 	C 	0.688	0.2248	0.9697	0.067
Mof_H 	H 	0.6696	0.2133	0.9864	0.006
Mof_C 	C 	0.7194	0.1635	0.9726	-0.11
Mof_H 	H 	0.7235	0.1154	0.9923	0.081
Mof_C 	C 	0.7446	0.1796	0.9434	0.054
Mof_C 	C 	0.7415	0.2558	0.9189	-0.102
Mof_H 	H 	0.7597	0.2676	0.9021	0.086
Mof_C 	C 	0.7096	0.3191	0.9189	0.046
Mof_H 	H 	0.7069	0.3718	0.9021	0.011
Mof_C 	C 	0.7768	0.1116	0.9441	0.116
Mof_C 	C 	0.8091	0.9854	0.9697	0.106
Mof_C 	C 	0.8239	0.0552	0.9126	0.128
Mof_C 	C 	0.8132	0.9023	0.9973	0.071
Mof_C 	C 	0.787	0.8897	0.028	-0.149
Mof_H 	H 	0.7695	0.9346	0.0324	0.097
Mof_C 	C 	0.79	0.8115	0.0484	0.121
Mof_H 	H 	0.7698	0.7975	0.0622	-0.017
Mof_C 	C 	0.8443	0.7649	0.0264	0.076
Mof_H 	H 	0.8648	0.7234	0.028	-0.002
Mof_C 	C 	0.8415	0.8374	0.9989	-0.128
Mof_H 	H 	0.8592	0.8427	0.9809	0.092
Mof_C 	C 	0.8474	0.064	0.8792	0.069
Mof_C 	C 	0.8855	0.0301	0.8871	-0.132
Mof_H 	H 	0.8971	0.005	0.9142	0.098
Mof_C 	C 	0.906	0.0337	0.8549	0.096
Mof_H 	H 	0.9309	0.0069	0.8604	-0.008
Mof_C 	C 	0.8562	0.1119	0.8072	0.054
Mof_H 	H 	0.8467	0.1419	0.7808	0.002
Mof_C 	C 	0.8335	0.1049	0.8391	-0.108
Mof_H 	H 	0.8081	0.129	0.8327	0.089
Mof_N 	N 	0.8666	0.7148	0.1464	-0.276
Mof_N 	N 	0.9418	0.2866	0.2712	-0.262
Mof_N 	N 	0.0858	0.7388	0.3973	-0.262
Mof_N 	N 	0.973	0.8222	0.2749	-0.132
Mof_N 	N 	0.9382	0.9567	0.2474	-0.132
Mof_N 	N 	0.9908	0.9641	0.31	-0.136
Mof_N 	N 	0.1795	0.7548	0.4372	-0.263
Mof_N 	N 	0.4023	0.9224	0.3217	-0.267
Mof_N 	N 	0.331	0.2889	0.5434	-0.263
Mof_N 	N 	0.2941	0.9207	0.402	-0.129
Mof_N 	N 	0.2816	0.0018	0.463	-0.142
Mof_N 	N 	0.335	0.0451	0.4312	-0.128
Mof_N 	N 	0.376	0.3173	0.6419	-0.26
Mof_N 	N 	0.4461	0.754	0.7878	-0.268
Mof_N 	N 	0.5903	0.3051	0.8968	-0.262
Mof_N 	N 	0.4752	0.2158	0.7756	-0.141
Mof_N 	N 	0.4346	0.0856	0.7548	-0.126
Mof_N 	N 	0.4909	0.0788	0.8147	-0.137
Mof_N 	N 	0.6832	0.2989	0.9444	-0.257
Mof_N 	N 	0.8176	0.752	0.0517	-0.275
Mof_N 	N 	0.893	0.0724	0.817	-0.265
Mof_N 	N 	0.796	0.121	0.9106	-0.126
Mof_N 	N 	0.7839	0.0487	0.9738	-0.145
Mof_N 	N 	0.8311	0.9883	0.9382	-0.134
Mof_Zn	Zn	0.82719	0.65179	0.09841	1.194
Mof_Zn	Zn	0.13169	0.67195	0.43818	1.191
Mof_Zn	Zn	0.34471	0.38874	0.58919	1.194
Mof_Zn	Zn	0.44027	0.61384	0.78234	1.171
Mof_Zn	Zn	0.63368	0.37606	0.93989	1.192
Mof_Zn	Zn	0.92442	0.07718	0.76881	1.189
Mof_Br	Br	0.3895	0.602	0.7032	-0.647
Mof_Br	Br	0.4927	0.5338	0.7993	-0.061
Mof_Br	Br	0.85854	0.96824	0.57102	-0.468
Mof_Br	Br	0.76874	0.8617	0.62363	-0.446
Mof_Br	Br	0.1192	0.81664	0.0084	-0.46
Mof_Br	Br	0.285	0.0641	0.10522	-0.445
Mof_Br	Br	0.38906	0.00835	0.06969	-0.469
Mof_Br	Br	0.40757	0.9116	0.21016	0.221
Mof_Br	Br	0.61808	0.13995	0.50844	-0.463
Mof_Br	Br	0.64334	0.98495	0.40694	-0.478
Mof_Br	Br	0.97952	0.51622	0.29331	-0.485
Mof_Br	Br	0.14017	0.96374	0.90222	-0.481
Mof_Br	Br	0.50237	0.9575	0.311	-0.411
Mof_Br	Br	0.87828	0.43803	0.20157	-0.483
Mof_C 	C 	0.863	0.6956	0.6517	0.089
Mof_H 	H 	0.8419	0.6665	0.6331	-0.002
Mof_C 	C 	0.8882	0.6424	0.6828	-0.134
Mof_H 	H 	0.8851	0.5798	0.6839	0.11
Mof_C 	C 	0.9182	0.6871	0.7122	0.074
Mof_C 	C 	0.9227	0.7824	0.708	-0.148
Mof_H 	H 	0.9424	0.8149	0.7269	0.1
Mof_C 	C 	0.8961	0.8239	0.6743	0.099
Mof_H 	H 	0.8993	0.886	0.6709	-0.003
Mof_C 	C 	0.9434	0.6335	0.747	0.098
Mof_C 	C 	0.9615	0.499	0.7784	0.112
Mof_C 	C 	0.9939	0.6255	0.8085	0.089
Mof_C 	C 	0.9569	0.3992	0.7761	0.07
Mof_C 	C 	0.9343	0.3583	0.7402	-0.142
Mof_H 	H 	0.9234	0.3936	0.7159	0.104
Mof_C 	C 	0.9272	0.2682	0.7389	0.098
Mof_H 	H 	0.911	0.2439	0.7136	-0.009
Mof_C 	C 	0.9669	0.2494	0.808	0.066
Mof_H 	H 	0.9783	0.2103	0.8306	-0.002
Mof_C 	C 	0.9756	0.3411	0.8125	-0.118
Mof_H 	H 	0.9926	0.3644	0.8375	0.086
Mof_C 	C 	0.0255	0.6702	0.8408	0.06
Mof_C 	C 	0.055	0.6235	0.8676	-0.125
Mof_H 	H 	0.0549	0.5603	0.8675	0.1
Mof_C 	C 	0.0853	0.6708	0.8952	0.082
Mof_H 	H 	0.1059	0.6384	0.9129	0.017
Mof_C 	C 	0.0561	0.8102	0.8715	0.072
Mof_H 	H 	0.0562	0.8732	0.8736	0.007
Mof_C 	C 	0.0261	0.7675	0.8422	-0.126
Mof_H 	H 	0.0065	0.8012	0.8237	0.108
Mof_C 	C 	0.1977	0.7489	0.9048	0.1
Mof_H 	H 	0.1896	0.7925	0.8832	-0.012
Mof_C 	C 	0.2273	0.6926	0.9015	-0.136
Mof_H 	H 	0.2395	0.6985	0.8782	0.098
Mof_C 	C 	0.2395	0.6266	0.9324	0.063
Mof_C 	C 	0.223	0.624	0.9705	-0.11
Mof_H 	H 	0.2326	0.5846	0.9937	0.082
Mof_C 	C 	0.1921	0.6836	0.9706	0.065
Mof_H 	H 	0.1795	0.6819	0.9938	0.012
Mof_C 	C 	0.2741	0.5631	0.9333	0.108
Mof_C 	C 	0.3111	0.4409	0.9599	0.103
Mof_C 	C 	0.325	0.5243	0.9049	0.126
Mof_C 	C 	0.3513	0.5393	0.8743	0.069
Mof_C 	C 	0.3922	0.5322	0.8903	-0.12
Mof_H 	H 	0.4027	0.5134	0.9189	0.102
Mof_C 	C 	0.4171	0.5537	0.8624	0.081
Mof_H 	H 	0.4444	0.551	0.8729	-0.008
Mof_C 	C 	0.3634	0.5845	0.8048	0.064
Mof_H 	H 	0.3538	0.6015	0.7758	0.008
Mof_C 	C 	0.3377	0.5657	0.8314	-0.116
Mof_H 	H 	0.3106	0.571	0.8201	0.092
Mof_C 	C 	0.3176	0.3623	0.988	0.054
Mof_C 	C 	0.2898	0.3331	0.0097	-0.111
Mof_H 	H 	0.266	0.3643	0.0066	0.078
Mof_C 	C 	0.2974	0.2556	0.0368	0.077
Mof_H 	H 	0.2779	0.2353	0.0504	-0.001
Mof_C 	C 	0.3604	0.2401	0.0244	0.054
Mof_H 	H 	0.3847	0.2104	0.0305	0.003
Mof_C 	C 	0.354	0.3172	0.9948	-0.098
Mof_H 	H 	0.3735	0.336	0.9807	0.083
Mof_C 	C 	0.3701	0.2719	0.1479	0.076
Mof_H 	H 	0.35	0.3013	0.1279	0.013
Mof_C 	C 	0.3924	0.3222	0.1823	-0.114
Mof_H 	H 	0.3883	0.3844	0.1842	0.105
Mof_C 	C 	0.4213	0.2781	0.2141	0.059
Mof_C 	C 	0.4273	0.1856	0.2084	-0.123
Mof_H 	H 	0.4465	0.1539	0.2285	0.078
Mof_C 	C 	0.4047	0.1422	0.1729	0.069
Mof_H 	H 	0.4092	0.0805	0.1697	0.004
Mof_C 	C 	0.4454	0.3269	0.2503	0.102
Mof_C 	C 	0.4613	0.4592	0.2872	0.099
Mof_C 	C 	0.4981	0.3326	0.3093	0.079
Mof_C 	C 	0.4556	0.5568	0.2911	0.064
Mof_C 	C 	0.4231	0.5977	0.2641	-0.126
Mof_H 	H 	0.4041	0.5624	0.2456	0.093
Mof_C 	C 	0.419	0.6924	0.2646	0.077
Mof_H 	H 	0.3961	0.7185	0.2479	-0.002
Mof_C 	C 	0.4784	0.7059	0.3149	0.068
Mof_H 	H 	0.4974	0.7427	0.3324	-0.002
Mof_C 	C 	0.4833	0.6142	0.3169	-0.127
Mof_H 	H 	0.5055	0.5896	0.3358	0.088
Mof_C 	C 	0.5379	0.1948	0.3297	-0.116
Mof_H 	H 	0.5239	0.165	0.3048	0.094
Mof_C 	C 	0.5288	0.2849	0.3392	0.063
Mof_C 	C 	0.5508	0.3246	0.3769	-0.133
Mof_H 	H 	0.5458	0.3845	0.3833	0.112
Mof_C 	C 	0.58	0.277	0.405	0.107
Mof_H 	H 	0.593	0.3046	0.431	0.003
Mof_C 	C 	0.5685	0.1528	0.359	0.062
Mof_H 	H 	0.5748	0.0933	0.3533	0.019
Mof_C 	C 	0.688	0.2752	0.4697	0.067
Mof_H 	H 	0.6696	0.2867	0.4864	0.006
Mof_C 	C 	0.7194	0.3365	0.4726	-0.11
Mof_H 	H 	0.7235	0.3846	0.4923	0.081
Mof_C 	C 	0.7446	0.3204	0.4434	0.054
Mof_C 	C 	0.7415	0.2442	0.4189	-0.102
Mof_H 	H 	0.7597	0.2324	0.4021	0.086
Mof_C 	C 	0.7096	0.1809	0.4189	0.046
Mof_H 	H 	0.7069	0.1282	0.4021	0.011
Mof_C 	C 	0.7768	0.3884	0.4441	0.116
Mof_C 	C 	0.8091	0.5146	0.4697	0.105
Mof_C 	C 	0.8239	0.4448	0.4126	0.129
Mof_C 	C 	0.8132	0.5977	0.4973	0.071
Mof_C 	C 	0.787	0.6103	0.528	-0.149
Mof_H 	H 	0.7695	0.5654	0.5324	0.097
Mof_C 	C 	0.79	0.6885	0.5484	0.121
Mof_H 	H 	0.7698	0.7025	0.5622	-0.017
Mof_C 	C 	0.8443	0.7351	0.5264	0.076
Mof_H 	H 	0.8648	0.7766	0.528	-0.002
Mof_C 	C 	0.8415	0.6626	0.4989	-0.128
Mof_H 	H 	0.8592	0.6573	0.4809	0.092
Mof_C 	C 	0.8474	0.436	0.3792	0.069
Mof_C 	C 	0.8855	0.4699	0.3871	-0.132
Mof_H 	H 	0.8971	0.495	0.4142	0.098
Mof_C 	C 	0.906	0.4663	0.3549	0.096
Mof_H 	H 	0.9309	0.4931	0.3604	-0.007
Mof_C 	C 	0.8562	0.3881	0.3072	0.054
Mof_H 	H 	0.8467	0.3581	0.2808	0.002
Mof_C 	C 	0.8335	0.3951	0.3391	-0.108
Mof_H 	H 	0.8081	0.371	0.3327	0.089
Mof_N 	N 	0.8666	0.7852	0.6464	-0.276
Mof_N 	N 	0.9418	0.2134	0.7712	-0.262
Mof_N 	N 	0.0858	0.7612	0.8973	-0.262
Mof_N 	N 	0.973	0.6778	0.7749	-0.132
Mof_N 	N 	0.9382	0.5433	0.7474	-0.132
Mof_N 	N 	0.9908	0.5359	0.81	-0.136
Mof_N 	N 	0.1795	0.7452	0.9372	-0.263
Mof_N 	N 	0.4023	0.5776	0.8217	-0.267
Mof_N 	N 	0.331	0.2111	0.0434	-0.263
Mof_N 	N 	0.2941	0.5793	0.902	-0.129
Mof_N 	N 	0.2816	0.4982	0.963	-0.143
Mof_N 	N 	0.335	0.4549	0.9312	-0.128
Mof_N 	N 	0.376	0.1827	0.1419	-0.26
Mof_N 	N 	0.4461	0.746	0.2878	-0.268
Mof_N 	N 	0.5903	0.1949	0.3968	-0.263
Mof_N 	N 	0.4752	0.2842	0.2756	-0.141
Mof_N 	N 	0.4346	0.4144	0.2548	-0.126
Mof_N 	N 	0.4909	0.4212	0.3147	-0.137
Mof_N 	N 	0.6832	0.2011	0.4444	-0.257
Mof_N 	N 	0.8176	0.748	0.5517	-0.275
Mof_N 	N 	0.893	0.4276	0.317	-0.265
Mof_N 	N 	0.796	0.379	0.4106	-0.126
Mof_N 	N 	0.7839	0.4513	0.4738	-0.144
Mof_N 	N 	0.8311	0.5117	0.4382	-0.134
Mof_Zn	Zn	0.82719	0.84821	0.59841	1.194
Mof_Zn	Zn	0.13169	0.82805	0.93818	1.191
Mof_Zn	Zn	0.34471	0.11126	0.08919	1.194
Mof_Zn	Zn	0.44027	0.88616	0.28234	1.171
Mof_Zn	Zn	0.63368	0.12394	0.43989	1.191
Mof_Zn	Zn	0.92442	0.42282	0.26881	1.19
Mof_Br	Br	0.3895	0.898	0.2032	-0.647
Mof_Br	Br	0.4927	0.9662	0.2993	-0.061
Mof_Br	Br	0.14146	0.03176	0.42898	-0.468
Mof_Br	Br	0.23126	0.1383	0.37637	-0.446
Mof_Br	Br	0.8808	0.18336	0.9916	-0.46
Mof_Br	Br	0.715	0.9359	0.89478	-0.445
Mof_Br	Br	0.61094	0.99165	0.93031	-0.469
Mof_Br	Br	0.59243	0.0884	0.78984	0.221
Mof_Br	Br	0.38192	0.86005	0.49156	-0.463
Mof_Br	Br	0.35666	0.01505	0.59306	-0.478
Mof_Br	Br	0.02048	0.48378	0.70669	-0.485
Mof_Br	Br	0.85983	0.03626	0.09778	-0.481
Mof_Br	Br	0.49763	0.0425	0.689	-0.411
Mof_Br	Br	0.12172	0.56197	0.79843	-0.483
Mof_C 	C 	0.137	0.3044	0.3483	0.089
Mof_H 	H 	0.1581	0.3335	0.3669	-0.002
Mof_C 	C 	0.1118	0.3576	0.3172	-0.134
Mof_H 	H 	0.1149	0.4202	0.3161	0.11
Mof_C 	C 	0.0818	0.3129	0.2878	0.074
Mof_C 	C 	0.0773	0.2176	0.292	-0.148
Mof_H 	H 	0.0576	0.1851	0.2731	0.1
Mof_C 	C 	0.1039	0.1761	0.3257	0.099
Mof_H 	H 	0.1007	0.114	0.3291	-0.003
Mof_C 	C 	0.0566	0.3665	0.253	0.098
Mof_C 	C 	0.0385	0.501	0.2216	0.112
Mof_C 	C 	0.0061	0.3745	0.1915	0.089
Mof_C 	C 	0.0431	0.6008	0.2239	0.07
Mof_C 	C 	0.0657	0.6417	0.2598	-0.142
Mof_H 	H 	0.0766	0.6064	0.2841	0.104
Mof_C 	C 	0.0728	0.7318	0.2611	0.098
Mof_H 	H 	0.089	0.7561	0.2864	-0.009
Mof_C 	C 	0.0331	0.7506	0.192	0.066
Mof_H 	H 	0.0217	0.7897	0.1694	-0.002
Mof_C 	C 	0.0244	0.6589	0.1875	-0.118
Mof_H 	H 	0.0074	0.6356	0.1625	0.086
Mof_C 	C 	0.9745	0.3298	0.1592	0.06
Mof_C 	C 	0.945	0.3765	0.1324	-0.125
Mof_H 	H 	0.9451	0.4397	0.1325	0.1
Mof_C 	C 	0.9147	0.3292	0.1048	0.082
Mof_H 	H 	0.8941	0.3616	0.0871	0.017
Mof_C 	C 	0.9439	0.1898	0.1285	0.072
Mof_H 	H 	0.9438	0.1268	0.1264	0.007
Mof_C 	C 	0.9739	0.2325	0.1578	-0.126
Mof_H 	H 	0.9935	0.1988	0.1763	0.108
Mof_C 	C 	0.8023	0.2511	0.0952	0.1
Mof_H 	H 	0.8104	0.2075	0.1168	-0.012
Mof_C 	C 	0.7727	0.3074	0.0985	-0.136
Mof_H 	H 	0.7605	0.3015	0.1218	0.098
Mof_C 	C 	0.7605	0.3734	0.0676	0.063
Mof_C 	C 	0.777	0.376	0.0295	-0.11
Mof_H 	H 	0.7674	0.4154	0.0063	0.082
Mof_C 	C 	0.8079	0.3164	0.0294	0.065
Mof_H 	H 	0.8205	0.3181	0.0062	0.012
Mof_C 	C 	0.7259	0.4369	0.0667	0.108
Mof_C 	C 	0.6889	0.5591	0.0401	0.103
Mof_C 	C 	0.675	0.4757	0.0951	0.126
Mof_C 	C 	0.6487	0.4607	0.1257	0.069
Mof_C 	C 	0.6078	0.4678	0.1097	-0.12
Mof_H 	H 	0.5973	0.4866	0.0811	0.102
Mof_C 	C 	0.5829	0.4463	0.1376	0.081
Mof_H 	H 	0.5556	0.449	0.1271	-0.008
Mof_C 	C 	0.6366	0.4155	0.1952	0.064
Mof_H 	H 	0.6462	0.3985	0.2242	0.008
Mof_C 	C 	0.6623	0.4343	0.1686	-0.116
Mof_H 	H 	0.6894	0.429	0.1799	0.092
Mof_C 	C 	0.6824	0.6377	0.012	0.054
Mof_C 	C 	0.7102	0.6669	0.9903	-0.111
Mof_H 	H 	0.734	0.6357	0.9934	0.078
Mof_C 	C 	0.7026	0.7444	0.9632	0.077
Mof_H 	H 	0.7221	0.7647	0.9496	-0.001
Mof_C 	C 	0.6396	0.7599	0.9756	0.054
Mof_H 	H 	0.6153	0.7896	0.9695	0.003
Mof_C 	C 	0.646	0.6828	0.0052	-0.098
Mof_H 	H 	0.6265	0.664	0.0193	0.083
Mof_C 	C 	0.6299	0.7281	0.8521	0.076
Mof_H 	H 	0.65	0.6987	0.8721	0.013
Mof_C 	C 	0.6076	0.6778	0.8177	-0.114
Mof_H 	H 	0.6117	0.6156	0.8158	0.105
Mof_C 	C 	0.5787	0.7219	0.7859	0.059
Mof_C 	C 	0.5727	0.8144	0.7916	-0.123
Mof_H 	H 	0.5535	0.8461	0.7715	0.078
Mof_C 	C 	0.5953	0.8578	0.8271	0.069
Mof_H 	H 	0.5908	0.9195	0.8303	0.004
Mof_C 	C 	0.5546	0.6731	0.7497	0.102
Mof_C 	C 	0.5387	0.5408	0.7128	0.099
Mof_C 	C 	0.5019	0.6674	0.6907	0.079
Mof_C 	C 	0.5444	0.4432	0.7089	0.064
Mof_C 	C 	0.5769	0.4023	0.7359	-0.126
Mof_H 	H 	0.5959	0.4376	0.7544	0.093
Mof_C 	C 	0.581	0.3076	0.7354	0.077
Mof_H 	H 	0.6039	0.2815	0.7521	-0.002
Mof_C 	C 	0.5216	0.2941	0.6851	0.068
Mof_H 	H 	0.5026	0.2573	0.6676	-0.002
Mof_C 	C 	0.5167	0.3858	0.6831	-0.127
Mof_H 	H 	0.4945	0.4104	0.6642	0.088
Mof_C 	C 	0.4621	0.8052	0.6703	-0.116
Mof_H 	H 	0.4761	0.835	0.6952	0.094
Mof_C 	C 	0.4712	0.7151	0.6608	0.063
Mof_C 	C 	0.4492	0.6754	0.6231	-0.133
Mof_H 	H 	0.4542	0.6155	0.6167	0.112
Mof_C 	C 	0.42	0.723	0.595	0.107
Mof_H 	H 	0.407	0.6954	0.569	0.003
Mof_C 	C 	0.4315	0.8472	0.641	0.062
Mof_H 	H 	0.4252	0.9067	0.6467	0.019
Mof_C 	C 	0.312	0.7248	0.5303	0.067
Mof_H 	H 	0.3304	0.7133	0.5136	0.006
Mof_C 	C 	0.2806	0.6635	0.5274	-0.11
Mof_H 	H 	0.2765	0.6154	0.5077	0.081
Mof_C 	C 	0.2554	0.6796	0.5566	0.054
Mof_C 	C 	0.2585	0.7558	0.5811	-0.102
Mof_H 	H 	0.2403	0.7676	0.5979	0.086
Mof_C 	C 	0.2904	0.8191	0.5811	0.046
Mof_H 	H 	0.2931	0.8718	0.5979	0.011
Mof_C 	C 	0.2232	0.6116	0.5559	0.116
Mof_C 	C 	0.1909	0.4854	0.5303	0.105
Mof_C 	C 	0.1761	0.5552	0.5874	0.129
Mof_C 	C 	0.1868	0.4023	0.5027	0.071
Mof_C 	C 	0.213	0.3897	0.472	-0.149
Mof_H 	H 	0.2305	0.4346	0.4676	0.097
Mof_C 	C 	0.21	0.3115	0.4516	0.121
Mof_H 	H 	0.2302	0.2975	0.4378	-0.017
Mof_C 	C 	0.1557	0.2649	0.4736	0.076
Mof_H 	H 	0.1352	0.2234	0.472	-0.002
Mof_C 	C 	0.1585	0.3374	0.5011	-0.128
Mof_H 	H 	0.1408	0.3427	0.5191	0.092
Mof_C 	C 	0.1526	0.564	0.6208	0.069
Mof_C 	C 	0.1145	0.5301	0.6129	-0.132
Mof_H 	H 	0.1029	0.505	0.5858	0.098
Mof_C 	C 	0.094	0.5337	0.6451	0.096
Mof_H 	H 	0.0691	0.5069	0.6396	-0.007
Mof_C 	C 	0.1438	0.6119	0.6928	0.054
Mof_H 	H 	0.1533	0.6419	0.7192	0.002
Mof_C 	C 	0.1665	0.6049	0.6609	-0.108
Mof_H 	H 	0.1919	0.629	0.6673	0.089
Mof_N 	N 	0.1334	0.2148	0.3536	-0.276
Mof_N 	N 	0.0582	0.7866	0.2288	-0.262
Mof_N 	N 	0.9142	0.2388	0.1027	-0.262
Mof_N 	N 	0.027	0.3222	0.2251	-0.132
Mof_N 	N 	0.0618	0.4567	0.2526	-0.132
Mof_N 	N 	0.0092	0.4641	0.19	-0.136
Mof_N 	N 	0.8205	0.2548	0.0628	-0.263
Mof_N 	N 	0.5977	0.4224	0.1783	-0.267
Mof_N 	N 	0.669	0.7889	0.9566	-0.263
Mof_N 	N 	0.7059	0.4207	0.098	-0.129
Mof_N 	N 	0.7184	0.5018	0.037	-0.143
Mof_N 	N 	0.665	0.5451	0.0688	-0.128
Mof_N 	N 	0.624	0.8173	0.8581	-0.26
Mof_N 	N 	0.5539	0.254	0.7122	-0.268
Mof_N 	N 	0.4097	0.8051	0.6032	-0.263
Mof_N 	N 	0.5248	0.7158	0.7244	-0.141
Mof_N 	N 	0.5654	0.5856	0.7452	-0.126
Mof_N 	N 	0.5091	0.5788	0.6853	-0.137
Mof_N 	N 	0.3168	0.7989	0.5556	-0.257
Mof_N 	N 	0.1824	0.252	0.4483	-0.275
Mof_N 	N 	0.107	0.5724	0.683	-0.265
Mof_N 	N 	0.204	0.621	0.5894	-0.126
Mof_N 	N 	0.2161	0.5487	0.5262	-0.144
Mof_N 	N 	0.1689	0.4883	0.5618	-0.134
Mof_Zn	Zn	0.17281	0.15179	0.40159	1.194
Mof_Zn	Zn	0.86831	0.17195	0.06182	1.191
Mof_Zn	Zn	0.65529	0.88874	0.91081	1.194
Mof_Zn	Zn	0.55973	0.11384	0.71766	1.171
Mof_Zn	Zn	0.36632	0.87606	0.56011	1.191
Mof_Zn	Zn	0.07558	0.57718	0.73119	1.19
Mof_Br	Br	0.6105	0.102	0.7968	-0.647
Mof_Br	Br	0.5073	0.0338	0.7007	-0.061
Mof_Br	Br	0.14146	0.46824	0.92898	-0.468
Mof_Br	Br	0.23126	0.3617	0.87637	-0.447
Mof_Br	Br	0.8808	0.31664	0.4916	-0.46
Mof_Br	Br	0.715	0.5641	0.39478	-0.445
Mof_Br	Br	0.61094	0.50835	0.43031	-0.469
Mof_Br	Br	0.59243	0.4116	0.28984	0.221
Mof_Br	Br	0.38192	0.63995	0.99156	-0.463
Mof_Br	Br	0.35666	0.48495	0.09306	-0.478
Mof_Br	Br	0.02048	0.01622	0.20669	-0.484
Mof_Br	Br	0.85983	0.46374	0.59778	-0.481
Mof_Br	Br	0.49763	0.4575	0.189	-0.411
Mof_Br	Br	0.12172	0.93803	0.29843	-0.484
Mof_C 	C 	0.137	0.1956	0.8483	0.089
Mof_H 	H 	0.1581	0.1665	0.8669	-0.002
Mof_C 	C 	0.1118	0.1424	0.8172	-0.134
Mof_H 	H 	0.1149	0.0798	0.8161	0.11
Mof_C 	C 	0.0818	0.1871	0.7878	0.074
Mof_C 	C 	0.0773	0.2824	0.792	-0.148
Mof_H 	H 	0.0576	0.3149	0.7731	0.1
Mof_C 	C 	0.1039	0.3239	0.8257	0.099
Mof_H 	H 	0.1007	0.386	0.8291	-0.003
Mof_C 	C 	0.0566	0.1335	0.753	0.098
Mof_C 	C 	0.0385	0.999	0.7216	0.111
Mof_C 	C 	0.0061	0.1255	0.6915	0.089
Mof_C 	C 	0.0431	0.8992	0.7239	0.07
Mof_C 	C 	0.0657	0.8583	0.7598	-0.142
Mof_H 	H 	0.0766	0.8936	0.7841	0.104
Mof_C 	C 	0.0728	0.7682	0.7611	0.098
Mof_H 	H 	0.089	0.7439	0.7864	-0.009
Mof_C 	C 	0.0331	0.7494	0.692	0.066
Mof_H 	H 	0.0217	0.7103	0.6694	-0.002
Mof_C 	C 	0.0244	0.8411	0.6875	-0.119
Mof_H 	H 	0.0074	0.8644	0.6625	0.086
Mof_C 	C 	0.9745	0.1702	0.6592	0.06
Mof_C 	C 	0.945	0.1235	0.6324	-0.125
Mof_H 	H 	0.9451	0.0603	0.6325	0.1
Mof_C 	C 	0.9147	0.1708	0.6048	0.082
Mof_H 	H 	0.8941	0.1384	0.5871	0.017
Mof_C 	C 	0.9439	0.3102	0.6285	0.072
Mof_H 	H 	0.9438	0.3732	0.6264	0.007
Mof_C 	C 	0.9739	0.2675	0.6578	-0.126
Mof_H 	H 	0.9935	0.3012	0.6763	0.108
Mof_C 	C 	0.8023	0.2489	0.5952	0.1
Mof_H 	H 	0.8104	0.2925	0.6168	-0.012
Mof_C 	C 	0.7727	0.1926	0.5985	-0.136
Mof_H 	H 	0.7605	0.1985	0.6218	0.098
Mof_C 	C 	0.7605	0.1266	0.5676	0.063
Mof_C 	C 	0.777	0.124	0.5295	-0.11
Mof_H 	H 	0.7674	0.0846	0.5063	0.082
Mof_C 	C 	0.8079	0.1836	0.5294	0.065
Mof_H 	H 	0.8205	0.1819	0.5062	0.011
Mof_C 	C 	0.7259	0.0631	0.5667	0.108
Mof_C 	C 	0.6889	0.9409	0.5401	0.103
Mof_C 	C 	0.675	0.0243	0.5951	0.125
Mof_C 	C 	0.6487	0.0393	0.6257	0.069
Mof_C 	C 	0.6078	0.0322	0.6097	-0.12
Mof_H 	H 	0.5973	0.0134	0.5811	0.101
Mof_C 	C 	0.5829	0.0537	0.6376	0.081
Mof_H 	H 	0.5556	0.051	0.6271	-0.009
Mof_C 	C 	0.6366	0.0845	0.6952	0.064
Mof_H 	H 	0.6462	0.1015	0.7242	0.008
Mof_C 	C 	0.6623	0.0657	0.6686	-0.116
Mof_H 	H 	0.6894	0.071	0.6799	0.092
Mof_C 	C 	0.6824	0.8623	0.512	0.054
Mof_C 	C 	0.7102	0.8331	0.4903	-0.111
Mof_H 	H 	0.734	0.8643	0.4934	0.078
Mof_C 	C 	0.7026	0.7556	0.4632	0.077
Mof_H 	H 	0.7221	0.7353	0.4496	-0.001
Mof_C 	C 	0.6396	0.7401	0.4756	0.054
Mof_H 	H 	0.6153	0.7104	0.4695	0.003
Mof_C 	C 	0.646	0.8172	0.5052	-0.098
Mof_H 	H 	0.6265	0.836	0.5193	0.083
Mof_C 	C 	0.6299	0.7719	0.3521	0.076
Mof_H 	H 	0.65	0.8013	0.3721	0.013
Mof_C 	C 	0.6076	0.8222	0.3177	-0.114
Mof_H 	H 	0.6117	0.8844	0.3158	0.105
Mof_C 	C 	0.5787	0.7781	0.2859	0.059
Mof_C 	C 	0.5727	0.6856	0.2916	-0.123
Mof_H 	H 	0.5535	0.6539	0.2715	0.078
Mof_C 	C 	0.5953	0.6422	0.3271	0.069
Mof_H 	H 	0.5908	0.5805	0.3303	0.004
Mof_C 	C 	0.5546	0.8269	0.2497	0.102
Mof_C 	C 	0.5387	0.9592	0.2128	0.099
Mof_C 	C 	0.5019	0.8326	0.1907	0.079
Mof_C 	C 	0.5444	0.0568	0.2089	0.064
Mof_C 	C 	0.5769	0.0977	0.2359	-0.125
Mof_H 	H 	0.5959	0.0624	0.2544	0.093
Mof_C 	C 	0.581	0.1924	0.2354	0.077
Mof_H 	H 	0.6039	0.2185	0.2521	-0.002
Mof_C 	C 	0.5216	0.2059	0.1851	0.068
Mof_H 	H 	0.5026	0.2427	0.1676	-0.002
Mof_C 	C 	0.5167	0.1142	0.1831	-0.127
Mof_H 	H 	0.4945	0.0896	0.1642	0.088
Mof_C 	C 	0.4621	0.6948	0.1703	-0.116
Mof_H 	H 	0.4761	0.665	0.1952	0.094
Mof_C 	C 	0.4712	0.7849	0.1608	0.063
Mof_C 	C 	0.4492	0.8246	0.1231	-0.133
Mof_H 	H 	0.4542	0.8845	0.1167	0.112
Mof_C 	C 	0.42	0.777	0.095	0.107
Mof_H 	H 	0.407	0.8046	0.069	0.003
Mof_C 	C 	0.4315	0.6528	0.141	0.062
Mof_H 	H 	0.4252	0.5933	0.1467	0.019
Mof_C 	C 	0.312	0.7752	0.0303	0.067
Mof_H 	H 	0.3304	0.7867	0.0136	0.006
Mof_C 	C 	0.2806	0.8365	0.0274	-0.11
Mof_H 	H 	0.2765	0.8846	0.0077	0.081
Mof_C 	C 	0.2554	0.8204	0.0566	0.054
Mof_C 	C 	0.2585	0.7442	0.0811	-0.102
Mof_H 	H 	0.2403	0.7324	0.0979	0.086
Mof_C 	C 	0.2904	0.6809	0.0811	0.046
Mof_H 	H 	0.2931	0.6282	0.0979	0.011
Mof_C 	C 	0.2232	0.8884	0.0559	0.116
Mof_C 	C 	0.1909	0.0146	0.0303	0.106
Mof_C 	C 	0.1761	0.9448	0.0874	0.128
Mof_C 	C 	0.1868	0.0977	0.0027	0.071
Mof_C 	C 	0.213	0.1103	0.972	-0.149
Mof_H 	H 	0.2305	0.0654	0.9676	0.097
Mof_C 	C 	0.21	0.1885	0.9516	0.121
Mof_H 	H 	0.2302	0.2025	0.9378	-0.017
Mof_C 	C 	0.1557	0.2351	0.9736	0.076
Mof_H 	H 	0.1352	0.2766	0.972	-0.002
Mof_C 	C 	0.1585	0.1626	0.0011	-0.128
Mof_H 	H 	0.1408	0.1573	0.0191	0.092
Mof_C 	C 	0.1526	0.936	0.1208	0.069
Mof_C 	C 	0.1145	0.9699	0.1129	-0.132
Mof_H 	H 	0.1029	0.995	0.0858	0.098
Mof_C 	C 	0.094	0.9663	0.1451	0.096
Mof_H 	H 	0.0691	0.9931	0.1396	-0.008
Mof_C 	C 	0.1438	0.8881	0.1928	0.054
Mof_H 	H 	0.1533	0.8581	0.2192	0.002
Mof_C 	C 	0.1665	0.8951	0.1609	-0.108
Mof_H 	H 	0.1919	0.871	0.1673	0.089
Mof_N 	N 	0.1334	0.2852	0.8536	-0.276
Mof_N 	N 	0.0582	0.7134	0.7288	-0.262
Mof_N 	N 	0.9142	0.2612	0.6027	-0.262
Mof_N 	N 	0.027	0.1778	0.7251	-0.132
Mof_N 	N 	0.0618	0.0433	0.7526	-0.132
Mof_N 	N 	0.0092	0.0359	0.69	-0.136
Mof_N 	N 	0.8205	0.2452	0.5628	-0.263
Mof_N 	N 	0.5977	0.0776	0.6783	-0.267
Mof_N 	N 	0.669	0.7111	0.4566	-0.263
Mof_N 	N 	0.7059	0.0793	0.598	-0.129
Mof_N 	N 	0.7184	0.9982	0.537	-0.142
Mof_N 	N 	0.665	0.9549	0.5688	-0.128
Mof_N 	N 	0.624	0.6827	0.3581	-0.26
Mof_N 	N 	0.5539	0.246	0.2122	-0.268
Mof_N 	N 	0.4097	0.6949	0.1032	-0.262
Mof_N 	N 	0.5248	0.7842	0.2244	-0.141
Mof_N 	N 	0.5654	0.9144	0.2452	-0.126
Mof_N 	N 	0.5091	0.9212	0.1853	-0.137
Mof_N 	N 	0.3168	0.7011	0.0556	-0.257
Mof_N 	N 	0.1824	0.248	0.9483	-0.275
Mof_N 	N 	0.107	0.9276	0.183	-0.265
Mof_N 	N 	0.204	0.879	0.0894	-0.126
Mof_N 	N 	0.2161	0.9513	0.0262	-0.145
Mof_N 	N 	0.1689	0.0117	0.0618	-0.134
Mof_Zn	Zn	0.17281	0.34821	0.90159	1.194
Mof_Zn	Zn	0.86831	0.32805	0.56182	1.191
Mof_Zn	Zn	0.65529	0.61126	0.41081	1.194
Mof_Zn	Zn	0.55973	0.38616	0.21766	1.171
Mof_Zn	Zn	0.36632	0.62394	0.06011	1.192
Mof_Zn	Zn	0.07558	0.92282	0.23119	1.189
Mof_Br	Br	0.6105	0.398	0.2968	-0.647
Mof_Br	Br	0.5073	0.4662	0.2007	-0.061
_end
