data_functionalizedCrystal
_audit_creation_method	'EQeq! by Chris Wilmer'
_symmetry_space_group_name_H-M	'P1'
_symmetry_Int_Tables_number	1
_symmetry_cell_setting	triclinic
loop_
_symmetry_equiv_pos_as_xyz
  x,y,z
_cell_length_a	18.272
_cell_length_b	23.498
_cell_length_c	29.935
_cell_angle_alpha	90
_cell_angle_beta	90
_cell_angle_gamma	90
loop_
_atom_site_label
_atom_site_type_symbol
_atom_site_fract_x
_atom_site_fract_y
_atom_site_fract_z
_atom_site_charge
Mof_Cu	Cu	0.2607	0.1071	0.369	0.822
Mof_N 	N 	0.2713	0.025	0.3706	-0.266
Mof_C 	C 	0.252	0.9932	0.3355	0.059
Mof_C 	C 	0.2531	0.9351	0.3361	-0.128
Mof_C 	C 	0.2745	0.9065	0.3741	0.045
Mof_C 	C 	0.2954	0.9388	0.4105	-0.122
Mof_C 	C 	0.2938	0.9971	0.4072	0.06
Mof_N 	N 	0.3072	0.5912	0.4257	-0.262
Mof_C 	C 	0.3161	0.5361	0.4177	0.055
Mof_C 	C 	0.346	0.4988	0.4476	-0.128
Mof_C 	C 	0.3683	0.518	0.4889	0.043
Mof_C 	C 	0.3584	0.5755	0.4978	-0.127
Mof_C 	C 	0.3285	0.6099	0.4656	0.05
Mof_N 	N 	0.4618	0.4045	0.5846	-0.257
Mof_C 	C 	0.4695	0.3964	0.5409	0.076
Mof_C 	C 	0.4412	0.4318	0.5092	-0.128
Mof_C 	C 	0.4009	0.4795	0.5217	0.049
Mof_C 	C 	0.3927	0.4877	0.5676	-0.136
Mof_C 	C 	0.4228	0.4495	0.5972	0.06
Mof_H 	H 	0.2325	0.0112	0.3093	-0.031
Mof_H 	H 	0.244	0.9135	0.3094	0.06
Mof_H 	H 	0.3129	0.9214	0.4375	0.06
Mof_H 	H 	0.3088	0.0193	0.4325	-0.027
Mof_H 	H 	0.2994	0.5223	0.3892	-0.015
Mof_H 	H 	0.3538	0.4601	0.4386	0.063
Mof_H 	H 	0.3708	0.5909	0.5265	0.064
Mof_H 	H 	0.3262	0.6502	0.4706	-0.028
Mof_H 	H 	0.5012	0.3659	0.5318	-0.022
Mof_H 	H 	0.4464	0.4221	0.4782	0.067
Mof_H 	H 	0.3658	0.52	0.5784	0.068
Mof_H 	H 	0.4151	0.455	0.6287	-0.04
Mof_Cu	Cu	0.2607	0.6071	0.869	0.823
Mof_N 	N 	0.2713	0.525	0.8706	-0.265
Mof_C 	C 	0.252	0.4932	0.8355	0.062
Mof_C 	C 	0.2531	0.4351	0.8361	-0.128
Mof_C 	C 	0.2745	0.4065	0.8741	0.047
Mof_C 	C 	0.2954	0.4388	0.9105	-0.123
Mof_C 	C 	0.2938	0.4971	0.9072	0.063
Mof_N 	N 	0.3072	0.0912	0.9257	-0.262
Mof_C 	C 	0.3161	0.0361	0.9177	0.058
Mof_C 	C 	0.346	0.9988	0.9476	-0.13
Mof_C 	C 	0.3683	0.018	0.9889	0.046
Mof_C 	C 	0.3584	0.0755	0.9978	-0.127
Mof_C 	C 	0.3285	0.1099	0.9656	0.051
Mof_N 	N 	0.4618	0.9045	0.0846	-0.256
Mof_C 	C 	0.4695	0.8964	0.0409	0.076
Mof_C 	C 	0.4412	0.9318	0.0092	-0.126
Mof_C 	C 	0.4009	0.9795	0.0217	0.048
Mof_C 	C 	0.3927	0.9877	0.0676	-0.136
Mof_C 	C 	0.4228	0.9495	0.0972	0.06
Mof_H 	H 	0.2325	0.5112	0.8093	-0.032
Mof_H 	H 	0.244	0.4135	0.8094	0.061
Mof_H 	H 	0.3129	0.4214	0.9375	0.061
Mof_H 	H 	0.3088	0.5193	0.9325	-0.028
Mof_H 	H 	0.2994	0.0223	0.8892	-0.016
Mof_H 	H 	0.3538	0.9601	0.9386	0.064
Mof_H 	H 	0.3708	0.0909	0.0265	0.064
Mof_H 	H 	0.3262	0.1502	0.9706	-0.029
Mof_H 	H 	0.5012	0.8659	0.0318	-0.022
Mof_H 	H 	0.4464	0.9221	0.9782	0.066
Mof_H 	H 	0.3658	0.02	0.0784	0.068
Mof_H 	H 	0.4151	0.955	0.1287	-0.04
Mof_Cu	Cu	0.7607	0.1071	0.869	0.823
Mof_N 	N 	0.7713	0.025	0.8706	-0.266
Mof_C 	C 	0.752	0.9932	0.8355	0.064
Mof_C 	C 	0.7531	0.9351	0.8361	-0.129
Mof_C 	C 	0.7745	0.9065	0.8741	0.047
Mof_C 	C 	0.7954	0.9388	0.9105	-0.124
Mof_C 	C 	0.7938	0.9971	0.9072	0.064
Mof_N 	N 	0.8072	0.5912	0.9257	-0.262
Mof_C 	C 	0.8161	0.5361	0.9177	0.056
Mof_C 	C 	0.846	0.4988	0.9476	-0.127
Mof_C 	C 	0.8683	0.518	0.9889	0.045
Mof_C 	C 	0.8584	0.5755	0.9978	-0.127
Mof_C 	C 	0.8285	0.6099	0.9656	0.051
Mof_N 	N 	0.9618	0.4045	0.0846	-0.256
Mof_C 	C 	0.9695	0.3964	0.0409	0.077
Mof_C 	C 	0.9412	0.4318	0.0092	-0.127
Mof_C 	C 	0.9009	0.4795	0.0217	0.049
Mof_C 	C 	0.8927	0.4877	0.0676	-0.136
Mof_C 	C 	0.9228	0.4495	0.0972	0.06
Mof_H 	H 	0.7325	0.0112	0.8093	-0.033
Mof_H 	H 	0.744	0.9135	0.8094	0.061
Mof_H 	H 	0.8129	0.9214	0.9375	0.061
Mof_H 	H 	0.8088	0.0193	0.9325	-0.028
Mof_H 	H 	0.7994	0.5223	0.8892	-0.015
Mof_H 	H 	0.8538	0.4601	0.9386	0.063
Mof_H 	H 	0.8708	0.5909	0.0265	0.064
Mof_H 	H 	0.8262	0.6502	0.9706	-0.029
Mof_H 	H 	0.0012	0.3659	0.0318	-0.022
Mof_H 	H 	0.9464	0.4221	0.9782	0.066
Mof_H 	H 	0.8658	0.52	0.0784	0.068
Mof_H 	H 	0.9151	0.455	0.1287	-0.04
Mof_Cu	Cu	0.7607	0.6071	0.369	0.823
Mof_N 	N 	0.7713	0.525	0.3706	-0.265
Mof_C 	C 	0.752	0.4932	0.3355	0.062
Mof_C 	C 	0.7531	0.4351	0.3361	-0.128
Mof_C 	C 	0.7745	0.4065	0.3741	0.047
Mof_C 	C 	0.7954	0.4388	0.4105	-0.123
Mof_C 	C 	0.7938	0.4971	0.4072	0.063
Mof_N 	N 	0.8072	0.0912	0.4257	-0.261
Mof_C 	C 	0.8161	0.0361	0.4177	0.054
Mof_C 	C 	0.846	0.9988	0.4476	-0.123
Mof_C 	C 	0.8683	0.018	0.4889	0.041
Mof_C 	C 	0.8584	0.0755	0.4978	-0.124
Mof_C 	C 	0.8285	0.1099	0.4656	0.05
Mof_N 	N 	0.9618	0.9045	0.5846	-0.256
Mof_C 	C 	0.9695	0.8964	0.5409	0.079
Mof_C 	C 	0.9412	0.9318	0.5092	-0.129
Mof_C 	C 	0.9009	0.9795	0.5217	0.051
Mof_C 	C 	0.8927	0.9877	0.5676	-0.136
Mof_C 	C 	0.9228	0.9495	0.5972	0.06
Mof_H 	H 	0.7325	0.5112	0.3093	-0.032
Mof_H 	H 	0.744	0.4135	0.3094	0.061
Mof_H 	H 	0.8129	0.4214	0.4375	0.061
Mof_H 	H 	0.8088	0.5193	0.4325	-0.028
Mof_H 	H 	0.7994	0.0223	0.3892	-0.015
Mof_H 	H 	0.8538	0.9601	0.4386	0.062
Mof_H 	H 	0.8708	0.0909	0.5265	0.063
Mof_H 	H 	0.8262	0.1502	0.4706	-0.028
Mof_H 	H 	0.0012	0.8659	0.5318	-0.023
Mof_H 	H 	0.9464	0.9221	0.4782	0.067
Mof_H 	H 	0.8658	0.02	0.5784	0.067
Mof_H 	H 	0.9151	0.955	0.6287	-0.039
Mof_Cu	Cu	0.2607	0.6429	0.381	0.823
Mof_N 	N 	0.2713	0.725	0.3794	-0.266
Mof_C 	C 	0.252	0.7568	0.4145	0.062
Mof_C 	C 	0.2531	0.8149	0.4139	-0.129
Mof_C 	C 	0.2745	0.8435	0.3759	0.047
Mof_C 	C 	0.2954	0.8112	0.3395	-0.123
Mof_C 	C 	0.2938	0.7529	0.3428	0.063
Mof_N 	N 	0.3072	0.1588	0.3243	-0.261
Mof_C 	C 	0.3161	0.2139	0.3323	0.056
Mof_C 	C 	0.346	0.2512	0.3024	-0.127
Mof_C 	C 	0.3683	0.232	0.2611	0.044
Mof_C 	C 	0.3584	0.1745	0.2522	-0.126
Mof_C 	C 	0.3285	0.1401	0.2844	0.051
Mof_N 	N 	0.4618	0.3455	0.1654	-0.256
Mof_C 	C 	0.4695	0.3536	0.2091	0.077
Mof_C 	C 	0.4412	0.3182	0.2408	-0.127
Mof_C 	C 	0.4009	0.2705	0.2283	0.049
Mof_C 	C 	0.3927	0.2623	0.1824	-0.136
Mof_C 	C 	0.4228	0.3005	0.1528	0.06
Mof_H 	H 	0.2325	0.7388	0.4407	-0.032
Mof_H 	H 	0.244	0.8365	0.4406	0.061
Mof_H 	H 	0.3129	0.8286	0.3125	0.061
Mof_H 	H 	0.3088	0.7307	0.3175	-0.028
Mof_H 	H 	0.2994	0.2277	0.3608	-0.015
Mof_H 	H 	0.3538	0.2899	0.3114	0.063
Mof_H 	H 	0.3708	0.1591	0.2235	0.064
Mof_H 	H 	0.3262	0.0998	0.2794	-0.028
Mof_H 	H 	0.5012	0.3841	0.2182	-0.022
Mof_H 	H 	0.4464	0.3279	0.2718	0.067
Mof_H 	H 	0.3658	0.23	0.1716	0.068
Mof_H 	H 	0.4151	0.295	0.1213	-0.04
Mof_Cu	Cu	0.2607	0.1429	0.881	0.823
Mof_N 	N 	0.2713	0.225	0.8794	-0.265
Mof_C 	C 	0.252	0.2568	0.9145	0.062
Mof_C 	C 	0.2531	0.3149	0.9139	-0.128
Mof_C 	C 	0.2745	0.3435	0.8759	0.047
Mof_C 	C 	0.2954	0.3112	0.8395	-0.123
Mof_C 	C 	0.2938	0.2529	0.8428	0.063
Mof_N 	N 	0.3072	0.6588	0.8243	-0.261
Mof_C 	C 	0.3161	0.7139	0.8323	0.056
Mof_C 	C 	0.346	0.7512	0.8024	-0.127
Mof_C 	C 	0.3683	0.732	0.7611	0.044
Mof_C 	C 	0.3584	0.6745	0.7522	-0.126
Mof_C 	C 	0.3285	0.6401	0.7844	0.051
Mof_N 	N 	0.4618	0.8455	0.6654	-0.256
Mof_C 	C 	0.4695	0.8536	0.7091	0.077
Mof_C 	C 	0.4412	0.8182	0.7408	-0.127
Mof_C 	C 	0.4009	0.7705	0.7283	0.049
Mof_C 	C 	0.3927	0.7623	0.6824	-0.136
Mof_C 	C 	0.4228	0.8005	0.6528	0.06
Mof_H 	H 	0.2325	0.2388	0.9407	-0.032
Mof_H 	H 	0.244	0.3365	0.9406	0.061
Mof_H 	H 	0.3129	0.3286	0.8125	0.061
Mof_H 	H 	0.3088	0.2307	0.8175	-0.028
Mof_H 	H 	0.2994	0.7277	0.8608	-0.015
Mof_H 	H 	0.3538	0.7899	0.8114	0.063
Mof_H 	H 	0.3708	0.6591	0.7235	0.064
Mof_H 	H 	0.3262	0.5998	0.7794	-0.028
Mof_H 	H 	0.5012	0.8841	0.7182	-0.022
Mof_H 	H 	0.4464	0.8279	0.7718	0.067
Mof_H 	H 	0.3658	0.73	0.6716	0.068
Mof_H 	H 	0.4151	0.795	0.6213	-0.04
Mof_Cu	Cu	0.7607	0.6429	0.881	0.823
Mof_N 	N 	0.7713	0.725	0.8794	-0.265
Mof_C 	C 	0.752	0.7568	0.9145	0.062
Mof_C 	C 	0.7531	0.8149	0.9139	-0.128
Mof_C 	C 	0.7745	0.8435	0.8759	0.046
Mof_C 	C 	0.7954	0.8112	0.8395	-0.123
Mof_C 	C 	0.7938	0.7529	0.8428	0.063
Mof_N 	N 	0.8072	0.1588	0.8243	-0.261
Mof_C 	C 	0.8161	0.2139	0.8323	0.056
Mof_C 	C 	0.846	0.2512	0.8024	-0.127
Mof_C 	C 	0.8683	0.232	0.7611	0.045
Mof_C 	C 	0.8584	0.1745	0.7522	-0.126
Mof_C 	C 	0.8285	0.1401	0.7844	0.051
Mof_N 	N 	0.9618	0.3455	0.6654	-0.256
Mof_C 	C 	0.9695	0.3536	0.7091	0.076
Mof_C 	C 	0.9412	0.3182	0.7408	-0.127
Mof_C 	C 	0.9009	0.2705	0.7283	0.049
Mof_C 	C 	0.8927	0.2623	0.6824	-0.136
Mof_C 	C 	0.9228	0.3005	0.6528	0.06
Mof_H 	H 	0.7325	0.7388	0.9407	-0.032
Mof_H 	H 	0.744	0.8365	0.9406	0.06
Mof_H 	H 	0.8129	0.8286	0.8125	0.061
Mof_H 	H 	0.8088	0.7307	0.8175	-0.028
Mof_H 	H 	0.7994	0.2277	0.8608	-0.015
Mof_H 	H 	0.8538	0.2899	0.8114	0.063
Mof_H 	H 	0.8708	0.1591	0.7235	0.063
Mof_H 	H 	0.8262	0.0998	0.7794	-0.029
Mof_H 	H 	0.0012	0.3841	0.7182	-0.022
Mof_H 	H 	0.9464	0.3279	0.7718	0.066
Mof_H 	H 	0.8658	0.23	0.6716	0.068
Mof_H 	H 	0.9151	0.295	0.6213	-0.04
Mof_Cu	Cu	0.7607	0.1429	0.381	0.823
Mof_N 	N 	0.7713	0.225	0.3794	-0.265
Mof_C 	C 	0.752	0.2568	0.4145	0.062
Mof_C 	C 	0.7531	0.3149	0.4139	-0.128
Mof_C 	C 	0.7745	0.3435	0.3759	0.047
Mof_C 	C 	0.7954	0.3112	0.3395	-0.123
Mof_C 	C 	0.7938	0.2529	0.3428	0.063
Mof_N 	N 	0.8072	0.6588	0.3243	-0.261
Mof_C 	C 	0.8161	0.7139	0.3323	0.056
Mof_C 	C 	0.846	0.7512	0.3024	-0.126
Mof_C 	C 	0.8683	0.732	0.2611	0.044
Mof_C 	C 	0.8584	0.6745	0.2522	-0.126
Mof_C 	C 	0.8285	0.6401	0.2844	0.051
Mof_N 	N 	0.9618	0.8455	0.1654	-0.256
Mof_C 	C 	0.9695	0.8536	0.2091	0.079
Mof_C 	C 	0.9412	0.8182	0.2408	-0.129
Mof_C 	C 	0.9009	0.7705	0.2283	0.05
Mof_C 	C 	0.8927	0.7623	0.1824	-0.136
Mof_C 	C 	0.9228	0.8005	0.1528	0.061
Mof_H 	H 	0.7325	0.2388	0.4407	-0.032
Mof_H 	H 	0.744	0.3365	0.4406	0.061
Mof_H 	H 	0.8129	0.3286	0.3125	0.061
Mof_H 	H 	0.8088	0.2307	0.3175	-0.028
Mof_H 	H 	0.7994	0.7277	0.3608	-0.015
Mof_H 	H 	0.8538	0.7899	0.3114	0.063
Mof_H 	H 	0.8708	0.6591	0.2235	0.064
Mof_H 	H 	0.8262	0.5998	0.2794	-0.028
Mof_H 	H 	0.0012	0.8841	0.2182	-0.024
Mof_H 	H 	0.9464	0.8279	0.2718	0.067
Mof_H 	H 	0.8658	0.73	0.1716	0.068
Mof_H 	H 	0.9151	0.795	0.1213	-0.039
Mof_Cu	Cu	0.5107	0.3571	0.631	0.823
Mof_N 	N 	0.5213	0.275	0.6294	-0.265
Mof_C 	C 	0.502	0.2432	0.6645	0.062
Mof_C 	C 	0.5031	0.1851	0.6639	-0.128
Mof_C 	C 	0.5245	0.1565	0.6259	0.047
Mof_C 	C 	0.5454	0.1888	0.5895	-0.123
Mof_C 	C 	0.5438	0.2471	0.5928	0.063
Mof_N 	N 	0.5572	0.8412	0.5743	-0.261
Mof_C 	C 	0.5661	0.7861	0.5823	0.056
Mof_C 	C 	0.596	0.7488	0.5524	-0.127
Mof_C 	C 	0.6183	0.768	0.5111	0.044
Mof_C 	C 	0.6084	0.8255	0.5022	-0.126
Mof_C 	C 	0.5785	0.8599	0.5344	0.051
Mof_N 	N 	0.7118	0.6545	0.4154	-0.256
Mof_C 	C 	0.7195	0.6464	0.4591	0.077
Mof_C 	C 	0.6912	0.6818	0.4908	-0.127
Mof_C 	C 	0.6509	0.7295	0.4783	0.049
Mof_C 	C 	0.6427	0.7377	0.4324	-0.136
Mof_C 	C 	0.6728	0.6995	0.4028	0.06
Mof_H 	H 	0.4825	0.2612	0.6907	-0.032
Mof_H 	H 	0.494	0.1635	0.6906	0.061
Mof_H 	H 	0.5629	0.1714	0.5625	0.061
Mof_H 	H 	0.5588	0.2693	0.5675	-0.028
Mof_H 	H 	0.5494	0.7723	0.6108	-0.015
Mof_H 	H 	0.6038	0.7101	0.5614	0.063
Mof_H 	H 	0.6208	0.8409	0.4735	0.064
Mof_H 	H 	0.5762	0.9002	0.5294	-0.029
Mof_H 	H 	0.7512	0.6159	0.4682	-0.022
Mof_H 	H 	0.6964	0.6721	0.5218	0.067
Mof_H 	H 	0.6158	0.77	0.4216	0.068
Mof_H 	H 	0.6651	0.705	0.3713	-0.04
Mof_Cu	Cu	0.5107	0.8571	0.131	0.823
Mof_N 	N 	0.5213	0.775	0.1294	-0.265
Mof_C 	C 	0.502	0.7432	0.1645	0.062
Mof_C 	C 	0.5031	0.6851	0.1639	-0.128
Mof_C 	C 	0.5245	0.6565	0.1259	0.047
Mof_C 	C 	0.5454	0.6888	0.0895	-0.123
Mof_C 	C 	0.5438	0.7471	0.0928	0.063
Mof_N 	N 	0.5572	0.3412	0.0743	-0.261
Mof_C 	C 	0.5661	0.2861	0.0823	0.056
Mof_C 	C 	0.596	0.2488	0.0524	-0.127
Mof_C 	C 	0.6183	0.268	0.0111	0.044
Mof_C 	C 	0.6084	0.3255	0.0022	-0.126
Mof_C 	C 	0.5785	0.3599	0.0344	0.051
Mof_N 	N 	0.7118	0.1545	0.9154	-0.256
Mof_C 	C 	0.7195	0.1464	0.9591	0.077
Mof_C 	C 	0.6912	0.1818	0.9908	-0.128
Mof_C 	C 	0.6509	0.2295	0.9783	0.049
Mof_C 	C 	0.6427	0.2377	0.9324	-0.136
Mof_C 	C 	0.6728	0.1995	0.9028	0.06
Mof_H 	H 	0.4825	0.7612	0.1907	-0.032
Mof_H 	H 	0.494	0.6635	0.1906	0.061
Mof_H 	H 	0.5629	0.6714	0.0625	0.061
Mof_H 	H 	0.5588	0.7693	0.0675	-0.028
Mof_H 	H 	0.5494	0.2723	0.1108	-0.015
Mof_H 	H 	0.6038	0.2101	0.0614	0.063
Mof_H 	H 	0.6208	0.3409	0.9735	0.064
Mof_H 	H 	0.5762	0.4002	0.0294	-0.029
Mof_H 	H 	0.7512	0.1159	0.9682	-0.022
Mof_H 	H 	0.6964	0.1721	0.0218	0.066
Mof_H 	H 	0.6158	0.27	0.9216	0.068
Mof_H 	H 	0.6651	0.205	0.8713	-0.04
Mof_Cu	Cu	0.0107	0.3571	0.131	0.823
Mof_N 	N 	0.0213	0.275	0.1294	-0.265
Mof_C 	C 	0.002	0.2432	0.1645	0.062
Mof_C 	C 	0.0031	0.1851	0.1639	-0.127
Mof_C 	C 	0.0245	0.1565	0.1259	0.046
Mof_C 	C 	0.0454	0.1888	0.0895	-0.123
Mof_C 	C 	0.0438	0.2471	0.0928	0.063
Mof_N 	N 	0.0572	0.8412	0.0743	-0.262
Mof_C 	C 	0.0661	0.7861	0.0823	0.056
Mof_C 	C 	0.096	0.7488	0.0524	-0.127
Mof_C 	C 	0.1183	0.768	0.0111	0.044
Mof_C 	C 	0.1084	0.8255	0.0022	-0.126
Mof_C 	C 	0.0785	0.8599	0.0344	0.051
Mof_N 	N 	0.2118	0.6545	0.9154	-0.256
Mof_C 	C 	0.2195	0.6464	0.9591	0.077
Mof_C 	C 	0.1912	0.6818	0.9908	-0.127
Mof_C 	C 	0.1509	0.7295	0.9783	0.049
Mof_C 	C 	0.1427	0.7377	0.9324	-0.136
Mof_C 	C 	0.1728	0.6995	0.9028	0.06
Mof_H 	H 	0.9825	0.2612	0.1907	-0.032
Mof_H 	H 	0.994	0.1635	0.1906	0.06
Mof_H 	H 	0.0629	0.1714	0.0625	0.061
Mof_H 	H 	0.0588	0.2693	0.0675	-0.028
Mof_H 	H 	0.0494	0.7723	0.1108	-0.016
Mof_H 	H 	0.1038	0.7101	0.0614	0.063
Mof_H 	H 	0.1208	0.8409	0.9735	0.064
Mof_H 	H 	0.0762	0.9002	0.0294	-0.029
Mof_H 	H 	0.2512	0.6159	0.9682	-0.022
Mof_H 	H 	0.1964	0.6721	0.0218	0.066
Mof_H 	H 	0.1158	0.77	0.9216	0.068
Mof_H 	H 	0.1651	0.705	0.8713	-0.04
Mof_Cu	Cu	0.0107	0.8571	0.631	0.823
Mof_N 	N 	0.0213	0.775	0.6294	-0.265
Mof_C 	C 	0.002	0.7432	0.6645	0.062
Mof_C 	C 	0.0031	0.6851	0.6639	-0.128
Mof_C 	C 	0.0245	0.6565	0.6259	0.047
Mof_C 	C 	0.0454	0.6888	0.5895	-0.123
Mof_C 	C 	0.0438	0.7471	0.5928	0.063
Mof_N 	N 	0.0572	0.3412	0.5743	-0.261
Mof_C 	C 	0.0661	0.2861	0.5823	0.057
Mof_C 	C 	0.096	0.2488	0.5524	-0.126
Mof_C 	C 	0.1183	0.268	0.5111	0.045
Mof_C 	C 	0.1084	0.3255	0.5022	-0.126
Mof_C 	C 	0.0785	0.3599	0.5344	0.051
Mof_N 	N 	0.2118	0.1545	0.4154	-0.256
Mof_C 	C 	0.2195	0.1464	0.4591	0.077
Mof_C 	C 	0.1912	0.1818	0.4908	-0.127
Mof_C 	C 	0.1509	0.2295	0.4783	0.049
Mof_C 	C 	0.1427	0.2377	0.4324	-0.136
Mof_C 	C 	0.1728	0.1995	0.4028	0.06
Mof_H 	H 	0.9825	0.7612	0.6907	-0.031
Mof_H 	H 	0.994	0.6635	0.6906	0.061
Mof_H 	H 	0.0629	0.6714	0.5625	0.061
Mof_H 	H 	0.0588	0.7693	0.5675	-0.028
Mof_H 	H 	0.0494	0.2723	0.6108	-0.015
Mof_H 	H 	0.1038	0.2101	0.5614	0.063
Mof_H 	H 	0.1208	0.3409	0.4735	0.064
Mof_H 	H 	0.0762	0.4002	0.5294	-0.028
Mof_H 	H 	0.2512	0.1159	0.4682	-0.022
Mof_H 	H 	0.1964	0.1721	0.5218	0.067
Mof_H 	H 	0.1158	0.27	0.4216	0.068
Mof_H 	H 	0.1651	0.205	0.3713	-0.039
Mof_Cu	Cu	0.5107	0.8929	0.619	0.823
Mof_N 	N 	0.5213	0.975	0.6206	-0.265
Mof_C 	C 	0.502	0.0068	0.5855	0.062
Mof_C 	C 	0.5031	0.0649	0.5861	-0.128
Mof_C 	C 	0.5245	0.0935	0.6241	0.047
Mof_C 	C 	0.5454	0.0612	0.6605	-0.123
Mof_C 	C 	0.5438	0.0029	0.6572	0.062
Mof_N 	N 	0.5572	0.4088	0.6757	-0.261
Mof_C 	C 	0.5661	0.4639	0.6677	0.056
Mof_C 	C 	0.596	0.5012	0.6976	-0.127
Mof_C 	C 	0.6183	0.482	0.7389	0.044
Mof_C 	C 	0.6084	0.4245	0.7478	-0.126
Mof_C 	C 	0.5785	0.3901	0.7156	0.051
Mof_N 	N 	0.7118	0.5955	0.8346	-0.256
Mof_C 	C 	0.7195	0.6036	0.7909	0.077
Mof_C 	C 	0.6912	0.5682	0.7592	-0.127
Mof_C 	C 	0.6509	0.5205	0.7717	0.049
Mof_C 	C 	0.6427	0.5123	0.8176	-0.136
Mof_C 	C 	0.6728	0.5505	0.8472	0.06
Mof_H 	H 	0.4825	0.9888	0.5593	-0.032
Mof_H 	H 	0.494	0.0865	0.5594	0.061
Mof_H 	H 	0.5629	0.0786	0.6875	0.061
Mof_H 	H 	0.5588	0.9807	0.6825	-0.027
Mof_H 	H 	0.5494	0.4777	0.6392	-0.015
Mof_H 	H 	0.6038	0.5399	0.6886	0.063
Mof_H 	H 	0.6208	0.4091	0.7765	0.064
Mof_H 	H 	0.5762	0.3498	0.7206	-0.028
Mof_H 	H 	0.7512	0.6341	0.7818	-0.022
Mof_H 	H 	0.6964	0.5779	0.7282	0.067
Mof_H 	H 	0.6158	0.48	0.8284	0.068
Mof_H 	H 	0.6651	0.545	0.8787	-0.04
Mof_Cu	Cu	0.5107	0.3929	0.119	0.823
Mof_N 	N 	0.5213	0.475	0.1206	-0.265
Mof_C 	C 	0.502	0.5068	0.0855	0.062
Mof_C 	C 	0.5031	0.5649	0.0861	-0.128
Mof_C 	C 	0.5245	0.5935	0.1241	0.047
Mof_C 	C 	0.5454	0.5612	0.1605	-0.123
Mof_C 	C 	0.5438	0.5029	0.1572	0.063
Mof_N 	N 	0.5572	0.9088	0.1757	-0.262
Mof_C 	C 	0.5661	0.9639	0.1677	0.058
Mof_C 	C 	0.596	0.0012	0.1976	-0.129
Mof_C 	C 	0.6183	0.982	0.2389	0.046
Mof_C 	C 	0.6084	0.9245	0.2478	-0.127
Mof_C 	C 	0.5785	0.8901	0.2156	0.051
Mof_N 	N 	0.7118	0.0955	0.3346	-0.256
Mof_C 	C 	0.7195	0.1036	0.2909	0.077
Mof_C 	C 	0.6912	0.0682	0.2592	-0.127
Mof_C 	C 	0.6509	0.0205	0.2717	0.048
Mof_C 	C 	0.6427	0.0123	0.3176	-0.136
Mof_C 	C 	0.6728	0.0505	0.3472	0.06
Mof_H 	H 	0.4825	0.4888	0.0593	-0.032
Mof_H 	H 	0.494	0.5865	0.0594	0.061
Mof_H 	H 	0.5629	0.5786	0.1875	0.061
Mof_H 	H 	0.5588	0.4807	0.1825	-0.028
Mof_H 	H 	0.5494	0.9777	0.1392	-0.016
Mof_H 	H 	0.6038	0.0399	0.1886	0.063
Mof_H 	H 	0.6208	0.9091	0.2765	0.064
Mof_H 	H 	0.5762	0.8498	0.2206	-0.029
Mof_H 	H 	0.7512	0.1341	0.2818	-0.022
Mof_H 	H 	0.6964	0.0779	0.2282	0.066
Mof_H 	H 	0.6158	0.98	0.3284	0.068
Mof_H 	H 	0.6651	0.045	0.3787	-0.04
Mof_Cu	Cu	0.0107	0.8929	0.119	0.823
Mof_N 	N 	0.0213	0.975	0.1206	-0.267
Mof_C 	C 	0.002	0.0068	0.0855	0.062
Mof_C 	C 	0.0031	0.0649	0.0861	-0.127
Mof_C 	C 	0.0245	0.0935	0.1241	0.047
Mof_C 	C 	0.0454	0.0612	0.1605	-0.124
Mof_C 	C 	0.0438	0.0029	0.1572	0.065
Mof_N 	N 	0.0572	0.4088	0.1757	-0.261
Mof_C 	C 	0.0661	0.4639	0.1677	0.056
Mof_C 	C 	0.096	0.5012	0.1976	-0.127
Mof_C 	C 	0.1183	0.482	0.2389	0.044
Mof_C 	C 	0.1084	0.4245	0.2478	-0.126
Mof_C 	C 	0.0785	0.3901	0.2156	0.051
Mof_N 	N 	0.2118	0.5955	0.3346	-0.256
Mof_C 	C 	0.2195	0.6036	0.2909	0.077
Mof_C 	C 	0.1912	0.5682	0.2592	-0.127
Mof_C 	C 	0.1509	0.5205	0.2717	0.049
Mof_C 	C 	0.1427	0.5123	0.3176	-0.136
Mof_C 	C 	0.1728	0.5505	0.3472	0.06
Mof_H 	H 	0.9825	0.9888	0.0593	-0.031
Mof_H 	H 	0.994	0.0865	0.0594	0.06
Mof_H 	H 	0.0629	0.0786	0.1875	0.061
Mof_H 	H 	0.0588	0.9807	0.1825	-0.029
Mof_H 	H 	0.0494	0.4777	0.1392	-0.015
Mof_H 	H 	0.1038	0.5399	0.1886	0.063
Mof_H 	H 	0.1208	0.4091	0.2765	0.064
Mof_H 	H 	0.0762	0.3498	0.2206	-0.028
Mof_H 	H 	0.2512	0.6341	0.2818	-0.022
Mof_H 	H 	0.1964	0.5779	0.2282	0.067
Mof_H 	H 	0.1158	0.48	0.3284	0.068
Mof_H 	H 	0.1651	0.545	0.3787	-0.04
Mof_Cu	Cu	0.0107	0.3929	0.619	0.824
Mof_N 	N 	0.0213	0.475	0.6206	-0.265
Mof_C 	C 	0.002	0.5068	0.5855	0.063
Mof_C 	C 	0.0031	0.5649	0.5861	-0.129
Mof_C 	C 	0.0245	0.5935	0.6241	0.047
Mof_C 	C 	0.0454	0.5612	0.6605	-0.123
Mof_C 	C 	0.0438	0.5029	0.6572	0.063
Mof_N 	N 	0.0572	0.9088	0.6757	-0.261
Mof_C 	C 	0.0661	0.9639	0.6677	0.053
Mof_C 	C 	0.096	0.0012	0.6976	-0.122
Mof_C 	C 	0.1183	0.982	0.7389	0.041
Mof_C 	C 	0.1084	0.9245	0.7478	-0.124
Mof_C 	C 	0.0785	0.8901	0.7156	0.05
Mof_N 	N 	0.2118	0.0955	0.8346	-0.256
Mof_C 	C 	0.2195	0.1036	0.7909	0.077
Mof_C 	C 	0.1912	0.0682	0.7592	-0.128
Mof_C 	C 	0.1509	0.0205	0.7717	0.051
Mof_C 	C 	0.1427	0.0123	0.8176	-0.135
Mof_C 	C 	0.1728	0.0505	0.8472	0.06
Mof_H 	H 	0.9825	0.4888	0.5593	-0.032
Mof_H 	H 	0.994	0.5865	0.5594	0.061
Mof_H 	H 	0.0629	0.5786	0.6875	0.061
Mof_H 	H 	0.0588	0.4807	0.6825	-0.028
Mof_H 	H 	0.0494	0.9777	0.6392	-0.015
Mof_H 	H 	0.1038	0.0399	0.6886	0.062
Mof_H 	H 	0.1208	0.9091	0.7765	0.063
Mof_H 	H 	0.0762	0.8498	0.7206	-0.028
Mof_H 	H 	0.2512	0.1341	0.7818	-0.022
Mof_H 	H 	0.1964	0.0779	0.7282	0.067
Mof_H 	H 	0.1158	0.98	0.8284	0.067
Mof_H 	H 	0.1651	0.045	0.8787	-0.039
Mof_Cu	Cu	0.4893	0.6429	0.369	0.823
Mof_N 	N 	0.4787	0.725	0.3706	-0.265
Mof_C 	C 	0.498	0.7568	0.3355	0.062
Mof_C 	C 	0.4969	0.8149	0.3361	-0.128
Mof_C 	C 	0.4755	0.8435	0.3741	0.047
Mof_C 	C 	0.4546	0.8112	0.4105	-0.123
Mof_C 	C 	0.4562	0.7529	0.4072	0.063
Mof_N 	N 	0.4428	0.1588	0.4257	-0.261
Mof_C 	C 	0.4339	0.2139	0.4177	0.056
Mof_C 	C 	0.404	0.2512	0.4476	-0.127
Mof_C 	C 	0.3817	0.232	0.4889	0.044
Mof_C 	C 	0.3916	0.1745	0.4978	-0.126
Mof_C 	C 	0.4215	0.1401	0.4656	0.051
Mof_N 	N 	0.2882	0.3455	0.5846	-0.256
Mof_C 	C 	0.2805	0.3536	0.5409	0.077
Mof_C 	C 	0.3088	0.3182	0.5092	-0.127
Mof_C 	C 	0.3491	0.2705	0.5217	0.049
Mof_C 	C 	0.3573	0.2623	0.5676	-0.136
Mof_C 	C 	0.3272	0.3005	0.5972	0.06
Mof_H 	H 	0.5175	0.7388	0.3093	-0.032
Mof_H 	H 	0.506	0.8365	0.3094	0.061
Mof_H 	H 	0.4371	0.8286	0.4375	0.061
Mof_H 	H 	0.4412	0.7307	0.4325	-0.028
Mof_H 	H 	0.4506	0.2277	0.3892	-0.015
Mof_H 	H 	0.3962	0.2899	0.4386	0.063
Mof_H 	H 	0.3792	0.1591	0.5265	0.064
Mof_H 	H 	0.4238	0.0998	0.4706	-0.029
Mof_H 	H 	0.2488	0.3841	0.5318	-0.022
Mof_H 	H 	0.3036	0.3279	0.4782	0.067
Mof_H 	H 	0.3842	0.23	0.5784	0.068
Mof_H 	H 	0.3349	0.295	0.6287	-0.04
Mof_Cu	Cu	0.4893	0.1429	0.869	0.823
Mof_N 	N 	0.4787	0.225	0.8706	-0.265
Mof_C 	C 	0.498	0.2568	0.8355	0.062
Mof_C 	C 	0.4969	0.3149	0.8361	-0.128
Mof_C 	C 	0.4755	0.3435	0.8741	0.047
Mof_C 	C 	0.4546	0.3112	0.9105	-0.123
Mof_C 	C 	0.4562	0.2529	0.9072	0.063
Mof_N 	N 	0.4428	0.6588	0.9257	-0.261
Mof_C 	C 	0.4339	0.7139	0.9177	0.056
Mof_C 	C 	0.404	0.7512	0.9476	-0.127
Mof_C 	C 	0.3817	0.732	0.9889	0.044
Mof_C 	C 	0.3916	0.6745	0.9978	-0.126
Mof_C 	C 	0.4215	0.6401	0.9656	0.051
Mof_N 	N 	0.2882	0.8455	0.0846	-0.256
Mof_C 	C 	0.2805	0.8536	0.0409	0.077
Mof_C 	C 	0.3088	0.8182	0.0092	-0.128
Mof_C 	C 	0.3491	0.7705	0.0217	0.049
Mof_C 	C 	0.3573	0.7623	0.0676	-0.136
Mof_C 	C 	0.3272	0.8005	0.0972	0.06
Mof_H 	H 	0.5175	0.2388	0.8093	-0.032
Mof_H 	H 	0.506	0.3365	0.8094	0.061
Mof_H 	H 	0.4371	0.3286	0.9375	0.061
Mof_H 	H 	0.4412	0.2307	0.9325	-0.028
Mof_H 	H 	0.4506	0.7277	0.8892	-0.015
Mof_H 	H 	0.3962	0.7899	0.9386	0.063
Mof_H 	H 	0.3792	0.6591	0.0265	0.064
Mof_H 	H 	0.4238	0.5998	0.9706	-0.029
Mof_H 	H 	0.2488	0.8841	0.0318	-0.022
Mof_H 	H 	0.3036	0.8279	0.9782	0.066
Mof_H 	H 	0.3842	0.73	0.0784	0.068
Mof_H 	H 	0.3349	0.795	0.1287	-0.04
Mof_Cu	Cu	0.9893	0.6429	0.869	0.823
Mof_N 	N 	0.9787	0.725	0.8706	-0.265
Mof_C 	C 	0.998	0.7568	0.8355	0.062
Mof_C 	C 	0.9969	0.8149	0.8361	-0.127
Mof_C 	C 	0.9755	0.8435	0.8741	0.046
Mof_C 	C 	0.9546	0.8112	0.9105	-0.123
Mof_C 	C 	0.9562	0.7529	0.9072	0.063
Mof_N 	N 	0.9428	0.1588	0.9257	-0.262
Mof_C 	C 	0.9339	0.2139	0.9177	0.056
Mof_C 	C 	0.904	0.2512	0.9476	-0.127
Mof_C 	C 	0.8817	0.232	0.9889	0.044
Mof_C 	C 	0.8916	0.1745	0.9978	-0.126
Mof_C 	C 	0.9215	0.1401	0.9656	0.051
Mof_N 	N 	0.7882	0.3455	0.0846	-0.256
Mof_C 	C 	0.7805	0.3536	0.0409	0.077
Mof_C 	C 	0.8088	0.3182	0.0092	-0.127
Mof_C 	C 	0.8491	0.2705	0.0217	0.049
Mof_C 	C 	0.8573	0.2623	0.0676	-0.136
Mof_C 	C 	0.8272	0.3005	0.0972	0.06
Mof_H 	H 	0.0175	0.7388	0.8093	-0.032
Mof_H 	H 	0.006	0.8365	0.8094	0.06
Mof_H 	H 	0.9371	0.8286	0.9375	0.061
Mof_H 	H 	0.9412	0.7307	0.9325	-0.028
Mof_H 	H 	0.9506	0.2277	0.8892	-0.016
Mof_H 	H 	0.8962	0.2899	0.9386	0.063
Mof_H 	H 	0.8792	0.1591	0.0265	0.064
Mof_H 	H 	0.9238	0.0998	0.9706	-0.029
Mof_H 	H 	0.7488	0.3841	0.0318	-0.022
Mof_H 	H 	0.8036	0.3279	0.9782	0.066
Mof_H 	H 	0.8842	0.23	0.0784	0.068
Mof_H 	H 	0.8349	0.295	0.1287	-0.04
Mof_Cu	Cu	0.9893	0.1429	0.369	0.823
Mof_N 	N 	0.9787	0.225	0.3706	-0.265
Mof_C 	C 	0.998	0.2568	0.3355	0.062
Mof_C 	C 	0.9969	0.3149	0.3361	-0.128
Mof_C 	C 	0.9755	0.3435	0.3741	0.047
Mof_C 	C 	0.9546	0.3112	0.4105	-0.123
Mof_C 	C 	0.9562	0.2529	0.4072	0.063
Mof_N 	N 	0.9428	0.6588	0.4257	-0.261
Mof_C 	C 	0.9339	0.7139	0.4177	0.057
Mof_C 	C 	0.904	0.7512	0.4476	-0.126
Mof_C 	C 	0.8817	0.732	0.4889	0.045
Mof_C 	C 	0.8916	0.6745	0.4978	-0.126
Mof_C 	C 	0.9215	0.6401	0.4656	0.051
Mof_N 	N 	0.7882	0.8455	0.5846	-0.256
Mof_C 	C 	0.7805	0.8536	0.5409	0.077
Mof_C 	C 	0.8088	0.8182	0.5092	-0.127
Mof_C 	C 	0.8491	0.7705	0.5217	0.049
Mof_C 	C 	0.8573	0.7623	0.5676	-0.136
Mof_C 	C 	0.8272	0.8005	0.5972	0.06
Mof_H 	H 	0.0175	0.2388	0.3093	-0.031
Mof_H 	H 	0.006	0.3365	0.3094	0.061
Mof_H 	H 	0.9371	0.3286	0.4375	0.061
Mof_H 	H 	0.9412	0.2307	0.4325	-0.028
Mof_H 	H 	0.9506	0.7277	0.3892	-0.015
Mof_H 	H 	0.8962	0.7899	0.4386	0.063
Mof_H 	H 	0.8792	0.6591	0.5265	0.064
Mof_H 	H 	0.9238	0.5998	0.4706	-0.028
Mof_H 	H 	0.7488	0.8841	0.5318	-0.022
Mof_H 	H 	0.8036	0.8279	0.4782	0.067
Mof_H 	H 	0.8842	0.73	0.5784	0.068
Mof_H 	H 	0.8349	0.795	0.6287	-0.039
Mof_Cu	Cu	0.4893	0.1071	0.381	0.823
Mof_N 	N 	0.4787	0.025	0.3794	-0.265
Mof_C 	C 	0.498	0.9932	0.4145	0.062
Mof_C 	C 	0.4969	0.9351	0.4139	-0.128
Mof_C 	C 	0.4755	0.9065	0.3759	0.047
Mof_C 	C 	0.4546	0.9388	0.3395	-0.123
Mof_C 	C 	0.4562	0.9971	0.3428	0.062
Mof_N 	N 	0.4428	0.5912	0.3243	-0.261
Mof_C 	C 	0.4339	0.5361	0.3323	0.056
Mof_C 	C 	0.404	0.4988	0.3024	-0.127
Mof_C 	C 	0.3817	0.518	0.2611	0.044
Mof_C 	C 	0.3916	0.5755	0.2522	-0.126
Mof_C 	C 	0.4215	0.6099	0.2844	0.051
Mof_N 	N 	0.2882	0.4045	0.1654	-0.256
Mof_C 	C 	0.2805	0.3964	0.2091	0.077
Mof_C 	C 	0.3088	0.4318	0.2408	-0.127
Mof_C 	C 	0.3491	0.4795	0.2283	0.049
Mof_C 	C 	0.3573	0.4877	0.1824	-0.136
Mof_C 	C 	0.3272	0.4495	0.1528	0.06
Mof_H 	H 	0.5175	0.0112	0.4407	-0.032
Mof_H 	H 	0.506	0.9135	0.4406	0.061
Mof_H 	H 	0.4371	0.9214	0.3125	0.061
Mof_H 	H 	0.4412	0.0193	0.3175	-0.027
Mof_H 	H 	0.4506	0.5223	0.3608	-0.015
Mof_H 	H 	0.3962	0.4601	0.3114	0.063
Mof_H 	H 	0.3792	0.5909	0.2235	0.064
Mof_H 	H 	0.4238	0.6502	0.2794	-0.028
Mof_H 	H 	0.2488	0.3659	0.2182	-0.022
Mof_H 	H 	0.3036	0.4221	0.2718	0.067
Mof_H 	H 	0.3842	0.52	0.1716	0.068
Mof_H 	H 	0.3349	0.455	0.1213	-0.04
Mof_Cu	Cu	0.4893	0.6071	0.881	0.823
Mof_N 	N 	0.4787	0.525	0.8794	-0.265
Mof_C 	C 	0.498	0.4932	0.9145	0.062
Mof_C 	C 	0.4969	0.4351	0.9139	-0.128
Mof_C 	C 	0.4755	0.4065	0.8759	0.047
Mof_C 	C 	0.4546	0.4388	0.8395	-0.123
Mof_C 	C 	0.4562	0.4971	0.8428	0.063
Mof_N 	N 	0.4428	0.0912	0.8243	-0.262
Mof_C 	C 	0.4339	0.0361	0.8323	0.058
Mof_C 	C 	0.404	0.9988	0.8024	-0.129
Mof_C 	C 	0.3817	0.018	0.7611	0.046
Mof_C 	C 	0.3916	0.0755	0.7522	-0.127
Mof_C 	C 	0.4215	0.1099	0.7844	0.051
Mof_N 	N 	0.2882	0.9045	0.6654	-0.256
Mof_C 	C 	0.2805	0.8964	0.7091	0.077
Mof_C 	C 	0.3088	0.9318	0.7408	-0.127
Mof_C 	C 	0.3491	0.9795	0.7283	0.048
Mof_C 	C 	0.3573	0.9877	0.6824	-0.136
Mof_C 	C 	0.3272	0.9495	0.6528	0.06
Mof_H 	H 	0.5175	0.5112	0.9407	-0.032
Mof_H 	H 	0.506	0.4135	0.9406	0.061
Mof_H 	H 	0.4371	0.4214	0.8125	0.061
Mof_H 	H 	0.4412	0.5193	0.8175	-0.028
Mof_H 	H 	0.4506	0.0223	0.8608	-0.016
Mof_H 	H 	0.3962	0.9601	0.8114	0.063
Mof_H 	H 	0.3792	0.0909	0.7235	0.064
Mof_H 	H 	0.4238	0.1502	0.7794	-0.029
Mof_H 	H 	0.2488	0.8659	0.7182	-0.022
Mof_H 	H 	0.3036	0.9221	0.7718	0.066
Mof_H 	H 	0.3842	0.02	0.6716	0.068
Mof_H 	H 	0.3349	0.955	0.6213	-0.04
Mof_Cu	Cu	0.9893	0.1071	0.881	0.823
Mof_N 	N 	0.9787	0.025	0.8794	-0.267
Mof_C 	C 	0.998	0.9932	0.9145	0.062
Mof_C 	C 	0.9969	0.9351	0.9139	-0.127
Mof_C 	C 	0.9755	0.9065	0.8759	0.047
Mof_C 	C 	0.9546	0.9388	0.8395	-0.124
Mof_C 	C 	0.9562	0.9971	0.8428	0.065
Mof_N 	N 	0.9428	0.5912	0.8243	-0.261
Mof_C 	C 	0.9339	0.5361	0.8323	0.056
Mof_C 	C 	0.904	0.4988	0.8024	-0.127
Mof_C 	C 	0.8817	0.518	0.7611	0.044
Mof_C 	C 	0.8916	0.5755	0.7522	-0.126
Mof_C 	C 	0.9215	0.6099	0.7844	0.051
Mof_N 	N 	0.7882	0.4045	0.6654	-0.256
Mof_C 	C 	0.7805	0.3964	0.7091	0.077
Mof_C 	C 	0.8088	0.4318	0.7408	-0.127
Mof_C 	C 	0.8491	0.4795	0.7283	0.049
Mof_C 	C 	0.8573	0.4877	0.6824	-0.136
Mof_C 	C 	0.8272	0.4495	0.6528	0.06
Mof_H 	H 	0.0175	0.0112	0.9407	-0.031
Mof_H 	H 	0.006	0.9135	0.9406	0.06
Mof_H 	H 	0.9371	0.9214	0.8125	0.061
Mof_H 	H 	0.9412	0.0193	0.8175	-0.029
Mof_H 	H 	0.9506	0.5223	0.8608	-0.015
Mof_H 	H 	0.8962	0.4601	0.8114	0.063
Mof_H 	H 	0.8792	0.5909	0.7235	0.064
Mof_H 	H 	0.9238	0.6502	0.7794	-0.028
Mof_H 	H 	0.7488	0.3659	0.7182	-0.022
Mof_H 	H 	0.8036	0.4221	0.7718	0.067
Mof_H 	H 	0.8842	0.52	0.6716	0.068
Mof_H 	H 	0.8349	0.455	0.6213	-0.04
Mof_Cu	Cu	0.9893	0.6071	0.381	0.824
Mof_N 	N 	0.9787	0.525	0.3794	-0.265
Mof_C 	C 	0.998	0.4932	0.4145	0.063
Mof_C 	C 	0.9969	0.4351	0.4139	-0.129
Mof_C 	C 	0.9755	0.4065	0.3759	0.047
Mof_C 	C 	0.9546	0.4388	0.3395	-0.123
Mof_C 	C 	0.9562	0.4971	0.3428	0.063
Mof_N 	N 	0.9428	0.0912	0.3243	-0.261
Mof_C 	C 	0.9339	0.0361	0.3323	0.053
Mof_C 	C 	0.904	0.9988	0.3024	-0.122
Mof_C 	C 	0.8817	0.018	0.2611	0.041
Mof_C 	C 	0.8916	0.0755	0.2522	-0.124
Mof_C 	C 	0.9215	0.1099	0.2844	0.05
Mof_N 	N 	0.7882	0.9045	0.1654	-0.256
Mof_C 	C 	0.7805	0.8964	0.2091	0.077
Mof_C 	C 	0.8088	0.9318	0.2408	-0.128
Mof_C 	C 	0.8491	0.9795	0.2283	0.051
Mof_C 	C 	0.8573	0.9877	0.1824	-0.135
Mof_C 	C 	0.8272	0.9495	0.1528	0.06
Mof_H 	H 	0.0175	0.5112	0.4407	-0.032
Mof_H 	H 	0.006	0.4135	0.4406	0.061
Mof_H 	H 	0.9371	0.4214	0.3125	0.061
Mof_H 	H 	0.9412	0.5193	0.3175	-0.028
Mof_H 	H 	0.9506	0.0223	0.3608	-0.015
Mof_H 	H 	0.8962	0.9601	0.3114	0.062
Mof_H 	H 	0.8792	0.0909	0.2235	0.063
Mof_H 	H 	0.9238	0.1502	0.2794	-0.028
Mof_H 	H 	0.7488	0.8659	0.2182	-0.022
Mof_H 	H 	0.8036	0.9221	0.2718	0.067
Mof_H 	H 	0.8842	0.02	0.1716	0.067
Mof_H 	H 	0.8349	0.955	0.1213	-0.039
Mof_Cu	Cu	0.7393	0.8929	0.631	0.823
Mof_N 	N 	0.7287	0.975	0.6294	-0.265
Mof_C 	C 	0.748	0.0068	0.6645	0.06
Mof_C 	C 	0.7469	0.0649	0.6639	-0.127
Mof_C 	C 	0.7255	0.0935	0.6259	0.046
Mof_C 	C 	0.7046	0.0612	0.5895	-0.121
Mof_C 	C 	0.7062	0.0029	0.5928	0.061
Mof_N 	N 	0.6928	0.4088	0.5743	-0.261
Mof_C 	C 	0.6839	0.4639	0.5823	0.056
Mof_C 	C 	0.654	0.5012	0.5524	-0.127
Mof_C 	C 	0.6317	0.482	0.5111	0.044
Mof_C 	C 	0.6416	0.4245	0.5022	-0.126
Mof_C 	C 	0.6715	0.3901	0.5344	0.051
Mof_N 	N 	0.5382	0.5955	0.4154	-0.256
Mof_C 	C 	0.5305	0.6036	0.4591	0.077
Mof_C 	C 	0.5588	0.5682	0.4908	-0.127
Mof_C 	C 	0.5991	0.5205	0.4783	0.049
Mof_C 	C 	0.6073	0.5123	0.4324	-0.136
Mof_C 	C 	0.5772	0.5505	0.4028	0.06
Mof_H 	H 	0.7675	0.9888	0.6907	-0.031
Mof_H 	H 	0.756	0.0865	0.6906	0.06
Mof_H 	H 	0.6871	0.0786	0.5625	0.06
Mof_H 	H 	0.6912	0.9807	0.5675	-0.027
Mof_H 	H 	0.7006	0.4777	0.6108	-0.015
Mof_H 	H 	0.6462	0.5399	0.5614	0.063
Mof_H 	H 	0.6292	0.4091	0.4735	0.064
Mof_H 	H 	0.6738	0.3498	0.5294	-0.028
Mof_H 	H 	0.4988	0.6341	0.4682	-0.022
Mof_H 	H 	0.5536	0.5779	0.5218	0.067
Mof_H 	H 	0.6342	0.48	0.4216	0.068
Mof_H 	H 	0.5849	0.545	0.3713	-0.04
Mof_Cu	Cu	0.7393	0.3929	0.131	0.823
Mof_N 	N 	0.7287	0.475	0.1294	-0.265
Mof_C 	C 	0.748	0.5068	0.1645	0.062
Mof_C 	C 	0.7469	0.5649	0.1639	-0.128
Mof_C 	C 	0.7255	0.5935	0.1259	0.047
Mof_C 	C 	0.7046	0.5612	0.0895	-0.123
Mof_C 	C 	0.7062	0.5029	0.0928	0.063
Mof_N 	N 	0.6928	0.9088	0.0743	-0.262
Mof_C 	C 	0.6839	0.9639	0.0823	0.058
Mof_C 	C 	0.654	0.0012	0.0524	-0.13
Mof_C 	C 	0.6317	0.982	0.0111	0.046
Mof_C 	C 	0.6416	0.9245	0.0022	-0.127
Mof_C 	C 	0.6715	0.8901	0.0344	0.051
Mof_N 	N 	0.5382	0.0955	0.9154	-0.256
Mof_C 	C 	0.5305	0.1036	0.9591	0.076
Mof_C 	C 	0.5588	0.0682	0.9908	-0.126
Mof_C 	C 	0.5991	0.0205	0.9783	0.048
Mof_C 	C 	0.6073	0.0123	0.9324	-0.136
Mof_C 	C 	0.5772	0.0505	0.9028	0.06
Mof_H 	H 	0.7675	0.4888	0.1907	-0.032
Mof_H 	H 	0.756	0.5865	0.1906	0.061
Mof_H 	H 	0.6871	0.5786	0.0625	0.061
Mof_H 	H 	0.6912	0.4807	0.0675	-0.028
Mof_H 	H 	0.7006	0.9777	0.1108	-0.016
Mof_H 	H 	0.6462	0.0399	0.0614	0.064
Mof_H 	H 	0.6292	0.9091	0.9735	0.064
Mof_H 	H 	0.6738	0.8498	0.0294	-0.029
Mof_H 	H 	0.4988	0.1341	0.9682	-0.022
Mof_H 	H 	0.5536	0.0779	0.0218	0.066
Mof_H 	H 	0.6342	0.98	0.9216	0.068
Mof_H 	H 	0.5849	0.045	0.8713	-0.04
Mof_Cu	Cu	0.2393	0.8929	0.131	0.823
Mof_N 	N 	0.2287	0.975	0.1294	-0.266
Mof_C 	C 	0.248	0.0068	0.1645	0.064
Mof_C 	C 	0.2469	0.0649	0.1639	-0.129
Mof_C 	C 	0.2255	0.0935	0.1259	0.047
Mof_C 	C 	0.2046	0.0612	0.0895	-0.124
Mof_C 	C 	0.2062	0.0029	0.0928	0.064
Mof_N 	N 	0.1928	0.4088	0.0743	-0.262
Mof_C 	C 	0.1839	0.4639	0.0823	0.056
Mof_C 	C 	0.154	0.5012	0.0524	-0.127
Mof_C 	C 	0.1317	0.482	0.0111	0.045
Mof_C 	C 	0.1416	0.4245	0.0022	-0.127
Mof_C 	C 	0.1715	0.3901	0.0344	0.051
Mof_N 	N 	0.0382	0.5955	0.9154	-0.256
Mof_C 	C 	0.0305	0.6036	0.9591	0.077
Mof_C 	C 	0.0588	0.5682	0.9908	-0.127
Mof_C 	C 	0.0991	0.5205	0.9783	0.049
Mof_C 	C 	0.1073	0.5123	0.9324	-0.136
Mof_C 	C 	0.0772	0.5505	0.9028	0.06
Mof_H 	H 	0.2675	0.9888	0.1907	-0.033
Mof_H 	H 	0.256	0.0865	0.1906	0.061
Mof_H 	H 	0.1871	0.0786	0.0625	0.061
Mof_H 	H 	0.1912	0.9807	0.0675	-0.028
Mof_H 	H 	0.2006	0.4777	0.1108	-0.015
Mof_H 	H 	0.1462	0.5399	0.0614	0.063
Mof_H 	H 	0.1292	0.4091	0.9735	0.064
Mof_H 	H 	0.1738	0.3498	0.0294	-0.029
Mof_H 	H 	0.9988	0.6341	0.9682	-0.022
Mof_H 	H 	0.0536	0.5779	0.0218	0.066
Mof_H 	H 	0.1342	0.48	0.9216	0.068
Mof_H 	H 	0.0849	0.545	0.8713	-0.04
Mof_Cu	Cu	0.2393	0.3929	0.631	0.823
Mof_N 	N 	0.2287	0.475	0.6294	-0.265
Mof_C 	C 	0.248	0.5068	0.6645	0.062
Mof_C 	C 	0.2469	0.5649	0.6639	-0.128
Mof_C 	C 	0.2255	0.5935	0.6259	0.047
Mof_C 	C 	0.2046	0.5612	0.5895	-0.123
Mof_C 	C 	0.2062	0.5029	0.5928	0.063
Mof_N 	N 	0.1928	0.9088	0.5743	-0.261
Mof_C 	C 	0.1839	0.9639	0.5823	0.054
Mof_C 	C 	0.154	0.0012	0.5524	-0.123
Mof_C 	C 	0.1317	0.982	0.5111	0.041
Mof_C 	C 	0.1416	0.9245	0.5022	-0.124
Mof_C 	C 	0.1715	0.8901	0.5344	0.05
Mof_N 	N 	0.0382	0.0955	0.4154	-0.256
Mof_C 	C 	0.0305	0.1036	0.4591	0.079
Mof_C 	C 	0.0588	0.0682	0.4908	-0.129
Mof_C 	C 	0.0991	0.0205	0.4783	0.051
Mof_C 	C 	0.1073	0.0123	0.4324	-0.136
Mof_C 	C 	0.0772	0.0505	0.4028	0.06
Mof_H 	H 	0.2675	0.4888	0.6907	-0.032
Mof_H 	H 	0.256	0.5865	0.6906	0.061
Mof_H 	H 	0.1871	0.5786	0.5625	0.061
Mof_H 	H 	0.1912	0.4807	0.5675	-0.028
Mof_H 	H 	0.2006	0.9777	0.6108	-0.015
Mof_H 	H 	0.1462	0.0399	0.5614	0.062
Mof_H 	H 	0.1292	0.9091	0.4735	0.063
Mof_H 	H 	0.1738	0.8498	0.5294	-0.028
Mof_H 	H 	0.9988	0.1341	0.4682	-0.023
Mof_H 	H 	0.0536	0.0779	0.5218	0.067
Mof_H 	H 	0.1342	0.98	0.4216	0.067
Mof_H 	H 	0.0849	0.045	0.3713	-0.039
Mof_Cu	Cu	0.7393	0.3571	0.619	0.823
Mof_N 	N 	0.7287	0.275	0.6206	-0.266
Mof_C 	C 	0.748	0.2432	0.5855	0.062
Mof_C 	C 	0.7469	0.1851	0.5861	-0.129
Mof_C 	C 	0.7255	0.1565	0.6241	0.047
Mof_C 	C 	0.7046	0.1888	0.6605	-0.123
Mof_C 	C 	0.7062	0.2471	0.6572	0.063
Mof_N 	N 	0.6928	0.8412	0.6757	-0.261
Mof_C 	C 	0.6839	0.7861	0.6677	0.056
Mof_C 	C 	0.654	0.7488	0.6976	-0.127
Mof_C 	C 	0.6317	0.768	0.7389	0.044
Mof_C 	C 	0.6416	0.8255	0.7478	-0.126
Mof_C 	C 	0.6715	0.8599	0.7156	0.051
Mof_N 	N 	0.5382	0.6545	0.8346	-0.256
Mof_C 	C 	0.5305	0.6464	0.7909	0.077
Mof_C 	C 	0.5588	0.6818	0.7592	-0.127
Mof_C 	C 	0.5991	0.7295	0.7717	0.049
Mof_C 	C 	0.6073	0.7377	0.8176	-0.136
Mof_C 	C 	0.5772	0.6995	0.8472	0.06
Mof_H 	H 	0.7675	0.2612	0.5593	-0.032
Mof_H 	H 	0.756	0.1635	0.5594	0.061
Mof_H 	H 	0.6871	0.1714	0.6875	0.061
Mof_H 	H 	0.6912	0.2693	0.6825	-0.028
Mof_H 	H 	0.7006	0.7723	0.6392	-0.015
Mof_H 	H 	0.6462	0.7101	0.6886	0.063
Mof_H 	H 	0.6292	0.8409	0.7765	0.064
Mof_H 	H 	0.6738	0.9002	0.7206	-0.028
Mof_H 	H 	0.4988	0.6159	0.7818	-0.022
Mof_H 	H 	0.5536	0.6721	0.7282	0.067
Mof_H 	H 	0.6342	0.77	0.8284	0.068
Mof_H 	H 	0.5849	0.705	0.8787	-0.04
Mof_Cu	Cu	0.7393	0.8571	0.119	0.823
Mof_N 	N 	0.7287	0.775	0.1206	-0.265
Mof_C 	C 	0.748	0.7432	0.0855	0.062
Mof_C 	C 	0.7469	0.6851	0.0861	-0.128
Mof_C 	C 	0.7255	0.6565	0.1241	0.047
Mof_C 	C 	0.7046	0.6888	0.1605	-0.123
Mof_C 	C 	0.7062	0.7471	0.1572	0.063
Mof_N 	N 	0.6928	0.3412	0.1757	-0.261
Mof_C 	C 	0.6839	0.2861	0.1677	0.056
Mof_C 	C 	0.654	0.2488	0.1976	-0.127
Mof_C 	C 	0.6317	0.268	0.2389	0.044
Mof_C 	C 	0.6416	0.3255	0.2478	-0.126
Mof_C 	C 	0.6715	0.3599	0.2156	0.051
Mof_N 	N 	0.5382	0.1545	0.3346	-0.256
Mof_C 	C 	0.5305	0.1464	0.2909	0.077
Mof_C 	C 	0.5588	0.1818	0.2592	-0.127
Mof_C 	C 	0.5991	0.2295	0.2717	0.049
Mof_C 	C 	0.6073	0.2377	0.3176	-0.136
Mof_C 	C 	0.5772	0.1995	0.3472	0.06
Mof_H 	H 	0.7675	0.7612	0.0593	-0.032
Mof_H 	H 	0.756	0.6635	0.0594	0.061
Mof_H 	H 	0.6871	0.6714	0.1875	0.061
Mof_H 	H 	0.6912	0.7693	0.1825	-0.028
Mof_H 	H 	0.7006	0.2723	0.1392	-0.015
Mof_H 	H 	0.6462	0.2101	0.1886	0.063
Mof_H 	H 	0.6292	0.3409	0.2765	0.064
Mof_H 	H 	0.6738	0.4002	0.2206	-0.028
Mof_H 	H 	0.4988	0.1159	0.2818	-0.022
Mof_H 	H 	0.5536	0.1721	0.2282	0.067
Mof_H 	H 	0.6342	0.27	0.3284	0.068
Mof_H 	H 	0.5849	0.205	0.3787	-0.04
Mof_Cu	Cu	0.2393	0.3571	0.119	0.823
Mof_N 	N 	0.2287	0.275	0.1206	-0.265
Mof_C 	C 	0.248	0.2432	0.0855	0.062
Mof_C 	C 	0.2469	0.1851	0.0861	-0.128
Mof_C 	C 	0.2255	0.1565	0.1241	0.046
Mof_C 	C 	0.2046	0.1888	0.1605	-0.123
Mof_C 	C 	0.2062	0.2471	0.1572	0.063
Mof_N 	N 	0.1928	0.8412	0.1757	-0.261
Mof_C 	C 	0.1839	0.7861	0.1677	0.056
Mof_C 	C 	0.154	0.7488	0.1976	-0.127
Mof_C 	C 	0.1317	0.768	0.2389	0.045
Mof_C 	C 	0.1416	0.8255	0.2478	-0.126
Mof_C 	C 	0.1715	0.8599	0.2156	0.051
Mof_N 	N 	0.0382	0.6545	0.3346	-0.256
Mof_C 	C 	0.0305	0.6464	0.2909	0.076
Mof_C 	C 	0.0588	0.6818	0.2592	-0.127
Mof_C 	C 	0.0991	0.7295	0.2717	0.049
Mof_C 	C 	0.1073	0.7377	0.3176	-0.136
Mof_C 	C 	0.0772	0.6995	0.3472	0.06
Mof_H 	H 	0.2675	0.2612	0.0593	-0.032
Mof_H 	H 	0.256	0.1635	0.0594	0.06
Mof_H 	H 	0.1871	0.1714	0.1875	0.061
Mof_H 	H 	0.1912	0.2693	0.1825	-0.028
Mof_H 	H 	0.2006	0.7723	0.1392	-0.015
Mof_H 	H 	0.1462	0.7101	0.1886	0.063
Mof_H 	H 	0.1292	0.8409	0.2765	0.063
Mof_H 	H 	0.1738	0.9002	0.2206	-0.029
Mof_H 	H 	0.9988	0.6159	0.2818	-0.022
Mof_H 	H 	0.0536	0.6721	0.2282	0.066
Mof_H 	H 	0.1342	0.77	0.3284	0.068
Mof_H 	H 	0.0849	0.705	0.3787	-0.04
Mof_Cu	Cu	0.2393	0.8571	0.619	0.823
Mof_N 	N 	0.2287	0.775	0.6206	-0.265
Mof_C 	C 	0.248	0.7432	0.5855	0.062
Mof_C 	C 	0.2469	0.6851	0.5861	-0.128
Mof_C 	C 	0.2255	0.6565	0.6241	0.047
Mof_C 	C 	0.2046	0.6888	0.6605	-0.123
Mof_C 	C 	0.2062	0.7471	0.6572	0.063
Mof_N 	N 	0.1928	0.3412	0.6757	-0.261
Mof_C 	C 	0.1839	0.2861	0.6677	0.056
Mof_C 	C 	0.154	0.2488	0.6976	-0.126
Mof_C 	C 	0.1317	0.268	0.7389	0.044
Mof_C 	C 	0.1416	0.3255	0.7478	-0.126
Mof_C 	C 	0.1715	0.3599	0.7156	0.051
Mof_N 	N 	0.0382	0.1545	0.8346	-0.256
Mof_C 	C 	0.0305	0.1464	0.7909	0.079
Mof_C 	C 	0.0588	0.1818	0.7592	-0.129
Mof_C 	C 	0.0991	0.2295	0.7717	0.05
Mof_C 	C 	0.1073	0.2377	0.8176	-0.136
Mof_C 	C 	0.0772	0.1995	0.8472	0.061
Mof_H 	H 	0.2675	0.7612	0.5593	-0.032
Mof_H 	H 	0.256	0.6635	0.5594	0.061
Mof_H 	H 	0.1871	0.6714	0.6875	0.061
Mof_H 	H 	0.1912	0.7693	0.6825	-0.028
Mof_H 	H 	0.2006	0.2723	0.6392	-0.015
Mof_H 	H 	0.1462	0.2101	0.6886	0.063
Mof_H 	H 	0.1292	0.3409	0.7765	0.064
Mof_H 	H 	0.1738	0.4002	0.7206	-0.028
Mof_H 	H 	0.9988	0.1159	0.7818	-0.024
Mof_H 	H 	0.0536	0.1721	0.7282	0.067
Mof_H 	H 	0.1342	0.27	0.8284	0.068
Mof_H 	H 	0.0849	0.205	0.8787	-0.039
_end
