data_functionalizedCrystal
_audit_creation_method	'EQeq! by Chris Wilmer'
_symmetry_space_group_name_H-M	'P1'
_symmetry_Int_Tables_number	1
_symmetry_cell_setting	triclinic
loop_
_symmetry_equiv_pos_as_xyz
  x,y,z
_cell_length_a	18.369
_cell_length_b	17.305
_cell_length_c	28.133
_cell_angle_alpha	90
_cell_angle_beta	91.083
_cell_angle_gamma	90
loop_
_atom_site_label
_atom_site_type_symbol
_atom_site_fract_x
_atom_site_fract_y
_atom_site_fract_z
_atom_site_charge
Mof_Cd	Cd	0.4403	0.73761	0.52442	0.45
Mof_Cl	Cl	0.54095	0.62699	0.53146	-0.338
Mof_Cl	Cl	0.34791	0.8501	0.51819	-0.359
Mof_O 	O 	0.58714	0.89425	0.30385	-0.165
Mof_O 	O 	0.77485	0.08448	0.29757	-0.167
Mof_O 	O 	0.76135	0.88547	0.24634	-0.164
Mof_O 	O 	0.58901	0.09099	0.25017	-0.164
Mof_N 	N 	0.5113	0.8056	0.46946	-0.155
Mof_N 	N 	0.887	0.1651	0.46217	-0.153
Mof_N 	N 	0.8667	0.8212	0.08055	-0.15
Mof_N 	N 	0.50631	0.1981	0.08476	-0.154
Mof_C 	C 	0.4759	0.16	0.11997	0.112
Mof_H 	H 	0.4259	0.1643	0.1235	0.009
Mof_C 	C 	0.5144	0.1141	0.15176	-0.188
Mof_H 	H 	0.4906	0.0899	0.1766	0.115
Mof_C 	C 	0.5898	0.1045	0.14626	0.137
Mof_C 	C 	0.5788	0.1919	0.08047	0.106
Mof_H 	H 	0.6013	0.2202	0.0568	0.02
Mof_C 	C 	0.6211	0.146	0.10923	-0.182
Mof_H 	H 	0.6709	0.1424	0.1042	0.102
Mof_C 	C 	0.5179	0.882	0.47479	0.113
Mof_H 	H 	0.493	0.9059	0.4992	0.011
Mof_C 	C 	0.5602	0.9271	0.44546	-0.197
Mof_H 	H 	0.5655	0.9797	0.4513	0.116
Mof_C 	C 	0.5944	0.8932	0.4077	0.148
Mof_C 	C 	0.5864	0.814	0.40172	-0.19
Mof_H 	H 	0.6084	0.789	0.3765	0.108
Mof_C 	C 	0.5458	0.7728	0.43346	0.112
Mof_H 	H 	0.5422	0.7196	0.4296	0.012
Mof_C 	C 	0.6409	0.9418	0.3771	-0.095
Mof_C 	C 	0.6929	0.9885	0.39933	0.014
Mof_H 	H 	0.6968	0.9883	0.4323	0.048
Mof_C 	C 	0.7395	0.0357	0.37364	-0.086
Mof_C 	C 	0.7328	0.0362	0.32426	0.13
Mof_C 	C 	0.6359	0.942	0.32777	0.13
Mof_C 	C 	0.6807	0.9886	0.30097	-0.046
Mof_C 	C 	0.5115	0.9163	0.30876	-0.261
Mof_H 	H 	0.5006	0.9211	0.3419	0.12
Mof_H 	H 	0.4808	0.8776	0.2945	0.122
Mof_H 	H 	0.5032	0.965	0.2932	0.125
Mof_C 	C 	0.8477	0.0551	0.29053	-0.245
Mof_H 	H 	0.8718	0.0482	0.3208	0.115
Mof_H 	H 	0.8747	0.0912	0.2719	0.11
Mof_H 	H 	0.845	0.0064	0.2743	0.119
Mof_C 	C 	0.7943	0.0818	0.40128	0.149
Mof_C 	C 	0.8364	0.0453	0.43649	-0.18
Mof_H 	H 	0.834	0.992	0.4403	0.122
Mof_C 	C 	0.8814	0.0885	0.46537	0.115
Mof_H 	H 	0.9095	0.0631	0.4884	0.032
Mof_C 	C 	0.8482	0.2002	0.42749	0.109
Mof_H 	H 	0.8524	0.2535	0.4243	0.008
Mof_C 	C 	0.8024	0.1608	0.39616	-0.173
Mof_H 	H 	0.7775	0.1871	0.3721	0.105
Mof_C 	C 	0.6771	0.9898	0.24813	-0.047
Mof_C 	C 	0.7199	0.9399	0.22193	0.124
Mof_C 	C 	0.7233	0.9452	0.17242	-0.091
Mof_C 	C 	0.6799	0.0006	0.14973	0.007
Mof_H 	H 	0.6816	0.0048	0.1168	0.034
Mof_C 	C 	0.6342	0.0498	0.1745	-0.098
Mof_C 	C 	0.634	0.0445	0.22383	0.126
Mof_C 	C 	0.6126	0.1691	0.25511	-0.23
Mof_H 	H 	0.6575	0.1706	0.2731	0.113
Mof_H 	H 	0.5763	0.1984	0.2713	0.108
Mof_H 	H 	0.62	0.191	0.2242	0.107
Mof_C 	C 	0.7281	0.8096	0.2464	-0.245
Mof_H 	H 	0.6805	0.8129	0.2597	0.12
Mof_H 	H 	0.7577	0.7749	0.2651	0.111
Mof_H 	H 	0.7242	0.7907	0.2144	0.11
Mof_C 	C 	0.7725	0.8978	0.14277	0.131
Mof_C 	C 	0.8442	0.8796	0.15663	-0.176
Mof_H 	H 	0.8617	0.8922	0.1869	0.102
Mof_C 	C 	0.8883	0.8427	0.12465	0.102
Mof_H 	H 	0.9361	0.832	0.1341	0.008
Mof_C 	C 	0.7972	0.8359	0.06825	0.1
Mof_H 	H 	0.7802	0.8194	0.0386	0.033
Mof_C 	C 	0.7497	0.8743	0.09741	-0.174
Mof_H 	H 	0.7024	0.8846	0.0868	0.11
Mof_Cd	Cd	0.9403	0.23761	0.52442	0.449
Mof_Cl	Cl	0.04095	0.12699	0.53146	-0.339
Mof_Cl	Cl	0.84791	0.3501	0.51819	-0.36
Mof_O 	O 	0.08714	0.39425	0.30385	-0.166
Mof_O 	O 	0.27485	0.58448	0.29757	-0.168
Mof_O 	O 	0.26135	0.38547	0.24634	-0.165
Mof_O 	O 	0.08901	0.59099	0.25017	-0.165
Mof_N 	N 	0.0113	0.3056	0.46946	-0.156
Mof_N 	N 	0.387	0.6651	0.46217	-0.154
Mof_N 	N 	0.3667	0.3212	0.08055	-0.151
Mof_N 	N 	0.00631	0.6981	0.08476	-0.154
Mof_C 	C 	0.9759	0.66	0.11997	0.109
Mof_H 	H 	0.9259	0.6643	0.1235	0.009
Mof_C 	C 	0.0144	0.6141	0.15176	-0.186
Mof_H 	H 	0.9906	0.5899	0.1766	0.113
Mof_C 	C 	0.0898	0.6045	0.14626	0.135
Mof_C 	C 	0.0788	0.6919	0.08047	0.105
Mof_H 	H 	0.1013	0.7202	0.0568	0.019
Mof_C 	C 	0.1211	0.646	0.10923	-0.182
Mof_H 	H 	0.1709	0.6424	0.1042	0.101
Mof_C 	C 	0.0179	0.382	0.47479	0.113
Mof_H 	H 	0.993	0.4059	0.4992	0.011
Mof_C 	C 	0.0602	0.4271	0.44546	-0.197
Mof_H 	H 	0.0655	0.4797	0.4513	0.116
Mof_C 	C 	0.0944	0.3932	0.4077	0.148
Mof_C 	C 	0.0864	0.314	0.40172	-0.19
Mof_H 	H 	0.1084	0.289	0.3765	0.108
Mof_C 	C 	0.0458	0.2728	0.43346	0.112
Mof_H 	H 	0.0422	0.2196	0.4296	0.012
Mof_C 	C 	0.1409	0.4418	0.3771	-0.095
Mof_C 	C 	0.1929	0.4885	0.39933	0.014
Mof_H 	H 	0.1968	0.4883	0.4323	0.048
Mof_C 	C 	0.2395	0.5357	0.37364	-0.087
Mof_C 	C 	0.2328	0.5362	0.32426	0.13
Mof_C 	C 	0.1359	0.442	0.32777	0.13
Mof_C 	C 	0.1807	0.4886	0.30097	-0.046
Mof_C 	C 	0.0115	0.4163	0.30876	-0.26
Mof_H 	H 	0.0006	0.4211	0.3419	0.12
Mof_H 	H 	0.9808	0.3776	0.2945	0.121
Mof_H 	H 	0.0032	0.465	0.2932	0.124
Mof_C 	C 	0.3477	0.5551	0.29053	-0.245
Mof_H 	H 	0.3718	0.5482	0.3208	0.115
Mof_H 	H 	0.3747	0.5912	0.2719	0.11
Mof_H 	H 	0.345	0.5064	0.2743	0.119
Mof_C 	C 	0.2943	0.5818	0.40128	0.149
Mof_C 	C 	0.3364	0.5453	0.43649	-0.18
Mof_H 	H 	0.334	0.492	0.4403	0.122
Mof_C 	C 	0.3814	0.5885	0.46537	0.115
Mof_H 	H 	0.4095	0.5631	0.4884	0.032
Mof_C 	C 	0.3482	0.7002	0.42749	0.109
Mof_H 	H 	0.3524	0.7535	0.4243	0.008
Mof_C 	C 	0.3024	0.6608	0.39616	-0.173
Mof_H 	H 	0.2775	0.6871	0.3721	0.105
Mof_C 	C 	0.1771	0.4898	0.24813	-0.046
Mof_C 	C 	0.2199	0.4399	0.22193	0.124
Mof_C 	C 	0.2233	0.4452	0.17242	-0.091
Mof_C 	C 	0.1799	0.5006	0.14973	0.007
Mof_H 	H 	0.1816	0.5048	0.1168	0.035
Mof_C 	C 	0.1342	0.5498	0.1745	-0.098
Mof_C 	C 	0.134	0.5445	0.22383	0.126
Mof_C 	C 	0.1126	0.6691	0.25511	-0.231
Mof_H 	H 	0.1575	0.6706	0.2731	0.113
Mof_H 	H 	0.0763	0.6984	0.2713	0.108
Mof_H 	H 	0.12	0.691	0.2242	0.107
Mof_C 	C 	0.2281	0.3096	0.2464	-0.245
Mof_H 	H 	0.1805	0.3129	0.2597	0.12
Mof_H 	H 	0.2577	0.2749	0.2651	0.111
Mof_H 	H 	0.2242	0.2907	0.2144	0.11
Mof_C 	C 	0.2725	0.3978	0.14277	0.13
Mof_C 	C 	0.3442	0.3796	0.15663	-0.176
Mof_H 	H 	0.3617	0.3922	0.1869	0.102
Mof_C 	C 	0.3883	0.3427	0.12465	0.102
Mof_H 	H 	0.4361	0.332	0.1341	0.008
Mof_C 	C 	0.2972	0.3359	0.06825	0.1
Mof_H 	H 	0.2802	0.3194	0.0386	0.034
Mof_C 	C 	0.2497	0.3743	0.09741	-0.174
Mof_H 	H 	0.2024	0.3846	0.0868	0.11
Mof_Cd	Cd	0.4403	0.26239	0.02442	0.449
Mof_Cl	Cl	0.54095	0.37301	0.03146	-0.339
Mof_Cl	Cl	0.34791	0.1499	0.01819	-0.36
Mof_O 	O 	0.58714	0.10575	0.80385	-0.166
Mof_O 	O 	0.77485	0.91552	0.79757	-0.168
Mof_O 	O 	0.76135	0.11453	0.74634	-0.165
Mof_O 	O 	0.58901	0.90901	0.75017	-0.165
Mof_N 	N 	0.5113	0.1944	0.96946	-0.156
Mof_N 	N 	0.887	0.8349	0.96217	-0.153
Mof_N 	N 	0.8667	0.1788	0.58055	-0.151
Mof_N 	N 	0.50631	0.8019	0.58476	-0.155
Mof_C 	C 	0.4759	0.84	0.61997	0.111
Mof_H 	H 	0.4259	0.8357	0.6235	0.008
Mof_C 	C 	0.5144	0.8859	0.65176	-0.189
Mof_H 	H 	0.4906	0.9101	0.6766	0.114
Mof_C 	C 	0.5898	0.8955	0.64626	0.136
Mof_C 	C 	0.5788	0.8081	0.58047	0.105
Mof_H 	H 	0.6013	0.7798	0.5568	0.019
Mof_C 	C 	0.6211	0.854	0.60923	-0.183
Mof_H 	H 	0.6709	0.8576	0.6042	0.101
Mof_C 	C 	0.5179	0.118	0.97479	0.113
Mof_H 	H 	0.493	0.0941	0.9992	0.011
Mof_C 	C 	0.5602	0.0729	0.94546	-0.197
Mof_H 	H 	0.5655	0.0203	0.9513	0.116
Mof_C 	C 	0.5944	0.1068	0.9077	0.148
Mof_C 	C 	0.5864	0.186	0.90172	-0.19
Mof_H 	H 	0.6084	0.211	0.8765	0.108
Mof_C 	C 	0.5458	0.2272	0.93346	0.112
Mof_H 	H 	0.5422	0.2804	0.9296	0.012
Mof_C 	C 	0.6409	0.0582	0.8771	-0.095
Mof_C 	C 	0.6929	0.0115	0.89933	0.014
Mof_H 	H 	0.6968	0.0117	0.9323	0.048
Mof_C 	C 	0.7395	0.9643	0.87364	-0.086
Mof_C 	C 	0.7328	0.9638	0.82426	0.13
Mof_C 	C 	0.6359	0.058	0.82777	0.13
Mof_C 	C 	0.6807	0.0114	0.80097	-0.046
Mof_C 	C 	0.5115	0.0837	0.80876	-0.261
Mof_H 	H 	0.5006	0.0789	0.8419	0.12
Mof_H 	H 	0.4808	0.1224	0.7945	0.122
Mof_H 	H 	0.5032	0.035	0.7932	0.125
Mof_C 	C 	0.8477	0.9449	0.79053	-0.245
Mof_H 	H 	0.8718	0.9518	0.8208	0.115
Mof_H 	H 	0.8747	0.9088	0.7719	0.11
Mof_H 	H 	0.845	0.9936	0.7743	0.119
Mof_C 	C 	0.7943	0.9182	0.90128	0.149
Mof_C 	C 	0.8364	0.9547	0.93649	-0.179
Mof_H 	H 	0.834	0.008	0.9403	0.121
Mof_C 	C 	0.8814	0.9115	0.96537	0.115
Mof_H 	H 	0.9095	0.9369	0.9884	0.032
Mof_C 	C 	0.8482	0.7998	0.92749	0.109
Mof_H 	H 	0.8524	0.7465	0.9243	0.009
Mof_C 	C 	0.8024	0.8392	0.89616	-0.173
Mof_H 	H 	0.7775	0.8129	0.8721	0.105
Mof_C 	C 	0.6771	0.0102	0.74813	-0.047
Mof_C 	C 	0.7199	0.0601	0.72193	0.124
Mof_C 	C 	0.7233	0.0548	0.67242	-0.091
Mof_C 	C 	0.6799	0.9994	0.64973	0.007
Mof_H 	H 	0.6816	0.9952	0.6168	0.035
Mof_C 	C 	0.6342	0.9502	0.6745	-0.098
Mof_C 	C 	0.634	0.9555	0.72383	0.126
Mof_C 	C 	0.6126	0.8309	0.75511	-0.23
Mof_H 	H 	0.6575	0.8294	0.7731	0.113
Mof_H 	H 	0.5763	0.8016	0.7713	0.108
Mof_H 	H 	0.62	0.809	0.7242	0.107
Mof_C 	C 	0.7281	0.1904	0.7464	-0.245
Mof_H 	H 	0.6805	0.1871	0.7597	0.12
Mof_H 	H 	0.7577	0.2251	0.7651	0.111
Mof_H 	H 	0.7242	0.2093	0.7144	0.11
Mof_C 	C 	0.7725	0.1022	0.64277	0.131
Mof_C 	C 	0.8442	0.1204	0.65663	-0.176
Mof_H 	H 	0.8617	0.1078	0.6869	0.102
Mof_C 	C 	0.8883	0.1573	0.62465	0.103
Mof_H 	H 	0.9361	0.168	0.6341	0.008
Mof_C 	C 	0.7972	0.1641	0.56825	0.1
Mof_H 	H 	0.7802	0.1806	0.5386	0.033
Mof_C 	C 	0.7497	0.1257	0.59741	-0.174
Mof_H 	H 	0.7024	0.1154	0.5868	0.11
Mof_Cd	Cd	0.9403	0.76239	0.02442	0.448
Mof_Cl	Cl	0.04095	0.87301	0.03146	-0.339
Mof_Cl	Cl	0.84791	0.6499	0.01819	-0.361
Mof_O 	O 	0.08714	0.60575	0.80385	-0.165
Mof_O 	O 	0.27485	0.41552	0.79757	-0.168
Mof_O 	O 	0.26135	0.61453	0.74634	-0.165
Mof_O 	O 	0.08901	0.40901	0.75017	-0.165
Mof_N 	N 	0.0113	0.6944	0.96946	-0.156
Mof_N 	N 	0.387	0.3349	0.96217	-0.154
Mof_N 	N 	0.3667	0.6788	0.58055	-0.151
Mof_N 	N 	0.00631	0.3019	0.58476	-0.156
Mof_C 	C 	0.9759	0.34	0.61997	0.112
Mof_H 	H 	0.9259	0.3357	0.6235	0.008
Mof_C 	C 	0.0144	0.3859	0.65176	-0.19
Mof_H 	H 	0.9906	0.4101	0.6766	0.115
Mof_C 	C 	0.0898	0.3955	0.64626	0.137
Mof_C 	C 	0.0788	0.3081	0.58047	0.106
Mof_H 	H 	0.1013	0.2798	0.5568	0.019
Mof_C 	C 	0.1211	0.354	0.60923	-0.183
Mof_H 	H 	0.1709	0.3576	0.6042	0.101
Mof_C 	C 	0.0179	0.618	0.97479	0.111
Mof_H 	H 	0.993	0.5941	0.9992	0.012
Mof_C 	C 	0.0602	0.5729	0.94546	-0.196
Mof_H 	H 	0.0655	0.5203	0.9513	0.115
Mof_C 	C 	0.0944	0.6068	0.9077	0.148
Mof_C 	C 	0.0864	0.686	0.90172	-0.189
Mof_H 	H 	0.1084	0.711	0.8765	0.108
Mof_C 	C 	0.0458	0.7272	0.93346	0.111
Mof_H 	H 	0.0422	0.7804	0.9296	0.012
Mof_C 	C 	0.1409	0.5582	0.8771	-0.095
Mof_C 	C 	0.1929	0.5115	0.89933	0.014
Mof_H 	H 	0.1968	0.5117	0.9323	0.048
Mof_C 	C 	0.2395	0.4643	0.87364	-0.086
Mof_C 	C 	0.2328	0.4638	0.82426	0.13
Mof_C 	C 	0.1359	0.558	0.82777	0.13
Mof_C 	C 	0.1807	0.5114	0.80097	-0.046
Mof_C 	C 	0.0115	0.5837	0.80876	-0.263
Mof_H 	H 	0.0006	0.5789	0.8419	0.12
Mof_H 	H 	0.9808	0.6224	0.7945	0.123
Mof_H 	H 	0.0032	0.535	0.7932	0.125
Mof_C 	C 	0.3477	0.4449	0.79053	-0.245
Mof_H 	H 	0.3718	0.4518	0.8208	0.115
Mof_H 	H 	0.3747	0.4088	0.7719	0.11
Mof_H 	H 	0.345	0.4936	0.7743	0.119
Mof_C 	C 	0.2943	0.4182	0.90128	0.149
Mof_C 	C 	0.3364	0.4547	0.93649	-0.18
Mof_H 	H 	0.334	0.508	0.9403	0.122
Mof_C 	C 	0.3814	0.4115	0.96537	0.115
Mof_H 	H 	0.4095	0.4369	0.9884	0.032
Mof_C 	C 	0.3482	0.2998	0.92749	0.109
Mof_H 	H 	0.3524	0.2465	0.9243	0.008
Mof_C 	C 	0.3024	0.3392	0.89616	-0.173
Mof_H 	H 	0.2775	0.3129	0.8721	0.105
Mof_C 	C 	0.1771	0.5102	0.74813	-0.047
Mof_C 	C 	0.2199	0.5601	0.72193	0.124
Mof_C 	C 	0.2233	0.5548	0.67242	-0.091
Mof_C 	C 	0.1799	0.4994	0.64973	0.007
Mof_H 	H 	0.1816	0.4952	0.6168	0.034
Mof_C 	C 	0.1342	0.4502	0.6745	-0.098
Mof_C 	C 	0.134	0.4555	0.72383	0.126
Mof_C 	C 	0.1126	0.3309	0.75511	-0.23
Mof_H 	H 	0.1575	0.3294	0.7731	0.112
Mof_H 	H 	0.0763	0.3016	0.7713	0.108
Mof_H 	H 	0.12	0.309	0.7242	0.107
Mof_C 	C 	0.2281	0.6904	0.7464	-0.245
Mof_H 	H 	0.1805	0.6871	0.7597	0.12
Mof_H 	H 	0.2577	0.7251	0.7651	0.111
Mof_H 	H 	0.2242	0.7093	0.7144	0.11
Mof_C 	C 	0.2725	0.6022	0.64277	0.13
Mof_C 	C 	0.3442	0.6204	0.65663	-0.176
Mof_H 	H 	0.3617	0.6078	0.6869	0.102
Mof_C 	C 	0.3883	0.6573	0.62465	0.102
Mof_H 	H 	0.4361	0.668	0.6341	0.008
Mof_C 	C 	0.2972	0.6641	0.56825	0.1
Mof_H 	H 	0.2802	0.6806	0.5386	0.033
Mof_C 	C 	0.2497	0.6257	0.59741	-0.174
Mof_H 	H 	0.2024	0.6154	0.5868	0.11
Mof_Cd	Cd	0.5597	0.73761	0.97558	0.449
Mof_Cl	Cl	0.45905	0.62699	0.96854	-0.339
Mof_Cl	Cl	0.65209	0.8501	0.98181	-0.36
Mof_O 	O 	0.41286	0.89425	0.19615	-0.166
Mof_O 	O 	0.22515	0.08448	0.20243	-0.168
Mof_O 	O 	0.23865	0.88547	0.25366	-0.165
Mof_O 	O 	0.41099	0.09099	0.24983	-0.165
Mof_N 	N 	0.4887	0.8056	0.03054	-0.156
Mof_N 	N 	0.113	0.1651	0.03783	-0.153
Mof_N 	N 	0.1333	0.8212	0.41945	-0.151
Mof_N 	N 	0.49369	0.1981	0.41524	-0.155
Mof_C 	C 	0.5241	0.16	0.38003	0.111
Mof_H 	H 	0.5741	0.1643	0.3765	0.008
Mof_C 	C 	0.4856	0.1141	0.34824	-0.189
Mof_H 	H 	0.5094	0.0899	0.3234	0.114
Mof_C 	C 	0.4102	0.1045	0.35374	0.136
Mof_C 	C 	0.4212	0.1919	0.41953	0.105
Mof_H 	H 	0.3987	0.2202	0.4432	0.019
Mof_C 	C 	0.3789	0.146	0.39077	-0.183
Mof_H 	H 	0.3291	0.1424	0.3958	0.101
Mof_C 	C 	0.4821	0.882	0.02521	0.113
Mof_H 	H 	0.507	0.9059	0.0008	0.011
Mof_C 	C 	0.4398	0.9271	0.05454	-0.197
Mof_H 	H 	0.4345	0.9797	0.0487	0.116
Mof_C 	C 	0.4056	0.8932	0.0923	0.148
Mof_C 	C 	0.4136	0.814	0.09828	-0.19
Mof_H 	H 	0.3916	0.789	0.1235	0.108
Mof_C 	C 	0.4542	0.7728	0.06654	0.112
Mof_H 	H 	0.4578	0.7196	0.0704	0.012
Mof_C 	C 	0.3591	0.9418	0.1229	-0.095
Mof_C 	C 	0.3071	0.9885	0.10067	0.014
Mof_H 	H 	0.3032	0.9883	0.0677	0.048
Mof_C 	C 	0.2605	0.0357	0.12636	-0.086
Mof_C 	C 	0.2672	0.0362	0.17574	0.13
Mof_C 	C 	0.3641	0.942	0.17223	0.13
Mof_C 	C 	0.3193	0.9886	0.19903	-0.046
Mof_C 	C 	0.4885	0.9163	0.19124	-0.261
Mof_H 	H 	0.4994	0.9211	0.1581	0.12
Mof_H 	H 	0.5192	0.8776	0.2055	0.122
Mof_H 	H 	0.4968	0.965	0.2068	0.125
Mof_C 	C 	0.1523	0.0551	0.20947	-0.245
Mof_H 	H 	0.1282	0.0482	0.1792	0.115
Mof_H 	H 	0.1253	0.0912	0.2281	0.11
Mof_H 	H 	0.155	0.0064	0.2257	0.119
Mof_C 	C 	0.2057	0.0818	0.09872	0.149
Mof_C 	C 	0.1636	0.0453	0.06351	-0.179
Mof_H 	H 	0.166	0.992	0.0597	0.121
Mof_C 	C 	0.1186	0.0885	0.03463	0.115
Mof_H 	H 	0.0905	0.0631	0.0116	0.032
Mof_C 	C 	0.1518	0.2002	0.07251	0.109
Mof_H 	H 	0.1476	0.2535	0.0757	0.009
Mof_C 	C 	0.1976	0.1608	0.10384	-0.173
Mof_H 	H 	0.2225	0.1871	0.1279	0.105
Mof_C 	C 	0.3229	0.9898	0.25187	-0.047
Mof_C 	C 	0.2801	0.9399	0.27807	0.124
Mof_C 	C 	0.2767	0.9452	0.32758	-0.091
Mof_C 	C 	0.3201	0.0006	0.35027	0.007
Mof_H 	H 	0.3184	0.0048	0.3832	0.035
Mof_C 	C 	0.3658	0.0498	0.3255	-0.098
Mof_C 	C 	0.366	0.0445	0.27617	0.126
Mof_C 	C 	0.3874	0.1691	0.24489	-0.23
Mof_H 	H 	0.3425	0.1706	0.2269	0.113
Mof_H 	H 	0.4237	0.1984	0.2287	0.108
Mof_H 	H 	0.38	0.191	0.2758	0.107
Mof_C 	C 	0.2719	0.8096	0.2536	-0.245
Mof_H 	H 	0.3195	0.8129	0.2403	0.12
Mof_H 	H 	0.2423	0.7749	0.2349	0.111
Mof_H 	H 	0.2758	0.7907	0.2856	0.11
Mof_C 	C 	0.2275	0.8978	0.35723	0.131
Mof_C 	C 	0.1558	0.8796	0.34337	-0.176
Mof_H 	H 	0.1383	0.8922	0.3131	0.102
Mof_C 	C 	0.1117	0.8427	0.37535	0.103
Mof_H 	H 	0.0639	0.832	0.3659	0.008
Mof_C 	C 	0.2028	0.8359	0.43175	0.1
Mof_H 	H 	0.2198	0.8194	0.4614	0.033
Mof_C 	C 	0.2503	0.8743	0.40259	-0.174
Mof_H 	H 	0.2976	0.8846	0.4132	0.11
Mof_Cd	Cd	0.0597	0.23761	0.97558	0.448
Mof_Cl	Cl	0.95905	0.12699	0.96854	-0.339
Mof_Cl	Cl	0.15209	0.3501	0.98181	-0.361
Mof_O 	O 	0.91286	0.39425	0.19615	-0.165
Mof_O 	O 	0.72515	0.58448	0.20243	-0.168
Mof_O 	O 	0.73865	0.38547	0.25366	-0.165
Mof_O 	O 	0.91099	0.59099	0.24983	-0.165
Mof_N 	N 	0.9887	0.3056	0.03054	-0.156
Mof_N 	N 	0.613	0.6651	0.03783	-0.154
Mof_N 	N 	0.6333	0.3212	0.41945	-0.151
Mof_N 	N 	0.99369	0.6981	0.41524	-0.156
Mof_C 	C 	0.0241	0.66	0.38003	0.112
Mof_H 	H 	0.0741	0.6643	0.3765	0.008
Mof_C 	C 	0.9856	0.6141	0.34824	-0.19
Mof_H 	H 	0.0094	0.5899	0.3234	0.115
Mof_C 	C 	0.9102	0.6045	0.35374	0.137
Mof_C 	C 	0.9212	0.6919	0.41953	0.106
Mof_H 	H 	0.8987	0.7202	0.4432	0.019
Mof_C 	C 	0.8789	0.646	0.39077	-0.183
Mof_H 	H 	0.8291	0.6424	0.3958	0.101
Mof_C 	C 	0.9821	0.382	0.02521	0.111
Mof_H 	H 	0.007	0.4059	0.0008	0.012
Mof_C 	C 	0.9398	0.4271	0.05454	-0.196
Mof_H 	H 	0.9345	0.4797	0.0487	0.115
Mof_C 	C 	0.9056	0.3932	0.0923	0.148
Mof_C 	C 	0.9136	0.314	0.09828	-0.189
Mof_H 	H 	0.8916	0.289	0.1235	0.108
Mof_C 	C 	0.9542	0.2728	0.06654	0.111
Mof_H 	H 	0.9578	0.2196	0.0704	0.012
Mof_C 	C 	0.8591	0.4418	0.1229	-0.095
Mof_C 	C 	0.8071	0.4885	0.10067	0.014
Mof_H 	H 	0.8032	0.4883	0.0677	0.048
Mof_C 	C 	0.7605	0.5357	0.12636	-0.086
Mof_C 	C 	0.7672	0.5362	0.17574	0.13
Mof_C 	C 	0.8641	0.442	0.17223	0.13
Mof_C 	C 	0.8193	0.4886	0.19903	-0.046
Mof_C 	C 	0.9885	0.4163	0.19124	-0.263
Mof_H 	H 	0.9994	0.4211	0.1581	0.12
Mof_H 	H 	0.0192	0.3776	0.2055	0.123
Mof_H 	H 	0.9968	0.465	0.2068	0.125
Mof_C 	C 	0.6523	0.5551	0.20947	-0.245
Mof_H 	H 	0.6282	0.5482	0.1792	0.115
Mof_H 	H 	0.6253	0.5912	0.2281	0.11
Mof_H 	H 	0.655	0.5064	0.2257	0.119
Mof_C 	C 	0.7057	0.5818	0.09872	0.149
Mof_C 	C 	0.6636	0.5453	0.06351	-0.18
Mof_H 	H 	0.666	0.492	0.0597	0.122
Mof_C 	C 	0.6186	0.5885	0.03463	0.115
Mof_H 	H 	0.5905	0.5631	0.0116	0.032
Mof_C 	C 	0.6518	0.7002	0.07251	0.109
Mof_H 	H 	0.6476	0.7535	0.0757	0.008
Mof_C 	C 	0.6976	0.6608	0.10384	-0.173
Mof_H 	H 	0.7225	0.6871	0.1279	0.105
Mof_C 	C 	0.8229	0.4898	0.25187	-0.047
Mof_C 	C 	0.7801	0.4399	0.27807	0.124
Mof_C 	C 	0.7767	0.4452	0.32758	-0.091
Mof_C 	C 	0.8201	0.5006	0.35027	0.007
Mof_H 	H 	0.8184	0.5048	0.3832	0.034
Mof_C 	C 	0.8658	0.5498	0.3255	-0.098
Mof_C 	C 	0.866	0.5445	0.27617	0.126
Mof_C 	C 	0.8874	0.6691	0.24489	-0.23
Mof_H 	H 	0.8425	0.6706	0.2269	0.112
Mof_H 	H 	0.9237	0.6984	0.2287	0.108
Mof_H 	H 	0.88	0.691	0.2758	0.107
Mof_C 	C 	0.7719	0.3096	0.2536	-0.245
Mof_H 	H 	0.8195	0.3129	0.2403	0.12
Mof_H 	H 	0.7423	0.2749	0.2349	0.111
Mof_H 	H 	0.7758	0.2907	0.2856	0.11
Mof_C 	C 	0.7275	0.3978	0.35723	0.13
Mof_C 	C 	0.6558	0.3796	0.34337	-0.176
Mof_H 	H 	0.6383	0.3922	0.3131	0.102
Mof_C 	C 	0.6117	0.3427	0.37535	0.102
Mof_H 	H 	0.5639	0.332	0.3659	0.008
Mof_C 	C 	0.7028	0.3359	0.43175	0.1
Mof_H 	H 	0.7198	0.3194	0.4614	0.033
Mof_C 	C 	0.7503	0.3743	0.40259	-0.174
Mof_H 	H 	0.7976	0.3846	0.4132	0.11
Mof_Cd	Cd	0.5597	0.26239	0.47558	0.449
Mof_Cl	Cl	0.45905	0.37301	0.46854	-0.339
Mof_Cl	Cl	0.65209	0.1499	0.48181	-0.36
Mof_O 	O 	0.41286	0.10575	0.69615	-0.166
Mof_O 	O 	0.22515	0.91552	0.70243	-0.168
Mof_O 	O 	0.23865	0.11453	0.75366	-0.165
Mof_O 	O 	0.41099	0.90901	0.74983	-0.165
Mof_N 	N 	0.4887	0.1944	0.53054	-0.156
Mof_N 	N 	0.113	0.8349	0.53783	-0.154
Mof_N 	N 	0.1333	0.1788	0.91945	-0.151
Mof_N 	N 	0.49369	0.8019	0.91524	-0.155
Mof_C 	C 	0.5241	0.84	0.88003	0.111
Mof_H 	H 	0.5741	0.8357	0.8765	0.008
Mof_C 	C 	0.4856	0.8859	0.84824	-0.189
Mof_H 	H 	0.5094	0.9101	0.8234	0.114
Mof_C 	C 	0.4102	0.8955	0.85374	0.136
Mof_C 	C 	0.4212	0.8081	0.91953	0.105
Mof_H 	H 	0.3987	0.7798	0.9432	0.019
Mof_C 	C 	0.3789	0.854	0.89077	-0.183
Mof_H 	H 	0.3291	0.8576	0.8958	0.101
Mof_C 	C 	0.4821	0.118	0.52521	0.113
Mof_H 	H 	0.507	0.0941	0.5008	0.011
Mof_C 	C 	0.4398	0.0729	0.55454	-0.197
Mof_H 	H 	0.4345	0.0203	0.5487	0.116
Mof_C 	C 	0.4056	0.1068	0.5923	0.148
Mof_C 	C 	0.4136	0.186	0.59828	-0.19
Mof_H 	H 	0.3916	0.211	0.6235	0.108
Mof_C 	C 	0.4542	0.2272	0.56654	0.112
Mof_H 	H 	0.4578	0.2804	0.5704	0.012
Mof_C 	C 	0.3591	0.0582	0.6229	-0.095
Mof_C 	C 	0.3071	0.0115	0.60067	0.014
Mof_H 	H 	0.3032	0.0117	0.5677	0.048
Mof_C 	C 	0.2605	0.9643	0.62636	-0.086
Mof_C 	C 	0.2672	0.9638	0.67574	0.13
Mof_C 	C 	0.3641	0.058	0.67223	0.13
Mof_C 	C 	0.3193	0.0114	0.69903	-0.046
Mof_C 	C 	0.4885	0.0837	0.69124	-0.261
Mof_H 	H 	0.4994	0.0789	0.6581	0.12
Mof_H 	H 	0.5192	0.1224	0.7055	0.122
Mof_H 	H 	0.4968	0.035	0.7068	0.125
Mof_C 	C 	0.1523	0.9449	0.70947	-0.245
Mof_H 	H 	0.1282	0.9518	0.6792	0.115
Mof_H 	H 	0.1253	0.9088	0.7281	0.11
Mof_H 	H 	0.155	0.9936	0.7257	0.119
Mof_C 	C 	0.2057	0.9182	0.59872	0.149
Mof_C 	C 	0.1636	0.9547	0.56351	-0.18
Mof_H 	H 	0.166	0.008	0.5597	0.122
Mof_C 	C 	0.1186	0.9115	0.53463	0.115
Mof_H 	H 	0.0905	0.9369	0.5116	0.032
Mof_C 	C 	0.1518	0.7998	0.57251	0.109
Mof_H 	H 	0.1476	0.7465	0.5757	0.008
Mof_C 	C 	0.1976	0.8392	0.60384	-0.173
Mof_H 	H 	0.2225	0.8129	0.6279	0.105
Mof_C 	C 	0.3229	0.0102	0.75187	-0.047
Mof_C 	C 	0.2801	0.0601	0.77807	0.124
Mof_C 	C 	0.2767	0.0548	0.82758	-0.091
Mof_C 	C 	0.3201	0.9994	0.85027	0.007
Mof_H 	H 	0.3184	0.9952	0.8832	0.034
Mof_C 	C 	0.3658	0.9502	0.8255	-0.098
Mof_C 	C 	0.366	0.9555	0.77617	0.126
Mof_C 	C 	0.3874	0.8309	0.74489	-0.23
Mof_H 	H 	0.3425	0.8294	0.7269	0.113
Mof_H 	H 	0.4237	0.8016	0.7287	0.108
Mof_H 	H 	0.38	0.809	0.7758	0.107
Mof_C 	C 	0.2719	0.1904	0.7536	-0.245
Mof_H 	H 	0.3195	0.1871	0.7403	0.12
Mof_H 	H 	0.2423	0.2251	0.7349	0.111
Mof_H 	H 	0.2758	0.2093	0.7856	0.11
Mof_C 	C 	0.2275	0.1022	0.85723	0.131
Mof_C 	C 	0.1558	0.1204	0.84337	-0.176
Mof_H 	H 	0.1383	0.1078	0.8131	0.102
Mof_C 	C 	0.1117	0.1573	0.87535	0.102
Mof_H 	H 	0.0639	0.168	0.8659	0.008
Mof_C 	C 	0.2028	0.1641	0.93175	0.1
Mof_H 	H 	0.2198	0.1806	0.9614	0.033
Mof_C 	C 	0.2503	0.1257	0.90259	-0.174
Mof_H 	H 	0.2976	0.1154	0.9132	0.11
Mof_Cd	Cd	0.0597	0.76239	0.47558	0.449
Mof_Cl	Cl	0.95905	0.87301	0.46854	-0.339
Mof_Cl	Cl	0.15209	0.6499	0.48181	-0.36
Mof_O 	O 	0.91286	0.60575	0.69615	-0.166
Mof_O 	O 	0.72515	0.41552	0.70243	-0.168
Mof_O 	O 	0.73865	0.61453	0.75366	-0.165
Mof_O 	O 	0.91099	0.40901	0.74983	-0.165
Mof_N 	N 	0.9887	0.6944	0.53054	-0.156
Mof_N 	N 	0.613	0.3349	0.53783	-0.154
Mof_N 	N 	0.6333	0.6788	0.91945	-0.151
Mof_N 	N 	0.99369	0.3019	0.91524	-0.154
Mof_C 	C 	0.0241	0.34	0.88003	0.109
Mof_H 	H 	0.0741	0.3357	0.8765	0.009
Mof_C 	C 	0.9856	0.3859	0.84824	-0.186
Mof_H 	H 	0.0094	0.4101	0.8234	0.113
Mof_C 	C 	0.9102	0.3955	0.85374	0.135
Mof_C 	C 	0.9212	0.3081	0.91953	0.105
Mof_H 	H 	0.8987	0.2798	0.9432	0.019
Mof_C 	C 	0.8789	0.354	0.89077	-0.182
Mof_H 	H 	0.8291	0.3576	0.8958	0.101
Mof_C 	C 	0.9821	0.618	0.52521	0.113
Mof_H 	H 	0.007	0.5941	0.5008	0.011
Mof_C 	C 	0.9398	0.5729	0.55454	-0.197
Mof_H 	H 	0.9345	0.5203	0.5487	0.116
Mof_C 	C 	0.9056	0.6068	0.5923	0.148
Mof_C 	C 	0.9136	0.686	0.59828	-0.19
Mof_H 	H 	0.8916	0.711	0.6235	0.108
Mof_C 	C 	0.9542	0.7272	0.56654	0.112
Mof_H 	H 	0.9578	0.7804	0.5704	0.012
Mof_C 	C 	0.8591	0.5582	0.6229	-0.095
Mof_C 	C 	0.8071	0.5115	0.60067	0.014
Mof_H 	H 	0.8032	0.5117	0.5677	0.048
Mof_C 	C 	0.7605	0.4643	0.62636	-0.087
Mof_C 	C 	0.7672	0.4638	0.67574	0.13
Mof_C 	C 	0.8641	0.558	0.67223	0.13
Mof_C 	C 	0.8193	0.5114	0.69903	-0.046
Mof_C 	C 	0.9885	0.5837	0.69124	-0.26
Mof_H 	H 	0.9994	0.5789	0.6581	0.12
Mof_H 	H 	0.0192	0.6224	0.7055	0.121
Mof_H 	H 	0.9968	0.535	0.7068	0.124
Mof_C 	C 	0.6523	0.4449	0.70947	-0.245
Mof_H 	H 	0.6282	0.4518	0.6792	0.115
Mof_H 	H 	0.6253	0.4088	0.7281	0.11
Mof_H 	H 	0.655	0.4936	0.7257	0.119
Mof_C 	C 	0.7057	0.4182	0.59872	0.149
Mof_C 	C 	0.6636	0.4547	0.56351	-0.18
Mof_H 	H 	0.666	0.508	0.5597	0.122
Mof_C 	C 	0.6186	0.4115	0.53463	0.115
Mof_H 	H 	0.5905	0.4369	0.5116	0.032
Mof_C 	C 	0.6518	0.2998	0.57251	0.109
Mof_H 	H 	0.6476	0.2465	0.5757	0.008
Mof_C 	C 	0.6976	0.3392	0.60384	-0.173
Mof_H 	H 	0.7225	0.3129	0.6279	0.105
Mof_C 	C 	0.8229	0.5102	0.75187	-0.046
Mof_C 	C 	0.7801	0.5601	0.77807	0.124
Mof_C 	C 	0.7767	0.5548	0.82758	-0.091
Mof_C 	C 	0.8201	0.4994	0.85027	0.007
Mof_H 	H 	0.8184	0.4952	0.8832	0.035
Mof_C 	C 	0.8658	0.4502	0.8255	-0.098
Mof_C 	C 	0.866	0.4555	0.77617	0.126
Mof_C 	C 	0.8874	0.3309	0.74489	-0.231
Mof_H 	H 	0.8425	0.3294	0.7269	0.113
Mof_H 	H 	0.9237	0.3016	0.7287	0.108
Mof_H 	H 	0.88	0.309	0.7758	0.107
Mof_C 	C 	0.7719	0.6904	0.7536	-0.245
Mof_H 	H 	0.8195	0.6871	0.7403	0.12
Mof_H 	H 	0.7423	0.7251	0.7349	0.111
Mof_H 	H 	0.7758	0.7093	0.7856	0.11
Mof_C 	C 	0.7275	0.6022	0.85723	0.13
Mof_C 	C 	0.6558	0.6204	0.84337	-0.176
Mof_H 	H 	0.6383	0.6078	0.8131	0.102
Mof_C 	C 	0.6117	0.6573	0.87535	0.102
Mof_H 	H 	0.5639	0.668	0.8659	0.008
Mof_C 	C 	0.7028	0.6641	0.93175	0.1
Mof_H 	H 	0.7198	0.6806	0.9614	0.034
Mof_C 	C 	0.7503	0.6257	0.90259	-0.174
Mof_H 	H 	0.7976	0.6154	0.9132	0.11
_end
