data_functionalizedCrystal
_audit_creation_method	'EQeq! by Chris Wilmer'
_symmetry_space_group_name_H-M	'P1'
_symmetry_Int_Tables_number	1
_symmetry_cell_setting	triclinic
loop_
_symmetry_equiv_pos_as_xyz
  x,y,z
_cell_length_a	17.2619
_cell_length_b	10.0391
_cell_length_c	17.5996
_cell_angle_alpha	90
_cell_angle_beta	90
_cell_angle_gamma	90
loop_
_atom_site_label
_atom_site_type_symbol
_atom_site_fract_x
_atom_site_fract_y
_atom_site_fract_z
_atom_site_charge
Mof_Tm	Tm	0.82167	0.88721	0.27328	1.942
Mof_Tm	Tm	0.52152	0.8405	0.25798	1.892
Mof_O 	O 	0.9208	0.8971	0.1951	-0.57
Mof_O 	O 	0.0829	0.0687	0.8605	-0.53
Mof_O 	O 	0.7491	0.9623	0.1694	-0.497
Mof_O 	O 	0.6962	0.2303	0.869	-0.476
Mof_O 	O 	0.7156	0.948	0.3314	-0.577
Mof_C 	C 	0.6797	0.939	0.1529	0.474
Mof_O 	O 	0.6317	0.8803	0.1962	-0.535
Mof_O 	O 	0.5921	0.9163	0.3635	-0.503
Mof_C 	C 	0.6614	0.9506	0.3776	0.518
Mof_C 	C 	0.6799	0.0049	0.4538	-0.172
Mof_C 	C 	0.7502	0.0525	0.4778	0.036
Mof_H 	H 	0.7948	0.0504	0.4483	0.006
Mof_C 	C 	0.6502	0.9802	0.0772	-0.15
Mof_S 	S 	0.70067	0.0924	0.02162	0.061
Mof_O 	O 	0.5756	0.1186	0.6723	-0.521
Mof_C 	C 	0.6379	0.1589	0.8798	0.469
Mof_O 	O 	0.6943	0.1958	0.7031	-0.489
Mof_O 	O 	0.5821	0.1504	0.8335	-0.564
Mof_C 	C 	0.6467	0.139	0.6591	0.456
Mof_S 	S 	0.61014	0.0205	0.52289	0.072
Mof_S 	S 	0.03828	0.9589	0.00787	0.06
Mof_O 	O 	0.036	0.8199	0.1606	-0.459
Mof_C 	C 	0.5842	0.9366	0.0426	-0.018
Mof_H 	H 	0.5501	0.8753	0.0639	0.033
Mof_C 	C 	0.9653	0.9523	0.0738	-0.141
Mof_C 	C 	0.574	0.9961	0.9703	0.023
Mof_H 	H 	0.5317	0.9785	0.9392	0.02
Mof_C 	C 	0.6314	0.0809	0.9508	-0.143
Mof_C 	C 	0.976	0.885	0.1473	0.463
Mof_C 	C 	0.8987	0.0136	0.049	-0.016
Mof_H 	H 	0.8532	0.019	0.0771	0.04
Mof_C 	C 	0.6751	0.0947	0.5832	-0.129
Mof_C 	C 	0.7476	0.1056	0.5529	-0.021
Mof_H 	H 	0.7898	0.1428	0.578	0.05
Mof_O 	O 	0.9667	0.1519	0.8272	-0.503
Mof_C 	C 	0.98	0.0461	0.9456	-0.137
Mof_C 	C 	0.9084	0.068	0.9749	0.02
Mof_H 	H 	0.8696	0.1138	0.9491	0.037
Mof_C 	C 	0.0129	0.0917	0.8719	0.476
Mof_Tm	Tm	0.17833	0.11279	0.77328	1.943
Mof_Tm	Tm	0.47848	0.1595	0.75798	1.893
Mof_O 	O 	0.0792	0.1029	0.6951	-0.571
Mof_O 	O 	0.9171	0.9313	0.3605	-0.531
Mof_O 	O 	0.2509	0.0377	0.6694	-0.498
Mof_O 	O 	0.3038	0.7697	0.369	-0.477
Mof_O 	O 	0.2844	0.052	0.8314	-0.577
Mof_C 	C 	0.3203	0.061	0.6529	0.478
Mof_O 	O 	0.3683	0.1197	0.6962	-0.536
Mof_O 	O 	0.4079	0.0837	0.8635	-0.502
Mof_C 	C 	0.3386	0.0494	0.8776	0.518
Mof_C 	C 	0.3201	0.9951	0.9538	-0.167
Mof_C 	C 	0.2498	0.9475	0.9778	0.054
Mof_H 	H 	0.2052	0.9496	0.9483	0.003
Mof_C 	C 	0.3498	0.0198	0.5772	-0.159
Mof_S 	S 	0.29933	0.9076	0.52162	0.076
Mof_O 	O 	0.4244	0.8814	0.1723	-0.52
Mof_C 	C 	0.3621	0.8411	0.3798	0.469
Mof_O 	O 	0.3057	0.8042	0.2031	-0.488
Mof_O 	O 	0.4179	0.8496	0.3335	-0.564
Mof_C 	C 	0.3533	0.861	0.1591	0.452
Mof_S 	S 	0.38986	0.9795	0.02289	0.057
Mof_S 	S 	0.96172	0.0411	0.50787	0.074
Mof_O 	O 	0.964	0.1801	0.6606	-0.46
Mof_C 	C 	0.4158	0.0634	0.5426	0.003
Mof_H 	H 	0.4499	0.1247	0.5639	0.027
Mof_C 	C 	0.0347	0.0477	0.5738	-0.15
Mof_C 	C 	0.426	0.0039	0.4703	0.005
Mof_H 	H 	0.4683	0.0215	0.4392	0.023
Mof_C 	C 	0.3686	0.9191	0.4508	-0.147
Mof_C 	C 	0.024	0.115	0.6473	0.467
Mof_C 	C 	0.1013	0.9864	0.549	0.005
Mof_H 	H 	0.1468	0.981	0.5771	0.034
Mof_C 	C 	0.3249	0.9053	0.0832	-0.121
Mof_C 	C 	0.2524	0.8944	0.0529	-0.041
Mof_H 	H 	0.2102	0.8572	0.078	0.056
Mof_O 	O 	0.0333	0.8481	0.3272	-0.501
Mof_C 	C 	0.02	0.9539	0.4456	-0.139
Mof_C 	C 	0.0916	0.932	0.4749	0.002
Mof_H 	H 	0.1304	0.8862	0.4491	0.04
Mof_C 	C 	0.9871	0.9083	0.3719	0.473
Mof_Tm	Tm	0.32167	0.61279	0.27328	1.941
Mof_Tm	Tm	0.02152	0.6595	0.25798	1.893
Mof_O 	O 	0.4208	0.6029	0.1951	-0.57
Mof_O 	O 	0.5829	0.4313	0.8605	-0.529
Mof_O 	O 	0.2491	0.5377	0.1694	-0.497
Mof_O 	O 	0.1962	0.2697	0.869	-0.475
Mof_O 	O 	0.2156	0.552	0.3314	-0.577
Mof_C 	C 	0.1797	0.561	0.1529	0.474
Mof_O 	O 	0.1317	0.6197	0.1962	-0.535
Mof_O 	O 	0.0921	0.5837	0.3635	-0.504
Mof_C 	C 	0.1614	0.5494	0.3776	0.518
Mof_C 	C 	0.1799	0.4951	0.4538	-0.173
Mof_C 	C 	0.2502	0.4475	0.4778	0.036
Mof_H 	H 	0.2948	0.4496	0.4483	0.006
Mof_C 	C 	0.1502	0.5198	0.0772	-0.149
Mof_S 	S 	0.20067	0.4076	0.02162	0.06
Mof_O 	O 	0.0756	0.3814	0.6723	-0.521
Mof_C 	C 	0.1379	0.3411	0.8798	0.469
Mof_O 	O 	0.1943	0.3042	0.7031	-0.489
Mof_O 	O 	0.0821	0.3496	0.8335	-0.563
Mof_C 	C 	0.1467	0.361	0.6591	0.456
Mof_S 	S 	0.11014	0.4795	0.52289	0.072
Mof_S 	S 	0.53828	0.5411	0.00787	0.058
Mof_O 	O 	0.536	0.6801	0.1606	-0.46
Mof_C 	C 	0.0842	0.5634	0.0426	-0.02
Mof_H 	H 	0.0501	0.6247	0.0639	0.034
Mof_C 	C 	0.4653	0.5477	0.0738	-0.139
Mof_C 	C 	0.074	0.5039	0.9703	0.026
Mof_H 	H 	0.0317	0.5215	0.9392	0.02
Mof_C 	C 	0.1314	0.4191	0.9508	-0.143
Mof_C 	C 	0.476	0.615	0.1473	0.462
Mof_C 	C 	0.3987	0.4864	0.049	-0.02
Mof_H 	H 	0.3532	0.481	0.0771	0.041
Mof_C 	C 	0.1751	0.4053	0.5832	-0.129
Mof_C 	C 	0.2476	0.3944	0.5529	-0.021
Mof_H 	H 	0.2898	0.3572	0.578	0.05
Mof_O 	O 	0.4667	0.3481	0.8272	-0.503
Mof_C 	C 	0.48	0.4539	0.9456	-0.137
Mof_C 	C 	0.4084	0.432	0.9749	0.023
Mof_H 	H 	0.3696	0.3862	0.9491	0.036
Mof_C 	C 	0.5129	0.4083	0.8719	0.476
Mof_Tm	Tm	0.67833	0.38721	0.77328	1.944
Mof_Tm	Tm	0.97848	0.3405	0.75798	1.894
Mof_O 	O 	0.5792	0.3971	0.6951	-0.571
Mof_O 	O 	0.4171	0.5687	0.3605	-0.531
Mof_O 	O 	0.7509	0.4623	0.6694	-0.498
Mof_O 	O 	0.8038	0.7303	0.369	-0.477
Mof_O 	O 	0.7844	0.448	0.8314	-0.577
Mof_C 	C 	0.8203	0.439	0.6529	0.477
Mof_O 	O 	0.8683	0.3803	0.6962	-0.535
Mof_O 	O 	0.9079	0.4163	0.8635	-0.502
Mof_C 	C 	0.8386	0.4506	0.8776	0.518
Mof_C 	C 	0.8201	0.5049	0.9538	-0.168
Mof_C 	C 	0.7498	0.5525	0.9778	0.053
Mof_H 	H 	0.7052	0.5504	0.9483	0.003
Mof_C 	C 	0.8498	0.4802	0.5772	-0.157
Mof_S 	S 	0.79933	0.5924	0.52162	0.075
Mof_O 	O 	0.9244	0.6186	0.1723	-0.521
Mof_C 	C 	0.8621	0.6589	0.3798	0.469
Mof_O 	O 	0.8057	0.6958	0.2031	-0.488
Mof_O 	O 	0.9179	0.6504	0.3335	-0.564
Mof_C 	C 	0.8533	0.639	0.1591	0.453
Mof_S 	S 	0.88986	0.5205	0.02289	0.059
Mof_S 	S 	0.46172	0.4589	0.50787	0.073
Mof_O 	O 	0.464	0.3199	0.6606	-0.46
Mof_C 	C 	0.9158	0.4366	0.5426	0.002
Mof_H 	H 	0.9499	0.3753	0.5639	0.028
Mof_C 	C 	0.5347	0.4523	0.5738	-0.147
Mof_C 	C 	0.926	0.4961	0.4703	0.006
Mof_H 	H 	0.9683	0.4785	0.4392	0.023
Mof_C 	C 	0.8686	0.5809	0.4508	-0.148
Mof_C 	C 	0.524	0.385	0.6473	0.466
Mof_C 	C 	0.6013	0.5136	0.549	0.001
Mof_H 	H 	0.6468	0.519	0.5771	0.035
Mof_C 	C 	0.8249	0.5947	0.0832	-0.121
Mof_C 	C 	0.7524	0.6056	0.0529	-0.04
Mof_H 	H 	0.7102	0.6428	0.078	0.055
Mof_O 	O 	0.5333	0.6519	0.3272	-0.503
Mof_C 	C 	0.52	0.5461	0.4456	-0.142
Mof_C 	C 	0.5916	0.568	0.4749	0.005
Mof_H 	H 	0.6304	0.6138	0.4491	0.039
Mof_C 	C 	0.4871	0.5917	0.3719	0.475
_end
