data_functionalizedCrystal
_audit_creation_method	'EQeq! by Chris Wilmer'
_symmetry_space_group_name_H-M	'P1'
_symmetry_Int_Tables_number	1
_symmetry_cell_setting	triclinic
loop_
_symmetry_equiv_pos_as_xyz
  x,y,z
_cell_length_a	16.0121
_cell_length_b	7.5502
_cell_length_c	27.8153
_cell_angle_alpha	90
_cell_angle_beta	99.733
_cell_angle_gamma	90
loop_
_atom_site_label
_atom_site_type_symbol
_atom_site_fract_x
_atom_site_fract_y
_atom_site_fract_z
_atom_site_charge
Mof_Cd	Cd	0.21561	0.52604	0.08014	0.489
Mof_Cd	Cd	0.151	0.04265	0.04651	0.476
Mof_O 	O 	0.17731	0.2637	0.10964	-0.274
Mof_O 	O 	0.30694	0.3182	0.14816	-0.233
Mof_O 	O 	0.24574	0.9072	0.10858	-0.26
Mof_O 	O 	0.21943	0.6697	0.15094	-0.243
Mof_O 	O 	0.90343	0.199	0.44264	-0.269
Mof_O 	O 	0.96237	0.4465	0.42239	-0.23
Mof_O 	O 	0.08121	0.24	0.49984	-0.243
Mof_O 	O 	0.17962	0.0306	0.50002	-0.258
Mof_N 	N 	0.34271	0.6081	0.05865	-0.15
Mof_N 	N 	0.72262	0.9055	0.98336	-0.145
Mof_F 	F 	0.3236	0.7628	0.32262	-0.47
Mof_F 	F 	0.30796	0.9884	0.3669	-0.53
Mof_F 	F 	0.2751	0.7291	0.38927	-0.496
Mof_F 	F 	0.1155	0.6193	0.35374	-0.484
Mof_F 	F 	0.0692	0.6912	0.27943	-0.517
Mof_F 	F 	0.1886	0.5577	0.29804	-0.483
Mof_C 	C 	0.2387	0.2412	0.14517	0.324
Mof_C 	C 	0.2227	0.131	0.18848	-0.103
Mof_C 	C 	0.2166	0.9473	0.18939	0.086
Mof_C 	C 	0.203	0.862	0.23186	-0.215
Mof_H 	H 	0.2005	0.739	0.2324	0.2
Mof_C 	C 	0.1932	0.9561	0.27338	0.354
Mof_C 	C 	0.2002	0.1394	0.2721	-0.249
Mof_H 	H 	0.1952	0.2052	0.2997	0.206
Mof_C 	C 	0.2146	0.2256	0.23041	0.155
Mof_H 	H 	0.2188	0.3484	0.2304	0.057
Mof_C 	C 	0.2283	0.8338	0.14643	0.269
Mof_C 	C 	0.1822	0.864	0.32154	-0.506
Mof_C 	C 	0.1385	0.6823	0.31327	0.983
Mof_C 	C 	0.2728	0.837	0.35067	0.983
Mof_C 	C 	0.1263	0.9753	0.35052	0.363
Mof_C 	C 	0.0524	0.0515	0.32544	-0.278
Mof_H 	H 	0.0384	0.0363	0.2919	0.217
Mof_C 	C 	0.9999	0.149	0.34964	0.187
Mof_H 	H 	0.9508	0.1986	0.3322	0.023
Mof_C 	C 	0.0193	0.1744	0.39966	-0.122
Mof_C 	C 	0.0921	0.0966	0.42539	0.097
Mof_C 	C 	0.1446	0.9972	0.40051	-0.229
Mof_H 	H 	0.193	0.9447	0.4179	0.194
Mof_C 	C 	0.9586	0.2796	0.42417	0.339
Mof_C 	C 	0.1189	0.1235	0.47959	0.272
Mof_C 	C 	0.3458	0.6583	0.01294	0.103
Mof_H 	H 	0.2963	0.6531	0.99	0.047
Mof_C 	C 	0.4187	0.7174	0.99804	-0.145
Mof_H 	H 	0.4172	0.7507	0.9657	0.131
Mof_C 	C 	0.4941	0.7277	0.03049	0.089
Mof_C 	C 	0.4905	0.6769	0.07762	-0.146
Mof_H 	H 	0.5389	0.6816	0.1014	0.141
Mof_C 	C 	0.4145	0.6187	0.08959	0.108
Mof_H 	H 	0.4142	0.5848	0.1217	0.042
Mof_C 	C 	0.5732	0.7917	0.01466	0.066
Mof_C 	C 	0.5774	0.817	0.96571	-0.128
Mof_H 	H 	0.5299	0.7956	0.9422	0.106
Mof_C 	C 	0.6518	0.8738	0.95162	0.086
Mof_H 	H 	0.6525	0.8907	0.9186	0.039
Mof_C 	C 	0.7184	0.8839	0.03067	0.096
Mof_H 	H 	0.7667	0.9074	0.0534	0.062
Mof_C 	C 	0.6464	0.8287	0.04776	-0.114
Mof_H 	H 	0.647	0.8164	0.0811	0.138
Mof_Cd	Cd	0.78439	0.02604	0.41986	0.489
Mof_Cd	Cd	0.849	0.54265	0.45349	0.476
Mof_O 	O 	0.82269	0.7637	0.39036	-0.276
Mof_O 	O 	0.69306	0.8182	0.35184	-0.235
Mof_O 	O 	0.75426	0.4072	0.39142	-0.26
Mof_O 	O 	0.78057	0.1697	0.34906	-0.244
Mof_O 	O 	0.09657	0.699	0.05736	-0.27
Mof_O 	O 	0.03763	0.9465	0.07761	-0.231
Mof_O 	O 	0.91879	0.74	0.00016	-0.244
Mof_O 	O 	0.82038	0.5306	0.99998	-0.26
Mof_N 	N 	0.65729	0.1081	0.44135	-0.152
Mof_N 	N 	0.27738	0.4055	0.51664	-0.146
Mof_F 	F 	0.6764	0.2628	0.17738	-0.47
Mof_F 	F 	0.69204	0.4884	0.1331	-0.53
Mof_F 	F 	0.7249	0.2291	0.11073	-0.496
Mof_F 	F 	0.8845	0.1193	0.14626	-0.483
Mof_F 	F 	0.9308	0.1912	0.22057	-0.516
Mof_F 	F 	0.8114	0.0577	0.20196	-0.482
Mof_C 	C 	0.7613	0.7412	0.35483	0.325
Mof_C 	C 	0.7773	0.631	0.31152	-0.105
Mof_C 	C 	0.7834	0.4473	0.31061	0.088
Mof_C 	C 	0.797	0.362	0.26814	-0.216
Mof_H 	H 	0.7995	0.239	0.2676	0.2
Mof_C 	C 	0.8068	0.4561	0.22662	0.356
Mof_C 	C 	0.7998	0.6394	0.2279	-0.251
Mof_H 	H 	0.8048	0.7052	0.2003	0.206
Mof_C 	C 	0.7854	0.7256	0.26959	0.157
Mof_H 	H 	0.7812	0.8484	0.2696	0.056
Mof_C 	C 	0.7717	0.3338	0.35357	0.268
Mof_C 	C 	0.8178	0.364	0.17846	-0.507
Mof_C 	C 	0.8615	0.1823	0.18673	0.983
Mof_C 	C 	0.7272	0.337	0.14933	0.983
Mof_C 	C 	0.8737	0.4753	0.14948	0.363
Mof_C 	C 	0.9476	0.5515	0.17456	-0.277
Mof_H 	H 	0.9616	0.5363	0.2081	0.217
Mof_C 	C 	0.0001	0.649	0.15036	0.185
Mof_H 	H 	0.0492	0.6986	0.1678	0.023
Mof_C 	C 	0.9807	0.6744	0.10034	-0.12
Mof_C 	C 	0.9079	0.5966	0.07461	0.096
Mof_C 	C 	0.8554	0.4972	0.09949	-0.228
Mof_H 	H 	0.807	0.4447	0.0821	0.194
Mof_C 	C 	0.0414	0.7796	0.07583	0.338
Mof_C 	C 	0.8811	0.6235	0.02041	0.273
Mof_C 	C 	0.6542	0.1583	0.48706	0.104
Mof_H 	H 	0.7037	0.1531	0.51	0.047
Mof_C 	C 	0.5813	0.2174	0.50196	-0.146
Mof_H 	H 	0.5828	0.2507	0.5343	0.131
Mof_C 	C 	0.5059	0.2277	0.46951	0.089
Mof_C 	C 	0.5095	0.1769	0.42238	-0.146
Mof_H 	H 	0.4611	0.1816	0.3986	0.141
Mof_C 	C 	0.5855	0.1187	0.41041	0.108
Mof_H 	H 	0.5858	0.0848	0.3783	0.042
Mof_C 	C 	0.4268	0.2917	0.48534	0.066
Mof_C 	C 	0.4226	0.317	0.53429	-0.128
Mof_H 	H 	0.4701	0.2956	0.5578	0.106
Mof_C 	C 	0.3482	0.3738	0.54838	0.086
Mof_H 	H 	0.3475	0.3907	0.5814	0.039
Mof_C 	C 	0.2816	0.3839	0.46933	0.095
Mof_H 	H 	0.2333	0.4074	0.4466	0.063
Mof_C 	C 	0.3536	0.3287	0.45224	-0.114
Mof_H 	H 	0.353	0.3164	0.4189	0.138
Mof_Cd	Cd	0.78439	0.47396	0.91986	0.488
Mof_Cd	Cd	0.849	0.95735	0.95349	0.475
Mof_O 	O 	0.82269	0.7363	0.89036	-0.275
Mof_O 	O 	0.69306	0.6818	0.85184	-0.234
Mof_O 	O 	0.75426	0.0928	0.89142	-0.261
Mof_O 	O 	0.78057	0.3303	0.84906	-0.244
Mof_O 	O 	0.09657	0.801	0.55736	-0.27
Mof_O 	O 	0.03763	0.5535	0.57761	-0.231
Mof_O 	O 	0.91879	0.76	0.50016	-0.244
Mof_O 	O 	0.82038	0.9694	0.49998	-0.259
Mof_N 	N 	0.65729	0.3919	0.94135	-0.151
Mof_N 	N 	0.27738	0.0945	0.01664	-0.146
Mof_F 	F 	0.6764	0.2372	0.67738	-0.47
Mof_F 	F 	0.69204	0.0116	0.6331	-0.53
Mof_F 	F 	0.7249	0.2709	0.61073	-0.496
Mof_F 	F 	0.8845	0.3807	0.64626	-0.484
Mof_F 	F 	0.9308	0.3088	0.72057	-0.517
Mof_F 	F 	0.8114	0.4423	0.70196	-0.483
Mof_C 	C 	0.7613	0.7588	0.85483	0.324
Mof_C 	C 	0.7773	0.869	0.81152	-0.103
Mof_C 	C 	0.7834	0.0527	0.81061	0.086
Mof_C 	C 	0.797	0.138	0.76814	-0.215
Mof_H 	H 	0.7995	0.261	0.7676	0.2
Mof_C 	C 	0.8068	0.0439	0.72662	0.354
Mof_C 	C 	0.7998	0.8606	0.7279	-0.249
Mof_H 	H 	0.8048	0.7948	0.7003	0.206
Mof_C 	C 	0.7854	0.7744	0.76959	0.155
Mof_H 	H 	0.7812	0.6516	0.7696	0.057
Mof_C 	C 	0.7717	0.1662	0.85357	0.269
Mof_C 	C 	0.8178	0.136	0.67846	-0.506
Mof_C 	C 	0.8615	0.3177	0.68673	0.983
Mof_C 	C 	0.7272	0.163	0.64933	0.983
Mof_C 	C 	0.8737	0.0247	0.64948	0.363
Mof_C 	C 	0.9476	0.9485	0.67456	-0.278
Mof_H 	H 	0.9616	0.9637	0.7081	0.217
Mof_C 	C 	0.0001	0.851	0.65036	0.187
Mof_H 	H 	0.0492	0.8014	0.6678	0.023
Mof_C 	C 	0.9807	0.8256	0.60034	-0.122
Mof_C 	C 	0.9079	0.9034	0.57461	0.097
Mof_C 	C 	0.8554	0.0028	0.59949	-0.229
Mof_H 	H 	0.807	0.0553	0.5821	0.194
Mof_C 	C 	0.0414	0.7204	0.57583	0.339
Mof_C 	C 	0.8811	0.8765	0.52041	0.272
Mof_C 	C 	0.6542	0.3417	0.98706	0.103
Mof_H 	H 	0.7037	0.3469	0.01	0.047
Mof_C 	C 	0.5813	0.2826	0.00196	-0.145
Mof_H 	H 	0.5828	0.2493	0.0343	0.131
Mof_C 	C 	0.5059	0.2723	0.96951	0.089
Mof_C 	C 	0.5095	0.3231	0.92238	-0.146
Mof_H 	H 	0.4611	0.3184	0.8986	0.141
Mof_C 	C 	0.5855	0.3813	0.91041	0.108
Mof_H 	H 	0.5858	0.4152	0.8783	0.042
Mof_C 	C 	0.4268	0.2083	0.98534	0.066
Mof_C 	C 	0.4226	0.183	0.03429	-0.128
Mof_H 	H 	0.4701	0.2044	0.0578	0.106
Mof_C 	C 	0.3482	0.1262	0.04838	0.086
Mof_H 	H 	0.3475	0.1093	0.0814	0.039
Mof_C 	C 	0.2816	0.1161	0.96933	0.096
Mof_H 	H 	0.2333	0.0926	0.9466	0.062
Mof_C 	C 	0.3536	0.1713	0.95224	-0.114
Mof_H 	H 	0.353	0.1836	0.9189	0.138
Mof_Cd	Cd	0.21561	0.97396	0.58014	0.489
Mof_Cd	Cd	0.151	0.45735	0.54651	0.476
Mof_O 	O 	0.17731	0.2363	0.60964	-0.276
Mof_O 	O 	0.30694	0.1818	0.64816	-0.235
Mof_O 	O 	0.24574	0.5928	0.60858	-0.26
Mof_O 	O 	0.21943	0.8303	0.65094	-0.244
Mof_O 	O 	0.90343	0.301	0.94264	-0.27
Mof_O 	O 	0.96237	0.0535	0.92239	-0.231
Mof_O 	O 	0.08121	0.26	0.99984	-0.244
Mof_O 	O 	0.17962	0.4694	2e-05	-0.26
Mof_N 	N 	0.34271	0.8919	0.55865	-0.152
Mof_N 	N 	0.72262	0.5945	0.48336	-0.146
Mof_F 	F 	0.3236	0.7372	0.82262	-0.47
Mof_F 	F 	0.30796	0.5116	0.8669	-0.53
Mof_F 	F 	0.2751	0.7709	0.88927	-0.496
Mof_F 	F 	0.1155	0.8807	0.85374	-0.483
Mof_F 	F 	0.0692	0.8088	0.77943	-0.516
Mof_F 	F 	0.1886	0.9423	0.79804	-0.482
Mof_C 	C 	0.2387	0.2588	0.64517	0.325
Mof_C 	C 	0.2227	0.369	0.68848	-0.105
Mof_C 	C 	0.2166	0.5527	0.68939	0.088
Mof_C 	C 	0.203	0.638	0.73186	-0.216
Mof_H 	H 	0.2005	0.761	0.7324	0.2
Mof_C 	C 	0.1932	0.5439	0.77338	0.356
Mof_C 	C 	0.2002	0.3606	0.7721	-0.251
Mof_H 	H 	0.1952	0.2948	0.7997	0.206
Mof_C 	C 	0.2146	0.2744	0.73041	0.157
Mof_H 	H 	0.2188	0.1516	0.7304	0.056
Mof_C 	C 	0.2283	0.6662	0.64643	0.268
Mof_C 	C 	0.1822	0.636	0.82154	-0.507
Mof_C 	C 	0.1385	0.8177	0.81327	0.983
Mof_C 	C 	0.2728	0.663	0.85067	0.983
Mof_C 	C 	0.1263	0.5247	0.85052	0.363
Mof_C 	C 	0.0524	0.4485	0.82544	-0.277
Mof_H 	H 	0.0384	0.4637	0.7919	0.217
Mof_C 	C 	0.9999	0.351	0.84964	0.185
Mof_H 	H 	0.9508	0.3014	0.8322	0.023
Mof_C 	C 	0.0193	0.3256	0.89966	-0.12
Mof_C 	C 	0.0921	0.4034	0.92539	0.096
Mof_C 	C 	0.1446	0.5028	0.90051	-0.228
Mof_H 	H 	0.193	0.5553	0.9179	0.194
Mof_C 	C 	0.9586	0.2204	0.92417	0.338
Mof_C 	C 	0.1189	0.3765	0.97959	0.273
Mof_C 	C 	0.3458	0.8417	0.51294	0.104
Mof_H 	H 	0.2963	0.8469	0.49	0.047
Mof_C 	C 	0.4187	0.7826	0.49804	-0.146
Mof_H 	H 	0.4172	0.7493	0.4657	0.131
Mof_C 	C 	0.4941	0.7723	0.53049	0.089
Mof_C 	C 	0.4905	0.8231	0.57762	-0.146
Mof_H 	H 	0.5389	0.8184	0.6014	0.141
Mof_C 	C 	0.4145	0.8813	0.58959	0.108
Mof_H 	H 	0.4142	0.9152	0.6217	0.042
Mof_C 	C 	0.5732	0.7083	0.51466	0.066
Mof_C 	C 	0.5774	0.683	0.46571	-0.128
Mof_H 	H 	0.5299	0.7044	0.4422	0.106
Mof_C 	C 	0.6518	0.6262	0.45162	0.086
Mof_H 	H 	0.6525	0.6093	0.4186	0.039
Mof_C 	C 	0.7184	0.6161	0.53067	0.095
Mof_H 	H 	0.7667	0.5926	0.5534	0.063
Mof_C 	C 	0.6464	0.6713	0.54776	-0.114
Mof_H 	H 	0.647	0.6836	0.5811	0.138
_end
