data_functionalizedCrystal
_audit_creation_method	'EQeq! by Chris Wilmer'
_symmetry_space_group_name_H-M	'P1'
_symmetry_Int_Tables_number	1
_symmetry_cell_setting	triclinic
loop_
_symmetry_equiv_pos_as_xyz
  x,y,z
_cell_length_a	8.9317
_cell_length_b	12.1579
_cell_length_c	16.9148
_cell_angle_alpha	90
_cell_angle_beta	90
_cell_angle_gamma	108.877
loop_
_atom_site_label
_atom_site_type_symbol
_atom_site_fract_x
_atom_site_fract_y
_atom_site_fract_z
_atom_site_charge
Mof_La	La	0.92996	0.95133	0.61635	2.186
Mof_La	La	0.57004	0.04867	0.11635	2.198
Mof_La	La	0.07004	0.04867	0.38365	2.187
Mof_La	La	0.42996	0.95133	0.88365	2.199
Mof_H 	H 	0.5986	0.6482	0.8082	0.1
Mof_H 	H 	0.4076	0.4732	0.7756	0.06
Mof_H 	H 	0.624	0.4695	0.5688	0.055
Mof_H 	H 	0.8165	0.6445	0.6019	0.08
Mof_H 	H 	0.3789	0.365	0.5369	0.124
Mof_H 	H 	0.4705	0.2845	0.57	0.125
Mof_H 	H 	0.8241	0.8131	0.8334	0.11
Mof_H 	H 	0.9118	0.7212	0.8211	0.115
Mof_H 	H 	0.3772	0.857	0.4913	0.092
Mof_H 	H 	0.2449	0.7937	0.4305	0.076
Mof_H 	H 	0.199	0.503	0.579	0.103
Mof_H 	H 	0.009	0.661	0.427	0.049
Mof_H 	H 	0.9014	0.3518	0.3082	0.1
Mof_H 	H 	0.0924	0.5268	0.2756	0.062
Mof_H 	H 	0.876	0.5305	0.0688	0.055
Mof_H 	H 	0.6835	0.3555	0.1019	0.081
Mof_H 	H 	0.1211	0.635	0.0369	0.125
Mof_H 	H 	0.0295	0.7155	0.07	0.127
Mof_H 	H 	0.6759	0.1869	0.3334	0.109
Mof_H 	H 	0.5882	0.2788	0.3211	0.114
Mof_H 	H 	0.1228	0.143	0.9913	0.087
Mof_H 	H 	0.2551	0.2063	0.9305	0.069
Mof_H 	H 	0.301	0.497	0.079	0.103
Mof_H 	H 	0.491	0.339	0.927	0.048
Mof_H 	H 	0.4014	0.3518	0.1918	0.1
Mof_H 	H 	0.5924	0.5268	0.2244	0.06
Mof_H 	H 	0.376	0.5305	0.4312	0.055
Mof_H 	H 	0.1835	0.3555	0.3981	0.08
Mof_H 	H 	0.6211	0.635	0.4631	0.124
Mof_H 	H 	0.5295	0.7155	0.43	0.125
Mof_H 	H 	0.1759	0.1869	0.1666	0.11
Mof_H 	H 	0.0882	0.2788	0.1789	0.115
Mof_H 	H 	0.6228	0.143	0.5087	0.092
Mof_H 	H 	0.7551	0.2063	0.5695	0.076
Mof_H 	H 	0.801	0.497	0.421	0.103
Mof_H 	H 	0.991	0.339	0.573	0.049
Mof_H 	H 	0.0986	0.6482	0.6918	0.1
Mof_H 	H 	0.9076	0.4732	0.7244	0.062
Mof_H 	H 	0.124	0.4695	0.9312	0.055
Mof_H 	H 	0.3165	0.6445	0.8981	0.081
Mof_H 	H 	0.8789	0.365	0.9631	0.125
Mof_H 	H 	0.9705	0.2845	0.93	0.127
Mof_H 	H 	0.3241	0.8131	0.6666	0.109
Mof_H 	H 	0.4118	0.7212	0.6789	0.114
Mof_H 	H 	0.8772	0.857	0.0087	0.087
Mof_H 	H 	0.7449	0.7937	0.0695	0.069
Mof_H 	H 	0.699	0.503	0.921	0.103
Mof_H 	H 	0.509	0.661	0.073	0.048
Mof_C 	C 	0.7228	0.66359	0.70683	0.187
Mof_C 	C 	0.6029	0.6128	0.75995	-0.146
Mof_C 	C 	0.4889	0.5081	0.74025	-0.051
Mof_C 	C 	0.4954	0.4555	0.66856	0.098
Mof_C 	C 	0.6181	0.5056	0.61662	-0.061
Mof_C 	C 	0.7332	0.6106	0.63635	-0.137
Mof_C 	C 	0.3755	0.3059	0.57602	-0.279
Mof_C 	C 	0.232	0.2001	0.56075	0.524
Mof_C 	C 	0.8981	0.7915	0.79991	-0.24
Mof_C 	C 	0.0547	0.8878	0.79848	0.479
Mof_C 	C 	0.1573	0.8537	0.52696	0.445
Mof_C 	C 	0.2706	0.8028	0.4864	-0.212
Mof_C 	C 	0.1308	0.6003	0.5073	0.147
Mof_C 	C 	0.1206	0.5012	0.5503	-0.145
Mof_C 	C 	0.0078	0.5982	0.4566	-0.065
Mof_C 	C 	0.7772	0.33641	0.20683	0.187
Mof_C 	C 	0.8971	0.3872	0.25995	-0.141
Mof_C 	C 	0.0111	0.4919	0.24025	-0.056
Mof_C 	C 	0.0046	0.5445	0.16856	0.098
Mof_C 	C 	0.8819	0.4944	0.11662	-0.06
Mof_C 	C 	0.7668	0.3894	0.13635	-0.137
Mof_C 	C 	0.1245	0.6941	0.07602	-0.283
Mof_C 	C 	0.268	0.7999	0.06075	0.531
Mof_C 	C 	0.6019	0.2085	0.29991	-0.229
Mof_C 	C 	0.4453	0.1122	0.29848	0.471
Mof_C 	C 	0.3427	0.1463	0.02696	0.425
Mof_C 	C 	0.2294	0.1972	0.9864	-0.192
Mof_C 	C 	0.3692	0.3997	0.0073	0.145
Mof_C 	C 	0.3794	0.4988	0.0503	-0.145
Mof_C 	C 	0.4922	0.4018	0.9566	-0.064
Mof_C 	C 	0.2772	0.33641	0.29317	0.187
Mof_C 	C 	0.3971	0.3872	0.24005	-0.146
Mof_C 	C 	0.5111	0.4919	0.25975	-0.051
Mof_C 	C 	0.5046	0.5445	0.33144	0.098
Mof_C 	C 	0.3819	0.4944	0.38338	-0.061
Mof_C 	C 	0.2668	0.3894	0.36365	-0.137
Mof_C 	C 	0.6245	0.6941	0.42398	-0.279
Mof_C 	C 	0.768	0.7999	0.43925	0.524
Mof_C 	C 	0.1019	0.2085	0.20009	-0.24
Mof_C 	C 	0.9453	0.1122	0.20152	0.479
Mof_C 	C 	0.8427	0.1463	0.47304	0.445
Mof_C 	C 	0.7294	0.1972	0.5136	-0.212
Mof_C 	C 	0.8692	0.3997	0.4927	0.147
Mof_C 	C 	0.8794	0.4988	0.4497	-0.145
Mof_C 	C 	0.9922	0.4018	0.5434	-0.065
Mof_C 	C 	0.2228	0.66359	0.79317	0.187
Mof_C 	C 	0.1029	0.6128	0.74005	-0.141
Mof_C 	C 	0.9889	0.5081	0.75975	-0.056
Mof_C 	C 	0.9954	0.4555	0.83144	0.098
Mof_C 	C 	0.1181	0.5056	0.88338	-0.06
Mof_C 	C 	0.2332	0.6106	0.86365	-0.137
Mof_C 	C 	0.8755	0.3059	0.92398	-0.283
Mof_C 	C 	0.732	0.2001	0.93925	0.531
Mof_C 	C 	0.3981	0.7915	0.70009	-0.229
Mof_C 	C 	0.5547	0.8878	0.70152	0.471
Mof_C 	C 	0.6573	0.8537	0.97304	0.425
Mof_C 	C 	0.7706	0.8028	0.0136	-0.192
Mof_C 	C 	0.6308	0.6003	0.9927	0.145
Mof_C 	C 	0.6206	0.5012	0.9497	-0.145
Mof_C 	C 	0.5078	0.5982	0.0434	-0.064
Mof_O 	O 	0.8379	0.77133	0.72073	-0.312
Mof_O 	O 	0.1338	0.93978	0.49427	-0.613
Mof_O 	O 	0.0967	0.8146	0.59143	-0.454
Mof_O 	O 	0.2667	0.69334	0.51789	-0.181
Mof_O 	O 	0.0898	0.95193	0.73837	-0.521
Mof_O 	O 	0.3739	0.35262	0.6525	-0.151
Mof_O 	O 	0.1608	0.13895	0.61698	-0.524
Mof_O 	O 	0.2017	0.18276	0.48899	-0.546
Mof_O 	O 	0.1393	0.89933	0.85847	-0.517
Mof_O 	O 	0.6621	0.22867	0.22073	-0.312
Mof_O 	O 	0.3662	0.06022	0.99427	-0.609
Mof_O 	O 	0.4033	0.1854	0.09143	-0.454
Mof_O 	O 	0.2333	0.30666	0.01789	-0.189
Mof_O 	O 	0.4102	0.04807	0.23837	-0.526
Mof_O 	O 	0.1261	0.64738	0.1525	-0.15
Mof_O 	O 	0.3392	0.86105	0.11698	-0.522
Mof_O 	O 	0.2983	0.81724	0.98899	-0.55
Mof_O 	O 	0.3607	0.10067	0.35847	-0.517
Mof_O 	O 	0.1621	0.22867	0.27927	-0.312
Mof_O 	O 	0.8662	0.06022	0.50573	-0.613
Mof_O 	O 	0.9033	0.1854	0.40857	-0.454
Mof_O 	O 	0.7333	0.30666	0.48211	-0.181
Mof_O 	O 	0.9102	0.04807	0.26163	-0.521
Mof_O 	O 	0.6261	0.64738	0.3475	-0.151
Mof_O 	O 	0.8392	0.86105	0.38302	-0.524
Mof_O 	O 	0.7983	0.81724	0.51101	-0.546
Mof_O 	O 	0.8607	0.10067	0.14153	-0.517
Mof_O 	O 	0.3379	0.77133	0.77927	-0.312
Mof_O 	O 	0.6338	0.93978	0.00573	-0.609
Mof_O 	O 	0.5967	0.8146	0.90857	-0.454
Mof_O 	O 	0.7667	0.69334	0.98211	-0.189
Mof_O 	O 	0.5898	0.95193	0.76163	-0.526
Mof_O 	O 	0.8739	0.35262	0.8475	-0.15
Mof_O 	O 	0.6608	0.13895	0.88302	-0.522
Mof_O 	O 	0.7017	0.18276	0.01101	-0.55
Mof_O 	O 	0.6393	0.89933	0.64153	-0.517
_end
