data_functionalizedCrystal
_audit_creation_method	'EQeq! by Chris Wilmer'
_symmetry_space_group_name_H-M	'P1'
_symmetry_Int_Tables_number	1
_symmetry_cell_setting	triclinic
loop_
_symmetry_equiv_pos_as_xyz
  x,y,z
_cell_length_a	9.0518
_cell_length_b	16.8846
_cell_length_c	16.8846
_cell_angle_alpha	94.6078
_cell_angle_beta	92.9178
_cell_angle_gamma	92.9178
loop_
_atom_site_label
_atom_site_type_symbol
_atom_site_fract_x
_atom_site_fract_y
_atom_site_fract_z
_atom_site_charge
Mof_Cu	Cu	0.12684	0.83266	0.6876	0.899
Mof_Cu	Cu	0.37316	0.3124	0.16734	0.9
Mof_Cu	Cu	0.87316	0.16734	0.3124	0.899
Mof_Cu	Cu	0.62684	0.6876	0.83266	0.9
Mof_H 	H 	0.0877	0.7213	0.5829	0.107
Mof_H 	H 	0.0203	0.7921	0.5517	0.095
Mof_H 	H 	0.8638	0.6767	0.5937	0.05
Mof_H 	H 	0.661	0.7591	0.5983	0.09
Mof_H 	H 	0.7597	0.7817	0.5267	0.082
Mof_H 	H 	0.9063	0.9111	0.5377	0.083
Mof_H 	H 	0.9144	0.0444	0.5892	-0.009
Mof_H 	H 	0.7815	0.0813	0.6967	0.104
Mof_H 	H 	0.6434	0.988	0.7574	0.015
Mof_H 	H 	0.6369	0.8554	0.7112	0.106
Mof_H 	H 	0.22	0.0035	0.6647	-0.002
Mof_H 	H 	0.3771	0.0739	0.5891	0.068
Mof_H 	H 	0.3292	0.8007	0.5593	-0.006
Mof_H 	H 	0.4873	0.8662	0.4806	0.067
Mof_H 	H 	0.9704	0.9406	0.792	0.004
Mof_H 	H 	0.0114	0.0346	0.896	0.098
Mof_H 	H 	0.3918	0.8921	0.7973	0.012
Mof_H 	H 	0.4449	0.99	0.9006	0.086
Mof_H 	H 	0.4123	0.4171	0.2787	0.107
Mof_H 	H 	0.4797	0.4483	0.2079	0.095
Mof_H 	H 	0.6362	0.4063	0.3233	0.05
Mof_H 	H 	0.839	0.4017	0.2409	0.09
Mof_H 	H 	0.7403	0.4733	0.2183	0.082
Mof_H 	H 	0.5937	0.4623	0.0889	0.083
Mof_H 	H 	0.5856	0.4108	0.9556	-0.009
Mof_H 	H 	0.7185	0.3033	0.9187	0.104
Mof_H 	H 	0.8566	0.2426	0.012	0.015
Mof_H 	H 	0.8631	0.2888	0.1446	0.106
Mof_H 	H 	0.28	0.3353	0.9965	-0.004
Mof_H 	H 	0.1229	0.4109	0.9261	0.07
Mof_H 	H 	0.1708	0.4407	0.1993	-0.006
Mof_H 	H 	0.0127	0.5194	0.1338	0.067
Mof_H 	H 	0.5296	0.208	0.0594	0.001
Mof_H 	H 	0.4886	0.104	0.9654	0.099
Mof_H 	H 	0.1082	0.2027	0.1079	0.012
Mof_H 	H 	0.0551	0.0994	0.01	0.086
Mof_H 	H 	0.9123	0.2787	0.4171	0.107
Mof_H 	H 	0.9797	0.2079	0.4483	0.095
Mof_H 	H 	0.1362	0.3233	0.4063	0.05
Mof_H 	H 	0.339	0.2409	0.4017	0.09
Mof_H 	H 	0.2403	0.2183	0.4733	0.082
Mof_H 	H 	0.0937	0.0889	0.4623	0.083
Mof_H 	H 	0.0856	0.9556	0.4108	-0.009
Mof_H 	H 	0.2185	0.9187	0.3033	0.104
Mof_H 	H 	0.3566	0.012	0.2426	0.015
Mof_H 	H 	0.3631	0.1446	0.2888	0.106
Mof_H 	H 	0.78	0.9965	0.3353	-0.002
Mof_H 	H 	0.6229	0.9261	0.4109	0.068
Mof_H 	H 	0.6708	0.1993	0.4407	-0.006
Mof_H 	H 	0.5127	0.1338	0.5194	0.067
Mof_H 	H 	0.0296	0.0594	0.208	0.004
Mof_H 	H 	0.9886	0.9654	0.104	0.098
Mof_H 	H 	0.6082	0.1079	0.2027	0.012
Mof_H 	H 	0.5551	0.01	0.0994	0.086
Mof_H 	H 	0.5877	0.5829	0.7213	0.107
Mof_H 	H 	0.5203	0.5517	0.7921	0.095
Mof_H 	H 	0.3638	0.5937	0.6767	0.05
Mof_H 	H 	0.161	0.5983	0.7591	0.09
Mof_H 	H 	0.2597	0.5267	0.7817	0.082
Mof_H 	H 	0.4063	0.5377	0.9111	0.083
Mof_H 	H 	0.4144	0.5892	0.0444	-0.009
Mof_H 	H 	0.2815	0.6967	0.0813	0.104
Mof_H 	H 	0.1434	0.7574	0.988	0.015
Mof_H 	H 	0.1369	0.7112	0.8554	0.106
Mof_H 	H 	0.72	0.6647	0.0035	-0.004
Mof_H 	H 	0.8771	0.5891	0.0739	0.07
Mof_H 	H 	0.8292	0.5593	0.8007	-0.006
Mof_H 	H 	0.9873	0.4806	0.8662	0.067
Mof_H 	H 	0.4704	0.792	0.9406	0.001
Mof_H 	H 	0.5114	0.896	0.0346	0.099
Mof_H 	H 	0.8918	0.7973	0.8921	0.012
Mof_H 	H 	0.9449	0.9006	0.99	0.086
Mof_C 	C 	0.8792	0.73526	0.70674	0.334
Mof_C 	C 	0.882	0.73294	0.61686	-0.072
Mof_C 	C 	0.7577	0.7835	0.5853	-0.208
Mof_C 	C 	0.7683	0.8692	0.6184	0.142
Mof_C 	C 	0.8521	0.9261	0.5827	-0.203
Mof_C 	C 	0.8565	0.0054	0.6132	0.094
Mof_C 	C 	0.7791	0.027	0.6768	-0.17
Mof_C 	C 	0.6974	0.9718	0.7126	0.103
Mof_C 	C 	0.6925	0.8936	0.6848	-0.191
Mof_C 	C 	0.2756	0.97494	0.62686	0.064
Mof_C 	C 	0.3687	0.01747	0.58153	-0.12
Mof_C 	C 	0.3388	0.85723	0.56557	0.069
Mof_C 	C 	0.4331	0.89593	0.51827	-0.123
Mof_C 	C 	0.449	0.97835	0.52549	0.054
Mof_C 	C 	0.0684	0.9507	0.8147	0.077
Mof_C 	C 	0.0926	0.0072	0.876	-0.128
Mof_C 	C 	0.3141	0.9225	0.8171	0.074
Mof_C 	C 	0.3459	0.9809	0.8791	-0.12
Mof_C 	C 	0.2352	0.02623	0.91051	0.063
Mof_C 	C 	0.6208	0.29326	0.26474	0.334
Mof_C 	C 	0.618	0.38314	0.26706	-0.073
Mof_C 	C 	0.7423	0.4147	0.2165	-0.207
Mof_C 	C 	0.7317	0.3816	0.1308	0.141
Mof_C 	C 	0.6479	0.4173	0.0739	-0.204
Mof_C 	C 	0.6435	0.3868	0.9946	0.095
Mof_C 	C 	0.7209	0.3232	0.973	-0.168
Mof_C 	C 	0.8026	0.2874	0.0282	0.1
Mof_C 	C 	0.8075	0.3152	0.1064	-0.19
Mof_C 	C 	0.2244	0.37314	0.02506	0.07
Mof_C 	C 	0.1313	0.41847	0.98253	-0.125
Mof_C 	C 	0.1612	0.43443	0.14277	0.07
Mof_C 	C 	0.0669	0.48173	0.10407	-0.124
Mof_C 	C 	0.051	0.47451	0.02165	0.057
Mof_C 	C 	0.4316	0.1853	0.0493	0.083
Mof_C 	C 	0.4074	0.124	0.9928	-0.131
Mof_C 	C 	0.1859	0.1829	0.0775	0.074
Mof_C 	C 	0.1541	0.1209	0.0191	-0.119
Mof_C 	C 	0.2648	0.08949	0.97377	0.064
Mof_C 	C 	0.1208	0.26474	0.29326	0.334
Mof_C 	C 	0.118	0.26706	0.38314	-0.072
Mof_C 	C 	0.2423	0.2165	0.4147	-0.208
Mof_C 	C 	0.2317	0.1308	0.3816	0.142
Mof_C 	C 	0.1479	0.0739	0.4173	-0.203
Mof_C 	C 	0.1435	0.9946	0.3868	0.094
Mof_C 	C 	0.2209	0.973	0.3232	-0.17
Mof_C 	C 	0.3026	0.0282	0.2874	0.103
Mof_C 	C 	0.3075	0.1064	0.3152	-0.191
Mof_C 	C 	0.7244	0.02506	0.37314	0.064
Mof_C 	C 	0.6313	0.98253	0.41847	-0.12
Mof_C 	C 	0.6612	0.14277	0.43443	0.069
Mof_C 	C 	0.5669	0.10407	0.48173	-0.123
Mof_C 	C 	0.551	0.02165	0.47451	0.054
Mof_C 	C 	0.9316	0.0493	0.1853	0.077
Mof_C 	C 	0.9074	0.9928	0.124	-0.128
Mof_C 	C 	0.6859	0.0775	0.1829	0.074
Mof_C 	C 	0.6541	0.0191	0.1209	-0.12
Mof_C 	C 	0.7648	0.97377	0.08949	0.063
Mof_C 	C 	0.3792	0.70674	0.73526	0.334
Mof_C 	C 	0.382	0.61686	0.73294	-0.073
Mof_C 	C 	0.2577	0.5853	0.7835	-0.207
Mof_C 	C 	0.2683	0.6184	0.8692	0.141
Mof_C 	C 	0.3521	0.5827	0.9261	-0.204
Mof_C 	C 	0.3565	0.6132	0.0054	0.095
Mof_C 	C 	0.2791	0.6768	0.027	-0.168
Mof_C 	C 	0.1974	0.7126	0.9718	0.1
Mof_C 	C 	0.1925	0.6848	0.8936	-0.19
Mof_C 	C 	0.7756	0.62686	0.97494	0.07
Mof_C 	C 	0.8687	0.58153	0.01747	-0.125
Mof_C 	C 	0.8388	0.56557	0.85723	0.07
Mof_C 	C 	0.9331	0.51827	0.89593	-0.124
Mof_C 	C 	0.949	0.52549	0.97835	0.057
Mof_C 	C 	0.5684	0.8147	0.9507	0.083
Mof_C 	C 	0.5926	0.876	0.0072	-0.131
Mof_C 	C 	0.8141	0.8171	0.9225	0.074
Mof_C 	C 	0.8459	0.8791	0.9809	-0.119
Mof_C 	C 	0.7352	0.91051	0.02623	0.064
Mof_N 	N 	0.0299	0.76324	0.59548	-0.301
Mof_N 	N 	0.2599	0.89527	0.61997	-0.229
Mof_N 	N 	0.1764	0.90824	0.78434	-0.221
Mof_N 	N 	0.4701	0.40452	0.23676	-0.3
Mof_N 	N 	0.2401	0.38003	0.10473	-0.23
Mof_N 	N 	0.3236	0.21566	0.09176	-0.222
Mof_N 	N 	0.9701	0.23676	0.40452	-0.301
Mof_N 	N 	0.7401	0.10473	0.38003	-0.229
Mof_N 	N 	0.8236	0.09176	0.21566	-0.221
Mof_N 	N 	0.5299	0.59548	0.76324	-0.3
Mof_N 	N 	0.7599	0.61997	0.89527	-0.23
Mof_N 	N 	0.6764	0.78434	0.90824	-0.222
Mof_O 	O 	0.9769	0.78009	0.74755	-0.392
Mof_O 	O 	0.7803	0.69555	0.73507	-0.369
Mof_O 	O 	0.5231	0.25245	0.21991	-0.393
Mof_O 	O 	0.7197	0.26493	0.30445	-0.369
Mof_O 	O 	0.0231	0.21991	0.25245	-0.392
Mof_O 	O 	0.2197	0.30445	0.26493	-0.369
Mof_O 	O 	0.4769	0.74755	0.78009	-0.393
Mof_O 	O 	0.2803	0.73507	0.69555	-0.369
Mof_N 	N 	0.75	0.1238	0.8762	0.062
Mof_O 	O 	0.8637	0.1599	0.8613	-0.138
Mof_O 	O 	0.6363	0.1387	0.8401	-0.138
Mof_O 	O 	0.75	0.0768	0.9232	-0.143
Mof_N 	N 	0.25	0.8762	0.1238	0.062
Mof_O 	O 	0.1363	0.8401	0.1387	-0.138
Mof_O 	O 	0.3637	0.8613	0.1599	-0.138
Mof_O 	O 	0.25	0.9232	0.0768	-0.143
_end
