data_functionalizedCrystal
_audit_creation_method	'EQeq! by Chris Wilmer'
_symmetry_space_group_name_H-M	'P1'
_symmetry_Int_Tables_number	1
_symmetry_cell_setting	triclinic
loop_
_symmetry_equiv_pos_as_xyz
  x,y,z
_cell_length_a	15.409
_cell_length_b	29.45
_cell_length_c	23.393
_cell_angle_alpha	111.8
_cell_angle_beta	90
_cell_angle_gamma	90
loop_
_atom_site_label
_atom_site_type_symbol
_atom_site_fract_x
_atom_site_fract_y
_atom_site_fract_z
_atom_site_charge
Mof_Co	Co	0.40129	0.99608	0.49739	1.147
Mof_Co	Co	0.90129	0.00392	0.00261	1.144
Mof_Co	Co	0.47557	0.88871	0.4437	1.143
Mof_Co	Co	0.02443	0.88871	0.9437	1.14
Mof_Co	Co	0.52443	0.11129	0.5563	1.143
Mof_Co	Co	0.42871	0.46783	0.4867	1.159
Mof_Co	Co	0.42876	0.53104	0.01319	1.157
Mof_Co	Co	0.07124	0.53104	0.51319	1.156
Mof_Co	Co	0.57124	0.46896	0.98681	1.157
Mof_Co	Co	0.59871	0.00392	0.50261	1.148
Mof_Co	Co	0.57129	0.53217	0.5133	1.16
Mof_Co	Co	0.09871	0.99608	0.99739	1.145
Mof_Co	Co	0.97557	0.11129	0.0563	1.141
Mof_Co	Co	0.07129	0.46783	0.9867	1.159
Mof_Co	Co	0.92876	0.46896	0.48681	1.156
Mof_Co	Co	0.92871	0.53217	0.0133	1.159
Mof_H 	H 	0.9123	0.6732	0.7803	0.228
Mof_H 	H 	0.2663	0.2393	0.8261	0.294
Mof_H 	H 	0.7271	0.749	0.0689	0.092
Mof_H 	H 	0.3315	0.0783	0.08	0.01
Mof_H 	H 	0.2436	0.5643	0.0413	-0.027
Mof_H 	H 	0.7286	0.238	0.9045	0.057
Mof_H 	H 	0.7564	0.4357	0.9587	-0.027
Mof_H 	H 	0.5906	0.8832	0.144	0.172
Mof_H 	H 	0.6451	0.8777	0.3706	0.032
Mof_H 	H 	0.0568	0.1249	0.6423	0.261
Mof_H 	H 	0.6685	0.9217	0.92	0.01
Mof_H 	H 	0.5005	0.2617	0.4988	0.161
Mof_H 	H 	0.7436	0.4357	0.4587	-0.027
Mof_H 	H 	0.1658	0.7196	0.1636	0.2
Mof_H 	H 	0.1007	0.6736	0.8827	0.222
Mof_H 	H 	0.6686	0.365	0.401	0.145
Mof_H 	H 	0.7549	0.1739	0.6724	0.045
Mof_H 	H 	0.2729	0.251	0.9311	0.092
Mof_H 	H 	0.743	0.2544	0.8111	0.198
Mof_H 	H 	0.9438	0.0549	0.681	0.2
Mof_H 	H 	0.9432	0.8751	0.3577	0.261
Mof_H 	H 	0.4651	0.6246	0.4279	0.011
Mof_H 	H 	0.9304	0.1976	0.1762	0.079
Mof_H 	H 	0.7716	0.8278	0.9712	0.054
Mof_H 	H 	0.8578	0.7155	0.5591	0.082
Mof_H 	H 	0.3212	0.594	0.862	0.173
Mof_H 	H 	0.241	0.4562	0.6039	-0.01
Mof_H 	H 	0.4256	0.6729	0.7855	0.257
Mof_H 	H 	0.7337	0.7607	0.1739	0.294
Mof_H 	H 	0.5852	0.9513	0.0794	0.195
Mof_H 	H 	0.3003	0.1598	0.7245	0.085
Mof_H 	H 	0.5568	0.8751	0.8577	0.261
Mof_H 	H 	0.4148	0.0487	0.9206	0.195
Mof_H 	H 	0.655	0.6314	0.0547	0.101
Mof_H 	H 	0.6965	0.592	0.3483	0.176
Mof_H 	H 	0.5423	0.3622	0.9344	-0.013
Mof_H 	H 	0.2728	0.0313	0.9293	-0.001
Mof_H 	H 	0.5803	0.7669	0.1476	-0.038
Mof_H 	H 	0.3432	0.1946	0.833	-0.053
Mof_H 	H 	0.2262	0.5376	0.1567	-0.021
Mof_H 	H 	0.8315	0.9217	0.42	0.009
Mof_H 	H 	0.8069	0.5934	0.2394	0.178
Mof_H 	H 	0.5696	0.1976	0.6762	0.074
Mof_H 	H 	0.8549	0.8777	0.8706	0.034
Mof_H 	H 	0.3884	0.7096	0.1173	0.17
Mof_H 	H 	0.0562	0.9451	0.319	0.2
Mof_H 	H 	0.741	0.5438	0.8961	-0.009
Mof_H 	H 	0.2271	0.251	0.4311	0.095
Mof_H 	H 	0.8401	0.7213	0.6662	0.244
Mof_H 	H 	0.4995	0.7383	0.5012	0.161
Mof_H 	H 	0.6997	0.8402	0.2755	0.085
Mof_H 	H 	0.3204	0.7047	0.5269	0.161
Mof_H 	H 	0.7535	0.4543	0.5927	-0.003
Mof_H 	H 	0.8993	0.3264	0.1173	0.222
Mof_H 	H 	0.7714	0.238	0.4045	0.058
Mof_H 	H 	0.2286	0.762	0.5955	0.058
Mof_H 	H 	0.0803	0.2331	0.3524	-0.033
Mof_H 	H 	0.9008	0.2785	0.9268	0.167
Mof_H 	H 	0.867	0.9163	0.2196	0.228
Mof_H 	H 	0.3251	0.9657	0.8823	-0.014
Mof_H 	H 	0.8148	0.141	0.0064	0.027
Mof_H 	H 	0.0852	0.0487	0.4206	0.195
Mof_H 	H 	0.0992	0.7215	0.0732	0.167
Mof_H 	H 	0.4744	0.3776	0.8095	0.001
Mof_H 	H 	0.2272	0.0313	0.4293	0
Mof_H 	H 	0.0696	0.8024	0.8238	0.079
Mof_H 	H 	0.8314	0.365	0.901	0.146
Mof_H 	H 	0.155	0.3686	0.4453	0.102
Mof_H 	H 	0.0406	0.2094	0.046	0.052
Mof_H 	H 	0.2716	0.1722	0.5288	0.056
Mof_H 	H 	0.7146	0.4132	0.7508	0.18
Mof_H 	H 	0.7465	0.4543	0.0927	-0.004
Mof_H 	H 	0.0489	0.3598	0.9421	-0.002
Mof_H 	H 	0.1852	0.859	0.9936	0.027
Mof_H 	H 	0.6007	0.3264	0.6173	0.222
Mof_H 	H 	0.9651	0.3754	0.0721	0.01
Mof_H 	H 	0.9256	0.3271	0.7145	0.257
Mof_H 	H 	0.2564	0.5643	0.5413	-0.027
Mof_H 	H 	0.5135	0.3787	0.3084	0.021
Mof_H 	H 	0.0906	0.1168	0.356	0.172
Mof_H 	H 	0.9865	0.3787	0.8084	0.021
Mof_H 	H 	0.8884	0.2904	0.3827	0.169
Mof_H 	H 	0.9094	0.8832	0.644	0.172
Mof_H 	H 	0.1451	0.1223	0.1294	0.034
Mof_H 	H 	0.3342	0.7196	0.6636	0.199
Mof_H 	H 	0.6568	0.8054	0.167	-0.053
Mof_H 	H 	0.1568	0.1946	0.333	-0.049
Mof_H 	H 	0.4865	0.6213	0.6916	0.021
Mof_H 	H 	0.623	0.1969	0.2359	0.23
Mof_H 	H 	0.633	0.9163	0.7196	0.228
Mof_H 	H 	0.5349	0.3754	0.5721	0.011
Mof_H 	H 	0.2549	0.4571	0.8533	-0.011
Mof_H 	H 	0.7549	0.5429	0.6467	-0.011
Mof_H 	H 	0.6788	0.406	0.138	0.173
Mof_H 	H 	0.4511	0.3598	0.4421	-0.001
Mof_H 	H 	0.8081	0.2094	0.8624	0.077
Mof_H 	H 	0.5256	0.6224	0.1905	0.001
Mof_H 	H 	0.3495	0.9188	0.1074	0.212
Mof_H 	H 	0.6749	0.0343	0.1177	-0.014
Mof_H 	H 	0.6741	0.0437	0.7869	0.014
Mof_H 	H 	0.2146	0.5868	0.7492	0.18
Mof_H 	H 	0.1931	0.4066	0.7606	0.178
Mof_H 	H 	0.7451	0.1739	0.1724	0.045
Mof_H 	H 	0.9577	0.3622	0.4344	-0.014
Mof_H 	H 	0.5992	0.2785	0.4268	0.164
Mof_H 	H 	0.8495	0.0812	0.3926	0.212
Mof_H 	H 	0.1749	0.9657	0.3823	-0.014
Mof_H 	H 	0.6931	0.5934	0.7394	0.179
Mof_H 	H 	0.7592	0.9649	0.2832	-0.006
Mof_H 	H 	0.1741	0.9563	0.7131	0.014
Mof_H 	H 	0.123	0.8031	0.2641	0.23
Mof_H 	H 	0.7854	0.4132	0.2508	0.18
Mof_H 	H 	0.2572	0.4368	0.9667	-0.005
Mof_H 	H 	0.0682	0.0775	0.254	-0.011
Mof_H 	H 	0.845	0.6314	0.5547	0.102
Mof_H 	H 	0.5406	0.7906	0.454	0.047
Mof_H 	H 	0.4577	0.6378	0.0656	-0.013
Mof_H 	H 	0.259	0.4562	0.1039	-0.009
Mof_H 	H 	0.0878	0.3245	0.6188	0.261
Mof_H 	H 	0.1685	0.0783	0.58	0.009
Mof_H 	H 	0.9755	0.6247	0.4241	0.026
Mof_H 	H 	0.3549	0.1223	0.6294	0.032
Mof_H 	H 	0.1686	0.635	0.099	0.146
Mof_H 	H 	0.8003	0.8402	0.7755	0.084
Mof_H 	H 	0.1997	0.1598	0.2245	0.084
Mof_H 	H 	0.1277	0.1914	0.5169	0.262
Mof_H 	H 	0.9804	0.2342	0.2758	0.056
Mof_H 	H 	0.2451	0.4571	0.3533	-0.011
Mof_H 	H 	0.243	0.7456	0.6889	0.197
Mof_H 	H 	0.0135	0.6213	0.1916	0.021
Mof_H 	H 	0.2738	0.5376	0.6567	-0.021
Mof_H 	H 	0.5196	0.2342	0.7758	0.065
Mof_H 	H 	0.5744	0.3271	0.2145	0.257
Mof_H 	H 	0.4123	0.3268	0.7197	0.228
Mof_H 	H 	0.6919	0.2094	0.3624	0.078
Mof_H 	H 	0.0744	0.6729	0.2855	0.257
Mof_H 	H 	0.4318	0.0775	0.754	-0.01
Mof_H 	H 	0.1599	0.2787	0.3338	0.244
Mof_H 	H 	0.1796	0.7047	0.0269	0.164
Mof_H 	H 	0.759	0.5438	0.3961	-0.01
Mof_H 	H 	0.5489	0.6402	0.5579	-0.001
Mof_H 	H 	0.2854	0.5868	0.2492	0.18
Mof_H 	H 	0.7686	0.1926	0.9604	0.21
Mof_H 	H 	0.8035	0.592	0.8483	0.176
Mof_H 	H 	0.7451	0.5429	0.1467	-0.011
Mof_H 	H 	0.5878	0.6755	0.8812	0.261
Mof_H 	H 	0.7663	0.7607	0.6739	0.289
Mof_H 	H 	0.877	0.1969	0.7359	0.23
Mof_H 	H 	0.9318	0.9225	0.746	-0.011
Mof_H 	H 	0.6234	0.7099	0.5891	0.165
Mof_H 	H 	0.3081	0.7906	0.6376	0.078
Mof_H 	H 	0.4008	0.7215	0.5732	0.164
Mof_H 	H 	0.9594	0.7906	0.954	0.052
Mof_H 	H 	0.7572	0.5632	0.5333	-0.005
Mof_H 	H 	0.133	0.0837	0.7804	0.228
Mof_H 	H 	0.0256	0.3776	0.3095	0.002
Mof_H 	H 	0.2408	0.0351	0.7168	-0.006
Mof_H 	H 	0.3766	0.2901	0.4109	0.165
Mof_H 	H 	0.8342	0.2804	0.8364	0.2
Mof_H 	H 	0.0005	0.7383	0.0012	0.169
Mof_H 	H 	0.2686	0.8074	0.5396	0.21
Mof_H 	H 	0.6116	0.2904	0.8827	0.17
Mof_H 	H 	0.8766	0.7099	0.0891	0.163
Mof_H 	H 	0.3069	0.4066	0.2606	0.179
Mof_H 	H 	0.6422	0.7155	0.0591	0.079
Mof_H 	H 	0.9148	0.9513	0.5794	0.195
Mof_H 	H 	0.6658	0.2804	0.3364	0.199
Mof_H 	H 	0.4594	0.2094	0.546	0.047
Mof_H 	H 	0.3578	0.2845	0.9409	0.079
Mof_H 	H 	0.4094	0.1168	0.856	0.172
Mof_H 	H 	0.7738	0.4624	0.8433	-0.021
Mof_H 	H 	0.9122	0.6755	0.3812	0.261
Mof_H 	H 	0.3723	0.1914	0.0169	0.265
Mof_H 	H 	0.4304	0.8024	0.3238	0.074
Mof_H 	H 	0.7272	0.9687	0.0707	-0.001
Mof_H 	H 	0.3035	0.408	0.6517	0.176
Mof_H 	H 	0.6505	0.0812	0.8926	0.212
Mof_H 	H 	0.3259	0.9563	0.2131	0.014
Mof_H 	H 	0.8432	0.8054	0.667	-0.049
Mof_H 	H 	0.9511	0.6402	0.0579	-0.002
Mof_H 	H 	0.1422	0.2845	0.4409	0.082
Mof_H 	H 	0.0196	0.7658	0.7242	0.056
Mof_H 	H 	0.1116	0.7096	0.6173	0.169
Mof_H 	H 	0.345	0.3686	0.9453	0.101
Mof_H 	H 	0.8204	0.2953	0.9731	0.164
Mof_H 	H 	0.9744	0.6224	0.6905	0.002
Mof_H 	H 	0.4804	0.7658	0.2242	0.065
Mof_H 	H 	0.2465	0.5457	0.4073	-0.003
Mof_H 	H 	0.0423	0.6378	0.5656	-0.014
Mof_H 	H 	0.2337	0.2393	0.3261	0.289
Mof_H 	H 	0.5877	0.6732	0.2803	0.228
Mof_H 	H 	0.7729	0.749	0.5689	0.095
Mof_H 	H 	0.7284	0.8278	0.4712	0.056
Mof_H 	H 	0.7314	0.1926	0.4604	0.21
Mof_H 	H 	0.5682	0.9225	0.246	-0.01
Mof_H 	H 	0.2549	0.8261	0.8276	0.045
Mof_H 	H 	0.2428	0.4368	0.4667	-0.005
Mof_H 	H 	0.4432	0.1249	0.1423	0.261
Mof_H 	H 	0.8259	0.0437	0.2869	0.014
Mof_H 	H 	0.8251	0.0343	0.6177	-0.014
Mof_H 	H 	0.6277	0.8086	0.9831	0.265
Mof_H 	H 	0.367	0.0837	0.2804	0.228
Mof_H 	H 	0.2314	0.8074	0.0396	0.21
Mof_H 	H 	0.3148	0.859	0.4936	0.027
Mof_H 	H 	0.3993	0.6736	0.3827	0.222
Mof_H 	H 	0.7428	0.5632	0.0333	-0.005
Mof_H 	H 	0.377	0.8031	0.7641	0.23
Mof_H 	H 	0.2592	0.0351	0.2168	-0.006
Mof_H 	H 	0.1505	0.9188	0.6074	0.212
Mof_H 	H 	0.2714	0.762	0.0955	0.057
Mof_H 	H 	0.4197	0.2331	0.8524	-0.038
Mof_H 	H 	0.2535	0.5457	0.9073	-0.004
Mof_H 	H 	0.6796	0.2953	0.4731	0.161
Mof_H 	H 	0.3314	0.635	0.599	0.145
Mof_H 	H 	0.257	0.7456	0.1889	0.198
Mof_H 	H 	0.6852	0.141	0.5064	0.027
Mof_H 	H 	0.4122	0.3245	0.1188	0.261
Mof_H 	H 	0.4438	0.9451	0.819	0.201
Mof_H 	H 	0.1919	0.7906	0.1376	0.077
Mof_H 	H 	0.3401	0.2787	0.8338	0.249
Mof_H 	H 	0.6599	0.7213	0.1662	0.249
Mof_H 	H 	0.0349	0.6246	0.9279	0.01
Mof_H 	H 	0.2284	0.1722	0.0288	0.054
Mof_H 	H 	0.7408	0.9649	0.7832	-0.006
Mof_H 	H 	0.9995	0.2617	0.9988	0.169
Mof_H 	H 	0.2451	0.8261	0.3276	0.045
Mof_H 	H 	0.1965	0.408	0.1517	0.176
Mof_H 	H 	0.9197	0.7669	0.6476	-0.033
Mof_H 	H 	0.8723	0.8086	0.4831	0.262
Mof_H 	H 	0.5245	0.6247	0.9241	0.026
Mof_H 	H 	0.0877	0.3268	0.2197	0.228
Mof_H 	H 	0.8212	0.406	0.638	0.173
Mof_H 	H 	0.757	0.2544	0.3111	0.197
Mof_H 	H 	0.1234	0.2901	0.9109	0.163
Mof_H 	H 	0.0245	0.3753	0.5759	0.026
Mof_H 	H 	0.5562	0.0549	0.181	0.201
Mof_H 	H 	0.4755	0.3753	0.0759	0.026
Mof_H 	H 	0.1788	0.594	0.362	0.173
Mof_H 	H 	0.7728	0.9687	0.5707	0
Mof_H 	H 	0.7262	0.4624	0.3433	-0.021
Mof_C 	C 	0.1602	0.0785	0.6204	0.241
Mof_C 	C 	0.198	0.9138	0.902	0.451
Mof_C 	C 	0.7939	0.1495	0.6741	0.231
Mof_C 	C 	0.4638	0.1013	0.8423	-0.316
Mof_C 	C 	0.0075	0.1386	0.755	-0.548
Mof_C 	C 	0.9854	0.1884	0.1869	0.028
Mof_C 	C 	0.4846	0.7944	0.4722	0.187
Mof_C 	C 	0.1887	0.2955	0.6873	0.982
Mof_C 	C 	0.2655	0.1006	0.4773	-0.202
Mof_C 	C 	0.7777	0.4283	0.098	0.188
Mof_C 	C 	0.3464	0.3204	0.4263	-0.177
Mof_C 	C 	0.2164	0.6382	0.8659	0.376
Mof_C 	C 	0.1747	0.8037	0.0226	-0.193
Mof_C 	C 	0.775	0.406	0.4411	0.192
Mof_C 	C 	0.3027	0.2751	0.9177	0.034
Mof_C 	C 	0.8398	0.9215	0.3796	0.241
Mof_C 	C 	0.3398	0.0785	0.1204	0.241
Mof_C 	C 	0.7708	0.3636	0.9077	-0.294
Mof_C 	C 	0.7655	0.8994	0.0227	-0.206
Mof_C 	C 	0.353	0.8341	0.495	0.191
Mof_C 	C 	0.9758	0.1862	0.4692	1.015
Mof_C 	C 	0.9472	0.0541	0.2598	-0.187
Mof_C 	C 	0.4175	0.4518	0.0558	0.414
Mof_C 	C 	0.2836	0.3655	0.945	-0.166
Mof_C 	C 	0.916	0.8924	0.2836	0.424
Mof_C 	C 	0.9091	0.8787	0.5347	0.408
Mof_C 	C 	0.2286	0.6792	0.6148	0.315
Mof_C 	C 	0.853	0.1659	0.005	0.187
Mof_C 	C 	0.4854	0.8116	0.3131	0.047
Mof_C 	C 	0.732	0.3311	0.1643	-0.537
Mof_C 	C 	0.3971	0.6369	0.0726	0.199
Mof_C 	C 	0.1774	0.2514	0.3464	-0.657
Mof_C 	C 	0.367	0.2234	0.8263	0.468
Mof_C 	C 	0.902	0.797	0.7419	-0.071
Mof_C 	C 	0.3312	0.7019	0.8839	1.011
Mof_C 	C 	0.2701	0.406	0.4578	0.126
Mof_C 	C 	0.8901	0.8547	0.8403	0.072
Mof_C 	C 	0.7836	0.3618	0.1341	0.376
Mof_C 	C 	0.5825	0.5482	0.9442	0.414
Mof_C 	C 	0.1394	0.089	0.9833	0.409
Mof_C 	C 	0.3627	0.5802	0.4218	-0.218
Mof_C 	C 	0.5395	0.2371	0.5001	-0.21
Mof_C 	C 	0.7089	0.57	0.892	0.204
Mof_C 	C 	0.7769	0.1018	0.6396	-0.212
Mof_C 	C 	0.9306	0.3857	0.7966	0.216
Mof_C 	C 	0.8113	0.7045	0.3127	0.982
Mof_C 	C 	0.1688	0.7019	0.3839	1.011
Mof_C 	C 	0.6105	0.6384	0.5577	0.163
Mof_C 	C 	0.203	0.0534	0.7013	0.218
Mof_C 	C 	0.7376	0.3999	0.1252	-0.297
Mof_C 	C 	0.098	0.203	0.2581	-0.071
Mof_C 	C 	0.7286	0.3208	0.8852	0.316
Mof_C 	C 	0.7042	0.638	0.2693	0.399
Mof_C 	C 	0.3662	0.8365	0.7882	-0.273
Mof_C 	C 	0.7503	0.6705	0.83	-0.535
Mof_C 	C 	0.9846	0.2056	0.0278	0.182
Mof_C 	C 	0.2922	0.0642	0.9468	0.228
Mof_C 	C 	0.7205	0.983	0.4009	0.397
Mof_C 	C 	0.802	0.0862	0.098	0.451
Mof_C 	C 	0.0608	0.8875	0.503	1.013
Mof_C 	C 	0.881	0.0576	0.3016	0.181
Mof_C 	C 	0.5234	0.9222	0.218	0.21
Mof_C 	C 	0.406	0.9201	0.8206	-0.348
Mof_C 	C 	0.3525	0.1586	0.9986	-0.298
Mof_C 	C 	0.7125	0.5693	0.1744	0.206
Mof_C 	C 	0.702	0.6384	0.8587	0.395
Mof_C 	C 	0.1247	0.4211	0.586	-0.232
Mof_C 	C 	0.4758	0.8138	0.0308	1.018
Mof_C 	C 	0.8606	0.911	0.0167	0.409
Mof_C 	C 	0.7506	0.5996	0.7294	-0.324
Mof_C 	C 	0.6973	0.7249	0.0823	0.034
Mof_C 	C 	0.8662	0.1635	0.7118	-0.273
Mof_C 	C 	0.584	0.8924	0.7836	0.423
Mof_C 	C 	0.5766	0.1264	0.2132	0.418
Mof_C 	C 	0.7664	0.853	0.4953	0.21
Mof_C 	C 	0.2762	0.727	0.6511	-0.373
Mof_C 	C 	0.3056	0.565	0.683	0.232
Mof_C 	C 	0.698	0.0862	0.598	0.451
Mof_C 	C 	0.0362	0.1013	0.3423	-0.313
Mof_C 	C 	0.6475	0.8414	0.0014	-0.298
Mof_C 	C 	0.2701	0.5946	0.7378	-0.339
Mof_C 	C 	0.3895	0.3616	0.4423	0.163
Mof_C 	C 	0.7299	0.594	0.5422	0.126
Mof_C 	C 	0.5142	0.1243	0.3113	1.033
Mof_C 	C 	0.298	0.3616	0.1413	0.395
Mof_C 	C 	0.2042	0.7018	0.8157	1.001
Mof_C 	C 	0.3753	0.4211	0.086	-0.232
Mof_C 	C 	0.6855	0.7031	0.3798	1.015
Mof_C 	C 	0.0242	0.8138	0.5308	1.015
Mof_C 	C 	0.4388	0.9758	0.3082	0.364
Mof_C 	C 	0.798	0.6384	0.3587	0.395
Mof_C 	C 	0.4472	0.9459	0.2402	-0.184
Mof_C 	C 	0.416	0.1076	0.2164	0.423
Mof_C 	C 	0.8719	0.5772	0.6595	-0.235
Mof_C 	C 	0.5833	0.6163	0.2	0.222
Mof_C 	C 	0.5608	0.1125	0.997	1.014
Mof_C 	C 	0.1388	0.082	0.7392	-0.335
Mof_C 	C 	0.7231	0.1018	0.1396	-0.213
Mof_C 	C 	0.9068	0.3818	0.0858	0.193
Mof_C 	C 	0.3145	0.2969	0.6202	1.015
Mof_C 	C 	0.7462	0.599	0.8641	-0.313
Mof_C 	C 	0.089	0.4545	0.4005	0.423
Mof_C 	C 	0.9179	0.618	0.4089	0.22
Mof_C 	C 	0.0932	0.6182	0.9142	0.193
Mof_C 	C 	0.9605	0.2371	0.0001	-0.224
Mof_C 	C 	0.606	0.0809	0.8643	-0.277
Mof_C 	C 	0.3764	0.0748	0.9417	-0.333
Mof_C 	C 	0.1029	0.6369	0.5726	0.199
Mof_C 	C 	0.5242	0.1862	0.9692	1.018
Mof_C 	C 	0.094	0.9201	0.3206	-0.348
Mof_C 	C 	0.6321	0.3527	0.6131	-0.306
Mof_C 	C 	0.8858	0.4256	0.8343	-0.246
Mof_C 	C 	0.0909	0.1213	0.4653	0.408
Mof_C 	C 	0.2376	0.6001	0.3748	-0.297
Mof_C 	C 	0.7238	0.273	0.3489	-0.373
Mof_C 	C 	0.7701	0.594	0.0422	0.125
Mof_C 	C 	0.3612	0.082	0.2392	-0.335
Mof_C 	C 	0.2223	0.5717	0.902	0.188
Mof_C 	C 	0.0349	0.1915	0.7763	0.983
Mof_C 	C 	0.5945	0.8935	0.8424	-0.338
Mof_C 	C 	0.2503	0.3295	0.67	-0.535
Mof_C 	C 	0.225	0.594	0.5589	0.192
Mof_C 	C 	0.4306	0.6143	0.7034	0.217
Mof_C 	C 	0.5612	0.0242	0.6918	0.364
Mof_C 	C 	0.2231	0.8982	0.3604	-0.212
Mof_C 	C 	0.8253	0.1963	0.9774	-0.193
Mof_C 	C 	0.7701	0.4054	0.7622	-0.339
Mof_C 	C 	0.3901	0.1453	0.6597	0.075
Mof_C 	C 	0.0694	0.6143	0.2034	0.216
Mof_C 	C 	0.5932	0.3818	0.5858	0.193
Mof_C 	C 	0.6507	0.2666	0.4424	-0.311
Mof_C 	C 	0.1433	0.1682	0.2152	-0.02
Mof_C 	C 	0.8145	0.7031	0.8798	1.014
Mof_C 	C 	0.2708	0.6364	0.5923	-0.294
Mof_C 	C 	0.3567	0.1682	0.7152	-0.024
Mof_C 	C 	0.594	0.0799	0.1794	-0.348
Mof_C 	C 	0.9167	0.6163	0.7	0.222
Mof_C 	C 	0.4179	0.382	0.0911	0.221
Mof_C 	C 	0.3226	0.2514	0.8464	-0.676
Mof_C 	C 	0.2299	0.406	0.9578	0.125
Mof_C 	C 	0.9949	0.1305	0.4548	-0.523
Mof_C 	C 	0.633	0.7766	0.1737	0.468
Mof_C 	C 	0.7875	0.5693	0.6744	0.207
Mof_C 	C 	0.2292	0.6364	0.0923	-0.294
Mof_C 	C 	0.0146	0.8116	0.8131	0.028
Mof_C 	C 	0.3348	0.9323	0.8576	0.27
Mof_C 	C 	0.8679	0.3527	0.1131	-0.307
Mof_C 	C 	0.7714	0.3208	0.3852	0.315
Mof_C 	C 	0.2446	0.321	0.9319	0.136
Mof_C 	C 	0.2777	0.5717	0.402	0.188
Mof_C 	C 	0.133	0.2234	0.3263	0.452
Mof_C 	C 	0.8226	0.7486	0.6536	-0.657
Mof_C 	C 	0.6142	0.4256	0.3343	-0.247
Mof_C 	C 	0.4731	0.8959	0.1143	0.377
Mof_C 	C 	0.2538	0.401	0.1359	-0.313
Mof_C 	C 	0.8612	0.918	0.2608	-0.335
Mof_C 	C 	0.4605	0.7629	0.4999	-0.21
Mof_C 	C 	0.4839	0.2119	0.745	-0.011
Mof_C 	C 	0.0395	0.7629	0.9999	-0.224
Mof_C 	C 	0.0945	0.1065	0.6576	-0.338
Mof_C 	C 	0.0142	0.8757	0.1887	1.034
Mof_C 	C 	0.2164	0.3655	0.445	-0.168
Mof_C 	C 	0.6029	0.3631	0.9274	0.199
Mof_C 	C 	0.8126	0.3645	0.723	0.411
Mof_C 	C 	0.5075	0.8614	0.745	-0.547
Mof_C 	C 	0.8056	0.435	0.817	0.232
Mof_C 	C 	0.2769	0.8982	0.8604	-0.213
Mof_C 	C 	0.5528	0.0541	0.7598	-0.184
Mof_C 	C 	0.9241	0.4557	0.8953	0.419
Mof_C 	C 	0.0612	0.9758	0.8082	0.357
Mof_C 	C 	0.894	0.0809	0.3643	-0.276
Mof_C 	C 	0.7554	0.679	0.0681	0.136
Mof_C 	C 	0.3606	0.089	0.4833	0.412
Mof_C 	C 	0.0269	0.8959	0.6143	0.373
Mof_C 	C 	0.9925	0.8614	0.245	-0.548
Mof_C 	C 	0.2089	0.43	0.608	0.204
Mof_C 	C 	0.5909	0.8787	0.0347	0.41
Mof_C 	C 	0.3126	0.6355	0.777	0.412
Mof_C 	C 	0.2462	0.401	0.6359	-0.313
Mof_C 	C 	0.402	0.203	0.7581	-0.068
Mof_C 	C 	0.6198	0.6462	0.2533	-0.323
Mof_C 	C 	0.9858	0.1243	0.8113	1.034
Mof_C 	C 	0.0154	0.7944	0.9722	0.182
Mof_C 	C 	0.8627	0.4198	0.0782	-0.219
Mof_C 	C 	0.619	0.6481	0.8828	-0.316
Mof_C 	C 	0.1536	0.3204	0.9263	-0.175
Mof_C 	C 	0.786	0.2422	0.8881	0.11
Mof_C 	C 	0.7762	0.273	0.8489	-0.375
Mof_C 	C 	0.7836	0.6345	0.555	-0.168
Mof_C 	C 	0.2133	0.051	0.6425	-0.215
Mof_C 	C 	0.7446	0.679	0.5681	0.14
Mof_C 	C 	0.598	0.797	0.2419	-0.068
Mof_C 	C 	0.647	0.1659	0.505	0.191
Mof_C 	C 	0.3793	0.7672	0.5261	0.293
Mof_C 	C 	0.2205	0.017	0.0991	0.396
Mof_C 	C 	0.619	0.0576	0.8016	0.181
Mof_C 	C 	0.6688	0.2981	0.1161	1.011
Mof_C 	C 	0.8793	0.2328	0.9739	0.302
Mof_C 	C 	0.7494	0.5996	0.2294	-0.324
Mof_C 	C 	0.2836	0.6382	0.3659	0.375
Mof_C 	C 	0.7061	0.1495	0.1741	0.231
Mof_C 	C 	0.1321	0.6473	0.8869	-0.307
Mof_C 	C 	0.1373	0.5802	0.9218	-0.219
Mof_C 	C 	0.1142	0.5744	0.1657	-0.246
Mof_C 	C 	0.2958	0.362	0.7307	0.399
Mof_C 	C 	0.1236	0.0748	0.4417	-0.331
Mof_C 	C 	0.6247	0.5789	0.914	-0.232
Mof_C 	C 	0.5694	0.3857	0.2966	0.217
Mof_C 	C 	0.725	0.406	0.9411	0.192
Mof_C 	C 	0.2497	0.3295	0.17	-0.535
Mof_C 	C 	0.4766	0.0778	0.782	0.21
Mof_C 	C 	0.2506	0.4004	0.7706	-0.324
Mof_C 	C 	0.2061	0.8505	0.3259	0.231
Mof_C 	C 	0.0234	0.0778	0.282	0.214
Mof_C 	C 	0.1207	0.7672	0.0261	0.302
Mof_C 	C 	0.2125	0.4307	0.3256	0.207
Mof_C 	C 	0.9651	0.8085	0.2237	0.983
Mof_C 	C 	0.6874	0.3645	0.223	0.412
Mof_C 	C 	0.2336	0.147	0.5047	0.21
Mof_C 	C 	0.8971	0.3631	0.4274	0.199
Mof_C 	C 	0.7164	0.3618	0.6341	0.375
Mof_C 	C 	0.9074	0.4512	0.0485	0.425
Mof_C 	C 	0.6774	0.7486	0.1536	-0.676
Mof_C 	C 	0.2664	0.147	0.0047	0.218
Mof_C 	C 	0.7345	0.8994	0.5227	-0.202
Mof_C 	C 	0.8567	0.8318	0.7848	-0.02
Mof_C 	C 	0.2238	0.727	0.1511	-0.375
Mof_C 	C 	0.6394	0.911	0.5167	0.412
Mof_C 	C 	0.7223	0.4283	0.598	0.188
Mof_C 	C 	0.214	0.7578	0.1119	0.11
Mof_C 	C 	0.0926	0.5488	0.9515	0.425
Mof_C 	C 	0.106	0.9191	0.6357	-0.276
Mof_C 	C 	0.3941	0.6452	0.7595	-0.315
Mof_C 	C 	0.1431	0.6797	0.6036	-0.285
Mof_C 	C 	0.5362	0.8987	0.1577	-0.316
Mof_C 	C 	0.1105	0.3616	0.9423	0.162
Mof_C 	C 	0.881	0.6481	0.3828	-0.316
Mof_C 	C 	0.3719	0.4228	0.8405	-0.236
Mof_C 	C 	0.2795	0.017	0.5991	0.397
Mof_C 	C 	0.5821	0.618	0.9089	0.221
Mof_C 	C 	0.411	0.4545	0.9005	0.423
Mof_C 	C 	0.4241	0.5443	0.6047	0.419
Mof_C 	C 	0.2078	0.0642	0.4468	0.225
Mof_C 	C 	0.5349	0.8085	0.7237	0.984
Mof_C 	C 	0.1944	0.565	0.183	0.232
Mof_C 	C 	0.119	0.9424	0.6984	0.181
Mof_C 	C 	0.1281	0.4228	0.3405	-0.235
Mof_C 	C 	0.147	0.8341	0.995	0.187
Mof_C 	C 	0.8569	0.3203	0.3964	-0.285
Mof_C 	C 	0.1652	0.9323	0.3576	0.27
Mof_C 	C 	0.9392	0.1125	0.497	1.013
Mof_C 	C 	0.084	0.1076	0.7164	0.424
Mof_C 	C 	0.867	0.7766	0.6737	0.452
Mof_C 	C 	0.0759	0.5443	0.1047	0.419
Mof_C 	C 	0.8802	0.6462	0.7533	-0.322
Mof_C 	C 	0.0821	0.382	0.5911	0.22
Mof_C 	C 	0.5161	0.7881	0.255	-0.011
Mof_C 	C 	0.7299	0.4054	0.2622	-0.339
Mof_C 	C 	0.7867	0.949	0.3575	-0.215
Mof_C 	C 	0.6373	0.4198	0.5782	-0.218
Mof_C 	C 	0.1973	0.2751	0.4177	0.025
Mof_C 	C 	0.7624	0.3999	0.6252	-0.297
Mof_C 	C 	0.5759	0.4557	0.3953	0.419
Mof_C 	C 	0.1855	0.2969	0.1202	1.014
Mof_C 	C 	0.6602	0.9215	0.8796	0.241
Mof_C 	C 	0.7958	0.638	0.7693	0.399
Mof_C 	C 	0.394	0.9191	0.1357	-0.277
Mof_C 	C 	0.5051	0.1305	0.9548	-0.523
Mof_C 	C 	0.9055	0.8935	0.3424	-0.338
Mof_C 	C 	0.4074	0.5488	0.4515	0.425
Mof_C 	C 	0.7042	0.2982	0.6843	1.001
Mof_C 	C 	0.589	0.5455	0.0995	0.423
Mof_C 	C 	0.0051	0.8695	0.5452	-0.523
Mof_C 	C 	0.2042	0.362	0.2307	0.399
Mof_C 	C 	0.4091	0.1213	0.9653	0.41
Mof_C 	C 	0.1475	0.1586	0.4986	-0.291
Mof_C 	C 	0.9234	0.1264	0.7132	0.419
Mof_C 	C 	0.7336	0.853	0.9953	0.218
Mof_C 	C 	0.6652	0.0677	0.1424	0.27
Mof_C 	C 	0.8753	0.5789	0.414	-0.232
Mof_C 	C 	0.8027	0.7249	0.5823	0.025
Mof_C 	C 	0.703	0.9466	0.7987	0.218
Mof_C 	C 	0.232	0.6689	0.3357	-0.537
Mof_C 	C 	0.2345	0.1006	0.9773	-0.206
Mof_C 	C 	0.119	0.3519	0.6172	-0.316
Mof_C 	C 	0.6887	0.7045	0.8127	0.982
Mof_C 	C 	0.9175	0.5482	0.4442	0.414
Mof_C 	C 	0.4392	0.8875	0.003	1.014
Mof_C 	C 	0.3113	0.2955	0.1873	0.982
Mof_C 	C 	0.5146	0.1884	0.6869	0.047
Mof_C 	C 	0.6433	0.8318	0.2848	-0.024
Mof_C 	C 	0.8764	0.9252	0.5583	-0.331
Mof_C 	C 	0.7922	0.9358	0.5532	0.225
Mof_C 	C 	0.8941	0.3548	0.7405	-0.314
Mof_C 	C 	0.6747	0.1963	0.4774	-0.195
Mof_C 	C 	0.3802	0.3538	0.7467	-0.323
Mof_C 	C 	0.1059	0.6452	0.2595	-0.314
Mof_C 	C 	0.2939	0.8505	0.8259	0.231
Mof_C 	C 	0.8348	0.0677	0.6424	0.27
Mof_C 	C 	0.275	0.594	0.0589	0.192
Mof_C 	C 	0.0825	0.4518	0.5558	0.414
Mof_C 	C 	0.3858	0.5744	0.6657	-0.247
Mof_C 	C 	0.2911	0.43	0.108	0.204
Mof_C 	C 	0.5154	0.2056	0.5278	0.187
Mof_C 	C 	0.6944	0.435	0.317	0.232
Mof_C 	C 	0.5269	0.1041	0.8857	0.377
Mof_C 	C 	0.2958	0.7018	0.3157	1.001
Mof_C 	C 	0.4925	0.1386	0.255	-0.547
Mof_C 	C 	0.797	0.9466	0.2987	0.218
Mof_C 	C 	0.6059	0.3548	0.2405	-0.315
Mof_C 	C 	0.7795	0.983	0.9009	0.396
Mof_C 	C 	0.7911	0.57	0.392	0.204
Mof_C 	C 	0.3679	0.6473	0.3869	-0.306
Mof_C 	C 	0.5926	0.4512	0.5485	0.425
Mof_C 	C 	0.2875	0.4307	0.8256	0.206
Mof_C 	C 	0.302	0.9138	0.402	0.451
Mof_C 	C 	0.7164	0.6345	0.055	-0.166
Mof_C 	C 	0.6236	0.9252	0.0583	-0.333
Mof_C 	C 	0.2867	0.051	0.1425	-0.214
Mof_C 	C 	0.3493	0.7334	0.5576	-0.311
Mof_C 	C 	0.0528	0.9459	0.7402	-0.187
Mof_C 	C 	0.6388	0.918	0.7608	-0.335
Mof_C 	C 	0.1099	0.1453	0.1597	0.072
Mof_C 	C 	0.911	0.5455	0.5995	0.423
Mof_C 	C 	0.0161	0.2119	0.245	0.008
Mof_C 	C 	0.2494	0.4004	0.2706	-0.324
Mof_C 	C 	0.4055	0.1065	0.1576	-0.338
Mof_C 	C 	0.8493	0.2666	0.9424	-0.317
Mof_C 	C 	0.8895	0.6384	0.0577	0.162
Mof_C 	C 	0.7958	0.2982	0.1843	1.001
Mof_C 	C 	0.4949	0.8695	0.0452	-0.523
Mof_C 	C 	0.6207	0.2328	0.4739	0.293
Mof_C 	C 	0.2554	0.321	0.4319	0.14
Mof_C 	C 	0.7078	0.9358	0.0532	0.228
Mof_C 	C 	0.8525	0.8414	0.5014	-0.291
Mof_C 	C 	0.6281	0.5772	0.1595	-0.236
Mof_C 	C 	0.1198	0.3538	0.2467	-0.322
Mof_C 	C 	0.0833	0.3837	0.3	0.222
Mof_C 	C 	0.768	0.3311	0.6643	-0.537
Mof_C 	C 	0.8312	0.2981	0.6161	1.011
Mof_C 	C 	0.6099	0.8547	0.3403	0.075
Mof_C 	C 	0.8464	0.6796	0.0737	-0.175
Mof_C 	C 	0.7133	0.949	0.8575	-0.214
Mof_C 	C 	0.906	0.0799	0.6794	-0.348
Mof_C 	C 	0.286	0.7578	0.6119	0.106
Mof_C 	C 	0.2714	0.6792	0.1148	0.316
Mof_C 	C 	0.4167	0.3837	0.8	0.222
Mof_C 	C 	0.1874	0.6355	0.277	0.411
Mof_C 	C 	0.6431	0.3203	0.8964	-0.285
Mof_C 	C 	0.1507	0.7334	0.0576	-0.317
Mof_C 	C 	0.4068	0.6182	0.4142	0.193
Mof_C 	C 	0.9839	0.7881	0.755	0.008
Mof_C 	C 	0.9388	0.0242	0.1918	0.357
Mof_C 	C 	0.9766	0.9222	0.718	0.214
Mof_C 	C 	0.7497	0.6705	0.33	-0.535
Mof_C 	C 	0.202	0.3616	0.6413	0.395
Mof_C 	C 	0.381	0.9424	0.1984	0.181
Mof_C 	C 	0.4651	0.1915	0.2763	0.984
Mof_C 	C 	0.268	0.6689	0.8357	-0.537
Mof_C 	C 	0.381	0.3519	0.1172	-0.316
Mof_C 	C 	0.1338	0.8365	0.2882	-0.273
Mof_C 	C 	0.9638	0.8987	0.6577	-0.313
Mof_C 	C 	0.7292	0.3636	0.4077	-0.294
Mof_C 	C 	0.3253	0.8037	0.5226	-0.195
Mof_C 	C 	0.7538	0.599	0.3641	-0.313
Mof_C 	C 	0.4234	0.8736	0.7868	0.418
Mof_C 	C 	0.3569	0.6797	0.1036	-0.285
Mof_C 	C 	0.6338	0.1635	0.2118	-0.273
Mof_C 	C 	0.2624	0.6001	0.8748	-0.297
Mof_C 	C 	0.4858	0.8757	0.6887	1.033
Mof_C 	C 	0.714	0.2422	0.3881	0.106
Mof_C 	C 	0.6536	0.6796	0.5737	-0.177
Mof_C 	C 	0.9731	0.1041	0.3857	0.373
Mof_C 	C 	0.0766	0.8736	0.2868	0.419
Mof_C 	C 	0.297	0.0534	0.2013	0.218
Mof_C 	C 	0.2299	0.5946	0.2378	-0.339
Mof_N 	N 	0.1455	0.4054	0.9588	-0.251
Mof_N 	N 	0.4332	0.8307	0.4693	-0.238
Mof_N 	N 	0.6425	0.4069	0.9492	-0.274
Mof_N 	N 	0.8545	0.5946	0.0412	-0.251
Mof_N 	N 	0.0668	0.8307	0.9693	-0.238
Mof_N 	N 	0.3545	0.4054	0.4588	-0.251
Mof_N 	N 	0.8575	0.4069	0.4492	-0.274
Mof_N 	N 	0.47	0.1528	0.6442	-0.198
Mof_N 	N 	0.5668	0.1693	0.5307	-0.238
Mof_N 	N 	0.97	0.8472	0.8558	-0.191
Mof_N 	N 	0.9332	0.1693	0.0307	-0.238
Mof_N 	N 	0.1425	0.5931	0.5508	-0.274
Mof_N 	N 	0.53	0.8472	0.3558	-0.198
Mof_N 	N 	0.3575	0.5931	0.0508	-0.274
Mof_N 	N 	0.6455	0.5946	0.5412	-0.251
Mof_N 	N 	0.03	0.1528	0.1442	-0.191
Mof_O 	O 	0.3654	0.9965	0.3265	-0.207
Mof_O 	O 	0.1346	0.9965	0.8265	-0.206
Mof_O 	O 	0.376	0.489	0.0556	-0.44
Mof_O 	O 	0.6433	0.1188	0.6002	-0.43
Mof_O 	O 	0.5006	0.9781	0.3415	-0.236
Mof_O 	O 	0.3681	0.5115	0.4505	-0.449
Mof_O 	O 	0.2033	0.9784	0.1079	-0.253
Mof_O 	O 	0.9814	0.4383	0.0274	-0.463
Mof_O 	O 	0.1941	0.9572	0.9369	-0.427
Mof_O 	O 	0.3567	0.8812	0.3998	-0.43
Mof_O 	O 	0.5961	0.8796	0.4782	-0.418
Mof_O 	O 	0.0051	0.5577	0.0901	-0.453
Mof_O 	O 	0.1129	0.0468	0.9483	-0.372
Mof_O 	O 	0.7033	0.0216	0.3921	-0.254
Mof_O 	O 	0.4949	0.5577	0.5901	-0.455
Mof_O 	O 	0.1189	0.5072	0.0708	-0.438
Mof_O 	O 	0.8654	0.0035	0.1735	-0.206
Mof_O 	O 	0.8681	0.4885	0.0495	-0.45
Mof_O 	O 	0.5033	0.9572	0.4462	-0.588
Mof_O 	O 	0.6941	0.0428	0.5631	-0.426
Mof_O 	O 	0.9949	0.4423	0.9099	-0.453
Mof_O 	O 	0.7967	0.0216	0.8921	-0.253
Mof_O 	O 	0.0961	0.1204	0.0218	-0.413
Mof_O 	O 	0.6189	0.4928	0.4292	-0.44
Mof_O 	O 	0.876	0.511	0.4444	-0.441
Mof_O 	O 	0.4994	0.0219	0.6585	-0.236
Mof_O 	O 	0.124	0.489	0.5556	-0.441
Mof_O 	O 	0.8811	0.4928	0.9292	-0.438
Mof_O 	O 	0.0006	0.0219	0.1585	-0.23
Mof_O 	O 	0.8567	0.1188	0.1002	-0.431
Mof_O 	O 	0.4039	0.1204	0.5218	-0.418
Mof_O 	O 	0.8698	0.5086	0.5665	-0.447
Mof_O 	O 	0.9843	0.5578	0.5867	-0.455
Mof_O 	O 	0.624	0.511	0.9444	-0.44
Mof_O 	O 	0.3811	0.5072	0.5708	-0.44
Mof_O 	O 	0.9994	0.9781	0.8415	-0.23
Mof_O 	O 	0.6302	0.5086	0.0665	-0.447
Mof_O 	O 	0.6129	0.9532	0.5517	-0.372
Mof_O 	O 	0.0091	0.4389	0.5323	-0.453
Mof_O 	O 	0.9909	0.5611	0.4677	-0.453
Mof_O 	O 	0.9967	0.9572	0.9462	-0.584
Mof_O 	O 	0.8059	0.0428	0.0631	-0.427
Mof_O 	O 	0.8871	0.9532	0.0517	-0.372
Mof_O 	O 	0.6906	0.9692	0.4414	-0.42
Mof_O 	O 	0.4843	0.4422	0.9133	-0.455
Mof_O 	O 	0.1302	0.4914	0.4335	-0.447
Mof_O 	O 	0.2967	0.9784	0.6079	-0.254
Mof_O 	O 	0.6319	0.4885	0.5495	-0.449
Mof_O 	O 	0.4814	0.5617	0.4726	-0.46
Mof_O 	O 	0.5186	0.4383	0.5274	-0.46
Mof_O 	O 	0.1906	0.0308	0.0586	-0.418
Mof_O 	O 	0.9039	0.8796	0.9782	-0.413
Mof_O 	O 	0.4967	0.0428	0.5538	-0.588
Mof_O 	O 	0.3094	0.0308	0.5586	-0.42
Mof_O 	O 	0.0157	0.4422	0.4133	-0.455
Mof_O 	O 	0.5051	0.4423	0.4099	-0.455
Mof_O 	O 	0.3059	0.9572	0.4369	-0.426
Mof_O 	O 	0.1433	0.8812	0.8998	-0.431
Mof_O 	O 	0.4909	0.4389	0.0323	-0.452
Mof_O 	O 	0.5157	0.5578	0.0867	-0.455
Mof_O 	O 	0.3698	0.4914	0.9335	-0.447
Mof_O 	O 	0.1319	0.5115	0.9505	-0.45
Mof_O 	O 	0.3871	0.0468	0.4483	-0.372
Mof_O 	O 	0.0186	0.5617	0.9726	-0.463
Mof_O 	O 	0.6346	0.0035	0.6735	-0.207
Mof_O 	O 	0.8094	0.9692	0.9414	-0.418
Mof_O 	O 	0.5091	0.5611	0.9677	-0.452
Mof_O 	O 	0.0033	0.0428	0.0538	-0.584
Mof_F 	F 	0.1548	0.2599	0.6383	-0.442
Mof_F 	F 	0.6223	0.68	0.7779	-0.493
Mof_F 	F 	0.9616	0.792	0.2693	-0.46
Mof_F 	F 	0.5243	0.115	0.0509	-0.327
Mof_F 	F 	0.6205	0.6771	0.3886	-0.539
Mof_F 	F 	0.7296	0.726	0.7787	-0.467
Mof_F 	F 	0.9772	0.0777	0.796	-0.55
Mof_F 	F 	0.4401	0.9352	0.0202	-0.511
Mof_F 	F 	0.1205	0.3229	0.1114	-0.538
Mof_F 	F 	0.9757	0.115	0.5509	-0.327
Mof_F 	F 	0.1035	0.677	0.3935	-0.514
Mof_F 	F 	0.0384	0.208	0.7307	-0.46
Mof_F 	F 	0.0888	0.8547	0.1633	-0.505
Mof_F 	F 	0.3795	0.3229	0.6114	-0.539
Mof_F 	F 	0.3563	0.8738	0.0002	-0.479
Mof_F 	F 	0.8965	0.323	0.6065	-0.514
Mof_F 	F 	0.2296	0.274	0.7213	-0.467
Mof_F 	F 	0.9695	0.7951	0.5585	-0.54
Mof_F 	F 	0.4695	0.2049	0.9415	-0.541
Mof_F 	F 	0.8301	0.2621	0.1373	-0.499
Mof_F 	F 	0.7475	0.2772	0.7181	-0.498
Mof_F 	F 	0.0201	0.7774	0.1813	-0.484
Mof_F 	F 	0.1363	0.7379	0.3686	-0.422
Mof_F 	F 	0.3487	0.2615	0.6355	-0.497
Mof_F 	F 	0.4112	0.8547	0.6633	-0.505
Mof_F 	F 	0.2704	0.274	0.2213	-0.467
Mof_F 	F 	0.9799	0.2226	0.8187	-0.484
Mof_F 	F 	0.5305	0.7951	0.0585	-0.541
Mof_F 	F 	0.4757	0.885	0.9491	-0.327
Mof_F 	F 	0.9401	0.0648	0.4798	-0.512
Mof_F 	F 	0.2755	0.2755	0.5667	-0.503
Mof_F 	F 	0.3596	0.676	0.2814	-0.54
Mof_F 	F 	0.8962	0.1918	0.4508	-0.483
Mof_F 	F 	0.2525	0.7228	0.2819	-0.498
Mof_F 	F 	0.1038	0.8082	0.5492	-0.483
Mof_F 	F 	0.3452	0.2599	0.1383	-0.442
Mof_F 	F 	0.8596	0.324	0.2186	-0.54
Mof_F 	F 	0.7755	0.7245	0.9333	-0.502
Mof_F 	F 	0.3965	0.677	0.8935	-0.514
Mof_F 	F 	0.8487	0.7385	0.8645	-0.496
Mof_F 	F 	0.6513	0.7385	0.3645	-0.497
Mof_F 	F 	0.3301	0.7379	0.3627	-0.498
Mof_F 	F 	0.5228	0.0777	0.296	-0.55
Mof_F 	F 	0.4803	0.7882	0.9709	-0.426
Mof_F 	F 	0.0599	0.9352	0.5202	-0.512
Mof_F 	F 	0.4772	0.9223	0.704	-0.55
Mof_F 	F 	0.9803	0.2118	0.5291	-0.426
Mof_F 	F 	0.0197	0.7882	0.4709	-0.426
Mof_F 	F 	0.0305	0.2049	0.4415	-0.54
Mof_F 	F 	0.2245	0.2755	0.0667	-0.502
Mof_F 	F 	0.8563	0.1262	0.4998	-0.48
Mof_F 	F 	0.8777	0.68	0.2779	-0.494
Mof_F 	F 	0.9112	0.1453	0.8367	-0.505
Mof_F 	F 	0.6035	0.323	0.1065	-0.514
Mof_F 	F 	0.4799	0.7774	0.6813	-0.485
Mof_F 	F 	0.1404	0.676	0.7814	-0.54
Mof_F 	F 	0.791	0.2763	0.5619	-0.464
Mof_F 	F 	0.456	0.1411	0.3561	-0.498
Mof_F 	F 	0.8452	0.7401	0.3617	-0.442
Mof_F 	F 	0.3962	0.8082	0.0492	-0.482
Mof_F 	F 	0.1135	0.1988	0.8033	-0.485
Mof_F 	F 	0.0243	0.885	0.4491	-0.327
Mof_F 	F 	0.956	0.8589	0.1439	-0.498
Mof_F 	F 	0.6363	0.2621	0.1314	-0.422
Mof_F 	F 	0.0228	0.9223	0.204	-0.55
Mof_F 	F 	0.1437	0.8738	0.5002	-0.48
Mof_F 	F 	0.8865	0.8012	0.1967	-0.485
Mof_F 	F 	0.209	0.7237	0.4381	-0.464
Mof_F 	F 	0.4693	0.8592	0.9425	-0.181
Mof_F 	F 	0.709	0.2763	0.0619	-0.465
Mof_F 	F 	0.6437	0.1262	0.9998	-0.479
Mof_F 	F 	0.5307	0.1408	0.0575	-0.181
Mof_F 	F 	0.0307	0.8592	0.4425	-0.181
Mof_F 	F 	0.7245	0.7245	0.4333	-0.503
Mof_F 	F 	0.6548	0.7401	0.8617	-0.442
Mof_F 	F 	0.6404	0.324	0.7186	-0.54
Mof_F 	F 	0.1699	0.7379	0.8627	-0.499
Mof_F 	F 	0.044	0.1411	0.8561	-0.498
Mof_F 	F 	0.544	0.8589	0.6439	-0.498
Mof_F 	F 	0.2475	0.7228	0.7819	-0.499
Mof_F 	F 	0.7704	0.726	0.2787	-0.467
Mof_F 	F 	0.1223	0.32	0.7221	-0.494
Mof_F 	F 	0.8637	0.2621	0.6314	-0.422
Mof_F 	F 	0.9693	0.1408	0.5575	-0.181
Mof_F 	F 	0.7525	0.2772	0.2181	-0.499
Mof_F 	F 	0.5197	0.2118	0.0291	-0.426
Mof_F 	F 	0.8795	0.6771	0.8886	-0.538
Mof_F 	F 	0.5384	0.792	0.7693	-0.46
Mof_F 	F 	0.6699	0.2621	0.6373	-0.498
Mof_F 	F 	0.3865	0.1988	0.3033	-0.484
Mof_F 	F 	0.5888	0.1453	0.3367	-0.505
Mof_F 	F 	0.5201	0.2226	0.3187	-0.485
Mof_F 	F 	0.6038	0.1918	0.9508	-0.482
Mof_F 	F 	0.1513	0.2615	0.1355	-0.496
Mof_F 	F 	0.291	0.7237	0.9381	-0.465
Mof_F 	F 	0.4616	0.208	0.2307	-0.46
Mof_F 	F 	0.3637	0.7379	0.8686	-0.422
Mof_F 	F 	0.3777	0.32	0.2221	-0.493
Mof_F 	F 	0.6135	0.8012	0.6967	-0.484
Mof_F 	F 	0.5599	0.0648	0.9798	-0.511
_end
