data_functionalizedCrystal
_audit_creation_method	'EQeq! by Chris Wilmer'
_symmetry_space_group_name_H-M	'P1'
_symmetry_Int_Tables_number	1
_symmetry_cell_setting	triclinic
loop_
_symmetry_equiv_pos_as_xyz
  x,y,z
_cell_length_a	17.564
_cell_length_b	25.629
_cell_length_c	20.8
_cell_angle_alpha	90
_cell_angle_beta	90
_cell_angle_gamma	90
loop_
_atom_site_label
_atom_site_type_symbol
_atom_site_fract_x
_atom_site_fract_y
_atom_site_fract_z
_atom_site_charge
Mof_Co	Co	0.99689	0.68198	0.56165	1.168
Mof_O 	O 	0.067	0.6216	0.5171	-0.416
Mof_O 	O 	0.1198	0.6864	0.5588	-0.419
Mof_O 	O 	0.827	0.69552	0.6147	-0.517
Mof_O 	O 	0.895	0.6594	0.5356	-0.455
Mof_O 	O 	0.5643	0.30783	0.2172	-0.424
Mof_O 	O 	0.4955	0.3559	0.1471	-0.41
Mof_C 	C 	0.1203	0.6486	0.5268	0.411
Mof_C 	C 	0.2008	0.6277	0.5097	-0.16
Mof_C 	C 	0.2606	0.656	0.5139	0.095
Mof_H 	H 	0.2548	0.6893	0.5309	0.017
Mof_C 	C 	0.3332	0.6412	0.4952	-0.159
Mof_H 	H 	0.374	0.6642	0.498	0.084
Mof_C 	C 	0.3424	0.5921	0.4727	0.076
Mof_C 	C 	0.2824	0.5578	0.4729	-0.147
Mof_H 	H 	0.2879	0.5232	0.4603	0.084
Mof_C 	C 	0.2111	0.5785	0.4937	0.08
Mof_H 	H 	0.1696	0.556	0.4959	0.023
Mof_C 	C 	0.8313	0.6697	0.5723	0.433
Mof_C 	C 	0.762	0.6412	0.5369	-0.127
Mof_C 	C 	0.7642	0.6147	0.4838	0.057
Mof_H 	H 	0.8108	0.6099	0.4633	0.025
Mof_C 	C 	0.6975	0.5926	0.4559	-0.12
Mof_H 	H 	0.6988	0.5779	0.415	0.072
Mof_C 	C 	0.6297	0.5938	0.4916	0.05
Mof_C 	C 	0.6294	0.6196	0.5491	-0.116
Mof_H 	H 	0.5843	0.622	0.5723	0.074
Mof_C 	C 	0.6951	0.6423	0.5737	0.042
Mof_H 	H 	0.6947	0.6581	0.614	0.029
Mof_C 	C 	0.5243	0.3467	0.203	0.381
Mof_C 	C 	0.5155	0.386	0.2535	-0.134
Mof_C 	C 	0.4606	0.4269	0.2453	0.051
Mof_H 	H 	0.4286	0.4269	0.2096	0.031
Mof_C 	C 	0.4554	0.4651	0.2889	-0.113
Mof_H 	H 	0.4201	0.4915	0.282	0.072
Mof_C 	C 	0.5014	0.4676	0.346	0.042
Mof_C 	C 	0.5567	0.4252	0.3522	-0.121
Mof_H 	H 	0.5891	0.4239	0.3875	0.075
Mof_C 	C 	0.5605	0.3876	0.3059	0.063
Mof_H 	H 	0.5967	0.3614	0.3108	0.023
Mof_C 	C 	0.4209	0.5702	0.4533	0.033
Mof_C 	C 	0.4865	0.5904	0.4796	-0.101
Mof_H 	H 	0.4825	0.6173	0.5094	0.064
Mof_C 	C 	0.5595	0.5718	0.4632	0.038
Mof_C 	C 	0.563	0.5316	0.4218	-0.101
Mof_H 	H 	0.6103	0.5172	0.4126	0.067
Mof_C 	C 	0.4964	0.5096	0.391	0.035
Mof_C 	C 	0.427	0.5307	0.4117	-0.101
Mof_H 	H 	0.3824	0.5162	0.3955	0.066
Mof_Co	Co	0.50311	0.31802	0.06165	1.169
Mof_O 	O 	0.433	0.3784	0.0171	-0.415
Mof_O 	O 	0.3802	0.3136	0.0588	-0.42
Mof_O 	O 	0.673	0.30448	0.1147	-0.516
Mof_O 	O 	0.605	0.3406	0.0356	-0.454
Mof_O 	O 	0.9357	0.69217	0.7172	-0.423
Mof_O 	O 	0.0045	0.6441	0.6471	-0.408
Mof_C 	C 	0.3797	0.3514	0.0268	0.411
Mof_C 	C 	0.2992	0.3723	0.0097	-0.16
Mof_C 	C 	0.2394	0.344	0.0139	0.094
Mof_H 	H 	0.2452	0.3107	0.0309	0.017
Mof_C 	C 	0.1668	0.3588	0.9952	-0.158
Mof_H 	H 	0.126	0.3358	0.998	0.084
Mof_C 	C 	0.1576	0.4079	0.9727	0.076
Mof_C 	C 	0.2176	0.4422	0.9729	-0.148
Mof_H 	H 	0.2121	0.4768	0.9603	0.084
Mof_C 	C 	0.2889	0.4215	0.9937	0.081
Mof_H 	H 	0.3304	0.444	0.9959	0.023
Mof_C 	C 	0.6687	0.3303	0.0723	0.432
Mof_C 	C 	0.738	0.3588	0.0369	-0.123
Mof_C 	C 	0.7358	0.3853	0.9838	0.053
Mof_H 	H 	0.6892	0.3901	0.9633	0.027
Mof_C 	C 	0.8025	0.4074	0.9559	-0.118
Mof_H 	H 	0.8012	0.4221	0.915	0.071
Mof_C 	C 	0.8703	0.4062	0.9916	0.047
Mof_C 	C 	0.8706	0.3804	0.0491	-0.112
Mof_H 	H 	0.9157	0.378	0.0723	0.073
Mof_C 	C 	0.8049	0.3577	0.0737	0.039
Mof_H 	H 	0.8053	0.3419	0.114	0.03
Mof_C 	C 	0.9757	0.6533	0.703	0.38
Mof_C 	C 	0.9845	0.614	0.7535	-0.134
Mof_C 	C 	0.0394	0.5731	0.7453	0.051
Mof_H 	H 	0.0714	0.5731	0.7096	0.031
Mof_C 	C 	0.0446	0.5349	0.7889	-0.11
Mof_H 	H 	0.0799	0.5085	0.782	0.071
Mof_C 	C 	0.9986	0.5324	0.846	0.037
Mof_C 	C 	0.9433	0.5748	0.8522	-0.119
Mof_H 	H 	0.9109	0.5761	0.8875	0.074
Mof_C 	C 	0.9395	0.6124	0.8059	0.061
Mof_H 	H 	0.9033	0.6386	0.8108	0.023
Mof_C 	C 	0.0791	0.4298	0.9533	0.032
Mof_C 	C 	0.0135	0.4096	0.9796	-0.096
Mof_H 	H 	0.0175	0.3827	0.0094	0.061
Mof_C 	C 	0.9405	0.4282	0.9632	0.038
Mof_C 	C 	0.937	0.4684	0.9218	-0.104
Mof_H 	H 	0.8897	0.4828	0.9126	0.068
Mof_C 	C 	0.0036	0.4904	0.891	0.039
Mof_C 	C 	0.073	0.4693	0.9117	-0.102
Mof_H 	H 	0.1176	0.4838	0.8955	0.067
Mof_Co	Co	0.99689	0.81802	0.56165	1.168
Mof_O 	O 	0.067	0.8784	0.5171	-0.414
Mof_O 	O 	0.1198	0.8136	0.5588	-0.419
Mof_O 	O 	0.827	0.80448	0.6147	-0.517
Mof_O 	O 	0.895	0.8406	0.5356	-0.455
Mof_O 	O 	0.5643	0.19217	0.2172	-0.424
Mof_O 	O 	0.4955	0.1441	0.1471	-0.41
Mof_C 	C 	0.1203	0.8514	0.5268	0.41
Mof_C 	C 	0.2008	0.8723	0.5097	-0.159
Mof_C 	C 	0.2606	0.844	0.5139	0.095
Mof_H 	H 	0.2548	0.8107	0.5309	0.017
Mof_C 	C 	0.3332	0.8588	0.4952	-0.159
Mof_H 	H 	0.374	0.8358	0.498	0.084
Mof_C 	C 	0.3424	0.9079	0.4727	0.076
Mof_C 	C 	0.2824	0.9422	0.4729	-0.147
Mof_H 	H 	0.2879	0.9768	0.4603	0.084
Mof_C 	C 	0.2111	0.9215	0.4937	0.08
Mof_H 	H 	0.1696	0.944	0.4959	0.024
Mof_C 	C 	0.8313	0.8303	0.5723	0.433
Mof_C 	C 	0.762	0.8588	0.5369	-0.127
Mof_C 	C 	0.7642	0.8853	0.4838	0.057
Mof_H 	H 	0.8108	0.8901	0.4633	0.025
Mof_C 	C 	0.6975	0.9074	0.4559	-0.12
Mof_H 	H 	0.6988	0.9221	0.415	0.072
Mof_C 	C 	0.6297	0.9062	0.4916	0.05
Mof_C 	C 	0.6294	0.8804	0.5491	-0.117
Mof_H 	H 	0.5843	0.878	0.5723	0.074
Mof_C 	C 	0.6951	0.8577	0.5737	0.042
Mof_H 	H 	0.6947	0.8419	0.614	0.029
Mof_C 	C 	0.5243	0.1533	0.203	0.381
Mof_C 	C 	0.5155	0.114	0.2535	-0.134
Mof_C 	C 	0.4606	0.0731	0.2453	0.051
Mof_H 	H 	0.4286	0.0731	0.2096	0.031
Mof_C 	C 	0.4554	0.0349	0.2889	-0.113
Mof_H 	H 	0.4201	0.0085	0.282	0.072
Mof_C 	C 	0.5014	0.0324	0.346	0.042
Mof_C 	C 	0.5567	0.0748	0.3522	-0.121
Mof_H 	H 	0.5891	0.0761	0.3875	0.075
Mof_C 	C 	0.5605	0.1124	0.3059	0.063
Mof_H 	H 	0.5967	0.1386	0.3108	0.023
Mof_C 	C 	0.4209	0.9298	0.4533	0.033
Mof_C 	C 	0.4865	0.9096	0.4796	-0.101
Mof_H 	H 	0.4825	0.8827	0.5094	0.064
Mof_C 	C 	0.5595	0.9282	0.4632	0.038
Mof_C 	C 	0.563	0.9684	0.4218	-0.101
Mof_H 	H 	0.6103	0.9828	0.4126	0.067
Mof_C 	C 	0.4964	0.9904	0.391	0.035
Mof_C 	C 	0.427	0.9693	0.4117	-0.101
Mof_H 	H 	0.3824	0.9838	0.3955	0.066
Mof_Co	Co	0.50311	0.18198	0.06165	1.169
Mof_O 	O 	0.433	0.1216	0.0171	-0.415
Mof_O 	O 	0.3802	0.1864	0.0588	-0.42
Mof_O 	O 	0.673	0.19552	0.1147	-0.516
Mof_O 	O 	0.605	0.1594	0.0356	-0.454
Mof_O 	O 	0.9357	0.80783	0.7172	-0.423
Mof_O 	O 	0.0045	0.8559	0.6471	-0.407
Mof_C 	C 	0.3797	0.1486	0.0268	0.411
Mof_C 	C 	0.2992	0.1277	0.0097	-0.16
Mof_C 	C 	0.2394	0.156	0.0139	0.093
Mof_H 	H 	0.2452	0.1893	0.0309	0.017
Mof_C 	C 	0.1668	0.1412	0.9952	-0.158
Mof_H 	H 	0.126	0.1642	0.998	0.084
Mof_C 	C 	0.1576	0.0921	0.9727	0.076
Mof_C 	C 	0.2176	0.0578	0.9729	-0.147
Mof_H 	H 	0.2121	0.0232	0.9603	0.084
Mof_C 	C 	0.2889	0.0785	0.9937	0.08
Mof_H 	H 	0.3304	0.056	0.9959	0.023
Mof_C 	C 	0.6687	0.1697	0.0723	0.432
Mof_C 	C 	0.738	0.1412	0.0369	-0.123
Mof_C 	C 	0.7358	0.1147	0.9838	0.053
Mof_H 	H 	0.6892	0.1099	0.9633	0.027
Mof_C 	C 	0.8025	0.0926	0.9559	-0.117
Mof_H 	H 	0.8012	0.0779	0.915	0.071
Mof_C 	C 	0.8703	0.0938	0.9916	0.046
Mof_C 	C 	0.8706	0.1196	0.0491	-0.112
Mof_H 	H 	0.9157	0.122	0.0723	0.074
Mof_C 	C 	0.8049	0.1423	0.0737	0.039
Mof_H 	H 	0.8053	0.1581	0.114	0.03
Mof_C 	C 	0.9757	0.8467	0.703	0.379
Mof_C 	C 	0.9845	0.886	0.7535	-0.135
Mof_C 	C 	0.0394	0.9269	0.7453	0.052
Mof_H 	H 	0.0714	0.9269	0.7096	0.031
Mof_C 	C 	0.0446	0.9651	0.7889	-0.108
Mof_H 	H 	0.0799	0.9915	0.782	0.071
Mof_C 	C 	0.9986	0.9676	0.846	0.036
Mof_C 	C 	0.9433	0.9252	0.8522	-0.119
Mof_H 	H 	0.9109	0.9239	0.8875	0.074
Mof_C 	C 	0.9395	0.8876	0.8059	0.061
Mof_H 	H 	0.9033	0.8614	0.8108	0.023
Mof_C 	C 	0.0791	0.0702	0.9533	0.032
Mof_C 	C 	0.0135	0.0904	0.9796	-0.098
Mof_H 	H 	0.0175	0.1173	0.0094	0.061
Mof_C 	C 	0.9405	0.0718	0.9632	0.039
Mof_C 	C 	0.937	0.0316	0.9218	-0.101
Mof_H 	H 	0.8897	0.0172	0.9126	0.068
Mof_C 	C 	0.0036	0.0096	0.891	0.037
Mof_C 	C 	0.073	0.0307	0.9117	-0.102
Mof_H 	H 	0.1176	0.0162	0.8955	0.066
Mof_Co	Co	0.88638	0.75	0.66226	1.186
Mof_O 	O 	0.9812	0.75	0.6011	-0.632
Mof_Co	Co	0.61362	0.25	0.16226	1.186
Mof_O 	O 	0.5188	0.25	0.1011	-0.631
Mof_Co	Co	0.00311	0.18198	0.43835	1.168
Mof_O 	O 	0.933	0.1216	0.4829	-0.414
Mof_O 	O 	0.8802	0.1864	0.4412	-0.419
Mof_O 	O 	0.173	0.19552	0.3853	-0.517
Mof_O 	O 	0.105	0.1594	0.4644	-0.455
Mof_O 	O 	0.4357	0.80783	0.7828	-0.424
Mof_O 	O 	0.5045	0.8559	0.8529	-0.41
Mof_C 	C 	0.8797	0.1486	0.4732	0.41
Mof_C 	C 	0.7992	0.1277	0.4903	-0.159
Mof_C 	C 	0.7394	0.156	0.4861	0.095
Mof_H 	H 	0.7452	0.1893	0.4691	0.017
Mof_C 	C 	0.6668	0.1412	0.5048	-0.159
Mof_H 	H 	0.626	0.1642	0.502	0.084
Mof_C 	C 	0.6576	0.0921	0.5273	0.076
Mof_C 	C 	0.7176	0.0578	0.5271	-0.147
Mof_H 	H 	0.7121	0.0232	0.5397	0.084
Mof_C 	C 	0.7889	0.0785	0.5063	0.08
Mof_H 	H 	0.8304	0.056	0.5041	0.024
Mof_C 	C 	0.1687	0.1697	0.4277	0.433
Mof_C 	C 	0.238	0.1412	0.4631	-0.127
Mof_C 	C 	0.2358	0.1147	0.5162	0.057
Mof_H 	H 	0.1892	0.1099	0.5367	0.025
Mof_C 	C 	0.3025	0.0926	0.5441	-0.12
Mof_H 	H 	0.3012	0.0779	0.585	0.072
Mof_C 	C 	0.3703	0.0938	0.5084	0.05
Mof_C 	C 	0.3706	0.1196	0.4509	-0.117
Mof_H 	H 	0.4157	0.122	0.4277	0.074
Mof_C 	C 	0.3049	0.1423	0.4263	0.042
Mof_H 	H 	0.3053	0.1581	0.386	0.029
Mof_C 	C 	0.4757	0.8467	0.797	0.381
Mof_C 	C 	0.4845	0.886	0.7465	-0.134
Mof_C 	C 	0.5394	0.9269	0.7547	0.051
Mof_H 	H 	0.5714	0.9269	0.7904	0.031
Mof_C 	C 	0.5446	0.9651	0.7111	-0.113
Mof_H 	H 	0.5799	0.9915	0.718	0.072
Mof_C 	C 	0.4986	0.9676	0.654	0.042
Mof_C 	C 	0.4433	0.9252	0.6478	-0.121
Mof_H 	H 	0.4109	0.9239	0.6125	0.075
Mof_C 	C 	0.4395	0.8876	0.6941	0.063
Mof_H 	H 	0.4033	0.8614	0.6892	0.023
Mof_C 	C 	0.5791	0.0702	0.5467	0.033
Mof_C 	C 	0.5135	0.0904	0.5204	-0.101
Mof_H 	H 	0.5175	0.1173	0.4906	0.064
Mof_C 	C 	0.4405	0.0718	0.5368	0.038
Mof_C 	C 	0.437	0.0316	0.5782	-0.101
Mof_H 	H 	0.3897	0.0172	0.5874	0.067
Mof_C 	C 	0.5036	0.0096	0.609	0.035
Mof_C 	C 	0.573	0.0307	0.5883	-0.101
Mof_H 	H 	0.6176	0.0162	0.6045	0.066
Mof_Co	Co	0.49689	0.81802	0.93835	1.169
Mof_O 	O 	0.567	0.8784	0.9829	-0.415
Mof_O 	O 	0.6198	0.8136	0.9412	-0.42
Mof_O 	O 	0.327	0.80448	0.8853	-0.516
Mof_O 	O 	0.395	0.8406	0.9644	-0.454
Mof_O 	O 	0.0643	0.19217	0.2828	-0.423
Mof_O 	O 	0.9955	0.1441	0.3529	-0.407
Mof_C 	C 	0.6203	0.8514	0.9732	0.411
Mof_C 	C 	0.7008	0.8723	0.9903	-0.16
Mof_C 	C 	0.7606	0.844	0.9861	0.093
Mof_H 	H 	0.7548	0.8107	0.9691	0.017
Mof_C 	C 	0.8332	0.8588	0.0048	-0.158
Mof_H 	H 	0.874	0.8358	0.002	0.084
Mof_C 	C 	0.8424	0.9079	0.0273	0.076
Mof_C 	C 	0.7824	0.9422	0.0271	-0.147
Mof_H 	H 	0.7879	0.9768	0.0397	0.084
Mof_C 	C 	0.7111	0.9215	0.0063	0.08
Mof_H 	H 	0.6696	0.944	0.0041	0.023
Mof_C 	C 	0.3313	0.8303	0.9277	0.432
Mof_C 	C 	0.262	0.8588	0.9631	-0.123
Mof_C 	C 	0.2642	0.8853	0.0162	0.053
Mof_H 	H 	0.3108	0.8901	0.0367	0.027
Mof_C 	C 	0.1975	0.9074	0.0441	-0.117
Mof_H 	H 	0.1988	0.9221	0.085	0.071
Mof_C 	C 	0.1297	0.9062	0.0084	0.046
Mof_C 	C 	0.1294	0.8804	0.9509	-0.112
Mof_H 	H 	0.0843	0.878	0.9277	0.074
Mof_C 	C 	0.1951	0.8577	0.9263	0.039
Mof_H 	H 	0.1947	0.8419	0.886	0.03
Mof_C 	C 	0.0243	0.1533	0.297	0.379
Mof_C 	C 	0.0155	0.114	0.2465	-0.135
Mof_C 	C 	0.9606	0.0731	0.2547	0.052
Mof_H 	H 	0.9286	0.0731	0.2904	0.031
Mof_C 	C 	0.9554	0.0349	0.2111	-0.108
Mof_H 	H 	0.9201	0.0085	0.218	0.071
Mof_C 	C 	0.0014	0.0324	0.154	0.036
Mof_C 	C 	0.0567	0.0748	0.1478	-0.119
Mof_H 	H 	0.0891	0.0761	0.1125	0.074
Mof_C 	C 	0.0605	0.1124	0.1941	0.061
Mof_H 	H 	0.0967	0.1386	0.1892	0.023
Mof_C 	C 	0.9209	0.9298	0.0467	0.032
Mof_C 	C 	0.9865	0.9096	0.0204	-0.098
Mof_H 	H 	0.9825	0.8827	0.9906	0.061
Mof_C 	C 	0.0595	0.9282	0.0368	0.039
Mof_C 	C 	0.063	0.9684	0.0782	-0.101
Mof_H 	H 	0.1103	0.9828	0.0874	0.068
Mof_C 	C 	0.9964	0.9904	0.109	0.037
Mof_C 	C 	0.927	0.9693	0.0883	-0.102
Mof_H 	H 	0.8824	0.9838	0.1045	0.066
Mof_Co	Co	0.00311	0.31802	0.43835	1.169
Mof_O 	O 	0.933	0.3784	0.4829	-0.415
Mof_O 	O 	0.8802	0.3136	0.4412	-0.419
Mof_O 	O 	0.173	0.30448	0.3853	-0.517
Mof_O 	O 	0.105	0.3406	0.4644	-0.455
Mof_O 	O 	0.4357	0.69217	0.7828	-0.424
Mof_O 	O 	0.5045	0.6441	0.8529	-0.41
Mof_C 	C 	0.8797	0.3514	0.4732	0.411
Mof_C 	C 	0.7992	0.3723	0.4903	-0.16
Mof_C 	C 	0.7394	0.344	0.4861	0.095
Mof_H 	H 	0.7452	0.3107	0.4691	0.017
Mof_C 	C 	0.6668	0.3588	0.5048	-0.159
Mof_H 	H 	0.626	0.3358	0.502	0.084
Mof_C 	C 	0.6576	0.4079	0.5273	0.076
Mof_C 	C 	0.7176	0.4422	0.5271	-0.147
Mof_H 	H 	0.7121	0.4768	0.5397	0.084
Mof_C 	C 	0.7889	0.4215	0.5063	0.08
Mof_H 	H 	0.8304	0.444	0.5041	0.023
Mof_C 	C 	0.1687	0.3303	0.4277	0.433
Mof_C 	C 	0.238	0.3588	0.4631	-0.127
Mof_C 	C 	0.2358	0.3853	0.5162	0.057
Mof_H 	H 	0.1892	0.3901	0.5367	0.025
Mof_C 	C 	0.3025	0.4074	0.5441	-0.12
Mof_H 	H 	0.3012	0.4221	0.585	0.072
Mof_C 	C 	0.3703	0.4062	0.5084	0.05
Mof_C 	C 	0.3706	0.3804	0.4509	-0.116
Mof_H 	H 	0.4157	0.378	0.4277	0.074
Mof_C 	C 	0.3049	0.3577	0.4263	0.042
Mof_H 	H 	0.3053	0.3419	0.386	0.029
Mof_C 	C 	0.4757	0.6533	0.797	0.381
Mof_C 	C 	0.4845	0.614	0.7465	-0.134
Mof_C 	C 	0.5394	0.5731	0.7547	0.051
Mof_H 	H 	0.5714	0.5731	0.7904	0.031
Mof_C 	C 	0.5446	0.5349	0.7111	-0.113
Mof_H 	H 	0.5799	0.5085	0.718	0.072
Mof_C 	C 	0.4986	0.5324	0.654	0.042
Mof_C 	C 	0.4433	0.5748	0.6478	-0.121
Mof_H 	H 	0.4109	0.5761	0.6125	0.075
Mof_C 	C 	0.4395	0.6124	0.6941	0.063
Mof_H 	H 	0.4033	0.6386	0.6892	0.023
Mof_C 	C 	0.5791	0.4298	0.5467	0.033
Mof_C 	C 	0.5135	0.4096	0.5204	-0.101
Mof_H 	H 	0.5175	0.3827	0.4906	0.064
Mof_C 	C 	0.4405	0.4282	0.5368	0.038
Mof_C 	C 	0.437	0.4684	0.5782	-0.101
Mof_H 	H 	0.3897	0.4828	0.5874	0.067
Mof_C 	C 	0.5036	0.4904	0.609	0.035
Mof_C 	C 	0.573	0.4693	0.5883	-0.101
Mof_H 	H 	0.6176	0.4838	0.6045	0.066
Mof_Co	Co	0.49689	0.68198	0.93835	1.169
Mof_O 	O 	0.567	0.6216	0.9829	-0.415
Mof_O 	O 	0.6198	0.6864	0.9412	-0.42
Mof_O 	O 	0.327	0.69552	0.8853	-0.516
Mof_O 	O 	0.395	0.6594	0.9644	-0.454
Mof_O 	O 	0.0643	0.30783	0.2828	-0.423
Mof_O 	O 	0.9955	0.3559	0.3529	-0.408
Mof_C 	C 	0.6203	0.6486	0.9732	0.411
Mof_C 	C 	0.7008	0.6277	0.9903	-0.16
Mof_C 	C 	0.7606	0.656	0.9861	0.094
Mof_H 	H 	0.7548	0.6893	0.9691	0.017
Mof_C 	C 	0.8332	0.6412	0.0048	-0.158
Mof_H 	H 	0.874	0.6642	0.002	0.084
Mof_C 	C 	0.8424	0.5921	0.0273	0.076
Mof_C 	C 	0.7824	0.5578	0.0271	-0.148
Mof_H 	H 	0.7879	0.5232	0.0397	0.084
Mof_C 	C 	0.7111	0.5785	0.0063	0.081
Mof_H 	H 	0.6696	0.556	0.0041	0.023
Mof_C 	C 	0.3313	0.6697	0.9277	0.432
Mof_C 	C 	0.262	0.6412	0.9631	-0.123
Mof_C 	C 	0.2642	0.6147	0.0162	0.053
Mof_H 	H 	0.3108	0.6099	0.0367	0.027
Mof_C 	C 	0.1975	0.5926	0.0441	-0.118
Mof_H 	H 	0.1988	0.5779	0.085	0.071
Mof_C 	C 	0.1297	0.5938	0.0084	0.047
Mof_C 	C 	0.1294	0.6196	0.9509	-0.112
Mof_H 	H 	0.0843	0.622	0.9277	0.073
Mof_C 	C 	0.1951	0.6423	0.9263	0.039
Mof_H 	H 	0.1947	0.6581	0.886	0.03
Mof_C 	C 	0.0243	0.3467	0.297	0.38
Mof_C 	C 	0.0155	0.386	0.2465	-0.134
Mof_C 	C 	0.9606	0.4269	0.2547	0.051
Mof_H 	H 	0.9286	0.4269	0.2904	0.031
Mof_C 	C 	0.9554	0.4651	0.2111	-0.11
Mof_H 	H 	0.9201	0.4915	0.218	0.071
Mof_C 	C 	0.0014	0.4676	0.154	0.037
Mof_C 	C 	0.0567	0.4252	0.1478	-0.119
Mof_H 	H 	0.0891	0.4239	0.1125	0.074
Mof_C 	C 	0.0605	0.3876	0.1941	0.061
Mof_H 	H 	0.0967	0.3614	0.1892	0.023
Mof_C 	C 	0.9209	0.5702	0.0467	0.032
Mof_C 	C 	0.9865	0.5904	0.0204	-0.096
Mof_H 	H 	0.9825	0.6173	0.9906	0.061
Mof_C 	C 	0.0595	0.5718	0.0368	0.038
Mof_C 	C 	0.063	0.5316	0.0782	-0.104
Mof_H 	H 	0.1103	0.5172	0.0874	0.068
Mof_C 	C 	0.9964	0.5096	0.109	0.039
Mof_C 	C 	0.927	0.5307	0.0883	-0.102
Mof_H 	H 	0.8824	0.5162	0.1045	0.067
Mof_Co	Co	0.11362	0.25	0.33774	1.186
Mof_O 	O 	0.0188	0.25	0.3989	-0.632
Mof_Co	Co	0.38638	0.75	0.83774	1.186
Mof_O 	O 	0.4812	0.75	0.8989	-0.631
_end
