data_functionalizedCrystal
_audit_creation_method	'EQeq! by Chris Wilmer'
_symmetry_space_group_name_H-M	'P1'
_symmetry_Int_Tables_number	1
_symmetry_cell_setting	triclinic
loop_
_symmetry_equiv_pos_as_xyz
  x,y,z
_cell_length_a	7.0077
_cell_length_b	7.8169
_cell_length_c	15.6586
_cell_angle_alpha	98.971
_cell_angle_beta	90
_cell_angle_gamma	90
loop_
_atom_site_label
_atom_site_type_symbol
_atom_site_fract_x
_atom_site_fract_y
_atom_site_fract_z
_atom_site_charge
Mof_Ni	Ni	0.74343	0.69995	0.35065	1.046
Mof_Ni	Ni	0.24343	0.30005	0.14935	1.046
Mof_Ni	Ni	0.25657	0.30005	0.64935	1.045
Mof_Ni	Ni	0.75657	0.69995	0.85065	1.045
Mof_H 	H 	0.9253	0.7831	0.5346	-0.005
Mof_H 	H 	0.9075	0.3548	0.3706	0.012
Mof_H 	H 	0.6973	0.0827	0.3999	-0.018
Mof_H 	H 	0.4776	0.7153	0.5109	0.041
Mof_H 	H 	0.8653	0.6521	0.1625	-0.16
Mof_H 	H 	0.4253	0.2169	0.9654	-0.005
Mof_H 	H 	0.4075	0.6452	0.1294	0.012
Mof_H 	H 	0.1973	0.9173	0.1001	-0.018
Mof_H 	H 	0.9776	0.2847	0.9891	0.041
Mof_H 	H 	0.3653	0.3479	0.3375	-0.16
Mof_H 	H 	0.0747	0.2169	0.4654	-0.005
Mof_H 	H 	0.0925	0.6452	0.6294	0.012
Mof_H 	H 	0.3027	0.9173	0.6001	-0.018
Mof_H 	H 	0.5224	0.2847	0.4891	0.041
Mof_H 	H 	0.1347	0.3479	0.8375	-0.16
Mof_H 	H 	0.5747	0.7831	0.0346	-0.005
Mof_H 	H 	0.5925	0.3548	0.8706	0.012
Mof_H 	H 	0.8027	0.0827	0.8999	-0.018
Mof_H 	H 	0.0224	0.7153	0.0109	0.041
Mof_H 	H 	0.6347	0.6521	0.6625	-0.16
Mof_C 	C 	0.9547	0.6663	0.51916	0.003
Mof_C 	C 	0.9442	0.4169	0.42358	0.01
Mof_C 	C 	0.6169	0.0463	0.44076	-0.01
Mof_C 	C 	0.4888	0.8316	0.5055	-0.008
Mof_C 	C 	0.9254	0.5636	0.18555	0.484
Mof_C 	C 	0.4547	0.3337	0.98084	0.003
Mof_C 	C 	0.4442	0.5831	0.07642	0.01
Mof_C 	C 	0.1169	0.9537	0.05924	-0.009
Mof_C 	C 	0.9888	0.1684	0.9945	-0.007
Mof_C 	C 	0.4254	0.4364	0.31445	0.486
Mof_C 	C 	0.0453	0.3337	0.48084	0.003
Mof_C 	C 	0.0558	0.5831	0.57642	0.01
Mof_C 	C 	0.3831	0.9537	0.55924	-0.01
Mof_C 	C 	0.5112	0.1684	0.4945	-0.008
Mof_C 	C 	0.0746	0.4364	0.81445	0.484
Mof_C 	C 	0.5453	0.6663	0.01916	0.003
Mof_C 	C 	0.5558	0.4169	0.92358	0.01
Mof_C 	C 	0.8831	0.0463	0.94076	-0.009
Mof_C 	C 	0.0112	0.8316	0.0055	-0.007
Mof_C 	C 	0.5746	0.5636	0.68555	0.486
Mof_N 	N 	0.89831	0.58341	0.44244	-0.205
Mof_N 	N 	0.60636	0.87771	0.44606	-0.226
Mof_N 	N 	0.39831	0.41659	0.05756	-0.205
Mof_N 	N 	0.10636	0.12229	0.05394	-0.227
Mof_N 	N 	0.10169	0.41659	0.55756	-0.205
Mof_N 	N 	0.39364	0.12229	0.55394	-0.226
Mof_N 	N 	0.60169	0.58341	0.94244	-0.205
Mof_N 	N 	0.89364	0.87771	0.94606	-0.227
Mof_O 	O 	0.88182	0.53363	0.25787	-0.51
Mof_O 	O 	0.03704	0.48008	0.13244	-0.454
Mof_O 	O 	0.38182	0.46637	0.24213	-0.511
Mof_O 	O 	0.53704	0.51992	0.36756	-0.455
Mof_O 	O 	0.11818	0.46637	0.74213	-0.51
Mof_O 	O 	0.96296	0.51992	0.86756	-0.454
Mof_O 	O 	0.61818	0.53363	0.75787	-0.511
Mof_O 	O 	0.46296	0.48008	0.63244	-0.455
_end
