data_functionalizedCrystal
_audit_creation_method	'EQeq! by Chris Wilmer'
_symmetry_space_group_name_H-M	'P1'
_symmetry_Int_Tables_number	1
_symmetry_cell_setting	triclinic
loop_
_symmetry_equiv_pos_as_xyz
  x,y,z
_cell_length_a	11.6752
_cell_length_b	11.6752
_cell_length_c	12.8954
_cell_angle_alpha	90
_cell_angle_beta	90
_cell_angle_gamma	90
loop_
_atom_site_label
_atom_site_type_symbol
_atom_site_fract_x
_atom_site_fract_y
_atom_site_fract_z
_atom_site_charge
Mof_N 	N 	0.20086	0.1316	0.38789	-0.269
Mof_N 	N 	0.4119	0.279	0.61089	-0.255
Mof_C 	C 	0.1332	0.0814	0.342	-0.063
Mof_C 	C 	0.449	0.3535	0.6589	-0.054
Mof_N 	N 	0.70086	0.6316	0.88789	-0.181
Mof_N 	N 	0.9119	0.779	0.11089	-0.298
Mof_C 	C 	0.6332	0.5814	0.842	-0.003
Mof_C 	C 	0.949	0.8535	0.1589	-0.03
Mof_N 	N 	0.79914	0.8684	0.38789	-0.267
Mof_N 	N 	0.5881	0.721	0.61089	-0.246
Mof_C 	C 	0.8668	0.9186	0.342	0.009
Mof_C 	C 	0.551	0.6465	0.6589	-0.049
Mof_N 	N 	0.29914	0.3684	0.88789	-0.188
Mof_N 	N 	0.0881	0.221	0.11089	-0.3
Mof_C 	C 	0.3668	0.4186	0.842	-0.009
Mof_C 	C 	0.051	0.1465	0.1589	-0.104
Mof_N 	N 	0.8684	0.20086	0.38789	-0.267
Mof_N 	N 	0.721	0.4119	0.61089	-0.248
Mof_C 	C 	0.9186	0.1332	0.342	-0.016
Mof_C 	C 	0.6465	0.449	0.6589	-0.05
Mof_N 	N 	0.3684	0.70086	0.88789	-0.184
Mof_N 	N 	0.221	0.9119	0.11089	-0.297
Mof_C 	C 	0.4186	0.6332	0.842	-0.005
Mof_C 	C 	0.1465	0.949	0.1589	-0.054
Mof_N 	N 	0.1316	0.79914	0.38789	-0.268
Mof_N 	N 	0.279	0.5881	0.61089	-0.252
Mof_C 	C 	0.0814	0.8668	0.342	-0.033
Mof_C 	C 	0.3535	0.551	0.6589	-0.053
Mof_N 	N 	0.6316	0.29914	0.88789	-0.185
Mof_N 	N 	0.779	0.0881	0.11089	-0.301
Mof_C 	C 	0.5814	0.3668	0.842	-0.007
Mof_C 	C 	0.8535	0.051	0.1589	-0.074
Mof_N 	N 	0.79914	0.8684	0.61211	-0.261
Mof_N 	N 	0.5881	0.721	0.38911	-0.253
Mof_C 	C 	0.8668	0.9186	0.658	0.017
Mof_C 	C 	0.551	0.6465	0.3411	-0.056
Mof_N 	N 	0.29914	0.3684	0.11211	-0.298
Mof_N 	N 	0.0881	0.221	0.88911	-0.189
Mof_C 	C 	0.3668	0.4186	0.158	-0.093
Mof_C 	C 	0.051	0.1465	0.8411	-0.026
Mof_N 	N 	0.20086	0.1316	0.61211	-0.262
Mof_N 	N 	0.4119	0.279	0.38911	-0.26
Mof_C 	C 	0.1332	0.0814	0.658	-0.056
Mof_C 	C 	0.449	0.3535	0.3411	-0.062
Mof_N 	N 	0.70086	0.6316	0.11211	-0.291
Mof_N 	N 	0.9119	0.779	0.88911	-0.186
Mof_C 	C 	0.6332	0.5814	0.158	-0.086
Mof_C 	C 	0.949	0.8535	0.8411	0.048
Mof_N 	N 	0.1316	0.79914	0.61211	-0.262
Mof_N 	N 	0.279	0.5881	0.38911	-0.259
Mof_C 	C 	0.0814	0.8668	0.658	-0.025
Mof_C 	C 	0.3535	0.551	0.3411	-0.06
Mof_N 	N 	0.6316	0.29914	0.11211	-0.295
Mof_N 	N 	0.779	0.0881	0.88911	-0.189
Mof_C 	C 	0.5814	0.3668	0.158	-0.09
Mof_C 	C 	0.8535	0.051	0.8411	0.004
Mof_N 	N 	0.8684	0.20086	0.61211	-0.261
Mof_N 	N 	0.721	0.4119	0.38911	-0.254
Mof_C 	C 	0.9186	0.1332	0.658	-0.008
Mof_C 	C 	0.6465	0.449	0.3411	-0.058
Mof_N 	N 	0.3684	0.70086	0.11211	-0.294
Mof_N 	N 	0.221	0.9119	0.88911	-0.186
Mof_C 	C 	0.4186	0.6332	0.158	-0.089
Mof_C 	C 	0.1465	0.949	0.8411	0.023
Mof_W 	W 	1.0395e-33	0	0.25101	0.324
Mof_W 	W 	0.5	0.5	0.75101	0.494
Mof_W 	W 	3.10176e-33	0	0.74899	0.329
Mof_W 	W 	0.5	0.5	0.24899	0.483
Mof_Ni	Ni	0.30589	0.20181	0.5	0.993
Mof_Ni	Ni	0.80589	0.70181	-0	0.904
Mof_Ni	Ni	0.69411	0.79819	0.5	1.004
Mof_Ni	Ni	0.19411	0.29819	-0	0.892
Mof_Ni	Ni	0.79819	0.30589	0.5	1.001
Mof_Ni	Ni	0.29819	0.80589	-0	0.899
Mof_Ni	Ni	0.20181	0.69411	0.5	0.997
Mof_Ni	Ni	0.70181	0.19411	-0	0.898
_end
