data_functionalizedCrystal
_audit_creation_method	'EQeq! by Chris Wilmer'
_symmetry_space_group_name_H-M	'P1'
_symmetry_Int_Tables_number	1
_symmetry_cell_setting	triclinic
loop_
_symmetry_equiv_pos_as_xyz
  x,y,z
_cell_length_a	8.533
_cell_length_b	9.37
_cell_length_c	10.003
_cell_angle_alpha	63.283
_cell_angle_beta	75.905
_cell_angle_gamma	74.276
loop_
_atom_site_label
_atom_site_type_symbol
_atom_site_fract_x
_atom_site_fract_y
_atom_site_fract_z
_atom_site_charge
Mof_Gd	Gd	0.3325	0.36823	0.8405	1.773
Mof_O 	O 	0.0832	0.3023	0.017	-0.344
Mof_O 	O 	0.3204	0.0866	0.919	-0.366
Mof_O 	O 	0.5299	0.307	0.6465	-0.369
Mof_O 	O 	0.5331	0.5233	0.8133	-0.358
Mof_O 	O 	0.4314	0.8245	0.0394	-0.345
Mof_O 	O 	0.8629	0.3948	0.1498	-0.355
Mof_O 	O 	0.6581	0.6084	0.9255	-0.356
Mof_O 	O 	0.6573	0.3999	0.4082	-0.351
Mof_C 	C 	0.9847	0.4131	0.0484	0.252
Mof_C 	C 	0.4287	0.9734	0.9881	0.269
Mof_C 	C 	0.5548	0.415	0.5157	0.263
Mof_C 	C 	0.5563	0.539	0.9241	0.287
Mof_Gd	Gd	0.6675	0.63177	0.1595	1.773
Mof_O 	O 	0.9168	0.6977	0.983	-0.344
Mof_O 	O 	0.6796	0.9134	0.081	-0.366
Mof_O 	O 	0.4701	0.693	0.3535	-0.369
Mof_O 	O 	0.4669	0.4767	0.1867	-0.358
Mof_O 	O 	0.5686	0.1755	0.9606	-0.345
Mof_O 	O 	0.1371	0.6052	0.8502	-0.355
Mof_O 	O 	0.3419	0.3916	0.0745	-0.356
Mof_O 	O 	0.3427	0.6001	0.5918	-0.351
Mof_C 	C 	0.0153	0.5869	0.9516	0.252
Mof_C 	C 	0.5713	0.0266	0.0119	0.269
Mof_C 	C 	0.4452	0.585	0.4843	0.263
Mof_C 	C 	0.4437	0.461	0.0759	0.287
_end
