data_functionalizedCrystal
_audit_creation_method	'EQeq! by Chris Wilmer'
_symmetry_space_group_name_H-M	'P1'
_symmetry_Int_Tables_number	1
_symmetry_cell_setting	triclinic
loop_
_symmetry_equiv_pos_as_xyz
  x,y,z
_cell_length_a	14.4085
_cell_length_b	18.9382
_cell_length_c	17.0522
_cell_angle_alpha	90
_cell_angle_beta	101.696
_cell_angle_gamma	90
loop_
_atom_site_label
_atom_site_type_symbol
_atom_site_fract_x
_atom_site_fract_y
_atom_site_fract_z
_atom_site_charge
Mof_P 	P 	0.50932	0.1639	0.30776	0.444
Mof_P 	P 	0.72458	0.25597	0.50141	0.459
Mof_S 	S 	0.0038	0.0332	0.7081	-0.01
Mof_C 	C 	0.7085	0.3124	0.2743	-0.071
Mof_H 	H 	0.6974	0.3444	0.3159	0.077
Mof_H 	H 	0.6767	0.3314	0.223	0.065
Mof_C 	C 	0.6865	0.1921	0.2236	-0.033
Mof_H 	H 	0.6539	0.2086	0.1714	0.057
Mof_H 	H 	0.6622	0.1457	0.2325	0.021
Mof_C 	C 	0.564	0.2481	0.2888	-0.21
Mof_H 	H 	0.5305	0.267	0.2381	0.112
Mof_H 	H 	0.5569	0.2815	0.3304	0.107
Mof_C 	C 	0.7969	0.1857	0.7361	-0.061
Mof_H 	H 	0.863	0.1999	0.7485	0.079
Mof_H 	H 	0.7944	0.1361	0.7214	0.064
Mof_C 	C 	0.7458	0.3046	0.6901	-0.081
Mof_H 	H 	0.7096	0.3317	0.646	0.076
Mof_H 	H 	0.8103	0.3223	0.701	0.088
Mof_C 	C 	0.7882	0.2147	0.5944	-0.215
Mof_H 	H 	0.7903	0.1641	0.586	0.097
Mof_H 	H 	0.8529	0.2318	0.6056	0.124
Mof_N 	N 	0.6681	0.2417	0.2865	-0.132
Mof_H 	H 	0.6988	0.2249	0.3349	0.127
Mof_N 	N 	0.7455	0.2281	0.667	-0.128
Mof_H 	H 	0.6842	0.2132	0.6555	0.126
Mof_O 	O 	0.4703	0.1298	0.2285	-0.279
Mof_O 	O 	0.4348	0.1854	0.3561	-0.44
Mof_O 	O 	0.5866	0.122	0.3635	-0.515
Mof_O 	O 	0.7463	0.3349	0.5064	-0.218
Mof_O 	O 	0.7667	0.2197	0.4375	-0.269
Mof_O 	O 	0.6203	0.2414	0.4974	-0.457
Mof_O 	O 	0.6333	0.065	0.5256	-0.572
Mof_O 	O 	0.058	0.0463	0.7745	-0.176
Mof_O 	O 	0.025	0.989	0.654	-0.193
Mof_O 	O 	0.996	0.1021	0.6636	-0.068
Mof_P 	P 	0.00932	0.6639	0.80776	0.342
Mof_P 	P 	0.22458	0.75597	0.00141	0.328
Mof_S 	S 	0.5038	0.5332	0.2081	0.473
Mof_C 	C 	0.2085	0.8124	0.7743	-0.074
Mof_H 	H 	0.1974	0.8444	0.8159	0.09
Mof_H 	H 	0.1767	0.8314	0.723	0.067
Mof_C 	C 	0.1865	0.6921	0.7236	-0.031
Mof_H 	H 	0.1539	0.7086	0.6714	0.057
Mof_H 	H 	0.1622	0.6457	0.7325	0.017
Mof_C 	C 	0.064	0.7481	0.7888	-0.189
Mof_H 	H 	0.0305	0.767	0.7381	0.086
Mof_H 	H 	0.0569	0.7815	0.8304	0.099
Mof_C 	C 	0.2969	0.6857	0.2361	-0.05
Mof_H 	H 	0.363	0.6999	0.2485	0.061
Mof_H 	H 	0.2944	0.6361	0.2214	0.054
Mof_C 	C 	0.2458	0.8046	0.1901	-0.084
Mof_H 	H 	0.2096	0.8317	0.146	0.075
Mof_H 	H 	0.3103	0.8223	0.201	0.09
Mof_C 	C 	0.2882	0.7147	0.0944	-0.187
Mof_H 	H 	0.2903	0.6641	0.086	0.076
Mof_H 	H 	0.3529	0.7318	0.1056	0.101
Mof_N 	N 	0.1681	0.7417	0.7865	-0.135
Mof_H 	H 	0.1988	0.7249	0.8349	0.13
Mof_N 	N 	0.2455	0.7281	0.167	-0.134
Mof_H 	H 	0.1842	0.7132	0.1555	0.126
Mof_O 	O 	0.9703	0.6298	0.7285	-0.205
Mof_O 	O 	0.9348	0.6854	0.8561	-0.33
Mof_O 	O 	0.0866	0.622	0.8635	-0.494
Mof_O 	O 	0.2463	0.8349	0.0064	-0.233
Mof_O 	O 	0.2667	0.7197	0.9375	-0.2
Mof_O 	O 	0.1203	0.7414	0.9974	-0.327
Mof_O 	O 	0.1333	0.565	0.0256	-0.591
Mof_O 	O 	0.558	0.5463	0.2745	-0.278
Mof_O 	O 	0.525	0.489	0.154	-0.213
Mof_O 	O 	0.496	0.6021	0.1636	-0.229
Mof_P 	P 	0.49068	0.1639	0.69224	0.443
Mof_P 	P 	0.27542	0.25597	0.49859	0.455
Mof_S 	S 	0.9962	0.0332	0.2919	0.198
Mof_C 	C 	0.2915	0.3124	0.7257	-0.088
Mof_H 	H 	0.3026	0.3444	0.6841	0.078
Mof_H 	H 	0.3233	0.3314	0.777	0.073
Mof_C 	C 	0.3135	0.1921	0.7764	-0.053
Mof_H 	H 	0.3461	0.2086	0.8286	0.079
Mof_H 	H 	0.3378	0.1457	0.7675	0.034
Mof_C 	C 	0.436	0.2481	0.7112	-0.213
Mof_H 	H 	0.4695	0.267	0.7619	0.117
Mof_H 	H 	0.4431	0.2815	0.6696	0.107
Mof_C 	C 	0.2031	0.1857	0.2639	-0.045
Mof_H 	H 	0.137	0.1999	0.2515	0.047
Mof_H 	H 	0.2056	0.1361	0.2786	0.051
Mof_C 	C 	0.2542	0.3046	0.3099	-0.077
Mof_H 	H 	0.2904	0.3317	0.354	0.074
Mof_H 	H 	0.1897	0.3223	0.299	0.08
Mof_C 	C 	0.2118	0.2147	0.4056	-0.205
Mof_H 	H 	0.2097	0.1641	0.414	0.088
Mof_H 	H 	0.1471	0.2318	0.3944	0.102
Mof_N 	N 	0.3319	0.2417	0.7135	-0.126
Mof_H 	H 	0.3012	0.2249	0.6651	0.124
Mof_N 	N 	0.2545	0.2281	0.333	-0.134
Mof_H 	H 	0.3158	0.2132	0.3445	0.127
Mof_O 	O 	0.5297	0.1298	0.7715	-0.265
Mof_O 	O 	0.5652	0.1854	0.6439	-0.439
Mof_O 	O 	0.4134	0.122	0.6365	-0.514
Mof_O 	O 	0.2537	0.3349	0.4936	-0.23
Mof_O 	O 	0.2333	0.2197	0.5625	-0.282
Mof_O 	O 	0.3797	0.2414	0.5026	-0.457
Mof_O 	O 	0.3667	0.065	0.4744	-0.575
Mof_O 	O 	0.942	0.0463	0.2255	-0.211
Mof_O 	O 	0.975	0.989	0.346	-0.216
Mof_O 	O 	0.004	0.1021	0.3364	-0.213
Mof_P 	P 	0.99068	0.6639	0.19224	0.55
Mof_P 	P 	0.77542	0.75597	0.99859	0.565
Mof_S 	S 	0.4962	0.5332	0.7919	0.461
Mof_C 	C 	0.7915	0.8124	0.2257	-0.092
Mof_H 	H 	0.8026	0.8444	0.1841	0.084
Mof_H 	H 	0.8233	0.8314	0.277	0.086
Mof_C 	C 	0.8135	0.6921	0.2764	-0.057
Mof_H 	H 	0.8461	0.7086	0.3286	0.084
Mof_H 	H 	0.8378	0.6457	0.2675	0.042
Mof_C 	C 	0.936	0.7481	0.2112	-0.243
Mof_H 	H 	0.9695	0.767	0.2619	0.151
Mof_H 	H 	0.9431	0.7815	0.1696	0.132
Mof_C 	C 	0.7031	0.6857	0.7639	-0.049
Mof_H 	H 	0.637	0.6999	0.7515	0.061
Mof_H 	H 	0.7056	0.6361	0.7786	0.055
Mof_C 	C 	0.7542	0.8046	0.8099	-0.08
Mof_H 	H 	0.7904	0.8317	0.854	0.097
Mof_H 	H 	0.6897	0.8223	0.799	0.093
Mof_C 	C 	0.7118	0.7147	0.9056	-0.224
Mof_H 	H 	0.7097	0.6641	0.914	0.113
Mof_H 	H 	0.6471	0.7318	0.8944	0.129
Mof_N 	N 	0.8319	0.7417	0.2135	-0.121
Mof_H 	H 	0.8012	0.7249	0.1651	0.123
Mof_N 	N 	0.7545	0.7281	0.833	-0.129
Mof_H 	H 	0.8158	0.7132	0.8445	0.136
Mof_O 	O 	0.0297	0.6298	0.2715	-0.331
Mof_O 	O 	0.0652	0.6854	0.1439	-0.465
Mof_O 	O 	0.9134	0.622	0.1365	-0.506
Mof_O 	O 	0.7537	0.8349	0.9936	-0.18
Mof_O 	O 	0.7333	0.7197	0.0625	-0.337
Mof_O 	O 	0.8797	0.7414	0.0026	-0.474
Mof_O 	O 	0.8667	0.565	0.9744	-0.482
Mof_O 	O 	0.442	0.5463	0.7255	-0.276
Mof_O 	O 	0.475	0.489	0.846	-0.198
Mof_O 	O 	0.504	0.6021	0.8364	-0.206
Mof_P 	P 	0.49068	0.8361	0.69224	0.443
Mof_P 	P 	0.27542	0.74403	0.49859	0.457
Mof_S 	S 	0.9962	0.9668	0.2919	0.99
Mof_C 	C 	0.2915	0.6876	0.7257	-0.087
Mof_H 	H 	0.3026	0.6556	0.6841	0.077
Mof_H 	H 	0.3233	0.6686	0.777	0.073
Mof_C 	C 	0.3135	0.8079	0.7764	-0.055
Mof_H 	H 	0.3461	0.7914	0.8286	0.084
Mof_H 	H 	0.3378	0.8543	0.7675	0.048
Mof_C 	C 	0.436	0.7519	0.7112	-0.212
Mof_H 	H 	0.4695	0.733	0.7619	0.117
Mof_H 	H 	0.4431	0.7185	0.6696	0.106
Mof_C 	C 	0.2031	0.8143	0.2639	-0.044
Mof_H 	H 	0.137	0.8001	0.2515	0.048
Mof_H 	H 	0.2056	0.8639	0.2786	0.061
Mof_C 	C 	0.2542	0.6954	0.3099	-0.077
Mof_H 	H 	0.2904	0.6683	0.354	0.074
Mof_H 	H 	0.1897	0.6777	0.299	0.08
Mof_C 	C 	0.2118	0.7853	0.4056	-0.21
Mof_H 	H 	0.2097	0.8359	0.414	0.098
Mof_H 	H 	0.1471	0.7682	0.3944	0.107
Mof_N 	N 	0.3319	0.7583	0.7135	-0.126
Mof_H 	H 	0.3012	0.7751	0.6651	0.126
Mof_N 	N 	0.2545	0.7719	0.333	-0.133
Mof_H 	H 	0.3158	0.7868	0.3445	0.129
Mof_O 	O 	0.5297	0.8702	0.7715	-0.241
Mof_O 	O 	0.5652	0.8146	0.6439	-0.437
Mof_O 	O 	0.4134	0.878	0.6365	-0.493
Mof_O 	O 	0.2537	0.6651	0.4936	-0.23
Mof_O 	O 	0.2333	0.7803	0.5625	-0.275
Mof_O 	O 	0.3797	0.7586	0.5026	-0.461
Mof_O 	O 	0.3667	0.935	0.4744	-0.527
Mof_O 	O 	0.942	0.9537	0.2255	-0.376
Mof_O 	O 	0.975	0.011	0.346	-0.222
Mof_O 	O 	0.004	0.8979	0.3364	-0.361
Mof_P 	P 	0.99068	0.3361	0.19224	0.549
Mof_P 	P 	0.77542	0.24403	0.99859	0.566
Mof_S 	S 	0.4962	0.4668	0.7919	0.461
Mof_C 	C 	0.7915	0.1876	0.2257	-0.087
Mof_H 	H 	0.8026	0.1556	0.1841	0.069
Mof_H 	H 	0.8233	0.1686	0.277	0.076
Mof_C 	C 	0.8135	0.3079	0.2764	-0.056
Mof_H 	H 	0.8461	0.2914	0.3286	0.081
Mof_H 	H 	0.8378	0.3543	0.2675	0.041
Mof_C 	C 	0.936	0.2519	0.2112	-0.24
Mof_H 	H 	0.9695	0.233	0.2619	0.146
Mof_H 	H 	0.9431	0.2185	0.1696	0.126
Mof_C 	C 	0.7031	0.3143	0.7639	-0.049
Mof_H 	H 	0.637	0.3001	0.7515	0.061
Mof_H 	H 	0.7056	0.3639	0.7786	0.055
Mof_C 	C 	0.7542	0.1954	0.8099	-0.074
Mof_H 	H 	0.7904	0.1683	0.854	0.085
Mof_H 	H 	0.6897	0.1777	0.799	0.084
Mof_C 	C 	0.7118	0.2853	0.9056	-0.225
Mof_H 	H 	0.7097	0.3359	0.914	0.113
Mof_H 	H 	0.6471	0.2682	0.8944	0.126
Mof_N 	N 	0.8319	0.2583	0.2135	-0.123
Mof_H 	H 	0.8012	0.2751	0.1651	0.123
Mof_N 	N 	0.7545	0.2719	0.833	-0.13
Mof_H 	H 	0.8158	0.2868	0.8445	0.136
Mof_O 	O 	0.0297	0.3702	0.2715	-0.331
Mof_O 	O 	0.0652	0.3146	0.1439	-0.466
Mof_O 	O 	0.9134	0.378	0.1365	-0.506
Mof_O 	O 	0.7537	0.1651	0.9936	-0.201
Mof_O 	O 	0.7333	0.2803	0.0625	-0.339
Mof_O 	O 	0.8797	0.2586	0.0026	-0.478
Mof_O 	O 	0.8667	0.435	0.9744	-0.482
Mof_O 	O 	0.442	0.4537	0.7255	-0.276
Mof_O 	O 	0.475	0.511	0.846	-0.198
Mof_O 	O 	0.504	0.3979	0.8364	-0.207
Mof_P 	P 	0.50932	0.8361	0.30776	0.444
Mof_P 	P 	0.72458	0.74403	0.50141	0.46
Mof_S 	S 	0.0038	0.9668	0.7081	0.773
Mof_C 	C 	0.7085	0.6876	0.2743	-0.071
Mof_H 	H 	0.6974	0.6556	0.3159	0.076
Mof_H 	H 	0.6767	0.6686	0.223	0.064
Mof_C 	C 	0.6865	0.8079	0.2236	-0.036
Mof_H 	H 	0.6539	0.7914	0.1714	0.061
Mof_H 	H 	0.6622	0.8543	0.2325	0.035
Mof_C 	C 	0.564	0.7519	0.2888	-0.211
Mof_H 	H 	0.5305	0.733	0.2381	0.112
Mof_H 	H 	0.5569	0.7185	0.3304	0.106
Mof_C 	C 	0.7969	0.8143	0.7361	-0.06
Mof_H 	H 	0.863	0.8001	0.7485	0.081
Mof_H 	H 	0.7944	0.8639	0.7214	0.074
Mof_C 	C 	0.7458	0.6954	0.6901	-0.081
Mof_H 	H 	0.7096	0.6683	0.646	0.076
Mof_H 	H 	0.8103	0.6777	0.701	0.088
Mof_C 	C 	0.7882	0.7853	0.5944	-0.221
Mof_H 	H 	0.7903	0.8359	0.586	0.108
Mof_H 	H 	0.8529	0.7682	0.6056	0.13
Mof_N 	N 	0.6681	0.7583	0.2865	-0.132
Mof_H 	H 	0.6988	0.7751	0.3349	0.129
Mof_N 	N 	0.7455	0.7719	0.667	-0.127
Mof_H 	H 	0.6842	0.7868	0.6555	0.128
Mof_O 	O 	0.4703	0.8702	0.2285	-0.254
Mof_O 	O 	0.4348	0.8146	0.3561	-0.438
Mof_O 	O 	0.5866	0.878	0.3635	-0.494
Mof_O 	O 	0.7463	0.6651	0.5064	-0.217
Mof_O 	O 	0.7667	0.7803	0.4375	-0.262
Mof_O 	O 	0.6203	0.7586	0.4974	-0.461
Mof_O 	O 	0.6333	0.935	0.5256	-0.524
Mof_O 	O 	0.058	0.9537	0.7745	-0.339
Mof_O 	O 	0.025	0.011	0.654	-0.198
Mof_O 	O 	0.996	0.8979	0.6636	-0.214
Mof_P 	P 	0.00932	0.3361	0.80776	0.342
Mof_P 	P 	0.22458	0.24403	0.00141	0.329
Mof_S 	S 	0.5038	0.4668	0.2081	0.473
Mof_C 	C 	0.2085	0.1876	0.7743	-0.069
Mof_H 	H 	0.1974	0.1556	0.8159	0.075
Mof_H 	H 	0.1767	0.1686	0.723	0.056
Mof_C 	C 	0.1865	0.3079	0.7236	-0.03
Mof_H 	H 	0.1539	0.2914	0.6714	0.054
Mof_H 	H 	0.1622	0.3543	0.7325	0.016
Mof_C 	C 	0.064	0.2519	0.7888	-0.185
Mof_H 	H 	0.0305	0.233	0.7381	0.082
Mof_H 	H 	0.0569	0.2185	0.8304	0.093
Mof_C 	C 	0.2969	0.3143	0.2361	-0.05
Mof_H 	H 	0.363	0.3001	0.2485	0.061
Mof_H 	H 	0.2944	0.3639	0.2214	0.054
Mof_C 	C 	0.2458	0.1954	0.1901	-0.078
Mof_H 	H 	0.2096	0.1683	0.146	0.064
Mof_H 	H 	0.3103	0.1777	0.201	0.082
Mof_C 	C 	0.2882	0.2853	0.0944	-0.188
Mof_H 	H 	0.2903	0.3359	0.086	0.076
Mof_H 	H 	0.3529	0.2682	0.1056	0.099
Mof_N 	N 	0.1681	0.2583	0.7865	-0.137
Mof_H 	H 	0.1988	0.2751	0.8349	0.13
Mof_N 	N 	0.2455	0.2719	0.167	-0.134
Mof_H 	H 	0.1842	0.2868	0.1555	0.125
Mof_O 	O 	0.9703	0.3702	0.7285	-0.206
Mof_O 	O 	0.9348	0.3146	0.8561	-0.331
Mof_O 	O 	0.0866	0.378	0.8635	-0.494
Mof_O 	O 	0.2463	0.1651	0.0064	-0.253
Mof_O 	O 	0.2667	0.2803	0.9375	-0.203
Mof_O 	O 	0.1203	0.2586	0.9974	-0.331
Mof_O 	O 	0.1333	0.435	0.0256	-0.59
Mof_O 	O 	0.558	0.4537	0.2745	-0.278
Mof_O 	O 	0.525	0.511	0.154	-0.213
Mof_O 	O 	0.496	0.3979	0.1636	-0.229
Mof_La	La	0.5	0.1524	0.5	2.155
Mof_La	La	-0	0.6524	-0	1.739
Mof_La	La	0.5	0.8476	0.5	2.191
Mof_La	La	-0	0.3476	-0	1.738
Mof_La	La	0.64612	0	0.38909	1.567
Mof_P 	P 	0.6214	5.54019e-33	0.57595	0.419
Mof_C 	C 	0.8833	-5.54019e-33	0.7196	-0.125
Mof_C 	C 	0.866	0	0.7961	0.041
Mof_H 	H 	0.916	1.10804e-32	0.8402	0.058
Mof_C 	C 	0.773	0	0.8062	-0.127
Mof_H 	H 	0.7601	0	0.8574	0.093
Mof_C 	C 	0.6988	5.54019e-33	0.7395	0.042
Mof_H 	H 	0.6365	5.54019e-33	0.7466	0.013
Mof_C 	C 	0.7167	5.54019e-33	0.663	-0.134
Mof_C 	C 	0.8112	5.54019e-33	0.6528	0.05
Mof_H 	H 	0.8248	0	0.6017	-0.004
Mof_O 	O 	0.527	0	0.6012	-0.518
Mof_La	La	0.14612	0.5	0.88909	1.735
Mof_P 	P 	0.1214	0.5	0.07595	0.465
Mof_C 	C 	0.3833	0.5	0.2196	-0.2
Mof_C 	C 	0.366	0.5	0.2961	0.104
Mof_H 	H 	0.416	0.5	0.3402	0.019
Mof_C 	C 	0.273	0.5	0.3062	-0.168
Mof_H 	H 	0.2601	0.5	0.3574	0.105
Mof_C 	C 	0.1988	0.5	0.2395	0.087
Mof_H 	H 	0.1365	0.5	0.2466	0.002
Mof_C 	C 	0.2167	0.5	0.163	-0.158
Mof_C 	C 	0.3112	0.5	0.1528	0.114
Mof_H 	H 	0.3248	0.5	0.1017	-0.033
Mof_O 	O 	0.027	0.5	0.1012	-0.538
Mof_La	La	0.35388	0	0.61091	1.554
Mof_P 	P 	0.3786	0	0.42405	0.433
Mof_C 	C 	0.1167	2.7701e-33	0.2804	-0.347
Mof_C 	C 	0.134	0	0.2039	0.185
Mof_H 	H 	0.084	0	0.1598	-0.054
Mof_C 	C 	0.227	0	0.1938	-0.245
Mof_H 	H 	0.2399	0	0.1426	0.108
Mof_C 	C 	0.3012	-2.7701e-33	0.2605	0.127
Mof_H 	H 	0.3635	2.7701e-33	0.2534	-0.021
Mof_C 	C 	0.2833	0	0.337	-0.206
Mof_C 	C 	0.1888	2.7701e-33	0.3472	0.181
Mof_H 	H 	0.1752	0	0.3983	-0.066
Mof_O 	O 	0.473	0	0.3988	-0.521
Mof_La	La	0.85388	0.5	0.11091	1.657
Mof_P 	P 	0.8786	0.5	0.92405	0.463
Mof_C 	C 	0.6167	0.5	0.7804	-0.179
Mof_C 	C 	0.634	0.5	0.7039	0.086
Mof_H 	H 	0.584	0.5	0.6598	0.025
Mof_C 	C 	0.727	0.5	0.6938	-0.15
Mof_H 	H 	0.7399	0.5	0.6426	0.104
Mof_C 	C 	0.8012	0.5	0.7605	0.068
Mof_H 	H 	0.8635	0.5	0.7534	0.02
Mof_C 	C 	0.7833	0.5	0.837	-0.136
Mof_C 	C 	0.6888	0.5	0.8472	0.091
Mof_H 	H 	0.6752	0.5	0.8983	-0.001
Mof_O 	O 	0.973	0.5	0.8988	-0.435
_end
