data_functionalizedCrystal
_audit_creation_method	'EQeq! by Chris Wilmer'
_symmetry_space_group_name_H-M	'P1'
_symmetry_Int_Tables_number	1
_symmetry_cell_setting	triclinic
loop_
_symmetry_equiv_pos_as_xyz
  x,y,z
_cell_length_a	17.3849
_cell_length_b	21.0331
_cell_length_c	23.409
_cell_angle_alpha	90
_cell_angle_beta	91.978
_cell_angle_gamma	90
loop_
_atom_site_label
_atom_site_type_symbol
_atom_site_fract_x
_atom_site_fract_y
_atom_site_fract_z
_atom_site_charge
Mof_Pr	Pr	0.57184	0.83353	0.90633	2.45
Mof_Pr	Pr	0.45032	0.82764	0.0755	2.472
Mof_Pr	Pr	0.93508	0.99691	0.58503	2.781
Mof_Pr	Pr	0.76965	0.08619	0.75176	2.111
Mof_Cu	Cu	0.23025	0.83495	0.72557	0.822
Mof_Cu	Cu	0.27484	0.00191	0.7684	0.828
Mof_Cu	Cu	0.28887	0.66984	0.76	0.825
Mof_Cu	Cu	0.49021	0.11668	0.50643	0.863
Mof_Cl	Cl	0.4762	0.221	0.5018	-0.505
Mof_O 	O 	0.5841	0.716	0.5302	-0.105
Mof_O 	O 	0.6153	0.8813	0.7438	-0.353
Mof_O 	O 	0.5339	0.8762	0.8147	-0.568
Mof_O 	O 	0.5953	0.7316	0.9613	-0.56
Mof_O 	O 	0.5369	0.7477	0.0431	-0.613
Mof_O 	O 	0.9267	0.9064	0.6497	-0.575
Mof_O 	O 	0.8453	0.8786	0.7163	-0.333
Mof_O 	O 	0.4447	0.7845	0.8978	-0.571
Mof_O 	O 	0.3915	0.7989	0.9824	-0.646
Mof_O 	O 	0.9778	0.0384	0.6801	-0.621
Mof_O 	O 	0.8951	0.04	0.7496	-0.644
Mof_O 	O 	0.4274	0.9291	0.0234	-0.585
Mof_O 	O 	0.4794	0.9124	0.9397	-0.596
Mof_O 	O 	0.4359	0.9124	0.1447	-0.634
Mof_O 	O 	0.6491	0.0631	0.793	-0.693
Mof_O 	O 	0.8775	0.0258	0.4913	-0.639
Mof_O 	O 	0.0659	0.9538	0.5914	-0.588
Mof_O 	O 	0.5928	0.7447	0.8399	-0.594
Mof_O 	O 	0.8432	0.1688	0.7036	-0.593
Mof_O 	O 	0.6368	0.8602	0.9971	-0.65
Mof_O 	O 	0.5785	0.8763	0.0787	-0.56
Mof_O 	O 	0.5048	0.7827	0.164	-0.554
Mof_O 	O 	0.4146	0.7819	0.2274	-0.394
Mof_O 	O 	0.9212	0.8985	0.5263	-0.585
Mof_O 	O 	0.0206	0.0802	0.5543	-0.662
Mof_O 	O 	0.748	0.0521	0.6569	-0.629
Mof_O 	O 	0.7984	0.98	0.5973	-0.62
Mof_N 	N 	0.3471	0.8558	0.7025	-0.239
Mof_N 	N 	0.2248	0.8132	0.6397	-0.249
Mof_N 	N 	0.1166	0.8621	0.7507	-0.238
Mof_N 	N 	0.2394	0.8187	0.8112	-0.271
Mof_N 	N 	0.1649	0.0209	0.7916	-0.264
Mof_N 	N 	0.2852	0.9769	0.8522	-0.254
Mof_N 	N 	0.3836	0.0333	0.747	-0.256
Mof_N 	N 	0.2691	0.9832	0.6834	-0.262
Mof_N 	N 	0.399	0.6948	0.7378	-0.262
Mof_N 	N 	0.281	0.6526	0.6723	-0.257
Mof_N 	N 	0.1793	0.6895	0.7819	-0.252
Mof_N 	N 	0.2938	0.6434	0.8474	-0.248
Mof_N 	N 	0.5598	0.0573	0.5366	-0.273
Mof_C 	C 	0.5513	0.8744	0.7621	0.439
Mof_C 	C 	0.4836	0.8636	0.7204	-0.169
Mof_C 	C 	0.4075	0.8674	0.7374	0.101
Mof_H 	H 	0.3986	0.8787	0.775	-0.028
Mof_C 	C 	0.4945	0.8495	0.6639	0.078
Mof_H 	H 	0.544	0.8483	0.6502	0.004
Mof_C 	C 	0.4332	0.8372	0.628	-0.138
Mof_H 	H 	0.4412	0.8254	0.5904	0.062
Mof_C 	C 	0.3572	0.8421	0.6475	0.05
Mof_C 	C 	0.2896	0.8288	0.6123	0.058
Mof_C 	C 	0.2901	0.8311	0.5521	-0.154
Mof_H 	H 	0.3348	0.8428	0.5341	0.064
Mof_C 	C 	0.2258	0.8163	0.5201	0.116
Mof_H 	H 	0.2262	0.8179	0.4804	-0.031
Mof_C 	C 	0.1625	0.7988	0.6072	0.137
Mof_H 	H 	0.1179	0.7881	0.6258	-0.022
Mof_C 	C 	0.1592	0.7988	0.5476	-0.232
Mof_C 	C 	0.5917	0.7275	0.014	0.528
Mof_C 	C 	0.9127	0.8875	0.6973	0.467
Mof_C 	C 	0.9793	0.8739	0.7369	-0.208
Mof_C 	C 	0.0539	0.8733	0.718	0.135
Mof_H 	H 	0.0607	0.8812	0.6794	-0.016
Mof_C 	C 	0.9711	0.8597	0.7959	0.096
Mof_H 	H 	0.9223	0.8569	0.8107	-0.012
Mof_C 	C 	0.0337	0.8502	0.8305	-0.144
Mof_H 	H 	0.0285	0.844	0.8695	0.083
Mof_C 	C 	0.1062	0.8497	0.807	0.054
Mof_C 	C 	0.1778	0.8344	0.8406	0.071
Mof_C 	C 	0.1792	0.8361	0.902	-0.183
Mof_H 	H 	0.1357	0.8465	0.922	0.101
Mof_C 	C 	0.2475	0.8217	0.9296	0.156
Mof_H 	H 	0.2506	0.8228	0.9693	-0.045
Mof_C 	C 	0.3026	0.8029	0.8406	0.132
Mof_H 	H 	0.3443	0.789	0.8201	-0.051
Mof_C 	C 	0.3121	0.8055	0.9001	-0.248
Mof_C 	C 	0.3891	0.7935	0.9296	0.557
Mof_C 	C 	0.9612	0.037	0.7312	0.593
Mof_C 	C 	0.0275	0.0294	0.7743	-0.26
Mof_C 	C 	0.0163	0.0169	0.832	0.148
Mof_H 	H 	0.9668	0.0155	0.8458	-0.046
Mof_C 	C 	0.1026	0.0303	0.7563	0.129
Mof_H 	H 	0.1107	0.0377	0.7179	-0.044
Mof_C 	C 	0.078	0.0068	0.8676	-0.195
Mof_H 	H 	0.0709	0.9995	0.9062	0.091
Mof_C 	C 	0.1519	0.0074	0.8469	0.069
Mof_C 	C 	0.2232	0.9922	0.8824	0.066
Mof_C 	C 	0.2256	0.9921	0.9427	-0.177
Mof_H 	H 	0.182	0.0025	0.9626	0.071
Mof_C 	C 	0.2917	0.9767	0.971	0.149
Mof_H 	H 	0.2944	0.9781	0.0108	-0.059
Mof_C 	C 	0.3494	0.9607	0.8822	0.147
Mof_H 	H 	0.3926	0.9498	0.8619	-0.033
Mof_C 	C 	0.3554	0.9591	0.9416	-0.25
Mof_C 	C 	0.4263	0.9325	0.9711	0.536
Mof_C 	C 	0.4179	0.9326	0.1924	0.626
Mof_C 	C 	0.4799	0.9514	0.2341	-0.301
Mof_C 	C 	0.4431	0.048	0.7818	0.166
Mof_H 	H 	0.4329	0.0586	0.8193	-0.033
Mof_C 	C 	0.4658	0.9689	0.2899	0.176
Mof_H 	H 	0.4157	0.9707	0.3024	-0.055
Mof_C 	C 	0.5274	0.9837	0.3265	-0.2
Mof_H 	H 	0.5185	0.9937	0.3644	0.089
Mof_C 	C 	0.3999	0.0163	0.692	0.074
Mof_C 	C 	0.3321	0.0023	0.6558	0.045
Mof_C 	C 	0.3308	0.0069	0.5957	-0.158
Mof_H 	H 	0.3748	0.0186	0.5768	0.064
Mof_C 	C 	0.2635	0.9936	0.5654	0.126
Mof_H 	H 	0.2615	0.9968	0.5258	-0.011
Mof_C 	C 	0.2055	0.9702	0.6518	0.113
Mof_H 	H 	0.162	0.9566	0.6704	-0.039
Mof_C 	C 	0.2008	0.976	0.5931	-0.224
Mof_C 	C 	0.8766	0.0341	0.439	0.549
Mof_C 	C 	0.599	0.7065	0.8007	0.569
Mof_C 	C 	0.5354	0.7	0.7555	-0.32
Mof_C 	C 	0.4598	0.7043	0.7726	0.176
Mof_H 	H 	0.4513	0.7143	0.8105	-0.038
Mof_C 	C 	0.5466	0.6874	0.6996	0.238
Mof_H 	H 	0.5965	0.6839	0.6868	-0.124
Mof_C 	C 	0.4869	0.6799	0.6624	-0.253
Mof_H 	H 	0.4957	0.6737	0.6238	0.119
Mof_C 	C 	0.4139	0.6814	0.6806	0.092
Mof_C 	C 	0.3447	0.6692	0.645	0.057
Mof_C 	C 	0.3453	0.6712	0.5846	-0.181
Mof_H 	H 	0.3904	0.6809	0.5661	0.099
Mof_C 	C 	0.2785	0.6588	0.5535	0.156
Mof_H 	H 	0.2779	0.6614	0.5138	-0.044
Mof_C 	C 	0.2175	0.6391	0.6399	0.133
Mof_H 	H 	0.1736	0.6265	0.6585	-0.041
Mof_C 	C 	0.2132	0.6428	0.5807	-0.256
Mof_C 	C 	0.6378	0.866	0.0496	0.558
Mof_C 	C 	0.4816	0.7855	0.2138	0.441
Mof_C 	C 	0.5441	0.7959	0.2599	-0.165
Mof_C 	C 	0.1206	0.7028	0.7447	0.082
Mof_H 	H 	0.1319	0.7115	0.707	-0.027
Mof_C 	C 	0.5284	0.807	0.3174	0.071
Mof_H 	H 	0.4781	0.8048	0.3295	-0.003
Mof_C 	C 	0.5865	0.821	0.3553	-0.12
Mof_H 	H 	0.5762	0.829	0.3934	0.051
Mof_C 	C 	0.1632	0.6768	0.8367	0.044
Mof_C 	C 	0.2285	0.6608	0.8735	0.069
Mof_C 	C 	0.227	0.6647	0.9341	-0.188
Mof_H 	H 	0.1829	0.6781	0.952	0.092
Mof_C 	C 	0.2916	0.6482	0.9653	0.153
Mof_H 	H 	0.2914	0.6505	0.005	-0.034
Mof_C 	C 	0.3556	0.6278	0.8804	0.157
Mof_H 	H 	0.4001	0.6158	0.8623	-0.038
Mof_C 	C 	0.3576	0.6284	0.9392	-0.261
Mof_C 	C 	0.9256	0.8975	0.4729	0.567
Mof_C 	C 	0.7443	0.0124	0.6156	0.546
Mof_C 	C 	0.6686	0.0072	0.5837	-0.251
Mof_C 	C 	0.6257	0.0609	0.57	0.139
Mof_H 	H 	0.6422	0.1002	0.5838	-0.048
Mof_C 	C 	0.5349	0.0021	0.5168	0.05
Mof_C 	C 	0.4285	0.0477	0.4696	-0.285
Mof_C 	C 	0.6428	0.95	0.5626	0.152
Mof_H 	H 	0.6698	0.9123	0.5689	-0.032
Mof_Pr	Pr	0.92816	0.33353	0.59367	2.454
Mof_Pr	Pr	0.04968	0.32764	0.4245	2.466
Mof_Pr	Pr	0.56492	0.49691	0.91497	2.794
Mof_Pr	Pr	0.73035	0.58619	0.74824	2.108
Mof_Cu	Cu	0.26975	0.33495	0.77443	0.822
Mof_Cu	Cu	0.22516	0.50191	0.7316	0.829
Mof_Cu	Cu	0.21113	0.16984	0.74	0.825
Mof_Cu	Cu	0.00979	0.61668	0.99357	0.864
Mof_Cl	Cl	0.0238	0.721	0.9982	-0.503
Mof_O 	O 	0.9159	0.216	0.9698	-0.105
Mof_O 	O 	0.8847	0.3813	0.7562	-0.353
Mof_O 	O 	0.9661	0.3762	0.6853	-0.568
Mof_O 	O 	0.9047	0.2316	0.5387	-0.56
Mof_O 	O 	0.9631	0.2477	0.4569	-0.611
Mof_O 	O 	0.5733	0.4064	0.8503	-0.575
Mof_O 	O 	0.6547	0.3786	0.7837	-0.333
Mof_O 	O 	0.0553	0.2845	0.6022	-0.573
Mof_O 	O 	0.1085	0.2989	0.5176	-0.646
Mof_O 	O 	0.5222	0.5384	0.8199	-0.625
Mof_O 	O 	0.6049	0.54	0.7504	-0.644
Mof_O 	O 	0.0726	0.4291	0.4766	-0.583
Mof_O 	O 	0.0206	0.4124	0.5603	-0.597
Mof_O 	O 	0.0641	0.4124	0.3553	-0.633
Mof_O 	O 	0.8509	0.5631	0.707	-0.693
Mof_O 	O 	0.6225	0.5258	0.0087	-0.644
Mof_O 	O 	0.4341	0.4538	0.9086	-0.592
Mof_O 	O 	0.9072	0.2447	0.6601	-0.594
Mof_O 	O 	0.6568	0.6688	0.7964	-0.593
Mof_O 	O 	0.8632	0.3602	0.5029	-0.65
Mof_O 	O 	0.9215	0.3763	0.4213	-0.559
Mof_O 	O 	0.9952	0.2827	0.336	-0.55
Mof_O 	O 	0.0854	0.2819	0.2726	-0.393
Mof_O 	O 	0.5788	0.3985	0.9737	-0.586
Mof_O 	O 	0.4794	0.5802	0.9457	-0.662
Mof_O 	O 	0.752	0.5521	0.8431	-0.629
Mof_O 	O 	0.7016	0.48	0.9027	-0.619
Mof_N 	N 	0.1529	0.3558	0.7975	-0.239
Mof_N 	N 	0.2752	0.3132	0.8603	-0.249
Mof_N 	N 	0.3834	0.3621	0.7493	-0.238
Mof_N 	N 	0.2606	0.3187	0.6888	-0.271
Mof_N 	N 	0.3351	0.5209	0.7084	-0.263
Mof_N 	N 	0.2148	0.4769	0.6478	-0.255
Mof_N 	N 	0.1164	0.5333	0.753	-0.256
Mof_N 	N 	0.2309	0.4832	0.8166	-0.263
Mof_N 	N 	0.101	0.1948	0.7622	-0.262
Mof_N 	N 	0.219	0.1526	0.8277	-0.257
Mof_N 	N 	0.3207	0.1895	0.7181	-0.252
Mof_N 	N 	0.2062	0.1434	0.6526	-0.248
Mof_N 	N 	0.9402	0.5573	0.9634	-0.274
Mof_C 	C 	0.9487	0.3744	0.7379	0.439
Mof_C 	C 	0.0164	0.3636	0.7796	-0.169
Mof_C 	C 	0.0925	0.3674	0.7626	0.101
Mof_H 	H 	0.1014	0.3787	0.725	-0.029
Mof_C 	C 	0.0055	0.3495	0.8361	0.075
Mof_H 	H 	0.956	0.3483	0.8498	0.006
Mof_C 	C 	0.0668	0.3372	0.872	-0.136
Mof_H 	H 	0.0588	0.3254	0.9096	0.061
Mof_C 	C 	0.1428	0.3421	0.8525	0.049
Mof_C 	C 	0.2104	0.3288	0.8877	0.058
Mof_C 	C 	0.2099	0.3311	0.9479	-0.154
Mof_H 	H 	0.1652	0.3428	0.9659	0.064
Mof_C 	C 	0.2742	0.3163	0.9799	0.116
Mof_H 	H 	0.2738	0.3179	0.0196	-0.031
Mof_C 	C 	0.3375	0.2988	0.8928	0.137
Mof_H 	H 	0.3821	0.2881	0.8742	-0.022
Mof_C 	C 	0.3408	0.2988	0.9524	-0.232
Mof_C 	C 	0.9083	0.2275	0.486	0.528
Mof_C 	C 	0.5873	0.3875	0.8027	0.467
Mof_C 	C 	0.5207	0.3739	0.7631	-0.205
Mof_C 	C 	0.4461	0.3733	0.782	0.129
Mof_H 	H 	0.4393	0.3812	0.8206	-0.015
Mof_C 	C 	0.5289	0.3597	0.7041	0.103
Mof_H 	H 	0.5777	0.3569	0.6893	-0.014
Mof_C 	C 	0.4663	0.3502	0.6695	-0.153
Mof_H 	H 	0.4715	0.344	0.6305	0.085
Mof_C 	C 	0.3938	0.3497	0.693	0.056
Mof_C 	C 	0.3222	0.3344	0.6594	0.069
Mof_C 	C 	0.3208	0.3361	0.598	-0.183
Mof_H 	H 	0.3643	0.3465	0.578	0.1
Mof_C 	C 	0.2525	0.3217	0.5704	0.156
Mof_H 	H 	0.2494	0.3228	0.5307	-0.045
Mof_C 	C 	0.1974	0.3029	0.6594	0.132
Mof_H 	H 	0.1557	0.289	0.6799	-0.051
Mof_C 	C 	0.1879	0.3055	0.5999	-0.248
Mof_C 	C 	0.1109	0.2935	0.5704	0.557
Mof_C 	C 	0.5388	0.537	0.7688	0.589
Mof_C 	C 	0.4725	0.5294	0.7257	-0.255
Mof_C 	C 	0.4837	0.5169	0.668	0.15
Mof_H 	H 	0.5332	0.5155	0.6542	-0.05
Mof_C 	C 	0.3974	0.5303	0.7437	0.128
Mof_H 	H 	0.3893	0.5377	0.7821	-0.042
Mof_C 	C 	0.422	0.5068	0.6324	-0.185
Mof_H 	H 	0.4291	0.4995	0.5938	0.083
Mof_C 	C 	0.3481	0.5074	0.6531	0.068
Mof_C 	C 	0.2768	0.4922	0.6176	0.066
Mof_C 	C 	0.2744	0.4921	0.5573	-0.188
Mof_H 	H 	0.318	0.5025	0.5374	0.078
Mof_C 	C 	0.2083	0.4767	0.529	0.151
Mof_H 	H 	0.2056	0.4781	0.4892	-0.059
Mof_C 	C 	0.1506	0.4607	0.6178	0.148
Mof_H 	H 	0.1074	0.4498	0.6381	-0.034
Mof_C 	C 	0.1446	0.4591	0.5584	-0.252
Mof_C 	C 	0.0737	0.4325	0.5289	0.535
Mof_C 	C 	0.0821	0.4326	0.3076	0.625
Mof_C 	C 	0.0201	0.4514	0.2659	-0.302
Mof_C 	C 	0.0569	0.548	0.7182	0.167
Mof_H 	H 	0.0671	0.5586	0.6807	-0.032
Mof_C 	C 	0.0342	0.4689	0.2101	0.175
Mof_H 	H 	0.0843	0.4707	0.1976	-0.055
Mof_C 	C 	0.9726	0.4837	0.1735	-0.198
Mof_H 	H 	0.9815	0.4937	0.1356	0.089
Mof_C 	C 	0.1001	0.5163	0.808	0.074
Mof_C 	C 	0.1679	0.5023	0.8442	0.046
Mof_C 	C 	0.1692	0.5069	0.9043	-0.153
Mof_H 	H 	0.1252	0.5186	0.9232	0.063
Mof_C 	C 	0.2365	0.4936	0.9346	0.122
Mof_H 	H 	0.2385	0.4968	0.9742	-0.011
Mof_C 	C 	0.2945	0.4702	0.8482	0.112
Mof_H 	H 	0.338	0.4566	0.8296	-0.04
Mof_C 	C 	0.2992	0.476	0.9069	-0.224
Mof_C 	C 	0.6234	0.5341	0.061	0.55
Mof_C 	C 	0.901	0.2065	0.6993	0.569
Mof_C 	C 	0.9646	0.2	0.7445	-0.319
Mof_C 	C 	0.0402	0.2043	0.7274	0.173
Mof_H 	H 	0.0487	0.2143	0.6895	-0.037
Mof_C 	C 	0.9534	0.1874	0.8004	0.244
Mof_H 	H 	0.9035	0.1839	0.8132	-0.126
Mof_C 	C 	0.0131	0.1799	0.8376	-0.26
Mof_H 	H 	0.0043	0.1737	0.8762	0.12
Mof_C 	C 	0.0861	0.1814	0.8194	0.094
Mof_C 	C 	0.1553	0.1692	0.855	0.056
Mof_C 	C 	0.1547	0.1712	0.9154	-0.18
Mof_H 	H 	0.1096	0.1809	0.9339	0.098
Mof_C 	C 	0.2215	0.1588	0.9465	0.155
Mof_H 	H 	0.2221	0.1614	0.9862	-0.044
Mof_C 	C 	0.2825	0.1391	0.8601	0.132
Mof_H 	H 	0.3264	0.1265	0.8415	-0.041
Mof_C 	C 	0.2868	0.1428	0.9193	-0.256
Mof_C 	C 	0.8622	0.366	0.4504	0.559
Mof_C 	C 	0.0184	0.2855	0.2862	0.435
Mof_C 	C 	0.9559	0.2959	0.2401	-0.163
Mof_C 	C 	0.3794	0.2028	0.7553	0.082
Mof_H 	H 	0.3681	0.2115	0.793	-0.028
Mof_C 	C 	0.9716	0.307	0.1826	0.077
Mof_H 	H 	0.0219	0.3048	0.1705	-0.007
Mof_C 	C 	0.9135	0.321	0.1447	-0.123
Mof_H 	H 	0.9238	0.329	0.1066	0.052
Mof_C 	C 	0.3368	0.1768	0.6633	0.044
Mof_C 	C 	0.2715	0.1608	0.6265	0.068
Mof_C 	C 	0.273	0.1647	0.5659	-0.187
Mof_H 	H 	0.3171	0.1781	0.548	0.091
Mof_C 	C 	0.2084	0.1482	0.5347	0.151
Mof_H 	H 	0.2086	0.1505	0.495	-0.033
Mof_C 	C 	0.1444	0.1278	0.6196	0.156
Mof_H 	H 	0.0999	0.1158	0.6377	-0.038
Mof_C 	C 	0.1424	0.1284	0.5608	-0.261
Mof_C 	C 	0.5744	0.3975	0.0271	0.569
Mof_C 	C 	0.7557	0.5124	0.8844	0.543
Mof_C 	C 	0.8314	0.5072	0.9163	-0.253
Mof_C 	C 	0.8743	0.5609	0.93	0.14
Mof_H 	H 	0.8578	0.6002	0.9162	-0.049
Mof_C 	C 	0.9651	0.5021	0.9832	0.049
Mof_C 	C 	0.0715	0.5477	0.0304	-0.285
Mof_C 	C 	0.8572	0.45	0.9374	0.155
Mof_H 	H 	0.8302	0.4123	0.9311	-0.033
Mof_Pr	Pr	0.42816	0.16647	0.09367	2.45
Mof_Pr	Pr	0.54968	0.17236	0.9245	2.472
Mof_Pr	Pr	0.06492	0.00309	0.41497	2.781
Mof_Pr	Pr	0.23035	0.91381	0.24824	2.111
Mof_Cu	Cu	0.76975	0.16505	0.27443	0.822
Mof_Cu	Cu	0.72516	0.99809	0.2316	0.828
Mof_Cu	Cu	0.71113	0.33016	0.24	0.825
Mof_Cu	Cu	0.50979	0.88332	0.49357	0.863
Mof_Cl	Cl	0.5238	0.779	0.4982	-0.505
Mof_O 	O 	0.4159	0.284	0.4698	-0.105
Mof_O 	O 	0.3847	0.1187	0.2562	-0.353
Mof_O 	O 	0.4661	0.1238	0.1853	-0.568
Mof_O 	O 	0.4047	0.2684	0.0387	-0.56
Mof_O 	O 	0.4631	0.2523	0.9569	-0.613
Mof_O 	O 	0.0733	0.0936	0.3503	-0.575
Mof_O 	O 	0.1547	0.1214	0.2837	-0.333
Mof_O 	O 	0.5553	0.2155	0.1022	-0.571
Mof_O 	O 	0.6085	0.2011	0.0176	-0.646
Mof_O 	O 	0.0222	0.9616	0.3199	-0.621
Mof_O 	O 	0.1049	0.96	0.2504	-0.644
Mof_O 	O 	0.5726	0.0709	0.9766	-0.585
Mof_O 	O 	0.5206	0.0876	0.0603	-0.596
Mof_O 	O 	0.5641	0.0876	0.8553	-0.634
Mof_O 	O 	0.3509	0.9369	0.207	-0.693
Mof_O 	O 	0.1225	0.9742	0.5087	-0.639
Mof_O 	O 	0.9341	0.0462	0.4086	-0.588
Mof_O 	O 	0.4072	0.2553	0.1601	-0.594
Mof_O 	O 	0.1568	0.8312	0.2964	-0.593
Mof_O 	O 	0.3632	0.1398	0.0029	-0.65
Mof_O 	O 	0.4215	0.1237	0.9213	-0.56
Mof_O 	O 	0.4952	0.2173	0.836	-0.554
Mof_O 	O 	0.5854	0.2181	0.7726	-0.394
Mof_O 	O 	0.0788	0.1015	0.4737	-0.585
Mof_O 	O 	0.9794	0.9198	0.4457	-0.662
Mof_O 	O 	0.252	0.9479	0.3431	-0.629
Mof_O 	O 	0.2016	0.02	0.4027	-0.62
Mof_N 	N 	0.6529	0.1442	0.2975	-0.239
Mof_N 	N 	0.7752	0.1868	0.3603	-0.249
Mof_N 	N 	0.8834	0.1379	0.2493	-0.238
Mof_N 	N 	0.7606	0.1813	0.1888	-0.271
Mof_N 	N 	0.8351	0.9791	0.2084	-0.264
Mof_N 	N 	0.7148	0.0231	0.1478	-0.254
Mof_N 	N 	0.6164	0.9667	0.253	-0.256
Mof_N 	N 	0.7309	0.0168	0.3166	-0.262
Mof_N 	N 	0.601	0.3052	0.2622	-0.262
Mof_N 	N 	0.719	0.3474	0.3277	-0.257
Mof_N 	N 	0.8207	0.3105	0.2181	-0.252
Mof_N 	N 	0.7062	0.3566	0.1526	-0.248
Mof_N 	N 	0.4402	0.9427	0.4634	-0.273
Mof_C 	C 	0.4487	0.1256	0.2379	0.439
Mof_C 	C 	0.5164	0.1364	0.2796	-0.169
Mof_C 	C 	0.5925	0.1326	0.2626	0.101
Mof_H 	H 	0.6014	0.1213	0.225	-0.028
Mof_C 	C 	0.5055	0.1505	0.3361	0.078
Mof_H 	H 	0.456	0.1517	0.3498	0.004
Mof_C 	C 	0.5668	0.1628	0.372	-0.138
Mof_H 	H 	0.5588	0.1746	0.4096	0.062
Mof_C 	C 	0.6428	0.1579	0.3525	0.05
Mof_C 	C 	0.7104	0.1712	0.3877	0.058
Mof_C 	C 	0.7099	0.1689	0.4479	-0.154
Mof_H 	H 	0.6652	0.1572	0.4659	0.064
Mof_C 	C 	0.7742	0.1837	0.4799	0.116
Mof_H 	H 	0.7738	0.1821	0.5196	-0.031
Mof_C 	C 	0.8375	0.2012	0.3928	0.137
Mof_H 	H 	0.8821	0.2119	0.3742	-0.022
Mof_C 	C 	0.8408	0.2012	0.4524	-0.232
Mof_C 	C 	0.4083	0.2725	0.986	0.528
Mof_C 	C 	0.0873	0.1125	0.3027	0.467
Mof_C 	C 	0.0207	0.1261	0.2631	-0.208
Mof_C 	C 	0.9461	0.1267	0.282	0.135
Mof_H 	H 	0.9393	0.1188	0.3206	-0.016
Mof_C 	C 	0.0289	0.1403	0.2041	0.096
Mof_H 	H 	0.0777	0.1431	0.1893	-0.012
Mof_C 	C 	0.9663	0.1498	0.1695	-0.144
Mof_H 	H 	0.9715	0.156	0.1305	0.083
Mof_C 	C 	0.8938	0.1503	0.193	0.054
Mof_C 	C 	0.8222	0.1656	0.1594	0.071
Mof_C 	C 	0.8208	0.1639	0.098	-0.183
Mof_H 	H 	0.8643	0.1535	0.078	0.101
Mof_C 	C 	0.7525	0.1783	0.0704	0.156
Mof_H 	H 	0.7494	0.1772	0.0307	-0.045
Mof_C 	C 	0.6974	0.1971	0.1594	0.132
Mof_H 	H 	0.6557	0.211	0.1799	-0.051
Mof_C 	C 	0.6879	0.1945	0.0999	-0.248
Mof_C 	C 	0.6109	0.2065	0.0704	0.557
Mof_C 	C 	0.0388	0.963	0.2688	0.593
Mof_C 	C 	0.9725	0.9706	0.2257	-0.26
Mof_C 	C 	0.9837	0.9831	0.168	0.148
Mof_H 	H 	0.0332	0.9845	0.1542	-0.046
Mof_C 	C 	0.8974	0.9697	0.2437	0.129
Mof_H 	H 	0.8893	0.9623	0.2821	-0.044
Mof_C 	C 	0.922	0.9932	0.1324	-0.195
Mof_H 	H 	0.9291	0.0005	0.0938	0.091
Mof_C 	C 	0.8481	0.9926	0.1531	0.069
Mof_C 	C 	0.7768	0.0078	0.1176	0.066
Mof_C 	C 	0.7744	0.0079	0.0573	-0.177
Mof_H 	H 	0.818	0.9975	0.0374	0.071
Mof_C 	C 	0.7083	0.0233	0.029	0.149
Mof_H 	H 	0.7056	0.0219	0.9892	-0.059
Mof_C 	C 	0.6506	0.0393	0.1178	0.147
Mof_H 	H 	0.6074	0.0502	0.1381	-0.033
Mof_C 	C 	0.6446	0.0409	0.0584	-0.25
Mof_C 	C 	0.5737	0.0675	0.0289	0.536
Mof_C 	C 	0.5821	0.0674	0.8076	0.626
Mof_C 	C 	0.5201	0.0486	0.7659	-0.301
Mof_C 	C 	0.5569	0.952	0.2182	0.166
Mof_H 	H 	0.5671	0.9414	0.1807	-0.033
Mof_C 	C 	0.5342	0.0311	0.7101	0.176
Mof_H 	H 	0.5843	0.0293	0.6976	-0.055
Mof_C 	C 	0.4726	0.0163	0.6735	-0.2
Mof_H 	H 	0.4815	0.0063	0.6356	0.089
Mof_C 	C 	0.6001	0.9837	0.308	0.074
Mof_C 	C 	0.6679	0.9977	0.3442	0.045
Mof_C 	C 	0.6692	0.9931	0.4043	-0.158
Mof_H 	H 	0.6252	0.9814	0.4232	0.064
Mof_C 	C 	0.7365	0.0064	0.4346	0.126
Mof_H 	H 	0.7385	0.0032	0.4742	-0.011
Mof_C 	C 	0.7945	0.0298	0.3482	0.113
Mof_H 	H 	0.838	0.0434	0.3296	-0.039
Mof_C 	C 	0.7992	0.024	0.4069	-0.224
Mof_C 	C 	0.1234	0.9659	0.561	0.549
Mof_C 	C 	0.401	0.2935	0.1993	0.569
Mof_C 	C 	0.4646	0.3	0.2445	-0.32
Mof_C 	C 	0.5402	0.2957	0.2274	0.176
Mof_H 	H 	0.5487	0.2857	0.1895	-0.038
Mof_C 	C 	0.4534	0.3126	0.3004	0.238
Mof_H 	H 	0.4035	0.3161	0.3132	-0.124
Mof_C 	C 	0.5131	0.3201	0.3376	-0.253
Mof_H 	H 	0.5043	0.3263	0.3762	0.119
Mof_C 	C 	0.5861	0.3186	0.3194	0.092
Mof_C 	C 	0.6553	0.3308	0.355	0.057
Mof_C 	C 	0.6547	0.3288	0.4154	-0.181
Mof_H 	H 	0.6096	0.3191	0.4339	0.099
Mof_C 	C 	0.7215	0.3412	0.4465	0.156
Mof_H 	H 	0.7221	0.3386	0.4862	-0.044
Mof_C 	C 	0.7825	0.3609	0.3601	0.133
Mof_H 	H 	0.8264	0.3735	0.3415	-0.041
Mof_C 	C 	0.7868	0.3572	0.4193	-0.256
Mof_C 	C 	0.3622	0.134	0.9504	0.558
Mof_C 	C 	0.5184	0.2145	0.7862	0.441
Mof_C 	C 	0.4559	0.2041	0.7401	-0.165
Mof_C 	C 	0.8794	0.2972	0.2553	0.082
Mof_H 	H 	0.8681	0.2885	0.293	-0.027
Mof_C 	C 	0.4716	0.193	0.6826	0.071
Mof_H 	H 	0.5219	0.1952	0.6705	-0.003
Mof_C 	C 	0.4135	0.179	0.6447	-0.12
Mof_H 	H 	0.4238	0.171	0.6066	0.051
Mof_C 	C 	0.8368	0.3232	0.1633	0.044
Mof_C 	C 	0.7715	0.3392	0.1265	0.069
Mof_C 	C 	0.773	0.3353	0.0659	-0.188
Mof_H 	H 	0.8171	0.3219	0.048	0.092
Mof_C 	C 	0.7084	0.3518	0.0347	0.153
Mof_H 	H 	0.7086	0.3495	0.995	-0.034
Mof_C 	C 	0.6444	0.3722	0.1196	0.157
Mof_H 	H 	0.5999	0.3842	0.1377	-0.038
Mof_C 	C 	0.6424	0.3716	0.0608	-0.261
Mof_C 	C 	0.0744	0.1025	0.5271	0.567
Mof_C 	C 	0.2557	0.9876	0.3844	0.546
Mof_C 	C 	0.3314	0.9928	0.4163	-0.251
Mof_C 	C 	0.3743	0.9391	0.43	0.139
Mof_H 	H 	0.3578	0.8998	0.4162	-0.048
Mof_C 	C 	0.4651	0.9979	0.4832	0.05
Mof_C 	C 	0.5715	0.9523	0.5304	-0.285
Mof_C 	C 	0.3572	0.05	0.4374	0.152
Mof_H 	H 	0.3302	0.0877	0.4311	-0.032
Mof_Pr	Pr	0.07184	0.66647	0.40633	2.454
Mof_Pr	Pr	0.95032	0.67236	0.5755	2.466
Mof_Pr	Pr	0.43508	0.50309	0.08503	2.794
Mof_Pr	Pr	0.26965	0.41381	0.25176	2.108
Mof_Cu	Cu	0.73025	0.66505	0.22557	0.822
Mof_Cu	Cu	0.77484	0.49809	0.2684	0.829
Mof_Cu	Cu	0.78887	0.83016	0.26	0.825
Mof_Cu	Cu	0.99021	0.38332	0.00643	0.864
Mof_Cl	Cl	0.9762	0.279	0.0018	-0.503
Mof_O 	O 	0.0841	0.784	0.0302	-0.105
Mof_O 	O 	0.1153	0.6187	0.2438	-0.353
Mof_O 	O 	0.0339	0.6238	0.3147	-0.568
Mof_O 	O 	0.0953	0.7684	0.4613	-0.56
Mof_O 	O 	0.0369	0.7523	0.5431	-0.611
Mof_O 	O 	0.4267	0.5936	0.1497	-0.575
Mof_O 	O 	0.3453	0.6214	0.2163	-0.333
Mof_O 	O 	0.9447	0.7155	0.3978	-0.573
Mof_O 	O 	0.8915	0.7011	0.4824	-0.646
Mof_O 	O 	0.4778	0.4616	0.1801	-0.625
Mof_O 	O 	0.3951	0.46	0.2496	-0.644
Mof_O 	O 	0.9274	0.5709	0.5234	-0.583
Mof_O 	O 	0.9794	0.5876	0.4397	-0.597
Mof_O 	O 	0.9359	0.5876	0.6447	-0.633
Mof_O 	O 	0.1491	0.4369	0.293	-0.693
Mof_O 	O 	0.3775	0.4742	0.9913	-0.644
Mof_O 	O 	0.5659	0.5462	0.0914	-0.592
Mof_O 	O 	0.0928	0.7553	0.3399	-0.594
Mof_O 	O 	0.3432	0.3312	0.2036	-0.593
Mof_O 	O 	0.1368	0.6398	0.4971	-0.65
Mof_O 	O 	0.0785	0.6237	0.5787	-0.559
Mof_O 	O 	0.0048	0.7173	0.664	-0.55
Mof_O 	O 	0.9146	0.7181	0.7274	-0.393
Mof_O 	O 	0.4212	0.6015	0.0263	-0.586
Mof_O 	O 	0.5206	0.4198	0.0543	-0.662
Mof_O 	O 	0.248	0.4479	0.1569	-0.629
Mof_O 	O 	0.2984	0.52	0.0973	-0.619
Mof_N 	N 	0.8471	0.6442	0.2025	-0.239
Mof_N 	N 	0.7248	0.6868	0.1397	-0.249
Mof_N 	N 	0.6166	0.6379	0.2507	-0.238
Mof_N 	N 	0.7394	0.6813	0.3112	-0.271
Mof_N 	N 	0.6649	0.4791	0.2916	-0.263
Mof_N 	N 	0.7852	0.5231	0.3522	-0.255
Mof_N 	N 	0.8836	0.4667	0.247	-0.256
Mof_N 	N 	0.7691	0.5168	0.1834	-0.263
Mof_N 	N 	0.899	0.8052	0.2378	-0.262
Mof_N 	N 	0.781	0.8474	0.1723	-0.257
Mof_N 	N 	0.6793	0.8105	0.2819	-0.252
Mof_N 	N 	0.7938	0.8566	0.3474	-0.248
Mof_N 	N 	0.0598	0.4427	0.0366	-0.274
Mof_C 	C 	0.0513	0.6256	0.2621	0.439
Mof_C 	C 	0.9836	0.6364	0.2204	-0.169
Mof_C 	C 	0.9075	0.6326	0.2374	0.101
Mof_H 	H 	0.8986	0.6213	0.275	-0.029
Mof_C 	C 	0.9945	0.6505	0.1639	0.075
Mof_H 	H 	0.044	0.6517	0.1502	0.006
Mof_C 	C 	0.9332	0.6628	0.128	-0.136
Mof_H 	H 	0.9412	0.6746	0.0904	0.061
Mof_C 	C 	0.8572	0.6579	0.1475	0.049
Mof_C 	C 	0.7896	0.6712	0.1123	0.058
Mof_C 	C 	0.7901	0.6689	0.0521	-0.154
Mof_H 	H 	0.8348	0.6572	0.0341	0.064
Mof_C 	C 	0.7258	0.6837	0.0201	0.116
Mof_H 	H 	0.7262	0.6821	0.9804	-0.031
Mof_C 	C 	0.6625	0.7012	0.1072	0.137
Mof_H 	H 	0.6179	0.7119	0.1258	-0.022
Mof_C 	C 	0.6592	0.7012	0.0476	-0.232
Mof_C 	C 	0.0917	0.7725	0.514	0.528
Mof_C 	C 	0.4127	0.6125	0.1973	0.467
Mof_C 	C 	0.4793	0.6261	0.2369	-0.205
Mof_C 	C 	0.5539	0.6267	0.218	0.129
Mof_H 	H 	0.5607	0.6188	0.1794	-0.015
Mof_C 	C 	0.4711	0.6403	0.2959	0.103
Mof_H 	H 	0.4223	0.6431	0.3107	-0.014
Mof_C 	C 	0.5337	0.6498	0.3305	-0.153
Mof_H 	H 	0.5285	0.656	0.3695	0.085
Mof_C 	C 	0.6062	0.6503	0.307	0.056
Mof_C 	C 	0.6778	0.6656	0.3406	0.069
Mof_C 	C 	0.6792	0.6639	0.402	-0.183
Mof_H 	H 	0.6357	0.6535	0.422	0.1
Mof_C 	C 	0.7475	0.6783	0.4296	0.156
Mof_H 	H 	0.7506	0.6772	0.4693	-0.045
Mof_C 	C 	0.8026	0.6971	0.3406	0.132
Mof_H 	H 	0.8443	0.711	0.3201	-0.051
Mof_C 	C 	0.8121	0.6945	0.4001	-0.248
Mof_C 	C 	0.8891	0.7065	0.4296	0.557
Mof_C 	C 	0.4612	0.463	0.2312	0.589
Mof_C 	C 	0.5275	0.4706	0.2743	-0.255
Mof_C 	C 	0.5163	0.4831	0.332	0.15
Mof_H 	H 	0.4668	0.4845	0.3458	-0.05
Mof_C 	C 	0.6026	0.4697	0.2563	0.128
Mof_H 	H 	0.6107	0.4623	0.2179	-0.042
Mof_C 	C 	0.578	0.4932	0.3676	-0.185
Mof_H 	H 	0.5709	0.5005	0.4062	0.083
Mof_C 	C 	0.6519	0.4926	0.3469	0.068
Mof_C 	C 	0.7232	0.5078	0.3824	0.066
Mof_C 	C 	0.7256	0.5079	0.4427	-0.188
Mof_H 	H 	0.682	0.4975	0.4626	0.078
Mof_C 	C 	0.7917	0.5233	0.471	0.151
Mof_H 	H 	0.7944	0.5219	0.5108	-0.059
Mof_C 	C 	0.8494	0.5393	0.3822	0.148
Mof_H 	H 	0.8926	0.5502	0.3619	-0.034
Mof_C 	C 	0.8554	0.5409	0.4416	-0.252
Mof_C 	C 	0.9263	0.5675	0.4711	0.535
Mof_C 	C 	0.9179	0.5674	0.6924	0.625
Mof_C 	C 	0.9799	0.5486	0.7341	-0.302
Mof_C 	C 	0.9431	0.452	0.2818	0.167
Mof_H 	H 	0.9329	0.4414	0.3193	-0.032
Mof_C 	C 	0.9658	0.5311	0.7899	0.175
Mof_H 	H 	0.9157	0.5293	0.8024	-0.055
Mof_C 	C 	0.0274	0.5163	0.8265	-0.198
Mof_H 	H 	0.0185	0.5063	0.8644	0.089
Mof_C 	C 	0.8999	0.4837	0.192	0.074
Mof_C 	C 	0.8321	0.4977	0.1558	0.046
Mof_C 	C 	0.8308	0.4931	0.0957	-0.153
Mof_H 	H 	0.8748	0.4814	0.0768	0.063
Mof_C 	C 	0.7635	0.5064	0.0654	0.122
Mof_H 	H 	0.7615	0.5032	0.0258	-0.011
Mof_C 	C 	0.7055	0.5298	0.1518	0.112
Mof_H 	H 	0.662	0.5434	0.1704	-0.04
Mof_C 	C 	0.7008	0.524	0.0931	-0.224
Mof_C 	C 	0.3766	0.4659	0.939	0.55
Mof_C 	C 	0.099	0.7935	0.3007	0.569
Mof_C 	C 	0.0354	0.8	0.2555	-0.319
Mof_C 	C 	0.9598	0.7957	0.2726	0.173
Mof_H 	H 	0.9513	0.7857	0.3105	-0.037
Mof_C 	C 	0.0466	0.8126	0.1996	0.244
Mof_H 	H 	0.0965	0.8161	0.1868	-0.126
Mof_C 	C 	0.9869	0.8201	0.1624	-0.26
Mof_H 	H 	0.9957	0.8263	0.1238	0.12
Mof_C 	C 	0.9139	0.8186	0.1806	0.094
Mof_C 	C 	0.8447	0.8308	0.145	0.056
Mof_C 	C 	0.8453	0.8288	0.0846	-0.18
Mof_H 	H 	0.8904	0.8191	0.0661	0.098
Mof_C 	C 	0.7785	0.8412	0.0535	0.155
Mof_H 	H 	0.7779	0.8386	0.0138	-0.044
Mof_C 	C 	0.7175	0.8609	0.1399	0.132
Mof_H 	H 	0.6736	0.8735	0.1585	-0.041
Mof_C 	C 	0.7132	0.8572	0.0807	-0.256
Mof_C 	C 	0.1378	0.634	0.5496	0.559
Mof_C 	C 	0.9816	0.7145	0.7138	0.435
Mof_C 	C 	0.0441	0.7041	0.7599	-0.163
Mof_C 	C 	0.6206	0.7972	0.2447	0.082
Mof_H 	H 	0.6319	0.7885	0.207	-0.028
Mof_C 	C 	0.0284	0.693	0.8174	0.077
Mof_H 	H 	0.9781	0.6952	0.8295	-0.007
Mof_C 	C 	0.0865	0.679	0.8553	-0.123
Mof_H 	H 	0.0762	0.671	0.8934	0.052
Mof_C 	C 	0.6632	0.8232	0.3367	0.044
Mof_C 	C 	0.7285	0.8392	0.3735	0.068
Mof_C 	C 	0.727	0.8353	0.4341	-0.187
Mof_H 	H 	0.6829	0.8219	0.452	0.091
Mof_C 	C 	0.7916	0.8518	0.4653	0.151
Mof_H 	H 	0.7914	0.8495	0.505	-0.033
Mof_C 	C 	0.8556	0.8722	0.3804	0.156
Mof_H 	H 	0.9001	0.8842	0.3623	-0.038
Mof_C 	C 	0.8576	0.8716	0.4392	-0.261
Mof_C 	C 	0.4256	0.6025	0.9729	0.569
Mof_C 	C 	0.2443	0.4876	0.1156	0.543
Mof_C 	C 	0.1686	0.4928	0.0837	-0.253
Mof_C 	C 	0.1257	0.4391	0.07	0.14
Mof_H 	H 	0.1422	0.3998	0.0838	-0.049
Mof_C 	C 	0.0349	0.4979	0.0168	0.049
Mof_C 	C 	0.9285	0.4523	0.9696	-0.285
Mof_C 	C 	0.1428	0.55	0.0626	0.155
Mof_H 	H 	0.1698	0.5877	0.0689	-0.033
_end
