data_functionalizedCrystal
_audit_creation_method	'EQeq! by Chris Wilmer'
_symmetry_space_group_name_H-M	'P1'
_symmetry_Int_Tables_number	1
_symmetry_cell_setting	triclinic
loop_
_symmetry_equiv_pos_as_xyz
  x,y,z
_cell_length_a	13.559
_cell_length_b	13.559
_cell_length_c	14.999
_cell_angle_alpha	90
_cell_angle_beta	90
_cell_angle_gamma	120
loop_
_atom_site_label
_atom_site_type_symbol
_atom_site_fract_x
_atom_site_fract_y
_atom_site_fract_z
_atom_site_charge
Mof_La	La	0.33333	0.66666	0.83048	2.295
Mof_La	La	0.66667	0.33334	0.66952	2.292
Mof_La	La	0.66667	0.33334	0.16952	2.284
Mof_La	La	0.33333	0.66666	0.33048	2.285
Mof_Cu	Cu	0.5	0.5	-0	0.897
Mof_Cu	Cu	-0	0.5	-0	0.869
Mof_Cu	Cu	0.5	0	-0	0.868
Mof_Cu	Cu	2.74767e-17	0.5	0.5	0.896
Mof_Cu	Cu	0.5	0.5	0.5	0.924
Mof_Cu	Cu	0.5	0	0.5	0.895
Mof_H 	H 	0.6732	0.6475	0.0764	0.096
Mof_H 	H 	0.5425	0.7283	0.1279	0.143
Mof_H 	H 	0.6019	0.6792	0.1885	0.141
Mof_H 	H 	0.7073	0.7449	0.953	0.089
Mof_H 	H 	0.681	0.8168	0.0208	0.043
Mof_H 	H 	0.9743	0.3268	0.0764	0.149
Mof_H 	H 	0.1858	0.4575	0.1279	0.131
Mof_H 	H 	0.0773	0.3981	0.1885	0.109
Mof_H 	H 	0.0376	0.2927	0.953	0.04
Mof_H 	H 	0.1358	0.319	0.0208	0.001
Mof_H 	H 	0.3525	0.0257	0.0764	0.03
Mof_H 	H 	0.2717	0.8142	0.1279	0.137
Mof_H 	H 	0.3208	0.9227	0.1885	0.153
Mof_H 	H 	0.2551	0.9624	0.953	0.098
Mof_H 	H 	0.1832	0.8642	0.0208	0.025
Mof_H 	H 	0.0257	0.3525	0.4236	0.035
Mof_H 	H 	0.8142	0.2717	0.3721	0.149
Mof_H 	H 	0.9227	0.3208	0.3115	0.155
Mof_H 	H 	0.9624	0.2551	0.547	0.142
Mof_H 	H 	0.8642	0.1832	0.4792	0.122
Mof_H 	H 	0.6475	0.6732	0.4236	0.097
Mof_H 	H 	0.7283	0.5425	0.3721	0.155
Mof_H 	H 	0.6792	0.6019	0.3115	0.145
Mof_H 	H 	0.7449	0.7073	0.547	0.135
Mof_H 	H 	0.8168	0.681	0.4792	0.141
Mof_H 	H 	0.3268	0.9743	0.4236	0.152
Mof_H 	H 	0.4575	0.1858	0.3721	0.144
Mof_H 	H 	0.3981	0.0773	0.3115	0.111
Mof_H 	H 	0.2927	0.0376	0.547	0.086
Mof_H 	H 	0.319	0.1358	0.4792	0.104
Mof_H 	H 	0.3268	0.3525	0.9236	0.093
Mof_H 	H 	0.4575	0.2717	0.8721	0.157
Mof_H 	H 	0.3981	0.3208	0.8115	0.134
Mof_H 	H 	0.2927	0.2551	0.047	0.155
Mof_H 	H 	0.319	0.1832	0.9792	0.207
Mof_H 	H 	0.0257	0.6732	0.9236	0.043
Mof_H 	H 	0.8142	0.5425	0.8721	0.166
Mof_H 	H 	0.9227	0.6019	0.8115	0.164
Mof_H 	H 	0.9624	0.7073	0.047	0.2
Mof_H 	H 	0.8642	0.681	0.9792	0.236
Mof_H 	H 	0.6475	0.9743	0.9236	0.156
Mof_H 	H 	0.7283	0.1858	0.8721	0.161
Mof_H 	H 	0.6792	0.0773	0.8115	0.121
Mof_H 	H 	0.7449	0.0376	0.047	0.144
Mof_H 	H 	0.8168	0.1358	0.9792	0.22
Mof_H 	H 	0.9743	0.6475	0.5764	0.153
Mof_H 	H 	0.1858	0.7283	0.6279	0.15
Mof_H 	H 	0.0773	0.6792	0.6885	0.121
Mof_H 	H 	0.0376	0.7449	0.453	0.1
Mof_H 	H 	0.1358	0.8168	0.5208	0.123
Mof_H 	H 	0.3525	0.3268	0.5764	0.09
Mof_H 	H 	0.2717	0.4575	0.6279	0.145
Mof_H 	H 	0.3208	0.3981	0.6885	0.132
Mof_H 	H 	0.2551	0.2927	0.453	0.107
Mof_H 	H 	0.1832	0.319	0.5208	0.105
Mof_H 	H 	0.6732	0.0257	0.5764	0.036
Mof_H 	H 	0.5425	0.8142	0.6279	0.155
Mof_H 	H 	0.6019	0.9227	0.6885	0.163
Mof_H 	H 	0.7073	0.9624	0.453	0.156
Mof_H 	H 	0.681	0.8642	0.5208	0.141
Mof_C 	C 	0.5531	0.6634	0.1369	-0.37
Mof_C 	C 	0.4386	0.5598	0.1564	0.489
Mof_C 	C 	0.549	0.7282	0.932	0.344
Mof_C 	C 	0.6485	0.744	0.9904	-0.113
Mof_C 	C 	0.1103	0.4469	0.1369	-0.351
Mof_C 	C 	0.1212	0.5614	0.1564	0.478
Mof_C 	C 	0.1792	0.451	0.932	0.324
Mof_C 	C 	0.0955	0.3515	0.9904	-0.069
Mof_C 	C 	0.3366	0.8897	0.1369	-0.369
Mof_C 	C 	0.4402	0.8788	0.1564	0.492
Mof_C 	C 	0.2718	0.8208	0.932	0.347
Mof_C 	C 	0.256	0.9045	0.9904	-0.109
Mof_C 	C 	0.8897	0.3366	0.3631	-0.378
Mof_C 	C 	0.8788	0.4402	0.3436	0.499
Mof_C 	C 	0.8208	0.2718	0.568	0.391
Mof_C 	C 	0.9045	0.256	0.5096	-0.302
Mof_C 	C 	0.6634	0.5531	0.3631	-0.379
Mof_C 	C 	0.5598	0.4386	0.3436	0.496
Mof_C 	C 	0.7282	0.549	0.568	0.388
Mof_C 	C 	0.744	0.6485	0.5096	-0.307
Mof_C 	C 	0.4469	0.1103	0.3631	-0.361
Mof_C 	C 	0.5614	0.1212	0.3436	0.484
Mof_C 	C 	0.451	0.1792	0.568	0.37
Mof_C 	C 	0.3515	0.0955	0.5096	-0.273
Mof_C 	C 	0.4469	0.3366	0.8631	-0.376
Mof_C 	C 	0.5614	0.4402	0.8436	0.498
Mof_C 	C 	0.451	0.2718	0.068	0.426
Mof_C 	C 	0.3515	0.256	0.0096	-0.484
Mof_C 	C 	0.8897	0.5531	0.8631	-0.388
Mof_C 	C 	0.8788	0.4386	0.8436	0.506
Mof_C 	C 	0.8208	0.549	0.068	0.44
Mof_C 	C 	0.9045	0.6485	0.0096	-0.502
Mof_C 	C 	0.6634	0.1103	0.8631	-0.372
Mof_C 	C 	0.5598	0.1212	0.8436	0.492
Mof_C 	C 	0.7282	0.1792	0.068	0.42
Mof_C 	C 	0.744	0.0955	0.0096	-0.478
Mof_C 	C 	0.1103	0.6634	0.6369	-0.367
Mof_C 	C 	0.1212	0.5598	0.6564	0.488
Mof_C 	C 	0.1792	0.7282	0.432	0.375
Mof_C 	C 	0.0955	0.744	0.4904	-0.285
Mof_C 	C 	0.3366	0.4469	0.6369	-0.371
Mof_C 	C 	0.4402	0.5614	0.6564	0.492
Mof_C 	C 	0.2718	0.451	0.432	0.379
Mof_C 	C 	0.256	0.3515	0.4904	-0.284
Mof_C 	C 	0.5531	0.8897	0.6369	-0.383
Mof_C 	C 	0.4386	0.8788	0.6564	0.501
Mof_C 	C 	0.549	0.8208	0.432	0.396
Mof_C 	C 	0.6485	0.9045	0.4904	-0.314
Mof_N 	N 	0.6111	0.6509	0.0578	-0.2
Mof_N 	N 	0.0398	0.3889	0.0578	-0.258
Mof_N 	N 	0.3491	0.9602	0.0578	-0.143
Mof_N 	N 	0.9602	0.3491	0.4422	-0.101
Mof_N 	N 	0.6509	0.6111	0.4422	-0.154
Mof_N 	N 	0.3889	0.0398	0.4422	-0.212
Mof_N 	N 	0.3889	0.3491	0.9422	-0.106
Mof_N 	N 	0.9602	0.6111	0.9422	-0.05
Mof_N 	N 	0.6509	0.0398	0.9422	-0.156
Mof_N 	N 	0.0398	0.6509	0.5578	-0.207
Mof_N 	N 	0.3491	0.3889	0.5578	-0.159
Mof_N 	N 	0.6111	0.9602	0.5578	-0.096
Mof_O 	O 	0.4534	0.6363	0.9432	-0.483
Mof_O 	O 	0.5622	0.8012	0.8768	-0.383
Mof_O 	O 	0.402	0.4766	0.1045	-0.45
Mof_O 	O 	0.3883	0.5645	0.2241	-0.535
Mof_O 	O 	0.1829	0.5466	0.9432	-0.484
Mof_O 	O 	0.239	0.4378	0.8768	-0.395
Mof_O 	O 	0.0746	0.598	0.1045	-0.466
Mof_O 	O 	0.1762	0.6117	0.2241	-0.539
Mof_O 	O 	0.3637	0.8171	0.9432	-0.474
Mof_O 	O 	0.1988	0.761	0.8768	-0.396
Mof_O 	O 	0.5234	0.9254	0.1045	-0.415
Mof_O 	O 	0.4355	0.8238	0.2241	-0.525
Mof_O 	O 	0.8171	0.3637	0.5568	-0.506
Mof_O 	O 	0.761	0.1988	0.6232	-0.418
Mof_O 	O 	0.9254	0.5234	0.3955	-0.408
Mof_O 	O 	0.8238	0.4355	0.2759	-0.524
Mof_O 	O 	0.6363	0.4534	0.5568	-0.515
Mof_O 	O 	0.8012	0.5622	0.6232	-0.405
Mof_O 	O 	0.4766	0.402	0.3955	-0.442
Mof_O 	O 	0.5645	0.3883	0.2759	-0.534
Mof_O 	O 	0.5466	0.1829	0.5568	-0.517
Mof_O 	O 	0.4378	0.239	0.6232	-0.417
Mof_O 	O 	0.598	0.0746	0.3955	-0.459
Mof_O 	O 	0.6117	0.1762	0.2759	-0.539
Mof_O 	O 	0.5466	0.3637	0.0568	-0.541
Mof_O 	O 	0.4378	0.1988	0.1232	-0.443
Mof_O 	O 	0.598	0.5234	0.8955	-0.418
Mof_O 	O 	0.6117	0.4355	0.7759	-0.532
Mof_O 	O 	0.8171	0.4534	0.0568	-0.532
Mof_O 	O 	0.761	0.5622	0.1232	-0.43
Mof_O 	O 	0.9254	0.402	0.8955	-0.393
Mof_O 	O 	0.8238	0.3883	0.7759	-0.527
Mof_O 	O 	0.6363	0.1829	0.0568	-0.544
Mof_O 	O 	0.8012	0.239	0.1232	-0.429
Mof_O 	O 	0.4766	0.0746	0.8955	-0.441
Mof_O 	O 	0.5645	0.1762	0.7759	-0.541
Mof_O 	O 	0.1829	0.6363	0.4432	-0.517
Mof_O 	O 	0.239	0.8012	0.3768	-0.408
Mof_O 	O 	0.0746	0.4766	0.6045	-0.46
Mof_O 	O 	0.1762	0.5645	0.7241	-0.542
Mof_O 	O 	0.3637	0.5466	0.4432	-0.514
Mof_O 	O 	0.1988	0.4378	0.3768	-0.422
Mof_O 	O 	0.5234	0.598	0.6045	-0.437
Mof_O 	O 	0.4355	0.6117	0.7241	-0.533
Mof_O 	O 	0.4534	0.8171	0.4432	-0.505
Mof_O 	O 	0.5622	0.761	0.3768	-0.41
Mof_O 	O 	0.402	0.9254	0.6045	-0.409
Mof_O 	O 	0.3883	0.8238	0.7241	-0.528
_end
