data_functionalizedCrystal
_audit_creation_method	'EQeq! by Chris Wilmer'
_symmetry_space_group_name_H-M	'P1'
_symmetry_Int_Tables_number	1
_symmetry_cell_setting	triclinic
loop_
_symmetry_equiv_pos_as_xyz
  x,y,z
_cell_length_a	7.3744
_cell_length_b	7.3744
_cell_length_c	45.758
_cell_angle_alpha	90
_cell_angle_beta	90
_cell_angle_gamma	120
loop_
_atom_site_label
_atom_site_type_symbol
_atom_site_fract_x
_atom_site_fract_y
_atom_site_fract_z
_atom_site_charge
Mof_C 	C 	0.5149	0.9007	0.14277	-0.062
Mof_N 	N 	0.6277	0.0411	0.12849	-0.238
Mof_C 	C 	0.18157	0.23403	0.4761	-0.146
Mof_N 	N 	0.29437	0.37443	0.46182	-0.199
Mof_C 	C 	0.84823	0.56737	0.80944	-0.118
Mof_N 	N 	0.96103	0.70777	0.79516	-0.125
Mof_C 	C 	0.0993	0.6142	0.14277	-0.213
Mof_N 	N 	0.9589	0.5866	0.12849	-0.125
Mof_C 	C 	0.76597	0.94753	0.4761	-0.021
Mof_N 	N 	0.62557	0.91993	0.46182	-0.198
Mof_C 	C 	0.43263	0.28087	0.80944	-0.151
Mof_N 	N 	0.29223	0.25327	0.79516	-0.185
Mof_C 	C 	0.3858	0.4851	0.14277	-0.151
Mof_N 	N 	0.4134	0.3723	0.12849	-0.197
Mof_C 	C 	0.05247	0.81843	0.4761	-0.09
Mof_N 	N 	0.08007	0.70563	0.46182	-0.214
Mof_C 	C 	0.71913	0.15177	0.80944	-0.142
Mof_N 	N 	0.74673	0.03897	0.79516	-0.173
Mof_C 	C 	0.9007	0.5149	0.35723	-0.063
Mof_N 	N 	0.0411	0.6277	0.37151	-0.239
Mof_C 	C 	0.56737	0.84823	0.69056	-0.119
Mof_N 	N 	0.70777	0.96103	0.70484	-0.126
Mof_C 	C 	0.23403	0.18157	0.0239	-0.147
Mof_N 	N 	0.37443	0.29437	0.03818	-0.2
Mof_C 	C 	0.6142	0.0993	0.35723	-0.214
Mof_N 	N 	0.5866	0.9589	0.37151	-0.125
Mof_C 	C 	0.28087	0.43263	0.69056	-0.151
Mof_N 	N 	0.25327	0.29223	0.70484	-0.185
Mof_C 	C 	0.94753	0.76597	0.0239	-0.021
Mof_N 	N 	0.91993	0.62557	0.03818	-0.198
Mof_C 	C 	0.4851	0.3858	0.35723	-0.151
Mof_N 	N 	0.3723	0.4134	0.37151	-0.197
Mof_C 	C 	0.15177	0.71913	0.69056	-0.142
Mof_N 	N 	0.03897	0.74673	0.70484	-0.173
Mof_C 	C 	0.81843	0.05247	0.0239	-0.09
Mof_N 	N 	0.70563	0.08007	0.03818	-0.214
Mof_C 	C 	0.4851	0.0993	0.85723	-0.222
Mof_N 	N 	0.3723	0.9589	0.87151	-0.135
Mof_C 	C 	0.15177	0.43263	0.19056	-0.156
Mof_N 	N 	0.03897	0.29223	0.20484	-0.197
Mof_C 	C 	0.81843	0.76597	0.5239	-0.027
Mof_N 	N 	0.70563	0.62557	0.53818	-0.208
Mof_C 	C 	0.9007	0.3858	0.85723	-0.068
Mof_N 	N 	0.0411	0.4134	0.87151	-0.251
Mof_C 	C 	0.56737	0.71913	0.19056	-0.125
Mof_N 	N 	0.70777	0.74673	0.20484	-0.139
Mof_C 	C 	0.23403	0.05247	0.5239	-0.153
Mof_N 	N 	0.37443	0.08007	0.53818	-0.21
Mof_C 	C 	0.6142	0.5149	0.85723	-0.138
Mof_N 	N 	0.5866	0.6277	0.87151	-0.175
Mof_C 	C 	0.28087	0.84823	0.19056	-0.131
Mof_N 	N 	0.25327	0.96103	0.20484	-0.147
Mof_C 	C 	0.94753	0.18157	0.5239	-0.078
Mof_N 	N 	0.91993	0.29437	0.53818	-0.194
Mof_C 	C 	0.0993	0.4851	0.64277	-0.223
Mof_N 	N 	0.9589	0.3723	0.62849	-0.135
Mof_C 	C 	0.76597	0.81843	0.9761	-0.026
Mof_N 	N 	0.62557	0.70563	0.96182	-0.208
Mof_C 	C 	0.43263	0.15177	0.30944	-0.156
Mof_N 	N 	0.29223	0.03897	0.29516	-0.197
Mof_C 	C 	0.3858	0.9007	0.64277	-0.068
Mof_N 	N 	0.4134	0.0411	0.62849	-0.25
Mof_C 	C 	0.05247	0.23403	0.9761	-0.152
Mof_N 	N 	0.08007	0.37443	0.96182	-0.21
Mof_C 	C 	0.71913	0.56737	0.30944	-0.125
Mof_N 	N 	0.74673	0.70777	0.29516	-0.139
Mof_C 	C 	0.5149	0.6142	0.64277	-0.138
Mof_N 	N 	0.6277	0.5866	0.62849	-0.175
Mof_C 	C 	0.18157	0.94753	0.9761	-0.077
Mof_N 	N 	0.29437	0.91993	0.96182	-0.194
Mof_C 	C 	0.84823	0.28087	0.30944	-0.131
Mof_N 	N 	0.96103	0.25327	0.29516	-0.147
Mof_Fe	Fe	0.33333	0.66667	0.16667	0.694
Mof_Fe	Fe	-2.34277e-32	4.68554e-32	0.5	0.426
Mof_Fe	Fe	0.66667	0.33333	0.33333	0.694
Mof_Fe	Fe	0.33333	0.66667	0.66667	0.694
Mof_Fe	Fe	0.66667	0.33333	0.83333	0.694
Mof_Fe	Fe	-0	0	-0	0.425
Mof_Ba	Ba	0.66667	0.33333	0.08333	1.312
Mof_Ba	Ba	9.37107e-32	9.37107e-32	0.75	1.067
Mof_Ba	Ba	0.33333	0.66667	0.41667	1.312
Mof_Ba	Ba	0.33333	0.66667	0.91667	1.312
Mof_Ba	Ba	-1.17138e-32	2.34277e-32	0.25	1.066
Mof_Ba	Ba	0.66667	0.33333	0.58333	1.312
_end
