data_functionalizedCrystal
_audit_creation_method	'EQeq! by Chris Wilmer'
_symmetry_space_group_name_H-M	'P1'
_symmetry_Int_Tables_number	1
_symmetry_cell_setting	triclinic
loop_
_symmetry_equiv_pos_as_xyz
  x,y,z
_cell_length_a	28.9202
_cell_length_b	28.9202
_cell_length_c	28.9202
_cell_angle_alpha	90
_cell_angle_beta	90
_cell_angle_gamma	90
loop_
_atom_site_label
_atom_site_type_symbol
_atom_site_fract_x
_atom_site_fract_y
_atom_site_fract_z
_atom_site_charge
Mof_C 	C 	0.52371	0.02081	0.35499	-0.066
Mof_C 	C 	0.4763	0.0203	0.35504	-0.069
Mof_C 	C 	0.46248	0.00627	0.40167	0.17
Mof_N 	N 	0.50033	0.99848	0.42804	-0.195
Mof_C 	C 	0.53794	0.00698	0.40157	0.166
Mof_C 	C 	0.41647	0.9982	0.41579	-0.132
Mof_C 	C 	0.40365	0.99055	0.4624	0.082
Mof_C 	C 	0.36098	0.97382	0.47651	-0.069
Mof_C 	C 	0.36102	0.97429	0.52406	-0.066
Mof_C 	C 	0.40374	0.99123	0.53776	0.077
Mof_N 	N 	0.42952	0.00111	0.49996	-0.136
Mof_C 	C 	0.41673	0.99959	0.58418	-0.12
Mof_C 	C 	0.46291	0.00701	0.59811	0.166
Mof_C 	C 	0.47713	0.02086	0.64468	-0.067
Mof_C 	C 	0.52454	0.02038	0.64463	-0.07
Mof_C 	C 	0.53837	0.00633	0.598	0.171
Mof_N 	N 	0.50053	0.99852	0.57164	-0.195
Mof_C 	C 	0.58439	0.99828	0.58389	-0.132
Mof_C 	C 	0.59721	0.99061	0.53729	0.083
Mof_C 	C 	0.63989	0.9739	0.52318	-0.068
Mof_C 	C 	0.63985	0.97435	0.47563	-0.064
Mof_C 	C 	0.59712	0.99126	0.46193	0.078
Mof_N 	N 	0.57134	0.00114	0.49972	-0.137
Mof_C 	C 	0.58413	0.99959	0.4155	-0.119
Mof_H 	H 	0.54552	0.03001	0.32601	0.063
Mof_H 	H 	0.45423	0.02905	0.32613	0.065
Mof_H 	H 	0.54009	0.01889	0.49988	0.111
Mof_H 	H 	0.33258	0.96273	0.45482	0.04
Mof_H 	H 	0.33268	0.96362	0.54604	0.038
Mof_H 	H 	0.45533	0.03006	0.67366	0.059
Mof_H 	H 	0.54661	0.02915	0.67354	0.061
Mof_H 	H 	0.6682	0.96368	0.45366	0.043
Mof_H 	H 	0.46076	0.01887	0.49979	0.111
Mof_H 	H 	0.6683	0.96283	0.54488	0.045
Mof_C 	C 	0.35559	0.51981	0.02422	-0.043
Mof_C 	C 	0.35564	0.4724	0.02374	-0.049
Mof_C 	C 	0.40227	0.45858	0.00969	0.082
Mof_N 	N 	0.42864	0.49642	0.00188	-0.113
Mof_C 	C 	0.40216	0.53404	0.01037	0.073
Mof_C 	C 	0.41638	0.41256	0.00164	-0.011
Mof_C 	C 	0.46299	0.39974	0.99398	-0.033
Mof_C 	C 	0.4771	0.35706	0.97726	-0.047
Mof_C 	C 	0.52465	0.3571	0.97772	-0.041
Mof_C 	C 	0.53835	0.39983	0.99463	-0.042
Mof_N 	N 	0.50055	0.42561	0.00451	-0.079
Mof_C 	C 	0.58478	0.41282	0.00296	0.01
Mof_C 	C 	0.59871	0.45901	0.01036	0.074
Mof_C 	C 	0.64528	0.47324	0.02419	-0.042
Mof_C 	C 	0.64523	0.52065	0.02368	-0.047
Mof_C 	C 	0.5986	0.53447	0.00964	0.083
Mof_N 	N 	0.57223	0.49662	0.00185	-0.112
Mof_C 	C 	0.58448	0.58048	0.00157	-0.01
Mof_C 	C 	0.53788	0.5933	0.99392	-0.034
Mof_C 	C 	0.52376	0.63597	0.97719	-0.048
Mof_C 	C 	0.47621	0.63593	0.97766	-0.042
Mof_C 	C 	0.46252	0.59321	0.9946	-0.044
Mof_N 	N 	0.50031	0.56743	0.00447	-0.078
Mof_C 	C 	0.41609	0.58022	0.00295	0.01
Mof_H 	H 	0.32662	0.54162	0.03342	0.054
Mof_H 	H 	0.32673	0.45034	0.03251	0.057
Mof_H 	H 	0.50048	0.53619	0.02224	0.096
Mof_H 	H 	0.4554	0.32865	0.96619	0.025
Mof_H 	H 	0.54662	0.32875	0.96705	0.022
Mof_H 	H 	0.67426	0.45144	0.03338	0.058
Mof_H 	H 	0.67414	0.54272	0.03242	0.061
Mof_H 	H 	0.45423	0.66427	0.96698	0.018
Mof_H 	H 	0.5004	0.45686	0.02226	0.097
Mof_H 	H 	0.54546	0.66437	0.96609	0.022
Mof_C 	C 	0.97645	0.64131	0.47572	-0.048
Mof_C 	C 	0.97596	0.64136	0.52313	-0.043
Mof_C 	C 	0.98981	0.59479	0.53736	0.074
Mof_N 	N 	0.9983	0.56831	0.49974	-0.112
Mof_C 	C 	0.99049	0.59468	0.4619	0.082
Mof_C 	C 	0.99723	0.58086	0.58354	0.01
Mof_C 	C 	0.00559	0.53444	0.59653	-0.044
Mof_C 	C 	0.02253	0.52074	0.63925	-0.042
Mof_C 	C 	0.023	0.4732	0.63929	-0.049
Mof_C 	C 	0.00627	0.45908	0.59662	-0.034
Mof_N 	N 	0.99571	0.49664	0.57075	-0.078
Mof_C 	C 	0.99861	0.41247	0.5838	-0.011
Mof_C 	C 	0.99055	0.39835	0.53779	0.082
Mof_C 	C 	0.97652	0.35172	0.52398	-0.047
Mof_C 	C 	0.97601	0.35167	0.47657	-0.042
Mof_C 	C 	0.98984	0.39824	0.46234	0.074
Mof_N 	N 	0.99833	0.42472	0.49995	-0.112
Mof_C 	C 	0.99723	0.41217	0.41615	0.01
Mof_C 	C 	0.00556	0.4586	0.40315	-0.042
Mof_C 	C 	0.02248	0.4723	0.36043	-0.041
Mof_C 	C 	0.02293	0.51985	0.36039	-0.047
Mof_C 	C 	0.00621	0.53396	0.40306	-0.033
Mof_N 	N 	0.99568	0.49639	0.42894	-0.079
Mof_C 	C 	0.99855	0.58056	0.41588	-0.01
Mof_H 	H 	0.96768	0.67022	0.45365	0.058
Mof_H 	H 	0.96676	0.67034	0.54494	0.055
Mof_H 	H 	0.97793	0.49655	0.46018	0.097
Mof_H 	H 	0.03321	0.54272	0.66759	0.017
Mof_H 	H 	0.03409	0.4515	0.6677	0.021
Mof_H 	H 	0.96777	0.3228	0.54605	0.06
Mof_H 	H 	0.96681	0.32269	0.45477	0.057
Mof_H 	H 	0.03401	0.54155	0.33198	0.026
Mof_H 	H 	0.97795	0.49647	0.53952	0.096
Mof_H 	H 	0.03316	0.45032	0.33208	0.023
Mof_O 	O 	0.93785	0.99502	0.88082	-0.636
Mof_O 	O 	0.93778	0.99809	0.11881	-0.649
Mof_O 	O 	0.88141	0.93394	0.99821	-0.669
Mof_O 	O 	0.88146	0.05917	0.00142	-0.59
Mof_O 	O 	0.93782	0.11552	0.00145	-0.59
Mof_O 	O 	0.93773	0.87755	0.99821	-0.647
Mof_O 	O 	0.88143	0.99812	0.06245	-0.645
Mof_O 	O 	0.88146	0.995	0.93714	-0.67
Mof_Zr	Zr	0.91906	0.99654	0.99981	3.224
Mof_O 	O 	0.95848	0.03847	0.0418	-1.219
Mof_O 	O 	0.95847	0.95458	0.95784	-1.278
Mof_C 	C 	0.895	0.99428	0.8943	0.479
Mof_C 	C 	0.89494	0.99887	0.1053	0.513
Mof_C 	C 	0.89489	0.89109	0.99746	0.479
Mof_C 	C 	0.89498	0.10201	0.0022	0.474
Mof_H 	H 	0.93888	0.93502	0.06131	0.343
Mof_O 	O 	0.95863	0.95475	0.04158	-1.462
Mof_H 	H 	0.93897	0.05807	0.93834	0.328
Mof_O 	O 	0.95869	0.03832	0.95808	-1.486
Mof_O 	O 	0.06301	0.99488	0.11886	-0.671
Mof_O 	O 	0.06309	0.99814	0.88088	-0.692
Mof_O 	O 	0.00193	0.8775	0.06242	-0.648
Mof_O 	O 	0.99886	0.11548	0.0625	-0.59
Mof_O 	O 	0.00206	0.11554	0.93727	-0.683
Mof_O 	O 	0.99881	0.87755	0.93718	-0.627
Mof_O 	O 	0.1194	0.93386	0.00145	-0.614
Mof_O 	O 	0.11945	0.0591	0.99834	-0.648
Mof_O 	O 	0.06304	0.87751	0.0014	-0.627
Mof_O 	O 	0.06313	0.11548	0.99833	-0.683
Mof_O 	O 	0.00195	0.93381	0.11881	-0.67
Mof_O 	O 	0.99886	0.93392	0.88083	-0.614
Mof_O 	O 	0.00206	0.05922	0.88088	-0.648
Mof_O 	O 	0.99882	0.05912	0.11885	-0.59
Mof_O 	O 	0.1194	0.99488	0.06254	-0.635
Mof_O 	O 	0.11944	0.99808	0.93724	-0.687
Mof_Zr	Zr	0.00041	0.99648	0.08121	3.224
Mof_Zr	Zr	0.00046	0.99655	0.91847	3.224
Mof_Zr	Zr	0.0004	0.91515	0.99981	3.218
Mof_Zr	Zr	0.00046	0.07789	0.99987	3.219
Mof_Zr	Zr	0.0818	0.99649	0.99987	3.224
Mof_O 	O 	0.04243	0.03848	0.95791	-1.281
Mof_O 	O 	0.04237	0.95452	0.04181	-1.278
Mof_C 	C 	0.10586	0.99413	0.10538	0.479
Mof_C 	C 	0.10593	0.99887	0.89439	0.527
Mof_C 	C 	0.00267	0.89097	0.10527	0.479
Mof_C 	C 	0.99808	0.10197	0.10534	0.474
Mof_C 	C 	0.00281	0.10206	0.89441	0.481
Mof_C 	C 	0.99808	0.89107	0.89434	0.482
Mof_C 	C 	0.10588	0.89102	0.00219	0.482
Mof_C 	C 	0.10597	0.10195	0.9976	0.481
Mof_H 	H 	0.06193	0.93502	0.93834	0.303
Mof_O 	O 	0.0422	0.95475	0.95808	-1.566
Mof_H 	H 	0.06193	0.05798	0.06139	0.328
Mof_O 	O 	0.0422	0.03826	0.04164	-1.486
Mof_C 	C 	0.31087	0.99466	0.31113	-0.044
Mof_C 	C 	0.30974	0.02855	0.34574	0.014
Mof_C 	C 	0.34405	0.02966	0.37983	-0.022
Mof_C 	C 	0.37989	0.99688	0.37966	0.011
Mof_C 	C 	0.38077	0.96285	0.34499	-0.064
Mof_C 	C 	0.34646	0.9618	0.31089	-0.024
Mof_C 	C 	0.27567	0.99375	0.27582	-0.001
Mof_C 	C 	0.24622	0.99315	0.24623	-0.049
Mof_C 	C 	0.21103	0.99269	0.21089	0.056
Mof_C 	C 	0.22349	0.99256	0.16412	-0.09
Mof_C 	C 	0.18938	0.99276	0.1298	0.05
Mof_C 	C 	0.14215	0.99311	0.14177	-0.145
Mof_C 	C 	0.13003	0.99295	0.18896	0.047
Mof_C 	C 	0.16422	0.99276	0.22319	-0.095
Mof_H 	H 	0.2824	0.05416	0.3463	0.037
Mof_H 	H 	0.34284	0.05616	0.40628	0.048
Mof_H 	H 	0.40804	0.93719	0.34442	0.042
Mof_H 	H 	0.34771	0.9354	0.28433	0.034
Mof_H 	H 	0.25961	0.9925	0.15416	0.054
Mof_H 	H 	0.20008	0.99282	0.09392	0.039
Mof_H 	H 	0.09411	0.99318	0.19954	0.019
Mof_H 	H 	0.15413	0.99286	0.25927	0.041
Mof_C 	C 	0.68975	6e-05	0.31084	0.086
Mof_C 	C 	0.69022	0.03332	0.34606	-0.074
Mof_C 	C 	0.6559	0.0331	0.38016	0.021
Mof_C 	C 	0.62072	0.99961	0.37936	-0.021
Mof_C 	C 	0.62054	0.96619	0.3441	-0.02
Mof_C 	C 	0.65485	0.96647	0.31	-0.112
Mof_C 	C 	0.72501	0.00041	0.27558	-0.01
Mof_C 	C 	0.7545	0.00063	0.24602	-0.023
Mof_C 	C 	0.78971	0.00075	0.21071	0.101
Mof_C 	C 	0.83651	0.00083	0.22305	-0.125
Mof_C 	C 	0.87072	0.00045	0.18885	0.151
Mof_C 	C 	0.85863	0.99996	0.14165	-0.269
Mof_C 	C 	0.81141	0.00012	0.12965	0.201
Mof_C 	C 	0.77728	0.00049	0.16394	-0.142
Mof_H 	H 	0.71704	0.05945	0.3471	0.057
Mof_H 	H 	0.65658	0.05912	0.4071	0.039
Mof_H 	H 	0.59381	0.93998	0.34307	0.031
Mof_H 	H 	0.65416	0.94052	0.28298	0.052
Mof_H 	H 	0.84657	0.00105	0.25914	0.08
Mof_H 	H 	0.90663	0.00039	0.19946	0.037
Mof_H 	H 	0.80073	0.99978	0.09376	-0.017
Mof_H 	H 	0.74117	0.00044	0.15396	0.087
Mof_C 	C 	0.68998	0.99481	0.68855	-0.043
Mof_C 	C 	0.65441	0.96193	0.68881	-0.026
Mof_C 	C 	0.6201	0.96297	0.65471	-0.064
Mof_C 	C 	0.62097	0.99698	0.62003	0.011
Mof_C 	C 	0.65679	0.02978	0.61984	-0.021
Mof_C 	C 	0.69111	0.02869	0.65394	0.015
Mof_C 	C 	0.72519	0.99392	0.72387	-0.001
Mof_C 	C 	0.75465	0.99333	0.75345	-0.048
Mof_C 	C 	0.78984	0.99287	0.78879	0.057
Mof_C 	C 	0.77737	0.99275	0.83556	-0.094
Mof_C 	C 	0.81148	0.99294	0.86988	0.047
Mof_C 	C 	0.85871	0.99328	0.85792	-0.145
Mof_C 	C 	0.87084	0.99313	0.81072	0.05
Mof_C 	C 	0.83664	0.99295	0.7765	-0.09
Mof_H 	H 	0.65317	0.93555	0.71537	0.03
Mof_H 	H 	0.59284	0.93729	0.65528	0.039
Mof_H 	H 	0.658	0.05627	0.59339	0.05
Mof_H 	H 	0.71844	0.05431	0.65337	0.042
Mof_H 	H 	0.74126	0.99268	0.84552	0.042
Mof_H 	H 	0.80078	0.993	0.90576	0.019
Mof_H 	H 	0.90675	0.99335	0.80014	0.038
Mof_H 	H 	0.84673	0.99304	0.74042	0.053
Mof_C 	C 	0.31111	5e-05	0.68884	0.083
Mof_C 	C 	0.34602	0.96647	0.6897	-0.119
Mof_C 	C 	0.38034	0.9662	0.65559	-0.023
Mof_C 	C 	0.38014	0.9996	0.62032	-0.024
Mof_C 	C 	0.34495	0.03308	0.6195	0.02
Mof_C 	C 	0.31063	0.03329	0.65361	-0.078
Mof_C 	C 	0.27585	0.0004	0.72411	-0.017
Mof_C 	C 	0.24637	0.00062	0.75366	-0.035
Mof_C 	C 	0.21115	0.00073	0.78897	0.102
Mof_C 	C 	0.22359	0.00043	0.83574	-0.159
Mof_C 	C 	0.18946	6e-05	0.87004	0.212
Mof_C 	C 	0.14224	0.99995	0.85804	-0.303
Mof_C 	C 	0.13014	0.0005	0.81084	0.157
Mof_C 	C 	0.16436	0.00087	0.77664	-0.142
Mof_H 	H 	0.34673	0.94054	0.71672	0.042
Mof_H 	H 	0.40708	0.94	0.65663	0.027
Mof_H 	H 	0.34426	0.05908	0.59256	0.035
Mof_H 	H 	0.2838	0.05941	0.65255	0.051
Mof_H 	H 	0.2597	0.00033	0.84572	0.075
Mof_H 	H 	0.20014	0.99968	0.90592	-0.046
Mof_H 	H 	0.09424	0.00048	0.80023	0.013
Mof_H 	H 	0.15429	0.00113	0.74055	0.067
Mof_C 	C 	0.31172	0.30696	0.99816	-0.125
Mof_C 	C 	0.31147	0.34254	0.96529	0.037
Mof_C 	C 	0.34557	0.37685	0.96633	-0.185
Mof_C 	C 	0.38025	0.37598	0.00034	0.147
Mof_C 	C 	0.38043	0.34015	0.03314	-0.115
Mof_C 	C 	0.34634	0.30584	0.03205	0.103
Mof_C 	C 	0.27641	0.27176	0.99727	0.02
Mof_C 	C 	0.24682	0.2423	0.99668	-0.071
Mof_C 	C 	0.21149	0.20711	0.99621	0.062
Mof_C 	C 	0.22378	0.1603	0.99628	-0.098
Mof_C 	C 	0.18955	0.12611	0.99646	0.051
Mof_C 	C 	0.14236	0.13824	0.99661	-0.152
Mof_C 	C 	0.1304	0.18547	0.99627	0.047
Mof_C 	C 	0.16472	0.21958	0.99609	-0.102
Mof_H 	H 	0.28491	0.34378	0.9389	0.011
Mof_H 	H 	0.34499	0.40412	0.94065	0.056
Mof_H 	H 	0.40689	0.33895	0.05962	0.073
Mof_H 	H 	0.34691	0.27851	0.05766	0.026
Mof_H 	H 	0.25986	0.15021	0.99638	0.048
Mof_H 	H 	0.20014	0.0902	0.99668	0.031
Mof_H 	H 	0.09452	0.19617	0.99633	0.013
Mof_H 	H 	0.15476	0.25569	0.99602	0.038
Mof_C 	C 	0.31143	0.68584	0.00339	0.096
Mof_C 	C 	0.34666	0.68632	0.03664	-0.052
Mof_C 	C 	0.38076	0.652	0.03643	-0.043
Mof_C 	C 	0.37996	0.61681	0.00296	0.089
Mof_C 	C 	0.34468	0.61661	0.96955	-0.114
Mof_C 	C 	0.31058	0.65092	0.96982	-0.119
Mof_C 	C 	0.27617	0.72109	0.00373	-0.022
Mof_C 	C 	0.24661	0.75058	0.00395	-0.009
Mof_C 	C 	0.2113	0.7858	0.00406	0.052
Mof_C 	C 	0.22363	0.83259	0.0042	-0.079
Mof_C 	C 	0.18943	0.8668	0.00382	0.051
Mof_C 	C 	0.14224	0.85471	0.00327	-0.132
Mof_C 	C 	0.13024	0.80749	0.00338	0.05
Mof_C 	C 	0.16453	0.77336	0.00375	-0.08
Mof_H 	H 	0.34771	0.71316	0.06275	0.049
Mof_H 	H 	0.40771	0.6527	0.06244	0.052
Mof_H 	H 	0.34364	0.58986	0.94336	0.036
Mof_H 	H 	0.28355	0.65021	0.94389	0.033
Mof_H 	H 	0.25972	0.84266	0.00445	0.059
Mof_H 	H 	0.20004	0.90271	0.0038	0.045
Mof_H 	H 	0.09435	0.79681	0.003	0.038
Mof_H 	H 	0.15455	0.73725	0.00366	0.057
Mof_C 	C 	0.68914	0.68608	0.99802	-0.124
Mof_C 	C 	0.65454	0.68721	0.03191	0.103
Mof_C 	C 	0.62044	0.6529	0.03303	-0.115
Mof_C 	C 	0.62062	0.61706	0.00024	0.147
Mof_C 	C 	0.65529	0.61617	0.96622	-0.184
Mof_C 	C 	0.68939	0.65048	0.96516	0.038
Mof_C 	C 	0.72446	0.72128	0.9971	0.021
Mof_C 	C 	0.75404	0.75074	0.9965	-0.069
Mof_C 	C 	0.78938	0.78593	0.99602	0.063
Mof_C 	C 	0.77709	0.83273	0.9961	-0.099
Mof_C 	C 	0.81131	0.86692	0.99629	0.048
Mof_C 	C 	0.85851	0.8548	0.99644	-0.148
Mof_C 	C 	0.87047	0.80757	0.99608	0.051
Mof_C 	C 	0.83615	0.77346	0.9959	-0.096
Mof_H 	H 	0.65398	0.71455	0.05751	0.024
Mof_H 	H 	0.594	0.65412	0.05952	0.072
Mof_H 	H 	0.65585	0.5889	0.94055	0.059
Mof_H 	H 	0.71594	0.64924	0.93876	0.015
Mof_H 	H 	0.74101	0.84282	0.9962	0.041
Mof_H 	H 	0.80073	0.90284	0.99652	0.02
Mof_H 	H 	0.90635	0.79687	0.99615	0.033
Mof_H 	H 	0.84611	0.73734	0.99583	0.05
Mof_C 	C 	0.68944	0.3072	0.00342	0.099
Mof_C 	C 	0.65422	0.30674	0.03668	-0.05
Mof_C 	C 	0.62011	0.34106	0.03647	-0.041
Mof_C 	C 	0.62091	0.37623	0.00298	0.089
Mof_C 	C 	0.65617	0.37642	0.96956	-0.11
Mof_C 	C 	0.69028	0.3421	0.96984	-0.114
Mof_C 	C 	0.7247	0.27194	0.00377	-0.016
Mof_C 	C 	0.75426	0.24246	0.00399	-0
Mof_C 	C 	0.78956	0.20724	0.0041	0.054
Mof_C 	C 	0.83633	0.21968	0.00384	-0.069
Mof_C 	C 	0.87063	0.18554	0.00346	0.052
Mof_C 	C 	0.85862	0.13833	0.0033	-0.115
Mof_C 	C 	0.81143	0.12623	0.00379	0.052
Mof_C 	C 	0.77723	0.16045	0.00418	-0.07
Mof_H 	H 	0.65318	0.27991	0.06281	0.053
Mof_H 	H 	0.59318	0.34037	0.06248	0.054
Mof_H 	H 	0.65721	0.40315	0.94335	0.04
Mof_H 	H 	0.71729	0.3428	0.94389	0.042
Mof_H 	H 	0.84632	0.25579	0.00379	0.07
Mof_H 	H 	0.90651	0.19622	0.00312	0.06
Mof_H 	H 	0.80082	0.09032	0.00373	0.059
Mof_H 	H 	0.74114	0.15038	0.0044	0.068
Mof_C 	C 	0.9968	0.3075	0.31053	0.099
Mof_C 	C 	0.96354	0.34272	0.31006	-0.05
Mof_C 	C 	0.96374	0.37683	0.34438	-0.041
Mof_C 	C 	0.99722	0.37603	0.37956	0.089
Mof_C 	C 	0.03065	0.34078	0.37975	-0.111
Mof_C 	C 	0.03038	0.30667	0.34544	-0.114
Mof_C 	C 	0.99647	0.27224	0.27527	-0.016
Mof_C 	C 	0.99626	0.24269	0.24578	-0.001
Mof_C 	C 	0.99616	0.20738	0.21057	0.054
Mof_C 	C 	0.99609	0.21972	0.16378	-0.07
Mof_C 	C 	0.99647	0.18552	0.12956	0.052
Mof_C 	C 	0.99698	0.13832	0.14165	-0.116
Mof_C 	C 	0.99681	0.12632	0.18887	0.052
Mof_C 	C 	0.99643	0.16061	0.223	-0.07
Mof_H 	H 	0.93741	0.34376	0.28323	0.054
Mof_H 	H 	0.93772	0.40375	0.34369	0.054
Mof_H 	H 	0.05685	0.33975	0.40649	0.039
Mof_H 	H 	0.05633	0.27966	0.34614	0.042
Mof_H 	H 	0.99586	0.25581	0.15371	0.07
Mof_H 	H 	0.99654	0.19613	0.09365	0.06
Mof_H 	H 	0.99715	0.09043	0.19955	0.058
Mof_H 	H 	0.99648	0.15063	0.25911	0.068
Mof_C 	C 	0.0022	0.30781	0.6894	-0.125
Mof_C 	C 	0.03505	0.30757	0.65381	0.038
Mof_C 	C 	0.03398	0.34167	0.6195	-0.185
Mof_C 	C 	0.99995	0.37634	0.62039	0.147
Mof_C 	C 	0.96717	0.37651	0.65623	-0.116
Mof_C 	C 	0.9683	0.34241	0.69055	0.103
Mof_C 	C 	0.00312	0.2725	0.72461	0.02
Mof_C 	C 	0.00374	0.24291	0.75406	-0.071
Mof_C 	C 	0.00422	0.20757	0.78925	0.062
Mof_C 	C 	0.00435	0.16081	0.77679	-0.098
Mof_C 	C 	0.00417	0.12648	0.8109	0.051
Mof_C 	C 	0.00382	0.13845	0.85812	-0.152
Mof_C 	C 	0.00397	0.18564	0.87025	0.048
Mof_C 	C 	0.00415	0.21987	0.83606	-0.102
Mof_H 	H 	0.06145	0.28102	0.65256	0.014
Mof_H 	H 	0.05964	0.3411	0.59222	0.058
Mof_H 	H 	0.94068	0.40295	0.65745	0.071
Mof_H 	H 	0.9427	0.34297	0.71789	0.022
Mof_H 	H 	0.00441	0.15085	0.74067	0.048
Mof_H 	H 	0.00411	0.0906	0.80019	0.03
Mof_H 	H 	0.00375	0.19622	0.90617	0.013
Mof_H 	H 	0.00405	0.25595	0.84615	0.037
Mof_C 	C 	0.99681	0.68553	0.68915	0.096
Mof_C 	C 	0.96356	0.6503	0.68964	-0.052
Mof_C 	C 	0.96376	0.6162	0.65532	-0.043
Mof_C 	C 	0.99723	0.617	0.62013	0.089
Mof_C 	C 	0.03064	0.65227	0.61992	-0.114
Mof_C 	C 	0.03038	0.68638	0.65423	-0.119
Mof_C 	C 	0.99648	0.72079	0.72441	-0.022
Mof_C 	C 	0.99627	0.75035	0.7539	-0.009
Mof_C 	C 	0.99617	0.78566	0.78911	0.052
Mof_C 	C 	0.99604	0.77332	0.83591	-0.08
Mof_C 	C 	0.99643	0.80752	0.87012	0.05
Mof_C 	C 	0.99698	0.85472	0.85803	-0.132
Mof_C 	C 	0.99687	0.86672	0.81081	0.051
Mof_C 	C 	0.99649	0.83243	0.77668	-0.079
Mof_H 	H 	0.93745	0.64925	0.71648	0.048
Mof_H 	H 	0.93775	0.58926	0.65602	0.051
Mof_H 	H 	0.05683	0.65331	0.59317	0.036
Mof_H 	H 	0.05631	0.7134	0.65352	0.034
Mof_H 	H 	0.99578	0.73723	0.84597	0.056
Mof_H 	H 	0.99645	0.79691	0.90603	0.038
Mof_H 	H 	0.99725	0.90261	0.80013	0.043
Mof_H 	H 	0.99657	0.84241	0.74057	0.06
Mof_C 	C 	0.00206	0.68522	0.31028	-0.124
Mof_C 	C 	0.96817	0.65061	0.30915	0.104
Mof_C 	C 	0.96707	0.61652	0.34347	-0.114
Mof_C 	C 	0.99986	0.6167	0.3793	0.147
Mof_C 	C 	0.03388	0.65138	0.38018	-0.185
Mof_C 	C 	0.03492	0.68547	0.34587	0.038
Mof_C 	C 	0.00296	0.72053	0.27508	0.021
Mof_C 	C 	0.00356	0.75012	0.24562	-0.069
Mof_C 	C 	0.00404	0.78546	0.21043	0.063
Mof_C 	C 	0.00397	0.77316	0.16362	-0.096
Mof_C 	C 	0.0038	0.80739	0.12943	0.051
Mof_C 	C 	0.00366	0.85459	0.14156	-0.149
Mof_C 	C 	0.004	0.86655	0.18879	0.048
Mof_C 	C 	0.00417	0.83222	0.2229	-0.099
Mof_H 	H 	0.94256	0.65005	0.28182	0.028
Mof_H 	H 	0.94058	0.59006	0.34226	0.074
Mof_H 	H 	0.05955	0.65195	0.40745	0.057
Mof_H 	H 	0.06132	0.71203	0.34711	0.012
Mof_H 	H 	0.00387	0.73709	0.15353	0.05
Mof_H 	H 	0.00358	0.79681	0.09352	0.033
Mof_H 	H 	0.00394	0.90243	0.19949	0.019
Mof_H 	H 	0.00423	0.84218	0.25901	0.041
_end
