data_functionalizedCrystal
_audit_creation_method	'EQeq! by Chris Wilmer'
_symmetry_space_group_name_H-M	'P1'
_symmetry_Int_Tables_number	1
_symmetry_cell_setting	triclinic
loop_
_symmetry_equiv_pos_as_xyz
  x,y,z
_cell_length_a	34.182
_cell_length_b	34.182
_cell_length_c	34.182
_cell_angle_alpha	90
_cell_angle_beta	90
_cell_angle_gamma	90
loop_
_atom_site_label
_atom_site_type_symbol
_atom_site_fract_x
_atom_site_fract_y
_atom_site_fract_z
_atom_site_charge
Mof_O 	O 	0.854	0.1375	0.0127	-0.227
Mof_O 	O 	0.8052	0.234	0.9744	-0.363
Mof_C 	C 	0.5997	0.1423	0.0878	-0.025
Mof_H 	H 	0.5928	0.1638	0.0727	0.051
Mof_C 	C 	0.8827	0.2567	0.0079	-0.443
Mof_H 	H 	0.8718	0.2721	0.9868	0.214
Mof_H 	H 	0.877	0.2702	0.0323	0.178
Mof_N 	N 	0.6939	0.1254	0.0413	-0.212
Mof_O 	O 	0.7864	0.0555	0.0088	-0.433
Mof_C 	C 	0.6326	0.1201	0.0776	-0.044
Mof_C 	C 	0.8797	0.1322	0.077	-0.049
Mof_O 	O 	0.7337	0.1954	0.9745	-0.374
Mof_C 	C 	0.8683	0.1548	0.0414	0.216
Mof_N 	N 	0.8746	0.1934	0.0415	-0.22
Mof_H 	H 	0.8856	0.2043	0.0613	0.134
Mof_C 	C 	0.863	0.2168	0.0085	0.039
Mof_H 	H 	0.8703	0.2028	0.9846	0.082
Mof_C 	C 	0.7562	0.1173	0.0074	-0.411
Mof_C 	C 	0.9127	0.1425	0.1001	-0.018
Mof_H 	H 	0.9275	0.1644	0.0934	0.049
Mof_C 	C 	0.8189	0.2246	0.0071	0.276
Mof_O 	O 	0.6378	0.1457	0.0126	-0.226
Mof_C 	C 	0.7246	0.1817	0.007	0.293
Mof_C 	C 	0.7546	0.0737	0.003	0.403
Mof_C 	C 	0.6549	0.1315	0.0415	0.207
Mof_O 	O 	0.7237	0.19925	0.039	-0.396
Mof_C 	C 	0.9265	0.2545	0.0028	0.411
Mof_O 	O 	0.9441	0.2863	0.0089	-0.421
Mof_O 	O 	0.8007	0.2239	0.0393	-0.389
Mof_O 	O 	0.7228	0.0578	0.9926	-0.377
Mof_C 	C 	0.7164	0.1368	0.0077	0.028
Mof_O 	O 	0.9419	0.2225	0.9926	-0.364
Mof_H 	H 	0.7046	0.116	0.0623	0.128
Mof_H 	H 	0.77	0.1224	0.0331	0.156
Mof_H 	H 	0.773	0.1282	0.9877	0.207
Mof_H 	H 	0.7023	0.1302	0.9845	0.085
Mof_O 	O 	0.854	0.6375	0.5127	-0.213
Mof_O 	O 	0.8052	0.734	0.4744	-0.387
Mof_C 	C 	0.5997	0.6423	0.5878	-0.024
Mof_H 	H 	0.5928	0.6638	0.5727	0.053
Mof_C 	C 	0.8827	0.7567	0.5079	-0.401
Mof_H 	H 	0.8718	0.7721	0.4868	0.182
Mof_H 	H 	0.877	0.7702	0.5323	0.168
Mof_N 	N 	0.6939	0.6254	0.5413	-0.212
Mof_O 	O 	0.7864	0.5555	0.5088	-0.424
Mof_C 	C 	0.6326	0.6201	0.5776	-0.04
Mof_C 	C 	0.8797	0.6322	0.577	-0.045
Mof_O 	O 	0.7337	0.6954	0.4745	-0.397
Mof_C 	C 	0.8683	0.6548	0.5414	0.218
Mof_N 	N 	0.8746	0.6934	0.5415	-0.22
Mof_H 	H 	0.8856	0.7043	0.5613	0.135
Mof_C 	C 	0.863	0.7168	0.5085	0.059
Mof_H 	H 	0.8703	0.7028	0.4846	0.059
Mof_C 	C 	0.7562	0.6173	0.5074	-0.371
Mof_C 	C 	0.9127	0.6425	0.6001	-0.017
Mof_H 	H 	0.9275	0.6644	0.5934	0.052
Mof_C 	C 	0.8189	0.7246	0.5071	0.307
Mof_O 	O 	0.6378	0.6457	0.5126	-0.212
Mof_C 	C 	0.7246	0.6817	0.507	0.325
Mof_C 	C 	0.7546	0.5737	0.503	0.428
Mof_C 	C 	0.6549	0.6315	0.5415	0.21
Mof_O 	O 	0.7237	0.69925	0.539	-0.4
Mof_C 	C 	0.9265	0.7545	0.5028	0.436
Mof_O 	O 	0.9441	0.7863	0.5089	-0.417
Mof_O 	O 	0.8007	0.7239	0.5393	-0.393
Mof_O 	O 	0.7228	0.5578	0.4926	-0.404
Mof_C 	C 	0.7164	0.6368	0.5077	0.052
Mof_O 	O 	0.9419	0.7225	0.4926	-0.396
Mof_H 	H 	0.7046	0.616	0.5623	0.13
Mof_H 	H 	0.77	0.6224	0.5331	0.147
Mof_H 	H 	0.773	0.6282	0.4877	0.174
Mof_H 	H 	0.7023	0.6302	0.4845	0.059
Mof_O 	O 	0.354	0.1375	0.5127	-0.217
Mof_O 	O 	0.3052	0.234	0.4744	-0.388
Mof_C 	C 	0.0997	0.1423	0.5878	-0.024
Mof_H 	H 	0.0928	0.1638	0.5727	0.052
Mof_C 	C 	0.3827	0.2567	0.5079	-0.405
Mof_H 	H 	0.3718	0.2721	0.4868	0.182
Mof_H 	H 	0.377	0.2702	0.5323	0.169
Mof_N 	N 	0.1939	0.1254	0.5413	-0.213
Mof_O 	O 	0.2864	0.0555	0.5088	-0.43
Mof_C 	C 	0.1326	0.1201	0.5776	-0.043
Mof_C 	C 	0.3797	0.1322	0.577	-0.048
Mof_O 	O 	0.2337	0.1954	0.4745	-0.398
Mof_C 	C 	0.3683	0.1548	0.5414	0.218
Mof_N 	N 	0.3746	0.1934	0.5415	-0.22
Mof_H 	H 	0.3856	0.2043	0.5613	0.135
Mof_C 	C 	0.363	0.2168	0.5085	0.061
Mof_H 	H 	0.3703	0.2028	0.4846	0.057
Mof_C 	C 	0.2562	0.1173	0.5074	-0.373
Mof_C 	C 	0.4127	0.1425	0.6001	-0.017
Mof_H 	H 	0.4275	0.1644	0.5934	0.05
Mof_C 	C 	0.3189	0.2246	0.5071	0.307
Mof_O 	O 	0.1378	0.1457	0.5126	-0.216
Mof_C 	C 	0.2246	0.1817	0.507	0.325
Mof_C 	C 	0.2546	0.0737	0.503	0.43
Mof_C 	C 	0.1549	0.1315	0.5415	0.209
Mof_O 	O 	0.2237	0.19925	0.539	-0.4
Mof_C 	C 	0.4265	0.2545	0.5028	0.44
Mof_O 	O 	0.4441	0.2863	0.5089	-0.428
Mof_O 	O 	0.3007	0.2239	0.5393	-0.392
Mof_O 	O 	0.2228	0.0578	0.4926	-0.41
Mof_C 	C 	0.2164	0.1368	0.5077	0.053
Mof_O 	O 	0.4419	0.2225	0.4926	-0.407
Mof_H 	H 	0.2046	0.116	0.5623	0.13
Mof_H 	H 	0.27	0.1224	0.5331	0.147
Mof_H 	H 	0.273	0.1282	0.4877	0.174
Mof_H 	H 	0.2023	0.1302	0.4845	0.057
Mof_O 	O 	0.354	0.6375	0.0127	-0.226
Mof_O 	O 	0.3052	0.734	0.9744	-0.362
Mof_C 	C 	0.0997	0.6423	0.0878	-0.024
Mof_H 	H 	0.0928	0.6638	0.0727	0.051
Mof_C 	C 	0.3827	0.7567	0.0079	-0.445
Mof_H 	H 	0.3718	0.7721	0.9868	0.216
Mof_H 	H 	0.377	0.7702	0.0323	0.18
Mof_N 	N 	0.1939	0.6254	0.0413	-0.211
Mof_O 	O 	0.2864	0.5555	0.0088	-0.428
Mof_C 	C 	0.1326	0.6201	0.0776	-0.043
Mof_C 	C 	0.3797	0.6322	0.077	-0.049
Mof_O 	O 	0.2337	0.6954	0.9745	-0.373
Mof_C 	C 	0.3683	0.6548	0.0414	0.216
Mof_N 	N 	0.3746	0.6934	0.0415	-0.219
Mof_H 	H 	0.3856	0.7043	0.0613	0.135
Mof_C 	C 	0.363	0.7168	0.0085	0.041
Mof_H 	H 	0.3703	0.7028	0.9846	0.083
Mof_C 	C 	0.2562	0.6173	0.0074	-0.409
Mof_C 	C 	0.4127	0.6425	0.1001	-0.017
Mof_H 	H 	0.4275	0.6644	0.0934	0.049
Mof_C 	C 	0.3189	0.7246	0.0071	0.277
Mof_O 	O 	0.1378	0.6457	0.0126	-0.226
Mof_C 	C 	0.2246	0.6817	0.007	0.294
Mof_C 	C 	0.2546	0.5737	0.003	0.403
Mof_C 	C 	0.1549	0.6315	0.0415	0.208
Mof_O 	O 	0.2237	0.69925	0.039	-0.395
Mof_C 	C 	0.4265	0.7545	0.0028	0.415
Mof_O 	O 	0.4441	0.7863	0.0089	-0.43
Mof_O 	O 	0.3007	0.7239	0.0393	-0.388
Mof_O 	O 	0.2228	0.5578	0.9926	-0.371
Mof_C 	C 	0.2164	0.6368	0.0077	0.029
Mof_O 	O 	0.4419	0.7225	0.9926	-0.373
Mof_H 	H 	0.2046	0.616	0.0623	0.13
Mof_H 	H 	0.27	0.6224	0.0331	0.156
Mof_H 	H 	0.273	0.6282	0.9877	0.207
Mof_H 	H 	0.2023	0.6302	0.9845	0.086
Mof_O 	O 	0.146	0.8625	0.0127	-0.226
Mof_O 	O 	0.1948	0.766	0.9744	-0.363
Mof_C 	C 	0.4003	0.8577	0.0878	-0.024
Mof_H 	H 	0.4072	0.8362	0.0727	0.052
Mof_C 	C 	0.1173	0.7433	0.0079	-0.446
Mof_H 	H 	0.1282	0.7279	0.9868	0.215
Mof_H 	H 	0.123	0.7298	0.0323	0.18
Mof_N 	N 	0.3061	0.8746	0.0413	-0.21
Mof_O 	O 	0.2136	0.9445	0.0088	-0.418
Mof_C 	C 	0.3674	0.8799	0.0776	-0.041
Mof_C 	C 	0.1203	0.8678	0.077	-0.049
Mof_O 	O 	0.2663	0.8046	0.9745	-0.372
Mof_C 	C 	0.1317	0.8452	0.0414	0.216
Mof_N 	N 	0.1254	0.8066	0.0415	-0.219
Mof_H 	H 	0.1144	0.7957	0.0613	0.135
Mof_C 	C 	0.137	0.7832	0.0085	0.041
Mof_H 	H 	0.1297	0.7972	0.9846	0.082
Mof_C 	C 	0.2438	0.8827	0.0074	-0.405
Mof_C 	C 	0.0873	0.8575	0.1001	-0.018
Mof_H 	H 	0.0725	0.8356	0.0934	0.048
Mof_C 	C 	0.1811	0.7754	0.0071	0.277
Mof_O 	O 	0.3622	0.8543	0.0126	-0.222
Mof_C 	C 	0.2754	0.8183	0.007	0.295
Mof_C 	C 	0.2454	0.9263	0.003	0.399
Mof_C 	C 	0.3451	0.8685	0.0415	0.208
Mof_O 	O 	0.2763	0.80075	0.039	-0.395
Mof_C 	C 	0.0735	0.7455	0.0028	0.416
Mof_O 	O 	0.0559	0.7137	0.0089	-0.435
Mof_O 	O 	0.1993	0.7761	0.0393	-0.388
Mof_O 	O 	0.2772	0.9422	0.9926	-0.36
Mof_C 	C 	0.2836	0.8632	0.0077	0.027
Mof_O 	O 	0.0581	0.7775	0.9926	-0.378
Mof_H 	H 	0.2954	0.884	0.0623	0.13
Mof_H 	H 	0.23	0.8776	0.0331	0.155
Mof_H 	H 	0.227	0.8718	0.9877	0.206
Mof_H 	H 	0.2977	0.8698	0.9845	0.088
Mof_O 	O 	0.146	0.3625	0.5127	-0.216
Mof_O 	O 	0.1948	0.266	0.4744	-0.388
Mof_C 	C 	0.4003	0.3577	0.5878	-0.024
Mof_H 	H 	0.4072	0.3362	0.5727	0.053
Mof_C 	C 	0.1173	0.2433	0.5079	-0.406
Mof_H 	H 	0.1282	0.2279	0.4868	0.182
Mof_H 	H 	0.123	0.2298	0.5323	0.169
Mof_N 	N 	0.3061	0.3746	0.5413	-0.212
Mof_O 	O 	0.2136	0.4445	0.5088	-0.426
Mof_C 	C 	0.3674	0.3799	0.5776	-0.04
Mof_C 	C 	0.1203	0.3678	0.577	-0.048
Mof_O 	O 	0.2663	0.3046	0.4745	-0.398
Mof_C 	C 	0.1317	0.3452	0.5414	0.218
Mof_N 	N 	0.1254	0.3066	0.5415	-0.22
Mof_H 	H 	0.1144	0.2957	0.5613	0.135
Mof_C 	C 	0.137	0.2832	0.5085	0.061
Mof_H 	H 	0.1297	0.2972	0.4846	0.056
Mof_C 	C 	0.2438	0.3827	0.5074	-0.371
Mof_C 	C 	0.0873	0.3575	0.6001	-0.017
Mof_H 	H 	0.0725	0.3356	0.5934	0.049
Mof_C 	C 	0.1811	0.2754	0.5071	0.307
Mof_O 	O 	0.3622	0.3543	0.5126	-0.212
Mof_C 	C 	0.2754	0.3183	0.507	0.325
Mof_C 	C 	0.2454	0.4263	0.503	0.428
Mof_C 	C 	0.3451	0.3685	0.5415	0.21
Mof_O 	O 	0.2763	0.30075	0.539	-0.4
Mof_C 	C 	0.0735	0.2455	0.5028	0.441
Mof_O 	O 	0.0559	0.2137	0.5089	-0.433
Mof_O 	O 	0.1993	0.2761	0.5393	-0.392
Mof_O 	O 	0.2772	0.4422	0.4926	-0.404
Mof_C 	C 	0.2836	0.3632	0.5077	0.052
Mof_O 	O 	0.0581	0.2775	0.4926	-0.412
Mof_H 	H 	0.2954	0.384	0.5623	0.13
Mof_H 	H 	0.23	0.3776	0.5331	0.147
Mof_H 	H 	0.227	0.3718	0.4877	0.174
Mof_H 	H 	0.2977	0.3698	0.4845	0.059
Mof_O 	O 	0.646	0.8625	0.5127	-0.213
Mof_O 	O 	0.6948	0.766	0.4744	-0.387
Mof_C 	C 	0.9003	0.8577	0.5878	-0.024
Mof_H 	H 	0.9072	0.8362	0.5727	0.055
Mof_C 	C 	0.6173	0.7433	0.5079	-0.404
Mof_H 	H 	0.6282	0.7279	0.4868	0.182
Mof_H 	H 	0.623	0.7298	0.5323	0.169
Mof_N 	N 	0.8061	0.8746	0.5413	-0.211
Mof_O 	O 	0.7136	0.9445	0.5088	-0.414
Mof_C 	C 	0.8674	0.8799	0.5776	-0.038
Mof_C 	C 	0.6203	0.8678	0.577	-0.045
Mof_O 	O 	0.7663	0.8046	0.4745	-0.397
Mof_C 	C 	0.6317	0.8452	0.5414	0.218
Mof_N 	N 	0.6254	0.8066	0.5415	-0.22
Mof_H 	H 	0.6144	0.7957	0.5613	0.135
Mof_C 	C 	0.637	0.7832	0.5085	0.06
Mof_H 	H 	0.6297	0.7972	0.4846	0.058
Mof_C 	C 	0.7438	0.8827	0.5074	-0.367
Mof_C 	C 	0.5873	0.8575	0.6001	-0.017
Mof_H 	H 	0.5725	0.8356	0.5934	0.051
Mof_C 	C 	0.6811	0.7754	0.5071	0.307
Mof_O 	O 	0.8622	0.8543	0.5126	-0.209
Mof_C 	C 	0.7754	0.8183	0.507	0.325
Mof_C 	C 	0.7454	0.9263	0.503	0.424
Mof_C 	C 	0.8451	0.8685	0.5415	0.21
Mof_O 	O 	0.7763	0.80075	0.539	-0.4
Mof_C 	C 	0.5735	0.7455	0.5028	0.439
Mof_O 	O 	0.5559	0.7137	0.5089	-0.428
Mof_O 	O 	0.6993	0.7761	0.5393	-0.393
Mof_O 	O 	0.7772	0.9422	0.4926	-0.392
Mof_C 	C 	0.7836	0.8632	0.5077	0.05
Mof_O 	O 	0.5581	0.7775	0.4926	-0.406
Mof_H 	H 	0.7954	0.884	0.5623	0.13
Mof_H 	H 	0.73	0.8776	0.5331	0.146
Mof_H 	H 	0.727	0.8718	0.4877	0.174
Mof_H 	H 	0.7977	0.8698	0.4845	0.062
Mof_O 	O 	0.646	0.3625	0.0127	-0.226
Mof_O 	O 	0.6948	0.266	0.9744	-0.363
Mof_C 	C 	0.9003	0.3577	0.0878	-0.024
Mof_H 	H 	0.9072	0.3362	0.0727	0.054
Mof_C 	C 	0.6173	0.2433	0.0079	-0.445
Mof_H 	H 	0.6282	0.2279	0.9868	0.215
Mof_H 	H 	0.623	0.2298	0.0323	0.18
Mof_N 	N 	0.8061	0.3746	0.0413	-0.21
Mof_O 	O 	0.7136	0.4445	0.0088	-0.428
Mof_C 	C 	0.8674	0.3799	0.0776	-0.041
Mof_C 	C 	0.6203	0.3678	0.077	-0.049
Mof_O 	O 	0.7663	0.3046	0.9745	-0.372
Mof_C 	C 	0.6317	0.3452	0.0414	0.216
Mof_N 	N 	0.6254	0.3066	0.0415	-0.219
Mof_H 	H 	0.6144	0.2957	0.0613	0.135
Mof_C 	C 	0.637	0.2832	0.0085	0.041
Mof_H 	H 	0.6297	0.2972	0.9846	0.083
Mof_C 	C 	0.7438	0.3827	0.0074	-0.408
Mof_C 	C 	0.5873	0.3575	0.1001	-0.017
Mof_H 	H 	0.5725	0.3356	0.0934	0.049
Mof_C 	C 	0.6811	0.2754	0.0071	0.277
Mof_O 	O 	0.8622	0.3543	0.0126	-0.222
Mof_C 	C 	0.7754	0.3183	0.007	0.295
Mof_C 	C 	0.7454	0.4263	0.003	0.403
Mof_C 	C 	0.8451	0.3685	0.0415	0.208
Mof_O 	O 	0.7763	0.30075	0.039	-0.395
Mof_C 	C 	0.5735	0.2455	0.0028	0.415
Mof_O 	O 	0.5559	0.2137	0.0089	-0.431
Mof_O 	O 	0.6993	0.2761	0.0393	-0.388
Mof_O 	O 	0.7772	0.4422	0.9926	-0.37
Mof_C 	C 	0.7836	0.3632	0.0077	0.028
Mof_O 	O 	0.5581	0.2775	0.9926	-0.373
Mof_H 	H 	0.7954	0.384	0.0623	0.129
Mof_H 	H 	0.73	0.3776	0.0331	0.156
Mof_H 	H 	0.727	0.3718	0.9877	0.207
Mof_H 	H 	0.7977	0.3698	0.9845	0.087
Mof_O 	O 	0.146	0.1375	0.9873	-0.206
Mof_O 	O 	0.1948	0.234	0.0256	-0.413
Mof_C 	C 	0.4003	0.1423	0.9122	-0.024
Mof_H 	H 	0.4072	0.1638	0.9273	0.054
Mof_C 	C 	0.1173	0.2567	0.9921	-0.364
Mof_H 	H 	0.1282	0.2721	0.0132	0.148
Mof_H 	H 	0.123	0.2702	0.9677	0.158
Mof_N 	N 	0.3061	0.1254	0.9587	-0.214
Mof_O 	O 	0.2136	0.0555	0.9912	-0.422
Mof_C 	C 	0.3674	0.1201	0.9224	-0.039
Mof_C 	C 	0.1203	0.1322	0.923	-0.047
Mof_O 	O 	0.2663	0.1954	0.0255	-0.423
Mof_C 	C 	0.1317	0.1548	0.9586	0.22
Mof_N 	N 	0.1254	0.1934	0.9585	-0.221
Mof_H 	H 	0.1144	0.2043	0.9387	0.135
Mof_C 	C 	0.137	0.2168	0.9915	0.081
Mof_H 	H 	0.1297	0.2028	0.0154	0.031
Mof_C 	C 	0.2438	0.1173	0.9926	-0.333
Mof_C 	C 	0.0873	0.1425	0.8999	-0.017
Mof_H 	H 	0.0725	0.1644	0.9066	0.05
Mof_C 	C 	0.1811	0.2246	0.9929	0.338
Mof_O 	O 	0.3622	0.1457	0.9874	-0.202
Mof_C 	C 	0.2754	0.1817	0.993	0.356
Mof_C 	C 	0.2454	0.0737	0.997	0.453
Mof_C 	C 	0.3451	0.1315	0.9585	0.211
Mof_O 	O 	0.2763	0.19925	0.961	-0.405
Mof_C 	C 	0.0735	0.2545	0.9972	0.465
Mof_O 	O 	0.0559	0.2863	0.9911	-0.424
Mof_O 	O 	0.1993	0.2239	0.9607	-0.397
Mof_O 	O 	0.2772	0.0578	0.0074	-0.437
Mof_C 	C 	0.2836	0.1368	0.9923	0.076
Mof_O 	O 	0.0581	0.2225	0.0074	-0.44
Mof_H 	H 	0.2954	0.116	0.9377	0.13
Mof_H 	H 	0.23	0.1224	0.9669	0.138
Mof_H 	H 	0.227	0.1282	0.0123	0.14
Mof_H 	H 	0.2977	0.1302	0.0155	0.031
Mof_O 	O 	0.146	0.6375	0.4873	-0.216
Mof_O 	O 	0.1948	0.734	0.5256	-0.388
Mof_C 	C 	0.4003	0.6423	0.4122	-0.024
Mof_H 	H 	0.4072	0.6638	0.4273	0.053
Mof_C 	C 	0.1173	0.7567	0.4921	-0.406
Mof_H 	H 	0.1282	0.7721	0.5132	0.182
Mof_H 	H 	0.123	0.7702	0.4677	0.169
Mof_N 	N 	0.3061	0.6254	0.4587	-0.212
Mof_O 	O 	0.2136	0.5555	0.4912	-0.426
Mof_C 	C 	0.3674	0.6201	0.4224	-0.04
Mof_C 	C 	0.1203	0.6322	0.423	-0.048
Mof_O 	O 	0.2663	0.6954	0.5255	-0.398
Mof_C 	C 	0.1317	0.6548	0.4586	0.218
Mof_N 	N 	0.1254	0.6934	0.4585	-0.22
Mof_H 	H 	0.1144	0.7043	0.4387	0.135
Mof_C 	C 	0.137	0.7168	0.4915	0.061
Mof_H 	H 	0.1297	0.7028	0.5154	0.056
Mof_C 	C 	0.2438	0.6173	0.4926	-0.371
Mof_C 	C 	0.0873	0.6425	0.3999	-0.017
Mof_H 	H 	0.0725	0.6644	0.4066	0.049
Mof_C 	C 	0.1811	0.7246	0.4929	0.307
Mof_O 	O 	0.3622	0.6457	0.4874	-0.212
Mof_C 	C 	0.2754	0.6817	0.493	0.325
Mof_C 	C 	0.2454	0.5737	0.497	0.428
Mof_C 	C 	0.3451	0.6315	0.4585	0.21
Mof_O 	O 	0.2763	0.69925	0.461	-0.4
Mof_C 	C 	0.0735	0.7545	0.4972	0.441
Mof_O 	O 	0.0559	0.7863	0.4911	-0.432
Mof_O 	O 	0.1993	0.7239	0.4607	-0.392
Mof_O 	O 	0.2772	0.5578	0.5074	-0.404
Mof_C 	C 	0.2836	0.6368	0.4923	0.052
Mof_O 	O 	0.0581	0.7225	0.5074	-0.412
Mof_H 	H 	0.2954	0.616	0.4377	0.13
Mof_H 	H 	0.23	0.6224	0.4669	0.147
Mof_H 	H 	0.227	0.6282	0.5123	0.174
Mof_H 	H 	0.2977	0.6302	0.5155	0.059
Mof_O 	O 	0.646	0.1375	0.4873	-0.217
Mof_O 	O 	0.6948	0.234	0.5256	-0.387
Mof_C 	C 	0.9003	0.1423	0.4122	-0.024
Mof_H 	H 	0.9072	0.1638	0.4273	0.054
Mof_C 	C 	0.6173	0.2567	0.4921	-0.405
Mof_H 	H 	0.6282	0.2721	0.5132	0.182
Mof_H 	H 	0.623	0.2702	0.4677	0.169
Mof_N 	N 	0.8061	0.1254	0.4587	-0.212
Mof_O 	O 	0.7136	0.0555	0.4912	-0.43
Mof_C 	C 	0.8674	0.1201	0.4224	-0.04
Mof_C 	C 	0.6203	0.1322	0.423	-0.048
Mof_O 	O 	0.7663	0.1954	0.5255	-0.398
Mof_C 	C 	0.6317	0.1548	0.4586	0.218
Mof_N 	N 	0.6254	0.1934	0.4585	-0.22
Mof_H 	H 	0.6144	0.2043	0.4387	0.135
Mof_C 	C 	0.637	0.2168	0.4915	0.061
Mof_H 	H 	0.6297	0.2028	0.5154	0.057
Mof_C 	C 	0.7438	0.1173	0.4926	-0.372
Mof_C 	C 	0.5873	0.1425	0.3999	-0.017
Mof_H 	H 	0.5725	0.1644	0.4066	0.05
Mof_C 	C 	0.6811	0.2246	0.4929	0.307
Mof_O 	O 	0.8622	0.1457	0.4874	-0.212
Mof_C 	C 	0.7754	0.1817	0.493	0.325
Mof_C 	C 	0.7454	0.0737	0.497	0.429
Mof_C 	C 	0.8451	0.1315	0.4585	0.209
Mof_O 	O 	0.7763	0.19925	0.461	-0.4
Mof_C 	C 	0.5735	0.2545	0.4972	0.44
Mof_O 	O 	0.5559	0.2863	0.4911	-0.428
Mof_O 	O 	0.6993	0.2239	0.4607	-0.392
Mof_O 	O 	0.7772	0.0578	0.5074	-0.408
Mof_C 	C 	0.7836	0.1368	0.4923	0.053
Mof_O 	O 	0.5581	0.2225	0.5074	-0.407
Mof_H 	H 	0.7954	0.116	0.4377	0.13
Mof_H 	H 	0.73	0.1224	0.4669	0.147
Mof_H 	H 	0.727	0.1282	0.5123	0.174
Mof_H 	H 	0.7977	0.1302	0.5155	0.058
Mof_O 	O 	0.646	0.6375	0.9873	-0.203
Mof_O 	O 	0.6948	0.734	0.0256	-0.412
Mof_C 	C 	0.9003	0.6423	0.9122	-0.024
Mof_H 	H 	0.9072	0.6638	0.9273	0.056
Mof_C 	C 	0.6173	0.7567	0.9921	-0.362
Mof_H 	H 	0.6282	0.7721	0.0132	0.149
Mof_H 	H 	0.623	0.7702	0.9677	0.157
Mof_N 	N 	0.8061	0.6254	0.9587	-0.213
Mof_O 	O 	0.7136	0.5555	0.9912	-0.416
Mof_C 	C 	0.8674	0.6201	0.9224	-0.037
Mof_C 	C 	0.6203	0.6322	0.923	-0.045
Mof_O 	O 	0.7663	0.6954	0.0255	-0.422
Mof_C 	C 	0.6317	0.6548	0.9586	0.22
Mof_N 	N 	0.6254	0.6934	0.9585	-0.221
Mof_H 	H 	0.6144	0.7043	0.9387	0.135
Mof_C 	C 	0.637	0.7168	0.9915	0.08
Mof_H 	H 	0.6297	0.7028	0.0154	0.033
Mof_C 	C 	0.7438	0.6173	0.9926	-0.331
Mof_C 	C 	0.5873	0.6425	0.8999	-0.017
Mof_H 	H 	0.5725	0.6644	0.9066	0.052
Mof_C 	C 	0.6811	0.7246	0.9929	0.338
Mof_O 	O 	0.8622	0.6457	0.9874	-0.199
Mof_C 	C 	0.7754	0.6817	0.993	0.355
Mof_C 	C 	0.7454	0.5737	0.997	0.451
Mof_C 	C 	0.8451	0.6315	0.9585	0.211
Mof_O 	O 	0.7763	0.69925	0.961	-0.405
Mof_C 	C 	0.5735	0.7545	0.9972	0.462
Mof_O 	O 	0.5559	0.7863	0.9911	-0.419
Mof_O 	O 	0.6993	0.7239	0.9607	-0.397
Mof_O 	O 	0.7772	0.5578	0.0074	-0.431
Mof_C 	C 	0.7836	0.6368	0.9923	0.075
Mof_O 	O 	0.5581	0.7225	0.0074	-0.434
Mof_H 	H 	0.7954	0.616	0.9377	0.13
Mof_H 	H 	0.73	0.6224	0.9669	0.137
Mof_H 	H 	0.727	0.6282	0.0123	0.141
Mof_H 	H 	0.7977	0.6302	0.0155	0.033
Mof_O 	O 	0.854	0.8625	0.9873	-0.199
Mof_O 	O 	0.8052	0.766	0.0256	-0.411
Mof_C 	C 	0.5997	0.8577	0.9122	-0.024
Mof_H 	H 	0.5928	0.8362	0.9273	0.055
Mof_C 	C 	0.8827	0.7433	0.9921	-0.359
Mof_H 	H 	0.8718	0.7279	0.0132	0.149
Mof_H 	H 	0.877	0.7298	0.9677	0.157
Mof_N 	N 	0.6939	0.8746	0.9587	-0.213
Mof_O 	O 	0.7864	0.9445	0.9912	-0.405
Mof_C 	C 	0.6326	0.8799	0.9224	-0.037
Mof_C 	C 	0.8797	0.8678	0.923	-0.042
Mof_O 	O 	0.7337	0.8046	0.0255	-0.422
Mof_C 	C 	0.8683	0.8452	0.9586	0.22
Mof_N 	N 	0.8746	0.8066	0.9585	-0.22
Mof_H 	H 	0.8856	0.7957	0.9387	0.135
Mof_C 	C 	0.863	0.7832	0.9915	0.078
Mof_H 	H 	0.8703	0.7972	0.0154	0.035
Mof_C 	C 	0.7562	0.8827	0.9926	-0.329
Mof_C 	C 	0.9127	0.8575	0.8999	-0.017
Mof_H 	H 	0.9275	0.8356	0.9066	0.054
Mof_C 	C 	0.8189	0.7754	0.9929	0.338
Mof_O 	O 	0.6378	0.8543	0.9874	-0.199
Mof_C 	C 	0.7246	0.8183	0.993	0.356
Mof_C 	C 	0.7546	0.9263	0.997	0.447
Mof_C 	C 	0.6549	0.8685	0.9585	0.212
Mof_O 	O 	0.7237	0.80075	0.961	-0.405
Mof_C 	C 	0.9265	0.7455	0.9972	0.458
Mof_O 	O 	0.9441	0.7137	0.9911	-0.409
Mof_O 	O 	0.8007	0.7761	0.9607	-0.397
Mof_O 	O 	0.7228	0.9422	0.0074	-0.42
Mof_C 	C 	0.7164	0.8632	0.9923	0.074
Mof_O 	O 	0.9419	0.7775	0.0074	-0.422
Mof_H 	H 	0.7046	0.884	0.9377	0.13
Mof_H 	H 	0.77	0.8776	0.9669	0.137
Mof_H 	H 	0.773	0.8718	0.0123	0.141
Mof_H 	H 	0.7023	0.8698	0.0155	0.035
Mof_O 	O 	0.854	0.3625	0.4873	-0.213
Mof_O 	O 	0.8052	0.266	0.5256	-0.387
Mof_C 	C 	0.5997	0.3577	0.4122	-0.024
Mof_H 	H 	0.5928	0.3362	0.4273	0.053
Mof_C 	C 	0.8827	0.2433	0.4921	-0.401
Mof_H 	H 	0.8718	0.2279	0.5132	0.182
Mof_H 	H 	0.877	0.2298	0.4677	0.168
Mof_N 	N 	0.6939	0.3746	0.4587	-0.212
Mof_O 	O 	0.7864	0.4445	0.4912	-0.424
Mof_C 	C 	0.6326	0.3799	0.4224	-0.04
Mof_C 	C 	0.8797	0.3678	0.423	-0.045
Mof_O 	O 	0.7337	0.3046	0.5255	-0.397
Mof_C 	C 	0.8683	0.3452	0.4586	0.219
Mof_N 	N 	0.8746	0.3066	0.4585	-0.22
Mof_H 	H 	0.8856	0.2957	0.4387	0.135
Mof_C 	C 	0.863	0.2832	0.4915	0.059
Mof_H 	H 	0.8703	0.2972	0.5154	0.059
Mof_C 	C 	0.7562	0.3827	0.4926	-0.371
Mof_C 	C 	0.9127	0.3575	0.3999	-0.017
Mof_H 	H 	0.9275	0.3356	0.4066	0.052
Mof_C 	C 	0.8189	0.2754	0.4929	0.308
Mof_O 	O 	0.6378	0.3543	0.4874	-0.212
Mof_C 	C 	0.7246	0.3183	0.493	0.325
Mof_C 	C 	0.7546	0.4263	0.497	0.428
Mof_C 	C 	0.6549	0.3685	0.4585	0.21
Mof_O 	O 	0.7237	0.30075	0.461	-0.4
Mof_C 	C 	0.9265	0.2455	0.4972	0.436
Mof_O 	O 	0.9441	0.2137	0.4911	-0.418
Mof_O 	O 	0.8007	0.2761	0.4607	-0.392
Mof_O 	O 	0.7228	0.4422	0.5074	-0.404
Mof_C 	C 	0.7164	0.3632	0.4923	0.052
Mof_O 	O 	0.9419	0.2775	0.5074	-0.396
Mof_H 	H 	0.7046	0.384	0.4377	0.13
Mof_H 	H 	0.77	0.3776	0.4669	0.147
Mof_H 	H 	0.773	0.3718	0.5123	0.174
Mof_H 	H 	0.7023	0.3698	0.5155	0.059
Mof_O 	O 	0.354	0.8625	0.4873	-0.213
Mof_O 	O 	0.3052	0.766	0.5256	-0.387
Mof_C 	C 	0.0997	0.8577	0.4122	-0.024
Mof_H 	H 	0.0928	0.8362	0.4273	0.052
Mof_C 	C 	0.3827	0.7433	0.4921	-0.404
Mof_H 	H 	0.3718	0.7279	0.5132	0.182
Mof_H 	H 	0.377	0.7298	0.4677	0.169
Mof_N 	N 	0.1939	0.8746	0.4587	-0.212
Mof_O 	O 	0.2864	0.9445	0.4912	-0.414
Mof_C 	C 	0.1326	0.8799	0.4224	-0.04
Mof_C 	C 	0.3797	0.8678	0.423	-0.045
Mof_O 	O 	0.2337	0.8046	0.5255	-0.397
Mof_C 	C 	0.3683	0.8452	0.4586	0.218
Mof_N 	N 	0.3746	0.8066	0.4585	-0.22
Mof_H 	H 	0.3856	0.7957	0.4387	0.135
Mof_C 	C 	0.363	0.7832	0.4915	0.06
Mof_H 	H 	0.3703	0.7972	0.5154	0.058
Mof_C 	C 	0.2562	0.8827	0.4926	-0.368
Mof_C 	C 	0.4127	0.8575	0.3999	-0.017
Mof_H 	H 	0.4275	0.8356	0.4066	0.051
Mof_C 	C 	0.3189	0.7754	0.4929	0.307
Mof_O 	O 	0.1378	0.8543	0.4874	-0.212
Mof_C 	C 	0.2246	0.8183	0.493	0.325
Mof_C 	C 	0.2546	0.9263	0.497	0.424
Mof_C 	C 	0.1549	0.8685	0.4585	0.21
Mof_O 	O 	0.2237	0.80075	0.461	-0.4
Mof_C 	C 	0.4265	0.7455	0.4972	0.439
Mof_O 	O 	0.4441	0.7137	0.4911	-0.428
Mof_O 	O 	0.3007	0.7761	0.4607	-0.392
Mof_O 	O 	0.2228	0.9422	0.5074	-0.393
Mof_C 	C 	0.2164	0.8632	0.4923	0.051
Mof_O 	O 	0.4419	0.7775	0.5074	-0.406
Mof_H 	H 	0.2046	0.884	0.4377	0.13
Mof_H 	H 	0.27	0.8776	0.4669	0.146
Mof_H 	H 	0.273	0.8718	0.5123	0.174
Mof_H 	H 	0.2023	0.8698	0.5155	0.06
Mof_O 	O 	0.354	0.3625	0.9873	-0.203
Mof_O 	O 	0.3052	0.266	0.0256	-0.412
Mof_C 	C 	0.0997	0.3577	0.9122	-0.024
Mof_H 	H 	0.0928	0.3362	0.9273	0.054
Mof_C 	C 	0.3827	0.2433	0.9921	-0.362
Mof_H 	H 	0.3718	0.2279	0.0132	0.148
Mof_H 	H 	0.377	0.2298	0.9677	0.157
Mof_N 	N 	0.1939	0.3746	0.9587	-0.214
Mof_O 	O 	0.2864	0.4445	0.9912	-0.416
Mof_C 	C 	0.1326	0.3799	0.9224	-0.039
Mof_C 	C 	0.3797	0.3678	0.923	-0.045
Mof_O 	O 	0.2337	0.3046	0.0255	-0.423
Mof_C 	C 	0.3683	0.3452	0.9586	0.22
Mof_N 	N 	0.3746	0.3066	0.9585	-0.221
Mof_H 	H 	0.3856	0.2957	0.9387	0.135
Mof_C 	C 	0.363	0.2832	0.9915	0.08
Mof_H 	H 	0.3703	0.2972	0.0154	0.032
Mof_C 	C 	0.2562	0.3827	0.9926	-0.332
Mof_C 	C 	0.4127	0.3575	0.8999	-0.017
Mof_H 	H 	0.4275	0.3356	0.9066	0.052
Mof_C 	C 	0.3189	0.2754	0.9929	0.338
Mof_O 	O 	0.1378	0.3543	0.9874	-0.202
Mof_C 	C 	0.2246	0.3183	0.993	0.356
Mof_C 	C 	0.2546	0.4263	0.997	0.451
Mof_C 	C 	0.1549	0.3685	0.9585	0.212
Mof_O 	O 	0.2237	0.30075	0.961	-0.405
Mof_C 	C 	0.4265	0.2455	0.9972	0.463
Mof_O 	O 	0.4441	0.2137	0.9911	-0.42
Mof_O 	O 	0.3007	0.2761	0.9607	-0.397
Mof_O 	O 	0.2228	0.4422	0.0074	-0.432
Mof_C 	C 	0.2164	0.3632	0.9923	0.076
Mof_O 	O 	0.4419	0.2775	0.0074	-0.434
Mof_H 	H 	0.2046	0.384	0.9377	0.13
Mof_H 	H 	0.27	0.3776	0.9669	0.137
Mof_H 	H 	0.273	0.3718	0.0123	0.14
Mof_H 	H 	0.2023	0.3698	0.0155	0.032
Mof_O 	O 	0.0127	0.854	0.1375	-0.226
Mof_O 	O 	0.9744	0.8052	0.234	-0.362
Mof_C 	C 	0.0878	0.5997	0.1423	-0.024
Mof_H 	H 	0.0727	0.5928	0.1638	0.052
Mof_C 	C 	0.0079	0.8827	0.2567	-0.442
Mof_H 	H 	0.9868	0.8718	0.2721	0.215
Mof_H 	H 	0.0323	0.877	0.2702	0.179
Mof_N 	N 	0.0413	0.6939	0.1254	-0.211
Mof_O 	O 	0.0088	0.7864	0.0555	-0.432
Mof_C 	C 	0.0776	0.6326	0.1201	-0.043
Mof_C 	C 	0.077	0.8797	0.1322	-0.048
Mof_O 	O 	0.9745	0.7337	0.1954	-0.373
Mof_C 	C 	0.0414	0.8683	0.1548	0.217
Mof_N 	N 	0.0415	0.8746	0.1934	-0.219
Mof_H 	H 	0.0613	0.8856	0.2043	0.135
Mof_C 	C 	0.0085	0.863	0.2168	0.04
Mof_H 	H 	0.9846	0.8703	0.2028	0.083
Mof_C 	C 	0.0074	0.7562	0.1173	-0.41
Mof_C 	C 	0.1001	0.9127	0.1425	-0.017
Mof_H 	H 	0.0934	0.9275	0.1644	0.05
Mof_C 	C 	0.0071	0.8189	0.2246	0.277
Mof_O 	O 	0.0126	0.6378	0.1457	-0.225
Mof_C 	C 	0.007	0.7246	0.1817	0.294
Mof_C 	C 	0.003	0.7546	0.0737	0.404
Mof_C 	C 	0.0415	0.6549	0.1315	0.208
Mof_O 	O 	0.039	0.7237	0.19925	-0.395
Mof_C 	C 	0.0028	0.9265	0.2545	0.412
Mof_O 	O 	0.0089	0.9441	0.2863	-0.42
Mof_O 	O 	0.0393	0.8007	0.2239	-0.388
Mof_O 	O 	0.9926	0.7228	0.0578	-0.376
Mof_C 	C 	0.0077	0.7164	0.1368	0.029
Mof_O 	O 	0.9926	0.9419	0.2225	-0.363
Mof_H 	H 	0.0623	0.7046	0.116	0.129
Mof_H 	H 	0.0331	0.77	0.1224	0.156
Mof_H 	H 	0.9877	0.773	0.1282	0.207
Mof_H 	H 	0.9845	0.7023	0.1302	0.085
Mof_O 	O 	0.0127	0.354	0.6375	-0.226
Mof_O 	O 	0.9744	0.3052	0.734	-0.362
Mof_C 	C 	0.0878	0.0997	0.6423	-0.024
Mof_H 	H 	0.0727	0.0928	0.6638	0.051
Mof_C 	C 	0.0079	0.3827	0.7567	-0.445
Mof_H 	H 	0.9868	0.3718	0.7721	0.216
Mof_H 	H 	0.0323	0.377	0.7702	0.18
Mof_N 	N 	0.0413	0.1939	0.6254	-0.211
Mof_O 	O 	0.0088	0.2864	0.5555	-0.428
Mof_C 	C 	0.0776	0.1326	0.6201	-0.043
Mof_C 	C 	0.077	0.3797	0.6322	-0.049
Mof_O 	O 	0.9745	0.2337	0.6954	-0.373
Mof_C 	C 	0.0414	0.3683	0.6548	0.216
Mof_N 	N 	0.0415	0.3746	0.6934	-0.219
Mof_H 	H 	0.0613	0.3856	0.7043	0.135
Mof_C 	C 	0.0085	0.363	0.7168	0.041
Mof_H 	H 	0.9846	0.3703	0.7028	0.083
Mof_C 	C 	0.0074	0.2562	0.6173	-0.409
Mof_C 	C 	0.1001	0.4127	0.6425	-0.017
Mof_H 	H 	0.0934	0.4275	0.6644	0.049
Mof_C 	C 	0.0071	0.3189	0.7246	0.277
Mof_O 	O 	0.0126	0.1378	0.6457	-0.226
Mof_C 	C 	0.007	0.2246	0.6817	0.294
Mof_C 	C 	0.003	0.2546	0.5737	0.403
Mof_C 	C 	0.0415	0.1549	0.6315	0.208
Mof_O 	O 	0.039	0.2237	0.69925	-0.395
Mof_C 	C 	0.0028	0.4265	0.7545	0.415
Mof_O 	O 	0.0089	0.4441	0.7863	-0.43
Mof_O 	O 	0.0393	0.3007	0.7239	-0.388
Mof_O 	O 	0.9926	0.2228	0.5578	-0.371
Mof_C 	C 	0.0077	0.2164	0.6368	0.029
Mof_O 	O 	0.9926	0.4419	0.7225	-0.373
Mof_H 	H 	0.0623	0.2046	0.616	0.13
Mof_H 	H 	0.0331	0.27	0.6224	0.156
Mof_H 	H 	0.9877	0.273	0.6282	0.207
Mof_H 	H 	0.9845	0.2023	0.6302	0.086
Mof_O 	O 	0.5127	0.854	0.6375	-0.213
Mof_O 	O 	0.4744	0.8052	0.734	-0.387
Mof_C 	C 	0.5878	0.5997	0.6423	-0.024
Mof_H 	H 	0.5727	0.5928	0.6638	0.053
Mof_C 	C 	0.5079	0.8827	0.7567	-0.401
Mof_H 	H 	0.4868	0.8718	0.7721	0.182
Mof_H 	H 	0.5323	0.877	0.7702	0.168
Mof_N 	N 	0.5413	0.6939	0.6254	-0.212
Mof_O 	O 	0.5088	0.7864	0.5555	-0.424
Mof_C 	C 	0.5776	0.6326	0.6201	-0.04
Mof_C 	C 	0.577	0.8797	0.6322	-0.045
Mof_O 	O 	0.4745	0.7337	0.6954	-0.397
Mof_C 	C 	0.5414	0.8683	0.6548	0.218
Mof_N 	N 	0.5415	0.8746	0.6934	-0.22
Mof_H 	H 	0.5613	0.8856	0.7043	0.135
Mof_C 	C 	0.5085	0.863	0.7168	0.059
Mof_H 	H 	0.4846	0.8703	0.7028	0.059
Mof_C 	C 	0.5074	0.7562	0.6173	-0.371
Mof_C 	C 	0.6001	0.9127	0.6425	-0.017
Mof_H 	H 	0.5934	0.9275	0.6644	0.052
Mof_C 	C 	0.5071	0.8189	0.7246	0.307
Mof_O 	O 	0.5126	0.6378	0.6457	-0.212
Mof_C 	C 	0.507	0.7246	0.6817	0.325
Mof_C 	C 	0.503	0.7546	0.5737	0.428
Mof_C 	C 	0.5415	0.6549	0.6315	0.21
Mof_O 	O 	0.539	0.7237	0.69925	-0.4
Mof_C 	C 	0.5028	0.9265	0.7545	0.436
Mof_O 	O 	0.5089	0.9441	0.7863	-0.417
Mof_O 	O 	0.5393	0.8007	0.7239	-0.393
Mof_O 	O 	0.4926	0.7228	0.5578	-0.404
Mof_C 	C 	0.5077	0.7164	0.6368	0.052
Mof_O 	O 	0.4926	0.9419	0.7225	-0.396
Mof_H 	H 	0.5623	0.7046	0.616	0.13
Mof_H 	H 	0.5331	0.77	0.6224	0.147
Mof_H 	H 	0.4877	0.773	0.6282	0.174
Mof_H 	H 	0.4845	0.7023	0.6302	0.059
Mof_O 	O 	0.5127	0.354	0.1375	-0.217
Mof_O 	O 	0.4744	0.3052	0.234	-0.388
Mof_C 	C 	0.5878	0.0997	0.1423	-0.024
Mof_H 	H 	0.5727	0.0928	0.1638	0.052
Mof_C 	C 	0.5079	0.3827	0.2567	-0.405
Mof_H 	H 	0.4868	0.3718	0.2721	0.182
Mof_H 	H 	0.5323	0.377	0.2702	0.169
Mof_N 	N 	0.5413	0.1939	0.1254	-0.213
Mof_O 	O 	0.5088	0.2864	0.0555	-0.43
Mof_C 	C 	0.5776	0.1326	0.1201	-0.043
Mof_C 	C 	0.577	0.3797	0.1322	-0.048
Mof_O 	O 	0.4745	0.2337	0.1954	-0.398
Mof_C 	C 	0.5414	0.3683	0.1548	0.218
Mof_N 	N 	0.5415	0.3746	0.1934	-0.22
Mof_H 	H 	0.5613	0.3856	0.2043	0.135
Mof_C 	C 	0.5085	0.363	0.2168	0.061
Mof_H 	H 	0.4846	0.3703	0.2028	0.057
Mof_C 	C 	0.5074	0.2562	0.1173	-0.373
Mof_C 	C 	0.6001	0.4127	0.1425	-0.017
Mof_H 	H 	0.5934	0.4275	0.1644	0.05
Mof_C 	C 	0.5071	0.3189	0.2246	0.307
Mof_O 	O 	0.5126	0.1378	0.1457	-0.216
Mof_C 	C 	0.507	0.2246	0.1817	0.325
Mof_C 	C 	0.503	0.2546	0.0737	0.43
Mof_C 	C 	0.5415	0.1549	0.1315	0.209
Mof_O 	O 	0.539	0.2237	0.19925	-0.4
Mof_C 	C 	0.5028	0.4265	0.2545	0.44
Mof_O 	O 	0.5089	0.4441	0.2863	-0.428
Mof_O 	O 	0.5393	0.3007	0.2239	-0.392
Mof_O 	O 	0.4926	0.2228	0.0578	-0.41
Mof_C 	C 	0.5077	0.2164	0.1368	0.053
Mof_O 	O 	0.4926	0.4419	0.2225	-0.407
Mof_H 	H 	0.5623	0.2046	0.116	0.13
Mof_H 	H 	0.5331	0.27	0.1224	0.147
Mof_H 	H 	0.4877	0.273	0.1282	0.174
Mof_H 	H 	0.4845	0.2023	0.1302	0.057
Mof_O 	O 	0.0127	0.146	0.8625	-0.226
Mof_O 	O 	0.9744	0.1948	0.766	-0.363
Mof_C 	C 	0.0878	0.4003	0.8577	-0.024
Mof_H 	H 	0.0727	0.4072	0.8362	0.052
Mof_C 	C 	0.0079	0.1173	0.7433	-0.446
Mof_H 	H 	0.9868	0.1282	0.7279	0.215
Mof_H 	H 	0.0323	0.123	0.7298	0.18
Mof_N 	N 	0.0413	0.3061	0.8746	-0.21
Mof_O 	O 	0.0088	0.2136	0.9445	-0.418
Mof_C 	C 	0.0776	0.3674	0.8799	-0.041
Mof_C 	C 	0.077	0.1203	0.8678	-0.049
Mof_O 	O 	0.9745	0.2663	0.8046	-0.372
Mof_C 	C 	0.0414	0.1317	0.8452	0.216
Mof_N 	N 	0.0415	0.1254	0.8066	-0.219
Mof_H 	H 	0.0613	0.1144	0.7957	0.135
Mof_C 	C 	0.0085	0.137	0.7832	0.041
Mof_H 	H 	0.9846	0.1297	0.7972	0.082
Mof_C 	C 	0.0074	0.2438	0.8827	-0.405
Mof_C 	C 	0.1001	0.0873	0.8575	-0.018
Mof_H 	H 	0.0934	0.0725	0.8356	0.048
Mof_C 	C 	0.0071	0.1811	0.7754	0.277
Mof_O 	O 	0.0126	0.3622	0.8543	-0.222
Mof_C 	C 	0.007	0.2754	0.8183	0.295
Mof_C 	C 	0.003	0.2454	0.9263	0.399
Mof_C 	C 	0.0415	0.3451	0.8685	0.208
Mof_O 	O 	0.039	0.2763	0.80075	-0.395
Mof_C 	C 	0.0028	0.0735	0.7455	0.416
Mof_O 	O 	0.0089	0.0559	0.7137	-0.435
Mof_O 	O 	0.0393	0.1993	0.7761	-0.388
Mof_O 	O 	0.9926	0.2772	0.9422	-0.36
Mof_C 	C 	0.0077	0.2836	0.8632	0.027
Mof_O 	O 	0.9926	0.0581	0.7775	-0.378
Mof_H 	H 	0.0623	0.2954	0.884	0.13
Mof_H 	H 	0.0331	0.23	0.8776	0.155
Mof_H 	H 	0.9877	0.227	0.8718	0.206
Mof_H 	H 	0.9845	0.2977	0.8698	0.088
Mof_O 	O 	0.0127	0.646	0.3625	-0.226
Mof_O 	O 	0.9744	0.6948	0.266	-0.363
Mof_C 	C 	0.0878	0.9003	0.3577	-0.024
Mof_H 	H 	0.0727	0.9072	0.3362	0.054
Mof_C 	C 	0.0079	0.6173	0.2433	-0.445
Mof_H 	H 	0.9868	0.6282	0.2279	0.215
Mof_H 	H 	0.0323	0.623	0.2298	0.18
Mof_N 	N 	0.0413	0.8061	0.3746	-0.21
Mof_O 	O 	0.0088	0.7136	0.4445	-0.428
Mof_C 	C 	0.0776	0.8674	0.3799	-0.041
Mof_C 	C 	0.077	0.6203	0.3678	-0.049
Mof_O 	O 	0.9745	0.7663	0.3046	-0.372
Mof_C 	C 	0.0414	0.6317	0.3452	0.216
Mof_N 	N 	0.0415	0.6254	0.3066	-0.219
Mof_H 	H 	0.0613	0.6144	0.2957	0.135
Mof_C 	C 	0.0085	0.637	0.2832	0.041
Mof_H 	H 	0.9846	0.6297	0.2972	0.083
Mof_C 	C 	0.0074	0.7438	0.3827	-0.408
Mof_C 	C 	0.1001	0.5873	0.3575	-0.017
Mof_H 	H 	0.0934	0.5725	0.3356	0.049
Mof_C 	C 	0.0071	0.6811	0.2754	0.277
Mof_O 	O 	0.0126	0.8622	0.3543	-0.222
Mof_C 	C 	0.007	0.7754	0.3183	0.295
Mof_C 	C 	0.003	0.7454	0.4263	0.403
Mof_C 	C 	0.0415	0.8451	0.3685	0.208
Mof_O 	O 	0.039	0.7763	0.30075	-0.395
Mof_C 	C 	0.0028	0.5735	0.2455	0.415
Mof_O 	O 	0.0089	0.5559	0.2137	-0.431
Mof_O 	O 	0.0393	0.6993	0.2761	-0.388
Mof_O 	O 	0.9926	0.7772	0.4422	-0.37
Mof_C 	C 	0.0077	0.7836	0.3632	0.028
Mof_O 	O 	0.9926	0.5581	0.2775	-0.373
Mof_H 	H 	0.0623	0.7954	0.384	0.129
Mof_H 	H 	0.0331	0.73	0.3776	0.156
Mof_H 	H 	0.9877	0.727	0.3718	0.207
Mof_H 	H 	0.9845	0.7977	0.3698	0.087
Mof_O 	O 	0.5127	0.146	0.3625	-0.216
Mof_O 	O 	0.4744	0.1948	0.266	-0.388
Mof_C 	C 	0.5878	0.4003	0.3577	-0.024
Mof_H 	H 	0.5727	0.4072	0.3362	0.053
Mof_C 	C 	0.5079	0.1173	0.2433	-0.406
Mof_H 	H 	0.4868	0.1282	0.2279	0.182
Mof_H 	H 	0.5323	0.123	0.2298	0.169
Mof_N 	N 	0.5413	0.3061	0.3746	-0.212
Mof_O 	O 	0.5088	0.2136	0.4445	-0.426
Mof_C 	C 	0.5776	0.3674	0.3799	-0.04
Mof_C 	C 	0.577	0.1203	0.3678	-0.048
Mof_O 	O 	0.4745	0.2663	0.3046	-0.398
Mof_C 	C 	0.5414	0.1317	0.3452	0.218
Mof_N 	N 	0.5415	0.1254	0.3066	-0.22
Mof_H 	H 	0.5613	0.1144	0.2957	0.135
Mof_C 	C 	0.5085	0.137	0.2832	0.061
Mof_H 	H 	0.4846	0.1297	0.2972	0.056
Mof_C 	C 	0.5074	0.2438	0.3827	-0.371
Mof_C 	C 	0.6001	0.0873	0.3575	-0.017
Mof_H 	H 	0.5934	0.0725	0.3356	0.049
Mof_C 	C 	0.5071	0.1811	0.2754	0.307
Mof_O 	O 	0.5126	0.3622	0.3543	-0.212
Mof_C 	C 	0.507	0.2754	0.3183	0.325
Mof_C 	C 	0.503	0.2454	0.4263	0.428
Mof_C 	C 	0.5415	0.3451	0.3685	0.21
Mof_O 	O 	0.539	0.2763	0.30075	-0.4
Mof_C 	C 	0.5028	0.0735	0.2455	0.441
Mof_O 	O 	0.5089	0.0559	0.2137	-0.433
Mof_O 	O 	0.5393	0.1993	0.2761	-0.392
Mof_O 	O 	0.4926	0.2772	0.4422	-0.404
Mof_C 	C 	0.5077	0.2836	0.3632	0.052
Mof_O 	O 	0.4926	0.0581	0.2775	-0.412
Mof_H 	H 	0.5623	0.2954	0.384	0.13
Mof_H 	H 	0.5331	0.23	0.3776	0.147
Mof_H 	H 	0.4877	0.227	0.3718	0.174
Mof_H 	H 	0.4845	0.2977	0.3698	0.059
Mof_O 	O 	0.5127	0.646	0.8625	-0.213
Mof_O 	O 	0.4744	0.6948	0.766	-0.387
Mof_C 	C 	0.5878	0.9003	0.8577	-0.024
Mof_H 	H 	0.5727	0.9072	0.8362	0.055
Mof_C 	C 	0.5079	0.6173	0.7433	-0.404
Mof_H 	H 	0.4868	0.6282	0.7279	0.182
Mof_H 	H 	0.5323	0.623	0.7298	0.169
Mof_N 	N 	0.5413	0.8061	0.8746	-0.211
Mof_O 	O 	0.5088	0.7136	0.9445	-0.414
Mof_C 	C 	0.5776	0.8674	0.8799	-0.038
Mof_C 	C 	0.577	0.6203	0.8678	-0.045
Mof_O 	O 	0.4745	0.7663	0.8046	-0.397
Mof_C 	C 	0.5414	0.6317	0.8452	0.218
Mof_N 	N 	0.5415	0.6254	0.8066	-0.22
Mof_H 	H 	0.5613	0.6144	0.7957	0.135
Mof_C 	C 	0.5085	0.637	0.7832	0.06
Mof_H 	H 	0.4846	0.6297	0.7972	0.058
Mof_C 	C 	0.5074	0.7438	0.8827	-0.367
Mof_C 	C 	0.6001	0.5873	0.8575	-0.017
Mof_H 	H 	0.5934	0.5725	0.8356	0.051
Mof_C 	C 	0.5071	0.6811	0.7754	0.307
Mof_O 	O 	0.5126	0.8622	0.8543	-0.209
Mof_C 	C 	0.507	0.7754	0.8183	0.325
Mof_C 	C 	0.503	0.7454	0.9263	0.424
Mof_C 	C 	0.5415	0.8451	0.8685	0.21
Mof_O 	O 	0.539	0.7763	0.80075	-0.4
Mof_C 	C 	0.5028	0.5735	0.7455	0.439
Mof_O 	O 	0.5089	0.5559	0.7137	-0.428
Mof_O 	O 	0.5393	0.6993	0.7761	-0.393
Mof_O 	O 	0.4926	0.7772	0.9422	-0.392
Mof_C 	C 	0.5077	0.7836	0.8632	0.05
Mof_O 	O 	0.4926	0.5581	0.7775	-0.406
Mof_H 	H 	0.5623	0.7954	0.884	0.13
Mof_H 	H 	0.5331	0.73	0.8776	0.146
Mof_H 	H 	0.4877	0.727	0.8718	0.174
Mof_H 	H 	0.4845	0.7977	0.8698	0.062
Mof_O 	O 	0.9873	0.146	0.1375	-0.206
Mof_O 	O 	0.0256	0.1948	0.234	-0.413
Mof_C 	C 	0.9122	0.4003	0.1423	-0.024
Mof_H 	H 	0.9273	0.4072	0.1638	0.054
Mof_C 	C 	0.9921	0.1173	0.2567	-0.364
Mof_H 	H 	0.0132	0.1282	0.2721	0.148
Mof_H 	H 	0.9677	0.123	0.2702	0.158
Mof_N 	N 	0.9587	0.3061	0.1254	-0.214
Mof_O 	O 	0.9912	0.2136	0.0555	-0.422
Mof_C 	C 	0.9224	0.3674	0.1201	-0.039
Mof_C 	C 	0.923	0.1203	0.1322	-0.047
Mof_O 	O 	0.0255	0.2663	0.1954	-0.423
Mof_C 	C 	0.9586	0.1317	0.1548	0.22
Mof_N 	N 	0.9585	0.1254	0.1934	-0.221
Mof_H 	H 	0.9387	0.1144	0.2043	0.135
Mof_C 	C 	0.9915	0.137	0.2168	0.081
Mof_H 	H 	0.0154	0.1297	0.2028	0.031
Mof_C 	C 	0.9926	0.2438	0.1173	-0.333
Mof_C 	C 	0.8999	0.0873	0.1425	-0.017
Mof_H 	H 	0.9066	0.0725	0.1644	0.05
Mof_C 	C 	0.9929	0.1811	0.2246	0.338
Mof_O 	O 	0.9874	0.3622	0.1457	-0.202
Mof_C 	C 	0.993	0.2754	0.1817	0.356
Mof_C 	C 	0.997	0.2454	0.0737	0.453
Mof_C 	C 	0.9585	0.3451	0.1315	0.211
Mof_O 	O 	0.961	0.2763	0.19925	-0.405
Mof_C 	C 	0.9972	0.0735	0.2545	0.465
Mof_O 	O 	0.9911	0.0559	0.2863	-0.424
Mof_O 	O 	0.9607	0.1993	0.2239	-0.397
Mof_O 	O 	0.0074	0.2772	0.0578	-0.437
Mof_C 	C 	0.9923	0.2836	0.1368	0.076
Mof_O 	O 	0.0074	0.0581	0.2225	-0.44
Mof_H 	H 	0.9377	0.2954	0.116	0.13
Mof_H 	H 	0.9669	0.23	0.1224	0.138
Mof_H 	H 	0.0123	0.227	0.1282	0.14
Mof_H 	H 	0.0155	0.2977	0.1302	0.031
Mof_O 	O 	0.9873	0.646	0.6375	-0.203
Mof_O 	O 	0.0256	0.6948	0.734	-0.412
Mof_C 	C 	0.9122	0.9003	0.6423	-0.024
Mof_H 	H 	0.9273	0.9072	0.6638	0.056
Mof_C 	C 	0.9921	0.6173	0.7567	-0.362
Mof_H 	H 	0.0132	0.6282	0.7721	0.149
Mof_H 	H 	0.9677	0.623	0.7702	0.157
Mof_N 	N 	0.9587	0.8061	0.6254	-0.213
Mof_O 	O 	0.9912	0.7136	0.5555	-0.416
Mof_C 	C 	0.9224	0.8674	0.6201	-0.037
Mof_C 	C 	0.923	0.6203	0.6322	-0.045
Mof_O 	O 	0.0255	0.7663	0.6954	-0.422
Mof_C 	C 	0.9586	0.6317	0.6548	0.22
Mof_N 	N 	0.9585	0.6254	0.6934	-0.221
Mof_H 	H 	0.9387	0.6144	0.7043	0.135
Mof_C 	C 	0.9915	0.637	0.7168	0.08
Mof_H 	H 	0.0154	0.6297	0.7028	0.033
Mof_C 	C 	0.9926	0.7438	0.6173	-0.331
Mof_C 	C 	0.8999	0.5873	0.6425	-0.017
Mof_H 	H 	0.9066	0.5725	0.6644	0.052
Mof_C 	C 	0.9929	0.6811	0.7246	0.338
Mof_O 	O 	0.9874	0.8622	0.6457	-0.199
Mof_C 	C 	0.993	0.7754	0.6817	0.355
Mof_C 	C 	0.997	0.7454	0.5737	0.451
Mof_C 	C 	0.9585	0.8451	0.6315	0.211
Mof_O 	O 	0.961	0.7763	0.69925	-0.405
Mof_C 	C 	0.9972	0.5735	0.7545	0.462
Mof_O 	O 	0.9911	0.5559	0.7863	-0.419
Mof_O 	O 	0.9607	0.6993	0.7239	-0.397
Mof_O 	O 	0.0074	0.7772	0.5578	-0.431
Mof_C 	C 	0.9923	0.7836	0.6368	0.075
Mof_O 	O 	0.0074	0.5581	0.7225	-0.434
Mof_H 	H 	0.9377	0.7954	0.616	0.13
Mof_H 	H 	0.9669	0.73	0.6224	0.137
Mof_H 	H 	0.0123	0.727	0.6282	0.141
Mof_H 	H 	0.0155	0.7977	0.6302	0.033
Mof_O 	O 	0.4873	0.146	0.6375	-0.216
Mof_O 	O 	0.5256	0.1948	0.734	-0.388
Mof_C 	C 	0.4122	0.4003	0.6423	-0.024
Mof_H 	H 	0.4273	0.4072	0.6638	0.053
Mof_C 	C 	0.4921	0.1173	0.7567	-0.406
Mof_H 	H 	0.5132	0.1282	0.7721	0.182
Mof_H 	H 	0.4677	0.123	0.7702	0.169
Mof_N 	N 	0.4587	0.3061	0.6254	-0.212
Mof_O 	O 	0.4912	0.2136	0.5555	-0.426
Mof_C 	C 	0.4224	0.3674	0.6201	-0.04
Mof_C 	C 	0.423	0.1203	0.6322	-0.048
Mof_O 	O 	0.5255	0.2663	0.6954	-0.398
Mof_C 	C 	0.4586	0.1317	0.6548	0.218
Mof_N 	N 	0.4585	0.1254	0.6934	-0.22
Mof_H 	H 	0.4387	0.1144	0.7043	0.135
Mof_C 	C 	0.4915	0.137	0.7168	0.061
Mof_H 	H 	0.5154	0.1297	0.7028	0.056
Mof_C 	C 	0.4926	0.2438	0.6173	-0.371
Mof_C 	C 	0.3999	0.0873	0.6425	-0.017
Mof_H 	H 	0.4066	0.0725	0.6644	0.049
Mof_C 	C 	0.4929	0.1811	0.7246	0.307
Mof_O 	O 	0.4874	0.3622	0.6457	-0.212
Mof_C 	C 	0.493	0.2754	0.6817	0.325
Mof_C 	C 	0.497	0.2454	0.5737	0.428
Mof_C 	C 	0.4585	0.3451	0.6315	0.21
Mof_O 	O 	0.461	0.2763	0.69925	-0.4
Mof_C 	C 	0.4972	0.0735	0.7545	0.441
Mof_O 	O 	0.4911	0.0559	0.7863	-0.432
Mof_O 	O 	0.4607	0.1993	0.7239	-0.392
Mof_O 	O 	0.5074	0.2772	0.5578	-0.404
Mof_C 	C 	0.4923	0.2836	0.6368	0.052
Mof_O 	O 	0.5074	0.0581	0.7225	-0.412
Mof_H 	H 	0.4377	0.2954	0.616	0.13
Mof_H 	H 	0.4669	0.23	0.6224	0.147
Mof_H 	H 	0.5123	0.227	0.6282	0.174
Mof_H 	H 	0.5155	0.2977	0.6302	0.059
Mof_O 	O 	0.4873	0.646	0.1375	-0.217
Mof_O 	O 	0.5256	0.6948	0.234	-0.387
Mof_C 	C 	0.4122	0.9003	0.1423	-0.024
Mof_H 	H 	0.4273	0.9072	0.1638	0.054
Mof_C 	C 	0.4921	0.6173	0.2567	-0.405
Mof_H 	H 	0.5132	0.6282	0.2721	0.182
Mof_H 	H 	0.4677	0.623	0.2702	0.169
Mof_N 	N 	0.4587	0.8061	0.1254	-0.212
Mof_O 	O 	0.4912	0.7136	0.0555	-0.43
Mof_C 	C 	0.4224	0.8674	0.1201	-0.04
Mof_C 	C 	0.423	0.6203	0.1322	-0.048
Mof_O 	O 	0.5255	0.7663	0.1954	-0.398
Mof_C 	C 	0.4586	0.6317	0.1548	0.218
Mof_N 	N 	0.4585	0.6254	0.1934	-0.22
Mof_H 	H 	0.4387	0.6144	0.2043	0.135
Mof_C 	C 	0.4915	0.637	0.2168	0.061
Mof_H 	H 	0.5154	0.6297	0.2028	0.057
Mof_C 	C 	0.4926	0.7438	0.1173	-0.372
Mof_C 	C 	0.3999	0.5873	0.1425	-0.017
Mof_H 	H 	0.4066	0.5725	0.1644	0.05
Mof_C 	C 	0.4929	0.6811	0.2246	0.307
Mof_O 	O 	0.4874	0.8622	0.1457	-0.212
Mof_C 	C 	0.493	0.7754	0.1817	0.325
Mof_C 	C 	0.497	0.7454	0.0737	0.429
Mof_C 	C 	0.4585	0.8451	0.1315	0.209
Mof_O 	O 	0.461	0.7763	0.19925	-0.4
Mof_C 	C 	0.4972	0.5735	0.2545	0.44
Mof_O 	O 	0.4911	0.5559	0.2863	-0.428
Mof_O 	O 	0.4607	0.6993	0.2239	-0.392
Mof_O 	O 	0.5074	0.7772	0.0578	-0.408
Mof_C 	C 	0.4923	0.7836	0.1368	0.053
Mof_O 	O 	0.5074	0.5581	0.2225	-0.407
Mof_H 	H 	0.4377	0.7954	0.116	0.13
Mof_H 	H 	0.4669	0.73	0.1224	0.147
Mof_H 	H 	0.5123	0.727	0.1282	0.174
Mof_H 	H 	0.5155	0.7977	0.1302	0.058
Mof_O 	O 	0.9873	0.854	0.8625	-0.199
Mof_O 	O 	0.0256	0.8052	0.766	-0.411
Mof_C 	C 	0.9122	0.5997	0.8577	-0.024
Mof_H 	H 	0.9273	0.5928	0.8362	0.055
Mof_C 	C 	0.9921	0.8827	0.7433	-0.359
Mof_H 	H 	0.0132	0.8718	0.7279	0.149
Mof_H 	H 	0.9677	0.877	0.7298	0.157
Mof_N 	N 	0.9587	0.6939	0.8746	-0.213
Mof_O 	O 	0.9912	0.7864	0.9445	-0.405
Mof_C 	C 	0.9224	0.6326	0.8799	-0.037
Mof_C 	C 	0.923	0.8797	0.8678	-0.042
Mof_O 	O 	0.0255	0.7337	0.8046	-0.422
Mof_C 	C 	0.9586	0.8683	0.8452	0.22
Mof_N 	N 	0.9585	0.8746	0.8066	-0.22
Mof_H 	H 	0.9387	0.8856	0.7957	0.135
Mof_C 	C 	0.9915	0.863	0.7832	0.078
Mof_H 	H 	0.0154	0.8703	0.7972	0.035
Mof_C 	C 	0.9926	0.7562	0.8827	-0.329
Mof_C 	C 	0.8999	0.9127	0.8575	-0.017
Mof_H 	H 	0.9066	0.9275	0.8356	0.054
Mof_C 	C 	0.9929	0.8189	0.7754	0.338
Mof_O 	O 	0.9874	0.6378	0.8543	-0.199
Mof_C 	C 	0.993	0.7246	0.8183	0.356
Mof_C 	C 	0.997	0.7546	0.9263	0.447
Mof_C 	C 	0.9585	0.6549	0.8685	0.212
Mof_O 	O 	0.961	0.7237	0.80075	-0.405
Mof_C 	C 	0.9972	0.9265	0.7455	0.458
Mof_O 	O 	0.9911	0.9441	0.7137	-0.409
Mof_O 	O 	0.9607	0.8007	0.7761	-0.397
Mof_O 	O 	0.0074	0.7228	0.9422	-0.42
Mof_C 	C 	0.9923	0.7164	0.8632	0.074
Mof_O 	O 	0.0074	0.9419	0.7775	-0.422
Mof_H 	H 	0.9377	0.7046	0.884	0.13
Mof_H 	H 	0.9669	0.77	0.8776	0.137
Mof_H 	H 	0.0123	0.773	0.8718	0.141
Mof_H 	H 	0.0155	0.7023	0.8698	0.035
Mof_O 	O 	0.9873	0.354	0.3625	-0.203
Mof_O 	O 	0.0256	0.3052	0.266	-0.412
Mof_C 	C 	0.9122	0.0997	0.3577	-0.024
Mof_H 	H 	0.9273	0.0928	0.3362	0.054
Mof_C 	C 	0.9921	0.3827	0.2433	-0.362
Mof_H 	H 	0.0132	0.3718	0.2279	0.148
Mof_H 	H 	0.9677	0.377	0.2298	0.157
Mof_N 	N 	0.9587	0.1939	0.3746	-0.214
Mof_O 	O 	0.9912	0.2864	0.4445	-0.416
Mof_C 	C 	0.9224	0.1326	0.3799	-0.039
Mof_C 	C 	0.923	0.3797	0.3678	-0.045
Mof_O 	O 	0.0255	0.2337	0.3046	-0.423
Mof_C 	C 	0.9586	0.3683	0.3452	0.22
Mof_N 	N 	0.9585	0.3746	0.3066	-0.221
Mof_H 	H 	0.9387	0.3856	0.2957	0.135
Mof_C 	C 	0.9915	0.363	0.2832	0.08
Mof_H 	H 	0.0154	0.3703	0.2972	0.032
Mof_C 	C 	0.9926	0.2562	0.3827	-0.332
Mof_C 	C 	0.8999	0.4127	0.3575	-0.017
Mof_H 	H 	0.9066	0.4275	0.3356	0.052
Mof_C 	C 	0.9929	0.3189	0.2754	0.338
Mof_O 	O 	0.9874	0.1378	0.3543	-0.202
Mof_C 	C 	0.993	0.2246	0.3183	0.356
Mof_C 	C 	0.997	0.2546	0.4263	0.451
Mof_C 	C 	0.9585	0.1549	0.3685	0.212
Mof_O 	O 	0.961	0.2237	0.30075	-0.405
Mof_C 	C 	0.9972	0.4265	0.2455	0.463
Mof_O 	O 	0.9911	0.4441	0.2137	-0.42
Mof_O 	O 	0.9607	0.3007	0.2761	-0.397
Mof_O 	O 	0.0074	0.2228	0.4422	-0.432
Mof_C 	C 	0.9923	0.2164	0.3632	0.076
Mof_O 	O 	0.0074	0.4419	0.2775	-0.434
Mof_H 	H 	0.9377	0.2046	0.384	0.13
Mof_H 	H 	0.9669	0.27	0.3776	0.137
Mof_H 	H 	0.0123	0.273	0.3718	0.14
Mof_H 	H 	0.0155	0.2023	0.3698	0.032
Mof_O 	O 	0.4873	0.854	0.3625	-0.213
Mof_O 	O 	0.5256	0.8052	0.266	-0.387
Mof_C 	C 	0.4122	0.5997	0.3577	-0.024
Mof_H 	H 	0.4273	0.5928	0.3362	0.053
Mof_C 	C 	0.4921	0.8827	0.2433	-0.401
Mof_H 	H 	0.5132	0.8718	0.2279	0.182
Mof_H 	H 	0.4677	0.877	0.2298	0.168
Mof_N 	N 	0.4587	0.6939	0.3746	-0.212
Mof_O 	O 	0.4912	0.7864	0.4445	-0.424
Mof_C 	C 	0.4224	0.6326	0.3799	-0.04
Mof_C 	C 	0.423	0.8797	0.3678	-0.045
Mof_O 	O 	0.5255	0.7337	0.3046	-0.397
Mof_C 	C 	0.4586	0.8683	0.3452	0.219
Mof_N 	N 	0.4585	0.8746	0.3066	-0.22
Mof_H 	H 	0.4387	0.8856	0.2957	0.135
Mof_C 	C 	0.4915	0.863	0.2832	0.059
Mof_H 	H 	0.5154	0.8703	0.2972	0.059
Mof_C 	C 	0.4926	0.7562	0.3827	-0.371
Mof_C 	C 	0.3999	0.9127	0.3575	-0.017
Mof_H 	H 	0.4066	0.9275	0.3356	0.052
Mof_C 	C 	0.4929	0.8189	0.2754	0.308
Mof_O 	O 	0.4874	0.6378	0.3543	-0.212
Mof_C 	C 	0.493	0.7246	0.3183	0.325
Mof_C 	C 	0.497	0.7546	0.4263	0.428
Mof_C 	C 	0.4585	0.6549	0.3685	0.21
Mof_O 	O 	0.461	0.7237	0.30075	-0.4
Mof_C 	C 	0.4972	0.9265	0.2455	0.436
Mof_O 	O 	0.4911	0.9441	0.2137	-0.418
Mof_O 	O 	0.4607	0.8007	0.2761	-0.392
Mof_O 	O 	0.5074	0.7228	0.4422	-0.404
Mof_C 	C 	0.4923	0.7164	0.3632	0.052
Mof_O 	O 	0.5074	0.9419	0.2775	-0.396
Mof_H 	H 	0.4377	0.7046	0.384	0.13
Mof_H 	H 	0.4669	0.77	0.3776	0.147
Mof_H 	H 	0.5123	0.773	0.3718	0.174
Mof_H 	H 	0.5155	0.7023	0.3698	0.059
Mof_O 	O 	0.4873	0.354	0.8625	-0.213
Mof_O 	O 	0.5256	0.3052	0.766	-0.387
Mof_C 	C 	0.4122	0.0997	0.8577	-0.024
Mof_H 	H 	0.4273	0.0928	0.8362	0.052
Mof_C 	C 	0.4921	0.3827	0.7433	-0.404
Mof_H 	H 	0.5132	0.3718	0.7279	0.182
Mof_H 	H 	0.4677	0.377	0.7298	0.169
Mof_N 	N 	0.4587	0.1939	0.8746	-0.212
Mof_O 	O 	0.4912	0.2864	0.9445	-0.414
Mof_C 	C 	0.4224	0.1326	0.8799	-0.04
Mof_C 	C 	0.423	0.3797	0.8678	-0.045
Mof_O 	O 	0.5255	0.2337	0.8046	-0.397
Mof_C 	C 	0.4586	0.3683	0.8452	0.218
Mof_N 	N 	0.4585	0.3746	0.8066	-0.22
Mof_H 	H 	0.4387	0.3856	0.7957	0.135
Mof_C 	C 	0.4915	0.363	0.7832	0.06
Mof_H 	H 	0.5154	0.3703	0.7972	0.058
Mof_C 	C 	0.4926	0.2562	0.8827	-0.368
Mof_C 	C 	0.3999	0.4127	0.8575	-0.017
Mof_H 	H 	0.4066	0.4275	0.8356	0.051
Mof_C 	C 	0.4929	0.3189	0.7754	0.307
Mof_O 	O 	0.4874	0.1378	0.8543	-0.212
Mof_C 	C 	0.493	0.2246	0.8183	0.325
Mof_C 	C 	0.497	0.2546	0.9263	0.424
Mof_C 	C 	0.4585	0.1549	0.8685	0.21
Mof_O 	O 	0.461	0.2237	0.80075	-0.4
Mof_C 	C 	0.4972	0.4265	0.7455	0.439
Mof_O 	O 	0.4911	0.4441	0.7137	-0.428
Mof_O 	O 	0.4607	0.3007	0.7761	-0.392
Mof_O 	O 	0.5074	0.2228	0.9422	-0.393
Mof_C 	C 	0.4923	0.2164	0.8632	0.051
Mof_O 	O 	0.5074	0.4419	0.7775	-0.406
Mof_H 	H 	0.4377	0.2046	0.884	0.13
Mof_H 	H 	0.4669	0.27	0.8776	0.146
Mof_H 	H 	0.5123	0.273	0.8718	0.174
Mof_H 	H 	0.5155	0.2023	0.8698	0.06
Mof_O 	O 	0.1375	0.0127	0.854	-0.226
Mof_O 	O 	0.234	0.9744	0.8052	-0.362
Mof_C 	C 	0.1423	0.0878	0.5997	-0.024
Mof_H 	H 	0.1638	0.0727	0.5928	0.052
Mof_C 	C 	0.2567	0.0079	0.8827	-0.442
Mof_H 	H 	0.2721	0.9868	0.8718	0.215
Mof_H 	H 	0.2702	0.0323	0.877	0.179
Mof_N 	N 	0.1254	0.0413	0.6939	-0.211
Mof_O 	O 	0.0555	0.0088	0.7864	-0.432
Mof_C 	C 	0.1201	0.0776	0.6326	-0.043
Mof_C 	C 	0.1322	0.077	0.8797	-0.048
Mof_O 	O 	0.1954	0.9745	0.7337	-0.373
Mof_C 	C 	0.1548	0.0414	0.8683	0.217
Mof_N 	N 	0.1934	0.0415	0.8746	-0.219
Mof_H 	H 	0.2043	0.0613	0.8856	0.135
Mof_C 	C 	0.2168	0.0085	0.863	0.04
Mof_H 	H 	0.2028	0.9846	0.8703	0.083
Mof_C 	C 	0.1173	0.0074	0.7562	-0.41
Mof_C 	C 	0.1425	0.1001	0.9127	-0.017
Mof_H 	H 	0.1644	0.0934	0.9275	0.05
Mof_C 	C 	0.2246	0.0071	0.8189	0.277
Mof_O 	O 	0.1457	0.0126	0.6378	-0.225
Mof_C 	C 	0.1817	0.007	0.7246	0.294
Mof_C 	C 	0.0737	0.003	0.7546	0.404
Mof_C 	C 	0.1315	0.0415	0.6549	0.208
Mof_O 	O 	0.19925	0.039	0.7237	-0.395
Mof_C 	C 	0.2545	0.0028	0.9265	0.412
Mof_O 	O 	0.2863	0.0089	0.9441	-0.42
Mof_O 	O 	0.2239	0.0393	0.8007	-0.388
Mof_O 	O 	0.0578	0.9926	0.7228	-0.376
Mof_C 	C 	0.1368	0.0077	0.7164	0.029
Mof_O 	O 	0.2225	0.9926	0.9419	-0.363
Mof_H 	H 	0.116	0.0623	0.7046	0.129
Mof_H 	H 	0.1224	0.0331	0.77	0.156
Mof_H 	H 	0.1282	0.9877	0.773	0.207
Mof_H 	H 	0.1302	0.9845	0.7023	0.085
Mof_O 	O 	0.1375	0.5127	0.354	-0.217
Mof_O 	O 	0.234	0.4744	0.3052	-0.388
Mof_C 	C 	0.1423	0.5878	0.0997	-0.024
Mof_H 	H 	0.1638	0.5727	0.0928	0.052
Mof_C 	C 	0.2567	0.5079	0.3827	-0.405
Mof_H 	H 	0.2721	0.4868	0.3718	0.182
Mof_H 	H 	0.2702	0.5323	0.377	0.169
Mof_N 	N 	0.1254	0.5413	0.1939	-0.213
Mof_O 	O 	0.0555	0.5088	0.2864	-0.43
Mof_C 	C 	0.1201	0.5776	0.1326	-0.043
Mof_C 	C 	0.1322	0.577	0.3797	-0.048
Mof_O 	O 	0.1954	0.4745	0.2337	-0.398
Mof_C 	C 	0.1548	0.5414	0.3683	0.218
Mof_N 	N 	0.1934	0.5415	0.3746	-0.22
Mof_H 	H 	0.2043	0.5613	0.3856	0.135
Mof_C 	C 	0.2168	0.5085	0.363	0.061
Mof_H 	H 	0.2028	0.4846	0.3703	0.057
Mof_C 	C 	0.1173	0.5074	0.2562	-0.373
Mof_C 	C 	0.1425	0.6001	0.4127	-0.017
Mof_H 	H 	0.1644	0.5934	0.4275	0.05
Mof_C 	C 	0.2246	0.5071	0.3189	0.307
Mof_O 	O 	0.1457	0.5126	0.1378	-0.216
Mof_C 	C 	0.1817	0.507	0.2246	0.325
Mof_C 	C 	0.0737	0.503	0.2546	0.43
Mof_C 	C 	0.1315	0.5415	0.1549	0.209
Mof_O 	O 	0.19925	0.539	0.2237	-0.4
Mof_C 	C 	0.2545	0.5028	0.4265	0.44
Mof_O 	O 	0.2863	0.5089	0.4441	-0.428
Mof_O 	O 	0.2239	0.5393	0.3007	-0.392
Mof_O 	O 	0.0578	0.4926	0.2228	-0.41
Mof_C 	C 	0.1368	0.5077	0.2164	0.053
Mof_O 	O 	0.2225	0.4926	0.4419	-0.407
Mof_H 	H 	0.116	0.5623	0.2046	0.13
Mof_H 	H 	0.1224	0.5331	0.27	0.147
Mof_H 	H 	0.1282	0.4877	0.273	0.174
Mof_H 	H 	0.1302	0.4845	0.2023	0.057
Mof_O 	O 	0.6375	0.0127	0.354	-0.226
Mof_O 	O 	0.734	0.9744	0.3052	-0.362
Mof_C 	C 	0.6423	0.0878	0.0997	-0.024
Mof_H 	H 	0.6638	0.0727	0.0928	0.051
Mof_C 	C 	0.7567	0.0079	0.3827	-0.445
Mof_H 	H 	0.7721	0.9868	0.3718	0.216
Mof_H 	H 	0.7702	0.0323	0.377	0.18
Mof_N 	N 	0.6254	0.0413	0.1939	-0.211
Mof_O 	O 	0.5555	0.0088	0.2864	-0.428
Mof_C 	C 	0.6201	0.0776	0.1326	-0.043
Mof_C 	C 	0.6322	0.077	0.3797	-0.049
Mof_O 	O 	0.6954	0.9745	0.2337	-0.373
Mof_C 	C 	0.6548	0.0414	0.3683	0.216
Mof_N 	N 	0.6934	0.0415	0.3746	-0.219
Mof_H 	H 	0.7043	0.0613	0.3856	0.135
Mof_C 	C 	0.7168	0.0085	0.363	0.041
Mof_H 	H 	0.7028	0.9846	0.3703	0.083
Mof_C 	C 	0.6173	0.0074	0.2562	-0.409
Mof_C 	C 	0.6425	0.1001	0.4127	-0.017
Mof_H 	H 	0.6644	0.0934	0.4275	0.049
Mof_C 	C 	0.7246	0.0071	0.3189	0.277
Mof_O 	O 	0.6457	0.0126	0.1378	-0.226
Mof_C 	C 	0.6817	0.007	0.2246	0.294
Mof_C 	C 	0.5737	0.003	0.2546	0.403
Mof_C 	C 	0.6315	0.0415	0.1549	0.208
Mof_O 	O 	0.69925	0.039	0.2237	-0.395
Mof_C 	C 	0.7545	0.0028	0.4265	0.415
Mof_O 	O 	0.7863	0.0089	0.4441	-0.43
Mof_O 	O 	0.7239	0.0393	0.3007	-0.388
Mof_O 	O 	0.5578	0.9926	0.2228	-0.371
Mof_C 	C 	0.6368	0.0077	0.2164	0.029
Mof_O 	O 	0.7225	0.9926	0.4419	-0.373
Mof_H 	H 	0.616	0.0623	0.2046	0.13
Mof_H 	H 	0.6224	0.0331	0.27	0.156
Mof_H 	H 	0.6282	0.9877	0.273	0.207
Mof_H 	H 	0.6302	0.9845	0.2023	0.086
Mof_O 	O 	0.6375	0.5127	0.854	-0.213
Mof_O 	O 	0.734	0.4744	0.8052	-0.387
Mof_C 	C 	0.6423	0.5878	0.5997	-0.024
Mof_H 	H 	0.6638	0.5727	0.5928	0.053
Mof_C 	C 	0.7567	0.5079	0.8827	-0.401
Mof_H 	H 	0.7721	0.4868	0.8718	0.182
Mof_H 	H 	0.7702	0.5323	0.877	0.168
Mof_N 	N 	0.6254	0.5413	0.6939	-0.212
Mof_O 	O 	0.5555	0.5088	0.7864	-0.424
Mof_C 	C 	0.6201	0.5776	0.6326	-0.04
Mof_C 	C 	0.6322	0.577	0.8797	-0.045
Mof_O 	O 	0.6954	0.4745	0.7337	-0.397
Mof_C 	C 	0.6548	0.5414	0.8683	0.218
Mof_N 	N 	0.6934	0.5415	0.8746	-0.22
Mof_H 	H 	0.7043	0.5613	0.8856	0.135
Mof_C 	C 	0.7168	0.5085	0.863	0.059
Mof_H 	H 	0.7028	0.4846	0.8703	0.059
Mof_C 	C 	0.6173	0.5074	0.7562	-0.371
Mof_C 	C 	0.6425	0.6001	0.9127	-0.017
Mof_H 	H 	0.6644	0.5934	0.9275	0.052
Mof_C 	C 	0.7246	0.5071	0.8189	0.307
Mof_O 	O 	0.6457	0.5126	0.6378	-0.212
Mof_C 	C 	0.6817	0.507	0.7246	0.325
Mof_C 	C 	0.5737	0.503	0.7546	0.428
Mof_C 	C 	0.6315	0.5415	0.6549	0.21
Mof_O 	O 	0.69925	0.539	0.7237	-0.4
Mof_C 	C 	0.7545	0.5028	0.9265	0.436
Mof_O 	O 	0.7863	0.5089	0.9441	-0.417
Mof_O 	O 	0.7239	0.5393	0.8007	-0.393
Mof_O 	O 	0.5578	0.4926	0.7228	-0.404
Mof_C 	C 	0.6368	0.5077	0.7164	0.052
Mof_O 	O 	0.7225	0.4926	0.9419	-0.396
Mof_H 	H 	0.616	0.5623	0.7046	0.13
Mof_H 	H 	0.6224	0.5331	0.77	0.147
Mof_H 	H 	0.6282	0.4877	0.773	0.174
Mof_H 	H 	0.6302	0.4845	0.7023	0.059
Mof_O 	O 	0.8625	0.0127	0.146	-0.226
Mof_O 	O 	0.766	0.9744	0.1948	-0.363
Mof_C 	C 	0.8577	0.0878	0.4003	-0.024
Mof_H 	H 	0.8362	0.0727	0.4072	0.052
Mof_C 	C 	0.7433	0.0079	0.1173	-0.446
Mof_H 	H 	0.7279	0.9868	0.1282	0.215
Mof_H 	H 	0.7298	0.0323	0.123	0.18
Mof_N 	N 	0.8746	0.0413	0.3061	-0.21
Mof_O 	O 	0.9445	0.0088	0.2136	-0.418
Mof_C 	C 	0.8799	0.0776	0.3674	-0.041
Mof_C 	C 	0.8678	0.077	0.1203	-0.049
Mof_O 	O 	0.8046	0.9745	0.2663	-0.372
Mof_C 	C 	0.8452	0.0414	0.1317	0.216
Mof_N 	N 	0.8066	0.0415	0.1254	-0.219
Mof_H 	H 	0.7957	0.0613	0.1144	0.135
Mof_C 	C 	0.7832	0.0085	0.137	0.041
Mof_H 	H 	0.7972	0.9846	0.1297	0.082
Mof_C 	C 	0.8827	0.0074	0.2438	-0.405
Mof_C 	C 	0.8575	0.1001	0.0873	-0.018
Mof_H 	H 	0.8356	0.0934	0.0725	0.048
Mof_C 	C 	0.7754	0.0071	0.1811	0.277
Mof_O 	O 	0.8543	0.0126	0.3622	-0.222
Mof_C 	C 	0.8183	0.007	0.2754	0.295
Mof_C 	C 	0.9263	0.003	0.2454	0.399
Mof_C 	C 	0.8685	0.0415	0.3451	0.208
Mof_O 	O 	0.80075	0.039	0.2763	-0.395
Mof_C 	C 	0.7455	0.0028	0.0735	0.416
Mof_O 	O 	0.7137	0.0089	0.0559	-0.435
Mof_O 	O 	0.7761	0.0393	0.1993	-0.388
Mof_O 	O 	0.9422	0.9926	0.2772	-0.36
Mof_C 	C 	0.8632	0.0077	0.2836	0.027
Mof_O 	O 	0.7775	0.9926	0.0581	-0.378
Mof_H 	H 	0.884	0.0623	0.2954	0.13
Mof_H 	H 	0.8776	0.0331	0.23	0.155
Mof_H 	H 	0.8718	0.9877	0.227	0.206
Mof_H 	H 	0.8698	0.9845	0.2977	0.088
Mof_O 	O 	0.8625	0.5127	0.646	-0.213
Mof_O 	O 	0.766	0.4744	0.6948	-0.387
Mof_C 	C 	0.8577	0.5878	0.9003	-0.024
Mof_H 	H 	0.8362	0.5727	0.9072	0.055
Mof_C 	C 	0.7433	0.5079	0.6173	-0.404
Mof_H 	H 	0.7279	0.4868	0.6282	0.182
Mof_H 	H 	0.7298	0.5323	0.623	0.169
Mof_N 	N 	0.8746	0.5413	0.8061	-0.211
Mof_O 	O 	0.9445	0.5088	0.7136	-0.414
Mof_C 	C 	0.8799	0.5776	0.8674	-0.038
Mof_C 	C 	0.8678	0.577	0.6203	-0.045
Mof_O 	O 	0.8046	0.4745	0.7663	-0.397
Mof_C 	C 	0.8452	0.5414	0.6317	0.218
Mof_N 	N 	0.8066	0.5415	0.6254	-0.22
Mof_H 	H 	0.7957	0.5613	0.6144	0.135
Mof_C 	C 	0.7832	0.5085	0.637	0.06
Mof_H 	H 	0.7972	0.4846	0.6297	0.058
Mof_C 	C 	0.8827	0.5074	0.7438	-0.367
Mof_C 	C 	0.8575	0.6001	0.5873	-0.017
Mof_H 	H 	0.8356	0.5934	0.5725	0.051
Mof_C 	C 	0.7754	0.5071	0.6811	0.307
Mof_O 	O 	0.8543	0.5126	0.8622	-0.209
Mof_C 	C 	0.8183	0.507	0.7754	0.325
Mof_C 	C 	0.9263	0.503	0.7454	0.424
Mof_C 	C 	0.8685	0.5415	0.8451	0.21
Mof_O 	O 	0.80075	0.539	0.7763	-0.4
Mof_C 	C 	0.7455	0.5028	0.5735	0.439
Mof_O 	O 	0.7137	0.5089	0.5559	-0.428
Mof_O 	O 	0.7761	0.5393	0.6993	-0.393
Mof_O 	O 	0.9422	0.4926	0.7772	-0.392
Mof_C 	C 	0.8632	0.5077	0.7836	0.05
Mof_O 	O 	0.7775	0.4926	0.5581	-0.406
Mof_H 	H 	0.884	0.5623	0.7954	0.13
Mof_H 	H 	0.8776	0.5331	0.73	0.146
Mof_H 	H 	0.8718	0.4877	0.727	0.174
Mof_H 	H 	0.8698	0.4845	0.7977	0.062
Mof_O 	O 	0.3625	0.0127	0.646	-0.226
Mof_O 	O 	0.266	0.9744	0.6948	-0.363
Mof_C 	C 	0.3577	0.0878	0.9003	-0.024
Mof_H 	H 	0.3362	0.0727	0.9072	0.054
Mof_C 	C 	0.2433	0.0079	0.6173	-0.445
Mof_H 	H 	0.2279	0.9868	0.6282	0.215
Mof_H 	H 	0.2298	0.0323	0.623	0.18
Mof_N 	N 	0.3746	0.0413	0.8061	-0.21
Mof_O 	O 	0.4445	0.0088	0.7136	-0.428
Mof_C 	C 	0.3799	0.0776	0.8674	-0.041
Mof_C 	C 	0.3678	0.077	0.6203	-0.049
Mof_O 	O 	0.3046	0.9745	0.7663	-0.372
Mof_C 	C 	0.3452	0.0414	0.6317	0.216
Mof_N 	N 	0.3066	0.0415	0.6254	-0.219
Mof_H 	H 	0.2957	0.0613	0.6144	0.135
Mof_C 	C 	0.2832	0.0085	0.637	0.041
Mof_H 	H 	0.2972	0.9846	0.6297	0.083
Mof_C 	C 	0.3827	0.0074	0.7438	-0.408
Mof_C 	C 	0.3575	0.1001	0.5873	-0.017
Mof_H 	H 	0.3356	0.0934	0.5725	0.049
Mof_C 	C 	0.2754	0.0071	0.6811	0.277
Mof_O 	O 	0.3543	0.0126	0.8622	-0.222
Mof_C 	C 	0.3183	0.007	0.7754	0.295
Mof_C 	C 	0.4263	0.003	0.7454	0.403
Mof_C 	C 	0.3685	0.0415	0.8451	0.208
Mof_O 	O 	0.30075	0.039	0.7763	-0.395
Mof_C 	C 	0.2455	0.0028	0.5735	0.415
Mof_O 	O 	0.2137	0.0089	0.5559	-0.431
Mof_O 	O 	0.2761	0.0393	0.6993	-0.388
Mof_O 	O 	0.4422	0.9926	0.7772	-0.37
Mof_C 	C 	0.3632	0.0077	0.7836	0.028
Mof_O 	O 	0.2775	0.9926	0.5581	-0.373
Mof_H 	H 	0.384	0.0623	0.7954	0.129
Mof_H 	H 	0.3776	0.0331	0.73	0.156
Mof_H 	H 	0.3718	0.9877	0.727	0.207
Mof_H 	H 	0.3698	0.9845	0.7977	0.087
Mof_O 	O 	0.3625	0.5127	0.146	-0.216
Mof_O 	O 	0.266	0.4744	0.1948	-0.388
Mof_C 	C 	0.3577	0.5878	0.4003	-0.024
Mof_H 	H 	0.3362	0.5727	0.4072	0.053
Mof_C 	C 	0.2433	0.5079	0.1173	-0.406
Mof_H 	H 	0.2279	0.4868	0.1282	0.182
Mof_H 	H 	0.2298	0.5323	0.123	0.169
Mof_N 	N 	0.3746	0.5413	0.3061	-0.212
Mof_O 	O 	0.4445	0.5088	0.2136	-0.426
Mof_C 	C 	0.3799	0.5776	0.3674	-0.04
Mof_C 	C 	0.3678	0.577	0.1203	-0.048
Mof_O 	O 	0.3046	0.4745	0.2663	-0.398
Mof_C 	C 	0.3452	0.5414	0.1317	0.218
Mof_N 	N 	0.3066	0.5415	0.1254	-0.22
Mof_H 	H 	0.2957	0.5613	0.1144	0.135
Mof_C 	C 	0.2832	0.5085	0.137	0.061
Mof_H 	H 	0.2972	0.4846	0.1297	0.056
Mof_C 	C 	0.3827	0.5074	0.2438	-0.371
Mof_C 	C 	0.3575	0.6001	0.0873	-0.017
Mof_H 	H 	0.3356	0.5934	0.0725	0.049
Mof_C 	C 	0.2754	0.5071	0.1811	0.307
Mof_O 	O 	0.3543	0.5126	0.3622	-0.212
Mof_C 	C 	0.3183	0.507	0.2754	0.325
Mof_C 	C 	0.4263	0.503	0.2454	0.428
Mof_C 	C 	0.3685	0.5415	0.3451	0.21
Mof_O 	O 	0.30075	0.539	0.2763	-0.4
Mof_C 	C 	0.2455	0.5028	0.0735	0.441
Mof_O 	O 	0.2137	0.5089	0.0559	-0.433
Mof_O 	O 	0.2761	0.5393	0.1993	-0.392
Mof_O 	O 	0.4422	0.4926	0.2772	-0.404
Mof_C 	C 	0.3632	0.5077	0.2836	0.052
Mof_O 	O 	0.2775	0.4926	0.0581	-0.412
Mof_H 	H 	0.384	0.5623	0.2954	0.13
Mof_H 	H 	0.3776	0.5331	0.23	0.147
Mof_H 	H 	0.3718	0.4877	0.227	0.174
Mof_H 	H 	0.3698	0.4845	0.2977	0.059
Mof_O 	O 	0.1375	0.9873	0.146	-0.206
Mof_O 	O 	0.234	0.0256	0.1948	-0.413
Mof_C 	C 	0.1423	0.9122	0.4003	-0.024
Mof_H 	H 	0.1638	0.9273	0.4072	0.054
Mof_C 	C 	0.2567	0.9921	0.1173	-0.364
Mof_H 	H 	0.2721	0.0132	0.1282	0.148
Mof_H 	H 	0.2702	0.9677	0.123	0.158
Mof_N 	N 	0.1254	0.9587	0.3061	-0.214
Mof_O 	O 	0.0555	0.9912	0.2136	-0.422
Mof_C 	C 	0.1201	0.9224	0.3674	-0.039
Mof_C 	C 	0.1322	0.923	0.1203	-0.047
Mof_O 	O 	0.1954	0.0255	0.2663	-0.423
Mof_C 	C 	0.1548	0.9586	0.1317	0.22
Mof_N 	N 	0.1934	0.9585	0.1254	-0.221
Mof_H 	H 	0.2043	0.9387	0.1144	0.135
Mof_C 	C 	0.2168	0.9915	0.137	0.081
Mof_H 	H 	0.2028	0.0154	0.1297	0.031
Mof_C 	C 	0.1173	0.9926	0.2438	-0.333
Mof_C 	C 	0.1425	0.8999	0.0873	-0.017
Mof_H 	H 	0.1644	0.9066	0.0725	0.05
Mof_C 	C 	0.2246	0.9929	0.1811	0.338
Mof_O 	O 	0.1457	0.9874	0.3622	-0.202
Mof_C 	C 	0.1817	0.993	0.2754	0.356
Mof_C 	C 	0.0737	0.997	0.2454	0.453
Mof_C 	C 	0.1315	0.9585	0.3451	0.211
Mof_O 	O 	0.19925	0.961	0.2763	-0.405
Mof_C 	C 	0.2545	0.9972	0.0735	0.465
Mof_O 	O 	0.2863	0.9911	0.0559	-0.424
Mof_O 	O 	0.2239	0.9607	0.1993	-0.397
Mof_O 	O 	0.0578	0.0074	0.2772	-0.437
Mof_C 	C 	0.1368	0.9923	0.2836	0.076
Mof_O 	O 	0.2225	0.0074	0.0581	-0.44
Mof_H 	H 	0.116	0.9377	0.2954	0.13
Mof_H 	H 	0.1224	0.9669	0.23	0.138
Mof_H 	H 	0.1282	0.0123	0.227	0.14
Mof_H 	H 	0.1302	0.0155	0.2977	0.031
Mof_O 	O 	0.1375	0.4873	0.646	-0.217
Mof_O 	O 	0.234	0.5256	0.6948	-0.387
Mof_C 	C 	0.1423	0.4122	0.9003	-0.024
Mof_H 	H 	0.1638	0.4273	0.9072	0.054
Mof_C 	C 	0.2567	0.4921	0.6173	-0.405
Mof_H 	H 	0.2721	0.5132	0.6282	0.182
Mof_H 	H 	0.2702	0.4677	0.623	0.169
Mof_N 	N 	0.1254	0.4587	0.8061	-0.212
Mof_O 	O 	0.0555	0.4912	0.7136	-0.43
Mof_C 	C 	0.1201	0.4224	0.8674	-0.04
Mof_C 	C 	0.1322	0.423	0.6203	-0.048
Mof_O 	O 	0.1954	0.5255	0.7663	-0.398
Mof_C 	C 	0.1548	0.4586	0.6317	0.218
Mof_N 	N 	0.1934	0.4585	0.6254	-0.22
Mof_H 	H 	0.2043	0.4387	0.6144	0.135
Mof_C 	C 	0.2168	0.4915	0.637	0.061
Mof_H 	H 	0.2028	0.5154	0.6297	0.057
Mof_C 	C 	0.1173	0.4926	0.7438	-0.372
Mof_C 	C 	0.1425	0.3999	0.5873	-0.017
Mof_H 	H 	0.1644	0.4066	0.5725	0.05
Mof_C 	C 	0.2246	0.4929	0.6811	0.307
Mof_O 	O 	0.1457	0.4874	0.8622	-0.212
Mof_C 	C 	0.1817	0.493	0.7754	0.325
Mof_C 	C 	0.0737	0.497	0.7454	0.429
Mof_C 	C 	0.1315	0.4585	0.8451	0.209
Mof_O 	O 	0.19925	0.461	0.7763	-0.4
Mof_C 	C 	0.2545	0.4972	0.5735	0.44
Mof_O 	O 	0.2863	0.4911	0.5559	-0.428
Mof_O 	O 	0.2239	0.4607	0.6993	-0.392
Mof_O 	O 	0.0578	0.5074	0.7772	-0.408
Mof_C 	C 	0.1368	0.4923	0.7836	0.053
Mof_O 	O 	0.2225	0.5074	0.5581	-0.407
Mof_H 	H 	0.116	0.4377	0.7954	0.13
Mof_H 	H 	0.1224	0.4669	0.73	0.147
Mof_H 	H 	0.1282	0.5123	0.727	0.174
Mof_H 	H 	0.1302	0.5155	0.7977	0.058
Mof_O 	O 	0.6375	0.9873	0.646	-0.203
Mof_O 	O 	0.734	0.0256	0.6948	-0.412
Mof_C 	C 	0.6423	0.9122	0.9003	-0.024
Mof_H 	H 	0.6638	0.9273	0.9072	0.056
Mof_C 	C 	0.7567	0.9921	0.6173	-0.362
Mof_H 	H 	0.7721	0.0132	0.6282	0.149
Mof_H 	H 	0.7702	0.9677	0.623	0.157
Mof_N 	N 	0.6254	0.9587	0.8061	-0.213
Mof_O 	O 	0.5555	0.9912	0.7136	-0.416
Mof_C 	C 	0.6201	0.9224	0.8674	-0.037
Mof_C 	C 	0.6322	0.923	0.6203	-0.045
Mof_O 	O 	0.6954	0.0255	0.7663	-0.422
Mof_C 	C 	0.6548	0.9586	0.6317	0.22
Mof_N 	N 	0.6934	0.9585	0.6254	-0.221
Mof_H 	H 	0.7043	0.9387	0.6144	0.135
Mof_C 	C 	0.7168	0.9915	0.637	0.08
Mof_H 	H 	0.7028	0.0154	0.6297	0.033
Mof_C 	C 	0.6173	0.9926	0.7438	-0.331
Mof_C 	C 	0.6425	0.8999	0.5873	-0.017
Mof_H 	H 	0.6644	0.9066	0.5725	0.052
Mof_C 	C 	0.7246	0.9929	0.6811	0.338
Mof_O 	O 	0.6457	0.9874	0.8622	-0.199
Mof_C 	C 	0.6817	0.993	0.7754	0.355
Mof_C 	C 	0.5737	0.997	0.7454	0.451
Mof_C 	C 	0.6315	0.9585	0.8451	0.211
Mof_O 	O 	0.69925	0.961	0.7763	-0.405
Mof_C 	C 	0.7545	0.9972	0.5735	0.462
Mof_O 	O 	0.7863	0.9911	0.5559	-0.419
Mof_O 	O 	0.7239	0.9607	0.6993	-0.397
Mof_O 	O 	0.5578	0.0074	0.7772	-0.431
Mof_C 	C 	0.6368	0.9923	0.7836	0.075
Mof_O 	O 	0.7225	0.0074	0.5581	-0.434
Mof_H 	H 	0.616	0.9377	0.7954	0.13
Mof_H 	H 	0.6224	0.9669	0.73	0.137
Mof_H 	H 	0.6282	0.0123	0.727	0.141
Mof_H 	H 	0.6302	0.0155	0.7977	0.033
Mof_O 	O 	0.6375	0.4873	0.146	-0.216
Mof_O 	O 	0.734	0.5256	0.1948	-0.388
Mof_C 	C 	0.6423	0.4122	0.4003	-0.024
Mof_H 	H 	0.6638	0.4273	0.4072	0.053
Mof_C 	C 	0.7567	0.4921	0.1173	-0.406
Mof_H 	H 	0.7721	0.5132	0.1282	0.182
Mof_H 	H 	0.7702	0.4677	0.123	0.169
Mof_N 	N 	0.6254	0.4587	0.3061	-0.212
Mof_O 	O 	0.5555	0.4912	0.2136	-0.426
Mof_C 	C 	0.6201	0.4224	0.3674	-0.04
Mof_C 	C 	0.6322	0.423	0.1203	-0.048
Mof_O 	O 	0.6954	0.5255	0.2663	-0.398
Mof_C 	C 	0.6548	0.4586	0.1317	0.218
Mof_N 	N 	0.6934	0.4585	0.1254	-0.22
Mof_H 	H 	0.7043	0.4387	0.1144	0.135
Mof_C 	C 	0.7168	0.4915	0.137	0.061
Mof_H 	H 	0.7028	0.5154	0.1297	0.056
Mof_C 	C 	0.6173	0.4926	0.2438	-0.371
Mof_C 	C 	0.6425	0.3999	0.0873	-0.017
Mof_H 	H 	0.6644	0.4066	0.0725	0.049
Mof_C 	C 	0.7246	0.4929	0.1811	0.307
Mof_O 	O 	0.6457	0.4874	0.3622	-0.212
Mof_C 	C 	0.6817	0.493	0.2754	0.325
Mof_C 	C 	0.5737	0.497	0.2454	0.428
Mof_C 	C 	0.6315	0.4585	0.3451	0.21
Mof_O 	O 	0.69925	0.461	0.2763	-0.4
Mof_C 	C 	0.7545	0.4972	0.0735	0.441
Mof_O 	O 	0.7863	0.4911	0.0559	-0.432
Mof_O 	O 	0.7239	0.4607	0.1993	-0.392
Mof_O 	O 	0.5578	0.5074	0.2772	-0.404
Mof_C 	C 	0.6368	0.4923	0.2836	0.052
Mof_O 	O 	0.7225	0.5074	0.0581	-0.412
Mof_H 	H 	0.616	0.4377	0.2954	0.13
Mof_H 	H 	0.6224	0.4669	0.23	0.147
Mof_H 	H 	0.6282	0.5123	0.227	0.174
Mof_H 	H 	0.6302	0.5155	0.2977	0.059
Mof_O 	O 	0.8625	0.9873	0.854	-0.199
Mof_O 	O 	0.766	0.0256	0.8052	-0.411
Mof_C 	C 	0.8577	0.9122	0.5997	-0.024
Mof_H 	H 	0.8362	0.9273	0.5928	0.055
Mof_C 	C 	0.7433	0.9921	0.8827	-0.359
Mof_H 	H 	0.7279	0.0132	0.8718	0.149
Mof_H 	H 	0.7298	0.9677	0.877	0.157
Mof_N 	N 	0.8746	0.9587	0.6939	-0.213
Mof_O 	O 	0.9445	0.9912	0.7864	-0.405
Mof_C 	C 	0.8799	0.9224	0.6326	-0.037
Mof_C 	C 	0.8678	0.923	0.8797	-0.042
Mof_O 	O 	0.8046	0.0255	0.7337	-0.422
Mof_C 	C 	0.8452	0.9586	0.8683	0.22
Mof_N 	N 	0.8066	0.9585	0.8746	-0.22
Mof_H 	H 	0.7957	0.9387	0.8856	0.135
Mof_C 	C 	0.7832	0.9915	0.863	0.078
Mof_H 	H 	0.7972	0.0154	0.8703	0.035
Mof_C 	C 	0.8827	0.9926	0.7562	-0.329
Mof_C 	C 	0.8575	0.8999	0.9127	-0.017
Mof_H 	H 	0.8356	0.9066	0.9275	0.054
Mof_C 	C 	0.7754	0.9929	0.8189	0.338
Mof_O 	O 	0.8543	0.9874	0.6378	-0.199
Mof_C 	C 	0.8183	0.993	0.7246	0.356
Mof_C 	C 	0.9263	0.997	0.7546	0.447
Mof_C 	C 	0.8685	0.9585	0.6549	0.212
Mof_O 	O 	0.80075	0.961	0.7237	-0.405
Mof_C 	C 	0.7455	0.9972	0.9265	0.458
Mof_O 	O 	0.7137	0.9911	0.9441	-0.409
Mof_O 	O 	0.7761	0.9607	0.8007	-0.397
Mof_O 	O 	0.9422	0.0074	0.7228	-0.42
Mof_C 	C 	0.8632	0.9923	0.7164	0.074
Mof_O 	O 	0.7775	0.0074	0.9419	-0.422
Mof_H 	H 	0.884	0.9377	0.7046	0.13
Mof_H 	H 	0.8776	0.9669	0.77	0.137
Mof_H 	H 	0.8718	0.0123	0.773	0.141
Mof_H 	H 	0.8698	0.0155	0.7023	0.035
Mof_O 	O 	0.8625	0.4873	0.354	-0.213
Mof_O 	O 	0.766	0.5256	0.3052	-0.387
Mof_C 	C 	0.8577	0.4122	0.0997	-0.024
Mof_H 	H 	0.8362	0.4273	0.0928	0.052
Mof_C 	C 	0.7433	0.4921	0.3827	-0.404
Mof_H 	H 	0.7279	0.5132	0.3718	0.182
Mof_H 	H 	0.7298	0.4677	0.377	0.169
Mof_N 	N 	0.8746	0.4587	0.1939	-0.212
Mof_O 	O 	0.9445	0.4912	0.2864	-0.414
Mof_C 	C 	0.8799	0.4224	0.1326	-0.04
Mof_C 	C 	0.8678	0.423	0.3797	-0.045
Mof_O 	O 	0.8046	0.5255	0.2337	-0.397
Mof_C 	C 	0.8452	0.4586	0.3683	0.218
Mof_N 	N 	0.8066	0.4585	0.3746	-0.22
Mof_H 	H 	0.7957	0.4387	0.3856	0.135
Mof_C 	C 	0.7832	0.4915	0.363	0.06
Mof_H 	H 	0.7972	0.5154	0.3703	0.058
Mof_C 	C 	0.8827	0.4926	0.2562	-0.368
Mof_C 	C 	0.8575	0.3999	0.4127	-0.017
Mof_H 	H 	0.8356	0.4066	0.4275	0.051
Mof_C 	C 	0.7754	0.4929	0.3189	0.307
Mof_O 	O 	0.8543	0.4874	0.1378	-0.212
Mof_C 	C 	0.8183	0.493	0.2246	0.325
Mof_C 	C 	0.9263	0.497	0.2546	0.424
Mof_C 	C 	0.8685	0.4585	0.1549	0.21
Mof_O 	O 	0.80075	0.461	0.2237	-0.4
Mof_C 	C 	0.7455	0.4972	0.4265	0.439
Mof_O 	O 	0.7137	0.4911	0.4441	-0.428
Mof_O 	O 	0.7761	0.4607	0.3007	-0.392
Mof_O 	O 	0.9422	0.5074	0.2228	-0.393
Mof_C 	C 	0.8632	0.4923	0.2164	0.051
Mof_O 	O 	0.7775	0.5074	0.4419	-0.406
Mof_H 	H 	0.884	0.4377	0.2046	0.13
Mof_H 	H 	0.8776	0.4669	0.27	0.146
Mof_H 	H 	0.8718	0.5123	0.273	0.174
Mof_H 	H 	0.8698	0.5155	0.2023	0.06
Mof_O 	O 	0.3625	0.9873	0.354	-0.203
Mof_O 	O 	0.266	0.0256	0.3052	-0.412
Mof_C 	C 	0.3577	0.9122	0.0997	-0.024
Mof_H 	H 	0.3362	0.9273	0.0928	0.054
Mof_C 	C 	0.2433	0.9921	0.3827	-0.362
Mof_H 	H 	0.2279	0.0132	0.3718	0.148
Mof_H 	H 	0.2298	0.9677	0.377	0.157
Mof_N 	N 	0.3746	0.9587	0.1939	-0.214
Mof_O 	O 	0.4445	0.9912	0.2864	-0.416
Mof_C 	C 	0.3799	0.9224	0.1326	-0.039
Mof_C 	C 	0.3678	0.923	0.3797	-0.045
Mof_O 	O 	0.3046	0.0255	0.2337	-0.423
Mof_C 	C 	0.3452	0.9586	0.3683	0.22
Mof_N 	N 	0.3066	0.9585	0.3746	-0.221
Mof_H 	H 	0.2957	0.9387	0.3856	0.135
Mof_C 	C 	0.2832	0.9915	0.363	0.08
Mof_H 	H 	0.2972	0.0154	0.3703	0.032
Mof_C 	C 	0.3827	0.9926	0.2562	-0.332
Mof_C 	C 	0.3575	0.8999	0.4127	-0.017
Mof_H 	H 	0.3356	0.9066	0.4275	0.052
Mof_C 	C 	0.2754	0.9929	0.3189	0.338
Mof_O 	O 	0.3543	0.9874	0.1378	-0.202
Mof_C 	C 	0.3183	0.993	0.2246	0.356
Mof_C 	C 	0.4263	0.997	0.2546	0.451
Mof_C 	C 	0.3685	0.9585	0.1549	0.212
Mof_O 	O 	0.30075	0.961	0.2237	-0.405
Mof_C 	C 	0.2455	0.9972	0.4265	0.463
Mof_O 	O 	0.2137	0.9911	0.4441	-0.42
Mof_O 	O 	0.2761	0.9607	0.3007	-0.397
Mof_O 	O 	0.4422	0.0074	0.2228	-0.432
Mof_C 	C 	0.3632	0.9923	0.2164	0.076
Mof_O 	O 	0.2775	0.0074	0.4419	-0.434
Mof_H 	H 	0.384	0.9377	0.2046	0.13
Mof_H 	H 	0.3776	0.9669	0.27	0.137
Mof_H 	H 	0.3718	0.0123	0.273	0.14
Mof_H 	H 	0.3698	0.0155	0.2023	0.032
Mof_O 	O 	0.3625	0.4873	0.854	-0.213
Mof_O 	O 	0.266	0.5256	0.8052	-0.387
Mof_C 	C 	0.3577	0.4122	0.5997	-0.024
Mof_H 	H 	0.3362	0.4273	0.5928	0.053
Mof_C 	C 	0.2433	0.4921	0.8827	-0.401
Mof_H 	H 	0.2279	0.5132	0.8718	0.182
Mof_H 	H 	0.2298	0.4677	0.877	0.168
Mof_N 	N 	0.3746	0.4587	0.6939	-0.212
Mof_O 	O 	0.4445	0.4912	0.7864	-0.424
Mof_C 	C 	0.3799	0.4224	0.6326	-0.04
Mof_C 	C 	0.3678	0.423	0.8797	-0.045
Mof_O 	O 	0.3046	0.5255	0.7337	-0.397
Mof_C 	C 	0.3452	0.4586	0.8683	0.219
Mof_N 	N 	0.3066	0.4585	0.8746	-0.22
Mof_H 	H 	0.2957	0.4387	0.8856	0.135
Mof_C 	C 	0.2832	0.4915	0.863	0.059
Mof_H 	H 	0.2972	0.5154	0.8703	0.059
Mof_C 	C 	0.3827	0.4926	0.7562	-0.371
Mof_C 	C 	0.3575	0.3999	0.9127	-0.017
Mof_H 	H 	0.3356	0.4066	0.9275	0.052
Mof_C 	C 	0.2754	0.4929	0.8189	0.308
Mof_O 	O 	0.3543	0.4874	0.6378	-0.212
Mof_C 	C 	0.3183	0.493	0.7246	0.325
Mof_C 	C 	0.4263	0.497	0.7546	0.428
Mof_C 	C 	0.3685	0.4585	0.6549	0.21
Mof_O 	O 	0.30075	0.461	0.7237	-0.4
Mof_C 	C 	0.2455	0.4972	0.9265	0.436
Mof_O 	O 	0.2137	0.4911	0.9441	-0.418
Mof_O 	O 	0.2761	0.4607	0.8007	-0.392
Mof_O 	O 	0.4422	0.5074	0.7228	-0.404
Mof_C 	C 	0.3632	0.4923	0.7164	0.052
Mof_O 	O 	0.2775	0.5074	0.9419	-0.396
Mof_H 	H 	0.384	0.4377	0.7046	0.13
Mof_H 	H 	0.3776	0.4669	0.77	0.147
Mof_H 	H 	0.3718	0.5123	0.773	0.174
Mof_H 	H 	0.3698	0.5155	0.7023	0.059
Mof_Cu	Cu	0.75	0.25	0.04572	0.894
Mof_Cu	Cu	0.75	0.25	0.96843	0.906
Mof_Cu	Cu	0.75	0.75	0.54572	0.898
Mof_Cu	Cu	0.75	0.75	0.46843	0.904
Mof_Cu	Cu	0.25	0.75	0.04572	0.894
Mof_Cu	Cu	0.25	0.75	0.96843	0.906
Mof_Cu	Cu	0.25	0.25	0.54572	0.898
Mof_Cu	Cu	0.25	0.25	0.46843	0.903
Mof_Cu	Cu	0.25	0.25	0.95428	0.903
Mof_Cu	Cu	0.25	0.25	0.03157	0.901
Mof_Cu	Cu	0.25	0.75	0.45428	0.898
Mof_Cu	Cu	0.25	0.75	0.53157	0.904
Mof_Cu	Cu	0.75	0.75	0.95428	0.902
Mof_Cu	Cu	0.75	0.75	0.03157	0.901
Mof_Cu	Cu	0.75	0.25	0.45428	0.898
Mof_Cu	Cu	0.75	0.25	0.53157	0.904
Mof_Cu	Cu	0.04572	0.75	0.25	0.894
Mof_Cu	Cu	0.96843	0.75	0.25	0.906
Mof_Cu	Cu	0.54572	0.75	0.75	0.898
Mof_Cu	Cu	0.46843	0.75	0.75	0.904
Mof_Cu	Cu	0.04572	0.25	0.75	0.894
Mof_Cu	Cu	0.96843	0.25	0.75	0.906
Mof_Cu	Cu	0.54572	0.25	0.25	0.898
Mof_Cu	Cu	0.46843	0.25	0.25	0.903
Mof_Cu	Cu	0.95428	0.25	0.25	0.903
Mof_Cu	Cu	0.03157	0.25	0.25	0.901
Mof_Cu	Cu	0.45428	0.25	0.75	0.898
Mof_Cu	Cu	0.53157	0.25	0.75	0.904
Mof_Cu	Cu	0.95428	0.75	0.75	0.902
Mof_Cu	Cu	0.03157	0.75	0.75	0.901
Mof_Cu	Cu	0.45428	0.75	0.25	0.898
Mof_Cu	Cu	0.53157	0.75	0.25	0.904
Mof_Cu	Cu	0.25	0.04572	0.75	0.894
Mof_Cu	Cu	0.25	0.96843	0.75	0.906
Mof_Cu	Cu	0.25	0.54572	0.25	0.898
Mof_Cu	Cu	0.25	0.46843	0.25	0.903
Mof_Cu	Cu	0.75	0.04572	0.25	0.894
Mof_Cu	Cu	0.75	0.96843	0.25	0.906
Mof_Cu	Cu	0.75	0.54572	0.75	0.898
Mof_Cu	Cu	0.75	0.46843	0.75	0.904
Mof_Cu	Cu	0.25	0.95428	0.25	0.903
Mof_Cu	Cu	0.25	0.03157	0.25	0.901
Mof_Cu	Cu	0.25	0.45428	0.75	0.898
Mof_Cu	Cu	0.25	0.53157	0.75	0.904
Mof_Cu	Cu	0.75	0.95428	0.75	0.902
Mof_Cu	Cu	0.75	0.03157	0.75	0.901
Mof_Cu	Cu	0.75	0.45428	0.25	0.898
Mof_Cu	Cu	0.75	0.53157	0.25	0.904
Mof_Cu	Cu	0.71089	0	-0	0.882
Mof_Cu	Cu	0.78901	0	-0	0.884
Mof_Cu	Cu	0.71089	0.5	0.5	0.905
Mof_Cu	Cu	0.78901	0.5	0.5	0.907
Mof_Cu	Cu	0.21089	5.05648e-33	0.5	0.893
Mof_Cu	Cu	0.28901	5.05648e-33	0.5	0.895
Mof_Cu	Cu	0.21089	0.5	-0	0.893
Mof_Cu	Cu	0.28901	0.5	-0	0.895
Mof_Cu	Cu	0.28911	0	-0	0.882
Mof_Cu	Cu	0.21099	0	-0	0.883
Mof_Cu	Cu	0.28911	0.5	0.5	0.905
Mof_Cu	Cu	0.21099	0.5	0.5	0.906
Mof_Cu	Cu	0.78911	5.05648e-33	0.5	0.894
Mof_Cu	Cu	0.71099	5.05648e-33	0.5	0.895
Mof_Cu	Cu	0.78911	0.5	-0	0.894
Mof_Cu	Cu	0.71099	0.5	-0	0.895
Mof_Cu	Cu	1.0113e-32	0.71089	-0	0.882
Mof_Cu	Cu	1.0113e-32	0.78901	-0	0.884
Mof_Cu	Cu	1.8747e-33	0.21089	0.5	0.893
Mof_Cu	Cu	6.93118e-33	0.28901	0.5	0.895
Mof_Cu	Cu	0.5	0.71089	0.5	0.905
Mof_Cu	Cu	0.5	0.78901	0.5	0.907
Mof_Cu	Cu	0.5	0.21089	-0	0.893
Mof_Cu	Cu	0.5	0.28901	-0	0.895
Mof_Cu	Cu	2.52824e-33	0.28911	-0	0.882
Mof_Cu	Cu	2.52824e-33	0.21099	-0	0.883
Mof_Cu	Cu	1.70441e-32	0.78911	0.5	0.894
Mof_Cu	Cu	1.8747e-33	0.71099	0.5	0.895
Mof_Cu	Cu	0.5	0.28911	0.5	0.905
Mof_Cu	Cu	0.5	0.21099	0.5	0.906
Mof_Cu	Cu	0.5	0.78911	-0	0.894
Mof_Cu	Cu	0.5	0.71099	-0	0.895
Mof_Cu	Cu	7.72189e-33	1.0113e-32	0.71089	0.882
Mof_Cu	Cu	1.30713e-32	1.0113e-32	0.78901	0.884
Mof_Cu	Cu	3.31895e-33	0.5	0.21089	0.893
Mof_Cu	Cu	1.11966e-32	0.5	0.28901	0.895
Mof_Cu	Cu	0.5	2.52824e-33	0.21089	0.893
Mof_Cu	Cu	0.5	5.05648e-33	0.28901	0.895
Mof_Cu	Cu	0.5	0.5	0.71089	0.905
Mof_Cu	Cu	0.5	0.5	0.78901	0.907
Mof_Cu	Cu	3.61223e-33	2.52824e-33	0.28911	0.882
Mof_Cu	Cu	3.31932e-33	2.52824e-33	0.21099	0.883
Mof_Cu	Cu	2.31846e-32	0.5	0.78911	0.894
Mof_Cu	Cu	2.66579e-33	0.5	0.71099	0.895
Mof_Cu	Cu	0.5	1.0113e-32	0.78911	0.894
Mof_Cu	Cu	0.5	5.05648e-33	0.71099	0.895
Mof_Cu	Cu	0.5	0.5	0.28911	0.905
Mof_Cu	Cu	0.5	0.5	0.21099	0.906
_end
