data_functionalizedCrystal
_audit_creation_method	'EQeq! by Chris Wilmer'
_symmetry_space_group_name_H-M	'P1'
_symmetry_Int_Tables_number	1
_symmetry_cell_setting	triclinic
loop_
_symmetry_equiv_pos_as_xyz
  x,y,z
_cell_length_a	10.35
_cell_length_b	11.94
_cell_length_c	12.75
_cell_angle_alpha	104.97
_cell_angle_beta	90.47
_cell_angle_gamma	93.06
loop_
_atom_site_label
_atom_site_type_symbol
_atom_site_fract_x
_atom_site_fract_y
_atom_site_fract_z
_atom_site_charge
Mof_La	La	0.99934	0.72733	0.92058	2.303
Mof_P 	P 	0.1996	0.6411	0.6688	0.47
Mof_P 	P 	0.1348	0.4516	0.8989	0.449
Mof_P 	P 	0.8575	0.9908	0.8945	0.41
Mof_O 	O 	0.1493	0.7176	0.7737	-0.475
Mof_O 	O 	0.1513	0.6843	0.5723	-0.433
Mof_H 	H 	0.1137	0.7442	0.5951	0.268
Mof_O 	O 	0.1719	0.5121	0.6469	-0.226
Mof_O 	O 	0.4097	0.7828	0.6717	-0.334
Mof_H 	H 	0.4888	0.7924	0.6733	0.223
Mof_O 	O 	0.2271	0.4144	0.8006	-0.213
Mof_O 	O 	0.0286	0.5154	0.8688	-0.469
Mof_O 	O 	0.092	0.3322	0.9346	-0.699
Mof_H 	H 	0.0393	0.2988	0.8832	0.277
Mof_O 	O 	0.2102	0.6662	0.9979	-0.515
Mof_H 	H 	0.2217	0.7108	0.0614	0.232
Mof_O 	O 	0.7571	0.9851	0.7998	-0.226
Mof_O 	O 	0.955	0.9026	0.854	-0.443
Mof_O 	O 	0.9039	0.1213	0.9349	-0.387
Mof_H 	H 	0.9447	0.1321	0.9923	-0.119
Mof_O 	O 	0.788	0.8273	0.9898	-0.569
Mof_H 	H 	0.7737	0.8141	0.0511	0.272
Mof_C 	C 	0.3741	0.6663	0.6748	-0.001
Mof_H 	H 	0.4058	0.6556	0.744	0.035
Mof_C 	C 	0.4389	0.5764	0.5807	0.041
Mof_C 	C 	0.4997	0.4876	0.6038	-0.058
Mof_H 	H 	0.5017	0.4796	0.6744	0.058
Mof_C 	C 	0.442	0.5899	0.4768	-0.055
Mof_H 	H 	0.4041	0.6529	0.4615	0.076
Mof_C 	C 	0.2296	0.5526	0.0074	0.036
Mof_H 	H 	0.1947	0.5459	0.0769	-0.013
Mof_C 	C 	0.3713	0.5277	0.0066	0.008
Mof_C 	C 	0.4159	0.4461	0.057	-0.04
Mof_H 	H 	0.3593	0.4095	0.0955	0.017
Mof_C 	C 	0.4582	0.5797	0.9504	-0.046
Mof_H 	H 	0.4297	0.6342	0.9163	0.057
Mof_C 	C 	0.7704	0.9485	0.0027	0.063
Mof_H 	H 	0.8103	0.992	0.0723	-0.001
Mof_C 	C 	0.6285	0.9748	0.0031	0.013
Mof_C 	C 	0.5391	0.8942	0.9406	-0.042
Mof_H 	H 	0.5652	0.8227	0.9004	0.051
Mof_C 	C 	0.591	0.0791	0.062	-0.048
Mof_H 	H 	0.6515	0.1329	0.104	0.052
Mof_La	La	0.00066	0.27267	0.07942	2.304
Mof_P 	P 	0.8004	0.3589	0.3312	0.471
Mof_P 	P 	0.8652	0.5484	0.1011	0.449
Mof_P 	P 	0.1425	0.0092	0.1055	0.41
Mof_O 	O 	0.8507	0.2824	0.2263	-0.475
Mof_O 	O 	0.8487	0.3157	0.4277	-0.433
Mof_H 	H 	0.8863	0.2558	0.4049	0.268
Mof_O 	O 	0.8281	0.4879	0.3531	-0.226
Mof_O 	O 	0.5903	0.2172	0.3283	-0.334
Mof_H 	H 	0.5112	0.2076	0.3267	0.223
Mof_O 	O 	0.7729	0.5856	0.1994	-0.213
Mof_O 	O 	0.9714	0.4846	0.1312	-0.469
Mof_O 	O 	0.908	0.6678	0.0654	-0.699
Mof_H 	H 	0.9607	0.7012	0.1168	0.277
Mof_O 	O 	0.7898	0.3338	0.0021	-0.515
Mof_H 	H 	0.7783	0.2892	0.9386	0.232
Mof_O 	O 	0.2429	0.0149	0.2002	-0.226
Mof_O 	O 	0.045	0.0974	0.146	-0.443
Mof_O 	O 	0.0961	0.8787	0.0651	-0.387
Mof_H 	H 	0.0553	0.8679	0.0077	-0.119
Mof_O 	O 	0.212	0.1727	0.0102	-0.569
Mof_H 	H 	0.2263	0.1859	0.9489	0.272
Mof_C 	C 	0.6259	0.3337	0.3252	-0.001
Mof_H 	H 	0.5942	0.3444	0.256	0.035
Mof_C 	C 	0.5611	0.4236	0.4193	0.041
Mof_C 	C 	0.5003	0.5124	0.3962	-0.058
Mof_H 	H 	0.4983	0.5204	0.3256	0.058
Mof_C 	C 	0.558	0.4101	0.5232	-0.055
Mof_H 	H 	0.5959	0.3471	0.5385	0.076
Mof_C 	C 	0.7704	0.4474	0.9926	0.036
Mof_H 	H 	0.8053	0.4541	0.9231	-0.013
Mof_C 	C 	0.6287	0.4723	0.9934	0.008
Mof_C 	C 	0.5841	0.5539	0.943	-0.04
Mof_H 	H 	0.6407	0.5905	0.9045	0.017
Mof_C 	C 	0.5418	0.4203	0.0496	-0.046
Mof_H 	H 	0.5703	0.3658	0.0837	0.057
Mof_C 	C 	0.2296	0.0515	0.9973	0.063
Mof_H 	H 	0.1897	0.008	0.9277	-0.001
Mof_C 	C 	0.3715	0.0252	0.9969	0.013
Mof_C 	C 	0.4609	0.1058	0.0594	-0.042
Mof_H 	H 	0.4348	0.1773	0.0996	0.051
Mof_C 	C 	0.409	0.9209	0.938	-0.048
Mof_H 	H 	0.3485	0.8671	0.896	0.052
_end
