data_functionalizedCrystal
_audit_creation_method	'EQeq! by Chris Wilmer'
_symmetry_space_group_name_H-M	'P1'
_symmetry_Int_Tables_number	1
_symmetry_cell_setting	triclinic
loop_
_symmetry_equiv_pos_as_xyz
  x,y,z
_cell_length_a	13.386
_cell_length_b	13.386
_cell_length_c	14.4646
_cell_angle_alpha	90
_cell_angle_beta	90
_cell_angle_gamma	120
loop_
_atom_site_label
_atom_site_type_symbol
_atom_site_fract_x
_atom_site_fract_y
_atom_site_fract_z
_atom_site_charge
Mof_Tb	Tb	0.33333	0.66666	0.83226	2.281
Mof_Tb	Tb	0.66667	0.33334	0.66774	2.28
Mof_Tb	Tb	0.66667	0.33334	0.16774	2.273
Mof_Tb	Tb	0.33333	0.66666	0.33226	2.273
Mof_Cu	Cu	-0	0.5	-0	0.871
Mof_Cu	Cu	0.5	0	-0	0.869
Mof_Cu	Cu	0.5	0.5	-0	0.899
Mof_Cu	Cu	0.5	0.5	0.5	0.927
Mof_Cu	Cu	0.5	0	0.5	0.896
Mof_Cu	Cu	-1.55172e-17	0.5	0.5	0.898
Mof_H 	H 	0.9771	0.6506	0.0782	0.155
Mof_H 	H 	0.0839	0.6847	0.1938	0.128
Mof_H 	H 	0.1926	0.7326	0.1296	0.15
Mof_H 	H 	0.1394	0.8204	0.0199	0.025
Mof_H 	H 	0.0408	0.7466	0.9491	0.057
Mof_H 	H 	0.6735	0.0229	0.0782	0.033
Mof_H 	H 	0.6008	0.9161	0.1938	0.171
Mof_H 	H 	0.54	0.8074	0.1296	0.154
Mof_H 	H 	0.681	0.8606	0.0199	0.047
Mof_H 	H 	0.7058	0.9592	0.9491	0.116
Mof_H 	H 	0.3494	0.3265	0.0782	0.089
Mof_H 	H 	0.3153	0.3992	0.1938	0.138
Mof_H 	H 	0.2674	0.46	0.1296	0.144
Mof_H 	H 	0.1796	0.319	0.0199	0.004
Mof_H 	H 	0.2534	0.2942	0.9491	0.063
Mof_H 	H 	0.3265	0.3494	0.4218	0.09
Mof_H 	H 	0.3992	0.3153	0.3062	0.142
Mof_H 	H 	0.46	0.2674	0.3704	0.157
Mof_H 	H 	0.319	0.1796	0.4801	0.109
Mof_H 	H 	0.2942	0.2534	0.5509	0.113
Mof_H 	H 	0.6506	0.9771	0.4218	0.158
Mof_H 	H 	0.6847	0.0839	0.3062	0.13
Mof_H 	H 	0.7326	0.1926	0.3704	0.162
Mof_H 	H 	0.8204	0.1394	0.4801	0.126
Mof_H 	H 	0.7466	0.0408	0.5509	0.103
Mof_H 	H 	0.0229	0.6735	0.4218	0.038
Mof_H 	H 	0.9161	0.6008	0.3062	0.173
Mof_H 	H 	0.8074	0.54	0.3704	0.167
Mof_H 	H 	0.8606	0.681	0.4801	0.146
Mof_H 	H 	0.9592	0.7058	0.5509	0.162
Mof_H 	H 	0.0229	0.3494	0.9218	0.04
Mof_H 	H 	0.9161	0.3153	0.8062	0.168
Mof_H 	H 	0.8074	0.2674	0.8704	0.174
Mof_H 	H 	0.8606	0.1796	0.9801	0.226
Mof_H 	H 	0.9592	0.2534	0.0509	0.195
Mof_H 	H 	0.3265	0.9771	0.9218	0.155
Mof_H 	H 	0.3992	0.0839	0.8062	0.127
Mof_H 	H 	0.46	0.1926	0.8704	0.169
Mof_H 	H 	0.319	0.1394	0.9801	0.213
Mof_H 	H 	0.2942	0.0408	0.0509	0.138
Mof_H 	H 	0.6506	0.6735	0.9218	0.101
Mof_H 	H 	0.6847	0.6008	0.8062	0.159
Mof_H 	H 	0.7326	0.54	0.8704	0.18
Mof_H 	H 	0.8204	0.681	0.9801	0.245
Mof_H 	H 	0.7466	0.7058	0.0509	0.187
Mof_H 	H 	0.6735	0.6506	0.5782	0.098
Mof_H 	H 	0.6008	0.6847	0.6938	0.157
Mof_H 	H 	0.54	0.7326	0.6296	0.168
Mof_H 	H 	0.681	0.8204	0.5199	0.147
Mof_H 	H 	0.7058	0.7466	0.4491	0.14
Mof_H 	H 	0.3494	0.0229	0.5782	0.032
Mof_H 	H 	0.3153	0.9161	0.6938	0.168
Mof_H 	H 	0.2674	0.8074	0.6296	0.162
Mof_H 	H 	0.1796	0.8606	0.5199	0.128
Mof_H 	H 	0.2534	0.9592	0.4491	0.149
Mof_H 	H 	0.9771	0.3265	0.5782	0.151
Mof_H 	H 	0.0839	0.3992	0.6938	0.126
Mof_H 	H 	0.1926	0.46	0.6296	0.157
Mof_H 	H 	0.1394	0.319	0.5199	0.108
Mof_H 	H 	0.0408	0.2942	0.4491	0.09
Mof_C 	C 	0.1259	0.5636	0.1602	0.49
Mof_C 	C 	0.116	0.6673	0.1401	-0.378
Mof_C 	C 	0.184	0.7311	0.9299	0.345
Mof_C 	C 	0.0993	0.7465	0.9886	-0.094
Mof_C 	C 	0.4377	0.8741	0.1602	0.504
Mof_C 	C 	0.5513	0.884	0.1401	-0.395
Mof_C 	C 	0.5471	0.816	0.9299	0.368
Mof_C 	C 	0.6472	0.9007	0.9886	-0.134
Mof_C 	C 	0.4364	0.5623	0.1602	0.494
Mof_C 	C 	0.3327	0.4487	0.1401	-0.382
Mof_C 	C 	0.2689	0.4529	0.9299	0.347
Mof_C 	C 	0.2535	0.3528	0.9886	-0.088
Mof_C 	C 	0.5623	0.4364	0.3398	0.502
Mof_C 	C 	0.4487	0.3327	0.3599	-0.392
Mof_C 	C 	0.4529	0.2689	0.5701	0.398
Mof_C 	C 	0.3528	0.2535	0.5114	-0.299
Mof_C 	C 	0.5636	0.1259	0.3398	0.497
Mof_C 	C 	0.6673	0.116	0.3599	-0.387
Mof_C 	C 	0.7311	0.184	0.5701	0.394
Mof_C 	C 	0.7465	0.0993	0.5114	-0.298
Mof_C 	C 	0.8741	0.4377	0.3398	0.512
Mof_C 	C 	0.884	0.5513	0.3599	-0.404
Mof_C 	C 	0.816	0.5471	0.5701	0.416
Mof_C 	C 	0.9007	0.6472	0.5114	-0.331
Mof_C 	C 	0.8741	0.4364	0.8398	0.516
Mof_C 	C 	0.884	0.3327	0.8599	-0.406
Mof_C 	C 	0.816	0.2689	0.0701	0.46
Mof_C 	C 	0.9007	0.2535	0.0114	-0.515
Mof_C 	C 	0.5623	0.1259	0.8398	0.502
Mof_C 	C 	0.4487	0.116	0.8599	-0.39
Mof_C 	C 	0.4529	0.184	0.0701	0.441
Mof_C 	C 	0.3528	0.0993	0.0114	-0.493
Mof_C 	C 	0.5636	0.4377	0.8398	0.513
Mof_C 	C 	0.6673	0.5513	0.8599	-0.407
Mof_C 	C 	0.7311	0.5471	0.0701	0.457
Mof_C 	C 	0.7465	0.6472	0.0114	-0.519
Mof_C 	C 	0.4377	0.5636	0.6602	0.507
Mof_C 	C 	0.5513	0.6673	0.6401	-0.401
Mof_C 	C 	0.5471	0.7311	0.4299	0.408
Mof_C 	C 	0.6472	0.7465	0.4886	-0.322
Mof_C 	C 	0.4364	0.8741	0.6602	0.51
Mof_C 	C 	0.3327	0.884	0.6401	-0.401
Mof_C 	C 	0.2689	0.816	0.4299	0.412
Mof_C 	C 	0.2535	0.9007	0.4886	-0.32
Mof_C 	C 	0.1259	0.5623	0.6602	0.496
Mof_C 	C 	0.116	0.4487	0.6401	-0.385
Mof_C 	C 	0.184	0.4529	0.4299	0.389
Mof_C 	C 	0.0993	0.3528	0.4886	-0.287
Mof_N 	N 	0.0427	0.6528	0.0584	-0.254
Mof_N 	N 	0.6101	0.9573	0.0584	-0.136
Mof_N 	N 	0.3472	0.3899	0.0584	-0.205
Mof_N 	N 	0.3899	0.3472	0.4416	-0.155
Mof_N 	N 	0.6528	0.0427	0.4416	-0.208
Mof_N 	N 	0.9573	0.6101	0.4416	-0.093
Mof_N 	N 	0.9573	0.3472	0.9416	-0.045
Mof_N 	N 	0.3899	0.0427	0.9416	-0.153
Mof_N 	N 	0.6528	0.6101	0.9416	-0.098
Mof_N 	N 	0.6101	0.6528	0.5584	-0.15
Mof_N 	N 	0.3472	0.9573	0.5584	-0.092
Mof_N 	N 	0.0427	0.3899	0.5584	-0.207
Mof_O 	O 	0.1885	0.6395	0.9413	-0.504
Mof_O 	O 	0.0744	0.4761	0.1083	-0.464
Mof_O 	O 	0.2458	0.8056	0.8728	-0.382
Mof_O 	O 	0.1842	0.5653	0.2284	-0.556
Mof_O 	O 	0.451	0.8115	0.9413	-0.495
Mof_O 	O 	0.4017	0.9256	0.1083	-0.41
Mof_O 	O 	0.5598	0.7542	0.8728	-0.386
Mof_O 	O 	0.3811	0.8158	0.2284	-0.542
Mof_O 	O 	0.3605	0.549	0.9413	-0.501
Mof_O 	O 	0.5239	0.5983	0.1083	-0.44
Mof_O 	O 	0.1944	0.4402	0.8728	-0.395
Mof_O 	O 	0.4347	0.6189	0.2284	-0.547
Mof_O 	O 	0.549	0.3605	0.5587	-0.535
Mof_O 	O 	0.5983	0.5239	0.3917	-0.431
Mof_O 	O 	0.4402	0.1944	0.6272	-0.419
Mof_O 	O 	0.6189	0.4347	0.2716	-0.547
Mof_O 	O 	0.6395	0.1885	0.5587	-0.538
Mof_O 	O 	0.4761	0.0744	0.3917	-0.457
Mof_O 	O 	0.8056	0.2458	0.6272	-0.406
Mof_O 	O 	0.5653	0.1842	0.2716	-0.556
Mof_O 	O 	0.8115	0.451	0.5587	-0.528
Mof_O 	O 	0.9256	0.4017	0.3917	-0.403
Mof_O 	O 	0.7542	0.5598	0.6272	-0.408
Mof_O 	O 	0.8158	0.3811	0.2716	-0.542
Mof_O 	O 	0.8115	0.3605	0.0587	-0.554
Mof_O 	O 	0.9256	0.5239	0.8917	-0.384
Mof_O 	O 	0.7542	0.1944	0.1272	-0.438
Mof_O 	O 	0.8158	0.4347	0.7716	-0.542
Mof_O 	O 	0.549	0.1885	0.0587	-0.566
Mof_O 	O 	0.5983	0.0744	0.8917	-0.435
Mof_O 	O 	0.4402	0.2458	0.1272	-0.437
Mof_O 	O 	0.6189	0.1842	0.7716	-0.555
Mof_O 	O 	0.6395	0.451	0.0587	-0.564
Mof_O 	O 	0.4761	0.4017	0.8917	-0.417
Mof_O 	O 	0.8056	0.5598	0.1272	-0.424
Mof_O 	O 	0.5653	0.3811	0.7716	-0.551
Mof_O 	O 	0.451	0.6395	0.4413	-0.536
Mof_O 	O 	0.4017	0.4761	0.6083	-0.436
Mof_O 	O 	0.5598	0.8056	0.3728	-0.403
Mof_O 	O 	0.3811	0.5653	0.7284	-0.552
Mof_O 	O 	0.3605	0.8115	0.4413	-0.526
Mof_O 	O 	0.5239	0.9256	0.6083	-0.399
Mof_O 	O 	0.1944	0.7542	0.3728	-0.416
Mof_O 	O 	0.4347	0.8158	0.7284	-0.542
Mof_O 	O 	0.1885	0.549	0.4413	-0.537
Mof_O 	O 	0.0744	0.5983	0.6083	-0.453
Mof_O 	O 	0.2458	0.4402	0.3728	-0.415
Mof_O 	O 	0.1842	0.6189	0.7284	-0.555
_end
