data_functionalizedCrystal
_audit_creation_method	'EQeq! by Chris Wilmer'
_symmetry_space_group_name_H-M	'P1'
_symmetry_Int_Tables_number	1
_symmetry_cell_setting	triclinic
loop_
_symmetry_equiv_pos_as_xyz
  x,y,z
_cell_length_a	24.633
_cell_length_b	13.038
_cell_length_c	14.725
_cell_angle_alpha	90
_cell_angle_beta	96.69
_cell_angle_gamma	90
loop_
_atom_site_label
_atom_site_type_symbol
_atom_site_fract_x
_atom_site_fract_y
_atom_site_fract_z
_atom_site_charge
Mof_Eu	Eu	0.32801	0.70591	0.03101	2.069
Mof_O 	O 	0.22539	0.64523	0.96221	-0.62
Mof_O 	O 	0.29806	0.5532	0.94339	-0.494
Mof_O 	O 	0.27378	0.3459	0.64886	-0.558
Mof_O 	O 	0.19544	0.257	0.62282	-0.517
Mof_O 	O 	0.91202	0.1763	0.9579	-0.455
Mof_O 	O 	0.89669	0.3363	0.9937	-0.445
Mof_C 	C 	0.21311	0.4939	0.8698	-0.183
Mof_C 	C 	0.23569	0.4431	0.8	0.104
Mof_H 	H 	0.2717	0.4557	0.7901	0
Mof_C 	C 	0.20437	0.3736	0.7452	-0.182
Mof_C 	C 	0.15162	0.3506	0.7639	0.054
Mof_H 	H 	0.1311	0.3025	0.728	0.024
Mof_C 	C 	0.12892	0.3985	0.8357	-0.083
Mof_C 	C 	0.15957	0.4734	0.8863	0.044
Mof_H 	H 	0.1442	0.5099	0.9312	0.011
Mof_C 	C 	0.24778	0.5686	0.9283	0.45
Mof_C 	C 	0.22656	0.3215	0.6656	0.489
Mof_C 	C 	0.07427	0.3671	0.8588	0.097
Mof_C 	C 	0.03893	0.4376	0.8919	-0.148
Mof_H 	H 	0.0483	0.5067	0.895	0.078
Mof_C 	C 	0.9899	0.4059	0.9201	0.055
Mof_H 	H 	0.9665	0.4542	0.9409	0.02
Mof_C 	C 	0.97526	0.3037	0.918	-0.121
Mof_C 	C 	0.00929	0.233	0.8825	0.047
Mof_H 	H 	0.9993	0.1642	0.8784	0.014
Mof_C 	C 	0.05808	0.2646	0.8529	-0.144
Mof_H 	H 	0.0804	0.2166	0.8288	0.074
Mof_C 	C 	0.92493	0.2705	0.9587	0.329
Mof_Eu	Eu	0.82801	0.20591	0.03101	2.059
Mof_O 	O 	0.72539	0.14523	0.96221	-0.62
Mof_O 	O 	0.79806	0.0532	0.94339	-0.493
Mof_O 	O 	0.77378	0.8459	0.64886	-0.559
Mof_O 	O 	0.69544	0.757	0.62282	-0.517
Mof_O 	O 	0.41202	0.6763	0.9579	-0.457
Mof_O 	O 	0.39669	0.8363	0.9937	-0.448
Mof_C 	C 	0.71311	0.9939	0.8698	-0.184
Mof_C 	C 	0.73569	0.9431	0.8	0.104
Mof_H 	H 	0.7717	0.9557	0.7901	-0
Mof_C 	C 	0.70437	0.8736	0.7452	-0.182
Mof_C 	C 	0.65162	0.8506	0.7639	0.054
Mof_H 	H 	0.6311	0.8025	0.728	0.024
Mof_C 	C 	0.62892	0.8985	0.8357	-0.084
Mof_C 	C 	0.65957	0.9734	0.8863	0.044
Mof_H 	H 	0.6442	0.0099	0.9312	0.013
Mof_C 	C 	0.74778	0.0686	0.9283	0.451
Mof_C 	C 	0.72656	0.8215	0.6656	0.489
Mof_C 	C 	0.57427	0.8671	0.8588	0.1
Mof_C 	C 	0.53893	0.9376	0.8919	-0.15
Mof_H 	H 	0.5483	0.0067	0.895	0.08
Mof_C 	C 	0.4899	0.9059	0.9201	0.056
Mof_H 	H 	0.4665	0.9542	0.9409	0.018
Mof_C 	C 	0.47526	0.8037	0.918	-0.126
Mof_C 	C 	0.50929	0.733	0.8825	0.056
Mof_H 	H 	0.4993	0.6642	0.8784	0.01
Mof_C 	C 	0.55808	0.7646	0.8529	-0.148
Mof_H 	H 	0.5804	0.7166	0.8288	0.076
Mof_C 	C 	0.42493	0.7705	0.9587	0.331
Mof_Eu	Eu	0.67199	0.70591	0.46899	2.064
Mof_O 	O 	0.77461	0.64523	0.53779	-0.621
Mof_O 	O 	0.70194	0.5532	0.55661	-0.495
Mof_O 	O 	0.72622	0.3459	0.85114	-0.559
Mof_O 	O 	0.80456	0.257	0.87718	-0.516
Mof_O 	O 	0.08798	0.1763	0.5421	-0.457
Mof_O 	O 	0.10331	0.3363	0.5063	-0.447
Mof_C 	C 	0.78689	0.4939	0.6302	-0.183
Mof_C 	C 	0.76431	0.4431	0.7	0.104
Mof_H 	H 	0.7283	0.4557	0.7099	0
Mof_C 	C 	0.79563	0.3736	0.7548	-0.182
Mof_C 	C 	0.84838	0.3506	0.7361	0.054
Mof_H 	H 	0.8689	0.3025	0.772	0.024
Mof_C 	C 	0.87108	0.3985	0.6643	-0.084
Mof_C 	C 	0.84043	0.4734	0.6137	0.045
Mof_H 	H 	0.8558	0.5099	0.5688	0.011
Mof_C 	C 	0.75222	0.5686	0.5717	0.45
Mof_C 	C 	0.77344	0.3215	0.8344	0.489
Mof_C 	C 	0.92573	0.3671	0.6412	0.099
Mof_C 	C 	0.96107	0.4376	0.6081	-0.148
Mof_H 	H 	0.9517	0.5067	0.605	0.078
Mof_C 	C 	0.0101	0.4059	0.5799	0.055
Mof_H 	H 	0.0335	0.4542	0.5591	0.019
Mof_C 	C 	0.02474	0.3037	0.582	-0.126
Mof_C 	C 	0.99071	0.233	0.6175	0.057
Mof_H 	H 	0.0007	0.1642	0.6216	0.009
Mof_C 	C 	0.94192	0.2646	0.6471	-0.148
Mof_H 	H 	0.9196	0.2166	0.6712	0.076
Mof_C 	C 	0.07507	0.2705	0.5413	0.331
Mof_Eu	Eu	0.17199	0.20591	0.46899	2.064
Mof_O 	O 	0.27461	0.14523	0.53779	-0.621
Mof_O 	O 	0.20194	0.0532	0.55661	-0.495
Mof_O 	O 	0.22622	0.8459	0.85114	-0.559
Mof_O 	O 	0.30456	0.757	0.87718	-0.518
Mof_O 	O 	0.58798	0.6763	0.5421	-0.457
Mof_O 	O 	0.60331	0.8363	0.5063	-0.447
Mof_C 	C 	0.28689	0.9939	0.6302	-0.184
Mof_C 	C 	0.26431	0.9431	0.7	0.104
Mof_H 	H 	0.2283	0.9557	0.7099	-0
Mof_C 	C 	0.29563	0.8736	0.7548	-0.182
Mof_C 	C 	0.34838	0.8506	0.7361	0.054
Mof_H 	H 	0.3689	0.8025	0.772	0.024
Mof_C 	C 	0.37108	0.8985	0.6643	-0.084
Mof_C 	C 	0.34043	0.9734	0.6137	0.045
Mof_H 	H 	0.3558	0.0099	0.5688	0.011
Mof_C 	C 	0.25222	0.0686	0.5717	0.451
Mof_C 	C 	0.27344	0.8215	0.8344	0.489
Mof_C 	C 	0.42573	0.8671	0.6412	0.099
Mof_C 	C 	0.46107	0.9376	0.6081	-0.149
Mof_H 	H 	0.4517	0.0067	0.605	0.079
Mof_C 	C 	0.5101	0.9059	0.5799	0.055
Mof_H 	H 	0.5335	0.9542	0.5591	0.019
Mof_C 	C 	0.52474	0.8037	0.582	-0.125
Mof_C 	C 	0.49071	0.733	0.6175	0.055
Mof_H 	H 	0.5007	0.6642	0.6216	0.01
Mof_C 	C 	0.44192	0.7646	0.6471	-0.148
Mof_H 	H 	0.4196	0.7166	0.6712	0.076
Mof_C 	C 	0.57507	0.7705	0.5413	0.331
Mof_Eu	Eu	0.67199	0.29409	0.96899	2.068
Mof_O 	O 	0.77461	0.35477	0.03779	-0.621
Mof_O 	O 	0.70194	0.4468	0.05661	-0.495
Mof_O 	O 	0.72622	0.6541	0.35114	-0.559
Mof_O 	O 	0.80456	0.743	0.37718	-0.517
Mof_O 	O 	0.08798	0.8237	0.0421	-0.455
Mof_O 	O 	0.10331	0.6637	0.0063	-0.445
Mof_C 	C 	0.78689	0.5061	0.1302	-0.183
Mof_C 	C 	0.76431	0.5569	0.2	0.104
Mof_H 	H 	0.7283	0.5443	0.2099	0
Mof_C 	C 	0.79563	0.6264	0.2548	-0.182
Mof_C 	C 	0.84838	0.6494	0.2361	0.054
Mof_H 	H 	0.8689	0.6975	0.272	0.024
Mof_C 	C 	0.87108	0.6015	0.1643	-0.083
Mof_C 	C 	0.84043	0.5266	0.1137	0.044
Mof_H 	H 	0.8558	0.4901	0.0688	0.011
Mof_C 	C 	0.75222	0.4314	0.0717	0.45
Mof_C 	C 	0.77344	0.6785	0.3344	0.489
Mof_C 	C 	0.92573	0.6329	0.1412	0.097
Mof_C 	C 	0.96107	0.5624	0.1081	-0.148
Mof_H 	H 	0.9517	0.4933	0.105	0.078
Mof_C 	C 	0.0101	0.5941	0.0799	0.055
Mof_H 	H 	0.0335	0.5458	0.0591	0.02
Mof_C 	C 	0.02474	0.6963	0.082	-0.121
Mof_C 	C 	0.99071	0.767	0.1175	0.047
Mof_H 	H 	0.0007	0.8358	0.1216	0.014
Mof_C 	C 	0.94192	0.7354	0.1471	-0.144
Mof_H 	H 	0.9196	0.7834	0.1712	0.074
Mof_C 	C 	0.07507	0.7295	0.0413	0.329
Mof_Eu	Eu	0.17199	0.79409	0.96899	2.059
Mof_O 	O 	0.27461	0.85477	0.03779	-0.62
Mof_O 	O 	0.20194	0.9468	0.05661	-0.493
Mof_O 	O 	0.22622	0.1541	0.35114	-0.559
Mof_O 	O 	0.30456	0.243	0.37718	-0.517
Mof_O 	O 	0.58798	0.3237	0.0421	-0.457
Mof_O 	O 	0.60331	0.1637	0.0063	-0.448
Mof_C 	C 	0.28689	0.0061	0.1302	-0.184
Mof_C 	C 	0.26431	0.0569	0.2	0.104
Mof_H 	H 	0.2283	0.0443	0.2099	-0
Mof_C 	C 	0.29563	0.1264	0.2548	-0.182
Mof_C 	C 	0.34838	0.1494	0.2361	0.054
Mof_H 	H 	0.3689	0.1975	0.272	0.024
Mof_C 	C 	0.37108	0.1015	0.1643	-0.084
Mof_C 	C 	0.34043	0.0266	0.1137	0.044
Mof_H 	H 	0.3558	0.9901	0.0688	0.013
Mof_C 	C 	0.25222	0.9314	0.0717	0.451
Mof_C 	C 	0.27344	0.1785	0.3344	0.489
Mof_C 	C 	0.42573	0.1329	0.1412	0.1
Mof_C 	C 	0.46107	0.0624	0.1081	-0.15
Mof_H 	H 	0.4517	0.9933	0.105	0.08
Mof_C 	C 	0.5101	0.0941	0.0799	0.056
Mof_H 	H 	0.5335	0.0458	0.0591	0.018
Mof_C 	C 	0.52474	0.1963	0.082	-0.126
Mof_C 	C 	0.49071	0.267	0.1175	0.056
Mof_H 	H 	0.5007	0.3358	0.1216	0.01
Mof_C 	C 	0.44192	0.2354	0.1471	-0.148
Mof_H 	H 	0.4196	0.2834	0.1712	0.076
Mof_C 	C 	0.57507	0.2295	0.0413	0.331
Mof_Eu	Eu	0.32801	0.29409	0.53101	2.064
Mof_O 	O 	0.22539	0.35477	0.46221	-0.621
Mof_O 	O 	0.29806	0.4468	0.44339	-0.495
Mof_O 	O 	0.27378	0.6541	0.14886	-0.559
Mof_O 	O 	0.19544	0.743	0.12282	-0.516
Mof_O 	O 	0.91202	0.8237	0.4579	-0.457
Mof_O 	O 	0.89669	0.6637	0.4937	-0.447
Mof_C 	C 	0.21311	0.5061	0.3698	-0.183
Mof_C 	C 	0.23569	0.5569	0.3	0.104
Mof_H 	H 	0.2717	0.5443	0.2901	0
Mof_C 	C 	0.20437	0.6264	0.2452	-0.182
Mof_C 	C 	0.15162	0.6494	0.2639	0.054
Mof_H 	H 	0.1311	0.6975	0.228	0.024
Mof_C 	C 	0.12892	0.6015	0.3357	-0.084
Mof_C 	C 	0.15957	0.5266	0.3863	0.045
Mof_H 	H 	0.1442	0.4901	0.4312	0.011
Mof_C 	C 	0.24778	0.4314	0.4283	0.45
Mof_C 	C 	0.22656	0.6785	0.1656	0.489
Mof_C 	C 	0.07427	0.6329	0.3588	0.099
Mof_C 	C 	0.03893	0.5624	0.3919	-0.148
Mof_H 	H 	0.0483	0.4933	0.395	0.078
Mof_C 	C 	0.9899	0.5941	0.4201	0.055
Mof_H 	H 	0.9665	0.5458	0.4409	0.019
Mof_C 	C 	0.97526	0.6963	0.418	-0.126
Mof_C 	C 	0.00929	0.767	0.3825	0.057
Mof_H 	H 	0.9993	0.8358	0.3784	0.009
Mof_C 	C 	0.05808	0.7354	0.3529	-0.148
Mof_H 	H 	0.0804	0.7834	0.3288	0.076
Mof_C 	C 	0.92493	0.7295	0.4587	0.331
Mof_Eu	Eu	0.82801	0.79409	0.53101	2.064
Mof_O 	O 	0.72539	0.85477	0.46221	-0.621
Mof_O 	O 	0.79806	0.9468	0.44339	-0.495
Mof_O 	O 	0.77378	0.1541	0.14886	-0.559
Mof_O 	O 	0.69544	0.243	0.12282	-0.518
Mof_O 	O 	0.41202	0.3237	0.4579	-0.457
Mof_O 	O 	0.39669	0.1637	0.4937	-0.447
Mof_C 	C 	0.71311	0.0061	0.3698	-0.184
Mof_C 	C 	0.73569	0.0569	0.3	0.104
Mof_H 	H 	0.7717	0.0443	0.2901	-0
Mof_C 	C 	0.70437	0.1264	0.2452	-0.182
Mof_C 	C 	0.65162	0.1494	0.2639	0.054
Mof_H 	H 	0.6311	0.1975	0.228	0.024
Mof_C 	C 	0.62892	0.1015	0.3357	-0.084
Mof_C 	C 	0.65957	0.0266	0.3863	0.045
Mof_H 	H 	0.6442	0.9901	0.4312	0.011
Mof_C 	C 	0.74778	0.9314	0.4283	0.451
Mof_C 	C 	0.72656	0.1785	0.1656	0.489
Mof_C 	C 	0.57427	0.1329	0.3588	0.099
Mof_C 	C 	0.53893	0.0624	0.3919	-0.149
Mof_H 	H 	0.5483	0.9933	0.395	0.079
Mof_C 	C 	0.4899	0.0941	0.4201	0.055
Mof_H 	H 	0.4665	0.0458	0.4409	0.019
Mof_C 	C 	0.47526	0.1963	0.418	-0.125
Mof_C 	C 	0.50929	0.267	0.3825	0.055
Mof_H 	H 	0.4993	0.3358	0.3784	0.01
Mof_C 	C 	0.55808	0.2354	0.3529	-0.148
Mof_H 	H 	0.5804	0.2834	0.3288	0.076
Mof_C 	C 	0.42493	0.2295	0.4587	0.331
_end
