data_functionalizedCrystal
_audit_creation_method	'EQeq! by Chris Wilmer'
_symmetry_space_group_name_H-M	'P1'
_symmetry_Int_Tables_number	1
_symmetry_cell_setting	triclinic
loop_
_symmetry_equiv_pos_as_xyz
  x,y,z
_cell_length_a	18.3863
_cell_length_b	18.3863
_cell_length_c	33.5859
_cell_angle_alpha	105.886
_cell_angle_beta	105.886
_cell_angle_gamma	90.0001
loop_
_atom_site_label
_atom_site_type_symbol
_atom_site_fract_x
_atom_site_fract_y
_atom_site_fract_z
_atom_site_charge
Mof_Zn	Zn	0.22919	0.42244	0.1346	1.212
Mof_Zn	Zn	0.40541	0.71216	0.1346	1.212
Mof_Zn	Zn	0.42244	0.40541	0.6346	1.212
Mof_Zn	Zn	0.71216	0.22919	0.6346	1.212
Mof_Zn	Zn	0.90541	0.92244	0.1346	1.212
Mof_Zn	Zn	0.72919	0.21216	0.1346	1.212
Mof_Zn	Zn	0.21216	0.90541	0.6346	1.212
Mof_Zn	Zn	0.92244	0.72919	0.6346	1.212
Mof_H 	H 	0.3796	0.5315	0.2036	0.019
Mof_H 	H 	0.4615	0.496	0.2648	0.039
Mof_H 	H 	0.3135	0.3228	0.1922	-0.004
Mof_H 	H 	0.537	0.3925	0.2848	0.061
Mof_H 	H 	0.5858	0.3179	0.3306	0.098
Mof_H 	H 	0.3299	0.291	0.2596	0.043
Mof_H 	H 	0.3796	0.2125	0.302	0.112
Mof_H 	H 	0.6568	0.3805	0.614	0.013
Mof_H 	H 	0.5873	0.3898	0.5412	0.037
Mof_H 	H 	0.6622	0.1898	0.5314	-0.014
Mof_H 	H 	0.662	0.1827	0.4632	0.04
Mof_H 	H 	0.6185	0.1515	0.3888	0.094
Mof_H 	H 	0.5146	0.3449	0.4714	0.04
Mof_H 	H 	0.4764	0.318	0.3974	0.099
Mof_H 	H 	0.0803	0.2731	0.202	0.06
Mof_H 	H 	0.014	0.1595	0.1914	0.049
Mof_H 	H 	0.1166	0.1938	0.0858	0.054
Mof_H 	H 	0.0542	0.0773	0.0762	0.047
Mof_H 	H 	0.324	0.6721	0.2036	0.018
Mof_H 	H 	0.3033	0.7688	0.2648	0.038
Mof_H 	H 	0.3787	0.8694	0.1922	-0.004
Mof_H 	H 	0.2478	0.8923	0.2848	0.06
Mof_H 	H 	0.2448	0.0127	0.3306	0.099
Mof_H 	H 	0.4297	0.9686	0.2596	0.043
Mof_H 	H 	0.4224	0.0895	0.302	0.112
Mof_H 	H 	0.4572	0.2335	0.614	0.013
Mof_H 	H 	0.4539	0.1514	0.5412	0.037
Mof_H 	H 	0.3692	0.3416	0.5314	-0.014
Mof_H 	H 	0.3012	0.2805	0.4632	0.04
Mof_H 	H 	0.2703	0.2373	0.3888	0.094
Mof_H 	H 	0.4568	0.1265	0.4714	0.04
Mof_H 	H 	0.421	0.0794	0.3974	0.099
Mof_H 	H 	0.6217	0.9289	0.202	0.06
Mof_H 	H 	0.6774	0.0319	0.1914	0.05
Mof_H 	H 	0.4692	0.892	0.0858	0.054
Mof_H 	H 	0.522	0.9989	0.0762	0.048
Mof_H 	H 	0.5315	0.324	0.7036	0.018
Mof_H 	H 	0.496	0.3033	0.7648	0.038
Mof_H 	H 	0.3228	0.3787	0.6922	-0.004
Mof_H 	H 	0.3925	0.2478	0.7848	0.061
Mof_H 	H 	0.3179	0.2448	0.8306	0.098
Mof_H 	H 	0.291	0.4297	0.7596	0.043
Mof_H 	H 	0.2125	0.4224	0.802	0.112
Mof_H 	H 	0.3805	0.4572	0.114	0.013
Mof_H 	H 	0.3898	0.4539	0.0412	0.037
Mof_H 	H 	0.1898	0.3692	0.0314	-0.014
Mof_H 	H 	0.1827	0.3012	0.9632	0.04
Mof_H 	H 	0.1515	0.2703	0.8888	0.094
Mof_H 	H 	0.3449	0.4568	0.9714	0.04
Mof_H 	H 	0.318	0.421	0.8974	0.099
Mof_H 	H 	0.2731	0.6217	0.702	0.06
Mof_H 	H 	0.1595	0.6774	0.6914	0.05
Mof_H 	H 	0.1938	0.4692	0.5858	0.054
Mof_H 	H 	0.0773	0.522	0.5762	0.048
Mof_H 	H 	0.6721	0.3796	0.7036	0.018
Mof_H 	H 	0.7688	0.4615	0.7648	0.038
Mof_H 	H 	0.8694	0.3135	0.6922	-0.004
Mof_H 	H 	0.8923	0.537	0.7848	0.06
Mof_H 	H 	0.0127	0.5858	0.8306	0.098
Mof_H 	H 	0.9686	0.3299	0.7596	0.043
Mof_H 	H 	0.0895	0.3796	0.802	0.112
Mof_H 	H 	0.2335	0.6568	0.114	0.013
Mof_H 	H 	0.1514	0.5873	0.0412	0.037
Mof_H 	H 	0.3416	0.6622	0.0314	-0.014
Mof_H 	H 	0.2805	0.662	0.9632	0.04
Mof_H 	H 	0.2373	0.6185	0.8888	0.094
Mof_H 	H 	0.1265	0.5146	0.9714	0.04
Mof_H 	H 	0.0794	0.4764	0.8974	0.099
Mof_H 	H 	0.9289	0.0803	0.702	0.06
Mof_H 	H 	0.0319	0.014	0.6914	0.05
Mof_H 	H 	0.892	0.1166	0.5858	0.054
Mof_H 	H 	0.9989	0.0542	0.5762	0.047
Mof_H 	H 	0.824	0.0315	0.2036	0.019
Mof_H 	H 	0.8033	0.996	0.2648	0.037
Mof_H 	H 	0.8787	0.8228	0.1922	-0.004
Mof_H 	H 	0.7478	0.8925	0.2848	0.061
Mof_H 	H 	0.7448	0.8179	0.3306	0.098
Mof_H 	H 	0.9297	0.791	0.2596	0.043
Mof_H 	H 	0.9224	0.7125	0.302	0.111
Mof_H 	H 	0.9572	0.8805	0.614	0.013
Mof_H 	H 	0.9539	0.8898	0.5412	0.037
Mof_H 	H 	0.8692	0.6898	0.5314	-0.014
Mof_H 	H 	0.8012	0.6827	0.4632	0.04
Mof_H 	H 	0.7703	0.6515	0.3888	0.094
Mof_H 	H 	0.9568	0.8449	0.4714	0.04
Mof_H 	H 	0.921	0.818	0.3974	0.098
Mof_H 	H 	0.1217	0.7731	0.202	0.059
Mof_H 	H 	0.1774	0.6595	0.1914	0.05
Mof_H 	H 	0.9692	0.6938	0.0858	0.053
Mof_H 	H 	0.022	0.5773	0.0762	0.048
Mof_H 	H 	0.8796	0.1721	0.2036	0.018
Mof_H 	H 	0.9615	0.2688	0.2648	0.038
Mof_H 	H 	0.8135	0.3694	0.1922	-0.004
Mof_H 	H 	0.037	0.3923	0.2848	0.061
Mof_H 	H 	0.0858	0.5127	0.3306	0.098
Mof_H 	H 	0.8299	0.4686	0.2596	0.044
Mof_H 	H 	0.8796	0.5895	0.302	0.111
Mof_H 	H 	0.1568	0.7335	0.614	0.013
Mof_H 	H 	0.0873	0.6514	0.5412	0.037
Mof_H 	H 	0.1622	0.8416	0.5314	-0.014
Mof_H 	H 	0.162	0.7805	0.4632	0.04
Mof_H 	H 	0.1185	0.7373	0.3888	0.094
Mof_H 	H 	0.0146	0.6265	0.4714	0.04
Mof_H 	H 	0.9764	0.5794	0.3974	0.098
Mof_H 	H 	0.5803	0.4289	0.202	0.06
Mof_H 	H 	0.514	0.5319	0.1914	0.05
Mof_H 	H 	0.6166	0.392	0.0858	0.054
Mof_H 	H 	0.5542	0.4989	0.0762	0.048
Mof_H 	H 	0.1721	0.824	0.7036	0.018
Mof_H 	H 	0.2688	0.8033	0.7648	0.038
Mof_H 	H 	0.3694	0.8787	0.6922	-0.004
Mof_H 	H 	0.3923	0.7478	0.7848	0.061
Mof_H 	H 	0.5127	0.7448	0.8306	0.098
Mof_H 	H 	0.4686	0.9297	0.7596	0.043
Mof_H 	H 	0.5895	0.9224	0.802	0.111
Mof_H 	H 	0.7335	0.9572	0.114	0.013
Mof_H 	H 	0.6514	0.9539	0.0412	0.037
Mof_H 	H 	0.8416	0.8692	0.0314	-0.014
Mof_H 	H 	0.7805	0.8012	0.9632	0.039
Mof_H 	H 	0.7373	0.7703	0.8888	0.094
Mof_H 	H 	0.6265	0.9568	0.9714	0.04
Mof_H 	H 	0.5794	0.921	0.8974	0.099
Mof_H 	H 	0.4289	0.1217	0.702	0.06
Mof_H 	H 	0.5319	0.1774	0.6914	0.05
Mof_H 	H 	0.392	0.9692	0.5858	0.054
Mof_H 	H 	0.4989	0.022	0.5762	0.047
Mof_H 	H 	0.0315	0.8796	0.7036	0.019
Mof_H 	H 	0.996	0.9615	0.7648	0.037
Mof_H 	H 	0.8228	0.8135	0.6922	-0.004
Mof_H 	H 	0.8925	0.037	0.7848	0.061
Mof_H 	H 	0.8179	0.0858	0.8306	0.098
Mof_H 	H 	0.791	0.8299	0.7596	0.044
Mof_H 	H 	0.7125	0.8796	0.802	0.111
Mof_H 	H 	0.8805	0.1568	0.114	0.014
Mof_H 	H 	0.8898	0.0873	0.0412	0.037
Mof_H 	H 	0.6898	0.1622	0.0314	-0.014
Mof_H 	H 	0.6827	0.162	0.9632	0.04
Mof_H 	H 	0.6515	0.1185	0.8888	0.094
Mof_H 	H 	0.8449	0.0146	0.9714	0.041
Mof_H 	H 	0.818	0.9764	0.8974	0.097
Mof_H 	H 	0.7731	0.5803	0.702	0.06
Mof_H 	H 	0.6595	0.514	0.6914	0.05
Mof_H 	H 	0.6938	0.6166	0.5858	0.054
Mof_H 	H 	0.5773	0.5542	0.5762	0.048
Mof_C 	C 	0.37599	0.48389	0.20918	0.011
Mof_C 	C 	0.42118	0.46468	0.24236	0.003
Mof_C 	C 	0.3403	0.3715	0.2028	0.107
Mof_C 	C 	0.42892	0.34732	0.26684	0.052
Mof_C 	C 	0.50458	0.35608	0.28836	-0.017
Mof_C 	C 	0.53345	0.31165	0.3151	-0.159
Mof_C 	C 	0.3829	0.2953	0.2732	-0
Mof_C 	C 	0.41143	0.24973	0.29866	-0.175
Mof_C 	C 	0.48641	0.25911	0.31902	0.225
Mof_C 	C 	0.54304	0.23244	0.38608	0.216
Mof_C 	C 	0.64802	0.34092	0.58784	0.013
Mof_C 	C 	0.61155	0.34715	0.5477	0.004
Mof_C 	C 	0.65098	0.24008	0.54336	0.123
Mof_C 	C 	0.59244	0.26614	0.47408	0.049
Mof_C 	C 	0.62325	0.20955	0.4497	-0.015
Mof_C 	C 	0.59828	0.19178	0.40596	-0.157
Mof_C 	C 	0.53656	0.30606	0.45432	-0.003
Mof_C 	C 	0.51349	0.28959	0.41078	-0.166
Mof_C 	C 	0.14973	0.31693	0.15206	0.324
Mof_C 	C 	0.1047	0.2438	0.1448	-0.058
Mof_C 	C 	0.07446	0.23346	0.17612	-0.031
Mof_C 	C 	0.03573	0.16573	0.16986	-0.011
Mof_C 	C 	0.09643	0.18633	0.10766	-0.026
Mof_C 	C 	0.05863	0.11733	0.10186	-0.017
Mof_C 	C 	0.02744	0.10624	0.13308	-0.075
Mof_C 	C 	0.98761	0.03181	0.12702	0.322
Mof_C 	C 	0.33319	0.72529	0.20918	0.011
Mof_C 	C 	0.32118	0.77768	0.24236	0.003
Mof_C 	C 	0.3625	0.8313	0.2028	0.107
Mof_C 	C 	0.33792	0.91952	0.26684	0.051
Mof_C 	C 	0.28378	0.93228	0.28836	-0.015
Mof_C 	C 	0.28165	0.00345	0.3151	-0.161
Mof_C 	C 	0.3903	0.9779	0.2732	0.001
Mof_C 	C 	0.38723	0.04893	0.29866	-0.177
Mof_C 	C 	0.33261	0.05991	0.31902	0.226
Mof_C 	C 	0.34304	0.15364	0.38608	0.216
Mof_C 	C 	0.43982	0.24692	0.58784	0.013
Mof_C 	C 	0.43615	0.20055	0.5477	0.004
Mof_C 	C 	0.39238	0.30328	0.54336	0.123
Mof_C 	C 	0.38164	0.20794	0.47408	0.049
Mof_C 	C 	0.32645	0.24015	0.4497	-0.014
Mof_C 	C 	0.30768	0.21418	0.40596	-0.157
Mof_C 	C 	0.41776	0.14826	0.45432	-0.003
Mof_C 	C 	0.39729	0.12119	0.41078	-0.166
Mof_C 	C 	0.50233	0.83513	0.15206	0.324
Mof_C 	C 	0.5401	0.901	0.1448	-0.059
Mof_C 	C 	0.60166	0.94266	0.17612	-0.03
Mof_C 	C 	0.63413	0.00413	0.16986	-0.012
Mof_C 	C 	0.51123	0.92133	0.10766	-0.025
Mof_C 	C 	0.54323	0.98453	0.10186	-0.018
Mof_C 	C 	0.60564	0.02684	0.13308	-0.073
Mof_C 	C 	0.63941	0.09521	0.12702	0.319
Mof_C 	C 	0.48389	0.33319	0.70918	0.011
Mof_C 	C 	0.46468	0.32118	0.74236	0.003
Mof_C 	C 	0.3715	0.3625	0.7028	0.107
Mof_C 	C 	0.34732	0.33792	0.76684	0.052
Mof_C 	C 	0.35608	0.28378	0.78836	-0.017
Mof_C 	C 	0.31165	0.28165	0.8151	-0.159
Mof_C 	C 	0.2953	0.3903	0.7732	-0
Mof_C 	C 	0.24973	0.38723	0.79866	-0.175
Mof_C 	C 	0.25911	0.33261	0.81902	0.225
Mof_C 	C 	0.23244	0.34304	0.88608	0.216
Mof_C 	C 	0.34092	0.43982	0.08784	0.013
Mof_C 	C 	0.34715	0.43615	0.0477	0.004
Mof_C 	C 	0.24008	0.39238	0.04336	0.123
Mof_C 	C 	0.26614	0.38164	0.97408	0.049
Mof_C 	C 	0.20955	0.32645	0.9497	-0.014
Mof_C 	C 	0.19178	0.30768	0.90596	-0.157
Mof_C 	C 	0.30606	0.41776	0.95432	-0.003
Mof_C 	C 	0.28959	0.39729	0.91078	-0.166
Mof_C 	C 	0.31693	0.50233	0.65206	0.324
Mof_C 	C 	0.2438	0.5401	0.6448	-0.059
Mof_C 	C 	0.23346	0.60166	0.67612	-0.03
Mof_C 	C 	0.16573	0.63413	0.66986	-0.012
Mof_C 	C 	0.18633	0.51123	0.60766	-0.025
Mof_C 	C 	0.11733	0.54323	0.60186	-0.018
Mof_C 	C 	0.10624	0.60564	0.63308	-0.073
Mof_C 	C 	0.03181	0.63941	0.62702	0.32
Mof_C 	C 	0.72529	0.37599	0.70918	0.011
Mof_C 	C 	0.77768	0.42118	0.74236	0.003
Mof_C 	C 	0.8313	0.3403	0.7028	0.107
Mof_C 	C 	0.91952	0.42892	0.76684	0.051
Mof_C 	C 	0.93228	0.50458	0.78836	-0.017
Mof_C 	C 	0.00345	0.53345	0.8151	-0.16
Mof_C 	C 	0.9779	0.3829	0.7732	0
Mof_C 	C 	0.04893	0.41143	0.79866	-0.176
Mof_C 	C 	0.05991	0.48641	0.81902	0.225
Mof_C 	C 	0.15364	0.54304	0.88608	0.216
Mof_C 	C 	0.24692	0.64802	0.08784	0.013
Mof_C 	C 	0.20055	0.61155	0.0477	0.004
Mof_C 	C 	0.30328	0.65098	0.04336	0.123
Mof_C 	C 	0.20794	0.59244	0.97408	0.049
Mof_C 	C 	0.24015	0.62325	0.9497	-0.014
Mof_C 	C 	0.21418	0.59828	0.90596	-0.157
Mof_C 	C 	0.14826	0.53656	0.95432	-0.003
Mof_C 	C 	0.12119	0.51349	0.91078	-0.166
Mof_C 	C 	0.83513	0.14973	0.65206	0.324
Mof_C 	C 	0.901	0.1047	0.6448	-0.059
Mof_C 	C 	0.94266	0.07446	0.67612	-0.028
Mof_C 	C 	0.00413	0.03573	0.66986	-0.013
Mof_C 	C 	0.92133	0.09643	0.60766	-0.025
Mof_C 	C 	0.98453	0.05863	0.60186	-0.016
Mof_C 	C 	0.02684	0.02744	0.63308	-0.075
Mof_C 	C 	0.09521	0.98761	0.62702	0.321
Mof_C 	C 	0.83319	0.98389	0.20918	0.009
Mof_C 	C 	0.82118	0.96468	0.24236	0.004
Mof_C 	C 	0.8625	0.8715	0.2028	0.107
Mof_C 	C 	0.83792	0.84732	0.26684	0.052
Mof_C 	C 	0.78378	0.85608	0.28836	-0.017
Mof_C 	C 	0.78165	0.81165	0.3151	-0.159
Mof_C 	C 	0.8903	0.7953	0.2732	-0
Mof_C 	C 	0.88723	0.74973	0.29866	-0.175
Mof_C 	C 	0.83261	0.75911	0.31902	0.225
Mof_C 	C 	0.84304	0.73244	0.38608	0.216
Mof_C 	C 	0.93982	0.84092	0.58784	0.013
Mof_C 	C 	0.93615	0.84715	0.5477	0.004
Mof_C 	C 	0.89238	0.74008	0.54336	0.123
Mof_C 	C 	0.88164	0.76614	0.47408	0.049
Mof_C 	C 	0.82645	0.70955	0.4497	-0.015
Mof_C 	C 	0.80768	0.69178	0.40596	-0.157
Mof_C 	C 	0.91776	0.80606	0.45432	-0.003
Mof_C 	C 	0.89729	0.78959	0.41078	-0.166
Mof_C 	C 	0.00233	0.81693	0.15206	0.326
Mof_C 	C 	0.0401	0.7438	0.1448	-0.06
Mof_C 	C 	0.10166	0.73346	0.17612	-0.029
Mof_C 	C 	0.13413	0.66573	0.16986	-0.013
Mof_C 	C 	0.01123	0.68633	0.10766	-0.023
Mof_C 	C 	0.04323	0.61733	0.10186	-0.019
Mof_C 	C 	0.10564	0.60624	0.13308	-0.072
Mof_C 	C 	0.13941	0.53181	0.12702	0.319
Mof_C 	C 	0.87599	0.22529	0.20918	0.011
Mof_C 	C 	0.92118	0.27768	0.24236	0.003
Mof_C 	C 	0.8403	0.3313	0.2028	0.107
Mof_C 	C 	0.92892	0.41952	0.26684	0.052
Mof_C 	C 	0.00458	0.43228	0.28836	-0.018
Mof_C 	C 	0.03345	0.50345	0.3151	-0.158
Mof_C 	C 	0.8829	0.4779	0.2732	-0.001
Mof_C 	C 	0.91143	0.54893	0.29866	-0.175
Mof_C 	C 	0.98641	0.55991	0.31902	0.224
Mof_C 	C 	0.04304	0.65364	0.38608	0.216
Mof_C 	C 	0.14802	0.74692	0.58784	0.013
Mof_C 	C 	0.11155	0.70055	0.5477	0.004
Mof_C 	C 	0.15098	0.80328	0.54336	0.123
Mof_C 	C 	0.09244	0.70794	0.47408	0.05
Mof_C 	C 	0.12325	0.74015	0.4497	-0.015
Mof_C 	C 	0.09828	0.71418	0.40596	-0.156
Mof_C 	C 	0.03656	0.64826	0.45432	-0.004
Mof_C 	C 	0.01349	0.62119	0.41078	-0.165
Mof_C 	C 	0.64973	0.33513	0.15206	0.324
Mof_C 	C 	0.6047	0.401	0.1448	-0.059
Mof_C 	C 	0.57446	0.44266	0.17612	-0.029
Mof_C 	C 	0.53573	0.50413	0.16986	-0.012
Mof_C 	C 	0.59643	0.42133	0.10766	-0.024
Mof_C 	C 	0.55863	0.48453	0.10186	-0.018
Mof_C 	C 	0.52744	0.52684	0.13308	-0.073
Mof_C 	C 	0.48761	0.59521	0.12702	0.319
Mof_C 	C 	0.22529	0.83319	0.70918	0.011
Mof_C 	C 	0.27768	0.82118	0.74236	0.003
Mof_C 	C 	0.3313	0.8625	0.7028	0.107
Mof_C 	C 	0.41952	0.83792	0.76684	0.052
Mof_C 	C 	0.43228	0.78378	0.78836	-0.017
Mof_C 	C 	0.50345	0.78165	0.8151	-0.159
Mof_C 	C 	0.4779	0.8903	0.7732	-0.001
Mof_C 	C 	0.54893	0.88723	0.79866	-0.175
Mof_C 	C 	0.55991	0.83261	0.81902	0.225
Mof_C 	C 	0.65364	0.84304	0.88608	0.216
Mof_C 	C 	0.74692	0.93982	0.08784	0.013
Mof_C 	C 	0.70055	0.93615	0.0477	0.004
Mof_C 	C 	0.80328	0.89238	0.04336	0.123
Mof_C 	C 	0.70794	0.88164	0.97408	0.049
Mof_C 	C 	0.74015	0.82645	0.9497	-0.014
Mof_C 	C 	0.71418	0.80768	0.90596	-0.157
Mof_C 	C 	0.64826	0.91776	0.95432	-0.003
Mof_C 	C 	0.62119	0.89729	0.91078	-0.166
Mof_C 	C 	0.33513	0.00233	0.65206	0.323
Mof_C 	C 	0.401	0.0401	0.6448	-0.059
Mof_C 	C 	0.44266	0.10166	0.67612	-0.03
Mof_C 	C 	0.50413	0.13413	0.66986	-0.012
Mof_C 	C 	0.42133	0.01123	0.60766	-0.026
Mof_C 	C 	0.48453	0.04323	0.60186	-0.018
Mof_C 	C 	0.52684	0.10564	0.63308	-0.073
Mof_C 	C 	0.59521	0.13941	0.62702	0.319
Mof_C 	C 	0.98389	0.87599	0.70918	0.009
Mof_C 	C 	0.96468	0.92118	0.74236	0.004
Mof_C 	C 	0.8715	0.8403	0.7028	0.107
Mof_C 	C 	0.84732	0.92892	0.76684	0.051
Mof_C 	C 	0.85608	0.00458	0.78836	-0.017
Mof_C 	C 	0.81165	0.03345	0.8151	-0.158
Mof_C 	C 	0.7953	0.8829	0.7732	-0.001
Mof_C 	C 	0.74973	0.91143	0.79866	-0.174
Mof_C 	C 	0.75911	0.98641	0.81902	0.223
Mof_C 	C 	0.73244	0.04304	0.88608	0.214
Mof_C 	C 	0.84092	0.14802	0.08784	0.013
Mof_C 	C 	0.84715	0.11155	0.0477	0.004
Mof_C 	C 	0.74008	0.15098	0.04336	0.123
Mof_C 	C 	0.76614	0.09244	0.97408	0.051
Mof_C 	C 	0.70955	0.12325	0.9497	-0.016
Mof_C 	C 	0.69178	0.09828	0.90596	-0.155
Mof_C 	C 	0.80606	0.03656	0.95432	-0.005
Mof_C 	C 	0.78959	0.01349	0.91078	-0.163
Mof_C 	C 	0.81693	0.64973	0.65206	0.324
Mof_C 	C 	0.7438	0.6047	0.6448	-0.059
Mof_C 	C 	0.73346	0.57446	0.67612	-0.029
Mof_C 	C 	0.66573	0.53573	0.66986	-0.012
Mof_C 	C 	0.68633	0.59643	0.60766	-0.024
Mof_C 	C 	0.61733	0.55863	0.60186	-0.018
Mof_C 	C 	0.60624	0.52744	0.63308	-0.073
Mof_C 	C 	0.53181	0.48761	0.62702	0.319
Mof_N 	N 	0.32398	0.42528	0.18436	-0.259
Mof_N 	N 	0.39889	0.39219	0.23818	-0.13
Mof_N 	N 	0.66917	0.27187	0.58474	-0.272
Mof_N 	N 	0.61655	0.28195	0.5195	-0.139
Mof_N 	N 	0.36038	0.75908	0.18436	-0.259
Mof_N 	N 	0.33929	0.84599	0.23818	-0.13
Mof_N 	N 	0.41557	0.31287	0.58474	-0.272
Mof_N 	N 	0.40295	0.23755	0.5195	-0.139
Mof_N 	N 	0.42528	0.36038	0.68436	-0.259
Mof_N 	N 	0.39219	0.33929	0.73818	-0.13
Mof_N 	N 	0.27187	0.41557	0.08474	-0.272
Mof_N 	N 	0.28195	0.40295	0.0195	-0.139
Mof_N 	N 	0.75908	0.32398	0.68436	-0.259
Mof_N 	N 	0.84599	0.39889	0.73818	-0.13
Mof_N 	N 	0.31287	0.66917	0.08474	-0.272
Mof_N 	N 	0.23755	0.61655	0.0195	-0.139
Mof_N 	N 	0.86038	0.92528	0.18436	-0.259
Mof_N 	N 	0.83929	0.89219	0.23818	-0.131
Mof_N 	N 	0.91557	0.77187	0.58474	-0.272
Mof_N 	N 	0.90295	0.78195	0.5195	-0.139
Mof_N 	N 	0.82398	0.25908	0.18436	-0.259
Mof_N 	N 	0.89889	0.34599	0.23818	-0.131
Mof_N 	N 	0.16917	0.81287	0.58474	-0.272
Mof_N 	N 	0.11655	0.73755	0.5195	-0.139
Mof_N 	N 	0.25908	0.86038	0.68436	-0.259
Mof_N 	N 	0.34599	0.83929	0.73818	-0.13
Mof_N 	N 	0.81287	0.91557	0.08474	-0.272
Mof_N 	N 	0.73755	0.90295	0.0195	-0.139
Mof_N 	N 	0.92528	0.82398	0.68436	-0.259
Mof_N 	N 	0.89219	0.89889	0.73818	-0.131
Mof_N 	N 	0.77187	0.16917	0.08474	-0.272
Mof_N 	N 	0.78195	0.11655	0.0195	-0.139
Mof_O 	O 	0.17221	0.32541	0.12122	-0.46
Mof_O 	O 	0.16529	0.36359	0.18838	-0.314
Mof_O 	O 	0.98485	0.97715	0.0957	-0.336
Mof_O 	O 	0.95474	0.02714	0.15508	-0.447
Mof_O 	O 	0.51881	0.20831	0.34162	-0.28
Mof_O 	O 	0.44901	0.79581	0.12122	-0.46
Mof_O 	O 	0.52309	0.82479	0.18838	-0.314
Mof_O 	O 	0.61085	0.11855	0.0957	-0.334
Mof_O 	O 	0.70034	0.12794	0.15508	-0.446
Mof_O 	O 	0.32281	0.13331	0.34162	-0.28
Mof_O 	O 	0.32541	0.44901	0.62122	-0.46
Mof_O 	O 	0.36359	0.52309	0.68838	-0.314
Mof_O 	O 	0.97715	0.61085	0.5957	-0.335
Mof_O 	O 	0.02714	0.70034	0.65508	-0.446
Mof_O 	O 	0.20831	0.32281	0.84162	-0.28
Mof_O 	O 	0.79581	0.17221	0.62122	-0.46
Mof_O 	O 	0.82479	0.16529	0.68838	-0.314
Mof_O 	O 	0.11855	0.98485	0.5957	-0.335
Mof_O 	O 	0.12794	0.95474	0.65508	-0.446
Mof_O 	O 	0.13331	0.51881	0.84162	-0.28
Mof_O 	O 	0.94901	0.82541	0.12122	-0.461
Mof_O 	O 	0.02309	0.86359	0.18838	-0.314
Mof_O 	O 	0.11085	0.47715	0.0957	-0.334
Mof_O 	O 	0.20034	0.52714	0.15508	-0.446
Mof_O 	O 	0.82281	0.70831	0.34162	-0.28
Mof_O 	O 	0.67221	0.29581	0.12122	-0.46
Mof_O 	O 	0.66529	0.32479	0.18838	-0.314
Mof_O 	O 	0.48485	0.61855	0.0957	-0.334
Mof_O 	O 	0.45474	0.62794	0.15508	-0.447
Mof_O 	O 	0.01881	0.63331	0.34162	-0.279
Mof_O 	O 	0.29581	0.94901	0.62122	-0.459
Mof_O 	O 	0.32479	0.02309	0.68838	-0.314
Mof_O 	O 	0.61855	0.11085	0.5957	-0.334
Mof_O 	O 	0.62794	0.20034	0.65508	-0.447
Mof_O 	O 	0.63331	0.82281	0.84162	-0.28
Mof_O 	O 	0.82541	0.67221	0.62122	-0.46
Mof_O 	O 	0.86359	0.66529	0.68838	-0.314
Mof_O 	O 	0.47715	0.48485	0.5957	-0.334
Mof_O 	O 	0.52714	0.45474	0.65508	-0.447
Mof_O 	O 	0.70831	0.01881	0.84162	-0.279
Mof_Zn	Zn	0.09459	0.07756	0.8654	1.211
Mof_Zn	Zn	0.27081	0.78784	0.8654	1.211
Mof_Zn	Zn	0.78784	0.09459	0.3654	1.211
Mof_Zn	Zn	0.07756	0.27081	0.3654	1.211
Mof_Zn	Zn	0.77081	0.57756	0.8654	1.211
Mof_Zn	Zn	0.59459	0.28784	0.8654	1.211
Mof_Zn	Zn	0.57756	0.59459	0.3654	1.211
Mof_Zn	Zn	0.28784	0.77081	0.3654	1.211
Mof_H 	H 	0.176	0.9685	0.7964	0.019
Mof_H 	H 	0.1967	0.004	0.7352	0.037
Mof_H 	H 	0.1213	0.1772	0.8078	-0.004
Mof_H 	H 	0.2522	0.1075	0.7152	0.061
Mof_H 	H 	0.2552	0.1821	0.6694	0.098
Mof_H 	H 	0.0703	0.209	0.7404	0.043
Mof_H 	H 	0.0776	0.2875	0.698	0.111
Mof_H 	H 	0.0428	0.1195	0.386	0.013
Mof_H 	H 	0.0461	0.1102	0.4588	0.037
Mof_H 	H 	0.1308	0.3102	0.4686	-0.014
Mof_H 	H 	0.1988	0.3173	0.5368	0.04
Mof_H 	H 	0.2297	0.3485	0.6112	0.094
Mof_H 	H 	0.0432	0.1551	0.5286	0.04
Mof_H 	H 	0.079	0.182	0.6026	0.098
Mof_H 	H 	0.8783	0.2269	0.798	0.059
Mof_H 	H 	0.8226	0.3405	0.8086	0.05
Mof_H 	H 	0.0308	0.3062	0.9142	0.053
Mof_H 	H 	0.978	0.4227	0.9238	0.048
Mof_H 	H 	0.1204	0.8279	0.7964	0.018
Mof_H 	H 	0.0385	0.7312	0.7352	0.038
Mof_H 	H 	0.1865	0.6306	0.8078	-0.004
Mof_H 	H 	0.963	0.6077	0.7152	0.061
Mof_H 	H 	0.9142	0.4873	0.6694	0.098
Mof_H 	H 	0.1701	0.5314	0.7404	0.044
Mof_H 	H 	0.1204	0.4105	0.698	0.111
Mof_H 	H 	0.8432	0.2665	0.386	0.013
Mof_H 	H 	0.9127	0.3486	0.4588	0.037
Mof_H 	H 	0.8378	0.1584	0.4686	-0.014
Mof_H 	H 	0.838	0.2195	0.5368	0.04
Mof_H 	H 	0.8815	0.2627	0.6112	0.094
Mof_H 	H 	0.9854	0.3735	0.5286	0.04
Mof_H 	H 	0.0236	0.4206	0.6026	0.098
Mof_H 	H 	0.4197	0.5711	0.798	0.06
Mof_H 	H 	0.486	0.4681	0.8086	0.05
Mof_H 	H 	0.3834	0.608	0.9142	0.054
Mof_H 	H 	0.4458	0.5011	0.9238	0.048
Mof_H 	H 	0.8279	0.176	0.2964	0.018
Mof_H 	H 	0.7312	0.1967	0.2352	0.038
Mof_H 	H 	0.6306	0.1213	0.3078	-0.004
Mof_H 	H 	0.6077	0.2522	0.2152	0.061
Mof_H 	H 	0.4873	0.2552	0.1694	0.098
Mof_H 	H 	0.5314	0.0703	0.2404	0.043
Mof_H 	H 	0.4105	0.0776	0.198	0.111
Mof_H 	H 	0.2665	0.0428	0.886	0.013
Mof_H 	H 	0.3486	0.0461	0.9588	0.037
Mof_H 	H 	0.1584	0.1308	0.9686	-0.014
Mof_H 	H 	0.2195	0.1988	0.0368	0.039
Mof_H 	H 	0.2627	0.2297	0.1112	0.094
Mof_H 	H 	0.3735	0.0432	0.0286	0.04
Mof_H 	H 	0.4206	0.079	0.1026	0.099
Mof_H 	H 	0.5711	0.8783	0.298	0.06
Mof_H 	H 	0.4681	0.8226	0.3086	0.05
Mof_H 	H 	0.608	0.0308	0.4142	0.054
Mof_H 	H 	0.5011	0.978	0.4238	0.047
Mof_H 	H 	0.9685	0.1204	0.2964	0.019
Mof_H 	H 	0.004	0.0385	0.2352	0.037
Mof_H 	H 	0.1772	0.1865	0.3078	-0.004
Mof_H 	H 	0.1075	0.963	0.2152	0.061
Mof_H 	H 	0.1821	0.9142	0.1694	0.098
Mof_H 	H 	0.209	0.1701	0.2404	0.044
Mof_H 	H 	0.2875	0.1204	0.198	0.111
Mof_H 	H 	0.1195	0.8432	0.886	0.014
Mof_H 	H 	0.1102	0.9127	0.9588	0.037
Mof_H 	H 	0.3102	0.8378	0.9686	-0.014
Mof_H 	H 	0.3173	0.838	0.0368	0.04
Mof_H 	H 	0.3485	0.8815	0.1112	0.094
Mof_H 	H 	0.1551	0.9854	0.0286	0.041
Mof_H 	H 	0.182	0.0236	0.1026	0.097
Mof_H 	H 	0.2269	0.4197	0.298	0.06
Mof_H 	H 	0.3405	0.486	0.3086	0.05
Mof_H 	H 	0.3062	0.3834	0.4142	0.054
Mof_H 	H 	0.4227	0.4458	0.4238	0.048
Mof_H 	H 	0.6204	0.4685	0.7964	0.018
Mof_H 	H 	0.5385	0.504	0.7352	0.038
Mof_H 	H 	0.6865	0.6772	0.8078	-0.004
Mof_H 	H 	0.463	0.6075	0.7152	0.061
Mof_H 	H 	0.4142	0.6821	0.6694	0.098
Mof_H 	H 	0.6701	0.709	0.7404	0.043
Mof_H 	H 	0.6204	0.7875	0.698	0.112
Mof_H 	H 	0.3432	0.6195	0.386	0.013
Mof_H 	H 	0.4127	0.6102	0.4588	0.037
Mof_H 	H 	0.3378	0.8102	0.4686	-0.014
Mof_H 	H 	0.338	0.8173	0.5368	0.04
Mof_H 	H 	0.3815	0.8485	0.6112	0.094
Mof_H 	H 	0.4854	0.6551	0.5286	0.04
Mof_H 	H 	0.5236	0.682	0.6026	0.099
Mof_H 	H 	0.9197	0.7269	0.798	0.06
Mof_H 	H 	0.986	0.8405	0.8086	0.049
Mof_H 	H 	0.8834	0.8062	0.9142	0.054
Mof_H 	H 	0.9458	0.9227	0.9238	0.047
Mof_H 	H 	0.676	0.3279	0.7964	0.018
Mof_H 	H 	0.6967	0.2312	0.7352	0.038
Mof_H 	H 	0.6213	0.1306	0.8078	-0.004
Mof_H 	H 	0.7522	0.1077	0.7152	0.06
Mof_H 	H 	0.7552	0.9873	0.6694	0.099
Mof_H 	H 	0.5703	0.0314	0.7404	0.043
Mof_H 	H 	0.5776	0.9105	0.698	0.112
Mof_H 	H 	0.5428	0.7665	0.386	0.013
Mof_H 	H 	0.5461	0.8486	0.4588	0.037
Mof_H 	H 	0.6308	0.6584	0.4686	-0.014
Mof_H 	H 	0.6988	0.7195	0.5368	0.04
Mof_H 	H 	0.7297	0.7627	0.6112	0.094
Mof_H 	H 	0.5432	0.8735	0.5286	0.04
Mof_H 	H 	0.579	0.9206	0.6026	0.099
Mof_H 	H 	0.3783	0.0711	0.798	0.06
Mof_H 	H 	0.3226	0.9681	0.8086	0.05
Mof_H 	H 	0.5308	0.108	0.9142	0.054
Mof_H 	H 	0.478	0.0011	0.9238	0.048
Mof_H 	H 	0.4685	0.676	0.2964	0.018
Mof_H 	H 	0.504	0.6967	0.2352	0.038
Mof_H 	H 	0.6772	0.6213	0.3078	-0.004
Mof_H 	H 	0.6075	0.7522	0.2152	0.061
Mof_H 	H 	0.6821	0.7552	0.1694	0.098
Mof_H 	H 	0.709	0.5703	0.2404	0.043
Mof_H 	H 	0.7875	0.5776	0.198	0.112
Mof_H 	H 	0.6195	0.5428	0.886	0.013
Mof_H 	H 	0.6102	0.5461	0.9588	0.037
Mof_H 	H 	0.8102	0.6308	0.9686	-0.014
Mof_H 	H 	0.8173	0.6988	0.0368	0.04
Mof_H 	H 	0.8485	0.7297	0.1112	0.094
Mof_H 	H 	0.6551	0.5432	0.0286	0.04
Mof_H 	H 	0.682	0.579	0.1026	0.099
Mof_H 	H 	0.7269	0.3783	0.298	0.06
Mof_H 	H 	0.8405	0.3226	0.3086	0.05
Mof_H 	H 	0.8062	0.5308	0.4142	0.054
Mof_H 	H 	0.9227	0.478	0.4238	0.048
Mof_H 	H 	0.3279	0.6204	0.2964	0.018
Mof_H 	H 	0.2312	0.5385	0.2352	0.038
Mof_H 	H 	0.1306	0.6865	0.3078	-0.004
Mof_H 	H 	0.1077	0.463	0.2152	0.06
Mof_H 	H 	0.9873	0.4142	0.1694	0.098
Mof_H 	H 	0.0314	0.6701	0.2404	0.043
Mof_H 	H 	0.9105	0.6204	0.198	0.112
Mof_H 	H 	0.7665	0.3432	0.886	0.013
Mof_H 	H 	0.8486	0.4127	0.9588	0.037
Mof_H 	H 	0.6584	0.3378	0.9686	-0.014
Mof_H 	H 	0.7195	0.338	0.0368	0.04
Mof_H 	H 	0.7627	0.3815	0.1112	0.094
Mof_H 	H 	0.8735	0.4854	0.0286	0.04
Mof_H 	H 	0.9206	0.5236	0.1026	0.099
Mof_H 	H 	0.0711	0.9197	0.298	0.06
Mof_H 	H 	0.9681	0.986	0.3086	0.05
Mof_H 	H 	0.108	0.8834	0.4142	0.054
Mof_H 	H 	0.0011	0.9458	0.4238	0.047
Mof_C 	C 	0.16681	0.01611	0.79082	0.009
Mof_C 	C 	0.17882	0.03532	0.75764	0.004
Mof_C 	C 	0.1375	0.1285	0.7972	0.107
Mof_C 	C 	0.16208	0.15268	0.73316	0.052
Mof_C 	C 	0.21622	0.14392	0.71164	-0.017
Mof_C 	C 	0.21835	0.18835	0.6849	-0.159
Mof_C 	C 	0.1097	0.2047	0.7268	-0
Mof_C 	C 	0.11277	0.25027	0.70134	-0.175
Mof_C 	C 	0.16739	0.24089	0.68098	0.225
Mof_C 	C 	0.15696	0.26756	0.61392	0.216
Mof_C 	C 	0.06018	0.15908	0.41216	0.013
Mof_C 	C 	0.06385	0.15285	0.4523	0.004
Mof_C 	C 	0.10762	0.25992	0.45664	0.123
Mof_C 	C 	0.11836	0.23386	0.52592	0.049
Mof_C 	C 	0.17355	0.29045	0.5503	-0.015
Mof_C 	C 	0.19232	0.30822	0.59404	-0.157
Mof_C 	C 	0.08224	0.19394	0.54568	-0.003
Mof_C 	C 	0.10271	0.21041	0.58922	-0.166
Mof_C 	C 	0.99767	0.18307	0.84794	0.326
Mof_C 	C 	0.9599	0.2562	0.8552	-0.06
Mof_C 	C 	0.89834	0.26654	0.82388	-0.029
Mof_C 	C 	0.86587	0.33427	0.83014	-0.013
Mof_C 	C 	0.98877	0.31367	0.89234	-0.023
Mof_C 	C 	0.95677	0.38267	0.89814	-0.019
Mof_C 	C 	0.89436	0.39376	0.86692	-0.072
Mof_C 	C 	0.86059	0.46819	0.87298	0.319
Mof_C 	C 	0.12401	0.77471	0.79082	0.011
Mof_C 	C 	0.07882	0.72232	0.75764	0.003
Mof_C 	C 	0.1597	0.6687	0.7972	0.107
Mof_C 	C 	0.07108	0.58048	0.73316	0.052
Mof_C 	C 	0.99542	0.56772	0.71164	-0.018
Mof_C 	C 	0.96655	0.49655	0.6849	-0.158
Mof_C 	C 	0.1171	0.5221	0.7268	-0.001
Mof_C 	C 	0.08857	0.45107	0.70134	-0.175
Mof_C 	C 	0.01359	0.44009	0.68098	0.224
Mof_C 	C 	0.95696	0.34636	0.61392	0.216
Mof_C 	C 	0.85198	0.25308	0.41216	0.013
Mof_C 	C 	0.88845	0.29945	0.4523	0.004
Mof_C 	C 	0.84902	0.19672	0.45664	0.123
Mof_C 	C 	0.90756	0.29206	0.52592	0.05
Mof_C 	C 	0.87675	0.25985	0.5503	-0.015
Mof_C 	C 	0.90172	0.28582	0.59404	-0.156
Mof_C 	C 	0.96344	0.35174	0.54568	-0.004
Mof_C 	C 	0.98651	0.37881	0.58922	-0.165
Mof_C 	C 	0.35027	0.66487	0.84794	0.324
Mof_C 	C 	0.3953	0.599	0.8552	-0.059
Mof_C 	C 	0.42554	0.55734	0.82388	-0.029
Mof_C 	C 	0.46427	0.49587	0.83014	-0.012
Mof_C 	C 	0.40357	0.57867	0.89234	-0.024
Mof_C 	C 	0.44137	0.51547	0.89814	-0.018
Mof_C 	C 	0.47256	0.47316	0.86692	-0.073
Mof_C 	C 	0.51239	0.40479	0.87298	0.319
Mof_C 	C 	0.77471	0.16681	0.29082	0.011
Mof_C 	C 	0.72232	0.17882	0.25764	0.003
Mof_C 	C 	0.6687	0.1375	0.2972	0.107
Mof_C 	C 	0.58048	0.16208	0.23316	0.052
Mof_C 	C 	0.56772	0.21622	0.21164	-0.017
Mof_C 	C 	0.49655	0.21835	0.1849	-0.159
Mof_C 	C 	0.5221	0.1097	0.2268	-0.001
Mof_C 	C 	0.45107	0.11277	0.20134	-0.175
Mof_C 	C 	0.44009	0.16739	0.18098	0.225
Mof_C 	C 	0.34636	0.15696	0.11392	0.216
Mof_C 	C 	0.25308	0.06018	0.91216	0.013
Mof_C 	C 	0.29945	0.06385	0.9523	0.004
Mof_C 	C 	0.19672	0.10762	0.95664	0.123
Mof_C 	C 	0.29206	0.11836	0.02592	0.049
Mof_C 	C 	0.25985	0.17355	0.0503	-0.014
Mof_C 	C 	0.28582	0.19232	0.09404	-0.157
Mof_C 	C 	0.35174	0.08224	0.04568	-0.003
Mof_C 	C 	0.37881	0.10271	0.08922	-0.166
Mof_C 	C 	0.66487	0.99767	0.34794	0.323
Mof_C 	C 	0.599	0.9599	0.3552	-0.059
Mof_C 	C 	0.55734	0.89834	0.32388	-0.03
Mof_C 	C 	0.49587	0.86587	0.33014	-0.012
Mof_C 	C 	0.57867	0.98877	0.39234	-0.026
Mof_C 	C 	0.51547	0.95677	0.39814	-0.018
Mof_C 	C 	0.47316	0.89436	0.36692	-0.073
Mof_C 	C 	0.40479	0.86059	0.37298	0.319
Mof_C 	C 	0.01611	0.12401	0.29082	0.009
Mof_C 	C 	0.03532	0.07882	0.25764	0.004
Mof_C 	C 	0.1285	0.1597	0.2972	0.107
Mof_C 	C 	0.15268	0.07108	0.23316	0.051
Mof_C 	C 	0.14392	0.99542	0.21164	-0.017
Mof_C 	C 	0.18835	0.96655	0.1849	-0.158
Mof_C 	C 	0.2047	0.1171	0.2268	-0.001
Mof_C 	C 	0.25027	0.08857	0.20134	-0.174
Mof_C 	C 	0.24089	0.01359	0.18098	0.223
Mof_C 	C 	0.26756	0.95696	0.11392	0.214
Mof_C 	C 	0.15908	0.85198	0.91216	0.013
Mof_C 	C 	0.15285	0.88845	0.9523	0.004
Mof_C 	C 	0.25992	0.84902	0.95664	0.123
Mof_C 	C 	0.23386	0.90756	0.02592	0.051
Mof_C 	C 	0.29045	0.87675	0.0503	-0.016
Mof_C 	C 	0.30822	0.90172	0.09404	-0.155
Mof_C 	C 	0.19394	0.96344	0.04568	-0.005
Mof_C 	C 	0.21041	0.98651	0.08922	-0.163
Mof_C 	C 	0.18307	0.35027	0.34794	0.324
Mof_C 	C 	0.2562	0.3953	0.3552	-0.059
Mof_C 	C 	0.26654	0.42554	0.32388	-0.029
Mof_C 	C 	0.33427	0.46427	0.33014	-0.012
Mof_C 	C 	0.31367	0.40357	0.39234	-0.024
Mof_C 	C 	0.38267	0.44137	0.39814	-0.018
Mof_C 	C 	0.39376	0.47256	0.36692	-0.073
Mof_C 	C 	0.46819	0.51239	0.37298	0.319
Mof_C 	C 	0.62401	0.51611	0.79082	0.011
Mof_C 	C 	0.57882	0.53532	0.75764	0.003
Mof_C 	C 	0.6597	0.6285	0.7972	0.107
Mof_C 	C 	0.57108	0.65268	0.73316	0.052
Mof_C 	C 	0.49542	0.64392	0.71164	-0.017
Mof_C 	C 	0.46655	0.68835	0.6849	-0.159
Mof_C 	C 	0.6171	0.7047	0.7268	-0
Mof_C 	C 	0.58857	0.75027	0.70134	-0.175
Mof_C 	C 	0.51359	0.74089	0.68098	0.225
Mof_C 	C 	0.45696	0.76756	0.61392	0.216
Mof_C 	C 	0.35198	0.65908	0.41216	0.013
Mof_C 	C 	0.38845	0.65285	0.4523	0.004
Mof_C 	C 	0.34902	0.75992	0.45664	0.123
Mof_C 	C 	0.40756	0.73386	0.52592	0.049
Mof_C 	C 	0.37675	0.79045	0.5503	-0.015
Mof_C 	C 	0.40172	0.80822	0.59404	-0.157
Mof_C 	C 	0.46344	0.69394	0.54568	-0.003
Mof_C 	C 	0.48651	0.71041	0.58922	-0.166
Mof_C 	C 	0.85027	0.68307	0.84794	0.324
Mof_C 	C 	0.8953	0.7562	0.8552	-0.058
Mof_C 	C 	0.92554	0.76654	0.82388	-0.031
Mof_C 	C 	0.96427	0.83427	0.83014	-0.011
Mof_C 	C 	0.90357	0.81367	0.89234	-0.026
Mof_C 	C 	0.94137	0.88267	0.89814	-0.017
Mof_C 	C 	0.97256	0.89376	0.86692	-0.075
Mof_C 	C 	0.01239	0.96819	0.87298	0.322
Mof_C 	C 	0.66681	0.27471	0.79082	0.011
Mof_C 	C 	0.67882	0.22232	0.75764	0.003
Mof_C 	C 	0.6375	0.1687	0.7972	0.107
Mof_C 	C 	0.66208	0.08048	0.73316	0.051
Mof_C 	C 	0.71622	0.06772	0.71164	-0.015
Mof_C 	C 	0.71835	0.99655	0.6849	-0.161
Mof_C 	C 	0.6097	0.0221	0.7268	0.001
Mof_C 	C 	0.61277	0.95107	0.70134	-0.177
Mof_C 	C 	0.66739	0.94009	0.68098	0.226
Mof_C 	C 	0.65696	0.84636	0.61392	0.216
Mof_C 	C 	0.56018	0.75308	0.41216	0.013
Mof_C 	C 	0.56385	0.79945	0.4523	0.004
Mof_C 	C 	0.60762	0.69672	0.45664	0.123
Mof_C 	C 	0.61836	0.79206	0.52592	0.049
Mof_C 	C 	0.67355	0.75985	0.5503	-0.014
Mof_C 	C 	0.69232	0.78582	0.59404	-0.157
Mof_C 	C 	0.58224	0.85174	0.54568	-0.003
Mof_C 	C 	0.60271	0.87881	0.58922	-0.166
Mof_C 	C 	0.49767	0.16487	0.84794	0.324
Mof_C 	C 	0.4599	0.099	0.8552	-0.059
Mof_C 	C 	0.39834	0.05734	0.82388	-0.03
Mof_C 	C 	0.36587	0.99587	0.83014	-0.012
Mof_C 	C 	0.48877	0.07867	0.89234	-0.025
Mof_C 	C 	0.45677	0.01547	0.89814	-0.018
Mof_C 	C 	0.39436	0.97316	0.86692	-0.073
Mof_C 	C 	0.36059	0.90479	0.87298	0.319
Mof_C 	C 	0.51611	0.66681	0.29082	0.011
Mof_C 	C 	0.53532	0.67882	0.25764	0.003
Mof_C 	C 	0.6285	0.6375	0.2972	0.107
Mof_C 	C 	0.65268	0.66208	0.23316	0.052
Mof_C 	C 	0.64392	0.71622	0.21164	-0.017
Mof_C 	C 	0.68835	0.71835	0.1849	-0.159
Mof_C 	C 	0.7047	0.6097	0.2268	-0
Mof_C 	C 	0.75027	0.61277	0.20134	-0.175
Mof_C 	C 	0.74089	0.66739	0.18098	0.225
Mof_C 	C 	0.76756	0.65696	0.11392	0.216
Mof_C 	C 	0.65908	0.56018	0.91216	0.013
Mof_C 	C 	0.65285	0.56385	0.9523	0.004
Mof_C 	C 	0.75992	0.60762	0.95664	0.123
Mof_C 	C 	0.73386	0.61836	0.02592	0.049
Mof_C 	C 	0.79045	0.67355	0.0503	-0.014
Mof_C 	C 	0.80822	0.69232	0.09404	-0.157
Mof_C 	C 	0.69394	0.58224	0.04568	-0.003
Mof_C 	C 	0.71041	0.60271	0.08922	-0.166
Mof_C 	C 	0.68307	0.49767	0.34794	0.324
Mof_C 	C 	0.7562	0.4599	0.3552	-0.059
Mof_C 	C 	0.76654	0.39834	0.32388	-0.03
Mof_C 	C 	0.83427	0.36587	0.33014	-0.012
Mof_C 	C 	0.81367	0.48877	0.39234	-0.025
Mof_C 	C 	0.88267	0.45677	0.39814	-0.018
Mof_C 	C 	0.89376	0.39436	0.36692	-0.073
Mof_C 	C 	0.96819	0.36059	0.37298	0.32
Mof_C 	C 	0.27471	0.62401	0.29082	0.011
Mof_C 	C 	0.22232	0.57882	0.25764	0.003
Mof_C 	C 	0.1687	0.6597	0.2972	0.107
Mof_C 	C 	0.08048	0.57108	0.23316	0.051
Mof_C 	C 	0.06772	0.49542	0.21164	-0.017
Mof_C 	C 	0.99655	0.46655	0.1849	-0.16
Mof_C 	C 	0.0221	0.6171	0.2268	0
Mof_C 	C 	0.95107	0.58857	0.20134	-0.176
Mof_C 	C 	0.94009	0.51359	0.18098	0.225
Mof_C 	C 	0.84636	0.45696	0.11392	0.216
Mof_C 	C 	0.75308	0.35198	0.91216	0.013
Mof_C 	C 	0.79945	0.38845	0.9523	0.004
Mof_C 	C 	0.69672	0.34902	0.95664	0.123
Mof_C 	C 	0.79206	0.40756	0.02592	0.049
Mof_C 	C 	0.75985	0.37675	0.0503	-0.014
Mof_C 	C 	0.78582	0.40172	0.09404	-0.157
Mof_C 	C 	0.85174	0.46344	0.04568	-0.003
Mof_C 	C 	0.87881	0.48651	0.08922	-0.166
Mof_C 	C 	0.16487	0.85027	0.34794	0.324
Mof_C 	C 	0.099	0.8953	0.3552	-0.059
Mof_C 	C 	0.05734	0.92554	0.32388	-0.028
Mof_C 	C 	0.99587	0.96427	0.33014	-0.013
Mof_C 	C 	0.07867	0.90357	0.39234	-0.025
Mof_C 	C 	0.01547	0.94137	0.39814	-0.016
Mof_C 	C 	0.97316	0.97256	0.36692	-0.075
Mof_C 	C 	0.90479	0.01239	0.37298	0.321
Mof_N 	N 	0.13962	0.07472	0.81564	-0.259
Mof_N 	N 	0.16071	0.10781	0.76182	-0.131
Mof_N 	N 	0.08443	0.22813	0.41526	-0.272
Mof_N 	N 	0.09705	0.21805	0.4805	-0.139
Mof_N 	N 	0.17602	0.74092	0.81564	-0.259
Mof_N 	N 	0.10111	0.65401	0.76182	-0.131
Mof_N 	N 	0.83083	0.18713	0.41526	-0.272
Mof_N 	N 	0.88345	0.26245	0.4805	-0.139
Mof_N 	N 	0.74092	0.13962	0.31564	-0.259
Mof_N 	N 	0.65401	0.16071	0.26182	-0.13
Mof_N 	N 	0.18713	0.08443	0.91526	-0.272
Mof_N 	N 	0.26245	0.09705	0.9805	-0.139
Mof_N 	N 	0.07472	0.17602	0.31564	-0.259
Mof_N 	N 	0.10781	0.10111	0.26182	-0.131
Mof_N 	N 	0.22813	0.83083	0.91526	-0.272
Mof_N 	N 	0.21805	0.88345	0.9805	-0.139
Mof_N 	N 	0.67602	0.57472	0.81564	-0.259
Mof_N 	N 	0.60111	0.60781	0.76182	-0.13
Mof_N 	N 	0.33083	0.72813	0.41526	-0.272
Mof_N 	N 	0.38345	0.71805	0.4805	-0.139
Mof_N 	N 	0.63962	0.24092	0.81564	-0.259
Mof_N 	N 	0.66071	0.15401	0.76182	-0.13
Mof_N 	N 	0.58443	0.68713	0.41526	-0.272
Mof_N 	N 	0.59705	0.76245	0.4805	-0.139
Mof_N 	N 	0.57472	0.63962	0.31564	-0.259
Mof_N 	N 	0.60781	0.66071	0.26182	-0.13
Mof_N 	N 	0.72813	0.58443	0.91526	-0.272
Mof_N 	N 	0.71805	0.59705	0.9805	-0.139
Mof_N 	N 	0.24092	0.67602	0.31564	-0.259
Mof_N 	N 	0.15401	0.60111	0.26182	-0.13
Mof_N 	N 	0.68713	0.33083	0.91526	-0.272
Mof_N 	N 	0.76245	0.38345	0.9805	-0.139
Mof_O 	O 	0.05099	0.17459	0.87878	-0.461
Mof_O 	O 	0.97691	0.13641	0.81162	-0.314
Mof_O 	O 	0.88915	0.52285	0.9043	-0.334
Mof_O 	O 	0.79966	0.47286	0.84492	-0.446
Mof_O 	O 	0.17719	0.29169	0.65838	-0.28
Mof_O 	O 	0.32779	0.70419	0.87878	-0.46
Mof_O 	O 	0.33471	0.67521	0.81162	-0.314
Mof_O 	O 	0.51515	0.38145	0.9043	-0.334
Mof_O 	O 	0.54526	0.37206	0.84492	-0.447
Mof_O 	O 	0.98119	0.36669	0.65838	-0.279
Mof_O 	O 	0.70419	0.05099	0.37878	-0.459
Mof_O 	O 	0.67521	0.97691	0.31162	-0.314
Mof_O 	O 	0.38145	0.88915	0.4043	-0.334
Mof_O 	O 	0.37206	0.79966	0.34492	-0.447
Mof_O 	O 	0.36669	0.17719	0.15838	-0.28
Mof_O 	O 	0.17459	0.32779	0.37878	-0.46
Mof_O 	O 	0.13641	0.33471	0.31162	-0.314
Mof_O 	O 	0.52285	0.51515	0.4043	-0.334
Mof_O 	O 	0.47286	0.54526	0.34492	-0.447
Mof_O 	O 	0.29169	0.98119	0.15838	-0.279
Mof_O 	O 	0.82779	0.67459	0.87878	-0.46
Mof_O 	O 	0.83471	0.63641	0.81162	-0.314
Mof_O 	O 	0.01515	0.02285	0.9043	-0.336
Mof_O 	O 	0.04526	0.97286	0.84492	-0.447
Mof_O 	O 	0.48119	0.79169	0.65838	-0.28
Mof_O 	O 	0.55099	0.20419	0.87878	-0.46
Mof_O 	O 	0.47691	0.17521	0.81162	-0.314
Mof_O 	O 	0.38915	0.88145	0.9043	-0.334
Mof_O 	O 	0.29966	0.87206	0.84492	-0.446
Mof_O 	O 	0.67719	0.86669	0.65838	-0.28
Mof_O 	O 	0.67459	0.55099	0.37878	-0.46
Mof_O 	O 	0.63641	0.47691	0.31162	-0.314
Mof_O 	O 	0.02285	0.38915	0.4043	-0.335
Mof_O 	O 	0.97286	0.29966	0.34492	-0.446
Mof_O 	O 	0.79169	0.67719	0.15838	-0.28
Mof_O 	O 	0.20419	0.82779	0.37878	-0.46
Mof_O 	O 	0.17521	0.83471	0.31162	-0.314
Mof_O 	O 	0.88145	0.01515	0.4043	-0.335
Mof_O 	O 	0.87206	0.04526	0.34492	-0.446
Mof_O 	O 	0.86669	0.48119	0.15838	-0.28
_end
