data_functionalizedCrystal
_audit_creation_method	'EQeq! by Chris Wilmer'
_symmetry_space_group_name_H-M	'P1'
_symmetry_Int_Tables_number	1
_symmetry_cell_setting	triclinic
loop_
_symmetry_equiv_pos_as_xyz
  x,y,z
_cell_length_a	8.2222
_cell_length_b	16.2247
_cell_length_c	16.4614
_cell_angle_alpha	93.275
_cell_angle_beta	95.797
_cell_angle_gamma	97.895
loop_
_atom_site_label
_atom_site_type_symbol
_atom_site_fract_x
_atom_site_fract_y
_atom_site_fract_z
_atom_site_charge
Mof_Ag	Ag	0.54569	0.76279	0.68416	0.598
Mof_Ag	Ag	0.47232	0.36038	0.723	0.844
Mof_C 	C 	0.5413	0.581	0.74	0.374
Mof_C 	C 	0.5528	0.599	0.8294	-0.182
Mof_C 	C 	0.4293	0.5615	0.8729	0.138
Mof_H 	H 	0.3435	0.5234	0.8458	0.024
Mof_C 	C 	0.4334	0.5806	0.9563	-0.17
Mof_H 	H 	0.3481	0.5581	0.985	0.218
Mof_C 	C 	0.5675	0.6339	0.9957	0.117
Mof_C 	C 	0.6939	0.6716	0.953	-0.124
Mof_H 	H 	0.7822	0.7076	0.9809	0.155
Mof_C 	C 	0.6865	0.6551	0.8694	0.133
Mof_H 	H 	0.7682	0.6805	0.8401	-0.003
Mof_C 	C 	0.5689	0.6502	0.0838	0.181
Mof_C 	C 	0.5064	0.7213	0.4584	0.377
Mof_C 	C 	0.5072	0.8048	0.4261	-0.18
Mof_C 	C 	0.4004	0.8567	0.4566	0.099
Mof_H 	H 	0.334	0.8391	0.4966	-0.014
Mof_C 	C 	0.395	0.9345	0.4263	-0.118
Mof_H 	H 	0.3235	0.9687	0.4458	0.093
Mof_C 	C 	0.4947	0.9617	0.3675	0.073
Mof_C 	C 	0.6037	0.91	0.3378	-0.116
Mof_H 	H 	0.672	0.9279	0.2987	0.129
Mof_C 	C 	0.6074	0.832	0.3678	0.1
Mof_H 	H 	0.6785	0.7975	0.3484	0.016
Mof_C 	C 	0.4885	0.0436	0.3405	0.089
Mof_N 	N 	0.5648	0.6595	0.1525	-0.17
Mof_N 	N 	0.4805	0.1095	0.3202	-0.205
Mof_O 	O 	0.4623	0.512	0.7077	-0.426
Mof_O 	O 	0.6113	0.6349	0.6963	-0.455
Mof_O 	O 	0.4747	0.7102	0.5297	-0.437
Mof_O 	O 	0.5415	0.6616	0.4119	-0.469
Mof_Ag	Ag	0.45431	0.23721	0.31584	0.598
Mof_Ag	Ag	0.52768	0.63962	0.277	0.844
Mof_C 	C 	0.4587	0.419	0.26	0.374
Mof_C 	C 	0.4472	0.401	0.1706	-0.182
Mof_C 	C 	0.5707	0.4385	0.1271	0.138
Mof_H 	H 	0.6565	0.4766	0.1542	0.024
Mof_C 	C 	0.5666	0.4194	0.0437	-0.17
Mof_H 	H 	0.6519	0.4419	0.015	0.218
Mof_C 	C 	0.4325	0.3661	0.0043	0.117
Mof_C 	C 	0.3061	0.3284	0.047	-0.124
Mof_H 	H 	0.2178	0.2924	0.0191	0.155
Mof_C 	C 	0.3135	0.3449	0.1306	0.133
Mof_H 	H 	0.2318	0.3195	0.1599	-0.003
Mof_C 	C 	0.4311	0.3498	0.9162	0.181
Mof_C 	C 	0.4936	0.2787	0.5416	0.377
Mof_C 	C 	0.4928	0.1952	0.5739	-0.18
Mof_C 	C 	0.5996	0.1433	0.5434	0.099
Mof_H 	H 	0.666	0.1609	0.5034	-0.014
Mof_C 	C 	0.605	0.0655	0.5737	-0.118
Mof_H 	H 	0.6765	0.0313	0.5542	0.093
Mof_C 	C 	0.5053	0.0383	0.6325	0.073
Mof_C 	C 	0.3963	0.09	0.6622	-0.116
Mof_H 	H 	0.328	0.0721	0.7013	0.129
Mof_C 	C 	0.3926	0.168	0.6322	0.1
Mof_H 	H 	0.3215	0.2025	0.6516	0.016
Mof_C 	C 	0.5115	0.9564	0.6595	0.089
Mof_N 	N 	0.4352	0.3405	0.8475	-0.17
Mof_N 	N 	0.5195	0.8905	0.6798	-0.205
Mof_O 	O 	0.5377	0.488	0.2923	-0.426
Mof_O 	O 	0.3887	0.3651	0.3037	-0.455
Mof_O 	O 	0.5253	0.2898	0.4703	-0.437
Mof_O 	O 	0.4585	0.3384	0.5881	-0.469
Mof_Ag	Ag	0.52053	0.56661	0.55714	0.448
Mof_Ag	Ag	0.8681	0.60514	0.63444	0.245
Mof_Ag	Ag	0.81738	0.41957	0.6077	0.457
Mof_Ag	Ag	0.81583	0.34626	0.44151	0.169
Mof_Ag	Ag	0.83327	0.49037	0.34775	0.372
Mof_Ag	Ag	0.84632	0.6366	0.45633	0.36
Mof_C 	C 	0.7646	0.5253	0.526	-0.319
Mof_C 	C 	0.7706	0.4729	0.4705	-0.275
Mof_C 	C 	0.0354	0.732	0.3288	0.128
Mof_C 	C 	0.0375	0.7997	0.2682	0.927
Mof_C 	C 	0.0534	0.5384	0.212	0.074
Mof_C 	C 	0.0598	0.5493	0.1203	1.101
Mof_F 	F 	0.0144	0.8736	0.3091	-0.469
Mof_F 	F 	0.9183	0.7953	0.2168	-0.419
Mof_F 	F 	0.1839	0.8245	0.2456	-0.464
Mof_F 	F 	0.958	0.594	0.091	-0.236
Mof_F 	F 	0.196	0.5619	0.0953	-0.275
Mof_F 	F 	0.994	0.4709	0.0814	-0.349
Mof_O 	O 	0.8982	0.7137	0.3537	-0.281
Mof_O 	O 	0.1634	0.7026	0.3419	-0.267
Mof_O 	O 	0.9137	0.5312	0.2344	-0.242
Mof_O 	O 	0.1904	0.536	0.254	-0.256
Mof_F 	F 	0.159	0.6309	0.1141	-0.32
Mof_F 	F 	0.16	0.5119	0.0884	-0.307
Mof_F 	F 	0.928	0.56	0.081	-0.259
Mof_F 	F 	0.985	0.75	0.19	-0.232
Mof_Ag	Ag	0.47947	0.43339	0.44286	0.448
Mof_Ag	Ag	0.1319	0.39486	0.36556	0.245
Mof_Ag	Ag	0.18262	0.58043	0.3923	0.457
Mof_Ag	Ag	0.18417	0.65374	0.55849	0.169
Mof_Ag	Ag	0.16673	0.50963	0.65225	0.372
Mof_Ag	Ag	0.15368	0.3634	0.54367	0.36
Mof_C 	C 	0.2354	0.4747	0.474	-0.319
Mof_C 	C 	0.2294	0.5271	0.5295	-0.275
Mof_C 	C 	0.9646	0.268	0.6712	0.128
Mof_C 	C 	0.9625	0.2003	0.7318	0.927
Mof_C 	C 	0.9466	0.4616	0.788	0.074
Mof_C 	C 	0.9402	0.4507	0.8797	1.101
Mof_F 	F 	0.9856	0.1264	0.6909	-0.469
Mof_F 	F 	0.0817	0.2047	0.7832	-0.419
Mof_F 	F 	0.8161	0.1755	0.7544	-0.464
Mof_F 	F 	0.042	0.406	0.909	-0.236
Mof_F 	F 	0.804	0.4381	0.9047	-0.275
Mof_F 	F 	0.006	0.5291	0.9186	-0.349
Mof_O 	O 	0.1018	0.2863	0.6463	-0.281
Mof_O 	O 	0.8366	0.2974	0.6581	-0.267
Mof_O 	O 	0.0863	0.4688	0.7656	-0.242
Mof_O 	O 	0.8096	0.464	0.746	-0.256
Mof_F 	F 	0.841	0.3691	0.8859	-0.32
Mof_F 	F 	0.84	0.4881	0.9116	-0.307
Mof_F 	F 	0.072	0.44	0.919	-0.259
Mof_F 	F 	0.015	0.25	0.81	-0.232
_end
