data_functionalizedCrystal
_audit_creation_method	'EQeq! by Chris Wilmer'
_symmetry_space_group_name_H-M	'P1'
_symmetry_Int_Tables_number	1
_symmetry_cell_setting	triclinic
loop_
_symmetry_equiv_pos_as_xyz
  x,y,z
_cell_length_a	18.3063
_cell_length_b	18.3063
_cell_length_c	18.3063
_cell_angle_alpha	60
_cell_angle_beta	60
_cell_angle_gamma	60
loop_
_atom_site_label
_atom_site_type_symbol
_atom_site_fract_x
_atom_site_fract_y
_atom_site_fract_z
_atom_site_charge
Mof_Zn	Zn	0.20664	0.38006	0.20665	1.212
Mof_Zn	Zn	0.38005	0.20665	0.20665	1.212
Mof_Zn	Zn	0.20664	0.20665	0.20665	1.212
Mof_Zn	Zn	0.20664	0.20665	0.38006	1.212
Mof_Zn	Zn	0.61995	0.79335	0.79335	1.212
Mof_Zn	Zn	0.79336	0.61994	0.79335	1.212
Mof_Zn	Zn	0.79336	0.79335	0.79335	1.212
Mof_Zn	Zn	0.79336	0.79335	0.61994	1.212
Mof_H 	H 	0.0452	0.5656	0.0452	0.049
Mof_H 	H 	0.5656	0.0452	0.344	0.049
Mof_H 	H 	0.0452	0.344	0.0452	0.049
Mof_H 	H 	0.344	0.0452	0.5656	0.049
Mof_H 	H 	0.0452	0.0452	0.344	0.049
Mof_H 	H 	0.5656	0.344	0.0452	0.049
Mof_H 	H 	0.0452	0.0452	0.5656	0.049
Mof_H 	H 	0.344	0.5656	0.0452	0.049
Mof_H 	H 	0.0452	0.344	0.5656	0.049
Mof_H 	H 	0.5656	0.0452	0.0452	0.049
Mof_H 	H 	0.0452	0.5656	0.344	0.049
Mof_H 	H 	0.344	0.0452	0.0452	0.049
Mof_H 	H 	0.4344	0.9548	0.9548	0.049
Mof_H 	H 	0.9548	0.4344	0.656	0.049
Mof_H 	H 	0.656	0.9548	0.9548	0.049
Mof_H 	H 	0.9548	0.656	0.4344	0.049
Mof_H 	H 	0.9548	0.9548	0.656	0.049
Mof_H 	H 	0.656	0.4344	0.9548	0.049
Mof_H 	H 	0.9548	0.9548	0.4344	0.048
Mof_H 	H 	0.4344	0.656	0.9548	0.048
Mof_H 	H 	0.656	0.9548	0.4344	0.048
Mof_H 	H 	0.9548	0.4344	0.9548	0.048
Mof_H 	H 	0.4344	0.9548	0.656	0.048
Mof_H 	H 	0.9548	0.656	0.9548	0.048
Mof_C 	C 	0.02683	0.53905	0.02683	-0.015
Mof_C 	C 	0.53905	0.02683	0.40729	-0.015
Mof_C 	C 	0.02683	0.40729	0.02683	-0.015
Mof_C 	C 	0.40729	0.02683	0.53905	-0.015
Mof_C 	C 	0.02683	0.02683	0.40729	-0.015
Mof_C 	C 	0.53905	0.40729	0.02683	-0.015
Mof_C 	C 	0.02683	0.02683	0.53905	-0.015
Mof_C 	C 	0.40729	0.53905	0.02683	-0.015
Mof_C 	C 	0.02683	0.40729	0.53905	-0.015
Mof_C 	C 	0.53905	0.02683	0.02683	-0.015
Mof_C 	C 	0.02683	0.53905	0.40729	-0.015
Mof_C 	C 	0.40729	0.02683	0.02683	-0.015
Mof_C 	C 	0.46095	0.97317	0.97317	-0.015
Mof_C 	C 	0.97317	0.46095	0.59271	-0.015
Mof_C 	C 	0.59271	0.97317	0.97317	-0.015
Mof_C 	C 	0.97317	0.59271	0.46095	-0.015
Mof_C 	C 	0.97317	0.97317	0.59271	-0.015
Mof_C 	C 	0.59271	0.46095	0.97317	-0.015
Mof_C 	C 	0.97317	0.97317	0.46095	-0.015
Mof_C 	C 	0.46095	0.59271	0.97317	-0.015
Mof_C 	C 	0.59271	0.97317	0.46095	-0.015
Mof_C 	C 	0.97317	0.46095	0.97317	-0.015
Mof_C 	C 	0.46095	0.97317	0.59271	-0.015
Mof_C 	C 	0.97317	0.59271	0.97317	-0.015
Mof_C 	C 	0.11144	0.38856	0.11144	0.382
Mof_C 	C 	0.05381	0.44619	0.05381	-0.087
Mof_C 	C 	0.38856	0.11144	0.38856	0.382
Mof_C 	C 	0.44619	0.05381	0.44619	-0.087
Mof_C 	C 	0.11144	0.11144	0.38856	0.382
Mof_C 	C 	0.05381	0.05381	0.44619	-0.087
Mof_C 	C 	0.38856	0.38856	0.11144	0.382
Mof_C 	C 	0.44619	0.44619	0.05381	-0.087
Mof_C 	C 	0.11144	0.38856	0.38856	0.382
Mof_C 	C 	0.05381	0.44619	0.44619	-0.087
Mof_C 	C 	0.38856	0.11144	0.11144	0.382
Mof_C 	C 	0.44619	0.05381	0.05381	-0.087
Mof_C 	C 	0.61144	0.88856	0.88856	0.382
Mof_C 	C 	0.55381	0.94619	0.94619	-0.087
Mof_C 	C 	0.88856	0.61144	0.61144	0.382
Mof_C 	C 	0.94619	0.55381	0.55381	-0.087
Mof_C 	C 	0.88856	0.88856	0.61144	0.382
Mof_C 	C 	0.94619	0.94619	0.55381	-0.087
Mof_C 	C 	0.61144	0.61144	0.88856	0.382
Mof_C 	C 	0.55381	0.55381	0.94619	-0.087
Mof_C 	C 	0.61144	0.88856	0.61144	0.382
Mof_C 	C 	0.55381	0.94619	0.55381	-0.087
Mof_C 	C 	0.88856	0.61144	0.88856	0.382
Mof_C 	C 	0.94619	0.55381	0.94619	-0.087
Mof_O 	O 	0.25	0.25	0.25	-0.963
Mof_O 	O 	0.75	0.75	0.75	-0.963
Mof_O 	O 	0.13368	0.42768	0.13368	-0.505
Mof_O 	O 	0.42768	0.13368	0.30496	-0.505
Mof_O 	O 	0.13368	0.30496	0.13368	-0.505
Mof_O 	O 	0.30496	0.13368	0.42768	-0.505
Mof_O 	O 	0.13368	0.13368	0.30496	-0.505
Mof_O 	O 	0.42768	0.30496	0.13368	-0.505
Mof_O 	O 	0.13368	0.13368	0.42768	-0.505
Mof_O 	O 	0.30496	0.42768	0.13368	-0.505
Mof_O 	O 	0.13368	0.30496	0.42768	-0.505
Mof_O 	O 	0.42768	0.13368	0.13368	-0.505
Mof_O 	O 	0.13368	0.42768	0.30496	-0.505
Mof_O 	O 	0.30496	0.13368	0.13368	-0.505
Mof_O 	O 	0.57232	0.86632	0.86632	-0.505
Mof_O 	O 	0.86632	0.57232	0.69504	-0.505
Mof_O 	O 	0.69504	0.86632	0.86632	-0.505
Mof_O 	O 	0.86632	0.69504	0.57232	-0.505
Mof_O 	O 	0.86632	0.86632	0.69504	-0.505
Mof_O 	O 	0.69504	0.57232	0.86632	-0.505
Mof_O 	O 	0.86632	0.86632	0.57232	-0.505
Mof_O 	O 	0.57232	0.69504	0.86632	-0.505
Mof_O 	O 	0.69504	0.86632	0.57232	-0.505
Mof_O 	O 	0.86632	0.57232	0.86632	-0.505
Mof_O 	O 	0.57232	0.86632	0.69504	-0.505
Mof_O 	O 	0.86632	0.69504	0.86632	-0.505
_end
