data_functionalizedCrystal
_audit_creation_method	'EQeq! by Chris Wilmer'
_symmetry_space_group_name_H-M	'P1'
_symmetry_Int_Tables_number	1
_symmetry_cell_setting	triclinic
loop_
_symmetry_equiv_pos_as_xyz
  x,y,z
_cell_length_a	7.3817
_cell_length_b	13.6319
_cell_length_c	13.6319
_cell_angle_alpha	120
_cell_angle_beta	90
_cell_angle_gamma	90
loop_
_atom_site_label
_atom_site_type_symbol
_atom_site_fract_x
_atom_site_fract_y
_atom_site_fract_z
_atom_site_charge
Mof_Nd	Nd	0.33992	0.33333	0.66666	2.669
Mof_Nd	Nd	0.66008	0.66667	0.33334	2.672
Mof_Cu	Cu	-0	0.5	0.5	0.912
Mof_Cu	Cu	-0	0	0.5	0.779
Mof_Cu	Cu	-0	0.5	-0	0.766
Mof_H 	H 	0.8602	0.3543	0.3252	0.15
Mof_H 	H 	0.9521	0.2044	0.3492	0.325
Mof_H 	H 	0.7666	0.2695	0.4517	0.03
Mof_H 	H 	0.6424	0.2144	0.2805	0.093
Mof_H 	H 	0.5397	0.3303	0.3309	0.164
Mof_H 	H 	0.4951	0.2462	0.3745	0.098
Mof_H 	H 	0.9974	0.2097	0.2082	-0.256
Mof_H 	H 	0.0946	0.1283	0.2415	-0.606
Mof_H 	H 	0.1995	0.2318	0.249	-0.437
Mof_H 	H 	0.8602	0.9709	0.6457	0.318
Mof_H 	H 	0.9521	0.1448	0.7956	1.533
Mof_H 	H 	0.7666	0.1822	0.7305	0.115
Mof_H 	H 	0.6424	0.0661	0.7856	0.221
Mof_H 	H 	0.5397	0.0006	0.6697	0.118
Mof_H 	H 	0.4951	0.1283	0.7538	0.241
Mof_H 	H 	0.9974	0.9985	0.7903	-2.161
Mof_H 	H 	0.0946	0.1132	0.8717	-2.399
Mof_H 	H 	0.1995	0.0172	0.7682	-2.501
Mof_H 	H 	0.8602	0.6748	0.0291	-0.136
Mof_H 	H 	0.9521	0.6508	0.8552	-0.362
Mof_H 	H 	0.7666	0.5483	0.8178	-0.023
Mof_H 	H 	0.6424	0.7195	0.9339	0.353
Mof_H 	H 	0.5397	0.6691	0.9994	0.377
Mof_H 	H 	0.4951	0.6255	0.8717	0.281
Mof_H 	H 	0.9974	0.7918	0.0015	0.823
Mof_H 	H 	0.0946	0.7585	0.8868	1.195
Mof_H 	H 	0.1995	0.751	0.9828	1.15
Mof_H 	H 	0.1398	0.6457	0.6748	0.071
Mof_H 	H 	0.0479	0.7956	0.6508	0.484
Mof_H 	H 	0.2334	0.7305	0.5483	0.039
Mof_H 	H 	0.3576	0.7856	0.7195	0.342
Mof_H 	H 	0.4603	0.6697	0.6691	0.263
Mof_H 	H 	0.5049	0.7538	0.6255	0.303
Mof_H 	H 	0.0026	0.7903	0.7918	-0.805
Mof_H 	H 	0.9054	0.8717	0.7585	-0.491
Mof_H 	H 	0.8005	0.7682	0.751	-0.683
Mof_H 	H 	0.1398	0.0291	0.3543	-0.09
Mof_H 	H 	0.0479	0.8552	0.2044	-0.732
Mof_H 	H 	0.2334	0.8178	0.2695	-0.051
Mof_H 	H 	0.3576	0.9339	0.2144	0.218
Mof_H 	H 	0.4603	0.9994	0.3303	0.316
Mof_H 	H 	0.5049	0.8717	0.2462	0.168
Mof_H 	H 	0.0026	0.0015	0.2097	1.056
Mof_H 	H 	0.9054	0.8868	0.1283	1.28
Mof_H 	H 	0.8005	0.9828	0.2318	1.354
Mof_H 	H 	0.1398	0.3252	0.9709	0.37
Mof_H 	H 	0.0479	0.3492	0.1448	1.197
Mof_H 	H 	0.2334	0.4517	0.1822	0.085
Mof_H 	H 	0.3576	0.2805	0.0661	0.087
Mof_H 	H 	0.4603	0.3309	0.0006	0.06
Mof_H 	H 	0.5049	0.3745	0.1283	0.131
Mof_H 	H 	0.0026	0.2082	0.9985	-1.974
Mof_H 	H 	0.9054	0.2415	0.1132	-2.388
Mof_H 	H 	0.8005	0.249	0.0172	-2.357
Mof_C 	C 	0.1383	0.2757	0.4552	0.68
Mof_C 	C 	0.0353	0.2617	0.3519	-1.152
Mof_C 	C 	0.73	0.3294	0.436	-0.067
Mof_C 	C 	0.6843	0.4285	0.5515	0.418
Mof_C 	C 	0.5895	0.2753	0.3477	-0.35
Mof_C 	C 	0.084	0.2054	0.2585	1.48
Mof_C 	C 	0.1383	0.1795	0.7243	2.14
Mof_C 	C 	0.0353	0.0902	0.7383	-5.509
Mof_C 	C 	0.73	0.1066	0.6706	-0.226
Mof_C 	C 	0.6843	0.123	0.5715	0.472
Mof_C 	C 	0.5895	0.0724	0.7247	-0.404
Mof_C 	C 	0.084	0.0531	0.7946	8.611
Mof_C 	C 	0.1383	0.5448	0.8205	-0.341
Mof_C 	C 	0.0353	0.6481	0.9098	1.894
Mof_C 	C 	0.73	0.564	0.8934	0.24
Mof_C 	C 	0.6843	0.4485	0.877	0.313
Mof_C 	C 	0.5895	0.6523	0.9276	-0.831
Mof_C 	C 	0.084	0.7415	0.9469	-3.477
Mof_C 	C 	0.8617	0.7243	0.5448	0.876
Mof_C 	C 	0.9647	0.7383	0.6481	-1.625
Mof_C 	C 	0.27	0.6706	0.564	0.028
Mof_C 	C 	0.3157	0.5715	0.4485	0.378
Mof_C 	C 	0.4105	0.7247	0.6523	-0.686
Mof_C 	C 	0.916	0.7946	0.7415	2.672
Mof_C 	C 	0.8617	0.8205	0.2757	-0.57
Mof_C 	C 	0.9647	0.9098	0.2617	2.717
Mof_C 	C 	0.27	0.8934	0.3294	0.207
Mof_C 	C 	0.3157	0.877	0.4285	0.316
Mof_C 	C 	0.4105	0.9276	0.2753	-0.653
Mof_C 	C 	0.916	0.9469	0.2054	-4.351
Mof_C 	C 	0.8617	0.4552	0.1795	1.952
Mof_C 	C 	0.9647	0.3519	0.0902	-4.816
Mof_C 	C 	0.27	0.436	0.1066	-0.259
Mof_C 	C 	0.3157	0.5515	0.123	0.476
Mof_C 	C 	0.4105	0.3477	0.0724	-0.23
Mof_C 	C 	0.916	0.2585	0.0531	7.942
Mof_N 	N 	0.894	0.35026	0.38732	-0.066
Mof_N 	N 	0.894	0.03706	0.64974	0.353
Mof_N 	N 	0.894	0.61268	0.96294	-0.259
Mof_N 	N 	0.106	0.64974	0.61268	-0.037
Mof_N 	N 	0.106	0.96294	0.35026	-0.433
Mof_N 	N 	0.106	0.38732	0.03706	0.196
Mof_O 	O 	0.2428	0.19966	0.44439	-0.573
Mof_O 	O 	0.1211	0.36586	0.54767	-0.652
Mof_O 	O 	0.7873	0.51428	0.59293	-0.352
Mof_O 	O 	0.5496	0.4196	0.6007	-0.575
Mof_O 	O 	0.2428	0.24473	0.80034	-0.858
Mof_O 	O 	0.1211	0.18181	0.63414	-1.048
Mof_O 	O 	0.7873	0.07865	0.48572	-0.58
Mof_O 	O 	0.5496	0.1811	0.5804	-0.627
Mof_O 	O 	0.2428	0.55561	0.75527	-0.247
Mof_O 	O 	0.1211	0.45233	0.81819	-0.351
Mof_O 	O 	0.7873	0.40707	0.92135	-0.127
Mof_O 	O 	0.5496	0.3993	0.8189	-0.48
Mof_O 	O 	0.7572	0.80034	0.55561	-0.508
Mof_O 	O 	0.8789	0.63414	0.45233	-0.672
Mof_O 	O 	0.2127	0.48572	0.40707	-0.417
Mof_O 	O 	0.4504	0.5804	0.3993	-0.555
Mof_O 	O 	0.7572	0.75527	0.19966	-0.224
Mof_O 	O 	0.8789	0.81819	0.36586	-0.249
Mof_O 	O 	0.2127	0.92135	0.51428	-0.141
Mof_O 	O 	0.4504	0.8189	0.4196	-0.498
Mof_O 	O 	0.7572	0.44439	0.24473	-0.854
Mof_O 	O 	0.8789	0.54767	0.18181	-0.953
Mof_O 	O 	0.2127	0.59293	0.07865	-0.589
Mof_O 	O 	0.4504	0.6007	0.1811	-0.644
_end
