data_functionalizedCrystal
_audit_creation_method	'EQeq! by Chris Wilmer'
_symmetry_space_group_name_H-M	'P1'
_symmetry_Int_Tables_number	1
_symmetry_cell_setting	triclinic
loop_
_symmetry_equiv_pos_as_xyz
  x,y,z
_cell_length_a	10.741
_cell_length_b	11.109
_cell_length_c	11.933
_cell_angle_alpha	77.678
_cell_angle_beta	84.65
_cell_angle_gamma	75.99
loop_
_atom_site_label
_atom_site_type_symbol
_atom_site_fract_x
_atom_site_fract_y
_atom_site_fract_z
_atom_site_charge
Mof_Cu	Cu	0.54615	0.00692	0.80234	0.915
Mof_Cu	Cu	0.47807	0.75665	0.93413	0.913
Mof_Cu	Cu	0.49041	0.58251	0.66854	0.904
Mof_Cu	Cu	0.0302	0.21568	0.06598	0.834
Mof_Cu	Cu	0.45385	0.99308	0.19766	0.914
Mof_Cu	Cu	0.52193	0.24335	0.06587	0.912
Mof_Cu	Cu	0.50959	0.41749	0.33146	0.903
Mof_Cu	Cu	0.9698	0.78432	0.93402	0.833
Mof_P 	P 	0.424	0.8702	0.6639	0.413
Mof_P 	P 	0.2469	0.7251	0.8085	0.404
Mof_P 	P 	0.4876	0.303	0.8038	0.428
Mof_P 	P 	0.3128	0.1518	0.9439	0.413
Mof_P 	P 	0.576	0.1298	0.3361	0.413
Mof_P 	P 	0.7531	0.2749	0.1915	0.404
Mof_P 	P 	0.5124	0.697	0.1962	0.428
Mof_P 	P 	0.6872	0.8482	0.0561	0.413
Mof_H 	H 	0.1325	0.9703	0.7927	0.183
Mof_H 	H 	0.1977	0.3807	0.9237	0.168
Mof_H 	H 	0.0864	0.8961	0.621	0.083
Mof_H 	H 	0.2006	0.7996	0.5749	0.084
Mof_H 	H 	0.3162	0.8672	0.4045	0.047
Mof_H 	H 	0.2531	0.2169	0.2404	-0.019
Mof_H 	H 	0.1157	0.2813	0.3821	0.043
Mof_H 	H 	0.0789	0.1329	0.5475	0.058
Mof_H 	H 	0.1638	0.2671	0.7489	0.093
Mof_H 	H 	0.2955	0.1938	0.7031	0.102
Mof_H 	H 	0.0825	0.4996	0.6553	0.066
Mof_H 	H 	0.088	0.645	0.485	0.035
Mof_H 	H 	0.2594	0.6169	0.3557	0.021
Mof_H 	H 	0.4084	0.2887	0.5452	0.066
Mof_H 	H 	0.8675	0.0297	0.2073	0.183
Mof_H 	H 	0.8023	0.6193	0.0763	0.168
Mof_H 	H 	0.9136	0.1039	0.379	0.083
Mof_H 	H 	0.7994	0.2004	0.4251	0.084
Mof_H 	H 	0.6838	0.1328	0.5955	0.047
Mof_H 	H 	0.7469	0.7831	0.7596	-0.019
Mof_H 	H 	0.8843	0.7187	0.6179	0.043
Mof_H 	H 	0.9211	0.8671	0.4525	0.058
Mof_H 	H 	0.8362	0.7329	0.2511	0.093
Mof_H 	H 	0.7045	0.8062	0.2969	0.102
Mof_H 	H 	0.9175	0.5004	0.3447	0.066
Mof_H 	H 	0.912	0.355	0.515	0.035
Mof_H 	H 	0.7406	0.3831	0.6443	0.021
Mof_H 	H 	0.5916	0.7113	0.4548	0.066
Mof_C 	C 	0.2548	0.8737	0.7037	0.004
Mof_C 	C 	0.1769	0.8813	0.5976	-0.184
Mof_C 	C 	0.1945	0.9822	0.493	0.073
Mof_C 	C 	0.2751	0.9518	0.4013	-0.022
Mof_C 	C 	0.238	0.1568	0.3043	0.029
Mof_C 	C 	0.1565	0.1962	0.3888	-0.064
Mof_C 	C 	0.1337	0.1075	0.4875	-0.075
Mof_C 	C 	0.3182	0.2911	0.8274	0
Mof_C 	C 	0.2511	0.2733	0.7244	-0.199
Mof_C 	C 	0.247	0.3777	0.6196	0.093
Mof_C 	C 	0.1497	0.4858	0.601	-0.093
Mof_C 	C 	0.1544	0.5732	0.5001	-0.037
Mof_C 	C 	0.2562	0.5554	0.4217	0.002
Mof_C 	C 	0.3446	0.363	0.5347	-0.046
Mof_C 	C 	0.7452	0.1263	0.2963	0.004
Mof_C 	C 	0.8231	0.1187	0.4024	-0.184
Mof_C 	C 	0.8055	0.0178	0.507	0.073
Mof_C 	C 	0.7249	0.0482	0.5987	-0.022
Mof_C 	C 	0.762	0.8432	0.6957	0.029
Mof_C 	C 	0.8435	0.8038	0.6112	-0.064
Mof_C 	C 	0.8663	0.8925	0.5125	-0.075
Mof_C 	C 	0.6818	0.7089	0.1726	0
Mof_C 	C 	0.7489	0.7267	0.2756	-0.199
Mof_C 	C 	0.753	0.6223	0.3804	0.093
Mof_C 	C 	0.8503	0.5142	0.399	-0.093
Mof_C 	C 	0.8456	0.4268	0.4999	-0.037
Mof_C 	C 	0.7438	0.4446	0.5783	0.002
Mof_C 	C 	0.6554	0.637	0.4653	-0.046
Mof_N 	N 	0.2982	0.0362	0.3075	-0.192
Mof_N 	N 	0.3519	0.4493	0.4392	-0.187
Mof_N 	N 	0.7018	0.9638	0.6925	-0.192
Mof_N 	N 	0.6481	0.5507	0.5608	-0.187
Mof_O 	O 	0.4891	0.8546	0.7777	-0.479
Mof_O 	O 	0.4727	0.7601	0.6059	-0.389
Mof_O 	O 	0.437	0.997	0.5907	-0.225
Mof_O 	O 	0.3194	0.6154	0.7525	-0.351
Mof_O 	O 	0.3065	0.734	0.9168	-0.391
Mof_O 	O 	0.107	0.7211	0.8297	-0.409
Mof_O 	O 	0.1987	0.9814	0.7562	-0.333
Mof_O 	O 	0.4992	0.405	0.7002	-0.378
Mof_O 	O 	0.5688	0.1745	0.7859	-0.4
Mof_O 	O 	0.5221	0.3379	0.9123	-0.395
Mof_O 	O 	0.38	0.0373	0.8919	-0.386
Mof_O 	O 	0.1732	0.1492	0.9733	-0.433
Mof_O 	O 	0.3801	0.1651	0.0463	-0.465
Mof_O 	O 	0.2449	0.4023	0.8689	-0.32
Mof_O 	O 	0.5109	0.1454	0.2223	-0.479
Mof_O 	O 	0.5273	0.2399	0.3941	-0.389
Mof_O 	O 	0.563	0.003	0.4093	-0.225
Mof_O 	O 	0.6806	0.3846	0.2475	-0.351
Mof_O 	O 	0.6935	0.266	0.0832	-0.391
Mof_O 	O 	0.893	0.2789	0.1703	-0.409
Mof_O 	O 	0.8013	0.0186	0.2438	-0.333
Mof_O 	O 	0.5008	0.595	0.2998	-0.378
Mof_O 	O 	0.4312	0.8255	0.2141	-0.4
Mof_O 	O 	0.4779	0.6621	0.0877	-0.395
Mof_O 	O 	0.62	0.9627	0.1081	-0.386
Mof_O 	O 	0.8268	0.8508	0.0267	-0.433
Mof_O 	O 	0.6199	0.8349	0.9537	-0.465
Mof_O 	O 	0.7551	0.5977	0.1311	-0.32
_end
