data_functionalizedCrystal
_audit_creation_method	'EQeq! by Chris Wilmer'
_symmetry_space_group_name_H-M	'P1'
_symmetry_Int_Tables_number	1
_symmetry_cell_setting	triclinic
loop_
_symmetry_equiv_pos_as_xyz
  x,y,z
_cell_length_a	34.622
_cell_length_b	10.432
_cell_length_c	18.032
_cell_angle_alpha	90
_cell_angle_beta	100.95
_cell_angle_gamma	90
loop_
_atom_site_label
_atom_site_type_symbol
_atom_site_fract_x
_atom_site_fract_y
_atom_site_fract_z
_atom_site_charge
Mof_Cd	Cd	0.14854	0.32777	0.46249	0.498
Mof_O 	O 	0.15555	0.2059	0.5638	-0.313
Mof_O 	O 	0.21347	0.1231	0.5539	-0.305
Mof_O 	O 	0.14966	0.808	0.8692	-0.296
Mof_O 	O 	0.2132	0.7716	0.8838	-0.278
Mof_O 	O 	0.17244	0.5208	0.4182	-0.269
Mof_O 	O 	0.20975	0.4273	0.5161	-0.296
Mof_C 	C 	0.18393	0.0541	0.6552	-0.36
Mof_C 	C 	0.1524	0.0592	0.6922	0.919
Mof_C 	C 	0.1532	0.9841	0.7556	-0.446
Mof_H 	H 	0.1313	0.9874	0.781	0.199
Mof_C 	C 	0.18326	0.9034	0.7826	-0.105
Mof_C 	C 	0.2155	0.9009	0.7456	0.55
Mof_C 	C 	0.21488	0.9741	0.6824	-0.171
Mof_H 	H 	0.2365	0.9686	0.6561	0.114
Mof_C 	C 	0.184	0.1336	0.5859	0.429
Mof_C 	C 	0.1824	0.8235	0.851	0.347
Mof_C 	C 	0.22701	0.6396	0.483	-0.21
Mof_C 	C 	0.22117	0.7448	0.4342	0.687
Mof_H 	H 	0.2017	0.741	0.3886	-0.932
Mof_C 	C 	0.25681	0.6475	0.5491	-0.302
Mof_H 	H 	0.2611	0.5755	0.5828	0.16
Mof_C 	C 	0.20192	0.5212	0.4709	0.361
Mof_C 	C 	0.0368	0.4619	0.4898	0.081
Mof_C 	C 	0.0783	0.418	0.4828	0.223
Mof_N 	N 	0.1207	0.149	0.6697	0.982
Mof_H 	H 	0.1145	0.2108	0.6236	-0.117
Mof_H 	H 	0.0963	0.1672	0.6922	-0.153
Mof_H 	H 	0.2369	0.8415	0.764	-0.916
Mof_N 	N 	0.2467	0.8119	0.7632	0.871
Mof_H 	H 	0.2475	0.7561	0.8015	-0.091
Mof_H 	H 	0.2665	0.814	0.7373	-0.183
Mof_H 	H 	0.1307	0.1153	0.6761	-1.161
Mof_C 	C 	0.0036	0.3894	0.4594	-0.337
Mof_H 	H 	0.0063	0.3115	0.4325	0.852
Mof_C 	C 	0.0333	0.5729	0.5287	0.269
Mof_H 	H 	0.0562	0.6227	0.5493	-0.066
Mof_O 	O 	0.0806	0.3254	0.4399	-0.341
Mof_O 	O 	0.1074	0.4781	0.5159	-0.351
Mof_N 	N 	0.0006	0.284	0.404	-0.99
Mof_H 	H 	0.9779	0.2537	0.3838	0.296
Mof_H 	H 	0.0215	0.2521	0.392	0.264
Mof_C 	C 	0.0048	0.4369	0.4312	-0.466
Mof_H 	H 	0.0078	0.3932	0.3858	0.906
Mof_C 	C 	0.0313	0.5276	0.5538	-0.088
Mof_H 	H 	0.0541	0.5479	0.5911	0.028
Mof_O 	O 	0.0822	0.3671	0.4194	0.034
Mof_O 	O 	0.1064	0.4391	0.5371	0.109
Mof_N 	N 	0.0015	0.349	0.3665	-1.026
Mof_H 	H 	0.9787	0.3249	0.3427	0.347
Mof_H 	H 	0.0223	0.3208	0.3525	0.213
Mof_N 	N 	0.1941	0.74	0.3634	0.852
Mof_H 	H 	0.1803	0.6679	0.3498	-0.115
Mof_H 	H 	0.1908	0.8087	0.3326	-0.161
Mof_Cd	Cd	0.64854	0.82777	0.46249	0.497
Mof_O 	O 	0.65555	0.7059	0.5638	-0.313
Mof_O 	O 	0.71347	0.6231	0.5539	-0.305
Mof_O 	O 	0.64966	0.308	0.8692	-0.296
Mof_O 	O 	0.7132	0.2716	0.8838	-0.279
Mof_O 	O 	0.67244	0.0208	0.4182	-0.269
Mof_O 	O 	0.70975	0.9273	0.5161	-0.296
Mof_C 	C 	0.68393	0.5541	0.6552	-0.359
Mof_C 	C 	0.6524	0.5592	0.6922	0.919
Mof_C 	C 	0.6532	0.4841	0.7556	-0.447
Mof_H 	H 	0.6313	0.4874	0.781	0.199
Mof_C 	C 	0.68326	0.4034	0.7826	-0.105
Mof_C 	C 	0.7155	0.4009	0.7456	0.55
Mof_C 	C 	0.71488	0.4741	0.6824	-0.172
Mof_H 	H 	0.7365	0.4686	0.6561	0.114
Mof_C 	C 	0.684	0.6336	0.5859	0.429
Mof_C 	C 	0.6824	0.3235	0.851	0.347
Mof_C 	C 	0.72701	0.1396	0.483	-0.21
Mof_C 	C 	0.72117	0.2448	0.4342	0.687
Mof_H 	H 	0.7017	0.241	0.3886	-0.932
Mof_C 	C 	0.75681	0.1475	0.5491	-0.302
Mof_H 	H 	0.7611	0.0755	0.5828	0.16
Mof_C 	C 	0.70192	0.0212	0.4709	0.361
Mof_C 	C 	0.5368	0.9619	0.4898	0.082
Mof_C 	C 	0.5783	0.918	0.4828	0.223
Mof_N 	N 	0.6207	0.649	0.6697	0.981
Mof_H 	H 	0.6145	0.7108	0.6236	-0.116
Mof_H 	H 	0.5963	0.6672	0.6922	-0.153
Mof_H 	H 	0.7369	0.3415	0.764	-0.916
Mof_N 	N 	0.7467	0.3119	0.7632	0.871
Mof_H 	H 	0.7475	0.2561	0.8015	-0.091
Mof_H 	H 	0.7665	0.314	0.7373	-0.183
Mof_H 	H 	0.6307	0.6153	0.6761	-1.16
Mof_C 	C 	0.5036	0.8894	0.4594	-0.337
Mof_H 	H 	0.5063	0.8115	0.4325	0.853
Mof_C 	C 	0.5333	0.0729	0.5287	0.268
Mof_H 	H 	0.5562	0.1227	0.5493	-0.065
Mof_O 	O 	0.5806	0.8254	0.4399	-0.341
Mof_O 	O 	0.6074	0.9781	0.5159	-0.352
Mof_N 	N 	0.5006	0.784	0.404	-0.991
Mof_H 	H 	0.4779	0.7537	0.3838	0.297
Mof_H 	H 	0.5215	0.7521	0.392	0.264
Mof_C 	C 	0.5048	0.9369	0.4312	-0.468
Mof_H 	H 	0.5078	0.8932	0.3858	0.907
Mof_C 	C 	0.5313	0.0276	0.5538	-0.089
Mof_H 	H 	0.5541	0.0479	0.5911	0.028
Mof_O 	O 	0.5822	0.8671	0.4194	0.033
Mof_O 	O 	0.6064	0.9391	0.5371	0.11
Mof_N 	N 	0.5015	0.849	0.3665	-1.027
Mof_H 	H 	0.4787	0.8249	0.3427	0.348
Mof_H 	H 	0.5223	0.8208	0.3525	0.213
Mof_N 	N 	0.6941	0.24	0.3634	0.852
Mof_H 	H 	0.6803	0.1679	0.3498	-0.115
Mof_H 	H 	0.6908	0.3087	0.3326	-0.161
Mof_Cd	Cd	0.85146	0.32777	0.03751	0.485
Mof_O 	O 	0.84445	0.2059	0.9362	-0.306
Mof_O 	O 	0.78653	0.1231	0.9461	-0.298
Mof_O 	O 	0.85034	0.808	0.6308	-0.297
Mof_O 	O 	0.7868	0.7716	0.6162	-0.283
Mof_O 	O 	0.82756	0.5208	0.0818	-0.269
Mof_O 	O 	0.79025	0.4273	0.9839	-0.279
Mof_C 	C 	0.81607	0.0541	0.8448	-0.36
Mof_C 	C 	0.8476	0.0592	0.8078	0.921
Mof_C 	C 	0.8468	0.9841	0.7444	-0.446
Mof_H 	H 	0.8687	0.9874	0.719	0.198
Mof_C 	C 	0.81674	0.9034	0.7174	-0.105
Mof_C 	C 	0.7845	0.9009	0.7544	0.55
Mof_C 	C 	0.78512	0.9741	0.8176	-0.17
Mof_H 	H 	0.7635	0.9686	0.8439	0.114
Mof_C 	C 	0.816	0.1336	0.9141	0.427
Mof_C 	C 	0.8176	0.8235	0.649	0.348
Mof_C 	C 	0.77299	0.6396	0.017	-0.227
Mof_C 	C 	0.77883	0.7448	0.0658	0.691
Mof_H 	H 	0.7983	0.741	0.1114	-0.923
Mof_C 	C 	0.74319	0.6475	0.9509	-0.279
Mof_H 	H 	0.7389	0.5755	0.9172	0.156
Mof_C 	C 	0.79808	0.5212	0.0291	0.348
Mof_C 	C 	0.9632	0.4619	0.0102	0.059
Mof_C 	C 	0.9217	0.418	0.0172	0.209
Mof_N 	N 	0.8793	0.149	0.8303	0.984
Mof_H 	H 	0.8855	0.2108	0.8764	-0.114
Mof_H 	H 	0.9037	0.1672	0.8078	-0.153
Mof_H 	H 	0.7631	0.8415	0.736	-0.916
Mof_N 	N 	0.7533	0.8119	0.7368	0.871
Mof_H 	H 	0.7525	0.7561	0.6985	-0.091
Mof_H 	H 	0.7335	0.814	0.7627	-0.183
Mof_H 	H 	0.8693	0.1153	0.8239	-1.163
Mof_C 	C 	0.9964	0.3894	0.0406	-0.331
Mof_H 	H 	0.9937	0.3115	0.0675	0.844
Mof_C 	C 	0.9667	0.5729	0.9713	0.283
Mof_H 	H 	0.9438	0.6227	0.9507	-0.068
Mof_O 	O 	0.9194	0.3254	0.0601	-0.33
Mof_O 	O 	0.8926	0.4781	0.9841	-0.298
Mof_N 	N 	0.9994	0.284	0.096	-0.984
Mof_H 	H 	0.0221	0.2537	0.1162	0.294
Mof_H 	H 	0.9785	0.2521	0.108	0.262
Mof_C 	C 	0.9952	0.4369	0.0688	-0.456
Mof_H 	H 	0.9922	0.3932	0.1142	0.897
Mof_C 	C 	0.9687	0.5276	0.9462	-0.078
Mof_H 	H 	0.9459	0.5479	0.9089	0.026
Mof_O 	O 	0.9178	0.3671	0.0806	0.024
Mof_O 	O 	0.8936	0.4391	0.9629	0.073
Mof_N 	N 	0.9985	0.349	0.1335	-1.019
Mof_H 	H 	0.0213	0.3249	0.1573	0.345
Mof_H 	H 	0.9777	0.3208	0.1475	0.212
Mof_N 	N 	0.8059	0.74	0.1366	0.839
Mof_H 	H 	0.8197	0.6679	0.1502	-0.112
Mof_H 	H 	0.8092	0.8087	0.1674	-0.158
Mof_Cd	Cd	0.35146	0.82777	0.03751	0.483
Mof_O 	O 	0.34445	0.7059	0.9362	-0.305
Mof_O 	O 	0.28653	0.6231	0.9461	-0.297
Mof_O 	O 	0.35034	0.308	0.6308	-0.297
Mof_O 	O 	0.2868	0.2716	0.6162	-0.283
Mof_O 	O 	0.32756	0.0208	0.0818	-0.268
Mof_O 	O 	0.29025	0.9273	0.9839	-0.277
Mof_C 	C 	0.31607	0.5541	0.8448	-0.358
Mof_C 	C 	0.3476	0.5592	0.8078	0.922
Mof_C 	C 	0.3468	0.4841	0.7444	-0.448
Mof_H 	H 	0.3687	0.4874	0.719	0.198
Mof_C 	C 	0.31674	0.4034	0.7174	-0.105
Mof_C 	C 	0.2845	0.4009	0.7544	0.55
Mof_C 	C 	0.28512	0.4741	0.8176	-0.172
Mof_H 	H 	0.2635	0.4686	0.8439	0.115
Mof_C 	C 	0.316	0.6336	0.9141	0.427
Mof_C 	C 	0.3176	0.3235	0.649	0.347
Mof_C 	C 	0.27299	0.1396	0.017	-0.225
Mof_C 	C 	0.27883	0.2448	0.0658	0.69
Mof_H 	H 	0.2983	0.241	0.1114	-0.924
Mof_C 	C 	0.24319	0.1475	0.9509	-0.282
Mof_H 	H 	0.2389	0.0755	0.9172	0.156
Mof_C 	C 	0.29808	0.0212	0.0291	0.347
Mof_C 	C 	0.4632	0.9619	0.0102	0.059
Mof_C 	C 	0.4217	0.918	0.0172	0.207
Mof_N 	N 	0.3793	0.649	0.8303	0.983
Mof_H 	H 	0.3855	0.7108	0.8764	-0.114
Mof_H 	H 	0.4037	0.6672	0.8078	-0.152
Mof_H 	H 	0.2631	0.3415	0.736	-0.915
Mof_N 	N 	0.2533	0.3119	0.7368	0.871
Mof_H 	H 	0.2525	0.2561	0.6985	-0.091
Mof_H 	H 	0.2335	0.314	0.7627	-0.183
Mof_H 	H 	0.3693	0.6153	0.8239	-1.162
Mof_C 	C 	0.4964	0.8894	0.0406	-0.331
Mof_H 	H 	0.4937	0.8115	0.0675	0.843
Mof_C 	C 	0.4667	0.0729	0.9713	0.284
Mof_H 	H 	0.4438	0.1227	0.9507	-0.069
Mof_O 	O 	0.4194	0.8254	0.0601	-0.33
Mof_O 	O 	0.3926	0.9781	0.9841	-0.294
Mof_N 	N 	0.4994	0.784	0.096	-0.982
Mof_H 	H 	0.5221	0.7537	0.1162	0.293
Mof_H 	H 	0.4785	0.7521	0.108	0.261
Mof_C 	C 	0.4952	0.9369	0.0688	-0.455
Mof_H 	H 	0.4922	0.8932	0.1142	0.896
Mof_C 	C 	0.4687	0.0276	0.9462	-0.078
Mof_H 	H 	0.4459	0.0479	0.9089	0.026
Mof_O 	O 	0.4178	0.8671	0.0806	0.024
Mof_O 	O 	0.3936	0.9391	0.9629	0.071
Mof_N 	N 	0.4985	0.849	0.1335	-1.019
Mof_H 	H 	0.5213	0.8249	0.1573	0.345
Mof_H 	H 	0.4777	0.8208	0.1475	0.212
Mof_N 	N 	0.3059	0.24	0.1366	0.841
Mof_H 	H 	0.3197	0.1679	0.1502	-0.112
Mof_H 	H 	0.3092	0.3087	0.1674	-0.159
Mof_Cd	Cd	0.85146	0.67223	0.53751	0.497
Mof_O 	O 	0.84445	0.7941	0.4362	-0.313
Mof_O 	O 	0.78653	0.8769	0.4461	-0.305
Mof_O 	O 	0.85034	0.192	0.1308	-0.299
Mof_O 	O 	0.7868	0.2284	0.1162	-0.283
Mof_O 	O 	0.82756	0.4792	0.5818	-0.269
Mof_O 	O 	0.79025	0.5727	0.4839	-0.296
Mof_C 	C 	0.81607	0.9459	0.3448	-0.36
Mof_C 	C 	0.8476	0.9408	0.3078	0.918
Mof_C 	C 	0.8468	0.0159	0.2444	-0.446
Mof_H 	H 	0.8687	0.0126	0.219	0.197
Mof_C 	C 	0.81674	0.0966	0.2174	-0.106
Mof_C 	C 	0.7845	0.0991	0.2544	0.55
Mof_C 	C 	0.78512	0.0259	0.3176	-0.171
Mof_H 	H 	0.7635	0.0314	0.3439	0.114
Mof_C 	C 	0.816	0.8664	0.4141	0.429
Mof_C 	C 	0.8176	0.1765	0.149	0.347
Mof_C 	C 	0.77299	0.3604	0.517	-0.21
Mof_C 	C 	0.77883	0.2552	0.5658	0.687
Mof_H 	H 	0.7983	0.259	0.6114	-0.933
Mof_C 	C 	0.74319	0.3525	0.4509	-0.302
Mof_H 	H 	0.7389	0.4245	0.4172	0.16
Mof_C 	C 	0.79808	0.4788	0.5291	0.361
Mof_C 	C 	0.9632	0.5381	0.5102	0.083
Mof_C 	C 	0.9217	0.582	0.5172	0.222
Mof_N 	N 	0.8793	0.851	0.3303	0.982
Mof_H 	H 	0.8855	0.7892	0.3764	-0.117
Mof_H 	H 	0.9037	0.8328	0.3078	-0.154
Mof_H 	H 	0.7631	0.1585	0.236	-0.916
Mof_N 	N 	0.7533	0.1881	0.2368	0.871
Mof_H 	H 	0.7525	0.2439	0.1985	-0.091
Mof_H 	H 	0.7335	0.186	0.2627	-0.183
Mof_H 	H 	0.8693	0.8847	0.3239	-1.161
Mof_C 	C 	0.9964	0.6106	0.5406	-0.34
Mof_H 	H 	0.9937	0.6885	0.5675	0.854
Mof_C 	C 	0.9667	0.4271	0.4713	0.267
Mof_H 	H 	0.9438	0.3773	0.4507	-0.065
Mof_O 	O 	0.9194	0.6746	0.5601	-0.342
Mof_O 	O 	0.8926	0.5219	0.4841	-0.349
Mof_N 	N 	0.9994	0.716	0.596	-0.991
Mof_H 	H 	0.0221	0.7463	0.6162	0.297
Mof_H 	H 	0.9785	0.7479	0.608	0.264
Mof_C 	C 	0.9952	0.5631	0.5688	-0.468
Mof_H 	H 	0.9922	0.6068	0.6142	0.909
Mof_C 	C 	0.9687	0.4724	0.4462	-0.089
Mof_H 	H 	0.9459	0.4521	0.4089	0.028
Mof_O 	O 	0.9178	0.6329	0.5806	0.035
Mof_O 	O 	0.8936	0.5609	0.4629	0.107
Mof_N 	N 	0.9985	0.651	0.6335	-1.031
Mof_H 	H 	0.0213	0.6751	0.6573	0.349
Mof_H 	H 	0.9777	0.6792	0.6475	0.214
Mof_N 	N 	0.8059	0.26	0.6366	0.853
Mof_H 	H 	0.8197	0.3321	0.6502	-0.114
Mof_H 	H 	0.8092	0.1913	0.6674	-0.161
Mof_Cd	Cd	0.35146	0.17223	0.53751	0.497
Mof_O 	O 	0.34445	0.2941	0.4362	-0.313
Mof_O 	O 	0.28653	0.3769	0.4461	-0.305
Mof_O 	O 	0.35034	0.692	0.1308	-0.299
Mof_O 	O 	0.2868	0.7284	0.1162	-0.284
Mof_O 	O 	0.32756	0.9792	0.5818	-0.269
Mof_O 	O 	0.29025	0.0727	0.4839	-0.296
Mof_C 	C 	0.31607	0.4459	0.3448	-0.359
Mof_C 	C 	0.3476	0.4408	0.3078	0.919
Mof_C 	C 	0.3468	0.5159	0.2444	-0.447
Mof_H 	H 	0.3687	0.5126	0.219	0.197
Mof_C 	C 	0.31674	0.5966	0.2174	-0.106
Mof_C 	C 	0.2845	0.5991	0.2544	0.55
Mof_C 	C 	0.28512	0.5259	0.3176	-0.172
Mof_H 	H 	0.2635	0.5314	0.3439	0.114
Mof_C 	C 	0.316	0.3664	0.4141	0.429
Mof_C 	C 	0.3176	0.6765	0.149	0.347
Mof_C 	C 	0.27299	0.8604	0.517	-0.21
Mof_C 	C 	0.27883	0.7552	0.5658	0.687
Mof_H 	H 	0.2983	0.759	0.6114	-0.933
Mof_C 	C 	0.24319	0.8525	0.4509	-0.302
Mof_H 	H 	0.2389	0.9245	0.4172	0.16
Mof_C 	C 	0.29808	0.9788	0.5291	0.361
Mof_C 	C 	0.4632	0.0381	0.5102	0.081
Mof_C 	C 	0.4217	0.082	0.5172	0.223
Mof_N 	N 	0.3793	0.351	0.3303	0.981
Mof_H 	H 	0.3855	0.2892	0.3764	-0.117
Mof_H 	H 	0.4037	0.3328	0.3078	-0.154
Mof_H 	H 	0.2631	0.6585	0.236	-0.915
Mof_N 	N 	0.2533	0.6881	0.2368	0.871
Mof_H 	H 	0.2525	0.7439	0.1985	-0.091
Mof_H 	H 	0.2335	0.686	0.2627	-0.183
Mof_H 	H 	0.3693	0.3847	0.3239	-1.16
Mof_C 	C 	0.4964	0.1106	0.5406	-0.338
Mof_H 	H 	0.4937	0.1885	0.5675	0.853
Mof_C 	C 	0.4667	0.9271	0.4713	0.268
Mof_H 	H 	0.4438	0.8773	0.4507	-0.065
Mof_O 	O 	0.4194	0.1746	0.5601	-0.342
Mof_O 	O 	0.3926	0.0219	0.4841	-0.351
Mof_N 	N 	0.4994	0.216	0.596	-0.99
Mof_H 	H 	0.5221	0.2463	0.6162	0.297
Mof_H 	H 	0.4785	0.2479	0.608	0.264
Mof_C 	C 	0.4952	0.0631	0.5688	-0.467
Mof_H 	H 	0.4922	0.1068	0.6142	0.907
Mof_C 	C 	0.4687	0.9724	0.4462	-0.089
Mof_H 	H 	0.4459	0.9521	0.4089	0.028
Mof_O 	O 	0.4178	0.1329	0.5806	0.035
Mof_O 	O 	0.3936	0.0609	0.4629	0.109
Mof_N 	N 	0.4985	0.151	0.6335	-1.028
Mof_H 	H 	0.5213	0.1751	0.6573	0.348
Mof_H 	H 	0.4777	0.1792	0.6475	0.214
Mof_N 	N 	0.3059	0.76	0.6366	0.853
Mof_H 	H 	0.3197	0.8321	0.6502	-0.114
Mof_H 	H 	0.3092	0.6913	0.6674	-0.161
Mof_Cd	Cd	0.14854	0.67223	0.96249	0.512
Mof_O 	O 	0.15555	0.7941	0.0638	-0.32
Mof_O 	O 	0.21347	0.8769	0.0539	-0.309
Mof_O 	O 	0.14966	0.192	0.3692	-0.298
Mof_O 	O 	0.2132	0.2284	0.3838	-0.283
Mof_O 	O 	0.17244	0.4792	0.9182	-0.27
Mof_O 	O 	0.20975	0.5727	0.0161	-0.31
Mof_C 	C 	0.18393	0.9459	0.1552	-0.361
Mof_C 	C 	0.1524	0.9408	0.1922	0.917
Mof_C 	C 	0.1532	0.0159	0.2556	-0.445
Mof_H 	H 	0.1313	0.0126	0.281	0.197
Mof_C 	C 	0.18326	0.0966	0.2826	-0.107
Mof_C 	C 	0.2155	0.0991	0.2456	0.55
Mof_C 	C 	0.21488	0.0259	0.1824	-0.171
Mof_H 	H 	0.2365	0.0314	0.1561	0.114
Mof_C 	C 	0.184	0.8664	0.0859	0.429
Mof_C 	C 	0.1824	0.1765	0.351	0.348
Mof_C 	C 	0.22701	0.3604	0.983	-0.194
Mof_C 	C 	0.22117	0.2552	0.9342	0.683
Mof_H 	H 	0.2017	0.259	0.8886	-0.941
Mof_C 	C 	0.25681	0.3525	0.0491	-0.323
Mof_H 	H 	0.2611	0.4245	0.0828	0.165
Mof_C 	C 	0.20192	0.4788	0.9709	0.374
Mof_C 	C 	0.0368	0.5381	0.9898	0.104
Mof_C 	C 	0.0783	0.582	0.9828	0.236
Mof_N 	N 	0.1207	0.851	0.1697	0.98
Mof_H 	H 	0.1145	0.7892	0.1236	-0.12
Mof_H 	H 	0.0963	0.8328	0.1922	-0.155
Mof_H 	H 	0.2369	0.1585	0.264	-0.916
Mof_N 	N 	0.2467	0.1881	0.2632	0.871
Mof_H 	H 	0.2475	0.2439	0.3015	-0.091
Mof_H 	H 	0.2665	0.186	0.2373	-0.183
Mof_H 	H 	0.1307	0.8847	0.1761	-1.159
Mof_C 	C 	0.0036	0.6106	0.9594	-0.344
Mof_H 	H 	0.0063	0.6885	0.9325	0.862
Mof_C 	C 	0.0333	0.4271	0.0287	0.252
Mof_H 	H 	0.0562	0.3773	0.0493	-0.062
Mof_O 	O 	0.0806	0.6746	0.9399	-0.348
Mof_O 	O 	0.1074	0.5219	0.0159	-0.396
Mof_N 	N 	0.0006	0.716	0.904	-0.998
Mof_H 	H 	0.9779	0.7463	0.8838	0.3
Mof_H 	H 	0.0215	0.7479	0.892	0.267
Mof_C 	C 	0.0048	0.5631	0.9312	-0.478
Mof_H 	H 	0.0078	0.6068	0.8858	0.917
Mof_C 	C 	0.0313	0.4724	0.0538	-0.1
Mof_H 	H 	0.0541	0.4521	0.0911	0.031
Mof_O 	O 	0.0822	0.6329	0.9194	0.039
Mof_O 	O 	0.1064	0.5609	0.0371	0.138
Mof_N 	N 	0.0015	0.651	0.8665	-1.035
Mof_H 	H 	0.9787	0.6751	0.8427	0.351
Mof_H 	H 	0.0223	0.6792	0.8525	0.215
Mof_N 	N 	0.1941	0.26	0.8634	0.864
Mof_H 	H 	0.1803	0.3321	0.8498	-0.117
Mof_H 	H 	0.1908	0.1913	0.8326	-0.164
Mof_Cd	Cd	0.64854	0.17223	0.96249	0.509
Mof_O 	O 	0.65555	0.2941	0.0638	-0.32
Mof_O 	O 	0.71347	0.3769	0.0539	-0.309
Mof_O 	O 	0.64966	0.692	0.3692	-0.298
Mof_O 	O 	0.7132	0.7284	0.3838	-0.283
Mof_O 	O 	0.67244	0.9792	0.9182	-0.269
Mof_O 	O 	0.70975	0.0727	0.0161	-0.309
Mof_C 	C 	0.68393	0.4459	0.1552	-0.36
Mof_C 	C 	0.6524	0.4408	0.1922	0.917
Mof_C 	C 	0.6532	0.5159	0.2556	-0.446
Mof_H 	H 	0.6313	0.5126	0.281	0.197
Mof_C 	C 	0.68326	0.5966	0.2826	-0.107
Mof_C 	C 	0.7155	0.5991	0.2456	0.55
Mof_C 	C 	0.71488	0.5259	0.1824	-0.172
Mof_H 	H 	0.7365	0.5314	0.1561	0.114
Mof_C 	C 	0.684	0.3664	0.0859	0.429
Mof_C 	C 	0.6824	0.6765	0.351	0.348
Mof_C 	C 	0.72701	0.8604	0.983	-0.192
Mof_C 	C 	0.72117	0.7552	0.9342	0.683
Mof_H 	H 	0.7017	0.759	0.8886	-0.942
Mof_C 	C 	0.75681	0.8525	0.0491	-0.326
Mof_H 	H 	0.7611	0.9245	0.0828	0.165
Mof_C 	C 	0.70192	0.9788	0.9709	0.374
Mof_C 	C 	0.5368	0.0381	0.9898	0.104
Mof_C 	C 	0.5783	0.082	0.9828	0.233
Mof_N 	N 	0.6207	0.351	0.1697	0.98
Mof_H 	H 	0.6145	0.2892	0.1236	-0.119
Mof_H 	H 	0.5963	0.3328	0.1922	-0.154
Mof_H 	H 	0.7369	0.6585	0.264	-0.915
Mof_N 	N 	0.7467	0.6881	0.2632	0.871
Mof_H 	H 	0.7475	0.7439	0.3015	-0.091
Mof_H 	H 	0.7665	0.686	0.2373	-0.183
Mof_H 	H 	0.6307	0.3847	0.1761	-1.158
Mof_C 	C 	0.5036	0.1106	0.9594	-0.345
Mof_H 	H 	0.5063	0.1885	0.9325	0.862
Mof_C 	C 	0.5333	0.9271	0.0287	0.252
Mof_H 	H 	0.5562	0.8773	0.0493	-0.063
Mof_O 	O 	0.5806	0.1746	0.9399	-0.345
Mof_O 	O 	0.6074	0.0219	0.0159	-0.39
Mof_N 	N 	0.5006	0.216	0.904	-0.998
Mof_H 	H 	0.4779	0.2463	0.8838	0.3
Mof_H 	H 	0.5215	0.2479	0.892	0.267
Mof_C 	C 	0.5048	0.0631	0.9312	-0.479
Mof_H 	H 	0.5078	0.1068	0.8858	0.918
Mof_C 	C 	0.5313	0.9724	0.0538	-0.1
Mof_H 	H 	0.5541	0.9521	0.0911	0.031
Mof_O 	O 	0.5822	0.1329	0.9194	0.037
Mof_O 	O 	0.6064	0.0609	0.0371	0.134
Mof_N 	N 	0.5015	0.151	0.8665	-1.037
Mof_H 	H 	0.4787	0.1751	0.8427	0.351
Mof_H 	H 	0.5223	0.1792	0.8525	0.215
Mof_N 	N 	0.6941	0.76	0.8634	0.866
Mof_H 	H 	0.6803	0.8321	0.8498	-0.117
Mof_H 	H 	0.6908	0.6913	0.8326	-0.164
Mof_Cd	Cd	0.25	0.25	0.5	0.529
Mof_Cd	Cd	0.75	0.25	-0	0.515
Mof_Cd	Cd	0.75	0.75	0.5	0.529
Mof_Cd	Cd	0.25	0.75	-0	0.513
_end
