data_functionalizedCrystal
_audit_creation_method	'EQeq! by Chris Wilmer'
_symmetry_space_group_name_H-M	'P1'
_symmetry_Int_Tables_number	1
_symmetry_cell_setting	triclinic
loop_
_symmetry_equiv_pos_as_xyz
  x,y,z
_cell_length_a	26.0328
_cell_length_b	9.1655
_cell_length_c	27.4382
_cell_angle_alpha	90
_cell_angle_beta	117.814
_cell_angle_gamma	90
loop_
_atom_site_label
_atom_site_type_symbol
_atom_site_fract_x
_atom_site_fract_y
_atom_site_fract_z
_atom_site_charge
Mof_Zn	Zn	0.11317	0.13603	0.16457	1.226
Mof_N 	N 	0.25625	0.4711	0.48284	-0.191
Mof_N 	N 	0.15023	0.9277	0.18693	-0.254
Mof_C 	C 	0.16437	0.3693	0.31366	-0.155
Mof_C 	C 	0.1467	0.484	0.33493	0.098
Mof_H 	H 	0.1147	0.5396	0.3116	0.016
Mof_C 	C 	0.17629	0.5173	0.39087	-0.201
Mof_H 	H 	0.1633	0.5932	0.4048	0.106
Mof_C 	C 	0.22498	0.4379	0.42591	0.174
Mof_C 	C 	0.24286	0.3234	0.40395	-0.21
Mof_H 	H 	0.2756	0.2693	0.4267	0.108
Mof_C 	C 	0.21254	0.2898	0.34903	0.104
Mof_H 	H 	0.2247	0.2118	0.3353	0.009
Mof_C 	C 	0.31806	0.4635	0.51029	0.163
Mof_C 	C 	0.34809	0.4149	0.56471	-0.191
Mof_H 	H 	0.3277	0.3869	0.5834	0.106
Mof_C 	C 	0.40797	0.4082	0.59087	0.086
Mof_H 	H 	0.4275	0.3753	0.6271	0.024
Mof_C 	C 	0.43937	0.4495	0.56418	-0.127
Mof_C 	C 	0.40953	0.4968	0.50997	0.082
Mof_H 	H 	0.4302	0.5242	0.4914	0.037
Mof_C 	C 	0.34984	0.5039	0.48325	-0.186
Mof_H 	H 	0.3306	0.5358	0.4469	0.108
Mof_C 	C 	0.22662	0.5206	0.51187	0.173
Mof_C 	C 	0.1739	0.4597	0.5023	-0.201
Mof_H 	H 	0.1583	0.3835	0.4772	0.11
Mof_C 	C 	0.14447	0.5109	0.52957	0.092
Mof_H 	H 	0.1089	0.4698	0.5223	0.021
Mof_C 	C 	0.16746	0.624	0.568	-0.148
Mof_C 	C 	0.22107	0.6807	0.57852	0.099
Mof_H 	H 	0.2376	0.7541	0.6047	0.008
Mof_C 	C 	0.25022	0.6307	0.55097	-0.202
Mof_H 	H 	0.286	0.6709	0.5586	0.106
Mof_C 	C 	0.13261	0.3325	0.25244	0.38
Mof_C 	C 	0.50518	0.4441	0.59277	0.351
Mof_C 	C 	0.13346	0.684	0.59564	0.354
Mof_C 	C 	0.17943	0.8853	0.23944	0.101
Mof_H 	H 	0.1852	0.9522	0.267	-0.005
Mof_C 	C 	0.20127	0.7465	0.25428	-0.166
Mof_H 	H 	0.222	0.7213	0.2913	0.097
Mof_C 	C 	0.19252	0.6462	0.2146	0.104
Mof_H 	H 	0.2059	0.5509	0.2239	-0
Mof_C 	C 	0.16394	0.6882	0.16112	-0.16
Mof_H 	H 	0.1583	0.6226	0.1332	0.099
Mof_C 	C 	0.14335	0.8285	0.14844	0.099
Mof_H 	H 	0.1238	0.8558	0.1116	-0.001
Mof_O 	O 	0.09562	0.4157	0.22118	-0.289
Mof_O 	O 	0.14827	0.2147	0.23944	-0.46
Mof_O 	O 	0.53176	0.5049	0.57113	-0.311
Mof_O 	O 	0.5293	0.378	0.63824	-0.439
Mof_O 	O 	0.15705	0.7887	0.62848	-0.46
Mof_O 	O 	0.08533	0.6329	0.58398	-0.294
Mof_Zn	Zn	0.61317	0.63603	0.16457	1.227
Mof_N 	N 	0.75625	0.9711	0.48284	-0.191
Mof_N 	N 	0.65023	0.4277	0.18693	-0.253
Mof_C 	C 	0.66437	0.8693	0.31366	-0.156
Mof_C 	C 	0.6467	0.984	0.33493	0.105
Mof_H 	H 	0.6147	0.0396	0.3116	0.014
Mof_C 	C 	0.67629	0.0173	0.39087	-0.205
Mof_H 	H 	0.6633	0.0932	0.4048	0.108
Mof_C 	C 	0.72498	0.9379	0.42591	0.178
Mof_C 	C 	0.74286	0.8234	0.40395	-0.211
Mof_H 	H 	0.7756	0.7693	0.4267	0.11
Mof_C 	C 	0.71254	0.7898	0.34903	0.108
Mof_H 	H 	0.7247	0.7118	0.3353	0.008
Mof_C 	C 	0.81806	0.9635	0.51029	0.163
Mof_C 	C 	0.84809	0.9149	0.56471	-0.191
Mof_H 	H 	0.8277	0.8869	0.5834	0.105
Mof_C 	C 	0.90797	0.9082	0.59087	0.086
Mof_H 	H 	0.9275	0.8753	0.6271	0.024
Mof_C 	C 	0.93937	0.9495	0.56418	-0.126
Mof_C 	C 	0.90953	0.9968	0.50997	0.081
Mof_H 	H 	0.9302	0.0242	0.4914	0.037
Mof_C 	C 	0.84984	0.0039	0.48325	-0.185
Mof_H 	H 	0.8306	0.0358	0.4469	0.107
Mof_C 	C 	0.72662	0.0206	0.51187	0.174
Mof_C 	C 	0.6739	0.9597	0.5023	-0.204
Mof_H 	H 	0.6583	0.8835	0.4772	0.111
Mof_C 	C 	0.64447	0.0109	0.52957	0.094
Mof_H 	H 	0.6089	0.9698	0.5223	0.02
Mof_C 	C 	0.66746	0.124	0.568	-0.149
Mof_C 	C 	0.72107	0.1807	0.57852	0.1
Mof_H 	H 	0.7376	0.2541	0.6047	0.008
Mof_C 	C 	0.75022	0.1307	0.55097	-0.203
Mof_H 	H 	0.786	0.1709	0.5586	0.107
Mof_C 	C 	0.63261	0.8325	0.25244	0.381
Mof_C 	C 	0.00518	0.9441	0.59277	0.35
Mof_C 	C 	0.63346	0.184	0.59564	0.355
Mof_C 	C 	0.67943	0.3853	0.23944	0.1
Mof_H 	H 	0.6852	0.4522	0.267	-0.005
Mof_C 	C 	0.70127	0.2465	0.25428	-0.167
Mof_H 	H 	0.722	0.2213	0.2913	0.097
Mof_C 	C 	0.69252	0.1462	0.2146	0.104
Mof_H 	H 	0.7059	0.0509	0.2239	-0.001
Mof_C 	C 	0.66394	0.1882	0.16112	-0.16
Mof_H 	H 	0.6583	0.1226	0.1332	0.099
Mof_C 	C 	0.64335	0.3285	0.14844	0.099
Mof_H 	H 	0.6238	0.3558	0.1116	-0.001
Mof_O 	O 	0.59562	0.9157	0.22118	-0.289
Mof_O 	O 	0.64827	0.7147	0.23944	-0.46
Mof_O 	O 	0.03176	0.0049	0.57113	-0.31
Mof_O 	O 	0.0293	0.878	0.63824	-0.439
Mof_O 	O 	0.65705	0.2887	0.62848	-0.46
Mof_O 	O 	0.58533	0.1329	0.58398	-0.294
Mof_Zn	Zn	0.11317	0.86397	0.66457	1.227
Mof_N 	N 	0.25625	0.5289	0.98284	-0.191
Mof_N 	N 	0.15023	0.0723	0.68693	-0.253
Mof_C 	C 	0.16437	0.6307	0.81366	-0.154
Mof_C 	C 	0.1467	0.516	0.83493	0.099
Mof_H 	H 	0.1147	0.4604	0.8116	0.017
Mof_C 	C 	0.17629	0.4827	0.89087	-0.2
Mof_H 	H 	0.1633	0.4068	0.9048	0.106
Mof_C 	C 	0.22498	0.5621	0.92591	0.175
Mof_C 	C 	0.24286	0.6766	0.90395	-0.209
Mof_H 	H 	0.2756	0.7307	0.9267	0.109
Mof_C 	C 	0.21254	0.7102	0.84903	0.105
Mof_H 	H 	0.2247	0.7882	0.8353	0.009
Mof_C 	C 	0.31806	0.5365	0.01029	0.164
Mof_C 	C 	0.34809	0.5851	0.06471	-0.192
Mof_H 	H 	0.3277	0.6131	0.0834	0.106
Mof_C 	C 	0.40797	0.5918	0.09087	0.087
Mof_H 	H 	0.4275	0.6247	0.1271	0.023
Mof_C 	C 	0.43937	0.5505	0.06418	-0.127
Mof_C 	C 	0.40953	0.5032	0.00997	0.083
Mof_H 	H 	0.4302	0.4758	0.9914	0.037
Mof_C 	C 	0.34984	0.4961	0.98325	-0.187
Mof_H 	H 	0.3306	0.4642	0.9469	0.108
Mof_C 	C 	0.22662	0.4794	0.01187	0.172
Mof_C 	C 	0.1739	0.5403	0.0023	-0.2
Mof_H 	H 	0.1583	0.6165	0.9772	0.11
Mof_C 	C 	0.14447	0.4891	0.02957	0.091
Mof_H 	H 	0.1089	0.5302	0.0223	0.022
Mof_C 	C 	0.16746	0.376	0.068	-0.148
Mof_C 	C 	0.22107	0.3193	0.07852	0.098
Mof_H 	H 	0.2376	0.2459	0.1047	0.008
Mof_C 	C 	0.25022	0.3693	0.05097	-0.201
Mof_H 	H 	0.286	0.3291	0.0586	0.106
Mof_C 	C 	0.13261	0.6675	0.75244	0.38
Mof_C 	C 	0.50518	0.5559	0.09277	0.351
Mof_C 	C 	0.13346	0.316	0.09564	0.354
Mof_C 	C 	0.17943	0.1147	0.73944	0.101
Mof_H 	H 	0.1852	0.0478	0.767	-0.005
Mof_C 	C 	0.20127	0.2535	0.75428	-0.166
Mof_H 	H 	0.222	0.2787	0.7913	0.098
Mof_C 	C 	0.19252	0.3538	0.7146	0.104
Mof_H 	H 	0.2059	0.4491	0.7239	-0
Mof_C 	C 	0.16394	0.3118	0.66112	-0.16
Mof_H 	H 	0.1583	0.3774	0.6332	0.099
Mof_C 	C 	0.14335	0.1715	0.64844	0.099
Mof_H 	H 	0.1238	0.1442	0.6116	-0.001
Mof_O 	O 	0.09562	0.5843	0.72118	-0.289
Mof_O 	O 	0.14827	0.7853	0.73944	-0.46
Mof_O 	O 	0.53176	0.4951	0.07113	-0.311
Mof_O 	O 	0.5293	0.622	0.13824	-0.439
Mof_O 	O 	0.15705	0.2113	0.12848	-0.46
Mof_O 	O 	0.08533	0.3671	0.08398	-0.294
Mof_Zn	Zn	0.61317	0.36397	0.66457	1.227
Mof_N 	N 	0.75625	0.0289	0.98284	-0.191
Mof_N 	N 	0.65023	0.5723	0.68693	-0.253
Mof_C 	C 	0.66437	0.1307	0.81366	-0.157
Mof_C 	C 	0.6467	0.016	0.83493	0.107
Mof_H 	H 	0.6147	0.9604	0.8116	0.013
Mof_C 	C 	0.67629	0.9827	0.89087	-0.207
Mof_H 	H 	0.6633	0.9068	0.9048	0.109
Mof_C 	C 	0.72498	0.0621	0.92591	0.179
Mof_C 	C 	0.74286	0.1766	0.90395	-0.212
Mof_H 	H 	0.7756	0.2307	0.9267	0.111
Mof_C 	C 	0.71254	0.2102	0.84903	0.109
Mof_H 	H 	0.7247	0.2882	0.8353	0.008
Mof_C 	C 	0.81806	0.0365	0.01029	0.16
Mof_C 	C 	0.84809	0.0851	0.06471	-0.189
Mof_H 	H 	0.8277	0.1131	0.0834	0.105
Mof_C 	C 	0.90797	0.0918	0.09087	0.084
Mof_H 	H 	0.9275	0.1247	0.1271	0.024
Mof_C 	C 	0.93937	0.0505	0.06418	-0.125
Mof_C 	C 	0.90953	0.0032	0.00997	0.078
Mof_H 	H 	0.9302	0.9758	0.9914	0.039
Mof_C 	C 	0.84984	0.9961	0.98325	-0.182
Mof_H 	H 	0.8306	0.9642	0.9469	0.106
Mof_C 	C 	0.72662	0.9794	0.01187	0.178
Mof_C 	C 	0.6739	0.0403	0.0023	-0.21
Mof_H 	H 	0.6583	0.1165	0.9772	0.114
Mof_C 	C 	0.64447	0.9891	0.02957	0.1
Mof_H 	H 	0.6089	0.0302	0.0223	0.018
Mof_C 	C 	0.66746	0.876	0.068	-0.152
Mof_C 	C 	0.72107	0.8193	0.07852	0.103
Mof_H 	H 	0.7376	0.7459	0.1047	0.007
Mof_C 	C 	0.75022	0.8693	0.05097	-0.206
Mof_H 	H 	0.786	0.8291	0.0586	0.108
Mof_C 	C 	0.63261	0.1675	0.75244	0.381
Mof_C 	C 	0.00518	0.0559	0.09277	0.349
Mof_C 	C 	0.63346	0.816	0.09564	0.356
Mof_C 	C 	0.67943	0.6147	0.73944	0.1
Mof_H 	H 	0.6852	0.5478	0.767	-0.005
Mof_C 	C 	0.70127	0.7535	0.75428	-0.167
Mof_H 	H 	0.722	0.7787	0.7913	0.097
Mof_C 	C 	0.69252	0.8538	0.7146	0.104
Mof_H 	H 	0.7059	0.9491	0.7239	-0.001
Mof_C 	C 	0.66394	0.8118	0.66112	-0.16
Mof_H 	H 	0.6583	0.8774	0.6332	0.099
Mof_C 	C 	0.64335	0.6715	0.64844	0.099
Mof_H 	H 	0.6238	0.6442	0.6116	-0.001
Mof_O 	O 	0.59562	0.0843	0.72118	-0.289
Mof_O 	O 	0.64827	0.2853	0.73944	-0.46
Mof_O 	O 	0.03176	0.9951	0.07113	-0.309
Mof_O 	O 	0.0293	0.122	0.13824	-0.439
Mof_O 	O 	0.65705	0.7113	0.12848	-0.46
Mof_O 	O 	0.58533	0.8671	0.08398	-0.294
Mof_Zn	Zn	0.88683	0.13603	0.33543	1.227
Mof_N 	N 	0.74375	0.4711	0.01716	-0.191
Mof_N 	N 	0.84977	0.9277	0.31307	-0.253
Mof_C 	C 	0.83563	0.3693	0.18634	-0.154
Mof_C 	C 	0.8533	0.484	0.16507	0.099
Mof_H 	H 	0.8853	0.5396	0.1884	0.017
Mof_C 	C 	0.82371	0.5173	0.10913	-0.2
Mof_H 	H 	0.8367	0.5932	0.0952	0.106
Mof_C 	C 	0.77502	0.4379	0.07409	0.175
Mof_C 	C 	0.75714	0.3234	0.09605	-0.209
Mof_H 	H 	0.7244	0.2693	0.0733	0.109
Mof_C 	C 	0.78746	0.2898	0.15097	0.105
Mof_H 	H 	0.7753	0.2118	0.1647	0.009
Mof_C 	C 	0.68194	0.4635	0.98971	0.164
Mof_C 	C 	0.65191	0.4149	0.93529	-0.192
Mof_H 	H 	0.6723	0.3869	0.9166	0.106
Mof_C 	C 	0.59203	0.4082	0.90913	0.087
Mof_H 	H 	0.5725	0.3753	0.8729	0.023
Mof_C 	C 	0.56063	0.4495	0.93582	-0.127
Mof_C 	C 	0.59047	0.4968	0.99003	0.083
Mof_H 	H 	0.5698	0.5242	0.0086	0.037
Mof_C 	C 	0.65016	0.5039	0.01675	-0.187
Mof_H 	H 	0.6694	0.5358	0.0531	0.108
Mof_C 	C 	0.77338	0.5206	0.98813	0.172
Mof_C 	C 	0.8261	0.4597	0.9977	-0.2
Mof_H 	H 	0.8417	0.3835	0.0228	0.11
Mof_C 	C 	0.85553	0.5109	0.97043	0.091
Mof_H 	H 	0.8911	0.4698	0.9777	0.022
Mof_C 	C 	0.83254	0.624	0.932	-0.148
Mof_C 	C 	0.77893	0.6807	0.92148	0.098
Mof_H 	H 	0.7624	0.7541	0.8953	0.008
Mof_C 	C 	0.74978	0.6307	0.94903	-0.201
Mof_H 	H 	0.714	0.6709	0.9414	0.106
Mof_C 	C 	0.86739	0.3325	0.24756	0.38
Mof_C 	C 	0.49482	0.4441	0.90723	0.351
Mof_C 	C 	0.86654	0.684	0.90436	0.354
Mof_C 	C 	0.82057	0.8853	0.26056	0.101
Mof_H 	H 	0.8148	0.9522	0.233	-0.005
Mof_C 	C 	0.79873	0.7465	0.24572	-0.166
Mof_H 	H 	0.778	0.7213	0.2087	0.098
Mof_C 	C 	0.80748	0.6462	0.2854	0.104
Mof_H 	H 	0.7941	0.5509	0.2761	-0
Mof_C 	C 	0.83606	0.6882	0.33888	-0.16
Mof_H 	H 	0.8417	0.6226	0.3668	0.099
Mof_C 	C 	0.85665	0.8285	0.35156	0.099
Mof_H 	H 	0.8762	0.8558	0.3884	-0.001
Mof_O 	O 	0.90438	0.4157	0.27882	-0.289
Mof_O 	O 	0.85173	0.2147	0.26056	-0.46
Mof_O 	O 	0.46824	0.5049	0.92887	-0.311
Mof_O 	O 	0.4707	0.378	0.86176	-0.439
Mof_O 	O 	0.84295	0.7887	0.87152	-0.46
Mof_O 	O 	0.91467	0.6329	0.91602	-0.294
Mof_Zn	Zn	0.38683	0.63603	0.33543	1.227
Mof_N 	N 	0.24375	0.9711	0.01716	-0.191
Mof_N 	N 	0.34977	0.4277	0.31307	-0.253
Mof_C 	C 	0.33563	0.8693	0.18634	-0.157
Mof_C 	C 	0.3533	0.984	0.16507	0.107
Mof_H 	H 	0.3853	0.0396	0.1884	0.013
Mof_C 	C 	0.32371	0.0173	0.10913	-0.207
Mof_H 	H 	0.3367	0.0932	0.0952	0.109
Mof_C 	C 	0.27502	0.9379	0.07409	0.179
Mof_C 	C 	0.25714	0.8234	0.09605	-0.212
Mof_H 	H 	0.2244	0.7693	0.0733	0.111
Mof_C 	C 	0.28746	0.7898	0.15097	0.109
Mof_H 	H 	0.2753	0.7118	0.1647	0.008
Mof_C 	C 	0.18194	0.9635	0.98971	0.16
Mof_C 	C 	0.15191	0.9149	0.93529	-0.189
Mof_H 	H 	0.1723	0.8869	0.9166	0.105
Mof_C 	C 	0.09203	0.9082	0.90913	0.084
Mof_H 	H 	0.0725	0.8753	0.8729	0.024
Mof_C 	C 	0.06063	0.9495	0.93582	-0.125
Mof_C 	C 	0.09047	0.9968	0.99003	0.078
Mof_H 	H 	0.0698	0.0242	0.0086	0.039
Mof_C 	C 	0.15016	0.0039	0.01675	-0.182
Mof_H 	H 	0.1694	0.0358	0.0531	0.106
Mof_C 	C 	0.27338	0.0206	0.98813	0.178
Mof_C 	C 	0.3261	0.9597	0.9977	-0.21
Mof_H 	H 	0.3417	0.8835	0.0228	0.114
Mof_C 	C 	0.35553	0.0109	0.97043	0.1
Mof_H 	H 	0.3911	0.9698	0.9777	0.018
Mof_C 	C 	0.33254	0.124	0.932	-0.152
Mof_C 	C 	0.27893	0.1807	0.92148	0.103
Mof_H 	H 	0.2624	0.2541	0.8953	0.007
Mof_C 	C 	0.24978	0.1307	0.94903	-0.206
Mof_H 	H 	0.214	0.1709	0.9414	0.108
Mof_C 	C 	0.36739	0.8325	0.24756	0.381
Mof_C 	C 	0.99482	0.9441	0.90723	0.349
Mof_C 	C 	0.36654	0.184	0.90436	0.356
Mof_C 	C 	0.32057	0.3853	0.26056	0.1
Mof_H 	H 	0.3148	0.4522	0.233	-0.005
Mof_C 	C 	0.29873	0.2465	0.24572	-0.167
Mof_H 	H 	0.278	0.2213	0.2087	0.097
Mof_C 	C 	0.30748	0.1462	0.2854	0.104
Mof_H 	H 	0.2941	0.0509	0.2761	-0.001
Mof_C 	C 	0.33606	0.1882	0.33888	-0.16
Mof_H 	H 	0.3417	0.1226	0.3668	0.099
Mof_C 	C 	0.35665	0.3285	0.35156	0.099
Mof_H 	H 	0.3762	0.3558	0.3884	-0.001
Mof_O 	O 	0.40438	0.9157	0.27882	-0.289
Mof_O 	O 	0.35173	0.7147	0.26056	-0.46
Mof_O 	O 	0.96824	0.0049	0.92887	-0.309
Mof_O 	O 	0.9707	0.878	0.86176	-0.439
Mof_O 	O 	0.34295	0.2887	0.87152	-0.46
Mof_O 	O 	0.41467	0.1329	0.91602	-0.294
Mof_Zn	Zn	0.88683	0.86397	0.83543	1.227
Mof_N 	N 	0.74375	0.5289	0.51716	-0.19
Mof_N 	N 	0.84977	0.0723	0.81307	-0.253
Mof_C 	C 	0.83563	0.6307	0.68634	-0.154
Mof_C 	C 	0.8533	0.516	0.66507	0.099
Mof_H 	H 	0.8853	0.4604	0.6884	0.017
Mof_C 	C 	0.82371	0.4827	0.60913	-0.2
Mof_H 	H 	0.8367	0.4068	0.5952	0.107
Mof_C 	C 	0.77502	0.5621	0.57409	0.175
Mof_C 	C 	0.75714	0.6766	0.59605	-0.209
Mof_H 	H 	0.7244	0.7307	0.5733	0.109
Mof_C 	C 	0.78746	0.7102	0.65097	0.105
Mof_H 	H 	0.7753	0.7882	0.6647	0.009
Mof_C 	C 	0.68194	0.5365	0.48971	0.163
Mof_C 	C 	0.65191	0.5851	0.43529	-0.191
Mof_H 	H 	0.6723	0.6131	0.4166	0.106
Mof_C 	C 	0.59203	0.5918	0.40913	0.086
Mof_H 	H 	0.5725	0.6247	0.3729	0.024
Mof_C 	C 	0.56063	0.5505	0.43582	-0.127
Mof_C 	C 	0.59047	0.5032	0.49003	0.082
Mof_H 	H 	0.5698	0.4758	0.5086	0.037
Mof_C 	C 	0.65016	0.4961	0.51675	-0.186
Mof_H 	H 	0.6694	0.4642	0.5531	0.108
Mof_C 	C 	0.77338	0.4794	0.48813	0.173
Mof_C 	C 	0.8261	0.5403	0.4977	-0.201
Mof_H 	H 	0.8417	0.6165	0.5228	0.11
Mof_C 	C 	0.85553	0.4891	0.47043	0.092
Mof_H 	H 	0.8911	0.5302	0.4777	0.021
Mof_C 	C 	0.83254	0.376	0.432	-0.148
Mof_C 	C 	0.77893	0.3193	0.42148	0.099
Mof_H 	H 	0.7624	0.2459	0.3953	0.008
Mof_C 	C 	0.74978	0.3693	0.44903	-0.202
Mof_H 	H 	0.714	0.3291	0.4414	0.106
Mof_C 	C 	0.86739	0.6675	0.74756	0.38
Mof_C 	C 	0.49482	0.5559	0.40723	0.351
Mof_C 	C 	0.86654	0.316	0.40436	0.354
Mof_C 	C 	0.82057	0.1147	0.76056	0.101
Mof_H 	H 	0.8148	0.0478	0.733	-0.005
Mof_C 	C 	0.79873	0.2535	0.74572	-0.166
Mof_H 	H 	0.778	0.2787	0.7087	0.097
Mof_C 	C 	0.80748	0.3538	0.7854	0.104
Mof_H 	H 	0.7941	0.4491	0.7761	-0
Mof_C 	C 	0.83606	0.3118	0.83888	-0.16
Mof_H 	H 	0.8417	0.3774	0.8668	0.099
Mof_C 	C 	0.85665	0.1715	0.85156	0.099
Mof_H 	H 	0.8762	0.1442	0.8884	-0.001
Mof_O 	O 	0.90438	0.5843	0.77882	-0.289
Mof_O 	O 	0.85173	0.7853	0.76056	-0.46
Mof_O 	O 	0.46824	0.4951	0.42887	-0.311
Mof_O 	O 	0.4707	0.622	0.36176	-0.439
Mof_O 	O 	0.84295	0.2113	0.37152	-0.46
Mof_O 	O 	0.91467	0.3671	0.41602	-0.294
Mof_Zn	Zn	0.38683	0.36397	0.83543	1.227
Mof_N 	N 	0.24375	0.0289	0.51716	-0.191
Mof_N 	N 	0.34977	0.5723	0.81307	-0.253
Mof_C 	C 	0.33563	0.1307	0.68634	-0.156
Mof_C 	C 	0.3533	0.016	0.66507	0.105
Mof_H 	H 	0.3853	0.9604	0.6884	0.014
Mof_C 	C 	0.32371	0.9827	0.60913	-0.205
Mof_H 	H 	0.3367	0.9068	0.5952	0.108
Mof_C 	C 	0.27502	0.0621	0.57409	0.178
Mof_C 	C 	0.25714	0.1766	0.59605	-0.211
Mof_H 	H 	0.2244	0.2307	0.5733	0.11
Mof_C 	C 	0.28746	0.2102	0.65097	0.108
Mof_H 	H 	0.2753	0.2882	0.6647	0.008
Mof_C 	C 	0.18194	0.0365	0.48971	0.163
Mof_C 	C 	0.15191	0.0851	0.43529	-0.191
Mof_H 	H 	0.1723	0.1131	0.4166	0.105
Mof_C 	C 	0.09203	0.0918	0.40913	0.086
Mof_H 	H 	0.0725	0.1247	0.3729	0.024
Mof_C 	C 	0.06063	0.0505	0.43582	-0.126
Mof_C 	C 	0.09047	0.0032	0.49003	0.081
Mof_H 	H 	0.0698	0.9758	0.5086	0.037
Mof_C 	C 	0.15016	0.9961	0.51675	-0.185
Mof_H 	H 	0.1694	0.9642	0.5531	0.107
Mof_C 	C 	0.27338	0.9794	0.48813	0.174
Mof_C 	C 	0.3261	0.0403	0.4977	-0.204
Mof_H 	H 	0.3417	0.1165	0.5228	0.111
Mof_C 	C 	0.35553	0.9891	0.47043	0.094
Mof_H 	H 	0.3911	0.0302	0.4777	0.02
Mof_C 	C 	0.33254	0.876	0.432	-0.149
Mof_C 	C 	0.27893	0.8193	0.42148	0.1
Mof_H 	H 	0.2624	0.7459	0.3953	0.008
Mof_C 	C 	0.24978	0.8693	0.44903	-0.203
Mof_H 	H 	0.214	0.8291	0.4414	0.107
Mof_C 	C 	0.36739	0.1675	0.74756	0.381
Mof_C 	C 	0.99482	0.0559	0.40723	0.35
Mof_C 	C 	0.36654	0.816	0.40436	0.355
Mof_C 	C 	0.32057	0.6147	0.76056	0.1
Mof_H 	H 	0.3148	0.5478	0.733	-0.005
Mof_C 	C 	0.29873	0.7535	0.74572	-0.167
Mof_H 	H 	0.278	0.7787	0.7087	0.097
Mof_C 	C 	0.30748	0.8538	0.7854	0.104
Mof_H 	H 	0.2941	0.9491	0.7761	-0.001
Mof_C 	C 	0.33606	0.8118	0.83888	-0.16
Mof_H 	H 	0.3417	0.8774	0.8668	0.099
Mof_C 	C 	0.35665	0.6715	0.85156	0.099
Mof_H 	H 	0.3762	0.6442	0.8884	-0.001
Mof_O 	O 	0.40438	0.0843	0.77882	-0.289
Mof_O 	O 	0.35173	0.2853	0.76056	-0.46
Mof_O 	O 	0.96824	0.9951	0.42887	-0.31
Mof_O 	O 	0.9707	0.122	0.36176	-0.439
Mof_O 	O 	0.34295	0.7113	0.37152	-0.46
Mof_O 	O 	0.41467	0.8671	0.41602	-0.294
_end
