data_functionalizedCrystal
_audit_creation_method	'EQeq! by Chris Wilmer'
_symmetry_space_group_name_H-M	'P1'
_symmetry_Int_Tables_number	1
_symmetry_cell_setting	triclinic
loop_
_symmetry_equiv_pos_as_xyz
  x,y,z
_cell_length_a	25.297
_cell_length_b	4.8861
_cell_length_c	24.268
_cell_angle_alpha	90
_cell_angle_beta	118.285
_cell_angle_gamma	90
loop_
_atom_site_label
_atom_site_type_symbol
_atom_site_fract_x
_atom_site_fract_y
_atom_site_fract_z
_atom_site_charge
Mof_Be	Be	0.18225	0.324	0.74803	0.778
Mof_Be	Be	0.05909	0.3398	0.8407	0.835
Mof_Be	Be	0.26266	0.4831	0.07207	0.778
Mof_P 	P 	0.23952	0.83772	0.81549	0.615
Mof_P 	P 	0.06601	0.51133	0.72543	0.665
Mof_P 	P 	0.1774	0.5227	0.9346	0.626
Mof_O 	O 	0.2175	0.5339	0.81191	-0.326
Mof_O 	O 	0.26617	0.9304	0.88371	-0.351
Mof_O 	O 	0.28771	0.8539	0.79629	-0.383
Mof_O 	O 	0.185	0.0133	0.77367	-0.392
Mof_O 	O 	0.11361	0.4157	0.70884	-0.375
Mof_O 	O 	0.06912	0.8332	0.73025	-0.425
Mof_H 	H 	0.1042	0.8828	0.745	0.307
Mof_O 	O 	0.00388	0.4619	0.67146	-0.371
Mof_O 	O 	0.07575	0.3937	0.78611	-0.397
Mof_O 	O 	0.11163	0.4501	0.90621	-0.371
Mof_O 	O 	0.20735	0.4592	0.00346	-0.382
Mof_O 	O 	0.20933	0.3406	0.90469	-0.32
Mof_O 	O 	0.18362	0.8209	0.9203	-0.383
Mof_O 	O 	0.05656	0.0061	0.85164	-0.436
Mof_H 	H 	0.0539	0.9796	0.8836	0.295
Mof_Be	Be	0.68225	0.824	0.74803	0.783
Mof_Be	Be	0.55909	0.8398	0.8407	0.831
Mof_Be	Be	0.76266	0.9831	0.07207	0.788
Mof_P 	P 	0.73952	0.33772	0.81549	0.615
Mof_P 	P 	0.56601	0.01133	0.72543	0.624
Mof_P 	P 	0.6774	0.0227	0.9346	0.594
Mof_O 	O 	0.7175	0.0339	0.81191	-0.335
Mof_O 	O 	0.76617	0.4304	0.88371	-0.344
Mof_O 	O 	0.78771	0.3539	0.79629	-0.384
Mof_O 	O 	0.685	0.5133	0.77367	-0.395
Mof_O 	O 	0.61361	0.9157	0.70884	-0.361
Mof_O 	O 	0.56912	0.3332	0.73025	-0.419
Mof_H 	H 	0.6042	0.3828	0.745	0.305
Mof_O 	O 	0.50388	0.9619	0.67146	-0.352
Mof_O 	O 	0.57575	0.8937	0.78611	-0.378
Mof_O 	O 	0.61163	0.9501	0.90621	-0.356
Mof_O 	O 	0.70735	0.9592	0.00346	-0.373
Mof_O 	O 	0.70933	0.8406	0.90469	-0.306
Mof_O 	O 	0.68362	0.3209	0.9203	-0.374
Mof_O 	O 	0.55656	0.5061	0.85164	-0.453
Mof_H 	H 	0.5539	0.4796	0.8836	0.305
Mof_Be	Be	0.81775	0.324	0.75197	0.777
Mof_Be	Be	0.94091	0.3398	0.6593	0.835
Mof_Be	Be	0.73734	0.4831	0.42793	0.777
Mof_P 	P 	0.76048	0.83772	0.68451	0.614
Mof_P 	P 	0.93399	0.51133	0.77457	0.665
Mof_P 	P 	0.8226	0.5227	0.5654	0.626
Mof_O 	O 	0.7825	0.5339	0.68809	-0.326
Mof_O 	O 	0.73383	0.9304	0.61629	-0.351
Mof_O 	O 	0.71229	0.8539	0.70371	-0.383
Mof_O 	O 	0.815	0.0133	0.72633	-0.392
Mof_O 	O 	0.88639	0.4157	0.79116	-0.375
Mof_O 	O 	0.93088	0.8332	0.76975	-0.425
Mof_H 	H 	0.8958	0.8828	0.755	0.306
Mof_O 	O 	0.99612	0.4619	0.82854	-0.37
Mof_O 	O 	0.92425	0.3937	0.71389	-0.397
Mof_O 	O 	0.88837	0.4501	0.59379	-0.371
Mof_O 	O 	0.79265	0.4592	0.49654	-0.383
Mof_O 	O 	0.79067	0.3406	0.59531	-0.32
Mof_O 	O 	0.81638	0.8209	0.5797	-0.383
Mof_O 	O 	0.94344	0.0061	0.64836	-0.435
Mof_H 	H 	0.9461	0.9796	0.6164	0.295
Mof_Be	Be	0.31775	0.824	0.75197	0.783
Mof_Be	Be	0.44091	0.8398	0.6593	0.831
Mof_Be	Be	0.23734	0.9831	0.42793	0.789
Mof_P 	P 	0.26048	0.33772	0.68451	0.615
Mof_P 	P 	0.43399	0.01133	0.77457	0.624
Mof_P 	P 	0.3226	0.0227	0.5654	0.594
Mof_O 	O 	0.2825	0.0339	0.68809	-0.335
Mof_O 	O 	0.23383	0.4304	0.61629	-0.344
Mof_O 	O 	0.21229	0.3539	0.70371	-0.384
Mof_O 	O 	0.315	0.5133	0.72633	-0.395
Mof_O 	O 	0.38639	0.9157	0.79116	-0.361
Mof_O 	O 	0.43088	0.3332	0.76975	-0.419
Mof_H 	H 	0.3958	0.3828	0.755	0.305
Mof_O 	O 	0.49612	0.9619	0.82854	-0.352
Mof_O 	O 	0.42425	0.8937	0.71389	-0.378
Mof_O 	O 	0.38837	0.9501	0.59379	-0.357
Mof_O 	O 	0.29265	0.9592	0.49654	-0.372
Mof_O 	O 	0.29067	0.8406	0.59531	-0.306
Mof_O 	O 	0.31638	0.3209	0.5797	-0.374
Mof_O 	O 	0.44344	0.5061	0.64836	-0.453
Mof_H 	H 	0.4461	0.4796	0.6164	0.305
Mof_Be	Be	0.81775	0.676	0.25197	0.777
Mof_Be	Be	0.94091	0.6602	0.1593	0.834
Mof_Be	Be	0.73734	0.5169	0.92793	0.777
Mof_P 	P 	0.76048	0.16228	0.18451	0.614
Mof_P 	P 	0.93399	0.48867	0.27457	0.665
Mof_P 	P 	0.8226	0.4773	0.0654	0.626
Mof_O 	O 	0.7825	0.4661	0.18809	-0.326
Mof_O 	O 	0.73383	0.0696	0.11629	-0.351
Mof_O 	O 	0.71229	0.1461	0.20371	-0.383
Mof_O 	O 	0.815	0.9867	0.22633	-0.392
Mof_O 	O 	0.88639	0.5843	0.29116	-0.375
Mof_O 	O 	0.93088	0.1668	0.26975	-0.425
Mof_H 	H 	0.8958	0.1172	0.255	0.307
Mof_O 	O 	0.99612	0.5381	0.32854	-0.371
Mof_O 	O 	0.92425	0.6063	0.21389	-0.397
Mof_O 	O 	0.88837	0.5499	0.09379	-0.371
Mof_O 	O 	0.79265	0.5408	0.99654	-0.382
Mof_O 	O 	0.79067	0.6594	0.09531	-0.32
Mof_O 	O 	0.81638	0.1791	0.0797	-0.383
Mof_O 	O 	0.94344	0.9939	0.14836	-0.436
Mof_H 	H 	0.9461	0.0204	0.1164	0.295
Mof_Be	Be	0.31775	0.176	0.25197	0.783
Mof_Be	Be	0.44091	0.1602	0.1593	0.831
Mof_Be	Be	0.23734	0.0169	0.92793	0.788
Mof_P 	P 	0.26048	0.66228	0.18451	0.615
Mof_P 	P 	0.43399	0.98867	0.27457	0.624
Mof_P 	P 	0.3226	0.9773	0.0654	0.594
Mof_O 	O 	0.2825	0.9661	0.18809	-0.335
Mof_O 	O 	0.23383	0.5696	0.11629	-0.344
Mof_O 	O 	0.21229	0.6461	0.20371	-0.384
Mof_O 	O 	0.315	0.4867	0.22633	-0.395
Mof_O 	O 	0.38639	0.0843	0.29116	-0.361
Mof_O 	O 	0.43088	0.6668	0.26975	-0.419
Mof_H 	H 	0.3958	0.6172	0.255	0.305
Mof_O 	O 	0.49612	0.0381	0.32854	-0.352
Mof_O 	O 	0.42425	0.1063	0.21389	-0.378
Mof_O 	O 	0.38837	0.0499	0.09379	-0.356
Mof_O 	O 	0.29265	0.0408	0.99654	-0.373
Mof_O 	O 	0.29067	0.1594	0.09531	-0.306
Mof_O 	O 	0.31638	0.6791	0.0797	-0.374
Mof_O 	O 	0.44344	0.4939	0.14836	-0.453
Mof_H 	H 	0.4461	0.5204	0.1164	0.305
Mof_Be	Be	0.18225	0.676	0.24803	0.777
Mof_Be	Be	0.05909	0.6602	0.3407	0.835
Mof_Be	Be	0.26266	0.5169	0.57207	0.777
Mof_P 	P 	0.23952	0.16228	0.31549	0.614
Mof_P 	P 	0.06601	0.48867	0.22543	0.665
Mof_P 	P 	0.1774	0.4773	0.4346	0.626
Mof_O 	O 	0.2175	0.4661	0.31191	-0.326
Mof_O 	O 	0.26617	0.0696	0.38371	-0.351
Mof_O 	O 	0.28771	0.1461	0.29629	-0.383
Mof_O 	O 	0.185	0.9867	0.27367	-0.392
Mof_O 	O 	0.11361	0.5843	0.20884	-0.375
Mof_O 	O 	0.06912	0.1668	0.23025	-0.425
Mof_H 	H 	0.1042	0.1172	0.245	0.306
Mof_O 	O 	0.00388	0.5381	0.17146	-0.37
Mof_O 	O 	0.07575	0.6063	0.28611	-0.397
Mof_O 	O 	0.11163	0.5499	0.40621	-0.371
Mof_O 	O 	0.20735	0.5408	0.50346	-0.383
Mof_O 	O 	0.20933	0.6594	0.40469	-0.32
Mof_O 	O 	0.18362	0.1791	0.4203	-0.383
Mof_O 	O 	0.05656	0.9939	0.35164	-0.435
Mof_H 	H 	0.0539	0.0204	0.3836	0.295
Mof_Be	Be	0.68225	0.176	0.24803	0.783
Mof_Be	Be	0.55909	0.1602	0.3407	0.831
Mof_Be	Be	0.76266	0.0169	0.57207	0.789
Mof_P 	P 	0.73952	0.66228	0.31549	0.615
Mof_P 	P 	0.56601	0.98867	0.22543	0.624
Mof_P 	P 	0.6774	0.9773	0.4346	0.594
Mof_O 	O 	0.7175	0.9661	0.31191	-0.335
Mof_O 	O 	0.76617	0.5696	0.38371	-0.344
Mof_O 	O 	0.78771	0.6461	0.29629	-0.384
Mof_O 	O 	0.685	0.4867	0.27367	-0.395
Mof_O 	O 	0.61361	0.0843	0.20884	-0.361
Mof_O 	O 	0.56912	0.6668	0.23025	-0.419
Mof_H 	H 	0.6042	0.6172	0.245	0.305
Mof_O 	O 	0.50388	0.0381	0.17146	-0.352
Mof_O 	O 	0.57575	0.1063	0.28611	-0.378
Mof_O 	O 	0.61163	0.0499	0.40621	-0.357
Mof_O 	O 	0.70735	0.0408	0.50346	-0.372
Mof_O 	O 	0.70933	0.1594	0.40469	-0.306
Mof_O 	O 	0.68362	0.6791	0.4203	-0.374
Mof_O 	O 	0.55656	0.4939	0.35164	-0.453
Mof_H 	H 	0.5539	0.5204	0.3836	0.305
_end
