data_functionalizedCrystal
_audit_creation_method	'EQeq! by Chris Wilmer'
_symmetry_space_group_name_H-M	'P1'
_symmetry_Int_Tables_number	1
_symmetry_cell_setting	triclinic
loop_
_symmetry_equiv_pos_as_xyz
  x,y,z
_cell_length_a	34.0011
_cell_length_b	34.0011
_cell_length_c	54.9595
_cell_angle_alpha	71.9812
_cell_angle_beta	71.9812
_cell_angle_gamma	60
loop_
_atom_site_label
_atom_site_type_symbol
_atom_site_fract_x
_atom_site_fract_y
_atom_site_fract_z
_atom_site_charge
Mof_Zn	Zn	0.78871	0.89602	0.4718	1.229
Mof_Zn	Zn	0.38348	0.38348	0.84956	1.177
Mof_Zn	Zn	0.60398	0.71129	0.0282	1.229
Mof_Zn	Zn	0.01798	0.16393	0.50615	1.243
Mof_Zn	Zn	0.57582	0.07751	0.7168	1.218
Mof_Zn	Zn	0.88348	0.88348	0.34956	1.177
Mof_Zn	Zn	0.68806	0.98202	0.49385	1.243
Mof_Zn	Zn	0.92418	0.87013	0.7832	1.218
Mof_Zn	Zn	0.28871	0.34347	0.9718	1.229
Mof_Zn	Zn	0.21129	0.10398	0.5282	1.229
Mof_Zn	Zn	0.42418	0.92249	0.2832	1.218
Mof_Zn	Zn	0.81194	0.66393	0.00615	1.243
Mof_Zn	Zn	0.14033	0.14033	0.57901	1.238
Mof_Zn	Zn	0.42249	0.92418	0.7832	1.218
Mof_Zn	Zn	0.61652	0.61652	0.15044	1.177
Mof_Zn	Zn	0.71129	0.65653	0.0282	1.229
Mof_Zn	Zn	0.39602	0.28871	0.9718	1.229
Mof_Zn	Zn	0.62987	0.57582	0.7168	1.218
Mof_Zn	Zn	0.89602	0.84347	0.4718	1.229
Mof_Zn	Zn	0.87013	0.42249	0.7832	1.218
Mof_Zn	Zn	0.48202	0.18806	0.99385	1.242
Mof_Zn	Zn	0.85967	0.85967	0.42099	1.237
Mof_Zn	Zn	0.37013	0.42418	0.2832	1.217
Mof_Zn	Zn	0.66393	0.51798	0.00615	1.242
Mof_Zn	Zn	0.12987	0.57751	0.2168	1.217
Mof_Zn	Zn	0.65653	0.60398	0.0282	1.228
Mof_Zn	Zn	0.07751	0.62987	0.7168	1.217
Mof_Zn	Zn	0.34347	0.39602	0.9718	1.228
Mof_Zn	Zn	0.64033	0.64033	0.07901	1.237
Mof_Zn	Zn	0.31194	0.01798	0.50615	1.242
Mof_Zn	Zn	0.51798	0.81194	0.00615	1.242
Mof_Zn	Zn	0.18806	0.33607	0.99385	1.242
Mof_Zn	Zn	0.11652	0.11652	0.65044	1.176
Mof_Zn	Zn	0.10398	0.15653	0.5282	1.228
Mof_Zn	Zn	0.84347	0.78871	0.4718	1.228
Mof_Zn	Zn	0.33607	0.48202	0.99385	1.242
Mof_Zn	Zn	0.35967	0.35967	0.92099	1.237
Mof_Zn	Zn	0.16393	0.31194	0.50615	1.242
Mof_Zn	Zn	0.15653	0.21129	0.5282	1.228
Mof_Zn	Zn	0.98202	0.83607	0.49385	1.242
Mof_Zn	Zn	0.57751	0.07582	0.2168	1.217
Mof_Zn	Zn	0.07582	0.12987	0.2168	1.217
Mof_Zn	Zn	0.92249	0.37013	0.2832	1.217
Mof_Zn	Zn	0.83607	0.68806	0.49385	1.242
Mof_P 	P 	0.2898	0.2396	0.1419	0.352
Mof_P 	P 	0.85556	0.34846	0.62402	0.383
Mof_P 	P 	0.2102	0.1713	0.3581	0.352
Mof_P 	P 	0.84791	0.13761	0.42227	0.393
Mof_P 	P 	0.15154	0.64444	0.87598	0.383
Mof_P 	P 	0.15209	0.86239	0.57773	0.393
Mof_P 	P 	0.60291	0.41571	0.88297	0.397
Mof_P 	P 	0.90159	0.39709	0.11703	0.397
Mof_P 	P 	0.40779	0.15209	0.57773	0.393
Mof_P 	P 	0.10291	0.59841	0.38297	0.397
Mof_P 	P 	0.7102	0.7604	0.8581	0.352
Mof_P 	P 	0.7898	0.8287	0.6419	0.352
Mof_P 	P 	0.1713	0.2604	0.3581	0.352
Mof_P 	P 	0.09221	0.63761	0.92227	0.393
Mof_P 	P 	0.3287	0.2898	0.1419	0.352
Mof_P 	P 	0.2396	0.3287	0.1419	0.352
Mof_P 	P 	0.90779	0.36239	0.07773	0.393
Mof_P 	P 	0.8287	0.7396	0.6419	0.352
Mof_P 	P 	0.32804	0.15154	0.87598	0.383
Mof_P 	P 	0.36239	0.65209	0.07773	0.393
Mof_P 	P 	0.6713	0.7102	0.8581	0.352
Mof_P 	P 	0.89709	0.40159	0.61703	0.397
Mof_P 	P 	0.7396	0.7898	0.6419	0.352
Mof_P 	P 	0.7604	0.6713	0.8581	0.352
Mof_P 	P 	0.35556	0.67196	0.12402	0.383
Mof_P 	P 	0.41571	0.09841	0.88297	0.397
Mof_P 	P 	0.64444	0.32804	0.87598	0.383
Mof_P 	P 	0.13761	0.59221	0.42227	0.393
Mof_P 	P 	0.82804	0.14444	0.37598	0.383
Mof_P 	P 	0.17196	0.85556	0.62402	0.383
Mof_P 	P 	0.34791	0.09221	0.92227	0.393
Mof_P 	P 	0.67196	0.84846	0.12402	0.383
Mof_P 	P 	0.84846	0.35556	0.12402	0.383
Mof_P 	P 	0.59221	0.84791	0.42227	0.393
Mof_P 	P 	0.2604	0.2102	0.3581	0.352
Mof_P 	P 	0.86239	0.40779	0.57773	0.393
Mof_P 	P 	0.59841	0.91571	0.38297	0.397
Mof_P 	P 	0.09841	0.60291	0.88297	0.397
Mof_P 	P 	0.08429	0.89709	0.61703	0.397
Mof_P 	P 	0.65209	0.90779	0.07773	0.393
Mof_P 	P 	0.39709	0.58429	0.11703	0.397
Mof_P 	P 	0.34846	0.17196	0.62402	0.383
Mof_P 	P 	0.63761	0.34791	0.92227	0.393
Mof_P 	P 	0.91571	0.10291	0.38297	0.397
Mof_P 	P 	0.65154	0.82804	0.37598	0.383
Mof_P 	P 	0.58429	0.90159	0.11703	0.397
Mof_P 	P 	0.14444	0.65154	0.37598	0.383
Mof_P 	P 	0.40159	0.08429	0.61703	0.397
Mof_H 	H 	0.0832	0.3697	0.3305	0.154
Mof_H 	H 	0.1706	0.5098	0.4766	0.145
Mof_H 	H 	0.6266	0.942	0.2031	0.009
Mof_H 	H 	0.157	0.8294	0.5234	0.145
Mof_H 	H 	0.6949	0.4108	0.904	0.14
Mof_H 	H 	0.3609	0.7776	0.0957	0.16
Mof_H 	H 	0.7385	0.8438	0.3776	0.151
Mof_H 	H 	0.2653	0.6824	0.1149	0.15
Mof_H 	H 	0.4329	0.1444	0.9211	0.157
Mof_H 	H 	0.2183	0.1143	0.1866	0.002
Mof_H 	H 	0.7776	0.7658	0.0957	0.16
Mof_H 	H 	0.2684	0.1491	0.4157	0.152
Mof_H 	H 	0.2829	0.4835	0.9079	-0.02
Mof_H 	H 	0.4168	0.2834	0.1695	0.154
Mof_H 	H 	0.0622	0.272	0.395	0.16
Mof_H 	H 	0.7834	0.9168	0.6695	0.154
Mof_H 	H 	0.8294	0.4902	0.5234	0.145
Mof_H 	H 	0.3556	0.0671	0.5789	0.157
Mof_H 	H 	0.5154	0.6706	0.0405	-0.039
Mof_H 	H 	0.0805	0.3079	0.0801	0.012
Mof_H 	H 	0.7817	0.8857	0.8134	0.002
Mof_H 	H 	0.7602	0.5914	0.7927	-0.001
Mof_H 	H 	0.2708	0.0622	0.395	0.16
Mof_H 	H 	0.9447	0.9554	0.347	-0.053
Mof_H 	H 	0.8257	0.9835	0.4079	-0.02
Mof_H 	H 	0.4349	0.6977	0.0537	0.176
Mof_H 	H 	0.4169	0.9766	0.18	-0.003
Mof_H 	H 	0.1921	0.4195	0.4199	0.012
Mof_H 	H 	0.7823	0.5579	0.075	-0.024
Mof_H 	H 	0.8857	0.5192	0.8134	0.002
Mof_H 	H 	0.0401	0.7385	0.3776	0.151
Mof_H 	H 	0.0577	0.5673	0.4739	0.178
Mof_H 	H 	0.533	0.0185	0.8602	0.159
Mof_H 	H 	0.0185	0.5883	0.8602	0.159
Mof_H 	H 	0.1003	0.8281	0.5063	0.022
Mof_H 	H 	0.836	0.856	0.5417	-0.009
Mof_H 	H 	0.9782	0.606	0.4877	-0.041
Mof_H 	H 	0.4902	0.157	0.5234	0.145
Mof_H 	H 	0.1949	0.4903	0.404	0.14
Mof_H 	H 	0.7166	0.8697	0.8305	0.154
Mof_H 	H 	0.0651	0.6863	0.4463	0.176
Mof_H 	H 	0.6743	0.7171	0.0921	-0.02
Mof_H 	H 	0.5204	0.4545	0.8428	0.152
Mof_H 	H 	0.4737	0.0986	0.7846	-0.009
Mof_H 	H 	0.7342	0.7224	0.4043	0.16
Mof_H 	H 	0.9835	0.7829	0.4079	-0.02
Mof_H 	H 	0.3734	0.058	0.7969	0.009
Mof_H 	H 	0.0626	0.7347	0.8851	0.15
Mof_H 	H 	0.7658	0.3609	0.0957	0.16
Mof_H 	H 	0.2834	0.1303	0.1695	0.154
Mof_H 	H 	0.4447	0.2529	0.847	-0.053
Mof_H 	H 	0.4378	0.2292	0.105	0.16
Mof_H 	H 	0.0914	0.2602	0.2927	-0.001
Mof_H 	H 	0.144	0.2337	0.4583	-0.009
Mof_H 	H 	0.6491	0.7684	0.9157	0.152
Mof_H 	H 	0.2982	0.9171	0.5669	-0.022
Mof_H 	H 	0.7822	0.7018	0.4331	-0.022
Mof_H 	H 	0.3281	0.6003	0.0063	0.022
Mof_H 	H 	0.8609	0.2658	0.5957	0.16
Mof_H 	H 	0.2342	0.6391	0.9043	0.16
Mof_H 	H 	0.9171	0.2178	0.5669	-0.022
Mof_H 	H 	0.8176	0.2347	0.3851	0.15
Mof_H 	H 	0.208	0.2528	0.1914	0.168
Mof_H 	H 	0.0848	0.0579	0.575	-0.024
Mof_H 	H 	0.8023	0.0651	0.4463	0.176
Mof_H 	H 	0.644	0.664	0.9583	-0.009
Mof_H 	H 	0.4108	0.9903	0.904	0.14
Mof_H 	H 	0.4903	0.9108	0.404	0.14
Mof_H 	H 	0.9599	0.2615	0.6224	0.151
Mof_H 	H 	0.0192	0.3857	0.3134	0.002
Mof_H 	H 	0.6645	0.8724	0.1878	0.147
Mof_H 	H 	0.9378	0.728	0.605	0.16
Mof_H 	H 	0.5263	0.9014	0.2154	-0.009
Mof_H 	H 	0.1491	0.1668	0.4157	0.152
Mof_H 	H 	0.3997	0.9347	0.9937	0.022
Mof_H 	H 	0.8724	0.2753	0.1878	0.147
Mof_H 	H 	0.2337	0.164	0.4583	-0.009
Mof_H 	H 	0.8281	0.5653	0.5063	0.022
Mof_H 	H 	0.292	0.1522	0.3086	0.168
Mof_H 	H 	0.3509	0.2316	0.0843	0.152
Mof_H 	H 	0.5626	0.8176	0.3851	0.15
Mof_H 	H 	0.343	0.0098	0.9766	0.145
Mof_H 	H 	0.2385	0.5401	0.8776	0.151
Mof_H 	H 	0.8294	0.9846	0.4595	-0.038
Mof_H 	H 	0.9903	0.6949	0.904	0.141
Mof_H 	H 	0.4117	0.467	0.1398	0.159
Mof_H 	H 	0.2776	0.8609	0.5957	0.16
Mof_H 	H 	0.2615	0.1562	0.6224	0.151
Mof_H 	H 	0.9168	0.6303	0.6695	0.154
Mof_H 	H 	0.5622	0.7708	0.895	0.16
Mof_H 	H 	0.8509	0.8332	0.5843	0.152
Mof_H 	H 	0.6443	0.9086	0.7073	-0.001
Mof_H 	H 	0.0455	0.9796	0.6572	0.152
Mof_H 	H 	0.6431	0.4737	0.7846	-0.009
Mof_H 	H 	0.8079	0.5805	0.5801	0.012
Mof_H 	H 	0.843	0.1706	0.4766	0.145
Mof_H 	H 	0.6391	0.2224	0.9043	0.16
Mof_H 	H 	0.4545	0.1823	0.8428	0.152
Mof_H 	H 	0.2178	0.2982	0.5669	-0.022
Mof_H 	H 	0.9195	0.6921	0.9199	0.012
Mof_H 	H 	0.9046	0.3449	0.1749	0.157
Mof_H 	H 	0.1551	0.5954	0.3251	0.157
Mof_H 	H 	0.9011	0.0577	0.4739	0.178
Mof_H 	H 	0.0671	0.9984	0.5789	0.158
Mof_H 	H 	0.657	0.9902	0.0234	0.145
Mof_H 	H 	0.3079	0.5315	0.0801	0.012
Mof_H 	H 	0.2602	0.3557	0.2927	-0.001
Mof_H 	H 	0.7472	0.6522	0.8086	0.168
Mof_H 	H 	0.7663	0.836	0.5417	-0.009
Mof_H 	H 	0.2283	0.6266	0.2031	0.009
Mof_H 	H 	0.7684	0.6668	0.9157	0.152
Mof_H 	H 	0.0829	0.7822	0.4331	-0.022
Mof_H 	H 	0.4152	0.2177	0.925	-0.024
Mof_H 	H 	0.9815	0.4117	0.1398	0.159
Mof_H 	H 	0.5455	0.8177	0.1572	0.152
Mof_H 	H 	0.7177	0.9152	0.425	-0.024
Mof_H 	H 	0.4327	0.0989	0.5261	0.179
Mof_H 	H 	0.3557	0.0914	0.2927	-0.001
Mof_H 	H 	0.7653	0.4374	0.6149	0.15
Mof_H 	H 	0.9347	0.6719	0.9937	0.022
Mof_H 	H 	0.6525	0.0069	0.1296	0.009
Mof_H 	H 	0.7247	0.3355	0.8122	0.147
Mof_H 	H 	0.0553	0.0446	0.653	-0.053
Mof_H 	H 	0.0579	0.2823	0.575	-0.024
Mof_H 	H 	0.2398	0.4086	0.2073	-0.001
Mof_H 	H 	0.9086	0.7398	0.7073	-0.001
Mof_H 	H 	0.4984	0.5671	0.0789	0.157
Mof_H 	H 	0.2471	0.0553	0.653	-0.053
Mof_H 	H 	0.8449	0.4046	0.6749	0.157
Mof_H 	H 	0.5805	0.0315	0.5801	0.012
Mof_H 	H 	0.6444	0.9329	0.4211	0.157
Mof_H 	H 	0.2446	0.2827	0.4385	0.001
Mof_H 	H 	0.8569	0.4014	0.7154	-0.009
Mof_H 	H 	0.6977	0.8137	0.0537	0.176
Mof_H 	H 	0.9766	0.4265	0.18	-0.003
Mof_H 	H 	0.2472	0.292	0.3086	0.168
Mof_H 	H 	0.3697	0.2166	0.3305	0.154
Mof_H 	H 	0.5577	0.4011	0.9739	0.179
Mof_H 	H 	0.7347	0.3176	0.8851	0.15
Mof_H 	H 	0.9796	0.3177	0.6572	0.152
Mof_H 	H 	0.8438	0.0401	0.3776	0.152
Mof_H 	H 	0.4685	0.9195	0.9199	0.013
Mof_H 	H 	0.2753	0.6645	0.1878	0.147
Mof_H 	H 	0.1977	0.9349	0.5537	0.176
Mof_H 	H 	0.5446	0.5553	0.153	-0.053
Mof_H 	H 	0.5756	0.9046	0.1749	0.157
Mof_H 	H 	0.2247	0.6276	0.3122	0.147
Mof_H 	H 	0.728	0.7292	0.605	0.16
Mof_H 	H 	0.7178	0.4171	0.0669	-0.022
Mof_H 	H 	0.5735	0.5831	0.82	-0.003
Mof_H 	H 	0.789	0.3475	0.8704	0.009
Mof_H 	H 	0.2224	0.2342	0.9043	0.16
Mof_H 	H 	0.9152	0.9421	0.425	-0.024
Mof_H 	H 	0.9374	0.2653	0.1149	0.15
Mof_H 	H 	0.3569	0.5263	0.2154	-0.009
Mof_H 	H 	0.0016	0.6444	0.4211	0.157
Mof_H 	H 	0.4931	0.8475	0.3704	0.009
Mof_H 	H 	0.7708	0.772	0.895	0.16
Mof_H 	H 	0.7183	0.9808	0.6866	0.002
Mof_H 	H 	0.4195	0.9685	0.4199	0.012
Mof_H 	H 	0.5069	0.1525	0.6296	0.009
Mof_H 	H 	0.356	0.336	0.0417	-0.009
Mof_H 	H 	0.1276	0.7247	0.8122	0.147
Mof_H 	H 	0.0315	0.8079	0.5801	0.012
Mof_H 	H 	0.4014	0.0263	0.7154	-0.009
Mof_H 	H 	0.5914	0.8557	0.7927	-0.001
Mof_H 	H 	0.7283	0.442	0.7031	0.009
Mof_H 	H 	0.5883	0.533	0.8602	0.159
Mof_H 	H 	0.1522	0.2472	0.3086	0.168
Mof_H 	H 	0.5719	0.894	0.0123	-0.041
Mof_H 	H 	0.0756	0.8449	0.6749	0.157
Mof_H 	H 	0.2823	0.0848	0.575	-0.024
Mof_H 	H 	0.8997	0.1719	0.4937	0.022
Mof_H 	H 	0.0892	0.8051	0.596	0.14
Mof_H 	H 	0.3023	0.1863	0.9463	0.176
Mof_H 	H 	0.3857	0.2817	0.3134	0.002
Mof_H 	H 	0.1444	0.5016	0.9211	0.157
Mof_H 	H 	0.6303	0.7834	0.6695	0.154
Mof_H 	H 	0.0831	0.0735	0.32	-0.003
Mof_H 	H 	0.5098	0.843	0.4766	0.145
Mof_H 	H 	0.0154	0.2735	0.5405	-0.039
Mof_H 	H 	0.4011	0.0673	0.9739	0.179
Mof_H 	H 	0.5579	0.5848	0.075	-0.024
Mof_H 	H 	0.772	0.5622	0.895	0.16
Mof_H 	H 	0.7529	0.9447	0.347	-0.053
Mof_H 	H 	0.9808	0.6143	0.6866	0.002
Mof_H 	H 	0.3177	0.0455	0.6572	0.152
Mof_H 	H 	0.0446	0.2471	0.653	-0.053
Mof_H 	H 	0.9117	0.4815	0.6398	0.159
Mof_H 	H 	0.7615	0.4599	0.1224	0.151
Mof_H 	H 	0.1391	0.7342	0.4043	0.16
Mof_H 	H 	0.394	0.0719	0.5123	-0.041
Mof_H 	H 	0.6863	0.8023	0.4463	0.176
Mof_H 	H 	0.2177	0.4421	0.925	-0.024
Mof_H 	H 	0.4846	0.3294	0.9595	-0.039
Mof_H 	H 	0.5234	0.0831	0.32	-0.003
Mof_H 	H 	0.6551	0.4244	0.8251	0.157
Mof_H 	H 	0.664	0.7337	0.9583	-0.009
Mof_H 	H 	0.0673	0.5577	0.9739	0.179
Mof_H 	H 	0.7735	0.5154	0.0405	-0.039
Mof_H 	H 	0.9984	0.3556	0.5789	0.157
Mof_H 	H 	0.1525	0.711	0.6296	0.009
Mof_H 	H 	0.6522	0.792	0.8086	0.168
Mof_H 	H 	0.6143	0.7183	0.6866	0.002
Mof_H 	H 	0.1143	0.4808	0.1866	0.002
Mof_H 	H 	0.5218	0.5719	0.0123	-0.041
Mof_H 	H 	0.5016	0.4329	0.9211	0.157
Mof_H 	H 	0.467	0.9815	0.1398	0.159
Mof_H 	H 	0.2018	0.2822	0.9331	-0.022
Mof_H 	H 	0.4046	0.0756	0.6749	0.157
Mof_H 	H 	0.272	0.2708	0.395	0.16
Mof_H 	H 	0.5185	0.033	0.3602	0.159
Mof_H 	H 	0.792	0.7472	0.8086	0.168
Mof_H 	H 	0.9931	0.789	0.8704	0.009
Mof_H 	H 	0.1719	0.4347	0.4937	0.022
Mof_H 	H 	0.1562	0.9599	0.6224	0.152
Mof_H 	H 	0.7398	0.6443	0.7073	-0.001
Mof_H 	H 	0.5651	0.3023	0.9463	0.176
Mof_H 	H 	0.7528	0.708	0.6914	0.168
Mof_H 	H 	0.6921	0.4685	0.9199	0.012
Mof_H 	H 	0.9737	0.1431	0.2846	-0.009
Mof_H 	H 	0.7717	0.3734	0.7969	0.009
Mof_H 	H 	0.6706	0.343	0.9766	0.145
Mof_H 	H 	0.8734	0.2717	0.2969	0.009
Mof_H 	H 	0.7446	0.5342	0.9385	0.001
Mof_H 	H 	0.0069	0.211	0.1296	0.009
Mof_H 	H 	0.1266	0.7283	0.7031	0.009
Mof_H 	H 	0.2822	0.5829	0.9331	-0.022
Mof_H 	H 	0.0342	0.2446	0.4385	0
Mof_H 	H 	0.4782	0.4281	0.9877	-0.041
Mof_H 	H 	0.9265	0.4766	0.68	-0.003
Mof_H 	H 	0.5673	0.9011	0.4739	0.179
Mof_H 	H 	0.1431	0.5986	0.2846	-0.009
Mof_H 	H 	0.0883	0.5185	0.3602	0.159
Mof_H 	H 	0.3449	0.5756	0.1749	0.157
Mof_H 	H 	0.0098	0.6706	0.9766	0.145
Mof_H 	H 	0.2528	0.3478	0.1914	0.168
Mof_H 	H 	0.6824	0.9374	0.1149	0.15
Mof_H 	H 	0.9554	0.7529	0.347	-0.053
Mof_H 	H 	0.3051	0.5892	0.096	0.14
Mof_H 	H 	0.4796	0.5455	0.1572	0.152
Mof_H 	H 	0.1668	0.2684	0.4157	0.152
Mof_H 	H 	0.3475	0.9931	0.8704	0.009
Mof_H 	H 	0.7829	0.8257	0.4079	-0.02
Mof_H 	H 	0.4171	0.7982	0.0669	-0.022
Mof_H 	H 	0.0989	0.9423	0.5261	0.178
Mof_H 	H 	0.2347	0.5626	0.3851	0.15
Mof_H 	H 	0.7018	0.0829	0.4331	-0.022
Mof_H 	H 	0.4265	0.4169	0.18	-0.003
Mof_H 	H 	0.9329	0.0016	0.4211	0.158
Mof_H 	H 	0.0165	0.2171	0.5921	-0.02
Mof_H 	H 	0.0204	0.6823	0.3428	0.152
Mof_H 	H 	0.3294	0.2265	0.9595	-0.039
Mof_H 	H 	0.9423	0.4327	0.5261	0.178
Mof_H 	H 	0.058	0.7717	0.7969	0.009
Mof_H 	H 	0.5342	0.7827	0.9385	0.001
Mof_H 	H 	0.3176	0.0626	0.8851	0.15
Mof_H 	H 	0.3438	0.2385	0.8776	0.151
Mof_H 	H 	0.7292	0.9378	0.605	0.16
Mof_H 	H 	0.9108	0.1949	0.404	0.14
Mof_H 	H 	0.0653	0.3281	0.0063	0.022
Mof_H 	H 	0.4421	0.4152	0.925	-0.024
Mof_H 	H 	0.9545	0.0204	0.3428	0.152
Mof_H 	H 	0.5192	0.7817	0.8134	0.002
Mof_H 	H 	0.1443	0.2398	0.2073	-0.001
Mof_H 	H 	0.8332	0.7316	0.5843	0.152
Mof_H 	H 	0.164	0.144	0.4583	-0.009
Mof_H 	H 	0.6276	0.8355	0.3122	0.147
Mof_H 	H 	0.5848	0.7823	0.075	-0.024
Mof_H 	H 	0.2827	0.0342	0.4385	0.001
Mof_H 	H 	0.7171	0.5165	0.0921	-0.02
Mof_H 	H 	0.6719	0.3997	0.9937	0.022
Mof_H 	H 	0.7337	0.644	0.9583	-0.009
Mof_H 	H 	0.4554	0.4447	0.847	-0.053
Mof_H 	H 	0.2171	0.1743	0.5921	-0.02
Mof_H 	H 	0.033	0.0883	0.3602	0.159
Mof_H 	H 	0.1706	0.0154	0.5405	-0.038
Mof_H 	H 	0.9244	0.1551	0.3251	0.157
Mof_H 	H 	0.942	0.2283	0.2031	0.009
Mof_H 	H 	0.336	0.2663	0.0417	-0.009
Mof_H 	H 	0.894	0.5218	0.0123	-0.041
Mof_H 	H 	0.4835	0.3257	0.9079	-0.02
Mof_H 	H 	0.4281	0.106	0.9877	-0.041
Mof_H 	H 	0.1823	0.5204	0.8428	0.152
Mof_H 	H 	0.0097	0.3051	0.096	0.141
Mof_H 	H 	0.7224	0.1391	0.4043	0.16
Mof_H 	H 	0.4086	0.1443	0.2073	-0.001
Mof_H 	H 	0.1824	0.7653	0.6149	0.15
Mof_H 	H 	0.2529	0.4554	0.847	-0.053
Mof_H 	H 	0.2265	0.4846	0.9595	-0.039
Mof_H 	H 	0.7554	0.7173	0.5615	0.001
Mof_H 	H 	0.967	0.9117	0.6398	0.159
Mof_H 	H 	0.6562	0.7615	0.1224	0.151
Mof_H 	H 	0.289	0.4931	0.3704	0.009
Mof_H 	H 	0.7753	0.3724	0.6878	0.147
Mof_H 	H 	0.711	0.5069	0.6296	0.009
Mof_H 	H 	0.1743	0.0165	0.5921	-0.02
Mof_H 	H 	0.3724	0.1645	0.6878	0.147
Mof_H 	H 	0.4374	0.1824	0.6149	0.15
Mof_H 	H 	0.9902	0.3294	0.0234	0.145
Mof_H 	H 	0.3257	0.2829	0.9079	-0.02
Mof_H 	H 	0.856	0.7663	0.5417	-0.009
Mof_H 	H 	0.2292	0.228	0.105	0.16
Mof_H 	H 	0.5553	0.7471	0.153	-0.053
Mof_H 	H 	0.558	0.8734	0.2969	0.009
Mof_H 	H 	0.4244	0.0954	0.8251	0.157
Mof_H 	H 	0.1645	0.7753	0.6878	0.147
Mof_H 	H 	0.3137	0.1977	0.5537	0.176
Mof_H 	H 	0.7982	0.7178	0.0669	-0.022
Mof_H 	H 	0.8697	0.5832	0.8305	0.154
Mof_H 	H 	0.442	0.1266	0.7031	0.009
Mof_H 	H 	0.106	0.4782	0.9877	-0.041
Mof_H 	H 	0.7827	0.7446	0.9385	0.001
Mof_H 	H 	0.8177	0.4796	0.1572	0.152
Mof_H 	H 	0.4658	0.2173	0.0615	0.001
Mof_H 	H 	0.9846	0.7265	0.4595	-0.039
Mof_H 	H 	0.8137	0.4349	0.0537	0.176
Mof_H 	H 	0.5671	0.8556	0.0789	0.157
Mof_H 	H 	0.6003	0.0653	0.0063	0.022
Mof_H 	H 	0.2663	0.356	0.0417	-0.009
Mof_H 	H 	0.7316	0.8509	0.5843	0.152
Mof_H 	H 	0.7471	0.5446	0.153	-0.053
Mof_H 	H 	0.4423	0.5989	0.0261	0.179
Mof_H 	H 	0.5829	0.2018	0.9331	-0.022
Mof_H 	H 	0.5165	0.6743	0.0921	-0.02
Mof_H 	H 	0.5831	0.0234	0.82	-0.003
Mof_H 	H 	0.0986	0.6431	0.7846	-0.009
Mof_H 	H 	0.0218	0.394	0.5123	-0.041
Mof_H 	H 	0.9014	0.3569	0.2154	-0.009
Mof_H 	H 	0.9169	0.9265	0.68	-0.003
Mof_H 	H 	0.2166	0.0832	0.3305	0.154
Mof_H 	H 	0.708	0.8478	0.6914	0.168
Mof_H 	H 	0.5892	0.0097	0.096	0.14
Mof_H 	H 	0.0719	0.0218	0.5123	-0.041
Mof_H 	H 	0.8557	0.7602	0.7927	-0.001
Mof_H 	H 	0.228	0.4378	0.105	0.16
Mof_H 	H 	0.4599	0.6562	0.1224	0.151
Mof_H 	H 	0.6823	0.9545	0.3428	0.152
Mof_H 	H 	0.9327	0.4423	0.0261	0.179
Mof_H 	H 	0.5954	0.9244	0.3251	0.157
Mof_H 	H 	0.2554	0.4658	0.0615	0.001
Mof_H 	H 	0.8478	0.7528	0.6914	0.168
Mof_H 	H 	0.8475	0.289	0.3704	0.009
Mof_H 	H 	0.8556	0.4984	0.0789	0.157
Mof_H 	H 	0.9349	0.3137	0.5537	0.176
Mof_H 	H 	0.9281	0.9782	0.4877	-0.041
Mof_H 	H 	0.9685	0.1921	0.4199	0.012
Mof_H 	H 	0.5989	0.9327	0.0261	0.179
Mof_H 	H 	0.8355	0.2247	0.3122	0.147
Mof_H 	H 	0.4815	0.967	0.6398	0.159
Mof_H 	H 	0.5097	0.0892	0.596	0.14
Mof_H 	H 	0.0234	0.5735	0.82	-0.003
Mof_H 	H 	0.0263	0.8569	0.7154	-0.009
Mof_H 	H 	0.9658	0.7554	0.5615	0
Mof_H 	H 	0.2316	0.3332	0.0843	0.152
Mof_H 	H 	0.7173	0.9658	0.5615	0.001
Mof_H 	H 	0.5315	0.0805	0.0801	0.013
Mof_H 	H 	0.8051	0.5097	0.596	0.14
Mof_H 	H 	0.9421	0.7177	0.425	-0.024
Mof_H 	H 	0.1303	0.4168	0.1695	0.154
Mof_H 	H 	0.0954	0.6551	0.8251	0.157
Mof_H 	H 	0.2735	0.1706	0.5405	-0.039
Mof_H 	H 	0.2173	0.2554	0.0615	0.001
Mof_H 	H 	0.7265	0.8294	0.4595	-0.039
Mof_H 	H 	0.2717	0.558	0.2969	0.009
Mof_H 	H 	0.2817	0.0192	0.3134	0.002
Mof_H 	H 	0.3294	0.657	0.0234	0.145
Mof_H 	H 	0.606	0.9281	0.4877	-0.041
Mof_H 	H 	0.2658	0.2776	0.5957	0.16
Mof_H 	H 	0.4766	0.9169	0.68	-0.003
Mof_H 	H 	0.0735	0.5234	0.32	-0.003
Mof_H 	H 	0.4808	0.2183	0.1866	0.002
Mof_H 	H 	0.3355	0.1276	0.8122	0.147
Mof_H 	H 	0.5986	0.9737	0.2846	-0.009
Mof_H 	H 	0.5832	0.7166	0.8305	0.154
Mof_H 	H 	0.3478	0.208	0.1914	0.168
Mof_H 	H 	0.4347	0.8997	0.4937	0.022
Mof_H 	H 	0.5653	0.1003	0.5063	0.022
Mof_H 	H 	0.5401	0.3438	0.8776	0.151
Mof_H 	H 	0.3332	0.3509	0.0843	0.152
Mof_H 	H 	0.1863	0.5651	0.9463	0.176
Mof_H 	H 	0.211	0.6525	0.1296	0.009
Mof_H 	H 	0.6668	0.6491	0.9157	0.152
Mof_H 	H 	0.6706	0.7735	0.0405	-0.039
Mof_C 	C 	0.83108	0.52458	0.02616	-0.283
Mof_C 	C 	0.71386	0.48106	0.66722	-0.128
Mof_C 	C 	0.75034	0.80624	0.82138	0.332
Mof_C 	C 	0.95731	0.40061	0.52877	-0.374
Mof_C 	C 	0.75698	0.74798	0.93376	0.178
Mof_C 	C 	0.34819	0.24479	0.32303	-0.277
Mof_C 	C 	0.45784	0.42334	0.90868	0.204
Mof_C 	C 	0.22529	0.38699	0.09783	0.318
Mof_C 	C 	0.07457	0.05397	0.61409	-0.253
Mof_C 	C 	0.37774	0.09684	0.52088	0.256
Mof_C 	C 	0.85901	0.73701	0.57977	-0.284
Mof_C 	C 	0.1395	0.5803	0.3239	-0.308
Mof_C 	C 	0.43987	0.92307	0.95749	-0.118
Mof_C 	C 	0.18288	0.50478	0.44006	0.294
Mof_C 	C 	0.46651	0.44001	0.86167	0.205
Mof_C 	C 	0.40848	0.44858	0.17916	0.16
Mof_C 	C 	0.12226	0.49546	0.97912	0.256
Mof_C 	C 	0.89212	0.25582	0.59504	-0.313
Mof_C 	C 	0.50518	0.74698	0.05616	0.369
Mof_C 	C 	0.90955	0.18945	0.42185	-0.239
Mof_C 	C 	0.17582	0.45172	0.19764	-0.162
Mof_C 	C 	0.39637	0.43587	0.22569	0.269
Mof_C 	C 	0.44681	0.90221	0.47597	0.101
Mof_C 	C 	0.44858	0.96378	0.17916	0.16
Mof_C 	C 	0.43587	0.94207	0.22569	0.269
Mof_C 	C 	0.04851	0.74641	0.38927	-0.315
Mof_C 	C 	0.17235	0.95255	0.54545	-0.368
Mof_C 	C 	0.63902	0.94112	0.18564	0.128
Mof_C 	C 	0.00389	0.68899	0.35933	-0.322
Mof_C 	C 	0.28986	0.07666	0.59132	0.204
Mof_C 	C 	0.97542	0.66892	0.47384	-0.283
Mof_C 	C 	0.69376	0.74966	0.67862	0.332
Mof_C 	C 	0.68496	0.74256	0.94552	0.173
Mof_C 	C 	0.71591	0.95441	0.68717	0.143
Mof_C 	C 	0.18419	0.95149	0.61073	-0.315
Mof_C 	C 	0.21386	0.63786	0.16722	-0.128
Mof_C 	C 	0.45255	0.67235	0.04545	-0.369
Mof_C 	C 	0.91601	0.65181	0.67697	-0.277
Mof_C 	C 	0.82518	0.82418	0.80236	-0.162
Mof_C 	C 	0.19168	0.24698	0.55616	0.369
Mof_C 	C 	0.21578	0.23758	0.57626	-0.239
Mof_C 	C 	0.67035	0.82765	0.45455	-0.369
Mof_C 	C 	0.65612	0.80562	0.03774	0.242
Mof_C 	C 	0.88182	0.97542	0.47384	-0.282
Mof_C 	C 	0.27298	0.51478	0.90706	0.193
Mof_C 	C 	0.9672	0.8886	0.7013	-0.176
Mof_C 	C 	0.15181	0.41601	0.17697	-0.277
Mof_C 	C 	0.67181	0.93881	0.13257	-0.264
Mof_C 	C 	0.08873	0.23553	0.45161	-0.217
Mof_C 	C 	0.90316	0.99546	0.47912	0.255
Mof_C 	C 	0.28849	0.41169	0.88843	0.359
Mof_C 	C 	0.11301	0.27471	0.40217	0.318
Mof_C 	C 	0.42543	0.24263	0.88591	-0.252
Mof_C 	C 	0.1199	0.3239	0.0318	0.22
Mof_C 	C 	0.5437	0.9197	0.1761	-0.308
Mof_C 	C 	0.24256	0.18496	0.44552	0.173
Mof_C 	C 	0.40316	0.12226	0.97912	0.256
Mof_C 	C 	0.92334	0.95784	0.40868	0.205
Mof_C 	C 	0.5231	0.118	0.6773	0.206
Mof_C 	C 	0.54851	0.31581	0.88927	-0.314
Mof_C 	C 	0.27453	0.29043	0.31001	-0.31
Mof_C 	C 	0.41169	0.41139	0.88843	0.359
Mof_C 	C 	0.57457	0.75737	0.11409	-0.252
Mof_C 	C 	0.61818	0.83108	0.02616	-0.283
Mof_C 	C 	0.94681	0.67501	0.97597	0.102
Mof_C 	C 	0.77587	0.91127	0.54839	-0.217
Mof_C 	C 	0.68945	0.40955	0.92185	-0.239
Mof_C 	C 	0.55319	0.09779	0.52403	0.101
Mof_C 	C 	0.87796	0.69376	0.67862	0.332
Mof_C 	C 	0.66691	0.93361	0.40637	-0.313
Mof_C 	C 	0.16003	0.76383	0.67601	-0.297
Mof_C 	C 	0.92543	0.94603	0.38591	-0.253
Mof_C 	C 	0.36696	0.01026	0.29342	0.256
Mof_C 	C 	0.75521	0.91601	0.67697	-0.277
Mof_C 	C 	0.45172	0.17482	0.19764	-0.162
Mof_C 	C 	0.09939	0.54269	0.97123	-0.374
Mof_C 	C 	0.68288	0.37228	0.94006	0.294
Mof_C 	C 	0.32518	0.04828	0.30236	-0.162
Mof_C 	C 	0.50454	0.59684	0.02088	0.256
Mof_C 	C 	0.15612	0.00052	0.53774	0.24
Mof_C 	C 	0.49522	0.12772	0.55994	0.294
Mof_C 	C 	0.72424	0.32664	0.84868	0.313
Mof_C 	C 	0.66892	0.88182	0.47384	-0.283
Mof_C 	C 	0.44779	0.18899	0.85933	-0.323
Mof_C 	C 	0.25744	0.37304	0.05448	0.173
Mof_C 	C 	0.9563	0.1395	0.3239	-0.309
Mof_C 	C 	0.28409	0.04559	0.31283	0.143
Mof_C 	C 	0.2671	0.2862	0.0225	0.36
Mof_C 	C 	0.67189	0.91079	0.69953	0.169
Mof_C 	C 	0.31712	0.62772	0.05994	0.294
Mof_C 	C 	0.21779	0.41079	0.19953	0.169
Mof_C 	C 	0.5758	0.7329	0.9775	0.36
Mof_C 	C 	0.56128	0.75698	0.93376	0.178
Mof_C 	C 	0.40013	0.16003	0.67601	-0.297
Mof_C 	C 	0.62503	0.79043	0.81001	-0.31
Mof_C 	C 	0.37614	0.15064	0.54068	0.379
Mof_C 	C 	0.34936	0.12386	0.95932	0.379
Mof_C 	C 	0.82811	0.78221	0.80047	0.169
Mof_C 	C 	0.35901	0.32421	0.07977	-0.284
Mof_C 	C 	0.99948	0.69438	0.46226	0.241
Mof_C 	C 	0.91841	0.36691	0.20037	0.167
Mof_C 	C 	0.32449	0.63219	0.03453	-0.258
Mof_C 	C 	0.40079	0.47859	0.15513	-0.293
Mof_C 	C 	0.7248	0.4802	0.6413	0.125
Mof_C 	C 	0.55636	0.06256	0.06882	0.115
Mof_C 	C 	0.07739	0.26599	0.40823	-0.312
Mof_C 	C 	0.73422	0.44112	0.68564	0.128
Mof_C 	C 	0.78849	0.91139	0.38843	0.359
Mof_C 	C 	0.57666	0.78986	0.09132	0.204
Mof_C 	C 	0.9769	0.8184	0.8227	0.206
Mof_C 	C 	0.04828	0.32418	0.30236	-0.162
Mof_C 	C 	0.12386	0.56746	0.95932	0.379
Mof_C 	C 	0.40955	0.97915	0.92185	-0.238
Mof_C 	C 	0.2752	0.5198	0.3587	0.125
Mof_C 	C 	0.01431	0.86691	0.70037	0.168
Mof_C 	C 	0.23758	0.97038	0.57626	-0.239
Mof_C 	C 	0.51026	0.86696	0.79342	0.256
Mof_C 	C 	0.76819	0.53349	0.13833	0.205
Mof_C 	C 	0.02141	0.09921	0.34487	-0.295
Mof_C 	C 	0.74966	0.87796	0.67862	0.332
Mof_C 	C 	0.3239	0.5244	0.0318	0.22
Mof_C 	C 	0.87774	0.50454	0.02088	0.256
Mof_C 	C 	0.18899	0.50389	0.85933	-0.323
Mof_C 	C 	0.3886	0.4672	0.2013	-0.175
Mof_C 	C 	0.47038	0.73758	0.07626	-0.239
Mof_C 	C 	0.72547	0.70957	0.68999	-0.31
Mof_C 	C 	0.08861	0.08831	0.61157	0.359
Mof_C 	C 	0.41139	0.28849	0.88843	0.359
Mof_C 	C 	0.11331	0.95731	0.52877	-0.373
Mof_C 	C 	0.22702	0.19482	0.59294	0.193
Mof_C 	C 	0.118	0.6816	0.6773	0.206
Mof_C 	C 	0.7329	0.7138	0.9775	0.36
Mof_C 	C 	0.00052	0.30562	0.53774	0.241
Mof_C 	C 	0.55142	0.03622	0.82084	0.16
Mof_C 	C 	0.08399	0.34819	0.32303	-0.277
Mof_C 	C 	0.59921	0.52141	0.84487	-0.293
Mof_C 	C 	0.6227	0.4751	0.8455	0.346
Mof_C 	C 	0.14251	0.45441	0.18717	0.143
Mof_C 	C 	0.99611	0.31101	0.64067	-0.322
Mof_C 	C 	0.41601	0.25521	0.17697	-0.277
Mof_C 	C 	0.74798	0.56128	0.93376	0.178
Mof_C 	C 	0.05221	0.99611	0.64067	-0.323
Mof_C 	C 	0.8801	0.6761	0.9682	0.22
Mof_C 	C 	0.89956	0.27576	0.15132	0.313
Mof_C 	C 	0.03349	0.26819	0.63833	0.205
Mof_C 	C 	0.51646	0.44546	0.88132	0.328
Mof_C 	C 	0.58861	0.71151	0.11157	0.359
Mof_C 	C 	0.52962	0.26242	0.92374	-0.239
Mof_C 	C 	0.42546	0.76916	0.07752	0.199
Mof_C 	C 	0.1537	0.7248	0.6413	0.125
Mof_C 	C 	0.27587	0.26447	0.04839	-0.217
Mof_C 	C 	0.23701	0.35901	0.07977	-0.284
Mof_C 	C 	0.46378	0.94858	0.67916	0.16
Mof_C 	C 	0.36691	0.51431	0.20037	0.167
Mof_C 	C 	0.56746	0.34936	0.95932	0.379
Mof_C 	C 	0.22413	0.08873	0.45161	-0.217
Mof_C 	C 	0.82421	0.85901	0.57977	-0.284
Mof_C 	C 	0.08159	0.63309	0.79963	0.167
Mof_C 	C 	0.31504	0.25744	0.05448	0.173
Mof_C 	C 	0.44112	0.13902	0.68564	0.128
Mof_C 	C 	0.30624	0.25034	0.32138	0.332
Mof_C 	C 	0.15676	0.51646	0.88132	0.328
Mof_C 	C 	0.1114	0.5571	0.2987	-0.175
Mof_C 	C 	0.37497	0.20957	0.18999	-0.31
Mof_C 	C 	0.4242	0.2671	0.0225	0.36
Mof_C 	C 	0.24263	0.44603	0.88591	-0.252
Mof_C 	C 	0.47542	0.38182	0.97384	-0.283
Mof_C 	C 	0.55454	0.84324	0.11868	0.328
Mof_C 	C 	0.47859	0.96549	0.15513	-0.293
Mof_C 	C 	0.9802	0.2248	0.1413	0.125
Mof_C 	C 	0.23401	0.42261	0.09177	-0.312
Mof_C 	C 	0.74641	0.81581	0.38927	-0.314
Mof_C 	C 	0.55221	0.81101	0.14067	-0.323
Mof_C 	C 	0.04269	0.59939	0.47123	-0.374
Mof_C 	C 	0.25302	0.30832	0.94384	0.369
Mof_C 	C 	0.86098	0.26578	0.31436	0.128
Mof_C 	C 	0.74698	0.69168	0.05616	0.369
Mof_C 	C 	0.72786	0.42546	0.07752	0.199
Mof_C 	C 	0.56256	0.05636	0.56882	0.116
Mof_C 	C 	0.48569	0.08159	0.79963	0.167
Mof_C 	C 	0.62386	0.84936	0.45932	0.379
Mof_C 	C 	0.6114	0.5328	0.7987	-0.175
Mof_C 	C 	0.43881	0.17181	0.63257	-0.264
Mof_C 	C 	0.37304	0.31504	0.05448	0.173
Mof_C 	C 	0.09779	0.82499	0.52403	0.101
Mof_C 	C 	0.4769	0.882	0.3227	0.206
Mof_C 	C 	0.91139	0.91169	0.38843	0.359
Mof_C 	C 	0.23617	0.59987	0.32399	-0.297
Mof_C 	C 	0.98106	0.21386	0.16722	-0.128
Mof_C 	C 	0.17551	0.49121	0.46547	-0.258
Mof_C 	C 	0.74839	0.76599	0.90823	-0.312
Mof_C 	C 	0.72529	0.78989	0.59783	0.318
Mof_C 	C 	0.19445	0.42595	0.97975	0.384
Mof_C 	C 	0.43744	0.94364	0.43118	0.116
Mof_C 	C 	0.75302	0.99482	0.44384	0.369
Mof_C 	C 	0.84324	0.48354	0.11868	0.328
Mof_C 	C 	0.59987	0.83997	0.32399	-0.297
Mof_C 	C 	0.07454	0.77214	0.42248	0.199
Mof_C 	C 	0.07693	0.32043	0.04251	-0.119
Mof_C 	C 	0.04216	0.28986	0.59132	0.204
Mof_C 	C 	0.75161	0.92261	0.59177	-0.312
Mof_C 	C 	0.90221	0.17501	0.47597	0.101
Mof_C 	C 	0.32765	0.17035	0.95455	-0.369
Mof_C 	C 	0.71011	0.77471	0.90217	0.318
Mof_C 	C 	0.39985	0.19445	0.97975	0.384
Mof_C 	C 	0.618	0.0231	0.1773	0.206
Mof_C 	C 	0.69438	0.84388	0.46226	0.242
Mof_C 	C 	0.21151	0.08861	0.61157	0.359
Mof_C 	C 	0.5571	0.0328	0.2987	-0.175
Mof_C 	C 	0.98569	0.13309	0.29963	0.168
Mof_C 	C 	0.25521	0.15181	0.17697	-0.277
Mof_C 	C 	0.81581	0.04851	0.38927	-0.315
Mof_C 	C 	0.50052	0.65612	0.03774	0.242
Mof_C 	C 	0.87228	0.18288	0.44006	0.294
Mof_C 	C 	0.27471	0.21011	0.40217	0.318
Mof_C 	C 	0.67582	0.67482	0.69764	-0.162
Mof_C 	C 	0.32421	0.23701	0.07977	-0.284
Mof_C 	C 	0.26819	0.05999	0.63833	0.205
Mof_C 	C 	0.98354	0.34324	0.61868	0.328
Mof_C 	C 	0.95441	0.64251	0.68717	0.143
Mof_C 	C 	0.31055	0.59045	0.07815	-0.239
Mof_C 	C 	0.44207	0.93587	0.72569	0.269
Mof_C 	C 	0.28221	0.32811	0.30047	0.169
Mof_C 	C 	0.27576	0.67336	0.15132	0.313
Mof_C 	C 	0.33309	0.06639	0.59363	-0.313
Mof_C 	C 	0.42334	0.21014	0.90868	0.204
Mof_C 	C 	0.54745	0.32765	0.95455	-0.369
Mof_C 	C 	0.67501	0.40221	0.97597	0.101
Mof_C 	C 	0.02458	0.33108	0.52616	-0.283
Mof_C 	C 	0.25161	0.23401	0.09177	-0.312
Mof_C 	C 	0.05454	0.98354	0.61868	0.329
Mof_C 	C 	0.32936	0.36696	0.29342	0.256
Mof_C 	C 	0.91169	0.78849	0.38843	0.359
Mof_C 	C 	0.4197	0.0437	0.6761	-0.307
Mof_C 	C 	0.18496	0.12696	0.44552	0.173
Mof_C 	C 	0.05319	0.32499	0.02403	0.102
Mof_C 	C 	0.84819	0.58399	0.82303	-0.277
Mof_C 	C 	0.82499	0.55319	0.52403	0.101
Mof_C 	C 	0.82819	0.24319	0.36743	-0.264
Mof_C 	C 	0.56119	0.82819	0.36743	-0.264
Mof_C 	C 	0.3773	0.5249	0.1545	0.346
Mof_C 	C 	0.9242	0.7862	0.5225	0.36
Mof_C 	C 	0.382	0.9769	0.8227	0.206
Mof_C 	C 	0.67235	0.82965	0.04545	-0.369
Mof_C 	C 	0.4433	0.0249	0.6545	0.345
Mof_C 	C 	0.25034	0.12204	0.32138	0.332
Mof_C 	C 	0.36098	0.05888	0.81436	0.128
Mof_C 	C 	0.38669	0.09939	0.97123	-0.374
Mof_C 	C 	0.78614	0.36214	0.83278	-0.128
Mof_C 	C 	0.81504	0.87304	0.55448	0.173
Mof_C 	C 	0.36781	0.99121	0.96547	-0.257
Mof_C 	C 	0.73701	0.82421	0.57977	-0.284
Mof_C 	C 	0.2248	0.6537	0.1413	0.125
Mof_C 	C 	0.78422	0.76242	0.42374	-0.239
Mof_C 	C 	0.01894	0.78614	0.83278	-0.128
Mof_C 	C 	0.97915	0.68945	0.92185	-0.24
Mof_C 	C 	0.25582	0.25702	0.59504	-0.313
Mof_C 	C 	0.83309	0.50689	0.09363	-0.313
Mof_C 	C 	0.76916	0.72786	0.07752	0.199
Mof_C 	C 	0.36214	0.01894	0.83278	-0.128
Mof_C 	C 	0.77453	0.62503	0.81001	-0.31
Mof_C 	C 	0.74256	0.62696	0.94552	0.173
Mof_C 	C 	0.5567	0.9751	0.3455	0.345
Mof_C 	C 	0.59779	0.05319	0.02403	0.101
Mof_C 	C 	0.85749	0.54559	0.81283	0.143
Mof_C 	C 	0.77471	0.61301	0.90217	0.318
Mof_C 	C 	0.48974	0.13304	0.20658	0.256
Mof_C 	C 	0.24966	0.19376	0.17862	0.332
Mof_C 	C 	0.2329	0.0758	0.4775	0.36
Mof_C 	C 	0.88669	0.04269	0.47123	-0.373
Mof_C 	C 	0.03451	0.59921	0.84487	-0.293
Mof_C 	C 	0.0437	0.8605	0.6761	-0.309
Mof_C 	C 	0.81226	0.56256	0.56882	0.116
Mof_C 	C 	0.54828	0.82518	0.80236	-0.162
Mof_C 	C 	0.44364	0.93744	0.93118	0.115
Mof_C 	C 	0.78986	0.54216	0.09132	0.204
Mof_C 	C 	0.30555	0.10015	0.52025	0.384
Mof_C 	C 	0.44603	0.42543	0.88591	-0.252
Mof_C 	C 	0.0328	0.1114	0.2987	-0.176
Mof_C 	C 	0.13304	0.17064	0.20658	0.256
Mof_C 	C 	0.48522	0.69482	0.09294	0.193
Mof_C 	C 	0.39956	0.17336	0.65132	0.313
Mof_C 	C 	0.19376	0.37796	0.17862	0.332
Mof_C 	C 	0.28989	0.22529	0.09783	0.318
Mof_C 	C 	0.0244	0.8239	0.5318	0.221
Mof_C 	C 	0.82043	0.57693	0.54251	-0.119
Mof_C 	C 	0.30518	0.27298	0.90706	0.193
Mof_C 	C 	0.24418	0.60788	0.90496	-0.313
Mof_C 	C 	0.25702	0.89212	0.59504	-0.313
Mof_C 	C 	0.10788	0.74418	0.40496	-0.313
Mof_C 	C 	0.76578	0.36098	0.81436	0.128
Mof_C 	C 	0.37228	0.00478	0.94006	0.293
Mof_C 	C 	0.63304	0.98974	0.70658	0.256
Mof_C 	C 	0.68899	0.94779	0.35933	-0.323
Mof_C 	C 	0.61331	0.90061	0.02877	-0.374
Mof_C 	C 	0.24302	0.25202	0.06624	0.178
Mof_C 	C 	0.7138	0.5758	0.9775	0.36
Mof_C 	C 	0.25359	0.18419	0.61073	-0.314
Mof_C 	C 	0.8605	0.4197	0.6761	-0.308
Mof_C 	C 	0.60015	0.80555	0.02025	0.384
Mof_C 	C 	0.02962	0.78422	0.42374	-0.239
Mof_C 	C 	0.09684	0.00454	0.52088	0.255
Mof_C 	C 	0.75582	0.39212	0.09504	-0.313
Mof_C 	C 	0.24798	0.25698	0.43376	0.178
Mof_C 	C 	0.0249	0.8773	0.6545	0.347
Mof_C 	C 	0.00478	0.68288	0.94006	0.295
Mof_C 	C 	0.89637	0.44207	0.72569	0.269
Mof_C 	C 	0.48106	0.13786	0.66722	-0.128
Mof_C 	C 	0.67482	0.95172	0.69764	-0.162
Mof_C 	C 	0.24698	0.00518	0.55616	0.369
Mof_C 	C 	0.49311	0.43361	0.90637	-0.313
Mof_C 	C 	0.71014	0.92334	0.40868	0.204
Mof_C 	C 	0.59045	0.02085	0.07815	-0.238
Mof_C 	C 	0.18945	0.47915	0.42185	-0.239
Mof_C 	C 	0.39212	0.75702	0.09504	-0.313
Mof_C 	C 	0.00689	0.33309	0.59363	-0.314
Mof_C 	C 	0.23422	0.63902	0.18564	0.128
Mof_C 	C 	0.01478	0.77298	0.40706	0.193
Mof_C 	C 	0.8773	0.4433	0.6545	0.346
Mof_C 	C 	0.25698	0.06128	0.43376	0.178
Mof_C 	C 	0.17957	0.42307	0.45749	-0.119
Mof_C 	C 	0.34388	0.19438	0.96226	0.242
Mof_C 	C 	0.40221	0.94681	0.97597	0.101
Mof_C 	C 	0.10044	0.72424	0.84868	0.313
Mof_C 	C 	0.63786	0.98106	0.16722	-0.128
Mof_C 	C 	0.75744	0.81504	0.55448	0.173
Mof_C 	C 	0.75737	0.55397	0.11409	-0.252
Mof_C 	C 	0.5249	0.9433	0.1545	0.346
Mof_C 	C 	0.12204	0.30624	0.32138	0.332
Mof_C 	C 	0.38182	0.16892	0.97384	-0.283
Mof_C 	C 	0.84388	0.99948	0.46226	0.24
Mof_C 	C 	0.17579	0.14099	0.42023	-0.284
Mof_C 	C 	0.5328	0.0571	0.7987	-0.175
Mof_C 	C 	0.94858	0.90848	0.67916	0.161
Mof_C 	C 	0.32965	0.17235	0.54545	-0.369
Mof_C 	C 	0.93361	0.99311	0.40637	-0.315
Mof_C 	C 	0.6761	0.4756	0.9682	0.22
Mof_C 	C 	0.06256	0.31226	0.06882	0.116
Mof_C 	C 	0.49546	0.40316	0.97912	0.256
Mof_C 	C 	0.00454	0.37774	0.52088	0.256
Mof_C 	C 	0.08921	0.28221	0.30047	0.169
Mof_C 	C 	0.67551	0.36781	0.96547	-0.258
Mof_C 	C 	0.51894	0.86214	0.33278	-0.128
Mof_C 	C 	0.43361	0.16691	0.90637	-0.313
Mof_C 	C 	0.54559	0.78409	0.81283	0.143
Mof_C 	C 	0.31226	0.55636	0.06882	0.116
Mof_C 	C 	0.74302	0.93872	0.56624	0.178
Mof_C 	C 	0.75359	0.45149	0.11073	-0.314
Mof_C 	C 	0.8184	0.382	0.8227	0.206
Mof_C 	C 	0.78989	0.88699	0.59783	0.318
Mof_C 	C 	0.7752	0.3463	0.8587	0.125
Mof_C 	C 	0.26299	0.17579	0.42023	-0.284
Mof_C 	C 	0.98974	0.67064	0.70658	0.256
Mof_C 	C 	0.07666	0.04216	0.59132	0.205
Mof_C 	C 	0.58921	0.82811	0.80047	0.169
Mof_C 	C 	0.75681	0.43881	0.63257	-0.264
Mof_C 	C 	0.92261	0.73401	0.59177	-0.312
Mof_C 	C 	0.24298	0.24418	0.90496	-0.313
Mof_C 	C 	0.86691	0.41841	0.70037	0.167
Mof_C 	C 	0.71578	0.47038	0.07626	-0.239
Mof_C 	C 	0.17189	0.21779	0.19953	0.169
Mof_C 	C 	0.23152	0.59462	0.88864	0.323
Mof_C 	C 	0.00518	0.19168	0.55616	0.368
Mof_C 	C 	0.12503	0.27453	0.31001	-0.31
Mof_C 	C 	0.9756	0.1761	0.4682	0.221
Mof_C 	C 	0.25202	0.43872	0.06624	0.178
Mof_C 	C 	0.81712	0.49522	0.55994	0.294
Mof_C 	C 	0.99121	0.67551	0.96547	-0.258
Mof_C 	C 	0.17482	0.17582	0.19764	-0.162
Mof_C 	C 	0.28422	0.52962	0.92374	-0.239
Mof_C 	C 	0.4751	0.0567	0.8455	0.346
Mof_C 	C 	0.34324	0.05454	0.61868	0.328
Mof_C 	C 	0.62226	0.90316	0.47912	0.256
Mof_C 	C 	0.3463	0.0198	0.8587	0.124
Mof_C 	C 	0.82664	0.22424	0.34868	0.313
Mof_C 	C 	0.01026	0.32936	0.29342	0.256
Mof_C 	C 	0.72413	0.73553	0.95161	-0.217
Mof_C 	C 	0.59462	0.28522	0.88864	0.323
Mof_C 	C 	0.69445	0.89985	0.47975	0.384
Mof_C 	C 	0.14099	0.26299	0.42023	-0.284
Mof_C 	C 	0.9197	0.3605	0.1761	-0.308
Mof_C 	C 	0.60363	0.56413	0.77431	0.269
Mof_C 	C 	0.06639	0.00689	0.59363	-0.315
Mof_C 	C 	0.21591	0.14251	0.18717	0.143
Mof_C 	C 	0.80518	0.01478	0.40706	0.194
Mof_C 	C 	0.23553	0.22413	0.45161	-0.217
Mof_C 	C 	0.2862	0.4242	0.0225	0.36
Mof_C 	C 	0.41841	0.01431	0.70037	0.167
Mof_C 	C 	0.54216	0.57666	0.09132	0.204
Mof_C 	C 	0.26447	0.41127	0.04839	-0.217
Mof_C 	C 	0.86214	0.28614	0.33278	-0.128
Mof_C 	C 	0.5198	0.8463	0.3587	0.125
Mof_C 	C 	0.09152	0.53622	0.32084	0.16
Mof_C 	C 	0.82765	0.04745	0.45455	-0.368
Mof_C 	C 	0.35749	0.28409	0.31283	0.143
Mof_C 	C 	0.25737	0.07457	0.61409	-0.252
Mof_C 	C 	0.58399	0.74479	0.82303	-0.277
Mof_C 	C 	0.45731	0.61331	0.02877	-0.374
Mof_C 	C 	0.0567	0.6227	0.8455	0.346
Mof_C 	C 	0.81055	0.52085	0.57815	-0.239
Mof_C 	C 	0.68774	0.44364	0.93118	0.116
Mof_C 	C 	0.49611	0.55221	0.14067	-0.323
Mof_C 	C 	0.09921	0.53451	0.34487	-0.293
Mof_C 	C 	0.05888	0.76578	0.81436	0.128
Mof_C 	C 	0.90538	0.26848	0.61136	0.323
Mof_C 	C 	0.0803	0.6395	0.8239	-0.308
Mof_C 	C 	0.57693	0.06013	0.54251	-0.119
Mof_C 	C 	0.76848	0.40538	0.11136	0.323
Mof_C 	C 	0.58159	0.98569	0.29963	0.167
Mof_C 	C 	0.51478	0.30518	0.90706	0.193
Mof_C 	C 	0.13786	0.71386	0.66722	-0.128
Mof_C 	C 	0.91079	0.71779	0.69953	0.169
Mof_C 	C 	0.81101	0.49611	0.14067	-0.323
Mof_C 	C 	0.4563	0.0803	0.8239	-0.308
Mof_C 	C 	0.24641	0.54851	0.88927	-0.314
Mof_C 	C 	0.57454	0.23084	0.92248	0.199
Mof_C 	C 	0.63309	0.48569	0.79963	0.167
Mof_C 	C 	0.01646	0.65676	0.38132	0.328
Mof_C 	C 	0.40061	0.11331	0.52877	-0.374
Mof_C 	C 	0.4672	0.9429	0.2013	-0.175
Mof_C 	C 	0.17064	0.48974	0.20658	0.256
Mof_C 	C 	0.3801	0.9756	0.4682	0.22
Mof_C 	C 	0.15064	0.93254	0.54068	0.378
Mof_C 	C 	0.06746	0.62386	0.45932	0.379
Mof_C 	C 	0.65181	0.75521	0.67697	-0.277
Mof_C 	C 	0.56639	0.83309	0.09363	-0.313
Mof_C 	C 	0.7862	0.7671	0.5225	0.36
Mof_C 	C 	0.72702	0.48522	0.09294	0.193
Mof_C 	C 	0.24839	0.07739	0.40823	-0.312
Mof_C 	C 	0.05636	0.81226	0.56882	0.116
Mof_C 	C 	0.12772	0.81712	0.55994	0.294
Mof_C 	C 	0.55888	0.86098	0.31436	0.128
Mof_C 	C 	0.79043	0.77453	0.81001	-0.31
Mof_C 	C 	0.95784	0.71014	0.40868	0.204
Mof_C 	C 	0.74298	0.10788	0.40496	-0.313
Mof_C 	C 	0.87614	0.43254	0.04068	0.379
Mof_C 	C 	0.32664	0.10044	0.84868	0.313
Mof_C 	C 	0.53451	0.02141	0.34487	-0.293
Mof_C 	C 	0.6816	0.5231	0.6773	0.206
Mof_C 	C 	0.1227	0.5567	0.3455	0.346
Mof_C 	C 	0.94207	0.39637	0.22569	0.269
Mof_C 	C 	0.02085	0.31055	0.07815	-0.24
Mof_C 	C 	0.62772	0.99522	0.05994	0.293
Mof_C 	C 	0.09045	0.81055	0.57815	-0.239
Mof_C 	C 	0.99482	0.80832	0.44384	0.368
Mof_C 	C 	0.94001	0.96651	0.36167	0.205
Mof_C 	C 	0.73401	0.75161	0.59177	-0.312
Mof_C 	C 	0.77298	0.80518	0.40706	0.193
Mof_C 	C 	0.83997	0.23617	0.32399	-0.297
Mof_C 	C 	0.10015	0.07405	0.52025	0.384
Mof_C 	C 	0.21478	0.90538	0.61136	0.323
Mof_C 	C 	0.61301	0.71011	0.90217	0.318
Mof_C 	C 	0.50689	0.56639	0.09363	-0.313
Mof_C 	C 	0.11818	0.02458	0.52616	-0.282
Mof_C 	C 	0.77214	0.73084	0.42248	0.199
Mof_C 	C 	0.65064	0.87614	0.04068	0.379
Mof_C 	C 	0.76383	0.40013	0.67601	-0.297
Mof_C 	C 	0.26242	0.28422	0.92374	-0.239
Mof_C 	C 	0.86696	0.82936	0.79342	0.256
Mof_C 	C 	0.6395	0.4563	0.8239	-0.308
Mof_C 	C 	0.29043	0.12503	0.31001	-0.31
Mof_C 	C 	0.27214	0.57454	0.92248	0.199
Mof_C 	C 	0.94603	0.74263	0.38591	-0.252
Mof_C 	C 	0.05793	0.60363	0.77431	0.269
Mof_C 	C 	0.19482	0.98522	0.59294	0.194
Mof_C 	C 	0.06128	0.24798	0.43376	0.178
Mof_C 	C 	0.90061	0.45731	0.02877	-0.374
Mof_C 	C 	0.92595	0.69445	0.47975	0.384
Mof_C 	C 	0.67957	0.43987	0.95749	-0.119
Mof_C 	C 	0.82936	0.51026	0.79342	0.256
Mof_C 	C 	0.24479	0.08399	0.32303	-0.277
Mof_C 	C 	0.07405	0.30555	0.52025	0.384
Mof_C 	C 	0.26848	0.21478	0.61136	0.323
Mof_C 	C 	0.0571	0.6114	0.7987	-0.175
Mof_C 	C 	0.05142	0.09152	0.32084	0.161
Mof_C 	C 	0.57405	0.60015	0.02025	0.384
Mof_C 	C 	0.28522	0.23152	0.88864	0.323
Mof_C 	C 	0.3184	0.4769	0.3227	0.206
Mof_C 	C 	0.55999	0.76819	0.13833	0.205
Mof_C 	C 	0.32499	0.59779	0.02403	0.101
Mof_C 	C 	0.92307	0.67957	0.95749	-0.119
Mof_C 	C 	0.06013	0.82043	0.54251	-0.119
Mof_C 	C 	0.42595	0.39985	0.97975	0.384
Mof_C 	C 	0.95149	0.25359	0.61073	-0.315
Mof_C 	C 	0.49121	0.86781	0.46547	-0.258
Mof_C 	C 	0.49482	0.25302	0.94384	0.369
Mof_C 	C 	0.26383	0.66003	0.17601	-0.297
Mof_C 	C 	0.6537	0.9802	0.1413	0.124
Mof_C 	C 	0.8239	0.6199	0.5318	0.22
Mof_C 	C 	0.3605	0.5437	0.1761	-0.308
Mof_C 	C 	0.69482	0.72702	0.09294	0.193
Mof_C 	C 	0.25681	0.67181	0.13257	-0.264
Mof_C 	C 	0.87304	0.75744	0.55448	0.173
Mof_C 	C 	0.8886	0.4429	0.7013	-0.175
Mof_C 	C 	0.90848	0.46378	0.67916	0.16
Mof_C 	C 	0.44546	0.15676	0.88132	0.328
Mof_C 	C 	0.52085	0.09045	0.57815	-0.239
Mof_C 	C 	0.4802	0.1537	0.6413	0.125
Mof_C 	C 	0.93254	0.37614	0.54068	0.379
Mof_C 	C 	0.23181	0.46651	0.86167	0.205
Mof_C 	C 	0.45441	0.21591	0.18717	0.143
Mof_C 	C 	0.93881	0.25681	0.13257	-0.265
Mof_C 	C 	0.93744	0.68774	0.93118	0.116
Mof_C 	C 	0.50879	0.13219	0.53453	-0.258
Mof_C 	C 	0.9751	0.1227	0.3455	0.347
Mof_C 	C 	0.67064	0.63304	0.70658	0.256
Mof_C 	C 	0.78221	0.58921	0.80047	0.169
Mof_C 	C 	0.97038	0.21578	0.57626	-0.239
Mof_C 	C 	0.76599	0.57739	0.90823	-0.312
Mof_C 	C 	0.06119	0.74319	0.86743	-0.265
Mof_C 	C 	0.8463	0.2752	0.3587	0.125
Mof_C 	C 	0.93987	0.17957	0.45749	-0.119
Mof_C 	C 	0.82418	0.54828	0.80236	-0.162
Mof_C 	C 	0.90079	0.46549	0.65513	-0.293
Mof_C 	C 	0.04559	0.35749	0.31283	0.143
Mof_C 	C 	0.64251	0.71591	0.68717	0.143
Mof_C 	C 	0.56013	0.07693	0.04251	-0.118
Mof_C 	C 	0.03622	0.59152	0.82084	0.16
Mof_C 	C 	0.55793	0.06413	0.27431	0.269
Mof_C 	C 	0.78522	0.09462	0.38864	0.323
Mof_C 	C 	0.12696	0.24256	0.44552	0.173
Mof_C 	C 	0.1761	0.3801	0.4682	0.22
Mof_C 	C 	0.16892	0.47542	0.97384	-0.283
Mof_C 	C 	0.6199	0.0244	0.5318	0.22
Mof_C 	C 	0.52458	0.61818	0.02616	-0.283
Mof_C 	C 	0.13219	0.82449	0.53453	-0.258
Mof_C 	C 	0.73553	0.58873	0.95161	-0.217
Mof_C 	C 	0.9433	0.3773	0.1545	0.346
Mof_C 	C 	0.57739	0.74839	0.90823	-0.312
Mof_C 	C 	0.74263	0.92543	0.38591	-0.252
Mof_C 	C 	0.76299	0.64099	0.92023	-0.284
Mof_C 	C 	0.09462	0.73152	0.38864	0.323
Mof_C 	C 	0.60788	0.24298	0.90496	-0.313
Mof_C 	C 	0.40538	0.71478	0.11136	0.323
Mof_C 	C 	0.95255	0.32965	0.54545	-0.368
Mof_C 	C 	0.62204	0.75034	0.82138	0.332
Mof_C 	C 	0.47915	0.90955	0.42185	-0.239
Mof_C 	C 	0.96378	0.40848	0.17916	0.16
Mof_C 	C 	0.24319	0.56119	0.36743	-0.264
Mof_C 	C 	0.10363	0.55793	0.27431	0.269
Mof_C 	C 	0.53349	0.55999	0.13833	0.205
Mof_C 	C 	0.93872	0.75202	0.56624	0.178
Mof_C 	C 	0.4756	0.8801	0.9682	0.22
Mof_C 	C 	0.71151	0.58831	0.11157	0.359
Mof_C 	C 	0.22424	0.60044	0.34868	0.313
Mof_C 	C 	0.9429	0.3886	0.2013	-0.175
Mof_C 	C 	0.67336	0.89956	0.15132	0.313
Mof_C 	C 	0.70957	0.87497	0.68999	-0.31
Mof_C 	C 	0.69168	0.50518	0.05616	0.369
Mof_C 	C 	0.50389	0.44779	0.85933	-0.323
Mof_C 	C 	0.71779	0.67189	0.69953	0.169
Mof_C 	C 	0.31581	0.24641	0.88927	-0.314
Mof_C 	C 	0.92546	0.22786	0.57752	0.199
Mof_C 	C 	0.99311	0.66691	0.40637	-0.314
Mof_C 	C 	0.82449	0.50879	0.53453	-0.258
Mof_C 	C 	0.96651	0.73181	0.36167	0.205
Mof_C 	C 	0.43254	0.65064	0.04068	0.379
Mof_C 	C 	0.0198	0.7752	0.8587	0.125
Mof_C 	C 	0.06413	0.10363	0.27431	0.269
Mof_C 	C 	0.75202	0.74302	0.56624	0.178
Mof_C 	C 	0.05999	0.03349	0.63833	0.205
Mof_C 	C 	0.77576	0.39956	0.65132	0.313
Mof_C 	C 	0.55397	0.57457	0.11409	-0.252
Mof_C 	C 	0.52141	0.03451	0.84487	-0.293
Mof_C 	C 	0.5244	0.1199	0.0318	0.22
Mof_C 	C 	0.4429	0.9672	0.7013	-0.175
Mof_C 	C 	0.5803	0.9563	0.3239	-0.307
Mof_C 	C 	0.64099	0.67579	0.92023	-0.284
Mof_C 	C 	0.80832	0.75302	0.44384	0.369
Mof_C 	C 	0.74319	0.32819	0.86743	-0.264
Mof_C 	C 	0.17336	0.77576	0.65132	0.313
Mof_C 	C 	0.88699	0.72529	0.59783	0.318
Mof_C 	C 	0.53622	0.05142	0.32084	0.16
Mof_C 	C 	0.75702	0.75582	0.09504	-0.313
Mof_C 	C 	0.05397	0.25737	0.61409	-0.252
Mof_C 	C 	0.94779	0.00389	0.35933	-0.323
Mof_C 	C 	0.0758	0.2138	0.4775	0.36
Mof_C 	C 	0.93587	0.89637	0.72569	0.269
Mof_C 	C 	0.22547	0.37497	0.18999	-0.31
Mof_C 	C 	0.45149	0.68419	0.11073	-0.314
Mof_C 	C 	0.32043	0.56013	0.04251	-0.119
Mof_C 	C 	0.65676	0.94546	0.38132	0.328
Mof_C 	C 	0.97859	0.90079	0.65513	-0.295
Mof_C 	C 	0.2138	0.2329	0.4775	0.36
Mof_C 	C 	0.13902	0.73422	0.68564	0.128
Mof_C 	C 	0.71478	0.76848	0.11136	0.323
Mof_C 	C 	0.43872	0.24302	0.06624	0.178
Mof_C 	C 	0.41079	0.17189	0.19953	0.169
Mof_C 	C 	0.16691	0.49311	0.90637	-0.313
Mof_C 	C 	0.38699	0.28989	0.09783	0.318
Mof_C 	C 	0.58873	0.72413	0.95161	-0.217
Mof_C 	C 	0.99522	0.31712	0.05994	0.295
Mof_C 	C 	0.1816	0.618	0.1773	0.206
Mof_C 	C 	0.22786	0.26916	0.57752	0.199
Mof_C 	C 	0.26578	0.55888	0.31436	0.128
Mof_C 	C 	0.17501	0.44681	0.47597	0.101
Mof_C 	C 	0.20957	0.22547	0.18999	-0.31
Mof_C 	C 	0.44001	0.23181	0.86167	0.205
Mof_C 	C 	0.17035	0.54745	0.95455	-0.369
Mof_C 	C 	0.67579	0.76299	0.92023	-0.284
Mof_C 	C 	0.31101	0.05221	0.64067	-0.323
Mof_C 	C 	0.74418	0.74298	0.40496	-0.313
Mof_C 	C 	0.51431	0.91841	0.20037	0.167
Mof_C 	C 	0.73617	0.33997	0.82399	-0.297
Mof_C 	C 	0.28614	0.51894	0.33278	-0.128
Mof_C 	C 	0.13309	0.58159	0.29963	0.167
Mof_C 	C 	0.87497	0.72547	0.68999	-0.31
Mof_C 	C 	0.54269	0.38669	0.97123	-0.374
Mof_C 	C 	0.76242	0.02962	0.42374	-0.239
Mof_C 	C 	0.59152	0.55142	0.82084	0.16
Mof_C 	C 	0.73084	0.07454	0.42248	0.199
Mof_C 	C 	0.21014	0.45784	0.90868	0.204
Mof_C 	C 	0.82965	0.45255	0.04545	-0.369
Mof_C 	C 	0.80562	0.50052	0.03774	0.242
Mof_C 	C 	0.91127	0.76447	0.54839	-0.217
Mof_C 	C 	0.48354	0.55454	0.11868	0.328
Mof_C 	C 	0.33997	0.09987	0.82399	-0.297
Mof_C 	C 	0.17181	0.75681	0.63257	-0.264
Mof_C 	C 	0.42307	0.93987	0.45749	-0.119
Mof_C 	C 	0.33108	0.11818	0.52616	-0.283
Mof_C 	C 	0.98522	0.22702	0.59294	0.193
Mof_C 	C 	0.95172	0.67582	0.69764	-0.162
Mof_C 	C 	0.62696	0.68496	0.94552	0.173
Mof_C 	C 	0.96549	0.40079	0.15513	-0.293
Mof_C 	C 	0.30832	0.49482	0.94384	0.369
Mof_C 	C 	0.42261	0.25161	0.09177	-0.312
Mof_C 	C 	0.89985	0.92595	0.47975	0.384
Mof_C 	C 	0.99546	0.62226	0.47912	0.256
Mof_C 	C 	0.18774	0.43744	0.43118	0.116
Mof_C 	C 	0.09987	0.73617	0.82399	-0.297
Mof_C 	C 	0.58831	0.58861	0.11157	0.359
Mof_C 	C 	0.74479	0.84819	0.82303	-0.277
Mof_C 	C 	0.41127	0.27587	0.04839	-0.217
Mof_C 	C 	0.56413	0.05793	0.77431	0.269
Mof_C 	C 	0.19438	0.49948	0.96226	0.242
Mof_C 	C 	0.66003	0.90013	0.17601	-0.297
Mof_C 	C 	0.90013	0.26383	0.17601	-0.297
Mof_C 	C 	0.30562	0.15612	0.53774	0.242
Mof_C 	C 	0.46549	0.97859	0.65513	-0.293
Mof_C 	C 	0.94546	0.01646	0.38132	0.329
Mof_C 	C 	0.80555	0.57405	0.02025	0.384
Mof_C 	C 	0.76447	0.77587	0.54839	-0.217
Mof_C 	C 	0.23084	0.27214	0.92248	0.199
Mof_C 	C 	0.63219	0.00879	0.03453	-0.257
Mof_C 	C 	0.84936	0.06746	0.45932	0.378
Mof_C 	C 	0.32819	0.06119	0.86743	-0.264
Mof_C 	C 	0.7671	0.9242	0.5225	0.36
Mof_C 	C 	0.0231	0.1816	0.1773	0.206
Mof_C 	C 	0.80624	0.62204	0.82138	0.332
Mof_C 	C 	0.59939	0.88669	0.47123	-0.374
Mof_C 	C 	0.94112	0.23422	0.18564	0.128
Mof_C 	C 	0.08831	0.21151	0.61157	0.359
Mof_C 	C 	0.50478	0.87228	0.44006	0.294
Mof_C 	C 	0.882	0.3184	0.3227	0.206
Mof_C 	C 	0.73152	0.78522	0.38864	0.323
Mof_C 	C 	0.60044	0.82664	0.34868	0.313
Mof_C 	C 	0.73758	0.71578	0.07626	-0.239
Mof_C 	C 	0.94364	0.18774	0.43118	0.116
Mof_C 	C 	0.00879	0.32449	0.03453	-0.258
Mof_C 	C 	0.04745	0.67035	0.45455	-0.368
Mof_C 	C 	0.26599	0.24839	0.40823	-0.312
Mof_C 	C 	0.68419	0.75359	0.11073	-0.314
Mof_C 	C 	0.32418	0.32518	0.30236	-0.162
Mof_C 	C 	0.32811	0.08921	0.30047	0.169
Mof_C 	C 	0.37796	0.24966	0.17862	0.332
Mof_C 	C 	0.49948	0.34388	0.96226	0.242
Mof_C 	C 	0.78409	0.85749	0.81283	0.143
Mof_C 	C 	0.26916	0.92546	0.57752	0.199
Mof_C 	C 	0.21011	0.11301	0.40217	0.318
Mof_C 	C 	0.73181	0.94001	0.36167	0.205
Mof_C 	C 	0.86781	0.17551	0.46547	-0.258
Mof_C 	C 	0.59684	0.87774	0.02088	0.256
Mof_N 	N 	0.71908	0.66248	0.86146	-0.179
Mof_N 	N 	0.81135	0.15285	0.40505	-0.183
Mof_N 	N 	0.36157	0.12027	0.63419	-0.199
Mof_N 	N 	0.24302	0.28092	0.13854	-0.179
Mof_N 	N 	0.13075	0.65285	0.90505	-0.183
Mof_N 	N 	0.16248	0.21908	0.36146	-0.179
Mof_N 	N 	0.31135	0.13075	0.90505	-0.183
Mof_N 	N 	0.75698	0.71908	0.86146	-0.179
Mof_N 	N 	0.87973	0.11603	0.36581	-0.199
Mof_N 	N 	0.21908	0.25698	0.36146	-0.179
Mof_N 	N 	0.91923	0.39103	0.08811	-0.198
Mof_N 	N 	0.74302	0.83752	0.63854	-0.179
Mof_N 	N 	0.36925	0.18865	0.59495	-0.183
Mof_N 	N 	0.39103	0.60163	0.08811	-0.198
Mof_N 	N 	0.63843	0.87973	0.36581	-0.199
Mof_N 	N 	0.15285	0.63075	0.40505	-0.183
Mof_N 	N 	0.68865	0.86925	0.09495	-0.183
Mof_N 	N 	0.86157	0.38397	0.13419	-0.199
Mof_N 	N 	0.86925	0.34715	0.09495	-0.183
Mof_N 	N 	0.12027	0.88397	0.63419	-0.199
Mof_N 	N 	0.38397	0.62027	0.13419	-0.199
Mof_N 	N 	0.78092	0.74302	0.63854	-0.179
Mof_N 	N 	0.39837	0.08077	0.91189	-0.198
Mof_N 	N 	0.60897	0.39837	0.91189	-0.198
Mof_N 	N 	0.10163	0.89103	0.58811	-0.198
Mof_N 	N 	0.89103	0.41923	0.58811	-0.198
Mof_N 	N 	0.34715	0.68865	0.09495	-0.183
Mof_N 	N 	0.61603	0.37973	0.86581	-0.199
Mof_N 	N 	0.84715	0.36925	0.59495	-0.183
Mof_N 	N 	0.88397	0.36157	0.63419	-0.199
Mof_N 	N 	0.62027	0.86157	0.13419	-0.199
Mof_N 	N 	0.28092	0.33752	0.13854	-0.179
Mof_N 	N 	0.58077	0.89837	0.41189	-0.198
Mof_N 	N 	0.11603	0.63843	0.36581	-0.199
Mof_N 	N 	0.41923	0.10163	0.58811	-0.198
Mof_N 	N 	0.13843	0.61603	0.86581	-0.199
Mof_N 	N 	0.65285	0.31135	0.90505	-0.183
Mof_N 	N 	0.08077	0.60897	0.91189	-0.198
Mof_N 	N 	0.10897	0.58077	0.41189	-0.198
Mof_N 	N 	0.83752	0.78092	0.63854	-0.179
Mof_N 	N 	0.37973	0.13843	0.86581	-0.199
Mof_N 	N 	0.60163	0.91923	0.08811	-0.198
Mof_N 	N 	0.89837	0.10897	0.41189	-0.198
Mof_N 	N 	0.18865	0.84715	0.59495	-0.183
Mof_N 	N 	0.25698	0.16248	0.36146	-0.179
Mof_N 	N 	0.66248	0.75698	0.86146	-0.179
Mof_N 	N 	0.33752	0.24302	0.13854	-0.179
Mof_N 	N 	0.63075	0.81135	0.40505	-0.183
Mof_O 	O 	0.22896	0.29256	0.01512	-0.472
Mof_O 	O 	0.75885	0.59645	0.02685	-0.495
Mof_O 	O 	0.94452	0.37182	0.13014	-0.3
Mof_O 	O 	0.15303	0.15303	0.54091	-0.875
Mof_O 	O 	0.65535	0.56285	0.66065	-0.241
Mof_O 	O 	0.79622	0.51222	0.78184	-0.231
Mof_O 	O 	0.46336	0.22896	0.01512	-0.472
Mof_O 	O 	0.30139	0.39799	0.91213	-0.471
Mof_O 	O 	0.52104	0.09374	0.70358	-0.377
Mof_O 	O 	0.43619	0.17289	0.99253	-0.461
Mof_O 	O 	0.05309	0.61339	0.37943	-0.299
Mof_O 	O 	0.29622	0.40972	0.28184	-0.231
Mof_O 	O 	0.95346	0.87326	0.74882	-0.439
Mof_O 	O 	0.37326	0.45346	0.24882	-0.439
Mof_O 	O 	0.38477	0.66717	0.04869	-0.303
Mof_O 	O 	0.99522	0.17392	0.54134	-0.461
Mof_O 	O 	0.70402	0.79662	0.37064	-0.287
Mof_O 	O 	0.69355	0.85785	0.14265	-0.275
Mof_O 	O 	0.72896	0.96336	0.51512	-0.472
Mof_O 	O 	0.55309	0.45409	0.87943	-0.299
Mof_O 	O 	0.87182	0.44452	0.63014	-0.3
Mof_O 	O 	0.34465	0.43715	0.33935	-0.241
Mof_O 	O 	0.5807	0.6771	0.1302	-0.479
Mof_O 	O 	0.00478	0.82608	0.45866	-0.461
Mof_O 	O 	0.388	0.4193	0.8698	-0.479
Mof_O 	O 	0.05352	0.87182	0.63014	-0.3
Mof_O 	O 	0.20101	0.12671	0.37697	-0.269
Mof_O 	O 	0.06381	0.10161	0.50747	-0.461
Mof_O 	O 	0.56285	0.12115	0.66065	-0.241
Mof_O 	O 	0.87329	0.70469	0.62303	-0.269
Mof_O 	O 	0.80139	0.88849	0.41213	-0.471
Mof_O 	O 	0.38849	0.30139	0.91213	-0.471
Mof_O 	O 	0.34078	0.04798	0.92836	-0.284
Mof_O 	O 	0.90626	0.31836	0.29642	-0.377
Mof_O 	O 	0.62818	0.44648	0.86986	-0.3
Mof_O 	O 	0.88849	0.89799	0.41213	-0.471
Mof_O 	O 	0.63077	0.03327	0.70349	-0.444
Mof_O 	O 	0.32711	0.06381	0.50747	-0.461
Mof_O 	O 	0.63117	0.03407	0.50459	-0.384
Mof_O 	O 	0.2061	0.105	0.4946	-0.482
Mof_O 	O 	0.82711	0.60161	0.00747	-0.461
Mof_O 	O 	0.04591	0.94691	0.62057	-0.299
Mof_O 	O 	0.32256	0.48246	0.04602	-0.234
Mof_O 	O 	0.03327	0.63247	0.70349	-0.444
Mof_O 	O 	0.01222	0.29622	0.28184	-0.231
Mof_O 	O 	0.888	0.8229	0.3698	-0.479
Mof_O 	O 	0.74115	0.88215	0.47315	-0.495
Mof_O 	O 	0.64896	0.98246	0.54602	-0.234
Mof_O 	O 	0.18288	0.54798	0.42836	-0.284
Mof_O 	O 	0.79256	0.72896	0.51512	-0.472
Mof_O 	O 	0.12671	0.29531	0.37697	-0.269
Mof_O 	O 	0.17744	0.35104	0.45398	-0.234
Mof_O 	O 	0.17392	0.28952	0.54134	-0.461
Mof_O 	O 	0.63247	0.63077	0.70349	-0.444
Mof_O 	O 	0.59645	0.61785	0.02685	-0.495
Mof_O 	O 	0.68269	0.55039	0.05193	-0.494
Mof_O 	O 	0.78952	0.67392	0.04134	-0.461
Mof_O 	O 	0.50478	0.21048	0.95866	-0.461
Mof_O 	O 	0.35785	0.19355	0.64265	-0.275
Mof_O 	O 	0.7061	0.6943	0.9946	-0.482
Mof_O 	O 	0.12115	0.65535	0.66065	-0.241
Mof_O 	O 	0.11339	0.55309	0.87943	-0.299
Mof_O 	O 	0.67744	0.51754	0.95398	-0.234
Mof_O 	O 	0.98778	0.70378	0.71816	-0.231
Mof_O 	O 	0.605	0.7061	0.9946	-0.482
Mof_O 	O 	0.70432	0.78682	0.66884	-0.284
Mof_O 	O 	0.105	0.1943	0.4946	-0.482
Mof_O 	O 	0.62674	0.54654	0.75118	-0.439
Mof_O 	O 	0.59028	0.98778	0.71816	-0.231
Mof_O 	O 	0.79531	0.62671	0.87697	-0.269
Mof_O 	O 	0.54113	0.11143	0.27371	-0.234
Mof_O 	O 	0.15535	0.62115	0.16065	-0.241
Mof_O 	O 	0.0807	0.112	0.6302	-0.479
Mof_O 	O 	0.16983	0.36883	0.49541	-0.384
Mof_O 	O 	0.24115	0.40355	0.97315	-0.495
Mof_O 	O 	0.78501	0.94961	0.44807	-0.494
Mof_O 	O 	0.13247	0.53327	0.20349	-0.444
Mof_O 	O 	0.12872	0.70402	0.37064	-0.287
Mof_O 	O 	0.895	0.8057	0.5054	-0.482
Mof_O 	O 	0.32608	0.50478	0.95866	-0.461
Mof_O 	O 	0.3057	0.395	0.0054	-0.482
Mof_O 	O 	0.36923	0.96673	0.29651	-0.444
Mof_O 	O 	0.25885	0.11785	0.52685	-0.495
Mof_O 	O 	0.62872	0.29662	0.87064	-0.287
Mof_O 	O 	0.96336	0.79256	0.51512	-0.472
Mof_O 	O 	0.8057	0.7939	0.5054	-0.482
Mof_O 	O 	0.09028	0.20378	0.21816	-0.231
Mof_O 	O 	0.85104	0.67744	0.95398	-0.234
Mof_O 	O 	0.13077	0.13247	0.20349	-0.444
Mof_O 	O 	0.13117	0.33017	0.00459	-0.384
Mof_O 	O 	0.37885	0.93715	0.83935	-0.241
Mof_O 	O 	0.14896	0.32256	0.04602	-0.234
Mof_O 	O 	0.55039	0.71499	0.05193	-0.494
Mof_O 	O 	0.53327	0.13077	0.20349	-0.444
Mof_O 	O 	0.68164	0.52104	0.70358	-0.377
Mof_O 	O 	0.69861	0.60201	0.08787	-0.471
Mof_O 	O 	0.07554	0.62674	0.75118	-0.439
Mof_O 	O 	0.71048	0.00478	0.45866	-0.461
Mof_O 	O 	0.54798	0.84078	0.42836	-0.284
Mof_O 	O 	0.42627	0.38857	0.22629	-0.234
Mof_O 	O 	0.28682	0.20432	0.16884	-0.284
Mof_O 	O 	0.89937	0.38477	0.04869	-0.303
Mof_O 	O 	0.90355	0.74115	0.47315	-0.495
Mof_O 	O 	0.94961	0.81731	0.44807	-0.494
Mof_O 	O 	0.6771	0.612	0.1302	-0.479
Mof_O 	O 	0.64215	0.80645	0.35735	-0.275
Mof_O 	O 	0.82608	0.71048	0.45866	-0.461
Mof_O 	O 	0.04113	0.57373	0.77371	-0.234
Mof_O 	O 	0.03664	0.20744	0.48488	-0.472
Mof_O 	O 	0.20338	0.87128	0.62936	-0.287
Mof_O 	O 	0.44691	0.54591	0.12057	-0.299
Mof_O 	O 	0.87885	0.34465	0.33935	-0.241
Mof_O 	O 	0.27104	0.03664	0.48488	-0.472
Mof_O 	O 	0.21048	0.32608	0.95866	-0.461
Mof_O 	O 	0.69405	0.30645	0.85735	-0.275
Mof_O 	O 	0.29598	0.20338	0.62936	-0.287
Mof_O 	O 	0.04654	0.12674	0.25118	-0.439
Mof_O 	O 	0.18164	0.59374	0.20358	-0.377
Mof_O 	O 	0.395	0.2939	0.0054	-0.482
Mof_O 	O 	0.40355	0.38215	0.97315	-0.495
Mof_O 	O 	0.57554	0.04654	0.25118	-0.439
Mof_O 	O 	0.45346	0.92446	0.24882	-0.439
Mof_O 	O 	0.86923	0.86753	0.79651	-0.444
Mof_O 	O 	0.61143	0.04113	0.77371	-0.234
Mof_O 	O 	0.30595	0.69355	0.14265	-0.275
Mof_O 	O 	0.20432	0.34002	0.16884	-0.284
Mof_O 	O 	0.14215	0.69405	0.85735	-0.275
Mof_O 	O 	0.29568	0.21318	0.33116	-0.284
Mof_O 	O 	0.79899	0.87329	0.62303	-0.269
Mof_O 	O 	0.39799	0.38849	0.91213	-0.471
Mof_O 	O 	0.20378	0.48778	0.21816	-0.231
Mof_O 	O 	0.97896	0.81836	0.79642	-0.377
Mof_O 	O 	0.6943	0.605	0.9946	-0.482
Mof_O 	O 	0.40626	0.97896	0.79642	-0.377
Mof_O 	O 	0.79598	0.37128	0.12936	-0.287
Mof_O 	O 	0.8229	0.9193	0.3698	-0.479
Mof_O 	O 	0.84002	0.70432	0.66884	-0.284
Mof_O 	O 	0.45409	0.11339	0.87943	-0.299
Mof_O 	O 	0.38215	0.24115	0.97315	-0.495
Mof_O 	O 	0.84465	0.37885	0.83935	-0.241
Mof_O 	O 	0.98246	0.82256	0.54602	-0.234
Mof_O 	O 	0.29256	0.46336	0.01512	-0.472
Mof_O 	O 	0.31712	0.65922	0.07164	-0.284
Mof_O 	O 	0.9193	0.888	0.3698	-0.479
Mof_O 	O 	0.10201	0.19861	0.58787	-0.471
Mof_O 	O 	0.33283	0.10063	0.95131	-0.303
Mof_O 	O 	0.36883	0.96593	0.49541	-0.384
Mof_O 	O 	0.78682	0.84002	0.66884	-0.284
Mof_O 	O 	0.44648	0.05548	0.86986	-0.3
Mof_O 	O 	0.05039	0.18269	0.55193	-0.494
Mof_O 	O 	0.37128	0.70338	0.12936	-0.287
Mof_O 	O 	0.44452	0.05352	0.63014	-0.3
Mof_O 	O 	0.47896	0.90626	0.29642	-0.377
Mof_O 	O 	0.70101	0.79531	0.87697	-0.269
Mof_O 	O 	0.51222	0.90972	0.78184	-0.231
Mof_O 	O 	0.10063	0.61523	0.95131	-0.303
Mof_O 	O 	0.53407	0.13117	0.00459	-0.384
Mof_O 	O 	0.36753	0.36923	0.29651	-0.444
Mof_O 	O 	0.81836	0.40626	0.79642	-0.377
Mof_O 	O 	0.95202	0.31712	0.07164	-0.284
Mof_O 	O 	0.39839	0.43619	0.99253	-0.461
Mof_O 	O 	0.70338	0.79598	0.12936	-0.287
Mof_O 	O 	0.4193	0.3229	0.8698	-0.479
Mof_O 	O 	0.34002	0.28682	0.16884	-0.284
Mof_O 	O 	0.09374	0.68164	0.70358	-0.377
Mof_O 	O 	0.56381	0.82711	0.00747	-0.461
Mof_O 	O 	0.03407	0.83017	0.50459	-0.384
Mof_O 	O 	0.61339	0.95409	0.37943	-0.299
Mof_O 	O 	0.12674	0.57554	0.25118	-0.439
Mof_O 	O 	0.19861	0.11151	0.58787	-0.471
Mof_O 	O 	0.18269	0.21499	0.55193	-0.494
Mof_O 	O 	0.04798	0.68288	0.92836	-0.284
Mof_O 	O 	0.68288	0.34078	0.92836	-0.284
Mof_O 	O 	0.71499	0.68269	0.05193	-0.494
Mof_O 	O 	0.31836	0.47896	0.29642	-0.377
Mof_O 	O 	0.48246	0.14896	0.04602	-0.234
Mof_O 	O 	0.11523	0.60063	0.45131	-0.303
Mof_O 	O 	0.66983	0.46593	0.99541	-0.384
Mof_O 	O 	0.55352	0.94452	0.13014	-0.3
Mof_O 	O 	0.95409	0.05309	0.37943	-0.299
Mof_O 	O 	0.28952	0.99522	0.54134	-0.461
Mof_O 	O 	0.61151	0.69861	0.08787	-0.471
Mof_O 	O 	0.35104	0.01754	0.45398	-0.234
Mof_O 	O 	0.01754	0.17744	0.45398	-0.234
Mof_O 	O 	0.81731	0.78501	0.44807	-0.494
Mof_O 	O 	0.29531	0.20101	0.37697	-0.269
Mof_O 	O 	0.37182	0.55352	0.13014	-0.3
Mof_O 	O 	0.60063	0.83283	0.45131	-0.303
Mof_O 	O 	0.88857	0.92627	0.72629	-0.234
Mof_O 	O 	0.31731	0.44961	0.94807	-0.494
Mof_O 	O 	0.54591	0.88661	0.12057	-0.299
Mof_O 	O 	0.612	0.5807	0.1302	-0.479
Mof_O 	O 	0.33017	0.53407	0.00459	-0.384
Mof_O 	O 	0.96673	0.36753	0.29651	-0.444
Mof_O 	O 	0.10161	0.32711	0.50747	-0.461
Mof_O 	O 	0.45887	0.88857	0.72629	-0.234
Mof_O 	O 	0.30645	0.14215	0.85735	-0.275
Mof_O 	O 	0.57373	0.61143	0.77371	-0.234
Mof_O 	O 	0.65998	0.71318	0.83116	-0.284
Mof_O 	O 	0.15922	0.81712	0.57164	-0.284
Mof_O 	O 	0.17289	0.39839	0.99253	-0.461
Mof_O 	O 	0.53664	0.77104	0.98488	-0.472
Mof_O 	O 	0.62671	0.70101	0.87697	-0.269
Mof_O 	O 	0.95887	0.42627	0.22629	-0.234
Mof_O 	O 	0.60161	0.56381	0.00747	-0.461
Mof_O 	O 	0.51754	0.85104	0.95398	-0.234
Mof_O 	O 	0.21499	0.05039	0.55193	-0.494
Mof_O 	O 	0.112	0.1771	0.6302	-0.479
Mof_O 	O 	0.81712	0.45202	0.57164	-0.284
Mof_O 	O 	0.84078	0.18288	0.42836	-0.284
Mof_O 	O 	0.86753	0.46673	0.79651	-0.444
Mof_O 	O 	0.19355	0.80595	0.64265	-0.275
Mof_O 	O 	0.89839	0.67289	0.49253	-0.461
Mof_O 	O 	0.20402	0.62872	0.87064	-0.287
Mof_O 	O 	0.38661	0.04591	0.62057	-0.299
Mof_O 	O 	0.67289	0.93619	0.49253	-0.461
Mof_O 	O 	0.84697	0.84697	0.45909	-0.875
Mof_O 	O 	0.66717	0.89937	0.04869	-0.303
Mof_O 	O 	0.38857	0.95887	0.22629	-0.234
Mof_O 	O 	0.83283	0.11523	0.45131	-0.303
Mof_O 	O 	0.87128	0.29598	0.62936	-0.287
Mof_O 	O 	0.79662	0.12872	0.37064	-0.287
Mof_O 	O 	0.62115	0.06285	0.16065	-0.241
Mof_O 	O 	0.89799	0.80139	0.41213	-0.471
Mof_O 	O 	0.94648	0.12818	0.36986	-0.3
Mof_O 	O 	0.61523	0.33283	0.95131	-0.303
Mof_O 	O 	0.02104	0.18164	0.20358	-0.377
Mof_O 	O 	0.45202	0.15922	0.57164	-0.284
Mof_O 	O 	0.92627	0.45887	0.72629	-0.234
Mof_O 	O 	0.88215	0.90355	0.47315	-0.495
Mof_O 	O 	0.2939	0.3057	0.0054	-0.482
Mof_O 	O 	0.65922	0.95202	0.07164	-0.284
Mof_O 	O 	0.59374	0.02104	0.20358	-0.377
Mof_O 	O 	0.86883	0.66983	0.99541	-0.384
Mof_O 	O 	0.93619	0.89839	0.49253	-0.461
Mof_O 	O 	0.43715	0.87885	0.33935	-0.241
Mof_O 	O 	0.61785	0.75885	0.02685	-0.495
Mof_O 	O 	0.42446	0.95346	0.74882	-0.439
Mof_O 	O 	0.87326	0.42446	0.74882	-0.439
Mof_O 	O 	0.29899	0.20469	0.12303	-0.269
Mof_O 	O 	0.7939	0.895	0.5054	-0.482
Mof_O 	O 	0.71318	0.79568	0.83116	-0.284
Mof_O 	O 	0.12818	0.55548	0.36986	-0.3
Mof_O 	O 	0.11151	0.10201	0.58787	-0.471
Mof_O 	O 	0.55548	0.94648	0.36986	-0.3
Mof_O 	O 	0.11785	0.09645	0.52685	-0.495
Mof_O 	O 	0.83017	0.63117	0.50459	-0.384
Mof_O 	O 	0.3229	0.388	0.8698	-0.479
Mof_O 	O 	0.70378	0.59028	0.71816	-0.231
Mof_O 	O 	0.46673	0.86923	0.79651	-0.444
Mof_O 	O 	0.49522	0.78952	0.04134	-0.461
Mof_O 	O 	0.11143	0.07373	0.27371	-0.234
Mof_O 	O 	0.93715	0.84465	0.83935	-0.241
Mof_O 	O 	0.1943	0.2061	0.4946	-0.482
Mof_O 	O 	0.65303	0.65303	0.04091	-0.875
Mof_O 	O 	0.28501	0.31731	0.94807	-0.494
Mof_O 	O 	0.40972	0.01222	0.28184	-0.231
Mof_O 	O 	0.39937	0.16717	0.54869	-0.303
Mof_O 	O 	0.07373	0.54113	0.27371	-0.234
Mof_O 	O 	0.44961	0.28501	0.94807	-0.494
Mof_O 	O 	0.20469	0.37329	0.12303	-0.269
Mof_O 	O 	0.77104	0.70744	0.98488	-0.472
Mof_O 	O 	0.92446	0.37326	0.24882	-0.439
Mof_O 	O 	0.06285	0.15535	0.16065	-0.241
Mof_O 	O 	0.34697	0.34697	0.95909	-0.875
Mof_O 	O 	0.60201	0.61151	0.08787	-0.471
Mof_O 	O 	0.48778	0.09028	0.21816	-0.231
Mof_O 	O 	0.79568	0.65998	0.83116	-0.284
Mof_O 	O 	0.70744	0.53664	0.98488	-0.472
Mof_O 	O 	0.54654	0.07554	0.75118	-0.439
Mof_O 	O 	0.21318	0.15998	0.33116	-0.284
Mof_O 	O 	0.05548	0.62818	0.86986	-0.3
Mof_O 	O 	0.29662	0.20402	0.87064	-0.287
Mof_O 	O 	0.16717	0.88477	0.54869	-0.303
Mof_O 	O 	0.80645	0.19405	0.35735	-0.275
Mof_O 	O 	0.88477	0.39937	0.54869	-0.303
Mof_O 	O 	0.37329	0.29899	0.12303	-0.269
Mof_O 	O 	0.19405	0.64215	0.35735	-0.275
Mof_O 	O 	0.80595	0.35785	0.64265	-0.275
Mof_O 	O 	0.70469	0.79899	0.62303	-0.269
Mof_O 	O 	0.90972	0.79622	0.78184	-0.231
Mof_O 	O 	0.82256	0.64896	0.54602	-0.234
Mof_O 	O 	0.15998	0.29568	0.33116	-0.284
Mof_O 	O 	0.09645	0.25885	0.52685	-0.495
Mof_O 	O 	0.20744	0.27104	0.48488	-0.472
Mof_O 	O 	0.67392	0.49522	0.04134	-0.461
Mof_O 	O 	0.85785	0.30595	0.14265	-0.275
Mof_O 	O 	0.1771	0.0807	0.6302	-0.479
Mof_O 	O 	0.88661	0.44691	0.12057	-0.299
Mof_O 	O 	0.96593	0.16983	0.49541	-0.384
Mof_O 	O 	0.94691	0.38661	0.62057	-0.299
Mof_O 	O 	0.46593	0.86883	0.99541	-0.384
_end
