data_functionalizedCrystal
_audit_creation_method	'EQeq! by Chris Wilmer'
_symmetry_space_group_name_H-M	'P1'
_symmetry_Int_Tables_number	1
_symmetry_cell_setting	triclinic
loop_
_symmetry_equiv_pos_as_xyz
  x,y,z
_cell_length_a	10.013
_cell_length_b	10.607
_cell_length_c	10.993
_cell_angle_alpha	80.746
_cell_angle_beta	72.107
_cell_angle_gamma	74.537
loop_
_atom_site_label
_atom_site_type_symbol
_atom_site_fract_x
_atom_site_fract_y
_atom_site_fract_z
_atom_site_charge
Mof_Ho	Ho	0.82633	0.30692	0.46628	1.745
Mof_Zn	Zn	0.70883	0.13228	0.88229	1.191
Mof_N 	N 	0.8698	0.197	0.9249	-0.238
Mof_N 	N 	0.5217	0.297	0.9282	-0.226
Mof_C 	C 	0.7732	0.0774	0.1271	0.292
Mof_C 	C 	0.8882	0.1487	0.042	0.015
Mof_C 	C 	0.0062	0.1619	0.0775	-0.137
Mof_C 	C 	0.1083	0.2228	0.9877	0.051
Mof_H 	H 	0.192	0.229	0.008	0.009
Mof_C 	C 	0.0874	0.2723	0.8685	-0.121
Mof_H 	H 	0.154	0.314	0.801	0.09
Mof_C 	C 	0.9662	0.2585	0.8404	0.088
Mof_H 	H 	0.954	0.287	0.763	-0.017
Mof_C 	C 	0.0272	0.1171	0.2107	0.457
Mof_C 	C 	0.5972	0.331	0.6971	0.29
Mof_C 	C 	0.4852	0.3644	0.8233	-0.015
Mof_C 	C 	0.3594	0.4632	0.8313	-0.056
Mof_C 	C 	0.2717	0.4951	0.9537	0.006
Mof_H 	H 	0.192	0.571	0.962	0.04
Mof_C 	C 	0.3115	0.4285	0.0622	-0.087
Mof_H 	H 	0.253	0.451	0.15	0.078
Mof_C 	C 	0.437	0.3285	0.045	0.052
Mof_H 	H 	0.462	0.285	0.114	0.013
Mof_C 	C 	0.3114	0.5383	0.7157	0.316
Mof_C 	C 	0.0592	0.4791	0.4373	0.251
Mof_O 	O 	0.6832	0.0617	0.0745	-0.43
Mof_O 	O 	0.7779	0.0362	0.239	-0.255
Mof_O 	O 	0.9696	0.2009	0.2911	-0.506
Mof_O 	O 	0.1057	0.0068	0.2305	-0.469
Mof_O 	O 	0.711	0.2414	0.7011	-0.545
Mof_O 	O 	0.5805	0.3946	0.5952	-0.37
Mof_O 	O 	0.329	0.6539	0.684	-0.362
Mof_O 	O 	0.2437	0.4892	0.6632	-0.378
Mof_O 	O 	0.0426	0.3934	0.3811	-0.383
Mof_O 	O 	0.162	0.5363	0.403	-0.387
Mof_Ho	Ho	0.17367	0.69308	0.53373	1.744
Mof_Zn	Zn	0.29117	0.86772	0.11771	1.19
Mof_N 	N 	0.1302	0.803	0.0751	-0.239
Mof_N 	N 	0.4783	0.703	0.0718	-0.227
Mof_C 	C 	0.2268	0.9226	0.8729	0.292
Mof_C 	C 	0.1118	0.8513	0.958	0.015
Mof_C 	C 	0.9938	0.8381	0.9225	-0.137
Mof_C 	C 	0.8917	0.7772	0.0123	0.051
Mof_H 	H 	0.808	0.771	0.992	0.009
Mof_C 	C 	0.9126	0.7277	0.1315	-0.121
Mof_H 	H 	0.846	0.686	0.199	0.09
Mof_C 	C 	0.0338	0.7415	0.1596	0.088
Mof_H 	H 	0.046	0.713	0.237	-0.017
Mof_C 	C 	0.9728	0.8829	0.7893	0.457
Mof_C 	C 	0.4028	0.669	0.3029	0.29
Mof_C 	C 	0.5148	0.6356	0.1767	-0.015
Mof_C 	C 	0.6406	0.5368	0.1687	-0.056
Mof_C 	C 	0.7283	0.5049	0.0463	0.006
Mof_H 	H 	0.808	0.429	0.038	0.04
Mof_C 	C 	0.6885	0.5715	0.9378	-0.087
Mof_H 	H 	0.747	0.549	0.85	0.078
Mof_C 	C 	0.563	0.6715	0.955	0.052
Mof_H 	H 	0.538	0.715	0.886	0.013
Mof_C 	C 	0.6886	0.4617	0.2843	0.316
Mof_C 	C 	0.9408	0.5209	0.5627	0.251
Mof_O 	O 	0.3168	0.9383	0.9255	-0.43
Mof_O 	O 	0.2221	0.9638	0.761	-0.255
Mof_O 	O 	0.0304	0.7991	0.7089	-0.506
Mof_O 	O 	0.8943	0.9932	0.7695	-0.469
Mof_O 	O 	0.289	0.7586	0.2989	-0.545
Mof_O 	O 	0.4195	0.6054	0.4048	-0.37
Mof_O 	O 	0.671	0.3461	0.316	-0.362
Mof_O 	O 	0.7563	0.5108	0.3368	-0.378
Mof_O 	O 	0.9574	0.6066	0.6189	-0.383
Mof_O 	O 	0.838	0.4637	0.597	-0.387
_end
