data_functionalizedCrystal
_audit_creation_method	'EQeq! by Chris Wilmer'
_symmetry_space_group_name_H-M	'P1'
_symmetry_Int_Tables_number	1
_symmetry_cell_setting	triclinic
loop_
_symmetry_equiv_pos_as_xyz
  x,y,z
_cell_length_a	11.0552
_cell_length_b	11.0713
_cell_length_c	17.6488
_cell_angle_alpha	93.084
_cell_angle_beta	104.429
_cell_angle_gamma	119.032
loop_
_atom_site_label
_atom_site_type_symbol
_atom_site_fract_x
_atom_site_fract_y
_atom_site_fract_z
_atom_site_charge
Mof_Eu	Eu	0.32056	0.39764	0.37876	2.334
Mof_Eu	Eu	0.00114	0.10577	0.09493	2.32
Mof_Eu	Eu	0.67944	0.60236	0.62124	2.334
Mof_Eu	Eu	0.99886	0.89423	0.90507	2.32
Mof_H 	H 	0.332	0.9245	0.2336	0.032
Mof_H 	H 	0.3658	0.7366	0.2638	0.028
Mof_H 	H 	0.0094	0.4684	0.075	0.004
Mof_H 	H 	0.9808	0.6576	0.0419	0.011
Mof_H 	H 	0.4026	0.3249	0.7054	0.034
Mof_H 	H 	0.2816	0.1454	0.7691	0.03
Mof_H 	H 	0.9065	0.9798	0.5836	0.025
Mof_H 	H 	0.0279	0.1568	0.5169	0.041
Mof_H 	H 	0.6541	0.1808	0.6128	0.032
Mof_H 	H 	0.3424	0.0261	0.397	0.03
Mof_H 	H 	0.5457	0.5432	0.8777	0.032
Mof_H 	H 	0.6489	0.671	0.1164	0.034
Mof_H 	H 	0.668	0.0755	0.7664	0.032
Mof_H 	H 	0.6342	0.2634	0.7362	0.028
Mof_H 	H 	0.9906	0.5316	0.925	0.004
Mof_H 	H 	0.0192	0.3424	0.9581	0.011
Mof_H 	H 	0.5974	0.6751	0.2946	0.034
Mof_H 	H 	0.7184	0.8546	0.2309	0.03
Mof_H 	H 	0.0935	0.0202	0.4164	0.025
Mof_H 	H 	0.9721	0.8432	0.4831	0.041
Mof_H 	H 	0.3459	0.8192	0.3872	0.032
Mof_H 	H 	0.6576	0.9739	0.603	0.03
Mof_H 	H 	0.4543	0.4568	0.1223	0.032
Mof_H 	H 	0.3511	0.329	0.8836	0.034
Mof_C 	C 	0.1171	0.9201	0.1186	0.437
Mof_C 	C 	0.1512	0.8075	0.136	-0.126
Mof_C 	C 	0.2671	0.8324	0.2013	-0.019
Mof_C 	C 	0.2873	0.7207	0.2191	0.002
Mof_C 	C 	0.1915	0.5847	0.1709	-0.157
Mof_C 	C 	0.076	0.5609	0.1065	0.01
Mof_C 	C 	0.0575	0.673	0.0877	-0.023
Mof_C 	C 	0.2046	0.4629	0.1968	0.503
Mof_C 	C 	0.3012	0.3742	0.5608	0.484
Mof_C 	C 	0.2269	0.2609	0.6068	-0.114
Mof_C 	C 	0.3025	0.2558	0.6807	-0.017
Mof_C 	C 	0.2302	0.1488	0.7181	0.006
Mof_C 	C 	0.0829	0.045	0.6826	-0.148
Mof_C 	C 	0.0068	0.0491	0.6078	0.015
Mof_C 	C 	0.0782	0.1551	0.5687	-0.026
Mof_C 	C 	0.0075	0.9254	0.7219	0.501
Mof_C 	C 	0.5034	0.266	0.5106	0.495
Mof_C 	C 	0.5009	0.1279	0.5044	-0.131
Mof_C 	C 	0.5919	0.108	0.5665	-0.005
Mof_C 	C 	0.4078	0.0162	0.439	-0.006
Mof_C 	C 	0.737	0.7702	0.995	0.46
Mof_C 	C 	0.615	0.6286	0.9979	-0.127
Mof_C 	C 	0.5271	0.526	0.927	-0.011
Mof_C 	C 	0.5874	0.6009	0.0689	-0.007
Mof_C 	C 	0.8829	0.0799	0.8814	0.437
Mof_C 	C 	0.8488	0.1925	0.864	-0.126
Mof_C 	C 	0.7329	0.1676	0.7987	-0.019
Mof_C 	C 	0.7127	0.2793	0.7809	0.002
Mof_C 	C 	0.8085	0.4153	0.8291	-0.157
Mof_C 	C 	0.924	0.4391	0.8935	0.01
Mof_C 	C 	0.9425	0.327	0.9123	-0.023
Mof_C 	C 	0.7954	0.5371	0.8032	0.503
Mof_C 	C 	0.6988	0.6258	0.4392	0.484
Mof_C 	C 	0.7731	0.7391	0.3932	-0.114
Mof_C 	C 	0.6975	0.7442	0.3193	-0.017
Mof_C 	C 	0.7698	0.8512	0.2819	0.006
Mof_C 	C 	0.9171	0.955	0.3174	-0.148
Mof_C 	C 	0.9932	0.9509	0.3922	0.015
Mof_C 	C 	0.9218	0.8449	0.4313	-0.026
Mof_C 	C 	0.9925	0.0746	0.2781	0.501
Mof_C 	C 	0.4966	0.734	0.4894	0.495
Mof_C 	C 	0.4991	0.8721	0.4956	-0.131
Mof_C 	C 	0.4081	0.892	0.4335	-0.005
Mof_C 	C 	0.5922	0.9838	0.561	-0.006
Mof_C 	C 	0.263	0.2298	0.005	0.46
Mof_C 	C 	0.385	0.3714	0.0021	-0.127
Mof_C 	C 	0.4729	0.474	0.073	-0.011
Mof_C 	C 	0.4126	0.3991	0.9311	-0.007
Mof_O 	O 	0.1443	0.0118	0.1748	-0.505
Mof_O 	O 	0.0557	0.917	0.0466	-0.677
Mof_O 	O 	0.3056	0.488	0.2582	-0.583
Mof_O 	O 	0.1098	0.3404	0.1534	-0.62
Mof_O 	O 	0.2283	0.3644	0.4903	-0.552
Mof_O 	O 	0.4295	0.4709	0.5983	-0.602
Mof_O 	O 	0.879	0.8273	0.6824	-0.616
Mof_O 	O 	0.0783	0.9303	0.7928	-0.578
Mof_O 	O 	0.4051	0.2682	0.4553	-0.571
Mof_O 	O 	0.6044	0.3659	0.5658	-0.57
Mof_O 	O 	0.7909	0.8731	0.054	-0.545
Mof_O 	O 	0.7786	0.7774	0.9344	-0.564
Mof_O 	O 	0.8557	0.9882	0.8252	-0.505
Mof_O 	O 	0.9443	0.083	0.9534	-0.677
Mof_O 	O 	0.6944	0.512	0.7418	-0.583
Mof_O 	O 	0.8902	0.6596	0.8466	-0.62
Mof_O 	O 	0.7717	0.6356	0.5097	-0.552
Mof_O 	O 	0.5705	0.5291	0.4017	-0.602
Mof_O 	O 	0.121	0.1727	0.3176	-0.616
Mof_O 	O 	0.9217	0.0697	0.2072	-0.578
Mof_O 	O 	0.5949	0.7318	0.5447	-0.571
Mof_O 	O 	0.3956	0.6341	0.4342	-0.57
Mof_O 	O 	0.2091	0.1269	0.946	-0.545
Mof_O 	O 	0.2214	0.2226	0.0656	-0.564
_end
