data_functionalizedCrystal
_audit_creation_method	'EQeq! by Chris Wilmer'
_symmetry_space_group_name_H-M	'P1'
_symmetry_Int_Tables_number	1
_symmetry_cell_setting	triclinic
loop_
_symmetry_equiv_pos_as_xyz
  x,y,z
_cell_length_a	14.2036
_cell_length_b	14.4601
_cell_length_c	18.0724
_cell_angle_alpha	69.2346
_cell_angle_beta	66.8609
_cell_angle_gamma	60.5851
loop_
_atom_site_label
_atom_site_type_symbol
_atom_site_fract_x
_atom_site_fract_y
_atom_site_fract_z
_atom_site_charge
Mof_Zn	Zn	0.75808	0.00816	0.63508	1.194
Mof_Zn	Zn	0.37877	0.20428	0.4235	1.224
Mof_Zn	Zn	0.18983	0.58403	0.59473	1.128
Mof_Zn	Zn	0.40132	0.49184	0.86492	1.207
Mof_Zn	Zn	0.00655	0.29572	0.0765	1.218
Mof_Zn	Zn	0.36859	0.91597	0.90527	1.135
Mof_Zn	Zn	0.24192	0.99184	0.36492	1.215
Mof_Zn	Zn	0.62123	0.79572	0.5765	1.227
Mof_Zn	Zn	0.81017	0.41597	0.40527	1.129
Mof_Zn	Zn	0.59868	0.50816	0.13508	1.204
Mof_Zn	Zn	0.99345	0.70428	0.9235	1.231
Mof_Zn	Zn	0.63141	0.08403	0.09473	1.121
Mof_Zn	Zn	0.5	0.5	0.5	1.165
Mof_Zn	Zn	0.5	0	-0	1.147
Mof_H 	H 	0.5126	0.3089	0.4375	-0.029
Mof_H 	H 	0.5338	0.4617	0.6805	-0.026
Mof_H 	H 	0.2127	0.5639	0.7775	-0.028
Mof_H 	H 	0.8722	0.1631	0.5077	-0.04
Mof_H 	H 	0.8084	0.5969	0.4779	-0.051
Mof_H 	H 	0.74	0.1526	0.2548	0.012
Mof_H 	H 	0.9227	0.9657	0.4593	0.062
Mof_H 	H 	0.5539	0.2462	0.6138	-0.049
Mof_H 	H 	0.259	0.1911	0.0625	-0.034
Mof_H 	H 	0.676	0.0383	0.8195	-0.01
Mof_H 	H 	0.5541	0.9361	0.7225	-0.027
Mof_H 	H 	0.543	0.3369	0.9923	-0.04
Mof_H 	H 	0.8832	0.9031	0.0221	-0.042
Mof_H 	H 	0.1474	0.3474	0.2452	0.024
Mof_H 	H 	0.3477	0.5343	0.0407	-0.004
Mof_H 	H 	0.4139	0.2538	0.8862	-0.045
Mof_H 	H 	0.4874	0.6911	0.5625	-0.028
Mof_H 	H 	0.4662	0.5383	0.3195	-0.025
Mof_H 	H 	0.7873	0.4361	0.2225	-0.03
Mof_H 	H 	0.1278	0.8369	0.4923	-0.034
Mof_H 	H 	0.1916	0.4031	0.5221	-0.052
Mof_H 	H 	0.26	0.8474	0.7452	0.026
Mof_H 	H 	0.0773	0.0343	0.5407	-0.025
Mof_H 	H 	0.4461	0.7538	0.3862	-0.043
Mof_H 	H 	0.741	0.8089	0.9375	-0.024
Mof_H 	H 	0.324	0.9617	0.1805	-0.042
Mof_H 	H 	0.4459	0.0639	0.2775	-0.031
Mof_H 	H 	0.457	0.6631	0.0077	-0.035
Mof_H 	H 	0.1168	0.0969	0.9779	-0.061
Mof_H 	H 	0.8526	0.6526	0.7548	0.015
Mof_H 	H 	0.6523	0.4657	0.9593	0.038
Mof_H 	H 	0.5861	0.7462	0.1138	-0.046
Mof_C 	C 	0.4378	0.3468	0.4632	0.104
Mof_C 	C 	0.6134	0.0708	0.3776	0.343
Mof_C 	C 	0.783	0.0035	0.4301	-0.109
Mof_C 	C 	0.0553	0.0366	0.3286	0.258
Mof_C 	C 	0.4572	0.4873	0.6875	0.098
Mof_C 	C 	0.2831	0.5427	0.7403	0.096
Mof_C 	C 	0.7951	0.2034	0.5232	0.095
Mof_C 	C 	0.9373	0.0543	0.3435	-0.027
Mof_C 	C 	0.7357	0.6026	0.491	0.115
Mof_C 	C 	0.7362	0.9359	0.5051	0.428
Mof_C 	C 	0.9233	0.1743	0.1991	0.34
Mof_C 	C 	0.7781	0.1132	0.2954	0.006
Mof_C 	C 	0.8811	0.1106	0.2808	-0.085
Mof_C 	C 	0.8866	0.002	0.4176	-0.062
Mof_C 	C 	0.6221	0.249	0.5806	0.109
Mof_C 	C 	0.7278	0.0598	0.368	-0.06
Mof_C 	C 	0.2478	0.1532	0.0368	0.095
Mof_C 	C 	0.0618	0.4292	0.1224	0.33
Mof_C 	C 	0.2166	0.4965	0.0699	-0.168
Mof_C 	C 	0.4205	0.4634	0.1714	0.319
Mof_C 	C 	0.632	0.0127	0.8125	0.041
Mof_C 	C 	0.5661	0.9573	0.7597	0.102
Mof_C 	C 	0.5217	0.2966	0.9768	0.133
Mof_C 	C 	0.3351	0.4457	0.1565	-0.082
Mof_C 	C 	0.8293	0.8974	0.009	0.087
Mof_C 	C 	0.1772	0.5641	0.9949	0.491
Mof_C 	C 	0.2967	0.3257	0.3009	0.328
Mof_C 	C 	0.1867	0.3868	0.2046	-0.027
Mof_C 	C 	0.2725	0.3894	0.2192	-0.05
Mof_C 	C 	0.3062	0.498	0.0824	0.037
Mof_C 	C 	0.4517	0.251	0.9194	0.114
Mof_C 	C 	0.1556	0.4402	0.132	-0.025
Mof_C 	C 	0.5622	0.6532	0.5368	0.106
Mof_C 	C 	0.3866	0.9292	0.6224	0.343
Mof_C 	C 	0.217	0.9965	0.5699	-0.108
Mof_C 	C 	0.9447	0.9634	0.6714	0.359
Mof_C 	C 	0.5428	0.5127	0.3125	0.099
Mof_C 	C 	0.7169	0.4573	0.2597	0.096
Mof_C 	C 	0.2049	0.7966	0.4768	0.097
Mof_C 	C 	0.0627	0.9457	0.6565	-0.095
Mof_C 	C 	0.2643	0.3974	0.509	0.114
Mof_C 	C 	0.2638	0.0641	0.4949	0.392
Mof_C 	C 	0.0767	0.8257	0.8009	0.326
Mof_C 	C 	0.2219	0.8868	0.7046	-0.022
Mof_C 	C 	0.1189	0.8894	0.7192	-0.041
Mof_C 	C 	0.1134	0.998	0.5824	0.072
Mof_C 	C 	0.3779	0.751	0.4194	0.11
Mof_C 	C 	0.2722	0.9402	0.632	-0.037
Mof_C 	C 	0.7522	0.8468	0.9632	0.113
Mof_C 	C 	0.9382	0.5708	0.8776	0.35
Mof_C 	C 	0.7834	0.5035	0.9301	-0.055
Mof_C 	C 	0.5795	0.5366	0.8286	0.306
Mof_C 	C 	0.368	0.9873	0.1875	0.166
Mof_C 	C 	0.4339	0.0427	0.2403	0.089
Mof_C 	C 	0.4783	0.7034	0.0232	0.065
Mof_C 	C 	0.6649	0.5543	0.8435	-0.045
Mof_C 	C 	0.1707	0.1026	0.991	0.151
Mof_C 	C 	0.8228	0.4359	0.0051	0.335
Mof_C 	C 	0.7033	0.6743	0.6991	0.337
Mof_C 	C 	0.8133	0.6132	0.7954	0.008
Mof_C 	C 	0.7275	0.6106	0.7808	-0.073
Mof_C 	C 	0.6938	0.502	0.9176	-0.022
Mof_C 	C 	0.5483	0.749	0.0806	0.106
Mof_C 	C 	0.8444	0.5598	0.868	-0.068
Mof_N 	N 	0.4141	0.5047	0.6293	-0.233
Mof_N 	N 	0.30041	0.54058	0.6634	-0.252
Mof_N 	N 	0.71041	0.53918	0.4718	-0.264
Mof_N 	N 	0.3541	0.3248	0.469	-0.273
Mof_N 	N 	0.7215	0.1619	0.5781	-0.294
Mof_N 	N 	0.3792	0.5103	0.7585	-0.289
Mof_N 	N 	0.745	0.3077	0.4941	-0.256
Mof_N 	N 	0.40273	0.42804	0.4979	-0.241
Mof_N 	N 	0.6313	0.3376	0.5318	-0.229
Mof_N 	N 	0.5481	0.9953	0.8707	-0.203
Mof_N 	N 	0.50439	0.95942	0.8366	-0.246
Mof_N 	N 	0.72139	0.96082	0.0282	-0.261
Mof_N 	N 	0.1479	0.1752	0.031	-0.295
Mof_N 	N 	0.4615	0.3381	0.9219	-0.293
Mof_N 	N 	0.648	0.9897	0.7415	-0.266
Mof_N 	N 	0.5468	0.1923	0.0059	-0.289
Mof_N 	N 	0.32867	0.07196	0.0021	-0.264
Mof_N 	N 	0.5007	0.1624	0.9682	-0.213
Mof_N 	N 	0.5859	0.4953	0.3707	-0.233
Mof_N 	N 	0.69959	0.45942	0.3366	-0.252
Mof_N 	N 	0.28959	0.46082	0.5282	-0.264
Mof_N 	N 	0.6459	0.6752	0.531	-0.271
Mof_N 	N 	0.2785	0.8381	0.4219	-0.286
Mof_N 	N 	0.6208	0.4897	0.2415	-0.291
Mof_N 	N 	0.255	0.6923	0.5059	-0.256
Mof_N 	N 	0.59727	0.57196	0.5021	-0.241
Mof_N 	N 	0.3687	0.6624	0.4682	-0.228
Mof_N 	N 	0.4519	0.0047	0.1293	-0.263
Mof_N 	N 	0.49561	0.04058	0.1634	-0.258
Mof_N 	N 	0.27861	0.03918	0.9718	-0.264
Mof_N 	N 	0.8521	0.8248	0.969	-0.254
Mof_N 	N 	0.5385	0.6619	0.0781	-0.288
Mof_N 	N 	0.352	0.0103	0.2585	-0.318
Mof_N 	N 	0.4532	0.8077	0.9941	-0.226
Mof_N 	N 	0.67133	0.92804	0.9979	-0.217
Mof_N 	N 	0.4993	0.8376	0.0318	-0.236
Mof_O 	O 	0.9589	0.237	0.1988	-0.451
Mof_O 	O 	0.53629	0.12002	0.432	-0.451
Mof_O 	O 	0.92	0.1645	0.1351	-0.384
Mof_O 	O 	0.25863	0.07154	0.4252	-0.522
Mof_O 	O 	0.69675	0.8844	0.4923	-0.47
Mof_O 	O 	0.1275	0.9975	0.2705	-0.293
Mof_O 	O 	0.9235	0.9412	0.6178	-0.454
Mof_O 	O 	0.5988	0.0394	0.3284	-0.337
Mof_O 	O 	0.3947	0.263	0.3012	-0.447
Mof_O 	O 	0.08831	0.37998	0.068	-0.453
Mof_O 	O 	0.2196	0.3355	0.3649	-0.369
Mof_O 	O 	0.75537	0.42846	0.0748	-0.505
Mof_O 	O 	0.07345	0.6156	0.0077	-0.523
Mof_O 	O 	0.3955	0.5025	0.2295	-0.334
Mof_O 	O 	0.4825	0.5588	0.8822	-0.444
Mof_O 	O 	0.9666	0.4606	0.1716	-0.324
Mof_O 	O 	0.0411	0.763	0.8012	-0.442
Mof_O 	O 	0.46371	0.87998	0.568	-0.438
Mof_O 	O 	0.08	0.8355	0.8649	-0.356
Mof_O 	O 	0.74137	0.92846	0.5748	-0.511
Mof_O 	O 	0.30325	0.1156	0.5077	-0.48
Mof_O 	O 	0.8725	0.0025	0.7295	-0.368
Mof_O 	O 	0.0765	0.0588	0.3822	-0.452
Mof_O 	O 	0.4012	0.9606	0.6716	-0.319
Mof_O 	O 	0.6053	0.737	0.6988	-0.447
Mof_O 	O 	0.91169	0.62002	0.932	-0.437
Mof_O 	O 	0.7804	0.6645	0.6351	-0.371
Mof_O 	O 	0.24463	0.57154	0.9252	-0.529
Mof_O 	O 	0.92655	0.3844	0.9923	-0.43
Mof_O 	O 	0.6045	0.4975	0.7705	-0.331
Mof_O 	O 	0.5175	0.4412	0.1178	-0.463
Mof_O 	O 	0.0334	0.5394	0.8284	-0.327
_end
