data_functionalizedCrystal
_audit_creation_method	'EQeq! by Chris Wilmer'
_symmetry_space_group_name_H-M	'P1'
_symmetry_Int_Tables_number	1
_symmetry_cell_setting	triclinic
loop_
_symmetry_equiv_pos_as_xyz
  x,y,z
_cell_length_a	16.1322
_cell_length_b	15.7981
_cell_length_c	11.6042
_cell_angle_alpha	90
_cell_angle_beta	90
_cell_angle_gamma	90
loop_
_atom_site_label
_atom_site_type_symbol
_atom_site_fract_x
_atom_site_fract_y
_atom_site_fract_z
_atom_site_charge
Mof_C 	C 	0.64334	0.4013	0.9485	0.301
Mof_C 	C 	0.57298	0.3515	0.0006	-0.086
Mof_C 	C 	0.5873	0.2754	0.057	0.017
Mof_H 	H 	0.6414	0.2567	0.0676	0.034
Mof_C 	C 	0.52162	0.2267	0.0977	-0.093
Mof_H 	H 	0.5321	0.1761	0.1361	0.063
Mof_C 	C 	0.43967	0.25368	0.0812	0.032
Mof_C 	C 	0.4254	0.3305	0.0263	-0.091
Mof_H 	H 	0.3713	0.3494	0.0159	0.083
Mof_C 	C 	0.49124	0.3797	0.9864	0.022
Mof_H 	H 	0.4809	0.4313	0.9505	0.046
Mof_C 	C 	0.37027	0.20214	0.1218	0.06
Mof_C 	C 	0.37134	0.12614	0.1809	-0.021
Mof_H 	H 	0.4185	0.0962	0.2025	0.042
Mof_C 	C 	0.243	0.1656	0.1623	0.131
Mof_H 	H 	0.1857	0.168	0.1698	-0.01
Mof_N 	N 	0.29016	0.10222	0.2025	-0.147
Mof_N 	N 	0.28824	0.22415	0.1108	-0.222
Mof_H 	H 	0.2696	0.2684	0.0764	0.156
Mof_O 	O 	0.7171	0.3768	0.96347	-0.279
Mof_O 	O 	0.62562	0.46625	0.89141	-0.286
Mof_C 	C 	0.85666	0.5987	0.9485	0.302
Mof_C 	C 	0.92702	0.6485	0.0006	-0.085
Mof_C 	C 	0.9127	0.7246	0.057	0.02
Mof_H 	H 	0.8586	0.7433	0.0676	0.037
Mof_C 	C 	0.97838	0.7733	0.0977	-0.092
Mof_H 	H 	0.9679	0.8239	0.1361	0.072
Mof_C 	C 	0.06033	0.74632	0.0812	0.035
Mof_C 	C 	0.0746	0.6695	0.0263	-0.091
Mof_H 	H 	0.1287	0.6506	0.0159	0.083
Mof_C 	C 	0.00876	0.6203	0.9864	0.022
Mof_H 	H 	0.0191	0.5687	0.9505	0.046
Mof_C 	C 	0.12973	0.79786	0.1218	0.064
Mof_C 	C 	0.12866	0.87386	0.1809	-0.016
Mof_H 	H 	0.0815	0.9038	0.2025	0.057
Mof_C 	C 	0.257	0.8344	0.1623	0.135
Mof_H 	H 	0.3143	0.832	0.1698	-0.004
Mof_N 	N 	0.20984	0.89778	0.2025	-0.133
Mof_N 	N 	0.21176	0.77585	0.1108	-0.222
Mof_H 	H 	0.2304	0.7316	0.0764	0.158
Mof_O 	O 	0.7829	0.6232	0.96347	-0.279
Mof_O 	O 	0.87438	0.53375	0.89141	-0.286
Mof_C 	C 	0.14334	0.0987	0.4485	0.304
Mof_C 	C 	0.07298	0.1485	0.5006	-0.092
Mof_C 	C 	0.0873	0.2246	0.557	0.021
Mof_H 	H 	0.1414	0.2433	0.5676	0.034
Mof_C 	C 	0.02162	0.2733	0.5977	-0.096
Mof_H 	H 	0.0321	0.3239	0.6361	0.068
Mof_C 	C 	0.93967	0.24632	0.5812	0.036
Mof_C 	C 	0.9254	0.1695	0.5263	-0.097
Mof_H 	H 	0.8713	0.1506	0.5159	0.081
Mof_C 	C 	0.99124	0.1203	0.4864	0.024
Mof_H 	H 	0.9809	0.0687	0.4505	0.034
Mof_C 	C 	0.87027	0.29786	0.6218	0.06
Mof_C 	C 	0.87134	0.37386	0.6809	-0.018
Mof_H 	H 	0.9185	0.4038	0.7025	0.048
Mof_C 	C 	0.743	0.3344	0.6623	0.133
Mof_H 	H 	0.6857	0.332	0.6698	-0.008
Mof_N 	N 	0.79016	0.39778	0.7025	-0.144
Mof_N 	N 	0.78824	0.27585	0.6108	-0.222
Mof_H 	H 	0.7696	0.2316	0.5764	0.157
Mof_O 	O 	0.2171	0.1232	0.46347	-0.284
Mof_O 	O 	0.12562	0.03375	0.39141	-0.299
Mof_C 	C 	0.35666	0.9013	0.4485	0.299
Mof_C 	C 	0.42702	0.8515	0.5006	-0.076
Mof_C 	C 	0.4127	0.7754	0.557	0.015
Mof_H 	H 	0.3586	0.7567	0.5676	0.038
Mof_C 	C 	0.47838	0.7267	0.5977	-0.089
Mof_H 	H 	0.4679	0.6761	0.6361	0.066
Mof_C 	C 	0.56033	0.75368	0.5812	0.032
Mof_C 	C 	0.5746	0.8305	0.5263	-0.085
Mof_H 	H 	0.6287	0.8494	0.5159	0.087
Mof_C 	C 	0.50876	0.8797	0.4864	0.019
Mof_H 	H 	0.5191	0.9313	0.4505	0.058
Mof_C 	C 	0.62973	0.70214	0.6218	0.063
Mof_C 	C 	0.62866	0.62614	0.6809	-0.02
Mof_H 	H 	0.5815	0.5962	0.7025	0.049
Mof_C 	C 	0.757	0.6656	0.6623	0.133
Mof_H 	H 	0.8143	0.668	0.6698	-0.008
Mof_N 	N 	0.70984	0.60222	0.7025	-0.144
Mof_N 	N 	0.71176	0.72415	0.6108	-0.222
Mof_H 	H 	0.7304	0.7684	0.5764	0.158
Mof_O 	O 	0.2829	0.8768	0.46347	-0.267
Mof_O 	O 	0.37438	0.96625	0.39141	-0.26
Mof_Cd	Cd	0.75	0.5	0.82528	0.438
Mof_Cd	Cd	0.25	0	0.32528	0.401
Mof_C 	C 	0.85666	0.9013	0.5515	0.298
Mof_C 	C 	0.92702	0.8515	0.4994	-0.075
Mof_C 	C 	0.9127	0.7754	0.443	0.013
Mof_H 	H 	0.8586	0.7567	0.4324	0.039
Mof_C 	C 	0.97838	0.7267	0.4023	-0.087
Mof_H 	H 	0.9679	0.6761	0.3639	0.066
Mof_C 	C 	0.06033	0.75368	0.4188	0.03
Mof_C 	C 	0.0746	0.8305	0.4737	-0.083
Mof_H 	H 	0.1287	0.8494	0.4841	0.086
Mof_C 	C 	0.00876	0.8797	0.5136	0.017
Mof_H 	H 	0.0191	0.9313	0.5495	0.058
Mof_C 	C 	0.12973	0.70214	0.3782	0.064
Mof_C 	C 	0.12866	0.62614	0.3191	-0.02
Mof_H 	H 	0.0815	0.5962	0.2975	0.049
Mof_C 	C 	0.257	0.6656	0.3377	0.133
Mof_H 	H 	0.3143	0.668	0.3302	-0.008
Mof_N 	N 	0.20984	0.60222	0.2975	-0.144
Mof_N 	N 	0.21176	0.72415	0.3892	-0.223
Mof_H 	H 	0.2304	0.7684	0.4236	0.158
Mof_O 	O 	0.7829	0.8768	0.53653	-0.267
Mof_O 	O 	0.87438	0.96625	0.60859	-0.259
Mof_C 	C 	0.64334	0.0987	0.5515	0.304
Mof_C 	C 	0.57298	0.1485	0.4994	-0.094
Mof_C 	C 	0.5873	0.2246	0.443	0.023
Mof_H 	H 	0.6414	0.2433	0.4324	0.033
Mof_C 	C 	0.52162	0.2733	0.4023	-0.098
Mof_H 	H 	0.5321	0.3239	0.3639	0.069
Mof_C 	C 	0.43967	0.24632	0.4188	0.037
Mof_C 	C 	0.4254	0.1695	0.4737	-0.098
Mof_H 	H 	0.3713	0.1506	0.4841	0.082
Mof_C 	C 	0.49124	0.1203	0.5136	0.026
Mof_H 	H 	0.4809	0.0687	0.5495	0.034
Mof_C 	C 	0.37027	0.29786	0.3782	0.06
Mof_C 	C 	0.37134	0.37386	0.3191	-0.018
Mof_H 	H 	0.4185	0.4038	0.2975	0.048
Mof_C 	C 	0.243	0.3344	0.3377	0.133
Mof_H 	H 	0.1857	0.332	0.3302	-0.008
Mof_N 	N 	0.29016	0.39778	0.2975	-0.144
Mof_N 	N 	0.28824	0.27585	0.3892	-0.222
Mof_H 	H 	0.2696	0.2316	0.4236	0.157
Mof_O 	O 	0.7171	0.1232	0.53653	-0.284
Mof_O 	O 	0.62562	0.03375	0.60859	-0.3
Mof_C 	C 	0.35666	0.5987	0.0515	0.302
Mof_C 	C 	0.42702	0.6485	0.9994	-0.086
Mof_C 	C 	0.4127	0.7246	0.943	0.021
Mof_H 	H 	0.3586	0.7433	0.9324	0.037
Mof_C 	C 	0.47838	0.7733	0.9023	-0.093
Mof_H 	H 	0.4679	0.8239	0.8639	0.072
Mof_C 	C 	0.56033	0.74632	0.9188	0.036
Mof_C 	C 	0.5746	0.6695	0.9737	-0.092
Mof_H 	H 	0.6287	0.6506	0.9841	0.084
Mof_C 	C 	0.50876	0.6203	0.0136	0.023
Mof_H 	H 	0.5191	0.5687	0.0495	0.046
Mof_C 	C 	0.62973	0.79786	0.8782	0.063
Mof_C 	C 	0.62866	0.87386	0.8191	-0.016
Mof_H 	H 	0.5815	0.9038	0.7975	0.057
Mof_C 	C 	0.757	0.8344	0.8377	0.135
Mof_H 	H 	0.8143	0.832	0.8302	-0.004
Mof_N 	N 	0.70984	0.89778	0.7975	-0.132
Mof_N 	N 	0.71176	0.77585	0.8892	-0.222
Mof_H 	H 	0.7304	0.7316	0.9236	0.158
Mof_O 	O 	0.2829	0.6232	0.03653	-0.279
Mof_O 	O 	0.37438	0.53375	0.10859	-0.286
Mof_C 	C 	0.14334	0.4013	0.0515	0.302
Mof_C 	C 	0.07298	0.3515	0.9994	-0.085
Mof_C 	C 	0.0873	0.2754	0.943	0.017
Mof_H 	H 	0.1414	0.2567	0.9324	0.034
Mof_C 	C 	0.02162	0.2267	0.9023	-0.092
Mof_H 	H 	0.0321	0.1761	0.8639	0.063
Mof_C 	C 	0.93967	0.25368	0.9188	0.031
Mof_C 	C 	0.9254	0.3305	0.9737	-0.09
Mof_H 	H 	0.8713	0.3494	0.9841	0.083
Mof_C 	C 	0.99124	0.3797	0.0136	0.02
Mof_H 	H 	0.9809	0.4313	0.0495	0.046
Mof_C 	C 	0.87027	0.20214	0.8782	0.06
Mof_C 	C 	0.87134	0.12614	0.8191	-0.021
Mof_H 	H 	0.9185	0.0962	0.7975	0.042
Mof_C 	C 	0.743	0.1656	0.8377	0.131
Mof_H 	H 	0.6857	0.168	0.8302	-0.01
Mof_N 	N 	0.79016	0.10222	0.7975	-0.147
Mof_N 	N 	0.78824	0.22415	0.8892	-0.222
Mof_H 	H 	0.7696	0.2684	0.9236	0.156
Mof_O 	O 	0.2171	0.3768	0.03653	-0.279
Mof_O 	O 	0.12562	0.46625	0.10859	-0.286
Mof_Cd	Cd	0.75	-4.26783e-33	0.67472	0.4
Mof_Cd	Cd	0.25	0.5	0.17472	0.438
_end
