data_functionalizedCrystal
_audit_creation_method	'EQeq! by Chris Wilmer'
_symmetry_space_group_name_H-M	'P1'
_symmetry_Int_Tables_number	1
_symmetry_cell_setting	triclinic
loop_
_symmetry_equiv_pos_as_xyz
  x,y,z
_cell_length_a	18.8846
_cell_length_b	18.8846
_cell_length_c	18.8846
_cell_angle_alpha	60
_cell_angle_beta	60
_cell_angle_gamma	60
loop_
_atom_site_label
_atom_site_type_symbol
_atom_site_fract_x
_atom_site_fract_y
_atom_site_fract_z
_atom_site_charge
Mof_Eu	Eu	0.75	0.25	0.25	2.554
Mof_Eu	Eu	0.75	0.25	0.75	2.573
Mof_Eu	Eu	0.75	0.75	0.25	2.573
Mof_Eu	Eu	0.25	0.25	0.25	2.534
Mof_Eu	Eu	0.25	0.75	0.75	2.571
Mof_Eu	Eu	0.25	0.75	0.25	2.551
Mof_Eu	Eu	0.25	0.25	0.75	2.551
Mof_Eu	Eu	0.75	0.75	0.75	2.588
Mof_Ca	Ca	0.5	0.5	0.5	1.639
Mof_Ca	Ca	1.19364e-17	-2.38727e-17	0.5	1.006
Mof_Ca	Ca	-0	0.5	-0	1.007
Mof_Ca	Ca	1.19364e-17	0.5	0.5	1.32
Mof_Ca	Ca	0.5	0.5	-0	1.329
Mof_Ca	Ca	-0	0	-0	0.693
Mof_Ca	Ca	0.5	-2.38727e-17	0.5	1.329
Mof_Ca	Ca	0.5	0	-0	1.015
Mof_H 	H 	0.5162	0.4158	0.3448	0.096
Mof_H 	H 	0.5745	0.4745	0.2947	0.093
Mof_H 	H 	0.9158	0.0162	0.7232	0.086
Mof_H 	H 	0.9745	0.0745	0.6563	0.125
Mof_H 	H 	0.8448	0.7232	0.0162	0.062
Mof_H 	H 	0.7947	0.6563	0.0745	0.062
Mof_H 	H 	0.2232	0.3448	0.4158	0.096
Mof_H 	H 	0.1563	0.2947	0.4745	0.077
Mof_H 	H 	0.5162	0.3448	0.7232	0.102
Mof_H 	H 	0.5745	0.2947	0.6563	0.094
Mof_H 	H 	0.9158	0.7232	0.3448	0.149
Mof_H 	H 	0.9745	0.6563	0.2947	0.162
Mof_H 	H 	0.8448	0.0162	0.4158	0.055
Mof_H 	H 	0.7947	0.0745	0.4745	0.061
Mof_H 	H 	0.2232	0.4158	0.0162	0.03
Mof_H 	H 	0.1563	0.4745	0.0745	0.038
Mof_H 	H 	0.5162	0.7232	0.4158	0.104
Mof_H 	H 	0.5745	0.6563	0.4745	0.099
Mof_H 	H 	0.9158	0.3448	0.0162	0.078
Mof_H 	H 	0.9745	0.2947	0.0745	0.119
Mof_H 	H 	0.8448	0.4158	0.7232	0.126
Mof_H 	H 	0.7947	0.4745	0.6563	0.104
Mof_H 	H 	0.2232	0.0162	0.3448	0.029
Mof_H 	H 	0.1563	0.0745	0.2947	0.032
Mof_H 	H 	0.5842	0.4838	0.1552	0.08
Mof_H 	H 	0.5255	0.4255	0.2053	0.096
Mof_H 	H 	0.9838	0.0842	0.7768	0.128
Mof_H 	H 	0.9255	0.0255	0.8437	0.108
Mof_H 	H 	0.2768	0.1552	0.4838	0.073
Mof_H 	H 	0.3437	0.2053	0.4255	0.095
Mof_H 	H 	0.6552	0.7768	0.0842	0.06
Mof_H 	H 	0.7053	0.8437	0.0255	0.064
Mof_H 	H 	0.6552	0.4838	0.7768	0.102
Mof_H 	H 	0.7053	0.4255	0.8437	0.122
Mof_H 	H 	0.2768	0.0842	0.1552	0.028
Mof_H 	H 	0.3437	0.0255	0.2053	0.033
Mof_H 	H 	0.9838	0.1552	0.0842	0.108
Mof_H 	H 	0.9255	0.2053	0.0255	0.088
Mof_H 	H 	0.5842	0.7768	0.4838	0.101
Mof_H 	H 	0.5255	0.8437	0.4255	0.117
Mof_H 	H 	0.2768	0.4838	0.0842	0.049
Mof_H 	H 	0.3437	0.4255	0.0255	0.033
Mof_H 	H 	0.6552	0.0842	0.4838	0.058
Mof_H 	H 	0.7053	0.0255	0.4255	0.042
Mof_H 	H 	0.5842	0.1552	0.7768	0.082
Mof_H 	H 	0.5255	0.2053	0.8437	0.118
Mof_H 	H 	0.9838	0.7768	0.1552	0.152
Mof_H 	H 	0.9255	0.8437	0.2053	0.167
Mof_H 	H 	0.4838	0.5842	0.6552	0.1
Mof_H 	H 	0.4255	0.5255	0.7053	0.102
Mof_H 	H 	0.0842	0.9838	0.2768	0.118
Mof_H 	H 	0.0255	0.9255	0.3437	0.084
Mof_H 	H 	0.1552	0.2768	0.9838	0.143
Mof_H 	H 	0.2053	0.3437	0.9255	0.146
Mof_H 	H 	0.7768	0.6552	0.5842	0.102
Mof_H 	H 	0.8437	0.7053	0.5255	0.123
Mof_H 	H 	0.4838	0.6552	0.2768	0.094
Mof_H 	H 	0.4255	0.7053	0.3437	0.101
Mof_H 	H 	0.0842	0.2768	0.6552	0.049
Mof_H 	H 	0.0255	0.3437	0.7053	0.038
Mof_H 	H 	0.1552	0.9838	0.5842	0.148
Mof_H 	H 	0.2053	0.9255	0.5255	0.147
Mof_H 	H 	0.7768	0.5842	0.9838	0.167
Mof_H 	H 	0.8437	0.5255	0.9255	0.165
Mof_H 	H 	0.4838	0.2768	0.5842	0.093
Mof_H 	H 	0.4255	0.3437	0.5255	0.095
Mof_H 	H 	0.0842	0.6552	0.9838	0.125
Mof_H 	H 	0.0255	0.7053	0.9255	0.09
Mof_H 	H 	0.1552	0.5842	0.2768	0.073
Mof_H 	H 	0.2053	0.5255	0.3437	0.095
Mof_H 	H 	0.7768	0.9838	0.6552	0.167
Mof_H 	H 	0.8437	0.9255	0.7053	0.168
Mof_H 	H 	0.4158	0.5162	0.8448	0.119
Mof_H 	H 	0.4745	0.5745	0.7947	0.104
Mof_H 	H 	0.0162	0.9158	0.2232	0.076
Mof_H 	H 	0.0745	0.9745	0.1563	0.107
Mof_H 	H 	0.7232	0.8448	0.5162	0.125
Mof_H 	H 	0.6563	0.7947	0.5745	0.105
Mof_H 	H 	0.3448	0.2232	0.9158	0.143
Mof_H 	H 	0.2947	0.1563	0.9745	0.147
Mof_H 	H 	0.3448	0.5162	0.2232	0.096
Mof_H 	H 	0.2947	0.5745	0.1563	0.078
Mof_H 	H 	0.7232	0.9158	0.8448	0.167
Mof_H 	H 	0.6563	0.9745	0.7947	0.168
Mof_H 	H 	0.0162	0.8448	0.9158	0.098
Mof_H 	H 	0.0745	0.7947	0.9745	0.126
Mof_H 	H 	0.4158	0.2232	0.5162	0.097
Mof_H 	H 	0.4745	0.1563	0.5745	0.084
Mof_H 	H 	0.7232	0.5162	0.9158	0.148
Mof_H 	H 	0.6563	0.5745	0.9745	0.165
Mof_H 	H 	0.3448	0.9158	0.5162	0.142
Mof_H 	H 	0.2947	0.9745	0.5745	0.16
Mof_H 	H 	0.4158	0.8448	0.2232	0.12
Mof_H 	H 	0.4745	0.7947	0.1563	0.089
Mof_H 	H 	0.0162	0.2232	0.8448	0.052
Mof_H 	H 	0.0745	0.1563	0.7947	0.044
Mof_C 	C 	0.5756	0.4152	0.318	-0.235
Mof_C 	C 	0.6196	0.3624	0.3836	0.48
Mof_C 	C 	0.9152	0.0756	0.6912	-0.228
Mof_C 	C 	0.8624	0.1196	0.6344	0.455
Mof_C 	C 	0.818	0.6912	0.0756	-0.175
Mof_C 	C 	0.8836	0.6344	0.1196	0.426
Mof_C 	C 	0.1912	0.318	0.4152	-0.227
Mof_C 	C 	0.1344	0.3836	0.3624	0.464
Mof_C 	C 	0.5756	0.318	0.6912	-0.239
Mof_C 	C 	0.6196	0.3836	0.6344	0.483
Mof_C 	C 	0.9152	0.6912	0.318	-0.285
Mof_C 	C 	0.8624	0.6344	0.3836	0.496
Mof_C 	C 	0.818	0.0756	0.4152	-0.171
Mof_C 	C 	0.8836	0.1196	0.3624	0.423
Mof_C 	C 	0.1912	0.4152	0.0756	-0.168
Mof_C 	C 	0.1344	0.3624	0.1196	0.421
Mof_C 	C 	0.5756	0.6912	0.4152	-0.243
Mof_C 	C 	0.6196	0.6344	0.3624	0.485
Mof_C 	C 	0.9152	0.318	0.0756	-0.22
Mof_C 	C 	0.8624	0.3836	0.1196	0.45
Mof_C 	C 	0.818	0.4152	0.6912	-0.236
Mof_C 	C 	0.8836	0.3624	0.6344	0.47
Mof_C 	C 	0.1912	0.0756	0.318	-0.163
Mof_C 	C 	0.1344	0.1196	0.3836	0.418
Mof_C 	C 	0.5848	0.4244	0.182	-0.232
Mof_C 	C 	0.6376	0.3804	0.1164	0.466
Mof_C 	C 	0.9244	0.0848	0.8088	-0.217
Mof_C 	C 	0.8804	0.1376	0.8656	0.44
Mof_C 	C 	0.3088	0.182	0.4244	-0.226
Mof_C 	C 	0.3656	0.1164	0.3804	0.463
Mof_C 	C 	0.682	0.8088	0.0848	-0.175
Mof_C 	C 	0.6164	0.8656	0.1376	0.427
Mof_C 	C 	0.682	0.4244	0.8088	-0.236
Mof_C 	C 	0.6164	0.3804	0.8656	0.469
Mof_C 	C 	0.3088	0.0848	0.182	-0.162
Mof_C 	C 	0.3656	0.1376	0.1164	0.419
Mof_C 	C 	0.9244	0.182	0.0848	-0.216
Mof_C 	C 	0.8804	0.1164	0.1376	0.438
Mof_C 	C 	0.5848	0.8088	0.4244	-0.233
Mof_C 	C 	0.6376	0.8656	0.3804	0.468
Mof_C 	C 	0.3088	0.4244	0.0848	-0.173
Mof_C 	C 	0.3656	0.3804	0.1376	0.435
Mof_C 	C 	0.682	0.0848	0.4244	-0.183
Mof_C 	C 	0.6164	0.1376	0.3804	0.441
Mof_C 	C 	0.5848	0.182	0.8088	-0.223
Mof_C 	C 	0.6376	0.1164	0.8656	0.452
Mof_C 	C 	0.9244	0.8088	0.182	-0.269
Mof_C 	C 	0.8804	0.8656	0.1164	0.466
Mof_C 	C 	0.4244	0.5848	0.682	-0.244
Mof_C 	C 	0.3804	0.6376	0.6164	0.484
Mof_C 	C 	0.0848	0.9244	0.3088	-0.218
Mof_C 	C 	0.1376	0.8804	0.3656	0.451
Mof_C 	C 	0.182	0.3088	0.9244	-0.272
Mof_C 	C 	0.1164	0.3656	0.8804	0.478
Mof_C 	C 	0.8088	0.682	0.5848	-0.235
Mof_C 	C 	0.8656	0.6164	0.6376	0.47
Mof_C 	C 	0.4244	0.682	0.3088	-0.239
Mof_C 	C 	0.3804	0.6164	0.3656	0.481
Mof_C 	C 	0.0848	0.3088	0.682	-0.175
Mof_C 	C 	0.1376	0.3656	0.6164	0.438
Mof_C 	C 	0.182	0.9244	0.5848	-0.277
Mof_C 	C 	0.1164	0.8804	0.6376	0.481
Mof_C 	C 	0.8088	0.5848	0.9244	-0.276
Mof_C 	C 	0.8656	0.6376	0.8804	0.481
Mof_C 	C 	0.4244	0.3088	0.5848	-0.235
Mof_C 	C 	0.3804	0.3656	0.6376	0.479
Mof_C 	C 	0.0848	0.682	0.9244	-0.226
Mof_C 	C 	0.1376	0.6164	0.8804	0.456
Mof_C 	C 	0.182	0.5848	0.3088	-0.225
Mof_C 	C 	0.1164	0.6376	0.3656	0.463
Mof_C 	C 	0.8088	0.9244	0.682	-0.277
Mof_C 	C 	0.8656	0.8804	0.6164	0.482
Mof_C 	C 	0.4152	0.5756	0.818	-0.232
Mof_C 	C 	0.3624	0.6196	0.8836	0.469
Mof_C 	C 	0.0756	0.9152	0.1912	-0.213
Mof_C 	C 	0.1196	0.8624	0.1344	0.435
Mof_C 	C 	0.6912	0.818	0.5756	-0.236
Mof_C 	C 	0.6344	0.8836	0.6196	0.471
Mof_C 	C 	0.318	0.1912	0.9152	-0.273
Mof_C 	C 	0.3836	0.1344	0.8624	0.478
Mof_C 	C 	0.318	0.5756	0.1912	-0.226
Mof_C 	C 	0.3836	0.6196	0.1344	0.465
Mof_C 	C 	0.6912	0.9152	0.818	-0.278
Mof_C 	C 	0.6344	0.8624	0.8836	0.483
Mof_C 	C 	0.0756	0.818	0.9152	-0.214
Mof_C 	C 	0.1196	0.8836	0.8624	0.436
Mof_C 	C 	0.4152	0.1912	0.5756	-0.231
Mof_C 	C 	0.3624	0.1344	0.6196	0.467
Mof_C 	C 	0.6912	0.5756	0.9152	-0.287
Mof_C 	C 	0.6344	0.6196	0.8624	0.499
Mof_C 	C 	0.318	0.9152	0.5756	-0.281
Mof_C 	C 	0.3836	0.8624	0.6196	0.494
Mof_C 	C 	0.4152	0.818	0.1912	-0.224
Mof_C 	C 	0.3624	0.8836	0.1344	0.453
Mof_C 	C 	0.0756	0.1912	0.818	-0.16
Mof_C 	C 	0.1196	0.1344	0.8836	0.407
Mof_O 	O 	0.68589	0.29773	0.37209	-0.514
Mof_O 	O 	0.58862	0.38384	0.4489	-0.473
Mof_O 	O 	0.79773	0.18589	0.64429	-0.51
Mof_O 	O 	0.88384	0.08862	0.57864	-0.393
Mof_O 	O 	0.87209	0.64429	0.18589	-0.483
Mof_O 	O 	0.9489	0.57864	0.08862	-0.347
Mof_O 	O 	0.14429	0.37209	0.29773	-0.535
Mof_O 	O 	0.07864	0.4489	0.38384	-0.486
Mof_O 	O 	0.68589	0.37209	0.64429	-0.515
Mof_O 	O 	0.58862	0.4489	0.57864	-0.472
Mof_O 	O 	0.79773	0.64429	0.37209	-0.514
Mof_O 	O 	0.88384	0.57864	0.4489	-0.399
Mof_O 	O 	0.87209	0.18589	0.29773	-0.481
Mof_O 	O 	0.9489	0.08862	0.38384	-0.347
Mof_O 	O 	0.14429	0.29773	0.18589	-0.532
Mof_O 	O 	0.07864	0.38384	0.08862	-0.483
Mof_O 	O 	0.68589	0.64429	0.29773	-0.516
Mof_O 	O 	0.58862	0.57864	0.38384	-0.473
Mof_O 	O 	0.79773	0.37209	0.18589	-0.508
Mof_O 	O 	0.88384	0.4489	0.08862	-0.392
Mof_O 	O 	0.87209	0.29773	0.64429	-0.487
Mof_O 	O 	0.9489	0.38384	0.57864	-0.354
Mof_O 	O 	0.14429	0.18589	0.37209	-0.53
Mof_O 	O 	0.07864	0.08862	0.4489	-0.481
Mof_O 	O 	0.70227	0.31411	0.12791	-0.537
Mof_O 	O 	0.61616	0.41138	0.0511	-0.499
Mof_O 	O 	0.81411	0.20227	0.85571	-0.474
Mof_O 	O 	0.91138	0.11616	0.92136	-0.261
Mof_O 	O 	0.35571	0.12791	0.31411	-0.537
Mof_O 	O 	0.42136	0.0511	0.41138	-0.501
Mof_O 	O 	0.62791	0.85571	0.20227	-0.482
Mof_O 	O 	0.5511	0.92136	0.11616	-0.349
Mof_O 	O 	0.62791	0.31411	0.85571	-0.491
Mof_O 	O 	0.5511	0.41138	0.92136	-0.372
Mof_O 	O 	0.35571	0.20227	0.12791	-0.528
Mof_O 	O 	0.42136	0.11616	0.0511	-0.48
Mof_O 	O 	0.81411	0.12791	0.20227	-0.522
Mof_O 	O 	0.91138	0.0511	0.11616	-0.387
Mof_O 	O 	0.70227	0.85571	0.31411	-0.489
Mof_O 	O 	0.61616	0.92136	0.41138	-0.37
Mof_O 	O 	0.35571	0.31411	0.20227	-0.511
Mof_O 	O 	0.42136	0.41138	0.11616	-0.456
Mof_O 	O 	0.62791	0.20227	0.31411	-0.514
Mof_O 	O 	0.5511	0.11616	0.41138	-0.457
Mof_O 	O 	0.70227	0.12791	0.85571	-0.504
Mof_O 	O 	0.61616	0.0511	0.92136	-0.391
Mof_O 	O 	0.81411	0.85571	0.12791	-0.499
Mof_O 	O 	0.91138	0.92136	0.0511	-0.304
Mof_O 	O 	0.31411	0.70227	0.62791	-0.52
Mof_O 	O 	0.41138	0.61616	0.5511	-0.474
Mof_O 	O 	0.20227	0.81411	0.35571	-0.502
Mof_O 	O 	0.11616	0.91138	0.42136	-0.363
Mof_O 	O 	0.12791	0.35571	0.81411	-0.528
Mof_O 	O 	0.0511	0.42136	0.91138	-0.409
Mof_O 	O 	0.85571	0.62791	0.70227	-0.487
Mof_O 	O 	0.92136	0.5511	0.61616	-0.367
Mof_O 	O 	0.31411	0.62791	0.35571	-0.52
Mof_O 	O 	0.41138	0.5511	0.42136	-0.476
Mof_O 	O 	0.20227	0.35571	0.62791	-0.51
Mof_O 	O 	0.11616	0.42136	0.5511	-0.454
Mof_O 	O 	0.12791	0.81411	0.70227	-0.528
Mof_O 	O 	0.0511	0.91138	0.61616	-0.407
Mof_O 	O 	0.85571	0.70227	0.81411	-0.48
Mof_O 	O 	0.92136	0.61616	0.91138	-0.283
Mof_O 	O 	0.31411	0.35571	0.70227	-0.517
Mof_O 	O 	0.41138	0.42136	0.61616	-0.473
Mof_O 	O 	0.20227	0.62791	0.81411	-0.504
Mof_O 	O 	0.11616	0.5511	0.91138	-0.364
Mof_O 	O 	0.12791	0.70227	0.35571	-0.533
Mof_O 	O 	0.0511	0.61616	0.42136	-0.497
Mof_O 	O 	0.85571	0.81411	0.62791	-0.482
Mof_O 	O 	0.92136	0.91138	0.5511	-0.283
Mof_O 	O 	0.29773	0.68589	0.87209	-0.483
Mof_O 	O 	0.38384	0.58862	0.9489	-0.354
Mof_O 	O 	0.18589	0.79773	0.14429	-0.526
Mof_O 	O 	0.08862	0.88384	0.07864	-0.405
Mof_O 	O 	0.64429	0.87209	0.68589	-0.485
Mof_O 	O 	0.57864	0.9489	0.58862	-0.355
Mof_O 	O 	0.37209	0.14429	0.79773	-0.529
Mof_O 	O 	0.4489	0.07864	0.88384	-0.408
Mof_O 	O 	0.37209	0.68589	0.14429	-0.53
Mof_O 	O 	0.4489	0.58862	0.07864	-0.481
Mof_O 	O 	0.64429	0.79773	0.87209	-0.484
Mof_O 	O 	0.57864	0.88384	0.9489	-0.287
Mof_O 	O 	0.18589	0.87209	0.79773	-0.477
Mof_O 	O 	0.08862	0.9489	0.88384	-0.278
Mof_O 	O 	0.29773	0.14429	0.68589	-0.532
Mof_O 	O 	0.38384	0.07864	0.58862	-0.483
Mof_O 	O 	0.64429	0.68589	0.79773	-0.512
Mof_O 	O 	0.57864	0.58862	0.88384	-0.399
Mof_O 	O 	0.37209	0.79773	0.68589	-0.509
Mof_O 	O 	0.4489	0.88384	0.58862	-0.398
Mof_O 	O 	0.29773	0.87209	0.14429	-0.503
Mof_O 	O 	0.38384	0.9489	0.07864	-0.365
Mof_O 	O 	0.18589	0.14429	0.87209	-0.498
Mof_O 	O 	0.08862	0.07864	0.9489	-0.359
Mof_O 	O 	0.61926	0.38074	0.25	-0.291
Mof_O 	O 	0.88074	0.11926	0.75	-0.287
Mof_O 	O 	0.75	0.75	0.11926	-0.313
Mof_O 	O 	0.25	0.25	0.38074	-0.295
Mof_O 	O 	0.61926	0.25	0.75	-0.289
Mof_O 	O 	0.88074	0.75	0.25	-0.259
Mof_O 	O 	0.75	0.11926	0.38074	-0.315
Mof_O 	O 	0.25	0.38074	0.11926	-0.323
Mof_O 	O 	0.61926	0.75	0.38074	-0.283
Mof_O 	O 	0.88074	0.25	0.11926	-0.294
Mof_O 	O 	0.75	0.38074	0.75	-0.28
Mof_O 	O 	0.25	0.11926	0.25	-0.33
Mof_O 	O 	0.38074	0.61926	0.75	-0.283
Mof_O 	O 	0.11926	0.88074	0.25	-0.294
Mof_O 	O 	0.25	0.25	0.88074	-0.266
Mof_O 	O 	0.75	0.75	0.61926	-0.281
Mof_O 	O 	0.38074	0.75	0.25	-0.286
Mof_O 	O 	0.11926	0.25	0.75	-0.321
Mof_O 	O 	0.25	0.88074	0.61926	-0.262
Mof_O 	O 	0.75	0.61926	0.88074	-0.256
Mof_O 	O 	0.38074	0.25	0.61926	-0.29
Mof_O 	O 	0.11926	0.75	0.88074	-0.287
Mof_O 	O 	0.25	0.61926	0.25	-0.296
Mof_O 	O 	0.75	0.88074	0.75	-0.254
_end
