data_functionalizedCrystal
_audit_creation_method	'EQeq! by Chris Wilmer'
_symmetry_space_group_name_H-M	'P1'
_symmetry_Int_Tables_number	1
_symmetry_cell_setting	triclinic
loop_
_symmetry_equiv_pos_as_xyz
  x,y,z
_cell_length_a	9.43
_cell_length_b	14.48
_cell_length_c	13.306
_cell_angle_alpha	90
_cell_angle_beta	90
_cell_angle_gamma	90
loop_
_atom_site_label
_atom_site_type_symbol
_atom_site_fract_x
_atom_site_fract_y
_atom_site_fract_z
_atom_site_charge
Mof_O 	O 	0.2098	0.39321	0.24521	-0.411
Mof_O 	O 	0.0361	0.4929	0.22546	-0.381
Mof_O 	O 	0.0895	0.10897	0.45231	-0.543
Mof_O 	O 	0.904	0.11348	0.55316	-0.551
Mof_C 	C 	0.0909	0.42442	0.27058	0.352
Mof_C 	C 	0.0103	0.37931	0.35419	-0.19
Mof_C 	C 	0.9105	0.4306	0.4071	0.146
Mof_C 	C 	0.8348	0.3891	0.4846	-0.29
Mof_C 	C 	0.8583	0.2985	0.509	0.215
Mof_C 	C 	0.9585	0.24652	0.45876	-0.273
Mof_C 	C 	0.0347	0.28859	0.38119	0.178
Mof_C 	C 	0.9863	0.1483	0.48971	0.547
Mof_H 	H 	0.093	0.2572	0.3485	-0.013
Mof_H 	H 	0.869	0.484	0.377	-0.003
Mof_H 	H 	0.814	0.272	0.56	-0.03
Mof_H 	H 	0.768	0.417	0.516	0.154
Mof_O 	O 	0.2902	0.60679	0.24521	-0.406
Mof_O 	O 	0.4639	0.5071	0.22546	-0.381
Mof_O 	O 	0.4105	0.89103	0.45231	-0.445
Mof_O 	O 	0.596	0.88652	0.55316	-0.422
Mof_C 	C 	0.4091	0.57558	0.27058	0.346
Mof_C 	C 	0.4897	0.62069	0.35419	-0.172
Mof_C 	C 	0.5895	0.5694	0.4071	0.132
Mof_C 	C 	0.6652	0.6109	0.4846	-0.26
Mof_C 	C 	0.6417	0.7015	0.509	0.188
Mof_C 	C 	0.5415	0.75348	0.45876	-0.229
Mof_C 	C 	0.4653	0.71141	0.38119	0.147
Mof_C 	C 	0.5137	0.8517	0.48971	0.527
Mof_H 	H 	0.407	0.7428	0.3485	0.002
Mof_H 	H 	0.631	0.516	0.377	0.002
Mof_H 	H 	0.686	0.728	0.56	-0.013
Mof_H 	H 	0.732	0.583	0.516	0.143
Mof_O 	O 	0.2902	0.89321	0.25479	-0.309
Mof_O 	O 	0.4639	0.9929	0.27454	-0.236
Mof_O 	O 	0.4105	0.60897	0.04769	-0.598
Mof_O 	O 	0.596	0.61348	0.94684	-0.589
Mof_C 	C 	0.4091	0.92442	0.22942	0.343
Mof_C 	C 	0.4897	0.87931	0.14581	-0.183
Mof_C 	C 	0.5895	0.9306	0.0929	0.198
Mof_C 	C 	0.6652	0.8891	0.0154	-0.312
Mof_C 	C 	0.6417	0.7985	0.991	0.271
Mof_C 	C 	0.5415	0.74652	0.04124	-0.304
Mof_C 	C 	0.4653	0.78859	0.11881	0.206
Mof_C 	C 	0.5137	0.6483	0.01029	0.62
Mof_H 	H 	0.407	0.7572	0.1515	-0.025
Mof_H 	H 	0.631	0.984	0.123	0.052
Mof_H 	H 	0.686	0.772	0.94	-0.044
Mof_H 	H 	0.732	0.917	0.984	0.212
Mof_O 	O 	0.2098	0.10679	0.25479	-0.411
Mof_O 	O 	0.0361	0.0071	0.27454	-0.429
Mof_O 	O 	0.0895	0.39103	0.04769	-0.598
Mof_O 	O 	0.904	0.38652	0.94684	-0.593
Mof_C 	C 	0.0909	0.07558	0.22942	0.363
Mof_C 	C 	0.0103	0.12069	0.14581	-0.249
Mof_C 	C 	0.9105	0.0694	0.0929	0.171
Mof_C 	C 	0.8348	0.1109	0.0154	-0.377
Mof_C 	C 	0.8583	0.2015	0.991	0.282
Mof_C 	C 	0.9585	0.25348	0.04124	-0.342
Mof_C 	C 	0.0347	0.21141	0.11881	0.244
Mof_C 	C 	0.9863	0.3517	0.01029	0.621
Mof_H 	H 	0.093	0.2428	0.1515	-0.044
Mof_H 	H 	0.869	0.016	0.123	-0.079
Mof_H 	H 	0.814	0.228	0.94	-0.062
Mof_H 	H 	0.768	0.083	0.984	0.142
Mof_O 	O 	0.7902	0.60679	0.75479	-0.406
Mof_O 	O 	0.9639	0.5071	0.77454	-0.382
Mof_O 	O 	0.9105	0.89103	0.54769	-0.444
Mof_O 	O 	0.096	0.88652	0.44684	-0.424
Mof_C 	C 	0.9091	0.57558	0.72942	0.347
Mof_C 	C 	0.9897	0.62069	0.64581	-0.176
Mof_C 	C 	0.0895	0.5694	0.5929	0.136
Mof_C 	C 	0.1652	0.6109	0.5154	-0.262
Mof_C 	C 	0.1417	0.7015	0.491	0.19
Mof_C 	C 	0.0415	0.75348	0.54124	-0.229
Mof_C 	C 	0.9653	0.71141	0.61881	0.147
Mof_C 	C 	0.0137	0.8517	0.51029	0.525
Mof_H 	H 	0.907	0.7428	0.6515	0.001
Mof_H 	H 	0.131	0.516	0.623	0.001
Mof_H 	H 	0.186	0.728	0.44	-0.013
Mof_H 	H 	0.232	0.583	0.484	0.144
Mof_O 	O 	0.7098	0.39321	0.75479	-0.411
Mof_O 	O 	0.5361	0.4929	0.77454	-0.381
Mof_O 	O 	0.5895	0.10897	0.54769	-0.547
Mof_O 	O 	0.404	0.11348	0.44684	-0.552
Mof_C 	C 	0.5909	0.42442	0.72942	0.352
Mof_C 	C 	0.5103	0.37931	0.64581	-0.192
Mof_C 	C 	0.4105	0.4306	0.5929	0.152
Mof_C 	C 	0.3348	0.3891	0.5154	-0.291
Mof_C 	C 	0.3583	0.2985	0.491	0.216
Mof_C 	C 	0.4585	0.24652	0.54124	-0.269
Mof_C 	C 	0.5347	0.28859	0.61881	0.172
Mof_C 	C 	0.4863	0.1483	0.51029	0.552
Mof_H 	H 	0.593	0.2572	0.6515	-0.011
Mof_H 	H 	0.369	0.484	0.623	-0.004
Mof_H 	H 	0.314	0.272	0.44	-0.03
Mof_H 	H 	0.268	0.417	0.484	0.155
Mof_O 	O 	0.7098	0.10679	0.74521	-0.411
Mof_O 	O 	0.5361	0.0071	0.72546	-0.432
Mof_O 	O 	0.5895	0.39103	0.95231	-0.602
Mof_O 	O 	0.404	0.38652	0.05316	-0.595
Mof_C 	C 	0.5909	0.07558	0.77058	0.363
Mof_C 	C 	0.5103	0.12069	0.85419	-0.253
Mof_C 	C 	0.4105	0.0694	0.9071	0.177
Mof_C 	C 	0.3348	0.1109	0.9846	-0.374
Mof_C 	C 	0.3583	0.2015	0.009	0.277
Mof_C 	C 	0.4585	0.25348	0.95876	-0.335
Mof_C 	C 	0.5347	0.21141	0.88119	0.236
Mof_C 	C 	0.4863	0.3517	0.98971	0.626
Mof_H 	H 	0.593	0.2428	0.8485	-0.041
Mof_H 	H 	0.369	0.016	0.877	-0.079
Mof_H 	H 	0.314	0.228	0.06	-0.06
Mof_H 	H 	0.268	0.083	0.016	0.141
Mof_O 	O 	0.7902	0.89321	0.74521	-0.307
Mof_O 	O 	0.9639	0.9929	0.72546	-0.235
Mof_O 	O 	0.9105	0.60897	0.95231	-0.599
Mof_O 	O 	0.096	0.61348	0.05316	-0.588
Mof_C 	C 	0.9091	0.92442	0.77058	0.343
Mof_C 	C 	0.9897	0.87931	0.85419	-0.184
Mof_C 	C 	0.0895	0.9306	0.9071	0.197
Mof_C 	C 	0.1652	0.8891	0.9846	-0.314
Mof_C 	C 	0.1417	0.7985	0.009	0.274
Mof_C 	C 	0.0415	0.74652	0.95876	-0.306
Mof_C 	C 	0.9653	0.78859	0.88119	0.206
Mof_C 	C 	0.0137	0.6483	0.98971	0.619
Mof_H 	H 	0.907	0.7572	0.8485	-0.025
Mof_H 	H 	0.131	0.984	0.877	0.052
Mof_H 	H 	0.186	0.772	0.06	-0.045
Mof_H 	H 	0.232	0.917	0.016	0.213
Mof_Dy	Dy	0.25	0.5	0.10195	2.267
Mof_Dy	Dy	0.25	0	0.39805	1.731
Mof_Dy	Dy	0.75	0.5	0.89805	2.267
Mof_Dy	Dy	0.75	0	0.60195	1.723
_end
