data_functionalizedCrystal
_audit_creation_method	'EQeq! by Chris Wilmer'
_symmetry_space_group_name_H-M	'P1'
_symmetry_Int_Tables_number	1
_symmetry_cell_setting	triclinic
loop_
_symmetry_equiv_pos_as_xyz
  x,y,z
_cell_length_a	6.6031
_cell_length_b	18.0599
_cell_length_c	10.8579
_cell_angle_alpha	90
_cell_angle_beta	90.3736
_cell_angle_gamma	90
loop_
_atom_site_label
_atom_site_type_symbol
_atom_site_fract_x
_atom_site_fract_y
_atom_site_fract_z
_atom_site_charge
Mof_Al	Al	0.2366	0.2346	0.244	5.811
Mof_O 	O 	0.9891	0.2321	0.1598	-1.985
Mof_O 	O 	0.8354	0.6611	0.6359	-1.334
Mof_O 	O 	0.3235	0.1584	0.1335	-1.286
Mof_O 	O 	0.1618	0.3079	0.3548	-1.654
Mof_O 	O 	0.6812	0.8048	0.8803	-1.382
Mof_Al	Al	0.2546	0.7365	0.7551	5.629
Mof_O 	O 	0.5075	0.7305	0.683	-2.024
Mof_O 	O 	0.3651	0.8022	0.873	-1.457
Mof_O 	O 	0.8502	0.2999	0.3657	-1.535
Mof_O 	O 	0.6754	0.1445	0.1662	-1.191
Mof_O 	O 	0.1594	0.6501	0.657	-1.154
Mof_C 	C 	0.81605	0.51082	0.53472	0.041
Mof_C 	C 	0.83051	0.43997	0.45969	0.057
Mof_C 	C 	0.20423	0.43876	0.47907	0.063
Mof_C 	C 	0.19948	0.51212	0.55077	0.061
Mof_C 	C 	0.00581	0.55652	0.53137	-0.248
Mof_C 	C 	0.01323	0.3926	0.49139	-0.358
Mof_C 	C 	0.99297	0.6264	0.60648	0.954
Mof_C 	C 	0.01834	0.32484	0.41053	1.321
Mof_C 	C 	0.3221	0.95536	0.94692	0.029
Mof_C 	C 	0.31436	0.02639	0.02474	0.052
Mof_C 	C 	0.68266	0.01781	0.06629	0.082
Mof_C 	C 	0.70091	0.94921	0.986	0.03
Mof_C 	C 	0.50607	0.90697	0.97362	-0.284
Mof_C 	C 	0.51198	0.06935	0.02833	-0.179
Mof_C 	C 	0.52285	0.83936	0.89322	1.111
Mof_C 	C 	0.50168	0.13451	0.11469	0.832
Mof_Al	Al	0.7634	0.7346	0.756	5.81
Mof_O 	O 	0.0109	0.7321	0.8402	-1.985
Mof_O 	O 	0.1646	0.1611	0.3641	-1.333
Mof_O 	O 	0.6765	0.6584	0.8665	-1.286
Mof_O 	O 	0.8382	0.8079	0.6452	-1.653
Mof_O 	O 	0.3188	0.3048	0.1197	-1.382
Mof_Al	Al	0.7454	0.2365	0.2449	5.629
Mof_O 	O 	0.4925	0.2305	0.317	-2.025
Mof_O 	O 	0.6349	0.3022	0.127	-1.457
Mof_O 	O 	0.1498	0.7999	0.6343	-1.533
Mof_O 	O 	0.3246	0.6445	0.8338	-1.191
Mof_O 	O 	0.8406	0.1501	0.343	-1.152
Mof_C 	C 	0.18395	0.01082	0.46528	0.038
Mof_C 	C 	0.16949	0.93997	0.54031	0.06
Mof_C 	C 	0.79577	0.93876	0.52093	0.057
Mof_C 	C 	0.80052	0.01212	0.44923	0.065
Mof_C 	C 	0.99419	0.05652	0.46863	-0.242
Mof_C 	C 	0.98677	0.8926	0.50861	-0.362
Mof_C 	C 	0.00703	0.1264	0.39352	0.95
Mof_C 	C 	0.98166	0.82484	0.58947	1.318
Mof_C 	C 	0.6779	0.45536	0.05308	0.029
Mof_C 	C 	0.68564	0.52639	0.97526	0.052
Mof_C 	C 	0.31734	0.51781	0.93371	0.078
Mof_C 	C 	0.29909	0.44921	0.014	0.034
Mof_C 	C 	0.49393	0.40697	0.02638	-0.285
Mof_C 	C 	0.48802	0.56935	0.97167	-0.179
Mof_C 	C 	0.47715	0.33936	0.10678	1.112
Mof_C 	C 	0.49832	0.63451	0.88531	0.831
_end
