data_functionalizedCrystal
_audit_creation_method	'EQeq! by Chris Wilmer'
_symmetry_space_group_name_H-M	'P1'
_symmetry_Int_Tables_number	1
_symmetry_cell_setting	triclinic
loop_
_symmetry_equiv_pos_as_xyz
  x,y,z
_cell_length_a	32.318
_cell_length_b	29.354
_cell_length_c	18.5232
_cell_angle_alpha	90
_cell_angle_beta	104.277
_cell_angle_gamma	90
loop_
_atom_site_label
_atom_site_type_symbol
_atom_site_fract_x
_atom_site_fract_y
_atom_site_fract_z
_atom_site_charge
Mof_Er	Er	0.01436	0.22832	0.04623	1.639
Mof_O 	O 	0.03692	0.20545	0.1636	-0.547
Mof_O 	O 	0.04525	0.24637	0.2678	-0.552
Mof_O 	O 	0.46091	0.18313	0.6361	-0.606
Mof_O 	O 	0.45224	0.23387	0.546	-0.587
Mof_O 	O 	0.08177	0.77806	0.5188	-0.492
Mof_O 	O 	0.04683	0.83988	0.5155	-0.497
Mof_O 	O 	0.4526	0.79307	0.4089	-0.547
Mof_O 	O 	0.44612	0.82973	0.3028	-0.57
Mof_C 	C 	0.24582	0.03994	0.3985	0.069
Mof_C 	C 	0.20855	0.06385	0.3672	-0.12
Mof_H 	H 	0.1837	0.0479	0.3457	0.067
Mof_C 	C 	0.20785	0.11092	0.3674	0.026
Mof_C 	C 	0.24458	0.13549	0.4021	-0.094
Mof_H 	H 	0.2441	0.1672	0.4025	0.06
Mof_C 	C 	0.28184	0.11221	0.436	0.014
Mof_C 	C 	0.28194	0.06445	0.4333	-0.113
Mof_H 	H 	0.3069	0.0488	0.4554	0.067
Mof_C 	C 	0.16767	0.13716	0.3297	0.08
Mof_C 	C 	0.15455	0.17325	0.3664	-0.17
Mof_H 	H 	0.1706	0.181	0.4137	0.084
Mof_C 	C 	0.11854	0.198	0.3351	0.106
Mof_H 	H 	0.1104	0.2222	0.361	-0.006
Mof_C 	C 	0.09444	0.1865	0.2646	-0.213
Mof_C 	C 	0.10664	0.15034	0.2272	0.111
Mof_H 	H 	0.0908	0.1429	0.1796	-0.004
Mof_C 	C 	0.14241	0.12505	0.2603	-0.168
Mof_H 	H 	0.1496	0.0997	0.2358	0.085
Mof_C 	C 	0.05575	0.21519	0.2296	0.516
Mof_C 	C 	0.3214	0.13725	0.4725	0.11
Mof_C 	C 	0.34757	0.1202	0.5381	-0.207
Mof_H 	H 	0.3395	0.0941	0.5595	0.098
Mof_C 	C 	0.38538	0.1416	0.5717	0.162
Mof_H 	H 	0.4025	0.1299	0.6156	-0.029
Mof_C 	C 	0.39784	0.1803	0.5405	-0.272
Mof_C 	C 	0.37149	0.19813	0.4771	0.159
Mof_H 	H 	0.3792	0.2248	0.4568	-0.034
Mof_C 	C 	0.33358	0.17684	0.4432	-0.207
Mof_H 	H 	0.3161	0.1893	0.4002	0.097
Mof_C 	C 	0.43986	0.2019	0.5766	0.585
Mof_C 	C 	0.24737	0.98985	0.4023	-0.048
Mof_C 	C 	0.28265	0.96645	0.3933	-0.021
Mof_H 	H 	0.3048	0.9826	0.3812	0.034
Mof_C 	C 	0.2863	0.91832	0.4021	-0.068
Mof_C 	C 	0.25279	0.89496	0.4188	0.053
Mof_H 	H 	0.2545	0.8635	0.4245	-0
Mof_C 	C 	0.21633	0.91777	0.4273	-0.203
Mof_C 	C 	0.21416	0.9649	0.4193	0.043
Mof_H 	H 	0.19	0.9802	0.4254	0.001
Mof_C 	C 	0.18148	0.89259	0.45	0.514
Mof_C 	C 	0.1143	0.846	0.4881	-0.589
Mof_C 	C 	0.07927	0.8191	0.5081	0.539
Mof_C 	C 	0.32459	0.8941	0.3911	0.127
Mof_C 	C 	0.34066	0.85552	0.4352	-0.193
Mof_H 	H 	0.3268	0.8453	0.4706	0.095
Mof_C 	C 	0.37638	0.833	0.4264	0.13
Mof_H 	H 	0.387	0.8082	0.4567	-0.004
Mof_C 	C 	0.39677	0.84713	0.3723	-0.233
Mof_C 	C 	0.38048	0.88396	0.3275	0.141
Mof_H 	H 	0.393	0.8928	0.2895	-0.018
Mof_C 	C 	0.34592	0.90734	0.3391	-0.205
Mof_H 	H 	0.3366	0.9332	0.3106	0.097
Mof_C 	C 	0.43473	0.82094	0.3595	0.552
Mof_C 	C 	0.114	0.8864	0.4779	0.6
Mof_H 	H 	0.091	0.9031	0.4855	-0.168
Mof_C 	C 	0.1817	0.8506	0.4547	-0.53
Mof_H 	H 	0.1997	0.833	0.4338	0.208
Mof_C 	C 	0.1515	0.8284	0.4957	0.431
Mof_H 	H 	0.1597	0.8028	0.5254	-0.107
Mof_C 	C 	0.1463	0.9098	0.4554	-0.639
Mof_H 	H 	0.1416	0.9405	0.4433	0.24
Mof_Er	Er	0.51436	0.72832	0.04623	1.677
Mof_O 	O 	0.53692	0.70545	0.1636	-0.549
Mof_O 	O 	0.54525	0.74637	0.2678	-0.557
Mof_O 	O 	0.96091	0.68313	0.6361	-0.583
Mof_O 	O 	0.95224	0.73387	0.546	-0.567
Mof_O 	O 	0.58177	0.27806	0.5188	-0.493
Mof_O 	O 	0.54683	0.33988	0.5155	-0.494
Mof_O 	O 	0.9526	0.29307	0.4089	-0.543
Mof_O 	O 	0.94612	0.32973	0.3028	-0.553
Mof_C 	C 	0.74582	0.53994	0.3985	0.069
Mof_C 	C 	0.70855	0.56385	0.3672	-0.12
Mof_H 	H 	0.6837	0.5479	0.3457	0.069
Mof_C 	C 	0.70785	0.61092	0.3674	0.027
Mof_C 	C 	0.74458	0.63549	0.4021	-0.095
Mof_H 	H 	0.7441	0.6672	0.4025	0.061
Mof_C 	C 	0.78184	0.61221	0.436	0.017
Mof_C 	C 	0.78194	0.56445	0.4333	-0.114
Mof_H 	H 	0.8069	0.5488	0.4554	0.069
Mof_C 	C 	0.66767	0.63716	0.3297	0.082
Mof_C 	C 	0.65455	0.67325	0.3664	-0.17
Mof_H 	H 	0.6706	0.681	0.4137	0.085
Mof_C 	C 	0.61854	0.698	0.3351	0.109
Mof_H 	H 	0.6104	0.7222	0.361	-0.006
Mof_C 	C 	0.59444	0.6865	0.2646	-0.214
Mof_C 	C 	0.60664	0.65034	0.2272	0.113
Mof_H 	H 	0.5908	0.6429	0.1796	-0.003
Mof_C 	C 	0.64241	0.62505	0.2603	-0.168
Mof_H 	H 	0.6496	0.5997	0.2358	0.087
Mof_C 	C 	0.55575	0.71519	0.2296	0.522
Mof_C 	C 	0.8214	0.63725	0.4725	0.106
Mof_C 	C 	0.84757	0.6202	0.5381	-0.2
Mof_H 	H 	0.8395	0.5941	0.5595	0.097
Mof_C 	C 	0.88538	0.6416	0.5717	0.155
Mof_H 	H 	0.9025	0.6299	0.6156	-0.023
Mof_C 	C 	0.89784	0.6803	0.5405	-0.261
Mof_C 	C 	0.87149	0.69813	0.4771	0.152
Mof_H 	H 	0.8792	0.7248	0.4568	-0.029
Mof_C 	C 	0.83358	0.67684	0.4432	-0.201
Mof_H 	H 	0.8161	0.6893	0.4002	0.095
Mof_C 	C 	0.93986	0.7019	0.5766	0.574
Mof_C 	C 	0.74737	0.48985	0.4023	-0.045
Mof_C 	C 	0.78265	0.46645	0.3933	-0.023
Mof_H 	H 	0.8048	0.4826	0.3812	0.036
Mof_C 	C 	0.7863	0.41832	0.4021	-0.064
Mof_C 	C 	0.75279	0.39496	0.4188	0.049
Mof_H 	H 	0.7545	0.3635	0.4245	0.002
Mof_C 	C 	0.71633	0.41777	0.4273	-0.197
Mof_C 	C 	0.71416	0.4649	0.4193	0.04
Mof_H 	H 	0.69	0.4802	0.4254	0.003
Mof_C 	C 	0.68148	0.39259	0.45	0.504
Mof_C 	C 	0.6143	0.346	0.4881	-0.577
Mof_C 	C 	0.57927	0.3191	0.5081	0.536
Mof_C 	C 	0.82459	0.3941	0.3911	0.125
Mof_C 	C 	0.84066	0.35552	0.4352	-0.19
Mof_H 	H 	0.8268	0.3453	0.4706	0.095
Mof_C 	C 	0.87638	0.333	0.4264	0.128
Mof_H 	H 	0.887	0.3082	0.4567	-0.002
Mof_C 	C 	0.89677	0.34713	0.3723	-0.228
Mof_C 	C 	0.88048	0.38396	0.3275	0.138
Mof_H 	H 	0.893	0.3928	0.2895	-0.015
Mof_C 	C 	0.84592	0.40734	0.3391	-0.201
Mof_H 	H 	0.8366	0.4332	0.3106	0.098
Mof_C 	C 	0.93473	0.32094	0.3595	0.549
Mof_C 	C 	0.614	0.3864	0.4779	0.589
Mof_H 	H 	0.591	0.4031	0.4855	-0.161
Mof_C 	C 	0.6817	0.3506	0.4547	-0.521
Mof_H 	H 	0.6997	0.333	0.4338	0.206
Mof_C 	C 	0.6515	0.3284	0.4957	0.423
Mof_H 	H 	0.6597	0.3028	0.5254	-0.104
Mof_C 	C 	0.6463	0.4098	0.4554	-0.627
Mof_H 	H 	0.6416	0.4405	0.4433	0.238
Mof_Er	Er	0.98564	0.22832	0.45377	1.716
Mof_O 	O 	0.96308	0.20545	0.3364	-0.546
Mof_O 	O 	0.95475	0.24637	0.2322	-0.539
Mof_O 	O 	0.53909	0.18313	0.8639	-0.607
Mof_O 	O 	0.54776	0.23387	0.954	-0.588
Mof_O 	O 	0.91823	0.77806	0.9812	-0.493
Mof_O 	O 	0.95317	0.83988	0.9845	-0.492
Mof_O 	O 	0.5474	0.79307	0.0911	-0.547
Mof_O 	O 	0.55388	0.82973	0.1972	-0.57
Mof_C 	C 	0.75418	0.03994	0.1015	0.067
Mof_C 	C 	0.79145	0.06385	0.1328	-0.119
Mof_H 	H 	0.8163	0.0479	0.1543	0.069
Mof_C 	C 	0.79215	0.11092	0.1326	0.026
Mof_C 	C 	0.75542	0.13549	0.0979	-0.093
Mof_H 	H 	0.7559	0.1672	0.0975	0.06
Mof_C 	C 	0.71816	0.11221	0.064	0.013
Mof_C 	C 	0.71806	0.06445	0.0667	-0.111
Mof_H 	H 	0.6931	0.0488	0.0446	0.067
Mof_C 	C 	0.83233	0.13716	0.1703	0.082
Mof_C 	C 	0.84545	0.17325	0.1336	-0.168
Mof_H 	H 	0.8294	0.181	0.0863	0.085
Mof_C 	C 	0.88146	0.198	0.1649	0.108
Mof_H 	H 	0.8896	0.2222	0.139	-0.004
Mof_C 	C 	0.90556	0.1865	0.2354	-0.21
Mof_C 	C 	0.89336	0.15034	0.2728	0.113
Mof_H 	H 	0.9092	0.1429	0.3204	-0.001
Mof_C 	C 	0.85759	0.12505	0.2397	-0.166
Mof_H 	H 	0.8504	0.0997	0.2642	0.087
Mof_C 	C 	0.94425	0.21519	0.2704	0.52
Mof_C 	C 	0.6786	0.13725	0.0275	0.113
Mof_C 	C 	0.65243	0.1202	0.9619	-0.211
Mof_H 	H 	0.6605	0.0941	0.9405	0.099
Mof_C 	C 	0.61462	0.1416	0.9283	0.165
Mof_H 	H 	0.5975	0.1299	0.8844	-0.03
Mof_C 	C 	0.60216	0.1803	0.9595	-0.275
Mof_C 	C 	0.62851	0.19813	0.0229	0.162
Mof_H 	H 	0.6208	0.2248	0.0432	-0.035
Mof_C 	C 	0.66642	0.17684	0.0568	-0.21
Mof_H 	H 	0.6839	0.1893	0.0998	0.098
Mof_C 	C 	0.56014	0.2019	0.9234	0.586
Mof_C 	C 	0.75263	0.98985	0.0977	-0.043
Mof_C 	C 	0.71735	0.96645	0.1067	-0.025
Mof_H 	H 	0.6952	0.9826	0.1188	0.036
Mof_C 	C 	0.7137	0.91832	0.0979	-0.064
Mof_C 	C 	0.74721	0.89496	0.0812	0.047
Mof_H 	H 	0.7455	0.8635	0.0755	0.003
Mof_C 	C 	0.78367	0.91777	0.0727	-0.192
Mof_C 	C 	0.78584	0.9649	0.0807	0.037
Mof_H 	H 	0.81	0.9802	0.0746	0.005
Mof_C 	C 	0.81852	0.89259	0.05	0.496
Mof_C 	C 	0.8857	0.846	0.0119	-0.565
Mof_C 	C 	0.92073	0.8191	0.9919	0.53
Mof_C 	C 	0.67541	0.8941	0.1089	0.125
Mof_C 	C 	0.65934	0.85552	0.0648	-0.192
Mof_H 	H 	0.6732	0.8453	0.0294	0.095
Mof_C 	C 	0.62362	0.833	0.0736	0.129
Mof_H 	H 	0.613	0.8082	0.0433	-0.003
Mof_C 	C 	0.60323	0.84713	0.1277	-0.233
Mof_C 	C 	0.61952	0.88396	0.1725	0.14
Mof_H 	H 	0.607	0.8928	0.2105	-0.018
Mof_C 	C 	0.65408	0.90734	0.1609	-0.203
Mof_H 	H 	0.6634	0.9332	0.1894	0.097
Mof_C 	C 	0.56527	0.82094	0.1405	0.551
Mof_C 	C 	0.886	0.8864	0.0221	0.577
Mof_H 	H 	0.909	0.9031	0.0145	-0.153
Mof_C 	C 	0.8183	0.8506	0.0453	-0.513
Mof_H 	H 	0.8003	0.833	0.0662	0.204
Mof_C 	C 	0.8485	0.8284	0.0043	0.417
Mof_H 	H 	0.8403	0.8028	0.9746	-0.103
Mof_C 	C 	0.8537	0.9098	0.0446	-0.615
Mof_H 	H 	0.8584	0.9405	0.0567	0.236
Mof_Er	Er	0.48564	0.72832	0.45377	1.676
Mof_O 	O 	0.46308	0.70545	0.3364	-0.549
Mof_O 	O 	0.45475	0.74637	0.2322	-0.557
Mof_O 	O 	0.03909	0.68313	0.8639	-0.606
Mof_O 	O 	0.04776	0.73387	0.954	-0.602
Mof_O 	O 	0.41823	0.27806	0.9812	-0.493
Mof_O 	O 	0.45317	0.33988	0.9845	-0.494
Mof_O 	O 	0.0474	0.29307	0.0911	-0.545
Mof_O 	O 	0.05388	0.32973	0.1972	-0.565
Mof_C 	C 	0.25418	0.53994	0.1015	0.067
Mof_C 	C 	0.29145	0.56385	0.1328	-0.119
Mof_H 	H 	0.3163	0.5479	0.1543	0.068
Mof_C 	C 	0.29215	0.61092	0.1326	0.025
Mof_C 	C 	0.25542	0.63549	0.0979	-0.093
Mof_H 	H 	0.2559	0.6672	0.0975	0.059
Mof_C 	C 	0.21816	0.61221	0.064	0.012
Mof_C 	C 	0.21806	0.56445	0.0667	-0.112
Mof_H 	H 	0.1931	0.5488	0.0446	0.066
Mof_C 	C 	0.33233	0.63716	0.1703	0.082
Mof_C 	C 	0.34545	0.67325	0.1336	-0.171
Mof_H 	H 	0.3294	0.681	0.0863	0.085
Mof_C 	C 	0.38146	0.698	0.1649	0.109
Mof_H 	H 	0.3896	0.7222	0.139	-0.006
Mof_C 	C 	0.40556	0.6865	0.2354	-0.214
Mof_C 	C 	0.39336	0.65034	0.2728	0.114
Mof_H 	H 	0.4092	0.6429	0.3204	-0.003
Mof_C 	C 	0.35759	0.62505	0.2397	-0.168
Mof_H 	H 	0.3504	0.5997	0.2642	0.087
Mof_C 	C 	0.44425	0.71519	0.2704	0.522
Mof_C 	C 	0.1786	0.63725	0.0275	0.113
Mof_C 	C 	0.15243	0.6202	0.9619	-0.211
Mof_H 	H 	0.1605	0.5941	0.9405	0.099
Mof_C 	C 	0.11462	0.6416	0.9283	0.165
Mof_H 	H 	0.0975	0.6299	0.8844	-0.031
Mof_C 	C 	0.10216	0.6803	0.9595	-0.277
Mof_C 	C 	0.12851	0.69813	0.0229	0.162
Mof_H 	H 	0.1208	0.7248	0.0432	-0.037
Mof_C 	C 	0.16642	0.67684	0.0568	-0.211
Mof_H 	H 	0.1839	0.6893	0.0998	0.097
Mof_C 	C 	0.06014	0.7019	0.9234	0.586
Mof_C 	C 	0.25263	0.48985	0.0977	-0.046
Mof_C 	C 	0.21735	0.46645	0.1067	-0.023
Mof_H 	H 	0.1952	0.4826	0.1188	0.034
Mof_C 	C 	0.2137	0.41832	0.0979	-0.066
Mof_C 	C 	0.24721	0.39496	0.0812	0.05
Mof_H 	H 	0.2455	0.3635	0.0755	0.001
Mof_C 	C 	0.28367	0.41777	0.0727	-0.198
Mof_C 	C 	0.28584	0.4649	0.0807	0.04
Mof_H 	H 	0.31	0.4802	0.0746	0.003
Mof_C 	C 	0.31852	0.39259	0.05	0.505
Mof_C 	C 	0.3857	0.346	0.0119	-0.578
Mof_C 	C 	0.42073	0.3191	0.9919	0.535
Mof_C 	C 	0.17541	0.3941	0.1089	0.125
Mof_C 	C 	0.15934	0.35552	0.0648	-0.192
Mof_H 	H 	0.1732	0.3453	0.0294	0.094
Mof_C 	C 	0.12362	0.333	0.0736	0.127
Mof_H 	H 	0.113	0.3082	0.0433	-0.004
Mof_C 	C 	0.10323	0.34713	0.1277	-0.232
Mof_C 	C 	0.11952	0.38396	0.1725	0.138
Mof_H 	H 	0.107	0.3928	0.2105	-0.019
Mof_C 	C 	0.15408	0.40734	0.1609	-0.204
Mof_H 	H 	0.1634	0.4332	0.1894	0.096
Mof_C 	C 	0.06527	0.32094	0.1405	0.546
Mof_C 	C 	0.386	0.3864	0.0221	0.589
Mof_H 	H 	0.409	0.4031	0.0145	-0.161
Mof_C 	C 	0.3183	0.3506	0.0453	-0.522
Mof_H 	H 	0.3003	0.333	0.0662	0.206
Mof_C 	C 	0.3485	0.3284	0.0043	0.424
Mof_H 	H 	0.3403	0.3028	0.9746	-0.105
Mof_C 	C 	0.3537	0.4098	0.0446	-0.628
Mof_H 	H 	0.3584	0.4405	0.0567	0.238
Mof_Er	Er	0.98564	0.77168	0.95377	1.714
Mof_O 	O 	0.96308	0.79455	0.8364	-0.546
Mof_O 	O 	0.95475	0.75363	0.7322	-0.539
Mof_O 	O 	0.53909	0.81687	0.3639	-0.607
Mof_O 	O 	0.54776	0.76613	0.454	-0.587
Mof_O 	O 	0.91823	0.22194	0.4812	-0.493
Mof_O 	O 	0.95317	0.16012	0.4845	-0.491
Mof_O 	O 	0.5474	0.20693	0.5911	-0.547
Mof_O 	O 	0.55388	0.17027	0.6972	-0.57
Mof_C 	C 	0.75418	0.96006	0.6015	0.068
Mof_C 	C 	0.79145	0.93615	0.6328	-0.119
Mof_H 	H 	0.8163	0.9521	0.6543	0.069
Mof_C 	C 	0.79215	0.88908	0.6326	0.027
Mof_C 	C 	0.75542	0.86451	0.5979	-0.094
Mof_H 	H 	0.7559	0.8328	0.5975	0.06
Mof_C 	C 	0.71816	0.88779	0.564	0.014
Mof_C 	C 	0.71806	0.93555	0.5667	-0.112
Mof_H 	H 	0.6931	0.9512	0.5446	0.067
Mof_C 	C 	0.83233	0.86284	0.6703	0.081
Mof_C 	C 	0.84545	0.82675	0.6336	-0.168
Mof_H 	H 	0.8294	0.819	0.5863	0.085
Mof_C 	C 	0.88146	0.802	0.6649	0.108
Mof_H 	H 	0.8896	0.7778	0.639	-0.004
Mof_C 	C 	0.90556	0.8135	0.7354	-0.21
Mof_C 	C 	0.89336	0.84966	0.7728	0.113
Mof_H 	H 	0.9092	0.8571	0.8204	-0.002
Mof_C 	C 	0.85759	0.87495	0.7397	-0.166
Mof_H 	H 	0.8504	0.9003	0.7642	0.087
Mof_C 	C 	0.94425	0.78481	0.7704	0.52
Mof_C 	C 	0.6786	0.86275	0.5275	0.11
Mof_C 	C 	0.65243	0.8798	0.4619	-0.207
Mof_H 	H 	0.6605	0.9059	0.4405	0.098
Mof_C 	C 	0.61462	0.8584	0.4283	0.163
Mof_H 	H 	0.5975	0.8701	0.3844	-0.029
Mof_C 	C 	0.60216	0.8197	0.4595	-0.272
Mof_C 	C 	0.62851	0.80187	0.5229	0.159
Mof_H 	H 	0.6208	0.7752	0.5432	-0.034
Mof_C 	C 	0.66642	0.82316	0.5568	-0.207
Mof_H 	H 	0.6839	0.8107	0.5998	0.097
Mof_C 	C 	0.56014	0.7981	0.4234	0.585
Mof_C 	C 	0.75263	0.01015	0.5977	-0.043
Mof_C 	C 	0.71735	0.03355	0.6067	-0.025
Mof_H 	H 	0.6952	0.0174	0.6188	0.036
Mof_C 	C 	0.7137	0.08168	0.5979	-0.064
Mof_C 	C 	0.74721	0.10504	0.5812	0.046
Mof_H 	H 	0.7455	0.1365	0.5755	0.003
Mof_C 	C 	0.78367	0.08223	0.5727	-0.192
Mof_C 	C 	0.78584	0.0351	0.5807	0.037
Mof_H 	H 	0.81	0.0198	0.5746	0.005
Mof_C 	C 	0.81852	0.10741	0.55	0.495
Mof_C 	C 	0.8857	0.154	0.5119	-0.566
Mof_C 	C 	0.92073	0.1809	0.4919	0.532
Mof_C 	C 	0.67541	0.1059	0.6089	0.125
Mof_C 	C 	0.65934	0.14448	0.5648	-0.192
Mof_H 	H 	0.6732	0.1547	0.5294	0.094
Mof_C 	C 	0.62362	0.167	0.5736	0.129
Mof_H 	H 	0.613	0.1918	0.5433	-0.003
Mof_C 	C 	0.60323	0.15287	0.6277	-0.233
Mof_C 	C 	0.61952	0.11604	0.6725	0.14
Mof_H 	H 	0.607	0.1072	0.7105	-0.018
Mof_C 	C 	0.65408	0.09266	0.6609	-0.203
Mof_H 	H 	0.6634	0.0668	0.6894	0.097
Mof_C 	C 	0.56527	0.17906	0.6405	0.551
Mof_C 	C 	0.886	0.1136	0.5221	0.577
Mof_H 	H 	0.909	0.0969	0.5145	-0.154
Mof_C 	C 	0.8183	0.1494	0.5453	-0.511
Mof_H 	H 	0.8003	0.167	0.5662	0.203
Mof_C 	C 	0.8485	0.1716	0.5043	0.414
Mof_H 	H 	0.8403	0.1972	0.4746	-0.101
Mof_C 	C 	0.8537	0.0902	0.5446	-0.615
Mof_H 	H 	0.8584	0.0595	0.5567	0.235
Mof_Er	Er	0.48564	0.27168	0.95377	1.676
Mof_O 	O 	0.46308	0.29455	0.8364	-0.549
Mof_O 	O 	0.45475	0.25363	0.7322	-0.557
Mof_O 	O 	0.03909	0.31687	0.3639	-0.606
Mof_O 	O 	0.04776	0.26613	0.454	-0.603
Mof_O 	O 	0.41823	0.72194	0.4812	-0.493
Mof_O 	O 	0.45317	0.66012	0.4845	-0.494
Mof_O 	O 	0.0474	0.70693	0.5911	-0.545
Mof_O 	O 	0.05388	0.67027	0.6972	-0.565
Mof_C 	C 	0.25418	0.46006	0.6015	0.068
Mof_C 	C 	0.29145	0.43615	0.6328	-0.119
Mof_H 	H 	0.3163	0.4521	0.6543	0.068
Mof_C 	C 	0.29215	0.38908	0.6326	0.025
Mof_C 	C 	0.25542	0.36451	0.5979	-0.093
Mof_H 	H 	0.2559	0.3328	0.5975	0.059
Mof_C 	C 	0.21816	0.38779	0.564	0.013
Mof_C 	C 	0.21806	0.43555	0.5667	-0.112
Mof_H 	H 	0.1931	0.4512	0.5446	0.066
Mof_C 	C 	0.33233	0.36284	0.6703	0.082
Mof_C 	C 	0.34545	0.32675	0.6336	-0.171
Mof_H 	H 	0.3294	0.319	0.5863	0.085
Mof_C 	C 	0.38146	0.302	0.6649	0.109
Mof_H 	H 	0.3896	0.2778	0.639	-0.006
Mof_C 	C 	0.40556	0.3135	0.7354	-0.214
Mof_C 	C 	0.39336	0.34966	0.7728	0.113
Mof_H 	H 	0.4092	0.3571	0.8204	-0.003
Mof_C 	C 	0.35759	0.37495	0.7397	-0.168
Mof_H 	H 	0.3504	0.4003	0.7642	0.087
Mof_C 	C 	0.44425	0.28481	0.7704	0.522
Mof_C 	C 	0.1786	0.36275	0.5275	0.111
Mof_C 	C 	0.15243	0.3798	0.4619	-0.209
Mof_H 	H 	0.1605	0.4059	0.4405	0.098
Mof_C 	C 	0.11462	0.3584	0.4283	0.163
Mof_H 	H 	0.0975	0.3701	0.3844	-0.031
Mof_C 	C 	0.10216	0.3197	0.4595	-0.275
Mof_C 	C 	0.12851	0.30187	0.5229	0.16
Mof_H 	H 	0.1208	0.2752	0.5432	-0.037
Mof_C 	C 	0.16642	0.32316	0.5568	-0.21
Mof_H 	H 	0.1839	0.3107	0.5998	0.097
Mof_C 	C 	0.06014	0.2981	0.4234	0.585
Mof_C 	C 	0.25263	0.51015	0.5977	-0.046
Mof_C 	C 	0.21735	0.53355	0.6067	-0.023
Mof_H 	H 	0.1952	0.5174	0.6188	0.034
Mof_C 	C 	0.2137	0.58168	0.5979	-0.066
Mof_C 	C 	0.24721	0.60504	0.5812	0.05
Mof_H 	H 	0.2455	0.6365	0.5755	0.001
Mof_C 	C 	0.28367	0.58223	0.5727	-0.198
Mof_C 	C 	0.28584	0.5351	0.5807	0.04
Mof_H 	H 	0.31	0.5198	0.5746	0.003
Mof_C 	C 	0.31852	0.60741	0.55	0.505
Mof_C 	C 	0.3857	0.654	0.5119	-0.578
Mof_C 	C 	0.42073	0.6809	0.4919	0.536
Mof_C 	C 	0.17541	0.6059	0.6089	0.125
Mof_C 	C 	0.15934	0.64448	0.5648	-0.192
Mof_H 	H 	0.1732	0.6547	0.5294	0.094
Mof_C 	C 	0.12362	0.667	0.5736	0.127
Mof_H 	H 	0.113	0.6918	0.5433	-0.004
Mof_C 	C 	0.10323	0.65287	0.6277	-0.232
Mof_C 	C 	0.11952	0.61604	0.6725	0.138
Mof_H 	H 	0.107	0.6072	0.7105	-0.019
Mof_C 	C 	0.15408	0.59266	0.6609	-0.204
Mof_H 	H 	0.1634	0.5668	0.6894	0.096
Mof_C 	C 	0.06527	0.67906	0.6405	0.546
Mof_C 	C 	0.386	0.6136	0.5221	0.589
Mof_H 	H 	0.409	0.5969	0.5145	-0.161
Mof_C 	C 	0.3183	0.6494	0.5453	-0.521
Mof_H 	H 	0.3003	0.667	0.5662	0.206
Mof_C 	C 	0.3485	0.6716	0.5043	0.423
Mof_H 	H 	0.3403	0.6972	0.4746	-0.104
Mof_C 	C 	0.3537	0.5902	0.5446	-0.628
Mof_H 	H 	0.3584	0.5595	0.5567	0.238
Mof_Er	Er	0.01436	0.77168	0.54623	1.638
Mof_O 	O 	0.03692	0.79455	0.6636	-0.548
Mof_O 	O 	0.04525	0.75363	0.7678	-0.553
Mof_O 	O 	0.46091	0.81687	0.1361	-0.606
Mof_O 	O 	0.45224	0.76613	0.046	-0.587
Mof_O 	O 	0.08177	0.22194	0.0188	-0.492
Mof_O 	O 	0.04683	0.16012	0.0155	-0.497
Mof_O 	O 	0.4526	0.20693	0.9089	-0.547
Mof_O 	O 	0.44612	0.17027	0.8028	-0.57
Mof_C 	C 	0.24582	0.96006	0.8985	0.069
Mof_C 	C 	0.20855	0.93615	0.8672	-0.12
Mof_H 	H 	0.1837	0.9521	0.8457	0.067
Mof_C 	C 	0.20785	0.88908	0.8674	0.026
Mof_C 	C 	0.24458	0.86451	0.9021	-0.095
Mof_H 	H 	0.2441	0.8328	0.9025	0.06
Mof_C 	C 	0.28184	0.88779	0.936	0.015
Mof_C 	C 	0.28194	0.93555	0.9333	-0.114
Mof_H 	H 	0.3069	0.9512	0.9554	0.067
Mof_C 	C 	0.16767	0.86284	0.8297	0.08
Mof_C 	C 	0.15455	0.82675	0.8664	-0.17
Mof_H 	H 	0.1706	0.819	0.9137	0.083
Mof_C 	C 	0.11854	0.802	0.8351	0.106
Mof_H 	H 	0.1104	0.7778	0.861	-0.006
Mof_C 	C 	0.09444	0.8135	0.7646	-0.213
Mof_C 	C 	0.10664	0.84966	0.7272	0.111
Mof_H 	H 	0.0908	0.8571	0.6796	-0.004
Mof_C 	C 	0.14241	0.87495	0.7603	-0.167
Mof_H 	H 	0.1496	0.9003	0.7358	0.085
Mof_C 	C 	0.05575	0.78481	0.7296	0.516
Mof_C 	C 	0.3214	0.86275	0.9725	0.108
Mof_C 	C 	0.34757	0.8798	0.0381	-0.205
Mof_H 	H 	0.3395	0.9059	0.0595	0.097
Mof_C 	C 	0.38538	0.8584	0.0717	0.161
Mof_H 	H 	0.4025	0.8701	0.1156	-0.028
Mof_C 	C 	0.39784	0.8197	0.0405	-0.269
Mof_C 	C 	0.37149	0.80187	0.9771	0.156
Mof_H 	H 	0.3792	0.7752	0.9568	-0.033
Mof_C 	C 	0.33358	0.82316	0.9432	-0.205
Mof_H 	H 	0.3161	0.8107	0.9002	0.096
Mof_C 	C 	0.43986	0.7981	0.0766	0.584
Mof_C 	C 	0.24737	0.01015	0.9023	-0.048
Mof_C 	C 	0.28265	0.03355	0.8933	-0.021
Mof_H 	H 	0.3048	0.0174	0.8812	0.034
Mof_C 	C 	0.2863	0.08168	0.9021	-0.068
Mof_C 	C 	0.25279	0.10504	0.9188	0.053
Mof_H 	H 	0.2545	0.1365	0.9245	-0
Mof_C 	C 	0.21633	0.08223	0.9273	-0.203
Mof_C 	C 	0.21416	0.0351	0.9193	0.043
Mof_H 	H 	0.19	0.0198	0.9254	0.001
Mof_C 	C 	0.18148	0.10741	0.95	0.513
Mof_C 	C 	0.1143	0.154	0.9881	-0.589
Mof_C 	C 	0.07927	0.1809	0.0081	0.539
Mof_C 	C 	0.32459	0.1059	0.8911	0.127
Mof_C 	C 	0.34066	0.14448	0.9352	-0.193
Mof_H 	H 	0.3268	0.1547	0.9706	0.095
Mof_C 	C 	0.37638	0.167	0.9264	0.13
Mof_H 	H 	0.387	0.1918	0.9567	-0.004
Mof_C 	C 	0.39677	0.15287	0.8723	-0.233
Mof_C 	C 	0.38048	0.11604	0.8275	0.14
Mof_H 	H 	0.393	0.1072	0.7895	-0.018
Mof_C 	C 	0.34592	0.09266	0.8391	-0.205
Mof_H 	H 	0.3366	0.0668	0.8106	0.097
Mof_C 	C 	0.43473	0.17906	0.8595	0.552
Mof_C 	C 	0.114	0.1136	0.9779	0.6
Mof_H 	H 	0.091	0.0969	0.9855	-0.168
Mof_C 	C 	0.1817	0.1494	0.9547	-0.53
Mof_H 	H 	0.1997	0.167	0.9338	0.208
Mof_C 	C 	0.1515	0.1716	0.9957	0.43
Mof_H 	H 	0.1597	0.1972	0.0254	-0.107
Mof_C 	C 	0.1463	0.0902	0.9554	-0.639
Mof_H 	H 	0.1416	0.0595	0.9433	0.24
Mof_Er	Er	0.51436	0.27168	0.54623	1.676
Mof_O 	O 	0.53692	0.29455	0.6636	-0.549
Mof_O 	O 	0.54525	0.25363	0.7678	-0.557
Mof_O 	O 	0.96091	0.31687	0.1361	-0.581
Mof_O 	O 	0.95224	0.26613	0.046	-0.566
Mof_O 	O 	0.58177	0.72194	0.0188	-0.492
Mof_O 	O 	0.54683	0.66012	0.0155	-0.494
Mof_O 	O 	0.9526	0.70693	0.9089	-0.543
Mof_O 	O 	0.94612	0.67027	0.8028	-0.553
Mof_C 	C 	0.74582	0.46006	0.8985	0.07
Mof_C 	C 	0.70855	0.43615	0.8672	-0.121
Mof_H 	H 	0.6837	0.4521	0.8457	0.069
Mof_C 	C 	0.70785	0.38908	0.8674	0.028
Mof_C 	C 	0.74458	0.36451	0.9021	-0.097
Mof_H 	H 	0.7441	0.3328	0.9025	0.061
Mof_C 	C 	0.78184	0.38779	0.936	0.019
Mof_C 	C 	0.78194	0.43555	0.9333	-0.116
Mof_H 	H 	0.8069	0.4512	0.9554	0.069
Mof_C 	C 	0.66767	0.36284	0.8297	0.081
Mof_C 	C 	0.65455	0.32675	0.8664	-0.17
Mof_H 	H 	0.6706	0.319	0.9137	0.084
Mof_C 	C 	0.61854	0.302	0.8351	0.109
Mof_H 	H 	0.6104	0.2778	0.861	-0.006
Mof_C 	C 	0.59444	0.3135	0.7646	-0.213
Mof_C 	C 	0.60664	0.34966	0.7272	0.113
Mof_H 	H 	0.5908	0.3571	0.6796	-0.003
Mof_C 	C 	0.64241	0.37495	0.7603	-0.167
Mof_H 	H 	0.6496	0.4003	0.7358	0.086
Mof_C 	C 	0.55575	0.28481	0.7296	0.522
Mof_C 	C 	0.8214	0.36275	0.9725	0.1
Mof_C 	C 	0.84757	0.3798	0.0381	-0.193
Mof_H 	H 	0.8395	0.4059	0.0595	0.095
Mof_C 	C 	0.88538	0.3584	0.0717	0.15
Mof_H 	H 	0.9025	0.3701	0.1156	-0.021
Mof_C 	C 	0.89784	0.3197	0.0405	-0.255
Mof_C 	C 	0.87149	0.30187	0.9771	0.144
Mof_H 	H 	0.8792	0.2752	0.9568	-0.027
Mof_C 	C 	0.83358	0.32316	0.9432	-0.195
Mof_H 	H 	0.8161	0.3107	0.9002	0.093
Mof_C 	C 	0.93986	0.2981	0.0766	0.571
Mof_C 	C 	0.74737	0.51015	0.9023	-0.045
Mof_C 	C 	0.78265	0.53355	0.8933	-0.024
Mof_H 	H 	0.8048	0.5174	0.8812	0.036
Mof_C 	C 	0.7863	0.58168	0.9021	-0.064
Mof_C 	C 	0.75279	0.60504	0.9188	0.048
Mof_H 	H 	0.7545	0.6365	0.9245	0.002
Mof_C 	C 	0.71633	0.58223	0.9273	-0.196
Mof_C 	C 	0.71416	0.5351	0.9193	0.039
Mof_H 	H 	0.69	0.5198	0.9254	0.003
Mof_C 	C 	0.68148	0.60741	0.95	0.501
Mof_C 	C 	0.6143	0.654	0.9881	-0.575
Mof_C 	C 	0.57927	0.6809	0.0081	0.535
Mof_C 	C 	0.82459	0.6059	0.8911	0.125
Mof_C 	C 	0.84066	0.64448	0.9352	-0.19
Mof_H 	H 	0.8268	0.6547	0.9706	0.094
Mof_C 	C 	0.87638	0.667	0.9264	0.128
Mof_H 	H 	0.887	0.6918	0.9567	-0.002
Mof_C 	C 	0.89677	0.65287	0.8723	-0.229
Mof_C 	C 	0.88048	0.61604	0.8275	0.138
Mof_H 	H 	0.893	0.6072	0.7895	-0.015
Mof_C 	C 	0.84592	0.59266	0.8391	-0.201
Mof_H 	H 	0.8366	0.5668	0.8106	0.097
Mof_C 	C 	0.93473	0.67906	0.8595	0.549
Mof_C 	C 	0.614	0.6136	0.9779	0.586
Mof_H 	H 	0.591	0.5969	0.9855	-0.16
Mof_C 	C 	0.6817	0.6494	0.9547	-0.518
Mof_H 	H 	0.6997	0.667	0.9338	0.204
Mof_C 	C 	0.6515	0.6716	0.9957	0.418
Mof_H 	H 	0.6597	0.6972	0.0254	-0.102
Mof_C 	C 	0.6463	0.5902	0.9554	-0.624
Mof_H 	H 	0.6416	0.5595	0.9433	0.236
Mof_Er	Er	-6.67586e-18	0.30618	0.25	2.054
Mof_Er	Er	0.5	0.80618	0.25	2.124
Mof_Er	Er	2.00921e-33	0.69382	0.75	2.056
Mof_Er	Er	0.5	0.19382	0.75	2.124
_end
