data_functionalizedCrystal
_audit_creation_method	'EQeq! by Chris Wilmer'
_symmetry_space_group_name_H-M	'P1'
_symmetry_Int_Tables_number	1
_symmetry_cell_setting	triclinic
loop_
_symmetry_equiv_pos_as_xyz
  x,y,z
_cell_length_a	7.6118
_cell_length_b	9.8253
_cell_length_c	14.748
_cell_angle_alpha	90
_cell_angle_beta	98.14
_cell_angle_gamma	90
loop_
_atom_site_label
_atom_site_type_symbol
_atom_site_fract_x
_atom_site_fract_y
_atom_site_fract_z
_atom_site_charge
Mof_Tb	Tb	0.60121	0.76217	0.88922	2.162
Mof_Tb	Tb	0.10127	0.17132	0.38929	2.106
Mof_Tb	Tb	0.39879	0.26217	0.11078	2.163
Mof_Tb	Tb	0.89873	0.67132	0.61071	2.103
Mof_H 	H 	0.653	0.5346	0.2651	-0.043
Mof_H 	H 	0.4508	0.829	0.3895	-0.043
Mof_H 	H 	0.4139	0.8228	0.1079	-0.072
Mof_H 	H 	0.9456	0.0909	0.6218	-0.053
Mof_H 	H 	0.9524	0.105	0.8851	-0.04
Mof_H 	H 	0.1065	0.4267	0.7649	-0.004
Mof_H 	H 	0.347	0.0346	0.7349	-0.043
Mof_H 	H 	0.5492	0.329	0.6105	-0.043
Mof_H 	H 	0.5861	0.3228	0.8921	-0.072
Mof_H 	H 	0.0544	0.5909	0.3782	-0.056
Mof_H 	H 	0.0476	0.605	0.1149	-0.043
Mof_H 	H 	0.8935	0.9267	0.2351	-0.005
Mof_C 	C 	0.5521	0.5814	0.0897	0.642
Mof_C 	C 	0.515	0.6571	0.1734	-0.357
Mof_C 	C 	0.5789	0.6103	0.2613	0.235
Mof_C 	C 	0.4728	0.7885	0.3352	0.164
Mof_C 	C 	0.4329	0.8545	0.2512	-0.296
Mof_C 	C 	0.4484	0.7828	0.1648	0.246
Mof_C 	C 	0.3528	0.986	0.2465	0.56
Mof_C 	C 	0.0627	0.3515	0.5955	0.485
Mof_C 	C 	0.0432	0.2717	0.6777	-0.258
Mof_C 	C 	0.9636	0.1394	0.6765	0.215
Mof_C 	C 	0.9147	0.0841	0.7513	-0.298
Mof_C 	C 	0.9766	0.1484	0.8323	0.179
Mof_C 	C 	0.0763	0.3349	0.7621	0.131
Mof_C 	C 	0.8287	0.942	0.7523	0.64
Mof_C 	C 	0.2838	0.7506	0.7099	0.246
Mof_C 	C 	0.2017	0.6866	0.7887	0.291
Mof_C 	C 	0.4479	0.0814	0.9103	0.645
Mof_C 	C 	0.485	0.1571	0.8266	-0.357
Mof_C 	C 	0.4211	0.1103	0.7387	0.236
Mof_C 	C 	0.5272	0.2885	0.6648	0.164
Mof_C 	C 	0.5671	0.3545	0.7488	-0.297
Mof_C 	C 	0.5516	0.2828	0.8352	0.247
Mof_C 	C 	0.6472	0.486	0.7535	0.561
Mof_C 	C 	0.9373	0.8515	0.4045	0.486
Mof_C 	C 	0.9568	0.7717	0.3223	-0.261
Mof_C 	C 	0.0364	0.6394	0.3235	0.22
Mof_C 	C 	0.0853	0.5841	0.2487	-0.306
Mof_C 	C 	0.0234	0.6484	0.1677	0.183
Mof_C 	C 	0.9237	0.8349	0.2379	0.132
Mof_C 	C 	0.1713	0.442	0.2477	0.647
Mof_C 	C 	0.7162	0.2506	0.2901	0.246
Mof_C 	C 	0.7983	0.1866	0.2113	0.292
Mof_N 	N 	0.5475	0.6586	0.3343	-0.208
Mof_N 	N 	0.0652	0.2626	0.845	-0.184
Mof_N 	N 	0.4525	0.1586	0.6657	-0.208
Mof_N 	N 	0.9348	0.7626	0.155	-0.185
Mof_O 	O 	0.5575	0.6303	0.0189	-0.638
Mof_O 	O 	0.5839	0.4554	0.1026	-0.566
Mof_O 	O 	0.2676	0.0187	0.3145	-0.563
Mof_O 	O 	0.3439	0.0575	0.1758	-0.589
Mof_O 	O 	0.0533	0.2834	0.5185	-0.567
Mof_O 	O 	0.0807	0.4822	0.6024	-0.535
Mof_O 	O 	0.7753	0.9035	0.8203	-0.669
Mof_O 	O 	0.842	0.8715	0.6819	-0.608
Mof_O 	O 	0.4562	0.7779	0.7298	-0.415
Mof_O 	O 	0.3051	0.6743	0.8648	-0.441
Mof_O 	O 	0.1982	0.7677	0.6359	-0.421
Mof_O 	O 	0.0481	0.6526	0.7712	-0.432
Mof_O 	O 	0.4425	0.1303	0.9811	-0.639
Mof_O 	O 	0.4161	0.9554	0.8974	-0.568
Mof_O 	O 	0.7324	0.5187	0.6855	-0.563
Mof_O 	O 	0.6561	0.5575	0.8242	-0.589
Mof_O 	O 	0.9467	0.7834	0.4815	-0.568
Mof_O 	O 	0.9193	0.9822	0.3976	-0.539
Mof_O 	O 	0.2247	0.4035	0.1797	-0.669
Mof_O 	O 	0.158	0.3715	0.3181	-0.608
Mof_O 	O 	0.5438	0.2779	0.2702	-0.415
Mof_O 	O 	0.6949	0.1743	0.1352	-0.441
Mof_O 	O 	0.8018	0.2677	0.3641	-0.421
Mof_O 	O 	0.9519	0.1526	0.2288	-0.431
_end
