data_functionalizedCrystal
_audit_creation_method	'EQeq! by Chris Wilmer'
_symmetry_space_group_name_H-M	'P1'
_symmetry_Int_Tables_number	1
_symmetry_cell_setting	triclinic
loop_
_symmetry_equiv_pos_as_xyz
  x,y,z
_cell_length_a	51.8593
_cell_length_b	51.8593
_cell_length_c	51.8593
_cell_angle_alpha	60
_cell_angle_beta	60
_cell_angle_gamma	60
loop_
_atom_site_label
_atom_site_type_symbol
_atom_site_fract_x
_atom_site_fract_y
_atom_site_fract_z
_atom_site_charge
Mof_Fe	Fe	0.74605	0.4083	0.8907	1.075
Mof_Fe	Fe	0.3204	0.66463	0.90422	1.091
Mof_O 	O 	0.76148	0.5796	0.80449	-0.434
Mof_O 	O 	0.73977	0.6448	0.78277	-0.435
Mof_O 	O 	0.55891	0.50515	0.94315	-0.425
Mof_O 	O 	0.44692	0.50294	0.00361	-0.397
Mof_O 	O 	0.53294	0.4783	0.94822	-0.413
Mof_O 	O 	0.72999	0.48575	0.86729	-0.44
Mof_O 	O 	0.67745	0.46755	0.90275	-0.438
Mof_O 	O 	0.7569	0.44227	0.85386	-0.43
Mof_O 	O 	0.78959	0.39214	0.88763	-0.412
Mof_O 	O 	0.7362	0.37165	0.92464	-0.416
Mof_O 	O 	0.70413	0.42312	0.89082	-0.426
Mof_O 	O 	0.2813	0.65536	0.98068	-0.408
Mof_O 	O 	0.30249	0.5942	0.00054	-0.389
Mof_O 	O 	0.30972	0.68141	0.93474	-0.427
Mof_O 	O 	0.34765	0.56744	0.9716	-0.406
Mof_O 	O 	0.3326	0.6527	0.87001	-0.441
Mof_O 	O 	0.36294	0.64991	0.90239	-0.427
Mof_C 	C 	0.3788	0.53959	0.0173	0.055
Mof_C 	C 	0.34653	0.56028	0.02232	-0.111
Mof_C 	C 	0.33096	0.57457	0.99691	0.386
Mof_C 	C 	0.76403	0.52116	0.81069	0.099
Mof_C 	C 	0.76922	0.48951	0.81663	-0.165
Mof_C 	C 	0.75051	0.47145	0.84758	0.447
Mof_C 	C 	0.64876	0.4199	0.8975	0.096
Mof_C 	C 	0.59137	0.43677	0.91815	0.091
Mof_C 	C 	0.64825	0.44538	0.90079	-0.16
Mof_C 	C 	0.58962	0.46329	0.9212	-0.15
Mof_C 	C 	0.61855	0.46721	0.91227	0.09
Mof_C 	C 	0.62086	0.4147	0.90679	-0.163
Mof_C 	C 	0.55842	0.48382	0.9381	0.424
Mof_C 	C 	0.62293	0.38413	0.9085	0.445
Mof_C 	C 	0.67862	0.44572	0.89726	0.441
Mof_C 	C 	0.70667	0.32335	0.00835	0.076
Mof_C 	C 	0.68809	0.30301	0.02847	-0.138
Mof_C 	C 	0.29698	0.67445	0.96451	0.418
Mof_Fe	Fe	0.4083	0.74605	0.95494	1.074
Mof_Fe	Fe	0.66463	0.3204	0.11076	1.09
Mof_O 	O 	0.5796	0.76148	0.85443	-0.435
Mof_O 	O 	0.6448	0.73977	0.83266	-0.436
Mof_O 	O 	0.50515	0.55891	0.99279	-0.427
Mof_O 	O 	0.50294	0.44692	0.04653	-0.399
Mof_O 	O 	0.4783	0.53294	0.04053	-0.415
Mof_O 	O 	0.48575	0.72999	0.91698	-0.441
Mof_O 	O 	0.46755	0.67745	0.95224	-0.439
Mof_O 	O 	0.44227	0.7569	0.94697	-0.431
Mof_O 	O 	0.39214	0.78959	0.93064	-0.413
Mof_O 	O 	0.37165	0.7362	0.96751	-0.417
Mof_O 	O 	0.42312	0.70413	0.98193	-0.427
Mof_O 	O 	0.65536	0.2813	0.08267	-0.409
Mof_O 	O 	0.5942	0.30249	0.10277	-0.392
Mof_O 	O 	0.68141	0.30972	0.07413	-0.428
Mof_O 	O 	0.56744	0.34765	0.11331	-0.408
Mof_O 	O 	0.6527	0.3326	0.1447	-0.442
Mof_O 	O 	0.64991	0.36294	0.08477	-0.428
Mof_C 	C 	0.53959	0.3788	0.06431	0.053
Mof_C 	C 	0.56028	0.34653	0.07087	-0.114
Mof_C 	C 	0.57457	0.33096	0.09756	0.389
Mof_C 	C 	0.52116	0.76403	0.90412	0.098
Mof_C 	C 	0.48951	0.76922	0.92464	-0.166
Mof_C 	C 	0.47145	0.75051	0.93046	0.446
Mof_C 	C 	0.4199	0.64876	0.03384	0.095
Mof_C 	C 	0.43677	0.59137	0.05371	0.09
Mof_C 	C 	0.44538	0.64825	0.00558	-0.16
Mof_C 	C 	0.46329	0.58962	0.02589	-0.152
Mof_C 	C 	0.46721	0.61855	0.00198	0.091
Mof_C 	C 	0.4147	0.62086	0.05765	-0.164
Mof_C 	C 	0.48382	0.55842	0.01966	0.425
Mof_C 	C 	0.38413	0.62293	0.08445	0.444
Mof_C 	C 	0.44572	0.67862	0.9784	0.438
Mof_C 	C 	0.32335	0.70667	0.96163	0.074
Mof_C 	C 	0.30301	0.68809	0.98044	-0.139
Mof_C 	C 	0.67445	0.29698	0.06406	0.418
Mof_Fe	Fe	0.8907	0.95494	0.74605	1.074
Mof_Fe	Fe	0.90422	0.11076	0.3204	1.09
Mof_O 	O 	0.80449	0.85443	0.76148	-0.435
Mof_O 	O 	0.78277	0.83266	0.73977	-0.436
Mof_O 	O 	0.94315	0.99279	0.55891	-0.427
Mof_O 	O 	0.00361	0.04653	0.44692	-0.398
Mof_O 	O 	0.94822	0.04053	0.53294	-0.415
Mof_O 	O 	0.86729	0.91698	0.72999	-0.441
Mof_O 	O 	0.90275	0.95224	0.67745	-0.439
Mof_O 	O 	0.85386	0.94697	0.7569	-0.431
Mof_O 	O 	0.88763	0.93064	0.78959	-0.413
Mof_O 	O 	0.92464	0.96751	0.7362	-0.417
Mof_O 	O 	0.89082	0.98193	0.70413	-0.427
Mof_O 	O 	0.98068	0.08267	0.2813	-0.409
Mof_O 	O 	0.00054	0.10277	0.30249	-0.39
Mof_O 	O 	0.93474	0.07413	0.30972	-0.428
Mof_O 	O 	0.9716	0.11331	0.34765	-0.407
Mof_O 	O 	0.87001	0.1447	0.3326	-0.442
Mof_O 	O 	0.90239	0.08477	0.36294	-0.428
Mof_C 	C 	0.0173	0.06431	0.3788	0.054
Mof_C 	C 	0.02232	0.07087	0.34653	-0.112
Mof_C 	C 	0.99691	0.09756	0.33096	0.385
Mof_C 	C 	0.81069	0.90412	0.76403	0.098
Mof_C 	C 	0.81663	0.92464	0.76922	-0.166
Mof_C 	C 	0.84758	0.93046	0.75051	0.446
Mof_C 	C 	0.8975	0.03384	0.64876	0.095
Mof_C 	C 	0.91815	0.05371	0.59137	0.09
Mof_C 	C 	0.90079	0.00558	0.64825	-0.16
Mof_C 	C 	0.9212	0.02589	0.58962	-0.152
Mof_C 	C 	0.91227	0.00198	0.61855	0.091
Mof_C 	C 	0.90679	0.05765	0.62086	-0.164
Mof_C 	C 	0.9381	0.01966	0.55842	0.425
Mof_C 	C 	0.9085	0.08445	0.62293	0.444
Mof_C 	C 	0.89726	0.9784	0.67862	0.438
Mof_C 	C 	0.00835	0.96163	0.70667	0.076
Mof_C 	C 	0.02847	0.98044	0.68809	-0.14
Mof_C 	C 	0.96451	0.06406	0.29698	0.418
Mof_Fe	Fe	0.95494	0.8907	0.4083	1.074
Mof_Fe	Fe	0.11076	0.90422	0.66463	1.09
Mof_O 	O 	0.85443	0.80449	0.5796	-0.435
Mof_O 	O 	0.83266	0.78277	0.6448	-0.435
Mof_O 	O 	0.99279	0.94315	0.50515	-0.427
Mof_O 	O 	0.04653	0.00361	0.50294	-0.398
Mof_O 	O 	0.04053	0.94822	0.4783	-0.415
Mof_O 	O 	0.91698	0.86729	0.48575	-0.441
Mof_O 	O 	0.95224	0.90275	0.46755	-0.439
Mof_O 	O 	0.94697	0.85386	0.44227	-0.431
Mof_O 	O 	0.93064	0.88763	0.39214	-0.413
Mof_O 	O 	0.96751	0.92464	0.37165	-0.417
Mof_O 	O 	0.98193	0.89082	0.42312	-0.427
Mof_O 	O 	0.08267	0.98068	0.65536	-0.409
Mof_O 	O 	0.10277	0.00054	0.5942	-0.39
Mof_O 	O 	0.07413	0.93474	0.68141	-0.428
Mof_O 	O 	0.11331	0.9716	0.56744	-0.407
Mof_O 	O 	0.1447	0.87001	0.6527	-0.442
Mof_O 	O 	0.08477	0.90239	0.64991	-0.428
Mof_C 	C 	0.06431	0.0173	0.53959	0.054
Mof_C 	C 	0.07087	0.02232	0.56028	-0.112
Mof_C 	C 	0.09756	0.99691	0.57457	0.385
Mof_C 	C 	0.90412	0.81069	0.52116	0.098
Mof_C 	C 	0.92464	0.81663	0.48951	-0.166
Mof_C 	C 	0.93046	0.84758	0.47145	0.445
Mof_C 	C 	0.03384	0.8975	0.4199	0.095
Mof_C 	C 	0.05371	0.91815	0.43677	0.09
Mof_C 	C 	0.00558	0.90079	0.44538	-0.16
Mof_C 	C 	0.02589	0.9212	0.46329	-0.152
Mof_C 	C 	0.00198	0.91227	0.46721	0.091
Mof_C 	C 	0.05765	0.90679	0.4147	-0.164
Mof_C 	C 	0.01966	0.9381	0.48382	0.425
Mof_C 	C 	0.08445	0.9085	0.38413	0.444
Mof_C 	C 	0.9784	0.89726	0.44572	0.438
Mof_C 	C 	0.96163	0.00835	0.32335	0.076
Mof_C 	C 	0.98044	0.02847	0.30301	-0.14
Mof_C 	C 	0.06406	0.96451	0.67445	0.418
Mof_Fe	Fe	0.8907	0.74605	0.4083	1.074
Mof_Fe	Fe	0.90422	0.3204	0.66463	1.09
Mof_O 	O 	0.80449	0.76148	0.5796	-0.435
Mof_O 	O 	0.78277	0.73977	0.6448	-0.436
Mof_O 	O 	0.94315	0.55891	0.50515	-0.426
Mof_O 	O 	0.00361	0.44692	0.50294	-0.398
Mof_O 	O 	0.94822	0.53294	0.4783	-0.414
Mof_O 	O 	0.86729	0.72999	0.48575	-0.441
Mof_O 	O 	0.90275	0.67745	0.46755	-0.439
Mof_O 	O 	0.85386	0.7569	0.44227	-0.431
Mof_O 	O 	0.88763	0.78959	0.39214	-0.413
Mof_O 	O 	0.92464	0.7362	0.37165	-0.417
Mof_O 	O 	0.89082	0.70413	0.42312	-0.427
Mof_O 	O 	0.98068	0.2813	0.65536	-0.409
Mof_O 	O 	0.00054	0.30249	0.5942	-0.39
Mof_O 	O 	0.93474	0.30972	0.68141	-0.428
Mof_O 	O 	0.9716	0.34765	0.56744	-0.407
Mof_O 	O 	0.87001	0.3326	0.6527	-0.442
Mof_O 	O 	0.90239	0.36294	0.64991	-0.428
Mof_C 	C 	0.0173	0.3788	0.53959	0.054
Mof_C 	C 	0.02232	0.34653	0.56028	-0.112
Mof_C 	C 	0.99691	0.33096	0.57457	0.385
Mof_C 	C 	0.81069	0.76403	0.52116	0.098
Mof_C 	C 	0.81663	0.76922	0.48951	-0.166
Mof_C 	C 	0.84758	0.75051	0.47145	0.446
Mof_C 	C 	0.8975	0.64876	0.4199	0.095
Mof_C 	C 	0.91815	0.59137	0.43677	0.09
Mof_C 	C 	0.90079	0.64825	0.44538	-0.161
Mof_C 	C 	0.9212	0.58962	0.46329	-0.151
Mof_C 	C 	0.91227	0.61855	0.46721	0.089
Mof_C 	C 	0.90679	0.62086	0.4147	-0.164
Mof_C 	C 	0.9381	0.55842	0.48382	0.423
Mof_C 	C 	0.9085	0.62293	0.38413	0.444
Mof_C 	C 	0.89726	0.67862	0.44572	0.44
Mof_C 	C 	0.00835	0.70667	0.32335	0.075
Mof_C 	C 	0.02847	0.68809	0.30301	-0.138
Mof_C 	C 	0.96451	0.29698	0.67445	0.418
Mof_Fe	Fe	0.95494	0.4083	0.74605	1.074
Mof_Fe	Fe	0.11076	0.66463	0.3204	1.09
Mof_O 	O 	0.85443	0.5796	0.76148	-0.435
Mof_O 	O 	0.83266	0.6448	0.73977	-0.436
Mof_O 	O 	0.99279	0.50515	0.55891	-0.427
Mof_O 	O 	0.04653	0.50294	0.44692	-0.399
Mof_O 	O 	0.04053	0.4783	0.53294	-0.415
Mof_O 	O 	0.91698	0.48575	0.72999	-0.441
Mof_O 	O 	0.95224	0.46755	0.67745	-0.439
Mof_O 	O 	0.94697	0.44227	0.7569	-0.431
Mof_O 	O 	0.93064	0.39214	0.78959	-0.413
Mof_O 	O 	0.96751	0.37165	0.7362	-0.417
Mof_O 	O 	0.98193	0.42312	0.70413	-0.427
Mof_O 	O 	0.08267	0.65536	0.2813	-0.409
Mof_O 	O 	0.10277	0.5942	0.30249	-0.392
Mof_O 	O 	0.07413	0.68141	0.30972	-0.428
Mof_O 	O 	0.11331	0.56744	0.34765	-0.408
Mof_O 	O 	0.1447	0.6527	0.3326	-0.442
Mof_O 	O 	0.08477	0.64991	0.36294	-0.428
Mof_C 	C 	0.06431	0.53959	0.3788	0.053
Mof_C 	C 	0.07087	0.56028	0.34653	-0.114
Mof_C 	C 	0.09756	0.57457	0.33096	0.389
Mof_C 	C 	0.90412	0.52116	0.76403	0.098
Mof_C 	C 	0.92464	0.48951	0.76922	-0.166
Mof_C 	C 	0.93046	0.47145	0.75051	0.446
Mof_C 	C 	0.03384	0.4199	0.64876	0.095
Mof_C 	C 	0.05371	0.43677	0.59137	0.09
Mof_C 	C 	0.00558	0.44538	0.64825	-0.16
Mof_C 	C 	0.02589	0.46329	0.58962	-0.152
Mof_C 	C 	0.00198	0.46721	0.61855	0.091
Mof_C 	C 	0.05765	0.4147	0.62086	-0.164
Mof_C 	C 	0.01966	0.48382	0.55842	0.425
Mof_C 	C 	0.08445	0.38413	0.62293	0.444
Mof_C 	C 	0.9784	0.44572	0.67862	0.438
Mof_C 	C 	0.96163	0.32335	0.70667	0.074
Mof_C 	C 	0.98044	0.30301	0.68809	-0.139
Mof_C 	C 	0.06406	0.67445	0.29698	0.418
Mof_Fe	Fe	0.74605	0.8907	0.95494	1.074
Mof_Fe	Fe	0.3204	0.90422	0.11076	1.09
Mof_O 	O 	0.76148	0.80449	0.85443	-0.435
Mof_O 	O 	0.73977	0.78277	0.83266	-0.436
Mof_O 	O 	0.55891	0.94315	0.99279	-0.427
Mof_O 	O 	0.44692	0.00361	0.04653	-0.398
Mof_O 	O 	0.53294	0.94822	0.04053	-0.415
Mof_O 	O 	0.72999	0.86729	0.91698	-0.441
Mof_O 	O 	0.67745	0.90275	0.95224	-0.439
Mof_O 	O 	0.7569	0.85386	0.94697	-0.431
Mof_O 	O 	0.78959	0.88763	0.93064	-0.413
Mof_O 	O 	0.7362	0.92464	0.96751	-0.417
Mof_O 	O 	0.70413	0.89082	0.98193	-0.427
Mof_O 	O 	0.2813	0.98068	0.08267	-0.409
Mof_O 	O 	0.30249	0.00054	0.10277	-0.39
Mof_O 	O 	0.30972	0.93474	0.07413	-0.428
Mof_O 	O 	0.34765	0.9716	0.11331	-0.407
Mof_O 	O 	0.3326	0.87001	0.1447	-0.442
Mof_O 	O 	0.36294	0.90239	0.08477	-0.428
Mof_C 	C 	0.3788	0.0173	0.06431	0.054
Mof_C 	C 	0.34653	0.02232	0.07087	-0.112
Mof_C 	C 	0.33096	0.99691	0.09756	0.385
Mof_C 	C 	0.76403	0.81069	0.90412	0.098
Mof_C 	C 	0.76922	0.81663	0.92464	-0.166
Mof_C 	C 	0.75051	0.84758	0.93046	0.446
Mof_C 	C 	0.64876	0.8975	0.03384	0.095
Mof_C 	C 	0.59137	0.91815	0.05371	0.09
Mof_C 	C 	0.64825	0.90079	0.00558	-0.16
Mof_C 	C 	0.58962	0.9212	0.02589	-0.152
Mof_C 	C 	0.61855	0.91227	0.00198	0.091
Mof_C 	C 	0.62086	0.90679	0.05765	-0.164
Mof_C 	C 	0.55842	0.9381	0.01966	0.425
Mof_C 	C 	0.62293	0.9085	0.08445	0.444
Mof_C 	C 	0.67862	0.89726	0.9784	0.438
Mof_C 	C 	0.70667	0.00835	0.96163	0.076
Mof_C 	C 	0.68809	0.02847	0.98044	-0.14
Mof_C 	C 	0.29698	0.96451	0.06406	0.418
Mof_Fe	Fe	0.4083	0.95494	0.8907	1.074
Mof_Fe	Fe	0.66463	0.11076	0.90422	1.09
Mof_O 	O 	0.5796	0.85443	0.80449	-0.435
Mof_O 	O 	0.6448	0.83266	0.78277	-0.435
Mof_O 	O 	0.50515	0.99279	0.94315	-0.427
Mof_O 	O 	0.50294	0.04653	0.00361	-0.398
Mof_O 	O 	0.4783	0.04053	0.94822	-0.415
Mof_O 	O 	0.48575	0.91698	0.86729	-0.441
Mof_O 	O 	0.46755	0.95224	0.90275	-0.439
Mof_O 	O 	0.44227	0.94697	0.85386	-0.431
Mof_O 	O 	0.39214	0.93064	0.88763	-0.413
Mof_O 	O 	0.37165	0.96751	0.92464	-0.417
Mof_O 	O 	0.42312	0.98193	0.89082	-0.427
Mof_O 	O 	0.65536	0.08267	0.98068	-0.409
Mof_O 	O 	0.5942	0.10277	0.00054	-0.39
Mof_O 	O 	0.68141	0.07413	0.93474	-0.428
Mof_O 	O 	0.56744	0.11331	0.9716	-0.407
Mof_O 	O 	0.6527	0.1447	0.87001	-0.442
Mof_O 	O 	0.64991	0.08477	0.90239	-0.428
Mof_C 	C 	0.53959	0.06431	0.0173	0.054
Mof_C 	C 	0.56028	0.07087	0.02232	-0.112
Mof_C 	C 	0.57457	0.09756	0.99691	0.385
Mof_C 	C 	0.52116	0.90412	0.81069	0.098
Mof_C 	C 	0.48951	0.92464	0.81663	-0.166
Mof_C 	C 	0.47145	0.93046	0.84758	0.445
Mof_C 	C 	0.4199	0.03384	0.8975	0.095
Mof_C 	C 	0.43677	0.05371	0.91815	0.09
Mof_C 	C 	0.44538	0.00558	0.90079	-0.16
Mof_C 	C 	0.46329	0.02589	0.9212	-0.152
Mof_C 	C 	0.46721	0.00198	0.91227	0.091
Mof_C 	C 	0.4147	0.05765	0.90679	-0.164
Mof_C 	C 	0.48382	0.01966	0.9381	0.425
Mof_C 	C 	0.38413	0.08445	0.9085	0.444
Mof_C 	C 	0.44572	0.9784	0.89726	0.438
Mof_C 	C 	0.32335	0.96163	0.00835	0.076
Mof_C 	C 	0.30301	0.98044	0.02847	-0.14
Mof_C 	C 	0.67445	0.06406	0.96451	0.418
Mof_Fe	Fe	0.4083	0.8907	0.74605	1.074
Mof_Fe	Fe	0.66463	0.90422	0.3204	1.09
Mof_O 	O 	0.5796	0.80449	0.76148	-0.435
Mof_O 	O 	0.6448	0.78277	0.73977	-0.436
Mof_O 	O 	0.50515	0.94315	0.55891	-0.426
Mof_O 	O 	0.50294	0.00361	0.44692	-0.398
Mof_O 	O 	0.4783	0.94822	0.53294	-0.414
Mof_O 	O 	0.48575	0.86729	0.72999	-0.441
Mof_O 	O 	0.46755	0.90275	0.67745	-0.439
Mof_O 	O 	0.44227	0.85386	0.7569	-0.431
Mof_O 	O 	0.39214	0.88763	0.78959	-0.413
Mof_O 	O 	0.37165	0.92464	0.7362	-0.417
Mof_O 	O 	0.42312	0.89082	0.70413	-0.427
Mof_O 	O 	0.65536	0.98068	0.2813	-0.409
Mof_O 	O 	0.5942	0.00054	0.30249	-0.39
Mof_O 	O 	0.68141	0.93474	0.30972	-0.428
Mof_O 	O 	0.56744	0.9716	0.34765	-0.407
Mof_O 	O 	0.6527	0.87001	0.3326	-0.442
Mof_O 	O 	0.64991	0.90239	0.36294	-0.428
Mof_C 	C 	0.53959	0.0173	0.3788	0.054
Mof_C 	C 	0.56028	0.02232	0.34653	-0.112
Mof_C 	C 	0.57457	0.99691	0.33096	0.385
Mof_C 	C 	0.52116	0.81069	0.76403	0.098
Mof_C 	C 	0.48951	0.81663	0.76922	-0.166
Mof_C 	C 	0.47145	0.84758	0.75051	0.446
Mof_C 	C 	0.4199	0.8975	0.64876	0.095
Mof_C 	C 	0.43677	0.91815	0.59137	0.09
Mof_C 	C 	0.44538	0.90079	0.64825	-0.161
Mof_C 	C 	0.46329	0.9212	0.58962	-0.151
Mof_C 	C 	0.46721	0.91227	0.61855	0.089
Mof_C 	C 	0.4147	0.90679	0.62086	-0.164
Mof_C 	C 	0.48382	0.9381	0.55842	0.423
Mof_C 	C 	0.38413	0.9085	0.62293	0.444
Mof_C 	C 	0.44572	0.89726	0.67862	0.44
Mof_C 	C 	0.32335	0.00835	0.70667	0.075
Mof_C 	C 	0.30301	0.02847	0.68809	-0.138
Mof_C 	C 	0.67445	0.96451	0.29698	0.418
Mof_Fe	Fe	0.74605	0.95494	0.4083	1.074
Mof_Fe	Fe	0.3204	0.11076	0.66463	1.09
Mof_O 	O 	0.76148	0.85443	0.5796	-0.435
Mof_O 	O 	0.73977	0.83266	0.6448	-0.436
Mof_O 	O 	0.55891	0.99279	0.50515	-0.427
Mof_O 	O 	0.44692	0.04653	0.50294	-0.399
Mof_O 	O 	0.53294	0.04053	0.4783	-0.415
Mof_O 	O 	0.72999	0.91698	0.48575	-0.441
Mof_O 	O 	0.67745	0.95224	0.46755	-0.439
Mof_O 	O 	0.7569	0.94697	0.44227	-0.431
Mof_O 	O 	0.78959	0.93064	0.39214	-0.413
Mof_O 	O 	0.7362	0.96751	0.37165	-0.417
Mof_O 	O 	0.70413	0.98193	0.42312	-0.427
Mof_O 	O 	0.2813	0.08267	0.65536	-0.409
Mof_O 	O 	0.30249	0.10277	0.5942	-0.392
Mof_O 	O 	0.30972	0.07413	0.68141	-0.428
Mof_O 	O 	0.34765	0.11331	0.56744	-0.408
Mof_O 	O 	0.3326	0.1447	0.6527	-0.442
Mof_O 	O 	0.36294	0.08477	0.64991	-0.428
Mof_C 	C 	0.3788	0.06431	0.53959	0.053
Mof_C 	C 	0.34653	0.07087	0.56028	-0.114
Mof_C 	C 	0.33096	0.09756	0.57457	0.389
Mof_C 	C 	0.76403	0.90412	0.52116	0.098
Mof_C 	C 	0.76922	0.92464	0.48951	-0.166
Mof_C 	C 	0.75051	0.93046	0.47145	0.446
Mof_C 	C 	0.64876	0.03384	0.4199	0.095
Mof_C 	C 	0.59137	0.05371	0.43677	0.09
Mof_C 	C 	0.64825	0.00558	0.44538	-0.16
Mof_C 	C 	0.58962	0.02589	0.46329	-0.152
Mof_C 	C 	0.61855	0.00198	0.46721	0.091
Mof_C 	C 	0.62086	0.05765	0.4147	-0.164
Mof_C 	C 	0.55842	0.01966	0.48382	0.425
Mof_C 	C 	0.62293	0.08445	0.38413	0.444
Mof_C 	C 	0.67862	0.9784	0.44572	0.438
Mof_C 	C 	0.70667	0.96163	0.32335	0.074
Mof_C 	C 	0.68809	0.98044	0.30301	-0.139
Mof_C 	C 	0.29698	0.06406	0.67445	0.418
Mof_Fe	Fe	0.95494	0.74605	0.8907	1.074
Mof_Fe	Fe	0.11076	0.3204	0.90422	1.09
Mof_O 	O 	0.85443	0.76148	0.80449	-0.435
Mof_O 	O 	0.83266	0.73977	0.78277	-0.436
Mof_O 	O 	0.99279	0.55891	0.94315	-0.427
Mof_O 	O 	0.04653	0.44692	0.00361	-0.398
Mof_O 	O 	0.04053	0.53294	0.94822	-0.415
Mof_O 	O 	0.91698	0.72999	0.86729	-0.441
Mof_O 	O 	0.95224	0.67745	0.90275	-0.439
Mof_O 	O 	0.94697	0.7569	0.85386	-0.431
Mof_O 	O 	0.93064	0.78959	0.88763	-0.413
Mof_O 	O 	0.96751	0.7362	0.92464	-0.417
Mof_O 	O 	0.98193	0.70413	0.89082	-0.427
Mof_O 	O 	0.08267	0.2813	0.98068	-0.409
Mof_O 	O 	0.10277	0.30249	0.00054	-0.39
Mof_O 	O 	0.07413	0.30972	0.93474	-0.428
Mof_O 	O 	0.11331	0.34765	0.9716	-0.407
Mof_O 	O 	0.1447	0.3326	0.87001	-0.442
Mof_O 	O 	0.08477	0.36294	0.90239	-0.428
Mof_C 	C 	0.06431	0.3788	0.0173	0.054
Mof_C 	C 	0.07087	0.34653	0.02232	-0.112
Mof_C 	C 	0.09756	0.33096	0.99691	0.385
Mof_C 	C 	0.90412	0.76403	0.81069	0.098
Mof_C 	C 	0.92464	0.76922	0.81663	-0.166
Mof_C 	C 	0.93046	0.75051	0.84758	0.446
Mof_C 	C 	0.03384	0.64876	0.8975	0.095
Mof_C 	C 	0.05371	0.59137	0.91815	0.09
Mof_C 	C 	0.00558	0.64825	0.90079	-0.16
Mof_C 	C 	0.02589	0.58962	0.9212	-0.152
Mof_C 	C 	0.00198	0.61855	0.91227	0.091
Mof_C 	C 	0.05765	0.62086	0.90679	-0.164
Mof_C 	C 	0.01966	0.55842	0.9381	0.425
Mof_C 	C 	0.08445	0.62293	0.9085	0.444
Mof_C 	C 	0.9784	0.67862	0.89726	0.438
Mof_C 	C 	0.96163	0.70667	0.00835	0.076
Mof_C 	C 	0.98044	0.68809	0.02847	-0.14
Mof_C 	C 	0.06406	0.29698	0.96451	0.418
Mof_Fe	Fe	0.8907	0.4083	0.95494	1.074
Mof_Fe	Fe	0.90422	0.66463	0.11076	1.09
Mof_O 	O 	0.80449	0.5796	0.85443	-0.435
Mof_O 	O 	0.78277	0.6448	0.83266	-0.435
Mof_O 	O 	0.94315	0.50515	0.99279	-0.427
Mof_O 	O 	0.00361	0.50294	0.04653	-0.398
Mof_O 	O 	0.94822	0.4783	0.04053	-0.415
Mof_O 	O 	0.86729	0.48575	0.91698	-0.441
Mof_O 	O 	0.90275	0.46755	0.95224	-0.439
Mof_O 	O 	0.85386	0.44227	0.94697	-0.431
Mof_O 	O 	0.88763	0.39214	0.93064	-0.413
Mof_O 	O 	0.92464	0.37165	0.96751	-0.417
Mof_O 	O 	0.89082	0.42312	0.98193	-0.427
Mof_O 	O 	0.98068	0.65536	0.08267	-0.409
Mof_O 	O 	0.00054	0.5942	0.10277	-0.39
Mof_O 	O 	0.93474	0.68141	0.07413	-0.428
Mof_O 	O 	0.9716	0.56744	0.11331	-0.407
Mof_O 	O 	0.87001	0.6527	0.1447	-0.442
Mof_O 	O 	0.90239	0.64991	0.08477	-0.428
Mof_C 	C 	0.0173	0.53959	0.06431	0.054
Mof_C 	C 	0.02232	0.56028	0.07087	-0.112
Mof_C 	C 	0.99691	0.57457	0.09756	0.385
Mof_C 	C 	0.81069	0.52116	0.90412	0.098
Mof_C 	C 	0.81663	0.48951	0.92464	-0.166
Mof_C 	C 	0.84758	0.47145	0.93046	0.445
Mof_C 	C 	0.8975	0.4199	0.03384	0.095
Mof_C 	C 	0.91815	0.43677	0.05371	0.09
Mof_C 	C 	0.90079	0.44538	0.00558	-0.16
Mof_C 	C 	0.9212	0.46329	0.02589	-0.152
Mof_C 	C 	0.91227	0.46721	0.00198	0.091
Mof_C 	C 	0.90679	0.4147	0.05765	-0.164
Mof_C 	C 	0.9381	0.48382	0.01966	0.425
Mof_C 	C 	0.9085	0.38413	0.08445	0.444
Mof_C 	C 	0.89726	0.44572	0.9784	0.438
Mof_C 	C 	0.00835	0.32335	0.96163	0.076
Mof_C 	C 	0.02847	0.30301	0.98044	-0.14
Mof_C 	C 	0.96451	0.67445	0.06406	0.418
Mof_Fe	Fe	0.50395	0.8417	0.29506	1.074
Mof_Fe	Fe	0.9296	0.58537	0.13924	1.09
Mof_O 	O 	0.48852	0.6704	0.39557	-0.435
Mof_O 	O 	0.51023	0.6052	0.41734	-0.436
Mof_O 	O 	0.69109	0.74485	0.25721	-0.426
Mof_O 	O 	0.80308	0.74706	0.20347	-0.399
Mof_O 	O 	0.71706	0.7717	0.20947	-0.414
Mof_O 	O 	0.52001	0.76425	0.33302	-0.441
Mof_O 	O 	0.57255	0.78245	0.29776	-0.439
Mof_O 	O 	0.4931	0.80773	0.30303	-0.431
Mof_O 	O 	0.46041	0.85786	0.31936	-0.413
Mof_O 	O 	0.5138	0.87835	0.28249	-0.417
Mof_O 	O 	0.54587	0.82688	0.26807	-0.427
Mof_O 	O 	0.9687	0.59464	0.16733	-0.409
Mof_O 	O 	0.94751	0.6558	0.14723	-0.393
Mof_O 	O 	0.94028	0.56859	0.17587	-0.428
Mof_O 	O 	0.90235	0.68256	0.13669	-0.408
Mof_O 	O 	0.9174	0.5973	0.1053	-0.442
Mof_O 	O 	0.88706	0.60009	0.16523	-0.428
Mof_C 	C 	0.8712	0.71041	0.18569	0.053
Mof_C 	C 	0.90347	0.68972	0.17913	-0.114
Mof_C 	C 	0.91904	0.67543	0.15244	0.389
Mof_C 	C 	0.48597	0.72884	0.34588	0.098
Mof_C 	C 	0.48078	0.76049	0.32536	-0.166
Mof_C 	C 	0.49949	0.77855	0.31954	0.446
Mof_C 	C 	0.60124	0.8301	0.21616	0.095
Mof_C 	C 	0.65863	0.81323	0.19629	0.09
Mof_C 	C 	0.60175	0.80462	0.24442	-0.161
Mof_C 	C 	0.66038	0.78671	0.22411	-0.151
Mof_C 	C 	0.63145	0.78279	0.24802	0.089
Mof_C 	C 	0.62914	0.8353	0.19235	-0.164
Mof_C 	C 	0.69158	0.76618	0.23034	0.423
Mof_C 	C 	0.62707	0.86587	0.16555	0.444
Mof_C 	C 	0.57138	0.80428	0.2716	0.44
Mof_C 	C 	0.54333	0.92665	0.28837	0.073
Mof_C 	C 	0.56191	0.94699	0.26956	-0.137
Mof_C 	C 	0.95302	0.57555	0.18594	0.417
Mof_Fe	Fe	0.8417	0.50395	0.3593	1.074
Mof_Fe	Fe	0.58537	0.9296	0.34578	1.09
Mof_O 	O 	0.6704	0.48852	0.44551	-0.435
Mof_O 	O 	0.6052	0.51023	0.46723	-0.436
Mof_O 	O 	0.74485	0.69109	0.30685	-0.426
Mof_O 	O 	0.74706	0.80308	0.24639	-0.399
Mof_O 	O 	0.7717	0.71706	0.30178	-0.414
Mof_O 	O 	0.76425	0.52001	0.38271	-0.441
Mof_O 	O 	0.78245	0.57255	0.34725	-0.439
Mof_O 	O 	0.80773	0.4931	0.39614	-0.431
Mof_O 	O 	0.85786	0.46041	0.36237	-0.413
Mof_O 	O 	0.87835	0.5138	0.32536	-0.417
Mof_O 	O 	0.82688	0.54587	0.35918	-0.427
Mof_O 	O 	0.59464	0.9687	0.26932	-0.409
Mof_O 	O 	0.6558	0.94751	0.24946	-0.393
Mof_O 	O 	0.56859	0.94028	0.31526	-0.428
Mof_O 	O 	0.68256	0.90235	0.2784	-0.408
Mof_O 	O 	0.5973	0.9174	0.37999	-0.442
Mof_O 	O 	0.60009	0.88706	0.34761	-0.428
Mof_C 	C 	0.71041	0.8712	0.2327	0.053
Mof_C 	C 	0.68972	0.90347	0.22768	-0.114
Mof_C 	C 	0.67543	0.91904	0.25309	0.389
Mof_C 	C 	0.72884	0.48597	0.43931	0.098
Mof_C 	C 	0.76049	0.48078	0.43337	-0.166
Mof_C 	C 	0.77855	0.49949	0.40242	0.445
Mof_C 	C 	0.8301	0.60124	0.3525	0.095
Mof_C 	C 	0.81323	0.65863	0.33185	0.09
Mof_C 	C 	0.80462	0.60175	0.34921	-0.161
Mof_C 	C 	0.78671	0.66038	0.3288	-0.151
Mof_C 	C 	0.78279	0.63145	0.33773	0.089
Mof_C 	C 	0.8353	0.62914	0.34321	-0.164
Mof_C 	C 	0.76618	0.69158	0.3119	0.423
Mof_C 	C 	0.86587	0.62707	0.3415	0.444
Mof_C 	C 	0.80428	0.57138	0.35274	0.44
Mof_C 	C 	0.92665	0.54333	0.24165	0.073
Mof_C 	C 	0.94699	0.56191	0.22153	-0.137
Mof_C 	C 	0.57555	0.95302	0.28549	0.417
Mof_Fe	Fe	0.3593	0.29506	0.8417	1.074
Mof_Fe	Fe	0.34578	0.13924	0.58537	1.09
Mof_O 	O 	0.44551	0.39557	0.6704	-0.435
Mof_O 	O 	0.46723	0.41734	0.6052	-0.435
Mof_O 	O 	0.30685	0.25721	0.74485	-0.426
Mof_O 	O 	0.24639	0.20347	0.74706	-0.399
Mof_O 	O 	0.30178	0.20947	0.7717	-0.414
Mof_O 	O 	0.38271	0.33302	0.76425	-0.441
Mof_O 	O 	0.34725	0.29776	0.78245	-0.439
Mof_O 	O 	0.39614	0.30303	0.80773	-0.431
Mof_O 	O 	0.36237	0.31936	0.85786	-0.413
Mof_O 	O 	0.32536	0.28249	0.87835	-0.417
Mof_O 	O 	0.35918	0.26807	0.82688	-0.427
Mof_O 	O 	0.26932	0.16733	0.59464	-0.408
Mof_O 	O 	0.24946	0.14723	0.6558	-0.393
Mof_O 	O 	0.31526	0.17587	0.56859	-0.428
Mof_O 	O 	0.2784	0.13669	0.68256	-0.408
Mof_O 	O 	0.37999	0.1053	0.5973	-0.442
Mof_O 	O 	0.34761	0.16523	0.60009	-0.428
Mof_C 	C 	0.2327	0.18569	0.71041	0.053
Mof_C 	C 	0.22768	0.17913	0.68972	-0.114
Mof_C 	C 	0.25309	0.15244	0.67543	0.389
Mof_C 	C 	0.43931	0.34588	0.72884	0.098
Mof_C 	C 	0.43337	0.32536	0.76049	-0.166
Mof_C 	C 	0.40242	0.31954	0.77855	0.445
Mof_C 	C 	0.3525	0.21616	0.8301	0.095
Mof_C 	C 	0.33185	0.19629	0.81323	0.09
Mof_C 	C 	0.34921	0.24442	0.80462	-0.161
Mof_C 	C 	0.3288	0.22411	0.78671	-0.151
Mof_C 	C 	0.33773	0.24802	0.78279	0.089
Mof_C 	C 	0.34321	0.19235	0.8353	-0.164
Mof_C 	C 	0.3119	0.23034	0.76618	0.423
Mof_C 	C 	0.3415	0.16555	0.86587	0.444
Mof_C 	C 	0.35274	0.2716	0.80428	0.44
Mof_C 	C 	0.24165	0.28837	0.92665	0.072
Mof_C 	C 	0.22153	0.26956	0.94699	-0.137
Mof_C 	C 	0.28549	0.18594	0.57555	0.417
Mof_Fe	Fe	0.29506	0.3593	0.50395	1.074
Mof_Fe	Fe	0.13924	0.34578	0.9296	1.09
Mof_O 	O 	0.39557	0.44551	0.48852	-0.435
Mof_O 	O 	0.41734	0.46723	0.51023	-0.435
Mof_O 	O 	0.25721	0.30685	0.69109	-0.426
Mof_O 	O 	0.20347	0.24639	0.80308	-0.399
Mof_O 	O 	0.20947	0.30178	0.71706	-0.414
Mof_O 	O 	0.33302	0.38271	0.52001	-0.441
Mof_O 	O 	0.29776	0.34725	0.57255	-0.439
Mof_O 	O 	0.30303	0.39614	0.4931	-0.431
Mof_O 	O 	0.31936	0.36237	0.46041	-0.413
Mof_O 	O 	0.28249	0.32536	0.5138	-0.416
Mof_O 	O 	0.26807	0.35918	0.54587	-0.427
Mof_O 	O 	0.16733	0.26932	0.9687	-0.409
Mof_O 	O 	0.14723	0.24946	0.94751	-0.392
Mof_O 	O 	0.17587	0.31526	0.94028	-0.428
Mof_O 	O 	0.13669	0.2784	0.90235	-0.408
Mof_O 	O 	0.1053	0.37999	0.9174	-0.442
Mof_O 	O 	0.16523	0.34761	0.88706	-0.428
Mof_C 	C 	0.18569	0.2327	0.8712	0.053
Mof_C 	C 	0.17913	0.22768	0.90347	-0.114
Mof_C 	C 	0.15244	0.25309	0.91904	0.389
Mof_C 	C 	0.34588	0.43931	0.48597	0.098
Mof_C 	C 	0.32536	0.43337	0.48078	-0.166
Mof_C 	C 	0.31954	0.40242	0.49949	0.446
Mof_C 	C 	0.21616	0.3525	0.60124	0.095
Mof_C 	C 	0.19629	0.33185	0.65863	0.09
Mof_C 	C 	0.24442	0.34921	0.60175	-0.161
Mof_C 	C 	0.22411	0.3288	0.66038	-0.151
Mof_C 	C 	0.24802	0.33773	0.63145	0.089
Mof_C 	C 	0.19235	0.34321	0.62914	-0.163
Mof_C 	C 	0.23034	0.3119	0.69158	0.423
Mof_C 	C 	0.16555	0.3415	0.62707	0.444
Mof_C 	C 	0.2716	0.35274	0.57138	0.44
Mof_C 	C 	0.28837	0.24165	0.54333	0.072
Mof_C 	C 	0.26956	0.22153	0.56191	-0.136
Mof_C 	C 	0.18594	0.28549	0.95302	0.417
Mof_Fe	Fe	0.3593	0.50395	0.29506	1.074
Mof_Fe	Fe	0.34578	0.9296	0.13924	1.09
Mof_O 	O 	0.44551	0.48852	0.39557	-0.435
Mof_O 	O 	0.46723	0.51023	0.41734	-0.435
Mof_O 	O 	0.30685	0.69109	0.25721	-0.426
Mof_O 	O 	0.24639	0.80308	0.20347	-0.399
Mof_O 	O 	0.30178	0.71706	0.20947	-0.414
Mof_O 	O 	0.38271	0.52001	0.33302	-0.441
Mof_O 	O 	0.34725	0.57255	0.29776	-0.439
Mof_O 	O 	0.39614	0.4931	0.30303	-0.431
Mof_O 	O 	0.36237	0.46041	0.31936	-0.413
Mof_O 	O 	0.32536	0.5138	0.28249	-0.416
Mof_O 	O 	0.35918	0.54587	0.26807	-0.427
Mof_O 	O 	0.26932	0.9687	0.16733	-0.409
Mof_O 	O 	0.24946	0.94751	0.14723	-0.392
Mof_O 	O 	0.31526	0.94028	0.17587	-0.428
Mof_O 	O 	0.2784	0.90235	0.13669	-0.408
Mof_O 	O 	0.37999	0.9174	0.1053	-0.442
Mof_O 	O 	0.34761	0.88706	0.16523	-0.428
Mof_C 	C 	0.2327	0.8712	0.18569	0.053
Mof_C 	C 	0.22768	0.90347	0.17913	-0.114
Mof_C 	C 	0.25309	0.91904	0.15244	0.389
Mof_C 	C 	0.43931	0.48597	0.34588	0.098
Mof_C 	C 	0.43337	0.48078	0.32536	-0.166
Mof_C 	C 	0.40242	0.49949	0.31954	0.446
Mof_C 	C 	0.3525	0.60124	0.21616	0.095
Mof_C 	C 	0.33185	0.65863	0.19629	0.09
Mof_C 	C 	0.34921	0.60175	0.24442	-0.161
Mof_C 	C 	0.3288	0.66038	0.22411	-0.151
Mof_C 	C 	0.33773	0.63145	0.24802	0.089
Mof_C 	C 	0.34321	0.62914	0.19235	-0.163
Mof_C 	C 	0.3119	0.69158	0.23034	0.423
Mof_C 	C 	0.3415	0.62707	0.16555	0.444
Mof_C 	C 	0.35274	0.57138	0.2716	0.44
Mof_C 	C 	0.24165	0.54333	0.28837	0.072
Mof_C 	C 	0.22153	0.56191	0.26956	-0.136
Mof_C 	C 	0.28549	0.95302	0.18594	0.417
Mof_Fe	Fe	0.29506	0.8417	0.3593	1.074
Mof_Fe	Fe	0.13924	0.58537	0.34578	1.09
Mof_O 	O 	0.39557	0.6704	0.44551	-0.435
Mof_O 	O 	0.41734	0.6052	0.46723	-0.435
Mof_O 	O 	0.25721	0.74485	0.30685	-0.426
Mof_O 	O 	0.20347	0.74706	0.24639	-0.399
Mof_O 	O 	0.20947	0.7717	0.30178	-0.414
Mof_O 	O 	0.33302	0.76425	0.38271	-0.441
Mof_O 	O 	0.29776	0.78245	0.34725	-0.439
Mof_O 	O 	0.30303	0.80773	0.39614	-0.431
Mof_O 	O 	0.31936	0.85786	0.36237	-0.413
Mof_O 	O 	0.28249	0.87835	0.32536	-0.417
Mof_O 	O 	0.26807	0.82688	0.35918	-0.427
Mof_O 	O 	0.16733	0.59464	0.26932	-0.408
Mof_O 	O 	0.14723	0.6558	0.24946	-0.393
Mof_O 	O 	0.17587	0.56859	0.31526	-0.428
Mof_O 	O 	0.13669	0.68256	0.2784	-0.408
Mof_O 	O 	0.1053	0.5973	0.37999	-0.442
Mof_O 	O 	0.16523	0.60009	0.34761	-0.428
Mof_C 	C 	0.18569	0.71041	0.2327	0.053
Mof_C 	C 	0.17913	0.68972	0.22768	-0.114
Mof_C 	C 	0.15244	0.67543	0.25309	0.389
Mof_C 	C 	0.34588	0.72884	0.43931	0.098
Mof_C 	C 	0.32536	0.76049	0.43337	-0.166
Mof_C 	C 	0.31954	0.77855	0.40242	0.445
Mof_C 	C 	0.21616	0.8301	0.3525	0.095
Mof_C 	C 	0.19629	0.81323	0.33185	0.09
Mof_C 	C 	0.24442	0.80462	0.34921	-0.161
Mof_C 	C 	0.22411	0.78671	0.3288	-0.151
Mof_C 	C 	0.24802	0.78279	0.33773	0.089
Mof_C 	C 	0.19235	0.8353	0.34321	-0.164
Mof_C 	C 	0.23034	0.76618	0.3119	0.423
Mof_C 	C 	0.16555	0.86587	0.3415	0.444
Mof_C 	C 	0.2716	0.80428	0.35274	0.44
Mof_C 	C 	0.28837	0.92665	0.24165	0.072
Mof_C 	C 	0.26956	0.94699	0.22153	-0.137
Mof_C 	C 	0.18594	0.57555	0.28549	0.417
Mof_Fe	Fe	0.50395	0.3593	0.8417	1.074
Mof_Fe	Fe	0.9296	0.34578	0.58537	1.09
Mof_O 	O 	0.48852	0.44551	0.6704	-0.435
Mof_O 	O 	0.51023	0.46723	0.6052	-0.436
Mof_O 	O 	0.69109	0.30685	0.74485	-0.426
Mof_O 	O 	0.80308	0.24639	0.74706	-0.399
Mof_O 	O 	0.71706	0.30178	0.7717	-0.414
Mof_O 	O 	0.52001	0.38271	0.76425	-0.441
Mof_O 	O 	0.57255	0.34725	0.78245	-0.439
Mof_O 	O 	0.4931	0.39614	0.80773	-0.431
Mof_O 	O 	0.46041	0.36237	0.85786	-0.413
Mof_O 	O 	0.5138	0.32536	0.87835	-0.417
Mof_O 	O 	0.54587	0.35918	0.82688	-0.427
Mof_O 	O 	0.9687	0.26932	0.59464	-0.409
Mof_O 	O 	0.94751	0.24946	0.6558	-0.393
Mof_O 	O 	0.94028	0.31526	0.56859	-0.428
Mof_O 	O 	0.90235	0.2784	0.68256	-0.408
Mof_O 	O 	0.9174	0.37999	0.5973	-0.442
Mof_O 	O 	0.88706	0.34761	0.60009	-0.428
Mof_C 	C 	0.8712	0.2327	0.71041	0.053
Mof_C 	C 	0.90347	0.22768	0.68972	-0.114
Mof_C 	C 	0.91904	0.25309	0.67543	0.389
Mof_C 	C 	0.48597	0.43931	0.72884	0.098
Mof_C 	C 	0.48078	0.43337	0.76049	-0.166
Mof_C 	C 	0.49949	0.40242	0.77855	0.445
Mof_C 	C 	0.60124	0.3525	0.8301	0.095
Mof_C 	C 	0.65863	0.33185	0.81323	0.09
Mof_C 	C 	0.60175	0.34921	0.80462	-0.161
Mof_C 	C 	0.66038	0.3288	0.78671	-0.151
Mof_C 	C 	0.63145	0.33773	0.78279	0.089
Mof_C 	C 	0.62914	0.34321	0.8353	-0.164
Mof_C 	C 	0.69158	0.3119	0.76618	0.423
Mof_C 	C 	0.62707	0.3415	0.86587	0.444
Mof_C 	C 	0.57138	0.35274	0.80428	0.44
Mof_C 	C 	0.54333	0.24165	0.92665	0.073
Mof_C 	C 	0.56191	0.22153	0.94699	-0.137
Mof_C 	C 	0.95302	0.28549	0.57555	0.417
Mof_Fe	Fe	0.8417	0.29506	0.50395	1.074
Mof_Fe	Fe	0.58537	0.13924	0.9296	1.09
Mof_O 	O 	0.6704	0.39557	0.48852	-0.435
Mof_O 	O 	0.6052	0.41734	0.51023	-0.436
Mof_O 	O 	0.74485	0.25721	0.69109	-0.426
Mof_O 	O 	0.74706	0.20347	0.80308	-0.399
Mof_O 	O 	0.7717	0.20947	0.71706	-0.414
Mof_O 	O 	0.76425	0.33302	0.52001	-0.441
Mof_O 	O 	0.78245	0.29776	0.57255	-0.439
Mof_O 	O 	0.80773	0.30303	0.4931	-0.431
Mof_O 	O 	0.85786	0.31936	0.46041	-0.413
Mof_O 	O 	0.87835	0.28249	0.5138	-0.417
Mof_O 	O 	0.82688	0.26807	0.54587	-0.427
Mof_O 	O 	0.59464	0.16733	0.9687	-0.409
Mof_O 	O 	0.6558	0.14723	0.94751	-0.393
Mof_O 	O 	0.56859	0.17587	0.94028	-0.428
Mof_O 	O 	0.68256	0.13669	0.90235	-0.408
Mof_O 	O 	0.5973	0.1053	0.9174	-0.442
Mof_O 	O 	0.60009	0.16523	0.88706	-0.428
Mof_C 	C 	0.71041	0.18569	0.8712	0.053
Mof_C 	C 	0.68972	0.17913	0.90347	-0.114
Mof_C 	C 	0.67543	0.15244	0.91904	0.389
Mof_C 	C 	0.72884	0.34588	0.48597	0.098
Mof_C 	C 	0.76049	0.32536	0.48078	-0.166
Mof_C 	C 	0.77855	0.31954	0.49949	0.446
Mof_C 	C 	0.8301	0.21616	0.60124	0.095
Mof_C 	C 	0.81323	0.19629	0.65863	0.09
Mof_C 	C 	0.80462	0.24442	0.60175	-0.161
Mof_C 	C 	0.78671	0.22411	0.66038	-0.151
Mof_C 	C 	0.78279	0.24802	0.63145	0.089
Mof_C 	C 	0.8353	0.19235	0.62914	-0.164
Mof_C 	C 	0.76618	0.23034	0.69158	0.423
Mof_C 	C 	0.86587	0.16555	0.62707	0.444
Mof_C 	C 	0.80428	0.2716	0.57138	0.44
Mof_C 	C 	0.92665	0.28837	0.54333	0.073
Mof_C 	C 	0.94699	0.26956	0.56191	-0.137
Mof_C 	C 	0.57555	0.18594	0.95302	0.417
Mof_Fe	Fe	0.8417	0.3593	0.29506	1.074
Mof_Fe	Fe	0.58537	0.34578	0.13924	1.09
Mof_O 	O 	0.6704	0.44551	0.39557	-0.435
Mof_O 	O 	0.6052	0.46723	0.41734	-0.435
Mof_O 	O 	0.74485	0.30685	0.25721	-0.426
Mof_O 	O 	0.74706	0.24639	0.20347	-0.399
Mof_O 	O 	0.7717	0.30178	0.20947	-0.414
Mof_O 	O 	0.76425	0.38271	0.33302	-0.441
Mof_O 	O 	0.78245	0.34725	0.29776	-0.439
Mof_O 	O 	0.80773	0.39614	0.30303	-0.431
Mof_O 	O 	0.85786	0.36237	0.31936	-0.413
Mof_O 	O 	0.87835	0.32536	0.28249	-0.417
Mof_O 	O 	0.82688	0.35918	0.26807	-0.427
Mof_O 	O 	0.59464	0.26932	0.16733	-0.408
Mof_O 	O 	0.6558	0.24946	0.14723	-0.393
Mof_O 	O 	0.56859	0.31526	0.17587	-0.428
Mof_O 	O 	0.68256	0.2784	0.13669	-0.408
Mof_O 	O 	0.5973	0.37999	0.1053	-0.442
Mof_O 	O 	0.60009	0.34761	0.16523	-0.428
Mof_C 	C 	0.71041	0.2327	0.18569	0.053
Mof_C 	C 	0.68972	0.22768	0.17913	-0.114
Mof_C 	C 	0.67543	0.25309	0.15244	0.389
Mof_C 	C 	0.72884	0.43931	0.34588	0.098
Mof_C 	C 	0.76049	0.43337	0.32536	-0.166
Mof_C 	C 	0.77855	0.40242	0.31954	0.445
Mof_C 	C 	0.8301	0.3525	0.21616	0.095
Mof_C 	C 	0.81323	0.33185	0.19629	0.09
Mof_C 	C 	0.80462	0.34921	0.24442	-0.161
Mof_C 	C 	0.78671	0.3288	0.22411	-0.151
Mof_C 	C 	0.78279	0.33773	0.24802	0.089
Mof_C 	C 	0.8353	0.34321	0.19235	-0.164
Mof_C 	C 	0.76618	0.3119	0.23034	0.423
Mof_C 	C 	0.86587	0.3415	0.16555	0.444
Mof_C 	C 	0.80428	0.35274	0.2716	0.44
Mof_C 	C 	0.92665	0.24165	0.28837	0.072
Mof_C 	C 	0.94699	0.22153	0.26956	-0.137
Mof_C 	C 	0.57555	0.28549	0.18594	0.417
Mof_Fe	Fe	0.50395	0.29506	0.3593	1.074
Mof_Fe	Fe	0.9296	0.13924	0.34578	1.09
Mof_O 	O 	0.48852	0.39557	0.44551	-0.435
Mof_O 	O 	0.51023	0.41734	0.46723	-0.435
Mof_O 	O 	0.69109	0.25721	0.30685	-0.426
Mof_O 	O 	0.80308	0.20347	0.24639	-0.399
Mof_O 	O 	0.71706	0.20947	0.30178	-0.414
Mof_O 	O 	0.52001	0.33302	0.38271	-0.441
Mof_O 	O 	0.57255	0.29776	0.34725	-0.439
Mof_O 	O 	0.4931	0.30303	0.39614	-0.431
Mof_O 	O 	0.46041	0.31936	0.36237	-0.413
Mof_O 	O 	0.5138	0.28249	0.32536	-0.416
Mof_O 	O 	0.54587	0.26807	0.35918	-0.427
Mof_O 	O 	0.9687	0.16733	0.26932	-0.409
Mof_O 	O 	0.94751	0.14723	0.24946	-0.392
Mof_O 	O 	0.94028	0.17587	0.31526	-0.428
Mof_O 	O 	0.90235	0.13669	0.2784	-0.408
Mof_O 	O 	0.9174	0.1053	0.37999	-0.442
Mof_O 	O 	0.88706	0.16523	0.34761	-0.428
Mof_C 	C 	0.8712	0.18569	0.2327	0.053
Mof_C 	C 	0.90347	0.17913	0.22768	-0.114
Mof_C 	C 	0.91904	0.15244	0.25309	0.389
Mof_C 	C 	0.48597	0.34588	0.43931	0.098
Mof_C 	C 	0.48078	0.32536	0.43337	-0.166
Mof_C 	C 	0.49949	0.31954	0.40242	0.446
Mof_C 	C 	0.60124	0.21616	0.3525	0.095
Mof_C 	C 	0.65863	0.19629	0.33185	0.09
Mof_C 	C 	0.60175	0.24442	0.34921	-0.161
Mof_C 	C 	0.66038	0.22411	0.3288	-0.151
Mof_C 	C 	0.63145	0.24802	0.33773	0.089
Mof_C 	C 	0.62914	0.19235	0.34321	-0.163
Mof_C 	C 	0.69158	0.23034	0.3119	0.423
Mof_C 	C 	0.62707	0.16555	0.3415	0.444
Mof_C 	C 	0.57138	0.2716	0.35274	0.44
Mof_C 	C 	0.54333	0.28837	0.24165	0.072
Mof_C 	C 	0.56191	0.26956	0.22153	-0.136
Mof_C 	C 	0.95302	0.18594	0.28549	0.417
Mof_Fe	Fe	0.29506	0.50395	0.8417	1.074
Mof_Fe	Fe	0.13924	0.9296	0.58537	1.09
Mof_O 	O 	0.39557	0.48852	0.6704	-0.435
Mof_O 	O 	0.41734	0.51023	0.6052	-0.436
Mof_O 	O 	0.25721	0.69109	0.74485	-0.426
Mof_O 	O 	0.20347	0.80308	0.74706	-0.399
Mof_O 	O 	0.20947	0.71706	0.7717	-0.414
Mof_O 	O 	0.33302	0.52001	0.76425	-0.441
Mof_O 	O 	0.29776	0.57255	0.78245	-0.439
Mof_O 	O 	0.30303	0.4931	0.80773	-0.431
Mof_O 	O 	0.31936	0.46041	0.85786	-0.413
Mof_O 	O 	0.28249	0.5138	0.87835	-0.417
Mof_O 	O 	0.26807	0.54587	0.82688	-0.427
Mof_O 	O 	0.16733	0.9687	0.59464	-0.409
Mof_O 	O 	0.14723	0.94751	0.6558	-0.393
Mof_O 	O 	0.17587	0.94028	0.56859	-0.428
Mof_O 	O 	0.13669	0.90235	0.68256	-0.408
Mof_O 	O 	0.1053	0.9174	0.5973	-0.442
Mof_O 	O 	0.16523	0.88706	0.60009	-0.428
Mof_C 	C 	0.18569	0.8712	0.71041	0.053
Mof_C 	C 	0.17913	0.90347	0.68972	-0.114
Mof_C 	C 	0.15244	0.91904	0.67543	0.389
Mof_C 	C 	0.34588	0.48597	0.72884	0.098
Mof_C 	C 	0.32536	0.48078	0.76049	-0.166
Mof_C 	C 	0.31954	0.49949	0.77855	0.446
Mof_C 	C 	0.21616	0.60124	0.8301	0.095
Mof_C 	C 	0.19629	0.65863	0.81323	0.09
Mof_C 	C 	0.24442	0.60175	0.80462	-0.161
Mof_C 	C 	0.22411	0.66038	0.78671	-0.151
Mof_C 	C 	0.24802	0.63145	0.78279	0.089
Mof_C 	C 	0.19235	0.62914	0.8353	-0.164
Mof_C 	C 	0.23034	0.69158	0.76618	0.423
Mof_C 	C 	0.16555	0.62707	0.86587	0.444
Mof_C 	C 	0.2716	0.57138	0.80428	0.44
Mof_C 	C 	0.28837	0.54333	0.92665	0.073
Mof_C 	C 	0.26956	0.56191	0.94699	-0.137
Mof_C 	C 	0.18594	0.95302	0.57555	0.417
Mof_Fe	Fe	0.3593	0.8417	0.50395	1.074
Mof_Fe	Fe	0.34578	0.58537	0.9296	1.09
Mof_O 	O 	0.44551	0.6704	0.48852	-0.435
Mof_O 	O 	0.46723	0.6052	0.51023	-0.436
Mof_O 	O 	0.30685	0.74485	0.69109	-0.426
Mof_O 	O 	0.24639	0.74706	0.80308	-0.399
Mof_O 	O 	0.30178	0.7717	0.71706	-0.414
Mof_O 	O 	0.38271	0.76425	0.52001	-0.441
Mof_O 	O 	0.34725	0.78245	0.57255	-0.439
Mof_O 	O 	0.39614	0.80773	0.4931	-0.431
Mof_O 	O 	0.36237	0.85786	0.46041	-0.413
Mof_O 	O 	0.32536	0.87835	0.5138	-0.417
Mof_O 	O 	0.35918	0.82688	0.54587	-0.427
Mof_O 	O 	0.26932	0.59464	0.9687	-0.409
Mof_O 	O 	0.24946	0.6558	0.94751	-0.393
Mof_O 	O 	0.31526	0.56859	0.94028	-0.428
Mof_O 	O 	0.2784	0.68256	0.90235	-0.408
Mof_O 	O 	0.37999	0.5973	0.9174	-0.442
Mof_O 	O 	0.34761	0.60009	0.88706	-0.428
Mof_C 	C 	0.2327	0.71041	0.8712	0.053
Mof_C 	C 	0.22768	0.68972	0.90347	-0.114
Mof_C 	C 	0.25309	0.67543	0.91904	0.389
Mof_C 	C 	0.43931	0.72884	0.48597	0.098
Mof_C 	C 	0.43337	0.76049	0.48078	-0.166
Mof_C 	C 	0.40242	0.77855	0.49949	0.445
Mof_C 	C 	0.3525	0.8301	0.60124	0.095
Mof_C 	C 	0.33185	0.81323	0.65863	0.09
Mof_C 	C 	0.34921	0.80462	0.60175	-0.161
Mof_C 	C 	0.3288	0.78671	0.66038	-0.151
Mof_C 	C 	0.33773	0.78279	0.63145	0.089
Mof_C 	C 	0.34321	0.8353	0.62914	-0.164
Mof_C 	C 	0.3119	0.76618	0.69158	0.423
Mof_C 	C 	0.3415	0.86587	0.62707	0.444
Mof_C 	C 	0.35274	0.80428	0.57138	0.44
Mof_C 	C 	0.24165	0.92665	0.54333	0.073
Mof_C 	C 	0.22153	0.94699	0.56191	-0.137
Mof_C 	C 	0.28549	0.57555	0.95302	0.417
Mof_Fe	Fe	0.50395	0.8417	0.3593	1.074
Mof_Fe	Fe	0.9296	0.58537	0.34578	1.09
Mof_O 	O 	0.48852	0.6704	0.44551	-0.435
Mof_O 	O 	0.51023	0.6052	0.46723	-0.436
Mof_O 	O 	0.69109	0.74485	0.30685	-0.426
Mof_O 	O 	0.80308	0.74706	0.24639	-0.399
Mof_O 	O 	0.71706	0.77169	0.30178	-0.414
Mof_O 	O 	0.52001	0.76425	0.38271	-0.441
Mof_O 	O 	0.57255	0.78245	0.34725	-0.439
Mof_O 	O 	0.4931	0.80773	0.39614	-0.431
Mof_O 	O 	0.46041	0.85786	0.36237	-0.413
Mof_O 	O 	0.5138	0.87835	0.32536	-0.417
Mof_O 	O 	0.54587	0.82688	0.35918	-0.427
Mof_O 	O 	0.9687	0.59464	0.26932	-0.409
Mof_O 	O 	0.94751	0.6558	0.24946	-0.393
Mof_O 	O 	0.94028	0.56859	0.31526	-0.428
Mof_O 	O 	0.90235	0.68256	0.2784	-0.408
Mof_O 	O 	0.9174	0.5973	0.37999	-0.442
Mof_O 	O 	0.88706	0.60009	0.34761	-0.428
Mof_C 	C 	0.8712	0.71041	0.2327	0.053
Mof_C 	C 	0.90347	0.68972	0.22768	-0.114
Mof_C 	C 	0.91904	0.67543	0.25309	0.389
Mof_C 	C 	0.48597	0.72884	0.43931	0.098
Mof_C 	C 	0.48078	0.76049	0.43337	-0.166
Mof_C 	C 	0.49949	0.77855	0.40242	0.445
Mof_C 	C 	0.60124	0.8301	0.3525	0.095
Mof_C 	C 	0.65863	0.81323	0.33185	0.09
Mof_C 	C 	0.60175	0.80462	0.34921	-0.161
Mof_C 	C 	0.66038	0.78671	0.3288	-0.151
Mof_C 	C 	0.63145	0.78279	0.33773	0.089
Mof_C 	C 	0.62914	0.8353	0.34321	-0.164
Mof_C 	C 	0.69158	0.76618	0.3119	0.423
Mof_C 	C 	0.62707	0.86587	0.3415	0.444
Mof_C 	C 	0.57138	0.80428	0.35274	0.44
Mof_C 	C 	0.54333	0.92665	0.24165	0.073
Mof_C 	C 	0.56191	0.94699	0.22153	-0.137
Mof_C 	C 	0.95302	0.57555	0.28549	0.417
Mof_Fe	Fe	0.8417	0.50395	0.29506	1.074
Mof_Fe	Fe	0.58537	0.9296	0.13924	1.09
Mof_O 	O 	0.6704	0.48852	0.39557	-0.435
Mof_O 	O 	0.6052	0.51023	0.41734	-0.436
Mof_O 	O 	0.74485	0.69109	0.25721	-0.426
Mof_O 	O 	0.74706	0.80308	0.20347	-0.399
Mof_O 	O 	0.77169	0.71706	0.20947	-0.414
Mof_O 	O 	0.76425	0.52001	0.33302	-0.441
Mof_O 	O 	0.78245	0.57255	0.29776	-0.439
Mof_O 	O 	0.80773	0.4931	0.30303	-0.431
Mof_O 	O 	0.85786	0.46041	0.31936	-0.413
Mof_O 	O 	0.87835	0.5138	0.28249	-0.417
Mof_O 	O 	0.82688	0.54587	0.26807	-0.427
Mof_O 	O 	0.59464	0.9687	0.16733	-0.409
Mof_O 	O 	0.6558	0.94751	0.14723	-0.393
Mof_O 	O 	0.56859	0.94028	0.17587	-0.428
Mof_O 	O 	0.68256	0.90235	0.13669	-0.408
Mof_O 	O 	0.5973	0.9174	0.1053	-0.442
Mof_O 	O 	0.60009	0.88706	0.16523	-0.428
Mof_C 	C 	0.71041	0.8712	0.18569	0.053
Mof_C 	C 	0.68972	0.90347	0.17913	-0.114
Mof_C 	C 	0.67543	0.91904	0.15244	0.389
Mof_C 	C 	0.72884	0.48597	0.34588	0.098
Mof_C 	C 	0.76049	0.48078	0.32536	-0.166
Mof_C 	C 	0.77855	0.49949	0.31954	0.446
Mof_C 	C 	0.8301	0.60124	0.21616	0.095
Mof_C 	C 	0.81323	0.65863	0.19629	0.09
Mof_C 	C 	0.80462	0.60175	0.24442	-0.161
Mof_C 	C 	0.78671	0.66038	0.22411	-0.151
Mof_C 	C 	0.78279	0.63145	0.24802	0.089
Mof_C 	C 	0.8353	0.62914	0.19235	-0.164
Mof_C 	C 	0.76618	0.69158	0.23034	0.423
Mof_C 	C 	0.86587	0.62707	0.16555	0.444
Mof_C 	C 	0.80428	0.57138	0.2716	0.44
Mof_C 	C 	0.92665	0.54333	0.28837	0.073
Mof_C 	C 	0.94699	0.56191	0.26956	-0.137
Mof_C 	C 	0.57555	0.95302	0.18594	0.417
Mof_Fe	Fe	0.3593	0.29506	0.50395	1.074
Mof_Fe	Fe	0.34578	0.13924	0.9296	1.09
Mof_O 	O 	0.44551	0.39557	0.48852	-0.435
Mof_O 	O 	0.46723	0.41734	0.51023	-0.435
Mof_O 	O 	0.30685	0.25721	0.69109	-0.426
Mof_O 	O 	0.24639	0.20347	0.80308	-0.399
Mof_O 	O 	0.30178	0.20947	0.71706	-0.414
Mof_O 	O 	0.38271	0.33302	0.52001	-0.441
Mof_O 	O 	0.34725	0.29776	0.57255	-0.439
Mof_O 	O 	0.39614	0.30303	0.4931	-0.431
Mof_O 	O 	0.36237	0.31936	0.46041	-0.413
Mof_O 	O 	0.32536	0.28249	0.5138	-0.416
Mof_O 	O 	0.35918	0.26807	0.54587	-0.427
Mof_O 	O 	0.26932	0.16733	0.9687	-0.409
Mof_O 	O 	0.24946	0.14723	0.94751	-0.392
Mof_O 	O 	0.31526	0.17587	0.94028	-0.428
Mof_O 	O 	0.2784	0.13669	0.90235	-0.408
Mof_O 	O 	0.37999	0.1053	0.9174	-0.442
Mof_O 	O 	0.34761	0.16523	0.88706	-0.428
Mof_C 	C 	0.2327	0.18569	0.8712	0.053
Mof_C 	C 	0.22768	0.17913	0.90347	-0.114
Mof_C 	C 	0.25309	0.15244	0.91904	0.389
Mof_C 	C 	0.43931	0.34588	0.48597	0.098
Mof_C 	C 	0.43337	0.32536	0.48078	-0.166
Mof_C 	C 	0.40242	0.31954	0.49949	0.446
Mof_C 	C 	0.3525	0.21616	0.60124	0.095
Mof_C 	C 	0.33185	0.19629	0.65863	0.09
Mof_C 	C 	0.34921	0.24442	0.60175	-0.161
Mof_C 	C 	0.3288	0.22411	0.66038	-0.151
Mof_C 	C 	0.33773	0.24802	0.63145	0.089
Mof_C 	C 	0.34321	0.19235	0.62914	-0.163
Mof_C 	C 	0.3119	0.23034	0.69158	0.423
Mof_C 	C 	0.3415	0.16555	0.62707	0.444
Mof_C 	C 	0.35274	0.2716	0.57138	0.44
Mof_C 	C 	0.24165	0.28837	0.54333	0.072
Mof_C 	C 	0.22153	0.26956	0.56191	-0.136
Mof_C 	C 	0.28549	0.18594	0.95302	0.417
Mof_Fe	Fe	0.29506	0.3593	0.8417	1.074
Mof_Fe	Fe	0.13924	0.34578	0.58537	1.09
Mof_O 	O 	0.39557	0.44551	0.6704	-0.435
Mof_O 	O 	0.41734	0.46723	0.6052	-0.435
Mof_O 	O 	0.25721	0.30685	0.74485	-0.426
Mof_O 	O 	0.20347	0.24639	0.74706	-0.399
Mof_O 	O 	0.20947	0.30178	0.77169	-0.414
Mof_O 	O 	0.33302	0.38271	0.76425	-0.441
Mof_O 	O 	0.29776	0.34725	0.78245	-0.439
Mof_O 	O 	0.30303	0.39614	0.80773	-0.431
Mof_O 	O 	0.31936	0.36237	0.85786	-0.413
Mof_O 	O 	0.28249	0.32536	0.87835	-0.417
Mof_O 	O 	0.26807	0.35918	0.82688	-0.427
Mof_O 	O 	0.16733	0.26932	0.59464	-0.408
Mof_O 	O 	0.14723	0.24946	0.6558	-0.393
Mof_O 	O 	0.17587	0.31526	0.56859	-0.428
Mof_O 	O 	0.13669	0.2784	0.68256	-0.408
Mof_O 	O 	0.1053	0.37999	0.5973	-0.442
Mof_O 	O 	0.16523	0.34761	0.60009	-0.428
Mof_C 	C 	0.18569	0.2327	0.71041	0.053
Mof_C 	C 	0.17913	0.22768	0.68972	-0.114
Mof_C 	C 	0.15244	0.25309	0.67543	0.389
Mof_C 	C 	0.34588	0.43931	0.72884	0.098
Mof_C 	C 	0.32536	0.43337	0.76049	-0.166
Mof_C 	C 	0.31954	0.40242	0.77855	0.445
Mof_C 	C 	0.21616	0.3525	0.8301	0.095
Mof_C 	C 	0.19629	0.33185	0.81323	0.09
Mof_C 	C 	0.24442	0.34921	0.80462	-0.161
Mof_C 	C 	0.22411	0.3288	0.78671	-0.151
Mof_C 	C 	0.24802	0.33773	0.78279	0.089
Mof_C 	C 	0.19235	0.34321	0.8353	-0.164
Mof_C 	C 	0.23034	0.3119	0.76618	0.423
Mof_C 	C 	0.16555	0.3415	0.86587	0.444
Mof_C 	C 	0.2716	0.35274	0.80428	0.44
Mof_C 	C 	0.28837	0.24165	0.92665	0.072
Mof_C 	C 	0.26956	0.22153	0.94699	-0.137
Mof_C 	C 	0.18594	0.28549	0.57555	0.417
Mof_Fe	Fe	0.3593	0.50395	0.8417	1.074
Mof_Fe	Fe	0.34578	0.9296	0.58537	1.09
Mof_O 	O 	0.44551	0.48852	0.6704	-0.435
Mof_O 	O 	0.46723	0.51023	0.6052	-0.436
Mof_O 	O 	0.30685	0.69109	0.74485	-0.426
Mof_O 	O 	0.24639	0.80308	0.74706	-0.399
Mof_O 	O 	0.30178	0.71706	0.77169	-0.414
Mof_O 	O 	0.38271	0.52001	0.76425	-0.441
Mof_O 	O 	0.34725	0.57255	0.78245	-0.439
Mof_O 	O 	0.39614	0.4931	0.80773	-0.431
Mof_O 	O 	0.36237	0.46041	0.85786	-0.413
Mof_O 	O 	0.32536	0.5138	0.87835	-0.417
Mof_O 	O 	0.35918	0.54587	0.82688	-0.427
Mof_O 	O 	0.26932	0.9687	0.59464	-0.409
Mof_O 	O 	0.24946	0.94751	0.6558	-0.393
Mof_O 	O 	0.31526	0.94028	0.56859	-0.428
Mof_O 	O 	0.2784	0.90235	0.68256	-0.408
Mof_O 	O 	0.37999	0.9174	0.5973	-0.442
Mof_O 	O 	0.34761	0.88706	0.60009	-0.428
Mof_C 	C 	0.2327	0.8712	0.71041	0.053
Mof_C 	C 	0.22768	0.90347	0.68972	-0.114
Mof_C 	C 	0.25309	0.91904	0.67543	0.389
Mof_C 	C 	0.43931	0.48597	0.72884	0.098
Mof_C 	C 	0.43337	0.48078	0.76049	-0.166
Mof_C 	C 	0.40242	0.49949	0.77855	0.445
Mof_C 	C 	0.3525	0.60124	0.8301	0.095
Mof_C 	C 	0.33185	0.65863	0.81323	0.09
Mof_C 	C 	0.34921	0.60175	0.80462	-0.161
Mof_C 	C 	0.3288	0.66038	0.78671	-0.151
Mof_C 	C 	0.33773	0.63145	0.78279	0.089
Mof_C 	C 	0.34321	0.62914	0.8353	-0.164
Mof_C 	C 	0.3119	0.69158	0.76618	0.423
Mof_C 	C 	0.3415	0.62707	0.86587	0.444
Mof_C 	C 	0.35274	0.57138	0.80428	0.44
Mof_C 	C 	0.24165	0.54333	0.92665	0.073
Mof_C 	C 	0.22153	0.56191	0.94699	-0.137
Mof_C 	C 	0.28549	0.95302	0.57555	0.417
Mof_Fe	Fe	0.29506	0.8417	0.50395	1.074
Mof_Fe	Fe	0.13924	0.58537	0.9296	1.09
Mof_O 	O 	0.39557	0.6704	0.48852	-0.435
Mof_O 	O 	0.41734	0.6052	0.51023	-0.436
Mof_O 	O 	0.25721	0.74485	0.69109	-0.426
Mof_O 	O 	0.20347	0.74706	0.80308	-0.399
Mof_O 	O 	0.20947	0.77169	0.71706	-0.414
Mof_O 	O 	0.33302	0.76425	0.52001	-0.441
Mof_O 	O 	0.29776	0.78245	0.57255	-0.439
Mof_O 	O 	0.30303	0.80773	0.4931	-0.431
Mof_O 	O 	0.31936	0.85786	0.46041	-0.413
Mof_O 	O 	0.28249	0.87835	0.5138	-0.417
Mof_O 	O 	0.26807	0.82688	0.54587	-0.427
Mof_O 	O 	0.16733	0.59464	0.9687	-0.409
Mof_O 	O 	0.14723	0.6558	0.94751	-0.393
Mof_O 	O 	0.17587	0.56859	0.94028	-0.428
Mof_O 	O 	0.13669	0.68256	0.90235	-0.408
Mof_O 	O 	0.1053	0.5973	0.9174	-0.442
Mof_O 	O 	0.16523	0.60009	0.88706	-0.428
Mof_C 	C 	0.18569	0.71041	0.8712	0.053
Mof_C 	C 	0.17913	0.68972	0.90347	-0.114
Mof_C 	C 	0.15244	0.67543	0.91904	0.389
Mof_C 	C 	0.34588	0.72884	0.48597	0.098
Mof_C 	C 	0.32536	0.76049	0.48078	-0.166
Mof_C 	C 	0.31954	0.77855	0.49949	0.446
Mof_C 	C 	0.21616	0.8301	0.60124	0.095
Mof_C 	C 	0.19629	0.81323	0.65863	0.09
Mof_C 	C 	0.24442	0.80462	0.60175	-0.161
Mof_C 	C 	0.22411	0.78671	0.66038	-0.151
Mof_C 	C 	0.24802	0.78279	0.63145	0.089
Mof_C 	C 	0.19235	0.8353	0.62914	-0.164
Mof_C 	C 	0.23034	0.76618	0.69158	0.423
Mof_C 	C 	0.16555	0.86587	0.62707	0.444
Mof_C 	C 	0.2716	0.80428	0.57138	0.44
Mof_C 	C 	0.28837	0.92665	0.54333	0.073
Mof_C 	C 	0.26956	0.94699	0.56191	-0.137
Mof_C 	C 	0.18594	0.57555	0.95302	0.417
Mof_Fe	Fe	0.50395	0.3593	0.29506	1.074
Mof_Fe	Fe	0.9296	0.34578	0.13924	1.09
Mof_O 	O 	0.48852	0.44551	0.39557	-0.435
Mof_O 	O 	0.51023	0.46723	0.41734	-0.435
Mof_O 	O 	0.69109	0.30685	0.25721	-0.426
Mof_O 	O 	0.80308	0.24639	0.20347	-0.399
Mof_O 	O 	0.71706	0.30178	0.20947	-0.414
Mof_O 	O 	0.52001	0.38271	0.33302	-0.441
Mof_O 	O 	0.57255	0.34725	0.29776	-0.439
Mof_O 	O 	0.4931	0.39614	0.30303	-0.431
Mof_O 	O 	0.46041	0.36237	0.31936	-0.413
Mof_O 	O 	0.5138	0.32536	0.28249	-0.416
Mof_O 	O 	0.54587	0.35918	0.26807	-0.427
Mof_O 	O 	0.9687	0.26932	0.16733	-0.409
Mof_O 	O 	0.94751	0.24946	0.14723	-0.392
Mof_O 	O 	0.94028	0.31526	0.17587	-0.428
Mof_O 	O 	0.90235	0.2784	0.13669	-0.408
Mof_O 	O 	0.9174	0.37999	0.1053	-0.442
Mof_O 	O 	0.88706	0.34761	0.16523	-0.428
Mof_C 	C 	0.8712	0.2327	0.18569	0.053
Mof_C 	C 	0.90347	0.22768	0.17913	-0.114
Mof_C 	C 	0.91904	0.25309	0.15244	0.389
Mof_C 	C 	0.48597	0.43931	0.34588	0.098
Mof_C 	C 	0.48078	0.43337	0.32536	-0.166
Mof_C 	C 	0.49949	0.40242	0.31954	0.446
Mof_C 	C 	0.60124	0.3525	0.21616	0.095
Mof_C 	C 	0.65863	0.33185	0.19629	0.09
Mof_C 	C 	0.60175	0.34921	0.24442	-0.161
Mof_C 	C 	0.66038	0.3288	0.22411	-0.151
Mof_C 	C 	0.63145	0.33773	0.24802	0.089
Mof_C 	C 	0.62914	0.34321	0.19235	-0.163
Mof_C 	C 	0.69158	0.3119	0.23034	0.423
Mof_C 	C 	0.62707	0.3415	0.16555	0.444
Mof_C 	C 	0.57138	0.35274	0.2716	0.44
Mof_C 	C 	0.54333	0.24165	0.28837	0.072
Mof_C 	C 	0.56191	0.22153	0.26956	-0.136
Mof_C 	C 	0.95302	0.28549	0.18594	0.417
Mof_Fe	Fe	0.8417	0.29506	0.3593	1.074
Mof_Fe	Fe	0.58537	0.13924	0.34578	1.09
Mof_O 	O 	0.6704	0.39557	0.44551	-0.435
Mof_O 	O 	0.6052	0.41734	0.46723	-0.435
Mof_O 	O 	0.74485	0.25721	0.30685	-0.426
Mof_O 	O 	0.74706	0.20347	0.24639	-0.399
Mof_O 	O 	0.77169	0.20947	0.30178	-0.414
Mof_O 	O 	0.76425	0.33302	0.38271	-0.441
Mof_O 	O 	0.78245	0.29776	0.34725	-0.439
Mof_O 	O 	0.80773	0.30303	0.39614	-0.431
Mof_O 	O 	0.85786	0.31936	0.36237	-0.413
Mof_O 	O 	0.87835	0.28249	0.32536	-0.417
Mof_O 	O 	0.82688	0.26807	0.35918	-0.427
Mof_O 	O 	0.59464	0.16733	0.26932	-0.408
Mof_O 	O 	0.6558	0.14723	0.24946	-0.393
Mof_O 	O 	0.56859	0.17587	0.31526	-0.428
Mof_O 	O 	0.68256	0.13669	0.2784	-0.408
Mof_O 	O 	0.5973	0.1053	0.37999	-0.442
Mof_O 	O 	0.60009	0.16523	0.34761	-0.428
Mof_C 	C 	0.71041	0.18569	0.2327	0.053
Mof_C 	C 	0.68972	0.17913	0.22768	-0.114
Mof_C 	C 	0.67543	0.15244	0.25309	0.389
Mof_C 	C 	0.72884	0.34588	0.43931	0.098
Mof_C 	C 	0.76049	0.32536	0.43337	-0.166
Mof_C 	C 	0.77855	0.31954	0.40242	0.445
Mof_C 	C 	0.8301	0.21616	0.3525	0.095
Mof_C 	C 	0.81323	0.19629	0.33185	0.09
Mof_C 	C 	0.80462	0.24442	0.34921	-0.161
Mof_C 	C 	0.78671	0.22411	0.3288	-0.151
Mof_C 	C 	0.78279	0.24802	0.33773	0.089
Mof_C 	C 	0.8353	0.19235	0.34321	-0.164
Mof_C 	C 	0.76618	0.23034	0.3119	0.423
Mof_C 	C 	0.86587	0.16555	0.3415	0.444
Mof_C 	C 	0.80428	0.2716	0.35274	0.44
Mof_C 	C 	0.92665	0.28837	0.24165	0.072
Mof_C 	C 	0.94699	0.26956	0.22153	-0.137
Mof_C 	C 	0.57555	0.18594	0.28549	0.417
Mof_Fe	Fe	0.8417	0.3593	0.50395	1.074
Mof_Fe	Fe	0.58537	0.34578	0.9296	1.09
Mof_O 	O 	0.6704	0.44551	0.48852	-0.435
Mof_O 	O 	0.6052	0.46723	0.51023	-0.436
Mof_O 	O 	0.74485	0.30685	0.69109	-0.426
Mof_O 	O 	0.74706	0.24639	0.80308	-0.399
Mof_O 	O 	0.77169	0.30178	0.71706	-0.414
Mof_O 	O 	0.76425	0.38271	0.52001	-0.441
Mof_O 	O 	0.78245	0.34725	0.57255	-0.439
Mof_O 	O 	0.80773	0.39614	0.4931	-0.431
Mof_O 	O 	0.85786	0.36237	0.46041	-0.413
Mof_O 	O 	0.87835	0.32536	0.5138	-0.417
Mof_O 	O 	0.82688	0.35918	0.54587	-0.427
Mof_O 	O 	0.59464	0.26932	0.9687	-0.409
Mof_O 	O 	0.6558	0.24946	0.94751	-0.393
Mof_O 	O 	0.56859	0.31526	0.94028	-0.428
Mof_O 	O 	0.68256	0.2784	0.90235	-0.408
Mof_O 	O 	0.5973	0.37999	0.9174	-0.442
Mof_O 	O 	0.60009	0.34761	0.88706	-0.428
Mof_C 	C 	0.71041	0.2327	0.8712	0.053
Mof_C 	C 	0.68972	0.22768	0.90347	-0.114
Mof_C 	C 	0.67543	0.25309	0.91904	0.389
Mof_C 	C 	0.72884	0.43931	0.48597	0.098
Mof_C 	C 	0.76049	0.43337	0.48078	-0.166
Mof_C 	C 	0.77855	0.40242	0.49949	0.445
Mof_C 	C 	0.8301	0.3525	0.60124	0.095
Mof_C 	C 	0.81323	0.33185	0.65863	0.09
Mof_C 	C 	0.80462	0.34921	0.60175	-0.161
Mof_C 	C 	0.78671	0.3288	0.66038	-0.151
Mof_C 	C 	0.78279	0.33773	0.63145	0.089
Mof_C 	C 	0.8353	0.34321	0.62914	-0.164
Mof_C 	C 	0.76618	0.3119	0.69158	0.423
Mof_C 	C 	0.86587	0.3415	0.62707	0.444
Mof_C 	C 	0.80428	0.35274	0.57138	0.44
Mof_C 	C 	0.92665	0.24165	0.54333	0.073
Mof_C 	C 	0.94699	0.22153	0.56191	-0.137
Mof_C 	C 	0.57555	0.28549	0.95302	0.417
Mof_Fe	Fe	0.50395	0.29506	0.8417	1.074
Mof_Fe	Fe	0.9296	0.13924	0.58537	1.09
Mof_O 	O 	0.48852	0.39557	0.6704	-0.435
Mof_O 	O 	0.51023	0.41734	0.6052	-0.436
Mof_O 	O 	0.69109	0.25721	0.74485	-0.426
Mof_O 	O 	0.80308	0.20347	0.74706	-0.399
Mof_O 	O 	0.71706	0.20947	0.77169	-0.414
Mof_O 	O 	0.52001	0.33302	0.76425	-0.441
Mof_O 	O 	0.57255	0.29776	0.78245	-0.439
Mof_O 	O 	0.4931	0.30303	0.80773	-0.431
Mof_O 	O 	0.46041	0.31936	0.85786	-0.413
Mof_O 	O 	0.5138	0.28249	0.87835	-0.417
Mof_O 	O 	0.54587	0.26807	0.82688	-0.427
Mof_O 	O 	0.9687	0.16733	0.59464	-0.409
Mof_O 	O 	0.94751	0.14723	0.6558	-0.393
Mof_O 	O 	0.94028	0.17587	0.56859	-0.428
Mof_O 	O 	0.90235	0.13669	0.68256	-0.408
Mof_O 	O 	0.9174	0.1053	0.5973	-0.442
Mof_O 	O 	0.88706	0.16523	0.60009	-0.428
Mof_C 	C 	0.8712	0.18569	0.71041	0.053
Mof_C 	C 	0.90347	0.17913	0.68972	-0.114
Mof_C 	C 	0.91904	0.15244	0.67543	0.389
Mof_C 	C 	0.48597	0.34588	0.72884	0.098
Mof_C 	C 	0.48078	0.32536	0.76049	-0.166
Mof_C 	C 	0.49949	0.31954	0.77855	0.446
Mof_C 	C 	0.60124	0.21616	0.8301	0.095
Mof_C 	C 	0.65863	0.19629	0.81323	0.09
Mof_C 	C 	0.60175	0.24442	0.80462	-0.161
Mof_C 	C 	0.66038	0.22411	0.78671	-0.151
Mof_C 	C 	0.63145	0.24802	0.78279	0.089
Mof_C 	C 	0.62914	0.19235	0.8353	-0.164
Mof_C 	C 	0.69158	0.23034	0.76618	0.423
Mof_C 	C 	0.62707	0.16555	0.86587	0.444
Mof_C 	C 	0.57138	0.2716	0.80428	0.44
Mof_C 	C 	0.54333	0.28837	0.92665	0.073
Mof_C 	C 	0.56191	0.26956	0.94699	-0.137
Mof_C 	C 	0.95302	0.18594	0.57555	0.417
Mof_Fe	Fe	0.29506	0.50395	0.3593	1.074
Mof_Fe	Fe	0.13924	0.9296	0.34578	1.09
Mof_O 	O 	0.39557	0.48852	0.44551	-0.435
Mof_O 	O 	0.41734	0.51023	0.46723	-0.435
Mof_O 	O 	0.25721	0.69109	0.30685	-0.426
Mof_O 	O 	0.20347	0.80308	0.24639	-0.399
Mof_O 	O 	0.20947	0.71706	0.30178	-0.414
Mof_O 	O 	0.33302	0.52001	0.38271	-0.441
Mof_O 	O 	0.29776	0.57255	0.34725	-0.439
Mof_O 	O 	0.30303	0.4931	0.39614	-0.431
Mof_O 	O 	0.31936	0.46041	0.36237	-0.413
Mof_O 	O 	0.28249	0.5138	0.32536	-0.416
Mof_O 	O 	0.26807	0.54587	0.35918	-0.427
Mof_O 	O 	0.16733	0.9687	0.26932	-0.409
Mof_O 	O 	0.14723	0.94751	0.24946	-0.392
Mof_O 	O 	0.17587	0.94028	0.31526	-0.428
Mof_O 	O 	0.13669	0.90235	0.2784	-0.408
Mof_O 	O 	0.1053	0.9174	0.37999	-0.442
Mof_O 	O 	0.16523	0.88706	0.34761	-0.428
Mof_C 	C 	0.18569	0.8712	0.2327	0.053
Mof_C 	C 	0.17913	0.90347	0.22768	-0.114
Mof_C 	C 	0.15244	0.91904	0.25309	0.389
Mof_C 	C 	0.34588	0.48597	0.43931	0.098
Mof_C 	C 	0.32536	0.48078	0.43337	-0.166
Mof_C 	C 	0.31954	0.49949	0.40242	0.446
Mof_C 	C 	0.21616	0.60124	0.3525	0.095
Mof_C 	C 	0.19629	0.65863	0.33185	0.09
Mof_C 	C 	0.24442	0.60175	0.34921	-0.161
Mof_C 	C 	0.22411	0.66038	0.3288	-0.151
Mof_C 	C 	0.24802	0.63145	0.33773	0.089
Mof_C 	C 	0.19235	0.62914	0.34321	-0.163
Mof_C 	C 	0.23034	0.69158	0.3119	0.423
Mof_C 	C 	0.16555	0.62707	0.3415	0.444
Mof_C 	C 	0.2716	0.57138	0.35274	0.44
Mof_C 	C 	0.28837	0.54333	0.24165	0.072
Mof_C 	C 	0.26956	0.56191	0.22153	-0.136
Mof_C 	C 	0.18594	0.95302	0.28549	0.417
Mof_Fe	Fe	0.3593	0.8417	0.29506	1.074
Mof_Fe	Fe	0.34578	0.58537	0.13924	1.09
Mof_O 	O 	0.44551	0.6704	0.39557	-0.435
Mof_O 	O 	0.46723	0.6052	0.41734	-0.435
Mof_O 	O 	0.30685	0.74485	0.25721	-0.426
Mof_O 	O 	0.24639	0.74706	0.20347	-0.399
Mof_O 	O 	0.30178	0.77169	0.20947	-0.414
Mof_O 	O 	0.38271	0.76425	0.33302	-0.441
Mof_O 	O 	0.34725	0.78245	0.29776	-0.439
Mof_O 	O 	0.39614	0.80773	0.30303	-0.431
Mof_O 	O 	0.36237	0.85786	0.31936	-0.413
Mof_O 	O 	0.32536	0.87835	0.28249	-0.417
Mof_O 	O 	0.35918	0.82688	0.26807	-0.427
Mof_O 	O 	0.26932	0.59464	0.16733	-0.408
Mof_O 	O 	0.24946	0.6558	0.14723	-0.393
Mof_O 	O 	0.31526	0.56859	0.17587	-0.428
Mof_O 	O 	0.2784	0.68256	0.13669	-0.408
Mof_O 	O 	0.37999	0.5973	0.1053	-0.442
Mof_O 	O 	0.34761	0.60009	0.16523	-0.428
Mof_C 	C 	0.2327	0.71041	0.18569	0.053
Mof_C 	C 	0.22768	0.68972	0.17913	-0.114
Mof_C 	C 	0.25309	0.67543	0.15244	0.389
Mof_C 	C 	0.43931	0.72884	0.34588	0.098
Mof_C 	C 	0.43337	0.76049	0.32536	-0.166
Mof_C 	C 	0.40242	0.77855	0.31954	0.445
Mof_C 	C 	0.3525	0.8301	0.21616	0.095
Mof_C 	C 	0.33185	0.81323	0.19629	0.09
Mof_C 	C 	0.34921	0.80462	0.24442	-0.161
Mof_C 	C 	0.3288	0.78671	0.22411	-0.151
Mof_C 	C 	0.33773	0.78279	0.24802	0.089
Mof_C 	C 	0.34321	0.8353	0.19235	-0.164
Mof_C 	C 	0.3119	0.76618	0.23034	0.423
Mof_C 	C 	0.3415	0.86587	0.16555	0.444
Mof_C 	C 	0.35274	0.80428	0.2716	0.44
Mof_C 	C 	0.24165	0.92665	0.28837	0.072
Mof_C 	C 	0.22153	0.94699	0.26956	-0.137
Mof_C 	C 	0.28549	0.57555	0.18594	0.417
Mof_Fe	Fe	0.74605	0.4083	0.95494	1.074
Mof_Fe	Fe	0.3204	0.66463	0.11076	1.09
Mof_O 	O 	0.76148	0.5796	0.85443	-0.435
Mof_O 	O 	0.73977	0.6448	0.83266	-0.436
Mof_O 	O 	0.55891	0.50515	0.99279	-0.427
Mof_O 	O 	0.44692	0.50294	0.04653	-0.399
Mof_O 	O 	0.53294	0.47831	0.04053	-0.415
Mof_O 	O 	0.72999	0.48575	0.91698	-0.441
Mof_O 	O 	0.67745	0.46755	0.95224	-0.439
Mof_O 	O 	0.7569	0.44227	0.94697	-0.431
Mof_O 	O 	0.78959	0.39214	0.93064	-0.413
Mof_O 	O 	0.7362	0.37165	0.96751	-0.417
Mof_O 	O 	0.70413	0.42312	0.98193	-0.427
Mof_O 	O 	0.2813	0.65536	0.08267	-0.409
Mof_O 	O 	0.30249	0.5942	0.10277	-0.392
Mof_O 	O 	0.30972	0.68141	0.07413	-0.428
Mof_O 	O 	0.34765	0.56744	0.11331	-0.408
Mof_O 	O 	0.3326	0.6527	0.1447	-0.442
Mof_O 	O 	0.36294	0.64991	0.08477	-0.428
Mof_C 	C 	0.3788	0.53959	0.06431	0.053
Mof_C 	C 	0.34653	0.56028	0.07087	-0.114
Mof_C 	C 	0.33096	0.57457	0.09756	0.389
Mof_C 	C 	0.76403	0.52116	0.90412	0.098
Mof_C 	C 	0.76922	0.48951	0.92464	-0.166
Mof_C 	C 	0.75051	0.47145	0.93046	0.446
Mof_C 	C 	0.64876	0.4199	0.03384	0.095
Mof_C 	C 	0.59137	0.43677	0.05371	0.09
Mof_C 	C 	0.64825	0.44538	0.00558	-0.16
Mof_C 	C 	0.58962	0.46329	0.02589	-0.152
Mof_C 	C 	0.61855	0.46721	0.00198	0.091
Mof_C 	C 	0.62086	0.4147	0.05765	-0.164
Mof_C 	C 	0.55842	0.48382	0.01966	0.425
Mof_C 	C 	0.62293	0.38413	0.08445	0.444
Mof_C 	C 	0.67862	0.44572	0.9784	0.438
Mof_C 	C 	0.70667	0.32335	0.96163	0.074
Mof_C 	C 	0.68809	0.30301	0.98044	-0.139
Mof_C 	C 	0.29698	0.67445	0.06406	0.418
Mof_Fe	Fe	0.4083	0.74605	0.8907	1.074
Mof_Fe	Fe	0.66463	0.3204	0.90422	1.09
Mof_O 	O 	0.5796	0.76148	0.80449	-0.435
Mof_O 	O 	0.6448	0.73977	0.78277	-0.436
Mof_O 	O 	0.50515	0.55891	0.94315	-0.426
Mof_O 	O 	0.50294	0.44692	0.00361	-0.398
Mof_O 	O 	0.47831	0.53294	0.94822	-0.414
Mof_O 	O 	0.48575	0.72999	0.86729	-0.441
Mof_O 	O 	0.46755	0.67745	0.90275	-0.439
Mof_O 	O 	0.44227	0.7569	0.85386	-0.431
Mof_O 	O 	0.39214	0.78959	0.88763	-0.413
Mof_O 	O 	0.37165	0.7362	0.92464	-0.417
Mof_O 	O 	0.42312	0.70413	0.89082	-0.427
Mof_O 	O 	0.65536	0.2813	0.98068	-0.409
Mof_O 	O 	0.5942	0.30249	0.00054	-0.39
Mof_O 	O 	0.68141	0.30972	0.93474	-0.428
Mof_O 	O 	0.56744	0.34765	0.9716	-0.407
Mof_O 	O 	0.6527	0.3326	0.87001	-0.442
Mof_O 	O 	0.64991	0.36294	0.90239	-0.428
Mof_C 	C 	0.53959	0.3788	0.0173	0.054
Mof_C 	C 	0.56028	0.34653	0.02232	-0.112
Mof_C 	C 	0.57457	0.33096	0.99691	0.385
Mof_C 	C 	0.52116	0.76403	0.81069	0.098
Mof_C 	C 	0.48951	0.76922	0.81663	-0.166
Mof_C 	C 	0.47145	0.75051	0.84758	0.446
Mof_C 	C 	0.4199	0.64876	0.8975	0.095
Mof_C 	C 	0.43677	0.59137	0.91815	0.09
Mof_C 	C 	0.44538	0.64825	0.90079	-0.161
Mof_C 	C 	0.46329	0.58962	0.9212	-0.151
Mof_C 	C 	0.46721	0.61855	0.91227	0.089
Mof_C 	C 	0.4147	0.62086	0.90679	-0.164
Mof_C 	C 	0.48382	0.55842	0.9381	0.423
Mof_C 	C 	0.38413	0.62293	0.9085	0.444
Mof_C 	C 	0.44572	0.67862	0.89726	0.44
Mof_C 	C 	0.32335	0.70667	0.00835	0.075
Mof_C 	C 	0.30301	0.68809	0.02847	-0.138
Mof_C 	C 	0.67445	0.29698	0.96451	0.418
Mof_Fe	Fe	0.8907	0.95494	0.4083	1.074
Mof_Fe	Fe	0.90422	0.11076	0.66463	1.09
Mof_O 	O 	0.80449	0.85443	0.5796	-0.435
Mof_O 	O 	0.78277	0.83266	0.6448	-0.435
Mof_O 	O 	0.94315	0.99279	0.50515	-0.427
Mof_O 	O 	0.00361	0.04653	0.50294	-0.398
Mof_O 	O 	0.94822	0.04053	0.47831	-0.415
Mof_O 	O 	0.86729	0.91698	0.48575	-0.441
Mof_O 	O 	0.90275	0.95224	0.46755	-0.439
Mof_O 	O 	0.85386	0.94697	0.44227	-0.431
Mof_O 	O 	0.88763	0.93064	0.39214	-0.413
Mof_O 	O 	0.92464	0.96751	0.37165	-0.417
Mof_O 	O 	0.89082	0.98193	0.42312	-0.427
Mof_O 	O 	0.98068	0.08267	0.65536	-0.409
Mof_O 	O 	0.00054	0.10277	0.5942	-0.39
Mof_O 	O 	0.93474	0.07413	0.68141	-0.428
Mof_O 	O 	0.9716	0.11331	0.56744	-0.407
Mof_O 	O 	0.87001	0.1447	0.6527	-0.442
Mof_O 	O 	0.90239	0.08477	0.64991	-0.428
Mof_C 	C 	0.0173	0.06431	0.53959	0.054
Mof_C 	C 	0.02232	0.07087	0.56028	-0.112
Mof_C 	C 	0.99691	0.09756	0.57457	0.385
Mof_C 	C 	0.81069	0.90412	0.52116	0.098
Mof_C 	C 	0.81663	0.92464	0.48951	-0.166
Mof_C 	C 	0.84758	0.93046	0.47145	0.445
Mof_C 	C 	0.8975	0.03384	0.4199	0.095
Mof_C 	C 	0.91815	0.05371	0.43677	0.09
Mof_C 	C 	0.90079	0.00558	0.44538	-0.16
Mof_C 	C 	0.9212	0.02589	0.46329	-0.152
Mof_C 	C 	0.91227	0.00198	0.46721	0.091
Mof_C 	C 	0.90679	0.05765	0.4147	-0.164
Mof_C 	C 	0.9381	0.01966	0.48382	0.425
Mof_C 	C 	0.9085	0.08445	0.38413	0.444
Mof_C 	C 	0.89726	0.9784	0.44572	0.438
Mof_C 	C 	0.00835	0.96163	0.32335	0.076
Mof_C 	C 	0.02847	0.98044	0.30301	-0.14
Mof_C 	C 	0.96451	0.06406	0.67445	0.418
Mof_Fe	Fe	0.95494	0.8907	0.74605	1.074
Mof_Fe	Fe	0.11076	0.90422	0.3204	1.09
Mof_O 	O 	0.85443	0.80449	0.76148	-0.435
Mof_O 	O 	0.83266	0.78277	0.73977	-0.436
Mof_O 	O 	0.99279	0.94315	0.55891	-0.427
Mof_O 	O 	0.04653	0.00361	0.44692	-0.398
Mof_O 	O 	0.04053	0.94822	0.53294	-0.415
Mof_O 	O 	0.91698	0.86729	0.72999	-0.441
Mof_O 	O 	0.95224	0.90275	0.67745	-0.439
Mof_O 	O 	0.94697	0.85386	0.7569	-0.431
Mof_O 	O 	0.93064	0.88763	0.78959	-0.413
Mof_O 	O 	0.96751	0.92464	0.7362	-0.417
Mof_O 	O 	0.98193	0.89082	0.70413	-0.427
Mof_O 	O 	0.08267	0.98068	0.2813	-0.409
Mof_O 	O 	0.10277	0.00054	0.30249	-0.39
Mof_O 	O 	0.07413	0.93474	0.30972	-0.428
Mof_O 	O 	0.11331	0.9716	0.34765	-0.407
Mof_O 	O 	0.1447	0.87001	0.3326	-0.442
Mof_O 	O 	0.08477	0.90239	0.36294	-0.428
Mof_C 	C 	0.06431	0.0173	0.3788	0.054
Mof_C 	C 	0.07087	0.02232	0.34653	-0.112
Mof_C 	C 	0.09756	0.99691	0.33096	0.385
Mof_C 	C 	0.90412	0.81069	0.76403	0.098
Mof_C 	C 	0.92464	0.81663	0.76922	-0.166
Mof_C 	C 	0.93046	0.84758	0.75051	0.446
Mof_C 	C 	0.03384	0.8975	0.64876	0.095
Mof_C 	C 	0.05371	0.91815	0.59137	0.09
Mof_C 	C 	0.00558	0.90079	0.64825	-0.16
Mof_C 	C 	0.02589	0.9212	0.58962	-0.152
Mof_C 	C 	0.00198	0.91227	0.61855	0.091
Mof_C 	C 	0.05765	0.90679	0.62086	-0.164
Mof_C 	C 	0.01966	0.9381	0.55842	0.425
Mof_C 	C 	0.08445	0.9085	0.62293	0.444
Mof_C 	C 	0.9784	0.89726	0.67862	0.438
Mof_C 	C 	0.96163	0.00835	0.70667	0.076
Mof_C 	C 	0.98044	0.02847	0.68809	-0.14
Mof_C 	C 	0.06406	0.96451	0.29698	0.418
Mof_Fe	Fe	0.8907	0.74605	0.95494	1.074
Mof_Fe	Fe	0.90422	0.3204	0.11076	1.09
Mof_O 	O 	0.80449	0.76148	0.85443	-0.435
Mof_O 	O 	0.78277	0.73977	0.83266	-0.436
Mof_O 	O 	0.94315	0.55891	0.99279	-0.427
Mof_O 	O 	0.00361	0.44692	0.04653	-0.398
Mof_O 	O 	0.94822	0.53294	0.04053	-0.415
Mof_O 	O 	0.86729	0.72999	0.91698	-0.441
Mof_O 	O 	0.90275	0.67745	0.95224	-0.439
Mof_O 	O 	0.85386	0.7569	0.94697	-0.431
Mof_O 	O 	0.88763	0.78959	0.93064	-0.413
Mof_O 	O 	0.92464	0.7362	0.96751	-0.417
Mof_O 	O 	0.89082	0.70413	0.98193	-0.427
Mof_O 	O 	0.98068	0.2813	0.08267	-0.409
Mof_O 	O 	0.00054	0.30249	0.10277	-0.39
Mof_O 	O 	0.93474	0.30972	0.07413	-0.428
Mof_O 	O 	0.9716	0.34765	0.11331	-0.407
Mof_O 	O 	0.87001	0.3326	0.1447	-0.442
Mof_O 	O 	0.90239	0.36294	0.08477	-0.428
Mof_C 	C 	0.0173	0.3788	0.06431	0.054
Mof_C 	C 	0.02232	0.34653	0.07087	-0.112
Mof_C 	C 	0.99691	0.33096	0.09756	0.385
Mof_C 	C 	0.81069	0.76403	0.90412	0.098
Mof_C 	C 	0.81663	0.76922	0.92464	-0.166
Mof_C 	C 	0.84758	0.75051	0.93046	0.446
Mof_C 	C 	0.8975	0.64876	0.03384	0.095
Mof_C 	C 	0.91815	0.59137	0.05371	0.09
Mof_C 	C 	0.90079	0.64825	0.00558	-0.16
Mof_C 	C 	0.9212	0.58962	0.02589	-0.152
Mof_C 	C 	0.91227	0.61855	0.00198	0.091
Mof_C 	C 	0.90679	0.62086	0.05765	-0.164
Mof_C 	C 	0.9381	0.55842	0.01966	0.425
Mof_C 	C 	0.9085	0.62293	0.08445	0.444
Mof_C 	C 	0.89726	0.67862	0.9784	0.438
Mof_C 	C 	0.00835	0.70667	0.96163	0.076
Mof_C 	C 	0.02847	0.68809	0.98044	-0.14
Mof_C 	C 	0.96451	0.29698	0.06406	0.418
Mof_Fe	Fe	0.95494	0.4083	0.8907	1.074
Mof_Fe	Fe	0.11076	0.66463	0.90422	1.09
Mof_O 	O 	0.85443	0.5796	0.80449	-0.435
Mof_O 	O 	0.83266	0.6448	0.78277	-0.435
Mof_O 	O 	0.99279	0.50515	0.94315	-0.427
Mof_O 	O 	0.04653	0.50294	0.00361	-0.398
Mof_O 	O 	0.04053	0.47831	0.94822	-0.415
Mof_O 	O 	0.91698	0.48575	0.86729	-0.441
Mof_O 	O 	0.95224	0.46755	0.90275	-0.439
Mof_O 	O 	0.94697	0.44227	0.85386	-0.431
Mof_O 	O 	0.93064	0.39214	0.88763	-0.413
Mof_O 	O 	0.96751	0.37165	0.92464	-0.417
Mof_O 	O 	0.98193	0.42312	0.89082	-0.427
Mof_O 	O 	0.08267	0.65536	0.98068	-0.409
Mof_O 	O 	0.10277	0.5942	0.00054	-0.39
Mof_O 	O 	0.07413	0.68141	0.93474	-0.428
Mof_O 	O 	0.11331	0.56744	0.9716	-0.407
Mof_O 	O 	0.1447	0.6527	0.87001	-0.442
Mof_O 	O 	0.08477	0.64991	0.90239	-0.428
Mof_C 	C 	0.06431	0.53959	0.0173	0.054
Mof_C 	C 	0.07087	0.56028	0.02232	-0.112
Mof_C 	C 	0.09756	0.57457	0.99691	0.385
Mof_C 	C 	0.90412	0.52116	0.81069	0.098
Mof_C 	C 	0.92464	0.48951	0.81663	-0.166
Mof_C 	C 	0.93046	0.47145	0.84758	0.445
Mof_C 	C 	0.03384	0.4199	0.8975	0.095
Mof_C 	C 	0.05371	0.43677	0.91815	0.09
Mof_C 	C 	0.00558	0.44538	0.90079	-0.16
Mof_C 	C 	0.02589	0.46329	0.9212	-0.152
Mof_C 	C 	0.00198	0.46721	0.91227	0.091
Mof_C 	C 	0.05765	0.4147	0.90679	-0.164
Mof_C 	C 	0.01966	0.48382	0.9381	0.425
Mof_C 	C 	0.08445	0.38413	0.9085	0.444
Mof_C 	C 	0.9784	0.44572	0.89726	0.438
Mof_C 	C 	0.96163	0.32335	0.00835	0.076
Mof_C 	C 	0.98044	0.30301	0.02847	-0.14
Mof_C 	C 	0.06406	0.67445	0.96451	0.418
Mof_Fe	Fe	0.74605	0.8907	0.4083	1.074
Mof_Fe	Fe	0.3204	0.90422	0.66463	1.09
Mof_O 	O 	0.76148	0.80449	0.5796	-0.435
Mof_O 	O 	0.73977	0.78277	0.6448	-0.436
Mof_O 	O 	0.55891	0.94315	0.50515	-0.426
Mof_O 	O 	0.44692	0.00361	0.50294	-0.398
Mof_O 	O 	0.53294	0.94822	0.47831	-0.414
Mof_O 	O 	0.72999	0.86729	0.48575	-0.441
Mof_O 	O 	0.67745	0.90275	0.46755	-0.439
Mof_O 	O 	0.7569	0.85386	0.44227	-0.431
Mof_O 	O 	0.78959	0.88763	0.39214	-0.413
Mof_O 	O 	0.7362	0.92464	0.37165	-0.417
Mof_O 	O 	0.70413	0.89082	0.42312	-0.427
Mof_O 	O 	0.2813	0.98068	0.65536	-0.409
Mof_O 	O 	0.30249	0.00054	0.5942	-0.39
Mof_O 	O 	0.30972	0.93474	0.68141	-0.428
Mof_O 	O 	0.34765	0.9716	0.56744	-0.407
Mof_O 	O 	0.3326	0.87001	0.6527	-0.442
Mof_O 	O 	0.36294	0.90239	0.64991	-0.428
Mof_C 	C 	0.3788	0.0173	0.53959	0.054
Mof_C 	C 	0.34653	0.02232	0.56028	-0.112
Mof_C 	C 	0.33096	0.99691	0.57457	0.385
Mof_C 	C 	0.76403	0.81069	0.52116	0.098
Mof_C 	C 	0.76922	0.81663	0.48951	-0.166
Mof_C 	C 	0.75051	0.84758	0.47145	0.446
Mof_C 	C 	0.64876	0.8975	0.4199	0.095
Mof_C 	C 	0.59137	0.91815	0.43677	0.09
Mof_C 	C 	0.64825	0.90079	0.44538	-0.161
Mof_C 	C 	0.58962	0.9212	0.46329	-0.151
Mof_C 	C 	0.61855	0.91227	0.46721	0.089
Mof_C 	C 	0.62086	0.90679	0.4147	-0.164
Mof_C 	C 	0.55842	0.9381	0.48382	0.423
Mof_C 	C 	0.62293	0.9085	0.38413	0.444
Mof_C 	C 	0.67862	0.89726	0.44572	0.44
Mof_C 	C 	0.70667	0.00835	0.32335	0.075
Mof_C 	C 	0.68809	0.02847	0.30301	-0.138
Mof_C 	C 	0.29698	0.96451	0.67445	0.418
Mof_Fe	Fe	0.4083	0.95494	0.74605	1.074
Mof_Fe	Fe	0.66463	0.11076	0.3204	1.09
Mof_O 	O 	0.5796	0.85443	0.76148	-0.435
Mof_O 	O 	0.6448	0.83266	0.73977	-0.436
Mof_O 	O 	0.50515	0.99279	0.55891	-0.427
Mof_O 	O 	0.50294	0.04653	0.44692	-0.399
Mof_O 	O 	0.47831	0.04053	0.53294	-0.415
Mof_O 	O 	0.48575	0.91698	0.72999	-0.441
Mof_O 	O 	0.46755	0.95224	0.67745	-0.439
Mof_O 	O 	0.44227	0.94697	0.7569	-0.431
Mof_O 	O 	0.39214	0.93064	0.78959	-0.413
Mof_O 	O 	0.37165	0.96751	0.7362	-0.417
Mof_O 	O 	0.42312	0.98193	0.70413	-0.427
Mof_O 	O 	0.65536	0.08267	0.2813	-0.409
Mof_O 	O 	0.5942	0.10277	0.30249	-0.392
Mof_O 	O 	0.68141	0.07413	0.30972	-0.428
Mof_O 	O 	0.56744	0.11331	0.34765	-0.408
Mof_O 	O 	0.6527	0.1447	0.3326	-0.442
Mof_O 	O 	0.64991	0.08477	0.36294	-0.428
Mof_C 	C 	0.53959	0.06431	0.3788	0.053
Mof_C 	C 	0.56028	0.07087	0.34653	-0.114
Mof_C 	C 	0.57457	0.09756	0.33096	0.389
Mof_C 	C 	0.52116	0.90412	0.76403	0.098
Mof_C 	C 	0.48951	0.92464	0.76922	-0.166
Mof_C 	C 	0.47145	0.93046	0.75051	0.446
Mof_C 	C 	0.4199	0.03384	0.64876	0.095
Mof_C 	C 	0.43677	0.05371	0.59137	0.09
Mof_C 	C 	0.44538	0.00558	0.64825	-0.16
Mof_C 	C 	0.46329	0.02589	0.58962	-0.152
Mof_C 	C 	0.46721	0.00198	0.61855	0.091
Mof_C 	C 	0.4147	0.05765	0.62086	-0.164
Mof_C 	C 	0.48382	0.01966	0.55842	0.425
Mof_C 	C 	0.38413	0.08445	0.62293	0.444
Mof_C 	C 	0.44572	0.9784	0.67862	0.438
Mof_C 	C 	0.32335	0.96163	0.70667	0.074
Mof_C 	C 	0.30301	0.98044	0.68809	-0.139
Mof_C 	C 	0.67445	0.06406	0.29698	0.418
Mof_Fe	Fe	0.4083	0.8907	0.95494	1.074
Mof_Fe	Fe	0.66463	0.90422	0.11076	1.09
Mof_O 	O 	0.5796	0.80449	0.85443	-0.435
Mof_O 	O 	0.6448	0.78277	0.83266	-0.435
Mof_O 	O 	0.50515	0.94315	0.99279	-0.427
Mof_O 	O 	0.50294	0.00361	0.04653	-0.398
Mof_O 	O 	0.47831	0.94822	0.04053	-0.415
Mof_O 	O 	0.48575	0.86729	0.91698	-0.441
Mof_O 	O 	0.46755	0.90275	0.95224	-0.439
Mof_O 	O 	0.44227	0.85386	0.94697	-0.431
Mof_O 	O 	0.39214	0.88763	0.93064	-0.413
Mof_O 	O 	0.37165	0.92464	0.96751	-0.417
Mof_O 	O 	0.42312	0.89082	0.98193	-0.427
Mof_O 	O 	0.65536	0.98068	0.08267	-0.409
Mof_O 	O 	0.5942	0.00054	0.10277	-0.39
Mof_O 	O 	0.68141	0.93474	0.07413	-0.428
Mof_O 	O 	0.56744	0.9716	0.11331	-0.407
Mof_O 	O 	0.6527	0.87001	0.1447	-0.442
Mof_O 	O 	0.64991	0.90239	0.08477	-0.428
Mof_C 	C 	0.53959	0.0173	0.06431	0.054
Mof_C 	C 	0.56028	0.02232	0.07087	-0.112
Mof_C 	C 	0.57457	0.99691	0.09756	0.385
Mof_C 	C 	0.52116	0.81069	0.90412	0.098
Mof_C 	C 	0.48951	0.81663	0.92464	-0.166
Mof_C 	C 	0.47145	0.84758	0.93046	0.445
Mof_C 	C 	0.4199	0.8975	0.03384	0.095
Mof_C 	C 	0.43677	0.91815	0.05371	0.09
Mof_C 	C 	0.44538	0.90079	0.00558	-0.16
Mof_C 	C 	0.46329	0.9212	0.02589	-0.152
Mof_C 	C 	0.46721	0.91227	0.00198	0.091
Mof_C 	C 	0.4147	0.90679	0.05765	-0.164
Mof_C 	C 	0.48382	0.9381	0.01966	0.425
Mof_C 	C 	0.38413	0.9085	0.08445	0.444
Mof_C 	C 	0.44572	0.89726	0.9784	0.438
Mof_C 	C 	0.32335	0.00835	0.96163	0.076
Mof_C 	C 	0.30301	0.02847	0.98044	-0.14
Mof_C 	C 	0.67445	0.96451	0.06406	0.418
Mof_Fe	Fe	0.74605	0.95494	0.8907	1.074
Mof_Fe	Fe	0.3204	0.11076	0.90422	1.09
Mof_O 	O 	0.76148	0.85443	0.80449	-0.435
Mof_O 	O 	0.73977	0.83266	0.78277	-0.436
Mof_O 	O 	0.55891	0.99279	0.94315	-0.427
Mof_O 	O 	0.44692	0.04653	0.00361	-0.398
Mof_O 	O 	0.53294	0.04053	0.94822	-0.415
Mof_O 	O 	0.72999	0.91698	0.86729	-0.441
Mof_O 	O 	0.67745	0.95224	0.90275	-0.439
Mof_O 	O 	0.7569	0.94697	0.85386	-0.431
Mof_O 	O 	0.78959	0.93064	0.88763	-0.413
Mof_O 	O 	0.7362	0.96751	0.92464	-0.417
Mof_O 	O 	0.70413	0.98193	0.89082	-0.427
Mof_O 	O 	0.2813	0.08267	0.98068	-0.409
Mof_O 	O 	0.30249	0.10277	0.00054	-0.39
Mof_O 	O 	0.30972	0.07413	0.93474	-0.428
Mof_O 	O 	0.34765	0.11331	0.9716	-0.407
Mof_O 	O 	0.3326	0.1447	0.87001	-0.442
Mof_O 	O 	0.36294	0.08477	0.90239	-0.428
Mof_C 	C 	0.3788	0.06431	0.0173	0.054
Mof_C 	C 	0.34653	0.07087	0.02232	-0.112
Mof_C 	C 	0.33096	0.09756	0.99691	0.385
Mof_C 	C 	0.76403	0.90412	0.81069	0.098
Mof_C 	C 	0.76922	0.92464	0.81663	-0.166
Mof_C 	C 	0.75051	0.93046	0.84758	0.446
Mof_C 	C 	0.64876	0.03384	0.8975	0.095
Mof_C 	C 	0.59137	0.05371	0.91815	0.09
Mof_C 	C 	0.64825	0.00558	0.90079	-0.16
Mof_C 	C 	0.58962	0.02589	0.9212	-0.152
Mof_C 	C 	0.61855	0.00198	0.91227	0.091
Mof_C 	C 	0.62086	0.05765	0.90679	-0.164
Mof_C 	C 	0.55842	0.01966	0.9381	0.425
Mof_C 	C 	0.62293	0.08445	0.9085	0.444
Mof_C 	C 	0.67862	0.9784	0.89726	0.438
Mof_C 	C 	0.70667	0.96163	0.00835	0.076
Mof_C 	C 	0.68809	0.98044	0.02847	-0.14
Mof_C 	C 	0.29698	0.06406	0.96451	0.418
Mof_Fe	Fe	0.95494	0.74605	0.4083	1.074
Mof_Fe	Fe	0.11076	0.3204	0.66463	1.09
Mof_O 	O 	0.85443	0.76148	0.5796	-0.435
Mof_O 	O 	0.83266	0.73977	0.6448	-0.436
Mof_O 	O 	0.99279	0.55891	0.50515	-0.427
Mof_O 	O 	0.04653	0.44692	0.50294	-0.399
Mof_O 	O 	0.04053	0.53294	0.47831	-0.415
Mof_O 	O 	0.91698	0.72999	0.48575	-0.441
Mof_O 	O 	0.95224	0.67745	0.46755	-0.439
Mof_O 	O 	0.94697	0.7569	0.44227	-0.431
Mof_O 	O 	0.93064	0.78959	0.39214	-0.413
Mof_O 	O 	0.96751	0.7362	0.37165	-0.417
Mof_O 	O 	0.98193	0.70413	0.42312	-0.427
Mof_O 	O 	0.08267	0.2813	0.65536	-0.409
Mof_O 	O 	0.10277	0.30249	0.5942	-0.392
Mof_O 	O 	0.07413	0.30972	0.68141	-0.428
Mof_O 	O 	0.11331	0.34765	0.56744	-0.408
Mof_O 	O 	0.1447	0.3326	0.6527	-0.442
Mof_O 	O 	0.08477	0.36294	0.64991	-0.428
Mof_C 	C 	0.06431	0.3788	0.53959	0.053
Mof_C 	C 	0.07087	0.34653	0.56028	-0.114
Mof_C 	C 	0.09756	0.33096	0.57457	0.389
Mof_C 	C 	0.90412	0.76403	0.52116	0.098
Mof_C 	C 	0.92464	0.76922	0.48951	-0.166
Mof_C 	C 	0.93046	0.75051	0.47145	0.446
Mof_C 	C 	0.03384	0.64876	0.4199	0.095
Mof_C 	C 	0.05371	0.59137	0.43677	0.09
Mof_C 	C 	0.00558	0.64825	0.44538	-0.16
Mof_C 	C 	0.02589	0.58962	0.46329	-0.152
Mof_C 	C 	0.00198	0.61855	0.46721	0.091
Mof_C 	C 	0.05765	0.62086	0.4147	-0.164
Mof_C 	C 	0.01966	0.55842	0.48382	0.425
Mof_C 	C 	0.08445	0.62293	0.38413	0.444
Mof_C 	C 	0.9784	0.67862	0.44572	0.438
Mof_C 	C 	0.96163	0.70667	0.32335	0.074
Mof_C 	C 	0.98044	0.68809	0.30301	-0.139
Mof_C 	C 	0.06406	0.29698	0.67445	0.418
Mof_Fe	Fe	0.8907	0.4083	0.74605	1.074
Mof_Fe	Fe	0.90422	0.66463	0.3204	1.09
Mof_O 	O 	0.80449	0.5796	0.76148	-0.435
Mof_O 	O 	0.78277	0.6448	0.73977	-0.436
Mof_O 	O 	0.94315	0.50515	0.55891	-0.426
Mof_O 	O 	0.00361	0.50294	0.44692	-0.398
Mof_O 	O 	0.94822	0.47831	0.53294	-0.414
Mof_O 	O 	0.86729	0.48575	0.72999	-0.441
Mof_O 	O 	0.90275	0.46755	0.67745	-0.439
Mof_O 	O 	0.85386	0.44227	0.7569	-0.431
Mof_O 	O 	0.88763	0.39214	0.78959	-0.413
Mof_O 	O 	0.92464	0.37165	0.7362	-0.417
Mof_O 	O 	0.89082	0.42312	0.70413	-0.427
Mof_O 	O 	0.98068	0.65536	0.2813	-0.409
Mof_O 	O 	0.00054	0.5942	0.30249	-0.39
Mof_O 	O 	0.93474	0.68141	0.30972	-0.428
Mof_O 	O 	0.9716	0.56744	0.34765	-0.407
Mof_O 	O 	0.87001	0.6527	0.3326	-0.442
Mof_O 	O 	0.90239	0.64991	0.36294	-0.428
Mof_C 	C 	0.0173	0.53959	0.3788	0.054
Mof_C 	C 	0.02232	0.56028	0.34653	-0.112
Mof_C 	C 	0.99691	0.57457	0.33096	0.385
Mof_C 	C 	0.81069	0.52116	0.76403	0.098
Mof_C 	C 	0.81663	0.48951	0.76922	-0.166
Mof_C 	C 	0.84758	0.47145	0.75051	0.446
Mof_C 	C 	0.8975	0.4199	0.64876	0.095
Mof_C 	C 	0.91815	0.43677	0.59137	0.09
Mof_C 	C 	0.90079	0.44538	0.64825	-0.161
Mof_C 	C 	0.9212	0.46329	0.58962	-0.151
Mof_C 	C 	0.91227	0.46721	0.61855	0.089
Mof_C 	C 	0.90679	0.4147	0.62086	-0.164
Mof_C 	C 	0.9381	0.48382	0.55842	0.423
Mof_C 	C 	0.9085	0.38413	0.62293	0.444
Mof_C 	C 	0.89726	0.44572	0.67862	0.44
Mof_C 	C 	0.00835	0.32335	0.70667	0.075
Mof_C 	C 	0.02847	0.30301	0.68809	-0.138
Mof_C 	C 	0.96451	0.67445	0.29698	0.418
Mof_Fe	Fe	0.75288	0.61219	0.81746	1.103
Mof_Fe	Fe	0.70527	0.47422	0.91026	1.117
Mof_O 	O 	0.73245	0.43027	0.91864	-0.534
Mof_C 	C 	0.83981	0.38415	0.88802	-0.131
Mof_C 	C 	0.80425	0.38923	0.90326	0.407
Mof_C 	C 	0.67905	0.2931	0.01392	0.074
Mof_C 	C 	0.71581	0.33431	0.97494	-0.139
Mof_C 	C 	0.73081	0.36043	0.95438	0.415
Mof_Fe	Fe	0.61219	0.75288	0.81746	1.103
Mof_Fe	Fe	0.47422	0.70527	0.91026	1.117
Mof_O 	O 	0.43027	0.73245	0.91864	-0.534
Mof_C 	C 	0.38415	0.83981	0.88802	-0.131
Mof_C 	C 	0.38923	0.80425	0.90326	0.407
Mof_C 	C 	0.2931	0.67905	0.01392	0.074
Mof_C 	C 	0.33431	0.71581	0.97494	-0.139
Mof_C 	C 	0.36043	0.73081	0.95438	0.415
Mof_Fe	Fe	0.81746	0.81746	0.75288	1.103
Mof_Fe	Fe	0.91026	0.91026	0.70527	1.117
Mof_O 	O 	0.91864	0.91864	0.73245	-0.534
Mof_C 	C 	0.88802	0.88802	0.83981	-0.131
Mof_C 	C 	0.90326	0.90326	0.80425	0.407
Mof_C 	C 	0.01392	0.01392	0.67905	0.076
Mof_C 	C 	0.97494	0.97494	0.71581	-0.141
Mof_C 	C 	0.95438	0.95438	0.73081	0.415
Mof_Fe	Fe	0.81746	0.81746	0.61219	1.103
Mof_Fe	Fe	0.91026	0.91026	0.47422	1.117
Mof_O 	O 	0.91864	0.91864	0.43027	-0.534
Mof_C 	C 	0.88802	0.88802	0.38415	-0.131
Mof_C 	C 	0.90326	0.90326	0.38923	0.407
Mof_C 	C 	0.01392	0.01392	0.2931	0.077
Mof_C 	C 	0.97494	0.97494	0.33431	-0.141
Mof_C 	C 	0.95438	0.95438	0.36043	0.415
Mof_Fe	Fe	0.81746	0.75288	0.61219	1.103
Mof_Fe	Fe	0.91026	0.70527	0.47422	1.117
Mof_O 	O 	0.91864	0.73245	0.43027	-0.534
Mof_C 	C 	0.88802	0.83981	0.38415	-0.131
Mof_C 	C 	0.90326	0.80425	0.38923	0.407
Mof_C 	C 	0.01392	0.67905	0.2931	0.074
Mof_C 	C 	0.97494	0.71581	0.33431	-0.139
Mof_C 	C 	0.95438	0.73081	0.36043	0.415
Mof_Fe	Fe	0.81746	0.61219	0.75288	1.103
Mof_Fe	Fe	0.91026	0.47422	0.70527	1.117
Mof_O 	O 	0.91864	0.43027	0.73245	-0.534
Mof_C 	C 	0.88802	0.38415	0.83981	-0.131
Mof_C 	C 	0.90326	0.38923	0.80425	0.407
Mof_C 	C 	0.01392	0.2931	0.67905	0.074
Mof_C 	C 	0.97494	0.33431	0.71581	-0.139
Mof_C 	C 	0.95438	0.36043	0.73081	0.415
Mof_Fe	Fe	0.75288	0.81746	0.81746	1.103
Mof_Fe	Fe	0.70527	0.91026	0.91026	1.117
Mof_O 	O 	0.73245	0.91864	0.91864	-0.534
Mof_C 	C 	0.83981	0.88802	0.88802	-0.131
Mof_C 	C 	0.80425	0.90326	0.90326	0.407
Mof_C 	C 	0.67905	0.01392	0.01392	0.076
Mof_C 	C 	0.71581	0.97494	0.97494	-0.141
Mof_C 	C 	0.73081	0.95438	0.95438	0.415
Mof_Fe	Fe	0.61219	0.81746	0.81746	1.103
Mof_Fe	Fe	0.47422	0.91026	0.91026	1.117
Mof_O 	O 	0.43027	0.91864	0.91864	-0.534
Mof_C 	C 	0.38415	0.88802	0.88802	-0.131
Mof_C 	C 	0.38923	0.90326	0.90326	0.407
Mof_C 	C 	0.2931	0.01392	0.01392	0.077
Mof_C 	C 	0.33431	0.97494	0.97494	-0.141
Mof_C 	C 	0.36043	0.95438	0.95438	0.415
Mof_Fe	Fe	0.61219	0.81746	0.75288	1.103
Mof_Fe	Fe	0.47422	0.91026	0.70527	1.117
Mof_O 	O 	0.43027	0.91864	0.73245	-0.534
Mof_C 	C 	0.38415	0.88802	0.83981	-0.131
Mof_C 	C 	0.38923	0.90326	0.80425	0.407
Mof_C 	C 	0.2931	0.01392	0.67905	0.074
Mof_C 	C 	0.33431	0.97494	0.71581	-0.139
Mof_C 	C 	0.36043	0.95438	0.73081	0.415
Mof_Fe	Fe	0.75288	0.81746	0.61219	1.103
Mof_Fe	Fe	0.70527	0.91026	0.47422	1.117
Mof_O 	O 	0.73245	0.91864	0.43027	-0.534
Mof_C 	C 	0.83981	0.88802	0.38415	-0.131
Mof_C 	C 	0.80425	0.90326	0.38923	0.407
Mof_C 	C 	0.67905	0.01392	0.2931	0.074
Mof_C 	C 	0.71581	0.97494	0.33431	-0.139
Mof_C 	C 	0.73081	0.95438	0.36043	0.415
Mof_Fe	Fe	0.81746	0.75288	0.81746	1.103
Mof_Fe	Fe	0.91026	0.70527	0.91026	1.117
Mof_O 	O 	0.91864	0.73245	0.91864	-0.534
Mof_C 	C 	0.88802	0.83981	0.88802	-0.131
Mof_C 	C 	0.90326	0.80425	0.90326	0.407
Mof_C 	C 	0.01392	0.67905	0.01392	0.076
Mof_C 	C 	0.97494	0.71581	0.97494	-0.141
Mof_C 	C 	0.95438	0.73081	0.95438	0.415
Mof_Fe	Fe	0.81746	0.61219	0.81746	1.103
Mof_Fe	Fe	0.91026	0.47422	0.91026	1.117
Mof_O 	O 	0.91864	0.43027	0.91864	-0.534
Mof_C 	C 	0.88802	0.38415	0.88802	-0.131
Mof_C 	C 	0.90326	0.38923	0.90326	0.407
Mof_C 	C 	0.01392	0.2931	0.01392	0.077
Mof_C 	C 	0.97494	0.33431	0.97494	-0.141
Mof_C 	C 	0.95438	0.36043	0.95438	0.415
Mof_Fe	Fe	0.49712	0.63781	0.43254	1.103
Mof_Fe	Fe	0.54473	0.77578	0.33974	1.117
Mof_O 	O 	0.51755	0.81973	0.33136	-0.534
Mof_C 	C 	0.41019	0.86585	0.36198	-0.131
Mof_C 	C 	0.44575	0.86077	0.34674	0.407
Mof_C 	C 	0.57095	0.9569	0.23608	0.071
Mof_C 	C 	0.53419	0.91569	0.27506	-0.137
Mof_C 	C 	0.51919	0.88957	0.29562	0.414
Mof_Fe	Fe	0.63781	0.49712	0.43254	1.103
Mof_Fe	Fe	0.77578	0.54473	0.33974	1.117
Mof_O 	O 	0.81973	0.51755	0.33136	-0.534
Mof_C 	C 	0.86585	0.41019	0.36198	-0.131
Mof_C 	C 	0.86077	0.44575	0.34674	0.407
Mof_C 	C 	0.9569	0.57095	0.23608	0.071
Mof_C 	C 	0.91569	0.53419	0.27506	-0.137
Mof_C 	C 	0.88957	0.51919	0.29562	0.414
Mof_Fe	Fe	0.43254	0.43254	0.63781	1.103
Mof_Fe	Fe	0.33974	0.33974	0.77578	1.117
Mof_O 	O 	0.33136	0.33136	0.81973	-0.534
Mof_C 	C 	0.36198	0.36198	0.86585	-0.131
Mof_C 	C 	0.34674	0.34674	0.86077	0.407
Mof_C 	C 	0.23608	0.23608	0.9569	0.071
Mof_C 	C 	0.27506	0.27506	0.91569	-0.137
Mof_C 	C 	0.29562	0.29562	0.88957	0.414
Mof_Fe	Fe	0.43254	0.43254	0.49712	1.103
Mof_Fe	Fe	0.33974	0.33974	0.54473	1.117
Mof_O 	O 	0.33136	0.33136	0.51755	-0.534
Mof_C 	C 	0.36198	0.36198	0.41019	-0.131
Mof_C 	C 	0.34674	0.34674	0.44575	0.407
Mof_C 	C 	0.23608	0.23608	0.57095	0.071
Mof_C 	C 	0.27506	0.27506	0.53419	-0.137
Mof_C 	C 	0.29562	0.29562	0.51919	0.414
Mof_Fe	Fe	0.43254	0.49712	0.43254	1.103
Mof_Fe	Fe	0.33974	0.54473	0.33974	1.117
Mof_O 	O 	0.33136	0.51755	0.33136	-0.534
Mof_C 	C 	0.36198	0.41019	0.36198	-0.131
Mof_C 	C 	0.34674	0.44575	0.34674	0.407
Mof_C 	C 	0.23608	0.57095	0.23608	0.071
Mof_C 	C 	0.27506	0.53419	0.27506	-0.137
Mof_C 	C 	0.29562	0.51919	0.29562	0.414
Mof_Fe	Fe	0.43254	0.63781	0.43254	1.103
Mof_Fe	Fe	0.33974	0.77578	0.33974	1.117
Mof_O 	O 	0.33136	0.81973	0.33136	-0.534
Mof_C 	C 	0.36198	0.86585	0.36198	-0.131
Mof_C 	C 	0.34674	0.86077	0.34674	0.407
Mof_C 	C 	0.23608	0.9569	0.23608	0.071
Mof_C 	C 	0.27506	0.91569	0.27506	-0.137
Mof_C 	C 	0.29562	0.88957	0.29562	0.414
Mof_Fe	Fe	0.49712	0.43254	0.63781	1.103
Mof_Fe	Fe	0.54473	0.33974	0.77578	1.117
Mof_O 	O 	0.51755	0.33136	0.81973	-0.534
Mof_C 	C 	0.41019	0.36198	0.86585	-0.131
Mof_C 	C 	0.44575	0.34674	0.86077	0.407
Mof_C 	C 	0.57095	0.23608	0.9569	0.071
Mof_C 	C 	0.53419	0.27506	0.91569	-0.137
Mof_C 	C 	0.51919	0.29562	0.88957	0.414
Mof_Fe	Fe	0.63781	0.43254	0.49712	1.103
Mof_Fe	Fe	0.77578	0.33974	0.54473	1.117
Mof_O 	O 	0.81973	0.33136	0.51755	-0.534
Mof_C 	C 	0.86585	0.36198	0.41019	-0.131
Mof_C 	C 	0.86077	0.34674	0.44575	0.407
Mof_C 	C 	0.9569	0.23608	0.57095	0.071
Mof_C 	C 	0.91569	0.27506	0.53419	-0.137
Mof_C 	C 	0.88957	0.29562	0.51919	0.414
Mof_Fe	Fe	0.63781	0.43254	0.43254	1.103
Mof_Fe	Fe	0.77578	0.33974	0.33974	1.117
Mof_O 	O 	0.81973	0.33136	0.33136	-0.534
Mof_C 	C 	0.86585	0.36198	0.36198	-0.131
Mof_C 	C 	0.86077	0.34674	0.34674	0.407
Mof_C 	C 	0.9569	0.23608	0.23608	0.071
Mof_C 	C 	0.91569	0.27506	0.27506	-0.137
Mof_C 	C 	0.88957	0.29562	0.29562	0.414
Mof_Fe	Fe	0.49712	0.43254	0.43254	1.103
Mof_Fe	Fe	0.54473	0.33974	0.33974	1.117
Mof_O 	O 	0.51755	0.33136	0.33136	-0.534
Mof_C 	C 	0.41019	0.36198	0.36198	-0.131
Mof_C 	C 	0.44575	0.34674	0.34674	0.407
Mof_C 	C 	0.57095	0.23608	0.23608	0.071
Mof_C 	C 	0.53419	0.27506	0.27506	-0.137
Mof_C 	C 	0.51919	0.29562	0.29562	0.414
Mof_Fe	Fe	0.43254	0.49712	0.63781	1.103
Mof_Fe	Fe	0.33974	0.54473	0.77578	1.117
Mof_O 	O 	0.33136	0.51755	0.81973	-0.534
Mof_C 	C 	0.36198	0.41019	0.86585	-0.131
Mof_C 	C 	0.34674	0.44575	0.86077	0.407
Mof_C 	C 	0.23608	0.57095	0.9569	0.071
Mof_C 	C 	0.27506	0.53419	0.91569	-0.137
Mof_C 	C 	0.29562	0.51919	0.88957	0.414
Mof_Fe	Fe	0.43254	0.63781	0.49712	1.103
Mof_Fe	Fe	0.33974	0.77578	0.54473	1.117
Mof_O 	O 	0.33136	0.81973	0.51755	-0.534
Mof_C 	C 	0.36198	0.86585	0.41019	-0.131
Mof_C 	C 	0.34674	0.86077	0.44575	0.407
Mof_C 	C 	0.23608	0.9569	0.57095	0.071
Mof_C 	C 	0.27506	0.91569	0.53419	-0.137
Mof_C 	C 	0.29562	0.88957	0.51919	0.414
Mof_C 	C 	0.43198	0.51002	0.029	0.388
Mof_C 	C 	0.39576	0.52884	0.0377	-0.114
Mof_C 	C 	0.33106	0.57012	0.04941	0.052
Mof_C 	C 	0.51002	0.43198	0.029	0.388
Mof_C 	C 	0.52884	0.39576	0.0377	-0.114
Mof_C 	C 	0.57012	0.33106	0.04941	0.052
Mof_C 	C 	0.029	0.029	0.43198	0.388
Mof_C 	C 	0.0377	0.0377	0.39576	-0.114
Mof_C 	C 	0.04941	0.04941	0.33106	0.051
Mof_C 	C 	0.029	0.029	0.51002	0.388
Mof_C 	C 	0.0377	0.0377	0.52884	-0.114
Mof_C 	C 	0.04941	0.04941	0.57012	0.051
Mof_C 	C 	0.029	0.43198	0.51002	0.388
Mof_C 	C 	0.0377	0.39576	0.52884	-0.114
Mof_C 	C 	0.04941	0.33106	0.57012	0.052
Mof_C 	C 	0.029	0.51002	0.43198	0.388
Mof_C 	C 	0.0377	0.52884	0.39576	-0.114
Mof_C 	C 	0.04941	0.57012	0.33106	0.052
Mof_C 	C 	0.43198	0.029	0.029	0.388
Mof_C 	C 	0.39576	0.0377	0.0377	-0.114
Mof_C 	C 	0.33106	0.04941	0.04941	0.051
Mof_C 	C 	0.51002	0.029	0.029	0.388
Mof_C 	C 	0.52884	0.0377	0.0377	-0.114
Mof_C 	C 	0.57012	0.04941	0.04941	0.051
Mof_C 	C 	0.51002	0.029	0.43198	0.388
Mof_C 	C 	0.52884	0.0377	0.39576	-0.114
Mof_C 	C 	0.57012	0.04941	0.33106	0.052
Mof_C 	C 	0.43198	0.029	0.51002	0.388
Mof_C 	C 	0.39576	0.0377	0.52884	-0.114
Mof_C 	C 	0.33106	0.04941	0.57012	0.052
Mof_C 	C 	0.029	0.43198	0.029	0.388
Mof_C 	C 	0.0377	0.39576	0.0377	-0.114
Mof_C 	C 	0.04941	0.33106	0.04941	0.051
Mof_C 	C 	0.029	0.51002	0.029	0.388
Mof_C 	C 	0.0377	0.52884	0.0377	-0.114
Mof_C 	C 	0.04941	0.57012	0.04941	0.051
Mof_C 	C 	0.81802	0.73998	0.221	0.388
Mof_C 	C 	0.85424	0.72116	0.2123	-0.113
Mof_C 	C 	0.91894	0.67988	0.20059	0.052
Mof_C 	C 	0.73998	0.81802	0.221	0.388
Mof_C 	C 	0.72116	0.85424	0.2123	-0.113
Mof_C 	C 	0.67988	0.91894	0.20059	0.052
Mof_C 	C 	0.221	0.221	0.73998	0.388
Mof_C 	C 	0.2123	0.2123	0.72116	-0.113
Mof_C 	C 	0.20059	0.20059	0.67988	0.052
Mof_C 	C 	0.221	0.221	0.81802	0.388
Mof_C 	C 	0.2123	0.2123	0.85424	-0.113
Mof_C 	C 	0.20059	0.20059	0.91894	0.052
Mof_C 	C 	0.221	0.81802	0.221	0.388
Mof_C 	C 	0.2123	0.85424	0.2123	-0.113
Mof_C 	C 	0.20059	0.91894	0.20059	0.052
Mof_C 	C 	0.221	0.73998	0.221	0.388
Mof_C 	C 	0.2123	0.72116	0.2123	-0.113
Mof_C 	C 	0.20059	0.67988	0.20059	0.052
Mof_C 	C 	0.81802	0.221	0.73998	0.388
Mof_C 	C 	0.85424	0.2123	0.72116	-0.113
Mof_C 	C 	0.91894	0.20059	0.67988	0.052
Mof_C 	C 	0.73998	0.221	0.81802	0.388
Mof_C 	C 	0.72116	0.2123	0.85424	-0.113
Mof_C 	C 	0.67988	0.20059	0.91894	0.052
Mof_C 	C 	0.73998	0.221	0.221	0.388
Mof_C 	C 	0.72116	0.2123	0.2123	-0.113
Mof_C 	C 	0.67988	0.20059	0.20059	0.052
Mof_C 	C 	0.81802	0.221	0.221	0.388
Mof_C 	C 	0.85424	0.2123	0.2123	-0.113
Mof_C 	C 	0.91894	0.20059	0.20059	0.052
Mof_C 	C 	0.221	0.81802	0.73998	0.388
Mof_C 	C 	0.2123	0.85424	0.72116	-0.113
Mof_C 	C 	0.20059	0.91894	0.67988	0.052
Mof_C 	C 	0.221	0.73998	0.81802	0.388
Mof_C 	C 	0.2123	0.72116	0.85424	-0.113
Mof_C 	C 	0.20059	0.67988	0.91894	0.052
Mof_Fe	Fe	0.53058	0.53058	0.96942	1.089
Mof_O 	O 	0.50411	0.50411	0.99589	-0.528
Mof_Fe	Fe	0.96942	0.96942	0.53058	1.089
Mof_O 	O 	0.99589	0.99589	0.50411	-0.529
Mof_Fe	Fe	0.96942	0.53058	0.53058	1.089
Mof_O 	O 	0.99589	0.50411	0.50411	-0.528
Mof_Fe	Fe	0.53058	0.96942	0.96942	1.089
Mof_O 	O 	0.50411	0.99589	0.99589	-0.529
Mof_Fe	Fe	0.53058	0.96942	0.53058	1.089
Mof_O 	O 	0.50411	0.99589	0.50411	-0.528
Mof_Fe	Fe	0.96942	0.53058	0.96942	1.089
Mof_O 	O 	0.99589	0.50411	0.99589	-0.529
Mof_Fe	Fe	0.71942	0.71942	0.28058	1.088
Mof_O 	O 	0.74589	0.74589	0.25411	-0.527
Mof_Fe	Fe	0.28058	0.28058	0.71942	1.088
Mof_O 	O 	0.25411	0.25411	0.74589	-0.527
Mof_Fe	Fe	0.28058	0.71942	0.28058	1.088
Mof_O 	O 	0.25411	0.74589	0.25411	-0.527
Mof_Fe	Fe	0.71942	0.28058	0.71942	1.088
Mof_O 	O 	0.74589	0.25411	0.74589	-0.527
Mof_Fe	Fe	0.71942	0.28058	0.28058	1.088
Mof_O 	O 	0.74589	0.25411	0.25411	-0.527
Mof_Fe	Fe	0.28058	0.71942	0.71942	1.088
Mof_O 	O 	0.25411	0.74589	0.74589	-0.527
Mof_Fe	Fe	0.49086	0.49086	0.97698	1.041
Mof_C 	C 	0.70338	0.70338	0.75018	0.097
Mof_Fe	Fe	0.49086	0.49086	0.0413	1.044
Mof_C 	C 	0.70338	0.70338	0.84306	0.097
Mof_Fe	Fe	0.97698	0.0413	0.49086	1.042
Mof_C 	C 	0.75018	0.84306	0.70338	0.097
Mof_Fe	Fe	0.0413	0.97698	0.49086	1.042
Mof_C 	C 	0.84306	0.75018	0.70338	0.097
Mof_Fe	Fe	0.97698	0.49086	0.49086	1.041
Mof_C 	C 	0.75018	0.70338	0.70338	0.097
Mof_Fe	Fe	0.0413	0.49086	0.49086	1.044
Mof_C 	C 	0.84306	0.70338	0.70338	0.097
Mof_Fe	Fe	0.49086	0.97698	0.0413	1.042
Mof_C 	C 	0.70338	0.75018	0.84306	0.097
Mof_Fe	Fe	0.49086	0.0413	0.97698	1.042
Mof_C 	C 	0.70338	0.84306	0.75018	0.097
Mof_Fe	Fe	0.49086	0.97698	0.49086	1.041
Mof_C 	C 	0.70338	0.75018	0.70338	0.097
Mof_Fe	Fe	0.49086	0.0413	0.49086	1.044
Mof_C 	C 	0.70338	0.84306	0.70338	0.097
Mof_Fe	Fe	0.0413	0.49086	0.97698	1.042
Mof_C 	C 	0.84306	0.70338	0.75018	0.097
Mof_Fe	Fe	0.97698	0.49086	0.0413	1.042
Mof_C 	C 	0.75018	0.70338	0.84306	0.097
Mof_Fe	Fe	0.75914	0.75914	0.2087	1.043
Mof_C 	C 	0.54662	0.54662	0.40694	0.097
Mof_Fe	Fe	0.75914	0.75914	0.27302	1.043
Mof_C 	C 	0.54662	0.54662	0.49982	0.097
Mof_Fe	Fe	0.27302	0.2087	0.75914	1.043
Mof_C 	C 	0.49982	0.40694	0.54662	0.097
Mof_Fe	Fe	0.2087	0.27302	0.75914	1.043
Mof_C 	C 	0.40694	0.49982	0.54662	0.097
Mof_Fe	Fe	0.27302	0.75914	0.2087	1.043
Mof_C 	C 	0.49982	0.54662	0.40694	0.097
Mof_Fe	Fe	0.2087	0.75914	0.27302	1.043
Mof_C 	C 	0.40694	0.54662	0.49982	0.097
Mof_Fe	Fe	0.75914	0.27302	0.75914	1.043
Mof_C 	C 	0.54662	0.49982	0.54662	0.097
Mof_Fe	Fe	0.75914	0.2087	0.75914	1.043
Mof_C 	C 	0.54662	0.40694	0.54662	0.097
Mof_Fe	Fe	0.75914	0.27302	0.2087	1.043
Mof_C 	C 	0.54662	0.49982	0.40694	0.097
Mof_Fe	Fe	0.75914	0.2087	0.27302	1.043
Mof_C 	C 	0.54662	0.40694	0.49982	0.097
Mof_Fe	Fe	0.2087	0.75914	0.75914	1.043
Mof_C 	C 	0.40694	0.54662	0.54662	0.097
Mof_Fe	Fe	0.27302	0.75914	0.75914	1.043
Mof_C 	C 	0.49982	0.54662	0.54662	0.097
Mof_Fe	Fe	0.27736	0.625	0.97264	1.027
Mof_O 	O 	0.31454	0.625	0.93546	-0.531
Mof_Fe	Fe	0.625	0.27736	0.125	1.029
Mof_O 	O 	0.625	0.31454	0.125	-0.531
Mof_Fe	Fe	0.97264	0.125	0.27736	1.028
Mof_O 	O 	0.93546	0.125	0.31454	-0.531
Mof_Fe	Fe	0.125	0.97264	0.625	1.028
Mof_O 	O 	0.125	0.93546	0.625	-0.531
Mof_Fe	Fe	0.97264	0.27736	0.625	1.027
Mof_O 	O 	0.93546	0.31454	0.625	-0.531
Mof_Fe	Fe	0.125	0.625	0.27736	1.029
Mof_O 	O 	0.125	0.625	0.31454	-0.531
Mof_Fe	Fe	0.27736	0.97264	0.125	1.028
Mof_O 	O 	0.31454	0.93546	0.125	-0.531
Mof_Fe	Fe	0.625	0.125	0.97264	1.028
Mof_O 	O 	0.625	0.125	0.93546	-0.531
Mof_Fe	Fe	0.625	0.97264	0.27736	1.027
Mof_O 	O 	0.625	0.93546	0.31454	-0.531
Mof_Fe	Fe	0.27736	0.125	0.625	1.029
Mof_O 	O 	0.31454	0.125	0.625	-0.531
Mof_Fe	Fe	0.125	0.27736	0.97264	1.028
Mof_O 	O 	0.125	0.31454	0.93546	-0.531
Mof_Fe	Fe	0.97264	0.625	0.125	1.028
Mof_O 	O 	0.93546	0.625	0.125	-0.531
Mof_Fe	Fe	0.97264	0.625	0.27736	1.027
Mof_O 	O 	0.93546	0.625	0.31454	-0.531
Mof_Fe	Fe	0.625	0.97264	0.125	1.028
Mof_O 	O 	0.625	0.93546	0.125	-0.531
Mof_Fe	Fe	0.27736	0.125	0.97264	1.028
Mof_O 	O 	0.31454	0.125	0.93546	-0.531
Mof_Fe	Fe	0.125	0.27736	0.625	1.029
Mof_O 	O 	0.125	0.31454	0.625	-0.531
Mof_Fe	Fe	0.27736	0.97264	0.625	1.027
Mof_O 	O 	0.31454	0.93546	0.625	-0.531
Mof_Fe	Fe	0.125	0.625	0.97264	1.028
Mof_O 	O 	0.125	0.625	0.93546	-0.531
Mof_Fe	Fe	0.97264	0.27736	0.125	1.028
Mof_O 	O 	0.93546	0.31454	0.125	-0.531
Mof_Fe	Fe	0.625	0.125	0.27736	1.029
Mof_O 	O 	0.625	0.125	0.31454	-0.531
Mof_Fe	Fe	0.625	0.27736	0.97264	1.027
Mof_O 	O 	0.625	0.31454	0.93546	-0.531
Mof_Fe	Fe	0.97264	0.125	0.625	1.028
Mof_O 	O 	0.93546	0.125	0.625	-0.531
Mof_Fe	Fe	0.125	0.97264	0.27736	1.028
Mof_O 	O 	0.125	0.93546	0.31454	-0.531
Mof_Fe	Fe	0.27736	0.625	0.125	1.029
Mof_O 	O 	0.31454	0.625	0.125	-0.531
Mof_O 	O 	0.79594	0.61218	0.79594	-0.538
Mof_O 	O 	0.61218	0.79594	0.79594	-0.538
Mof_O 	O 	0.79594	0.79594	0.79594	-0.538
Mof_O 	O 	0.79594	0.79594	0.61218	-0.538
Mof_O 	O 	0.45406	0.63782	0.45406	-0.538
Mof_O 	O 	0.63782	0.45406	0.45406	-0.538
Mof_O 	O 	0.45406	0.45406	0.63782	-0.538
Mof_O 	O 	0.45406	0.45406	0.45406	-0.538
Mof_C 	C 	0.85632	0.384	0.85632	0.067
Mof_C 	C 	0.78315	0.56767	0.78315	0.444
Mof_C 	C 	0.78495	0.53705	0.78495	-0.166
Mof_C 	C 	0.79543	0.47409	0.79543	0.097
Mof_C 	C 	0.384	0.85632	0.90335	0.067
Mof_C 	C 	0.56767	0.78315	0.86604	0.444
Mof_C 	C 	0.53705	0.78495	0.89304	-0.166
Mof_C 	C 	0.47409	0.79543	0.93505	0.097
Mof_C 	C 	0.85632	0.90335	0.85632	0.067
Mof_C 	C 	0.78315	0.86604	0.78315	0.444
Mof_C 	C 	0.78495	0.89304	0.78495	-0.166
Mof_C 	C 	0.79543	0.93505	0.79543	0.097
Mof_C 	C 	0.90335	0.85632	0.384	0.067
Mof_C 	C 	0.86604	0.78315	0.56767	0.444
Mof_C 	C 	0.89304	0.78495	0.53705	-0.166
Mof_C 	C 	0.93505	0.79543	0.47409	0.097
Mof_C 	C 	0.85632	0.85632	0.384	0.067
Mof_C 	C 	0.78315	0.78315	0.56767	0.444
Mof_C 	C 	0.78495	0.78495	0.53705	-0.166
Mof_C 	C 	0.79543	0.79543	0.47409	0.097
Mof_C 	C 	0.90335	0.384	0.85632	0.067
Mof_C 	C 	0.86604	0.56767	0.78315	0.444
Mof_C 	C 	0.89304	0.53705	0.78495	-0.166
Mof_C 	C 	0.93505	0.47409	0.79543	0.097
Mof_C 	C 	0.85632	0.85632	0.90335	0.067
Mof_C 	C 	0.78315	0.78315	0.86604	0.444
Mof_C 	C 	0.78495	0.78495	0.89304	-0.166
Mof_C 	C 	0.79543	0.79543	0.93505	0.097
Mof_C 	C 	0.384	0.90335	0.85632	0.067
Mof_C 	C 	0.56767	0.86604	0.78315	0.444
Mof_C 	C 	0.53705	0.89304	0.78495	-0.166
Mof_C 	C 	0.47409	0.93505	0.79543	0.097
Mof_C 	C 	0.384	0.85632	0.85632	0.067
Mof_C 	C 	0.56767	0.78315	0.78315	0.444
Mof_C 	C 	0.53705	0.78495	0.78495	-0.166
Mof_C 	C 	0.47409	0.79543	0.79543	0.097
Mof_C 	C 	0.85632	0.90335	0.384	0.067
Mof_C 	C 	0.78315	0.86604	0.56767	0.444
Mof_C 	C 	0.78495	0.89304	0.53705	-0.166
Mof_C 	C 	0.79543	0.93505	0.47409	0.097
Mof_C 	C 	0.90335	0.85632	0.85632	0.067
Mof_C 	C 	0.86604	0.78315	0.78315	0.444
Mof_C 	C 	0.89304	0.78495	0.78495	-0.166
Mof_C 	C 	0.93505	0.79543	0.79543	0.097
Mof_C 	C 	0.85632	0.384	0.90335	0.067
Mof_C 	C 	0.78315	0.56767	0.86604	0.444
Mof_C 	C 	0.78495	0.53705	0.89304	-0.166
Mof_C 	C 	0.79543	0.47409	0.93505	0.097
Mof_C 	C 	0.39368	0.866	0.34665	0.067
Mof_C 	C 	0.46685	0.68233	0.38396	0.444
Mof_C 	C 	0.46505	0.71295	0.35696	-0.166
Mof_C 	C 	0.45457	0.77591	0.31495	0.097
Mof_C 	C 	0.866	0.39368	0.39368	0.067
Mof_C 	C 	0.68233	0.46685	0.46685	0.444
Mof_C 	C 	0.71295	0.46505	0.46505	-0.166
Mof_C 	C 	0.77591	0.45457	0.45457	0.097
Mof_C 	C 	0.39368	0.34665	0.866	0.067
Mof_C 	C 	0.46685	0.38396	0.68233	0.444
Mof_C 	C 	0.46505	0.35696	0.71295	-0.166
Mof_C 	C 	0.45457	0.31495	0.77591	0.097
Mof_C 	C 	0.34665	0.39368	0.39368	0.067
Mof_C 	C 	0.38396	0.46685	0.46685	0.444
Mof_C 	C 	0.35696	0.46505	0.46505	-0.166
Mof_C 	C 	0.31495	0.45457	0.45457	0.098
Mof_C 	C 	0.39368	0.39368	0.34665	0.067
Mof_C 	C 	0.46685	0.46685	0.38396	0.444
Mof_C 	C 	0.46505	0.46505	0.35696	-0.166
Mof_C 	C 	0.45457	0.45457	0.31495	0.098
Mof_C 	C 	0.34665	0.866	0.39368	0.067
Mof_C 	C 	0.38396	0.68233	0.46685	0.444
Mof_C 	C 	0.35696	0.71295	0.46505	-0.166
Mof_C 	C 	0.31495	0.77591	0.45457	0.097
Mof_C 	C 	0.39368	0.39368	0.866	0.067
Mof_C 	C 	0.46685	0.46685	0.68233	0.444
Mof_C 	C 	0.46505	0.46505	0.71295	-0.166
Mof_C 	C 	0.45457	0.45457	0.77591	0.097
Mof_C 	C 	0.866	0.34665	0.39368	0.067
Mof_C 	C 	0.68233	0.38396	0.46685	0.444
Mof_C 	C 	0.71295	0.35696	0.46505	-0.166
Mof_C 	C 	0.77591	0.31495	0.45457	0.097
Mof_C 	C 	0.866	0.39368	0.34665	0.067
Mof_C 	C 	0.68233	0.46685	0.38396	0.444
Mof_C 	C 	0.71295	0.46505	0.35696	-0.166
Mof_C 	C 	0.77591	0.45457	0.31495	0.097
Mof_C 	C 	0.39368	0.34665	0.39368	0.067
Mof_C 	C 	0.46685	0.38396	0.46685	0.444
Mof_C 	C 	0.46505	0.35696	0.46505	-0.166
Mof_C 	C 	0.45457	0.31495	0.45457	0.098
Mof_C 	C 	0.34665	0.39368	0.866	0.067
Mof_C 	C 	0.38396	0.46685	0.68233	0.444
Mof_C 	C 	0.35696	0.46505	0.71295	-0.166
Mof_C 	C 	0.31495	0.45457	0.77591	0.097
Mof_C 	C 	0.39368	0.866	0.39368	0.067
Mof_C 	C 	0.46685	0.68233	0.46685	0.444
Mof_C 	C 	0.46505	0.71295	0.46505	-0.166
Mof_C 	C 	0.45457	0.77591	0.45457	0.097
Mof_C 	C 	0.73494	0.68746	0.73494	-0.165
Mof_C 	C 	0.75349	0.65678	0.75349	0.444
Mof_C 	C 	0.68746	0.73494	0.84266	-0.165
Mof_C 	C 	0.65678	0.75349	0.83623	0.444
Mof_C 	C 	0.73494	0.84266	0.73494	-0.165
Mof_C 	C 	0.75349	0.83623	0.75349	0.444
Mof_C 	C 	0.84266	0.73494	0.68746	-0.165
Mof_C 	C 	0.83623	0.75349	0.65678	0.444
Mof_C 	C 	0.73494	0.73494	0.68746	-0.165
Mof_C 	C 	0.75349	0.75349	0.65678	0.444
Mof_C 	C 	0.84266	0.68746	0.73494	-0.165
Mof_C 	C 	0.83623	0.65678	0.75349	0.444
Mof_C 	C 	0.73494	0.73494	0.84266	-0.165
Mof_C 	C 	0.75349	0.75349	0.83623	0.444
Mof_C 	C 	0.68746	0.84266	0.73494	-0.165
Mof_C 	C 	0.65678	0.83623	0.75349	0.444
Mof_C 	C 	0.68746	0.73494	0.73494	-0.165
Mof_C 	C 	0.65678	0.75349	0.75349	0.444
Mof_C 	C 	0.73494	0.84266	0.68746	-0.165
Mof_C 	C 	0.75349	0.83623	0.65678	0.444
Mof_C 	C 	0.84266	0.73494	0.73494	-0.165
Mof_C 	C 	0.83623	0.75349	0.75349	0.444
Mof_C 	C 	0.73494	0.68746	0.84266	-0.165
Mof_C 	C 	0.75349	0.65678	0.83623	0.444
Mof_C 	C 	0.51506	0.56254	0.40734	-0.165
Mof_C 	C 	0.49651	0.59322	0.41377	0.444
Mof_C 	C 	0.56254	0.51506	0.51506	-0.165
Mof_C 	C 	0.59322	0.49651	0.49651	0.444
Mof_C 	C 	0.51506	0.40734	0.56254	-0.165
Mof_C 	C 	0.49651	0.41377	0.59322	0.444
Mof_C 	C 	0.40734	0.51506	0.51506	-0.165
Mof_C 	C 	0.41377	0.49651	0.49651	0.444
Mof_C 	C 	0.51506	0.51506	0.40734	-0.165
Mof_C 	C 	0.49651	0.49651	0.41377	0.444
Mof_C 	C 	0.40734	0.56254	0.51506	-0.165
Mof_C 	C 	0.41377	0.59322	0.49651	0.444
Mof_C 	C 	0.51506	0.51506	0.56254	-0.165
Mof_C 	C 	0.49651	0.49651	0.59322	0.444
Mof_C 	C 	0.56254	0.40734	0.51506	-0.165
Mof_C 	C 	0.59322	0.41377	0.49651	0.444
Mof_C 	C 	0.56254	0.51506	0.40734	-0.165
Mof_C 	C 	0.59322	0.49651	0.41377	0.444
Mof_C 	C 	0.51506	0.40734	0.51506	-0.165
Mof_C 	C 	0.49651	0.41377	0.49651	0.444
Mof_C 	C 	0.40734	0.51506	0.56254	-0.165
Mof_C 	C 	0.41377	0.49651	0.59322	0.444
Mof_C 	C 	0.51506	0.56254	0.51506	-0.165
Mof_C 	C 	0.49651	0.59322	0.49651	0.444
Mof_H 	H 	0.39138	0.53276	0.9964	0.041
Mof_H 	H 	0.74478	0.53281	0.82747	0.034
Mof_H 	H 	0.67125	0.4027	0.88953	0.033
Mof_H 	H 	0.56977	0.43236	0.92626	0.034
Mof_H 	H 	0.61801	0.48631	0.91592	0.035
Mof_H 	H 	0.71267	0.33223	0.01888	0.039
Mof_H 	H 	0.53276	0.39138	0.07947	0.042
Mof_H 	H 	0.53281	0.74478	0.89494	0.034
Mof_H 	H 	0.4027	0.67125	0.03652	0.034
Mof_H 	H 	0.43236	0.56977	0.0716	0.034
Mof_H 	H 	0.48631	0.61801	0.97976	0.034
Mof_H 	H 	0.33223	0.71267	0.93622	0.039
Mof_H 	H 	0.9964	0.07947	0.39138	0.041
Mof_H 	H 	0.82747	0.89494	0.74478	0.034
Mof_H 	H 	0.88953	0.03652	0.67125	0.034
Mof_H 	H 	0.92626	0.0716	0.56977	0.034
Mof_H 	H 	0.91592	0.97976	0.61801	0.034
Mof_H 	H 	0.01888	0.93622	0.71267	0.039
Mof_H 	H 	0.07947	0.9964	0.53276	0.041
Mof_H 	H 	0.89494	0.82747	0.53281	0.034
Mof_H 	H 	0.03652	0.88953	0.4027	0.034
Mof_H 	H 	0.0716	0.92626	0.43236	0.034
Mof_H 	H 	0.97976	0.91592	0.48631	0.034
Mof_H 	H 	0.93622	0.01888	0.33223	0.039
Mof_H 	H 	0.9964	0.39138	0.53276	0.041
Mof_H 	H 	0.82747	0.74478	0.53281	0.034
Mof_H 	H 	0.88953	0.67125	0.4027	0.033
Mof_H 	H 	0.92626	0.56977	0.43236	0.034
Mof_H 	H 	0.91592	0.61801	0.48631	0.035
Mof_H 	H 	0.01888	0.71267	0.33223	0.039
Mof_H 	H 	0.07947	0.53276	0.39138	0.042
Mof_H 	H 	0.89494	0.53281	0.74478	0.034
Mof_H 	H 	0.03652	0.4027	0.67125	0.034
Mof_H 	H 	0.0716	0.43236	0.56977	0.034
Mof_H 	H 	0.97976	0.48631	0.61801	0.034
Mof_H 	H 	0.93622	0.33223	0.71267	0.039
Mof_H 	H 	0.39138	0.9964	0.07947	0.041
Mof_H 	H 	0.74478	0.82747	0.89494	0.034
Mof_H 	H 	0.67125	0.88953	0.03652	0.034
Mof_H 	H 	0.56977	0.92626	0.0716	0.034
Mof_H 	H 	0.61801	0.91592	0.97976	0.034
Mof_H 	H 	0.71267	0.01888	0.93622	0.039
Mof_H 	H 	0.53276	0.07947	0.9964	0.041
Mof_H 	H 	0.53281	0.89494	0.82747	0.034
Mof_H 	H 	0.4027	0.03652	0.88953	0.034
Mof_H 	H 	0.43236	0.0716	0.92626	0.034
Mof_H 	H 	0.48631	0.97976	0.91592	0.034
Mof_H 	H 	0.33223	0.93622	0.01888	0.039
Mof_H 	H 	0.53276	0.9964	0.39138	0.041
Mof_H 	H 	0.53281	0.82747	0.74478	0.034
Mof_H 	H 	0.4027	0.88953	0.67125	0.033
Mof_H 	H 	0.43236	0.92626	0.56977	0.034
Mof_H 	H 	0.48631	0.91592	0.61801	0.035
Mof_H 	H 	0.33223	0.01888	0.71267	0.039
Mof_H 	H 	0.39138	0.07947	0.53276	0.042
Mof_H 	H 	0.74478	0.89494	0.53281	0.034
Mof_H 	H 	0.67125	0.03652	0.4027	0.034
Mof_H 	H 	0.56977	0.0716	0.43236	0.034
Mof_H 	H 	0.61801	0.97976	0.48631	0.034
Mof_H 	H 	0.71267	0.93622	0.33223	0.039
Mof_H 	H 	0.07947	0.39138	0.9964	0.041
Mof_H 	H 	0.89494	0.74478	0.82747	0.034
Mof_H 	H 	0.03652	0.67125	0.88953	0.034
Mof_H 	H 	0.0716	0.56977	0.92626	0.034
Mof_H 	H 	0.97976	0.61801	0.91592	0.034
Mof_H 	H 	0.93622	0.71267	0.01888	0.039
Mof_H 	H 	0.9964	0.53276	0.07947	0.041
Mof_H 	H 	0.82747	0.53281	0.89494	0.034
Mof_H 	H 	0.88953	0.4027	0.03652	0.034
Mof_H 	H 	0.92626	0.43236	0.0716	0.034
Mof_H 	H 	0.91592	0.48631	0.97976	0.034
Mof_H 	H 	0.01888	0.33223	0.93622	0.039
Mof_H 	H 	0.85862	0.71724	0.17053	0.042
Mof_H 	H 	0.50522	0.71719	0.35506	0.034
Mof_H 	H 	0.57875	0.8473	0.21348	0.033
Mof_H 	H 	0.68023	0.81764	0.1784	0.034
Mof_H 	H 	0.63199	0.76369	0.27024	0.035
Mof_H 	H 	0.53733	0.91777	0.31378	0.039
Mof_H 	H 	0.71724	0.85862	0.2536	0.042
Mof_H 	H 	0.71719	0.50522	0.42253	0.034
Mof_H 	H 	0.8473	0.57875	0.36047	0.033
Mof_H 	H 	0.81764	0.68023	0.32374	0.034
Mof_H 	H 	0.76369	0.63199	0.33408	0.035
Mof_H 	H 	0.91777	0.53733	0.23112	0.039
Mof_H 	H 	0.2536	0.17053	0.71724	0.042
Mof_H 	H 	0.42253	0.35506	0.71719	0.034
Mof_H 	H 	0.36047	0.21348	0.8473	0.033
Mof_H 	H 	0.32374	0.1784	0.81764	0.034
Mof_H 	H 	0.33408	0.27024	0.76369	0.035
Mof_H 	H 	0.23112	0.31378	0.91777	0.039
Mof_H 	H 	0.17053	0.2536	0.85862	0.042
Mof_H 	H 	0.35506	0.42253	0.50522	0.034
Mof_H 	H 	0.21348	0.36047	0.57875	0.033
Mof_H 	H 	0.1784	0.32374	0.68023	0.034
Mof_H 	H 	0.27024	0.33408	0.63199	0.035
Mof_H 	H 	0.31378	0.23112	0.53733	0.039
Mof_H 	H 	0.2536	0.85862	0.17053	0.042
Mof_H 	H 	0.42253	0.50522	0.35506	0.034
Mof_H 	H 	0.36047	0.57875	0.21348	0.033
Mof_H 	H 	0.32374	0.68023	0.1784	0.034
Mof_H 	H 	0.33408	0.63199	0.27024	0.035
Mof_H 	H 	0.23112	0.53733	0.31378	0.039
Mof_H 	H 	0.17053	0.71724	0.2536	0.042
Mof_H 	H 	0.35506	0.71719	0.42253	0.034
Mof_H 	H 	0.21348	0.8473	0.36047	0.033
Mof_H 	H 	0.1784	0.81764	0.32374	0.034
Mof_H 	H 	0.27024	0.76369	0.33408	0.035
Mof_H 	H 	0.31378	0.91777	0.23112	0.039
Mof_H 	H 	0.85862	0.2536	0.71724	0.042
Mof_H 	H 	0.50522	0.42253	0.71719	0.034
Mof_H 	H 	0.57875	0.36047	0.8473	0.033
Mof_H 	H 	0.68023	0.32374	0.81764	0.034
Mof_H 	H 	0.63199	0.33408	0.76369	0.035
Mof_H 	H 	0.53733	0.23112	0.91777	0.039
Mof_H 	H 	0.71724	0.17053	0.85862	0.042
Mof_H 	H 	0.71719	0.35506	0.50522	0.034
Mof_H 	H 	0.8473	0.21348	0.57875	0.033
Mof_H 	H 	0.81764	0.1784	0.68023	0.034
Mof_H 	H 	0.76369	0.27024	0.63199	0.035
Mof_H 	H 	0.91777	0.31378	0.53733	0.039
Mof_H 	H 	0.71724	0.2536	0.17053	0.042
Mof_H 	H 	0.71719	0.42253	0.35506	0.034
Mof_H 	H 	0.8473	0.36047	0.21348	0.033
Mof_H 	H 	0.81764	0.32374	0.1784	0.034
Mof_H 	H 	0.76369	0.33408	0.27024	0.035
Mof_H 	H 	0.91777	0.23112	0.31378	0.039
Mof_H 	H 	0.85862	0.17053	0.2536	0.042
Mof_H 	H 	0.50522	0.35506	0.42253	0.034
Mof_H 	H 	0.57875	0.21348	0.36047	0.033
Mof_H 	H 	0.68023	0.1784	0.32374	0.034
Mof_H 	H 	0.63199	0.27024	0.33408	0.035
Mof_H 	H 	0.53733	0.31378	0.23112	0.039
Mof_H 	H 	0.17053	0.85862	0.71724	0.042
Mof_H 	H 	0.35506	0.50522	0.71719	0.034
Mof_H 	H 	0.21348	0.57875	0.8473	0.033
Mof_H 	H 	0.1784	0.68023	0.81764	0.034
Mof_H 	H 	0.27024	0.63199	0.76369	0.035
Mof_H 	H 	0.31378	0.53733	0.91777	0.039
Mof_H 	H 	0.2536	0.71724	0.85862	0.042
Mof_H 	H 	0.42253	0.71719	0.50522	0.034
Mof_H 	H 	0.36047	0.8473	0.57875	0.033
Mof_H 	H 	0.32374	0.81764	0.68023	0.034
Mof_H 	H 	0.33408	0.76369	0.63199	0.035
Mof_H 	H 	0.23112	0.91777	0.53733	0.039
Mof_H 	H 	0.85862	0.71724	0.2536	0.042
Mof_H 	H 	0.50522	0.71719	0.42253	0.034
Mof_H 	H 	0.57875	0.8473	0.36047	0.033
Mof_H 	H 	0.68023	0.81764	0.32374	0.034
Mof_H 	H 	0.63199	0.76369	0.33408	0.035
Mof_H 	H 	0.53733	0.91777	0.23112	0.039
Mof_H 	H 	0.71724	0.85862	0.17053	0.042
Mof_H 	H 	0.71719	0.50522	0.35506	0.034
Mof_H 	H 	0.8473	0.57875	0.21348	0.033
Mof_H 	H 	0.81764	0.68023	0.1784	0.034
Mof_H 	H 	0.76369	0.63199	0.27024	0.035
Mof_H 	H 	0.91777	0.53733	0.31378	0.039
Mof_H 	H 	0.2536	0.17053	0.85862	0.042
Mof_H 	H 	0.42253	0.35506	0.50522	0.034
Mof_H 	H 	0.36047	0.21348	0.57875	0.033
Mof_H 	H 	0.32374	0.1784	0.68023	0.034
Mof_H 	H 	0.33408	0.27024	0.63199	0.035
Mof_H 	H 	0.23112	0.31378	0.53733	0.039
Mof_H 	H 	0.17053	0.2536	0.71724	0.042
Mof_H 	H 	0.35506	0.42253	0.71719	0.034
Mof_H 	H 	0.21348	0.36047	0.8473	0.033
Mof_H 	H 	0.1784	0.32374	0.81764	0.034
Mof_H 	H 	0.27024	0.33408	0.76369	0.035
Mof_H 	H 	0.31378	0.23112	0.91777	0.039
Mof_H 	H 	0.2536	0.85862	0.71724	0.042
Mof_H 	H 	0.42253	0.50522	0.71719	0.034
Mof_H 	H 	0.36047	0.57875	0.8473	0.033
Mof_H 	H 	0.32374	0.68023	0.81764	0.034
Mof_H 	H 	0.33408	0.63199	0.76369	0.035
Mof_H 	H 	0.23112	0.53733	0.91777	0.039
Mof_H 	H 	0.17053	0.71724	0.85862	0.042
Mof_H 	H 	0.35506	0.71719	0.50522	0.034
Mof_H 	H 	0.21348	0.8473	0.57875	0.033
Mof_H 	H 	0.1784	0.81764	0.68023	0.034
Mof_H 	H 	0.27024	0.76369	0.63199	0.035
Mof_H 	H 	0.31378	0.91777	0.53733	0.039
Mof_H 	H 	0.85862	0.2536	0.17053	0.042
Mof_H 	H 	0.50522	0.42253	0.35506	0.034
Mof_H 	H 	0.57875	0.36047	0.21348	0.033
Mof_H 	H 	0.68023	0.32374	0.1784	0.034
Mof_H 	H 	0.63199	0.33408	0.27024	0.035
Mof_H 	H 	0.53733	0.23112	0.31378	0.039
Mof_H 	H 	0.71724	0.17053	0.2536	0.042
Mof_H 	H 	0.71719	0.35506	0.42253	0.034
Mof_H 	H 	0.8473	0.21348	0.36047	0.033
Mof_H 	H 	0.81764	0.1784	0.32374	0.034
Mof_H 	H 	0.76369	0.27024	0.33408	0.035
Mof_H 	H 	0.91777	0.31378	0.23112	0.039
Mof_H 	H 	0.71724	0.2536	0.85862	0.042
Mof_H 	H 	0.71719	0.42253	0.50522	0.034
Mof_H 	H 	0.8473	0.36047	0.57875	0.033
Mof_H 	H 	0.81764	0.32374	0.68023	0.034
Mof_H 	H 	0.76369	0.33408	0.63199	0.035
Mof_H 	H 	0.91777	0.23112	0.53733	0.039
Mof_H 	H 	0.85862	0.17053	0.71724	0.042
Mof_H 	H 	0.50522	0.35506	0.71719	0.034
Mof_H 	H 	0.57875	0.21348	0.8473	0.033
Mof_H 	H 	0.68023	0.1784	0.81764	0.034
Mof_H 	H 	0.63199	0.27024	0.76369	0.035
Mof_H 	H 	0.53733	0.31378	0.91777	0.039
Mof_H 	H 	0.17053	0.85862	0.2536	0.042
Mof_H 	H 	0.35506	0.50522	0.42253	0.034
Mof_H 	H 	0.21348	0.57875	0.36047	0.033
Mof_H 	H 	0.1784	0.68023	0.32374	0.034
Mof_H 	H 	0.27024	0.63199	0.33408	0.035
Mof_H 	H 	0.31378	0.53733	0.23112	0.039
Mof_H 	H 	0.2536	0.71724	0.17053	0.042
Mof_H 	H 	0.42253	0.71719	0.35506	0.034
Mof_H 	H 	0.36047	0.8473	0.21348	0.033
Mof_H 	H 	0.32374	0.81764	0.1784	0.034
Mof_H 	H 	0.33408	0.76369	0.27024	0.035
Mof_H 	H 	0.23112	0.91777	0.31378	0.039
Mof_H 	H 	0.39138	0.53276	0.07947	0.042
Mof_H 	H 	0.74478	0.53281	0.89494	0.034
Mof_H 	H 	0.67125	0.4027	0.03652	0.034
Mof_H 	H 	0.56977	0.43236	0.0716	0.034
Mof_H 	H 	0.61801	0.48631	0.97976	0.034
Mof_H 	H 	0.71267	0.33223	0.93622	0.039
Mof_H 	H 	0.53276	0.39138	0.9964	0.041
Mof_H 	H 	0.53281	0.74478	0.82747	0.034
Mof_H 	H 	0.4027	0.67125	0.88953	0.033
Mof_H 	H 	0.43236	0.56977	0.92626	0.034
Mof_H 	H 	0.48631	0.61801	0.91592	0.035
Mof_H 	H 	0.33223	0.71267	0.01888	0.039
Mof_H 	H 	0.9964	0.07947	0.53276	0.041
Mof_H 	H 	0.82747	0.89494	0.53281	0.034
Mof_H 	H 	0.88953	0.03652	0.4027	0.034
Mof_H 	H 	0.92626	0.0716	0.43236	0.034
Mof_H 	H 	0.91592	0.97976	0.48631	0.034
Mof_H 	H 	0.01888	0.93622	0.33223	0.039
Mof_H 	H 	0.07947	0.9964	0.39138	0.041
Mof_H 	H 	0.89494	0.82747	0.74478	0.034
Mof_H 	H 	0.03652	0.88953	0.67125	0.034
Mof_H 	H 	0.0716	0.92626	0.56977	0.034
Mof_H 	H 	0.97976	0.91592	0.61801	0.034
Mof_H 	H 	0.93622	0.01888	0.71267	0.039
Mof_H 	H 	0.9964	0.39138	0.07947	0.041
Mof_H 	H 	0.82747	0.74478	0.89494	0.034
Mof_H 	H 	0.88953	0.67125	0.03652	0.034
Mof_H 	H 	0.92626	0.56977	0.0716	0.034
Mof_H 	H 	0.91592	0.61801	0.97976	0.034
Mof_H 	H 	0.01888	0.71267	0.93622	0.039
Mof_H 	H 	0.07947	0.53276	0.9964	0.041
Mof_H 	H 	0.89494	0.53281	0.82747	0.034
Mof_H 	H 	0.03652	0.4027	0.88953	0.034
Mof_H 	H 	0.0716	0.43236	0.92626	0.034
Mof_H 	H 	0.97976	0.48631	0.91592	0.034
Mof_H 	H 	0.93622	0.33223	0.01888	0.039
Mof_H 	H 	0.39138	0.9964	0.53276	0.041
Mof_H 	H 	0.74478	0.82747	0.53281	0.034
Mof_H 	H 	0.67125	0.88953	0.4027	0.033
Mof_H 	H 	0.56977	0.92626	0.43236	0.034
Mof_H 	H 	0.61801	0.91592	0.48631	0.035
Mof_H 	H 	0.71267	0.01888	0.33223	0.039
Mof_H 	H 	0.53276	0.07947	0.39138	0.042
Mof_H 	H 	0.53281	0.89494	0.74478	0.034
Mof_H 	H 	0.4027	0.03652	0.67125	0.034
Mof_H 	H 	0.43236	0.0716	0.56977	0.034
Mof_H 	H 	0.48631	0.97976	0.61801	0.034
Mof_H 	H 	0.33223	0.93622	0.71267	0.039
Mof_H 	H 	0.53276	0.9964	0.07947	0.041
Mof_H 	H 	0.53281	0.82747	0.89494	0.034
Mof_H 	H 	0.4027	0.88953	0.03652	0.034
Mof_H 	H 	0.43236	0.92626	0.0716	0.034
Mof_H 	H 	0.48631	0.91592	0.97976	0.034
Mof_H 	H 	0.33223	0.01888	0.93622	0.039
Mof_H 	H 	0.39138	0.07947	0.9964	0.041
Mof_H 	H 	0.74478	0.89494	0.82747	0.034
Mof_H 	H 	0.67125	0.03652	0.88953	0.034
Mof_H 	H 	0.56977	0.0716	0.92626	0.034
Mof_H 	H 	0.61801	0.97976	0.91592	0.034
Mof_H 	H 	0.71267	0.93622	0.01888	0.039
Mof_H 	H 	0.07947	0.39138	0.53276	0.042
Mof_H 	H 	0.89494	0.74478	0.53281	0.034
Mof_H 	H 	0.03652	0.67125	0.4027	0.034
Mof_H 	H 	0.0716	0.56977	0.43236	0.034
Mof_H 	H 	0.97976	0.61801	0.48631	0.034
Mof_H 	H 	0.93622	0.71267	0.33223	0.039
Mof_H 	H 	0.9964	0.53276	0.39138	0.041
Mof_H 	H 	0.82747	0.53281	0.74478	0.034
Mof_H 	H 	0.88953	0.4027	0.67125	0.033
Mof_H 	H 	0.92626	0.43236	0.56977	0.034
Mof_H 	H 	0.91592	0.48631	0.61801	0.035
Mof_H 	H 	0.01888	0.33223	0.71267	0.039
Mof_H 	H 	0.66364	0.279	0.02868	0.035
Mof_H 	H 	0.279	0.66364	0.02868	0.035
Mof_H 	H 	0.02868	0.02868	0.66364	0.035
Mof_H 	H 	0.02868	0.02868	0.279	0.035
Mof_H 	H 	0.02868	0.66364	0.279	0.035
Mof_H 	H 	0.02868	0.279	0.66364	0.035
Mof_H 	H 	0.66364	0.02868	0.02868	0.035
Mof_H 	H 	0.279	0.02868	0.02868	0.035
Mof_H 	H 	0.279	0.02868	0.66364	0.035
Mof_H 	H 	0.66364	0.02868	0.279	0.035
Mof_H 	H 	0.02868	0.66364	0.02868	0.035
Mof_H 	H 	0.02868	0.279	0.02868	0.035
Mof_H 	H 	0.58636	0.971	0.22132	0.035
Mof_H 	H 	0.971	0.58636	0.22132	0.035
Mof_H 	H 	0.22132	0.22132	0.971	0.035
Mof_H 	H 	0.22132	0.22132	0.58636	0.036
Mof_H 	H 	0.22132	0.58636	0.22132	0.036
Mof_H 	H 	0.22132	0.971	0.22132	0.035
Mof_H 	H 	0.58636	0.22132	0.971	0.035
Mof_H 	H 	0.971	0.22132	0.58636	0.035
Mof_H 	H 	0.971	0.22132	0.22132	0.035
Mof_H 	H 	0.58636	0.22132	0.22132	0.036
Mof_H 	H 	0.22132	0.58636	0.971	0.035
Mof_H 	H 	0.22132	0.971	0.58636	0.035
Mof_H 	H 	0.30719	0.58672	0.05305	0.041
Mof_H 	H 	0.58672	0.30719	0.05305	0.041
Mof_H 	H 	0.05305	0.05305	0.30719	0.041
Mof_H 	H 	0.05305	0.05305	0.58672	0.041
Mof_H 	H 	0.05305	0.30719	0.58672	0.041
Mof_H 	H 	0.05305	0.58672	0.30719	0.041
Mof_H 	H 	0.30719	0.05305	0.05305	0.041
Mof_H 	H 	0.58672	0.05305	0.05305	0.041
Mof_H 	H 	0.58672	0.05305	0.30719	0.041
Mof_H 	H 	0.30719	0.05305	0.58672	0.041
Mof_H 	H 	0.05305	0.30719	0.05305	0.041
Mof_H 	H 	0.05305	0.58672	0.05305	0.041
Mof_H 	H 	0.94281	0.66328	0.19695	0.041
Mof_H 	H 	0.66328	0.94281	0.19695	0.041
Mof_H 	H 	0.19695	0.19695	0.66328	0.041
Mof_H 	H 	0.19695	0.19695	0.94281	0.041
Mof_H 	H 	0.19695	0.94281	0.19695	0.041
Mof_H 	H 	0.19695	0.66328	0.19695	0.041
Mof_H 	H 	0.94281	0.19695	0.66328	0.041
Mof_H 	H 	0.66328	0.19695	0.94281	0.041
Mof_H 	H 	0.66328	0.19695	0.19695	0.041
Mof_H 	H 	0.94281	0.19695	0.19695	0.041
Mof_H 	H 	0.19695	0.94281	0.66328	0.041
Mof_H 	H 	0.19695	0.66328	0.94281	0.041
Mof_H 	H 	0.69189	0.69189	0.77478	0.033
Mof_H 	H 	0.69189	0.69189	0.84144	0.033
Mof_H 	H 	0.77478	0.84144	0.69189	0.033
Mof_H 	H 	0.84144	0.77478	0.69189	0.033
Mof_H 	H 	0.77478	0.69189	0.69189	0.033
Mof_H 	H 	0.84144	0.69189	0.69189	0.033
Mof_H 	H 	0.69189	0.77478	0.84144	0.033
Mof_H 	H 	0.69189	0.84144	0.77478	0.033
Mof_H 	H 	0.69189	0.77478	0.69189	0.033
Mof_H 	H 	0.69189	0.84144	0.69189	0.033
Mof_H 	H 	0.84144	0.69189	0.77478	0.033
Mof_H 	H 	0.77478	0.69189	0.84144	0.033
Mof_H 	H 	0.55811	0.55811	0.40856	0.033
Mof_H 	H 	0.55811	0.55811	0.47522	0.033
Mof_H 	H 	0.47522	0.40856	0.55811	0.033
Mof_H 	H 	0.40856	0.47522	0.55811	0.033
Mof_H 	H 	0.47522	0.55811	0.40856	0.033
Mof_H 	H 	0.40856	0.55811	0.47522	0.033
Mof_H 	H 	0.55811	0.47522	0.55811	0.033
Mof_H 	H 	0.55811	0.40856	0.55811	0.033
Mof_H 	H 	0.55811	0.47522	0.40856	0.033
Mof_H 	H 	0.55811	0.40856	0.47522	0.033
Mof_H 	H 	0.40856	0.55811	0.55811	0.033
Mof_H 	H 	0.47522	0.55811	0.55811	0.033
Mof_H 	H 	0.84382	0.38541	0.84382	0.039
Mof_H 	H 	0.8005	0.4494	0.8005	0.032
Mof_H 	H 	0.38541	0.84382	0.92695	0.039
Mof_H 	H 	0.4494	0.8005	0.94959	0.032
Mof_H 	H 	0.84382	0.92695	0.84382	0.039
Mof_H 	H 	0.8005	0.94959	0.8005	0.032
Mof_H 	H 	0.92695	0.84382	0.38541	0.039
Mof_H 	H 	0.94959	0.8005	0.4494	0.032
Mof_H 	H 	0.84382	0.84382	0.38541	0.039
Mof_H 	H 	0.8005	0.8005	0.4494	0.032
Mof_H 	H 	0.92695	0.38541	0.84382	0.039
Mof_H 	H 	0.94959	0.4494	0.8005	0.032
Mof_H 	H 	0.84382	0.84382	0.92695	0.039
Mof_H 	H 	0.8005	0.8005	0.94959	0.032
Mof_H 	H 	0.38541	0.92695	0.84382	0.039
Mof_H 	H 	0.4494	0.94959	0.8005	0.032
Mof_H 	H 	0.38541	0.84382	0.84382	0.039
Mof_H 	H 	0.4494	0.8005	0.8005	0.032
Mof_H 	H 	0.84382	0.92695	0.38541	0.039
Mof_H 	H 	0.8005	0.94959	0.4494	0.032
Mof_H 	H 	0.92695	0.84382	0.84382	0.039
Mof_H 	H 	0.94959	0.8005	0.8005	0.032
Mof_H 	H 	0.84382	0.38541	0.92695	0.039
Mof_H 	H 	0.8005	0.4494	0.94959	0.032
Mof_H 	H 	0.40618	0.86459	0.32305	0.039
Mof_H 	H 	0.4495	0.8006	0.30041	0.032
Mof_H 	H 	0.86459	0.40618	0.40618	0.039
Mof_H 	H 	0.8006	0.4495	0.4495	0.032
Mof_H 	H 	0.40618	0.32305	0.86459	0.039
Mof_H 	H 	0.4495	0.30041	0.8006	0.032
Mof_H 	H 	0.32305	0.40618	0.40618	0.039
Mof_H 	H 	0.30041	0.4495	0.4495	0.032
Mof_H 	H 	0.40618	0.40618	0.32305	0.039
Mof_H 	H 	0.4495	0.4495	0.30041	0.032
Mof_H 	H 	0.32305	0.86459	0.40618	0.039
Mof_H 	H 	0.30041	0.8006	0.4495	0.032
Mof_H 	H 	0.40618	0.40618	0.86459	0.039
Mof_H 	H 	0.4495	0.4495	0.8006	0.032
Mof_H 	H 	0.86459	0.32305	0.40618	0.039
Mof_H 	H 	0.8006	0.30041	0.4495	0.032
Mof_H 	H 	0.86459	0.40618	0.32305	0.039
Mof_H 	H 	0.8006	0.4495	0.30041	0.032
Mof_H 	H 	0.40618	0.32305	0.40618	0.039
Mof_H 	H 	0.4495	0.30041	0.4495	0.032
Mof_H 	H 	0.32305	0.40618	0.86459	0.039
Mof_H 	H 	0.30041	0.4495	0.8006	0.032
Mof_H 	H 	0.40618	0.86459	0.40618	0.039
Mof_H 	H 	0.4495	0.8006	0.4495	0.032
_end
