data_functionalizedCrystal
_audit_creation_method	'EQeq! by Chris Wilmer'
_symmetry_space_group_name_H-M	'P1'
_symmetry_Int_Tables_number	1
_symmetry_cell_setting	triclinic
loop_
_symmetry_equiv_pos_as_xyz
  x,y,z
_cell_length_a	27.631
_cell_length_b	29.08
_cell_length_c	13.136
_cell_angle_alpha	90
_cell_angle_beta	90
_cell_angle_gamma	90
loop_
_atom_site_label
_atom_site_type_symbol
_atom_site_fract_x
_atom_site_fract_y
_atom_site_fract_z
_atom_site_charge
Mof_O 	O 	0.69711	0.48711	0.1832	-0.88
Mof_O 	O 	0.7678	0.4449	0.5252	0.547
Mof_O 	O 	0.7111	0.4145	0.6351	-0.916
Mof_O 	O 	0.6403	0.4447	0.1192	-0.369
Mof_C 	C 	0.6026	0.2879	0.403	0.048
Mof_C 	C 	0.6648	0.4282	0.287	-0.348
Mof_C 	C 	0.656	0.3803	0.4708	0.118
Mof_H 	H 	0.6522	0.3648	0.534	-0.024
Mof_C 	C 	0.6263	0.3699	0.3865	-0.091
Mof_C 	C 	0.653	0.2731	0.3969	-0.08
Mof_H 	H 	0.6807	0.2925	0.3935	0.037
Mof_C 	C 	0.5874	0.3334	0.3971	-0.099
Mof_C 	C 	0.6709	0.4529	0.1898	0.561
Mof_C 	C 	0.6312	0.394	0.2979	0.12
Mof_H 	H 	0.6107	0.3868	0.2422	-0.025
Mof_C 	C 	0.723	0.4274	0.5472	0.762
Mof_C 	C 	0.5404	0.3471	0.3953	0.044
Mof_C 	C 	0.5236	0.3952	0.3951	-0.076
Mof_H 	H 	0.5437	0.4216	0.3949	0.036
Mof_C 	C 	0.6961	0.4372	0.3683	0.288
Mof_H 	H 	0.721	0.4594	0.3606	-0.153
Mof_C 	C 	0.6915	0.4145	0.4576	-0.368
Mof_O 	O 	0.7513	0.4564	0.5382	-1.293
Mof_O 	O 	0.6559	0.4308	0.1043	-0.158
Mof_O 	O 	0.19711	0.98711	0.6832	-0.843
Mof_O 	O 	0.2678	0.9449	0.0252	0.438
Mof_O 	O 	0.2111	0.9145	0.1351	-0.909
Mof_O 	O 	0.1403	0.9447	0.6192	-0.372
Mof_C 	C 	0.1026	0.7879	0.903	0.05
Mof_C 	C 	0.1648	0.9282	0.787	-0.329
Mof_C 	C 	0.156	0.8803	0.9708	0.19
Mof_H 	H 	0.1522	0.8648	0.034	-0.087
Mof_C 	C 	0.1263	0.8699	0.8865	-0.108
Mof_C 	C 	0.153	0.7731	0.8969	-0.075
Mof_H 	H 	0.1807	0.7925	0.8935	0.042
Mof_C 	C 	0.0874	0.8334	0.8971	-0.091
Mof_C 	C 	0.1709	0.9529	0.6898	0.553
Mof_C 	C 	0.1312	0.894	0.7979	0.122
Mof_H 	H 	0.1107	0.8868	0.7422	-0.021
Mof_C 	C 	0.223	0.9274	0.0472	0.67
Mof_C 	C 	0.0404	0.8471	0.8953	0.055
Mof_C 	C 	0.0236	0.8952	0.8951	-0.115
Mof_H 	H 	0.0437	0.9216	0.8949	0.06
Mof_C 	C 	0.1961	0.9372	0.8683	0.263
Mof_H 	H 	0.221	0.9594	0.8606	-0.12
Mof_C 	C 	0.1915	0.9145	0.9576	-0.312
Mof_O 	O 	0.2513	0.9564	0.0382	-1.139
Mof_O 	O 	0.1559	0.9308	0.6043	-0.127
Mof_O 	O 	0.30289	0.01289	0.1832	-0.91
Mof_O 	O 	0.2322	0.0551	0.5252	0.608
Mof_O 	O 	0.2889	0.0855	0.6351	-0.908
Mof_O 	O 	0.3597	0.0553	0.1192	-0.38
Mof_C 	C 	0.3974	0.2121	0.403	0.046
Mof_C 	C 	0.3352	0.0718	0.287	-0.366
Mof_C 	C 	0.344	0.1197	0.4708	0.124
Mof_H 	H 	0.3478	0.1352	0.534	-0.029
Mof_C 	C 	0.3737	0.1301	0.3865	-0.099
Mof_C 	C 	0.347	0.2269	0.3969	-0.079
Mof_H 	H 	0.3193	0.2075	0.3935	0.036
Mof_C 	C 	0.4126	0.1666	0.3971	-0.096
Mof_C 	C 	0.3291	0.0471	0.1898	0.574
Mof_C 	C 	0.3688	0.106	0.2979	0.129
Mof_H 	H 	0.3893	0.1132	0.2422	-0.029
Mof_C 	C 	0.277	0.0726	0.5472	0.774
Mof_C 	C 	0.4596	0.1529	0.3953	0.042
Mof_C 	C 	0.4764	0.1048	0.3951	-0.077
Mof_H 	H 	0.4563	0.0784	0.3949	0.031
Mof_C 	C 	0.3039	0.0628	0.3683	0.3
Mof_H 	H 	0.279	0.0406	0.3606	-0.167
Mof_C 	C 	0.3085	0.0855	0.4576	-0.382
Mof_O 	O 	0.2487	0.0436	0.5382	-1.355
Mof_O 	O 	0.3441	0.0692	0.1043	-0.15
Mof_O 	O 	0.80289	0.51289	0.6832	-0.892
Mof_O 	O 	0.7322	0.5551	0.0252	0.417
Mof_O 	O 	0.7889	0.5855	0.1351	-0.896
Mof_O 	O 	0.8597	0.5553	0.6192	-0.404
Mof_C 	C 	0.8974	0.7121	0.903	0.051
Mof_C 	C 	0.8352	0.5718	0.787	-0.346
Mof_C 	C 	0.844	0.6197	0.9708	0.196
Mof_H 	H 	0.8478	0.6352	0.034	-0.088
Mof_C 	C 	0.8737	0.6301	0.8865	-0.116
Mof_C 	C 	0.847	0.7269	0.8969	-0.073
Mof_H 	H 	0.8193	0.7075	0.8935	0.042
Mof_C 	C 	0.9126	0.6666	0.8971	-0.082
Mof_C 	C 	0.8291	0.5471	0.6898	0.571
Mof_C 	C 	0.8688	0.606	0.7979	0.133
Mof_H 	H 	0.8893	0.6132	0.7422	-0.024
Mof_C 	C 	0.777	0.5726	0.0472	0.673
Mof_C 	C 	0.9596	0.6529	0.8953	0.05
Mof_C 	C 	0.9764	0.6048	0.8951	-0.028
Mof_H 	H 	0.9563	0.5784	0.8949	0.032
Mof_C 	C 	0.8039	0.5628	0.8683	0.276
Mof_H 	H 	0.779	0.5406	0.8606	-0.138
Mof_C 	C 	0.8085	0.5855	0.9576	-0.325
Mof_O 	O 	0.7487	0.5436	0.0382	-1.138
Mof_O 	O 	0.8441	0.5692	0.6043	-0.114
Mof_O 	O 	0.30289	0.98711	0.8168	-0.823
Mof_O 	O 	0.2322	0.9449	0.4748	0.529
Mof_O 	O 	0.2889	0.9145	0.3649	-0.92
Mof_O 	O 	0.3597	0.9447	0.8808	-0.369
Mof_C 	C 	0.3974	0.7879	0.597	0.049
Mof_C 	C 	0.3352	0.9282	0.713	-0.323
Mof_C 	C 	0.344	0.8803	0.5292	0.107
Mof_H 	H 	0.3478	0.8648	0.466	-0.025
Mof_C 	C 	0.3737	0.8699	0.6135	-0.079
Mof_C 	C 	0.347	0.7731	0.6031	-0.079
Mof_H 	H 	0.3193	0.7925	0.6065	0.037
Mof_C 	C 	0.4126	0.8334	0.6029	-0.101
Mof_C 	C 	0.3291	0.9529	0.8102	0.55
Mof_C 	C 	0.3688	0.894	0.7021	0.107
Mof_H 	H 	0.3893	0.8868	0.7578	-0.008
Mof_C 	C 	0.277	0.9274	0.4528	0.745
Mof_C 	C 	0.4596	0.8471	0.6047	0.048
Mof_C 	C 	0.4764	0.8952	0.6049	-0.073
Mof_H 	H 	0.4563	0.9216	0.6051	0.045
Mof_C 	C 	0.3039	0.9372	0.6317	0.272
Mof_H 	H 	0.279	0.9594	0.6394	-0.136
Mof_C 	C 	0.3085	0.9145	0.5424	-0.348
Mof_O 	O 	0.2487	0.9564	0.4618	-1.245
Mof_O 	O 	0.3441	0.9308	0.8957	-0.09
Mof_O 	O 	0.80289	0.48711	0.3168	-0.886
Mof_O 	O 	0.7322	0.4449	0.9748	0.742
Mof_O 	O 	0.7889	0.4145	0.8649	-0.93
Mof_O 	O 	0.8597	0.4447	0.3808	-0.407
Mof_C 	C 	0.8974	0.2879	0.097	0.049
Mof_C 	C 	0.8352	0.4282	0.213	-0.347
Mof_C 	C 	0.844	0.3803	0.0292	0.041
Mof_H 	H 	0.8478	0.3648	0.966	0.033
Mof_C 	C 	0.8737	0.3699	0.1135	-0.064
Mof_C 	C 	0.847	0.2731	0.1031	-0.084
Mof_H 	H 	0.8193	0.2925	0.1065	0.032
Mof_C 	C 	0.9126	0.3334	0.1029	-0.113
Mof_C 	C 	0.8291	0.4529	0.3102	0.565
Mof_C 	C 	0.8688	0.394	0.2021	0.107
Mof_H 	H 	0.8893	0.3868	0.2578	-0.014
Mof_C 	C 	0.777	0.4274	0.9528	0.849
Mof_C 	C 	0.9596	0.3471	0.1047	0.051
Mof_C 	C 	0.9764	0.3952	0.1049	-0.037
Mof_H 	H 	0.9563	0.4216	0.1051	0.021
Mof_C 	C 	0.8039	0.4372	0.1317	0.299
Mof_H 	H 	0.779	0.4594	0.1394	-0.164
Mof_C 	C 	0.8085	0.4145	0.0424	-0.407
Mof_O 	O 	0.7487	0.4564	0.9618	-1.478
Mof_O 	O 	0.8441	0.4308	0.3957	-0.11
Mof_O 	O 	0.69711	0.51289	0.8168	-0.872
Mof_O 	O 	0.7678	0.5551	0.4748	0.511
Mof_O 	O 	0.7111	0.5855	0.3649	-0.909
Mof_O 	O 	0.6403	0.5553	0.8808	-0.412
Mof_C 	C 	0.6026	0.7121	0.597	0.048
Mof_C 	C 	0.6648	0.5718	0.713	-0.344
Mof_C 	C 	0.656	0.6197	0.5292	0.114
Mof_H 	H 	0.6522	0.6352	0.466	-0.028
Mof_C 	C 	0.6263	0.6301	0.6135	-0.088
Mof_C 	C 	0.653	0.7269	0.6031	-0.078
Mof_H 	H 	0.6807	0.7075	0.6065	0.037
Mof_C 	C 	0.5874	0.6666	0.6029	-0.099
Mof_C 	C 	0.6709	0.5471	0.8102	0.569
Mof_C 	C 	0.6312	0.606	0.7021	0.118
Mof_H 	H 	0.6107	0.6132	0.7578	-0.014
Mof_C 	C 	0.723	0.5726	0.4528	0.749
Mof_C 	C 	0.5404	0.6529	0.6047	0.045
Mof_C 	C 	0.5236	0.6048	0.6049	-0.075
Mof_H 	H 	0.5437	0.5784	0.6051	0.038
Mof_C 	C 	0.6961	0.5628	0.6317	0.286
Mof_H 	H 	0.721	0.5406	0.6394	-0.154
Mof_C 	C 	0.6915	0.5855	0.5424	-0.363
Mof_O 	O 	0.7513	0.5436	0.4618	-1.251
Mof_O 	O 	0.6559	0.5692	0.8957	-0.072
Mof_O 	O 	0.19711	0.01289	0.3168	-0.916
Mof_O 	O 	0.2678	0.0551	0.9748	0.805
Mof_O 	O 	0.2111	0.0855	0.8649	-0.923
Mof_O 	O 	0.1403	0.0553	0.3808	-0.426
Mof_C 	C 	0.1026	0.2121	0.097	0.046
Mof_C 	C 	0.1648	0.0718	0.213	-0.367
Mof_C 	C 	0.156	0.1197	0.0292	0.049
Mof_H 	H 	0.1522	0.1352	0.966	0.026
Mof_C 	C 	0.1263	0.1301	0.1135	-0.072
Mof_C 	C 	0.153	0.2269	0.1031	-0.084
Mof_H 	H 	0.1807	0.2075	0.1065	0.031
Mof_C 	C 	0.0874	0.1666	0.1029	-0.117
Mof_C 	C 	0.1709	0.0471	0.3102	0.579
Mof_C 	C 	0.1312	0.106	0.2021	0.116
Mof_H 	H 	0.1107	0.1132	0.2578	-0.022
Mof_C 	C 	0.223	0.0726	0.9528	0.861
Mof_C 	C 	0.0404	0.1529	0.1047	0.053
Mof_C 	C 	0.0236	0.1048	0.1049	-0.127
Mof_H 	H 	0.0437	0.0784	0.1051	0.038
Mof_C 	C 	0.1961	0.0628	0.1317	0.312
Mof_H 	H 	0.221	0.0406	0.1394	-0.178
Mof_C 	C 	0.1915	0.0855	0.0424	-0.423
Mof_O 	O 	0.2513	0.0436	0.9618	-1.543
Mof_O 	O 	0.1559	0.0692	0.3957	-0.098
Mof_O 	O 	0.30289	0.51289	0.8168	-0.871
Mof_O 	O 	0.2322	0.5551	0.4748	0.503
Mof_O 	O 	0.2889	0.5855	0.3649	-0.908
Mof_O 	O 	0.3597	0.5553	0.8808	-0.411
Mof_C 	C 	0.3974	0.7121	0.597	0.048
Mof_C 	C 	0.3352	0.5718	0.713	-0.343
Mof_C 	C 	0.344	0.6197	0.5292	0.113
Mof_H 	H 	0.3478	0.6352	0.466	-0.028
Mof_C 	C 	0.3737	0.6301	0.6135	-0.088
Mof_C 	C 	0.347	0.7269	0.6031	-0.078
Mof_H 	H 	0.3193	0.7075	0.6065	0.037
Mof_C 	C 	0.4126	0.6666	0.6029	-0.099
Mof_C 	C 	0.3291	0.5471	0.8102	0.568
Mof_C 	C 	0.3688	0.606	0.7021	0.118
Mof_H 	H 	0.3893	0.6132	0.7578	-0.014
Mof_C 	C 	0.277	0.5726	0.4528	0.746
Mof_C 	C 	0.4596	0.6529	0.6047	0.046
Mof_C 	C 	0.4764	0.6048	0.6049	-0.075
Mof_H 	H 	0.4563	0.5784	0.6051	0.038
Mof_C 	C 	0.3039	0.5628	0.6317	0.285
Mof_H 	H 	0.279	0.5406	0.6394	-0.154
Mof_C 	C 	0.3085	0.5855	0.5424	-0.362
Mof_O 	O 	0.2487	0.5436	0.4618	-1.241
Mof_O 	O 	0.3441	0.5692	0.8957	-0.072
Mof_O 	O 	0.80289	0.01289	0.3168	-0.915
Mof_O 	O 	0.7322	0.0551	0.9748	0.803
Mof_O 	O 	0.7889	0.0855	0.8649	-0.922
Mof_O 	O 	0.8597	0.0553	0.3808	-0.416
Mof_C 	C 	0.8974	0.2121	0.097	0.048
Mof_C 	C 	0.8352	0.0718	0.213	-0.365
Mof_C 	C 	0.844	0.1197	0.0292	0.05
Mof_H 	H 	0.8478	0.1352	0.966	0.028
Mof_C 	C 	0.8737	0.1301	0.1135	-0.073
Mof_C 	C 	0.847	0.2269	0.1031	-0.083
Mof_H 	H 	0.8193	0.2075	0.1065	0.032
Mof_C 	C 	0.9126	0.1666	0.1029	-0.111
Mof_C 	C 	0.8291	0.0471	0.3102	0.578
Mof_C 	C 	0.8688	0.106	0.2021	0.117
Mof_H 	H 	0.8893	0.1132	0.2578	-0.019
Mof_C 	C 	0.777	0.0726	0.9528	0.861
Mof_C 	C 	0.9596	0.1529	0.1047	0.049
Mof_C 	C 	0.9764	0.1048	0.1049	-0.038
Mof_H 	H 	0.9563	0.0784	0.1051	0.017
Mof_C 	C 	0.8039	0.0628	0.1317	0.312
Mof_H 	H 	0.779	0.0406	0.1394	-0.177
Mof_C 	C 	0.8085	0.0855	0.0424	-0.421
Mof_O 	O 	0.7487	0.0436	0.9618	-1.542
Mof_O 	O 	0.8441	0.0692	0.3957	-0.104
Mof_O 	O 	0.69711	0.98711	0.8168	-0.824
Mof_O 	O 	0.7678	0.9449	0.4748	0.537
Mof_O 	O 	0.7111	0.9145	0.3649	-0.921
Mof_O 	O 	0.6403	0.9447	0.8808	-0.37
Mof_C 	C 	0.6026	0.7879	0.597	0.049
Mof_C 	C 	0.6648	0.9282	0.713	-0.324
Mof_C 	C 	0.656	0.8803	0.5292	0.108
Mof_H 	H 	0.6522	0.8648	0.466	-0.025
Mof_C 	C 	0.6263	0.8699	0.6135	-0.08
Mof_C 	C 	0.653	0.7731	0.6031	-0.079
Mof_H 	H 	0.6807	0.7925	0.6065	0.038
Mof_C 	C 	0.5874	0.8334	0.6029	-0.101
Mof_C 	C 	0.6709	0.9529	0.8102	0.551
Mof_C 	C 	0.6312	0.894	0.7021	0.108
Mof_H 	H 	0.6107	0.8868	0.7578	-0.009
Mof_C 	C 	0.723	0.9274	0.4528	0.748
Mof_C 	C 	0.5404	0.8471	0.6047	0.048
Mof_C 	C 	0.5236	0.8952	0.6049	-0.073
Mof_H 	H 	0.5437	0.9216	0.6051	0.045
Mof_C 	C 	0.6961	0.9372	0.6317	0.273
Mof_H 	H 	0.721	0.9594	0.6394	-0.137
Mof_C 	C 	0.6915	0.9145	0.5424	-0.35
Mof_O 	O 	0.7513	0.9564	0.4618	-1.254
Mof_O 	O 	0.6559	0.9308	0.8957	-0.09
Mof_O 	O 	0.19711	0.48711	0.3168	-0.886
Mof_O 	O 	0.2678	0.4449	0.9748	0.743
Mof_O 	O 	0.2111	0.4145	0.8649	-0.931
Mof_O 	O 	0.1403	0.4447	0.3808	-0.418
Mof_C 	C 	0.1026	0.2879	0.097	0.047
Mof_C 	C 	0.1648	0.4282	0.213	-0.35
Mof_C 	C 	0.156	0.3803	0.0292	0.04
Mof_H 	H 	0.1522	0.3648	0.966	0.031
Mof_C 	C 	0.1263	0.3699	0.1135	-0.064
Mof_C 	C 	0.153	0.2731	0.1031	-0.085
Mof_H 	H 	0.1807	0.2925	0.1065	0.032
Mof_C 	C 	0.0874	0.3334	0.1029	-0.12
Mof_C 	C 	0.1709	0.4529	0.3102	0.565
Mof_C 	C 	0.1312	0.394	0.2021	0.107
Mof_H 	H 	0.1107	0.3868	0.2578	-0.018
Mof_C 	C 	0.223	0.4274	0.9528	0.85
Mof_C 	C 	0.0404	0.3471	0.1047	0.055
Mof_C 	C 	0.0236	0.3952	0.1049	-0.127
Mof_H 	H 	0.0437	0.4216	0.1051	0.043
Mof_C 	C 	0.1961	0.4372	0.1317	0.3
Mof_H 	H 	0.221	0.4594	0.1394	-0.165
Mof_C 	C 	0.1915	0.4145	0.0424	-0.409
Mof_O 	O 	0.2513	0.4564	0.9618	-1.479
Mof_O 	O 	0.1559	0.4308	0.3957	-0.104
Mof_O 	O 	0.69711	0.01289	0.1832	-0.911
Mof_O 	O 	0.7678	0.0551	0.5252	0.616
Mof_O 	O 	0.7111	0.0855	0.6351	-0.909
Mof_O 	O 	0.6403	0.0553	0.1192	-0.38
Mof_C 	C 	0.6026	0.2121	0.403	0.046
Mof_C 	C 	0.6648	0.0718	0.287	-0.367
Mof_C 	C 	0.656	0.1197	0.4708	0.125
Mof_H 	H 	0.6522	0.1352	0.534	-0.029
Mof_C 	C 	0.6263	0.1301	0.3865	-0.099
Mof_C 	C 	0.653	0.2269	0.3969	-0.079
Mof_H 	H 	0.6807	0.2075	0.3935	0.036
Mof_C 	C 	0.5874	0.1666	0.3971	-0.096
Mof_C 	C 	0.6709	0.0471	0.1898	0.575
Mof_C 	C 	0.6312	0.106	0.2979	0.13
Mof_H 	H 	0.6107	0.1132	0.2422	-0.03
Mof_C 	C 	0.723	0.0726	0.5472	0.777
Mof_C 	C 	0.5404	0.1529	0.3953	0.042
Mof_C 	C 	0.5236	0.1048	0.3951	-0.077
Mof_H 	H 	0.5437	0.0784	0.3949	0.031
Mof_C 	C 	0.6961	0.0628	0.3683	0.301
Mof_H 	H 	0.721	0.0406	0.3606	-0.167
Mof_C 	C 	0.6915	0.0855	0.4576	-0.384
Mof_O 	O 	0.7513	0.0436	0.5382	-1.364
Mof_O 	O 	0.6559	0.0692	0.1043	-0.15
Mof_O 	O 	0.19711	0.51289	0.6832	-0.892
Mof_O 	O 	0.2678	0.5551	0.0252	0.419
Mof_O 	O 	0.2111	0.5855	0.1351	-0.897
Mof_O 	O 	0.1403	0.5553	0.6192	-0.415
Mof_C 	C 	0.1026	0.7121	0.903	0.049
Mof_C 	C 	0.1648	0.5718	0.787	-0.349
Mof_C 	C 	0.156	0.6197	0.9708	0.195
Mof_H 	H 	0.1522	0.6352	0.034	-0.09
Mof_C 	C 	0.1263	0.6301	0.8865	-0.116
Mof_C 	C 	0.153	0.7269	0.8969	-0.074
Mof_H 	H 	0.1807	0.7075	0.8935	0.042
Mof_C 	C 	0.0874	0.6666	0.8971	-0.089
Mof_C 	C 	0.1709	0.5471	0.6898	0.572
Mof_C 	C 	0.1312	0.606	0.7979	0.133
Mof_H 	H 	0.1107	0.6132	0.7422	-0.027
Mof_C 	C 	0.223	0.5726	0.0472	0.673
Mof_C 	C 	0.0404	0.6529	0.8953	0.053
Mof_C 	C 	0.0236	0.6048	0.8951	-0.117
Mof_H 	H 	0.0437	0.5784	0.8949	0.054
Mof_C 	C 	0.1961	0.5628	0.8683	0.276
Mof_H 	H 	0.221	0.5406	0.8606	-0.138
Mof_C 	C 	0.1915	0.5855	0.9576	-0.326
Mof_O 	O 	0.2513	0.5436	0.0382	-1.14
Mof_O 	O 	0.1559	0.5692	0.6043	-0.108
Mof_O 	O 	0.30289	0.48711	0.1832	-0.88
Mof_O 	O 	0.2322	0.4449	0.5252	0.538
Mof_O 	O 	0.2889	0.4145	0.6351	-0.916
Mof_O 	O 	0.3597	0.4447	0.1192	-0.37
Mof_C 	C 	0.3974	0.2879	0.403	0.047
Mof_C 	C 	0.3352	0.4282	0.287	-0.348
Mof_C 	C 	0.344	0.3803	0.4708	0.116
Mof_H 	H 	0.3478	0.3648	0.534	-0.025
Mof_C 	C 	0.3737	0.3699	0.3865	-0.091
Mof_C 	C 	0.347	0.2731	0.3969	-0.08
Mof_H 	H 	0.3193	0.2925	0.3935	0.036
Mof_C 	C 	0.4126	0.3334	0.3971	-0.099
Mof_C 	C 	0.3291	0.4529	0.1898	0.56
Mof_C 	C 	0.3688	0.394	0.2979	0.119
Mof_H 	H 	0.3893	0.3868	0.2422	-0.025
Mof_C 	C 	0.277	0.4274	0.5472	0.759
Mof_C 	C 	0.4596	0.3471	0.3953	0.044
Mof_C 	C 	0.4764	0.3952	0.3951	-0.076
Mof_H 	H 	0.4563	0.4216	0.3949	0.036
Mof_C 	C 	0.3039	0.4372	0.3683	0.287
Mof_H 	H 	0.279	0.4594	0.3606	-0.153
Mof_C 	C 	0.3085	0.4145	0.4576	-0.366
Mof_O 	O 	0.2487	0.4564	0.5382	-1.284
Mof_O 	O 	0.3441	0.4308	0.1043	-0.158
Mof_O 	O 	0.80289	0.98711	0.6832	-0.843
Mof_O 	O 	0.7322	0.9449	0.0252	0.437
Mof_O 	O 	0.7889	0.9145	0.1351	-0.908
Mof_O 	O 	0.8597	0.9447	0.6192	-0.361
Mof_C 	C 	0.8974	0.7879	0.903	0.052
Mof_C 	C 	0.8352	0.9282	0.787	-0.326
Mof_C 	C 	0.844	0.8803	0.9708	0.19
Mof_H 	H 	0.8478	0.8648	0.034	-0.086
Mof_C 	C 	0.8737	0.8699	0.8865	-0.109
Mof_C 	C 	0.847	0.7731	0.8969	-0.074
Mof_H 	H 	0.8193	0.7925	0.8935	0.042
Mof_C 	C 	0.9126	0.8334	0.8971	-0.084
Mof_C 	C 	0.8291	0.9529	0.6898	0.553
Mof_C 	C 	0.8688	0.894	0.7979	0.123
Mof_H 	H 	0.8893	0.8868	0.7422	-0.018
Mof_C 	C 	0.777	0.9274	0.0472	0.669
Mof_C 	C 	0.9596	0.8471	0.8953	0.052
Mof_C 	C 	0.9764	0.8952	0.8951	-0.026
Mof_H 	H 	0.9563	0.9216	0.8949	0.038
Mof_C 	C 	0.8039	0.9372	0.8683	0.262
Mof_H 	H 	0.779	0.9594	0.8606	-0.12
Mof_C 	C 	0.8085	0.9145	0.9576	-0.31
Mof_O 	O 	0.7487	0.9564	0.0382	-1.137
Mof_O 	O 	0.8441	0.9308	0.6043	-0.133
Mof_Gd	Gd	0.8226	0.5	0.5	1.214
Mof_Gd	Gd	0.3226	0	-0	1.012
Mof_Gd	Gd	0.1774	-2.39164e-33	0.5	1.114
Mof_Gd	Gd	0.6774	0.5	-0	1.095
Mof_Gd	Gd	0.1774	0.5	0.5	1.205
Mof_Gd	Gd	0.6774	0	-0	1.011
Mof_Gd	Gd	0.8226	-2.39164e-33	0.5	1.122
Mof_Gd	Gd	0.3226	0.5	-0	1.095
Mof_Zn	Zn	0.5	0.25	0.429	0.837
Mof_Zn	Zn	0.5	0.25	0.3659	0.829
Mof_Zn	Zn	6.43922e-33	0.75	0.929	0.836
Mof_Zn	Zn	6.32675e-33	0.75	0.8659	0.826
Mof_Zn	Zn	0.5	0.75	0.571	0.835
Mof_Zn	Zn	0.5	0.75	0.6341	0.832
Mof_Zn	Zn	2.81715e-33	0.25	0.071	0.83
Mof_Zn	Zn	2.39033e-34	0.25	0.1341	0.827
Mof_Na	Na	0.75	0.45819	0.75	3.34
Mof_Na	Na	0.25	0.04181	0.75	3.22
Mof_Na	Na	0.25	0.95819	0.25	3.401
Mof_Na	Na	0.75	0.54181	0.25	3.263
Mof_Na	Na	0.25	0.54181	0.25	3.258
Mof_Na	Na	0.75	0.95819	0.25	3.406
Mof_Na	Na	0.75	0.04181	0.75	3.225
Mof_Na	Na	0.25	0.45819	0.75	3.335
Mof_N 	N 	0.5	0.3191	0.4008	-0.358
Mof_N 	N 	1.60567e-33	0.8191	0.9008	-0.367
Mof_N 	N 	0.5	0.1809	0.4008	-0.358
Mof_N 	N 	-7.9609e-33	0.6809	0.9008	-0.367
Mof_N 	N 	0.5	0.8191	0.5992	-0.358
Mof_N 	N 	1.37264e-33	0.3191	0.0992	-0.374
Mof_N 	N 	0.5	0.6809	0.5992	-0.358
Mof_N 	N 	1.37264e-33	0.1809	0.0992	-0.373
Mof_N 	N 	0.5738	0.25	0.406	-0.352
Mof_N 	N 	0.0738	0.75	0.906	-0.351
Mof_N 	N 	0.4262	0.25	0.406	-0.352
Mof_N 	N 	0.9262	0.75	0.906	-0.344
Mof_N 	N 	0.4262	0.75	0.594	-0.352
Mof_N 	N 	0.9262	0.25	0.094	-0.35
Mof_N 	N 	0.5738	0.75	0.594	-0.352
Mof_N 	N 	0.0738	0.25	0.094	-0.357
_end
