data_functionalizedCrystal
_audit_creation_method	'EQeq! by Chris Wilmer'
_symmetry_space_group_name_H-M	'P1'
_symmetry_Int_Tables_number	1
_symmetry_cell_setting	triclinic
loop_
_symmetry_equiv_pos_as_xyz
  x,y,z
_cell_length_a	8.0112
_cell_length_b	19.4392
_cell_length_c	8.9648
_cell_angle_alpha	90
_cell_angle_beta	93.382
_cell_angle_gamma	90
loop_
_atom_site_label
_atom_site_type_symbol
_atom_site_fract_x
_atom_site_fract_y
_atom_site_fract_z
_atom_site_charge
Mof_C 	C 	0.6908	0.99914	0.7855	0.166
Mof_C 	C 	0.8093	0.99551	0.5714	0.106
Mof_C 	C 	0.4237	0.3696	0.6487	0.12
Mof_C 	C 	0.1514	0.36417	0.638	0.099
Mof_C 	C 	0.0776	0.12564	0.8308	0.072
Mof_C 	C 	0.3475	0.13674	0.8654	0.104
Mof_N 	N 	0.8527	0.99803	0.8128	-0.142
Mof_N 	N 	0.9284	0.99556	0.6756	-0.076
Mof_N 	N 	0.6576	0.99774	0.6345	-0.105
Mof_N 	N 	0.4976	0.99951	0.569	-0.018
Mof_N 	N 	0.1334	0.07309	0.9088	-0.144
Mof_N 	N 	0.307	0.07955	0.9294	-0.083
Mof_N 	N 	0.2078	0.16702	0.8004	-0.095
Mof_N 	N 	0.1834	0.23147	0.7358	-0.04
Mof_N 	N 	0.3654	0.42559	0.5853	-0.166
Mof_N 	N 	0.1906	0.42259	0.5796	-0.092
Mof_N 	N 	0.2939	0.32858	0.6814	-0.102
Mof_N 	N 	0.3168	0.26386	0.7442	-0.034
Mof_H 	H 	0.612	0.001	0.856	-0.006
Mof_H 	H 	0.83	0.9942	0.472	0.045
Mof_H 	H 	0.534	0.358	0.668	0.014
Mof_H 	H 	0.043	0.3468	0.65	0.022
Mof_H 	H 	0.973	0.1364	0.802	0.047
Mof_H 	H 	0.46	0.1542	0.86	0.034
Mof_C 	C 	0.8092	0.49914	0.7145	0.122
Mof_C 	C 	0.6907	0.49551	0.9286	0.168
Mof_C 	C 	0.0763	0.8696	0.8513	0.08
Mof_C 	C 	0.3486	0.86417	0.862	0.106
Mof_C 	C 	0.4224	0.62564	0.6692	0.124
Mof_C 	C 	0.1525	0.63674	0.6346	0.101
Mof_N 	N 	0.6473	0.49803	0.6872	-0.165
Mof_N 	N 	0.5716	0.49556	0.8244	-0.101
Mof_N 	N 	0.8424	0.49774	0.8655	-0.1
Mof_N 	N 	0.0024	0.49951	0.931	-0.035
Mof_N 	N 	0.3666	0.57309	0.5912	-0.166
Mof_N 	N 	0.193	0.57955	0.5706	-0.092
Mof_N 	N 	0.2922	0.66702	0.6996	-0.103
Mof_N 	N 	0.3166	0.73147	0.7642	-0.033
Mof_N 	N 	0.1346	0.92559	0.9147	-0.135
Mof_N 	N 	0.3094	0.92259	0.9204	-0.074
Mof_N 	N 	0.2061	0.82858	0.8186	-0.095
Mof_N 	N 	0.1832	0.76386	0.7558	-0.038
Mof_H 	H 	0.888	0.501	0.644	0.027
Mof_H 	H 	0.67	0.4942	0.028	-0.011
Mof_H 	H 	0.966	0.858	0.832	0.048
Mof_H 	H 	0.457	0.8468	0.85	0.035
Mof_H 	H 	0.527	0.6364	0.698	0.012
Mof_H 	H 	0.04	0.6542	0.64	0.023
Mof_C 	C 	0.3092	0.00086	0.2145	0.059
Mof_C 	C 	0.1907	0.00449	0.4286	0.094
Mof_C 	C 	0.5763	0.6304	0.3513	0.121
Mof_C 	C 	0.8486	0.63583	0.362	0.102
Mof_C 	C 	0.9224	0.87436	0.1692	0.174
Mof_C 	C 	0.6525	0.86326	0.1346	0.099
Mof_N 	N 	0.1473	0.00197	0.1872	-0.158
Mof_N 	N 	0.0716	0.00444	0.3244	-0.106
Mof_N 	N 	0.3424	0.00226	0.3655	-0.096
Mof_N 	N 	0.5024	0.00049	0.431	-0.053
Mof_N 	N 	0.8666	0.92691	0.0912	-0.157
Mof_N 	N 	0.693	0.92045	0.0706	-0.09
Mof_N 	N 	0.7922	0.83298	0.1996	-0.111
Mof_N 	N 	0.8166	0.76853	0.2642	-0.033
Mof_N 	N 	0.6346	0.57441	0.4147	-0.166
Mof_N 	N 	0.8094	0.57741	0.4204	-0.084
Mof_N 	N 	0.7061	0.67142	0.3186	-0.103
Mof_N 	N 	0.6832	0.73614	0.2558	-0.039
Mof_H 	H 	0.388	0.999	0.144	0.055
Mof_H 	H 	0.17	0.0058	0.528	0.02
Mof_H 	H 	0.466	0.642	0.332	0.008
Mof_H 	H 	0.957	0.6532	0.35	0.035
Mof_H 	H 	0.027	0.8636	0.198	-0.026
Mof_H 	H 	0.54	0.8458	0.14	0.025
Mof_C 	C 	0.1908	0.50086	0.2855	0.114
Mof_C 	C 	0.3093	0.50449	0.0714	0.032
Mof_C 	C 	0.9237	0.1304	0.1487	0.166
Mof_C 	C 	0.6514	0.13583	0.138	0.096
Mof_C 	C 	0.5776	0.37436	0.3308	0.123
Mof_C 	C 	0.8475	0.36326	0.3654	0.103
Mof_N 	N 	0.3527	0.50197	0.3128	-0.166
Mof_N 	N 	0.4284	0.50444	0.1756	-0.084
Mof_N 	N 	0.1576	0.50226	0.1345	-0.104
Mof_N 	N 	0.9976	0.50049	0.069	-0.034
Mof_N 	N 	0.6334	0.42691	0.4088	-0.167
Mof_N 	N 	0.807	0.42045	0.4294	-0.085
Mof_N 	N 	0.7078	0.33298	0.3004	-0.104
Mof_N 	N 	0.6834	0.26853	0.2358	-0.04
Mof_N 	N 	0.8654	0.07441	0.0853	-0.165
Mof_N 	N 	0.6906	0.07741	0.0796	-0.098
Mof_N 	N 	0.7939	0.17142	0.1814	-0.111
Mof_N 	N 	0.8168	0.23614	0.2442	-0.034
Mof_H 	H 	0.112	0.499	0.356	0.013
Mof_H 	H 	0.33	0.5058	0.972	0.077
Mof_H 	H 	0.034	0.142	0.168	-0.025
Mof_H 	H 	0.543	0.1532	0.15	0.022
Mof_H 	H 	0.473	0.3636	0.302	0.004
Mof_H 	H 	0.96	0.3458	0.36	0.035
Mof_Fe	Fe	-0	0	-0	0.659
Mof_Fe	Fe	0.5	0.5	0.5	0.779
_end
