data_functionalizedCrystal
_audit_creation_method	'EQeq! by Chris Wilmer'
_symmetry_space_group_name_H-M	'P1'
_symmetry_Int_Tables_number	1
_symmetry_cell_setting	triclinic
loop_
_symmetry_equiv_pos_as_xyz
  x,y,z
_cell_length_a	15.2109
_cell_length_b	11.7281
_cell_length_c	14.1821
_cell_angle_alpha	90
_cell_angle_beta	90
_cell_angle_gamma	90
loop_
_atom_site_label
_atom_site_type_symbol
_atom_site_fract_x
_atom_site_fract_y
_atom_site_fract_z
_atom_site_charge
Mof_P 	P 	0.16811	0.8778	0.59101	0.423
Mof_O 	O 	0.08797	0.95367	0.57837	-0.372
Mof_O 	O 	0.22222	0.88039	0.4996	-0.381
Mof_O 	O 	0.2218	0.90344	0.67659	-0.186
Mof_H 	H 	0.135	0.774	0.597	-0.042
Mof_P 	P 	0.16811	0.3778	0.09101	0.395
Mof_O 	O 	0.08797	0.45367	0.07837	-0.445
Mof_O 	O 	0.22222	0.38039	0.9996	-0.369
Mof_O 	O 	0.2218	0.40344	0.17659	-0.238
Mof_H 	H 	0.135	0.274	0.097	-0.065
Mof_P 	P 	0.66811	0.8778	0.09101	0.396
Mof_O 	O 	0.58797	0.95367	0.07837	-0.342
Mof_O 	O 	0.72222	0.88039	0.9996	-0.336
Mof_O 	O 	0.7218	0.90344	0.17659	-0.169
Mof_H 	H 	0.635	0.774	0.097	-0.032
Mof_P 	P 	0.66811	0.3778	0.59101	0.426
Mof_O 	O 	0.58797	0.45367	0.57837	-0.394
Mof_O 	O 	0.72222	0.38039	0.4996	-0.389
Mof_O 	O 	0.7218	0.40344	0.67659	-0.208
Mof_H 	H 	0.635	0.274	0.597	-0.038
Mof_P 	P 	0.83189	0.1222	0.59101	0.426
Mof_O 	O 	0.91203	0.04633	0.57837	-0.388
Mof_O 	O 	0.77778	0.11961	0.4996	-0.413
Mof_O 	O 	0.7782	0.09656	0.67659	-0.244
Mof_H 	H 	0.865	0.226	0.597	-0.014
Mof_P 	P 	0.83189	0.6222	0.09101	0.395
Mof_O 	O 	0.91203	0.54633	0.07837	-0.352
Mof_O 	O 	0.77778	0.61961	0.9996	-0.358
Mof_O 	O 	0.7782	0.59656	0.17659	-0.207
Mof_H 	H 	0.865	0.726	0.097	-0.01
Mof_P 	P 	0.33189	0.1222	0.09101	0.395
Mof_O 	O 	0.41203	0.04633	0.07837	-0.456
Mof_O 	O 	0.27778	0.11961	0.9996	-0.392
Mof_O 	O 	0.2782	0.09656	0.17659	-0.276
Mof_H 	H 	0.365	0.226	0.097	-0.043
Mof_P 	P 	0.33189	0.6222	0.59101	0.425
Mof_O 	O 	0.41203	0.54633	0.57837	-0.398
Mof_O 	O 	0.27778	0.61961	0.4996	-0.405
Mof_O 	O 	0.2782	0.59656	0.67659	-0.227
Mof_H 	H 	0.365	0.726	0.597	-0.021
Mof_P 	P 	0.41811	0.3722	0.84101	0.425
Mof_O 	O 	0.33797	0.29633	0.82837	-0.409
Mof_O 	O 	0.47222	0.36961	0.7496	-0.406
Mof_O 	O 	0.4718	0.34656	0.92659	-0.215
Mof_H 	H 	0.385	0.476	0.847	-0.027
Mof_P 	P 	0.41811	0.8722	0.34101	0.43
Mof_O 	O 	0.33797	0.79633	0.32837	-0.389
Mof_O 	O 	0.47222	0.86961	0.2496	-0.356
Mof_O 	O 	0.4718	0.84656	0.42659	-0.189
Mof_H 	H 	0.385	0.976	0.347	0.01
Mof_P 	P 	0.91811	0.3722	0.34101	0.427
Mof_O 	O 	0.83797	0.29633	0.32837	-0.399
Mof_O 	O 	0.97222	0.36961	0.2496	-0.343
Mof_O 	O 	0.9718	0.34656	0.42659	-0.178
Mof_H 	H 	0.885	0.476	0.347	-0.005
Mof_P 	P 	0.91811	0.8722	0.84101	0.432
Mof_O 	O 	0.83797	0.79633	0.82837	-0.367
Mof_O 	O 	0.97222	0.86961	0.7496	-0.287
Mof_O 	O 	0.9718	0.84656	0.92659	-0.128
Mof_H 	H 	0.885	0.976	0.847	0.037
Mof_P 	P 	0.08189	0.1278	0.84101	0.418
Mof_O 	O 	0.16203	0.20367	0.82837	-0.417
Mof_O 	O 	0.02778	0.13039	0.7496	-0.476
Mof_O 	O 	0.0282	0.15344	0.92659	-0.285
Mof_H 	H 	0.115	0.024	0.847	-0.087
Mof_P 	P 	0.08189	0.6278	0.34101	0.424
Mof_O 	O 	0.16203	0.70367	0.32837	-0.398
Mof_O 	O 	0.02778	0.63039	0.2496	-0.441
Mof_O 	O 	0.0282	0.65344	0.42659	-0.261
Mof_H 	H 	0.115	0.524	0.347	-0.055
Mof_P 	P 	0.58189	0.1278	0.34101	0.421
Mof_O 	O 	0.66203	0.20367	0.32837	-0.408
Mof_O 	O 	0.52778	0.13039	0.2496	-0.43
Mof_O 	O 	0.5282	0.15344	0.42659	-0.252
Mof_H 	H 	0.615	0.024	0.347	-0.069
Mof_P 	P 	0.58189	0.6278	0.84101	0.427
Mof_O 	O 	0.66203	0.70367	0.82837	-0.376
Mof_O 	O 	0.52778	0.63039	0.7496	-0.384
Mof_O 	O 	0.5282	0.65344	0.92659	-0.198
Mof_H 	H 	0.615	0.524	0.847	-0.027
Mof_Zn	Zn	7.32884e-33	9.97763e-33	0.66938	1.161
Mof_Zn	Zn	5.9212e-34	0.5	0.16938	1.197
Mof_Zn	Zn	0.5	0	0.16938	1.197
Mof_Zn	Zn	0.5	0.5	0.66938	1.236
Mof_Zn	Zn	0.25	0.25	0.91938	1.235
Mof_Zn	Zn	0.25	0.75	0.41938	1.237
Mof_Zn	Zn	0.75	0.25	0.41938	1.235
Mof_Zn	Zn	0.75	0.75	0.91938	1.242
_end
