data_functionalizedCrystal
_audit_creation_method	'EQeq! by Chris Wilmer'
_symmetry_space_group_name_H-M	'P1'
_symmetry_Int_Tables_number	1
_symmetry_cell_setting	triclinic
loop_
_symmetry_equiv_pos_as_xyz
  x,y,z
_cell_length_a	12.796
_cell_length_b	25.625
_cell_length_c	16.112
_cell_angle_alpha	90
_cell_angle_beta	119.955
_cell_angle_gamma	90
loop_
_atom_site_label
_atom_site_type_symbol
_atom_site_fract_x
_atom_site_fract_y
_atom_site_fract_z
_atom_site_charge
Mof_Cu	Cu	0.4399	0.25592	0.2059	0.842
Mof_N 	N 	0.0849	0.0541	0.4636	-0.234
Mof_N 	N 	0.383	0.2143	0.2849	-0.244
Mof_N 	N 	0.5027	0.2012	0.6335	-0.245
Mof_N 	N 	0.89	0.0565	0.519	-0.234
Mof_N 	N 	0.6198	0.258	0.8051	-0.239
Mof_N 	N 	0.257	0.2659	0.1055	-0.235
Mof_C 	C 	0.21	0.056	0.5096	0.056
Mof_H 	H 	0.254	0.0357	0.5639	-0.022
Mof_C 	C 	0.269	0.0864	0.478	-0.128
Mof_H 	H 	0.3532	0.0863	0.5106	0.07
Mof_C 	C 	0.206	0.1176	0.3987	0.035
Mof_C 	C 	0.083	0.1178	0.35	-0.102
Mof_H 	H 	0.0379	0.1388	0.2969	0.048
Mof_C 	C 	0.027	0.084	0.386	-0.008
Mof_H 	H 	0.9433	0.0827	0.3535	0.025
Mof_C 	C 	0.401	0.1627	0.2951	0.079
Mof_H 	H 	0.4497	0.1475	0.2736	-0.031
Mof_C 	C 	0.352	0.1306	0.3358	-0.153
Mof_H 	H 	0.3719	0.0954	0.3461	0.074
Mof_C 	C 	0.272	0.1524	0.3609	0.071
Mof_C 	C 	0.248	0.2042	0.348	-0.158
Mof_H 	H 	0.1961	0.2197	0.3656	0.079
Mof_C 	C 	0.305	0.2336	0.3087	0.085
Mof_H 	H 	0.2865	0.2689	0.2982	-0.028
Mof_C 	C 	0.542	0.153	0.666	0.083
Mof_H 	H 	0.5189	0.1385	0.7068	-0.034
Mof_C 	C 	0.614	0.1228	0.643	-0.151
Mof_H 	H 	0.6388	0.0897	0.6691	0.074
Mof_C 	C 	0.646	0.1435	0.58	0.067
Mof_C 	C 	0.599	0.1911	0.541	-0.153
Mof_H 	H 	0.6142	0.2048	0.4944	0.082
Mof_C 	C 	0.531	0.2185	0.568	0.094
Mof_H 	H 	0.5017	0.251	0.5403	-0.027
Mof_C 	C 	0.903	0.0586	0.604	0.09
Mof_H 	H 	0.9666	0.04	0.6525	-0.028
Mof_C 	C 	0.829	0.0865	0.629	-0.144
Mof_H 	H 	0.8434	0.0867	0.6917	0.077
Mof_C 	C 	0.731	0.1144	0.5551	0.056
Mof_C 	C 	0.719	0.1113	0.467	-0.146
Mof_H 	H 	0.6561	0.129	0.416	0.076
Mof_C 	C 	0.8	0.0814	0.451	0.091
Mof_H 	H 	0.7884	0.0796	0.3896	-0.026
Mof_C 	C 	0.681	0.2361	0.891	0.09
Mof_H 	H 	0.6343	0.2188	0.9119	-0.026
Mof_C 	C 	0.804	0.2357	0.953	-0.154
Mof_H 	H 	0.84	0.2147	0.0074	0.081
Mof_C 	C 	0.87	0.268	0.93	0.094
Mof_C 	C 	0.812	0.295	0.843	-0.151
Mof_H 	H 	0.856	0.3161	0.8246	0.087
Mof_C 	C 	0.687	0.2904	0.783	0.074
Mof_H 	H 	0.6487	0.3099	0.7271	-0.024
Mof_C 	C 	0.195	0.309	0.099	0.077
Mof_H 	H 	0.237	0.3385	0.133	-0.025
Mof_C 	C 	0.07	0.3115	0.044	-0.148
Mof_H 	H 	0.03	0.3419	0.0428	0.066
Mof_C 	C 	0.008	0.269	0.992	0.035
Mof_C 	C 	0.067	0.2251	0.993	-0.124
Mof_H 	H 	0.03	0.1974	0.9515	0.06
Mof_C 	C 	0.192	0.2249	0.063	0.06
Mof_H 	H 	0.2304	0.1926	0.0805	-0.026
Mof_Cu	Cu	0.5601	0.75592	0.2941	0.844
Mof_N 	N 	0.9151	0.5541	0.0364	-0.261
Mof_N 	N 	0.617	0.7143	0.2151	-0.239
Mof_N 	N 	0.4973	0.7012	0.8665	-0.238
Mof_N 	N 	0.11	0.5565	0.981	-0.236
Mof_N 	N 	0.3802	0.758	0.6949	-0.229
Mof_N 	N 	0.743	0.7659	0.3945	-0.249
Mof_C 	C 	0.79	0.556	0.9904	0.122
Mof_H 	H 	0.746	0.5357	0.9361	-0.035
Mof_C 	C 	0.731	0.5864	0.022	-0.214
Mof_H 	H 	0.6468	0.5863	0.9894	0.107
Mof_C 	C 	0.794	0.6176	0.1013	0.107
Mof_C 	C 	0.917	0.6178	0.15	-0.205
Mof_H 	H 	0.9621	0.6388	0.2031	0.106
Mof_C 	C 	0.973	0.584	0.114	0.165
Mof_H 	H 	0.0567	0.5827	0.1465	-0.079
Mof_C 	C 	0.599	0.6627	0.2049	0.072
Mof_H 	H 	0.5503	0.6475	0.2264	-0.025
Mof_C 	C 	0.648	0.6306	0.1642	-0.134
Mof_H 	H 	0.6281	0.5954	0.1539	0.071
Mof_C 	C 	0.728	0.6524	0.1391	0.042
Mof_C 	C 	0.752	0.7042	0.152	-0.138
Mof_H 	H 	0.8039	0.7197	0.1344	0.077
Mof_C 	C 	0.695	0.7336	0.1913	0.077
Mof_H 	H 	0.7135	0.7689	0.2018	-0.022
Mof_C 	C 	0.458	0.653	0.834	0.074
Mof_H 	H 	0.4811	0.6385	0.7932	-0.031
Mof_C 	C 	0.386	0.6228	0.857	-0.139
Mof_H 	H 	0.3612	0.5897	0.8309	0.07
Mof_C 	C 	0.354	0.6435	0.92	0.046
Mof_C 	C 	0.401	0.6911	0.959	-0.119
Mof_H 	H 	0.3858	0.7048	0.0056	0.061
Mof_C 	C 	0.469	0.7185	0.932	0.075
Mof_H 	H 	0.4983	0.751	0.9597	-0.017
Mof_C 	C 	0.097	0.5586	0.896	0.093
Mof_H 	H 	0.0334	0.54	0.8475	-0.041
Mof_C 	C 	0.171	0.5865	0.871	-0.157
Mof_H 	H 	0.1566	0.5867	0.8083	0.073
Mof_C 	C 	0.269	0.6144	0.9449	0.077
Mof_C 	C 	0.281	0.6113	0.033	-0.167
Mof_H 	H 	0.3439	0.629	0.084	0.082
Mof_C 	C 	0.2	0.5814	0.049	0.082
Mof_H 	H 	0.2116	0.5796	0.1104	-0.027
Mof_C 	C 	0.319	0.7361	0.609	0.064
Mof_H 	H 	0.3657	0.7188	0.5881	-0.021
Mof_C 	C 	0.196	0.7357	0.547	-0.114
Mof_H 	H 	0.16	0.7147	0.4926	0.055
Mof_C 	C 	0.13	0.768	0.57	-0.01
Mof_C 	C 	0.188	0.795	0.657	-0.1
Mof_H 	H 	0.144	0.8161	0.6754	0.051
Mof_C 	C 	0.313	0.7904	0.717	0.044
Mof_H 	H 	0.3513	0.8099	0.7729	-0.014
Mof_C 	C 	0.805	0.809	0.401	0.111
Mof_H 	H 	0.763	0.8385	0.367	-0.032
Mof_C 	C 	0.93	0.8115	0.456	-0.196
Mof_H 	H 	0.97	0.8419	0.4572	0.107
Mof_C 	C 	0.992	0.769	0.508	0.14
Mof_C 	C 	0.933	0.7251	0.507	-0.196
Mof_H 	H 	0.97	0.6974	0.5485	0.104
Mof_C 	C 	0.808	0.7249	0.437	0.11
Mof_H 	H 	0.7696	0.6926	0.4195	-0.035
Mof_Cu	Cu	0.5601	0.74408	0.7941	0.844
Mof_N 	N 	0.9151	0.9459	0.5364	-0.243
Mof_N 	N 	0.617	0.7857	0.7151	-0.241
Mof_N 	N 	0.4973	0.7988	0.3665	-0.244
Mof_N 	N 	0.11	0.9435	0.481	-0.238
Mof_N 	N 	0.3802	0.742	0.1949	-0.233
Mof_N 	N 	0.743	0.7341	0.8945	-0.248
Mof_C 	C 	0.79	0.944	0.4904	0.083
Mof_H 	H 	0.746	0.9643	0.4361	-0.017
Mof_C 	C 	0.731	0.9136	0.522	-0.159
Mof_H 	H 	0.6468	0.9137	0.4894	0.085
Mof_C 	C 	0.794	0.8824	0.6013	0.082
Mof_C 	C 	0.917	0.8822	0.65	-0.183
Mof_H 	H 	0.9621	0.8612	0.7031	0.1
Mof_C 	C 	0.973	0.916	0.614	0.152
Mof_H 	H 	0.0567	0.9173	0.6465	-0.068
Mof_C 	C 	0.599	0.8373	0.7049	0.078
Mof_H 	H 	0.5503	0.8525	0.7264	-0.025
Mof_C 	C 	0.648	0.8694	0.6642	-0.141
Mof_H 	H 	0.6281	0.9046	0.6539	0.079
Mof_C 	C 	0.728	0.8476	0.6391	0.058
Mof_C 	C 	0.752	0.7958	0.652	-0.146
Mof_H 	H 	0.8039	0.7803	0.6344	0.081
Mof_C 	C 	0.695	0.7664	0.6913	0.083
Mof_H 	H 	0.7135	0.7311	0.7018	-0.023
Mof_C 	C 	0.458	0.847	0.334	0.082
Mof_H 	H 	0.4811	0.8615	0.2932	-0.033
Mof_C 	C 	0.386	0.8772	0.357	-0.154
Mof_H 	H 	0.3612	0.9103	0.3309	0.077
Mof_C 	C 	0.354	0.8565	0.42	0.067
Mof_C 	C 	0.401	0.8089	0.459	-0.156
Mof_H 	H 	0.3858	0.7952	0.5056	0.081
Mof_C 	C 	0.469	0.7815	0.432	0.093
Mof_H 	H 	0.4983	0.749	0.4597	-0.027
Mof_C 	C 	0.097	0.9414	0.396	0.087
Mof_H 	H 	0.0334	0.96	0.3475	-0.035
Mof_C 	C 	0.171	0.9135	0.371	-0.145
Mof_H 	H 	0.1566	0.9133	0.3083	0.07
Mof_C 	C 	0.269	0.8856	0.4449	0.053
Mof_C 	C 	0.281	0.8887	0.533	-0.144
Mof_H 	H 	0.3439	0.871	0.584	0.077
Mof_C 	C 	0.2	0.9186	0.549	0.087
Mof_H 	H 	0.2116	0.9204	0.6104	-0.024
Mof_C 	C 	0.319	0.7639	0.109	0.081
Mof_H 	H 	0.3657	0.7812	0.0881	-0.028
Mof_C 	C 	0.196	0.7643	0.047	-0.148
Mof_H 	H 	0.16	0.7853	0.9926	0.077
Mof_C 	C 	0.13	0.732	0.07	0.004
Mof_C 	C 	0.188	0.705	0.157	-0.11
Mof_H 	H 	0.144	0.6839	0.1754	0.053
Mof_C 	C 	0.313	0.7096	0.217	0.049
Mof_H 	H 	0.3513	0.6901	0.2729	-0.018
Mof_C 	C 	0.805	0.691	0.901	0.107
Mof_H 	H 	0.763	0.6615	0.867	-0.031
Mof_C 	C 	0.93	0.6885	0.956	-0.181
Mof_H 	H 	0.97	0.6581	0.9572	0.104
Mof_C 	C 	0.992	0.731	0.008	0.127
Mof_C 	C 	0.933	0.7749	0.007	-0.202
Mof_H 	H 	0.97	0.8026	0.0485	0.106
Mof_C 	C 	0.808	0.7751	0.937	0.119
Mof_H 	H 	0.7696	0.8074	0.9195	-0.035
Mof_Cu	Cu	0.4399	0.24408	0.7059	0.844
Mof_N 	N 	0.0849	0.4459	0.9636	-0.215
Mof_N 	N 	0.383	0.2857	0.7849	-0.245
Mof_N 	N 	0.5027	0.2988	0.1335	-0.248
Mof_N 	N 	0.89	0.4435	0.019	-0.234
Mof_N 	N 	0.6198	0.242	0.3051	-0.242
Mof_N 	N 	0.257	0.2341	0.6055	-0.234
Mof_C 	C 	0.21	0.444	0.0096	0.004
Mof_H 	H 	0.254	0.4643	0.0639	-0.001
Mof_C 	C 	0.269	0.4136	0.978	-0.06
Mof_H 	H 	0.3532	0.4137	0.0106	0.042
Mof_C 	C 	0.206	0.3824	0.8987	0.008
Mof_C 	C 	0.083	0.3822	0.85	-0.082
Mof_H 	H 	0.0379	0.3612	0.7969	0.044
Mof_C 	C 	0.027	0.416	0.886	-0.01
Mof_H 	H 	0.9433	0.4173	0.8535	0.027
Mof_C 	C 	0.401	0.3373	0.7951	0.086
Mof_H 	H 	0.4497	0.3525	0.7736	-0.03
Mof_C 	C 	0.352	0.3694	0.8358	-0.161
Mof_H 	H 	0.3719	0.4046	0.8461	0.083
Mof_C 	C 	0.272	0.3476	0.8609	0.088
Mof_C 	C 	0.248	0.2958	0.848	-0.167
Mof_H 	H 	0.1961	0.2803	0.8656	0.084
Mof_C 	C 	0.305	0.2664	0.8087	0.092
Mof_H 	H 	0.2865	0.2311	0.7982	-0.03
Mof_C 	C 	0.542	0.347	0.166	0.09
Mof_H 	H 	0.5189	0.3615	0.2068	-0.036
Mof_C 	C 	0.614	0.3772	0.143	-0.164
Mof_H 	H 	0.6388	0.4103	0.1691	0.081
Mof_C 	C 	0.646	0.3565	0.08	0.085
Mof_C 	C 	0.599	0.3089	0.041	-0.186
Mof_H 	H 	0.6142	0.2952	0.9944	0.099
Mof_C 	C 	0.531	0.2815	0.068	0.11
Mof_H 	H 	0.5017	0.249	0.0403	-0.036
Mof_C 	C 	0.903	0.4414	0.104	0.085
Mof_H 	H 	0.9666	0.46	0.1525	-0.022
Mof_C 	C 	0.829	0.4135	0.129	-0.133
Mof_H 	H 	0.8434	0.4133	0.1917	0.075
Mof_C 	C 	0.731	0.3856	0.0551	0.037
Mof_C 	C 	0.719	0.3887	0.967	-0.127
Mof_H 	H 	0.6561	0.371	0.916	0.071
Mof_C 	C 	0.8	0.4186	0.951	0.093
Mof_H 	H 	0.7884	0.4204	0.8896	-0.023
Mof_C 	C 	0.681	0.2639	0.391	0.105
Mof_H 	H 	0.6343	0.2812	0.4119	-0.032
Mof_C 	C 	0.804	0.2643	0.453	-0.183
Mof_H 	H 	0.84	0.2853	0.5074	0.098
Mof_C 	C 	0.87	0.232	0.43	0.115
Mof_C 	C 	0.812	0.205	0.343	-0.164
Mof_H 	H 	0.856	0.1839	0.3246	0.091
Mof_C 	C 	0.687	0.2096	0.283	0.081
Mof_H 	H 	0.6487	0.1901	0.2271	-0.028
Mof_C 	C 	0.195	0.191	0.599	0.068
Mof_H 	H 	0.237	0.1615	0.633	-0.022
Mof_C 	C 	0.07	0.1885	0.544	-0.122
Mof_H 	H 	0.03	0.1581	0.5428	0.06
Mof_C 	C 	0.008	0.231	0.492	0.01
Mof_C 	C 	0.067	0.2749	0.493	-0.128
Mof_H 	H 	0.03	0.3026	0.4515	0.059
Mof_C 	C 	0.192	0.2751	0.563	0.071
Mof_H 	H 	0.2304	0.3074	0.5805	-0.026
Mof_Cu	Cu	3.53917e-33	5.51487e-33	0.5	0.818
Mof_Cu	Cu	-0	0.5	-0	0.822
_end
