data_functionalizedCrystal
_audit_creation_method	'EQeq! by Chris Wilmer'
_symmetry_space_group_name_H-M	'P1'
_symmetry_Int_Tables_number	1
_symmetry_cell_setting	triclinic
loop_
_symmetry_equiv_pos_as_xyz
  x,y,z
_cell_length_a	34.1837
_cell_length_b	34.1837
_cell_length_c	34.1837
_cell_angle_alpha	90
_cell_angle_beta	90
_cell_angle_gamma	90
loop_
_atom_site_label
_atom_site_type_symbol
_atom_site_fract_x
_atom_site_fract_y
_atom_site_fract_z
_atom_site_charge
Mof_Nd	Nd	0.63051	0.54254	0.70156	2.705
Mof_Nd	Nd	0.5476	0.6193	0.70766	2.431
Mof_Ge	Ge	0.71648	0.59943	0.71519	1.301
Mof_Ge	Ge	0.63904	0.6388	0.75445	1.308
Mof_Ge	Ge	0.54117	0.52872	0.64982	1.307
Mof_Ge	Ge	0.49561	0.60442	0.61853	1.364
Mof_C 	C 	0.752	0.5694	0.7479	-0.283
Mof_C 	C 	0.7338	0.5544	0.7853	-0.137
Mof_C 	C 	0.6928	0.5376	0.7812	0.55
Mof_C 	C 	0.6363	0.6257	0.8101	-0.286
Mof_C 	C 	0.6054	0.648	0.8295	-0.065
Mof_C 	C 	0.5684	0.6499	0.8067	0.393
Mof_C 	C 	0.5097	0.4954	0.6825	-0.297
Mof_C 	C 	0.5288	0.4559	0.6939	-0.141
Mof_C 	C 	0.5653	0.4618	0.7163	0.503
Mof_C 	C 	0.4404	0.6092	0.6253	-0.324
Mof_C 	C 	0.4249	0.5839	0.6578	-0.057
Mof_C 	C 	0.45	0.5845	0.6939	0.384
Mof_O 	O 	0.6901	0.6374	0.7401	-0.82
Mof_O 	O 	0.5669	0.5041	0.6124	-0.815
Mof_O 	O 	0.5122	0.555	0.6143	-0.836
Mof_O 	O 	0.7431	0.6381	0.6901	-0.802
Mof_O 	O 	0.619	0.612	0.715	-0.915
Mof_O 	O 	0.6889	0.5751	0.6798	-0.983
Mof_O 	O 	0.5706	0.5635	0.6725	-0.994
Mof_O 	O 	0.642	0.5279	0.6349	-1.014
Mof_O 	O 	0.6705	0.5553	0.7578	-0.725
Mof_O 	O 	0.6831	0.5093	0.8001	-0.679
Mof_O 	O 	0.5734	0.6484	0.7688	-0.628
Mof_O 	O 	0.5371	0.6542	0.8211	-0.32
Mof_O 	O 	0.5913	0.4853	0.7029	-0.71
Mof_O 	O 	0.572	0.4415	0.7466	-0.666
Mof_O 	O 	0.4869	0.5843	0.6895	-0.615
Mof_O 	O 	0.4362	0.5841	0.7267	-0.306
Mof_Nd	Nd	0.13051	0.04254	0.20156	2.706
Mof_Nd	Nd	0.0476	0.1193	0.20766	2.432
Mof_Ge	Ge	0.21648	0.09943	0.21519	1.302
Mof_Ge	Ge	0.13904	0.1388	0.25445	1.309
Mof_Ge	Ge	0.04117	0.02872	0.14982	1.308
Mof_Ge	Ge	0.99561	0.10442	0.11853	1.364
Mof_C 	C 	0.252	0.0694	0.2479	-0.282
Mof_C 	C 	0.2338	0.0544	0.2853	-0.136
Mof_C 	C 	0.1928	0.0376	0.2812	0.551
Mof_C 	C 	0.1363	0.1257	0.3101	-0.285
Mof_C 	C 	0.1054	0.148	0.3295	-0.064
Mof_C 	C 	0.0684	0.1499	0.3067	0.394
Mof_C 	C 	0.0097	0.9954	0.1825	-0.296
Mof_C 	C 	0.0288	0.9559	0.1939	-0.14
Mof_C 	C 	0.0653	0.9618	0.2163	0.504
Mof_C 	C 	0.9404	0.1092	0.1253	-0.323
Mof_C 	C 	0.9249	0.0839	0.1578	-0.056
Mof_C 	C 	0.95	0.0845	0.1939	0.385
Mof_O 	O 	0.1901	0.1374	0.2401	-0.819
Mof_O 	O 	0.0669	0.0041	0.1124	-0.814
Mof_O 	O 	0.0122	0.055	0.1143	-0.835
Mof_O 	O 	0.2431	0.1381	0.1901	-0.801
Mof_O 	O 	0.119	0.112	0.215	-0.914
Mof_O 	O 	0.1889	0.0751	0.1798	-0.982
Mof_O 	O 	0.0706	0.0635	0.1725	-0.993
Mof_O 	O 	0.142	0.0279	0.1349	-1.013
Mof_O 	O 	0.1705	0.0553	0.2578	-0.724
Mof_O 	O 	0.1831	0.0093	0.3001	-0.678
Mof_O 	O 	0.0734	0.1484	0.2688	-0.628
Mof_O 	O 	0.0371	0.1542	0.3211	-0.32
Mof_O 	O 	0.0913	0.9853	0.2029	-0.71
Mof_O 	O 	0.072	0.9415	0.2466	-0.666
Mof_O 	O 	0.9869	0.0843	0.1895	-0.616
Mof_O 	O 	0.9362	0.0841	0.2267	-0.307
Mof_Nd	Nd	0.86949	0.45746	0.20156	2.706
Mof_Nd	Nd	0.9524	0.3807	0.20766	2.432
Mof_Ge	Ge	0.78352	0.40057	0.21519	1.302
Mof_Ge	Ge	0.86096	0.3612	0.25445	1.309
Mof_Ge	Ge	0.95883	0.47128	0.14982	1.308
Mof_Ge	Ge	0.00439	0.39558	0.11853	1.364
Mof_C 	C 	0.748	0.4306	0.2479	-0.282
Mof_C 	C 	0.7662	0.4456	0.2853	-0.136
Mof_C 	C 	0.8072	0.4624	0.2812	0.551
Mof_C 	C 	0.8637	0.3743	0.3101	-0.285
Mof_C 	C 	0.8946	0.352	0.3295	-0.064
Mof_C 	C 	0.9316	0.3501	0.3067	0.394
Mof_C 	C 	0.9903	0.5046	0.1825	-0.296
Mof_C 	C 	0.9712	0.5441	0.1939	-0.14
Mof_C 	C 	0.9347	0.5382	0.2163	0.504
Mof_C 	C 	0.0596	0.3908	0.1253	-0.323
Mof_C 	C 	0.0751	0.4161	0.1578	-0.056
Mof_C 	C 	0.05	0.4155	0.1939	0.385
Mof_O 	O 	0.8099	0.3626	0.2401	-0.819
Mof_O 	O 	0.9331	0.4959	0.1124	-0.814
Mof_O 	O 	0.9878	0.445	0.1143	-0.835
Mof_O 	O 	0.7569	0.3619	0.1901	-0.801
Mof_O 	O 	0.881	0.388	0.215	-0.914
Mof_O 	O 	0.8111	0.4249	0.1798	-0.982
Mof_O 	O 	0.9294	0.4365	0.1725	-0.993
Mof_O 	O 	0.858	0.4721	0.1349	-1.013
Mof_O 	O 	0.8295	0.4447	0.2578	-0.724
Mof_O 	O 	0.8169	0.4907	0.3001	-0.678
Mof_O 	O 	0.9266	0.3516	0.2688	-0.628
Mof_O 	O 	0.9629	0.3458	0.3211	-0.32
Mof_O 	O 	0.9087	0.5147	0.2029	-0.71
Mof_O 	O 	0.928	0.5585	0.2466	-0.666
Mof_O 	O 	0.0131	0.4157	0.1895	-0.616
Mof_O 	O 	0.0638	0.4159	0.2267	-0.306
Mof_Nd	Nd	0.36949	0.95746	0.70156	2.706
Mof_Nd	Nd	0.4524	0.8807	0.70766	2.432
Mof_Ge	Ge	0.28352	0.90057	0.71519	1.302
Mof_Ge	Ge	0.36096	0.8612	0.75445	1.309
Mof_Ge	Ge	0.45883	0.97128	0.64982	1.308
Mof_Ge	Ge	0.50439	0.89558	0.61853	1.365
Mof_C 	C 	0.248	0.9306	0.7479	-0.282
Mof_C 	C 	0.2662	0.9456	0.7853	-0.136
Mof_C 	C 	0.3072	0.9624	0.7812	0.551
Mof_C 	C 	0.3637	0.8743	0.8101	-0.285
Mof_C 	C 	0.3946	0.852	0.8295	-0.064
Mof_C 	C 	0.4316	0.8501	0.8067	0.394
Mof_C 	C 	0.4903	0.0046	0.6825	-0.296
Mof_C 	C 	0.4712	0.0441	0.6939	-0.14
Mof_C 	C 	0.4347	0.0382	0.7163	0.504
Mof_C 	C 	0.5596	0.8908	0.6253	-0.323
Mof_C 	C 	0.5751	0.9161	0.6578	-0.056
Mof_C 	C 	0.55	0.9155	0.6939	0.385
Mof_O 	O 	0.3099	0.8626	0.7401	-0.819
Mof_O 	O 	0.4331	0.9959	0.6124	-0.814
Mof_O 	O 	0.4878	0.945	0.6143	-0.835
Mof_O 	O 	0.2569	0.8619	0.6901	-0.801
Mof_O 	O 	0.381	0.888	0.715	-0.914
Mof_O 	O 	0.3111	0.9249	0.6798	-0.982
Mof_O 	O 	0.4294	0.9365	0.6725	-0.993
Mof_O 	O 	0.358	0.9721	0.6349	-1.013
Mof_O 	O 	0.3295	0.9447	0.7578	-0.724
Mof_O 	O 	0.3169	0.9907	0.8001	-0.678
Mof_O 	O 	0.4266	0.8516	0.7688	-0.628
Mof_O 	O 	0.4629	0.8458	0.8211	-0.32
Mof_O 	O 	0.4087	0.0147	0.7029	-0.71
Mof_O 	O 	0.428	0.0585	0.7466	-0.666
Mof_O 	O 	0.5131	0.9157	0.6895	-0.615
Mof_O 	O 	0.5638	0.9159	0.7267	-0.306
Mof_Nd	Nd	0.36949	0.04254	0.79844	2.706
Mof_Nd	Nd	0.4524	0.1193	0.79234	2.432
Mof_Ge	Ge	0.28352	0.09943	0.78481	1.302
Mof_Ge	Ge	0.36096	0.1388	0.74555	1.309
Mof_Ge	Ge	0.45883	0.02872	0.85018	1.308
Mof_Ge	Ge	0.50439	0.10442	0.88147	1.365
Mof_C 	C 	0.248	0.0694	0.7521	-0.282
Mof_C 	C 	0.2662	0.0544	0.7147	-0.136
Mof_C 	C 	0.3072	0.0376	0.7188	0.551
Mof_C 	C 	0.3637	0.1257	0.6899	-0.285
Mof_C 	C 	0.3946	0.148	0.6705	-0.064
Mof_C 	C 	0.4316	0.1499	0.6933	0.394
Mof_C 	C 	0.4903	0.9954	0.8175	-0.296
Mof_C 	C 	0.4712	0.9559	0.8061	-0.14
Mof_C 	C 	0.4347	0.9618	0.7837	0.504
Mof_C 	C 	0.5596	0.1092	0.8747	-0.323
Mof_C 	C 	0.5751	0.0839	0.8422	-0.056
Mof_C 	C 	0.55	0.0845	0.8061	0.385
Mof_O 	O 	0.3099	0.1374	0.7599	-0.819
Mof_O 	O 	0.4331	0.0041	0.8876	-0.814
Mof_O 	O 	0.4878	0.055	0.8857	-0.835
Mof_O 	O 	0.2569	0.1381	0.8099	-0.801
Mof_O 	O 	0.381	0.112	0.785	-0.914
Mof_O 	O 	0.3111	0.0751	0.8202	-0.982
Mof_O 	O 	0.4294	0.0635	0.8275	-0.993
Mof_O 	O 	0.358	0.0279	0.8651	-1.013
Mof_O 	O 	0.3295	0.0553	0.7422	-0.724
Mof_O 	O 	0.3169	0.0093	0.6999	-0.678
Mof_O 	O 	0.4266	0.1484	0.7312	-0.628
Mof_O 	O 	0.4629	0.1542	0.6789	-0.32
Mof_O 	O 	0.4087	0.9853	0.7971	-0.71
Mof_O 	O 	0.428	0.9415	0.7534	-0.666
Mof_O 	O 	0.5131	0.0843	0.8105	-0.615
Mof_O 	O 	0.5638	0.0841	0.7733	-0.306
Mof_Nd	Nd	0.86949	0.54254	0.29844	2.706
Mof_Nd	Nd	0.9524	0.6193	0.29234	2.432
Mof_Ge	Ge	0.78352	0.59943	0.28481	1.302
Mof_Ge	Ge	0.86096	0.6388	0.24555	1.309
Mof_Ge	Ge	0.95883	0.52872	0.35018	1.308
Mof_Ge	Ge	0.00439	0.60442	0.38147	1.364
Mof_C 	C 	0.748	0.5694	0.2521	-0.282
Mof_C 	C 	0.7662	0.5544	0.2147	-0.136
Mof_C 	C 	0.8072	0.5376	0.2188	0.551
Mof_C 	C 	0.8637	0.6257	0.1899	-0.285
Mof_C 	C 	0.8946	0.648	0.1705	-0.064
Mof_C 	C 	0.9316	0.6499	0.1933	0.394
Mof_C 	C 	0.9903	0.4954	0.3175	-0.296
Mof_C 	C 	0.9712	0.4559	0.3061	-0.14
Mof_C 	C 	0.9347	0.4618	0.2837	0.504
Mof_C 	C 	0.0596	0.6092	0.3747	-0.323
Mof_C 	C 	0.0751	0.5839	0.3422	-0.056
Mof_C 	C 	0.05	0.5845	0.3061	0.385
Mof_O 	O 	0.8099	0.6374	0.2599	-0.819
Mof_O 	O 	0.9331	0.5041	0.3876	-0.814
Mof_O 	O 	0.9878	0.555	0.3857	-0.835
Mof_O 	O 	0.7569	0.6381	0.3099	-0.801
Mof_O 	O 	0.881	0.612	0.285	-0.914
Mof_O 	O 	0.8111	0.5751	0.3202	-0.982
Mof_O 	O 	0.9294	0.5635	0.3275	-0.993
Mof_O 	O 	0.858	0.5279	0.3651	-1.013
Mof_O 	O 	0.8295	0.5553	0.2422	-0.724
Mof_O 	O 	0.8169	0.5093	0.1999	-0.678
Mof_O 	O 	0.9266	0.6484	0.2312	-0.628
Mof_O 	O 	0.9629	0.6542	0.1789	-0.32
Mof_O 	O 	0.9087	0.4853	0.2971	-0.71
Mof_O 	O 	0.928	0.4415	0.2534	-0.666
Mof_O 	O 	0.0131	0.5843	0.3105	-0.616
Mof_O 	O 	0.0638	0.5841	0.2733	-0.306
Mof_Nd	Nd	0.13051	0.95746	0.29844	2.706
Mof_Nd	Nd	0.0476	0.8807	0.29234	2.432
Mof_Ge	Ge	0.21648	0.90057	0.28481	1.302
Mof_Ge	Ge	0.13904	0.8612	0.24555	1.309
Mof_Ge	Ge	0.04117	0.97128	0.35018	1.308
Mof_Ge	Ge	0.99561	0.89558	0.38147	1.364
Mof_C 	C 	0.252	0.9306	0.2521	-0.282
Mof_C 	C 	0.2338	0.9456	0.2147	-0.136
Mof_C 	C 	0.1928	0.9624	0.2188	0.551
Mof_C 	C 	0.1363	0.8743	0.1899	-0.285
Mof_C 	C 	0.1054	0.852	0.1705	-0.064
Mof_C 	C 	0.0684	0.8501	0.1933	0.394
Mof_C 	C 	0.0097	0.0046	0.3175	-0.296
Mof_C 	C 	0.0288	0.0441	0.3061	-0.14
Mof_C 	C 	0.0653	0.0382	0.2837	0.504
Mof_C 	C 	0.9404	0.8908	0.3747	-0.323
Mof_C 	C 	0.9249	0.9161	0.3422	-0.056
Mof_C 	C 	0.95	0.9155	0.3061	0.385
Mof_O 	O 	0.1901	0.8626	0.2599	-0.819
Mof_O 	O 	0.0669	0.9959	0.3876	-0.814
Mof_O 	O 	0.0122	0.945	0.3857	-0.835
Mof_O 	O 	0.2431	0.8619	0.3099	-0.801
Mof_O 	O 	0.119	0.888	0.285	-0.914
Mof_O 	O 	0.1889	0.9249	0.3202	-0.982
Mof_O 	O 	0.0706	0.9365	0.3275	-0.993
Mof_O 	O 	0.142	0.9721	0.3651	-1.013
Mof_O 	O 	0.1705	0.9447	0.2422	-0.724
Mof_O 	O 	0.1831	0.9907	0.1999	-0.678
Mof_O 	O 	0.0734	0.8516	0.2312	-0.628
Mof_O 	O 	0.0371	0.8458	0.1789	-0.32
Mof_O 	O 	0.0913	0.0147	0.2971	-0.71
Mof_O 	O 	0.072	0.0585	0.2534	-0.666
Mof_O 	O 	0.9869	0.9157	0.3105	-0.616
Mof_O 	O 	0.9362	0.9159	0.2733	-0.307
Mof_Nd	Nd	0.63051	0.45746	0.79844	2.706
Mof_Nd	Nd	0.5476	0.3807	0.79234	2.432
Mof_Ge	Ge	0.71648	0.40057	0.78481	1.302
Mof_Ge	Ge	0.63904	0.3612	0.74555	1.309
Mof_Ge	Ge	0.54117	0.47128	0.85018	1.308
Mof_Ge	Ge	0.49561	0.39558	0.88147	1.365
Mof_C 	C 	0.752	0.4306	0.7521	-0.282
Mof_C 	C 	0.7338	0.4456	0.7147	-0.136
Mof_C 	C 	0.6928	0.4624	0.7188	0.551
Mof_C 	C 	0.6363	0.3743	0.6899	-0.285
Mof_C 	C 	0.6054	0.352	0.6705	-0.064
Mof_C 	C 	0.5684	0.3501	0.6933	0.394
Mof_C 	C 	0.5097	0.5046	0.8175	-0.296
Mof_C 	C 	0.5288	0.5441	0.8061	-0.14
Mof_C 	C 	0.5653	0.5382	0.7837	0.504
Mof_C 	C 	0.4404	0.3908	0.8747	-0.323
Mof_C 	C 	0.4249	0.4161	0.8422	-0.056
Mof_C 	C 	0.45	0.4155	0.8061	0.385
Mof_O 	O 	0.6901	0.3626	0.7599	-0.819
Mof_O 	O 	0.5669	0.4959	0.8876	-0.814
Mof_O 	O 	0.5122	0.445	0.8857	-0.835
Mof_O 	O 	0.7431	0.3619	0.8099	-0.801
Mof_O 	O 	0.619	0.388	0.785	-0.914
Mof_O 	O 	0.6889	0.4249	0.8202	-0.982
Mof_O 	O 	0.5706	0.4365	0.8275	-0.993
Mof_O 	O 	0.642	0.4721	0.8651	-1.013
Mof_O 	O 	0.6705	0.4447	0.7422	-0.724
Mof_O 	O 	0.6831	0.4907	0.6999	-0.678
Mof_O 	O 	0.5734	0.3516	0.7312	-0.628
Mof_O 	O 	0.5371	0.3458	0.6789	-0.32
Mof_O 	O 	0.5913	0.5147	0.7971	-0.71
Mof_O 	O 	0.572	0.5585	0.7534	-0.666
Mof_O 	O 	0.4869	0.4157	0.8105	-0.615
Mof_O 	O 	0.4362	0.4159	0.7733	-0.306
Mof_Nd	Nd	0.70156	0.63051	0.54254	2.706
Mof_Nd	Nd	0.70766	0.5476	0.6193	2.432
Mof_Ge	Ge	0.71519	0.71648	0.59943	1.302
Mof_Ge	Ge	0.75445	0.63904	0.6388	1.309
Mof_Ge	Ge	0.64982	0.54117	0.52872	1.308
Mof_Ge	Ge	0.61853	0.49561	0.60442	1.365
Mof_C 	C 	0.7479	0.752	0.5694	-0.282
Mof_C 	C 	0.7853	0.7338	0.5544	-0.136
Mof_C 	C 	0.7812	0.6928	0.5376	0.551
Mof_C 	C 	0.8101	0.6363	0.6257	-0.285
Mof_C 	C 	0.8295	0.6054	0.648	-0.064
Mof_C 	C 	0.8067	0.5684	0.6499	0.394
Mof_C 	C 	0.6825	0.5097	0.4954	-0.296
Mof_C 	C 	0.6939	0.5288	0.4559	-0.14
Mof_C 	C 	0.7163	0.5653	0.4618	0.504
Mof_C 	C 	0.6253	0.4404	0.6092	-0.323
Mof_C 	C 	0.6578	0.4249	0.5839	-0.056
Mof_C 	C 	0.6939	0.45	0.5845	0.385
Mof_O 	O 	0.7401	0.6901	0.6374	-0.819
Mof_O 	O 	0.6124	0.5669	0.5041	-0.814
Mof_O 	O 	0.6143	0.5122	0.555	-0.835
Mof_O 	O 	0.6901	0.7431	0.6381	-0.801
Mof_O 	O 	0.715	0.619	0.612	-0.914
Mof_O 	O 	0.6798	0.6889	0.5751	-0.982
Mof_O 	O 	0.6725	0.5706	0.5635	-0.993
Mof_O 	O 	0.6349	0.642	0.5279	-1.013
Mof_O 	O 	0.7578	0.6705	0.5553	-0.724
Mof_O 	O 	0.8001	0.6831	0.5093	-0.678
Mof_O 	O 	0.7688	0.5734	0.6484	-0.628
Mof_O 	O 	0.8211	0.5371	0.6542	-0.32
Mof_O 	O 	0.7029	0.5913	0.4853	-0.71
Mof_O 	O 	0.7466	0.572	0.4415	-0.666
Mof_O 	O 	0.6895	0.4869	0.5843	-0.615
Mof_O 	O 	0.7267	0.4362	0.5841	-0.306
Mof_Nd	Nd	0.20156	0.13051	0.04254	2.706
Mof_Nd	Nd	0.20766	0.0476	0.1193	2.432
Mof_Ge	Ge	0.21519	0.21648	0.09943	1.302
Mof_Ge	Ge	0.25445	0.13904	0.1388	1.309
Mof_Ge	Ge	0.14982	0.04117	0.02872	1.308
Mof_Ge	Ge	0.11853	0.99561	0.10442	1.364
Mof_C 	C 	0.2479	0.252	0.0694	-0.282
Mof_C 	C 	0.2853	0.2338	0.0544	-0.136
Mof_C 	C 	0.2812	0.1928	0.0376	0.551
Mof_C 	C 	0.3101	0.1363	0.1257	-0.285
Mof_C 	C 	0.3295	0.1054	0.148	-0.064
Mof_C 	C 	0.3067	0.0684	0.1499	0.394
Mof_C 	C 	0.1825	0.0097	0.9954	-0.296
Mof_C 	C 	0.1939	0.0288	0.9559	-0.14
Mof_C 	C 	0.2163	0.0653	0.9618	0.504
Mof_C 	C 	0.1253	0.9404	0.1092	-0.323
Mof_C 	C 	0.1578	0.9249	0.0839	-0.056
Mof_C 	C 	0.1939	0.95	0.0845	0.385
Mof_O 	O 	0.2401	0.1901	0.1374	-0.819
Mof_O 	O 	0.1124	0.0669	0.0041	-0.814
Mof_O 	O 	0.1143	0.0122	0.055	-0.835
Mof_O 	O 	0.1901	0.2431	0.1381	-0.801
Mof_O 	O 	0.215	0.119	0.112	-0.914
Mof_O 	O 	0.1798	0.1889	0.0751	-0.982
Mof_O 	O 	0.1725	0.0706	0.0635	-0.993
Mof_O 	O 	0.1349	0.142	0.0279	-1.013
Mof_O 	O 	0.2578	0.1705	0.0553	-0.724
Mof_O 	O 	0.3001	0.1831	0.0093	-0.678
Mof_O 	O 	0.2688	0.0734	0.1484	-0.628
Mof_O 	O 	0.3211	0.0371	0.1542	-0.32
Mof_O 	O 	0.2029	0.0913	0.9853	-0.71
Mof_O 	O 	0.2466	0.072	0.9415	-0.666
Mof_O 	O 	0.1895	0.9869	0.0843	-0.616
Mof_O 	O 	0.2267	0.9362	0.0841	-0.307
Mof_Nd	Nd	0.20156	0.86949	0.45746	2.706
Mof_Nd	Nd	0.20766	0.9524	0.3807	2.432
Mof_Ge	Ge	0.21519	0.78352	0.40057	1.302
Mof_Ge	Ge	0.25445	0.86096	0.3612	1.309
Mof_Ge	Ge	0.14982	0.95883	0.47128	1.308
Mof_Ge	Ge	0.11853	0.00439	0.39558	1.364
Mof_C 	C 	0.2479	0.748	0.4306	-0.282
Mof_C 	C 	0.2853	0.7662	0.4456	-0.136
Mof_C 	C 	0.2812	0.8072	0.4624	0.551
Mof_C 	C 	0.3101	0.8637	0.3743	-0.285
Mof_C 	C 	0.3295	0.8946	0.352	-0.064
Mof_C 	C 	0.3067	0.9316	0.3501	0.394
Mof_C 	C 	0.1825	0.9903	0.5046	-0.296
Mof_C 	C 	0.1939	0.9712	0.5441	-0.14
Mof_C 	C 	0.2163	0.9347	0.5382	0.504
Mof_C 	C 	0.1253	0.0596	0.3908	-0.323
Mof_C 	C 	0.1578	0.0751	0.4161	-0.056
Mof_C 	C 	0.1939	0.05	0.4155	0.385
Mof_O 	O 	0.2401	0.8099	0.3626	-0.819
Mof_O 	O 	0.1124	0.9331	0.4959	-0.814
Mof_O 	O 	0.1143	0.9878	0.445	-0.835
Mof_O 	O 	0.1901	0.7569	0.3619	-0.801
Mof_O 	O 	0.215	0.881	0.388	-0.914
Mof_O 	O 	0.1798	0.8111	0.4249	-0.982
Mof_O 	O 	0.1725	0.9294	0.4365	-0.993
Mof_O 	O 	0.1349	0.858	0.4721	-1.013
Mof_O 	O 	0.2578	0.8295	0.4447	-0.724
Mof_O 	O 	0.3001	0.8169	0.4907	-0.678
Mof_O 	O 	0.2688	0.9266	0.3516	-0.628
Mof_O 	O 	0.3211	0.9629	0.3458	-0.32
Mof_O 	O 	0.2029	0.9087	0.5147	-0.71
Mof_O 	O 	0.2466	0.928	0.5585	-0.666
Mof_O 	O 	0.1895	0.0131	0.4157	-0.616
Mof_O 	O 	0.2267	0.0638	0.4159	-0.306
Mof_Nd	Nd	0.70156	0.36949	0.95746	2.706
Mof_Nd	Nd	0.70766	0.4524	0.8807	2.432
Mof_Ge	Ge	0.71519	0.28352	0.90057	1.302
Mof_Ge	Ge	0.75445	0.36096	0.8612	1.309
Mof_Ge	Ge	0.64982	0.45883	0.97128	1.308
Mof_Ge	Ge	0.61853	0.50439	0.89558	1.365
Mof_C 	C 	0.7479	0.248	0.9306	-0.282
Mof_C 	C 	0.7853	0.2662	0.9456	-0.136
Mof_C 	C 	0.7812	0.3072	0.9624	0.551
Mof_C 	C 	0.8101	0.3637	0.8743	-0.285
Mof_C 	C 	0.8295	0.3946	0.852	-0.064
Mof_C 	C 	0.8067	0.4316	0.8501	0.394
Mof_C 	C 	0.6825	0.4903	0.0046	-0.296
Mof_C 	C 	0.6939	0.4712	0.0441	-0.14
Mof_C 	C 	0.7163	0.4347	0.0382	0.504
Mof_C 	C 	0.6253	0.5596	0.8908	-0.323
Mof_C 	C 	0.6578	0.5751	0.9161	-0.056
Mof_C 	C 	0.6939	0.55	0.9155	0.385
Mof_O 	O 	0.7401	0.3099	0.8626	-0.819
Mof_O 	O 	0.6124	0.4331	0.9959	-0.814
Mof_O 	O 	0.6143	0.4878	0.945	-0.835
Mof_O 	O 	0.6901	0.2569	0.8619	-0.801
Mof_O 	O 	0.715	0.381	0.888	-0.914
Mof_O 	O 	0.6798	0.3111	0.9249	-0.982
Mof_O 	O 	0.6725	0.4294	0.9365	-0.993
Mof_O 	O 	0.6349	0.358	0.9721	-1.013
Mof_O 	O 	0.7578	0.3295	0.9447	-0.724
Mof_O 	O 	0.8001	0.3169	0.9907	-0.678
Mof_O 	O 	0.7688	0.4266	0.8516	-0.628
Mof_O 	O 	0.8211	0.4629	0.8458	-0.32
Mof_O 	O 	0.7029	0.4087	0.0147	-0.71
Mof_O 	O 	0.7466	0.428	0.0585	-0.666
Mof_O 	O 	0.6895	0.5131	0.9157	-0.615
Mof_O 	O 	0.7267	0.5638	0.9159	-0.306
Mof_Nd	Nd	0.79844	0.36949	0.04254	2.706
Mof_Nd	Nd	0.79234	0.4524	0.1193	2.432
Mof_Ge	Ge	0.78481	0.28352	0.09943	1.302
Mof_Ge	Ge	0.74555	0.36096	0.1388	1.309
Mof_Ge	Ge	0.85018	0.45883	0.02872	1.308
Mof_Ge	Ge	0.88147	0.50439	0.10442	1.365
Mof_C 	C 	0.7521	0.248	0.0694	-0.282
Mof_C 	C 	0.7147	0.2662	0.0544	-0.136
Mof_C 	C 	0.7188	0.3072	0.0376	0.551
Mof_C 	C 	0.6899	0.3637	0.1257	-0.285
Mof_C 	C 	0.6705	0.3946	0.148	-0.064
Mof_C 	C 	0.6933	0.4316	0.1499	0.394
Mof_C 	C 	0.8175	0.4903	0.9954	-0.296
Mof_C 	C 	0.8061	0.4712	0.9559	-0.14
Mof_C 	C 	0.7837	0.4347	0.9618	0.504
Mof_C 	C 	0.8747	0.5596	0.1092	-0.323
Mof_C 	C 	0.8422	0.5751	0.0839	-0.056
Mof_C 	C 	0.8061	0.55	0.0845	0.385
Mof_O 	O 	0.7599	0.3099	0.1374	-0.819
Mof_O 	O 	0.8876	0.4331	0.0041	-0.814
Mof_O 	O 	0.8857	0.4878	0.055	-0.835
Mof_O 	O 	0.8099	0.2569	0.1381	-0.801
Mof_O 	O 	0.785	0.381	0.112	-0.914
Mof_O 	O 	0.8202	0.3111	0.0751	-0.982
Mof_O 	O 	0.8275	0.4294	0.0635	-0.993
Mof_O 	O 	0.8651	0.358	0.0279	-1.013
Mof_O 	O 	0.7422	0.3295	0.0553	-0.724
Mof_O 	O 	0.6999	0.3169	0.0093	-0.678
Mof_O 	O 	0.7312	0.4266	0.1484	-0.628
Mof_O 	O 	0.6789	0.4629	0.1542	-0.32
Mof_O 	O 	0.7971	0.4087	0.9853	-0.71
Mof_O 	O 	0.7534	0.428	0.9415	-0.666
Mof_O 	O 	0.8105	0.5131	0.0843	-0.615
Mof_O 	O 	0.7733	0.5638	0.0841	-0.306
Mof_Nd	Nd	0.29844	0.86949	0.54254	2.706
Mof_Nd	Nd	0.29234	0.9524	0.6193	2.432
Mof_Ge	Ge	0.28481	0.78352	0.59943	1.302
Mof_Ge	Ge	0.24555	0.86096	0.6388	1.309
Mof_Ge	Ge	0.35018	0.95883	0.52872	1.308
Mof_Ge	Ge	0.38147	0.00439	0.60442	1.364
Mof_C 	C 	0.2521	0.748	0.5694	-0.282
Mof_C 	C 	0.2147	0.7662	0.5544	-0.136
Mof_C 	C 	0.2188	0.8072	0.5376	0.551
Mof_C 	C 	0.1899	0.8637	0.6257	-0.285
Mof_C 	C 	0.1705	0.8946	0.648	-0.064
Mof_C 	C 	0.1933	0.9316	0.6499	0.394
Mof_C 	C 	0.3175	0.9903	0.4954	-0.296
Mof_C 	C 	0.3061	0.9712	0.4559	-0.14
Mof_C 	C 	0.2837	0.9347	0.4618	0.504
Mof_C 	C 	0.3747	0.0596	0.6092	-0.323
Mof_C 	C 	0.3422	0.0751	0.5839	-0.056
Mof_C 	C 	0.3061	0.05	0.5845	0.385
Mof_O 	O 	0.2599	0.8099	0.6374	-0.819
Mof_O 	O 	0.3876	0.9331	0.5041	-0.814
Mof_O 	O 	0.3857	0.9878	0.555	-0.835
Mof_O 	O 	0.3099	0.7569	0.6381	-0.801
Mof_O 	O 	0.285	0.881	0.612	-0.914
Mof_O 	O 	0.3202	0.8111	0.5751	-0.982
Mof_O 	O 	0.3275	0.9294	0.5635	-0.993
Mof_O 	O 	0.3651	0.858	0.5279	-1.013
Mof_O 	O 	0.2422	0.8295	0.5553	-0.724
Mof_O 	O 	0.1999	0.8169	0.5093	-0.678
Mof_O 	O 	0.2312	0.9266	0.6484	-0.628
Mof_O 	O 	0.1789	0.9629	0.6542	-0.32
Mof_O 	O 	0.2971	0.9087	0.4853	-0.71
Mof_O 	O 	0.2534	0.928	0.4415	-0.666
Mof_O 	O 	0.3105	0.0131	0.5843	-0.616
Mof_O 	O 	0.2733	0.0638	0.5841	-0.306
Mof_Nd	Nd	0.29844	0.13051	0.95746	2.706
Mof_Nd	Nd	0.29234	0.0476	0.8807	2.432
Mof_Ge	Ge	0.28481	0.21648	0.90057	1.302
Mof_Ge	Ge	0.24555	0.13904	0.8612	1.309
Mof_Ge	Ge	0.35018	0.04117	0.97128	1.308
Mof_Ge	Ge	0.38147	0.99561	0.89558	1.364
Mof_C 	C 	0.2521	0.252	0.9306	-0.282
Mof_C 	C 	0.2147	0.2338	0.9456	-0.136
Mof_C 	C 	0.2188	0.1928	0.9624	0.551
Mof_C 	C 	0.1899	0.1363	0.8743	-0.285
Mof_C 	C 	0.1705	0.1054	0.852	-0.064
Mof_C 	C 	0.1933	0.0684	0.8501	0.394
Mof_C 	C 	0.3175	0.0097	0.0046	-0.296
Mof_C 	C 	0.3061	0.0288	0.0441	-0.14
Mof_C 	C 	0.2837	0.0653	0.0382	0.504
Mof_C 	C 	0.3747	0.9404	0.8908	-0.323
Mof_C 	C 	0.3422	0.9249	0.9161	-0.056
Mof_C 	C 	0.3061	0.95	0.9155	0.385
Mof_O 	O 	0.2599	0.1901	0.8626	-0.819
Mof_O 	O 	0.3876	0.0669	0.9959	-0.814
Mof_O 	O 	0.3857	0.0122	0.945	-0.835
Mof_O 	O 	0.3099	0.2431	0.8619	-0.801
Mof_O 	O 	0.285	0.119	0.888	-0.914
Mof_O 	O 	0.3202	0.1889	0.9249	-0.982
Mof_O 	O 	0.3275	0.0706	0.9365	-0.993
Mof_O 	O 	0.3651	0.142	0.9721	-1.013
Mof_O 	O 	0.2422	0.1705	0.9447	-0.724
Mof_O 	O 	0.1999	0.1831	0.9907	-0.678
Mof_O 	O 	0.2312	0.0734	0.8516	-0.628
Mof_O 	O 	0.1789	0.0371	0.8458	-0.32
Mof_O 	O 	0.2971	0.0913	0.0147	-0.71
Mof_O 	O 	0.2534	0.072	0.0585	-0.666
Mof_O 	O 	0.3105	0.9869	0.9157	-0.616
Mof_O 	O 	0.2733	0.9362	0.9159	-0.307
Mof_Nd	Nd	0.79844	0.63051	0.45746	2.706
Mof_Nd	Nd	0.79234	0.5476	0.3807	2.432
Mof_Ge	Ge	0.78481	0.71648	0.40057	1.302
Mof_Ge	Ge	0.74555	0.63904	0.3612	1.309
Mof_Ge	Ge	0.85018	0.54117	0.47128	1.308
Mof_Ge	Ge	0.88147	0.49561	0.39558	1.365
Mof_C 	C 	0.7521	0.752	0.4306	-0.282
Mof_C 	C 	0.7147	0.7338	0.4456	-0.136
Mof_C 	C 	0.7188	0.6928	0.4624	0.551
Mof_C 	C 	0.6899	0.6363	0.3743	-0.285
Mof_C 	C 	0.6705	0.6054	0.352	-0.064
Mof_C 	C 	0.6933	0.5684	0.3501	0.394
Mof_C 	C 	0.8175	0.5097	0.5046	-0.296
Mof_C 	C 	0.8061	0.5288	0.5441	-0.14
Mof_C 	C 	0.7837	0.5653	0.5382	0.504
Mof_C 	C 	0.8747	0.4404	0.3908	-0.323
Mof_C 	C 	0.8422	0.4249	0.4161	-0.056
Mof_C 	C 	0.8061	0.45	0.4155	0.385
Mof_O 	O 	0.7599	0.6901	0.3626	-0.819
Mof_O 	O 	0.8876	0.5669	0.4959	-0.814
Mof_O 	O 	0.8857	0.5122	0.445	-0.835
Mof_O 	O 	0.8099	0.7431	0.3619	-0.801
Mof_O 	O 	0.785	0.619	0.388	-0.914
Mof_O 	O 	0.8202	0.6889	0.4249	-0.982
Mof_O 	O 	0.8275	0.5706	0.4365	-0.993
Mof_O 	O 	0.8651	0.642	0.4721	-1.013
Mof_O 	O 	0.7422	0.6705	0.4447	-0.724
Mof_O 	O 	0.6999	0.6831	0.4907	-0.678
Mof_O 	O 	0.7312	0.5734	0.3516	-0.628
Mof_O 	O 	0.6789	0.5371	0.3458	-0.32
Mof_O 	O 	0.7971	0.5913	0.5147	-0.71
Mof_O 	O 	0.7534	0.572	0.5585	-0.666
Mof_O 	O 	0.8105	0.4869	0.4157	-0.615
Mof_O 	O 	0.7733	0.4362	0.4159	-0.306
Mof_Nd	Nd	0.54254	0.70156	0.63051	2.706
Mof_Nd	Nd	0.6193	0.70766	0.5476	2.432
Mof_Ge	Ge	0.59943	0.71519	0.71648	1.302
Mof_Ge	Ge	0.6388	0.75445	0.63904	1.309
Mof_Ge	Ge	0.52872	0.64982	0.54117	1.308
Mof_Ge	Ge	0.60442	0.61853	0.49561	1.365
Mof_C 	C 	0.5694	0.7479	0.752	-0.282
Mof_C 	C 	0.5544	0.7853	0.7338	-0.136
Mof_C 	C 	0.5376	0.7812	0.6928	0.551
Mof_C 	C 	0.6257	0.8101	0.6363	-0.285
Mof_C 	C 	0.648	0.8295	0.6054	-0.064
Mof_C 	C 	0.6499	0.8067	0.5684	0.394
Mof_C 	C 	0.4954	0.6825	0.5097	-0.296
Mof_C 	C 	0.4559	0.6939	0.5288	-0.14
Mof_C 	C 	0.4618	0.7163	0.5653	0.504
Mof_C 	C 	0.6092	0.6253	0.4404	-0.323
Mof_C 	C 	0.5839	0.6578	0.4249	-0.056
Mof_C 	C 	0.5845	0.6939	0.45	0.385
Mof_O 	O 	0.6374	0.7401	0.6901	-0.819
Mof_O 	O 	0.5041	0.6124	0.5669	-0.814
Mof_O 	O 	0.555	0.6143	0.5122	-0.835
Mof_O 	O 	0.6381	0.6901	0.7431	-0.801
Mof_O 	O 	0.612	0.715	0.619	-0.914
Mof_O 	O 	0.5751	0.6798	0.6889	-0.982
Mof_O 	O 	0.5635	0.6725	0.5706	-0.993
Mof_O 	O 	0.5279	0.6349	0.642	-1.013
Mof_O 	O 	0.5553	0.7578	0.6705	-0.724
Mof_O 	O 	0.5093	0.8001	0.6831	-0.678
Mof_O 	O 	0.6484	0.7688	0.5734	-0.628
Mof_O 	O 	0.6542	0.8211	0.5371	-0.32
Mof_O 	O 	0.4853	0.7029	0.5913	-0.71
Mof_O 	O 	0.4415	0.7466	0.572	-0.666
Mof_O 	O 	0.5843	0.6895	0.4869	-0.615
Mof_O 	O 	0.5841	0.7267	0.4362	-0.306
Mof_Nd	Nd	0.04254	0.20156	0.13051	2.706
Mof_Nd	Nd	0.1193	0.20766	0.0476	2.432
Mof_Ge	Ge	0.09943	0.21519	0.21648	1.302
Mof_Ge	Ge	0.1388	0.25445	0.13904	1.309
Mof_Ge	Ge	0.02872	0.14982	0.04117	1.308
Mof_Ge	Ge	0.10442	0.11853	0.99561	1.364
Mof_C 	C 	0.0694	0.2479	0.252	-0.282
Mof_C 	C 	0.0544	0.2853	0.2338	-0.136
Mof_C 	C 	0.0376	0.2812	0.1928	0.551
Mof_C 	C 	0.1257	0.3101	0.1363	-0.285
Mof_C 	C 	0.148	0.3295	0.1054	-0.064
Mof_C 	C 	0.1499	0.3067	0.0684	0.394
Mof_C 	C 	0.9954	0.1825	0.0097	-0.296
Mof_C 	C 	0.9559	0.1939	0.0288	-0.14
Mof_C 	C 	0.9618	0.2163	0.0653	0.504
Mof_C 	C 	0.1092	0.1253	0.9404	-0.323
Mof_C 	C 	0.0839	0.1578	0.9249	-0.056
Mof_C 	C 	0.0845	0.1939	0.95	0.385
Mof_O 	O 	0.1374	0.2401	0.1901	-0.819
Mof_O 	O 	0.0041	0.1124	0.0669	-0.814
Mof_O 	O 	0.055	0.1143	0.0122	-0.835
Mof_O 	O 	0.1381	0.1901	0.2431	-0.801
Mof_O 	O 	0.112	0.215	0.119	-0.914
Mof_O 	O 	0.0751	0.1798	0.1889	-0.982
Mof_O 	O 	0.0635	0.1725	0.0706	-0.993
Mof_O 	O 	0.0279	0.1349	0.142	-1.013
Mof_O 	O 	0.0553	0.2578	0.1705	-0.724
Mof_O 	O 	0.0093	0.3001	0.1831	-0.678
Mof_O 	O 	0.1484	0.2688	0.0734	-0.628
Mof_O 	O 	0.1542	0.3211	0.0371	-0.32
Mof_O 	O 	0.9853	0.2029	0.0913	-0.71
Mof_O 	O 	0.9415	0.2466	0.072	-0.666
Mof_O 	O 	0.0843	0.1895	0.9869	-0.616
Mof_O 	O 	0.0841	0.2267	0.9362	-0.307
Mof_Nd	Nd	0.45746	0.20156	0.86949	2.706
Mof_Nd	Nd	0.3807	0.20766	0.9524	2.432
Mof_Ge	Ge	0.40057	0.21519	0.78352	1.302
Mof_Ge	Ge	0.3612	0.25445	0.86096	1.309
Mof_Ge	Ge	0.47128	0.14982	0.95883	1.308
Mof_Ge	Ge	0.39558	0.11853	0.00439	1.364
Mof_C 	C 	0.4306	0.2479	0.748	-0.282
Mof_C 	C 	0.4456	0.2853	0.7662	-0.136
Mof_C 	C 	0.4624	0.2812	0.8072	0.551
Mof_C 	C 	0.3743	0.3101	0.8637	-0.285
Mof_C 	C 	0.352	0.3295	0.8946	-0.064
Mof_C 	C 	0.3501	0.3067	0.9316	0.394
Mof_C 	C 	0.5046	0.1825	0.9903	-0.296
Mof_C 	C 	0.5441	0.1939	0.9712	-0.14
Mof_C 	C 	0.5382	0.2163	0.9347	0.504
Mof_C 	C 	0.3908	0.1253	0.0596	-0.323
Mof_C 	C 	0.4161	0.1578	0.0751	-0.056
Mof_C 	C 	0.4155	0.1939	0.05	0.385
Mof_O 	O 	0.3626	0.2401	0.8099	-0.819
Mof_O 	O 	0.4959	0.1124	0.9331	-0.814
Mof_O 	O 	0.445	0.1143	0.9878	-0.835
Mof_O 	O 	0.3619	0.1901	0.7569	-0.801
Mof_O 	O 	0.388	0.215	0.881	-0.914
Mof_O 	O 	0.4249	0.1798	0.8111	-0.982
Mof_O 	O 	0.4365	0.1725	0.9294	-0.993
Mof_O 	O 	0.4721	0.1349	0.858	-1.013
Mof_O 	O 	0.4447	0.2578	0.8295	-0.724
Mof_O 	O 	0.4907	0.3001	0.8169	-0.678
Mof_O 	O 	0.3516	0.2688	0.9266	-0.628
Mof_O 	O 	0.3458	0.3211	0.9629	-0.32
Mof_O 	O 	0.5147	0.2029	0.9087	-0.71
Mof_O 	O 	0.5585	0.2466	0.928	-0.666
Mof_O 	O 	0.4157	0.1895	0.0131	-0.616
Mof_O 	O 	0.4159	0.2267	0.0638	-0.306
Mof_Nd	Nd	0.95746	0.70156	0.36949	2.706
Mof_Nd	Nd	0.8807	0.70766	0.4524	2.432
Mof_Ge	Ge	0.90057	0.71519	0.28352	1.302
Mof_Ge	Ge	0.8612	0.75445	0.36096	1.309
Mof_Ge	Ge	0.97128	0.64982	0.45883	1.308
Mof_Ge	Ge	0.89558	0.61853	0.50439	1.365
Mof_C 	C 	0.9306	0.7479	0.248	-0.282
Mof_C 	C 	0.9456	0.7853	0.2662	-0.136
Mof_C 	C 	0.9624	0.7812	0.3072	0.551
Mof_C 	C 	0.8743	0.8101	0.3637	-0.285
Mof_C 	C 	0.852	0.8295	0.3946	-0.064
Mof_C 	C 	0.8501	0.8067	0.4316	0.394
Mof_C 	C 	0.0046	0.6825	0.4903	-0.296
Mof_C 	C 	0.0441	0.6939	0.4712	-0.14
Mof_C 	C 	0.0382	0.7163	0.4347	0.504
Mof_C 	C 	0.8908	0.6253	0.5596	-0.323
Mof_C 	C 	0.9161	0.6578	0.5751	-0.056
Mof_C 	C 	0.9155	0.6939	0.55	0.385
Mof_O 	O 	0.8626	0.7401	0.3099	-0.819
Mof_O 	O 	0.9959	0.6124	0.4331	-0.814
Mof_O 	O 	0.945	0.6143	0.4878	-0.835
Mof_O 	O 	0.8619	0.6901	0.2569	-0.801
Mof_O 	O 	0.888	0.715	0.381	-0.914
Mof_O 	O 	0.9249	0.6798	0.3111	-0.982
Mof_O 	O 	0.9365	0.6725	0.4294	-0.993
Mof_O 	O 	0.9721	0.6349	0.358	-1.013
Mof_O 	O 	0.9447	0.7578	0.3295	-0.724
Mof_O 	O 	0.9907	0.8001	0.3169	-0.678
Mof_O 	O 	0.8516	0.7688	0.4266	-0.628
Mof_O 	O 	0.8458	0.8211	0.4629	-0.32
Mof_O 	O 	0.0147	0.7029	0.4087	-0.71
Mof_O 	O 	0.0585	0.7466	0.428	-0.666
Mof_O 	O 	0.9157	0.6895	0.5131	-0.615
Mof_O 	O 	0.9159	0.7267	0.5638	-0.306
Mof_Nd	Nd	0.04254	0.79844	0.36949	2.706
Mof_Nd	Nd	0.1193	0.79234	0.4524	2.432
Mof_Ge	Ge	0.09943	0.78481	0.28352	1.302
Mof_Ge	Ge	0.1388	0.74555	0.36096	1.309
Mof_Ge	Ge	0.02872	0.85018	0.45883	1.308
Mof_Ge	Ge	0.10442	0.88147	0.50439	1.365
Mof_C 	C 	0.0694	0.7521	0.248	-0.282
Mof_C 	C 	0.0544	0.7147	0.2662	-0.136
Mof_C 	C 	0.0376	0.7188	0.3072	0.551
Mof_C 	C 	0.1257	0.6899	0.3637	-0.285
Mof_C 	C 	0.148	0.6705	0.3946	-0.064
Mof_C 	C 	0.1499	0.6933	0.4316	0.394
Mof_C 	C 	0.9954	0.8175	0.4903	-0.296
Mof_C 	C 	0.9559	0.8061	0.4712	-0.14
Mof_C 	C 	0.9618	0.7837	0.4347	0.504
Mof_C 	C 	0.1092	0.8747	0.5596	-0.323
Mof_C 	C 	0.0839	0.8422	0.5751	-0.056
Mof_C 	C 	0.0845	0.8061	0.55	0.385
Mof_O 	O 	0.1374	0.7599	0.3099	-0.819
Mof_O 	O 	0.0041	0.8876	0.4331	-0.814
Mof_O 	O 	0.055	0.8857	0.4878	-0.835
Mof_O 	O 	0.1381	0.8099	0.2569	-0.801
Mof_O 	O 	0.112	0.785	0.381	-0.914
Mof_O 	O 	0.0751	0.8202	0.3111	-0.982
Mof_O 	O 	0.0635	0.8275	0.4294	-0.993
Mof_O 	O 	0.0279	0.8651	0.358	-1.013
Mof_O 	O 	0.0553	0.7422	0.3295	-0.724
Mof_O 	O 	0.0093	0.6999	0.3169	-0.678
Mof_O 	O 	0.1484	0.7312	0.4266	-0.628
Mof_O 	O 	0.1542	0.6789	0.4629	-0.32
Mof_O 	O 	0.9853	0.7971	0.4087	-0.71
Mof_O 	O 	0.9415	0.7534	0.428	-0.666
Mof_O 	O 	0.0843	0.8105	0.5131	-0.615
Mof_O 	O 	0.0841	0.7733	0.5638	-0.306
Mof_Nd	Nd	0.54254	0.29844	0.86949	2.706
Mof_Nd	Nd	0.6193	0.29234	0.9524	2.432
Mof_Ge	Ge	0.59943	0.28481	0.78352	1.302
Mof_Ge	Ge	0.6388	0.24555	0.86096	1.309
Mof_Ge	Ge	0.52872	0.35018	0.95883	1.308
Mof_Ge	Ge	0.60442	0.38147	0.00439	1.364
Mof_C 	C 	0.5694	0.2521	0.748	-0.282
Mof_C 	C 	0.5544	0.2147	0.7662	-0.136
Mof_C 	C 	0.5376	0.2188	0.8072	0.551
Mof_C 	C 	0.6257	0.1899	0.8637	-0.285
Mof_C 	C 	0.648	0.1705	0.8946	-0.064
Mof_C 	C 	0.6499	0.1933	0.9316	0.394
Mof_C 	C 	0.4954	0.3175	0.9903	-0.296
Mof_C 	C 	0.4559	0.3061	0.9712	-0.14
Mof_C 	C 	0.4618	0.2837	0.9347	0.504
Mof_C 	C 	0.6092	0.3747	0.0596	-0.323
Mof_C 	C 	0.5839	0.3422	0.0751	-0.056
Mof_C 	C 	0.5845	0.3061	0.05	0.385
Mof_O 	O 	0.6374	0.2599	0.8099	-0.819
Mof_O 	O 	0.5041	0.3876	0.9331	-0.814
Mof_O 	O 	0.555	0.3857	0.9878	-0.835
Mof_O 	O 	0.6381	0.3099	0.7569	-0.801
Mof_O 	O 	0.612	0.285	0.881	-0.914
Mof_O 	O 	0.5751	0.3202	0.8111	-0.982
Mof_O 	O 	0.5635	0.3275	0.9294	-0.993
Mof_O 	O 	0.5279	0.3651	0.858	-1.013
Mof_O 	O 	0.5553	0.2422	0.8295	-0.724
Mof_O 	O 	0.5093	0.1999	0.8169	-0.678
Mof_O 	O 	0.6484	0.2312	0.9266	-0.628
Mof_O 	O 	0.6542	0.1789	0.9629	-0.32
Mof_O 	O 	0.4853	0.2971	0.9087	-0.71
Mof_O 	O 	0.4415	0.2534	0.928	-0.666
Mof_O 	O 	0.5843	0.3105	0.0131	-0.616
Mof_O 	O 	0.5841	0.2733	0.0638	-0.306
Mof_Nd	Nd	0.95746	0.29844	0.13051	2.706
Mof_Nd	Nd	0.8807	0.29234	0.0476	2.432
Mof_Ge	Ge	0.90057	0.28481	0.21648	1.302
Mof_Ge	Ge	0.8612	0.24555	0.13904	1.309
Mof_Ge	Ge	0.97128	0.35018	0.04117	1.308
Mof_Ge	Ge	0.89558	0.38147	0.99561	1.364
Mof_C 	C 	0.9306	0.2521	0.252	-0.282
Mof_C 	C 	0.9456	0.2147	0.2338	-0.136
Mof_C 	C 	0.9624	0.2188	0.1928	0.551
Mof_C 	C 	0.8743	0.1899	0.1363	-0.285
Mof_C 	C 	0.852	0.1705	0.1054	-0.064
Mof_C 	C 	0.8501	0.1933	0.0684	0.394
Mof_C 	C 	0.0046	0.3175	0.0097	-0.296
Mof_C 	C 	0.0441	0.3061	0.0288	-0.14
Mof_C 	C 	0.0382	0.2837	0.0653	0.504
Mof_C 	C 	0.8908	0.3747	0.9404	-0.323
Mof_C 	C 	0.9161	0.3422	0.9249	-0.056
Mof_C 	C 	0.9155	0.3061	0.95	0.385
Mof_O 	O 	0.8626	0.2599	0.1901	-0.819
Mof_O 	O 	0.9959	0.3876	0.0669	-0.814
Mof_O 	O 	0.945	0.3857	0.0122	-0.835
Mof_O 	O 	0.8619	0.3099	0.2431	-0.801
Mof_O 	O 	0.888	0.285	0.119	-0.914
Mof_O 	O 	0.9249	0.3202	0.1889	-0.982
Mof_O 	O 	0.9365	0.3275	0.0706	-0.993
Mof_O 	O 	0.9721	0.3651	0.142	-1.013
Mof_O 	O 	0.9447	0.2422	0.1705	-0.724
Mof_O 	O 	0.9907	0.1999	0.1831	-0.678
Mof_O 	O 	0.8516	0.2312	0.0734	-0.628
Mof_O 	O 	0.8458	0.1789	0.0371	-0.32
Mof_O 	O 	0.0147	0.2971	0.0913	-0.71
Mof_O 	O 	0.0585	0.2534	0.072	-0.666
Mof_O 	O 	0.9157	0.3105	0.9869	-0.616
Mof_O 	O 	0.9159	0.2733	0.9362	-0.307
Mof_Nd	Nd	0.45746	0.79844	0.63051	2.706
Mof_Nd	Nd	0.3807	0.79234	0.5476	2.432
Mof_Ge	Ge	0.40057	0.78481	0.71648	1.302
Mof_Ge	Ge	0.3612	0.74555	0.63904	1.309
Mof_Ge	Ge	0.47128	0.85018	0.54117	1.308
Mof_Ge	Ge	0.39558	0.88147	0.49561	1.365
Mof_C 	C 	0.4306	0.7521	0.752	-0.282
Mof_C 	C 	0.4456	0.7147	0.7338	-0.136
Mof_C 	C 	0.4624	0.7188	0.6928	0.551
Mof_C 	C 	0.3743	0.6899	0.6363	-0.285
Mof_C 	C 	0.352	0.6705	0.6054	-0.064
Mof_C 	C 	0.3501	0.6933	0.5684	0.394
Mof_C 	C 	0.5046	0.8175	0.5097	-0.296
Mof_C 	C 	0.5441	0.8061	0.5288	-0.14
Mof_C 	C 	0.5382	0.7837	0.5653	0.504
Mof_C 	C 	0.3908	0.8747	0.4404	-0.323
Mof_C 	C 	0.4161	0.8422	0.4249	-0.056
Mof_C 	C 	0.4155	0.8061	0.45	0.385
Mof_O 	O 	0.3626	0.7599	0.6901	-0.819
Mof_O 	O 	0.4959	0.8876	0.5669	-0.814
Mof_O 	O 	0.445	0.8857	0.5122	-0.835
Mof_O 	O 	0.3619	0.8099	0.7431	-0.801
Mof_O 	O 	0.388	0.785	0.619	-0.914
Mof_O 	O 	0.4249	0.8202	0.6889	-0.982
Mof_O 	O 	0.4365	0.8275	0.5706	-0.993
Mof_O 	O 	0.4721	0.8651	0.642	-1.013
Mof_O 	O 	0.4447	0.7422	0.6705	-0.724
Mof_O 	O 	0.4907	0.6999	0.6831	-0.678
Mof_O 	O 	0.3516	0.7312	0.5734	-0.628
Mof_O 	O 	0.3458	0.6789	0.5371	-0.32
Mof_O 	O 	0.5147	0.7971	0.5913	-0.71
Mof_O 	O 	0.5585	0.7534	0.572	-0.666
Mof_O 	O 	0.4157	0.8105	0.4869	-0.615
Mof_O 	O 	0.4159	0.7733	0.4362	-0.306
Mof_Nd	Nd	0.69885	0.69885	0.69885	1.789
Mof_Nd	Nd	0.54988	0.54988	0.54988	1.649
Mof_Nd	Nd	0.19885	0.19885	0.19885	1.789
Mof_Nd	Nd	0.04988	0.04988	0.04988	1.648
Mof_Nd	Nd	0.80115	0.30115	0.19885	1.789
Mof_Nd	Nd	0.95012	0.45012	0.04988	1.648
Mof_Nd	Nd	0.30115	0.80115	0.69885	1.789
Mof_Nd	Nd	0.45012	0.95012	0.54988	1.649
Mof_Nd	Nd	0.30115	0.19885	0.80115	1.789
Mof_Nd	Nd	0.45012	0.04988	0.95012	1.648
Mof_Nd	Nd	0.80115	0.69885	0.30115	1.789
Mof_Nd	Nd	0.95012	0.54988	0.45012	1.649
Mof_Nd	Nd	0.19885	0.80115	0.30115	1.789
Mof_Nd	Nd	0.04988	0.95012	0.45012	1.648
Mof_Nd	Nd	0.69885	0.30115	0.80115	1.789
Mof_Nd	Nd	0.54988	0.45012	0.95012	1.649
Mof_Nd	Nd	0.36949	0.45746	0.29844	2.706
Mof_Nd	Nd	0.4524	0.3807	0.29234	2.432
Mof_Ge	Ge	0.28352	0.40057	0.28481	1.302
Mof_Ge	Ge	0.36096	0.3612	0.24555	1.309
Mof_Ge	Ge	0.45883	0.47128	0.35018	1.308
Mof_Ge	Ge	0.50439	0.39558	0.38147	1.365
Mof_C 	C 	0.248	0.4306	0.2521	-0.282
Mof_C 	C 	0.2662	0.4456	0.2147	-0.136
Mof_C 	C 	0.3072	0.4624	0.2188	0.551
Mof_C 	C 	0.3637	0.3743	0.1899	-0.285
Mof_C 	C 	0.3946	0.352	0.1705	-0.064
Mof_C 	C 	0.4316	0.3501	0.1933	0.394
Mof_C 	C 	0.4903	0.5046	0.3175	-0.296
Mof_C 	C 	0.4712	0.5441	0.3061	-0.14
Mof_C 	C 	0.4347	0.5382	0.2837	0.504
Mof_C 	C 	0.5596	0.3908	0.3747	-0.323
Mof_C 	C 	0.5751	0.4161	0.3422	-0.056
Mof_C 	C 	0.55	0.4155	0.3061	0.385
Mof_O 	O 	0.3099	0.3626	0.2599	-0.819
Mof_O 	O 	0.4331	0.4959	0.3876	-0.814
Mof_O 	O 	0.4878	0.445	0.3857	-0.835
Mof_O 	O 	0.2569	0.3619	0.3099	-0.801
Mof_O 	O 	0.381	0.388	0.285	-0.914
Mof_O 	O 	0.3111	0.4249	0.3202	-0.982
Mof_O 	O 	0.4294	0.4365	0.3275	-0.993
Mof_O 	O 	0.358	0.4721	0.3651	-1.013
Mof_O 	O 	0.3295	0.4447	0.2422	-0.724
Mof_O 	O 	0.3169	0.4907	0.1999	-0.678
Mof_O 	O 	0.4266	0.3516	0.2312	-0.628
Mof_O 	O 	0.4629	0.3458	0.1789	-0.32
Mof_O 	O 	0.4087	0.5147	0.2971	-0.71
Mof_O 	O 	0.428	0.5585	0.2534	-0.666
Mof_O 	O 	0.5131	0.4157	0.3105	-0.615
Mof_O 	O 	0.5638	0.4159	0.2733	-0.306
Mof_Nd	Nd	0.86949	0.95746	0.79844	2.706
Mof_Nd	Nd	0.9524	0.8807	0.79234	2.432
Mof_Ge	Ge	0.78352	0.90057	0.78481	1.302
Mof_Ge	Ge	0.86096	0.8612	0.74555	1.309
Mof_Ge	Ge	0.95883	0.97128	0.85018	1.308
Mof_Ge	Ge	0.00439	0.89558	0.88147	1.364
Mof_C 	C 	0.748	0.9306	0.7521	-0.282
Mof_C 	C 	0.7662	0.9456	0.7147	-0.136
Mof_C 	C 	0.8072	0.9624	0.7188	0.551
Mof_C 	C 	0.8637	0.8743	0.6899	-0.285
Mof_C 	C 	0.8946	0.852	0.6705	-0.064
Mof_C 	C 	0.9316	0.8501	0.6933	0.394
Mof_C 	C 	0.9903	0.0046	0.8175	-0.296
Mof_C 	C 	0.9712	0.0441	0.8061	-0.14
Mof_C 	C 	0.9347	0.0382	0.7837	0.504
Mof_C 	C 	0.0596	0.8908	0.8747	-0.323
Mof_C 	C 	0.0751	0.9161	0.8422	-0.056
Mof_C 	C 	0.05	0.9155	0.8061	0.385
Mof_O 	O 	0.8099	0.8626	0.7599	-0.819
Mof_O 	O 	0.9331	0.9959	0.8876	-0.814
Mof_O 	O 	0.9878	0.945	0.8857	-0.835
Mof_O 	O 	0.7569	0.8619	0.8099	-0.801
Mof_O 	O 	0.881	0.888	0.785	-0.914
Mof_O 	O 	0.8111	0.9249	0.8202	-0.982
Mof_O 	O 	0.9294	0.9365	0.8275	-0.993
Mof_O 	O 	0.858	0.9721	0.8651	-1.013
Mof_O 	O 	0.8295	0.9447	0.7422	-0.724
Mof_O 	O 	0.8169	0.9907	0.6999	-0.678
Mof_O 	O 	0.9266	0.8516	0.7312	-0.628
Mof_O 	O 	0.9629	0.8458	0.6789	-0.32
Mof_O 	O 	0.9087	0.0147	0.7971	-0.71
Mof_O 	O 	0.928	0.0585	0.7534	-0.666
Mof_O 	O 	0.0131	0.9157	0.8105	-0.616
Mof_O 	O 	0.0638	0.9159	0.7733	-0.307
Mof_Nd	Nd	0.13051	0.54254	0.79844	2.706
Mof_Nd	Nd	0.0476	0.6193	0.79234	2.432
Mof_Ge	Ge	0.21648	0.59943	0.78481	1.302
Mof_Ge	Ge	0.13904	0.6388	0.74555	1.309
Mof_Ge	Ge	0.04117	0.52872	0.85018	1.308
Mof_Ge	Ge	0.99561	0.60442	0.88147	1.364
Mof_C 	C 	0.252	0.5694	0.7521	-0.282
Mof_C 	C 	0.2338	0.5544	0.7147	-0.136
Mof_C 	C 	0.1928	0.5376	0.7188	0.551
Mof_C 	C 	0.1363	0.6257	0.6899	-0.285
Mof_C 	C 	0.1054	0.648	0.6705	-0.064
Mof_C 	C 	0.0684	0.6499	0.6933	0.394
Mof_C 	C 	0.0097	0.4954	0.8175	-0.296
Mof_C 	C 	0.0288	0.4559	0.8061	-0.14
Mof_C 	C 	0.0653	0.4618	0.7837	0.504
Mof_C 	C 	0.9404	0.6092	0.8747	-0.323
Mof_C 	C 	0.9249	0.5839	0.8422	-0.056
Mof_C 	C 	0.95	0.5845	0.8061	0.385
Mof_O 	O 	0.1901	0.6374	0.7599	-0.819
Mof_O 	O 	0.0669	0.5041	0.8876	-0.814
Mof_O 	O 	0.0122	0.555	0.8857	-0.835
Mof_O 	O 	0.2431	0.6381	0.8099	-0.801
Mof_O 	O 	0.119	0.612	0.785	-0.914
Mof_O 	O 	0.1889	0.5751	0.8202	-0.982
Mof_O 	O 	0.0706	0.5635	0.8275	-0.993
Mof_O 	O 	0.142	0.5279	0.8651	-1.013
Mof_O 	O 	0.1705	0.5553	0.7422	-0.724
Mof_O 	O 	0.1831	0.5093	0.6999	-0.678
Mof_O 	O 	0.0734	0.6484	0.7312	-0.628
Mof_O 	O 	0.0371	0.6542	0.6789	-0.32
Mof_O 	O 	0.0913	0.4853	0.7971	-0.71
Mof_O 	O 	0.072	0.4415	0.7534	-0.666
Mof_O 	O 	0.9869	0.5843	0.8105	-0.616
Mof_O 	O 	0.9362	0.5841	0.7733	-0.306
Mof_Nd	Nd	0.63051	0.04254	0.29844	2.706
Mof_Nd	Nd	0.5476	0.1193	0.29234	2.432
Mof_Ge	Ge	0.71648	0.09943	0.28481	1.302
Mof_Ge	Ge	0.63904	0.1388	0.24555	1.309
Mof_Ge	Ge	0.54117	0.02872	0.35018	1.308
Mof_Ge	Ge	0.49561	0.10442	0.38147	1.365
Mof_C 	C 	0.752	0.0694	0.2521	-0.282
Mof_C 	C 	0.7338	0.0544	0.2147	-0.136
Mof_C 	C 	0.6928	0.0376	0.2188	0.551
Mof_C 	C 	0.6363	0.1257	0.1899	-0.285
Mof_C 	C 	0.6054	0.148	0.1705	-0.064
Mof_C 	C 	0.5684	0.1499	0.1933	0.394
Mof_C 	C 	0.5097	0.9954	0.3175	-0.296
Mof_C 	C 	0.5288	0.9559	0.3061	-0.14
Mof_C 	C 	0.5653	0.9618	0.2837	0.504
Mof_C 	C 	0.4404	0.1092	0.3747	-0.323
Mof_C 	C 	0.4249	0.0839	0.3422	-0.056
Mof_C 	C 	0.45	0.0845	0.3061	0.385
Mof_O 	O 	0.6901	0.1374	0.2599	-0.819
Mof_O 	O 	0.5669	0.0041	0.3876	-0.814
Mof_O 	O 	0.5122	0.055	0.3857	-0.835
Mof_O 	O 	0.7431	0.1381	0.3099	-0.801
Mof_O 	O 	0.619	0.112	0.285	-0.914
Mof_O 	O 	0.6889	0.0751	0.3202	-0.982
Mof_O 	O 	0.5706	0.0635	0.3275	-0.993
Mof_O 	O 	0.642	0.0279	0.3651	-1.013
Mof_O 	O 	0.6705	0.0553	0.2422	-0.724
Mof_O 	O 	0.6831	0.0093	0.1999	-0.678
Mof_O 	O 	0.5734	0.1484	0.2312	-0.628
Mof_O 	O 	0.5371	0.1542	0.1789	-0.32
Mof_O 	O 	0.5913	0.9853	0.2971	-0.71
Mof_O 	O 	0.572	0.9415	0.2534	-0.666
Mof_O 	O 	0.4869	0.0843	0.3105	-0.615
Mof_O 	O 	0.4362	0.0841	0.2733	-0.306
Mof_Nd	Nd	0.63051	0.95746	0.20156	2.706
Mof_Nd	Nd	0.5476	0.8807	0.20766	2.432
Mof_Ge	Ge	0.71648	0.90057	0.21519	1.302
Mof_Ge	Ge	0.63904	0.8612	0.25445	1.309
Mof_Ge	Ge	0.54117	0.97128	0.14982	1.308
Mof_Ge	Ge	0.49561	0.89558	0.11853	1.365
Mof_C 	C 	0.752	0.9306	0.2479	-0.282
Mof_C 	C 	0.7338	0.9456	0.2853	-0.136
Mof_C 	C 	0.6928	0.9624	0.2812	0.551
Mof_C 	C 	0.6363	0.8743	0.3101	-0.285
Mof_C 	C 	0.6054	0.852	0.3295	-0.064
Mof_C 	C 	0.5684	0.8501	0.3067	0.394
Mof_C 	C 	0.5097	0.0046	0.1825	-0.296
Mof_C 	C 	0.5288	0.0441	0.1939	-0.14
Mof_C 	C 	0.5653	0.0382	0.2163	0.504
Mof_C 	C 	0.4404	0.8908	0.1253	-0.323
Mof_C 	C 	0.4249	0.9161	0.1578	-0.056
Mof_C 	C 	0.45	0.9155	0.1939	0.385
Mof_O 	O 	0.6901	0.8626	0.2401	-0.819
Mof_O 	O 	0.5669	0.9959	0.1124	-0.814
Mof_O 	O 	0.5122	0.945	0.1143	-0.835
Mof_O 	O 	0.7431	0.8619	0.1901	-0.801
Mof_O 	O 	0.619	0.888	0.215	-0.914
Mof_O 	O 	0.6889	0.9249	0.1798	-0.982
Mof_O 	O 	0.5706	0.9365	0.1725	-0.993
Mof_O 	O 	0.642	0.9721	0.1349	-1.013
Mof_O 	O 	0.6705	0.9447	0.2578	-0.724
Mof_O 	O 	0.6831	0.9907	0.3001	-0.678
Mof_O 	O 	0.5734	0.8516	0.2688	-0.628
Mof_O 	O 	0.5371	0.8458	0.3211	-0.32
Mof_O 	O 	0.5913	0.0147	0.2029	-0.71
Mof_O 	O 	0.572	0.0585	0.2466	-0.666
Mof_O 	O 	0.4869	0.9157	0.1895	-0.615
Mof_O 	O 	0.4362	0.9159	0.2267	-0.306
Mof_Nd	Nd	0.13051	0.45746	0.70156	2.706
Mof_Nd	Nd	0.0476	0.3807	0.70766	2.432
Mof_Ge	Ge	0.21648	0.40057	0.71519	1.302
Mof_Ge	Ge	0.13904	0.3612	0.75445	1.309
Mof_Ge	Ge	0.04117	0.47128	0.64982	1.308
Mof_Ge	Ge	0.99561	0.39558	0.61853	1.364
Mof_C 	C 	0.252	0.4306	0.7479	-0.282
Mof_C 	C 	0.2338	0.4456	0.7853	-0.136
Mof_C 	C 	0.1928	0.4624	0.7812	0.551
Mof_C 	C 	0.1363	0.3743	0.8101	-0.285
Mof_C 	C 	0.1054	0.352	0.8295	-0.064
Mof_C 	C 	0.0684	0.3501	0.8067	0.394
Mof_C 	C 	0.0097	0.5046	0.6825	-0.296
Mof_C 	C 	0.0288	0.5441	0.6939	-0.14
Mof_C 	C 	0.0653	0.5382	0.7163	0.504
Mof_C 	C 	0.9404	0.3908	0.6253	-0.323
Mof_C 	C 	0.9249	0.4161	0.6578	-0.056
Mof_C 	C 	0.95	0.4155	0.6939	0.385
Mof_O 	O 	0.1901	0.3626	0.7401	-0.819
Mof_O 	O 	0.0669	0.4959	0.6124	-0.814
Mof_O 	O 	0.0122	0.445	0.6143	-0.835
Mof_O 	O 	0.2431	0.3619	0.6901	-0.801
Mof_O 	O 	0.119	0.388	0.715	-0.914
Mof_O 	O 	0.1889	0.4249	0.6798	-0.982
Mof_O 	O 	0.0706	0.4365	0.6725	-0.993
Mof_O 	O 	0.142	0.4721	0.6349	-1.013
Mof_O 	O 	0.1705	0.4447	0.7578	-0.724
Mof_O 	O 	0.1831	0.4907	0.8001	-0.678
Mof_O 	O 	0.0734	0.3516	0.7688	-0.628
Mof_O 	O 	0.0371	0.3458	0.8211	-0.32
Mof_O 	O 	0.0913	0.5147	0.7029	-0.71
Mof_O 	O 	0.072	0.5585	0.7466	-0.666
Mof_O 	O 	0.9869	0.4157	0.6895	-0.616
Mof_O 	O 	0.9362	0.4159	0.7267	-0.306
Mof_Nd	Nd	0.86949	0.04254	0.70156	2.706
Mof_Nd	Nd	0.9524	0.1193	0.70766	2.432
Mof_Ge	Ge	0.78352	0.09943	0.71519	1.302
Mof_Ge	Ge	0.86096	0.1388	0.75445	1.309
Mof_Ge	Ge	0.95883	0.02872	0.64982	1.308
Mof_Ge	Ge	0.00439	0.10442	0.61853	1.364
Mof_C 	C 	0.748	0.0694	0.7479	-0.282
Mof_C 	C 	0.7662	0.0544	0.7853	-0.136
Mof_C 	C 	0.8072	0.0376	0.7812	0.551
Mof_C 	C 	0.8637	0.1257	0.8101	-0.285
Mof_C 	C 	0.8946	0.148	0.8295	-0.064
Mof_C 	C 	0.9316	0.1499	0.8067	0.394
Mof_C 	C 	0.9903	0.9954	0.6825	-0.296
Mof_C 	C 	0.9712	0.9559	0.6939	-0.14
Mof_C 	C 	0.9347	0.9618	0.7163	0.504
Mof_C 	C 	0.0596	0.1092	0.6253	-0.323
Mof_C 	C 	0.0751	0.0839	0.6578	-0.056
Mof_C 	C 	0.05	0.0845	0.6939	0.385
Mof_O 	O 	0.8099	0.1374	0.7401	-0.819
Mof_O 	O 	0.9331	0.0041	0.6124	-0.814
Mof_O 	O 	0.9878	0.055	0.6143	-0.835
Mof_O 	O 	0.7569	0.1381	0.6901	-0.801
Mof_O 	O 	0.881	0.112	0.715	-0.914
Mof_O 	O 	0.8111	0.0751	0.6798	-0.982
Mof_O 	O 	0.9294	0.0635	0.6725	-0.993
Mof_O 	O 	0.858	0.0279	0.6349	-1.013
Mof_O 	O 	0.8295	0.0553	0.7578	-0.724
Mof_O 	O 	0.8169	0.0093	0.8001	-0.678
Mof_O 	O 	0.9266	0.1484	0.7688	-0.628
Mof_O 	O 	0.9629	0.1542	0.8211	-0.32
Mof_O 	O 	0.9087	0.9853	0.7029	-0.71
Mof_O 	O 	0.928	0.9415	0.7466	-0.666
Mof_O 	O 	0.0131	0.0843	0.6895	-0.616
Mof_O 	O 	0.0638	0.0841	0.7267	-0.307
Mof_Nd	Nd	0.36949	0.54254	0.20156	2.706
Mof_Nd	Nd	0.4524	0.6193	0.20766	2.432
Mof_Ge	Ge	0.28352	0.59943	0.21519	1.302
Mof_Ge	Ge	0.36096	0.6388	0.25445	1.309
Mof_Ge	Ge	0.45883	0.52872	0.14982	1.308
Mof_Ge	Ge	0.50439	0.60442	0.11853	1.365
Mof_C 	C 	0.248	0.5694	0.2479	-0.282
Mof_C 	C 	0.2662	0.5544	0.2853	-0.136
Mof_C 	C 	0.3072	0.5376	0.2812	0.551
Mof_C 	C 	0.3637	0.6257	0.3101	-0.285
Mof_C 	C 	0.3946	0.648	0.3295	-0.064
Mof_C 	C 	0.4316	0.6499	0.3067	0.394
Mof_C 	C 	0.4903	0.4954	0.1825	-0.296
Mof_C 	C 	0.4712	0.4559	0.1939	-0.14
Mof_C 	C 	0.4347	0.4618	0.2163	0.504
Mof_C 	C 	0.5596	0.6092	0.1253	-0.323
Mof_C 	C 	0.5751	0.5839	0.1578	-0.056
Mof_C 	C 	0.55	0.5845	0.1939	0.385
Mof_O 	O 	0.3099	0.6374	0.2401	-0.819
Mof_O 	O 	0.4331	0.5041	0.1124	-0.814
Mof_O 	O 	0.4878	0.555	0.1143	-0.835
Mof_O 	O 	0.2569	0.6381	0.1901	-0.801
Mof_O 	O 	0.381	0.612	0.215	-0.914
Mof_O 	O 	0.3111	0.5751	0.1798	-0.982
Mof_O 	O 	0.4294	0.5635	0.1725	-0.993
Mof_O 	O 	0.358	0.5279	0.1349	-1.013
Mof_O 	O 	0.3295	0.5553	0.2578	-0.724
Mof_O 	O 	0.3169	0.5093	0.3001	-0.678
Mof_O 	O 	0.4266	0.6484	0.2688	-0.628
Mof_O 	O 	0.4629	0.6542	0.3211	-0.32
Mof_O 	O 	0.4087	0.4853	0.2029	-0.71
Mof_O 	O 	0.428	0.4415	0.2466	-0.666
Mof_O 	O 	0.5131	0.5843	0.1895	-0.615
Mof_O 	O 	0.5638	0.5841	0.2267	-0.306
Mof_Nd	Nd	0.29844	0.36949	0.45746	2.706
Mof_Nd	Nd	0.29234	0.4524	0.3807	2.432
Mof_Ge	Ge	0.28481	0.28352	0.40057	1.302
Mof_Ge	Ge	0.24555	0.36096	0.3612	1.309
Mof_Ge	Ge	0.35018	0.45883	0.47128	1.308
Mof_Ge	Ge	0.38147	0.50439	0.39558	1.365
Mof_C 	C 	0.2521	0.248	0.4306	-0.282
Mof_C 	C 	0.2147	0.2662	0.4456	-0.136
Mof_C 	C 	0.2188	0.3072	0.4624	0.551
Mof_C 	C 	0.1899	0.3637	0.3743	-0.285
Mof_C 	C 	0.1705	0.3946	0.352	-0.064
Mof_C 	C 	0.1933	0.4316	0.3501	0.394
Mof_C 	C 	0.3175	0.4903	0.5046	-0.296
Mof_C 	C 	0.3061	0.4712	0.5441	-0.14
Mof_C 	C 	0.2837	0.4347	0.5382	0.504
Mof_C 	C 	0.3747	0.5596	0.3908	-0.323
Mof_C 	C 	0.3422	0.5751	0.4161	-0.056
Mof_C 	C 	0.3061	0.55	0.4155	0.385
Mof_O 	O 	0.2599	0.3099	0.3626	-0.819
Mof_O 	O 	0.3876	0.4331	0.4959	-0.814
Mof_O 	O 	0.3857	0.4878	0.445	-0.835
Mof_O 	O 	0.3099	0.2569	0.3619	-0.801
Mof_O 	O 	0.285	0.381	0.388	-0.914
Mof_O 	O 	0.3202	0.3111	0.4249	-0.982
Mof_O 	O 	0.3275	0.4294	0.4365	-0.993
Mof_O 	O 	0.3651	0.358	0.4721	-1.013
Mof_O 	O 	0.2422	0.3295	0.4447	-0.724
Mof_O 	O 	0.1999	0.3169	0.4907	-0.678
Mof_O 	O 	0.2312	0.4266	0.3516	-0.628
Mof_O 	O 	0.1789	0.4629	0.3458	-0.32
Mof_O 	O 	0.2971	0.4087	0.5147	-0.71
Mof_O 	O 	0.2534	0.428	0.5585	-0.666
Mof_O 	O 	0.3105	0.5131	0.4157	-0.615
Mof_O 	O 	0.2733	0.5638	0.4159	-0.306
Mof_Nd	Nd	0.79844	0.86949	0.95746	2.706
Mof_Nd	Nd	0.79234	0.9524	0.8807	2.432
Mof_Ge	Ge	0.78481	0.78352	0.90057	1.302
Mof_Ge	Ge	0.74555	0.86096	0.8612	1.309
Mof_Ge	Ge	0.85018	0.95883	0.97128	1.308
Mof_Ge	Ge	0.88147	0.00439	0.89558	1.364
Mof_C 	C 	0.7521	0.748	0.9306	-0.282
Mof_C 	C 	0.7147	0.7662	0.9456	-0.136
Mof_C 	C 	0.7188	0.8072	0.9624	0.551
Mof_C 	C 	0.6899	0.8637	0.8743	-0.285
Mof_C 	C 	0.6705	0.8946	0.852	-0.064
Mof_C 	C 	0.6933	0.9316	0.8501	0.394
Mof_C 	C 	0.8175	0.9903	0.0046	-0.296
Mof_C 	C 	0.8061	0.9712	0.0441	-0.14
Mof_C 	C 	0.7837	0.9347	0.0382	0.504
Mof_C 	C 	0.8747	0.0596	0.8908	-0.323
Mof_C 	C 	0.8422	0.0751	0.9161	-0.056
Mof_C 	C 	0.8061	0.05	0.9155	0.385
Mof_O 	O 	0.7599	0.8099	0.8626	-0.819
Mof_O 	O 	0.8876	0.9331	0.9959	-0.814
Mof_O 	O 	0.8857	0.9878	0.945	-0.835
Mof_O 	O 	0.8099	0.7569	0.8619	-0.801
Mof_O 	O 	0.785	0.881	0.888	-0.914
Mof_O 	O 	0.8202	0.8111	0.9249	-0.982
Mof_O 	O 	0.8275	0.9294	0.9365	-0.993
Mof_O 	O 	0.8651	0.858	0.9721	-1.013
Mof_O 	O 	0.7422	0.8295	0.9447	-0.724
Mof_O 	O 	0.6999	0.8169	0.9907	-0.678
Mof_O 	O 	0.7312	0.9266	0.8516	-0.628
Mof_O 	O 	0.6789	0.9629	0.8458	-0.32
Mof_O 	O 	0.7971	0.9087	0.0147	-0.71
Mof_O 	O 	0.7534	0.928	0.0585	-0.666
Mof_O 	O 	0.8105	0.0131	0.9157	-0.616
Mof_O 	O 	0.7733	0.0638	0.9159	-0.307
Mof_Nd	Nd	0.79844	0.13051	0.54254	2.706
Mof_Nd	Nd	0.79234	0.0476	0.6193	2.432
Mof_Ge	Ge	0.78481	0.21648	0.59943	1.302
Mof_Ge	Ge	0.74555	0.13904	0.6388	1.309
Mof_Ge	Ge	0.85018	0.04117	0.52872	1.308
Mof_Ge	Ge	0.88147	0.99561	0.60442	1.364
Mof_C 	C 	0.7521	0.252	0.5694	-0.282
Mof_C 	C 	0.7147	0.2338	0.5544	-0.136
Mof_C 	C 	0.7188	0.1928	0.5376	0.551
Mof_C 	C 	0.6899	0.1363	0.6257	-0.285
Mof_C 	C 	0.6705	0.1054	0.648	-0.064
Mof_C 	C 	0.6933	0.0684	0.6499	0.394
Mof_C 	C 	0.8175	0.0097	0.4954	-0.296
Mof_C 	C 	0.8061	0.0288	0.4559	-0.14
Mof_C 	C 	0.7837	0.0653	0.4618	0.504
Mof_C 	C 	0.8747	0.9404	0.6092	-0.323
Mof_C 	C 	0.8422	0.9249	0.5839	-0.056
Mof_C 	C 	0.8061	0.95	0.5845	0.385
Mof_O 	O 	0.7599	0.1901	0.6374	-0.819
Mof_O 	O 	0.8876	0.0669	0.5041	-0.814
Mof_O 	O 	0.8857	0.0122	0.555	-0.835
Mof_O 	O 	0.8099	0.2431	0.6381	-0.801
Mof_O 	O 	0.785	0.119	0.612	-0.914
Mof_O 	O 	0.8202	0.1889	0.5751	-0.982
Mof_O 	O 	0.8275	0.0706	0.5635	-0.993
Mof_O 	O 	0.8651	0.142	0.5279	-1.013
Mof_O 	O 	0.7422	0.1705	0.5553	-0.724
Mof_O 	O 	0.6999	0.1831	0.5093	-0.678
Mof_O 	O 	0.7312	0.0734	0.6484	-0.628
Mof_O 	O 	0.6789	0.0371	0.6542	-0.32
Mof_O 	O 	0.7971	0.0913	0.4853	-0.71
Mof_O 	O 	0.7534	0.072	0.4415	-0.666
Mof_O 	O 	0.8105	0.9869	0.5843	-0.616
Mof_O 	O 	0.7733	0.9362	0.5841	-0.306
Mof_Nd	Nd	0.29844	0.63051	0.04254	2.706
Mof_Nd	Nd	0.29234	0.5476	0.1193	2.432
Mof_Ge	Ge	0.28481	0.71648	0.09943	1.302
Mof_Ge	Ge	0.24555	0.63904	0.1388	1.309
Mof_Ge	Ge	0.35018	0.54117	0.02872	1.308
Mof_Ge	Ge	0.38147	0.49561	0.10442	1.365
Mof_C 	C 	0.2521	0.752	0.0694	-0.282
Mof_C 	C 	0.2147	0.7338	0.0544	-0.136
Mof_C 	C 	0.2188	0.6928	0.0376	0.551
Mof_C 	C 	0.1899	0.6363	0.1257	-0.285
Mof_C 	C 	0.1705	0.6054	0.148	-0.064
Mof_C 	C 	0.1933	0.5684	0.1499	0.394
Mof_C 	C 	0.3175	0.5097	0.9954	-0.296
Mof_C 	C 	0.3061	0.5288	0.9559	-0.14
Mof_C 	C 	0.2837	0.5653	0.9618	0.504
Mof_C 	C 	0.3747	0.4404	0.1092	-0.323
Mof_C 	C 	0.3422	0.4249	0.0839	-0.056
Mof_C 	C 	0.3061	0.45	0.0845	0.385
Mof_O 	O 	0.2599	0.6901	0.1374	-0.819
Mof_O 	O 	0.3876	0.5669	0.0041	-0.814
Mof_O 	O 	0.3857	0.5122	0.055	-0.835
Mof_O 	O 	0.3099	0.7431	0.1381	-0.801
Mof_O 	O 	0.285	0.619	0.112	-0.914
Mof_O 	O 	0.3202	0.6889	0.0751	-0.982
Mof_O 	O 	0.3275	0.5706	0.0635	-0.993
Mof_O 	O 	0.3651	0.642	0.0279	-1.013
Mof_O 	O 	0.2422	0.6705	0.0553	-0.724
Mof_O 	O 	0.1999	0.6831	0.0093	-0.678
Mof_O 	O 	0.2312	0.5734	0.1484	-0.628
Mof_O 	O 	0.1789	0.5371	0.1542	-0.32
Mof_O 	O 	0.2971	0.5913	0.9853	-0.71
Mof_O 	O 	0.2534	0.572	0.9415	-0.666
Mof_O 	O 	0.3105	0.4869	0.0843	-0.615
Mof_O 	O 	0.2733	0.4362	0.0841	-0.306
Mof_Nd	Nd	0.20156	0.63051	0.95746	2.706
Mof_Nd	Nd	0.20766	0.5476	0.8807	2.432
Mof_Ge	Ge	0.21519	0.71648	0.90057	1.302
Mof_Ge	Ge	0.25445	0.63904	0.8612	1.309
Mof_Ge	Ge	0.14982	0.54117	0.97128	1.308
Mof_Ge	Ge	0.11853	0.49561	0.89558	1.365
Mof_C 	C 	0.2479	0.752	0.9306	-0.282
Mof_C 	C 	0.2853	0.7338	0.9456	-0.136
Mof_C 	C 	0.2812	0.6928	0.9624	0.551
Mof_C 	C 	0.3101	0.6363	0.8743	-0.285
Mof_C 	C 	0.3295	0.6054	0.852	-0.064
Mof_C 	C 	0.3067	0.5684	0.8501	0.394
Mof_C 	C 	0.1825	0.5097	0.0046	-0.296
Mof_C 	C 	0.1939	0.5288	0.0441	-0.14
Mof_C 	C 	0.2163	0.5653	0.0382	0.504
Mof_C 	C 	0.1253	0.4404	0.8908	-0.323
Mof_C 	C 	0.1578	0.4249	0.9161	-0.056
Mof_C 	C 	0.1939	0.45	0.9155	0.385
Mof_O 	O 	0.2401	0.6901	0.8626	-0.819
Mof_O 	O 	0.1124	0.5669	0.9959	-0.814
Mof_O 	O 	0.1143	0.5122	0.945	-0.835
Mof_O 	O 	0.1901	0.7431	0.8619	-0.801
Mof_O 	O 	0.215	0.619	0.888	-0.914
Mof_O 	O 	0.1798	0.6889	0.9249	-0.982
Mof_O 	O 	0.1725	0.5706	0.9365	-0.993
Mof_O 	O 	0.1349	0.642	0.9721	-1.013
Mof_O 	O 	0.2578	0.6705	0.9447	-0.724
Mof_O 	O 	0.3001	0.6831	0.9907	-0.678
Mof_O 	O 	0.2688	0.5734	0.8516	-0.628
Mof_O 	O 	0.3211	0.5371	0.8458	-0.32
Mof_O 	O 	0.2029	0.5913	0.0147	-0.71
Mof_O 	O 	0.2466	0.572	0.0585	-0.666
Mof_O 	O 	0.1895	0.4869	0.9157	-0.615
Mof_O 	O 	0.2267	0.4362	0.9159	-0.306
Mof_Nd	Nd	0.70156	0.13051	0.45746	2.706
Mof_Nd	Nd	0.70766	0.0476	0.3807	2.432
Mof_Ge	Ge	0.71519	0.21648	0.40057	1.302
Mof_Ge	Ge	0.75445	0.13904	0.3612	1.309
Mof_Ge	Ge	0.64982	0.04117	0.47128	1.308
Mof_Ge	Ge	0.61853	0.99561	0.39558	1.364
Mof_C 	C 	0.7479	0.252	0.4306	-0.282
Mof_C 	C 	0.7853	0.2338	0.4456	-0.136
Mof_C 	C 	0.7812	0.1928	0.4624	0.551
Mof_C 	C 	0.8101	0.1363	0.3743	-0.285
Mof_C 	C 	0.8295	0.1054	0.352	-0.064
Mof_C 	C 	0.8067	0.0684	0.3501	0.394
Mof_C 	C 	0.6825	0.0097	0.5046	-0.296
Mof_C 	C 	0.6939	0.0288	0.5441	-0.14
Mof_C 	C 	0.7163	0.0653	0.5382	0.504
Mof_C 	C 	0.6253	0.9404	0.3908	-0.323
Mof_C 	C 	0.6578	0.9249	0.4161	-0.056
Mof_C 	C 	0.6939	0.95	0.4155	0.385
Mof_O 	O 	0.7401	0.1901	0.3626	-0.819
Mof_O 	O 	0.6124	0.0669	0.4959	-0.814
Mof_O 	O 	0.6143	0.0122	0.445	-0.835
Mof_O 	O 	0.6901	0.2431	0.3619	-0.801
Mof_O 	O 	0.715	0.119	0.388	-0.914
Mof_O 	O 	0.6798	0.1889	0.4249	-0.982
Mof_O 	O 	0.6725	0.0706	0.4365	-0.993
Mof_O 	O 	0.6349	0.142	0.4721	-1.013
Mof_O 	O 	0.7578	0.1705	0.4447	-0.724
Mof_O 	O 	0.8001	0.1831	0.4907	-0.678
Mof_O 	O 	0.7688	0.0734	0.3516	-0.628
Mof_O 	O 	0.8211	0.0371	0.3458	-0.32
Mof_O 	O 	0.7029	0.0913	0.5147	-0.71
Mof_O 	O 	0.7466	0.072	0.5585	-0.666
Mof_O 	O 	0.6895	0.9869	0.4157	-0.616
Mof_O 	O 	0.7267	0.9362	0.4159	-0.306
Mof_Nd	Nd	0.70156	0.86949	0.04254	2.706
Mof_Nd	Nd	0.70766	0.9524	0.1193	2.432
Mof_Ge	Ge	0.71519	0.78352	0.09943	1.302
Mof_Ge	Ge	0.75445	0.86096	0.1388	1.309
Mof_Ge	Ge	0.64982	0.95883	0.02872	1.308
Mof_Ge	Ge	0.61853	0.00439	0.10442	1.364
Mof_C 	C 	0.7479	0.748	0.0694	-0.282
Mof_C 	C 	0.7853	0.7662	0.0544	-0.136
Mof_C 	C 	0.7812	0.8072	0.0376	0.551
Mof_C 	C 	0.8101	0.8637	0.1257	-0.285
Mof_C 	C 	0.8295	0.8946	0.148	-0.064
Mof_C 	C 	0.8067	0.9316	0.1499	0.394
Mof_C 	C 	0.6825	0.9903	0.9954	-0.296
Mof_C 	C 	0.6939	0.9712	0.9559	-0.14
Mof_C 	C 	0.7163	0.9347	0.9618	0.504
Mof_C 	C 	0.6253	0.0596	0.1092	-0.323
Mof_C 	C 	0.6578	0.0751	0.0839	-0.056
Mof_C 	C 	0.6939	0.05	0.0845	0.385
Mof_O 	O 	0.7401	0.8099	0.1374	-0.819
Mof_O 	O 	0.6124	0.9331	0.0041	-0.814
Mof_O 	O 	0.6143	0.9878	0.055	-0.835
Mof_O 	O 	0.6901	0.7569	0.1381	-0.801
Mof_O 	O 	0.715	0.881	0.112	-0.914
Mof_O 	O 	0.6798	0.8111	0.0751	-0.982
Mof_O 	O 	0.6725	0.9294	0.0635	-0.993
Mof_O 	O 	0.6349	0.858	0.0279	-1.013
Mof_O 	O 	0.7578	0.8295	0.0553	-0.724
Mof_O 	O 	0.8001	0.8169	0.0093	-0.678
Mof_O 	O 	0.7688	0.9266	0.1484	-0.628
Mof_O 	O 	0.8211	0.9629	0.1542	-0.32
Mof_O 	O 	0.7029	0.9087	0.9853	-0.71
Mof_O 	O 	0.7466	0.928	0.9415	-0.666
Mof_O 	O 	0.6895	0.0131	0.0843	-0.616
Mof_O 	O 	0.7267	0.0638	0.0841	-0.307
Mof_Nd	Nd	0.20156	0.36949	0.54254	2.706
Mof_Nd	Nd	0.20766	0.4524	0.6193	2.432
Mof_Ge	Ge	0.21519	0.28352	0.59943	1.302
Mof_Ge	Ge	0.25445	0.36096	0.6388	1.309
Mof_Ge	Ge	0.14982	0.45883	0.52872	1.308
Mof_Ge	Ge	0.11853	0.50439	0.60442	1.365
Mof_C 	C 	0.2479	0.248	0.5694	-0.282
Mof_C 	C 	0.2853	0.2662	0.5544	-0.136
Mof_C 	C 	0.2812	0.3072	0.5376	0.551
Mof_C 	C 	0.3101	0.3637	0.6257	-0.285
Mof_C 	C 	0.3295	0.3946	0.648	-0.064
Mof_C 	C 	0.3067	0.4316	0.6499	0.394
Mof_C 	C 	0.1825	0.4903	0.4954	-0.296
Mof_C 	C 	0.1939	0.4712	0.4559	-0.14
Mof_C 	C 	0.2163	0.4347	0.4618	0.504
Mof_C 	C 	0.1253	0.5596	0.6092	-0.323
Mof_C 	C 	0.1578	0.5751	0.5839	-0.056
Mof_C 	C 	0.1939	0.55	0.5845	0.385
Mof_O 	O 	0.2401	0.3099	0.6374	-0.819
Mof_O 	O 	0.1124	0.4331	0.5041	-0.814
Mof_O 	O 	0.1143	0.4878	0.555	-0.835
Mof_O 	O 	0.1901	0.2569	0.6381	-0.801
Mof_O 	O 	0.215	0.381	0.612	-0.914
Mof_O 	O 	0.1798	0.3111	0.5751	-0.982
Mof_O 	O 	0.1725	0.4294	0.5635	-0.993
Mof_O 	O 	0.1349	0.358	0.5279	-1.013
Mof_O 	O 	0.2578	0.3295	0.5553	-0.724
Mof_O 	O 	0.3001	0.3169	0.5093	-0.678
Mof_O 	O 	0.2688	0.4266	0.6484	-0.628
Mof_O 	O 	0.3211	0.4629	0.6542	-0.32
Mof_O 	O 	0.2029	0.4087	0.4853	-0.71
Mof_O 	O 	0.2466	0.428	0.4415	-0.666
Mof_O 	O 	0.1895	0.5131	0.5843	-0.615
Mof_O 	O 	0.2267	0.5638	0.5841	-0.306
Mof_Nd	Nd	0.45746	0.29844	0.36949	2.706
Mof_Nd	Nd	0.3807	0.29234	0.4524	2.432
Mof_Ge	Ge	0.40057	0.28481	0.28352	1.302
Mof_Ge	Ge	0.3612	0.24555	0.36096	1.309
Mof_Ge	Ge	0.47128	0.35018	0.45883	1.308
Mof_Ge	Ge	0.39558	0.38147	0.50439	1.365
Mof_C 	C 	0.4306	0.2521	0.248	-0.282
Mof_C 	C 	0.4456	0.2147	0.2662	-0.136
Mof_C 	C 	0.4624	0.2188	0.3072	0.551
Mof_C 	C 	0.3743	0.1899	0.3637	-0.285
Mof_C 	C 	0.352	0.1705	0.3946	-0.064
Mof_C 	C 	0.3501	0.1933	0.4316	0.394
Mof_C 	C 	0.5046	0.3175	0.4903	-0.296
Mof_C 	C 	0.5441	0.3061	0.4712	-0.14
Mof_C 	C 	0.5382	0.2837	0.4347	0.504
Mof_C 	C 	0.3908	0.3747	0.5596	-0.323
Mof_C 	C 	0.4161	0.3422	0.5751	-0.056
Mof_C 	C 	0.4155	0.3061	0.55	0.385
Mof_O 	O 	0.3626	0.2599	0.3099	-0.819
Mof_O 	O 	0.4959	0.3876	0.4331	-0.814
Mof_O 	O 	0.445	0.3857	0.4878	-0.835
Mof_O 	O 	0.3619	0.3099	0.2569	-0.801
Mof_O 	O 	0.388	0.285	0.381	-0.914
Mof_O 	O 	0.4249	0.3202	0.3111	-0.982
Mof_O 	O 	0.4365	0.3275	0.4294	-0.993
Mof_O 	O 	0.4721	0.3651	0.358	-1.013
Mof_O 	O 	0.4447	0.2422	0.3295	-0.724
Mof_O 	O 	0.4907	0.1999	0.3169	-0.678
Mof_O 	O 	0.3516	0.2312	0.4266	-0.628
Mof_O 	O 	0.3458	0.1789	0.4629	-0.32
Mof_O 	O 	0.5147	0.2971	0.4087	-0.71
Mof_O 	O 	0.5585	0.2534	0.428	-0.666
Mof_O 	O 	0.4157	0.3105	0.5131	-0.615
Mof_O 	O 	0.4159	0.2733	0.5638	-0.306
Mof_Nd	Nd	0.95746	0.79844	0.86949	2.706
Mof_Nd	Nd	0.8807	0.79234	0.9524	2.432
Mof_Ge	Ge	0.90057	0.78481	0.78352	1.302
Mof_Ge	Ge	0.8612	0.74555	0.86096	1.309
Mof_Ge	Ge	0.97128	0.85018	0.95883	1.308
Mof_Ge	Ge	0.89558	0.88147	0.00439	1.364
Mof_C 	C 	0.9306	0.7521	0.748	-0.282
Mof_C 	C 	0.9456	0.7147	0.7662	-0.136
Mof_C 	C 	0.9624	0.7188	0.8072	0.551
Mof_C 	C 	0.8743	0.6899	0.8637	-0.285
Mof_C 	C 	0.852	0.6705	0.8946	-0.064
Mof_C 	C 	0.8501	0.6933	0.9316	0.394
Mof_C 	C 	0.0046	0.8175	0.9903	-0.296
Mof_C 	C 	0.0441	0.8061	0.9712	-0.14
Mof_C 	C 	0.0382	0.7837	0.9347	0.504
Mof_C 	C 	0.8908	0.8747	0.0596	-0.323
Mof_C 	C 	0.9161	0.8422	0.0751	-0.056
Mof_C 	C 	0.9155	0.8061	0.05	0.385
Mof_O 	O 	0.8626	0.7599	0.8099	-0.819
Mof_O 	O 	0.9959	0.8876	0.9331	-0.814
Mof_O 	O 	0.945	0.8857	0.9878	-0.835
Mof_O 	O 	0.8619	0.8099	0.7569	-0.801
Mof_O 	O 	0.888	0.785	0.881	-0.914
Mof_O 	O 	0.9249	0.8202	0.8111	-0.982
Mof_O 	O 	0.9365	0.8275	0.9294	-0.993
Mof_O 	O 	0.9721	0.8651	0.858	-1.013
Mof_O 	O 	0.9447	0.7422	0.8295	-0.724
Mof_O 	O 	0.9907	0.6999	0.8169	-0.678
Mof_O 	O 	0.8516	0.7312	0.9266	-0.628
Mof_O 	O 	0.8458	0.6789	0.9629	-0.32
Mof_O 	O 	0.0147	0.7971	0.9087	-0.71
Mof_O 	O 	0.0585	0.7534	0.928	-0.666
Mof_O 	O 	0.9157	0.8105	0.0131	-0.616
Mof_O 	O 	0.9159	0.7733	0.0638	-0.307
Mof_Nd	Nd	0.54254	0.79844	0.13051	2.706
Mof_Nd	Nd	0.6193	0.79234	0.0476	2.432
Mof_Ge	Ge	0.59943	0.78481	0.21648	1.302
Mof_Ge	Ge	0.6388	0.74555	0.13904	1.309
Mof_Ge	Ge	0.52872	0.85018	0.04117	1.308
Mof_Ge	Ge	0.60442	0.88147	0.99561	1.364
Mof_C 	C 	0.5694	0.7521	0.252	-0.282
Mof_C 	C 	0.5544	0.7147	0.2338	-0.136
Mof_C 	C 	0.5376	0.7188	0.1928	0.551
Mof_C 	C 	0.6257	0.6899	0.1363	-0.285
Mof_C 	C 	0.648	0.6705	0.1054	-0.064
Mof_C 	C 	0.6499	0.6933	0.0684	0.394
Mof_C 	C 	0.4954	0.8175	0.0097	-0.296
Mof_C 	C 	0.4559	0.8061	0.0288	-0.14
Mof_C 	C 	0.4618	0.7837	0.0653	0.504
Mof_C 	C 	0.6092	0.8747	0.9404	-0.323
Mof_C 	C 	0.5839	0.8422	0.9249	-0.056
Mof_C 	C 	0.5845	0.8061	0.95	0.385
Mof_O 	O 	0.6374	0.7599	0.1901	-0.819
Mof_O 	O 	0.5041	0.8876	0.0669	-0.814
Mof_O 	O 	0.555	0.8857	0.0122	-0.835
Mof_O 	O 	0.6381	0.8099	0.2431	-0.801
Mof_O 	O 	0.612	0.785	0.119	-0.914
Mof_O 	O 	0.5751	0.8202	0.1889	-0.982
Mof_O 	O 	0.5635	0.8275	0.0706	-0.993
Mof_O 	O 	0.5279	0.8651	0.142	-1.013
Mof_O 	O 	0.5553	0.7422	0.1705	-0.724
Mof_O 	O 	0.5093	0.6999	0.1831	-0.678
Mof_O 	O 	0.6484	0.7312	0.0734	-0.628
Mof_O 	O 	0.6542	0.6789	0.0371	-0.32
Mof_O 	O 	0.4853	0.7971	0.0913	-0.71
Mof_O 	O 	0.4415	0.7534	0.072	-0.666
Mof_O 	O 	0.5843	0.8105	0.9869	-0.616
Mof_O 	O 	0.5841	0.7733	0.9362	-0.306
Mof_Nd	Nd	0.04254	0.29844	0.63051	2.706
Mof_Nd	Nd	0.1193	0.29234	0.5476	2.432
Mof_Ge	Ge	0.09943	0.28481	0.71648	1.302
Mof_Ge	Ge	0.1388	0.24555	0.63904	1.309
Mof_Ge	Ge	0.02872	0.35018	0.54117	1.308
Mof_Ge	Ge	0.10442	0.38147	0.49561	1.365
Mof_C 	C 	0.0694	0.2521	0.752	-0.282
Mof_C 	C 	0.0544	0.2147	0.7338	-0.136
Mof_C 	C 	0.0376	0.2188	0.6928	0.551
Mof_C 	C 	0.1257	0.1899	0.6363	-0.285
Mof_C 	C 	0.148	0.1705	0.6054	-0.064
Mof_C 	C 	0.1499	0.1933	0.5684	0.394
Mof_C 	C 	0.9954	0.3175	0.5097	-0.296
Mof_C 	C 	0.9559	0.3061	0.5288	-0.14
Mof_C 	C 	0.9618	0.2837	0.5653	0.504
Mof_C 	C 	0.1092	0.3747	0.4404	-0.323
Mof_C 	C 	0.0839	0.3422	0.4249	-0.056
Mof_C 	C 	0.0845	0.3061	0.45	0.385
Mof_O 	O 	0.1374	0.2599	0.6901	-0.819
Mof_O 	O 	0.0041	0.3876	0.5669	-0.814
Mof_O 	O 	0.055	0.3857	0.5122	-0.835
Mof_O 	O 	0.1381	0.3099	0.7431	-0.801
Mof_O 	O 	0.112	0.285	0.619	-0.914
Mof_O 	O 	0.0751	0.3202	0.6889	-0.982
Mof_O 	O 	0.0635	0.3275	0.5706	-0.993
Mof_O 	O 	0.0279	0.3651	0.642	-1.013
Mof_O 	O 	0.0553	0.2422	0.6705	-0.724
Mof_O 	O 	0.0093	0.1999	0.6831	-0.678
Mof_O 	O 	0.1484	0.2312	0.5734	-0.628
Mof_O 	O 	0.1542	0.1789	0.5371	-0.32
Mof_O 	O 	0.9853	0.2971	0.5913	-0.71
Mof_O 	O 	0.9415	0.2534	0.572	-0.666
Mof_O 	O 	0.0843	0.3105	0.4869	-0.615
Mof_O 	O 	0.0841	0.2733	0.4362	-0.306
Mof_Nd	Nd	0.95746	0.20156	0.63051	2.706
Mof_Nd	Nd	0.8807	0.20766	0.5476	2.432
Mof_Ge	Ge	0.90057	0.21519	0.71648	1.302
Mof_Ge	Ge	0.8612	0.25445	0.63904	1.309
Mof_Ge	Ge	0.97128	0.14982	0.54117	1.308
Mof_Ge	Ge	0.89558	0.11853	0.49561	1.365
Mof_C 	C 	0.9306	0.2479	0.752	-0.282
Mof_C 	C 	0.9456	0.2853	0.7338	-0.136
Mof_C 	C 	0.9624	0.2812	0.6928	0.551
Mof_C 	C 	0.8743	0.3101	0.6363	-0.285
Mof_C 	C 	0.852	0.3295	0.6054	-0.064
Mof_C 	C 	0.8501	0.3067	0.5684	0.394
Mof_C 	C 	0.0046	0.1825	0.5097	-0.296
Mof_C 	C 	0.0441	0.1939	0.5288	-0.14
Mof_C 	C 	0.0382	0.2163	0.5653	0.504
Mof_C 	C 	0.8908	0.1253	0.4404	-0.323
Mof_C 	C 	0.9161	0.1578	0.4249	-0.056
Mof_C 	C 	0.9155	0.1939	0.45	0.385
Mof_O 	O 	0.8626	0.2401	0.6901	-0.819
Mof_O 	O 	0.9959	0.1124	0.5669	-0.814
Mof_O 	O 	0.945	0.1143	0.5122	-0.835
Mof_O 	O 	0.8619	0.1901	0.7431	-0.801
Mof_O 	O 	0.888	0.215	0.619	-0.914
Mof_O 	O 	0.9249	0.1798	0.6889	-0.982
Mof_O 	O 	0.9365	0.1725	0.5706	-0.993
Mof_O 	O 	0.9721	0.1349	0.642	-1.013
Mof_O 	O 	0.9447	0.2578	0.6705	-0.724
Mof_O 	O 	0.9907	0.3001	0.6831	-0.678
Mof_O 	O 	0.8516	0.2688	0.5734	-0.628
Mof_O 	O 	0.8458	0.3211	0.5371	-0.32
Mof_O 	O 	0.0147	0.2029	0.5913	-0.71
Mof_O 	O 	0.0585	0.2466	0.572	-0.666
Mof_O 	O 	0.9157	0.1895	0.4869	-0.615
Mof_O 	O 	0.9159	0.2267	0.4362	-0.306
Mof_Nd	Nd	0.45746	0.70156	0.13051	2.706
Mof_Nd	Nd	0.3807	0.70766	0.0476	2.432
Mof_Ge	Ge	0.40057	0.71519	0.21648	1.302
Mof_Ge	Ge	0.3612	0.75445	0.13904	1.309
Mof_Ge	Ge	0.47128	0.64982	0.04117	1.308
Mof_Ge	Ge	0.39558	0.61853	0.99561	1.364
Mof_C 	C 	0.4306	0.7479	0.252	-0.282
Mof_C 	C 	0.4456	0.7853	0.2338	-0.136
Mof_C 	C 	0.4624	0.7812	0.1928	0.551
Mof_C 	C 	0.3743	0.8101	0.1363	-0.285
Mof_C 	C 	0.352	0.8295	0.1054	-0.064
Mof_C 	C 	0.3501	0.8067	0.0684	0.394
Mof_C 	C 	0.5046	0.6825	0.0097	-0.296
Mof_C 	C 	0.5441	0.6939	0.0288	-0.14
Mof_C 	C 	0.5382	0.7163	0.0653	0.504
Mof_C 	C 	0.3908	0.6253	0.9404	-0.323
Mof_C 	C 	0.4161	0.6578	0.9249	-0.056
Mof_C 	C 	0.4155	0.6939	0.95	0.385
Mof_O 	O 	0.3626	0.7401	0.1901	-0.819
Mof_O 	O 	0.4959	0.6124	0.0669	-0.814
Mof_O 	O 	0.445	0.6143	0.0122	-0.835
Mof_O 	O 	0.3619	0.6901	0.2431	-0.801
Mof_O 	O 	0.388	0.715	0.119	-0.914
Mof_O 	O 	0.4249	0.6798	0.1889	-0.982
Mof_O 	O 	0.4365	0.6725	0.0706	-0.993
Mof_O 	O 	0.4721	0.6349	0.142	-1.013
Mof_O 	O 	0.4447	0.7578	0.1705	-0.724
Mof_O 	O 	0.4907	0.8001	0.1831	-0.678
Mof_O 	O 	0.3516	0.7688	0.0734	-0.628
Mof_O 	O 	0.3458	0.8211	0.0371	-0.32
Mof_O 	O 	0.5147	0.7029	0.0913	-0.71
Mof_O 	O 	0.5585	0.7466	0.072	-0.666
Mof_O 	O 	0.4157	0.6895	0.9869	-0.616
Mof_O 	O 	0.4159	0.7267	0.9362	-0.306
Mof_Nd	Nd	0.04254	0.70156	0.86949	2.706
Mof_Nd	Nd	0.1193	0.70766	0.9524	2.432
Mof_Ge	Ge	0.09943	0.71519	0.78352	1.302
Mof_Ge	Ge	0.1388	0.75445	0.86096	1.309
Mof_Ge	Ge	0.02872	0.64982	0.95883	1.308
Mof_Ge	Ge	0.10442	0.61853	0.00439	1.364
Mof_C 	C 	0.0694	0.7479	0.748	-0.282
Mof_C 	C 	0.0544	0.7853	0.7662	-0.136
Mof_C 	C 	0.0376	0.7812	0.8072	0.551
Mof_C 	C 	0.1257	0.8101	0.8637	-0.285
Mof_C 	C 	0.148	0.8295	0.8946	-0.064
Mof_C 	C 	0.1499	0.8067	0.9316	0.394
Mof_C 	C 	0.9954	0.6825	0.9903	-0.296
Mof_C 	C 	0.9559	0.6939	0.9712	-0.14
Mof_C 	C 	0.9618	0.7163	0.9347	0.504
Mof_C 	C 	0.1092	0.6253	0.0596	-0.323
Mof_C 	C 	0.0839	0.6578	0.0751	-0.056
Mof_C 	C 	0.0845	0.6939	0.05	0.385
Mof_O 	O 	0.1374	0.7401	0.8099	-0.819
Mof_O 	O 	0.0041	0.6124	0.9331	-0.814
Mof_O 	O 	0.055	0.6143	0.9878	-0.835
Mof_O 	O 	0.1381	0.6901	0.7569	-0.801
Mof_O 	O 	0.112	0.715	0.881	-0.914
Mof_O 	O 	0.0751	0.6798	0.8111	-0.982
Mof_O 	O 	0.0635	0.6725	0.9294	-0.993
Mof_O 	O 	0.0279	0.6349	0.858	-1.013
Mof_O 	O 	0.0553	0.7578	0.8295	-0.724
Mof_O 	O 	0.0093	0.8001	0.8169	-0.678
Mof_O 	O 	0.1484	0.7688	0.9266	-0.628
Mof_O 	O 	0.1542	0.8211	0.9629	-0.32
Mof_O 	O 	0.9853	0.7029	0.9087	-0.71
Mof_O 	O 	0.9415	0.7466	0.928	-0.666
Mof_O 	O 	0.0843	0.6895	0.0131	-0.616
Mof_O 	O 	0.0841	0.7267	0.0638	-0.307
Mof_Nd	Nd	0.54254	0.20156	0.36949	2.706
Mof_Nd	Nd	0.6193	0.20766	0.4524	2.432
Mof_Ge	Ge	0.59943	0.21519	0.28352	1.302
Mof_Ge	Ge	0.6388	0.25445	0.36096	1.309
Mof_Ge	Ge	0.52872	0.14982	0.45883	1.308
Mof_Ge	Ge	0.60442	0.11853	0.50439	1.365
Mof_C 	C 	0.5694	0.2479	0.248	-0.282
Mof_C 	C 	0.5544	0.2853	0.2662	-0.136
Mof_C 	C 	0.5376	0.2812	0.3072	0.551
Mof_C 	C 	0.6257	0.3101	0.3637	-0.285
Mof_C 	C 	0.648	0.3295	0.3946	-0.064
Mof_C 	C 	0.6499	0.3067	0.4316	0.394
Mof_C 	C 	0.4954	0.1825	0.4903	-0.296
Mof_C 	C 	0.4559	0.1939	0.4712	-0.14
Mof_C 	C 	0.4618	0.2163	0.4347	0.504
Mof_C 	C 	0.6092	0.1253	0.5596	-0.323
Mof_C 	C 	0.5839	0.1578	0.5751	-0.056
Mof_C 	C 	0.5845	0.1939	0.55	0.385
Mof_O 	O 	0.6374	0.2401	0.3099	-0.819
Mof_O 	O 	0.5041	0.1124	0.4331	-0.814
Mof_O 	O 	0.555	0.1143	0.4878	-0.835
Mof_O 	O 	0.6381	0.1901	0.2569	-0.801
Mof_O 	O 	0.612	0.215	0.381	-0.914
Mof_O 	O 	0.5751	0.1798	0.3111	-0.982
Mof_O 	O 	0.5635	0.1725	0.4294	-0.993
Mof_O 	O 	0.5279	0.1349	0.358	-1.013
Mof_O 	O 	0.5553	0.2578	0.3295	-0.724
Mof_O 	O 	0.5093	0.3001	0.3169	-0.678
Mof_O 	O 	0.6484	0.2688	0.4266	-0.628
Mof_O 	O 	0.6542	0.3211	0.4629	-0.32
Mof_O 	O 	0.4853	0.2029	0.4087	-0.71
Mof_O 	O 	0.4415	0.2466	0.428	-0.666
Mof_O 	O 	0.5843	0.1895	0.5131	-0.615
Mof_O 	O 	0.5841	0.2267	0.5638	-0.306
Mof_Nd	Nd	0.30115	0.30115	0.30115	1.789
Mof_Nd	Nd	0.45012	0.45012	0.45012	1.649
Mof_Nd	Nd	0.80115	0.80115	0.80115	1.789
Mof_Nd	Nd	0.95012	0.95012	0.95012	1.648
Mof_Nd	Nd	0.19885	0.69885	0.80115	1.789
Mof_Nd	Nd	0.04988	0.54988	0.95012	1.648
Mof_Nd	Nd	0.69885	0.19885	0.30115	1.789
Mof_Nd	Nd	0.54988	0.04988	0.45012	1.649
Mof_Nd	Nd	0.69885	0.80115	0.19885	1.789
Mof_Nd	Nd	0.54988	0.95012	0.04988	1.648
Mof_Nd	Nd	0.19885	0.30115	0.69885	1.789
Mof_Nd	Nd	0.04988	0.45012	0.54988	1.649
Mof_Nd	Nd	0.80115	0.19885	0.69885	1.789
Mof_Nd	Nd	0.95012	0.04988	0.54988	1.648
Mof_Nd	Nd	0.30115	0.69885	0.19885	1.789
Mof_Nd	Nd	0.45012	0.54988	0.04988	1.649
_end
