data_functionalizedCrystal
_audit_creation_method	'EQeq! by Chris Wilmer'
_symmetry_space_group_name_H-M	'P1'
_symmetry_Int_Tables_number	1
_symmetry_cell_setting	triclinic
loop_
_symmetry_equiv_pos_as_xyz
  x,y,z
_cell_length_a	30.41
_cell_length_b	17.909
_cell_length_c	10.567
_cell_angle_alpha	90
_cell_angle_beta	107.1
_cell_angle_gamma	90
loop_
_atom_site_label
_atom_site_type_symbol
_atom_site_fract_x
_atom_site_fract_y
_atom_site_fract_z
_atom_site_charge
Mof_W 	W 	0.60843	0.8157	0.34243	0.629
Mof_W 	W 	0.89161	0.6306	0.15819	0.5
Mof_Co	Co	0.42394	0.8353	0.1835	1.117
Mof_Co	Co	0.57647	0.1111	0.3189	1.139
Mof_Co	Co	0.75	0.7245	0.7503	1.08
Mof_N 	N 	0.3483	0.8393	0.093	-0.223
Mof_C 	C 	0.3231	0.8763	0.981	0.084
Mof_H 	H 	0.3383	0.9053	0.9317	0.006
Mof_C 	C 	0.2761	0.871	0.942	-0.134
Mof_H 	H 	0.2587	0.897	0.8647	0.087
Mof_C 	C 	0.2542	0.83	0.014	0.082
Mof_H 	H 	0.2216	0.8262	0.9862	-0.009
Mof_N 	N 	0.2793	0.7926	0.125	-0.248
Mof_C 	C 	0.3264	0.7975	0.1645	0.066
Mof_H 	H 	0.3438	0.7719	0.2418	-0.032
Mof_N 	N 	0.4215	0.7124	0.182	-0.213
Mof_C 	C 	0.4052	0.6678	0.073	0.027
Mof_H 	H 	0.3922	0.6897	0.9884	0.025
Mof_C 	C 	0.4075	0.5917	0.086	-0.052
Mof_H 	H 	0.3962	0.5608	0.0103	0.041
Mof_C 	C 	0.4263	0.5601	0.208	-0.059
Mof_C 	C 	0.4426	0.6046	0.3173	-0.047
Mof_H 	H 	0.4556	0.5828	0.402	0.053
Mof_C 	C 	0.4402	0.6808	0.304	0.019
Mof_H 	H 	0.4515	0.7117	0.3801	0.015
Mof_C 	C 	0.428	0.475	0.231	0.337
Mof_H 	H 	0.3956	0.4601	0.2255	-0.055
Mof_C 	C 	0.4357	0.448	0.105	-0.695
Mof_H 	H 	0.4546	0.4026	0.1236	0.235
Mof_H 	H 	0.4517	0.4867	0.0703	0.228
Mof_H 	H 	0.4061	0.4368	0.0403	0.227
Mof_O 	O 	0.456	0.441	0.347	-0.442
Mof_H 	H 	0.4763	0.4152	0.3283	0.246
Mof_N 	N 	0.651	0.1163	0.396	-0.225
Mof_C 	C 	0.6748	0.1633	0.3366	0.066
Mof_H 	H 	0.6585	0.1949	0.266	-0.031
Mof_N 	N 	0.7221	0.1647	0.38	-0.252
Mof_C 	C 	0.7455	0.1191	0.482	0.068
Mof_H 	H 	0.7782	0.12	0.5114	-0.002
Mof_C 	C 	0.7218	0.0721	0.541	-0.126
Mof_H 	H 	0.738	0.0405	0.6116	0.076
Mof_C 	C 	0.6745	0.0707	0.498	0.071
Mof_H 	H 	0.658	0.0382	0.539	-0.002
Mof_N 	N 	0.5754	0.2319	0.301	-0.215
Mof_C 	C 	0.5973	0.2692	0.4152	0.015
Mof_H 	H 	0.6105	0.242	0.4946	0.017
Mof_C 	C 	0.6002	0.3455	0.415	-0.045
Mof_H 	H 	0.6154	0.3713	0.4945	0.047
Mof_C 	C 	0.5812	0.3846	0.301	-0.058
Mof_C 	C 	0.5593	0.3474	0.186	-0.063
Mof_H 	H 	0.5461	0.3745	0.1068	0.034
Mof_C 	C 	0.5564	0.271	0.186	0.028
Mof_H 	H 	0.5412	0.2452	0.1069	0.012
Mof_C 	C 	0.5838	0.4706	0.292	0.329
Mof_H 	H 	0.5574	0.4945	0.2248	-0.071
Mof_C 	C 	0.5909	0.496	0.432	-0.699
Mof_H 	H 	0.5737	0.5427	0.4312	0.254
Mof_H 	H 	0.6237	0.5053	0.4743	0.256
Mof_H 	H 	0.5798	0.4579	0.4809	0.256
Mof_O 	O 	0.6288	0.486	0.277	-0.403
Mof_H 	H 	0.6287	0.4751	0.1993	0.216
Mof_C 	C 	0.5358	0.826	0.28	-0.029
Mof_N 	N 	0.4941	0.8245	0.257	-0.224
Mof_C 	C 	0.6043	0.8191	0.5029	-0.164
Mof_N 	N 	0.5811	0.8358	0.6107	-0.183
Mof_C 	C 	0.5893	0.9304	0.331	-0.019
Mof_N 	N 	0.58	0.0001	0.33	-0.242
Mof_C 	C 	0.5883	0.8274	0.1459	-0.077
Mof_N 	N 	0.5754	0.8324	0.021	-0.197
Mof_C 	C 	0.574	0.707	0.329	-0.03
Mof_N 	N 	0.581	0.653	0.278	-0.076
Mof_C 	C 	0.5862	0.704	0.366	0.034
Mof_N 	N 	0.5688	0.648	0.378	-0.098
Mof_C 	C 	0.6654	0.7851	0.502	-0.024
Mof_N 	N 	0.6929	0.745	0.579	-0.23
Mof_C 	C 	0.6671	0.88	0.341	-0.053
Mof_N 	N 	0.697	0.917	0.33	-0.089
Mof_C 	C 	0.653	0.7482	0.262	-0.043
Mof_N 	N 	0.6662	0.697	0.205	-0.088
Mof_C 	C 	0.8394	0.6845	-0	-0.039
Mof_N 	N 	0.8012	0.684	0.906	-0.246
Mof_C 	C 	0.5914	0.1106	0.0307	-0.021
Mof_N 	N 	0.5857	0.1055	0.1382	-0.236
Mof_C 	C 	0.4654	0.1256	0.209	-0.032
Mof_N 	N 	0.5056	0.1117	0.244	-0.225
Mof_C 	C 	0.5839	0.115	0.6212	-0.018
Mof_N 	N 	0.5757	0.1114	0.5026	-0.246
Mof_C 	C 	0.9187	0.742	0.143	-0.027
Mof_N 	N 	0.9311	0.798	0.129	-0.119
Mof_C 	C 	0.8337	0.561	0.172	-0.036
Mof_N 	N 	0.8018	0.528	0.173	-0.101
Mof_C 	C 	0.8538	0.708	0.25	-0.019
Mof_N 	N 	0.8247	0.74	0.277	-0.065
Mof_C 	C 	0.637	0.223	0.757	0.008
Mof_N 	N 	0.662	0.272	0.776	-0.073
Mof_C 	C 	0.4082	0.015	0.164	-0.046
Mof_N 	N 	0.4183	0.9557	0.176	-0.197
Mof_W 	W 	0.10843	0.3157	0.34243	0.633
Mof_W 	W 	0.39161	0.1306	0.15819	0.505
Mof_Co	Co	0.92394	0.3353	0.1835	1.116
Mof_Co	Co	0.07647	0.6111	0.3189	1.14
Mof_Co	Co	0.25	0.2245	0.7503	1.079
Mof_N 	N 	0.8483	0.3393	0.093	-0.224
Mof_C 	C 	0.8231	0.3763	0.981	0.081
Mof_H 	H 	0.8383	0.4053	0.9317	0.003
Mof_C 	C 	0.7761	0.371	0.942	-0.134
Mof_H 	H 	0.7587	0.397	0.8647	0.082
Mof_C 	C 	0.7542	0.33	0.014	0.078
Mof_H 	H 	0.7216	0.3262	0.9862	-0.009
Mof_N 	N 	0.7793	0.2926	0.125	-0.249
Mof_C 	C 	0.8264	0.2975	0.1645	0.064
Mof_H 	H 	0.8438	0.2719	0.2418	-0.032
Mof_N 	N 	0.9215	0.2124	0.182	-0.209
Mof_C 	C 	0.9052	0.1678	0.073	0.013
Mof_H 	H 	0.8922	0.1897	0.9884	0.029
Mof_C 	C 	0.9075	0.0917	0.086	-0.031
Mof_H 	H 	0.8962	0.0608	0.0103	0.024
Mof_C 	C 	0.9263	0.0601	0.208	-0.1
Mof_C 	C 	0.9426	0.1046	0.3173	-0.026
Mof_H 	H 	0.9556	0.0828	0.402	0.043
Mof_C 	C 	0.9402	0.1808	0.304	0.007
Mof_H 	H 	0.9515	0.2117	0.3801	0.019
Mof_C 	C 	0.928	0.975	0.231	0.376
Mof_H 	H 	0.8956	0.9601	0.2255	-0.059
Mof_C 	C 	0.9357	0.948	0.105	-0.728
Mof_H 	H 	0.9546	0.9026	0.1236	0.244
Mof_H 	H 	0.9517	0.9867	0.0703	0.244
Mof_H 	H 	0.9061	0.9368	0.0403	0.241
Mof_O 	O 	0.956	0.941	0.347	-0.441
Mof_H 	H 	0.9763	0.9152	0.3283	0.247
Mof_N 	N 	0.151	0.6163	0.396	-0.224
Mof_C 	C 	0.1748	0.6633	0.3366	0.068
Mof_H 	H 	0.1585	0.6949	0.266	-0.031
Mof_N 	N 	0.2221	0.6647	0.38	-0.251
Mof_C 	C 	0.2455	0.6191	0.482	0.071
Mof_H 	H 	0.2782	0.62	0.5114	-0
Mof_C 	C 	0.2218	0.5721	0.541	-0.125
Mof_H 	H 	0.238	0.5405	0.6116	0.082
Mof_C 	C 	0.1745	0.5707	0.498	0.074
Mof_H 	H 	0.158	0.5382	0.539	0.002
Mof_N 	N 	0.0754	0.7319	0.301	-0.219
Mof_C 	C 	0.0973	0.7692	0.4152	0.027
Mof_H 	H 	0.1105	0.742	0.4946	0.014
Mof_C 	C 	0.1002	0.8455	0.415	-0.067
Mof_H 	H 	0.1154	0.8713	0.4945	0.06
Mof_C 	C 	0.0812	0.8846	0.301	-0.023
Mof_C 	C 	0.0593	0.8474	0.186	-0.084
Mof_H 	H 	0.0461	0.8745	0.1068	0.042
Mof_C 	C 	0.0564	0.771	0.186	0.039
Mof_H 	H 	0.0412	0.7452	0.1069	0.008
Mof_C 	C 	0.0838	0.9706	0.292	0.247
Mof_H 	H 	0.0574	0.9945	0.2248	-0.04
Mof_C 	C 	0.0909	0.996	0.432	-0.483
Mof_H 	H 	0.0737	0.0427	0.4312	0.177
Mof_H 	H 	0.1237	0.0053	0.4743	0.175
Mof_H 	H 	0.0798	0.9579	0.4809	0.197
Mof_O 	O 	0.1288	0.986	0.277	-0.372
Mof_H 	H 	0.1287	0.9751	0.1993	0.211
Mof_C 	C 	0.0358	0.326	0.28	-0.031
Mof_N 	N 	0.9941	0.3245	0.257	-0.226
Mof_C 	C 	0.1043	0.3191	0.5029	-0.167
Mof_N 	N 	0.0811	0.3358	0.6107	-0.185
Mof_C 	C 	0.0893	0.4304	0.331	-0.042
Mof_N 	N 	0.08	0.5001	0.33	-0.225
Mof_C 	C 	0.0883	0.3274	0.1459	-0.079
Mof_N 	N 	0.0754	0.3324	0.021	-0.198
Mof_C 	C 	0.074	0.207	0.329	-0.03
Mof_N 	N 	0.081	0.153	0.278	-0.08
Mof_C 	C 	0.0862	0.204	0.366	0.034
Mof_N 	N 	0.0688	0.148	0.378	-0.096
Mof_C 	C 	0.1654	0.2851	0.502	-0.026
Mof_N 	N 	0.1929	0.245	0.579	-0.23
Mof_C 	C 	0.1671	0.38	0.341	-0.057
Mof_N 	N 	0.197	0.417	0.33	-0.095
Mof_C 	C 	0.153	0.2482	0.262	-0.044
Mof_N 	N 	0.1662	0.197	0.205	-0.09
Mof_C 	C 	0.3394	0.1845	-0	-0.04
Mof_N 	N 	0.3012	0.184	0.906	-0.248
Mof_C 	C 	0.0914	0.6106	0.0307	-0.017
Mof_N 	N 	0.0857	0.6055	0.1382	-0.234
Mof_C 	C 	0.9654	0.6256	0.209	-0.03
Mof_N 	N 	0.0056	0.6117	0.244	-0.223
Mof_C 	C 	0.0839	0.615	0.6212	-0.015
Mof_N 	N 	0.0757	0.6114	0.5026	-0.245
Mof_C 	C 	0.4187	0.242	0.143	-0.028
Mof_N 	N 	0.4311	0.298	0.129	-0.118
Mof_C 	C 	0.3337	0.061	0.172	-0.039
Mof_N 	N 	0.3018	0.028	0.173	-0.107
Mof_C 	C 	0.3538	0.208	0.25	-0.019
Mof_N 	N 	0.3247	0.24	0.277	-0.065
Mof_C 	C 	0.137	0.723	0.757	0.008
Mof_N 	N 	0.162	0.772	0.776	-0.072
Mof_C 	C 	0.9082	0.515	0.164	-0.016
Mof_N 	N 	0.9183	0.4557	0.176	-0.221
Mof_W 	W 	0.39157	0.8157	0.65757	0.629
Mof_W 	W 	0.10839	0.6306	0.84181	0.498
Mof_Co	Co	0.57606	0.8353	0.8165	1.116
Mof_Co	Co	0.42353	0.1111	0.6811	1.139
Mof_Co	Co	0.25	0.7245	0.2497	1.08
Mof_N 	N 	0.6517	0.8393	0.907	-0.224
Mof_C 	C 	0.6769	0.8763	0.019	0.083
Mof_H 	H 	0.6617	0.9053	0.0683	0.007
Mof_C 	C 	0.7239	0.871	0.058	-0.123
Mof_H 	H 	0.7413	0.897	0.1353	0.084
Mof_C 	C 	0.7458	0.83	0.986	0.068
Mof_H 	H 	0.7784	0.8262	0.0138	-0.002
Mof_N 	N 	0.7207	0.7926	0.875	-0.246
Mof_C 	C 	0.6736	0.7975	0.8355	0.065
Mof_H 	H 	0.6562	0.7719	0.7582	-0.032
Mof_N 	N 	0.5785	0.7124	0.818	-0.212
Mof_C 	C 	0.5948	0.6678	0.927	0.018
Mof_H 	H 	0.6078	0.6897	0.0116	0.03
Mof_C 	C 	0.5925	0.5917	0.914	-0.047
Mof_H 	H 	0.6038	0.5608	0.9897	0.038
Mof_C 	C 	0.5737	0.5601	0.792	-0.062
Mof_C 	C 	0.5574	0.6046	0.6827	-0.046
Mof_H 	H 	0.5444	0.5828	0.598	0.052
Mof_C 	C 	0.5598	0.6808	0.696	0.018
Mof_H 	H 	0.5485	0.7117	0.6199	0.015
Mof_C 	C 	0.572	0.475	0.769	0.338
Mof_H 	H 	0.6044	0.4601	0.7745	-0.055
Mof_C 	C 	0.5643	0.448	0.895	-0.693
Mof_H 	H 	0.5454	0.4026	0.8764	0.234
Mof_H 	H 	0.5483	0.4867	0.9297	0.226
Mof_H 	H 	0.5939	0.4368	0.9597	0.225
Mof_O 	O 	0.544	0.441	0.653	-0.442
Mof_H 	H 	0.5237	0.4152	0.6717	0.246
Mof_N 	N 	0.349	0.1163	0.604	-0.225
Mof_C 	C 	0.3252	0.1633	0.6634	0.066
Mof_H 	H 	0.3415	0.1949	0.734	-0.031
Mof_N 	N 	0.2779	0.1647	0.62	-0.252
Mof_C 	C 	0.2545	0.1191	0.518	0.068
Mof_H 	H 	0.2218	0.12	0.4886	-0.002
Mof_C 	C 	0.2782	0.0721	0.459	-0.126
Mof_H 	H 	0.262	0.0405	0.3884	0.077
Mof_C 	C 	0.3255	0.0707	0.502	0.071
Mof_H 	H 	0.342	0.0382	0.461	-0.002
Mof_N 	N 	0.4246	0.2319	0.699	-0.215
Mof_C 	C 	0.4027	0.2692	0.5848	0.015
Mof_H 	H 	0.3895	0.242	0.5054	0.017
Mof_C 	C 	0.3998	0.3455	0.585	-0.045
Mof_H 	H 	0.3846	0.3713	0.5055	0.047
Mof_C 	C 	0.4188	0.3846	0.699	-0.059
Mof_C 	C 	0.4407	0.3474	0.814	-0.063
Mof_H 	H 	0.4539	0.3745	0.8932	0.033
Mof_C 	C 	0.4436	0.271	0.814	0.028
Mof_H 	H 	0.4588	0.2452	0.8931	0.011
Mof_C 	C 	0.4162	0.4706	0.708	0.329
Mof_H 	H 	0.4426	0.4945	0.7752	-0.072
Mof_C 	C 	0.4091	0.496	0.568	-0.699
Mof_H 	H 	0.4263	0.5427	0.5688	0.254
Mof_H 	H 	0.3763	0.5053	0.5257	0.256
Mof_H 	H 	0.4202	0.4579	0.5191	0.256
Mof_O 	O 	0.3712	0.486	0.723	-0.403
Mof_H 	H 	0.3713	0.4751	0.8007	0.215
Mof_C 	C 	0.4642	0.826	0.72	-0.029
Mof_N 	N 	0.5059	0.8245	0.743	-0.224
Mof_C 	C 	0.3957	0.8191	0.4971	-0.164
Mof_N 	N 	0.4189	0.8358	0.3893	-0.182
Mof_C 	C 	0.4107	0.9304	0.669	-0.019
Mof_N 	N 	0.42	0.0001	0.67	-0.242
Mof_C 	C 	0.4117	0.8274	0.8541	-0.077
Mof_N 	N 	0.4246	0.8324	0.979	-0.198
Mof_C 	C 	0.426	0.707	0.671	-0.03
Mof_N 	N 	0.419	0.653	0.722	-0.076
Mof_C 	C 	0.4138	0.704	0.634	0.034
Mof_N 	N 	0.4312	0.648	0.622	-0.098
Mof_C 	C 	0.3346	0.7851	0.498	-0.024
Mof_N 	N 	0.3071	0.745	0.421	-0.23
Mof_C 	C 	0.3329	0.88	0.659	-0.053
Mof_N 	N 	0.303	0.917	0.67	-0.09
Mof_C 	C 	0.347	0.7482	0.738	-0.043
Mof_N 	N 	0.3338	0.697	0.795	-0.089
Mof_C 	C 	0.1606	0.6845	-0	-0.039
Mof_N 	N 	0.1988	0.684	0.094	-0.245
Mof_C 	C 	0.4086	0.1106	0.9693	-0.024
Mof_N 	N 	0.4143	0.1055	0.8618	-0.235
Mof_C 	C 	0.5346	0.1256	0.791	-0.032
Mof_N 	N 	0.4944	0.1117	0.756	-0.225
Mof_C 	C 	0.4161	0.115	0.3788	-0.018
Mof_N 	N 	0.4243	0.1114	0.4974	-0.246
Mof_C 	C 	0.0813	0.742	0.857	-0.028
Mof_N 	N 	0.0689	0.798	0.871	-0.119
Mof_C 	C 	0.1663	0.561	0.828	-0.036
Mof_N 	N 	0.1982	0.528	0.827	-0.102
Mof_C 	C 	0.1462	0.708	0.75	-0.019
Mof_N 	N 	0.1753	0.74	0.723	-0.065
Mof_C 	C 	0.363	0.223	0.243	0.008
Mof_N 	N 	0.338	0.272	0.224	-0.073
Mof_C 	C 	0.5918	0.015	0.836	-0.047
Mof_N 	N 	0.5817	0.9557	0.824	-0.198
Mof_W 	W 	0.89157	0.3157	0.65757	0.633
Mof_W 	W 	0.60839	0.1306	0.84181	0.502
Mof_Co	Co	0.07606	0.3353	0.8165	1.115
Mof_Co	Co	0.92353	0.6111	0.6811	1.14
Mof_Co	Co	0.75	0.2245	0.2497	1.079
Mof_N 	N 	0.1517	0.3393	0.907	-0.225
Mof_C 	C 	0.1769	0.3763	0.019	0.08
Mof_H 	H 	0.1617	0.4053	0.0683	0.004
Mof_C 	C 	0.2239	0.371	0.058	-0.123
Mof_H 	H 	0.2413	0.397	0.1353	0.079
Mof_C 	C 	0.2458	0.33	0.986	0.064
Mof_H 	H 	0.2784	0.3262	0.0138	-0.002
Mof_N 	N 	0.2207	0.2926	0.875	-0.247
Mof_C 	C 	0.1736	0.2975	0.8355	0.062
Mof_H 	H 	0.1562	0.2719	0.7582	-0.032
Mof_N 	N 	0.0785	0.2124	0.818	-0.208
Mof_C 	C 	0.0948	0.1678	0.927	0.004
Mof_H 	H 	0.1078	0.1897	0.0116	0.034
Mof_C 	C 	0.0925	0.0917	0.914	-0.026
Mof_H 	H 	0.1038	0.0608	0.9897	0.022
Mof_C 	C 	0.0737	0.0601	0.792	-0.103
Mof_C 	C 	0.0574	0.1046	0.6827	-0.025
Mof_H 	H 	0.0444	0.0828	0.598	0.043
Mof_C 	C 	0.0598	0.1808	0.696	0.006
Mof_H 	H 	0.0485	0.2117	0.6199	0.019
Mof_C 	C 	0.072	0.975	0.769	0.377
Mof_H 	H 	0.1044	0.9601	0.7745	-0.059
Mof_C 	C 	0.0643	0.948	0.895	-0.727
Mof_H 	H 	0.0454	0.9026	0.8764	0.243
Mof_H 	H 	0.0483	0.9867	0.9297	0.243
Mof_H 	H 	0.0939	0.9368	0.9597	0.24
Mof_O 	O 	0.044	0.941	0.653	-0.441
Mof_H 	H 	0.0237	0.9152	0.6717	0.247
Mof_N 	N 	0.849	0.6163	0.604	-0.224
Mof_C 	C 	0.8252	0.6633	0.6634	0.068
Mof_H 	H 	0.8415	0.6949	0.734	-0.031
Mof_N 	N 	0.7779	0.6647	0.62	-0.252
Mof_C 	C 	0.7545	0.6191	0.518	0.071
Mof_H 	H 	0.7218	0.62	0.4886	-0
Mof_C 	C 	0.7782	0.5721	0.459	-0.125
Mof_H 	H 	0.762	0.5405	0.3884	0.082
Mof_C 	C 	0.8255	0.5707	0.502	0.074
Mof_H 	H 	0.842	0.5382	0.461	0.002
Mof_N 	N 	0.9246	0.7319	0.699	-0.219
Mof_C 	C 	0.9027	0.7692	0.5848	0.027
Mof_H 	H 	0.8895	0.742	0.5054	0.014
Mof_C 	C 	0.8998	0.8455	0.585	-0.067
Mof_H 	H 	0.8846	0.8713	0.5055	0.06
Mof_C 	C 	0.9188	0.8846	0.699	-0.023
Mof_C 	C 	0.9407	0.8474	0.814	-0.084
Mof_H 	H 	0.9539	0.8745	0.8932	0.041
Mof_C 	C 	0.9436	0.771	0.814	0.039
Mof_H 	H 	0.9588	0.7452	0.8931	0.007
Mof_C 	C 	0.9162	0.9706	0.708	0.247
Mof_H 	H 	0.9426	0.9945	0.7752	-0.04
Mof_C 	C 	0.9091	0.996	0.568	-0.483
Mof_H 	H 	0.9263	0.0427	0.5688	0.177
Mof_H 	H 	0.8763	0.0053	0.5257	0.175
Mof_H 	H 	0.9202	0.9579	0.5191	0.197
Mof_O 	O 	0.8712	0.986	0.723	-0.372
Mof_H 	H 	0.8713	0.9751	0.8007	0.21
Mof_C 	C 	0.9642	0.326	0.72	-0.031
Mof_N 	N 	0.0059	0.3245	0.743	-0.226
Mof_C 	C 	0.8957	0.3191	0.4971	-0.167
Mof_N 	N 	0.9189	0.3358	0.3893	-0.185
Mof_C 	C 	0.9107	0.4304	0.669	-0.043
Mof_N 	N 	0.92	0.5001	0.67	-0.225
Mof_C 	C 	0.9117	0.3274	0.8541	-0.08
Mof_N 	N 	0.9246	0.3324	0.979	-0.199
Mof_C 	C 	0.926	0.207	0.671	-0.03
Mof_N 	N 	0.919	0.153	0.722	-0.08
Mof_C 	C 	0.9138	0.204	0.634	0.034
Mof_N 	N 	0.9312	0.148	0.622	-0.096
Mof_C 	C 	0.8346	0.2851	0.498	-0.026
Mof_N 	N 	0.8071	0.245	0.421	-0.23
Mof_C 	C 	0.8329	0.38	0.659	-0.057
Mof_N 	N 	0.803	0.417	0.67	-0.095
Mof_C 	C 	0.847	0.2482	0.738	-0.044
Mof_N 	N 	0.8338	0.197	0.795	-0.091
Mof_C 	C 	0.6606	0.1845	-0	-0.041
Mof_N 	N 	0.6988	0.184	0.094	-0.246
Mof_C 	C 	0.9086	0.6106	0.9693	-0.021
Mof_N 	N 	0.9143	0.6055	0.8618	-0.234
Mof_C 	C 	0.0346	0.6256	0.791	-0.031
Mof_N 	N 	0.9944	0.6117	0.756	-0.223
Mof_C 	C 	0.9161	0.615	0.3788	-0.015
Mof_N 	N 	0.9243	0.6114	0.4974	-0.245
Mof_C 	C 	0.5813	0.242	0.857	-0.029
Mof_N 	N 	0.5689	0.298	0.871	-0.119
Mof_C 	C 	0.6663	0.061	0.828	-0.04
Mof_N 	N 	0.6982	0.028	0.827	-0.107
Mof_C 	C 	0.6462	0.208	0.75	-0.019
Mof_N 	N 	0.6753	0.24	0.723	-0.065
Mof_C 	C 	0.863	0.723	0.243	0.008
Mof_N 	N 	0.838	0.772	0.224	-0.072
Mof_C 	C 	0.0918	0.515	0.836	-0.017
Mof_N 	N 	0.0817	0.4557	0.824	-0.221
_end
