data_functionalizedCrystal
_audit_creation_method	'EQeq! by Chris Wilmer'
_symmetry_space_group_name_H-M	'P1'
_symmetry_Int_Tables_number	1
_symmetry_cell_setting	triclinic
loop_
_symmetry_equiv_pos_as_xyz
  x,y,z
_cell_length_a	9.1137
_cell_length_b	9.6639
_cell_length_c	22.259
_cell_angle_alpha	90
_cell_angle_beta	90
_cell_angle_gamma	117.96
loop_
_atom_site_label
_atom_site_type_symbol
_atom_site_fract_x
_atom_site_fract_y
_atom_site_fract_z
_atom_site_charge
Mof_Ho	Ho	0.61922	0.3546	0.00827	2.184
Mof_Ho	Ho	0.88078	0.6454	0.50827	2.186
Mof_Ho	Ho	0.38078	0.6454	0.99173	2.184
Mof_Ho	Ho	0.11922	0.3546	0.49173	2.186
Mof_Ag	Ag	0.01177	0.67984	0.85168	0.688
Mof_Ag	Ag	0.48823	0.32016	0.35168	0.696
Mof_Ag	Ag	0.98823	0.32016	0.14832	0.688
Mof_Ag	Ag	0.51177	0.67984	0.64832	0.696
Mof_H 	H 	0.9452	0.2272	0.9289	-0.014
Mof_H 	H 	0.746	0.0368	0.8678	0.115
Mof_H 	H 	0.7753	0.8232	0.8411	-0.036
Mof_H 	H 	0.1825	0.9711	0.935	-0.021
Mof_H 	H 	0.9851	0.638	0.7159	-0.023
Mof_H 	H 	0.1018	0.3095	0.6599	-0.012
Mof_H 	H 	0.1387	0.2625	0.7598	0.096
Mof_H 	H 	0.1084	0.4122	0.8334	-0.014
Mof_H 	H 	0.5548	0.7728	0.4289	-0.016
Mof_H 	H 	0.754	0.9632	0.3678	0.116
Mof_H 	H 	0.7247	0.1768	0.3411	-0.037
Mof_H 	H 	0.3175	0.0289	0.435	-0.024
Mof_H 	H 	0.5149	0.362	0.2159	-0.029
Mof_H 	H 	0.3982	0.6905	0.1599	-0.013
Mof_H 	H 	0.3613	0.7375	0.2598	0.097
Mof_H 	H 	0.3916	0.5878	0.3334	-0.015
Mof_H 	H 	0.0548	0.7728	0.0711	-0.014
Mof_H 	H 	0.254	0.9632	0.1322	0.115
Mof_H 	H 	0.2247	0.1768	0.1589	-0.036
Mof_H 	H 	0.8175	0.0289	0.065	-0.021
Mof_H 	H 	0.0149	0.362	0.2841	-0.023
Mof_H 	H 	0.8982	0.6905	0.3401	-0.012
Mof_H 	H 	0.8613	0.7375	0.2402	0.096
Mof_H 	H 	0.8916	0.5878	0.1666	-0.014
Mof_H 	H 	0.4452	0.2272	0.5711	-0.016
Mof_H 	H 	0.246	0.0368	0.6322	0.116
Mof_H 	H 	0.2753	0.8232	0.6589	-0.037
Mof_H 	H 	0.6825	0.9711	0.565	-0.024
Mof_H 	H 	0.4851	0.638	0.7841	-0.029
Mof_H 	H 	0.6018	0.3095	0.8401	-0.013
Mof_H 	H 	0.6387	0.2625	0.7402	0.097
Mof_H 	H 	0.6084	0.4122	0.6666	-0.015
Mof_C 	C 	0.2244	0.2461	0.97436	0.519
Mof_C 	C 	0.0881	0.1197	0.9377	-0.226
Mof_C 	C 	0.9549	0.1391	0.91787	0.147
Mof_C 	C 	0.8365	0.026	0.8814	-0.206
Mof_C 	C 	0.8548	0.8983	0.8659	0.13
Mof_C 	C 	0.095	0.9861	0.9208	0.133
Mof_C 	C 	0.0184	0.5627	0.72449	0.122
Mof_C 	C 	0.0394	0.4811	0.6772	-0.239
Mof_C 	C 	0.0863	0.3669	0.6905	0.123
Mof_C 	C 	0.1097	0.3399	0.7498	-0.203
Mof_C 	C 	0.0894	0.429	0.7937	0.115
Mof_C 	C 	0.0108	0.5168	0.6142	0.515
Mof_C 	C 	0.5081	0.0075	0.96559	0.269
Mof_C 	C 	0.9978	0.52	0.96683	0.268
Mof_C 	C 	0.2756	0.7539	0.47436	0.522
Mof_C 	C 	0.4119	0.8803	0.4377	-0.235
Mof_C 	C 	0.5451	0.8609	0.41787	0.151
Mof_C 	C 	0.6635	0.974	0.3814	-0.208
Mof_C 	C 	0.6452	0.1017	0.3659	0.129
Mof_C 	C 	0.405	0.0139	0.4208	0.147
Mof_C 	C 	0.4816	0.4373	0.22449	0.131
Mof_C 	C 	0.4606	0.5189	0.1772	-0.244
Mof_C 	C 	0.4137	0.6331	0.1905	0.127
Mof_C 	C 	0.3903	0.6601	0.2498	-0.205
Mof_C 	C 	0.4106	0.571	0.2937	0.117
Mof_C 	C 	0.4892	0.4832	0.1142	0.52
Mof_C 	C 	0.9919	0.9925	0.46559	0.267
Mof_C 	C 	0.5022	0.48	0.46683	0.265
Mof_C 	C 	0.7756	0.7539	0.02564	0.519
Mof_C 	C 	0.9119	0.8803	0.0623	-0.226
Mof_C 	C 	0.0451	0.8609	0.08213	0.147
Mof_C 	C 	0.1635	0.974	0.1186	-0.206
Mof_C 	C 	0.1452	0.1017	0.1341	0.13
Mof_C 	C 	0.905	0.0139	0.0792	0.133
Mof_C 	C 	0.9816	0.4373	0.27551	0.122
Mof_C 	C 	0.9606	0.5189	0.3228	-0.239
Mof_C 	C 	0.9137	0.6331	0.3095	0.123
Mof_C 	C 	0.8903	0.6601	0.2502	-0.203
Mof_C 	C 	0.9106	0.571	0.2063	0.115
Mof_C 	C 	0.9892	0.4832	0.3858	0.515
Mof_C 	C 	0.4919	0.9925	0.03441	0.269
Mof_C 	C 	0.0022	0.48	0.03317	0.268
Mof_C 	C 	0.7244	0.2461	0.52564	0.522
Mof_C 	C 	0.5881	0.1197	0.5623	-0.235
Mof_C 	C 	0.4549	0.1391	0.58213	0.151
Mof_C 	C 	0.3365	0.026	0.6186	-0.208
Mof_C 	C 	0.3548	0.8983	0.6341	0.129
Mof_C 	C 	0.595	0.9861	0.5792	0.147
Mof_C 	C 	0.5184	0.5627	0.77551	0.131
Mof_C 	C 	0.5394	0.4811	0.8228	-0.244
Mof_C 	C 	0.5863	0.3669	0.8095	0.127
Mof_C 	C 	0.6097	0.3399	0.7502	-0.205
Mof_C 	C 	0.5894	0.429	0.7063	0.117
Mof_C 	C 	0.5108	0.5168	0.8858	0.52
Mof_C 	C 	0.0081	0.0075	0.53441	0.267
Mof_C 	C 	0.4978	0.52	0.53317	0.265
Mof_N 	N 	0.9819	0.876	0.88476	-0.233
Mof_N 	N 	0.0433	0.5395	0.78198	-0.233
Mof_N 	N 	0.5181	0.124	0.38476	-0.239
Mof_N 	N 	0.4567	0.4605	0.28198	-0.235
Mof_N 	N 	0.0181	0.124	0.11524	-0.233
Mof_N 	N 	0.9567	0.4605	0.21802	-0.233
Mof_N 	N 	0.4819	0.876	0.61524	-0.239
Mof_N 	N 	0.5433	0.5395	0.71802	-0.235
Mof_O 	O 	0.328	0.2126	0.99912	-0.521
Mof_O 	O 	0.2235	0.3745	0.97613	-0.542
Mof_O 	O 	0.9492	0.6076	0.60668	-0.52
Mof_O 	O 	0.0482	0.4517	0.57264	-0.597
Mof_O 	O 	0.134	0.6149	0.94346	-0.485
Mof_O 	O 	0.8605	0.4569	0.94095	-0.44
Mof_O 	O 	0.5781	0.1437	0.94439	-0.437
Mof_O 	O 	0.4507	0.8826	0.93619	-0.423
Mof_O 	O 	0.172	0.7874	0.49912	-0.525
Mof_O 	O 	0.2765	0.6255	0.47613	-0.543
Mof_O 	O 	0.5508	0.3924	0.10668	-0.523
Mof_O 	O 	0.4518	0.5483	0.07264	-0.597
Mof_O 	O 	0.366	0.3851	0.44346	-0.484
Mof_O 	O 	0.6395	0.5431	0.44095	-0.441
Mof_O 	O 	0.9219	0.8563	0.44439	-0.437
Mof_O 	O 	0.0493	0.1174	0.43619	-0.42
Mof_O 	O 	0.672	0.7874	0.00088	-0.521
Mof_O 	O 	0.7765	0.6255	0.02387	-0.542
Mof_O 	O 	0.0508	0.3924	0.39332	-0.52
Mof_O 	O 	0.9518	0.5483	0.42736	-0.597
Mof_O 	O 	0.866	0.3851	0.05654	-0.485
Mof_O 	O 	0.1395	0.5431	0.05905	-0.44
Mof_O 	O 	0.4219	0.8563	0.05561	-0.437
Mof_O 	O 	0.5493	0.1174	0.06381	-0.423
Mof_O 	O 	0.828	0.2126	0.50088	-0.525
Mof_O 	O 	0.7235	0.3745	0.52387	-0.543
Mof_O 	O 	0.4492	0.6076	0.89332	-0.523
Mof_O 	O 	0.5482	0.4517	0.92736	-0.597
Mof_O 	O 	0.634	0.6149	0.55654	-0.484
Mof_O 	O 	0.3605	0.4569	0.55905	-0.441
Mof_O 	O 	0.0781	0.1437	0.55561	-0.437
Mof_O 	O 	0.9507	0.8826	0.56381	-0.42
_end
