data_functionalizedCrystal
_audit_creation_method	'EQeq! by Chris Wilmer'
_symmetry_space_group_name_H-M	'P1'
_symmetry_Int_Tables_number	1
_symmetry_cell_setting	triclinic
loop_
_symmetry_equiv_pos_as_xyz
  x,y,z
_cell_length_a	28.764
_cell_length_b	28.764
_cell_length_c	69.369
_cell_angle_alpha	90
_cell_angle_beta	90
_cell_angle_gamma	120
loop_
_atom_site_label
_atom_site_type_symbol
_atom_site_fract_x
_atom_site_fract_y
_atom_site_fract_z
_atom_site_charge
Mof_N 	N 	0.3238	0.5704	0.55514	-0.245
Mof_N 	N 	0.2494	0.4026	0.5191	-0.118
Mof_N 	N 	0.1726	0.2473	0.47978	-0.125
Mof_N 	N 	0.0858	0.0946	0.43556	-0.25
Mof_C 	C 	0.2878	0.5267	0.54531	0.069
Mof_C 	C 	0.2941	0.4865	0.53657	-0.151
Mof_H 	H 	0.3273	0.4868	0.5368	0.083
Mof_C 	C 	0.2476	0.4449	0.52732	0.071
Mof_C 	C 	0.2067	0.3644	0.51145	-0.014
Mof_C 	C 	0.2142	0.3187	0.50283	0.254
Mof_C 	C 	0.215	0.284	0.52009	-0.607
Mof_H 	H 	0.2448	0.3067	0.5288	0.205
Mof_H 	H 	0.2198	0.2548	0.5152	0.202
Mof_H 	H 	0.1811	0.269	0.5272	0.22
Mof_C 	C 	0.2652	0.342	0.49079	-0.605
Mof_H 	H 	0.296	0.3664	0.4987	0.205
Mof_H 	H 	0.2621	0.3617	0.4798	0.203
Mof_H 	H 	0.2704	0.3128	0.4861	0.196
Mof_C 	C 	0.1667	0.2815	0.49051	-0.023
Mof_C 	C 	0.1321	0.212	0.46847	0.073
Mof_C 	C 	0.1367	0.1737	0.45786	-0.157
Mof_H 	H 	0.1693	0.1728	0.4577	0.075
Mof_C 	C 	0.0931	0.1372	0.44755	0.063
Mof_C 	C 	0.2104	0.1198	0.3833	-0.072
Mof_H 	H 	0.2317	0.1328	0.3946	0.048
Mof_C 	C 	0.231	0.1404	0.3658	0.047
Mof_C 	C 	0.198	0.1252	0.3481	0.061
Mof_C 	C 	0.1443	0.0916	0.3486	-0.088
Mof_H 	H 	0.1218	0.087	0.3379	0.081
Mof_N 	N 	0.2868	0.1725	0.3652	-0.102
Mof_N 	N 	0.2218	0.1436	0.3309	-0.107
Mof_N 	N 	0.4439	0.261	0.3256	-0.114
Mof_N 	N 	0.379	0.2265	0.293	-0.112
Mof_C 	C 	0.3704	0.2319	0.3482	0.12
Mof_C 	C 	0.3767	0.2868	0.3552	-0.462
Mof_H 	H 	0.4149	0.3138	0.3559	0.165
Mof_H 	H 	0.3606	0.282	0.368	0.163
Mof_H 	H 	0.3586	0.2985	0.3461	0.148
Mof_C 	C 	0.3962	0.2097	0.3616	0.192
Mof_H 	H 	0.4353	0.2316	0.3606	-0.03
Mof_H 	H 	0.3848	0.1726	0.3579	-0.162
Mof_H 	H 	0.3851	0.2105	0.3749	-0.021
Mof_C 	C 	0.2796	0.185	0.3314	0.03
Mof_C 	C 	0.2715	0.1604	0.2951	0.304
Mof_H 	H 	0.2753	0.1289	0.2974	-0.143
Mof_H 	H 	0.2878	0.1766	0.2827	-0.049
Mof_H 	H 	0.2334	0.1496	0.295	-0.048
Mof_C 	C 	0.2984	0.1993	0.3104	-0.011
Mof_C 	C 	0.5128	0.2747	0.2728	0.048
Mof_C 	C 	0.5451	0.2956	0.2889	0.004
Mof_C 	C 	0.5228	0.2928	0.3068	-0.091
Mof_H 	H 	0.5448	0.3069	0.3179	0.013
Mof_C 	C 	0.4691	0.2698	0.3081	0.056
Mof_C 	C 	0.4343	0.2485	0.2908	0.06
Mof_C 	C 	0.362	0.229	0.3115	0.038
Mof_C 	C 	0.3927	0.2392	0.3268	0.009
Mof_C 	C 	0.4577	0.2518	0.2731	-0.101
Mof_H 	H 	0.4368	0.239	0.2617	0.062
Mof_C 	C 	0.3086	0.194	0.3488	0.018
Mof_C 	C 	0.2894	0.2472	0.3053	-0.362
Mof_H 	H 	0.3157	0.2794	0.3123	0.12
Mof_H 	H 	0.2531	0.2382	0.3091	0.132
Mof_H 	H 	0.294	0.2539	0.2914	0.13
Mof_N 	N 	0.99047	0.90373	0.88847	-0.234
Mof_N 	N 	0.91607	0.73593	0.85243	-0.115
Mof_N 	N 	0.83927	0.58063	0.81311	-0.123
Mof_N 	N 	0.75247	0.42793	0.76889	-0.245
Mof_C 	C 	0.95447	0.86003	0.87864	0.075
Mof_C 	C 	0.96077	0.81983	0.8699	-0.149
Mof_H 	H 	0.99397	0.82013	0.87013	0.091
Mof_C 	C 	0.91427	0.77823	0.86065	0.075
Mof_C 	C 	0.87337	0.69773	0.84478	-0.012
Mof_C 	C 	0.88087	0.65203	0.83616	0.259
Mof_C 	C 	0.88167	0.61733	0.85342	-0.61
Mof_H 	H 	0.91147	0.64003	0.86213	0.208
Mof_H 	H 	0.88647	0.58813	0.84853	0.203
Mof_H 	H 	0.84777	0.60233	0.86053	0.223
Mof_C 	C 	0.93187	0.67533	0.82412	-0.615
Mof_H 	H 	0.96267	0.69973	0.83203	0.213
Mof_H 	H 	0.92877	0.69503	0.81313	0.211
Mof_H 	H 	0.93707	0.64613	0.81943	0.202
Mof_C 	C 	0.83337	0.61483	0.82384	-0.021
Mof_C 	C 	0.79877	0.54533	0.8018	0.075
Mof_C 	C 	0.80337	0.50703	0.79119	-0.154
Mof_H 	H 	0.83597	0.50613	0.79103	0.077
Mof_C 	C 	0.75977	0.47053	0.78088	0.064
Mof_C 	C 	0.87707	0.45313	0.71663	-0.069
Mof_H 	H 	0.89837	0.46613	0.72793	0.049
Mof_C 	C 	0.89767	0.47373	0.69913	0.046
Mof_C 	C 	0.86467	0.45853	0.68143	0.064
Mof_C 	C 	0.81097	0.42493	0.68193	-0.092
Mof_H 	H 	0.78847	0.42033	0.67123	0.086
Mof_N 	N 	0.95347	0.50583	0.69853	-0.101
Mof_N 	N 	0.88847	0.47693	0.66423	-0.106
Mof_N 	N 	0.11057	0.59433	0.65893	-0.116
Mof_N 	N 	0.04567	0.55983	0.62633	-0.114
Mof_C 	C 	0.03707	0.56523	0.68153	0.092
Mof_C 	C 	0.04337	0.62013	0.68853	-0.44
Mof_H 	H 	0.08157	0.64713	0.68923	0.159
Mof_H 	H 	0.02727	0.61533	0.70133	0.151
Mof_H 	H 	0.02527	0.63183	0.67943	0.137
Mof_C 	C 	0.06287	0.54303	0.69493	0.196
Mof_H 	H 	0.10197	0.56493	0.69393	-0.031
Mof_H 	H 	0.05147	0.50593	0.69123	-0.161
Mof_H 	H 	0.05177	0.54383	0.70823	-0.025
Mof_C 	C 	0.94627	0.51833	0.66473	0.025
Mof_C 	C 	0.93817	0.49373	0.62843	0.32
Mof_H 	H 	0.94197	0.46223	0.63073	-0.153
Mof_H 	H 	0.95447	0.50993	0.61603	-0.047
Mof_H 	H 	0.90007	0.48293	0.62833	-0.05
Mof_C 	C 	0.96507	0.53263	0.64373	0.012
Mof_C 	C 	0.17947	0.60803	0.60613	0.045
Mof_C 	C 	0.21177	0.62893	0.62223	0.005
Mof_C 	C 	0.18947	0.62613	0.64013	-0.092
Mof_H 	H 	0.21147	0.64023	0.65123	0.013
Mof_C 	C 	0.13577	0.60313	0.64143	0.058
Mof_C 	C 	0.10097	0.58183	0.62413	0.058
Mof_C 	C 	0.02867	0.56233	0.64483	0.013
Mof_C 	C 	0.05937	0.57253	0.66013	0.02
Mof_C 	C 	0.12437	0.58513	0.60643	-0.099
Mof_H 	H 	0.10347	0.57233	0.59503	0.059
Mof_C 	C 	0.97527	0.52733	0.68213	0.043
Mof_C 	C 	0.95607	0.58053	0.63863	-0.389
Mof_H 	H 	0.98237	0.61273	0.64563	0.138
Mof_H 	H 	0.91977	0.57153	0.64243	0.144
Mof_H 	H 	0.96067	0.58723	0.62473	0.144
Mof_N 	N 	0.65713	0.23707	0.22181	-0.244
Mof_N 	N 	0.58273	0.06927	0.18577	-0.116
Mof_N 	N 	0.50593	0.91397	0.14645	-0.12
Mof_N 	N 	0.41913	0.76127	0.10223	-0.245
Mof_C 	C 	0.62113	0.19337	0.21198	0.069
Mof_C 	C 	0.62743	0.15317	0.20324	-0.151
Mof_H 	H 	0.66063	0.15347	0.20347	0.082
Mof_C 	C 	0.58093	0.11157	0.19399	0.07
Mof_C 	C 	0.54003	0.03107	0.17812	-0.04
Mof_C 	C 	0.54753	0.98537	0.1695	0.333
Mof_C 	C 	0.54833	0.95067	0.18676	-0.666
Mof_H 	H 	0.57813	0.97337	0.19547	0.23
Mof_H 	H 	0.55313	0.92147	0.18187	0.221
Mof_H 	H 	0.51443	0.93567	0.19387	0.241
Mof_C 	C 	0.59853	0.00867	0.15746	-0.757
Mof_H 	H 	0.62933	0.03307	0.16537	0.242
Mof_H 	H 	0.59543	0.02837	0.14647	0.241
Mof_H 	H 	0.60373	0.97947	0.15277	0.253
Mof_C 	C 	0.50003	0.94817	0.15718	-0.031
Mof_C 	C 	0.46543	0.87867	0.13514	0.075
Mof_C 	C 	0.47003	0.84037	0.12453	-0.154
Mof_H 	H 	0.50263	0.83947	0.12437	0.077
Mof_C 	C 	0.42643	0.80387	0.11422	0.065
Mof_C 	C 	0.54373	0.78647	0.04997	-0.069
Mof_H 	H 	0.56503	0.79947	0.06127	0.048
Mof_C 	C 	0.56433	0.80707	0.03247	0.046
Mof_C 	C 	0.53133	0.79187	0.01477	0.064
Mof_C 	C 	0.47763	0.75827	0.01527	-0.092
Mof_H 	H 	0.45513	0.75367	0.00457	0.086
Mof_N 	N 	0.62013	0.83917	0.03187	-0.1
Mof_N 	N 	0.55513	0.81027	0.99757	-0.106
Mof_N 	N 	0.77723	0.92767	0.99227	-0.112
Mof_N 	N 	0.71233	0.89317	0.95967	-0.111
Mof_C 	C 	0.70373	0.89857	0.01487	0.126
Mof_C 	C 	0.71003	0.95347	0.02187	-0.48
Mof_H 	H 	0.74823	0.98047	0.02257	0.179
Mof_H 	H 	0.69393	0.94867	0.03467	0.173
Mof_H 	H 	0.69193	0.96517	0.01277	0.161
Mof_C 	C 	0.72953	0.87637	0.02827	0.192
Mof_H 	H 	0.76863	0.89827	0.02727	-0.028
Mof_H 	H 	0.71813	0.83927	0.02457	-0.162
Mof_H 	H 	0.71843	0.87717	0.04157	-0.019
Mof_C 	C 	0.61293	0.85167	0.99807	0.031
Mof_C 	C 	0.60483	0.82707	0.96177	0.308
Mof_H 	H 	0.60863	0.79557	0.96407	-0.146
Mof_H 	H 	0.62113	0.84327	0.94937	-0.048
Mof_H 	H 	0.56673	0.81627	0.96167	-0.046
Mof_C 	C 	0.63173	0.86597	0.97707	-0.009
Mof_C 	C 	0.84613	0.94137	0.93947	0.047
Mof_C 	C 	0.87843	0.96227	0.95557	0.014
Mof_C 	C 	0.85613	0.95947	0.97347	-0.094
Mof_H 	H 	0.87813	0.97357	0.98457	0.023
Mof_C 	C 	0.80243	0.93647	0.97477	0.062
Mof_C 	C 	0.76763	0.91517	0.95747	0.061
Mof_C 	C 	0.69533	0.89567	0.97817	0.04
Mof_C 	C 	0.72603	0.90587	0.99347	0.009
Mof_C 	C 	0.79103	0.91847	0.93977	-0.096
Mof_H 	H 	0.77013	0.90567	0.92837	0.063
Mof_C 	C 	0.64193	0.86067	0.01547	0.016
Mof_C 	C 	0.62273	0.91387	0.97197	-0.377
Mof_H 	H 	0.64903	0.94607	0.97897	0.131
Mof_H 	H 	0.58643	0.90487	0.97577	0.141
Mof_H 	H 	0.62733	0.92057	0.95807	0.14
Mof_N 	N 	0.4296	0.7534	0.55514	-0.243
Mof_N 	N 	0.5974	0.8468	0.5191	-0.115
Mof_N 	N 	0.7527	0.9253	0.47978	-0.12
Mof_N 	N 	0.9054	0.9912	0.43556	-0.236
Mof_C 	C 	0.4733	0.7611	0.54531	0.07
Mof_C 	C 	0.5135	0.8076	0.53657	-0.15
Mof_H 	H 	0.5132	0.8405	0.5368	0.085
Mof_C 	C 	0.5551	0.8027	0.52732	0.073
Mof_C 	C 	0.6356	0.8423	0.51145	-0.015
Mof_C 	C 	0.6813	0.8955	0.50283	0.266
Mof_C 	C 	0.716	0.931	0.52009	-0.625
Mof_H 	H 	0.6933	0.9381	0.5288	0.216
Mof_H 	H 	0.7452	0.965	0.5152	0.217
Mof_H 	H 	0.731	0.9121	0.5272	0.23
Mof_C 	C 	0.658	0.9232	0.49079	-0.623
Mof_H 	H 	0.6336	0.9296	0.4987	0.215
Mof_H 	H 	0.6383	0.9004	0.4798	0.212
Mof_H 	H 	0.6872	0.9576	0.4861	0.209
Mof_C 	C 	0.7185	0.8852	0.49051	-0.022
Mof_C 	C 	0.788	0.9201	0.46847	0.078
Mof_C 	C 	0.8263	0.963	0.45786	-0.154
Mof_H 	H 	0.8272	0.9965	0.4577	0.086
Mof_C 	C 	0.8628	0.9559	0.44755	0.07
Mof_C 	C 	0.8802	0.0906	0.3833	-0.062
Mof_H 	H 	0.8672	0.0989	0.3946	0.043
Mof_C 	C 	0.8596	0.0906	0.3658	0.037
Mof_C 	C 	0.8748	0.0728	0.3481	0.068
Mof_C 	C 	0.9084	0.0527	0.3486	-0.106
Mof_H 	H 	0.913	0.0348	0.3379	0.087
Mof_N 	N 	0.8275	0.1143	0.3652	-0.101
Mof_N 	N 	0.8564	0.0782	0.3309	-0.108
Mof_N 	N 	0.739	0.1829	0.3256	-0.115
Mof_N 	N 	0.7735	0.1525	0.293	-0.112
Mof_C 	C 	0.7681	0.1385	0.3482	0.117
Mof_C 	C 	0.7132	0.0899	0.3552	-0.455
Mof_H 	H 	0.6862	0.1011	0.3559	0.162
Mof_H 	H 	0.718	0.0786	0.368	0.158
Mof_H 	H 	0.7015	0.0601	0.3461	0.143
Mof_C 	C 	0.7903	0.1865	0.3616	0.192
Mof_H 	H 	0.7684	0.2037	0.3606	-0.031
Mof_H 	H 	0.8274	0.2122	0.3579	-0.163
Mof_H 	H 	0.7895	0.1746	0.3749	-0.021
Mof_C 	C 	0.815	0.0946	0.3314	0.03
Mof_C 	C 	0.8396	0.1111	0.2951	0.308
Mof_H 	H 	0.8711	0.1464	0.2974	-0.147
Mof_H 	H 	0.8234	0.1112	0.2827	-0.05
Mof_H 	H 	0.8504	0.0838	0.295	-0.047
Mof_C 	C 	0.8007	0.0991	0.3104	-0.014
Mof_C 	C 	0.7253	0.2381	0.2728	0.039
Mof_C 	C 	0.7044	0.2495	0.2889	0.008
Mof_C 	C 	0.7072	0.23	0.3068	-0.095
Mof_H 	H 	0.6931	0.2379	0.3179	0.014
Mof_C 	C 	0.7302	0.1993	0.3081	0.059
Mof_C 	C 	0.7515	0.1858	0.2908	0.057
Mof_C 	C 	0.771	0.133	0.3115	0.038
Mof_C 	C 	0.7608	0.1535	0.3268	0.009
Mof_C 	C 	0.7482	0.2059	0.2731	-0.094
Mof_H 	H 	0.761	0.1978	0.2617	0.059
Mof_C 	C 	0.806	0.1146	0.3488	0.017
Mof_C 	C 	0.7528	0.0422	0.3053	-0.357
Mof_H 	H 	0.7206	0.0363	0.3123	0.117
Mof_H 	H 	0.7618	0.0149	0.3091	0.129
Mof_H 	H 	0.7461	0.0401	0.2914	0.127
Mof_N 	N 	0.09627	0.08673	0.88847	-0.247
Mof_N 	N 	0.26407	0.18013	0.85243	-0.118
Mof_N 	N 	0.41937	0.25863	0.81311	-0.123
Mof_N 	N 	0.57207	0.32453	0.76889	-0.246
Mof_C 	C 	0.13997	0.09443	0.87864	0.068
Mof_C 	C 	0.18017	0.14093	0.8699	-0.152
Mof_H 	H 	0.17987	0.17383	0.87013	0.083
Mof_C 	C 	0.22177	0.13603	0.86065	0.071
Mof_C 	C 	0.30227	0.17563	0.84478	-0.013
Mof_C 	C 	0.34797	0.22883	0.83616	0.254
Mof_C 	C 	0.38267	0.26433	0.85342	-0.605
Mof_H 	H 	0.35997	0.27143	0.86213	0.205
Mof_H 	H 	0.41187	0.29833	0.84853	0.203
Mof_H 	H 	0.39767	0.24543	0.86053	0.222
Mof_C 	C 	0.32467	0.25653	0.82412	-0.6
Mof_H 	H 	0.30027	0.26293	0.83203	0.203
Mof_H 	H 	0.30497	0.23373	0.81313	0.201
Mof_H 	H 	0.35387	0.29093	0.81943	0.196
Mof_C 	C 	0.38517	0.21853	0.82384	-0.021
Mof_C 	C 	0.45467	0.25343	0.8018	0.074
Mof_C 	C 	0.49297	0.29633	0.79119	-0.154
Mof_H 	H 	0.49387	0.32983	0.79103	0.077
Mof_C 	C 	0.52947	0.28923	0.78088	0.064
Mof_C 	C 	0.54687	0.42393	0.71663	-0.068
Mof_H 	H 	0.53387	0.43223	0.72793	0.046
Mof_C 	C 	0.52627	0.42393	0.69913	0.043
Mof_C 	C 	0.54147	0.40613	0.68143	0.065
Mof_C 	C 	0.57507	0.38603	0.68193	-0.095
Mof_H 	H 	0.57967	0.36813	0.67123	0.086
Mof_N 	N 	0.49417	0.44763	0.69853	-0.101
Mof_N 	N 	0.52307	0.41153	0.66423	-0.107
Mof_N 	N 	0.40567	0.51623	0.65893	-0.114
Mof_N 	N 	0.44017	0.48583	0.62633	-0.112
Mof_C 	C 	0.43477	0.47183	0.68153	0.119
Mof_C 	C 	0.37987	0.42323	0.68853	-0.461
Mof_H 	H 	0.35287	0.43443	0.68923	0.165
Mof_H 	H 	0.38467	0.41193	0.70133	0.163
Mof_H 	H 	0.36817	0.39343	0.67943	0.148
Mof_C 	C 	0.45697	0.51983	0.69493	0.192
Mof_H 	H 	0.43507	0.53703	0.69393	-0.03
Mof_H 	H 	0.49407	0.54553	0.69123	-0.162
Mof_H 	H 	0.45617	0.50793	0.70823	-0.021
Mof_C 	C 	0.48167	0.42793	0.66473	0.031
Mof_C 	C 	0.50627	0.44443	0.62843	0.307
Mof_H 	H 	0.53777	0.47973	0.63073	-0.146
Mof_H 	H 	0.49007	0.44453	0.61603	-0.049
Mof_H 	H 	0.51707	0.41713	0.62833	-0.047
Mof_C 	C 	0.46737	0.43243	0.64373	-0.011
Mof_C 	C 	0.39197	0.57143	0.60613	0.044
Mof_C 	C 	0.37107	0.58283	0.62223	0.005
Mof_C 	C 	0.37387	0.56333	0.64013	-0.092
Mof_H 	H 	0.35977	0.57123	0.65123	0.013
Mof_C 	C 	0.39687	0.53263	0.64143	0.057
Mof_C 	C 	0.41817	0.51913	0.62413	0.059
Mof_C 	C 	0.43767	0.46633	0.64483	0.038
Mof_C 	C 	0.42747	0.48683	0.66013	0.009
Mof_C 	C 	0.41487	0.53923	0.60643	-0.098
Mof_H 	H 	0.42767	0.53113	0.59503	0.061
Mof_C 	C 	0.47267	0.44793	0.68213	0.017
Mof_C 	C 	0.41947	0.37553	0.63863	-0.364
Mof_H 	H 	0.38727	0.36963	0.64563	0.121
Mof_H 	H 	0.42847	0.34823	0.64243	0.134
Mof_H 	H 	0.41277	0.37343	0.62473	0.131
Mof_N 	N 	0.76293	0.42007	0.22181	-0.243
Mof_N 	N 	0.93073	0.51347	0.18577	-0.118
Mof_N 	N 	0.08603	0.59197	0.14645	-0.126
Mof_N 	N 	0.23873	0.65787	0.10223	-0.246
Mof_C 	C 	0.80663	0.42777	0.21198	0.07
Mof_C 	C 	0.84683	0.47427	0.20324	-0.149
Mof_H 	H 	0.84653	0.50717	0.20347	0.086
Mof_C 	C 	0.88843	0.46937	0.19399	0.074
Mof_C 	C 	0.96893	0.50897	0.17812	0.016
Mof_C 	C 	0.01463	0.56217	0.1695	0.177
Mof_C 	C 	0.04933	0.59767	0.18676	-0.546
Mof_H 	H 	0.02663	0.60477	0.19547	0.183
Mof_H 	H 	0.07853	0.63167	0.18187	0.186
Mof_H 	H 	0.06433	0.57877	0.19387	0.203
Mof_C 	C 	0.99133	0.58987	0.15746	-0.45
Mof_H 	H 	0.96693	0.59627	0.16537	0.17
Mof_H 	H 	0.97163	0.56707	0.14647	0.168
Mof_H 	H 	0.02053	0.62427	0.15277	0.141
Mof_C 	C 	0.05183	0.55187	0.15718	-0.009
Mof_C 	C 	0.12133	0.58677	0.13514	0.073
Mof_C 	C 	0.15963	0.62967	0.12453	-0.154
Mof_H 	H 	0.16053	0.66317	0.12437	0.076
Mof_C 	C 	0.19613	0.62257	0.11422	0.063
Mof_C 	C 	0.21353	0.75727	0.04997	-0.067
Mof_H 	H 	0.20053	0.76557	0.06127	0.046
Mof_C 	C 	0.19293	0.75727	0.03247	0.042
Mof_C 	C 	0.20813	0.73947	0.01477	0.065
Mof_C 	C 	0.24173	0.71937	0.01527	-0.097
Mof_H 	H 	0.24633	0.70147	0.00457	0.086
Mof_N 	N 	0.16083	0.78097	0.03187	-0.102
Mof_N 	N 	0.18973	0.74487	0.99757	-0.107
Mof_N 	N 	0.07233	0.84957	0.99227	-0.116
Mof_N 	N 	0.10683	0.81917	0.95967	-0.113
Mof_C 	C 	0.10143	0.80517	0.01487	0.113
Mof_C 	C 	0.04653	0.75657	0.02187	-0.444
Mof_H 	H 	0.01953	0.76777	0.02257	0.152
Mof_H 	H 	0.05133	0.74527	0.03467	0.154
Mof_H 	H 	0.03483	0.72677	0.01277	0.137
Mof_C 	C 	0.12363	0.85317	0.02827	0.193
Mof_H 	H 	0.10173	0.87037	0.02727	-0.033
Mof_H 	H 	0.16073	0.87887	0.02457	-0.164
Mof_H 	H 	0.12283	0.84127	0.04157	-0.022
Mof_C 	C 	0.14833	0.76127	0.99807	0.03
Mof_C 	C 	0.17293	0.77777	0.96177	0.307
Mof_H 	H 	0.20443	0.81307	0.96407	-0.147
Mof_H 	H 	0.15673	0.77787	0.94937	-0.05
Mof_H 	H 	0.18373	0.75047	0.96167	-0.047
Mof_C 	C 	0.13403	0.76577	0.97707	-0.014
Mof_C 	C 	0.05863	0.90477	0.93947	0.04
Mof_C 	C 	0.03773	0.91617	0.95557	-0.003
Mof_C 	C 	0.04053	0.89667	0.97347	-0.09
Mof_H 	H 	0.02643	0.90457	0.98457	0.008
Mof_C 	C 	0.06353	0.86597	0.97477	0.051
Mof_C 	C 	0.08483	0.85247	0.95747	0.057
Mof_C 	C 	0.10433	0.79967	0.97817	0.036
Mof_C 	C 	0.09413	0.82017	0.99347	0.009
Mof_C 	C 	0.08153	0.87257	0.93977	-0.101
Mof_H 	H 	0.09433	0.86447	0.92837	0.06
Mof_C 	C 	0.13933	0.78127	0.01547	0.018
Mof_C 	C 	0.08613	0.70887	0.97197	-0.353
Mof_H 	H 	0.05393	0.70297	0.97897	0.112
Mof_H 	H 	0.09513	0.68157	0.97577	0.128
Mof_H 	H 	0.07943	0.70677	0.95807	0.124
Mof_N 	N 	0.2466	0.6762	0.55514	-0.244
Mof_N 	N 	0.1532	0.7506	0.5191	-0.119
Mof_N 	N 	0.0747	0.8274	0.47978	-0.126
Mof_N 	N 	0.0088	0.9142	0.43556	-0.251
Mof_C 	C 	0.2389	0.7122	0.54531	0.069
Mof_C 	C 	0.1924	0.7059	0.53657	-0.15
Mof_H 	H 	0.1595	0.6727	0.5368	0.082
Mof_C 	C 	0.1973	0.7524	0.52732	0.071
Mof_C 	C 	0.1577	0.7933	0.51145	-0.007
Mof_C 	C 	0.1045	0.7858	0.50283	0.243
Mof_C 	C 	0.069	0.785	0.52009	-0.587
Mof_H 	H 	0.0619	0.7552	0.5288	0.196
Mof_H 	H 	0.035	0.7802	0.5152	0.191
Mof_H 	H 	0.0879	0.8189	0.5272	0.214
Mof_C 	C 	0.0768	0.7348	0.49079	-0.584
Mof_H 	H 	0.0704	0.704	0.4987	0.196
Mof_H 	H 	0.0996	0.7379	0.4798	0.197
Mof_H 	H 	0.0424	0.7296	0.4861	0.185
Mof_C 	C 	0.1148	0.8333	0.49051	-0.016
Mof_C 	C 	0.0799	0.8679	0.46847	0.071
Mof_C 	C 	0.037	0.8633	0.45786	-0.152
Mof_H 	H 	0.0035	0.8307	0.4577	0.068
Mof_C 	C 	0.0441	0.9069	0.44755	0.059
Mof_C 	C 	0.9094	0.7896	0.3833	-0.071
Mof_H 	H 	0.9011	0.7683	0.3946	0.05
Mof_C 	C 	0.9094	0.769	0.3658	0.049
Mof_C 	C 	0.9272	0.802	0.3481	0.064
Mof_C 	C 	0.9473	0.8557	0.3486	-0.087
Mof_H 	H 	0.9652	0.8782	0.3379	0.091
Mof_N 	N 	0.8857	0.7132	0.3652	-0.101
Mof_N 	N 	0.9218	0.7782	0.3309	-0.104
Mof_N 	N 	0.8171	0.5561	0.3256	-0.114
Mof_N 	N 	0.8475	0.621	0.293	-0.111
Mof_C 	C 	0.8615	0.6296	0.3482	0.122
Mof_C 	C 	0.9101	0.6233	0.3552	-0.47
Mof_H 	H 	0.8989	0.5851	0.3559	0.169
Mof_H 	H 	0.9214	0.6394	0.368	0.169
Mof_H 	H 	0.9399	0.6414	0.3461	0.155
Mof_C 	C 	0.8135	0.6038	0.3616	0.192
Mof_H 	H 	0.7963	0.5647	0.3606	-0.03
Mof_H 	H 	0.7878	0.6152	0.3579	-0.162
Mof_H 	H 	0.8254	0.6149	0.3749	-0.02
Mof_C 	C 	0.9054	0.7204	0.3314	0.032
Mof_C 	C 	0.8889	0.7285	0.2951	0.31
Mof_H 	H 	0.8536	0.7247	0.2974	-0.147
Mof_H 	H 	0.8888	0.7122	0.2827	-0.047
Mof_H 	H 	0.9162	0.7666	0.295	-0.044
Mof_C 	C 	0.9009	0.7016	0.3104	-0.008
Mof_C 	C 	0.7619	0.4872	0.2728	0.047
Mof_C 	C 	0.7505	0.4549	0.2889	0.004
Mof_C 	C 	0.77	0.4772	0.3068	-0.091
Mof_H 	H 	0.7621	0.4552	0.3179	0.012
Mof_C 	C 	0.8007	0.5309	0.3081	0.056
Mof_C 	C 	0.8142	0.5657	0.2908	0.061
Mof_C 	C 	0.867	0.638	0.3115	0.038
Mof_C 	C 	0.8465	0.6073	0.3268	0.008
Mof_C 	C 	0.7941	0.5423	0.2731	-0.101
Mof_H 	H 	0.8022	0.5632	0.2617	0.063
Mof_C 	C 	0.8854	0.6914	0.3488	0.018
Mof_C 	C 	0.9578	0.7106	0.3053	-0.376
Mof_H 	H 	0.9637	0.6843	0.3123	0.128
Mof_H 	H 	0.9851	0.7469	0.3091	0.144
Mof_H 	H 	0.9599	0.706	0.2914	0.139
Mof_N 	N 	0.91327	0.00953	0.88847	-0.249
Mof_N 	N 	0.81987	0.08393	0.85243	-0.118
Mof_N 	N 	0.74137	0.16073	0.81311	-0.123
Mof_N 	N 	0.67547	0.24753	0.76889	-0.246
Mof_C 	C 	0.90557	0.04553	0.87864	0.066
Mof_C 	C 	0.85907	0.03923	0.8699	-0.149
Mof_H 	H 	0.82617	0.00603	0.87013	0.078
Mof_C 	C 	0.86397	0.08573	0.86065	0.07
Mof_C 	C 	0.82437	0.12663	0.84478	-0.011
Mof_C 	C 	0.77117	0.11913	0.83616	0.252
Mof_C 	C 	0.73567	0.11833	0.85342	-0.604
Mof_H 	H 	0.72857	0.08853	0.86213	0.204
Mof_H 	H 	0.70167	0.11353	0.84853	0.204
Mof_H 	H 	0.75457	0.15223	0.86053	0.221
Mof_C 	C 	0.74347	0.06813	0.82412	-0.597
Mof_H 	H 	0.73707	0.03733	0.83203	0.201
Mof_H 	H 	0.76627	0.07123	0.81313	0.2
Mof_H 	H 	0.70907	0.06293	0.81943	0.194
Mof_C 	C 	0.78147	0.16663	0.82384	-0.019
Mof_C 	C 	0.74657	0.20123	0.8018	0.074
Mof_C 	C 	0.70367	0.19663	0.79119	-0.154
Mof_H 	H 	0.67017	0.16403	0.79103	0.077
Mof_C 	C 	0.71077	0.24023	0.78088	0.064
Mof_C 	C 	0.57607	0.12293	0.71663	-0.068
Mof_H 	H 	0.56777	0.10163	0.72793	0.045
Mof_C 	C 	0.57607	0.10233	0.69913	0.043
Mof_C 	C 	0.59387	0.13533	0.68143	0.064
Mof_C 	C 	0.61397	0.18903	0.68193	-0.093
Mof_H 	H 	0.63187	0.21153	0.67123	0.085
Mof_N 	N 	0.55237	0.04653	0.69853	-0.101
Mof_N 	N 	0.58847	0.11153	0.66423	-0.107
Mof_N 	N 	0.48377	0.88943	0.65893	-0.112
Mof_N 	N 	0.51417	0.95433	0.62633	-0.11
Mof_C 	C 	0.52817	0.96293	0.68153	0.147
Mof_C 	C 	0.57677	0.95663	0.68853	-0.486
Mof_H 	H 	0.56557	0.91843	0.68923	0.173
Mof_H 	H 	0.58807	0.97273	0.70133	0.176
Mof_H 	H 	0.60657	0.97473	0.67943	0.161
Mof_C 	C 	0.48017	0.93713	0.69493	0.188
Mof_H 	H 	0.46297	0.89803	0.69393	-0.029
Mof_H 	H 	0.45447	0.94853	0.69123	-0.163
Mof_H 	H 	0.49207	0.94823	0.70823	-0.016
Mof_C 	C 	0.57207	0.05373	0.66473	0.037
Mof_C 	C 	0.55557	0.06183	0.62843	0.294
Mof_H 	H 	0.52027	0.05803	0.63073	-0.138
Mof_H 	H 	0.55547	0.04553	0.61603	-0.05
Mof_H 	H 	0.58287	0.09993	0.62833	-0.043
Mof_C 	C 	0.56757	0.03493	0.64373	-0.033
Mof_C 	C 	0.42857	0.82053	0.60613	0.045
Mof_C 	C 	0.41717	0.78823	0.62223	0.005
Mof_C 	C 	0.43667	0.81053	0.64013	-0.092
Mof_H 	H 	0.42877	0.78853	0.65123	0.013
Mof_C 	C 	0.46737	0.86423	0.64143	0.056
Mof_C 	C 	0.48087	0.89903	0.62413	0.061
Mof_C 	C 	0.53367	0.97133	0.64483	0.064
Mof_C 	C 	0.51317	0.94063	0.66013	-0.002
Mof_C 	C 	0.46077	0.87563	0.60643	-0.099
Mof_H 	H 	0.46887	0.89653	0.59503	0.063
Mof_C 	C 	0.55207	0.02473	0.68213	-0.008
Mof_C 	C 	0.62447	0.04393	0.63863	-0.343
Mof_H 	H 	0.63037	0.01763	0.64563	0.105
Mof_H 	H 	0.65177	0.08023	0.64243	0.127
Mof_H 	H 	0.62657	0.03933	0.62473	0.12
Mof_N 	N 	0.57993	0.34287	0.22181	-0.244
Mof_N 	N 	0.48653	0.41727	0.18577	-0.117
Mof_N 	N 	0.40803	0.49407	0.14645	-0.123
Mof_N 	N 	0.34213	0.58087	0.10223	-0.246
Mof_C 	C 	0.57223	0.37887	0.21198	0.069
Mof_C 	C 	0.52573	0.37257	0.20324	-0.15
Mof_H 	H 	0.49283	0.33937	0.20347	0.083
Mof_C 	C 	0.53063	0.41907	0.19399	0.072
Mof_C 	C 	0.49103	0.45997	0.17812	-0.012
Mof_C 	C 	0.43783	0.45247	0.1695	0.254
Mof_C 	C 	0.40233	0.45167	0.18676	-0.605
Mof_H 	H 	0.39523	0.42187	0.19547	0.205
Mof_H 	H 	0.36833	0.44687	0.18187	0.203
Mof_H 	H 	0.42123	0.48557	0.19387	0.222
Mof_C 	C 	0.41013	0.40147	0.15746	-0.602
Mof_H 	H 	0.40373	0.37067	0.16537	0.205
Mof_H 	H 	0.43293	0.40457	0.14647	0.204
Mof_H 	H 	0.37573	0.39627	0.15277	0.197
Mof_C 	C 	0.44813	0.49997	0.15718	-0.02
Mof_C 	C 	0.41323	0.53457	0.13514	0.074
Mof_C 	C 	0.37033	0.52997	0.12453	-0.154
Mof_H 	H 	0.33683	0.49737	0.12437	0.077
Mof_C 	C 	0.37743	0.57357	0.11422	0.064
Mof_C 	C 	0.24273	0.45627	0.04997	-0.069
Mof_H 	H 	0.23443	0.43497	0.06127	0.047
Mof_C 	C 	0.24273	0.43567	0.03247	0.045
Mof_C 	C 	0.26053	0.46867	0.01477	0.064
Mof_C 	C 	0.28063	0.52237	0.01527	-0.092
Mof_H 	H 	0.29853	0.54487	0.00457	0.085
Mof_N 	N 	0.21903	0.37987	0.03187	-0.101
Mof_N 	N 	0.25513	0.44487	0.99757	-0.106
Mof_N 	N 	0.15043	0.22277	0.99227	-0.115
Mof_N 	N 	0.18083	0.28767	0.95967	-0.112
Mof_C 	C 	0.19483	0.29627	0.01487	0.119
Mof_C 	C 	0.24343	0.28997	0.02187	-0.462
Mof_H 	H 	0.23223	0.25177	0.02257	0.165
Mof_H 	H 	0.25473	0.30607	0.03467	0.163
Mof_H 	H 	0.27323	0.30807	0.01277	0.149
Mof_C 	C 	0.14683	0.27047	0.02827	0.192
Mof_H 	H 	0.12963	0.23137	0.02727	-0.031
Mof_H 	H 	0.12113	0.28187	0.02457	-0.16
Mof_H 	H 	0.15873	0.28157	0.04157	-0.021
Mof_C 	C 	0.23873	0.38707	0.99807	0.031
Mof_C 	C 	0.22223	0.39517	0.96177	0.306
Mof_H 	H 	0.18693	0.39137	0.96407	-0.144
Mof_H 	H 	0.22213	0.37887	0.94937	-0.049
Mof_H 	H 	0.24953	0.43327	0.96167	-0.047
Mof_C 	C 	0.23423	0.36827	0.97707	-0.011
Mof_C 	C 	0.09523	0.15387	0.93947	0.048
Mof_C 	C 	0.08383	0.12157	0.95557	0.005
Mof_C 	C 	0.10333	0.14387	0.97347	-0.093
Mof_H 	H 	0.09543	0.12187	0.98457	0.01
Mof_C 	C 	0.13403	0.19757	0.97477	0.057
Mof_C 	C 	0.14753	0.23237	0.95747	0.06
Mof_C 	C 	0.20033	0.30467	0.97817	0.038
Mof_C 	C 	0.17983	0.27397	0.99347	0.009
Mof_C 	C 	0.12743	0.20897	0.93977	-0.1
Mof_H 	H 	0.13553	0.22987	0.92837	0.061
Mof_C 	C 	0.21873	0.35807	0.01547	0.018
Mof_C 	C 	0.29113	0.37727	0.97197	-0.365
Mof_H 	H 	0.29703	0.35097	0.97897	0.121
Mof_H 	H 	0.31843	0.41357	0.97577	0.135
Mof_H 	H 	0.29323	0.37267	0.95807	0.132
Mof_N 	N 	0.4296	0.6762	0.55514	-0.244
Mof_N 	N 	0.5974	0.7506	0.5191	-0.117
Mof_N 	N 	0.7527	0.8274	0.47978	-0.123
Mof_N 	N 	0.9054	0.9142	0.43556	-0.242
Mof_C 	C 	0.4733	0.7122	0.54531	0.07
Mof_C 	C 	0.5135	0.7059	0.53657	-0.15
Mof_H 	H 	0.5132	0.6727	0.5368	0.084
Mof_C 	C 	0.5551	0.7524	0.52732	0.072
Mof_C 	C 	0.6356	0.7933	0.51145	-0.011
Mof_C 	C 	0.6813	0.7858	0.50283	0.254
Mof_C 	C 	0.716	0.785	0.52009	-0.606
Mof_H 	H 	0.6933	0.7552	0.5288	0.206
Mof_H 	H 	0.7452	0.7802	0.5152	0.204
Mof_H 	H 	0.731	0.8189	0.5272	0.223
Mof_C 	C 	0.658	0.7348	0.49079	-0.604
Mof_H 	H 	0.6336	0.704	0.4987	0.206
Mof_H 	H 	0.6383	0.7379	0.4798	0.205
Mof_H 	H 	0.6872	0.7296	0.4861	0.197
Mof_C 	C 	0.7185	0.8333	0.49051	-0.018
Mof_C 	C 	0.788	0.8679	0.46847	0.075
Mof_C 	C 	0.8263	0.8633	0.45786	-0.152
Mof_H 	H 	0.8272	0.8307	0.4577	0.077
Mof_C 	C 	0.8628	0.9069	0.44755	0.065
Mof_C 	C 	0.8802	0.7896	0.3833	-0.065
Mof_H 	H 	0.8672	0.7683	0.3946	0.046
Mof_C 	C 	0.8596	0.769	0.3658	0.042
Mof_C 	C 	0.8748	0.802	0.3481	0.068
Mof_C 	C 	0.9084	0.8557	0.3486	-0.099
Mof_H 	H 	0.913	0.8782	0.3379	0.091
Mof_N 	N 	0.8275	0.7132	0.3652	-0.101
Mof_N 	N 	0.8564	0.7782	0.3309	-0.106
Mof_N 	N 	0.739	0.5561	0.3256	-0.114
Mof_N 	N 	0.7735	0.621	0.293	-0.111
Mof_C 	C 	0.7681	0.6296	0.3482	0.12
Mof_C 	C 	0.7132	0.6233	0.3552	-0.463
Mof_H 	H 	0.6862	0.5851	0.3559	0.166
Mof_H 	H 	0.718	0.6394	0.368	0.164
Mof_H 	H 	0.7015	0.6414	0.3461	0.149
Mof_C 	C 	0.7903	0.6038	0.3616	0.192
Mof_H 	H 	0.7684	0.5647	0.3606	-0.03
Mof_H 	H 	0.8274	0.6152	0.3579	-0.163
Mof_H 	H 	0.7895	0.6149	0.3749	-0.02
Mof_C 	C 	0.815	0.7204	0.3314	0.031
Mof_C 	C 	0.8396	0.7285	0.2951	0.31
Mof_H 	H 	0.8711	0.7247	0.2974	-0.148
Mof_H 	H 	0.8234	0.7122	0.2827	-0.048
Mof_H 	H 	0.8504	0.7666	0.295	-0.045
Mof_C 	C 	0.8007	0.7016	0.3104	-0.011
Mof_C 	C 	0.7253	0.4872	0.2728	0.043
Mof_C 	C 	0.7044	0.4549	0.2889	0.006
Mof_C 	C 	0.7072	0.4772	0.3068	-0.093
Mof_H 	H 	0.6931	0.4552	0.3179	0.013
Mof_C 	C 	0.7302	0.5309	0.3081	0.057
Mof_C 	C 	0.7515	0.5657	0.2908	0.059
Mof_C 	C 	0.771	0.638	0.3115	0.038
Mof_C 	C 	0.7608	0.6073	0.3268	0.009
Mof_C 	C 	0.7482	0.5423	0.2731	-0.097
Mof_H 	H 	0.761	0.5632	0.2617	0.061
Mof_C 	C 	0.806	0.6914	0.3488	0.017
Mof_C 	C 	0.7528	0.7106	0.3053	-0.368
Mof_H 	H 	0.7206	0.6843	0.3123	0.123
Mof_H 	H 	0.7618	0.7469	0.3091	0.138
Mof_H 	H 	0.7461	0.706	0.2914	0.134
Mof_N 	N 	0.09627	0.00953	0.88847	-0.253
Mof_N 	N 	0.26407	0.08393	0.85243	-0.119
Mof_N 	N 	0.41937	0.16073	0.81311	-0.123
Mof_N 	N 	0.57207	0.24753	0.76889	-0.246
Mof_C 	C 	0.13997	0.04553	0.87864	0.064
Mof_C 	C 	0.18017	0.03923	0.8699	-0.152
Mof_H 	H 	0.17987	0.00603	0.87013	0.076
Mof_C 	C 	0.22177	0.08573	0.86065	0.069
Mof_C 	C 	0.30227	0.12663	0.84478	-0.012
Mof_C 	C 	0.34797	0.11913	0.83616	0.251
Mof_C 	C 	0.38267	0.11833	0.85342	-0.602
Mof_H 	H 	0.35997	0.08853	0.86213	0.204
Mof_H 	H 	0.41187	0.11353	0.84853	0.204
Mof_H 	H 	0.39767	0.15223	0.86053	0.221
Mof_C 	C 	0.32467	0.06813	0.82412	-0.593
Mof_H 	H 	0.30027	0.03733	0.83203	0.198
Mof_H 	H 	0.30497	0.07123	0.81313	0.197
Mof_H 	H 	0.35387	0.06293	0.81943	0.192
Mof_C 	C 	0.38517	0.16663	0.82384	-0.019
Mof_C 	C 	0.45467	0.20123	0.8018	0.074
Mof_C 	C 	0.49297	0.19663	0.79119	-0.154
Mof_H 	H 	0.49387	0.16403	0.79103	0.077
Mof_C 	C 	0.52947	0.24023	0.78088	0.064
Mof_C 	C 	0.54687	0.12293	0.71663	-0.068
Mof_H 	H 	0.53387	0.10163	0.72793	0.044
Mof_C 	C 	0.52627	0.10233	0.69913	0.042
Mof_C 	C 	0.54147	0.13533	0.68143	0.065
Mof_C 	C 	0.57507	0.18903	0.68193	-0.095
Mof_H 	H 	0.57967	0.21153	0.67123	0.086
Mof_N 	N 	0.49417	0.04653	0.69853	-0.101
Mof_N 	N 	0.52307	0.11153	0.66423	-0.107
Mof_N 	N 	0.40567	0.88943	0.65893	-0.112
Mof_N 	N 	0.44017	0.95433	0.62633	-0.11
Mof_C 	C 	0.43477	0.96293	0.68153	0.148
Mof_C 	C 	0.37987	0.95663	0.68853	-0.485
Mof_H 	H 	0.35287	0.91843	0.68923	0.172
Mof_H 	H 	0.38467	0.97273	0.70133	0.176
Mof_H 	H 	0.36817	0.97473	0.67943	0.161
Mof_C 	C 	0.45697	0.93713	0.69493	0.188
Mof_H 	H 	0.43507	0.89803	0.69393	-0.029
Mof_H 	H 	0.49407	0.94853	0.69123	-0.163
Mof_H 	H 	0.45617	0.94823	0.70823	-0.016
Mof_C 	C 	0.48167	0.05373	0.66473	0.037
Mof_C 	C 	0.50627	0.06183	0.62843	0.294
Mof_H 	H 	0.53777	0.05803	0.63073	-0.139
Mof_H 	H 	0.49007	0.04553	0.61603	-0.05
Mof_H 	H 	0.51707	0.09993	0.62833	-0.043
Mof_C 	C 	0.46737	0.03493	0.64373	-0.034
Mof_C 	C 	0.39197	0.82053	0.60613	0.046
Mof_C 	C 	0.37107	0.78823	0.62223	0.005
Mof_C 	C 	0.37387	0.81053	0.64013	-0.091
Mof_H 	H 	0.35977	0.78853	0.65123	0.013
Mof_C 	C 	0.39687	0.86423	0.64143	0.056
Mof_C 	C 	0.41817	0.89903	0.62413	0.061
Mof_C 	C 	0.43767	0.97133	0.64483	0.064
Mof_C 	C 	0.42747	0.94063	0.66013	-0.003
Mof_C 	C 	0.41487	0.87563	0.60643	-0.099
Mof_H 	H 	0.42767	0.89653	0.59503	0.064
Mof_C 	C 	0.47267	0.02473	0.68213	-0.009
Mof_C 	C 	0.41947	0.04393	0.63863	-0.34
Mof_H 	H 	0.38727	0.01763	0.64563	0.104
Mof_H 	H 	0.42847	0.08023	0.64243	0.125
Mof_H 	H 	0.41277	0.03933	0.62473	0.119
Mof_N 	N 	0.76293	0.34287	0.22181	-0.243
Mof_N 	N 	0.93073	0.41727	0.18577	-0.118
Mof_N 	N 	0.08603	0.49407	0.14645	-0.126
Mof_N 	N 	0.23873	0.58087	0.10223	-0.246
Mof_C 	C 	0.80663	0.37887	0.21198	0.07
Mof_C 	C 	0.84683	0.37257	0.20324	-0.149
Mof_H 	H 	0.84653	0.33937	0.20347	0.086
Mof_C 	C 	0.88843	0.41907	0.19399	0.074
Mof_C 	C 	0.96893	0.45997	0.17812	0.018
Mof_C 	C 	0.01463	0.45247	0.1695	0.174
Mof_C 	C 	0.04933	0.45167	0.18676	-0.544
Mof_H 	H 	0.02663	0.42187	0.19547	0.182
Mof_H 	H 	0.07853	0.44687	0.18187	0.185
Mof_H 	H 	0.06433	0.48557	0.19387	0.202
Mof_C 	C 	0.99133	0.40147	0.15746	-0.445
Mof_H 	H 	0.96693	0.37067	0.16537	0.168
Mof_H 	H 	0.97163	0.40457	0.14647	0.167
Mof_H 	H 	0.02053	0.39627	0.15277	0.139
Mof_C 	C 	0.05183	0.49997	0.15718	-0.008
Mof_C 	C 	0.12133	0.53457	0.13514	0.073
Mof_C 	C 	0.15963	0.52997	0.12453	-0.154
Mof_H 	H 	0.16053	0.49737	0.12437	0.076
Mof_C 	C 	0.19613	0.57357	0.11422	0.063
Mof_C 	C 	0.21353	0.45627	0.04997	-0.068
Mof_H 	H 	0.20053	0.43497	0.06127	0.046
Mof_C 	C 	0.19293	0.43567	0.03247	0.043
Mof_C 	C 	0.20813	0.46867	0.01477	0.064
Mof_C 	C 	0.24173	0.52237	0.01527	-0.095
Mof_H 	H 	0.24633	0.54487	0.00457	0.086
Mof_N 	N 	0.16083	0.37987	0.03187	-0.102
Mof_N 	N 	0.18973	0.44487	0.99757	-0.107
Mof_N 	N 	0.07233	0.22277	0.99227	-0.117
Mof_N 	N 	0.10683	0.28767	0.95967	-0.113
Mof_C 	C 	0.10143	0.29627	0.01487	0.112
Mof_C 	C 	0.04653	0.28997	0.02187	-0.443
Mof_H 	H 	0.01953	0.25177	0.02257	0.151
Mof_H 	H 	0.05133	0.30607	0.03467	0.153
Mof_H 	H 	0.03483	0.30807	0.01277	0.136
Mof_C 	C 	0.12363	0.27047	0.02827	0.192
Mof_H 	H 	0.10173	0.23137	0.02727	-0.033
Mof_H 	H 	0.16073	0.28187	0.02457	-0.162
Mof_H 	H 	0.12283	0.28157	0.04157	-0.022
Mof_C 	C 	0.14833	0.38707	0.99807	0.03
Mof_C 	C 	0.17293	0.39517	0.96177	0.306
Mof_H 	H 	0.20443	0.39137	0.96407	-0.146
Mof_H 	H 	0.15673	0.37887	0.94937	-0.05
Mof_H 	H 	0.18373	0.43327	0.96167	-0.047
Mof_C 	C 	0.13403	0.36827	0.97707	-0.014
Mof_C 	C 	0.05863	0.15387	0.93947	0.041
Mof_C 	C 	0.03773	0.12157	0.95557	-0.002
Mof_C 	C 	0.04053	0.14387	0.97347	-0.091
Mof_H 	H 	0.02643	0.12187	0.98457	0.004
Mof_C 	C 	0.06353	0.19757	0.97477	0.052
Mof_C 	C 	0.08483	0.23237	0.95747	0.057
Mof_C 	C 	0.10433	0.30467	0.97817	0.036
Mof_C 	C 	0.09413	0.27397	0.99347	0.009
Mof_C 	C 	0.08153	0.20897	0.93977	-0.1
Mof_H 	H 	0.09433	0.22987	0.92837	0.059
Mof_C 	C 	0.13933	0.35807	0.01547	0.019
Mof_C 	C 	0.08613	0.37727	0.97197	-0.353
Mof_H 	H 	0.05393	0.35097	0.97897	0.112
Mof_H 	H 	0.09513	0.41357	0.97577	0.128
Mof_H 	H 	0.07943	0.37267	0.95807	0.124
Mof_N 	N 	0.2466	0.5704	0.55514	-0.244
Mof_N 	N 	0.1532	0.4026	0.5191	-0.118
Mof_N 	N 	0.0747	0.2473	0.47978	-0.127
Mof_N 	N 	0.0088	0.0946	0.43556	-0.255
Mof_C 	C 	0.2389	0.5267	0.54531	0.069
Mof_C 	C 	0.1924	0.4865	0.53657	-0.15
Mof_H 	H 	0.1595	0.4868	0.5368	0.082
Mof_C 	C 	0.1973	0.4449	0.52732	0.071
Mof_C 	C 	0.1577	0.3644	0.51145	-0.009
Mof_C 	C 	0.1045	0.3187	0.50283	0.243
Mof_C 	C 	0.069	0.284	0.52009	-0.586
Mof_H 	H 	0.0619	0.3067	0.5288	0.195
Mof_H 	H 	0.035	0.2548	0.5152	0.189
Mof_H 	H 	0.0879	0.269	0.5272	0.213
Mof_C 	C 	0.0768	0.342	0.49079	-0.583
Mof_H 	H 	0.0704	0.3664	0.4987	0.196
Mof_H 	H 	0.0996	0.3617	0.4798	0.196
Mof_H 	H 	0.0424	0.3128	0.4861	0.184
Mof_C 	C 	0.1148	0.2815	0.49051	-0.018
Mof_C 	C 	0.0799	0.212	0.46847	0.07
Mof_C 	C 	0.037	0.1737	0.45786	-0.154
Mof_H 	H 	0.0035	0.1728	0.4577	0.067
Mof_C 	C 	0.0441	0.1372	0.44755	0.058
Mof_C 	C 	0.9094	0.1198	0.3833	-0.075
Mof_H 	H 	0.9011	0.1328	0.3946	0.051
Mof_C 	C 	0.9094	0.1404	0.3658	0.052
Mof_C 	C 	0.9272	0.1252	0.3481	0.061
Mof_C 	C 	0.9473	0.0916	0.3486	-0.081
Mof_H 	H 	0.9652	0.087	0.3379	0.087
Mof_N 	N 	0.8857	0.1725	0.3652	-0.101
Mof_N 	N 	0.9218	0.1436	0.3309	-0.105
Mof_N 	N 	0.8171	0.261	0.3256	-0.114
Mof_N 	N 	0.8475	0.2265	0.293	-0.112
Mof_C 	C 	0.8615	0.2319	0.3482	0.122
Mof_C 	C 	0.9101	0.2868	0.3552	-0.47
Mof_H 	H 	0.8989	0.3138	0.3559	0.169
Mof_H 	H 	0.9214	0.282	0.368	0.169
Mof_H 	H 	0.9399	0.2985	0.3461	0.155
Mof_C 	C 	0.8135	0.2097	0.3616	0.192
Mof_H 	H 	0.7963	0.2316	0.3606	-0.03
Mof_H 	H 	0.7878	0.1726	0.3579	-0.162
Mof_H 	H 	0.8254	0.2105	0.3749	-0.02
Mof_C 	C 	0.9054	0.185	0.3314	0.031
Mof_C 	C 	0.8889	0.1604	0.2951	0.307
Mof_H 	H 	0.8536	0.1289	0.2974	-0.145
Mof_H 	H 	0.8888	0.1766	0.2827	-0.048
Mof_H 	H 	0.9162	0.1496	0.295	-0.045
Mof_C 	C 	0.9009	0.1993	0.3104	-0.008
Mof_C 	C 	0.7619	0.2747	0.2728	0.05
Mof_C 	C 	0.7505	0.2956	0.2889	0.002
Mof_C 	C 	0.77	0.2928	0.3068	-0.09
Mof_H 	H 	0.7621	0.3069	0.3179	0.012
Mof_C 	C 	0.8007	0.2698	0.3081	0.055
Mof_C 	C 	0.8142	0.2485	0.2908	0.062
Mof_C 	C 	0.867	0.229	0.3115	0.038
Mof_C 	C 	0.8465	0.2392	0.3268	0.008
Mof_C 	C 	0.7941	0.2518	0.2731	-0.103
Mof_H 	H 	0.8022	0.239	0.2617	0.064
Mof_C 	C 	0.8854	0.194	0.3488	0.018
Mof_C 	C 	0.9578	0.2472	0.3053	-0.374
Mof_H 	H 	0.9637	0.2794	0.3123	0.127
Mof_H 	H 	0.9851	0.2382	0.3091	0.142
Mof_H 	H 	0.9599	0.2539	0.2914	0.138
Mof_N 	N 	0.91327	0.90373	0.88847	-0.24
Mof_N 	N 	0.81987	0.73593	0.85243	-0.116
Mof_N 	N 	0.74137	0.58063	0.81311	-0.123
Mof_N 	N 	0.67547	0.42793	0.76889	-0.246
Mof_C 	C 	0.90557	0.86003	0.87864	0.071
Mof_C 	C 	0.85907	0.81983	0.8699	-0.148
Mof_H 	H 	0.82617	0.82013	0.87013	0.085
Mof_C 	C 	0.86397	0.77823	0.86065	0.073
Mof_C 	C 	0.82437	0.69773	0.84478	-0.011
Mof_C 	C 	0.77117	0.65203	0.83616	0.256
Mof_C 	C 	0.73567	0.61733	0.85342	-0.607
Mof_H 	H 	0.72857	0.64003	0.86213	0.207
Mof_H 	H 	0.70167	0.58813	0.84853	0.204
Mof_H 	H 	0.75457	0.60233	0.86053	0.222
Mof_C 	C 	0.74347	0.67533	0.82412	-0.607
Mof_H 	H 	0.73707	0.69973	0.83203	0.208
Mof_H 	H 	0.76627	0.69503	0.81313	0.207
Mof_H 	H 	0.70907	0.64613	0.81943	0.199
Mof_C 	C 	0.78147	0.61483	0.82384	-0.02
Mof_C 	C 	0.74657	0.54533	0.8018	0.075
Mof_C 	C 	0.70367	0.50703	0.79119	-0.154
Mof_H 	H 	0.67017	0.50613	0.79103	0.077
Mof_C 	C 	0.71077	0.47053	0.78088	0.064
Mof_C 	C 	0.57607	0.45313	0.71663	-0.069
Mof_H 	H 	0.56777	0.46613	0.72793	0.047
Mof_C 	C 	0.57607	0.47373	0.69913	0.045
Mof_C 	C 	0.59387	0.45853	0.68143	0.064
Mof_C 	C 	0.61397	0.42493	0.68193	-0.092
Mof_H 	H 	0.63187	0.42033	0.67123	0.085
Mof_N 	N 	0.55237	0.50583	0.69853	-0.101
Mof_N 	N 	0.58847	0.47693	0.66423	-0.106
Mof_N 	N 	0.48377	0.59433	0.65893	-0.114
Mof_N 	N 	0.51417	0.55983	0.62633	-0.112
Mof_C 	C 	0.52817	0.56523	0.68153	0.12
Mof_C 	C 	0.57677	0.62013	0.68853	-0.463
Mof_H 	H 	0.56557	0.64713	0.68923	0.166
Mof_H 	H 	0.58807	0.61533	0.70133	0.164
Mof_H 	H 	0.60657	0.63183	0.67943	0.149
Mof_C 	C 	0.48017	0.54303	0.69493	0.192
Mof_H 	H 	0.46297	0.56493	0.69393	-0.03
Mof_H 	H 	0.45447	0.50593	0.69123	-0.162
Mof_H 	H 	0.49207	0.54383	0.70823	-0.021
Mof_C 	C 	0.57207	0.51833	0.66473	0.031
Mof_C 	C 	0.55557	0.49373	0.62843	0.307
Mof_H 	H 	0.52027	0.46223	0.63073	-0.146
Mof_H 	H 	0.55547	0.50993	0.61603	-0.049
Mof_H 	H 	0.58287	0.48293	0.62833	-0.046
Mof_C 	C 	0.56757	0.53263	0.64373	-0.011
Mof_C 	C 	0.42857	0.60803	0.60613	0.045
Mof_C 	C 	0.41717	0.62893	0.62223	0.005
Mof_C 	C 	0.43667	0.62613	0.64013	-0.092
Mof_H 	H 	0.42877	0.64023	0.65123	0.013
Mof_C 	C 	0.46737	0.60313	0.64143	0.057
Mof_C 	C 	0.48087	0.58183	0.62413	0.06
Mof_C 	C 	0.53367	0.56233	0.64483	0.038
Mof_C 	C 	0.51317	0.57253	0.66013	0.009
Mof_C 	C 	0.46077	0.58513	0.60643	-0.099
Mof_H 	H 	0.46887	0.57233	0.59503	0.061
Mof_C 	C 	0.55207	0.52733	0.68213	0.018
Mof_C 	C 	0.62447	0.58053	0.63863	-0.366
Mof_H 	H 	0.63037	0.61273	0.64563	0.122
Mof_H 	H 	0.65177	0.57153	0.64243	0.136
Mof_H 	H 	0.62657	0.58723	0.62473	0.133
Mof_N 	N 	0.57993	0.23707	0.22181	-0.244
Mof_N 	N 	0.48653	0.06927	0.18577	-0.116
Mof_N 	N 	0.40803	0.91397	0.14645	-0.12
Mof_N 	N 	0.34213	0.76127	0.10223	-0.245
Mof_C 	C 	0.57223	0.19337	0.21198	0.069
Mof_C 	C 	0.52573	0.15317	0.20324	-0.151
Mof_H 	H 	0.49283	0.15347	0.20347	0.081
Mof_C 	C 	0.53063	0.11157	0.19399	0.07
Mof_C 	C 	0.49103	0.03107	0.17812	-0.041
Mof_C 	C 	0.43783	0.98537	0.1695	0.334
Mof_C 	C 	0.40233	0.95067	0.18676	-0.667
Mof_H 	H 	0.39523	0.97337	0.19547	0.23
Mof_H 	H 	0.36833	0.92147	0.18187	0.222
Mof_H 	H 	0.42123	0.93567	0.19387	0.241
Mof_C 	C 	0.41013	0.00867	0.15746	-0.76
Mof_H 	H 	0.40373	0.03307	0.16537	0.242
Mof_H 	H 	0.43293	0.02837	0.14647	0.241
Mof_H 	H 	0.37573	0.97947	0.15277	0.254
Mof_C 	C 	0.44813	0.94817	0.15718	-0.032
Mof_C 	C 	0.41323	0.87867	0.13514	0.075
Mof_C 	C 	0.37033	0.84037	0.12453	-0.154
Mof_H 	H 	0.33683	0.83947	0.12437	0.077
Mof_C 	C 	0.37743	0.80387	0.11422	0.065
Mof_C 	C 	0.24273	0.78647	0.04997	-0.07
Mof_H 	H 	0.23443	0.79947	0.06127	0.048
Mof_C 	C 	0.24273	0.80707	0.03247	0.047
Mof_C 	C 	0.26053	0.79187	0.01477	0.064
Mof_C 	C 	0.28063	0.75827	0.01527	-0.09
Mof_H 	H 	0.29853	0.75367	0.00457	0.085
Mof_N 	N 	0.21903	0.83917	0.03187	-0.101
Mof_N 	N 	0.25513	0.81027	0.99757	-0.106
Mof_N 	N 	0.15043	0.92767	0.99227	-0.112
Mof_N 	N 	0.18083	0.89317	0.95967	-0.111
Mof_C 	C 	0.19483	0.89857	0.01487	0.127
Mof_C 	C 	0.24343	0.95347	0.02187	-0.481
Mof_H 	H 	0.23223	0.98047	0.02257	0.18
Mof_H 	H 	0.25473	0.94867	0.03467	0.173
Mof_H 	H 	0.27323	0.96517	0.01277	0.161
Mof_C 	C 	0.14683	0.87637	0.02827	0.191
Mof_H 	H 	0.12963	0.89827	0.02727	-0.028
Mof_H 	H 	0.12113	0.83927	0.02457	-0.16
Mof_H 	H 	0.15873	0.87717	0.04157	-0.019
Mof_C 	C 	0.23873	0.85167	0.99807	0.031
Mof_C 	C 	0.22223	0.82707	0.96177	0.307
Mof_H 	H 	0.18693	0.79557	0.96407	-0.144
Mof_H 	H 	0.22213	0.84327	0.94937	-0.048
Mof_H 	H 	0.24953	0.81627	0.96167	-0.046
Mof_C 	C 	0.23423	0.86597	0.97707	-0.008
Mof_C 	C 	0.09523	0.94137	0.93947	0.05
Mof_C 	C 	0.08383	0.96227	0.95557	0.014
Mof_C 	C 	0.10333	0.95947	0.97347	-0.095
Mof_H 	H 	0.09543	0.97357	0.98457	0.02
Mof_C 	C 	0.13403	0.93647	0.97477	0.063
Mof_C 	C 	0.14753	0.91517	0.95747	0.061
Mof_C 	C 	0.20033	0.89567	0.97817	0.04
Mof_C 	C 	0.17983	0.90587	0.99347	0.009
Mof_C 	C 	0.12743	0.91847	0.93977	-0.096
Mof_H 	H 	0.13553	0.90567	0.92837	0.063
Mof_C 	C 	0.21873	0.86067	0.01547	0.017
Mof_C 	C 	0.29113	0.91387	0.97197	-0.377
Mof_H 	H 	0.29703	0.94607	0.97897	0.131
Mof_H 	H 	0.31843	0.90487	0.97577	0.142
Mof_H 	H 	0.29323	0.92057	0.95807	0.14
Mof_N 	N 	0.3238	0.7534	0.55514	-0.244
Mof_N 	N 	0.2494	0.8468	0.5191	-0.115
Mof_N 	N 	0.1726	0.9253	0.47978	-0.12
Mof_N 	N 	0.0858	0.9912	0.43556	-0.239
Mof_C 	C 	0.2878	0.7611	0.54531	0.07
Mof_C 	C 	0.2941	0.8076	0.53657	-0.15
Mof_H 	H 	0.3273	0.8405	0.5368	0.086
Mof_C 	C 	0.2476	0.8027	0.52732	0.072
Mof_C 	C 	0.2067	0.8423	0.51145	-0.017
Mof_C 	C 	0.2142	0.8955	0.50283	0.268
Mof_C 	C 	0.215	0.931	0.52009	-0.626
Mof_H 	H 	0.2448	0.9381	0.5288	0.216
Mof_H 	H 	0.2198	0.965	0.5152	0.217
Mof_H 	H 	0.1811	0.9121	0.5272	0.23
Mof_C 	C 	0.2652	0.9232	0.49079	-0.624
Mof_H 	H 	0.296	0.9296	0.4987	0.216
Mof_H 	H 	0.2621	0.9004	0.4798	0.212
Mof_H 	H 	0.2704	0.9576	0.4861	0.21
Mof_C 	C 	0.1667	0.8852	0.49051	-0.024
Mof_C 	C 	0.1321	0.9201	0.46847	0.078
Mof_C 	C 	0.1367	0.963	0.45786	-0.156
Mof_H 	H 	0.1693	0.9965	0.4577	0.086
Mof_C 	C 	0.0931	0.9559	0.44755	0.069
Mof_C 	C 	0.2104	0.0906	0.3833	-0.066
Mof_H 	H 	0.2317	0.0989	0.3946	0.044
Mof_C 	C 	0.231	0.0906	0.3658	0.04
Mof_C 	C 	0.198	0.0728	0.3481	0.064
Mof_C 	C 	0.1443	0.0527	0.3486	-0.1
Mof_H 	H 	0.1218	0.0348	0.3379	0.081
Mof_N 	N 	0.2868	0.1143	0.3652	-0.102
Mof_N 	N 	0.2218	0.0782	0.3309	-0.109
Mof_N 	N 	0.4439	0.1829	0.3256	-0.115
Mof_N 	N 	0.379	0.1525	0.293	-0.112
Mof_C 	C 	0.3704	0.1385	0.3482	0.117
Mof_C 	C 	0.3767	0.0899	0.3552	-0.454
Mof_H 	H 	0.4149	0.1011	0.3559	0.162
Mof_H 	H 	0.3606	0.0786	0.368	0.157
Mof_H 	H 	0.3586	0.0601	0.3461	0.143
Mof_C 	C 	0.3962	0.1865	0.3616	0.192
Mof_H 	H 	0.4353	0.2037	0.3606	-0.031
Mof_H 	H 	0.3848	0.2122	0.3579	-0.162
Mof_H 	H 	0.3851	0.1746	0.3749	-0.021
Mof_C 	C 	0.2796	0.0946	0.3314	0.03
Mof_C 	C 	0.2715	0.1111	0.2951	0.304
Mof_H 	H 	0.2753	0.1464	0.2974	-0.145
Mof_H 	H 	0.2878	0.1112	0.2827	-0.05
Mof_H 	H 	0.2334	0.0838	0.295	-0.049
Mof_C 	C 	0.2984	0.0991	0.3104	-0.014
Mof_C 	C 	0.5128	0.2381	0.2728	0.042
Mof_C 	C 	0.5451	0.2495	0.2889	0.007
Mof_C 	C 	0.5228	0.23	0.3068	-0.094
Mof_H 	H 	0.5448	0.2379	0.3179	0.013
Mof_C 	C 	0.4691	0.1993	0.3081	0.058
Mof_C 	C 	0.4343	0.1858	0.2908	0.058
Mof_C 	C 	0.362	0.133	0.3115	0.038
Mof_C 	C 	0.3927	0.1535	0.3268	0.009
Mof_C 	C 	0.4577	0.2059	0.2731	-0.096
Mof_H 	H 	0.4368	0.1978	0.2617	0.059
Mof_C 	C 	0.3086	0.1146	0.3488	0.017
Mof_C 	C 	0.2894	0.0422	0.3053	-0.354
Mof_H 	H 	0.3157	0.0363	0.3123	0.115
Mof_H 	H 	0.2531	0.0149	0.3091	0.126
Mof_H 	H 	0.294	0.0401	0.2914	0.124
Mof_N 	N 	0.99047	0.08673	0.88847	-0.237
Mof_N 	N 	0.91607	0.18013	0.85243	-0.116
Mof_N 	N 	0.83927	0.25863	0.81311	-0.123
Mof_N 	N 	0.75247	0.32453	0.76889	-0.246
Mof_C 	C 	0.95447	0.09443	0.87864	0.074
Mof_C 	C 	0.96077	0.14093	0.8699	-0.151
Mof_H 	H 	0.99397	0.17383	0.87013	0.091
Mof_C 	C 	0.91427	0.13603	0.86065	0.074
Mof_C 	C 	0.87337	0.17563	0.84478	-0.013
Mof_C 	C 	0.88087	0.22883	0.83616	0.258
Mof_C 	C 	0.88167	0.26433	0.85342	-0.609
Mof_H 	H 	0.91147	0.27143	0.86213	0.208
Mof_H 	H 	0.88647	0.29833	0.84853	0.203
Mof_H 	H 	0.84777	0.24543	0.86053	0.223
Mof_C 	C 	0.93187	0.25653	0.82412	-0.612
Mof_H 	H 	0.96267	0.26293	0.83203	0.211
Mof_H 	H 	0.92877	0.23373	0.81313	0.209
Mof_H 	H 	0.93707	0.29093	0.81943	0.201
Mof_C 	C 	0.83337	0.21853	0.82384	-0.021
Mof_C 	C 	0.79877	0.25343	0.8018	0.074
Mof_C 	C 	0.80337	0.29633	0.79119	-0.154
Mof_H 	H 	0.83597	0.32983	0.79103	0.077
Mof_C 	C 	0.75977	0.28923	0.78088	0.064
Mof_C 	C 	0.87707	0.42393	0.71663	-0.068
Mof_H 	H 	0.89837	0.43223	0.72793	0.049
Mof_C 	C 	0.89767	0.42393	0.69913	0.046
Mof_C 	C 	0.86467	0.40613	0.68143	0.064
Mof_C 	C 	0.81097	0.38603	0.68193	-0.094
Mof_H 	H 	0.78847	0.36813	0.67123	0.086
Mof_N 	N 	0.95347	0.44763	0.69853	-0.101
Mof_N 	N 	0.88847	0.41153	0.66423	-0.106
Mof_N 	N 	0.11057	0.51623	0.65893	-0.116
Mof_N 	N 	0.04567	0.48583	0.62633	-0.114
Mof_C 	C 	0.03707	0.47183	0.68153	0.092
Mof_C 	C 	0.04337	0.42323	0.68853	-0.438
Mof_H 	H 	0.08157	0.43443	0.68923	0.158
Mof_H 	H 	0.02727	0.41193	0.70133	0.151
Mof_H 	H 	0.02527	0.39343	0.67943	0.136
Mof_C 	C 	0.06287	0.51983	0.69493	0.196
Mof_H 	H 	0.10197	0.53703	0.69393	-0.031
Mof_H 	H 	0.05147	0.54553	0.69123	-0.162
Mof_H 	H 	0.05177	0.50793	0.70823	-0.026
Mof_C 	C 	0.94627	0.42793	0.66473	0.024
Mof_C 	C 	0.93817	0.44443	0.62843	0.32
Mof_H 	H 	0.94197	0.47973	0.63073	-0.153
Mof_H 	H 	0.95447	0.44453	0.61603	-0.047
Mof_H 	H 	0.90007	0.41713	0.62833	-0.05
Mof_C 	C 	0.96507	0.43243	0.64373	0.012
Mof_C 	C 	0.17947	0.57143	0.60613	0.044
Mof_C 	C 	0.21177	0.58283	0.62223	0.006
Mof_C 	C 	0.18947	0.56333	0.64013	-0.093
Mof_H 	H 	0.21147	0.57123	0.65123	0.013
Mof_C 	C 	0.13577	0.53263	0.64143	0.058
Mof_C 	C 	0.10097	0.51913	0.62413	0.058
Mof_C 	C 	0.02867	0.46633	0.64483	0.012
Mof_C 	C 	0.05937	0.48683	0.66013	0.02
Mof_C 	C 	0.12437	0.53923	0.60643	-0.098
Mof_H 	H 	0.10347	0.53113	0.59503	0.059
Mof_C 	C 	0.97527	0.44793	0.68213	0.043
Mof_C 	C 	0.95607	0.37553	0.63863	-0.388
Mof_H 	H 	0.98237	0.36963	0.64563	0.138
Mof_H 	H 	0.91977	0.34823	0.64243	0.143
Mof_H 	H 	0.96067	0.37343	0.62473	0.144
Mof_N 	N 	0.65713	0.42007	0.22181	-0.244
Mof_N 	N 	0.58273	0.51347	0.18577	-0.117
Mof_N 	N 	0.50593	0.59197	0.14645	-0.123
Mof_N 	N 	0.41913	0.65787	0.10223	-0.246
Mof_C 	C 	0.62113	0.42777	0.21198	0.07
Mof_C 	C 	0.62743	0.47427	0.20324	-0.15
Mof_H 	H 	0.66063	0.50717	0.20347	0.084
Mof_C 	C 	0.58093	0.46937	0.19399	0.072
Mof_C 	C 	0.54003	0.50897	0.17812	-0.012
Mof_C 	C 	0.54753	0.56217	0.1695	0.256
Mof_C 	C 	0.54833	0.59767	0.18676	-0.607
Mof_H 	H 	0.57813	0.60477	0.19547	0.207
Mof_H 	H 	0.55313	0.63167	0.18187	0.204
Mof_H 	H 	0.51443	0.57877	0.19387	0.222
Mof_C 	C 	0.59853	0.58987	0.15746	-0.605
Mof_H 	H 	0.62933	0.59627	0.16537	0.207
Mof_H 	H 	0.59543	0.56707	0.14647	0.205
Mof_H 	H 	0.60373	0.62427	0.15277	0.198
Mof_C 	C 	0.50003	0.55187	0.15718	-0.02
Mof_C 	C 	0.46543	0.58677	0.13514	0.074
Mof_C 	C 	0.47003	0.62967	0.12453	-0.154
Mof_H 	H 	0.50263	0.66317	0.12437	0.077
Mof_C 	C 	0.42643	0.62257	0.11422	0.064
Mof_C 	C 	0.54373	0.75727	0.04997	-0.068
Mof_H 	H 	0.56503	0.76557	0.06127	0.047
Mof_C 	C 	0.56433	0.75727	0.03247	0.044
Mof_C 	C 	0.53133	0.73947	0.01477	0.065
Mof_C 	C 	0.47763	0.71937	0.01527	-0.095
Mof_H 	H 	0.45513	0.70147	0.00457	0.086
Mof_N 	N 	0.62013	0.78097	0.03187	-0.101
Mof_N 	N 	0.55513	0.74487	0.99757	-0.107
Mof_N 	N 	0.77723	0.84957	0.99227	-0.114
Mof_N 	N 	0.71233	0.81917	0.95967	-0.112
Mof_C 	C 	0.70373	0.80517	0.01487	0.12
Mof_C 	C 	0.71003	0.75657	0.02187	-0.463
Mof_H 	H 	0.74823	0.76777	0.02257	0.166
Mof_H 	H 	0.69393	0.74527	0.03467	0.164
Mof_H 	H 	0.69193	0.72677	0.01277	0.149
Mof_C 	C 	0.72953	0.85317	0.02827	0.192
Mof_H 	H 	0.76863	0.87037	0.02727	-0.03
Mof_H 	H 	0.71813	0.87887	0.02457	-0.164
Mof_H 	H 	0.71843	0.84127	0.04157	-0.02
Mof_C 	C 	0.61293	0.76127	0.99807	0.031
Mof_C 	C 	0.60483	0.77777	0.96177	0.308
Mof_H 	H 	0.60863	0.81307	0.96407	-0.147
Mof_H 	H 	0.62113	0.77787	0.94937	-0.049
Mof_H 	H 	0.56673	0.75047	0.96167	-0.047
Mof_C 	C 	0.63173	0.76577	0.97707	-0.012
Mof_C 	C 	0.84613	0.90477	0.93947	0.043
Mof_C 	C 	0.87843	0.91617	0.95557	0.005
Mof_C 	C 	0.85613	0.89667	0.97347	-0.091
Mof_H 	H 	0.87813	0.90457	0.98457	0.017
Mof_C 	C 	0.80243	0.86597	0.97477	0.056
Mof_C 	C 	0.76763	0.85247	0.95747	0.059
Mof_C 	C 	0.69533	0.79967	0.97817	0.038
Mof_C 	C 	0.72603	0.82017	0.99347	0.008
Mof_C 	C 	0.79103	0.87257	0.93977	-0.099
Mof_H 	H 	0.77013	0.86447	0.92837	0.062
Mof_C 	C 	0.64193	0.78127	0.01547	0.017
Mof_C 	C 	0.62273	0.70887	0.97197	-0.365
Mof_H 	H 	0.64903	0.70297	0.97897	0.121
Mof_H 	H 	0.58643	0.68157	0.97577	0.135
Mof_H 	H 	0.62733	0.70677	0.95807	0.132
Mof_Zn	Zn	0.33333	0.66667	0.58021	1.145
Mof_Zn	Zn	-0	0	0.91354	1.131
Mof_Zn	Zn	0.66667	0.33333	0.24688	1.145
Mof_Zn	Zn	0.40209	0.59791	0.56221	1.19
Mof_Cl	Cl	0.44143	0.55857	0.55259	-0.612
Mof_Zn	Zn	0.06876	0.93124	0.89554	1.191
Mof_Cl	Cl	0.1081	0.8919	0.88592	-0.611
Mof_Zn	Zn	0.73542	0.26458	0.22888	1.19
Mof_Cl	Cl	0.77476	0.22524	0.21926	-0.612
Mof_Zn	Zn	0.40209	0.80418	0.56221	1.19
Mof_Cl	Cl	0.44143	0.88286	0.55259	-0.606
Mof_Zn	Zn	0.06876	0.13751	0.89554	1.186
Mof_Cl	Cl	0.1081	0.21619	0.88592	-0.623
Mof_Zn	Zn	0.73542	0.47085	0.22888	1.19
Mof_Cl	Cl	0.77476	0.54953	0.21926	-0.608
Mof_Zn	Zn	0.19582	0.59791	0.56221	1.19
Mof_Cl	Cl	0.11714	0.55857	0.55259	-0.618
Mof_Zn	Zn	0.86249	0.93124	0.89554	1.194
Mof_Cl	Cl	0.78381	0.8919	0.88592	-0.601
Mof_Zn	Zn	0.52915	0.26458	0.22888	1.19
Mof_Cl	Cl	0.45047	0.22524	0.21926	-0.616
Mof_Zn	Zn	0.13582	0.06791	0.42792	1.183
Mof_Cl	Cl	0.21534	0.10767	0.43886	-0.636
Mof_N 	N 	0.54391	0.27196	0.25752	-0.248
Mof_N 	N 	0.5955	0.29775	0.26444	-0.201
Mof_N 	N 	0.5969	0.29845	0.283	-0.237
Mof_N 	N 	0.1177	0.05885	0.3992	-0.241
Mof_N 	N 	0.0701	0.03505	0.39231	-0.202
Mof_N 	N 	0.0704	0.0352	0.37351	-0.224
Mof_C 	C 	0.122	0.061	0.3677	0.08
Mof_C 	C 	0.1553	0.07765	0.3844	0.033
Mof_Zn	Zn	0.80249	0.40124	0.76125	1.187
Mof_Cl	Cl	0.88201	0.441	0.77219	-0.625
Mof_N 	N 	0.21058	0.60529	0.59085	-0.248
Mof_N 	N 	0.26217	0.63108	0.59777	-0.201
Mof_N 	N 	0.26357	0.63178	0.61633	-0.237
Mof_N 	N 	0.78437	0.39218	0.73253	-0.238
Mof_N 	N 	0.73677	0.36838	0.72564	-0.194
Mof_N 	N 	0.73707	0.36853	0.70684	-0.218
Mof_C 	C 	0.78867	0.39433	0.70103	0.084
Mof_C 	C 	0.82197	0.41098	0.71773	0.037
Mof_Zn	Zn	0.46915	0.73458	0.09459	1.187
Mof_Cl	Cl	0.54867	0.77434	0.10553	-0.627
Mof_N 	N 	0.87724	0.93862	0.92419	-0.245
Mof_N 	N 	0.92883	0.96442	0.93111	-0.19
Mof_N 	N 	0.93023	0.96512	0.94967	-0.227
Mof_N 	N 	0.45103	0.72552	0.06587	-0.238
Mof_N 	N 	0.40343	0.70172	0.05898	-0.194
Mof_N 	N 	0.40373	0.70187	0.04018	-0.218
Mof_C 	C 	0.45533	0.72767	0.03437	0.084
Mof_C 	C 	0.48863	0.74432	0.05107	0.036
Mof_Zn	Zn	0.93209	0.06791	0.42792	1.187
Mof_Cl	Cl	0.89233	0.10767	0.43886	-0.627
Mof_N 	N 	0.72804	0.27196	0.25752	-0.248
Mof_N 	N 	0.70225	0.29775	0.26444	-0.201
Mof_N 	N 	0.70155	0.29845	0.283	-0.237
Mof_N 	N 	0.94115	0.05885	0.3992	-0.237
Mof_N 	N 	0.96495	0.03505	0.39231	-0.192
Mof_N 	N 	0.9648	0.0352	0.37351	-0.215
Mof_C 	C 	0.939	0.061	0.3677	0.084
Mof_C 	C 	0.92235	0.07765	0.3844	0.036
Mof_Zn	Zn	0.59876	0.40124	0.76125	1.187
Mof_Cl	Cl	0.559	0.441	0.77219	-0.628
Mof_N 	N 	0.39471	0.60529	0.59085	-0.248
Mof_N 	N 	0.36892	0.63108	0.59777	-0.201
Mof_N 	N 	0.36822	0.63178	0.61633	-0.237
Mof_N 	N 	0.60782	0.39218	0.73253	-0.238
Mof_N 	N 	0.63162	0.36838	0.72564	-0.194
Mof_N 	N 	0.63147	0.36853	0.70684	-0.218
Mof_C 	C 	0.60567	0.39433	0.70103	0.084
Mof_C 	C 	0.58902	0.41098	0.71773	0.036
Mof_Zn	Zn	0.26542	0.73458	0.09459	1.187
Mof_Cl	Cl	0.22566	0.77434	0.10553	-0.628
Mof_N 	N 	0.06138	0.93862	0.92419	-0.247
Mof_N 	N 	0.03558	0.96442	0.93111	-0.199
Mof_N 	N 	0.03488	0.96512	0.94967	-0.234
Mof_N 	N 	0.27448	0.72552	0.06587	-0.238
Mof_N 	N 	0.29828	0.70172	0.05898	-0.194
Mof_N 	N 	0.29813	0.70187	0.04018	-0.218
Mof_C 	C 	0.27233	0.72767	0.03437	0.084
Mof_C 	C 	0.25568	0.74432	0.05107	0.036
Mof_Zn	Zn	0.93209	0.86418	0.42792	1.191
Mof_Cl	Cl	0.89233	0.78466	0.43886	-0.621
Mof_N 	N 	0.72804	0.45609	0.25752	-0.248
Mof_N 	N 	0.70225	0.4045	0.26444	-0.201
Mof_N 	N 	0.70155	0.4031	0.283	-0.237
Mof_N 	N 	0.94115	0.8823	0.3992	-0.235
Mof_N 	N 	0.96495	0.9299	0.39231	-0.184
Mof_N 	N 	0.9648	0.9296	0.37351	-0.208
Mof_C 	C 	0.939	0.878	0.3677	0.088
Mof_C 	C 	0.92235	0.8447	0.3844	0.038
Mof_Zn	Zn	0.59876	0.19751	0.76125	1.187
Mof_Cl	Cl	0.559	0.11799	0.77219	-0.631
Mof_N 	N 	0.39471	0.78942	0.59085	-0.248
Mof_N 	N 	0.36892	0.73783	0.59777	-0.201
Mof_N 	N 	0.36822	0.73643	0.61633	-0.237
Mof_N 	N 	0.60782	0.21563	0.73253	-0.238
Mof_N 	N 	0.63162	0.26323	0.72564	-0.194
Mof_N 	N 	0.63147	0.26293	0.70684	-0.218
Mof_C 	C 	0.60567	0.21133	0.70103	0.084
Mof_C 	C 	0.58902	0.17803	0.71773	0.034
Mof_Zn	Zn	0.26542	0.53085	0.09459	1.187
Mof_Cl	Cl	0.22566	0.45133	0.10553	-0.629
Mof_N 	N 	0.06138	0.12276	0.92419	-0.251
Mof_N 	N 	0.03558	0.07117	0.93111	-0.208
Mof_N 	N 	0.03488	0.06977	0.94967	-0.243
Mof_N 	N 	0.27448	0.54897	0.06587	-0.238
Mof_N 	N 	0.29828	0.59657	0.05898	-0.194
Mof_N 	N 	0.29813	0.59627	0.04018	-0.218
Mof_C 	C 	0.27233	0.54467	0.03437	0.083
Mof_C 	C 	0.25568	0.51137	0.05107	0.035
Mof_Zn	Zn	-8.12598e-33	0	0.41054	1.132
Mof_Zn	Zn	8.12598e-33	0	0.3567	1.212
Mof_Cl	Cl	-8.12598e-33	0	0.3285	-0.46
Mof_Zn	Zn	0.66667	0.33333	0.74387	1.146
Mof_Zn	Zn	0.66667	0.33333	0.69003	1.224
Mof_Cl	Cl	0.66667	0.33333	0.66183	-0.413
Mof_Zn	Zn	0.33333	0.66667	0.07721	1.146
Mof_Zn	Zn	0.33333	0.66667	0.02337	1.224
Mof_Cl	Cl	0.33333	0.66667	0.99517	-0.413
Mof_N 	N 	0.29755	0.5951	0.56142	-0.198
Mof_N 	N 	0.0357	0.0714	0.42894	-0.207
Mof_N 	N 	0.96422	0.92843	0.89475	-0.187
Mof_N 	N 	0.70237	0.40473	0.76227	-0.199
Mof_N 	N 	0.63088	0.26177	0.22809	-0.198
Mof_N 	N 	0.36903	0.73807	0.09561	-0.199
Mof_N 	N 	0.4049	0.70245	0.56142	-0.198
Mof_N 	N 	0.9286	0.9643	0.42894	-0.189
Mof_N 	N 	0.07157	0.03578	0.89475	-0.206
Mof_N 	N 	0.59527	0.29763	0.76227	-0.2
Mof_N 	N 	0.73823	0.36912	0.22809	-0.198
Mof_N 	N 	0.26193	0.63097	0.09561	-0.2
Mof_N 	N 	0.29755	0.70245	0.56142	-0.198
Mof_N 	N 	0.0357	0.9643	0.42894	-0.197
Mof_N 	N 	0.96422	0.03578	0.89475	-0.196
Mof_N 	N 	0.70237	0.29763	0.76227	-0.2
Mof_N 	N 	0.63088	0.36912	0.22809	-0.198
Mof_N 	N 	0.36903	0.63097	0.09561	-0.2
Mof_Zn	Zn	0.66667	0.33333	0.30085	1.102
Mof_Zn	Zn	0.33333	0.66667	0.63418	1.102
Mof_Zn	Zn	4.87559e-32	6.50078e-32	0.96752	1.088
Mof_O 	O 	0.0319	0.9681	0.3371	-0.189
Mof_O 	O 	0.69857	0.30143	0.67043	-0.204
Mof_O 	O 	0.36523	0.63477	0.00377	-0.204
Mof_O 	O 	0.0319	0.0638	0.3371	-0.211
Mof_O 	O 	0.69857	0.39713	0.67043	-0.204
Mof_O 	O 	0.36523	0.73047	0.00377	-0.203
Mof_O 	O 	0.9362	0.9681	0.3371	-0.171
Mof_O 	O 	0.60287	0.30143	0.67043	-0.205
Mof_O 	O 	0.26953	0.63477	0.00377	-0.205
Mof_N 	N 	0.5704	0.3238	0.44486	-0.244
Mof_N 	N 	0.4026	0.2494	0.4809	-0.117
Mof_N 	N 	0.2473	0.1726	0.52022	-0.124
Mof_N 	N 	0.0946	0.0858	0.56444	-0.249
Mof_C 	C 	0.5267	0.2878	0.45469	0.07
Mof_C 	C 	0.4865	0.2941	0.46343	-0.15
Mof_H 	H 	0.4868	0.3273	0.4632	0.084
Mof_C 	C 	0.4449	0.2476	0.47268	0.072
Mof_C 	C 	0.3644	0.2067	0.48855	-0.013
Mof_C 	C 	0.3187	0.2142	0.49717	0.255
Mof_C 	C 	0.284	0.215	0.47991	-0.606
Mof_H 	H 	0.3067	0.2448	0.4712	0.206
Mof_H 	H 	0.2548	0.2198	0.4848	0.203
Mof_H 	H 	0.269	0.1811	0.4728	0.221
Mof_C 	C 	0.342	0.2652	0.50921	-0.604
Mof_H 	H 	0.3664	0.296	0.5013	0.206
Mof_H 	H 	0.3617	0.2621	0.5202	0.204
Mof_H 	H 	0.3128	0.2704	0.5139	0.197
Mof_C 	C 	0.2815	0.1667	0.50949	-0.022
Mof_C 	C 	0.212	0.1321	0.53153	0.074
Mof_C 	C 	0.1737	0.1367	0.54214	-0.156
Mof_H 	H 	0.1728	0.1693	0.5423	0.076
Mof_C 	C 	0.1372	0.0931	0.55245	0.063
Mof_C 	C 	0.1198	0.2104	0.6167	-0.072
Mof_H 	H 	0.1328	0.2317	0.6054	0.048
Mof_C 	C 	0.1404	0.231	0.6342	0.047
Mof_C 	C 	0.1252	0.198	0.6519	0.061
Mof_C 	C 	0.0916	0.1443	0.6514	-0.088
Mof_H 	H 	0.087	0.1218	0.6621	0.081
Mof_N 	N 	0.1725	0.2868	0.6348	-0.102
Mof_N 	N 	0.1436	0.2218	0.6691	-0.107
Mof_N 	N 	0.261	0.4439	0.6744	-0.114
Mof_N 	N 	0.2265	0.379	0.707	-0.112
Mof_C 	C 	0.2319	0.3704	0.6518	0.12
Mof_C 	C 	0.2868	0.3767	0.6448	-0.462
Mof_H 	H 	0.3138	0.4149	0.6441	0.165
Mof_H 	H 	0.282	0.3606	0.632	0.163
Mof_H 	H 	0.2985	0.3586	0.6539	0.148
Mof_C 	C 	0.2097	0.3962	0.6384	0.192
Mof_H 	H 	0.2316	0.4353	0.6394	-0.03
Mof_H 	H 	0.1726	0.3848	0.6421	-0.162
Mof_H 	H 	0.2105	0.3851	0.6251	-0.021
Mof_C 	C 	0.185	0.2796	0.6686	0.03
Mof_C 	C 	0.1604	0.2715	0.7049	0.304
Mof_H 	H 	0.1289	0.2753	0.7026	-0.143
Mof_H 	H 	0.1766	0.2878	0.7173	-0.049
Mof_H 	H 	0.1496	0.2334	0.705	-0.048
Mof_C 	C 	0.1993	0.2984	0.6896	-0.011
Mof_C 	C 	0.2747	0.5128	0.7272	0.048
Mof_C 	C 	0.2956	0.5451	0.7111	0.004
Mof_C 	C 	0.2928	0.5228	0.6932	-0.091
Mof_H 	H 	0.3069	0.5448	0.6821	0.013
Mof_C 	C 	0.2698	0.4691	0.6919	0.056
Mof_C 	C 	0.2485	0.4343	0.7092	0.06
Mof_C 	C 	0.229	0.362	0.6885	0.038
Mof_C 	C 	0.2392	0.3927	0.6732	0.009
Mof_C 	C 	0.2518	0.4577	0.7269	-0.101
Mof_H 	H 	0.239	0.4368	0.7383	0.062
Mof_C 	C 	0.194	0.3086	0.6512	0.018
Mof_C 	C 	0.2472	0.2894	0.6947	-0.362
Mof_H 	H 	0.2794	0.3157	0.6877	0.12
Mof_H 	H 	0.2382	0.2531	0.6909	0.132
Mof_H 	H 	0.2539	0.294	0.7086	0.13
Mof_N 	N 	0.23707	0.65713	0.77819	-0.244
Mof_N 	N 	0.06927	0.58273	0.81423	-0.116
Mof_N 	N 	0.91397	0.50593	0.85355	-0.12
Mof_N 	N 	0.76127	0.41913	0.89777	-0.245
Mof_C 	C 	0.19337	0.62113	0.78802	0.069
Mof_C 	C 	0.15317	0.62743	0.79676	-0.151
Mof_H 	H 	0.15347	0.66063	0.79653	0.082
Mof_C 	C 	0.11157	0.58093	0.80601	0.07
Mof_C 	C 	0.03107	0.54003	0.82188	-0.04
Mof_C 	C 	0.98537	0.54753	0.8305	0.333
Mof_C 	C 	0.95067	0.54833	0.81324	-0.666
Mof_H 	H 	0.97337	0.57813	0.80453	0.23
Mof_H 	H 	0.92147	0.55313	0.81813	0.221
Mof_H 	H 	0.93567	0.51443	0.80613	0.241
Mof_C 	C 	0.00867	0.59853	0.84254	-0.757
Mof_H 	H 	0.03307	0.62933	0.83463	0.242
Mof_H 	H 	0.02837	0.59543	0.85353	0.241
Mof_H 	H 	0.97947	0.60373	0.84723	0.253
Mof_C 	C 	0.94817	0.50003	0.84282	-0.031
Mof_C 	C 	0.87867	0.46543	0.86486	0.075
Mof_C 	C 	0.84037	0.47003	0.87547	-0.154
Mof_H 	H 	0.83947	0.50263	0.87563	0.077
Mof_C 	C 	0.80387	0.42643	0.88578	0.065
Mof_C 	C 	0.78647	0.54373	0.95003	-0.069
Mof_H 	H 	0.79947	0.56503	0.93873	0.048
Mof_C 	C 	0.80707	0.56433	0.96753	0.046
Mof_C 	C 	0.79187	0.53133	0.98523	0.064
Mof_C 	C 	0.75827	0.47763	0.98473	-0.092
Mof_H 	H 	0.75367	0.45513	0.99543	0.086
Mof_N 	N 	0.83917	0.62013	0.96813	-0.1
Mof_N 	N 	0.81027	0.55513	0.00243	-0.106
Mof_N 	N 	0.92767	0.77723	0.00773	-0.112
Mof_N 	N 	0.89317	0.71233	0.04033	-0.111
Mof_C 	C 	0.89857	0.70373	0.98513	0.126
Mof_C 	C 	0.95347	0.71003	0.97813	-0.48
Mof_H 	H 	0.98047	0.74823	0.97743	0.179
Mof_H 	H 	0.94867	0.69393	0.96533	0.173
Mof_H 	H 	0.96517	0.69193	0.98723	0.161
Mof_C 	C 	0.87637	0.72953	0.97173	0.192
Mof_H 	H 	0.89827	0.76863	0.97273	-0.028
Mof_H 	H 	0.83927	0.71813	0.97543	-0.162
Mof_H 	H 	0.87717	0.71843	0.95843	-0.019
Mof_C 	C 	0.85167	0.61293	0.00193	0.031
Mof_C 	C 	0.82707	0.60483	0.03823	0.308
Mof_H 	H 	0.79557	0.60863	0.03593	-0.146
Mof_H 	H 	0.84327	0.62113	0.05063	-0.048
Mof_H 	H 	0.81627	0.56673	0.03833	-0.046
Mof_C 	C 	0.86597	0.63173	0.02293	-0.009
Mof_C 	C 	0.94137	0.84613	0.06053	0.047
Mof_C 	C 	0.96227	0.87843	0.04443	0.014
Mof_C 	C 	0.95947	0.85613	0.02653	-0.094
Mof_H 	H 	0.97357	0.87813	0.01543	0.023
Mof_C 	C 	0.93647	0.80243	0.02523	0.062
Mof_C 	C 	0.91517	0.76763	0.04253	0.061
Mof_C 	C 	0.89567	0.69533	0.02183	0.04
Mof_C 	C 	0.90587	0.72603	0.00653	0.009
Mof_C 	C 	0.91847	0.79103	0.06023	-0.096
Mof_H 	H 	0.90567	0.77013	0.07163	0.063
Mof_C 	C 	0.86067	0.64193	0.98453	0.016
Mof_C 	C 	0.91387	0.62273	0.02803	-0.377
Mof_H 	H 	0.94607	0.64903	0.02103	0.131
Mof_H 	H 	0.90487	0.58643	0.02423	0.141
Mof_H 	H 	0.92057	0.62733	0.04193	0.14
Mof_N 	N 	0.90373	0.99047	0.11153	-0.234
Mof_N 	N 	0.73593	0.91607	0.14757	-0.115
Mof_N 	N 	0.58063	0.83927	0.18689	-0.123
Mof_N 	N 	0.42793	0.75247	0.23111	-0.245
Mof_C 	C 	0.86003	0.95447	0.12136	0.075
Mof_C 	C 	0.81983	0.96077	0.1301	-0.149
Mof_H 	H 	0.82013	0.99397	0.12987	0.091
Mof_C 	C 	0.77823	0.91427	0.13935	0.075
Mof_C 	C 	0.69773	0.87337	0.15522	-0.012
Mof_C 	C 	0.65203	0.88087	0.16384	0.259
Mof_C 	C 	0.61733	0.88167	0.14658	-0.61
Mof_H 	H 	0.64003	0.91147	0.13787	0.208
Mof_H 	H 	0.58813	0.88647	0.15147	0.203
Mof_H 	H 	0.60233	0.84777	0.13947	0.223
Mof_C 	C 	0.67533	0.93187	0.17588	-0.615
Mof_H 	H 	0.69973	0.96267	0.16797	0.213
Mof_H 	H 	0.69503	0.92877	0.18687	0.211
Mof_H 	H 	0.64613	0.93707	0.18057	0.202
Mof_C 	C 	0.61483	0.83337	0.17616	-0.021
Mof_C 	C 	0.54533	0.79877	0.1982	0.075
Mof_C 	C 	0.50703	0.80337	0.20881	-0.154
Mof_H 	H 	0.50613	0.83597	0.20897	0.077
Mof_C 	C 	0.47053	0.75977	0.21912	0.064
Mof_C 	C 	0.45313	0.87707	0.28337	-0.069
Mof_H 	H 	0.46613	0.89837	0.27207	0.049
Mof_C 	C 	0.47373	0.89767	0.30087	0.046
Mof_C 	C 	0.45853	0.86467	0.31857	0.064
Mof_C 	C 	0.42493	0.81097	0.31807	-0.092
Mof_H 	H 	0.42033	0.78847	0.32877	0.086
Mof_N 	N 	0.50583	0.95347	0.30147	-0.101
Mof_N 	N 	0.47693	0.88847	0.33577	-0.106
Mof_N 	N 	0.59433	0.11057	0.34107	-0.116
Mof_N 	N 	0.55983	0.04567	0.37367	-0.114
Mof_C 	C 	0.56523	0.03707	0.31847	0.092
Mof_C 	C 	0.62013	0.04337	0.31147	-0.44
Mof_H 	H 	0.64713	0.08157	0.31077	0.159
Mof_H 	H 	0.61533	0.02727	0.29867	0.151
Mof_H 	H 	0.63183	0.02527	0.32057	0.137
Mof_C 	C 	0.54303	0.06287	0.30507	0.196
Mof_H 	H 	0.56493	0.10197	0.30607	-0.031
Mof_H 	H 	0.50593	0.05147	0.30877	-0.161
Mof_H 	H 	0.54383	0.05177	0.29177	-0.025
Mof_C 	C 	0.51833	0.94627	0.33527	0.025
Mof_C 	C 	0.49373	0.93817	0.37157	0.32
Mof_H 	H 	0.46223	0.94197	0.36927	-0.153
Mof_H 	H 	0.50993	0.95447	0.38397	-0.047
Mof_H 	H 	0.48293	0.90007	0.37167	-0.05
Mof_C 	C 	0.53263	0.96507	0.35627	0.012
Mof_C 	C 	0.60803	0.17947	0.39387	0.045
Mof_C 	C 	0.62893	0.21177	0.37777	0.005
Mof_C 	C 	0.62613	0.18947	0.35987	-0.092
Mof_H 	H 	0.64023	0.21147	0.34877	0.013
Mof_C 	C 	0.60313	0.13577	0.35857	0.058
Mof_C 	C 	0.58183	0.10097	0.37587	0.058
Mof_C 	C 	0.56233	0.02867	0.35517	0.013
Mof_C 	C 	0.57253	0.05937	0.33987	0.02
Mof_C 	C 	0.58513	0.12437	0.39357	-0.099
Mof_H 	H 	0.57233	0.10347	0.40497	0.059
Mof_C 	C 	0.52733	0.97527	0.31787	0.043
Mof_C 	C 	0.58053	0.95607	0.36137	-0.389
Mof_H 	H 	0.61273	0.98237	0.35437	0.138
Mof_H 	H 	0.57153	0.91977	0.35757	0.144
Mof_H 	H 	0.58723	0.96067	0.37527	0.144
Mof_N 	N 	0.7534	0.4296	0.44486	-0.243
Mof_N 	N 	0.8468	0.5974	0.4809	-0.115
Mof_N 	N 	0.9253	0.7527	0.52022	-0.12
Mof_N 	N 	0.9912	0.9054	0.56444	-0.236
Mof_C 	C 	0.7611	0.4733	0.45469	0.07
Mof_C 	C 	0.8076	0.5135	0.46343	-0.15
Mof_H 	H 	0.8405	0.5132	0.4632	0.085
Mof_C 	C 	0.8027	0.5551	0.47268	0.073
Mof_C 	C 	0.8423	0.6356	0.48855	-0.015
Mof_C 	C 	0.8955	0.6813	0.49717	0.266
Mof_C 	C 	0.931	0.716	0.47991	-0.625
Mof_H 	H 	0.9381	0.6933	0.4712	0.216
Mof_H 	H 	0.965	0.7452	0.4848	0.217
Mof_H 	H 	0.9121	0.731	0.4728	0.23
Mof_C 	C 	0.9232	0.658	0.50921	-0.623
Mof_H 	H 	0.9296	0.6336	0.5013	0.215
Mof_H 	H 	0.9004	0.6383	0.5202	0.212
Mof_H 	H 	0.9576	0.6872	0.5139	0.209
Mof_C 	C 	0.8852	0.7185	0.50949	-0.022
Mof_C 	C 	0.9201	0.788	0.53153	0.078
Mof_C 	C 	0.963	0.8263	0.54214	-0.154
Mof_H 	H 	0.9965	0.8272	0.5423	0.086
Mof_C 	C 	0.9559	0.8628	0.55245	0.07
Mof_C 	C 	0.0906	0.8802	0.6167	-0.062
Mof_H 	H 	0.0989	0.8672	0.6054	0.043
Mof_C 	C 	0.0906	0.8596	0.6342	0.037
Mof_C 	C 	0.0728	0.8748	0.6519	0.068
Mof_C 	C 	0.0527	0.9084	0.6514	-0.106
Mof_H 	H 	0.0348	0.913	0.6621	0.087
Mof_N 	N 	0.1143	0.8275	0.6348	-0.101
Mof_N 	N 	0.0782	0.8564	0.6691	-0.108
Mof_N 	N 	0.1829	0.739	0.6744	-0.115
Mof_N 	N 	0.1525	0.7735	0.707	-0.112
Mof_C 	C 	0.1385	0.7681	0.6518	0.117
Mof_C 	C 	0.0899	0.7132	0.6448	-0.455
Mof_H 	H 	0.1011	0.6862	0.6441	0.162
Mof_H 	H 	0.0786	0.718	0.632	0.158
Mof_H 	H 	0.0601	0.7015	0.6539	0.143
Mof_C 	C 	0.1865	0.7903	0.6384	0.192
Mof_H 	H 	0.2037	0.7684	0.6394	-0.031
Mof_H 	H 	0.2122	0.8274	0.6421	-0.163
Mof_H 	H 	0.1746	0.7895	0.6251	-0.021
Mof_C 	C 	0.0946	0.815	0.6686	0.03
Mof_C 	C 	0.1111	0.8396	0.7049	0.308
Mof_H 	H 	0.1464	0.8711	0.7026	-0.147
Mof_H 	H 	0.1112	0.8234	0.7173	-0.05
Mof_H 	H 	0.0838	0.8504	0.705	-0.047
Mof_C 	C 	0.0991	0.8007	0.6896	-0.014
Mof_C 	C 	0.2381	0.7253	0.7272	0.039
Mof_C 	C 	0.2495	0.7044	0.7111	0.008
Mof_C 	C 	0.23	0.7072	0.6932	-0.095
Mof_H 	H 	0.2379	0.6931	0.6821	0.014
Mof_C 	C 	0.1993	0.7302	0.6919	0.059
Mof_C 	C 	0.1858	0.7515	0.7092	0.057
Mof_C 	C 	0.133	0.771	0.6885	0.038
Mof_C 	C 	0.1535	0.7608	0.6732	0.009
Mof_C 	C 	0.2059	0.7482	0.7269	-0.094
Mof_H 	H 	0.1978	0.761	0.7383	0.059
Mof_C 	C 	0.1146	0.806	0.6512	0.017
Mof_C 	C 	0.0422	0.7528	0.6947	-0.357
Mof_H 	H 	0.0363	0.7206	0.6877	0.117
Mof_H 	H 	0.0149	0.7618	0.6909	0.129
Mof_H 	H 	0.0401	0.7461	0.7086	0.127
Mof_N 	N 	0.42007	0.76293	0.77819	-0.243
Mof_N 	N 	0.51347	0.93073	0.81423	-0.118
Mof_N 	N 	0.59197	0.08603	0.85355	-0.126
Mof_N 	N 	0.65787	0.23873	0.89777	-0.246
Mof_C 	C 	0.42777	0.80663	0.78802	0.07
Mof_C 	C 	0.47427	0.84683	0.79676	-0.149
Mof_H 	H 	0.50717	0.84653	0.79653	0.086
Mof_C 	C 	0.46937	0.88843	0.80601	0.074
Mof_C 	C 	0.50897	0.96893	0.82188	0.016
Mof_C 	C 	0.56217	0.01463	0.8305	0.177
Mof_C 	C 	0.59767	0.04933	0.81324	-0.546
Mof_H 	H 	0.60477	0.02663	0.80453	0.183
Mof_H 	H 	0.63167	0.07853	0.81813	0.186
Mof_H 	H 	0.57877	0.06433	0.80613	0.203
Mof_C 	C 	0.58987	0.99133	0.84254	-0.45
Mof_H 	H 	0.59627	0.96693	0.83463	0.17
Mof_H 	H 	0.56707	0.97163	0.85353	0.168
Mof_H 	H 	0.62427	0.02053	0.84723	0.141
Mof_C 	C 	0.55187	0.05183	0.84282	-0.009
Mof_C 	C 	0.58677	0.12133	0.86486	0.073
Mof_C 	C 	0.62967	0.15963	0.87547	-0.154
Mof_H 	H 	0.66317	0.16053	0.87563	0.076
Mof_C 	C 	0.62257	0.19613	0.88578	0.063
Mof_C 	C 	0.75727	0.21353	0.95003	-0.067
Mof_H 	H 	0.76557	0.20053	0.93873	0.046
Mof_C 	C 	0.75727	0.19293	0.96753	0.042
Mof_C 	C 	0.73947	0.20813	0.98523	0.065
Mof_C 	C 	0.71937	0.24173	0.98473	-0.097
Mof_H 	H 	0.70147	0.24633	0.99543	0.086
Mof_N 	N 	0.78097	0.16083	0.96813	-0.102
Mof_N 	N 	0.74487	0.18973	0.00243	-0.107
Mof_N 	N 	0.84957	0.07233	0.00773	-0.116
Mof_N 	N 	0.81917	0.10683	0.04033	-0.113
Mof_C 	C 	0.80517	0.10143	0.98513	0.113
Mof_C 	C 	0.75657	0.04653	0.97813	-0.444
Mof_H 	H 	0.76777	0.01953	0.97743	0.152
Mof_H 	H 	0.74527	0.05133	0.96533	0.154
Mof_H 	H 	0.72677	0.03483	0.98723	0.137
Mof_C 	C 	0.85317	0.12363	0.97173	0.193
Mof_H 	H 	0.87037	0.10173	0.97273	-0.033
Mof_H 	H 	0.87887	0.16073	0.97543	-0.164
Mof_H 	H 	0.84127	0.12283	0.95843	-0.022
Mof_C 	C 	0.76127	0.14833	0.00193	0.03
Mof_C 	C 	0.77777	0.17293	0.03823	0.307
Mof_H 	H 	0.81307	0.20443	0.03593	-0.147
Mof_H 	H 	0.77787	0.15673	0.05063	-0.05
Mof_H 	H 	0.75047	0.18373	0.03833	-0.047
Mof_C 	C 	0.76577	0.13403	0.02293	-0.014
Mof_C 	C 	0.90477	0.05863	0.06053	0.04
Mof_C 	C 	0.91617	0.03773	0.04443	-0.003
Mof_C 	C 	0.89667	0.04053	0.02653	-0.09
Mof_H 	H 	0.90457	0.02643	0.01543	0.008
Mof_C 	C 	0.86597	0.06353	0.02523	0.051
Mof_C 	C 	0.85247	0.08483	0.04253	0.057
Mof_C 	C 	0.79967	0.10433	0.02183	0.036
Mof_C 	C 	0.82017	0.09413	0.00653	0.009
Mof_C 	C 	0.87257	0.08153	0.06023	-0.101
Mof_H 	H 	0.86447	0.09433	0.07163	0.06
Mof_C 	C 	0.78127	0.13933	0.98453	0.018
Mof_C 	C 	0.70887	0.08613	0.02803	-0.353
Mof_H 	H 	0.70297	0.05393	0.02103	0.112
Mof_H 	H 	0.68157	0.09513	0.02423	0.128
Mof_H 	H 	0.70677	0.07943	0.04193	0.124
Mof_N 	N 	0.08673	0.09627	0.11153	-0.247
Mof_N 	N 	0.18013	0.26407	0.14757	-0.118
Mof_N 	N 	0.25863	0.41937	0.18689	-0.123
Mof_N 	N 	0.32453	0.57207	0.23111	-0.246
Mof_C 	C 	0.09443	0.13997	0.12136	0.068
Mof_C 	C 	0.14093	0.18017	0.1301	-0.152
Mof_H 	H 	0.17383	0.17987	0.12987	0.083
Mof_C 	C 	0.13603	0.22177	0.13935	0.071
Mof_C 	C 	0.17563	0.30227	0.15522	-0.013
Mof_C 	C 	0.22883	0.34797	0.16384	0.254
Mof_C 	C 	0.26433	0.38267	0.14658	-0.605
Mof_H 	H 	0.27143	0.35997	0.13787	0.205
Mof_H 	H 	0.29833	0.41187	0.15147	0.203
Mof_H 	H 	0.24543	0.39767	0.13947	0.222
Mof_C 	C 	0.25653	0.32467	0.17588	-0.6
Mof_H 	H 	0.26293	0.30027	0.16797	0.203
Mof_H 	H 	0.23373	0.30497	0.18687	0.201
Mof_H 	H 	0.29093	0.35387	0.18057	0.196
Mof_C 	C 	0.21853	0.38517	0.17616	-0.021
Mof_C 	C 	0.25343	0.45467	0.1982	0.074
Mof_C 	C 	0.29633	0.49297	0.20881	-0.154
Mof_H 	H 	0.32983	0.49387	0.20897	0.077
Mof_C 	C 	0.28923	0.52947	0.21912	0.064
Mof_C 	C 	0.42393	0.54687	0.28337	-0.068
Mof_H 	H 	0.43223	0.53387	0.27207	0.046
Mof_C 	C 	0.42393	0.52627	0.30087	0.043
Mof_C 	C 	0.40613	0.54147	0.31857	0.065
Mof_C 	C 	0.38603	0.57507	0.31807	-0.095
Mof_H 	H 	0.36813	0.57967	0.32877	0.086
Mof_N 	N 	0.44763	0.49417	0.30147	-0.101
Mof_N 	N 	0.41153	0.52307	0.33577	-0.107
Mof_N 	N 	0.51623	0.40567	0.34107	-0.114
Mof_N 	N 	0.48583	0.44017	0.37367	-0.112
Mof_C 	C 	0.47183	0.43477	0.31847	0.119
Mof_C 	C 	0.42323	0.37987	0.31147	-0.461
Mof_H 	H 	0.43443	0.35287	0.31077	0.165
Mof_H 	H 	0.41193	0.38467	0.29867	0.163
Mof_H 	H 	0.39343	0.36817	0.32057	0.148
Mof_C 	C 	0.51983	0.45697	0.30507	0.192
Mof_H 	H 	0.53703	0.43507	0.30607	-0.03
Mof_H 	H 	0.54553	0.49407	0.30877	-0.162
Mof_H 	H 	0.50793	0.45617	0.29177	-0.021
Mof_C 	C 	0.42793	0.48167	0.33527	0.031
Mof_C 	C 	0.44443	0.50627	0.37157	0.307
Mof_H 	H 	0.47973	0.53777	0.36927	-0.146
Mof_H 	H 	0.44453	0.49007	0.38397	-0.049
Mof_H 	H 	0.41713	0.51707	0.37167	-0.047
Mof_C 	C 	0.43243	0.46737	0.35627	-0.011
Mof_C 	C 	0.57143	0.39197	0.39387	0.044
Mof_C 	C 	0.58283	0.37107	0.37777	0.005
Mof_C 	C 	0.56333	0.37387	0.35987	-0.092
Mof_H 	H 	0.57123	0.35977	0.34877	0.013
Mof_C 	C 	0.53263	0.39687	0.35857	0.057
Mof_C 	C 	0.51913	0.41817	0.37587	0.059
Mof_C 	C 	0.46633	0.43767	0.35517	0.038
Mof_C 	C 	0.48683	0.42747	0.33987	0.009
Mof_C 	C 	0.53923	0.41487	0.39357	-0.098
Mof_H 	H 	0.53113	0.42767	0.40497	0.061
Mof_C 	C 	0.44793	0.47267	0.31787	0.017
Mof_C 	C 	0.37553	0.41947	0.36137	-0.364
Mof_H 	H 	0.36963	0.38727	0.35437	0.121
Mof_H 	H 	0.34823	0.42847	0.35757	0.134
Mof_H 	H 	0.37343	0.41277	0.37527	0.131
Mof_N 	N 	0.6762	0.2466	0.44486	-0.244
Mof_N 	N 	0.7506	0.1532	0.4809	-0.119
Mof_N 	N 	0.8274	0.0747	0.52022	-0.126
Mof_N 	N 	0.9142	0.0088	0.56444	-0.251
Mof_C 	C 	0.7122	0.2389	0.45469	0.069
Mof_C 	C 	0.7059	0.1924	0.46343	-0.15
Mof_H 	H 	0.6727	0.1595	0.4632	0.082
Mof_C 	C 	0.7524	0.1973	0.47268	0.071
Mof_C 	C 	0.7933	0.1577	0.48855	-0.007
Mof_C 	C 	0.7858	0.1045	0.49717	0.243
Mof_C 	C 	0.785	0.069	0.47991	-0.587
Mof_H 	H 	0.7552	0.0619	0.4712	0.196
Mof_H 	H 	0.7802	0.035	0.4848	0.191
Mof_H 	H 	0.8189	0.0879	0.4728	0.214
Mof_C 	C 	0.7348	0.0768	0.50921	-0.584
Mof_H 	H 	0.704	0.0704	0.5013	0.196
Mof_H 	H 	0.7379	0.0996	0.5202	0.197
Mof_H 	H 	0.7296	0.0424	0.5139	0.185
Mof_C 	C 	0.8333	0.1148	0.50949	-0.016
Mof_C 	C 	0.8679	0.0799	0.53153	0.071
Mof_C 	C 	0.8633	0.037	0.54214	-0.152
Mof_H 	H 	0.8307	0.0035	0.5423	0.068
Mof_C 	C 	0.9069	0.0441	0.55245	0.059
Mof_C 	C 	0.7896	0.9094	0.6167	-0.071
Mof_H 	H 	0.7683	0.9011	0.6054	0.05
Mof_C 	C 	0.769	0.9094	0.6342	0.049
Mof_C 	C 	0.802	0.9272	0.6519	0.064
Mof_C 	C 	0.8557	0.9473	0.6514	-0.087
Mof_H 	H 	0.8782	0.9652	0.6621	0.091
Mof_N 	N 	0.7132	0.8857	0.6348	-0.101
Mof_N 	N 	0.7782	0.9218	0.6691	-0.104
Mof_N 	N 	0.5561	0.8171	0.6744	-0.114
Mof_N 	N 	0.621	0.8475	0.707	-0.111
Mof_C 	C 	0.6296	0.8615	0.6518	0.122
Mof_C 	C 	0.6233	0.9101	0.6448	-0.47
Mof_H 	H 	0.5851	0.8989	0.6441	0.169
Mof_H 	H 	0.6394	0.9214	0.632	0.169
Mof_H 	H 	0.6414	0.9399	0.6539	0.155
Mof_C 	C 	0.6038	0.8135	0.6384	0.192
Mof_H 	H 	0.5647	0.7963	0.6394	-0.03
Mof_H 	H 	0.6152	0.7878	0.6421	-0.162
Mof_H 	H 	0.6149	0.8254	0.6251	-0.02
Mof_C 	C 	0.7204	0.9054	0.6686	0.032
Mof_C 	C 	0.7285	0.8889	0.7049	0.31
Mof_H 	H 	0.7247	0.8536	0.7026	-0.147
Mof_H 	H 	0.7122	0.8888	0.7173	-0.047
Mof_H 	H 	0.7666	0.9162	0.705	-0.044
Mof_C 	C 	0.7016	0.9009	0.6896	-0.008
Mof_C 	C 	0.4872	0.7619	0.7272	0.047
Mof_C 	C 	0.4549	0.7505	0.7111	0.004
Mof_C 	C 	0.4772	0.77	0.6932	-0.091
Mof_H 	H 	0.4552	0.7621	0.6821	0.012
Mof_C 	C 	0.5309	0.8007	0.6919	0.056
Mof_C 	C 	0.5657	0.8142	0.7092	0.061
Mof_C 	C 	0.638	0.867	0.6885	0.038
Mof_C 	C 	0.6073	0.8465	0.6732	0.008
Mof_C 	C 	0.5423	0.7941	0.7269	-0.101
Mof_H 	H 	0.5632	0.8022	0.7383	0.063
Mof_C 	C 	0.6914	0.8854	0.6512	0.018
Mof_C 	C 	0.7106	0.9578	0.6947	-0.376
Mof_H 	H 	0.6843	0.9637	0.6877	0.128
Mof_H 	H 	0.7469	0.9851	0.6909	0.144
Mof_H 	H 	0.706	0.9599	0.7086	0.139
Mof_N 	N 	0.34287	0.57993	0.77819	-0.244
Mof_N 	N 	0.41727	0.48653	0.81423	-0.117
Mof_N 	N 	0.49407	0.40803	0.85355	-0.123
Mof_N 	N 	0.58087	0.34213	0.89777	-0.246
Mof_C 	C 	0.37887	0.57223	0.78802	0.069
Mof_C 	C 	0.37257	0.52573	0.79676	-0.15
Mof_H 	H 	0.33937	0.49283	0.79653	0.083
Mof_C 	C 	0.41907	0.53063	0.80601	0.072
Mof_C 	C 	0.45997	0.49103	0.82188	-0.012
Mof_C 	C 	0.45247	0.43783	0.8305	0.254
Mof_C 	C 	0.45167	0.40233	0.81324	-0.605
Mof_H 	H 	0.42187	0.39523	0.80453	0.205
Mof_H 	H 	0.44687	0.36833	0.81813	0.203
Mof_H 	H 	0.48557	0.42123	0.80613	0.222
Mof_C 	C 	0.40147	0.41013	0.84254	-0.602
Mof_H 	H 	0.37067	0.40373	0.83463	0.205
Mof_H 	H 	0.40457	0.43293	0.85353	0.204
Mof_H 	H 	0.39627	0.37573	0.84723	0.197
Mof_C 	C 	0.49997	0.44813	0.84282	-0.02
Mof_C 	C 	0.53457	0.41323	0.86486	0.074
Mof_C 	C 	0.52997	0.37033	0.87547	-0.154
Mof_H 	H 	0.49737	0.33683	0.87563	0.077
Mof_C 	C 	0.57357	0.37743	0.88578	0.064
Mof_C 	C 	0.45627	0.24273	0.95003	-0.069
Mof_H 	H 	0.43497	0.23443	0.93873	0.047
Mof_C 	C 	0.43567	0.24273	0.96753	0.045
Mof_C 	C 	0.46867	0.26053	0.98523	0.064
Mof_C 	C 	0.52237	0.28063	0.98473	-0.092
Mof_H 	H 	0.54487	0.29853	0.99543	0.085
Mof_N 	N 	0.37987	0.21903	0.96813	-0.101
Mof_N 	N 	0.44487	0.25513	0.00243	-0.106
Mof_N 	N 	0.22277	0.15043	0.00773	-0.115
Mof_N 	N 	0.28767	0.18083	0.04033	-0.112
Mof_C 	C 	0.29627	0.19483	0.98513	0.119
Mof_C 	C 	0.28997	0.24343	0.97813	-0.462
Mof_H 	H 	0.25177	0.23223	0.97743	0.165
Mof_H 	H 	0.30607	0.25473	0.96533	0.163
Mof_H 	H 	0.30807	0.27323	0.98723	0.149
Mof_C 	C 	0.27047	0.14683	0.97173	0.192
Mof_H 	H 	0.23137	0.12963	0.97273	-0.031
Mof_H 	H 	0.28187	0.12113	0.97543	-0.16
Mof_H 	H 	0.28157	0.15873	0.95843	-0.021
Mof_C 	C 	0.38707	0.23873	0.00193	0.031
Mof_C 	C 	0.39517	0.22223	0.03823	0.306
Mof_H 	H 	0.39137	0.18693	0.03593	-0.144
Mof_H 	H 	0.37887	0.22213	0.05063	-0.049
Mof_H 	H 	0.43327	0.24953	0.03833	-0.047
Mof_C 	C 	0.36827	0.23423	0.02293	-0.011
Mof_C 	C 	0.15387	0.09523	0.06053	0.048
Mof_C 	C 	0.12157	0.08383	0.04443	0.005
Mof_C 	C 	0.14387	0.10333	0.02653	-0.093
Mof_H 	H 	0.12187	0.09543	0.01543	0.01
Mof_C 	C 	0.19757	0.13403	0.02523	0.057
Mof_C 	C 	0.23237	0.14753	0.04253	0.06
Mof_C 	C 	0.30467	0.20033	0.02183	0.038
Mof_C 	C 	0.27397	0.17983	0.00653	0.009
Mof_C 	C 	0.20897	0.12743	0.06023	-0.1
Mof_H 	H 	0.22987	0.13553	0.07163	0.061
Mof_C 	C 	0.35807	0.21873	0.98453	0.018
Mof_C 	C 	0.37727	0.29113	0.02803	-0.365
Mof_H 	H 	0.35097	0.29703	0.02103	0.121
Mof_H 	H 	0.41357	0.31843	0.02423	0.135
Mof_H 	H 	0.37267	0.29323	0.04193	0.132
Mof_N 	N 	0.00953	0.91327	0.11153	-0.249
Mof_N 	N 	0.08393	0.81987	0.14757	-0.118
Mof_N 	N 	0.16073	0.74137	0.18689	-0.123
Mof_N 	N 	0.24753	0.67547	0.23111	-0.246
Mof_C 	C 	0.04553	0.90557	0.12136	0.066
Mof_C 	C 	0.03923	0.85907	0.1301	-0.149
Mof_H 	H 	0.00603	0.82617	0.12987	0.078
Mof_C 	C 	0.08573	0.86397	0.13935	0.07
Mof_C 	C 	0.12663	0.82437	0.15522	-0.011
Mof_C 	C 	0.11913	0.77117	0.16384	0.252
Mof_C 	C 	0.11833	0.73567	0.14658	-0.604
Mof_H 	H 	0.08853	0.72857	0.13787	0.204
Mof_H 	H 	0.11353	0.70167	0.15147	0.204
Mof_H 	H 	0.15223	0.75457	0.13947	0.221
Mof_C 	C 	0.06813	0.74347	0.17588	-0.597
Mof_H 	H 	0.03733	0.73707	0.16797	0.201
Mof_H 	H 	0.07123	0.76627	0.18687	0.2
Mof_H 	H 	0.06293	0.70907	0.18057	0.194
Mof_C 	C 	0.16663	0.78147	0.17616	-0.019
Mof_C 	C 	0.20123	0.74657	0.1982	0.074
Mof_C 	C 	0.19663	0.70367	0.20881	-0.154
Mof_H 	H 	0.16403	0.67017	0.20897	0.077
Mof_C 	C 	0.24023	0.71077	0.21912	0.064
Mof_C 	C 	0.12293	0.57607	0.28337	-0.068
Mof_H 	H 	0.10163	0.56777	0.27207	0.045
Mof_C 	C 	0.10233	0.57607	0.30087	0.043
Mof_C 	C 	0.13533	0.59387	0.31857	0.064
Mof_C 	C 	0.18903	0.61397	0.31807	-0.093
Mof_H 	H 	0.21153	0.63187	0.32877	0.085
Mof_N 	N 	0.04653	0.55237	0.30147	-0.101
Mof_N 	N 	0.11153	0.58847	0.33577	-0.107
Mof_N 	N 	0.88943	0.48377	0.34107	-0.112
Mof_N 	N 	0.95433	0.51417	0.37367	-0.11
Mof_C 	C 	0.96293	0.52817	0.31847	0.147
Mof_C 	C 	0.95663	0.57677	0.31147	-0.486
Mof_H 	H 	0.91843	0.56557	0.31077	0.173
Mof_H 	H 	0.97273	0.58807	0.29867	0.176
Mof_H 	H 	0.97473	0.60657	0.32057	0.161
Mof_C 	C 	0.93713	0.48017	0.30507	0.188
Mof_H 	H 	0.89803	0.46297	0.30607	-0.029
Mof_H 	H 	0.94853	0.45447	0.30877	-0.163
Mof_H 	H 	0.94823	0.49207	0.29177	-0.016
Mof_C 	C 	0.05373	0.57207	0.33527	0.037
Mof_C 	C 	0.06183	0.55557	0.37157	0.294
Mof_H 	H 	0.05803	0.52027	0.36927	-0.138
Mof_H 	H 	0.04553	0.55547	0.38397	-0.05
Mof_H 	H 	0.09993	0.58287	0.37167	-0.043
Mof_C 	C 	0.03493	0.56757	0.35627	-0.033
Mof_C 	C 	0.82053	0.42857	0.39387	0.045
Mof_C 	C 	0.78823	0.41717	0.37777	0.005
Mof_C 	C 	0.81053	0.43667	0.35987	-0.092
Mof_H 	H 	0.78853	0.42877	0.34877	0.013
Mof_C 	C 	0.86423	0.46737	0.35857	0.056
Mof_C 	C 	0.89903	0.48087	0.37587	0.061
Mof_C 	C 	0.97133	0.53367	0.35517	0.064
Mof_C 	C 	0.94063	0.51317	0.33987	-0.002
Mof_C 	C 	0.87563	0.46077	0.39357	-0.099
Mof_H 	H 	0.89653	0.46887	0.40497	0.063
Mof_C 	C 	0.02473	0.55207	0.31787	-0.008
Mof_C 	C 	0.04393	0.62447	0.36137	-0.343
Mof_H 	H 	0.01763	0.63037	0.35437	0.105
Mof_H 	H 	0.08023	0.65177	0.35757	0.127
Mof_H 	H 	0.03933	0.62657	0.37527	0.12
Mof_N 	N 	0.6762	0.4296	0.44486	-0.244
Mof_N 	N 	0.7506	0.5974	0.4809	-0.117
Mof_N 	N 	0.8274	0.7527	0.52022	-0.123
Mof_N 	N 	0.9142	0.9054	0.56444	-0.242
Mof_C 	C 	0.7122	0.4733	0.45469	0.07
Mof_C 	C 	0.7059	0.5135	0.46343	-0.15
Mof_H 	H 	0.6727	0.5132	0.4632	0.084
Mof_C 	C 	0.7524	0.5551	0.47268	0.072
Mof_C 	C 	0.7933	0.6356	0.48855	-0.011
Mof_C 	C 	0.7858	0.6813	0.49717	0.254
Mof_C 	C 	0.785	0.716	0.47991	-0.606
Mof_H 	H 	0.7552	0.6933	0.4712	0.206
Mof_H 	H 	0.7802	0.7452	0.4848	0.204
Mof_H 	H 	0.8189	0.731	0.4728	0.223
Mof_C 	C 	0.7348	0.658	0.50921	-0.604
Mof_H 	H 	0.704	0.6336	0.5013	0.206
Mof_H 	H 	0.7379	0.6383	0.5202	0.205
Mof_H 	H 	0.7296	0.6872	0.5139	0.197
Mof_C 	C 	0.8333	0.7185	0.50949	-0.018
Mof_C 	C 	0.8679	0.788	0.53153	0.075
Mof_C 	C 	0.8633	0.8263	0.54214	-0.152
Mof_H 	H 	0.8307	0.8272	0.5423	0.077
Mof_C 	C 	0.9069	0.8628	0.55245	0.065
Mof_C 	C 	0.7896	0.8802	0.6167	-0.065
Mof_H 	H 	0.7683	0.8672	0.6054	0.046
Mof_C 	C 	0.769	0.8596	0.6342	0.042
Mof_C 	C 	0.802	0.8748	0.6519	0.068
Mof_C 	C 	0.8557	0.9084	0.6514	-0.099
Mof_H 	H 	0.8782	0.913	0.6621	0.091
Mof_N 	N 	0.7132	0.8275	0.6348	-0.101
Mof_N 	N 	0.7782	0.8564	0.6691	-0.106
Mof_N 	N 	0.5561	0.739	0.6744	-0.114
Mof_N 	N 	0.621	0.7735	0.707	-0.111
Mof_C 	C 	0.6296	0.7681	0.6518	0.12
Mof_C 	C 	0.6233	0.7132	0.6448	-0.463
Mof_H 	H 	0.5851	0.6862	0.6441	0.166
Mof_H 	H 	0.6394	0.718	0.632	0.164
Mof_H 	H 	0.6414	0.7015	0.6539	0.149
Mof_C 	C 	0.6038	0.7903	0.6384	0.192
Mof_H 	H 	0.5647	0.7684	0.6394	-0.03
Mof_H 	H 	0.6152	0.8274	0.6421	-0.163
Mof_H 	H 	0.6149	0.7895	0.6251	-0.02
Mof_C 	C 	0.7204	0.815	0.6686	0.031
Mof_C 	C 	0.7285	0.8396	0.7049	0.31
Mof_H 	H 	0.7247	0.8711	0.7026	-0.148
Mof_H 	H 	0.7122	0.8234	0.7173	-0.048
Mof_H 	H 	0.7666	0.8504	0.705	-0.045
Mof_C 	C 	0.7016	0.8007	0.6896	-0.011
Mof_C 	C 	0.4872	0.7253	0.7272	0.043
Mof_C 	C 	0.4549	0.7044	0.7111	0.006
Mof_C 	C 	0.4772	0.7072	0.6932	-0.093
Mof_H 	H 	0.4552	0.6931	0.6821	0.013
Mof_C 	C 	0.5309	0.7302	0.6919	0.057
Mof_C 	C 	0.5657	0.7515	0.7092	0.059
Mof_C 	C 	0.638	0.771	0.6885	0.038
Mof_C 	C 	0.6073	0.7608	0.6732	0.009
Mof_C 	C 	0.5423	0.7482	0.7269	-0.097
Mof_H 	H 	0.5632	0.761	0.7383	0.061
Mof_C 	C 	0.6914	0.806	0.6512	0.017
Mof_C 	C 	0.7106	0.7528	0.6947	-0.368
Mof_H 	H 	0.6843	0.7206	0.6877	0.123
Mof_H 	H 	0.7469	0.7618	0.6909	0.138
Mof_H 	H 	0.706	0.7461	0.7086	0.134
Mof_N 	N 	0.34287	0.76293	0.77819	-0.243
Mof_N 	N 	0.41727	0.93073	0.81423	-0.118
Mof_N 	N 	0.49407	0.08603	0.85355	-0.126
Mof_N 	N 	0.58087	0.23873	0.89777	-0.246
Mof_C 	C 	0.37887	0.80663	0.78802	0.07
Mof_C 	C 	0.37257	0.84683	0.79676	-0.149
Mof_H 	H 	0.33937	0.84653	0.79653	0.086
Mof_C 	C 	0.41907	0.88843	0.80601	0.074
Mof_C 	C 	0.45997	0.96893	0.82188	0.018
Mof_C 	C 	0.45247	0.01463	0.8305	0.174
Mof_C 	C 	0.45167	0.04933	0.81324	-0.544
Mof_H 	H 	0.42187	0.02663	0.80453	0.182
Mof_H 	H 	0.44687	0.07853	0.81813	0.185
Mof_H 	H 	0.48557	0.06433	0.80613	0.202
Mof_C 	C 	0.40147	0.99133	0.84254	-0.445
Mof_H 	H 	0.37067	0.96693	0.83463	0.168
Mof_H 	H 	0.40457	0.97163	0.85353	0.167
Mof_H 	H 	0.39627	0.02053	0.84723	0.139
Mof_C 	C 	0.49997	0.05183	0.84282	-0.008
Mof_C 	C 	0.53457	0.12133	0.86486	0.073
Mof_C 	C 	0.52997	0.15963	0.87547	-0.154
Mof_H 	H 	0.49737	0.16053	0.87563	0.076
Mof_C 	C 	0.57357	0.19613	0.88578	0.063
Mof_C 	C 	0.45627	0.21353	0.95003	-0.068
Mof_H 	H 	0.43497	0.20053	0.93873	0.046
Mof_C 	C 	0.43567	0.19293	0.96753	0.043
Mof_C 	C 	0.46867	0.20813	0.98523	0.064
Mof_C 	C 	0.52237	0.24173	0.98473	-0.095
Mof_H 	H 	0.54487	0.24633	0.99543	0.086
Mof_N 	N 	0.37987	0.16083	0.96813	-0.102
Mof_N 	N 	0.44487	0.18973	0.00243	-0.107
Mof_N 	N 	0.22277	0.07233	0.00773	-0.117
Mof_N 	N 	0.28767	0.10683	0.04033	-0.113
Mof_C 	C 	0.29627	0.10143	0.98513	0.112
Mof_C 	C 	0.28997	0.04653	0.97813	-0.443
Mof_H 	H 	0.25177	0.01953	0.97743	0.151
Mof_H 	H 	0.30607	0.05133	0.96533	0.153
Mof_H 	H 	0.30807	0.03483	0.98723	0.136
Mof_C 	C 	0.27047	0.12363	0.97173	0.192
Mof_H 	H 	0.23137	0.10173	0.97273	-0.033
Mof_H 	H 	0.28187	0.16073	0.97543	-0.162
Mof_H 	H 	0.28157	0.12283	0.95843	-0.022
Mof_C 	C 	0.38707	0.14833	0.00193	0.03
Mof_C 	C 	0.39517	0.17293	0.03823	0.306
Mof_H 	H 	0.39137	0.20443	0.03593	-0.146
Mof_H 	H 	0.37887	0.15673	0.05063	-0.05
Mof_H 	H 	0.43327	0.18373	0.03833	-0.047
Mof_C 	C 	0.36827	0.13403	0.02293	-0.014
Mof_C 	C 	0.15387	0.05863	0.06053	0.041
Mof_C 	C 	0.12157	0.03773	0.04443	-0.002
Mof_C 	C 	0.14387	0.04053	0.02653	-0.091
Mof_H 	H 	0.12187	0.02643	0.01543	0.004
Mof_C 	C 	0.19757	0.06353	0.02523	0.052
Mof_C 	C 	0.23237	0.08483	0.04253	0.057
Mof_C 	C 	0.30467	0.10433	0.02183	0.036
Mof_C 	C 	0.27397	0.09413	0.00653	0.009
Mof_C 	C 	0.20897	0.08153	0.06023	-0.1
Mof_H 	H 	0.22987	0.09433	0.07163	0.059
Mof_C 	C 	0.35807	0.13933	0.98453	0.019
Mof_C 	C 	0.37727	0.08613	0.02803	-0.353
Mof_H 	H 	0.35097	0.05393	0.02103	0.112
Mof_H 	H 	0.41357	0.09513	0.02423	0.128
Mof_H 	H 	0.37267	0.07943	0.04193	0.124
Mof_N 	N 	0.00953	0.09627	0.11153	-0.253
Mof_N 	N 	0.08393	0.26407	0.14757	-0.119
Mof_N 	N 	0.16073	0.41937	0.18689	-0.123
Mof_N 	N 	0.24753	0.57207	0.23111	-0.246
Mof_C 	C 	0.04553	0.13997	0.12136	0.064
Mof_C 	C 	0.03923	0.18017	0.1301	-0.152
Mof_H 	H 	0.00603	0.17987	0.12987	0.076
Mof_C 	C 	0.08573	0.22177	0.13935	0.069
Mof_C 	C 	0.12663	0.30227	0.15522	-0.012
Mof_C 	C 	0.11913	0.34797	0.16384	0.251
Mof_C 	C 	0.11833	0.38267	0.14658	-0.602
Mof_H 	H 	0.08853	0.35997	0.13787	0.204
Mof_H 	H 	0.11353	0.41187	0.15147	0.204
Mof_H 	H 	0.15223	0.39767	0.13947	0.221
Mof_C 	C 	0.06813	0.32467	0.17588	-0.593
Mof_H 	H 	0.03733	0.30027	0.16797	0.198
Mof_H 	H 	0.07123	0.30497	0.18687	0.197
Mof_H 	H 	0.06293	0.35387	0.18057	0.192
Mof_C 	C 	0.16663	0.38517	0.17616	-0.019
Mof_C 	C 	0.20123	0.45467	0.1982	0.074
Mof_C 	C 	0.19663	0.49297	0.20881	-0.154
Mof_H 	H 	0.16403	0.49387	0.20897	0.077
Mof_C 	C 	0.24023	0.52947	0.21912	0.064
Mof_C 	C 	0.12293	0.54687	0.28337	-0.068
Mof_H 	H 	0.10163	0.53387	0.27207	0.044
Mof_C 	C 	0.10233	0.52627	0.30087	0.042
Mof_C 	C 	0.13533	0.54147	0.31857	0.065
Mof_C 	C 	0.18903	0.57507	0.31807	-0.095
Mof_H 	H 	0.21153	0.57967	0.32877	0.086
Mof_N 	N 	0.04653	0.49417	0.30147	-0.101
Mof_N 	N 	0.11153	0.52307	0.33577	-0.107
Mof_N 	N 	0.88943	0.40567	0.34107	-0.112
Mof_N 	N 	0.95433	0.44017	0.37367	-0.11
Mof_C 	C 	0.96293	0.43477	0.31847	0.148
Mof_C 	C 	0.95663	0.37987	0.31147	-0.485
Mof_H 	H 	0.91843	0.35287	0.31077	0.172
Mof_H 	H 	0.97273	0.38467	0.29867	0.176
Mof_H 	H 	0.97473	0.36817	0.32057	0.161
Mof_C 	C 	0.93713	0.45697	0.30507	0.188
Mof_H 	H 	0.89803	0.43507	0.30607	-0.029
Mof_H 	H 	0.94853	0.49407	0.30877	-0.163
Mof_H 	H 	0.94823	0.45617	0.29177	-0.016
Mof_C 	C 	0.05373	0.48167	0.33527	0.037
Mof_C 	C 	0.06183	0.50627	0.37157	0.294
Mof_H 	H 	0.05803	0.53777	0.36927	-0.139
Mof_H 	H 	0.04553	0.49007	0.38397	-0.05
Mof_H 	H 	0.09993	0.51707	0.37167	-0.043
Mof_C 	C 	0.03493	0.46737	0.35627	-0.034
Mof_C 	C 	0.82053	0.39197	0.39387	0.046
Mof_C 	C 	0.78823	0.37107	0.37777	0.005
Mof_C 	C 	0.81053	0.37387	0.35987	-0.091
Mof_H 	H 	0.78853	0.35977	0.34877	0.013
Mof_C 	C 	0.86423	0.39687	0.35857	0.056
Mof_C 	C 	0.89903	0.41817	0.37587	0.061
Mof_C 	C 	0.97133	0.43767	0.35517	0.064
Mof_C 	C 	0.94063	0.42747	0.33987	-0.003
Mof_C 	C 	0.87563	0.41487	0.39357	-0.099
Mof_H 	H 	0.89653	0.42767	0.40497	0.064
Mof_C 	C 	0.02473	0.47267	0.31787	-0.009
Mof_C 	C 	0.04393	0.41947	0.36137	-0.34
Mof_H 	H 	0.01763	0.38727	0.35437	0.104
Mof_H 	H 	0.08023	0.42847	0.35757	0.125
Mof_H 	H 	0.03933	0.41277	0.37527	0.119
Mof_N 	N 	0.5704	0.2466	0.44486	-0.244
Mof_N 	N 	0.4026	0.1532	0.4809	-0.118
Mof_N 	N 	0.2473	0.0747	0.52022	-0.127
Mof_N 	N 	0.0946	0.0088	0.56444	-0.255
Mof_C 	C 	0.5267	0.2389	0.45469	0.069
Mof_C 	C 	0.4865	0.1924	0.46343	-0.15
Mof_H 	H 	0.4868	0.1595	0.4632	0.082
Mof_C 	C 	0.4449	0.1973	0.47268	0.071
Mof_C 	C 	0.3644	0.1577	0.48855	-0.009
Mof_C 	C 	0.3187	0.1045	0.49717	0.243
Mof_C 	C 	0.284	0.069	0.47991	-0.586
Mof_H 	H 	0.3067	0.0619	0.4712	0.195
Mof_H 	H 	0.2548	0.035	0.4848	0.189
Mof_H 	H 	0.269	0.0879	0.4728	0.213
Mof_C 	C 	0.342	0.0768	0.50921	-0.583
Mof_H 	H 	0.3664	0.0704	0.5013	0.196
Mof_H 	H 	0.3617	0.0996	0.5202	0.196
Mof_H 	H 	0.3128	0.0424	0.5139	0.184
Mof_C 	C 	0.2815	0.1148	0.50949	-0.018
Mof_C 	C 	0.212	0.0799	0.53153	0.07
Mof_C 	C 	0.1737	0.037	0.54214	-0.154
Mof_H 	H 	0.1728	0.0035	0.5423	0.067
Mof_C 	C 	0.1372	0.0441	0.55245	0.058
Mof_C 	C 	0.1198	0.9094	0.6167	-0.075
Mof_H 	H 	0.1328	0.9011	0.6054	0.051
Mof_C 	C 	0.1404	0.9094	0.6342	0.052
Mof_C 	C 	0.1252	0.9272	0.6519	0.061
Mof_C 	C 	0.0916	0.9473	0.6514	-0.081
Mof_H 	H 	0.087	0.9652	0.6621	0.087
Mof_N 	N 	0.1725	0.8857	0.6348	-0.101
Mof_N 	N 	0.1436	0.9218	0.6691	-0.105
Mof_N 	N 	0.261	0.8171	0.6744	-0.114
Mof_N 	N 	0.2265	0.8475	0.707	-0.112
Mof_C 	C 	0.2319	0.8615	0.6518	0.122
Mof_C 	C 	0.2868	0.9101	0.6448	-0.47
Mof_H 	H 	0.3138	0.8989	0.6441	0.169
Mof_H 	H 	0.282	0.9214	0.632	0.169
Mof_H 	H 	0.2985	0.9399	0.6539	0.155
Mof_C 	C 	0.2097	0.8135	0.6384	0.192
Mof_H 	H 	0.2316	0.7963	0.6394	-0.03
Mof_H 	H 	0.1726	0.7878	0.6421	-0.162
Mof_H 	H 	0.2105	0.8254	0.6251	-0.02
Mof_C 	C 	0.185	0.9054	0.6686	0.031
Mof_C 	C 	0.1604	0.8889	0.7049	0.307
Mof_H 	H 	0.1289	0.8536	0.7026	-0.145
Mof_H 	H 	0.1766	0.8888	0.7173	-0.048
Mof_H 	H 	0.1496	0.9162	0.705	-0.045
Mof_C 	C 	0.1993	0.9009	0.6896	-0.008
Mof_C 	C 	0.2747	0.7619	0.7272	0.05
Mof_C 	C 	0.2956	0.7505	0.7111	0.002
Mof_C 	C 	0.2928	0.77	0.6932	-0.09
Mof_H 	H 	0.3069	0.7621	0.6821	0.012
Mof_C 	C 	0.2698	0.8007	0.6919	0.055
Mof_C 	C 	0.2485	0.8142	0.7092	0.062
Mof_C 	C 	0.229	0.867	0.6885	0.038
Mof_C 	C 	0.2392	0.8465	0.6732	0.008
Mof_C 	C 	0.2518	0.7941	0.7269	-0.103
Mof_H 	H 	0.239	0.8022	0.7383	0.064
Mof_C 	C 	0.194	0.8854	0.6512	0.018
Mof_C 	C 	0.2472	0.9578	0.6947	-0.374
Mof_H 	H 	0.2794	0.9637	0.6877	0.127
Mof_H 	H 	0.2382	0.9851	0.6909	0.142
Mof_H 	H 	0.2539	0.9599	0.7086	0.138
Mof_N 	N 	0.23707	0.57993	0.77819	-0.244
Mof_N 	N 	0.06927	0.48653	0.81423	-0.116
Mof_N 	N 	0.91397	0.40803	0.85355	-0.12
Mof_N 	N 	0.76127	0.34213	0.89777	-0.245
Mof_C 	C 	0.19337	0.57223	0.78802	0.069
Mof_C 	C 	0.15317	0.52573	0.79676	-0.151
Mof_H 	H 	0.15347	0.49283	0.79653	0.081
Mof_C 	C 	0.11157	0.53063	0.80601	0.07
Mof_C 	C 	0.03107	0.49103	0.82188	-0.041
Mof_C 	C 	0.98537	0.43783	0.8305	0.334
Mof_C 	C 	0.95067	0.40233	0.81324	-0.667
Mof_H 	H 	0.97337	0.39523	0.80453	0.23
Mof_H 	H 	0.92147	0.36833	0.81813	0.222
Mof_H 	H 	0.93567	0.42123	0.80613	0.241
Mof_C 	C 	0.00867	0.41013	0.84254	-0.76
Mof_H 	H 	0.03307	0.40373	0.83463	0.242
Mof_H 	H 	0.02837	0.43293	0.85353	0.241
Mof_H 	H 	0.97947	0.37573	0.84723	0.254
Mof_C 	C 	0.94817	0.44813	0.84282	-0.032
Mof_C 	C 	0.87867	0.41323	0.86486	0.075
Mof_C 	C 	0.84037	0.37033	0.87547	-0.154
Mof_H 	H 	0.83947	0.33683	0.87563	0.077
Mof_C 	C 	0.80387	0.37743	0.88578	0.065
Mof_C 	C 	0.78647	0.24273	0.95003	-0.07
Mof_H 	H 	0.79947	0.23443	0.93873	0.048
Mof_C 	C 	0.80707	0.24273	0.96753	0.047
Mof_C 	C 	0.79187	0.26053	0.98523	0.064
Mof_C 	C 	0.75827	0.28063	0.98473	-0.09
Mof_H 	H 	0.75367	0.29853	0.99543	0.085
Mof_N 	N 	0.83917	0.21903	0.96813	-0.101
Mof_N 	N 	0.81027	0.25513	0.00243	-0.106
Mof_N 	N 	0.92767	0.15043	0.00773	-0.112
Mof_N 	N 	0.89317	0.18083	0.04033	-0.111
Mof_C 	C 	0.89857	0.19483	0.98513	0.127
Mof_C 	C 	0.95347	0.24343	0.97813	-0.481
Mof_H 	H 	0.98047	0.23223	0.97743	0.18
Mof_H 	H 	0.94867	0.25473	0.96533	0.173
Mof_H 	H 	0.96517	0.27323	0.98723	0.161
Mof_C 	C 	0.87637	0.14683	0.97173	0.191
Mof_H 	H 	0.89827	0.12963	0.97273	-0.028
Mof_H 	H 	0.83927	0.12113	0.97543	-0.16
Mof_H 	H 	0.87717	0.15873	0.95843	-0.019
Mof_C 	C 	0.85167	0.23873	0.00193	0.031
Mof_C 	C 	0.82707	0.22223	0.03823	0.307
Mof_H 	H 	0.79557	0.18693	0.03593	-0.144
Mof_H 	H 	0.84327	0.22213	0.05063	-0.048
Mof_H 	H 	0.81627	0.24953	0.03833	-0.046
Mof_C 	C 	0.86597	0.23423	0.02293	-0.008
Mof_C 	C 	0.94137	0.09523	0.06053	0.05
Mof_C 	C 	0.96227	0.08383	0.04443	0.014
Mof_C 	C 	0.95947	0.10333	0.02653	-0.095
Mof_H 	H 	0.97357	0.09543	0.01543	0.02
Mof_C 	C 	0.93647	0.13403	0.02523	0.063
Mof_C 	C 	0.91517	0.14753	0.04253	0.061
Mof_C 	C 	0.89567	0.20033	0.02183	0.04
Mof_C 	C 	0.90587	0.17983	0.00653	0.009
Mof_C 	C 	0.91847	0.12743	0.06023	-0.096
Mof_H 	H 	0.90567	0.13553	0.07163	0.063
Mof_C 	C 	0.86067	0.21873	0.98453	0.017
Mof_C 	C 	0.91387	0.29113	0.02803	-0.377
Mof_H 	H 	0.94607	0.29703	0.02103	0.131
Mof_H 	H 	0.90487	0.31843	0.02423	0.142
Mof_H 	H 	0.92057	0.29323	0.04193	0.14
Mof_N 	N 	0.90373	0.91327	0.11153	-0.24
Mof_N 	N 	0.73593	0.81987	0.14757	-0.116
Mof_N 	N 	0.58063	0.74137	0.18689	-0.123
Mof_N 	N 	0.42793	0.67547	0.23111	-0.246
Mof_C 	C 	0.86003	0.90557	0.12136	0.071
Mof_C 	C 	0.81983	0.85907	0.1301	-0.148
Mof_H 	H 	0.82013	0.82617	0.12987	0.085
Mof_C 	C 	0.77823	0.86397	0.13935	0.073
Mof_C 	C 	0.69773	0.82437	0.15522	-0.011
Mof_C 	C 	0.65203	0.77117	0.16384	0.256
Mof_C 	C 	0.61733	0.73567	0.14658	-0.607
Mof_H 	H 	0.64003	0.72857	0.13787	0.207
Mof_H 	H 	0.58813	0.70167	0.15147	0.204
Mof_H 	H 	0.60233	0.75457	0.13947	0.222
Mof_C 	C 	0.67533	0.74347	0.17588	-0.607
Mof_H 	H 	0.69973	0.73707	0.16797	0.208
Mof_H 	H 	0.69503	0.76627	0.18687	0.207
Mof_H 	H 	0.64613	0.70907	0.18057	0.199
Mof_C 	C 	0.61483	0.78147	0.17616	-0.02
Mof_C 	C 	0.54533	0.74657	0.1982	0.075
Mof_C 	C 	0.50703	0.70367	0.20881	-0.154
Mof_H 	H 	0.50613	0.67017	0.20897	0.077
Mof_C 	C 	0.47053	0.71077	0.21912	0.064
Mof_C 	C 	0.45313	0.57607	0.28337	-0.069
Mof_H 	H 	0.46613	0.56777	0.27207	0.047
Mof_C 	C 	0.47373	0.57607	0.30087	0.045
Mof_C 	C 	0.45853	0.59387	0.31857	0.064
Mof_C 	C 	0.42493	0.61397	0.31807	-0.092
Mof_H 	H 	0.42033	0.63187	0.32877	0.085
Mof_N 	N 	0.50583	0.55237	0.30147	-0.101
Mof_N 	N 	0.47693	0.58847	0.33577	-0.106
Mof_N 	N 	0.59433	0.48377	0.34107	-0.114
Mof_N 	N 	0.55983	0.51417	0.37367	-0.112
Mof_C 	C 	0.56523	0.52817	0.31847	0.12
Mof_C 	C 	0.62013	0.57677	0.31147	-0.463
Mof_H 	H 	0.64713	0.56557	0.31077	0.166
Mof_H 	H 	0.61533	0.58807	0.29867	0.164
Mof_H 	H 	0.63183	0.60657	0.32057	0.149
Mof_C 	C 	0.54303	0.48017	0.30507	0.192
Mof_H 	H 	0.56493	0.46297	0.30607	-0.03
Mof_H 	H 	0.50593	0.45447	0.30877	-0.162
Mof_H 	H 	0.54383	0.49207	0.29177	-0.021
Mof_C 	C 	0.51833	0.57207	0.33527	0.031
Mof_C 	C 	0.49373	0.55557	0.37157	0.307
Mof_H 	H 	0.46223	0.52027	0.36927	-0.146
Mof_H 	H 	0.50993	0.55547	0.38397	-0.049
Mof_H 	H 	0.48293	0.58287	0.37167	-0.046
Mof_C 	C 	0.53263	0.56757	0.35627	-0.011
Mof_C 	C 	0.60803	0.42857	0.39387	0.045
Mof_C 	C 	0.62893	0.41717	0.37777	0.005
Mof_C 	C 	0.62613	0.43667	0.35987	-0.092
Mof_H 	H 	0.64023	0.42877	0.34877	0.013
Mof_C 	C 	0.60313	0.46737	0.35857	0.057
Mof_C 	C 	0.58183	0.48087	0.37587	0.06
Mof_C 	C 	0.56233	0.53367	0.35517	0.038
Mof_C 	C 	0.57253	0.51317	0.33987	0.009
Mof_C 	C 	0.58513	0.46077	0.39357	-0.099
Mof_H 	H 	0.57233	0.46887	0.40497	0.061
Mof_C 	C 	0.52733	0.55207	0.31787	0.018
Mof_C 	C 	0.58053	0.62447	0.36137	-0.366
Mof_H 	H 	0.61273	0.63037	0.35437	0.122
Mof_H 	H 	0.57153	0.65177	0.35757	0.136
Mof_H 	H 	0.58723	0.62657	0.37527	0.133
Mof_N 	N 	0.7534	0.3238	0.44486	-0.244
Mof_N 	N 	0.8468	0.2494	0.4809	-0.115
Mof_N 	N 	0.9253	0.1726	0.52022	-0.12
Mof_N 	N 	0.9912	0.0858	0.56444	-0.239
Mof_C 	C 	0.7611	0.2878	0.45469	0.07
Mof_C 	C 	0.8076	0.2941	0.46343	-0.15
Mof_H 	H 	0.8405	0.3273	0.4632	0.086
Mof_C 	C 	0.8027	0.2476	0.47268	0.072
Mof_C 	C 	0.8423	0.2067	0.48855	-0.017
Mof_C 	C 	0.8955	0.2142	0.49717	0.268
Mof_C 	C 	0.931	0.215	0.47991	-0.626
Mof_H 	H 	0.9381	0.2448	0.4712	0.216
Mof_H 	H 	0.965	0.2198	0.4848	0.217
Mof_H 	H 	0.9121	0.1811	0.4728	0.23
Mof_C 	C 	0.9232	0.2652	0.50921	-0.624
Mof_H 	H 	0.9296	0.296	0.5013	0.216
Mof_H 	H 	0.9004	0.2621	0.5202	0.212
Mof_H 	H 	0.9576	0.2704	0.5139	0.21
Mof_C 	C 	0.8852	0.1667	0.50949	-0.024
Mof_C 	C 	0.9201	0.1321	0.53153	0.078
Mof_C 	C 	0.963	0.1367	0.54214	-0.156
Mof_H 	H 	0.9965	0.1693	0.5423	0.086
Mof_C 	C 	0.9559	0.0931	0.55245	0.069
Mof_C 	C 	0.0906	0.2104	0.6167	-0.066
Mof_H 	H 	0.0989	0.2317	0.6054	0.044
Mof_C 	C 	0.0906	0.231	0.6342	0.04
Mof_C 	C 	0.0728	0.198	0.6519	0.064
Mof_C 	C 	0.0527	0.1443	0.6514	-0.1
Mof_H 	H 	0.0348	0.1218	0.6621	0.081
Mof_N 	N 	0.1143	0.2868	0.6348	-0.102
Mof_N 	N 	0.0782	0.2218	0.6691	-0.109
Mof_N 	N 	0.1829	0.4439	0.6744	-0.115
Mof_N 	N 	0.1525	0.379	0.707	-0.112
Mof_C 	C 	0.1385	0.3704	0.6518	0.117
Mof_C 	C 	0.0899	0.3767	0.6448	-0.454
Mof_H 	H 	0.1011	0.4149	0.6441	0.162
Mof_H 	H 	0.0786	0.3606	0.632	0.157
Mof_H 	H 	0.0601	0.3586	0.6539	0.143
Mof_C 	C 	0.1865	0.3962	0.6384	0.192
Mof_H 	H 	0.2037	0.4353	0.6394	-0.031
Mof_H 	H 	0.2122	0.3848	0.6421	-0.162
Mof_H 	H 	0.1746	0.3851	0.6251	-0.021
Mof_C 	C 	0.0946	0.2796	0.6686	0.03
Mof_C 	C 	0.1111	0.2715	0.7049	0.304
Mof_H 	H 	0.1464	0.2753	0.7026	-0.145
Mof_H 	H 	0.1112	0.2878	0.7173	-0.05
Mof_H 	H 	0.0838	0.2334	0.705	-0.049
Mof_C 	C 	0.0991	0.2984	0.6896	-0.014
Mof_C 	C 	0.2381	0.5128	0.7272	0.042
Mof_C 	C 	0.2495	0.5451	0.7111	0.007
Mof_C 	C 	0.23	0.5228	0.6932	-0.094
Mof_H 	H 	0.2379	0.5448	0.6821	0.013
Mof_C 	C 	0.1993	0.4691	0.6919	0.058
Mof_C 	C 	0.1858	0.4343	0.7092	0.058
Mof_C 	C 	0.133	0.362	0.6885	0.038
Mof_C 	C 	0.1535	0.3927	0.6732	0.009
Mof_C 	C 	0.2059	0.4577	0.7269	-0.096
Mof_H 	H 	0.1978	0.4368	0.7383	0.059
Mof_C 	C 	0.1146	0.3086	0.6512	0.017
Mof_C 	C 	0.0422	0.2894	0.6947	-0.354
Mof_H 	H 	0.0363	0.3157	0.6877	0.115
Mof_H 	H 	0.0149	0.2531	0.6909	0.126
Mof_H 	H 	0.0401	0.294	0.7086	0.124
Mof_N 	N 	0.42007	0.65713	0.77819	-0.244
Mof_N 	N 	0.51347	0.58273	0.81423	-0.117
Mof_N 	N 	0.59197	0.50593	0.85355	-0.123
Mof_N 	N 	0.65787	0.41913	0.89777	-0.246
Mof_C 	C 	0.42777	0.62113	0.78802	0.07
Mof_C 	C 	0.47427	0.62743	0.79676	-0.15
Mof_H 	H 	0.50717	0.66063	0.79653	0.084
Mof_C 	C 	0.46937	0.58093	0.80601	0.072
Mof_C 	C 	0.50897	0.54003	0.82188	-0.012
Mof_C 	C 	0.56217	0.54753	0.8305	0.256
Mof_C 	C 	0.59767	0.54833	0.81324	-0.607
Mof_H 	H 	0.60477	0.57813	0.80453	0.207
Mof_H 	H 	0.63167	0.55313	0.81813	0.204
Mof_H 	H 	0.57877	0.51443	0.80613	0.222
Mof_C 	C 	0.58987	0.59853	0.84254	-0.605
Mof_H 	H 	0.59627	0.62933	0.83463	0.207
Mof_H 	H 	0.56707	0.59543	0.85353	0.205
Mof_H 	H 	0.62427	0.60373	0.84723	0.198
Mof_C 	C 	0.55187	0.50003	0.84282	-0.02
Mof_C 	C 	0.58677	0.46543	0.86486	0.074
Mof_C 	C 	0.62967	0.47003	0.87547	-0.154
Mof_H 	H 	0.66317	0.50263	0.87563	0.077
Mof_C 	C 	0.62257	0.42643	0.88578	0.064
Mof_C 	C 	0.75727	0.54373	0.95003	-0.068
Mof_H 	H 	0.76557	0.56503	0.93873	0.047
Mof_C 	C 	0.75727	0.56433	0.96753	0.044
Mof_C 	C 	0.73947	0.53133	0.98523	0.065
Mof_C 	C 	0.71937	0.47763	0.98473	-0.095
Mof_H 	H 	0.70147	0.45513	0.99543	0.086
Mof_N 	N 	0.78097	0.62013	0.96813	-0.101
Mof_N 	N 	0.74487	0.55513	0.00243	-0.107
Mof_N 	N 	0.84957	0.77723	0.00773	-0.114
Mof_N 	N 	0.81917	0.71233	0.04033	-0.112
Mof_C 	C 	0.80517	0.70373	0.98513	0.12
Mof_C 	C 	0.75657	0.71003	0.97813	-0.463
Mof_H 	H 	0.76777	0.74823	0.97743	0.166
Mof_H 	H 	0.74527	0.69393	0.96533	0.164
Mof_H 	H 	0.72677	0.69193	0.98723	0.149
Mof_C 	C 	0.85317	0.72953	0.97173	0.192
Mof_H 	H 	0.87037	0.76863	0.97273	-0.03
Mof_H 	H 	0.87887	0.71813	0.97543	-0.164
Mof_H 	H 	0.84127	0.71843	0.95843	-0.02
Mof_C 	C 	0.76127	0.61293	0.00193	0.031
Mof_C 	C 	0.77777	0.60483	0.03823	0.308
Mof_H 	H 	0.81307	0.60863	0.03593	-0.147
Mof_H 	H 	0.77787	0.62113	0.05063	-0.049
Mof_H 	H 	0.75047	0.56673	0.03833	-0.047
Mof_C 	C 	0.76577	0.63173	0.02293	-0.012
Mof_C 	C 	0.90477	0.84613	0.06053	0.043
Mof_C 	C 	0.91617	0.87843	0.04443	0.005
Mof_C 	C 	0.89667	0.85613	0.02653	-0.091
Mof_H 	H 	0.90457	0.87813	0.01543	0.017
Mof_C 	C 	0.86597	0.80243	0.02523	0.056
Mof_C 	C 	0.85247	0.76763	0.04253	0.059
Mof_C 	C 	0.79967	0.69533	0.02183	0.038
Mof_C 	C 	0.82017	0.72603	0.00653	0.008
Mof_C 	C 	0.87257	0.79103	0.06023	-0.099
Mof_H 	H 	0.86447	0.77013	0.07163	0.062
Mof_C 	C 	0.78127	0.64193	0.98453	0.017
Mof_C 	C 	0.70887	0.62273	0.02803	-0.365
Mof_H 	H 	0.70297	0.64903	0.02103	0.121
Mof_H 	H 	0.68157	0.58643	0.02423	0.135
Mof_H 	H 	0.70677	0.62733	0.04193	0.132
Mof_N 	N 	0.08673	0.99047	0.11153	-0.237
Mof_N 	N 	0.18013	0.91607	0.14757	-0.116
Mof_N 	N 	0.25863	0.83927	0.18689	-0.123
Mof_N 	N 	0.32453	0.75247	0.23111	-0.246
Mof_C 	C 	0.09443	0.95447	0.12136	0.074
Mof_C 	C 	0.14093	0.96077	0.1301	-0.151
Mof_H 	H 	0.17383	0.99397	0.12987	0.091
Mof_C 	C 	0.13603	0.91427	0.13935	0.074
Mof_C 	C 	0.17563	0.87337	0.15522	-0.013
Mof_C 	C 	0.22883	0.88087	0.16384	0.258
Mof_C 	C 	0.26433	0.88167	0.14658	-0.609
Mof_H 	H 	0.27143	0.91147	0.13787	0.208
Mof_H 	H 	0.29833	0.88647	0.15147	0.203
Mof_H 	H 	0.24543	0.84777	0.13947	0.223
Mof_C 	C 	0.25653	0.93187	0.17588	-0.612
Mof_H 	H 	0.26293	0.96267	0.16797	0.211
Mof_H 	H 	0.23373	0.92877	0.18687	0.209
Mof_H 	H 	0.29093	0.93707	0.18057	0.201
Mof_C 	C 	0.21853	0.83337	0.17616	-0.021
Mof_C 	C 	0.25343	0.79877	0.1982	0.074
Mof_C 	C 	0.29633	0.80337	0.20881	-0.154
Mof_H 	H 	0.32983	0.83597	0.20897	0.077
Mof_C 	C 	0.28923	0.75977	0.21912	0.064
Mof_C 	C 	0.42393	0.87707	0.28337	-0.068
Mof_H 	H 	0.43223	0.89837	0.27207	0.049
Mof_C 	C 	0.42393	0.89767	0.30087	0.046
Mof_C 	C 	0.40613	0.86467	0.31857	0.064
Mof_C 	C 	0.38603	0.81097	0.31807	-0.094
Mof_H 	H 	0.36813	0.78847	0.32877	0.086
Mof_N 	N 	0.44763	0.95347	0.30147	-0.101
Mof_N 	N 	0.41153	0.88847	0.33577	-0.106
Mof_N 	N 	0.51623	0.11057	0.34107	-0.116
Mof_N 	N 	0.48583	0.04567	0.37367	-0.114
Mof_C 	C 	0.47183	0.03707	0.31847	0.092
Mof_C 	C 	0.42323	0.04337	0.31147	-0.438
Mof_H 	H 	0.43443	0.08157	0.31077	0.158
Mof_H 	H 	0.41193	0.02727	0.29867	0.151
Mof_H 	H 	0.39343	0.02527	0.32057	0.136
Mof_C 	C 	0.51983	0.06287	0.30507	0.196
Mof_H 	H 	0.53703	0.10197	0.30607	-0.031
Mof_H 	H 	0.54553	0.05147	0.30877	-0.162
Mof_H 	H 	0.50793	0.05177	0.29177	-0.026
Mof_C 	C 	0.42793	0.94627	0.33527	0.024
Mof_C 	C 	0.44443	0.93817	0.37157	0.32
Mof_H 	H 	0.47973	0.94197	0.36927	-0.153
Mof_H 	H 	0.44453	0.95447	0.38397	-0.047
Mof_H 	H 	0.41713	0.90007	0.37167	-0.05
Mof_C 	C 	0.43243	0.96507	0.35627	0.012
Mof_C 	C 	0.57143	0.17947	0.39387	0.044
Mof_C 	C 	0.58283	0.21177	0.37777	0.006
Mof_C 	C 	0.56333	0.18947	0.35987	-0.093
Mof_H 	H 	0.57123	0.21147	0.34877	0.013
Mof_C 	C 	0.53263	0.13577	0.35857	0.058
Mof_C 	C 	0.51913	0.10097	0.37587	0.058
Mof_C 	C 	0.46633	0.02867	0.35517	0.012
Mof_C 	C 	0.48683	0.05937	0.33987	0.02
Mof_C 	C 	0.53923	0.12437	0.39357	-0.098
Mof_H 	H 	0.53113	0.10347	0.40497	0.059
Mof_C 	C 	0.44793	0.97527	0.31787	0.043
Mof_C 	C 	0.37553	0.95607	0.36137	-0.388
Mof_H 	H 	0.36963	0.98237	0.35437	0.138
Mof_H 	H 	0.34823	0.91977	0.35757	0.143
Mof_H 	H 	0.37343	0.96067	0.37527	0.144
Mof_Zn	Zn	0.66667	0.33333	0.41979	1.145
Mof_Zn	Zn	0.33333	0.66667	0.75312	1.145
Mof_Zn	Zn	2.0315e-33	0	0.08646	1.131
Mof_Zn	Zn	0.59791	0.40209	0.43779	1.19
Mof_Cl	Cl	0.55857	0.44143	0.44741	-0.612
Mof_Zn	Zn	0.26458	0.73542	0.77112	1.19
Mof_Cl	Cl	0.22524	0.77476	0.78074	-0.612
Mof_Zn	Zn	0.93124	0.06876	0.10446	1.191
Mof_Cl	Cl	0.8919	0.1081	0.11408	-0.611
Mof_Zn	Zn	0.80418	0.40209	0.43779	1.19
Mof_Cl	Cl	0.88286	0.44143	0.44741	-0.606
Mof_Zn	Zn	0.47085	0.73542	0.77112	1.19
Mof_Cl	Cl	0.54953	0.77476	0.78074	-0.608
Mof_Zn	Zn	0.13751	0.06876	0.10446	1.186
Mof_Cl	Cl	0.21619	0.1081	0.11408	-0.623
Mof_Zn	Zn	0.59791	0.19582	0.43779	1.19
Mof_Cl	Cl	0.55857	0.11714	0.44741	-0.618
Mof_Zn	Zn	0.26458	0.52915	0.77112	1.19
Mof_Cl	Cl	0.22524	0.45047	0.78074	-0.616
Mof_Zn	Zn	0.93124	0.86249	0.10446	1.194
Mof_Cl	Cl	0.8919	0.78381	0.11408	-0.601
Mof_Zn	Zn	0.06791	0.13582	0.57208	1.183
Mof_Cl	Cl	0.10767	0.21534	0.56114	-0.636
Mof_N 	N 	0.27196	0.54391	0.74248	-0.248
Mof_N 	N 	0.29775	0.5955	0.73556	-0.201
Mof_N 	N 	0.29845	0.5969	0.717	-0.237
Mof_N 	N 	0.05885	0.1177	0.6008	-0.241
Mof_N 	N 	0.03505	0.0701	0.60769	-0.202
Mof_N 	N 	0.0352	0.0704	0.62649	-0.224
Mof_C 	C 	0.061	0.122	0.6323	0.08
Mof_C 	C 	0.07765	0.1553	0.6156	0.033
Mof_Zn	Zn	0.73458	0.46915	0.90541	1.187
Mof_Cl	Cl	0.77434	0.54867	0.89447	-0.627
Mof_N 	N 	0.93862	0.87724	0.07581	-0.245
Mof_N 	N 	0.96442	0.92883	0.06889	-0.19
Mof_N 	N 	0.96512	0.93023	0.05033	-0.227
Mof_N 	N 	0.72552	0.45103	0.93413	-0.238
Mof_N 	N 	0.70172	0.40343	0.94102	-0.194
Mof_N 	N 	0.70187	0.40373	0.95982	-0.218
Mof_C 	C 	0.72767	0.45533	0.96563	0.084
Mof_C 	C 	0.74432	0.48863	0.94893	0.036
Mof_Zn	Zn	0.40124	0.80249	0.23875	1.187
Mof_Cl	Cl	0.441	0.88201	0.22781	-0.625
Mof_N 	N 	0.60529	0.21058	0.40915	-0.248
Mof_N 	N 	0.63108	0.26217	0.40223	-0.201
Mof_N 	N 	0.63178	0.26357	0.38367	-0.237
Mof_N 	N 	0.39218	0.78437	0.26747	-0.238
Mof_N 	N 	0.36838	0.73677	0.27436	-0.194
Mof_N 	N 	0.36853	0.73707	0.29316	-0.218
Mof_C 	C 	0.39433	0.78867	0.29897	0.084
Mof_C 	C 	0.41098	0.82197	0.28227	0.037
Mof_Zn	Zn	0.06791	0.93209	0.57208	1.187
Mof_Cl	Cl	0.10767	0.89233	0.56114	-0.627
Mof_N 	N 	0.27196	0.72804	0.74248	-0.248
Mof_N 	N 	0.29775	0.70225	0.73556	-0.201
Mof_N 	N 	0.29845	0.70155	0.717	-0.237
Mof_N 	N 	0.05885	0.94115	0.6008	-0.237
Mof_N 	N 	0.03505	0.96495	0.60769	-0.192
Mof_N 	N 	0.0352	0.9648	0.62649	-0.215
Mof_C 	C 	0.061	0.939	0.6323	0.084
Mof_C 	C 	0.07765	0.92235	0.6156	0.036
Mof_Zn	Zn	0.73458	0.26542	0.90541	1.187
Mof_Cl	Cl	0.77434	0.22566	0.89447	-0.628
Mof_N 	N 	0.93862	0.06138	0.07581	-0.247
Mof_N 	N 	0.96442	0.03558	0.06889	-0.199
Mof_N 	N 	0.96512	0.03488	0.05033	-0.234
Mof_N 	N 	0.72552	0.27448	0.93413	-0.238
Mof_N 	N 	0.70172	0.29828	0.94102	-0.194
Mof_N 	N 	0.70187	0.29813	0.95982	-0.218
Mof_C 	C 	0.72767	0.27233	0.96563	0.084
Mof_C 	C 	0.74432	0.25568	0.94893	0.036
Mof_Zn	Zn	0.40124	0.59876	0.23875	1.187
Mof_Cl	Cl	0.441	0.559	0.22781	-0.628
Mof_N 	N 	0.60529	0.39471	0.40915	-0.248
Mof_N 	N 	0.63108	0.36892	0.40223	-0.201
Mof_N 	N 	0.63178	0.36822	0.38367	-0.237
Mof_N 	N 	0.39218	0.60782	0.26747	-0.238
Mof_N 	N 	0.36838	0.63162	0.27436	-0.194
Mof_N 	N 	0.36853	0.63147	0.29316	-0.218
Mof_C 	C 	0.39433	0.60567	0.29897	0.084
Mof_C 	C 	0.41098	0.58902	0.28227	0.036
Mof_Zn	Zn	0.86418	0.93209	0.57208	1.191
Mof_Cl	Cl	0.78466	0.89233	0.56114	-0.621
Mof_N 	N 	0.45609	0.72804	0.74248	-0.248
Mof_N 	N 	0.4045	0.70225	0.73556	-0.201
Mof_N 	N 	0.4031	0.70155	0.717	-0.237
Mof_N 	N 	0.8823	0.94115	0.6008	-0.235
Mof_N 	N 	0.9299	0.96495	0.60769	-0.184
Mof_N 	N 	0.9296	0.9648	0.62649	-0.208
Mof_C 	C 	0.878	0.939	0.6323	0.088
Mof_C 	C 	0.8447	0.92235	0.6156	0.038
Mof_Zn	Zn	0.53085	0.26542	0.90541	1.187
Mof_Cl	Cl	0.45133	0.22566	0.89447	-0.629
Mof_N 	N 	0.12276	0.06138	0.07581	-0.251
Mof_N 	N 	0.07117	0.03558	0.06889	-0.208
Mof_N 	N 	0.06977	0.03488	0.05033	-0.243
Mof_N 	N 	0.54897	0.27448	0.93413	-0.238
Mof_N 	N 	0.59657	0.29828	0.94102	-0.194
Mof_N 	N 	0.59627	0.29813	0.95982	-0.218
Mof_C 	C 	0.54467	0.27233	0.96563	0.083
Mof_C 	C 	0.51137	0.25568	0.94893	0.035
Mof_Zn	Zn	0.19751	0.59876	0.23875	1.187
Mof_Cl	Cl	0.11799	0.559	0.22781	-0.631
Mof_N 	N 	0.78942	0.39471	0.40915	-0.248
Mof_N 	N 	0.73783	0.36892	0.40223	-0.201
Mof_N 	N 	0.73643	0.36822	0.38367	-0.237
Mof_N 	N 	0.21563	0.60782	0.26747	-0.238
Mof_N 	N 	0.26323	0.63162	0.27436	-0.194
Mof_N 	N 	0.26293	0.63147	0.29316	-0.218
Mof_C 	C 	0.21133	0.60567	0.29897	0.084
Mof_C 	C 	0.17803	0.58902	0.28227	0.034
Mof_Zn	Zn	-0	-3.25039e-32	0.58946	1.132
Mof_Zn	Zn	-0	-3.25039e-32	0.6433	1.212
Mof_Cl	Cl	1.6252e-32	0	0.6715	-0.46
Mof_Zn	Zn	0.66667	0.33333	0.92279	1.146
Mof_Zn	Zn	0.66667	0.33333	0.97663	1.224
Mof_Cl	Cl	0.66667	0.33333	0.00483	-0.413
Mof_Zn	Zn	0.33333	0.66667	0.25613	1.146
Mof_Zn	Zn	0.33333	0.66667	0.30997	1.224
Mof_Cl	Cl	0.33333	0.66667	0.33817	-0.413
Mof_N 	N 	0.5951	0.29755	0.43858	-0.198
Mof_N 	N 	0.0714	0.0357	0.57106	-0.207
Mof_N 	N 	0.26177	0.63088	0.77191	-0.198
Mof_N 	N 	0.73807	0.36903	0.90439	-0.199
Mof_N 	N 	0.92843	0.96422	0.10525	-0.187
Mof_N 	N 	0.40473	0.70237	0.23773	-0.199
Mof_N 	N 	0.70245	0.4049	0.43858	-0.198
Mof_N 	N 	0.9643	0.9286	0.57106	-0.189
Mof_N 	N 	0.36912	0.73823	0.77191	-0.198
Mof_N 	N 	0.63097	0.26193	0.90439	-0.2
Mof_N 	N 	0.03578	0.07157	0.10525	-0.206
Mof_N 	N 	0.29763	0.59527	0.23773	-0.2
Mof_N 	N 	0.70245	0.29755	0.43858	-0.198
Mof_N 	N 	0.9643	0.0357	0.57106	-0.197
Mof_N 	N 	0.36912	0.63088	0.77191	-0.198
Mof_N 	N 	0.63097	0.36903	0.90439	-0.2
Mof_N 	N 	0.03578	0.96422	0.10525	-0.196
Mof_N 	N 	0.29763	0.70237	0.23773	-0.2
Mof_Zn	Zn	0.33333	0.66667	0.69915	1.102
Mof_Zn	Zn	-0	-2.0315e-33	0.03248	1.088
Mof_Zn	Zn	0.66667	0.33333	0.36582	1.102
Mof_O 	O 	0.9681	0.0319	0.6629	-0.189
Mof_O 	O 	0.63477	0.36523	0.99623	-0.204
Mof_O 	O 	0.30143	0.69857	0.32957	-0.204
Mof_O 	O 	0.0638	0.0319	0.6629	-0.211
Mof_O 	O 	0.73047	0.36523	0.99623	-0.203
Mof_O 	O 	0.39713	0.69857	0.32957	-0.204
Mof_O 	O 	0.9681	0.9362	0.6629	-0.171
Mof_O 	O 	0.63477	0.26953	0.99623	-0.205
Mof_O 	O 	0.30143	0.60287	0.32957	-0.205
_end
