data_functionalizedCrystal
_audit_creation_method	'EQeq! by Chris Wilmer'
_symmetry_space_group_name_H-M	'P1'
_symmetry_Int_Tables_number	1
_symmetry_cell_setting	triclinic
loop_
_symmetry_equiv_pos_as_xyz
  x,y,z
_cell_length_a	9.721
_cell_length_b	10.9804
_cell_length_c	11.479
_cell_angle_alpha	97.966
_cell_angle_beta	96.212
_cell_angle_gamma	98.244
loop_
_atom_site_label
_atom_site_type_symbol
_atom_site_fract_x
_atom_site_fract_y
_atom_site_fract_z
_atom_site_charge
Mof_Co	Co	0.40233	0.11669	0.88896	1.173
Mof_O 	O 	0.5175	0.9874	0.838	-0.489
Mof_O 	O 	0.5659	0.8333	0.9328	-0.476
Mof_O 	O 	0.274	0.2594	0.8616	-0.396
Mof_O 	O 	0.3158	0.1382	0.7091	-0.383
Mof_C 	C 	0.5362	0.8781	0.8413	0.483
Mof_C 	C 	0.5255	0.796	0.7241	-0.311
Mof_H 	H 	0.5177	0.8321	0.6556	0.147
Mof_C 	C 	0.5265	0.6778	0.7134	0.086
Mof_H 	H 	0.5372	0.6451	0.7837	0.011
Mof_C 	C 	0.5129	0.5881	0.6027	-0.02
Mof_C 	C 	0.5053	0.6243	0.4918	-0.043
Mof_H 	H 	0.509	0.7082	0.4854	0.047
Mof_C 	C 	0.5076	0.4626	0.6096	-0.049
Mof_H 	H 	0.5128	0.4365	0.6834	0.052
Mof_C 	C 	0.2607	0.226	0.7529	0.328
Mof_C 	C 	0.195	0.324	0.698	-0.096
Mof_H 	H 	0.2051	0.4043	0.7403	-0.122
Mof_C 	C 	0.12	0.2934	0.6002	0.087
Mof_H 	H 	0.1021	0.2127	0.5583	0.096
Mof_C 	C 	0.0538	0.3919	0.5421	-0.145
Mof_C 	C 	0.9431	0.3328	0.4569	-0.359
Mof_H 	H 	0.9154	0.247	0.4489	0.103
Mof_C 	C 	0.874	0.4017	0.3837	-0.351
Mof_H 	H 	0.7999	0.3622	0.3267	0.107
Mof_C 	C 	0.9155	0.5298	0.3957	-0.126
Mof_C 	C 	0.0262	0.589	0.4809	0.158
Mof_H 	H 	0.0539	0.6747	0.489	0.195
Mof_C 	C 	0.0953	0.52	0.5542	0.142
Mof_H 	H 	0.1694	0.5596	0.6112	0.196
Mof_C 	C 	0.8421	0.6035	0.3211	0.049
Mof_H 	H 	0.8016	0.5645	0.2455	0.153
Mof_C 	C 	0.828	0.7184	0.344	-0.024
Mof_H 	H 	0.8649	0.7627	0.418	-0.103
Mof_N 	N 	0.5789	0.2579	0.8794	-0.239
Mof_C 	C 	0.6651	0.2486	0.7972	0.122
Mof_H 	H 	0.6537	0.1746	0.7442	-0.014
Mof_C 	C 	0.7692	0.3421	0.7868	-0.218
Mof_H 	H 	0.826	0.331	0.7273	0.098
Mof_C 	C 	0.7913	0.4537	0.8643	0.162
Mof_C 	C 	0.7006	0.4633	0.948	-0.226
Mof_H 	H 	0.7084	0.5365	0.0015	0.12
Mof_C 	C 	0.5986	0.3645	0.9522	0.123
Mof_H 	H 	0.5395	0.3733	0.0103	-0.01
Mof_C 	C 	0.9054	0.5587	0.8555	-0.18
Mof_H 	H 	0.9884	0.5501	0.9067	0.079
Mof_H 	H 	0.9278	0.5487	0.7748	0.088
Mof_C 	C 	0.8778	0.6809	0.8848	-0.166
Mof_H 	H 	0.85	0.6896	0.9638	0.088
Mof_H 	H 	0.7985	0.6915	0.8304	0.086
Mof_N 	N 	0.2239	0.976	0.8894	-0.24
Mof_C 	C 	0.9956	0.7845	0.8824	0.133
Mof_C 	C 	0.0686	0.7998	0.7856	-0.167
Mof_H 	H 	0.0375	0.7485	0.7133	0.111
Mof_C 	C 	0.1856	0.8895	0.7954	0.08
Mof_H 	H 	0.2395	0.889	0.7332	-0.005
Mof_C 	C 	0.1718	0.9537	0.99	0.059
Mof_H 	H 	0.2103	0.004	0.0613	0.006
Mof_C 	C 	0.0622	0.8578	0.9899	-0.179
Mof_H 	H 	0.0322	0.8416	0.0612	0.085
Mof_C 	C 	0.9821	0.8768	0.8095	-0.064
Mof_H 	H 	0.8968	0.8801	0.7657	0.05
Mof_C 	C 	0.1013	0.9682	0.8137	0.023
Mof_H 	H 	0.0952	0.0283	0.7645	0.011
Mof_C 	C 	0.2149	0.8972	0.9561	0.037
Mof_H 	H 	0.2935	0.901	0.0112	-0.012
Mof_C 	C 	0.1103	0.8018	0.9551	0.013
Mof_H 	H 	0.1232	0.7441	0.0058	0.026
Mof_Co	Co	0.59767	0.88331	0.11104	1.173
Mof_O 	O 	0.4825	0.0126	0.162	-0.489
Mof_O 	O 	0.4341	0.1667	0.0672	-0.476
Mof_O 	O 	0.726	0.7406	0.1384	-0.396
Mof_O 	O 	0.6842	0.8618	0.2909	-0.383
Mof_C 	C 	0.4638	0.1219	0.1587	0.483
Mof_C 	C 	0.4745	0.204	0.2759	-0.311
Mof_H 	H 	0.4823	0.1679	0.3444	0.147
Mof_C 	C 	0.4735	0.3222	0.2866	0.086
Mof_H 	H 	0.4628	0.3549	0.2163	0.011
Mof_C 	C 	0.4871	0.4119	0.3973	-0.02
Mof_C 	C 	0.4947	0.3757	0.5082	-0.043
Mof_H 	H 	0.491	0.2918	0.5146	0.047
Mof_C 	C 	0.4924	0.5374	0.3904	-0.049
Mof_H 	H 	0.4872	0.5635	0.3166	0.052
Mof_C 	C 	0.7393	0.774	0.2471	0.328
Mof_C 	C 	0.805	0.676	0.302	-0.096
Mof_H 	H 	0.7949	0.5957	0.2597	-0.122
Mof_C 	C 	0.88	0.7066	0.3998	0.087
Mof_H 	H 	0.8979	0.7873	0.4417	0.096
Mof_C 	C 	0.9462	0.6081	0.4579	-0.145
Mof_C 	C 	0.0569	0.6672	0.5431	-0.359
Mof_H 	H 	0.0846	0.753	0.5511	0.103
Mof_C 	C 	0.126	0.5983	0.6163	-0.351
Mof_H 	H 	0.2001	0.6378	0.6733	0.107
Mof_C 	C 	0.0845	0.4702	0.6043	-0.126
Mof_C 	C 	0.9738	0.411	0.5191	0.158
Mof_H 	H 	0.9461	0.3253	0.511	0.195
Mof_C 	C 	0.9047	0.48	0.4458	0.142
Mof_H 	H 	0.8306	0.4404	0.3888	0.196
Mof_C 	C 	0.1579	0.3965	0.6789	0.049
Mof_H 	H 	0.1984	0.4355	0.7545	0.153
Mof_C 	C 	0.172	0.2816	0.656	-0.024
Mof_H 	H 	0.1351	0.2373	0.582	-0.103
Mof_N 	N 	0.4211	0.7421	0.1206	-0.239
Mof_C 	C 	0.3349	0.7514	0.2028	0.122
Mof_H 	H 	0.3463	0.8254	0.2558	-0.014
Mof_C 	C 	0.2308	0.6579	0.2132	-0.218
Mof_H 	H 	0.174	0.669	0.2727	0.098
Mof_C 	C 	0.2087	0.5463	0.1357	0.162
Mof_C 	C 	0.2994	0.5367	0.052	-0.226
Mof_H 	H 	0.2916	0.4635	0.9985	0.12
Mof_C 	C 	0.4014	0.6355	0.0478	0.123
Mof_H 	H 	0.4605	0.6267	0.9897	-0.01
Mof_C 	C 	0.0946	0.4413	0.1445	-0.18
Mof_H 	H 	0.0116	0.4499	0.0933	0.079
Mof_H 	H 	0.0722	0.4513	0.2252	0.088
Mof_C 	C 	0.1222	0.3191	0.1152	-0.166
Mof_H 	H 	0.15	0.3104	0.0362	0.088
Mof_H 	H 	0.2015	0.3085	0.1696	0.086
Mof_N 	N 	0.7761	0.024	0.1106	-0.24
Mof_C 	C 	0.0044	0.2155	0.1176	0.133
Mof_C 	C 	0.9314	0.2002	0.2144	-0.167
Mof_H 	H 	0.9625	0.2515	0.2867	0.111
Mof_C 	C 	0.8144	0.1105	0.2046	0.08
Mof_H 	H 	0.7605	0.111	0.2668	-0.005
Mof_C 	C 	0.8282	0.0463	0.01	0.059
Mof_H 	H 	0.7897	0.996	0.9387	0.006
Mof_C 	C 	0.9378	0.1422	0.0101	-0.179
Mof_H 	H 	0.9678	0.1584	0.9388	0.085
Mof_C 	C 	0.0179	0.1232	0.1905	-0.064
Mof_H 	H 	0.1032	0.1199	0.2343	0.05
Mof_C 	C 	0.8987	0.0318	0.1863	0.023
Mof_H 	H 	0.9048	0.9717	0.2355	0.011
Mof_C 	C 	0.7851	0.1028	0.0439	0.037
Mof_H 	H 	0.7065	0.099	0.9888	-0.012
Mof_C 	C 	0.8897	0.1982	0.0449	0.013
Mof_H 	H 	0.8768	0.2559	0.9942	0.026
_end
