data_functionalizedCrystal
_audit_creation_method	'EQeq! by Chris Wilmer'
_symmetry_space_group_name_H-M	'P1'
_symmetry_Int_Tables_number	1
_symmetry_cell_setting	triclinic
loop_
_symmetry_equiv_pos_as_xyz
  x,y,z
_cell_length_a	18.255
_cell_length_b	8.834
_cell_length_c	20.698
_cell_angle_alpha	90
_cell_angle_beta	112.47
_cell_angle_gamma	90
loop_
_atom_site_label
_atom_site_type_symbol
_atom_site_fract_x
_atom_site_fract_y
_atom_site_fract_z
_atom_site_charge
Mof_La	La	0.97813	0.47166	0.23353	1.92
Mof_La	La	0.00138	0.97264	0.25762	2.13
Mof_O 	O 	0.0916	0.0313	0.1882	-0.468
Mof_O 	O 	0.0436	0.2427	0.2102	-0.604
Mof_O 	O 	0.0155	0.2498	0.8214	-0.63
Mof_O 	O 	0.0285	0.4489	0.8889	-0.474
Mof_O 	O 	0.8977	0.0593	0.14501	-0.558
Mof_O 	O 	0.8754	0.307	0.14591	-0.524
Mof_O 	O 	0.6251	0.4033	0.8468	-0.448
Mof_O 	O 	0.6496	0.6392	0.8256	-0.431
Mof_O 	O 	0.955	0.2083	0.29586	-0.608
Mof_O 	O 	0.8927	0.4123	0.3063	-0.492
Mof_O 	O 	0.9873	0.1047	0.61845	-0.476
Mof_O 	O 	0.0055	0.3022	0.68705	-0.629
Mof_C 	C 	0.0813	0.1706	0.1799	0.487
Mof_C 	C 	0.1148	0.2558	0.134	-0.424
Mof_H 	H 	0.1007	0.3619	0.1328	0.133
Mof_H 	H 	0.1722	0.2484	0.1539	0.143
Mof_C 	C 	0.084	0.1941	0.061	0.054
Mof_H 	H 	0.0977	0.0954	0.0548	0.002
Mof_C 	C 	0.0396	0.2689	0.006	-0.014
Mof_H 	H 	0.0273	0.3683	0.0127	0.042
Mof_C 	C 	0.006	0.2088	0.9318	-0.359
Mof_H 	H 	0.0299	0.1112	0.9311	0.129
Mof_H 	H 	0.9495	0.1929	0.9183	0.122
Mof_C 	C 	0.0186	0.3094	0.8786	0.456
Mof_C 	C 	0.8752	0.1846	0.1159	0.552
Mof_C 	C 	0.8497	0.1827	0.0377	-0.442
Mof_H 	H 	0.893	0.1409	0.027	0.152
Mof_H 	H 	0.8054	0.1133	0.0189	0.152
Mof_C 	C 	0.8257	0.3301	0.999	0.042
Mof_H 	H 	0.8452	0.4192	0.0234	0.024
Mof_C 	C 	0.7799	0.3403	0.9343	0.007
Mof_H 	H 	0.7568	0.2514	0.9114	0.018
Mof_C 	C 	0.7606	0.4824	0.8928	-0.344
Mof_H 	H 	0.786	0.4794	0.8593	0.114
Mof_H 	H 	0.7831	0.5668	0.9241	0.128
Mof_C 	C 	0.6734	0.5117	0.8537	0.39
Mof_C 	C 	0.913	0.2786	0.323	0.465
Mof_C 	C 	0.8923	0.1998	0.3788	-0.375
Mof_H 	H 	0.8928	0.0909	0.3731	0.122
Mof_H 	H 	0.8397	0.2297	0.3752	0.119
Mof_C 	C 	0.9539	0.246	0.4499	-0.042
Mof_C 	C 	0.9351	0.307	0.5003	-0.026
Mof_C 	C 	0.9954	0.3463	0.5691	-0.397
Mof_H 	H 	0.9865	0.4495	0.5803	0.127
Mof_H 	H 	0.0473	0.3424	0.5664	0.136
Mof_C 	C 	0.9954	0.2438	0.6273	0.457
Mof_C 	C 	0.914	0.2914	0.4457	0.049
Mof_C 	C 	0.9713	0.258	0.499	0.082
Mof_La	La	0.52187	0.97166	0.26647	1.912
Mof_La	La	0.49862	0.47264	0.24238	2.169
Mof_O 	O 	0.4084	0.5313	0.3118	-0.475
Mof_O 	O 	0.4564	0.7427	0.2898	-0.606
Mof_O 	O 	0.4845	0.7498	0.6786	-0.637
Mof_O 	O 	0.4715	0.9489	0.6111	-0.474
Mof_O 	O 	0.6023	0.5593	0.35499	-0.565
Mof_O 	O 	0.6246	0.807	0.35409	-0.526
Mof_O 	O 	0.8749	0.9033	0.6532	-0.431
Mof_O 	O 	0.8504	0.1392	0.6744	-0.424
Mof_O 	O 	0.545	0.7083	0.20414	-0.612
Mof_O 	O 	0.6073	0.9123	0.1937	-0.493
Mof_O 	O 	0.5127	0.6047	0.88155	-0.477
Mof_O 	O 	0.4945	0.8022	0.81295	-0.635
Mof_C 	C 	0.4187	0.6706	0.3201	0.485
Mof_C 	C 	0.3852	0.7558	0.366	-0.418
Mof_H 	H 	0.3993	0.8619	0.3672	0.131
Mof_H 	H 	0.3278	0.7484	0.3461	0.141
Mof_C 	C 	0.416	0.6941	0.439	0.043
Mof_H 	H 	0.4023	0.5954	0.4452	0.003
Mof_C 	C 	0.4604	0.7689	0.494	0.002
Mof_H 	H 	0.4727	0.8683	0.4873	0.037
Mof_C 	C 	0.494	0.7088	0.5682	-0.39
Mof_H 	H 	0.4701	0.6112	0.5689	0.136
Mof_H 	H 	0.5505	0.6929	0.5817	0.138
Mof_C 	C 	0.4814	0.8094	0.6214	0.466
Mof_C 	C 	0.6248	0.6846	0.3841	0.563
Mof_C 	C 	0.6503	0.6827	0.4623	-0.475
Mof_H 	H 	0.607	0.6409	0.473	0.16
Mof_H 	H 	0.6946	0.6133	0.4811	0.16
Mof_C 	C 	0.6743	0.8301	0.501	0.09
Mof_H 	H 	0.6548	0.9192	0.4766	0.007
Mof_C 	C 	0.7201	0.8403	0.5657	-0.035
Mof_H 	H 	0.7432	0.7514	0.5886	0.034
Mof_C 	C 	0.7394	0.9824	0.6072	-0.291
Mof_H 	H 	0.714	0.9794	0.6407	0.102
Mof_H 	H 	0.7169	0.0668	0.5759	0.111
Mof_C 	C 	0.8266	0.0117	0.6463	0.361
Mof_C 	C 	0.587	0.7786	0.177	0.466
Mof_C 	C 	0.6077	0.6998	0.1212	-0.373
Mof_H 	H 	0.6072	0.5909	0.1269	0.121
Mof_H 	H 	0.6603	0.7297	0.1248	0.118
Mof_C 	C 	0.5461	0.746	0.0501	-0.054
Mof_C 	C 	0.5649	0.807	0.9997	-0.031
Mof_C 	C 	0.5046	0.8463	0.9309	-0.393
Mof_H 	H 	0.5135	0.9495	0.9197	0.127
Mof_H 	H 	0.4527	0.8424	0.9336	0.133
Mof_C 	C 	0.5046	0.7438	0.8727	0.461
Mof_C 	C 	0.586	0.7914	0.0543	0.058
Mof_C 	C 	0.5287	0.758	0.001	0.088
Mof_La	La	0.02187	0.52834	0.76647	1.921
Mof_La	La	0.99862	0.02736	0.74238	2.131
Mof_O 	O 	0.9084	0.9687	0.8118	-0.467
Mof_O 	O 	0.9564	0.7573	0.7898	-0.603
Mof_O 	O 	0.9845	0.7502	0.1786	-0.629
Mof_O 	O 	0.9715	0.5511	0.1111	-0.473
Mof_O 	O 	0.1023	0.9407	0.85499	-0.558
Mof_O 	O 	0.1246	0.693	0.85409	-0.524
Mof_O 	O 	0.3749	0.5967	0.1532	-0.448
Mof_O 	O 	0.3504	0.3608	0.1744	-0.431
Mof_O 	O 	0.045	0.7917	0.70414	-0.608
Mof_O 	O 	0.1073	0.5877	0.6937	-0.492
Mof_O 	O 	0.0127	0.8953	0.38155	-0.476
Mof_O 	O 	0.9945	0.6978	0.31295	-0.629
Mof_C 	C 	0.9187	0.8294	0.8201	0.487
Mof_C 	C 	0.8852	0.7442	0.866	-0.424
Mof_H 	H 	0.8993	0.6381	0.8672	0.133
Mof_H 	H 	0.8278	0.7516	0.8461	0.143
Mof_C 	C 	0.916	0.8059	0.939	0.054
Mof_H 	H 	0.9023	0.9046	0.9452	0.002
Mof_C 	C 	0.9604	0.7311	0.994	-0.014
Mof_H 	H 	0.9727	0.6317	0.9873	0.042
Mof_C 	C 	0.994	0.7912	0.0682	-0.359
Mof_H 	H 	0.9701	0.8888	0.0689	0.129
Mof_H 	H 	0.0505	0.8071	0.0817	0.122
Mof_C 	C 	0.9814	0.6906	0.1214	0.456
Mof_C 	C 	0.1248	0.8154	0.8841	0.552
Mof_C 	C 	0.1503	0.8173	0.9623	-0.442
Mof_H 	H 	0.107	0.8591	0.973	0.152
Mof_H 	H 	0.1946	0.8867	0.9811	0.152
Mof_C 	C 	0.1743	0.6699	0.001	0.042
Mof_H 	H 	0.1548	0.5808	0.9766	0.024
Mof_C 	C 	0.2201	0.6597	0.0657	0.007
Mof_H 	H 	0.2432	0.7486	0.0886	0.018
Mof_C 	C 	0.2394	0.5176	0.1072	-0.344
Mof_H 	H 	0.214	0.5206	0.1407	0.114
Mof_H 	H 	0.2169	0.4332	0.0759	0.128
Mof_C 	C 	0.3266	0.4883	0.1463	0.39
Mof_C 	C 	0.087	0.7214	0.677	0.465
Mof_C 	C 	0.1077	0.8002	0.6212	-0.375
Mof_H 	H 	0.1072	0.9091	0.6269	0.122
Mof_H 	H 	0.1603	0.7703	0.6248	0.119
Mof_C 	C 	0.0461	0.754	0.5501	-0.042
Mof_C 	C 	0.0649	0.693	0.4997	-0.026
Mof_C 	C 	0.0046	0.6537	0.4309	-0.397
Mof_H 	H 	0.0135	0.5505	0.4197	0.127
Mof_H 	H 	0.9527	0.6576	0.4336	0.136
Mof_C 	C 	0.0046	0.7562	0.3727	0.457
Mof_C 	C 	0.086	0.7086	0.5543	0.049
Mof_C 	C 	0.0287	0.742	0.501	0.082
Mof_La	La	0.47813	0.02834	0.73353	1.912
Mof_La	La	0.50138	0.52736	0.75762	2.169
Mof_O 	O 	0.5916	0.4687	0.6882	-0.475
Mof_O 	O 	0.5436	0.2573	0.7102	-0.606
Mof_O 	O 	0.5155	0.2502	0.3214	-0.637
Mof_O 	O 	0.5285	0.0511	0.3889	-0.474
Mof_O 	O 	0.3977	0.4407	0.64501	-0.565
Mof_O 	O 	0.3754	0.193	0.64591	-0.526
Mof_O 	O 	0.1251	0.0967	0.3468	-0.431
Mof_O 	O 	0.1496	0.8608	0.3256	-0.424
Mof_O 	O 	0.455	0.2917	0.79586	-0.612
Mof_O 	O 	0.3927	0.0877	0.8063	-0.493
Mof_O 	O 	0.4873	0.3953	0.11845	-0.477
Mof_O 	O 	0.5055	0.1978	0.18705	-0.635
Mof_C 	C 	0.5813	0.3294	0.6799	0.485
Mof_C 	C 	0.6148	0.2442	0.634	-0.418
Mof_H 	H 	0.6007	0.1381	0.6328	0.131
Mof_H 	H 	0.6722	0.2516	0.6539	0.141
Mof_C 	C 	0.584	0.3059	0.561	0.043
Mof_H 	H 	0.5977	0.4046	0.5548	0.003
Mof_C 	C 	0.5396	0.2311	0.506	0.002
Mof_H 	H 	0.5273	0.1317	0.5127	0.037
Mof_C 	C 	0.506	0.2912	0.4318	-0.39
Mof_H 	H 	0.5299	0.3888	0.4311	0.136
Mof_H 	H 	0.4495	0.3071	0.4183	0.138
Mof_C 	C 	0.5186	0.1906	0.3786	0.466
Mof_C 	C 	0.3752	0.3154	0.6159	0.563
Mof_C 	C 	0.3497	0.3173	0.5377	-0.475
Mof_H 	H 	0.393	0.3591	0.527	0.16
Mof_H 	H 	0.3054	0.3867	0.5189	0.16
Mof_C 	C 	0.3257	0.1699	0.499	0.09
Mof_H 	H 	0.3452	0.0808	0.5234	0.007
Mof_C 	C 	0.2799	0.1597	0.4343	-0.035
Mof_H 	H 	0.2568	0.2486	0.4114	0.034
Mof_C 	C 	0.2606	0.0176	0.3928	-0.291
Mof_H 	H 	0.286	0.0206	0.3593	0.102
Mof_H 	H 	0.2831	0.9332	0.4241	0.111
Mof_C 	C 	0.1734	0.9883	0.3537	0.361
Mof_C 	C 	0.413	0.2214	0.823	0.466
Mof_C 	C 	0.3923	0.3002	0.8788	-0.373
Mof_H 	H 	0.3928	0.4091	0.8731	0.121
Mof_H 	H 	0.3397	0.2703	0.8752	0.118
Mof_C 	C 	0.4539	0.254	0.9499	-0.054
Mof_C 	C 	0.4351	0.193	0.0003	-0.031
Mof_C 	C 	0.4954	0.1537	0.0691	-0.393
Mof_H 	H 	0.4865	0.0505	0.0803	0.127
Mof_H 	H 	0.5473	0.1576	0.0664	0.133
Mof_C 	C 	0.4954	0.2562	0.1273	0.461
Mof_C 	C 	0.414	0.2086	0.9457	0.058
Mof_C 	C 	0.4713	0.242	0.999	0.088
_end
