data_functionalizedCrystal
_audit_creation_method	'EQeq! by Chris Wilmer'
_symmetry_space_group_name_H-M	'P1'
_symmetry_Int_Tables_number	1
_symmetry_cell_setting	triclinic
loop_
_symmetry_equiv_pos_as_xyz
  x,y,z
_cell_length_a	6.6754
_cell_length_b	18.3943
_cell_length_c	8.4571
_cell_angle_alpha	90
_cell_angle_beta	90
_cell_angle_gamma	90
loop_
_atom_site_label
_atom_site_type_symbol
_atom_site_fract_x
_atom_site_fract_y
_atom_site_fract_z
_atom_site_charge
Mof_O 	O 	0.1641	0.09438	0.7695	-0.376
Mof_O 	O 	0.49	0.05021	0.5698	-0.456
Mof_O 	O 	0.1755	0.31651	0.0187	-0.483
Mof_O 	O 	0.3202	0.24192	0.848	-0.491
Mof_C 	C 	0.2367	0.2563	0.9754	0.684
Mof_H 	H 	0.2185	0.2178	0.0453	-0.224
Mof_O 	O 	0.6641	0.59438	0.7695	-0.34
Mof_O 	O 	0.99	0.55021	0.5698	-0.167
Mof_O 	O 	0.6755	0.81651	0.0187	-0.454
Mof_O 	O 	0.8202	0.74192	0.848	-0.394
Mof_C 	C 	0.7367	0.7563	0.9754	0.681
Mof_H 	H 	0.7185	0.7178	0.0453	-0.181
Mof_O 	O 	0.8359	0.90562	0.2695	-0.25
Mof_O 	O 	0.51	0.94979	0.0698	-0.389
Mof_O 	O 	0.8245	0.68349	0.5187	-0.362
Mof_O 	O 	0.6798	0.75808	0.348	-0.431
Mof_C 	C 	0.7633	0.7437	0.4754	0.558
Mof_H 	H 	0.7815	0.7822	0.5453	-0.111
Mof_O 	O 	0.3359	0.40562	0.2695	-0.39
Mof_O 	O 	0.01	0.44979	0.0698	-0.651
Mof_O 	O 	0.3245	0.18349	0.5187	-0.444
Mof_O 	O 	0.1798	0.25808	0.348	-0.472
Mof_C 	C 	0.2633	0.2437	0.4754	0.563
Mof_H 	H 	0.2815	0.2822	0.5453	-0.157
Mof_O 	O 	0.8359	0.09438	0.7305	-0.269
Mof_O 	O 	0.51	0.05021	0.9302	-0.413
Mof_O 	O 	0.8245	0.31651	0.4813	-0.363
Mof_O 	O 	0.6798	0.24192	0.652	-0.43
Mof_C 	C 	0.7633	0.2563	0.5246	0.562
Mof_H 	H 	0.7815	0.2178	0.4547	-0.122
Mof_O 	O 	0.3359	0.59438	0.7305	-0.387
Mof_O 	O 	0.01	0.55021	0.9302	-0.626
Mof_O 	O 	0.3245	0.81651	0.4813	-0.435
Mof_O 	O 	0.1798	0.74192	0.652	-0.466
Mof_C 	C 	0.2633	0.7563	0.5246	0.564
Mof_H 	H 	0.2815	0.7178	0.4547	-0.161
Mof_O 	O 	0.1641	0.90562	0.2305	-0.364
Mof_O 	O 	0.49	0.94979	0.4302	-0.403
Mof_O 	O 	0.1755	0.68349	0.9813	-0.375
Mof_O 	O 	0.3202	0.75808	0.152	-0.435
Mof_C 	C 	0.2367	0.7437	0.0246	0.439
Mof_H 	H 	0.2185	0.7822	0.9547	-0.098
Mof_O 	O 	0.6641	0.40562	0.2305	-0.352
Mof_O 	O 	0.99	0.44979	0.4302	-0.167
Mof_O 	O 	0.6755	0.18349	0.9813	-0.345
Mof_O 	O 	0.8202	0.25808	0.152	-0.34
Mof_C 	C 	0.7367	0.2437	0.0246	0.419
Mof_H 	H 	0.7185	0.2822	0.9547	-0.051
Mof_Y 	Y 	0.5	0.14261	0.75	1.761
Mof_Y 	Y 	3.5626e-33	0.6426	0.75	1.505
Mof_Y 	Y 	0.5	0.8574	0.25	1.763
Mof_Y 	Y 	1.18753e-33	0.35739	0.25	1.501
Mof_C 	C 	3.5626e-33	0.1254	0.75	0.321
Mof_H 	H 	3.5626e-33	0.176	0.75	-0.117
Mof_C 	C 	0.5	0.6254	0.75	0.516
Mof_H 	H 	0.5	0.676	0.75	-0.128
Mof_C 	C 	1.18753e-33	0.8746	0.25	0.32
Mof_H 	H 	1.18753e-33	0.824	0.25	-0.119
Mof_C 	C 	0.5	0.3746	0.25	0.514
Mof_H 	H 	0.5	0.324	0.25	-0.134
Mof_C 	C 	0.5749	-3.03863e-33	0.5	0.535
Mof_H 	H 	0.7142	-3.03863e-33	0.5	-0.112
Mof_C 	C 	0.0749	0.5	0.5	0.083
Mof_H 	H 	0.2142	0.5	0.5	0.026
Mof_C 	C 	0.4251	0	-0	0.488
Mof_H 	H 	0.2858	0	-0	-0.145
Mof_C 	C 	0.9251	0.5	-0	1.041
Mof_H 	H 	0.7858	0.5	-0	-0.264
_end
