data_functionalizedCrystal
_audit_creation_method	'EQeq! by Chris Wilmer'
_symmetry_space_group_name_H-M	'P1'
_symmetry_Int_Tables_number	1
_symmetry_cell_setting	triclinic
loop_
_symmetry_equiv_pos_as_xyz
  x,y,z
_cell_length_a	9.6128
_cell_length_b	11.336
_cell_length_c	11.906
_cell_angle_alpha	114.52
_cell_angle_beta	91.19
_cell_angle_gamma	106
loop_
_atom_site_label
_atom_site_type_symbol
_atom_site_fract_x
_atom_site_fract_y
_atom_site_fract_z
_atom_site_charge
Mof_C 	C 	0.9832	0.8976	0.1076	0.531
Mof_N 	N 	0.8691	0.5557	0.939	-0.122
Mof_C 	C 	0.5715	0.2341	0.9933	0.478
Mof_C 	C 	0.8236	0.3714	0.997	-0.003
Mof_H 	H 	0.8607	0.3174	0.0226	0.036
Mof_C 	C 	0.6742	0.344	0.9721	-0.122
Mof_C 	C 	0.2569	0.8544	0.5611	-0.028
Mof_H 	H 	0.181	0.868	0.6072	0.054
Mof_C 	C 	0.6255	0.4237	0.9294	-0.017
Mof_H 	H 	0.5256	0.4086	0.9121	0.048
Mof_C 	C 	0.1075	0.8585	0.2715	0.011
Mof_H 	H 	0.1939	0.8747	0.2387	0.029
Mof_C 	C 	0.9183	0.4809	0.9833	0.046
Mof_C 	C 	0.9824	0.8615	0.2169	-0.151
Mof_C 	C 	0.4147	0.8944	0.7536	0.499
Mof_C 	C 	0.3883	0.8588	0.6166	-0.116
Mof_C 	C 	0.24	0.8299	0.4371	0.052
Mof_N 	N 	0.3468	0.8105	0.3676	-0.116
Mof_C 	C 	0.4965	0.8343	0.5436	-0.013
Mof_H 	H 	0.5854	0.8348	0.5764	0.03
Mof_C 	C 	0.8547	0.8312	0.2642	0.008
Mof_H 	H 	0.7675	0.8328	0.2303	0.038
Mof_N 	N 	0.9821	0.7999	0.4213	-0.116
Mof_C 	C 	0.1068	0.8318	0.3752	0.038
Mof_C 	C 	0.4679	0.8092	0.4204	0.017
Mof_H 	H 	0.5396	0.7899	0.3708	0.028
Mof_C 	C 	0.8598	0.7984	0.3635	0.003
Mof_H 	H 	0.7723	0.7735	0.3922	0.03
Mof_C 	C 	0.7252	0.5253	0.9125	0.031
Mof_H 	H 	0.6901	0.5758	0.8808	0.016
Mof_O 	O 	0.8723	0.9127	0.0717	-0.56
Mof_O 	O 	0.1022	0.9123	0.0631	-0.572
Mof_O 	O 	0.531	0.8823	0.7909	-0.582
Mof_O 	O 	0.6104	0.1401	0.9969	-0.588
Mof_O 	O 	0.3202	0.9319	0.8173	-0.546
Mof_O 	O 	0.4423	0.2382	0.005	-0.533
Mof_Tb	Tb	0.6933	0.9552	0.971	2.163
Mof_C 	C 	0.0168	0.1024	0.8924	0.53
Mof_N 	N 	0.1309	0.4443	0.061	-0.123
Mof_C 	C 	0.4285	0.7659	0.0067	0.478
Mof_C 	C 	0.1764	0.6286	0.003	-0.003
Mof_H 	H 	0.1393	0.6826	0.9774	0.036
Mof_C 	C 	0.3258	0.656	0.0279	-0.122
Mof_C 	C 	0.7431	0.1456	0.4389	-0.028
Mof_H 	H 	0.819	0.132	0.3928	0.054
Mof_C 	C 	0.3745	0.5763	0.0706	-0.017
Mof_H 	H 	0.4744	0.5914	0.0879	0.048
Mof_C 	C 	0.8925	0.1415	0.7285	0.011
Mof_H 	H 	0.8061	0.1253	0.7613	0.029
Mof_C 	C 	0.0817	0.5191	0.0167	0.046
Mof_C 	C 	0.0176	0.1385	0.7831	-0.151
Mof_C 	C 	0.5853	0.1056	0.2464	0.499
Mof_C 	C 	0.6117	0.1412	0.3834	-0.116
Mof_C 	C 	0.76	0.1701	0.5629	0.052
Mof_N 	N 	0.6532	0.1895	0.6324	-0.116
Mof_C 	C 	0.5035	0.1657	0.4564	-0.013
Mof_H 	H 	0.4146	0.1652	0.4236	0.03
Mof_C 	C 	0.1453	0.1688	0.7358	0.008
Mof_H 	H 	0.2325	0.1672	0.7697	0.038
Mof_N 	N 	0.0179	0.2001	0.5787	-0.116
Mof_C 	C 	0.8932	0.1682	0.6248	0.038
Mof_C 	C 	0.5321	0.1908	0.5796	0.017
Mof_H 	H 	0.4604	0.2101	0.6292	0.028
Mof_C 	C 	0.1402	0.2016	0.6365	0.003
Mof_H 	H 	0.2277	0.2265	0.6078	0.03
Mof_C 	C 	0.2748	0.4747	0.0875	0.031
Mof_H 	H 	0.3099	0.4242	0.1192	0.016
Mof_O 	O 	0.1277	0.0873	0.9283	-0.56
Mof_O 	O 	0.8978	0.0877	0.9369	-0.572
Mof_O 	O 	0.469	0.1177	0.2091	-0.582
Mof_O 	O 	0.3896	0.8599	0.0031	-0.588
Mof_O 	O 	0.6798	0.0681	0.1827	-0.546
Mof_O 	O 	0.5577	0.7618	0.995	-0.533
Mof_Tb	Tb	0.3067	0.0448	0.029	2.163
_end
