data_functionalizedCrystal
_audit_creation_method	'EQeq! by Chris Wilmer'
_symmetry_space_group_name_H-M	'P1'
_symmetry_Int_Tables_number	1
_symmetry_cell_setting	triclinic
loop_
_symmetry_equiv_pos_as_xyz
  x,y,z
_cell_length_a	9.465
_cell_length_b	12.581
_cell_length_c	18.98
_cell_angle_alpha	90
_cell_angle_beta	93.548
_cell_angle_gamma	90
loop_
_atom_site_label
_atom_site_type_symbol
_atom_site_fract_x
_atom_site_fract_y
_atom_site_fract_z
_atom_site_charge
Mof_Co	Co	0.24936	0.85299	0.24112	1.191
Mof_Co	Co	0.06249	0.82072	0.06914	1.129
Mof_N 	N 	0.2514	0.8738	0.35159	-0.233
Mof_N 	N 	0.2771	0.6875	0.3894	-0.231
Mof_N 	N 	0.3668	0.7122	0.5017	-0.219
Mof_N 	N 	0.3708	0.943	0.5622	-0.213
Mof_N 	N 	0.3018	0.9955	0.4473	-0.151
Mof_O 	O 	0.0931	0.9701	0.22607	-0.409
Mof_O 	O 	0.9822	0.9553	0.11787	-0.434
Mof_O 	O 	0.4038	0.9726	0.24161	-0.39
Mof_O 	O 	0.4339	0.9983	0.12696	-0.318
Mof_O 	O 	0.0857	0.2387	0.23875	-0.386
Mof_O 	O 	0.0625	0.1747	0.34746	-0.315
Mof_O 	O 	0.4031	0.2319	0.24545	-0.402
Mof_O 	O 	0.51	0.2213	0.35355	-0.451
Mof_C 	C 	0.2832	0.7966	0.3995	0.151
Mof_C 	C 	0.3268	0.6425	0.451	0.119
Mof_H 	H 	0.3326	0.5693	0.4575	-0.037
Mof_C 	C 	0.3337	0.8114	0.4686	-0.059
Mof_C 	C 	0.3377	0.9172	0.4948	0.129
Mof_C 	C 	0.2652	0.9706	0.3802	0.102
Mof_H 	H 	0.247	0.0275	0.3497	0.015
Mof_C 	C 	0.9931	0.9885	0.1818	0.367
Mof_C 	C 	0.8687	0.0507	0.2071	-0.067
Mof_C 	C 	0.7335	0.0163	0.1848	-0.009
Mof_H 	H 	0.7236	0.9628	0.1511	0.044
Mof_C 	C 	0.6113	0.0603	0.2118	-0.041
Mof_C 	C 	0.4716	0.008	0.1912	0.32
Mof_C 	C 	0.7619	0.1779	0.2832	-0.005
Mof_H 	H 	0.7715	0.2322	0.3164	0.044
Mof_C 	C 	0.884	0.133	0.257	-0.034
Mof_C 	C 	0.024	0.1838	0.2836	0.322
Mof_C 	C 	0.627	0.1433	0.2607	-0.062
Mof_C 	C 	0.5012	0.2017	0.2887	0.377
Mof_O 	O 	0.2616	0.8354	0.12923	-1.136
Mof_H 	H 	0.2545	0.6562	0.3502	0.16
Mof_H 	H 	0.3961	0.0143	0.5744	0.111
Mof_H 	H 	0.4054	0.8723	0.596	0.099
Mof_H 	H 	0.3073	0.7803	0.1291	0.463
Mof_H 	H 	0.3143	0.887	0.1244	0.462
Mof_Co	Co	0.25064	0.35299	0.25888	1.19
Mof_Co	Co	0.43751	0.32072	0.43086	1.13
Mof_N 	N 	0.2486	0.3738	0.14841	-0.234
Mof_N 	N 	0.2229	0.1875	0.1106	-0.231
Mof_N 	N 	0.1332	0.2122	0.9983	-0.216
Mof_N 	N 	0.1292	0.443	0.9378	-0.212
Mof_N 	N 	0.1982	0.4955	0.0527	-0.151
Mof_O 	O 	0.4069	0.4701	0.27393	-0.405
Mof_O 	O 	0.5178	0.4553	0.38213	-0.435
Mof_O 	O 	0.0962	0.4726	0.25839	-0.391
Mof_O 	O 	0.0661	0.4983	0.37304	-0.319
Mof_O 	O 	0.4143	0.7387	0.26125	-0.386
Mof_O 	O 	0.4375	0.6747	0.15254	-0.316
Mof_O 	O 	0.0969	0.7319	0.25455	-0.404
Mof_O 	O 	0.99	0.7213	0.14645	-0.45
Mof_C 	C 	0.2168	0.2966	0.1005	0.151
Mof_C 	C 	0.1732	0.1425	0.049	0.115
Mof_H 	H 	0.1674	0.0693	0.0425	-0.037
Mof_C 	C 	0.1663	0.3114	0.0314	-0.061
Mof_C 	C 	0.1623	0.4172	0.0052	0.128
Mof_C 	C 	0.2348	0.4706	0.1198	0.102
Mof_H 	H 	0.253	0.5275	0.1503	0.014
Mof_C 	C 	0.5069	0.4885	0.3182	0.362
Mof_C 	C 	0.6313	0.5507	0.2929	-0.065
Mof_C 	C 	0.7665	0.5163	0.3152	-0.008
Mof_H 	H 	0.7764	0.4628	0.3489	0.043
Mof_C 	C 	0.8887	0.5603	0.2882	-0.04
Mof_C 	C 	0.0284	0.508	0.3088	0.32
Mof_C 	C 	0.7381	0.6779	0.2168	-0.004
Mof_H 	H 	0.7285	0.7322	0.1836	0.043
Mof_C 	C 	0.616	0.633	0.243	-0.035
Mof_C 	C 	0.476	0.6838	0.2164	0.323
Mof_C 	C 	0.873	0.6433	0.2393	-0.063
Mof_C 	C 	0.9988	0.7017	0.2113	0.38
Mof_O 	O 	0.2384	0.3354	0.37077	-1.135
Mof_H 	H 	0.2455	0.1562	0.1498	0.16
Mof_H 	H 	0.1039	0.5143	0.9256	0.112
Mof_H 	H 	0.0946	0.3723	0.904	0.1
Mof_H 	H 	0.1927	0.2803	0.3709	0.463
Mof_H 	H 	0.1857	0.387	0.3756	0.462
Mof_Co	Co	0.75064	0.14701	0.75888	1.19
Mof_Co	Co	0.93751	0.17928	0.93086	1.128
Mof_N 	N 	0.7486	0.1262	0.64841	-0.234
Mof_N 	N 	0.7229	0.3125	0.6106	-0.232
Mof_N 	N 	0.6332	0.2878	0.4983	-0.22
Mof_N 	N 	0.6292	0.057	0.4378	-0.214
Mof_N 	N 	0.6982	0.0045	0.5527	-0.151
Mof_O 	O 	0.9069	0.0299	0.77393	-0.409
Mof_O 	O 	0.0178	0.0447	0.88213	-0.434
Mof_O 	O 	0.5962	0.0274	0.75839	-0.39
Mof_O 	O 	0.5661	0.0017	0.87304	-0.318
Mof_O 	O 	0.9143	0.7613	0.76125	-0.386
Mof_O 	O 	0.9375	0.8253	0.65254	-0.315
Mof_O 	O 	0.5969	0.7681	0.75455	-0.402
Mof_O 	O 	0.49	0.7787	0.64645	-0.451
Mof_C 	C 	0.7168	0.2034	0.6005	0.151
Mof_C 	C 	0.6732	0.3575	0.549	0.119
Mof_H 	H 	0.6674	0.4307	0.5425	-0.037
Mof_C 	C 	0.6663	0.1886	0.5314	-0.059
Mof_C 	C 	0.6623	0.0828	0.5052	0.129
Mof_C 	C 	0.7348	0.0294	0.6198	0.102
Mof_H 	H 	0.753	0.9725	0.6503	0.015
Mof_C 	C 	0.0069	0.0115	0.8182	0.367
Mof_C 	C 	0.1313	0.9493	0.7929	-0.067
Mof_C 	C 	0.2665	0.9837	0.8152	-0.009
Mof_H 	H 	0.2764	0.0372	0.8489	0.044
Mof_C 	C 	0.3887	0.9397	0.7882	-0.041
Mof_C 	C 	0.5284	0.992	0.8088	0.32
Mof_C 	C 	0.2381	0.8221	0.7168	-0.005
Mof_H 	H 	0.2285	0.7678	0.6836	0.044
Mof_C 	C 	0.116	0.867	0.743	-0.034
Mof_C 	C 	0.976	0.8162	0.7164	0.322
Mof_C 	C 	0.373	0.8567	0.7393	-0.062
Mof_C 	C 	0.4988	0.7983	0.7113	0.377
Mof_O 	O 	0.7384	0.1646	0.87077	-1.136
Mof_H 	H 	0.7455	0.3438	0.6498	0.16
Mof_H 	H 	0.6039	0.9857	0.4256	0.111
Mof_H 	H 	0.5946	0.1277	0.404	0.099
Mof_H 	H 	0.6927	0.2197	0.8709	0.463
Mof_H 	H 	0.6857	0.113	0.8756	0.462
Mof_Co	Co	0.74936	0.64701	0.74112	1.19
Mof_Co	Co	0.56249	0.67928	0.56914	1.13
Mof_N 	N 	0.7514	0.6262	0.85159	-0.234
Mof_N 	N 	0.7771	0.8125	0.8894	-0.231
Mof_N 	N 	0.8668	0.7878	0.0017	-0.216
Mof_N 	N 	0.8708	0.557	0.0622	-0.212
Mof_N 	N 	0.8018	0.5045	0.9473	-0.151
Mof_O 	O 	0.5931	0.5299	0.72607	-0.405
Mof_O 	O 	0.4822	0.5447	0.61787	-0.435
Mof_O 	O 	0.9038	0.5274	0.74161	-0.391
Mof_O 	O 	0.9339	0.5017	0.62696	-0.319
Mof_O 	O 	0.5857	0.2613	0.73875	-0.386
Mof_O 	O 	0.5625	0.3253	0.84746	-0.316
Mof_O 	O 	0.9031	0.2681	0.74545	-0.404
Mof_O 	O 	0.01	0.2787	0.85355	-0.45
Mof_C 	C 	0.7832	0.7034	0.8995	0.151
Mof_C 	C 	0.8268	0.8575	0.951	0.115
Mof_H 	H 	0.8326	0.9307	0.9575	-0.037
Mof_C 	C 	0.8337	0.6886	0.9686	-0.061
Mof_C 	C 	0.8377	0.5828	0.9948	0.128
Mof_C 	C 	0.7652	0.5294	0.8802	0.102
Mof_H 	H 	0.747	0.4725	0.8497	0.014
Mof_C 	C 	0.4931	0.5115	0.6818	0.362
Mof_C 	C 	0.3687	0.4493	0.7071	-0.065
Mof_C 	C 	0.2335	0.4837	0.6848	-0.008
Mof_H 	H 	0.2236	0.5372	0.6511	0.043
Mof_C 	C 	0.1113	0.4397	0.7118	-0.04
Mof_C 	C 	0.9716	0.492	0.6912	0.32
Mof_C 	C 	0.2619	0.3221	0.7832	-0.004
Mof_H 	H 	0.2715	0.2678	0.8164	0.043
Mof_C 	C 	0.384	0.367	0.757	-0.035
Mof_C 	C 	0.524	0.3162	0.7836	0.323
Mof_C 	C 	0.127	0.3567	0.7607	-0.063
Mof_C 	C 	0.0012	0.2983	0.7887	0.38
Mof_O 	O 	0.7616	0.6646	0.62923	-1.135
Mof_H 	H 	0.7545	0.8438	0.8502	0.16
Mof_H 	H 	0.8961	0.4857	0.0744	0.112
Mof_H 	H 	0.9054	0.6277	0.096	0.1
Mof_H 	H 	0.8073	0.7197	0.6291	0.463
Mof_H 	H 	0.8143	0.613	0.6244	0.462
_end
