data_functionalizedCrystal
_audit_creation_method	'EQeq! by Chris Wilmer'
_symmetry_space_group_name_H-M	'P1'
_symmetry_Int_Tables_number	1
_symmetry_cell_setting	triclinic
loop_
_symmetry_equiv_pos_as_xyz
  x,y,z
_cell_length_a	26.1284
_cell_length_b	26.1284
_cell_length_c	34.1663
_cell_angle_alpha	90
_cell_angle_beta	90
_cell_angle_gamma	90
loop_
_atom_site_label
_atom_site_type_symbol
_atom_site_fract_x
_atom_site_fract_y
_atom_site_fract_z
_atom_site_charge
Mof_Cu	Cu	0.59977	0.23092	0.78121	0.903
Mof_O 	O 	0.75442	0.96367	0.74371	-0.4
Mof_O 	O 	0.65934	0.21854	0.81539	-0.399
Mof_Cu	Cu	0.57499	0.29635	0.83657	0.908
Mof_O 	O 	0.86525	0.20993	0.74319	-0.396
Mof_C 	C 	0.7858	0.9931	0.72733	0.342
Mof_C 	C 	0.6677	0.2429	0.84648	0.349
Mof_O 	O 	0.80757	0.986	0.69501	-0.403
Mof_O 	O 	0.63907	0.27691	0.86085	-0.4
Mof_C 	C 	0.8013	0.0408	0.74951	-0.042
Mof_C 	C 	0.715	0.2306	0.86888	-0.062
Mof_C 	C 	0.7896	0.0462	0.78844	-0.078
Mof_C 	C 	0.8284	0.0793	0.72986	-0.007
Mof_C 	C 	0.7435	0.187	0.86001	-0.045
Mof_C 	C 	0.7311	0.2632	0.89857	0.008
Mof_C 	C 	0.8044	0.0887	0.80927	0.097
Mof_H 	H 	0.7709	0.0199	0.8013	0.075
Mof_H 	H 	0.8382	0.075	0.7033	0.065
Mof_C 	C 	0.8407	0.1237	0.7498	-0.047
Mof_H 	H 	0.7325	0.1646	0.8398	0.071
Mof_C 	C 	0.788	0.1763	0.88094	0.048
Mof_C 	C 	0.7767	0.2542	0.9178	-0.056
Mof_H 	H 	0.7106	0.2917	0.9057	0.067
Mof_N 	N 	0.7941	0.0897	0.85102	-0.178
Mof_C 	C 	0.8282	0.1282	0.78932	-0.074
Mof_C 	C 	0.8664	0.1662	0.72785	0.345
Mof_C 	C 	0.805	0.2105	0.90891	-0.053
Mof_C 	C 	0.8169	0.1297	0.87459	-0.087
Mof_C 	C 	0.7958	0.2905	0.94794	0.337
Mof_H 	H 	0.7743	0.0664	0.8618	0.117
Mof_H 	H 	0.8361	0.159	0.8028	0.074
Mof_O 	O 	0.88806	0.15438	0.69647	-0.401
Mof_H 	H 	0.8363	0.2042	0.9222	0.066
Mof_H 	H 	0.8498	0.1393	0.8623	0.062
Mof_H 	H 	0.8249	0.1149	0.9006	0.062
Mof_O 	O 	0.76377	0.32415	0.95964	-0.361
Mof_O 	O 	0.84053	0.2857	0.96022	-0.386
Mof_O 	O 	0.56062	0.18027	0.81126	-0.395
Mof_O 	O 	0.41887	0.19235	0.95959	-0.36
Mof_O 	O 	0.38168	0.11453	0.95912	-0.382
Mof_C 	C 	0.4133	0.1471	0.94714	0.329
Mof_C 	C 	0.447	0.1314	0.91321	-0.034
Mof_C 	C 	0.4468	0.0811	0.9001	-0.074
Mof_C 	C 	0.4783	0.1672	0.89494	-0.009
Mof_H 	H 	0.4247	0.0569	0.9121	0.085
Mof_C 	C 	0.4782	0.0658	0.87	0.095
Mof_C 	C 	0.5083	0.1527	0.8635	-0.045
Mof_H 	H 	0.4791	0.2016	0.904	0.073
Mof_C 	C 	0.508	0.1026	0.8506	-0.066
Mof_N 	N 	0.4797	0.0116	0.8604	-0.081
Mof_C 	C 	0.5392	0.193	0.84297	0.342
Mof_H 	H 	0.5279	0.093	0.8285	0.08
Mof_O 	O 	0.54258	0.23575	0.85932	-0.4
Mof_O 	O 	0.7047	0.4077	0.0148	-0.553
Mof_H 	H 	0.7021	0.4368	0.0039	0.241
Mof_Cu	Cu	0.09977	0.73092	0.28121	0.902
Mof_O 	O 	0.25442	0.46367	0.24371	-0.401
Mof_O 	O 	0.15934	0.71854	0.31539	-0.401
Mof_Cu	Cu	0.07499	0.79635	0.33657	0.907
Mof_O 	O 	0.36525	0.70993	0.24319	-0.397
Mof_C 	C 	0.2858	0.4931	0.22733	0.342
Mof_C 	C 	0.1677	0.7429	0.34648	0.35
Mof_O 	O 	0.30757	0.486	0.19501	-0.403
Mof_O 	O 	0.13907	0.77691	0.36085	-0.402
Mof_C 	C 	0.3013	0.5408	0.24951	-0.043
Mof_C 	C 	0.215	0.7306	0.36888	-0.066
Mof_C 	C 	0.2896	0.5462	0.28844	-0.078
Mof_C 	C 	0.3284	0.5793	0.22986	-0.007
Mof_C 	C 	0.2435	0.687	0.36001	-0.043
Mof_C 	C 	0.2311	0.7632	0.39857	0.011
Mof_C 	C 	0.3044	0.5887	0.30927	0.096
Mof_H 	H 	0.2709	0.5199	0.3013	0.074
Mof_H 	H 	0.3382	0.575	0.2033	0.065
Mof_C 	C 	0.3407	0.6237	0.2498	-0.048
Mof_H 	H 	0.2325	0.6646	0.3398	0.069
Mof_C 	C 	0.288	0.6763	0.38094	0.043
Mof_C 	C 	0.2767	0.7542	0.4178	-0.063
Mof_H 	H 	0.2106	0.7917	0.4057	0.063
Mof_N 	N 	0.2941	0.5897	0.35102	-0.179
Mof_C 	C 	0.3282	0.6282	0.28932	-0.073
Mof_C 	C 	0.3664	0.6662	0.22785	0.346
Mof_C 	C 	0.305	0.7105	0.40891	-0.05
Mof_C 	C 	0.3169	0.6297	0.37459	-0.083
Mof_C 	C 	0.2958	0.7905	0.44794	0.34
Mof_H 	H 	0.2743	0.5664	0.3618	0.114
Mof_H 	H 	0.3361	0.659	0.3028	0.074
Mof_O 	O 	0.38806	0.65438	0.19647	-0.401
Mof_H 	H 	0.3363	0.7042	0.4222	0.061
Mof_H 	H 	0.3498	0.6393	0.3623	0.059
Mof_H 	H 	0.3249	0.6149	0.4006	0.056
Mof_O 	O 	0.26377	0.82415	0.45964	-0.375
Mof_O 	O 	0.34053	0.7857	0.46022	-0.403
Mof_O 	O 	0.06062	0.68027	0.31126	-0.396
Mof_O 	O 	0.91887	0.69235	0.45959	-0.374
Mof_O 	O 	0.88168	0.61453	0.45912	-0.398
Mof_C 	C 	0.9133	0.6471	0.44714	0.331
Mof_C 	C 	0.947	0.6314	0.41321	-0.04
Mof_C 	C 	0.9468	0.5811	0.4001	-0.072
Mof_C 	C 	0.9783	0.6672	0.39494	-0.007
Mof_H 	H 	0.9247	0.5569	0.4121	0.081
Mof_C 	C 	0.9782	0.5658	0.37	0.092
Mof_C 	C 	0.0083	0.6527	0.3635	-0.048
Mof_H 	H 	0.9791	0.7016	0.404	0.07
Mof_C 	C 	0.008	0.6026	0.3506	-0.064
Mof_N 	N 	0.9797	0.5116	0.3604	-0.082
Mof_C 	C 	0.0392	0.693	0.34297	0.343
Mof_H 	H 	0.0279	0.593	0.3285	0.08
Mof_O 	O 	0.04258	0.73575	0.35932	-0.402
Mof_O 	O 	0.2047	0.9077	0.5148	-0.509
Mof_H 	H 	0.2021	0.9368	0.5039	0.185
Mof_Cu	Cu	0.40023	0.76908	0.78121	0.902
Mof_O 	O 	0.24558	0.03633	0.74371	-0.401
Mof_O 	O 	0.34066	0.78146	0.81539	-0.4
Mof_Cu	Cu	0.42501	0.70365	0.83657	0.907
Mof_O 	O 	0.13475	0.79007	0.74319	-0.396
Mof_C 	C 	0.2142	0.0069	0.72733	0.342
Mof_C 	C 	0.3323	0.7571	0.84648	0.349
Mof_O 	O 	0.19243	0.014	0.69501	-0.403
Mof_O 	O 	0.36093	0.72309	0.86085	-0.4
Mof_C 	C 	0.1987	0.9592	0.74951	-0.042
Mof_C 	C 	0.285	0.7694	0.86888	-0.062
Mof_C 	C 	0.2104	0.9538	0.78844	-0.078
Mof_C 	C 	0.1716	0.9207	0.72986	-0.007
Mof_C 	C 	0.2565	0.813	0.86001	-0.045
Mof_C 	C 	0.2689	0.7368	0.89857	0.008
Mof_C 	C 	0.1956	0.9113	0.80927	0.097
Mof_H 	H 	0.2291	0.9801	0.8013	0.075
Mof_H 	H 	0.1618	0.925	0.7033	0.065
Mof_C 	C 	0.1593	0.8763	0.7498	-0.047
Mof_H 	H 	0.2675	0.8354	0.8398	0.071
Mof_C 	C 	0.212	0.8237	0.88094	0.048
Mof_C 	C 	0.2233	0.7458	0.9178	-0.056
Mof_H 	H 	0.2894	0.7083	0.9057	0.067
Mof_N 	N 	0.2059	0.9103	0.85102	-0.178
Mof_C 	C 	0.1718	0.8718	0.78932	-0.074
Mof_C 	C 	0.1336	0.8338	0.72785	0.345
Mof_C 	C 	0.195	0.7895	0.90891	-0.053
Mof_C 	C 	0.1831	0.8703	0.87459	-0.087
Mof_C 	C 	0.2042	0.7095	0.94794	0.337
Mof_H 	H 	0.2257	0.9336	0.8618	0.117
Mof_H 	H 	0.1639	0.841	0.8028	0.074
Mof_O 	O 	0.11194	0.84562	0.69647	-0.401
Mof_H 	H 	0.1637	0.7958	0.9222	0.066
Mof_H 	H 	0.1502	0.8607	0.8623	0.062
Mof_H 	H 	0.1751	0.8851	0.9006	0.062
Mof_O 	O 	0.23623	0.67585	0.95964	-0.361
Mof_O 	O 	0.15947	0.7143	0.96022	-0.386
Mof_O 	O 	0.43938	0.81973	0.81126	-0.395
Mof_O 	O 	0.58113	0.80765	0.95959	-0.36
Mof_O 	O 	0.61832	0.88547	0.95912	-0.382
Mof_C 	C 	0.5867	0.8529	0.94714	0.329
Mof_C 	C 	0.553	0.8686	0.91321	-0.034
Mof_C 	C 	0.5532	0.9189	0.9001	-0.074
Mof_C 	C 	0.5217	0.8328	0.89494	-0.009
Mof_H 	H 	0.5753	0.9431	0.9121	0.085
Mof_C 	C 	0.5218	0.9342	0.87	0.095
Mof_C 	C 	0.4917	0.8473	0.8635	-0.045
Mof_H 	H 	0.5209	0.7984	0.904	0.073
Mof_C 	C 	0.492	0.8974	0.8506	-0.066
Mof_N 	N 	0.5203	0.9884	0.8604	-0.081
Mof_C 	C 	0.4608	0.807	0.84297	0.342
Mof_H 	H 	0.4721	0.907	0.8285	0.08
Mof_O 	O 	0.45742	0.76425	0.85932	-0.4
Mof_O 	O 	0.2953	0.5923	0.0148	-0.553
Mof_H 	H 	0.2979	0.5632	0.0039	0.241
Mof_Cu	Cu	0.90023	0.26908	0.28121	0.902
Mof_O 	O 	0.74558	0.53633	0.24371	-0.401
Mof_O 	O 	0.84066	0.28146	0.31539	-0.401
Mof_Cu	Cu	0.92501	0.20365	0.33657	0.907
Mof_O 	O 	0.63475	0.29007	0.24319	-0.397
Mof_C 	C 	0.7142	0.5069	0.22733	0.342
Mof_C 	C 	0.8323	0.2571	0.34648	0.35
Mof_O 	O 	0.69243	0.514	0.19501	-0.403
Mof_O 	O 	0.86093	0.22309	0.36085	-0.402
Mof_C 	C 	0.6987	0.4592	0.24951	-0.043
Mof_C 	C 	0.785	0.2694	0.36888	-0.066
Mof_C 	C 	0.7104	0.4538	0.28844	-0.078
Mof_C 	C 	0.6716	0.4207	0.22986	-0.007
Mof_C 	C 	0.7565	0.313	0.36001	-0.043
Mof_C 	C 	0.7689	0.2368	0.39857	0.011
Mof_C 	C 	0.6956	0.4113	0.30927	0.096
Mof_H 	H 	0.7291	0.4801	0.3013	0.074
Mof_H 	H 	0.6618	0.425	0.2033	0.065
Mof_C 	C 	0.6593	0.3763	0.2498	-0.048
Mof_H 	H 	0.7675	0.3354	0.3398	0.069
Mof_C 	C 	0.712	0.3237	0.38094	0.043
Mof_C 	C 	0.7233	0.2458	0.4178	-0.063
Mof_H 	H 	0.7894	0.2083	0.4057	0.063
Mof_N 	N 	0.7059	0.4103	0.35102	-0.179
Mof_C 	C 	0.6718	0.3718	0.28932	-0.073
Mof_C 	C 	0.6336	0.3338	0.22785	0.346
Mof_C 	C 	0.695	0.2895	0.40891	-0.05
Mof_C 	C 	0.6831	0.3703	0.37459	-0.083
Mof_C 	C 	0.7042	0.2095	0.44794	0.34
Mof_H 	H 	0.7257	0.4336	0.3618	0.114
Mof_H 	H 	0.6639	0.341	0.3028	0.074
Mof_O 	O 	0.61194	0.34562	0.19647	-0.401
Mof_H 	H 	0.6637	0.2958	0.4222	0.061
Mof_H 	H 	0.6502	0.3607	0.3623	0.059
Mof_H 	H 	0.6751	0.3851	0.4006	0.056
Mof_O 	O 	0.73623	0.17585	0.45964	-0.375
Mof_O 	O 	0.65947	0.2143	0.46022	-0.403
Mof_O 	O 	0.93938	0.31973	0.31126	-0.396
Mof_O 	O 	0.08113	0.30765	0.45959	-0.374
Mof_O 	O 	0.11832	0.38547	0.45912	-0.398
Mof_C 	C 	0.0867	0.3529	0.44714	0.331
Mof_C 	C 	0.053	0.3686	0.41321	-0.04
Mof_C 	C 	0.0532	0.4189	0.4001	-0.072
Mof_C 	C 	0.0217	0.3328	0.39494	-0.007
Mof_H 	H 	0.0753	0.4431	0.4121	0.081
Mof_C 	C 	0.0218	0.4342	0.37	0.092
Mof_C 	C 	0.9917	0.3473	0.3635	-0.048
Mof_H 	H 	0.0209	0.2984	0.404	0.07
Mof_C 	C 	0.992	0.3974	0.3506	-0.064
Mof_N 	N 	0.0203	0.4884	0.3604	-0.082
Mof_C 	C 	0.9608	0.307	0.34297	0.343
Mof_H 	H 	0.9721	0.407	0.3285	0.08
Mof_O 	O 	0.95742	0.26425	0.35932	-0.402
Mof_O 	O 	0.7953	0.0923	0.5148	-0.509
Mof_H 	H 	0.7979	0.0632	0.5039	0.185
Mof_Cu	Cu	0.76908	0.59977	0.78121	0.902
Mof_O 	O 	0.03633	0.75442	0.74371	-0.401
Mof_O 	O 	0.78146	0.65934	0.81539	-0.4
Mof_Cu	Cu	0.70365	0.57499	0.83657	0.907
Mof_O 	O 	0.79007	0.86525	0.74319	-0.396
Mof_C 	C 	0.0069	0.7858	0.72733	0.342
Mof_C 	C 	0.7571	0.6677	0.84648	0.349
Mof_O 	O 	0.014	0.80757	0.69501	-0.403
Mof_O 	O 	0.72309	0.63907	0.86085	-0.4
Mof_C 	C 	0.9592	0.8013	0.74951	-0.042
Mof_C 	C 	0.7694	0.715	0.86888	-0.062
Mof_C 	C 	0.9538	0.7896	0.78844	-0.078
Mof_C 	C 	0.9207	0.8284	0.72986	-0.007
Mof_C 	C 	0.813	0.7435	0.86001	-0.045
Mof_C 	C 	0.7368	0.7311	0.89857	0.008
Mof_C 	C 	0.9113	0.8044	0.80927	0.097
Mof_H 	H 	0.9801	0.7709	0.8013	0.075
Mof_H 	H 	0.925	0.8382	0.7033	0.065
Mof_C 	C 	0.8763	0.8407	0.7498	-0.047
Mof_H 	H 	0.8354	0.7325	0.8398	0.071
Mof_C 	C 	0.8237	0.788	0.88094	0.048
Mof_C 	C 	0.7458	0.7767	0.9178	-0.056
Mof_H 	H 	0.7083	0.7106	0.9057	0.067
Mof_N 	N 	0.9103	0.7941	0.85102	-0.178
Mof_C 	C 	0.8718	0.8282	0.78932	-0.074
Mof_C 	C 	0.8338	0.8664	0.72785	0.345
Mof_C 	C 	0.7895	0.805	0.90891	-0.053
Mof_C 	C 	0.8703	0.8169	0.87459	-0.087
Mof_C 	C 	0.7095	0.7958	0.94794	0.337
Mof_H 	H 	0.9336	0.7743	0.8618	0.117
Mof_H 	H 	0.841	0.8361	0.8028	0.074
Mof_O 	O 	0.84562	0.88806	0.69647	-0.401
Mof_H 	H 	0.7958	0.8363	0.9222	0.066
Mof_H 	H 	0.8607	0.8498	0.8623	0.062
Mof_H 	H 	0.8851	0.8249	0.9006	0.062
Mof_O 	O 	0.67585	0.76377	0.95964	-0.361
Mof_O 	O 	0.7143	0.84053	0.96022	-0.386
Mof_O 	O 	0.81973	0.56062	0.81126	-0.395
Mof_O 	O 	0.80765	0.41887	0.95959	-0.36
Mof_O 	O 	0.88547	0.38168	0.95912	-0.382
Mof_C 	C 	0.8529	0.4133	0.94714	0.329
Mof_C 	C 	0.8686	0.447	0.91321	-0.034
Mof_C 	C 	0.9189	0.4468	0.9001	-0.074
Mof_C 	C 	0.8328	0.4783	0.89494	-0.009
Mof_H 	H 	0.9431	0.4247	0.9121	0.085
Mof_C 	C 	0.9342	0.4782	0.87	0.095
Mof_C 	C 	0.8473	0.5083	0.8635	-0.045
Mof_H 	H 	0.7984	0.4791	0.904	0.073
Mof_C 	C 	0.8974	0.508	0.8506	-0.066
Mof_N 	N 	0.9884	0.4797	0.8604	-0.081
Mof_C 	C 	0.807	0.5392	0.84297	0.342
Mof_H 	H 	0.907	0.5279	0.8285	0.08
Mof_O 	O 	0.76425	0.54258	0.85932	-0.4
Mof_O 	O 	0.5923	0.7047	0.0148	-0.553
Mof_H 	H 	0.5632	0.7021	0.0039	0.241
Mof_Cu	Cu	0.26908	0.09977	0.28121	0.902
Mof_O 	O 	0.53633	0.25442	0.24371	-0.401
Mof_O 	O 	0.28146	0.15934	0.31539	-0.401
Mof_Cu	Cu	0.20365	0.07499	0.33657	0.907
Mof_O 	O 	0.29007	0.36525	0.24319	-0.397
Mof_C 	C 	0.5069	0.2858	0.22733	0.342
Mof_C 	C 	0.2571	0.1677	0.34648	0.35
Mof_O 	O 	0.514	0.30757	0.19501	-0.403
Mof_O 	O 	0.22309	0.13907	0.36085	-0.402
Mof_C 	C 	0.4592	0.3013	0.24951	-0.043
Mof_C 	C 	0.2694	0.215	0.36888	-0.066
Mof_C 	C 	0.4538	0.2896	0.28844	-0.078
Mof_C 	C 	0.4207	0.3284	0.22986	-0.007
Mof_C 	C 	0.313	0.2435	0.36001	-0.043
Mof_C 	C 	0.2368	0.2311	0.39857	0.011
Mof_C 	C 	0.4113	0.3044	0.30927	0.096
Mof_H 	H 	0.4801	0.2709	0.3013	0.074
Mof_H 	H 	0.425	0.3382	0.2033	0.065
Mof_C 	C 	0.3763	0.3407	0.2498	-0.048
Mof_H 	H 	0.3354	0.2325	0.3398	0.069
Mof_C 	C 	0.3237	0.288	0.38094	0.043
Mof_C 	C 	0.2458	0.2767	0.4178	-0.063
Mof_H 	H 	0.2083	0.2106	0.4057	0.063
Mof_N 	N 	0.4103	0.2941	0.35102	-0.179
Mof_C 	C 	0.3718	0.3282	0.28932	-0.073
Mof_C 	C 	0.3338	0.3664	0.22785	0.346
Mof_C 	C 	0.2895	0.305	0.40891	-0.05
Mof_C 	C 	0.3703	0.3169	0.37459	-0.083
Mof_C 	C 	0.2095	0.2958	0.44794	0.34
Mof_H 	H 	0.4336	0.2743	0.3618	0.114
Mof_H 	H 	0.341	0.3361	0.3028	0.074
Mof_O 	O 	0.34562	0.38806	0.19647	-0.401
Mof_H 	H 	0.2958	0.3363	0.4222	0.061
Mof_H 	H 	0.3607	0.3498	0.3623	0.059
Mof_H 	H 	0.3851	0.3249	0.4006	0.056
Mof_O 	O 	0.17585	0.26377	0.45964	-0.375
Mof_O 	O 	0.2143	0.34053	0.46022	-0.403
Mof_O 	O 	0.31973	0.06062	0.31126	-0.396
Mof_O 	O 	0.30765	0.91887	0.45959	-0.374
Mof_O 	O 	0.38547	0.88168	0.45912	-0.398
Mof_C 	C 	0.3529	0.9133	0.44714	0.331
Mof_C 	C 	0.3686	0.947	0.41321	-0.04
Mof_C 	C 	0.4189	0.9468	0.4001	-0.072
Mof_C 	C 	0.3328	0.9783	0.39494	-0.007
Mof_H 	H 	0.4431	0.9247	0.4121	0.081
Mof_C 	C 	0.4342	0.9782	0.37	0.092
Mof_C 	C 	0.3473	0.0083	0.3635	-0.048
Mof_H 	H 	0.2984	0.9791	0.404	0.07
Mof_C 	C 	0.3974	0.008	0.3506	-0.064
Mof_N 	N 	0.4884	0.9797	0.3604	-0.082
Mof_C 	C 	0.307	0.0392	0.34297	0.343
Mof_H 	H 	0.407	0.0279	0.3285	0.08
Mof_O 	O 	0.26425	0.04258	0.35932	-0.402
Mof_O 	O 	0.0923	0.2047	0.5148	-0.509
Mof_H 	H 	0.0632	0.2021	0.5039	0.185
Mof_Cu	Cu	0.23092	0.40023	0.78121	0.902
Mof_O 	O 	0.96367	0.24558	0.74371	-0.401
Mof_O 	O 	0.21854	0.34066	0.81539	-0.4
Mof_Cu	Cu	0.29635	0.42501	0.83657	0.907
Mof_O 	O 	0.20993	0.13475	0.74319	-0.396
Mof_C 	C 	0.9931	0.2142	0.72733	0.342
Mof_C 	C 	0.2429	0.3323	0.84648	0.349
Mof_O 	O 	0.986	0.19243	0.69501	-0.403
Mof_O 	O 	0.27691	0.36093	0.86085	-0.4
Mof_C 	C 	0.0408	0.1987	0.74951	-0.042
Mof_C 	C 	0.2306	0.285	0.86888	-0.062
Mof_C 	C 	0.0462	0.2104	0.78844	-0.078
Mof_C 	C 	0.0793	0.1716	0.72986	-0.007
Mof_C 	C 	0.187	0.2565	0.86001	-0.045
Mof_C 	C 	0.2632	0.2689	0.89857	0.008
Mof_C 	C 	0.0887	0.1956	0.80927	0.097
Mof_H 	H 	0.0199	0.2291	0.8013	0.075
Mof_H 	H 	0.075	0.1618	0.7033	0.065
Mof_C 	C 	0.1237	0.1593	0.7498	-0.047
Mof_H 	H 	0.1646	0.2675	0.8398	0.071
Mof_C 	C 	0.1763	0.212	0.88094	0.048
Mof_C 	C 	0.2542	0.2233	0.9178	-0.056
Mof_H 	H 	0.2917	0.2894	0.9057	0.067
Mof_N 	N 	0.0897	0.2059	0.85102	-0.178
Mof_C 	C 	0.1282	0.1718	0.78932	-0.074
Mof_C 	C 	0.1662	0.1336	0.72785	0.345
Mof_C 	C 	0.2105	0.195	0.90891	-0.053
Mof_C 	C 	0.1297	0.1831	0.87459	-0.087
Mof_C 	C 	0.2905	0.2042	0.94794	0.337
Mof_H 	H 	0.0664	0.2257	0.8618	0.117
Mof_H 	H 	0.159	0.1639	0.8028	0.074
Mof_O 	O 	0.15438	0.11194	0.69647	-0.401
Mof_H 	H 	0.2042	0.1637	0.9222	0.066
Mof_H 	H 	0.1393	0.1502	0.8623	0.062
Mof_H 	H 	0.1149	0.1751	0.9006	0.062
Mof_O 	O 	0.32415	0.23623	0.95964	-0.361
Mof_O 	O 	0.2857	0.15947	0.96022	-0.386
Mof_O 	O 	0.18027	0.43938	0.81126	-0.395
Mof_O 	O 	0.19235	0.58113	0.95959	-0.36
Mof_O 	O 	0.11453	0.61832	0.95912	-0.382
Mof_C 	C 	0.1471	0.5867	0.94714	0.329
Mof_C 	C 	0.1314	0.553	0.91321	-0.034
Mof_C 	C 	0.0811	0.5532	0.9001	-0.074
Mof_C 	C 	0.1672	0.5217	0.89494	-0.009
Mof_H 	H 	0.0569	0.5753	0.9121	0.085
Mof_C 	C 	0.0658	0.5218	0.87	0.095
Mof_C 	C 	0.1527	0.4917	0.8635	-0.045
Mof_H 	H 	0.2016	0.5209	0.904	0.073
Mof_C 	C 	0.1026	0.492	0.8506	-0.066
Mof_N 	N 	0.0116	0.5203	0.8604	-0.081
Mof_C 	C 	0.193	0.4608	0.84297	0.342
Mof_H 	H 	0.093	0.4721	0.8285	0.08
Mof_O 	O 	0.23575	0.45742	0.85932	-0.4
Mof_O 	O 	0.4077	0.2953	0.0148	-0.553
Mof_H 	H 	0.4368	0.2979	0.0039	0.241
Mof_Cu	Cu	0.73092	0.90023	0.28121	0.902
Mof_O 	O 	0.46367	0.74558	0.24371	-0.401
Mof_O 	O 	0.71854	0.84066	0.31539	-0.401
Mof_Cu	Cu	0.79635	0.92501	0.33657	0.907
Mof_O 	O 	0.70993	0.63475	0.24319	-0.397
Mof_C 	C 	0.4931	0.7142	0.22733	0.342
Mof_C 	C 	0.7429	0.8323	0.34648	0.35
Mof_O 	O 	0.486	0.69243	0.19501	-0.403
Mof_O 	O 	0.77691	0.86093	0.36085	-0.402
Mof_C 	C 	0.5408	0.6987	0.24951	-0.043
Mof_C 	C 	0.7306	0.785	0.36888	-0.066
Mof_C 	C 	0.5462	0.7104	0.28844	-0.078
Mof_C 	C 	0.5793	0.6716	0.22986	-0.007
Mof_C 	C 	0.687	0.7565	0.36001	-0.043
Mof_C 	C 	0.7632	0.7689	0.39857	0.011
Mof_C 	C 	0.5887	0.6956	0.30927	0.096
Mof_H 	H 	0.5199	0.7291	0.3013	0.074
Mof_H 	H 	0.575	0.6618	0.2033	0.065
Mof_C 	C 	0.6237	0.6593	0.2498	-0.048
Mof_H 	H 	0.6646	0.7675	0.3398	0.069
Mof_C 	C 	0.6763	0.712	0.38094	0.043
Mof_C 	C 	0.7542	0.7233	0.4178	-0.063
Mof_H 	H 	0.7917	0.7894	0.4057	0.063
Mof_N 	N 	0.5897	0.7059	0.35102	-0.179
Mof_C 	C 	0.6282	0.6718	0.28932	-0.073
Mof_C 	C 	0.6662	0.6336	0.22785	0.346
Mof_C 	C 	0.7105	0.695	0.40891	-0.05
Mof_C 	C 	0.6297	0.6831	0.37459	-0.083
Mof_C 	C 	0.7905	0.7042	0.44794	0.34
Mof_H 	H 	0.5664	0.7257	0.3618	0.114
Mof_H 	H 	0.659	0.6639	0.3028	0.074
Mof_O 	O 	0.65438	0.61194	0.19647	-0.401
Mof_H 	H 	0.7042	0.6637	0.4222	0.061
Mof_H 	H 	0.6393	0.6502	0.3623	0.059
Mof_H 	H 	0.6149	0.6751	0.4006	0.056
Mof_O 	O 	0.82415	0.73623	0.45964	-0.375
Mof_O 	O 	0.7857	0.65947	0.46022	-0.403
Mof_O 	O 	0.68027	0.93938	0.31126	-0.396
Mof_O 	O 	0.69235	0.08113	0.45959	-0.374
Mof_O 	O 	0.61453	0.11832	0.45912	-0.398
Mof_C 	C 	0.6471	0.0867	0.44714	0.331
Mof_C 	C 	0.6314	0.053	0.41321	-0.04
Mof_C 	C 	0.5811	0.0532	0.4001	-0.072
Mof_C 	C 	0.6672	0.0217	0.39494	-0.007
Mof_H 	H 	0.5569	0.0753	0.4121	0.081
Mof_C 	C 	0.5658	0.0218	0.37	0.092
Mof_C 	C 	0.6527	0.9917	0.3635	-0.048
Mof_H 	H 	0.7016	0.0209	0.404	0.07
Mof_C 	C 	0.6026	0.992	0.3506	-0.064
Mof_N 	N 	0.5116	0.0203	0.3604	-0.082
Mof_C 	C 	0.693	0.9608	0.34297	0.343
Mof_H 	H 	0.593	0.9721	0.3285	0.08
Mof_O 	O 	0.73575	0.95742	0.35932	-0.402
Mof_O 	O 	0.9077	0.7953	0.5148	-0.509
Mof_H 	H 	0.9368	0.7979	0.5039	0.185
Mof_Cu	Cu	0.40023	0.76908	0.21879	0.903
Mof_O 	O 	0.24558	0.03633	0.25629	-0.401
Mof_O 	O 	0.34066	0.78146	0.18461	-0.401
Mof_Cu	Cu	0.42501	0.70365	0.16343	0.906
Mof_O 	O 	0.13475	0.79007	0.25681	-0.397
Mof_C 	C 	0.2142	0.0069	0.27267	0.342
Mof_C 	C 	0.3323	0.7571	0.15352	0.351
Mof_O 	O 	0.19243	0.014	0.30499	-0.403
Mof_O 	O 	0.36093	0.72309	0.13915	-0.404
Mof_C 	C 	0.1987	0.9592	0.25049	-0.043
Mof_C 	C 	0.285	0.7694	0.13112	-0.069
Mof_C 	C 	0.2104	0.9538	0.21156	-0.078
Mof_C 	C 	0.1716	0.9207	0.27014	-0.007
Mof_C 	C 	0.2565	0.813	0.13999	-0.041
Mof_C 	C 	0.2689	0.7368	0.10143	0.012
Mof_C 	C 	0.1956	0.9113	0.19073	0.095
Mof_H 	H 	0.2291	0.9801	0.1987	0.073
Mof_H 	H 	0.1618	0.925	0.2967	0.065
Mof_C 	C 	0.1593	0.8763	0.2502	-0.048
Mof_H 	H 	0.2675	0.8354	0.1602	0.068
Mof_C 	C 	0.212	0.8237	0.11906	0.038
Mof_C 	C 	0.2233	0.7458	0.0822	-0.068
Mof_H 	H 	0.2894	0.7083	0.0943	0.061
Mof_N 	N 	0.2059	0.9103	0.14898	-0.179
Mof_C 	C 	0.1718	0.8718	0.21068	-0.073
Mof_C 	C 	0.1336	0.8338	0.27215	0.346
Mof_C 	C 	0.195	0.7895	0.09109	-0.048
Mof_C 	C 	0.1831	0.8703	0.12541	-0.08
Mof_C 	C 	0.2042	0.7095	0.05206	0.34
Mof_H 	H 	0.2257	0.9336	0.1382	0.112
Mof_H 	H 	0.1639	0.841	0.1972	0.074
Mof_O 	O 	0.11194	0.84562	0.30353	-0.401
Mof_H 	H 	0.1637	0.7958	0.0778	0.056
Mof_H 	H 	0.1502	0.8607	0.1377	0.057
Mof_H 	H 	0.1751	0.8851	0.0994	0.051
Mof_O 	O 	0.23623	0.67585	0.04036	-0.381
Mof_O 	O 	0.15947	0.7143	0.03978	-0.411
Mof_O 	O 	0.43938	0.81973	0.18874	-0.396
Mof_O 	O 	0.58113	0.80765	0.04041	-0.381
Mof_O 	O 	0.61832	0.88547	0.04088	-0.406
Mof_C 	C 	0.5867	0.8529	0.05286	0.331
Mof_C 	C 	0.553	0.8686	0.08679	-0.044
Mof_C 	C 	0.5532	0.9189	0.0999	-0.071
Mof_C 	C 	0.5217	0.8328	0.10506	-0.006
Mof_H 	H 	0.5753	0.9431	0.0879	0.077
Mof_C 	C 	0.5218	0.9342	0.13	0.09
Mof_C 	C 	0.4917	0.8473	0.1365	-0.051
Mof_H 	H 	0.5209	0.7984	0.096	0.067
Mof_C 	C 	0.492	0.8974	0.1494	-0.063
Mof_N 	N 	0.5203	0.9884	0.1396	-0.083
Mof_C 	C 	0.4608	0.807	0.15703	0.344
Mof_H 	H 	0.4721	0.907	0.1715	0.079
Mof_O 	O 	0.45742	0.76425	0.14068	-0.404
Mof_O 	O 	0.2953	0.5923	0.9852	-0.412
Mof_H 	H 	0.2979	0.5632	0.9961	0.115
Mof_Cu	Cu	0.90023	0.26908	0.71879	0.902
Mof_O 	O 	0.74558	0.53633	0.75629	-0.401
Mof_O 	O 	0.84066	0.28146	0.68461	-0.401
Mof_Cu	Cu	0.92501	0.20365	0.66343	0.907
Mof_O 	O 	0.63475	0.29007	0.75681	-0.397
Mof_C 	C 	0.7142	0.5069	0.77267	0.342
Mof_C 	C 	0.8323	0.2571	0.65352	0.35
Mof_O 	O 	0.69243	0.514	0.80499	-0.402
Mof_O 	O 	0.86093	0.22309	0.63915	-0.402
Mof_C 	C 	0.6987	0.4592	0.75049	-0.042
Mof_C 	C 	0.785	0.2694	0.63112	-0.066
Mof_C 	C 	0.7104	0.4538	0.71156	-0.078
Mof_C 	C 	0.6716	0.4207	0.77014	-0.008
Mof_C 	C 	0.7565	0.313	0.63999	-0.043
Mof_C 	C 	0.7689	0.2368	0.60143	0.011
Mof_C 	C 	0.6956	0.4113	0.69073	0.096
Mof_H 	H 	0.7291	0.4801	0.6987	0.074
Mof_H 	H 	0.6618	0.425	0.7967	0.066
Mof_C 	C 	0.6593	0.3763	0.7502	-0.047
Mof_H 	H 	0.7675	0.3354	0.6602	0.069
Mof_C 	C 	0.712	0.3237	0.61906	0.043
Mof_C 	C 	0.7233	0.2458	0.5822	-0.063
Mof_H 	H 	0.7894	0.2083	0.5943	0.063
Mof_N 	N 	0.7059	0.4103	0.64898	-0.179
Mof_C 	C 	0.6718	0.3718	0.71068	-0.074
Mof_C 	C 	0.6336	0.3338	0.77215	0.345
Mof_C 	C 	0.695	0.2895	0.59109	-0.05
Mof_C 	C 	0.6831	0.3703	0.62541	-0.083
Mof_C 	C 	0.7042	0.2095	0.55206	0.34
Mof_H 	H 	0.7257	0.4336	0.6382	0.114
Mof_H 	H 	0.6639	0.341	0.6972	0.074
Mof_O 	O 	0.61194	0.34562	0.80353	-0.4
Mof_H 	H 	0.6637	0.2958	0.5778	0.06
Mof_H 	H 	0.6502	0.3607	0.6377	0.059
Mof_H 	H 	0.6751	0.3851	0.5994	0.056
Mof_O 	O 	0.73623	0.17585	0.54036	-0.375
Mof_O 	O 	0.65947	0.2143	0.53978	-0.403
Mof_O 	O 	0.93938	0.31973	0.68874	-0.396
Mof_O 	O 	0.08113	0.30765	0.54041	-0.374
Mof_O 	O 	0.11832	0.38547	0.54088	-0.398
Mof_C 	C 	0.0867	0.3529	0.55286	0.331
Mof_C 	C 	0.053	0.3686	0.58679	-0.04
Mof_C 	C 	0.0532	0.4189	0.5999	-0.072
Mof_C 	C 	0.0217	0.3328	0.60506	-0.007
Mof_H 	H 	0.0753	0.4431	0.5879	0.08
Mof_C 	C 	0.0218	0.4342	0.63	0.092
Mof_C 	C 	0.9917	0.3473	0.6365	-0.049
Mof_H 	H 	0.0209	0.2984	0.596	0.07
Mof_C 	C 	0.992	0.3974	0.6494	-0.064
Mof_N 	N 	0.0203	0.4884	0.6396	-0.082
Mof_C 	C 	0.9608	0.307	0.65703	0.343
Mof_H 	H 	0.9721	0.407	0.6715	0.08
Mof_O 	O 	0.95742	0.26425	0.64068	-0.402
Mof_O 	O 	0.7953	0.0923	0.4852	-0.509
Mof_H 	H 	0.7979	0.0632	0.4961	0.185
Mof_Cu	Cu	0.59977	0.23092	0.21879	0.903
Mof_O 	O 	0.75442	0.96367	0.25629	-0.401
Mof_O 	O 	0.65934	0.21854	0.18461	-0.401
Mof_Cu	Cu	0.57499	0.29635	0.16343	0.906
Mof_O 	O 	0.86525	0.20993	0.25681	-0.397
Mof_C 	C 	0.7858	0.9931	0.27267	0.342
Mof_C 	C 	0.6677	0.2429	0.15352	0.351
Mof_O 	O 	0.80757	0.986	0.30499	-0.403
Mof_O 	O 	0.63907	0.27691	0.13915	-0.404
Mof_C 	C 	0.8013	0.0408	0.25049	-0.043
Mof_C 	C 	0.715	0.2306	0.13112	-0.069
Mof_C 	C 	0.7896	0.0462	0.21156	-0.078
Mof_C 	C 	0.8284	0.0793	0.27014	-0.007
Mof_C 	C 	0.7435	0.187	0.13999	-0.041
Mof_C 	C 	0.7311	0.2632	0.10143	0.012
Mof_C 	C 	0.8044	0.0887	0.19073	0.095
Mof_H 	H 	0.7709	0.0199	0.1987	0.073
Mof_H 	H 	0.8382	0.075	0.2967	0.065
Mof_C 	C 	0.8407	0.1237	0.2502	-0.048
Mof_H 	H 	0.7325	0.1646	0.1602	0.068
Mof_C 	C 	0.788	0.1763	0.11906	0.038
Mof_C 	C 	0.7767	0.2542	0.0822	-0.068
Mof_H 	H 	0.7106	0.2917	0.0943	0.061
Mof_N 	N 	0.7941	0.0897	0.14898	-0.179
Mof_C 	C 	0.8282	0.1282	0.21068	-0.073
Mof_C 	C 	0.8664	0.1662	0.27215	0.346
Mof_C 	C 	0.805	0.2105	0.09109	-0.048
Mof_C 	C 	0.8169	0.1297	0.12541	-0.08
Mof_C 	C 	0.7958	0.2905	0.05206	0.34
Mof_H 	H 	0.7743	0.0664	0.1382	0.112
Mof_H 	H 	0.8361	0.159	0.1972	0.074
Mof_O 	O 	0.88806	0.15438	0.30353	-0.401
Mof_H 	H 	0.8363	0.2042	0.0778	0.056
Mof_H 	H 	0.8498	0.1393	0.1377	0.057
Mof_H 	H 	0.8249	0.1149	0.0994	0.051
Mof_O 	O 	0.76377	0.32415	0.04036	-0.381
Mof_O 	O 	0.84053	0.2857	0.03978	-0.411
Mof_O 	O 	0.56062	0.18027	0.18874	-0.396
Mof_O 	O 	0.41887	0.19235	0.04041	-0.381
Mof_O 	O 	0.38168	0.11453	0.04088	-0.406
Mof_C 	C 	0.4133	0.1471	0.05286	0.331
Mof_C 	C 	0.447	0.1314	0.08679	-0.044
Mof_C 	C 	0.4468	0.0811	0.0999	-0.071
Mof_C 	C 	0.4783	0.1672	0.10506	-0.006
Mof_H 	H 	0.4247	0.0569	0.0879	0.077
Mof_C 	C 	0.4782	0.0658	0.13	0.09
Mof_C 	C 	0.5083	0.1527	0.1365	-0.051
Mof_H 	H 	0.4791	0.2016	0.096	0.067
Mof_C 	C 	0.508	0.1026	0.1494	-0.063
Mof_N 	N 	0.4797	0.0116	0.1396	-0.083
Mof_C 	C 	0.5392	0.193	0.15703	0.344
Mof_H 	H 	0.5279	0.093	0.1715	0.079
Mof_O 	O 	0.54258	0.23575	0.14068	-0.404
Mof_O 	O 	0.7047	0.4077	0.9852	-0.412
Mof_H 	H 	0.7021	0.4368	0.9961	0.115
Mof_Cu	Cu	0.09977	0.73092	0.71879	0.902
Mof_O 	O 	0.25442	0.46367	0.75629	-0.401
Mof_O 	O 	0.15934	0.71854	0.68461	-0.401
Mof_Cu	Cu	0.07499	0.79635	0.66343	0.907
Mof_O 	O 	0.36525	0.70993	0.75681	-0.397
Mof_C 	C 	0.2858	0.4931	0.77267	0.342
Mof_C 	C 	0.1677	0.7429	0.65352	0.35
Mof_O 	O 	0.30757	0.486	0.80499	-0.402
Mof_O 	O 	0.13907	0.77691	0.63915	-0.402
Mof_C 	C 	0.3013	0.5408	0.75049	-0.042
Mof_C 	C 	0.215	0.7306	0.63112	-0.066
Mof_C 	C 	0.2896	0.5462	0.71156	-0.078
Mof_C 	C 	0.3284	0.5793	0.77014	-0.008
Mof_C 	C 	0.2435	0.687	0.63999	-0.043
Mof_C 	C 	0.2311	0.7632	0.60143	0.011
Mof_C 	C 	0.3044	0.5887	0.69073	0.096
Mof_H 	H 	0.2709	0.5199	0.6987	0.074
Mof_H 	H 	0.3382	0.575	0.7967	0.066
Mof_C 	C 	0.3407	0.6237	0.7502	-0.047
Mof_H 	H 	0.2325	0.6646	0.6602	0.069
Mof_C 	C 	0.288	0.6763	0.61906	0.043
Mof_C 	C 	0.2767	0.7542	0.5822	-0.063
Mof_H 	H 	0.2106	0.7917	0.5943	0.063
Mof_N 	N 	0.2941	0.5897	0.64898	-0.179
Mof_C 	C 	0.3282	0.6282	0.71068	-0.074
Mof_C 	C 	0.3664	0.6662	0.77215	0.345
Mof_C 	C 	0.305	0.7105	0.59109	-0.05
Mof_C 	C 	0.3169	0.6297	0.62541	-0.083
Mof_C 	C 	0.2958	0.7905	0.55206	0.34
Mof_H 	H 	0.2743	0.5664	0.6382	0.114
Mof_H 	H 	0.3361	0.659	0.6972	0.074
Mof_O 	O 	0.38806	0.65438	0.80353	-0.4
Mof_H 	H 	0.3363	0.7042	0.5778	0.06
Mof_H 	H 	0.3498	0.6393	0.6377	0.059
Mof_H 	H 	0.3249	0.6149	0.5994	0.056
Mof_O 	O 	0.26377	0.82415	0.54036	-0.375
Mof_O 	O 	0.34053	0.7857	0.53978	-0.403
Mof_O 	O 	0.06062	0.68027	0.68874	-0.396
Mof_O 	O 	0.91887	0.69235	0.54041	-0.374
Mof_O 	O 	0.88168	0.61453	0.54088	-0.398
Mof_C 	C 	0.9133	0.6471	0.55286	0.331
Mof_C 	C 	0.947	0.6314	0.58679	-0.04
Mof_C 	C 	0.9468	0.5811	0.5999	-0.072
Mof_C 	C 	0.9783	0.6672	0.60506	-0.007
Mof_H 	H 	0.9247	0.5569	0.5879	0.08
Mof_C 	C 	0.9782	0.5658	0.63	0.092
Mof_C 	C 	0.0083	0.6527	0.6365	-0.049
Mof_H 	H 	0.9791	0.7016	0.596	0.07
Mof_C 	C 	0.008	0.6026	0.6494	-0.064
Mof_N 	N 	0.9797	0.5116	0.6396	-0.082
Mof_C 	C 	0.0392	0.693	0.65703	0.343
Mof_H 	H 	0.0279	0.593	0.6715	0.08
Mof_O 	O 	0.04258	0.73575	0.64068	-0.402
Mof_O 	O 	0.2047	0.9077	0.4852	-0.509
Mof_H 	H 	0.2021	0.9368	0.4961	0.185
Mof_Cu	Cu	0.23092	0.40023	0.21879	0.903
Mof_O 	O 	0.96367	0.24558	0.25629	-0.401
Mof_O 	O 	0.21854	0.34066	0.18461	-0.401
Mof_Cu	Cu	0.29635	0.42501	0.16343	0.906
Mof_O 	O 	0.20993	0.13475	0.25681	-0.397
Mof_C 	C 	0.9931	0.2142	0.27267	0.342
Mof_C 	C 	0.2429	0.3323	0.15352	0.351
Mof_O 	O 	0.986	0.19243	0.30499	-0.403
Mof_O 	O 	0.27691	0.36093	0.13915	-0.404
Mof_C 	C 	0.0408	0.1987	0.25049	-0.043
Mof_C 	C 	0.2306	0.285	0.13112	-0.069
Mof_C 	C 	0.0462	0.2104	0.21156	-0.078
Mof_C 	C 	0.0793	0.1716	0.27014	-0.007
Mof_C 	C 	0.187	0.2565	0.13999	-0.041
Mof_C 	C 	0.2632	0.2689	0.10143	0.012
Mof_C 	C 	0.0887	0.1956	0.19073	0.095
Mof_H 	H 	0.0199	0.2291	0.1987	0.073
Mof_H 	H 	0.075	0.1618	0.2967	0.065
Mof_C 	C 	0.1237	0.1593	0.2502	-0.048
Mof_H 	H 	0.1646	0.2675	0.1602	0.068
Mof_C 	C 	0.1763	0.212	0.11906	0.038
Mof_C 	C 	0.2542	0.2233	0.0822	-0.068
Mof_H 	H 	0.2917	0.2894	0.0943	0.061
Mof_N 	N 	0.0897	0.2059	0.14898	-0.179
Mof_C 	C 	0.1282	0.1718	0.21068	-0.073
Mof_C 	C 	0.1662	0.1336	0.27215	0.346
Mof_C 	C 	0.2105	0.195	0.09109	-0.048
Mof_C 	C 	0.1297	0.1831	0.12541	-0.08
Mof_C 	C 	0.2905	0.2042	0.05206	0.34
Mof_H 	H 	0.0664	0.2257	0.1382	0.112
Mof_H 	H 	0.159	0.1639	0.1972	0.074
Mof_O 	O 	0.15438	0.11194	0.30353	-0.401
Mof_H 	H 	0.2042	0.1637	0.0778	0.056
Mof_H 	H 	0.1393	0.1502	0.1377	0.057
Mof_H 	H 	0.1149	0.1751	0.0994	0.051
Mof_O 	O 	0.32415	0.23623	0.04036	-0.381
Mof_O 	O 	0.2857	0.15947	0.03978	-0.411
Mof_O 	O 	0.18027	0.43938	0.18874	-0.396
Mof_O 	O 	0.19235	0.58113	0.04041	-0.381
Mof_O 	O 	0.11453	0.61832	0.04088	-0.406
Mof_C 	C 	0.1471	0.5867	0.05286	0.331
Mof_C 	C 	0.1314	0.553	0.08679	-0.044
Mof_C 	C 	0.0811	0.5532	0.0999	-0.071
Mof_C 	C 	0.1672	0.5217	0.10506	-0.006
Mof_H 	H 	0.0569	0.5753	0.0879	0.077
Mof_C 	C 	0.0658	0.5218	0.13	0.09
Mof_C 	C 	0.1527	0.4917	0.1365	-0.051
Mof_H 	H 	0.2016	0.5209	0.096	0.067
Mof_C 	C 	0.1026	0.492	0.1494	-0.063
Mof_N 	N 	0.0116	0.5203	0.1396	-0.083
Mof_C 	C 	0.193	0.4608	0.15703	0.344
Mof_H 	H 	0.093	0.4721	0.1715	0.079
Mof_O 	O 	0.23575	0.45742	0.14068	-0.404
Mof_O 	O 	0.4077	0.2953	0.9852	-0.412
Mof_H 	H 	0.4368	0.2979	0.9961	0.115
Mof_Cu	Cu	0.73092	0.90023	0.71879	0.902
Mof_O 	O 	0.46367	0.74558	0.75629	-0.401
Mof_O 	O 	0.71854	0.84066	0.68461	-0.401
Mof_Cu	Cu	0.79635	0.92501	0.66343	0.907
Mof_O 	O 	0.70993	0.63475	0.75681	-0.397
Mof_C 	C 	0.4931	0.7142	0.77267	0.342
Mof_C 	C 	0.7429	0.8323	0.65352	0.35
Mof_O 	O 	0.486	0.69243	0.80499	-0.402
Mof_O 	O 	0.77691	0.86093	0.63915	-0.402
Mof_C 	C 	0.5408	0.6987	0.75049	-0.042
Mof_C 	C 	0.7306	0.785	0.63112	-0.066
Mof_C 	C 	0.5462	0.7104	0.71156	-0.078
Mof_C 	C 	0.5793	0.6716	0.77014	-0.008
Mof_C 	C 	0.687	0.7565	0.63999	-0.043
Mof_C 	C 	0.7632	0.7689	0.60143	0.011
Mof_C 	C 	0.5887	0.6956	0.69073	0.096
Mof_H 	H 	0.5199	0.7291	0.6987	0.074
Mof_H 	H 	0.575	0.6618	0.7967	0.066
Mof_C 	C 	0.6237	0.6593	0.7502	-0.047
Mof_H 	H 	0.6646	0.7675	0.6602	0.069
Mof_C 	C 	0.6763	0.712	0.61906	0.043
Mof_C 	C 	0.7542	0.7233	0.5822	-0.063
Mof_H 	H 	0.7917	0.7894	0.5943	0.063
Mof_N 	N 	0.5897	0.7059	0.64898	-0.179
Mof_C 	C 	0.6282	0.6718	0.71068	-0.074
Mof_C 	C 	0.6662	0.6336	0.77215	0.345
Mof_C 	C 	0.7105	0.695	0.59109	-0.05
Mof_C 	C 	0.6297	0.6831	0.62541	-0.083
Mof_C 	C 	0.7905	0.7042	0.55206	0.34
Mof_H 	H 	0.5664	0.7257	0.6382	0.114
Mof_H 	H 	0.659	0.6639	0.6972	0.074
Mof_O 	O 	0.65438	0.61194	0.80353	-0.4
Mof_H 	H 	0.7042	0.6637	0.5778	0.06
Mof_H 	H 	0.6393	0.6502	0.6377	0.059
Mof_H 	H 	0.6149	0.6751	0.5994	0.056
Mof_O 	O 	0.82415	0.73623	0.54036	-0.375
Mof_O 	O 	0.7857	0.65947	0.53978	-0.403
Mof_O 	O 	0.68027	0.93938	0.68874	-0.396
Mof_O 	O 	0.69235	0.08113	0.54041	-0.374
Mof_O 	O 	0.61453	0.11832	0.54088	-0.398
Mof_C 	C 	0.6471	0.0867	0.55286	0.331
Mof_C 	C 	0.6314	0.053	0.58679	-0.04
Mof_C 	C 	0.5811	0.0532	0.5999	-0.072
Mof_C 	C 	0.6672	0.0217	0.60506	-0.007
Mof_H 	H 	0.5569	0.0753	0.5879	0.08
Mof_C 	C 	0.5658	0.0218	0.63	0.092
Mof_C 	C 	0.6527	0.9917	0.6365	-0.049
Mof_H 	H 	0.7016	0.0209	0.596	0.07
Mof_C 	C 	0.6026	0.992	0.6494	-0.064
Mof_N 	N 	0.5116	0.0203	0.6396	-0.082
Mof_C 	C 	0.693	0.9608	0.65703	0.343
Mof_H 	H 	0.593	0.9721	0.6715	0.08
Mof_O 	O 	0.73575	0.95742	0.64068	-0.402
Mof_O 	O 	0.9077	0.7953	0.4852	-0.509
Mof_H 	H 	0.9368	0.7979	0.4961	0.185
Mof_Cu	Cu	0.76908	0.59977	0.21879	0.903
Mof_O 	O 	0.03633	0.75442	0.25629	-0.401
Mof_O 	O 	0.78146	0.65934	0.18461	-0.401
Mof_Cu	Cu	0.70365	0.57499	0.16343	0.906
Mof_O 	O 	0.79007	0.86525	0.25681	-0.397
Mof_C 	C 	0.0069	0.7858	0.27267	0.342
Mof_C 	C 	0.7571	0.6677	0.15352	0.351
Mof_O 	O 	0.014	0.80757	0.30499	-0.403
Mof_O 	O 	0.72309	0.63907	0.13915	-0.404
Mof_C 	C 	0.9592	0.8013	0.25049	-0.043
Mof_C 	C 	0.7694	0.715	0.13112	-0.069
Mof_C 	C 	0.9538	0.7896	0.21156	-0.078
Mof_C 	C 	0.9207	0.8284	0.27014	-0.007
Mof_C 	C 	0.813	0.7435	0.13999	-0.041
Mof_C 	C 	0.7368	0.7311	0.10143	0.012
Mof_C 	C 	0.9113	0.8044	0.19073	0.095
Mof_H 	H 	0.9801	0.7709	0.1987	0.073
Mof_H 	H 	0.925	0.8382	0.2967	0.065
Mof_C 	C 	0.8763	0.8407	0.2502	-0.048
Mof_H 	H 	0.8354	0.7325	0.1602	0.068
Mof_C 	C 	0.8237	0.788	0.11906	0.038
Mof_C 	C 	0.7458	0.7767	0.0822	-0.068
Mof_H 	H 	0.7083	0.7106	0.0943	0.061
Mof_N 	N 	0.9103	0.7941	0.14898	-0.179
Mof_C 	C 	0.8718	0.8282	0.21068	-0.073
Mof_C 	C 	0.8338	0.8664	0.27215	0.346
Mof_C 	C 	0.7895	0.805	0.09109	-0.048
Mof_C 	C 	0.8703	0.8169	0.12541	-0.08
Mof_C 	C 	0.7095	0.7958	0.05206	0.34
Mof_H 	H 	0.9336	0.7743	0.1382	0.112
Mof_H 	H 	0.841	0.8361	0.1972	0.074
Mof_O 	O 	0.84562	0.88806	0.30353	-0.401
Mof_H 	H 	0.7958	0.8363	0.0778	0.056
Mof_H 	H 	0.8607	0.8498	0.1377	0.057
Mof_H 	H 	0.8851	0.8249	0.0994	0.051
Mof_O 	O 	0.67585	0.76377	0.04036	-0.381
Mof_O 	O 	0.7143	0.84053	0.03978	-0.411
Mof_O 	O 	0.81973	0.56062	0.18874	-0.396
Mof_O 	O 	0.80765	0.41887	0.04041	-0.381
Mof_O 	O 	0.88547	0.38168	0.04088	-0.406
Mof_C 	C 	0.8529	0.4133	0.05286	0.331
Mof_C 	C 	0.8686	0.447	0.08679	-0.044
Mof_C 	C 	0.9189	0.4468	0.0999	-0.071
Mof_C 	C 	0.8328	0.4783	0.10506	-0.006
Mof_H 	H 	0.9431	0.4247	0.0879	0.077
Mof_C 	C 	0.9342	0.4782	0.13	0.09
Mof_C 	C 	0.8473	0.5083	0.1365	-0.051
Mof_H 	H 	0.7984	0.4791	0.096	0.067
Mof_C 	C 	0.8974	0.508	0.1494	-0.063
Mof_N 	N 	0.9884	0.4797	0.1396	-0.083
Mof_C 	C 	0.807	0.5392	0.15703	0.344
Mof_H 	H 	0.907	0.5279	0.1715	0.079
Mof_O 	O 	0.76425	0.54258	0.14068	-0.404
Mof_O 	O 	0.5923	0.7047	0.9852	-0.412
Mof_H 	H 	0.5632	0.7021	0.9961	0.115
Mof_Cu	Cu	0.26908	0.09977	0.71879	0.902
Mof_O 	O 	0.53633	0.25442	0.75629	-0.401
Mof_O 	O 	0.28146	0.15934	0.68461	-0.401
Mof_Cu	Cu	0.20365	0.07499	0.66343	0.907
Mof_O 	O 	0.29007	0.36525	0.75681	-0.397
Mof_C 	C 	0.5069	0.2858	0.77267	0.342
Mof_C 	C 	0.2571	0.1677	0.65352	0.35
Mof_O 	O 	0.514	0.30757	0.80499	-0.402
Mof_O 	O 	0.22309	0.13907	0.63915	-0.402
Mof_C 	C 	0.4592	0.3013	0.75049	-0.042
Mof_C 	C 	0.2694	0.215	0.63112	-0.066
Mof_C 	C 	0.4538	0.2896	0.71156	-0.078
Mof_C 	C 	0.4207	0.3284	0.77014	-0.008
Mof_C 	C 	0.313	0.2435	0.63999	-0.043
Mof_C 	C 	0.2368	0.2311	0.60143	0.011
Mof_C 	C 	0.4113	0.3044	0.69073	0.096
Mof_H 	H 	0.4801	0.2709	0.6987	0.074
Mof_H 	H 	0.425	0.3382	0.7967	0.066
Mof_C 	C 	0.3763	0.3407	0.7502	-0.047
Mof_H 	H 	0.3354	0.2325	0.6602	0.069
Mof_C 	C 	0.3237	0.288	0.61906	0.043
Mof_C 	C 	0.2458	0.2767	0.5822	-0.063
Mof_H 	H 	0.2083	0.2106	0.5943	0.063
Mof_N 	N 	0.4103	0.2941	0.64898	-0.179
Mof_C 	C 	0.3718	0.3282	0.71068	-0.074
Mof_C 	C 	0.3338	0.3664	0.77215	0.345
Mof_C 	C 	0.2895	0.305	0.59109	-0.05
Mof_C 	C 	0.3703	0.3169	0.62541	-0.083
Mof_C 	C 	0.2095	0.2958	0.55206	0.34
Mof_H 	H 	0.4336	0.2743	0.6382	0.114
Mof_H 	H 	0.341	0.3361	0.6972	0.074
Mof_O 	O 	0.34562	0.38806	0.80353	-0.4
Mof_H 	H 	0.2958	0.3363	0.5778	0.06
Mof_H 	H 	0.3607	0.3498	0.6377	0.059
Mof_H 	H 	0.3851	0.3249	0.5994	0.056
Mof_O 	O 	0.17585	0.26377	0.54036	-0.375
Mof_O 	O 	0.2143	0.34053	0.53978	-0.403
Mof_O 	O 	0.31973	0.06062	0.68874	-0.396
Mof_O 	O 	0.30765	0.91887	0.54041	-0.374
Mof_O 	O 	0.38547	0.88168	0.54088	-0.398
Mof_C 	C 	0.3529	0.9133	0.55286	0.331
Mof_C 	C 	0.3686	0.947	0.58679	-0.04
Mof_C 	C 	0.4189	0.9468	0.5999	-0.072
Mof_C 	C 	0.3328	0.9783	0.60506	-0.007
Mof_H 	H 	0.4431	0.9247	0.5879	0.08
Mof_C 	C 	0.4342	0.9782	0.63	0.092
Mof_C 	C 	0.3473	0.0083	0.6365	-0.049
Mof_H 	H 	0.2984	0.9791	0.596	0.07
Mof_C 	C 	0.3974	0.008	0.6494	-0.064
Mof_N 	N 	0.4884	0.9797	0.6396	-0.082
Mof_C 	C 	0.307	0.0392	0.65703	0.343
Mof_H 	H 	0.407	0.0279	0.6715	0.08
Mof_O 	O 	0.26425	0.04258	0.64068	-0.402
Mof_O 	O 	0.0923	0.2047	0.4852	-0.509
Mof_H 	H 	0.0632	0.2021	0.4961	0.185
Mof_Cu	Cu	0.77905	0.37512	-0	0.93
Mof_Cu	Cu	0.87014	0.33081	-0	0.887
Mof_H 	H 	0.6859	0.3888	-0	0.418
Mof_Cu	Cu	0.27905	0.87512	0.5	0.947
Mof_Cu	Cu	0.37014	0.83081	0.5	0.902
Mof_H 	H 	0.1859	0.8888	0.5	0.458
Mof_Cu	Cu	0.22095	0.62488	-0	0.93
Mof_Cu	Cu	0.12986	0.66919	-0	0.887
Mof_H 	H 	0.3141	0.6112	-0	0.418
Mof_Cu	Cu	0.72095	0.12488	0.5	0.947
Mof_Cu	Cu	0.62986	0.16919	0.5	0.902
Mof_H 	H 	0.8141	0.1112	0.5	0.458
Mof_Cu	Cu	0.62488	0.77905	-0	0.93
Mof_Cu	Cu	0.66919	0.87014	-0	0.887
Mof_H 	H 	0.6112	0.6859	-0	0.418
Mof_Cu	Cu	0.12488	0.27905	0.5	0.947
Mof_Cu	Cu	0.16919	0.37014	0.5	0.902
Mof_H 	H 	0.1112	0.1859	0.5	0.458
Mof_Cu	Cu	0.37512	0.22095	-0	0.93
Mof_Cu	Cu	0.33081	0.12986	-0	0.887
Mof_H 	H 	0.3888	0.3141	-0	0.418
Mof_Cu	Cu	0.87512	0.72095	0.5	0.947
Mof_Cu	Cu	0.83081	0.62986	0.5	0.902
Mof_H 	H 	0.8888	0.8141	0.5	0.458
_end
