data_functionalizedCrystal
_audit_creation_method	'EQeq! by Chris Wilmer'
_symmetry_space_group_name_H-M	'P1'
_symmetry_Int_Tables_number	1
_symmetry_cell_setting	triclinic
loop_
_symmetry_equiv_pos_as_xyz
  x,y,z
_cell_length_a	16.7295
_cell_length_b	18.1404
_cell_length_c	33.4739
_cell_angle_alpha	90
_cell_angle_beta	90
_cell_angle_gamma	117.459
loop_
_atom_site_label
_atom_site_type_symbol
_atom_site_fract_x
_atom_site_fract_y
_atom_site_fract_z
_atom_site_charge
Mof_Dy	Dy	0.73307	0.46615	0.25	2.482
Mof_Dy	Dy	0.26693	0.53385	0.25	2.47
Mof_Dy	Dy	0.26693	0.53385	0.75	2.47
Mof_Dy	Dy	0.73307	0.46615	0.75	2.482
Mof_Dy	Dy	-1.4069e-17	0.5	0.28377	2.097
Mof_Dy	Dy	0.5	0.5	0.21623	2.289
Mof_Dy	Dy	-6.19436e-17	0.5	0.71623	2.097
Mof_Dy	Dy	0.5	0.5	0.78377	2.29
Mof_Zn	Zn	0.6449	0.05994	-0	1.172
Mof_Zn	Zn	0.3551	0.94006	-0	1.169
Mof_Zn	Zn	0.41504	0.05994	0.5	1.172
Mof_Zn	Zn	0.58496	0.94006	0.5	1.173
Mof_Zn	Zn	-0	0	0.5	1.153
Mof_Zn	Zn	-0	0	-0	1.15
Mof_H 	H 	0.8207	0.3646	0.0366	0.073
Mof_H 	H 	0.7249	0.1296	0.1466	0.066
Mof_H 	H 	0.6329	0.9796	0.1457	0.059
Mof_H 	H 	0.4374	0.7596	0.0354	0.068
Mof_H 	H 	0.8826	0.236	0.1167	0.127
Mof_H 	H 	0.9452	0.3224	0.1711	0.001
Mof_H 	H 	0.7686	0.41	0.159	-0.051
Mof_H 	H 	0.7127	0.3318	0.1011	0.118
Mof_H 	H 	0.4516	0.8826	0.1362	0.124
Mof_H 	H 	0.3989	0.7726	0.1823	-0.024
Mof_H 	H 	0.542	0.6774	0.1272	-0.037
Mof_H 	H 	0.5929	0.786	0.0809	0.113
Mof_H 	H 	0.9016	0.6988	0.4632	0.063
Mof_H 	H 	0.98	0.9266	0.3526	0.026
Mof_H 	H 	0.7647	0.6298	0.3532	-0.012
Mof_H 	H 	0.791	0.7278	0.403	0.105
Mof_H 	H 	0.0219	0.7064	0.3374	-0.099
Mof_H 	H 	0.0538	0.8158	0.3815	0.033
Mof_H 	H 	0.1793	0.6354	0.0366	0.06
Mof_H 	H 	0.2751	0.8704	0.1466	0.058
Mof_H 	H 	0.3671	0.0204	0.1457	0.066
Mof_H 	H 	0.5626	0.2404	0.0354	0.07
Mof_H 	H 	0.1174	0.764	0.1167	0.105
Mof_H 	H 	0.0548	0.6776	0.1711	-0.037
Mof_H 	H 	0.2314	0.59	0.159	-0.058
Mof_H 	H 	0.2873	0.6682	0.1011	0.119
Mof_H 	H 	0.5484	0.1174	0.1362	0.126
Mof_H 	H 	0.6011	0.2274	0.1823	-0.024
Mof_H 	H 	0.458	0.3226	0.1272	-0.037
Mof_H 	H 	0.4071	0.214	0.0809	0.112
Mof_H 	H 	0.0984	0.3012	0.4632	0.053
Mof_H 	H 	0.02	0.0734	0.3526	0.103
Mof_H 	H 	0.2353	0.3702	0.3532	-0.009
Mof_H 	H 	0.209	0.2722	0.403	0.112
Mof_H 	H 	0.9781	0.2936	0.3374	0.057
Mof_H 	H 	0.9462	0.1842	0.3815	0.192
Mof_H 	H 	0.5439	0.3646	0.4634	0.061
Mof_H 	H 	0.4047	0.1296	0.3534	0.064
Mof_H 	H 	0.3467	0.9796	0.3543	0.055
Mof_H 	H 	0.3222	0.7596	0.4646	0.057
Mof_H 	H 	0.3534	0.236	0.3833	0.116
Mof_H 	H 	0.3772	0.3224	0.3289	-0.02
Mof_H 	H 	0.6414	0.41	0.341	-0.054
Mof_H 	H 	0.6191	0.3318	0.3989	0.122
Mof_H 	H 	0.431	0.8826	0.3638	0.123
Mof_H 	H 	0.3737	0.7726	0.3177	-0.023
Mof_H 	H 	0.1354	0.6774	0.3728	-0.044
Mof_H 	H 	0.1931	0.786	0.4191	0.103
Mof_H 	H 	0.7972	0.6988	0.0368	0.065
Mof_H 	H 	0.9466	0.9266	0.1474	0.028
Mof_H 	H 	0.8651	0.6298	0.1468	-0.002
Mof_H 	H 	0.9368	0.7278	0.097	0.123
Mof_H 	H 	0.6845	0.7064	0.1626	-0.023
Mof_H 	H 	0.762	0.8158	0.1185	0.115
Mof_H 	H 	0.4561	0.6354	0.4634	0.059
Mof_H 	H 	0.5953	0.8704	0.3534	0.062
Mof_H 	H 	0.6533	0.0204	0.3543	0.071
Mof_H 	H 	0.6778	0.2404	0.4646	0.062
Mof_H 	H 	0.6466	0.764	0.3833	0.119
Mof_H 	H 	0.6228	0.6776	0.3289	-0.017
Mof_H 	H 	0.3586	0.59	0.341	-0.055
Mof_H 	H 	0.3809	0.6682	0.3989	0.118
Mof_H 	H 	0.569	0.1174	0.3638	0.123
Mof_H 	H 	0.6263	0.2274	0.3177	-0.021
Mof_H 	H 	0.8646	0.3226	0.3728	-0.02
Mof_H 	H 	0.8069	0.214	0.4191	0.121
Mof_H 	H 	0.2028	0.3012	0.0368	0.063
Mof_H 	H 	0.0534	0.0734	0.1474	0.103
Mof_H 	H 	0.1349	0.3702	0.1468	-0.025
Mof_H 	H 	0.0632	0.2722	0.097	0.097
Mof_H 	H 	0.3155	0.2936	0.1626	-0.028
Mof_H 	H 	0.238	0.1842	0.1185	0.115
Mof_H 	H 	0.1793	0.6354	0.9634	0.047
Mof_H 	H 	0.2751	0.8704	0.8534	0.057
Mof_H 	H 	0.3671	0.0204	0.8543	0.067
Mof_H 	H 	0.5626	0.2404	0.9646	0.05
Mof_H 	H 	0.1174	0.764	0.8833	0.105
Mof_H 	H 	0.0548	0.6776	0.8289	-0.037
Mof_H 	H 	0.2314	0.59	0.841	-0.058
Mof_H 	H 	0.2873	0.6682	0.8989	0.12
Mof_H 	H 	0.5484	0.1174	0.8638	0.125
Mof_H 	H 	0.6011	0.2274	0.8177	-0.024
Mof_H 	H 	0.458	0.3226	0.8728	-0.036
Mof_H 	H 	0.4071	0.214	0.9191	0.114
Mof_H 	H 	0.0984	0.3012	0.5368	0.053
Mof_H 	H 	0.02	0.0734	0.6474	0.103
Mof_H 	H 	0.2353	0.3702	0.6468	-0.009
Mof_H 	H 	0.209	0.2722	0.597	0.112
Mof_H 	H 	0.9781	0.2936	0.6626	0.057
Mof_H 	H 	0.9462	0.1842	0.6185	0.192
Mof_H 	H 	0.8207	0.3646	0.9634	0.061
Mof_H 	H 	0.7249	0.1296	0.8534	0.068
Mof_H 	H 	0.6329	0.9796	0.8543	0.059
Mof_H 	H 	0.4374	0.7596	0.9646	0.049
Mof_H 	H 	0.8826	0.236	0.8833	0.129
Mof_H 	H 	0.9452	0.3224	0.8289	0.001
Mof_H 	H 	0.7686	0.41	0.841	-0.051
Mof_H 	H 	0.7127	0.3318	0.8989	0.119
Mof_H 	H 	0.4516	0.8826	0.8638	0.123
Mof_H 	H 	0.3989	0.7726	0.8177	-0.024
Mof_H 	H 	0.542	0.6774	0.8728	-0.036
Mof_H 	H 	0.5929	0.786	0.9191	0.114
Mof_H 	H 	0.9016	0.6988	0.5368	0.063
Mof_H 	H 	0.98	0.9266	0.6474	0.026
Mof_H 	H 	0.7647	0.6298	0.6468	-0.012
Mof_H 	H 	0.791	0.7278	0.597	0.105
Mof_H 	H 	0.0219	0.7064	0.6626	-0.099
Mof_H 	H 	0.0538	0.8158	0.6185	0.033
Mof_H 	H 	0.4561	0.6354	0.5366	0.059
Mof_H 	H 	0.5953	0.8704	0.6466	0.061
Mof_H 	H 	0.6533	0.0204	0.6457	0.071
Mof_H 	H 	0.6778	0.2404	0.5354	0.062
Mof_H 	H 	0.6466	0.764	0.6167	0.119
Mof_H 	H 	0.6228	0.6776	0.6711	-0.017
Mof_H 	H 	0.3586	0.59	0.659	-0.055
Mof_H 	H 	0.3809	0.6682	0.6011	0.118
Mof_H 	H 	0.569	0.1174	0.6362	0.123
Mof_H 	H 	0.6263	0.2274	0.6823	-0.021
Mof_H 	H 	0.8646	0.3226	0.6272	-0.02
Mof_H 	H 	0.8069	0.214	0.5809	0.121
Mof_H 	H 	0.2028	0.3012	0.9632	0.051
Mof_H 	H 	0.0534	0.0734	0.8526	0.102
Mof_H 	H 	0.1349	0.3702	0.8532	-0.024
Mof_H 	H 	0.0632	0.2722	0.903	0.098
Mof_H 	H 	0.3155	0.2936	0.8374	-0.028
Mof_H 	H 	0.238	0.1842	0.8815	0.115
Mof_H 	H 	0.5439	0.3646	0.5366	0.061
Mof_H 	H 	0.4047	0.1296	0.6466	0.064
Mof_H 	H 	0.3467	0.9796	0.6457	0.054
Mof_H 	H 	0.3222	0.7596	0.5354	0.057
Mof_H 	H 	0.3534	0.236	0.6167	0.116
Mof_H 	H 	0.3772	0.3224	0.6711	-0.02
Mof_H 	H 	0.6414	0.41	0.659	-0.054
Mof_H 	H 	0.6191	0.3318	0.6011	0.122
Mof_H 	H 	0.431	0.8826	0.6362	0.123
Mof_H 	H 	0.3737	0.7726	0.6823	-0.023
Mof_H 	H 	0.1354	0.6774	0.6272	-0.044
Mof_H 	H 	0.1931	0.786	0.5809	0.103
Mof_H 	H 	0.7972	0.6988	0.9632	0.054
Mof_H 	H 	0.9466	0.9266	0.8526	0.028
Mof_H 	H 	0.8651	0.6298	0.8532	-0.001
Mof_H 	H 	0.9368	0.7278	0.903	0.124
Mof_H 	H 	0.6845	0.7064	0.8374	-0.023
Mof_H 	H 	0.762	0.8158	0.8815	0.115
Mof_C 	C 	0.79426	0.31852	0.01995	-0.112
Mof_C 	C 	0.74611	0.23442	0.03273	0.117
Mof_C 	C 	0.74166	0.20752	0.07212	-0.177
Mof_C 	C 	0.69972	0.12624	0.08356	0.108
Mof_C 	C 	0.6972	0.0972	0.1243	-0.093
Mof_C 	C 	0.6455	0.0146	0.1238	-0.08
Mof_C 	C 	0.61384	0.99068	0.0836	0.098
Mof_C 	C 	0.5578	0.9102	0.0717	-0.174
Mof_C 	C 	0.5336	0.8856	0.0321	0.091
Mof_C 	C 	0.47291	0.80402	0.0189	-0.129
Mof_C 	C 	0.7894	0.2716	0.10422	0.197
Mof_C 	C 	0.8603	0.272	0.1245	-0.252
Mof_C 	C 	0.8955	0.321	0.1581	0.177
Mof_C 	C 	0.8596	0.3714	0.1711	-0.258
Mof_C 	C 	0.792	0.3754	0.15007	0.197
Mof_C 	C 	0.75677	0.32694	0.11606	-0.256
Mof_C 	C 	0.8887	0.415	0.2101	0.508
Mof_C 	C 	0.5255	0.8428	0.1041	0.192
Mof_C 	C 	0.4694	0.8414	0.1343	-0.259
Mof_C 	C 	0.4386	0.7758	0.1622	0.184
Mof_C 	C 	0.4668	0.7184	0.1603	-0.259
Mof_C 	C 	0.5255	0.7196	0.129	0.164
Mof_C 	C 	0.5534	0.7826	0.1011	-0.255
Mof_C 	C 	0.436	0.6472	0.191	0.561
Mof_C 	C 	0.9155	0.7452	0.4802	-0.085
Mof_C 	C 	0.9394	0.8256	0.4683	0.11
Mof_C 	C 	0.9485	0.8524	0.4274	-0.152
Mof_C 	C 	0.9765	0.9314	0.4152	0.11
Mof_C 	C 	0.9882	0.96	0.3749	0.066
Mof_C 	C 	0.9275	0.786	0.3968	0.149
Mof_C 	C 	0.8237	0.6662	0.36	0.165
Mof_C 	C 	0.8385	0.728	0.3886	-0.224
Mof_C 	C 	0.8912	0.6578	0.3421	-0.271
Mof_C 	C 	0.9754	0.7116	0.3501	0.261
Mof_C 	C 	0.9944	0.7766	0.3773	-0.151
Mof_C 	C 	0.8707	0.5866	0.3132	0.5
Mof_C 	C 	0.20574	0.68148	0.01995	-0.119
Mof_C 	C 	0.25389	0.76558	0.03273	0.11
Mof_C 	C 	0.25834	0.79248	0.07212	-0.182
Mof_C 	C 	0.30028	0.87376	0.08356	0.1
Mof_C 	C 	0.3028	0.9028	0.1243	-0.086
Mof_C 	C 	0.3545	0.9854	0.1238	-0.104
Mof_C 	C 	0.38616	0.00932	0.0836	0.109
Mof_C 	C 	0.4422	0.0898	0.0717	-0.18
Mof_C 	C 	0.4664	0.1144	0.0321	0.092
Mof_C 	C 	0.52709	0.19598	0.0189	-0.13
Mof_C 	C 	0.2106	0.7284	0.10422	0.196
Mof_C 	C 	0.1397	0.728	0.1245	-0.271
Mof_C 	C 	0.1045	0.679	0.1581	0.182
Mof_C 	C 	0.1404	0.6286	0.1711	-0.285
Mof_C 	C 	0.208	0.6246	0.15007	0.203
Mof_C 	C 	0.24323	0.67306	0.11606	-0.268
Mof_C 	C 	0.1113	0.585	0.2101	0.512
Mof_C 	C 	0.4745	0.1572	0.1041	0.194
Mof_C 	C 	0.5306	0.1586	0.1343	-0.261
Mof_C 	C 	0.5614	0.2242	0.1622	0.184
Mof_C 	C 	0.5332	0.2816	0.1603	-0.26
Mof_C 	C 	0.4745	0.2804	0.129	0.164
Mof_C 	C 	0.4466	0.2174	0.1011	-0.257
Mof_C 	C 	0.564	0.3528	0.191	0.562
Mof_C 	C 	0.0845	0.2548	0.4802	-0.1
Mof_C 	C 	0.0606	0.1744	0.4683	0.112
Mof_C 	C 	0.0515	0.1476	0.4274	-0.224
Mof_C 	C 	0.0235	0.0686	0.4152	0.149
Mof_C 	C 	0.0118	0.04	0.3749	-0.253
Mof_C 	C 	0.0725	0.214	0.3968	0.218
Mof_C 	C 	0.1763	0.3338	0.36	0.147
Mof_C 	C 	0.1615	0.272	0.3886	-0.248
Mof_C 	C 	0.1088	0.3422	0.3421	-0.217
Mof_C 	C 	0.0246	0.2884	0.3501	0.075
Mof_C 	C 	0.0056	0.2234	0.3773	-0.341
Mof_C 	C 	0.1293	0.4134	0.3132	0.475
Mof_C 	C 	0.52426	0.31852	0.48005	-0.089
Mof_C 	C 	0.48831	0.23442	0.46727	0.107
Mof_C 	C 	0.46586	0.20752	0.42788	-0.178
Mof_C 	C 	0.42652	0.12624	0.41644	0.105
Mof_C 	C 	0.4	0.0972	0.3757	-0.097
Mof_C 	C 	0.3691	0.0146	0.3762	-0.08
Mof_C 	C 	0.37684	0.99068	0.4164	0.092
Mof_C 	C 	0.3524	0.9102	0.4283	-0.17
Mof_C 	C 	0.352	0.8856	0.4679	0.079
Mof_C 	C 	0.33111	0.80402	0.4811	-0.096
Mof_C 	C 	0.4822	0.2716	0.39578	0.197
Mof_C 	C 	0.4117	0.272	0.3755	-0.263
Mof_C 	C 	0.4255	0.321	0.3419	0.181
Mof_C 	C 	0.5118	0.3714	0.3289	-0.275
Mof_C 	C 	0.5834	0.3754	0.34993	0.202
Mof_C 	C 	0.57017	0.32694	0.38394	-0.263
Mof_C 	C 	0.5263	0.415	0.2899	0.516
Mof_C 	C 	0.3173	0.8428	0.3959	0.185
Mof_C 	C 	0.372	0.8414	0.3657	-0.255
Mof_C 	C 	0.3372	0.7758	0.3378	0.178
Mof_C 	C 	0.2516	0.7184	0.3397	-0.256
Mof_C 	C 	0.1941	0.7196	0.371	0.157
Mof_C 	C 	0.2292	0.7826	0.3989	-0.252
Mof_C 	C 	0.2112	0.6472	0.309	0.552
Mof_C 	C 	0.8297	0.7452	0.0198	-0.114
Mof_C 	C 	0.8862	0.8256	0.0317	0.12
Mof_C 	C 	0.9039	0.8524	0.0726	-0.175
Mof_C 	C 	0.9549	0.9314	0.0848	0.118
Mof_C 	C 	0.9718	0.96	0.1251	0.056
Mof_C 	C 	0.8585	0.786	0.1032	0.185
Mof_C 	C 	0.8425	0.6662	0.14	0.163
Mof_C 	C 	0.8895	0.728	0.1114	-0.233
Mof_C 	C 	0.7666	0.6578	0.1579	-0.248
Mof_C 	C 	0.7362	0.7116	0.1499	0.174
Mof_C 	C 	0.7822	0.7766	0.1227	-0.247
Mof_C 	C 	0.7159	0.5866	0.1868	0.499
Mof_C 	C 	0.47574	0.68148	0.48005	-0.09
Mof_C 	C 	0.51169	0.76558	0.46727	0.107
Mof_C 	C 	0.53414	0.79248	0.42788	-0.175
Mof_C 	C 	0.57348	0.87376	0.41644	0.103
Mof_C 	C 	0.6	0.9028	0.3757	-0.082
Mof_C 	C 	0.6309	0.9854	0.3762	-0.101
Mof_C 	C 	0.62316	0.00932	0.4164	0.111
Mof_C 	C 	0.6476	0.0898	0.4283	-0.172
Mof_C 	C 	0.648	0.1144	0.4679	0.085
Mof_C 	C 	0.66889	0.19598	0.4811	-0.093
Mof_C 	C 	0.5178	0.7284	0.39578	0.196
Mof_C 	C 	0.5883	0.728	0.3755	-0.261
Mof_C 	C 	0.5745	0.679	0.3419	0.181
Mof_C 	C 	0.4882	0.6286	0.3289	-0.273
Mof_C 	C 	0.4166	0.6246	0.34993	0.2
Mof_C 	C 	0.42983	0.67306	0.38394	-0.261
Mof_C 	C 	0.4737	0.585	0.2899	0.515
Mof_C 	C 	0.6827	0.1572	0.3959	0.189
Mof_C 	C 	0.628	0.1586	0.3657	-0.253
Mof_C 	C 	0.6628	0.2242	0.3378	0.175
Mof_C 	C 	0.7484	0.2816	0.3397	-0.245
Mof_C 	C 	0.8059	0.2804	0.371	0.156
Mof_C 	C 	0.7708	0.2174	0.3989	-0.247
Mof_C 	C 	0.7888	0.3528	0.309	0.546
Mof_C 	C 	0.1703	0.2548	0.0198	-0.122
Mof_C 	C 	0.1138	0.1744	0.0317	0.115
Mof_C 	C 	0.0961	0.1476	0.0726	-0.211
Mof_C 	C 	0.0451	0.0686	0.0848	0.144
Mof_C 	C 	0.0282	0.04	0.1251	-0.244
Mof_C 	C 	0.1415	0.214	0.1032	0.192
Mof_C 	C 	0.1575	0.3338	0.14	0.163
Mof_C 	C 	0.1105	0.272	0.1114	-0.251
Mof_C 	C 	0.2334	0.3422	0.1579	-0.26
Mof_C 	C 	0.2638	0.2884	0.1499	0.178
Mof_C 	C 	0.2178	0.2234	0.1227	-0.26
Mof_C 	C 	0.2841	0.4134	0.1868	0.5
Mof_C 	C 	0.20574	0.68148	0.98005	-0.069
Mof_C 	C 	0.25389	0.76558	0.96727	0.106
Mof_C 	C 	0.25834	0.79248	0.92788	-0.178
Mof_C 	C 	0.30028	0.87376	0.91644	0.1
Mof_C 	C 	0.3028	0.9028	0.8757	-0.085
Mof_C 	C 	0.3545	0.9854	0.8762	-0.106
Mof_C 	C 	0.38616	0.00932	0.9164	0.11
Mof_C 	C 	0.4422	0.0898	0.9283	-0.174
Mof_C 	C 	0.4664	0.1144	0.9679	0.083
Mof_C 	C 	0.52709	0.19598	0.9811	-0.063
Mof_C 	C 	0.2106	0.7284	0.89578	0.195
Mof_C 	C 	0.1397	0.728	0.8755	-0.27
Mof_C 	C 	0.1045	0.679	0.8419	0.182
Mof_C 	C 	0.1404	0.6286	0.8289	-0.285
Mof_C 	C 	0.208	0.6246	0.84993	0.203
Mof_C 	C 	0.24323	0.67306	0.88394	-0.266
Mof_C 	C 	0.1113	0.585	0.7899	0.512
Mof_C 	C 	0.4745	0.1572	0.8959	0.191
Mof_C 	C 	0.5306	0.1586	0.8657	-0.259
Mof_C 	C 	0.5614	0.2242	0.8378	0.183
Mof_C 	C 	0.5332	0.2816	0.8397	-0.259
Mof_C 	C 	0.4745	0.2804	0.871	0.163
Mof_C 	C 	0.4466	0.2174	0.8989	-0.255
Mof_C 	C 	0.564	0.3528	0.809	0.562
Mof_C 	C 	0.0845	0.2548	0.5198	-0.1
Mof_C 	C 	0.0606	0.1744	0.5317	0.111
Mof_C 	C 	0.0515	0.1476	0.5726	-0.224
Mof_C 	C 	0.0235	0.0686	0.5848	0.148
Mof_C 	C 	0.0118	0.04	0.6251	-0.252
Mof_C 	C 	0.0725	0.214	0.6032	0.218
Mof_C 	C 	0.1763	0.3338	0.64	0.147
Mof_C 	C 	0.1615	0.272	0.6114	-0.248
Mof_C 	C 	0.1088	0.3422	0.6579	-0.217
Mof_C 	C 	0.0246	0.2884	0.6499	0.076
Mof_C 	C 	0.0056	0.2234	0.6227	-0.341
Mof_C 	C 	0.1293	0.4134	0.6868	0.476
Mof_C 	C 	0.79426	0.31852	0.98005	-0.062
Mof_C 	C 	0.74611	0.23442	0.96727	0.113
Mof_C 	C 	0.74166	0.20752	0.92788	-0.173
Mof_C 	C 	0.69972	0.12624	0.91644	0.109
Mof_C 	C 	0.6972	0.0972	0.8757	-0.094
Mof_C 	C 	0.6455	0.0146	0.8762	-0.077
Mof_C 	C 	0.61384	0.99068	0.9164	0.096
Mof_C 	C 	0.5578	0.9102	0.9283	-0.167
Mof_C 	C 	0.5336	0.8856	0.9679	0.081
Mof_C 	C 	0.47291	0.80402	0.9811	-0.062
Mof_C 	C 	0.7894	0.2716	0.89578	0.196
Mof_C 	C 	0.8603	0.272	0.8755	-0.251
Mof_C 	C 	0.8955	0.321	0.8419	0.177
Mof_C 	C 	0.8596	0.3714	0.8289	-0.257
Mof_C 	C 	0.792	0.3754	0.84993	0.197
Mof_C 	C 	0.75677	0.32694	0.88394	-0.255
Mof_C 	C 	0.8887	0.415	0.7899	0.507
Mof_C 	C 	0.5255	0.8428	0.8959	0.189
Mof_C 	C 	0.4694	0.8414	0.8657	-0.257
Mof_C 	C 	0.4386	0.7758	0.8378	0.182
Mof_C 	C 	0.4668	0.7184	0.8397	-0.257
Mof_C 	C 	0.5255	0.7196	0.871	0.162
Mof_C 	C 	0.5534	0.7826	0.8989	-0.252
Mof_C 	C 	0.436	0.6472	0.809	0.561
Mof_C 	C 	0.9155	0.7452	0.5198	-0.085
Mof_C 	C 	0.9394	0.8256	0.5317	0.11
Mof_C 	C 	0.9485	0.8524	0.5726	-0.152
Mof_C 	C 	0.9765	0.9314	0.5848	0.11
Mof_C 	C 	0.9882	0.96	0.6251	0.066
Mof_C 	C 	0.9275	0.786	0.6032	0.149
Mof_C 	C 	0.8237	0.6662	0.64	0.165
Mof_C 	C 	0.8385	0.728	0.6114	-0.224
Mof_C 	C 	0.8912	0.6578	0.6579	-0.271
Mof_C 	C 	0.9754	0.7116	0.6499	0.261
Mof_C 	C 	0.9944	0.7766	0.6227	-0.151
Mof_C 	C 	0.8707	0.5866	0.6868	0.5
Mof_C 	C 	0.47574	0.68148	0.51995	-0.09
Mof_C 	C 	0.51169	0.76558	0.53273	0.107
Mof_C 	C 	0.53414	0.79248	0.57212	-0.175
Mof_C 	C 	0.57348	0.87376	0.58356	0.102
Mof_C 	C 	0.6	0.9028	0.6243	-0.082
Mof_C 	C 	0.6309	0.9854	0.6238	-0.102
Mof_C 	C 	0.62316	0.00932	0.5836	0.111
Mof_C 	C 	0.6476	0.0898	0.5717	-0.173
Mof_C 	C 	0.648	0.1144	0.5321	0.085
Mof_C 	C 	0.66889	0.19598	0.5189	-0.093
Mof_C 	C 	0.5178	0.7284	0.60422	0.195
Mof_C 	C 	0.5883	0.728	0.6245	-0.261
Mof_C 	C 	0.5745	0.679	0.6581	0.181
Mof_C 	C 	0.4882	0.6286	0.6711	-0.273
Mof_C 	C 	0.4166	0.6246	0.65007	0.2
Mof_C 	C 	0.42983	0.67306	0.61606	-0.261
Mof_C 	C 	0.4737	0.585	0.7101	0.515
Mof_C 	C 	0.6827	0.1572	0.6041	0.189
Mof_C 	C 	0.628	0.1586	0.6343	-0.253
Mof_C 	C 	0.6628	0.2242	0.6622	0.175
Mof_C 	C 	0.7484	0.2816	0.6603	-0.245
Mof_C 	C 	0.8059	0.2804	0.629	0.156
Mof_C 	C 	0.7708	0.2174	0.6011	-0.247
Mof_C 	C 	0.7888	0.3528	0.691	0.546
Mof_C 	C 	0.1703	0.2548	0.9802	-0.073
Mof_C 	C 	0.1138	0.1744	0.9683	0.111
Mof_C 	C 	0.0961	0.1476	0.9274	-0.206
Mof_C 	C 	0.0451	0.0686	0.9152	0.144
Mof_C 	C 	0.0282	0.04	0.8749	-0.242
Mof_C 	C 	0.1415	0.214	0.8968	0.191
Mof_C 	C 	0.1575	0.3338	0.86	0.163
Mof_C 	C 	0.1105	0.272	0.8886	-0.249
Mof_C 	C 	0.2334	0.3422	0.8421	-0.259
Mof_C 	C 	0.2638	0.2884	0.8501	0.178
Mof_C 	C 	0.2178	0.2234	0.8773	-0.258
Mof_C 	C 	0.2841	0.4134	0.8132	0.501
Mof_C 	C 	0.52426	0.31852	0.51995	-0.089
Mof_C 	C 	0.48831	0.23442	0.53273	0.107
Mof_C 	C 	0.46586	0.20752	0.57212	-0.178
Mof_C 	C 	0.42652	0.12624	0.58356	0.105
Mof_C 	C 	0.4	0.0972	0.6243	-0.097
Mof_C 	C 	0.3691	0.0146	0.6238	-0.08
Mof_C 	C 	0.37684	0.99068	0.5836	0.092
Mof_C 	C 	0.3524	0.9102	0.5717	-0.17
Mof_C 	C 	0.352	0.8856	0.5321	0.078
Mof_C 	C 	0.33111	0.80402	0.5189	-0.096
Mof_C 	C 	0.4822	0.2716	0.60422	0.197
Mof_C 	C 	0.4117	0.272	0.6245	-0.263
Mof_C 	C 	0.4255	0.321	0.6581	0.182
Mof_C 	C 	0.5118	0.3714	0.6711	-0.275
Mof_C 	C 	0.5834	0.3754	0.65007	0.202
Mof_C 	C 	0.57017	0.32694	0.61606	-0.263
Mof_C 	C 	0.5263	0.415	0.7101	0.516
Mof_C 	C 	0.3173	0.8428	0.6041	0.185
Mof_C 	C 	0.372	0.8414	0.6343	-0.255
Mof_C 	C 	0.3372	0.7758	0.6622	0.178
Mof_C 	C 	0.2516	0.7184	0.6603	-0.256
Mof_C 	C 	0.1941	0.7196	0.629	0.157
Mof_C 	C 	0.2292	0.7826	0.6011	-0.252
Mof_C 	C 	0.2112	0.6472	0.691	0.552
Mof_C 	C 	0.8297	0.7452	0.9802	-0.067
Mof_C 	C 	0.8862	0.8256	0.9683	0.116
Mof_C 	C 	0.9039	0.8524	0.9274	-0.171
Mof_C 	C 	0.9549	0.9314	0.9152	0.118
Mof_C 	C 	0.9718	0.96	0.8749	0.055
Mof_C 	C 	0.8585	0.786	0.8968	0.184
Mof_C 	C 	0.8425	0.6662	0.86	0.163
Mof_C 	C 	0.8895	0.728	0.8886	-0.232
Mof_C 	C 	0.7666	0.6578	0.8421	-0.247
Mof_C 	C 	0.7362	0.7116	0.8501	0.174
Mof_C 	C 	0.7822	0.7766	0.8773	-0.246
Mof_C 	C 	0.7159	0.5866	0.8132	0.5
Mof_N 	N 	0.64907	0.05874	0.05841	-0.303
Mof_N 	N 	0.35093	0.94126	0.05841	-0.309
Mof_N 	N 	0.40967	0.05874	0.44159	-0.304
Mof_N 	N 	0.59033	0.94126	0.44159	-0.306
Mof_N 	N 	0.35093	0.94126	0.94159	-0.305
Mof_N 	N 	0.64907	0.05874	0.94159	-0.299
Mof_N 	N 	0.59033	0.94126	0.55841	-0.306
Mof_N 	N 	0.40967	0.05874	0.55841	-0.304
Mof_N 	N 	0.7168	0.1822	-0	-0.305
Mof_N 	N 	0.5679	0.939	-0	-0.321
Mof_N 	N 	0.2832	0.8178	-0	-0.308
Mof_N 	N 	0.4321	0.061	-0	-0.323
Mof_N 	N 	0.4654	0.1822	0.5	-0.301
Mof_N 	N 	0.3711	0.939	0.5	-0.316
Mof_N 	N 	0.5346	0.8178	0.5	-0.299
Mof_N 	N 	0.6289	0.061	0.5	-0.314
Mof_N 	N 	0.9574	0.8774	0.5	-0.287
Mof_N 	N 	0.0426	0.1226	0.5	-0.316
Mof_N 	N 	0.92	0.8774	-0	-0.296
Mof_N 	N 	0.08	0.1226	-0	-0.322
Mof_N 	N 	5.60085e-33	0	0.4403	-0.34
Mof_N 	N 	2.10032e-33	0	0.0597	-0.341
Mof_N 	N 	1.12017e-32	0	0.5597	-0.34
Mof_N 	N 	-0	0	0.9403	-0.337
Mof_O 	O 	0.85351	0.45802	0.22358	-0.625
Mof_O 	O 	0.9538	0.4108	0.22849	-0.459
Mof_O 	O 	0.3692	0.6378	0.2122	-0.62
Mof_O 	O 	0.47975	0.6071	0.19288	-0.629
Mof_O 	O 	0.93519	0.58018	0.29897	-0.568
Mof_O 	O 	0.7866	0.5552	0.297	-0.621
Mof_O 	O 	0.14649	0.54198	0.22358	-0.647
Mof_O 	O 	0.0462	0.5892	0.22849	-0.522
Mof_O 	O 	0.6308	0.3622	0.2122	-0.622
Mof_O 	O 	0.52025	0.3929	0.19288	-0.63
Mof_O 	O 	0.06481	0.41982	0.29897	-0.624
Mof_O 	O 	0.2134	0.4448	0.297	-0.622
Mof_O 	O 	0.60451	0.45802	0.27642	-0.646
Mof_O 	O 	0.457	0.4108	0.27151	-0.516
Mof_O 	O 	0.2686	0.6378	0.2878	-0.616
Mof_O 	O 	0.12735	0.6071	0.30712	-0.613
Mof_O 	O 	0.64499	0.58018	0.20103	-0.627
Mof_O 	O 	0.7686	0.5552	0.203	-0.62
Mof_O 	O 	0.39549	0.54198	0.27642	-0.645
Mof_O 	O 	0.543	0.5892	0.27151	-0.514
Mof_O 	O 	0.7314	0.3622	0.2878	-0.614
Mof_O 	O 	0.87265	0.3929	0.30712	-0.582
Mof_O 	O 	0.35501	0.41982	0.20103	-0.629
Mof_O 	O 	0.2314	0.4448	0.203	-0.631
Mof_O 	O 	0.14649	0.54198	0.77642	-0.646
Mof_O 	O 	0.0462	0.5892	0.77151	-0.522
Mof_O 	O 	0.6308	0.3622	0.7878	-0.622
Mof_O 	O 	0.52025	0.3929	0.80712	-0.629
Mof_O 	O 	0.06481	0.41982	0.70103	-0.624
Mof_O 	O 	0.2134	0.4448	0.703	-0.622
Mof_O 	O 	0.85351	0.45802	0.77642	-0.625
Mof_O 	O 	0.9538	0.4108	0.77151	-0.46
Mof_O 	O 	0.3692	0.6378	0.7878	-0.62
Mof_O 	O 	0.47975	0.6071	0.80712	-0.628
Mof_O 	O 	0.93519	0.58018	0.70103	-0.568
Mof_O 	O 	0.7866	0.5552	0.703	-0.621
Mof_O 	O 	0.39549	0.54198	0.72358	-0.645
Mof_O 	O 	0.543	0.5892	0.72849	-0.514
Mof_O 	O 	0.7314	0.3622	0.7122	-0.614
Mof_O 	O 	0.87265	0.3929	0.69288	-0.582
Mof_O 	O 	0.35501	0.41982	0.79897	-0.629
Mof_O 	O 	0.2314	0.4448	0.797	-0.631
Mof_O 	O 	0.60451	0.45802	0.72358	-0.646
Mof_O 	O 	0.457	0.4108	0.72849	-0.516
Mof_O 	O 	0.2686	0.6378	0.7122	-0.616
Mof_O 	O 	0.12735	0.6071	0.69288	-0.613
Mof_O 	O 	0.64499	0.58018	0.79897	-0.627
Mof_O 	O 	0.7686	0.5552	0.797	-0.62
_end
