data_functionalizedCrystal
_audit_creation_method	'EQeq! by Chris Wilmer'
_symmetry_space_group_name_H-M	'P1'
_symmetry_Int_Tables_number	1
_symmetry_cell_setting	triclinic
loop_
_symmetry_equiv_pos_as_xyz
  x,y,z
_cell_length_a	6.6375
_cell_length_b	18.2953
_cell_length_c	8.4058
_cell_angle_alpha	90
_cell_angle_beta	90
_cell_angle_gamma	90
loop_
_atom_site_label
_atom_site_type_symbol
_atom_site_fract_x
_atom_site_fract_y
_atom_site_fract_z
_atom_site_charge
Mof_O 	O 	0.0147	0.05	0.4292	-0.72
Mof_O 	O 	0.3352	0.09485	0.2275	-0.45
Mof_O 	O 	0.1795	0.24207	0.1531	-0.522
Mof_O 	O 	0.3261	0.31653	0.9809	-0.495
Mof_C 	C 	0.2645	0.2563	0.0238	0.584
Mof_H 	H 	0.2829	0.2177	0.9535	-0.172
Mof_O 	O 	0.5147	0.55	0.4292	-0.534
Mof_O 	O 	0.8352	0.59485	0.2275	-0.307
Mof_O 	O 	0.6795	0.74207	0.1531	-0.485
Mof_O 	O 	0.8261	0.81653	0.9809	-0.392
Mof_C 	C 	0.7645	0.7563	0.0238	0.581
Mof_H 	H 	0.7829	0.7177	0.9535	-0.124
Mof_O 	O 	0.9853	0.95	0.9292	-0.111
Mof_O 	O 	0.6648	0.90515	0.7275	-0.378
Mof_O 	O 	0.8205	0.75793	0.6531	-0.413
Mof_O 	O 	0.6739	0.68347	0.4809	-0.47
Mof_C 	C 	0.7355	0.7437	0.5238	0.62
Mof_H 	H 	0.7171	0.7823	0.4535	-0.144
Mof_O 	O 	0.4853	0.45	0.9292	-0.53
Mof_O 	O 	0.1648	0.40515	0.7275	-0.437
Mof_O 	O 	0.3205	0.25793	0.6531	-0.537
Mof_O 	O 	0.1739	0.18347	0.4809	-0.498
Mof_C 	C 	0.2355	0.2437	0.5238	0.632
Mof_H 	H 	0.2171	0.2823	0.4535	-0.2
Mof_O 	O 	0.9853	0.05	0.0708	-0.173
Mof_O 	O 	0.6648	0.09485	0.2725	-0.403
Mof_O 	O 	0.8205	0.24207	0.3469	-0.415
Mof_O 	O 	0.6739	0.31653	0.5191	-0.472
Mof_C 	C 	0.7355	0.2563	0.4762	0.622
Mof_H 	H 	0.7171	0.2177	0.5465	-0.149
Mof_O 	O 	0.4853	0.55	0.0708	-0.541
Mof_O 	O 	0.1648	0.59485	0.2725	-0.437
Mof_O 	O 	0.3205	0.74207	0.3469	-0.533
Mof_O 	O 	0.1739	0.81653	0.5191	-0.49
Mof_C 	C 	0.2355	0.7563	0.4762	0.629
Mof_H 	H 	0.2171	0.7177	0.5465	-0.198
Mof_O 	O 	0.0147	0.95	0.5708	-0.67
Mof_O 	O 	0.3352	0.90515	0.7725	-0.423
Mof_O 	O 	0.1795	0.75793	0.8469	-0.543
Mof_O 	O 	0.3261	0.68347	0.0191	-0.538
Mof_C 	C 	0.2645	0.7437	0.9762	0.679
Mof_H 	H 	0.2829	0.7823	0.0465	-0.215
Mof_O 	O 	0.5147	0.45	0.5708	-0.535
Mof_O 	O 	0.8352	0.40515	0.7725	-0.304
Mof_O 	O 	0.6795	0.25793	0.8469	-0.511
Mof_O 	O 	0.8261	0.18347	0.0191	-0.443
Mof_C 	C 	0.7645	0.2437	0.9762	0.679
Mof_H 	H 	0.7829	0.2823	0.0465	-0.172
Mof_Tm	Tm	1.18707e-33	0.14281	0.25	1.8
Mof_Tm	Tm	0.5	0.64281	0.25	2.198
Mof_Tm	Tm	-3.35341e-32	0.85719	0.75	1.806
Mof_Tm	Tm	0.5	0.35719	0.75	2.201
Mof_C 	C 	0.5	0.126	0.25	0.564
Mof_H 	H 	0.5	0.1769	0.25	-0.158
Mof_C 	C 	-8.08675e-33	0.626	0.25	0.35
Mof_H 	H 	4.27834e-33	0.6769	0.25	-0.149
Mof_C 	C 	0.5	0.874	0.75	0.563
Mof_H 	H 	0.5	0.8231	0.75	-0.154
Mof_C 	C 	3.56121e-33	0.374	0.75	0.353
Mof_H 	H 	-8.80388e-33	0.3231	0.75	-0.148
Mof_C 	C 	0.9243	0	0.5	1.097
Mof_H 	H 	0.7842	0	0.5	-0.296
Mof_C 	C 	0.4243	0.5	0.5	0.715
Mof_H 	H 	0.2842	0.5	0.5	-0.206
Mof_C 	C 	0.0757	0	-0	-0.046
Mof_H 	H 	0.2158	0	-0	0.039
Mof_C 	C 	0.5757	0.5	-0	0.683
Mof_H 	H 	0.7158	0.5	-0	-0.154
_end
