data_functionalizedCrystal
_audit_creation_method	'EQeq! by Chris Wilmer'
_symmetry_space_group_name_H-M	'P1'
_symmetry_Int_Tables_number	1
_symmetry_cell_setting	triclinic
loop_
_symmetry_equiv_pos_as_xyz
  x,y,z
_cell_length_a	23.604
_cell_length_b	41.954
_cell_length_c	11.675
_cell_angle_alpha	90
_cell_angle_beta	116.908
_cell_angle_gamma	90
loop_
_atom_site_label
_atom_site_type_symbol
_atom_site_fract_x
_atom_site_fract_y
_atom_site_fract_z
_atom_site_charge
Mof_Mn	Mn	0.82281	0.12288	0.5132	0.941
Mof_Mn	Mn	0.91077	0.14929	0.83268	1.01
Mof_Mn	Mn	0.82158	0.17162	0.01443	0.965
Mof_Mn	Mn	0.73149	0.14606	0.18611	0.871
Mof_S 	S 	0.008	0.27882	0.3754	0.251
Mof_S 	S 	0.0726	0.95947	0.8201	0.246
Mof_S 	S 	0.5727	0.04146	0.71001	0.264
Mof_S 	S 	0.45295	0.14949	0.3683	0.25
Mof_S 	S 	0.70589	0.35254	0.1299	0.208
Mof_O 	O 	0.8843	0.16315	0.5838	-0.427
Mof_O 	O 	0.9728	0.1683	0.7589	-0.329
Mof_O 	O 	0.8968	0.09082	0.6144	-0.385
Mof_O 	O 	0.9397	0.10152	0.8246	-0.377
Mof_O 	O 	0.8054	0.12824	0.6801	-0.432
Mof_O 	O 	0.83195	0.13349	0.8851	-0.415
Mof_O 	O 	0.7231	0.16946	0.9065	-0.369
Mof_O 	O 	0.666	0.1458	0.9923	-0.348
Mof_O 	O 	0.8131	0.20395	0.1473	-0.404
Mof_O 	O 	0.7361	0.19512	0.2004	-0.429
Mof_O 	O 	0.1194	0.2099	0.9965	-0.253
Mof_O 	O 	0.2031	0.2131	0.1747	-0.5
Mof_H 	H 	0.2191	0.204	0.134	0.287
Mof_O 	O 	0.8386	0.87286	0.8433	-0.415
Mof_O 	O 	0.8113	0.8682	0.6382	-0.421
Mof_O 	O 	0.7021	0.8997	0.7075	-0.384
Mof_O 	O 	0.7543	0.91264	0.9169	-0.373
Mof_O 	O 	0.3722	0.30364	0.2963	-0.404
Mof_O 	O 	0.3263	0.28765	0.4117	-0.394
Mof_O 	O 	0.4758	0.34593	0.5255	-0.388
Mof_O 	O 	0.4211	0.33111	0.6309	-0.399
Mof_O 	O 	0.9489	0.29129	0.2774	-0.205
Mof_O 	O 	0.0528	0.29984	0.4753	-0.198
Mof_O 	O 	0.1211	0.95741	0.9493	-0.17
Mof_O 	O 	0.0886	0.95416	0.7153	-0.19
Mof_O 	O 	0.5576	0.048	0.8133	-0.188
Mof_O 	O 	0.5234	0.04326	0.5788	-0.185
Mof_O 	O 	0.4072	0.12713	0.3691	-0.187
Mof_O 	O 	0.4771	0.147	0.273	-0.196
Mof_O 	O 	0.7558	0.37083	0.1101	-0.179
Mof_O 	O 	0.6871	0.36214	0.2256	-0.183
Mof_C 	C 	0.9349	0.17564	0.6362	0.396
Mof_C 	C 	0.1446	0.215	0.1074	0.386
Mof_C 	C 	0.9359	0.2296	0.3869	-0.104
Mof_H 	H 	0.9105	0.2332	0.2998	0.091
Mof_C 	C 	0.9198	0.20678	0.4496	0.061
Mof_H 	H 	0.8826	0.1952	0.4044	0.025
Mof_C 	C 	0.9574	0.20014	0.5797	-0.143
Mof_C 	C 	0.0134	0.21665	0.6444	0.046
Mof_H 	H 	0.0407	0.2117	0.7295	0.048
Mof_C 	C 	0.0287	0.24049	0.5822	-0.095
Mof_H 	H 	0.0656	0.2523	0.6272	0.081
Mof_C 	C 	0.99	0.24729	0.4533	0.026
Mof_C 	C 	0.0467	0.2336	0.1172	0.025
Mof_H 	H 	0.0233	0.2248	0.0361	0.025
Mof_C 	C 	0.0173	0.2473	0.1818	-0.084
Mof_H 	H 	0.9731	0.2478	0.1439	0.067
Mof_C 	C 	0.0513	0.2603	0.3016	0.017
Mof_C 	C 	0.1151	0.2601	0.3645	-0.083
Mof_H 	H 	0.1375	0.2686	0.4466	0.079
Mof_C 	C 	0.1457	0.2464	0.2984	0.028
Mof_H 	H 	0.1898	0.246	0.3375	0.051
Mof_C 	C 	0.112	0.2332	0.1748	-0.099
Mof_C 	C 	0.8501	0.87815	0.7515	0.39
Mof_C 	C 	0.9333	0.08492	0.7321	0.398
Mof_C 	C 	0.0436	0.01612	0.8998	-0.114
Mof_H 	H 	0.0701	0.0093	0.9829	0.113
Mof_C 	C 	0.012	0.04378	0.8804	0.065
Mof_H 	H 	0.0168	0.056	0.9507	0.047
Mof_C 	C 	0.9715	0.05463	0.7554	-0.127
Mof_C 	C 	0.998	0.00779	0.674	-0.116
Mof_H 	H 	0.9935	0.9953	0.6044	0.081
Mof_C 	C 	0.0367	0.99823	0.7982	0.05
Mof_C 	C 	0.9671	0.03548	0.6564	0.065
Mof_H 	H 	0.9413	0.0421	0.5727	0.025
Mof_C 	C 	0.9509	0.90648	0.8909	0.055
Mof_H 	H 	0.946	0.9002	0.9624	0.043
Mof_C 	C 	0.0025	0.92505	0.9058	-0.106
Mof_H 	H 	0.0324	0.9316	0.987	0.101
Mof_C 	C 	0.0083	0.93351	0.7993	0.041
Mof_C 	C 	0.9658	0.92454	0.6767	-0.115
Mof_H 	H 	0.9713	0.9306	0.6058	0.086
Mof_C 	C 	0.915	0.90624	0.6634	0.067
Mof_H 	H 	0.8857	0.8998	0.5816	0.021
Mof_C 	C 	0.9058	0.89712	0.7664	-0.143
Mof_C 	C 	0.47	0.33999	0.6248	0.399
Mof_C 	C 	0.7955	0.12293	0.7758	0.391
Mof_C 	C 	0.7135	0.91727	0.8039	0.378
Mof_C 	C 	0.6798	0.07518	0.8464	-0.088
Mof_H 	H 	0.6747	0.0688	0.9175	0.087
Mof_C 	C 	0.7324	0.09327	0.8646	0.041
Mof_H 	H 	0.763	0.0986	0.9468	0.043
Mof_C 	C 	0.7385	0.10337	0.7552	-0.132
Mof_C 	C 	0.6923	0.09539	0.6348	0.054
Mof_H 	H 	0.6956	0.1027	0.5629	0.018
Mof_C 	C 	0.6412	0.07677	0.6186	-0.099
Mof_H 	H 	0.6109	0.0711	0.5366	0.087
Mof_C 	C 	0.6352	0.06659	0.7261	0.021
Mof_C 	C 	0.6334	0.9558	0.6526	0.025
Mof_H 	H 	0.6278	0.9427	0.584	0.052
Mof_C 	C 	0.6001	0.98483	0.6307	-0.071
Mof_H 	H 	0.5731	0.9913	0.5474	0.087
Mof_C 	C 	0.6082	0.00393	0.7355	0.012
Mof_C 	C 	0.6473	0.99422	0.8598	-0.068
Mof_H 	H 	0.6519	0.0069	0.9289	0.077
Mof_C 	C 	0.6801	0.96518	0.8815	0.023
Mof_H 	H 	0.7053	0.9582	0.965	0.052
Mof_C 	C 	0.6745	0.9469	0.7774	-0.097
Mof_C 	C 	0.6724	0.15718	0.9	0.381
Mof_C 	C 	0.3584	0.28297	0.3535	0.424
Mof_C 	C 	0.4448	0.21296	0.3069	-0.111
Mof_H 	H 	0.4756	0.209	0.2796	0.085
Mof_C 	C 	0.4233	0.24251	0.3059	0.059
Mof_H 	H 	0.4404	0.2593	0.2795	0.028
Mof_C 	C 	0.3759	0.24909	0.343	-0.141
Mof_C 	C 	0.3508	0.22461	0.384	0.059
Mof_H 	H 	0.3199	0.2286	0.4107	0.035
Mof_C 	C 	0.3729	0.19347	0.3845	-0.105
Mof_H 	H 	0.3554	0.1764	0.4084	0.092
Mof_C 	C 	0.42	0.1885	0.3498	0.037
Mof_C 	C 	0.5628	0.14105	0.7485	0.043
Mof_H 	H 	0.5595	0.133	0.8195	0.058
Mof_C 	C 	0.5102	0.1382	0.6248	-0.08
Mof_H 	H 	0.4725	0.1287	0.6136	0.097
Mof_C 	C 	0.517	0.15005	0.5236	0.023
Mof_C 	C 	0.5753	0.1644	0.5423	-0.092
Mof_H 	H 	0.581	0.172	0.4734	0.074
Mof_C 	C 	0.622	0.1667	0.665	0.046
Mof_H 	H 	0.6595	0.177	0.6791	0.033
Mof_C 	C 	0.617	0.15509	0.765	-0.11
Mof_C 	C 	0.7703	0.21253	0.174	0.42
Mof_C 	C 	0.5813	0.34254	0.9805	-0.009
Mof_H 	H 	0.58	0.3397	0.0583	0.028
Mof_C 	C 	0.5272	0.33868	0.8669	0.001
Mof_H 	H 	0.4893	0.333	0.8677	0.054
Mof_C 	C 	0.529	0.34331	0.7503	-0.101
Mof_C 	C 	0.5862	0.3524	0.7532	0.039
Mof_H 	H 	0.5883	0.3564	0.6769	0.048
Mof_C 	C 	0.6394	0.3554	0.868	-0.087
Mof_H 	H 	0.6779	0.361	0.8694	0.099
Mof_C 	C 	0.6365	0.35045	0.9789	0.04
Mof_C 	C 	0.73	0.31243	0.1546	0.041
Mof_C 	C 	0.7183	0.25937	0.2178	0.057
Mof_H 	H 	0.701	0.2455	0.2556	0.024
Mof_C 	C 	0.7034	0.29209	0.2076	-0.114
Mof_H 	H 	0.6755	0.2998	0.2372	0.088
Mof_C 	C 	0.7732	0.30122	0.1161	-0.113
Mof_H 	H 	0.7921	0.3153	0.0822	0.086
Mof_C 	C 	0.7887	0.26997	0.1266	0.061
Mof_H 	H 	0.8196	0.2629	0.1039	0.022
Mof_C 	C 	0.7582	0.24825	0.1718	-0.146
Mof_Mn	Mn	0.32281	0.62288	0.5132	0.942
Mof_Mn	Mn	0.41077	0.64929	0.83268	1.012
Mof_Mn	Mn	0.32158	0.67162	0.01443	0.966
Mof_Mn	Mn	0.23149	0.64606	0.18611	0.871
Mof_S 	S 	0.508	0.77882	0.3754	0.251
Mof_S 	S 	0.5726	0.45947	0.8201	0.247
Mof_S 	S 	0.0727	0.54146	0.71001	0.264
Mof_S 	S 	0.95295	0.64949	0.3683	0.25
Mof_S 	S 	0.20589	0.85254	0.1299	0.208
Mof_O 	O 	0.3843	0.66315	0.5838	-0.427
Mof_O 	O 	0.4728	0.6683	0.7589	-0.329
Mof_O 	O 	0.3968	0.59082	0.6144	-0.385
Mof_O 	O 	0.4397	0.60152	0.8246	-0.377
Mof_O 	O 	0.3054	0.62824	0.6801	-0.432
Mof_O 	O 	0.33195	0.63349	0.8851	-0.415
Mof_O 	O 	0.2231	0.66946	0.9065	-0.369
Mof_O 	O 	0.166	0.6458	0.9923	-0.348
Mof_O 	O 	0.3131	0.70395	0.1473	-0.404
Mof_O 	O 	0.2361	0.69512	0.2004	-0.429
Mof_O 	O 	0.6194	0.7099	0.9965	-0.252
Mof_O 	O 	0.7031	0.7131	0.1747	-0.5
Mof_H 	H 	0.7191	0.704	0.134	0.287
Mof_O 	O 	0.3386	0.37286	0.8433	-0.414
Mof_O 	O 	0.3113	0.3682	0.6382	-0.421
Mof_O 	O 	0.2021	0.3997	0.7075	-0.384
Mof_O 	O 	0.2543	0.41264	0.9169	-0.373
Mof_O 	O 	0.8722	0.80364	0.2963	-0.404
Mof_O 	O 	0.8263	0.78765	0.4117	-0.394
Mof_O 	O 	0.9758	0.84593	0.5255	-0.388
Mof_O 	O 	0.9211	0.83111	0.6309	-0.399
Mof_O 	O 	0.4489	0.79129	0.2774	-0.205
Mof_O 	O 	0.5528	0.79984	0.4753	-0.198
Mof_O 	O 	0.6211	0.45741	0.9493	-0.17
Mof_O 	O 	0.5886	0.45416	0.7153	-0.19
Mof_O 	O 	0.0576	0.548	0.8133	-0.188
Mof_O 	O 	0.0234	0.54326	0.5788	-0.185
Mof_O 	O 	0.9072	0.62713	0.3691	-0.187
Mof_O 	O 	0.9771	0.647	0.273	-0.196
Mof_O 	O 	0.2558	0.87083	0.1101	-0.179
Mof_O 	O 	0.1871	0.86214	0.2256	-0.183
Mof_C 	C 	0.4349	0.67564	0.6362	0.396
Mof_C 	C 	0.6446	0.715	0.1074	0.386
Mof_C 	C 	0.4359	0.7296	0.3869	-0.104
Mof_H 	H 	0.4105	0.7332	0.2998	0.091
Mof_C 	C 	0.4198	0.70678	0.4496	0.061
Mof_H 	H 	0.3826	0.6952	0.4044	0.025
Mof_C 	C 	0.4574	0.70014	0.5797	-0.143
Mof_C 	C 	0.5134	0.71665	0.6444	0.047
Mof_H 	H 	0.5407	0.7117	0.7295	0.048
Mof_C 	C 	0.5287	0.74049	0.5822	-0.095
Mof_H 	H 	0.5656	0.7523	0.6272	0.081
Mof_C 	C 	0.49	0.74729	0.4533	0.027
Mof_C 	C 	0.5467	0.7336	0.1172	0.025
Mof_H 	H 	0.5233	0.7248	0.0361	0.025
Mof_C 	C 	0.5173	0.7473	0.1818	-0.085
Mof_H 	H 	0.4731	0.7478	0.1439	0.068
Mof_C 	C 	0.5513	0.7603	0.3016	0.018
Mof_C 	C 	0.6151	0.7601	0.3645	-0.083
Mof_H 	H 	0.6375	0.7686	0.4466	0.079
Mof_C 	C 	0.6457	0.7464	0.2984	0.028
Mof_H 	H 	0.6898	0.746	0.3375	0.051
Mof_C 	C 	0.612	0.7332	0.1748	-0.099
Mof_C 	C 	0.3501	0.37815	0.7515	0.39
Mof_C 	C 	0.4333	0.58492	0.7321	0.398
Mof_C 	C 	0.5436	0.51612	0.8998	-0.113
Mof_H 	H 	0.5701	0.5093	0.9829	0.113
Mof_C 	C 	0.512	0.54378	0.8804	0.064
Mof_H 	H 	0.5168	0.556	0.9507	0.048
Mof_C 	C 	0.4715	0.55463	0.7554	-0.126
Mof_C 	C 	0.498	0.50779	0.674	-0.115
Mof_H 	H 	0.4935	0.4953	0.6044	0.081
Mof_C 	C 	0.5367	0.49823	0.7982	0.05
Mof_C 	C 	0.4671	0.53548	0.6564	0.065
Mof_H 	H 	0.4413	0.5421	0.5727	0.025
Mof_C 	C 	0.4509	0.40648	0.8909	0.055
Mof_H 	H 	0.446	0.4002	0.9624	0.043
Mof_C 	C 	0.5025	0.42505	0.9058	-0.106
Mof_H 	H 	0.5324	0.4316	0.987	0.101
Mof_C 	C 	0.5083	0.43351	0.7993	0.041
Mof_C 	C 	0.4658	0.42454	0.6767	-0.115
Mof_H 	H 	0.4713	0.4306	0.6058	0.086
Mof_C 	C 	0.415	0.40624	0.6634	0.067
Mof_H 	H 	0.3857	0.3998	0.5816	0.021
Mof_C 	C 	0.4058	0.39712	0.7664	-0.143
Mof_C 	C 	0.97	0.83999	0.6248	0.399
Mof_C 	C 	0.2955	0.62293	0.7758	0.391
Mof_C 	C 	0.2135	0.41727	0.8039	0.378
Mof_C 	C 	0.1798	0.57518	0.8464	-0.088
Mof_H 	H 	0.1747	0.5688	0.9175	0.087
Mof_C 	C 	0.2324	0.59327	0.8646	0.041
Mof_H 	H 	0.263	0.5986	0.9468	0.043
Mof_C 	C 	0.2385	0.60337	0.7552	-0.132
Mof_C 	C 	0.1923	0.59539	0.6348	0.054
Mof_H 	H 	0.1956	0.6027	0.5629	0.018
Mof_C 	C 	0.1412	0.57677	0.6186	-0.099
Mof_H 	H 	0.1109	0.5711	0.5366	0.087
Mof_C 	C 	0.1352	0.56659	0.7261	0.021
Mof_C 	C 	0.1334	0.4558	0.6526	0.025
Mof_H 	H 	0.1278	0.4427	0.584	0.052
Mof_C 	C 	0.1001	0.48483	0.6307	-0.071
Mof_H 	H 	0.0731	0.4913	0.5474	0.087
Mof_C 	C 	0.1082	0.50393	0.7355	0.012
Mof_C 	C 	0.1473	0.49422	0.8598	-0.068
Mof_H 	H 	0.1519	0.5069	0.9289	0.077
Mof_C 	C 	0.1801	0.46518	0.8815	0.023
Mof_H 	H 	0.2053	0.4582	0.965	0.052
Mof_C 	C 	0.1745	0.4469	0.7774	-0.097
Mof_C 	C 	0.1724	0.65718	0.9	0.381
Mof_C 	C 	0.8584	0.78297	0.3535	0.424
Mof_C 	C 	0.9448	0.71296	0.3069	-0.111
Mof_H 	H 	0.9756	0.709	0.2796	0.085
Mof_C 	C 	0.9233	0.74251	0.3059	0.059
Mof_H 	H 	0.9404	0.7593	0.2795	0.028
Mof_C 	C 	0.8759	0.74909	0.343	-0.141
Mof_C 	C 	0.8508	0.72461	0.384	0.059
Mof_H 	H 	0.8199	0.7286	0.4107	0.035
Mof_C 	C 	0.8729	0.69347	0.3845	-0.105
Mof_H 	H 	0.8554	0.6764	0.4084	0.092
Mof_C 	C 	0.92	0.6885	0.3498	0.037
Mof_C 	C 	0.0628	0.64105	0.7485	0.042
Mof_H 	H 	0.0595	0.633	0.8195	0.058
Mof_C 	C 	0.0102	0.6382	0.6248	-0.08
Mof_H 	H 	0.9725	0.6287	0.6136	0.096
Mof_C 	C 	0.017	0.65005	0.5236	0.023
Mof_C 	C 	0.0753	0.6644	0.5423	-0.092
Mof_H 	H 	0.081	0.672	0.4734	0.074
Mof_C 	C 	0.122	0.6667	0.665	0.046
Mof_H 	H 	0.1595	0.677	0.6791	0.033
Mof_C 	C 	0.117	0.65509	0.765	-0.11
Mof_C 	C 	0.2703	0.71253	0.174	0.42
Mof_C 	C 	0.0813	0.84254	0.9805	-0.01
Mof_H 	H 	0.08	0.8397	0.0583	0.028
Mof_C 	C 	0.0272	0.83868	0.8669	0.002
Mof_H 	H 	0.9893	0.833	0.8677	0.054
Mof_C 	C 	0.029	0.84331	0.7503	-0.102
Mof_C 	C 	0.0862	0.8524	0.7532	0.039
Mof_H 	H 	0.0883	0.8564	0.6769	0.048
Mof_C 	C 	0.1394	0.8554	0.868	-0.087
Mof_H 	H 	0.1779	0.861	0.8694	0.1
Mof_C 	C 	0.1365	0.85045	0.9789	0.041
Mof_C 	C 	0.23	0.81243	0.1546	0.041
Mof_C 	C 	0.2183	0.75937	0.2178	0.057
Mof_H 	H 	0.201	0.7455	0.2556	0.024
Mof_C 	C 	0.2034	0.79209	0.2076	-0.114
Mof_H 	H 	0.1755	0.7998	0.2372	0.088
Mof_C 	C 	0.2732	0.80122	0.1161	-0.113
Mof_H 	H 	0.2921	0.8153	0.0822	0.086
Mof_C 	C 	0.2887	0.76997	0.1266	0.061
Mof_H 	H 	0.3196	0.7629	0.1039	0.022
Mof_C 	C 	0.2582	0.74825	0.1718	-0.145
Mof_Mn	Mn	0.82281	0.87712	0.0132	0.895
Mof_Mn	Mn	0.91077	0.85071	0.33268	0.985
Mof_Mn	Mn	0.82158	0.82838	0.51443	1.025
Mof_Mn	Mn	0.73149	0.85394	0.68611	0.908
Mof_S 	S 	0.008	0.72118	0.8754	0.209
Mof_S 	S 	0.0726	0.04053	0.3201	0.246
Mof_S 	S 	0.5727	0.95854	0.21001	0.264
Mof_S 	S 	0.45295	0.85051	0.8683	0.27
Mof_S 	S 	0.70589	0.64746	0.6299	0.229
Mof_O 	O 	0.8843	0.83685	0.0838	-0.449
Mof_O 	O 	0.9728	0.8317	0.2589	-0.344
Mof_O 	O 	0.8968	0.90918	0.1144	-0.393
Mof_O 	O 	0.9397	0.89848	0.3246	-0.385
Mof_O 	O 	0.8054	0.87176	0.1801	-0.433
Mof_O 	O 	0.83195	0.86651	0.3851	-0.436
Mof_O 	O 	0.7231	0.83054	0.4065	-0.397
Mof_O 	O 	0.666	0.8542	0.4923	-0.378
Mof_O 	O 	0.8131	0.79605	0.6473	-0.404
Mof_O 	O 	0.7361	0.80488	0.7004	-0.421
Mof_O 	O 	0.1194	0.7901	0.4965	-0.308
Mof_O 	O 	0.2031	0.7869	0.6747	-0.524
Mof_H 	H 	0.2191	0.796	0.634	0.307
Mof_O 	O 	0.8386	0.12714	0.3433	-0.434
Mof_O 	O 	0.8113	0.1318	0.1382	-0.428
Mof_O 	O 	0.7021	0.1003	0.2075	-0.396
Mof_O 	O 	0.7543	0.08736	0.4169	-0.4
Mof_O 	O 	0.3722	0.69636	0.7963	-0.398
Mof_O 	O 	0.3263	0.71235	0.9117	-0.37
Mof_O 	O 	0.4758	0.65407	0.0255	-0.415
Mof_O 	O 	0.4211	0.66889	0.1309	-0.404
Mof_O 	O 	0.9489	0.70871	0.7774	-0.189
Mof_O 	O 	0.0528	0.70016	0.9753	-0.175
Mof_O 	O 	0.1211	0.04259	0.4493	-0.182
Mof_O 	O 	0.0886	0.04584	0.2153	-0.204
Mof_O 	O 	0.5576	0.952	0.3133	-0.201
Mof_O 	O 	0.5234	0.95674	0.0788	-0.196
Mof_O 	O 	0.4072	0.87287	0.8691	-0.173
Mof_O 	O 	0.4771	0.853	0.773	-0.185
Mof_O 	O 	0.7558	0.62917	0.6101	-0.166
Mof_O 	O 	0.6871	0.63786	0.7256	-0.175
Mof_C 	C 	0.9349	0.82436	0.1362	0.441
Mof_C 	C 	0.1446	0.785	0.6074	0.457
Mof_C 	C 	0.9359	0.7704	0.8869	-0.231
Mof_H 	H 	0.9105	0.7668	0.7998	0.137
Mof_C 	C 	0.9198	0.79322	0.9496	0.222
Mof_H 	H 	0.8826	0.8048	0.9044	-0.022
Mof_C 	C 	0.9574	0.79986	0.0797	-0.279
Mof_C 	C 	0.0134	0.78335	0.1444	0.171
Mof_H 	H 	0.0407	0.7883	0.2295	0.001
Mof_C 	C 	0.0287	0.75951	0.0822	-0.252
Mof_H 	H 	0.0656	0.7477	0.1272	0.123
Mof_C 	C 	0.99	0.75271	0.9533	0.152
Mof_C 	C 	0.0467	0.7664	0.6172	0.055
Mof_H 	H 	0.0233	0.7752	0.5361	0.029
Mof_C 	C 	0.0173	0.7527	0.6818	-0.109
Mof_H 	H 	0.9731	0.7522	0.6439	0.083
Mof_C 	C 	0.0513	0.7397	0.8016	0.046
Mof_C 	C 	0.1151	0.7399	0.8645	-0.108
Mof_H 	H 	0.1375	0.7314	0.9466	0.098
Mof_C 	C 	0.1457	0.7536	0.7984	0.057
Mof_H 	H 	0.1898	0.754	0.8375	0.048
Mof_C 	C 	0.112	0.7668	0.6748	-0.126
Mof_C 	C 	0.8501	0.12185	0.2515	0.397
Mof_C 	C 	0.9333	0.91508	0.2321	0.398
Mof_C 	C 	0.0436	0.98388	0.3998	-0.119
Mof_H 	H 	0.0701	0.9907	0.4829	0.104
Mof_C 	C 	0.012	0.95622	0.3804	0.065
Mof_H 	H 	0.0168	0.944	0.4507	0.034
Mof_C 	C 	0.9715	0.94537	0.2554	-0.137
Mof_C 	C 	0.998	0.99221	0.174	-0.121
Mof_H 	H 	0.9935	0.0047	0.1044	0.072
Mof_C 	C 	0.0367	0.00177	0.2982	0.046
Mof_C 	C 	0.9671	0.96452	0.1564	0.065
Mof_H 	H 	0.9413	0.9579	0.0727	0.012
Mof_C 	C 	0.9509	0.09352	0.3909	0.058
Mof_H 	H 	0.946	0.0998	0.4624	0.028
Mof_C 	C 	0.0025	0.07495	0.4058	-0.113
Mof_H 	H 	0.0324	0.0684	0.487	0.094
Mof_C 	C 	0.0083	0.06649	0.2993	0.04
Mof_C 	C 	0.9658	0.07546	0.1767	-0.12
Mof_H 	H 	0.9713	0.0694	0.1058	0.078
Mof_C 	C 	0.915	0.09376	0.1634	0.072
Mof_H 	H 	0.8857	0.1002	0.0816	0.008
Mof_C 	C 	0.9058	0.10288	0.2664	-0.154
Mof_C 	C 	0.47	0.66001	0.1248	0.412
Mof_C 	C 	0.7955	0.87707	0.2758	0.395
Mof_C 	C 	0.7135	0.08273	0.3039	0.382
Mof_C 	C 	0.6798	0.92482	0.3464	-0.092
Mof_H 	H 	0.6747	0.9312	0.4175	0.079
Mof_C 	C 	0.7324	0.90673	0.3646	0.045
Mof_H 	H 	0.763	0.9014	0.4468	0.029
Mof_C 	C 	0.7385	0.89663	0.2552	-0.142
Mof_C 	C 	0.6923	0.90461	0.1348	0.057
Mof_H 	H 	0.6956	0.8973	0.0629	0.007
Mof_C 	C 	0.6412	0.92323	0.1186	-0.104
Mof_H 	H 	0.6109	0.9289	0.0366	0.079
Mof_C 	C 	0.6352	0.93341	0.2261	0.019
Mof_C 	C 	0.6334	0.0442	0.1526	0.025
Mof_H 	H 	0.6278	0.0573	0.084	0.039
Mof_C 	C 	0.6001	0.01517	0.1307	-0.077
Mof_H 	H 	0.5731	0.0087	0.0474	0.078
Mof_C 	C 	0.6082	0.99607	0.2355	0.007
Mof_C 	C 	0.6473	0.00578	0.3598	-0.073
Mof_H 	H 	0.6519	0.9931	0.4289	0.067
Mof_C 	C 	0.6801	0.03482	0.3815	0.023
Mof_H 	H 	0.7053	0.0418	0.465	0.039
Mof_C 	C 	0.6745	0.0531	0.2774	-0.109
Mof_C 	C 	0.6724	0.84282	0.4	0.406
Mof_C 	C 	0.3584	0.71703	0.8535	0.424
Mof_C 	C 	0.4448	0.78704	0.8069	-0.104
Mof_H 	H 	0.4756	0.791	0.7796	0.09
Mof_C 	C 	0.4233	0.75749	0.8059	0.063
Mof_H 	H 	0.4404	0.7407	0.7795	0.032
Mof_C 	C 	0.3759	0.75091	0.843	-0.131
Mof_C 	C 	0.3508	0.77539	0.884	0.061
Mof_H 	H 	0.3199	0.7714	0.9107	0.046
Mof_C 	C 	0.3729	0.80653	0.8845	-0.096
Mof_H 	H 	0.3554	0.8236	0.9084	0.099
Mof_C 	C 	0.42	0.8115	0.8498	0.041
Mof_C 	C 	0.5628	0.85895	0.2485	0.081
Mof_H 	H 	0.5595	0.867	0.3195	0.04
Mof_C 	C 	0.5102	0.8618	0.1248	-0.111
Mof_H 	H 	0.4725	0.8713	0.1136	0.096
Mof_C 	C 	0.517	0.84995	0.0236	0.035
Mof_C 	C 	0.5753	0.8356	0.0423	-0.21
Mof_H 	H 	0.581	0.828	0.9734	0.144
Mof_C 	C 	0.622	0.8333	0.165	0.129
Mof_H 	H 	0.6595	0.823	0.1791	-0
Mof_C 	C 	0.617	0.84491	0.265	-0.162
Mof_C 	C 	0.7703	0.78747	0.674	0.427
Mof_C 	C 	0.5813	0.65746	0.4805	-0.119
Mof_H 	H 	0.58	0.6603	0.5583	0.092
Mof_C 	C 	0.5272	0.66132	0.3669	0.066
Mof_H 	H 	0.4893	0.667	0.3677	0.026
Mof_C 	C 	0.529	0.65669	0.2503	-0.137
Mof_C 	C 	0.5862	0.6476	0.2532	0.068
Mof_H 	H 	0.5883	0.6436	0.1769	0.031
Mof_C 	C 	0.6394	0.6446	0.368	-0.115
Mof_H 	H 	0.6779	0.639	0.3694	0.098
Mof_C 	C 	0.6365	0.64955	0.4789	0.054
Mof_C 	C 	0.73	0.68757	0.6546	0.044
Mof_C 	C 	0.7183	0.74063	0.7178	0.058
Mof_H 	H 	0.701	0.7545	0.7556	0.032
Mof_C 	C 	0.7034	0.70791	0.7076	-0.105
Mof_H 	H 	0.6755	0.7002	0.7372	0.09
Mof_C 	C 	0.7732	0.69878	0.6161	-0.106
Mof_H 	H 	0.7921	0.6847	0.5822	0.094
Mof_C 	C 	0.7887	0.73003	0.6266	0.063
Mof_H 	H 	0.8196	0.7371	0.6039	0.03
Mof_C 	C 	0.7582	0.75175	0.6718	-0.137
Mof_Mn	Mn	0.32281	0.37712	0.0132	0.895
Mof_Mn	Mn	0.41077	0.35071	0.33268	0.986
Mof_Mn	Mn	0.32158	0.32838	0.51443	1.025
Mof_Mn	Mn	0.23149	0.35394	0.68611	0.908
Mof_S 	S 	0.508	0.22118	0.8754	0.208
Mof_S 	S 	0.5726	0.54053	0.3201	0.247
Mof_S 	S 	0.0727	0.45854	0.21001	0.264
Mof_S 	S 	0.95295	0.35051	0.8683	0.27
Mof_S 	S 	0.20589	0.14746	0.6299	0.229
Mof_O 	O 	0.3843	0.33685	0.0838	-0.449
Mof_O 	O 	0.4728	0.3317	0.2589	-0.344
Mof_O 	O 	0.3968	0.40918	0.1144	-0.393
Mof_O 	O 	0.4397	0.39848	0.3246	-0.385
Mof_O 	O 	0.3054	0.37176	0.1801	-0.433
Mof_O 	O 	0.33195	0.36651	0.3851	-0.436
Mof_O 	O 	0.2231	0.33054	0.4065	-0.397
Mof_O 	O 	0.166	0.3542	0.4923	-0.378
Mof_O 	O 	0.3131	0.29605	0.6473	-0.404
Mof_O 	O 	0.2361	0.30488	0.7004	-0.421
Mof_O 	O 	0.6194	0.2901	0.4965	-0.308
Mof_O 	O 	0.7031	0.2869	0.6747	-0.524
Mof_H 	H 	0.7191	0.296	0.634	0.307
Mof_O 	O 	0.3386	0.62714	0.3433	-0.434
Mof_O 	O 	0.3113	0.6318	0.1382	-0.428
Mof_O 	O 	0.2021	0.6003	0.2075	-0.396
Mof_O 	O 	0.2543	0.58736	0.4169	-0.4
Mof_O 	O 	0.8722	0.19636	0.7963	-0.398
Mof_O 	O 	0.8263	0.21235	0.9117	-0.37
Mof_O 	O 	0.9758	0.15407	0.0255	-0.415
Mof_O 	O 	0.9211	0.16889	0.1309	-0.404
Mof_O 	O 	0.4489	0.20871	0.7774	-0.189
Mof_O 	O 	0.5528	0.20016	0.9753	-0.175
Mof_O 	O 	0.6211	0.54259	0.4493	-0.182
Mof_O 	O 	0.5886	0.54584	0.2153	-0.204
Mof_O 	O 	0.0576	0.452	0.3133	-0.201
Mof_O 	O 	0.0234	0.45674	0.0788	-0.196
Mof_O 	O 	0.9072	0.37287	0.8691	-0.173
Mof_O 	O 	0.9771	0.353	0.773	-0.185
Mof_O 	O 	0.2558	0.12917	0.6101	-0.166
Mof_O 	O 	0.1871	0.13786	0.7256	-0.175
Mof_C 	C 	0.4349	0.32436	0.1362	0.442
Mof_C 	C 	0.6446	0.285	0.6074	0.457
Mof_C 	C 	0.4359	0.2704	0.8869	-0.232
Mof_H 	H 	0.4105	0.2668	0.7998	0.137
Mof_C 	C 	0.4198	0.29322	0.9496	0.223
Mof_H 	H 	0.3826	0.3048	0.9044	-0.022
Mof_C 	C 	0.4574	0.29986	0.0797	-0.279
Mof_C 	C 	0.5134	0.28335	0.1444	0.172
Mof_H 	H 	0.5407	0.2883	0.2295	0.001
Mof_C 	C 	0.5287	0.25951	0.0822	-0.253
Mof_H 	H 	0.5656	0.2477	0.1272	0.123
Mof_C 	C 	0.49	0.25271	0.9533	0.154
Mof_C 	C 	0.5467	0.2664	0.6172	0.056
Mof_H 	H 	0.5233	0.2752	0.5361	0.029
Mof_C 	C 	0.5173	0.2527	0.6818	-0.109
Mof_H 	H 	0.4731	0.2522	0.6439	0.083
Mof_C 	C 	0.5513	0.2397	0.8016	0.047
Mof_C 	C 	0.6151	0.2399	0.8645	-0.108
Mof_H 	H 	0.6375	0.2314	0.9466	0.098
Mof_C 	C 	0.6457	0.2536	0.7984	0.057
Mof_H 	H 	0.6898	0.254	0.8375	0.048
Mof_C 	C 	0.612	0.2668	0.6748	-0.126
Mof_C 	C 	0.3501	0.62185	0.2515	0.397
Mof_C 	C 	0.4333	0.41508	0.2321	0.398
Mof_C 	C 	0.5436	0.48388	0.3998	-0.118
Mof_H 	H 	0.5701	0.4907	0.4829	0.104
Mof_C 	C 	0.512	0.45622	0.3804	0.064
Mof_H 	H 	0.5168	0.444	0.4507	0.035
Mof_C 	C 	0.4715	0.44537	0.2554	-0.136
Mof_C 	C 	0.498	0.49221	0.174	-0.12
Mof_H 	H 	0.4935	0.5047	0.1044	0.072
Mof_C 	C 	0.5367	0.50177	0.2982	0.045
Mof_C 	C 	0.4671	0.46452	0.1564	0.064
Mof_H 	H 	0.4413	0.4579	0.0727	0.013
Mof_C 	C 	0.4509	0.59352	0.3909	0.059
Mof_H 	H 	0.446	0.5998	0.4624	0.028
Mof_C 	C 	0.5025	0.57495	0.4058	-0.113
Mof_H 	H 	0.5324	0.5684	0.487	0.094
Mof_C 	C 	0.5083	0.56649	0.2993	0.039
Mof_C 	C 	0.4658	0.57546	0.1767	-0.12
Mof_H 	H 	0.4713	0.5694	0.1058	0.078
Mof_C 	C 	0.415	0.59376	0.1634	0.072
Mof_H 	H 	0.3857	0.6002	0.0816	0.008
Mof_C 	C 	0.4058	0.60288	0.2664	-0.154
Mof_C 	C 	0.97	0.16001	0.1248	0.412
Mof_C 	C 	0.2955	0.37707	0.2758	0.395
Mof_C 	C 	0.2135	0.58273	0.3039	0.382
Mof_C 	C 	0.1798	0.42482	0.3464	-0.092
Mof_H 	H 	0.1747	0.4312	0.4175	0.079
Mof_C 	C 	0.2324	0.40673	0.3646	0.045
Mof_H 	H 	0.263	0.4014	0.4468	0.029
Mof_C 	C 	0.2385	0.39663	0.2552	-0.142
Mof_C 	C 	0.1923	0.40461	0.1348	0.057
Mof_H 	H 	0.1956	0.3973	0.0629	0.007
Mof_C 	C 	0.1412	0.42323	0.1186	-0.104
Mof_H 	H 	0.1109	0.4289	0.0366	0.079
Mof_C 	C 	0.1352	0.43341	0.2261	0.019
Mof_C 	C 	0.1334	0.5442	0.1526	0.025
Mof_H 	H 	0.1278	0.5573	0.084	0.039
Mof_C 	C 	0.1001	0.51517	0.1307	-0.077
Mof_H 	H 	0.0731	0.5087	0.0474	0.079
Mof_C 	C 	0.1082	0.49607	0.2355	0.007
Mof_C 	C 	0.1473	0.50578	0.3598	-0.073
Mof_H 	H 	0.1519	0.4931	0.4289	0.067
Mof_C 	C 	0.1801	0.53482	0.3815	0.023
Mof_H 	H 	0.2053	0.5418	0.465	0.039
Mof_C 	C 	0.1745	0.5531	0.2774	-0.109
Mof_C 	C 	0.1724	0.34282	0.4	0.405
Mof_C 	C 	0.8584	0.21703	0.8535	0.424
Mof_C 	C 	0.9448	0.28704	0.8069	-0.104
Mof_H 	H 	0.9756	0.291	0.7796	0.09
Mof_C 	C 	0.9233	0.25749	0.8059	0.063
Mof_H 	H 	0.9404	0.2407	0.7795	0.032
Mof_C 	C 	0.8759	0.25091	0.843	-0.131
Mof_C 	C 	0.8508	0.27539	0.884	0.061
Mof_H 	H 	0.8199	0.2714	0.9107	0.046
Mof_C 	C 	0.8729	0.30653	0.8845	-0.096
Mof_H 	H 	0.8554	0.3236	0.9084	0.099
Mof_C 	C 	0.92	0.3115	0.8498	0.041
Mof_C 	C 	0.0628	0.35895	0.2485	0.081
Mof_H 	H 	0.0595	0.367	0.3195	0.04
Mof_C 	C 	0.0102	0.3618	0.1248	-0.11
Mof_H 	H 	0.9725	0.3713	0.1136	0.096
Mof_C 	C 	0.017	0.34995	0.0236	0.035
Mof_C 	C 	0.0753	0.3356	0.0423	-0.209
Mof_H 	H 	0.081	0.328	0.9734	0.143
Mof_C 	C 	0.122	0.3333	0.165	0.128
Mof_H 	H 	0.1595	0.323	0.1791	-0
Mof_C 	C 	0.117	0.34491	0.265	-0.161
Mof_C 	C 	0.2703	0.28747	0.674	0.427
Mof_C 	C 	0.0813	0.15746	0.4805	-0.12
Mof_H 	H 	0.08	0.1603	0.5583	0.092
Mof_C 	C 	0.0272	0.16132	0.3669	0.066
Mof_H 	H 	0.9893	0.167	0.3677	0.026
Mof_C 	C 	0.029	0.15669	0.2503	-0.137
Mof_C 	C 	0.0862	0.1476	0.2532	0.068
Mof_H 	H 	0.0883	0.1436	0.1769	0.031
Mof_C 	C 	0.1394	0.1446	0.368	-0.115
Mof_H 	H 	0.1779	0.139	0.3694	0.098
Mof_C 	C 	0.1365	0.14955	0.4789	0.054
Mof_C 	C 	0.23	0.18757	0.6546	0.044
Mof_C 	C 	0.2183	0.24063	0.7178	0.059
Mof_H 	H 	0.201	0.2545	0.7556	0.032
Mof_C 	C 	0.2034	0.20791	0.7076	-0.105
Mof_H 	H 	0.1755	0.2002	0.7372	0.09
Mof_C 	C 	0.2732	0.19878	0.6161	-0.106
Mof_H 	H 	0.2921	0.1847	0.5822	0.094
Mof_C 	C 	0.2887	0.23003	0.6266	0.063
Mof_H 	H 	0.3196	0.2371	0.6039	0.03
Mof_C 	C 	0.2582	0.25175	0.6718	-0.137
_end
