data_functionalizedCrystal
_audit_creation_method	'EQeq! by Chris Wilmer'
_symmetry_space_group_name_H-M	'P1'
_symmetry_Int_Tables_number	1
_symmetry_cell_setting	triclinic
loop_
_symmetry_equiv_pos_as_xyz
  x,y,z
_cell_length_a	6.121
_cell_length_b	10.781
_cell_length_c	13.987
_cell_angle_alpha	98.901
_cell_angle_beta	96.715
_cell_angle_gamma	103.861
loop_
_atom_site_label
_atom_site_type_symbol
_atom_site_fract_x
_atom_site_fract_y
_atom_site_fract_z
_atom_site_charge
Mof_Co	Co	0.64868	0.27667	0.44309	1.179
Mof_Co	Co	0.40069	0.47772	0.38638	1.152
Mof_Co	Co	0.59931	0.52228	0.61362	1.152
Mof_Co	Co	0.35132	0.72333	0.55691	1.179
Mof_H 	H 	0.249	0.0832	0.2835	0.068
Mof_H 	H 	0.194	0.473	0.53	0.25
Mof_H 	H 	0.3463	0.305	0.0645	-0.005
Mof_H 	H 	0.6537	0.695	0.9355	-0.005
Mof_H 	H 	0.8727	0.1867	0.1712	-0.008
Mof_H 	H 	0.9105	0.1024	0.0154	0.111
Mof_H 	H 	0.8269	0.7301	0.261	0.088
Mof_H 	H 	0.4739	0.9332	0.1988	0.076
Mof_H 	H 	0.751	0.9168	0.7165	0.068
Mof_H 	H 	0.6276	0.7903	0.0914	0.119
Mof_H 	H 	0.1273	0.8133	0.8288	-0.008
Mof_H 	H 	0.689	0.9935	0.8503	0.07
Mof_H 	H 	0.7491	0.0325	0.4474	0.03
Mof_H 	H 	0.3724	0.2097	0.9086	0.119
Mof_H 	H 	0.0895	0.8976	0.9846	0.111
Mof_H 	H 	0.806	0.527	0.47	0.25
Mof_H 	H 	0.5261	0.0668	0.8012	0.076
Mof_H 	H 	0.1731	0.2699	0.739	0.088
Mof_H 	H 	0.2509	0.9675	0.5526	0.03
Mof_H 	H 	0.311	0.0065	0.1497	0.07
Mof_C 	C 	0.1243	0.0292	0.3017	-0.096
Mof_C 	C 	0.7715	0.1929	0.1183	0.136
Mof_C 	C 	0.8271	0.9989	0.4009	0.007
Mof_C 	C 	0.0938	0.2221	0.4155	0.391
Mof_C 	C 	0.4214	0.6935	0.763	0.407
Mof_C 	C 	0.1271	0.1818	0.7111	-0.104
Mof_C 	C 	0.1729	0.0011	0.5991	0.007
Mof_C 	C 	0.2077	0.8589	0.9751	-0.22
Mof_C 	C 	0.5786	0.3065	0.237	0.407
Mof_C 	C 	0.4586	0.2615	0.0553	0.14
Mof_C 	C 	0.7923	0.1411	0.0249	-0.22
Mof_C 	C 	0.0093	0.0792	0.372	-0.091
Mof_C 	C 	0.6646	0.0784	0.8469	-0.111
Mof_C 	C 	0.2285	0.8071	0.8817	0.136
Mof_C 	C 	0.4185	0.2258	0.6039	0.382
Mof_C 	C 	0.6435	0.1453	0.946	0.18
Mof_C 	C 	0.5414	0.7385	0.9447	0.14
Mof_C 	C 	0.9062	0.7779	0.5845	0.391
Mof_C 	C 	0.8757	0.9708	0.6983	-0.096
Mof_C 	C 	0.3565	0.8547	0.054	0.18
Mof_C 	C 	0.4761	0.2058	0.9615	-0.226
Mof_C 	C 	0.9907	0.9208	0.628	-0.091
Mof_C 	C 	0.3974	0.7463	0.8659	-0.201
Mof_C 	C 	0.2379	0.1326	0.6402	-0.061
Mof_C 	C 	0.5815	0.7742	0.3961	0.382
Mof_C 	C 	0.6026	0.2537	0.1341	-0.201
Mof_C 	C 	0.9473	0.1005	0.7409	0.152
Mof_C 	C 	0.0527	0.8995	0.2591	0.152
Mof_C 	C 	0.8729	0.8182	0.2889	-0.104
Mof_C 	C 	0.3354	0.9216	0.1531	-0.111
Mof_C 	C 	0.5239	0.7942	0.0385	-0.226
Mof_C 	C 	0.7621	0.8674	0.3598	-0.061
Mof_O 	O 	0.4543	0.343	0.6396	-0.466
Mof_O 	O 	0.6565	0.2495	0.3011	-0.469
Mof_O 	O 	0.5123	0.6028	0.7471	-0.44
Mof_O 	O 	0.6883	0.4655	0.4783	-0.785
Mof_O 	O 	0.5169	0.1785	0.53855	-0.456
Mof_O 	O 	0.4831	0.8215	0.46145	-0.456
Mof_O 	O 	0.1467	0.8424	0.1851	-0.195
Mof_O 	O 	0.3117	0.5345	0.5217	-0.785
Mof_O 	O 	0.02	0.7233	0.53084	-0.477
Mof_O 	O 	0.98	0.2767	0.46916	-0.477
Mof_O 	O 	0.5457	0.657	0.3604	-0.466
Mof_O 	O 	0.3435	0.7505	0.6989	-0.469
Mof_O 	O 	0.7176	0.7184	0.60347	-0.527
Mof_O 	O 	0.2824	0.2816	0.39653	-0.527
Mof_O 	O 	0.8533	0.1576	0.8149	-0.195
Mof_O 	O 	0.4877	0.3972	0.2529	-0.44
_end
