data_functionalizedCrystal
_audit_creation_method	'EQeq! by Chris Wilmer'
_symmetry_space_group_name_H-M	'P1'
_symmetry_Int_Tables_number	1
_symmetry_cell_setting	triclinic
loop_
_symmetry_equiv_pos_as_xyz
  x,y,z
_cell_length_a	15.6139
_cell_length_b	18.3439
_cell_length_c	34.336
_cell_angle_alpha	90
_cell_angle_beta	90
_cell_angle_gamma	90
loop_
_atom_site_label
_atom_site_type_symbol
_atom_site_fract_x
_atom_site_fract_y
_atom_site_fract_z
_atom_site_charge
Mof_Co	Co	0.50379	0.6104	0.48158	1.126
Mof_N 	N 	0.676	0.5568	0.5086	-0.191
Mof_O 	O 	0.8323	0.5892	0.52589	-0.36
Mof_C 	C 	0.7201	0.5055	0.52759	-0.04
Mof_C 	C 	0.8093	0.5272	0.5381	0.307
Mof_O 	O 	0.7407	0.3483	0.5622	-0.384
Mof_O 	O 	0.6002	0.3416	0.5557	-0.365
Mof_N 	N 	0.588	0.4692	0.52115	-0.189
Mof_O 	O 	0.8543	0.4873	0.55976	-0.384
Mof_C 	C 	0.67	0.3738	0.55281	0.34
Mof_N 	N 	0.5957	0.5348	0.50529	-0.169
Mof_C 	C 	0.6645	0.4488	0.53534	-0.045
Mof_N 	N 	0.831	0.3802	0.6825	-0.224
Mof_C 	C 	0.8093	0.3834	0.64594	0.12
Mof_H 	H 	0.7531	0.3909	0.6378	-0.007
Mof_Co	Co	0.50379	0.1104	0.98158	1.127
Mof_N 	N 	0.676	0.0568	0.0086	-0.19
Mof_O 	O 	0.8323	0.0892	0.02589	-0.36
Mof_C 	C 	0.7201	0.0055	0.02759	-0.039
Mof_C 	C 	0.8093	0.0272	0.0381	0.309
Mof_O 	O 	0.7407	0.8483	0.0622	-0.384
Mof_O 	O 	0.6002	0.8416	0.0557	-0.365
Mof_N 	N 	0.588	0.9692	0.02115	-0.19
Mof_O 	O 	0.8543	0.9873	0.05976	-0.387
Mof_C 	C 	0.67	0.8738	0.05281	0.34
Mof_N 	N 	0.5957	0.0348	0.00529	-0.169
Mof_C 	C 	0.6645	0.9488	0.03534	-0.047
Mof_N 	N 	0.831	0.8802	0.1825	-0.225
Mof_C 	C 	0.8093	0.8834	0.14594	0.12
Mof_H 	H 	0.7531	0.8909	0.1378	-0.008
Mof_Co	Co	0.00379	0.6104	0.98158	1.127
Mof_N 	N 	0.176	0.5568	0.0086	-0.189
Mof_O 	O 	0.3323	0.5892	0.02589	-0.359
Mof_C 	C 	0.2201	0.5055	0.02759	-0.039
Mof_C 	C 	0.3093	0.5272	0.0381	0.307
Mof_O 	O 	0.2407	0.3483	0.0622	-0.384
Mof_O 	O 	0.1002	0.3416	0.0557	-0.365
Mof_N 	N 	0.088	0.4692	0.02115	-0.189
Mof_O 	O 	0.3543	0.4873	0.05976	-0.384
Mof_C 	C 	0.17	0.3738	0.05281	0.34
Mof_N 	N 	0.0957	0.5348	0.00529	-0.169
Mof_C 	C 	0.1645	0.4488	0.03534	-0.045
Mof_N 	N 	0.331	0.3802	0.1825	-0.224
Mof_C 	C 	0.3093	0.3834	0.14594	0.12
Mof_H 	H 	0.2531	0.3909	0.1378	-0.007
Mof_Co	Co	0.00379	0.1104	0.48158	1.127
Mof_N 	N 	0.176	0.0568	0.5086	-0.189
Mof_O 	O 	0.3323	0.0892	0.52589	-0.359
Mof_C 	C 	0.2201	0.0055	0.52759	-0.042
Mof_C 	C 	0.3093	0.0272	0.5381	0.306
Mof_O 	O 	0.2407	0.8483	0.5622	-0.383
Mof_O 	O 	0.1002	0.8416	0.5557	-0.364
Mof_N 	N 	0.088	0.9692	0.52115	-0.188
Mof_O 	O 	0.3543	0.9873	0.55976	-0.384
Mof_C 	C 	0.17	0.8738	0.55281	0.339
Mof_N 	N 	0.0957	0.0348	0.50529	-0.171
Mof_C 	C 	0.1645	0.9488	0.53534	-0.043
Mof_N 	N 	0.331	0.8802	0.6825	-0.224
Mof_C 	C 	0.3093	0.8834	0.64594	0.12
Mof_H 	H 	0.2531	0.8909	0.6378	-0.007
Mof_Co	Co	0.24621	0.1396	0.48158	1.127
Mof_N 	N 	0.074	0.1932	0.5086	-0.19
Mof_O 	O 	0.9177	0.1608	0.52589	-0.359
Mof_C 	C 	0.0299	0.2445	0.52759	-0.041
Mof_C 	C 	0.9407	0.2228	0.5381	0.308
Mof_O 	O 	0.0093	0.4017	0.5622	-0.384
Mof_O 	O 	0.1498	0.4084	0.5557	-0.365
Mof_N 	N 	0.162	0.2808	0.52115	-0.189
Mof_O 	O 	0.8957	0.2627	0.55976	-0.384
Mof_C 	C 	0.08	0.3762	0.55281	0.34
Mof_N 	N 	0.1543	0.2152	0.50529	-0.169
Mof_C 	C 	0.0855	0.3012	0.53534	-0.045
Mof_N 	N 	0.919	0.3698	0.6825	-0.224
Mof_C 	C 	0.9407	0.3666	0.64594	0.12
Mof_H 	H 	0.9969	0.3591	0.6378	-0.007
Mof_Co	Co	0.24621	0.6396	0.98158	1.127
Mof_N 	N 	0.074	0.6932	0.0086	-0.19
Mof_O 	O 	0.9177	0.6608	0.02589	-0.359
Mof_C 	C 	0.0299	0.7445	0.02759	-0.037
Mof_C 	C 	0.9407	0.7228	0.0381	0.304
Mof_O 	O 	0.0093	0.9017	0.0622	-0.382
Mof_O 	O 	0.1498	0.9084	0.0557	-0.365
Mof_N 	N 	0.162	0.7808	0.02115	-0.189
Mof_O 	O 	0.8957	0.7627	0.05976	-0.384
Mof_C 	C 	0.08	0.8762	0.05281	0.34
Mof_N 	N 	0.1543	0.7152	0.00529	-0.169
Mof_C 	C 	0.0855	0.8012	0.03534	-0.045
Mof_N 	N 	0.919	0.8698	0.1825	-0.225
Mof_C 	C 	0.9407	0.8666	0.14594	0.12
Mof_H 	H 	0.9969	0.8591	0.1378	-0.008
Mof_Co	Co	0.74621	0.1396	0.98158	1.127
Mof_N 	N 	0.574	0.1932	0.0086	-0.19
Mof_O 	O 	0.4177	0.1608	0.02589	-0.359
Mof_C 	C 	0.5299	0.2445	0.02759	-0.039
Mof_C 	C 	0.4407	0.2228	0.0381	0.307
Mof_O 	O 	0.5093	0.4017	0.0622	-0.384
Mof_O 	O 	0.6498	0.4084	0.0557	-0.365
Mof_N 	N 	0.662	0.2808	0.02115	-0.189
Mof_O 	O 	0.3957	0.2627	0.05976	-0.384
Mof_C 	C 	0.58	0.3762	0.05281	0.34
Mof_N 	N 	0.6543	0.2152	0.00529	-0.169
Mof_C 	C 	0.5855	0.3012	0.03534	-0.045
Mof_N 	N 	0.419	0.3698	0.1825	-0.224
Mof_C 	C 	0.4407	0.3666	0.14594	0.12
Mof_H 	H 	0.4969	0.3591	0.1378	-0.007
Mof_Co	Co	0.74621	0.6396	0.48158	1.127
Mof_N 	N 	0.574	0.6932	0.5086	-0.19
Mof_O 	O 	0.4177	0.6608	0.52589	-0.359
Mof_C 	C 	0.5299	0.7445	0.52759	-0.039
Mof_C 	C 	0.4407	0.7228	0.5381	0.307
Mof_O 	O 	0.5093	0.9017	0.5622	-0.384
Mof_O 	O 	0.6498	0.9084	0.5557	-0.365
Mof_N 	N 	0.662	0.7808	0.52115	-0.189
Mof_O 	O 	0.3957	0.7627	0.55976	-0.384
Mof_C 	C 	0.58	0.8762	0.55281	0.34
Mof_N 	N 	0.6543	0.7152	0.50529	-0.169
Mof_C 	C 	0.5855	0.8012	0.53534	-0.045
Mof_N 	N 	0.419	0.8698	0.6825	-0.224
Mof_C 	C 	0.4407	0.8666	0.64594	0.12
Mof_H 	H 	0.4969	0.8591	0.6378	-0.007
Mof_Co	Co	0.24621	0.6104	0.26842	1.127
Mof_N 	N 	0.074	0.5568	0.2414	-0.19
Mof_O 	O 	0.9177	0.5892	0.22411	-0.359
Mof_C 	C 	0.0299	0.5055	0.22241	-0.038
Mof_C 	C 	0.9407	0.5272	0.2119	0.306
Mof_O 	O 	0.0093	0.3483	0.1878	-0.384
Mof_O 	O 	0.1498	0.3416	0.1943	-0.365
Mof_N 	N 	0.162	0.4692	0.22885	-0.189
Mof_O 	O 	0.8957	0.4873	0.19024	-0.384
Mof_C 	C 	0.08	0.3738	0.19719	0.34
Mof_N 	N 	0.1543	0.5348	0.24471	-0.169
Mof_C 	C 	0.0855	0.4488	0.21466	-0.045
Mof_N 	N 	0.919	0.3802	0.0675	-0.224
Mof_C 	C 	0.9407	0.3834	0.10406	0.12
Mof_H 	H 	0.9969	0.3909	0.1122	-0.007
Mof_Co	Co	0.24621	0.1104	0.76842	1.127
Mof_N 	N 	0.074	0.0568	0.7414	-0.189
Mof_O 	O 	0.9177	0.0892	0.72411	-0.36
Mof_C 	C 	0.0299	0.0055	0.72241	-0.047
Mof_C 	C 	0.9407	0.0272	0.7119	0.314
Mof_O 	O 	0.0093	0.8483	0.6878	-0.382
Mof_O 	O 	0.1498	0.8416	0.6943	-0.364
Mof_N 	N 	0.162	0.9692	0.72885	-0.189
Mof_O 	O 	0.8957	0.9873	0.69024	-0.388
Mof_C 	C 	0.08	0.8738	0.69719	0.338
Mof_N 	N 	0.1543	0.0348	0.74471	-0.17
Mof_C 	C 	0.0855	0.9488	0.71466	-0.04
Mof_N 	N 	0.919	0.8802	0.5675	-0.225
Mof_C 	C 	0.9407	0.8834	0.60406	0.12
Mof_H 	H 	0.9969	0.8909	0.6122	-0.008
Mof_Co	Co	0.74621	0.6104	0.76842	1.127
Mof_N 	N 	0.574	0.5568	0.7414	-0.19
Mof_O 	O 	0.4177	0.5892	0.72411	-0.359
Mof_C 	C 	0.5299	0.5055	0.72241	-0.039
Mof_C 	C 	0.4407	0.5272	0.7119	0.307
Mof_O 	O 	0.5093	0.3483	0.6878	-0.384
Mof_O 	O 	0.6498	0.3416	0.6943	-0.365
Mof_N 	N 	0.662	0.4692	0.72885	-0.189
Mof_O 	O 	0.3957	0.4873	0.69024	-0.384
Mof_C 	C 	0.58	0.3738	0.69719	0.34
Mof_N 	N 	0.6543	0.5348	0.74471	-0.169
Mof_C 	C 	0.5855	0.4488	0.71466	-0.045
Mof_N 	N 	0.419	0.3802	0.5675	-0.224
Mof_C 	C 	0.4407	0.3834	0.60406	0.12
Mof_H 	H 	0.4969	0.3909	0.6122	-0.007
Mof_Co	Co	0.74621	0.1104	0.26842	1.127
Mof_N 	N 	0.574	0.0568	0.2414	-0.19
Mof_O 	O 	0.4177	0.0892	0.22411	-0.359
Mof_C 	C 	0.5299	0.0055	0.22241	-0.039
Mof_C 	C 	0.4407	0.0272	0.2119	0.306
Mof_O 	O 	0.5093	0.8483	0.1878	-0.384
Mof_O 	O 	0.6498	0.8416	0.1943	-0.365
Mof_N 	N 	0.662	0.9692	0.22885	-0.19
Mof_O 	O 	0.3957	0.9873	0.19024	-0.384
Mof_C 	C 	0.58	0.8738	0.19719	0.34
Mof_N 	N 	0.6543	0.0348	0.24471	-0.169
Mof_C 	C 	0.5855	0.9488	0.21466	-0.046
Mof_N 	N 	0.419	0.8802	0.0675	-0.224
Mof_C 	C 	0.4407	0.8834	0.10406	0.12
Mof_H 	H 	0.4969	0.8909	0.1122	-0.008
Mof_Co	Co	0.50379	0.1396	0.26842	1.127
Mof_N 	N 	0.676	0.1932	0.2414	-0.19
Mof_O 	O 	0.8323	0.1608	0.22411	-0.359
Mof_C 	C 	0.7201	0.2445	0.22241	-0.039
Mof_C 	C 	0.8093	0.2228	0.2119	0.307
Mof_O 	O 	0.7407	0.4017	0.1878	-0.384
Mof_O 	O 	0.6002	0.4084	0.1943	-0.365
Mof_N 	N 	0.588	0.2808	0.22885	-0.189
Mof_O 	O 	0.8543	0.2627	0.19024	-0.384
Mof_C 	C 	0.67	0.3762	0.19719	0.34
Mof_N 	N 	0.5957	0.2152	0.24471	-0.169
Mof_C 	C 	0.6645	0.3012	0.21466	-0.045
Mof_N 	N 	0.831	0.3698	0.0675	-0.225
Mof_C 	C 	0.8093	0.3666	0.10406	0.12
Mof_H 	H 	0.7531	0.3591	0.1122	-0.007
Mof_Co	Co	0.50379	0.6396	0.76842	1.127
Mof_N 	N 	0.676	0.6932	0.7414	-0.19
Mof_O 	O 	0.8323	0.6608	0.72411	-0.359
Mof_C 	C 	0.7201	0.7445	0.72241	-0.04
Mof_C 	C 	0.8093	0.7228	0.7119	0.307
Mof_O 	O 	0.7407	0.9017	0.6878	-0.384
Mof_O 	O 	0.6002	0.9084	0.6943	-0.365
Mof_N 	N 	0.588	0.7808	0.72885	-0.189
Mof_O 	O 	0.8543	0.7627	0.69024	-0.385
Mof_C 	C 	0.67	0.8762	0.69719	0.34
Mof_N 	N 	0.5957	0.7152	0.74471	-0.169
Mof_C 	C 	0.6645	0.8012	0.71466	-0.045
Mof_N 	N 	0.831	0.8698	0.5675	-0.225
Mof_C 	C 	0.8093	0.8666	0.60406	0.12
Mof_H 	H 	0.7531	0.8591	0.6122	-0.007
Mof_Co	Co	0.00379	0.1396	0.76842	1.126
Mof_N 	N 	0.176	0.1932	0.7414	-0.19
Mof_O 	O 	0.3323	0.1608	0.72411	-0.359
Mof_C 	C 	0.2201	0.2445	0.72241	-0.04
Mof_C 	C 	0.3093	0.2228	0.7119	0.307
Mof_O 	O 	0.2407	0.4017	0.6878	-0.384
Mof_O 	O 	0.1002	0.4084	0.6943	-0.365
Mof_N 	N 	0.088	0.2808	0.72885	-0.19
Mof_O 	O 	0.3543	0.2627	0.69024	-0.384
Mof_C 	C 	0.17	0.3762	0.69719	0.34
Mof_N 	N 	0.0957	0.2152	0.74471	-0.17
Mof_C 	C 	0.1645	0.3012	0.71466	-0.045
Mof_N 	N 	0.331	0.3698	0.5675	-0.224
Mof_C 	C 	0.3093	0.3666	0.60406	0.12
Mof_H 	H 	0.2531	0.3591	0.6122	-0.007
Mof_Co	Co	0.00379	0.6396	0.26842	1.128
Mof_N 	N 	0.176	0.6932	0.2414	-0.19
Mof_O 	O 	0.3323	0.6608	0.22411	-0.359
Mof_C 	C 	0.2201	0.7445	0.22241	-0.039
Mof_C 	C 	0.3093	0.7228	0.2119	0.307
Mof_O 	O 	0.2407	0.9017	0.1878	-0.384
Mof_O 	O 	0.1002	0.9084	0.1943	-0.364
Mof_N 	N 	0.088	0.7808	0.22885	-0.189
Mof_O 	O 	0.3543	0.7627	0.19024	-0.384
Mof_C 	C 	0.17	0.8762	0.19719	0.34
Mof_N 	N 	0.0957	0.7152	0.24471	-0.169
Mof_C 	C 	0.1645	0.8012	0.21466	-0.045
Mof_N 	N 	0.331	0.8698	0.0675	-0.224
Mof_C 	C 	0.3093	0.8666	0.10406	0.12
Mof_H 	H 	0.2531	0.8591	0.1122	-0.007
Mof_Co	Co	0.49621	0.3896	0.51842	1.127
Mof_N 	N 	0.324	0.4432	0.4914	-0.19
Mof_O 	O 	0.1677	0.4108	0.47411	-0.359
Mof_C 	C 	0.2799	0.4945	0.47241	-0.039
Mof_C 	C 	0.1907	0.4728	0.4619	0.307
Mof_O 	O 	0.2593	0.6517	0.4378	-0.384
Mof_O 	O 	0.3998	0.6584	0.4443	-0.365
Mof_N 	N 	0.412	0.5308	0.47885	-0.189
Mof_O 	O 	0.1457	0.5127	0.44024	-0.384
Mof_C 	C 	0.33	0.6262	0.44719	0.34
Mof_N 	N 	0.4043	0.4652	0.49471	-0.169
Mof_C 	C 	0.3355	0.5512	0.46466	-0.045
Mof_N 	N 	0.169	0.6198	0.3175	-0.224
Mof_C 	C 	0.1907	0.6166	0.35406	0.12
Mof_H 	H 	0.2469	0.6091	0.3622	-0.007
Mof_Co	Co	0.49621	0.8896	0.01842	1.127
Mof_N 	N 	0.324	0.9432	0.9914	-0.19
Mof_O 	O 	0.1677	0.9108	0.97411	-0.36
Mof_C 	C 	0.2799	0.9945	0.97241	-0.039
Mof_C 	C 	0.1907	0.9728	0.9619	0.309
Mof_O 	O 	0.2593	0.1517	0.9378	-0.384
Mof_O 	O 	0.3998	0.1584	0.9443	-0.365
Mof_N 	N 	0.412	0.0308	0.97885	-0.19
Mof_O 	O 	0.1457	0.0127	0.94024	-0.387
Mof_C 	C 	0.33	0.1262	0.94719	0.34
Mof_N 	N 	0.4043	0.9652	0.99471	-0.169
Mof_C 	C 	0.3355	0.0512	0.96466	-0.047
Mof_N 	N 	0.169	0.1198	0.8175	-0.225
Mof_C 	C 	0.1907	0.1166	0.85406	0.12
Mof_H 	H 	0.2469	0.1091	0.8622	-0.008
Mof_Co	Co	0.99621	0.3896	0.01842	1.127
Mof_N 	N 	0.824	0.4432	0.9914	-0.189
Mof_O 	O 	0.6677	0.4108	0.97411	-0.359
Mof_C 	C 	0.7799	0.4945	0.97241	-0.039
Mof_C 	C 	0.6907	0.4728	0.9619	0.307
Mof_O 	O 	0.7593	0.6517	0.9378	-0.384
Mof_O 	O 	0.8998	0.6584	0.9443	-0.365
Mof_N 	N 	0.912	0.5308	0.97885	-0.189
Mof_O 	O 	0.6457	0.5127	0.94024	-0.384
Mof_C 	C 	0.83	0.6262	0.94719	0.34
Mof_N 	N 	0.9043	0.4652	0.99471	-0.169
Mof_C 	C 	0.8355	0.5512	0.96466	-0.045
Mof_N 	N 	0.669	0.6198	0.8175	-0.224
Mof_C 	C 	0.6907	0.6166	0.85406	0.12
Mof_H 	H 	0.7469	0.6091	0.8622	-0.007
Mof_Co	Co	0.99621	0.8896	0.51842	1.127
Mof_N 	N 	0.824	0.9432	0.4914	-0.189
Mof_O 	O 	0.6677	0.9108	0.47411	-0.359
Mof_C 	C 	0.7799	0.9945	0.47241	-0.042
Mof_C 	C 	0.6907	0.9728	0.4619	0.306
Mof_O 	O 	0.7593	0.1517	0.4378	-0.383
Mof_O 	O 	0.8998	0.1584	0.4443	-0.364
Mof_N 	N 	0.912	0.0308	0.47885	-0.188
Mof_O 	O 	0.6457	0.0127	0.44024	-0.384
Mof_C 	C 	0.83	0.1262	0.44719	0.339
Mof_N 	N 	0.9043	0.9652	0.49471	-0.171
Mof_C 	C 	0.8355	0.0512	0.46466	-0.043
Mof_N 	N 	0.669	0.1198	0.3175	-0.224
Mof_C 	C 	0.6907	0.1166	0.35406	0.12
Mof_H 	H 	0.7469	0.1091	0.3622	-0.007
Mof_Co	Co	0.75379	0.8604	0.51842	1.127
Mof_N 	N 	0.926	0.8068	0.4914	-0.19
Mof_O 	O 	0.0823	0.8392	0.47411	-0.359
Mof_C 	C 	0.9701	0.7555	0.47241	-0.041
Mof_C 	C 	0.0593	0.7772	0.4619	0.308
Mof_O 	O 	0.9907	0.5983	0.4378	-0.384
Mof_O 	O 	0.8502	0.5916	0.4443	-0.365
Mof_N 	N 	0.838	0.7192	0.47885	-0.189
Mof_O 	O 	0.1043	0.7373	0.44024	-0.384
Mof_C 	C 	0.92	0.6238	0.44719	0.34
Mof_N 	N 	0.8457	0.7848	0.49471	-0.169
Mof_C 	C 	0.9145	0.6988	0.46466	-0.045
Mof_N 	N 	0.081	0.6302	0.3175	-0.224
Mof_C 	C 	0.0593	0.6334	0.35406	0.12
Mof_H 	H 	0.0031	0.6409	0.3622	-0.007
Mof_Co	Co	0.75379	0.3604	0.01842	1.127
Mof_N 	N 	0.926	0.3068	0.9914	-0.19
Mof_O 	O 	0.0823	0.3392	0.97411	-0.359
Mof_C 	C 	0.9701	0.2555	0.97241	-0.037
Mof_C 	C 	0.0593	0.2772	0.9619	0.304
Mof_O 	O 	0.9907	0.0983	0.9378	-0.382
Mof_O 	O 	0.8502	0.0916	0.9443	-0.365
Mof_N 	N 	0.838	0.2192	0.97885	-0.189
Mof_O 	O 	0.1043	0.2373	0.94024	-0.384
Mof_C 	C 	0.92	0.1238	0.94719	0.34
Mof_N 	N 	0.8457	0.2848	0.99471	-0.169
Mof_C 	C 	0.9145	0.1988	0.96466	-0.045
Mof_N 	N 	0.081	0.1302	0.8175	-0.225
Mof_C 	C 	0.0593	0.1334	0.85406	0.12
Mof_H 	H 	0.0031	0.1409	0.8622	-0.008
Mof_Co	Co	0.25379	0.8604	0.01842	1.127
Mof_N 	N 	0.426	0.8068	0.9914	-0.19
Mof_O 	O 	0.5823	0.8392	0.97411	-0.359
Mof_C 	C 	0.4701	0.7555	0.97241	-0.039
Mof_C 	C 	0.5593	0.7772	0.9619	0.307
Mof_O 	O 	0.4907	0.5983	0.9378	-0.384
Mof_O 	O 	0.3502	0.5916	0.9443	-0.365
Mof_N 	N 	0.338	0.7192	0.97885	-0.189
Mof_O 	O 	0.6043	0.7373	0.94024	-0.384
Mof_C 	C 	0.42	0.6238	0.94719	0.34
Mof_N 	N 	0.3457	0.7848	0.99471	-0.169
Mof_C 	C 	0.4145	0.6988	0.96466	-0.045
Mof_N 	N 	0.581	0.6302	0.8175	-0.224
Mof_C 	C 	0.5593	0.6334	0.85406	0.12
Mof_H 	H 	0.5031	0.6409	0.8622	-0.007
Mof_Co	Co	0.25379	0.3604	0.51842	1.127
Mof_N 	N 	0.426	0.3068	0.4914	-0.19
Mof_O 	O 	0.5823	0.3392	0.47411	-0.359
Mof_C 	C 	0.4701	0.2555	0.47241	-0.039
Mof_C 	C 	0.5593	0.2772	0.4619	0.307
Mof_O 	O 	0.4907	0.0983	0.4378	-0.384
Mof_O 	O 	0.3502	0.0916	0.4443	-0.365
Mof_N 	N 	0.338	0.2192	0.47885	-0.189
Mof_O 	O 	0.6043	0.2373	0.44024	-0.384
Mof_C 	C 	0.42	0.1238	0.44719	0.34
Mof_N 	N 	0.3457	0.2848	0.49471	-0.169
Mof_C 	C 	0.4145	0.1988	0.46466	-0.045
Mof_N 	N 	0.581	0.1302	0.3175	-0.224
Mof_C 	C 	0.5593	0.1334	0.35406	0.12
Mof_H 	H 	0.5031	0.1409	0.3622	-0.007
Mof_Co	Co	0.75379	0.3896	0.73158	1.127
Mof_N 	N 	0.926	0.4432	0.7586	-0.19
Mof_O 	O 	0.0823	0.4108	0.77589	-0.359
Mof_C 	C 	0.9701	0.4945	0.77759	-0.038
Mof_C 	C 	0.0593	0.4728	0.7881	0.306
Mof_O 	O 	0.9907	0.6517	0.8122	-0.384
Mof_O 	O 	0.8502	0.6584	0.8057	-0.365
Mof_N 	N 	0.838	0.5308	0.77115	-0.189
Mof_O 	O 	0.1043	0.5127	0.80976	-0.384
Mof_C 	C 	0.92	0.6262	0.80281	0.34
Mof_N 	N 	0.8457	0.4652	0.75529	-0.169
Mof_C 	C 	0.9145	0.5512	0.78534	-0.045
Mof_N 	N 	0.081	0.6198	0.9325	-0.224
Mof_C 	C 	0.0593	0.6166	0.89594	0.12
Mof_H 	H 	0.0031	0.6091	0.8878	-0.007
Mof_Co	Co	0.75379	0.8896	0.23158	1.127
Mof_N 	N 	0.926	0.9432	0.2586	-0.189
Mof_O 	O 	0.0823	0.9108	0.27589	-0.36
Mof_C 	C 	0.9701	0.9945	0.27759	-0.047
Mof_C 	C 	0.0593	0.9728	0.2881	0.314
Mof_O 	O 	0.9907	0.1517	0.3122	-0.382
Mof_O 	O 	0.8502	0.1584	0.3057	-0.364
Mof_N 	N 	0.838	0.0308	0.27115	-0.189
Mof_O 	O 	0.1043	0.0127	0.30976	-0.388
Mof_C 	C 	0.92	0.1262	0.30281	0.338
Mof_N 	N 	0.8457	0.9652	0.25529	-0.17
Mof_C 	C 	0.9145	0.0512	0.28534	-0.04
Mof_N 	N 	0.081	0.1198	0.4325	-0.225
Mof_C 	C 	0.0593	0.1166	0.39594	0.12
Mof_H 	H 	0.0031	0.1091	0.3878	-0.008
Mof_Co	Co	0.25379	0.3896	0.23158	1.127
Mof_N 	N 	0.426	0.4432	0.2586	-0.19
Mof_O 	O 	0.5823	0.4108	0.27589	-0.359
Mof_C 	C 	0.4701	0.4945	0.27759	-0.039
Mof_C 	C 	0.5593	0.4728	0.2881	0.307
Mof_O 	O 	0.4907	0.6517	0.3122	-0.384
Mof_O 	O 	0.3502	0.6584	0.3057	-0.365
Mof_N 	N 	0.338	0.5308	0.27115	-0.189
Mof_O 	O 	0.6043	0.5127	0.30976	-0.384
Mof_C 	C 	0.42	0.6262	0.30281	0.34
Mof_N 	N 	0.3457	0.4652	0.25529	-0.169
Mof_C 	C 	0.4145	0.5512	0.28534	-0.045
Mof_N 	N 	0.581	0.6198	0.4325	-0.224
Mof_C 	C 	0.5593	0.6166	0.39594	0.12
Mof_H 	H 	0.5031	0.6091	0.3878	-0.007
Mof_Co	Co	0.25379	0.8896	0.73158	1.127
Mof_N 	N 	0.426	0.9432	0.7586	-0.19
Mof_O 	O 	0.5823	0.9108	0.77589	-0.359
Mof_C 	C 	0.4701	0.9945	0.77759	-0.039
Mof_C 	C 	0.5593	0.9728	0.7881	0.306
Mof_O 	O 	0.4907	0.1517	0.8122	-0.384
Mof_O 	O 	0.3502	0.1584	0.8057	-0.365
Mof_N 	N 	0.338	0.0308	0.77115	-0.19
Mof_O 	O 	0.6043	0.0127	0.80976	-0.384
Mof_C 	C 	0.42	0.1262	0.80281	0.34
Mof_N 	N 	0.3457	0.9652	0.75529	-0.169
Mof_C 	C 	0.4145	0.0512	0.78534	-0.046
Mof_N 	N 	0.581	0.1198	0.9325	-0.224
Mof_C 	C 	0.5593	0.1166	0.89594	0.12
Mof_H 	H 	0.5031	0.1091	0.8878	-0.008
Mof_Co	Co	0.49621	0.8604	0.73158	1.127
Mof_N 	N 	0.324	0.8068	0.7586	-0.19
Mof_O 	O 	0.1677	0.8392	0.77589	-0.359
Mof_C 	C 	0.2799	0.7555	0.77759	-0.039
Mof_C 	C 	0.1907	0.7772	0.7881	0.307
Mof_O 	O 	0.2593	0.5983	0.8122	-0.384
Mof_O 	O 	0.3998	0.5916	0.8057	-0.365
Mof_N 	N 	0.412	0.7192	0.77115	-0.189
Mof_O 	O 	0.1457	0.7373	0.80976	-0.384
Mof_C 	C 	0.33	0.6238	0.80281	0.34
Mof_N 	N 	0.4043	0.7848	0.75529	-0.169
Mof_C 	C 	0.3355	0.6988	0.78534	-0.045
Mof_N 	N 	0.169	0.6302	0.9325	-0.225
Mof_C 	C 	0.1907	0.6334	0.89594	0.12
Mof_H 	H 	0.2469	0.6409	0.8878	-0.007
Mof_Co	Co	0.49621	0.3604	0.23158	1.127
Mof_N 	N 	0.324	0.3068	0.2586	-0.19
Mof_O 	O 	0.1677	0.3392	0.27589	-0.359
Mof_C 	C 	0.2799	0.2555	0.27759	-0.04
Mof_C 	C 	0.1907	0.2772	0.2881	0.307
Mof_O 	O 	0.2593	0.0983	0.3122	-0.384
Mof_O 	O 	0.3998	0.0916	0.3057	-0.365
Mof_N 	N 	0.412	0.2192	0.27115	-0.189
Mof_O 	O 	0.1457	0.2373	0.30976	-0.385
Mof_C 	C 	0.33	0.1238	0.30281	0.34
Mof_N 	N 	0.4043	0.2848	0.25529	-0.169
Mof_C 	C 	0.3355	0.1988	0.28534	-0.045
Mof_N 	N 	0.169	0.1302	0.4325	-0.225
Mof_C 	C 	0.1907	0.1334	0.39594	0.12
Mof_H 	H 	0.2469	0.1409	0.3878	-0.007
Mof_Co	Co	0.99621	0.8604	0.23158	1.126
Mof_N 	N 	0.824	0.8068	0.2586	-0.19
Mof_O 	O 	0.6677	0.8392	0.27589	-0.359
Mof_C 	C 	0.7799	0.7555	0.27759	-0.04
Mof_C 	C 	0.6907	0.7772	0.2881	0.307
Mof_O 	O 	0.7593	0.5983	0.3122	-0.384
Mof_O 	O 	0.8998	0.5916	0.3057	-0.365
Mof_N 	N 	0.912	0.7192	0.27115	-0.19
Mof_O 	O 	0.6457	0.7373	0.30976	-0.384
Mof_C 	C 	0.83	0.6238	0.30281	0.34
Mof_N 	N 	0.9043	0.7848	0.25529	-0.17
Mof_C 	C 	0.8355	0.6988	0.28534	-0.045
Mof_N 	N 	0.669	0.6302	0.4325	-0.224
Mof_C 	C 	0.6907	0.6334	0.39594	0.12
Mof_H 	H 	0.7469	0.6409	0.3878	-0.007
Mof_Co	Co	0.99621	0.3604	0.73158	1.128
Mof_N 	N 	0.824	0.3068	0.7586	-0.19
Mof_O 	O 	0.6677	0.3392	0.77589	-0.359
Mof_C 	C 	0.7799	0.2555	0.77759	-0.039
Mof_C 	C 	0.6907	0.2772	0.7881	0.307
Mof_O 	O 	0.7593	0.0983	0.8122	-0.384
Mof_O 	O 	0.8998	0.0916	0.8057	-0.364
Mof_N 	N 	0.912	0.2192	0.77115	-0.189
Mof_O 	O 	0.6457	0.2373	0.80976	-0.384
Mof_C 	C 	0.83	0.1238	0.80281	0.34
Mof_N 	N 	0.9043	0.2848	0.75529	-0.169
Mof_C 	C 	0.8355	0.1988	0.78534	-0.045
Mof_N 	N 	0.669	0.1302	0.9325	-0.224
Mof_C 	C 	0.6907	0.1334	0.89594	0.12
Mof_H 	H 	0.7469	0.1409	0.8878	-0.007
Mof_Co	Co	0.875	0.375	0.56079	1.16
Mof_N 	N 	0.875	0.375	0.6209	-0.235
Mof_Co	Co	0.875	0.875	0.06079	1.159
Mof_N 	N 	0.875	0.875	0.1209	-0.235
Mof_Co	Co	0.375	0.375	0.06079	1.16
Mof_N 	N 	0.375	0.375	0.1209	-0.235
Mof_Co	Co	0.375	0.875	0.56079	1.16
Mof_N 	N 	0.375	0.875	0.6209	-0.235
Mof_Co	Co	0.875	0.375	0.18921	1.16
Mof_N 	N 	0.875	0.375	0.1291	-0.235
Mof_Co	Co	0.875	0.875	0.68921	1.16
Mof_N 	N 	0.875	0.875	0.6291	-0.235
Mof_Co	Co	0.375	0.375	0.68921	1.16
Mof_N 	N 	0.375	0.375	0.6291	-0.235
Mof_Co	Co	0.375	0.875	0.18921	1.16
Mof_N 	N 	0.375	0.875	0.1291	-0.235
Mof_Co	Co	0.125	0.625	0.43921	1.16
Mof_N 	N 	0.125	0.625	0.3791	-0.235
Mof_Co	Co	0.125	0.125	0.93921	1.159
Mof_N 	N 	0.125	0.125	0.8791	-0.235
Mof_Co	Co	0.625	0.625	0.93921	1.16
Mof_N 	N 	0.625	0.625	0.8791	-0.235
Mof_Co	Co	0.625	0.125	0.43921	1.16
Mof_N 	N 	0.625	0.125	0.3791	-0.235
Mof_Co	Co	0.125	0.625	0.81079	1.16
Mof_N 	N 	0.125	0.625	0.8709	-0.235
Mof_Co	Co	0.125	0.125	0.31079	1.16
Mof_N 	N 	0.125	0.125	0.3709	-0.235
Mof_Co	Co	0.625	0.625	0.31079	1.16
Mof_N 	N 	0.625	0.625	0.3709	-0.235
Mof_Co	Co	0.625	0.125	0.81079	1.16
Mof_N 	N 	0.625	0.125	0.8709	-0.235
_end
