data_functionalizedCrystal
_audit_creation_method	'EQeq! by Chris Wilmer'
_symmetry_space_group_name_H-M	'P1'
_symmetry_Int_Tables_number	1
_symmetry_cell_setting	triclinic
loop_
_symmetry_equiv_pos_as_xyz
  x,y,z
_cell_length_a	25.618
_cell_length_b	17.04
_cell_length_c	4.4322
_cell_angle_alpha	90
_cell_angle_beta	99.96
_cell_angle_gamma	90
loop_
_atom_site_label
_atom_site_type_symbol
_atom_site_fract_x
_atom_site_fract_y
_atom_site_fract_z
_atom_site_charge
Mof_Cu	Cu	0.46865	0.39272	0.29599	0.921
Mof_O 	O 	0.5062	0.2852	0.349	-0.155
Mof_P 	P 	0.3785	0.37176	0.7159	0.417
Mof_O 	O 	0.427	0.3441	0.9387	-0.318
Mof_O 	O 	0.3958	0.4192	0.452	-0.467
Mof_O 	O 	0.3388	0.4184	0.8631	-0.341
Mof_C 	C 	0.348	0.2819	0.5566	-0.061
Mof_C 	C 	0.3669	0.2108	0.668	0.009
Mof_H 	H 	0.396	0.2091	0.826	0.076
Mof_C 	C 	0.3436	0.1399	0.549	-0.079
Mof_H 	H 	0.3561	0.0921	0.634	0.084
Mof_C 	C 	0.3015	0.1422	0.304	0.038
Mof_C 	C 	0.2805	0.2125	0.193	-0.094
Mof_H 	H 	0.2514	0.2138	0.0356	0.051
Mof_C 	C 	0.3034	0.283	0.321	0.005
Mof_H 	H 	0.2888	0.3309	0.2492	0.021
Mof_C 	C 	0.2784	0.0658	0.164	0.037
Mof_N 	N 	0.2382	0.0699	0.9288	-0.081
Mof_O 	O 	0.0146	0.075	0.6627	-0.356
Mof_C 	C 	0.153	0.0694	0.434	-0.126
Mof_H 	H 	0.1688	0.1166	0.5048	0.098
Mof_C 	C 	0.1084	0.0696	0.206	0.072
Mof_H 	H 	0.0952	0.117	0.1202	0.004
Mof_O 	O 	0.4838	0.2856	0.493	-0.125
Mof_Cu	Cu	0.96865	0.89272	0.29599	0.916
Mof_O 	O 	0.0062	0.7852	0.349	-0.104
Mof_P 	P 	0.8785	0.87176	0.7159	0.418
Mof_O 	O 	0.927	0.8441	0.9387	-0.32
Mof_O 	O 	0.8958	0.9192	0.452	-0.457
Mof_O 	O 	0.8388	0.9184	0.8631	-0.33
Mof_C 	C 	0.848	0.7819	0.5566	-0.061
Mof_C 	C 	0.8669	0.7108	0.668	0.011
Mof_H 	H 	0.896	0.7091	0.826	0.075
Mof_C 	C 	0.8436	0.6399	0.549	-0.08
Mof_H 	H 	0.8561	0.5921	0.634	0.087
Mof_C 	C 	0.8015	0.6422	0.304	0.039
Mof_C 	C 	0.7805	0.7125	0.193	-0.094
Mof_H 	H 	0.7514	0.7138	0.0356	0.052
Mof_C 	C 	0.8034	0.783	0.321	0.004
Mof_H 	H 	0.7888	0.8309	0.2492	0.024
Mof_C 	C 	0.7784	0.5658	0.164	0.039
Mof_N 	N 	0.7382	0.5699	0.9288	-0.082
Mof_O 	O 	0.5146	0.575	0.6627	-0.369
Mof_C 	C 	0.653	0.5694	0.434	-0.131
Mof_H 	H 	0.6688	0.6166	0.5048	0.1
Mof_C 	C 	0.6084	0.5696	0.206	0.067
Mof_H 	H 	0.5952	0.617	0.1202	0.004
Mof_O 	O 	0.9838	0.7856	0.493	-0.171
Mof_Cu	Cu	0.46865	0.60728	0.29599	0.92
Mof_O 	O 	0.5062	0.7148	0.349	-0.152
Mof_P 	P 	0.3785	0.62824	0.7159	0.417
Mof_O 	O 	0.427	0.6559	0.9387	-0.317
Mof_O 	O 	0.3958	0.5808	0.452	-0.467
Mof_O 	O 	0.3388	0.5816	0.8631	-0.341
Mof_C 	C 	0.348	0.7181	0.5566	-0.06
Mof_C 	C 	0.3669	0.7892	0.668	0.009
Mof_H 	H 	0.396	0.7909	0.826	0.08
Mof_C 	C 	0.3436	0.8601	0.549	-0.075
Mof_H 	H 	0.3561	0.9079	0.634	0.094
Mof_C 	C 	0.3015	0.8578	0.304	0.034
Mof_C 	C 	0.2805	0.7875	0.193	-0.09
Mof_H 	H 	0.2514	0.7862	0.0356	0.051
Mof_C 	C 	0.3034	0.717	0.321	0.003
Mof_H 	H 	0.2888	0.6691	0.2492	0.022
Mof_C 	C 	0.2784	0.9342	0.164	0.066
Mof_N 	N 	0.2382	0.9301	0.9288	-0.072
Mof_O 	O 	0.0146	0.925	0.6627	-0.337
Mof_C 	C 	0.153	0.9306	0.434	-0.101
Mof_H 	H 	0.1688	0.8834	0.5048	0.093
Mof_C 	C 	0.1084	0.9304	0.206	0.096
Mof_H 	H 	0.0952	0.883	0.1202	-0.001
Mof_O 	O 	0.4838	0.7144	0.493	-0.122
Mof_Cu	Cu	0.96865	0.10728	0.29599	0.911
Mof_O 	O 	0.0062	0.2148	0.349	-0.105
Mof_P 	P 	0.8785	0.12824	0.7159	0.418
Mof_O 	O 	0.927	0.1559	0.9387	-0.322
Mof_O 	O 	0.8958	0.0808	0.452	-0.473
Mof_O 	O 	0.8388	0.0816	0.8631	-0.348
Mof_C 	C 	0.848	0.2181	0.5566	-0.063
Mof_C 	C 	0.8669	0.2892	0.668	0.012
Mof_H 	H 	0.896	0.2909	0.826	0.075
Mof_C 	C 	0.8436	0.3601	0.549	-0.081
Mof_H 	H 	0.8561	0.4079	0.634	0.087
Mof_C 	C 	0.8015	0.3578	0.304	0.039
Mof_C 	C 	0.7805	0.2875	0.193	-0.096
Mof_H 	H 	0.7514	0.2862	0.0356	0.05
Mof_C 	C 	0.8034	0.217	0.321	0.006
Mof_H 	H 	0.7888	0.1691	0.2492	0.018
Mof_C 	C 	0.7784	0.4342	0.164	0.039
Mof_N 	N 	0.7382	0.4301	0.9288	-0.082
Mof_O 	O 	0.5146	0.425	0.6627	-0.37
Mof_C 	C 	0.653	0.4306	0.434	-0.131
Mof_H 	H 	0.6688	0.3834	0.5048	0.098
Mof_C 	C 	0.6084	0.4304	0.206	0.067
Mof_H 	H 	0.5952	0.383	0.1202	0.003
Mof_O 	O 	0.9838	0.2144	0.493	-0.17
Mof_Cu	Cu	0.36046	0.5	0.1695	0.879
Mof_Cu	Cu	0.86046	0	0.1695	0.867
Mof_N 	N 	0.3008	-8.27926e-34	0.285	-0.142
Mof_C 	C 	0.2185	0	0.816	0.095
Mof_P 	P 	0.01862	3.3117e-33	0.8482	0.523
Mof_O 	O 	0.9785	2.06981e-34	0.069	-0.561
Mof_C 	C 	0.1734	-1.65585e-33	0.554	0.05
Mof_C 	C 	0.0835	0	0.103	-0.198
Mof_N 	N 	0.8008	0.5	0.285	-0.124
Mof_C 	C 	0.7185	0.5	0.816	0.111
Mof_P 	P 	0.51862	0.5	0.8482	0.523
Mof_O 	O 	0.4785	0.5	0.069	-0.531
Mof_C 	C 	0.6734	0.5	0.554	0.079
Mof_C 	C 	0.5835	0.5	0.103	-0.17
_end
