data_functionalizedCrystal
_audit_creation_method	'EQeq! by Chris Wilmer'
_symmetry_space_group_name_H-M	'P1'
_symmetry_Int_Tables_number	1
_symmetry_cell_setting	triclinic
loop_
_symmetry_equiv_pos_as_xyz
  x,y,z
_cell_length_a	15.8734
_cell_length_b	13.4525
_cell_length_c	6.6309
_cell_angle_alpha	90
_cell_angle_beta	97.862
_cell_angle_gamma	90
loop_
_atom_site_label
_atom_site_type_symbol
_atom_site_fract_x
_atom_site_fract_y
_atom_site_fract_z
_atom_site_charge
Mof_Tb	Tb	0.25118	0.9392	0.46505	1.744
Mof_O 	O 	0.31965	0.7967	0.3655	-0.529
Mof_O 	O 	0.31887	0.6373	0.284	-0.497
Mof_O 	O 	0.71921	0.8765	0.5553	-0.415
Mof_O 	O 	0.6104	0.9717	0.4415	-0.404
Mof_O 	O 	0.1527	0.8793	0.1537	-0.441
Mof_O 	O 	0.11453	0.0114	0.3073	-0.443
Mof_N 	N 	0.5798	0.619	0.4163	-0.153
Mof_C 	C 	0.3562	0.717	0.3376	0.508
Mof_C 	C 	0.4521	0.7164	0.3762	-0.217
Mof_C 	C 	0.4954	0.6259	0.3795	0.125
Mof_H 	H 	0.4639	0.5679	0.3548	0.009
Mof_C 	C 	0.6239	0.7032	0.451	0.098
Mof_H 	H 	0.6827	0.6988	0.4802	0.008
Mof_C 	C 	0.5871	0.7966	0.446	-0.145
Mof_C 	C 	0.499	0.8031	0.4082	0.123
Mof_H 	H 	0.472	0.8646	0.4043	0.001
Mof_C 	C 	0.6424	0.888	0.4824	0.336
Mof_C 	C 	0.1007	0.9486	0.1672	0.334
Mof_C 	C 	0.0219	0.9519	0.0106	-0.21
Mof_H 	H 	0.0379	0.9336	0.8794	0.08
Mof_H 	H 	0.9823	0.9021	0.0461	0.088
Mof_Tb	Tb	0.74882	0.4392	0.03495	1.747
Mof_O 	O 	0.68035	0.2967	0.1345	-0.53
Mof_O 	O 	0.68113	0.1373	0.216	-0.499
Mof_O 	O 	0.28079	0.3765	0.9447	-0.417
Mof_O 	O 	0.3896	0.4717	0.0585	-0.405
Mof_O 	O 	0.8473	0.3793	0.3463	-0.443
Mof_O 	O 	0.88547	0.5114	0.1927	-0.449
Mof_N 	N 	0.4202	0.119	0.0837	-0.153
Mof_C 	C 	0.6438	0.217	0.1624	0.508
Mof_C 	C 	0.5479	0.2164	0.1238	-0.217
Mof_C 	C 	0.5046	0.1259	0.1205	0.126
Mof_H 	H 	0.5361	0.0679	0.1452	0.009
Mof_C 	C 	0.3761	0.2032	0.049	0.098
Mof_H 	H 	0.3173	0.1988	0.0198	0.008
Mof_C 	C 	0.4129	0.2966	0.054	-0.146
Mof_C 	C 	0.501	0.3031	0.0918	0.123
Mof_H 	H 	0.528	0.3646	0.0957	0
Mof_C 	C 	0.3576	0.388	0.0176	0.339
Mof_C 	C 	0.8993	0.4486	0.3328	0.341
Mof_C 	C 	0.9781	0.4519	0.4894	-0.214
Mof_H 	H 	0.9621	0.4336	0.6206	0.085
Mof_H 	H 	0.0177	0.4021	0.4539	0.088
Mof_Tb	Tb	0.74882	0.0608	0.53495	1.745
Mof_O 	O 	0.68035	0.2033	0.6345	-0.528
Mof_O 	O 	0.68113	0.3627	0.716	-0.497
Mof_O 	O 	0.28079	0.1235	0.4447	-0.415
Mof_O 	O 	0.3896	0.0283	0.5585	-0.404
Mof_O 	O 	0.8473	0.1207	0.8463	-0.441
Mof_O 	O 	0.88547	0.9886	0.6927	-0.443
Mof_N 	N 	0.4202	0.381	0.5837	-0.153
Mof_C 	C 	0.6438	0.283	0.6624	0.508
Mof_C 	C 	0.5479	0.2836	0.6238	-0.217
Mof_C 	C 	0.5046	0.3741	0.6205	0.125
Mof_H 	H 	0.5361	0.4321	0.6452	0.009
Mof_C 	C 	0.3761	0.2968	0.549	0.098
Mof_H 	H 	0.3173	0.3012	0.5198	0.008
Mof_C 	C 	0.4129	0.2034	0.554	-0.145
Mof_C 	C 	0.501	0.1969	0.5918	0.123
Mof_H 	H 	0.528	0.1354	0.5957	0.001
Mof_C 	C 	0.3576	0.112	0.5176	0.336
Mof_C 	C 	0.8993	0.0514	0.8328	0.334
Mof_C 	C 	0.9781	0.0481	0.9894	-0.21
Mof_H 	H 	0.9621	0.0664	0.1206	0.08
Mof_H 	H 	0.0177	0.0979	0.9539	0.088
Mof_Tb	Tb	0.25118	0.5608	0.96505	1.747
Mof_O 	O 	0.31965	0.7033	0.8655	-0.53
Mof_O 	O 	0.31887	0.8627	0.784	-0.499
Mof_O 	O 	0.71921	0.6235	0.0553	-0.417
Mof_O 	O 	0.6104	0.5283	0.9415	-0.405
Mof_O 	O 	0.1527	0.6207	0.6537	-0.443
Mof_O 	O 	0.11453	0.4886	0.8073	-0.449
Mof_N 	N 	0.5798	0.881	0.9163	-0.153
Mof_C 	C 	0.3562	0.783	0.8376	0.508
Mof_C 	C 	0.4521	0.7836	0.8762	-0.217
Mof_C 	C 	0.4954	0.8741	0.8795	0.126
Mof_H 	H 	0.4639	0.9321	0.8548	0.009
Mof_C 	C 	0.6239	0.7968	0.951	0.098
Mof_H 	H 	0.6827	0.8012	0.9802	0.008
Mof_C 	C 	0.5871	0.7034	0.946	-0.146
Mof_C 	C 	0.499	0.6969	0.9082	0.123
Mof_H 	H 	0.472	0.6354	0.9043	0
Mof_C 	C 	0.6424	0.612	0.9824	0.339
Mof_C 	C 	0.1007	0.5514	0.6672	0.341
Mof_C 	C 	0.0219	0.5481	0.5106	-0.214
Mof_H 	H 	0.0379	0.5664	0.3794	0.085
Mof_H 	H 	0.9823	0.5979	0.5461	0.088
_end
