data_functionalizedCrystal
_audit_creation_method	'EQeq! by Chris Wilmer'
_symmetry_space_group_name_H-M	'P1'
_symmetry_Int_Tables_number	1
_symmetry_cell_setting	triclinic
loop_
_symmetry_equiv_pos_as_xyz
  x,y,z
_cell_length_a	38.1861
_cell_length_b	5.0042
_cell_length_c	8.381
_cell_angle_alpha	90
_cell_angle_beta	102.535
_cell_angle_gamma	90
loop_
_atom_site_label
_atom_site_type_symbol
_atom_site_fract_x
_atom_site_fract_y
_atom_site_fract_z
_atom_site_charge
Mof_O 	O 	0.35778	0.751	0.2045	-0.894
Mof_O 	O 	0.16559	0.2462	0.3136	-3.24
Mof_O 	O 	0.40497	0.7634	0.0463	-1.288
Mof_O 	O 	0.85778	0.251	0.2045	-1.07
Mof_O 	O 	0.66559	0.7462	0.3136	-2.286
Mof_O 	O 	0.90497	0.2634	0.0463	-1.349
Mof_O 	O 	0.64222	0.751	0.7955	-0.893
Mof_O 	O 	0.83441	0.2462	0.6864	-3.239
Mof_O 	O 	0.59503	0.7634	0.9537	-1.287
Mof_O 	O 	0.14222	0.251	0.7955	-1.069
Mof_O 	O 	0.33441	0.7462	0.6864	-2.285
Mof_O 	O 	0.09503	0.2634	0.9537	-1.348
Mof_O 	O 	0.64222	0.249	0.7955	-1.276
Mof_O 	O 	0.83441	0.7538	0.6864	-2.832
Mof_O 	O 	0.59503	0.2366	0.9537	-1.683
Mof_O 	O 	0.14222	0.749	0.7955	-0.685
Mof_O 	O 	0.33441	0.2538	0.6864	-2.68
Mof_O 	O 	0.09503	0.7366	0.9537	-0.989
Mof_O 	O 	0.35778	0.249	0.2045	-1.276
Mof_O 	O 	0.16559	0.7538	0.3136	-2.832
Mof_O 	O 	0.40497	0.2366	0.0463	-1.683
Mof_O 	O 	0.85778	0.749	0.2045	-0.685
Mof_O 	O 	0.66559	0.2538	0.3136	-2.68
Mof_O 	O 	0.90497	0.7366	0.0463	-0.989
Mof_Al	Al	0.10799	1.6147e-32	0.8458	2.961
Mof_P 	P 	0.34711	4.03675e-33	0.2878	1.12
Mof_O 	O 	0.36584	0	0.4637	-3.551
Mof_O 	O 	0.15639	0	0.0457	-0.95
Mof_P 	P 	0.17615	0	0.2313	1.48
Mof_Al	Al	0.36248	0	0.6453	10.443
Mof_P 	P 	0.41614	1.6147e-32	0.9581	1.309
Mof_O 	O 	0.39864	0	0.7778	-3.43
Mof_C 	C 	0.29855	-4.03675e-33	0.2717	-0.472
Mof_C 	C 	0.27548	-2.01838e-33	0.1196	0.067
Mof_C 	C 	0.23843	0	0.1073	-0.108
Mof_C 	C 	0.22477	0	0.2474	-0.265
Mof_C 	C 	0.24784	0	0.3996	-0.086
Mof_C 	C 	0.28489	0	0.4118	0.19
Mof_C 	C 	0.46314	1.6147e-32	0.9824	-0.406
Mof_C 	C 	0.47829	0	0.84569	0.008
Mof_C 	C 	0.48465	-2.01838e-33	0.1351	-0.023
Mof_H 	H 	0.28496	0	0.02242	-0.151
Mof_H 	H 	0.22242	0	0.00175	-0.075
Mof_H 	H 	0.23837	-8.0735e-33	0.49671	-0.108
Mof_H 	H 	0.30089	0	0.51737	-0.444
Mof_H 	H 	0.46313	0	0.7381	-0.175
Mof_H 	H 	0.4742	0	0.22949	-0.251
Mof_Al	Al	0.60799	0.5	0.8458	5.125
Mof_P 	P 	0.84711	0.5	0.2878	1.499
Mof_O 	O 	0.86584	0.5	0.4637	-4.172
Mof_O 	O 	0.65639	0.5	0.0457	-0.863
Mof_P 	P 	0.67615	0.5	0.2313	1.618
Mof_Al	Al	0.86248	0.5	0.6453	13.196
Mof_P 	P 	0.91614	0.5	0.9581	1.577
Mof_O 	O 	0.89864	0.5	0.7778	-4.036
Mof_C 	C 	0.79855	0.5	0.2717	-0.493
Mof_C 	C 	0.77548	0.5	0.1196	0.251
Mof_C 	C 	0.73843	0.5	0.1073	-0.091
Mof_C 	C 	0.72477	0.5	0.2474	-0.069
Mof_C 	C 	0.74784	0.5	0.3996	-0.091
Mof_C 	C 	0.78489	0.5	0.4118	0.424
Mof_C 	C 	0.96314	0.5	0.9824	-0.346
Mof_C 	C 	0.97829	0.5	0.84569	0.058
Mof_C 	C 	0.98465	0.5	0.1351	-0.013
Mof_H 	H 	0.78496	0.5	0.02242	0.009
Mof_H 	H 	0.72242	0.5	0.00175	0.135
Mof_H 	H 	0.73837	0.5	0.49671	0.149
Mof_H 	H 	0.80089	0.5	0.51737	-0.434
Mof_H 	H 	0.96313	0.5	0.7381	-0.122
Mof_H 	H 	0.9742	0.5	0.22949	-0.125
Mof_Al	Al	0.89201	-4.03675e-33	0.1542	2.961
Mof_P 	P 	0.65289	1.6147e-32	0.7122	1.12
Mof_O 	O 	0.63416	0	0.5363	-3.551
Mof_O 	O 	0.84361	1.6147e-32	0.9543	-0.95
Mof_P 	P 	0.82385	0	0.7687	1.48
Mof_Al	Al	0.63752	0	0.3547	10.443
Mof_P 	P 	0.58386	0	0.0419	1.309
Mof_O 	O 	0.60136	-4.03675e-33	0.2222	-3.43
Mof_C 	C 	0.70145	0	0.7283	-0.472
Mof_C 	C 	0.72452	-1.6147e-32	0.8804	0.067
Mof_C 	C 	0.76157	1.6147e-32	0.8927	-0.108
Mof_C 	C 	0.77523	0	0.7526	-0.265
Mof_C 	C 	0.75216	-1.6147e-32	0.6004	-0.086
Mof_C 	C 	0.71511	1.6147e-32	0.5882	0.19
Mof_C 	C 	0.53686	0	0.0176	-0.406
Mof_C 	C 	0.52171	0	0.15431	0.008
Mof_C 	C 	0.51535	-1.6147e-32	0.8649	-0.023
Mof_H 	H 	0.71504	-1.6147e-32	0.97758	-0.151
Mof_H 	H 	0.77758	0	0.99825	-0.075
Mof_H 	H 	0.76163	8.0735e-33	0.50329	-0.108
Mof_H 	H 	0.69911	0	0.48263	-0.444
Mof_H 	H 	0.53687	4.03675e-33	0.2619	-0.175
Mof_H 	H 	0.5258	0	0.77051	-0.251
Mof_Al	Al	0.39201	0.5	0.1542	5.125
Mof_P 	P 	0.15289	0.5	0.7122	1.499
Mof_O 	O 	0.13416	0.5	0.5363	-4.172
Mof_O 	O 	0.34361	0.5	0.9543	-0.863
Mof_P 	P 	0.32385	0.5	0.7687	1.618
Mof_Al	Al	0.13752	0.5	0.3547	13.196
Mof_P 	P 	0.08386	0.5	0.0419	1.577
Mof_O 	O 	0.10136	0.5	0.2222	-4.036
Mof_C 	C 	0.20145	0.5	0.7283	-0.493
Mof_C 	C 	0.22452	0.5	0.8804	0.251
Mof_C 	C 	0.26157	0.5	0.8927	-0.091
Mof_C 	C 	0.27523	0.5	0.7526	-0.069
Mof_C 	C 	0.25216	0.5	0.6004	-0.091
Mof_C 	C 	0.21511	0.5	0.5882	0.424
Mof_C 	C 	0.03686	0.5	0.0176	-0.346
Mof_C 	C 	0.02171	0.5	0.15431	0.058
Mof_C 	C 	0.01535	0.5	0.8649	-0.013
Mof_H 	H 	0.21504	0.5	0.97758	0.009
Mof_H 	H 	0.27758	0.5	0.99825	0.135
Mof_H 	H 	0.26163	0.5	0.50329	0.149
Mof_H 	H 	0.19911	0.5	0.48263	-0.434
Mof_H 	H 	0.03687	0.5	0.2619	-0.122
Mof_H 	H 	0.0258	0.5	0.77051	-0.125
_end
