data_functionalizedCrystal
_audit_creation_method	'EQeq! by Chris Wilmer'
_symmetry_space_group_name_H-M	'P1'
_symmetry_Int_Tables_number	1
_symmetry_cell_setting	triclinic
loop_
_symmetry_equiv_pos_as_xyz
  x,y,z
_cell_length_a	27.9486
_cell_length_b	27.9486
_cell_length_c	6.2302
_cell_angle_alpha	90
_cell_angle_beta	90
_cell_angle_gamma	120
loop_
_atom_site_label
_atom_site_type_symbol
_atom_site_fract_x
_atom_site_fract_y
_atom_site_fract_z
_atom_site_charge
Mof_Ni	Ni	0.63786	0.0284	0.0517	1.087
Mof_P 	P 	0.61355	0.03959	0.5729	0.331
Mof_O 	O 	0.6141	0.0947	0.5185	-0.231
Mof_O 	O 	0.6306	0.0104	0.3692	-0.494
Mof_O 	O 	0.6611	0.0472	0.7288	-0.472
Mof_N 	N 	0.5567	0.0062	0.9706	-0.201
Mof_C 	C 	0.5437	0.0568	0.986	0.003
Mof_C 	C 	0.518	0.9613	0.084	0.023
Mof_C 	C 	0.5468	0.9885	0.73	-0.044
Mof_Ni	Ni	0.30453	0.36173	0.38503	1.087
Mof_P 	P 	0.28022	0.37292	0.90623	0.329
Mof_O 	O 	0.28077	0.42803	0.85183	-0.231
Mof_O 	O 	0.29727	0.34373	0.70253	-0.494
Mof_O 	O 	0.32777	0.38053	0.06213	-0.471
Mof_N 	N 	0.22337	0.33953	0.30393	-0.201
Mof_C 	C 	0.21037	0.39013	0.31933	0.002
Mof_C 	C 	0.18467	0.29463	0.41733	0.023
Mof_C 	C 	0.21347	0.32183	0.06333	-0.043
Mof_Ni	Ni	0.97119	0.69507	0.71837	1.087
Mof_P 	P 	0.94688	0.70626	0.23957	0.329
Mof_O 	O 	0.94743	0.76137	0.18517	-0.231
Mof_O 	O 	0.96393	0.67707	0.03587	-0.495
Mof_O 	O 	0.99443	0.71387	0.39547	-0.472
Mof_N 	N 	0.89003	0.67287	0.63727	-0.201
Mof_C 	C 	0.87703	0.72347	0.65267	0.002
Mof_C 	C 	0.85133	0.62797	0.75067	0.024
Mof_C 	C 	0.88013	0.65517	0.39667	-0.044
Mof_Ni	Ni	0.9716	0.60946	0.0517	1.086
Mof_P 	P 	0.96041	0.57396	0.5729	0.33
Mof_O 	O 	0.9053	0.5194	0.5185	-0.231
Mof_O 	O 	0.9896	0.6202	0.3692	-0.495
Mof_O 	O 	0.9528	0.6139	0.7288	-0.472
Mof_N 	N 	0.9938	0.5505	0.9706	-0.201
Mof_C 	C 	0.9432	0.4869	0.986	0.003
Mof_C 	C 	0.0387	0.5567	0.084	0.023
Mof_C 	C 	0.0115	0.5583	0.73	-0.044
Mof_Ni	Ni	0.63827	0.94279	0.38503	1.087
Mof_P 	P 	0.62708	0.90729	0.90623	0.329
Mof_O 	O 	0.57197	0.85273	0.85183	-0.231
Mof_O 	O 	0.65627	0.95353	0.70253	-0.494
Mof_O 	O 	0.61947	0.94723	0.06213	-0.471
Mof_N 	N 	0.66047	0.88383	0.30393	-0.201
Mof_C 	C 	0.60987	0.82023	0.31933	0.002
Mof_C 	C 	0.70537	0.89003	0.41733	0.023
Mof_C 	C 	0.67817	0.89163	0.06333	-0.043
Mof_Ni	Ni	0.30493	0.27613	0.71837	1.087
Mof_P 	P 	0.29374	0.24063	0.23957	0.329
Mof_O 	O 	0.23863	0.18607	0.18517	-0.231
Mof_O 	O 	0.32293	0.28687	0.03587	-0.495
Mof_O 	O 	0.28613	0.28057	0.39547	-0.472
Mof_N 	N 	0.32713	0.21717	0.63727	-0.201
Mof_C 	C 	0.27653	0.15357	0.65267	0.002
Mof_C 	C 	0.37203	0.22337	0.75067	0.024
Mof_C 	C 	0.34483	0.22497	0.39667	-0.044
Mof_Ni	Ni	0.39054	0.36214	0.0517	1.087
Mof_P 	P 	0.42604	0.38645	0.5729	0.33
Mof_O 	O 	0.4806	0.3859	0.5185	-0.231
Mof_O 	O 	0.3798	0.3694	0.3692	-0.495
Mof_O 	O 	0.3861	0.3389	0.7288	-0.472
Mof_N 	N 	0.4495	0.4433	0.9706	-0.202
Mof_C 	C 	0.5131	0.4563	0.986	0.003
Mof_C 	C 	0.4433	0.482	0.084	0.023
Mof_C 	C 	0.4417	0.4532	0.73	-0.043
Mof_Ni	Ni	0.05721	0.69547	0.38503	1.087
Mof_P 	P 	0.09271	0.71978	0.90623	0.329
Mof_O 	O 	0.14727	0.71923	0.85183	-0.231
Mof_O 	O 	0.04647	0.70273	0.70253	-0.494
Mof_O 	O 	0.05277	0.67223	0.06213	-0.471
Mof_N 	N 	0.11617	0.77663	0.30393	-0.201
Mof_C 	C 	0.17977	0.78963	0.31933	0.002
Mof_C 	C 	0.10997	0.81533	0.41733	0.023
Mof_C 	C 	0.10837	0.78653	0.06333	-0.043
Mof_Ni	Ni	0.72387	0.02881	0.71837	1.087
Mof_P 	P 	0.75937	0.05312	0.23957	0.329
Mof_O 	O 	0.81393	0.05257	0.18517	-0.231
Mof_O 	O 	0.71313	0.03607	0.03587	-0.495
Mof_O 	O 	0.71943	0.00557	0.39547	-0.472
Mof_N 	N 	0.78283	0.10997	0.63727	-0.201
Mof_C 	C 	0.84643	0.12297	0.65267	0.002
Mof_C 	C 	0.77663	0.14867	0.75067	0.024
Mof_C 	C 	0.77503	0.11987	0.39667	-0.044
Mof_Ni	Ni	0.36214	0.9716	0.9483	1.086
Mof_P 	P 	0.38645	0.96041	0.4271	0.33
Mof_O 	O 	0.3859	0.9053	0.4815	-0.231
Mof_O 	O 	0.3694	0.9896	0.6308	-0.494
Mof_O 	O 	0.3389	0.9528	0.2712	-0.472
Mof_N 	N 	0.4433	0.9938	0.0294	-0.201
Mof_C 	C 	0.4563	0.9432	0.014	0.003
Mof_C 	C 	0.482	0.0387	0.916	0.023
Mof_C 	C 	0.4532	0.0115	0.27	-0.044
Mof_Ni	Ni	0.02881	0.30493	0.28163	1.087
Mof_P 	P 	0.05312	0.29374	0.76043	0.329
Mof_O 	O 	0.05257	0.23863	0.81483	-0.231
Mof_O 	O 	0.03607	0.32293	0.96413	-0.495
Mof_O 	O 	0.00557	0.28613	0.60453	-0.472
Mof_N 	N 	0.10997	0.32713	0.36273	-0.201
Mof_C 	C 	0.12297	0.27653	0.34733	0.002
Mof_C 	C 	0.14867	0.37203	0.24933	0.024
Mof_C 	C 	0.11987	0.34483	0.60333	-0.044
Mof_Ni	Ni	0.69547	0.63827	0.61497	1.087
Mof_P 	P 	0.71978	0.62708	0.09377	0.329
Mof_O 	O 	0.71923	0.57197	0.14817	-0.231
Mof_O 	O 	0.70273	0.65627	0.29747	-0.494
Mof_O 	O 	0.67223	0.61947	0.93787	-0.471
Mof_N 	N 	0.77663	0.66047	0.69607	-0.201
Mof_C 	C 	0.78963	0.60987	0.68067	0.002
Mof_C 	C 	0.81533	0.70537	0.58267	0.023
Mof_C 	C 	0.78653	0.67817	0.93667	-0.043
Mof_Ni	Ni	0.0284	0.39054	0.9483	1.086
Mof_P 	P 	0.03959	0.42604	0.4271	0.33
Mof_O 	O 	0.0947	0.4806	0.4815	-0.231
Mof_O 	O 	0.0104	0.3798	0.6308	-0.495
Mof_O 	O 	0.0472	0.3861	0.2712	-0.472
Mof_N 	N 	0.0062	0.4495	0.0294	-0.201
Mof_C 	C 	0.0568	0.5131	0.014	0.003
Mof_C 	C 	0.9613	0.4433	0.916	0.023
Mof_C 	C 	0.9885	0.4417	0.27	-0.044
Mof_Ni	Ni	0.69507	0.72387	0.28163	1.087
Mof_P 	P 	0.70626	0.75937	0.76043	0.329
Mof_O 	O 	0.76137	0.81393	0.81483	-0.231
Mof_O 	O 	0.67707	0.71313	0.96413	-0.495
Mof_O 	O 	0.71387	0.71943	0.60453	-0.472
Mof_N 	N 	0.67287	0.78283	0.36273	-0.201
Mof_C 	C 	0.72347	0.84643	0.34733	0.002
Mof_C 	C 	0.62797	0.77663	0.24933	0.024
Mof_C 	C 	0.65517	0.77503	0.60333	-0.044
Mof_Ni	Ni	0.36173	0.05721	0.61497	1.087
Mof_P 	P 	0.37292	0.09271	0.09377	0.329
Mof_O 	O 	0.42803	0.14727	0.14817	-0.231
Mof_O 	O 	0.34373	0.04647	0.29747	-0.494
Mof_O 	O 	0.38053	0.05277	0.93787	-0.471
Mof_N 	N 	0.33953	0.11617	0.69607	-0.201
Mof_C 	C 	0.39013	0.17977	0.68067	0.002
Mof_C 	C 	0.29463	0.10997	0.58267	0.023
Mof_C 	C 	0.32183	0.10837	0.93667	-0.043
Mof_Ni	Ni	0.60946	0.63786	0.9483	1.087
Mof_P 	P 	0.57396	0.61355	0.4271	0.33
Mof_O 	O 	0.5194	0.6141	0.4815	-0.231
Mof_O 	O 	0.6202	0.6306	0.6308	-0.495
Mof_O 	O 	0.6139	0.6611	0.2712	-0.472
Mof_N 	N 	0.5505	0.5567	0.0294	-0.202
Mof_C 	C 	0.4869	0.5437	0.014	0.003
Mof_C 	C 	0.5567	0.518	0.916	0.023
Mof_C 	C 	0.5583	0.5468	0.27	-0.043
Mof_Ni	Ni	0.27613	0.97119	0.28163	1.087
Mof_P 	P 	0.24063	0.94688	0.76043	0.329
Mof_O 	O 	0.18607	0.94743	0.81483	-0.231
Mof_O 	O 	0.28687	0.96393	0.96413	-0.495
Mof_O 	O 	0.28057	0.99443	0.60453	-0.472
Mof_N 	N 	0.21717	0.89003	0.36273	-0.201
Mof_C 	C 	0.15357	0.87703	0.34733	0.002
Mof_C 	C 	0.22337	0.85133	0.24933	0.024
Mof_C 	C 	0.22497	0.88013	0.60333	-0.044
Mof_Ni	Ni	0.94279	0.30453	0.61497	1.087
Mof_P 	P 	0.90729	0.28022	0.09377	0.329
Mof_O 	O 	0.85273	0.28077	0.14817	-0.231
Mof_O 	O 	0.95353	0.29727	0.29747	-0.494
Mof_O 	O 	0.94723	0.32777	0.93787	-0.471
Mof_N 	N 	0.88383	0.22337	0.69607	-0.201
Mof_C 	C 	0.82023	0.21037	0.68067	0.002
Mof_C 	C 	0.89003	0.18467	0.58267	0.023
Mof_C 	C 	0.89163	0.21347	0.93667	-0.043
_end
