data_functionalizedCrystal
_audit_creation_method	'EQeq! by Chris Wilmer'
_symmetry_space_group_name_H-M	'P1'
_symmetry_Int_Tables_number	1
_symmetry_cell_setting	triclinic
loop_
_symmetry_equiv_pos_as_xyz
  x,y,z
_cell_length_a	25.107
_cell_length_b	25.107
_cell_length_c	23.531
_cell_angle_alpha	90
_cell_angle_beta	90
_cell_angle_gamma	90
loop_
_atom_site_label
_atom_site_type_symbol
_atom_site_fract_x
_atom_site_fract_y
_atom_site_fract_z
_atom_site_charge
Mof_C 	C 	0.1373	0.2086	0.7863	0.065
Mof_C 	C 	0.272	0.993	0.8344	-0.007
Mof_H 	H 	0.292	0.0004	0.8688	-0.012
Mof_H 	H 	0.2961	0.9881	0.8025	0.055
Mof_C 	C 	0.2588	0.8969	0.8527	0.006
Mof_H 	H 	0.2667	0.8943	0.893	0.032
Mof_H 	H 	0.292	0.8999	0.832	0.046
Mof_C 	C 	0.228	0.848	0.8331	-0.017
Mof_H 	H 	0.2418	0.816	0.851	0.036
Mof_H 	H 	0.1905	0.8513	0.8425	0.058
Mof_C 	C 	0.2073	0.8443	0.5977	0.022
Mof_H 	H 	0.1695	0.8437	0.589	0.042
Mof_H 	H 	0.2233	0.812	0.5831	0.026
Mof_C 	C 	0.02629	0.5703	0.5702	0.377
Mof_C 	C 	0.1491	0.6737	0.7917	0.068
Mof_C 	C 	0.0943	0.6686	0.8103	-0.121
Mof_H 	H 	0.0695	0.6947	0.8009	0.074
Mof_C 	C 	0.0792	0.6252	0.8419	0.052
Mof_H 	H 	0.0438	0.6214	0.8526	0.038
Mof_C 	C 	0.1153	0.5876	0.8577	-0.137
Mof_C 	C 	0.1674	0.592	0.8409	0.063
Mof_H 	H 	0.1919	0.5659	0.8514	0.032
Mof_C 	C 	0.1839	0.6346	0.8084	-0.134
Mof_H 	H 	0.2194	0.637	0.7976	0.084
Mof_C 	C 	0.097	0.5403	0.8929	0.41
Mof_O 	O 	0.13279	0.37601	0.89894	-0.449
Mof_O 	O 	0.046	0.35973	0.88376	-0.296
Mof_O 	O 	0.2266	0.941	0.8422	-0.149
Mof_O 	O 	0.97697	0.57244	0.57921	-0.472
Mof_O 	O 	0.04744	0.53977	0.53381	-0.558
Mof_O 	O 	0.13318	0.50637	0.90592	-0.483
Mof_O 	O 	0.05035	0.53779	0.9064	-0.46
Mof_C 	C 	0.095	0.3488	0.8791	0.335
Mof_C 	C 	0.1084	0.2979	0.8473	-0.117
Mof_C 	C 	0.1594	0.2786	0.8512	0.044
Mof_H 	H 	0.1846	0.296	0.8733	0.034
Mof_C 	C 	0.1731	0.2312	0.8209	-0.123
Mof_H 	H 	0.2068	0.2162	0.8251	0.074
Mof_C 	C 	0.0857	0.2286	0.785	-0.129
Mof_H 	H 	0.0597	0.2112	0.7637	0.074
Mof_C 	C 	0.0727	0.2738	0.8149	0.057
Mof_H 	H 	0.0384	0.2877	0.8123	0.015
Mof_C 	C 	0.1513	0.1609	0.7492	0.014
Mof_C 	C 	0.1739	0.1167	0.7751	-0.137
Mof_H 	H 	0.1789	0.1171	0.8142	0.079
Mof_C 	C 	0.1893	0.0721	0.7452	0.117
Mof_C 	C 	0.1803	0.072	0.6857	0.091
Mof_C 	C 	0.1582	0.1156	0.6587	-0.107
Mof_H 	H 	0.1523	0.1154	0.6197	0.07
Mof_C 	C 	0.1445	0.1614	0.6925	-0.022
Mof_C 	C 	0.1284	0.20856	0.6585	0.099
Mof_C 	C 	0.0869	0.2074	0.6199	-0.165
Mof_H 	H 	0.0662	0.1767	0.6175	0.086
Mof_C 	C 	0.0751	0.2491	0.5854	0.086
Mof_H 	H 	0.0471	0.2466	0.5597	0.009
Mof_C 	C 	0.1057	0.29624	0.5887	-0.163
Mof_C 	C 	0.1446	0.2987	0.63	0.093
Mof_H 	H 	0.1639	0.3301	0.6347	0.005
Mof_C 	C 	0.1554	0.2558	0.6642	-0.166
Mof_H 	H 	0.1817	0.2588	0.692	0.097
Mof_C 	C 	0.0957	0.3414	0.548	0.418
Mof_C 	C 	0.2325	0.0303	0.8237	0.003
Mof_H 	H 	0.2466	0.0656	0.8313	0.024
Mof_H 	H 	0.2032	0.0242	0.8499	0.045
Mof_C 	C 	0.2329	0.8923	0.571	-0.023
Mof_H 	H 	0.2692	0.8962	0.5847	0.054
Mof_H 	H 	0.2339	0.8883	0.53	0.046
Mof_C 	C 	0.2301	0.9843	0.5766	0.038
Mof_H 	H 	0.2383	0.9876	0.5365	0.033
Mof_H 	H 	0.2633	0.9837	0.5977	0.05
Mof_C 	C 	0.1965	0.0308	0.5956	-0.055
Mof_H 	H 	0.2113	0.0642	0.5822	0.046
Mof_H 	H 	0.1603	0.0274	0.5818	0.058
Mof_C 	C 	0.1987	0.8046	0.6879	0.113
Mof_C 	C 	0.21	0.804	0.7456	0.092
Mof_C 	C 	0.1916	0.7607	0.7801	-0.105
Mof_H 	H 	0.1976	0.7606	0.8191	0.07
Mof_C 	C 	0.1643	0.7186	0.7542	-0.008
Mof_C 	C 	0.1538	0.7204	0.6975	0.01
Mof_C 	C 	0.1706	0.7629	0.6663	-0.134
Mof_H 	H 	0.1623	0.7634	0.6278	0.081
Mof_C 	C 	0.1219	0.6794	0.6682	0.063
Mof_C 	C 	0.0657	0.682	0.6665	-0.112
Mof_H 	H 	0.0485	0.7087	0.6869	0.066
Mof_C 	C 	0.0354	0.6466	0.6359	0.023
Mof_H 	H 	0.9985	0.6495	0.6358	0.051
Mof_C 	C 	0.06	0.6064	0.60513	-0.163
Mof_C 	C 	0.1139	0.60393	0.605	0.08
Mof_H 	H 	0.1307	0.578	0.5832	-0.033
Mof_C 	C 	0.1449	0.6392	0.6366	-0.145
Mof_H 	H 	0.1817	0.6355	0.6364	0.077
Mof_O 	O 	0.04493	0.43395	0.96727	-0.675
Mof_O 	O 	0.21266	0.02886	0.7675	-0.185
Mof_O 	O 	0.2354	0.84566	0.77085	-0.166
Mof_O 	O 	0.21494	0.8476	0.6571	-0.176
Mof_O 	O 	0.20197	0.93808	0.5863	-0.154
Mof_O 	O 	0.19827	0.02769	0.65904	-0.166
Mof_O 	O 	0.0635	0.33277	0.50913	-0.502
Mof_O 	O 	0.12248	0.38312	0.55563	-0.489
Mof_Zn	Zn	0.03769	0.40773	0.04833	1.176
Mof_Zn	Zn	0.11908	0.43994	0.9448	1.231
Mof_C 	C 	0.8627	0.7914	0.7863	0.061
Mof_C 	C 	0.728	0.007	0.8344	-0.242
Mof_H 	H 	0.708	0.9996	0.8688	0.089
Mof_H 	H 	0.7039	0.0119	0.8025	0.108
Mof_C 	C 	0.7412	0.1031	0.8527	0
Mof_H 	H 	0.7333	0.1057	0.893	0.03
Mof_H 	H 	0.708	0.1001	0.832	0.044
Mof_C 	C 	0.772	0.152	0.8331	-0.016
Mof_H 	H 	0.7582	0.184	0.851	0.035
Mof_H 	H 	0.8095	0.1487	0.8425	0.056
Mof_C 	C 	0.7927	0.1557	0.5977	0.018
Mof_H 	H 	0.8305	0.1563	0.589	0.043
Mof_H 	H 	0.7767	0.188	0.5831	0.027
Mof_C 	C 	0.97371	0.4297	0.5702	0.465
Mof_C 	C 	0.8509	0.3263	0.7917	0.056
Mof_C 	C 	0.9057	0.3314	0.8103	-0.109
Mof_H 	H 	0.9305	0.3053	0.8009	0.077
Mof_C 	C 	0.9208	0.3748	0.8419	0.042
Mof_H 	H 	0.9562	0.3786	0.8526	0.054
Mof_C 	C 	0.8847	0.4124	0.8577	-0.125
Mof_C 	C 	0.8326	0.408	0.8409	0.053
Mof_H 	H 	0.8081	0.4341	0.8514	0.035
Mof_C 	C 	0.8161	0.3654	0.8084	-0.122
Mof_H 	H 	0.7806	0.363	0.7976	0.08
Mof_C 	C 	0.903	0.4597	0.8929	0.404
Mof_O 	O 	0.86721	0.62399	0.89894	-0.446
Mof_O 	O 	0.954	0.64027	0.88376	-0.278
Mof_O 	O 	0.7734	0.059	0.8422	-0.139
Mof_O 	O 	0.02303	0.42756	0.57921	-0.522
Mof_O 	O 	0.95256	0.46023	0.53381	-0.57
Mof_O 	O 	0.86682	0.49363	0.90592	-0.479
Mof_O 	O 	0.94965	0.46221	0.9064	-0.443
Mof_C 	C 	0.905	0.6512	0.8791	0.331
Mof_C 	C 	0.8916	0.7021	0.8473	-0.107
Mof_C 	C 	0.8406	0.7214	0.8512	0.04
Mof_H 	H 	0.8154	0.704	0.8733	0.037
Mof_C 	C 	0.8269	0.7688	0.8209	-0.117
Mof_H 	H 	0.7932	0.7838	0.8251	0.073
Mof_C 	C 	0.9143	0.7714	0.785	-0.12
Mof_H 	H 	0.9403	0.7888	0.7637	0.082
Mof_C 	C 	0.9273	0.7262	0.8149	0.052
Mof_H 	H 	0.9616	0.7123	0.8123	0.029
Mof_C 	C 	0.8487	0.8391	0.7492	0.024
Mof_C 	C 	0.8261	0.8833	0.7751	-0.147
Mof_H 	H 	0.8211	0.8829	0.8142	0.088
Mof_C 	C 	0.8107	0.9279	0.7452	0.138
Mof_C 	C 	0.8197	0.928	0.6857	0.089
Mof_C 	C 	0.8418	0.8844	0.6587	-0.1
Mof_H 	H 	0.8477	0.8846	0.6197	0.072
Mof_C 	C 	0.8555	0.8386	0.6925	-0.024
Mof_C 	C 	0.8716	0.79144	0.6585	0.103
Mof_C 	C 	0.9131	0.7926	0.6199	-0.165
Mof_H 	H 	0.9338	0.8233	0.6175	0.096
Mof_C 	C 	0.9249	0.7509	0.5854	0.088
Mof_H 	H 	0.9529	0.7534	0.5597	0.017
Mof_C 	C 	0.8943	0.70376	0.5887	-0.162
Mof_C 	C 	0.8554	0.7013	0.63	0.095
Mof_H 	H 	0.8361	0.6699	0.6347	0.005
Mof_C 	C 	0.8446	0.7442	0.6642	-0.167
Mof_H 	H 	0.8183	0.7412	0.692	0.097
Mof_C 	C 	0.9043	0.6586	0.548	0.415
Mof_C 	C 	0.7675	0.9697	0.8237	0.195
Mof_H 	H 	0.7534	0.9344	0.8313	-0.03
Mof_H 	H 	0.7968	0.9758	0.8499	0.005
Mof_C 	C 	0.7671	0.1077	0.571	-0.025
Mof_H 	H 	0.7308	0.1038	0.5847	0.052
Mof_H 	H 	0.7661	0.1117	0.53	0.046
Mof_C 	C 	0.7699	0.0157	0.5766	-0.021
Mof_H 	H 	0.7617	0.0124	0.5365	0.04
Mof_H 	H 	0.7367	0.0163	0.5977	0.051
Mof_C 	C 	0.8035	0.9692	0.5956	0.002
Mof_H 	H 	0.7887	0.9358	0.5822	0.036
Mof_H 	H 	0.8397	0.9726	0.5818	0.057
Mof_C 	C 	0.8013	0.1954	0.6879	0.103
Mof_C 	C 	0.79	0.196	0.7456	0.1
Mof_C 	C 	0.8084	0.2393	0.7801	-0.117
Mof_H 	H 	0.8024	0.2394	0.8191	0.075
Mof_C 	C 	0.8357	0.2814	0.7542	0.011
Mof_C 	C 	0.8462	0.2796	0.6975	-0.023
Mof_C 	C 	0.8294	0.2371	0.6663	-0.112
Mof_H 	H 	0.8377	0.2366	0.6278	0.074
Mof_C 	C 	0.8781	0.3206	0.6682	0.132
Mof_C 	C 	0.9343	0.318	0.6665	-0.221
Mof_H 	H 	0.9515	0.2913	0.6869	0.115
Mof_C 	C 	0.9646	0.3534	0.6359	0.2
Mof_H 	H 	0.0015	0.3505	0.6358	-0.038
Mof_C 	C 	0.94	0.3936	0.60513	-0.26
Mof_C 	C 	0.8861	0.39607	0.605	0.164
Mof_H 	H 	0.8693	0.422	0.5832	-0.062
Mof_C 	C 	0.8551	0.3608	0.6366	-0.216
Mof_H 	H 	0.8183	0.3645	0.6364	0.102
Mof_O 	O 	0.95507	0.56605	0.96727	-0.659
Mof_O 	O 	0.78734	0.97114	0.7675	-0.21
Mof_O 	O 	0.7646	0.15434	0.77085	-0.171
Mof_O 	O 	0.78506	0.1524	0.6571	-0.176
Mof_O 	O 	0.79803	0.06192	0.5863	-0.151
Mof_O 	O 	0.80173	0.97231	0.65904	-0.157
Mof_O 	O 	0.9365	0.66723	0.50913	-0.492
Mof_O 	O 	0.87752	0.61688	0.55563	-0.488
Mof_Zn	Zn	0.96231	0.59227	0.04833	1.185
Mof_Zn	Zn	0.88092	0.56006	0.9448	1.231
Mof_C 	C 	0.2914	0.3627	0.2863	0.063
Mof_C 	C 	0.507	0.228	0.3344	-0.124
Mof_H 	H 	0.4996	0.208	0.3688	0.037
Mof_H 	H 	0.5119	0.2039	0.3025	0.081
Mof_C 	C 	0.6031	0.2412	0.3527	0.003
Mof_H 	H 	0.6057	0.2333	0.393	0.03
Mof_H 	H 	0.6001	0.208	0.332	0.044
Mof_C 	C 	0.652	0.272	0.3331	-0.017
Mof_H 	H 	0.684	0.2582	0.351	0.035
Mof_H 	H 	0.6487	0.3095	0.3425	0.057
Mof_C 	C 	0.6557	0.2927	0.0977	0.02
Mof_H 	H 	0.6563	0.3305	0.089	0.042
Mof_H 	H 	0.688	0.2767	0.0831	0.026
Mof_C 	C 	0.9297	0.47371	0.0702	0.419
Mof_C 	C 	0.8263	0.3509	0.2917	0.06
Mof_C 	C 	0.8314	0.4057	0.3103	-0.113
Mof_H 	H 	0.8053	0.4305	0.3009	0.074
Mof_C 	C 	0.8748	0.4208	0.3419	0.044
Mof_H 	H 	0.8786	0.4562	0.3526	0.048
Mof_C 	C 	0.9124	0.3847	0.3577	-0.126
Mof_C 	C 	0.908	0.3326	0.3409	0.055
Mof_H 	H 	0.9341	0.3081	0.3514	0.037
Mof_C 	C 	0.8654	0.3161	0.3084	-0.125
Mof_H 	H 	0.863	0.2806	0.2976	0.081
Mof_C 	C 	0.9597	0.403	0.3929	0.404
Mof_O 	O 	0.12399	0.36721	0.39894	-0.45
Mof_O 	O 	0.14027	0.454	0.38376	-0.289
Mof_O 	O 	0.559	0.2734	0.3422	-0.144
Mof_O 	O 	0.92756	0.52303	0.07921	-0.493
Mof_O 	O 	0.96023	0.45256	0.03381	-0.555
Mof_O 	O 	0.99363	0.36682	0.40592	-0.468
Mof_O 	O 	0.96221	0.44965	0.4064	-0.443
Mof_C 	C 	0.1512	0.405	0.3791	0.333
Mof_C 	C 	0.2021	0.3916	0.3473	-0.113
Mof_C 	C 	0.2214	0.3406	0.3512	0.043
Mof_H 	H 	0.204	0.3154	0.3733	0.036
Mof_C 	C 	0.2688	0.3269	0.3209	-0.12
Mof_H 	H 	0.2838	0.2932	0.3251	0.074
Mof_C 	C 	0.2714	0.4143	0.285	-0.125
Mof_H 	H 	0.2888	0.4403	0.2637	0.078
Mof_C 	C 	0.2262	0.4273	0.3149	0.055
Mof_H 	H 	0.2123	0.4616	0.3123	0.022
Mof_C 	C 	0.3391	0.3487	0.2492	0.019
Mof_C 	C 	0.3833	0.3261	0.2751	-0.142
Mof_H 	H 	0.3829	0.3211	0.3142	0.084
Mof_C 	C 	0.4279	0.3107	0.2452	0.127
Mof_C 	C 	0.428	0.3197	0.1857	0.09
Mof_C 	C 	0.3844	0.3418	0.1587	-0.103
Mof_H 	H 	0.3846	0.3477	0.1197	0.071
Mof_C 	C 	0.3386	0.3555	0.1925	-0.023
Mof_C 	C 	0.29144	0.3716	0.1585	0.101
Mof_C 	C 	0.2926	0.4131	0.1199	-0.165
Mof_H 	H 	0.3233	0.4338	0.1175	0.091
Mof_C 	C 	0.2509	0.4249	0.0854	0.088
Mof_H 	H 	0.2534	0.4529	0.0597	0.013
Mof_C 	C 	0.20376	0.3943	0.0887	-0.163
Mof_C 	C 	0.2013	0.3554	0.13	0.094
Mof_H 	H 	0.1699	0.3361	0.1347	0.004
Mof_C 	C 	0.2442	0.3446	0.1642	-0.167
Mof_H 	H 	0.2412	0.3183	0.192	0.097
Mof_C 	C 	0.1586	0.4043	0.048	0.417
Mof_C 	C 	0.4697	0.2675	0.3237	0.098
Mof_H 	H 	0.4344	0.2534	0.3313	-0.003
Mof_H 	H 	0.4758	0.2968	0.3499	0.025
Mof_C 	C 	0.6077	0.2671	0.071	-0.024
Mof_H 	H 	0.6038	0.2308	0.0847	0.053
Mof_H 	H 	0.6117	0.2661	0.03	0.046
Mof_C 	C 	0.5157	0.2699	0.0766	0.009
Mof_H 	H 	0.5124	0.2617	0.0365	0.037
Mof_H 	H 	0.5163	0.2367	0.0977	0.05
Mof_C 	C 	0.4692	0.3035	0.0956	-0.026
Mof_H 	H 	0.4358	0.2887	0.0822	0.041
Mof_H 	H 	0.4726	0.3397	0.0818	0.057
Mof_C 	C 	0.6954	0.3013	0.1879	0.108
Mof_C 	C 	0.696	0.29	0.2456	0.096
Mof_C 	C 	0.7393	0.3084	0.2801	-0.111
Mof_H 	H 	0.7394	0.3024	0.3191	0.073
Mof_C 	C 	0.7814	0.3357	0.2542	0.002
Mof_C 	C 	0.7796	0.3462	0.1975	-0.007
Mof_C 	C 	0.7371	0.3294	0.1663	-0.123
Mof_H 	H 	0.7366	0.3377	0.1278	0.078
Mof_C 	C 	0.8206	0.3781	0.1682	0.097
Mof_C 	C 	0.818	0.4343	0.1665	-0.165
Mof_H 	H 	0.7913	0.4515	0.1869	0.09
Mof_C 	C 	0.8534	0.4646	0.1359	0.11
Mof_H 	H 	0.8505	0.5015	0.1358	0.008
Mof_C 	C 	0.8936	0.44	0.10513	-0.208
Mof_C 	C 	0.89607	0.3861	0.105	0.121
Mof_H 	H 	0.922	0.3693	0.0832	-0.045
Mof_C 	C 	0.8608	0.3551	0.1366	-0.179
Mof_H 	H 	0.8645	0.3183	0.1364	0.09
Mof_O 	O 	0.06605	0.45507	0.46727	-0.673
Mof_O 	O 	0.47114	0.28734	0.2675	-0.198
Mof_O 	O 	0.65434	0.2646	0.27085	-0.169
Mof_O 	O 	0.6524	0.28506	0.1571	-0.176
Mof_O 	O 	0.56192	0.29803	0.0863	-0.152
Mof_O 	O 	0.47231	0.30173	0.15904	-0.161
Mof_O 	O 	0.16723	0.4365	0.00913	-0.497
Mof_O 	O 	0.11688	0.37752	0.05563	-0.491
Mof_Zn	Zn	0.09227	0.46231	0.54833	1.18
Mof_Zn	Zn	0.06006	0.38092	0.4448	1.227
Mof_C 	C 	0.7086	0.6373	0.2863	0.062
Mof_C 	C 	0.493	0.772	0.3344	-0.126
Mof_H 	H 	0.5004	0.792	0.3688	0.039
Mof_H 	H 	0.4881	0.7961	0.3025	0.082
Mof_C 	C 	0.3969	0.7588	0.3527	0.002
Mof_H 	H 	0.3943	0.7667	0.393	0.03
Mof_H 	H 	0.3999	0.792	0.332	0.045
Mof_C 	C 	0.348	0.728	0.3331	-0.017
Mof_H 	H 	0.316	0.7418	0.351	0.035
Mof_H 	H 	0.3513	0.6905	0.3425	0.056
Mof_C 	C 	0.3443	0.7073	0.0977	0.02
Mof_H 	H 	0.3437	0.6695	0.089	0.042
Mof_H 	H 	0.312	0.7233	0.0831	0.026
Mof_C 	C 	0.0703	0.52629	0.0702	0.422
Mof_C 	C 	0.1737	0.6491	0.2917	0.063
Mof_C 	C 	0.1686	0.5943	0.3103	-0.118
Mof_H 	H 	0.1947	0.5695	0.3009	0.075
Mof_C 	C 	0.1252	0.5792	0.3419	0.05
Mof_H 	H 	0.1214	0.5438	0.3526	0.044
Mof_C 	C 	0.0876	0.6153	0.3577	-0.136
Mof_C 	C 	0.092	0.6674	0.3409	0.061
Mof_H 	H 	0.0659	0.6919	0.3514	0.03
Mof_C 	C 	0.1346	0.6839	0.3084	-0.132
Mof_H 	H 	0.137	0.7194	0.2976	0.083
Mof_C 	C 	0.0403	0.597	0.3929	0.409
Mof_O 	O 	0.87601	0.63279	0.39894	-0.445
Mof_O 	O 	0.85973	0.546	0.38376	-0.286
Mof_O 	O 	0.441	0.7266	0.3422	-0.144
Mof_O 	O 	0.07244	0.47697	0.07921	-0.502
Mof_O 	O 	0.03977	0.54744	0.03381	-0.573
Mof_O 	O 	0.00637	0.63318	0.40592	-0.494
Mof_O 	O 	0.03779	0.55035	0.4064	-0.46
Mof_C 	C 	0.8488	0.595	0.3791	0.333
Mof_C 	C 	0.7979	0.6084	0.3473	-0.111
Mof_C 	C 	0.7786	0.6594	0.3512	0.042
Mof_H 	H 	0.796	0.6846	0.3733	0.036
Mof_C 	C 	0.7312	0.6731	0.3209	-0.119
Mof_H 	H 	0.7162	0.7068	0.3251	0.073
Mof_C 	C 	0.7286	0.5857	0.285	-0.124
Mof_H 	H 	0.7112	0.5597	0.2637	0.078
Mof_C 	C 	0.7738	0.5727	0.3149	0.054
Mof_H 	H 	0.7877	0.5384	0.3123	0.023
Mof_C 	C 	0.6609	0.6513	0.2492	0.019
Mof_C 	C 	0.6167	0.6739	0.2751	-0.142
Mof_H 	H 	0.6171	0.6789	0.3142	0.084
Mof_C 	C 	0.5721	0.6893	0.2452	0.128
Mof_C 	C 	0.572	0.6803	0.1857	0.09
Mof_C 	C 	0.6156	0.6582	0.1587	-0.103
Mof_H 	H 	0.6154	0.6523	0.1197	0.071
Mof_C 	C 	0.6614	0.6445	0.1925	-0.023
Mof_C 	C 	0.70856	0.6284	0.1585	0.1
Mof_C 	C 	0.7074	0.5869	0.1199	-0.164
Mof_H 	H 	0.6767	0.5662	0.1175	0.09
Mof_C 	C 	0.7491	0.5751	0.0854	0.086
Mof_H 	H 	0.7466	0.5471	0.0597	0.013
Mof_C 	C 	0.79624	0.6057	0.0887	-0.161
Mof_C 	C 	0.7987	0.6446	0.13	0.094
Mof_H 	H 	0.8301	0.6639	0.1347	0.006
Mof_C 	C 	0.7558	0.6554	0.1642	-0.166
Mof_H 	H 	0.7588	0.6817	0.192	0.097
Mof_C 	C 	0.8414	0.5957	0.048	0.416
Mof_C 	C 	0.5303	0.7325	0.3237	0.1
Mof_H 	H 	0.5656	0.7466	0.3313	-0.004
Mof_H 	H 	0.5242	0.7032	0.3499	0.025
Mof_C 	C 	0.3923	0.7329	0.071	-0.024
Mof_H 	H 	0.3962	0.7692	0.0847	0.053
Mof_H 	H 	0.3883	0.7339	0.03	0.046
Mof_C 	C 	0.4843	0.7301	0.0766	0.008
Mof_H 	H 	0.4876	0.7383	0.0365	0.037
Mof_H 	H 	0.4837	0.7633	0.0977	0.05
Mof_C 	C 	0.5308	0.6965	0.0956	-0.027
Mof_H 	H 	0.5642	0.7113	0.0822	0.041
Mof_H 	H 	0.5274	0.6603	0.0818	0.057
Mof_C 	C 	0.3046	0.6987	0.1879	0.108
Mof_C 	C 	0.304	0.71	0.2456	0.096
Mof_C 	C 	0.2607	0.6916	0.2801	-0.111
Mof_H 	H 	0.2606	0.6976	0.3191	0.072
Mof_C 	C 	0.2186	0.6643	0.2542	0
Mof_C 	C 	0.2204	0.6538	0.1975	-0.007
Mof_C 	C 	0.2629	0.6706	0.1663	-0.123
Mof_H 	H 	0.2634	0.6623	0.1278	0.078
Mof_C 	C 	0.1794	0.6219	0.1682	0.098
Mof_C 	C 	0.182	0.5657	0.1665	-0.168
Mof_H 	H 	0.2087	0.5485	0.1869	0.091
Mof_C 	C 	0.1466	0.5354	0.1359	0.112
Mof_H 	H 	0.1495	0.4985	0.1358	0.005
Mof_C 	C 	0.1064	0.56	0.10513	-0.215
Mof_C 	C 	0.10393	0.6139	0.105	0.123
Mof_H 	H 	0.078	0.6307	0.0832	-0.05
Mof_C 	C 	0.1392	0.6449	0.1366	-0.182
Mof_H 	H 	0.1355	0.6817	0.1364	0.088
Mof_O 	O 	0.93395	0.54493	0.46727	-0.661
Mof_O 	O 	0.52886	0.71266	0.2675	-0.198
Mof_O 	O 	0.34566	0.7354	0.27085	-0.168
Mof_O 	O 	0.3476	0.71494	0.1571	-0.176
Mof_O 	O 	0.43808	0.70197	0.0863	-0.152
Mof_O 	O 	0.52769	0.69827	0.15904	-0.161
Mof_O 	O 	0.83277	0.5635	0.00913	-0.497
Mof_O 	O 	0.88312	0.62248	0.05563	-0.485
Mof_Zn	Zn	0.90773	0.53769	0.54833	1.181
Mof_Zn	Zn	0.93994	0.61908	0.4448	1.235
Mof_Zn	Zn	-3.41085e-33	0.5	0.96656	1.222
Mof_Zn	Zn	-1.76418e-33	0.5	0.46656	1.222
Mof_C 	C 	0.2086	0.8627	0.2137	0.063
Mof_C 	C 	0.993	0.728	0.1656	-0.006
Mof_H 	H 	0.0004	0.708	0.1312	-0.013
Mof_H 	H 	0.9881	0.7039	0.1975	0.054
Mof_C 	C 	0.8969	0.7412	0.1473	0.006
Mof_H 	H 	0.8943	0.7333	0.107	0.032
Mof_H 	H 	0.8999	0.708	0.168	0.045
Mof_C 	C 	0.848	0.772	0.1669	-0.019
Mof_H 	H 	0.816	0.7582	0.149	0.036
Mof_H 	H 	0.8513	0.8095	0.1575	0.061
Mof_C 	C 	0.8443	0.7927	0.4023	0.016
Mof_H 	H 	0.8437	0.8305	0.411	0.046
Mof_H 	H 	0.812	0.7767	0.4169	0.027
Mof_C 	C 	0.5703	0.97371	0.4298	0.465
Mof_C 	C 	0.6737	0.8509	0.2083	0.056
Mof_C 	C 	0.6686	0.9057	0.1897	-0.109
Mof_H 	H 	0.6947	0.9305	0.1991	0.077
Mof_C 	C 	0.6252	0.9208	0.1581	0.043
Mof_H 	H 	0.6214	0.9562	0.1474	0.054
Mof_C 	C 	0.5876	0.8847	0.1423	-0.125
Mof_C 	C 	0.592	0.8326	0.1591	0.053
Mof_H 	H 	0.5659	0.8081	0.1486	0.035
Mof_C 	C 	0.6346	0.8161	0.1916	-0.123
Mof_H 	H 	0.637	0.7806	0.2024	0.08
Mof_C 	C 	0.5403	0.903	0.1071	0.404
Mof_O 	O 	0.37601	0.86721	0.10106	-0.446
Mof_O 	O 	0.35973	0.954	0.11624	-0.279
Mof_O 	O 	0.941	0.7734	0.1578	-0.147
Mof_O 	O 	0.57244	0.02303	0.42079	-0.522
Mof_O 	O 	0.53977	0.95256	0.46619	-0.57
Mof_O 	O 	0.50637	0.86682	0.09408	-0.479
Mof_O 	O 	0.53779	0.94965	0.0936	-0.443
Mof_C 	C 	0.3488	0.905	0.1209	0.331
Mof_C 	C 	0.2979	0.8916	0.1527	-0.108
Mof_C 	C 	0.2786	0.8406	0.1488	0.041
Mof_H 	H 	0.296	0.8154	0.1267	0.037
Mof_C 	C 	0.2312	0.8269	0.1791	-0.119
Mof_H 	H 	0.2162	0.7932	0.1749	0.073
Mof_C 	C 	0.2286	0.9143	0.215	-0.122
Mof_H 	H 	0.2112	0.9403	0.2363	0.08
Mof_C 	C 	0.2738	0.9273	0.1851	0.052
Mof_H 	H 	0.2877	0.9616	0.1877	0.028
Mof_C 	C 	0.1609	0.8487	0.2508	0.017
Mof_C 	C 	0.1167	0.8261	0.2249	-0.136
Mof_H 	H 	0.1171	0.8211	0.1858	0.081
Mof_C 	C 	0.0721	0.8107	0.2548	0.118
Mof_C 	C 	0.072	0.8197	0.3143	0.093
Mof_C 	C 	0.1156	0.8418	0.3413	-0.105
Mof_H 	H 	0.1154	0.8477	0.3803	0.071
Mof_C 	C 	0.1614	0.8555	0.3075	-0.021
Mof_C 	C 	0.20856	0.8716	0.3415	0.099
Mof_C 	C 	0.2074	0.9131	0.3801	-0.162
Mof_H 	H 	0.1767	0.9338	0.3825	0.092
Mof_C 	C 	0.2491	0.9249	0.4146	0.086
Mof_H 	H 	0.2466	0.9529	0.4403	0.017
Mof_C 	C 	0.29624	0.8943	0.4113	-0.16
Mof_C 	C 	0.2987	0.8554	0.37	0.092
Mof_H 	H 	0.3301	0.8361	0.3653	0.006
Mof_C 	C 	0.2558	0.8446	0.3358	-0.164
Mof_H 	H 	0.2588	0.8183	0.308	0.096
Mof_C 	C 	0.3414	0.9043	0.452	0.415
Mof_C 	C 	0.0303	0.7675	0.1763	-0
Mof_H 	H 	0.0656	0.7534	0.1687	0.025
Mof_H 	H 	0.0242	0.7968	0.1501	0.049
Mof_C 	C 	0.8923	0.7671	0.429	-0.021
Mof_H 	H 	0.8962	0.7308	0.4153	0.053
Mof_H 	H 	0.8883	0.7661	0.47	0.046
Mof_C 	C 	0.9843	0.7699	0.4234	0.04
Mof_H 	H 	0.9876	0.7617	0.4635	0.034
Mof_H 	H 	0.9837	0.7367	0.4023	0.049
Mof_C 	C 	0.0308	0.8035	0.4044	-0.057
Mof_H 	H 	0.0642	0.7887	0.4178	0.047
Mof_H 	H 	0.0274	0.8397	0.4182	0.062
Mof_C 	C 	0.8046	0.8013	0.3121	0.104
Mof_C 	C 	0.804	0.79	0.2544	0.101
Mof_C 	C 	0.7607	0.8084	0.2199	-0.116
Mof_H 	H 	0.7606	0.8024	0.1809	0.075
Mof_C 	C 	0.7186	0.8357	0.2458	0.011
Mof_C 	C 	0.7204	0.8462	0.3025	-0.023
Mof_C 	C 	0.7629	0.8294	0.3337	-0.111
Mof_H 	H 	0.7634	0.8377	0.3722	0.075
Mof_C 	C 	0.6794	0.8781	0.3318	0.132
Mof_C 	C 	0.682	0.9343	0.3335	-0.221
Mof_H 	H 	0.7087	0.9515	0.3131	0.116
Mof_C 	C 	0.6466	0.9646	0.3641	0.2
Mof_H 	H 	0.6495	0.0015	0.3642	-0.038
Mof_C 	C 	0.6064	0.94	0.39487	-0.26
Mof_C 	C 	0.60393	0.8861	0.395	0.165
Mof_H 	H 	0.578	0.8693	0.4168	-0.062
Mof_C 	C 	0.6392	0.8551	0.3634	-0.216
Mof_H 	H 	0.6355	0.8183	0.3636	0.102
Mof_O 	O 	0.43395	0.95507	0.03273	-0.659
Mof_O 	O 	0.02886	0.78734	0.2325	-0.183
Mof_O 	O 	0.84566	0.7646	0.22915	-0.167
Mof_O 	O 	0.8476	0.78506	0.3429	-0.172
Mof_O 	O 	0.93808	0.79803	0.4137	-0.152
Mof_O 	O 	0.02769	0.80173	0.34096	-0.164
Mof_O 	O 	0.33277	0.9365	0.49087	-0.492
Mof_O 	O 	0.38312	0.87752	0.44437	-0.488
Mof_Zn	Zn	0.40773	0.96231	0.95167	1.184
Mof_Zn	Zn	0.43994	0.88092	0.0552	1.231
Mof_C 	C 	0.7914	0.1373	0.2137	0.063
Mof_C 	C 	0.007	0.272	0.1656	-0.244
Mof_H 	H 	0.9996	0.292	0.1312	0.089
Mof_H 	H 	0.0119	0.2961	0.1975	0.109
Mof_C 	C 	0.1031	0.2588	0.1473	-0
Mof_H 	H 	0.1057	0.2667	0.107	0.029
Mof_H 	H 	0.1001	0.292	0.168	0.044
Mof_C 	C 	0.152	0.228	0.1669	-0.015
Mof_H 	H 	0.184	0.2418	0.149	0.034
Mof_H 	H 	0.1487	0.1905	0.1575	0.053
Mof_C 	C 	0.1557	0.2073	0.4023	0.023
Mof_H 	H 	0.1563	0.1695	0.411	0.037
Mof_H 	H 	0.188	0.2233	0.4169	0.024
Mof_C 	C 	0.4297	0.02629	0.4298	0.376
Mof_C 	C 	0.3263	0.1491	0.2083	0.067
Mof_C 	C 	0.3314	0.0943	0.1897	-0.122
Mof_H 	H 	0.3053	0.0695	0.1991	0.072
Mof_C 	C 	0.3748	0.0792	0.1581	0.051
Mof_H 	H 	0.3786	0.0438	0.1474	0.038
Mof_C 	C 	0.4124	0.1153	0.1423	-0.137
Mof_C 	C 	0.408	0.1674	0.1591	0.062
Mof_H 	H 	0.4341	0.1919	0.1486	0.032
Mof_C 	C 	0.3654	0.1839	0.1916	-0.134
Mof_H 	H 	0.363	0.2194	0.2024	0.084
Mof_C 	C 	0.4597	0.097	0.1071	0.41
Mof_O 	O 	0.62399	0.13279	0.10106	-0.449
Mof_O 	O 	0.64027	0.046	0.11624	-0.296
Mof_O 	O 	0.059	0.2266	0.1578	-0.141
Mof_O 	O 	0.42756	0.97697	0.42079	-0.472
Mof_O 	O 	0.46023	0.04744	0.46619	-0.558
Mof_O 	O 	0.49363	0.13318	0.09408	-0.483
Mof_O 	O 	0.46221	0.05035	0.0936	-0.46
Mof_C 	C 	0.6512	0.095	0.1209	0.334
Mof_C 	C 	0.7021	0.1084	0.1527	-0.116
Mof_C 	C 	0.7214	0.1594	0.1488	0.044
Mof_H 	H 	0.704	0.1846	0.1267	0.035
Mof_C 	C 	0.7688	0.1731	0.1791	-0.121
Mof_H 	H 	0.7838	0.2068	0.1749	0.074
Mof_C 	C 	0.7714	0.0857	0.215	-0.127
Mof_H 	H 	0.7888	0.0597	0.2363	0.075
Mof_C 	C 	0.7262	0.0727	0.1851	0.056
Mof_H 	H 	0.7123	0.0384	0.1877	0.016
Mof_C 	C 	0.8391	0.1513	0.2508	0.021
Mof_C 	C 	0.8833	0.1739	0.2249	-0.147
Mof_H 	H 	0.8829	0.1789	0.1858	0.086
Mof_C 	C 	0.9279	0.1893	0.2548	0.137
Mof_C 	C 	0.928	0.1803	0.3143	0.088
Mof_C 	C 	0.8844	0.1582	0.3413	-0.101
Mof_H 	H 	0.8846	0.1523	0.3803	0.07
Mof_C 	C 	0.8386	0.1445	0.3075	-0.025
Mof_C 	C 	0.79144	0.1284	0.3415	0.102
Mof_C 	C 	0.7926	0.0869	0.3801	-0.168
Mof_H 	H 	0.8233	0.0662	0.3825	0.089
Mof_C 	C 	0.7509	0.0751	0.4146	0.088
Mof_H 	H 	0.7534	0.0471	0.4403	0.009
Mof_C 	C 	0.70376	0.1057	0.4113	-0.164
Mof_C 	C 	0.7013	0.1446	0.37	0.095
Mof_H 	H 	0.6699	0.1639	0.3653	0.004
Mof_C 	C 	0.7442	0.1554	0.3358	-0.168
Mof_H 	H 	0.7412	0.1817	0.308	0.098
Mof_C 	C 	0.6586	0.0957	0.452	0.419
Mof_C 	C 	0.9697	0.2325	0.1763	0.198
Mof_H 	H 	0.9344	0.2466	0.1687	-0.032
Mof_H 	H 	0.9758	0.2032	0.1501	0.001
Mof_C 	C 	0.1077	0.2329	0.429	-0.027
Mof_H 	H 	0.1038	0.2692	0.4153	0.053
Mof_H 	H 	0.1117	0.2339	0.47	0.046
Mof_C 	C 	0.0157	0.2301	0.4234	-0.022
Mof_H 	H 	0.0124	0.2383	0.4635	0.04
Mof_H 	H 	0.0163	0.2633	0.4023	0.052
Mof_C 	C 	0.9692	0.1965	0.4044	0.004
Mof_H 	H 	0.9358	0.2113	0.4178	0.035
Mof_H 	H 	0.9726	0.1603	0.4182	0.053
Mof_C 	C 	0.1954	0.1987	0.3121	0.113
Mof_C 	C 	0.196	0.21	0.2544	0.091
Mof_C 	C 	0.2393	0.1916	0.2199	-0.106
Mof_H 	H 	0.2394	0.1976	0.1809	0.07
Mof_C 	C 	0.2814	0.1643	0.2458	-0.009
Mof_C 	C 	0.2796	0.1538	0.3025	0.01
Mof_C 	C 	0.2371	0.1706	0.3337	-0.135
Mof_H 	H 	0.2366	0.1623	0.3722	0.08
Mof_C 	C 	0.3206	0.1219	0.3318	0.062
Mof_C 	C 	0.318	0.0657	0.3335	-0.111
Mof_H 	H 	0.2913	0.0485	0.3131	0.065
Mof_C 	C 	0.3534	0.0354	0.3641	0.022
Mof_H 	H 	0.3505	0.9985	0.3642	0.051
Mof_C 	C 	0.3936	0.06	0.39487	-0.163
Mof_C 	C 	0.39607	0.1139	0.395	0.08
Mof_H 	H 	0.422	0.1307	0.4168	-0.033
Mof_C 	C 	0.3608	0.1449	0.3634	-0.145
Mof_H 	H 	0.3645	0.1817	0.3636	0.077
Mof_O 	O 	0.56605	0.04493	0.03273	-0.675
Mof_O 	O 	0.97114	0.21266	0.2325	-0.212
Mof_O 	O 	0.15434	0.2354	0.22915	-0.17
Mof_O 	O 	0.1524	0.21494	0.3429	-0.181
Mof_O 	O 	0.06192	0.20197	0.4137	-0.153
Mof_O 	O 	0.97231	0.19827	0.34096	-0.159
Mof_O 	O 	0.66723	0.0635	0.49087	-0.502
Mof_O 	O 	0.61688	0.12248	0.44437	-0.489
Mof_Zn	Zn	0.59227	0.03769	0.95167	1.176
Mof_Zn	Zn	0.56006	0.11908	0.0552	1.231
Mof_C 	C 	0.3627	0.7086	0.7137	0.063
Mof_C 	C 	0.228	0.493	0.6656	-0.124
Mof_H 	H 	0.208	0.5004	0.6312	0.037
Mof_H 	H 	0.2039	0.4881	0.6975	0.081
Mof_C 	C 	0.2412	0.3969	0.6473	0.003
Mof_H 	H 	0.2333	0.3943	0.607	0.03
Mof_H 	H 	0.208	0.3999	0.668	0.044
Mof_C 	C 	0.272	0.348	0.6669	-0.017
Mof_H 	H 	0.2582	0.316	0.649	0.035
Mof_H 	H 	0.3095	0.3513	0.6575	0.057
Mof_C 	C 	0.2927	0.3443	0.9023	0.02
Mof_H 	H 	0.3305	0.3437	0.911	0.041
Mof_H 	H 	0.2767	0.312	0.9169	0.025
Mof_C 	C 	0.47371	0.0703	0.9298	0.422
Mof_C 	C 	0.3509	0.1737	0.7083	0.063
Mof_C 	C 	0.4057	0.1686	0.6897	-0.118
Mof_H 	H 	0.4305	0.1947	0.6991	0.075
Mof_C 	C 	0.4208	0.1252	0.6581	0.05
Mof_H 	H 	0.4562	0.1214	0.6474	0.044
Mof_C 	C 	0.3847	0.0876	0.6423	-0.136
Mof_C 	C 	0.3326	0.092	0.6591	0.061
Mof_H 	H 	0.3081	0.0659	0.6486	0.03
Mof_C 	C 	0.3161	0.1346	0.6916	-0.132
Mof_H 	H 	0.2806	0.137	0.7024	0.083
Mof_C 	C 	0.403	0.0403	0.6071	0.409
Mof_O 	O 	0.36721	0.87601	0.60106	-0.445
Mof_O 	O 	0.454	0.85973	0.61624	-0.286
Mof_O 	O 	0.2734	0.441	0.6578	-0.144
Mof_O 	O 	0.52303	0.07244	0.92079	-0.502
Mof_O 	O 	0.45256	0.03977	0.96619	-0.573
Mof_O 	O 	0.36682	0.00637	0.59408	-0.494
Mof_O 	O 	0.44965	0.03779	0.5936	-0.46
Mof_C 	C 	0.405	0.8488	0.6209	0.333
Mof_C 	C 	0.3916	0.7979	0.6527	-0.111
Mof_C 	C 	0.3406	0.7786	0.6488	0.042
Mof_H 	H 	0.3154	0.796	0.6267	0.036
Mof_C 	C 	0.3269	0.7312	0.6791	-0.12
Mof_H 	H 	0.2932	0.7162	0.6749	0.074
Mof_C 	C 	0.4143	0.7286	0.715	-0.124
Mof_H 	H 	0.4403	0.7112	0.7363	0.078
Mof_C 	C 	0.4273	0.7738	0.6851	0.054
Mof_H 	H 	0.4616	0.7877	0.6877	0.023
Mof_C 	C 	0.3487	0.6609	0.7508	0.019
Mof_C 	C 	0.3261	0.6167	0.7249	-0.142
Mof_H 	H 	0.3211	0.6171	0.6858	0.084
Mof_C 	C 	0.3107	0.5721	0.7548	0.127
Mof_C 	C 	0.3197	0.572	0.8143	0.09
Mof_C 	C 	0.3418	0.6156	0.8413	-0.103
Mof_H 	H 	0.3477	0.6154	0.8803	0.071
Mof_C 	C 	0.3555	0.6614	0.8075	-0.023
Mof_C 	C 	0.3716	0.70856	0.8415	0.1
Mof_C 	C 	0.4131	0.7074	0.8801	-0.164
Mof_H 	H 	0.4338	0.6767	0.8825	0.09
Mof_C 	C 	0.4249	0.7491	0.9146	0.087
Mof_H 	H 	0.4529	0.7466	0.9403	0.013
Mof_C 	C 	0.3943	0.79624	0.9113	-0.162
Mof_C 	C 	0.3554	0.7987	0.87	0.094
Mof_H 	H 	0.3361	0.8301	0.8653	0.006
Mof_C 	C 	0.3446	0.7558	0.8358	-0.166
Mof_H 	H 	0.3183	0.7588	0.808	0.097
Mof_C 	C 	0.4043	0.8414	0.952	0.416
Mof_C 	C 	0.2675	0.5303	0.6763	0.098
Mof_H 	H 	0.2534	0.5656	0.6687	-0.003
Mof_H 	H 	0.2968	0.5242	0.6501	0.025
Mof_C 	C 	0.2671	0.3923	0.929	-0.024
Mof_H 	H 	0.2308	0.3962	0.9153	0.053
Mof_H 	H 	0.2661	0.3883	0.97	0.046
Mof_C 	C 	0.2699	0.4843	0.9234	0.008
Mof_H 	H 	0.2617	0.4876	0.9635	0.037
Mof_H 	H 	0.2367	0.4837	0.9023	0.05
Mof_C 	C 	0.3035	0.5308	0.9044	-0.026
Mof_H 	H 	0.2887	0.5642	0.9178	0.041
Mof_H 	H 	0.3397	0.5274	0.9182	0.057
Mof_C 	C 	0.3013	0.3046	0.8121	0.108
Mof_C 	C 	0.29	0.304	0.7544	0.096
Mof_C 	C 	0.3084	0.2607	0.7199	-0.111
Mof_H 	H 	0.3024	0.2606	0.6809	0.072
Mof_C 	C 	0.3357	0.2186	0.7458	0
Mof_C 	C 	0.3462	0.2204	0.8025	-0.007
Mof_C 	C 	0.3294	0.2629	0.8337	-0.123
Mof_H 	H 	0.3377	0.2634	0.8722	0.077
Mof_C 	C 	0.3781	0.1794	0.8318	0.098
Mof_C 	C 	0.4343	0.182	0.8335	-0.168
Mof_H 	H 	0.4515	0.2087	0.8131	0.091
Mof_C 	C 	0.4646	0.1466	0.8641	0.112
Mof_H 	H 	0.5015	0.1495	0.8642	0.005
Mof_C 	C 	0.44	0.1064	0.89487	-0.215
Mof_C 	C 	0.3861	0.10393	0.895	0.123
Mof_H 	H 	0.3693	0.078	0.9168	-0.05
Mof_C 	C 	0.3551	0.1392	0.8634	-0.182
Mof_H 	H 	0.3183	0.1355	0.8636	0.088
Mof_O 	O 	0.45507	0.93395	0.53273	-0.661
Mof_O 	O 	0.28734	0.52886	0.7325	-0.198
Mof_O 	O 	0.2646	0.34566	0.72915	-0.169
Mof_O 	O 	0.28506	0.3476	0.8429	-0.176
Mof_O 	O 	0.29803	0.43808	0.9137	-0.152
Mof_O 	O 	0.30173	0.52769	0.84096	-0.161
Mof_O 	O 	0.4365	0.83277	0.99087	-0.497
Mof_O 	O 	0.37752	0.88312	0.94437	-0.486
Mof_Zn	Zn	0.46231	0.90773	0.45167	1.181
Mof_Zn	Zn	0.38092	0.93994	0.5552	1.235
Mof_C 	C 	0.6373	0.2914	0.7137	0.063
Mof_C 	C 	0.772	0.507	0.6656	-0.126
Mof_H 	H 	0.792	0.4996	0.6312	0.039
Mof_H 	H 	0.7961	0.5119	0.6975	0.082
Mof_C 	C 	0.7588	0.6031	0.6473	0.002
Mof_H 	H 	0.7667	0.6057	0.607	0.03
Mof_H 	H 	0.792	0.6001	0.668	0.045
Mof_C 	C 	0.728	0.652	0.6669	-0.017
Mof_H 	H 	0.7418	0.684	0.649	0.035
Mof_H 	H 	0.6905	0.6487	0.6575	0.056
Mof_C 	C 	0.7073	0.6557	0.9023	0.019
Mof_H 	H 	0.6695	0.6563	0.911	0.042
Mof_H 	H 	0.7233	0.688	0.9169	0.026
Mof_C 	C 	0.52629	0.9297	0.9298	0.419
Mof_C 	C 	0.6491	0.8263	0.7083	0.06
Mof_C 	C 	0.5943	0.8314	0.6897	-0.113
Mof_H 	H 	0.5695	0.8053	0.6991	0.074
Mof_C 	C 	0.5792	0.8748	0.6581	0.044
Mof_H 	H 	0.5438	0.8786	0.6474	0.048
Mof_C 	C 	0.6153	0.9124	0.6423	-0.126
Mof_C 	C 	0.6674	0.908	0.6591	0.055
Mof_H 	H 	0.6919	0.9341	0.6486	0.037
Mof_C 	C 	0.6839	0.8654	0.6916	-0.124
Mof_H 	H 	0.7194	0.863	0.7024	0.081
Mof_C 	C 	0.597	0.9597	0.6071	0.404
Mof_O 	O 	0.63279	0.12399	0.60106	-0.45
Mof_O 	O 	0.546	0.14027	0.61624	-0.289
Mof_O 	O 	0.7266	0.559	0.6578	-0.144
Mof_O 	O 	0.47697	0.92756	0.92079	-0.493
Mof_O 	O 	0.54744	0.96023	0.96619	-0.555
Mof_O 	O 	0.63318	0.99363	0.59408	-0.468
Mof_O 	O 	0.55035	0.96221	0.5936	-0.443
Mof_C 	C 	0.595	0.1512	0.6209	0.333
Mof_C 	C 	0.6084	0.2021	0.6527	-0.113
Mof_C 	C 	0.6594	0.2214	0.6488	0.042
Mof_H 	H 	0.6846	0.204	0.6267	0.036
Mof_C 	C 	0.6731	0.2688	0.6791	-0.12
Mof_H 	H 	0.7068	0.2838	0.6749	0.074
Mof_C 	C 	0.5857	0.2714	0.715	-0.125
Mof_H 	H 	0.5597	0.2888	0.7363	0.078
Mof_C 	C 	0.5727	0.2262	0.6851	0.054
Mof_H 	H 	0.5384	0.2123	0.6877	0.022
Mof_C 	C 	0.6513	0.3391	0.7508	0.019
Mof_C 	C 	0.6739	0.3833	0.7249	-0.142
Mof_H 	H 	0.6789	0.3829	0.6858	0.084
Mof_C 	C 	0.6893	0.4279	0.7548	0.128
Mof_C 	C 	0.6803	0.428	0.8143	0.09
Mof_C 	C 	0.6582	0.3844	0.8413	-0.103
Mof_H 	H 	0.6523	0.3846	0.8803	0.071
Mof_C 	C 	0.6445	0.3386	0.8075	-0.023
Mof_C 	C 	0.6284	0.29144	0.8415	0.101
Mof_C 	C 	0.5869	0.2926	0.8801	-0.165
Mof_H 	H 	0.5662	0.3233	0.8825	0.091
Mof_C 	C 	0.5751	0.2509	0.9146	0.088
Mof_H 	H 	0.5471	0.2534	0.9403	0.013
Mof_C 	C 	0.6057	0.20376	0.9113	-0.163
Mof_C 	C 	0.6446	0.2013	0.87	0.094
Mof_H 	H 	0.6639	0.1699	0.8653	0.004
Mof_C 	C 	0.6554	0.2442	0.8358	-0.167
Mof_H 	H 	0.6817	0.2412	0.808	0.097
Mof_C 	C 	0.5957	0.1586	0.952	0.417
Mof_C 	C 	0.7325	0.4697	0.6763	0.1
Mof_H 	H 	0.7466	0.4344	0.6687	-0.004
Mof_H 	H 	0.7032	0.4758	0.6501	0.025
Mof_C 	C 	0.7329	0.6077	0.929	-0.024
Mof_H 	H 	0.7692	0.6038	0.9153	0.053
Mof_H 	H 	0.7339	0.6117	0.97	0.046
Mof_C 	C 	0.7301	0.5157	0.9234	0.009
Mof_H 	H 	0.7383	0.5124	0.9635	0.037
Mof_H 	H 	0.7633	0.5163	0.9023	0.05
Mof_C 	C 	0.6965	0.4692	0.9044	-0.027
Mof_H 	H 	0.7113	0.4358	0.9178	0.041
Mof_H 	H 	0.6603	0.4726	0.9182	0.057
Mof_C 	C 	0.6987	0.6954	0.8121	0.108
Mof_C 	C 	0.71	0.696	0.7544	0.096
Mof_C 	C 	0.6916	0.7393	0.7199	-0.112
Mof_H 	H 	0.6976	0.7394	0.6809	0.073
Mof_C 	C 	0.6643	0.7814	0.7458	0.002
Mof_C 	C 	0.6538	0.7796	0.8025	-0.007
Mof_C 	C 	0.6706	0.7371	0.8337	-0.123
Mof_H 	H 	0.6623	0.7366	0.8722	0.078
Mof_C 	C 	0.6219	0.8206	0.8318	0.097
Mof_C 	C 	0.5657	0.818	0.8335	-0.165
Mof_H 	H 	0.5485	0.7913	0.8131	0.09
Mof_C 	C 	0.5354	0.8534	0.8641	0.11
Mof_H 	H 	0.4985	0.8505	0.8642	0.008
Mof_C 	C 	0.56	0.8936	0.89487	-0.208
Mof_C 	C 	0.6139	0.89607	0.895	0.121
Mof_H 	H 	0.6307	0.922	0.9168	-0.044
Mof_C 	C 	0.6449	0.8608	0.8634	-0.179
Mof_H 	H 	0.6817	0.8645	0.8636	0.091
Mof_O 	O 	0.54493	0.06605	0.53273	-0.673
Mof_O 	O 	0.71266	0.47114	0.7325	-0.198
Mof_O 	O 	0.7354	0.65434	0.72915	-0.169
Mof_O 	O 	0.71494	0.6524	0.8429	-0.176
Mof_O 	O 	0.70197	0.56192	0.9137	-0.152
Mof_O 	O 	0.69827	0.47231	0.84096	-0.161
Mof_O 	O 	0.5635	0.16723	0.99087	-0.497
Mof_O 	O 	0.62248	0.11688	0.94437	-0.491
Mof_Zn	Zn	0.53769	0.09227	0.45167	1.18
Mof_Zn	Zn	0.61908	0.06006	0.5552	1.227
Mof_Zn	Zn	0.5	-4.25462e-34	0.03344	1.222
Mof_Zn	Zn	0.5	-3.40369e-33	0.53344	1.222
_end
