data_functionalizedCrystal
_audit_creation_method	'EQeq! by Chris Wilmer'
_symmetry_space_group_name_H-M	'P1'
_symmetry_Int_Tables_number	1
_symmetry_cell_setting	triclinic
loop_
_symmetry_equiv_pos_as_xyz
  x,y,z
_cell_length_a	15.8983
_cell_length_b	26.422
_cell_length_c	16.3418
_cell_angle_alpha	90
_cell_angle_beta	116.881
_cell_angle_gamma	90
loop_
_atom_site_label
_atom_site_type_symbol
_atom_site_fract_x
_atom_site_fract_y
_atom_site_fract_z
_atom_site_charge
Mof_Co	Co	0.23019	0.50347	0.5222	1.19
Mof_Co	Co	0.44686	0.50841	0.67991	1.189
Mof_Co	Co	0.39105	0.52369	0.44082	1.192
Mof_N 	N 	0.0877	0.50248	0.5015	-0.18
Mof_O 	O 	0.3915	0.44325	0.7112	-0.429
Mof_O 	O 	0.2426	0.43873	0.6015	-0.427
Mof_O 	O 	0.2351	0.25734	0.8487	-0.312
Mof_O 	O 	0.4861	0.07336	0.84	-0.422
Mof_O 	O 	0.4682	0.05013	0.9627	-0.529
Mof_O 	O 	0.2588	0.54857	0.6394	-0.442
Mof_O 	O 	0.4039	0.55482	0.7529	-0.407
Mof_O 	O 	0.1716	0.68748	0.9068	-0.309
Mof_O 	O 	0.2024	0.92681	0.9556	-0.431
Mof_O 	O 	0.3352	0.90765	0.9464	-0.434
Mof_O 	O 	0.4207	0.54616	0.335	-0.467
Mof_O 	O 	0.4264	0.51052	0.2156	-0.397
Mof_O 	O 	0.0373	0.62516	0.0039	-0.294
Mof_O 	O 	0.8162	0.53981	0.5966	-0.43
Mof_O 	O 	0.7289	0.50998	0.6616	-0.428
Mof_O 	O 	0.3697	0.49622	0.5462	-0.921
Mof_C 	C 	0.3092	0.42578	0.6762	0.405
Mof_C 	C 	0.2892	0.3837	0.7262	-0.189
Mof_C 	C 	0.1989	0.3631	0.6938	0.153
Mof_H 	H 	0.1483	0.3781	0.6421	-0.004
Mof_C 	C 	0.1811	0.322	0.7346	-0.269
Mof_H 	H 	0.1192	0.3084	0.7108	0.135
Mof_C 	C 	0.2536	0.3004	0.8102	0.296
Mof_C 	C 	0.3424	0.3198	0.8467	-0.261
Mof_H 	H 	0.3912	0.305	0.9001	0.129
Mof_C 	C 	0.362	0.3626	0.804	0.134
Mof_H 	H 	0.4238	0.3764	0.8285	0.005
Mof_C 	C 	0.29	0.2147	0.8582	0.325
Mof_C 	C 	0.339	0.2065	0.8098	-0.318
Mof_H 	H 	0.3376	0.231	0.7666	0.147
Mof_C 	C 	0.3906	0.1633	0.8228	0.201
Mof_H 	H 	0.4229	0.1581	0.7868	-0.012
Mof_C 	C 	0.3977	0.1267	0.8857	-0.235
Mof_C 	C 	0.3434	0.1348	0.9317	0.193
Mof_H 	H 	0.3431	0.1099	0.9735	-0.037
Mof_C 	C 	0.29	0.178	0.9182	-0.297
Mof_H 	H 	0.2532	0.1825	0.9501	0.148
Mof_C 	C 	0.4557	0.0802	0.8964	0.43
Mof_C 	C 	0.3158	0.56395	0.7165	0.408
Mof_C 	C 	0.2809	0.59591	0.7696	-0.203
Mof_C 	C 	0.1929	0.6202	0.7229	0.162
Mof_H 	H 	0.1568	0.6155	0.6586	-0.01
Mof_C 	C 	0.1589	0.6505	0.7693	-0.282
Mof_H 	H 	0.1005	0.6676	0.7367	0.135
Mof_C 	C 	0.2085	0.6562	0.8619	0.296
Mof_C 	C 	0.2945	0.6321	0.9107	-0.276
Mof_H 	H 	0.329	0.6362	0.9753	0.137
Mof_C 	C 	0.3289	0.6021	0.8634	0.161
Mof_H 	H 	0.3874	0.5852	0.8965	-0.002
Mof_C 	C 	0.1903	0.7387	0.9098	0.299
Mof_C 	C 	0.1341	0.7707	0.9298	-0.269
Mof_H 	H 	0.0817	0.7578	0.9364	0.136
Mof_C 	C 	0.1546	0.8223	0.9403	0.155
Mof_H 	H 	0.1162	0.8445	0.9546	-0.008
Mof_C 	C 	0.2297	0.8416	0.9302	-0.198
Mof_C 	C 	0.2845	0.8087	0.9095	0.157
Mof_H 	H 	0.3373	0.8215	0.9037	-0.002
Mof_C 	C 	0.2646	0.7576	0.897	-0.275
Mof_H 	H 	0.3014	0.7358	0.8797	0.132
Mof_C 	C 	0.258	0.8973	0.9454	0.413
Mof_C 	C 	0.3856	0.53817	0.2493	0.386
Mof_C 	C 	0.2935	0.56237	0.1836	-0.191
Mof_C 	C 	0.2446	0.59239	0.2145	0.148
Mof_H 	H 	0.2698	0.5995	0.2782	-0.006
Mof_C 	C 	0.1581	0.6129	0.1537	-0.251
Mof_H 	H 	0.1235	0.6336	0.1754	0.133
Mof_C 	C 	0.1231	0.60247	0.0603	0.29
Mof_C 	C 	0.1717	0.5722	0.0288	-0.269
Mof_H 	H 	0.1467	0.5647	0.9652	0.133
Mof_C 	C 	0.2584	0.5526	0.0908	0.15
Mof_H 	H 	0.2938	0.5324	0.0693	0.005
Mof_C 	C 	0.9814	0.6017	0.9183	0.292
Mof_C 	C 	0.9404	0.5555	0.9187	-0.263
Mof_H 	H 	0.9531	0.5389	0.9747	0.128
Mof_C 	C 	0.8798	0.5343	0.8343	0.152
Mof_H 	H 	0.8486	0.5033	0.8327	-0.002
Mof_C 	C 	0.8644	0.5574	0.7534	-0.197
Mof_C 	C 	0.9098	0.6027	0.7561	0.163
Mof_H 	H 	0.9012	0.6184	0.7006	-0.009
Mof_C 	C 	0.967	0.625	0.839	-0.277
Mof_H 	H 	0.9964	0.6566	0.8407	0.146
Mof_C 	C 	0.7984	0.5337	0.6626	0.411
Mof_C 	C 	0.0407	0.4591	0.4872	-0.01
Mof_H 	H 	0.056	0.433	0.475	0.05
Mof_C 	C 	0.0451	0.5438	0.5134	0.023
Mof_H 	H 	0.079	0.5741	0.521	0.034
Mof_H 	H 	0.387	0.469	0.551	0.375
Mof_Co	Co	0.76981	0.00347	0.9778	1.189
Mof_Co	Co	0.55314	0.00841	0.82009	1.188
Mof_Co	Co	0.60895	0.02369	0.05918	1.192
Mof_N 	N 	0.9123	0.00248	0.9985	-0.181
Mof_O 	O 	0.6085	0.94325	0.7888	-0.428
Mof_O 	O 	0.7574	0.93873	0.8985	-0.426
Mof_O 	O 	0.7649	0.75734	0.6513	-0.312
Mof_O 	O 	0.5139	0.57336	0.66	-0.422
Mof_O 	O 	0.5318	0.55013	0.5373	-0.529
Mof_O 	O 	0.7412	0.04857	0.8606	-0.443
Mof_O 	O 	0.5961	0.05482	0.7471	-0.407
Mof_O 	O 	0.8284	0.18748	0.5932	-0.309
Mof_O 	O 	0.7976	0.42681	0.5444	-0.432
Mof_O 	O 	0.6648	0.40765	0.5536	-0.435
Mof_O 	O 	0.5793	0.04616	0.165	-0.466
Mof_O 	O 	0.5736	0.01052	0.2844	-0.397
Mof_O 	O 	0.9627	0.12516	0.4961	-0.294
Mof_O 	O 	0.1838	0.03981	0.9034	-0.43
Mof_O 	O 	0.2711	0.00998	0.8384	-0.429
Mof_O 	O 	0.6303	0.99622	0.9538	-0.919
Mof_C 	C 	0.6908	0.92578	0.8238	0.405
Mof_C 	C 	0.7108	0.8837	0.7738	-0.188
Mof_C 	C 	0.8011	0.8631	0.8062	0.153
Mof_H 	H 	0.8517	0.8781	0.8579	-0.004
Mof_C 	C 	0.8189	0.822	0.7654	-0.269
Mof_H 	H 	0.8808	0.8084	0.7892	0.135
Mof_C 	C 	0.7464	0.8004	0.6898	0.296
Mof_C 	C 	0.6576	0.8198	0.6533	-0.261
Mof_H 	H 	0.6088	0.805	0.5999	0.129
Mof_C 	C 	0.638	0.8626	0.696	0.134
Mof_H 	H 	0.5762	0.8764	0.6715	0.005
Mof_C 	C 	0.71	0.7147	0.6418	0.325
Mof_C 	C 	0.661	0.7065	0.6902	-0.318
Mof_H 	H 	0.6624	0.731	0.7334	0.147
Mof_C 	C 	0.6094	0.6633	0.6772	0.201
Mof_H 	H 	0.5771	0.6581	0.7132	-0.012
Mof_C 	C 	0.6023	0.6267	0.6143	-0.235
Mof_C 	C 	0.6566	0.6348	0.5683	0.193
Mof_H 	H 	0.6569	0.6099	0.5265	-0.037
Mof_C 	C 	0.71	0.678	0.5818	-0.296
Mof_H 	H 	0.7468	0.6825	0.5499	0.148
Mof_C 	C 	0.5443	0.5802	0.6036	0.43
Mof_C 	C 	0.6842	0.06395	0.7835	0.408
Mof_C 	C 	0.7191	0.09591	0.7304	-0.203
Mof_C 	C 	0.8071	0.1202	0.7771	0.162
Mof_H 	H 	0.8432	0.1155	0.8414	-0.011
Mof_C 	C 	0.8411	0.1505	0.7307	-0.282
Mof_H 	H 	0.8995	0.1676	0.7633	0.134
Mof_C 	C 	0.7915	0.1562	0.6381	0.296
Mof_C 	C 	0.7055	0.1321	0.5893	-0.276
Mof_H 	H 	0.671	0.1362	0.5247	0.137
Mof_C 	C 	0.6711	0.1021	0.6366	0.161
Mof_H 	H 	0.6126	0.0852	0.6035	-0.002
Mof_C 	C 	0.8097	0.2387	0.5902	0.299
Mof_C 	C 	0.8659	0.2707	0.5702	-0.269
Mof_H 	H 	0.9183	0.2578	0.5636	0.136
Mof_C 	C 	0.8454	0.3223	0.5597	0.155
Mof_H 	H 	0.8838	0.3445	0.5454	-0.008
Mof_C 	C 	0.7703	0.3416	0.5698	-0.198
Mof_C 	C 	0.7155	0.3087	0.5905	0.157
Mof_H 	H 	0.6627	0.3215	0.5963	-0.002
Mof_C 	C 	0.7354	0.2576	0.603	-0.275
Mof_H 	H 	0.6986	0.2358	0.6203	0.132
Mof_C 	C 	0.742	0.3973	0.5546	0.413
Mof_C 	C 	0.6144	0.03817	0.2507	0.385
Mof_C 	C 	0.7065	0.06237	0.3164	-0.19
Mof_C 	C 	0.7554	0.09239	0.2855	0.147
Mof_H 	H 	0.7302	0.0995	0.2218	-0.006
Mof_C 	C 	0.8419	0.1129	0.3463	-0.25
Mof_H 	H 	0.8765	0.1336	0.3246	0.133
Mof_C 	C 	0.8769	0.10247	0.4397	0.289
Mof_C 	C 	0.8283	0.0722	0.4712	-0.267
Mof_H 	H 	0.8533	0.0647	0.5348	0.132
Mof_C 	C 	0.7416	0.0526	0.4092	0.149
Mof_H 	H 	0.7062	0.0324	0.4307	0.005
Mof_C 	C 	0.0186	0.1017	0.5817	0.292
Mof_C 	C 	0.0596	0.0555	0.5813	-0.263
Mof_H 	H 	0.0469	0.0389	0.5253	0.128
Mof_C 	C 	0.1202	0.0343	0.6657	0.152
Mof_H 	H 	0.1514	0.0033	0.6673	-0.002
Mof_C 	C 	0.1356	0.0574	0.7466	-0.197
Mof_C 	C 	0.0902	0.1027	0.7439	0.163
Mof_H 	H 	0.0988	0.1184	0.7994	-0.009
Mof_C 	C 	0.033	0.125	0.661	-0.277
Mof_H 	H 	0.0036	0.1566	0.6593	0.147
Mof_C 	C 	0.2016	0.0337	0.8374	0.411
Mof_C 	C 	0.9593	0.9591	0.0128	-0.004
Mof_H 	H 	0.944	0.933	0.025	0.048
Mof_C 	C 	0.9549	0.0438	0.9866	0.019
Mof_H 	H 	0.921	0.0741	0.979	0.035
Mof_H 	H 	0.613	0.969	0.949	0.375
Mof_Co	Co	0.76981	0.49653	0.4778	1.189
Mof_Co	Co	0.55314	0.49159	0.32009	1.188
Mof_Co	Co	0.60895	0.47631	0.55918	1.192
Mof_N 	N 	0.9123	0.49752	0.4985	-0.18
Mof_O 	O 	0.6085	0.55675	0.2888	-0.429
Mof_O 	O 	0.7574	0.56127	0.3985	-0.427
Mof_O 	O 	0.7649	0.74266	0.1513	-0.312
Mof_O 	O 	0.5139	0.92664	0.16	-0.422
Mof_O 	O 	0.5318	0.94987	0.0373	-0.529
Mof_O 	O 	0.7412	0.45143	0.3606	-0.442
Mof_O 	O 	0.5961	0.44518	0.2471	-0.407
Mof_O 	O 	0.8284	0.31252	0.0932	-0.309
Mof_O 	O 	0.7976	0.07319	0.0444	-0.431
Mof_O 	O 	0.6648	0.09235	0.0536	-0.434
Mof_O 	O 	0.5793	0.45384	0.665	-0.467
Mof_O 	O 	0.5736	0.48948	0.7844	-0.397
Mof_O 	O 	0.9627	0.37484	0.9961	-0.294
Mof_O 	O 	0.1838	0.46019	0.4034	-0.43
Mof_O 	O 	0.2711	0.49002	0.3384	-0.428
Mof_O 	O 	0.6303	0.50378	0.4538	-0.921
Mof_C 	C 	0.6908	0.57422	0.3238	0.405
Mof_C 	C 	0.7108	0.6163	0.2738	-0.189
Mof_C 	C 	0.8011	0.6369	0.3062	0.153
Mof_H 	H 	0.8517	0.6219	0.3579	-0.004
Mof_C 	C 	0.8189	0.678	0.2654	-0.269
Mof_H 	H 	0.8808	0.6916	0.2892	0.135
Mof_C 	C 	0.7464	0.6996	0.1898	0.296
Mof_C 	C 	0.6576	0.6802	0.1533	-0.261
Mof_H 	H 	0.6088	0.695	0.0999	0.129
Mof_C 	C 	0.638	0.6374	0.196	0.134
Mof_H 	H 	0.5762	0.6236	0.1715	0.005
Mof_C 	C 	0.71	0.7853	0.1418	0.325
Mof_C 	C 	0.661	0.7935	0.1902	-0.318
Mof_H 	H 	0.6624	0.769	0.2334	0.147
Mof_C 	C 	0.6094	0.8367	0.1772	0.201
Mof_H 	H 	0.5771	0.8419	0.2132	-0.012
Mof_C 	C 	0.6023	0.8733	0.1143	-0.235
Mof_C 	C 	0.6566	0.8652	0.0683	0.193
Mof_H 	H 	0.6569	0.8901	0.0265	-0.037
Mof_C 	C 	0.71	0.822	0.0818	-0.297
Mof_H 	H 	0.7468	0.8175	0.0499	0.148
Mof_C 	C 	0.5443	0.9198	0.1036	0.43
Mof_C 	C 	0.6842	0.43605	0.2835	0.408
Mof_C 	C 	0.7191	0.40409	0.2304	-0.203
Mof_C 	C 	0.8071	0.3798	0.2771	0.162
Mof_H 	H 	0.8432	0.3845	0.3414	-0.01
Mof_C 	C 	0.8411	0.3495	0.2307	-0.282
Mof_H 	H 	0.8995	0.3324	0.2633	0.135
Mof_C 	C 	0.7915	0.3438	0.1381	0.296
Mof_C 	C 	0.7055	0.3679	0.0893	-0.276
Mof_H 	H 	0.671	0.3638	0.0247	0.137
Mof_C 	C 	0.6711	0.3979	0.1366	0.161
Mof_H 	H 	0.6126	0.4148	0.1035	-0.002
Mof_C 	C 	0.8097	0.2613	0.0902	0.299
Mof_C 	C 	0.8659	0.2293	0.0702	-0.269
Mof_H 	H 	0.9183	0.2422	0.0636	0.136
Mof_C 	C 	0.8454	0.1777	0.0597	0.155
Mof_H 	H 	0.8838	0.1555	0.0454	-0.008
Mof_C 	C 	0.7703	0.1584	0.0698	-0.198
Mof_C 	C 	0.7155	0.1913	0.0905	0.157
Mof_H 	H 	0.6627	0.1785	0.0963	-0.002
Mof_C 	C 	0.7354	0.2424	0.103	-0.275
Mof_H 	H 	0.6986	0.2642	0.1203	0.132
Mof_C 	C 	0.742	0.1027	0.0546	0.413
Mof_C 	C 	0.6144	0.46183	0.7507	0.386
Mof_C 	C 	0.7065	0.43763	0.8164	-0.191
Mof_C 	C 	0.7554	0.40761	0.7855	0.148
Mof_H 	H 	0.7302	0.4005	0.7218	-0.006
Mof_C 	C 	0.8419	0.3871	0.8463	-0.251
Mof_H 	H 	0.8765	0.3664	0.8246	0.133
Mof_C 	C 	0.8769	0.39753	0.9397	0.29
Mof_C 	C 	0.8283	0.4278	0.9712	-0.269
Mof_H 	H 	0.8533	0.4353	0.0348	0.133
Mof_C 	C 	0.7416	0.4474	0.9092	0.15
Mof_H 	H 	0.7062	0.4676	0.9307	0.005
Mof_C 	C 	0.0186	0.3983	0.0817	0.292
Mof_C 	C 	0.0596	0.4445	0.0813	-0.263
Mof_H 	H 	0.0469	0.4611	0.0253	0.128
Mof_C 	C 	0.1202	0.4657	0.1657	0.152
Mof_H 	H 	0.1514	0.4967	0.1673	-0.002
Mof_C 	C 	0.1356	0.4426	0.2466	-0.197
Mof_C 	C 	0.0902	0.3973	0.2439	0.163
Mof_H 	H 	0.0988	0.3816	0.2994	-0.009
Mof_C 	C 	0.033	0.375	0.161	-0.277
Mof_H 	H 	0.0036	0.3434	0.1593	0.146
Mof_C 	C 	0.2016	0.4663	0.3374	0.411
Mof_C 	C 	0.9593	0.5409	0.5128	-0.01
Mof_H 	H 	0.944	0.567	0.525	0.05
Mof_C 	C 	0.9549	0.4562	0.4866	0.023
Mof_H 	H 	0.921	0.4259	0.479	0.034
Mof_H 	H 	0.613	0.531	0.449	0.375
Mof_Co	Co	0.23019	0.99653	0.0222	1.189
Mof_Co	Co	0.44686	0.99159	0.17991	1.188
Mof_Co	Co	0.39105	0.97631	0.94082	1.192
Mof_N 	N 	0.0877	0.99752	0.0015	-0.181
Mof_O 	O 	0.3915	0.05675	0.2112	-0.428
Mof_O 	O 	0.2426	0.06127	0.1015	-0.426
Mof_O 	O 	0.2351	0.24266	0.3487	-0.312
Mof_O 	O 	0.4861	0.42664	0.34	-0.422
Mof_O 	O 	0.4682	0.44987	0.4627	-0.529
Mof_O 	O 	0.2588	0.95143	0.1394	-0.443
Mof_O 	O 	0.4039	0.94518	0.2529	-0.407
Mof_O 	O 	0.1716	0.81252	0.4068	-0.309
Mof_O 	O 	0.2024	0.57319	0.4556	-0.432
Mof_O 	O 	0.3352	0.59235	0.4464	-0.435
Mof_O 	O 	0.4207	0.95384	0.835	-0.466
Mof_O 	O 	0.4264	0.98948	0.7156	-0.397
Mof_O 	O 	0.0373	0.87484	0.5039	-0.294
Mof_O 	O 	0.8162	0.96019	0.0966	-0.43
Mof_O 	O 	0.7289	0.99002	0.1616	-0.429
Mof_O 	O 	0.3697	0.00378	0.0462	-0.919
Mof_C 	C 	0.3092	0.07422	0.1762	0.405
Mof_C 	C 	0.2892	0.1163	0.2262	-0.188
Mof_C 	C 	0.1989	0.1369	0.1938	0.153
Mof_H 	H 	0.1483	0.1219	0.1421	-0.004
Mof_C 	C 	0.1811	0.178	0.2346	-0.269
Mof_H 	H 	0.1192	0.1916	0.2108	0.135
Mof_C 	C 	0.2536	0.1996	0.3102	0.296
Mof_C 	C 	0.3424	0.1802	0.3467	-0.261
Mof_H 	H 	0.3912	0.195	0.4001	0.129
Mof_C 	C 	0.362	0.1374	0.304	0.134
Mof_H 	H 	0.4238	0.1236	0.3285	0.005
Mof_C 	C 	0.29	0.2853	0.3582	0.325
Mof_C 	C 	0.339	0.2935	0.3098	-0.318
Mof_H 	H 	0.3376	0.269	0.2666	0.147
Mof_C 	C 	0.3906	0.3367	0.3228	0.201
Mof_H 	H 	0.4229	0.3419	0.2868	-0.012
Mof_C 	C 	0.3977	0.3733	0.3857	-0.235
Mof_C 	C 	0.3434	0.3652	0.4317	0.193
Mof_H 	H 	0.3431	0.3901	0.4735	-0.037
Mof_C 	C 	0.29	0.322	0.4182	-0.296
Mof_H 	H 	0.2532	0.3175	0.4501	0.148
Mof_C 	C 	0.4557	0.4198	0.3964	0.43
Mof_C 	C 	0.3158	0.93605	0.2165	0.408
Mof_C 	C 	0.2809	0.90409	0.2696	-0.203
Mof_C 	C 	0.1929	0.8798	0.2229	0.162
Mof_H 	H 	0.1568	0.8845	0.1586	-0.011
Mof_C 	C 	0.1589	0.8495	0.2693	-0.282
Mof_H 	H 	0.1005	0.8324	0.2367	0.134
Mof_C 	C 	0.2085	0.8438	0.3619	0.296
Mof_C 	C 	0.2945	0.8679	0.4107	-0.276
Mof_H 	H 	0.329	0.8638	0.4753	0.137
Mof_C 	C 	0.3289	0.8979	0.3634	0.161
Mof_H 	H 	0.3874	0.9148	0.3965	-0.002
Mof_C 	C 	0.1903	0.7613	0.4098	0.299
Mof_C 	C 	0.1341	0.7293	0.4298	-0.269
Mof_H 	H 	0.0817	0.7422	0.4364	0.136
Mof_C 	C 	0.1546	0.6777	0.4403	0.155
Mof_H 	H 	0.1162	0.6555	0.4546	-0.008
Mof_C 	C 	0.2297	0.6584	0.4302	-0.198
Mof_C 	C 	0.2845	0.6913	0.4095	0.157
Mof_H 	H 	0.3373	0.6785	0.4037	-0.002
Mof_C 	C 	0.2646	0.7424	0.397	-0.275
Mof_H 	H 	0.3014	0.7642	0.3797	0.132
Mof_C 	C 	0.258	0.6027	0.4454	0.413
Mof_C 	C 	0.3856	0.96183	0.7493	0.385
Mof_C 	C 	0.2935	0.93763	0.6836	-0.19
Mof_C 	C 	0.2446	0.90761	0.7145	0.147
Mof_H 	H 	0.2698	0.9005	0.7782	-0.006
Mof_C 	C 	0.1581	0.8871	0.6537	-0.25
Mof_H 	H 	0.1235	0.8664	0.6754	0.133
Mof_C 	C 	0.1231	0.89753	0.5603	0.289
Mof_C 	C 	0.1717	0.9278	0.5288	-0.267
Mof_H 	H 	0.1467	0.9353	0.4652	0.132
Mof_C 	C 	0.2584	0.9474	0.5908	0.149
Mof_H 	H 	0.2938	0.9676	0.5693	0.005
Mof_C 	C 	0.9814	0.8983	0.4183	0.292
Mof_C 	C 	0.9404	0.9445	0.4187	-0.263
Mof_H 	H 	0.9531	0.9611	0.4747	0.128
Mof_C 	C 	0.8798	0.9657	0.3343	0.152
Mof_H 	H 	0.8486	0.9967	0.3327	-0.002
Mof_C 	C 	0.8644	0.9426	0.2534	-0.197
Mof_C 	C 	0.9098	0.8973	0.2561	0.163
Mof_H 	H 	0.9012	0.8816	0.2006	-0.009
Mof_C 	C 	0.967	0.875	0.339	-0.277
Mof_H 	H 	0.9964	0.8434	0.3407	0.147
Mof_C 	C 	0.7984	0.9663	0.1626	0.411
Mof_C 	C 	0.0407	0.0409	0.9872	-0.004
Mof_H 	H 	0.056	0.067	0.975	0.048
Mof_C 	C 	0.0451	0.9562	0.0134	0.019
Mof_H 	H 	0.079	0.9259	0.021	0.035
Mof_H 	H 	0.387	0.031	0.051	0.375
_end
