data_functionalizedCrystal
_audit_creation_method	'EQeq! by Chris Wilmer'
_symmetry_space_group_name_H-M	'P1'
_symmetry_Int_Tables_number	1
_symmetry_cell_setting	triclinic
loop_
_symmetry_equiv_pos_as_xyz
  x,y,z
_cell_length_a	26.292
_cell_length_b	26.292
_cell_length_c	26.292
_cell_angle_alpha	90
_cell_angle_beta	90
_cell_angle_gamma	90
loop_
_atom_site_label
_atom_site_type_symbol
_atom_site_fract_x
_atom_site_fract_y
_atom_site_fract_z
_atom_site_charge
Mof_Li	Li	0.74464	0.6096	0.89129	2.747
Mof_B 	B 	0.74894	0.59999	0.10198	0.932
Mof_N 	N 	0.75752	0.62182	0.04809	-0.309
Mof_N 	N 	0.75276	0.63373	0.9643	-0.545
Mof_C 	C 	0.73868	0.6047	0.00334	0.123
Mof_H 	H 	0.7178	0.5754	0.0002	-0.098
Mof_C 	C 	0.78211	0.67209	0.98536	0.143
Mof_C 	C 	0.78459	0.66533	0.03631	-0.046
Mof_H 	H 	0.8019	0.6867	0.0598	0.003
Mof_C 	C 	0.80416	0.71301	0.9541	-0.455
Mof_H 	H 	0.7774	0.7285	0.9333	0.091
Mof_H 	H 	0.8305	0.6988	0.9319	0.085
Mof_H 	H 	0.8192	0.7389	0.9763	0.123
Mof_N 	N 	0.72468	0.54629	0.09824	-0.311
Mof_N 	N 	0.71594	0.46214	0.103	-0.551
Mof_C 	C 	0.74646	0.50132	0.10859	0.125
Mof_H 	H 	0.7809	0.4981	0.119	-0.105
Mof_C 	C 	0.67014	0.48341	0.08795	0.138
Mof_C 	C 	0.67547	0.53456	0.08558	-0.044
Mof_H 	H 	0.6496	0.5582	0.0767	0
Mof_C 	C 	0.62489	0.45026	0.07747	-0.443
Mof_H 	H 	0.6318	0.4288	0.0478	0.09
Mof_H 	H 	0.5951	0.4716	0.0707	0.122
Mof_H 	H 	0.6182	0.4287	0.1071	0.089
Mof_N 	N 	0.80094	0.5965	0.12766	-0.322
Mof_N 	N 	0.86293	0.60121	0.18538	-0.574
Mof_C 	C 	0.81418	0.60941	0.17475	0.139
Mof_H 	H 	0.7909	0.6233	0.1986	-0.122
Mof_C 	C 	0.88368	0.58142	0.14106	0.134
Mof_C 	C 	0.8453	0.57793	0.10542	-0.042
Mof_H 	H 	0.8486	0.5652	0.0718	0.003
Mof_C 	C 	0.93819	0.56694	0.13529	-0.447
Mof_H 	H 	0.9589	0.5977	0.1319	0.108
Mof_H 	H 	0.9423	0.5458	0.1049	0.123
Mof_H 	H 	0.9492	0.5478	0.1653	0.081
Mof_N 	N 	0.71222	0.63427	0.13078	-0.309
Mof_N 	N 	0.65709	0.69725	0.14561	-0.563
Mof_C 	C 	0.69029	0.67719	0.11415	0.077
Mof_H 	H 	0.6981	0.6919	0.0821	-0.107
Mof_C 	C 	0.65661	0.66457	0.18676	0.165
Mof_C 	C 	0.68908	0.62611	0.17827	-0.072
Mof_H 	H 	0.6953	0.5983	0.2005	0.005
Mof_C 	C 	0.62427	0.67411	0.23093	-0.467
Mof_H 	H 	0.6277	0.646	0.2551	0.122
Mof_H 	H 	0.5887	0.6768	0.22	0.08
Mof_H 	H 	0.6347	0.7059	0.2473	0.107
Mof_Li	Li	0.25536	0.3904	0.89129	2.746
Mof_B 	B 	0.25106	0.40001	0.10198	0.931
Mof_N 	N 	0.24248	0.37818	0.04809	-0.31
Mof_N 	N 	0.24724	0.36627	0.9643	-0.546
Mof_C 	C 	0.26132	0.3953	0.00334	0.122
Mof_H 	H 	0.2822	0.4246	0.0002	-0.099
Mof_C 	C 	0.21789	0.32791	0.98536	0.142
Mof_C 	C 	0.21541	0.33467	0.03631	-0.047
Mof_H 	H 	0.1981	0.3133	0.0598	0.002
Mof_C 	C 	0.19584	0.28699	0.9541	-0.456
Mof_H 	H 	0.2226	0.2715	0.9333	0.09
Mof_H 	H 	0.1695	0.3012	0.9319	0.084
Mof_H 	H 	0.1808	0.2611	0.9763	0.122
Mof_N 	N 	0.27532	0.45371	0.09824	-0.312
Mof_N 	N 	0.28406	0.53786	0.103	-0.552
Mof_C 	C 	0.25354	0.49868	0.10859	0.124
Mof_H 	H 	0.2191	0.5019	0.119	-0.106
Mof_C 	C 	0.32986	0.51659	0.08795	0.137
Mof_C 	C 	0.32453	0.46544	0.08558	-0.045
Mof_H 	H 	0.3504	0.4418	0.0767	-0.001
Mof_C 	C 	0.37511	0.54974	0.07747	-0.444
Mof_H 	H 	0.3682	0.5712	0.0478	0.089
Mof_H 	H 	0.4049	0.5284	0.0707	0.121
Mof_H 	H 	0.3818	0.5713	0.1071	0.088
Mof_N 	N 	0.19906	0.4035	0.12766	-0.322
Mof_N 	N 	0.13707	0.39879	0.18538	-0.574
Mof_C 	C 	0.18582	0.39059	0.17475	0.139
Mof_H 	H 	0.2091	0.3767	0.1986	-0.122
Mof_C 	C 	0.11632	0.41858	0.14106	0.134
Mof_C 	C 	0.1547	0.42207	0.10542	-0.042
Mof_H 	H 	0.1514	0.4348	0.0718	0.003
Mof_C 	C 	0.06181	0.43306	0.13529	-0.447
Mof_H 	H 	0.0411	0.4023	0.1319	0.108
Mof_H 	H 	0.0577	0.4542	0.1049	0.123
Mof_H 	H 	0.0508	0.4522	0.1653	0.081
Mof_N 	N 	0.28778	0.36573	0.13078	-0.309
Mof_N 	N 	0.34291	0.30275	0.14561	-0.563
Mof_C 	C 	0.30971	0.32281	0.11415	0.077
Mof_H 	H 	0.3019	0.3081	0.0821	-0.107
Mof_C 	C 	0.34339	0.33543	0.18676	0.165
Mof_C 	C 	0.31092	0.37389	0.17827	-0.072
Mof_H 	H 	0.3047	0.4017	0.2005	0.005
Mof_C 	C 	0.37573	0.32589	0.23093	-0.467
Mof_H 	H 	0.3723	0.354	0.2551	0.122
Mof_H 	H 	0.4113	0.3232	0.22	0.08
Mof_H 	H 	0.3653	0.2941	0.2473	0.107
Mof_Li	Li	0.25536	0.6096	0.10871	2.746
Mof_B 	B 	0.25106	0.59999	0.89802	0.931
Mof_N 	N 	0.24248	0.62182	0.95191	-0.31
Mof_N 	N 	0.24724	0.63373	0.0357	-0.546
Mof_C 	C 	0.26132	0.6047	0.99666	0.122
Mof_H 	H 	0.2822	0.5754	0.9998	-0.099
Mof_C 	C 	0.21789	0.67209	0.01464	0.142
Mof_C 	C 	0.21541	0.66533	0.96369	-0.047
Mof_H 	H 	0.1981	0.6867	0.9402	0.002
Mof_C 	C 	0.19584	0.71301	0.0459	-0.456
Mof_H 	H 	0.2226	0.7285	0.0667	0.09
Mof_H 	H 	0.1695	0.6988	0.0681	0.084
Mof_H 	H 	0.1808	0.7389	0.0237	0.122
Mof_N 	N 	0.27532	0.54629	0.90176	-0.312
Mof_N 	N 	0.28406	0.46214	0.897	-0.552
Mof_C 	C 	0.25354	0.50132	0.89141	0.124
Mof_H 	H 	0.2191	0.4981	0.881	-0.106
Mof_C 	C 	0.32986	0.48341	0.91205	0.137
Mof_C 	C 	0.32453	0.53456	0.91442	-0.045
Mof_H 	H 	0.3504	0.5582	0.9233	-0.001
Mof_C 	C 	0.37511	0.45026	0.92253	-0.444
Mof_H 	H 	0.3682	0.4288	0.9522	0.089
Mof_H 	H 	0.4049	0.4716	0.9293	0.121
Mof_H 	H 	0.3818	0.4287	0.8929	0.088
Mof_N 	N 	0.19906	0.5965	0.87234	-0.322
Mof_N 	N 	0.13707	0.60121	0.81462	-0.574
Mof_C 	C 	0.18582	0.60941	0.82525	0.139
Mof_H 	H 	0.2091	0.6233	0.8014	-0.122
Mof_C 	C 	0.11632	0.58142	0.85894	0.134
Mof_C 	C 	0.1547	0.57793	0.89458	-0.042
Mof_H 	H 	0.1514	0.5652	0.9282	0.003
Mof_C 	C 	0.06181	0.56694	0.86471	-0.447
Mof_H 	H 	0.0411	0.5977	0.8681	0.108
Mof_H 	H 	0.0577	0.5458	0.8951	0.123
Mof_H 	H 	0.0508	0.5478	0.8347	0.081
Mof_N 	N 	0.28778	0.63427	0.86922	-0.309
Mof_N 	N 	0.34291	0.69725	0.85439	-0.563
Mof_C 	C 	0.30971	0.67719	0.88585	0.077
Mof_H 	H 	0.3019	0.6919	0.9179	-0.107
Mof_C 	C 	0.34339	0.66457	0.81324	0.165
Mof_C 	C 	0.31092	0.62611	0.82173	-0.072
Mof_H 	H 	0.3047	0.5983	0.7995	0.005
Mof_C 	C 	0.37573	0.67411	0.76907	-0.467
Mof_H 	H 	0.3723	0.646	0.7449	0.122
Mof_H 	H 	0.4113	0.6768	0.78	0.08
Mof_H 	H 	0.3653	0.7059	0.7527	0.107
Mof_Li	Li	0.74464	0.3904	0.10871	2.746
Mof_B 	B 	0.74894	0.40001	0.89802	0.931
Mof_N 	N 	0.75752	0.37818	0.95191	-0.31
Mof_N 	N 	0.75276	0.36627	0.0357	-0.546
Mof_C 	C 	0.73868	0.3953	0.99666	0.122
Mof_H 	H 	0.7178	0.4246	0.9998	-0.099
Mof_C 	C 	0.78211	0.32791	0.01464	0.142
Mof_C 	C 	0.78459	0.33467	0.96369	-0.047
Mof_H 	H 	0.8019	0.3133	0.9402	0.002
Mof_C 	C 	0.80416	0.28699	0.0459	-0.456
Mof_H 	H 	0.7774	0.2715	0.0667	0.09
Mof_H 	H 	0.8305	0.3012	0.0681	0.084
Mof_H 	H 	0.8192	0.2611	0.0237	0.122
Mof_N 	N 	0.72468	0.45371	0.90176	-0.312
Mof_N 	N 	0.71594	0.53786	0.897	-0.552
Mof_C 	C 	0.74646	0.49868	0.89141	0.124
Mof_H 	H 	0.7809	0.5019	0.881	-0.106
Mof_C 	C 	0.67014	0.51659	0.91205	0.137
Mof_C 	C 	0.67547	0.46544	0.91442	-0.045
Mof_H 	H 	0.6496	0.4418	0.9233	-0.001
Mof_C 	C 	0.62489	0.54974	0.92253	-0.444
Mof_H 	H 	0.6318	0.5712	0.9522	0.089
Mof_H 	H 	0.5951	0.5284	0.9293	0.121
Mof_H 	H 	0.6182	0.5713	0.8929	0.088
Mof_N 	N 	0.80094	0.4035	0.87234	-0.322
Mof_N 	N 	0.86293	0.39879	0.81462	-0.574
Mof_C 	C 	0.81418	0.39059	0.82525	0.139
Mof_H 	H 	0.7909	0.3767	0.8014	-0.122
Mof_C 	C 	0.88368	0.41858	0.85894	0.134
Mof_C 	C 	0.8453	0.42207	0.89458	-0.042
Mof_H 	H 	0.8486	0.4348	0.9282	0.003
Mof_C 	C 	0.93819	0.43306	0.86471	-0.447
Mof_H 	H 	0.9589	0.4023	0.8681	0.108
Mof_H 	H 	0.9423	0.4542	0.8951	0.123
Mof_H 	H 	0.9492	0.4522	0.8347	0.081
Mof_N 	N 	0.71222	0.36573	0.86922	-0.309
Mof_N 	N 	0.65709	0.30275	0.85439	-0.563
Mof_C 	C 	0.69029	0.32281	0.88585	0.077
Mof_H 	H 	0.6981	0.3081	0.9179	-0.107
Mof_C 	C 	0.65661	0.33543	0.81324	0.165
Mof_C 	C 	0.68908	0.37389	0.82173	-0.072
Mof_H 	H 	0.6953	0.4017	0.7995	0.005
Mof_C 	C 	0.62427	0.32589	0.76907	-0.467
Mof_H 	H 	0.6277	0.354	0.7449	0.122
Mof_H 	H 	0.5887	0.3232	0.78	0.08
Mof_H 	H 	0.6347	0.2941	0.7527	0.107
Mof_Li	Li	0.89129	0.74464	0.6096	2.746
Mof_B 	B 	0.10198	0.74894	0.59999	0.931
Mof_N 	N 	0.04809	0.75752	0.62182	-0.31
Mof_N 	N 	0.9643	0.75276	0.63373	-0.546
Mof_C 	C 	0.00334	0.73868	0.6047	0.122
Mof_H 	H 	0.0002	0.7178	0.5754	-0.099
Mof_C 	C 	0.98536	0.78211	0.67209	0.142
Mof_C 	C 	0.03631	0.78459	0.66533	-0.047
Mof_H 	H 	0.0598	0.8019	0.6867	0.002
Mof_C 	C 	0.9541	0.80416	0.71301	-0.456
Mof_H 	H 	0.9333	0.7774	0.7285	0.09
Mof_H 	H 	0.9319	0.8305	0.6988	0.084
Mof_H 	H 	0.9763	0.8192	0.7389	0.122
Mof_N 	N 	0.09824	0.72468	0.54629	-0.312
Mof_N 	N 	0.103	0.71594	0.46214	-0.552
Mof_C 	C 	0.10859	0.74646	0.50132	0.124
Mof_H 	H 	0.119	0.7809	0.4981	-0.106
Mof_C 	C 	0.08795	0.67014	0.48341	0.137
Mof_C 	C 	0.08558	0.67547	0.53456	-0.045
Mof_H 	H 	0.0767	0.6496	0.5582	-0.001
Mof_C 	C 	0.07747	0.62489	0.45026	-0.444
Mof_H 	H 	0.0478	0.6318	0.4288	0.089
Mof_H 	H 	0.0707	0.5951	0.4716	0.121
Mof_H 	H 	0.1071	0.6182	0.4287	0.088
Mof_N 	N 	0.12766	0.80094	0.5965	-0.322
Mof_N 	N 	0.18538	0.86293	0.60121	-0.574
Mof_C 	C 	0.17475	0.81418	0.60941	0.139
Mof_H 	H 	0.1986	0.7909	0.6233	-0.122
Mof_C 	C 	0.14106	0.88368	0.58142	0.134
Mof_C 	C 	0.10542	0.8453	0.57793	-0.042
Mof_H 	H 	0.0718	0.8486	0.5652	0.003
Mof_C 	C 	0.13529	0.93819	0.56694	-0.447
Mof_H 	H 	0.1319	0.9589	0.5977	0.108
Mof_H 	H 	0.1049	0.9423	0.5458	0.123
Mof_H 	H 	0.1653	0.9492	0.5478	0.081
Mof_N 	N 	0.13078	0.71222	0.63427	-0.309
Mof_N 	N 	0.14561	0.65709	0.69725	-0.563
Mof_C 	C 	0.11415	0.69029	0.67719	0.077
Mof_H 	H 	0.0821	0.6981	0.6919	-0.107
Mof_C 	C 	0.18676	0.65661	0.66457	0.165
Mof_C 	C 	0.17827	0.68908	0.62611	-0.072
Mof_H 	H 	0.2005	0.6953	0.5983	0.005
Mof_C 	C 	0.23093	0.62427	0.67411	-0.467
Mof_H 	H 	0.2551	0.6277	0.646	0.122
Mof_H 	H 	0.22	0.5887	0.6768	0.08
Mof_H 	H 	0.2473	0.6347	0.7059	0.107
Mof_Li	Li	0.89129	0.25536	0.3904	2.746
Mof_B 	B 	0.10198	0.25106	0.40001	0.931
Mof_N 	N 	0.04809	0.24248	0.37818	-0.31
Mof_N 	N 	0.9643	0.24724	0.36627	-0.546
Mof_C 	C 	0.00334	0.26132	0.3953	0.122
Mof_H 	H 	0.0002	0.2822	0.4246	-0.099
Mof_C 	C 	0.98536	0.21789	0.32791	0.142
Mof_C 	C 	0.03631	0.21541	0.33467	-0.047
Mof_H 	H 	0.0598	0.1981	0.3133	0.002
Mof_C 	C 	0.9541	0.19584	0.28699	-0.456
Mof_H 	H 	0.9333	0.2226	0.2715	0.09
Mof_H 	H 	0.9319	0.1695	0.3012	0.084
Mof_H 	H 	0.9763	0.1808	0.2611	0.122
Mof_N 	N 	0.09824	0.27532	0.45371	-0.312
Mof_N 	N 	0.103	0.28406	0.53786	-0.552
Mof_C 	C 	0.10859	0.25354	0.49868	0.124
Mof_H 	H 	0.119	0.2191	0.5019	-0.106
Mof_C 	C 	0.08795	0.32986	0.51659	0.137
Mof_C 	C 	0.08558	0.32453	0.46544	-0.045
Mof_H 	H 	0.0767	0.3504	0.4418	-0.001
Mof_C 	C 	0.07747	0.37511	0.54974	-0.444
Mof_H 	H 	0.0478	0.3682	0.5712	0.089
Mof_H 	H 	0.0707	0.4049	0.5284	0.121
Mof_H 	H 	0.1071	0.3818	0.5713	0.088
Mof_N 	N 	0.12766	0.19906	0.4035	-0.322
Mof_N 	N 	0.18538	0.13707	0.39879	-0.574
Mof_C 	C 	0.17475	0.18582	0.39059	0.139
Mof_H 	H 	0.1986	0.2091	0.3767	-0.122
Mof_C 	C 	0.14106	0.11632	0.41858	0.134
Mof_C 	C 	0.10542	0.1547	0.42207	-0.042
Mof_H 	H 	0.0718	0.1514	0.4348	0.003
Mof_C 	C 	0.13529	0.06181	0.43306	-0.447
Mof_H 	H 	0.1319	0.0411	0.4023	0.108
Mof_H 	H 	0.1049	0.0577	0.4542	0.123
Mof_H 	H 	0.1653	0.0508	0.4522	0.081
Mof_N 	N 	0.13078	0.28778	0.36573	-0.309
Mof_N 	N 	0.14561	0.34291	0.30275	-0.563
Mof_C 	C 	0.11415	0.30971	0.32281	0.077
Mof_H 	H 	0.0821	0.3019	0.3081	-0.107
Mof_C 	C 	0.18676	0.34339	0.33543	0.165
Mof_C 	C 	0.17827	0.31092	0.37389	-0.072
Mof_H 	H 	0.2005	0.3047	0.4017	0.005
Mof_C 	C 	0.23093	0.37573	0.32589	-0.467
Mof_H 	H 	0.2551	0.3723	0.354	0.122
Mof_H 	H 	0.22	0.4113	0.3232	0.08
Mof_H 	H 	0.2473	0.3653	0.2941	0.107
Mof_Li	Li	0.10871	0.25536	0.6096	2.746
Mof_B 	B 	0.89802	0.25106	0.59999	0.931
Mof_N 	N 	0.95191	0.24248	0.62182	-0.31
Mof_N 	N 	0.0357	0.24724	0.63373	-0.546
Mof_C 	C 	0.99666	0.26132	0.6047	0.122
Mof_H 	H 	0.9998	0.2822	0.5754	-0.099
Mof_C 	C 	0.01464	0.21789	0.67209	0.142
Mof_C 	C 	0.96369	0.21541	0.66533	-0.047
Mof_H 	H 	0.9402	0.1981	0.6867	0.002
Mof_C 	C 	0.0459	0.19584	0.71301	-0.456
Mof_H 	H 	0.0667	0.2226	0.7285	0.09
Mof_H 	H 	0.0681	0.1695	0.6988	0.084
Mof_H 	H 	0.0237	0.1808	0.7389	0.122
Mof_N 	N 	0.90176	0.27532	0.54629	-0.312
Mof_N 	N 	0.897	0.28406	0.46214	-0.552
Mof_C 	C 	0.89141	0.25354	0.50132	0.124
Mof_H 	H 	0.881	0.2191	0.4981	-0.106
Mof_C 	C 	0.91205	0.32986	0.48341	0.137
Mof_C 	C 	0.91442	0.32453	0.53456	-0.045
Mof_H 	H 	0.9233	0.3504	0.5582	-0.001
Mof_C 	C 	0.92253	0.37511	0.45026	-0.444
Mof_H 	H 	0.9522	0.3682	0.4288	0.089
Mof_H 	H 	0.9293	0.4049	0.4716	0.121
Mof_H 	H 	0.8929	0.3818	0.4287	0.088
Mof_N 	N 	0.87234	0.19906	0.5965	-0.322
Mof_N 	N 	0.81462	0.13707	0.60121	-0.574
Mof_C 	C 	0.82525	0.18582	0.60941	0.139
Mof_H 	H 	0.8014	0.2091	0.6233	-0.122
Mof_C 	C 	0.85894	0.11632	0.58142	0.134
Mof_C 	C 	0.89458	0.1547	0.57793	-0.042
Mof_H 	H 	0.9282	0.1514	0.5652	0.003
Mof_C 	C 	0.86471	0.06181	0.56694	-0.447
Mof_H 	H 	0.8681	0.0411	0.5977	0.108
Mof_H 	H 	0.8951	0.0577	0.5458	0.123
Mof_H 	H 	0.8347	0.0508	0.5478	0.081
Mof_N 	N 	0.86922	0.28778	0.63427	-0.309
Mof_N 	N 	0.85439	0.34291	0.69725	-0.563
Mof_C 	C 	0.88585	0.30971	0.67719	0.077
Mof_H 	H 	0.9179	0.3019	0.6919	-0.107
Mof_C 	C 	0.81324	0.34339	0.66457	0.165
Mof_C 	C 	0.82173	0.31092	0.62611	-0.072
Mof_H 	H 	0.7995	0.3047	0.5983	0.005
Mof_C 	C 	0.76907	0.37573	0.67411	-0.467
Mof_H 	H 	0.7449	0.3723	0.646	0.122
Mof_H 	H 	0.78	0.4113	0.6768	0.08
Mof_H 	H 	0.7527	0.3653	0.7059	0.107
Mof_Li	Li	0.10871	0.74464	0.3904	2.746
Mof_B 	B 	0.89802	0.74894	0.40001	0.931
Mof_N 	N 	0.95191	0.75752	0.37818	-0.31
Mof_N 	N 	0.0357	0.75276	0.36627	-0.546
Mof_C 	C 	0.99666	0.73868	0.3953	0.122
Mof_H 	H 	0.9998	0.7178	0.4246	-0.099
Mof_C 	C 	0.01464	0.78211	0.32791	0.142
Mof_C 	C 	0.96369	0.78459	0.33467	-0.047
Mof_H 	H 	0.9402	0.8019	0.3133	0.002
Mof_C 	C 	0.0459	0.80416	0.28699	-0.456
Mof_H 	H 	0.0667	0.7774	0.2715	0.09
Mof_H 	H 	0.0681	0.8305	0.3012	0.084
Mof_H 	H 	0.0237	0.8192	0.2611	0.122
Mof_N 	N 	0.90176	0.72468	0.45371	-0.312
Mof_N 	N 	0.897	0.71594	0.53786	-0.552
Mof_C 	C 	0.89141	0.74646	0.49868	0.124
Mof_H 	H 	0.881	0.7809	0.5019	-0.106
Mof_C 	C 	0.91205	0.67014	0.51659	0.137
Mof_C 	C 	0.91442	0.67547	0.46544	-0.045
Mof_H 	H 	0.9233	0.6496	0.4418	-0.001
Mof_C 	C 	0.92253	0.62489	0.54974	-0.444
Mof_H 	H 	0.9522	0.6318	0.5712	0.089
Mof_H 	H 	0.9293	0.5951	0.5284	0.121
Mof_H 	H 	0.8929	0.6182	0.5713	0.088
Mof_N 	N 	0.87234	0.80094	0.4035	-0.322
Mof_N 	N 	0.81462	0.86293	0.39879	-0.574
Mof_C 	C 	0.82525	0.81418	0.39059	0.139
Mof_H 	H 	0.8014	0.7909	0.3767	-0.122
Mof_C 	C 	0.85894	0.88368	0.41858	0.134
Mof_C 	C 	0.89458	0.8453	0.42207	-0.042
Mof_H 	H 	0.9282	0.8486	0.4348	0.003
Mof_C 	C 	0.86471	0.93819	0.43306	-0.447
Mof_H 	H 	0.8681	0.9589	0.4023	0.108
Mof_H 	H 	0.8951	0.9423	0.4542	0.123
Mof_H 	H 	0.8347	0.9492	0.4522	0.081
Mof_N 	N 	0.86922	0.71222	0.36573	-0.309
Mof_N 	N 	0.85439	0.65709	0.30275	-0.563
Mof_C 	C 	0.88585	0.69029	0.32281	0.077
Mof_H 	H 	0.9179	0.6981	0.3081	-0.107
Mof_C 	C 	0.81324	0.65661	0.33543	0.165
Mof_C 	C 	0.82173	0.68908	0.37389	-0.072
Mof_H 	H 	0.7995	0.6953	0.4017	0.005
Mof_C 	C 	0.76907	0.62427	0.32589	-0.467
Mof_H 	H 	0.7449	0.6277	0.354	0.122
Mof_H 	H 	0.78	0.5887	0.3232	0.08
Mof_H 	H 	0.7527	0.6347	0.2941	0.107
Mof_Li	Li	0.6096	0.89129	0.74464	2.746
Mof_B 	B 	0.59999	0.10198	0.74894	0.931
Mof_N 	N 	0.62182	0.04809	0.75752	-0.31
Mof_N 	N 	0.63373	0.9643	0.75276	-0.546
Mof_C 	C 	0.6047	0.00334	0.73868	0.122
Mof_H 	H 	0.5754	0.0002	0.7178	-0.099
Mof_C 	C 	0.67209	0.98536	0.78211	0.142
Mof_C 	C 	0.66533	0.03631	0.78459	-0.047
Mof_H 	H 	0.6867	0.0598	0.8019	0.002
Mof_C 	C 	0.71301	0.9541	0.80416	-0.456
Mof_H 	H 	0.7285	0.9333	0.7774	0.09
Mof_H 	H 	0.6988	0.9319	0.8305	0.084
Mof_H 	H 	0.7389	0.9763	0.8192	0.122
Mof_N 	N 	0.54629	0.09824	0.72468	-0.312
Mof_N 	N 	0.46214	0.103	0.71594	-0.552
Mof_C 	C 	0.50132	0.10859	0.74646	0.124
Mof_H 	H 	0.4981	0.119	0.7809	-0.106
Mof_C 	C 	0.48341	0.08795	0.67014	0.137
Mof_C 	C 	0.53456	0.08558	0.67547	-0.045
Mof_H 	H 	0.5582	0.0767	0.6496	-0.001
Mof_C 	C 	0.45026	0.07747	0.62489	-0.444
Mof_H 	H 	0.4288	0.0478	0.6318	0.089
Mof_H 	H 	0.4716	0.0707	0.5951	0.121
Mof_H 	H 	0.4287	0.1071	0.6182	0.088
Mof_N 	N 	0.5965	0.12766	0.80094	-0.322
Mof_N 	N 	0.60121	0.18538	0.86293	-0.574
Mof_C 	C 	0.60941	0.17475	0.81418	0.139
Mof_H 	H 	0.6233	0.1986	0.7909	-0.122
Mof_C 	C 	0.58142	0.14106	0.88368	0.134
Mof_C 	C 	0.57793	0.10542	0.8453	-0.042
Mof_H 	H 	0.5652	0.0718	0.8486	0.003
Mof_C 	C 	0.56694	0.13529	0.93819	-0.447
Mof_H 	H 	0.5977	0.1319	0.9589	0.108
Mof_H 	H 	0.5458	0.1049	0.9423	0.123
Mof_H 	H 	0.5478	0.1653	0.9492	0.081
Mof_N 	N 	0.63427	0.13078	0.71222	-0.309
Mof_N 	N 	0.69725	0.14561	0.65709	-0.563
Mof_C 	C 	0.67719	0.11415	0.69029	0.077
Mof_H 	H 	0.6919	0.0821	0.6981	-0.107
Mof_C 	C 	0.66457	0.18676	0.65661	0.165
Mof_C 	C 	0.62611	0.17827	0.68908	-0.072
Mof_H 	H 	0.5983	0.2005	0.6953	0.005
Mof_C 	C 	0.67411	0.23093	0.62427	-0.467
Mof_H 	H 	0.646	0.2551	0.6277	0.122
Mof_H 	H 	0.6768	0.22	0.5887	0.08
Mof_H 	H 	0.7059	0.2473	0.6347	0.107
Mof_Li	Li	0.3904	0.89129	0.25536	2.746
Mof_B 	B 	0.40001	0.10198	0.25106	0.931
Mof_N 	N 	0.37818	0.04809	0.24248	-0.31
Mof_N 	N 	0.36627	0.9643	0.24724	-0.546
Mof_C 	C 	0.3953	0.00334	0.26132	0.122
Mof_H 	H 	0.4246	0.0002	0.2822	-0.099
Mof_C 	C 	0.32791	0.98536	0.21789	0.142
Mof_C 	C 	0.33467	0.03631	0.21541	-0.047
Mof_H 	H 	0.3133	0.0598	0.1981	0.002
Mof_C 	C 	0.28699	0.9541	0.19584	-0.456
Mof_H 	H 	0.2715	0.9333	0.2226	0.09
Mof_H 	H 	0.3012	0.9319	0.1695	0.084
Mof_H 	H 	0.2611	0.9763	0.1808	0.122
Mof_N 	N 	0.45371	0.09824	0.27532	-0.312
Mof_N 	N 	0.53786	0.103	0.28406	-0.552
Mof_C 	C 	0.49868	0.10859	0.25354	0.124
Mof_H 	H 	0.5019	0.119	0.2191	-0.106
Mof_C 	C 	0.51659	0.08795	0.32986	0.137
Mof_C 	C 	0.46544	0.08558	0.32453	-0.045
Mof_H 	H 	0.4418	0.0767	0.3504	-0.001
Mof_C 	C 	0.54974	0.07747	0.37511	-0.444
Mof_H 	H 	0.5712	0.0478	0.3682	0.089
Mof_H 	H 	0.5284	0.0707	0.4049	0.121
Mof_H 	H 	0.5713	0.1071	0.3818	0.088
Mof_N 	N 	0.4035	0.12766	0.19906	-0.322
Mof_N 	N 	0.39879	0.18538	0.13707	-0.574
Mof_C 	C 	0.39059	0.17475	0.18582	0.139
Mof_H 	H 	0.3767	0.1986	0.2091	-0.122
Mof_C 	C 	0.41858	0.14106	0.11632	0.134
Mof_C 	C 	0.42207	0.10542	0.1547	-0.042
Mof_H 	H 	0.4348	0.0718	0.1514	0.003
Mof_C 	C 	0.43306	0.13529	0.06181	-0.447
Mof_H 	H 	0.4023	0.1319	0.0411	0.108
Mof_H 	H 	0.4542	0.1049	0.0577	0.123
Mof_H 	H 	0.4522	0.1653	0.0508	0.081
Mof_N 	N 	0.36573	0.13078	0.28778	-0.309
Mof_N 	N 	0.30275	0.14561	0.34291	-0.563
Mof_C 	C 	0.32281	0.11415	0.30971	0.077
Mof_H 	H 	0.3081	0.0821	0.3019	-0.107
Mof_C 	C 	0.33543	0.18676	0.34339	0.165
Mof_C 	C 	0.37389	0.17827	0.31092	-0.072
Mof_H 	H 	0.4017	0.2005	0.3047	0.005
Mof_C 	C 	0.32589	0.23093	0.37573	-0.467
Mof_H 	H 	0.354	0.2551	0.3723	0.122
Mof_H 	H 	0.3232	0.22	0.4113	0.08
Mof_H 	H 	0.2941	0.2473	0.3653	0.107
Mof_Li	Li	0.6096	0.10871	0.25536	2.746
Mof_B 	B 	0.59999	0.89802	0.25106	0.931
Mof_N 	N 	0.62182	0.95191	0.24248	-0.31
Mof_N 	N 	0.63373	0.0357	0.24724	-0.546
Mof_C 	C 	0.6047	0.99666	0.26132	0.122
Mof_H 	H 	0.5754	0.9998	0.2822	-0.099
Mof_C 	C 	0.67209	0.01464	0.21789	0.142
Mof_C 	C 	0.66533	0.96369	0.21541	-0.047
Mof_H 	H 	0.6867	0.9402	0.1981	0.002
Mof_C 	C 	0.71301	0.0459	0.19584	-0.456
Mof_H 	H 	0.7285	0.0667	0.2226	0.09
Mof_H 	H 	0.6988	0.0681	0.1695	0.084
Mof_H 	H 	0.7389	0.0237	0.1808	0.122
Mof_N 	N 	0.54629	0.90176	0.27532	-0.312
Mof_N 	N 	0.46214	0.897	0.28406	-0.552
Mof_C 	C 	0.50132	0.89141	0.25354	0.124
Mof_H 	H 	0.4981	0.881	0.2191	-0.106
Mof_C 	C 	0.48341	0.91205	0.32986	0.137
Mof_C 	C 	0.53456	0.91442	0.32453	-0.045
Mof_H 	H 	0.5582	0.9233	0.3504	-0.001
Mof_C 	C 	0.45026	0.92253	0.37511	-0.444
Mof_H 	H 	0.4288	0.9522	0.3682	0.089
Mof_H 	H 	0.4716	0.9293	0.4049	0.121
Mof_H 	H 	0.4287	0.8929	0.3818	0.088
Mof_N 	N 	0.5965	0.87234	0.19906	-0.322
Mof_N 	N 	0.60121	0.81462	0.13707	-0.574
Mof_C 	C 	0.60941	0.82525	0.18582	0.139
Mof_H 	H 	0.6233	0.8014	0.2091	-0.122
Mof_C 	C 	0.58142	0.85894	0.11632	0.134
Mof_C 	C 	0.57793	0.89458	0.1547	-0.042
Mof_H 	H 	0.5652	0.9282	0.1514	0.003
Mof_C 	C 	0.56694	0.86471	0.06181	-0.447
Mof_H 	H 	0.5977	0.8681	0.0411	0.108
Mof_H 	H 	0.5458	0.8951	0.0577	0.123
Mof_H 	H 	0.5478	0.8347	0.0508	0.081
Mof_N 	N 	0.63427	0.86922	0.28778	-0.309
Mof_N 	N 	0.69725	0.85439	0.34291	-0.563
Mof_C 	C 	0.67719	0.88585	0.30971	0.077
Mof_H 	H 	0.6919	0.9179	0.3019	-0.107
Mof_C 	C 	0.66457	0.81324	0.34339	0.165
Mof_C 	C 	0.62611	0.82173	0.31092	-0.072
Mof_H 	H 	0.5983	0.7995	0.3047	0.005
Mof_C 	C 	0.67411	0.76907	0.37573	-0.467
Mof_H 	H 	0.646	0.7449	0.3723	0.122
Mof_H 	H 	0.6768	0.78	0.4113	0.08
Mof_H 	H 	0.7059	0.7527	0.3653	0.107
Mof_Li	Li	0.3904	0.10871	0.74464	2.746
Mof_B 	B 	0.40001	0.89802	0.74894	0.931
Mof_N 	N 	0.37818	0.95191	0.75752	-0.31
Mof_N 	N 	0.36627	0.0357	0.75276	-0.546
Mof_C 	C 	0.3953	0.99666	0.73868	0.122
Mof_H 	H 	0.4246	0.9998	0.7178	-0.099
Mof_C 	C 	0.32791	0.01464	0.78211	0.142
Mof_C 	C 	0.33467	0.96369	0.78459	-0.047
Mof_H 	H 	0.3133	0.9402	0.8019	0.002
Mof_C 	C 	0.28699	0.0459	0.80416	-0.456
Mof_H 	H 	0.2715	0.0667	0.7774	0.09
Mof_H 	H 	0.3012	0.0681	0.8305	0.084
Mof_H 	H 	0.2611	0.0237	0.8192	0.122
Mof_N 	N 	0.45371	0.90176	0.72468	-0.312
Mof_N 	N 	0.53786	0.897	0.71594	-0.552
Mof_C 	C 	0.49868	0.89141	0.74646	0.124
Mof_H 	H 	0.5019	0.881	0.7809	-0.106
Mof_C 	C 	0.51659	0.91205	0.67014	0.137
Mof_C 	C 	0.46544	0.91442	0.67547	-0.045
Mof_H 	H 	0.4418	0.9233	0.6496	-0.001
Mof_C 	C 	0.54974	0.92253	0.62489	-0.444
Mof_H 	H 	0.5712	0.9522	0.6318	0.089
Mof_H 	H 	0.5284	0.9293	0.5951	0.121
Mof_H 	H 	0.5713	0.8929	0.6182	0.088
Mof_N 	N 	0.4035	0.87234	0.80094	-0.322
Mof_N 	N 	0.39879	0.81462	0.86293	-0.574
Mof_C 	C 	0.39059	0.82525	0.81418	0.139
Mof_H 	H 	0.3767	0.8014	0.7909	-0.122
Mof_C 	C 	0.41858	0.85894	0.88368	0.134
Mof_C 	C 	0.42207	0.89458	0.8453	-0.042
Mof_H 	H 	0.4348	0.9282	0.8486	0.003
Mof_C 	C 	0.43306	0.86471	0.93819	-0.447
Mof_H 	H 	0.4023	0.8681	0.9589	0.108
Mof_H 	H 	0.4542	0.8951	0.9423	0.123
Mof_H 	H 	0.4522	0.8347	0.9492	0.081
Mof_N 	N 	0.36573	0.86922	0.71222	-0.309
Mof_N 	N 	0.30275	0.85439	0.65709	-0.563
Mof_C 	C 	0.32281	0.88585	0.69029	0.077
Mof_H 	H 	0.3081	0.9179	0.6981	-0.107
Mof_C 	C 	0.33543	0.81324	0.65661	0.165
Mof_C 	C 	0.37389	0.82173	0.68908	-0.072
Mof_H 	H 	0.4017	0.7995	0.6953	0.005
Mof_C 	C 	0.32589	0.76907	0.62427	-0.467
Mof_H 	H 	0.354	0.7449	0.6277	0.122
Mof_H 	H 	0.3232	0.78	0.5887	0.08
Mof_H 	H 	0.2941	0.7527	0.6347	0.107
Mof_Li	Li	0.6096	0.74464	0.10871	2.746
Mof_B 	B 	0.59999	0.74894	0.89802	0.931
Mof_N 	N 	0.62182	0.75752	0.95191	-0.31
Mof_N 	N 	0.63373	0.75276	0.0357	-0.546
Mof_C 	C 	0.6047	0.73868	0.99666	0.122
Mof_H 	H 	0.5754	0.7178	0.9998	-0.099
Mof_C 	C 	0.67209	0.78211	0.01464	0.142
Mof_C 	C 	0.66533	0.78459	0.96369	-0.047
Mof_H 	H 	0.6867	0.8019	0.9402	0.002
Mof_C 	C 	0.71301	0.80416	0.0459	-0.456
Mof_H 	H 	0.7285	0.7774	0.0667	0.09
Mof_H 	H 	0.6988	0.8305	0.0681	0.084
Mof_H 	H 	0.7389	0.8192	0.0237	0.122
Mof_N 	N 	0.54629	0.72468	0.90176	-0.312
Mof_N 	N 	0.46214	0.71594	0.897	-0.552
Mof_C 	C 	0.50132	0.74646	0.89141	0.124
Mof_H 	H 	0.4981	0.7809	0.881	-0.106
Mof_C 	C 	0.48341	0.67014	0.91205	0.137
Mof_C 	C 	0.53456	0.67547	0.91442	-0.045
Mof_H 	H 	0.5582	0.6496	0.9233	-0.001
Mof_C 	C 	0.45026	0.62489	0.92253	-0.444
Mof_H 	H 	0.4288	0.6318	0.9522	0.089
Mof_H 	H 	0.4716	0.5951	0.9293	0.121
Mof_H 	H 	0.4287	0.6182	0.8929	0.088
Mof_N 	N 	0.5965	0.80094	0.87234	-0.322
Mof_N 	N 	0.60121	0.86293	0.81462	-0.574
Mof_C 	C 	0.60941	0.81418	0.82525	0.139
Mof_H 	H 	0.6233	0.7909	0.8014	-0.122
Mof_C 	C 	0.58142	0.88368	0.85894	0.134
Mof_C 	C 	0.57793	0.8453	0.89458	-0.042
Mof_H 	H 	0.5652	0.8486	0.9282	0.003
Mof_C 	C 	0.56694	0.93819	0.86471	-0.447
Mof_H 	H 	0.5977	0.9589	0.8681	0.108
Mof_H 	H 	0.5458	0.9423	0.8951	0.123
Mof_H 	H 	0.5478	0.9492	0.8347	0.081
Mof_N 	N 	0.63427	0.71222	0.86922	-0.309
Mof_N 	N 	0.69725	0.65709	0.85439	-0.563
Mof_C 	C 	0.67719	0.69029	0.88585	0.077
Mof_H 	H 	0.6919	0.6981	0.9179	-0.107
Mof_C 	C 	0.66457	0.65661	0.81324	0.165
Mof_C 	C 	0.62611	0.68908	0.82173	-0.072
Mof_H 	H 	0.5983	0.6953	0.7995	0.005
Mof_C 	C 	0.67411	0.62427	0.76907	-0.467
Mof_H 	H 	0.646	0.6277	0.7449	0.122
Mof_H 	H 	0.6768	0.5887	0.78	0.08
Mof_H 	H 	0.7059	0.6347	0.7527	0.107
Mof_Li	Li	0.3904	0.25536	0.10871	2.746
Mof_B 	B 	0.40001	0.25106	0.89802	0.931
Mof_N 	N 	0.37818	0.24248	0.95191	-0.31
Mof_N 	N 	0.36627	0.24724	0.0357	-0.546
Mof_C 	C 	0.3953	0.26132	0.99666	0.122
Mof_H 	H 	0.4246	0.2822	0.9998	-0.099
Mof_C 	C 	0.32791	0.21789	0.01464	0.142
Mof_C 	C 	0.33467	0.21541	0.96369	-0.047
Mof_H 	H 	0.3133	0.1981	0.9402	0.002
Mof_C 	C 	0.28699	0.19584	0.0459	-0.456
Mof_H 	H 	0.2715	0.2226	0.0667	0.09
Mof_H 	H 	0.3012	0.1695	0.0681	0.084
Mof_H 	H 	0.2611	0.1808	0.0237	0.122
Mof_N 	N 	0.45371	0.27532	0.90176	-0.312
Mof_N 	N 	0.53786	0.28406	0.897	-0.552
Mof_C 	C 	0.49868	0.25354	0.89141	0.124
Mof_H 	H 	0.5019	0.2191	0.881	-0.106
Mof_C 	C 	0.51659	0.32986	0.91205	0.137
Mof_C 	C 	0.46544	0.32453	0.91442	-0.045
Mof_H 	H 	0.4418	0.3504	0.9233	-0.001
Mof_C 	C 	0.54974	0.37511	0.92253	-0.444
Mof_H 	H 	0.5712	0.3682	0.9522	0.089
Mof_H 	H 	0.5284	0.4049	0.9293	0.121
Mof_H 	H 	0.5713	0.3818	0.8929	0.088
Mof_N 	N 	0.4035	0.19906	0.87234	-0.322
Mof_N 	N 	0.39879	0.13707	0.81462	-0.574
Mof_C 	C 	0.39059	0.18582	0.82525	0.139
Mof_H 	H 	0.3767	0.2091	0.8014	-0.122
Mof_C 	C 	0.41858	0.11632	0.85894	0.134
Mof_C 	C 	0.42207	0.1547	0.89458	-0.042
Mof_H 	H 	0.4348	0.1514	0.9282	0.003
Mof_C 	C 	0.43306	0.06181	0.86471	-0.447
Mof_H 	H 	0.4023	0.0411	0.8681	0.108
Mof_H 	H 	0.4542	0.0577	0.8951	0.123
Mof_H 	H 	0.4522	0.0508	0.8347	0.081
Mof_N 	N 	0.36573	0.28778	0.86922	-0.309
Mof_N 	N 	0.30275	0.34291	0.85439	-0.563
Mof_C 	C 	0.32281	0.30971	0.88585	0.077
Mof_H 	H 	0.3081	0.3019	0.9179	-0.107
Mof_C 	C 	0.33543	0.34339	0.81324	0.165
Mof_C 	C 	0.37389	0.31092	0.82173	-0.072
Mof_H 	H 	0.4017	0.3047	0.7995	0.005
Mof_C 	C 	0.32589	0.37573	0.76907	-0.467
Mof_H 	H 	0.354	0.3723	0.7449	0.122
Mof_H 	H 	0.3232	0.4113	0.78	0.08
Mof_H 	H 	0.2941	0.3653	0.7527	0.107
Mof_Li	Li	0.6096	0.25536	0.89129	2.746
Mof_B 	B 	0.59999	0.25106	0.10198	0.931
Mof_N 	N 	0.62182	0.24248	0.04809	-0.31
Mof_N 	N 	0.63373	0.24724	0.9643	-0.546
Mof_C 	C 	0.6047	0.26132	0.00334	0.122
Mof_H 	H 	0.5754	0.2822	0.0002	-0.099
Mof_C 	C 	0.67209	0.21789	0.98536	0.142
Mof_C 	C 	0.66533	0.21541	0.03631	-0.047
Mof_H 	H 	0.6867	0.1981	0.0598	0.002
Mof_C 	C 	0.71301	0.19584	0.9541	-0.456
Mof_H 	H 	0.7285	0.2226	0.9333	0.09
Mof_H 	H 	0.6988	0.1695	0.9319	0.084
Mof_H 	H 	0.7389	0.1808	0.9763	0.122
Mof_N 	N 	0.54629	0.27532	0.09824	-0.312
Mof_N 	N 	0.46214	0.28406	0.103	-0.552
Mof_C 	C 	0.50132	0.25354	0.10859	0.124
Mof_H 	H 	0.4981	0.2191	0.119	-0.106
Mof_C 	C 	0.48341	0.32986	0.08795	0.137
Mof_C 	C 	0.53456	0.32453	0.08558	-0.045
Mof_H 	H 	0.5582	0.3504	0.0767	-0.001
Mof_C 	C 	0.45026	0.37511	0.07747	-0.444
Mof_H 	H 	0.4288	0.3682	0.0478	0.089
Mof_H 	H 	0.4716	0.4049	0.0707	0.121
Mof_H 	H 	0.4287	0.3818	0.1071	0.088
Mof_N 	N 	0.5965	0.19906	0.12766	-0.322
Mof_N 	N 	0.60121	0.13707	0.18538	-0.574
Mof_C 	C 	0.60941	0.18582	0.17475	0.139
Mof_H 	H 	0.6233	0.2091	0.1986	-0.122
Mof_C 	C 	0.58142	0.11632	0.14106	0.134
Mof_C 	C 	0.57793	0.1547	0.10542	-0.042
Mof_H 	H 	0.5652	0.1514	0.0718	0.003
Mof_C 	C 	0.56694	0.06181	0.13529	-0.447
Mof_H 	H 	0.5977	0.0411	0.1319	0.108
Mof_H 	H 	0.5458	0.0577	0.1049	0.123
Mof_H 	H 	0.5478	0.0508	0.1653	0.081
Mof_N 	N 	0.63427	0.28778	0.13078	-0.309
Mof_N 	N 	0.69725	0.34291	0.14561	-0.563
Mof_C 	C 	0.67719	0.30971	0.11415	0.077
Mof_H 	H 	0.6919	0.3019	0.0821	-0.107
Mof_C 	C 	0.66457	0.34339	0.18676	0.165
Mof_C 	C 	0.62611	0.31092	0.17827	-0.072
Mof_H 	H 	0.5983	0.3047	0.2005	0.005
Mof_C 	C 	0.67411	0.37573	0.23093	-0.467
Mof_H 	H 	0.646	0.3723	0.2551	0.122
Mof_H 	H 	0.6768	0.4113	0.22	0.08
Mof_H 	H 	0.7059	0.3653	0.2473	0.107
Mof_Li	Li	0.3904	0.74464	0.89129	2.746
Mof_B 	B 	0.40001	0.74894	0.10198	0.931
Mof_N 	N 	0.37818	0.75752	0.04809	-0.31
Mof_N 	N 	0.36627	0.75276	0.9643	-0.546
Mof_C 	C 	0.3953	0.73868	0.00334	0.122
Mof_H 	H 	0.4246	0.7178	0.0002	-0.099
Mof_C 	C 	0.32791	0.78211	0.98536	0.142
Mof_C 	C 	0.33467	0.78459	0.03631	-0.047
Mof_H 	H 	0.3133	0.8019	0.0598	0.002
Mof_C 	C 	0.28699	0.80416	0.9541	-0.456
Mof_H 	H 	0.2715	0.7774	0.9333	0.09
Mof_H 	H 	0.3012	0.8305	0.9319	0.084
Mof_H 	H 	0.2611	0.8192	0.9763	0.122
Mof_N 	N 	0.45371	0.72468	0.09824	-0.312
Mof_N 	N 	0.53786	0.71594	0.103	-0.552
Mof_C 	C 	0.49868	0.74646	0.10859	0.124
Mof_H 	H 	0.5019	0.7809	0.119	-0.106
Mof_C 	C 	0.51659	0.67014	0.08795	0.137
Mof_C 	C 	0.46544	0.67547	0.08558	-0.045
Mof_H 	H 	0.4418	0.6496	0.0767	-0.001
Mof_C 	C 	0.54974	0.62489	0.07747	-0.444
Mof_H 	H 	0.5712	0.6318	0.0478	0.089
Mof_H 	H 	0.5284	0.5951	0.0707	0.121
Mof_H 	H 	0.5713	0.6182	0.1071	0.088
Mof_N 	N 	0.4035	0.80094	0.12766	-0.322
Mof_N 	N 	0.39879	0.86293	0.18538	-0.574
Mof_C 	C 	0.39059	0.81418	0.17475	0.139
Mof_H 	H 	0.3767	0.7909	0.1986	-0.122
Mof_C 	C 	0.41858	0.88368	0.14106	0.134
Mof_C 	C 	0.42207	0.8453	0.10542	-0.042
Mof_H 	H 	0.4348	0.8486	0.0718	0.003
Mof_C 	C 	0.43306	0.93819	0.13529	-0.447
Mof_H 	H 	0.4023	0.9589	0.1319	0.108
Mof_H 	H 	0.4542	0.9423	0.1049	0.123
Mof_H 	H 	0.4522	0.9492	0.1653	0.081
Mof_N 	N 	0.36573	0.71222	0.13078	-0.309
Mof_N 	N 	0.30275	0.65709	0.14561	-0.563
Mof_C 	C 	0.32281	0.69029	0.11415	0.077
Mof_H 	H 	0.3081	0.6981	0.0821	-0.107
Mof_C 	C 	0.33543	0.65661	0.18676	0.165
Mof_C 	C 	0.37389	0.68908	0.17827	-0.072
Mof_H 	H 	0.4017	0.6953	0.2005	0.005
Mof_C 	C 	0.32589	0.62427	0.23093	-0.467
Mof_H 	H 	0.354	0.6277	0.2551	0.122
Mof_H 	H 	0.3232	0.5887	0.22	0.08
Mof_H 	H 	0.2941	0.6347	0.2473	0.107
Mof_Li	Li	0.74464	0.89129	0.3904	2.746
Mof_B 	B 	0.74894	0.10198	0.40001	0.931
Mof_N 	N 	0.75752	0.04809	0.37818	-0.31
Mof_N 	N 	0.75276	0.9643	0.36627	-0.546
Mof_C 	C 	0.73868	0.00334	0.3953	0.122
Mof_H 	H 	0.7178	0.0002	0.4246	-0.099
Mof_C 	C 	0.78211	0.98536	0.32791	0.142
Mof_C 	C 	0.78459	0.03631	0.33467	-0.047
Mof_H 	H 	0.8019	0.0598	0.3133	0.002
Mof_C 	C 	0.80416	0.9541	0.28699	-0.456
Mof_H 	H 	0.7774	0.9333	0.2715	0.09
Mof_H 	H 	0.8305	0.9319	0.3012	0.084
Mof_H 	H 	0.8192	0.9763	0.2611	0.122
Mof_N 	N 	0.72468	0.09824	0.45371	-0.312
Mof_N 	N 	0.71594	0.103	0.53786	-0.552
Mof_C 	C 	0.74646	0.10859	0.49868	0.124
Mof_H 	H 	0.7809	0.119	0.5019	-0.106
Mof_C 	C 	0.67014	0.08795	0.51659	0.137
Mof_C 	C 	0.67547	0.08558	0.46544	-0.045
Mof_H 	H 	0.6496	0.0767	0.4418	-0.001
Mof_C 	C 	0.62489	0.07747	0.54974	-0.444
Mof_H 	H 	0.6318	0.0478	0.5712	0.089
Mof_H 	H 	0.5951	0.0707	0.5284	0.121
Mof_H 	H 	0.6182	0.1071	0.5713	0.088
Mof_N 	N 	0.80094	0.12766	0.4035	-0.322
Mof_N 	N 	0.86293	0.18538	0.39879	-0.574
Mof_C 	C 	0.81418	0.17475	0.39059	0.139
Mof_H 	H 	0.7909	0.1986	0.3767	-0.122
Mof_C 	C 	0.88368	0.14106	0.41858	0.134
Mof_C 	C 	0.8453	0.10542	0.42207	-0.042
Mof_H 	H 	0.8486	0.0718	0.4348	0.003
Mof_C 	C 	0.93819	0.13529	0.43306	-0.447
Mof_H 	H 	0.9589	0.1319	0.4023	0.108
Mof_H 	H 	0.9423	0.1049	0.4542	0.123
Mof_H 	H 	0.9492	0.1653	0.4522	0.081
Mof_N 	N 	0.71222	0.13078	0.36573	-0.309
Mof_N 	N 	0.65709	0.14561	0.30275	-0.563
Mof_C 	C 	0.69029	0.11415	0.32281	0.077
Mof_H 	H 	0.6981	0.0821	0.3081	-0.107
Mof_C 	C 	0.65661	0.18676	0.33543	0.165
Mof_C 	C 	0.68908	0.17827	0.37389	-0.072
Mof_H 	H 	0.6953	0.2005	0.4017	0.005
Mof_C 	C 	0.62427	0.23093	0.32589	-0.467
Mof_H 	H 	0.6277	0.2551	0.354	0.122
Mof_H 	H 	0.5887	0.22	0.3232	0.08
Mof_H 	H 	0.6347	0.2473	0.2941	0.107
Mof_Li	Li	0.25536	0.89129	0.6096	2.746
Mof_B 	B 	0.25106	0.10198	0.59999	0.931
Mof_N 	N 	0.24248	0.04809	0.62182	-0.31
Mof_N 	N 	0.24724	0.9643	0.63373	-0.546
Mof_C 	C 	0.26132	0.00334	0.6047	0.122
Mof_H 	H 	0.2822	0.0002	0.5754	-0.099
Mof_C 	C 	0.21789	0.98536	0.67209	0.142
Mof_C 	C 	0.21541	0.03631	0.66533	-0.047
Mof_H 	H 	0.1981	0.0598	0.6867	0.002
Mof_C 	C 	0.19584	0.9541	0.71301	-0.456
Mof_H 	H 	0.2226	0.9333	0.7285	0.09
Mof_H 	H 	0.1695	0.9319	0.6988	0.084
Mof_H 	H 	0.1808	0.9763	0.7389	0.122
Mof_N 	N 	0.27532	0.09824	0.54629	-0.312
Mof_N 	N 	0.28406	0.103	0.46214	-0.552
Mof_C 	C 	0.25354	0.10859	0.50132	0.124
Mof_H 	H 	0.2191	0.119	0.4981	-0.106
Mof_C 	C 	0.32986	0.08795	0.48341	0.137
Mof_C 	C 	0.32453	0.08558	0.53456	-0.045
Mof_H 	H 	0.3504	0.0767	0.5582	-0.001
Mof_C 	C 	0.37511	0.07747	0.45026	-0.444
Mof_H 	H 	0.3682	0.0478	0.4288	0.089
Mof_H 	H 	0.4049	0.0707	0.4716	0.121
Mof_H 	H 	0.3818	0.1071	0.4287	0.088
Mof_N 	N 	0.19906	0.12766	0.5965	-0.322
Mof_N 	N 	0.13707	0.18538	0.60121	-0.574
Mof_C 	C 	0.18582	0.17475	0.60941	0.139
Mof_H 	H 	0.2091	0.1986	0.6233	-0.122
Mof_C 	C 	0.11632	0.14106	0.58142	0.134
Mof_C 	C 	0.1547	0.10542	0.57793	-0.042
Mof_H 	H 	0.1514	0.0718	0.5652	0.003
Mof_C 	C 	0.06181	0.13529	0.56694	-0.447
Mof_H 	H 	0.0411	0.1319	0.5977	0.108
Mof_H 	H 	0.0577	0.1049	0.5458	0.123
Mof_H 	H 	0.0508	0.1653	0.5478	0.081
Mof_N 	N 	0.28778	0.13078	0.63427	-0.309
Mof_N 	N 	0.34291	0.14561	0.69725	-0.563
Mof_C 	C 	0.30971	0.11415	0.67719	0.077
Mof_H 	H 	0.3019	0.0821	0.6919	-0.107
Mof_C 	C 	0.34339	0.18676	0.66457	0.165
Mof_C 	C 	0.31092	0.17827	0.62611	-0.072
Mof_H 	H 	0.3047	0.2005	0.5983	0.005
Mof_C 	C 	0.37573	0.23093	0.67411	-0.467
Mof_H 	H 	0.3723	0.2551	0.646	0.122
Mof_H 	H 	0.4113	0.22	0.6768	0.08
Mof_H 	H 	0.3653	0.2473	0.7059	0.107
Mof_Li	Li	0.25536	0.10871	0.3904	2.746
Mof_B 	B 	0.25106	0.89802	0.40001	0.931
Mof_N 	N 	0.24248	0.95191	0.37818	-0.31
Mof_N 	N 	0.24724	0.0357	0.36627	-0.546
Mof_C 	C 	0.26132	0.99666	0.3953	0.122
Mof_H 	H 	0.2822	0.9998	0.4246	-0.099
Mof_C 	C 	0.21789	0.01464	0.32791	0.142
Mof_C 	C 	0.21541	0.96369	0.33467	-0.047
Mof_H 	H 	0.1981	0.9402	0.3133	0.002
Mof_C 	C 	0.19584	0.0459	0.28699	-0.456
Mof_H 	H 	0.2226	0.0667	0.2715	0.09
Mof_H 	H 	0.1695	0.0681	0.3012	0.084
Mof_H 	H 	0.1808	0.0237	0.2611	0.122
Mof_N 	N 	0.27532	0.90176	0.45371	-0.312
Mof_N 	N 	0.28406	0.897	0.53786	-0.552
Mof_C 	C 	0.25354	0.89141	0.49868	0.124
Mof_H 	H 	0.2191	0.881	0.5019	-0.106
Mof_C 	C 	0.32986	0.91205	0.51659	0.137
Mof_C 	C 	0.32453	0.91442	0.46544	-0.045
Mof_H 	H 	0.3504	0.9233	0.4418	-0.001
Mof_C 	C 	0.37511	0.92253	0.54974	-0.444
Mof_H 	H 	0.3682	0.9522	0.5712	0.089
Mof_H 	H 	0.4049	0.9293	0.5284	0.121
Mof_H 	H 	0.3818	0.8929	0.5713	0.088
Mof_N 	N 	0.19906	0.87234	0.4035	-0.322
Mof_N 	N 	0.13707	0.81462	0.39879	-0.574
Mof_C 	C 	0.18582	0.82525	0.39059	0.139
Mof_H 	H 	0.2091	0.8014	0.3767	-0.122
Mof_C 	C 	0.11632	0.85894	0.41858	0.134
Mof_C 	C 	0.1547	0.89458	0.42207	-0.042
Mof_H 	H 	0.1514	0.9282	0.4348	0.003
Mof_C 	C 	0.06181	0.86471	0.43306	-0.447
Mof_H 	H 	0.0411	0.8681	0.4023	0.108
Mof_H 	H 	0.0577	0.8951	0.4542	0.123
Mof_H 	H 	0.0508	0.8347	0.4522	0.081
Mof_N 	N 	0.28778	0.86922	0.36573	-0.309
Mof_N 	N 	0.34291	0.85439	0.30275	-0.563
Mof_C 	C 	0.30971	0.88585	0.32281	0.077
Mof_H 	H 	0.3019	0.9179	0.3081	-0.107
Mof_C 	C 	0.34339	0.81324	0.33543	0.165
Mof_C 	C 	0.31092	0.82173	0.37389	-0.072
Mof_H 	H 	0.3047	0.7995	0.4017	0.005
Mof_C 	C 	0.37573	0.76907	0.32589	-0.467
Mof_H 	H 	0.3723	0.7449	0.354	0.122
Mof_H 	H 	0.4113	0.78	0.3232	0.08
Mof_H 	H 	0.3653	0.7527	0.2941	0.107
Mof_Li	Li	0.74464	0.10871	0.6096	2.746
Mof_B 	B 	0.74894	0.89802	0.59999	0.931
Mof_N 	N 	0.75752	0.95191	0.62182	-0.31
Mof_N 	N 	0.75276	0.0357	0.63373	-0.546
Mof_C 	C 	0.73868	0.99666	0.6047	0.122
Mof_H 	H 	0.7178	0.9998	0.5754	-0.099
Mof_C 	C 	0.78211	0.01464	0.67209	0.142
Mof_C 	C 	0.78459	0.96369	0.66533	-0.047
Mof_H 	H 	0.8019	0.9402	0.6867	0.002
Mof_C 	C 	0.80416	0.0459	0.71301	-0.456
Mof_H 	H 	0.7774	0.0667	0.7285	0.09
Mof_H 	H 	0.8305	0.0681	0.6988	0.084
Mof_H 	H 	0.8192	0.0237	0.7389	0.122
Mof_N 	N 	0.72468	0.90176	0.54629	-0.312
Mof_N 	N 	0.71594	0.897	0.46214	-0.552
Mof_C 	C 	0.74646	0.89141	0.50132	0.124
Mof_H 	H 	0.7809	0.881	0.4981	-0.106
Mof_C 	C 	0.67014	0.91205	0.48341	0.137
Mof_C 	C 	0.67547	0.91442	0.53456	-0.045
Mof_H 	H 	0.6496	0.9233	0.5582	-0.001
Mof_C 	C 	0.62489	0.92253	0.45026	-0.444
Mof_H 	H 	0.6318	0.9522	0.4288	0.089
Mof_H 	H 	0.5951	0.9293	0.4716	0.121
Mof_H 	H 	0.6182	0.8929	0.4287	0.088
Mof_N 	N 	0.80094	0.87234	0.5965	-0.322
Mof_N 	N 	0.86293	0.81462	0.60121	-0.574
Mof_C 	C 	0.81418	0.82525	0.60941	0.139
Mof_H 	H 	0.7909	0.8014	0.6233	-0.122
Mof_C 	C 	0.88368	0.85894	0.58142	0.134
Mof_C 	C 	0.8453	0.89458	0.57793	-0.042
Mof_H 	H 	0.8486	0.9282	0.5652	0.003
Mof_C 	C 	0.93819	0.86471	0.56694	-0.447
Mof_H 	H 	0.9589	0.8681	0.5977	0.108
Mof_H 	H 	0.9423	0.8951	0.5458	0.123
Mof_H 	H 	0.9492	0.8347	0.5478	0.081
Mof_N 	N 	0.71222	0.86922	0.63427	-0.309
Mof_N 	N 	0.65709	0.85439	0.69725	-0.563
Mof_C 	C 	0.69029	0.88585	0.67719	0.077
Mof_H 	H 	0.6981	0.9179	0.6919	-0.107
Mof_C 	C 	0.65661	0.81324	0.66457	0.165
Mof_C 	C 	0.68908	0.82173	0.62611	-0.072
Mof_H 	H 	0.6953	0.7995	0.5983	0.005
Mof_C 	C 	0.62427	0.76907	0.67411	-0.467
Mof_H 	H 	0.6277	0.7449	0.646	0.122
Mof_H 	H 	0.5887	0.78	0.6768	0.08
Mof_H 	H 	0.6347	0.7527	0.7059	0.107
Mof_Li	Li	0.89129	0.6096	0.25536	2.746
Mof_B 	B 	0.10198	0.59999	0.25106	0.931
Mof_N 	N 	0.04809	0.62182	0.24248	-0.31
Mof_N 	N 	0.9643	0.63373	0.24724	-0.546
Mof_C 	C 	0.00334	0.6047	0.26132	0.122
Mof_H 	H 	0.0002	0.5754	0.2822	-0.099
Mof_C 	C 	0.98536	0.67209	0.21789	0.142
Mof_C 	C 	0.03631	0.66533	0.21541	-0.047
Mof_H 	H 	0.0598	0.6867	0.1981	0.002
Mof_C 	C 	0.9541	0.71301	0.19584	-0.456
Mof_H 	H 	0.9333	0.7285	0.2226	0.09
Mof_H 	H 	0.9319	0.6988	0.1695	0.084
Mof_H 	H 	0.9763	0.7389	0.1808	0.122
Mof_N 	N 	0.09824	0.54629	0.27532	-0.312
Mof_N 	N 	0.103	0.46214	0.28406	-0.552
Mof_C 	C 	0.10859	0.50132	0.25354	0.124
Mof_H 	H 	0.119	0.4981	0.2191	-0.106
Mof_C 	C 	0.08795	0.48341	0.32986	0.137
Mof_C 	C 	0.08558	0.53456	0.32453	-0.045
Mof_H 	H 	0.0767	0.5582	0.3504	-0.001
Mof_C 	C 	0.07747	0.45026	0.37511	-0.444
Mof_H 	H 	0.0478	0.4288	0.3682	0.089
Mof_H 	H 	0.0707	0.4716	0.4049	0.121
Mof_H 	H 	0.1071	0.4287	0.3818	0.088
Mof_N 	N 	0.12766	0.5965	0.19906	-0.322
Mof_N 	N 	0.18538	0.60121	0.13707	-0.574
Mof_C 	C 	0.17475	0.60941	0.18582	0.139
Mof_H 	H 	0.1986	0.6233	0.2091	-0.122
Mof_C 	C 	0.14106	0.58142	0.11632	0.134
Mof_C 	C 	0.10542	0.57793	0.1547	-0.042
Mof_H 	H 	0.0718	0.5652	0.1514	0.003
Mof_C 	C 	0.13529	0.56694	0.06181	-0.447
Mof_H 	H 	0.1319	0.5977	0.0411	0.108
Mof_H 	H 	0.1049	0.5458	0.0577	0.123
Mof_H 	H 	0.1653	0.5478	0.0508	0.081
Mof_N 	N 	0.13078	0.63427	0.28778	-0.309
Mof_N 	N 	0.14561	0.69725	0.34291	-0.563
Mof_C 	C 	0.11415	0.67719	0.30971	0.077
Mof_H 	H 	0.0821	0.6919	0.3019	-0.107
Mof_C 	C 	0.18676	0.66457	0.34339	0.165
Mof_C 	C 	0.17827	0.62611	0.31092	-0.072
Mof_H 	H 	0.2005	0.5983	0.3047	0.005
Mof_C 	C 	0.23093	0.67411	0.37573	-0.467
Mof_H 	H 	0.2551	0.646	0.3723	0.122
Mof_H 	H 	0.22	0.6768	0.4113	0.08
Mof_H 	H 	0.2473	0.7059	0.3653	0.107
Mof_Li	Li	0.89129	0.3904	0.74464	2.746
Mof_B 	B 	0.10198	0.40001	0.74894	0.931
Mof_N 	N 	0.04809	0.37818	0.75752	-0.31
Mof_N 	N 	0.9643	0.36627	0.75276	-0.546
Mof_C 	C 	0.00334	0.3953	0.73868	0.122
Mof_H 	H 	0.0002	0.4246	0.7178	-0.099
Mof_C 	C 	0.98536	0.32791	0.78211	0.142
Mof_C 	C 	0.03631	0.33467	0.78459	-0.047
Mof_H 	H 	0.0598	0.3133	0.8019	0.002
Mof_C 	C 	0.9541	0.28699	0.80416	-0.456
Mof_H 	H 	0.9333	0.2715	0.7774	0.09
Mof_H 	H 	0.9319	0.3012	0.8305	0.084
Mof_H 	H 	0.9763	0.2611	0.8192	0.122
Mof_N 	N 	0.09824	0.45371	0.72468	-0.312
Mof_N 	N 	0.103	0.53786	0.71594	-0.552
Mof_C 	C 	0.10859	0.49868	0.74646	0.124
Mof_H 	H 	0.119	0.5019	0.7809	-0.106
Mof_C 	C 	0.08795	0.51659	0.67014	0.137
Mof_C 	C 	0.08558	0.46544	0.67547	-0.045
Mof_H 	H 	0.0767	0.4418	0.6496	-0.001
Mof_C 	C 	0.07747	0.54974	0.62489	-0.444
Mof_H 	H 	0.0478	0.5712	0.6318	0.089
Mof_H 	H 	0.0707	0.5284	0.5951	0.121
Mof_H 	H 	0.1071	0.5713	0.6182	0.088
Mof_N 	N 	0.12766	0.4035	0.80094	-0.322
Mof_N 	N 	0.18538	0.39879	0.86293	-0.574
Mof_C 	C 	0.17475	0.39059	0.81418	0.139
Mof_H 	H 	0.1986	0.3767	0.7909	-0.122
Mof_C 	C 	0.14106	0.41858	0.88368	0.134
Mof_C 	C 	0.10542	0.42207	0.8453	-0.042
Mof_H 	H 	0.0718	0.4348	0.8486	0.003
Mof_C 	C 	0.13529	0.43306	0.93819	-0.447
Mof_H 	H 	0.1319	0.4023	0.9589	0.108
Mof_H 	H 	0.1049	0.4542	0.9423	0.123
Mof_H 	H 	0.1653	0.4522	0.9492	0.081
Mof_N 	N 	0.13078	0.36573	0.71222	-0.309
Mof_N 	N 	0.14561	0.30275	0.65709	-0.563
Mof_C 	C 	0.11415	0.32281	0.69029	0.077
Mof_H 	H 	0.0821	0.3081	0.6981	-0.107
Mof_C 	C 	0.18676	0.33543	0.65661	0.165
Mof_C 	C 	0.17827	0.37389	0.68908	-0.072
Mof_H 	H 	0.2005	0.4017	0.6953	0.005
Mof_C 	C 	0.23093	0.32589	0.62427	-0.467
Mof_H 	H 	0.2551	0.354	0.6277	0.122
Mof_H 	H 	0.22	0.3232	0.5887	0.08
Mof_H 	H 	0.2473	0.2941	0.6347	0.107
Mof_Li	Li	0.10871	0.6096	0.74464	2.746
Mof_B 	B 	0.89802	0.59999	0.74894	0.931
Mof_N 	N 	0.95191	0.62182	0.75752	-0.31
Mof_N 	N 	0.0357	0.63373	0.75276	-0.546
Mof_C 	C 	0.99666	0.6047	0.73868	0.122
Mof_H 	H 	0.9998	0.5754	0.7178	-0.099
Mof_C 	C 	0.01464	0.67209	0.78211	0.142
Mof_C 	C 	0.96369	0.66533	0.78459	-0.047
Mof_H 	H 	0.9402	0.6867	0.8019	0.002
Mof_C 	C 	0.0459	0.71301	0.80416	-0.456
Mof_H 	H 	0.0667	0.7285	0.7774	0.09
Mof_H 	H 	0.0681	0.6988	0.8305	0.084
Mof_H 	H 	0.0237	0.7389	0.8192	0.122
Mof_N 	N 	0.90176	0.54629	0.72468	-0.312
Mof_N 	N 	0.897	0.46214	0.71594	-0.552
Mof_C 	C 	0.89141	0.50132	0.74646	0.124
Mof_H 	H 	0.881	0.4981	0.7809	-0.106
Mof_C 	C 	0.91205	0.48341	0.67014	0.137
Mof_C 	C 	0.91442	0.53456	0.67547	-0.045
Mof_H 	H 	0.9233	0.5582	0.6496	-0.001
Mof_C 	C 	0.92253	0.45026	0.62489	-0.444
Mof_H 	H 	0.9522	0.4288	0.6318	0.089
Mof_H 	H 	0.9293	0.4716	0.5951	0.121
Mof_H 	H 	0.8929	0.4287	0.6182	0.088
Mof_N 	N 	0.87234	0.5965	0.80094	-0.322
Mof_N 	N 	0.81462	0.60121	0.86293	-0.574
Mof_C 	C 	0.82525	0.60941	0.81418	0.139
Mof_H 	H 	0.8014	0.6233	0.7909	-0.122
Mof_C 	C 	0.85894	0.58142	0.88368	0.134
Mof_C 	C 	0.89458	0.57793	0.8453	-0.042
Mof_H 	H 	0.9282	0.5652	0.8486	0.003
Mof_C 	C 	0.86471	0.56694	0.93819	-0.447
Mof_H 	H 	0.8681	0.5977	0.9589	0.108
Mof_H 	H 	0.8951	0.5458	0.9423	0.123
Mof_H 	H 	0.8347	0.5478	0.9492	0.081
Mof_N 	N 	0.86922	0.63427	0.71222	-0.309
Mof_N 	N 	0.85439	0.69725	0.65709	-0.563
Mof_C 	C 	0.88585	0.67719	0.69029	0.077
Mof_H 	H 	0.9179	0.6919	0.6981	-0.107
Mof_C 	C 	0.81324	0.66457	0.65661	0.165
Mof_C 	C 	0.82173	0.62611	0.68908	-0.072
Mof_H 	H 	0.7995	0.5983	0.6953	0.005
Mof_C 	C 	0.76907	0.67411	0.62427	-0.467
Mof_H 	H 	0.7449	0.646	0.6277	0.122
Mof_H 	H 	0.78	0.6768	0.5887	0.08
Mof_H 	H 	0.7527	0.7059	0.6347	0.107
Mof_Li	Li	0.10871	0.3904	0.25536	2.746
Mof_B 	B 	0.89802	0.40001	0.25106	0.931
Mof_N 	N 	0.95191	0.37818	0.24248	-0.31
Mof_N 	N 	0.0357	0.36627	0.24724	-0.546
Mof_C 	C 	0.99666	0.3953	0.26132	0.122
Mof_H 	H 	0.9998	0.4246	0.2822	-0.099
Mof_C 	C 	0.01464	0.32791	0.21789	0.142
Mof_C 	C 	0.96369	0.33467	0.21541	-0.047
Mof_H 	H 	0.9402	0.3133	0.1981	0.002
Mof_C 	C 	0.0459	0.28699	0.19584	-0.456
Mof_H 	H 	0.0667	0.2715	0.2226	0.09
Mof_H 	H 	0.0681	0.3012	0.1695	0.084
Mof_H 	H 	0.0237	0.2611	0.1808	0.122
Mof_N 	N 	0.90176	0.45371	0.27532	-0.312
Mof_N 	N 	0.897	0.53786	0.28406	-0.552
Mof_C 	C 	0.89141	0.49868	0.25354	0.124
Mof_H 	H 	0.881	0.5019	0.2191	-0.106
Mof_C 	C 	0.91205	0.51659	0.32986	0.137
Mof_C 	C 	0.91442	0.46544	0.32453	-0.045
Mof_H 	H 	0.9233	0.4418	0.3504	-0.001
Mof_C 	C 	0.92253	0.54974	0.37511	-0.444
Mof_H 	H 	0.9522	0.5712	0.3682	0.089
Mof_H 	H 	0.9293	0.5284	0.4049	0.121
Mof_H 	H 	0.8929	0.5713	0.3818	0.088
Mof_N 	N 	0.87234	0.4035	0.19906	-0.322
Mof_N 	N 	0.81462	0.39879	0.13707	-0.574
Mof_C 	C 	0.82525	0.39059	0.18582	0.139
Mof_H 	H 	0.8014	0.3767	0.2091	-0.122
Mof_C 	C 	0.85894	0.41858	0.11632	0.134
Mof_C 	C 	0.89458	0.42207	0.1547	-0.042
Mof_H 	H 	0.9282	0.4348	0.1514	0.003
Mof_C 	C 	0.86471	0.43306	0.06181	-0.447
Mof_H 	H 	0.8681	0.4023	0.0411	0.108
Mof_H 	H 	0.8951	0.4542	0.0577	0.123
Mof_H 	H 	0.8347	0.4522	0.0508	0.081
Mof_N 	N 	0.86922	0.36573	0.28778	-0.309
Mof_N 	N 	0.85439	0.30275	0.34291	-0.563
Mof_C 	C 	0.88585	0.32281	0.30971	0.077
Mof_H 	H 	0.9179	0.3081	0.3019	-0.107
Mof_C 	C 	0.81324	0.33543	0.34339	0.165
Mof_C 	C 	0.82173	0.37389	0.31092	-0.072
Mof_H 	H 	0.7995	0.4017	0.3047	0.005
Mof_C 	C 	0.76907	0.32589	0.37573	-0.467
Mof_H 	H 	0.7449	0.354	0.3723	0.122
Mof_H 	H 	0.78	0.3232	0.4113	0.08
Mof_H 	H 	0.7527	0.2941	0.3653	0.107
_end
