data_functionalizedCrystal
_audit_creation_method	'EQeq! by Chris Wilmer'
_symmetry_space_group_name_H-M	'P1'
_symmetry_Int_Tables_number	1
_symmetry_cell_setting	triclinic
loop_
_symmetry_equiv_pos_as_xyz
  x,y,z
_cell_length_a	15.01
_cell_length_b	16.62
_cell_length_c	19.29
_cell_angle_alpha	102.288
_cell_angle_beta	91.786
_cell_angle_gamma	93.3
loop_
_atom_site_label
_atom_site_type_symbol
_atom_site_fract_x
_atom_site_fract_y
_atom_site_fract_z
_atom_site_charge
Mof_Cu	Cu	0.47274	0.45714	0.04716	0.898
Mof_Cu	Cu	0.52726	0.54286	0.95284	0.898
Mof_Cu	Cu	0.45642	0.49336	0.55771	0.904
Mof_Cu	Cu	0.54358	0.50664	0.44229	0.904
Mof_H 	H 	0.9843	0.5492	0.1886	0.041
Mof_H 	H 	0.6506	0.1103	0.8905	0.091
Mof_H 	H 	0.9063	0.8206	0.2522	0.02
Mof_H 	H 	0.1451	0.8366	0.2359	0.029
Mof_H 	H 	0.1238	0.8256	0.3832	0.022
Mof_H 	H 	0.6905	0.5329	0.2048	0.034
Mof_H 	H 	0.446	0.0124	0.3304	0.038
Mof_H 	H 	0.0937	0.1794	0.7478	0.02
Mof_H 	H 	0.8899	0.7243	0.1346	0.07
Mof_H 	H 	0.554	0.9876	0.6696	0.038
Mof_H 	H 	0.1888	0.4047	0.7193	0.084
Mof_H 	H 	0.908	0.3368	0.5291	0.079
Mof_H 	H 	0.3095	0.4671	0.7952	0.034
Mof_H 	H 	0.0198	0.9754	0.7115	0.191
Mof_H 	H 	0.7278	0.876	0.5656	0.076
Mof_H 	H 	0.8549	0.1634	0.7641	0.029
Mof_H 	H 	0.5718	0.7197	0.7032	0.023
Mof_H 	H 	0.0691	0.942	0.4345	0.203
Mof_H 	H 	0.5876	0.2259	0.9572	0.027
Mof_H 	H 	0.0331	0.0438	0.5824	0.201
Mof_H 	H 	0.6659	0.3598	0.8144	0.023
Mof_H 	H 	0.3435	0.252	0.4881	0.023
Mof_H 	H 	0.7288	0.2441	0.7477	0.078
Mof_H 	H 	0.4621	0.9257	0.2769	0.04
Mof_H 	H 	0.0434	0.0256	0.4126	0.201
Mof_H 	H 	0.0286	0.0613	0.7682	0.192
Mof_H 	H 	0.9714	0.9387	0.2318	0.192
Mof_H 	H 	0.7839	0.3929	0.4858	0.03
Mof_H 	H 	0.0848	0.561	0.2249	0.037
Mof_H 	H 	0.643	0.8477	0.7569	0.094
Mof_H 	H 	0.092	0.6632	0.4709	0.079
Mof_H 	H 	0.8112	0.5953	0.2807	0.084
Mof_H 	H 	0.9566	0.9744	0.5874	0.201
Mof_H 	H 	0.2307	0.3382	0.9413	0.035
Mof_H 	H 	0.4282	0.2803	0.2968	0.023
Mof_H 	H 	0.357	0.1523	0.2431	0.094
Mof_H 	H 	0.5379	0.0743	0.7231	0.04
Mof_H 	H 	0.2722	0.124	0.4344	0.076
Mof_H 	H 	0.9669	0.9562	0.4176	0.201
Mof_H 	H 	0.1496	0.067	0.3594	0.013
Mof_H 	H 	0.7895	0.3443	0.716	0.074
Mof_H 	H 	0.3347	0.5997	0.3273	0.028
Mof_H 	H 	0.8504	0.933	0.6406	0.013
Mof_H 	H 	0.6653	0.4003	0.6727	0.028
Mof_H 	H 	0.0934	0.0458	0.7031	0.188
Mof_H 	H 	0.2712	0.7559	0.2523	0.078
Mof_H 	H 	0.9802	0.0246	0.2885	0.191
Mof_H 	H 	0.9309	0.058	0.5655	0.203
Mof_H 	H 	0.8762	0.1744	0.6168	0.022
Mof_H 	H 	0.2161	0.6071	0.5142	0.03
Mof_H 	H 	0.4124	0.7741	0.0428	0.027
Mof_H 	H 	0.9152	0.439	0.7751	0.037
Mof_H 	H 	0.7693	0.6618	0.0587	0.035
Mof_H 	H 	0.6565	0.748	0.5119	0.023
Mof_H 	H 	0.3341	0.6402	0.1856	0.023
Mof_H 	H 	0.2105	0.6557	0.284	0.074
Mof_H 	H 	0.1101	0.2757	0.8654	0.07
Mof_H 	H 	0.3494	0.8897	0.1095	0.091
Mof_H 	H 	0.9066	0.9542	0.2969	0.188
Mof_H 	H 	0.0157	0.4508	0.8114	0.041
Mof_C 	C 	0.0527	0.2076	0.7248	0.008
Mof_C 	C 	0.7001	0.2405	0.7902	-0.145
Mof_C 	C 	0.0165	0.8366	0.3193	-0.103
Mof_C 	C 	0.9326	0.2901	0.6572	-0.075
Mof_C 	C 	0.7386	0.9556	0.697	-0.1
Mof_C 	C 	0.302	0.9849	0.2546	0.159
Mof_C 	C 	0.0618	0.293	0.7351	-0.077
Mof_C 	C 	0.269	0.4283	0.8095	0.037
Mof_C 	C 	0.7129	0.4019	0.5752	-0.114
Mof_C 	C 	0.7883	0.3541	0.6693	-0.132
Mof_C 	C 	0.1412	0.6503	0.4417	-0.131
Mof_C 	C 	0.5448	0.0146	0.7195	-0.002
Mof_C 	C 	0.3463	0.8391	0.125	-0.14
Mof_C 	C 	0.8226	0.9736	0.6737	0.015
Mof_C 	C 	0.3792	0.6963	0.1079	-0.125
Mof_C 	C 	0.8494	0.6854	0.1489	-0.124
Mof_C 	C 	0.866	0.051	0.6987	-0.096
Mof_C 	C 	0.6961	0.8443	0.5936	-0.148
Mof_C 	C 	0.9235	0.2046	0.6469	0.003
Mof_C 	C 	0.0385	0.9275	0.3294	0.284
Mof_C 	C 	0.2815	0.4085	0.8754	-0.085
Mof_C 	C 	0.5795	0.3734	0.9314	0.314
Mof_C 	C 	0.698	0.0151	0.7454	0.159
Mof_C 	C 	0.134	0.949	0.3013	-0.096
Mof_C 	C 	0.1973	0.3912	0.7644	-0.123
Mof_C 	C 	0.6208	0.3037	0.8921	-0.125
Mof_C 	C 	0.4552	0.9854	0.2805	-0.002
Mof_C 	C 	0.1774	0.0264	0.3263	0.015
Mof_C 	C 	0.6403	0.5577	0.0723	0.299
Mof_C 	C 	0.9671	0.965	0.282	-0.577
Mof_C 	C 	0.3542	0.1725	0.2928	-0.147
Mof_C 	C 	0.9473	0.7924	0.2752	0.008
Mof_C 	C 	0.0221	0.5416	0.2294	-0
Mof_C 	C 	0.215	0.617	0.4674	0.051
Mof_C 	C 	0.9779	0.4584	0.7706	-0
Mof_C 	C 	0.8588	0.3497	0.5583	-0.131
Mof_C 	C 	0.3373	0.6909	0.1702	0.061
Mof_C 	C 	0.9835	0.1634	0.6807	-0.103
Mof_C 	C 	0.569	0.6377	0.5652	0.37
Mof_C 	C 	0.2871	0.5981	0.4248	-0.114
Mof_C 	C 	0.6627	0.3091	0.8298	0.061
Mof_C 	C 	0.3966	0.2486	0.3247	0.067
Mof_C 	C 	0.6163	0.2296	0.9147	0.061
Mof_C 	C 	0.3079	0.1261	0.3337	0.117
Mof_C 	C 	0.9713	0.0339	0.5951	-0.636
Mof_C 	C 	0.1396	0.6647	0.3734	0.101
Mof_C 	C 	0.2614	0.0444	0.303	-0.1
Mof_C 	C 	0.9382	0.707	0.2649	-0.077
Mof_C 	C 	0.2854	0.6126	0.3564	0.051
Mof_C 	C 	0.7146	0.3874	0.6436	0.051
Mof_C 	C 	0.785	0.383	0.5326	0.051
Mof_C 	C 	0.431	0.3623	0.4348	0.37
Mof_C 	C 	0.1747	0.8895	0.253	0.01
Mof_C 	C 	0.2999	0.7595	0.2098	-0.145
Mof_C 	C 	0.0765	0.7954	0.3531	0.003
Mof_C 	C 	0.1506	0.3146	0.8511	-0.124
Mof_C 	C 	0.3462	0.2318	0.4383	0.063
Mof_C 	C 	0.0329	0.035	0.718	-0.577
Mof_C 	C 	0.6388	0.4349	0.5483	0.285
Mof_C 	C 	0.8604	0.3353	0.6266	0.101
Mof_C 	C 	0.8619	0.6656	0.2148	0.091
Mof_C 	C 	0.1381	0.3344	0.7852	0.091
Mof_C 	C 	0.6921	0.8739	0.6663	0.117
Mof_C 	C 	0.4205	0.6266	0.0686	0.314
Mof_C 	C 	0.3925	0.2782	0.3975	-0.128
Mof_C 	C 	0.6537	0.1609	0.875	-0.14
Mof_C 	C 	0.3039	0.1557	0.4064	-0.148
Mof_C 	C 	0.6538	0.7682	0.5617	0.063
Mof_C 	C 	0.3612	0.5651	0.4517	0.285
Mof_C 	C 	0.3837	0.7704	0.0853	0.061
Mof_C 	C 	0.2117	0.6459	0.3307	-0.132
Mof_C 	C 	0.3044	0.8337	0.1872	0.11
Mof_C 	C 	0.6075	0.7218	0.6025	-0.128
Mof_C 	C 	0.0674	0.7099	0.3428	-0.075
Mof_C 	C 	0.7778	0.6483	0.1038	0.031
Mof_C 	C 	0.3597	0.4423	0.9277	0.299
Mof_C 	C 	0.6458	0.8275	0.7072	-0.147
Mof_C 	C 	0.7185	0.5915	0.1246	-0.085
Mof_C 	C 	0.6956	0.1663	0.8128	0.11
Mof_C 	C 	0.8253	0.1105	0.747	0.01
Mof_C 	C 	0.8027	0.6088	0.2356	-0.123
Mof_C 	C 	0.9615	0.0725	0.6706	0.284
Mof_C 	C 	0.731	0.5717	0.1905	0.037
Mof_C 	C 	0.2222	0.3517	0.8962	0.031
Mof_C 	C 	0.2587	0.9075	0.2296	-0.091
Mof_C 	C 	0.6034	0.7514	0.6753	0.067
Mof_C 	C 	0.0017	0.3343	0.7013	0.118
Mof_C 	C 	0.0287	0.9661	0.4049	-0.636
Mof_C 	C 	0.7413	0.0925	0.7704	-0.091
Mof_C 	C 	0.9983	0.6657	0.2987	0.118
Mof_O 	O 	0.0122	0.4235	0.7043	-0.192
Mof_O 	O 	0.6433	0.4574	0.4829	-0.36
Mof_O 	O 	0.5642	0.4444	0.5835	-0.374
Mof_O 	O 	0.3844	0.0001	0.2323	-0.215
Mof_O 	O 	0.9878	0.5765	0.2957	-0.192
Mof_O 	O 	0.462	0.6349	0.0091	-0.37
Mof_O 	O 	0.3567	0.5426	0.5171	-0.36
Mof_O 	O 	0.6156	0.9999	0.7677	-0.215
Mof_O 	O 	0.5804	0.4421	0.9097	-0.395
Mof_O 	O 	0.4149	0.4974	0.8963	-0.355
Mof_O 	O 	0.5825	0.6129	0.5044	-0.434
Mof_O 	O 	0.5851	0.5026	0.1037	-0.355
Mof_O 	O 	0.538	0.3651	0.9909	-0.37
Mof_O 	O 	0.3695	0.4213	0.9829	-0.41
Mof_O 	O 	0.6305	0.5787	0.0171	-0.41
Mof_O 	O 	0.5128	0.6012	0.604	-0.389
Mof_O 	O 	0.4175	0.3871	0.4956	-0.434
Mof_O 	O 	0.4358	0.5556	0.4165	-0.374
Mof_O 	O 	0.4872	0.3988	0.396	-0.389
Mof_O 	O 	0.4196	0.5579	0.0903	-0.395
_end
