data_functionalizedCrystal
_audit_creation_method	'EQeq! by Chris Wilmer'
_symmetry_space_group_name_H-M	'P1'
_symmetry_Int_Tables_number	1
_symmetry_cell_setting	triclinic
loop_
_symmetry_equiv_pos_as_xyz
  x,y,z
_cell_length_a	18.8276
_cell_length_b	18.8276
_cell_length_c	54.149
_cell_angle_alpha	90
_cell_angle_beta	90
_cell_angle_gamma	120
loop_
_atom_site_label
_atom_site_type_symbol
_atom_site_fract_x
_atom_site_fract_y
_atom_site_fract_z
_atom_site_charge
Mof_C 	C 	0.22642	0.0877	0.22827	-0.006
Mof_C 	C 	0.21402	0.01711	0.24069	0.003
Mof_C 	C 	0.1879	0.0026	0.26553	-0.103
Mof_C 	C 	0.17519	0.062	0.27785	0.047
Mof_C 	C 	0.18796	0.13418	0.26556	-0.103
Mof_C 	C 	0.21409	0.14588	0.24073	0.005
Mof_H 	H 	0.22253	0.97216	0.23063	0.045
Mof_H 	H 	0.15318	0.05096	0.29672	0.04
Mof_H 	H 	0.22265	0.1994	0.23068	0.045
Mof_C 	C 	0.89121	0.42065	0.56025	-0.006
Mof_C 	C 	0.87957	0.47918	0.57277	0.007
Mof_C 	C 	0.85499	0.46814	0.59775	-0.105
Mof_C 	C 	0.84308	0.39649	0.6101	0.049
Mof_C 	C 	0.85505	0.33682	0.59773	-0.105
Mof_C 	C 	0.87961	0.35044	0.57275	0.007
Mof_H 	H 	0.88748	0.53241	0.5627	0.043
Mof_H 	H 	0.82229	0.38607	0.62909	0.039
Mof_H 	H 	0.88753	0.30516	0.56266	0.043
Mof_C 	C 	0.55681	0.75264	0.89405	-0.006
Mof_C 	C 	0.54506	0.68231	0.90651	0.008
Mof_C 	C 	0.52028	0.66851	0.93146	-0.104
Mof_C 	C 	0.50827	0.72814	0.94386	0.049
Mof_C 	C 	0.52034	0.7999	0.93154	-0.104
Mof_C 	C 	0.54514	0.81111	0.90659	0.008
Mof_H 	H 	0.55302	0.63708	0.8964	0.043
Mof_H 	H 	0.48732	0.71759	0.96283	0.039
Mof_H 	H 	0.55317	0.86442	0.89654	0.044
Mof_C 	C 	0.82498	0.08961	0.22836	-0.012
Mof_C 	C 	0.76716	0.01878	0.24073	0.01
Mof_C 	C 	0.77893	0.00441	0.26555	-0.11
Mof_C 	C 	0.85063	0.0641	0.27791	0.06
Mof_C 	C 	0.90971	0.13648	0.26565	-0.13
Mof_C 	C 	0.8952	0.14816	0.24083	0.018
Mof_H 	H 	0.71398	0.97351	0.23063	0.044
Mof_H 	H 	0.86171	0.05302	0.29676	0.035
Mof_H 	H 	0.94001	0.20179	0.23079	0.039
Mof_C 	C 	0.49286	0.4211	0.56072	-0.007
Mof_C 	C 	0.4344	0.35085	0.57319	0.008
Mof_C 	C 	0.44558	0.33709	0.59813	-0.105
Mof_C 	C 	0.51726	0.39672	0.61049	0.05
Mof_C 	C 	0.57682	0.46846	0.59813	-0.105
Mof_C 	C 	0.56305	0.47962	0.5732	0.008
Mof_H 	H 	0.38118	0.30558	0.56311	0.043
Mof_H 	H 	0.52783	0.38616	0.62945	0.039
Mof_H 	H 	0.60827	0.53288	0.56312	0.043
Mof_C 	C 	0.15862	0.75268	0.8943	-0.007
Mof_C 	C 	0.10003	0.68242	0.90674	0.007
Mof_C 	C 	0.11091	0.66872	0.9317	-0.105
Mof_C 	C 	0.18244	0.72839	0.94412	0.05
Mof_C 	C 	0.24211	0.80014	0.9318	-0.105
Mof_C 	C 	0.22862	0.81125	0.90684	0.008
Mof_H 	H 	0.04697	0.6371	0.8966	0.042
Mof_H 	H 	0.19281	0.71787	0.9631	0.039
Mof_H 	H 	0.27396	0.86449	0.89677	0.044
Mof_C 	C 	0.82417	0.68273	0.22839	-0.012
Mof_C 	C 	0.89462	0.69479	0.24081	0.019
Mof_C 	C 	0.90949	0.72161	0.26558	-0.129
Mof_C 	C 	0.85056	0.73517	0.27782	0.06
Mof_C 	C 	0.77868	0.72284	0.2655	-0.11
Mof_C 	C 	0.76653	0.69606	0.24075	0.012
Mof_H 	H 	0.93927	0.68569	0.23078	0.039
Mof_H 	H 	0.86189	0.75776	0.29663	0.035
Mof_H 	H 	0.71315	0.6878	0.23069	0.042
Mof_C 	C 	0.49247	0.02091	0.5607	-0.008
Mof_C 	C 	0.43412	0.03292	0.57316	0.009
Mof_C 	C 	0.4455	0.05821	0.59806	-0.105
Mof_C 	C 	0.51727	0.07042	0.6104	0.05
Mof_C 	C 	0.57675	0.05808	0.59806	-0.105
Mof_C 	C 	0.56279	0.03279	0.57316	0.009
Mof_H 	H 	0.38082	0.02481	0.56309	0.044
Mof_H 	H 	0.52797	0.09179	0.62934	0.039
Mof_H 	H 	0.60794	0.02461	0.56309	0.043
Mof_C 	C 	0.15794	0.35297	0.89413	-0.006
Mof_C 	C 	0.0995	0.36483	0.9066	0.007
Mof_C 	C 	0.11067	0.3898	0.93153	-0.105
Mof_C 	C 	0.18234	0.40184	0.9439	0.049
Mof_C 	C 	0.2419	0.38964	0.93156	-0.105
Mof_C 	C 	0.22814	0.36466	0.90663	0.007
Mof_H 	H 	0.04628	0.35688	0.89651	0.043
Mof_H 	H 	0.19289	0.42298	0.96286	0.039
Mof_H 	H 	0.27338	0.35662	0.89656	0.043
Mof_C 	C 	0.09304	0.22215	0.69348	-0.007
Mof_C 	C 	0.15132	0.20994	0.68105	0.008
Mof_C 	C 	0.13989	0.18439	0.65617	-0.105
Mof_C 	C 	0.06811	0.17212	0.64382	0.049
Mof_C 	C 	0.00868	0.18464	0.65612	-0.104
Mof_C 	C 	0.02271	0.21018	0.681	0.008
Mof_H 	H 	0.20464	0.21811	0.69113	0.043
Mof_H 	H 	0.05737	0.15059	0.6249	0.039
Mof_H 	H 	0.97761	0.21852	0.69104	0.044
Mof_C 	C 	0.75713	0.5515	0.02719	-0.006
Mof_C 	C 	0.8157	0.53989	0.0147	0.008
Mof_C 	C 	0.80478	0.51543	0.98973	-0.105
Mof_C 	C 	0.73322	0.50363	0.97734	0.05
Mof_C 	C 	0.67355	0.51563	0.98971	-0.105
Mof_C 	C 	0.68708	0.54011	0.01468	0.008
Mof_H 	H 	0.86878	0.54759	0.02481	0.043
Mof_H 	H 	0.72283	0.48285	0.95835	0.038
Mof_H 	H 	0.64176	0.54796	0.02477	0.043
Mof_C 	C 	0.42582	0.88768	0.36028	-0.006
Mof_C 	C 	0.35519	0.87504	0.34785	0.008
Mof_C 	C 	0.34104	0.84917	0.32301	-0.105
Mof_C 	C 	0.40067	0.83699	0.31068	0.049
Mof_C 	C 	0.47277	0.84994	0.323	-0.105
Mof_C 	C 	0.48429	0.87581	0.34785	0.007
Mof_H 	H 	0.30999	0.88317	0.35791	0.044
Mof_H 	H 	0.38985	0.81519	0.29179	0.039
Mof_H 	H 	0.53785	0.88453	0.3579	0.042
Mof_C 	C 	0.09419	0.81969	0.69317	-0.007
Mof_C 	C 	0.15226	0.89037	0.68078	0.007
Mof_C 	C 	0.14033	0.90491	0.65599	-0.104
Mof_C 	C 	0.0683	0.84566	0.64369	0.049
Mof_C 	C 	0.00908	0.77356	0.65596	-0.104
Mof_C 	C 	0.02358	0.76159	0.68075	0.007
Mof_H 	H 	0.20579	0.93531	0.69082	0.043
Mof_H 	H 	0.0572	0.85679	0.62484	0.039
Mof_H 	H 	0.97865	0.70801	0.69078	0.043
Mof_C 	C 	0.75817	0.15298	0.02712	-0.006
Mof_C 	C 	0.81655	0.22321	0.01463	0.007
Mof_C 	C 	0.80521	0.23698	0.98971	-0.105
Mof_C 	C 	0.73344	0.17737	0.97739	0.049
Mof_C 	C 	0.67394	0.10565	0.98976	-0.104
Mof_C 	C 	0.68787	0.09447	0.01468	0.007
Mof_H 	H 	0.86985	0.26847	0.02469	0.043
Mof_H 	H 	0.72276	0.18794	0.95844	0.039
Mof_H 	H 	0.64269	0.04122	0.02478	0.043
Mof_C 	C 	0.42639	0.48658	0.36025	-0.006
Mof_C 	C 	0.48477	0.55694	0.34781	0.008
Mof_C 	C 	0.47304	0.57139	0.32299	-0.105
Mof_C 	C 	0.40083	0.5123	0.31071	0.05
Mof_C 	C 	0.34128	0.44048	0.32304	-0.105
Mof_C 	C 	0.35563	0.42866	0.34786	0.007
Mof_H 	H 	0.53841	0.60175	0.35784	0.044
Mof_H 	H 	0.38986	0.52336	0.29184	0.039
Mof_H 	H 	0.31048	0.37532	0.35793	0.043
Mof_C 	C 	0.69143	0.82077	0.69355	-0.006
Mof_C 	C 	0.70377	0.76253	0.68113	0.007
Mof_C 	C 	0.72963	0.77411	0.65627	-0.104
Mof_C 	C 	0.74212	0.84602	0.64394	0.048
Mof_C 	C 	0.72956	0.90544	0.65623	-0.103
Mof_C 	C 	0.70369	0.89125	0.68109	0.006
Mof_H 	H 	0.69538	0.70909	0.69118	0.043
Mof_H 	H 	0.76386	0.85686	0.62505	0.038
Mof_H 	H 	0.69525	0.93631	0.69111	0.043
Mof_C 	C 	0.35963	0.154	0.02761	-0.006
Mof_C 	C 	0.37121	0.09537	0.01512	0.006
Mof_C 	C 	0.39561	0.10619	0.99013	-0.104
Mof_C 	C 	0.40741	0.17772	0.97772	0.049
Mof_C 	C 	0.39549	0.23747	0.99006	-0.104
Mof_C 	C 	0.37108	0.22406	0.01505	0.007
Mof_H 	H 	0.36342	0.04225	0.02523	0.042
Mof_H 	H 	0.42807	0.18799	0.95872	0.039
Mof_H 	H 	0.3632	0.26941	0.02511	0.044
Mof_C 	C 	0.02525	0.48716	0.35964	-0.021
Mof_C 	C 	0.03758	0.55763	0.3472	0.026
Mof_C 	C 	0.06399	0.57246	0.32234	-0.135
Mof_C 	C 	0.07646	0.51262	0.31004	0.073
Mof_C 	C 	0.06404	0.44039	0.32239	-0.135
Mof_C 	C 	0.03765	0.42896	0.34725	0.026
Mof_H 	H 	0.02867	0.60218	0.35737	0.04
Mof_H 	H 	0.0981	0.52339	0.29113	0.035
Mof_H 	H 	0.02879	0.37559	0.35746	0.04
Mof_O 	O 	0.98954	0.40125	0.93105	-0.406
Mof_O 	O 	0.85217	0.46766	0.9558	-0.407
Mof_O 	O 	0.98971	0.53616	0.93116	-0.407
Mof_O 	O 	0.85232	0.3323	0.95582	-0.407
Mof_O 	O 	0.9263	0.36952	0.99019	-0.408
Mof_O 	O 	0.06356	0.57337	0.96556	-0.408
Mof_O 	O 	0.92604	0.50415	0.9902	-0.408
Mof_O 	O 	0.06348	0.4379	0.96543	-0.407
Mof_Cu	Cu	0.90676	0.42729	0.93644	0.942
Mof_Cu	Cu	0.00904	0.47832	0.98486	0.942
Mof_C 	C 	0.05081	0.40973	0.94351	0.371
Mof_C 	C 	0.86476	0.49569	0.97774	0.373
Mof_C 	C 	0.05096	0.58892	0.94365	0.371
Mof_C 	C 	0.86502	0.31676	0.97773	0.374
Mof_O 	O 	0.52059	0.80222	0.28916	-0.407
Mof_O 	O 	0.65843	0.73587	0.26474	-0.409
Mof_O 	O 	0.52066	0.66701	0.28917	-0.407
Mof_O 	O 	0.65856	0.8712	0.26478	-0.409
Mof_O 	O 	0.73201	0.90825	0.29925	-0.409
Mof_O 	O 	0.59416	0.70399	0.32364	-0.408
Mof_O 	O 	0.73195	0.77234	0.2992	-0.408
Mof_O 	O 	0.59402	0.83862	0.32364	-0.409
Mof_Cu	Cu	0.57568	0.76216	0.2699	0.942
Mof_Cu	Cu	0.67717	0.81288	0.31844	0.942
Mof_C 	C 	0.53287	0.83016	0.3111	0.373
Mof_C 	C 	0.71936	0.74394	0.27731	0.375
Mof_C 	C 	0.53302	0.6513	0.3111	0.373
Mof_C 	C 	0.7195	0.92405	0.27735	0.375
Mof_O 	O 	0.32443	0.06979	0.59756	-0.408
Mof_O 	O 	0.18704	0.13613	0.62231	-0.407
Mof_O 	O 	0.32443	0.20455	0.59761	-0.409
Mof_O 	O 	0.18715	0.00066	0.62223	-0.404
Mof_O 	O 	0.26106	0.03779	0.65661	-0.406
Mof_O 	O 	0.39831	0.24175	0.63201	-0.408
Mof_O 	O 	0.26089	0.17267	0.65671	-0.409
Mof_O 	O 	0.39834	0.10638	0.63195	-0.407
Mof_Cu	Cu	0.24155	0.09573	0.60292	0.942
Mof_Cu	Cu	0.34378	0.14672	0.65134	0.942
Mof_C 	C 	0.38568	0.07823	0.61003	0.374
Mof_C 	C 	0.19967	0.16428	0.64423	0.373
Mof_C 	C 	0.38569	0.2573	0.61009	0.373
Mof_C 	C 	0.19989	0.98499	0.64411	0.368
Mof_O 	O 	0.33722	0.43783	0.96546	-0.407
Mof_O 	O 	0.54111	0.50455	0.99015	-0.408
Mof_O 	O 	0.47257	0.57339	0.96541	-0.407
Mof_O 	O 	0.40635	0.36985	0.99037	-0.408
Mof_O 	O 	0.44297	0.33235	0.95603	-0.407
Mof_O 	O 	0.5091	0.53593	0.93104	-0.408
Mof_O 	O 	0.57834	0.46775	0.9558	-0.408
Mof_O 	O 	0.37441	0.40091	0.93111	-0.409
Mof_Cu	Cu	0.43223	0.47857	0.98484	0.942
Mof_Cu	Cu	0.48325	0.42708	0.93649	0.942
Mof_C 	C 	0.32166	0.40951	0.94355	0.373
Mof_C 	C 	0.59386	0.49596	0.97771	0.374
Mof_C 	C 	0.50059	0.58878	0.94347	0.373
Mof_C 	C 	0.41496	0.31702	0.97797	0.373
Mof_O 	O 	0.17624	0.86966	0.2648	-0.406
Mof_O 	O 	0.11022	0.66427	0.28902	-0.41
Mof_O 	O 	0.0408	0.73524	0.26526	-0.437
Mof_O 	O 	0.24529	0.80063	0.28919	-0.407
Mof_O 	O 	0.20803	0.83675	0.32362	-0.409
Mof_O 	O 	0.0049	0.7697	0.29839	-0.436
Mof_O 	O 	0.07375	0.70104	0.32344	-0.411
Mof_O 	O 	0.13939	0.90616	0.29926	-0.404
Mof_Cu	Cu	0.14977	0.76037	0.27007	0.943
Mof_Cu	Cu	0.09905	0.80993	0.31814	0.943
Mof_C 	C 	0.16776	0.92233	0.27736	0.371
Mof_C 	C 	0.0825	0.64825	0.311	0.391
Mof_C 	C 	0.98996	0.74257	0.27738	0.438
Mof_C 	C 	0.26096	0.82871	0.31111	0.373
Mof_O 	O 	0.67217	0.1064	0.63191	-0.407
Mof_O 	O 	0.87609	0.17319	0.6566	-0.409
Mof_O 	O 	0.80751	0.24182	0.63172	-0.407
Mof_O 	O 	0.74123	0.03821	0.65668	-0.405
Mof_O 	O 	0.77783	0.00075	0.62233	-0.404
Mof_O 	O 	0.84408	0.20436	0.59736	-0.409
Mof_O 	O 	0.91328	0.13631	0.62225	-0.408
Mof_O 	O 	0.70934	0.0695	0.59756	-0.408
Mof_Cu	Cu	0.76724	0.14708	0.65123	0.942
Mof_Cu	Cu	0.81824	0.0956	0.60288	0.942
Mof_C 	C 	0.65658	0.07806	0.61002	0.374
Mof_C 	C 	0.92885	0.16463	0.64415	0.373
Mof_C 	C 	0.8355	0.25718	0.60978	0.373
Mof_C 	C 	0.74965	0.98531	0.64425	0.367
Mof_O 	O 	0.47269	0.84722	0.96554	-0.407
Mof_O 	O 	0.40664	0.98473	0.99052	-0.405
Mof_O 	O 	0.33735	0.84736	0.96571	-0.407
Mof_O 	O 	0.54137	0.98451	0.9903	-0.405
Mof_O 	O 	0.57846	0.05853	0.95594	-0.408
Mof_O 	O 	0.37452	0.92141	0.93135	-0.408
Mof_O 	O 	0.44312	0.0587	0.95615	-0.407
Mof_O 	O 	0.50918	0.92126	0.93118	-0.407
Mof_Cu	Cu	0.43245	0.90176	0.98502	0.942
Mof_Cu	Cu	0.48335	0.0042	0.93665	0.941
Mof_C 	C 	0.50068	0.85988	0.9436	0.373
Mof_C 	C 	0.41517	0.0461	0.97809	0.369
Mof_C 	C 	0.32179	0.86007	0.9438	0.374
Mof_C 	C 	0.5941	0.0458	0.97783	0.37
Mof_O 	O 	0.13948	0.18207	0.29932	-0.404
Mof_O 	O 	0.07387	0.32159	0.32354	-0.411
Mof_O 	O 	0.00499	0.18395	0.2985	-0.436
Mof_O 	O 	0.20817	0.32003	0.3237	-0.409
Mof_O 	O 	0.24537	0.39341	0.28927	-0.407
Mof_O 	O 	0.04091	0.25428	0.26538	-0.438
Mof_O 	O 	0.11028	0.39474	0.2891	-0.41
Mof_O 	O 	0.17634	0.25546	0.26487	-0.406
Mof_Cu	Cu	0.09916	0.23795	0.31824	0.943
Mof_Cu	Cu	0.14985	0.33822	0.27016	0.943
Mof_C 	C 	0.16784	0.19429	0.27742	0.37
Mof_C 	C 	0.08258	0.38309	0.31109	0.391
Mof_C 	C 	0.99008	0.19609	0.27749	0.438
Mof_C 	C 	0.2611	0.38097	0.31118	0.373
Mof_O 	O 	0.74138	0.65304	0.65675	-0.408
Mof_O 	O 	0.80747	0.51556	0.63176	-0.407
Mof_O 	O 	0.87626	0.65276	0.65656	-0.409
Mof_O 	O 	0.6722	0.51569	0.63199	-0.408
Mof_O 	O 	0.70929	0.58969	0.59763	-0.409
Mof_O 	O 	0.91331	0.7268	0.6222	-0.408
Mof_O 	O 	0.84395	0.58957	0.59739	-0.408
Mof_O 	O 	0.77785	0.727	0.62237	-0.408
Mof_Cu	Cu	0.76732	0.57012	0.65128	0.942
Mof_Cu	Cu	0.81816	0.67252	0.6029	0.942
Mof_C 	C 	0.74975	0.71432	0.6443	0.373
Mof_C 	C 	0.83541	0.52818	0.60981	0.373
Mof_C 	C 	0.92902	0.71398	0.64407	0.373
Mof_C 	C 	0.65658	0.52838	0.61009	0.374
Mof_C 	C 	0.14845	0.3339	0.86795	-0.01
Mof_C 	C 	0.1414	0.31964	0.84597	0.001
Mof_C 	C 	0.13369	0.30386	0.81959	-0.007
Mof_C 	C 	0.19004	0.36263	0.80297	-0.035
Mof_C 	C 	0.18236	0.34736	0.7773	-0.035
Mof_C 	C 	0.11818	0.27313	0.7679	-0.007
Mof_C 	C 	0.0629	0.2157	0.78482	0.045
Mof_C 	C 	0.07036	0.23052	0.80975	0.046
Mof_C 	C 	0.11018	0.25678	0.74155	0.001
Mof_C 	C 	0.10286	0.24194	0.71961	-0.009
Mof_H 	H 	0.23984	0.42016	0.8098	0.044
Mof_H 	H 	0.22642	0.39336	0.76486	0.043
Mof_N 	N 	0.99872	0.14239	0.77895	-0.109
Mof_N 	N 	0.01188	0.16856	0.82293	-0.11
Mof_C 	C 	0.4358	0.9078	0.38637	-0.01
Mof_C 	C 	0.44329	0.92291	0.40829	0.001
Mof_C 	C 	0.45152	0.93957	0.43461	-0.01
Mof_C 	C 	0.51538	0.0142	0.4439	-0.032
Mof_C 	C 	0.52331	0.02976	0.46955	-0.033
Mof_C 	C 	0.46753	0.97089	0.48625	-0.007
Mof_C 	C 	0.40451	0.89715	0.47652	0.045
Mof_C 	C 	0.3968	0.88205	0.45162	0.047
Mof_C 	C 	0.4755	0.98697	0.5126	-0.004
Mof_C 	C 	0.48275	0.0015	0.53455	-0.003
Mof_H 	H 	0.559	0.06027	0.43139	0.043
Mof_H 	H 	0.57285	0.08759	0.4763	0.044
Mof_N 	N 	0.34657	0.83505	0.4898	-0.109
Mof_N 	N 	0.33299	0.80837	0.44585	-0.11
Mof_C 	C 	0.76634	0.56995	0.05339	-0.01
Mof_C 	C 	0.77326	0.58373	0.07539	0.001
Mof_C 	C 	0.78105	0.599	0.10178	-0.008
Mof_C 	C 	0.79989	0.67611	0.11135	-0.035
Mof_C 	C 	0.8077	0.69139	0.13709	-0.035
Mof_C 	C 	0.7969	0.63007	0.15411	-0.007
Mof_C 	C 	0.77807	0.55357	0.14465	0.047
Mof_C 	C 	0.77017	0.53813	0.11863	0.047
Mof_C 	C 	0.80573	0.64676	0.18042	-0
Mof_C 	C 	0.8137	0.6621	0.20233	-0.008
Mof_H 	H 	0.80872	0.72489	0.09889	0.043
Mof_H 	H 	0.82238	0.75154	0.14369	0.043
Mof_N 	N 	0.7657	0.48791	0.15769	-0.109
Mof_N 	N 	0.75216	0.46148	0.11321	-0.109
Mof_C 	C 	0.10445	0.80937	0.71923	-0.009
Mof_C 	C 	0.11204	0.8016	0.74112	-0.001
Mof_C 	C 	0.12023	0.79301	0.76742	-0.005
Mof_C 	C 	0.06818	0.80108	0.78442	-0.036
Mof_C 	C 	0.07575	0.7934	0.81009	-0.036
Mof_C 	C 	0.13572	0.77744	0.81975	-0.005
Mof_C 	C 	0.19068	0.76886	0.8021	0.045
Mof_C 	C 	0.18336	0.77623	0.77733	0.045
Mof_C 	C 	0.14293	0.76935	0.84612	-0.001
Mof_C 	C 	0.14956	0.76214	0.8681	-0.009
Mof_H 	H 	0.02117	0.81351	0.77781	0.042
Mof_H 	H 	0.03429	0.80003	0.8225	0.042
Mof_N 	N 	0.25101	0.7537	0.80794	-0.109
Mof_N 	N 	0.23802	0.76682	0.76397	-0.109
Mof_C 	C 	0.48331	0.43064	0.53456	-0.009
Mof_C 	C 	0.47608	0.43783	0.51261	0.001
Mof_C 	C 	0.4679	0.44587	0.48627	-0.007
Mof_C 	C 	0.51804	0.43572	0.46915	0.046
Mof_C 	C 	0.51035	0.443	0.44423	0.046
Mof_C 	C 	0.45193	0.46092	0.43462	-0.007
Mof_C 	C 	0.40082	0.4714	0.45143	-0.035
Mof_C 	C 	0.40872	0.4639	0.47708	-0.035
Mof_C 	C 	0.44394	0.46905	0.40827	0.001
Mof_C 	C 	0.43647	0.47651	0.38634	-0.01
Mof_N 	N 	0.57711	0.41844	0.4748	-0.109
Mof_N 	N 	0.56356	0.43132	0.43084	-0.109
Mof_H 	H 	0.35493	0.48538	0.44476	0.043
Mof_H 	H 	0.36875	0.47216	0.48968	0.043
Mof_C 	C 	0.76788	0.14349	0.05328	-0.01
Mof_C 	C 	0.77524	0.1364	0.07523	0.001
Mof_C 	C 	0.7835	0.12848	0.10157	-0.008
Mof_C 	C 	0.79425	0.06572	0.11124	0.048
Mof_C 	C 	0.80204	0.05827	0.13727	0.044
Mof_C 	C 	0.79916	0.11346	0.15392	-0.007
Mof_C 	C 	0.78827	0.17679	0.14415	-0.035
Mof_C 	C 	0.78054	0.18415	0.11839	-0.034
Mof_C 	C 	0.80752	0.1063	0.18029	-0.001
Mof_C 	C 	0.81504	0.09937	0.20224	-0.008
Mof_N 	N 	0.79854	0.00718	0.0984	-0.111
Mof_N 	N 	0.81192	0.99445	0.14289	-0.108
Mof_H 	H 	0.78575	0.22085	0.15645	0.043
Mof_H 	H 	0.77219	0.23364	0.11162	0.044
Mof_C 	C 	0.57615	0.76251	0.86789	-0.009
Mof_C 	C 	0.59086	0.77015	0.84593	0.001
Mof_C 	C 	0.60747	0.77884	0.81958	-0.007
Mof_C 	C 	0.54751	0.72886	0.80236	0.046
Mof_C 	C 	0.5629	0.73678	0.77746	0.046
Mof_C 	C 	0.63939	0.7953	0.76794	-0.007
Mof_C 	C 	0.70064	0.84638	0.78486	-0.035
Mof_C 	C 	0.68479	0.83822	0.8105	-0.035
Mof_C 	C 	0.65599	0.80332	0.74159	0.001
Mof_C 	C 	0.67117	0.81074	0.71966	-0.01
Mof_N 	N 	0.4711	0.66963	0.80789	-0.109
Mof_N 	N 	0.49827	0.68358	0.76397	-0.109
Mof_H 	H 	0.7606	0.8924	0.77829	0.043
Mof_H 	H 	0.73281	0.87814	0.82317	0.043
Mof_C 	C 	0.00487	0.47714	0.38575	0.005
Mof_C 	C 	0.98971	0.46985	0.40769	-0.011
Mof_C 	C 	0.97321	0.46206	0.43406	-0.007
Mof_C 	C 	0.03493	0.51242	0.45096	-0.033
Mof_C 	C 	0.01918	0.50455	0.47661	-0.03
Mof_C 	C 	0.94148	0.44617	0.48573	-0.012
Mof_C 	C 	0.88106	0.39689	0.46852	0.047
Mof_C 	C 	0.89636	0.40454	0.4436	0.044
Mof_C 	C 	0.92498	0.43776	0.51209	0.002
Mof_C 	C 	0.91038	0.43033	0.53406	-0.011
Mof_H 	H 	0.09519	0.55767	0.44437	0.043
Mof_H 	H 	0.06758	0.54391	0.48926	0.042
Mof_N 	N 	0.80425	0.33865	0.47407	-0.109
Mof_N 	N 	0.83125	0.35212	0.43014	-0.109
Mof_C 	C 	0.24669	0.09789	0.20215	-0.01
Mof_C 	C 	0.26178	0.1054	0.18021	0.002
Mof_C 	C 	0.27816	0.11342	0.15383	-0.007
Mof_C 	C 	0.21674	0.06233	0.13696	-0.035
Mof_C 	C 	0.2324	0.07021	0.11131	-0.035
Mof_C 	C 	0.30971	0.12932	0.10215	-0.007
Mof_C 	C 	0.36982	0.17943	0.11933	0.046
Mof_C 	C 	0.3546	0.17177	0.14425	0.046
Mof_C 	C 	0.32617	0.13748	0.07578	0.001
Mof_C 	C 	0.34065	0.14462	0.05381	-0.01
Mof_H 	H 	0.15679	0.01648	0.14358	0.042
Mof_H 	H 	0.18425	0.03023	0.09868	0.042
Mof_N 	N 	0.44625	0.23846	0.11373	-0.109
Mof_N 	N 	0.4194	0.22497	0.15768	-0.109
Mof_S 	S 	0.41683	0.62249	0.78211	0.079
Mof_S 	S 	0.94626	0.09038	0.80446	0.078
Mof_S 	S 	0.3	0.74841	0.78234	0.088
Mof_S 	S 	0.28118	0.75637	0.47143	0.077
Mof_S 	S 	0.62437	0.41095	0.4491	0.087
Mof_S 	S 	0.74947	0.29213	0.44831	0.079
Mof_S 	S 	0.81197	0.94254	0.11721	0.079
Mof_S 	S 	0.74447	0.40691	0.13908	0.078
Mof_S 	S 	0.50077	0.28571	0.13947	0.088
_end
