data_functionalizedCrystal
_audit_creation_method	'EQeq! by Chris Wilmer'
_symmetry_space_group_name_H-M	'P1'
_symmetry_Int_Tables_number	1
_symmetry_cell_setting	triclinic
loop_
_symmetry_equiv_pos_as_xyz
  x,y,z
_cell_length_a	10.9188
_cell_length_b	10.9634
_cell_length_c	11.0564
_cell_angle_alpha	83.336
_cell_angle_beta	87.083
_cell_angle_gamma	70.191
loop_
_atom_site_label
_atom_site_type_symbol
_atom_site_fract_x
_atom_site_fract_y
_atom_site_fract_z
_atom_site_charge
Mof_Co	Co	0.09333	0.89525	0.25072	1.151
Mof_Co	Co	0.85068	0.01668	0.48226	1.119
Mof_Co	Co	0.97107	0.86351	0.00171	1.116
Mof_N 	N 	0.8003	0.9374	0.3349	-0.208
Mof_N 	N 	0.8819	0.932	0.239	-0.191
Mof_N 	N 	0.8345	0.9024	0.1409	-0.226
Mof_N 	N 	0.0762	0.1776	0.1636	-0.216
Mof_N 	N 	0.0936	0.0864	0.2571	-0.189
Mof_N 	N 	0.1137	0.1246	0.3611	-0.211
Mof_C 	C 	0.6958	0.9103	0.2966	0.04
Mof_C 	C 	0.7177	0.8891	0.1736	0.072
Mof_C 	C 	0.6256	0.8624	0.1056	-0.132
Mof_H 	H 	0.6396	0.8497	0.0218	0.059
Mof_C 	C 	0.5153	0.8555	0.1661	0.027
Mof_H 	H 	0.4521	0.8357	0.1236	0.02
Mof_C 	C 	0.4927	0.8772	0.2907	-0.086
Mof_C 	C 	0.5811	0.905	0.3583	-0.054
Mof_H 	H 	0.5655	0.9197	0.4415	0.059
Mof_C 	C 	0.3643	0.8739	0.3477	0.354
Mof_C 	C 	0.0863	0.2858	0.2104	0.037
Mof_C 	C 	0.1084	0.252	0.335	0.067
Mof_C 	C 	0.1211	0.3399	0.412	-0.131
Mof_H 	H 	0.1358	0.3164	0.4968	0.063
Mof_C 	C 	0.1109	0.4623	0.3572	0.028
Mof_H 	H 	0.1181	0.5254	0.406	0.026
Mof_C 	C 	0.09	0.4974	0.2307	-0.087
Mof_C 	C 	0.0779	0.4108	0.1554	-0.054
Mof_H 	H 	0.0644	0.4341	0.0704	0.061
Mof_C 	C 	0.0823	0.6341	0.18	0.365
Mof_O 	O 	0.1015	0.9299	0.0666	-0.739
Mof_H 	H 	0.182	0.879	0.035	0.181
Mof_O 	O 	0.046	0.9002	0.4296	-0.723
Mof_H 	H 	0.064	0.814	0.47	0.169
Mof_O 	O 	0.3377	0.9088	0.4542	-0.446
Mof_O 	O 	0.2947	0.8352	0.285	-0.433
Mof_O 	O 	0.0484	0.6706	0.0702	-0.449
Mof_O 	O 	0.1081	0.7014	0.2525	-0.442
Mof_Co	Co	0.90667	0.10475	0.74928	1.152
Mof_Co	Co	0.14932	0.98332	0.51774	1.12
Mof_Co	Co	0.02893	0.13649	0.99829	1.117
Mof_N 	N 	0.1997	0.0626	0.6651	-0.207
Mof_N 	N 	0.1181	0.068	0.761	-0.19
Mof_N 	N 	0.1655	0.0976	0.8591	-0.225
Mof_N 	N 	0.9238	0.8224	0.8364	-0.216
Mof_N 	N 	0.9064	0.9136	0.7429	-0.189
Mof_N 	N 	0.8863	0.8754	0.6389	-0.211
Mof_C 	C 	0.3042	0.0897	0.7034	0.04
Mof_C 	C 	0.2823	0.1109	0.8264	0.072
Mof_C 	C 	0.3744	0.1376	0.8944	-0.132
Mof_H 	H 	0.3604	0.1503	0.9782	0.059
Mof_C 	C 	0.4847	0.1445	0.8339	0.027
Mof_H 	H 	0.5479	0.1643	0.8764	0.02
Mof_C 	C 	0.5073	0.1228	0.7093	-0.086
Mof_C 	C 	0.4189	0.095	0.6417	-0.054
Mof_H 	H 	0.4345	0.0803	0.5585	0.059
Mof_C 	C 	0.6357	0.1261	0.6523	0.354
Mof_C 	C 	0.9137	0.7142	0.7896	0.037
Mof_C 	C 	0.8916	0.748	0.665	0.067
Mof_C 	C 	0.8789	0.6601	0.588	-0.131
Mof_H 	H 	0.8642	0.6836	0.5032	0.063
Mof_C 	C 	0.8891	0.5377	0.6428	0.028
Mof_H 	H 	0.8819	0.4746	0.594	0.026
Mof_C 	C 	0.91	0.5026	0.7693	-0.087
Mof_C 	C 	0.9221	0.5892	0.8446	-0.054
Mof_H 	H 	0.9356	0.5659	0.9296	0.061
Mof_C 	C 	0.9177	0.3659	0.82	0.365
Mof_O 	O 	0.8985	0.0701	0.9334	-0.739
Mof_H 	H 	0.818	0.121	0.965	0.181
Mof_O 	O 	0.954	0.0998	0.5704	-0.723
Mof_H 	H 	0.936	0.186	0.53	0.169
Mof_O 	O 	0.6623	0.0912	0.5458	-0.446
Mof_O 	O 	0.7053	0.1648	0.715	-0.433
Mof_O 	O 	0.9516	0.3294	0.9298	-0.449
Mof_O 	O 	0.8919	0.2986	0.7475	-0.442
_end
