data_functionalizedCrystal
_audit_creation_method	'EQeq! by Chris Wilmer'
_symmetry_space_group_name_H-M	'P1'
_symmetry_Int_Tables_number	1
_symmetry_cell_setting	triclinic
loop_
_symmetry_equiv_pos_as_xyz
  x,y,z
_cell_length_a	18.3364
_cell_length_b	18.5355
_cell_length_c	18.5355
_cell_angle_alpha	70.3122
_cell_angle_beta	70.7462
_cell_angle_gamma	109.254
loop_
_atom_site_label
_atom_site_type_symbol
_atom_site_fract_x
_atom_site_fract_y
_atom_site_fract_z
_atom_site_charge
Mof_Co	Co	0.98403	0.92876	0.57629	1.151
Mof_Co	Co	0.56032	0.57629	0.49495	1.151
Mof_Co	Co	0.05527	0.49495	0.92876	1.15
Mof_Co	Co	0.93968	0.49495	0.57629	1.152
Mof_Co	Co	0.44473	0.92876	0.49495	1.152
Mof_Co	Co	0.51597	0.57629	0.92876	1.152
Mof_Co	Co	0.01597	0.07124	0.42371	1.152
Mof_Co	Co	0.43968	0.42371	0.50505	1.152
Mof_Co	Co	0.94473	0.50505	0.07124	1.15
Mof_Co	Co	0.06032	0.50505	0.42371	1.152
Mof_Co	Co	0.55527	0.07124	0.50505	1.152
Mof_Co	Co	0.48403	0.42371	0.07124	1.152
Mof_H 	H 	0.8408	0.8289	0.753	0.071
Mof_H 	H 	0.2846	0.2799	0.3478	0.033
Mof_H 	H 	0.0664	0.756	0.8394	0.045
Mof_H 	H 	0.1627	0.8265	0.6894	0.067
Mof_H 	H 	0.1204	0.8903	0.5906	0.011
Mof_H 	H 	0.9177	0.7064	0.9626	0.052
Mof_H 	H 	0.742	0.7573	0.9028	0.031
Mof_H 	H 	0.1313	0.9919	0.2338	0.024
Mof_H 	H 	0.7808	0.6977	0.0073	0.055
Mof_H 	H 	0.5938	0.753	0.4181	0.072
Mof_H 	H 	0.6324	0.3478	0.3723	0.033
Mof_H 	H 	0.9058	0.8394	0.4046	0.044
Mof_H 	H 	0.8521	0.6894	0.4841	0.068
Mof_H 	H 	0.711	0.5906	0.5191	0.01
Mof_H 	H 	0.8803	0.9626	0.331	0.048
Mof_H 	H 	0.6448	0.9028	0.3399	0.029
Mof_H 	H 	0.3651	0.2338	0.7743	0.024
Mof_H 	H 	0.7881	0.0073	0.295	0.059
Mof_H 	H 	0.0119	0.4181	0.8289	0.07
Mof_H 	H 	0.0047	0.3723	0.2799	0.033
Mof_H 	H 	0.3104	0.4046	0.756	0.044
Mof_H 	H 	0.3362	0.4841	0.8265	0.067
Mof_H 	H 	0.2301	0.5191	0.8903	0.01
Mof_H 	H 	0.2113	0.331	0.7064	0.05
Mof_H 	H 	0.9847	0.3399	0.7573	0.033
Mof_H 	H 	0.1394	0.7743	0.9919	0.023
Mof_H 	H 	0.0831	0.295	0.6977	0.057
Mof_H 	H 	0.9062	0.4181	0.753	0.071
Mof_H 	H 	0.8676	0.3723	0.3478	0.033
Mof_H 	H 	0.5942	0.4046	0.8394	0.045
Mof_H 	H 	0.6479	0.4841	0.6894	0.067
Mof_H 	H 	0.789	0.5191	0.5906	0.011
Mof_H 	H 	0.6197	0.331	0.9626	0.05
Mof_H 	H 	0.8552	0.3399	0.9028	0.031
Mof_H 	H 	0.1349	0.7743	0.2338	0.024
Mof_H 	H 	0.7119	0.295	0.0073	0.055
Mof_H 	H 	0.4881	0.8289	0.4181	0.072
Mof_H 	H 	0.4953	0.2799	0.3723	0.033
Mof_H 	H 	0.1896	0.756	0.4046	0.044
Mof_H 	H 	0.1638	0.8265	0.4841	0.068
Mof_H 	H 	0.2699	0.8903	0.5191	0.01
Mof_H 	H 	0.2887	0.7064	0.331	0.049
Mof_H 	H 	0.5153	0.7573	0.3399	0.029
Mof_H 	H 	0.3606	0.9919	0.7743	0.024
Mof_H 	H 	0.4169	0.6977	0.295	0.059
Mof_H 	H 	0.6592	0.753	0.8289	0.072
Mof_H 	H 	0.2154	0.3478	0.2799	0.033
Mof_H 	H 	0.4336	0.8394	0.756	0.044
Mof_H 	H 	0.3373	0.6894	0.8265	0.068
Mof_H 	H 	0.3796	0.5906	0.8903	0.01
Mof_H 	H 	0.5823	0.9626	0.7064	0.048
Mof_H 	H 	0.758	0.9028	0.7573	0.028
Mof_H 	H 	0.3687	0.2338	0.9919	0.024
Mof_H 	H 	0.7192	0.0073	0.6977	0.06
Mof_H 	H 	0.1592	0.1711	0.247	0.071
Mof_H 	H 	0.7154	0.7201	0.6522	0.033
Mof_H 	H 	0.9336	0.244	0.1606	0.045
Mof_H 	H 	0.8373	0.1735	0.3106	0.067
Mof_H 	H 	0.8796	0.1097	0.4094	0.011
Mof_H 	H 	0.0823	0.2936	0.0374	0.052
Mof_H 	H 	0.258	0.2427	0.0972	0.031
Mof_H 	H 	0.8687	0.0081	0.7662	0.024
Mof_H 	H 	0.2192	0.3023	0.9927	0.055
Mof_H 	H 	0.4062	0.247	0.5819	0.072
Mof_H 	H 	0.3676	0.6522	0.6277	0.033
Mof_H 	H 	0.0942	0.1606	0.5954	0.044
Mof_H 	H 	0.1479	0.3106	0.5159	0.068
Mof_H 	H 	0.289	0.4094	0.4809	0.01
Mof_H 	H 	0.1197	0.0374	0.669	0.048
Mof_H 	H 	0.3552	0.0972	0.6601	0.029
Mof_H 	H 	0.6349	0.7662	0.2257	0.024
Mof_H 	H 	0.2119	0.9927	0.705	0.059
Mof_H 	H 	0.9881	0.5819	0.1711	0.07
Mof_H 	H 	0.9953	0.6277	0.7201	0.033
Mof_H 	H 	0.6896	0.5954	0.244	0.044
Mof_H 	H 	0.6638	0.5159	0.1735	0.067
Mof_H 	H 	0.7699	0.4809	0.1097	0.01
Mof_H 	H 	0.7887	0.669	0.2936	0.05
Mof_H 	H 	0.0153	0.6601	0.2427	0.033
Mof_H 	H 	0.8606	0.2257	0.0081	0.023
Mof_H 	H 	0.9169	0.705	0.3023	0.057
Mof_H 	H 	0.0938	0.5819	0.247	0.071
Mof_H 	H 	0.1324	0.6277	0.6522	0.033
Mof_H 	H 	0.4058	0.5954	0.1606	0.045
Mof_H 	H 	0.3521	0.5159	0.3106	0.067
Mof_H 	H 	0.211	0.4809	0.4094	0.011
Mof_H 	H 	0.3803	0.669	0.0374	0.05
Mof_H 	H 	0.1448	0.6601	0.0972	0.031
Mof_H 	H 	0.8651	0.2257	0.7662	0.024
Mof_H 	H 	0.2881	0.705	0.9927	0.055
Mof_H 	H 	0.5119	0.1711	0.5819	0.072
Mof_H 	H 	0.5047	0.7201	0.6277	0.033
Mof_H 	H 	0.8104	0.244	0.5954	0.044
Mof_H 	H 	0.8362	0.1735	0.5159	0.068
Mof_H 	H 	0.7301	0.1097	0.4809	0.01
Mof_H 	H 	0.7113	0.2936	0.669	0.049
Mof_H 	H 	0.4847	0.2427	0.6601	0.029
Mof_H 	H 	0.6394	0.0081	0.2257	0.024
Mof_H 	H 	0.5831	0.3023	0.705	0.059
Mof_H 	H 	0.3408	0.247	0.1711	0.072
Mof_H 	H 	0.7846	0.6522	0.7201	0.033
Mof_H 	H 	0.5664	0.1606	0.244	0.044
Mof_H 	H 	0.6627	0.3106	0.1735	0.068
Mof_H 	H 	0.6204	0.4094	0.1097	0.01
Mof_H 	H 	0.4177	0.0374	0.2936	0.048
Mof_H 	H 	0.242	0.0972	0.2427	0.028
Mof_H 	H 	0.6313	0.7662	0.0081	0.024
Mof_H 	H 	0.2808	0.9927	0.3023	0.06
Mof_H 	H 	0.01795	0.76795	0.4641	0.029
Mof_H 	H 	0.17165	0.92165	0.1567	0.067
Mof_H 	H 	0.48205	0.4641	0.76795	0.029
Mof_H 	H 	0.32835	0.1567	0.92165	0.066
Mof_H 	H 	0.25	0.76795	0.76795	0.03
Mof_H 	H 	0.25	0.92165	0.92165	0.066
Mof_H 	H 	0.98205	0.23205	0.5359	0.029
Mof_H 	H 	0.82835	0.07835	0.8433	0.067
Mof_H 	H 	0.51795	0.5359	0.23205	0.029
Mof_H 	H 	0.67165	0.8433	0.07835	0.066
Mof_H 	H 	0.75	0.23205	0.23205	0.03
Mof_H 	H 	0.75	0.07835	0.07835	0.066
Mof_H 	H 	0.2742	0.0484	0.4758	0.032
Mof_H 	H 	0.428	0.356	0.322	0.07
Mof_H 	H 	0.75	0.4758	0.4758	0.032
Mof_H 	H 	0.75	0.322	0.322	0.07
Mof_H 	H 	0.2258	0.4758	0.0484	0.032
Mof_H 	H 	0.072	0.322	0.356	0.071
Mof_H 	H 	0.7258	0.9516	0.5242	0.032
Mof_H 	H 	0.572	0.644	0.678	0.07
Mof_H 	H 	0.25	0.5242	0.5242	0.032
Mof_H 	H 	0.25	0.678	0.678	0.07
Mof_H 	H 	0.7742	0.5242	0.9516	0.032
Mof_H 	H 	0.928	0.678	0.644	0.071
Mof_C 	C 	0.85755	0.80503	0.79471	-0.121
Mof_C 	C 	0.0504	0.93041	0.40913	0.381
Mof_C 	C 	0.2634	0.15589	0.41801	-0.118
Mof_C 	C 	0.94258	0.81314	0.76595	0.091
Mof_C 	C 	0.31121	0.24829	0.36956	0.046
Mof_C 	C 	0.1682	0.10669	0.44174	0.366
Mof_C 	C 	0.07384	0.88698	0.35685	-0.136
Mof_C 	C 	0.96589	0.77561	0.82904	-0.01
Mof_C 	C 	0.0495	0.78136	0.79846	-0.021
Mof_C 	C 	0.10619	0.82288	0.71071	-0.085
Mof_C 	C 	0.07959	0.86036	0.65201	0.051
Mof_C 	C 	0.90293	0.732	0.91971	-0.032
Mof_C 	C 	0.79922	0.76238	0.88352	0.016
Mof_C 	C 	0.11732	0.93233	0.26513	0.05
Mof_C 	C 	0.82201	0.72629	0.94616	-0.058
Mof_C 	C 	0.65226	0.79471	0.40026	-0.124
Mof_C 	C 	0.45953	0.40913	0.66046	0.379
Mof_C 	C 	0.68141	0.41801	0.4261	-0.118
Mof_C 	C 	0.70853	0.76595	0.42091	0.093
Mof_C 	C 	0.68077	0.36956	0.38215	0.046
Mof_C 	C 	0.60994	0.44174	0.45157	0.366
Mof_C 	C 	0.43069	0.35685	0.75617	-0.136
Mof_C 	C 	0.79493	0.82904	0.39535	-0.017
Mof_C 	C 	0.84796	0.79846	0.42018	-0.015
Mof_C 	C 	0.8169	0.71071	0.46641	-0.089
Mof_C 	C 	0.7316	0.65201	0.48763	0.053
Mof_C 	C 	0.82264	0.91971	0.34829	-0.026
Mof_C 	C 	0.68274	0.88352	0.3541	0.021
Mof_C 	C 	0.38245	0.26513	0.80254	0.049
Mof_C 	C 	0.76817	0.94616	0.32755	-0.066
Mof_C 	C 	0.05252	0.40026	0.80503	-0.12
Mof_C 	C 	0.11999	0.66046	0.93041	0.374
Mof_C 	C 	0.10751	0.4261	0.15589	-0.118
Mof_C 	C 	0.12944	0.42091	0.81314	0.091
Mof_C 	C 	0.06292	0.38215	0.24829	0.046
Mof_C 	C 	0.06151	0.45157	0.10669	0.369
Mof_C 	C 	0.18686	0.75617	0.88698	-0.134
Mof_C 	C 	0.19028	0.39535	0.77561	-0.014
Mof_C 	C 	0.26814	0.42018	0.78136	-0.017
Mof_C 	C 	0.28331	0.46641	0.82288	-0.088
Mof_C 	C 	0.21923	0.48763	0.86036	0.053
Mof_C 	C 	0.17093	0.34829	0.732	-0.029
Mof_C 	C 	0.03684	0.3541	0.76238	0.014
Mof_C 	C 	0.18499	0.80254	0.93233	0.048
Mof_C 	C 	0.09572	0.32755	0.72629	-0.061
Mof_C 	C 	0.84774	0.40026	0.79471	-0.121
Mof_C 	C 	0.04047	0.66046	0.40913	0.38
Mof_C 	C 	0.81859	0.4261	0.41801	-0.118
Mof_C 	C 	0.79147	0.42091	0.76595	0.091
Mof_C 	C 	0.81923	0.38215	0.36956	0.046
Mof_C 	C 	0.89006	0.45157	0.44174	0.366
Mof_C 	C 	0.06931	0.75617	0.35685	-0.136
Mof_C 	C 	0.70507	0.39535	0.82904	-0.014
Mof_C 	C 	0.65204	0.42018	0.79846	-0.017
Mof_C 	C 	0.6831	0.46641	0.71071	-0.087
Mof_C 	C 	0.7684	0.48763	0.65201	0.053
Mof_C 	C 	0.67736	0.34829	0.91971	-0.03
Mof_C 	C 	0.81726	0.3541	0.88352	0.017
Mof_C 	C 	0.11755	0.80254	0.26513	0.05
Mof_C 	C 	0.73183	0.32755	0.94616	-0.059
Mof_C 	C 	0.44748	0.80503	0.40026	-0.124
Mof_C 	C 	0.38001	0.93041	0.66046	0.379
Mof_C 	C 	0.39249	0.15589	0.4261	-0.118
Mof_C 	C 	0.37056	0.81314	0.42091	0.093
Mof_C 	C 	0.43708	0.24829	0.38215	0.046
Mof_C 	C 	0.43849	0.10669	0.45157	0.366
Mof_C 	C 	0.31314	0.88698	0.75617	-0.135
Mof_C 	C 	0.30972	0.77561	0.39535	-0.016
Mof_C 	C 	0.23186	0.78136	0.42018	-0.015
Mof_C 	C 	0.21669	0.82288	0.46641	-0.089
Mof_C 	C 	0.28077	0.86036	0.48763	0.053
Mof_C 	C 	0.32907	0.732	0.34829	-0.026
Mof_C 	C 	0.46316	0.76238	0.3541	0.021
Mof_C 	C 	0.31501	0.93233	0.80254	0.048
Mof_C 	C 	0.40428	0.72629	0.32755	-0.066
Mof_C 	C 	0.64245	0.79471	0.80503	-0.125
Mof_C 	C 	0.4496	0.40913	0.93041	0.379
Mof_C 	C 	0.2366	0.41801	0.15589	-0.118
Mof_C 	C 	0.55742	0.76595	0.81314	0.094
Mof_C 	C 	0.18879	0.36956	0.24829	0.046
Mof_C 	C 	0.3318	0.44174	0.10669	0.366
Mof_C 	C 	0.42616	0.35685	0.88698	-0.136
Mof_C 	C 	0.53411	0.82904	0.77561	-0.017
Mof_C 	C 	0.4505	0.79846	0.78136	-0.015
Mof_C 	C 	0.39381	0.71071	0.82288	-0.089
Mof_C 	C 	0.42041	0.65201	0.86036	0.053
Mof_C 	C 	0.59707	0.91971	0.732	-0.025
Mof_C 	C 	0.70078	0.88352	0.76238	0.022
Mof_C 	C 	0.38268	0.26513	0.93233	0.049
Mof_C 	C 	0.67799	0.94616	0.72629	-0.068
Mof_C 	C 	0.14245	0.19497	0.20529	-0.121
Mof_C 	C 	0.9496	0.06959	0.59087	0.381
Mof_C 	C 	0.7366	0.84411	0.58199	-0.118
Mof_C 	C 	0.05742	0.18686	0.23405	0.091
Mof_C 	C 	0.68879	0.75171	0.63044	0.046
Mof_C 	C 	0.8318	0.89331	0.55826	0.366
Mof_C 	C 	0.92616	0.11302	0.64315	-0.136
Mof_C 	C 	0.03411	0.22439	0.17096	-0.01
Mof_C 	C 	0.9505	0.21864	0.20154	-0.021
Mof_C 	C 	0.89381	0.17712	0.28929	-0.085
Mof_C 	C 	0.92041	0.13964	0.34799	0.051
Mof_C 	C 	0.09707	0.268	0.08029	-0.032
Mof_C 	C 	0.20078	0.23762	0.11648	0.016
Mof_C 	C 	0.88268	0.06767	0.73487	0.05
Mof_C 	C 	0.17799	0.27371	0.05384	-0.058
Mof_C 	C 	0.34774	0.20529	0.59974	-0.124
Mof_C 	C 	0.54047	0.59087	0.33954	0.379
Mof_C 	C 	0.31859	0.58199	0.5739	-0.118
Mof_C 	C 	0.29147	0.23405	0.57909	0.093
Mof_C 	C 	0.31923	0.63044	0.61785	0.046
Mof_C 	C 	0.39006	0.55826	0.54843	0.366
Mof_C 	C 	0.56931	0.64315	0.24383	-0.136
Mof_C 	C 	0.20507	0.17096	0.60465	-0.017
Mof_C 	C 	0.15204	0.20154	0.57982	-0.015
Mof_C 	C 	0.1831	0.28929	0.53359	-0.089
Mof_C 	C 	0.2684	0.34799	0.51237	0.053
Mof_C 	C 	0.17736	0.08029	0.65171	-0.026
Mof_C 	C 	0.31726	0.11648	0.6459	0.021
Mof_C 	C 	0.61755	0.73487	0.19746	0.049
Mof_C 	C 	0.23183	0.05384	0.67245	-0.066
Mof_C 	C 	0.94748	0.59974	0.19497	-0.12
Mof_C 	C 	0.88001	0.33954	0.06959	0.374
Mof_C 	C 	0.89249	0.5739	0.84411	-0.118
Mof_C 	C 	0.87056	0.57909	0.18686	0.091
Mof_C 	C 	0.93708	0.61785	0.75171	0.046
Mof_C 	C 	0.93849	0.54843	0.89331	0.369
Mof_C 	C 	0.81314	0.24383	0.11302	-0.134
Mof_C 	C 	0.80972	0.60465	0.22439	-0.014
Mof_C 	C 	0.73186	0.57982	0.21864	-0.017
Mof_C 	C 	0.71669	0.53359	0.17712	-0.088
Mof_C 	C 	0.78077	0.51237	0.13964	0.053
Mof_C 	C 	0.82907	0.65171	0.268	-0.029
Mof_C 	C 	0.96316	0.6459	0.23762	0.014
Mof_C 	C 	0.81501	0.19746	0.06767	0.048
Mof_C 	C 	0.90428	0.67245	0.27371	-0.061
Mof_C 	C 	0.15226	0.59974	0.20529	-0.121
Mof_C 	C 	0.95953	0.33954	0.59087	0.38
Mof_C 	C 	0.18141	0.5739	0.58199	-0.118
Mof_C 	C 	0.20853	0.57909	0.23405	0.091
Mof_C 	C 	0.18077	0.61785	0.63044	0.046
Mof_C 	C 	0.10994	0.54843	0.55826	0.366
Mof_C 	C 	0.93069	0.24383	0.64315	-0.136
Mof_C 	C 	0.29493	0.60465	0.17096	-0.014
Mof_C 	C 	0.34796	0.57982	0.20154	-0.017
Mof_C 	C 	0.3169	0.53359	0.28929	-0.087
Mof_C 	C 	0.2316	0.51237	0.34799	0.053
Mof_C 	C 	0.32264	0.65171	0.08029	-0.03
Mof_C 	C 	0.18274	0.6459	0.11648	0.017
Mof_C 	C 	0.88245	0.19746	0.73487	0.05
Mof_C 	C 	0.26817	0.67245	0.05384	-0.059
Mof_C 	C 	0.55252	0.19497	0.59974	-0.124
Mof_C 	C 	0.61999	0.06959	0.33954	0.379
Mof_C 	C 	0.60751	0.84411	0.5739	-0.118
Mof_C 	C 	0.62944	0.18686	0.57909	0.093
Mof_C 	C 	0.56292	0.75171	0.61785	0.046
Mof_C 	C 	0.56151	0.89331	0.54843	0.366
Mof_C 	C 	0.68686	0.11302	0.24383	-0.135
Mof_C 	C 	0.69028	0.22439	0.60465	-0.016
Mof_C 	C 	0.76814	0.21864	0.57982	-0.015
Mof_C 	C 	0.78331	0.17712	0.53359	-0.089
Mof_C 	C 	0.71923	0.13964	0.51237	0.053
Mof_C 	C 	0.67093	0.268	0.65171	-0.026
Mof_C 	C 	0.53684	0.23762	0.6459	0.021
Mof_C 	C 	0.68499	0.06767	0.19746	0.048
Mof_C 	C 	0.59572	0.27371	0.67245	-0.066
Mof_C 	C 	0.35755	0.20529	0.19497	-0.125
Mof_C 	C 	0.5504	0.59087	0.06959	0.379
Mof_C 	C 	0.7634	0.58199	0.84411	-0.118
Mof_C 	C 	0.44258	0.23405	0.18686	0.094
Mof_C 	C 	0.81121	0.63044	0.75171	0.046
Mof_C 	C 	0.6682	0.55826	0.89331	0.366
Mof_C 	C 	0.57384	0.64315	0.11302	-0.136
Mof_C 	C 	0.46589	0.17096	0.22439	-0.017
Mof_C 	C 	0.5495	0.20154	0.21864	-0.015
Mof_C 	C 	0.60619	0.28929	0.17712	-0.089
Mof_C 	C 	0.57959	0.34799	0.13964	0.053
Mof_C 	C 	0.40293	0.08029	0.268	-0.025
Mof_C 	C 	0.29922	0.11648	0.23762	0.022
Mof_C 	C 	0.61732	0.73487	0.06767	0.049
Mof_C 	C 	0.32201	0.05384	0.27371	-0.068
Mof_C 	C 	0.0493	0.7993	0.4014	0.067
Mof_C 	C 	0.14029	0.89029	0.21942	-0.114
Mof_C 	C 	0.4507	0.4014	0.7993	0.066
Mof_C 	C 	0.35971	0.21942	0.89029	-0.114
Mof_C 	C 	0.25	0.7993	0.7993	0.065
Mof_C 	C 	0.25	0.89029	0.89029	-0.113
Mof_C 	C 	0.9507	0.2007	0.5986	0.067
Mof_C 	C 	0.85971	0.10971	0.78058	-0.114
Mof_C 	C 	0.5493	0.5986	0.2007	0.066
Mof_C 	C 	0.64029	0.78058	0.10971	-0.114
Mof_C 	C 	0.75	0.2007	0.2007	0.065
Mof_C 	C 	0.75	0.10971	0.10971	-0.113
Mof_C 	C 	0.30554	0.11108	0.44446	0.063
Mof_C 	C 	0.39669	0.29338	0.35331	-0.107
Mof_C 	C 	0.75	0.44446	0.44446	0.063
Mof_C 	C 	0.75	0.35331	0.35331	-0.107
Mof_C 	C 	0.19446	0.44446	0.11108	0.063
Mof_C 	C 	0.10331	0.35331	0.29338	-0.107
Mof_C 	C 	0.69446	0.88892	0.55554	0.063
Mof_C 	C 	0.60331	0.70662	0.64669	-0.107
Mof_C 	C 	0.25	0.55554	0.55554	0.063
Mof_C 	C 	0.25	0.64669	0.64669	-0.107
Mof_C 	C 	0.80554	0.55554	0.88892	0.063
Mof_C 	C 	0.89669	0.64669	0.70662	-0.107
Mof_N 	N 	0.00181	0.85684	0.67639	-0.229
Mof_N 	N 	0.6782	0.67639	0.46677	-0.23
Mof_N 	N 	0.14497	0.46677	0.85684	-0.23
Mof_N 	N 	0.8218	0.46677	0.67639	-0.229
Mof_N 	N 	0.35503	0.85684	0.46677	-0.23
Mof_N 	N 	0.49819	0.67639	0.85684	-0.23
Mof_N 	N 	0.99819	0.14316	0.32361	-0.229
Mof_N 	N 	0.3218	0.32361	0.53323	-0.23
Mof_N 	N 	0.85503	0.53323	0.14316	-0.23
Mof_N 	N 	0.1782	0.53323	0.32361	-0.229
Mof_N 	N 	0.64497	0.14316	0.53323	-0.23
Mof_N 	N 	0.50181	0.32361	0.14316	-0.23
Mof_O 	O 	0.11916	0.03048	0.50869	-0.438
Mof_O 	O 	0.03058	0.89167	0.48871	-0.452
Mof_O 	O 	0.14199	0.14482	0.39359	-0.435
Mof_O 	O 	0.05053	0.00084	0.37036	-0.456
Mof_O 	O 	0.62785	0.50869	0.46083	-0.438
Mof_O 	O 	0.51929	0.48871	0.61962	-0.452
Mof_O 	O 	0.53558	0.39359	0.46159	-0.435
Mof_O 	O 	0.42089	0.37036	0.6288	-0.456
Mof_O 	O 	0.08868	0.46083	0.03048	-0.437
Mof_O 	O 	0.13891	0.61962	0.89167	-0.451
Mof_O 	O 	0.99717	0.46159	0.14482	-0.437
Mof_O 	O 	0.04969	0.6288	0.00084	-0.451
Mof_O 	O 	0.87215	0.46083	0.50869	-0.438
Mof_O 	O 	0.98071	0.61962	0.48871	-0.452
Mof_O 	O 	0.96442	0.46159	0.39359	-0.435
Mof_O 	O 	0.07911	0.6288	0.37036	-0.456
Mof_O 	O 	0.41132	0.03048	0.46083	-0.438
Mof_O 	O 	0.36109	0.89167	0.61962	-0.452
Mof_O 	O 	0.50283	0.14482	0.46159	-0.435
Mof_O 	O 	0.45031	0.00084	0.6288	-0.455
Mof_O 	O 	0.38084	0.50869	0.03048	-0.437
Mof_O 	O 	0.46942	0.48871	0.89167	-0.452
Mof_O 	O 	0.35801	0.39359	0.14482	-0.435
Mof_O 	O 	0.44947	0.37036	0.00084	-0.456
Mof_O 	O 	0.88084	0.96952	0.49131	-0.438
Mof_O 	O 	0.96942	0.10833	0.51129	-0.452
Mof_O 	O 	0.85801	0.85518	0.60641	-0.435
Mof_O 	O 	0.94947	0.99916	0.62964	-0.456
Mof_O 	O 	0.37215	0.49131	0.53917	-0.438
Mof_O 	O 	0.48071	0.51129	0.38038	-0.452
Mof_O 	O 	0.46442	0.60641	0.53841	-0.435
Mof_O 	O 	0.57911	0.62964	0.3712	-0.456
Mof_O 	O 	0.91132	0.53917	0.96952	-0.437
Mof_O 	O 	0.86109	0.38038	0.10833	-0.451
Mof_O 	O 	0.00283	0.53841	0.85518	-0.437
Mof_O 	O 	0.95031	0.3712	0.99916	-0.451
Mof_O 	O 	0.12785	0.53917	0.49131	-0.438
Mof_O 	O 	0.01929	0.38038	0.51129	-0.452
Mof_O 	O 	0.03558	0.53841	0.60641	-0.435
Mof_O 	O 	0.92089	0.3712	0.62964	-0.456
Mof_O 	O 	0.58868	0.96952	0.53917	-0.438
Mof_O 	O 	0.63891	0.10833	0.38038	-0.452
Mof_O 	O 	0.49717	0.85518	0.53841	-0.435
Mof_O 	O 	0.54969	0.99916	0.3712	-0.455
Mof_O 	O 	0.61916	0.49131	0.96952	-0.437
Mof_O 	O 	0.53058	0.51129	0.10833	-0.452
Mof_O 	O 	0.64199	0.60641	0.85518	-0.435
Mof_O 	O 	0.55053	0.62964	0.99916	-0.456
_end
