data_functionalizedCrystal
_audit_creation_method	'EQeq! by Chris Wilmer'
_symmetry_space_group_name_H-M	'P1'
_symmetry_Int_Tables_number	1
_symmetry_cell_setting	triclinic
loop_
_symmetry_equiv_pos_as_xyz
  x,y,z
_cell_length_a	17.398
_cell_length_b	17.441
_cell_length_c	35.188
_cell_angle_alpha	90
_cell_angle_beta	90
_cell_angle_gamma	90
loop_
_atom_site_label
_atom_site_type_symbol
_atom_site_fract_x
_atom_site_fract_y
_atom_site_fract_z
_atom_site_charge
Mof_Zn	Zn	0.41886	0.20051	0.79646	1.222
Mof_Zn	Zn	0.82094	0.19739	0.91327	1.226
Mof_Zn	Zn	0.98725	0.18532	0.87134	1.229
Mof_Zn	Zn	0.97359	0.13489	0.96392	1.223
Mof_Zn	Zn	0.91886	0.29949	0.20354	1.222
Mof_Zn	Zn	0.32094	0.30261	0.08673	1.226
Mof_Zn	Zn	0.48725	0.31468	0.12866	1.23
Mof_Zn	Zn	0.47359	0.36511	0.03608	1.224
Mof_Zn	Zn	0.58114	0.79949	0.29646	1.222
Mof_Zn	Zn	0.17906	0.80261	0.41327	1.226
Mof_Zn	Zn	0.01275	0.81468	0.37134	1.229
Mof_Zn	Zn	0.02641	0.86511	0.46392	1.223
Mof_Zn	Zn	0.08114	0.70051	0.70354	1.222
Mof_Zn	Zn	0.67906	0.69739	0.58673	1.226
Mof_Zn	Zn	0.51275	0.68532	0.62866	1.231
Mof_Zn	Zn	0.52641	0.63489	0.53608	1.225
Mof_Zn	Zn	0.58114	0.79949	0.20354	1.223
Mof_Zn	Zn	0.17906	0.80261	0.08673	1.227
Mof_Zn	Zn	0.01275	0.81468	0.12866	1.23
Mof_Zn	Zn	0.02641	0.86511	0.03608	1.224
Mof_Zn	Zn	0.08114	0.70051	0.79646	1.223
Mof_Zn	Zn	0.67906	0.69739	0.91327	1.227
Mof_Zn	Zn	0.51275	0.68532	0.87134	1.231
Mof_Zn	Zn	0.52641	0.63489	0.96392	1.225
Mof_Zn	Zn	0.41886	0.20051	0.70354	1.223
Mof_Zn	Zn	0.82094	0.19739	0.58673	1.227
Mof_Zn	Zn	0.98725	0.18532	0.62866	1.23
Mof_Zn	Zn	0.97359	0.13489	0.53608	1.224
Mof_Zn	Zn	0.91886	0.29949	0.29646	1.223
Mof_Zn	Zn	0.32094	0.30261	0.41327	1.227
Mof_Zn	Zn	0.48725	0.31468	0.37134	1.231
Mof_Zn	Zn	0.47359	0.36511	0.46392	1.225
Mof_Zn	Zn	0.38031	0.0426	0.75	1.207
Mof_Zn	Zn	0.88031	0.4574	0.25	1.207
Mof_Zn	Zn	0.61969	0.9574	0.25	1.207
Mof_Zn	Zn	0.11969	0.5426	0.75	1.207
Mof_H 	H 	0.5122	0.9195	0.8342	0.022
Mof_H 	H 	0.7101	0.9305	0.8934	0.025
Mof_H 	H 	0.6205	0.1193	0.8474	0.02
Mof_H 	H 	0.0099	0.928	0.8065	0.027
Mof_H 	H 	0.4031	0.2663	0.9416	0.014
Mof_H 	H 	0.1953	0.2359	0.9867	0.017
Mof_H 	H 	0.2264	0.2047	0.8751	0.032
Mof_H 	H 	0.0122	0.5805	0.1658	0.023
Mof_H 	H 	0.2101	0.5695	0.1066	0.026
Mof_H 	H 	0.1205	0.3807	0.1526	0.021
Mof_H 	H 	0.5099	0.572	0.1935	0.027
Mof_H 	H 	0.9031	0.2337	0.0584	0.013
Mof_H 	H 	0.6953	0.2641	0.0133	0.017
Mof_H 	H 	0.7264	0.2953	0.1249	0.032
Mof_H 	H 	0.4878	0.0805	0.3342	0.022
Mof_H 	H 	0.2899	0.0695	0.3934	0.025
Mof_H 	H 	0.3795	0.8807	0.3474	0.02
Mof_H 	H 	0.9901	0.072	0.3065	0.027
Mof_H 	H 	0.5969	0.7337	0.4416	0.014
Mof_H 	H 	0.8047	0.7641	0.4867	0.017
Mof_H 	H 	0.7736	0.7953	0.3751	0.032
Mof_H 	H 	0.9878	0.4195	0.6658	0.023
Mof_H 	H 	0.7899	0.4305	0.6066	0.026
Mof_H 	H 	0.8795	0.6193	0.6526	0.021
Mof_H 	H 	0.4901	0.428	0.6935	0.027
Mof_H 	H 	0.0969	0.7663	0.5584	0.013
Mof_H 	H 	0.3047	0.7359	0.5133	0.017
Mof_H 	H 	0.2736	0.7047	0.6249	0.032
Mof_H 	H 	0.4878	0.0805	0.1658	0.022
Mof_H 	H 	0.2899	0.0695	0.1066	0.025
Mof_H 	H 	0.3795	0.8807	0.1526	0.02
Mof_H 	H 	0.9901	0.072	0.1935	0.027
Mof_H 	H 	0.5969	0.7337	0.0584	0.014
Mof_H 	H 	0.8047	0.7641	0.0133	0.017
Mof_H 	H 	0.7736	0.7953	0.1249	0.032
Mof_H 	H 	0.9878	0.4195	0.8342	0.023
Mof_H 	H 	0.7899	0.4305	0.8934	0.026
Mof_H 	H 	0.8795	0.6193	0.8474	0.021
Mof_H 	H 	0.4901	0.428	0.8065	0.027
Mof_H 	H 	0.0969	0.7663	0.9416	0.013
Mof_H 	H 	0.3047	0.7359	0.9867	0.017
Mof_H 	H 	0.2736	0.7047	0.8751	0.032
Mof_H 	H 	0.5122	0.9195	0.6658	0.022
Mof_H 	H 	0.7101	0.9305	0.6066	0.025
Mof_H 	H 	0.6205	0.1193	0.6526	0.02
Mof_H 	H 	0.0099	0.928	0.6935	0.027
Mof_H 	H 	0.4031	0.2663	0.5584	0.014
Mof_H 	H 	0.1953	0.2359	0.5133	0.017
Mof_H 	H 	0.2264	0.2047	0.6249	0.032
Mof_H 	H 	0.0122	0.5805	0.3342	0.023
Mof_H 	H 	0.2101	0.5695	0.3934	0.026
Mof_H 	H 	0.1205	0.3807	0.3474	0.021
Mof_H 	H 	0.5099	0.572	0.3065	0.027
Mof_H 	H 	0.9031	0.2337	0.4416	0.013
Mof_H 	H 	0.6953	0.2641	0.4867	0.017
Mof_H 	H 	0.7264	0.2953	0.3751	0.032
Mof_H 	H 	0.9778	0.1256	0.75	0.042
Mof_H 	H 	0.4778	0.3744	0.25	0.042
Mof_H 	H 	0.0222	0.8744	0.25	0.042
Mof_H 	H 	0.5222	0.6256	0.75	0.042
Mof_C 	C 	0.4987	0.063	0.8122	0.448
Mof_C 	C 	0.606	0.8273	0.87421	0.434
Mof_C 	C 	0.739	0.0778	0.89015	0.35
Mof_C 	C 	0.5595	0.0251	0.8361	-0.182
Mof_C 	C 	0.5537	0.9472	0.8436	0.106
Mof_C 	C 	0.61	0.91	0.86518	-0.174
Mof_C 	C 	0.6712	0.9541	0.87965	0.087
Mof_C 	C 	0.6738	0.0324	0.87353	-0.151
Mof_C 	C 	0.6182	0.0668	0.85169	0.101
Mof_C 	C 	0.9898	0.0759	0.82117	0.354
Mof_C 	C 	0.9953	0.0331	0.78437	-0.133
Mof_C 	C 	0.0076	0.9549	0.7837	0.081
Mof_C 	C 	0.113	0.1977	0.9242	0.426
Mof_C 	C 	0.3348	0.2753	0.00832	0.424
Mof_C 	C 	0.3764	0.2333	0.86934	0.363
Mof_C 	C 	0.3237	0.2333	0.90247	-0.148
Mof_C 	C 	0.3515	0.2535	0.9386	0.09
Mof_C 	C 	0.3028	0.2546	0.96998	-0.172
Mof_C 	C 	0.2274	0.2358	0.96557	0.104
Mof_C 	C 	0.1971	0.2164	0.93013	-0.161
Mof_C 	C 	0.2461	0.2164	0.89902	0.091
Mof_C 	C 	0.9906	0.9793	0.98102	0.217
Mof_C 	C 	0.9987	0.437	0.1878	0.446
Mof_C 	C 	0.106	0.6727	0.12579	0.433
Mof_C 	C 	0.239	0.4222	0.10985	0.349
Mof_C 	C 	0.0595	0.4749	0.1639	-0.18
Mof_C 	C 	0.0537	0.5528	0.1564	0.105
Mof_C 	C 	0.11	0.59	0.13482	-0.172
Mof_C 	C 	0.1712	0.5459	0.12035	0.085
Mof_C 	C 	0.1738	0.4676	0.12647	-0.149
Mof_C 	C 	0.1182	0.4332	0.14831	0.099
Mof_C 	C 	0.4898	0.4241	0.17883	0.355
Mof_C 	C 	0.4953	0.4669	0.21563	-0.133
Mof_C 	C 	0.5076	0.5451	0.2163	0.082
Mof_C 	C 	0.613	0.3023	0.0758	0.426
Mof_C 	C 	0.8348	0.2247	0.99168	0.424
Mof_C 	C 	0.8764	0.2667	0.13066	0.363
Mof_C 	C 	0.8237	0.2667	0.09753	-0.149
Mof_C 	C 	0.8515	0.2465	0.0614	0.091
Mof_C 	C 	0.8028	0.2454	0.03002	-0.172
Mof_C 	C 	0.7274	0.2642	0.03443	0.104
Mof_C 	C 	0.6971	0.2836	0.06987	-0.162
Mof_C 	C 	0.7461	0.2836	0.10098	0.092
Mof_C 	C 	0.4906	0.5207	0.01898	0.215
Mof_C 	C 	0.5013	0.937	0.3122	0.448
Mof_C 	C 	0.394	0.1727	0.37421	0.434
Mof_C 	C 	0.261	0.9222	0.39015	0.35
Mof_C 	C 	0.4405	0.9749	0.3361	-0.182
Mof_C 	C 	0.4463	0.0528	0.3436	0.106
Mof_C 	C 	0.39	0.09	0.36518	-0.174
Mof_C 	C 	0.3288	0.0459	0.37965	0.087
Mof_C 	C 	0.3262	0.9676	0.37353	-0.151
Mof_C 	C 	0.3818	0.9332	0.35169	0.101
Mof_C 	C 	0.0102	0.9241	0.32117	0.354
Mof_C 	C 	0.0047	0.9669	0.28437	-0.133
Mof_C 	C 	0.9924	0.0451	0.2837	0.081
Mof_C 	C 	0.887	0.8023	0.4242	0.426
Mof_C 	C 	0.6652	0.7247	0.50832	0.424
Mof_C 	C 	0.6236	0.7667	0.36934	0.363
Mof_C 	C 	0.6763	0.7667	0.40247	-0.148
Mof_C 	C 	0.6485	0.7465	0.4386	0.091
Mof_C 	C 	0.6972	0.7454	0.46998	-0.172
Mof_C 	C 	0.7726	0.7642	0.46557	0.104
Mof_C 	C 	0.8029	0.7836	0.43013	-0.162
Mof_C 	C 	0.7539	0.7836	0.39902	0.091
Mof_C 	C 	0.0094	0.0207	0.48102	0.217
Mof_C 	C 	0.0013	0.563	0.6878	0.446
Mof_C 	C 	0.894	0.3273	0.62579	0.433
Mof_C 	C 	0.761	0.5778	0.60985	0.349
Mof_C 	C 	0.9405	0.5251	0.6639	-0.18
Mof_C 	C 	0.9463	0.4472	0.6564	0.105
Mof_C 	C 	0.89	0.41	0.63482	-0.172
Mof_C 	C 	0.8288	0.4541	0.62035	0.085
Mof_C 	C 	0.8262	0.5324	0.62647	-0.149
Mof_C 	C 	0.8818	0.5668	0.64831	0.099
Mof_C 	C 	0.5102	0.5759	0.67883	0.355
Mof_C 	C 	0.5047	0.5331	0.71563	-0.133
Mof_C 	C 	0.4924	0.4549	0.7163	0.082
Mof_C 	C 	0.387	0.6977	0.5758	0.426
Mof_C 	C 	0.1652	0.7753	0.49168	0.424
Mof_C 	C 	0.1236	0.7333	0.63066	0.363
Mof_C 	C 	0.1763	0.7333	0.59753	-0.149
Mof_C 	C 	0.1485	0.7535	0.5614	0.091
Mof_C 	C 	0.1972	0.7546	0.53002	-0.172
Mof_C 	C 	0.2726	0.7358	0.53443	0.104
Mof_C 	C 	0.3029	0.7164	0.56987	-0.162
Mof_C 	C 	0.2539	0.7164	0.60098	0.092
Mof_C 	C 	0.5094	0.4793	0.51898	0.215
Mof_C 	C 	0.5013	0.937	0.1878	0.448
Mof_C 	C 	0.394	0.1727	0.12579	0.434
Mof_C 	C 	0.261	0.9222	0.10985	0.35
Mof_C 	C 	0.4405	0.9749	0.1639	-0.182
Mof_C 	C 	0.4463	0.0528	0.1564	0.106
Mof_C 	C 	0.39	0.09	0.13482	-0.174
Mof_C 	C 	0.3288	0.0459	0.12035	0.087
Mof_C 	C 	0.3262	0.9676	0.12647	-0.151
Mof_C 	C 	0.3818	0.9332	0.14831	0.101
Mof_C 	C 	0.0102	0.9241	0.17883	0.354
Mof_C 	C 	0.0047	0.9669	0.21563	-0.133
Mof_C 	C 	0.9924	0.0451	0.2163	0.081
Mof_C 	C 	0.887	0.8023	0.0758	0.426
Mof_C 	C 	0.6652	0.7247	0.99168	0.424
Mof_C 	C 	0.6236	0.7667	0.13066	0.363
Mof_C 	C 	0.6763	0.7667	0.09753	-0.148
Mof_C 	C 	0.6485	0.7465	0.0614	0.09
Mof_C 	C 	0.6972	0.7454	0.03002	-0.172
Mof_C 	C 	0.7726	0.7642	0.03443	0.104
Mof_C 	C 	0.8029	0.7836	0.06987	-0.161
Mof_C 	C 	0.7539	0.7836	0.10098	0.091
Mof_C 	C 	0.0094	0.0207	0.01898	0.217
Mof_C 	C 	0.0013	0.563	0.8122	0.446
Mof_C 	C 	0.894	0.3273	0.87421	0.433
Mof_C 	C 	0.761	0.5778	0.89015	0.349
Mof_C 	C 	0.9405	0.5251	0.8361	-0.18
Mof_C 	C 	0.9463	0.4472	0.8436	0.105
Mof_C 	C 	0.89	0.41	0.86518	-0.172
Mof_C 	C 	0.8288	0.4541	0.87965	0.085
Mof_C 	C 	0.8262	0.5324	0.87353	-0.149
Mof_C 	C 	0.8818	0.5668	0.85169	0.099
Mof_C 	C 	0.5102	0.5759	0.82117	0.355
Mof_C 	C 	0.5047	0.5331	0.78437	-0.133
Mof_C 	C 	0.4924	0.4549	0.7837	0.082
Mof_C 	C 	0.387	0.6977	0.9242	0.426
Mof_C 	C 	0.1652	0.7753	0.00832	0.424
Mof_C 	C 	0.1236	0.7333	0.86934	0.363
Mof_C 	C 	0.1763	0.7333	0.90247	-0.149
Mof_C 	C 	0.1485	0.7535	0.9386	0.091
Mof_C 	C 	0.1972	0.7546	0.96998	-0.172
Mof_C 	C 	0.2726	0.7358	0.96557	0.104
Mof_C 	C 	0.3029	0.7164	0.93013	-0.162
Mof_C 	C 	0.2539	0.7164	0.89902	0.092
Mof_C 	C 	0.5094	0.4793	0.98102	0.215
Mof_C 	C 	0.4987	0.063	0.6878	0.448
Mof_C 	C 	0.606	0.8273	0.62579	0.434
Mof_C 	C 	0.739	0.0778	0.60985	0.35
Mof_C 	C 	0.5595	0.0251	0.6639	-0.182
Mof_C 	C 	0.5537	0.9472	0.6564	0.106
Mof_C 	C 	0.61	0.91	0.63482	-0.174
Mof_C 	C 	0.6712	0.9541	0.62035	0.087
Mof_C 	C 	0.6738	0.0324	0.62647	-0.151
Mof_C 	C 	0.6182	0.0668	0.64831	0.101
Mof_C 	C 	0.9898	0.0759	0.67883	0.354
Mof_C 	C 	0.9953	0.0331	0.71563	-0.133
Mof_C 	C 	0.0076	0.9549	0.7163	0.081
Mof_C 	C 	0.113	0.1977	0.5758	0.426
Mof_C 	C 	0.3348	0.2753	0.49168	0.424
Mof_C 	C 	0.3764	0.2333	0.63066	0.363
Mof_C 	C 	0.3237	0.2333	0.59753	-0.148
Mof_C 	C 	0.3515	0.2535	0.5614	0.091
Mof_C 	C 	0.3028	0.2546	0.53002	-0.172
Mof_C 	C 	0.2274	0.2358	0.53443	0.104
Mof_C 	C 	0.1971	0.2164	0.56987	-0.162
Mof_C 	C 	0.2461	0.2164	0.60098	0.091
Mof_C 	C 	0.9906	0.9793	0.51898	0.217
Mof_C 	C 	0.9987	0.437	0.3122	0.446
Mof_C 	C 	0.106	0.6727	0.37421	0.433
Mof_C 	C 	0.239	0.4222	0.39015	0.349
Mof_C 	C 	0.0595	0.4749	0.3361	-0.18
Mof_C 	C 	0.0537	0.5528	0.3436	0.105
Mof_C 	C 	0.11	0.59	0.36518	-0.172
Mof_C 	C 	0.1712	0.5459	0.37965	0.085
Mof_C 	C 	0.1738	0.4676	0.37353	-0.149
Mof_C 	C 	0.1182	0.4332	0.35169	0.099
Mof_C 	C 	0.4898	0.4241	0.32117	0.355
Mof_C 	C 	0.4953	0.4669	0.28437	-0.133
Mof_C 	C 	0.5076	0.5451	0.2837	0.082
Mof_C 	C 	0.613	0.3023	0.4242	0.426
Mof_C 	C 	0.8348	0.2247	0.50832	0.424
Mof_C 	C 	0.8764	0.2667	0.36934	0.363
Mof_C 	C 	0.8237	0.2667	0.40247	-0.149
Mof_C 	C 	0.8515	0.2465	0.4386	0.091
Mof_C 	C 	0.8028	0.2454	0.46998	-0.172
Mof_C 	C 	0.7274	0.2642	0.46557	0.104
Mof_C 	C 	0.6971	0.2836	0.43013	-0.162
Mof_C 	C 	0.7461	0.2836	0.39902	0.092
Mof_C 	C 	0.4906	0.5207	0.48102	0.215
Mof_C 	C 	0.0351	0.8321	0.75	0.451
Mof_C 	C 	0.9877	0.0732	0.75	0.062
Mof_C 	C 	0.0165	0.916	0.75	-0.169
Mof_C 	C 	0.5351	0.6679	0.25	0.451
Mof_C 	C 	0.4877	0.4268	0.25	0.063
Mof_C 	C 	0.5165	0.584	0.25	-0.169
Mof_C 	C 	0.9649	0.1679	0.25	0.451
Mof_C 	C 	0.0123	0.9268	0.25	0.062
Mof_C 	C 	0.9835	0.084	0.25	-0.169
Mof_C 	C 	0.4649	0.3321	0.75	0.451
Mof_C 	C 	0.5123	0.5732	0.75	0.063
Mof_C 	C 	0.4835	0.416	0.75	-0.169
Mof_O 	O 	0.4466	0.0253	0.7989	-0.505
Mof_O 	O 	0.5052	0.1336	0.80758	-0.522
Mof_O 	O 	0.5446	0.793	0.86527	-0.495
Mof_O 	O 	0.6622	0.7977	0.88997	-0.517
Mof_O 	O 	0.7909	0.0436	0.9073	-0.318
Mof_O 	O 	0.7374	0.1494	0.88612	-0.466
Mof_O 	O 	0.984	0.148	0.81993	-0.455
Mof_O 	O 	0.9931	0.0419	0.85119	-0.33
Mof_O 	O 	0.0409	0.8006	0.71864	-0.514
Mof_O 	O 	0.0912	0.1925	0.89131	-0.5
Mof_O 	O 	0.0733	0.1857	0.95429	-0.491
Mof_O 	O 	0.4057	0.287	0.01034	-0.507
Mof_O 	O 	0.2887	0.279	0.03532	-0.501
Mof_O 	O 	0.4441	0.2541	0.87238	-0.334
Mof_O 	O 	0.3465	0.2101	0.83831	-0.46
Mof_O 	O 	0.9778	0.0195	0.95275	-0.382
Mof_O 	O 	0.9936	0.9068	0.98216	-0.377
Mof_O 	O 	0.9202	0.143	0.91121	-0.671
Mof_O 	O 	0.9466	0.4747	0.2011	-0.505
Mof_O 	O 	0.0052	0.3664	0.19242	-0.52
Mof_O 	O 	0.0446	0.707	0.13473	-0.495
Mof_O 	O 	0.1622	0.7023	0.11003	-0.517
Mof_O 	O 	0.2909	0.4564	0.0927	-0.317
Mof_O 	O 	0.2374	0.3506	0.11388	-0.465
Mof_O 	O 	0.484	0.352	0.18007	-0.454
Mof_O 	O 	0.4931	0.4581	0.14881	-0.33
Mof_O 	O 	0.5409	0.6994	0.28136	-0.514
Mof_O 	O 	0.5912	0.3075	0.10869	-0.501
Mof_O 	O 	0.5733	0.3143	0.04571	-0.491
Mof_O 	O 	0.9057	0.213	0.98966	-0.507
Mof_O 	O 	0.7887	0.221	0.96468	-0.501
Mof_O 	O 	0.9441	0.2459	0.12762	-0.335
Mof_O 	O 	0.8465	0.2899	0.16169	-0.461
Mof_O 	O 	0.4778	0.4805	0.04725	-0.38
Mof_O 	O 	0.4936	0.5932	0.01784	-0.377
Mof_O 	O 	0.4202	0.357	0.08879	-0.671
Mof_O 	O 	0.5534	0.9747	0.2989	-0.505
Mof_O 	O 	0.4948	0.8664	0.30758	-0.522
Mof_O 	O 	0.4554	0.207	0.36527	-0.495
Mof_O 	O 	0.3378	0.2023	0.38997	-0.517
Mof_O 	O 	0.2091	0.9564	0.4073	-0.318
Mof_O 	O 	0.2626	0.8506	0.38612	-0.466
Mof_O 	O 	0.016	0.852	0.31993	-0.454
Mof_O 	O 	0.0069	0.9581	0.35119	-0.33
Mof_O 	O 	0.9591	0.1994	0.21864	-0.514
Mof_O 	O 	0.9088	0.8075	0.39131	-0.5
Mof_O 	O 	0.9267	0.8143	0.45429	-0.491
Mof_O 	O 	0.5943	0.713	0.51034	-0.507
Mof_O 	O 	0.7113	0.721	0.53532	-0.501
Mof_O 	O 	0.5559	0.7459	0.37238	-0.334
Mof_O 	O 	0.6535	0.7899	0.33831	-0.46
Mof_O 	O 	0.0222	0.9805	0.45275	-0.382
Mof_O 	O 	0.0064	0.0932	0.48216	-0.377
Mof_O 	O 	0.0798	0.857	0.41121	-0.671
Mof_O 	O 	0.0534	0.5253	0.7011	-0.505
Mof_O 	O 	0.9948	0.6336	0.69242	-0.52
Mof_O 	O 	0.9554	0.293	0.63473	-0.495
Mof_O 	O 	0.8378	0.2977	0.61003	-0.517
Mof_O 	O 	0.7091	0.5436	0.5927	-0.317
Mof_O 	O 	0.7626	0.6494	0.61388	-0.465
Mof_O 	O 	0.516	0.648	0.68007	-0.454
Mof_O 	O 	0.5069	0.5419	0.64881	-0.33
Mof_O 	O 	0.4591	0.3006	0.78136	-0.514
Mof_O 	O 	0.4088	0.6925	0.60869	-0.501
Mof_O 	O 	0.4267	0.6857	0.54571	-0.491
Mof_O 	O 	0.0943	0.787	0.48966	-0.507
Mof_O 	O 	0.2113	0.779	0.46468	-0.501
Mof_O 	O 	0.0559	0.7541	0.62762	-0.335
Mof_O 	O 	0.1535	0.7101	0.66169	-0.461
Mof_O 	O 	0.5222	0.5195	0.54725	-0.38
Mof_O 	O 	0.5064	0.4068	0.51784	-0.377
Mof_O 	O 	0.5798	0.643	0.58879	-0.671
Mof_O 	O 	0.5534	0.9747	0.2011	-0.505
Mof_O 	O 	0.4948	0.8664	0.19242	-0.522
Mof_O 	O 	0.4554	0.207	0.13473	-0.495
Mof_O 	O 	0.3378	0.2023	0.11003	-0.517
Mof_O 	O 	0.2091	0.9564	0.0927	-0.318
Mof_O 	O 	0.2626	0.8506	0.11388	-0.466
Mof_O 	O 	0.016	0.852	0.18007	-0.455
Mof_O 	O 	0.0069	0.9581	0.14881	-0.33
Mof_O 	O 	0.9591	0.1994	0.28136	-0.514
Mof_O 	O 	0.9088	0.8075	0.10869	-0.5
Mof_O 	O 	0.9267	0.8143	0.04571	-0.491
Mof_O 	O 	0.5943	0.713	0.98966	-0.507
Mof_O 	O 	0.7113	0.721	0.96468	-0.501
Mof_O 	O 	0.5559	0.7459	0.12762	-0.334
Mof_O 	O 	0.6535	0.7899	0.16169	-0.46
Mof_O 	O 	0.0222	0.9805	0.04725	-0.382
Mof_O 	O 	0.0064	0.0932	0.01784	-0.377
Mof_O 	O 	0.0798	0.857	0.08879	-0.671
Mof_O 	O 	0.0534	0.5253	0.7989	-0.505
Mof_O 	O 	0.9948	0.6336	0.80758	-0.52
Mof_O 	O 	0.9554	0.293	0.86527	-0.495
Mof_O 	O 	0.8378	0.2977	0.88997	-0.517
Mof_O 	O 	0.7091	0.5436	0.9073	-0.317
Mof_O 	O 	0.7626	0.6494	0.88612	-0.465
Mof_O 	O 	0.516	0.648	0.81993	-0.454
Mof_O 	O 	0.5069	0.5419	0.85119	-0.33
Mof_O 	O 	0.4591	0.3006	0.71864	-0.514
Mof_O 	O 	0.4088	0.6925	0.89131	-0.501
Mof_O 	O 	0.4267	0.6857	0.95429	-0.491
Mof_O 	O 	0.0943	0.787	0.01034	-0.507
Mof_O 	O 	0.2113	0.779	0.03532	-0.501
Mof_O 	O 	0.0559	0.7541	0.87238	-0.335
Mof_O 	O 	0.1535	0.7101	0.83831	-0.461
Mof_O 	O 	0.5222	0.5195	0.95275	-0.38
Mof_O 	O 	0.5064	0.4068	0.98216	-0.377
Mof_O 	O 	0.5798	0.643	0.91121	-0.671
Mof_O 	O 	0.4466	0.0253	0.7011	-0.505
Mof_O 	O 	0.5052	0.1336	0.69242	-0.522
Mof_O 	O 	0.5446	0.793	0.63473	-0.495
Mof_O 	O 	0.6622	0.7977	0.61003	-0.517
Mof_O 	O 	0.7909	0.0436	0.5927	-0.318
Mof_O 	O 	0.7374	0.1494	0.61388	-0.466
Mof_O 	O 	0.984	0.148	0.68007	-0.454
Mof_O 	O 	0.9931	0.0419	0.64881	-0.33
Mof_O 	O 	0.0409	0.8006	0.78136	-0.514
Mof_O 	O 	0.0912	0.1925	0.60869	-0.5
Mof_O 	O 	0.0733	0.1857	0.54571	-0.491
Mof_O 	O 	0.4057	0.287	0.48966	-0.507
Mof_O 	O 	0.2887	0.279	0.46468	-0.501
Mof_O 	O 	0.4441	0.2541	0.62762	-0.334
Mof_O 	O 	0.3465	0.2101	0.66169	-0.46
Mof_O 	O 	0.9778	0.0195	0.54725	-0.382
Mof_O 	O 	0.9936	0.9068	0.51784	-0.377
Mof_O 	O 	0.9202	0.143	0.58879	-0.671
Mof_O 	O 	0.9466	0.4747	0.2989	-0.505
Mof_O 	O 	0.0052	0.3664	0.30758	-0.52
Mof_O 	O 	0.0446	0.707	0.36527	-0.495
Mof_O 	O 	0.1622	0.7023	0.38997	-0.517
Mof_O 	O 	0.2909	0.4564	0.4073	-0.317
Mof_O 	O 	0.2374	0.3506	0.38612	-0.465
Mof_O 	O 	0.484	0.352	0.31993	-0.454
Mof_O 	O 	0.4931	0.4581	0.35119	-0.33
Mof_O 	O 	0.5409	0.6994	0.21864	-0.514
Mof_O 	O 	0.5912	0.3075	0.39131	-0.501
Mof_O 	O 	0.5733	0.3143	0.45429	-0.491
Mof_O 	O 	0.9057	0.213	0.51034	-0.507
Mof_O 	O 	0.7887	0.221	0.53532	-0.501
Mof_O 	O 	0.9441	0.2459	0.37238	-0.335
Mof_O 	O 	0.8465	0.2899	0.33831	-0.461
Mof_O 	O 	0.4778	0.4805	0.45275	-0.38
Mof_O 	O 	0.4936	0.5932	0.48216	-0.377
Mof_O 	O 	0.4202	0.357	0.41121	-0.671
Mof_O 	O 	0.3667	0.1622	0.75	-0.7
Mof_O 	O 	0.317	0.963	0.75	-0.394
Mof_O 	O 	0.8667	0.3378	0.25	-0.7
Mof_O 	O 	0.817	0.537	0.25	-0.393
Mof_O 	O 	0.6333	0.8378	0.25	-0.7
Mof_O 	O 	0.683	0.037	0.25	-0.394
Mof_O 	O 	0.1333	0.6622	0.75	-0.7
Mof_O 	O 	0.183	0.463	0.75	-0.393
Mof_H 	H 	0.641	0.251	0.9049	-0.036
Mof_H 	H 	0.6554	0.3	0.9416	-0.025
Mof_H 	H 	0.5519	0.1724	0.9358	0.244
Mof_H 	H 	0.6166	0.1823	0.9664	0.244
Mof_H 	H 	0.5411	0.231	0.9691	0.246
Mof_H 	H 	0.5544	0.4278	0.883	-0.027
Mof_H 	H 	0.6338	0.4148	0.9032	-0.035
Mof_H 	H 	0.5883	0.3162	0.8439	0.282
Mof_H 	H 	0.6323	0.3924	0.8345	0.277
Mof_H 	H 	0.6723	0.3284	0.8588	0.276
Mof_H 	H 	0.536	0.3533	0.9342	0.176
Mof_H 	H 	0.5206	0.3063	0.9008	0.175
Mof_C 	C 	0.6163	0.274	0.9268	0.216
Mof_C 	C 	0.5776	0.2084	0.9521	-0.694
Mof_C 	C 	0.5926	0.3895	0.8896	0.3
Mof_C 	C 	0.6243	0.3533	0.8533	-0.8
Mof_N 	N 	0.5578	0.3307	0.91383	-0.342
Mof_H 	H 	0.141	0.249	0.0951	-0.036
Mof_H 	H 	0.1554	0.2	0.0584	-0.026
Mof_H 	H 	0.0519	0.3276	0.0642	0.244
Mof_H 	H 	0.1166	0.3177	0.0336	0.245
Mof_H 	H 	0.0411	0.269	0.0309	0.247
Mof_H 	H 	0.0544	0.0722	0.117	-0.027
Mof_H 	H 	0.1338	0.0852	0.0968	-0.034
Mof_H 	H 	0.0883	0.1838	0.1561	0.282
Mof_H 	H 	0.1323	0.1076	0.1655	0.278
Mof_H 	H 	0.1723	0.1716	0.1412	0.276
Mof_H 	H 	0.036	0.1467	0.0658	0.177
Mof_H 	H 	0.0206	0.1937	0.0992	0.175
Mof_C 	C 	0.1163	0.226	0.0732	0.217
Mof_C 	C 	0.0776	0.2916	0.0479	-0.696
Mof_C 	C 	0.0926	0.1105	0.1104	0.3
Mof_C 	C 	0.1243	0.1467	0.1467	-0.801
Mof_N 	N 	0.0578	0.1693	0.08617	-0.342
Mof_H 	H 	0.359	0.749	0.4049	-0.036
Mof_H 	H 	0.3446	0.7	0.4416	-0.025
Mof_H 	H 	0.4481	0.8276	0.4358	0.244
Mof_H 	H 	0.3834	0.8177	0.4664	0.244
Mof_H 	H 	0.4589	0.769	0.4691	0.246
Mof_H 	H 	0.4456	0.5722	0.383	-0.027
Mof_H 	H 	0.3662	0.5852	0.4032	-0.035
Mof_H 	H 	0.4117	0.6838	0.3439	0.282
Mof_H 	H 	0.3677	0.6076	0.3345	0.277
Mof_H 	H 	0.3277	0.6716	0.3588	0.276
Mof_H 	H 	0.464	0.6467	0.4342	0.176
Mof_H 	H 	0.4794	0.6937	0.4008	0.175
Mof_C 	C 	0.3837	0.726	0.4268	0.216
Mof_C 	C 	0.4224	0.7916	0.4521	-0.694
Mof_C 	C 	0.4074	0.6105	0.3896	0.3
Mof_C 	C 	0.3757	0.6467	0.3533	-0.8
Mof_N 	N 	0.4422	0.6693	0.41383	-0.342
Mof_H 	H 	0.859	0.751	0.5951	-0.036
Mof_H 	H 	0.8446	0.8	0.5584	-0.026
Mof_H 	H 	0.9481	0.6724	0.5642	0.244
Mof_H 	H 	0.8834	0.6823	0.5336	0.245
Mof_H 	H 	0.9589	0.731	0.5309	0.247
Mof_H 	H 	0.9456	0.9278	0.617	-0.027
Mof_H 	H 	0.8662	0.9148	0.5968	-0.034
Mof_H 	H 	0.9117	0.8162	0.6561	0.282
Mof_H 	H 	0.8677	0.8924	0.6655	0.278
Mof_H 	H 	0.8277	0.8284	0.6412	0.276
Mof_H 	H 	0.964	0.8533	0.5658	0.177
Mof_H 	H 	0.9794	0.8063	0.5992	0.175
Mof_C 	C 	0.8837	0.774	0.5732	0.217
Mof_C 	C 	0.9224	0.7084	0.5479	-0.696
Mof_C 	C 	0.9074	0.8895	0.6104	0.3
Mof_C 	C 	0.8757	0.8533	0.6467	-0.801
Mof_N 	N 	0.9422	0.8307	0.58617	-0.342
Mof_H 	H 	0.359	0.749	0.0951	-0.036
Mof_H 	H 	0.3446	0.7	0.0584	-0.025
Mof_H 	H 	0.4481	0.8276	0.0642	0.244
Mof_H 	H 	0.3834	0.8177	0.0336	0.244
Mof_H 	H 	0.4589	0.769	0.0309	0.246
Mof_H 	H 	0.4456	0.5722	0.117	-0.027
Mof_H 	H 	0.3662	0.5852	0.0968	-0.035
Mof_H 	H 	0.4117	0.6838	0.1561	0.282
Mof_H 	H 	0.3677	0.6076	0.1655	0.277
Mof_H 	H 	0.3277	0.6716	0.1412	0.276
Mof_H 	H 	0.464	0.6467	0.0658	0.176
Mof_H 	H 	0.4794	0.6937	0.0992	0.175
Mof_C 	C 	0.3837	0.726	0.0732	0.216
Mof_C 	C 	0.4224	0.7916	0.0479	-0.694
Mof_C 	C 	0.4074	0.6105	0.1104	0.3
Mof_C 	C 	0.3757	0.6467	0.1467	-0.8
Mof_N 	N 	0.4422	0.6693	0.08617	-0.342
Mof_H 	H 	0.859	0.751	0.9049	-0.036
Mof_H 	H 	0.8446	0.8	0.9416	-0.026
Mof_H 	H 	0.9481	0.6724	0.9358	0.244
Mof_H 	H 	0.8834	0.6823	0.9664	0.245
Mof_H 	H 	0.9589	0.731	0.9691	0.247
Mof_H 	H 	0.9456	0.9278	0.883	-0.027
Mof_H 	H 	0.8662	0.9148	0.9032	-0.034
Mof_H 	H 	0.9117	0.8162	0.8439	0.282
Mof_H 	H 	0.8677	0.8924	0.8345	0.278
Mof_H 	H 	0.8277	0.8284	0.8588	0.276
Mof_H 	H 	0.964	0.8533	0.9342	0.177
Mof_H 	H 	0.9794	0.8063	0.9008	0.175
Mof_C 	C 	0.8837	0.774	0.9268	0.217
Mof_C 	C 	0.9224	0.7084	0.9521	-0.696
Mof_C 	C 	0.9074	0.8895	0.8896	0.3
Mof_C 	C 	0.8757	0.8533	0.8533	-0.801
Mof_N 	N 	0.9422	0.8307	0.91383	-0.342
Mof_H 	H 	0.641	0.251	0.5951	-0.036
Mof_H 	H 	0.6554	0.3	0.5584	-0.025
Mof_H 	H 	0.5519	0.1724	0.5642	0.244
Mof_H 	H 	0.6166	0.1823	0.5336	0.244
Mof_H 	H 	0.5411	0.231	0.5309	0.246
Mof_H 	H 	0.5544	0.4278	0.617	-0.027
Mof_H 	H 	0.6338	0.4148	0.5968	-0.035
Mof_H 	H 	0.5883	0.3162	0.6561	0.282
Mof_H 	H 	0.6323	0.3924	0.6655	0.277
Mof_H 	H 	0.6723	0.3284	0.6412	0.276
Mof_H 	H 	0.536	0.3533	0.5658	0.176
Mof_H 	H 	0.5206	0.3063	0.5992	0.175
Mof_C 	C 	0.6163	0.274	0.5732	0.216
Mof_C 	C 	0.5776	0.2084	0.5479	-0.694
Mof_C 	C 	0.5926	0.3895	0.6104	0.3
Mof_C 	C 	0.6243	0.3533	0.6467	-0.8
Mof_N 	N 	0.5578	0.3307	0.58617	-0.342
Mof_H 	H 	0.141	0.249	0.4049	-0.036
Mof_H 	H 	0.1554	0.2	0.4416	-0.026
Mof_H 	H 	0.0519	0.3276	0.4358	0.244
Mof_H 	H 	0.1166	0.3177	0.4664	0.245
Mof_H 	H 	0.0411	0.269	0.4691	0.247
Mof_H 	H 	0.0544	0.0722	0.383	-0.027
Mof_H 	H 	0.1338	0.0852	0.4032	-0.034
Mof_H 	H 	0.0883	0.1838	0.3439	0.282
Mof_H 	H 	0.1323	0.1076	0.3345	0.278
Mof_H 	H 	0.1723	0.1716	0.3588	0.276
Mof_H 	H 	0.036	0.1467	0.4342	0.177
Mof_H 	H 	0.0206	0.1937	0.4008	0.175
Mof_C 	C 	0.1163	0.226	0.4268	0.217
Mof_C 	C 	0.0776	0.2916	0.4521	-0.696
Mof_C 	C 	0.0926	0.1105	0.3896	0.3
Mof_C 	C 	0.1243	0.1467	0.3533	-0.801
Mof_N 	N 	0.0578	0.1693	0.41383	-0.342
_end
