data_functionalizedCrystal
_audit_creation_method	'EQeq! by Chris Wilmer'
_symmetry_space_group_name_H-M	'P1'
_symmetry_Int_Tables_number	1
_symmetry_cell_setting	triclinic
loop_
_symmetry_equiv_pos_as_xyz
  x,y,z
_cell_length_a	30.0058
_cell_length_b	21.244
_cell_length_c	19.5943
_cell_angle_alpha	90
_cell_angle_beta	93.87
_cell_angle_gamma	90
loop_
_atom_site_label
_atom_site_type_symbol
_atom_site_fract_x
_atom_site_fract_y
_atom_site_fract_z
_atom_site_charge
Mof_Eu	Eu	0.27613	0.32595	0.55802	2.104
Mof_Eu	Eu	0.18083	0.6684	0.46243	2.056
Mof_O 	O 	0.34049	0.40041	0.57124	-0.447
Mof_O 	O 	0.27989	0.43302	0.5131	-0.459
Mof_O 	O 	0.25759	0.66123	0.4682	-0.591
Mof_O 	O 	0.31048	0.72921	0.50137	-0.614
Mof_O 	O 	0.68809	0.69071	0.5458	-0.515
Mof_O 	O 	0.73066	0.75402	0.61376	-0.58
Mof_O 	O 	0.62718	0.77708	0.87995	-0.445
Mof_O 	O 	0.69523	0.79229	0.85019	-0.456
Mof_O 	O 	0.19191	0.5525	0.4705	-0.477
Mof_O 	O 	0.14595	0.5871	0.3912	-0.481
Mof_O 	O 	0.21528	0.31292	0.47877	-0.609
Mof_O 	O 	0.17	0.25485	0.41133	-0.526
Mof_C 	C 	0.31781	0.44379	0.5429	0.319
Mof_C 	C 	0.3348	0.50957	0.5463	-0.108
Mof_C 	C 	0.37658	0.5224	0.5774	-0.01
Mof_H 	H 	0.3941	0.4897	0.5958	0.048
Mof_C 	C 	0.39266	0.58452	0.5814	-0.022
Mof_C 	C 	0.3655	0.6332	0.5551	0.036
Mof_H 	H 	0.3757	0.6745	0.5584	0.018
Mof_C 	C 	0.32326	0.62076	0.5238	-0.204
Mof_C 	C 	0.30815	0.55934	0.5194	0.074
Mof_H 	H 	0.2801	0.5508	0.4985	0.018
Mof_C 	C 	0.29536	0.674	0.4953	0.548
Mof_C 	C 	0.43582	0.5987	0.6128	-0.009
Mof_C 	C 	0.47188	0.6154	0.6362	-0.012
Mof_C 	C 	0.51346	0.6358	0.659	-0.006
Mof_C 	C 	0.54996	0.6563	0.678	-0.014
Mof_C 	C 	0.59235	0.6844	0.6935	-0.007
Mof_C 	C 	0.62326	0.6866	0.6417	0.011
Mof_H 	H 	0.6162	0.668	0.5994	0.041
Mof_C 	C 	0.66425	0.7169	0.6548	-0.165
Mof_C 	C 	0.67461	0.7438	0.7182	0.062
Mof_H 	H 	0.7023	0.7627	0.7271	0.009
Mof_C 	C 	0.64395	0.743	0.7695	-0.105
Mof_C 	C 	0.60305	0.713	0.7564	-0.015
Mof_H 	H 	0.5826	0.712	0.7901	0.052
Mof_C 	C 	0.69692	0.72052	0.601	0.493
Mof_C 	C 	0.65595	0.7727	0.8368	0.341
Mof_C 	C 	0.16253	0.5425	0.4246	0.357
Mof_C 	C 	0.14819	0.4772	0.4062	-0.121
Mof_C 	C 	0.1722	0.4247	0.4302	0.066
Mof_H 	H 	0.1985	0.4297	0.4576	0.009
Mof_C 	C 	0.15674	0.36443	0.4131	-0.163
Mof_C 	C 	0.11744	0.35644	0.3723	0.006
Mof_H 	H 	0.1072	0.3162	0.361	0.035
Mof_C 	C 	0.09345	0.4092	0.3486	-0.016
Mof_C 	C 	0.1092	0.4701	0.3648	-0.014
Mof_H 	H 	0.0936	0.5053	0.3479	0.044
Mof_C 	C 	0.18223	0.3066	0.4366	0.483
Mof_C 	C 	0.0533	0.4027	0.3042	-0.024
Mof_C 	C 	0.01967	0.4004	0.2704	-0.02
Mof_Eu	Eu	0.77613	0.82595	0.55802	2.105
Mof_Eu	Eu	0.68083	0.1684	0.46243	2.057
Mof_O 	O 	0.84049	0.90041	0.57124	-0.446
Mof_O 	O 	0.77989	0.93302	0.5131	-0.458
Mof_O 	O 	0.75759	0.16123	0.4682	-0.59
Mof_O 	O 	0.81048	0.22921	0.50137	-0.613
Mof_O 	O 	0.18809	0.19071	0.5458	-0.514
Mof_O 	O 	0.23066	0.25402	0.61376	-0.579
Mof_O 	O 	0.12718	0.27708	0.87995	-0.445
Mof_O 	O 	0.19523	0.29229	0.85019	-0.455
Mof_O 	O 	0.69191	0.0525	0.4705	-0.477
Mof_O 	O 	0.64595	0.0871	0.3912	-0.481
Mof_O 	O 	0.71528	0.81292	0.47877	-0.609
Mof_O 	O 	0.67	0.75485	0.41133	-0.526
Mof_C 	C 	0.81781	0.94379	0.5429	0.319
Mof_C 	C 	0.8348	0.00957	0.5463	-0.109
Mof_C 	C 	0.87658	0.0224	0.5774	-0.009
Mof_H 	H 	0.8941	0.9897	0.5958	0.047
Mof_C 	C 	0.89266	0.08452	0.5814	-0.022
Mof_C 	C 	0.8655	0.1332	0.5551	0.037
Mof_H 	H 	0.8757	0.1745	0.5584	0.017
Mof_C 	C 	0.82326	0.12076	0.5238	-0.205
Mof_C 	C 	0.80815	0.05934	0.5194	0.074
Mof_H 	H 	0.7801	0.0508	0.4985	0.018
Mof_C 	C 	0.79536	0.174	0.4953	0.548
Mof_C 	C 	0.93582	0.0987	0.6128	-0.009
Mof_C 	C 	0.97188	0.1154	0.6362	-0.012
Mof_C 	C 	0.01346	0.1358	0.659	-0.006
Mof_C 	C 	0.04996	0.1563	0.678	-0.014
Mof_C 	C 	0.09235	0.1844	0.6935	-0.007
Mof_C 	C 	0.12326	0.1866	0.6417	0.01
Mof_H 	H 	0.1162	0.168	0.5994	0.041
Mof_C 	C 	0.16425	0.2169	0.6548	-0.165
Mof_C 	C 	0.17461	0.2438	0.7182	0.061
Mof_H 	H 	0.2023	0.2627	0.7271	0.009
Mof_C 	C 	0.14395	0.243	0.7695	-0.105
Mof_C 	C 	0.10305	0.213	0.7564	-0.015
Mof_H 	H 	0.0826	0.212	0.7901	0.052
Mof_C 	C 	0.19692	0.22052	0.601	0.493
Mof_C 	C 	0.15595	0.2727	0.8368	0.341
Mof_C 	C 	0.66253	0.0425	0.4246	0.357
Mof_C 	C 	0.64819	0.9772	0.4062	-0.121
Mof_C 	C 	0.6722	0.9247	0.4302	0.066
Mof_H 	H 	0.6985	0.9297	0.4576	0.008
Mof_C 	C 	0.65674	0.86443	0.4131	-0.164
Mof_C 	C 	0.61744	0.85644	0.3723	0.007
Mof_H 	H 	0.6072	0.8162	0.361	0.035
Mof_C 	C 	0.59345	0.9092	0.3486	-0.016
Mof_C 	C 	0.6092	0.9701	0.3648	-0.013
Mof_H 	H 	0.5936	0.0053	0.3479	0.043
Mof_C 	C 	0.68223	0.8066	0.4366	0.483
Mof_C 	C 	0.5533	0.9027	0.3042	-0.024
Mof_C 	C 	0.51967	0.9004	0.2704	-0.02
Mof_Eu	Eu	0.72387	0.32595	0.94198	2.106
Mof_Eu	Eu	0.81917	0.6684	0.03757	2.057
Mof_O 	O 	0.65951	0.40041	0.92876	-0.446
Mof_O 	O 	0.72011	0.43302	0.9869	-0.458
Mof_O 	O 	0.74241	0.66123	0.0318	-0.59
Mof_O 	O 	0.68952	0.72921	0.99863	-0.614
Mof_O 	O 	0.31191	0.69071	0.9542	-0.514
Mof_O 	O 	0.26934	0.75402	0.88624	-0.579
Mof_O 	O 	0.37282	0.77708	0.62005	-0.445
Mof_O 	O 	0.30477	0.79229	0.64981	-0.456
Mof_O 	O 	0.80809	0.5525	0.0295	-0.477
Mof_O 	O 	0.85405	0.5871	0.1088	-0.481
Mof_O 	O 	0.78472	0.31292	0.02123	-0.609
Mof_O 	O 	0.83	0.25485	0.08867	-0.526
Mof_C 	C 	0.68219	0.44379	0.9571	0.319
Mof_C 	C 	0.6652	0.50957	0.9537	-0.108
Mof_C 	C 	0.62342	0.5224	0.9226	-0.009
Mof_H 	H 	0.6059	0.4897	0.9042	0.048
Mof_C 	C 	0.60734	0.58452	0.9186	-0.022
Mof_C 	C 	0.6345	0.6332	0.9449	0.037
Mof_H 	H 	0.6243	0.6745	0.9416	0.017
Mof_C 	C 	0.67674	0.62076	0.9762	-0.205
Mof_C 	C 	0.69185	0.55934	0.9806	0.074
Mof_H 	H 	0.7199	0.5508	0.0015	0.018
Mof_C 	C 	0.70464	0.674	0.0047	0.549
Mof_C 	C 	0.56418	0.5987	0.8872	-0.009
Mof_C 	C 	0.52812	0.6154	0.8638	-0.012
Mof_C 	C 	0.48654	0.6358	0.841	-0.006
Mof_C 	C 	0.45004	0.6563	0.822	-0.014
Mof_C 	C 	0.40765	0.6844	0.8065	-0.007
Mof_C 	C 	0.37674	0.6866	0.8583	0.01
Mof_H 	H 	0.3838	0.668	0.9006	0.041
Mof_C 	C 	0.33575	0.7169	0.8452	-0.165
Mof_C 	C 	0.32539	0.7438	0.7818	0.061
Mof_H 	H 	0.2977	0.7627	0.7729	0.009
Mof_C 	C 	0.35605	0.743	0.7305	-0.105
Mof_C 	C 	0.39695	0.713	0.7436	-0.015
Mof_H 	H 	0.4174	0.712	0.7099	0.052
Mof_C 	C 	0.30308	0.72052	0.899	0.493
Mof_C 	C 	0.34405	0.7727	0.6632	0.341
Mof_C 	C 	0.83747	0.5425	0.0754	0.357
Mof_C 	C 	0.85181	0.4772	0.0938	-0.121
Mof_C 	C 	0.8278	0.4247	0.0698	0.066
Mof_H 	H 	0.8015	0.4297	0.0424	0.009
Mof_C 	C 	0.84326	0.36443	0.0869	-0.163
Mof_C 	C 	0.88256	0.35644	0.1277	0.006
Mof_H 	H 	0.8928	0.3162	0.139	0.035
Mof_C 	C 	0.90655	0.4092	0.1514	-0.016
Mof_C 	C 	0.8908	0.4701	0.1352	-0.014
Mof_H 	H 	0.9064	0.5053	0.1521	0.044
Mof_C 	C 	0.81777	0.3066	0.0634	0.483
Mof_C 	C 	0.9467	0.4027	0.1958	-0.024
Mof_C 	C 	0.98033	0.4004	0.2296	-0.02
Mof_Eu	Eu	0.22387	0.82595	0.94198	2.103
Mof_Eu	Eu	0.31917	0.1684	0.03757	2.056
Mof_O 	O 	0.15951	0.90041	0.92876	-0.446
Mof_O 	O 	0.22011	0.93302	0.9869	-0.458
Mof_O 	O 	0.24241	0.16123	0.0318	-0.59
Mof_O 	O 	0.18952	0.22921	0.99863	-0.612
Mof_O 	O 	0.81191	0.19071	0.9542	-0.513
Mof_O 	O 	0.76934	0.25402	0.88624	-0.579
Mof_O 	O 	0.87282	0.27708	0.62005	-0.445
Mof_O 	O 	0.80477	0.29229	0.64981	-0.455
Mof_O 	O 	0.30809	0.0525	0.0295	-0.477
Mof_O 	O 	0.35405	0.0871	0.1088	-0.481
Mof_O 	O 	0.28472	0.81292	0.02123	-0.608
Mof_O 	O 	0.33	0.75485	0.08867	-0.526
Mof_C 	C 	0.18219	0.94379	0.9571	0.319
Mof_C 	C 	0.1652	0.00957	0.9537	-0.109
Mof_C 	C 	0.12342	0.0224	0.9226	-0.006
Mof_H 	H 	0.1059	0.9897	0.9042	0.045
Mof_C 	C 	0.10734	0.08452	0.9186	-0.023
Mof_C 	C 	0.1345	0.1332	0.9449	0.037
Mof_H 	H 	0.1243	0.1745	0.9416	0.017
Mof_C 	C 	0.17674	0.12076	0.9762	-0.204
Mof_C 	C 	0.19185	0.05934	0.9806	0.077
Mof_H 	H 	0.2199	0.0508	0.0015	0.016
Mof_C 	C 	0.20464	0.174	0.0047	0.546
Mof_C 	C 	0.06418	0.0987	0.8872	-0.008
Mof_C 	C 	0.02812	0.1154	0.8638	-0.013
Mof_C 	C 	0.98654	0.1358	0.841	-0.006
Mof_C 	C 	0.95004	0.1563	0.822	-0.015
Mof_C 	C 	0.90765	0.1844	0.8065	-0.007
Mof_C 	C 	0.87674	0.1866	0.8583	0.01
Mof_H 	H 	0.8838	0.168	0.9006	0.041
Mof_C 	C 	0.83575	0.2169	0.8452	-0.165
Mof_C 	C 	0.82539	0.2438	0.7818	0.061
Mof_H 	H 	0.7977	0.2627	0.7729	0.009
Mof_C 	C 	0.85605	0.243	0.7305	-0.105
Mof_C 	C 	0.89695	0.213	0.7436	-0.015
Mof_H 	H 	0.9174	0.212	0.7099	0.052
Mof_C 	C 	0.80308	0.22052	0.899	0.493
Mof_C 	C 	0.84405	0.2727	0.6632	0.341
Mof_C 	C 	0.33747	0.0425	0.0754	0.356
Mof_C 	C 	0.35181	0.9772	0.0938	-0.12
Mof_C 	C 	0.3278	0.9247	0.0698	0.066
Mof_H 	H 	0.3015	0.9297	0.0424	0.009
Mof_C 	C 	0.34326	0.86443	0.0869	-0.163
Mof_C 	C 	0.38256	0.85644	0.1277	0.007
Mof_H 	H 	0.3928	0.8162	0.139	0.035
Mof_C 	C 	0.40655	0.9092	0.1514	-0.016
Mof_C 	C 	0.3908	0.9701	0.1352	-0.012
Mof_H 	H 	0.4064	0.0053	0.1521	0.042
Mof_C 	C 	0.31777	0.8066	0.0634	0.483
Mof_C 	C 	0.4467	0.9027	0.1958	-0.024
Mof_C 	C 	0.48033	0.9004	0.2296	-0.02
Mof_Eu	Eu	0.72387	0.67405	0.44198	2.105
Mof_Eu	Eu	0.81917	0.3316	0.53757	2.057
Mof_O 	O 	0.65951	0.59959	0.42876	-0.446
Mof_O 	O 	0.72011	0.56698	0.4869	-0.458
Mof_O 	O 	0.74241	0.33877	0.5318	-0.59
Mof_O 	O 	0.68952	0.27079	0.49863	-0.613
Mof_O 	O 	0.31191	0.30929	0.4542	-0.514
Mof_O 	O 	0.26934	0.24598	0.38624	-0.579
Mof_O 	O 	0.37282	0.22292	0.12005	-0.445
Mof_O 	O 	0.30477	0.20771	0.14981	-0.456
Mof_O 	O 	0.80809	0.4475	0.5295	-0.477
Mof_O 	O 	0.85405	0.4129	0.6088	-0.481
Mof_O 	O 	0.78472	0.68708	0.52123	-0.609
Mof_O 	O 	0.83	0.74515	0.58867	-0.526
Mof_C 	C 	0.68219	0.55621	0.4571	0.319
Mof_C 	C 	0.6652	0.49043	0.4537	-0.108
Mof_C 	C 	0.62342	0.4776	0.4226	-0.01
Mof_H 	H 	0.6059	0.5103	0.4042	0.048
Mof_C 	C 	0.60734	0.41548	0.4186	-0.022
Mof_C 	C 	0.6345	0.3668	0.4449	0.036
Mof_H 	H 	0.6243	0.3255	0.4416	0.018
Mof_C 	C 	0.67674	0.37924	0.4762	-0.204
Mof_C 	C 	0.69185	0.44066	0.4806	0.074
Mof_H 	H 	0.7199	0.4492	0.5015	0.018
Mof_C 	C 	0.70464	0.326	0.5047	0.548
Mof_C 	C 	0.56418	0.4013	0.3872	-0.009
Mof_C 	C 	0.52812	0.3846	0.3638	-0.012
Mof_C 	C 	0.48654	0.3642	0.341	-0.006
Mof_C 	C 	0.45004	0.3437	0.322	-0.014
Mof_C 	C 	0.40765	0.3156	0.3065	-0.007
Mof_C 	C 	0.37674	0.3134	0.3583	0.011
Mof_H 	H 	0.3838	0.332	0.4006	0.041
Mof_C 	C 	0.33575	0.2831	0.3452	-0.165
Mof_C 	C 	0.32539	0.2562	0.2818	0.062
Mof_H 	H 	0.2977	0.2373	0.2729	0.009
Mof_C 	C 	0.35605	0.257	0.2305	-0.105
Mof_C 	C 	0.39695	0.287	0.2436	-0.015
Mof_H 	H 	0.4174	0.288	0.2099	0.052
Mof_C 	C 	0.30308	0.27948	0.399	0.493
Mof_C 	C 	0.34405	0.2273	0.1632	0.341
Mof_C 	C 	0.83747	0.4575	0.5754	0.357
Mof_C 	C 	0.85181	0.5228	0.5938	-0.121
Mof_C 	C 	0.8278	0.5753	0.5698	0.066
Mof_H 	H 	0.8015	0.5703	0.5424	0.009
Mof_C 	C 	0.84326	0.63557	0.5869	-0.163
Mof_C 	C 	0.88256	0.64356	0.6277	0.006
Mof_H 	H 	0.8928	0.6838	0.639	0.035
Mof_C 	C 	0.90655	0.5908	0.6514	-0.016
Mof_C 	C 	0.8908	0.5299	0.6352	-0.014
Mof_H 	H 	0.9064	0.4947	0.6521	0.044
Mof_C 	C 	0.81777	0.6934	0.5634	0.483
Mof_C 	C 	0.9467	0.5973	0.6958	-0.024
Mof_C 	C 	0.98033	0.5996	0.7296	-0.02
Mof_Eu	Eu	0.22387	0.17405	0.44198	2.105
Mof_Eu	Eu	0.31917	0.8316	0.53757	2.057
Mof_O 	O 	0.15951	0.09959	0.42876	-0.446
Mof_O 	O 	0.22011	0.06698	0.4869	-0.458
Mof_O 	O 	0.24241	0.83877	0.5318	-0.59
Mof_O 	O 	0.18952	0.77079	0.49863	-0.613
Mof_O 	O 	0.81191	0.80929	0.4542	-0.514
Mof_O 	O 	0.76934	0.74598	0.38624	-0.579
Mof_O 	O 	0.87282	0.72292	0.12005	-0.445
Mof_O 	O 	0.80477	0.70771	0.14981	-0.455
Mof_O 	O 	0.30809	0.9475	0.5295	-0.477
Mof_O 	O 	0.35405	0.9129	0.6088	-0.481
Mof_O 	O 	0.28472	0.18708	0.52123	-0.609
Mof_O 	O 	0.33	0.24515	0.58867	-0.526
Mof_C 	C 	0.18219	0.05621	0.4571	0.319
Mof_C 	C 	0.1652	0.99043	0.4537	-0.109
Mof_C 	C 	0.12342	0.9776	0.4226	-0.009
Mof_H 	H 	0.1059	0.0103	0.4042	0.047
Mof_C 	C 	0.10734	0.91548	0.4186	-0.022
Mof_C 	C 	0.1345	0.8668	0.4449	0.037
Mof_H 	H 	0.1243	0.8255	0.4416	0.017
Mof_C 	C 	0.17674	0.87924	0.4762	-0.205
Mof_C 	C 	0.19185	0.94066	0.4806	0.074
Mof_H 	H 	0.2199	0.9492	0.5015	0.018
Mof_C 	C 	0.20464	0.826	0.5047	0.548
Mof_C 	C 	0.06418	0.9013	0.3872	-0.009
Mof_C 	C 	0.02812	0.8846	0.3638	-0.012
Mof_C 	C 	0.98654	0.8642	0.341	-0.006
Mof_C 	C 	0.95004	0.8437	0.322	-0.014
Mof_C 	C 	0.90765	0.8156	0.3065	-0.007
Mof_C 	C 	0.87674	0.8134	0.3583	0.01
Mof_H 	H 	0.8838	0.832	0.4006	0.041
Mof_C 	C 	0.83575	0.7831	0.3452	-0.165
Mof_C 	C 	0.82539	0.7562	0.2818	0.061
Mof_H 	H 	0.7977	0.7373	0.2729	0.009
Mof_C 	C 	0.85605	0.757	0.2305	-0.105
Mof_C 	C 	0.89695	0.787	0.2436	-0.015
Mof_H 	H 	0.9174	0.788	0.2099	0.052
Mof_C 	C 	0.80308	0.77948	0.399	0.493
Mof_C 	C 	0.84405	0.7273	0.1632	0.341
Mof_C 	C 	0.33747	0.9575	0.5754	0.357
Mof_C 	C 	0.35181	0.0228	0.5938	-0.121
Mof_C 	C 	0.3278	0.0753	0.5698	0.066
Mof_H 	H 	0.3015	0.0703	0.5424	0.008
Mof_C 	C 	0.34326	0.13557	0.5869	-0.164
Mof_C 	C 	0.38256	0.14356	0.6277	0.007
Mof_H 	H 	0.3928	0.1838	0.639	0.035
Mof_C 	C 	0.40655	0.0908	0.6514	-0.016
Mof_C 	C 	0.3908	0.0299	0.6352	-0.013
Mof_H 	H 	0.4064	0.9947	0.6521	0.043
Mof_C 	C 	0.31777	0.1934	0.5634	0.483
Mof_C 	C 	0.4467	0.0973	0.6958	-0.024
Mof_C 	C 	0.48033	0.0996	0.7296	-0.02
Mof_Eu	Eu	0.27613	0.67405	0.05802	2.106
Mof_Eu	Eu	0.18083	0.3316	0.96243	2.057
Mof_O 	O 	0.34049	0.59959	0.07124	-0.446
Mof_O 	O 	0.27989	0.56698	0.0131	-0.458
Mof_O 	O 	0.25759	0.33877	0.9682	-0.59
Mof_O 	O 	0.31048	0.27079	0.00137	-0.614
Mof_O 	O 	0.68809	0.30929	0.0458	-0.514
Mof_O 	O 	0.73066	0.24598	0.11376	-0.579
Mof_O 	O 	0.62718	0.22292	0.37995	-0.445
Mof_O 	O 	0.69523	0.20771	0.35019	-0.456
Mof_O 	O 	0.19191	0.4475	0.9705	-0.477
Mof_O 	O 	0.14595	0.4129	0.8912	-0.481
Mof_O 	O 	0.21528	0.68708	0.97877	-0.609
Mof_O 	O 	0.17	0.74515	0.91133	-0.526
Mof_C 	C 	0.31781	0.55621	0.0429	0.319
Mof_C 	C 	0.3348	0.49043	0.0463	-0.108
Mof_C 	C 	0.37658	0.4776	0.0774	-0.009
Mof_H 	H 	0.3941	0.5103	0.0958	0.048
Mof_C 	C 	0.39266	0.41548	0.0814	-0.022
Mof_C 	C 	0.3655	0.3668	0.0551	0.037
Mof_H 	H 	0.3757	0.3255	0.0584	0.017
Mof_C 	C 	0.32326	0.37924	0.0238	-0.205
Mof_C 	C 	0.30815	0.44066	0.0194	0.074
Mof_H 	H 	0.2801	0.4492	0.9985	0.018
Mof_C 	C 	0.29536	0.326	0.9953	0.549
Mof_C 	C 	0.43582	0.4013	0.1128	-0.009
Mof_C 	C 	0.47188	0.3846	0.1362	-0.012
Mof_C 	C 	0.51346	0.3642	0.159	-0.006
Mof_C 	C 	0.54996	0.3437	0.178	-0.014
Mof_C 	C 	0.59235	0.3156	0.1935	-0.007
Mof_C 	C 	0.62326	0.3134	0.1417	0.01
Mof_H 	H 	0.6162	0.332	0.0994	0.041
Mof_C 	C 	0.66425	0.2831	0.1548	-0.165
Mof_C 	C 	0.67461	0.2562	0.2182	0.061
Mof_H 	H 	0.7023	0.2373	0.2271	0.009
Mof_C 	C 	0.64395	0.257	0.2695	-0.105
Mof_C 	C 	0.60305	0.287	0.2564	-0.015
Mof_H 	H 	0.5826	0.288	0.2901	0.052
Mof_C 	C 	0.69692	0.27948	0.101	0.493
Mof_C 	C 	0.65595	0.2273	0.3368	0.341
Mof_C 	C 	0.16253	0.4575	0.9246	0.357
Mof_C 	C 	0.14819	0.5228	0.9062	-0.121
Mof_C 	C 	0.1722	0.5753	0.9302	0.066
Mof_H 	H 	0.1985	0.5703	0.9576	0.009
Mof_C 	C 	0.15674	0.63557	0.9131	-0.163
Mof_C 	C 	0.11744	0.64356	0.8723	0.006
Mof_H 	H 	0.1072	0.6838	0.861	0.035
Mof_C 	C 	0.09345	0.5908	0.8486	-0.016
Mof_C 	C 	0.1092	0.5299	0.8648	-0.014
Mof_H 	H 	0.0936	0.4947	0.8479	0.044
Mof_C 	C 	0.18223	0.6934	0.9366	0.483
Mof_C 	C 	0.0533	0.5973	0.8042	-0.024
Mof_C 	C 	0.01967	0.5996	0.7704	-0.02
Mof_Eu	Eu	0.77613	0.17405	0.05802	2.103
Mof_Eu	Eu	0.68083	0.8316	0.96243	2.056
Mof_O 	O 	0.84049	0.09959	0.07124	-0.446
Mof_O 	O 	0.77989	0.06698	0.0131	-0.458
Mof_O 	O 	0.75759	0.83877	0.9682	-0.59
Mof_O 	O 	0.81048	0.77079	0.00137	-0.612
Mof_O 	O 	0.18809	0.80929	0.0458	-0.513
Mof_O 	O 	0.23066	0.74598	0.11376	-0.579
Mof_O 	O 	0.12718	0.72292	0.37995	-0.445
Mof_O 	O 	0.19523	0.70771	0.35019	-0.455
Mof_O 	O 	0.69191	0.9475	0.9705	-0.477
Mof_O 	O 	0.64595	0.9129	0.8912	-0.481
Mof_O 	O 	0.71528	0.18708	0.97877	-0.608
Mof_O 	O 	0.67	0.24515	0.91133	-0.526
Mof_C 	C 	0.81781	0.05621	0.0429	0.319
Mof_C 	C 	0.8348	0.99043	0.0463	-0.109
Mof_C 	C 	0.87658	0.9776	0.0774	-0.006
Mof_H 	H 	0.8941	0.0103	0.0958	0.045
Mof_C 	C 	0.89266	0.91548	0.0814	-0.023
Mof_C 	C 	0.8655	0.8668	0.0551	0.037
Mof_H 	H 	0.8757	0.8255	0.0584	0.017
Mof_C 	C 	0.82326	0.87924	0.0238	-0.204
Mof_C 	C 	0.80815	0.94066	0.0194	0.077
Mof_H 	H 	0.7801	0.9492	0.9985	0.016
Mof_C 	C 	0.79536	0.826	0.9953	0.546
Mof_C 	C 	0.93582	0.9013	0.1128	-0.008
Mof_C 	C 	0.97188	0.8846	0.1362	-0.013
Mof_C 	C 	0.01346	0.8642	0.159	-0.006
Mof_C 	C 	0.04996	0.8437	0.178	-0.015
Mof_C 	C 	0.09235	0.8156	0.1935	-0.007
Mof_C 	C 	0.12326	0.8134	0.1417	0.01
Mof_H 	H 	0.1162	0.832	0.0994	0.041
Mof_C 	C 	0.16425	0.7831	0.1548	-0.165
Mof_C 	C 	0.17461	0.7562	0.2182	0.061
Mof_H 	H 	0.2023	0.7373	0.2271	0.009
Mof_C 	C 	0.14395	0.757	0.2695	-0.105
Mof_C 	C 	0.10305	0.787	0.2564	-0.015
Mof_H 	H 	0.0826	0.788	0.2901	0.052
Mof_C 	C 	0.19692	0.77948	0.101	0.493
Mof_C 	C 	0.15595	0.7273	0.3368	0.341
Mof_C 	C 	0.66253	0.9575	0.9246	0.356
Mof_C 	C 	0.64819	0.0228	0.9062	-0.12
Mof_C 	C 	0.6722	0.0753	0.9302	0.066
Mof_H 	H 	0.6985	0.0703	0.9576	0.009
Mof_C 	C 	0.65674	0.13557	0.9131	-0.163
Mof_C 	C 	0.61744	0.14356	0.8723	0.007
Mof_H 	H 	0.6072	0.1838	0.861	0.035
Mof_C 	C 	0.59345	0.0908	0.8486	-0.016
Mof_C 	C 	0.6092	0.0299	0.8648	-0.012
Mof_H 	H 	0.5936	0.9947	0.8479	0.042
Mof_C 	C 	0.68223	0.1934	0.9366	0.483
Mof_C 	C 	0.5533	0.0973	0.8042	-0.024
Mof_C 	C 	0.51967	0.0996	0.7704	-0.02
_end
