data_functionalizedCrystal
_audit_creation_method	'EQeq! by Chris Wilmer'
_symmetry_space_group_name_H-M	'P1'
_symmetry_Int_Tables_number	1
_symmetry_cell_setting	triclinic
loop_
_symmetry_equiv_pos_as_xyz
  x,y,z
_cell_length_a	16.1584
_cell_length_b	23.7409
_cell_length_c	30.7911
_cell_angle_alpha	90
_cell_angle_beta	90
_cell_angle_gamma	90
loop_
_atom_site_label
_atom_site_type_symbol
_atom_site_fract_x
_atom_site_fract_y
_atom_site_fract_z
_atom_site_charge
Mof_C 	C 	0.0791	0.72809	0.23235	-0.081
Mof_C 	C 	0.0461	0.77798	0.21522	-0.013
Mof_H 	H 	0.0655	0.792	0.1889	0.056
Mof_C 	C 	0.9838	0.80653	0.2379	-0.031
Mof_H 	H 	0.9619	0.8397	0.2266	0.051
Mof_C 	C 	0.955	0.78582	0.2767	-0.066
Mof_C 	C 	0.9873	0.73632	0.29435	-0.029
Mof_H 	H 	0.9675	0.7224	0.3206	0.06
Mof_C 	C 	0.0501	0.70785	0.27164	-0.008
Mof_H 	H 	0.0725	0.675	0.2832	0.048
Mof_C 	C 	0.1432	0.69591	0.20688	0.375
Mof_C 	C 	0.8848	0.81475	0.30089	0.338
Mof_C 	C 	0.3791	0.63001	0.06922	0.303
Mof_C 	C 	0.4713	0.6811	0.01707	-0.015
Mof_H 	H 	0.4523	0.715	0.0286	0.087
Mof_C 	C 	0.4431	0.63028	0.0336	-0.051
Mof_C 	C 	0.4732	0.5797	0.01711	-0.028
Mof_H 	H 	0.4566	0.5458	0.0295	0.054
Mof_C 	C 	0.1172	0.6376	0.07234	0.327
Mof_C 	C 	0.0296	0.6892	0.01619	-0.019
Mof_H 	H 	0.0523	0.7231	0.0255	0.071
Mof_C 	C 	0.0562	0.63733	0.03558	-0.053
Mof_C 	C 	0.0271	0.5873	0.01743	-0.02
Mof_H 	H 	0.0445	0.5531	0.029	0.057
Mof_C 	C 	0.3523	0.488	0.16615	0.156
Mof_H 	H 	0.3251	0.4984	0.1408	0
Mof_C 	C 	0.4808	0.443	0.18727	-1.016
Mof_H 	H 	0.5247	0.4231	0.1729	0.194
Mof_H 	H 	0.4681	0.4246	0.2142	0.191
Mof_H 	H 	0.4979	0.481	0.1929	0.132
Mof_C 	C 	0.3901	0.3989	0.12563	-0.508
Mof_H 	H 	0.3437	0.4104	0.1082	0.196
Mof_H 	H 	0.3776	0.3638	0.1397	0.201
Mof_H 	H 	0.4379	0.3944	0.1074	0.202
Mof_C 	C 	0.3436	0.79929	0.10306	0.063
Mof_H 	H 	0.3875	0.7763	0.1114	0.042
Mof_C 	C 	0.2954	0.88772	0.07839	-0.049
Mof_C 	C 	0.2159	0.86646	0.07818	0.356
Mof_C 	C 	0.2	0.8121	0.09121	-0.139
Mof_H 	H 	0.146	0.7987	0.0916	0.122
Mof_C 	C 	0.3175	0.94689	0.06699	0.056
Mof_H 	H 	0.278	0.961	0.0455	0.103
Mof_C 	C 	0.4041	0.94941	0.0478	-0.529
Mof_H 	H 	0.4435	0.9368	0.069	0.209
Mof_H 	H 	0.4167	0.9875	0.0396	0.188
Mof_H 	H 	0.4069	0.9255	0.0227	0.205
Mof_C 	C 	0.3156	0.98661	0.1081	0.26
Mof_C 	C 	0.3483	0.04666	0.0989	-0.331
Mof_C 	C 	0.4124	0.06839	0.12532	0.367
Mof_H 	H 	0.4344	0.0462	0.1474	-0.072
Mof_C 	C 	0.442	0.12051	0.119	-0.562
Mof_H 	H 	0.4839	0.1341	0.1369	0.251
Mof_C 	C 	0.4104	0.15491	0.08573	0.695
Mof_C 	C 	0.3484	0.13491	0.06109	-0.674
Mof_H 	H 	0.3262	0.158	0.0397	0.322
Mof_C 	C 	0.3163	0.08125	0.06629	0.59
Mof_C 	C 	0.2259	0.99224	0.12481	-0.237
Mof_H 	H 	0.1908	0.0047	0.1012	0.185
Mof_H 	H 	0.2064	0.9555	0.1341	0.133
Mof_C 	C 	0.2094	0.10924	0.19244	0.101
Mof_H 	H 	0.2015	0.1474	0.1979	0.012
Mof_C 	C 	0.2368	0.02491	0.20245	0.091
Mof_H 	H 	0.2521	0.9907	0.2147	-0.011
Mof_Co	Co	0.25328	0.692	0.12544	1.189
Mof_Co	Co	0.25569	0.58859	0.20916	1.156
Mof_F 	F 	0.15334	0.89837	0.06668	-0.443
Mof_F 	F 	0.25291	0.06123	0.04147	-0.482
Mof_F 	F 	0.43839	0.20757	0.07961	-0.535
Mof_N 	N 	0.4073	0.44328	0.15951	0.038
Mof_N 	N 	0.2643	0.77759	0.10368	-0.166
Mof_N 	N 	0.3598	0.854	0.09048	-0.09
Mof_N 	N 	0.2182	0.03178	0.16093	-0.06
Mof_N 	N 	0.2005	0.08757	0.15375	-0.076
Mof_N 	N 	0.231	0.07217	0.22422	-0.238
Mof_O 	O 	0.16708	0.71699	0.1717	-0.417
Mof_O 	O 	0.17266	0.65136	0.22359	-0.443
Mof_O 	O 	0.85195	0.79015	0.33236	-0.408
Mof_O 	O 	0.8614	0.8625	0.28446	-0.422
Mof_O 	O 	0.34081	0.67523	0.07747	-0.366
Mof_O 	O 	0.36966	0.58353	0.09022	-0.249
Mof_O 	O 	0.15626	0.68205	0.08072	-0.374
Mof_O 	O 	0.12378	0.59239	0.09267	-0.253
Mof_O 	O 	0.2493	0.60333	0.14224	-0.389
Mof_O 	O 	0.3315	0.51671	0.19743	-0.372
Mof_O 	O 	0.36425	0.96448	0.14199	-0.32
Mof_H 	H 	0.3309	0.9579	0.1673	0.167
Mof_H 	H 	0.4691	0.4627	0.2138	0.207
Mof_H 	H 	0.5257	0.4612	0.1724	0.226
Mof_H 	H 	0.4959	0.4048	0.1938	0.204
Mof_C 	C 	0.5791	0.22809	0.73235	-0.08
Mof_C 	C 	0.5461	0.27798	0.71522	-0.012
Mof_H 	H 	0.5655	0.292	0.6889	0.057
Mof_C 	C 	0.4838	0.30653	0.7379	-0.03
Mof_H 	H 	0.4619	0.3397	0.7266	0.052
Mof_C 	C 	0.455	0.28582	0.7767	-0.065
Mof_C 	C 	0.4873	0.23632	0.79435	-0.028
Mof_H 	H 	0.4675	0.2224	0.8206	0.061
Mof_C 	C 	0.5501	0.20785	0.77164	-0.008
Mof_H 	H 	0.5725	0.175	0.7832	0.048
Mof_C 	C 	0.6432	0.19591	0.70688	0.375
Mof_C 	C 	0.3848	0.31475	0.80089	0.338
Mof_C 	C 	0.8791	0.13001	0.56922	0.303
Mof_C 	C 	0.9713	0.1811	0.51707	-0.015
Mof_H 	H 	0.9523	0.215	0.5286	0.087
Mof_C 	C 	0.9431	0.13028	0.5336	-0.051
Mof_C 	C 	0.9732	0.0797	0.51711	-0.028
Mof_H 	H 	0.9566	0.0458	0.5295	0.054
Mof_C 	C 	0.6172	0.1376	0.57234	0.327
Mof_C 	C 	0.5296	0.1892	0.51619	-0.019
Mof_H 	H 	0.5523	0.2231	0.5255	0.071
Mof_C 	C 	0.5562	0.13733	0.53558	-0.053
Mof_C 	C 	0.5271	0.0873	0.51743	-0.02
Mof_H 	H 	0.5445	0.0531	0.529	0.057
Mof_C 	C 	0.8523	0.988	0.66615	0.156
Mof_H 	H 	0.8251	0.9984	0.6408	0
Mof_C 	C 	0.9808	0.943	0.68727	-1.016
Mof_H 	H 	0.0247	0.9231	0.6729	0.194
Mof_H 	H 	0.9681	0.9246	0.7142	0.191
Mof_H 	H 	0.9979	0.981	0.6929	0.132
Mof_C 	C 	0.8901	0.8989	0.62563	-0.508
Mof_H 	H 	0.8437	0.9104	0.6082	0.196
Mof_H 	H 	0.8776	0.8638	0.6397	0.201
Mof_H 	H 	0.9379	0.8944	0.6074	0.202
Mof_C 	C 	0.8436	0.29929	0.60306	0.063
Mof_H 	H 	0.8875	0.2763	0.6114	0.042
Mof_C 	C 	0.7954	0.38772	0.57839	-0.049
Mof_C 	C 	0.7159	0.36646	0.57818	0.356
Mof_C 	C 	0.7	0.3121	0.59121	-0.139
Mof_H 	H 	0.646	0.2987	0.5916	0.122
Mof_C 	C 	0.8175	0.44689	0.56699	0.056
Mof_H 	H 	0.778	0.461	0.5455	0.103
Mof_C 	C 	0.9041	0.44941	0.5478	-0.529
Mof_H 	H 	0.9435	0.4368	0.569	0.209
Mof_H 	H 	0.9167	0.4875	0.5396	0.188
Mof_H 	H 	0.9069	0.4255	0.5227	0.205
Mof_C 	C 	0.8156	0.48661	0.6081	0.26
Mof_C 	C 	0.8483	0.54666	0.5989	-0.331
Mof_C 	C 	0.9124	0.56839	0.62532	0.367
Mof_H 	H 	0.9344	0.5462	0.6474	-0.072
Mof_C 	C 	0.942	0.62051	0.619	-0.562
Mof_H 	H 	0.9839	0.6341	0.6369	0.251
Mof_C 	C 	0.9104	0.65491	0.58573	0.695
Mof_C 	C 	0.8484	0.63491	0.56109	-0.674
Mof_H 	H 	0.8262	0.658	0.5397	0.322
Mof_C 	C 	0.8163	0.58125	0.56629	0.59
Mof_C 	C 	0.7259	0.49224	0.62481	-0.237
Mof_H 	H 	0.6908	0.5047	0.6012	0.185
Mof_H 	H 	0.7064	0.4555	0.6341	0.133
Mof_C 	C 	0.7094	0.60924	0.69244	0.101
Mof_H 	H 	0.7015	0.6474	0.6979	0.012
Mof_C 	C 	0.7368	0.52491	0.70245	0.091
Mof_H 	H 	0.7521	0.4907	0.7147	-0.011
Mof_Co	Co	0.75328	0.192	0.62544	1.189
Mof_Co	Co	0.75569	0.08859	0.70916	1.156
Mof_F 	F 	0.65334	0.39837	0.56668	-0.443
Mof_F 	F 	0.75291	0.56123	0.54147	-0.482
Mof_F 	F 	0.93839	0.70757	0.57961	-0.535
Mof_N 	N 	0.9073	0.94328	0.65951	0.038
Mof_N 	N 	0.7643	0.27759	0.60368	-0.166
Mof_N 	N 	0.8598	0.354	0.59048	-0.09
Mof_N 	N 	0.7182	0.53178	0.66093	-0.06
Mof_N 	N 	0.7005	0.58757	0.65375	-0.076
Mof_N 	N 	0.731	0.57217	0.72422	-0.238
Mof_O 	O 	0.66708	0.21699	0.6717	-0.417
Mof_O 	O 	0.67266	0.15136	0.72359	-0.443
Mof_O 	O 	0.35195	0.29015	0.83236	-0.408
Mof_O 	O 	0.3614	0.3625	0.78446	-0.422
Mof_O 	O 	0.84081	0.17523	0.57747	-0.366
Mof_O 	O 	0.86966	0.08353	0.59022	-0.248
Mof_O 	O 	0.65626	0.18205	0.58072	-0.374
Mof_O 	O 	0.62378	0.09239	0.59267	-0.253
Mof_O 	O 	0.7493	0.10333	0.64224	-0.389
Mof_O 	O 	0.8315	0.01671	0.69743	-0.372
Mof_O 	O 	0.86425	0.46448	0.64199	-0.32
Mof_H 	H 	0.8309	0.4579	0.6673	0.167
Mof_H 	H 	0.9691	0.9627	0.7138	0.207
Mof_H 	H 	0.0257	0.9612	0.6724	0.226
Mof_H 	H 	0.9959	0.9048	0.6938	0.205
Mof_C 	C 	0.9209	0.27191	0.23235	-0.08
Mof_C 	C 	0.9539	0.22202	0.21522	-0.012
Mof_H 	H 	0.9345	0.208	0.1889	0.057
Mof_C 	C 	0.0162	0.19347	0.2379	-0.03
Mof_H 	H 	0.0381	0.1603	0.2266	0.052
Mof_C 	C 	0.045	0.21418	0.2767	-0.065
Mof_C 	C 	0.0127	0.26368	0.29435	-0.028
Mof_H 	H 	0.0325	0.2776	0.3206	0.061
Mof_C 	C 	0.9499	0.29215	0.27164	-0.008
Mof_H 	H 	0.9275	0.325	0.2832	0.048
Mof_C 	C 	0.8568	0.30409	0.20688	0.375
Mof_C 	C 	0.1152	0.18525	0.30089	0.338
Mof_C 	C 	0.6209	0.36999	0.06922	0.303
Mof_C 	C 	0.5287	0.3189	0.01707	-0.015
Mof_H 	H 	0.5477	0.285	0.0286	0.087
Mof_C 	C 	0.5569	0.36972	0.0336	-0.051
Mof_C 	C 	0.5268	0.4203	0.01711	-0.028
Mof_H 	H 	0.5434	0.4542	0.0295	0.054
Mof_C 	C 	0.8828	0.3624	0.07234	0.327
Mof_C 	C 	0.9704	0.3108	0.01619	-0.019
Mof_H 	H 	0.9477	0.2769	0.0255	0.071
Mof_C 	C 	0.9438	0.36267	0.03558	-0.053
Mof_C 	C 	0.9729	0.4127	0.01743	-0.02
Mof_H 	H 	0.9555	0.4469	0.029	0.057
Mof_C 	C 	0.6477	0.512	0.16615	0.156
Mof_H 	H 	0.6749	0.5016	0.1408	0
Mof_C 	C 	0.5192	0.557	0.18727	-1.016
Mof_H 	H 	0.4753	0.5769	0.1729	0.194
Mof_H 	H 	0.5319	0.5754	0.2142	0.191
Mof_H 	H 	0.5021	0.519	0.1929	0.132
Mof_C 	C 	0.6099	0.6011	0.12563	-0.508
Mof_H 	H 	0.6563	0.5896	0.1082	0.196
Mof_H 	H 	0.6224	0.6362	0.1397	0.201
Mof_H 	H 	0.5621	0.6056	0.1074	0.202
Mof_C 	C 	0.6564	0.20071	0.10306	0.063
Mof_H 	H 	0.6125	0.2237	0.1114	0.042
Mof_C 	C 	0.7046	0.11228	0.07839	-0.049
Mof_C 	C 	0.7841	0.13354	0.07818	0.356
Mof_C 	C 	0.8	0.1879	0.09121	-0.139
Mof_H 	H 	0.854	0.2013	0.0916	0.122
Mof_C 	C 	0.6825	0.05311	0.06699	0.056
Mof_H 	H 	0.722	0.039	0.0455	0.103
Mof_C 	C 	0.5959	0.05059	0.0478	-0.529
Mof_H 	H 	0.5565	0.0632	0.069	0.209
Mof_H 	H 	0.5833	0.0125	0.0396	0.188
Mof_H 	H 	0.5931	0.0745	0.0227	0.205
Mof_C 	C 	0.6844	0.01339	0.1081	0.26
Mof_C 	C 	0.6517	0.95334	0.0989	-0.331
Mof_C 	C 	0.5876	0.93161	0.12532	0.367
Mof_H 	H 	0.5656	0.9538	0.1474	-0.072
Mof_C 	C 	0.558	0.87949	0.119	-0.562
Mof_H 	H 	0.5161	0.8659	0.1369	0.251
Mof_C 	C 	0.5896	0.84509	0.08573	0.695
Mof_C 	C 	0.6516	0.86509	0.06109	-0.674
Mof_H 	H 	0.6738	0.842	0.0397	0.322
Mof_C 	C 	0.6837	0.91875	0.06629	0.59
Mof_C 	C 	0.7741	0.00776	0.12481	-0.237
Mof_H 	H 	0.8092	0.9953	0.1012	0.185
Mof_H 	H 	0.7936	0.0445	0.1341	0.133
Mof_C 	C 	0.7906	0.89076	0.19244	0.101
Mof_H 	H 	0.7985	0.8526	0.1979	0.012
Mof_C 	C 	0.7632	0.97509	0.20245	0.091
Mof_H 	H 	0.7479	0.0093	0.2147	-0.011
Mof_Co	Co	0.74672	0.308	0.12544	1.189
Mof_Co	Co	0.74431	0.41141	0.20916	1.156
Mof_F 	F 	0.84666	0.10163	0.06668	-0.443
Mof_F 	F 	0.74709	0.93877	0.04147	-0.482
Mof_F 	F 	0.56161	0.79243	0.07961	-0.535
Mof_N 	N 	0.5927	0.55672	0.15951	0.038
Mof_N 	N 	0.7357	0.22241	0.10368	-0.166
Mof_N 	N 	0.6402	0.146	0.09048	-0.09
Mof_N 	N 	0.7818	0.96822	0.16093	-0.06
Mof_N 	N 	0.7995	0.91243	0.15375	-0.076
Mof_N 	N 	0.769	0.92783	0.22422	-0.238
Mof_O 	O 	0.83292	0.28301	0.1717	-0.417
Mof_O 	O 	0.82734	0.34864	0.22359	-0.443
Mof_O 	O 	0.14805	0.20985	0.33236	-0.408
Mof_O 	O 	0.1386	0.1375	0.28446	-0.422
Mof_O 	O 	0.65919	0.32477	0.07747	-0.366
Mof_O 	O 	0.63034	0.41647	0.09022	-0.249
Mof_O 	O 	0.84374	0.31795	0.08072	-0.374
Mof_O 	O 	0.87622	0.40761	0.09267	-0.253
Mof_O 	O 	0.7507	0.39667	0.14224	-0.389
Mof_O 	O 	0.6685	0.48329	0.19743	-0.372
Mof_O 	O 	0.63575	0.03552	0.14199	-0.32
Mof_H 	H 	0.6691	0.0421	0.1673	0.167
Mof_H 	H 	0.5309	0.5373	0.2138	0.207
Mof_H 	H 	0.4743	0.5388	0.1724	0.226
Mof_H 	H 	0.5041	0.5952	0.1938	0.204
Mof_C 	C 	0.4209	0.77191	0.73235	-0.08
Mof_C 	C 	0.4539	0.72202	0.71522	-0.012
Mof_H 	H 	0.4345	0.708	0.6889	0.057
Mof_C 	C 	0.5162	0.69347	0.7379	-0.03
Mof_H 	H 	0.5381	0.6603	0.7266	0.052
Mof_C 	C 	0.545	0.71418	0.7767	-0.065
Mof_C 	C 	0.5127	0.76368	0.79435	-0.028
Mof_H 	H 	0.5325	0.7776	0.8206	0.061
Mof_C 	C 	0.4499	0.79215	0.77164	-0.008
Mof_H 	H 	0.4275	0.825	0.7832	0.048
Mof_C 	C 	0.3568	0.80409	0.70688	0.375
Mof_C 	C 	0.6152	0.68525	0.80089	0.338
Mof_C 	C 	0.1209	0.86999	0.56922	0.303
Mof_C 	C 	0.0287	0.8189	0.51707	-0.015
Mof_H 	H 	0.0477	0.785	0.5286	0.087
Mof_C 	C 	0.0569	0.86972	0.5336	-0.051
Mof_C 	C 	0.0268	0.9203	0.51711	-0.028
Mof_H 	H 	0.0434	0.9542	0.5295	0.054
Mof_C 	C 	0.3828	0.8624	0.57234	0.327
Mof_C 	C 	0.4704	0.8108	0.51619	-0.019
Mof_H 	H 	0.4477	0.7769	0.5255	0.071
Mof_C 	C 	0.4438	0.86267	0.53558	-0.053
Mof_C 	C 	0.4729	0.9127	0.51743	-0.02
Mof_H 	H 	0.4555	0.9469	0.529	0.057
Mof_C 	C 	0.1477	0.012	0.66615	0.156
Mof_H 	H 	0.1749	0.0016	0.6408	0
Mof_C 	C 	0.0192	0.057	0.68727	-1.016
Mof_H 	H 	0.9753	0.0769	0.6729	0.194
Mof_H 	H 	0.0319	0.0754	0.7142	0.191
Mof_H 	H 	0.0021	0.019	0.6929	0.132
Mof_C 	C 	0.1099	0.1011	0.62563	-0.508
Mof_H 	H 	0.1563	0.0896	0.6082	0.196
Mof_H 	H 	0.1224	0.1362	0.6397	0.201
Mof_H 	H 	0.0621	0.1056	0.6074	0.202
Mof_C 	C 	0.1564	0.70071	0.60306	0.063
Mof_H 	H 	0.1125	0.7237	0.6114	0.042
Mof_C 	C 	0.2046	0.61228	0.57839	-0.049
Mof_C 	C 	0.2841	0.63354	0.57818	0.356
Mof_C 	C 	0.3	0.6879	0.59121	-0.139
Mof_H 	H 	0.354	0.7013	0.5916	0.122
Mof_C 	C 	0.1825	0.55311	0.56699	0.056
Mof_H 	H 	0.222	0.539	0.5455	0.103
Mof_C 	C 	0.0959	0.55059	0.5478	-0.529
Mof_H 	H 	0.0565	0.5632	0.569	0.209
Mof_H 	H 	0.0833	0.5125	0.5396	0.188
Mof_H 	H 	0.0931	0.5745	0.5227	0.205
Mof_C 	C 	0.1844	0.51339	0.6081	0.26
Mof_C 	C 	0.1517	0.45334	0.5989	-0.331
Mof_C 	C 	0.0876	0.43161	0.62532	0.367
Mof_H 	H 	0.0656	0.4538	0.6474	-0.072
Mof_C 	C 	0.058	0.37949	0.619	-0.562
Mof_H 	H 	0.0161	0.3659	0.6369	0.251
Mof_C 	C 	0.0896	0.34509	0.58573	0.695
Mof_C 	C 	0.1516	0.36509	0.56109	-0.674
Mof_H 	H 	0.1738	0.342	0.5397	0.322
Mof_C 	C 	0.1837	0.41875	0.56629	0.59
Mof_C 	C 	0.2741	0.50776	0.62481	-0.237
Mof_H 	H 	0.3092	0.4953	0.6012	0.185
Mof_H 	H 	0.2936	0.5445	0.6341	0.133
Mof_C 	C 	0.2906	0.39076	0.69244	0.101
Mof_H 	H 	0.2985	0.3526	0.6979	0.012
Mof_C 	C 	0.2632	0.47509	0.70245	0.091
Mof_H 	H 	0.2479	0.5093	0.7147	-0.011
Mof_Co	Co	0.24672	0.808	0.62544	1.189
Mof_Co	Co	0.24431	0.91141	0.70916	1.156
Mof_F 	F 	0.34666	0.60163	0.56668	-0.443
Mof_F 	F 	0.24709	0.43877	0.54147	-0.482
Mof_F 	F 	0.06161	0.29243	0.57961	-0.535
Mof_N 	N 	0.0927	0.05672	0.65951	0.038
Mof_N 	N 	0.2357	0.72241	0.60368	-0.166
Mof_N 	N 	0.1402	0.646	0.59048	-0.09
Mof_N 	N 	0.2818	0.46822	0.66093	-0.06
Mof_N 	N 	0.2995	0.41243	0.65375	-0.076
Mof_N 	N 	0.269	0.42783	0.72422	-0.238
Mof_O 	O 	0.33292	0.78301	0.6717	-0.417
Mof_O 	O 	0.32734	0.84864	0.72359	-0.443
Mof_O 	O 	0.64805	0.70985	0.83236	-0.408
Mof_O 	O 	0.6386	0.6375	0.78446	-0.422
Mof_O 	O 	0.15919	0.82477	0.57747	-0.366
Mof_O 	O 	0.13034	0.91647	0.59022	-0.248
Mof_O 	O 	0.34374	0.81795	0.58072	-0.374
Mof_O 	O 	0.37622	0.90761	0.59267	-0.253
Mof_O 	O 	0.2507	0.89667	0.64224	-0.389
Mof_O 	O 	0.1685	0.98329	0.69743	-0.372
Mof_O 	O 	0.13575	0.53552	0.64199	-0.32
Mof_H 	H 	0.1691	0.5421	0.6673	0.167
Mof_H 	H 	0.0309	0.0373	0.7138	0.207
Mof_H 	H 	0.9743	0.0388	0.6724	0.226
Mof_H 	H 	0.0041	0.0952	0.6938	0.205
Mof_C 	C 	0.9209	0.72809	0.76765	-0.08
Mof_C 	C 	0.9539	0.77798	0.78478	-0.012
Mof_H 	H 	0.9345	0.792	0.8111	0.057
Mof_C 	C 	0.0162	0.80653	0.7621	-0.03
Mof_H 	H 	0.0381	0.8397	0.7734	0.052
Mof_C 	C 	0.045	0.78582	0.7233	-0.065
Mof_C 	C 	0.0127	0.73632	0.70565	-0.028
Mof_H 	H 	0.0325	0.7224	0.6794	0.061
Mof_C 	C 	0.9499	0.70785	0.72836	-0.008
Mof_H 	H 	0.9275	0.675	0.7168	0.048
Mof_C 	C 	0.8568	0.69591	0.79312	0.375
Mof_C 	C 	0.1152	0.81475	0.69911	0.338
Mof_C 	C 	0.6209	0.63001	0.93078	0.303
Mof_C 	C 	0.5287	0.6811	0.98293	-0.015
Mof_H 	H 	0.5477	0.715	0.9714	0.087
Mof_C 	C 	0.5569	0.63028	0.9664	-0.051
Mof_C 	C 	0.5268	0.5797	0.98289	-0.028
Mof_H 	H 	0.5434	0.5458	0.9705	0.054
Mof_C 	C 	0.8828	0.6376	0.92766	0.327
Mof_C 	C 	0.9704	0.6892	0.98381	-0.019
Mof_H 	H 	0.9477	0.7231	0.9745	0.071
Mof_C 	C 	0.9438	0.63733	0.96442	-0.053
Mof_C 	C 	0.9729	0.5873	0.98257	-0.02
Mof_H 	H 	0.9555	0.5531	0.971	0.057
Mof_C 	C 	0.6477	0.488	0.83385	0.156
Mof_H 	H 	0.6749	0.4984	0.8592	0
Mof_C 	C 	0.5192	0.443	0.81273	-1.016
Mof_H 	H 	0.4753	0.4231	0.8271	0.194
Mof_H 	H 	0.5319	0.4246	0.7858	0.191
Mof_H 	H 	0.5021	0.481	0.8071	0.132
Mof_C 	C 	0.6099	0.3989	0.87437	-0.508
Mof_H 	H 	0.6563	0.4104	0.8918	0.196
Mof_H 	H 	0.6224	0.3638	0.8603	0.201
Mof_H 	H 	0.5621	0.3944	0.8926	0.202
Mof_C 	C 	0.6564	0.79929	0.89694	0.063
Mof_H 	H 	0.6125	0.7763	0.8886	0.042
Mof_C 	C 	0.7046	0.88772	0.92161	-0.049
Mof_C 	C 	0.7841	0.86646	0.92182	0.356
Mof_C 	C 	0.8	0.8121	0.90879	-0.139
Mof_H 	H 	0.854	0.7987	0.9084	0.122
Mof_C 	C 	0.6825	0.94689	0.93301	0.056
Mof_H 	H 	0.722	0.961	0.9545	0.103
Mof_C 	C 	0.5959	0.94941	0.9522	-0.529
Mof_H 	H 	0.5565	0.9368	0.931	0.209
Mof_H 	H 	0.5833	0.9875	0.9604	0.188
Mof_H 	H 	0.5931	0.9255	0.9773	0.205
Mof_C 	C 	0.6844	0.98661	0.8919	0.26
Mof_C 	C 	0.6517	0.04666	0.9011	-0.331
Mof_C 	C 	0.5876	0.06839	0.87468	0.367
Mof_H 	H 	0.5656	0.0462	0.8526	-0.072
Mof_C 	C 	0.558	0.12051	0.881	-0.562
Mof_H 	H 	0.5161	0.1341	0.8631	0.251
Mof_C 	C 	0.5896	0.15491	0.91427	0.695
Mof_C 	C 	0.6516	0.13491	0.93891	-0.674
Mof_H 	H 	0.6738	0.158	0.9603	0.322
Mof_C 	C 	0.6837	0.08125	0.93371	0.59
Mof_C 	C 	0.7741	0.99224	0.87519	-0.237
Mof_H 	H 	0.8092	0.0047	0.8988	0.185
Mof_H 	H 	0.7936	0.9555	0.8659	0.133
Mof_C 	C 	0.7906	0.10924	0.80756	0.101
Mof_H 	H 	0.7985	0.1474	0.8021	0.012
Mof_C 	C 	0.7632	0.02491	0.79755	0.091
Mof_H 	H 	0.7479	0.9907	0.7853	-0.011
Mof_Co	Co	0.74672	0.692	0.87456	1.189
Mof_Co	Co	0.74431	0.58859	0.79084	1.156
Mof_F 	F 	0.84666	0.89837	0.93332	-0.443
Mof_F 	F 	0.74709	0.06123	0.95853	-0.482
Mof_F 	F 	0.56161	0.20757	0.92039	-0.535
Mof_N 	N 	0.5927	0.44328	0.84049	0.038
Mof_N 	N 	0.7357	0.77759	0.89632	-0.166
Mof_N 	N 	0.6402	0.854	0.90952	-0.09
Mof_N 	N 	0.7818	0.03178	0.83907	-0.06
Mof_N 	N 	0.7995	0.08757	0.84625	-0.076
Mof_N 	N 	0.769	0.07217	0.77578	-0.238
Mof_O 	O 	0.83292	0.71699	0.8283	-0.417
Mof_O 	O 	0.82734	0.65136	0.77641	-0.443
Mof_O 	O 	0.14805	0.79015	0.66764	-0.408
Mof_O 	O 	0.1386	0.8625	0.71554	-0.422
Mof_O 	O 	0.65919	0.67523	0.92253	-0.366
Mof_O 	O 	0.63034	0.58353	0.90978	-0.249
Mof_O 	O 	0.84374	0.68205	0.91928	-0.374
Mof_O 	O 	0.87622	0.59239	0.90733	-0.253
Mof_O 	O 	0.7507	0.60333	0.85776	-0.389
Mof_O 	O 	0.6685	0.51671	0.80257	-0.372
Mof_O 	O 	0.63575	0.96448	0.85801	-0.32
Mof_H 	H 	0.6691	0.9579	0.8327	0.167
Mof_H 	H 	0.5309	0.4627	0.7862	0.207
Mof_H 	H 	0.4743	0.4612	0.8276	0.226
Mof_H 	H 	0.5041	0.4048	0.8062	0.204
Mof_C 	C 	0.4209	0.22809	0.26765	-0.08
Mof_C 	C 	0.4539	0.27798	0.28478	-0.012
Mof_H 	H 	0.4345	0.292	0.3111	0.057
Mof_C 	C 	0.5162	0.30653	0.2621	-0.03
Mof_H 	H 	0.5381	0.3397	0.2734	0.052
Mof_C 	C 	0.545	0.28582	0.2233	-0.065
Mof_C 	C 	0.5127	0.23632	0.20565	-0.028
Mof_H 	H 	0.5325	0.2224	0.1794	0.061
Mof_C 	C 	0.4499	0.20785	0.22836	-0.008
Mof_H 	H 	0.4275	0.175	0.2168	0.048
Mof_C 	C 	0.3568	0.19591	0.29312	0.375
Mof_C 	C 	0.6152	0.31475	0.19911	0.338
Mof_C 	C 	0.1209	0.13001	0.43078	0.303
Mof_C 	C 	0.0287	0.1811	0.48293	-0.015
Mof_H 	H 	0.0477	0.215	0.4714	0.087
Mof_C 	C 	0.0569	0.13028	0.4664	-0.051
Mof_C 	C 	0.0268	0.0797	0.48289	-0.028
Mof_H 	H 	0.0434	0.0458	0.4705	0.054
Mof_C 	C 	0.3828	0.1376	0.42766	0.327
Mof_C 	C 	0.4704	0.1892	0.48381	-0.019
Mof_H 	H 	0.4477	0.2231	0.4745	0.071
Mof_C 	C 	0.4438	0.13733	0.46442	-0.053
Mof_C 	C 	0.4729	0.0873	0.48257	-0.02
Mof_H 	H 	0.4555	0.0531	0.471	0.057
Mof_C 	C 	0.1477	0.988	0.33385	0.156
Mof_H 	H 	0.1749	0.9984	0.3592	0
Mof_C 	C 	0.0192	0.943	0.31273	-1.016
Mof_H 	H 	0.9753	0.9231	0.3271	0.194
Mof_H 	H 	0.0319	0.9246	0.2858	0.191
Mof_H 	H 	0.0021	0.981	0.3071	0.132
Mof_C 	C 	0.1099	0.8989	0.37437	-0.508
Mof_H 	H 	0.1563	0.9104	0.3918	0.196
Mof_H 	H 	0.1224	0.8638	0.3603	0.201
Mof_H 	H 	0.0621	0.8944	0.3926	0.202
Mof_C 	C 	0.1564	0.29929	0.39694	0.063
Mof_H 	H 	0.1125	0.2763	0.3886	0.042
Mof_C 	C 	0.2046	0.38772	0.42161	-0.049
Mof_C 	C 	0.2841	0.36646	0.42182	0.356
Mof_C 	C 	0.3	0.3121	0.40879	-0.139
Mof_H 	H 	0.354	0.2987	0.4084	0.122
Mof_C 	C 	0.1825	0.44689	0.43301	0.056
Mof_H 	H 	0.222	0.461	0.4545	0.103
Mof_C 	C 	0.0959	0.44941	0.4522	-0.529
Mof_H 	H 	0.0565	0.4368	0.431	0.209
Mof_H 	H 	0.0833	0.4875	0.4604	0.188
Mof_H 	H 	0.0931	0.4255	0.4773	0.205
Mof_C 	C 	0.1844	0.48661	0.3919	0.26
Mof_C 	C 	0.1517	0.54666	0.4011	-0.331
Mof_C 	C 	0.0876	0.56839	0.37468	0.367
Mof_H 	H 	0.0656	0.5462	0.3526	-0.072
Mof_C 	C 	0.058	0.62051	0.381	-0.562
Mof_H 	H 	0.0161	0.6341	0.3631	0.251
Mof_C 	C 	0.0896	0.65491	0.41427	0.695
Mof_C 	C 	0.1516	0.63491	0.43891	-0.674
Mof_H 	H 	0.1738	0.658	0.4603	0.322
Mof_C 	C 	0.1837	0.58125	0.43371	0.59
Mof_C 	C 	0.2741	0.49224	0.37519	-0.237
Mof_H 	H 	0.3092	0.5047	0.3988	0.185
Mof_H 	H 	0.2936	0.4555	0.3659	0.133
Mof_C 	C 	0.2906	0.60924	0.30756	0.101
Mof_H 	H 	0.2985	0.6474	0.3021	0.012
Mof_C 	C 	0.2632	0.52491	0.29755	0.091
Mof_H 	H 	0.2479	0.4907	0.2853	-0.011
Mof_Co	Co	0.24672	0.192	0.37456	1.189
Mof_Co	Co	0.24431	0.08859	0.29084	1.156
Mof_F 	F 	0.34666	0.39837	0.43332	-0.443
Mof_F 	F 	0.24709	0.56123	0.45853	-0.482
Mof_F 	F 	0.06161	0.70757	0.42039	-0.535
Mof_N 	N 	0.0927	0.94328	0.34049	0.038
Mof_N 	N 	0.2357	0.27759	0.39632	-0.166
Mof_N 	N 	0.1402	0.354	0.40952	-0.09
Mof_N 	N 	0.2818	0.53178	0.33907	-0.06
Mof_N 	N 	0.2995	0.58757	0.34625	-0.076
Mof_N 	N 	0.269	0.57217	0.27578	-0.238
Mof_O 	O 	0.33292	0.21699	0.3283	-0.417
Mof_O 	O 	0.32734	0.15136	0.27641	-0.443
Mof_O 	O 	0.64805	0.29015	0.16764	-0.408
Mof_O 	O 	0.6386	0.3625	0.21554	-0.422
Mof_O 	O 	0.15919	0.17523	0.42253	-0.366
Mof_O 	O 	0.13034	0.08353	0.40978	-0.248
Mof_O 	O 	0.34374	0.18205	0.41928	-0.374
Mof_O 	O 	0.37622	0.09239	0.40733	-0.253
Mof_O 	O 	0.2507	0.10333	0.35776	-0.389
Mof_O 	O 	0.1685	0.01671	0.30257	-0.372
Mof_O 	O 	0.13575	0.46448	0.35801	-0.32
Mof_H 	H 	0.1691	0.4579	0.3327	0.167
Mof_H 	H 	0.0309	0.9627	0.2862	0.207
Mof_H 	H 	0.9743	0.9612	0.3276	0.226
Mof_H 	H 	0.0041	0.9048	0.3062	0.205
Mof_C 	C 	0.0791	0.27191	0.76765	-0.08
Mof_C 	C 	0.0461	0.22202	0.78478	-0.012
Mof_H 	H 	0.0655	0.208	0.8111	0.057
Mof_C 	C 	0.9838	0.19347	0.7621	-0.03
Mof_H 	H 	0.9619	0.1603	0.7734	0.052
Mof_C 	C 	0.955	0.21418	0.7233	-0.065
Mof_C 	C 	0.9873	0.26368	0.70565	-0.028
Mof_H 	H 	0.9675	0.2776	0.6794	0.061
Mof_C 	C 	0.0501	0.29215	0.72836	-0.008
Mof_H 	H 	0.0725	0.325	0.7168	0.048
Mof_C 	C 	0.1432	0.30409	0.79312	0.375
Mof_C 	C 	0.8848	0.18525	0.69911	0.338
Mof_C 	C 	0.3791	0.36999	0.93078	0.303
Mof_C 	C 	0.4713	0.3189	0.98293	-0.015
Mof_H 	H 	0.4523	0.285	0.9714	0.087
Mof_C 	C 	0.4431	0.36972	0.9664	-0.051
Mof_C 	C 	0.4732	0.4203	0.98289	-0.028
Mof_H 	H 	0.4566	0.4542	0.9705	0.054
Mof_C 	C 	0.1172	0.3624	0.92766	0.327
Mof_C 	C 	0.0296	0.3108	0.98381	-0.019
Mof_H 	H 	0.0523	0.2769	0.9745	0.071
Mof_C 	C 	0.0562	0.36267	0.96442	-0.053
Mof_C 	C 	0.0271	0.4127	0.98257	-0.02
Mof_H 	H 	0.0445	0.4469	0.971	0.057
Mof_C 	C 	0.3523	0.512	0.83385	0.156
Mof_H 	H 	0.3251	0.5016	0.8592	0
Mof_C 	C 	0.4808	0.557	0.81273	-1.016
Mof_H 	H 	0.5247	0.5769	0.8271	0.194
Mof_H 	H 	0.4681	0.5754	0.7858	0.191
Mof_H 	H 	0.4979	0.519	0.8071	0.132
Mof_C 	C 	0.3901	0.6011	0.87437	-0.508
Mof_H 	H 	0.3437	0.5896	0.8918	0.196
Mof_H 	H 	0.3776	0.6362	0.8603	0.201
Mof_H 	H 	0.4379	0.6056	0.8926	0.202
Mof_C 	C 	0.3436	0.20071	0.89694	0.063
Mof_H 	H 	0.3875	0.2237	0.8886	0.042
Mof_C 	C 	0.2954	0.11228	0.92161	-0.049
Mof_C 	C 	0.2159	0.13354	0.92182	0.356
Mof_C 	C 	0.2	0.1879	0.90879	-0.139
Mof_H 	H 	0.146	0.2013	0.9084	0.122
Mof_C 	C 	0.3175	0.05311	0.93301	0.056
Mof_H 	H 	0.278	0.039	0.9545	0.103
Mof_C 	C 	0.4041	0.05059	0.9522	-0.529
Mof_H 	H 	0.4435	0.0632	0.931	0.209
Mof_H 	H 	0.4167	0.0125	0.9604	0.188
Mof_H 	H 	0.4069	0.0745	0.9773	0.205
Mof_C 	C 	0.3156	0.01339	0.8919	0.26
Mof_C 	C 	0.3483	0.95334	0.9011	-0.331
Mof_C 	C 	0.4124	0.93161	0.87468	0.367
Mof_H 	H 	0.4344	0.9538	0.8526	-0.072
Mof_C 	C 	0.442	0.87949	0.881	-0.562
Mof_H 	H 	0.4839	0.8659	0.8631	0.251
Mof_C 	C 	0.4104	0.84509	0.91427	0.695
Mof_C 	C 	0.3484	0.86509	0.93891	-0.674
Mof_H 	H 	0.3262	0.842	0.9603	0.322
Mof_C 	C 	0.3163	0.91875	0.93371	0.59
Mof_C 	C 	0.2259	0.00776	0.87519	-0.237
Mof_H 	H 	0.1908	0.9953	0.8988	0.185
Mof_H 	H 	0.2064	0.0445	0.8659	0.133
Mof_C 	C 	0.2094	0.89076	0.80756	0.101
Mof_H 	H 	0.2015	0.8526	0.8021	0.012
Mof_C 	C 	0.2368	0.97509	0.79755	0.091
Mof_H 	H 	0.2521	0.0093	0.7853	-0.011
Mof_Co	Co	0.25328	0.308	0.87456	1.189
Mof_Co	Co	0.25569	0.41141	0.79084	1.156
Mof_F 	F 	0.15334	0.10163	0.93332	-0.443
Mof_F 	F 	0.25291	0.93877	0.95853	-0.482
Mof_F 	F 	0.43839	0.79243	0.92039	-0.535
Mof_N 	N 	0.4073	0.55672	0.84049	0.038
Mof_N 	N 	0.2643	0.22241	0.89632	-0.166
Mof_N 	N 	0.3598	0.146	0.90952	-0.09
Mof_N 	N 	0.2182	0.96822	0.83907	-0.06
Mof_N 	N 	0.2005	0.91243	0.84625	-0.076
Mof_N 	N 	0.231	0.92783	0.77578	-0.238
Mof_O 	O 	0.16708	0.28301	0.8283	-0.417
Mof_O 	O 	0.17266	0.34864	0.77641	-0.443
Mof_O 	O 	0.85195	0.20985	0.66764	-0.408
Mof_O 	O 	0.8614	0.1375	0.71554	-0.422
Mof_O 	O 	0.34081	0.32477	0.92253	-0.366
Mof_O 	O 	0.36966	0.41647	0.90978	-0.249
Mof_O 	O 	0.15626	0.31795	0.91928	-0.374
Mof_O 	O 	0.12378	0.40761	0.90733	-0.253
Mof_O 	O 	0.2493	0.39667	0.85776	-0.389
Mof_O 	O 	0.3315	0.48329	0.80257	-0.372
Mof_O 	O 	0.36425	0.03552	0.85801	-0.32
Mof_H 	H 	0.3309	0.0421	0.8327	0.167
Mof_H 	H 	0.4691	0.5373	0.7862	0.207
Mof_H 	H 	0.5257	0.5388	0.8276	0.226
Mof_H 	H 	0.4959	0.5952	0.8062	0.204
Mof_C 	C 	0.5791	0.77191	0.26765	-0.08
Mof_C 	C 	0.5461	0.72202	0.28478	-0.012
Mof_H 	H 	0.5655	0.708	0.3111	0.057
Mof_C 	C 	0.4838	0.69347	0.2621	-0.03
Mof_H 	H 	0.4619	0.6603	0.2734	0.052
Mof_C 	C 	0.455	0.71418	0.2233	-0.065
Mof_C 	C 	0.4873	0.76368	0.20565	-0.028
Mof_H 	H 	0.4675	0.7776	0.1794	0.061
Mof_C 	C 	0.5501	0.79215	0.22836	-0.008
Mof_H 	H 	0.5725	0.825	0.2168	0.048
Mof_C 	C 	0.6432	0.80409	0.29312	0.375
Mof_C 	C 	0.3848	0.68525	0.19911	0.338
Mof_C 	C 	0.8791	0.86999	0.43078	0.303
Mof_C 	C 	0.9713	0.8189	0.48293	-0.015
Mof_H 	H 	0.9523	0.785	0.4714	0.087
Mof_C 	C 	0.9431	0.86972	0.4664	-0.051
Mof_C 	C 	0.9732	0.9203	0.48289	-0.028
Mof_H 	H 	0.9566	0.9542	0.4705	0.054
Mof_C 	C 	0.6172	0.8624	0.42766	0.327
Mof_C 	C 	0.5296	0.8108	0.48381	-0.019
Mof_H 	H 	0.5523	0.7769	0.4745	0.071
Mof_C 	C 	0.5562	0.86267	0.46442	-0.053
Mof_C 	C 	0.5271	0.9127	0.48257	-0.02
Mof_H 	H 	0.5445	0.9469	0.471	0.057
Mof_C 	C 	0.8523	0.012	0.33385	0.156
Mof_H 	H 	0.8251	0.0016	0.3592	0
Mof_C 	C 	0.9808	0.057	0.31273	-1.016
Mof_H 	H 	0.0247	0.0769	0.3271	0.194
Mof_H 	H 	0.9681	0.0754	0.2858	0.191
Mof_H 	H 	0.9979	0.019	0.3071	0.132
Mof_C 	C 	0.8901	0.1011	0.37437	-0.508
Mof_H 	H 	0.8437	0.0896	0.3918	0.196
Mof_H 	H 	0.8776	0.1362	0.3603	0.201
Mof_H 	H 	0.9379	0.1056	0.3926	0.202
Mof_C 	C 	0.8436	0.70071	0.39694	0.063
Mof_H 	H 	0.8875	0.7237	0.3886	0.042
Mof_C 	C 	0.7954	0.61228	0.42161	-0.049
Mof_C 	C 	0.7159	0.63354	0.42182	0.356
Mof_C 	C 	0.7	0.6879	0.40879	-0.139
Mof_H 	H 	0.646	0.7013	0.4084	0.122
Mof_C 	C 	0.8175	0.55311	0.43301	0.056
Mof_H 	H 	0.778	0.539	0.4545	0.103
Mof_C 	C 	0.9041	0.55059	0.4522	-0.529
Mof_H 	H 	0.9435	0.5632	0.431	0.209
Mof_H 	H 	0.9167	0.5125	0.4604	0.188
Mof_H 	H 	0.9069	0.5745	0.4773	0.205
Mof_C 	C 	0.8156	0.51339	0.3919	0.26
Mof_C 	C 	0.8483	0.45334	0.4011	-0.331
Mof_C 	C 	0.9124	0.43161	0.37468	0.367
Mof_H 	H 	0.9344	0.4538	0.3526	-0.072
Mof_C 	C 	0.942	0.37949	0.381	-0.562
Mof_H 	H 	0.9839	0.3659	0.3631	0.251
Mof_C 	C 	0.9104	0.34509	0.41427	0.695
Mof_C 	C 	0.8484	0.36509	0.43891	-0.674
Mof_H 	H 	0.8262	0.342	0.4603	0.322
Mof_C 	C 	0.8163	0.41875	0.43371	0.59
Mof_C 	C 	0.7259	0.50776	0.37519	-0.237
Mof_H 	H 	0.6908	0.4953	0.3988	0.185
Mof_H 	H 	0.7064	0.5445	0.3659	0.133
Mof_C 	C 	0.7094	0.39076	0.30756	0.101
Mof_H 	H 	0.7015	0.3526	0.3021	0.012
Mof_C 	C 	0.7368	0.47509	0.29755	0.091
Mof_H 	H 	0.7521	0.5093	0.2853	-0.011
Mof_Co	Co	0.75328	0.808	0.37456	1.189
Mof_Co	Co	0.75569	0.91141	0.29084	1.156
Mof_F 	F 	0.65334	0.60163	0.43332	-0.443
Mof_F 	F 	0.75291	0.43877	0.45853	-0.482
Mof_F 	F 	0.93839	0.29243	0.42039	-0.535
Mof_N 	N 	0.9073	0.05672	0.34049	0.038
Mof_N 	N 	0.7643	0.72241	0.39632	-0.166
Mof_N 	N 	0.8598	0.646	0.40952	-0.09
Mof_N 	N 	0.7182	0.46822	0.33907	-0.06
Mof_N 	N 	0.7005	0.41243	0.34625	-0.076
Mof_N 	N 	0.731	0.42783	0.27578	-0.238
Mof_O 	O 	0.66708	0.78301	0.3283	-0.417
Mof_O 	O 	0.67266	0.84864	0.27641	-0.443
Mof_O 	O 	0.35195	0.70985	0.16764	-0.408
Mof_O 	O 	0.3614	0.6375	0.21554	-0.422
Mof_O 	O 	0.84081	0.82477	0.42253	-0.366
Mof_O 	O 	0.86966	0.91647	0.40978	-0.248
Mof_O 	O 	0.65626	0.81795	0.41928	-0.374
Mof_O 	O 	0.62378	0.90761	0.40733	-0.253
Mof_O 	O 	0.7493	0.89667	0.35776	-0.389
Mof_O 	O 	0.8315	0.98329	0.30257	-0.372
Mof_O 	O 	0.86425	0.53552	0.35801	-0.32
Mof_H 	H 	0.8309	0.5421	0.3327	0.167
Mof_H 	H 	0.9691	0.0373	0.2862	0.207
Mof_H 	H 	0.0257	0.0388	0.3276	0.226
Mof_H 	H 	0.9959	0.0952	0.3062	0.205
_end
