data_functionalizedCrystal
_audit_creation_method	'EQeq! by Chris Wilmer'
_symmetry_space_group_name_H-M	'P1'
_symmetry_Int_Tables_number	1
_symmetry_cell_setting	triclinic
loop_
_symmetry_equiv_pos_as_xyz
  x,y,z
_cell_length_a	13.0628
_cell_length_b	13.0628
_cell_length_c	13.522
_cell_angle_alpha	90
_cell_angle_beta	90
_cell_angle_gamma	120
loop_
_atom_site_label
_atom_site_type_symbol
_atom_site_fract_x
_atom_site_fract_y
_atom_site_fract_z
_atom_site_charge
Mof_Cd	Cd	0.66667	0.33334	0.10095	0.328
Mof_Cd	Cd	0.66667	0.33334	0.39905	0.367
Mof_Cd	Cd	0.5	0.5	0.5	0.376
Mof_Cd	Cd	0.33333	0.66666	0.89905	0.407
Mof_Cd	Cd	0.5	0.5	-0	0.329
Mof_Cd	Cd	2.19561e-17	0.5	0.5	0.358
Mof_Cd	Cd	0.5	-1.2633e-32	0.5	0.356
Mof_Cd	Cd	0.33333	0.66666	0.60095	0.366
Mof_Cd	Cd	-0	0.5	-0	0.317
Mof_Cd	Cd	0.5	0	-0	0.306
Mof_H 	H 	0.967	0.258	0.1385	0.154
Mof_H 	H 	0.2083	0.0435	0.6669	0.121
Mof_H 	H 	0.8352	0.0435	0.8331	0.129
Mof_H 	H 	0.9565	0.1648	0.6669	0.122
Mof_H 	H 	0.742	0.709	0.3615	0.149
Mof_H 	H 	0.4119	0.8238	0.1949	0.164
Mof_H 	H 	0.2083	0.1648	0.6669	0.119
Mof_H 	H 	0.7917	0.9565	0.1669	0.121
Mof_H 	H 	0.709	0.967	0.8615	0.172
Mof_H 	H 	0.291	0.258	0.1385	0.139
Mof_H 	H 	0.5881	0.1762	0.8051	0.161
Mof_H 	H 	0.709	0.967	0.6385	0.166
Mof_H 	H 	0.9565	0.7917	0.8331	0.128
Mof_H 	H 	0.291	0.258	0.3615	0.146
Mof_H 	H 	0.258	0.967	0.8615	0.17
Mof_H 	H 	0.7917	0.9565	0.3331	0.125
Mof_H 	H 	0.4119	0.8238	0.3051	0.164
Mof_H 	H 	0.9565	0.1648	0.8331	0.125
Mof_H 	H 	0.742	0.709	0.1385	0.143
Mof_H 	H 	0.258	0.967	0.6385	0.165
Mof_H 	H 	0.0435	0.2083	0.3331	0.121
Mof_H 	H 	0.967	0.258	0.3615	0.163
Mof_H 	H 	0.709	0.742	0.6385	0.15
Mof_H 	H 	0.0435	0.2083	0.1669	0.117
Mof_H 	H 	0.033	0.291	0.6385	0.13
Mof_H 	H 	0.1648	0.2083	0.1669	0.115
Mof_H 	H 	0.5881	0.4119	0.8051	0.163
Mof_H 	H 	0.4119	0.5881	0.3051	0.16
Mof_H 	H 	0.8238	0.4119	0.8051	0.166
Mof_H 	H 	0.033	0.742	0.8615	0.138
Mof_H 	H 	0.967	0.709	0.3615	0.165
Mof_H 	H 	0.709	0.742	0.8615	0.158
Mof_H 	H 	0.291	0.033	0.3615	0.128
Mof_H 	H 	0.258	0.291	0.8615	0.155
Mof_H 	H 	0.033	0.291	0.8615	0.137
Mof_H 	H 	0.1648	0.9565	0.3331	0.121
Mof_H 	H 	0.8352	0.7917	0.6669	0.128
Mof_H 	H 	0.1762	0.5881	0.3051	0.158
Mof_H 	H 	0.4119	0.5881	0.1949	0.16
Mof_H 	H 	0.2083	0.0435	0.8331	0.124
Mof_H 	H 	0.5881	0.4119	0.6949	0.16
Mof_H 	H 	0.0435	0.8352	0.1669	0.122
Mof_H 	H 	0.7917	0.8352	0.1669	0.124
Mof_H 	H 	0.033	0.742	0.6385	0.132
Mof_H 	H 	0.742	0.033	0.1385	0.121
Mof_H 	H 	0.258	0.291	0.6385	0.147
Mof_H 	H 	0.742	0.033	0.3615	0.13
Mof_H 	H 	0.7917	0.8352	0.3331	0.127
Mof_H 	H 	0.0435	0.8352	0.3331	0.125
Mof_H 	H 	0.8238	0.4119	0.6949	0.163
Mof_H 	H 	0.2083	0.1648	0.8331	0.122
Mof_H 	H 	0.8352	0.0435	0.6669	0.126
Mof_H 	H 	0.5881	0.1762	0.6949	0.158
Mof_H 	H 	0.1648	0.9565	0.1669	0.118
Mof_H 	H 	0.291	0.033	0.1385	0.119
Mof_H 	H 	0.967	0.709	0.1385	0.156
Mof_H 	H 	0.8352	0.7917	0.8331	0.131
Mof_H 	H 	0.1762	0.5881	0.1949	0.158
Mof_H 	H 	0.1648	0.2083	0.3331	0.119
Mof_H 	H 	0.9565	0.7917	0.6669	0.126
Mof_C 	C 	0.2233	0.3499	0.0859	0.087
Mof_C 	C 	0.6501	0.8734	0.4141	0.097
Mof_C 	C 	0.508	0.492	0.75	0.208
Mof_C 	C 	0.492	0.508	0.25	0.207
Mof_C 	C 	0.7767	0.1266	0.9141	0.104
Mof_C 	C 	0.1266	0.7767	0.4141	0.096
Mof_C 	C 	0.6501	0.7767	0.0859	0.09
Mof_C 	C 	0.6501	0.7767	0.4141	0.097
Mof_C 	C 	0.3499	0.1266	0.5859	0.095
Mof_C 	C 	0.984	0.492	0.75	0.241
Mof_C 	C 	0.8734	0.2233	0.9141	0.103
Mof_C 	C 	0.016	0.508	0.25	0.181
Mof_C 	C 	0.1266	0.7767	0.0859	0.09
Mof_C 	C 	0.6501	0.8734	0.0859	0.09
Mof_C 	C 	0.2233	0.3499	0.4141	0.094
Mof_C 	C 	0.7767	0.6501	0.5859	0.097
Mof_C 	C 	0.1266	0.3499	0.4141	0.095
Mof_C 	C 	0.7767	0.1266	0.5859	0.096
Mof_C 	C 	0.2233	0.8734	0.4141	0.095
Mof_C 	C 	0.8734	0.6501	0.9141	0.104
Mof_C 	C 	0.3499	0.2233	0.5859	0.094
Mof_C 	C 	0.492	0.984	0.25	0.245
Mof_C 	C 	0.8734	0.2233	0.5859	0.095
Mof_C 	C 	0.8734	0.6501	0.5859	0.097
Mof_C 	C 	0.3499	0.1266	0.9141	0.102
Mof_C 	C 	0.3499	0.2233	0.9141	0.102
Mof_C 	C 	0.1266	0.3499	0.0859	0.088
Mof_C 	C 	0.2233	0.8734	0.0859	0.089
Mof_C 	C 	0.7767	0.6501	0.9141	0.105
Mof_C 	C 	0.508	0.016	0.75	0.18
Mof_N 	N 	0.4429	0.1405	0.9672	-0.111
Mof_N 	N 	0.8374	0.4187	0.2054	-0.079
Mof_N 	N 	0.5813	0.4187	0.2054	-0.079
Mof_N 	N 	0.773	0.739	0.637	-0.298
Mof_N 	N 	0.3024	0.4429	0.4672	-0.124
Mof_N 	N 	0.966	0.739	0.637	-0.279
Mof_N 	N 	0.4309	0.5691	0.25	-0.329
Mof_N 	N 	0.2486	0.7514	0.0008	-0.092
Mof_N 	N 	0.4752	0.5248	0.668	-0.142
Mof_N 	N 	0.1626	0.5813	0.7054	-0.078
Mof_N 	N 	0.5691	0.1382	0.75	-0.324
Mof_N 	N 	0.4429	0.3024	0.9672	-0.11
Mof_N 	N 	0.739	0.773	0.137	-0.296
Mof_N 	N 	0.5028	0.7514	0.4992	-0.08
Mof_N 	N 	0.5248	0.0496	0.168	-0.16
Mof_N 	N 	0.5571	0.6976	0.4672	-0.125
Mof_N 	N 	0.4972	0.2486	0.5008	-0.08
Mof_N 	N 	0.6976	0.1405	0.9672	-0.11
Mof_N 	N 	0.739	0.773	0.363	-0.297
Mof_N 	N 	0.7514	0.2486	0.5008	-0.08
Mof_N 	N 	0.261	0.034	0.863	-0.311
Mof_N 	N 	0.8595	0.5571	0.9672	-0.106
Mof_N 	N 	0.2486	0.4972	0.0008	-0.093
Mof_N 	N 	0.2486	0.7514	0.4992	-0.079
Mof_N 	N 	0.773	0.034	0.637	-0.314
Mof_N 	N 	0.9504	0.4752	0.168	-0.131
Mof_N 	N 	0.4429	0.1405	0.5328	-0.126
Mof_N 	N 	0.3024	0.4429	0.0328	-0.13
Mof_N 	N 	0.227	0.261	0.363	-0.294
Mof_N 	N 	0.261	0.227	0.637	-0.295
Mof_N 	N 	0.0496	0.5248	0.668	-0.156
Mof_N 	N 	0.2486	0.4972	0.4992	-0.08
Mof_N 	N 	0.6976	0.5571	0.9672	-0.111
Mof_N 	N 	0.4187	0.8374	0.7946	-0.073
Mof_N 	N 	0.4309	0.8618	0.25	-0.336
Mof_N 	N 	0.8374	0.4187	0.2946	-0.076
Mof_N 	N 	0.4752	0.9504	0.668	-0.127
Mof_N 	N 	0.5248	0.0496	0.332	-0.158
Mof_N 	N 	0.4187	0.5813	0.7054	-0.077
Mof_N 	N 	0.966	0.739	0.863	-0.278
Mof_N 	N 	0.1405	0.6976	0.0328	-0.13
Mof_N 	N 	0.1405	0.4429	0.0328	-0.131
Mof_N 	N 	0.034	0.261	0.137	-0.309
Mof_N 	N 	0.4752	0.5248	0.832	-0.132
Mof_N 	N 	0.034	0.773	0.363	-0.313
Mof_N 	N 	0.6976	0.1405	0.5328	-0.126
Mof_N 	N 	0.739	0.966	0.137	-0.274
Mof_N 	N 	0.5813	0.1626	0.2946	-0.077
Mof_N 	N 	0.773	0.034	0.863	-0.312
Mof_N 	N 	0.966	0.227	0.637	-0.278
Mof_N 	N 	0.9504	0.4752	0.332	-0.128
Mof_N 	N 	0.4429	0.3024	0.5328	-0.124
Mof_N 	N 	0.5691	0.4309	0.75	-0.33
Mof_N 	N 	0.4187	0.8374	0.7054	-0.076
Mof_N 	N 	0.034	0.773	0.137	-0.31
Mof_N 	N 	0.227	0.966	0.363	-0.275
Mof_N 	N 	0.5571	0.8595	0.4672	-0.119
Mof_N 	N 	0.3024	0.8595	0.0328	-0.123
Mof_N 	N 	0.7514	0.2486	0.9992	-0.062
Mof_N 	N 	0.261	0.227	0.863	-0.296
Mof_N 	N 	0.8595	0.3024	0.5328	-0.12
Mof_N 	N 	0.8618	0.4309	0.75	-0.336
Mof_N 	N 	0.773	0.739	0.863	-0.298
Mof_N 	N 	0.227	0.261	0.137	-0.294
Mof_N 	N 	0.4187	0.5813	0.7946	-0.073
Mof_N 	N 	0.3024	0.8595	0.4672	-0.119
Mof_N 	N 	0.5571	0.8595	0.0328	-0.123
Mof_N 	N 	0.227	0.966	0.137	-0.272
Mof_N 	N 	0.7514	0.5028	0.5008	-0.08
Mof_N 	N 	0.5813	0.4187	0.2946	-0.077
Mof_N 	N 	0.8595	0.5571	0.5328	-0.12
Mof_N 	N 	0.1382	0.5691	0.25	-0.324
Mof_N 	N 	0.5248	0.4752	0.168	-0.144
Mof_N 	N 	0.6976	0.5571	0.5328	-0.125
Mof_N 	N 	0.5248	0.4752	0.332	-0.143
Mof_N 	N 	0.5028	0.7514	0.0008	-0.092
Mof_N 	N 	0.8595	0.3024	0.9672	-0.105
Mof_N 	N 	0.5813	0.1626	0.2054	-0.08
Mof_N 	N 	0.739	0.966	0.363	-0.277
Mof_N 	N 	0.4972	0.2486	0.9992	-0.063
Mof_N 	N 	0.0496	0.5248	0.832	-0.147
Mof_N 	N 	0.966	0.227	0.863	-0.277
Mof_N 	N 	0.5571	0.6976	0.0328	-0.13
Mof_N 	N 	0.034	0.261	0.363	-0.311
Mof_N 	N 	0.1405	0.4429	0.4672	-0.126
Mof_N 	N 	0.7514	0.5028	0.9992	-0.063
Mof_N 	N 	0.1626	0.5813	0.7946	-0.074
Mof_N 	N 	0.1405	0.6976	0.4672	-0.126
Mof_N 	N 	0.261	0.034	0.637	-0.313
Mof_N 	N 	0.4752	0.9504	0.832	-0.117
_end
