data_functionalizedCrystal
_audit_creation_method	'EQeq! by Chris Wilmer'
_symmetry_space_group_name_H-M	'P1'
_symmetry_Int_Tables_number	1
_symmetry_cell_setting	triclinic
loop_
_symmetry_equiv_pos_as_xyz
  x,y,z
_cell_length_a	34.705
_cell_length_b	34.705
_cell_length_c	37.9023
_cell_angle_alpha	90
_cell_angle_beta	90
_cell_angle_gamma	120
loop_
_atom_site_label
_atom_site_type_symbol
_atom_site_fract_x
_atom_site_fract_y
_atom_site_fract_z
_atom_site_charge
Mof_Zn	Zn	0.27186	0.63558	0.52838	1.208
Mof_O 	O 	0.261	0.6753	0.49798	-0.508
Mof_O 	O 	0.3249	0.7404	0.49929	-0.536
Mof_O 	O 	0.2298	0.6225	0.56749	-0.518
Mof_C 	C 	0.2865	0.716	0.4901	0.429
Mof_C 	C 	0.2382	0.6316	0.6003	0.44
Mof_O 	O 	0.2761	0.6477	0.61431	-0.526
Mof_C 	C 	0.2636	0.7326	0.465	-0.184
Mof_C 	C 	0.2018	0.6219	0.6244	-0.273
Mof_C 	C 	0.2886	0.7764	0.453	0.101
Mof_C 	C 	0.2208	0.7073	0.4539	0.128
Mof_C 	C 	0.1593	0.608	0.6126	0.203
Mof_C 	C 	0.2072	0.6254	0.6588	0.208
Mof_H 	H 	0.3181	0.7939	0.4601	0.003
Mof_C 	C 	0.2692	0.7941	0.4298	-0.21
Mof_C 	C 	0.2042	0.7262	0.4314	-0.221
Mof_H 	H 	0.2034	0.678	0.4613	-0.004
Mof_H 	H 	0.1538	0.6076	0.5885	-0.034
Mof_C 	C 	0.1246	0.5945	0.6362	-0.314
Mof_C 	C 	0.172	0.6138	0.6821	-0.292
Mof_H 	H 	0.2356	0.6361	0.668	-0.022
Mof_H 	H 	0.2858	0.8235	0.4223	0.096
Mof_C 	C 	0.2271	0.7688	0.4188	0.172
Mof_H 	H 	0.1749	0.7086	0.424	0.098
Mof_H 	H 	0.096	0.5827	0.6272	0.133
Mof_C 	C 	0.1293	0.5972	0.6703	0.253
Mof_H 	H 	0.1776	0.6173	0.7062	0.125
Mof_C 	C 	0.2098	0.789	0.3926	-0.178
Mof_C 	C 	0.0908	0.5798	0.6932	-0.197
Mof_C 	C 	0.1805	0.802	0.4053	0.09
Mof_C 	C 	0.2231	0.7932	0.3582	0.127
Mof_C 	C 	0.0742	0.6056	0.7057	0.106
Mof_C 	C 	0.0741	0.5359	0.7041	0.075
Mof_N 	N 	0.1595	0.8198	0.3848	-0.309
Mof_C 	C 	0.1642	0.7975	0.4423	-0.072
Mof_N 	N 	0.2105	0.8104	0.3322	-0.303
Mof_C 	C 	0.2518	0.7795	0.3457	-0.096
Mof_C 	C 	0.0952	0.6545	0.6968	-0.078
Mof_N 	N 	0.0396	0.5947	0.7279	-0.3
Mof_N 	N 	0.0365	0.51	0.7265	-0.307
Mof_C 	C 	0.0884	0.5027	0.694	-0.04
Mof_C 	C 	0.1322	0.8247	0.4065	0.14
Mof_C 	C 	0.1351	0.8131	0.4433	-0.121
Mof_H 	H 	0.1724	0.7861	0.4612	0.045
Mof_C 	C 	0.2315	0.8078	0.301	0.145
Mof_H 	H 	0.2645	0.766	0.3587	0.07
Mof_C 	C 	0.2578	0.7893	0.3109	-0.109
Mof_C 	C 	0.0686	0.6678	0.7097	-0.106
Mof_H 	H 	0.1217	0.6717	0.6847	0.054
Mof_C 	C 	0.0339	0.6305	0.7321	0.134
Mof_C 	C 	0.034	0.4698	0.7296	0.177
Mof_C 	C 	0.0643	0.4641	0.7093	-0.159
Mof_H 	H 	0.1118	0.5091	0.6787	0.043
Mof_C 	C 	0.1059	0.8441	0.3971	-0.279
Mof_H 	H 	0.1204	0.8158	0.4629	0.064
Mof_H 	H 	0.2764	0.7847	0.296	0.068
Mof_H 	H 	0.0708	0.6953	0.7058	0.057
Mof_H 	H 	0.0669	0.4388	0.7071	0.076
Mof_H 	H 	0.0893	0.8467	0.4152	0.121
Mof_Zn	Zn	0.93853	0.96891	0.86171	1.214
Mof_O 	O 	0.92767	0.00863	0.83131	-0.511
Mof_O 	O 	0.99157	0.07373	0.83262	-0.529
Mof_O 	O 	0.89647	0.95583	0.90082	-0.513
Mof_C 	C 	0.95317	0.04933	0.82343	0.43
Mof_C 	C 	0.90487	0.96493	0.93363	0.443
Mof_O 	O 	0.94277	0.98103	0.94764	-0.514
Mof_C 	C 	0.93027	0.06593	0.79833	-0.182
Mof_C 	C 	0.86847	0.95523	0.95773	-0.277
Mof_C 	C 	0.95527	0.10973	0.78633	0.101
Mof_C 	C 	0.88747	0.04063	0.78723	0.128
Mof_C 	C 	0.82597	0.94133	0.94593	0.206
Mof_C 	C 	0.87387	0.95873	0.99213	0.231
Mof_H 	H 	0.98477	0.12723	0.79343	0.008
Mof_C 	C 	0.93587	0.12743	0.76313	-0.208
Mof_C 	C 	0.87087	0.05953	0.76473	-0.222
Mof_H 	H 	0.87007	0.01133	0.79463	-0.007
Mof_H 	H 	0.82047	0.94093	0.92183	-0.033
Mof_C 	C 	0.79127	0.92783	0.96953	-0.306
Mof_C 	C 	0.83867	0.94713	0.01543	-0.303
Mof_H 	H 	0.90227	0.96943	0.00133	-0.03
Mof_H 	H 	0.95247	0.15683	0.75563	0.098
Mof_C 	C 	0.89377	0.10213	0.75213	0.171
Mof_H 	H 	0.84157	0.04193	0.75733	0.096
Mof_H 	H 	0.76267	0.91603	0.96053	0.133
Mof_C 	C 	0.79597	0.93053	0.00363	0.249
Mof_H 	H 	0.84427	0.95063	0.03953	0.131
Mof_C 	C 	0.87647	0.12233	0.72593	-0.178
Mof_C 	C 	0.75747	0.91313	0.02653	-0.187
Mof_C 	C 	0.84717	0.13533	0.73863	0.09
Mof_C 	C 	0.88977	0.12653	0.69153	0.126
Mof_C 	C 	0.74087	0.93893	0.03903	0.087
Mof_C 	C 	0.74077	0.86923	0.03743	0.073
Mof_N 	N 	0.82617	0.15313	0.71813	-0.309
Mof_C 	C 	0.83087	0.13083	0.77563	-0.072
Mof_N 	N 	0.87717	0.14373	0.66553	-0.303
Mof_C 	C 	0.91847	0.11283	0.67903	-0.095
Mof_C 	C 	0.76187	0.98783	0.03013	-0.003
Mof_N 	N 	0.70627	0.92803	0.06123	-0.298
Mof_N 	N 	0.70317	0.84333	0.05983	-0.304
Mof_C 	C 	0.75507	0.83603	0.02733	-0.041
Mof_C 	C 	0.79887	0.15803	0.73983	0.141
Mof_C 	C 	0.80177	0.14643	0.77663	-0.121
Mof_H 	H 	0.83907	0.11943	0.79453	0.045
Mof_C 	C 	0.89817	0.14113	0.63433	0.146
Mof_H 	H 	0.93117	0.09933	0.69203	0.07
Mof_C 	C 	0.92447	0.12263	0.64423	-0.109
Mof_C 	C 	0.73527	0.00113	0.04303	-0.174
Mof_H 	H 	0.78837	0.00503	0.01803	0.018
Mof_C 	C 	0.70057	0.96383	0.06543	0.159
Mof_C 	C 	0.70067	0.80313	0.06293	0.169
Mof_C 	C 	0.73097	0.79743	0.04263	-0.153
Mof_H 	H 	0.77847	0.84243	0.01203	0.042
Mof_C 	C 	0.77257	0.17743	0.73043	-0.279
Mof_H 	H 	0.78707	0.14913	0.79623	0.065
Mof_H 	H 	0.94307	0.11803	0.62933	0.071
Mof_H 	H 	0.73747	0.02863	0.03913	0.078
Mof_H 	H 	0.73357	0.77213	0.04043	0.074
Mof_H 	H 	0.75597	0.18003	0.74853	0.123
Mof_Zn	Zn	0.60519	0.30225	0.19505	1.209
Mof_O 	O 	0.59433	0.34197	0.16465	-0.507
Mof_O 	O 	0.65823	0.40707	0.16596	-0.535
Mof_O 	O 	0.56313	0.28917	0.23416	-0.517
Mof_C 	C 	0.61983	0.38267	0.15677	0.43
Mof_C 	C 	0.57153	0.29827	0.26697	0.441
Mof_O 	O 	0.60943	0.31437	0.28098	-0.525
Mof_C 	C 	0.59693	0.39927	0.13167	-0.182
Mof_C 	C 	0.53513	0.28857	0.29107	-0.273
Mof_C 	C 	0.62193	0.44307	0.11967	0.101
Mof_C 	C 	0.55413	0.37397	0.12057	0.129
Mof_C 	C 	0.49263	0.27467	0.27927	0.205
Mof_C 	C 	0.54053	0.29207	0.32547	0.21
Mof_H 	H 	0.65143	0.46057	0.12677	0.004
Mof_C 	C 	0.60253	0.46077	0.09647	-0.209
Mof_C 	C 	0.53753	0.39287	0.09807	-0.221
Mof_H 	H 	0.53673	0.34467	0.12797	-0.004
Mof_H 	H 	0.48713	0.27427	0.25517	-0.034
Mof_C 	C 	0.45793	0.26117	0.30287	-0.315
Mof_C 	C 	0.50533	0.28047	0.34877	-0.293
Mof_H 	H 	0.56893	0.30277	0.33467	-0.022
Mof_H 	H 	0.61913	0.49017	0.08897	0.095
Mof_C 	C 	0.56043	0.43547	0.08547	0.172
Mof_H 	H 	0.50823	0.37527	0.09067	0.099
Mof_H 	H 	0.42933	0.24937	0.29387	0.134
Mof_C 	C 	0.46263	0.26387	0.33697	0.254
Mof_H 	H 	0.51093	0.28397	0.37287	0.125
Mof_C 	C 	0.54313	0.45567	0.05927	-0.178
Mof_C 	C 	0.42413	0.24647	0.35987	-0.197
Mof_C 	C 	0.51383	0.46867	0.07197	0.089
Mof_C 	C 	0.55643	0.45987	0.02487	0.125
Mof_C 	C 	0.40753	0.27227	0.37237	0.108
Mof_C 	C 	0.40743	0.20257	0.37077	0.077
Mof_N 	N 	0.49283	0.48647	0.05147	-0.31
Mof_C 	C 	0.49753	0.46417	0.10897	-0.071
Mof_N 	N 	0.54383	0.47707	0.99887	-0.299
Mof_C 	C 	0.58513	0.44617	0.01237	-0.107
Mof_C 	C 	0.42853	0.32117	0.36347	-0.08
Mof_N 	N 	0.37293	0.26137	0.39457	-0.297
Mof_N 	N 	0.36983	0.17667	0.39317	-0.304
Mof_C 	C 	0.42173	0.16937	0.36067	-0.043
Mof_C 	C 	0.46553	0.49137	0.07317	0.142
Mof_C 	C 	0.46843	0.47977	0.10997	-0.122
Mof_H 	H 	0.50573	0.45277	0.12787	0.045
Mof_C 	C 	0.56483	0.47447	0.96767	0.141
Mof_H 	H 	0.59783	0.43267	0.02537	0.073
Mof_C 	C 	0.59113	0.45597	0.97757	-0.097
Mof_C 	C 	0.40193	0.33447	0.37637	-0.1
Mof_H 	H 	0.45503	0.33837	0.35137	0.055
Mof_C 	C 	0.36723	0.29717	0.39877	0.127
Mof_C 	C 	0.36733	0.13647	0.39627	0.168
Mof_C 	C 	0.39763	0.13077	0.37597	-0.151
Mof_H 	H 	0.44513	0.17577	0.34537	0.044
Mof_C 	C 	0.43923	0.51077	0.06377	-0.282
Mof_H 	H 	0.45373	0.48247	0.12957	0.065
Mof_H 	H 	0.60973	0.45137	0.96267	0.065
Mof_H 	H 	0.40413	0.36197	0.37247	0.056
Mof_H 	H 	0.40023	0.10547	0.37377	0.073
Mof_H 	H 	0.42263	0.51337	0.08187	0.124
Mof_Zn	Zn	0.36442	0.63628	0.52838	1.209
Mof_O 	O 	0.3247	0.5857	0.49798	-0.507
Mof_O 	O 	0.2596	0.5845	0.49929	-0.535
Mof_O 	O 	0.3775	0.6073	0.56749	-0.517
Mof_C 	C 	0.284	0.5705	0.4901	0.43
Mof_C 	C 	0.3684	0.6066	0.6003	0.441
Mof_O 	O 	0.3523	0.6284	0.61431	-0.525
Mof_C 	C 	0.2674	0.531	0.465	-0.182
Mof_C 	C 	0.3781	0.5799	0.6244	-0.273
Mof_C 	C 	0.2236	0.5122	0.453	0.101
Mof_C 	C 	0.2927	0.5135	0.4539	0.129
Mof_C 	C 	0.392	0.5513	0.6126	0.205
Mof_C 	C 	0.3746	0.5818	0.6588	0.21
Mof_H 	H 	0.2061	0.5242	0.4601	0.004
Mof_C 	C 	0.2059	0.4751	0.4298	-0.209
Mof_C 	C 	0.2738	0.478	0.4314	-0.221
Mof_H 	H 	0.322	0.5254	0.4613	-0.004
Mof_H 	H 	0.3924	0.5462	0.5885	-0.034
Mof_C 	C 	0.4055	0.5301	0.6362	-0.315
Mof_C 	C 	0.3862	0.5582	0.6821	-0.293
Mof_H 	H 	0.3639	0.5995	0.668	-0.022
Mof_H 	H 	0.1765	0.4623	0.4223	0.094
Mof_C 	C 	0.2312	0.4583	0.4188	0.171
Mof_H 	H 	0.2914	0.4663	0.424	0.099
Mof_H 	H 	0.4173	0.5133	0.6272	0.134
Mof_C 	C 	0.4028	0.5321	0.6703	0.254
Mof_H 	H 	0.3827	0.5603	0.7062	0.125
Mof_C 	C 	0.211	0.4208	0.3926	-0.178
Mof_C 	C 	0.4202	0.511	0.6932	-0.197
Mof_C 	C 	0.198	0.3785	0.4053	0.09
Mof_C 	C 	0.2068	0.4299	0.3582	0.126
Mof_C 	C 	0.3944	0.4686	0.7057	0.108
Mof_C 	C 	0.4641	0.5382	0.7041	0.077
Mof_N 	N 	0.1802	0.3397	0.3848	-0.309
Mof_C 	C 	0.2025	0.3667	0.4423	-0.072
Mof_N 	N 	0.1896	0.4001	0.3322	-0.303
Mof_C 	C 	0.2205	0.4723	0.3457	-0.096
Mof_C 	C 	0.3455	0.4407	0.6968	-0.08
Mof_N 	N 	0.4053	0.4449	0.7279	-0.297
Mof_N 	N 	0.49	0.5265	0.7265	-0.304
Mof_C 	C 	0.4973	0.5857	0.694	-0.043
Mof_C 	C 	0.1753	0.3075	0.4065	0.141
Mof_C 	C 	0.1869	0.322	0.4433	-0.121
Mof_H 	H 	0.2139	0.3863	0.4612	0.045
Mof_C 	C 	0.1922	0.4237	0.301	0.145
Mof_H 	H 	0.234	0.4985	0.3587	0.07
Mof_C 	C 	0.2107	0.4685	0.3109	-0.109
Mof_C 	C 	0.3322	0.4008	0.7097	-0.1
Mof_H 	H 	0.3283	0.45	0.6847	0.055
Mof_C 	C 	0.3695	0.4034	0.7321	0.127
Mof_C 	C 	0.5302	0.5642	0.7296	0.169
Mof_C 	C 	0.5359	0.6002	0.7093	-0.152
Mof_H 	H 	0.4909	0.6027	0.6787	0.044
Mof_C 	C 	0.1559	0.2618	0.3971	-0.28
Mof_H 	H 	0.1842	0.3046	0.4629	0.065
Mof_H 	H 	0.2153	0.4917	0.296	0.068
Mof_H 	H 	0.3047	0.3755	0.7058	0.056
Mof_H 	H 	0.5612	0.6281	0.7071	0.075
Mof_H 	H 	0.1533	0.2426	0.4152	0.123
Mof_Zn	Zn	0.03109	0.96961	0.86171	1.211
Mof_O 	O 	0.99137	0.91903	0.83131	-0.497
Mof_O 	O 	0.92627	0.91783	0.83262	-0.53
Mof_O 	O 	0.04417	0.94063	0.90082	-0.518
Mof_C 	C 	0.95067	0.90383	0.82343	0.429
Mof_C 	C 	0.03507	0.93993	0.93363	0.449
Mof_O 	O 	0.01897	0.96173	0.94764	-0.524
Mof_C 	C 	0.93407	0.86433	0.79833	-0.179
Mof_C 	C 	0.04477	0.91323	0.95773	-0.292
Mof_C 	C 	0.89027	0.84553	0.78633	0.101
Mof_C 	C 	0.95937	0.84683	0.78723	0.128
Mof_C 	C 	0.05867	0.88463	0.94593	0.219
Mof_C 	C 	0.04127	0.91513	0.99213	0.246
Mof_H 	H 	0.87277	0.85753	0.79343	0.004
Mof_C 	C 	0.87257	0.80843	0.76313	-0.208
Mof_C 	C 	0.94047	0.81133	0.76473	-0.219
Mof_H 	H 	0.98867	0.85873	0.79463	0
Mof_H 	H 	0.05907	0.87953	0.92183	-0.041
Mof_C 	C 	0.07217	0.86343	0.96953	-0.326
Mof_C 	C 	0.05287	0.89153	0.01543	-0.322
Mof_H 	H 	0.03057	0.93283	0.00133	-0.039
Mof_H 	H 	0.84317	0.79563	0.75563	0.095
Mof_C 	C 	0.89787	0.79163	0.75213	0.172
Mof_H 	H 	0.95807	0.79963	0.75733	0.102
Mof_H 	H 	0.08397	0.84663	0.96053	0.138
Mof_C 	C 	0.06947	0.86543	0.00363	0.266
Mof_H 	H 	0.04937	0.89363	0.03953	0.134
Mof_C 	C 	0.87767	0.75413	0.72593	-0.177
Mof_C 	C 	0.08687	0.84433	0.02653	-0.213
Mof_C 	C 	0.86467	0.71183	0.73863	0.09
Mof_C 	C 	0.87347	0.76323	0.69153	0.127
Mof_C 	C 	0.06107	0.80193	0.03903	0.129
Mof_C 	C 	0.13077	0.87153	0.03743	0.082
Mof_N 	N 	0.84687	0.67303	0.71813	-0.309
Mof_C 	C 	0.86917	0.70003	0.77563	-0.071
Mof_N 	N 	0.85627	0.73343	0.66553	-0.303
Mof_C 	C 	0.88717	0.80563	0.67903	-0.096
Mof_C 	C 	0.01217	0.77403	0.03013	-0.159
Mof_N 	N 	0.07197	0.77823	0.06123	-0.296
Mof_N 	N 	0.15667	0.85983	0.05983	-0.306
Mof_C 	C 	0.16397	0.91903	0.02733	-0.045
Mof_C 	C 	0.84197	0.64083	0.73983	0.141
Mof_C 	C 	0.85357	0.65533	0.77663	-0.12
Mof_H 	H 	0.88057	0.71963	0.79453	0.046
Mof_C 	C 	0.85887	0.75703	0.63433	0.145
Mof_H 	H 	0.90067	0.83183	0.69203	0.071
Mof_C 	C 	0.87737	0.80183	0.64423	-0.108
Mof_C 	C 	0.99887	0.73413	0.04303	-0.027
Mof_H 	H 	0.99497	0.78333	0.01803	0.09
Mof_C 	C 	0.03617	0.73673	0.06543	0.094
Mof_C 	C 	0.19687	0.89753	0.06293	0.17
Mof_C 	C 	0.20257	0.93353	0.04263	-0.151
Mof_H 	H 	0.15757	0.93603	0.01203	0.044
Mof_C 	C 	0.82257	0.59513	0.73043	-0.279
Mof_H 	H 	0.85087	0.63793	0.79623	0.065
Mof_H 	H 	0.88197	0.82503	0.62933	0.068
Mof_H 	H 	0.97137	0.70883	0.03913	0.033
Mof_H 	H 	0.22787	0.96143	0.04043	0.076
Mof_H 	H 	0.81997	0.57593	0.74853	0.123
Mof_Zn	Zn	0.69775	0.30295	0.19505	1.209
Mof_O 	O 	0.65803	0.25237	0.16465	-0.507
Mof_O 	O 	0.59293	0.25117	0.16596	-0.535
Mof_O 	O 	0.71083	0.27397	0.23416	-0.517
Mof_C 	C 	0.61733	0.23717	0.15677	0.43
Mof_C 	C 	0.70173	0.27327	0.26697	0.441
Mof_O 	O 	0.68563	0.29507	0.28098	-0.525
Mof_C 	C 	0.60073	0.19767	0.13167	-0.183
Mof_C 	C 	0.71143	0.24657	0.29107	-0.273
Mof_C 	C 	0.55693	0.17887	0.11967	0.101
Mof_C 	C 	0.62603	0.18017	0.12057	0.129
Mof_C 	C 	0.72533	0.21797	0.27927	0.205
Mof_C 	C 	0.70793	0.24847	0.32547	0.21
Mof_H 	H 	0.53943	0.19087	0.12677	0.003
Mof_C 	C 	0.53923	0.14177	0.09647	-0.21
Mof_C 	C 	0.60713	0.14467	0.09807	-0.222
Mof_H 	H 	0.65533	0.19207	0.12797	-0.004
Mof_H 	H 	0.72573	0.21287	0.25517	-0.035
Mof_C 	C 	0.73883	0.19677	0.30287	-0.316
Mof_C 	C 	0.71953	0.22487	0.34877	-0.293
Mof_H 	H 	0.69723	0.26617	0.33467	-0.022
Mof_H 	H 	0.50983	0.12897	0.08897	0.094
Mof_C 	C 	0.56453	0.12497	0.08547	0.173
Mof_H 	H 	0.62473	0.13297	0.09067	0.099
Mof_H 	H 	0.75063	0.17997	0.29387	0.133
Mof_C 	C 	0.73613	0.19877	0.33697	0.254
Mof_H 	H 	0.71603	0.22697	0.37287	0.125
Mof_C 	C 	0.54433	0.08747	0.05927	-0.181
Mof_C 	C 	0.75353	0.17767	0.35987	-0.198
Mof_C 	C 	0.53133	0.04517	0.07197	0.093
Mof_C 	C 	0.54013	0.09657	0.02487	0.126
Mof_C 	C 	0.72773	0.13527	0.37237	0.108
Mof_C 	C 	0.79743	0.20487	0.37077	0.077
Mof_N 	N 	0.51353	0.00637	0.05147	-0.318
Mof_C 	C 	0.53583	0.03337	0.10897	-0.096
Mof_N 	N 	0.52293	0.06677	0.99887	-0.301
Mof_C 	C 	0.55383	0.13897	0.01237	-0.108
Mof_C 	C 	0.67883	0.10737	0.36347	-0.083
Mof_N 	N 	0.73863	0.11157	0.39457	-0.295
Mof_N 	N 	0.82333	0.19317	0.39317	-0.304
Mof_C 	C 	0.83063	0.25237	0.36067	-0.042
Mof_C 	C 	0.50863	0.97417	0.07317	0.148
Mof_C 	C 	0.52023	0.98867	0.10997	-0.099
Mof_H 	H 	0.54723	0.05297	0.12787	0.051
Mof_C 	C 	0.52553	0.09037	0.96767	0.139
Mof_H 	H 	0.56733	0.16517	0.02537	0.073
Mof_C 	C 	0.54403	0.13517	0.97757	-0.096
Mof_C 	C 	0.66553	0.06747	0.37637	-0.096
Mof_H 	H 	0.66163	0.11667	0.35137	0.056
Mof_C 	C 	0.70283	0.07007	0.39877	0.118
Mof_C 	C 	0.86353	0.23087	0.39627	0.17
Mof_C 	C 	0.86923	0.26687	0.37597	-0.152
Mof_H 	H 	0.82423	0.26937	0.34537	0.044
Mof_C 	C 	0.48923	0.92847	0.06377	-0.283
Mof_H 	H 	0.51753	0.97127	0.12957	0.059
Mof_H 	H 	0.54863	0.15837	0.96267	0.065
Mof_H 	H 	0.63803	0.04217	0.37247	0.053
Mof_H 	H 	0.89453	0.29477	0.37377	0.076
Mof_H 	H 	0.48663	0.90927	0.08187	0.124
Mof_Zn	Zn	0.36372	0.72814	0.52838	1.209
Mof_O 	O 	0.4143	0.739	0.49798	-0.507
Mof_O 	O 	0.4155	0.6751	0.49929	-0.535
Mof_O 	O 	0.3927	0.7702	0.56749	-0.517
Mof_C 	C 	0.4295	0.7135	0.4901	0.43
Mof_C 	C 	0.3934	0.7618	0.6003	0.441
Mof_O 	O 	0.3716	0.7239	0.61431	-0.525
Mof_C 	C 	0.469	0.7364	0.465	-0.183
Mof_C 	C 	0.4201	0.7982	0.6244	-0.272
Mof_C 	C 	0.4878	0.7114	0.453	0.102
Mof_C 	C 	0.4865	0.7792	0.4539	0.129
Mof_C 	C 	0.4487	0.8407	0.6126	0.204
Mof_C 	C 	0.4182	0.7928	0.6588	0.209
Mof_H 	H 	0.4758	0.6819	0.4601	0.003
Mof_C 	C 	0.5249	0.7308	0.4298	-0.209
Mof_C 	C 	0.522	0.7958	0.4314	-0.222
Mof_H 	H 	0.4746	0.7966	0.4613	-0.004
Mof_H 	H 	0.4538	0.8462	0.5885	-0.034
Mof_C 	C 	0.4699	0.8754	0.6362	-0.315
Mof_C 	C 	0.4418	0.828	0.6821	-0.292
Mof_H 	H 	0.4005	0.7644	0.668	-0.022
Mof_H 	H 	0.5377	0.7142	0.4223	0.095
Mof_C 	C 	0.5417	0.7729	0.4188	0.172
Mof_H 	H 	0.5337	0.8251	0.424	0.1
Mof_H 	H 	0.4867	0.904	0.6272	0.134
Mof_C 	C 	0.4679	0.8707	0.6703	0.253
Mof_H 	H 	0.4397	0.8224	0.7062	0.125
Mof_C 	C 	0.5792	0.7902	0.3926	-0.178
Mof_C 	C 	0.489	0.9092	0.6932	-0.195
Mof_C 	C 	0.6215	0.8195	0.4053	0.09
Mof_C 	C 	0.5701	0.7769	0.3582	0.127
Mof_C 	C 	0.5314	0.9258	0.7057	0.107
Mof_C 	C 	0.4618	0.9259	0.7041	0.076
Mof_N 	N 	0.6603	0.8405	0.3848	-0.309
Mof_C 	C 	0.6333	0.8358	0.4423	-0.071
Mof_N 	N 	0.5999	0.7895	0.3322	-0.303
Mof_C 	C 	0.5277	0.7482	0.3457	-0.096
Mof_C 	C 	0.5593	0.9048	0.6968	-0.075
Mof_N 	N 	0.5551	0.9604	0.7279	-0.296
Mof_N 	N 	0.4735	0.9635	0.7265	-0.303
Mof_C 	C 	0.4143	0.9116	0.694	-0.036
Mof_C 	C 	0.6925	0.8678	0.4065	0.142
Mof_C 	C 	0.678	0.8649	0.4433	-0.12
Mof_H 	H 	0.6137	0.8276	0.4612	0.046
Mof_C 	C 	0.5763	0.7685	0.301	0.145
Mof_H 	H 	0.5015	0.7355	0.3587	0.07
Mof_C 	C 	0.5315	0.7422	0.3109	-0.109
Mof_C 	C 	0.5992	0.9314	0.7097	-0.109
Mof_H 	H 	0.55	0.8783	0.6847	0.053
Mof_C 	C 	0.5966	0.9661	0.7321	0.148
Mof_C 	C 	0.4358	0.966	0.7296	0.191
Mof_C 	C 	0.3998	0.9357	0.7093	-0.164
Mof_H 	H 	0.3973	0.8882	0.6787	0.042
Mof_C 	C 	0.7382	0.8941	0.3971	-0.279
Mof_H 	H 	0.6954	0.8796	0.4629	0.066
Mof_H 	H 	0.5083	0.7236	0.296	0.068
Mof_H 	H 	0.6245	0.9292	0.7058	0.062
Mof_H 	H 	0.3719	0.9331	0.7071	0.081
Mof_H 	H 	0.7574	0.9107	0.4152	0.124
Mof_Zn	Zn	0.03039	0.06147	0.86171	1.206
Mof_O 	O 	0.08097	0.07233	0.83131	-0.51
Mof_O 	O 	0.08217	0.00843	0.83262	-0.544
Mof_O 	O 	0.05937	0.10353	0.90082	-0.521
Mof_C 	C 	0.09617	0.04683	0.82343	0.432
Mof_C 	C 	0.06007	0.09513	0.93363	0.448
Mof_O 	O 	0.03827	0.05723	0.94764	-0.532
Mof_C 	C 	0.13567	0.06973	0.79833	-0.186
Mof_C 	C 	0.08677	0.13153	0.95773	-0.291
Mof_C 	C 	0.15447	0.04473	0.78633	0.102
Mof_C 	C 	0.15317	0.11253	0.78723	0.131
Mof_C 	C 	0.11537	0.17403	0.94593	0.216
Mof_C 	C 	0.08487	0.12613	0.99213	0.243
Mof_H 	H 	0.14247	0.01523	0.79343	-0.001
Mof_C 	C 	0.19157	0.06413	0.76313	-0.212
Mof_C 	C 	0.18867	0.12913	0.76473	-0.223
Mof_H 	H 	0.14127	0.12993	0.79463	-0.005
Mof_H 	H 	0.12047	0.17953	0.92183	-0.038
Mof_C 	C 	0.13657	0.20873	0.96953	-0.32
Mof_C 	C 	0.10847	0.16133	0.01543	-0.317
Mof_H 	H 	0.06717	0.09773	0.00133	-0.04
Mof_H 	H 	0.20437	0.04753	0.75563	0.093
Mof_C 	C 	0.20837	0.10623	0.75213	0.173
Mof_H 	H 	0.20037	0.15843	0.75733	0.1
Mof_H 	H 	0.15337	0.23733	0.96053	0.137
Mof_C 	C 	0.13457	0.20403	0.00363	0.26
Mof_H 	H 	0.10637	0.15573	0.03953	0.133
Mof_C 	C 	0.24587	0.12353	0.72593	-0.178
Mof_C 	C 	0.15567	0.24253	0.02653	-0.202
Mof_C 	C 	0.28817	0.15283	0.73863	0.09
Mof_C 	C 	0.23677	0.11023	0.69153	0.126
Mof_C 	C 	0.19807	0.25913	0.03903	0.108
Mof_C 	C 	0.12847	0.25923	0.03743	0.078
Mof_N 	N 	0.32697	0.17383	0.71813	-0.309
Mof_C 	C 	0.29997	0.16913	0.77563	-0.072
Mof_N 	N 	0.26657	0.12283	0.66553	-0.303
Mof_C 	C 	0.19437	0.08153	0.67903	-0.097
Mof_C 	C 	0.22597	0.23813	0.03013	-0.081
Mof_N 	N 	0.22177	0.29373	0.06123	-0.297
Mof_N 	N 	0.14017	0.29683	0.05983	-0.304
Mof_C 	C 	0.08097	0.24493	0.02733	-0.046
Mof_C 	C 	0.35917	0.20113	0.73983	0.141
Mof_C 	C 	0.34467	0.19823	0.77663	-0.121
Mof_H 	H 	0.28037	0.16093	0.79453	0.045
Mof_C 	C 	0.24297	0.10183	0.63433	0.144
Mof_H 	H 	0.16817	0.06883	0.69203	0.067
Mof_C 	C 	0.19817	0.07553	0.64423	-0.11
Mof_C 	C 	0.26587	0.26473	0.04303	-0.1
Mof_H 	H 	0.21667	0.21163	0.01803	0.054
Mof_C 	C 	0.26327	0.29943	0.06543	0.127
Mof_C 	C 	0.10247	0.29933	0.06293	0.166
Mof_C 	C 	0.06647	0.26903	0.04263	-0.151
Mof_H 	H 	0.06397	0.22153	0.01203	0.042
Mof_C 	C 	0.40487	0.22743	0.73043	-0.279
Mof_H 	H 	0.36207	0.21293	0.79623	0.065
Mof_H 	H 	0.17497	0.05693	0.62933	0.066
Mof_H 	H 	0.29117	0.26253	0.03913	0.056
Mof_H 	H 	0.03857	0.26643	0.04043	0.07
Mof_H 	H 	0.42407	0.24403	0.74853	0.123
Mof_Zn	Zn	0.69705	0.39481	0.19505	1.209
Mof_O 	O 	0.74763	0.40567	0.16465	-0.507
Mof_O 	O 	0.74883	0.34177	0.16596	-0.535
Mof_O 	O 	0.72603	0.43687	0.23416	-0.517
Mof_C 	C 	0.76283	0.38017	0.15677	0.43
Mof_C 	C 	0.72673	0.42847	0.26697	0.441
Mof_O 	O 	0.70493	0.39057	0.28098	-0.525
Mof_C 	C 	0.80233	0.40307	0.13167	-0.182
Mof_C 	C 	0.75343	0.46487	0.29107	-0.273
Mof_C 	C 	0.82113	0.37807	0.11967	0.101
Mof_C 	C 	0.81983	0.44587	0.12057	0.128
Mof_C 	C 	0.78203	0.50737	0.27927	0.205
Mof_C 	C 	0.75153	0.45947	0.32547	0.21
Mof_H 	H 	0.80913	0.34857	0.12677	0.004
Mof_C 	C 	0.85823	0.39747	0.09647	-0.208
Mof_C 	C 	0.85533	0.46247	0.09807	-0.22
Mof_H 	H 	0.80793	0.46327	0.12797	-0.004
Mof_H 	H 	0.78713	0.51287	0.25517	-0.034
Mof_C 	C 	0.80323	0.54207	0.30287	-0.315
Mof_C 	C 	0.77513	0.49467	0.34877	-0.293
Mof_H 	H 	0.73383	0.43107	0.33467	-0.022
Mof_H 	H 	0.87103	0.38087	0.08897	0.096
Mof_C 	C 	0.87503	0.43957	0.08547	0.171
Mof_H 	H 	0.86703	0.49177	0.09067	0.1
Mof_H 	H 	0.82003	0.57067	0.29387	0.134
Mof_C 	C 	0.80123	0.53737	0.33697	0.254
Mof_H 	H 	0.77303	0.48907	0.37287	0.125
Mof_C 	C 	0.91253	0.45687	0.05927	-0.174
Mof_C 	C 	0.82233	0.57587	0.35987	-0.197
Mof_C 	C 	0.95483	0.48617	0.07197	0.085
Mof_C 	C 	0.90343	0.44357	0.02487	0.125
Mof_C 	C 	0.86473	0.59247	0.37237	0.107
Mof_C 	C 	0.79513	0.59257	0.37077	0.077
Mof_N 	N 	0.99363	0.50717	0.05147	-0.3
Mof_C 	C 	0.96663	0.50247	0.10897	-0.046
Mof_N 	N 	0.93323	0.45617	0.99887	-0.296
Mof_C 	C 	0.86103	0.41487	0.01237	-0.105
Mof_C 	C 	0.89263	0.57147	0.36347	-0.077
Mof_N 	N 	0.88843	0.62707	0.39457	-0.298
Mof_N 	N 	0.80683	0.63017	0.39317	-0.304
Mof_C 	C 	0.74763	0.57827	0.36067	-0.043
Mof_C 	C 	0.02583	0.53447	0.07317	0.135
Mof_C 	C 	0.01133	0.53157	0.10997	-0.144
Mof_H 	H 	0.94703	0.49427	0.12787	0.04
Mof_C 	C 	0.90963	0.43517	0.96767	0.144
Mof_H 	H 	0.83483	0.40217	0.02537	0.072
Mof_C 	C 	0.86483	0.40887	0.97757	-0.099
Mof_C 	C 	0.93253	0.59807	0.37637	-0.105
Mof_H 	H 	0.88333	0.54497	0.35137	0.054
Mof_C 	C 	0.92993	0.63277	0.39877	0.136
Mof_C 	C 	0.76913	0.63267	0.39627	0.169
Mof_C 	C 	0.73313	0.60237	0.37597	-0.152
Mof_H 	H 	0.73063	0.55487	0.34537	0.044
Mof_C 	C 	0.07153	0.56077	0.06377	-0.281
Mof_H 	H 	0.02873	0.54627	0.12957	0.071
Mof_H 	H 	0.84163	0.39027	0.96267	0.066
Mof_H 	H 	0.95783	0.59587	0.37247	0.06
Mof_H 	H 	0.70523	0.59977	0.37377	0.075
Mof_H 	H 	0.09073	0.57737	0.08187	0.123
Mof_Zn	Zn	0.63558	0.27186	0.97162	1.21
Mof_O 	O 	0.6753	0.261	0.00202	-0.509
Mof_O 	O 	0.7404	0.3249	0.00071	-0.538
Mof_O 	O 	0.6225	0.2298	0.93251	-0.516
Mof_C 	C 	0.716	0.2865	0.0099	0.431
Mof_C 	C 	0.6316	0.2382	0.8997	0.441
Mof_O 	O 	0.6477	0.2761	0.88569	-0.525
Mof_C 	C 	0.7326	0.2636	0.035	-0.184
Mof_C 	C 	0.6219	0.2018	0.8756	-0.271
Mof_C 	C 	0.7764	0.2886	0.047	0.102
Mof_C 	C 	0.7073	0.2208	0.0461	0.129
Mof_C 	C 	0.608	0.1593	0.8874	0.204
Mof_C 	C 	0.6254	0.2072	0.8412	0.209
Mof_H 	H 	0.7939	0.3181	0.0399	0.003
Mof_C 	C 	0.7941	0.2692	0.0702	-0.21
Mof_C 	C 	0.7262	0.2042	0.0686	-0.222
Mof_H 	H 	0.678	0.2034	0.0387	-0.005
Mof_H 	H 	0.6076	0.1538	0.9115	-0.034
Mof_C 	C 	0.5945	0.1246	0.8638	-0.314
Mof_C 	C 	0.6138	0.172	0.8179	-0.291
Mof_H 	H 	0.6361	0.2356	0.832	-0.022
Mof_H 	H 	0.8235	0.2858	0.0777	0.096
Mof_C 	C 	0.7688	0.2271	0.0812	0.172
Mof_H 	H 	0.7086	0.1749	0.076	0.098
Mof_H 	H 	0.5827	0.096	0.8728	0.133
Mof_C 	C 	0.5972	0.1293	0.8297	0.252
Mof_H 	H 	0.6173	0.1776	0.7938	0.125
Mof_C 	C 	0.789	0.2098	0.1074	-0.178
Mof_C 	C 	0.5798	0.0908	0.8068	-0.197
Mof_C 	C 	0.802	0.1805	0.0947	0.09
Mof_C 	C 	0.7932	0.2231	0.1418	0.127
Mof_C 	C 	0.6056	0.0742	0.7943	0.106
Mof_C 	C 	0.5359	0.0741	0.7959	0.075
Mof_N 	N 	0.8198	0.1595	0.1152	-0.309
Mof_C 	C 	0.7975	0.1642	0.0577	-0.072
Mof_N 	N 	0.8104	0.2105	0.1678	-0.303
Mof_C 	C 	0.7795	0.2518	0.1543	-0.096
Mof_C 	C 	0.6545	0.0952	0.8032	-0.078
Mof_N 	N 	0.5947	0.0396	0.7721	-0.3
Mof_N 	N 	0.51	0.0365	0.7735	-0.307
Mof_C 	C 	0.5027	0.0884	0.806	-0.04
Mof_C 	C 	0.8247	0.1322	0.0935	0.14
Mof_C 	C 	0.8131	0.1351	0.0567	-0.121
Mof_H 	H 	0.7861	0.1724	0.0388	0.045
Mof_C 	C 	0.8078	0.2315	0.199	0.145
Mof_H 	H 	0.766	0.2645	0.1413	0.07
Mof_C 	C 	0.7893	0.2578	0.1891	-0.109
Mof_C 	C 	0.6678	0.0686	0.7903	-0.106
Mof_H 	H 	0.6717	0.1217	0.8153	0.054
Mof_C 	C 	0.6305	0.0339	0.7679	0.134
Mof_C 	C 	0.4698	0.034	0.7704	0.177
Mof_C 	C 	0.4641	0.0643	0.7907	-0.159
Mof_H 	H 	0.5091	0.1118	0.8213	0.043
Mof_C 	C 	0.8441	0.1059	0.1029	-0.278
Mof_H 	H 	0.8158	0.1204	0.0371	0.063
Mof_H 	H 	0.7847	0.2764	0.204	0.068
Mof_H 	H 	0.6953	0.0708	0.7942	0.057
Mof_H 	H 	0.4388	0.0669	0.7929	0.076
Mof_H 	H 	0.8467	0.0893	0.0848	0.121
Mof_Zn	Zn	0.30225	0.60519	0.30495	1.209
Mof_O 	O 	0.34197	0.59433	0.33535	-0.507
Mof_O 	O 	0.40707	0.65823	0.33404	-0.535
Mof_O 	O 	0.28917	0.56313	0.26584	-0.517
Mof_C 	C 	0.38267	0.61983	0.34323	0.43
Mof_C 	C 	0.29827	0.57153	0.23303	0.441
Mof_O 	O 	0.31437	0.60943	0.21902	-0.525
Mof_C 	C 	0.39927	0.59693	0.36833	-0.183
Mof_C 	C 	0.28857	0.53513	0.20893	-0.273
Mof_C 	C 	0.44307	0.62193	0.38033	0.101
Mof_C 	C 	0.37397	0.55413	0.37943	0.129
Mof_C 	C 	0.27467	0.49263	0.22073	0.205
Mof_C 	C 	0.29207	0.54053	0.17453	0.21
Mof_H 	H 	0.46057	0.65143	0.37323	0.004
Mof_C 	C 	0.46077	0.60253	0.40353	-0.209
Mof_C 	C 	0.39287	0.53753	0.40193	-0.221
Mof_H 	H 	0.34467	0.53673	0.37203	-0.004
Mof_H 	H 	0.27427	0.48713	0.24483	-0.034
Mof_C 	C 	0.26117	0.45793	0.19713	-0.315
Mof_C 	C 	0.28047	0.50533	0.15123	-0.292
Mof_H 	H 	0.30277	0.56893	0.16533	-0.022
Mof_H 	H 	0.49017	0.61913	0.41103	0.095
Mof_C 	C 	0.43547	0.56043	0.41453	0.172
Mof_H 	H 	0.37527	0.50823	0.40933	0.099
Mof_H 	H 	0.24937	0.42933	0.20613	0.134
Mof_C 	C 	0.26387	0.46263	0.16303	0.254
Mof_H 	H 	0.28397	0.51093	0.12713	0.125
Mof_C 	C 	0.45567	0.54313	0.44073	-0.178
Mof_C 	C 	0.24647	0.42413	0.14013	-0.197
Mof_C 	C 	0.46867	0.51383	0.42803	0.09
Mof_C 	C 	0.45987	0.55643	0.47513	0.127
Mof_C 	C 	0.27227	0.40753	0.12763	0.107
Mof_C 	C 	0.20257	0.40743	0.12923	0.077
Mof_N 	N 	0.48647	0.49283	0.44853	-0.309
Mof_C 	C 	0.46417	0.49753	0.39103	-0.072
Mof_N 	N 	0.47707	0.54383	0.50113	-0.303
Mof_C 	C 	0.44617	0.58513	0.48763	-0.096
Mof_C 	C 	0.32117	0.42853	0.13653	-0.08
Mof_N 	N 	0.26137	0.37293	0.10543	-0.297
Mof_N 	N 	0.17667	0.36983	0.10683	-0.304
Mof_C 	C 	0.16937	0.42173	0.13933	-0.044
Mof_C 	C 	0.49137	0.46553	0.42683	0.141
Mof_C 	C 	0.47977	0.46843	0.39003	-0.121
Mof_H 	H 	0.45277	0.50573	0.37213	0.046
Mof_C 	C 	0.47447	0.56483	0.53233	0.145
Mof_H 	H 	0.43267	0.59783	0.47463	0.07
Mof_C 	C 	0.45597	0.59113	0.52243	-0.109
Mof_C 	C 	0.33447	0.40193	0.12363	-0.1
Mof_H 	H 	0.33837	0.45503	0.14863	0.055
Mof_C 	C 	0.29717	0.36723	0.10123	0.127
Mof_C 	C 	0.13647	0.36733	0.10373	0.167
Mof_C 	C 	0.13077	0.39763	0.12403	-0.151
Mof_H 	H 	0.17577	0.44513	0.15463	0.044
Mof_C 	C 	0.51077	0.43923	0.43623	-0.279
Mof_H 	H 	0.48247	0.45373	0.37043	0.065
Mof_H 	H 	0.45137	0.60973	0.53733	0.068
Mof_H 	H 	0.36197	0.40413	0.12753	0.056
Mof_H 	H 	0.10547	0.40023	0.12623	0.073
Mof_H 	H 	0.51337	0.42263	0.41813	0.123
Mof_Zn	Zn	0.96891	0.93853	0.63829	1.214
Mof_O 	O 	0.00863	0.92767	0.66869	-0.511
Mof_O 	O 	0.07373	0.99157	0.66738	-0.529
Mof_O 	O 	0.95583	0.89647	0.59918	-0.511
Mof_C 	C 	0.04933	0.95317	0.67657	0.43
Mof_C 	C 	0.96493	0.90487	0.56637	0.437
Mof_O 	O 	0.98103	0.94277	0.55236	-0.513
Mof_C 	C 	0.06593	0.93027	0.70167	-0.182
Mof_C 	C 	0.95523	0.86847	0.54227	-0.263
Mof_C 	C 	0.10973	0.95527	0.71367	0.101
Mof_C 	C 	0.04063	0.88747	0.71277	0.128
Mof_C 	C 	0.94133	0.82597	0.55407	0.197
Mof_C 	C 	0.95873	0.87387	0.50787	0.202
Mof_H 	H 	0.12723	0.98477	0.70657	0.008
Mof_C 	C 	0.12743	0.93587	0.73687	-0.208
Mof_C 	C 	0.05953	0.87087	0.73527	-0.222
Mof_H 	H 	0.01133	0.87007	0.70537	-0.007
Mof_H 	H 	0.94093	0.82047	0.57817	-0.03
Mof_C 	C 	0.92783	0.79127	0.53047	-0.304
Mof_C 	C 	0.94713	0.83867	0.48457	-0.282
Mof_H 	H 	0.96943	0.90227	0.49867	-0.016
Mof_H 	H 	0.15683	0.95247	0.74437	0.098
Mof_C 	C 	0.10213	0.89377	0.74787	0.171
Mof_H 	H 	0.04193	0.84157	0.74267	0.096
Mof_H 	H 	0.91603	0.76267	0.53947	0.131
Mof_C 	C 	0.93053	0.79597	0.49637	0.244
Mof_H 	H 	0.95063	0.84427	0.46047	0.124
Mof_C 	C 	0.12233	0.87647	0.77407	-0.178
Mof_C 	C 	0.91313	0.75747	0.47347	-0.184
Mof_C 	C 	0.13533	0.84717	0.76137	0.09
Mof_C 	C 	0.12653	0.88977	0.80847	0.126
Mof_C 	C 	0.93893	0.74087	0.46097	0.086
Mof_C 	C 	0.86923	0.74077	0.46257	0.073
Mof_N 	N 	0.15313	0.82617	0.78187	-0.309
Mof_C 	C 	0.13083	0.83087	0.72437	-0.072
Mof_N 	N 	0.14373	0.87717	0.83447	-0.303
Mof_C 	C 	0.11283	0.91847	0.82097	-0.095
Mof_C 	C 	0.98783	0.76187	0.46987	-0.002
Mof_N 	N 	0.92803	0.70627	0.43877	-0.297
Mof_N 	N 	0.84333	0.70317	0.44017	-0.303
Mof_C 	C 	0.83603	0.75507	0.47267	-0.04
Mof_C 	C 	0.15803	0.79887	0.76017	0.141
Mof_C 	C 	0.14643	0.80177	0.72337	-0.121
Mof_H 	H 	0.11943	0.83907	0.70547	0.045
Mof_C 	C 	0.14113	0.89817	0.86567	0.146
Mof_H 	H 	0.09933	0.93117	0.80797	0.07
Mof_C 	C 	0.12263	0.92447	0.85577	-0.109
Mof_C 	C 	0.00113	0.73527	0.45697	-0.174
Mof_H 	H 	0.00503	0.78837	0.48197	0.019
Mof_C 	C 	0.96383	0.70057	0.43457	0.16
Mof_C 	C 	0.80313	0.70067	0.43707	0.17
Mof_C 	C 	0.79743	0.73097	0.45737	-0.153
Mof_H 	H 	0.84243	0.77847	0.48797	0.043
Mof_C 	C 	0.17743	0.77257	0.76957	-0.279
Mof_H 	H 	0.14913	0.78707	0.70377	0.065
Mof_H 	H 	0.11803	0.94307	0.87067	0.071
Mof_H 	H 	0.02863	0.73747	0.46087	0.079
Mof_H 	H 	0.77213	0.73357	0.45957	0.075
Mof_H 	H 	0.18003	0.75597	0.75147	0.123
Mof_Zn	Zn	0.63628	0.36442	0.97162	1.21
Mof_O 	O 	0.5857	0.3247	0.00202	-0.509
Mof_O 	O 	0.5845	0.2596	0.00071	-0.538
Mof_O 	O 	0.6073	0.3775	0.93251	-0.516
Mof_C 	C 	0.5705	0.284	0.0099	0.431
Mof_C 	C 	0.6066	0.3684	0.8997	0.441
Mof_O 	O 	0.6284	0.3523	0.88569	-0.525
Mof_C 	C 	0.531	0.2674	0.035	-0.183
Mof_C 	C 	0.5799	0.3781	0.8756	-0.272
Mof_C 	C 	0.5122	0.2236	0.047	0.101
Mof_C 	C 	0.5135	0.2927	0.0461	0.129
Mof_C 	C 	0.5513	0.392	0.8874	0.205
Mof_C 	C 	0.5818	0.3746	0.8412	0.209
Mof_H 	H 	0.5242	0.2061	0.0399	0.003
Mof_C 	C 	0.4751	0.2059	0.0702	-0.209
Mof_C 	C 	0.478	0.2738	0.0686	-0.222
Mof_H 	H 	0.5254	0.322	0.0387	-0.005
Mof_H 	H 	0.5462	0.3924	0.9115	-0.034
Mof_C 	C 	0.5301	0.4055	0.8638	-0.315
Mof_C 	C 	0.5582	0.3862	0.8179	-0.292
Mof_H 	H 	0.5995	0.3639	0.832	-0.022
Mof_H 	H 	0.4623	0.1765	0.0777	0.094
Mof_C 	C 	0.4583	0.2312	0.0812	0.172
Mof_H 	H 	0.4663	0.2914	0.076	0.099
Mof_H 	H 	0.5133	0.4173	0.8728	0.134
Mof_C 	C 	0.5321	0.4028	0.8297	0.254
Mof_H 	H 	0.5603	0.3827	0.7938	0.125
Mof_C 	C 	0.4208	0.211	0.1074	-0.178
Mof_C 	C 	0.511	0.4202	0.8068	-0.197
Mof_C 	C 	0.3785	0.198	0.0947	0.089
Mof_C 	C 	0.4299	0.2068	0.1418	0.126
Mof_C 	C 	0.4686	0.3944	0.7943	0.107
Mof_C 	C 	0.5382	0.4641	0.7959	0.077
Mof_N 	N 	0.3397	0.1802	0.1152	-0.309
Mof_C 	C 	0.3667	0.2025	0.0577	-0.072
Mof_N 	N 	0.4001	0.1896	0.1678	-0.303
Mof_C 	C 	0.4723	0.2205	0.1543	-0.096
Mof_C 	C 	0.4407	0.3455	0.8032	-0.08
Mof_N 	N 	0.4449	0.4053	0.7721	-0.297
Mof_N 	N 	0.5265	0.49	0.7735	-0.304
Mof_C 	C 	0.5857	0.4973	0.806	-0.043
Mof_C 	C 	0.3075	0.1753	0.0935	0.14
Mof_C 	C 	0.322	0.1869	0.0567	-0.121
Mof_H 	H 	0.3863	0.2139	0.0388	0.045
Mof_C 	C 	0.4237	0.1922	0.199	0.145
Mof_H 	H 	0.4985	0.234	0.1413	0.07
Mof_C 	C 	0.4685	0.2107	0.1891	-0.109
Mof_C 	C 	0.4008	0.3322	0.7903	-0.1
Mof_H 	H 	0.45	0.3283	0.8153	0.055
Mof_C 	C 	0.4034	0.3695	0.7679	0.127
Mof_C 	C 	0.5642	0.5302	0.7704	0.169
Mof_C 	C 	0.6002	0.5359	0.7907	-0.152
Mof_H 	H 	0.6027	0.4909	0.8213	0.044
Mof_C 	C 	0.2618	0.1559	0.1029	-0.279
Mof_H 	H 	0.3046	0.1842	0.0371	0.064
Mof_H 	H 	0.4917	0.2153	0.204	0.068
Mof_H 	H 	0.3755	0.3047	0.7942	0.056
Mof_H 	H 	0.6281	0.5612	0.7929	0.075
Mof_H 	H 	0.2426	0.1533	0.0848	0.122
Mof_Zn	Zn	0.30295	0.69775	0.30495	1.209
Mof_O 	O 	0.25237	0.65803	0.33535	-0.507
Mof_O 	O 	0.25117	0.59293	0.33404	-0.535
Mof_O 	O 	0.27397	0.71083	0.26584	-0.517
Mof_C 	C 	0.23717	0.61733	0.34323	0.43
Mof_C 	C 	0.27327	0.70173	0.23303	0.441
Mof_O 	O 	0.29507	0.68563	0.21902	-0.525
Mof_C 	C 	0.19767	0.60073	0.36833	-0.183
Mof_C 	C 	0.24657	0.71143	0.20893	-0.273
Mof_C 	C 	0.17887	0.55693	0.38033	0.102
Mof_C 	C 	0.18017	0.62603	0.37943	0.129
Mof_C 	C 	0.21797	0.72533	0.22073	0.205
Mof_C 	C 	0.24847	0.70793	0.17453	0.21
Mof_H 	H 	0.19087	0.53943	0.37323	0.003
Mof_C 	C 	0.14177	0.53923	0.40353	-0.21
Mof_C 	C 	0.14467	0.60713	0.40193	-0.222
Mof_H 	H 	0.19207	0.65533	0.37203	-0.004
Mof_H 	H 	0.21287	0.72573	0.24483	-0.035
Mof_C 	C 	0.19677	0.73883	0.19713	-0.315
Mof_C 	C 	0.22487	0.71953	0.15123	-0.292
Mof_H 	H 	0.26617	0.69723	0.16533	-0.022
Mof_H 	H 	0.12897	0.50983	0.41103	0.095
Mof_C 	C 	0.12497	0.56453	0.41453	0.173
Mof_H 	H 	0.13297	0.62473	0.40933	0.099
Mof_H 	H 	0.17997	0.75063	0.20613	0.133
Mof_C 	C 	0.19877	0.73613	0.16303	0.254
Mof_H 	H 	0.22697	0.71603	0.12713	0.125
Mof_C 	C 	0.08747	0.54433	0.44073	-0.181
Mof_C 	C 	0.17767	0.75353	0.14013	-0.198
Mof_C 	C 	0.04517	0.53133	0.42803	0.094
Mof_C 	C 	0.09657	0.54013	0.47513	0.128
Mof_C 	C 	0.13527	0.72773	0.12763	0.108
Mof_C 	C 	0.20487	0.79743	0.12923	0.077
Mof_N 	N 	0.00637	0.51353	0.44853	-0.317
Mof_C 	C 	0.03337	0.53583	0.39103	-0.097
Mof_N 	N 	0.06677	0.52293	0.50113	-0.304
Mof_C 	C 	0.13897	0.55383	0.48763	-0.098
Mof_C 	C 	0.10737	0.67883	0.13653	-0.083
Mof_N 	N 	0.11157	0.73863	0.10543	-0.295
Mof_N 	N 	0.19317	0.82333	0.10683	-0.305
Mof_C 	C 	0.25237	0.83063	0.13933	-0.043
Mof_C 	C 	0.97417	0.50863	0.42683	0.147
Mof_C 	C 	0.98867	0.52023	0.39003	-0.098
Mof_H 	H 	0.05297	0.54723	0.37213	0.052
Mof_C 	C 	0.09037	0.52553	0.53233	0.142
Mof_H 	H 	0.16517	0.56733	0.47463	0.07
Mof_C 	C 	0.13517	0.54403	0.52243	-0.107
Mof_C 	C 	0.06747	0.66553	0.12363	-0.096
Mof_H 	H 	0.11667	0.66163	0.14863	0.055
Mof_C 	C 	0.07007	0.70283	0.10123	0.117
Mof_C 	C 	0.23087	0.86353	0.10373	0.17
Mof_C 	C 	0.26687	0.86923	0.12403	-0.152
Mof_H 	H 	0.26937	0.82423	0.15463	0.044
Mof_C 	C 	0.92847	0.48923	0.43623	-0.28
Mof_H 	H 	0.97127	0.51753	0.37043	0.059
Mof_H 	H 	0.15837	0.54863	0.53733	0.068
Mof_H 	H 	0.04217	0.63803	0.12753	0.053
Mof_H 	H 	0.29477	0.89453	0.12623	0.076
Mof_H 	H 	0.90927	0.48663	0.41813	0.123
Mof_Zn	Zn	0.96961	0.03109	0.63829	1.211
Mof_O 	O 	0.91903	0.99137	0.66869	-0.497
Mof_O 	O 	0.91783	0.92627	0.66738	-0.53
Mof_O 	O 	0.94063	0.04417	0.59918	-0.517
Mof_C 	C 	0.90383	0.95067	0.67657	0.429
Mof_C 	C 	0.93993	0.03507	0.56637	0.442
Mof_O 	O 	0.96173	0.01897	0.55236	-0.523
Mof_C 	C 	0.86433	0.93407	0.70167	-0.179
Mof_C 	C 	0.91323	0.04477	0.54227	-0.278
Mof_C 	C 	0.84553	0.89027	0.71367	0.101
Mof_C 	C 	0.84683	0.95937	0.71277	0.128
Mof_C 	C 	0.88463	0.05867	0.55407	0.21
Mof_C 	C 	0.91513	0.04127	0.50787	0.215
Mof_H 	H 	0.85753	0.87277	0.70657	0.004
Mof_C 	C 	0.80843	0.87257	0.73687	-0.208
Mof_C 	C 	0.81133	0.94047	0.73527	-0.219
Mof_H 	H 	0.85873	0.98867	0.70537	0
Mof_H 	H 	0.87953	0.05907	0.57817	-0.038
Mof_C 	C 	0.86343	0.07217	0.53047	-0.324
Mof_C 	C 	0.89153	0.05287	0.48457	-0.3
Mof_H 	H 	0.93283	0.03057	0.49867	-0.024
Mof_H 	H 	0.79563	0.84317	0.74437	0.095
Mof_C 	C 	0.79163	0.89787	0.74787	0.172
Mof_H 	H 	0.79963	0.95807	0.74267	0.102
Mof_H 	H 	0.84663	0.08397	0.53947	0.136
Mof_C 	C 	0.86543	0.06947	0.49637	0.262
Mof_H 	H 	0.89363	0.04937	0.46047	0.127
Mof_C 	C 	0.75413	0.87767	0.77407	-0.177
Mof_C 	C 	0.84433	0.08687	0.47347	-0.21
Mof_C 	C 	0.71183	0.86467	0.76137	0.09
Mof_C 	C 	0.76323	0.87347	0.80847	0.127
Mof_C 	C 	0.80193	0.06107	0.46097	0.128
Mof_C 	C 	0.87153	0.13077	0.46257	0.081
Mof_N 	N 	0.67303	0.84687	0.78187	-0.309
Mof_C 	C 	0.70003	0.86917	0.72437	-0.071
Mof_N 	N 	0.73343	0.85627	0.83447	-0.303
Mof_C 	C 	0.80563	0.88717	0.82097	-0.096
Mof_C 	C 	0.77403	0.01217	0.46987	-0.158
Mof_N 	N 	0.77823	0.07197	0.43877	-0.296
Mof_N 	N 	0.85983	0.15667	0.44017	-0.305
Mof_C 	C 	0.91903	0.16397	0.47267	-0.044
Mof_C 	C 	0.64083	0.84197	0.76017	0.142
Mof_C 	C 	0.65533	0.85357	0.72337	-0.12
Mof_H 	H 	0.71963	0.88057	0.70547	0.046
Mof_C 	C 	0.75703	0.85887	0.86567	0.145
Mof_H 	H 	0.83183	0.90067	0.80797	0.071
Mof_C 	C 	0.80183	0.87737	0.85577	-0.108
Mof_C 	C 	0.73413	0.99887	0.45697	-0.026
Mof_H 	H 	0.78333	0.99497	0.48197	0.091
Mof_C 	C 	0.73673	0.03617	0.43457	0.095
Mof_C 	C 	0.89753	0.19687	0.43707	0.17
Mof_C 	C 	0.93353	0.20257	0.45737	-0.151
Mof_H 	H 	0.93603	0.15757	0.48797	0.045
Mof_C 	C 	0.59513	0.82257	0.76957	-0.279
Mof_H 	H 	0.63793	0.85087	0.70377	0.065
Mof_H 	H 	0.82503	0.88197	0.87067	0.069
Mof_H 	H 	0.70883	0.97137	0.46087	0.034
Mof_H 	H 	0.96143	0.22787	0.45957	0.078
Mof_H 	H 	0.57593	0.81997	0.75147	0.123
Mof_Zn	Zn	0.72814	0.36372	0.97162	1.21
Mof_O 	O 	0.739	0.4143	0.00202	-0.509
Mof_O 	O 	0.6751	0.4155	0.00071	-0.538
Mof_O 	O 	0.7702	0.3927	0.93251	-0.516
Mof_C 	C 	0.7135	0.4295	0.0099	0.431
Mof_C 	C 	0.7618	0.3934	0.8997	0.441
Mof_O 	O 	0.7239	0.3716	0.88569	-0.525
Mof_C 	C 	0.7364	0.469	0.035	-0.184
Mof_C 	C 	0.7982	0.4201	0.8756	-0.272
Mof_C 	C 	0.7114	0.4878	0.047	0.102
Mof_C 	C 	0.7792	0.4865	0.0461	0.13
Mof_C 	C 	0.8407	0.4487	0.8874	0.204
Mof_C 	C 	0.7928	0.4182	0.8412	0.209
Mof_H 	H 	0.6819	0.4758	0.0399	0.003
Mof_C 	C 	0.7308	0.5249	0.0702	-0.21
Mof_C 	C 	0.7958	0.522	0.0686	-0.222
Mof_H 	H 	0.7966	0.4746	0.0387	-0.005
Mof_H 	H 	0.8462	0.4538	0.9115	-0.033
Mof_C 	C 	0.8754	0.4699	0.8638	-0.314
Mof_C 	C 	0.828	0.4418	0.8179	-0.291
Mof_H 	H 	0.7644	0.4005	0.832	-0.022
Mof_H 	H 	0.7142	0.5377	0.0777	0.095
Mof_C 	C 	0.7729	0.5417	0.0812	0.172
Mof_H 	H 	0.8251	0.5337	0.076	0.1
Mof_H 	H 	0.904	0.4867	0.8728	0.134
Mof_C 	C 	0.8707	0.4679	0.8297	0.252
Mof_H 	H 	0.8224	0.4397	0.7938	0.125
Mof_C 	C 	0.7902	0.5792	0.1074	-0.178
Mof_C 	C 	0.9092	0.489	0.8068	-0.195
Mof_C 	C 	0.8195	0.6215	0.0947	0.09
Mof_C 	C 	0.7769	0.5701	0.1418	0.127
Mof_C 	C 	0.9258	0.5314	0.7943	0.107
Mof_C 	C 	0.9259	0.4618	0.7959	0.076
Mof_N 	N 	0.8405	0.6603	0.1152	-0.309
Mof_C 	C 	0.8358	0.6333	0.0577	-0.072
Mof_N 	N 	0.7895	0.5999	0.1678	-0.303
Mof_C 	C 	0.7482	0.5277	0.1543	-0.096
Mof_C 	C 	0.9048	0.5593	0.8032	-0.075
Mof_N 	N 	0.9604	0.5551	0.7721	-0.296
Mof_N 	N 	0.9635	0.4735	0.7735	-0.303
Mof_C 	C 	0.9116	0.4143	0.806	-0.036
Mof_C 	C 	0.8678	0.6925	0.0935	0.142
Mof_C 	C 	0.8649	0.678	0.0567	-0.12
Mof_H 	H 	0.8276	0.6137	0.0388	0.045
Mof_C 	C 	0.7685	0.5763	0.199	0.145
Mof_H 	H 	0.7355	0.5015	0.1413	0.07
Mof_C 	C 	0.7422	0.5315	0.1891	-0.109
Mof_C 	C 	0.9314	0.5992	0.7903	-0.109
Mof_H 	H 	0.8783	0.55	0.8153	0.053
Mof_C 	C 	0.9661	0.5966	0.7679	0.148
Mof_C 	C 	0.966	0.4358	0.7704	0.191
Mof_C 	C 	0.9357	0.3998	0.7907	-0.164
Mof_H 	H 	0.8882	0.3973	0.8213	0.042
Mof_C 	C 	0.8941	0.7382	0.1029	-0.279
Mof_H 	H 	0.8796	0.6954	0.0371	0.064
Mof_H 	H 	0.7236	0.5083	0.204	0.068
Mof_H 	H 	0.9292	0.6245	0.7942	0.062
Mof_H 	H 	0.9331	0.3719	0.7929	0.081
Mof_H 	H 	0.9107	0.7574	0.0848	0.124
Mof_Zn	Zn	0.39481	0.69705	0.30495	1.209
Mof_O 	O 	0.40567	0.74763	0.33535	-0.507
Mof_O 	O 	0.34177	0.74883	0.33404	-0.535
Mof_O 	O 	0.43687	0.72603	0.26584	-0.517
Mof_C 	C 	0.38017	0.76283	0.34323	0.43
Mof_C 	C 	0.42847	0.72673	0.23303	0.441
Mof_O 	O 	0.39057	0.70493	0.21902	-0.525
Mof_C 	C 	0.40307	0.80233	0.36833	-0.182
Mof_C 	C 	0.46487	0.75343	0.20893	-0.272
Mof_C 	C 	0.37807	0.82113	0.38033	0.101
Mof_C 	C 	0.44587	0.81983	0.37943	0.129
Mof_C 	C 	0.50737	0.78203	0.22073	0.205
Mof_C 	C 	0.45947	0.75153	0.17453	0.21
Mof_H 	H 	0.34857	0.80913	0.37323	0.004
Mof_C 	C 	0.39747	0.85823	0.40353	-0.208
Mof_C 	C 	0.46247	0.85533	0.40193	-0.22
Mof_H 	H 	0.46327	0.80793	0.37203	-0.004
Mof_H 	H 	0.51287	0.78713	0.24483	-0.034
Mof_C 	C 	0.54207	0.80323	0.19713	-0.315
Mof_C 	C 	0.49467	0.77513	0.15123	-0.292
Mof_H 	H 	0.43107	0.73383	0.16533	-0.022
Mof_H 	H 	0.38087	0.87103	0.41103	0.096
Mof_C 	C 	0.43957	0.87503	0.41453	0.171
Mof_H 	H 	0.49177	0.86703	0.40933	0.1
Mof_H 	H 	0.57067	0.82003	0.20613	0.134
Mof_C 	C 	0.53737	0.80123	0.16303	0.253
Mof_H 	H 	0.48907	0.77303	0.12713	0.125
Mof_C 	C 	0.45687	0.91253	0.44073	-0.174
Mof_C 	C 	0.57587	0.82233	0.14013	-0.197
Mof_C 	C 	0.48617	0.95483	0.42803	0.086
Mof_C 	C 	0.44357	0.90343	0.47513	0.126
Mof_C 	C 	0.59247	0.86473	0.12763	0.107
Mof_C 	C 	0.59257	0.79513	0.12923	0.077
Mof_N 	N 	0.50717	0.99363	0.44853	-0.299
Mof_C 	C 	0.50247	0.96663	0.39103	-0.046
Mof_N 	N 	0.45617	0.93323	0.50113	-0.3
Mof_C 	C 	0.41487	0.86103	0.48763	-0.095
Mof_C 	C 	0.57147	0.89263	0.13653	-0.077
Mof_N 	N 	0.62707	0.88843	0.10543	-0.298
Mof_N 	N 	0.63017	0.80683	0.10683	-0.304
Mof_C 	C 	0.57827	0.74763	0.13933	-0.043
Mof_C 	C 	0.53447	0.02583	0.42683	0.135
Mof_C 	C 	0.53157	0.01133	0.39003	-0.143
Mof_H 	H 	0.49427	0.94703	0.37213	0.04
Mof_C 	C 	0.43517	0.90963	0.53233	0.147
Mof_H 	H 	0.40217	0.83483	0.47463	0.069
Mof_C 	C 	0.40887	0.86483	0.52243	-0.11
Mof_C 	C 	0.59807	0.93253	0.12363	-0.105
Mof_H 	H 	0.54497	0.88333	0.14863	0.054
Mof_C 	C 	0.63277	0.92993	0.10123	0.136
Mof_C 	C 	0.63267	0.76913	0.10373	0.169
Mof_C 	C 	0.60237	0.73313	0.12403	-0.152
Mof_H 	H 	0.55487	0.73063	0.15463	0.044
Mof_C 	C 	0.56077	0.07153	0.43623	-0.278
Mof_H 	H 	0.54627	0.02873	0.37043	0.071
Mof_H 	H 	0.39027	0.84163	0.53733	0.069
Mof_H 	H 	0.59587	0.95783	0.12753	0.06
Mof_H 	H 	0.59977	0.70523	0.12623	0.075
Mof_H 	H 	0.57737	0.09073	0.41813	0.122
Mof_Zn	Zn	0.06147	0.03039	0.63829	1.206
Mof_O 	O 	0.07233	0.08097	0.66869	-0.51
Mof_O 	O 	0.00843	0.08217	0.66738	-0.544
Mof_O 	O 	0.10353	0.05937	0.59918	-0.52
Mof_C 	C 	0.04683	0.09617	0.67657	0.432
Mof_C 	C 	0.09513	0.06007	0.56637	0.442
Mof_O 	O 	0.05723	0.03827	0.55236	-0.531
Mof_C 	C 	0.06973	0.13567	0.70167	-0.186
Mof_C 	C 	0.13153	0.08677	0.54227	-0.276
Mof_C 	C 	0.04473	0.15447	0.71367	0.102
Mof_C 	C 	0.11253	0.15317	0.71277	0.131
Mof_C 	C 	0.17403	0.11537	0.55407	0.207
Mof_C 	C 	0.12613	0.08487	0.50787	0.212
Mof_H 	H 	0.01523	0.14247	0.70657	-0.001
Mof_C 	C 	0.06413	0.19157	0.73687	-0.212
Mof_C 	C 	0.12913	0.18867	0.73527	-0.223
Mof_H 	H 	0.12993	0.14127	0.70537	-0.005
Mof_H 	H 	0.17953	0.12047	0.57817	-0.035
Mof_C 	C 	0.20873	0.13657	0.53047	-0.318
Mof_C 	C 	0.16133	0.10847	0.48457	-0.296
Mof_H 	H 	0.09773	0.06717	0.49867	-0.025
Mof_H 	H 	0.04753	0.20437	0.74437	0.093
Mof_C 	C 	0.10623	0.20837	0.74787	0.173
Mof_H 	H 	0.15843	0.20037	0.74267	0.1
Mof_H 	H 	0.23733	0.15337	0.53947	0.135
Mof_C 	C 	0.20403	0.13457	0.49637	0.256
Mof_H 	H 	0.15573	0.10637	0.46047	0.125
Mof_C 	C 	0.12353	0.24587	0.77407	-0.178
Mof_C 	C 	0.24253	0.15567	0.47347	-0.198
Mof_C 	C 	0.15283	0.28817	0.76137	0.09
Mof_C 	C 	0.11023	0.23677	0.80847	0.126
Mof_C 	C 	0.25913	0.19807	0.46097	0.108
Mof_C 	C 	0.25923	0.12847	0.46257	0.077
Mof_N 	N 	0.17383	0.32697	0.78187	-0.309
Mof_C 	C 	0.16913	0.29997	0.72437	-0.072
Mof_N 	N 	0.12283	0.26657	0.83447	-0.303
Mof_C 	C 	0.08153	0.19437	0.82097	-0.097
Mof_C 	C 	0.23813	0.22597	0.46987	-0.08
Mof_N 	N 	0.29373	0.22177	0.43877	-0.297
Mof_N 	N 	0.29683	0.14017	0.44017	-0.304
Mof_C 	C 	0.24493	0.08097	0.47267	-0.045
Mof_C 	C 	0.20113	0.35917	0.76017	0.141
Mof_C 	C 	0.19823	0.34467	0.72337	-0.121
Mof_H 	H 	0.16093	0.28037	0.70547	0.045
Mof_C 	C 	0.10183	0.24297	0.86567	0.144
Mof_H 	H 	0.06883	0.16817	0.80797	0.067
Mof_C 	C 	0.07553	0.19817	0.85577	-0.11
Mof_C 	C 	0.26473	0.26587	0.45697	-0.1
Mof_H 	H 	0.21163	0.21667	0.48197	0.055
Mof_C 	C 	0.29943	0.26327	0.43457	0.127
Mof_C 	C 	0.29933	0.10247	0.43707	0.167
Mof_C 	C 	0.26903	0.06647	0.45737	-0.15
Mof_H 	H 	0.22153	0.06397	0.48797	0.044
Mof_C 	C 	0.22743	0.40487	0.76957	-0.279
Mof_H 	H 	0.21293	0.36207	0.70377	0.065
Mof_H 	H 	0.05693	0.17497	0.87067	0.066
Mof_H 	H 	0.26253	0.29117	0.46087	0.056
Mof_H 	H 	0.26643	0.03857	0.45957	0.072
Mof_H 	H 	0.24403	0.42407	0.75147	0.123
Mof_Zn	Zn	0.72814	0.36442	0.47162	1.209
Mof_O 	O 	0.739	0.3247	0.50202	-0.507
Mof_O 	O 	0.6751	0.2596	0.50071	-0.535
Mof_O 	O 	0.7702	0.3775	0.43251	-0.517
Mof_C 	C 	0.7135	0.284	0.5099	0.43
Mof_C 	C 	0.7618	0.3684	0.3997	0.441
Mof_O 	O 	0.7239	0.3523	0.38569	-0.525
Mof_C 	C 	0.7364	0.2674	0.535	-0.183
Mof_C 	C 	0.7982	0.3781	0.3756	-0.272
Mof_C 	C 	0.7114	0.2236	0.547	0.101
Mof_C 	C 	0.7792	0.2927	0.5461	0.129
Mof_C 	C 	0.8407	0.392	0.3874	0.205
Mof_C 	C 	0.7928	0.3746	0.3412	0.209
Mof_H 	H 	0.6819	0.2061	0.5399	0.003
Mof_C 	C 	0.7308	0.2059	0.5702	-0.209
Mof_C 	C 	0.7958	0.2738	0.5686	-0.222
Mof_H 	H 	0.7966	0.322	0.5387	-0.004
Mof_H 	H 	0.8462	0.3924	0.4115	-0.034
Mof_C 	C 	0.8754	0.4055	0.3638	-0.315
Mof_C 	C 	0.828	0.3862	0.3179	-0.292
Mof_H 	H 	0.7644	0.3639	0.332	-0.022
Mof_H 	H 	0.7142	0.1765	0.5777	0.094
Mof_C 	C 	0.7729	0.2312	0.5812	0.172
Mof_H 	H 	0.8251	0.2914	0.576	0.1
Mof_H 	H 	0.904	0.4173	0.3728	0.134
Mof_C 	C 	0.8707	0.4028	0.3297	0.253
Mof_H 	H 	0.8224	0.3827	0.2938	0.125
Mof_C 	C 	0.7902	0.211	0.6074	-0.178
Mof_C 	C 	0.9092	0.4202	0.3068	-0.195
Mof_C 	C 	0.8195	0.198	0.5947	0.09
Mof_C 	C 	0.7769	0.2068	0.6418	0.127
Mof_C 	C 	0.9258	0.3944	0.2943	0.107
Mof_C 	C 	0.9259	0.4641	0.2959	0.076
Mof_N 	N 	0.8405	0.1802	0.6152	-0.309
Mof_C 	C 	0.8358	0.2025	0.5577	-0.071
Mof_N 	N 	0.7895	0.1896	0.6678	-0.303
Mof_C 	C 	0.7482	0.2205	0.6543	-0.096
Mof_C 	C 	0.9048	0.3455	0.3032	-0.074
Mof_N 	N 	0.9604	0.4053	0.2721	-0.296
Mof_N 	N 	0.9635	0.49	0.2735	-0.303
Mof_C 	C 	0.9116	0.4973	0.306	-0.036
Mof_C 	C 	0.8678	0.1753	0.5935	0.142
Mof_C 	C 	0.8649	0.1869	0.5567	-0.121
Mof_H 	H 	0.8276	0.2139	0.5388	0.046
Mof_C 	C 	0.7685	0.1922	0.699	0.145
Mof_H 	H 	0.7355	0.234	0.6413	0.07
Mof_C 	C 	0.7422	0.2107	0.6891	-0.109
Mof_C 	C 	0.9314	0.3322	0.2903	-0.109
Mof_H 	H 	0.8783	0.3283	0.3153	0.053
Mof_C 	C 	0.9661	0.3695	0.2679	0.148
Mof_C 	C 	0.966	0.5302	0.2704	0.191
Mof_C 	C 	0.9357	0.5359	0.2907	-0.164
Mof_H 	H 	0.8882	0.4909	0.3213	0.042
Mof_C 	C 	0.8941	0.1559	0.6029	-0.28
Mof_H 	H 	0.8796	0.1842	0.5371	0.066
Mof_H 	H 	0.7236	0.2153	0.704	0.068
Mof_H 	H 	0.9292	0.3047	0.2942	0.062
Mof_H 	H 	0.9331	0.5612	0.2929	0.081
Mof_H 	H 	0.9107	0.1533	0.5848	0.124
Mof_Zn	Zn	0.39481	0.69775	0.80495	1.209
Mof_O 	O 	0.40567	0.65803	0.83535	-0.507
Mof_O 	O 	0.34177	0.59293	0.83404	-0.535
Mof_O 	O 	0.43687	0.71083	0.76584	-0.517
Mof_C 	C 	0.38017	0.61733	0.84323	0.43
Mof_C 	C 	0.42847	0.70173	0.73303	0.441
Mof_O 	O 	0.39057	0.68563	0.71902	-0.525
Mof_C 	C 	0.40307	0.60073	0.86833	-0.183
Mof_C 	C 	0.46487	0.71143	0.70893	-0.273
Mof_C 	C 	0.37807	0.55693	0.88033	0.102
Mof_C 	C 	0.44587	0.62603	0.87943	0.129
Mof_C 	C 	0.50737	0.72533	0.72073	0.205
Mof_C 	C 	0.45947	0.70793	0.67453	0.21
Mof_H 	H 	0.34857	0.53943	0.87323	0.004
Mof_C 	C 	0.39747	0.53923	0.90353	-0.209
Mof_C 	C 	0.46247	0.60713	0.90193	-0.222
Mof_H 	H 	0.46327	0.65533	0.87203	-0.004
Mof_H 	H 	0.51287	0.72573	0.74483	-0.034
Mof_C 	C 	0.54207	0.73883	0.69713	-0.315
Mof_C 	C 	0.49467	0.71953	0.65123	-0.293
Mof_H 	H 	0.43107	0.69723	0.66533	-0.022
Mof_H 	H 	0.38087	0.50983	0.91103	0.095
Mof_C 	C 	0.43957	0.56453	0.91453	0.172
Mof_H 	H 	0.49177	0.62473	0.90933	0.099
Mof_H 	H 	0.57067	0.75063	0.70613	0.134
Mof_C 	C 	0.53737	0.73613	0.66303	0.254
Mof_H 	H 	0.48907	0.71603	0.62713	0.125
Mof_C 	C 	0.45687	0.54433	0.94073	-0.178
Mof_C 	C 	0.57587	0.75353	0.64013	-0.197
Mof_C 	C 	0.48617	0.53133	0.92803	0.091
Mof_C 	C 	0.44357	0.54013	0.97513	0.128
Mof_C 	C 	0.59247	0.72773	0.62763	0.107
Mof_C 	C 	0.59257	0.79743	0.62923	0.077
Mof_N 	N 	0.50717	0.51353	0.94853	-0.308
Mof_C 	C 	0.50247	0.53583	0.89103	-0.072
Mof_N 	N 	0.45617	0.52293	0.00113	-0.306
Mof_C 	C 	0.41487	0.55383	0.98763	-0.086
Mof_C 	C 	0.57147	0.67883	0.63653	-0.08
Mof_N 	N 	0.62707	0.73863	0.60543	-0.297
Mof_N 	N 	0.63017	0.82333	0.60683	-0.304
Mof_C 	C 	0.57827	0.83063	0.63933	-0.042
Mof_C 	C 	0.53447	0.50863	0.92683	0.14
Mof_C 	C 	0.53157	0.52023	0.89003	-0.12
Mof_H 	H 	0.49427	0.54723	0.87213	0.046
Mof_C 	C 	0.43517	0.52553	0.03233	0.148
Mof_H 	H 	0.40217	0.56733	0.97463	0.067
Mof_C 	C 	0.40887	0.54403	0.02243	-0.121
Mof_C 	C 	0.59807	0.66553	0.62363	-0.1
Mof_H 	H 	0.54497	0.66163	0.64863	0.055
Mof_C 	C 	0.63277	0.70283	0.60123	0.127
Mof_C 	C 	0.63267	0.86353	0.60373	0.17
Mof_C 	C 	0.60237	0.86923	0.62403	-0.152
Mof_H 	H 	0.55487	0.82423	0.65463	0.044
Mof_C 	C 	0.56077	0.48923	0.93623	-0.276
Mof_H 	H 	0.54627	0.51753	0.87043	0.065
Mof_H 	H 	0.39027	0.54863	0.03733	0.071
Mof_H 	H 	0.59587	0.63803	0.62753	0.056
Mof_H 	H 	0.59977	0.89453	0.62623	0.076
Mof_H 	H 	0.57737	0.48663	0.91813	0.122
Mof_Zn	Zn	0.06147	0.03109	0.13829	1.206
Mof_O 	O 	0.07233	0.99137	0.16869	-0.501
Mof_O 	O 	0.00843	0.92627	0.16738	-0.54
Mof_O 	O 	0.10353	0.04417	0.09918	-0.52
Mof_C 	C 	0.04683	0.95067	0.17657	0.431
Mof_C 	C 	0.09513	0.03507	0.06637	0.438
Mof_O 	O 	0.05723	0.01897	0.05236	-0.532
Mof_C 	C 	0.06973	0.93407	0.20167	-0.183
Mof_C 	C 	0.13153	0.04477	0.04227	-0.267
Mof_C 	C 	0.04473	0.89027	0.21367	0.101
Mof_C 	C 	0.11253	0.95937	0.21277	0.13
Mof_C 	C 	0.17403	0.05867	0.05407	0.203
Mof_C 	C 	0.12613	0.04127	0.00787	0.187
Mof_H 	H 	0.01523	0.87277	0.20657	-0
Mof_C 	C 	0.06413	0.87257	0.23687	-0.21
Mof_C 	C 	0.12913	0.94047	0.23527	-0.221
Mof_H 	H 	0.12993	0.98867	0.20537	-0.001
Mof_H 	H 	0.17953	0.05907	0.07817	-0.036
Mof_C 	C 	0.20873	0.07217	0.03047	-0.324
Mof_C 	C 	0.16133	0.05287	0.98457	-0.282
Mof_H 	H 	0.09773	0.03057	0.99867	-0.013
Mof_H 	H 	0.04753	0.84317	0.24437	0.093
Mof_C 	C 	0.10623	0.89787	0.24787	0.173
Mof_H 	H 	0.15843	0.95807	0.24267	0.103
Mof_H 	H 	0.23733	0.08397	0.03947	0.135
Mof_C 	C 	0.20403	0.06947	0.99637	0.259
Mof_H 	H 	0.15573	0.04937	0.96047	0.12
Mof_C 	C 	0.12353	0.87767	0.27407	-0.178
Mof_C 	C 	0.24253	0.08687	0.97347	-0.208
Mof_C 	C 	0.15283	0.86467	0.26137	0.09
Mof_C 	C 	0.11023	0.87347	0.30847	0.127
Mof_C 	C 	0.25913	0.06107	0.96097	0.129
Mof_C 	C 	0.25923	0.13077	0.96257	0.082
Mof_N 	N 	0.17383	0.84687	0.28187	-0.309
Mof_C 	C 	0.16913	0.86917	0.22437	-0.071
Mof_N 	N 	0.12283	0.85627	0.33447	-0.303
Mof_C 	C 	0.08153	0.88717	0.32097	-0.097
Mof_C 	C 	0.23813	0.01217	0.96987	-0.159
Mof_N 	N 	0.29373	0.07197	0.93877	-0.295
Mof_N 	N 	0.29683	0.15667	0.94017	-0.305
Mof_C 	C 	0.24493	0.16397	0.97267	-0.045
Mof_C 	C 	0.20113	0.84197	0.26017	0.141
Mof_C 	C 	0.19823	0.85357	0.22337	-0.121
Mof_H 	H 	0.16093	0.88057	0.20547	0.046
Mof_C 	C 	0.10183	0.85887	0.36567	0.144
Mof_H 	H 	0.06883	0.90067	0.30797	0.069
Mof_C 	C 	0.07553	0.87737	0.35577	-0.109
Mof_C 	C 	0.26473	0.99887	0.95697	-0.025
Mof_H 	H 	0.21163	0.99497	0.98197	0.093
Mof_C 	C 	0.29943	0.03617	0.93457	0.094
Mof_C 	C 	0.29933	0.19687	0.93707	0.169
Mof_C 	C 	0.26903	0.20257	0.95737	-0.15
Mof_H 	H 	0.22153	0.15757	0.98797	0.046
Mof_C 	C 	0.22743	0.82257	0.26957	-0.279
Mof_H 	H 	0.21293	0.85087	0.20377	0.065
Mof_H 	H 	0.05693	0.88197	0.37067	0.066
Mof_H 	H 	0.26253	0.97137	0.96087	0.034
Mof_H 	H 	0.26643	0.22787	0.95957	0.075
Mof_H 	H 	0.24403	0.81997	0.25147	0.123
Mof_Zn	Zn	0.63558	0.36372	0.47162	1.209
Mof_O 	O 	0.6753	0.4143	0.50202	-0.507
Mof_O 	O 	0.7404	0.4155	0.50071	-0.535
Mof_O 	O 	0.6225	0.3927	0.43251	-0.517
Mof_C 	C 	0.716	0.4295	0.5099	0.43
Mof_C 	C 	0.6316	0.3934	0.3997	0.441
Mof_O 	O 	0.6477	0.3716	0.38569	-0.525
Mof_C 	C 	0.7326	0.469	0.535	-0.183
Mof_C 	C 	0.6219	0.4201	0.3756	-0.273
Mof_C 	C 	0.7764	0.4878	0.547	0.102
Mof_C 	C 	0.7073	0.4865	0.5461	0.129
Mof_C 	C 	0.608	0.4487	0.3874	0.205
Mof_C 	C 	0.6254	0.4182	0.3412	0.21
Mof_H 	H 	0.7939	0.4758	0.5399	0.004
Mof_C 	C 	0.7941	0.5249	0.5702	-0.209
Mof_C 	C 	0.7262	0.522	0.5686	-0.222
Mof_H 	H 	0.678	0.4746	0.5387	-0.004
Mof_H 	H 	0.6076	0.4538	0.4115	-0.034
Mof_C 	C 	0.5945	0.4699	0.3638	-0.315
Mof_C 	C 	0.6138	0.4418	0.3179	-0.293
Mof_H 	H 	0.6361	0.4005	0.332	-0.022
Mof_H 	H 	0.8235	0.5377	0.5777	0.096
Mof_C 	C 	0.7688	0.5417	0.5812	0.172
Mof_H 	H 	0.7086	0.5337	0.576	0.099
Mof_H 	H 	0.5827	0.4867	0.3728	0.134
Mof_C 	C 	0.5972	0.4679	0.3297	0.254
Mof_H 	H 	0.6173	0.4397	0.2938	0.125
Mof_C 	C 	0.789	0.5792	0.6074	-0.178
Mof_C 	C 	0.5798	0.489	0.3068	-0.197
Mof_C 	C 	0.802	0.6215	0.5947	0.09
Mof_C 	C 	0.7932	0.5701	0.6418	0.127
Mof_C 	C 	0.6056	0.5314	0.2943	0.107
Mof_C 	C 	0.5359	0.4618	0.2959	0.077
Mof_N 	N 	0.8198	0.6603	0.6152	-0.309
Mof_C 	C 	0.7975	0.6333	0.5577	-0.071
Mof_N 	N 	0.8104	0.5999	0.6678	-0.303
Mof_C 	C 	0.7795	0.5277	0.6543	-0.096
Mof_C 	C 	0.6545	0.5593	0.3032	-0.08
Mof_N 	N 	0.5947	0.5551	0.2721	-0.297
Mof_N 	N 	0.51	0.4735	0.2735	-0.304
Mof_C 	C 	0.5027	0.4143	0.306	-0.043
Mof_C 	C 	0.8247	0.6925	0.5935	0.141
Mof_C 	C 	0.8131	0.678	0.5567	-0.121
Mof_H 	H 	0.7861	0.6137	0.5388	0.046
Mof_C 	C 	0.8078	0.5763	0.699	0.145
Mof_H 	H 	0.766	0.5015	0.6413	0.07
Mof_C 	C 	0.7893	0.5315	0.6891	-0.109
Mof_C 	C 	0.6678	0.5992	0.2903	-0.1
Mof_H 	H 	0.6717	0.55	0.3153	0.055
Mof_C 	C 	0.6305	0.5966	0.2679	0.127
Mof_C 	C 	0.4698	0.4358	0.2704	0.169
Mof_C 	C 	0.4641	0.3998	0.2907	-0.152
Mof_H 	H 	0.5091	0.3973	0.3213	0.044
Mof_C 	C 	0.8441	0.7382	0.6029	-0.279
Mof_H 	H 	0.8158	0.6954	0.5371	0.065
Mof_H 	H 	0.7847	0.5083	0.704	0.068
Mof_H 	H 	0.6953	0.6245	0.2942	0.056
Mof_H 	H 	0.4388	0.3719	0.2929	0.075
Mof_H 	H 	0.8467	0.7574	0.5848	0.123
Mof_Zn	Zn	0.30225	0.69705	0.80495	1.209
Mof_O 	O 	0.34197	0.74763	0.83535	-0.507
Mof_O 	O 	0.40707	0.74883	0.83404	-0.535
Mof_O 	O 	0.28917	0.72603	0.76584	-0.517
Mof_C 	C 	0.38267	0.76283	0.84323	0.43
Mof_C 	C 	0.29827	0.72673	0.73303	0.441
Mof_O 	O 	0.31437	0.70493	0.71902	-0.525
Mof_C 	C 	0.39927	0.80233	0.86833	-0.182
Mof_C 	C 	0.28857	0.75343	0.70893	-0.273
Mof_C 	C 	0.44307	0.82113	0.88033	0.101
Mof_C 	C 	0.37397	0.81983	0.87943	0.129
Mof_C 	C 	0.27467	0.78203	0.72073	0.205
Mof_C 	C 	0.29207	0.75153	0.67453	0.21
Mof_H 	H 	0.46057	0.80913	0.87323	0.004
Mof_C 	C 	0.46077	0.85823	0.90353	-0.208
Mof_C 	C 	0.39287	0.85533	0.90193	-0.22
Mof_H 	H 	0.34467	0.80793	0.87203	-0.004
Mof_H 	H 	0.27427	0.78713	0.74483	-0.034
Mof_C 	C 	0.26117	0.80323	0.69713	-0.315
Mof_C 	C 	0.28047	0.77513	0.65123	-0.293
Mof_H 	H 	0.30277	0.73383	0.66533	-0.022
Mof_H 	H 	0.49017	0.87103	0.91103	0.096
Mof_C 	C 	0.43547	0.87503	0.91453	0.171
Mof_H 	H 	0.37527	0.86703	0.90933	0.1
Mof_H 	H 	0.24937	0.82003	0.70613	0.134
Mof_C 	C 	0.26387	0.80123	0.66303	0.254
Mof_H 	H 	0.28397	0.77303	0.62713	0.125
Mof_C 	C 	0.45567	0.91253	0.94073	-0.174
Mof_C 	C 	0.24647	0.82233	0.64013	-0.197
Mof_C 	C 	0.46867	0.95483	0.92803	0.087
Mof_C 	C 	0.45987	0.90343	0.97513	0.127
Mof_C 	C 	0.27227	0.86473	0.62763	0.107
Mof_C 	C 	0.20257	0.79513	0.62923	0.077
Mof_N 	N 	0.48647	0.99363	0.94853	-0.298
Mof_C 	C 	0.46417	0.96663	0.89103	-0.047
Mof_N 	N 	0.47707	0.93323	0.00113	-0.304
Mof_C 	C 	0.44617	0.86103	0.98763	-0.084
Mof_C 	C 	0.32117	0.89263	0.63653	-0.077
Mof_N 	N 	0.26137	0.88843	0.60543	-0.298
Mof_N 	N 	0.17667	0.80683	0.60683	-0.304
Mof_C 	C 	0.16937	0.74763	0.63933	-0.043
Mof_C 	C 	0.49137	0.02583	0.92683	0.134
Mof_C 	C 	0.47977	0.01133	0.89003	-0.142
Mof_H 	H 	0.45277	0.94703	0.87213	0.04
Mof_C 	C 	0.47447	0.90963	0.03233	0.151
Mof_H 	H 	0.43267	0.83483	0.97463	0.066
Mof_C 	C 	0.45597	0.86483	0.02243	-0.122
Mof_C 	C 	0.33447	0.93253	0.62363	-0.105
Mof_H 	H 	0.33837	0.88333	0.64863	0.054
Mof_C 	C 	0.29717	0.92993	0.60123	0.137
Mof_C 	C 	0.13647	0.76913	0.60373	0.168
Mof_C 	C 	0.13077	0.73313	0.62403	-0.151
Mof_H 	H 	0.17577	0.73063	0.65463	0.044
Mof_C 	C 	0.51077	0.07153	0.93623	-0.274
Mof_H 	H 	0.48247	0.02873	0.87043	0.071
Mof_H 	H 	0.45137	0.84163	0.03733	0.072
Mof_H 	H 	0.36197	0.95783	0.62753	0.06
Mof_H 	H 	0.10547	0.70523	0.62623	0.074
Mof_H 	H 	0.51337	0.09073	0.91813	0.121
Mof_Zn	Zn	0.96891	0.03039	0.13829	1.21
Mof_O 	O 	0.00863	0.08097	0.16869	-0.515
Mof_O 	O 	0.07373	0.08217	0.16738	-0.539
Mof_O 	O 	0.95583	0.05937	0.09918	-0.514
Mof_C 	C 	0.04933	0.09617	0.17657	0.431
Mof_C 	C 	0.96493	0.06007	0.06637	0.433
Mof_O 	O 	0.98103	0.03827	0.05236	-0.521
Mof_C 	C 	0.06593	0.13567	0.20167	-0.186
Mof_C 	C 	0.95523	0.08677	0.04227	-0.253
Mof_C 	C 	0.10973	0.15447	0.21367	0.102
Mof_C 	C 	0.04063	0.15317	0.21277	0.129
Mof_C 	C 	0.94133	0.11537	0.05407	0.191
Mof_C 	C 	0.95873	0.08487	0.00787	0.175
Mof_H 	H 	0.12723	0.14247	0.20657	0.003
Mof_C 	C 	0.12743	0.19157	0.23687	-0.21
Mof_C 	C 	0.05953	0.18867	0.23527	-0.224
Mof_H 	H 	0.01133	0.14127	0.20537	-0.009
Mof_H 	H 	0.94093	0.12047	0.07817	-0.028
Mof_C 	C 	0.92783	0.13657	0.03047	-0.304
Mof_C 	C 	0.94713	0.10847	0.98457	-0.264
Mof_H 	H 	0.96943	0.06717	0.99867	-0.006
Mof_H 	H 	0.15683	0.20437	0.24437	0.096
Mof_C 	C 	0.10213	0.20837	0.24787	0.172
Mof_H 	H 	0.04193	0.20037	0.24267	0.097
Mof_H 	H 	0.91603	0.15337	0.03947	0.13
Mof_C 	C 	0.93053	0.13457	0.99637	0.241
Mof_H 	H 	0.95063	0.10637	0.96047	0.117
Mof_C 	C 	0.12233	0.24587	0.27407	-0.178
Mof_C 	C 	0.91313	0.15567	0.97347	-0.182
Mof_C 	C 	0.13533	0.28817	0.26137	0.09
Mof_C 	C 	0.12653	0.23677	0.30847	0.126
Mof_C 	C 	0.93893	0.19807	0.96097	0.086
Mof_C 	C 	0.86923	0.12847	0.96257	0.073
Mof_N 	N 	0.15313	0.32697	0.28187	-0.309
Mof_C 	C 	0.13083	0.29997	0.22437	-0.072
Mof_N 	N 	0.14373	0.26657	0.33447	-0.303
Mof_C 	C 	0.11283	0.19437	0.32097	-0.096
Mof_C 	C 	0.98783	0.22597	0.96987	-0.001
Mof_N 	N 	0.92803	0.22177	0.93877	-0.297
Mof_N 	N 	0.84333	0.14017	0.94017	-0.303
Mof_C 	C 	0.83603	0.08097	0.97267	-0.041
Mof_C 	C 	0.15803	0.35917	0.26017	0.141
Mof_C 	C 	0.14643	0.34467	0.22337	-0.121
Mof_H 	H 	0.11943	0.28037	0.20547	0.045
Mof_C 	C 	0.14113	0.24297	0.36567	0.145
Mof_H 	H 	0.09933	0.16817	0.30797	0.068
Mof_C 	C 	0.12263	0.19817	0.35577	-0.11
Mof_C 	C 	0.00113	0.26587	0.95697	-0.174
Mof_H 	H 	0.00503	0.21667	0.98197	0.02
Mof_C 	C 	0.96383	0.26327	0.93457	0.16
Mof_C 	C 	0.80313	0.10247	0.93707	0.168
Mof_C 	C 	0.79743	0.06647	0.95737	-0.152
Mof_H 	H 	0.84243	0.06397	0.98797	0.044
Mof_C 	C 	0.17743	0.40487	0.26957	-0.279
Mof_H 	H 	0.14913	0.36207	0.20377	0.065
Mof_H 	H 	0.11803	0.17497	0.37067	0.068
Mof_H 	H 	0.02863	0.29117	0.96087	0.08
Mof_H 	H 	0.77213	0.03857	0.95957	0.073
Mof_H 	H 	0.18003	0.42407	0.25147	0.123
Mof_Zn	Zn	0.63628	0.27186	0.47162	1.209
Mof_O 	O 	0.5857	0.261	0.50202	-0.507
Mof_O 	O 	0.5845	0.3249	0.50071	-0.535
Mof_O 	O 	0.6073	0.2298	0.43251	-0.517
Mof_C 	C 	0.5705	0.2865	0.5099	0.43
Mof_C 	C 	0.6066	0.2382	0.3997	0.441
Mof_O 	O 	0.6284	0.2761	0.38569	-0.525
Mof_C 	C 	0.531	0.2636	0.535	-0.182
Mof_C 	C 	0.5799	0.2018	0.3756	-0.272
Mof_C 	C 	0.5122	0.2886	0.547	0.101
Mof_C 	C 	0.5135	0.2208	0.5461	0.128
Mof_C 	C 	0.5513	0.1593	0.3874	0.204
Mof_C 	C 	0.5818	0.2072	0.3412	0.209
Mof_H 	H 	0.5242	0.3181	0.5399	0.004
Mof_C 	C 	0.4751	0.2692	0.5702	-0.209
Mof_C 	C 	0.478	0.2042	0.5686	-0.221
Mof_H 	H 	0.5254	0.2034	0.5387	-0.004
Mof_H 	H 	0.5462	0.1538	0.4115	-0.034
Mof_C 	C 	0.5301	0.1246	0.3638	-0.314
Mof_C 	C 	0.5582	0.172	0.3179	-0.292
Mof_H 	H 	0.5995	0.2356	0.332	-0.022
Mof_H 	H 	0.4623	0.2858	0.5777	0.095
Mof_C 	C 	0.4583	0.2271	0.5812	0.171
Mof_H 	H 	0.4663	0.1749	0.576	0.098
Mof_H 	H 	0.5133	0.096	0.3728	0.133
Mof_C 	C 	0.5321	0.1293	0.3297	0.253
Mof_H 	H 	0.5603	0.1776	0.2938	0.125
Mof_C 	C 	0.4208	0.2098	0.6074	-0.178
Mof_C 	C 	0.511	0.0908	0.3068	-0.197
Mof_C 	C 	0.3785	0.1805	0.5947	0.089
Mof_C 	C 	0.4299	0.2231	0.6418	0.126
Mof_C 	C 	0.4686	0.0742	0.2943	0.106
Mof_C 	C 	0.5382	0.0741	0.2959	0.075
Mof_N 	N 	0.3397	0.1595	0.6152	-0.309
Mof_C 	C 	0.3667	0.1642	0.5577	-0.072
Mof_N 	N 	0.4001	0.2105	0.6678	-0.303
Mof_C 	C 	0.4723	0.2518	0.6543	-0.096
Mof_C 	C 	0.4407	0.0952	0.3032	-0.078
Mof_N 	N 	0.4449	0.0396	0.2721	-0.3
Mof_N 	N 	0.5265	0.0365	0.2735	-0.307
Mof_C 	C 	0.5857	0.0884	0.306	-0.04
Mof_C 	C 	0.3075	0.1322	0.5935	0.14
Mof_C 	C 	0.322	0.1351	0.5567	-0.121
Mof_H 	H 	0.3863	0.1724	0.5388	0.045
Mof_C 	C 	0.4237	0.2315	0.699	0.145
Mof_H 	H 	0.4985	0.2645	0.6413	0.07
Mof_C 	C 	0.4685	0.2578	0.6891	-0.109
Mof_C 	C 	0.4008	0.0686	0.2903	-0.106
Mof_H 	H 	0.45	0.1217	0.3153	0.054
Mof_C 	C 	0.4034	0.0339	0.2679	0.134
Mof_C 	C 	0.5642	0.034	0.2704	0.177
Mof_C 	C 	0.6002	0.0643	0.2907	-0.159
Mof_H 	H 	0.6027	0.1118	0.3213	0.043
Mof_C 	C 	0.2618	0.1059	0.6029	-0.279
Mof_H 	H 	0.3046	0.1204	0.5371	0.064
Mof_H 	H 	0.4917	0.2764	0.704	0.068
Mof_H 	H 	0.3755	0.0708	0.2942	0.057
Mof_H 	H 	0.6281	0.0669	0.2929	0.076
Mof_H 	H 	0.2426	0.0893	0.5848	0.122
Mof_Zn	Zn	0.30295	0.60519	0.80495	1.209
Mof_O 	O 	0.25237	0.59433	0.83535	-0.507
Mof_O 	O 	0.25117	0.65823	0.83404	-0.535
Mof_O 	O 	0.27397	0.56313	0.76584	-0.517
Mof_C 	C 	0.23717	0.61983	0.84323	0.43
Mof_C 	C 	0.27327	0.57153	0.73303	0.441
Mof_O 	O 	0.29507	0.60943	0.71902	-0.525
Mof_C 	C 	0.19767	0.59693	0.86833	-0.183
Mof_C 	C 	0.24657	0.53513	0.70893	-0.273
Mof_C 	C 	0.17887	0.62193	0.88033	0.102
Mof_C 	C 	0.18017	0.55413	0.87943	0.129
Mof_C 	C 	0.21797	0.49263	0.72073	0.205
Mof_C 	C 	0.24847	0.54053	0.67453	0.21
Mof_H 	H 	0.19087	0.65143	0.87323	0.003
Mof_C 	C 	0.14177	0.60253	0.90353	-0.21
Mof_C 	C 	0.14467	0.53753	0.90193	-0.223
Mof_H 	H 	0.19207	0.53673	0.87203	-0.005
Mof_H 	H 	0.21287	0.48713	0.74483	-0.035
Mof_C 	C 	0.19677	0.45793	0.69713	-0.316
Mof_C 	C 	0.22487	0.50533	0.65123	-0.293
Mof_H 	H 	0.26617	0.56893	0.66533	-0.022
Mof_H 	H 	0.12897	0.61913	0.91103	0.095
Mof_C 	C 	0.12497	0.56043	0.91453	0.173
Mof_H 	H 	0.13297	0.50823	0.90933	0.099
Mof_H 	H 	0.17997	0.42933	0.70613	0.133
Mof_C 	C 	0.19877	0.46263	0.66303	0.254
Mof_H 	H 	0.22697	0.51093	0.62713	0.125
Mof_C 	C 	0.08747	0.54313	0.94073	-0.181
Mof_C 	C 	0.17767	0.42413	0.64013	-0.198
Mof_C 	C 	0.04517	0.51383	0.92803	0.095
Mof_C 	C 	0.09657	0.55643	0.97513	0.129
Mof_C 	C 	0.13527	0.40753	0.62763	0.108
Mof_C 	C 	0.20487	0.40743	0.62923	0.077
Mof_N 	N 	0.00637	0.49283	0.94853	-0.316
Mof_C 	C 	0.03337	0.49753	0.89103	-0.097
Mof_N 	N 	0.06677	0.54383	0.00113	-0.308
Mof_C 	C 	0.13897	0.58513	0.98763	-0.088
Mof_C 	C 	0.10737	0.42853	0.63653	-0.083
Mof_N 	N 	0.11157	0.37293	0.60543	-0.295
Mof_N 	N 	0.19317	0.36983	0.60683	-0.304
Mof_C 	C 	0.25237	0.42173	0.63933	-0.043
Mof_C 	C 	0.97417	0.46553	0.92683	0.146
Mof_C 	C 	0.98867	0.46843	0.89003	-0.098
Mof_H 	H 	0.05297	0.50573	0.87213	0.052
Mof_C 	C 	0.09037	0.56483	0.03233	0.146
Mof_H 	H 	0.16517	0.59783	0.97463	0.067
Mof_C 	C 	0.13517	0.59113	0.02243	-0.119
Mof_C 	C 	0.06747	0.40193	0.62363	-0.096
Mof_H 	H 	0.11667	0.45503	0.64863	0.056
Mof_C 	C 	0.07007	0.36723	0.60123	0.118
Mof_C 	C 	0.23087	0.36733	0.60373	0.169
Mof_C 	C 	0.26687	0.39763	0.62403	-0.151
Mof_H 	H 	0.26937	0.44513	0.65463	0.044
Mof_C 	C 	0.92847	0.43923	0.93623	-0.276
Mof_H 	H 	0.97127	0.45373	0.87043	0.059
Mof_H 	H 	0.15837	0.60973	0.03733	0.071
Mof_H 	H 	0.04217	0.40413	0.62753	0.053
Mof_H 	H 	0.29477	0.40023	0.62623	0.075
Mof_H 	H 	0.90927	0.42263	0.91813	0.122
Mof_Zn	Zn	0.96961	0.93853	0.13829	1.215
Mof_O 	O 	0.91903	0.92767	0.16869	-0.502
Mof_O 	O 	0.91783	0.99157	0.16738	-0.525
Mof_O 	O 	0.94063	0.89647	0.09918	-0.511
Mof_C 	C 	0.90383	0.95317	0.17657	0.429
Mof_C 	C 	0.93993	0.90487	0.06637	0.433
Mof_O 	O 	0.96173	0.94277	0.05236	-0.513
Mof_C 	C 	0.86433	0.93027	0.20167	-0.179
Mof_C 	C 	0.91323	0.86847	0.04227	-0.254
Mof_C 	C 	0.84553	0.95527	0.21367	0.101
Mof_C 	C 	0.84683	0.88747	0.21277	0.127
Mof_C 	C 	0.88463	0.82597	0.05407	0.194
Mof_C 	C 	0.91513	0.87387	0.00787	0.178
Mof_H 	H 	0.85753	0.98477	0.20657	0.008
Mof_C 	C 	0.80843	0.93587	0.23687	-0.207
Mof_C 	C 	0.81133	0.87087	0.23527	-0.22
Mof_H 	H 	0.85873	0.87007	0.20537	-0.003
Mof_H 	H 	0.87953	0.82047	0.07817	-0.03
Mof_C 	C 	0.86343	0.79127	0.03047	-0.31
Mof_C 	C 	0.89153	0.83867	0.98457	-0.269
Mof_H 	H 	0.93283	0.90227	0.99867	-0.005
Mof_H 	H 	0.79563	0.95247	0.24437	0.097
Mof_C 	C 	0.79163	0.89377	0.24787	0.171
Mof_H 	H 	0.79963	0.84157	0.24267	0.099
Mof_H 	H 	0.84663	0.76267	0.03947	0.131
Mof_C 	C 	0.86543	0.79597	0.99637	0.247
Mof_H 	H 	0.89363	0.84427	0.96047	0.119
Mof_C 	C 	0.75413	0.87647	0.27407	-0.177
Mof_C 	C 	0.84433	0.75747	0.97347	-0.193
Mof_C 	C 	0.71183	0.84717	0.26137	0.09
Mof_C 	C 	0.76323	0.88977	0.30847	0.127
Mof_C 	C 	0.80193	0.74087	0.96097	0.107
Mof_C 	C 	0.87153	0.74077	0.96257	0.077
Mof_N 	N 	0.67303	0.82617	0.28187	-0.309
Mof_C 	C 	0.70003	0.83087	0.22437	-0.071
Mof_N 	N 	0.73343	0.87717	0.33447	-0.303
Mof_C 	C 	0.80563	0.91847	0.32097	-0.095
Mof_C 	C 	0.77403	0.76187	0.96987	-0.079
Mof_N 	N 	0.77823	0.70627	0.93877	-0.296
Mof_N 	N 	0.85983	0.70317	0.94017	-0.304
Mof_C 	C 	0.91903	0.75507	0.97267	-0.04
Mof_C 	C 	0.64083	0.79887	0.26017	0.141
Mof_C 	C 	0.65533	0.80177	0.22337	-0.121
Mof_H 	H 	0.71963	0.83907	0.20547	0.046
Mof_C 	C 	0.75703	0.89817	0.36567	0.146
Mof_H 	H 	0.83183	0.93117	0.30797	0.072
Mof_C 	C 	0.80183	0.92447	0.35577	-0.108
Mof_C 	C 	0.73413	0.73527	0.95697	-0.1
Mof_H 	H 	0.78333	0.78837	0.98197	0.056
Mof_C 	C 	0.73673	0.70057	0.93457	0.128
Mof_C 	C 	0.89753	0.70067	0.93707	0.172
Mof_C 	C 	0.93353	0.73097	0.95737	-0.153
Mof_H 	H 	0.93603	0.77847	0.98797	0.045
Mof_C 	C 	0.59513	0.77257	0.26957	-0.279
Mof_H 	H 	0.63793	0.78707	0.20377	0.065
Mof_H 	H 	0.82503	0.94307	0.37067	0.071
Mof_H 	H 	0.70883	0.73747	0.96087	0.057
Mof_H 	H 	0.96143	0.73357	0.95957	0.079
Mof_H 	H 	0.57593	0.75597	0.25147	0.123
Mof_Zn	Zn	0.36442	0.72814	0.02838	1.207
Mof_O 	O 	0.3247	0.739	0.99798	-0.505
Mof_O 	O 	0.2596	0.6751	0.99929	-0.533
Mof_O 	O 	0.3775	0.7702	0.06749	-0.518
Mof_C 	C 	0.284	0.7135	0.9901	0.43
Mof_C 	C 	0.3684	0.7618	0.1003	0.441
Mof_O 	O 	0.3523	0.7239	0.11431	-0.525
Mof_C 	C 	0.2674	0.7364	0.965	-0.181
Mof_C 	C 	0.3781	0.7982	0.1244	-0.273
Mof_C 	C 	0.2236	0.7114	0.953	0.101
Mof_C 	C 	0.2927	0.7792	0.9539	0.129
Mof_C 	C 	0.392	0.8407	0.1126	0.205
Mof_C 	C 	0.3746	0.7928	0.1588	0.21
Mof_H 	H 	0.2061	0.6819	0.9601	0.004
Mof_C 	C 	0.2059	0.7308	0.9298	-0.208
Mof_C 	C 	0.2738	0.7958	0.9314	-0.221
Mof_H 	H 	0.322	0.7966	0.9613	-0.003
Mof_H 	H 	0.3924	0.8462	0.0885	-0.034
Mof_C 	C 	0.4055	0.8754	0.1362	-0.315
Mof_C 	C 	0.3862	0.828	0.1821	-0.292
Mof_H 	H 	0.3639	0.7644	0.168	-0.022
Mof_H 	H 	0.1765	0.7142	0.9223	0.095
Mof_C 	C 	0.2312	0.7729	0.9188	0.172
Mof_H 	H 	0.2914	0.8251	0.924	0.1
Mof_H 	H 	0.4173	0.904	0.1272	0.134
Mof_C 	C 	0.4028	0.8707	0.1703	0.253
Mof_H 	H 	0.3827	0.8224	0.2062	0.125
Mof_C 	C 	0.211	0.7902	0.8926	-0.177
Mof_C 	C 	0.4202	0.9092	0.1932	-0.195
Mof_C 	C 	0.198	0.8195	0.9053	0.09
Mof_C 	C 	0.2068	0.7769	0.8582	0.127
Mof_C 	C 	0.3944	0.9258	0.2057	0.107
Mof_C 	C 	0.4641	0.9259	0.2041	0.076
Mof_N 	N 	0.1802	0.8405	0.8848	-0.309
Mof_C 	C 	0.2025	0.8358	0.9423	-0.071
Mof_N 	N 	0.1896	0.7895	0.8322	-0.303
Mof_C 	C 	0.2205	0.7482	0.8457	-0.096
Mof_C 	C 	0.3455	0.9048	0.1968	-0.075
Mof_N 	N 	0.4053	0.9604	0.2279	-0.296
Mof_N 	N 	0.49	0.9635	0.2265	-0.303
Mof_C 	C 	0.4973	0.9116	0.194	-0.036
Mof_C 	C 	0.1753	0.8678	0.9065	0.142
Mof_C 	C 	0.1869	0.8649	0.9433	-0.121
Mof_H 	H 	0.2139	0.8276	0.9612	0.047
Mof_C 	C 	0.1922	0.7685	0.801	0.145
Mof_H 	H 	0.234	0.7355	0.8587	0.07
Mof_C 	C 	0.2107	0.7422	0.8109	-0.109
Mof_C 	C 	0.3322	0.9314	0.2097	-0.109
Mof_H 	H 	0.3283	0.8783	0.1847	0.053
Mof_C 	C 	0.3695	0.9661	0.2321	0.148
Mof_C 	C 	0.5302	0.966	0.2296	0.191
Mof_C 	C 	0.5359	0.9357	0.2093	-0.164
Mof_H 	H 	0.4909	0.8882	0.1787	0.042
Mof_C 	C 	0.1559	0.8941	0.8971	-0.28
Mof_H 	H 	0.1842	0.8796	0.9629	0.067
Mof_H 	H 	0.2153	0.7236	0.796	0.068
Mof_H 	H 	0.3047	0.9292	0.2058	0.062
Mof_H 	H 	0.5612	0.9331	0.2071	0.081
Mof_H 	H 	0.1533	0.9107	0.9152	0.124
Mof_Zn	Zn	0.03109	0.06147	0.36171	1.206
Mof_O 	O 	0.99137	0.07233	0.33131	-0.501
Mof_O 	O 	0.92627	0.00843	0.33262	-0.54
Mof_O 	O 	0.04417	0.10353	0.40082	-0.521
Mof_C 	C 	0.95067	0.04683	0.32343	0.431
Mof_C 	C 	0.03507	0.09513	0.43363	0.444
Mof_O 	O 	0.01897	0.05723	0.44764	-0.532
Mof_C 	C 	0.93407	0.06973	0.29833	-0.183
Mof_C 	C 	0.04477	0.13153	0.45773	-0.282
Mof_C 	C 	0.89027	0.04473	0.28633	0.101
Mof_C 	C 	0.95937	0.11253	0.28723	0.13
Mof_C 	C 	0.05867	0.17403	0.44593	0.212
Mof_C 	C 	0.04127	0.12613	0.49213	0.218
Mof_H 	H 	0.87277	0.01523	0.29343	-0
Mof_C 	C 	0.87257	0.06413	0.26313	-0.21
Mof_C 	C 	0.94047	0.12913	0.26473	-0.221
Mof_H 	H 	0.98867	0.12993	0.29463	-0
Mof_H 	H 	0.05907	0.17953	0.42183	-0.039
Mof_C 	C 	0.07217	0.20873	0.46953	-0.327
Mof_C 	C 	0.05287	0.16133	0.51543	-0.304
Mof_H 	H 	0.03057	0.09773	0.50133	-0.028
Mof_H 	H 	0.84317	0.04753	0.25563	0.093
Mof_C 	C 	0.89787	0.10623	0.25213	0.173
Mof_H 	H 	0.95807	0.15843	0.25733	0.103
Mof_H 	H 	0.08397	0.23733	0.46053	0.137
Mof_C 	C 	0.06947	0.20403	0.50363	0.264
Mof_H 	H 	0.04937	0.15573	0.53953	0.127
Mof_C 	C 	0.87767	0.12353	0.22593	-0.178
Mof_C 	C 	0.08687	0.24253	0.52653	-0.211
Mof_C 	C 	0.86467	0.15283	0.23863	0.09
Mof_C 	C 	0.87347	0.11023	0.19153	0.127
Mof_C 	C 	0.06107	0.25913	0.53903	0.129
Mof_C 	C 	0.13077	0.25923	0.53743	0.082
Mof_N 	N 	0.84687	0.17383	0.21813	-0.309
Mof_C 	C 	0.86917	0.16913	0.27563	-0.071
Mof_N 	N 	0.85627	0.12283	0.16553	-0.303
Mof_C 	C 	0.88717	0.08153	0.17903	-0.097
Mof_C 	C 	0.01217	0.23813	0.53013	-0.16
Mof_N 	N 	0.07197	0.29373	0.56123	-0.296
Mof_N 	N 	0.15667	0.29683	0.55983	-0.305
Mof_C 	C 	0.16397	0.24493	0.52733	-0.046
Mof_C 	C 	0.84197	0.20113	0.23983	0.141
Mof_C 	C 	0.85357	0.19823	0.27663	-0.121
Mof_H 	H 	0.88057	0.16093	0.29453	0.046
Mof_C 	C 	0.85887	0.10183	0.13433	0.144
Mof_H 	H 	0.90067	0.06883	0.19203	0.069
Mof_C 	C 	0.87737	0.07553	0.14423	-0.109
Mof_C 	C 	0.99887	0.26473	0.54303	-0.025
Mof_H 	H 	0.99497	0.21163	0.51803	0.092
Mof_C 	C 	0.03617	0.29943	0.56543	0.094
Mof_C 	C 	0.19687	0.29933	0.56293	0.168
Mof_C 	C 	0.20257	0.26903	0.54263	-0.15
Mof_H 	H 	0.15757	0.22153	0.51203	0.045
Mof_C 	C 	0.82257	0.22743	0.23043	-0.279
Mof_H 	H 	0.85087	0.21293	0.29623	0.065
Mof_H 	H 	0.88197	0.05693	0.12933	0.066
Mof_H 	H 	0.97137	0.26253	0.53913	0.033
Mof_H 	H 	0.22787	0.26643	0.54043	0.074
Mof_H 	H 	0.81997	0.24403	0.24853	0.123
Mof_Zn	Zn	0.69775	0.39481	0.69505	1.209
Mof_O 	O 	0.65803	0.40567	0.66465	-0.507
Mof_O 	O 	0.59293	0.34177	0.66596	-0.535
Mof_O 	O 	0.71083	0.43687	0.73416	-0.517
Mof_C 	C 	0.61733	0.38017	0.65677	0.43
Mof_C 	C 	0.70173	0.42847	0.76697	0.441
Mof_O 	O 	0.68563	0.39057	0.78098	-0.525
Mof_C 	C 	0.60073	0.40307	0.63167	-0.183
Mof_C 	C 	0.71143	0.46487	0.79107	-0.273
Mof_C 	C 	0.55693	0.37807	0.61967	0.101
Mof_C 	C 	0.62603	0.44587	0.62057	0.129
Mof_C 	C 	0.72533	0.50737	0.77927	0.205
Mof_C 	C 	0.70793	0.45947	0.82547	0.21
Mof_H 	H 	0.53943	0.34857	0.62677	0.004
Mof_C 	C 	0.53923	0.39747	0.59647	-0.209
Mof_C 	C 	0.60713	0.46247	0.59807	-0.221
Mof_H 	H 	0.65533	0.46327	0.62797	-0.004
Mof_H 	H 	0.72573	0.51287	0.75517	-0.034
Mof_C 	C 	0.73883	0.54207	0.80287	-0.316
Mof_C 	C 	0.71953	0.49467	0.84877	-0.293
Mof_H 	H 	0.69723	0.43107	0.83467	-0.022
Mof_H 	H 	0.50983	0.38087	0.58897	0.095
Mof_C 	C 	0.56453	0.43957	0.58547	0.172
Mof_H 	H 	0.62473	0.49177	0.59067	0.099
Mof_H 	H 	0.75063	0.57067	0.79387	0.134
Mof_C 	C 	0.73613	0.53737	0.83697	0.254
Mof_H 	H 	0.71603	0.48907	0.87287	0.126
Mof_C 	C 	0.54433	0.45687	0.55927	-0.178
Mof_C 	C 	0.75353	0.57587	0.85987	-0.197
Mof_C 	C 	0.53133	0.48617	0.57197	0.09
Mof_C 	C 	0.54013	0.44357	0.52487	0.127
Mof_C 	C 	0.72773	0.59247	0.87237	0.108
Mof_C 	C 	0.79743	0.59257	0.87077	0.077
Mof_N 	N 	0.51353	0.50717	0.55147	-0.309
Mof_C 	C 	0.53583	0.50247	0.60897	-0.072
Mof_N 	N 	0.52293	0.45617	0.49887	-0.303
Mof_C 	C 	0.55383	0.41487	0.51237	-0.096
Mof_C 	C 	0.67883	0.57147	0.86347	-0.08
Mof_N 	N 	0.73863	0.62707	0.89457	-0.296
Mof_N 	N 	0.82333	0.63017	0.89317	-0.304
Mof_C 	C 	0.83063	0.57827	0.86067	-0.042
Mof_C 	C 	0.50863	0.53447	0.57317	0.141
Mof_C 	C 	0.52023	0.53157	0.60997	-0.121
Mof_H 	H 	0.54723	0.49427	0.62787	0.046
Mof_C 	C 	0.52553	0.43517	0.46767	0.145
Mof_H 	H 	0.56733	0.40217	0.52537	0.07
Mof_C 	C 	0.54403	0.40887	0.47757	-0.109
Mof_C 	C 	0.66553	0.59807	0.87637	-0.1
Mof_H 	H 	0.66163	0.54497	0.85137	0.055
Mof_C 	C 	0.70283	0.63277	0.89877	0.127
Mof_C 	C 	0.86353	0.63267	0.89627	0.171
Mof_C 	C 	0.86923	0.60237	0.87597	-0.152
Mof_H 	H 	0.82423	0.55487	0.84537	0.044
Mof_C 	C 	0.48923	0.56077	0.56377	-0.279
Mof_H 	H 	0.51753	0.54627	0.62957	0.065
Mof_H 	H 	0.54863	0.39027	0.46267	0.068
Mof_H 	H 	0.63803	0.59587	0.87247	0.056
Mof_H 	H 	0.89453	0.59977	0.87377	0.076
Mof_H 	H 	0.48663	0.57737	0.58187	0.123
Mof_Zn	Zn	0.36372	0.63558	0.02838	1.207
Mof_O 	O 	0.4143	0.6753	0.99798	-0.505
Mof_O 	O 	0.4155	0.7404	0.99929	-0.533
Mof_O 	O 	0.3927	0.6225	0.06749	-0.519
Mof_C 	C 	0.4295	0.716	0.9901	0.43
Mof_C 	C 	0.3934	0.6316	0.1003	0.441
Mof_O 	O 	0.3716	0.6477	0.11431	-0.525
Mof_C 	C 	0.469	0.7326	0.965	-0.182
Mof_C 	C 	0.4201	0.6219	0.1244	-0.273
Mof_C 	C 	0.4878	0.7764	0.953	0.102
Mof_C 	C 	0.4865	0.7073	0.9539	0.129
Mof_C 	C 	0.4487	0.608	0.1126	0.205
Mof_C 	C 	0.4182	0.6254	0.1588	0.21
Mof_H 	H 	0.4758	0.7939	0.9601	0.004
Mof_C 	C 	0.5249	0.7941	0.9298	-0.209
Mof_C 	C 	0.522	0.7262	0.9314	-0.221
Mof_H 	H 	0.4746	0.678	0.9613	-0.003
Mof_H 	H 	0.4538	0.6076	0.0885	-0.035
Mof_C 	C 	0.4699	0.5945	0.1362	-0.316
Mof_C 	C 	0.4418	0.6138	0.1821	-0.293
Mof_H 	H 	0.4005	0.6361	0.168	-0.022
Mof_H 	H 	0.5377	0.8235	0.9223	0.096
Mof_C 	C 	0.5417	0.7688	0.9188	0.172
Mof_H 	H 	0.5337	0.7086	0.924	0.099
Mof_H 	H 	0.4867	0.5827	0.1272	0.134
Mof_C 	C 	0.4679	0.5972	0.1703	0.254
Mof_H 	H 	0.4397	0.6173	0.2062	0.125
Mof_C 	C 	0.5792	0.789	0.8926	-0.177
Mof_C 	C 	0.489	0.5798	0.1932	-0.198
Mof_C 	C 	0.6215	0.802	0.9053	0.09
Mof_C 	C 	0.5701	0.7932	0.8582	0.127
Mof_C 	C 	0.5314	0.6056	0.2057	0.108
Mof_C 	C 	0.4618	0.5359	0.2041	0.077
Mof_N 	N 	0.6603	0.8198	0.8848	-0.309
Mof_C 	C 	0.6333	0.7975	0.9423	-0.071
Mof_N 	N 	0.5999	0.8104	0.8322	-0.303
Mof_C 	C 	0.5277	0.7795	0.8457	-0.096
Mof_C 	C 	0.5593	0.6545	0.1968	-0.08
Mof_N 	N 	0.5551	0.5947	0.2279	-0.297
Mof_N 	N 	0.4735	0.51	0.2265	-0.304
Mof_C 	C 	0.4143	0.5027	0.194	-0.043
Mof_C 	C 	0.6925	0.8247	0.9065	0.142
Mof_C 	C 	0.678	0.8131	0.9433	-0.121
Mof_H 	H 	0.6137	0.7861	0.9612	0.046
Mof_C 	C 	0.5763	0.8078	0.801	0.145
Mof_H 	H 	0.5015	0.766	0.8587	0.07
Mof_C 	C 	0.5315	0.7893	0.8109	-0.109
Mof_C 	C 	0.5992	0.6678	0.2097	-0.1
Mof_H 	H 	0.55	0.6717	0.1847	0.055
Mof_C 	C 	0.5966	0.6305	0.2321	0.127
Mof_C 	C 	0.4358	0.4698	0.2296	0.169
Mof_C 	C 	0.3998	0.4641	0.2093	-0.152
Mof_H 	H 	0.3973	0.5091	0.1787	0.044
Mof_C 	C 	0.7382	0.8441	0.8971	-0.279
Mof_H 	H 	0.6954	0.8158	0.9629	0.066
Mof_H 	H 	0.5083	0.7847	0.796	0.068
Mof_H 	H 	0.6245	0.6953	0.2058	0.056
Mof_H 	H 	0.3719	0.4388	0.2071	0.075
Mof_H 	H 	0.7574	0.8467	0.9152	0.123
Mof_Zn	Zn	0.03039	0.96891	0.36171	1.21
Mof_O 	O 	0.08097	0.00863	0.33131	-0.515
Mof_O 	O 	0.08217	0.07373	0.33262	-0.539
Mof_O 	O 	0.05937	0.95583	0.40082	-0.515
Mof_C 	C 	0.09617	0.04933	0.32343	0.431
Mof_C 	C 	0.06007	0.96493	0.43363	0.439
Mof_O 	O 	0.03827	0.98103	0.44764	-0.521
Mof_C 	C 	0.13567	0.06593	0.29833	-0.186
Mof_C 	C 	0.08677	0.95523	0.45773	-0.267
Mof_C 	C 	0.15447	0.10973	0.28633	0.102
Mof_C 	C 	0.15317	0.04063	0.28723	0.129
Mof_C 	C 	0.11537	0.94133	0.44593	0.199
Mof_C 	C 	0.08487	0.95873	0.49213	0.204
Mof_H 	H 	0.14247	0.12723	0.29343	0.003
Mof_C 	C 	0.19157	0.12743	0.26313	-0.21
Mof_C 	C 	0.18867	0.05953	0.26473	-0.224
Mof_H 	H 	0.14127	0.01133	0.29463	-0.008
Mof_H 	H 	0.12047	0.94093	0.42183	-0.031
Mof_C 	C 	0.13657	0.92783	0.46953	-0.306
Mof_C 	C 	0.10847	0.94713	0.51543	-0.284
Mof_H 	H 	0.06717	0.96943	0.50133	-0.019
Mof_H 	H 	0.20437	0.15683	0.25563	0.096
Mof_C 	C 	0.20837	0.10213	0.25213	0.172
Mof_H 	H 	0.20037	0.04193	0.25733	0.097
Mof_H 	H 	0.15337	0.91603	0.46053	0.132
Mof_C 	C 	0.13457	0.93053	0.50363	0.246
Mof_H 	H 	0.10637	0.95063	0.53953	0.124
Mof_C 	C 	0.24587	0.12233	0.22593	-0.178
Mof_C 	C 	0.15567	0.91313	0.52653	-0.185
Mof_C 	C 	0.28817	0.13533	0.23863	0.09
Mof_C 	C 	0.23677	0.12653	0.19153	0.126
Mof_C 	C 	0.19807	0.93893	0.53903	0.086
Mof_C 	C 	0.12847	0.86923	0.53743	0.073
Mof_N 	N 	0.32697	0.15313	0.21813	-0.309
Mof_C 	C 	0.29997	0.13083	0.27563	-0.072
Mof_N 	N 	0.26657	0.14373	0.16553	-0.303
Mof_C 	C 	0.19437	0.11283	0.17903	-0.097
Mof_C 	C 	0.22597	0.98783	0.53013	-0.001
Mof_N 	N 	0.22177	0.92803	0.56123	-0.297
Mof_N 	N 	0.14017	0.84333	0.55983	-0.303
Mof_C 	C 	0.08097	0.83603	0.52733	-0.042
Mof_C 	C 	0.35917	0.15803	0.23983	0.141
Mof_C 	C 	0.34467	0.14643	0.27663	-0.121
Mof_H 	H 	0.28037	0.11943	0.29453	0.045
Mof_C 	C 	0.24297	0.14113	0.13433	0.144
Mof_H 	H 	0.16817	0.09933	0.19203	0.068
Mof_C 	C 	0.19817	0.12263	0.14423	-0.11
Mof_C 	C 	0.26587	0.00113	0.54303	-0.175
Mof_H 	H 	0.21667	0.00503	0.51803	0.018
Mof_C 	C 	0.26327	0.96383	0.56543	0.16
Mof_C 	C 	0.10247	0.80313	0.56293	0.168
Mof_C 	C 	0.06647	0.79743	0.54263	-0.152
Mof_H 	H 	0.06397	0.84243	0.51203	0.043
Mof_C 	C 	0.40487	0.17743	0.23043	-0.279
Mof_H 	H 	0.36207	0.14913	0.29623	0.065
Mof_H 	H 	0.17497	0.11803	0.12933	0.068
Mof_H 	H 	0.29117	0.02863	0.53913	0.08
Mof_H 	H 	0.03857	0.77213	0.54043	0.072
Mof_H 	H 	0.42407	0.18003	0.24853	0.123
Mof_Zn	Zn	0.69705	0.30225	0.69505	1.209
Mof_O 	O 	0.74763	0.34197	0.66465	-0.507
Mof_O 	O 	0.74883	0.40707	0.66596	-0.535
Mof_O 	O 	0.72603	0.28917	0.73416	-0.517
Mof_C 	C 	0.76283	0.38267	0.65677	0.43
Mof_C 	C 	0.72673	0.29827	0.76697	0.441
Mof_O 	O 	0.70493	0.31437	0.78098	-0.525
Mof_C 	C 	0.80233	0.39927	0.63167	-0.182
Mof_C 	C 	0.75343	0.28857	0.79107	-0.273
Mof_C 	C 	0.82113	0.44307	0.61967	0.101
Mof_C 	C 	0.81983	0.37397	0.62057	0.129
Mof_C 	C 	0.78203	0.27467	0.77927	0.205
Mof_C 	C 	0.75153	0.29207	0.82547	0.21
Mof_H 	H 	0.80913	0.46057	0.62677	0.004
Mof_C 	C 	0.85823	0.46077	0.59647	-0.208
Mof_C 	C 	0.85533	0.39287	0.59807	-0.22
Mof_H 	H 	0.80793	0.34467	0.62797	-0.004
Mof_H 	H 	0.78713	0.27427	0.75517	-0.034
Mof_C 	C 	0.80323	0.26117	0.80287	-0.316
Mof_C 	C 	0.77513	0.28047	0.84877	-0.293
Mof_H 	H 	0.73383	0.30277	0.83467	-0.022
Mof_H 	H 	0.87103	0.49017	0.58897	0.096
Mof_C 	C 	0.87503	0.43547	0.58547	0.171
Mof_H 	H 	0.86703	0.37527	0.59067	0.1
Mof_H 	H 	0.82003	0.24937	0.79387	0.134
Mof_C 	C 	0.80123	0.26387	0.83697	0.254
Mof_H 	H 	0.77303	0.28397	0.87287	0.126
Mof_C 	C 	0.91253	0.45567	0.55927	-0.174
Mof_C 	C 	0.82233	0.24647	0.85987	-0.197
Mof_C 	C 	0.95483	0.46867	0.57197	0.086
Mof_C 	C 	0.90343	0.45987	0.52487	0.126
Mof_C 	C 	0.86473	0.27227	0.87237	0.107
Mof_C 	C 	0.79513	0.20257	0.87077	0.078
Mof_N 	N 	0.99363	0.48647	0.55147	-0.299
Mof_C 	C 	0.96663	0.46417	0.60897	-0.046
Mof_N 	N 	0.93323	0.47707	0.49887	-0.3
Mof_C 	C 	0.86103	0.44617	0.51237	-0.095
Mof_C 	C 	0.89263	0.32117	0.86347	-0.077
Mof_N 	N 	0.88843	0.26137	0.89457	-0.298
Mof_N 	N 	0.80683	0.17667	0.89317	-0.304
Mof_C 	C 	0.74763	0.16937	0.86067	-0.043
Mof_C 	C 	0.02583	0.49137	0.57317	0.135
Mof_C 	C 	0.01133	0.47977	0.60997	-0.143
Mof_H 	H 	0.94703	0.45277	0.62787	0.04
Mof_C 	C 	0.90963	0.47447	0.46767	0.147
Mof_H 	H 	0.83483	0.43267	0.52537	0.069
Mof_C 	C 	0.86483	0.45597	0.47757	-0.11
Mof_C 	C 	0.93253	0.33447	0.87637	-0.105
Mof_H 	H 	0.88333	0.33837	0.85137	0.054
Mof_C 	C 	0.92993	0.29717	0.89877	0.137
Mof_C 	C 	0.76913	0.13647	0.89627	0.168
Mof_C 	C 	0.73313	0.13077	0.87597	-0.151
Mof_H 	H 	0.73063	0.17577	0.84537	0.044
Mof_C 	C 	0.07153	0.51077	0.56377	-0.278
Mof_H 	H 	0.02873	0.48247	0.62957	0.071
Mof_H 	H 	0.84163	0.45137	0.46267	0.069
Mof_H 	H 	0.95783	0.36197	0.87247	0.06
Mof_H 	H 	0.70523	0.10547	0.87377	0.074
Mof_H 	H 	0.09073	0.51337	0.58187	0.122
Mof_Zn	Zn	0.27186	0.63628	0.02838	1.207
Mof_O 	O 	0.261	0.5857	0.99798	-0.505
Mof_O 	O 	0.3249	0.5845	0.99929	-0.533
Mof_O 	O 	0.2298	0.6073	0.06749	-0.519
Mof_C 	C 	0.2865	0.5705	0.9901	0.43
Mof_C 	C 	0.2382	0.6066	0.1003	0.441
Mof_O 	O 	0.2761	0.6284	0.11431	-0.525
Mof_C 	C 	0.2636	0.531	0.965	-0.181
Mof_C 	C 	0.2018	0.5799	0.1244	-0.273
Mof_C 	C 	0.2886	0.5122	0.953	0.101
Mof_C 	C 	0.2208	0.5135	0.9539	0.128
Mof_C 	C 	0.1593	0.5513	0.1126	0.204
Mof_C 	C 	0.2072	0.5818	0.1588	0.21
Mof_H 	H 	0.3181	0.5242	0.9601	0.004
Mof_C 	C 	0.2692	0.4751	0.9298	-0.208
Mof_C 	C 	0.2042	0.478	0.9314	-0.22
Mof_H 	H 	0.2034	0.5254	0.9613	-0.003
Mof_H 	H 	0.1538	0.5462	0.0885	-0.035
Mof_C 	C 	0.1246	0.5301	0.1362	-0.315
Mof_C 	C 	0.172	0.5582	0.1821	-0.292
Mof_H 	H 	0.2356	0.5995	0.168	-0.022
Mof_H 	H 	0.2858	0.4623	0.9223	0.095
Mof_C 	C 	0.2271	0.4583	0.9188	0.171
Mof_H 	H 	0.1749	0.4663	0.924	0.098
Mof_H 	H 	0.096	0.5133	0.1272	0.133
Mof_C 	C 	0.1293	0.5321	0.1703	0.253
Mof_H 	H 	0.1776	0.5603	0.2062	0.125
Mof_C 	C 	0.2098	0.4208	0.8926	-0.177
Mof_C 	C 	0.0908	0.511	0.1932	-0.197
Mof_C 	C 	0.1805	0.3785	0.9053	0.09
Mof_C 	C 	0.2231	0.4299	0.8582	0.126
Mof_C 	C 	0.0742	0.4686	0.2057	0.106
Mof_C 	C 	0.0741	0.5382	0.2041	0.075
Mof_N 	N 	0.1595	0.3397	0.8848	-0.309
Mof_C 	C 	0.1642	0.3667	0.9423	-0.071
Mof_N 	N 	0.2105	0.4001	0.8322	-0.303
Mof_C 	C 	0.2518	0.4723	0.8457	-0.096
Mof_C 	C 	0.0952	0.4407	0.1968	-0.078
Mof_N 	N 	0.0396	0.4449	0.2279	-0.3
Mof_N 	N 	0.0365	0.5265	0.2265	-0.307
Mof_C 	C 	0.0884	0.5857	0.194	-0.04
Mof_C 	C 	0.1322	0.3075	0.9065	0.14
Mof_C 	C 	0.1351	0.322	0.9433	-0.121
Mof_H 	H 	0.1724	0.3863	0.9612	0.046
Mof_C 	C 	0.2315	0.4237	0.801	0.145
Mof_H 	H 	0.2645	0.4985	0.8587	0.07
Mof_C 	C 	0.2578	0.4685	0.8109	-0.109
Mof_C 	C 	0.0686	0.4008	0.2097	-0.106
Mof_H 	H 	0.1217	0.45	0.1847	0.054
Mof_C 	C 	0.0339	0.4034	0.2321	0.134
Mof_C 	C 	0.034	0.5642	0.2296	0.177
Mof_C 	C 	0.0643	0.6002	0.2093	-0.159
Mof_H 	H 	0.1118	0.6027	0.1787	0.043
Mof_C 	C 	0.1059	0.2618	0.8971	-0.279
Mof_H 	H 	0.1204	0.3046	0.9629	0.066
Mof_H 	H 	0.2764	0.4917	0.796	0.068
Mof_H 	H 	0.0708	0.3755	0.2058	0.057
Mof_H 	H 	0.0669	0.6281	0.2071	0.076
Mof_H 	H 	0.0893	0.2426	0.9152	0.122
Mof_Zn	Zn	0.93853	0.96961	0.36171	1.215
Mof_O 	O 	0.92767	0.91903	0.33131	-0.502
Mof_O 	O 	0.99157	0.91783	0.33262	-0.525
Mof_O 	O 	0.89647	0.94063	0.40082	-0.512
Mof_C 	C 	0.95317	0.90383	0.32343	0.429
Mof_C 	C 	0.90487	0.93993	0.43363	0.439
Mof_O 	O 	0.94277	0.96173	0.44764	-0.514
Mof_C 	C 	0.93027	0.86433	0.29833	-0.179
Mof_C 	C 	0.86847	0.91323	0.45773	-0.269
Mof_C 	C 	0.95527	0.84553	0.28633	0.101
Mof_C 	C 	0.88747	0.84683	0.28723	0.127
Mof_C 	C 	0.82597	0.88463	0.44593	0.203
Mof_C 	C 	0.87387	0.91513	0.49213	0.207
Mof_H 	H 	0.98477	0.85753	0.29343	0.008
Mof_C 	C 	0.93587	0.80843	0.26313	-0.206
Mof_C 	C 	0.87087	0.81133	0.26473	-0.219
Mof_H 	H 	0.87007	0.85873	0.29463	-0.003
Mof_H 	H 	0.82047	0.87953	0.42183	-0.033
Mof_C 	C 	0.79127	0.86343	0.46953	-0.313
Mof_C 	C 	0.83867	0.89153	0.51543	-0.289
Mof_H 	H 	0.90227	0.93283	0.50133	-0.018
Mof_H 	H 	0.95247	0.79563	0.25563	0.097
Mof_C 	C 	0.89377	0.79163	0.25213	0.171
Mof_H 	H 	0.84157	0.79963	0.25733	0.099
Mof_H 	H 	0.76267	0.84663	0.46053	0.133
Mof_C 	C 	0.79597	0.86543	0.50363	0.252
Mof_H 	H 	0.84427	0.89363	0.53953	0.125
Mof_C 	C 	0.87647	0.75413	0.22593	-0.177
Mof_C 	C 	0.75747	0.84433	0.52653	-0.196
Mof_C 	C 	0.84717	0.71183	0.23863	0.09
Mof_C 	C 	0.88977	0.76323	0.19153	0.127
Mof_C 	C 	0.74087	0.80193	0.53903	0.107
Mof_C 	C 	0.74077	0.87153	0.53743	0.077
Mof_N 	N 	0.82617	0.67303	0.21813	-0.309
Mof_C 	C 	0.83087	0.70003	0.27563	-0.071
Mof_N 	N 	0.87717	0.73343	0.16553	-0.303
Mof_C 	C 	0.91847	0.80563	0.17903	-0.095
Mof_C 	C 	0.76187	0.77403	0.53013	-0.08
Mof_N 	N 	0.70627	0.77823	0.56123	-0.296
Mof_N 	N 	0.70317	0.85983	0.55983	-0.304
Mof_C 	C 	0.75507	0.91903	0.52733	-0.041
Mof_C 	C 	0.79887	0.64083	0.23983	0.141
Mof_C 	C 	0.80177	0.65533	0.27663	-0.121
Mof_H 	H 	0.83907	0.71963	0.29453	0.046
Mof_C 	C 	0.89817	0.75703	0.13433	0.146
Mof_H 	H 	0.93117	0.83183	0.19203	0.072
Mof_C 	C 	0.92447	0.80183	0.14423	-0.108
Mof_C 	C 	0.73527	0.73413	0.54303	-0.1
Mof_H 	H 	0.78837	0.78333	0.51803	0.055
Mof_C 	C 	0.70057	0.73673	0.56543	0.127
Mof_C 	C 	0.70067	0.89753	0.56293	0.171
Mof_C 	C 	0.73097	0.93353	0.54263	-0.153
Mof_H 	H 	0.77847	0.93603	0.51203	0.044
Mof_C 	C 	0.77257	0.59513	0.23043	-0.279
Mof_H 	H 	0.78707	0.63793	0.29623	0.065
Mof_H 	H 	0.94307	0.82503	0.12933	0.071
Mof_H 	H 	0.73747	0.70883	0.53913	0.056
Mof_H 	H 	0.73357	0.96143	0.54043	0.078
Mof_H 	H 	0.75597	0.57593	0.24853	0.123
Mof_Zn	Zn	0.60519	0.30295	0.69505	1.209
Mof_O 	O 	0.59433	0.25237	0.66465	-0.507
Mof_O 	O 	0.65823	0.25117	0.66596	-0.535
Mof_O 	O 	0.56313	0.27397	0.73416	-0.517
Mof_C 	C 	0.61983	0.23717	0.65677	0.43
Mof_C 	C 	0.57153	0.27327	0.76697	0.441
Mof_O 	O 	0.60943	0.29507	0.78098	-0.525
Mof_C 	C 	0.59693	0.19767	0.63167	-0.183
Mof_C 	C 	0.53513	0.24657	0.79107	-0.273
Mof_C 	C 	0.62193	0.17887	0.61967	0.102
Mof_C 	C 	0.55413	0.18017	0.62057	0.129
Mof_C 	C 	0.49263	0.21797	0.77927	0.205
Mof_C 	C 	0.54053	0.24847	0.82547	0.21
Mof_H 	H 	0.65143	0.19087	0.62677	0.003
Mof_C 	C 	0.60253	0.14177	0.59647	-0.21
Mof_C 	C 	0.53753	0.14467	0.59807	-0.222
Mof_H 	H 	0.53673	0.19207	0.62797	-0.004
Mof_H 	H 	0.48713	0.21287	0.75517	-0.035
Mof_C 	C 	0.45793	0.19677	0.80287	-0.316
Mof_C 	C 	0.50533	0.22487	0.84877	-0.293
Mof_H 	H 	0.56893	0.26617	0.83467	-0.022
Mof_H 	H 	0.61913	0.12897	0.58897	0.095
Mof_C 	C 	0.56043	0.12497	0.58547	0.173
Mof_H 	H 	0.50823	0.13297	0.59067	0.099
Mof_H 	H 	0.42933	0.17997	0.79387	0.134
Mof_C 	C 	0.46263	0.19877	0.83697	0.254
Mof_H 	H 	0.51093	0.22697	0.87287	0.126
Mof_C 	C 	0.54313	0.08747	0.55927	-0.181
Mof_C 	C 	0.42413	0.17767	0.85987	-0.198
Mof_C 	C 	0.51383	0.04517	0.57197	0.094
Mof_C 	C 	0.55643	0.09657	0.52487	0.128
Mof_C 	C 	0.40753	0.13527	0.87237	0.108
Mof_C 	C 	0.40743	0.20487	0.87077	0.078
Mof_N 	N 	0.49283	0.00637	0.55147	-0.317
Mof_C 	C 	0.49753	0.03337	0.60897	-0.097
Mof_N 	N 	0.54383	0.06677	0.49887	-0.304
Mof_C 	C 	0.58513	0.13897	0.51237	-0.098
Mof_C 	C 	0.42853	0.10737	0.86347	-0.083
Mof_N 	N 	0.37293	0.11157	0.89457	-0.295
Mof_N 	N 	0.36983	0.19317	0.89317	-0.304
Mof_C 	C 	0.42173	0.25237	0.86067	-0.043
Mof_C 	C 	0.46553	0.97417	0.57317	0.147
Mof_C 	C 	0.46843	0.98867	0.60997	-0.098
Mof_H 	H 	0.50573	0.05297	0.62787	0.052
Mof_C 	C 	0.56483	0.09037	0.46767	0.142
Mof_H 	H 	0.59783	0.16517	0.52537	0.07
Mof_C 	C 	0.59113	0.13517	0.47757	-0.107
Mof_C 	C 	0.40193	0.06747	0.87637	-0.096
Mof_H 	H 	0.45503	0.11667	0.85137	0.056
Mof_C 	C 	0.36723	0.07007	0.89877	0.118
Mof_C 	C 	0.36733	0.23087	0.89627	0.169
Mof_C 	C 	0.39763	0.26687	0.87597	-0.151
Mof_H 	H 	0.44513	0.26937	0.84537	0.044
Mof_C 	C 	0.43923	0.92847	0.56377	-0.28
Mof_H 	H 	0.45373	0.97127	0.62957	0.059
Mof_H 	H 	0.60973	0.15837	0.46267	0.068
Mof_H 	H 	0.40413	0.04217	0.87247	0.053
Mof_H 	H 	0.40023	0.29477	0.87377	0.075
Mof_H 	H 	0.42263	0.90927	0.58187	0.123
Mof_O 	O 	0.33333	0.66667	0.5439	-0.972
Mof_Zn	Zn	0.33333	0.66667	0.59474	1.217
Mof_O 	O 	2.04324e-32	2.04324e-32	0.87723	-0.986
Mof_Zn	Zn	2.04324e-32	2.04324e-32	0.92807	1.21
Mof_O 	O 	0.66667	0.33333	0.21057	-0.972
Mof_Zn	Zn	0.66667	0.33333	0.26141	1.217
Mof_O 	O 	0.66667	0.33333	0.9561	-0.97
Mof_Zn	Zn	0.66667	0.33333	0.90526	1.217
Mof_O 	O 	0.33333	0.66667	0.28943	-0.972
Mof_Zn	Zn	0.33333	0.66667	0.23859	1.217
Mof_O 	O 	1.02162e-32	1.02162e-32	0.62277	-0.986
Mof_Zn	Zn	-5.10811e-33	1.02162e-32	0.57193	1.21
Mof_O 	O 	0.66667	0.33333	0.4561	-0.972
Mof_Zn	Zn	0.66667	0.33333	0.40526	1.217
Mof_O 	O 	0.33333	0.66667	0.78943	-0.972
Mof_Zn	Zn	0.33333	0.66667	0.73859	1.217
Mof_O 	O 	1.27703e-33	0	0.12277	-0.986
Mof_Zn	Zn	6.38514e-34	0	0.07193	1.21
Mof_O 	O 	0.33333	0.66667	0.0439	-0.974
Mof_Zn	Zn	0.33333	0.66667	0.09474	1.216
Mof_O 	O 	-0	0	0.37723	-0.986
Mof_Zn	Zn	1.02162e-32	1.02162e-32	0.42807	1.21
Mof_O 	O 	0.66667	0.33333	0.71057	-0.972
Mof_Zn	Zn	0.66667	0.33333	0.76141	1.217
Mof_Zn	Zn	0.16667	0.83333	0.33333	1.168
Mof_Zn	Zn	0.16667	0.33333	0.33333	1.168
Mof_Zn	Zn	0.66667	0.83333	0.33333	1.168
Mof_Zn	Zn	0.83333	0.16667	0.16667	1.168
Mof_Zn	Zn	0.5	0.5	0.5	1.168
Mof_Zn	Zn	0.33333	0.16667	0.16667	1.168
Mof_Zn	Zn	2.5146e-17	0.5	0.5	1.164
Mof_Zn	Zn	0.83333	0.66667	0.16667	1.168
Mof_Zn	Zn	0.5	0	0.5	1.164
Mof_Zn	Zn	0.83333	0.16667	0.66667	1.168
Mof_Zn	Zn	0.5	0.5	-0	1.166
Mof_Zn	Zn	0.83333	0.66667	0.66667	1.168
Mof_Zn	Zn	0.5	0	-0	1.162
Mof_Zn	Zn	0.33333	0.16667	0.66667	1.168
Mof_Zn	Zn	-0	0.5	-0	1.162
Mof_Zn	Zn	0.16667	0.83333	0.83333	1.168
Mof_Zn	Zn	0.66667	0.83333	0.83333	1.168
Mof_Zn	Zn	0.16667	0.33333	0.83333	1.168
Mof_Zn	Zn	-8.29082e-18	0.53267	0.75	1.162
Mof_C 	C 	-8.29082e-18	0.6314	0.75	-0.286
Mof_C 	C 	-8.29082e-18	0.4372	0.75	-0.318
Mof_H 	H 	-8.29082e-18	0.6582	0.75	0.113
Mof_H 	H 	1.47141e-17	0.4104	0.75	0.123
Mof_Zn	Zn	0.66667	0.866	0.08333	1.166
Mof_C 	C 	0.66667	0.96473	0.08333	-0.28
Mof_C 	C 	0.66667	0.77053	0.08333	-0.293
Mof_H 	H 	0.66667	0.99153	0.08333	0.119
Mof_H 	H 	0.66667	0.74373	0.08333	0.119
Mof_Zn	Zn	0.33333	0.19934	0.41667	1.166
Mof_C 	C 	0.33333	0.29807	0.41667	-0.261
Mof_C 	C 	0.33333	0.10387	0.41667	-0.292
Mof_H 	H 	0.33333	0.32487	0.41667	0.108
Mof_H 	H 	0.33333	0.07707	0.41667	0.117
Mof_Zn	Zn	0.46733	0.46733	0.75	1.166
Mof_C 	C 	0.3686	0.3686	0.75	-0.261
Mof_C 	C 	0.5628	0.5628	0.75	-0.293
Mof_H 	H 	0.3418	0.3418	0.75	0.108
Mof_H 	H 	0.5896	0.5896	0.75	0.119
Mof_Zn	Zn	0.134	0.80066	0.08333	1.166
Mof_C 	C 	0.03527	0.70193	0.08333	-0.242
Mof_C 	C 	0.22947	0.89613	0.08333	-0.294
Mof_H 	H 	0.00847	0.67513	0.08333	0.097
Mof_H 	H 	0.25627	0.92293	0.08333	0.121
Mof_Zn	Zn	0.80066	0.134	0.41667	1.166
Mof_C 	C 	0.70193	0.03527	0.41667	-0.242
Mof_C 	C 	0.89613	0.22947	0.41667	-0.294
Mof_H 	H 	0.67513	0.00847	0.41667	0.098
Mof_H 	H 	0.92293	0.25627	0.41667	0.121
Mof_Zn	Zn	0.53267	0	0.75	1.162
Mof_C 	C 	0.6314	0	0.75	-0.286
Mof_C 	C 	0.4372	0	0.75	-0.318
Mof_H 	H 	0.6582	0	0.75	0.113
Mof_H 	H 	0.4104	0	0.75	0.123
Mof_Zn	Zn	0.19934	0.33333	0.08333	1.166
Mof_C 	C 	0.29807	0.33333	0.08333	-0.261
Mof_C 	C 	0.10387	0.33333	0.08333	-0.292
Mof_H 	H 	0.32487	0.33333	0.08333	0.108
Mof_H 	H 	0.07707	0.33333	0.08333	0.117
Mof_Zn	Zn	0.866	0.66667	0.41667	1.166
Mof_C 	C 	0.96473	0.66667	0.41667	-0.28
Mof_C 	C 	0.77053	0.66667	0.41667	-0.293
Mof_H 	H 	0.99153	0.66667	0.41667	0.119
Mof_H 	H 	0.74373	0.66667	0.41667	0.119
Mof_Zn	Zn	1.2573e-17	0.46733	0.25	1.162
Mof_C 	C 	3.55779e-17	0.3686	0.25	-0.286
Mof_C 	C 	-3.34368e-17	0.5628	0.25	-0.318
Mof_H 	H 	1.2573e-17	0.3418	0.25	0.113
Mof_H 	H 	-3.34368e-17	0.5896	0.25	0.123
Mof_Zn	Zn	0.66667	0.80066	0.58333	1.166
Mof_C 	C 	0.66667	0.70193	0.58333	-0.261
Mof_C 	C 	0.66667	0.89613	0.58333	-0.294
Mof_H 	H 	0.66667	0.67513	0.58333	0.108
Mof_H 	H 	0.66667	0.92293	0.58333	0.121
Mof_Zn	Zn	0.33333	0.134	0.91667	1.166
Mof_C 	C 	0.33333	0.03527	0.91667	-0.241
Mof_C 	C 	0.33333	0.22947	0.91667	-0.292
Mof_H 	H 	0.33333	0.00847	0.91667	0.098
Mof_H 	H 	0.33333	0.25627	0.91667	0.119
Mof_Zn	Zn	0.53267	0.53267	0.25	1.166
Mof_C 	C 	0.6314	0.6314	0.25	-0.261
Mof_C 	C 	0.4372	0.4372	0.25	-0.293
Mof_H 	H 	0.6582	0.6582	0.25	0.108
Mof_H 	H 	0.4104	0.4104	0.25	0.119
Mof_Zn	Zn	0.19934	0.866	0.58333	1.166
Mof_C 	C 	0.29807	0.96473	0.58333	-0.28
Mof_C 	C 	0.10387	0.77053	0.58333	-0.292
Mof_H 	H 	0.32487	0.99153	0.58333	0.119
Mof_H 	H 	0.07707	0.74373	0.58333	0.117
Mof_Zn	Zn	0.866	0.19934	0.91667	1.166
Mof_C 	C 	0.96473	0.29807	0.91667	-0.28
Mof_C 	C 	0.77053	0.10387	0.91667	-0.292
Mof_H 	H 	0.99153	0.32487	0.91667	0.12
Mof_H 	H 	0.74373	0.07707	0.91667	0.118
Mof_Zn	Zn	0.46733	0	0.25	1.162
Mof_C 	C 	0.3686	0	0.25	-0.286
Mof_C 	C 	0.5628	0	0.25	-0.318
Mof_H 	H 	0.3418	0	0.25	0.113
Mof_H 	H 	0.5896	0	0.25	0.123
Mof_Zn	Zn	0.134	0.33333	0.58333	1.166
Mof_C 	C 	0.03527	0.33333	0.58333	-0.241
Mof_C 	C 	0.22947	0.33333	0.58333	-0.292
Mof_H 	H 	0.00847	0.33333	0.58333	0.098
Mof_H 	H 	0.25627	0.33333	0.58333	0.119
Mof_Zn	Zn	0.80066	0.66667	0.91667	1.166
Mof_C 	C 	0.70193	0.66667	0.91667	-0.261
Mof_C 	C 	0.89613	0.66667	0.91667	-0.294
Mof_H 	H 	0.67513	0.66667	0.91667	0.109
Mof_H 	H 	0.92293	0.66667	0.91667	0.122
_end
