data_functionalizedCrystal
_audit_creation_method	'EQeq! by Chris Wilmer'
_symmetry_space_group_name_H-M	'P1'
_symmetry_Int_Tables_number	1
_symmetry_cell_setting	triclinic
loop_
_symmetry_equiv_pos_as_xyz
  x,y,z
_cell_length_a	7.797
_cell_length_b	10.047
_cell_length_c	13.577
_cell_angle_alpha	110.18
_cell_angle_beta	105.46
_cell_angle_gamma	93.9
loop_
_atom_site_label
_atom_site_type_symbol
_atom_site_fract_x
_atom_site_fract_y
_atom_site_fract_z
_atom_site_charge
Mof_Zn	Zn	0.36918	0.12226	0.74478	1.204
Mof_Zn	Zn	0.63082	0.87774	0.25522	1.208
Mof_Zn	Zn	-3.75154e-17	0.5	0.5	1.111
Mof_Zn	Zn	0.5	0.5	0.5	1.127
Mof_H 	H 	0.085	0.8425	0.6322	-0.053
Mof_H 	H 	0.5902	0.8578	0.6367	-0.033
Mof_H 	H 	0.0401	0.2667	0.6256	-0.059
Mof_H 	H 	0.539	0.2706	0.6197	-0.04
Mof_H 	H 	0.8623	0.0558	0.8472	0.028
Mof_H 	H 	0.313	0.0029	0.0532	0.032
Mof_H 	H 	0.9678	0.2908	0.8453	0.03
Mof_H 	H 	0.745	0.5711	0.0509	0.026
Mof_H 	H 	0.915	0.1575	0.3678	-0.027
Mof_H 	H 	0.4098	0.1422	0.3633	-0.049
Mof_H 	H 	0.9599	0.7333	0.3744	-0.025
Mof_H 	H 	0.461	0.7294	0.3803	-0.049
Mof_H 	H 	0.1377	0.9442	0.1528	0.087
Mof_H 	H 	0.687	0.9971	0.9468	0.088
Mof_H 	H 	0.0322	0.7092	0.1547	0.085
Mof_H 	H 	0.255	0.4289	0.9491	0.107
Mof_C 	C 	0.1949	0.8152	0.6213	0.078
Mof_C 	C 	0.4665	0.8235	0.6239	0.097
Mof_C 	C 	0.1515	0.2882	0.6135	0.094
Mof_C 	C 	0.4195	0.2902	0.6103	0.086
Mof_C 	C 	0.2177	0.0755	0.8779	0.331
Mof_C 	C 	0.1039	0.0361	0.9406	-0.162
Mof_C 	C 	0.9182	0.0334	0.9094	0.095
Mof_C 	C 	0.1864	0.002	0.0317	0.034
Mof_C 	C 	0.9812	0.3756	0.908	0.111
Mof_C 	C 	0.8481	0.5424	0.0303	0.094
Mof_C 	C 	0.8285	0.4173	0.938	-0.118
Mof_C 	C 	0.6433	0.3285	0.8724	0.316
Mof_C 	C 	0.8051	0.1848	0.3787	0.086
Mof_C 	C 	0.5335	0.1765	0.3761	0.1
Mof_C 	C 	0.8485	0.7118	0.3865	0.106
Mof_C 	C 	0.5805	0.7098	0.3897	0.092
Mof_C 	C 	0.7823	0.9245	0.1221	0.271
Mof_C 	C 	0.8961	0.9639	0.0594	0.039
Mof_C 	C 	0.0818	0.9666	0.0906	-0.156
Mof_C 	C 	0.8136	0.998	0.9683	-0.095
Mof_C 	C 	0.0188	0.6244	0.092	-0.177
Mof_C 	C 	0.1519	0.4576	0.9697	-0.164
Mof_C 	C 	0.1715	0.5827	0.062	0.014
Mof_C 	C 	0.3567	0.6715	0.1276	0.258
Mof_N 	N 	0.2114	0.6815	0.5697	-0.27
Mof_N 	N 	0.3893	0.6859	0.5714	-0.259
Mof_N 	N 	0.3511	0.9096	0.6571	-0.274
Mof_N 	N 	0.1793	0.3781	0.565	-0.269
Mof_N 	N 	0.3554	0.3789	0.563	-0.262
Mof_N 	N 	0.2978	0.2305	0.6438	-0.28
Mof_N 	N 	0.7886	0.3185	0.4303	-0.249
Mof_N 	N 	0.6107	0.3141	0.4286	-0.258
Mof_N 	N 	0.6489	0.0904	0.3429	-0.276
Mof_N 	N 	0.8207	0.6219	0.435	-0.247
Mof_N 	N 	0.6446	0.6211	0.437	-0.26
Mof_N 	N 	0.7022	0.7695	0.3562	-0.274
Mof_O 	O 	0.1407	0.0936	0.7902	-0.453
Mof_O 	O 	0.3852	0.0929	0.913	-0.358
Mof_O 	O 	0.6358	0.2033	0.8009	-0.432
Mof_O 	O 	0.5068	0.3802	0.8874	-0.324
Mof_O 	O 	0.8593	0.9064	0.2098	-0.402
Mof_O 	O 	0.6148	0.9071	0.087	-0.343
Mof_O 	O 	0.3642	0.7967	0.1991	-0.427
Mof_O 	O 	0.4932	0.6198	0.1126	-0.311
_end
