data_functionalizedCrystal
_audit_creation_method	'EQeq! by Chris Wilmer'
_symmetry_space_group_name_H-M	'P1'
_symmetry_Int_Tables_number	1
_symmetry_cell_setting	triclinic
loop_
_symmetry_equiv_pos_as_xyz
  x,y,z
_cell_length_a	22.8156
_cell_length_b	6.9955
_cell_length_c	14.4043
_cell_angle_alpha	90
_cell_angle_beta	106.694
_cell_angle_gamma	90
loop_
_atom_site_label
_atom_site_type_symbol
_atom_site_fract_x
_atom_site_fract_y
_atom_site_fract_z
_atom_site_charge
Mof_Cd	Cd	0.91146	0.97942	0.69182	0.439
Mof_O 	O 	0.5916	0.5092	0.1291	-0.279
Mof_O 	O 	0.9376	0.0265	0.1038	-0.238
Mof_O 	O 	0.9288	0.9052	0.541	-0.269
Mof_C 	C 	0.9486	0.9752	0.1892	0.233
Mof_N 	N 	0.7487	0.4395	0.1502	-0.115
Mof_O 	O 	0.6995	0.1748	0.1801	-0.206
Mof_C 	C 	0.9156	0.9947	0.3431	-0.109
Mof_H 	H 	0.9519	0.935	0.3769	0.105
Mof_O 	O 	0.9944	0.8722	0.2326	-0.246
Mof_O 	O 	0.6705	0.5599	0.256	-0.259
Mof_C 	C 	0.8075	0.1764	0.2419	-0.001
Mof_C 	C 	0.8851	0.0111	0.4966	0.308
Mof_C 	C 	0.6479	0.5382	0.1669	0.311
Mof_C 	C 	0.6904	0.5327	0.1028	-0.065
Mof_H 	H 	0.6703	0.4701	0.041	0.066
Mof_C 	C 	0.9045	0.0353	0.2448	0.032
Mof_O 	O 	0.8523	0.0876	0.5401	-0.25
Mof_C 	C 	0.8511	0.1282	0.1949	-0.066
Mof_H 	H 	0.8443	0.1585	0.1298	0.062
Mof_C 	C 	0.8732	0.0426	0.3905	0.008
Mof_C 	C 	0.7469	0.2621	0.1891	0.182
Mof_C 	C 	0.8184	0.1327	0.3387	-0.048
Mof_H 	H 	0.7892	0.1631	0.3701	0.085
Mof_C 	C 	0.712	0.7341	0.0854	-0.081
Mof_H 	H 	0.6861	0.7867	0.0252	0.049
Mof_H 	H 	0.7109	0.819	0.1381	0.074
Mof_C 	C 	0.8011	0.5647	0.1621	-0.042
Mof_H 	H 	0.8361	0.4958	0.1536	0.05
Mof_H 	H 	0.8124	0.6261	0.2251	0.063
Mof_C 	C 	0.7765	0.7096	0.0804	-0.098
Mof_H 	H 	0.7991	0.8289	0.093	0.055
Mof_H 	H 	0.7775	0.6592	0.0182	0.06
Mof_C 	C 	0.5537	0.098	0.9935	0.106
Mof_C 	C 	0.5598	0.943	0.048	-0.025
Mof_N 	N 	0.5061	0.203	0.0382	-0.091
Mof_N 	N 	0.5071	0.849	0.065	-0.06
Mof_C 	C 	0.5501	0.926	0.9727	0.049
Mof_Cd	Cd	0.41146	0.47942	0.69182	0.457
Mof_O 	O 	0.0916	0.0092	0.1291	-0.266
Mof_O 	O 	0.4376	0.5265	0.1038	-0.281
Mof_O 	O 	0.4288	0.4052	0.541	-0.256
Mof_C 	C 	0.4486	0.4752	0.1892	0.309
Mof_N 	N 	0.2487	0.9395	0.1502	-0.15
Mof_O 	O 	0.1995	0.6748	0.1801	-0.224
Mof_C 	C 	0.4156	0.4947	0.3431	0.01
Mof_H 	H 	0.4519	0.435	0.3769	0.065
Mof_O 	O 	0.4944	0.3722	0.2326	-0.265
Mof_O 	O 	0.1705	0.0599	0.256	-0.242
Mof_C 	C 	0.3075	0.6764	0.2419	-0.053
Mof_C 	C 	0.3851	0.5111	0.4966	0.305
Mof_C 	C 	0.1479	0.0382	0.1669	0.297
Mof_C 	C 	0.1904	0.0327	0.1028	-0.01
Mof_H 	H 	0.1703	0.9701	0.041	0.032
Mof_C 	C 	0.4045	0.5353	0.2448	-0.076
Mof_O 	O 	0.3523	0.5876	0.5401	-0.262
Mof_C 	C 	0.3511	0.6282	0.1949	-0.001
Mof_H 	H 	0.3443	0.6585	0.1298	0.035
Mof_C 	C 	0.3732	0.5426	0.3905	-0.067
Mof_C 	C 	0.2469	0.7621	0.1891	0.201
Mof_C 	C 	0.3184	0.6327	0.3387	0.002
Mof_H 	H 	0.2892	0.6631	0.3701	0.063
Mof_C 	C 	0.212	0.2341	0.0854	-0.091
Mof_H 	H 	0.1861	0.2867	0.0252	0.055
Mof_H 	H 	0.2109	0.319	0.1381	0.082
Mof_C 	C 	0.3011	0.0647	0.1621	0.04
Mof_H 	H 	0.3361	0.9958	0.1536	0.011
Mof_H 	H 	0.3124	0.1261	0.2251	0.045
Mof_C 	C 	0.2765	0.2096	0.0804	-0.129
Mof_H 	H 	0.2991	0.3289	0.093	0.071
Mof_H 	H 	0.2775	0.1592	0.0182	0.075
Mof_C 	C 	0.0537	0.598	0.9935	0.059
Mof_C 	C 	0.0598	0.443	0.048	-0.002
Mof_N 	N 	0.0061	0.703	0.0382	-0.102
Mof_N 	N 	0.0071	0.349	0.065	-0.065
Mof_C 	C 	0.0501	0.426	0.9727	0.064
Mof_Cd	Cd	0.08854	0.97942	0.30818	0.427
Mof_O 	O 	0.4084	0.5092	0.8709	-0.273
Mof_O 	O 	0.0624	0.0265	0.8962	-0.234
Mof_O 	O 	0.0712	0.9052	0.459	-0.277
Mof_C 	C 	0.0514	0.9752	0.8108	0.228
Mof_N 	N 	0.2513	0.4395	0.8498	-0.114
Mof_O 	O 	0.3005	0.1748	0.8199	-0.203
Mof_C 	C 	0.0844	0.9947	0.6569	-0.111
Mof_H 	H 	0.0481	0.935	0.6231	0.098
Mof_O 	O 	0.0056	0.8722	0.7674	-0.26
Mof_O 	O 	0.3295	0.5599	0.744	-0.26
Mof_C 	C 	0.1925	0.1764	0.7581	0.001
Mof_C 	C 	0.1149	0.0111	0.5034	0.308
Mof_C 	C 	0.3521	0.5382	0.8331	0.312
Mof_C 	C 	0.3096	0.5327	0.8972	-0.068
Mof_H 	H 	0.3297	0.4701	0.959	0.081
Mof_C 	C 	0.0955	0.0353	0.7552	0.032
Mof_O 	O 	0.1477	0.0876	0.4599	-0.252
Mof_C 	C 	0.1489	0.1282	0.8051	-0.069
Mof_H 	H 	0.1557	0.1585	0.8702	0.07
Mof_C 	C 	0.1268	0.0426	0.6095	0.006
Mof_C 	C 	0.2531	0.2621	0.8109	0.185
Mof_C 	C 	0.1816	0.1327	0.6613	-0.049
Mof_H 	H 	0.2108	0.1631	0.6299	0.085
Mof_C 	C 	0.288	0.7341	0.9146	-0.075
Mof_H 	H 	0.3139	0.7867	0.9748	0.061
Mof_H 	H 	0.2891	0.819	0.8619	0.073
Mof_C 	C 	0.1989	0.5647	0.8379	-0.033
Mof_H 	H 	0.1639	0.4958	0.8464	0.049
Mof_H 	H 	0.1876	0.6261	0.7749	0.059
Mof_C 	C 	0.2235	0.7096	0.9196	-0.109
Mof_H 	H 	0.2009	0.8289	0.907	0.065
Mof_H 	H 	0.2225	0.6592	0.9818	0.078
Mof_C 	C 	0.4463	0.098	0.0065	0.066
Mof_C 	C 	0.4402	0.943	0.952	0.066
Mof_N 	N 	0.4939	0.203	0.9618	-0.071
Mof_N 	N 	0.4929	0.849	0.935	-0.074
Mof_C 	C 	0.4499	0.926	0.0273	-0.02
Mof_Cd	Cd	0.58854	0.47942	0.30818	0.458
Mof_O 	O 	0.9084	0.0092	0.8709	-0.254
Mof_O 	O 	0.5624	0.5265	0.8962	-0.269
Mof_O 	O 	0.5712	0.4052	0.459	-0.256
Mof_C 	C 	0.5514	0.4752	0.8108	0.305
Mof_N 	N 	0.7513	0.9395	0.8498	-0.15
Mof_O 	O 	0.8005	0.6748	0.8199	-0.22
Mof_C 	C 	0.5844	0.4947	0.6569	0.006
Mof_H 	H 	0.5481	0.435	0.6231	0.066
Mof_O 	O 	0.5056	0.3722	0.7674	-0.265
Mof_O 	O 	0.8295	0.0599	0.744	-0.241
Mof_C 	C 	0.6925	0.6764	0.7581	-0.049
Mof_C 	C 	0.6149	0.5111	0.5034	0.304
Mof_C 	C 	0.8521	0.0382	0.8331	0.296
Mof_C 	C 	0.8096	0.0327	0.8972	-0.008
Mof_H 	H 	0.8297	0.9701	0.959	0.044
Mof_C 	C 	0.5955	0.5353	0.7552	-0.071
Mof_O 	O 	0.6477	0.5876	0.4599	-0.262
Mof_C 	C 	0.6489	0.6282	0.8051	-0.007
Mof_H 	H 	0.6557	0.6585	0.8702	0.045
Mof_C 	C 	0.6268	0.5426	0.6095	-0.064
Mof_C 	C 	0.7531	0.7621	0.8109	0.203
Mof_C 	C 	0.6816	0.6327	0.6613	-0.001
Mof_H 	H 	0.7108	0.6631	0.6299	0.064
Mof_C 	C 	0.788	0.2341	0.9146	-0.087
Mof_H 	H 	0.8139	0.2867	0.9748	0.068
Mof_H 	H 	0.7891	0.319	0.8619	0.083
Mof_C 	C 	0.6989	0.0647	0.8379	0.052
Mof_H 	H 	0.6639	0.9958	0.8464	0.009
Mof_H 	H 	0.6876	0.1261	0.7749	0.042
Mof_C 	C 	0.7235	0.2096	0.9196	-0.141
Mof_H 	H 	0.7009	0.3289	0.907	0.082
Mof_H 	H 	0.7225	0.1592	0.9818	0.093
Mof_C 	C 	0.9463	0.598	0.0065	0.03
Mof_C 	C 	0.9402	0.443	0.952	0.079
Mof_N 	N 	0.9939	0.703	0.9618	-0.061
Mof_N 	N 	0.9929	0.349	0.935	-0.06
Mof_C 	C 	0.9499	0.426	0.0273	0.014
Mof_Cd	Cd	0.5	0.51178	-0	0.476
Mof_N 	N 	0.5	0.81	-0	-0.066
Mof_Cd	Cd	-0	0.01178	-0	0.474
Mof_N 	N 	-1.43291e-33	0.31	-0	-0.084
_end
