data_functionalizedCrystal
_audit_creation_method	'EQeq! by Chris Wilmer'
_symmetry_space_group_name_H-M	'P1'
_symmetry_Int_Tables_number	1
_symmetry_cell_setting	triclinic
loop_
_symmetry_equiv_pos_as_xyz
  x,y,z
_cell_length_a	28.1527
_cell_length_b	28.1527
_cell_length_c	28.6002
_cell_angle_alpha	119.484
_cell_angle_beta	119.484
_cell_angle_gamma	90
loop_
_atom_site_label
_atom_site_type_symbol
_atom_site_fract_x
_atom_site_fract_y
_atom_site_fract_z
_atom_site_charge
Mof_Cu	Cu	0.0696	0.27523	-0	0.868
Mof_Cu	Cu	0.41241	0.3172	0.36426	0.907
Mof_Cu	Cu	0.96434	0.03618	0.2738	0.897
Mof_Cu	Cu	0.03566	0.96382	0.7262	0.902
Mof_Cu	Cu	0.95294	0.58759	0.63574	0.905
Mof_Cu	Cu	0.9304	0.72477	-0	0.864
Mof_Cu	Cu	0.90921	0.63314	-0	0.872
Mof_Cu	Cu	0.63314	0.09079	-0	0.873
Mof_Cu	Cu	0.09079	0.36686	-0	0.872
Mof_Cu	Cu	0.36686	0.90921	-0	0.872
Mof_Cu	Cu	0.30946	0.23762	0.2738	0.898
Mof_Cu	Cu	0.3172	0.95185	0.36426	0.905
Mof_Cu	Cu	0.76238	0.03566	0.7262	0.904
Mof_Cu	Cu	0.27523	0.9304	-0	0.865
Mof_Cu	Cu	0.95185	0.04706	0.36426	0.908
Mof_Cu	Cu	0.23762	0.96434	0.2738	0.897
Mof_Cu	Cu	0.96382	0.69054	0.7262	0.902
Mof_Cu	Cu	0.6828	0.04815	0.63574	0.91
Mof_Cu	Cu	0.03618	0.30946	0.2738	0.901
Mof_Cu	Cu	0.04706	0.41241	0.36426	0.911
Mof_Cu	Cu	0.04815	0.95294	0.63574	0.908
Mof_Cu	Cu	0.58759	0.6828	0.63574	0.908
Mof_Cu	Cu	0.72477	0.0696	-0	0.868
Mof_Cu	Cu	0.69054	0.76238	0.7262	0.903
Mof_H 	H 	0.3786	0.9929	0.8324	0.152
Mof_H 	H 	0.4444	0.1121	0.4812	0.085
Mof_H 	H 	0.1271	0.6149	0.6978	0.093
Mof_H 	H 	0.5707	0.0829	0.6978	0.093
Mof_H 	H 	0.6149	0.5707	0.6978	0.091
Mof_H 	H 	0.6309	0.5556	0.5188	0.083
Mof_H 	H 	0.1605	0.6214	0.1676	0.137
Mof_H 	H 	0.895	0.7146	0.162	0.085
Mof_H 	H 	0.8901	0.7887	0.2962	0.138
Mof_H 	H 	0.6963	0.082	0.8454	0.078
Mof_H 	H 	0.9929	0.4538	0.8324	0.152
Mof_H 	H 	0.0071	0.5462	0.1676	0.138
Mof_H 	H 	0.7635	0.0172	0.2592	0.109
Mof_H 	H 	0.5939	0.4925	0.7038	0.147
Mof_H 	H 	0.758	0.2365	0.7408	0.116
Mof_H 	H 	0.2366	0.3037	0.1546	0.055
Mof_H 	H 	0.354	0.9609	0.8752	0.1
Mof_H 	H 	0.7857	0.6736	0.654	0.073
Mof_H 	H 	0.9828	0.5043	0.7408	0.112
Mof_H 	H 	0.3691	0.4444	0.4812	0.084
Mof_H 	H 	0.0172	0.4957	0.2592	0.11
Mof_H 	H 	0.8879	0.9632	0.5188	0.08
Mof_H 	H 	0.733	0.5526	0.838	0.107
Mof_H 	H 	0.1099	0.8054	0.1618	0.064
Mof_H 	H 	0.0196	0.2143	0.346	0.074
Mof_H 	H 	0.0857	0.646	0.1248	0.077
Mof_H 	H 	0.7634	0.6963	0.8454	0.077
Mof_H 	H 	0.0107	0.3778	0.5502	0.144
Mof_H 	H 	0.0391	0.4788	0.1248	0.078
Mof_H 	H 	0.1946	0.9481	0.8382	0.081
Mof_H 	H 	0.646	0.0391	0.1248	0.077
Mof_H 	H 	0.0519	0.3564	0.1618	0.066
Mof_H 	H 	0.9632	0.6309	0.5188	0.081
Mof_H 	H 	0.8901	0.1946	0.8382	0.082
Mof_H 	H 	0.7887	0.4061	0.2962	0.138
Mof_H 	H 	0.4293	0.9171	0.3022	0.083
Mof_H 	H 	0.7146	0.267	0.162	0.086
Mof_H 	H 	0.4538	0.8395	0.8324	0.153
Mof_H 	H 	0.5075	0.8901	0.2962	0.138
Mof_H 	H 	0.4957	0.242	0.2592	0.107
Mof_H 	H 	0.5395	0.1724	0.5502	0.143
Mof_H 	H 	0.6214	0.0071	0.1676	0.138
Mof_H 	H 	0.1491	0.7634	0.8454	0.078
Mof_H 	H 	0.918	0.8509	0.1546	0.052
Mof_H 	H 	0.6222	0.4605	0.4498	0.141
Mof_H 	H 	0.2301	0.4796	0.484	0.099
Mof_H 	H 	0.7461	0.9956	0.516	0.094
Mof_H 	H 	0.9481	0.6436	0.8382	0.081
Mof_H 	H 	0.4925	0.1099	0.7038	0.148
Mof_H 	H 	0.242	0.7635	0.2592	0.107
Mof_H 	H 	0.9609	0.5212	0.8752	0.1
Mof_H 	H 	0.3851	0.4293	0.3022	0.084
Mof_H 	H 	0.2539	0.0044	0.484	0.104
Mof_H 	H 	0.3778	0.5395	0.5502	0.142
Mof_H 	H 	0.4788	0.0857	0.1248	0.077
Mof_H 	H 	0.4796	0.2539	0.484	0.099
Mof_H 	H 	0.8729	0.3851	0.3022	0.083
Mof_H 	H 	0.2854	0.733	0.838	0.107
Mof_H 	H 	0.267	0.4474	0.162	0.086
Mof_H 	H 	0.3037	0.918	0.1546	0.053
Mof_H 	H 	0.2113	0.5939	0.7038	0.147
Mof_H 	H 	0.5204	0.7461	0.516	0.098
Mof_H 	H 	0.4474	0.895	0.162	0.085
Mof_H 	H 	0.5556	0.8879	0.5188	0.082
Mof_H 	H 	0.6736	0.8683	0.654	0.072
Mof_H 	H 	0.1099	0.2113	0.7038	0.148
Mof_H 	H 	0.0368	0.3691	0.4812	0.086
Mof_H 	H 	0.8683	0.9804	0.654	0.067
Mof_H 	H 	0.8054	0.0519	0.1618	0.065
Mof_H 	H 	0.1724	0.0107	0.5502	0.145
Mof_H 	H 	0.082	0.1491	0.8454	0.08
Mof_H 	H 	0.8276	0.9893	0.4498	0.138
Mof_H 	H 	0.8395	0.3786	0.8324	0.153
Mof_H 	H 	0.9956	0.7699	0.516	0.094
Mof_H 	H 	0.3564	0.1099	0.1618	0.065
Mof_H 	H 	0.4605	0.8276	0.4498	0.14
Mof_H 	H 	0.9143	0.354	0.8752	0.1
Mof_H 	H 	0.105	0.2854	0.838	0.108
Mof_H 	H 	0.5526	0.105	0.838	0.108
Mof_H 	H 	0.7699	0.5204	0.516	0.098
Mof_H 	H 	0.0829	0.1271	0.6978	0.094
Mof_H 	H 	0.6436	0.8901	0.8382	0.082
Mof_H 	H 	0.9171	0.8729	0.3022	0.082
Mof_H 	H 	0.9893	0.6222	0.4498	0.139
Mof_H 	H 	0.5462	0.1605	0.1676	0.137
Mof_H 	H 	0.3264	0.1317	0.346	0.069
Mof_H 	H 	0.5212	0.9143	0.8752	0.1
Mof_H 	H 	0.2143	0.3264	0.346	0.069
Mof_H 	H 	0.8509	0.2366	0.1546	0.053
Mof_H 	H 	0.1317	0.0196	0.346	0.075
Mof_H 	H 	0.2365	0.9828	0.7408	0.112
Mof_H 	H 	0.5043	0.758	0.7408	0.115
Mof_H 	H 	0.0044	0.2301	0.484	0.104
Mof_H 	H 	0.9804	0.7857	0.654	0.068
Mof_H 	H 	0.4061	0.5075	0.2962	0.139
Mof_H 	H 	0.1121	0.0368	0.4812	0.087
Mof_C 	C 	0.1449	0.9601	0.742	0.321
Mof_C 	C 	0.9141	0.2777	0.867	-0.003
Mof_C 	C 	0.63683	0.85463	0.61686	-0.026
Mof_C 	C 	0.907	0.7392	0.0916	0.371
Mof_C 	C 	0.1096	0.6826	0.1462	-0.117
Mof_C 	C 	0.7063	0.4014	0.7452	0.213
Mof_C 	C 	0.1297	0.6864	0.7694	-0.022
Mof_C 	C 	0.23777	0.36317	0.38314	-0.024
Mof_C 	C 	0.0618	0.3819	0.0856	0.331
Mof_C 	C 	0.0389	0.3438	0.7452	0.215
Mof_C 	C 	0.1346	0.0312	0.4648	-0.104
Mof_C 	C 	0.9786	0.6919	0.504	0.125
Mof_C 	C 	0.2181	0.8551	0.258	0.326
Mof_C 	C 	0.8654	0.9688	0.5352	-0.097
Mof_C 	C 	0.9761	0.5258	0.7728	-0.136
Mof_C 	C 	0.2676	0.6406	0.7136	0.195
Mof_C 	C 	0.917	0.8703	0.2306	-0.051
Mof_C 	C 	0.9634	0.5364	0.8538	-0.131
Mof_C 	C 	0.1238	0.7782	0.1694	-0.023
Mof_C 	C 	0.6786	0.659	0.6202	0.322
Mof_C 	C 	0.7931	0.035	0.2164	-0.021
Mof_C 	C 	0.1846	0.3524	0.0916	0.37
Mof_C 	C 	0.3328	0.4481	0.2398	0.128
Mof_C 	C 	0.85463	0.98003	0.61686	-0.019
Mof_C 	C 	0.3795	0.1163	0.412	-0.026
Mof_C 	C 	0.753	0.0239	0.2272	-0.126
Mof_C 	C 	0.5737	0.0983	0.8198	-0.102
Mof_C 	C 	0.3873	0.2275	0.3792	0.323
Mof_C 	C 	0.2156	0.4012	0.4096	-0.027
Mof_C 	C 	0.0312	0.3302	0.4648	-0.104
Mof_C 	C 	0.4233	0.7619	0.7686	0.214
Mof_C 	C 	0.1517	0.3873	0.3792	0.323
Mof_C 	C 	0.0239	0.4742	0.2272	-0.126
Mof_C 	C 	0.7215	0.5737	0.8198	-0.102
Mof_C 	C 	0.8359	0.2612	0.1758	-0.001
Mof_C 	C 	0.3465	0.5735	0.5978	0.205
Mof_C 	C 	0.9916	0.7844	0.5904	-0.038
Mof_C 	C 	0.7967	0.247	0.7728	-0.138
Mof_C 	C 	0.5988	0.806	0.5904	-0.026
Mof_C 	C 	0.76223	0.63683	0.61686	-0.027
Mof_C 	C 	0.3987	0.6519	0.348	0.198
Mof_C 	C 	0.2033	0.753	0.2272	-0.125
Mof_C 	C 	0.0983	0.2461	0.8198	-0.103
Mof_C 	C 	0.9803	0.6114	0.3158	0.209
Mof_C 	C 	0.0854	0.1641	0.8242	-0.022
Mof_C 	C 	0.4481	0.907	0.2398	0.127
Mof_C 	C 	0.0366	0.4636	0.1462	-0.12
Mof_C 	C 	0.8551	0.0399	0.258	0.326
Mof_C 	C 	0.3603	0.917	0.2306	-0.049
Mof_C 	C 	0.98003	0.76223	0.61686	-0.019
Mof_C 	C 	0.341	0.0584	0.3798	0.323
Mof_C 	C 	0.3174	0.9634	0.8538	-0.131
Mof_C 	C 	0.6181	0.9762	0.9144	0.308
Mof_C 	C 	0.0102	0.2475	0.466	-0.107
Mof_C 	C 	0.2777	0.9529	0.867	-0.008
Mof_C 	C 	0.9762	0.2963	0.9144	0.307
Mof_C 	C 	0.2275	0.9919	0.3792	0.311
Mof_C 	C 	0.3302	0.4336	0.4648	-0.099
Mof_C 	C 	0.2963	0.9382	0.9144	0.32
Mof_C 	C 	0.0653	0.6622	0.734	0.354
Mof_C 	C 	0.5254	0.8121	0.504	0.128
Mof_C 	C 	0.3355	0.7044	0.3158	0.21
Mof_C 	C 	0.0067	0.4233	0.7686	0.223
Mof_C 	C 	0.4742	0.2033	0.2272	-0.125
Mof_C 	C 	0.6672	0.5519	0.7602	0.149
Mof_C 	C 	0.7917	0.3328	0.2398	0.127
Mof_C 	C 	0.0084	0.2156	0.4096	-0.011
Mof_C 	C 	0.9919	0.1517	0.3792	0.311
Mof_C 	C 	0.5767	0.8186	0.7836	-0.001
Mof_C 	C 	0.6519	0.9493	0.348	0.197
Mof_C 	C 	0.3438	0.7063	0.7452	0.213
Mof_C 	C 	0.9612	0.6786	0.6202	0.323
Mof_C 	C 	0.3819	0.0238	0.0856	0.343
Mof_C 	C 	0.8483	0.6127	0.6208	0.321
Mof_C 	C 	0.9141	0.8485	0.2634	-0.104
Mof_C 	C 	0.5069	0.832	0.8094	0.181
Mof_C 	C 	0.5735	0.2513	0.5978	0.205
Mof_C 	C 	0.8154	0.6476	0.9084	0.354
Mof_C 	C 	0.36317	0.14537	0.38314	-0.024
Mof_C 	C 	0.5971	0.7819	0.742	0.321
Mof_C 	C 	0.8762	0.2218	0.8306	-0.041
Mof_C 	C 	0.3313	0.9282	0.266	0.36
Mof_C 	C 	0.7776	0.244	0.151	-0.063
Mof_C 	C 	0.3524	0.907	0.0916	0.37
Mof_C 	C 	0.2069	0.965	0.7836	-0.004
Mof_C 	C 	0.1515	0.6507	0.7366	-0.119
Mof_C 	C 	0.8837	0.9675	0.588	-0.033
Mof_C 	C 	0.2218	0.9544	0.8306	-0.038
Mof_C 	C 	0.9529	0.5893	0.867	-0.009
Mof_C 	C 	0.6114	0.3355	0.3158	0.21
Mof_C 	C 	0.3912	0.1238	0.1694	-0.023
Mof_C 	C 	0.9282	0.9347	0.266	0.361
Mof_C 	C 	0.6961	0.3987	0.348	0.197
Mof_C 	C 	0.6975	0.0226	0.1906	0.158
Mof_C 	C 	0.7815	0.9898	0.534	-0.095
Mof_C 	C 	0.907	0.7917	0.2398	0.126
Mof_C 	C 	0.9933	0.5767	0.2314	0.194
Mof_C 	C 	0.0718	0.0653	0.734	0.354
Mof_C 	C 	0.965	0.5767	0.7836	-0.004
Mof_C 	C 	0.9382	0.6181	0.9144	0.321
Mof_C 	C 	0.2224	0.756	0.849	-0.024
Mof_C 	C 	0.3039	0.6013	0.652	0.203
Mof_C 	C 	0.093	0.2083	0.7602	0.152
Mof_C 	C 	0.2185	0.0102	0.466	-0.107
Mof_C 	C 	0.5364	0.8904	0.8538	-0.134
Mof_C 	C 	0.14537	0.01997	0.38314	-0.034
Mof_C 	C 	0.9544	0.6088	0.8306	-0.038
Mof_C 	C 	0.6397	0.083	0.7694	-0.022
Mof_C 	C 	0.8485	0.3493	0.2634	-0.104
Mof_C 	C 	0.6266	0.093	0.849	-0.024
Mof_C 	C 	0.073	0.2676	0.7136	0.196
Mof_C 	C 	0.0081	0.8483	0.6208	0.331
Mof_C 	C 	0.5664	0.8654	0.5352	-0.1
Mof_C 	C 	0.832	0.3025	0.8094	0.182
Mof_C 	C 	0.1814	0.7931	0.2164	-0.024
Mof_C 	C 	0.3025	0.9774	0.8094	0.179
Mof_C 	C 	0.3594	0.554	0.2864	0.187
Mof_C 	C 	0.6535	0.4265	0.4022	0.201
Mof_C 	C 	0.2475	0.4558	0.466	-0.1
Mof_C 	C 	0.7037	0.0618	0.0856	0.331
Mof_C 	C 	0.7725	0.0081	0.6208	0.331
Mof_C 	C 	0.0388	0.3214	0.3798	0.322
Mof_C 	C 	0.0456	0.3912	0.1694	-0.026
Mof_C 	C 	0.5893	0.9141	0.867	-0.004
Mof_C 	C 	0.3136	0.3603	0.2306	-0.047
Mof_C 	C 	0.9688	0.6698	0.5352	-0.097
Mof_C 	C 	0.6507	0.5851	0.7366	-0.118
Mof_C 	C 	0.4149	0.9141	0.2634	-0.105
Mof_C 	C 	0.2608	0.8154	0.9084	0.354
Mof_C 	C 	0.5442	0.7815	0.534	-0.101
Mof_C 	C 	0.9601	0.5971	0.742	0.322
Mof_C 	C 	0.7844	0.5988	0.5904	-0.025
Mof_C 	C 	0.6601	0.0854	0.8242	-0.02
Mof_C 	C 	0.4263	0.9017	0.1802	-0.085
Mof_C 	C 	0.4233	0.1814	0.2164	-0.023
Mof_C 	C 	0.1641	0.7388	0.8242	-0.021
Mof_C 	C 	0.2937	0.5986	0.2548	0.205
Mof_C 	C 	0.9347	0.3378	0.266	0.361
Mof_C 	C 	0.4012	0.194	0.4096	-0.026
Mof_C 	C 	0.0214	0.3081	0.496	0.136
Mof_C 	C 	0.0584	0.0388	0.3798	0.322
Mof_C 	C 	0.0238	0.7037	0.0856	0.342
Mof_C 	C 	0.0399	0.4029	0.258	0.325
Mof_C 	C 	0.4558	0.2185	0.466	-0.1
Mof_C 	C 	0.9493	0.6961	0.348	0.196
Mof_C 	C 	0.554	0.927	0.2864	0.186
Mof_C 	C 	0.8904	0.3174	0.8538	-0.135
Mof_C 	C 	0.446	0.073	0.7136	0.196
Mof_C 	C 	0.3214	0.341	0.3798	0.323
Mof_C 	C 	0.3399	0.9146	0.1758	-0.001
Mof_C 	C 	0.6205	0.8837	0.588	-0.027
Mof_C 	C 	0.4931	0.168	0.1906	0.156
Mof_C 	C 	0.9017	0.7539	0.1802	-0.084
Mof_C 	C 	0.7324	0.3594	0.2864	0.186
Mof_C 	C 	0.907	0.7776	0.151	-0.064
Mof_C 	C 	0.6562	0.2937	0.2548	0.205
Mof_C 	C 	0.6088	0.8762	0.8306	-0.041
Mof_C 	C 	0.4014	0.0389	0.7452	0.215
Mof_C 	C 	0.247	0.9761	0.7728	-0.136
Mof_C 	C 	0.2956	0.0197	0.6842	0.218
Mof_C 	C 	0.7539	0.2785	0.1802	-0.085
Mof_C 	C 	0.7388	0.6601	0.8242	-0.019
Mof_C 	C 	0.0471	0.4107	0.133	-0.04
Mof_C 	C 	0.194	0.0084	0.4096	-0.011
Mof_C 	C 	0.3886	0.6645	0.6842	0.217
Mof_C 	C 	0.0859	0.1515	0.7366	-0.12
Mof_C 	C 	0.6406	0.446	0.7136	0.195
Mof_C 	C 	0.4265	0.7487	0.4022	0.201
Mof_C 	C 	0.5258	0.7967	0.7728	-0.137
Mof_C 	C 	0.7525	0.5442	0.534	-0.101
Mof_C 	C 	0.3378	0.3313	0.266	0.36
Mof_C 	C 	0.806	0.9916	0.5904	-0.039
Mof_C 	C 	0.1163	0.0325	0.412	-0.019
Mof_C 	C 	0.8703	0.3136	0.2306	-0.049
Mof_C 	C 	0.6919	0.5254	0.504	0.129
Mof_C 	C 	0.756	0.6266	0.849	-0.026
Mof_C 	C 	0.7819	0.1449	0.742	0.321
Mof_C 	C 	0.5851	0.0859	0.7366	-0.119
Mof_C 	C 	0.5986	0.9611	0.2548	0.204
Mof_C 	C 	0.5767	0.2381	0.2314	0.202
Mof_C 	C 	0.2957	0.3795	0.412	-0.027
Mof_C 	C 	0.093	0.2608	0.9084	0.353
Mof_C 	C 	0.7782	0.0456	0.1694	-0.026
Mof_C 	C 	0.7223	0.0471	0.133	-0.041
Mof_C 	C 	0.9774	0.5069	0.8094	0.178
Mof_C 	C 	0.8186	0.2069	0.7836	-0.001
Mof_C 	C 	0.1879	0.0214	0.496	0.137
Mof_C 	C 	0.7487	0.9757	0.4022	0.2
Mof_C 	C 	0.659	0.9416	0.6202	0.322
Mof_C 	C 	0.0243	0.3465	0.5978	0.207
Mof_C 	C 	0.2461	0.7215	0.8198	-0.102
Mof_C 	C 	0.01997	0.23777	0.38314	-0.033
Mof_C 	C 	0.9611	0.6562	0.2548	0.204
Mof_C 	C 	0.9898	0.7525	0.534	-0.095
Mof_C 	C 	0.3453	0.0067	0.7686	0.223
Mof_C 	C 	0.4107	0.0859	0.133	-0.044
Mof_C 	C 	0.0226	0.4931	0.1906	0.159
Mof_C 	C 	0.093	0.2224	0.849	-0.022
Mof_C 	C 	0.6864	0.6397	0.7694	-0.024
Mof_C 	C 	0.9757	0.6535	0.4022	0.2
Mof_C 	C 	0.927	0.7324	0.2864	0.186
Mof_C 	C 	0.0197	0.3886	0.6842	0.218
Mof_C 	C 	0.4029	0.2181	0.258	0.326
Mof_C 	C 	0.0325	0.2957	0.412	-0.021
Mof_C 	C 	0.4636	0.1096	0.1462	-0.117
Mof_C 	C 	0.6826	0.0366	0.1462	-0.12
Mof_C 	C 	0.0859	0.7223	0.133	-0.044
Mof_C 	C 	0.6645	0.2956	0.6842	0.217
Mof_C 	C 	0.2612	0.3399	0.1758	-0.002
Mof_C 	C 	0.168	0.6975	0.1906	0.156
Mof_C 	C 	0.8121	0.9786	0.504	0.124
Mof_C 	C 	0.083	0.1297	0.7694	-0.019
Mof_C 	C 	0.244	0.3734	0.151	-0.061
Mof_C 	C 	0.7043	0.6205	0.588	-0.026
Mof_C 	C 	0.6476	0.093	0.9084	0.354
Mof_C 	C 	0.3734	0.907	0.151	-0.063
Mof_C 	C 	0.2785	0.4263	0.1802	-0.086
Mof_C 	C 	0.5519	0.093	0.7602	0.15
Mof_C 	C 	0.0507	0.3039	0.652	0.204
Mof_C 	C 	0.2083	0.6672	0.7602	0.15
Mof_C 	C 	0.9146	0.8359	0.1758	-0
Mof_C 	C 	0.4336	0.1346	0.4648	-0.1
Mof_C 	C 	0.6127	0.7725	0.6208	0.321
Mof_C 	C 	0.6687	0.0718	0.734	0.355
Mof_C 	C 	0.9416	0.9612	0.6202	0.323
Mof_C 	C 	0.2381	0.6547	0.2314	0.202
Mof_C 	C 	0.3493	0.4149	0.2634	-0.105
Mof_C 	C 	0.035	0.4233	0.2164	-0.02
Mof_C 	C 	0.4746	0.1879	0.496	0.131
Mof_C 	C 	0.2513	0.0243	0.5978	0.207
Mof_C 	C 	0.6013	0.3481	0.652	0.202
Mof_C 	C 	0.7619	0.3453	0.7686	0.214
Mof_C 	C 	0.7044	0.9803	0.3158	0.209
Mof_C 	C 	0.9675	0.7043	0.588	-0.031
Mof_C 	C 	0.6698	0.5664	0.5352	-0.101
Mof_C 	C 	0.7392	0.1846	0.0916	0.37
Mof_C 	C 	0.3081	0.4746	0.496	0.13
Mof_C 	C 	0.6547	0.9933	0.2314	0.194
Mof_C 	C 	0.3481	0.0507	0.652	0.204
Mof_C 	C 	0.6622	0.6687	0.734	0.355
Mof_N 	N 	0.3034	0.5581	0.603	-0.16
Mof_N 	N 	0.0449	0.3034	0.603	-0.159
Mof_N 	N 	0.2277	0.6299	0.7234	-0.237
Mof_N 	N 	0.6299	0.4957	0.7234	-0.237
Mof_N 	N 	0.1868	0.6544	0.1942	-0.253
Mof_N 	N 	0.4602	0.8132	0.8058	-0.259
Mof_N 	N 	0.2015	0.0181	0.5494	-0.237
Mof_N 	N 	0.9275	0.7329	0.3362	-0.163
Mof_N 	N 	0.9737	0.6176	0.2194	-0.176
Mof_N 	N 	0.3982	0.0263	0.7806	-0.169
Mof_N 	N 	0.6509	0.9615	0.3058	-0.191
Mof_N 	N 	0.0385	0.3451	0.6942	-0.19
Mof_N 	N 	0.4239	0.7155	0.7184	-0.17
Mof_N 	N 	0.0029	0.4239	0.7184	-0.168
Mof_N 	N 	0.7723	0.3701	0.2766	-0.234
Mof_N 	N 	0.9551	0.6966	0.397	-0.162
Mof_N 	N 	0.5313	0.2015	0.5494	-0.237
Mof_N 	N 	0.3491	0.0385	0.6942	-0.19
Mof_N 	N 	0.9819	0.6521	0.4506	-0.236
Mof_N 	N 	0.9862	0.6107	0.3622	-0.178
Mof_N 	N 	0.3479	0.5313	0.5494	-0.236
Mof_N 	N 	0.3893	0.624	0.6378	-0.176
Mof_N 	N 	0.6544	0.0074	0.1942	-0.249
Mof_N 	N 	0.7329	0.4087	0.3362	-0.162
Mof_N 	N 	0.9065	0.7723	0.2766	-0.234
Mof_N 	N 	0.624	0.2485	0.6378	-0.176
Mof_N 	N 	0.2845	0.7055	0.2816	-0.17
Mof_N 	N 	0.7985	0.9819	0.4506	-0.236
Mof_N 	N 	0.376	0.7515	0.3622	-0.177
Mof_N 	N 	0.2996	0.0449	0.603	-0.159
Mof_N 	N 	0.2671	0.5913	0.6638	-0.159
Mof_N 	N 	0.4488	0.0574	0.7538	-0.161
Mof_N 	N 	0.0138	0.3893	0.6378	-0.175
Mof_N 	N 	0.4687	0.7985	0.4506	-0.236
Mof_N 	N 	0.6557	0.3491	0.6942	-0.19
Mof_N 	N 	0.6966	0.4419	0.397	-0.161
Mof_N 	N 	0.6521	0.4687	0.4506	-0.236
Mof_N 	N 	0.5043	0.9065	0.2766	-0.234
Mof_N 	N 	0.7155	0.2945	0.7184	-0.17
Mof_N 	N 	0.695	0.3036	0.2462	-0.166
Mof_N 	N 	0.3967	0.0725	0.6638	-0.159
Mof_N 	N 	0.4957	0.0935	0.7234	-0.237
Mof_N 	N 	0.0574	0.305	0.7538	-0.161
Mof_N 	N 	0.6964	0.4488	0.7538	-0.162
Mof_N 	N 	0.3824	0.7543	0.7806	-0.169
Mof_N 	N 	0.0181	0.3479	0.5494	-0.237
Mof_N 	N 	0.5581	0.2996	0.603	-0.16
Mof_N 	N 	0.6018	0.9737	0.2194	-0.176
Mof_N 	N 	0.0725	0.2671	0.6638	-0.159
Mof_N 	N 	0.6033	0.9275	0.3362	-0.163
Mof_N 	N 	0.3456	0.9926	0.8058	-0.264
Mof_N 	N 	0.9426	0.695	0.2462	-0.166
Mof_N 	N 	0.9615	0.6549	0.3058	-0.191
Mof_N 	N 	0.4419	0.7004	0.397	-0.161
Mof_N 	N 	0.4087	0.6033	0.3362	-0.162
Mof_N 	N 	0.7055	0.9971	0.2816	-0.171
Mof_N 	N 	0.8132	0.3456	0.8058	-0.259
Mof_N 	N 	0.2945	0.0029	0.7184	-0.168
Mof_N 	N 	0.7004	0.9551	0.397	-0.161
Mof_N 	N 	0.5512	0.9426	0.2462	-0.166
Mof_N 	N 	0.2457	0.6018	0.2194	-0.176
Mof_N 	N 	0.305	0.6964	0.7538	-0.162
Mof_N 	N 	0.5398	0.1868	0.1942	-0.253
Mof_N 	N 	0.0074	0.5398	0.1942	-0.249
Mof_N 	N 	0.6176	0.2457	0.2194	-0.176
Mof_N 	N 	0.7515	0.9862	0.3622	-0.178
Mof_N 	N 	0.3036	0.5512	0.2462	-0.166
Mof_N 	N 	0.6107	0.376	0.3622	-0.177
Mof_N 	N 	0.5913	0.3967	0.6638	-0.16
Mof_N 	N 	0.7543	0.3982	0.7806	-0.169
Mof_N 	N 	0.5761	0.2845	0.2816	-0.17
Mof_N 	N 	0.0935	0.2277	0.7234	-0.238
Mof_N 	N 	0.0263	0.3824	0.7806	-0.169
Mof_N 	N 	0.6549	0.3443	0.3058	-0.191
Mof_N 	N 	0.9926	0.4602	0.8058	-0.264
Mof_N 	N 	0.3443	0.6509	0.3058	-0.191
Mof_N 	N 	0.3701	0.5043	0.2766	-0.234
Mof_N 	N 	0.9971	0.5761	0.2816	-0.171
Mof_N 	N 	0.2485	0.0138	0.6378	-0.175
Mof_N 	N 	0.3451	0.6557	0.6942	-0.19
Mof_O 	O 	0.95059	0.62495	0.59346	-0.4
Mof_O 	O 	0.04941	0.37505	0.40654	-0.395
Mof_O 	O 	0.35713	0.03149	0.40654	-0.392
Mof_O 	O 	0.94276	0.6717	0.9336	-0.348
Mof_O 	O 	0.2857	0.29223	0.3266	-0.393
Mof_O 	O 	0.92477	0.59457	0.93494	-0.364
Mof_O 	O 	0.37505	0.35713	0.40654	-0.397
Mof_O 	O 	0.80414	0.11525	0.7665	-0.38
Mof_O 	O 	0.65125	0.80414	0.7665	-0.381
Mof_O 	O 	0.13007	0.42586	0.40278	-0.382
Mof_O 	O 	0.04124	0.43485	0.30718	-0.398
Mof_O 	O 	0.03601	0.61661	0.68562	-0.424
Mof_O 	O 	0.12055	0.33734	0.32948	-0.398
Mof_O 	O 	0.7381	0.05724	0.0664	-0.409
Mof_O 	O 	0.34037	0.92477	0.93494	-0.363
Mof_O 	O 	0.73406	0.12767	0.69282	-0.396
Mof_O 	O 	0.34875	0.19586	0.2335	-0.393
Mof_O 	O 	0.99084	0.2619	0.9336	-0.348
Mof_O 	O 	0.16934	0.38183	0.06946	-0.431
Mof_O 	O 	0.09988	0.31237	0.93054	-0.364
Mof_O 	O 	0.93099	0.96399	0.31438	-0.44
Mof_O 	O 	0.31237	0.83066	0.93054	-0.366
Mof_O 	O 	0.01017	0.34037	0.93494	-0.351
Mof_O 	O 	0.11525	0.96236	0.7665	-0.382
Mof_O 	O 	0.00916	0.7381	0.0664	-0.408
Mof_O 	O 	0.68763	0.16934	0.06946	-0.431
Mof_O 	O 	0.23751	0.84801	0.93262	-0.363
Mof_O 	O 	0.59457	0.01017	0.93494	-0.352
Mof_O 	O 	0.96399	0.38339	0.31438	-0.439
Mof_O 	O 	0.96851	0.95059	0.59346	-0.404
Mof_O 	O 	0.99214	0.12055	0.32948	-0.4
Mof_O 	O 	0.84801	0.69511	0.93262	-0.364
Mof_O 	O 	0.38183	0.90012	0.06946	-0.432
Mof_O 	O 	0.02308	0.86993	0.59722	-0.382
Mof_O 	O 	0.95251	0.29821	0.23422	-0.397
Mof_O 	O 	0.98983	0.65963	0.06506	-0.436
Mof_O 	O 	0.27271	0.97692	0.40278	-0.384
Mof_O 	O 	0.91539	0.76249	0.06738	-0.433
Mof_O 	O 	0.56515	0.73406	0.69282	-0.397
Mof_O 	O 	0.07523	0.40543	0.06506	-0.427
Mof_O 	O 	0.43485	0.26594	0.30718	-0.401
Mof_O 	O 	0.87233	0.04124	0.30718	-0.399
Mof_O 	O 	0.06901	0.03601	0.68562	-0.421
Mof_O 	O 	0.61817	0.09988	0.93054	-0.365
Mof_O 	O 	0.93601	0.95251	0.23422	-0.398
Mof_O 	O 	0.88475	0.03764	0.2335	-0.393
Mof_O 	O 	0.2619	0.94276	0.9336	-0.347
Mof_O 	O 	0.90012	0.68763	0.06946	-0.432
Mof_O 	O 	0.64961	0.06901	0.68562	-0.427
Mof_O 	O 	0.00786	0.87945	0.67052	-0.393
Mof_O 	O 	0.15199	0.30489	0.06738	-0.43
Mof_O 	O 	0.6717	0.99084	0.9336	-0.348
Mof_O 	O 	0.57414	0.72729	0.59722	-0.383
Mof_O 	O 	0.96236	0.65125	0.7665	-0.383
Mof_O 	O 	0.95876	0.56515	0.69282	-0.4
Mof_O 	O 	0.72729	0.02308	0.59722	-0.381
Mof_O 	O 	0.65963	0.07523	0.06506	-0.427
Mof_O 	O 	0.12767	0.95876	0.69282	-0.399
Mof_O 	O 	0.0409	0.03437	0.3266	-0.386
Mof_O 	O 	0.79107	0.00786	0.67052	-0.393
Mof_O 	O 	0.3283	0.00916	0.0664	-0.407
Mof_O 	O 	0.30489	0.91539	0.06738	-0.432
Mof_O 	O 	0.03764	0.34875	0.2335	-0.392
Mof_O 	O 	0.03149	0.04941	0.40654	-0.39
Mof_O 	O 	0.83066	0.61817	0.93054	-0.366
Mof_O 	O 	0.76249	0.15199	0.06738	-0.431
Mof_O 	O 	0.9591	0.96563	0.6734	-0.395
Mof_O 	O 	0.19586	0.88475	0.2335	-0.395
Mof_O 	O 	0.70179	0.71829	0.76578	-0.378
Mof_O 	O 	0.7143	0.70777	0.6734	-0.389
Mof_O 	O 	0.97692	0.13007	0.40278	-0.384
Mof_O 	O 	0.66266	0.79107	0.67052	-0.394
Mof_O 	O 	0.69511	0.08461	0.93262	-0.362
Mof_O 	O 	0.86993	0.57414	0.59722	-0.383
Mof_O 	O 	0.96563	0.7143	0.6734	-0.391
Mof_O 	O 	0.62495	0.64287	0.59346	-0.398
Mof_O 	O 	0.70777	0.9591	0.6734	-0.393
Mof_O 	O 	0.20893	0.99214	0.32948	-0.4
Mof_O 	O 	0.38339	0.35039	0.31438	-0.433
Mof_O 	O 	0.28171	0.93601	0.23422	-0.394
Mof_O 	O 	0.08461	0.23751	0.93262	-0.36
Mof_O 	O 	0.06399	0.04749	0.76578	-0.37
Mof_O 	O 	0.64287	0.96851	0.59346	-0.403
Mof_O 	O 	0.29821	0.28171	0.23422	-0.392
Mof_O 	O 	0.40543	0.98983	0.06506	-0.437
Mof_O 	O 	0.87945	0.66266	0.67052	-0.394
Mof_O 	O 	0.04749	0.70179	0.76578	-0.373
Mof_O 	O 	0.35039	0.93099	0.31438	-0.436
Mof_O 	O 	0.26594	0.87233	0.30718	-0.402
Mof_O 	O 	0.05724	0.3283	0.0664	-0.408
Mof_O 	O 	0.03437	0.2857	0.3266	-0.391
Mof_O 	O 	0.29223	0.0409	0.3266	-0.388
Mof_O 	O 	0.71829	0.06399	0.76578	-0.376
Mof_O 	O 	0.61661	0.64961	0.68562	-0.429
Mof_O 	O 	0.42586	0.27271	0.40278	-0.382
Mof_O 	O 	0.33734	0.20893	0.32948	-0.398
_end
