data_functionalizedCrystal
_audit_creation_method	'EQeq! by Chris Wilmer'
_symmetry_space_group_name_H-M	'P1'
_symmetry_Int_Tables_number	1
_symmetry_cell_setting	triclinic
loop_
_symmetry_equiv_pos_as_xyz
  x,y,z
_cell_length_a	26.52
_cell_length_b	26.52
_cell_length_c	26.52
_cell_angle_alpha	90
_cell_angle_beta	90
_cell_angle_gamma	90
loop_
_atom_site_label
_atom_site_type_symbol
_atom_site_fract_x
_atom_site_fract_y
_atom_site_fract_z
_atom_site_charge
Mof_O 	O 	0.12951	0.06887	0.99859	-0.641
Mof_O 	O 	0.86997	0.0678	0.00229	-0.638
Mof_O 	O 	0.00084	0.13003	0.93206	-0.667
Mof_O 	O 	0.99736	0.12957	0.06867	-0.619
Mof_O 	O 	0.99852	0.06794	0.13001	-0.613
Mof_O 	O 	0.00192	0.06869	0.87045	-0.66
Mof_O 	O 	0.9312	0.12953	0.00172	-0.63
Mof_O 	O 	0.06777	0.13011	0.9981	-0.653
Mof_Zr	Zr	0.99963	0.08878	0.00021	3.244
Mof_O 	O 	0.95416	0.04547	0.04594	-1.265
Mof_O 	O 	0.04559	0.0461	0.95437	-1.287
Mof_C 	C 	0.11454	0.1155	0.99748	0.483
Mof_C 	C 	0.88457	0.11457	0.00289	0.479
Mof_C 	C 	0.00221	0.11537	0.88534	0.493
Mof_C 	C 	0.99702	0.11466	0.11535	0.469
Mof_H 	H 	0.93262	0.06695	0.93313	0.328
Mof_O 	O 	0.95425	0.04548	0.9546	-1.492
Mof_H 	H 	0.06687	0.06726	0.06723	0.319
Mof_O 	O 	0.04542	0.04569	0.04567	-1.519
Mof_O 	O 	0.87055	0.93122	0.99875	-0.636
Mof_O 	O 	0.13019	0.93237	0.00137	-0.638
Mof_O 	O 	0.93177	0.99879	0.87026	-0.625
Mof_O 	O 	0.93189	0.00099	0.12991	-0.626
Mof_O 	O 	0.06849	0.99763	0.12971	-0.649
Mof_O 	O 	0.06833	0.00262	0.87024	-0.65
Mof_O 	O 	0.9993	0.87035	0.93153	-0.61
Mof_O 	O 	0.00267	0.87009	0.06812	-0.658
Mof_O 	O 	0.99811	0.93197	0.87017	-0.614
Mof_O 	O 	0.00178	0.93146	0.1297	-0.663
Mof_O 	O 	0.8703	0.99749	0.93176	-0.635
Mof_O 	O 	0.12981	0.00218	0.93173	-0.64
Mof_O 	O 	0.12992	0.99892	0.0682	-0.639
Mof_O 	O 	0.87036	0.00161	0.06849	-0.638
Mof_O 	O 	0.93229	0.86998	0.99768	-0.623
Mof_O 	O 	0.069	0.87059	0.00199	-0.648
Mof_Zr	Zr	0.9113	0.99967	0.00013	3.236
Mof_Zr	Zr	0.08878	0.00042	0.99999	3.237
Mof_Zr	Zr	4e-05	0.00026	0.91129	3.231
Mof_Zr	Zr	0.00013	0.99978	0.08878	3.232
Mof_Zr	Zr	0.00048	0.91126	0.99988	3.231
Mof_O 	O 	0.04607	0.95436	0.04568	-1.285
Mof_O 	O 	0.95453	0.95422	0.95426	-1.261
Mof_C 	C 	0.88551	0.88459	0.99733	0.475
Mof_C 	C 	0.11563	0.88561	0.00255	0.48
Mof_C 	C 	0.88508	0.99725	0.88503	0.476
Mof_C 	C 	0.88519	0.00214	0.11518	0.477
Mof_C 	C 	0.11519	0.99739	0.11488	0.481
Mof_C 	C 	0.11503	0.00333	0.88505	0.481
Mof_C 	C 	0.99786	0.88521	0.88487	0.465
Mof_C 	C 	0.00313	0.8848	0.11485	0.49
Mof_H 	H 	0.06739	0.93337	0.93277	0.316
Mof_O 	O 	0.04579	0.95476	0.95435	-1.524
Mof_H 	H 	0.93329	0.9325	0.06702	0.326
Mof_O 	O 	0.95472	0.95415	0.04553	-1.495
Mof_O 	O 	0.63032	0.56737	0.9991	-0.638
Mof_O 	O 	0.37065	0.56902	0.00132	-0.641
Mof_O 	O 	0.50294	0.63007	0.93216	-0.64
Mof_O 	O 	0.49947	0.62957	0.06871	-0.641
Mof_O 	O 	0.49791	0.56787	0.12995	-0.639
Mof_O 	O 	0.502	0.56881	0.87048	-0.641
Mof_O 	O 	0.43247	0.63017	0.00249	-0.638
Mof_O 	O 	0.56922	0.62924	0.99828	-0.639
Mof_Zr	Zr	0.50061	0.58876	0.00031	3.237
Mof_O 	O 	0.45451	0.54586	0.04583	-1.276
Mof_O 	O 	0.54619	0.54561	0.95457	-1.276
Mof_C 	C 	0.61583	0.61416	0.99779	0.479
Mof_C 	C 	0.38566	0.61562	0.00277	0.479
Mof_C 	C 	0.50341	0.61543	0.8854	0.479
Mof_C 	C 	0.49787	0.61464	0.11534	0.479
Mof_H 	H 	0.43344	0.56776	0.93308	0.322
Mof_O 	O 	0.45482	0.54604	0.95456	-1.509
Mof_H 	H 	0.56743	0.56641	0.06745	0.322
Mof_O 	O 	0.5458	0.54509	0.04582	-1.509
Mof_O 	O 	0.36971	0.43257	0.99828	-0.641
Mof_O 	O 	0.62923	0.43074	0.00231	-0.64
Mof_O 	O 	0.43199	0.49939	0.87007	-0.639
Mof_O 	O 	0.43162	0.50112	0.12974	-0.641
Mof_O 	O 	0.56801	0.49784	0.12998	-0.641
Mof_O 	O 	0.56867	0.50258	0.8705	-0.639
Mof_O 	O 	0.49707	0.37063	0.93099	-0.64
Mof_O 	O 	0.50045	0.36984	0.06762	-0.639
Mof_O 	O 	0.49853	0.43239	0.86981	-0.64
Mof_O 	O 	0.50175	0.43108	0.12935	-0.639
Mof_O 	O 	0.37042	0.49867	0.93147	-0.64
Mof_O 	O 	0.63003	0.50079	0.93208	-0.639
Mof_O 	O 	0.6296	0.49674	0.06864	-0.64
Mof_O 	O 	0.37022	0.50277	0.0682	-0.639
Mof_O 	O 	0.4308	0.37073	0.99709	-0.64
Mof_O 	O 	0.56737	0.36965	0.00092	-0.639
Mof_Zr	Zr	0.41128	0.50054	0.99987	3.237
Mof_Zr	Zr	0.58877	0.49935	0.00025	3.237
Mof_Zr	Zr	0.50021	0.50043	0.91126	3.237
Mof_Zr	Zr	0.49988	0.49964	0.08872	3.237
Mof_Zr	Zr	0.49938	0.41124	0.99952	3.237
Mof_O 	O 	0.54532	0.4537	0.04562	-1.276
Mof_O 	O 	0.45404	0.45478	0.95392	-1.277
Mof_C 	C 	0.38419	0.3858	0.99673	0.48
Mof_C 	C 	0.61415	0.38413	0.00254	0.479
Mof_C 	C 	0.38527	0.49823	0.88478	0.479
Mof_C 	C 	0.38496	0.50282	0.11494	0.479
Mof_C 	C 	0.61472	0.4963	0.11531	0.479
Mof_C 	C 	0.61535	0.5026	0.88537	0.479
Mof_C 	C 	0.49685	0.38565	0.88436	0.479
Mof_C 	C 	0.50191	0.38442	0.11437	0.479
Mof_H 	H 	0.56682	0.43277	0.93273	0.322
Mof_O 	O 	0.54538	0.45433	0.95431	-1.509
Mof_H 	H 	0.43242	0.43303	0.06669	0.322
Mof_O 	O 	0.4541	0.45452	0.04528	-1.509
Mof_O 	O 	0.13001	0.56794	0.49788	-0.64
Mof_O 	O 	0.87047	0.56871	0.50199	-0.639
Mof_O 	O 	0.00271	0.62956	0.43131	-0.659
Mof_O 	O 	0.99888	0.63001	0.56788	-0.611
Mof_O 	O 	0.99789	0.5687	0.62952	-0.618
Mof_O 	O 	0.00169	0.56795	0.36998	-0.665
Mof_O 	O 	0.93215	0.63001	0.50108	-0.627
Mof_O 	O 	0.06868	0.62958	0.49831	-0.65
Mof_Zr	Zr	0.0003	0.58874	0.49973	3.232
Mof_O 	O 	0.95436	0.546	0.54554	-1.266
Mof_O 	O 	0.04592	0.54551	0.45411	-1.285
Mof_C 	C 	0.11533	0.61469	0.49723	0.481
Mof_C 	C 	0.88542	0.61538	0.50243	0.477
Mof_C 	C 	0.00311	0.61466	0.38465	0.491
Mof_C 	C 	0.99753	0.61537	0.61461	0.466
Mof_H 	H 	0.93308	0.56714	0.43274	0.327
Mof_O 	O 	0.95455	0.5456	0.4543	-1.491
Mof_H 	H 	0.06726	0.56705	0.56693	0.317
Mof_O 	O 	0.04569	0.54554	0.54544	-1.526
Mof_O 	O 	0.87001	0.432	0.49788	-0.639
Mof_O 	O 	0.12952	0.43127	0.5022	-0.641
Mof_O 	O 	0.93174	0.49835	0.37017	-0.628
Mof_O 	O 	0.93159	0.50258	0.62968	-0.629
Mof_O 	O 	0.06819	0.49891	0.62982	-0.653
Mof_O 	O 	0.06827	0.50109	0.3702	-0.65
Mof_O 	O 	0.99734	0.37015	0.43188	-0.618
Mof_O 	O 	0.00106	0.3704	0.5685	-0.667
Mof_O 	O 	0.99838	0.43151	0.3703	-0.613
Mof_O 	O 	0.00189	0.432	0.62987	-0.662
Mof_O 	O 	0.87022	0.4981	0.43162	-0.639
Mof_O 	O 	0.12979	0.50158	0.43167	-0.64
Mof_O 	O 	0.12971	0.49775	0.56837	-0.641
Mof_O 	O 	0.87012	0.50174	0.56818	-0.64
Mof_O 	O 	0.93134	0.37039	0.49878	-0.631
Mof_O 	O 	0.06782	0.37	0.50164	-0.653
Mof_Zr	Zr	0.91121	0.50021	0.49993	3.237
Mof_Zr	Zr	0.08876	0.49974	0.5	3.238
Mof_Zr	Zr	-3.87178e-33	0.49982	0.41123	3.232
Mof_Zr	Zr	0.99993	0.50027	0.58872	3.243
Mof_Zr	Zr	0.99968	0.41128	0.50014	3.243
Mof_O 	O 	0.04554	0.45426	0.54582	-1.288
Mof_O 	O 	0.95409	0.45428	0.45427	-1.266
Mof_C 	C 	0.88469	0.38526	0.49745	0.477
Mof_C 	C 	0.11456	0.38462	0.50283	0.481
Mof_C 	C 	0.88504	0.4973	0.38493	0.477
Mof_C 	C 	0.88489	0.50311	0.61487	0.477
Mof_C 	C 	0.11489	0.49745	0.61508	0.481
Mof_C 	C 	0.11497	0.50217	0.38496	0.481
Mof_C 	C 	0.99699	0.38486	0.38515	0.468
Mof_C 	C 	0.00229	0.38526	0.61517	0.492
Mof_H 	H 	0.0669	0.43259	0.43306	0.317
Mof_O 	O 	0.04543	0.45422	0.45453	-1.525
Mof_H 	H 	0.93269	0.43328	0.56721	0.328
Mof_O 	O 	0.95427	0.45469	0.54563	-1.494
Mof_O 	O 	0.62949	0.0688	0.49769	-0.64
Mof_O 	O 	0.36999	0.0679	0.50209	-0.639
Mof_O 	O 	0.50094	0.12948	0.43125	-0.64
Mof_O 	O 	0.49726	0.13003	0.56786	-0.639
Mof_O 	O 	0.49839	0.06881	0.62957	-0.641
Mof_O 	O 	0.50181	0.06777	0.36999	-0.639
Mof_O 	O 	0.43126	0.12956	0.50097	-0.641
Mof_O 	O 	0.56776	0.13005	0.49809	-0.64
Mof_Zr	Zr	0.49962	0.08874	0.4997	3.237
Mof_O 	O 	0.45402	0.0458	0.54562	-1.277
Mof_O 	O 	0.54551	0.0457	0.45411	-1.276
Mof_C 	C 	0.61451	0.11545	0.49694	0.479
Mof_C 	C 	0.38463	0.11466	0.50236	0.479
Mof_C 	C 	0.50215	0.11454	0.38462	0.479
Mof_C 	C 	0.49693	0.11543	0.61463	0.479
Mof_H 	H 	0.43264	0.06654	0.43269	0.322
Mof_O 	O 	0.45424	0.04518	0.4543	-1.509
Mof_H 	H 	0.56687	0.06762	0.56681	0.322
Mof_O 	O 	0.5454	0.04593	0.54539	-1.509
Mof_O 	O 	0.37056	0.93116	0.49798	-0.64
Mof_O 	O 	0.63006	0.93214	0.50226	-0.639
Mof_O 	O 	0.4316	0.99718	0.37032	-0.64
Mof_O 	O 	0.43159	0.00267	0.62972	-0.639
Mof_O 	O 	0.56825	0.99927	0.62984	-0.639
Mof_O 	O 	0.56819	0.00096	0.37019	-0.64
Mof_O 	O 	0.49898	0.86986	0.43239	-0.64
Mof_O 	O 	0.50287	0.87066	0.569	-0.64
Mof_O 	O 	0.49794	0.93106	0.37063	-0.64
Mof_O 	O 	0.50163	0.93239	0.63021	-0.64
Mof_O 	O 	0.37014	0.99803	0.43182	-0.641
Mof_O 	O 	0.62971	0.00226	0.43164	-0.639
Mof_O 	O 	0.62976	0.99862	0.56837	-0.639
Mof_O 	O 	0.37012	0.00109	0.56826	-0.641
Mof_O 	O 	0.43227	0.86991	0.49921	-0.64
Mof_O 	O 	0.56876	0.87048	0.50196	-0.641
Mof_Zr	Zr	0.41123	0.99968	0.50005	3.237
Mof_Zr	Zr	0.58876	0.00032	0.50002	3.237
Mof_Zr	Zr	0.49994	0.99958	0.41129	3.237
Mof_Zr	Zr	0.49996	0.00044	0.58879	3.238
Mof_Zr	Zr	0.50037	0.91128	0.50046	3.237
Mof_O 	O 	0.54592	0.95467	0.54601	-1.276
Mof_O 	O 	0.45441	0.95386	0.45454	-1.276
Mof_C 	C 	0.38553	0.88451	0.49773	0.479
Mof_C 	C 	0.6154	0.88539	0.50299	0.479
Mof_C 	C 	0.3849	0.99665	0.38513	0.479
Mof_C 	C 	0.38487	0.00279	0.61493	0.479
Mof_C 	C 	0.61494	0.99812	0.61507	0.479
Mof_C 	C 	0.61489	0.0025	0.38493	0.479
Mof_C 	C 	0.49761	0.88443	0.38564	0.479
Mof_C 	C 	0.50321	0.88565	0.61564	0.479
Mof_H 	H 	0.56732	0.93289	0.43321	0.322
Mof_O 	O 	0.54572	0.95442	0.45466	-1.509
Mof_H 	H 	0.43316	0.93295	0.56744	0.322
Mof_O 	O 	0.4546	0.95447	0.54582	-1.509
Mof_C 	C 	0.22928	0.23095	0.99435	0.025
Mof_C 	C 	0.17933	0.24201	0.98024	-0.076
Mof_C 	C 	0.1421	0.20464	0.98136	0.045
Mof_C 	C 	0.15397	0.15514	0.99612	-0.143
Mof_C 	C 	0.20394	0.14391	0.00981	0.049
Mof_C 	C 	0.24103	0.18138	0.00919	-0.072
Mof_C 	C 	0.26884	0.27092	0.99402	0.024
Mof_C 	C 	0.31881	0.25952	0.98026	-0.074
Mof_C 	C 	0.35616	0.29675	0.98108	0.044
Mof_C 	C 	0.34443	0.34648	0.9952	-0.138
Mof_C 	C 	0.2944	0.35811	0.00831	0.044
Mof_C 	C 	0.25715	0.32077	0.00797	-0.071
Mof_H 	H 	0.10408	0.21445	0.97012	0.031
Mof_H 	H 	0.21429	0.10628	0.02182	0.034
Mof_H 	H 	0.39421	0.28659	0.97025	0.036
Mof_H 	H 	0.28411	0.39595	0.01972	0.034
Mof_H 	H 	0.2788	0.17161	0.02121	0.048
Mof_H 	H 	0.32907	0.22185	0.96835	0.048
Mof_H 	H 	0.16902	0.27947	0.96774	0.045
Mof_H 	H 	0.21934	0.33083	0.01961	0.046
Mof_C 	C 	0.23062	0.72962	0.49473	0.027
Mof_C 	C 	0.18092	0.74131	0.50918	-0.076
Mof_C 	C 	0.14351	0.70416	0.50954	0.043
Mof_C 	C 	0.1549	0.6542	0.49597	-0.138
Mof_C 	C 	0.20452	0.6424	0.48152	0.045
Mof_C 	C 	0.24184	0.67968	0.48067	-0.075
Mof_C 	C 	0.27057	0.76923	0.49475	0.026
Mof_C 	C 	0.32032	0.75755	0.50904	-0.073
Mof_C 	C 	0.35766	0.7948	0.50957	0.043
Mof_C 	C 	0.34612	0.84481	0.49632	-0.135
Mof_C 	C 	0.29646	0.85655	0.48198	0.043
Mof_C 	C 	0.25923	0.8192	0.48096	-0.074
Mof_H 	H 	0.10577	0.71447	0.52129	0.029
Mof_H 	H 	0.21446	0.60439	0.47038	0.036
Mof_H 	H 	0.39544	0.78452	0.52117	0.036
Mof_H 	H 	0.28638	0.89459	0.47104	0.038
Mof_H 	H 	0.2794	0.66942	0.46844	0.048
Mof_H 	H 	0.33031	0.71975	0.52075	0.048
Mof_H 	H 	0.17102	0.77906	0.52114	0.045
Mof_H 	H 	0.22163	0.82946	0.46883	0.046
Mof_C 	C 	0.77073	0.76908	0.99473	0.03
Mof_C 	C 	0.75886	0.81886	0.00874	-0.074
Mof_C 	C 	0.79595	0.85634	0.00912	0.037
Mof_C 	C 	0.84604	0.84494	0.99603	-0.125
Mof_C 	C 	0.85801	0.79523	0.98203	0.044
Mof_C 	C 	0.82079	0.75784	0.98115	-0.07
Mof_C 	C 	0.73115	0.72908	0.99471	0.031
Mof_C 	C 	0.74276	0.67941	0.00935	-0.076
Mof_C 	C 	0.70551	0.64206	0.00988	0.043
Mof_C 	C 	0.65557	0.65351	0.9963	-0.132
Mof_C 	C 	0.64391	0.70308	0.98157	0.045
Mof_C 	C 	0.68126	0.74031	0.98053	-0.074
Mof_H 	H 	0.78547	0.89414	0.02049	0.036
Mof_H 	H 	0.89612	0.78525	0.97125	0.047
Mof_H 	H 	0.71572	0.60434	0.02178	0.037
Mof_H 	H 	0.60593	0.71308	0.97036	0.037
Mof_H 	H 	0.8312	0.72021	0.96927	0.053
Mof_H 	H 	0.78049	0.6695	0.02134	0.051
Mof_H 	H 	0.72101	0.82881	0.02032	0.048
Mof_H 	H 	0.67106	0.77782	0.96809	0.049
Mof_C 	C 	0.76942	0.27032	0.4943	0.028
Mof_C 	C 	0.7582	0.32033	0.48052	-0.073
Mof_C 	C 	0.79551	0.35761	0.48162	0.044
Mof_C 	C 	0.84512	0.34574	0.49604	-0.133
Mof_C 	C 	0.85651	0.29571	0.50935	0.043
Mof_C 	C 	0.8191	0.25855	0.50874	-0.072
Mof_C 	C 	0.72946	0.23072	0.4941	0.028
Mof_C 	C 	0.74076	0.1808	0.48007	-0.073
Mof_C 	C 	0.70353	0.14345	0.48097	0.045
Mof_C 	C 	0.65389	0.15515	0.49544	-0.135
Mof_C 	C 	0.64237	0.20512	0.50888	0.044
Mof_C 	C 	0.67972	0.24235	0.50847	-0.073
Mof_H 	H 	0.78556	0.39568	0.47067	0.036
Mof_H 	H 	0.89424	0.28533	0.52105	0.039
Mof_H 	H 	0.71357	0.10545	0.46988	0.038
Mof_H 	H 	0.60461	0.21535	0.52059	0.036
Mof_H 	H 	0.829	0.22073	0.52048	0.05
Mof_H 	H 	0.77835	0.17059	0.46786	0.05
Mof_H 	H 	0.72065	0.33065	0.46831	0.048
Mof_H 	H 	0.66974	0.2801	0.52036	0.048
Mof_C 	C 	0.76907	0.22929	0.00562	0.027
Mof_C 	C 	0.75791	0.17928	0.01945	-0.073
Mof_C 	C 	0.7953	0.14207	0.01853	0.045
Mof_C 	C 	0.84493	0.15401	0.00424	-0.134
Mof_C 	C 	0.85626	0.20405	0.99088	0.044
Mof_C 	C 	0.81878	0.24112	0.99131	-0.072
Mof_C 	C 	0.72907	0.26883	0.00568	0.028
Mof_C 	C 	0.74031	0.31875	0.01975	-0.074
Mof_C 	C 	0.70308	0.35608	0.01873	0.045
Mof_C 	C 	0.65349	0.34439	0.00408	-0.135
Mof_C 	C 	0.64202	0.29442	0.99061	0.044
Mof_C 	C 	0.67938	0.25718	0.99116	-0.073
Mof_H 	H 	0.7854	0.104	0.02951	0.037
Mof_H 	H 	0.894	0.21447	0.97925	0.04
Mof_H 	H 	0.7131	0.39408	0.02986	0.037
Mof_H 	H 	0.60429	0.28418	0.97879	0.036
Mof_H 	H 	0.82864	0.27894	0.97953	0.051
Mof_H 	H 	0.77785	0.32897	0.03209	0.05
Mof_H 	H 	0.72033	0.16891	0.03155	0.049
Mof_H 	H 	0.66946	0.21942	0.97926	0.048
Mof_C 	C 	0.77054	0.73074	0.50558	0.027
Mof_C 	C 	0.7592	0.68078	0.51944	-0.072
Mof_C 	C 	0.79639	0.6434	0.51837	0.044
Mof_C 	C 	0.84602	0.65508	0.5039	-0.131
Mof_C 	C 	0.85757	0.70508	0.49059	0.044
Mof_C 	C 	0.82026	0.74236	0.49117	-0.07
Mof_C 	C 	0.73062	0.77038	0.50561	0.029
Mof_C 	C 	0.74189	0.82034	0.51955	-0.074
Mof_C 	C 	0.7046	0.85766	0.51866	0.046
Mof_C 	C 	0.65496	0.84586	0.5043	-0.136
Mof_C 	C 	0.64351	0.79588	0.49085	0.043
Mof_C 	C 	0.6809	0.7587	0.49125	-0.074
Mof_H 	H 	0.78632	0.60537	0.52936	0.039
Mof_H 	H 	0.89533	0.71533	0.47888	0.044
Mof_H 	H 	0.71458	0.89569	0.52971	0.037
Mof_H 	H 	0.60576	0.78557	0.47917	0.034
Mof_H 	H 	0.83027	0.78015	0.4794	0.052
Mof_H 	H 	0.77948	0.8306	0.53171	0.051
Mof_H 	H 	0.72162	0.67057	0.53167	0.048
Mof_H 	H 	0.67094	0.72094	0.47939	0.048
Mof_C 	C 	0.22946	0.26929	0.50547	0.027
Mof_C 	C 	0.24079	0.31917	0.51962	-0.075
Mof_C 	C 	0.20358	0.35655	0.51876	0.045
Mof_C 	C 	0.15395	0.34491	0.50423	-0.139
Mof_C 	C 	0.14241	0.29498	0.49066	0.043
Mof_C 	C 	0.17974	0.25772	0.49103	-0.076
Mof_C 	C 	0.26938	0.22965	0.50528	0.026
Mof_C 	C 	0.2581	0.17963	0.51896	-0.074
Mof_C 	C 	0.29539	0.14232	0.51792	0.043
Mof_C 	C 	0.34505	0.15418	0.50365	-0.136
Mof_C 	C 	0.35649	0.20422	0.4904	0.042
Mof_C 	C 	0.3191	0.2414	0.49096	-0.074
Mof_H 	H 	0.21363	0.39452	0.52994	0.036
Mof_H 	H 	0.10466	0.28479	0.47889	0.028
Mof_H 	H 	0.28539	0.10425	0.52881	0.037
Mof_H 	H 	0.39425	0.21459	0.47881	0.034
Mof_H 	H 	0.16974	0.22	0.47905	0.045
Mof_H 	H 	0.22051	0.16931	0.53107	0.046
Mof_H 	H 	0.27837	0.32933	0.53189	0.048
Mof_H 	H 	0.32906	0.27922	0.47929	0.047
Mof_C 	C 	0.2311	0.77088	0.0055	0.028
Mof_C 	C 	0.24254	0.82049	0.99058	-0.075
Mof_C 	C 	0.20523	0.85777	0.99006	0.043
Mof_C 	C 	0.15538	0.84629	0.00397	-0.137
Mof_C 	C 	0.14386	0.79677	0.01895	0.044
Mof_C 	C 	0.18128	0.75962	0.01996	-0.075
Mof_C 	C 	0.27074	0.73097	0.00545	0.027
Mof_C 	C 	0.25891	0.68115	0.9916	-0.074
Mof_C 	C 	0.29607	0.64375	0.99116	0.042
Mof_C 	C 	0.34618	0.65526	0.00406	-0.134
Mof_C 	C 	0.35813	0.70502	0.01788	0.044
Mof_C 	C 	0.32084	0.74234	0.0188	-0.073
Mof_H 	H 	0.21531	0.89544	0.97792	0.034
Mof_H 	H 	0.10595	0.78677	0.03039	0.033
Mof_H 	H 	0.2856	0.6059	0.97993	0.034
Mof_H 	H 	0.39626	0.71509	0.02849	0.039
Mof_H 	H 	0.17122	0.72214	0.0326	0.046
Mof_H 	H 	0.22103	0.67111	0.98018	0.045
Mof_H 	H 	0.2802	0.83042	0.97835	0.048
Mof_H 	H 	0.33122	0.78003	0.03054	0.049
Mof_C 	C 	0.9942	0.22967	0.23057	0.061
Mof_C 	C 	0.00845	0.17992	0.24225	-0.109
Mof_C 	C 	0.00889	0.14256	0.20502	-0.002
Mof_C 	C 	0.99558	0.15409	0.15502	-0.084
Mof_C 	C 	0.98126	0.20376	0.14327	0.037
Mof_C 	C 	0.98034	0.241	0.18061	-0.068
Mof_C 	C 	0.99427	0.26961	0.27018	0.062
Mof_C 	C 	0.00883	0.31928	0.25849	-0.11
Mof_C 	C 	0.00928	0.35669	0.29565	-0.005
Mof_C 	C 	0.99567	0.34531	0.34561	-0.082
Mof_C 	C 	0.98116	0.29571	0.3574	0.037
Mof_C 	C 	0.98022	0.25841	0.32011	-0.067
Mof_H 	H 	0.02049	0.10478	0.21531	0.035
Mof_H 	H 	0.97029	0.21382	0.10524	0.047
Mof_H 	H 	0.0211	0.3944	0.28535	0.033
Mof_H 	H 	0.97	0.28577	0.39541	0.047
Mof_H 	H 	0.96824	0.27861	0.17037	0.057
Mof_H 	H 	0.02078	0.32917	0.22074	0.042
Mof_H 	H 	0.02021	0.16992	0.28004	0.042
Mof_H 	H 	0.96793	0.22086	0.33037	0.057
Mof_C 	C 	0.49386	0.27076	0.76905	0.027
Mof_C 	C 	0.47961	0.25951	0.81892	-0.074
Mof_C 	C 	0.48056	0.29673	0.85627	0.045
Mof_C 	C 	0.49531	0.34629	0.84463	-0.135
Mof_C 	C 	0.50896	0.35776	0.79471	0.043
Mof_C 	C 	0.50849	0.32042	0.75747	-0.073
Mof_C 	C 	0.49399	0.2308	0.72947	0.027
Mof_C 	C 	0.48038	0.24204	0.67942	-0.074
Mof_C 	C 	0.48138	0.2047	0.64217	0.044
Mof_C 	C 	0.49555	0.15504	0.65411	-0.136
Mof_C 	C 	0.50872	0.14363	0.70417	0.043
Mof_C 	C 	0.5082	0.18106	0.7413	-0.074
Mof_H 	H 	0.46931	0.28672	0.89424	0.036
Mof_H 	H 	0.52089	0.39547	0.78452	0.036
Mof_H 	H 	0.47056	0.21468	0.60407	0.038
Mof_H 	H 	0.52026	0.10587	0.71461	0.034
Mof_H 	H 	0.52054	0.33035	0.71975	0.048
Mof_H 	H 	0.46836	0.27965	0.66905	0.049
Mof_H 	H 	0.46719	0.22198	0.82908	0.048
Mof_H 	H 	0.51982	0.17114	0.77915	0.048
Mof_C 	C 	0.99508	0.77021	0.76957	0.065
Mof_C 	C 	0.00889	0.75836	0.81941	-0.113
Mof_C 	C 	0.00937	0.79553	0.85682	-0.01
Mof_C 	C 	0.99655	0.84567	0.84529	-0.077
Mof_C 	C 	0.98273	0.8576	0.79552	0.036
Mof_C 	C 	0.98178	0.82032	0.7582	-0.067
Mof_C 	C 	0.99499	0.7306	0.72962	0.065
Mof_C 	C 	0.00989	0.7421	0.68001	-0.114
Mof_C 	C 	0.01026	0.70487	0.64265	-0.007
Mof_C 	C 	0.99624	0.65504	0.65403	-0.079
Mof_C 	C 	0.98131	0.64345	0.70355	0.037
Mof_C 	C 	0.98045	0.68079	0.7408	-0.068
Mof_H 	H 	0.02057	0.78507	0.89467	0.034
Mof_H 	H 	0.97216	0.89574	0.78543	0.048
Mof_H 	H 	0.02238	0.71501	0.60498	0.034
Mof_H 	H 	0.9698	0.60554	0.71349	0.045
Mof_H 	H 	0.97004	0.83072	0.72052	0.058
Mof_H 	H 	0.0222	0.77975	0.67014	0.042
Mof_H 	H 	0.02024	0.72046	0.82945	0.041
Mof_H 	H 	0.96784	0.67068	0.77828	0.058
Mof_C 	C 	0.49523	0.72951	0.23078	0.027
Mof_C 	C 	0.48205	0.67937	0.24213	-0.073
Mof_C 	C 	0.48297	0.64212	0.20478	0.044
Mof_C 	C 	0.49664	0.65413	0.15498	-0.135
Mof_C 	C 	0.50937	0.70429	0.14348	0.043
Mof_C 	C 	0.50893	0.74142	0.18092	-0.074
Mof_C 	C 	0.49509	0.76911	0.27073	0.027
Mof_C 	C 	0.4804	0.81887	0.25956	-0.074
Mof_C 	C 	0.48125	0.85624	0.29677	0.045
Mof_C 	C 	0.49631	0.84471	0.34627	-0.135
Mof_C 	C 	0.51046	0.79491	0.35767	0.043
Mof_C 	C 	0.5101	0.75766	0.32032	-0.074
Mof_H 	H 	0.47249	0.60395	0.21486	0.038
Mof_H 	H 	0.52047	0.71482	0.10561	0.035
Mof_H 	H 	0.46963	0.89411	0.28684	0.036
Mof_H 	H 	0.52267	0.78483	0.39531	0.034
Mof_H 	H 	0.52019	0.77934	0.17089	0.048
Mof_H 	H 	0.46769	0.82894	0.2221	0.048
Mof_H 	H 	0.47043	0.66892	0.27984	0.049
Mof_H 	H 	0.52251	0.72004	0.33018	0.048
Mof_C 	C 	0.006	0.7696	0.22984	-0.007
Mof_C 	C 	0.01994	0.75836	0.17988	-0.079
Mof_C 	C 	0.01899	0.79566	0.14258	0.052
Mof_C 	C 	0.00454	0.84527	0.15439	-0.186
Mof_C 	C 	0.99109	0.85669	0.20439	0.09
Mof_C 	C 	0.99157	0.81929	0.24155	-0.036
Mof_C 	C 	0.00602	0.72965	0.26943	-0.007
Mof_C 	C 	0.02	0.74094	0.31937	-0.079
Mof_C 	C 	0.01903	0.70371	0.35671	0.052
Mof_C 	C 	0.00455	0.65408	0.34498	-0.187
Mof_C 	C 	0.99108	0.6426	0.29501	0.092
Mof_C 	C 	0.99157	0.67995	0.25778	-0.036
Mof_H 	H 	0.03005	0.78569	0.10455	0.029
Mof_H 	H 	0.97936	0.89442	0.21471	0.036
Mof_H 	H 	0.03011	0.71373	0.39472	0.031
Mof_H 	H 	0.97931	0.60486	0.28476	0.036
Mof_H 	H 	0.97971	0.8292	0.27933	0.054
Mof_H 	H 	0.03224	0.77852	0.32959	0.04
Mof_H 	H 	0.03216	0.72079	0.16961	0.041
Mof_H 	H 	0.97971	0.67	0.22002	0.054
Mof_C 	C 	0.50639	0.73076	0.77053	0.028
Mof_C 	C 	0.49175	0.68113	0.75882	-0.074
Mof_C 	C 	0.49124	0.6437	0.79594	0.043
Mof_C 	C 	0.50486	0.65502	0.84591	-0.136
Mof_C 	C 	0.51952	0.70457	0.85773	0.045
Mof_C 	C 	0.52051	0.7419	0.82047	-0.074
Mof_C 	C 	0.50645	0.77073	0.73095	0.027
Mof_C 	C 	0.49225	0.8205	0.74265	-0.073
Mof_C 	C 	0.49168	0.85783	0.70541	0.043
Mof_C 	C 	0.50481	0.84627	0.65536	-0.135
Mof_C 	C 	0.5191	0.7966	0.6436	0.044
Mof_C 	C 	0.52015	0.75938	0.68095	-0.073
Mof_H 	H 	0.47934	0.60602	0.78561	0.034
Mof_H 	H 	0.5307	0.71445	0.89575	0.037
Mof_H 	H 	0.48012	0.89562	0.71571	0.036
Mof_H 	H 	0.52994	0.78651	0.60554	0.039
Mof_H 	H 	0.53288	0.77942	0.83074	0.049
Mof_H 	H 	0.48062	0.8305	0.78048	0.048
Mof_H 	H 	0.47974	0.67129	0.72107	0.047
Mof_H 	H 	0.53222	0.72177	0.67068	0.048
Mof_C 	C 	0.50438	0.26908	0.22932	0.027
Mof_C 	C 	0.49036	0.25741	0.17949	-0.073
Mof_C 	C 	0.48999	0.29468	0.14216	0.043
Mof_C 	C 	0.50315	0.3447	0.15378	-0.134
Mof_C 	C 	0.51721	0.35643	0.20353	0.044
Mof_C 	C 	0.51806	0.31907	0.24074	-0.073
Mof_C 	C 	0.50432	0.22944	0.26925	0.027
Mof_C 	C 	0.48966	0.24107	0.3189	-0.074
Mof_C 	C 	0.48937	0.20393	0.35633	0.043
Mof_C 	C 	0.50322	0.15403	0.345	-0.135
Mof_C 	C 	0.51779	0.14227	0.29541	0.045
Mof_C 	C 	0.51857	0.17955	0.25807	-0.073
Mof_H 	H 	0.47859	0.28439	0.10432	0.036
Mof_H 	H 	0.52805	0.39448	0.21368	0.039
Mof_H 	H 	0.47749	0.2142	0.39403	0.034
Mof_H 	H 	0.52913	0.10431	0.2855	0.039
Mof_H 	H 	0.52999	0.32932	0.27841	0.049
Mof_H 	H 	0.47754	0.27878	0.32877	0.047
Mof_H 	H 	0.47875	0.2196	0.16942	0.048
Mof_H 	H 	0.53094	0.16933	0.22054	0.049
Mof_C 	C 	0.00478	0.23062	0.77034	-0.009
Mof_C 	C 	0.01862	0.18066	0.75898	-0.08
Mof_C 	C 	0.01775	0.14331	0.79622	0.053
Mof_C 	C 	0.00349	0.15504	0.84591	-0.192
Mof_C 	C 	0.99016	0.20503	0.85746	0.095
Mof_C 	C 	0.99056	0.24227	0.82012	-0.034
Mof_C 	C 	0.00473	0.27025	0.73041	-0.009
Mof_C 	C 	0.01882	0.32017	0.74164	-0.079
Mof_C 	C 	0.01797	0.35747	0.70434	0.053
Mof_C 	C 	0.00347	0.34571	0.65473	-0.19
Mof_C 	C 	0.98981	0.29578	0.64333	0.094
Mof_C 	C 	0.99018	0.2586	0.68073	-0.034
Mof_H 	H 	0.02872	0.10528	0.78613	0.028
Mof_H 	H 	0.9786	0.2153	0.89526	0.036
Mof_H 	H 	0.02917	0.39546	0.71429	0.03
Mof_H 	H 	0.978	0.2855	0.60561	0.036
Mof_H 	H 	0.97882	0.28006	0.83013	0.054
Mof_H 	H 	0.03111	0.3304	0.7792	0.04
Mof_H 	H 	0.0307	0.17042	0.72136	0.04
Mof_H 	H 	0.9782	0.22086	0.67083	0.054
Mof_C 	C 	0.23026	0.99414	0.23	0.026
Mof_C 	C 	0.2419	0.00906	0.18042	-0.072
Mof_C 	C 	0.20471	0.0097	0.14304	0.047
Mof_C 	C 	0.15478	0.99593	0.15436	-0.14
Mof_C 	C 	0.14306	0.98103	0.20386	0.045
Mof_C 	C 	0.18037	0.9799	0.24113	-0.075
Mof_C 	C 	0.26984	0.99395	0.26996	0.026
Mof_C 	C 	0.25805	0.00787	0.31979	-0.072
Mof_C 	C 	0.29522	0.00823	0.35718	0.044
Mof_C 	C 	0.34529	0.99519	0.34564	-0.137
Mof_C 	C 	0.35715	0.98117	0.29591	0.045
Mof_C 	C 	0.31986	0.98033	0.25861	-0.074
Mof_H 	H 	0.21495	0.02179	0.1054	0.035
Mof_H 	H 	0.10508	0.96971	0.21375	0.033
Mof_H 	H 	0.28484	0.01958	0.39501	0.034
Mof_H 	H 	0.39524	0.97041	0.28584	0.036
Mof_H 	H 	0.17015	0.96731	0.27859	0.046
Mof_H 	H 	0.22021	0.01944	0.32981	0.046
Mof_H 	H 	0.27963	0.02115	0.1706	0.048
Mof_H 	H 	0.33019	0.96849	0.22094	0.048
Mof_C 	C 	0.27011	0.49534	0.7697	0.026
Mof_C 	C 	0.31977	0.50995	0.75802	-0.074
Mof_C 	C 	0.35717	0.51049	0.79521	0.043
Mof_C 	C 	0.34578	0.49694	0.84518	-0.135
Mof_C 	C 	0.29619	0.48236	0.85695	0.043
Mof_C 	C 	0.25891	0.48133	0.81965	-0.074
Mof_C 	C 	0.23013	0.49516	0.73011	0.027
Mof_C 	C 	0.18034	0.50924	0.74185	-0.076
Mof_C 	C 	0.14292	0.50949	0.70469	0.043
Mof_C 	C 	0.1544	0.49617	0.65468	-0.139
Mof_C 	C 	0.20411	0.48203	0.64287	0.045
Mof_C 	C 	0.24143	0.48129	0.68015	-0.075
Mof_H 	H 	0.39488	0.52233	0.78493	0.034
Mof_H 	H 	0.28624	0.47121	0.89495	0.037
Mof_H 	H 	0.10511	0.52096	0.71503	0.028
Mof_H 	H 	0.21415	0.47106	0.60483	0.036
Mof_H 	H 	0.22139	0.46896	0.82991	0.046
Mof_H 	H 	0.17035	0.521	0.77964	0.044
Mof_H 	H 	0.32966	0.52186	0.72025	0.047
Mof_H 	H 	0.27907	0.46932	0.66985	0.048
Mof_C 	C 	0.76995	0.99486	0.76986	0.028
Mof_C 	C 	0.81984	0.00854	0.7581	-0.072
Mof_C 	C 	0.85721	0.00883	0.79531	0.04
Mof_C 	C 	0.84558	0.99595	0.84541	-0.128
Mof_C 	C 	0.79577	0.98222	0.85726	0.043
Mof_C 	C 	0.75849	0.98146	0.81992	-0.071
Mof_C 	C 	0.73002	0.99507	0.73023	0.03
Mof_C 	C 	0.68046	0.01014	0.74177	-0.075
Mof_C 	C 	0.64311	0.01074	0.70455	0.043
Mof_C 	C 	0.65443	0.99679	0.65467	-0.134
Mof_C 	C 	0.70391	0.98174	0.64303	0.046
Mof_C 	C 	0.74115	0.98064	0.68038	-0.073
Mof_H 	H 	0.8951	0.01997	0.78491	0.043
Mof_H 	H 	0.7856	0.97161	0.89536	0.04
Mof_H 	H 	0.60548	0.02294	0.71472	0.035
Mof_H 	H 	0.71378	0.97027	0.6051	0.038
Mof_H 	H 	0.72076	0.96981	0.83026	0.049
Mof_H 	H 	0.67064	0.02237	0.77945	0.048
Mof_H 	H 	0.82995	0.01995	0.72024	0.051
Mof_H 	H 	0.77858	0.96792	0.67023	0.051
Mof_C 	C 	0.72986	0.49351	0.2304	0.028
Mof_C 	C 	0.74122	0.47995	0.18036	-0.074
Mof_C 	C 	0.70392	0.4808	0.14308	0.045
Mof_C 	C 	0.65417	0.49475	0.15495	-0.136
Mof_C 	C 	0.64261	0.5077	0.20504	0.043
Mof_C 	C 	0.68002	0.50734	0.24221	-0.074
Mof_C 	C 	0.76986	0.49377	0.26995	0.028
Mof_C 	C 	0.7588	0.4795	0.31985	-0.073
Mof_C 	C 	0.79609	0.48072	0.35713	0.044
Mof_C 	C 	0.84554	0.49575	0.34537	-0.132
Mof_C 	C 	0.85681	0.50951	0.29543	0.044
Mof_C 	C 	0.8194	0.50878	0.25827	-0.072
Mof_H 	H 	0.71402	0.47011	0.10498	0.037
Mof_H 	H 	0.60477	0.519	0.21544	0.035
Mof_H 	H 	0.78626	0.46939	0.39512	0.037
Mof_H 	H 	0.89442	0.52168	0.28517	0.04
Mof_H 	H 	0.66999	0.51885	0.28006	0.048
Mof_H 	H 	0.72137	0.46683	0.3301	0.048
Mof_H 	H 	0.7789	0.46818	0.17001	0.051
Mof_H 	H 	0.82916	0.52089	0.22054	0.05
Mof_C 	C 	0.23013	0.00609	0.76997	0.027
Mof_C 	C 	0.24166	0.9911	0.81955	-0.074
Mof_C 	C 	0.20447	0.99068	0.85692	0.045
Mof_C 	C 	0.15463	0.00473	0.84558	-0.14
Mof_C 	C 	0.14299	0.01974	0.7961	0.045
Mof_C 	C 	0.18032	0.02065	0.75883	-0.076
Mof_C 	C 	0.26973	0.006	0.73003	0.026
Mof_C 	C 	0.2579	0.99216	0.6802	-0.073
Mof_C 	C 	0.29511	0.99156	0.64284	0.042
Mof_C 	C 	0.34526	0.00429	0.65442	-0.135
Mof_C 	C 	0.35716	0.01818	0.70418	0.044
Mof_C 	C 	0.31984	0.01926	0.74144	-0.073
Mof_H 	H 	0.21462	0.97848	0.89455	0.034
Mof_H 	H 	0.10508	0.03127	0.78622	0.032
Mof_H 	H 	0.28468	0.98032	0.60499	0.034
Mof_H 	H 	0.3953	0.0287	0.71431	0.039
Mof_H 	H 	0.1702	0.03331	0.72137	0.046
Mof_H 	H 	0.22	0.98086	0.67014	0.045
Mof_H 	H 	0.27931	0.97875	0.82937	0.048
Mof_H 	H 	0.33022	0.03103	0.77912	0.048
Mof_C 	C 	0.26985	0.50529	0.2301	0.026
Mof_C 	C 	0.31974	0.49162	0.24187	-0.074
Mof_C 	C 	0.35709	0.49128	0.20465	0.042
Mof_C 	C 	0.34545	0.50411	0.15455	-0.135
Mof_C 	C 	0.29564	0.51781	0.14269	0.043
Mof_C 	C 	0.25838	0.51863	0.18003	-0.074
Mof_C 	C 	0.22995	0.50515	0.26976	0.027
Mof_C 	C 	0.1804	0.49005	0.25826	-0.076
Mof_C 	C 	0.14307	0.48949	0.29551	0.043
Mof_C 	C 	0.15443	0.5035	0.34535	-0.138
Mof_C 	C 	0.2039	0.51858	0.35695	0.045
Mof_C 	C 	0.24111	0.51964	0.31958	-0.075
Mof_H 	H 	0.39498	0.48015	0.21506	0.035
Mof_H 	H 	0.28546	0.52837	0.10457	0.038
Mof_H 	H 	0.10545	0.47726	0.28537	0.029
Mof_H 	H 	0.21379	0.53009	0.39487	0.036
Mof_H 	H 	0.22064	0.53026	0.1697	0.047
Mof_H 	H 	0.17056	0.47777	0.2206	0.045
Mof_H 	H 	0.32987	0.48025	0.27974	0.047
Mof_H 	H 	0.27855	0.53238	0.32969	0.048
Mof_C 	C 	0.77003	0.00503	0.23025	0.029
Mof_C 	C 	0.81967	0.99035	0.2419	-0.073
Mof_C 	C 	0.85707	0.98982	0.20471	0.042
Mof_C 	C 	0.84569	0.00347	0.15477	-0.13
Mof_C 	C 	0.79613	0.01814	0.14302	0.044
Mof_C 	C 	0.75885	0.01915	0.18033	-0.073
Mof_C 	C 	0.73006	0.00514	0.26984	0.03
Mof_C 	C 	0.68028	0.99104	0.25809	-0.075
Mof_C 	C 	0.64288	0.99066	0.29528	0.042
Mof_C 	C 	0.65438	0.00386	0.34532	-0.134
Mof_C 	C 	0.70408	0.01803	0.35713	0.045
Mof_C 	C 	0.74138	0.01889	0.31983	-0.073
Mof_H 	H 	0.89476	0.97791	0.21498	0.04
Mof_H 	H 	0.7862	0.02936	0.10503	0.037
Mof_H 	H 	0.60508	0.97919	0.28492	0.035
Mof_H 	H 	0.71414	0.02892	0.39519	0.038
Mof_H 	H 	0.72134	0.03157	0.17009	0.049
Mof_H 	H 	0.67028	0.97937	0.22028	0.048
Mof_H 	H 	0.82954	0.97836	0.27965	0.051
Mof_H 	H 	0.77901	0.03087	0.33014	0.051
Mof_C 	C 	0.73039	0.50583	0.77018	0.028
Mof_C 	C 	0.74212	0.49119	0.81982	-0.073
Mof_C 	C 	0.70495	0.49059	0.85724	0.044
Mof_C 	C 	0.65496	0.50411	0.84589	-0.135
Mof_C 	C 	0.64317	0.51879	0.79633	0.044
Mof_C 	C 	0.68045	0.51987	0.75903	-0.073
Mof_C 	C 	0.76993	0.50594	0.73016	0.028
Mof_C 	C 	0.75812	0.49182	0.68039	-0.073
Mof_C 	C 	0.79525	0.49141	0.64295	0.043
Mof_C 	C 	0.84531	0.50459	0.65439	-0.132
Mof_C 	C 	0.85719	0.51879	0.70406	0.046
Mof_C 	C 	0.81994	0.51969	0.7414	-0.072
Mof_H 	H 	0.71527	0.47871	0.89493	0.037
Mof_H 	H 	0.60516	0.52992	0.7864	0.039
Mof_H 	H 	0.78486	0.47992	0.60517	0.036
Mof_H 	H 	0.89527	0.52966	0.71406	0.041
Mof_H 	H 	0.67016	0.53227	0.72153	0.049
Mof_H 	H 	0.7203	0.48014	0.67045	0.048
Mof_H 	H 	0.77989	0.47927	0.82967	0.051
Mof_H 	H 	0.8303	0.53169	0.77902	0.052
_end
