data_functionalizedCrystal
_audit_creation_method	'EQeq! by Chris Wilmer'
_symmetry_space_group_name_H-M	'P1'
_symmetry_Int_Tables_number	1
_symmetry_cell_setting	triclinic
loop_
_symmetry_equiv_pos_as_xyz
  x,y,z
_cell_length_a	5.7277
_cell_length_b	12.1722
_cell_length_c	22.9034
_cell_angle_alpha	98.857
_cell_angle_beta	90
_cell_angle_gamma	90
loop_
_atom_site_label
_atom_site_type_symbol
_atom_site_fract_x
_atom_site_fract_y
_atom_site_fract_z
_atom_site_charge
Mof_Sr	Sr	0.25535	0.63348	0.22433	1.686
Mof_Sr	Sr	0.75535	0.86652	0.27567	1.685
Mof_Sr	Sr	0.74465	0.36652	0.77567	1.686
Mof_Sr	Sr	0.24465	0.13348	0.72433	1.685
Mof_H 	H 	0.5127	0.3711	0.9359	0.002
Mof_H 	H 	0.4362	0.4193	0.0353	0.089
Mof_H 	H 	0.795	0.2868	0.0102	0.075
Mof_H 	H 	0.8727	0.2398	0.9101	-0.006
Mof_H 	H 	0.4341	0.3408	0.17	0.063
Mof_H 	H 	0.5194	0.1903	0.2167	0.025
Mof_H 	H 	0.8927	0.0568	0.1716	0.01
Mof_H 	H 	0.809	0.2047	0.1218	0.062
Mof_H 	H 	0.0127	0.1289	0.5641	-0.001
Mof_H 	H 	0.9362	0.0807	0.4647	0.093
Mof_H 	H 	0.295	0.2132	0.4898	0.078
Mof_H 	H 	0.3727	0.2602	0.5899	-0.007
Mof_H 	H 	0.9341	0.1592	0.33	0.073
Mof_H 	H 	0.0194	0.3097	0.2833	0.014
Mof_H 	H 	0.3927	0.4432	0.3284	-0.005
Mof_H 	H 	0.309	0.2953	0.3782	0.073
Mof_H 	H 	0.4873	0.6289	0.0641	0.003
Mof_H 	H 	0.5638	0.5807	0.9647	0.09
Mof_H 	H 	0.205	0.7132	0.9898	0.076
Mof_H 	H 	0.1273	0.7602	0.0899	-0.005
Mof_H 	H 	0.5659	0.6592	0.83	0.064
Mof_H 	H 	0.4806	0.8097	0.7833	0.026
Mof_H 	H 	0.1073	0.9432	0.8284	0.01
Mof_H 	H 	0.191	0.7953	0.8782	0.062
Mof_H 	H 	0.9873	0.8711	0.4359	-0.001
Mof_H 	H 	0.0638	0.9193	0.5353	0.093
Mof_H 	H 	0.705	0.7868	0.5102	0.078
Mof_H 	H 	0.6273	0.7398	0.4101	-0.007
Mof_H 	H 	0.0659	0.8408	0.67	0.073
Mof_H 	H 	0.9806	0.6903	0.7167	0.014
Mof_H 	H 	0.6073	0.5568	0.6716	-0.005
Mof_H 	H 	0.691	0.7047	0.6218	0.073
Mof_C 	C 	0.2462	0.2761	0.84752	0.45
Mof_C 	C 	0.199	0.3027	0.91271	-0.183
Mof_C 	C 	0.3675	0.3552	0.95073	0.083
Mof_C 	C 	0.3227	0.384	0.01003	-0.119
Mof_C 	C 	0.1071	0.3599	0.03157	0.017
Mof_C 	C 	0.9381	0.3047	0.9949	-0.112
Mof_C 	C 	0.9851	0.2765	0.9352	0.078
Mof_C 	C 	0.1122	0.2871	0.1425	-0.019
Mof_C 	C 	0.3263	0.2838	0.17017	-0.081
Mof_C 	C 	0.376	0.1938	0.19807	0.042
Mof_C 	C 	0.2155	0.1084	0.19882	-0.157
Mof_C 	C 	0.0017	0.1132	0.17081	0.035
Mof_C 	C 	0.9502	0.2021	0.14166	-0.075
Mof_C 	C 	0.272	0.0129	0.23206	0.472
Mof_C 	C 	0.7462	0.2239	0.65248	0.452
Mof_C 	C 	0.699	0.1973	0.58729	-0.188
Mof_C 	C 	0.8675	0.1448	0.54927	0.09
Mof_C 	C 	0.8227	0.116	0.48997	-0.125
Mof_C 	C 	0.6071	0.1401	0.46843	0.024
Mof_C 	C 	0.4381	0.1953	0.5051	-0.12
Mof_C 	C 	0.4851	0.2235	0.5648	0.083
Mof_C 	C 	0.6122	0.2129	0.3575	0.002
Mof_C 	C 	0.8263	0.2162	0.32983	-0.104
Mof_C 	C 	0.876	0.3062	0.30193	0.069
Mof_C 	C 	0.7155	0.3916	0.30118	-0.179
Mof_C 	C 	0.5017	0.3868	0.32919	0.072
Mof_C 	C 	0.4502	0.2979	0.35834	-0.109
Mof_C 	C 	0.772	0.4871	0.26794	0.485
Mof_C 	C 	0.7538	0.7239	0.15248	0.45
Mof_C 	C 	0.801	0.6973	0.08729	-0.183
Mof_C 	C 	0.6325	0.6448	0.04927	0.083
Mof_C 	C 	0.6773	0.616	0.98997	-0.119
Mof_C 	C 	0.8929	0.6401	0.96843	0.017
Mof_C 	C 	0.0619	0.6953	0.0051	-0.112
Mof_C 	C 	0.0149	0.7235	0.0648	0.078
Mof_C 	C 	0.8878	0.7129	0.8575	-0.019
Mof_C 	C 	0.6737	0.7162	0.82983	-0.081
Mof_C 	C 	0.624	0.8062	0.80193	0.042
Mof_C 	C 	0.7845	0.8916	0.80118	-0.157
Mof_C 	C 	0.9983	0.8868	0.82919	0.035
Mof_C 	C 	0.0498	0.7979	0.85834	-0.075
Mof_C 	C 	0.728	0.9871	0.76794	0.472
Mof_C 	C 	0.2538	0.7761	0.34752	0.452
Mof_C 	C 	0.301	0.8027	0.41271	-0.188
Mof_C 	C 	0.1325	0.8552	0.45073	0.09
Mof_C 	C 	0.1773	0.884	0.51003	-0.125
Mof_C 	C 	0.3929	0.8599	0.53157	0.024
Mof_C 	C 	0.5619	0.8047	0.4949	-0.12
Mof_C 	C 	0.5149	0.7765	0.4352	0.083
Mof_C 	C 	0.3878	0.7871	0.6425	0.002
Mof_C 	C 	0.1737	0.7838	0.67017	-0.104
Mof_C 	C 	0.124	0.6938	0.69807	0.069
Mof_C 	C 	0.2845	0.6084	0.69882	-0.179
Mof_C 	C 	0.4983	0.6132	0.67081	0.072
Mof_C 	C 	0.5498	0.7021	0.64166	-0.109
Mof_C 	C 	0.228	0.5129	0.73206	0.485
Mof_S 	S 	0.03829	0.40134	0.10715	0.313
Mof_S 	S 	0.53829	0.09866	0.39285	0.308
Mof_S 	S 	0.96171	0.59866	0.89285	0.313
Mof_S 	S 	0.46171	0.90134	0.60715	0.308
Mof_O 	O 	0.4821	0.99559	0.24078	-0.489
Mof_O 	O 	0.1047	0.96072	0.24883	-0.508
Mof_O 	O 	0.4518	0.26519	0.82963	-0.537
Mof_O 	O 	0.0711	0.2617	0.81349	-0.598
Mof_O 	O 	0.1943	0.49219	0.12892	-0.367
Mof_O 	O 	0.7908	0.41829	0.1117	-0.255
Mof_O 	O 	0.9821	0.50441	0.25922	-0.491
Mof_O 	O 	0.6047	0.53928	0.25117	-0.512
Mof_O 	O 	0.9518	0.23481	0.67037	-0.537
Mof_O 	O 	0.5711	0.2383	0.68651	-0.599
Mof_O 	O 	0.6943	0.00781	0.37108	-0.365
Mof_O 	O 	0.2908	0.08171	0.3883	-0.258
Mof_O 	O 	0.5179	0.00441	0.75922	-0.489
Mof_O 	O 	0.8953	0.03928	0.75117	-0.508
Mof_O 	O 	0.5482	0.73481	0.17037	-0.537
Mof_O 	O 	0.9289	0.7383	0.18651	-0.598
Mof_O 	O 	0.8057	0.50781	0.87108	-0.367
Mof_O 	O 	0.2092	0.58171	0.8883	-0.255
Mof_O 	O 	0.0179	0.49559	0.74078	-0.491
Mof_O 	O 	0.3953	0.46072	0.74883	-0.512
Mof_O 	O 	0.0482	0.76519	0.32963	-0.537
Mof_O 	O 	0.4289	0.7617	0.31349	-0.599
Mof_O 	O 	0.3057	0.99219	0.62892	-0.365
Mof_O 	O 	0.7092	0.91829	0.6117	-0.258
_end
