data_functionalizedCrystal
_audit_creation_method	'EQeq! by Chris Wilmer'
_symmetry_space_group_name_H-M	'P1'
_symmetry_Int_Tables_number	1
_symmetry_cell_setting	triclinic
loop_
_symmetry_equiv_pos_as_xyz
  x,y,z
_cell_length_a	17.5661
_cell_length_b	23.4327
_cell_length_c	27.091
_cell_angle_alpha	78.086
_cell_angle_beta	80.509
_cell_angle_gamma	74.046
loop_
_atom_site_label
_atom_site_type_symbol
_atom_site_fract_x
_atom_site_fract_y
_atom_site_fract_z
_atom_site_charge
Mof_Sm	Sm	0.92122	0.63185	0.77554	2.556
Mof_Sm	Sm	0.07878	0.36815	0.22446	2.556
Mof_H 	H 	0.8653	0.5235	0.7876	0.253
Mof_H 	H 	0.8053	0.5637	0.8238	0.255
Mof_H 	H 	0.9452	0.5162	0.6591	0.049
Mof_H 	H 	0.9603	0.4162	0.6563	0.119
Mof_H 	H 	0.0343	0.3712	0.795	0.157
Mof_H 	H 	0.9285	0.3348	0.6699	0.111
Mof_H 	H 	0.9347	0.2337	0.672	0.065
Mof_H 	H 	0.0683	0.1836	0.7832	0.052
Mof_H 	H 	0.0716	0.2819	0.7808	0.131
Mof_H 	H 	0.9956	0.1346	0.69	0.101
Mof_H 	H 	0.059	0.1114	0.7307	0.102
Mof_H 	H 	0.1523	0.5226	0.7977	0.038
Mof_H 	H 	0.2599	0.5204	0.8341	0.126
Mof_H 	H 	0.1226	0.5956	0.9467	0.138
Mof_H 	H 	0.0133	0.6078	0.9028	0.061
Mof_H 	H 	0.2173	0.5628	0.9894	0.118
Mof_H 	H 	0.3296	0.5653	0.0262	0.049
Mof_H 	H 	0.468	0.5113	0.9033	0.069
Mof_H 	H 	0.3571	0.5283	0.8616	0.127
Mof_H 	H 	0.4654	0.5541	0.021	0.087
Mof_H 	H 	0.5183	0.5519	0.9667	0.096
Mof_H 	H 	0.0105	0.74	0.8654	0.082
Mof_H 	H 	0.9762	0.8628	0.7083	0.106
Mof_H 	H 	0.9893	0.7588	0.7205	0.068
Mof_H 	H 	0.0359	0.9265	0.8354	0.145
Mof_H 	H 	0.0159	0.0318	0.8246	0.04
Mof_H 	H 	0.8906	0.0593	0.7113	0.057
Mof_H 	H 	0.9131	0.956	0.7156	0.129
Mof_H 	H 	0.9487	0.1273	0.7967	0.08
Mof_H 	H 	0.8897	0.1406	0.754	0.088
Mof_H 	H 	0.8715	0.7419	0.6677	0.061
Mof_H 	H 	0.7988	0.8077	0.6055	0.128
Mof_H 	H 	0.6634	0.8884	0.7134	0.151
Mof_H 	H 	0.7348	0.8173	0.7747	0.038
Mof_H 	H 	0.7487	0.8963	0.5599	0.139
Mof_H 	H 	0.6684	0.9647	0.5023	0.034
Mof_H 	H 	0.4851	0.9656	0.5995	0.046
Mof_H 	H 	0.5593	0.9005	0.6589	0.204
Mof_H 	H 	0.5538	0.0362	0.4851	0.092
Mof_H 	H 	0.4821	0.0448	0.5301	0.094
Mof_H 	H 	0.0138	0.6443	0.6082	0.098
Mof_H 	H 	0.1346	0.5992	0.5746	0.12
Mof_H 	H 	0.2402	0.6219	0.6906	0.108
Mof_H 	H 	0.1127	0.6588	0.731	0.04
Mof_H 	H 	0.2453	0.6125	0.5282	0.149
Mof_H 	H 	0.36	0.5618	0.4862	0.041
Mof_H 	H 	0.3418	0.5516	0.6609	0.136
Mof_H 	H 	0.8909	0.6911	0.9408	0.042
Mof_H 	H 	0.7898	0.7599	0.9814	0.186
Mof_H 	H 	0.648	0.775	0.8731	0.134
Mof_H 	H 	0.749	0.7061	0.8326	0.021
Mof_H 	H 	0.592	0.8556	0.8951	0.09
Mof_H 	H 	0.5076	0.9425	0.9256	0.054
Mof_H 	H 	0.5932	0.8807	0.0585	0.055
Mof_H 	H 	0.6853	0.8024	0.0276	0.112
Mof_H 	H 	0.5096	0.9785	0.0465	0.085
Mof_H 	H 	0.4423	0.9654	0.0214	0.091
Mof_H 	H 	0.8002	0.7799	0.9355	0.157
Mof_H 	H 	0.1347	0.4765	0.2124	0.254
Mof_H 	H 	0.1947	0.4363	0.1762	0.256
Mof_H 	H 	0.0548	0.4838	0.3409	0.05
Mof_H 	H 	0.0397	0.5838	0.3437	0.12
Mof_H 	H 	0.9657	0.6288	0.205	0.158
Mof_H 	H 	0.0715	0.6652	0.3301	0.112
Mof_H 	H 	0.0653	0.7663	0.328	0.066
Mof_H 	H 	0.9317	0.8164	0.2168	0.053
Mof_H 	H 	0.9284	0.7181	0.2192	0.132
Mof_H 	H 	0.0044	0.8654	0.31	0.102
Mof_H 	H 	0.941	0.8886	0.2693	0.102
Mof_H 	H 	0.8477	0.4774	0.2023	0.038
Mof_H 	H 	0.7401	0.4796	0.1659	0.126
Mof_H 	H 	0.8774	0.4044	0.0533	0.138
Mof_H 	H 	0.9867	0.3922	0.0972	0.061
Mof_H 	H 	0.7827	0.4372	0.0106	0.118
Mof_H 	H 	0.6704	0.4347	0.9738	0.049
Mof_H 	H 	0.532	0.4887	0.0967	0.069
Mof_H 	H 	0.6429	0.4717	0.1384	0.127
Mof_H 	H 	0.5346	0.4459	0.979	0.087
Mof_H 	H 	0.4817	0.4481	0.0333	0.096
Mof_H 	H 	0.9895	0.26	0.1346	0.082
Mof_H 	H 	0.0238	0.1372	0.2917	0.106
Mof_H 	H 	0.0107	0.2412	0.2795	0.068
Mof_H 	H 	0.9641	0.0735	0.1646	0.145
Mof_H 	H 	0.9841	0.9682	0.1754	0.04
Mof_H 	H 	0.1094	0.9407	0.2887	0.057
Mof_H 	H 	0.0869	0.044	0.2844	0.129
Mof_H 	H 	0.0513	0.8727	0.2033	0.08
Mof_H 	H 	0.1103	0.8594	0.246	0.088
Mof_H 	H 	0.1285	0.2581	0.3323	0.061
Mof_H 	H 	0.2012	0.1923	0.3945	0.128
Mof_H 	H 	0.3366	0.1116	0.2866	0.151
Mof_H 	H 	0.2652	0.1827	0.2253	0.038
Mof_H 	H 	0.2513	0.1037	0.4401	0.139
Mof_H 	H 	0.3316	0.0353	0.4977	0.034
Mof_H 	H 	0.5149	0.0344	0.4005	0.046
Mof_H 	H 	0.4407	0.0995	0.3411	0.204
Mof_H 	H 	0.4462	0.9638	0.5149	0.092
Mof_H 	H 	0.5179	0.9552	0.4699	0.094
Mof_H 	H 	0.9862	0.3557	0.3918	0.098
Mof_H 	H 	0.8654	0.4008	0.4254	0.12
Mof_H 	H 	0.7598	0.3781	0.3094	0.108
Mof_H 	H 	0.8873	0.3412	0.269	0.04
Mof_H 	H 	0.7547	0.3875	0.4718	0.149
Mof_H 	H 	0.64	0.4382	0.5138	0.041
Mof_H 	H 	0.6582	0.4484	0.3391	0.136
Mof_H 	H 	0.1091	0.3089	0.0592	0.042
Mof_H 	H 	0.2102	0.2401	0.0186	0.186
Mof_H 	H 	0.352	0.225	0.1269	0.134
Mof_H 	H 	0.251	0.2939	0.1674	0.021
Mof_H 	H 	0.408	0.1444	0.1049	0.09
Mof_H 	H 	0.4924	0.0575	0.0744	0.054
Mof_H 	H 	0.4068	0.1193	0.9415	0.055
Mof_H 	H 	0.3147	0.1976	0.9724	0.112
Mof_H 	H 	0.4904	0.0215	0.9535	0.085
Mof_H 	H 	0.5577	0.0346	0.9786	0.091
Mof_H 	H 	0.1998	0.2201	0.0645	0.157
Mof_C 	C 	0.9661	0.486	0.6861	0.095
Mof_C 	C 	0.9733	0.4269	0.6853	-0.126
Mof_C 	C 	0.999	0.3819	0.7251	0.1
Mof_C 	C 	0.0179	0.3999	0.766	-0.147
Mof_C 	C 	0.0128	0.4603	0.7643	0.167
Mof_C 	C 	0.0006	0.3196	0.7245	0.076
Mof_C 	C 	0.9594	0.3045	0.6929	-0.093
Mof_C 	C 	0.9632	0.2438	0.6945	0.1
Mof_C 	C 	0.0417	0.2146	0.7587	0.103
Mof_C 	C 	0.0423	0.2731	0.7581	-0.099
Mof_C 	C 	0.0058	0.1379	0.724	-0.064
Mof_C 	C 	0.1454	0.5387	0.8281	0.141
Mof_C 	C 	0.2084	0.5361	0.8504	-0.129
Mof_C 	C 	0.2027	0.5551	0.8959	0.118
Mof_C 	C 	0.13	0.5811	0.9156	-0.113
Mof_C 	C 	0.0649	0.5869	0.8901	0.135
Mof_C 	C 	0.2739	0.5485	0.9224	0.078
Mof_C 	C 	0.2684	0.5559	0.9702	-0.092
Mof_C 	C 	0.3351	0.554	0.9939	0.09
Mof_C 	C 	0.4163	0.5247	0.9203	0.101
Mof_C 	C 	0.3507	0.533	0.8962	-0.082
Mof_C 	C 	0.4809	0.5327	0.9916	-0.062
Mof_C 	C 	0.004	0.7655	0.8334	0.022
Mof_C 	C 	0.9989	0.8269	0.8273	0.06
Mof_C 	C 	0.9856	0.8641	0.7818	0
Mof_C 	C 	0.983	0.8388	0.7409	-0.048
Mof_C 	C 	0.9906	0.7767	0.7487	0.058
Mof_C 	C 	0.9739	0.9307	0.776	0.127
Mof_C 	C 	0.0068	0.9526	0.8093	-0.128
Mof_C 	C 	0.9947	0.0152	0.8024	0.107
Mof_C 	C 	0.9221	0.0321	0.7357	0.116
Mof_C 	C 	0.9338	0.9707	0.7394	-0.137
Mof_C 	C 	0.9435	0.1186	0.7634	-0.057
Mof_C 	C 	0.8249	0.7706	0.6781	0.114
Mof_C 	C 	0.7818	0.8102	0.6403	-0.086
Mof_C 	C 	0.7158	0.852	0.6538	0.096
Mof_C 	C 	0.7039	0.8557	0.7026	-0.1
Mof_C 	C 	0.7475	0.8141	0.7397	0.124
Mof_C 	C 	0.6642	0.8943	0.6175	0.163
Mof_C 	C 	0.6937	0.9115	0.5704	-0.15
Mof_C 	C 	0.645	0.9521	0.5355	0.155
Mof_C 	C 	0.5411	0.9526	0.5911	0.17
Mof_C 	C 	0.5853	0.9139	0.6267	-0.163
Mof_C 	C 	0.5209	0.0146	0.5117	-0.052
Mof_C 	C 	0.6723	0.6632	0.715	0.721
Mof_C 	C 	0.059	0.637	0.626	0.101
Mof_C 	C 	0.1299	0.6135	0.6056	-0.076
Mof_C 	C 	0.201	0.6078	0.627	0.058
Mof_C 	C 	0.194	0.6252	0.6751	-0.072
Mof_C 	C 	0.119	0.647	0.6988	0.06
Mof_C 	C 	0.2787	0.5844	0.5987	0.118
Mof_C 	C 	0.2882	0.5893	0.5468	-0.145
Mof_C 	C 	0.3571	0.5618	0.5216	0.128
Mof_C 	C 	0.4201	0.5345	0.598	0.183
Mof_C 	C 	0.3466	0.556	0.625	-0.143
Mof_C 	C 	0.497	0.506	0.5149	0.061
Mof_C 	C 	0.8416	0.7081	0.9271	0.174
Mof_C 	C 	0.7816	0.749	0.9511	-0.384
Mof_C 	C 	0.7094	0.7739	0.931	0.168
Mof_C 	C 	0.6973	0.758	0.8869	-0.165
Mof_C 	C 	0.7573	0.717	0.8628	0.097
Mof_C 	C 	0.6485	0.8212	0.9569	0.024
Mof_C 	C 	0.5953	0.8619	0.9282	-0.069
Mof_C 	C 	0.5443	0.9137	0.9461	0.061
Mof_C 	C 	0.5965	0.8779	0.0237	0.082
Mof_C 	C 	0.6488	0.8299	0.0063	-0.086
Mof_C 	C 	0.493	0.976	0.0147	-0.069
Mof_C 	C 	0.0339	0.514	0.3139	0.095
Mof_C 	C 	0.0267	0.5731	0.3147	-0.126
Mof_C 	C 	0.001	0.6181	0.2749	0.1
Mof_C 	C 	0.9821	0.6001	0.234	-0.147
Mof_C 	C 	0.9872	0.5397	0.2357	0.167
Mof_C 	C 	0.9994	0.6804	0.2755	0.076
Mof_C 	C 	0.0406	0.6955	0.3071	-0.093
Mof_C 	C 	0.0368	0.7562	0.3055	0.1
Mof_C 	C 	0.9583	0.7854	0.2413	0.103
Mof_C 	C 	0.9577	0.7269	0.2419	-0.099
Mof_C 	C 	0.9942	0.8621	0.276	-0.064
Mof_C 	C 	0.8546	0.4613	0.1719	0.141
Mof_C 	C 	0.7916	0.4639	0.1496	-0.129
Mof_C 	C 	0.7973	0.4449	0.1041	0.118
Mof_C 	C 	0.87	0.4189	0.0844	-0.113
Mof_C 	C 	0.9351	0.4131	0.1099	0.135
Mof_C 	C 	0.7261	0.4515	0.0776	0.078
Mof_C 	C 	0.7316	0.4441	0.0298	-0.092
Mof_C 	C 	0.6649	0.446	0.0061	0.09
Mof_C 	C 	0.5837	0.4753	0.0797	0.101
Mof_C 	C 	0.6493	0.467	0.1038	-0.082
Mof_C 	C 	0.5191	0.4673	0.0084	-0.062
Mof_C 	C 	0.996	0.2345	0.1666	0.022
Mof_C 	C 	0.0011	0.1731	0.1727	0.06
Mof_C 	C 	0.0144	0.1359	0.2182	0
Mof_C 	C 	0.017	0.1612	0.2591	-0.048
Mof_C 	C 	0.0094	0.2233	0.2513	0.058
Mof_C 	C 	0.0261	0.0693	0.224	0.127
Mof_C 	C 	0.9932	0.0474	0.1907	-0.128
Mof_C 	C 	0.0053	0.9848	0.1976	0.107
Mof_C 	C 	0.0779	0.9679	0.2643	0.116
Mof_C 	C 	0.0662	0.0293	0.2606	-0.137
Mof_C 	C 	0.0565	0.8814	0.2366	-0.057
Mof_C 	C 	0.1751	0.2294	0.3219	0.114
Mof_C 	C 	0.2182	0.1898	0.3597	-0.086
Mof_C 	C 	0.2842	0.148	0.3462	0.096
Mof_C 	C 	0.2961	0.1443	0.2974	-0.1
Mof_C 	C 	0.2525	0.1859	0.2603	0.124
Mof_C 	C 	0.3358	0.1057	0.3825	0.163
Mof_C 	C 	0.3063	0.0885	0.4296	-0.15
Mof_C 	C 	0.355	0.0479	0.4645	0.155
Mof_C 	C 	0.4589	0.0474	0.4089	0.17
Mof_C 	C 	0.4147	0.0861	0.3733	-0.163
Mof_C 	C 	0.4791	0.9854	0.4883	-0.052
Mof_C 	C 	0.3277	0.3368	0.285	0.721
Mof_C 	C 	0.941	0.363	0.374	0.101
Mof_C 	C 	0.8701	0.3865	0.3944	-0.076
Mof_C 	C 	0.799	0.3922	0.373	0.058
Mof_C 	C 	0.806	0.3748	0.3249	-0.072
Mof_C 	C 	0.881	0.353	0.3012	0.06
Mof_C 	C 	0.7213	0.4156	0.4013	0.118
Mof_C 	C 	0.7118	0.4107	0.4532	-0.145
Mof_C 	C 	0.6429	0.4382	0.4784	0.128
Mof_C 	C 	0.5799	0.4655	0.402	0.183
Mof_C 	C 	0.6534	0.444	0.375	-0.143
Mof_C 	C 	0.503	0.494	0.4851	0.061
Mof_C 	C 	0.1584	0.2919	0.0729	0.174
Mof_C 	C 	0.2184	0.251	0.0489	-0.384
Mof_C 	C 	0.2906	0.2261	0.069	0.168
Mof_C 	C 	0.3027	0.242	0.1131	-0.165
Mof_C 	C 	0.2427	0.283	0.1372	0.097
Mof_C 	C 	0.3515	0.1788	0.0431	0.024
Mof_C 	C 	0.4047	0.1381	0.0718	-0.069
Mof_C 	C 	0.4557	0.0863	0.0539	0.061
Mof_C 	C 	0.4035	0.1221	0.9763	0.082
Mof_C 	C 	0.3512	0.1701	0.9937	-0.086
Mof_C 	C 	0.507	0.024	0.9853	-0.069
Mof_S 	S 	0.7585	0.6118	0.71554	0.364
Mof_S 	S 	0.2415	0.3882	0.28446	0.364
Mof_N 	N 	0.989	0.5009	0.7258	-0.078
Mof_N 	N 	0.0041	0.2003	0.7256	-0.114
Mof_N 	N 	0.0744	0.5631	0.8476	-0.046
Mof_N 	N 	0.4081	0.5351	0.9676	-0.112
Mof_N 	N 	0.9992	0.7435	0.7915	-0.042
Mof_N 	N 	0.955	0.052	0.7662	-0.128
Mof_N 	N 	0.8059	0.7708	0.7245	-0.06
Mof_N 	N 	0.5719	0.9721	0.5469	-0.149
Mof_N 	N 	0.049	0.6519	0.6738	-0.026
Mof_N 	N 	0.4217	0.5345	0.5463	-0.133
Mof_N 	N 	0.8294	0.6921	0.8829	-0.054
Mof_N 	N 	0.5503	0.9205	0.9946	-0.112
Mof_N 	N 	0.011	0.4991	0.2742	-0.078
Mof_N 	N 	0.9959	0.7997	0.2744	-0.114
Mof_N 	N 	0.9256	0.4369	0.1524	-0.046
Mof_N 	N 	0.5919	0.4649	0.0324	-0.112
Mof_N 	N 	0.0008	0.2565	0.2085	-0.042
Mof_N 	N 	0.045	0.948	0.2338	-0.128
Mof_N 	N 	0.1941	0.2292	0.2755	-0.06
Mof_N 	N 	0.4281	0.0279	0.4531	-0.149
Mof_N 	N 	0.951	0.3481	0.3262	-0.026
Mof_N 	N 	0.5783	0.4655	0.4537	-0.133
Mof_N 	N 	0.1706	0.3079	0.1171	-0.054
Mof_N 	N 	0.4497	0.0795	0.0054	-0.112
Mof_O 	O 	0.8606	0.5481	0.8127	-0.637
Mof_O 	O 	0.9824	0.5595	0.7239	-0.376
Mof_O 	O 	0.0116	0.5647	0.8261	-0.346
Mof_O 	O 	0.0024	0.6846	0.7997	-0.359
Mof_O 	O 	0.8473	0.7344	0.76	-0.361
Mof_O 	O 	0.814	0.6386	0.7265	-0.443
Mof_O 	O 	0.7475	0.5592	0.7522	-0.165
Mof_O 	O 	0.7674	0.6021	0.6607	-0.126
Mof_O 	O 	0.8812	0.658	0.8598	-0.332
Mof_O 	O 	0.983	0.6748	0.6954	-0.331
Mof_O 	O 	0.1394	0.4519	0.1873	-0.637
Mof_O 	O 	0.0176	0.4405	0.2761	-0.376
Mof_O 	O 	0.9884	0.4353	0.1739	-0.346
Mof_O 	O 	0.9976	0.3154	0.2003	-0.359
Mof_O 	O 	0.1527	0.2656	0.24	-0.361
Mof_O 	O 	0.186	0.3614	0.2735	-0.443
Mof_O 	O 	0.2525	0.4408	0.2478	-0.165
Mof_O 	O 	0.2326	0.3979	0.3393	-0.126
Mof_O 	O 	0.1188	0.342	0.1402	-0.332
Mof_O 	O 	0.017	0.3252	0.3046	-0.331
Mof_F 	F 	0.6074	0.6448	0.7064	-0.325
Mof_F 	F 	0.6464	0.6748	0.7617	-0.403
Mof_F 	F 	0.6643	0.7182	0.6895	-0.409
Mof_F 	F 	0.3926	0.3552	0.2936	-0.325
Mof_F 	F 	0.3536	0.3252	0.2383	-0.403
Mof_F 	F 	0.3357	0.2818	0.3105	-0.409
Mof_C 	C 	0.0096	0.5697	0.0636	0.946
Mof_S 	S 	0.0832	0.5953	0.08317	0.236
Mof_O 	O 	0.0363	0.6397	0.117	-0.102
Mof_O 	O 	0.1323	0.5422	0.1078	-0.133
Mof_O 	O 	0.12	0.6229	0.0377	-0.132
Mof_F 	F 	0.0329	0.5324	0.039	-0.546
Mof_F 	F 	0.9583	0.6161	0.0389	-0.437
Mof_F 	F 	0.9577	0.5541	0.1029	-0.436
Mof_C 	C 	0.5166	0.442	0.2397	0.863
Mof_S 	S 	0.5817	0.4899	0.24649	0.345
Mof_O 	O 	0.5766	0.5345	0.1984	-0.129
Mof_O 	O 	0.5505	0.5127	0.2925	-0.137
Mof_O 	O 	0.6555	0.4502	0.2476	-0.185
Mof_F 	F 	0.4387	0.4832	0.2453	-0.392
Mof_F 	F 	0.5302	0.4282	0.1999	-0.534
Mof_F 	F 	0.5227	0.398	0.2834	-0.387
Mof_C 	C 	0.9968	0.1695	0.4212	0.903
Mof_S 	S 	0.0588	0.101	0.4225	0.196
Mof_O 	O 	0.1151	0.1031	0.4561	-0.096
Mof_O 	O 	0.023	0.0544	0.4479	-0.071
Mof_O 	O 	0.0891	0.1015	0.371	-0.128
Mof_F 	F 	0.9569	0.1774	0.4673	-0.401
Mof_F 	F 	0.9447	0.1883	0.3898	-0.453
Mof_F 	F 	0.0249	0.2129	0.4055	-0.492
Mof_C 	C 	0.7989	0.1728	0.099	0.99
Mof_S 	S 	0.8715	0.1165	0.0678	0.275
Mof_O 	O 	0.8604	0.0616	0.1029	-0.118
Mof_O 	O 	0.9412	0.1325	0.0787	-0.13
Mof_O 	O 	0.851	0.1405	0.0216	-0.129
Mof_F 	F 	0.7341	0.1773	0.0929	-0.544
Mof_F 	F 	0.8148	0.2269	0.0831	-0.447
Mof_F 	F 	0.8168	0.1616	0.1461	-0.461
Mof_C 	C 	0.057	0.6972	0.4663	0.834
Mof_S 	S 	0.1174	0.6421	0.4329	0.254
Mof_O 	O 	0.0556	0.6125	0.4145	-0.108
Mof_O 	O 	0.1603	0.6764	0.3891	-0.112
Mof_O 	O 	0.1463	0.5931	0.4719	-0.119
Mof_F 	F 	0.124	0.7064	0.482	-0.426
Mof_F 	F 	0.0112	0.6736	0.5041	-0.438
Mof_F 	F 	0.0064	0.7316	0.4374	-0.465
Mof_C 	C 	0.7831	0.7124	0.1577	0.977
Mof_S 	S 	0.8046	0.774	0.1138	0.249
Mof_O 	O 	0.816	0.7581	0.0621	-0.115
Mof_O 	O 	0.729	0.8169	0.1217	-0.105
Mof_O 	O 	0.867	0.781	0.1358	-0.132
Mof_F 	F 	0.762	0.7237	0.1981	-0.553
Mof_F 	F 	0.7242	0.6976	0.1411	-0.435
Mof_F 	F 	0.8388	0.6638	0.1498	-0.463
Mof_C 	C 	0.4516	0.8594	0.7573	0.953
Mof_S 	S 	0.5011	0.8715	0.8038	0.222
Mof_O 	O 	0.4405	0.8933	0.8462	-0.078
Mof_O 	O 	0.558	0.8176	0.8173	-0.12
Mof_O 	O 	0.537	0.9143	0.7726	-0.092
Mof_F 	F 	0.3835	0.8633	0.7661	-0.496
Mof_F 	F 	0.452	0.9013	0.7149	-0.43
Mof_F 	F 	0.496	0.8155	0.7342	-0.421
Mof_C 	C 	0.6345	0.0507	0.6842	0.967
Mof_S 	S 	0.562	0.1171	0.6645	0.231
Mof_O 	O 	0.507	0.0934	0.6413	-0.084
Mof_O 	O 	0.603	0.1549	0.6292	-0.083
Mof_O 	O 	0.542	0.135	0.7125	-0.08
Mof_F 	F 	0.608	0.0151	0.7144	-0.547
Mof_F 	F 	0.673	0.023	0.6457	-0.466
Mof_F 	F 	0.6945	0.0627	0.6996	-0.47
Mof_C 	C 	0.9904	0.4303	0.9364	0.946
Mof_S 	S 	0.9168	0.4047	0.91683	0.236
Mof_O 	O 	0.9637	0.3603	0.883	-0.102
Mof_O 	O 	0.8677	0.4578	0.8922	-0.133
Mof_O 	O 	0.88	0.3771	0.9623	-0.132
Mof_F 	F 	0.9671	0.4676	0.961	-0.546
Mof_F 	F 	0.0417	0.3839	0.9611	-0.437
Mof_F 	F 	0.0423	0.4459	0.8971	-0.436
Mof_C 	C 	0.4834	0.558	0.7603	0.863
Mof_S 	S 	0.4183	0.5101	0.75351	0.345
Mof_O 	O 	0.4234	0.4655	0.8016	-0.129
Mof_O 	O 	0.4495	0.4873	0.7075	-0.137
Mof_O 	O 	0.3445	0.5498	0.7524	-0.185
Mof_F 	F 	0.5613	0.5168	0.7547	-0.392
Mof_F 	F 	0.4698	0.5718	0.8001	-0.534
Mof_F 	F 	0.4773	0.602	0.7166	-0.387
Mof_C 	C 	0.0032	0.8305	0.5788	0.903
Mof_S 	S 	0.9412	0.899	0.5775	0.196
Mof_O 	O 	0.8849	0.8969	0.5439	-0.096
Mof_O 	O 	0.977	0.9456	0.5521	-0.071
Mof_O 	O 	0.9109	0.8985	0.629	-0.128
Mof_F 	F 	0.0431	0.8226	0.5327	-0.401
Mof_F 	F 	0.0553	0.8117	0.6102	-0.453
Mof_F 	F 	0.9751	0.7871	0.5945	-0.492
Mof_C 	C 	0.2011	0.8272	0.901	0.99
Mof_S 	S 	0.1285	0.8835	0.9322	0.275
Mof_O 	O 	0.1396	0.9384	0.8971	-0.118
Mof_O 	O 	0.0588	0.8675	0.9213	-0.13
Mof_O 	O 	0.149	0.8595	0.9784	-0.129
Mof_F 	F 	0.2659	0.8227	0.9071	-0.544
Mof_F 	F 	0.1852	0.7731	0.9169	-0.447
Mof_F 	F 	0.1832	0.8384	0.8539	-0.461
Mof_C 	C 	0.943	0.3028	0.5337	0.834
Mof_S 	S 	0.8826	0.3579	0.5671	0.254
Mof_O 	O 	0.9444	0.3875	0.5855	-0.108
Mof_O 	O 	0.8397	0.3236	0.6109	-0.112
Mof_O 	O 	0.8537	0.4069	0.5281	-0.119
Mof_F 	F 	0.876	0.2936	0.518	-0.426
Mof_F 	F 	0.9888	0.3264	0.4959	-0.438
Mof_F 	F 	0.9936	0.2684	0.5626	-0.465
Mof_C 	C 	0.2169	0.2876	0.8423	0.977
Mof_S 	S 	0.1954	0.226	0.8862	0.249
Mof_O 	O 	0.184	0.2419	0.9379	-0.115
Mof_O 	O 	0.271	0.1831	0.8783	-0.105
Mof_O 	O 	0.133	0.219	0.8642	-0.132
Mof_F 	F 	0.238	0.2763	0.8019	-0.553
Mof_F 	F 	0.2758	0.3024	0.8589	-0.435
Mof_F 	F 	0.1612	0.3362	0.8502	-0.463
Mof_C 	C 	0.5484	0.1406	0.2427	0.953
Mof_S 	S 	0.4989	0.1285	0.1962	0.222
Mof_O 	O 	0.5595	0.1067	0.1538	-0.078
Mof_O 	O 	0.442	0.1824	0.1827	-0.12
Mof_O 	O 	0.463	0.0857	0.2274	-0.092
Mof_F 	F 	0.6165	0.1367	0.2339	-0.496
Mof_F 	F 	0.548	0.0987	0.2851	-0.43
Mof_F 	F 	0.504	0.1845	0.2658	-0.421
Mof_C 	C 	0.3655	0.9493	0.3158	0.967
Mof_S 	S 	0.438	0.8829	0.3355	0.231
Mof_O 	O 	0.493	0.9066	0.3587	-0.084
Mof_O 	O 	0.397	0.8451	0.3708	-0.083
Mof_O 	O 	0.458	0.865	0.2875	-0.08
Mof_F 	F 	0.392	0.9849	0.2856	-0.547
Mof_F 	F 	0.327	0.977	0.3543	-0.466
Mof_F 	F 	0.3055	0.9373	0.3004	-0.47
Mof_Cl	Cl	0.7	0.809	0.244	-0.042
Mof_Cl	Cl	0.779	0.8	0.313	-0.119
Mof_Cl	Cl	0.3	0.191	0.756	-0.042
Mof_Cl	Cl	0.221	0.2	0.687	-0.119
_end
