data_functionalizedCrystal
_audit_creation_method	'EQeq! by Chris Wilmer'
_symmetry_space_group_name_H-M	'P1'
_symmetry_Int_Tables_number	1
_symmetry_cell_setting	triclinic
loop_
_symmetry_equiv_pos_as_xyz
  x,y,z
_cell_length_a	9.716
_cell_length_b	12.193
_cell_length_c	12.4423
_cell_angle_alpha	103.863
_cell_angle_beta	112.124
_cell_angle_gamma	107.28
loop_
_atom_site_label
_atom_site_type_symbol
_atom_site_fract_x
_atom_site_fract_y
_atom_site_fract_z
_atom_site_charge
Mof_Mn	Mn	0.21525	0.32873	0.12322	0.806
Mof_Mn	Mn	0.78475	0.67127	0.87678	0.989
Mof_Mn	Mn	-0	0	-0	0.799
Mof_Mn	Mn	-0	0.5	-0	0.62
Mof_H 	H 	0.4757	0.3551	0.5121	0.038
Mof_H 	H 	0.5608	0.1513	0.7173	0.026
Mof_H 	H 	0.3486	0.9723	0.546	0.074
Mof_H 	H 	0.2122	0.9829	0.3544	0.017
Mof_H 	H 	0.679	0.0131	0.8472	0.067
Mof_H 	H 	0.398	0.8981	0.7551	0.029
Mof_H 	H 	0.2467	0.9759	0.8282	0.055
Mof_H 	H 	0.6532	0.2976	0.0685	0.092
Mof_H 	H 	0.5243	0.6449	0.4879	0.038
Mof_H 	H 	0.4392	0.8487	0.2827	0.026
Mof_H 	H 	0.6514	0.0277	0.454	0.081
Mof_H 	H 	0.7878	0.0171	0.6456	0.041
Mof_H 	H 	0.321	0.9869	0.1528	-0.033
Mof_H 	H 	0.602	0.1019	0.2449	0.141
Mof_H 	H 	0.7533	0.0241	0.1718	-0.014
Mof_H 	H 	0.3468	0.7024	0.9315	-0.034
Mof_C 	C 	0.2431	0.1728	0.286	0.387
Mof_C 	C 	0.3314	0.1694	0.4126	-0.142
Mof_C 	C 	0.4529	0.2778	0.5181	0.07
Mof_C 	C 	0.5399	0.2711	0.632	-0.132
Mof_C 	C 	0.502	0.1563	0.6414	0.058
Mof_C 	C 	0.3768	0.0489	0.5384	-0.133
Mof_C 	C 	0.294	0.0557	0.4242	0.049
Mof_C 	C 	0.8761	0.241	0.0259	0.291
Mof_C 	C 	0.6945	0.1665	0.9676	0.009
Mof_C 	C 	0.6174	0.0466	0.8739	-0.058
Mof_C 	C 	0.4496	0.9769	0.8201	-0.007
Mof_C 	C 	0.359	0.0239	0.8628	-0.064
Mof_C 	C 	0.4351	0.1435	0.9579	0.017
Mof_C 	C 	0.603	0.2162	0.0082	-0.109
Mof_C 	C 	0.6735	0.3869	0.7465	0.394
Mof_C 	C 	0.3383	0.1907	0.0095	0.26
Mof_C 	C 	0.7569	0.8272	0.714	0.39
Mof_C 	C 	0.6686	0.8306	0.5874	-0.125
Mof_C 	C 	0.5471	0.7222	0.4819	0.068
Mof_C 	C 	0.4601	0.7289	0.368	-0.133
Mof_C 	C 	0.498	0.8437	0.3586	0.053
Mof_C 	C 	0.6232	0.9511	0.4616	-0.107
Mof_C 	C 	0.706	0.9443	0.5758	0.056
Mof_C 	C 	0.1239	0.759	0.9741	0.446
Mof_C 	C 	0.3055	0.8335	0.0324	-0.302
Mof_C 	C 	0.3826	0.9534	0.1261	0.206
Mof_C 	C 	0.5504	0.0231	0.1799	-0.282
Mof_C 	C 	0.641	0.9761	0.1372	0.21
Mof_C 	C 	0.5649	0.8565	0.0421	-0.278
Mof_C 	C 	0.397	0.7838	0.9918	0.246
Mof_C 	C 	0.3265	0.6131	0.2535	0.386
Mof_C 	C 	0.6617	0.8093	0.9905	0.452
Mof_O 	O 	0.2823	0.27675	0.2781	-0.379
Mof_O 	O 	0.13693	0.06965	0.19663	-0.405
Mof_O 	O 	0.96387	0.1835	0.02027	-0.343
Mof_O 	O 	0.93991	0.35861	0.08001	-0.305
Mof_O 	O 	0.78651	0.37497	0.82711	-0.339
Mof_O 	O 	0.66105	0.48738	0.75165	-0.39
Mof_O 	O 	0.3967	0.3053	0.0754	-0.345
Mof_O 	O 	0.2012	0.1139	0.9845	-0.349
Mof_O 	O 	0.7177	0.72325	0.7219	-0.369
Mof_O 	O 	0.86307	0.93035	0.80337	-0.331
Mof_O 	O 	0.03613	0.8165	0.97973	-0.478
Mof_O 	O 	0.06009	0.64139	0.91999	-0.429
Mof_O 	O 	0.21349	0.62503	0.17289	-0.404
Mof_O 	O 	0.33895	0.51262	0.24835	-0.391
Mof_O 	O 	0.6033	0.6947	0.9246	-0.394
Mof_O 	O 	0.7988	0.8861	0.0155	-0.383
_end
