data_functionalizedCrystal
_audit_creation_method	'EQeq! by Chris Wilmer'
_symmetry_space_group_name_H-M	'P1'
_symmetry_Int_Tables_number	1
_symmetry_cell_setting	triclinic
loop_
_symmetry_equiv_pos_as_xyz
  x,y,z
_cell_length_a	34.697
_cell_length_b	34.697
_cell_length_c	8.4057
_cell_angle_alpha	90
_cell_angle_beta	90
_cell_angle_gamma	120
loop_
_atom_site_label
_atom_site_type_symbol
_atom_site_fract_x
_atom_site_fract_y
_atom_site_fract_z
_atom_site_charge
Mof_Ag	Ag	0.861	0.18287	0.49955	0.679
Mof_O 	O 	0.33293	0.34404	0.64793	-0.199
Mof_N 	N 	0.8005	0.1437	0.3551	-0.199
Mof_N 	N 	0.718	0.9276	0.396	-0.194
Mof_C 	C 	0.7868	0.1648	0.2585	0.091
Mof_H 	H 	0.8043	0.1955	0.2486	0.023
Mof_C 	C 	0.41477	0.47663	0.50643	-0.143
Mof_H 	H 	0.07303	0.82597	0.77367	0.158
Mof_C 	C 	0.38877	0.43173	0.51913	0.053
Mof_H 	H 	0.36217	0.41683	0.46343	0.069
Mof_C 	C 	0.7358	0.0753	0.2825	-0.068
Mof_C 	C 	0.7756	0.0995	0.3641	0.049
Mof_H 	H 	0.7854	0.0842	0.4279	0.045
Mof_C 	C 	0.7065	0.0263	0.3041	0.18
Mof_C 	C 	0.7269	0.9976	0.3106	-0.063
Mof_C 	C 	0.43147	0.34023	0.56513	0.072
Mof_H 	H 	0.44717	0.36673	0.50883	0.062
Mof_C 	C 	0.7799	0.9768	0.2359	-0.095
Mof_H 	H 	0.47247	0.31593	0.51643	0.181
Mof_C 	C 	0.7558	0.9384	0.3194	0.119
Mof_H 	H 	0.7662	0.9184	0.3231	0.061
Mof_C 	C 	0.7036	0.9566	0.3903	0.083
Mof_H 	H 	0.677	0.9494	0.4409	0.031
Mof_C 	C 	0.8424	0.2573	0.5585	0.355
Mof_O 	O 	0.16653	0.89737	0.32577	-0.321
Mof_O 	O 	0.8602	0.2595	0.4297	-0.259
Mof_C 	C 	0.16603	0.96437	0.26827	0.317
Mof_F 	F 	0.19753	0.99277	0.37117	-0.373
Mof_F 	F 	0.8429	0.3228	0.469	-0.352
Mof_C 	C 	0.12843	0.95567	0.38067	0.857
Mof_F 	F 	0.13843	0.94057	0.50867	-0.45
Mof_F 	F 	0.13253	0.99557	0.39467	-0.366
Mof_F 	F 	0.09283	0.92597	0.30167	-0.429
Mof_Ag	Ag	0.52767	0.5162	0.83288	0.68
Mof_O 	O 	0.99959	0.67738	0.98127	-0.198
Mof_N 	N 	0.46717	0.47703	0.68843	-0.198
Mof_N 	N 	0.38467	0.26093	0.72933	-0.193
Mof_C 	C 	0.45347	0.49813	0.59183	0.092
Mof_H 	H 	0.47097	0.52883	0.58193	0.024
Mof_C 	C 	0.08143	0.80997	0.83977	-0.142
Mof_H 	H 	0.7397	0.1593	0.107	0.159
Mof_C 	C 	0.05543	0.76507	0.85247	0.054
Mof_H 	H 	0.02883	0.75017	0.79677	0.07
Mof_C 	C 	0.40247	0.40863	0.61583	-0.067
Mof_C 	C 	0.44227	0.43283	0.69743	0.05
Mof_H 	H 	0.45207	0.41753	0.76123	0.046
Mof_C 	C 	0.37317	0.35963	0.63743	0.181
Mof_C 	C 	0.39357	0.33093	0.64393	-0.062
Mof_C 	C 	0.09813	0.67357	0.89847	0.072
Mof_H 	H 	0.11383	0.70007	0.84217	0.063
Mof_C 	C 	0.44657	0.31013	0.56923	-0.095
Mof_H 	H 	0.13913	0.64927	0.84977	0.182
Mof_C 	C 	0.42247	0.27173	0.65273	0.12
Mof_H 	H 	0.43287	0.25173	0.65643	0.062
Mof_C 	C 	0.37027	0.28993	0.72363	0.084
Mof_H 	H 	0.34367	0.28273	0.77423	0.032
Mof_C 	C 	0.50907	0.59063	0.89183	0.356
Mof_O 	O 	0.8332	0.2307	0.6591	-0.32
Mof_O 	O 	0.52687	0.59283	0.76303	-0.258
Mof_C 	C 	0.8327	0.2977	0.6016	0.318
Mof_F 	F 	0.8642	0.3261	0.7045	-0.372
Mof_F 	F 	0.50957	0.65613	0.80233	-0.352
Mof_C 	C 	0.7951	0.289	0.714	0.857
Mof_F 	F 	0.8051	0.2739	0.842	-0.45
Mof_F 	F 	0.7992	0.3289	0.728	-0.366
Mof_F 	F 	0.7595	0.2593	0.635	-0.429
Mof_Ag	Ag	0.19433	0.84954	0.16622	0.68
Mof_O 	O 	0.66626	0.01071	0.3146	-0.198
Mof_N 	N 	0.13383	0.81037	0.02177	-0.198
Mof_N 	N 	0.05133	0.59427	0.06267	-0.192
Mof_C 	C 	0.12013	0.83147	0.92517	0.092
Mof_H 	H 	0.13763	0.86217	0.91527	0.024
Mof_C 	C 	0.7481	0.1433	0.1731	-0.142
Mof_H 	H 	0.40637	0.49263	0.44033	0.16
Mof_C 	C 	0.7221	0.0984	0.1858	0.054
Mof_H 	H 	0.6955	0.0835	0.1301	0.07
Mof_C 	C 	0.06913	0.74197	0.94917	-0.067
Mof_C 	C 	0.10893	0.76617	0.03077	0.051
Mof_H 	H 	0.11873	0.75087	0.09457	0.046
Mof_C 	C 	0.03983	0.69297	0.97077	0.181
Mof_C 	C 	0.06023	0.66427	0.97727	-0.062
Mof_C 	C 	0.7648	0.0069	0.2318	0.072
Mof_H 	H 	0.7805	0.0334	0.1755	0.063
Mof_C 	C 	0.11323	0.64347	0.90257	-0.095
Mof_H 	H 	0.8058	0.9826	0.1831	0.182
Mof_C 	C 	0.08913	0.60507	0.98607	0.12
Mof_H 	H 	0.09953	0.58507	0.98977	0.062
Mof_C 	C 	0.03693	0.62327	0.05697	0.084
Mof_H 	H 	0.01033	0.61607	0.10757	0.032
Mof_C 	C 	0.17573	0.92397	0.22517	0.356
Mof_O 	O 	0.49987	0.56403	0.99243	-0.32
Mof_O 	O 	0.19353	0.92617	0.09637	-0.258
Mof_C 	C 	0.49937	0.63103	0.93493	0.316
Mof_F 	F 	0.53087	0.65943	0.03783	-0.372
Mof_F 	F 	0.17623	0.98947	0.13567	-0.352
Mof_C 	C 	0.46177	0.62233	0.04733	0.858
Mof_F 	F 	0.47177	0.60723	0.17533	-0.45
Mof_F 	F 	0.46587	0.66223	0.06133	-0.366
Mof_F 	F 	0.42617	0.59263	0.96833	-0.429
Mof_Ag	Ag	0.81713	0.67813	0.49955	0.68
Mof_O 	O 	0.65596	0.98888	0.64793	-0.198
Mof_N 	N 	0.8563	0.6568	0.3551	-0.198
Mof_N 	N 	0.0724	0.7904	0.396	-0.193
Mof_C 	C 	0.8352	0.622	0.2585	0.092
Mof_H 	H 	0.8045	0.6088	0.2486	0.024
Mof_C 	C 	0.52337	0.93813	0.50643	-0.142
Mof_H 	H 	0.17403	0.24707	0.77367	0.159
Mof_C 	C 	0.56827	0.95703	0.51913	0.054
Mof_H 	H 	0.58317	0.94533	0.46343	0.07
Mof_C 	C 	0.9247	0.6605	0.2825	-0.067
Mof_C 	C 	0.9005	0.6761	0.3641	0.05
Mof_H 	H 	0.9158	0.7012	0.4279	0.046
Mof_C 	C 	0.9737	0.6802	0.3041	0.182
Mof_C 	C 	0.0024	0.7293	0.3106	-0.062
Mof_C 	C 	0.65977	0.09123	0.56513	0.073
Mof_H 	H 	0.63327	0.08043	0.50883	0.063
Mof_C 	C 	0.0232	0.8031	0.2359	-0.095
Mof_H 	H 	0.68407	0.15653	0.51643	0.182
Mof_C 	C 	0.0616	0.8174	0.3194	0.12
Mof_H 	H 	0.0816	0.8478	0.3231	0.062
Mof_C 	C 	0.0434	0.747	0.3903	0.084
Mof_H 	H 	0.0506	0.7276	0.4409	0.032
Mof_C 	C 	0.7427	0.5851	0.5585	0.356
Mof_O 	O 	0.10263	0.26917	0.32577	-0.32
Mof_O 	O 	0.7405	0.6007	0.4297	-0.258
Mof_C 	C 	0.03563	0.20167	0.26827	0.318
Mof_F 	F 	0.00723	0.20477	0.37117	-0.372
Mof_F 	F 	0.6772	0.5201	0.469	-0.352
Mof_C 	C 	0.04433	0.17277	0.38067	0.857
Mof_F 	F 	0.05943	0.19787	0.50867	-0.45
Mof_F 	F 	0.00443	0.13697	0.39467	-0.366
Mof_F 	F 	0.07403	0.16687	0.30167	-0.429
Mof_Ag	Ag	0.4838	0.01146	0.83288	0.68
Mof_O 	O 	0.32262	0.32222	0.98127	-0.198
Mof_N 	N 	0.52297	0.99013	0.68843	-0.198
Mof_N 	N 	0.73907	0.12373	0.72933	-0.193
Mof_C 	C 	0.50187	0.95533	0.59183	0.092
Mof_H 	H 	0.47117	0.94213	0.58193	0.024
Mof_C 	C 	0.19003	0.27147	0.83977	-0.142
Mof_H 	H 	0.8407	0.5804	0.107	0.159
Mof_C 	C 	0.23493	0.29037	0.85247	0.054
Mof_H 	H 	0.24983	0.27867	0.79677	0.07
Mof_C 	C 	0.59137	0.99383	0.61583	-0.067
Mof_C 	C 	0.56717	0.00943	0.69743	0.05
Mof_H 	H 	0.58247	0.03453	0.76123	0.046
Mof_C 	C 	0.64037	0.01353	0.63743	0.181
Mof_C 	C 	0.66907	0.06263	0.64393	-0.062
Mof_C 	C 	0.32643	0.42457	0.89847	0.072
Mof_H 	H 	0.29993	0.41377	0.84217	0.063
Mof_C 	C 	0.68987	0.13643	0.56923	-0.095
Mof_H 	H 	0.35073	0.48987	0.84977	0.182
Mof_C 	C 	0.72827	0.15073	0.65273	0.12
Mof_H 	H 	0.74827	0.18113	0.65643	0.062
Mof_C 	C 	0.71007	0.08033	0.72363	0.084
Mof_H 	H 	0.71727	0.06093	0.77423	0.032
Mof_C 	C 	0.40937	0.91843	0.89183	0.356
Mof_O 	O 	0.7693	0.6025	0.6591	-0.32
Mof_O 	O 	0.40717	0.93403	0.76303	-0.258
Mof_C 	C 	0.7023	0.535	0.6016	0.318
Mof_F 	F 	0.6739	0.5381	0.7045	-0.372
Mof_F 	F 	0.34387	0.85343	0.80233	-0.352
Mof_C 	C 	0.711	0.5061	0.714	0.857
Mof_F 	F 	0.7261	0.5312	0.842	-0.45
Mof_F 	F 	0.6711	0.4703	0.728	-0.366
Mof_F 	F 	0.7407	0.5002	0.635	-0.429
Mof_Ag	Ag	0.15046	0.3448	0.16622	0.68
Mof_O 	O 	0.98929	0.65555	0.3146	-0.198
Mof_N 	N 	0.18963	0.32347	0.02177	-0.198
Mof_N 	N 	0.40573	0.45707	0.06267	-0.193
Mof_C 	C 	0.16853	0.28867	0.92517	0.092
Mof_H 	H 	0.13783	0.27547	0.91527	0.024
Mof_C 	C 	0.8567	0.6048	0.1731	-0.142
Mof_H 	H 	0.50737	0.91373	0.44033	0.16
Mof_C 	C 	0.9016	0.6237	0.1858	0.054
Mof_H 	H 	0.9165	0.612	0.1301	0.07
Mof_C 	C 	0.25803	0.32717	0.94917	-0.067
Mof_C 	C 	0.23383	0.34277	0.03077	0.051
Mof_H 	H 	0.24913	0.36787	0.09457	0.046
Mof_C 	C 	0.30703	0.34687	0.97077	0.182
Mof_C 	C 	0.33573	0.39597	0.97727	-0.062
Mof_C 	C 	0.9931	0.7579	0.2318	0.073
Mof_H 	H 	0.9666	0.7471	0.1755	0.063
Mof_C 	C 	0.35653	0.46977	0.90257	-0.095
Mof_H 	H 	0.0174	0.8232	0.1831	0.182
Mof_C 	C 	0.39493	0.48407	0.98607	0.12
Mof_H 	H 	0.41493	0.51447	0.98977	0.062
Mof_C 	C 	0.37673	0.41367	0.05697	0.084
Mof_H 	H 	0.38393	0.39427	0.10757	0.032
Mof_C 	C 	0.07603	0.25177	0.22517	0.356
Mof_O 	O 	0.43597	0.93583	0.99243	-0.32
Mof_O 	O 	0.07383	0.26737	0.09637	-0.258
Mof_C 	C 	0.36897	0.86833	0.93493	0.316
Mof_F 	F 	0.34057	0.87143	0.03783	-0.372
Mof_F 	F 	0.01053	0.18677	0.13567	-0.352
Mof_C 	C 	0.37767	0.83943	0.04733	0.858
Mof_F 	F 	0.39277	0.86453	0.17533	-0.45
Mof_F 	F 	0.33777	0.80363	0.06133	-0.366
Mof_F 	F 	0.40737	0.83353	0.96833	-0.43
Mof_Ag	Ag	0.32187	0.139	0.49955	0.68
Mof_O 	O 	0.01112	0.66707	0.64793	-0.198
Mof_N 	N 	0.3432	0.1995	0.3551	-0.198
Mof_N 	N 	0.2096	0.282	0.396	-0.193
Mof_C 	C 	0.378	0.2132	0.2585	0.092
Mof_H 	H 	0.3912	0.1957	0.2486	0.024
Mof_C 	C 	0.06187	0.58523	0.50643	-0.142
Mof_H 	H 	0.75293	0.92697	0.77367	0.159
Mof_C 	C 	0.04297	0.61123	0.51913	0.054
Mof_H 	H 	0.05467	0.63783	0.46343	0.07
Mof_C 	C 	0.3395	0.2642	0.2825	-0.067
Mof_C 	C 	0.3239	0.2244	0.3641	0.05
Mof_H 	H 	0.2988	0.2146	0.4279	0.046
Mof_C 	C 	0.3198	0.2935	0.3041	0.181
Mof_C 	C 	0.2707	0.2731	0.3106	-0.062
Mof_C 	C 	0.90877	0.56853	0.56513	0.073
Mof_H 	H 	0.91957	0.55283	0.50883	0.063
Mof_C 	C 	0.1969	0.2201	0.2359	-0.095
Mof_H 	H 	0.84347	0.52753	0.51643	0.182
Mof_C 	C 	0.1826	0.2442	0.3194	0.12
Mof_H 	H 	0.1522	0.2338	0.3231	0.062
Mof_C 	C 	0.253	0.2964	0.3903	0.084
Mof_H 	H 	0.2724	0.323	0.4409	0.032
Mof_C 	C 	0.4149	0.1576	0.5585	0.356
Mof_O 	O 	0.73083	0.83347	0.32577	-0.32
Mof_O 	O 	0.3993	0.1398	0.4297	-0.258
Mof_C 	C 	0.79833	0.83397	0.26827	0.318
Mof_F 	F 	0.79523	0.80247	0.37117	-0.372
Mof_F 	F 	0.4799	0.1571	0.469	-0.352
Mof_C 	C 	0.82723	0.87157	0.38067	0.857
Mof_F 	F 	0.80213	0.86157	0.50867	-0.45
Mof_F 	F 	0.86303	0.86747	0.39467	-0.366
Mof_F 	F 	0.83313	0.90717	0.30167	-0.429
Mof_Ag	Ag	0.98854	0.47233	0.83288	0.68
Mof_O 	O 	0.67778	0.00041	0.98127	-0.198
Mof_N 	N 	0.00987	0.53283	0.68843	-0.198
Mof_N 	N 	0.87627	0.61533	0.72933	-0.193
Mof_C 	C 	0.04467	0.54653	0.59183	0.092
Mof_H 	H 	0.05787	0.52903	0.58193	0.024
Mof_C 	C 	0.72853	0.91857	0.83977	-0.142
Mof_H 	H 	0.4196	0.2603	0.107	0.159
Mof_C 	C 	0.70963	0.94457	0.85247	0.054
Mof_H 	H 	0.72133	0.97117	0.79677	0.07
Mof_C 	C 	0.00617	0.59753	0.61583	-0.067
Mof_C 	C 	0.99057	0.55773	0.69743	0.05
Mof_H 	H 	0.96547	0.54793	0.76123	0.046
Mof_C 	C 	0.98647	0.62683	0.63743	0.182
Mof_C 	C 	0.93737	0.60643	0.64393	-0.062
Mof_C 	C 	0.57543	0.90187	0.89847	0.072
Mof_H 	H 	0.58623	0.88617	0.84217	0.063
Mof_C 	C 	0.86357	0.55343	0.56923	-0.095
Mof_H 	H 	0.51013	0.86087	0.84977	0.182
Mof_C 	C 	0.84927	0.57753	0.65273	0.12
Mof_H 	H 	0.81887	0.56713	0.65643	0.062
Mof_C 	C 	0.91967	0.62973	0.72363	0.084
Mof_H 	H 	0.93907	0.65633	0.77423	0.032
Mof_C 	C 	0.08157	0.49093	0.89183	0.356
Mof_O 	O 	0.3975	0.1668	0.6591	-0.32
Mof_O 	O 	0.06597	0.47313	0.76303	-0.258
Mof_C 	C 	0.465	0.1673	0.6016	0.318
Mof_F 	F 	0.4619	0.1358	0.7045	-0.372
Mof_F 	F 	0.14657	0.49043	0.80233	-0.352
Mof_C 	C 	0.4939	0.2049	0.714	0.857
Mof_F 	F 	0.4688	0.1949	0.842	-0.45
Mof_F 	F 	0.5297	0.2008	0.728	-0.366
Mof_F 	F 	0.4998	0.2405	0.635	-0.429
Mof_Ag	Ag	0.6552	0.80567	0.16622	0.68
Mof_O 	O 	0.34445	0.33374	0.3146	-0.198
Mof_N 	N 	0.67653	0.86617	0.02177	-0.198
Mof_N 	N 	0.54293	0.94867	0.06267	-0.192
Mof_C 	C 	0.71133	0.87987	0.92517	0.092
Mof_H 	H 	0.72453	0.86237	0.91527	0.024
Mof_C 	C 	0.3952	0.2519	0.1731	-0.142
Mof_H 	H 	0.08627	0.59363	0.44033	0.16
Mof_C 	C 	0.3763	0.2779	0.1858	0.054
Mof_H 	H 	0.388	0.3045	0.1301	0.07
Mof_C 	C 	0.67283	0.93087	0.94917	-0.067
Mof_C 	C 	0.65723	0.89107	0.03077	0.051
Mof_H 	H 	0.63213	0.88127	0.09457	0.046
Mof_C 	C 	0.65313	0.96017	0.97077	0.182
Mof_C 	C 	0.60403	0.93977	0.97727	-0.062
Mof_C 	C 	0.2421	0.2352	0.2318	0.073
Mof_H 	H 	0.2529	0.2195	0.1755	0.063
Mof_C 	C 	0.53023	0.88677	0.90257	-0.095
Mof_H 	H 	0.1768	0.1942	0.1831	0.182
Mof_C 	C 	0.51593	0.91087	0.98607	0.12
Mof_H 	H 	0.48553	0.90047	0.98977	0.062
Mof_C 	C 	0.58633	0.96307	0.05697	0.084
Mof_H 	H 	0.60573	0.98967	0.10757	0.032
Mof_C 	C 	0.74823	0.82427	0.22517	0.356
Mof_O 	O 	0.06417	0.50013	0.99243	-0.32
Mof_O 	O 	0.73263	0.80647	0.09637	-0.258
Mof_C 	C 	0.13167	0.50063	0.93493	0.316
Mof_F 	F 	0.12857	0.46913	0.03783	-0.372
Mof_F 	F 	0.81323	0.82377	0.13567	-0.352
Mof_C 	C 	0.16057	0.53823	0.04733	0.858
Mof_F 	F 	0.13547	0.52823	0.17533	-0.45
Mof_F 	F 	0.19637	0.53413	0.06133	-0.366
Mof_F 	F 	0.16647	0.57383	0.96833	-0.429
Mof_Ag	Ag	0.139	0.81713	0.50045	0.68
Mof_O 	O 	0.66707	0.65596	0.35207	-0.198
Mof_N 	N 	0.1995	0.8563	0.6449	-0.198
Mof_N 	N 	0.282	0.0724	0.604	-0.193
Mof_C 	C 	0.2132	0.8352	0.7415	0.092
Mof_H 	H 	0.1957	0.8045	0.7514	0.024
Mof_C 	C 	0.58523	0.52337	0.49357	-0.142
Mof_H 	H 	0.92697	0.17403	0.22633	0.159
Mof_C 	C 	0.61123	0.56827	0.48087	0.054
Mof_H 	H 	0.63783	0.58317	0.53657	0.07
Mof_C 	C 	0.2642	0.9247	0.7175	-0.067
Mof_C 	C 	0.2244	0.9005	0.6359	0.05
Mof_H 	H 	0.2146	0.9158	0.5721	0.046
Mof_C 	C 	0.2935	0.9737	0.6959	0.181
Mof_C 	C 	0.2731	0.0024	0.6894	-0.062
Mof_C 	C 	0.56853	0.65977	0.43487	0.073
Mof_H 	H 	0.55283	0.63327	0.49117	0.063
Mof_C 	C 	0.2201	0.0232	0.7641	-0.094
Mof_H 	H 	0.52753	0.68407	0.48357	0.182
Mof_C 	C 	0.2442	0.0616	0.6806	0.12
Mof_H 	H 	0.2338	0.0816	0.6769	0.062
Mof_C 	C 	0.2964	0.0434	0.6097	0.084
Mof_H 	H 	0.323	0.0506	0.5591	0.032
Mof_C 	C 	0.1576	0.7427	0.4415	0.356
Mof_O 	O 	0.83347	0.10263	0.67423	-0.32
Mof_O 	O 	0.1398	0.7405	0.5703	-0.258
Mof_C 	C 	0.83397	0.03563	0.73173	0.318
Mof_F 	F 	0.80247	0.00723	0.62883	-0.372
Mof_F 	F 	0.1571	0.6772	0.531	-0.352
Mof_C 	C 	0.87157	0.04433	0.61933	0.857
Mof_F 	F 	0.86157	0.05943	0.49133	-0.45
Mof_F 	F 	0.86747	0.00443	0.60533	-0.366
Mof_F 	F 	0.90717	0.07403	0.69833	-0.429
Mof_Ag	Ag	0.80567	0.15046	0.83378	0.68
Mof_O 	O 	0.33374	0.98929	0.6854	-0.198
Mof_N 	N 	0.86617	0.18963	0.97823	-0.198
Mof_N 	N 	0.94867	0.40573	0.93733	-0.192
Mof_C 	C 	0.87987	0.16853	0.07483	0.092
Mof_H 	H 	0.86237	0.13783	0.08473	0.024
Mof_C 	C 	0.2519	0.8567	0.8269	-0.142
Mof_H 	H 	0.59363	0.50737	0.55967	0.16
Mof_C 	C 	0.2779	0.9016	0.8142	0.054
Mof_H 	H 	0.3045	0.9165	0.8699	0.07
Mof_C 	C 	0.93087	0.25803	0.05083	-0.067
Mof_C 	C 	0.89107	0.23383	0.96923	0.051
Mof_H 	H 	0.88127	0.24913	0.90543	0.046
Mof_C 	C 	0.96017	0.30703	0.02923	0.181
Mof_C 	C 	0.93977	0.33573	0.02273	-0.062
Mof_C 	C 	0.2352	0.9931	0.7682	0.072
Mof_H 	H 	0.2195	0.9666	0.8245	0.063
Mof_C 	C 	0.88677	0.35653	0.09743	-0.095
Mof_H 	H 	0.1942	0.0174	0.8169	0.182
Mof_C 	C 	0.91087	0.39493	0.01393	0.12
Mof_H 	H 	0.90047	0.41493	0.01023	0.062
Mof_C 	C 	0.96307	0.37673	0.94303	0.084
Mof_H 	H 	0.98967	0.38393	0.89243	0.032
Mof_C 	C 	0.82427	0.07603	0.77483	0.356
Mof_O 	O 	0.50013	0.43597	0.00757	-0.32
Mof_O 	O 	0.80647	0.07383	0.90363	-0.258
Mof_C 	C 	0.50063	0.36897	0.06507	0.316
Mof_F 	F 	0.46913	0.34057	0.96217	-0.372
Mof_F 	F 	0.82377	0.01053	0.86433	-0.352
Mof_C 	C 	0.53823	0.37767	0.95267	0.858
Mof_F 	F 	0.52823	0.39277	0.82467	-0.45
Mof_F 	F 	0.53413	0.33777	0.93867	-0.366
Mof_F 	F 	0.57383	0.40737	0.03167	-0.429
Mof_Ag	Ag	0.47233	0.4838	0.16712	0.68
Mof_O 	O 	0.00041	0.32262	0.01873	-0.198
Mof_N 	N 	0.53283	0.52297	0.31157	-0.198
Mof_N 	N 	0.61533	0.73907	0.27067	-0.193
Mof_C 	C 	0.54653	0.50187	0.40817	0.092
Mof_H 	H 	0.52903	0.47117	0.41807	0.024
Mof_C 	C 	0.91857	0.19003	0.16023	-0.142
Mof_H 	H 	0.2603	0.8407	0.893	0.159
Mof_C 	C 	0.94457	0.23493	0.14753	0.054
Mof_H 	H 	0.97117	0.24983	0.20323	0.07
Mof_C 	C 	0.59753	0.59137	0.38417	-0.067
Mof_C 	C 	0.55773	0.56717	0.30257	0.05
Mof_H 	H 	0.54793	0.58247	0.23877	0.046
Mof_C 	C 	0.62683	0.64037	0.36257	0.181
Mof_C 	C 	0.60643	0.66907	0.35607	-0.062
Mof_C 	C 	0.90187	0.32643	0.10153	0.072
Mof_H 	H 	0.88617	0.29993	0.15783	0.063
Mof_C 	C 	0.55343	0.68987	0.43077	-0.095
Mof_H 	H 	0.86087	0.35073	0.15023	0.182
Mof_C 	C 	0.57753	0.72827	0.34727	0.12
Mof_H 	H 	0.56713	0.74827	0.34357	0.062
Mof_C 	C 	0.62973	0.71007	0.27637	0.084
Mof_H 	H 	0.65633	0.71727	0.22577	0.032
Mof_C 	C 	0.49093	0.40937	0.10817	0.356
Mof_O 	O 	0.1668	0.7693	0.3409	-0.32
Mof_O 	O 	0.47313	0.40717	0.23697	-0.258
Mof_C 	C 	0.1673	0.7023	0.3984	0.318
Mof_F 	F 	0.1358	0.6739	0.2955	-0.372
Mof_F 	F 	0.49043	0.34387	0.19767	-0.352
Mof_C 	C 	0.2049	0.711	0.286	0.857
Mof_F 	F 	0.1949	0.7261	0.158	-0.45
Mof_F 	F 	0.2008	0.6711	0.272	-0.366
Mof_F 	F 	0.2405	0.7407	0.365	-0.429
Mof_Ag	Ag	0.18287	0.32187	0.50045	0.68
Mof_O 	O 	0.34404	0.01112	0.35207	-0.198
Mof_N 	N 	0.1437	0.3432	0.6449	-0.198
Mof_N 	N 	0.9276	0.2096	0.604	-0.193
Mof_C 	C 	0.1648	0.378	0.7415	0.092
Mof_H 	H 	0.1955	0.3912	0.7514	0.024
Mof_C 	C 	0.47663	0.06187	0.49357	-0.142
Mof_H 	H 	0.82597	0.75293	0.22633	0.159
Mof_C 	C 	0.43173	0.04297	0.48087	0.054
Mof_H 	H 	0.41683	0.05467	0.53657	0.07
Mof_C 	C 	0.0753	0.3395	0.7175	-0.067
Mof_C 	C 	0.0995	0.3239	0.6359	0.05
Mof_H 	H 	0.0842	0.2988	0.5721	0.046
Mof_C 	C 	0.0263	0.3198	0.6959	0.182
Mof_C 	C 	0.9976	0.2707	0.6894	-0.062
Mof_C 	C 	0.34023	0.90877	0.43487	0.073
Mof_H 	H 	0.36673	0.91957	0.49117	0.063
Mof_C 	C 	0.9768	0.1969	0.7641	-0.095
Mof_H 	H 	0.31593	0.84347	0.48357	0.182
Mof_C 	C 	0.9384	0.1826	0.6806	0.12
Mof_H 	H 	0.9184	0.1522	0.6769	0.062
Mof_C 	C 	0.9566	0.253	0.6097	0.084
Mof_H 	H 	0.9494	0.2724	0.5591	0.032
Mof_C 	C 	0.2573	0.4149	0.4415	0.356
Mof_O 	O 	0.89737	0.73083	0.67423	-0.32
Mof_O 	O 	0.2595	0.3993	0.5703	-0.258
Mof_C 	C 	0.96437	0.79833	0.73173	0.318
Mof_F 	F 	0.99277	0.79523	0.62883	-0.372
Mof_F 	F 	0.3228	0.4799	0.531	-0.352
Mof_C 	C 	0.95567	0.82723	0.61933	0.857
Mof_F 	F 	0.94057	0.80213	0.49133	-0.45
Mof_F 	F 	0.99557	0.86303	0.60533	-0.366
Mof_F 	F 	0.92597	0.83313	0.69833	-0.429
Mof_Ag	Ag	0.84954	0.6552	0.83378	0.68
Mof_O 	O 	0.01071	0.34445	0.6854	-0.198
Mof_N 	N 	0.81037	0.67653	0.97823	-0.198
Mof_N 	N 	0.59427	0.54293	0.93733	-0.193
Mof_C 	C 	0.83147	0.71133	0.07483	0.092
Mof_H 	H 	0.86217	0.72453	0.08473	0.024
Mof_C 	C 	0.1433	0.3952	0.8269	-0.142
Mof_H 	H 	0.49263	0.08627	0.55967	0.16
Mof_C 	C 	0.0984	0.3763	0.8142	0.054
Mof_H 	H 	0.0835	0.388	0.8699	0.07
Mof_C 	C 	0.74197	0.67283	0.05083	-0.067
Mof_C 	C 	0.76617	0.65723	0.96923	0.051
Mof_H 	H 	0.75087	0.63213	0.90543	0.046
Mof_C 	C 	0.69297	0.65313	0.02923	0.182
Mof_C 	C 	0.66427	0.60403	0.02273	-0.062
Mof_C 	C 	0.0069	0.2421	0.7682	0.073
Mof_H 	H 	0.0334	0.2529	0.8245	0.063
Mof_C 	C 	0.64347	0.53023	0.09743	-0.095
Mof_H 	H 	0.9826	0.1768	0.8169	0.182
Mof_C 	C 	0.60507	0.51593	0.01393	0.12
Mof_H 	H 	0.58507	0.48553	0.01023	0.062
Mof_C 	C 	0.62327	0.58633	0.94303	0.084
Mof_H 	H 	0.61607	0.60573	0.89243	0.032
Mof_C 	C 	0.92397	0.74823	0.77483	0.356
Mof_O 	O 	0.56403	0.06417	0.00757	-0.32
Mof_O 	O 	0.92617	0.73263	0.90363	-0.258
Mof_C 	C 	0.63103	0.13167	0.06507	0.316
Mof_F 	F 	0.65943	0.12857	0.96217	-0.372
Mof_F 	F 	0.98947	0.81323	0.86433	-0.352
Mof_C 	C 	0.62233	0.16057	0.95267	0.858
Mof_F 	F 	0.60723	0.13547	0.82467	-0.45
Mof_F 	F 	0.66223	0.19637	0.93867	-0.366
Mof_F 	F 	0.59263	0.16647	0.03167	-0.43
Mof_Ag	Ag	0.5162	0.98854	0.16712	0.68
Mof_O 	O 	0.67738	0.67778	0.01873	-0.198
Mof_N 	N 	0.47703	0.00987	0.31157	-0.198
Mof_N 	N 	0.26093	0.87627	0.27067	-0.193
Mof_C 	C 	0.49813	0.04467	0.40817	0.092
Mof_H 	H 	0.52883	0.05787	0.41807	0.024
Mof_C 	C 	0.80997	0.72853	0.16023	-0.142
Mof_H 	H 	0.1593	0.4196	0.893	0.159
Mof_C 	C 	0.76507	0.70963	0.14753	0.054
Mof_H 	H 	0.75017	0.72133	0.20323	0.07
Mof_C 	C 	0.40863	0.00617	0.38417	-0.067
Mof_C 	C 	0.43283	0.99057	0.30257	0.05
Mof_H 	H 	0.41753	0.96547	0.23877	0.046
Mof_C 	C 	0.35963	0.98647	0.36257	0.181
Mof_C 	C 	0.33093	0.93737	0.35607	-0.062
Mof_C 	C 	0.67357	0.57543	0.10153	0.072
Mof_H 	H 	0.70007	0.58623	0.15783	0.063
Mof_C 	C 	0.31013	0.86357	0.43077	-0.095
Mof_H 	H 	0.64927	0.51013	0.15023	0.182
Mof_C 	C 	0.27173	0.84927	0.34727	0.12
Mof_H 	H 	0.25173	0.81887	0.34357	0.062
Mof_C 	C 	0.28993	0.91967	0.27637	0.084
Mof_H 	H 	0.28273	0.93907	0.22577	0.032
Mof_C 	C 	0.59063	0.08157	0.10817	0.356
Mof_O 	O 	0.2307	0.3975	0.3409	-0.32
Mof_O 	O 	0.59283	0.06597	0.23697	-0.258
Mof_C 	C 	0.2977	0.465	0.3984	0.318
Mof_F 	F 	0.3261	0.4619	0.2955	-0.372
Mof_F 	F 	0.65613	0.14657	0.19767	-0.352
Mof_C 	C 	0.289	0.4939	0.286	0.857
Mof_F 	F 	0.2739	0.4688	0.158	-0.45
Mof_F 	F 	0.3289	0.5297	0.272	-0.366
Mof_F 	F 	0.2593	0.4998	0.365	-0.429
Mof_Ag	Ag	0.67813	0.861	0.50045	0.68
Mof_O 	O 	0.98888	0.33293	0.35207	-0.198
Mof_N 	N 	0.6568	0.8005	0.6449	-0.198
Mof_N 	N 	0.7904	0.718	0.604	-0.193
Mof_C 	C 	0.622	0.7868	0.7415	0.092
Mof_H 	H 	0.6088	0.8043	0.7514	0.024
Mof_C 	C 	0.93813	0.41477	0.49357	-0.142
Mof_H 	H 	0.24707	0.07303	0.22633	0.159
Mof_C 	C 	0.95703	0.38877	0.48087	0.054
Mof_H 	H 	0.94533	0.36217	0.53657	0.07
Mof_C 	C 	0.6605	0.7358	0.7175	-0.067
Mof_C 	C 	0.6761	0.7756	0.6359	0.05
Mof_H 	H 	0.7012	0.7854	0.5721	0.046
Mof_C 	C 	0.6802	0.7065	0.6959	0.181
Mof_C 	C 	0.7293	0.7269	0.6894	-0.062
Mof_C 	C 	0.09123	0.43147	0.43487	0.073
Mof_H 	H 	0.08043	0.44717	0.49117	0.063
Mof_C 	C 	0.8031	0.7799	0.7641	-0.095
Mof_H 	H 	0.15653	0.47247	0.48357	0.182
Mof_C 	C 	0.8174	0.7558	0.6806	0.12
Mof_H 	H 	0.8478	0.7662	0.6769	0.062
Mof_C 	C 	0.747	0.7036	0.6097	0.084
Mof_H 	H 	0.7276	0.677	0.5591	0.032
Mof_C 	C 	0.5851	0.8424	0.4415	0.356
Mof_O 	O 	0.26917	0.16653	0.67423	-0.32
Mof_O 	O 	0.6007	0.8602	0.5703	-0.258
Mof_C 	C 	0.20167	0.16603	0.73173	0.318
Mof_F 	F 	0.20477	0.19753	0.62883	-0.372
Mof_F 	F 	0.5201	0.8429	0.531	-0.352
Mof_C 	C 	0.17277	0.12843	0.61933	0.857
Mof_F 	F 	0.19787	0.13843	0.49133	-0.45
Mof_F 	F 	0.13697	0.13253	0.60533	-0.366
Mof_F 	F 	0.16687	0.09283	0.69833	-0.429
Mof_Ag	Ag	0.3448	0.19433	0.83378	0.68
Mof_O 	O 	0.65555	0.66626	0.6854	-0.198
Mof_N 	N 	0.32347	0.13383	0.97823	-0.198
Mof_N 	N 	0.45707	0.05133	0.93733	-0.192
Mof_C 	C 	0.28867	0.12013	0.07483	0.092
Mof_H 	H 	0.27547	0.13763	0.08473	0.024
Mof_C 	C 	0.6048	0.7481	0.8269	-0.142
Mof_H 	H 	0.91373	0.40637	0.55967	0.16
Mof_C 	C 	0.6237	0.7221	0.8142	0.054
Mof_H 	H 	0.612	0.6955	0.8699	0.07
Mof_C 	C 	0.32717	0.06913	0.05083	-0.067
Mof_C 	C 	0.34277	0.10893	0.96923	0.051
Mof_H 	H 	0.36787	0.11873	0.90543	0.046
Mof_C 	C 	0.34687	0.03983	0.02923	0.182
Mof_C 	C 	0.39597	0.06023	0.02273	-0.062
Mof_C 	C 	0.7579	0.7648	0.7682	0.073
Mof_H 	H 	0.7471	0.7805	0.8245	0.063
Mof_C 	C 	0.46977	0.11323	0.09743	-0.095
Mof_H 	H 	0.8232	0.8058	0.8169	0.182
Mof_C 	C 	0.48407	0.08913	0.01393	0.12
Mof_H 	H 	0.51447	0.09953	0.01023	0.062
Mof_C 	C 	0.41367	0.03693	0.94303	0.084
Mof_H 	H 	0.39427	0.01033	0.89243	0.032
Mof_C 	C 	0.25177	0.17573	0.77483	0.356
Mof_O 	O 	0.93583	0.49987	0.00757	-0.32
Mof_O 	O 	0.26737	0.19353	0.90363	-0.258
Mof_C 	C 	0.86833	0.49937	0.06507	0.316
Mof_F 	F 	0.87143	0.53087	0.96217	-0.372
Mof_F 	F 	0.18677	0.17623	0.86433	-0.352
Mof_C 	C 	0.83943	0.46177	0.95267	0.858
Mof_F 	F 	0.86453	0.47177	0.82467	-0.45
Mof_F 	F 	0.80363	0.46587	0.93867	-0.366
Mof_F 	F 	0.83353	0.42617	0.03167	-0.429
Mof_Ag	Ag	0.01146	0.52767	0.16712	0.68
Mof_O 	O 	0.32222	0.99959	0.01873	-0.198
Mof_N 	N 	0.99013	0.46717	0.31157	-0.198
Mof_N 	N 	0.12373	0.38467	0.27067	-0.193
Mof_C 	C 	0.95533	0.45347	0.40817	0.092
Mof_H 	H 	0.94213	0.47097	0.41807	0.024
Mof_C 	C 	0.27147	0.08143	0.16023	-0.142
Mof_H 	H 	0.5804	0.7397	0.893	0.159
Mof_C 	C 	0.29037	0.05543	0.14753	0.054
Mof_H 	H 	0.27867	0.02883	0.20323	0.07
Mof_C 	C 	0.99383	0.40247	0.38417	-0.067
Mof_C 	C 	0.00943	0.44227	0.30257	0.05
Mof_H 	H 	0.03453	0.45207	0.23877	0.046
Mof_C 	C 	0.01353	0.37317	0.36257	0.182
Mof_C 	C 	0.06263	0.39357	0.35607	-0.062
Mof_C 	C 	0.42457	0.09813	0.10153	0.072
Mof_H 	H 	0.41377	0.11383	0.15783	0.063
Mof_C 	C 	0.13643	0.44657	0.43077	-0.095
Mof_H 	H 	0.48987	0.13913	0.15023	0.182
Mof_C 	C 	0.15073	0.42247	0.34727	0.12
Mof_H 	H 	0.18113	0.43287	0.34357	0.062
Mof_C 	C 	0.08033	0.37027	0.27637	0.084
Mof_H 	H 	0.06093	0.34367	0.22577	0.032
Mof_C 	C 	0.91843	0.50907	0.10817	0.356
Mof_O 	O 	0.6025	0.8332	0.3409	-0.32
Mof_O 	O 	0.93403	0.52687	0.23697	-0.258
Mof_C 	C 	0.535	0.8327	0.3984	0.318
Mof_F 	F 	0.5381	0.8642	0.2955	-0.372
Mof_F 	F 	0.85343	0.50957	0.19767	-0.352
Mof_C 	C 	0.5061	0.7951	0.286	0.857
Mof_F 	F 	0.5312	0.8051	0.158	-0.45
Mof_F 	F 	0.4703	0.7992	0.272	-0.366
Mof_F 	F 	0.5002	0.7595	0.365	-0.429
_end
