data_functionalizedCrystal
_audit_creation_method	'EQeq! by Chris Wilmer'
_symmetry_space_group_name_H-M	'P1'
_symmetry_Int_Tables_number	1
_symmetry_cell_setting	triclinic
loop_
_symmetry_equiv_pos_as_xyz
  x,y,z
_cell_length_a	9.1721
_cell_length_b	25.4
_cell_length_c	7.7385
_cell_angle_alpha	90
_cell_angle_beta	97.339
_cell_angle_gamma	90
loop_
_atom_site_label
_atom_site_type_symbol
_atom_site_fract_x
_atom_site_fract_y
_atom_site_fract_z
_atom_site_charge
Mof_Er	Er	0.5112	0.65115	0.58771	1.63
Mof_O 	O 	0.486	0.7074	0.341	-0.434
Mof_O 	O 	0.5847	0.7669	0.1815	-0.465
Mof_O 	O 	0.2661	0.6565	0.4943	-0.468
Mof_O 	O 	0.1429	0.5883	0.5903	-0.366
Mof_O 	O 	0.1925	0.4831	0.4358	-0.388
Mof_O 	O 	0.3455	0.5087	0.2485	-0.268
Mof_O 	O 	0.7015	0.6243	0.7976	-0.464
Mof_O 	O 	0.6122	0.6182	0.0511	-0.331
Mof_N 	N 	0.7474	0.6673	0.4602	-0.198
Mof_N 	N 	0.9694	0.5337	0.269	-0.181
Mof_C 	C 	0.5931	0.7286	0.2852	0.422
Mof_C 	C 	0.7438	0.7062	0.3429	-0.061
Mof_C 	C 	0.8674	0.7233	0.2756	0.053
Mof_C 	C 	0.001	0.7002	0.3291	0.004
Mof_C 	C 	0.0062	0.6593	0.4509	-0.187
Mof_C 	C 	0.8769	0.644	0.5113	0.147
Mof_C 	C 	0.1484	0.6321	0.5175	0.394
Mof_C 	C 	0.2245	0.508	0.3014	0.293
Mof_C 	C 	0.097	0.5374	0.1998	-0.047
Mof_C 	C 	0.1075	0.566	0.048	-0.071
Mof_C 	C 	0.9804	0.5902	0.9671	0.146
Mof_C 	C 	0.8493	0.5862	0.0391	-0.191
Mof_C 	C 	0.849	0.5576	0.1917	0.123
Mof_C 	C 	0.7107	0.6116	0.9568	0.438
Mof_Er	Er	0.4888	0.15115	0.91229	1.637
Mof_O 	O 	0.514	0.2074	0.159	-0.431
Mof_O 	O 	0.4153	0.2669	0.3185	-0.46
Mof_O 	O 	0.7339	0.1565	0.0057	-0.475
Mof_O 	O 	0.8571	0.0883	0.9097	-0.341
Mof_O 	O 	0.8075	0.9831	0.0642	-0.344
Mof_O 	O 	0.6545	0.0087	0.2515	-0.272
Mof_O 	O 	0.2985	0.1243	0.7024	-0.456
Mof_O 	O 	0.3878	0.1182	0.4489	-0.31
Mof_N 	N 	0.2526	0.1673	0.0398	-0.204
Mof_N 	N 	0.0306	0.0337	0.231	-0.236
Mof_C 	C 	0.4069	0.2286	0.2148	0.413
Mof_C 	C 	0.2562	0.2062	0.1571	-0.038
Mof_C 	C 	0.1326	0.2233	0.2244	-0.052
Mof_C 	C 	0.999	0.2002	0.1709	0.11
Mof_C 	C 	0.9938	0.1593	0.0491	-0.126
Mof_C 	C 	0.1231	0.144	0.9887	0.08
Mof_C 	C 	0.8516	0.1321	0.9825	0.401
Mof_C 	C 	0.7755	0.008	0.1986	0.255
Mof_C 	C 	0.903	0.0374	0.3002	0
Mof_C 	C 	0.8925	0.066	0.452	0.033
Mof_C 	C 	0.0196	0.0902	0.5329	-0.005
Mof_C 	C 	0.1507	0.0862	0.4609	-0.13
Mof_C 	C 	0.151	0.0576	0.3083	0.082
Mof_C 	C 	0.2893	0.1116	0.5432	0.385
Mof_Er	Er	0.4888	0.34885	0.41229	1.619
Mof_O 	O 	0.514	0.2926	0.659	-0.427
Mof_O 	O 	0.4153	0.2331	0.8185	-0.459
Mof_O 	O 	0.7339	0.3435	0.5057	-0.461
Mof_O 	O 	0.8571	0.4117	0.4097	-0.335
Mof_O 	O 	0.8075	0.5169	0.5642	-0.372
Mof_O 	O 	0.6545	0.4913	0.7515	-0.265
Mof_O 	O 	0.2985	0.3757	0.2024	-0.448
Mof_O 	O 	0.3878	0.3818	0.9489	-0.294
Mof_N 	N 	0.2526	0.3327	0.5398	-0.191
Mof_N 	N 	0.0306	0.4663	0.731	-0.225
Mof_C 	C 	0.4069	0.2714	0.7148	0.416
Mof_C 	C 	0.2562	0.2938	0.6571	-0.041
Mof_C 	C 	0.1326	0.2767	0.7244	-0.04
Mof_C 	C 	0.999	0.2998	0.6709	0.097
Mof_C 	C 	0.9938	0.3407	0.5491	-0.101
Mof_C 	C 	0.1231	0.356	0.4887	0.055
Mof_C 	C 	0.8516	0.3679	0.4825	0.381
Mof_C 	C 	0.7755	0.492	0.6986	0.289
Mof_C 	C 	0.903	0.4626	0.8002	-0.01
Mof_C 	C 	0.8925	0.434	0.952	0.055
Mof_C 	C 	0.0196	0.4098	0.0329	-0.029
Mof_C 	C 	0.1507	0.4138	0.9609	-0.098
Mof_C 	C 	0.151	0.4424	0.8083	0.086
Mof_C 	C 	0.2893	0.3884	0.0432	0.361
Mof_Er	Er	0.5112	0.84885	0.08771	1.578
Mof_O 	O 	0.486	0.7926	0.841	-0.421
Mof_O 	O 	0.5847	0.7331	0.6815	-0.462
Mof_O 	O 	0.2661	0.8435	0.9943	-0.423
Mof_O 	O 	0.1429	0.9117	0.0903	-0.349
Mof_O 	O 	0.1925	0.0169	0.9358	-0.405
Mof_O 	O 	0.3455	0.9913	0.7485	-0.26
Mof_O 	O 	0.7015	0.8757	0.2976	-0.45
Mof_O 	O 	0.6122	0.8818	0.5511	-0.305
Mof_N 	N 	0.7474	0.8327	0.9602	-0.174
Mof_N 	N 	0.9694	0.9663	0.769	-0.169
Mof_C 	C 	0.5931	0.7714	0.7852	0.425
Mof_C 	C 	0.7438	0.7938	0.8429	-0.062
Mof_C 	C 	0.8674	0.7767	0.7756	0.063
Mof_C 	C 	0.001	0.7998	0.8291	-0.005
Mof_C 	C 	0.0062	0.8407	0.9509	-0.119
Mof_C 	C 	0.8769	0.856	0.0113	0.099
Mof_C 	C 	0.1484	0.8679	0.0175	0.324
Mof_C 	C 	0.2245	0.992	0.8014	0.329
Mof_C 	C 	0.097	0.9626	0.6998	-0.049
Mof_C 	C 	0.1075	0.934	0.548	-0.039
Mof_C 	C 	0.9804	0.9098	0.4671	0.116
Mof_C 	C 	0.8493	0.9138	0.5391	-0.153
Mof_C 	C 	0.849	0.9424	0.6917	0.125
Mof_C 	C 	0.7107	0.8884	0.4568	0.401
Mof_Cu	Cu	1.78373e-33	0.5	0.5	0.898
Mof_Cu	Cu	-0	0	-0	0.878
_end
