data_functionalizedCrystal
_audit_creation_method	'EQeq! by Chris Wilmer'
_symmetry_space_group_name_H-M	'P1'
_symmetry_Int_Tables_number	1
_symmetry_cell_setting	triclinic
loop_
_symmetry_equiv_pos_as_xyz
  x,y,z
_cell_length_a	18.228
_cell_length_b	11.9701
_cell_length_c	34.062
_cell_angle_alpha	90
_cell_angle_beta	122.355
_cell_angle_gamma	90
loop_
_atom_site_label
_atom_site_type_symbol
_atom_site_fract_x
_atom_site_fract_y
_atom_site_fract_z
_atom_site_charge
Mof_In	In	0.12494	0.99447	0.12466	3.458
Mof_In	In	0.25082	0.99281	0.25032	3.371
Mof_In	In	0.62472	0.4953	0.12514	3.175
Mof_C 	C 	0.1668	0.1463	0.06343	0.585
Mof_C 	C 	0.2361	0.2132	0.06309	-0.164
Mof_C 	C 	0.2228	0.2543	0.0216	-0.072
Mof_H 	H 	0.1693	0.2449	0.9941	0.065
Mof_C 	C 	0.2878	0.3081	0.02116	-0.055
Mof_H 	H 	0.2788	0.3336	0.9931	0.066
Mof_C 	C 	0.3684	0.3259	0.06245	-0.182
Mof_C 	C 	0.3808	0.2876	0.1034	0.009
Mof_H 	H 	0.4336	0.3	0.131	0.014
Mof_C 	C 	0.3143	0.2298	0.10421	-0.013
Mof_H 	H 	0.3231	0.2032	0.1321	0.015
Mof_C 	C 	0.44	0.384	0.0615	0.633
Mof_C 	C 	0.5855	0.6443	0.18776	0.645
Mof_C 	C 	0.5161	0.7124	0.18807	-0.175
Mof_C 	C 	0.5217	0.7337	0.22909	0.007
Mof_H 	H 	0.5698	0.709	0.2569	0.024
Mof_C 	C 	0.4552	0.7927	0.2294	0.021
Mof_H 	H 	0.4602	0.8101	0.2574	0.023
Mof_C 	C 	0.3828	0.8241	0.18777	-0.194
Mof_C 	C 	0.377	0.8018	0.14571	0.017
Mof_H 	H 	0.3284	0.8245	0.1177	0.018
Mof_C 	C 	0.4431	0.7467	0.14626	0.003
Mof_H 	H 	0.4393	0.7319	0.1184	0.024
Mof_C 	C 	0.3087	0.8819	0.187	0.688
Mof_C 	C 	0.9427	0.1128	0.06334	0.693
Mof_C 	C 	0.8703	0.1725	0.06333	-0.185
Mof_C 	C 	0.7985	0.2108	0.02158	-0.044
Mof_H 	H 	0.7961	0.1995	0.9939	0.067
Mof_C 	C 	0.7326	0.2642	0.02099	-0.066
Mof_H 	H 	0.6844	0.2869	0.9928	0.077
Mof_C 	C 	0.7362	0.2856	0.06213	-0.163
Mof_C 	C 	0.8067	0.2491	0.10363	-0.004
Mof_H 	H 	0.8099	0.263	0.1314	0.02
Mof_C 	C 	0.8736	0.1909	0.1038	0.018
Mof_H 	H 	0.9206	0.1646	0.1317	0.035
Mof_C 	C 	0.6664	0.3506	0.06214	0.607
Mof_C 	C 	0.8074	0.6111	0.18779	0.665
Mof_C 	C 	0.8799	0.6718	0.18816	-0.201
Mof_C 	C 	0.9552	0.6959	0.22936	0.151
Mof_H 	H 	0.9623	0.6734	0.2573	0.002
Mof_C 	C 	0.0218	0.755	0.22909	-0.103
Mof_H 	H 	0.0721	0.7746	0.257	0.042
Mof_C 	C 	0.0123	0.7837	0.18736	-0.276
Mof_C 	C 	0.9349	0.7578	0.14565	0.15
Mof_H 	H 	0.928	0.7781	0.1175	0.002
Mof_C 	C 	0.8701	0.7037	0.14595	-0.022
Mof_H 	H 	0.8188	0.6875	0.118	0.033
Mof_C 	C 	0.0837	0.8476	0.1875	0.692
Mof_O 	O 	0.1799	0.0789	0.1877	-1.546
Mof_O 	O 	0.0688	0.9099	0.06168	-1.355
Mof_O 	O 	0.6796	0.4059	0.18711	-1.434
Mof_O 	O 	0.5704	0.5839	0.06325	-1.392
Mof_O 	O 	0.1006	0.1229	0.0244	-0.758
Mof_O 	O 	0.1792	0.1201	0.10227	-0.845
Mof_O 	O 	0.4274	0.4098	0.02293	-0.808
Mof_O 	O 	0.5082	0.4021	0.10036	-0.814
Mof_O 	O 	0.5731	0.6186	0.14924	-0.814
Mof_O 	O 	0.6495	0.6174	0.22681	-0.81
Mof_O 	O 	0.319	0.9006	0.22583	-0.839
Mof_O 	O 	0.2436	0.9047	0.1485	-0.856
Mof_O 	O 	0.0086	0.088	0.10272	-0.921
Mof_O 	O 	0.9322	0.0934	0.0246	-0.741
Mof_O 	O 	0.6779	0.3737	0.10094	-0.816
Mof_O 	O 	0.5997	0.3747	0.02317	-0.786
Mof_O 	O 	0.7416	0.5898	0.14946	-0.827
Mof_O 	O 	0.8193	0.5879	0.2268	-0.807
Mof_O 	O 	0.1485	0.8713	0.22615	-0.849
Mof_O 	O 	0.0716	0.871	0.14864	-0.867
Mof_H 	H 	0.194	0.142	0.2	0.497
Mof_H 	H 	0.077	0.8408	0.06	0.46
Mof_H 	H 	0.688	0.339	0.183	0.496
Mof_H 	H 	0.589	0.65	0.064	0.477
Mof_In	In	0.87506	0.49447	0.37534	3.221
Mof_In	In	0.74918	0.49281	0.24968	3.121
Mof_In	In	0.37528	0.9953	0.37486	3.466
Mof_C 	C 	0.8332	0.6463	0.43657	0.598
Mof_C 	C 	0.7639	0.7132	0.43691	-0.145
Mof_C 	C 	0.7772	0.7543	0.4784	-0.011
Mof_H 	H 	0.8307	0.7449	0.5059	0.045
Mof_C 	C 	0.7122	0.8081	0.47884	0.031
Mof_H 	H 	0.7212	0.8336	0.5069	0.025
Mof_C 	C 	0.6316	0.8259	0.43755	-0.191
Mof_C 	C 	0.6192	0.7876	0.3966	0.035
Mof_H 	H 	0.5664	0.8	0.369	0.018
Mof_C 	C 	0.6857	0.7298	0.39579	-0.011
Mof_H 	H 	0.6769	0.7032	0.3679	0.032
Mof_C 	C 	0.56	0.884	0.4385	0.654
Mof_C 	C 	0.4145	0.1443	0.31224	0.68
Mof_C 	C 	0.4839	0.2124	0.31193	-0.216
Mof_C 	C 	0.4783	0.2337	0.27091	0.026
Mof_H 	H 	0.4302	0.209	0.2431	0.001
Mof_C 	C 	0.5448	0.2927	0.2706	-0.01
Mof_H 	H 	0.5398	0.3101	0.2426	0.023
Mof_C 	C 	0.6172	0.3241	0.31223	-0.178
Mof_C 	C 	0.623	0.3018	0.35429	-0.013
Mof_H 	H 	0.6716	0.3245	0.3823	0.023
Mof_C 	C 	0.5569	0.2467	0.35374	0.024
Mof_H 	H 	0.5607	0.2319	0.3816	0.008
Mof_C 	C 	0.6913	0.3819	0.313	0.653
Mof_C 	C 	0.0573	0.6128	0.43666	0.483
Mof_C 	C 	0.1297	0.6725	0.43667	-0.129
Mof_C 	C 	0.2015	0.7108	0.47842	-0.033
Mof_H 	H 	0.2039	0.6995	0.5061	0.034
Mof_C 	C 	0.2674	0.7642	0.47901	0.037
Mof_H 	H 	0.3156	0.7869	0.5072	0.019
Mof_C 	C 	0.2638	0.7856	0.43787	-0.2
Mof_C 	C 	0.1933	0.7491	0.39637	0.036
Mof_H 	H 	0.1901	0.763	0.3686	0.001
Mof_C 	C 	0.1264	0.6909	0.3962	-0.035
Mof_H 	H 	0.0794	0.6646	0.3683	0.012
Mof_C 	C 	0.3336	0.8506	0.43786	0.636
Mof_C 	C 	0.1926	0.1111	0.31221	0.681
Mof_C 	C 	0.1201	0.1718	0.31184	-0.21
Mof_C 	C 	0.0448	0.1959	0.27064	-0.099
Mof_H 	H 	0.0377	0.1734	0.2427	0.023
Mof_C 	C 	0.9782	0.255	0.27091	0.095
Mof_H 	H 	0.9279	0.2746	0.243	-0.004
Mof_C 	C 	0.9877	0.2837	0.31264	-0.094
Mof_C 	C 	0.0651	0.2578	0.35435	-0.142
Mof_H 	H 	0.072	0.2781	0.3825	0.04
Mof_C 	C 	0.1299	0.2037	0.35405	0.056
Mof_H 	H 	0.1812	0.1875	0.382	-0.014
Mof_C 	C 	0.9163	0.3476	0.3125	0.626
Mof_O 	O 	0.8201	0.5789	0.3123	-1.413
Mof_O 	O 	0.9312	0.4099	0.43832	-1.364
Mof_O 	O 	0.3204	0.9059	0.31289	-1.503
Mof_O 	O 	0.4296	0.0839	0.43675	-1.453
Mof_O 	O 	0.8994	0.6229	0.4756	-0.713
Mof_O 	O 	0.8208	0.6201	0.39773	-0.775
Mof_O 	O 	0.5726	0.9098	0.47707	-0.742
Mof_O 	O 	0.4918	0.9021	0.39964	-0.831
Mof_O 	O 	0.4269	0.1186	0.35076	-0.898
Mof_O 	O 	0.3505	0.1174	0.27319	-0.891
Mof_O 	O 	0.681	0.4006	0.27417	-0.811
Mof_O 	O 	0.7564	0.4047	0.3515	-0.828
Mof_O 	O 	0.9914	0.588	0.39728	-0.677
Mof_O 	O 	0.0678	0.5934	0.4754	-0.755
Mof_O 	O 	0.3221	0.8737	0.39906	-0.843
Mof_O 	O 	0.4003	0.8747	0.47683	-0.729
Mof_O 	O 	0.2584	0.0898	0.35054	-0.91
Mof_O 	O 	0.1807	0.0879	0.2732	-0.894
Mof_O 	O 	0.8515	0.3713	0.27385	-0.803
Mof_O 	O 	0.9284	0.371	0.35136	-0.784
Mof_H 	H 	0.806	0.642	0.3	0.488
Mof_H 	H 	0.923	0.3408	0.44	0.496
Mof_H 	H 	0.312	0.839	0.317	0.516
Mof_H 	H 	0.411	0.15	0.436	0.491
Mof_In	In	0.87506	0.00553	0.87534	2.873
Mof_In	In	0.74918	0.00719	0.74968	2.778
Mof_In	In	0.37528	0.5047	0.87486	3.185
Mof_C 	C 	0.8332	0.8537	0.93657	0.558
Mof_C 	C 	0.7639	0.7868	0.93691	-0.126
Mof_C 	C 	0.7772	0.7457	0.9784	0.029
Mof_H 	H 	0.8307	0.7551	0.0059	-0.003
Mof_C 	C 	0.7122	0.6919	0.97884	0.115
Mof_H 	H 	0.7212	0.6664	0.0069	-0.046
Mof_C 	C 	0.6316	0.6741	0.93755	-0.223
Mof_C 	C 	0.6192	0.7124	0.8966	0.06
Mof_H 	H 	0.5664	0.7	0.869	0.012
Mof_C 	C 	0.6857	0.7702	0.89579	-0.027
Mof_H 	H 	0.6769	0.7968	0.8679	0.048
Mof_C 	C 	0.56	0.616	0.9385	0.659
Mof_C 	C 	0.4145	0.3557	0.81224	0.646
Mof_C 	C 	0.4839	0.2876	0.81193	-0.195
Mof_C 	C 	0.4783	0.2663	0.77091	0.017
Mof_H 	H 	0.4302	0.291	0.7431	0.011
Mof_C 	C 	0.5448	0.2073	0.7706	-0.009
Mof_H 	H 	0.5398	0.1899	0.7426	0.022
Mof_C 	C 	0.6172	0.1759	0.81223	-0.172
Mof_C 	C 	0.623	0.1982	0.85429	-0.011
Mof_H 	H 	0.6716	0.1755	0.8823	0.023
Mof_C 	C 	0.5569	0.2533	0.85374	0.016
Mof_H 	H 	0.5607	0.2681	0.8816	0.017
Mof_C 	C 	0.6913	0.1181	0.813	0.614
Mof_C 	C 	0.0573	0.8872	0.93666	0.439
Mof_C 	C 	0.1297	0.8275	0.93667	-0.106
Mof_C 	C 	0.2015	0.7892	0.97842	0.005
Mof_H 	H 	0.2039	0.8005	0.0061	-0.012
Mof_C 	C 	0.2674	0.7358	0.97901	0.125
Mof_H 	H 	0.3156	0.7131	0.0072	-0.051
Mof_C 	C 	0.2638	0.7144	0.93787	-0.231
Mof_C 	C 	0.1933	0.7509	0.89637	0.062
Mof_H 	H 	0.1901	0.737	0.8686	-0.005
Mof_C 	C 	0.1264	0.8091	0.8962	-0.053
Mof_H 	H 	0.0794	0.8354	0.8683	0.028
Mof_C 	C 	0.3336	0.6494	0.93786	0.64
Mof_C 	C 	0.1926	0.3889	0.81221	0.644
Mof_C 	C 	0.1201	0.3282	0.81184	-0.186
Mof_C 	C 	0.0448	0.3041	0.77064	-0.11
Mof_H 	H 	0.0377	0.3266	0.7427	0.032
Mof_C 	C 	0.9782	0.245	0.77091	0.1
Mof_H 	H 	0.9279	0.2254	0.743	-0.006
Mof_C 	C 	0.9877	0.2163	0.81264	-0.092
Mof_C 	C 	0.0651	0.2422	0.85435	-0.134
Mof_H 	H 	0.072	0.2219	0.8825	0.042
Mof_C 	C 	0.1299	0.2963	0.85405	0.044
Mof_H 	H 	0.1812	0.3125	0.882	-0.003
Mof_C 	C 	0.9163	0.1524	0.8125	0.59
Mof_O 	O 	0.8201	0.9211	0.8123	-1.233
Mof_O 	O 	0.9312	0.0901	0.93832	-1.252
Mof_O 	O 	0.3204	0.5941	0.81289	-1.433
Mof_O 	O 	0.4296	0.4161	0.93675	-1.374
Mof_O 	O 	0.8994	0.8771	0.9756	-0.588
Mof_O 	O 	0.8208	0.8799	0.89773	-0.68
Mof_O 	O 	0.5726	0.5902	0.97707	-0.758
Mof_O 	O 	0.4918	0.5979	0.89964	-0.808
Mof_O 	O 	0.4269	0.3814	0.85076	-0.82
Mof_O 	O 	0.3505	0.3826	0.77319	-0.818
Mof_O 	O 	0.681	0.0994	0.77417	-0.767
Mof_O 	O 	0.7564	0.0953	0.8515	-0.782
Mof_O 	O 	0.9914	0.912	0.89728	-0.578
Mof_O 	O 	0.0678	0.9066	0.9754	-0.626
Mof_O 	O 	0.3221	0.6263	0.89906	-0.817
Mof_O 	O 	0.4003	0.6253	0.97683	-0.739
Mof_O 	O 	0.2584	0.4102	0.85054	-0.832
Mof_O 	O 	0.1807	0.4121	0.7732	-0.82
Mof_O 	O 	0.8515	0.1287	0.77385	-0.758
Mof_O 	O 	0.9284	0.129	0.85136	-0.738
Mof_H 	H 	0.806	0.858	0.8	0.443
Mof_H 	H 	0.923	0.1592	0.94	0.482
Mof_H 	H 	0.312	0.661	0.817	0.506
Mof_H 	H 	0.411	0.35	0.936	0.476
Mof_In	In	0.12494	0.50553	0.62466	3.201
Mof_In	In	0.25082	0.50719	0.75032	3.11
Mof_In	In	0.62472	0.0047	0.62514	2.847
Mof_C 	C 	0.1668	0.3537	0.56343	0.605
Mof_C 	C 	0.2361	0.2868	0.56309	-0.183
Mof_C 	C 	0.2228	0.2457	0.5216	0
Mof_H 	H 	0.1693	0.2551	0.4941	0.005
Mof_C 	C 	0.2878	0.1919	0.52116	-0.001
Mof_H 	H 	0.2788	0.1664	0.4931	0.009
Mof_C 	C 	0.3684	0.1741	0.56245	-0.189
Mof_C 	C 	0.3808	0.2124	0.6034	0.007
Mof_H 	H 	0.4336	0.2	0.631	0.017
Mof_C 	C 	0.3143	0.2702	0.60421	-0.001
Mof_H 	H 	0.3231	0.2968	0.6321	0.018
Mof_C 	C 	0.44	0.116	0.5615	0.613
Mof_C 	C 	0.5855	0.8557	0.68776	0.601
Mof_C 	C 	0.5161	0.7876	0.68807	-0.143
Mof_C 	C 	0.5217	0.7663	0.72909	-0.01
Mof_H 	H 	0.5698	0.791	0.7569	0.039
Mof_C 	C 	0.4552	0.7073	0.7294	0.032
Mof_H 	H 	0.4602	0.6899	0.7574	0.02
Mof_C 	C 	0.3828	0.6759	0.68777	-0.195
Mof_C 	C 	0.377	0.6982	0.64571	0.028
Mof_H 	H 	0.3284	0.6755	0.6177	0.014
Mof_C 	C 	0.4431	0.7533	0.64626	-0.013
Mof_H 	H 	0.4393	0.7681	0.6184	0.037
Mof_C 	C 	0.3087	0.6181	0.687	0.662
Mof_C 	C 	0.9427	0.3872	0.56334	0.721
Mof_C 	C 	0.8703	0.3275	0.56333	-0.204
Mof_C 	C 	0.7985	0.2892	0.52158	0.026
Mof_H 	H 	0.7961	0.3005	0.4939	0.009
Mof_C 	C 	0.7326	0.2358	0.52099	-0.013
Mof_H 	H 	0.6844	0.2131	0.4928	0.021
Mof_C 	C 	0.7362	0.2144	0.56213	-0.169
Mof_C 	C 	0.8067	0.2509	0.60363	-0.007
Mof_H 	H 	0.8099	0.237	0.6314	0.023
Mof_C 	C 	0.8736	0.3091	0.6038	0.03
Mof_H 	H 	0.9206	0.3354	0.6317	0.039
Mof_C 	C 	0.6664	0.1494	0.56214	0.587
Mof_C 	C 	0.8074	0.8889	0.68779	0.62
Mof_C 	C 	0.8799	0.8282	0.68816	-0.167
Mof_C 	C 	0.9552	0.8041	0.72936	0.135
Mof_H 	H 	0.9623	0.8266	0.7573	0.016
Mof_C 	C 	0.0218	0.745	0.72909	-0.094
Mof_H 	H 	0.0721	0.7254	0.757	0.041
Mof_C 	C 	0.0123	0.7163	0.68736	-0.276
Mof_C 	C 	0.9349	0.7422	0.64565	0.162
Mof_H 	H 	0.928	0.7219	0.6175	-0.001
Mof_C 	C 	0.8701	0.7963	0.64595	-0.038
Mof_H 	H 	0.8188	0.8125	0.618	0.048
Mof_C 	C 	0.0837	0.6524	0.6875	0.666
Mof_O 	O 	0.1799	0.4211	0.6877	-1.413
Mof_O 	O 	0.0688	0.5901	0.56168	-1.412
Mof_O 	O 	0.6796	0.0941	0.68711	-1.346
Mof_O 	O 	0.5704	0.9161	0.56325	-1.251
Mof_O 	O 	0.1006	0.3771	0.5244	-0.784
Mof_O 	O 	0.1792	0.3799	0.60227	-0.8
Mof_O 	O 	0.4274	0.0902	0.52293	-0.779
Mof_O 	O 	0.5082	0.0979	0.60036	-0.776
Mof_O 	O 	0.5731	0.8814	0.64924	-0.721
Mof_O 	O 	0.6495	0.8826	0.72681	-0.715
Mof_O 	O 	0.319	0.5994	0.72583	-0.805
Mof_O 	O 	0.2436	0.5953	0.6485	-0.825
Mof_O 	O 	0.0086	0.412	0.60272	-0.881
Mof_O 	O 	0.9322	0.4066	0.5246	-0.76
Mof_O 	O 	0.6779	0.1263	0.60094	-0.778
Mof_O 	O 	0.5997	0.1253	0.52317	-0.754
Mof_O 	O 	0.7416	0.9102	0.64946	-0.73
Mof_O 	O 	0.8193	0.9121	0.7268	-0.709
Mof_O 	O 	0.1485	0.6287	0.72615	-0.813
Mof_O 	O 	0.0716	0.629	0.64864	-0.832
Mof_H 	H 	0.194	0.358	0.7	0.463
Mof_H 	H 	0.077	0.6592	0.56	0.489
Mof_H 	H 	0.688	0.161	0.683	0.481
Mof_H 	H 	0.589	0.85	0.564	0.448
Mof_In	In	0.5	0.5	-0	2.958
Mof_In	In	0.5	0	0.5	2.836
Mof_In	In	-0	0	-0	2.412
Mof_In	In	5.37796e-33	0.5	0.5	2.83
_end
