data_functionalizedCrystal
_audit_creation_method	'EQeq! by Chris Wilmer'
_symmetry_space_group_name_H-M	'P1'
_symmetry_Int_Tables_number	1
_symmetry_cell_setting	triclinic
loop_
_symmetry_equiv_pos_as_xyz
  x,y,z
_cell_length_a	9.809
_cell_length_b	11.058
_cell_length_c	11.698
_cell_angle_alpha	81.23
_cell_angle_beta	81.57
_cell_angle_gamma	81.25
loop_
_atom_site_label
_atom_site_type_symbol
_atom_site_fract_x
_atom_site_fract_y
_atom_site_fract_z
_atom_site_charge
Mof_Ba	Ba	0.94137	0.32467	0.99549	1.404
Mof_C 	C 	0.9788	0.3461	0.46	0.102
Mof_C 	C 	0.9859	0.2452	0.5493	-0.131
Mof_C 	C 	0.9806	0.272	0.6645	0.107
Mof_C 	C 	0.9959	0.097	0.4087	-0.069
Mof_H 	H 	0.9931	0.162	0.3481	0.025
Mof_C 	C 	0.9926	0.122	0.5256	0.051
Mof_C 	C 	0.997	0.0204	0.6151	-0.075
Mof_H 	H 	0.9949	0.0342	0.6918	0.011
Mof_N 	N 	0.9748	0.2934	0.7575	-0.261
Mof_N 	N 	0.9708	0.4259	0.3852	-0.173
Mof_O 	O 	0.93551	0.55422	0.85595	-0.898
Mof_H 	H 	0.9837	0.5514	0.7896	0.341
Mof_H 	H 	0.8553	0.5912	0.844	0.335
Mof_C 	C 	0.5745	0.3939	0.8548	0.099
Mof_C 	C 	0.4578	0.3975	0.7942	-0.136
Mof_C 	C 	0.3247	0.4189	0.8585	0.086
Mof_C 	C 	0.4723	0.3733	0.6768	0.05
Mof_C 	C 	0.3553	0.3686	0.6206	-0.062
Mof_H 	H 	0.2668	0.3822	0.6613	0.041
Mof_C 	C 	0.3689	0.3447	0.5079	-0.082
Mof_H 	H 	0.2897	0.3429	0.4734	0.061
Mof_C 	C 	0.5021	0.3227	0.4428	0.073
Mof_C 	C 	0.6181	0.3269	0.4998	-0.08
Mof_H 	H 	0.7068	0.3132	0.4593	0.059
Mof_C 	C 	0.6046	0.3504	0.6118	-0.061
Mof_H 	H 	0.684	0.3514	0.6463	0.046
Mof_C 	C 	0.5185	0.2985	0.3259	-0.132
Mof_C 	C 	0.4041	0.2902	0.2686	0.095
Mof_C 	C 	0.6505	0.2805	0.2597	0.107
Mof_N 	N 	0.668	0.3903	0.9024	-0.235
Mof_N 	N 	0.216	0.4353	0.9088	-0.256
Mof_N 	N 	0.3103	0.2852	0.2225	-0.189
Mof_N 	N 	0.757	0.2681	0.2057	-0.256
Mof_Ba	Ba	0.05863	0.67533	0.00451	1.405
Mof_C 	C 	0.0212	0.6539	0.54	0.103
Mof_C 	C 	0.0141	0.7548	0.4507	-0.13
Mof_C 	C 	0.0194	0.728	0.3355	0.108
Mof_C 	C 	0.0041	0.903	0.5913	-0.068
Mof_H 	H 	0.0069	0.838	0.6519	0.026
Mof_C 	C 	0.0074	0.878	0.4744	0.051
Mof_C 	C 	0.003	0.9796	0.3849	-0.075
Mof_H 	H 	0.0051	0.9658	0.3082	0.011
Mof_N 	N 	0.0252	0.7066	0.2425	-0.261
Mof_N 	N 	0.0292	0.5741	0.6148	-0.173
Mof_O 	O 	0.06449	0.44578	0.14405	-0.898
Mof_H 	H 	0.0163	0.4486	0.2104	0.341
Mof_H 	H 	0.1447	0.4088	0.156	0.335
Mof_C 	C 	0.4255	0.6061	0.1452	0.099
Mof_C 	C 	0.5422	0.6025	0.2058	-0.136
Mof_C 	C 	0.6753	0.5811	0.1415	0.086
Mof_C 	C 	0.5277	0.6267	0.3232	0.05
Mof_C 	C 	0.6447	0.6314	0.3794	-0.062
Mof_H 	H 	0.7332	0.6178	0.3387	0.041
Mof_C 	C 	0.6311	0.6553	0.4921	-0.082
Mof_H 	H 	0.7103	0.6571	0.5266	0.061
Mof_C 	C 	0.4979	0.6773	0.5572	0.073
Mof_C 	C 	0.3819	0.6731	0.5002	-0.08
Mof_H 	H 	0.2932	0.6868	0.5407	0.059
Mof_C 	C 	0.3954	0.6496	0.3882	-0.061
Mof_H 	H 	0.316	0.6486	0.3537	0.046
Mof_C 	C 	0.4815	0.7015	0.6741	-0.132
Mof_C 	C 	0.5959	0.7098	0.7314	0.095
Mof_C 	C 	0.3495	0.7195	0.7403	0.107
Mof_N 	N 	0.332	0.6097	0.0976	-0.235
Mof_N 	N 	0.784	0.5647	0.0912	-0.256
Mof_N 	N 	0.6897	0.7148	0.7775	-0.189
Mof_N 	N 	0.243	0.7319	0.7943	-0.256
_end
