data_functionalizedCrystal
_audit_creation_method	'EQeq! by Chris Wilmer'
_symmetry_space_group_name_H-M	'P1'
_symmetry_Int_Tables_number	1
_symmetry_cell_setting	triclinic
loop_
_symmetry_equiv_pos_as_xyz
  x,y,z
_cell_length_a	18.7073
_cell_length_b	18.7073
_cell_length_c	7.9797
_cell_angle_alpha	90
_cell_angle_beta	90
_cell_angle_gamma	120
loop_
_atom_site_label
_atom_site_type_symbol
_atom_site_fract_x
_atom_site_fract_y
_atom_site_fract_z
_atom_site_charge
Mof_N 	N 	0.02868	0.10428	0.1531	-0.248
Mof_N 	N 	0.08566	0.2316	0.2491	-0.11
Mof_C 	C 	0.98743	0.10551	0.2946	0.061
Mof_C 	C 	0.02279	0.18338	0.3562	-0.057
Mof_C 	C 	0.08768	0.18139	0.13	0.073
Mof_C 	C 	0.1386	0.32151	0.2579	-0.062
Mof_H 	H 	0.94	0.059	0.341	0
Mof_H 	H 	0.011	0.201	0.458	0.042
Mof_H 	H 	0.13	0.204	0.042	-0.005
Mof_H 	H 	0.11	0.352	0.263	0.049
Mof_H 	H 	0.174	0.337	0.155	0.047
Mof_N 	N 	0.69535	0.43761	0.48643	-0.227
Mof_N 	N 	0.75233	0.56493	0.58243	-0.116
Mof_C 	C 	0.6541	0.43884	0.62793	0.003
Mof_C 	C 	0.68946	0.51671	0.68953	-0.008
Mof_C 	C 	0.75435	0.51472	0.46333	0.078
Mof_C 	C 	0.80527	0.65484	0.59123	-0.06
Mof_H 	H 	0.60667	0.39233	0.67433	0.021
Mof_H 	H 	0.67767	0.53433	0.79133	0.033
Mof_H 	H 	0.79667	0.53733	0.37533	-0
Mof_H 	H 	0.77667	0.68533	0.59633	0.053
Mof_H 	H 	0.84067	0.67033	0.48833	0.051
Mof_N 	N 	0.36201	0.77095	0.81977	-0.235
Mof_N 	N 	0.41899	0.89827	0.91577	-0.124
Mof_C 	C 	0.32076	0.77218	0.96127	0.054
Mof_C 	C 	0.35612	0.85005	0.02287	-0.048
Mof_C 	C 	0.42101	0.84806	0.79667	0.088
Mof_C 	C 	0.47193	0.98818	0.92457	0.095
Mof_H 	H 	0.27333	0.72567	0.00767	-0.005
Mof_H 	H 	0.34433	0.86767	0.12467	0.044
Mof_H 	H 	0.46333	0.87067	0.70867	-0.001
Mof_H 	H 	0.44333	0.01867	0.92967	-0.001
Mof_H 	H 	0.50733	0.00367	0.82167	-0.003
Mof_N 	N 	0.89572	0.9244	0.1531	-0.221
Mof_N 	N 	0.7684	0.85406	0.2491	-0.116
Mof_C 	C 	0.89449	0.88192	0.2946	0.004
Mof_C 	C 	0.81662	0.83941	0.3562	-0.007
Mof_C 	C 	0.81861	0.90629	0.13	0.079
Mof_C 	C 	0.67849	0.81709	0.2579	-0.057
Mof_H 	H 	0.941	0.881	0.341	0.027
Mof_H 	H 	0.799	0.81	0.458	0.032
Mof_H 	H 	0.796	0.926	0.042	-0.001
Mof_H 	H 	0.648	0.758	0.263	0.05
Mof_H 	H 	0.663	0.837	0.155	0.048
Mof_N 	N 	0.56239	0.25773	0.48643	-0.227
Mof_N 	N 	0.43507	0.18739	0.58243	-0.117
Mof_C 	C 	0.56116	0.21525	0.62793	0.003
Mof_C 	C 	0.48329	0.17274	0.68953	-0.01
Mof_C 	C 	0.48528	0.23962	0.46333	0.078
Mof_C 	C 	0.34516	0.15042	0.59123	-0.056
Mof_H 	H 	0.60767	0.21433	0.67433	0.021
Mof_H 	H 	0.46567	0.14333	0.79133	0.034
Mof_H 	H 	0.46267	0.25933	0.37533	-0.002
Mof_H 	H 	0.31467	0.09133	0.59633	0.047
Mof_H 	H 	0.32967	0.17033	0.48833	0.047
Mof_N 	N 	0.22905	0.59107	0.81977	-0.234
Mof_N 	N 	0.10173	0.52073	0.91577	-0.085
Mof_C 	C 	0.22782	0.54859	0.96127	0.065
Mof_C 	C 	0.14995	0.50608	0.02287	-0.069
Mof_C 	C 	0.15194	0.57296	0.79667	0.073
Mof_C 	C 	0.01182	0.48376	0.92457	-0.19
Mof_H 	H 	0.27433	0.54767	0.00767	-0.009
Mof_H 	H 	0.13233	0.47667	0.12467	0.05
Mof_H 	H 	0.12933	0.59267	0.70867	-0.001
Mof_H 	H 	0.98133	0.42467	0.92967	0.107
Mof_H 	H 	0.99633	0.50367	0.82167	0.098
Mof_N 	N 	0.0756	0.97132	0.1531	-0.212
Mof_N 	N 	0.14594	0.91434	0.2491	-0.122
Mof_C 	C 	0.11808	0.01257	0.2946	-0.057
Mof_C 	C 	0.16059	0.97721	0.3562	0.035
Mof_C 	C 	0.09371	0.91232	0.13	0.077
Mof_C 	C 	0.18291	0.8614	0.2579	-0.058
Mof_H 	H 	0.119	0.06	0.341	0.034
Mof_H 	H 	0.19	0.989	0.458	0.023
Mof_H 	H 	0.074	0.87	0.042	-0.007
Mof_H 	H 	0.242	0.89	0.263	0.053
Mof_H 	H 	0.163	0.826	0.155	0.047
Mof_N 	N 	0.74227	0.30465	0.48643	-0.227
Mof_N 	N 	0.81261	0.24767	0.58243	-0.115
Mof_C 	C 	0.78475	0.3459	0.62793	0.003
Mof_C 	C 	0.82726	0.31054	0.68953	-0.007
Mof_C 	C 	0.76038	0.24565	0.46333	0.079
Mof_C 	C 	0.84958	0.19473	0.59123	-0.06
Mof_H 	H 	0.78567	0.39333	0.67433	0.021
Mof_H 	H 	0.85667	0.32233	0.79133	0.032
Mof_H 	H 	0.74067	0.20333	0.37533	-0.002
Mof_H 	H 	0.90867	0.22333	0.59633	0.057
Mof_H 	H 	0.82967	0.15933	0.48833	0.05
Mof_N 	N 	0.40893	0.63799	0.81977	-0.234
Mof_N 	N 	0.47927	0.58101	0.91577	-0.105
Mof_C 	C 	0.45141	0.67924	0.96127	0.057
Mof_C 	C 	0.49392	0.64388	0.02287	-0.056
Mof_C 	C 	0.42704	0.57899	0.79667	0.081
Mof_C 	C 	0.51624	0.52807	0.92457	-0.046
Mof_H 	H 	0.45233	0.72667	0.00767	-0.006
Mof_H 	H 	0.52333	0.65567	0.12467	0.046
Mof_H 	H 	0.40733	0.53667	0.70867	-0.001
Mof_H 	H 	0.57533	0.55667	0.92967	0.052
Mof_H 	H 	0.49633	0.49267	0.82167	0.048
Mof_N 	N 	0.97132	0.89572	0.8469	-0.206
Mof_N 	N 	0.91434	0.7684	0.7509	-0.12
Mof_C 	C 	0.01257	0.89449	0.7054	-0.04
Mof_C 	C 	0.97721	0.81662	0.6438	0.029
Mof_C 	C 	0.91232	0.81861	0.87	0.083
Mof_C 	C 	0.8614	0.67849	0.7421	-0.059
Mof_H 	H 	0.06	0.941	0.659	0.038
Mof_H 	H 	0.989	0.799	0.542	0.025
Mof_H 	H 	0.87	0.796	0.958	0.003
Mof_H 	H 	0.89	0.648	0.737	0.056
Mof_H 	H 	0.826	0.663	0.845	0.052
Mof_N 	N 	0.63799	0.22905	0.18023	-0.22
Mof_N 	N 	0.58101	0.10173	0.08423	-0.107
Mof_C 	C 	0.67924	0.22782	0.03873	-0.047
Mof_C 	C 	0.64388	0.14995	0.97713	0.031
Mof_C 	C 	0.57899	0.15194	0.20333	0.068
Mof_C 	C 	0.52807	0.01182	0.07543	-0.219
Mof_H 	H 	0.72667	0.27433	0.99233	0.045
Mof_H 	H 	0.65567	0.13233	0.87533	0.02
Mof_H 	H 	0.53667	0.12933	0.29133	-0.001
Mof_H 	H 	0.55667	0.98133	0.07033	0.109
Mof_H 	H 	0.49267	0.99633	0.17833	0.105
Mof_N 	N 	0.30465	0.56239	0.51357	-0.227
Mof_N 	N 	0.24767	0.43507	0.41757	-0.116
Mof_C 	C 	0.3459	0.56116	0.37207	0.002
Mof_C 	C 	0.31054	0.48329	0.31047	-0.008
Mof_C 	C 	0.24565	0.48528	0.53667	0.078
Mof_C 	C 	0.19473	0.34516	0.40877	-0.06
Mof_H 	H 	0.39333	0.60767	0.32567	0.02
Mof_H 	H 	0.32233	0.46567	0.20867	0.03
Mof_H 	H 	0.20333	0.46267	0.62467	-0.001
Mof_H 	H 	0.22333	0.31467	0.40367	0.052
Mof_H 	H 	0.15933	0.32967	0.51167	0.05
Mof_N 	N 	0.10428	0.0756	0.8469	-0.228
Mof_N 	N 	0.2316	0.14594	0.7509	-0.115
Mof_C 	C 	0.10551	0.11808	0.7054	0.001
Mof_C 	C 	0.18338	0.16059	0.6438	-0.009
Mof_C 	C 	0.18139	0.09371	0.87	0.078
Mof_C 	C 	0.32151	0.18291	0.7421	-0.064
Mof_H 	H 	0.059	0.119	0.659	0.015
Mof_H 	H 	0.201	0.19	0.542	0.031
Mof_H 	H 	0.204	0.074	0.958	0
Mof_H 	H 	0.352	0.242	0.737	0.056
Mof_H 	H 	0.337	0.163	0.845	0.052
Mof_N 	N 	0.77095	0.40893	0.18023	-0.221
Mof_N 	N 	0.89827	0.47927	0.08423	-0.145
Mof_C 	C 	0.77218	0.45141	0.03873	-0.051
Mof_C 	C 	0.85005	0.49392	0.97713	0.044
Mof_C 	C 	0.84806	0.42704	0.20333	0.084
Mof_C 	C 	0.98818	0.51624	0.07543	0.077
Mof_H 	H 	0.72567	0.45233	0.99233	0.046
Mof_H 	H 	0.86767	0.52333	0.87533	0.016
Mof_H 	H 	0.87067	0.40733	0.29133	-0.001
Mof_H 	H 	0.01867	0.57533	0.07033	-0.004
Mof_H 	H 	0.00367	0.49633	0.17833	-0.002
Mof_N 	N 	0.43761	0.74227	0.51357	-0.227
Mof_N 	N 	0.56493	0.81261	0.41757	-0.115
Mof_C 	C 	0.43884	0.78475	0.37207	0.002
Mof_C 	C 	0.51671	0.82726	0.31047	-0.007
Mof_C 	C 	0.51472	0.76038	0.53667	0.079
Mof_C 	C 	0.65484	0.84958	0.40877	-0.064
Mof_H 	H 	0.39233	0.78567	0.32567	0.02
Mof_H 	H 	0.53433	0.85667	0.20867	0.03
Mof_H 	H 	0.53733	0.74067	0.62467	0
Mof_H 	H 	0.68533	0.90867	0.40367	0.058
Mof_H 	H 	0.67033	0.82967	0.51167	0.053
Mof_N 	N 	0.9244	0.02868	0.8469	-0.233
Mof_N 	N 	0.85406	0.08566	0.7509	-0.111
Mof_C 	C 	0.88192	0.98743	0.7054	0.05
Mof_C 	C 	0.83941	0.02279	0.6438	-0.041
Mof_C 	C 	0.90629	0.08768	0.87	0.08
Mof_C 	C 	0.81709	0.1386	0.7421	-0.061
Mof_H 	H 	0.881	0.94	0.659	0.011
Mof_H 	H 	0.81	0.011	0.542	0.039
Mof_H 	H 	0.926	0.13	0.958	0.006
Mof_H 	H 	0.758	0.11	0.737	0.053
Mof_H 	H 	0.837	0.174	0.845	0.053
Mof_N 	N 	0.59107	0.36201	0.18023	-0.22
Mof_N 	N 	0.52073	0.41899	0.08423	-0.127
Mof_C 	C 	0.54859	0.32076	0.03873	-0.052
Mof_C 	C 	0.50608	0.35612	0.97713	0.041
Mof_C 	C 	0.57296	0.42101	0.20333	0.076
Mof_C 	C 	0.48376	0.47193	0.07543	-0.073
Mof_H 	H 	0.54767	0.27333	0.99233	0.047
Mof_H 	H 	0.47667	0.34433	0.87533	0.017
Mof_H 	H 	0.59267	0.46333	0.29133	-0.001
Mof_H 	H 	0.42467	0.44333	0.07033	0.053
Mof_H 	H 	0.50367	0.50733	0.17833	0.052
Mof_N 	N 	0.25773	0.69535	0.51357	-0.227
Mof_N 	N 	0.18739	0.75233	0.41757	-0.116
Mof_C 	C 	0.21525	0.6541	0.37207	0.002
Mof_C 	C 	0.17274	0.68946	0.31047	-0.009
Mof_C 	C 	0.23962	0.75435	0.53667	0.078
Mof_C 	C 	0.15042	0.80527	0.40877	-0.06
Mof_H 	H 	0.21433	0.60667	0.32567	0.02
Mof_H 	H 	0.14333	0.67767	0.20867	0.031
Mof_H 	H 	0.25933	0.79667	0.62467	0.001
Mof_H 	H 	0.09133	0.77667	0.40367	0.049
Mof_H 	H 	0.17033	0.84067	0.51167	0.051
Mof_Ni	Ni	-0	0	-0	1.034
Mof_Ni	Ni	0.66667	0.33333	0.33333	1.054
Mof_Ni	Ni	0.33333	0.66667	0.66667	1.056
_end
