data_functionalizedCrystal
_audit_creation_method	'EQeq! by Chris Wilmer'
_symmetry_space_group_name_H-M	'P1'
_symmetry_Int_Tables_number	1
_symmetry_cell_setting	triclinic
loop_
_symmetry_equiv_pos_as_xyz
  x,y,z
_cell_length_a	14.458
_cell_length_b	16.9153
_cell_length_c	16.9153
_cell_angle_alpha	120
_cell_angle_beta	90
_cell_angle_gamma	90
loop_
_atom_site_label
_atom_site_type_symbol
_atom_site_fract_x
_atom_site_fract_y
_atom_site_fract_z
_atom_site_charge
Mof_Zn	Zn	3.52308e-33	-6.34661e-17	0.65265	1.186
Mof_Zn	Zn	-0	0.65265	-0	1.186
Mof_Zn	Zn	-5.28462e-33	0.34735	0.34735	1.2
Mof_Cr	Cr	0.5	0.11341	-0	1.895
Mof_Cr	Cr	0.5	0.88659	0.88659	2.222
Mof_Cr	Cr	0.5	0	0.11341	1.895
Mof_H 	H 	0.7126	0.1304	0.8294	0.041
Mof_H 	H 	0.846	0.1263	0.7581	0.041
Mof_H 	H 	0.7126	0.699	0.8696	0.026
Mof_H 	H 	0.846	0.6318	0.8737	0.029
Mof_H 	H 	0.7126	0.1706	0.301	0.03
Mof_H 	H 	0.846	0.2419	0.3682	0.033
Mof_H 	H 	0.2874	0.1304	0.8294	0.038
Mof_H 	H 	0.154	0.1263	0.7581	0.028
Mof_H 	H 	0.2874	0.699	0.8696	0.023
Mof_H 	H 	0.154	0.6318	0.8737	0.015
Mof_H 	H 	0.2874	0.1706	0.301	0.027
Mof_H 	H 	0.154	0.2419	0.3682	0.019
Mof_H 	H 	0.2874	0.301	0.1706	0.027
Mof_H 	H 	0.154	0.3682	0.2419	0.019
Mof_H 	H 	0.2874	0.8294	0.1304	0.038
Mof_H 	H 	0.154	0.7581	0.1263	0.028
Mof_H 	H 	0.2874	0.8696	0.699	0.023
Mof_H 	H 	0.154	0.8737	0.6318	0.015
Mof_H 	H 	0.7126	0.301	0.1706	0.03
Mof_H 	H 	0.846	0.3682	0.2419	0.033
Mof_H 	H 	0.7126	0.8294	0.1304	0.041
Mof_H 	H 	0.846	0.7581	0.1263	0.041
Mof_H 	H 	0.7126	0.8696	0.699	0.026
Mof_H 	H 	0.846	0.8737	0.6318	0.029
Mof_H 	H 	1.40923e-32	0.1845	0.544	0.037
Mof_H 	H 	1.40923e-32	0.3595	0.8155	0.056
Mof_H 	H 	-7.04615e-33	0.456	0.6405	0.049
Mof_H 	H 	-3.52308e-33	0.6405	0.456	0.049
Mof_H 	H 	7.04615e-33	0.544	0.1845	0.037
Mof_H 	H 	1.76154e-33	0.8155	0.3595	0.056
Mof_C 	C 	0.7478	0.0765	0.8013	0.024
Mof_C 	C 	0.8272	0.0736	0.759	-0.01
Mof_C 	C 	0.7478	0.7248	0.9235	0.086
Mof_C 	C 	0.8272	0.6854	0.9264	0.06
Mof_C 	C 	0.7478	0.1987	0.2752	0.01
Mof_C 	C 	0.8272	0.241	0.3146	0.001
Mof_C 	C 	0.2522	0.0765	0.8013	0.021
Mof_C 	C 	0.1728	0.0736	0.759	-0.015
Mof_C 	C 	0.2522	0.7248	0.9235	0.083
Mof_C 	C 	0.1728	0.6854	0.9264	0.059
Mof_C 	C 	0.2522	0.1987	0.2752	0.006
Mof_C 	C 	0.1728	0.241	0.3146	-0.004
Mof_C 	C 	0.2522	0.2752	0.1987	0.006
Mof_C 	C 	0.1728	0.3146	0.241	-0.004
Mof_C 	C 	0.2522	0.8013	0.0765	0.021
Mof_C 	C 	0.1728	0.759	0.0736	-0.015
Mof_C 	C 	0.2522	0.9235	0.7248	0.083
Mof_C 	C 	0.1728	0.9264	0.6854	0.059
Mof_C 	C 	0.7478	0.2752	0.1987	0.01
Mof_C 	C 	0.8272	0.3146	0.241	0.001
Mof_C 	C 	0.7478	0.8013	0.0765	0.024
Mof_C 	C 	0.8272	0.759	0.0736	-0.01
Mof_C 	C 	0.7478	0.9235	0.7248	0.086
Mof_C 	C 	0.8272	0.9264	0.6854	0.06
Mof_C 	C 	-3.52308e-33	0.18138	0.70118	0.336
Mof_C 	C 	1.05692e-32	0.2597	0.68225	-0.105
Mof_C 	C 	1.05692e-32	0.24455	0.5935	0.035
Mof_C 	C 	1.40923e-32	0.5198	0.81862	0.329
Mof_C 	C 	-0	0.42255	0.7403	-0.096
Mof_C 	C 	-0	0.34895	0.75545	0.032
Mof_C 	C 	-3.52308e-33	0.29882	0.4802	0.338
Mof_C 	C 	1.40923e-32	0.31775	0.57745	-0.107
Mof_C 	C 	-7.04615e-33	0.4065	0.65105	0.033
Mof_C 	C 	5.28462e-33	0.4802	0.29882	0.338
Mof_C 	C 	7.04615e-33	0.57745	0.31775	-0.107
Mof_C 	C 	-3.52308e-33	0.65105	0.4065	0.033
Mof_C 	C 	-1.23308e-32	0.70118	0.18138	0.336
Mof_C 	C 	1.58538e-32	0.68225	0.2597	-0.105
Mof_C 	C 	3.52308e-33	0.5935	0.24455	0.035
Mof_C 	C 	1.05692e-32	0.81862	0.5198	0.329
Mof_C 	C 	7.04615e-33	0.7403	0.42255	-0.096
Mof_C 	C 	7.04615e-33	0.75545	0.34895	0.032
Mof_C 	C 	0.6305	0	0.85171	0.506
Mof_C 	C 	0.7178	0	0.80332	-0.196
Mof_C 	C 	0.6305	0.85171	-0	0.506
Mof_C 	C 	0.7178	0.80332	-0	-0.196
Mof_C 	C 	0.6305	0.14829	0.14829	0.559
Mof_C 	C 	0.7178	0.19668	0.19668	-0.152
Mof_C 	C 	0.3695	0	0.85171	0.505
Mof_C 	C 	0.2822	0	0.80332	-0.202
Mof_C 	C 	0.3695	0.85171	-0	0.505
Mof_C 	C 	0.2822	0.80332	-0	-0.202
Mof_C 	C 	0.3695	0.14829	0.14829	0.558
Mof_C 	C 	0.2822	0.19668	0.19668	-0.157
Mof_N 	N 	0.88065	0	0.71833	-0.261
Mof_N 	N 	0.88065	0.71833	-0	-0.261
Mof_N 	N 	0.88065	0.28167	0.28167	-0.228
Mof_N 	N 	0.11935	0	0.71833	-0.279
Mof_N 	N 	0.11935	0.71833	-0	-0.279
Mof_N 	N 	0.11935	0.28167	0.28167	-0.245
Mof_O 	O 	0.59865	0.0764	0.9077	-0.596
Mof_O 	O 	0.59865	0.8313	0.9236	-0.61
Mof_O 	O 	0.59865	0.0923	0.1687	-0.652
Mof_O 	O 	0.40135	0.0764	0.9077	-0.598
Mof_O 	O 	0.40135	0.8313	0.9236	-0.611
Mof_O 	O 	0.40135	0.0923	0.1687	-0.654
Mof_O 	O 	0.40135	0.1687	0.0923	-0.654
Mof_O 	O 	0.40135	0.9077	0.0764	-0.598
Mof_O 	O 	0.40135	0.9236	0.8313	-0.611
Mof_O 	O 	0.59865	0.1687	0.0923	-0.652
Mof_O 	O 	0.59865	0.9077	0.0764	-0.596
Mof_O 	O 	0.59865	0.9236	0.8313	-0.61
Mof_O 	O 	0.5	0	-0	-1.171
Mof_O 	O 	1.05692e-32	0.19722	0.78012	-0.317
Mof_O 	O 	-0	0.10266	0.63027	-0.48
Mof_O 	O 	-7.04615e-33	0.5829	0.80278	-0.308
Mof_O 	O 	1.40923e-32	0.52761	0.89734	-0.427
Mof_O 	O 	7.04615e-33	0.21988	0.4171	-0.339
Mof_O 	O 	7.04615e-33	0.36973	0.47239	-0.463
Mof_O 	O 	4.40385e-33	0.4171	0.21988	-0.339
Mof_O 	O 	1.76154e-33	0.47239	0.36973	-0.463
Mof_O 	O 	8.80769e-33	0.78012	0.19722	-0.317
Mof_O 	O 	3.52308e-33	0.63027	0.10266	-0.48
Mof_O 	O 	-7.04615e-33	0.80278	0.5829	-0.308
Mof_O 	O 	3.52308e-33	0.89734	0.52761	-0.427
_end
