data_functionalizedCrystal
_audit_creation_method	'EQeq! by Chris Wilmer'
_symmetry_space_group_name_H-M	'P1'
_symmetry_Int_Tables_number	1
_symmetry_cell_setting	triclinic
loop_
_symmetry_equiv_pos_as_xyz
  x,y,z
_cell_length_a	23.849
_cell_length_b	23.849
_cell_length_c	40.2574
_cell_angle_alpha	107.23
_cell_angle_beta	107.23
_cell_angle_gamma	90.0002
loop_
_atom_site_label
_atom_site_type_symbol
_atom_site_fract_x
_atom_site_fract_y
_atom_site_fract_z
_atom_site_charge
Mof_Cu	Cu	0.90192	0.90431	0.7287	0.912
Mof_Cu	Cu	0.82678	0.82439	0.7287	0.912
Mof_Cu	Cu	0.15431	0.57678	0.2287	0.913
Mof_Cu	Cu	0.07439	0.65192	0.2287	0.913
Mof_Cu	Cu	0.42322	0.84569	0.7713	0.913
Mof_Cu	Cu	0.34808	0.92561	0.7713	0.913
Mof_Cu	Cu	0.17561	0.17322	0.2713	0.912
Mof_Cu	Cu	0.09569	0.09808	0.2713	0.912
Mof_H 	H 	0.2364	0.6269	0.636	0.075
Mof_H 	H 	0.31	0.69	0.6852	0.025
Mof_H 	H 	0.2007	0.8192	0.6904	0.032
Mof_H 	H 	0.1271	0.7561	0.6412	0.073
Mof_H 	H 	0.8955	0.6004	0.6084	0.073
Mof_H 	H 	0.868	0.6704	0.6536	0.032
Mof_H 	H 	0.9599	0.799	0.6396	0.032
Mof_H 	H 	0.9875	0.7291	0.5946	0.068
Mof_H 	H 	0.8823	0.5788	0.5408	0.119
Mof_H 	H 	0.1851	0.601	0.5776	0.043
Mof_H 	H 	0.1116	0.537	0.5296	0.067
Mof_H 	H 	0.0592	0.6781	0.6192	0.055
Mof_H 	H 	0.912	0.4708	0.4742	0.247
Mof_H 	H 	0.3996	0.0091	0.636	0.069
Mof_H 	H 	0.3752	0.9952	0.6852	0.028
Mof_H 	H 	0.4897	0.8712	0.6904	0.032
Mof_H 	H 	0.5141	0.8851	0.6412	0.071
Mof_H 	H 	0.7129	0.008	0.6084	0.066
Mof_H 	H 	0.7856	0.9832	0.6536	0.035
Mof_H 	H 	0.6797	0.8406	0.6396	0.034
Mof_H 	H 	0.6071	0.8655	0.5946	0.067
Mof_H 	H 	0.6585	0.962	0.5408	0.12
Mof_H 	H 	0.3925	0.9766	0.5776	0.045
Mof_H 	H 	0.418	0.9926	0.5296	0.067
Mof_H 	H 	0.56	0.9411	0.6192	0.055
Mof_H 	H 	0.5622	0.0034	0.4742	0.243
Mof_H 	H 	0.8769	0.1496	0.136	0.076
Mof_H 	H 	0.94	0.1252	0.1852	0.024
Mof_H 	H 	0.0692	0.2397	0.1904	0.028
Mof_H 	H 	0.0061	0.2641	0.1412	0.08
Mof_H 	H 	0.8504	0.4629	0.1084	0.076
Mof_H 	H 	0.9204	0.5356	0.1536	0.028
Mof_H 	H 	0.049	0.4297	0.1396	0.027
Mof_H 	H 	0.9791	0.3571	0.0946	0.072
Mof_H 	H 	0.8288	0.4085	0.0408	0.119
Mof_H 	H 	0.851	0.1425	0.0776	0.042
Mof_H 	H 	0.787	0.168	0.0296	0.066
Mof_H 	H 	0.9281	0.31	0.1192	0.053
Mof_H 	H 	0.7208	0.3122	0.9742	0.247
Mof_H 	H 	0.2591	0.9864	0.136	0.074
Mof_H 	H 	0.2452	0.06	0.1852	0.026
Mof_H 	H 	0.1212	0.9507	0.1904	0.031
Mof_H 	H 	0.1351	0.8771	0.1412	0.073
Mof_H 	H 	0.258	0.6455	0.1084	0.073
Mof_H 	H 	0.2332	0.618	0.1536	0.033
Mof_H 	H 	0.0906	0.7099	0.1396	0.033
Mof_H 	H 	0.1155	0.7375	0.0946	0.069
Mof_H 	H 	0.212	0.6323	0.0408	0.12
Mof_H 	H 	0.2266	0.9351	0.0776	0.044
Mof_H 	H 	0.2426	0.8616	0.0296	0.067
Mof_H 	H 	0.1911	0.8092	0.1192	0.054
Mof_H 	H 	0.2534	0.662	0.9742	0.247
Mof_H 	H 	0.8504	0.1231	0.864	0.076
Mof_H 	H 	0.8748	0.06	0.8148	0.024
Mof_H 	H 	0.7603	0.9308	0.8096	0.028
Mof_H 	H 	0.7359	0.9939	0.8588	0.08
Mof_H 	H 	0.5371	0.1496	0.8916	0.076
Mof_H 	H 	0.4644	0.0796	0.8464	0.028
Mof_H 	H 	0.5703	0.951	0.8604	0.027
Mof_H 	H 	0.6429	0.0209	0.9054	0.072
Mof_H 	H 	0.5915	0.1712	0.9592	0.119
Mof_H 	H 	0.8575	0.149	0.9224	0.042
Mof_H 	H 	0.832	0.213	0.9704	0.066
Mof_H 	H 	0.69	0.0719	0.8808	0.053
Mof_H 	H 	0.6878	0.2792	0.0258	0.247
Mof_H 	H 	0.0136	0.7409	0.864	0.074
Mof_H 	H 	0.94	0.7548	0.8148	0.026
Mof_H 	H 	0.0493	0.8788	0.8096	0.031
Mof_H 	H 	0.1229	0.8649	0.8588	0.073
Mof_H 	H 	0.3545	0.742	0.8916	0.073
Mof_H 	H 	0.382	0.7668	0.8464	0.033
Mof_H 	H 	0.2901	0.9094	0.8604	0.033
Mof_H 	H 	0.2625	0.8845	0.9054	0.069
Mof_H 	H 	0.3677	0.788	0.9592	0.12
Mof_H 	H 	0.0649	0.7734	0.9224	0.044
Mof_H 	H 	0.1384	0.7574	0.9704	0.067
Mof_H 	H 	0.1908	0.8089	0.8808	0.054
Mof_H 	H 	0.338	0.7466	0.0258	0.247
Mof_H 	H 	0.9909	0.6004	0.364	0.069
Mof_H 	H 	0.0048	0.6248	0.3148	0.028
Mof_H 	H 	0.1288	0.5103	0.3096	0.032
Mof_H 	H 	0.1149	0.4859	0.3588	0.071
Mof_H 	H 	0.992	0.2871	0.3916	0.066
Mof_H 	H 	0.0168	0.2144	0.3464	0.035
Mof_H 	H 	0.1594	0.3203	0.3604	0.034
Mof_H 	H 	0.1345	0.3929	0.4054	0.067
Mof_H 	H 	0.038	0.3415	0.4592	0.12
Mof_H 	H 	0.0234	0.6075	0.4224	0.045
Mof_H 	H 	0.0074	0.582	0.4704	0.067
Mof_H 	H 	0.0589	0.44	0.3808	0.055
Mof_H 	H 	0.9966	0.4378	0.5258	0.243
Mof_H 	H 	0.3731	0.7636	0.364	0.075
Mof_H 	H 	0.31	0.69	0.3148	0.025
Mof_H 	H 	0.1808	0.7993	0.3096	0.032
Mof_H 	H 	0.2439	0.8729	0.3588	0.073
Mof_H 	H 	0.3996	0.1045	0.3916	0.073
Mof_H 	H 	0.3296	0.132	0.3464	0.032
Mof_H 	H 	0.201	0.0401	0.3604	0.032
Mof_H 	H 	0.2709	0.0125	0.4054	0.068
Mof_H 	H 	0.4212	0.1177	0.4592	0.119
Mof_H 	H 	0.399	0.8149	0.4224	0.043
Mof_H 	H 	0.463	0.8884	0.4704	0.067
Mof_H 	H 	0.3219	0.9408	0.3808	0.055
Mof_H 	H 	0.5292	0.088	0.5258	0.247
Mof_C 	C 	0.8986	0.7896	0.679	0.332
Mof_C 	C 	0.17464	0.68544	0.63388	0.068
Mof_C 	C 	0.22918	0.66568	0.64696	-0.122
Mof_C 	C 	0.27303	0.70333	0.67626	0.054
Mof_C 	C 	0.26233	0.76063	0.69246	-0.123
Mof_C 	C 	0.20789	0.78039	0.67938	0.05
Mof_C 	C 	0.16404	0.74284	0.65008	-0.119
Mof_C 	C 	0.94418	0.65798	0.59716	0.047
Mof_C 	C 	0.90848	0.64048	0.61476	-0.109
Mof_C 	C 	0.89204	0.68224	0.64168	0.044
Mof_C 	C 	0.91129	0.74149	0.65098	-0.112
Mof_C 	C 	0.94689	0.75899	0.63338	0.035
Mof_C 	C 	0.96333	0.71723	0.60646	-0.107
Mof_C 	C 	0.96595	0.61425	0.5707	0.04
Mof_C 	C 	0.02474	0.61034	0.57208	-0.021
Mof_C 	C 	0.03957	0.56837	0.54454	0.06
Mof_C 	C 	0.9956	0.5302	0.5156	-0.107
Mof_C 	C 	0.93681	0.53411	0.51422	0.247
Mof_C 	C 	0.92198	0.57618	0.54176	-0.203
Mof_C 	C 	0.12846	0.64486	0.60292	-0.003
Mof_C 	C 	0.1453	0.6035	0.5764	-0.032
Mof_C 	C 	0.3076	0.8031	0.7214	0.336
Mof_C 	C 	0.10089	0.56569	0.54778	-0.078
Mof_C 	C 	0.06934	0.64894	0.60088	-0.058
Mof_C 	C 	0.7804	0.8894	0.679	0.33
Mof_C 	C 	0.45924	0.94844	0.63388	0.062
Mof_C 	C 	0.41778	0.98128	0.64696	-0.111
Mof_C 	C 	0.40323	0.97293	0.67626	0.048
Mof_C 	C 	0.43013	0.93183	0.69246	-0.119
Mof_C 	C 	0.47149	0.89899	0.67938	0.046
Mof_C 	C 	0.48604	0.90724	0.65008	-0.114
Mof_C 	C 	0.65298	0.93918	0.59716	0.042
Mof_C 	C 	0.70628	0.97428	0.61476	-0.098
Mof_C 	C 	0.74964	0.95944	0.64168	0.037
Mof_C 	C 	0.73969	0.90949	0.65098	-0.108
Mof_C 	C 	0.68649	0.87439	0.63338	0.031
Mof_C 	C 	0.64313	0.88923	0.60646	-0.102
Mof_C 	C 	0.60475	0.95645	0.5707	0.045
Mof_C 	C 	0.54734	0.96174	0.57208	-0.023
Mof_C 	C 	0.50497	0.97617	0.54454	0.054
Mof_C 	C 	0.52	0.9854	0.5156	-0.096
Mof_C 	C 	0.57741	0.98011	0.51422	0.243
Mof_C 	C 	0.61978	0.96558	0.54176	-0.201
Mof_C 	C 	0.47446	0.95806	0.60292	-0
Mof_C 	C 	0.4311	0.9729	0.5764	-0.036
Mof_C 	C 	0.4138	0.9183	0.7214	0.334
Mof_C 	C 	0.44689	0.98209	0.54778	-0.074
Mof_C 	C 	0.53154	0.95194	0.60088	-0.059
Mof_C 	C 	0.0396	0.5304	0.179	0.339
Mof_C 	C 	0.93544	0.20924	0.13388	0.073
Mof_C 	C 	0.91568	0.16778	0.14696	-0.125
Mof_C 	C 	0.95333	0.15323	0.17626	0.053
Mof_C 	C 	0.01063	0.18013	0.19246	-0.124
Mof_C 	C 	0.03039	0.22149	0.17938	0.06
Mof_C 	C 	0.99284	0.23604	0.15008	-0.135
Mof_C 	C 	0.90798	0.40298	0.09716	0.054
Mof_C 	C 	0.89048	0.45628	0.11476	-0.118
Mof_C 	C 	0.93224	0.49964	0.14168	0.054
Mof_C 	C 	0.99149	0.48969	0.15098	-0.127
Mof_C 	C 	0.00899	0.43649	0.13338	0.054
Mof_C 	C 	0.96723	0.39313	0.10646	-0.121
Mof_C 	C 	0.86425	0.35475	0.0707	0.04
Mof_C 	C 	0.86034	0.29734	0.07208	-0.024
Mof_C 	C 	0.81837	0.25497	0.04454	0.055
Mof_C 	C 	0.7802	0.27	0.0156	-0.1
Mof_C 	C 	0.78411	0.32741	0.01422	0.245
Mof_C 	C 	0.82618	0.36978	0.04176	-0.201
Mof_C 	C 	0.89486	0.22446	0.10292	-0.007
Mof_C 	C 	0.8535	0.1811	0.0764	-0.032
Mof_C 	C 	0.0531	0.1638	0.2214	0.336
Mof_C 	C 	0.81569	0.19689	0.04778	-0.077
Mof_C 	C 	0.89894	0.28154	0.10088	-0.057
Mof_C 	C 	0.1394	0.6486	0.179	0.332
Mof_C 	C 	0.19844	0.92464	0.13388	0.067
Mof_C 	C 	0.23128	0.97918	0.14696	-0.117
Mof_C 	C 	0.22293	0.02303	0.17626	0.05
Mof_C 	C 	0.18183	0.01233	0.19246	-0.126
Mof_C 	C 	0.14899	0.95789	0.17938	0.054
Mof_C 	C 	0.15724	0.91404	0.15008	-0.119
Mof_C 	C 	0.18918	0.69418	0.09716	0.046
Mof_C 	C 	0.22428	0.65848	0.11476	-0.108
Mof_C 	C 	0.20944	0.64204	0.14168	0.043
Mof_C 	C 	0.15949	0.66129	0.15098	-0.111
Mof_C 	C 	0.12439	0.69689	0.13338	0.034
Mof_C 	C 	0.13923	0.71333	0.10646	-0.106
Mof_C 	C 	0.20645	0.71595	0.0707	0.044
Mof_C 	C 	0.21174	0.77474	0.07208	-0.024
Mof_C 	C 	0.22617	0.78957	0.04454	0.056
Mof_C 	C 	0.2354	0.7456	0.0156	-0.1
Mof_C 	C 	0.23011	0.68681	0.01422	0.246
Mof_C 	C 	0.21558	0.67198	0.04176	-0.202
Mof_C 	C 	0.20806	0.87846	0.10292	-0.003
Mof_C 	C 	0.2229	0.8953	0.0764	-0.034
Mof_C 	C 	0.1683	0.0576	0.2214	0.336
Mof_C 	C 	0.23209	0.85089	0.04778	-0.076
Mof_C 	C 	0.20194	0.81934	0.10088	-0.057
Mof_C 	C 	0.4696	0.9604	0.821	0.339
Mof_C 	C 	0.79076	0.06456	0.86612	0.073
Mof_C 	C 	0.83222	0.08432	0.85304	-0.125
Mof_C 	C 	0.84677	0.04667	0.82374	0.053
Mof_C 	C 	0.81987	0.98937	0.80754	-0.124
Mof_C 	C 	0.77851	0.96961	0.82062	0.06
Mof_C 	C 	0.76396	0.00716	0.84992	-0.135
Mof_C 	C 	0.59702	0.09202	0.90284	0.054
Mof_C 	C 	0.54372	0.10952	0.88524	-0.118
Mof_C 	C 	0.50036	0.06776	0.85832	0.054
Mof_C 	C 	0.51031	0.00851	0.84902	-0.127
Mof_C 	C 	0.56351	0.99101	0.86662	0.054
Mof_C 	C 	0.60687	0.03277	0.89354	-0.121
Mof_C 	C 	0.64525	0.13575	0.9293	0.04
Mof_C 	C 	0.70266	0.13966	0.92792	-0.024
Mof_C 	C 	0.74503	0.18163	0.95546	0.055
Mof_C 	C 	0.73	0.2198	0.9844	-0.1
Mof_C 	C 	0.67259	0.21589	0.98578	0.245
Mof_C 	C 	0.63022	0.17382	0.95824	-0.201
Mof_C 	C 	0.77554	0.10514	0.89708	-0.007
Mof_C 	C 	0.8189	0.1465	0.9236	-0.032
Mof_C 	C 	0.8362	0.9469	0.7786	0.336
Mof_C 	C 	0.80311	0.18431	0.95222	-0.077
Mof_C 	C 	0.71846	0.10106	0.89912	-0.057
Mof_C 	C 	0.3514	0.8606	0.821	0.332
Mof_C 	C 	0.07536	0.80156	0.86612	0.067
Mof_C 	C 	0.02082	0.76872	0.85304	-0.117
Mof_C 	C 	0.97697	0.77707	0.82374	0.05
Mof_C 	C 	0.98767	0.81817	0.80754	-0.126
Mof_C 	C 	0.04211	0.85101	0.82062	0.054
Mof_C 	C 	0.08596	0.84276	0.84992	-0.119
Mof_C 	C 	0.30582	0.81082	0.90284	0.046
Mof_C 	C 	0.34152	0.77572	0.88524	-0.108
Mof_C 	C 	0.35796	0.79056	0.85832	0.043
Mof_C 	C 	0.33871	0.84051	0.84902	-0.111
Mof_C 	C 	0.30311	0.87561	0.86662	0.034
Mof_C 	C 	0.28667	0.86077	0.89354	-0.106
Mof_C 	C 	0.28405	0.79355	0.9293	0.044
Mof_C 	C 	0.22526	0.78826	0.92792	-0.024
Mof_C 	C 	0.21043	0.77383	0.95546	0.056
Mof_C 	C 	0.2544	0.7646	0.9844	-0.1
Mof_C 	C 	0.31319	0.76989	0.98578	0.246
Mof_C 	C 	0.32802	0.78442	0.95824	-0.202
Mof_C 	C 	0.12154	0.79194	0.89708	-0.003
Mof_C 	C 	0.1047	0.7771	0.9236	-0.034
Mof_C 	C 	0.9424	0.8317	0.7786	0.336
Mof_C 	C 	0.14911	0.76791	0.95222	-0.076
Mof_C 	C 	0.18066	0.79806	0.89912	-0.057
Mof_C 	C 	0.1106	0.2196	0.321	0.33
Mof_C 	C 	0.05156	0.54076	0.36612	0.062
Mof_C 	C 	0.01872	0.58222	0.35304	-0.111
Mof_C 	C 	0.02707	0.59677	0.32374	0.048
Mof_C 	C 	0.06817	0.56987	0.30754	-0.119
Mof_C 	C 	0.10101	0.52851	0.32062	0.046
Mof_C 	C 	0.09276	0.51396	0.34992	-0.114
Mof_C 	C 	0.06082	0.34702	0.40284	0.042
Mof_C 	C 	0.02572	0.29372	0.38524	-0.098
Mof_C 	C 	0.04056	0.25036	0.35832	0.037
Mof_C 	C 	0.09051	0.26031	0.34902	-0.108
Mof_C 	C 	0.12561	0.31351	0.36662	0.031
Mof_C 	C 	0.11077	0.35687	0.39354	-0.102
Mof_C 	C 	0.04355	0.39525	0.4293	0.045
Mof_C 	C 	0.03826	0.45266	0.42792	-0.023
Mof_C 	C 	0.02383	0.49503	0.45546	0.054
Mof_C 	C 	0.0146	0.48	0.4844	-0.096
Mof_C 	C 	0.01989	0.42259	0.48578	0.243
Mof_C 	C 	0.03442	0.38022	0.45824	-0.201
Mof_C 	C 	0.04194	0.52554	0.39708	-0
Mof_C 	C 	0.0271	0.5689	0.4236	-0.036
Mof_C 	C 	0.0817	0.5862	0.2786	0.334
Mof_C 	C 	0.01791	0.55311	0.45222	-0.074
Mof_C 	C 	0.04806	0.46846	0.39912	-0.059
Mof_C 	C 	0.2104	0.1014	0.321	0.332
Mof_C 	C 	0.31456	0.82536	0.36612	0.068
Mof_C 	C 	0.33432	0.77082	0.35304	-0.122
Mof_C 	C 	0.29667	0.72697	0.32374	0.054
Mof_C 	C 	0.23937	0.73767	0.30754	-0.123
Mof_C 	C 	0.21961	0.79211	0.32062	0.05
Mof_C 	C 	0.25716	0.83596	0.34992	-0.119
Mof_C 	C 	0.34202	0.05582	0.40284	0.047
Mof_C 	C 	0.35952	0.09152	0.38524	-0.109
Mof_C 	C 	0.31776	0.10796	0.35832	0.044
Mof_C 	C 	0.25851	0.08871	0.34902	-0.112
Mof_C 	C 	0.24101	0.05311	0.36662	0.035
Mof_C 	C 	0.28277	0.03667	0.39354	-0.107
Mof_C 	C 	0.38575	0.03405	0.4293	0.04
Mof_C 	C 	0.38966	0.97526	0.42792	-0.021
Mof_C 	C 	0.43163	0.96043	0.45546	0.06
Mof_C 	C 	0.4698	0.0044	0.4844	-0.107
Mof_C 	C 	0.46589	0.06319	0.48578	0.247
Mof_C 	C 	0.42382	0.07802	0.45824	-0.203
Mof_C 	C 	0.35514	0.87154	0.39708	-0.003
Mof_C 	C 	0.3965	0.8547	0.4236	-0.032
Mof_C 	C 	0.1969	0.6924	0.2786	0.336
Mof_C 	C 	0.43431	0.89911	0.45222	-0.078
Mof_C 	C 	0.35106	0.93066	0.39912	-0.058
Mof_O 	O 	0.91794	0.84144	0.69048	-0.413
Mof_O 	O 	0.35952	0.79722	0.73264	-0.414
Mof_O 	O 	0.29334	0.86284	0.73468	-0.363
Mof_O 	O 	0.85861	0.77041	0.69362	-0.371
Mof_O 	O 	0.8957	0.4956	0.4866	-0.415
Mof_O 	O 	0.77254	0.84904	0.69048	-0.412
Mof_O 	O 	0.37312	0.93542	0.73264	-0.413
Mof_O 	O 	0.44134	0.87184	0.73468	-0.363
Mof_O 	O 	0.83501	0.92321	0.69362	-0.371
Mof_O 	O 	0.5909	0.991	0.4866	-0.408
Mof_O 	O 	0.09144	0.52254	0.19048	-0.415
Mof_O 	O 	0.04722	0.12312	0.23264	-0.414
Mof_O 	O 	0.11284	0.19134	0.23468	-0.363
Mof_O 	O 	0.02041	0.58501	0.19362	-0.371
Mof_O 	O 	0.7456	0.3409	0.9866	-0.414
Mof_O 	O 	0.09904	0.66794	0.19048	-0.412
Mof_O 	O 	0.18542	0.10952	0.23264	-0.414
Mof_O 	O 	0.12184	0.04334	0.23468	-0.364
Mof_O 	O 	0.17321	0.60861	0.19362	-0.371
Mof_O 	O 	0.241	0.6457	0.9866	-0.414
Mof_O 	O 	0.47746	0.90856	0.80952	-0.415
Mof_O 	O 	0.87688	0.95278	0.76736	-0.414
Mof_O 	O 	0.80866	0.88716	0.76532	-0.363
Mof_O 	O 	0.41499	0.97959	0.80638	-0.371
Mof_O 	O 	0.6591	0.2544	0.0134	-0.414
Mof_O 	O 	0.33206	0.90096	0.80952	-0.412
Mof_O 	O 	0.89048	0.81458	0.76736	-0.414
Mof_O 	O 	0.95666	0.87816	0.76532	-0.364
Mof_O 	O 	0.39139	0.82679	0.80638	-0.371
Mof_O 	O 	0.3543	0.759	0.0134	-0.414
Mof_O 	O 	0.15096	0.22746	0.30952	-0.412
Mof_O 	O 	0.06458	0.62688	0.26736	-0.413
Mof_O 	O 	0.12816	0.55866	0.26532	-0.363
Mof_O 	O 	0.07679	0.16499	0.30638	-0.371
Mof_O 	O 	0.009	0.4091	0.5134	-0.408
Mof_O 	O 	0.15856	0.08206	0.30952	-0.413
Mof_O 	O 	0.20278	0.64048	0.26736	-0.414
Mof_O 	O 	0.13716	0.70666	0.26532	-0.363
Mof_O 	O 	0.22959	0.14139	0.30638	-0.371
Mof_O 	O 	0.5044	0.1043	0.5134	-0.415
_end
