data_functionalizedCrystal
_audit_creation_method	'EQeq! by Chris Wilmer'
_symmetry_space_group_name_H-M	'P1'
_symmetry_Int_Tables_number	1
_symmetry_cell_setting	triclinic
loop_
_symmetry_equiv_pos_as_xyz
  x,y,z
_cell_length_a	11.35
_cell_length_b	23.896
_cell_length_c	32.793
_cell_angle_alpha	97.64
_cell_angle_beta	90
_cell_angle_gamma	90
loop_
_atom_site_label
_atom_site_type_symbol
_atom_site_fract_x
_atom_site_fract_y
_atom_site_fract_z
_atom_site_charge
Mof_Tb	Tb	0.24103	0.41461	0.62555	2.42
Mof_Tb	Tb	0.73424	0.12554	0.39887	2.421
Mof_Tb	Tb	0.74103	0.08539	0.87445	2.42
Mof_Tb	Tb	0.23424	0.37446	0.10113	2.421
Mof_Tb	Tb	0.75897	0.58539	0.37445	2.42
Mof_Tb	Tb	0.26576	0.87446	0.60113	2.421
Mof_Tb	Tb	0.25897	0.91461	0.12555	2.42
Mof_Tb	Tb	0.76576	0.62554	0.89887	2.421
Mof_H 	H 	0.3507	0.5758	0.7335	0.068
Mof_H 	H 	0.5563	0.4414	0.729	0.073
Mof_H 	H 	0.3478	0.4375	0.4833	0.053
Mof_H 	H 	0.5646	0.5183	0.5673	0.061
Mof_H 	H 	0.1474	0.4465	0.5239	0.037
Mof_H 	H 	0.8822	0.5572	0.5454	0.049
Mof_H 	H 	0.121	0.3385	0.5211	0.045
Mof_H 	H 	0.064	0.3177	0.4557	0.037
Mof_H 	H 	0.7955	0.2275	0.4928	0.028
Mof_H 	H 	0.8549	0.25	0.5597	0.054
Mof_H 	H 	0.5444	0.215	0.589	0.035
Mof_H 	H 	0.6039	0.1832	0.5226	0.056
Mof_H 	H 	0.3345	0.2663	0.4802	0.06
Mof_H 	H 	0.2737	0.2935	0.5464	0.019
Mof_H 	H 	0.4696	0.6212	0.7839	0.052
Mof_H 	H 	0.6714	0.4875	0.7812	0.05
Mof_H 	H 	0.0562	0.9972	0.4321	0.059
Mof_H 	H 	0.8559	0.0624	0.5277	0.053
Mof_H 	H 	0.6436	0.0603	0.4844	0.035
Mof_H 	H 	0.3852	0.9554	0.4487	0.049
Mof_H 	H 	0.8507	0.9242	0.7665	0.068
Mof_H 	H 	0.0563	0.0586	0.771	0.073
Mof_H 	H 	0.8478	0.0625	0.0167	0.053
Mof_H 	H 	0.0646	0.9817	0.9327	0.061
Mof_H 	H 	0.6474	0.0535	0.9761	0.037
Mof_H 	H 	0.3822	0.9428	0.9546	0.05
Mof_H 	H 	0.621	0.1615	0.9789	0.044
Mof_H 	H 	0.564	0.1823	0.0443	0.038
Mof_H 	H 	0.2955	0.2725	0.0072	0.029
Mof_H 	H 	0.3549	0.25	0.9403	0.053
Mof_H 	H 	0.0444	0.285	0.911	0.035
Mof_H 	H 	0.1039	0.3168	0.9774	0.056
Mof_H 	H 	0.8345	0.2337	0.0198	0.06
Mof_H 	H 	0.7737	0.2065	0.9536	0.019
Mof_H 	H 	0.9696	0.8788	0.7161	0.052
Mof_H 	H 	0.1714	0.0125	0.7188	0.049
Mof_H 	H 	0.5562	0.5028	0.0679	0.058
Mof_H 	H 	0.3559	0.4376	0.9723	0.053
Mof_H 	H 	0.1436	0.4397	0.0156	0.036
Mof_H 	H 	0.8852	0.5446	0.0513	0.049
Mof_H 	H 	0.6493	0.4242	0.2665	0.068
Mof_H 	H 	0.4437	0.5586	0.271	0.073
Mof_H 	H 	0.6522	0.5625	0.5167	0.053
Mof_H 	H 	0.4354	0.4817	0.4327	0.061
Mof_H 	H 	0.8526	0.5535	0.4761	0.037
Mof_H 	H 	0.1178	0.4428	0.4546	0.049
Mof_H 	H 	0.879	0.6615	0.4789	0.045
Mof_H 	H 	0.936	0.6823	0.5443	0.037
Mof_H 	H 	0.2045	0.7725	0.5072	0.028
Mof_H 	H 	0.1451	0.75	0.4403	0.054
Mof_H 	H 	0.4556	0.785	0.411	0.035
Mof_H 	H 	0.3961	0.8168	0.4774	0.056
Mof_H 	H 	0.6655	0.7337	0.5198	0.06
Mof_H 	H 	0.7263	0.7065	0.4536	0.019
Mof_H 	H 	0.5304	0.3788	0.2161	0.052
Mof_H 	H 	0.3286	0.5125	0.2188	0.05
Mof_H 	H 	0.9438	0.0028	0.5679	0.059
Mof_H 	H 	0.1441	0.9376	0.4723	0.053
Mof_H 	H 	0.3564	0.9397	0.5156	0.035
Mof_H 	H 	0.6148	0.0446	0.5513	0.049
Mof_H 	H 	0.1493	0.0758	0.2335	0.068
Mof_H 	H 	0.9437	0.9414	0.229	0.073
Mof_H 	H 	0.1522	0.9375	0.9833	0.053
Mof_H 	H 	0.9354	0.0183	0.0673	0.061
Mof_H 	H 	0.3526	0.9465	0.0239	0.037
Mof_H 	H 	0.6178	0.0572	0.0454	0.05
Mof_H 	H 	0.379	0.8385	0.0211	0.044
Mof_H 	H 	0.436	0.8177	0.9557	0.038
Mof_H 	H 	0.7045	0.7275	0.9928	0.029
Mof_H 	H 	0.6451	0.75	0.0597	0.053
Mof_H 	H 	0.9556	0.715	0.089	0.035
Mof_H 	H 	0.8961	0.6832	0.0226	0.056
Mof_H 	H 	0.1655	0.7663	0.9802	0.06
Mof_H 	H 	0.2263	0.7935	0.0464	0.019
Mof_H 	H 	0.0304	0.1212	0.2839	0.052
Mof_H 	H 	0.8286	0.9875	0.2812	0.049
Mof_H 	H 	0.4438	0.4972	0.9321	0.058
Mof_H 	H 	0.6441	0.5624	0.0277	0.053
Mof_H 	H 	0.8564	0.5603	0.9844	0.036
Mof_H 	H 	0.1148	0.4554	0.9487	0.049
Mof_C 	C 	0.3684	0.4728	0.6912	0.345
Mof_C 	C 	0.4435	0.5061	0.7273	-0.023
Mof_C 	C 	0.4161	0.5578	0.7428	-0.049
Mof_C 	C 	0.5383	0.4781	0.7406	-0.054
Mof_C 	C 	0.3817	0.447	0.5631	0.292
Mof_C 	C 	0.4442	0.4752	0.5299	-0.043
Mof_C 	C 	0.4086	0.4632	0.49	-0.026
Mof_C 	C 	0.5382	0.5114	0.5403	-0.03
Mof_C 	C 	0.0415	0.5065	0.5883	0.48
Mof_C 	C 	0.0195	0.5024	0.5436	-0.135
Mof_C 	C 	0.0878	0.4683	0.5146	0
Mof_C 	C 	0.9303	0.5341	0.5274	-0.014
Mof_C 	C 	0.0247	0.3179	0.5913	0.425
Mof_C 	C 	0.9921	0.2981	0.5478	-0.093
Mof_C 	C 	0.0542	0.3164	0.5152	-0.028
Mof_C 	C 	0.0211	0.3032	0.4761	0.015
Mof_C 	C 	0.9243	0.2682	0.4645	-0.16
Mof_C 	C 	0.8621	0.2499	0.4983	0.027
Mof_C 	C 	0.8965	0.2638	0.5387	-0.038
Mof_C 	C 	0.89	0.249	0.4229	0.474
Mof_C 	C 	0.3744	0.2839	0.6182	0.496
Mof_C 	C 	0.4057	0.2579	0.574	-0.145
Mof_C 	C 	0.5015	0.225	0.5669	0.018
Mof_C 	C 	0.537	0.2057	0.527	-0.041
Mof_C 	C 	0.4735	0.2196	0.4934	-0.07
Mof_C 	C 	0.3767	0.2545	0.5018	-0.053
Mof_C 	C 	0.3417	0.2719	0.5415	0.039
Mof_C 	C 	0.5171	0.1997	0.4493	0.427
Mof_C 	C 	0.6513	0.5882	0.8246	0.366
Mof_C 	C 	0.5841	0.5568	0.7883	-0.079
Mof_C 	C 	0.4863	0.5841	0.773	0.001
Mof_C 	C 	0.6069	0.506	0.7718	0.013
Mof_C 	C 	0.8798	0.0663	0.4449	0.321
Mof_C 	C 	0.9429	0.0326	0.4748	-0.05
Mof_C 	C 	0.0326	0.9975	0.4593	-0.028
Mof_C 	C 	0.9126	0.0367	0.5167	-0.024
Mof_C 	C 	0.5338	0.0235	0.4165	0.431
Mof_C 	C 	0.5168	0.011	0.4597	-0.12
Mof_C 	C 	0.5842	0.0358	0.4903	0.004
Mof_C 	C 	0.4323	0.9741	0.4694	-0.022
Mof_C 	C 	0.8684	0.0272	0.8088	0.346
Mof_C 	C 	0.9435	0.9939	0.7727	-0.024
Mof_C 	C 	0.9161	0.9422	0.7572	-0.048
Mof_C 	C 	0.0383	0.0219	0.7594	-0.055
Mof_C 	C 	0.8817	0.053	0.9369	0.292
Mof_C 	C 	0.9442	0.0248	0.9701	-0.042
Mof_C 	C 	0.9086	0.0368	0.01	-0.027
Mof_C 	C 	0.0382	0.9886	0.9597	-0.031
Mof_C 	C 	0.5415	0.9935	0.9117	0.479
Mof_C 	C 	0.5195	0.9976	0.9564	-0.135
Mof_C 	C 	0.5878	0.0317	0.9854	0.001
Mof_C 	C 	0.4303	0.9659	0.9726	-0.015
Mof_C 	C 	0.5247	0.1821	0.9087	0.428
Mof_C 	C 	0.4921	0.2019	0.9522	-0.096
Mof_C 	C 	0.5542	0.1836	0.9848	-0.025
Mof_C 	C 	0.5211	0.1968	0.0239	0.014
Mof_C 	C 	0.4243	0.2318	0.0355	-0.159
Mof_C 	C 	0.3621	0.2501	0.0017	0.026
Mof_C 	C 	0.3965	0.2362	0.9613	-0.035
Mof_C 	C 	0.39	0.251	0.0771	0.473
Mof_C 	C 	0.8744	0.2161	0.8818	0.495
Mof_C 	C 	0.9057	0.2421	0.926	-0.144
Mof_C 	C 	0.0015	0.275	0.9331	0.017
Mof_C 	C 	0.037	0.2943	0.973	-0.042
Mof_C 	C 	0.9735	0.2804	0.0066	-0.069
Mof_C 	C 	0.8767	0.2455	0.9982	-0.053
Mof_C 	C 	0.8417	0.2281	0.9585	0.039
Mof_C 	C 	0.0171	0.3003	0.0507	0.426
Mof_C 	C 	0.1513	0.9118	0.6754	0.366
Mof_C 	C 	0.0841	0.9432	0.7117	-0.078
Mof_C 	C 	0.9863	0.9159	0.727	-0
Mof_C 	C 	0.1069	0.994	0.7282	0.014
Mof_C 	C 	0.3798	0.4337	0.0551	0.321
Mof_C 	C 	0.4429	0.4674	0.0252	-0.051
Mof_C 	C 	0.5326	0.5025	0.0407	-0.028
Mof_C 	C 	0.4126	0.4633	0.9833	-0.024
Mof_C 	C 	0.0338	0.4765	0.0835	0.431
Mof_C 	C 	0.0168	0.489	0.0403	-0.12
Mof_C 	C 	0.0842	0.4642	0.0097	0.004
Mof_C 	C 	0.9323	0.5259	0.0306	-0.021
Mof_C 	C 	0.6316	0.5272	0.3088	0.345
Mof_C 	C 	0.5565	0.4939	0.2727	-0.023
Mof_C 	C 	0.5839	0.4422	0.2572	-0.049
Mof_C 	C 	0.4617	0.5219	0.2594	-0.054
Mof_C 	C 	0.6183	0.553	0.4369	0.292
Mof_C 	C 	0.5558	0.5248	0.4701	-0.043
Mof_C 	C 	0.5914	0.5368	0.51	-0.026
Mof_C 	C 	0.4618	0.4886	0.4597	-0.03
Mof_C 	C 	0.9585	0.4935	0.4117	0.48
Mof_C 	C 	0.9805	0.4976	0.4564	-0.135
Mof_C 	C 	0.9122	0.5317	0.4854	0
Mof_C 	C 	0.0697	0.4659	0.4726	-0.014
Mof_C 	C 	0.9753	0.6821	0.4087	0.425
Mof_C 	C 	0.0079	0.7019	0.4522	-0.093
Mof_C 	C 	0.9458	0.6836	0.4848	-0.028
Mof_C 	C 	0.9789	0.6968	0.5239	0.015
Mof_C 	C 	0.0757	0.7318	0.5355	-0.16
Mof_C 	C 	0.1379	0.7501	0.5017	0.027
Mof_C 	C 	0.1035	0.7362	0.4613	-0.038
Mof_C 	C 	0.11	0.751	0.5771	0.474
Mof_C 	C 	0.6256	0.7161	0.3818	0.496
Mof_C 	C 	0.5943	0.7421	0.426	-0.145
Mof_C 	C 	0.4985	0.775	0.4331	0.018
Mof_C 	C 	0.463	0.7943	0.473	-0.041
Mof_C 	C 	0.5265	0.7804	0.5066	-0.07
Mof_C 	C 	0.6233	0.7455	0.4982	-0.053
Mof_C 	C 	0.6583	0.7281	0.4585	0.039
Mof_C 	C 	0.4829	0.8003	0.5507	0.427
Mof_C 	C 	0.3487	0.4118	0.1754	0.366
Mof_C 	C 	0.4159	0.4432	0.2117	-0.079
Mof_C 	C 	0.5137	0.4159	0.227	0.001
Mof_C 	C 	0.3931	0.494	0.2282	0.013
Mof_C 	C 	0.1202	0.9337	0.5551	0.321
Mof_C 	C 	0.0571	0.9674	0.5252	-0.05
Mof_C 	C 	0.9674	0.0025	0.5407	-0.028
Mof_C 	C 	0.0874	0.9633	0.4833	-0.024
Mof_C 	C 	0.4662	0.9765	0.5835	0.431
Mof_C 	C 	0.4832	0.989	0.5403	-0.12
Mof_C 	C 	0.4158	0.9642	0.5097	0.004
Mof_C 	C 	0.5677	0.0259	0.5306	-0.022
Mof_C 	C 	0.1316	0.9728	0.1912	0.346
Mof_C 	C 	0.0565	0.0061	0.2273	-0.024
Mof_C 	C 	0.0839	0.0578	0.2428	-0.048
Mof_C 	C 	0.9617	0.9781	0.2406	-0.055
Mof_C 	C 	0.1183	0.947	0.0631	0.292
Mof_C 	C 	0.0558	0.9752	0.0299	-0.042
Mof_C 	C 	0.0914	0.9632	0.99	-0.027
Mof_C 	C 	0.9618	0.0114	0.0403	-0.031
Mof_C 	C 	0.4585	0.0065	0.0883	0.479
Mof_C 	C 	0.4805	0.0024	0.0436	-0.135
Mof_C 	C 	0.4122	0.9683	0.0146	0.001
Mof_C 	C 	0.5697	0.0341	0.0274	-0.015
Mof_C 	C 	0.4753	0.8179	0.0913	0.428
Mof_C 	C 	0.5079	0.7981	0.0478	-0.096
Mof_C 	C 	0.4458	0.8164	0.0152	-0.025
Mof_C 	C 	0.4789	0.8032	0.9761	0.014
Mof_C 	C 	0.5757	0.7682	0.9645	-0.159
Mof_C 	C 	0.6379	0.7499	0.9983	0.026
Mof_C 	C 	0.6035	0.7638	0.0387	-0.035
Mof_C 	C 	0.61	0.749	0.9229	0.473
Mof_C 	C 	0.1256	0.7839	0.1182	0.495
Mof_C 	C 	0.0943	0.7579	0.074	-0.144
Mof_C 	C 	0.9985	0.725	0.0669	0.017
Mof_C 	C 	0.963	0.7057	0.027	-0.042
Mof_C 	C 	0.0265	0.7196	0.9934	-0.069
Mof_C 	C 	0.1233	0.7545	0.0018	-0.053
Mof_C 	C 	0.1583	0.7719	0.0415	0.039
Mof_C 	C 	0.9829	0.6997	0.9493	0.426
Mof_C 	C 	0.8487	0.0882	0.3246	0.366
Mof_C 	C 	0.9159	0.0568	0.2883	-0.078
Mof_C 	C 	0.0137	0.0841	0.273	-0
Mof_C 	C 	0.8931	0.006	0.2718	0.014
Mof_C 	C 	0.6202	0.5663	0.9449	0.321
Mof_C 	C 	0.5571	0.5326	0.9748	-0.051
Mof_C 	C 	0.4674	0.4975	0.9593	-0.028
Mof_C 	C 	0.5874	0.5367	0.0167	-0.024
Mof_C 	C 	0.9662	0.5235	0.9165	0.431
Mof_C 	C 	0.9832	0.511	0.9597	-0.12
Mof_C 	C 	0.9158	0.5358	0.9903	0.004
Mof_C 	C 	0.0677	0.4741	0.9694	-0.021
Mof_O 	O 	0.119	0.413	0.6841	-0.358
Mof_O 	O 	0.2862	0.4986	0.677	-0.418
Mof_O 	O 	0.3898	0.4241	0.6785	-0.456
Mof_O 	O 	0.5951	0.1673	0.3592	-0.361
Mof_O 	O 	0.402	0.4679	0.6011	-0.433
Mof_O 	O 	0.311	0.4088	0.5538	-0.441
Mof_O 	O 	0.1209	0.4787	0.6011	-0.57
Mof_O 	O 	0.9792	0.5378	0.6116	-0.297
Mof_O 	O 	0.1007	0.3558	0.5979	-0.561
Mof_O 	O 	0.9753	0.295	0.6197	-0.281
Mof_O 	O 	0.8221	0.2105	0.4132	-0.58
Mof_O 	O 	0.9299	0.2784	0.3958	-0.275
Mof_O 	O 	0.3311	0.3314	0.6225	-0.59
Mof_O 	O 	0.3907	0.2543	0.6449	-0.307
Mof_O 	O 	0.6047	0.171	0.4457	-0.541
Mof_O 	O 	0.4578	0.2155	0.4203	-0.284
Mof_O 	O 	0.7475	0.5641	0.8344	-0.441
Mof_O 	O 	0.6205	0.6305	0.8432	-0.457
Mof_O 	O 	0.8914	0.0579	0.4089	-0.457
Mof_O 	O 	0.8183	0.1084	0.463	-0.453
Mof_O 	O 	0.6145	0.0554	0.4092	-0.572
Mof_O 	O 	0.4703	0.9976	0.3868	-0.265
Mof_O 	O 	0.619	0.087	0.8159	-0.357
Mof_O 	O 	0.7862	0.0014	0.823	-0.418
Mof_O 	O 	0.8898	0.0759	0.8215	-0.456
Mof_O 	O 	0.0951	0.3327	0.1408	-0.361
Mof_O 	O 	0.902	0.0321	0.8989	-0.433
Mof_O 	O 	0.811	0.0912	0.9462	-0.44
Mof_O 	O 	0.6209	0.0213	0.8989	-0.57
Mof_O 	O 	0.4792	0.9622	0.8884	-0.297
Mof_O 	O 	0.6007	0.1442	0.9021	-0.562
Mof_O 	O 	0.4753	0.205	0.8803	-0.282
Mof_O 	O 	0.3221	0.2895	0.0868	-0.58
Mof_O 	O 	0.4299	0.2216	0.1042	-0.275
Mof_O 	O 	0.8311	0.1686	0.8775	-0.59
Mof_O 	O 	0.8907	0.2457	0.8551	-0.307
Mof_O 	O 	0.1047	0.329	0.0543	-0.541
Mof_O 	O 	0.9578	0.2845	0.0797	-0.283
Mof_O 	O 	0.2475	0.9359	0.6656	-0.441
Mof_O 	O 	0.1205	0.8695	0.6568	-0.457
Mof_O 	O 	0.3914	0.4421	0.0911	-0.457
Mof_O 	O 	0.3183	0.3916	0.037	-0.453
Mof_O 	O 	0.1145	0.4446	0.0908	-0.572
Mof_O 	O 	0.9703	0.5024	0.1132	-0.265
Mof_O 	O 	0.881	0.587	0.3159	-0.358
Mof_O 	O 	0.7138	0.5014	0.323	-0.418
Mof_O 	O 	0.6102	0.5759	0.3215	-0.456
Mof_O 	O 	0.4049	0.8327	0.6408	-0.361
Mof_O 	O 	0.598	0.5321	0.3989	-0.433
Mof_O 	O 	0.689	0.5912	0.4462	-0.441
Mof_O 	O 	0.8791	0.5213	0.3989	-0.57
Mof_O 	O 	0.0208	0.4622	0.3884	-0.297
Mof_O 	O 	0.8993	0.6442	0.4021	-0.561
Mof_O 	O 	0.0247	0.705	0.3803	-0.281
Mof_O 	O 	0.1779	0.7895	0.5868	-0.58
Mof_O 	O 	0.0701	0.7216	0.6042	-0.275
Mof_O 	O 	0.6689	0.6686	0.3775	-0.59
Mof_O 	O 	0.6093	0.7457	0.3551	-0.307
Mof_O 	O 	0.3953	0.829	0.5543	-0.541
Mof_O 	O 	0.5422	0.7845	0.5797	-0.284
Mof_O 	O 	0.2525	0.4359	0.1656	-0.441
Mof_O 	O 	0.3795	0.3695	0.1568	-0.457
Mof_O 	O 	0.1086	0.9421	0.5911	-0.457
Mof_O 	O 	0.1817	0.8916	0.537	-0.453
Mof_O 	O 	0.3855	0.9446	0.5908	-0.572
Mof_O 	O 	0.5297	0.0024	0.6132	-0.265
Mof_O 	O 	0.381	0.913	0.1841	-0.357
Mof_O 	O 	0.2138	0.9986	0.177	-0.418
Mof_O 	O 	0.1102	0.9241	0.1785	-0.456
Mof_O 	O 	0.9049	0.6673	0.8592	-0.361
Mof_O 	O 	0.098	0.9679	0.1011	-0.433
Mof_O 	O 	0.189	0.9088	0.0538	-0.44
Mof_O 	O 	0.3791	0.9787	0.1011	-0.57
Mof_O 	O 	0.5208	0.0378	0.1116	-0.297
Mof_O 	O 	0.3993	0.8558	0.0979	-0.562
Mof_O 	O 	0.5247	0.795	0.1197	-0.282
Mof_O 	O 	0.6779	0.7105	0.9132	-0.58
Mof_O 	O 	0.5701	0.7784	0.8958	-0.275
Mof_O 	O 	0.1689	0.8314	0.1225	-0.59
Mof_O 	O 	0.1093	0.7543	0.1449	-0.307
Mof_O 	O 	0.8953	0.671	0.9457	-0.541
Mof_O 	O 	0.0422	0.7155	0.9203	-0.283
Mof_O 	O 	0.7525	0.0641	0.3344	-0.441
Mof_O 	O 	0.8795	0.1305	0.3432	-0.457
Mof_O 	O 	0.6086	0.5579	0.9089	-0.457
Mof_O 	O 	0.6817	0.6084	0.963	-0.453
Mof_O 	O 	0.8855	0.5554	0.9092	-0.572
Mof_O 	O 	0.0297	0.4976	0.8868	-0.265
Mof_H 	H 	0.1738	0.628	0.5804	0.093
Mof_H 	H 	0.2396	0.5699	0.5751	0.078
Mof_H 	H 	0.4155	0.5643	0.6205	0.023
Mof_H 	H 	0.3134	0.7158	0.6113	0.05
Mof_H 	H 	0.4736	0.7221	0.6608	0.046
Mof_H 	H 	0.6114	0.6893	0.7049	0.139
Mof_H 	H 	0.7808	0.6553	0.7339	-0.027
Mof_H 	H 	0.8374	0.5617	0.7117	0.144
Mof_H 	H 	0.5814	0.4669	0.6277	0.021
Mof_H 	H 	0.8903	0.4731	0.6819	0.033
Mof_H 	H 	0.8623	0.3795	0.6489	0.065
Mof_H 	H 	0.697	0.3257	0.6008	0.084
Mof_H 	H 	0.5751	0.3563	0.6003	0.077
Mof_H 	H 	0.8387	0.4059	0.5611	0.07
Mof_H 	H 	0.132	0.5844	0.5059	0.063
Mof_H 	H 	0.5323	0.3376	0.5323	0.068
Mof_H 	H 	0.4381	0.655	0.5381	0.069
Mof_H 	H 	0.8262	0.372	0.4196	0.093
Mof_H 	H 	0.7604	0.4301	0.4249	0.078
Mof_H 	H 	0.5845	0.4357	0.3795	0.023
Mof_H 	H 	0.6866	0.2842	0.3887	0.05
Mof_H 	H 	0.5264	0.2779	0.3392	0.046
Mof_H 	H 	0.3886	0.3107	0.2951	0.139
Mof_H 	H 	0.2192	0.3447	0.2661	-0.027
Mof_H 	H 	0.1626	0.4383	0.2883	0.144
Mof_H 	H 	0.4186	0.5331	0.3723	0.021
Mof_H 	H 	0.1097	0.5269	0.3181	0.033
Mof_H 	H 	0.1377	0.6205	0.3511	0.065
Mof_H 	H 	0.303	0.6743	0.3992	0.084
Mof_H 	H 	0.4249	0.6437	0.3997	0.077
Mof_H 	H 	0.1613	0.5941	0.4389	0.07
Mof_H 	H 	0.868	0.4156	0.4941	0.063
Mof_H 	H 	0.4677	0.6624	0.4677	0.068
Mof_H 	H 	0.5619	0.345	0.4619	0.069
Mof_C 	C 	0.281	0.6176	0.529	0.067
Mof_C 	C 	0.249	0.6099	0.5735	-0.122
Mof_C 	C 	0.4126	0.6035	0.6233	0.115
Mof_C 	C 	0.3553	0.6851	0.6185	0.016
Mof_C 	C 	0.444	0.6894	0.6457	0.016
Mof_C 	C 	0.5832	0.6177	0.6669	0.234
Mof_C 	C 	0.6389	0.6529	0.6966	-0.276
Mof_C 	C 	0.7376	0.6325	0.7141	0.198
Mof_C 	C 	0.7707	0.5775	0.7013	-0.273
Mof_C 	C 	0.7018	0.5481	0.6731	0.233
Mof_C 	C 	0.6556	0.4567	0.6362	0.12
Mof_C 	C 	0.8255	0.4594	0.6663	0.043
Mof_C 	C 	0.8104	0.4095	0.6483	-0.023
Mof_C 	C 	0.6591	0.3607	0.5963	-0.137
Mof_C 	C 	0.6806	0.3708	0.5531	0.083
Mof_C 	C 	0.7812	0.3938	0.5417	-0.075
Mof_C 	C 	0.2019	0.6007	0.4986	-0.067
Mof_C 	C 	0.6019	0.3536	0.5243	-0.085
Mof_C 	C 	0.3818	0.6419	0.5185	-0.063
Mof_C 	C 	0.719	0.3824	0.471	0.067
Mof_C 	C 	0.751	0.3901	0.4265	-0.122
Mof_C 	C 	0.5874	0.3965	0.3767	0.115
Mof_C 	C 	0.6447	0.3149	0.3815	0.016
Mof_C 	C 	0.556	0.3106	0.3543	0.016
Mof_C 	C 	0.4168	0.3823	0.3331	0.234
Mof_C 	C 	0.3611	0.3471	0.3034	-0.276
Mof_C 	C 	0.2624	0.3675	0.2859	0.198
Mof_C 	C 	0.2293	0.4225	0.2987	-0.273
Mof_C 	C 	0.2982	0.4519	0.3269	0.233
Mof_C 	C 	0.3444	0.5433	0.3638	0.12
Mof_C 	C 	0.1745	0.5406	0.3337	0.043
Mof_C 	C 	0.1896	0.5905	0.3517	-0.023
Mof_C 	C 	0.3409	0.6393	0.4037	-0.137
Mof_C 	C 	0.3194	0.6292	0.4469	0.083
Mof_C 	C 	0.2188	0.6062	0.4583	-0.075
Mof_C 	C 	0.7981	0.3993	0.5014	-0.067
Mof_C 	C 	0.3981	0.6464	0.4757	-0.085
Mof_C 	C 	0.6182	0.3581	0.4815	-0.063
Mof_N 	N 	0.3346	0.6325	0.6032	-0.109
Mof_N 	N 	0.4811	0.635	0.6463	-0.16
Mof_N 	N 	0.6108	0.5669	0.6557	-0.191
Mof_N 	N 	0.727	0.489	0.6582	-0.159
Mof_N 	N 	0.7037	0.4072	0.6277	-0.106
Mof_N 	N 	0.6654	0.3675	0.3968	-0.109
Mof_N 	N 	0.5189	0.365	0.3537	-0.16
Mof_N 	N 	0.3892	0.4331	0.3443	-0.191
Mof_N 	N 	0.273	0.511	0.3418	-0.159
Mof_N 	N 	0.2963	0.5928	0.3723	-0.106
Mof_H 	H 	0.1874	0.1953	0.4208	0.089
Mof_H 	H 	0.0641	0.1659	0.421	0.074
Mof_H 	H 	0.0623	0.0581	0.3813	0.026
Mof_H 	H 	0.3449	0.1481	0.3637	0.075
Mof_H 	H 	0.3636	0.0638	0.3224	0.028
Mof_H 	H 	0.3128	0.9797	0.2852	0.127
Mof_H 	H 	0.2554	0.8849	0.2563	-0
Mof_H 	H 	0.0918	0.8447	0.2826	0.125
Mof_H 	H 	0.9015	0.9581	0.3822	0.027
Mof_H 	H 	0.9651	0.8062	0.3221	0.031
Mof_H 	H 	0.795	0.7981	0.366	0.064
Mof_H 	H 	0.6586	0.8807	0.4121	0.095
Mof_H 	H 	0.7203	0.9394	0.4227	0.088
Mof_H 	H 	0.6262	0.9093	0.4832	0.075
Mof_H 	H 	0.6712	0.8952	0.5543	0.067
Mof_H 	H 	0.0323	0.1743	0.4895	0.059
Mof_H 	H 	0.9297	0.8524	0.4489	0.077
Mof_H 	H 	0.8126	0.8047	0.5792	0.089
Mof_H 	H 	0.9359	0.8341	0.579	0.074
Mof_H 	H 	0.9377	0.9419	0.6187	0.026
Mof_H 	H 	0.6551	0.8519	0.6363	0.075
Mof_H 	H 	0.6364	0.9362	0.6776	0.028
Mof_H 	H 	0.6872	0.0203	0.7148	0.127
Mof_H 	H 	0.7446	0.1151	0.7437	-0
Mof_H 	H 	0.9082	0.1553	0.7174	0.125
Mof_H 	H 	0.0985	0.0419	0.6178	0.027
Mof_H 	H 	0.0349	0.1938	0.6779	0.031
Mof_H 	H 	0.205	0.2019	0.634	0.064
Mof_H 	H 	0.3414	0.1193	0.5879	0.095
Mof_H 	H 	0.2797	0.0606	0.5773	0.088
Mof_H 	H 	0.3738	0.0907	0.5168	0.075
Mof_H 	H 	0.3288	0.1048	0.4457	0.067
Mof_H 	H 	0.9677	0.8257	0.5105	0.059
Mof_H 	H 	0.0703	0.1476	0.5511	0.077
Mof_C 	C 	0.1483	0.1595	0.4225	-0.139
Mof_C 	C 	0.1351	0.0696	0.3724	0.11
Mof_C 	C 	0.2918	0.1182	0.3619	-0.039
Mof_C 	C 	0.3008	0.0739	0.34	0.053
Mof_C 	C 	0.1777	0.9851	0.3259	0.206
Mof_C 	C 	0.2482	0.9613	0.2947	-0.218
Mof_C 	C 	0.2129	0.9046	0.2778	0.141
Mof_C 	C 	0.118	0.8805	0.2932	-0.224
Mof_C 	C 	0.0626	0.9134	0.3268	0.195
Mof_C 	C 	0.8954	0.9196	0.3731	0.092
Mof_C 	C 	0.93	0.8353	0.3395	0.043
Mof_C 	C 	0.838	0.8307	0.3639	-0.017
Mof_C 	C 	0.7333	0.899	0.4196	-0.159
Mof_C 	C 	0.7719	0.883	0.46	0.108
Mof_C 	C 	0.6988	0.8941	0.4891	-0.107
Mof_C 	C 	0.7234	0.884	0.5329	-0.062
Mof_C 	C 	0.1746	0.1422	0.4612	0.077
Mof_C 	C 	0.1018	0.155	0.4932	-0.063
Mof_C 	C 	0.873	0.8594	0.4694	-0.091
Mof_C 	C 	0.8517	0.8405	0.5775	-0.139
Mof_C 	C 	0.8649	0.9304	0.6276	0.11
Mof_C 	C 	0.7082	0.8818	0.6381	-0.039
Mof_C 	C 	0.6992	0.9261	0.66	0.053
Mof_C 	C 	0.8223	0.0149	0.6741	0.206
Mof_C 	C 	0.7518	0.0387	0.7053	-0.218
Mof_C 	C 	0.7871	0.0954	0.7222	0.141
Mof_C 	C 	0.882	0.1195	0.7068	-0.224
Mof_C 	C 	0.9374	0.0866	0.6732	0.195
Mof_C 	C 	0.1046	0.0804	0.6269	0.092
Mof_C 	C 	0.07	0.1647	0.6605	0.043
Mof_C 	C 	0.162	0.1693	0.6361	-0.017
Mof_C 	C 	0.2667	0.101	0.5804	-0.159
Mof_C 	C 	0.2281	0.117	0.54	0.108
Mof_C 	C 	0.3012	0.1059	0.5109	-0.107
Mof_C 	C 	0.2766	0.116	0.4671	-0.062
Mof_C 	C 	0.8254	0.8578	0.5388	0.077
Mof_C 	C 	0.8982	0.845	0.5068	-0.063
Mof_C 	C 	0.127	0.1406	0.5306	-0.091
Mof_N 	N 	0.1855	0.117	0.3847	-0.101
Mof_N 	N 	0.204	0.0399	0.3449	-0.154
Mof_N 	N 	0.0865	0.9636	0.3428	-0.175
Mof_N 	N 	0.9622	0.8887	0.3445	-0.149
Mof_N 	N 	0.819	0.8834	0.3855	-0.095
Mof_N 	N 	0.8145	0.883	0.6153	-0.101
Mof_N 	N 	0.796	0.9601	0.6551	-0.154
Mof_N 	N 	0.9135	0.0364	0.6572	-0.175
Mof_N 	N 	0.0378	0.1113	0.6555	-0.149
Mof_N 	N 	0.181	0.1166	0.6145	-0.095
Mof_H 	H 	0.6738	0.872	0.9196	0.093
Mof_H 	H 	0.7396	0.9301	0.9249	0.077
Mof_H 	H 	0.9155	0.9357	0.8795	0.023
Mof_H 	H 	0.8134	0.7842	0.8887	0.05
Mof_H 	H 	0.9736	0.7779	0.8392	0.046
Mof_H 	H 	0.1114	0.8107	0.7951	0.139
Mof_H 	H 	0.2808	0.8447	0.7661	-0.027
Mof_H 	H 	0.3374	0.9383	0.7883	0.144
Mof_H 	H 	0.0814	0.0331	0.8723	0.02
Mof_H 	H 	0.3903	0.0269	0.8181	0.033
Mof_H 	H 	0.3623	0.1205	0.8511	0.065
Mof_H 	H 	0.197	0.1743	0.8992	0.084
Mof_H 	H 	0.0751	0.1437	0.8997	0.077
Mof_H 	H 	0.3387	0.0941	0.9389	0.07
Mof_H 	H 	0.632	0.9156	0.9941	0.062
Mof_H 	H 	0.0323	0.1624	0.9677	0.068
Mof_H 	H 	0.9381	0.845	0.9619	0.068
Mof_H 	H 	0.3262	0.128	0.0804	0.093
Mof_H 	H 	0.2604	0.0699	0.0751	0.077
Mof_H 	H 	0.0845	0.0643	0.1205	0.023
Mof_H 	H 	0.1866	0.2158	0.1113	0.05
Mof_H 	H 	0.0264	0.2221	0.1608	0.046
Mof_H 	H 	0.8886	0.1893	0.2049	0.139
Mof_H 	H 	0.7192	0.1553	0.2339	-0.027
Mof_H 	H 	0.6626	0.0617	0.2117	0.144
Mof_H 	H 	0.9186	0.9669	0.1277	0.02
Mof_H 	H 	0.6097	0.9731	0.1819	0.033
Mof_H 	H 	0.6377	0.8795	0.1489	0.065
Mof_H 	H 	0.803	0.8257	0.1008	0.084
Mof_H 	H 	0.9249	0.8563	0.1003	0.077
Mof_H 	H 	0.6613	0.9059	0.0611	0.07
Mof_H 	H 	0.368	0.0844	0.0059	0.062
Mof_H 	H 	0.9677	0.8376	0.0323	0.068
Mof_H 	H 	0.0619	0.155	0.0381	0.068
Mof_C 	C 	0.781	0.8824	0.971	0.065
Mof_C 	C 	0.749	0.8901	0.9265	-0.121
Mof_C 	C 	0.9126	0.8965	0.8767	0.115
Mof_C 	C 	0.8553	0.8149	0.8815	0.016
Mof_C 	C 	0.944	0.8106	0.8543	0.016
Mof_C 	C 	0.0832	0.8823	0.8331	0.235
Mof_C 	C 	0.1389	0.8471	0.8034	-0.276
Mof_C 	C 	0.2376	0.8675	0.7859	0.199
Mof_C 	C 	0.2707	0.9225	0.7987	-0.273
Mof_C 	C 	0.2018	0.9519	0.8269	0.233
Mof_C 	C 	0.1556	0.0433	0.8638	0.12
Mof_C 	C 	0.3255	0.0406	0.8337	0.043
Mof_C 	C 	0.3104	0.0905	0.8517	-0.023
Mof_C 	C 	0.1591	0.1393	0.9037	-0.137
Mof_C 	C 	0.1806	0.1292	0.9469	0.083
Mof_C 	C 	0.2812	0.1062	0.9583	-0.076
Mof_C 	C 	0.7019	0.8993	0.0014	-0.065
Mof_C 	C 	0.1019	0.1464	0.9757	-0.085
Mof_C 	C 	0.8818	0.8581	0.9815	-0.063
Mof_C 	C 	0.219	0.1176	0.029	0.065
Mof_C 	C 	0.251	0.1099	0.0735	-0.121
Mof_C 	C 	0.0874	0.1035	0.1233	0.115
Mof_C 	C 	0.1447	0.1851	0.1185	0.016
Mof_C 	C 	0.056	0.1894	0.1457	0.016
Mof_C 	C 	0.9168	0.1177	0.1669	0.235
Mof_C 	C 	0.8611	0.1529	0.1966	-0.276
Mof_C 	C 	0.7624	0.1325	0.2141	0.199
Mof_C 	C 	0.7293	0.0775	0.2013	-0.273
Mof_C 	C 	0.7982	0.0481	0.1731	0.233
Mof_C 	C 	0.8444	0.9567	0.1362	0.12
Mof_C 	C 	0.6745	0.9594	0.1663	0.043
Mof_C 	C 	0.6896	0.9095	0.1483	-0.023
Mof_C 	C 	0.8409	0.8607	0.0963	-0.137
Mof_C 	C 	0.8194	0.8708	0.0531	0.083
Mof_C 	C 	0.7188	0.8938	0.0417	-0.076
Mof_C 	C 	0.2981	0.1007	0.9986	-0.065
Mof_C 	C 	0.8981	0.8536	0.0243	-0.085
Mof_C 	C 	0.1182	0.1419	0.0185	-0.063
Mof_N 	N 	0.8346	0.8675	0.8968	-0.109
Mof_N 	N 	0.9811	0.865	0.8537	-0.16
Mof_N 	N 	0.1108	0.9331	0.8443	-0.191
Mof_N 	N 	0.227	0.011	0.8418	-0.159
Mof_N 	N 	0.2037	0.0928	0.8723	-0.106
Mof_N 	N 	0.1654	0.1325	0.1032	-0.109
Mof_N 	N 	0.0189	0.135	0.1463	-0.16
Mof_N 	N 	0.8892	0.0669	0.1557	-0.191
Mof_N 	N 	0.773	0.989	0.1582	-0.159
Mof_N 	N 	0.7963	0.9072	0.1277	-0.106
Mof_H 	H 	0.6874	0.3047	0.0792	0.089
Mof_H 	H 	0.5641	0.3341	0.079	0.074
Mof_H 	H 	0.5623	0.4419	0.1187	0.026
Mof_H 	H 	0.8449	0.3519	0.1363	0.075
Mof_H 	H 	0.8636	0.4362	0.1776	0.028
Mof_H 	H 	0.8128	0.5203	0.2148	0.127
Mof_H 	H 	0.7554	0.6151	0.2437	-0
Mof_H 	H 	0.5918	0.6553	0.2174	0.125
Mof_H 	H 	0.4015	0.5419	0.1178	0.028
Mof_H 	H 	0.4651	0.6938	0.1779	0.032
Mof_H 	H 	0.295	0.7019	0.134	0.064
Mof_H 	H 	0.1586	0.6193	0.0879	0.095
Mof_H 	H 	0.2203	0.5606	0.0773	0.088
Mof_H 	H 	0.1262	0.5907	0.0168	0.075
Mof_H 	H 	0.1712	0.6048	0.9457	0.068
Mof_H 	H 	0.5323	0.3257	0.0105	0.059
Mof_H 	H 	0.4297	0.6476	0.0511	0.077
Mof_H 	H 	0.3126	0.6953	0.9208	0.089
Mof_H 	H 	0.4359	0.6659	0.921	0.074
Mof_H 	H 	0.4377	0.5581	0.8813	0.026
Mof_H 	H 	0.1551	0.6481	0.8637	0.075
Mof_H 	H 	0.1364	0.5638	0.8224	0.028
Mof_H 	H 	0.1872	0.4797	0.7852	0.127
Mof_H 	H 	0.2446	0.3849	0.7563	-0
Mof_H 	H 	0.4082	0.3447	0.7826	0.125
Mof_H 	H 	0.5985	0.4581	0.8822	0.028
Mof_H 	H 	0.5349	0.3062	0.8221	0.032
Mof_H 	H 	0.705	0.2981	0.866	0.064
Mof_H 	H 	0.8414	0.3807	0.9121	0.095
Mof_H 	H 	0.7797	0.4394	0.9227	0.088
Mof_H 	H 	0.8738	0.4093	0.9832	0.075
Mof_H 	H 	0.8288	0.3952	0.0543	0.068
Mof_H 	H 	0.4677	0.6743	0.9895	0.059
Mof_H 	H 	0.5703	0.3524	0.9489	0.077
Mof_C 	C 	0.6483	0.3405	0.0775	-0.14
Mof_C 	C 	0.6351	0.4304	0.1276	0.11
Mof_C 	C 	0.7918	0.3818	0.1381	-0.039
Mof_C 	C 	0.8008	0.4261	0.16	0.053
Mof_C 	C 	0.6777	0.5149	0.1741	0.205
Mof_C 	C 	0.7482	0.5387	0.2053	-0.218
Mof_C 	C 	0.7129	0.5954	0.2222	0.141
Mof_C 	C 	0.618	0.6195	0.2068	-0.224
Mof_C 	C 	0.5626	0.5866	0.1732	0.194
Mof_C 	C 	0.3954	0.5804	0.1269	0.092
Mof_C 	C 	0.43	0.6647	0.1605	0.043
Mof_C 	C 	0.338	0.6693	0.1361	-0.017
Mof_C 	C 	0.2333	0.601	0.0804	-0.159
Mof_C 	C 	0.2719	0.617	0.04	0.108
Mof_C 	C 	0.1988	0.6059	0.0109	-0.106
Mof_C 	C 	0.2234	0.616	0.9671	-0.062
Mof_C 	C 	0.6746	0.3578	0.0388	0.078
Mof_C 	C 	0.6018	0.345	0.0068	-0.063
Mof_C 	C 	0.373	0.6406	0.0306	-0.091
Mof_C 	C 	0.3517	0.6595	0.9225	-0.14
Mof_C 	C 	0.3649	0.5696	0.8724	0.11
Mof_C 	C 	0.2082	0.6182	0.8619	-0.039
Mof_C 	C 	0.1992	0.5739	0.84	0.053
Mof_C 	C 	0.3223	0.4851	0.8259	0.205
Mof_C 	C 	0.2518	0.4613	0.7947	-0.218
Mof_C 	C 	0.2871	0.4046	0.7778	0.141
Mof_C 	C 	0.382	0.3805	0.7932	-0.224
Mof_C 	C 	0.4374	0.4134	0.8268	0.194
Mof_C 	C 	0.6046	0.4196	0.8731	0.092
Mof_C 	C 	0.57	0.3353	0.8395	0.043
Mof_C 	C 	0.662	0.3307	0.8639	-0.017
Mof_C 	C 	0.7667	0.399	0.9196	-0.159
Mof_C 	C 	0.7281	0.383	0.96	0.108
Mof_C 	C 	0.8012	0.3941	0.9891	-0.106
Mof_C 	C 	0.7766	0.384	0.0329	-0.062
Mof_C 	C 	0.3254	0.6422	0.9612	0.078
Mof_C 	C 	0.3982	0.655	0.9932	-0.063
Mof_C 	C 	0.627	0.3594	0.9694	-0.091
Mof_N 	N 	0.6855	0.383	0.1153	-0.101
Mof_N 	N 	0.704	0.4601	0.1551	-0.154
Mof_N 	N 	0.5865	0.5364	0.1572	-0.175
Mof_N 	N 	0.4622	0.6113	0.1555	-0.149
Mof_N 	N 	0.319	0.6166	0.1145	-0.095
Mof_N 	N 	0.3145	0.617	0.8847	-0.101
Mof_N 	N 	0.296	0.5399	0.8449	-0.154
Mof_N 	N 	0.4135	0.4636	0.8428	-0.175
Mof_N 	N 	0.5378	0.3887	0.8445	-0.149
Mof_N 	N 	0.681	0.3834	0.8855	-0.095
_end
