data_functionalizedCrystal
_audit_creation_method	'EQeq! by Chris Wilmer'
_symmetry_space_group_name_H-M	'P1'
_symmetry_Int_Tables_number	1
_symmetry_cell_setting	triclinic
loop_
_symmetry_equiv_pos_as_xyz
  x,y,z
_cell_length_a	10.2
_cell_length_b	9.998
_cell_length_c	10.4471
_cell_angle_alpha	90
_cell_angle_beta	92.242
_cell_angle_gamma	90
loop_
_atom_site_label
_atom_site_type_symbol
_atom_site_fract_x
_atom_site_fract_y
_atom_site_fract_z
_atom_site_charge
Mof_Zn	Zn	0.1372	0.4235	0.8927	1.237
Mof_Zn	Zn	0.3724	0.0989	0.1211	1.234
Mof_Zn	Zn	0.083	0.1501	0.3988	1.234
Mof_Zn	Zn	0.5792	0.8143	0.375	1.233
Mof_P 	P 	0.9282	0.6713	0.9058	0.549
Mof_P 	P 	0.3841	0.0637	0.4313	0.562
Mof_P 	P 	0.1144	0.3968	0.5878	0.56
Mof_P 	P 	0.4327	0.3546	0.9293	0.551
Mof_O 	O 	0.3194	0.4568	0.9309	-0.47
Mof_O 	O 	0.0591	0.5973	0.917	-0.435
Mof_O 	O 	0.1009	0.3448	0.7242	-0.471
Mof_O 	O 	0.0618	0.2867	0.9989	-0.424
Mof_O 	O 	0.4297	0.262	0.0459	-0.437
Mof_O 	O 	0.4084	0.1302	0.3022	-0.478
Mof_O 	O 	0.5631	0.4294	0.9384	-0.437
Mof_O 	O 	0.8155	0.5742	0.9376	-0.442
Mof_O 	O 	0.2367	0.0553	0.4566	-0.464
Mof_O 	O 	0.0706	0.5397	0.5766	-0.444
Mof_O 	O 	0.0327	0.3089	0.4967	-0.423
Mof_O 	O 	0.904	0.7297	0.7719	-0.462
Mof_O 	O 	0.4345	0.92	0.4345	-0.431
Mof_O 	O 	0.4236	0.2694	0.8057	-0.469
Mof_O 	O 	0.261	0.3953	0.5527	-0.456
Mof_O 	O 	0.4548	0.1437	0.5372	-0.419
Mof_Zn	Zn	0.8628	0.9235	0.1073	1.236
Mof_Zn	Zn	0.6276	0.5989	0.8789	1.235
Mof_Zn	Zn	0.917	0.6501	0.6012	1.234
Mof_Zn	Zn	0.4208	0.3143	0.625	1.233
Mof_P 	P 	0.0718	0.1713	0.0942	0.548
Mof_P 	P 	0.6159	0.5637	0.5687	0.564
Mof_P 	P 	0.8856	0.8968	0.4122	0.557
Mof_P 	P 	0.5673	0.8546	0.0707	0.552
Mof_O 	O 	0.6806	0.9568	0.0691	-0.47
Mof_O 	O 	0.9409	0.0973	0.083	-0.433
Mof_O 	O 	0.8991	0.8448	0.2758	-0.471
Mof_O 	O 	0.9382	0.7867	0.0011	-0.424
Mof_O 	O 	0.5703	0.762	0.9541	-0.438
Mof_O 	O 	0.5916	0.6302	0.6978	-0.478
Mof_O 	O 	0.4369	0.9294	0.0616	-0.435
Mof_O 	O 	0.1845	0.0742	0.0624	-0.443
Mof_O 	O 	0.7633	0.5553	0.5434	-0.463
Mof_O 	O 	0.9294	0.0397	0.4234	-0.441
Mof_O 	O 	0.9673	0.8089	0.5033	-0.423
Mof_O 	O 	0.096	0.2297	0.2281	-0.461
Mof_O 	O 	0.5655	0.42	0.5655	-0.434
Mof_O 	O 	0.5764	0.7694	0.1943	-0.468
Mof_O 	O 	0.739	0.8953	0.4473	-0.456
Mof_O 	O 	0.5452	0.6437	0.4628	-0.419
_end
