data_functionalizedCrystal
_audit_creation_method	'EQeq! by Chris Wilmer'
_symmetry_space_group_name_H-M	'P1'
_symmetry_Int_Tables_number	1
_symmetry_cell_setting	triclinic
loop_
_symmetry_equiv_pos_as_xyz
  x,y,z
_cell_length_a	17.8476
_cell_length_b	17.8476
_cell_length_c	13.5159
_cell_angle_alpha	90
_cell_angle_beta	90
_cell_angle_gamma	120
loop_
_atom_site_label
_atom_site_type_symbol
_atom_site_fract_x
_atom_site_fract_y
_atom_site_fract_z
_atom_site_charge
Mof_Ga	Ga	0.87483	0.6412	0.58602	4.113
Mof_F 	F 	0.76349	0.59356	0.65566	-1.28
Mof_F 	F 	0.83856	0.54541	0.5056	-0.896
Mof_O 	O 	0.9088	0.5937	0.6948	-0.889
Mof_O 	O 	0.9683	0.6251	0.8678	-0.867
Mof_O 	O 	0.8391	0.6381	0.833	-0.875
Mof_P 	P 	0.88701	0.59055	0.80421	0.777
Mof_H 	H 	0.831	0.501	0.828	-0.07
Mof_Ga	Ga	0.5415	0.97453	0.91935	4.063
Mof_F 	F 	0.43016	0.92689	0.98899	-1.277
Mof_F 	F 	0.50523	0.87874	0.83893	-0.891
Mof_O 	O 	0.57547	0.92703	0.02813	-0.875
Mof_O 	O 	0.63497	0.95843	0.20113	-0.881
Mof_O 	O 	0.50577	0.97143	0.16633	-0.861
Mof_P 	P 	0.55368	0.92388	0.13754	0.777
Mof_H 	H 	0.49767	0.83433	0.16133	-0.071
Mof_Ga	Ga	0.20816	0.30787	0.25269	4.114
Mof_F 	F 	0.09682	0.26023	0.32233	-1.279
Mof_F 	F 	0.17189	0.21208	0.17227	-0.895
Mof_O 	O 	0.24213	0.26037	0.36147	-0.89
Mof_O 	O 	0.30163	0.29177	0.53447	-0.882
Mof_O 	O 	0.17243	0.30477	0.49967	-0.877
Mof_P 	P 	0.22034	0.25722	0.47088	0.779
Mof_H 	H 	0.16433	0.16767	0.49467	-0.073
Mof_Ga	Ga	0.3588	0.23363	0.58602	4.114
Mof_F 	F 	0.40644	0.16993	0.65566	-1.279
Mof_F 	F 	0.45459	0.29315	0.5056	-0.894
Mof_O 	O 	0.4063	0.3151	0.6948	-0.89
Mof_O 	O 	0.3749	0.3432	0.8678	-0.883
Mof_O 	O 	0.3619	0.201	0.833	-0.876
Mof_P 	P 	0.40945	0.29646	0.80421	0.779
Mof_H 	H 	0.499	0.33	0.828	-0.072
Mof_Ga	Ga	0.02547	0.56696	0.91935	4.05
Mof_F 	F 	0.07311	0.50326	0.98899	-1.273
Mof_F 	F 	0.12126	0.62648	0.83893	-0.891
Mof_O 	O 	0.07297	0.64843	0.02813	-0.869
Mof_O 	O 	0.04157	0.67653	0.20113	-0.879
Mof_O 	O 	0.02857	0.53433	0.16633	-0.859
Mof_P 	P 	0.07612	0.62979	0.13754	0.776
Mof_H 	H 	0.16567	0.66333	0.16133	-0.071
Mof_Ga	Ga	0.69213	0.9003	0.25269	4.114
Mof_F 	F 	0.73977	0.8366	0.32233	-1.28
Mof_F 	F 	0.78792	0.95982	0.17227	-0.894
Mof_O 	O 	0.73963	0.98177	0.36147	-0.889
Mof_O 	O 	0.70823	0.00987	0.53447	-0.882
Mof_O 	O 	0.69523	0.86767	0.49967	-0.877
Mof_P 	P 	0.74278	0.96313	0.47088	0.779
Mof_H 	H 	0.83233	0.99667	0.49467	-0.073
Mof_Ga	Ga	0.76637	0.12517	0.58602	4.114
Mof_F 	F 	0.83007	0.23651	0.65566	-1.279
Mof_F 	F 	0.70685	0.16144	0.5056	-0.895
Mof_O 	O 	0.6849	0.0912	0.6948	-0.888
Mof_O 	O 	0.6568	0.0317	0.8678	-0.866
Mof_O 	O 	0.799	0.1609	0.833	-0.873
Mof_P 	P 	0.70354	0.11299	0.80421	0.778
Mof_H 	H 	0.67	0.169	0.828	-0.07
Mof_Ga	Ga	0.43304	0.4585	0.91935	4.114
Mof_F 	F 	0.49674	0.56984	0.98899	-1.281
Mof_F 	F 	0.37352	0.49477	0.83893	-0.895
Mof_O 	O 	0.35157	0.42453	0.02813	-0.889
Mof_O 	O 	0.32347	0.36503	0.20113	-0.883
Mof_O 	O 	0.46567	0.49423	0.16633	-0.876
Mof_P 	P 	0.37021	0.44632	0.13754	0.779
Mof_H 	H 	0.33667	0.50233	0.16133	-0.072
Mof_Ga	Ga	0.0997	0.79184	0.25269	4.115
Mof_F 	F 	0.1634	0.90318	0.32233	-1.278
Mof_F 	F 	0.04018	0.82811	0.17227	-0.889
Mof_O 	O 	0.01823	0.75787	0.36147	-0.888
Mof_O 	O 	0.99013	0.69837	0.53447	-0.883
Mof_O 	O 	0.13233	0.82757	0.49967	-0.877
Mof_P 	P 	0.03687	0.77966	0.47088	0.778
Mof_H 	H 	0.00333	0.83567	0.49467	-0.073
Mof_Ga	Ga	0.12517	0.3588	0.41398	4.114
Mof_F 	F 	0.23651	0.40644	0.34434	-1.279
Mof_F 	F 	0.16144	0.45459	0.4944	-0.895
Mof_O 	O 	0.0912	0.4063	0.3052	-0.888
Mof_O 	O 	0.0317	0.3749	0.1322	-0.867
Mof_O 	O 	0.1609	0.3619	0.167	-0.875
Mof_P 	P 	0.11299	0.40945	0.19579	0.777
Mof_H 	H 	0.169	0.499	0.172	-0.07
Mof_Ga	Ga	0.79184	0.69213	0.74731	4.114
Mof_F 	F 	0.90318	0.73977	0.67767	-1.279
Mof_F 	F 	0.82811	0.78792	0.82773	-0.895
Mof_O 	O 	0.75787	0.73963	0.63853	-0.89
Mof_O 	O 	0.69837	0.70823	0.46553	-0.882
Mof_O 	O 	0.82757	0.69523	0.50033	-0.877
Mof_P 	P 	0.77966	0.74278	0.52912	0.779
Mof_H 	H 	0.83567	0.83233	0.50533	-0.073
Mof_Ga	Ga	0.4585	0.02547	0.08065	4.063
Mof_F 	F 	0.56984	0.07311	0.01101	-1.277
Mof_F 	F 	0.49477	0.12126	0.16107	-0.891
Mof_O 	O 	0.42453	0.07297	0.97187	-0.875
Mof_O 	O 	0.36503	0.04157	0.79887	-0.881
Mof_O 	O 	0.49423	0.02857	0.83367	-0.861
Mof_P 	P 	0.44632	0.07612	0.86246	0.777
Mof_H 	H 	0.50233	0.16567	0.83867	-0.071
Mof_Ga	Ga	0.6412	0.76637	0.41398	4.114
Mof_F 	F 	0.59356	0.83007	0.34434	-1.279
Mof_F 	F 	0.54541	0.70685	0.4944	-0.894
Mof_O 	O 	0.5937	0.6849	0.3052	-0.89
Mof_O 	O 	0.6251	0.6568	0.1322	-0.883
Mof_O 	O 	0.6381	0.799	0.167	-0.876
Mof_P 	P 	0.59055	0.70354	0.19579	0.779
Mof_H 	H 	0.501	0.67	0.172	-0.072
Mof_Ga	Ga	0.30787	0.0997	0.74731	4.114
Mof_F 	F 	0.26023	0.1634	0.67767	-1.28
Mof_F 	F 	0.21208	0.04018	0.82773	-0.894
Mof_O 	O 	0.26037	0.01823	0.63853	-0.889
Mof_O 	O 	0.29177	0.99013	0.46553	-0.882
Mof_O 	O 	0.30477	0.13233	0.50033	-0.877
Mof_P 	P 	0.25722	0.03687	0.52912	0.779
Mof_H 	H 	0.16767	0.00333	0.50533	-0.073
Mof_Ga	Ga	0.97453	0.43304	0.08065	4.05
Mof_F 	F 	0.92689	0.49674	0.01101	-1.273
Mof_F 	F 	0.87874	0.37352	0.16107	-0.891
Mof_O 	O 	0.92703	0.35157	0.97187	-0.869
Mof_O 	O 	0.95843	0.32347	0.79887	-0.879
Mof_O 	O 	0.97143	0.46567	0.83367	-0.859
Mof_P 	P 	0.92388	0.37021	0.86246	0.776
Mof_H 	H 	0.83433	0.33667	0.83867	-0.071
Mof_Ga	Ga	0.23363	0.87483	0.41398	4.114
Mof_F 	F 	0.16993	0.76349	0.34434	-1.279
Mof_F 	F 	0.29315	0.83856	0.4944	-0.895
Mof_O 	O 	0.3151	0.9088	0.3052	-0.888
Mof_O 	O 	0.3432	0.9683	0.1322	-0.866
Mof_O 	O 	0.201	0.8391	0.167	-0.873
Mof_P 	P 	0.29646	0.88701	0.19579	0.778
Mof_H 	H 	0.33	0.831	0.172	-0.07
Mof_Ga	Ga	0.9003	0.20816	0.74731	4.115
Mof_F 	F 	0.8366	0.09682	0.67767	-1.278
Mof_F 	F 	0.95982	0.17189	0.82773	-0.889
Mof_O 	O 	0.98177	0.24213	0.63853	-0.888
Mof_O 	O 	0.00987	0.30163	0.46553	-0.883
Mof_O 	O 	0.86767	0.17243	0.50033	-0.877
Mof_P 	P 	0.96313	0.22034	0.52912	0.778
Mof_H 	H 	0.99667	0.16433	0.50533	-0.073
Mof_Ga	Ga	0.56696	0.5415	0.08065	4.114
Mof_F 	F 	0.50326	0.43016	0.01101	-1.281
Mof_F 	F 	0.62648	0.50523	0.16107	-0.895
Mof_O 	O 	0.64843	0.57547	0.97187	-0.889
Mof_O 	O 	0.67653	0.63497	0.79887	-0.883
Mof_O 	O 	0.53433	0.50577	0.83367	-0.876
Mof_P 	P 	0.62979	0.55368	0.86246	0.779
Mof_H 	H 	0.66333	0.49767	0.83867	-0.072
_end
