data_functionalizedCrystal
_audit_creation_method	'EQeq! by Chris Wilmer'
_symmetry_space_group_name_H-M	'P1'
_symmetry_Int_Tables_number	1
_symmetry_cell_setting	triclinic
loop_
_symmetry_equiv_pos_as_xyz
  x,y,z
_cell_length_a	15.734
_cell_length_b	10.6914
_cell_length_c	23.326
_cell_angle_alpha	90
_cell_angle_beta	90
_cell_angle_gamma	90
loop_
_atom_site_label
_atom_site_type_symbol
_atom_site_fract_x
_atom_site_fract_y
_atom_site_fract_z
_atom_site_charge
Mof_Er	Er	0.54764	0.96912	0.91594	1.962
Mof_O 	O 	0.46542	0.9422	0.83083	-0.431
Mof_O 	O 	0.49034	0.7724	0.88062	-0.38
Mof_O 	O 	0.34284	0.8763	0.63298	-0.471
Mof_O 	O 	0.2531	0.7217	0.62069	-0.268
Mof_O 	O 	0.16739	0.4487	0.03481	-0.448
Mof_O 	O 	0.08431	0.4462	0.95825	-0.525
Mof_O 	O 	0.42042	0.1807	0.01734	-0.49
Mof_O 	O 	0.4901	0.1666	0.93376	-0.503
Mof_C 	C 	0.4058	0.7492	0.79719	-0.048
Mof_C 	C 	0.3815	0.6283	0.81268	-0.079
Mof_H 	H 	0.399	0.5955	0.8487	0.082
Mof_C 	C 	0.3324	0.5552	0.77658	0.085
Mof_C 	C 	0.3073	0.6051	0.7241	-0.066
Mof_H 	H 	0.2715	0.5576	0.6996	0.064
Mof_C 	C 	0.334	0.7238	0.70685	-0.086
Mof_C 	C 	0.3835	0.7964	0.74392	0.007
Mof_H 	H 	0.4017	0.8775	0.7327	0.035
Mof_C 	C 	0.3078	0.4219	0.79125	-0.222
Mof_H 	H 	0.2513	0.4046	0.7743	0.097
Mof_H 	H 	0.3491	0.3648	0.7727	0.095
Mof_C 	C 	0.3041	0.3904	0.85427	0.055
Mof_C 	C 	0.2345	0.4268	0.88757	-0.026
Mof_H 	H 	0.1893	0.4723	0.8703	0.047
Mof_C 	C 	0.2303	0.3975	0.94548	-0.118
Mof_C 	C 	0.2964	0.3293	0.97091	0.06
Mof_H 	H 	0.2946	0.3109	0.0107	0.05
Mof_C 	C 	0.3643	0.2887	0.93789	-0.124
Mof_C 	C 	0.3681	0.32	0.88024	-0.026
Mof_H 	H 	0.4152	0.293	0.858	0.045
Mof_C 	C 	0.4568	0.825	0.83885	0.306
Mof_C 	C 	0.3086	0.7768	0.64952	0.393
Mof_C 	C 	0.1554	0.4333	0.98145	0.449
Mof_C 	C 	0.4305	0.2059	0.96519	0.474
Mof_Er	Er	0.95236	0.53088	0.41594	1.967
Mof_O 	O 	0.03458	0.5578	0.33083	-0.43
Mof_O 	O 	0.00966	0.7276	0.38062	-0.38
Mof_O 	O 	0.15716	0.6237	0.13298	-0.47
Mof_O 	O 	0.2469	0.7783	0.12069	-0.267
Mof_O 	O 	0.33261	0.0513	0.53481	-0.446
Mof_O 	O 	0.41569	0.0538	0.45825	-0.525
Mof_O 	O 	0.07958	0.3193	0.51734	-0.488
Mof_O 	O 	0.0099	0.3334	0.43376	-0.504
Mof_C 	C 	0.0942	0.7508	0.29719	-0.047
Mof_C 	C 	0.1185	0.8717	0.31268	-0.081
Mof_H 	H 	0.101	0.9045	0.3487	0.083
Mof_C 	C 	0.1676	0.9448	0.27658	0.088
Mof_C 	C 	0.1927	0.8949	0.2241	-0.068
Mof_H 	H 	0.2285	0.9424	0.1996	0.066
Mof_C 	C 	0.166	0.7762	0.20685	-0.085
Mof_C 	C 	0.1165	0.7036	0.24392	0.006
Mof_H 	H 	0.0983	0.6225	0.2327	0.035
Mof_C 	C 	0.1922	0.0781	0.29125	-0.226
Mof_H 	H 	0.2487	0.0954	0.2743	0.098
Mof_H 	H 	0.1509	0.1352	0.2727	0.095
Mof_C 	C 	0.1959	0.1096	0.35427	0.057
Mof_C 	C 	0.2655	0.0732	0.38757	-0.028
Mof_H 	H 	0.3107	0.0277	0.3703	0.048
Mof_C 	C 	0.2697	0.1025	0.44548	-0.116
Mof_C 	C 	0.2036	0.1707	0.47091	0.055
Mof_H 	H 	0.2054	0.1891	0.5107	0.053
Mof_C 	C 	0.1357	0.2113	0.43789	-0.121
Mof_C 	C 	0.1319	0.18	0.38024	-0.028
Mof_H 	H 	0.0848	0.207	0.358	0.045
Mof_C 	C 	0.0432	0.675	0.33885	0.306
Mof_C 	C 	0.1914	0.7232	0.14952	0.392
Mof_C 	C 	0.3446	0.0667	0.48145	0.447
Mof_C 	C 	0.0695	0.2941	0.46519	0.471
Mof_Er	Er	0.45236	0.96912	0.58406	1.966
Mof_O 	O 	0.53458	0.9422	0.66917	-0.43
Mof_O 	O 	0.50966	0.7724	0.61938	-0.38
Mof_O 	O 	0.65716	0.8763	0.86702	-0.471
Mof_O 	O 	0.7469	0.7217	0.87931	-0.268
Mof_O 	O 	0.83261	0.4487	0.46519	-0.446
Mof_O 	O 	0.91569	0.4462	0.54175	-0.526
Mof_O 	O 	0.57958	0.1807	0.48266	-0.488
Mof_O 	O 	0.5099	0.1666	0.56624	-0.503
Mof_C 	C 	0.5942	0.7492	0.70281	-0.048
Mof_C 	C 	0.6185	0.6283	0.68732	-0.08
Mof_H 	H 	0.601	0.5955	0.6513	0.082
Mof_C 	C 	0.6676	0.5552	0.72342	0.086
Mof_C 	C 	0.6927	0.6051	0.7759	-0.066
Mof_H 	H 	0.7285	0.5576	0.8004	0.064
Mof_C 	C 	0.666	0.7238	0.79315	-0.086
Mof_C 	C 	0.6165	0.7964	0.75608	0.007
Mof_H 	H 	0.5983	0.8775	0.7673	0.035
Mof_C 	C 	0.6922	0.4219	0.70875	-0.223
Mof_H 	H 	0.7487	0.4046	0.7257	0.098
Mof_H 	H 	0.6509	0.3648	0.7273	0.095
Mof_C 	C 	0.6959	0.3904	0.64573	0.056
Mof_C 	C 	0.7655	0.4268	0.61243	-0.027
Mof_H 	H 	0.8107	0.4723	0.6297	0.048
Mof_C 	C 	0.7697	0.3975	0.55452	-0.116
Mof_C 	C 	0.7036	0.3293	0.52909	0.055
Mof_H 	H 	0.7054	0.3109	0.4893	0.053
Mof_C 	C 	0.6357	0.2887	0.56211	-0.121
Mof_C 	C 	0.6319	0.32	0.61976	-0.028
Mof_H 	H 	0.5848	0.293	0.642	0.045
Mof_C 	C 	0.5432	0.825	0.66115	0.306
Mof_C 	C 	0.6914	0.7768	0.85048	0.392
Mof_C 	C 	0.8446	0.4333	0.51855	0.447
Mof_C 	C 	0.5695	0.2059	0.53481	0.471
Mof_Er	Er	0.04764	0.53088	0.08406	1.963
Mof_O 	O 	0.96542	0.5578	0.16917	-0.429
Mof_O 	O 	0.99034	0.7276	0.11938	-0.378
Mof_O 	O 	0.84284	0.6237	0.36702	-0.47
Mof_O 	O 	0.7531	0.7783	0.37931	-0.268
Mof_O 	O 	0.66739	0.0513	0.96519	-0.443
Mof_O 	O 	0.58431	0.0538	0.04175	-0.525
Mof_O 	O 	0.92042	0.3193	0.98266	-0.488
Mof_O 	O 	0.9901	0.3334	0.06624	-0.503
Mof_C 	C 	0.9058	0.7508	0.20281	-0.046
Mof_C 	C 	0.8815	0.8717	0.18732	-0.082
Mof_H 	H 	0.899	0.9045	0.1513	0.083
Mof_C 	C 	0.8324	0.9448	0.22342	0.09
Mof_C 	C 	0.8073	0.8949	0.2759	-0.068
Mof_H 	H 	0.7715	0.9424	0.3004	0.066
Mof_C 	C 	0.834	0.7762	0.29315	-0.084
Mof_C 	C 	0.8835	0.7036	0.25608	0.006
Mof_H 	H 	0.9017	0.6225	0.2673	0.035
Mof_C 	C 	0.8078	0.0781	0.20875	-0.227
Mof_H 	H 	0.7513	0.0954	0.2257	0.098
Mof_H 	H 	0.8491	0.1352	0.2273	0.095
Mof_C 	C 	0.8041	0.1096	0.14573	0.058
Mof_C 	C 	0.7345	0.0732	0.11243	-0.029
Mof_H 	H 	0.6893	0.0277	0.1297	0.048
Mof_C 	C 	0.7303	0.1025	0.05452	-0.114
Mof_C 	C 	0.7964	0.1707	0.02909	0.052
Mof_H 	H 	0.7946	0.1891	0.9893	0.055
Mof_C 	C 	0.8643	0.2113	0.06211	-0.12
Mof_C 	C 	0.8681	0.18	0.11976	-0.029
Mof_H 	H 	0.9152	0.207	0.142	0.045
Mof_C 	C 	0.9568	0.675	0.16115	0.306
Mof_C 	C 	0.8086	0.7232	0.35048	0.392
Mof_C 	C 	0.6554	0.0667	0.01855	0.444
Mof_C 	C 	0.9305	0.2941	0.03481	0.47
Mof_Er	Er	0.45236	0.03088	0.08406	1.963
Mof_O 	O 	0.53458	0.0578	0.16917	-0.43
Mof_O 	O 	0.50966	0.2276	0.11938	-0.38
Mof_O 	O 	0.65716	0.1237	0.36702	-0.471
Mof_O 	O 	0.7469	0.2783	0.37931	-0.268
Mof_O 	O 	0.83261	0.5513	0.96519	-0.448
Mof_O 	O 	0.91569	0.5538	0.04175	-0.525
Mof_O 	O 	0.57958	0.8193	0.98266	-0.49
Mof_O 	O 	0.5099	0.8334	0.06624	-0.503
Mof_C 	C 	0.5942	0.2508	0.20281	-0.048
Mof_C 	C 	0.6185	0.3717	0.18732	-0.079
Mof_H 	H 	0.601	0.4045	0.1513	0.082
Mof_C 	C 	0.6676	0.4448	0.22342	0.085
Mof_C 	C 	0.6927	0.3949	0.2759	-0.066
Mof_H 	H 	0.7285	0.4424	0.3004	0.064
Mof_C 	C 	0.666	0.2762	0.29315	-0.086
Mof_C 	C 	0.6165	0.2036	0.25608	0.007
Mof_H 	H 	0.5983	0.1225	0.2673	0.035
Mof_C 	C 	0.6922	0.5781	0.20875	-0.222
Mof_H 	H 	0.7487	0.5954	0.2257	0.097
Mof_H 	H 	0.6509	0.6352	0.2273	0.095
Mof_C 	C 	0.6959	0.6096	0.14573	0.055
Mof_C 	C 	0.7655	0.5732	0.11243	-0.026
Mof_H 	H 	0.8107	0.5277	0.1297	0.047
Mof_C 	C 	0.7697	0.6025	0.05452	-0.118
Mof_C 	C 	0.7036	0.6707	0.02909	0.06
Mof_H 	H 	0.7054	0.6891	0.9893	0.05
Mof_C 	C 	0.6357	0.7113	0.06211	-0.124
Mof_C 	C 	0.6319	0.68	0.11976	-0.026
Mof_H 	H 	0.5848	0.707	0.142	0.045
Mof_C 	C 	0.5432	0.175	0.16115	0.306
Mof_C 	C 	0.6914	0.2232	0.35048	0.393
Mof_C 	C 	0.8446	0.5667	0.01855	0.449
Mof_C 	C 	0.5695	0.7941	0.03481	0.474
Mof_Er	Er	0.04764	0.46912	0.58406	1.967
Mof_O 	O 	0.96542	0.4422	0.66917	-0.43
Mof_O 	O 	0.99034	0.2724	0.61938	-0.38
Mof_O 	O 	0.84284	0.3763	0.86702	-0.47
Mof_O 	O 	0.7531	0.2217	0.87931	-0.267
Mof_O 	O 	0.66739	0.9487	0.46519	-0.446
Mof_O 	O 	0.58431	0.9462	0.54175	-0.525
Mof_O 	O 	0.92042	0.6807	0.48266	-0.488
Mof_O 	O 	0.9901	0.6666	0.56624	-0.504
Mof_C 	C 	0.9058	0.2492	0.70281	-0.047
Mof_C 	C 	0.8815	0.1283	0.68732	-0.081
Mof_H 	H 	0.899	0.0955	0.6513	0.083
Mof_C 	C 	0.8324	0.0552	0.72342	0.088
Mof_C 	C 	0.8073	0.1051	0.7759	-0.068
Mof_H 	H 	0.7715	0.0576	0.8004	0.066
Mof_C 	C 	0.834	0.2238	0.79315	-0.085
Mof_C 	C 	0.8835	0.2964	0.75608	0.006
Mof_H 	H 	0.9017	0.3775	0.7673	0.035
Mof_C 	C 	0.8078	0.9219	0.70875	-0.226
Mof_H 	H 	0.7513	0.9046	0.7257	0.098
Mof_H 	H 	0.8491	0.8648	0.7273	0.095
Mof_C 	C 	0.8041	0.8904	0.64573	0.057
Mof_C 	C 	0.7345	0.9268	0.61243	-0.028
Mof_H 	H 	0.6893	0.9723	0.6297	0.048
Mof_C 	C 	0.7303	0.8975	0.55452	-0.116
Mof_C 	C 	0.7964	0.8293	0.52909	0.055
Mof_H 	H 	0.7946	0.8109	0.4893	0.053
Mof_C 	C 	0.8643	0.7887	0.56211	-0.121
Mof_C 	C 	0.8681	0.82	0.61976	-0.028
Mof_H 	H 	0.9152	0.793	0.642	0.045
Mof_C 	C 	0.9568	0.325	0.66115	0.306
Mof_C 	C 	0.8086	0.2768	0.85048	0.392
Mof_C 	C 	0.6554	0.9333	0.51855	0.447
Mof_C 	C 	0.9305	0.7059	0.53481	0.471
Mof_Er	Er	0.54764	0.03088	0.41594	1.966
Mof_O 	O 	0.46542	0.0578	0.33083	-0.43
Mof_O 	O 	0.49034	0.2276	0.38062	-0.38
Mof_O 	O 	0.34284	0.1237	0.13298	-0.471
Mof_O 	O 	0.2531	0.2783	0.12069	-0.268
Mof_O 	O 	0.16739	0.5513	0.53481	-0.446
Mof_O 	O 	0.08431	0.5538	0.45825	-0.526
Mof_O 	O 	0.42042	0.8193	0.51734	-0.488
Mof_O 	O 	0.4901	0.8334	0.43376	-0.503
Mof_C 	C 	0.4058	0.2508	0.29719	-0.048
Mof_C 	C 	0.3815	0.3717	0.31268	-0.08
Mof_H 	H 	0.399	0.4045	0.3487	0.082
Mof_C 	C 	0.3324	0.4448	0.27658	0.086
Mof_C 	C 	0.3073	0.3949	0.2241	-0.066
Mof_H 	H 	0.2715	0.4424	0.1996	0.064
Mof_C 	C 	0.334	0.2762	0.20685	-0.086
Mof_C 	C 	0.3835	0.2036	0.24392	0.007
Mof_H 	H 	0.4017	0.1225	0.2327	0.035
Mof_C 	C 	0.3078	0.5781	0.29125	-0.223
Mof_H 	H 	0.2513	0.5954	0.2743	0.098
Mof_H 	H 	0.3491	0.6352	0.2727	0.095
Mof_C 	C 	0.3041	0.6096	0.35427	0.056
Mof_C 	C 	0.2345	0.5732	0.38757	-0.027
Mof_H 	H 	0.1893	0.5277	0.3703	0.048
Mof_C 	C 	0.2303	0.6025	0.44548	-0.116
Mof_C 	C 	0.2964	0.6707	0.47091	0.055
Mof_H 	H 	0.2946	0.6891	0.5107	0.053
Mof_C 	C 	0.3643	0.7113	0.43789	-0.121
Mof_C 	C 	0.3681	0.68	0.38024	-0.028
Mof_H 	H 	0.4152	0.707	0.358	0.045
Mof_C 	C 	0.4568	0.175	0.33885	0.306
Mof_C 	C 	0.3086	0.2232	0.14952	0.392
Mof_C 	C 	0.1554	0.5667	0.48145	0.447
Mof_C 	C 	0.4305	0.7941	0.46519	0.471
Mof_Er	Er	0.95236	0.46912	0.91594	1.963
Mof_O 	O 	0.03458	0.4422	0.83083	-0.429
Mof_O 	O 	0.00966	0.2724	0.88062	-0.378
Mof_O 	O 	0.15716	0.3763	0.63298	-0.47
Mof_O 	O 	0.2469	0.2217	0.62069	-0.268
Mof_O 	O 	0.33261	0.9487	0.03481	-0.443
Mof_O 	O 	0.41569	0.9462	0.95825	-0.525
Mof_O 	O 	0.07958	0.6807	0.01734	-0.488
Mof_O 	O 	0.0099	0.6666	0.93376	-0.503
Mof_C 	C 	0.0942	0.2492	0.79719	-0.046
Mof_C 	C 	0.1185	0.1283	0.81268	-0.082
Mof_H 	H 	0.101	0.0955	0.8487	0.083
Mof_C 	C 	0.1676	0.0552	0.77658	0.09
Mof_C 	C 	0.1927	0.1051	0.7241	-0.068
Mof_H 	H 	0.2285	0.0576	0.6996	0.066
Mof_C 	C 	0.166	0.2238	0.70685	-0.084
Mof_C 	C 	0.1165	0.2964	0.74392	0.006
Mof_H 	H 	0.0983	0.3775	0.7327	0.035
Mof_C 	C 	0.1922	0.9219	0.79125	-0.227
Mof_H 	H 	0.2487	0.9046	0.7743	0.098
Mof_H 	H 	0.1509	0.8648	0.7727	0.095
Mof_C 	C 	0.1959	0.8904	0.85427	0.058
Mof_C 	C 	0.2655	0.9268	0.88757	-0.029
Mof_H 	H 	0.3107	0.9723	0.8703	0.048
Mof_C 	C 	0.2697	0.8975	0.94548	-0.114
Mof_C 	C 	0.2036	0.8293	0.97091	0.052
Mof_H 	H 	0.2054	0.8109	0.0107	0.055
Mof_C 	C 	0.1357	0.7887	0.93789	-0.12
Mof_C 	C 	0.1319	0.82	0.88024	-0.029
Mof_H 	H 	0.0848	0.793	0.858	0.045
Mof_C 	C 	0.0432	0.325	0.83885	0.306
Mof_C 	C 	0.1914	0.2768	0.64952	0.392
Mof_C 	C 	0.3446	0.9333	0.98145	0.444
Mof_C 	C 	0.0695	0.7059	0.96519	0.47
_end
