data_functionalizedCrystal
_audit_creation_method	'EQeq! by Chris Wilmer'
_symmetry_space_group_name_H-M	'P1'
_symmetry_Int_Tables_number	1
_symmetry_cell_setting	triclinic
loop_
_symmetry_equiv_pos_as_xyz
  x,y,z
_cell_length_a	6.7668
_cell_length_b	18.7189
_cell_length_c	8.5717
_cell_angle_alpha	90
_cell_angle_beta	90
_cell_angle_gamma	90
loop_
_atom_site_label
_atom_site_type_symbol
_atom_site_fract_x
_atom_site_fract_y
_atom_site_fract_z
_atom_site_charge
Mof_O 	O 	0.9843	0.54905	0.9327	-0.199
Mof_O 	O 	0.3373	0.59341	0.7704	-0.516
Mof_O 	O 	0.8229	0.68295	0.9844	-0.465
Mof_O 	O 	0.6824	0.75652	0.1528	-0.585
Mof_C 	C 	0.7666	0.74251	0.0277	0.659
Mof_H 	H 	0.7894	0.7805	0.9602	-0.163
Mof_O 	O 	0.4843	0.04905	0.9327	-0.635
Mof_O 	O 	0.8373	0.09341	0.7704	-0.377
Mof_O 	O 	0.3229	0.18295	0.9844	-0.593
Mof_O 	O 	0.1824	0.25652	0.1528	-0.62
Mof_C 	C 	0.2666	0.24251	0.0277	0.656
Mof_H 	H 	0.2894	0.2805	0.9602	-0.22
Mof_O 	O 	0.0157	0.45095	0.4327	-0.906
Mof_O 	O 	0.6627	0.40659	0.2704	-0.463
Mof_O 	O 	0.1771	0.31705	0.4844	-0.582
Mof_O 	O 	0.3176	0.24348	0.6528	-0.645
Mof_C 	C 	0.2334	0.25749	0.5277	0.722
Mof_H 	H 	0.2106	0.2195	0.4602	-0.265
Mof_O 	O 	0.5157	0.95095	0.4327	-0.582
Mof_O 	O 	0.1627	0.90659	0.2704	-0.514
Mof_O 	O 	0.6771	0.81705	0.4844	-0.556
Mof_O 	O 	0.8176	0.74348	0.6528	-0.487
Mof_C 	C 	0.7334	0.75749	0.5277	0.708
Mof_H 	H 	0.7106	0.7195	0.4602	-0.199
Mof_O 	O 	0.0157	0.54905	0.5673	-0.907
Mof_O 	O 	0.6627	0.59341	0.7296	-0.461
Mof_O 	O 	0.1771	0.68295	0.5156	-0.582
Mof_O 	O 	0.3176	0.75652	0.3472	-0.645
Mof_C 	C 	0.2334	0.74251	0.4723	0.719
Mof_H 	H 	0.2106	0.7805	0.5398	-0.257
Mof_O 	O 	0.5157	0.04905	0.5673	-0.644
Mof_O 	O 	0.1627	0.09341	0.7296	-0.54
Mof_O 	O 	0.6771	0.18295	0.5156	-0.566
Mof_O 	O 	0.8176	0.25652	0.3472	-0.493
Mof_C 	C 	0.7334	0.24251	0.4723	0.708
Mof_H 	H 	0.7106	0.2805	0.5398	-0.197
Mof_O 	O 	0.9843	0.45095	0.0673	-0.213
Mof_O 	O 	0.3373	0.40659	0.2296	-0.521
Mof_O 	O 	0.8229	0.31705	0.0156	-0.52
Mof_O 	O 	0.6824	0.24348	0.8472	-0.614
Mof_C 	C 	0.7666	0.25749	0.9723	0.786
Mof_H 	H 	0.7894	0.2195	0.0398	-0.231
Mof_O 	O 	0.4843	0.95095	0.0673	-0.587
Mof_O 	O 	0.8373	0.90659	0.2296	-0.354
Mof_O 	O 	0.3229	0.81705	0.0156	-0.641
Mof_O 	O 	0.1824	0.74348	0.8472	-0.644
Mof_C 	C 	0.2666	0.75749	0.9723	0.781
Mof_H 	H 	0.2894	0.7195	0.0398	-0.283
Mof_Sm	Sm	-1.96877e-32	0.6425	0.75	2.346
Mof_Sm	Sm	0.5	0.1425	0.75	2.894
Mof_Sm	Sm	-7.53132e-33	0.3575	0.25	2.339
Mof_Sm	Sm	0.5	0.8575	0.25	2.905
Mof_C 	C 	0.5	0.62371	0.75	0.628
Mof_H 	H 	0.5	0.6734	0.75	-0.199
Mof_C 	C 	-1.96877e-32	0.12371	0.75	0.381
Mof_H 	H 	-1.96877e-32	0.1734	0.75	-0.197
Mof_C 	C 	0.5	0.37629	0.25	0.628
Mof_H 	H 	0.5	0.3266	0.25	-0.202
Mof_C 	C 	4.0936e-33	0.87629	0.25	0.379
Mof_H 	H 	4.0936e-33	0.8266	0.25	-0.197
Mof_C 	C 	0.0723	0.5	-0	0.003
Mof_H 	H 	0.2098	0.5	-0	0.015
Mof_C 	C 	0.5723	0	-0	0.684
Mof_H 	H 	0.7098	0	-0	-0.197
Mof_C 	C 	0.9277	0.5	0.5	1.462
Mof_H 	H 	0.7902	0.5	0.5	-0.409
Mof_C 	C 	0.4277	0	0.5	0.73
Mof_H 	H 	0.2902	0	0.5	-0.26
_end
