data_functionalizedCrystal
_audit_creation_method	'EQeq! by Chris Wilmer'
_symmetry_space_group_name_H-M	'P1'
_symmetry_Int_Tables_number	1
_symmetry_cell_setting	triclinic
loop_
_symmetry_equiv_pos_as_xyz
  x,y,z
_cell_length_a	5.0156
_cell_length_b	18.675
_cell_length_c	22.796
_cell_angle_alpha	90
_cell_angle_beta	95.41
_cell_angle_gamma	90
loop_
_atom_site_label
_atom_site_type_symbol
_atom_site_fract_x
_atom_site_fract_y
_atom_site_fract_z
_atom_site_charge
Mof_Tm	Tm	0.77715	0.43147	0.34598	1.823
Mof_O 	O 	0.0884	0.3901	0.41654	-0.522
Mof_O 	O 	0.4896	0.4385	0.41175	-0.557
Mof_C 	C 	0.3212	0.4044	0.4383	0.499
Mof_C 	C 	0.4033	0.3776	0.4991	-0.145
Mof_C 	C 	0.6248	0.4064	0.5324	0.061
Mof_H 	H 	0.7292	0.441	0.5162	0.032
Mof_C 	C 	0.69	0.3832	0.5903	-0.088
Mof_C 	C 	0.5406	0.3287	0.6127	-0.046
Mof_H 	H 	0.5847	0.3126	0.651	0.073
Mof_C 	C 	0.3263	0.298	0.5787	0.074
Mof_C 	C 	0.2533	0.3241	0.5219	-0.016
Mof_H 	H 	0.1044	0.3055	0.4996	0.059
Mof_C 	C 	0.9067	0.4191	0.6298	0.364
Mof_O 	O 	0.033	0.4695	0.60875	-0.461
Mof_O 	O 	0.9447	0.3973	0.68237	-0.272
Mof_N 	N 	0.1825	0.2441	0.6063	-0.083
Mof_N 	N 	0.0102	0.2132	0.572	-0.068
Mof_C 	C 	0.7364	0.0912	0.7516	0.539
Mof_O 	O 	0.9488	0.1117	0.7796	-0.546
Mof_O 	O 	0.5442	0.0617	0.77349	-0.556
Mof_C 	C 	0.7078	0.1026	0.6861	-0.25
Mof_C 	C 	0.5105	0.0677	0.6498	0.308
Mof_H 	H 	0.3922	0.0369	0.6662	0.025
Mof_C 	C 	0.4887	0.0784	0.5894	-0.409
Mof_C 	C 	0.6583	0.1266	0.5651	0.16
Mof_H 	H 	0.6403	0.135	0.5247	0
Mof_C 	C 	0.855	0.1624	0.6009	-0.022
Mof_C 	C 	0.8817	0.1494	0.6614	0.125
Mof_H 	H 	0.0164	0.1721	0.6854	0.004
Mof_C 	C 	0.2798	0.0424	0.5496	1.255
Mof_O 	O 	0.1371	0.9952	0.5736	-2.689
Mof_H 	H 	0.059	0.983	0.557	2.004
Mof_O 	O 	0.2478	0.0588	0.49645	-0.665
Mof_Tm	Tm	0.72285	0.93147	0.15402	1.814
Mof_O 	O 	0.4116	0.8901	0.08346	-0.526
Mof_O 	O 	0.0104	0.9385	0.08825	-0.552
Mof_C 	C 	0.1788	0.9044	0.0617	0.5
Mof_C 	C 	0.0967	0.8776	0.0009	-0.149
Mof_C 	C 	0.8752	0.9064	0.9676	0.062
Mof_H 	H 	0.7708	0.941	0.9838	0.03
Mof_C 	C 	0.81	0.8832	0.9097	-0.089
Mof_C 	C 	0.9594	0.8287	0.8873	-0.04
Mof_H 	H 	0.9153	0.8126	0.849	0.073
Mof_C 	C 	0.1737	0.798	0.9213	0.066
Mof_C 	C 	0.2467	0.8241	0.9781	-0.008
Mof_H 	H 	0.3956	0.8055	0.0004	0.054
Mof_C 	C 	0.5933	0.9191	0.8702	0.357
Mof_O 	O 	0.467	0.9695	0.89125	-0.453
Mof_O 	O 	0.5553	0.8973	0.81763	-0.275
Mof_N 	N 	0.3175	0.7441	0.8937	-0.082
Mof_N 	N 	0.4898	0.7132	0.928	-0.066
Mof_C 	C 	0.7636	0.5912	0.7484	0.542
Mof_O 	O 	0.5512	0.6117	0.7204	-0.556
Mof_O 	O 	0.9558	0.5617	0.72651	-0.552
Mof_C 	C 	0.7922	0.6026	0.8139	-0.257
Mof_C 	C 	0.9895	0.5677	0.8502	0.34
Mof_H 	H 	0.1078	0.5369	0.8338	0.011
Mof_C 	C 	0.0113	0.5784	0.9106	-0.435
Mof_C 	C 	0.8417	0.6266	0.9349	0.177
Mof_H 	H 	0.8597	0.635	0.9753	-0.006
Mof_C 	C 	0.645	0.6624	0.8991	-0.028
Mof_C 	C 	0.6183	0.6494	0.8386	0.112
Mof_H 	H 	0.4836	0.6721	0.8146	0.016
Mof_C 	C 	0.2202	0.5424	0.9504	1.269
Mof_O 	O 	0.3629	0.4952	0.9264	-2.703
Mof_H 	H 	0.441	0.483	0.943	2.013
Mof_O 	O 	0.2522	0.5588	0.00355	-0.67
Mof_Tm	Tm	0.22285	0.56853	0.65402	1.824
Mof_O 	O 	0.9116	0.6099	0.58346	-0.521
Mof_O 	O 	0.5104	0.5615	0.58825	-0.557
Mof_C 	C 	0.6788	0.5956	0.5617	0.499
Mof_C 	C 	0.5967	0.6224	0.5009	-0.145
Mof_C 	C 	0.3752	0.5936	0.4676	0.061
Mof_H 	H 	0.2708	0.559	0.4838	0.032
Mof_C 	C 	0.31	0.6168	0.4097	-0.088
Mof_C 	C 	0.4594	0.6713	0.3873	-0.046
Mof_H 	H 	0.4153	0.6874	0.349	0.073
Mof_C 	C 	0.6737	0.702	0.4213	0.074
Mof_C 	C 	0.7467	0.6759	0.4781	-0.016
Mof_H 	H 	0.8956	0.6945	0.5004	0.059
Mof_C 	C 	0.0933	0.5809	0.3702	0.364
Mof_O 	O 	0.967	0.5305	0.39125	-0.461
Mof_O 	O 	0.0553	0.6027	0.31763	-0.272
Mof_N 	N 	0.8175	0.7559	0.3937	-0.083
Mof_N 	N 	0.9898	0.7868	0.428	-0.068
Mof_C 	C 	0.2636	0.9088	0.2484	0.539
Mof_O 	O 	0.0512	0.8883	0.2204	-0.546
Mof_O 	O 	0.4558	0.9383	0.22651	-0.556
Mof_C 	C 	0.2922	0.8974	0.3139	-0.25
Mof_C 	C 	0.4895	0.9323	0.3502	0.308
Mof_H 	H 	0.6078	0.9631	0.3338	0.025
Mof_C 	C 	0.5113	0.9216	0.4106	-0.409
Mof_C 	C 	0.3417	0.8734	0.4349	0.16
Mof_H 	H 	0.3597	0.865	0.4753	0
Mof_C 	C 	0.145	0.8376	0.3991	-0.022
Mof_C 	C 	0.1183	0.8506	0.3386	0.125
Mof_H 	H 	0.9836	0.8279	0.3146	0.004
Mof_C 	C 	0.7202	0.9576	0.4504	1.255
Mof_O 	O 	0.8629	0.0048	0.4264	-2.689
Mof_H 	H 	0.941	0.017	0.443	2.004
Mof_O 	O 	0.7522	0.9412	0.50355	-0.665
Mof_Tm	Tm	0.27715	0.06853	0.84598	1.814
Mof_O 	O 	0.5884	0.1099	0.91654	-0.526
Mof_O 	O 	0.9896	0.0615	0.91175	-0.552
Mof_C 	C 	0.8212	0.0956	0.9383	0.5
Mof_C 	C 	0.9033	0.1224	0.9991	-0.149
Mof_C 	C 	0.1248	0.0936	0.0324	0.062
Mof_H 	H 	0.2292	0.059	0.0162	0.03
Mof_C 	C 	0.19	0.1168	0.0903	-0.089
Mof_C 	C 	0.0406	0.1713	0.1127	-0.04
Mof_H 	H 	0.0847	0.1874	0.151	0.073
Mof_C 	C 	0.8263	0.202	0.0787	0.066
Mof_C 	C 	0.7533	0.1759	0.0219	-0.008
Mof_H 	H 	0.6044	0.1945	0.9996	0.054
Mof_C 	C 	0.4067	0.0809	0.1298	0.357
Mof_O 	O 	0.533	0.0305	0.10875	-0.453
Mof_O 	O 	0.4447	0.1027	0.18237	-0.275
Mof_N 	N 	0.6825	0.2559	0.1063	-0.082
Mof_N 	N 	0.5102	0.2868	0.072	-0.066
Mof_C 	C 	0.2364	0.4088	0.2516	0.542
Mof_O 	O 	0.4488	0.3883	0.2796	-0.556
Mof_O 	O 	0.0442	0.4383	0.27349	-0.552
Mof_C 	C 	0.2078	0.3974	0.1861	-0.257
Mof_C 	C 	0.0105	0.4323	0.1498	0.34
Mof_H 	H 	0.8922	0.4631	0.1662	0.011
Mof_C 	C 	0.9887	0.4216	0.0894	-0.435
Mof_C 	C 	0.1583	0.3734	0.0651	0.177
Mof_H 	H 	0.1403	0.365	0.0247	-0.006
Mof_C 	C 	0.355	0.3376	0.1009	-0.028
Mof_C 	C 	0.3817	0.3506	0.1614	0.112
Mof_H 	H 	0.5164	0.3279	0.1854	0.016
Mof_C 	C 	0.7798	0.4576	0.0496	1.269
Mof_O 	O 	0.6371	0.5048	0.0736	-2.703
Mof_H 	H 	0.559	0.517	0.057	2.013
Mof_O 	O 	0.7478	0.4412	0.99645	-0.67
_end
