data_functionalizedCrystal
_audit_creation_method	'EQeq! by Chris Wilmer'
_symmetry_space_group_name_H-M	'P1'
_symmetry_Int_Tables_number	1
_symmetry_cell_setting	triclinic
loop_
_symmetry_equiv_pos_as_xyz
  x,y,z
_cell_length_a	21.8788
_cell_length_b	21.8788
_cell_length_c	16.1443
_cell_angle_alpha	90
_cell_angle_beta	90
_cell_angle_gamma	90
loop_
_atom_site_label
_atom_site_type_symbol
_atom_site_fract_x
_atom_site_fract_y
_atom_site_fract_z
_atom_site_charge
Mof_Tb	Tb	0.66699	0.13417	0.37323	1.635
Mof_N 	N 	0.6319	0.0824	0.2461	-0.183
Mof_C 	C 	0.573	0.0685	0.2379	-0.096
Mof_C 	C 	0.5519	0.033	0.1714	0.016
Mof_H 	H 	0.5108	0.0226	0.1674	0.002
Mof_C 	C 	0.5921	0.0142	0.1132	-0.098
Mof_H 	H 	0.579	0.991	0.0684	0.043
Mof_C 	C 	0.6537	0.0301	0.121	0.007
Mof_H 	H 	0.6821	0.0177	0.0815	0.014
Mof_C 	C 	0.6713	0.0641	0.1873	-0.079
Mof_C 	C 	0.5329	0.0942	0.3034	0.392
Mof_C 	C 	0.737	0.0833	0.2037	0.397
Mof_O 	O 	0.7768	0.0732	0.1511	-0.494
Mof_O 	O 	0.7451	0.1117	0.272	-0.513
Mof_O 	O 	0.5594	0.1258	0.36	-0.505
Mof_O 	O 	0.476	0.0847	0.3022	-0.532
Mof_Tb	Tb	0.16699	0.63417	0.87323	1.634
Mof_N 	N 	0.1319	0.5824	0.7461	-0.184
Mof_C 	C 	0.073	0.5685	0.7379	-0.097
Mof_C 	C 	0.0519	0.533	0.6714	0.016
Mof_H 	H 	0.0108	0.5226	0.6674	0.001
Mof_C 	C 	0.0921	0.5142	0.6132	-0.1
Mof_H 	H 	0.079	0.491	0.5684	0.043
Mof_C 	C 	0.1537	0.5301	0.621	0.007
Mof_H 	H 	0.1821	0.5177	0.5815	0.014
Mof_C 	C 	0.1713	0.5641	0.6873	-0.079
Mof_C 	C 	0.0329	0.5942	0.8034	0.392
Mof_C 	C 	0.237	0.5833	0.7037	0.397
Mof_O 	O 	0.2768	0.5732	0.6511	-0.494
Mof_O 	O 	0.2451	0.6117	0.772	-0.513
Mof_O 	O 	0.0594	0.6258	0.86	-0.505
Mof_O 	O 	0.976	0.5847	0.8022	-0.532
Mof_Tb	Tb	0.83301	0.86583	0.87323	1.634
Mof_N 	N 	0.8681	0.9176	0.7461	-0.184
Mof_C 	C 	0.927	0.9315	0.7379	-0.097
Mof_C 	C 	0.9481	0.967	0.6714	0.015
Mof_H 	H 	0.9892	0.9774	0.6674	0.001
Mof_C 	C 	0.9079	0.9858	0.6132	-0.099
Mof_H 	H 	0.921	0.009	0.5684	0.042
Mof_C 	C 	0.8463	0.9699	0.621	0.007
Mof_H 	H 	0.8179	0.9823	0.5815	0.014
Mof_C 	C 	0.8287	0.9359	0.6873	-0.079
Mof_C 	C 	0.9671	0.9058	0.8034	0.392
Mof_C 	C 	0.763	0.9167	0.7037	0.397
Mof_O 	O 	0.7232	0.9268	0.6511	-0.494
Mof_O 	O 	0.7549	0.8883	0.772	-0.513
Mof_O 	O 	0.9406	0.8742	0.86	-0.505
Mof_O 	O 	0.024	0.9153	0.8022	-0.532
Mof_Tb	Tb	0.33301	0.36583	0.37323	1.634
Mof_N 	N 	0.3681	0.4176	0.2461	-0.184
Mof_C 	C 	0.427	0.4315	0.2379	-0.097
Mof_C 	C 	0.4481	0.467	0.1714	0.016
Mof_H 	H 	0.4892	0.4774	0.1674	0.001
Mof_C 	C 	0.4079	0.4858	0.1132	-0.1
Mof_H 	H 	0.421	0.509	0.0684	0.043
Mof_C 	C 	0.3463	0.4699	0.121	0.007
Mof_H 	H 	0.3179	0.4823	0.0815	0.014
Mof_C 	C 	0.3287	0.4359	0.1873	-0.079
Mof_C 	C 	0.4671	0.4058	0.3034	0.392
Mof_C 	C 	0.263	0.4167	0.2037	0.397
Mof_O 	O 	0.2232	0.4268	0.1511	-0.494
Mof_O 	O 	0.2549	0.3883	0.272	-0.513
Mof_O 	O 	0.4406	0.3742	0.36	-0.505
Mof_O 	O 	0.524	0.4153	0.3022	-0.532
Mof_Tb	Tb	0.61583	0.91699	0.62323	1.634
Mof_N 	N 	0.6676	0.8819	0.4961	-0.184
Mof_C 	C 	0.6815	0.823	0.4879	-0.097
Mof_C 	C 	0.717	0.8019	0.4214	0.016
Mof_H 	H 	0.7274	0.7608	0.4174	0.001
Mof_C 	C 	0.7358	0.8421	0.3632	-0.1
Mof_H 	H 	0.759	0.829	0.3184	0.043
Mof_C 	C 	0.7199	0.9037	0.371	0.007
Mof_H 	H 	0.7323	0.9321	0.3315	0.014
Mof_C 	C 	0.6859	0.9213	0.4373	-0.079
Mof_C 	C 	0.6558	0.7829	0.5534	0.392
Mof_C 	C 	0.6667	0.987	0.4537	0.397
Mof_O 	O 	0.6768	0.0268	0.4011	-0.494
Mof_O 	O 	0.6383	0.9951	0.522	-0.513
Mof_O 	O 	0.6242	0.8094	0.61	-0.505
Mof_O 	O 	0.6653	0.726	0.5522	-0.532
Mof_Tb	Tb	0.11583	0.41699	0.12323	1.634
Mof_N 	N 	0.1676	0.3819	0.9961	-0.184
Mof_C 	C 	0.1815	0.323	0.9879	-0.097
Mof_C 	C 	0.217	0.3019	0.9214	0.016
Mof_H 	H 	0.2274	0.2608	0.9174	0.001
Mof_C 	C 	0.2358	0.3421	0.8632	-0.1
Mof_H 	H 	0.259	0.329	0.8184	0.043
Mof_C 	C 	0.2199	0.4037	0.871	0.007
Mof_H 	H 	0.2323	0.4321	0.8315	0.014
Mof_C 	C 	0.1859	0.4213	0.9373	-0.079
Mof_C 	C 	0.1558	0.2829	0.0534	0.392
Mof_C 	C 	0.1667	0.487	0.9537	0.397
Mof_O 	O 	0.1768	0.5268	0.9011	-0.494
Mof_O 	O 	0.1383	0.4951	0.022	-0.513
Mof_O 	O 	0.1242	0.3094	0.11	-0.505
Mof_O 	O 	0.1653	0.226	0.0522	-0.532
Mof_Tb	Tb	0.88417	0.08301	0.12323	1.634
Mof_N 	N 	0.8324	0.1181	0.9961	-0.185
Mof_C 	C 	0.8185	0.177	0.9879	-0.097
Mof_C 	C 	0.783	0.1981	0.9214	0.016
Mof_H 	H 	0.7726	0.2392	0.9174	0.001
Mof_C 	C 	0.7642	0.1579	0.8632	-0.1
Mof_H 	H 	0.741	0.171	0.8184	0.043
Mof_C 	C 	0.7801	0.0963	0.871	0.007
Mof_H 	H 	0.7677	0.0679	0.8315	0.014
Mof_C 	C 	0.8141	0.0787	0.9373	-0.079
Mof_C 	C 	0.8442	0.2171	0.0534	0.392
Mof_C 	C 	0.8333	0.013	0.9537	0.396
Mof_O 	O 	0.8232	0.9732	0.9011	-0.493
Mof_O 	O 	0.8617	0.0049	0.022	-0.513
Mof_O 	O 	0.8758	0.1906	0.11	-0.505
Mof_O 	O 	0.8347	0.274	0.0522	-0.532
Mof_Tb	Tb	0.38417	0.58301	0.62323	1.634
Mof_N 	N 	0.3324	0.6181	0.4961	-0.184
Mof_C 	C 	0.3185	0.677	0.4879	-0.097
Mof_C 	C 	0.283	0.6981	0.4214	0.016
Mof_H 	H 	0.2726	0.7392	0.4174	0.001
Mof_C 	C 	0.2642	0.6579	0.3632	-0.1
Mof_H 	H 	0.241	0.671	0.3184	0.043
Mof_C 	C 	0.2801	0.5963	0.371	0.007
Mof_H 	H 	0.2677	0.5679	0.3315	0.014
Mof_C 	C 	0.3141	0.5787	0.4373	-0.079
Mof_C 	C 	0.3442	0.7171	0.5534	0.392
Mof_C 	C 	0.3333	0.513	0.4537	0.397
Mof_O 	O 	0.3232	0.4732	0.4011	-0.494
Mof_O 	O 	0.3617	0.5049	0.522	-0.513
Mof_O 	O 	0.3758	0.6906	0.61	-0.505
Mof_O 	O 	0.3347	0.774	0.5522	-0.532
Mof_Tb	Tb	0.33301	0.86583	0.62677	1.634
Mof_N 	N 	0.3681	0.9176	0.7539	-0.184
Mof_C 	C 	0.427	0.9315	0.7621	-0.097
Mof_C 	C 	0.4481	0.967	0.8286	0.015
Mof_H 	H 	0.4892	0.9774	0.8326	0.001
Mof_C 	C 	0.4079	0.9858	0.8868	-0.099
Mof_H 	H 	0.421	0.009	0.9316	0.042
Mof_C 	C 	0.3463	0.9699	0.879	0.006
Mof_H 	H 	0.3179	0.9823	0.9185	0.014
Mof_C 	C 	0.3287	0.9359	0.8127	-0.079
Mof_C 	C 	0.4671	0.9058	0.6966	0.392
Mof_C 	C 	0.263	0.9167	0.7963	0.397
Mof_O 	O 	0.2232	0.9268	0.8489	-0.494
Mof_O 	O 	0.2549	0.8883	0.728	-0.513
Mof_O 	O 	0.4406	0.8742	0.64	-0.505
Mof_O 	O 	0.524	0.9153	0.6978	-0.532
Mof_Tb	Tb	0.83301	0.36583	0.12677	1.634
Mof_N 	N 	0.8681	0.4176	0.2539	-0.184
Mof_C 	C 	0.927	0.4315	0.2621	-0.097
Mof_C 	C 	0.9481	0.467	0.3286	0.016
Mof_H 	H 	0.9892	0.4774	0.3326	0.001
Mof_C 	C 	0.9079	0.4858	0.3868	-0.1
Mof_H 	H 	0.921	0.509	0.4316	0.043
Mof_C 	C 	0.8463	0.4699	0.379	0.007
Mof_H 	H 	0.8179	0.4823	0.4185	0.014
Mof_C 	C 	0.8287	0.4359	0.3127	-0.079
Mof_C 	C 	0.9671	0.4058	0.1966	0.392
Mof_C 	C 	0.763	0.4167	0.2963	0.397
Mof_O 	O 	0.7232	0.4268	0.3489	-0.494
Mof_O 	O 	0.7549	0.3883	0.228	-0.513
Mof_O 	O 	0.9406	0.3742	0.14	-0.505
Mof_O 	O 	0.024	0.4153	0.1978	-0.532
Mof_Tb	Tb	0.16699	0.13417	0.12677	1.634
Mof_N 	N 	0.1319	0.0824	0.2539	-0.184
Mof_C 	C 	0.073	0.0685	0.2621	-0.097
Mof_C 	C 	0.0519	0.033	0.3286	0.015
Mof_H 	H 	0.0108	0.0226	0.3326	0.001
Mof_C 	C 	0.0921	0.0142	0.3868	-0.099
Mof_H 	H 	0.079	0.991	0.4316	0.042
Mof_C 	C 	0.1537	0.0301	0.379	0.007
Mof_H 	H 	0.1821	0.0177	0.4185	0.014
Mof_C 	C 	0.1713	0.0641	0.3127	-0.079
Mof_C 	C 	0.0329	0.0942	0.1966	0.392
Mof_C 	C 	0.237	0.0833	0.2963	0.397
Mof_O 	O 	0.2768	0.0732	0.3489	-0.494
Mof_O 	O 	0.2451	0.1117	0.228	-0.513
Mof_O 	O 	0.0594	0.1258	0.14	-0.505
Mof_O 	O 	0.976	0.0847	0.1978	-0.532
Mof_Tb	Tb	0.66699	0.63417	0.62677	1.634
Mof_N 	N 	0.6319	0.5824	0.7539	-0.184
Mof_C 	C 	0.573	0.5685	0.7621	-0.097
Mof_C 	C 	0.5519	0.533	0.8286	0.016
Mof_H 	H 	0.5108	0.5226	0.8326	0.001
Mof_C 	C 	0.5921	0.5142	0.8868	-0.1
Mof_H 	H 	0.579	0.491	0.9316	0.043
Mof_C 	C 	0.6537	0.5301	0.879	0.007
Mof_H 	H 	0.6821	0.5177	0.9185	0.014
Mof_C 	C 	0.6713	0.5641	0.8127	-0.079
Mof_C 	C 	0.5329	0.5942	0.6966	0.392
Mof_C 	C 	0.737	0.5833	0.7963	0.397
Mof_O 	O 	0.7768	0.5732	0.8489	-0.494
Mof_O 	O 	0.7451	0.6117	0.728	-0.513
Mof_O 	O 	0.5594	0.6258	0.64	-0.505
Mof_O 	O 	0.476	0.5847	0.6978	-0.532
Mof_Tb	Tb	0.38417	0.08301	0.37677	1.634
Mof_N 	N 	0.3324	0.1181	0.5039	-0.184
Mof_C 	C 	0.3185	0.177	0.5121	-0.097
Mof_C 	C 	0.283	0.1981	0.5786	0.016
Mof_H 	H 	0.2726	0.2392	0.5826	0.001
Mof_C 	C 	0.2642	0.1579	0.6368	-0.1
Mof_H 	H 	0.241	0.171	0.6816	0.043
Mof_C 	C 	0.2801	0.0963	0.629	0.007
Mof_H 	H 	0.2677	0.0679	0.6685	0.014
Mof_C 	C 	0.3141	0.0787	0.5627	-0.079
Mof_C 	C 	0.3442	0.2171	0.4466	0.392
Mof_C 	C 	0.3333	0.013	0.5463	0.397
Mof_O 	O 	0.3232	0.9732	0.5989	-0.494
Mof_O 	O 	0.3617	0.0049	0.478	-0.513
Mof_O 	O 	0.3758	0.1906	0.39	-0.505
Mof_O 	O 	0.3347	0.274	0.4478	-0.532
Mof_Tb	Tb	0.88417	0.58301	0.87677	1.634
Mof_N 	N 	0.8324	0.6181	0.0039	-0.184
Mof_C 	C 	0.8185	0.677	0.0121	-0.097
Mof_C 	C 	0.783	0.6981	0.0786	0.016
Mof_H 	H 	0.7726	0.7392	0.0826	0.001
Mof_C 	C 	0.7642	0.6579	0.1368	-0.1
Mof_H 	H 	0.741	0.671	0.1816	0.043
Mof_C 	C 	0.7801	0.5963	0.129	0.007
Mof_H 	H 	0.7677	0.5679	0.1685	0.014
Mof_C 	C 	0.8141	0.5787	0.0627	-0.079
Mof_C 	C 	0.8442	0.7171	0.9466	0.392
Mof_C 	C 	0.8333	0.513	0.0463	0.397
Mof_O 	O 	0.8232	0.4732	0.0989	-0.494
Mof_O 	O 	0.8617	0.5049	0.978	-0.513
Mof_O 	O 	0.8758	0.6906	0.89	-0.505
Mof_O 	O 	0.8347	0.774	0.9478	-0.532
Mof_Tb	Tb	0.11583	0.91699	0.87677	1.634
Mof_N 	N 	0.1676	0.8819	0.0039	-0.185
Mof_C 	C 	0.1815	0.823	0.0121	-0.097
Mof_C 	C 	0.217	0.8019	0.0786	0.016
Mof_H 	H 	0.2274	0.7608	0.0826	0.001
Mof_C 	C 	0.2358	0.8421	0.1368	-0.1
Mof_H 	H 	0.259	0.829	0.1816	0.043
Mof_C 	C 	0.2199	0.9037	0.129	0.007
Mof_H 	H 	0.2323	0.9321	0.1685	0.014
Mof_C 	C 	0.1859	0.9213	0.0627	-0.079
Mof_C 	C 	0.1558	0.7829	0.9466	0.392
Mof_C 	C 	0.1667	0.987	0.0463	0.396
Mof_O 	O 	0.1768	0.0268	0.0989	-0.493
Mof_O 	O 	0.1383	0.9951	0.978	-0.513
Mof_O 	O 	0.1242	0.8094	0.89	-0.505
Mof_O 	O 	0.1653	0.726	0.9478	-0.532
Mof_Tb	Tb	0.61583	0.41699	0.37677	1.634
Mof_N 	N 	0.6676	0.3819	0.5039	-0.184
Mof_C 	C 	0.6815	0.323	0.5121	-0.097
Mof_C 	C 	0.717	0.3019	0.5786	0.016
Mof_H 	H 	0.7274	0.2608	0.5826	0.001
Mof_C 	C 	0.7358	0.3421	0.6368	-0.1
Mof_H 	H 	0.759	0.329	0.6816	0.043
Mof_C 	C 	0.7199	0.4037	0.629	0.007
Mof_H 	H 	0.7323	0.4321	0.6685	0.014
Mof_C 	C 	0.6859	0.4213	0.5627	-0.079
Mof_C 	C 	0.6558	0.2829	0.4466	0.392
Mof_C 	C 	0.6667	0.487	0.5463	0.397
Mof_O 	O 	0.6768	0.5268	0.5989	-0.494
Mof_O 	O 	0.6383	0.4951	0.478	-0.513
Mof_O 	O 	0.6242	0.3094	0.39	-0.505
Mof_O 	O 	0.6653	0.226	0.4478	-0.532
_end
