data_functionalizedCrystal
_audit_creation_method	'EQeq! by Chris Wilmer'
_symmetry_space_group_name_H-M	'P1'
_symmetry_Int_Tables_number	1
_symmetry_cell_setting	triclinic
loop_
_symmetry_equiv_pos_as_xyz
  x,y,z
_cell_length_a	8.797
_cell_length_b	16.155
_cell_length_c	32.17
_cell_angle_alpha	90
_cell_angle_beta	90
_cell_angle_gamma	90
loop_
_atom_site_label
_atom_site_type_symbol
_atom_site_fract_x
_atom_site_fract_y
_atom_site_fract_z
_atom_site_charge
Mof_Yb	Yb	0.88979	0.2316	0.06407	1.878
Mof_O 	O 	0.0608	0.1669	0.02173	-0.377
Mof_O 	O 	0.2215	0.1833	0.96921	-0.374
Mof_O 	O 	0.2384	0.3438	0.98423	-0.357
Mof_O 	O 	0.0545	0.3298	0.03274	-0.365
Mof_O 	O 	0.8396	0.3527	0.10199	-0.356
Mof_O 	O 	0.9411	0.4477	0.14352	-0.401
Mof_O 	O 	0.0691	0.2502	0.11683	-0.366
Mof_O 	O 	0.1709	0.3463	0.15965	-0.345
Mof_C 	C 	0.1421	0.2103	0.99823	0.271
Mof_C 	C 	0.1457	0.3037	0.00601	0.254
Mof_C 	C 	0.9386	0.3797	0.12594	0.291
Mof_C 	C 	0.0715	0.32	0.13491	0.253
Mof_Yb	Yb	0.88979	0.7316	0.56407	1.877
Mof_O 	O 	0.0608	0.6669	0.52173	-0.378
Mof_O 	O 	0.2215	0.6833	0.46921	-0.375
Mof_O 	O 	0.2384	0.8438	0.48423	-0.357
Mof_O 	O 	0.0545	0.8298	0.53274	-0.366
Mof_O 	O 	0.8396	0.8527	0.60199	-0.357
Mof_O 	O 	0.9411	0.9477	0.64352	-0.402
Mof_O 	O 	0.0691	0.7502	0.61683	-0.367
Mof_O 	O 	0.1709	0.8463	0.65965	-0.346
Mof_C 	C 	0.1421	0.7103	0.49823	0.271
Mof_C 	C 	0.1457	0.8037	0.50601	0.254
Mof_C 	C 	0.9386	0.8797	0.62594	0.291
Mof_C 	C 	0.0715	0.82	0.63491	0.253
Mof_Yb	Yb	0.38979	0.2316	0.56407	1.886
Mof_O 	O 	0.5608	0.1669	0.52173	-0.382
Mof_O 	O 	0.7215	0.1833	0.46921	-0.376
Mof_O 	O 	0.7384	0.3438	0.48423	-0.358
Mof_O 	O 	0.5545	0.3298	0.53274	-0.369
Mof_O 	O 	0.3396	0.3527	0.60199	-0.357
Mof_O 	O 	0.4411	0.4477	0.64352	-0.399
Mof_O 	O 	0.5691	0.2502	0.61683	-0.369
Mof_O 	O 	0.6709	0.3463	0.65965	-0.346
Mof_C 	C 	0.6421	0.2103	0.49823	0.271
Mof_C 	C 	0.6457	0.3037	0.50601	0.254
Mof_C 	C 	0.4386	0.3797	0.62594	0.295
Mof_C 	C 	0.5715	0.32	0.63491	0.249
Mof_Yb	Yb	0.38979	0.7316	0.06407	1.886
Mof_O 	O 	0.5608	0.6669	0.02173	-0.382
Mof_O 	O 	0.7215	0.6833	0.96921	-0.376
Mof_O 	O 	0.7384	0.8438	0.98423	-0.358
Mof_O 	O 	0.5545	0.8298	0.03274	-0.368
Mof_O 	O 	0.3396	0.8527	0.10199	-0.357
Mof_O 	O 	0.4411	0.9477	0.14352	-0.399
Mof_O 	O 	0.5691	0.7502	0.11683	-0.369
Mof_O 	O 	0.6709	0.8463	0.15965	-0.346
Mof_C 	C 	0.6421	0.7103	0.99823	0.271
Mof_C 	C 	0.6457	0.8037	0.00601	0.253
Mof_C 	C 	0.4386	0.8797	0.12594	0.295
Mof_C 	C 	0.5715	0.82	0.13491	0.249
Mof_Yb	Yb	0.88979	0.7684	0.93593	1.877
Mof_O 	O 	0.0608	0.8331	0.97827	-0.378
Mof_O 	O 	0.2215	0.8167	0.03079	-0.375
Mof_O 	O 	0.2384	0.6562	0.01577	-0.358
Mof_O 	O 	0.0545	0.6702	0.96726	-0.366
Mof_O 	O 	0.8396	0.6473	0.89801	-0.357
Mof_O 	O 	0.9411	0.5523	0.85648	-0.402
Mof_O 	O 	0.0691	0.7498	0.88317	-0.367
Mof_O 	O 	0.1709	0.6537	0.84035	-0.346
Mof_C 	C 	0.1421	0.7897	0.00177	0.27
Mof_C 	C 	0.1457	0.6963	0.99399	0.254
Mof_C 	C 	0.9386	0.6203	0.87406	0.291
Mof_C 	C 	0.0715	0.68	0.86509	0.253
Mof_Yb	Yb	0.88979	0.2684	0.43593	1.877
Mof_O 	O 	0.0608	0.3331	0.47827	-0.378
Mof_O 	O 	0.2215	0.3167	0.53079	-0.375
Mof_O 	O 	0.2384	0.1562	0.51577	-0.357
Mof_O 	O 	0.0545	0.1702	0.46726	-0.366
Mof_O 	O 	0.8396	0.1473	0.39801	-0.357
Mof_O 	O 	0.9411	0.0523	0.35648	-0.402
Mof_O 	O 	0.0691	0.2498	0.38317	-0.367
Mof_O 	O 	0.1709	0.1537	0.34035	-0.346
Mof_C 	C 	0.1421	0.2897	0.50177	0.271
Mof_C 	C 	0.1457	0.1963	0.49399	0.254
Mof_C 	C 	0.9386	0.1203	0.37406	0.291
Mof_C 	C 	0.0715	0.18	0.36509	0.253
Mof_Yb	Yb	0.38979	0.7684	0.43593	1.886
Mof_O 	O 	0.5608	0.8331	0.47827	-0.382
Mof_O 	O 	0.7215	0.8167	0.53079	-0.376
Mof_O 	O 	0.7384	0.6562	0.51577	-0.358
Mof_O 	O 	0.5545	0.6702	0.46726	-0.369
Mof_O 	O 	0.3396	0.6473	0.39801	-0.357
Mof_O 	O 	0.4411	0.5523	0.35648	-0.399
Mof_O 	O 	0.5691	0.7498	0.38317	-0.369
Mof_O 	O 	0.6709	0.6537	0.34035	-0.346
Mof_C 	C 	0.6421	0.7897	0.50177	0.271
Mof_C 	C 	0.6457	0.6963	0.49399	0.254
Mof_C 	C 	0.4386	0.6203	0.37406	0.295
Mof_C 	C 	0.5715	0.68	0.36509	0.249
Mof_Yb	Yb	0.38979	0.2684	0.93593	1.886
Mof_O 	O 	0.5608	0.3331	0.97827	-0.382
Mof_O 	O 	0.7215	0.3167	0.03079	-0.376
Mof_O 	O 	0.7384	0.1562	0.01577	-0.358
Mof_O 	O 	0.5545	0.1702	0.96726	-0.368
Mof_O 	O 	0.3396	0.1473	0.89801	-0.357
Mof_O 	O 	0.4411	0.0523	0.85648	-0.399
Mof_O 	O 	0.5691	0.2498	0.88317	-0.369
Mof_O 	O 	0.6709	0.1537	0.84035	-0.346
Mof_C 	C 	0.6421	0.2897	0.00177	0.271
Mof_C 	C 	0.6457	0.1963	0.99399	0.253
Mof_C 	C 	0.4386	0.1203	0.87406	0.295
Mof_C 	C 	0.5715	0.18	0.86509	0.249
Mof_Yb	Yb	0.63979	0.9816	0.18593	1.886
Mof_O 	O 	0.8108	0.9169	0.22827	-0.382
Mof_O 	O 	0.9715	0.9333	0.28079	-0.379
Mof_O 	O 	0.9884	0.0938	0.26577	-0.361
Mof_O 	O 	0.8045	0.0798	0.21726	-0.369
Mof_O 	O 	0.5896	0.1027	0.14801	-0.357
Mof_O 	O 	0.6911	0.1977	0.10648	-0.399
Mof_O 	O 	0.8191	0.0002	0.13317	-0.369
Mof_O 	O 	0.9209	0.0963	0.09035	-0.347
Mof_C 	C 	0.8921	0.9603	0.25177	0.271
Mof_C 	C 	0.8957	0.0537	0.24399	0.254
Mof_C 	C 	0.6886	0.1297	0.12406	0.295
Mof_C 	C 	0.8215	0.07	0.11509	0.249
Mof_Yb	Yb	0.63979	0.4816	0.68593	1.886
Mof_O 	O 	0.8108	0.4169	0.72827	-0.382
Mof_O 	O 	0.9715	0.4333	0.78079	-0.379
Mof_O 	O 	0.9884	0.5938	0.76577	-0.361
Mof_O 	O 	0.8045	0.5798	0.71726	-0.369
Mof_O 	O 	0.5896	0.6027	0.64801	-0.357
Mof_O 	O 	0.6911	0.6977	0.60648	-0.399
Mof_O 	O 	0.8191	0.5002	0.63317	-0.37
Mof_O 	O 	0.9209	0.5963	0.59035	-0.347
Mof_C 	C 	0.8921	0.4603	0.75177	0.271
Mof_C 	C 	0.8957	0.5537	0.74399	0.254
Mof_C 	C 	0.6886	0.6297	0.62406	0.295
Mof_C 	C 	0.8215	0.57	0.61509	0.249
Mof_Yb	Yb	0.13979	0.9816	0.68593	1.895
Mof_O 	O 	0.3108	0.9169	0.72827	-0.382
Mof_O 	O 	0.4715	0.9333	0.78079	-0.375
Mof_O 	O 	0.4884	0.0938	0.76577	-0.358
Mof_O 	O 	0.3045	0.0798	0.71726	-0.369
Mof_O 	O 	0.0896	0.1027	0.64801	-0.356
Mof_O 	O 	0.1911	0.1977	0.60648	-0.399
Mof_O 	O 	0.3191	0.0002	0.63317	-0.369
Mof_O 	O 	0.4209	0.0963	0.59035	-0.346
Mof_C 	C 	0.3921	0.9603	0.75177	0.272
Mof_C 	C 	0.3957	0.0537	0.74399	0.254
Mof_C 	C 	0.1886	0.1297	0.62406	0.295
Mof_C 	C 	0.3215	0.07	0.61509	0.249
Mof_Yb	Yb	0.13979	0.4816	0.18593	1.894
Mof_O 	O 	0.3108	0.4169	0.22827	-0.381
Mof_O 	O 	0.4715	0.4333	0.28079	-0.375
Mof_O 	O 	0.4884	0.5938	0.26577	-0.358
Mof_O 	O 	0.3045	0.5798	0.21726	-0.369
Mof_O 	O 	0.0896	0.6027	0.14801	-0.356
Mof_O 	O 	0.1911	0.6977	0.10648	-0.399
Mof_O 	O 	0.3191	0.5002	0.13317	-0.37
Mof_O 	O 	0.4209	0.5963	0.09035	-0.346
Mof_C 	C 	0.3921	0.4603	0.25177	0.271
Mof_C 	C 	0.3957	0.5537	0.24399	0.254
Mof_C 	C 	0.1886	0.6297	0.12406	0.295
Mof_C 	C 	0.3215	0.57	0.11509	0.249
Mof_Yb	Yb	0.63979	0.5184	0.31407	1.886
Mof_O 	O 	0.8108	0.5831	0.27173	-0.382
Mof_O 	O 	0.9715	0.5667	0.21921	-0.379
Mof_O 	O 	0.9884	0.4062	0.23423	-0.361
Mof_O 	O 	0.8045	0.4202	0.28274	-0.369
Mof_O 	O 	0.5896	0.3973	0.35199	-0.357
Mof_O 	O 	0.6911	0.3023	0.39352	-0.399
Mof_O 	O 	0.8191	0.4998	0.36683	-0.37
Mof_O 	O 	0.9209	0.4037	0.40965	-0.347
Mof_C 	C 	0.8921	0.5397	0.24823	0.271
Mof_C 	C 	0.8957	0.4463	0.25601	0.254
Mof_C 	C 	0.6886	0.3703	0.37594	0.295
Mof_C 	C 	0.8215	0.43	0.38491	0.249
Mof_Yb	Yb	0.63979	0.0184	0.81407	1.886
Mof_O 	O 	0.8108	0.0831	0.77173	-0.382
Mof_O 	O 	0.9715	0.0667	0.71921	-0.379
Mof_O 	O 	0.9884	0.9062	0.73423	-0.361
Mof_O 	O 	0.8045	0.9202	0.78274	-0.369
Mof_O 	O 	0.5896	0.8973	0.85199	-0.357
Mof_O 	O 	0.6911	0.8023	0.89352	-0.399
Mof_O 	O 	0.8191	0.9998	0.86683	-0.369
Mof_O 	O 	0.9209	0.9037	0.90965	-0.347
Mof_C 	C 	0.8921	0.0397	0.74823	0.271
Mof_C 	C 	0.8957	0.9463	0.75601	0.254
Mof_C 	C 	0.6886	0.8703	0.87594	0.295
Mof_C 	C 	0.8215	0.93	0.88491	0.249
Mof_Yb	Yb	0.13979	0.5184	0.81407	1.894
Mof_O 	O 	0.3108	0.5831	0.77173	-0.381
Mof_O 	O 	0.4715	0.5667	0.71921	-0.375
Mof_O 	O 	0.4884	0.4062	0.73423	-0.358
Mof_O 	O 	0.3045	0.4202	0.78274	-0.369
Mof_O 	O 	0.0896	0.3973	0.85199	-0.356
Mof_O 	O 	0.1911	0.3023	0.89352	-0.399
Mof_O 	O 	0.3191	0.4998	0.86683	-0.37
Mof_O 	O 	0.4209	0.4037	0.90965	-0.346
Mof_C 	C 	0.3921	0.5397	0.74823	0.271
Mof_C 	C 	0.3957	0.4463	0.75601	0.254
Mof_C 	C 	0.1886	0.3703	0.87594	0.295
Mof_C 	C 	0.3215	0.43	0.88491	0.249
Mof_Yb	Yb	0.13979	0.0184	0.31407	1.895
Mof_O 	O 	0.3108	0.0831	0.27173	-0.382
Mof_O 	O 	0.4715	0.0667	0.21921	-0.375
Mof_O 	O 	0.4884	0.9062	0.23423	-0.358
Mof_O 	O 	0.3045	0.9202	0.28274	-0.369
Mof_O 	O 	0.0896	0.8973	0.35199	-0.356
Mof_O 	O 	0.1911	0.8023	0.39352	-0.399
Mof_O 	O 	0.3191	0.9998	0.36683	-0.369
Mof_O 	O 	0.4209	0.9037	0.40965	-0.346
Mof_C 	C 	0.3921	0.0397	0.24823	0.272
Mof_C 	C 	0.3957	0.9463	0.25601	0.254
Mof_C 	C 	0.1886	0.8703	0.37594	0.295
Mof_C 	C 	0.3215	0.93	0.38491	0.249
_end
