data_functionalizedCrystal
_audit_creation_method	'EQeq! by Chris Wilmer'
_symmetry_space_group_name_H-M	'P1'
_symmetry_Int_Tables_number	1
_symmetry_cell_setting	triclinic
loop_
_symmetry_equiv_pos_as_xyz
  x,y,z
_cell_length_a	19.209
_cell_length_b	19.209
_cell_length_c	10.991
_cell_angle_alpha	90
_cell_angle_beta	90
_cell_angle_gamma	90
loop_
_atom_site_label
_atom_site_type_symbol
_atom_site_fract_x
_atom_site_fract_y
_atom_site_fract_z
_atom_site_charge
Mof_O 	O 	0.03581	0.56636	0.14944	-0.412
Mof_O 	O 	0.98347	0.61855	0.9923	-0.402
Mof_C 	C 	0.07923	0.69078	0.2412	0.091
Mof_H 	H 	0.0941	0.649	0.2752	0.007
Mof_C 	C 	0.03399	0.68817	0.1438	-0.141
Mof_C 	C 	0.01547	0.61866	0.0912	0.385
Mof_O 	O 	0.46419	0.93364	0.14944	-0.413
Mof_O 	O 	0.51653	0.88145	0.9923	-0.403
Mof_C 	C 	0.42077	0.80922	0.2412	0.089
Mof_H 	H 	0.4059	0.851	0.2752	0.007
Mof_C 	C 	0.46601	0.81183	0.1438	-0.14
Mof_C 	C 	0.48453	0.88134	0.0912	0.384
Mof_O 	O 	0.93364	0.03581	0.14944	-0.413
Mof_O 	O 	0.88145	0.98347	0.9923	-0.404
Mof_C 	C 	0.80922	0.07923	0.2412	0.09
Mof_H 	H 	0.851	0.0941	0.2752	0.006
Mof_C 	C 	0.81183	0.03399	0.1438	-0.141
Mof_C 	C 	0.88134	0.01547	0.0912	0.385
Mof_O 	O 	0.56636	0.46419	0.14944	-0.413
Mof_O 	O 	0.61855	0.51653	0.9923	-0.403
Mof_C 	C 	0.69078	0.42077	0.2412	0.089
Mof_H 	H 	0.649	0.4059	0.2752	0.007
Mof_C 	C 	0.68817	0.46601	0.1438	-0.14
Mof_C 	C 	0.61866	0.48453	0.0912	0.384
Mof_O 	O 	0.96419	0.06636	0.85056	-0.413
Mof_O 	O 	0.01653	0.11855	0.0077	-0.404
Mof_C 	C 	0.92077	0.19078	0.7588	0.09
Mof_H 	H 	0.9059	0.149	0.7248	0.006
Mof_C 	C 	0.96601	0.18817	0.8562	-0.141
Mof_C 	C 	0.98453	0.11866	0.9088	0.385
Mof_O 	O 	0.53581	0.43364	0.85056	-0.413
Mof_O 	O 	0.48347	0.38145	0.0077	-0.403
Mof_C 	C 	0.57923	0.30922	0.7588	0.089
Mof_H 	H 	0.5941	0.351	0.7248	0.007
Mof_C 	C 	0.53399	0.31183	0.8562	-0.14
Mof_C 	C 	0.51547	0.38134	0.9088	0.384
Mof_O 	O 	0.06636	0.53581	0.85056	-0.413
Mof_O 	O 	0.11855	0.48347	0.0077	-0.403
Mof_C 	C 	0.19078	0.57923	0.7588	0.089
Mof_H 	H 	0.149	0.5941	0.7248	0.007
Mof_C 	C 	0.18817	0.53399	0.8562	-0.14
Mof_C 	C 	0.11866	0.51547	0.9088	0.384
Mof_O 	O 	0.43364	0.96419	0.85056	-0.413
Mof_O 	O 	0.38145	0.01653	0.0077	-0.403
Mof_C 	C 	0.30922	0.92077	0.7588	0.09
Mof_H 	H 	0.351	0.9059	0.7248	0.006
Mof_C 	C 	0.31183	0.96601	0.8562	-0.141
Mof_C 	C 	0.38134	0.98453	0.9088	0.385
Mof_O 	O 	0.96419	0.43364	0.85056	-0.413
Mof_O 	O 	0.01653	0.38145	0.0077	-0.403
Mof_C 	C 	0.92077	0.30922	0.7588	0.09
Mof_H 	H 	0.9059	0.351	0.7248	0.006
Mof_C 	C 	0.96601	0.31183	0.8562	-0.141
Mof_C 	C 	0.98453	0.38134	0.9088	0.385
Mof_O 	O 	0.53581	0.06636	0.85056	-0.413
Mof_O 	O 	0.48347	0.11855	0.0077	-0.403
Mof_C 	C 	0.57923	0.19078	0.7588	0.089
Mof_H 	H 	0.5941	0.149	0.7248	0.007
Mof_C 	C 	0.53399	0.18817	0.8562	-0.14
Mof_C 	C 	0.51547	0.11866	0.9088	0.384
Mof_O 	O 	0.06636	0.96419	0.85056	-0.413
Mof_O 	O 	0.11855	0.01653	0.0077	-0.404
Mof_C 	C 	0.19078	0.92077	0.7588	0.09
Mof_H 	H 	0.149	0.9059	0.7248	0.006
Mof_C 	C 	0.18817	0.96601	0.8562	-0.141
Mof_C 	C 	0.11866	0.98453	0.9088	0.385
Mof_O 	O 	0.43364	0.53581	0.85056	-0.413
Mof_O 	O 	0.38145	0.48347	0.0077	-0.403
Mof_C 	C 	0.30922	0.57923	0.7588	0.089
Mof_H 	H 	0.351	0.5941	0.7248	0.007
Mof_C 	C 	0.31183	0.53399	0.8562	-0.14
Mof_C 	C 	0.38134	0.51547	0.9088	0.384
Mof_O 	O 	0.03581	0.93364	0.14944	-0.413
Mof_O 	O 	0.98347	0.88145	0.9923	-0.404
Mof_C 	C 	0.07923	0.80922	0.2412	0.09
Mof_H 	H 	0.0941	0.851	0.2752	0.006
Mof_C 	C 	0.03399	0.81183	0.1438	-0.141
Mof_C 	C 	0.01547	0.88134	0.0912	0.385
Mof_O 	O 	0.46419	0.56636	0.14944	-0.413
Mof_O 	O 	0.51653	0.61855	0.9923	-0.403
Mof_C 	C 	0.42077	0.69078	0.2412	0.089
Mof_H 	H 	0.4059	0.649	0.2752	0.007
Mof_C 	C 	0.46601	0.68817	0.1438	-0.14
Mof_C 	C 	0.48453	0.61866	0.0912	0.384
Mof_O 	O 	0.93364	0.46419	0.14944	-0.413
Mof_O 	O 	0.88145	0.51653	0.9923	-0.403
Mof_C 	C 	0.80922	0.42077	0.2412	0.089
Mof_H 	H 	0.851	0.4059	0.2752	0.007
Mof_C 	C 	0.81183	0.46601	0.1438	-0.14
Mof_C 	C 	0.88134	0.48453	0.0912	0.384
Mof_O 	O 	0.56636	0.03581	0.14944	-0.413
Mof_O 	O 	0.61855	0.98347	0.9923	-0.403
Mof_C 	C 	0.69078	0.07923	0.2412	0.09
Mof_H 	H 	0.649	0.0941	0.2752	0.006
Mof_C 	C 	0.68817	0.03399	0.1438	-0.141
Mof_C 	C 	0.61866	0.01547	0.0912	0.385
Mof_I 	I 	0.12918	0.75	0.63633	-0.558
Mof_Cu	Cu	0.18123	0.75	0.41381	0.718
Mof_N 	N 	0.1028	0.75	0.2893	-0.242
Mof_C 	C 	0.0117	0.75	0.0934	0.091
Mof_H 	H 	0.9822	0.75	0.0264	0.035
Mof_I 	I 	0.37082	0.75	0.63633	-0.558
Mof_Cu	Cu	0.31877	0.75	0.41381	0.718
Mof_N 	N 	0.3972	0.75	0.2893	-0.242
Mof_C 	C 	0.4883	0.75	0.0934	0.088
Mof_H 	H 	0.5178	0.75	0.0264	0.036
Mof_I 	I 	0.75	0.12918	0.63633	-0.558
Mof_Cu	Cu	0.75	0.18123	0.41381	0.718
Mof_N 	N 	0.75	0.1028	0.2893	-0.242
Mof_C 	C 	0.75	0.0117	0.0934	0.091
Mof_H 	H 	0.75	0.9822	0.0264	0.035
Mof_I 	I 	0.75	0.37082	0.63633	-0.558
Mof_Cu	Cu	0.75	0.31877	0.41381	0.718
Mof_N 	N 	0.75	0.3972	0.2893	-0.242
Mof_C 	C 	0.75	0.4883	0.0934	0.088
Mof_H 	H 	0.75	0.5178	0.0264	0.036
Mof_I 	I 	0.87082	0.25	0.36367	-0.558
Mof_Cu	Cu	0.81877	0.25	0.58619	0.718
Mof_N 	N 	0.8972	0.25	0.7107	-0.242
Mof_C 	C 	0.9883	0.25	0.9066	0.091
Mof_H 	H 	0.0178	0.25	0.9736	0.035
Mof_I 	I 	0.62918	0.25	0.36367	-0.558
Mof_Cu	Cu	0.68123	0.25	0.58619	0.718
Mof_N 	N 	0.6028	0.25	0.7107	-0.242
Mof_C 	C 	0.5117	0.25	0.9066	0.088
Mof_H 	H 	0.4822	0.25	0.9736	0.036
Mof_I 	I 	0.25	0.62918	0.36367	-0.558
Mof_Cu	Cu	0.25	0.68123	0.58619	0.718
Mof_N 	N 	0.25	0.6028	0.7107	-0.242
Mof_C 	C 	0.25	0.5117	0.9066	0.088
Mof_H 	H 	0.25	0.4822	0.9736	0.036
Mof_I 	I 	0.25	0.87082	0.36367	-0.558
Mof_Cu	Cu	0.25	0.81877	0.58619	0.718
Mof_N 	N 	0.25	0.8972	0.7107	-0.242
Mof_C 	C 	0.25	0.9883	0.9066	0.091
Mof_H 	H 	0.25	0.0178	0.9736	0.035
Mof_Cu	Cu	0.03068	0.46932	0.09488	0.909
Mof_Cu	Cu	0.46932	0.03068	0.09488	0.909
Mof_Cu	Cu	0.03068	0.03068	0.09488	0.909
Mof_Cu	Cu	0.46932	0.46932	0.09488	0.909
Mof_Cu	Cu	0.96932	0.96932	0.90512	0.909
Mof_Cu	Cu	0.53068	0.53068	0.90512	0.909
Mof_Cu	Cu	0.96932	0.53068	0.90512	0.909
Mof_Cu	Cu	0.53068	0.96932	0.90512	0.909
_end
