data_functionalizedCrystal
_audit_creation_method	'EQeq! by Chris Wilmer'
_symmetry_space_group_name_H-M	'P1'
_symmetry_Int_Tables_number	1
_symmetry_cell_setting	triclinic
loop_
_symmetry_equiv_pos_as_xyz
  x,y,z
_cell_length_a	16.235
_cell_length_b	9.365
_cell_length_c	16.264
_cell_angle_alpha	90
_cell_angle_beta	116.786
_cell_angle_gamma	90
loop_
_atom_site_label
_atom_site_type_symbol
_atom_site_fract_x
_atom_site_fract_y
_atom_site_fract_z
_atom_site_charge
Mof_Zn	Zn	0.29943	0.42944	0.70058	1.245
Mof_O 	O 	0.4235	0.3655	0.7672	-0.543
Mof_C 	C 	0.1345	0.375	0.8667	0.145
Mof_H 	H 	0.1511	0.4615	0.8503	0.004
Mof_C 	C 	0.0851	0.3747	0.9172	-0.253
Mof_H 	H 	0.0694	0.4613	0.9343	0.122
Mof_C 	C 	0.7126	0.3624	0.8849	-0.146
Mof_H 	H 	0.7473	0.4309	0.8731	0.082
Mof_C 	C 	0.1133	0.3689	0.2881	0.091
Mof_H 	H 	0.1232	0.4373	0.252	-0.012
Mof_C 	C 	0.6143	0.3663	0.8395	0.047
Mof_H 	H 	0.5833	0.4461	0.8057	0.022
Mof_C 	C 	0.1605	0.3793	0.3843	-0.146
Mof_H 	H 	0.1925	0.4609	0.4144	0.084
Mof_O 	O 	0.322	0.6362	0.8356	-0.154
Mof_N 	N 	0.3059	0.6299	0.6827	-0.304
Mof_O 	O 	0.2343	0.3695	0.7664	-0.499
Mof_O 	O 	0.2319	0.3652	0.5771	-0.549
Mof_O 	O 	0.1701	0.6305	0.6815	-0.167
Mof_C 	C 	0.6077	0.3456	0.9074	0.099
Mof_C 	C 	0.7021	0.3376	0.9599	-0.063
Mof_H 	H 	0.0155	0.4448	0.2692	0.154
Mof_C 	C 	0.0475	0.361	0.2955	-0.359
Mof_C 	C 	0.0967	0.3464	0.3903	0.254
Mof_H 	H 	0.7989	0.2118	0.8106	0.047
Mof_H 	H 	0.891	0.1975	0.8127	0.059
Mof_Zn	Zn	0.29943	0.07056	0.70058	1.244
Mof_O 	O 	0.4235	0.1345	0.7672	-0.544
Mof_C 	C 	0.1345	0.125	0.8667	0.144
Mof_H 	H 	0.1511	0.0385	0.8503	0.003
Mof_C 	C 	0.0851	0.1253	0.9172	-0.254
Mof_H 	H 	0.0694	0.0387	0.9343	0.12
Mof_C 	C 	0.7126	0.1376	0.8849	-0.148
Mof_H 	H 	0.7473	0.0691	0.8731	0.082
Mof_C 	C 	0.1133	0.1311	0.2881	0.096
Mof_H 	H 	0.1232	0.0627	0.252	-0.015
Mof_C 	C 	0.6143	0.1337	0.8395	0.047
Mof_H 	H 	0.5833	0.0539	0.8057	0.022
Mof_C 	C 	0.1605	0.1207	0.3843	-0.151
Mof_H 	H 	0.1925	0.0391	0.4144	0.085
Mof_O 	O 	0.322	0.8638	0.8356	-0.153
Mof_N 	N 	0.3059	0.8701	0.6827	-0.304
Mof_O 	O 	0.2343	0.1305	0.7664	-0.499
Mof_O 	O 	0.2319	0.1348	0.5771	-0.549
Mof_O 	O 	0.1701	0.8695	0.6815	-0.166
Mof_C 	C 	0.6077	0.1544	0.9074	0.099
Mof_C 	C 	0.7021	0.1624	0.9599	-0.062
Mof_H 	H 	0.0155	0.0552	0.2692	0.155
Mof_C 	C 	0.0475	0.139	0.2955	-0.365
Mof_C 	C 	0.0967	0.1536	0.3903	0.258
Mof_H 	H 	0.7989	0.2882	0.8106	0.047
Mof_H 	H 	0.891	0.3025	0.8127	0.058
Mof_C 	C 	0.9049	0.25	0.0969	0.349
Mof_C 	C 	0.9985	0.25	0.1424	-0.309
Mof_C 	C 	0.8579	0.25	0.9993	-0.26
Mof_C 	C 	0.0588	0.25	0.9426	0.214
Mof_C 	C 	0.0484	0.25	0.0913	0.237
Mof_C 	C 	0.7557	0.25	0.949	0.2
Mof_C 	C 	0.0479	0.25	0.2431	0.259
Mof_C 	C 	0.0045	0.25	0.9951	-0.233
Mof_C 	C 	0.9094	0.25	0.9502	0.207
Mof_C 	C 	0.566	0.25	0.8466	-0.248
Mof_C 	C 	0.1552	0.25	0.4343	-0.276
Mof_C 	C 	0.4633	0.25	0.789	0.514
Mof_C 	C 	0.2094	0.25	0.5374	0.524
Mof_C 	C 	0.1592	0.25	0.8405	-0.2
Mof_C 	C 	0.2142	0.25	0.7854	0.456
Mof_N 	N 	0.8666	0.25	0.8549	-0.237
Mof_N 	N 	0.142	0.25	0.1341	-0.341
Mof_H 	H 	0.1715	0.25	0.1933	0.149
Mof_H 	H 	0.1723	0.25	0.1021	0.157
Mof_H 	H 	0.8853	0.25	0.1952	0.222
Mof_N 	N 	0.8595	0.25	0.136	-0.436
Mof_H 	H 	0.8003	0.25	0.1055	0.22
Mof_C 	C 	0.2994	0.75	0.7002	0.321
Mof_N 	N 	0.3137	0.75	0.8036	-0.005
Mof_N 	N 	0.193	0.75	0.6888	0.011
Mof_Zn	Zn	0.70057	0.92944	0.29942	1.244
Mof_O 	O 	0.5765	0.8655	0.2328	-0.544
Mof_C 	C 	0.8655	0.875	0.1333	0.144
Mof_H 	H 	0.8489	0.9615	0.1497	0.003
Mof_C 	C 	0.9149	0.8747	0.0828	-0.254
Mof_H 	H 	0.9306	0.9613	0.0657	0.12
Mof_C 	C 	0.2874	0.8624	0.1151	-0.148
Mof_H 	H 	0.2527	0.9309	0.1269	0.082
Mof_C 	C 	0.8867	0.8689	0.7119	0.096
Mof_H 	H 	0.8768	0.9373	0.748	-0.015
Mof_C 	C 	0.3857	0.8663	0.1605	0.047
Mof_H 	H 	0.4167	0.9461	0.1943	0.022
Mof_C 	C 	0.8395	0.8793	0.6157	-0.151
Mof_H 	H 	0.8075	0.9609	0.5856	0.085
Mof_O 	O 	0.678	0.1362	0.1644	-0.153
Mof_N 	N 	0.6941	0.1299	0.3173	-0.304
Mof_O 	O 	0.7657	0.8695	0.2336	-0.499
Mof_O 	O 	0.7681	0.8652	0.4229	-0.549
Mof_O 	O 	0.8299	0.1305	0.3185	-0.166
Mof_C 	C 	0.3923	0.8456	0.0926	0.099
Mof_C 	C 	0.2979	0.8376	0.0401	-0.062
Mof_H 	H 	0.9845	0.9448	0.7308	0.155
Mof_C 	C 	0.9525	0.861	0.7045	-0.365
Mof_C 	C 	0.9033	0.8464	0.6097	0.258
Mof_H 	H 	0.2011	0.7118	0.1894	0.047
Mof_H 	H 	0.109	0.6975	0.1873	0.058
Mof_Zn	Zn	0.70057	0.57056	0.29942	1.244
Mof_O 	O 	0.5765	0.6345	0.2328	-0.544
Mof_C 	C 	0.8655	0.625	0.1333	0.144
Mof_H 	H 	0.8489	0.5385	0.1497	0.003
Mof_C 	C 	0.9149	0.6253	0.0828	-0.254
Mof_H 	H 	0.9306	0.5387	0.0657	0.121
Mof_C 	C 	0.2874	0.6376	0.1151	-0.147
Mof_H 	H 	0.2527	0.5691	0.1269	0.081
Mof_C 	C 	0.8867	0.6311	0.7119	0.09
Mof_H 	H 	0.8768	0.5627	0.748	-0.013
Mof_C 	C 	0.3857	0.6337	0.1605	0.047
Mof_H 	H 	0.4167	0.5539	0.1943	0.022
Mof_C 	C 	0.8395	0.6207	0.6157	-0.146
Mof_H 	H 	0.8075	0.5391	0.5856	0.084
Mof_O 	O 	0.678	0.3638	0.1644	-0.154
Mof_N 	N 	0.6941	0.3701	0.3173	-0.304
Mof_O 	O 	0.7657	0.6305	0.2336	-0.499
Mof_O 	O 	0.7681	0.6348	0.4229	-0.549
Mof_O 	O 	0.8299	0.3695	0.3185	-0.167
Mof_C 	C 	0.3923	0.6544	0.0926	0.099
Mof_C 	C 	0.2979	0.6624	0.0401	-0.063
Mof_H 	H 	0.9845	0.5552	0.7308	0.154
Mof_C 	C 	0.9525	0.639	0.7045	-0.359
Mof_C 	C 	0.9033	0.6536	0.6097	0.254
Mof_H 	H 	0.2011	0.7882	0.1894	0.047
Mof_H 	H 	0.109	0.8025	0.1873	0.059
Mof_C 	C 	0.0951	0.75	0.9031	0.349
Mof_C 	C 	0.0015	0.75	0.8576	-0.309
Mof_C 	C 	0.1421	0.75	0.0007	-0.26
Mof_C 	C 	0.9412	0.75	0.0574	0.214
Mof_C 	C 	0.9516	0.75	0.9087	0.237
Mof_C 	C 	0.2443	0.75	0.051	0.2
Mof_C 	C 	0.9521	0.75	0.7569	0.259
Mof_C 	C 	0.9955	0.75	0.0049	-0.233
Mof_C 	C 	0.0906	0.75	0.0498	0.207
Mof_C 	C 	0.434	0.75	0.1534	-0.248
Mof_C 	C 	0.8448	0.75	0.5657	-0.276
Mof_C 	C 	0.5367	0.75	0.211	0.514
Mof_C 	C 	0.7906	0.75	0.4626	0.524
Mof_C 	C 	0.8408	0.75	0.1595	-0.2
Mof_C 	C 	0.7858	0.75	0.2146	0.456
Mof_N 	N 	0.1334	0.75	0.1451	-0.237
Mof_N 	N 	0.858	0.75	0.8659	-0.341
Mof_H 	H 	0.8285	0.75	0.8067	0.149
Mof_H 	H 	0.8277	0.75	0.8979	0.157
Mof_H 	H 	0.1147	0.75	0.8048	0.222
Mof_N 	N 	0.1405	0.75	0.864	-0.436
Mof_H 	H 	0.1997	0.75	0.8945	0.22
Mof_C 	C 	0.7006	0.25	0.2998	0.321
Mof_N 	N 	0.6863	0.25	0.1964	-0.005
Mof_N 	N 	0.807	0.25	0.3112	0.011
_end
