data_functionalizedCrystal
_audit_creation_method	'EQeq! by Chris Wilmer'
_symmetry_space_group_name_H-M	'P1'
_symmetry_Int_Tables_number	1
_symmetry_cell_setting	triclinic
loop_
_symmetry_equiv_pos_as_xyz
  x,y,z
_cell_length_a	22.9765
_cell_length_b	22.9765
_cell_length_c	22.9765
_cell_angle_alpha	109.471
_cell_angle_beta	109.471
_cell_angle_gamma	109.471
loop_
_atom_site_label
_atom_site_type_symbol
_atom_site_fract_x
_atom_site_fract_y
_atom_site_fract_z
_atom_site_charge
Mof_Zn	Zn	0.07264	0.03632	0.28632	1.169
Mof_Zn	Zn	0.25	0.78632	0.21368	1.169
Mof_Zn	Zn	0.25	0.46368	0.53632	1.169
Mof_Zn	Zn	0.42736	0.71368	0.96368	1.169
Mof_Zn	Zn	0.03632	0.25	0.96368	1.168
Mof_Zn	Zn	0.46368	0.42736	0.21368	1.169
Mof_Zn	Zn	0.78632	0.07264	0.53632	1.169
Mof_Zn	Zn	0.71368	0.25	0.28632	1.169
Mof_Zn	Zn	0.78632	0.71368	0.75	1.169
Mof_Zn	Zn	0.03632	0.78632	0.57264	1.169
Mof_Zn	Zn	0.71368	0.46368	0.92736	1.169
Mof_Zn	Zn	0.46368	0.03632	0.75	1.169
Mof_Zn	Zn	0.92736	0.96368	0.71368	1.169
Mof_Zn	Zn	0.75	0.21368	0.78632	1.169
Mof_Zn	Zn	0.75	0.53632	0.46368	1.169
Mof_Zn	Zn	0.57264	0.28632	0.03632	1.169
Mof_Zn	Zn	0.96368	0.75	0.03632	1.169
Mof_Zn	Zn	0.53632	0.57264	0.78632	1.17
Mof_Zn	Zn	0.21368	0.92736	0.46368	1.17
Mof_Zn	Zn	0.28632	0.75	0.71368	1.17
Mof_Zn	Zn	0.21368	0.28632	0.25	1.17
Mof_Zn	Zn	0.96368	0.21368	0.42736	1.17
Mof_Zn	Zn	0.28632	0.53632	0.07264	1.17
Mof_Zn	Zn	0.53632	0.96368	0.25	1.17
Mof_H 	H 	0.2308	0.0997	0.3101	0.003
Mof_H 	H 	0.2892	0.2034	0.2984	0.003
Mof_H 	H 	0.0551	0.1572	0.1787	0.05
Mof_H 	H 	0.0231	0.1052	0.2035	0.042
Mof_H 	H 	0.008	0.202	0.2442	0.073
Mof_H 	H 	0.0922	0.2543	0.2851	0.052
Mof_H 	H 	0.0595	0.201	0.3105	0.066
Mof_H 	H 	0.2896	0.9207	0.1899	0.003
Mof_H 	H 	0.405	0.9908	0.2016	0.003
Mof_H 	H 	0.4785	0.8764	0.3213	0.05
Mof_H 	H 	0.4017	0.8196	0.2965	0.042
Mof_H 	H 	0.4578	0.7638	0.2558	0.073
Mof_H 	H 	0.4692	0.8071	0.2149	0.052
Mof_H 	H 	0.3905	0.749	0.1895	0.066
Mof_H 	H 	0.2104	0.4003	0.6311	0.003
Mof_H 	H 	0.095	0.2966	0.5858	0.002
Mof_H 	H 	0.0215	0.3428	0.3979	0.05
Mof_H 	H 	0.0983	0.3948	0.4179	0.042
Mof_H 	H 	0.0422	0.298	0.306	0.073
Mof_H 	H 	0.0308	0.2457	0.3379	0.052
Mof_H 	H 	0.1095	0.299	0.3585	0.066
Mof_H 	H 	0.2692	0.5793	0.8689	0.003
Mof_H 	H 	0.2108	0.5092	0.9142	0.003
Mof_H 	H 	0.4449	0.6236	0.1021	0.051
Mof_H 	H 	0.4769	0.6804	0.0821	0.042
Mof_H 	H 	0.492	0.7362	0.194	0.072
Mof_H 	H 	0.4078	0.6929	0.1621	0.051
Mof_H 	H 	0.4405	0.751	0.1415	0.066
Mof_H 	H 	0.1311	0.2104	0.9003	0.002
Mof_H 	H 	0.0858	0.095	0.7966	0.003
Mof_H 	H 	0.8979	0.0215	0.8428	0.052
Mof_H 	H 	0.9179	0.0983	0.8948	0.044
Mof_H 	H 	0.806	0.0422	0.798	0.072
Mof_H 	H 	0.8379	0.0308	0.7457	0.051
Mof_H 	H 	0.8585	0.1095	0.799	0.065
Mof_H 	H 	0.3689	0.2692	0.0793	0.003
Mof_H 	H 	0.4142	0.2108	0.0092	0.003
Mof_H 	H 	0.6021	0.4449	0.1236	0.05
Mof_H 	H 	0.5821	0.4769	0.1804	0.042
Mof_H 	H 	0.694	0.492	0.2362	0.073
Mof_H 	H 	0.6621	0.4078	0.1929	0.052
Mof_H 	H 	0.6415	0.4405	0.251	0.066
Mof_H 	H 	0.8101	0.2308	0.5997	0.003
Mof_H 	H 	0.7984	0.2892	0.7034	0.003
Mof_H 	H 	0.6787	0.0551	0.6572	0.05
Mof_H 	H 	0.7035	0.0231	0.6052	0.042
Mof_H 	H 	0.7442	0.008	0.702	0.073
Mof_H 	H 	0.7851	0.0922	0.7543	0.052
Mof_H 	H 	0.8105	0.0595	0.701	0.066
Mof_H 	H 	0.6899	0.2896	0.4207	0.003
Mof_H 	H 	0.7016	0.405	0.4908	0.003
Mof_H 	H 	0.8213	0.4785	0.3764	0.05
Mof_H 	H 	0.7965	0.4017	0.3196	0.042
Mof_H 	H 	0.7558	0.4578	0.2638	0.073
Mof_H 	H 	0.7149	0.4692	0.3071	0.052
Mof_H 	H 	0.6895	0.3905	0.249	0.066
Mof_H 	H 	0.9207	0.6899	0.7896	0.003
Mof_H 	H 	0.9908	0.7016	0.905	0.003
Mof_H 	H 	0.8764	0.8213	0.9785	0.051
Mof_H 	H 	0.8196	0.7965	0.9017	0.042
Mof_H 	H 	0.7638	0.7558	0.9578	0.073
Mof_H 	H 	0.8071	0.7149	0.9692	0.052
Mof_H 	H 	0.749	0.6895	0.8905	0.066
Mof_H 	H 	0.0997	0.8101	0.7308	0.003
Mof_H 	H 	0.2034	0.7984	0.7892	0.003
Mof_H 	H 	0.1572	0.6787	0.5551	0.05
Mof_H 	H 	0.1052	0.7035	0.5231	0.042
Mof_H 	H 	0.202	0.7442	0.508	0.073
Mof_H 	H 	0.2543	0.7851	0.5922	0.052
Mof_H 	H 	0.201	0.8105	0.5595	0.066
Mof_H 	H 	0.5793	0.3689	0.7692	0.003
Mof_H 	H 	0.5092	0.4142	0.7108	0.003
Mof_H 	H 	0.6236	0.6021	0.9449	0.05
Mof_H 	H 	0.6804	0.5821	0.9769	0.042
Mof_H 	H 	0.7362	0.694	0.992	0.073
Mof_H 	H 	0.6929	0.6621	0.9078	0.052
Mof_H 	H 	0.751	0.6415	0.9405	0.066
Mof_H 	H 	0.4003	0.1311	0.7104	0.003
Mof_H 	H 	0.2966	0.0858	0.595	0.003
Mof_H 	H 	0.3428	0.8979	0.5215	0.05
Mof_H 	H 	0.3948	0.9179	0.5983	0.042
Mof_H 	H 	0.298	0.806	0.5422	0.073
Mof_H 	H 	0.2457	0.8379	0.5308	0.052
Mof_H 	H 	0.299	0.8585	0.6095	0.066
Mof_H 	H 	0.4003	0.2692	0.1899	0.003
Mof_H 	H 	0.2966	0.2108	0.2016	0.003
Mof_H 	H 	0.3428	0.4449	0.3213	0.05
Mof_H 	H 	0.3948	0.4769	0.2965	0.042
Mof_H 	H 	0.298	0.492	0.2558	0.073
Mof_H 	H 	0.2457	0.4078	0.2149	0.052
Mof_H 	H 	0.299	0.4405	0.1895	0.066
Mof_H 	H 	0.5793	0.2104	0.3101	0.003
Mof_H 	H 	0.5092	0.095	0.2984	0.003
Mof_H 	H 	0.6236	0.0215	0.1787	0.05
Mof_H 	H 	0.6804	0.0983	0.2035	0.042
Mof_H 	H 	0.7362	0.0422	0.2442	0.073
Mof_H 	H 	0.6929	0.0308	0.2851	0.052
Mof_H 	H 	0.751	0.1095	0.3105	0.066
Mof_H 	H 	0.0997	0.2896	0.8689	0.002
Mof_H 	H 	0.2034	0.405	0.9142	0.003
Mof_H 	H 	0.1572	0.4785	0.1021	0.051
Mof_H 	H 	0.1052	0.4017	0.0821	0.043
Mof_H 	H 	0.202	0.4578	0.194	0.072
Mof_H 	H 	0.2543	0.4692	0.1621	0.051
Mof_H 	H 	0.201	0.3905	0.1415	0.065
Mof_H 	H 	0.9207	0.2308	0.6311	0.003
Mof_H 	H 	0.9908	0.2892	0.5858	0.003
Mof_H 	H 	0.8764	0.0551	0.3979	0.051
Mof_H 	H 	0.8196	0.0231	0.4179	0.042
Mof_H 	H 	0.7638	0.008	0.306	0.073
Mof_H 	H 	0.8071	0.0922	0.3379	0.052
Mof_H 	H 	0.749	0.0595	0.3585	0.066
Mof_H 	H 	0.2896	0.3689	0.5997	0.003
Mof_H 	H 	0.405	0.4142	0.7034	0.003
Mof_H 	H 	0.4785	0.6021	0.6572	0.05
Mof_H 	H 	0.4017	0.5821	0.6052	0.042
Mof_H 	H 	0.4578	0.694	0.702	0.073
Mof_H 	H 	0.4692	0.6621	0.7543	0.052
Mof_H 	H 	0.3905	0.6415	0.701	0.066
Mof_H 	H 	0.2308	0.1311	0.4207	0.003
Mof_H 	H 	0.2892	0.0858	0.4908	0.003
Mof_H 	H 	0.0551	0.8979	0.3764	0.051
Mof_H 	H 	0.0231	0.9179	0.3196	0.043
Mof_H 	H 	0.008	0.806	0.2638	0.073
Mof_H 	H 	0.0922	0.8379	0.3071	0.051
Mof_H 	H 	0.0595	0.8585	0.249	0.066
Mof_H 	H 	0.2692	0.6899	0.9003	0.003
Mof_H 	H 	0.2108	0.7016	0.7966	0.003
Mof_H 	H 	0.4449	0.8213	0.8428	0.05
Mof_H 	H 	0.4769	0.7965	0.8948	0.042
Mof_H 	H 	0.492	0.7558	0.798	0.073
Mof_H 	H 	0.4078	0.7149	0.7457	0.052
Mof_H 	H 	0.4405	0.6895	0.799	0.066
Mof_H 	H 	0.2104	0.8101	0.0793	0.003
Mof_H 	H 	0.095	0.7984	0.0092	0.004
Mof_H 	H 	0.0215	0.6787	0.1236	0.051
Mof_H 	H 	0.0983	0.7035	0.1804	0.042
Mof_H 	H 	0.0422	0.7442	0.2362	0.073
Mof_H 	H 	0.0308	0.7851	0.1929	0.053
Mof_H 	H 	0.1095	0.8105	0.251	0.066
Mof_H 	H 	0.8101	0.5793	0.7104	0.003
Mof_H 	H 	0.7984	0.5092	0.595	0.003
Mof_H 	H 	0.6787	0.6236	0.5215	0.05
Mof_H 	H 	0.7035	0.6804	0.5983	0.042
Mof_H 	H 	0.7442	0.7362	0.5422	0.073
Mof_H 	H 	0.7851	0.6929	0.5308	0.052
Mof_H 	H 	0.8105	0.751	0.6095	0.066
Mof_H 	H 	0.6899	0.4003	0.7692	0.003
Mof_H 	H 	0.7016	0.2966	0.7108	0.003
Mof_H 	H 	0.8213	0.3428	0.9449	0.051
Mof_H 	H 	0.7965	0.3948	0.9769	0.042
Mof_H 	H 	0.7558	0.298	0.992	0.073
Mof_H 	H 	0.7149	0.2457	0.9078	0.052
Mof_H 	H 	0.6895	0.299	0.9405	0.066
Mof_H 	H 	0.1311	0.9207	0.7308	0.003
Mof_H 	H 	0.0858	0.9908	0.7892	0.003
Mof_H 	H 	0.8979	0.8764	0.5551	0.05
Mof_H 	H 	0.9179	0.8196	0.5231	0.041
Mof_H 	H 	0.806	0.7638	0.508	0.073
Mof_H 	H 	0.8379	0.8071	0.5922	0.052
Mof_H 	H 	0.8585	0.749	0.5595	0.066
Mof_H 	H 	0.3689	0.0997	0.7896	0.003
Mof_H 	H 	0.4142	0.2034	0.905	0.003
Mof_H 	H 	0.6021	0.1572	0.9785	0.051
Mof_H 	H 	0.5821	0.1052	0.9017	0.042
Mof_H 	H 	0.694	0.202	0.9578	0.073
Mof_H 	H 	0.6621	0.2543	0.9692	0.052
Mof_H 	H 	0.6415	0.201	0.8905	0.066
Mof_H 	H 	0.7692	0.9003	0.6899	0.003
Mof_H 	H 	0.7108	0.7966	0.7016	0.003
Mof_H 	H 	0.9449	0.8428	0.8213	0.05
Mof_H 	H 	0.9769	0.8948	0.7965	0.042
Mof_H 	H 	0.992	0.798	0.7558	0.073
Mof_H 	H 	0.9078	0.7457	0.7149	0.052
Mof_H 	H 	0.9405	0.799	0.6895	0.066
Mof_H 	H 	0.7104	0.0793	0.8101	0.003
Mof_H 	H 	0.595	0.0092	0.7984	0.003
Mof_H 	H 	0.5215	0.1236	0.6787	0.05
Mof_H 	H 	0.5983	0.1804	0.7035	0.042
Mof_H 	H 	0.5422	0.2362	0.7442	0.073
Mof_H 	H 	0.5308	0.1929	0.7851	0.052
Mof_H 	H 	0.6095	0.251	0.8105	0.066
Mof_H 	H 	0.7896	0.5997	0.3689	0.003
Mof_H 	H 	0.905	0.7034	0.4142	0.002
Mof_H 	H 	0.9785	0.6572	0.6021	0.05
Mof_H 	H 	0.9017	0.6052	0.5821	0.042
Mof_H 	H 	0.9578	0.702	0.694	0.073
Mof_H 	H 	0.9692	0.7543	0.6621	0.052
Mof_H 	H 	0.8905	0.701	0.6415	0.066
Mof_H 	H 	0.7308	0.4207	0.1311	0.003
Mof_H 	H 	0.7892	0.4908	0.0858	0.003
Mof_H 	H 	0.5551	0.3764	0.8979	0.051
Mof_H 	H 	0.5231	0.3196	0.9179	0.042
Mof_H 	H 	0.508	0.2638	0.806	0.072
Mof_H 	H 	0.5922	0.3071	0.8379	0.051
Mof_H 	H 	0.5595	0.249	0.8585	0.066
Mof_H 	H 	0.8689	0.7896	0.0997	0.002
Mof_H 	H 	0.9142	0.905	0.2034	0.003
Mof_H 	H 	0.1021	0.9785	0.1572	0.052
Mof_H 	H 	0.0821	0.9017	0.1052	0.044
Mof_H 	H 	0.194	0.9578	0.202	0.072
Mof_H 	H 	0.1621	0.9692	0.2543	0.051
Mof_H 	H 	0.1415	0.8905	0.201	0.065
Mof_H 	H 	0.6311	0.7308	0.9207	0.003
Mof_H 	H 	0.5858	0.7892	0.9908	0.003
Mof_H 	H 	0.3979	0.5551	0.8764	0.05
Mof_H 	H 	0.4179	0.5231	0.8196	0.042
Mof_H 	H 	0.306	0.508	0.7638	0.073
Mof_H 	H 	0.3379	0.5922	0.8071	0.052
Mof_H 	H 	0.3585	0.5595	0.749	0.066
Mof_H 	H 	0.1899	0.7692	0.4003	0.003
Mof_H 	H 	0.2016	0.7108	0.2966	0.003
Mof_H 	H 	0.3213	0.9449	0.3428	0.05
Mof_H 	H 	0.2965	0.9769	0.3948	0.042
Mof_H 	H 	0.2558	0.992	0.298	0.073
Mof_H 	H 	0.2149	0.9078	0.2457	0.052
Mof_H 	H 	0.1895	0.9405	0.299	0.066
Mof_H 	H 	0.3101	0.7104	0.5793	0.003
Mof_H 	H 	0.2984	0.595	0.5092	0.003
Mof_H 	H 	0.1787	0.5215	0.6236	0.05
Mof_H 	H 	0.2035	0.5983	0.6804	0.042
Mof_H 	H 	0.2442	0.5422	0.7362	0.073
Mof_H 	H 	0.2851	0.5308	0.6929	0.052
Mof_H 	H 	0.3105	0.6095	0.751	0.066
Mof_H 	H 	0.0793	0.3101	0.2104	0.003
Mof_H 	H 	0.0092	0.2984	0.095	0.003
Mof_H 	H 	0.1236	0.1787	0.0215	0.051
Mof_H 	H 	0.1804	0.2035	0.0983	0.042
Mof_H 	H 	0.2362	0.2442	0.0422	0.073
Mof_H 	H 	0.1929	0.2851	0.0308	0.052
Mof_H 	H 	0.251	0.3105	0.1095	0.066
Mof_H 	H 	0.9003	0.1899	0.2692	0.003
Mof_H 	H 	0.7966	0.2016	0.2108	0.003
Mof_H 	H 	0.8428	0.3213	0.4449	0.05
Mof_H 	H 	0.8948	0.2965	0.4769	0.042
Mof_H 	H 	0.798	0.2558	0.492	0.073
Mof_H 	H 	0.7457	0.2149	0.4078	0.052
Mof_H 	H 	0.799	0.1895	0.4405	0.066
Mof_H 	H 	0.4207	0.6311	0.2308	0.003
Mof_H 	H 	0.4908	0.5858	0.2892	0.003
Mof_H 	H 	0.3764	0.3979	0.0551	0.05
Mof_H 	H 	0.3196	0.4179	0.0231	0.042
Mof_H 	H 	0.2638	0.306	0.008	0.073
Mof_H 	H 	0.3071	0.3379	0.0922	0.052
Mof_H 	H 	0.249	0.3585	0.0595	0.066
Mof_H 	H 	0.5997	0.8689	0.2896	0.003
Mof_H 	H 	0.7034	0.9142	0.405	0.003
Mof_H 	H 	0.6572	0.1021	0.4785	0.05
Mof_H 	H 	0.6052	0.0821	0.4017	0.042
Mof_H 	H 	0.702	0.194	0.4578	0.073
Mof_H 	H 	0.7543	0.1621	0.4692	0.052
Mof_H 	H 	0.701	0.1415	0.3905	0.066
Mof_H 	H 	0.5997	0.7308	0.8101	0.003
Mof_H 	H 	0.7034	0.7892	0.7984	0.003
Mof_H 	H 	0.6572	0.5551	0.6787	0.05
Mof_H 	H 	0.6052	0.5231	0.7035	0.042
Mof_H 	H 	0.702	0.508	0.7442	0.073
Mof_H 	H 	0.7543	0.5922	0.7851	0.052
Mof_H 	H 	0.701	0.5595	0.8105	0.066
Mof_H 	H 	0.4207	0.7896	0.6899	0.003
Mof_H 	H 	0.4908	0.905	0.7016	0.003
Mof_H 	H 	0.3764	0.9785	0.8213	0.05
Mof_H 	H 	0.3196	0.9017	0.7965	0.042
Mof_H 	H 	0.2638	0.9578	0.7558	0.073
Mof_H 	H 	0.3071	0.9692	0.7149	0.052
Mof_H 	H 	0.249	0.8905	0.6895	0.066
Mof_H 	H 	0.9003	0.7104	0.1311	0.002
Mof_H 	H 	0.7966	0.595	0.0858	0.003
Mof_H 	H 	0.8428	0.5215	0.8979	0.051
Mof_H 	H 	0.8948	0.5983	0.9179	0.043
Mof_H 	H 	0.798	0.5422	0.806	0.072
Mof_H 	H 	0.7457	0.5308	0.8379	0.051
Mof_H 	H 	0.799	0.6095	0.8585	0.065
Mof_H 	H 	0.0793	0.7692	0.3689	0.003
Mof_H 	H 	0.0092	0.7108	0.4142	0.003
Mof_H 	H 	0.1236	0.9449	0.6021	0.051
Mof_H 	H 	0.1804	0.9769	0.5821	0.042
Mof_H 	H 	0.2362	0.992	0.694	0.073
Mof_H 	H 	0.1929	0.9078	0.6621	0.052
Mof_H 	H 	0.251	0.9405	0.6415	0.066
Mof_H 	H 	0.7104	0.6311	0.4003	0.003
Mof_H 	H 	0.595	0.5858	0.2966	0.003
Mof_H 	H 	0.5215	0.3979	0.3428	0.05
Mof_H 	H 	0.5983	0.4179	0.3948	0.042
Mof_H 	H 	0.5422	0.306	0.298	0.073
Mof_H 	H 	0.5308	0.3379	0.2457	0.052
Mof_H 	H 	0.6095	0.3585	0.299	0.066
Mof_H 	H 	0.7692	0.8689	0.5793	0.003
Mof_H 	H 	0.7108	0.9142	0.5092	0.003
Mof_H 	H 	0.9449	0.1021	0.6236	0.051
Mof_H 	H 	0.9769	0.0821	0.6804	0.043
Mof_H 	H 	0.992	0.194	0.7362	0.073
Mof_H 	H 	0.9078	0.1621	0.6929	0.051
Mof_H 	H 	0.9405	0.1415	0.751	0.066
Mof_H 	H 	0.7308	0.3101	0.0997	0.003
Mof_H 	H 	0.7892	0.2984	0.2034	0.003
Mof_H 	H 	0.5551	0.1787	0.1572	0.05
Mof_H 	H 	0.5231	0.2035	0.1052	0.042
Mof_H 	H 	0.508	0.2442	0.202	0.073
Mof_H 	H 	0.5922	0.2851	0.2543	0.052
Mof_H 	H 	0.5595	0.3105	0.201	0.066
Mof_H 	H 	0.7896	0.1899	0.9207	0.003
Mof_H 	H 	0.905	0.2016	0.9908	0.004
Mof_H 	H 	0.9785	0.3213	0.8764	0.051
Mof_H 	H 	0.9017	0.2965	0.8196	0.042
Mof_H 	H 	0.9578	0.2558	0.7638	0.073
Mof_H 	H 	0.9692	0.2149	0.8071	0.053
Mof_H 	H 	0.8905	0.1895	0.749	0.066
Mof_H 	H 	0.1899	0.4207	0.2896	0.003
Mof_H 	H 	0.2016	0.4908	0.405	0.003
Mof_H 	H 	0.3213	0.3764	0.4785	0.05
Mof_H 	H 	0.2965	0.3196	0.4017	0.042
Mof_H 	H 	0.2558	0.2638	0.4578	0.073
Mof_H 	H 	0.2149	0.3071	0.4692	0.052
Mof_H 	H 	0.1895	0.249	0.3905	0.066
Mof_H 	H 	0.3101	0.5997	0.2308	0.003
Mof_H 	H 	0.2984	0.7034	0.2892	0.003
Mof_H 	H 	0.1787	0.6572	0.0551	0.051
Mof_H 	H 	0.2035	0.6052	0.0231	0.042
Mof_H 	H 	0.2442	0.702	0.008	0.073
Mof_H 	H 	0.2851	0.7543	0.0922	0.052
Mof_H 	H 	0.3105	0.701	0.0595	0.066
Mof_H 	H 	0.8689	0.0793	0.2692	0.003
Mof_H 	H 	0.9142	0.0092	0.2108	0.003
Mof_H 	H 	0.1021	0.1236	0.4449	0.05
Mof_H 	H 	0.0821	0.1804	0.4769	0.041
Mof_H 	H 	0.194	0.2362	0.492	0.073
Mof_H 	H 	0.1621	0.1929	0.4078	0.052
Mof_H 	H 	0.1415	0.251	0.4405	0.066
Mof_H 	H 	0.6311	0.9003	0.2104	0.003
Mof_H 	H 	0.5858	0.7966	0.095	0.003
Mof_H 	H 	0.3979	0.8428	0.0215	0.051
Mof_H 	H 	0.4179	0.8948	0.0983	0.042
Mof_H 	H 	0.306	0.798	0.0422	0.073
Mof_H 	H 	0.3379	0.7457	0.0308	0.052
Mof_H 	H 	0.3585	0.799	0.1095	0.066
Mof_C 	C 	0.20867	0.12355	0.29324	-0.012
Mof_C 	C 	0.24073	0.1804	0.28649	-0.014
Mof_C 	C 	0.13056	0.15283	0.25119	0.106
Mof_C 	C 	0.06149	0.15169	0.22008	-0.173
Mof_C 	C 	0.0547	0.207	0.2691	-0.211
Mof_C 	C 	0.33031	0.91543	0.20676	-0.012
Mof_C 	C 	0.39391	0.95424	0.21351	-0.013
Mof_C 	C 	0.40164	0.87937	0.24881	0.106
Mof_C 	C 	0.43161	0.84141	0.27992	-0.173
Mof_C 	C 	0.4379	0.7856	0.2309	-0.211
Mof_C 	C 	0.16969	0.37645	0.58512	-0.012
Mof_C 	C 	0.10609	0.3196	0.56033	-0.014
Mof_C 	C 	0.09836	0.34717	0.47773	0.106
Mof_C 	C 	0.06839	0.34831	0.4098	-0.173
Mof_C 	C 	0.0621	0.293	0.3477	-0.211
Mof_C 	C 	0.29133	0.58457	0.91488	-0.012
Mof_C 	C 	0.25927	0.54576	0.93967	-0.015
Mof_C 	C 	0.36944	0.62063	0.02227	0.107
Mof_C 	C 	0.43851	0.65859	0.0902	-0.174
Mof_C 	C 	0.4453	0.7144	0.1523	-0.21
Mof_C 	C 	0.08512	0.16969	0.87645	-0.011
Mof_C 	C 	0.06033	0.10609	0.8196	-0.018
Mof_C 	C 	0.97773	0.09836	0.84717	0.111
Mof_C 	C 	0.9098	0.06839	0.84831	-0.177
Mof_C 	C 	0.8477	0.0621	0.793	-0.207
Mof_C 	C 	0.41488	0.29133	0.08457	-0.012
Mof_C 	C 	0.43967	0.25927	0.04576	-0.013
Mof_C 	C 	0.52227	0.36944	0.12063	0.106
Mof_C 	C 	0.5902	0.43851	0.15859	-0.173
Mof_C 	C 	0.6523	0.4453	0.2144	-0.211
Mof_C 	C 	0.79324	0.20867	0.62355	-0.012
Mof_C 	C 	0.78649	0.24073	0.6804	-0.014
Mof_C 	C 	0.75119	0.13056	0.65283	0.106
Mof_C 	C 	0.72008	0.06149	0.65169	-0.172
Mof_C 	C 	0.7691	0.0547	0.707	-0.212
Mof_C 	C 	0.70676	0.33031	0.41543	-0.012
Mof_C 	C 	0.71351	0.39391	0.45424	-0.014
Mof_C 	C 	0.74881	0.40164	0.37937	0.106
Mof_C 	C 	0.77992	0.43161	0.34141	-0.173
Mof_C 	C 	0.7309	0.4379	0.2856	-0.211
Mof_C 	C 	0.91543	0.70676	0.83031	-0.012
Mof_C 	C 	0.95424	0.71351	0.89391	-0.014
Mof_C 	C 	0.87937	0.74881	0.90164	0.106
Mof_C 	C 	0.84141	0.77992	0.93161	-0.173
Mof_C 	C 	0.7856	0.7309	0.9379	-0.212
Mof_C 	C 	0.12355	0.79324	0.70867	-0.012
Mof_C 	C 	0.1804	0.78649	0.74073	-0.014
Mof_C 	C 	0.15283	0.75119	0.63056	0.106
Mof_C 	C 	0.15169	0.72008	0.56149	-0.173
Mof_C 	C 	0.207	0.7691	0.5547	-0.211
Mof_C 	C 	0.58457	0.41488	0.79133	-0.012
Mof_C 	C 	0.54576	0.43967	0.75927	-0.014
Mof_C 	C 	0.62063	0.52227	0.86944	0.107
Mof_C 	C 	0.65859	0.5902	0.93851	-0.173
Mof_C 	C 	0.7144	0.6523	0.9453	-0.211
Mof_C 	C 	0.37645	0.08512	0.66969	-0.012
Mof_C 	C 	0.3196	0.06033	0.60609	-0.014
Mof_C 	C 	0.34717	0.97773	0.59836	0.107
Mof_C 	C 	0.34831	0.9098	0.56839	-0.173
Mof_C 	C 	0.293	0.8477	0.5621	-0.211
Mof_C 	C 	0.37645	0.29133	0.20676	-0.012
Mof_C 	C 	0.3196	0.25927	0.21351	-0.013
Mof_C 	C 	0.34717	0.36944	0.24881	0.106
Mof_C 	C 	0.34831	0.43851	0.27992	-0.173
Mof_C 	C 	0.293	0.4453	0.2309	-0.212
Mof_C 	C 	0.58457	0.16969	0.29324	-0.012
Mof_C 	C 	0.54576	0.10609	0.28649	-0.014
Mof_C 	C 	0.62063	0.09836	0.25119	0.106
Mof_C 	C 	0.65859	0.06839	0.22008	-0.173
Mof_C 	C 	0.7144	0.0621	0.2691	-0.211
Mof_C 	C 	0.12355	0.33031	0.91488	-0.012
Mof_C 	C 	0.1804	0.39391	0.93967	-0.016
Mof_C 	C 	0.15283	0.40164	0.02227	0.109
Mof_C 	C 	0.15169	0.43161	0.0902	-0.175
Mof_C 	C 	0.207	0.4379	0.1523	-0.209
Mof_C 	C 	0.91543	0.20867	0.58512	-0.012
Mof_C 	C 	0.95424	0.24073	0.56033	-0.013
Mof_C 	C 	0.87937	0.13056	0.47773	0.107
Mof_C 	C 	0.84141	0.06149	0.4098	-0.173
Mof_C 	C 	0.7856	0.0547	0.3477	-0.211
Mof_C 	C 	0.33031	0.41488	0.62355	-0.012
Mof_C 	C 	0.39391	0.43967	0.6804	-0.014
Mof_C 	C 	0.40164	0.52227	0.65283	0.106
Mof_C 	C 	0.43161	0.5902	0.65169	-0.173
Mof_C 	C 	0.4379	0.6523	0.707	-0.211
Mof_C 	C 	0.20867	0.08512	0.41543	-0.012
Mof_C 	C 	0.24073	0.06033	0.45424	-0.015
Mof_C 	C 	0.13056	0.97773	0.37937	0.108
Mof_C 	C 	0.06149	0.9098	0.34141	-0.175
Mof_C 	C 	0.0547	0.8477	0.2856	-0.21
Mof_C 	C 	0.29133	0.70676	0.87645	-0.012
Mof_C 	C 	0.25927	0.71351	0.8196	-0.014
Mof_C 	C 	0.36944	0.74881	0.84717	0.106
Mof_C 	C 	0.43851	0.77992	0.84831	-0.173
Mof_C 	C 	0.4453	0.7309	0.793	-0.211
Mof_C 	C 	0.16969	0.79324	0.08457	-0.012
Mof_C 	C 	0.10609	0.78649	0.04576	-0.013
Mof_C 	C 	0.09836	0.75119	0.12063	0.107
Mof_C 	C 	0.06839	0.72008	0.15859	-0.173
Mof_C 	C 	0.0621	0.7691	0.2144	-0.212
Mof_C 	C 	0.79324	0.58457	0.66969	-0.012
Mof_C 	C 	0.78649	0.54576	0.60609	-0.014
Mof_C 	C 	0.75119	0.62063	0.59836	0.106
Mof_C 	C 	0.72008	0.65859	0.56839	-0.173
Mof_C 	C 	0.7691	0.7144	0.5621	-0.211
Mof_C 	C 	0.70676	0.37645	0.79133	-0.012
Mof_C 	C 	0.71351	0.3196	0.75927	-0.013
Mof_C 	C 	0.74881	0.34717	0.86944	0.107
Mof_C 	C 	0.77992	0.34831	0.93851	-0.173
Mof_C 	C 	0.7309	0.293	0.9453	-0.211
Mof_C 	C 	0.08512	0.91543	0.70867	-0.012
Mof_C 	C 	0.06033	0.95424	0.74073	-0.013
Mof_C 	C 	0.97773	0.87937	0.63056	0.106
Mof_C 	C 	0.9098	0.84141	0.56149	-0.172
Mof_C 	C 	0.8477	0.7856	0.5547	-0.212
Mof_C 	C 	0.41488	0.12355	0.83031	-0.012
Mof_C 	C 	0.43967	0.1804	0.89391	-0.014
Mof_C 	C 	0.52227	0.15283	0.90164	0.106
Mof_C 	C 	0.5902	0.15169	0.93161	-0.173
Mof_C 	C 	0.6523	0.207	0.9379	-0.211
Mof_C 	C 	0.79133	0.87645	0.70676	-0.012
Mof_C 	C 	0.75927	0.8196	0.71351	-0.014
Mof_C 	C 	0.86944	0.84717	0.74881	0.106
Mof_C 	C 	0.93851	0.84831	0.77992	-0.173
Mof_C 	C 	0.9453	0.793	0.7309	-0.211
Mof_C 	C 	0.66969	0.08457	0.79324	-0.012
Mof_C 	C 	0.60609	0.04576	0.78649	-0.013
Mof_C 	C 	0.59836	0.12063	0.75119	0.106
Mof_C 	C 	0.56839	0.15859	0.72008	-0.173
Mof_C 	C 	0.5621	0.2144	0.7691	-0.211
Mof_C 	C 	0.83031	0.62355	0.41488	-0.012
Mof_C 	C 	0.89391	0.6804	0.43967	-0.014
Mof_C 	C 	0.90164	0.65283	0.52227	0.106
Mof_C 	C 	0.93161	0.65169	0.5902	-0.173
Mof_C 	C 	0.9379	0.707	0.6523	-0.211
Mof_C 	C 	0.70867	0.41543	0.08512	-0.012
Mof_C 	C 	0.74073	0.45424	0.06033	-0.015
Mof_C 	C 	0.63056	0.37937	0.97773	0.107
Mof_C 	C 	0.56149	0.34141	0.9098	-0.174
Mof_C 	C 	0.5547	0.2856	0.8477	-0.21
Mof_C 	C 	0.91488	0.83031	0.12355	-0.011
Mof_C 	C 	0.93967	0.89391	0.1804	-0.018
Mof_C 	C 	0.02227	0.90164	0.15283	0.111
Mof_C 	C 	0.0902	0.93161	0.15169	-0.177
Mof_C 	C 	0.1523	0.9379	0.207	-0.207
Mof_C 	C 	0.58512	0.70867	0.91543	-0.012
Mof_C 	C 	0.56033	0.74073	0.95424	-0.013
Mof_C 	C 	0.47773	0.63056	0.87937	0.106
Mof_C 	C 	0.4098	0.56149	0.84141	-0.173
Mof_C 	C 	0.3477	0.5547	0.7856	-0.211
Mof_C 	C 	0.20676	0.79133	0.37645	-0.012
Mof_C 	C 	0.21351	0.75927	0.3196	-0.014
Mof_C 	C 	0.24881	0.86944	0.34717	0.106
Mof_C 	C 	0.27992	0.93851	0.34831	-0.172
Mof_C 	C 	0.2309	0.9453	0.293	-0.212
Mof_C 	C 	0.29324	0.66969	0.58457	-0.012
Mof_C 	C 	0.28649	0.60609	0.54576	-0.014
Mof_C 	C 	0.25119	0.59836	0.62063	0.106
Mof_C 	C 	0.22008	0.56839	0.65859	-0.173
Mof_C 	C 	0.2691	0.5621	0.7144	-0.211
Mof_C 	C 	0.08457	0.29324	0.16969	-0.012
Mof_C 	C 	0.04576	0.28649	0.10609	-0.014
Mof_C 	C 	0.12063	0.25119	0.09836	0.106
Mof_C 	C 	0.15859	0.22008	0.06839	-0.173
Mof_C 	C 	0.2144	0.2691	0.0621	-0.212
Mof_C 	C 	0.87645	0.20676	0.29133	-0.012
Mof_C 	C 	0.8196	0.21351	0.25927	-0.014
Mof_C 	C 	0.84717	0.24881	0.36944	0.106
Mof_C 	C 	0.84831	0.27992	0.43851	-0.173
Mof_C 	C 	0.793	0.2309	0.4453	-0.211
Mof_C 	C 	0.41543	0.58512	0.20867	-0.012
Mof_C 	C 	0.45424	0.56033	0.24073	-0.014
Mof_C 	C 	0.37937	0.47773	0.13056	0.107
Mof_C 	C 	0.34141	0.4098	0.06149	-0.173
Mof_C 	C 	0.2856	0.3477	0.0547	-0.211
Mof_C 	C 	0.62355	0.91488	0.33031	-0.012
Mof_C 	C 	0.6804	0.93967	0.39391	-0.014
Mof_C 	C 	0.65283	0.02227	0.40164	0.107
Mof_C 	C 	0.65169	0.0902	0.43161	-0.173
Mof_C 	C 	0.707	0.1523	0.4379	-0.211
Mof_C 	C 	0.62355	0.70867	0.79324	-0.012
Mof_C 	C 	0.6804	0.74073	0.78649	-0.013
Mof_C 	C 	0.65283	0.63056	0.75119	0.106
Mof_C 	C 	0.65169	0.56149	0.72008	-0.173
Mof_C 	C 	0.707	0.5547	0.7691	-0.212
Mof_C 	C 	0.41543	0.83031	0.70676	-0.012
Mof_C 	C 	0.45424	0.89391	0.71351	-0.014
Mof_C 	C 	0.37937	0.90164	0.74881	0.106
Mof_C 	C 	0.34141	0.93161	0.77992	-0.173
Mof_C 	C 	0.2856	0.9379	0.7309	-0.211
Mof_C 	C 	0.87645	0.66969	0.08512	-0.012
Mof_C 	C 	0.8196	0.60609	0.06033	-0.016
Mof_C 	C 	0.84717	0.59836	0.97773	0.109
Mof_C 	C 	0.84831	0.56839	0.9098	-0.175
Mof_C 	C 	0.793	0.5621	0.8477	-0.209
Mof_C 	C 	0.08457	0.79133	0.41488	-0.012
Mof_C 	C 	0.04576	0.75927	0.43967	-0.013
Mof_C 	C 	0.12063	0.86944	0.52227	0.107
Mof_C 	C 	0.15859	0.93851	0.5902	-0.173
Mof_C 	C 	0.2144	0.9453	0.6523	-0.211
Mof_C 	C 	0.66969	0.58512	0.37645	-0.012
Mof_C 	C 	0.60609	0.56033	0.3196	-0.014
Mof_C 	C 	0.59836	0.47773	0.34717	0.106
Mof_C 	C 	0.56839	0.4098	0.34831	-0.173
Mof_C 	C 	0.5621	0.3477	0.293	-0.211
Mof_C 	C 	0.79133	0.91488	0.58457	-0.012
Mof_C 	C 	0.75927	0.93967	0.54576	-0.015
Mof_C 	C 	0.86944	0.02227	0.62063	0.108
Mof_C 	C 	0.93851	0.0902	0.65859	-0.175
Mof_C 	C 	0.9453	0.1523	0.7144	-0.21
Mof_C 	C 	0.70867	0.29324	0.12355	-0.012
Mof_C 	C 	0.74073	0.28649	0.1804	-0.014
Mof_C 	C 	0.63056	0.25119	0.15283	0.106
Mof_C 	C 	0.56149	0.22008	0.15169	-0.173
Mof_C 	C 	0.5547	0.2691	0.207	-0.211
Mof_C 	C 	0.83031	0.20676	0.91543	-0.012
Mof_C 	C 	0.89391	0.21351	0.95424	-0.013
Mof_C 	C 	0.90164	0.24881	0.87937	0.107
Mof_C 	C 	0.93161	0.27992	0.84141	-0.173
Mof_C 	C 	0.9379	0.2309	0.7856	-0.212
Mof_C 	C 	0.20676	0.41543	0.33031	-0.012
Mof_C 	C 	0.21351	0.45424	0.39391	-0.014
Mof_C 	C 	0.24881	0.37937	0.40164	0.106
Mof_C 	C 	0.27992	0.34141	0.43161	-0.173
Mof_C 	C 	0.2309	0.2856	0.4379	-0.211
Mof_C 	C 	0.29324	0.62355	0.20867	-0.012
Mof_C 	C 	0.28649	0.6804	0.24073	-0.013
Mof_C 	C 	0.25119	0.65283	0.13056	0.107
Mof_C 	C 	0.22008	0.65169	0.06149	-0.173
Mof_C 	C 	0.2691	0.707	0.0547	-0.211
Mof_C 	C 	0.91488	0.08457	0.29133	-0.012
Mof_C 	C 	0.93967	0.04576	0.25927	-0.013
Mof_C 	C 	0.02227	0.12063	0.36944	0.106
Mof_C 	C 	0.0902	0.15859	0.43851	-0.172
Mof_C 	C 	0.1523	0.2144	0.4453	-0.212
Mof_C 	C 	0.58512	0.87645	0.16969	-0.012
Mof_C 	C 	0.56033	0.8196	0.10609	-0.014
Mof_C 	C 	0.47773	0.84717	0.09836	0.106
Mof_C 	C 	0.4098	0.84831	0.06839	-0.173
Mof_C 	C 	0.3477	0.793	0.0621	-0.211
Mof_N 	N 	0.13855	0.10612	0.27155	-0.284
Mof_N 	N 	0.19097	0.19908	0.25943	-0.286
Mof_N 	N 	0.33457	0.867	0.22845	-0.284
Mof_N 	N 	0.43965	0.93154	0.24057	-0.286
Mof_N 	N 	0.16543	0.39388	0.53243	-0.284
Mof_N 	N 	0.06035	0.30092	0.49189	-0.287
Mof_N 	N 	0.36145	0.633	0.96757	-0.285
Mof_N 	N 	0.30903	0.56846	0.00811	-0.286
Mof_N 	N 	0.03243	0.16543	0.89388	-0.287
Mof_N 	N 	0.99189	0.06035	0.80092	-0.285
Mof_N 	N 	0.46757	0.36145	0.133	-0.284
Mof_N 	N 	0.50811	0.30903	0.06846	-0.286
Mof_N 	N 	0.77155	0.13855	0.60612	-0.284
Mof_N 	N 	0.75943	0.19097	0.69908	-0.286
Mof_N 	N 	0.72845	0.33457	0.367	-0.284
Mof_N 	N 	0.74057	0.43965	0.43154	-0.286
Mof_N 	N 	0.867	0.72845	0.83457	-0.284
Mof_N 	N 	0.93154	0.74057	0.93965	-0.286
Mof_N 	N 	0.10612	0.77155	0.63855	-0.284
Mof_N 	N 	0.19908	0.75943	0.69097	-0.286
Mof_N 	N 	0.633	0.46757	0.86145	-0.284
Mof_N 	N 	0.56846	0.50811	0.80903	-0.286
Mof_N 	N 	0.39388	0.03243	0.66543	-0.284
Mof_N 	N 	0.30092	0.99189	0.56035	-0.286
Mof_N 	N 	0.39388	0.36145	0.22845	-0.284
Mof_N 	N 	0.30092	0.30903	0.24057	-0.286
Mof_N 	N 	0.633	0.16543	0.27155	-0.284
Mof_N 	N 	0.56846	0.06035	0.25943	-0.286
Mof_N 	N 	0.10612	0.33457	0.96757	-0.286
Mof_N 	N 	0.19908	0.43965	0.00811	-0.286
Mof_N 	N 	0.867	0.13855	0.53243	-0.284
Mof_N 	N 	0.93154	0.19097	0.49189	-0.286
Mof_N 	N 	0.33457	0.46757	0.60612	-0.284
Mof_N 	N 	0.43965	0.50811	0.69908	-0.286
Mof_N 	N 	0.13855	0.03243	0.367	-0.285
Mof_N 	N 	0.19097	0.99189	0.43154	-0.286
Mof_N 	N 	0.36145	0.72845	0.89388	-0.284
Mof_N 	N 	0.30903	0.74057	0.80092	-0.286
Mof_N 	N 	0.16543	0.77155	0.133	-0.284
Mof_N 	N 	0.06035	0.75943	0.06846	-0.286
Mof_N 	N 	0.77155	0.633	0.66543	-0.284
Mof_N 	N 	0.75943	0.56846	0.56035	-0.286
Mof_N 	N 	0.72845	0.39388	0.86145	-0.284
Mof_N 	N 	0.74057	0.30092	0.80903	-0.286
Mof_N 	N 	0.03243	0.867	0.63855	-0.283
Mof_N 	N 	0.99189	0.93154	0.69097	-0.286
Mof_N 	N 	0.46757	0.10612	0.83457	-0.284
Mof_N 	N 	0.50811	0.19908	0.93965	-0.286
Mof_N 	N 	0.86145	0.89388	0.72845	-0.284
Mof_N 	N 	0.80903	0.80092	0.74057	-0.286
Mof_N 	N 	0.66543	0.133	0.77155	-0.284
Mof_N 	N 	0.56035	0.06846	0.75943	-0.286
Mof_N 	N 	0.83457	0.60612	0.46757	-0.284
Mof_N 	N 	0.93965	0.69908	0.50811	-0.287
Mof_N 	N 	0.63855	0.367	0.03243	-0.285
Mof_N 	N 	0.69097	0.43154	0.99189	-0.286
Mof_N 	N 	0.96757	0.83457	0.10612	-0.287
Mof_N 	N 	0.00811	0.93965	0.19908	-0.285
Mof_N 	N 	0.53243	0.63855	0.867	-0.284
Mof_N 	N 	0.49189	0.69097	0.93154	-0.286
Mof_N 	N 	0.22845	0.86145	0.39388	-0.284
Mof_N 	N 	0.24057	0.80903	0.30092	-0.286
Mof_N 	N 	0.27155	0.66543	0.633	-0.284
Mof_N 	N 	0.25943	0.56035	0.56846	-0.286
Mof_N 	N 	0.133	0.27155	0.16543	-0.284
Mof_N 	N 	0.06846	0.25943	0.06035	-0.286
Mof_N 	N 	0.89388	0.22845	0.36145	-0.284
Mof_N 	N 	0.80092	0.24057	0.30903	-0.286
Mof_N 	N 	0.367	0.53243	0.13855	-0.284
Mof_N 	N 	0.43154	0.49189	0.19097	-0.286
Mof_N 	N 	0.60612	0.96757	0.33457	-0.284
Mof_N 	N 	0.69908	0.00811	0.43965	-0.286
Mof_N 	N 	0.60612	0.63855	0.77155	-0.284
Mof_N 	N 	0.69908	0.69097	0.75943	-0.286
Mof_N 	N 	0.367	0.83457	0.72845	-0.284
Mof_N 	N 	0.43154	0.93965	0.74057	-0.286
Mof_N 	N 	0.89388	0.66543	0.03243	-0.286
Mof_N 	N 	0.80092	0.56035	0.99189	-0.286
Mof_N 	N 	0.133	0.86145	0.46757	-0.284
Mof_N 	N 	0.06846	0.80903	0.50811	-0.286
Mof_N 	N 	0.66543	0.53243	0.39388	-0.284
Mof_N 	N 	0.56035	0.49189	0.30092	-0.286
Mof_N 	N 	0.86145	0.96757	0.633	-0.285
Mof_N 	N 	0.80903	0.00811	0.56846	-0.286
Mof_N 	N 	0.63855	0.27155	0.10612	-0.284
Mof_N 	N 	0.69097	0.25943	0.19908	-0.286
Mof_N 	N 	0.83457	0.22845	0.867	-0.284
Mof_N 	N 	0.93965	0.24057	0.93154	-0.286
Mof_N 	N 	0.22845	0.367	0.33457	-0.284
Mof_N 	N 	0.24057	0.43154	0.43965	-0.286
Mof_N 	N 	0.27155	0.60612	0.13855	-0.284
Mof_N 	N 	0.25943	0.69908	0.19097	-0.286
Mof_N 	N 	0.96757	0.133	0.36145	-0.283
Mof_N 	N 	0.00811	0.06846	0.30903	-0.286
Mof_N 	N 	0.53243	0.89388	0.16543	-0.284
Mof_N 	N 	0.49189	0.80092	0.06035	-0.286
_end
