data_functionalizedCrystal
_audit_creation_method	'EQeq! by Chris Wilmer'
_symmetry_space_group_name_H-M	'P1'
_symmetry_Int_Tables_number	1
_symmetry_cell_setting	triclinic
loop_
_symmetry_equiv_pos_as_xyz
  x,y,z
_cell_length_a	29.8427
_cell_length_b	29.8427
_cell_length_c	29.8427
_cell_angle_alpha	90
_cell_angle_beta	90
_cell_angle_gamma	90
loop_
_atom_site_label
_atom_site_type_symbol
_atom_site_fract_x
_atom_site_fract_y
_atom_site_fract_z
_atom_site_charge
Mof_Ni	Ni	0.05843	0.31764	0.31764	1.115
Mof_O 	O 	0.08774	0.25458	0.32343	-0.394
Mof_O 	O 	0.03708	0.38376	0.31356	-0.421
Mof_O 	O 	0.03707	0.3132	0.38389	-0.465
Mof_N 	N 	0.1212	0.344	0.338	-0.224
Mof_O 	O 	0.0877	0.3233	0.25471	-0.392
Mof_C 	C 	0.08098	0.21877	0.30243	0.37
Mof_C 	C 	0.1361	0.3782	0.3133	0.537
Mof_C 	C 	0.1503	0.3227	0.3636	-0.819
Mof_C 	C 	0.08109	0.30272	0.21897	0.374
Mof_O 	O 	0.0478	0.20983	0.27841	-0.423
Mof_O 	O 	0.04762	0.27835	0.20973	-0.419
Mof_C 	C 	0.11663	0.18271	0.30434	-0.056
Mof_H 	H 	0.1174	0.3908	0.2918	-0.129
Mof_C 	C 	0.1776	0.3947	0.3188	-0.032
Mof_C 	C 	0.1899	0.3418	0.3731	-0.927
Mof_H 	H 	0.1433	0.2945	0.375	-0.542
Mof_C 	C 	0.11634	0.30413	0.18276	-0.08
Mof_C 	C 	0.15651	0.18895	0.326	-0.032
Mof_C 	C 	0.11053	0.14283	0.283	-0.029
Mof_C 	C 	0.03899	0.4767	0.3127	-0.011
Mof_C 	C 	0.03912	0.3121	0.47679	-0.002
Mof_C 	C 	0.2017	0.3793	0.3538	0.441
Mof_C 	C 	0.1948	0.4296	0.2882	0.319
Mof_H 	H 	0.2091	0.3282	0.3935	0.044
Mof_C 	C 	0.15613	0.3266	0.1888	0.005
Mof_C 	C 	0.11062	0.2835	0.14283	-0.003
Mof_H 	H 	0.1619	0.2159	0.3407	0.09
Mof_H 	H 	0.0838	0.1375	0.2679	0.051
Mof_H 	H 	0.0662	0.4615	0.3132	0.053
Mof_H 	H 	0.0663	0.3123	0.4616	0.016
Mof_H 	H 	0.2264	0.3952	0.3641	-0.189
Mof_O 	O 	0.2293	0.4506	0.2991	-0.388
Mof_O 	O 	0.1676	0.4477	0.2618	-0.246
Mof_H 	H 	0.1609	0.3425	0.2152	0.062
Mof_H 	H 	0.0836	0.2691	0.1372	0.042
Mof_N 	N 	0.1188	0.3408	0.3447	0.015
Mof_C 	C 	0.1351	0.3152	0.3783	1.511
Mof_C 	C 	0.1772	0.3208	0.3951	0.209
Mof_C 	C 	0.201	0.3576	0.3804	0.794
Mof_C 	C 	0.1892	0.3763	0.3413	-0.339
Mof_C 	C 	0.148	0.3682	0.3231	-0.247
Mof_C 	C 	0.1944	0.2906	0.4325	0.253
Mof_O 	O 	0.2296	0.299	0.4505	-0.408
Mof_O 	O 	0.17	0.2618	0.4467	-0.26
Mof_Ni	Ni	0.94157	0.68236	0.31764	1.119
Mof_O 	O 	0.91226	0.74542	0.32343	-0.389
Mof_O 	O 	0.96292	0.61624	0.31356	-0.402
Mof_O 	O 	0.96293	0.6868	0.38389	-0.445
Mof_N 	N 	0.8788	0.656	0.338	-0.221
Mof_O 	O 	0.9123	0.6767	0.25471	-0.388
Mof_C 	C 	0.91902	0.78123	0.30243	0.369
Mof_C 	C 	0.8639	0.6218	0.3133	0.531
Mof_C 	C 	0.8497	0.6773	0.3636	-0.803
Mof_C 	C 	0.91891	0.69728	0.21897	0.372
Mof_O 	O 	0.9522	0.79017	0.27841	-0.404
Mof_O 	O 	0.95238	0.72165	0.20973	-0.401
Mof_C 	C 	0.88337	0.81729	0.30434	-0.05
Mof_H 	H 	0.8826	0.6092	0.2918	-0.125
Mof_C 	C 	0.8224	0.6053	0.3188	-0.033
Mof_C 	C 	0.8101	0.6582	0.3731	-0.913
Mof_H 	H 	0.8567	0.7055	0.375	-0.532
Mof_C 	C 	0.88366	0.69587	0.18276	-0.073
Mof_C 	C 	0.84349	0.81105	0.326	-0.031
Mof_C 	C 	0.88947	0.85717	0.283	-0.027
Mof_C 	C 	0.96101	0.5233	0.3127	0.011
Mof_C 	C 	0.96088	0.6879	0.47679	0.02
Mof_C 	C 	0.7983	0.6207	0.3538	0.436
Mof_C 	C 	0.8052	0.5704	0.2882	0.319
Mof_H 	H 	0.7909	0.6718	0.3935	0.045
Mof_C 	C 	0.84387	0.6734	0.1888	0.003
Mof_C 	C 	0.88938	0.7165	0.14283	-0.005
Mof_H 	H 	0.8381	0.7841	0.3407	0.09
Mof_H 	H 	0.9162	0.8625	0.2679	0.061
Mof_H 	H 	0.9338	0.5385	0.3132	0.05
Mof_H 	H 	0.9337	0.6877	0.4616	0.014
Mof_H 	H 	0.7736	0.6048	0.3641	-0.186
Mof_O 	O 	0.7707	0.5494	0.2991	-0.388
Mof_O 	O 	0.8324	0.5523	0.2618	-0.243
Mof_H 	H 	0.8391	0.6575	0.2152	0.064
Mof_H 	H 	0.9164	0.7309	0.1372	0.051
Mof_N 	N 	0.8812	0.6592	0.3447	0.013
Mof_C 	C 	0.8649	0.6848	0.3783	1.487
Mof_C 	C 	0.8228	0.6792	0.3951	0.204
Mof_C 	C 	0.799	0.6424	0.3804	0.781
Mof_C 	C 	0.8108	0.6237	0.3413	-0.335
Mof_C 	C 	0.852	0.6318	0.3231	-0.245
Mof_C 	C 	0.8056	0.7094	0.4325	0.254
Mof_O 	O 	0.7704	0.701	0.4505	-0.407
Mof_O 	O 	0.83	0.7382	0.4467	-0.256
Mof_Ni	Ni	0.94157	0.31764	0.68236	1.119
Mof_O 	O 	0.91226	0.25458	0.67657	-0.389
Mof_O 	O 	0.96292	0.38376	0.68644	-0.402
Mof_O 	O 	0.96293	0.3132	0.61611	-0.445
Mof_N 	N 	0.8788	0.344	0.662	-0.222
Mof_O 	O 	0.9123	0.3233	0.74529	-0.387
Mof_C 	C 	0.91902	0.21877	0.69757	0.367
Mof_C 	C 	0.8639	0.3782	0.6867	0.531
Mof_C 	C 	0.8497	0.3227	0.6364	-0.804
Mof_C 	C 	0.91891	0.30272	0.78103	0.373
Mof_O 	O 	0.9522	0.20983	0.72159	-0.405
Mof_O 	O 	0.95238	0.27835	0.79027	-0.4
Mof_C 	C 	0.88337	0.18271	0.69566	-0.049
Mof_H 	H 	0.8826	0.3908	0.7082	-0.125
Mof_C 	C 	0.8224	0.3947	0.6812	-0.032
Mof_C 	C 	0.8101	0.3418	0.6269	-0.914
Mof_H 	H 	0.8567	0.2945	0.625	-0.533
Mof_C 	C 	0.88366	0.30413	0.81724	-0.074
Mof_C 	C 	0.84349	0.18895	0.674	-0.034
Mof_C 	C 	0.88947	0.14283	0.717	-0.032
Mof_C 	C 	0.96101	0.4767	0.6873	0.012
Mof_C 	C 	0.96088	0.3121	0.52321	0.02
Mof_C 	C 	0.7983	0.3793	0.6462	0.436
Mof_C 	C 	0.8052	0.4296	0.7118	0.319
Mof_H 	H 	0.7909	0.3282	0.6065	0.045
Mof_C 	C 	0.84387	0.3266	0.8112	0.006
Mof_C 	C 	0.88938	0.2835	0.85717	-0.001
Mof_H 	H 	0.8381	0.2159	0.6593	0.091
Mof_H 	H 	0.9162	0.1375	0.7321	0.06
Mof_H 	H 	0.9338	0.4615	0.6868	0.05
Mof_H 	H 	0.9337	0.3123	0.5384	0.014
Mof_H 	H 	0.7736	0.3952	0.6359	-0.186
Mof_O 	O 	0.7707	0.4506	0.7009	-0.388
Mof_O 	O 	0.8324	0.4477	0.7382	-0.242
Mof_H 	H 	0.8391	0.3425	0.7848	0.063
Mof_H 	H 	0.9164	0.2691	0.8628	0.053
Mof_N 	N 	0.8812	0.3408	0.6553	0.013
Mof_C 	C 	0.8649	0.3152	0.6217	1.488
Mof_C 	C 	0.8228	0.3208	0.6049	0.204
Mof_C 	C 	0.799	0.3576	0.6196	0.782
Mof_C 	C 	0.8108	0.3763	0.6587	-0.335
Mof_C 	C 	0.852	0.3682	0.6769	-0.245
Mof_C 	C 	0.8056	0.2906	0.5675	0.255
Mof_O 	O 	0.7704	0.299	0.5495	-0.408
Mof_O 	O 	0.83	0.2618	0.5533	-0.257
Mof_Ni	Ni	0.05843	0.68236	0.68236	1.115
Mof_O 	O 	0.08774	0.74542	0.67657	-0.394
Mof_O 	O 	0.03708	0.61624	0.68644	-0.422
Mof_O 	O 	0.03707	0.6868	0.61611	-0.465
Mof_N 	N 	0.1212	0.656	0.662	-0.224
Mof_O 	O 	0.0877	0.6767	0.74529	-0.392
Mof_C 	C 	0.08098	0.78123	0.69757	0.371
Mof_C 	C 	0.1361	0.6218	0.6867	0.537
Mof_C 	C 	0.1503	0.6773	0.6364	-0.819
Mof_C 	C 	0.08109	0.69728	0.78103	0.375
Mof_O 	O 	0.0478	0.79017	0.72159	-0.42
Mof_O 	O 	0.04762	0.72165	0.79027	-0.416
Mof_C 	C 	0.11663	0.81729	0.69566	-0.056
Mof_H 	H 	0.1174	0.6092	0.7082	-0.128
Mof_C 	C 	0.1776	0.6053	0.6812	-0.032
Mof_C 	C 	0.1899	0.6582	0.6269	-0.926
Mof_H 	H 	0.1433	0.7055	0.625	-0.541
Mof_C 	C 	0.11634	0.69587	0.81724	-0.08
Mof_C 	C 	0.15651	0.81105	0.674	-0.028
Mof_C 	C 	0.11053	0.85717	0.717	-0.024
Mof_C 	C 	0.03899	0.5233	0.6873	-0.011
Mof_C 	C 	0.03912	0.6879	0.52321	-0.002
Mof_C 	C 	0.2017	0.6207	0.6462	0.441
Mof_C 	C 	0.1948	0.5704	0.7118	0.319
Mof_H 	H 	0.2091	0.6718	0.6065	0.044
Mof_C 	C 	0.15613	0.6734	0.8112	0.009
Mof_C 	C 	0.11062	0.7165	0.85717	0.002
Mof_H 	H 	0.1619	0.7841	0.6593	0.089
Mof_H 	H 	0.0838	0.8625	0.7321	0.054
Mof_H 	H 	0.0662	0.5385	0.6868	0.053
Mof_H 	H 	0.0663	0.6877	0.5384	0.017
Mof_H 	H 	0.2264	0.6048	0.6359	-0.189
Mof_O 	O 	0.2293	0.5494	0.7009	-0.388
Mof_O 	O 	0.1676	0.5523	0.7382	-0.244
Mof_H 	H 	0.1609	0.6575	0.7848	0.062
Mof_H 	H 	0.0836	0.7309	0.8628	0.046
Mof_N 	N 	0.1188	0.6592	0.6553	0.015
Mof_C 	C 	0.1351	0.6848	0.6217	1.51
Mof_C 	C 	0.1772	0.6792	0.6049	0.209
Mof_C 	C 	0.201	0.6424	0.6196	0.793
Mof_C 	C 	0.1892	0.6237	0.6587	-0.339
Mof_C 	C 	0.148	0.6318	0.6769	-0.248
Mof_C 	C 	0.1944	0.7094	0.5675	0.252
Mof_O 	O 	0.2296	0.701	0.5495	-0.408
Mof_O 	O 	0.17	0.7382	0.5533	-0.258
Mof_Ni	Ni	0.31764	0.05843	0.31764	1.114
Mof_O 	O 	0.32343	0.08774	0.25458	-0.395
Mof_O 	O 	0.31356	0.03708	0.38376	-0.422
Mof_O 	O 	0.38389	0.03707	0.3132	-0.465
Mof_N 	N 	0.338	0.1212	0.344	-0.224
Mof_O 	O 	0.25471	0.0877	0.3233	-0.392
Mof_C 	C 	0.30243	0.08098	0.21877	0.37
Mof_C 	C 	0.3133	0.1361	0.3782	0.537
Mof_C 	C 	0.3636	0.1503	0.3227	-0.819
Mof_C 	C 	0.21897	0.08109	0.30272	0.374
Mof_O 	O 	0.27841	0.0478	0.20983	-0.423
Mof_O 	O 	0.20973	0.04762	0.27835	-0.419
Mof_C 	C 	0.30434	0.11663	0.18271	-0.056
Mof_H 	H 	0.2918	0.1174	0.3908	-0.129
Mof_C 	C 	0.3188	0.1776	0.3947	-0.032
Mof_C 	C 	0.3731	0.1899	0.3418	-0.927
Mof_H 	H 	0.375	0.1433	0.2945	-0.542
Mof_C 	C 	0.18276	0.11634	0.30413	-0.08
Mof_C 	C 	0.326	0.15651	0.18895	-0.032
Mof_C 	C 	0.283	0.11053	0.14283	-0.029
Mof_C 	C 	0.3127	0.03899	0.4767	-0.011
Mof_C 	C 	0.47679	0.03912	0.3121	-0.002
Mof_C 	C 	0.3538	0.2017	0.3793	0.441
Mof_C 	C 	0.2882	0.1948	0.4296	0.319
Mof_H 	H 	0.3935	0.2091	0.3282	0.044
Mof_C 	C 	0.1888	0.15613	0.3266	0.005
Mof_C 	C 	0.14283	0.11062	0.2835	-0.003
Mof_H 	H 	0.3407	0.1619	0.2159	0.09
Mof_H 	H 	0.2679	0.0838	0.1375	0.051
Mof_H 	H 	0.3132	0.0662	0.4615	0.053
Mof_H 	H 	0.4616	0.0663	0.3123	0.016
Mof_H 	H 	0.3641	0.2264	0.3952	-0.189
Mof_O 	O 	0.2991	0.2293	0.4506	-0.388
Mof_O 	O 	0.2618	0.1676	0.4477	-0.246
Mof_H 	H 	0.2152	0.1609	0.3425	0.062
Mof_H 	H 	0.1372	0.0836	0.2691	0.042
Mof_N 	N 	0.3447	0.1188	0.3408	0.015
Mof_C 	C 	0.3783	0.1351	0.3152	1.511
Mof_C 	C 	0.3951	0.1772	0.3208	0.209
Mof_C 	C 	0.3804	0.201	0.3576	0.794
Mof_C 	C 	0.3413	0.1892	0.3763	-0.339
Mof_C 	C 	0.3231	0.148	0.3682	-0.247
Mof_C 	C 	0.4325	0.1944	0.2906	0.253
Mof_O 	O 	0.4505	0.2296	0.299	-0.408
Mof_O 	O 	0.4467	0.17	0.2618	-0.26
Mof_Ni	Ni	0.31764	0.94157	0.68236	1.119
Mof_O 	O 	0.32343	0.91226	0.74542	-0.389
Mof_O 	O 	0.31356	0.96292	0.61624	-0.402
Mof_O 	O 	0.38389	0.96293	0.6868	-0.445
Mof_N 	N 	0.338	0.8788	0.656	-0.221
Mof_O 	O 	0.25471	0.9123	0.6767	-0.388
Mof_C 	C 	0.30243	0.91902	0.78123	0.369
Mof_C 	C 	0.3133	0.8639	0.6218	0.531
Mof_C 	C 	0.3636	0.8497	0.6773	-0.803
Mof_C 	C 	0.21897	0.91891	0.69728	0.372
Mof_O 	O 	0.27841	0.9522	0.79017	-0.404
Mof_O 	O 	0.20973	0.95238	0.72165	-0.401
Mof_C 	C 	0.30434	0.88337	0.81729	-0.05
Mof_H 	H 	0.2918	0.8826	0.6092	-0.125
Mof_C 	C 	0.3188	0.8224	0.6053	-0.033
Mof_C 	C 	0.3731	0.8101	0.6582	-0.913
Mof_H 	H 	0.375	0.8567	0.7055	-0.532
Mof_C 	C 	0.18276	0.88366	0.69587	-0.073
Mof_C 	C 	0.326	0.84349	0.81105	-0.031
Mof_C 	C 	0.283	0.88947	0.85717	-0.027
Mof_C 	C 	0.3127	0.96101	0.5233	0.011
Mof_C 	C 	0.47679	0.96088	0.6879	0.02
Mof_C 	C 	0.3538	0.7983	0.6207	0.436
Mof_C 	C 	0.2882	0.8052	0.5704	0.319
Mof_H 	H 	0.3935	0.7909	0.6718	0.045
Mof_C 	C 	0.1888	0.84387	0.6734	0.003
Mof_C 	C 	0.14283	0.88938	0.7165	-0.005
Mof_H 	H 	0.3407	0.8381	0.7841	0.09
Mof_H 	H 	0.2679	0.9162	0.8625	0.061
Mof_H 	H 	0.3132	0.9338	0.5385	0.05
Mof_H 	H 	0.4616	0.9337	0.6877	0.014
Mof_H 	H 	0.3641	0.7736	0.6048	-0.186
Mof_O 	O 	0.2991	0.7707	0.5494	-0.388
Mof_O 	O 	0.2618	0.8324	0.5523	-0.243
Mof_H 	H 	0.2152	0.8391	0.6575	0.064
Mof_H 	H 	0.1372	0.9164	0.7309	0.051
Mof_N 	N 	0.3447	0.8812	0.6592	0.013
Mof_C 	C 	0.3783	0.8649	0.6848	1.487
Mof_C 	C 	0.3951	0.8228	0.6792	0.204
Mof_C 	C 	0.3804	0.799	0.6424	0.781
Mof_C 	C 	0.3413	0.8108	0.6237	-0.335
Mof_C 	C 	0.3231	0.852	0.6318	-0.245
Mof_C 	C 	0.4325	0.8056	0.7094	0.254
Mof_O 	O 	0.4505	0.7704	0.701	-0.407
Mof_O 	O 	0.4467	0.83	0.7382	-0.256
Mof_Ni	Ni	0.68236	0.94157	0.31764	1.119
Mof_O 	O 	0.67657	0.91226	0.25458	-0.389
Mof_O 	O 	0.68644	0.96292	0.38376	-0.402
Mof_O 	O 	0.61611	0.96293	0.3132	-0.445
Mof_N 	N 	0.662	0.8788	0.344	-0.222
Mof_O 	O 	0.74529	0.9123	0.3233	-0.387
Mof_C 	C 	0.69757	0.91902	0.21877	0.367
Mof_C 	C 	0.6867	0.8639	0.3782	0.531
Mof_C 	C 	0.6364	0.8497	0.3227	-0.804
Mof_C 	C 	0.78103	0.91891	0.30272	0.373
Mof_O 	O 	0.72159	0.9522	0.20983	-0.405
Mof_O 	O 	0.79027	0.95238	0.27835	-0.4
Mof_C 	C 	0.69566	0.88337	0.18271	-0.049
Mof_H 	H 	0.7082	0.8826	0.3908	-0.125
Mof_C 	C 	0.6812	0.8224	0.3947	-0.032
Mof_C 	C 	0.6269	0.8101	0.3418	-0.914
Mof_H 	H 	0.625	0.8567	0.2945	-0.533
Mof_C 	C 	0.81724	0.88366	0.30413	-0.074
Mof_C 	C 	0.674	0.84349	0.18895	-0.034
Mof_C 	C 	0.717	0.88947	0.14283	-0.032
Mof_C 	C 	0.6873	0.96101	0.4767	0.012
Mof_C 	C 	0.52321	0.96088	0.3121	0.02
Mof_C 	C 	0.6462	0.7983	0.3793	0.436
Mof_C 	C 	0.7118	0.8052	0.4296	0.319
Mof_H 	H 	0.6065	0.7909	0.3282	0.045
Mof_C 	C 	0.8112	0.84387	0.3266	0.006
Mof_C 	C 	0.85717	0.88938	0.2835	-0.001
Mof_H 	H 	0.6593	0.8381	0.2159	0.091
Mof_H 	H 	0.7321	0.9162	0.1375	0.06
Mof_H 	H 	0.6868	0.9338	0.4615	0.05
Mof_H 	H 	0.5384	0.9337	0.3123	0.014
Mof_H 	H 	0.6359	0.7736	0.3952	-0.186
Mof_O 	O 	0.7009	0.7707	0.4506	-0.388
Mof_O 	O 	0.7382	0.8324	0.4477	-0.242
Mof_H 	H 	0.7848	0.8391	0.3425	0.063
Mof_H 	H 	0.8628	0.9164	0.2691	0.053
Mof_N 	N 	0.6553	0.8812	0.3408	0.013
Mof_C 	C 	0.6217	0.8649	0.3152	1.488
Mof_C 	C 	0.6049	0.8228	0.3208	0.204
Mof_C 	C 	0.6196	0.799	0.3576	0.782
Mof_C 	C 	0.6587	0.8108	0.3763	-0.335
Mof_C 	C 	0.6769	0.852	0.3682	-0.245
Mof_C 	C 	0.5675	0.8056	0.2906	0.255
Mof_O 	O 	0.5495	0.7704	0.299	-0.408
Mof_O 	O 	0.5533	0.83	0.2618	-0.257
Mof_Ni	Ni	0.68236	0.05843	0.68236	1.115
Mof_O 	O 	0.67657	0.08774	0.74542	-0.394
Mof_O 	O 	0.68644	0.03708	0.61624	-0.422
Mof_O 	O 	0.61611	0.03707	0.6868	-0.465
Mof_N 	N 	0.662	0.1212	0.656	-0.224
Mof_O 	O 	0.74529	0.0877	0.6767	-0.392
Mof_C 	C 	0.69757	0.08098	0.78123	0.371
Mof_C 	C 	0.6867	0.1361	0.6218	0.537
Mof_C 	C 	0.6364	0.1503	0.6773	-0.819
Mof_C 	C 	0.78103	0.08109	0.69728	0.375
Mof_O 	O 	0.72159	0.0478	0.79017	-0.42
Mof_O 	O 	0.79027	0.04762	0.72165	-0.416
Mof_C 	C 	0.69566	0.11663	0.81729	-0.056
Mof_H 	H 	0.7082	0.1174	0.6092	-0.128
Mof_C 	C 	0.6812	0.1776	0.6053	-0.032
Mof_C 	C 	0.6269	0.1899	0.6582	-0.926
Mof_H 	H 	0.625	0.1433	0.7055	-0.541
Mof_C 	C 	0.81724	0.11634	0.69587	-0.08
Mof_C 	C 	0.674	0.15651	0.81105	-0.028
Mof_C 	C 	0.717	0.11053	0.85717	-0.024
Mof_C 	C 	0.6873	0.03899	0.5233	-0.011
Mof_C 	C 	0.52321	0.03912	0.6879	-0.002
Mof_C 	C 	0.6462	0.2017	0.6207	0.441
Mof_C 	C 	0.7118	0.1948	0.5704	0.319
Mof_H 	H 	0.6065	0.2091	0.6718	0.044
Mof_C 	C 	0.8112	0.15613	0.6734	0.009
Mof_C 	C 	0.85717	0.11062	0.7165	0.002
Mof_H 	H 	0.6593	0.1619	0.7841	0.089
Mof_H 	H 	0.7321	0.0838	0.8625	0.054
Mof_H 	H 	0.6868	0.0662	0.5385	0.053
Mof_H 	H 	0.5384	0.0663	0.6877	0.017
Mof_H 	H 	0.6359	0.2264	0.6048	-0.189
Mof_O 	O 	0.7009	0.2293	0.5494	-0.388
Mof_O 	O 	0.7382	0.1676	0.5523	-0.244
Mof_H 	H 	0.7848	0.1609	0.6575	0.062
Mof_H 	H 	0.8628	0.0836	0.7309	0.046
Mof_N 	N 	0.6553	0.1188	0.6592	0.015
Mof_C 	C 	0.6217	0.1351	0.6848	1.51
Mof_C 	C 	0.6049	0.1772	0.6792	0.209
Mof_C 	C 	0.6196	0.201	0.6424	0.793
Mof_C 	C 	0.6587	0.1892	0.6237	-0.339
Mof_C 	C 	0.6769	0.148	0.6318	-0.248
Mof_C 	C 	0.5675	0.1944	0.7094	0.252
Mof_O 	O 	0.5495	0.2296	0.701	-0.408
Mof_O 	O 	0.5533	0.17	0.7382	-0.258
Mof_Ni	Ni	0.31764	0.31764	0.05843	1.114
Mof_O 	O 	0.25458	0.32343	0.08774	-0.395
Mof_O 	O 	0.38376	0.31356	0.03708	-0.422
Mof_O 	O 	0.3132	0.38389	0.03707	-0.465
Mof_N 	N 	0.344	0.338	0.1212	-0.224
Mof_O 	O 	0.3233	0.25471	0.0877	-0.392
Mof_C 	C 	0.21877	0.30243	0.08098	0.37
Mof_C 	C 	0.3782	0.3133	0.1361	0.537
Mof_C 	C 	0.3227	0.3636	0.1503	-0.819
Mof_C 	C 	0.30272	0.21897	0.08109	0.374
Mof_O 	O 	0.20983	0.27841	0.0478	-0.423
Mof_O 	O 	0.27835	0.20973	0.04762	-0.419
Mof_C 	C 	0.18271	0.30434	0.11663	-0.056
Mof_H 	H 	0.3908	0.2918	0.1174	-0.129
Mof_C 	C 	0.3947	0.3188	0.1776	-0.032
Mof_C 	C 	0.3418	0.3731	0.1899	-0.927
Mof_H 	H 	0.2945	0.375	0.1433	-0.542
Mof_C 	C 	0.30413	0.18276	0.11634	-0.08
Mof_C 	C 	0.18895	0.326	0.15651	-0.032
Mof_C 	C 	0.14283	0.283	0.11053	-0.029
Mof_C 	C 	0.4767	0.3127	0.03899	-0.011
Mof_C 	C 	0.3121	0.47679	0.03912	-0.002
Mof_C 	C 	0.3793	0.3538	0.2017	0.441
Mof_C 	C 	0.4296	0.2882	0.1948	0.319
Mof_H 	H 	0.3282	0.3935	0.2091	0.044
Mof_C 	C 	0.3266	0.1888	0.15613	0.005
Mof_C 	C 	0.2835	0.14283	0.11062	-0.003
Mof_H 	H 	0.2159	0.3407	0.1619	0.09
Mof_H 	H 	0.1375	0.2679	0.0838	0.051
Mof_H 	H 	0.4615	0.3132	0.0662	0.053
Mof_H 	H 	0.3123	0.4616	0.0663	0.016
Mof_H 	H 	0.3952	0.3641	0.2264	-0.189
Mof_O 	O 	0.4506	0.2991	0.2293	-0.388
Mof_O 	O 	0.4477	0.2618	0.1676	-0.246
Mof_H 	H 	0.3425	0.2152	0.1609	0.062
Mof_H 	H 	0.2691	0.1372	0.0836	0.042
Mof_N 	N 	0.3408	0.3447	0.1188	0.015
Mof_C 	C 	0.3152	0.3783	0.1351	1.511
Mof_C 	C 	0.3208	0.3951	0.1772	0.209
Mof_C 	C 	0.3576	0.3804	0.201	0.794
Mof_C 	C 	0.3763	0.3413	0.1892	-0.339
Mof_C 	C 	0.3682	0.3231	0.148	-0.247
Mof_C 	C 	0.2906	0.4325	0.1944	0.253
Mof_O 	O 	0.299	0.4505	0.2296	-0.408
Mof_O 	O 	0.2618	0.4467	0.17	-0.26
Mof_Ni	Ni	0.68236	0.31764	0.94157	1.119
Mof_O 	O 	0.74542	0.32343	0.91226	-0.389
Mof_O 	O 	0.61624	0.31356	0.96292	-0.402
Mof_O 	O 	0.6868	0.38389	0.96293	-0.445
Mof_N 	N 	0.656	0.338	0.8788	-0.221
Mof_O 	O 	0.6767	0.25471	0.9123	-0.388
Mof_C 	C 	0.78123	0.30243	0.91902	0.369
Mof_C 	C 	0.6218	0.3133	0.8639	0.531
Mof_C 	C 	0.6773	0.3636	0.8497	-0.803
Mof_C 	C 	0.69728	0.21897	0.91891	0.372
Mof_O 	O 	0.79017	0.27841	0.9522	-0.404
Mof_O 	O 	0.72165	0.20973	0.95238	-0.401
Mof_C 	C 	0.81729	0.30434	0.88337	-0.05
Mof_H 	H 	0.6092	0.2918	0.8826	-0.125
Mof_C 	C 	0.6053	0.3188	0.8224	-0.033
Mof_C 	C 	0.6582	0.3731	0.8101	-0.913
Mof_H 	H 	0.7055	0.375	0.8567	-0.532
Mof_C 	C 	0.69587	0.18276	0.88366	-0.073
Mof_C 	C 	0.81105	0.326	0.84349	-0.031
Mof_C 	C 	0.85717	0.283	0.88947	-0.027
Mof_C 	C 	0.5233	0.3127	0.96101	0.011
Mof_C 	C 	0.6879	0.47679	0.96088	0.02
Mof_C 	C 	0.6207	0.3538	0.7983	0.436
Mof_C 	C 	0.5704	0.2882	0.8052	0.319
Mof_H 	H 	0.6718	0.3935	0.7909	0.045
Mof_C 	C 	0.6734	0.1888	0.84387	0.003
Mof_C 	C 	0.7165	0.14283	0.88938	-0.005
Mof_H 	H 	0.7841	0.3407	0.8381	0.09
Mof_H 	H 	0.8625	0.2679	0.9162	0.061
Mof_H 	H 	0.5385	0.3132	0.9338	0.05
Mof_H 	H 	0.6877	0.4616	0.9337	0.014
Mof_H 	H 	0.6048	0.3641	0.7736	-0.186
Mof_O 	O 	0.5494	0.2991	0.7707	-0.388
Mof_O 	O 	0.5523	0.2618	0.8324	-0.243
Mof_H 	H 	0.6575	0.2152	0.8391	0.064
Mof_H 	H 	0.7309	0.1372	0.9164	0.051
Mof_N 	N 	0.6592	0.3447	0.8812	0.013
Mof_C 	C 	0.6848	0.3783	0.8649	1.487
Mof_C 	C 	0.6792	0.3951	0.8228	0.204
Mof_C 	C 	0.6424	0.3804	0.799	0.781
Mof_C 	C 	0.6237	0.3413	0.8108	-0.335
Mof_C 	C 	0.6318	0.3231	0.852	-0.245
Mof_C 	C 	0.7094	0.4325	0.8056	0.254
Mof_O 	O 	0.701	0.4505	0.7704	-0.407
Mof_O 	O 	0.7382	0.4467	0.83	-0.256
Mof_Ni	Ni	0.31764	0.68236	0.94157	1.119
Mof_O 	O 	0.25458	0.67657	0.91226	-0.389
Mof_O 	O 	0.38376	0.68644	0.96292	-0.402
Mof_O 	O 	0.3132	0.61611	0.96293	-0.445
Mof_N 	N 	0.344	0.662	0.8788	-0.222
Mof_O 	O 	0.3233	0.74529	0.9123	-0.387
Mof_C 	C 	0.21877	0.69757	0.91902	0.367
Mof_C 	C 	0.3782	0.6867	0.8639	0.531
Mof_C 	C 	0.3227	0.6364	0.8497	-0.804
Mof_C 	C 	0.30272	0.78103	0.91891	0.373
Mof_O 	O 	0.20983	0.72159	0.9522	-0.405
Mof_O 	O 	0.27835	0.79027	0.95238	-0.4
Mof_C 	C 	0.18271	0.69566	0.88337	-0.049
Mof_H 	H 	0.3908	0.7082	0.8826	-0.125
Mof_C 	C 	0.3947	0.6812	0.8224	-0.032
Mof_C 	C 	0.3418	0.6269	0.8101	-0.914
Mof_H 	H 	0.2945	0.625	0.8567	-0.533
Mof_C 	C 	0.30413	0.81724	0.88366	-0.074
Mof_C 	C 	0.18895	0.674	0.84349	-0.034
Mof_C 	C 	0.14283	0.717	0.88947	-0.032
Mof_C 	C 	0.4767	0.6873	0.96101	0.012
Mof_C 	C 	0.3121	0.52321	0.96088	0.02
Mof_C 	C 	0.3793	0.6462	0.7983	0.436
Mof_C 	C 	0.4296	0.7118	0.8052	0.319
Mof_H 	H 	0.3282	0.6065	0.7909	0.045
Mof_C 	C 	0.3266	0.8112	0.84387	0.006
Mof_C 	C 	0.2835	0.85717	0.88938	-0.001
Mof_H 	H 	0.2159	0.6593	0.8381	0.091
Mof_H 	H 	0.1375	0.7321	0.9162	0.06
Mof_H 	H 	0.4615	0.6868	0.9338	0.05
Mof_H 	H 	0.3123	0.5384	0.9337	0.014
Mof_H 	H 	0.3952	0.6359	0.7736	-0.186
Mof_O 	O 	0.4506	0.7009	0.7707	-0.388
Mof_O 	O 	0.4477	0.7382	0.8324	-0.242
Mof_H 	H 	0.3425	0.7848	0.8391	0.063
Mof_H 	H 	0.2691	0.8628	0.9164	0.053
Mof_N 	N 	0.3408	0.6553	0.8812	0.013
Mof_C 	C 	0.3152	0.6217	0.8649	1.488
Mof_C 	C 	0.3208	0.6049	0.8228	0.204
Mof_C 	C 	0.3576	0.6196	0.799	0.782
Mof_C 	C 	0.3763	0.6587	0.8108	-0.335
Mof_C 	C 	0.3682	0.6769	0.852	-0.245
Mof_C 	C 	0.2906	0.5675	0.8056	0.255
Mof_O 	O 	0.299	0.5495	0.7704	-0.408
Mof_O 	O 	0.2618	0.5533	0.83	-0.257
Mof_Ni	Ni	0.68236	0.68236	0.05843	1.115
Mof_O 	O 	0.74542	0.67657	0.08774	-0.394
Mof_O 	O 	0.61624	0.68644	0.03708	-0.422
Mof_O 	O 	0.6868	0.61611	0.03707	-0.465
Mof_N 	N 	0.656	0.662	0.1212	-0.224
Mof_O 	O 	0.6767	0.74529	0.0877	-0.392
Mof_C 	C 	0.78123	0.69757	0.08098	0.371
Mof_C 	C 	0.6218	0.6867	0.1361	0.537
Mof_C 	C 	0.6773	0.6364	0.1503	-0.819
Mof_C 	C 	0.69728	0.78103	0.08109	0.375
Mof_O 	O 	0.79017	0.72159	0.0478	-0.42
Mof_O 	O 	0.72165	0.79027	0.04762	-0.416
Mof_C 	C 	0.81729	0.69566	0.11663	-0.056
Mof_H 	H 	0.6092	0.7082	0.1174	-0.128
Mof_C 	C 	0.6053	0.6812	0.1776	-0.032
Mof_C 	C 	0.6582	0.6269	0.1899	-0.926
Mof_H 	H 	0.7055	0.625	0.1433	-0.541
Mof_C 	C 	0.69587	0.81724	0.11634	-0.08
Mof_C 	C 	0.81105	0.674	0.15651	-0.028
Mof_C 	C 	0.85717	0.717	0.11053	-0.024
Mof_C 	C 	0.5233	0.6873	0.03899	-0.011
Mof_C 	C 	0.6879	0.52321	0.03912	-0.002
Mof_C 	C 	0.6207	0.6462	0.2017	0.441
Mof_C 	C 	0.5704	0.7118	0.1948	0.319
Mof_H 	H 	0.6718	0.6065	0.2091	0.044
Mof_C 	C 	0.6734	0.8112	0.15613	0.009
Mof_C 	C 	0.7165	0.85717	0.11062	0.002
Mof_H 	H 	0.7841	0.6593	0.1619	0.089
Mof_H 	H 	0.8625	0.7321	0.0838	0.054
Mof_H 	H 	0.5385	0.6868	0.0662	0.053
Mof_H 	H 	0.6877	0.5384	0.0663	0.017
Mof_H 	H 	0.6048	0.6359	0.2264	-0.189
Mof_O 	O 	0.5494	0.7009	0.2293	-0.388
Mof_O 	O 	0.5523	0.7382	0.1676	-0.244
Mof_H 	H 	0.6575	0.7848	0.1609	0.062
Mof_H 	H 	0.7309	0.8628	0.0836	0.046
Mof_N 	N 	0.6592	0.6553	0.1188	0.015
Mof_C 	C 	0.6848	0.6217	0.1351	1.51
Mof_C 	C 	0.6792	0.6049	0.1772	0.209
Mof_C 	C 	0.6424	0.6196	0.201	0.793
Mof_C 	C 	0.6237	0.6587	0.1892	-0.339
Mof_C 	C 	0.6318	0.6769	0.148	-0.248
Mof_C 	C 	0.7094	0.5675	0.1944	0.252
Mof_O 	O 	0.701	0.5495	0.2296	-0.408
Mof_O 	O 	0.7382	0.5533	0.17	-0.258
Mof_Ni	Ni	0.94157	0.68236	0.68236	1.119
Mof_O 	O 	0.91226	0.74542	0.67657	-0.389
Mof_O 	O 	0.96292	0.61624	0.68644	-0.402
Mof_O 	O 	0.96293	0.6868	0.61611	-0.445
Mof_N 	N 	0.8788	0.656	0.662	-0.221
Mof_O 	O 	0.9123	0.6767	0.74529	-0.387
Mof_C 	C 	0.91902	0.78123	0.69757	0.368
Mof_C 	C 	0.8639	0.6218	0.6867	0.531
Mof_C 	C 	0.8497	0.6773	0.6364	-0.804
Mof_C 	C 	0.91891	0.69728	0.78103	0.373
Mof_O 	O 	0.9522	0.79017	0.72159	-0.404
Mof_O 	O 	0.95238	0.72165	0.79027	-0.4
Mof_C 	C 	0.88337	0.81729	0.69566	-0.05
Mof_H 	H 	0.8826	0.6092	0.7082	-0.125
Mof_C 	C 	0.8224	0.6053	0.6812	-0.032
Mof_C 	C 	0.8101	0.6582	0.6269	-0.913
Mof_H 	H 	0.8567	0.7055	0.625	-0.532
Mof_C 	C 	0.88366	0.69587	0.81724	-0.074
Mof_C 	C 	0.84349	0.81105	0.674	-0.031
Mof_C 	C 	0.88947	0.85717	0.717	-0.027
Mof_C 	C 	0.96101	0.5233	0.6873	0.012
Mof_C 	C 	0.96088	0.6879	0.52321	0.02
Mof_C 	C 	0.7983	0.6207	0.6462	0.436
Mof_C 	C 	0.8052	0.5704	0.7118	0.319
Mof_H 	H 	0.7909	0.6718	0.6065	0.045
Mof_C 	C 	0.84387	0.6734	0.8112	0.006
Mof_C 	C 	0.88938	0.7165	0.85717	-0.001
Mof_H 	H 	0.8381	0.7841	0.6593	0.09
Mof_H 	H 	0.9162	0.8625	0.7321	0.062
Mof_H 	H 	0.9338	0.5385	0.6868	0.05
Mof_H 	H 	0.9337	0.6877	0.5384	0.014
Mof_H 	H 	0.7736	0.6048	0.6359	-0.186
Mof_O 	O 	0.7707	0.5494	0.7009	-0.388
Mof_O 	O 	0.8324	0.5523	0.7382	-0.242
Mof_H 	H 	0.8391	0.6575	0.7848	0.063
Mof_H 	H 	0.9164	0.7309	0.8628	0.054
Mof_N 	N 	0.8812	0.6592	0.6553	0.013
Mof_C 	C 	0.8649	0.6848	0.6217	1.487
Mof_C 	C 	0.8228	0.6792	0.6049	0.204
Mof_C 	C 	0.799	0.6424	0.6196	0.782
Mof_C 	C 	0.8108	0.6237	0.6587	-0.335
Mof_C 	C 	0.852	0.6318	0.6769	-0.245
Mof_C 	C 	0.8056	0.7094	0.5675	0.254
Mof_O 	O 	0.7704	0.701	0.5495	-0.407
Mof_O 	O 	0.83	0.7382	0.5533	-0.256
Mof_Ni	Ni	0.05843	0.31764	0.68236	1.114
Mof_O 	O 	0.08774	0.25458	0.67657	-0.394
Mof_O 	O 	0.03708	0.38376	0.68644	-0.422
Mof_O 	O 	0.03707	0.3132	0.61611	-0.465
Mof_N 	N 	0.1212	0.344	0.662	-0.224
Mof_O 	O 	0.0877	0.3233	0.74529	-0.392
Mof_C 	C 	0.08098	0.21877	0.69757	0.369
Mof_C 	C 	0.1361	0.3782	0.6867	0.537
Mof_C 	C 	0.1503	0.3227	0.6364	-0.819
Mof_C 	C 	0.08109	0.30272	0.78103	0.375
Mof_O 	O 	0.0478	0.20983	0.72159	-0.422
Mof_O 	O 	0.04762	0.27835	0.79027	-0.417
Mof_C 	C 	0.11663	0.18271	0.69566	-0.055
Mof_H 	H 	0.1174	0.3908	0.7082	-0.128
Mof_C 	C 	0.1776	0.3947	0.6812	-0.032
Mof_C 	C 	0.1899	0.3418	0.6269	-0.927
Mof_H 	H 	0.1433	0.2945	0.625	-0.542
Mof_C 	C 	0.11634	0.30413	0.81724	-0.081
Mof_C 	C 	0.15651	0.18895	0.674	-0.032
Mof_C 	C 	0.11053	0.14283	0.717	-0.029
Mof_C 	C 	0.03899	0.4767	0.6873	-0.011
Mof_C 	C 	0.03912	0.3121	0.52321	-0.002
Mof_C 	C 	0.2017	0.3793	0.6462	0.441
Mof_C 	C 	0.1948	0.4296	0.7118	0.319
Mof_H 	H 	0.2091	0.3282	0.6065	0.044
Mof_C 	C 	0.15613	0.3266	0.8112	0.009
Mof_C 	C 	0.11062	0.2835	0.85717	0.002
Mof_H 	H 	0.1619	0.2159	0.6593	0.09
Mof_H 	H 	0.0838	0.1375	0.7321	0.052
Mof_H 	H 	0.0662	0.4615	0.6868	0.053
Mof_H 	H 	0.0663	0.3123	0.5384	0.016
Mof_H 	H 	0.2264	0.3952	0.6359	-0.189
Mof_O 	O 	0.2293	0.4506	0.7009	-0.388
Mof_O 	O 	0.1676	0.4477	0.7382	-0.244
Mof_H 	H 	0.1609	0.3425	0.7848	0.062
Mof_H 	H 	0.0836	0.2691	0.8628	0.045
Mof_N 	N 	0.1188	0.3408	0.6553	0.015
Mof_C 	C 	0.1351	0.3152	0.6217	1.511
Mof_C 	C 	0.1772	0.3208	0.6049	0.209
Mof_C 	C 	0.201	0.3576	0.6196	0.794
Mof_C 	C 	0.1892	0.3763	0.6587	-0.339
Mof_C 	C 	0.148	0.3682	0.6769	-0.248
Mof_C 	C 	0.1944	0.2906	0.5675	0.253
Mof_O 	O 	0.2296	0.299	0.5495	-0.408
Mof_O 	O 	0.17	0.2618	0.5533	-0.26
Mof_Ni	Ni	0.05843	0.68236	0.31764	1.114
Mof_O 	O 	0.08774	0.74542	0.32343	-0.394
Mof_O 	O 	0.03708	0.61624	0.31356	-0.422
Mof_O 	O 	0.03707	0.6868	0.38389	-0.465
Mof_N 	N 	0.1212	0.656	0.338	-0.224
Mof_O 	O 	0.0877	0.6767	0.25471	-0.392
Mof_C 	C 	0.08098	0.78123	0.30243	0.371
Mof_C 	C 	0.1361	0.6218	0.3133	0.536
Mof_C 	C 	0.1503	0.6773	0.3636	-0.818
Mof_C 	C 	0.08109	0.69728	0.21897	0.374
Mof_O 	O 	0.0478	0.79017	0.27841	-0.421
Mof_O 	O 	0.04762	0.72165	0.20973	-0.418
Mof_C 	C 	0.11663	0.81729	0.30434	-0.057
Mof_H 	H 	0.1174	0.6092	0.2918	-0.129
Mof_C 	C 	0.1776	0.6053	0.3188	-0.033
Mof_C 	C 	0.1899	0.6582	0.3731	-0.926
Mof_H 	H 	0.1433	0.7055	0.375	-0.541
Mof_C 	C 	0.11634	0.69587	0.18276	-0.079
Mof_C 	C 	0.15651	0.81105	0.326	-0.028
Mof_C 	C 	0.11053	0.85717	0.283	-0.024
Mof_C 	C 	0.03899	0.5233	0.3127	-0.011
Mof_C 	C 	0.03912	0.6879	0.47679	-0.002
Mof_C 	C 	0.2017	0.6207	0.3538	0.441
Mof_C 	C 	0.1948	0.5704	0.2882	0.319
Mof_H 	H 	0.2091	0.6718	0.3935	0.044
Mof_C 	C 	0.15613	0.6734	0.1888	0.005
Mof_C 	C 	0.11062	0.7165	0.14283	-0.002
Mof_H 	H 	0.1619	0.7841	0.3407	0.089
Mof_H 	H 	0.0838	0.8625	0.2679	0.053
Mof_H 	H 	0.0662	0.5385	0.3132	0.053
Mof_H 	H 	0.0663	0.6877	0.4616	0.017
Mof_H 	H 	0.2264	0.6048	0.3641	-0.189
Mof_O 	O 	0.2293	0.5494	0.2991	-0.388
Mof_O 	O 	0.1676	0.5523	0.2618	-0.246
Mof_H 	H 	0.1609	0.6575	0.2152	0.062
Mof_H 	H 	0.0836	0.7309	0.1372	0.043
Mof_N 	N 	0.1188	0.6592	0.3447	0.015
Mof_C 	C 	0.1351	0.6848	0.3783	1.51
Mof_C 	C 	0.1772	0.6792	0.3951	0.209
Mof_C 	C 	0.201	0.6424	0.3804	0.793
Mof_C 	C 	0.1892	0.6237	0.3413	-0.339
Mof_C 	C 	0.148	0.6318	0.3231	-0.247
Mof_C 	C 	0.1944	0.7094	0.4325	0.252
Mof_O 	O 	0.2296	0.701	0.4505	-0.408
Mof_O 	O 	0.17	0.7382	0.4467	-0.258
Mof_Ni	Ni	0.94157	0.31764	0.31764	1.119
Mof_O 	O 	0.91226	0.25458	0.32343	-0.389
Mof_O 	O 	0.96292	0.38376	0.31356	-0.402
Mof_O 	O 	0.96293	0.3132	0.38389	-0.445
Mof_N 	N 	0.8788	0.344	0.338	-0.221
Mof_O 	O 	0.9123	0.3233	0.25471	-0.388
Mof_C 	C 	0.91902	0.21877	0.30243	0.367
Mof_C 	C 	0.8639	0.3782	0.3133	0.531
Mof_C 	C 	0.8497	0.3227	0.3636	-0.804
Mof_C 	C 	0.91891	0.30272	0.21897	0.372
Mof_O 	O 	0.9522	0.20983	0.27841	-0.406
Mof_O 	O 	0.95238	0.27835	0.20973	-0.402
Mof_C 	C 	0.88337	0.18271	0.30434	-0.049
Mof_H 	H 	0.8826	0.3908	0.2918	-0.125
Mof_C 	C 	0.8224	0.3947	0.3188	-0.032
Mof_C 	C 	0.8101	0.3418	0.3731	-0.914
Mof_H 	H 	0.8567	0.2945	0.375	-0.533
Mof_C 	C 	0.88366	0.30413	0.18276	-0.073
Mof_C 	C 	0.84349	0.18895	0.326	-0.034
Mof_C 	C 	0.88947	0.14283	0.283	-0.032
Mof_C 	C 	0.96101	0.4767	0.3127	0.011
Mof_C 	C 	0.96088	0.3121	0.47679	0.02
Mof_C 	C 	0.7983	0.3793	0.3538	0.436
Mof_C 	C 	0.8052	0.4296	0.2882	0.319
Mof_H 	H 	0.7909	0.3282	0.3935	0.045
Mof_C 	C 	0.84387	0.3266	0.1888	0.003
Mof_C 	C 	0.88938	0.2835	0.14283	-0.006
Mof_H 	H 	0.8381	0.2159	0.3407	0.091
Mof_H 	H 	0.9162	0.1375	0.2679	0.058
Mof_H 	H 	0.9338	0.4615	0.3132	0.05
Mof_H 	H 	0.9337	0.3123	0.4616	0.014
Mof_H 	H 	0.7736	0.3952	0.3641	-0.186
Mof_O 	O 	0.7707	0.4506	0.2991	-0.388
Mof_O 	O 	0.8324	0.4477	0.2618	-0.243
Mof_H 	H 	0.8391	0.3425	0.2152	0.064
Mof_H 	H 	0.9164	0.2691	0.1372	0.05
Mof_N 	N 	0.8812	0.3408	0.3447	0.013
Mof_C 	C 	0.8649	0.3152	0.3783	1.488
Mof_C 	C 	0.8228	0.3208	0.3951	0.204
Mof_C 	C 	0.799	0.3576	0.3804	0.782
Mof_C 	C 	0.8108	0.3763	0.3413	-0.335
Mof_C 	C 	0.852	0.3682	0.3231	-0.245
Mof_C 	C 	0.8056	0.2906	0.4325	0.255
Mof_O 	O 	0.7704	0.299	0.4505	-0.408
Mof_O 	O 	0.83	0.2618	0.4467	-0.257
Mof_Ni	Ni	0.68236	0.94157	0.68236	1.119
Mof_O 	O 	0.67657	0.91226	0.74542	-0.389
Mof_O 	O 	0.68644	0.96292	0.61624	-0.402
Mof_O 	O 	0.61611	0.96293	0.6868	-0.445
Mof_N 	N 	0.662	0.8788	0.656	-0.221
Mof_O 	O 	0.74529	0.9123	0.6767	-0.387
Mof_C 	C 	0.69757	0.91902	0.78123	0.368
Mof_C 	C 	0.6867	0.8639	0.6218	0.531
Mof_C 	C 	0.6364	0.8497	0.6773	-0.804
Mof_C 	C 	0.78103	0.91891	0.69728	0.373
Mof_O 	O 	0.72159	0.9522	0.79017	-0.404
Mof_O 	O 	0.79027	0.95238	0.72165	-0.4
Mof_C 	C 	0.69566	0.88337	0.81729	-0.05
Mof_H 	H 	0.7082	0.8826	0.6092	-0.125
Mof_C 	C 	0.6812	0.8224	0.6053	-0.032
Mof_C 	C 	0.6269	0.8101	0.6582	-0.913
Mof_H 	H 	0.625	0.8567	0.7055	-0.532
Mof_C 	C 	0.81724	0.88366	0.69587	-0.074
Mof_C 	C 	0.674	0.84349	0.81105	-0.031
Mof_C 	C 	0.717	0.88947	0.85717	-0.027
Mof_C 	C 	0.6873	0.96101	0.5233	0.012
Mof_C 	C 	0.52321	0.96088	0.6879	0.02
Mof_C 	C 	0.6462	0.7983	0.6207	0.436
Mof_C 	C 	0.7118	0.8052	0.5704	0.319
Mof_H 	H 	0.6065	0.7909	0.6718	0.045
Mof_C 	C 	0.8112	0.84387	0.6734	0.006
Mof_C 	C 	0.85717	0.88938	0.7165	-0.001
Mof_H 	H 	0.6593	0.8381	0.7841	0.09
Mof_H 	H 	0.7321	0.9162	0.8625	0.062
Mof_H 	H 	0.6868	0.9338	0.5385	0.05
Mof_H 	H 	0.5384	0.9337	0.6877	0.014
Mof_H 	H 	0.6359	0.7736	0.6048	-0.186
Mof_O 	O 	0.7009	0.7707	0.5494	-0.388
Mof_O 	O 	0.7382	0.8324	0.5523	-0.242
Mof_H 	H 	0.7848	0.8391	0.6575	0.063
Mof_H 	H 	0.8628	0.9164	0.7309	0.054
Mof_N 	N 	0.6553	0.8812	0.6592	0.013
Mof_C 	C 	0.6217	0.8649	0.6848	1.487
Mof_C 	C 	0.6049	0.8228	0.6792	0.204
Mof_C 	C 	0.6196	0.799	0.6424	0.782
Mof_C 	C 	0.6587	0.8108	0.6237	-0.335
Mof_C 	C 	0.6769	0.852	0.6318	-0.245
Mof_C 	C 	0.5675	0.8056	0.7094	0.254
Mof_O 	O 	0.5495	0.7704	0.701	-0.407
Mof_O 	O 	0.5533	0.83	0.7382	-0.256
Mof_Ni	Ni	0.68236	0.05843	0.31764	1.114
Mof_O 	O 	0.67657	0.08774	0.25458	-0.394
Mof_O 	O 	0.68644	0.03708	0.38376	-0.422
Mof_O 	O 	0.61611	0.03707	0.3132	-0.465
Mof_N 	N 	0.662	0.1212	0.344	-0.224
Mof_O 	O 	0.74529	0.0877	0.3233	-0.392
Mof_C 	C 	0.69757	0.08098	0.21877	0.369
Mof_C 	C 	0.6867	0.1361	0.3782	0.537
Mof_C 	C 	0.6364	0.1503	0.3227	-0.819
Mof_C 	C 	0.78103	0.08109	0.30272	0.375
Mof_O 	O 	0.72159	0.0478	0.20983	-0.422
Mof_O 	O 	0.79027	0.04762	0.27835	-0.417
Mof_C 	C 	0.69566	0.11663	0.18271	-0.055
Mof_H 	H 	0.7082	0.1174	0.3908	-0.128
Mof_C 	C 	0.6812	0.1776	0.3947	-0.032
Mof_C 	C 	0.6269	0.1899	0.3418	-0.927
Mof_H 	H 	0.625	0.1433	0.2945	-0.542
Mof_C 	C 	0.81724	0.11634	0.30413	-0.081
Mof_C 	C 	0.674	0.15651	0.18895	-0.032
Mof_C 	C 	0.717	0.11053	0.14283	-0.029
Mof_C 	C 	0.6873	0.03899	0.4767	-0.011
Mof_C 	C 	0.52321	0.03912	0.3121	-0.002
Mof_C 	C 	0.6462	0.2017	0.3793	0.441
Mof_C 	C 	0.7118	0.1948	0.4296	0.319
Mof_H 	H 	0.6065	0.2091	0.3282	0.044
Mof_C 	C 	0.8112	0.15613	0.3266	0.009
Mof_C 	C 	0.85717	0.11062	0.2835	0.002
Mof_H 	H 	0.6593	0.1619	0.2159	0.09
Mof_H 	H 	0.7321	0.0838	0.1375	0.052
Mof_H 	H 	0.6868	0.0662	0.4615	0.053
Mof_H 	H 	0.5384	0.0663	0.3123	0.016
Mof_H 	H 	0.6359	0.2264	0.3952	-0.189
Mof_O 	O 	0.7009	0.2293	0.4506	-0.388
Mof_O 	O 	0.7382	0.1676	0.4477	-0.244
Mof_H 	H 	0.7848	0.1609	0.3425	0.062
Mof_H 	H 	0.8628	0.0836	0.2691	0.045
Mof_N 	N 	0.6553	0.1188	0.3408	0.015
Mof_C 	C 	0.6217	0.1351	0.3152	1.511
Mof_C 	C 	0.6049	0.1772	0.3208	0.209
Mof_C 	C 	0.6196	0.201	0.3576	0.794
Mof_C 	C 	0.6587	0.1892	0.3763	-0.339
Mof_C 	C 	0.6769	0.148	0.3682	-0.248
Mof_C 	C 	0.5675	0.1944	0.2906	0.253
Mof_O 	O 	0.5495	0.2296	0.299	-0.408
Mof_O 	O 	0.5533	0.17	0.2618	-0.26
Mof_Ni	Ni	0.31764	0.05843	0.68236	1.114
Mof_O 	O 	0.32343	0.08774	0.74542	-0.394
Mof_O 	O 	0.31356	0.03708	0.61624	-0.422
Mof_O 	O 	0.38389	0.03707	0.6868	-0.465
Mof_N 	N 	0.338	0.1212	0.656	-0.224
Mof_O 	O 	0.25471	0.0877	0.6767	-0.392
Mof_C 	C 	0.30243	0.08098	0.78123	0.371
Mof_C 	C 	0.3133	0.1361	0.6218	0.536
Mof_C 	C 	0.3636	0.1503	0.6773	-0.818
Mof_C 	C 	0.21897	0.08109	0.69728	0.374
Mof_O 	O 	0.27841	0.0478	0.79017	-0.421
Mof_O 	O 	0.20973	0.04762	0.72165	-0.418
Mof_C 	C 	0.30434	0.11663	0.81729	-0.057
Mof_H 	H 	0.2918	0.1174	0.6092	-0.129
Mof_C 	C 	0.3188	0.1776	0.6053	-0.033
Mof_C 	C 	0.3731	0.1899	0.6582	-0.926
Mof_H 	H 	0.375	0.1433	0.7055	-0.541
Mof_C 	C 	0.18276	0.11634	0.69587	-0.079
Mof_C 	C 	0.326	0.15651	0.81105	-0.028
Mof_C 	C 	0.283	0.11053	0.85717	-0.024
Mof_C 	C 	0.3127	0.03899	0.5233	-0.011
Mof_C 	C 	0.47679	0.03912	0.6879	-0.002
Mof_C 	C 	0.3538	0.2017	0.6207	0.441
Mof_C 	C 	0.2882	0.1948	0.5704	0.319
Mof_H 	H 	0.3935	0.2091	0.6718	0.044
Mof_C 	C 	0.1888	0.15613	0.6734	0.005
Mof_C 	C 	0.14283	0.11062	0.7165	-0.002
Mof_H 	H 	0.3407	0.1619	0.7841	0.089
Mof_H 	H 	0.2679	0.0838	0.8625	0.053
Mof_H 	H 	0.3132	0.0662	0.5385	0.053
Mof_H 	H 	0.4616	0.0663	0.6877	0.017
Mof_H 	H 	0.3641	0.2264	0.6048	-0.189
Mof_O 	O 	0.2991	0.2293	0.5494	-0.388
Mof_O 	O 	0.2618	0.1676	0.5523	-0.246
Mof_H 	H 	0.2152	0.1609	0.6575	0.062
Mof_H 	H 	0.1372	0.0836	0.7309	0.043
Mof_N 	N 	0.3447	0.1188	0.6592	0.015
Mof_C 	C 	0.3783	0.1351	0.6848	1.51
Mof_C 	C 	0.3951	0.1772	0.6792	0.209
Mof_C 	C 	0.3804	0.201	0.6424	0.793
Mof_C 	C 	0.3413	0.1892	0.6237	-0.339
Mof_C 	C 	0.3231	0.148	0.6318	-0.247
Mof_C 	C 	0.4325	0.1944	0.7094	0.252
Mof_O 	O 	0.4505	0.2296	0.701	-0.408
Mof_O 	O 	0.4467	0.17	0.7382	-0.258
Mof_Ni	Ni	0.31764	0.94157	0.31764	1.119
Mof_O 	O 	0.32343	0.91226	0.25458	-0.389
Mof_O 	O 	0.31356	0.96292	0.38376	-0.402
Mof_O 	O 	0.38389	0.96293	0.3132	-0.445
Mof_N 	N 	0.338	0.8788	0.344	-0.221
Mof_O 	O 	0.25471	0.9123	0.3233	-0.388
Mof_C 	C 	0.30243	0.91902	0.21877	0.367
Mof_C 	C 	0.3133	0.8639	0.3782	0.531
Mof_C 	C 	0.3636	0.8497	0.3227	-0.804
Mof_C 	C 	0.21897	0.91891	0.30272	0.372
Mof_O 	O 	0.27841	0.9522	0.20983	-0.406
Mof_O 	O 	0.20973	0.95238	0.27835	-0.402
Mof_C 	C 	0.30434	0.88337	0.18271	-0.049
Mof_H 	H 	0.2918	0.8826	0.3908	-0.125
Mof_C 	C 	0.3188	0.8224	0.3947	-0.032
Mof_C 	C 	0.3731	0.8101	0.3418	-0.914
Mof_H 	H 	0.375	0.8567	0.2945	-0.533
Mof_C 	C 	0.18276	0.88366	0.30413	-0.073
Mof_C 	C 	0.326	0.84349	0.18895	-0.034
Mof_C 	C 	0.283	0.88947	0.14283	-0.032
Mof_C 	C 	0.3127	0.96101	0.4767	0.011
Mof_C 	C 	0.47679	0.96088	0.3121	0.02
Mof_C 	C 	0.3538	0.7983	0.3793	0.436
Mof_C 	C 	0.2882	0.8052	0.4296	0.319
Mof_H 	H 	0.3935	0.7909	0.3282	0.045
Mof_C 	C 	0.1888	0.84387	0.3266	0.003
Mof_C 	C 	0.14283	0.88938	0.2835	-0.006
Mof_H 	H 	0.3407	0.8381	0.2159	0.091
Mof_H 	H 	0.2679	0.9162	0.1375	0.058
Mof_H 	H 	0.3132	0.9338	0.4615	0.05
Mof_H 	H 	0.4616	0.9337	0.3123	0.014
Mof_H 	H 	0.3641	0.7736	0.3952	-0.186
Mof_O 	O 	0.2991	0.7707	0.4506	-0.388
Mof_O 	O 	0.2618	0.8324	0.4477	-0.243
Mof_H 	H 	0.2152	0.8391	0.3425	0.064
Mof_H 	H 	0.1372	0.9164	0.2691	0.05
Mof_N 	N 	0.3447	0.8812	0.3408	0.013
Mof_C 	C 	0.3783	0.8649	0.3152	1.488
Mof_C 	C 	0.3951	0.8228	0.3208	0.204
Mof_C 	C 	0.3804	0.799	0.3576	0.782
Mof_C 	C 	0.3413	0.8108	0.3763	-0.335
Mof_C 	C 	0.3231	0.852	0.3682	-0.245
Mof_C 	C 	0.4325	0.8056	0.2906	0.255
Mof_O 	O 	0.4505	0.7704	0.299	-0.408
Mof_O 	O 	0.4467	0.83	0.2618	-0.257
Mof_Ni	Ni	0.68236	0.68236	0.94157	1.119
Mof_O 	O 	0.74542	0.67657	0.91226	-0.389
Mof_O 	O 	0.61624	0.68644	0.96292	-0.402
Mof_O 	O 	0.6868	0.61611	0.96293	-0.445
Mof_N 	N 	0.656	0.662	0.8788	-0.221
Mof_O 	O 	0.6767	0.74529	0.9123	-0.387
Mof_C 	C 	0.78123	0.69757	0.91902	0.368
Mof_C 	C 	0.6218	0.6867	0.8639	0.531
Mof_C 	C 	0.6773	0.6364	0.8497	-0.804
Mof_C 	C 	0.69728	0.78103	0.91891	0.373
Mof_O 	O 	0.79017	0.72159	0.9522	-0.404
Mof_O 	O 	0.72165	0.79027	0.95238	-0.4
Mof_C 	C 	0.81729	0.69566	0.88337	-0.05
Mof_H 	H 	0.6092	0.7082	0.8826	-0.125
Mof_C 	C 	0.6053	0.6812	0.8224	-0.032
Mof_C 	C 	0.6582	0.6269	0.8101	-0.913
Mof_H 	H 	0.7055	0.625	0.8567	-0.532
Mof_C 	C 	0.69587	0.81724	0.88366	-0.074
Mof_C 	C 	0.81105	0.674	0.84349	-0.031
Mof_C 	C 	0.85717	0.717	0.88947	-0.027
Mof_C 	C 	0.5233	0.6873	0.96101	0.012
Mof_C 	C 	0.6879	0.52321	0.96088	0.02
Mof_C 	C 	0.6207	0.6462	0.7983	0.436
Mof_C 	C 	0.5704	0.7118	0.8052	0.319
Mof_H 	H 	0.6718	0.6065	0.7909	0.045
Mof_C 	C 	0.6734	0.8112	0.84387	0.006
Mof_C 	C 	0.7165	0.85717	0.88938	-0.001
Mof_H 	H 	0.7841	0.6593	0.8381	0.09
Mof_H 	H 	0.8625	0.7321	0.9162	0.062
Mof_H 	H 	0.5385	0.6868	0.9338	0.05
Mof_H 	H 	0.6877	0.5384	0.9337	0.014
Mof_H 	H 	0.6048	0.6359	0.7736	-0.186
Mof_O 	O 	0.5494	0.7009	0.7707	-0.388
Mof_O 	O 	0.5523	0.7382	0.8324	-0.242
Mof_H 	H 	0.6575	0.7848	0.8391	0.063
Mof_H 	H 	0.7309	0.8628	0.9164	0.054
Mof_N 	N 	0.6592	0.6553	0.8812	0.013
Mof_C 	C 	0.6848	0.6217	0.8649	1.487
Mof_C 	C 	0.6792	0.6049	0.8228	0.204
Mof_C 	C 	0.6424	0.6196	0.799	0.782
Mof_C 	C 	0.6237	0.6587	0.8108	-0.335
Mof_C 	C 	0.6318	0.6769	0.852	-0.245
Mof_C 	C 	0.7094	0.5675	0.8056	0.254
Mof_O 	O 	0.701	0.5495	0.7704	-0.407
Mof_O 	O 	0.7382	0.5533	0.83	-0.256
Mof_Ni	Ni	0.31764	0.68236	0.05843	1.114
Mof_O 	O 	0.25458	0.67657	0.08774	-0.394
Mof_O 	O 	0.38376	0.68644	0.03708	-0.422
Mof_O 	O 	0.3132	0.61611	0.03707	-0.465
Mof_N 	N 	0.344	0.662	0.1212	-0.224
Mof_O 	O 	0.3233	0.74529	0.0877	-0.392
Mof_C 	C 	0.21877	0.69757	0.08098	0.369
Mof_C 	C 	0.3782	0.6867	0.1361	0.537
Mof_C 	C 	0.3227	0.6364	0.1503	-0.819
Mof_C 	C 	0.30272	0.78103	0.08109	0.375
Mof_O 	O 	0.20983	0.72159	0.0478	-0.422
Mof_O 	O 	0.27835	0.79027	0.04762	-0.417
Mof_C 	C 	0.18271	0.69566	0.11663	-0.055
Mof_H 	H 	0.3908	0.7082	0.1174	-0.128
Mof_C 	C 	0.3947	0.6812	0.1776	-0.032
Mof_C 	C 	0.3418	0.6269	0.1899	-0.927
Mof_H 	H 	0.2945	0.625	0.1433	-0.542
Mof_C 	C 	0.30413	0.81724	0.11634	-0.081
Mof_C 	C 	0.18895	0.674	0.15651	-0.032
Mof_C 	C 	0.14283	0.717	0.11053	-0.029
Mof_C 	C 	0.4767	0.6873	0.03899	-0.011
Mof_C 	C 	0.3121	0.52321	0.03912	-0.002
Mof_C 	C 	0.3793	0.6462	0.2017	0.441
Mof_C 	C 	0.4296	0.7118	0.1948	0.319
Mof_H 	H 	0.3282	0.6065	0.2091	0.044
Mof_C 	C 	0.3266	0.8112	0.15613	0.009
Mof_C 	C 	0.2835	0.85717	0.11062	0.002
Mof_H 	H 	0.2159	0.6593	0.1619	0.09
Mof_H 	H 	0.1375	0.7321	0.0838	0.052
Mof_H 	H 	0.4615	0.6868	0.0662	0.053
Mof_H 	H 	0.3123	0.5384	0.0663	0.016
Mof_H 	H 	0.3952	0.6359	0.2264	-0.189
Mof_O 	O 	0.4506	0.7009	0.2293	-0.388
Mof_O 	O 	0.4477	0.7382	0.1676	-0.244
Mof_H 	H 	0.3425	0.7848	0.1609	0.062
Mof_H 	H 	0.2691	0.8628	0.0836	0.045
Mof_N 	N 	0.3408	0.6553	0.1188	0.015
Mof_C 	C 	0.3152	0.6217	0.1351	1.511
Mof_C 	C 	0.3208	0.6049	0.1772	0.209
Mof_C 	C 	0.3576	0.6196	0.201	0.794
Mof_C 	C 	0.3763	0.6587	0.1892	-0.339
Mof_C 	C 	0.3682	0.6769	0.148	-0.248
Mof_C 	C 	0.2906	0.5675	0.1944	0.253
Mof_O 	O 	0.299	0.5495	0.2296	-0.408
Mof_O 	O 	0.2618	0.5533	0.17	-0.26
Mof_Ni	Ni	0.68236	0.31764	0.05843	1.114
Mof_O 	O 	0.74542	0.32343	0.08774	-0.394
Mof_O 	O 	0.61624	0.31356	0.03708	-0.422
Mof_O 	O 	0.6868	0.38389	0.03707	-0.465
Mof_N 	N 	0.656	0.338	0.1212	-0.224
Mof_O 	O 	0.6767	0.25471	0.0877	-0.392
Mof_C 	C 	0.78123	0.30243	0.08098	0.371
Mof_C 	C 	0.6218	0.3133	0.1361	0.536
Mof_C 	C 	0.6773	0.3636	0.1503	-0.818
Mof_C 	C 	0.69728	0.21897	0.08109	0.374
Mof_O 	O 	0.79017	0.27841	0.0478	-0.421
Mof_O 	O 	0.72165	0.20973	0.04762	-0.418
Mof_C 	C 	0.81729	0.30434	0.11663	-0.057
Mof_H 	H 	0.6092	0.2918	0.1174	-0.129
Mof_C 	C 	0.6053	0.3188	0.1776	-0.033
Mof_C 	C 	0.6582	0.3731	0.1899	-0.926
Mof_H 	H 	0.7055	0.375	0.1433	-0.541
Mof_C 	C 	0.69587	0.18276	0.11634	-0.079
Mof_C 	C 	0.81105	0.326	0.15651	-0.028
Mof_C 	C 	0.85717	0.283	0.11053	-0.024
Mof_C 	C 	0.5233	0.3127	0.03899	-0.011
Mof_C 	C 	0.6879	0.47679	0.03912	-0.002
Mof_C 	C 	0.6207	0.3538	0.2017	0.441
Mof_C 	C 	0.5704	0.2882	0.1948	0.319
Mof_H 	H 	0.6718	0.3935	0.2091	0.044
Mof_C 	C 	0.6734	0.1888	0.15613	0.005
Mof_C 	C 	0.7165	0.14283	0.11062	-0.002
Mof_H 	H 	0.7841	0.3407	0.1619	0.089
Mof_H 	H 	0.8625	0.2679	0.0838	0.053
Mof_H 	H 	0.5385	0.3132	0.0662	0.053
Mof_H 	H 	0.6877	0.4616	0.0663	0.017
Mof_H 	H 	0.6048	0.3641	0.2264	-0.189
Mof_O 	O 	0.5494	0.2991	0.2293	-0.388
Mof_O 	O 	0.5523	0.2618	0.1676	-0.246
Mof_H 	H 	0.6575	0.2152	0.1609	0.062
Mof_H 	H 	0.7309	0.1372	0.0836	0.043
Mof_N 	N 	0.6592	0.3447	0.1188	0.015
Mof_C 	C 	0.6848	0.3783	0.1351	1.51
Mof_C 	C 	0.6792	0.3951	0.1772	0.209
Mof_C 	C 	0.6424	0.3804	0.201	0.793
Mof_C 	C 	0.6237	0.3413	0.1892	-0.339
Mof_C 	C 	0.6318	0.3231	0.148	-0.247
Mof_C 	C 	0.7094	0.4325	0.1944	0.252
Mof_O 	O 	0.701	0.4505	0.2296	-0.408
Mof_O 	O 	0.7382	0.4467	0.17	-0.258
Mof_Ni	Ni	0.31764	0.31764	0.94157	1.119
Mof_O 	O 	0.25458	0.32343	0.91226	-0.389
Mof_O 	O 	0.38376	0.31356	0.96292	-0.402
Mof_O 	O 	0.3132	0.38389	0.96293	-0.445
Mof_N 	N 	0.344	0.338	0.8788	-0.221
Mof_O 	O 	0.3233	0.25471	0.9123	-0.388
Mof_C 	C 	0.21877	0.30243	0.91902	0.367
Mof_C 	C 	0.3782	0.3133	0.8639	0.531
Mof_C 	C 	0.3227	0.3636	0.8497	-0.804
Mof_C 	C 	0.30272	0.21897	0.91891	0.372
Mof_O 	O 	0.20983	0.27841	0.9522	-0.406
Mof_O 	O 	0.27835	0.20973	0.95238	-0.402
Mof_C 	C 	0.18271	0.30434	0.88337	-0.049
Mof_H 	H 	0.3908	0.2918	0.8826	-0.125
Mof_C 	C 	0.3947	0.3188	0.8224	-0.032
Mof_C 	C 	0.3418	0.3731	0.8101	-0.914
Mof_H 	H 	0.2945	0.375	0.8567	-0.533
Mof_C 	C 	0.30413	0.18276	0.88366	-0.073
Mof_C 	C 	0.18895	0.326	0.84349	-0.034
Mof_C 	C 	0.14283	0.283	0.88947	-0.032
Mof_C 	C 	0.4767	0.3127	0.96101	0.011
Mof_C 	C 	0.3121	0.47679	0.96088	0.02
Mof_C 	C 	0.3793	0.3538	0.7983	0.436
Mof_C 	C 	0.4296	0.2882	0.8052	0.319
Mof_H 	H 	0.3282	0.3935	0.7909	0.045
Mof_C 	C 	0.3266	0.1888	0.84387	0.003
Mof_C 	C 	0.2835	0.14283	0.88938	-0.006
Mof_H 	H 	0.2159	0.3407	0.8381	0.091
Mof_H 	H 	0.1375	0.2679	0.9162	0.058
Mof_H 	H 	0.4615	0.3132	0.9338	0.05
Mof_H 	H 	0.3123	0.4616	0.9337	0.014
Mof_H 	H 	0.3952	0.3641	0.7736	-0.186
Mof_O 	O 	0.4506	0.2991	0.7707	-0.388
Mof_O 	O 	0.4477	0.2618	0.8324	-0.243
Mof_H 	H 	0.3425	0.2152	0.8391	0.064
Mof_H 	H 	0.2691	0.1372	0.9164	0.05
Mof_N 	N 	0.3408	0.3447	0.8812	0.013
Mof_C 	C 	0.3152	0.3783	0.8649	1.488
Mof_C 	C 	0.3208	0.3951	0.8228	0.204
Mof_C 	C 	0.3576	0.3804	0.799	0.782
Mof_C 	C 	0.3763	0.3413	0.8108	-0.335
Mof_C 	C 	0.3682	0.3231	0.852	-0.245
Mof_C 	C 	0.2906	0.4325	0.8056	0.255
Mof_O 	O 	0.299	0.4505	0.7704	-0.408
Mof_O 	O 	0.2618	0.4467	0.83	-0.257
Mof_O 	O 	-6.49442e-33	0.2946	0.29446	-0.579
Mof_Ni	Ni	2.82801e-33	0.2476	0.24761	1.113
Mof_C 	C 	1.17244e-33	0.40199	0.3127	0.377
Mof_C 	C 	5.30694e-33	0.3127	0.40212	0.402
Mof_C 	C 	8.76753e-33	0.4525	0.3118	-0.105
Mof_C 	C 	-2.10188e-33	0.3118	0.4527	-0.134
Mof_O 	O 	4.90328e-33	0.7054	0.29446	-0.579
Mof_Ni	Ni	-2.87085e-33	0.7524	0.24761	1.114
Mof_C 	C 	1.63694e-32	0.59801	0.3127	0.377
Mof_C 	C 	-2.29153e-33	0.6873	0.40212	0.402
Mof_C 	C 	1.16906e-33	0.5475	0.3118	-0.105
Mof_C 	C 	-2.10188e-33	0.6882	0.4527	-0.133
Mof_O 	O 	-4.95312e-33	0.2946	0.70554	-0.579
Mof_Ni	Ni	2.82101e-33	0.2476	0.75239	1.114
Mof_C 	C 	-5.02151e-33	0.40199	0.6873	0.378
Mof_C 	C 	-5.35678e-33	0.3127	0.59788	0.402
Mof_C 	C 	2.58034e-33	0.4525	0.6882	-0.105
Mof_C 	C 	-1.74719e-33	0.3118	0.5473	-0.134
Mof_O 	O 	-4.95312e-33	0.7054	0.70554	-0.579
Mof_Ni	Ni	1.80179e-32	0.7524	0.75239	1.114
Mof_C 	C 	1.01754e-32	0.59801	0.6873	0.378
Mof_C 	C 	2.24169e-33	0.6873	0.59788	0.402
Mof_C 	C 	2.58034e-33	0.5475	0.6882	-0.105
Mof_C 	C 	9.65051e-33	0.6882	0.5473	-0.133
Mof_O 	O 	0.29446	0	0.2946	-0.579
Mof_Ni	Ni	0.24761	0	0.2476	1.113
Mof_C 	C 	0.3127	3.79923e-33	0.40199	0.377
Mof_C 	C 	0.40212	0	0.3127	0.402
Mof_C 	C 	0.3118	3.79923e-33	0.4525	-0.105
Mof_C 	C 	0.4527	0	0.3118	-0.134
Mof_O 	O 	0.29446	0	0.7054	-0.579
Mof_Ni	Ni	0.24761	0	0.7524	1.114
Mof_C 	C 	0.3127	0	0.59801	0.377
Mof_C 	C 	0.40212	0	0.6873	0.402
Mof_C 	C 	0.3118	0	0.5475	-0.105
Mof_C 	C 	0.4527	7.59847e-33	0.6882	-0.133
Mof_O 	O 	0.70554	0	0.2946	-0.579
Mof_Ni	Ni	0.75239	0	0.2476	1.114
Mof_C 	C 	0.6873	3.79923e-33	0.40199	0.378
Mof_C 	C 	0.59788	0	0.3127	0.402
Mof_C 	C 	0.6882	3.79923e-33	0.4525	-0.105
Mof_C 	C 	0.5473	0	0.3118	-0.134
Mof_O 	O 	0.70554	0	0.7054	-0.579
Mof_Ni	Ni	0.75239	0	0.7524	1.114
Mof_C 	C 	0.6873	0	0.59801	0.378
Mof_C 	C 	0.59788	0	0.6873	0.402
Mof_C 	C 	0.6882	0	0.5475	-0.105
Mof_C 	C 	0.5473	7.59847e-33	0.6882	-0.133
Mof_O 	O 	0.2946	0.29446	-0	-0.579
Mof_Ni	Ni	0.2476	0.24761	-0	1.113
Mof_C 	C 	0.40199	0.3127	-0	0.377
Mof_C 	C 	0.3127	0.40212	-0	0.402
Mof_C 	C 	0.4525	0.3118	-0	-0.105
Mof_C 	C 	0.3118	0.4527	-0	-0.134
Mof_O 	O 	0.7054	0.29446	-0	-0.579
Mof_Ni	Ni	0.7524	0.24761	-0	1.114
Mof_C 	C 	0.59801	0.3127	-0	0.377
Mof_C 	C 	0.6873	0.40212	-0	0.402
Mof_C 	C 	0.5475	0.3118	-0	-0.105
Mof_C 	C 	0.6882	0.4527	-0	-0.133
Mof_O 	O 	0.2946	0.70554	-0	-0.579
Mof_Ni	Ni	0.2476	0.75239	-0	1.114
Mof_C 	C 	0.40199	0.6873	-0	0.378
Mof_C 	C 	0.3127	0.59788	-0	0.402
Mof_C 	C 	0.4525	0.6882	-0	-0.105
Mof_C 	C 	0.3118	0.5473	-0	-0.134
Mof_O 	O 	0.7054	0.70554	-0	-0.579
Mof_Ni	Ni	0.7524	0.75239	-0	1.114
Mof_C 	C 	0.59801	0.6873	-0	0.378
Mof_C 	C 	0.6873	0.59788	-0	0.402
Mof_C 	C 	0.5475	0.6882	-0	-0.105
Mof_C 	C 	0.6882	0.5473	-0	-0.133
Mof_Ni	Ni	0.26428	0.5	0.26432	1.093
Mof_Ni	Ni	0.73572	0.5	0.26432	1.093
Mof_Ni	Ni	0.73572	0.5	0.73568	1.093
Mof_Ni	Ni	0.26428	0.5	0.73568	1.093
Mof_Ni	Ni	0.26432	0.26428	0.5	1.093
Mof_Ni	Ni	0.26432	0.73572	0.5	1.093
Mof_Ni	Ni	0.73568	0.73572	0.5	1.093
Mof_Ni	Ni	0.73568	0.26428	0.5	1.093
Mof_Ni	Ni	0.5	0.26432	0.26428	1.093
Mof_Ni	Ni	0.5	0.26432	0.73572	1.093
Mof_Ni	Ni	0.5	0.73568	0.73572	1.093
Mof_Ni	Ni	0.5	0.73568	0.26428	1.093
_end
