data_functionalizedCrystal
_audit_creation_method	'EQeq! by Chris Wilmer'
_symmetry_space_group_name_H-M	'P1'
_symmetry_Int_Tables_number	1
_symmetry_cell_setting	triclinic
loop_
_symmetry_equiv_pos_as_xyz
  x,y,z
_cell_length_a	16.49
_cell_length_b	16.49
_cell_length_c	15.356
_cell_angle_alpha	90
_cell_angle_beta	90
_cell_angle_gamma	120
loop_
_atom_site_label
_atom_site_type_symbol
_atom_site_fract_x
_atom_site_fract_y
_atom_site_fract_z
_atom_site_charge
Mof_O 	O 	0.3456	0.5189	0.6565	-0.389
Mof_C 	C 	0.4096	0.4477	0.5309	-0.016
Mof_H 	H 	0.3476	0.4126	0.5488	0.048
Mof_H 	H 	0.1483	0.3619	0.787	-0.209
Mof_O 	O 	0.4811	0.8267	0.6565	-0.388
Mof_C 	C 	0.5523	0.9619	0.5309	-0.018
Mof_H 	H 	0.5874	0.935	0.5488	0.05
Mof_H 	H 	0.6381	0.7864	0.787	-0.204
Mof_O 	O 	0.1733	0.6544	0.6565	-0.388
Mof_C 	C 	0.0381	0.5904	0.5309	-0.012
Mof_H 	H 	0.065	0.6524	0.5488	0.048
Mof_H 	H 	0.2136	0.8517	0.787	-0.201
Mof_O 	O 	0.6544	0.4811	0.1565	-0.388
Mof_C 	C 	0.5904	0.5523	0.0309	-0.015
Mof_H 	H 	0.6524	0.5874	0.0488	0.049
Mof_H 	H 	0.8517	0.6381	0.287	-0.205
Mof_O 	O 	0.5189	0.1733	0.1565	-0.388
Mof_C 	C 	0.4477	0.0381	0.0309	-0.012
Mof_H 	H 	0.4126	0.065	0.0488	0.048
Mof_H 	H 	0.3619	0.2136	0.287	-0.201
Mof_O 	O 	0.8267	0.3456	0.1565	-0.388
Mof_C 	C 	0.9619	0.4096	0.0309	-0.017
Mof_H 	H 	0.935	0.3476	0.0488	0.05
Mof_H 	H 	0.7864	0.1483	0.287	-0.208
Mof_O 	O 	0.5189	0.3456	0.3435	-0.388
Mof_C 	C 	0.4477	0.4096	0.4691	-0.015
Mof_H 	H 	0.4126	0.3476	0.4512	0.049
Mof_H 	H 	0.3619	0.1483	0.213	-0.208
Mof_O 	O 	0.8267	0.4811	0.3435	-0.388
Mof_C 	C 	0.9619	0.5523	0.4691	-0.018
Mof_H 	H 	0.935	0.5874	0.4512	0.05
Mof_H 	H 	0.7864	0.6381	0.213	-0.204
Mof_O 	O 	0.6544	0.1733	0.3435	-0.388
Mof_C 	C 	0.5904	0.0381	0.4691	-0.012
Mof_H 	H 	0.6524	0.065	0.4512	0.048
Mof_H 	H 	0.8517	0.2136	0.213	-0.201
Mof_O 	O 	0.4811	0.6544	0.8435	-0.388
Mof_C 	C 	0.5523	0.5904	0.9691	-0.015
Mof_H 	H 	0.5874	0.6524	0.9512	0.049
Mof_H 	H 	0.6381	0.8517	0.713	-0.205
Mof_O 	O 	0.1733	0.5189	0.8435	-0.388
Mof_C 	C 	0.0381	0.4477	0.9691	-0.012
Mof_H 	H 	0.065	0.4126	0.9512	0.048
Mof_H 	H 	0.2136	0.3619	0.713	-0.201
Mof_O 	O 	0.3456	0.8267	0.8435	-0.388
Mof_C 	C 	0.4096	0.9619	0.9691	-0.017
Mof_H 	H 	0.3476	0.935	0.9512	0.05
Mof_H 	H 	0.1483	0.7864	0.713	-0.208
Mof_O 	O 	0.6544	0.4811	0.3435	-0.388
Mof_C 	C 	0.5904	0.5523	0.4691	-0.015
Mof_H 	H 	0.6524	0.5874	0.4512	0.049
Mof_H 	H 	0.8517	0.6381	0.213	-0.205
Mof_O 	O 	0.5189	0.1733	0.3435	-0.388
Mof_C 	C 	0.4477	0.0381	0.4691	-0.012
Mof_H 	H 	0.4126	0.065	0.4512	0.048
Mof_H 	H 	0.3619	0.2136	0.213	-0.201
Mof_O 	O 	0.8267	0.3456	0.3435	-0.388
Mof_C 	C 	0.9619	0.4096	0.4691	-0.018
Mof_H 	H 	0.935	0.3476	0.4512	0.05
Mof_H 	H 	0.7864	0.1483	0.213	-0.208
Mof_O 	O 	0.3456	0.5189	0.8435	-0.388
Mof_C 	C 	0.4096	0.4477	0.9691	-0.015
Mof_H 	H 	0.3476	0.4126	0.9512	0.049
Mof_H 	H 	0.1483	0.3619	0.713	-0.208
Mof_O 	O 	0.4811	0.8267	0.8435	-0.388
Mof_C 	C 	0.5523	0.9619	0.9691	-0.018
Mof_H 	H 	0.5874	0.935	0.9512	0.05
Mof_H 	H 	0.6381	0.7864	0.713	-0.204
Mof_O 	O 	0.1733	0.6544	0.8435	-0.388
Mof_C 	C 	0.0381	0.5904	0.9691	-0.012
Mof_H 	H 	0.065	0.6524	0.9512	0.048
Mof_H 	H 	0.2136	0.8517	0.713	-0.201
Mof_O 	O 	0.4811	0.6544	0.6565	-0.388
Mof_C 	C 	0.5523	0.5904	0.5309	-0.015
Mof_H 	H 	0.5874	0.6524	0.5488	0.049
Mof_H 	H 	0.6381	0.8517	0.787	-0.205
Mof_O 	O 	0.1733	0.5189	0.6565	-0.388
Mof_C 	C 	0.0381	0.4477	0.5309	-0.012
Mof_H 	H 	0.065	0.4126	0.5488	0.048
Mof_H 	H 	0.2136	0.3619	0.787	-0.201
Mof_O 	O 	0.3456	0.8267	0.6565	-0.388
Mof_C 	C 	0.4096	0.9619	0.5309	-0.018
Mof_H 	H 	0.3476	0.935	0.5488	0.05
Mof_H 	H 	0.1483	0.7864	0.787	-0.208
Mof_O 	O 	0.5189	0.3456	0.1565	-0.388
Mof_C 	C 	0.4477	0.4096	0.0309	-0.015
Mof_H 	H 	0.4126	0.3476	0.0488	0.049
Mof_H 	H 	0.3619	0.1483	0.287	-0.208
Mof_O 	O 	0.8267	0.4811	0.1565	-0.388
Mof_C 	C 	0.9619	0.5523	0.0309	-0.018
Mof_H 	H 	0.935	0.5874	0.0488	0.05
Mof_H 	H 	0.7864	0.6381	0.287	-0.204
Mof_O 	O 	0.6544	0.1733	0.1565	-0.388
Mof_C 	C 	0.5904	0.0381	0.0309	-0.012
Mof_H 	H 	0.6524	0.065	0.0488	0.048
Mof_H 	H 	0.8517	0.2136	0.287	-0.201
Mof_Fe	Fe	0.26663	0.53327	0.75	0.996
Mof_N 	N 	0.1922	0.3844	0.75	-0.025
Mof_C 	C 	0.0953	0.1906	0.75	0.497
Mof_C 	C 	0.04245	0.0849	0.75	-0.123
Mof_Fe	Fe	0.46673	0.73337	0.75	0.996
Mof_N 	N 	0.6156	0.8078	0.75	-0.025
Mof_C 	C 	0.8094	0.9047	0.75	0.499
Mof_C 	C 	0.9151	0.95755	0.75	-0.125
Mof_Fe	Fe	0.26663	0.73337	0.75	0.996
Mof_N 	N 	0.1922	0.8078	0.75	-0.025
Mof_C 	C 	0.0953	0.9047	0.75	0.498
Mof_C 	C 	0.04245	0.95755	0.75	-0.123
Mof_Fe	Fe	0.73337	0.46673	0.25	0.996
Mof_N 	N 	0.8078	0.6156	0.25	-0.025
Mof_C 	C 	0.9047	0.8094	0.25	0.499
Mof_C 	C 	0.95755	0.9151	0.25	-0.125
Mof_Fe	Fe	0.53327	0.26663	0.25	0.996
Mof_N 	N 	0.3844	0.1922	0.25	-0.025
Mof_C 	C 	0.1906	0.0953	0.25	0.497
Mof_C 	C 	0.0849	0.04245	0.25	-0.123
Mof_Fe	Fe	0.73337	0.26663	0.25	0.996
Mof_N 	N 	0.8078	0.1922	0.25	-0.025
Mof_C 	C 	0.9047	0.0953	0.25	0.498
Mof_C 	C 	0.95755	0.04245	0.25	-0.123
Mof_O 	O 	0.33333	0.66667	0.75	-0.557
Mof_O 	O 	0.66667	0.33333	0.25	-0.557
Mof_C 	C 	0.4274	0.5726	0.6309	0.391
Mof_C 	C 	0.4651	0.5349	0.5626	-0.084
Mof_C 	C 	0.4274	0.8548	0.6309	0.39
Mof_C 	C 	0.4651	0.9302	0.5626	-0.082
Mof_C 	C 	0.1452	0.5726	0.6309	0.392
Mof_C 	C 	0.0698	0.5349	0.5626	-0.086
Mof_C 	C 	0.5726	0.4274	0.1309	0.391
Mof_C 	C 	0.5349	0.4651	0.0626	-0.084
Mof_C 	C 	0.5726	0.1452	0.1309	0.392
Mof_C 	C 	0.5349	0.0698	0.0626	-0.086
Mof_C 	C 	0.8548	0.4274	0.1309	0.39
Mof_C 	C 	0.9302	0.4651	0.0626	-0.082
Mof_C 	C 	0.5726	0.4274	0.3691	0.391
Mof_C 	C 	0.5349	0.4651	0.4374	-0.084
Mof_C 	C 	0.8548	0.4274	0.3691	0.39
Mof_C 	C 	0.9302	0.4651	0.4374	-0.082
Mof_C 	C 	0.5726	0.1452	0.3691	0.392
Mof_C 	C 	0.5349	0.0698	0.4374	-0.086
Mof_C 	C 	0.4274	0.5726	0.8691	0.391
Mof_C 	C 	0.4651	0.5349	0.9374	-0.084
Mof_C 	C 	0.1452	0.5726	0.8691	0.392
Mof_C 	C 	0.0698	0.5349	0.9374	-0.086
Mof_C 	C 	0.4274	0.8548	0.8691	0.39
Mof_C 	C 	0.4651	0.9302	0.9374	-0.082
Mof_C 	C 	0.2391	0.336	0.75	0.352
Mof_H 	H 	0.3042	0.3687	0.75	-0.073
Mof_C 	C 	0.1921	0.2397	0.75	-0.315
Mof_H 	H 	0.2253	0.2078	0.75	0.134
Mof_C 	C 	0.664	0.9031	0.75	0.364
Mof_H 	H 	0.6313	0.9355	0.75	-0.077
Mof_C 	C 	0.7603	0.9524	0.75	-0.322
Mof_H 	H 	0.7922	0.0175	0.75	0.136
Mof_C 	C 	0.0969	0.7609	0.75	0.371
Mof_H 	H 	0.0645	0.6958	0.75	-0.079
Mof_C 	C 	0.0476	0.8079	0.75	-0.321
Mof_H 	H 	0.9825	0.7747	0.75	0.135
Mof_C 	C 	0.7609	0.664	0.25	0.363
Mof_H 	H 	0.6958	0.6313	0.25	-0.077
Mof_C 	C 	0.8079	0.7603	0.25	-0.322
Mof_H 	H 	0.7747	0.7922	0.25	0.136
Mof_C 	C 	0.336	0.0969	0.25	0.371
Mof_H 	H 	0.3687	0.0645	0.25	-0.079
Mof_C 	C 	0.2397	0.0476	0.25	-0.321
Mof_H 	H 	0.2078	0.9825	0.25	0.135
Mof_C 	C 	0.9031	0.2391	0.25	0.352
Mof_H 	H 	0.9355	0.3042	0.25	-0.073
Mof_C 	C 	0.9524	0.1921	0.25	-0.315
Mof_H 	H 	0.0175	0.2253	0.25	0.134
Mof_C 	C 	0.336	0.2391	0.25	0.352
Mof_H 	H 	0.3687	0.3042	0.25	-0.073
Mof_C 	C 	0.2397	0.1921	0.25	-0.315
Mof_H 	H 	0.2078	0.2253	0.25	0.134
Mof_C 	C 	0.9031	0.664	0.25	0.364
Mof_H 	H 	0.9355	0.6313	0.25	-0.077
Mof_C 	C 	0.9524	0.7603	0.25	-0.322
Mof_H 	H 	0.0175	0.7922	0.25	0.136
Mof_C 	C 	0.7609	0.0969	0.25	0.371
Mof_H 	H 	0.6958	0.0645	0.25	-0.079
Mof_C 	C 	0.8079	0.0476	0.25	-0.321
Mof_H 	H 	0.7747	0.9825	0.25	0.135
Mof_C 	C 	0.664	0.7609	0.75	0.363
Mof_H 	H 	0.6313	0.6958	0.75	-0.077
Mof_C 	C 	0.7603	0.8079	0.75	-0.322
Mof_H 	H 	0.7922	0.7747	0.75	0.136
Mof_C 	C 	0.0969	0.336	0.75	0.371
Mof_H 	H 	0.0645	0.3687	0.75	-0.079
Mof_C 	C 	0.0476	0.2397	0.75	-0.321
Mof_H 	H 	0.9825	0.2078	0.75	0.135
Mof_C 	C 	0.2391	0.9031	0.75	0.352
Mof_H 	H 	0.3042	0.9355	0.75	-0.073
Mof_C 	C 	0.1921	0.9524	0.75	-0.315
Mof_H 	H 	0.2253	0.0175	0.75	0.134
Mof_N 	N 	-0	-1.39614e-32	0.75	-0.015
Mof_N 	N 	-1.74518e-33	-3.49036e-33	0.25	-0.015
Mof_C 	C 	0.16815	0.3363	0.6737	0.517
Mof_H 	H 	0.1846	0.3692	0.6215	-0.13
Mof_C 	C 	0.1198	0.2396	0.6721	-0.43
Mof_H 	H 	0.10385	0.2077	0.6193	0.174
Mof_C 	C 	0.6637	0.83185	0.6737	0.515
Mof_H 	H 	0.6308	0.8154	0.6215	-0.129
Mof_C 	C 	0.7604	0.8802	0.6721	-0.427
Mof_H 	H 	0.7923	0.89615	0.6193	0.172
Mof_C 	C 	0.16815	0.83185	0.6737	0.517
Mof_H 	H 	0.1846	0.8154	0.6215	-0.13
Mof_C 	C 	0.1198	0.8802	0.6721	-0.429
Mof_H 	H 	0.10385	0.89615	0.6193	0.173
Mof_C 	C 	0.83185	0.6637	0.1737	0.515
Mof_H 	H 	0.8154	0.6308	0.1215	-0.129
Mof_C 	C 	0.8802	0.7604	0.1721	-0.427
Mof_H 	H 	0.89615	0.7923	0.1193	0.172
Mof_C 	C 	0.3363	0.16815	0.1737	0.517
Mof_H 	H 	0.3692	0.1846	0.1215	-0.13
Mof_C 	C 	0.2396	0.1198	0.1721	-0.43
Mof_H 	H 	0.2077	0.10385	0.1193	0.174
Mof_C 	C 	0.83185	0.16815	0.1737	0.517
Mof_H 	H 	0.8154	0.1846	0.1215	-0.129
Mof_C 	C 	0.8802	0.1198	0.1721	-0.429
Mof_H 	H 	0.89615	0.10385	0.1193	0.174
Mof_C 	C 	0.3363	0.16815	0.3263	0.517
Mof_H 	H 	0.3692	0.1846	0.3785	-0.13
Mof_C 	C 	0.2396	0.1198	0.3279	-0.43
Mof_H 	H 	0.2077	0.10385	0.3807	0.174
Mof_C 	C 	0.83185	0.6637	0.3263	0.515
Mof_H 	H 	0.8154	0.6308	0.3785	-0.129
Mof_C 	C 	0.8802	0.7604	0.3279	-0.427
Mof_H 	H 	0.89615	0.7923	0.3807	0.172
Mof_C 	C 	0.83185	0.16815	0.3263	0.517
Mof_H 	H 	0.8154	0.1846	0.3785	-0.13
Mof_C 	C 	0.8802	0.1198	0.3279	-0.429
Mof_H 	H 	0.89615	0.10385	0.3807	0.173
Mof_C 	C 	0.6637	0.83185	0.8263	0.515
Mof_H 	H 	0.6308	0.8154	0.8785	-0.129
Mof_C 	C 	0.7604	0.8802	0.8279	-0.427
Mof_H 	H 	0.7923	0.89615	0.8807	0.172
Mof_C 	C 	0.16815	0.3363	0.8263	0.517
Mof_H 	H 	0.1846	0.3692	0.8785	-0.13
Mof_C 	C 	0.1198	0.2396	0.8279	-0.43
Mof_H 	H 	0.10385	0.2077	0.8807	0.174
Mof_C 	C 	0.16815	0.83185	0.8263	0.517
Mof_H 	H 	0.1846	0.8154	0.8785	-0.129
Mof_C 	C 	0.1198	0.8802	0.8279	-0.429
Mof_H 	H 	0.10385	0.89615	0.8807	0.174
_end
