data_functionalizedCrystal
_audit_creation_method	'EQeq! by Chris Wilmer'
_symmetry_space_group_name_H-M	'P1'
_symmetry_Int_Tables_number	1
_symmetry_cell_setting	triclinic
loop_
_symmetry_equiv_pos_as_xyz
  x,y,z
_cell_length_a	15.0089
_cell_length_b	15.3987
_cell_length_c	15.5691
_cell_angle_alpha	67.873
_cell_angle_beta	64.609
_cell_angle_gamma	68.959
loop_
_atom_site_label
_atom_site_type_symbol
_atom_site_fract_x
_atom_site_fract_y
_atom_site_fract_z
_atom_site_charge
Mof_C 	C 	0.66637	0.52342	0.13609	-0.978
Mof_Co	Co	0.25468	0.92503	0.9764	1.181
Mof_B 	B 	0.64147	0.63903	0.06644	0.715
Mof_H 	H 	0.5738	0.6732	0.0418	-0.246
Mof_B 	B 	0.74264	0.55095	0.01404	0.135
Mof_H 	H 	0.742	0.5259	0.9555	-0.074
Mof_B 	B 	0.79465	0.47008	0.10639	0.934
Mof_H 	H 	0.8286	0.3919	0.1083	-0.308
Mof_B 	B 	0.72377	0.50856	0.2166	0.184
Mof_H 	H 	0.7107	0.4557	0.2911	-0.103
Mof_B 	B 	0.62932	0.6142	0.19168	0.756
Mof_H 	H 	0.554	0.6324	0.2493	-0.255
Mof_B 	B 	0.76046	0.66685	0.99092	0.223
Mof_H 	H 	0.7716	0.7202	0.9168	-0.101
Mof_B 	B 	0.85634	0.56207	0.01488	-0.414
Mof_H 	H 	0.9314	0.5455	0.9562	0.068
Mof_B 	B 	0.84424	0.53485	0.1412	-0.377
Mof_H 	H 	0.9118	0.4996	0.1661	0.05
Mof_B 	B 	0.74218	0.62382	0.19401	0.154
Mof_H 	H 	0.7419	0.6485	0.2532	-0.078
Mof_C 	C 	0.69349	0.69726	0.10177	-0.862
Mof_B 	B 	0.82362	0.65696	0.06992	0.87
Mof_H 	H 	0.8766	0.7036	0.0477	-0.283
Mof_C 	C 	0.64877	0.80677	0.09694	0.393
Mof_H 	H 	0.701	0.8431	0.0464	-0.084
Mof_O 	O 	0.62528	0.82106	0.18941	-0.459
Mof_H 	H 	0.645	0.8692	0.1811	0.28
Mof_C 	C 	0.55466	0.84416	0.06724	-0.094
Mof_C 	C 	0.46012	0.83674	0.13842	-0.031
Mof_H 	H 	0.4525	0.8144	0.2064	0.052
Mof_C 	C 	0.37711	0.86226	0.10922	0.023
Mof_H 	H 	0.3129	0.856	0.1584	0.028
Mof_N 	N 	0.3837	0.8958	0.01351	-0.214
Mof_C 	C 	0.4744	0.90787	0.94562	0.035
Mof_H 	H 	0.4792	0.9344	0.8784	0.02
Mof_C 	C 	0.56148	0.88347	0.9688	-0.022
Mof_H 	H 	0.6242	0.8934	0.9186	0.043
Mof_C 	C 	0.58585	0.46523	0.17095	0.888
Mof_H 	H 	0.5636	0.4442	0.2446	-0.608
Mof_O 	O 	0.4995	0.5216	0.1469	0.489
Mof_H 	H 	0.449	0.4996	0.1884	-0.108
Mof_C 	C 	0.62638	0.3736	0.13629	-0.287
Mof_C 	C 	0.61731	0.37261	0.05171	0.102
Mof_H 	H 	0.5892	0.4306	0.0115	-0.02
Mof_C 	C 	0.64946	0.28638	0.02618	-0.078
Mof_H 	H 	0.6423	0.2873	0.9681	0.054
Mof_N 	N 	0.68994	0.20209	0.07908	-0.185
Mof_C 	C 	0.69995	0.20338	0.16029	-0.042
Mof_H 	H 	0.73	0.1447	0.1983	0.036
Mof_C 	C 	0.6684	0.28663	0.19132	0.092
Mof_H 	H 	0.6757	0.2838	0.2501	-0.009
Mof_O 	O 	0.18301	0.83981	0.10824	-0.428
Mof_C 	C 	0.10582	0.81473	0.12029	0.364
Mof_O 	O 	0.04271	0.86144	0.07678	-0.43
Mof_C 	C 	0.08975	0.71873	0.19084	-0.107
Mof_C 	C 	0.01405	0.6825	0.19749	-0.002
Mof_H 	H 	0.9693	0.7207	0.1615	0.056
Mof_C 	C 	0.00328	0.59073	0.25645	-0.137
Mof_H 	H 	0.9512	0.5666	0.2604	0.076
Mof_C 	C 	0.06856	0.53324	0.3102	0.042
Mof_C 	C 	0.14107	0.57252	0.30715	-0.106
Mof_H 	H 	0.1829	0.5363	0.3465	0.06
Mof_C 	C 	0.15243	0.66388	0.2471	0.028
Mof_H 	H 	0.2031	0.6891	0.2443	0.026
Mof_C 	C 	0.06799	0.43	0.35961	0.017
Mof_C 	C 	0.05661	0.37783	0.3096	-0.093
Mof_H 	H 	0.0413	0.4108	0.2505	0.038
Mof_C 	C 	0.06743	0.27818	0.34538	0.015
Mof_C 	C 	0.08679	0.23148	0.43391	-0.097
Mof_H 	H 	0.0938	0.1637	0.459	0.054
Mof_C 	C 	0.09611	0.28184	0.48644	0.029
Mof_C 	C 	0.08744	0.38176	0.44828	-0.097
Mof_H 	H 	0.0948	0.4168	0.4828	0.056
Mof_C 	C 	0.07001	0.22211	0.28435	0.042
Mof_C 	C 	0.00143	0.25354	0.2342	-0.143
Mof_H 	H 	0.949	0.3104	0.2416	0.077
Mof_C 	C 	0.00933	0.20217	0.17349	-0.01
Mof_H 	H 	0.9606	0.2222	0.142	0.056
Mof_C 	C 	0.08912	0.12094	0.15882	-0.115
Mof_C 	C 	0.15753	0.08887	0.20886	0.027
Mof_H 	H 	0.2116	0.0335	0.1993	0.012
Mof_C 	C 	0.14659	0.1381	0.2729	-0.114
Mof_H 	H 	0.1915	0.1144	0.3092	0.059
Mof_C 	C 	0.10471	0.06838	0.0871	0.37
Mof_O 	O 	0.02699	0.05857	0.08369	-0.448
Mof_O 	O 	0.19627	0.03887	0.03741	-0.454
Mof_C 	C 	0.12152	0.22621	0.57728	0.027
Mof_C 	C 	0.0758	0.15004	0.64202	-0.091
Mof_H 	H 	0.0245	0.1386	0.6302	0.049
Mof_C 	C 	0.10429	0.09076	0.72357	0.011
Mof_H 	H 	0.0722	0.0396	0.7672	0.019
Mof_C 	C 	0.18028	0.10686	0.74082	-0.1
Mof_C 	C 	0.22609	0.18326	0.67692	0.014
Mof_H 	H 	0.2778	0.1944	0.6885	0.034
Mof_C 	C 	0.19623	0.2427	0.59671	-0.091
Mof_H 	H 	0.2267	0.2952	0.5544	0.055
Mof_C 	C 	0.21196	0.04063	0.82621	0.286
Mof_O 	O 	0.15347	0.98778	0.89536	-0.451
Mof_O 	O 	0.29733	0.0321	0.82994	-0.397
Mof_H 	H 	0.5327	0.5079	0.1408	-0.666
Mof_O 	O 	0.5391	0.4481	0.2701	0.407
Mof_H 	H 	0.4772	0.4531	0.2842	-0.075
Mof_C 	C 	0.33363	0.47658	0.86391	-1.015
Mof_Co	Co	0.74532	0.07497	0.0236	1.144
Mof_B 	B 	0.35853	0.36097	0.93356	0.828
Mof_H 	H 	0.4262	0.3268	0.9582	-0.27
Mof_B 	B 	0.25736	0.44905	0.98596	0.263
Mof_H 	H 	0.258	0.4741	0.0445	-0.128
Mof_B 	B 	0.20535	0.52992	0.89361	0.804
Mof_H 	H 	0.1714	0.6081	0.8917	-0.273
Mof_B 	B 	0.27623	0.49144	0.7834	0.348
Mof_H 	H 	0.2893	0.5443	0.7089	-0.149
Mof_B 	B 	0.37068	0.3858	0.80832	0.652
Mof_H 	H 	0.446	0.3676	0.7507	-0.227
Mof_B 	B 	0.23954	0.33315	0.00908	-0.073
Mof_H 	H 	0.2284	0.2798	0.0832	-0.023
Mof_B 	B 	0.14366	0.43793	0.98512	-0.236
Mof_H 	H 	0.0686	0.4545	0.0438	-0.012
Mof_B 	B 	0.15576	0.46515	0.8588	-0.48
Mof_H 	H 	0.0882	0.5004	0.8339	0.065
Mof_B 	B 	0.25782	0.37618	0.80599	0.109
Mof_H 	H 	0.2581	0.3515	0.7468	-0.068
Mof_C 	C 	0.30651	0.30274	0.89823	-0.795
Mof_B 	B 	0.17638	0.34304	0.93008	0.962
Mof_H 	H 	0.1234	0.2964	0.9523	-0.307
Mof_C 	C 	0.35123	0.19323	0.90306	0.355
Mof_H 	H 	0.299	0.1569	0.9536	-0.067
Mof_O 	O 	0.37472	0.17894	0.81059	-0.454
Mof_H 	H 	0.355	0.1308	0.8189	0.268
Mof_C 	C 	0.44534	0.15584	0.93276	-0.055
Mof_C 	C 	0.53988	0.16326	0.86158	-0.058
Mof_H 	H 	0.5475	0.1856	0.7936	0.052
Mof_C 	C 	0.62289	0.13774	0.89078	0.024
Mof_H 	H 	0.6871	0.144	0.8416	0.015
Mof_N 	N 	0.6163	0.1042	0.98649	-0.211
Mof_C 	C 	0.5256	0.09213	0.05438	0.013
Mof_H 	H 	0.5208	0.0656	0.1216	0.002
Mof_C 	C 	0.43852	0.11653	0.0312	-0.076
Mof_H 	H 	0.3758	0.1066	0.0814	0.044
Mof_C 	C 	0.41415	0.53477	0.82905	0.893
Mof_H 	H 	0.4364	0.5558	0.7554	-0.606
Mof_O 	O 	0.5005	0.4784	0.8531	0.483
Mof_H 	H 	0.551	0.5004	0.8116	-0.103
Mof_C 	C 	0.37362	0.6264	0.86371	-0.273
Mof_C 	C 	0.38269	0.62739	0.94829	0.073
Mof_H 	H 	0.4108	0.5694	0.9885	0.001
Mof_C 	C 	0.35054	0.71362	0.97382	-0.014
Mof_H 	H 	0.3577	0.7127	0.0319	0.015
Mof_N 	N 	0.31006	0.79791	0.92092	-0.188
Mof_C 	C 	0.30005	0.79662	0.83971	-0.035
Mof_H 	H 	0.27	0.8553	0.8017	0.05
Mof_C 	C 	0.3316	0.71337	0.80868	0.086
Mof_H 	H 	0.3243	0.7162	0.7499	-0.003
Mof_O 	O 	0.81699	0.16019	0.89176	-0.433
Mof_C 	C 	0.89418	0.18527	0.87971	0.376
Mof_O 	O 	0.95729	0.13856	0.92322	-0.409
Mof_C 	C 	0.91025	0.28127	0.80916	-0.117
Mof_C 	C 	0.98595	0.3175	0.80251	0.069
Mof_H 	H 	0.0307	0.2793	0.8385	-0.001
Mof_C 	C 	0.99672	0.40927	0.74355	-0.058
Mof_H 	H 	0.0488	0.4334	0.7396	0.013
Mof_C 	C 	0.93144	0.46676	0.6898	0.018
Mof_C 	C 	0.85893	0.42748	0.69285	-0.09
Mof_H 	H 	0.8171	0.4637	0.6535	0.059
Mof_C 	C 	0.84757	0.33612	0.7529	0.034
Mof_H 	H 	0.7969	0.3109	0.7557	0.027
Mof_C 	C 	0.93201	0.57	0.64039	0.052
Mof_C 	C 	0.94339	0.62217	0.6904	-0.113
Mof_H 	H 	0.9587	0.5892	0.7495	0.061
Mof_C 	C 	0.93257	0.72182	0.65462	0.055
Mof_C 	C 	0.91321	0.76852	0.56609	-0.114
Mof_H 	H 	0.9062	0.8363	0.541	0.077
Mof_C 	C 	0.90389	0.71816	0.51356	0.052
Mof_C 	C 	0.91256	0.61824	0.55172	-0.111
Mof_H 	H 	0.9052	0.5832	0.5172	0.073
Mof_C 	C 	0.92999	0.77789	0.71565	0.013
Mof_C 	C 	0.99857	0.74646	0.7658	-0.055
Mof_H 	H 	0.051	0.6896	0.7584	0.012
Mof_C 	C 	0.99067	0.79783	0.82651	0.05
Mof_H 	H 	0.0394	0.7778	0.858	0.004
Mof_C 	C 	0.91088	0.87906	0.84118	-0.103
Mof_C 	C 	0.84247	0.91113	0.79114	0.025
Mof_H 	H 	0.7884	0.9665	0.8007	0.04
Mof_C 	C 	0.85341	0.8619	0.7271	-0.085
Mof_H 	H 	0.8085	0.8856	0.6908	0.064
Mof_C 	C 	0.89529	0.93162	0.9129	0.373
Mof_O 	O 	0.97301	0.94143	0.91631	-0.378
Mof_O 	O 	0.80373	0.96113	0.96259	-0.401
Mof_C 	C 	0.87848	0.77379	0.42272	0.036
Mof_C 	C 	0.9242	0.84996	0.35798	-0.085
Mof_H 	H 	0.9755	0.8614	0.3698	0.075
Mof_C 	C 	0.89571	0.90924	0.27643	0.036
Mof_H 	H 	0.9278	0.9604	0.2328	0.059
Mof_C 	C 	0.81972	0.89314	0.25918	-0.115
Mof_C 	C 	0.77391	0.81674	0.32308	0.034
Mof_H 	H 	0.7222	0.8056	0.3115	0.032
Mof_C 	C 	0.80377	0.7573	0.40329	-0.09
Mof_H 	H 	0.7733	0.7048	0.4456	0.061
Mof_C 	C 	0.78804	0.95937	0.17379	0.387
Mof_O 	O 	0.84653	0.01222	0.10464	-0.542
Mof_O 	O 	0.70267	0.9679	0.17006	-0.387
Mof_H 	H 	0.4673	0.4921	0.8592	-0.662
Mof_O 	O 	0.4609	0.5519	0.7299	0.404
Mof_H 	H 	0.5228	0.5469	0.7158	-0.072
Mof_Co	Co	-0	0	-0	1.161
_end
