data_functionalizedCrystal
_audit_creation_method	'EQeq! by Chris Wilmer'
_symmetry_space_group_name_H-M	'P1'
_symmetry_Int_Tables_number	1
_symmetry_cell_setting	triclinic
loop_
_symmetry_equiv_pos_as_xyz
  x,y,z
_cell_length_a	8.742
_cell_length_b	8.729
_cell_length_c	27.415
_cell_angle_alpha	90
_cell_angle_beta	102.193
_cell_angle_gamma	90
loop_
_atom_site_label
_atom_site_type_symbol
_atom_site_fract_x
_atom_site_fract_y
_atom_site_fract_z
_atom_site_charge
Mof_Tb	Tb	0.50338	0.56274	0.76666	2.003
Mof_O 	O 	0.663	0.6787	0.84019	-0.501
Mof_O 	O 	0.5722	0.8419	0.78165	-0.665
Mof_C 	C 	0.6564	0.8142	0.82479	0.457
Mof_C 	C 	0.7422	0.9359	0.856	-0.259
Mof_O 	O 	0.4998	0.87	0.67584	-0.59
Mof_O 	O 	0.7145	0.1246	0.79096	-0.527
Mof_O 	O 	0.3985	0.1396	0.8038	-0.581
Mof_C 	C 	0.8107	0.8994	0.9054	0.061
Mof_C 	C 	0.7628	0.0844	0.83815	0.327
Mof_C 	C 	0.4405	0.2493	0.83451	0.559
Mof_H 	H 	0.7992	0.8006	0.9169	0.032
Mof_C 	C 	0.8941	0.0042	0.93738	-0.002
Mof_C 	C 	0.844	0.1909	0.87215	-0.236
Mof_C 	C 	0.4159	0.2275	0.88595	-0.322
Mof_C 	C 	0.9081	0.1535	0.92052	0.047
Mof_N 	N 	0.9625	0.9504	0.98602	-0.076
Mof_H 	H 	0.8548	0.2906	0.8614	0.107
Mof_C 	C 	0.3436	0.0966	0.89978	0.372
Mof_C 	C 	0.4635	0.3405	0.92109	0.102
Mof_H 	H 	0.9608	0.2273	0.9422	0.029
Mof_C 	C 	0.3209	0.0818	0.94768	-0.297
Mof_O 	O 	0.2956	0.9822	0.86721	-0.501
Mof_C 	C 	0.4377	0.326	0.96886	-0.024
Mof_H 	H 	0.5135	0.4274	0.9125	0.013
Mof_C 	C 	0.3675	0.1947	0.98187	0.091
Mof_H 	H 	0.2734	0.9941	0.9568	0.164
Mof_H 	H 	0.3213	0.0036	0.8419	0.289
Mof_N 	N 	0.4749	0.4386	0.00689	-0.071
Mof_H 	H 	0.3519	0.1834	0.0142	0.015
Mof_Tb	Tb	0.49662	0.06274	0.73334	1.981
Mof_O 	O 	0.337	0.1787	0.65981	-0.503
Mof_O 	O 	0.4278	0.3419	0.71835	-0.672
Mof_C 	C 	0.3436	0.3142	0.67521	0.46
Mof_C 	C 	0.2578	0.4359	0.644	-0.271
Mof_O 	O 	0.5002	0.37	0.82416	-0.596
Mof_O 	O 	0.2855	0.6246	0.70904	-0.529
Mof_O 	O 	0.6015	0.6396	0.6962	-0.581
Mof_C 	C 	0.1893	0.3994	0.5946	0.056
Mof_C 	C 	0.2372	0.5844	0.66185	0.339
Mof_C 	C 	0.5595	0.7493	0.66549	0.56
Mof_H 	H 	0.2008	0.3006	0.5831	0.033
Mof_C 	C 	0.1059	0.5042	0.56262	0.005
Mof_C 	C 	0.156	0.6909	0.62785	-0.24
Mof_C 	C 	0.5841	0.7275	0.61405	-0.326
Mof_C 	C 	0.0919	0.6535	0.57948	0.048
Mof_N 	N 	0.0375	0.4504	0.51398	-0.078
Mof_H 	H 	0.1452	0.7906	0.6386	0.111
Mof_C 	C 	0.6564	0.5966	0.60022	0.384
Mof_C 	C 	0.5365	0.8405	0.57891	0.105
Mof_H 	H 	0.0392	0.7273	0.5578	0.029
Mof_C 	C 	0.6791	0.5818	0.55232	-0.297
Mof_O 	O 	0.7044	0.4822	0.63279	-0.524
Mof_C 	C 	0.5623	0.826	0.53114	-0.025
Mof_H 	H 	0.4865	0.9274	0.5875	0.014
Mof_C 	C 	0.6325	0.6947	0.51813	0.093
Mof_H 	H 	0.7266	0.4941	0.5432	0.161
Mof_H 	H 	0.6787	0.5036	0.6581	0.305
Mof_N 	N 	0.5251	0.9386	0.49311	-0.072
Mof_H 	H 	0.6481	0.6834	0.4858	0.014
Mof_Tb	Tb	0.49662	0.43726	0.23334	2.003
Mof_O 	O 	0.337	0.3213	0.15981	-0.501
Mof_O 	O 	0.4278	0.1581	0.21835	-0.665
Mof_C 	C 	0.3436	0.1858	0.17521	0.457
Mof_C 	C 	0.2578	0.0641	0.144	-0.259
Mof_O 	O 	0.5002	0.13	0.32416	-0.59
Mof_O 	O 	0.2855	0.8754	0.20904	-0.527
Mof_O 	O 	0.6015	0.8604	0.1962	-0.581
Mof_C 	C 	0.1893	0.1006	0.0946	0.061
Mof_C 	C 	0.2372	0.9156	0.16185	0.327
Mof_C 	C 	0.5595	0.7507	0.16549	0.559
Mof_H 	H 	0.2008	0.1994	0.0831	0.032
Mof_C 	C 	0.1059	0.9958	0.06262	-0.002
Mof_C 	C 	0.156	0.8091	0.12785	-0.236
Mof_C 	C 	0.5841	0.7725	0.11405	-0.322
Mof_C 	C 	0.0919	0.8465	0.07948	0.047
Mof_N 	N 	0.0375	0.0496	0.01398	-0.076
Mof_H 	H 	0.1452	0.7094	0.1386	0.107
Mof_C 	C 	0.6564	0.9034	0.10022	0.372
Mof_C 	C 	0.5365	0.6595	0.07891	0.102
Mof_H 	H 	0.0392	0.7727	0.0578	0.029
Mof_C 	C 	0.6791	0.9182	0.05232	-0.297
Mof_O 	O 	0.7044	0.0178	0.13279	-0.501
Mof_C 	C 	0.5623	0.674	0.03114	-0.024
Mof_H 	H 	0.4865	0.5726	0.0875	0.013
Mof_C 	C 	0.6325	0.8053	0.01813	0.091
Mof_H 	H 	0.7266	0.0059	0.0432	0.164
Mof_H 	H 	0.6787	0.9964	0.1581	0.289
Mof_N 	N 	0.5251	0.5614	0.99311	-0.071
Mof_H 	H 	0.6481	0.8166	0.9858	0.015
Mof_Tb	Tb	0.50338	0.93726	0.26666	1.981
Mof_O 	O 	0.663	0.8213	0.34019	-0.503
Mof_O 	O 	0.5722	0.6581	0.28165	-0.672
Mof_C 	C 	0.6564	0.6858	0.32479	0.46
Mof_C 	C 	0.7422	0.5641	0.356	-0.271
Mof_O 	O 	0.4998	0.63	0.17584	-0.596
Mof_O 	O 	0.7145	0.3754	0.29096	-0.529
Mof_O 	O 	0.3985	0.3604	0.3038	-0.581
Mof_C 	C 	0.8107	0.6006	0.4054	0.056
Mof_C 	C 	0.7628	0.4156	0.33815	0.339
Mof_C 	C 	0.4405	0.2507	0.33451	0.56
Mof_H 	H 	0.7992	0.6994	0.4169	0.033
Mof_C 	C 	0.8941	0.4958	0.43738	0.005
Mof_C 	C 	0.844	0.3091	0.37215	-0.24
Mof_C 	C 	0.4159	0.2725	0.38595	-0.326
Mof_C 	C 	0.9081	0.3465	0.42052	0.048
Mof_N 	N 	0.9625	0.5496	0.48602	-0.078
Mof_H 	H 	0.8548	0.2094	0.3614	0.111
Mof_C 	C 	0.3436	0.4034	0.39978	0.384
Mof_C 	C 	0.4635	0.1595	0.42109	0.105
Mof_H 	H 	0.9608	0.2727	0.4422	0.029
Mof_C 	C 	0.3209	0.4182	0.44768	-0.297
Mof_O 	O 	0.2956	0.5178	0.36721	-0.524
Mof_C 	C 	0.4377	0.174	0.46886	-0.025
Mof_H 	H 	0.5135	0.0726	0.4125	0.014
Mof_C 	C 	0.3675	0.3053	0.48187	0.093
Mof_H 	H 	0.2734	0.5059	0.4568	0.161
Mof_H 	H 	0.3213	0.4964	0.3419	0.305
Mof_N 	N 	0.4749	0.0614	0.50689	-0.072
Mof_H 	H 	0.3519	0.3166	0.5142	0.014
_end
