data_functionalizedCrystal
_audit_creation_method	'EQeq! by Chris Wilmer'
_symmetry_space_group_name_H-M	'P1'
_symmetry_Int_Tables_number	1
_symmetry_cell_setting	triclinic
loop_
_symmetry_equiv_pos_as_xyz
  x,y,z
_cell_length_a	10.144
_cell_length_b	15.5263
_cell_length_c	18.028
_cell_angle_alpha	103.422
_cell_angle_beta	90
_cell_angle_gamma	109.067
loop_
_atom_site_label
_atom_site_type_symbol
_atom_site_fract_x
_atom_site_fract_y
_atom_site_fract_z
_atom_site_charge
Mof_Ce	Ce	0.86979	0.99326	0.11886	2.333
Mof_Ce	Ce	0.12347	0.99326	0.61886	2.345
Mof_Ce	Ce	0.13021	0.00674	0.88114	2.745
Mof_Ce	Ce	0.87653	0.00674	0.38114	2.781
Mof_H 	H 	0.2782	0.3062	0.8943	0.059
Mof_H 	H 	0.028	0.3062	0.3943	0.056
Mof_H 	H 	0.2004	0.2784	0.5106	0.066
Mof_H 	H 	0.1289	0.7088	0.1752	0.047
Mof_H 	H 	0.972	0.6938	0.6057	0.072
Mof_H 	H 	0.0728	0.2688	0.7086	0.067
Mof_H 	H 	0.078	0.2784	0.0106	0.083
Mof_H 	H 	0.8549	0.2436	0.5126	-0.006
Mof_H 	H 	0.804	0.7312	0.7914	0.066
Mof_H 	H 	0.7218	0.6938	0.1057	0.061
Mof_H 	H 	0.3887	0.2436	0.0126	-0.002
Mof_H 	H 	0.9858	0.0462	0.7603	0.455
Mof_H 	H 	0.4201	0.2912	0.3248	0.053
Mof_H 	H 	0.1723	0.718	0.8059	0.002
Mof_H 	H 	0.922	0.7216	0.9894	0.071
Mof_H 	H 	0.6113	0.7564	0.9874	-0.005
Mof_H 	H 	0.1451	0.7564	0.4874	-0.006
Mof_H 	H 	0.9396	0.9538	0.7397	0.4
Mof_H 	H 	0.8277	0.282	0.1941	0.012
Mof_H 	H 	0.7996	0.7216	0.4894	0.063
Mof_H 	H 	0.8711	0.2912	0.8248	0.057
Mof_H 	H 	0.0142	0.9538	0.2397	0.381
Mof_H 	H 	0.5457	0.718	0.3059	-0.001
Mof_H 	H 	0.196	0.2688	0.2086	0.068
Mof_H 	H 	0.9272	0.7312	0.2914	0.064
Mof_H 	H 	0.4543	0.282	0.6941	0.013
Mof_H 	H 	0.0604	0.0462	0.2603	0.447
Mof_H 	H 	0.5799	0.7088	0.6752	0.047
Mof_C 	C 	0.35838	0.27836	0.79186	-0.155
Mof_C 	C 	0.5959	0.6808	0.6261	0.016
Mof_C 	C 	0.64162	0.72164	0.20814	-0.167
Mof_C 	C 	0.08002	0.72164	0.70814	-0.155
Mof_C 	C 	0.90773	0.41626	0.25754	-0.086
Mof_C 	C 	0.27102	0.31184	0.48493	-0.08
Mof_C 	C 	0.51479	0.52818	0.17419	0.02
Mof_C 	C 	0.27834	0.24128	0.10642	-0.16
Mof_C 	C 	0.50853	0.41626	0.75754	-0.082
Mof_C 	C 	0.70356	0.82672	0.222	0.559
Mof_C 	C 	0.05182	0.40304	0.01888	0.173
Mof_C 	C 	0.72166	0.75872	0.89358	-0.167
Mof_C 	C 	0.03138	0.82776	0.1292	0.367
Mof_C 	C 	0.65859	0.61098	0.8014	0.135
Mof_C 	C 	0.60189	0.46418	0.3715	0.298
Mof_C 	C 	0.95918	0.68816	0.01507	-0.097
Mof_C 	C 	0.98972	0.42924	0.65213	0.031
Mof_C 	C 	0.91526	0.37512	0.5828	-0.099
Mof_C 	C 	0.72898	0.68816	0.51507	-0.082
Mof_C 	C 	0.95696	0.13992	0.5799	0.558
Mof_C 	C 	0.26097	0.29554	0.17694	-0.037
Mof_C 	C 	0.12298	0.68076	0.75975	0.07
Mof_C 	C 	0.73903	0.70446	0.82306	-0.035
Mof_C 	C 	0.60704	0.46208	0.70768	0.309
Mof_C 	C 	0.35122	0.40304	0.51888	0.154
Mof_C 	C 	0.08474	0.62488	0.4172	-0.094
Mof_C 	C 	0.33464	0.33388	0.85975	-0.024
Mof_C 	C 	0.45905	0.4525	0.48194	0.004
Mof_C 	C 	0.01339	0.52818	0.67419	0.001
Mof_C 	C 	0.09227	0.58374	0.74246	-0.08
Mof_C 	C 	0.48521	0.47182	0.82581	0.016
Mof_C 	C 	0.49147	0.58374	0.24246	-0.089
Mof_C 	C 	0.48757	0.41014	0.40966	-0.056
Mof_C 	C 	0.03443	0.43006	0.37504	0.132
Mof_C 	C 	0.39563	0.43006	0.87504	0.14
Mof_C 	C 	0.04304	0.86008	0.4201	0.549
Mof_C 	C 	0.45986	0.37512	0.0828	-0.093
Mof_C 	C 	0.90282	0.28024	0.55925	0.078
Mof_C 	C 	0.96862	0.17224	0.8708	0.372
Mof_C 	C 	0.81704	0.86008	0.9201	0.55
Mof_C 	C 	0.87684	0.17328	0.278	0.552
Mof_C 	C 	0.44222	0.31924	0.74025	0.073
Mof_C 	C 	0.92257	0.41014	0.90966	-0.049
Mof_C 	C 	0.62258	0.71976	0.94075	0.072
Mof_C 	C 	0.60437	0.56994	0.12496	0.138
Mof_C 	C 	0.98661	0.47182	0.32581	0.024
Mof_C 	C 	0.51243	0.58986	0.59034	-0.06
Mof_C 	C 	0.96557	0.56994	0.62496	0.157
Mof_C 	C 	0.01028	0.57076	0.34787	0.012
Mof_C 	C 	0.54095	0.5475	0.51806	0.005
Mof_C 	C 	0.04082	0.31184	0.98493	-0.12
Mof_C 	C 	0.99345	0.4525	0.98194	-0.003
Mof_C 	C 	0.39811	0.53582	0.6285	0.299
Mof_C 	C 	0.09718	0.71976	0.44075	0.072
Mof_C 	C 	0.99924	0.33388	0.35975	-0.016
Mof_C 	C 	0.87702	0.31924	0.24025	0.077
Mof_C 	C 	0.13771	0.53582	0.1285	0.299
Mof_C 	C 	0.20362	0.17224	0.3708	0.379
Mof_C 	C 	0.54014	0.62488	0.9172	-0.095
Mof_C 	C 	0.37742	0.28024	0.05925	0.074
Mof_C 	C 	0.00655	0.5475	0.01806	0
Mof_C 	C 	0.02658	0.73016	0.08847	-0.079
Mof_C 	C 	0.43952	0.42924	0.15213	0.018
Mof_C 	C 	0.56048	0.57076	0.84787	0.019
Mof_C 	C 	0.66536	0.66612	0.14025	-0.02
Mof_C 	C 	0.39296	0.53792	0.29232	0.311
Mof_C 	C 	0.00076	0.66612	0.64025	-0.045
Mof_C 	C 	0.04761	0.38902	0.6986	0.128
Mof_C 	C 	0.34141	0.38902	0.1986	0.137
Mof_C 	C 	0.03706	0.75872	0.39358	-0.172
Mof_C 	C 	0.12316	0.82672	0.722	0.553
Mof_C 	C 	0.03457	0.29554	0.67694	-0.035
Mof_C 	C 	0.29644	0.17328	0.778	0.55
Mof_C 	C 	0.95239	0.61098	0.3014	0.137
Mof_C 	C 	0.43431	0.58082	0.96503	0.311
Mof_C 	C 	0.96294	0.24128	0.60642	-0.163
Mof_C 	C 	0.97342	0.26984	0.91153	-0.058
Mof_C 	C 	0.0849	0.6808	0.1261	0.012
Mof_C 	C 	0.55778	0.68076	0.25975	0.082
Mof_C 	C 	0.56569	0.41918	0.03497	0.314
Mof_C 	C 	0.14496	0.53792	0.79232	0.306
Mof_C 	C 	0.9151	0.3192	0.8739	0.003
Mof_C 	C 	0.91998	0.27836	0.29186	-0.159
Mof_C 	C 	0.07743	0.58986	0.09034	-0.058
Mof_C 	C 	0.64878	0.59696	0.48112	0.152
Mof_C 	C 	0.85349	0.41918	0.53497	0.314
Mof_C 	C 	0.79638	0.82776	0.6292	0.37
Mof_C 	C 	0.70358	0.73016	0.58847	-0.083
Mof_C 	C 	0.96543	0.70446	0.32306	-0.033
Mof_C 	C 	0.4041	0.3192	0.3739	0.015
Mof_C 	C 	0.18296	0.13992	0.0799	0.552
Mof_C 	C 	0.86229	0.46418	0.8715	0.297
Mof_C 	C 	0.29642	0.26984	0.41153	-0.077
Mof_C 	C 	0.94818	0.59696	0.98112	0.162
Mof_C 	C 	0.85504	0.46208	0.20768	0.31
Mof_C 	C 	0.14651	0.58082	0.46503	0.309
Mof_O 	O 	0.63402	0.43524	0.30856	-0.225
Mof_O 	O 	0.01302	-4.37019e-17	0.75	-1.122
Mof_O 	O 	0.11878	0.85856	0.66457	-0.63
Mof_O 	O 	0.12606	0.12072	0.40984	-0.532
Mof_O 	O 	0.36847	0.57674	0.35444	-0.233
Mof_O 	O 	0.20827	0.57674	0.85444	-0.232
Mof_O 	O 	0.81277	0.90274	0.98735	-0.677
Mof_O 	O 	0.73978	0.85856	0.16457	-0.63
Mof_O 	O 	0.88122	0.14144	0.33543	-0.653
Mof_O 	O 	0.22182	0.62004	0.52283	-0.24
Mof_O 	O 	0.79262	0.85104	0.70019	-0.355
Mof_O 	O 	0.67855	0.5553	0.4092	-0.244
Mof_O 	O 	0.89538	0.89496	0.87377	-0.674
Mof_O 	O 	0.94158	0.14896	0.79981	-0.339
Mof_O 	O 	0.20738	0.14896	0.29981	-0.34
Mof_O 	O 	0.98698	0	0.25	-1.098
Mof_O 	O 	0.67696	0.55716	0.73151	-0.238
Mof_O 	O 	0.37133	0.48374	0.94288	-0.234
Mof_O 	O 	0.62867	0.51626	0.05712	-0.232
Mof_O 	O 	0.8802	0.55716	0.23151	-0.239
Mof_O 	O 	0.88759	0.51626	0.55712	-0.236
Mof_O 	O 	0.80122	0.43524	0.80856	-0.224
Mof_O 	O 	0.16293	0.87546	0.78922	-0.707
Mof_O 	O 	0.87394	0.87928	0.59016	-0.525
Mof_O 	O 	0.83707	0.12454	0.21078	-0.615
Mof_O 	O 	0.18723	0.09726	0.01265	-0.682
Mof_O 	O 	0.99958	0.89496	0.37377	-0.68
Mof_O 	O 	0.60178	0.37996	0.97717	-0.239
Mof_O 	O 	0.28747	0.12454	0.71078	-0.617
Mof_O 	O 	0.08997	0.90274	0.48735	-0.684
Mof_O 	O 	0.26022	0.14144	0.83543	-0.65
Mof_O 	O 	0.87675	0.5553	0.9092	-0.245
Mof_O 	O 	0.32304	0.44284	0.26849	-0.239
Mof_O 	O 	0.11241	0.48374	0.44288	-0.231
Mof_O 	O 	0.12325	0.4447	0.0908	-0.248
Mof_O 	O 	0.91003	0.09726	0.51265	-0.692
Mof_O 	O 	0.05842	0.85104	0.20019	-0.356
Mof_O 	O 	0.32145	0.4447	0.5908	-0.244
Mof_O 	O 	0.00534	0.87928	0.09016	-0.529
Mof_O 	O 	0.39822	0.62004	0.02283	-0.24
Mof_O 	O 	0.19878	0.56476	0.19144	-0.229
Mof_O 	O 	0.99466	0.12072	0.90984	-0.529
Mof_O 	O 	0.77818	0.37996	0.47717	-0.236
Mof_O 	O 	0.63153	0.42326	0.64556	-0.227
Mof_O 	O 	0.79173	0.42326	0.14556	-0.228
Mof_O 	O 	0.10462	0.10504	0.12623	-0.586
Mof_O 	O 	0.00042	0.10504	0.62623	-0.594
Mof_O 	O 	0.71253	0.87546	0.28922	-0.714
Mof_O 	O 	0.1198	0.44284	0.76849	-0.237
Mof_O 	O 	0.36598	0.56476	0.69144	-0.228
_end
