data_functionalizedCrystal
_audit_creation_method	'EQeq! by Chris Wilmer'
_symmetry_space_group_name_H-M	'P1'
_symmetry_Int_Tables_number	1
_symmetry_cell_setting	triclinic
loop_
_symmetry_equiv_pos_as_xyz
  x,y,z
_cell_length_a	7.4194
_cell_length_b	17.963
_cell_length_c	24.574
_cell_angle_alpha	90
_cell_angle_beta	90
_cell_angle_gamma	90
loop_
_atom_site_label
_atom_site_type_symbol
_atom_site_fract_x
_atom_site_fract_y
_atom_site_fract_z
_atom_site_charge
Mof_O 	O 	0.9153	0.61553	0.05365	-0.259
Mof_O 	O 	0.9626	0.51932	0.16999	-0.24
Mof_C 	C 	0.8837	0.68465	0.0503	0.327
Mof_C 	C 	0.7457	0.70927	0.00813	-0.222
Mof_H 	H 	0.634	0.7002	0.0256	0.131
Mof_H 	H 	0.7672	0.6777	0.9756	0.127
Mof_O 	O 	0.9153	0.11553	0.55365	-0.259
Mof_O 	O 	0.9626	0.01932	0.66999	-0.24
Mof_C 	C 	0.8837	0.18465	0.5503	0.328
Mof_C 	C 	0.7457	0.20927	0.50813	-0.22
Mof_H 	H 	0.634	0.2002	0.5256	0.132
Mof_H 	H 	0.7672	0.1777	0.4756	0.128
Mof_O 	O 	0.4153	0.61553	0.55365	-0.258
Mof_O 	O 	0.4626	0.51932	0.66999	-0.239
Mof_C 	C 	0.3837	0.68465	0.5503	0.328
Mof_C 	C 	0.2457	0.70927	0.50813	-0.22
Mof_H 	H 	0.134	0.7002	0.5256	0.132
Mof_H 	H 	0.2672	0.6777	0.4756	0.128
Mof_O 	O 	0.4153	0.11553	0.05365	-0.258
Mof_O 	O 	0.4626	0.01932	0.16999	-0.239
Mof_C 	C 	0.3837	0.18465	0.0503	0.327
Mof_C 	C 	0.2457	0.20927	0.00813	-0.219
Mof_H 	H 	0.134	0.2002	0.0256	0.131
Mof_H 	H 	0.2672	0.1777	0.9756	0.127
Mof_O 	O 	0.8347	0.13447	0.05365	-0.258
Mof_O 	O 	0.7874	0.23068	0.16999	-0.24
Mof_C 	C 	0.8663	0.06535	0.0503	0.328
Mof_C 	C 	0.0043	0.04073	0.00813	-0.219
Mof_H 	H 	0.116	0.0498	0.0256	0.132
Mof_H 	H 	0.9828	0.0723	0.9756	0.127
Mof_O 	O 	0.8347	0.63447	0.55365	-0.258
Mof_O 	O 	0.7874	0.73068	0.66999	-0.239
Mof_C 	C 	0.8663	0.56535	0.5503	0.328
Mof_C 	C 	0.0043	0.54073	0.50813	-0.22
Mof_H 	H 	0.116	0.5498	0.5256	0.132
Mof_H 	H 	0.9828	0.5723	0.4756	0.128
Mof_O 	O 	0.3347	0.13447	0.55365	-0.258
Mof_O 	O 	0.2874	0.23068	0.66999	-0.239
Mof_C 	C 	0.3663	0.06535	0.5503	0.328
Mof_C 	C 	0.5043	0.04073	0.50813	-0.22
Mof_H 	H 	0.616	0.0498	0.5256	0.132
Mof_H 	H 	0.4828	0.0723	0.4756	0.128
Mof_O 	O 	0.3347	0.63447	0.05365	-0.258
Mof_O 	O 	0.2874	0.73068	0.16999	-0.24
Mof_C 	C 	0.3663	0.56535	0.0503	0.328
Mof_C 	C 	0.5043	0.54073	0.00813	-0.22
Mof_H 	H 	0.616	0.5498	0.0256	0.132
Mof_H 	H 	0.4828	0.5723	0.9756	0.128
Mof_O 	O 	0.8347	0.61553	0.69635	-0.258
Mof_O 	O 	0.7874	0.51932	0.58001	-0.239
Mof_C 	C 	0.8663	0.68465	0.6997	0.327
Mof_C 	C 	0.0043	0.70927	0.74187	-0.218
Mof_H 	H 	0.116	0.7002	0.7244	0.131
Mof_H 	H 	0.9828	0.6777	0.7744	0.127
Mof_O 	O 	0.8347	0.11553	0.19635	-0.258
Mof_O 	O 	0.7874	0.01932	0.08001	-0.239
Mof_C 	C 	0.8663	0.18465	0.1997	0.328
Mof_C 	C 	0.0043	0.20927	0.24187	-0.222
Mof_H 	H 	0.116	0.2002	0.2244	0.132
Mof_H 	H 	0.9828	0.1777	0.2744	0.128
Mof_O 	O 	0.3347	0.61553	0.19635	-0.258
Mof_O 	O 	0.2874	0.51932	0.08001	-0.239
Mof_C 	C 	0.3663	0.68465	0.1997	0.328
Mof_C 	C 	0.5043	0.70927	0.24187	-0.22
Mof_H 	H 	0.616	0.7002	0.2244	0.132
Mof_H 	H 	0.4828	0.6777	0.2744	0.128
Mof_O 	O 	0.3347	0.11553	0.69635	-0.258
Mof_O 	O 	0.2874	0.01932	0.58001	-0.24
Mof_C 	C 	0.3663	0.18465	0.6997	0.328
Mof_C 	C 	0.5043	0.20927	0.74187	-0.22
Mof_H 	H 	0.616	0.2002	0.7244	0.132
Mof_H 	H 	0.4828	0.1777	0.7744	0.128
Mof_O 	O 	0.9153	0.13447	0.69635	-0.258
Mof_O 	O 	0.9626	0.23068	0.58001	-0.239
Mof_C 	C 	0.8837	0.06535	0.6997	0.328
Mof_C 	C 	0.7457	0.04073	0.74187	-0.22
Mof_H 	H 	0.634	0.0498	0.7244	0.132
Mof_H 	H 	0.7672	0.0723	0.7744	0.128
Mof_O 	O 	0.9153	0.63447	0.19635	-0.258
Mof_O 	O 	0.9626	0.73068	0.08001	-0.239
Mof_C 	C 	0.8837	0.56535	0.1997	0.328
Mof_C 	C 	0.7457	0.54073	0.24187	-0.22
Mof_H 	H 	0.634	0.5498	0.2244	0.132
Mof_H 	H 	0.7672	0.5723	0.2744	0.128
Mof_O 	O 	0.4153	0.13447	0.19635	-0.258
Mof_O 	O 	0.4626	0.23068	0.08001	-0.239
Mof_C 	C 	0.3837	0.06535	0.1997	0.328
Mof_C 	C 	0.2457	0.04073	0.24187	-0.219
Mof_H 	H 	0.134	0.0498	0.2244	0.132
Mof_H 	H 	0.2672	0.0723	0.2744	0.128
Mof_O 	O 	0.4153	0.63447	0.69635	-0.258
Mof_O 	O 	0.4626	0.73068	0.58001	-0.239
Mof_C 	C 	0.3837	0.56535	0.6997	0.328
Mof_C 	C 	0.2457	0.54073	0.74187	-0.22
Mof_H 	H 	0.134	0.5498	0.7244	0.132
Mof_H 	H 	0.2672	0.5723	0.7744	0.128
Mof_O 	O 	0.0847	0.38447	0.94635	-0.258
Mof_O 	O 	0.0374	0.48068	0.83001	-0.239
Mof_C 	C 	0.1163	0.31535	0.9497	0.328
Mof_C 	C 	0.2543	0.29073	0.99187	-0.221
Mof_H 	H 	0.366	0.2998	0.9744	0.132
Mof_H 	H 	0.2328	0.3223	0.0244	0.128
Mof_O 	O 	0.0847	0.88447	0.44635	-0.258
Mof_O 	O 	0.0374	0.98068	0.33001	-0.239
Mof_C 	C 	0.1163	0.81535	0.4497	0.328
Mof_C 	C 	0.2543	0.79073	0.49187	-0.22
Mof_H 	H 	0.366	0.7998	0.4744	0.132
Mof_H 	H 	0.2328	0.8223	0.5244	0.128
Mof_O 	O 	0.5847	0.38447	0.44635	-0.258
Mof_O 	O 	0.5374	0.48068	0.33001	-0.239
Mof_C 	C 	0.6163	0.31535	0.4497	0.328
Mof_C 	C 	0.7543	0.29073	0.49187	-0.22
Mof_H 	H 	0.866	0.2998	0.4744	0.132
Mof_H 	H 	0.7328	0.3223	0.5244	0.128
Mof_O 	O 	0.5847	0.88447	0.94635	-0.258
Mof_O 	O 	0.5374	0.98068	0.83001	-0.239
Mof_C 	C 	0.6163	0.81535	0.9497	0.327
Mof_C 	C 	0.7543	0.79073	0.99187	-0.219
Mof_H 	H 	0.866	0.7998	0.9744	0.131
Mof_H 	H 	0.7328	0.8223	0.0244	0.127
Mof_O 	O 	0.1653	0.86553	0.94635	-0.258
Mof_O 	O 	0.2126	0.76932	0.83001	-0.24
Mof_C 	C 	0.1337	0.93465	0.9497	0.328
Mof_C 	C 	0.9957	0.95927	0.99187	-0.219
Mof_H 	H 	0.884	0.9502	0.9744	0.132
Mof_H 	H 	0.0172	0.9277	0.0244	0.127
Mof_O 	O 	0.1653	0.36553	0.44635	-0.258
Mof_O 	O 	0.2126	0.26932	0.33001	-0.239
Mof_C 	C 	0.1337	0.43465	0.4497	0.328
Mof_C 	C 	0.9957	0.45927	0.49187	-0.22
Mof_H 	H 	0.884	0.4502	0.4744	0.132
Mof_H 	H 	0.0172	0.4277	0.5244	0.128
Mof_O 	O 	0.6653	0.86553	0.44635	-0.258
Mof_O 	O 	0.7126	0.76932	0.33001	-0.239
Mof_C 	C 	0.6337	0.93465	0.4497	0.328
Mof_C 	C 	0.4957	0.95927	0.49187	-0.22
Mof_H 	H 	0.384	0.9502	0.4744	0.132
Mof_H 	H 	0.5172	0.9277	0.5244	0.128
Mof_O 	O 	0.6653	0.36553	0.94635	-0.258
Mof_O 	O 	0.7126	0.26932	0.83001	-0.24
Mof_C 	C 	0.6337	0.43465	0.9497	0.328
Mof_C 	C 	0.4957	0.45927	0.99187	-0.22
Mof_H 	H 	0.384	0.4502	0.9744	0.132
Mof_H 	H 	0.5172	0.4277	0.0244	0.128
Mof_O 	O 	0.1653	0.38447	0.30365	-0.258
Mof_O 	O 	0.2126	0.48068	0.41999	-0.239
Mof_C 	C 	0.1337	0.31535	0.3003	0.327
Mof_C 	C 	0.9957	0.29073	0.25813	-0.218
Mof_H 	H 	0.884	0.2998	0.2756	0.131
Mof_H 	H 	0.0172	0.3223	0.2256	0.127
Mof_O 	O 	0.1653	0.88447	0.80365	-0.258
Mof_O 	O 	0.2126	0.98068	0.91999	-0.239
Mof_C 	C 	0.1337	0.81535	0.8003	0.328
Mof_C 	C 	0.9957	0.79073	0.75813	-0.222
Mof_H 	H 	0.884	0.7998	0.7756	0.132
Mof_H 	H 	0.0172	0.8223	0.7256	0.128
Mof_O 	O 	0.6653	0.38447	0.80365	-0.258
Mof_O 	O 	0.7126	0.48068	0.91999	-0.239
Mof_C 	C 	0.6337	0.31535	0.8003	0.328
Mof_C 	C 	0.4957	0.29073	0.75813	-0.22
Mof_H 	H 	0.384	0.2998	0.7756	0.132
Mof_H 	H 	0.5172	0.3223	0.7256	0.128
Mof_O 	O 	0.6653	0.88447	0.30365	-0.258
Mof_O 	O 	0.7126	0.98068	0.41999	-0.24
Mof_C 	C 	0.6337	0.81535	0.3003	0.328
Mof_C 	C 	0.4957	0.79073	0.25813	-0.22
Mof_H 	H 	0.384	0.7998	0.2756	0.132
Mof_H 	H 	0.5172	0.8223	0.2256	0.128
Mof_O 	O 	0.0847	0.86553	0.30365	-0.258
Mof_O 	O 	0.0374	0.76932	0.41999	-0.239
Mof_C 	C 	0.1163	0.93465	0.3003	0.328
Mof_C 	C 	0.2543	0.95927	0.25813	-0.22
Mof_H 	H 	0.366	0.9502	0.2756	0.132
Mof_H 	H 	0.2328	0.9277	0.2256	0.128
Mof_O 	O 	0.0847	0.36553	0.80365	-0.258
Mof_O 	O 	0.0374	0.26932	0.91999	-0.239
Mof_C 	C 	0.1163	0.43465	0.8003	0.328
Mof_C 	C 	0.2543	0.45927	0.75813	-0.22
Mof_H 	H 	0.366	0.4502	0.7756	0.132
Mof_H 	H 	0.2328	0.4277	0.7256	0.128
Mof_O 	O 	0.5847	0.86553	0.80365	-0.258
Mof_O 	O 	0.5374	0.76932	0.91999	-0.239
Mof_C 	C 	0.6163	0.93465	0.8003	0.328
Mof_C 	C 	0.7543	0.95927	0.75813	-0.219
Mof_H 	H 	0.866	0.9502	0.7756	0.132
Mof_H 	H 	0.7328	0.9277	0.7256	0.128
Mof_O 	O 	0.5847	0.36553	0.30365	-0.258
Mof_O 	O 	0.5374	0.26932	0.41999	-0.239
Mof_C 	C 	0.6163	0.43465	0.3003	0.328
Mof_C 	C 	0.7543	0.45927	0.25813	-0.22
Mof_H 	H 	0.866	0.4502	0.2756	0.132
Mof_H 	H 	0.7328	0.4277	0.2256	0.128
Mof_Cd	Cd	0.125	0.625	0.125	0.519
Mof_Cd	Cd	0.625	0.625	0.625	0.519
Mof_Cd	Cd	0.625	0.125	0.125	0.519
Mof_Cd	Cd	0.125	0.125	0.625	0.519
Mof_Cd	Cd	0.875	0.375	0.875	0.519
Mof_Cd	Cd	0.375	0.375	0.375	0.519
Mof_Cd	Cd	0.375	0.875	0.875	0.519
Mof_Cd	Cd	0.875	0.875	0.375	0.519
_end
