data_functionalizedCrystal
_audit_creation_method	'EQeq! by Chris Wilmer'
_symmetry_space_group_name_H-M	'P1'
_symmetry_Int_Tables_number	1
_symmetry_cell_setting	triclinic
loop_
_symmetry_equiv_pos_as_xyz
  x,y,z
_cell_length_a	13.644
_cell_length_b	13.644
_cell_length_c	26.609
_cell_angle_alpha	99.2886
_cell_angle_beta	99.2886
_cell_angle_gamma	104.464
loop_
_atom_site_label
_atom_site_type_symbol
_atom_site_fract_x
_atom_site_fract_y
_atom_site_fract_z
_atom_site_charge
Mof_Co	Co	0.42232	0.46084	0.55695	1.175
Mof_Co	Co	0.53916	0.57768	0.94305	1.18
Mof_Co	Co	0.57768	0.53916	0.44305	1.176
Mof_Co	Co	0.46084	0.42232	0.05695	1.171
Mof_Co	Co	0.5	0	-0	1.102
Mof_Co	Co	-4.91413e-17	0.5	0.5	1.111
Mof_H 	H 	0.1888	0.2836	0.4373	-0.049
Mof_H 	H 	0.06	0.1742	0.3698	0.168
Mof_H 	H 	0.1968	0.3082	0.2678	0.176
Mof_H 	H 	0.3216	0.421	0.3357	-0.043
Mof_H 	H 	0.9465	0.0839	0.3079	0.001
Mof_H 	H 	0.3221	0.6013	0.497	-0.014
Mof_H 	H 	0.3321	0.7707	0.5	0.112
Mof_H 	H 	0.5107	0.9863	0.5938	0.089
Mof_H 	H 	0.5507	0.8443	0.6301	0.125
Mof_H 	H 	0.5301	0.6721	0.6245	-0.02
Mof_H 	H 	0.5523	0.3225	0.598	0
Mof_H 	H 	0.548	0.1514	0.5915	0.089
Mof_H 	H 	0.345	0.9362	0.5146	0.052
Mof_H 	H 	0.2715	0.0751	0.4991	0.087
Mof_H 	H 	0.2842	0.2474	0.5071	0.003
Mof_H 	H 	0.1139	0.3515	0.6108	-0.03
Mof_H 	H 	0.0135	0.3077	0.6684	0.149
Mof_H 	H 	0.2472	0.4724	0.7854	0.157
Mof_H 	H 	0.3496	0.5036	0.7279	-0.023
Mof_H 	H 	0.7464	0.2736	0.847	0.147
Mof_H 	H 	0.6596	0.2006	0.9068	-0.013
Mof_H 	H 	0.8919	0.0865	0.9524	-0.015
Mof_H 	H 	0.9786	0.1552	0.8931	0.154
Mof_H 	H 	0.3478	0.7968	0.9305	-0.009
Mof_H 	H 	0.4756	0.0536	0.8908	-0.033
Mof_H 	H 	0.3984	0.9852	0.8056	0.118
Mof_H 	H 	0.2764	0.72	0.845	0.104
Mof_H 	H 	0.3147	0.8279	0.7353	0.074
Mof_H 	H 	0.0528	0.2388	0.8363	-0.024
Mof_H 	H 	0.9641	0.1411	0.8041	-0.027
Mof_H 	H 	0.0498	0.2056	0.7458	0.081
Mof_H 	H 	0.9441	0.2333	0.7367	0.105
Mof_H 	H 	0.7164	0.8112	0.0627	-0.05
Mof_H 	H 	0.8258	0.94	0.1302	0.178
Mof_H 	H 	0.6918	0.8032	0.2322	0.178
Mof_H 	H 	0.579	0.6784	0.1643	-0.042
Mof_H 	H 	0.9161	0.0535	0.1921	0.019
Mof_H 	H 	0.3987	0.6779	0.003	-0.03
Mof_H 	H 	0.2293	0.6679	-0	0.075
Mof_H 	H 	0.0137	0.4893	0.9062	0.056
Mof_H 	H 	0.1557	0.4493	0.8699	0.113
Mof_H 	H 	0.3279	0.4699	0.8755	-0.014
Mof_H 	H 	0.6775	0.4477	0.902	-0.006
Mof_H 	H 	0.8486	0.452	0.9085	0.111
Mof_H 	H 	0.0638	0.655	0.9854	0.085
Mof_H 	H 	0.9249	0.7285	0.0009	0.079
Mof_H 	H 	0.7526	0.7158	0.9929	0.014
Mof_H 	H 	0.6485	0.8861	0.8892	-0.026
Mof_H 	H 	0.6923	0.9865	0.8316	0.167
Mof_H 	H 	0.5276	0.7528	0.7146	0.164
Mof_H 	H 	0.4964	0.6504	0.7721	-0.027
Mof_H 	H 	0.7264	0.2536	0.653	0.138
Mof_H 	H 	0.7994	0.3404	0.5932	-0.008
Mof_H 	H 	0.9135	0.1081	0.5476	-0.013
Mof_H 	H 	0.8448	0.0214	0.6069	0.135
Mof_H 	H 	0.2032	0.6522	0.5695	-0.008
Mof_H 	H 	0.9464	0.5244	0.6092	0.014
Mof_H 	H 	0.0148	0.6016	0.6944	0.09
Mof_H 	H 	0.28	0.7236	0.655	0.095
Mof_H 	H 	0.1721	0.6853	0.7647	0.06
Mof_H 	H 	0.7612	0.9472	0.6637	0.055
Mof_H 	H 	0.8589	0.0359	0.6959	0.033
Mof_H 	H 	0.7944	0.9502	0.7542	0.032
Mof_H 	H 	0.7667	0.0559	0.7633	0.03
Mof_H 	H 	0.8112	0.7164	0.5627	-0.043
Mof_H 	H 	0.94	0.8258	0.6302	0.178
Mof_H 	H 	0.8032	0.6918	0.7322	0.177
Mof_H 	H 	0.6784	0.579	0.6643	-0.04
Mof_H 	H 	0.0535	0.9161	0.6921	0.019
Mof_H 	H 	0.6779	0.3987	0.503	-0.009
Mof_H 	H 	0.6679	0.2293	0.5	0.1
Mof_H 	H 	0.4893	0.0137	0.4062	0.055
Mof_H 	H 	0.4493	0.1557	0.3699	0.114
Mof_H 	H 	0.4699	0.3279	0.3755	-0.015
Mof_H 	H 	0.4477	0.6775	0.402	-0.01
Mof_H 	H 	0.452	0.8486	0.4085	0.116
Mof_H 	H 	0.655	0.0638	0.4854	0.082
Mof_H 	H 	0.7285	0.9249	0.5009	0.118
Mof_H 	H 	0.7158	0.7526	0.4929	-0.004
Mof_H 	H 	0.8861	0.6485	0.3892	-0.027
Mof_H 	H 	0.9865	0.6923	0.3316	0.168
Mof_H 	H 	0.7528	0.5276	0.2146	0.164
Mof_H 	H 	0.6504	0.4964	0.2721	-0.027
Mof_H 	H 	0.2536	0.7264	0.153	0.139
Mof_H 	H 	0.3404	0.7994	0.0932	-0.009
Mof_H 	H 	0.1081	0.9135	0.0476	-0.017
Mof_H 	H 	0.0214	0.8448	0.1069	0.134
Mof_H 	H 	0.6522	0.2032	0.0695	-0.011
Mof_H 	H 	0.5244	0.9464	0.1092	0.014
Mof_H 	H 	0.6016	0.0148	0.1944	0.09
Mof_H 	H 	0.7236	0.28	0.155	0.095
Mof_H 	H 	0.6853	0.1721	0.2647	0.059
Mof_H 	H 	0.9472	0.7612	0.1637	0.056
Mof_H 	H 	0.0359	0.8589	0.1959	0.034
Mof_H 	H 	0.9502	0.7944	0.2542	0.03
Mof_H 	H 	0.0559	0.7667	0.2633	0.028
Mof_H 	H 	0.2836	0.1888	0.9373	-0.041
Mof_H 	H 	0.1742	0.06	0.8698	0.168
Mof_H 	H 	0.3082	0.1968	0.7678	0.174
Mof_H 	H 	0.421	0.3216	0.8357	-0.041
Mof_H 	H 	0.0839	0.9465	0.8079	0.002
Mof_H 	H 	0.6013	0.3221	0.997	0.024
Mof_H 	H 	0.7707	0.3321	-0	0.086
Mof_H 	H 	0.9863	0.5107	0.0938	0.076
Mof_H 	H 	0.8443	0.5507	0.1301	0.116
Mof_H 	H 	0.6721	0.5301	0.1245	-0.015
Mof_H 	H 	0.3225	0.5523	0.098	-0.006
Mof_H 	H 	0.1514	0.548	0.0915	0.099
Mof_H 	H 	0.9362	0.345	0.0146	0.059
Mof_H 	H 	0.0751	0.2715	0.9991	0.131
Mof_H 	H 	0.2474	0.2842	0.0071	-0.018
Mof_H 	H 	0.3515	0.1139	0.1108	-0.031
Mof_H 	H 	0.3077	0.0135	0.1684	0.15
Mof_H 	H 	0.4724	0.2472	0.2854	0.158
Mof_H 	H 	0.5036	0.3496	0.2279	-0.023
Mof_H 	H 	0.2736	0.7464	0.347	0.147
Mof_H 	H 	0.2006	0.6596	0.4068	-0.015
Mof_H 	H 	0.0865	0.8919	0.4524	-0.02
Mof_H 	H 	0.1552	0.9786	0.3931	0.154
Mof_H 	H 	0.7968	0.3478	0.4305	-0.013
Mof_H 	H 	0.0536	0.4756	0.3908	-0.037
Mof_H 	H 	0.9852	0.3984	0.3056	0.12
Mof_H 	H 	0.72	0.2764	0.345	0.105
Mof_H 	H 	0.8279	0.3147	0.2353	0.075
Mof_H 	H 	0.2388	0.0528	0.3363	-0.025
Mof_H 	H 	0.1411	0.9641	0.3041	-0.027
Mof_H 	H 	0.2056	0.0498	0.2458	0.08
Mof_H 	H 	0.2333	0.9441	0.2367	0.105
Mof_C 	C 	0.3386	0.2284	0.5254	0.102
Mof_C 	C 	0.3305	0.1239	0.52	-0.168
Mof_C 	C 	0.4937	0.2721	0.5778	0.103
Mof_C 	C 	0.4913	0.1683	0.5739	-0.167
Mof_C 	C 	0.4077	0.0915	0.5451	0.104
Mof_C 	C 	0.355	0.4318	0.4361	0.467
Mof_C 	C 	0.2679	0.3633	0.3928	-0.302
Mof_C 	C 	0.1903	0.2895	0.4031	0.261
Mof_C 	C 	0.1138	0.2232	0.3626	-0.394
Mof_C 	C 	0.1172	0.2296	0.313	0.382
Mof_C 	C 	0.1945	0.3033	0.3021	-0.377
Mof_C 	C 	0.2692	0.3702	0.3428	0.26
Mof_C 	C 	0.9636	0.0952	0.2765	0.117
Mof_C 	C 	0.3687	0.6509	0.5242	0.121
Mof_C 	C 	0.3748	0.7528	0.5257	-0.209
Mof_C 	C 	0.4437	0.8297	0.565	0.167
Mof_C 	C 	0.4558	0.941	0.5686	-0.128
Mof_C 	C 	0.5032	0.7966	0.6026	-0.224
Mof_C 	C 	0.4908	0.6928	0.59852	0.131
Mof_C 	C 	0.3983	0.9817	0.5406	-0.041
Mof_C 	C 	0.3135	0.4495	0.6257	0.365
Mof_C 	C 	0.2456	0.4312	0.66267	-0.238
Mof_C 	C 	0.1422	0.3734	0.6464	0.209
Mof_C 	C 	0.0818	0.348	0.6804	-0.329
Mof_C 	C 	0.1214	0.382	0.7329	0.31
Mof_C 	C 	0.2212	0.4444	0.7501	-0.328
Mof_C 	C 	0.2808	0.4648	0.7155	0.215
Mof_C 	C 	0.8708	0.2176	0.8646	0.316
Mof_C 	C 	0.7748	0.2348	0.8678	-0.294
Mof_C 	C 	0.7237	0.1911	0.9038	0.161
Mof_C 	C 	0.7665	0.1341	0.9349	-0.218
Mof_C 	C 	0.8617	0.1229	0.9308	0.187
Mof_C 	C 	0.9141	0.1641	0.8955	-0.329
Mof_C 	C 	0.7076	0.08	0.9706	0.381
Mof_C 	C 	0.3596	0.8352	0.9051	0.116
Mof_C 	C 	0.4331	0.9857	0.88178	0.151
Mof_C 	C 	0.3884	0.9444	0.8302	-0.213
Mof_C 	C 	0.3285	0.8429	0.8147	0.159
Mof_C 	C 	0.3156	0.789	0.8536	-0.196
Mof_C 	C 	0.2828	0.7966	0.7593	-0.107
Mof_C 	C 	0.989	0.216	0.81	0.201
Mof_C 	C 	0.0093	0.2467	0.7612	-0.151
Mof_C 	C 	0.7716	0.6614	0.9746	0.105
Mof_C 	C 	0.8761	0.6695	0.98	-0.156
Mof_C 	C 	0.7279	0.5063	0.9222	0.125
Mof_C 	C 	0.8317	0.5087	0.9261	-0.2
Mof_C 	C 	0.9085	0.5923	0.9549	0.17
Mof_C 	C 	0.5682	0.645	0.0639	0.469
Mof_C 	C 	0.6367	0.7321	0.1072	-0.303
Mof_C 	C 	0.7105	0.8097	0.0969	0.262
Mof_C 	C 	0.7768	0.8862	0.1374	-0.388
Mof_C 	C 	0.7704	0.8828	0.187	0.378
Mof_C 	C 	0.6967	0.8055	0.1979	-0.371
Mof_C 	C 	0.6298	0.7308	0.1572	0.26
Mof_C 	C 	0.9048	0.0364	0.2235	0.056
Mof_C 	C 	0.3491	0.6313	0.9758	0.132
Mof_C 	C 	0.2472	0.6252	0.9743	-0.152
Mof_C 	C 	0.1703	0.5563	0.935	0.12
Mof_C 	C 	0.059	0.5442	0.9314	-0.056
Mof_C 	C 	0.2034	0.4968	0.8974	-0.193
Mof_C 	C 	0.3072	0.5092	0.90148	0.115
Mof_C 	C 	0.0183	0.6017	0.9594	-0.133
Mof_C 	C 	0.5505	0.6865	0.8743	0.367
Mof_C 	C 	0.5688	0.7544	0.83733	-0.244
Mof_C 	C 	0.6266	0.8578	0.8536	0.222
Mof_C 	C 	0.652	0.9182	0.8196	-0.343
Mof_C 	C 	0.618	0.8786	0.7671	0.333
Mof_C 	C 	0.5556	0.7788	0.7499	-0.343
Mof_C 	C 	0.5352	0.7192	0.7845	0.227
Mof_C 	C 	0.7824	0.1292	0.6354	0.282
Mof_C 	C 	0.7652	0.2252	0.6322	-0.274
Mof_C 	C 	0.8089	0.2763	0.5962	0.147
Mof_C 	C 	0.8659	0.2335	0.5651	-0.207
Mof_C 	C 	0.8771	0.1383	0.5692	0.168
Mof_C 	C 	0.8359	0.0859	0.6045	-0.306
Mof_C 	C 	0.92	0.2924	0.5294	0.377
Mof_C 	C 	0.1648	0.6404	0.5949	0.098
Mof_C 	C 	0.0143	0.5669	0.61822	0.068
Mof_C 	C 	0.0556	0.6116	0.6698	-0.159
Mof_C 	C 	0.1571	0.6715	0.6853	0.12
Mof_C 	C 	0.211	0.6844	0.6464	-0.17
Mof_C 	C 	0.2034	0.7172	0.7407	-0.071
Mof_C 	C 	0.784	0.011	0.69	-0.009
Mof_C 	C 	0.7533	0.9907	0.7388	0.044
Mof_C 	C 	0.6614	0.7716	0.4746	0.134
Mof_C 	C 	0.6695	0.8761	0.48	-0.223
Mof_C 	C 	0.5063	0.7279	0.4222	0.134
Mof_C 	C 	0.5087	0.8317	0.4261	-0.221
Mof_C 	C 	0.5923	0.9085	0.4549	0.196
Mof_C 	C 	0.645	0.5682	0.5639	0.465
Mof_C 	C 	0.7321	0.6367	0.6072	-0.297
Mof_C 	C 	0.8097	0.7105	0.5969	0.258
Mof_C 	C 	0.8862	0.7768	0.6374	-0.383
Mof_C 	C 	0.8828	0.7704	0.687	0.376
Mof_C 	C 	0.8055	0.6967	0.6979	-0.368
Mof_C 	C 	0.7308	0.6298	0.6572	0.256
Mof_C 	C 	0.0364	0.9048	0.7235	0.056
Mof_C 	C 	0.6313	0.3491	0.4758	0.107
Mof_C 	C 	0.6252	0.2472	0.4743	-0.182
Mof_C 	C 	0.5563	0.1703	0.435	0.126
Mof_C 	C 	0.5442	0.059	0.4314	-0.057
Mof_C 	C 	0.4968	0.2034	0.3974	-0.198
Mof_C 	C 	0.5092	0.3072	0.40148	0.117
Mof_C 	C 	0.6017	0.0183	0.4594	-0.148
Mof_C 	C 	0.6865	0.5505	0.3743	0.369
Mof_C 	C 	0.7544	0.5688	0.33733	-0.246
Mof_C 	C 	0.8578	0.6266	0.3536	0.224
Mof_C 	C 	0.9182	0.652	0.3196	-0.345
Mof_C 	C 	0.8786	0.618	0.2671	0.334
Mof_C 	C 	0.7788	0.5556	0.2499	-0.345
Mof_C 	C 	0.7192	0.5352	0.2845	0.229
Mof_C 	C 	0.1292	0.7824	0.1354	0.282
Mof_C 	C 	0.2252	0.7652	0.1322	-0.276
Mof_C 	C 	0.2763	0.8089	0.0962	0.149
Mof_C 	C 	0.2335	0.8659	0.0651	-0.211
Mof_C 	C 	0.1383	0.8771	0.0692	0.17
Mof_C 	C 	0.0859	0.8359	0.1045	-0.308
Mof_C 	C 	0.2924	0.92	0.0294	0.378
Mof_C 	C 	0.6404	0.1648	0.0949	0.097
Mof_C 	C 	0.5669	0.0143	0.11822	0.067
Mof_C 	C 	0.6116	0.0556	0.1698	-0.159
Mof_C 	C 	0.6715	0.1571	0.1853	0.12
Mof_C 	C 	0.6844	0.211	0.1464	-0.17
Mof_C 	C 	0.7172	0.2034	0.2407	-0.07
Mof_C 	C 	0.011	0.784	0.19	-0.013
Mof_C 	C 	0.9907	0.7533	0.2388	0.049
Mof_C 	C 	0.2284	0.3386	0.0254	0.137
Mof_C 	C 	0.1239	0.3305	0.02	-0.246
Mof_C 	C 	0.2721	0.4937	0.0778	0.118
Mof_C 	C 	0.1683	0.4913	0.0739	-0.198
Mof_C 	C 	0.0915	0.4077	0.0451	0.148
Mof_C 	C 	0.4318	0.355	0.9361	0.462
Mof_C 	C 	0.3633	0.2679	0.8928	-0.296
Mof_C 	C 	0.2895	0.1903	0.9031	0.256
Mof_C 	C 	0.2232	0.1138	0.8626	-0.389
Mof_C 	C 	0.2296	0.1172	0.813	0.379
Mof_C 	C 	0.3033	0.1945	0.8021	-0.373
Mof_C 	C 	0.3702	0.2692	0.8428	0.256
Mof_C 	C 	0.0952	0.9636	0.7765	0.115
Mof_C 	C 	0.6509	0.3687	0.0242	0.054
Mof_C 	C 	0.7528	0.3748	0.0257	-0.164
Mof_C 	C 	0.8297	0.4437	0.065	0.131
Mof_C 	C 	0.941	0.4558	0.0686	-0.094
Mof_C 	C 	0.7966	0.5032	0.1026	-0.2
Mof_C 	C 	0.6928	0.4908	0.09852	0.116
Mof_C 	C 	0.9817	0.3983	0.0406	-0.084
Mof_C 	C 	0.4495	0.3135	0.1257	0.367
Mof_C 	C 	0.4312	0.2456	0.16267	-0.239
Mof_C 	C 	0.3734	0.1422	0.1464	0.211
Mof_C 	C 	0.348	0.0818	0.1804	-0.331
Mof_C 	C 	0.382	0.1214	0.2329	0.311
Mof_C 	C 	0.4444	0.2212	0.2501	-0.329
Mof_C 	C 	0.4648	0.2808	0.2155	0.216
Mof_C 	C 	0.2176	0.8708	0.3646	0.317
Mof_C 	C 	0.2348	0.7748	0.3678	-0.297
Mof_C 	C 	0.1911	0.7237	0.4038	0.162
Mof_C 	C 	0.1341	0.7665	0.4349	-0.225
Mof_C 	C 	0.1229	0.8617	0.4308	0.19
Mof_C 	C 	0.1641	0.9141	0.3955	-0.333
Mof_C 	C 	0.08	0.7076	0.4706	0.382
Mof_C 	C 	0.8352	0.3596	0.4051	0.116
Mof_C 	C 	0.9857	0.4331	0.38178	0.157
Mof_C 	C 	0.9444	0.3884	0.3302	-0.217
Mof_C 	C 	0.8429	0.3285	0.3147	0.161
Mof_C 	C 	0.789	0.3156	0.3536	-0.198
Mof_C 	C 	0.7966	0.2828	0.2593	-0.109
Mof_C 	C 	0.216	0.989	0.31	0.201
Mof_C 	C 	0.2467	0.0093	0.2612	-0.151
Mof_N 	N 	0.41825	0.30275	0.55446	-0.233
Mof_N 	N 	0.42679	0.61981	0.56004	-0.253
Mof_N 	N 	0.41934	0.93406	0.91962	-0.248
Mof_N 	N 	0.69725	0.58175	0.94554	-0.234
Mof_N 	N 	0.38019	0.57321	0.93996	-0.248
Mof_N 	N 	0.06594	0.58066	0.58038	-0.241
Mof_N 	N 	0.58175	0.69725	0.44554	-0.245
Mof_N 	N 	0.57321	0.38019	0.43996	-0.247
Mof_N 	N 	0.58066	0.06594	0.08038	-0.244
Mof_N 	N 	0.30275	0.41825	0.05446	-0.246
Mof_N 	N 	0.61981	0.42679	0.06004	-0.241
Mof_N 	N 	0.93406	0.41934	0.41962	-0.253
Mof_O 	O 	0.35312	0.41504	0.48074	-0.478
Mof_O 	O 	0.42327	0.49965	0.42456	-0.476
Mof_O 	O 	0.0454	0.1672	0.27064	-0.313
Mof_O 	O 	0.27406	0.43088	0.57758	-0.397
Mof_O 	O 	0.40937	0.48203	0.64149	-0.37
Mof_O 	O 	0.9177	0.2583	0.8272	-0.284
Mof_O 	O 	0.0665	0.3587	0.77093	-0.22
Mof_O 	O 	0.7473	0.0251	0.99459	-0.294
Mof_O 	O 	0.61923	0.09357	0.97223	-0.424
Mof_O 	O 	0.58496	0.64688	0.01926	-0.489
Mof_O 	O 	0.50035	0.57673	0.07544	-0.479
Mof_O 	O 	0.8328	0.9546	0.22936	-0.273
Mof_O 	O 	0.56912	0.72594	0.92242	-0.389
Mof_O 	O 	0.51797	0.59063	0.85851	-0.37
Mof_O 	O 	0.7417	0.0823	0.6728	-0.242
Mof_O 	O 	0.6413	0.9335	0.72907	-0.25
Mof_O 	O 	0.9749	0.2527	0.50541	-0.294
Mof_O 	O 	0.90643	0.38077	0.52777	-0.426
Mof_O 	O 	0.64688	0.58496	0.51926	-0.476
Mof_O 	O 	0.57673	0.50035	0.57544	-0.476
Mof_O 	O 	0.9546	0.8328	0.72936	-0.272
Mof_O 	O 	0.72594	0.56912	0.42242	-0.394
Mof_O 	O 	0.59063	0.51797	0.35851	-0.371
Mof_O 	O 	0.0823	0.7417	0.1728	-0.242
Mof_O 	O 	0.9335	0.6413	0.22907	-0.251
Mof_O 	O 	0.2527	0.9749	0.00541	-0.303
Mof_O 	O 	0.38077	0.90643	0.02777	-0.431
Mof_O 	O 	0.41504	0.35312	0.98074	-0.464
Mof_O 	O 	0.49965	0.42327	0.92456	-0.472
Mof_O 	O 	0.1672	0.0454	0.77064	-0.311
Mof_O 	O 	0.43088	0.27406	0.07758	-0.401
Mof_O 	O 	0.48203	0.40937	0.14149	-0.371
Mof_O 	O 	0.2583	0.9177	0.3272	-0.285
Mof_O 	O 	0.3587	0.0665	0.27093	-0.22
Mof_O 	O 	0.0251	0.7473	0.49459	-0.305
Mof_O 	O 	0.09357	0.61923	0.47223	-0.435
_end
