data_functionalizedCrystal
_audit_creation_method	'EQeq! by Chris Wilmer'
_symmetry_space_group_name_H-M	'P1'
_symmetry_Int_Tables_number	1
_symmetry_cell_setting	triclinic
loop_
_symmetry_equiv_pos_as_xyz
  x,y,z
_cell_length_a	8.4288
_cell_length_b	9.006
_cell_length_c	9.006
_cell_angle_alpha	77.3507
_cell_angle_beta	62.0983
_cell_angle_gamma	62.0983
loop_
_atom_site_label
_atom_site_type_symbol
_atom_site_fract_x
_atom_site_fract_y
_atom_site_fract_z
_atom_site_charge
Mof_Ca	Ca	-0	0	-0	0.736
Mof_Ca	Ca	0.5	0	-0	0.712
Mof_Zr	Zr	0.75	0.5	0.5	3.177
Mof_C 	C 	0.9728	0.2316	0.2316	0.135
Mof_C 	C 	0.7627	0.2659	0.2659	0.149
Mof_C 	C 	0.436	0.7684	0.7684	0.257
Mof_C 	C 	0.2945	0.7341	0.7341	0.198
Mof_C 	C 	0.7956	0.2316	0.7684	0.255
Mof_C 	C 	0.9714	0.2659	0.7341	0.108
Mof_C 	C 	0.7956	0.7684	0.2316	0.255
Mof_C 	C 	0.9714	0.7341	0.2659	0.108
Mof_O 	O 	0.135	0.127	0.127	-0.383
Mof_O 	O 	0.0066	0.3075	0.3075	-0.564
Mof_O 	O 	0.681	0.2098	0.2098	-0.314
Mof_O 	O 	0.6373	0.3777	0.3777	-0.471
Mof_O 	O 	0.389	0.873	0.873	-0.157
Mof_O 	O 	0.6216	0.6925	0.6925	-0.565
Mof_O 	O 	0.1006	0.7902	0.7902	-0.11
Mof_O 	O 	0.3927	0.6223	0.6223	-0.444
Mof_O 	O 	0.738	0.127	0.873	-0.301
Mof_O 	O 	0.6859	0.3075	0.6925	-0.602
Mof_O 	O 	0.1092	0.2098	0.7902	-0.17
Mof_O 	O 	0.985	0.3777	0.6223	-0.468
Mof_O 	O 	0.738	0.873	0.127	-0.301
Mof_O 	O 	0.6859	0.6925	0.3075	-0.602
Mof_O 	O 	0.1092	0.7902	0.2098	-0.17
Mof_O 	O 	0.985	0.6223	0.3777	-0.468
_end
