data_functionalizedCrystal
_audit_creation_method	'EQeq! by Chris Wilmer'
_symmetry_space_group_name_H-M	'P1'
_symmetry_Int_Tables_number	1
_symmetry_cell_setting	triclinic
loop_
_symmetry_equiv_pos_as_xyz
  x,y,z
_cell_length_a	33.138
_cell_length_b	9.893
_cell_length_c	26.959
_cell_angle_alpha	90
_cell_angle_beta	106.751
_cell_angle_gamma	90
loop_
_atom_site_label
_atom_site_type_symbol
_atom_site_fract_x
_atom_site_fract_y
_atom_site_fract_z
_atom_site_charge
Mof_Dy	Dy	0.05278	0.11324	0.5019	1.902
Mof_O 	O 	0.11743	0.1819	0.56821	-0.42
Mof_O 	O 	0.12118	0.0069	0.5202	-0.438
Mof_O 	O 	0.47512	0.5937	0.52923	-0.575
Mof_O 	O 	0.52258	0.7556	0.55245	-0.478
Mof_O 	O 	0.44095	0.48	0.92472	-0.49
Mof_O 	O 	0.49249	0.3256	0.93747	-0.543
Mof_N 	N 	0.33318	0.1234	0.69899	-0.141
Mof_C 	C 	0.45832	0.3791	0.91174	0.488
Mof_C 	C 	0.184	0.0757	0.58299	-0.091
Mof_C 	C 	0.13787	0.0894	0.55624	0.327
Mof_N 	N 	0.33942	0.9857	0.62961	-0.145
Mof_C 	C 	0.27083	0.0621	0.631	0.021
Mof_C 	C 	0.48733	0.7034	0.55119	0.459
Mof_C 	C 	0.39522	0.3474	0.8336	0.073
Mof_H 	H 	0.3811	0.4163	0.8466	0.021
Mof_C 	C 	0.31689	0.0563	0.6541	0.104
Mof_C 	C 	0.20314	0.16	0.6249	0.012
Mof_H 	H 	0.1866	0.223	0.6372	0.041
Mof_C 	C 	0.47599	0.8836	0.6112	0.064
Mof_H 	H 	0.5046	0.9101	0.6175	0.017
Mof_C 	C 	0.43619	0.3115	0.86107	-0.177
Mof_C 	C 	0.45992	0.7785	0.5771	-0.176
Mof_C 	C 	0.25181	0.9769	0.59	-0.082
Mof_H 	H 	0.2684	0.9143	0.5777	0.064
Mof_C 	C 	0.24609	0.1515	0.6484	-0.08
Mof_H 	H 	0.2587	0.2085	0.677	0.065
Mof_N 	N 	0.40074	0.0514	0.6959	-0.143
Mof_C 	C 	0.37541	0.1171	0.7179	0.097
Mof_C 	C 	0.20864	0.9828	0.567	0.016
Mof_H 	H 	0.1958	0.9218	0.5399	0.036
Mof_C 	C 	0.45653	0.2098	0.8426	0.079
Mof_H 	H 	0.4842	0.1831	0.8618	-0.001
Mof_C 	C 	0.41748	0.7418	0.5673	0.066
Mof_H 	H 	0.4065	0.6687	0.5445	0.003
Mof_C 	C 	0.39145	0.8117	0.5905	-0.124
Mof_H 	H 	0.3625	0.7888	0.583	0.076
Mof_C 	C 	0.37472	0.2833	0.7872	-0.121
Mof_H 	H 	0.3467	0.3077	0.7687	0.079
Mof_C 	C 	0.43658	0.1469	0.7962	-0.125
Mof_H 	H 	0.4508	0.0782	0.7832	0.078
Mof_C 	C 	0.38102	0.9872	0.6517	0.095
Mof_C 	C 	0.39554	0.1839	0.7683	0.053
Mof_C 	C 	0.40835	0.9154	0.6249	0.044
Mof_C 	C 	0.45082	0.9492	0.6356	-0.126
Mof_H 	H 	0.4623	0.0183	0.66	0.07
Mof_Dy	Dy	0.55278	0.61324	0.5019	1.904
Mof_O 	O 	0.61743	0.6819	0.56821	-0.419
Mof_O 	O 	0.62118	0.5069	0.5202	-0.437
Mof_O 	O 	0.97512	0.0937	0.52923	-0.574
Mof_O 	O 	0.02258	0.2556	0.55245	-0.477
Mof_O 	O 	0.94095	0.98	0.92472	-0.488
Mof_O 	O 	0.99249	0.8256	0.93747	-0.541
Mof_N 	N 	0.83318	0.6234	0.69899	-0.14
Mof_C 	C 	0.95832	0.8791	0.91174	0.489
Mof_C 	C 	0.684	0.5757	0.58299	-0.089
Mof_C 	C 	0.63787	0.5894	0.55624	0.328
Mof_N 	N 	0.83942	0.4857	0.62961	-0.144
Mof_C 	C 	0.77083	0.5621	0.631	0.022
Mof_C 	C 	0.98733	0.2034	0.55119	0.46
Mof_C 	C 	0.89522	0.8474	0.8336	0.074
Mof_H 	H 	0.8811	0.9163	0.8466	0.022
Mof_C 	C 	0.81689	0.5563	0.6541	0.106
Mof_C 	C 	0.70314	0.66	0.6249	0.013
Mof_H 	H 	0.6866	0.723	0.6372	0.042
Mof_C 	C 	0.97599	0.3836	0.6112	0.066
Mof_H 	H 	0.0046	0.4101	0.6175	0.018
Mof_C 	C 	0.93619	0.8115	0.86107	-0.175
Mof_C 	C 	0.95992	0.2785	0.5771	-0.176
Mof_C 	C 	0.75181	0.4769	0.59	-0.082
Mof_H 	H 	0.7684	0.4143	0.5777	0.064
Mof_C 	C 	0.74609	0.6515	0.6484	-0.08
Mof_H 	H 	0.7587	0.7085	0.677	0.066
Mof_N 	N 	0.90074	0.5514	0.6959	-0.142
Mof_C 	C 	0.87541	0.6171	0.7179	0.097
Mof_C 	C 	0.70864	0.4828	0.567	0.016
Mof_H 	H 	0.6958	0.4218	0.5399	0.036
Mof_C 	C 	0.95653	0.7098	0.8426	0.079
Mof_H 	H 	0.9842	0.6831	0.8618	-0.001
Mof_C 	C 	0.91748	0.2418	0.5673	0.066
Mof_H 	H 	0.9065	0.1687	0.5445	0.003
Mof_C 	C 	0.89145	0.3117	0.5905	-0.124
Mof_H 	H 	0.8625	0.2888	0.583	0.077
Mof_C 	C 	0.87472	0.7833	0.7872	-0.121
Mof_H 	H 	0.8467	0.8077	0.7687	0.079
Mof_C 	C 	0.93658	0.6469	0.7962	-0.125
Mof_H 	H 	0.9508	0.5782	0.7832	0.078
Mof_C 	C 	0.88102	0.4872	0.6517	0.094
Mof_C 	C 	0.89554	0.6839	0.7683	0.052
Mof_C 	C 	0.90835	0.4154	0.6249	0.045
Mof_C 	C 	0.95082	0.4492	0.6356	-0.128
Mof_H 	H 	0.9623	0.5183	0.66	0.071
Mof_Dy	Dy	0.94722	0.11324	0.9981	1.904
Mof_O 	O 	0.88257	0.1819	0.93179	-0.419
Mof_O 	O 	0.87882	0.0069	0.9798	-0.437
Mof_O 	O 	0.52488	0.5937	0.97077	-0.574
Mof_O 	O 	0.47742	0.7556	0.94755	-0.477
Mof_O 	O 	0.55905	0.48	0.57528	-0.488
Mof_O 	O 	0.50751	0.3256	0.56253	-0.542
Mof_N 	N 	0.66682	0.1234	0.80101	-0.14
Mof_C 	C 	0.54168	0.3791	0.58826	0.489
Mof_C 	C 	0.816	0.0757	0.91701	-0.09
Mof_C 	C 	0.86213	0.0894	0.94376	0.328
Mof_N 	N 	0.66058	0.9857	0.87039	-0.143
Mof_C 	C 	0.72917	0.0621	0.869	0.021
Mof_C 	C 	0.51267	0.7034	0.94881	0.46
Mof_C 	C 	0.60478	0.3474	0.6664	0.074
Mof_H 	H 	0.6189	0.4163	0.6534	0.022
Mof_C 	C 	0.68311	0.0563	0.8459	0.105
Mof_C 	C 	0.79686	0.16	0.8751	0.013
Mof_H 	H 	0.8134	0.223	0.8628	0.042
Mof_C 	C 	0.52401	0.8836	0.8888	0.065
Mof_H 	H 	0.4954	0.9101	0.8825	0.018
Mof_C 	C 	0.56381	0.3115	0.63893	-0.176
Mof_C 	C 	0.54008	0.7785	0.9229	-0.175
Mof_C 	C 	0.74819	0.9769	0.91	-0.081
Mof_H 	H 	0.7316	0.9143	0.9223	0.064
Mof_C 	C 	0.75391	0.1515	0.8516	-0.08
Mof_H 	H 	0.7413	0.2085	0.823	0.066
Mof_N 	N 	0.59926	0.0514	0.8041	-0.143
Mof_C 	C 	0.62459	0.1171	0.7821	0.097
Mof_C 	C 	0.79136	0.9828	0.933	0.017
Mof_H 	H 	0.8042	0.9218	0.9601	0.036
Mof_C 	C 	0.54347	0.2098	0.6574	0.079
Mof_H 	H 	0.5158	0.1831	0.6382	-0.001
Mof_C 	C 	0.58252	0.7418	0.9327	0.066
Mof_H 	H 	0.5935	0.6687	0.9555	0.003
Mof_C 	C 	0.60855	0.8117	0.9095	-0.124
Mof_H 	H 	0.6375	0.7888	0.917	0.076
Mof_C 	C 	0.62528	0.2833	0.7128	-0.121
Mof_H 	H 	0.6533	0.3077	0.7313	0.079
Mof_C 	C 	0.56342	0.1469	0.7038	-0.125
Mof_H 	H 	0.5492	0.0782	0.7168	0.078
Mof_C 	C 	0.61898	0.9872	0.8483	0.095
Mof_C 	C 	0.60446	0.1839	0.7317	0.052
Mof_C 	C 	0.59165	0.9154	0.8751	0.044
Mof_C 	C 	0.54918	0.9492	0.8644	-0.125
Mof_H 	H 	0.5377	0.0183	0.84	0.07
Mof_Dy	Dy	0.44722	0.61324	0.9981	1.906
Mof_O 	O 	0.38257	0.6819	0.93179	-0.419
Mof_O 	O 	0.37882	0.5069	0.9798	-0.437
Mof_O 	O 	0.02488	0.0937	0.97077	-0.574
Mof_O 	O 	0.97742	0.2556	0.94755	-0.478
Mof_O 	O 	0.05905	0.98	0.57528	-0.488
Mof_O 	O 	0.00751	0.8256	0.56253	-0.541
Mof_N 	N 	0.16682	0.6234	0.80101	-0.14
Mof_C 	C 	0.04168	0.8791	0.58826	0.489
Mof_C 	C 	0.316	0.5757	0.91701	-0.089
Mof_C 	C 	0.36213	0.5894	0.94376	0.328
Mof_N 	N 	0.16058	0.4857	0.87039	-0.144
Mof_C 	C 	0.22917	0.5621	0.869	0.022
Mof_C 	C 	0.01267	0.2034	0.94881	0.461
Mof_C 	C 	0.10478	0.8474	0.6664	0.074
Mof_H 	H 	0.1189	0.9163	0.6534	0.022
Mof_C 	C 	0.18311	0.5563	0.8459	0.106
Mof_C 	C 	0.29686	0.66	0.8751	0.013
Mof_H 	H 	0.3134	0.723	0.8628	0.042
Mof_C 	C 	0.02401	0.3836	0.8888	0.068
Mof_H 	H 	0.9954	0.4101	0.8825	0.017
Mof_C 	C 	0.06381	0.8115	0.63893	-0.175
Mof_C 	C 	0.04008	0.2785	0.9229	-0.176
Mof_C 	C 	0.24819	0.4769	0.91	-0.082
Mof_H 	H 	0.2316	0.4143	0.9223	0.064
Mof_C 	C 	0.25391	0.6515	0.8516	-0.08
Mof_H 	H 	0.2413	0.7085	0.823	0.066
Mof_N 	N 	0.09926	0.5514	0.8041	-0.142
Mof_C 	C 	0.12459	0.6171	0.7821	0.097
Mof_C 	C 	0.29136	0.4828	0.933	0.016
Mof_H 	H 	0.3042	0.4218	0.9601	0.036
Mof_C 	C 	0.04347	0.7098	0.6574	0.079
Mof_H 	H 	0.0158	0.6831	0.6382	-0.001
Mof_C 	C 	0.08252	0.2418	0.9327	0.067
Mof_H 	H 	0.0935	0.1687	0.9555	0.003
Mof_C 	C 	0.10855	0.3117	0.9095	-0.125
Mof_H 	H 	0.1375	0.2888	0.917	0.077
Mof_C 	C 	0.12528	0.7833	0.7128	-0.121
Mof_H 	H 	0.1533	0.8077	0.7313	0.079
Mof_C 	C 	0.06342	0.6469	0.7038	-0.125
Mof_H 	H 	0.0492	0.5782	0.7168	0.078
Mof_C 	C 	0.11898	0.4872	0.8483	0.094
Mof_C 	C 	0.10446	0.6839	0.7317	0.053
Mof_C 	C 	0.09165	0.4154	0.8751	0.045
Mof_C 	C 	0.04918	0.4492	0.8644	-0.129
Mof_H 	H 	0.0377	0.5183	0.84	0.072
Mof_Dy	Dy	0.94722	0.88676	0.4981	1.903
Mof_O 	O 	0.88257	0.8181	0.43179	-0.419
Mof_O 	O 	0.87882	0.9931	0.4798	-0.437
Mof_O 	O 	0.52488	0.4063	0.47077	-0.574
Mof_O 	O 	0.47742	0.2444	0.44755	-0.477
Mof_O 	O 	0.55905	0.52	0.07528	-0.489
Mof_O 	O 	0.50751	0.6744	0.06253	-0.542
Mof_N 	N 	0.66682	0.8766	0.30101	-0.14
Mof_C 	C 	0.54168	0.6209	0.08826	0.489
Mof_C 	C 	0.816	0.9243	0.41701	-0.09
Mof_C 	C 	0.86213	0.9106	0.44376	0.328
Mof_N 	N 	0.66058	0.0143	0.37039	-0.144
Mof_C 	C 	0.72917	0.9379	0.369	0.022
Mof_C 	C 	0.51267	0.2966	0.44881	0.46
Mof_C 	C 	0.60478	0.6526	0.1664	0.074
Mof_H 	H 	0.6189	0.5837	0.1534	0.022
Mof_C 	C 	0.68311	0.9437	0.3459	0.105
Mof_C 	C 	0.79686	0.84	0.3751	0.013
Mof_H 	H 	0.8134	0.777	0.3628	0.042
Mof_C 	C 	0.52401	0.1164	0.3888	0.065
Mof_H 	H 	0.4954	0.0899	0.3825	0.018
Mof_C 	C 	0.56381	0.6885	0.13893	-0.176
Mof_C 	C 	0.54008	0.2215	0.4229	-0.175
Mof_C 	C 	0.74819	0.0231	0.41	-0.081
Mof_H 	H 	0.7316	0.0857	0.4223	0.064
Mof_C 	C 	0.75391	0.8485	0.3516	-0.08
Mof_H 	H 	0.7413	0.7915	0.323	0.065
Mof_N 	N 	0.59926	0.9486	0.3041	-0.143
Mof_C 	C 	0.62459	0.8829	0.2821	0.097
Mof_C 	C 	0.79136	0.0172	0.433	0.016
Mof_H 	H 	0.8042	0.0782	0.4601	0.036
Mof_C 	C 	0.54347	0.7902	0.1574	0.079
Mof_H 	H 	0.5158	0.8169	0.1382	-0.001
Mof_C 	C 	0.58252	0.2582	0.4327	0.066
Mof_H 	H 	0.5935	0.3313	0.4555	0.003
Mof_C 	C 	0.60855	0.1883	0.4095	-0.124
Mof_H 	H 	0.6375	0.2112	0.417	0.076
Mof_C 	C 	0.62528	0.7167	0.2128	-0.121
Mof_H 	H 	0.6533	0.6923	0.2313	0.079
Mof_C 	C 	0.56342	0.8531	0.2038	-0.125
Mof_H 	H 	0.5492	0.9218	0.2168	0.078
Mof_C 	C 	0.61898	0.0128	0.3483	0.095
Mof_C 	C 	0.60446	0.8161	0.2317	0.053
Mof_C 	C 	0.59165	0.0846	0.3751	0.044
Mof_C 	C 	0.54918	0.0508	0.3644	-0.126
Mof_H 	H 	0.5377	0.9817	0.34	0.07
Mof_Dy	Dy	0.44722	0.38676	0.4981	1.904
Mof_O 	O 	0.38257	0.3181	0.43179	-0.419
Mof_O 	O 	0.37882	0.4931	0.4798	-0.437
Mof_O 	O 	0.02488	0.9063	0.47077	-0.574
Mof_O 	O 	0.97742	0.7444	0.44755	-0.477
Mof_O 	O 	0.05905	0.02	0.07528	-0.488
Mof_O 	O 	0.00751	0.1744	0.06253	-0.541
Mof_N 	N 	0.16682	0.3766	0.30101	-0.14
Mof_C 	C 	0.04168	0.1209	0.08826	0.489
Mof_C 	C 	0.316	0.4243	0.41701	-0.089
Mof_C 	C 	0.36213	0.4106	0.44376	0.328
Mof_N 	N 	0.16058	0.5143	0.37039	-0.144
Mof_C 	C 	0.22917	0.4379	0.369	0.022
Mof_C 	C 	0.01267	0.7966	0.44881	0.46
Mof_C 	C 	0.10478	0.1526	0.1664	0.074
Mof_H 	H 	0.1189	0.0837	0.1534	0.022
Mof_C 	C 	0.18311	0.4437	0.3459	0.106
Mof_C 	C 	0.29686	0.34	0.3751	0.013
Mof_H 	H 	0.3134	0.277	0.3628	0.042
Mof_C 	C 	0.02401	0.6164	0.3888	0.066
Mof_H 	H 	0.9954	0.5899	0.3825	0.018
Mof_C 	C 	0.06381	0.1885	0.13893	-0.175
Mof_C 	C 	0.04008	0.7215	0.4229	-0.176
Mof_C 	C 	0.24819	0.5231	0.41	-0.082
Mof_H 	H 	0.2316	0.5857	0.4223	0.064
Mof_C 	C 	0.25391	0.3485	0.3516	-0.08
Mof_H 	H 	0.2413	0.2915	0.323	0.066
Mof_N 	N 	0.09926	0.4486	0.3041	-0.142
Mof_C 	C 	0.12459	0.3829	0.2821	0.097
Mof_C 	C 	0.29136	0.5172	0.433	0.016
Mof_H 	H 	0.3042	0.5782	0.4601	0.036
Mof_C 	C 	0.04347	0.2902	0.1574	0.079
Mof_H 	H 	0.0158	0.3169	0.1382	-0.001
Mof_C 	C 	0.08252	0.7582	0.4327	0.066
Mof_H 	H 	0.0935	0.8313	0.4555	0.003
Mof_C 	C 	0.10855	0.6883	0.4095	-0.124
Mof_H 	H 	0.1375	0.7112	0.417	0.077
Mof_C 	C 	0.12528	0.2167	0.2128	-0.121
Mof_H 	H 	0.1533	0.1923	0.2313	0.079
Mof_C 	C 	0.06342	0.3531	0.2038	-0.125
Mof_H 	H 	0.0492	0.4218	0.2168	0.078
Mof_C 	C 	0.11898	0.5128	0.3483	0.094
Mof_C 	C 	0.10446	0.3161	0.2317	0.052
Mof_C 	C 	0.09165	0.5846	0.3751	0.045
Mof_C 	C 	0.04918	0.5508	0.3644	-0.128
Mof_H 	H 	0.0377	0.4817	0.34	0.071
Mof_Dy	Dy	0.05278	0.88676	0.0019	1.904
Mof_O 	O 	0.11743	0.8181	0.06821	-0.419
Mof_O 	O 	0.12118	0.9931	0.0202	-0.437
Mof_O 	O 	0.47512	0.4063	0.02923	-0.574
Mof_O 	O 	0.52258	0.2444	0.05245	-0.477
Mof_O 	O 	0.44095	0.52	0.42472	-0.488
Mof_O 	O 	0.49249	0.6744	0.43747	-0.542
Mof_N 	N 	0.33318	0.8766	0.19899	-0.14
Mof_C 	C 	0.45832	0.6209	0.41174	0.489
Mof_C 	C 	0.184	0.9243	0.08299	-0.09
Mof_C 	C 	0.13787	0.9106	0.05624	0.328
Mof_N 	N 	0.33942	0.0143	0.12961	-0.143
Mof_C 	C 	0.27083	0.9379	0.131	0.021
Mof_C 	C 	0.48733	0.2966	0.05119	0.46
Mof_C 	C 	0.39522	0.6526	0.3336	0.074
Mof_H 	H 	0.3811	0.5837	0.3466	0.022
Mof_C 	C 	0.31689	0.9437	0.1541	0.105
Mof_C 	C 	0.20314	0.84	0.1249	0.013
Mof_H 	H 	0.1866	0.777	0.1372	0.042
Mof_C 	C 	0.47599	0.1164	0.1112	0.065
Mof_H 	H 	0.5046	0.0899	0.1175	0.018
Mof_C 	C 	0.43619	0.6885	0.36107	-0.176
Mof_C 	C 	0.45992	0.2215	0.0771	-0.175
Mof_C 	C 	0.25181	0.0231	0.09	-0.081
Mof_H 	H 	0.2684	0.0857	0.0777	0.064
Mof_C 	C 	0.24609	0.8485	0.1484	-0.08
Mof_H 	H 	0.2587	0.7915	0.177	0.066
Mof_N 	N 	0.40074	0.9486	0.1959	-0.143
Mof_C 	C 	0.37541	0.8829	0.2179	0.097
Mof_C 	C 	0.20864	0.0172	0.067	0.017
Mof_H 	H 	0.1958	0.0782	0.0399	0.036
Mof_C 	C 	0.45653	0.7902	0.3426	0.079
Mof_H 	H 	0.4842	0.8169	0.3618	-0.001
Mof_C 	C 	0.41748	0.2582	0.0673	0.066
Mof_H 	H 	0.4065	0.3313	0.0445	0.003
Mof_C 	C 	0.39145	0.1883	0.0905	-0.124
Mof_H 	H 	0.3625	0.2112	0.083	0.076
Mof_C 	C 	0.37472	0.7167	0.2872	-0.121
Mof_H 	H 	0.3467	0.6923	0.2687	0.079
Mof_C 	C 	0.43658	0.8531	0.2962	-0.125
Mof_H 	H 	0.4508	0.9218	0.2832	0.078
Mof_C 	C 	0.38102	0.0128	0.1517	0.095
Mof_C 	C 	0.39554	0.8161	0.2683	0.052
Mof_C 	C 	0.40835	0.0846	0.1249	0.044
Mof_C 	C 	0.45082	0.0508	0.1356	-0.125
Mof_H 	H 	0.4623	0.9817	0.16	0.07
Mof_Dy	Dy	0.55278	0.38676	0.0019	1.906
Mof_O 	O 	0.61743	0.3181	0.06821	-0.419
Mof_O 	O 	0.62118	0.4931	0.0202	-0.437
Mof_O 	O 	0.97512	0.9063	0.02923	-0.574
Mof_O 	O 	0.02258	0.7444	0.05245	-0.478
Mof_O 	O 	0.94095	0.02	0.42472	-0.488
Mof_O 	O 	0.99249	0.1744	0.43747	-0.541
Mof_N 	N 	0.83318	0.3766	0.19899	-0.14
Mof_C 	C 	0.95832	0.1209	0.41174	0.489
Mof_C 	C 	0.684	0.4243	0.08299	-0.089
Mof_C 	C 	0.63787	0.4106	0.05624	0.328
Mof_N 	N 	0.83942	0.5143	0.12961	-0.144
Mof_C 	C 	0.77083	0.4379	0.131	0.022
Mof_C 	C 	0.98733	0.7966	0.05119	0.461
Mof_C 	C 	0.89522	0.1526	0.3336	0.074
Mof_H 	H 	0.8811	0.0837	0.3466	0.022
Mof_C 	C 	0.81689	0.4437	0.1541	0.106
Mof_C 	C 	0.70314	0.34	0.1249	0.013
Mof_H 	H 	0.6866	0.277	0.1372	0.042
Mof_C 	C 	0.97599	0.6164	0.1112	0.068
Mof_H 	H 	0.0046	0.5899	0.1175	0.017
Mof_C 	C 	0.93619	0.1885	0.36107	-0.175
Mof_C 	C 	0.95992	0.7215	0.0771	-0.176
Mof_C 	C 	0.75181	0.5231	0.09	-0.082
Mof_H 	H 	0.7684	0.5857	0.0777	0.064
Mof_C 	C 	0.74609	0.3485	0.1484	-0.08
Mof_H 	H 	0.7587	0.2915	0.177	0.066
Mof_N 	N 	0.90074	0.4486	0.1959	-0.142
Mof_C 	C 	0.87541	0.3829	0.2179	0.097
Mof_C 	C 	0.70864	0.5172	0.067	0.016
Mof_H 	H 	0.6958	0.5782	0.0399	0.036
Mof_C 	C 	0.95653	0.2902	0.3426	0.079
Mof_H 	H 	0.9842	0.3169	0.3618	-0.001
Mof_C 	C 	0.91748	0.7582	0.0673	0.067
Mof_H 	H 	0.9065	0.8313	0.0445	0.003
Mof_C 	C 	0.89145	0.6883	0.0905	-0.125
Mof_H 	H 	0.8625	0.7112	0.083	0.077
Mof_C 	C 	0.87472	0.2167	0.2872	-0.121
Mof_H 	H 	0.8467	0.1923	0.2687	0.079
Mof_C 	C 	0.93658	0.3531	0.2962	-0.125
Mof_H 	H 	0.9508	0.4218	0.2832	0.078
Mof_C 	C 	0.88102	0.5128	0.1517	0.094
Mof_C 	C 	0.89554	0.3161	0.2683	0.053
Mof_C 	C 	0.90835	0.5846	0.1249	0.045
Mof_C 	C 	0.95082	0.5508	0.1356	-0.129
Mof_H 	H 	0.9623	0.4817	0.16	0.072
_end
