data_functionalizedCrystal
_audit_creation_method	'EQeq! by Chris Wilmer'
_symmetry_space_group_name_H-M	'P1'
_symmetry_Int_Tables_number	1
_symmetry_cell_setting	triclinic
loop_
_symmetry_equiv_pos_as_xyz
  x,y,z
_cell_length_a	15.578
_cell_length_b	19.131
_cell_length_c	25.039
_cell_angle_alpha	90
_cell_angle_beta	90
_cell_angle_gamma	90
loop_
_atom_site_label
_atom_site_type_symbol
_atom_site_fract_x
_atom_site_fract_y
_atom_site_fract_z
_atom_site_charge
Mof_Zn	Zn	0.54678	0.16217	0.72594	1.193
Mof_N 	N 	0.5614	0.1299	0.80187	-0.318
Mof_N 	N 	0.4339	0.2141	0.7191	-0.299
Mof_O 	O 	0.6679	0.1029	0.6903	-0.418
Mof_O 	O 	0.5386	0.0955	0.667	-0.484
Mof_N 	N 	0.6221	0.1655	0.83217	-0.323
Mof_C 	C 	0.5289	0.0821	0.8331	0.34
Mof_C 	C 	0.354	0.1949	0.7102	0.285
Mof_C 	C 	0.622	0.1359	0.8794	0.306
Mof_N 	N 	0.5634	0.0845	0.8826	-0.353
Mof_C 	C 	0.463	0.032	0.8165	-0.921
Mof_C 	C 	0.326	0.1203	0.7079	-0.841
Mof_C 	C 	0.6807	0.1554	0.9236	-0.871
Mof_Zn	Zn	0.52553	0.03584	0.94986	1.214
Mof_H 	H 	0.4073	0.0498	0.8256	0.285
Mof_H 	H 	0.4722	0.9882	0.8344	0.288
Mof_H 	H 	0.4664	0.0251	0.7786	0.259
Mof_H 	H 	0.3729	0.0906	0.7179	0.238
Mof_H 	H 	0.3079	0.1092	0.6723	0.246
Mof_H 	H 	0.279	0.1133	0.7321	0.246
Mof_H 	H 	0.6952	0.1144	0.9438	0.273
Mof_H 	H 	0.6528	0.1886	0.9465	0.262
Mof_H 	H 	0.732	0.1757	0.9091	0.234
Mof_O 	O 	0.514	0.1205	0.999	-0.449
Mof_O 	O 	0.3957	0.0392	0.9395	-0.455
Mof_O 	O 	0.6404	0.0162	0.9863	-0.461
Mof_O 	O 	0.5216	0.934	0.9259	-0.463
Mof_C 	C 	0.4937	0.1194	0.0481	0.295
Mof_C 	C 	0.3428	0.012	0.9695	0.29
Mof_C 	C 	0.4889	0.187	0.0769	0.162
Mof_C 	C 	0.2508	0.0098	0.9518	0.191
Mof_C 	C 	0.4762	0.1882	0.1301	-0.518
Mof_C 	C 	0.191	0.9704	0.9793	-0.625
Mof_C 	C 	0.2271	0.0439	0.9058	-0.256
Mof_C 	C 	0.1154	0.0839	0.8408	0.282
Mof_H 	H 	0.4735	0.146	0.1484	0.2
Mof_C 	C 	0.108	0.9637	0.9597	0.958
Mof_H 	H 	0.2063	0.9484	0.011	0.242
Mof_C 	C 	0.1428	0.0423	0.8885	0.16
Mof_H 	H 	0.268	0.0683	0.8862	0.118
Mof_C 	C 	0.0803	0.9988	0.9146	-0.613
Mof_O 	O 	0.052	0.9139	0.9838	0.901
Mof_H 	H 	0.0244	0.9945	0.9018	0.235
Mof_H 	H 	0.0645	0.9081	0.0153	-0.211
Mof_H 	H 	0.0698	0.9346	0.9775	-1.048
Mof_H 	H 	0.4155	0.2676	0.2213	-0.049
Mof_Zn	Zn	0.95322	0.83783	0.22594	1.191
Mof_N 	N 	0.9386	0.8701	0.30187	-0.316
Mof_N 	N 	0.0661	0.7859	0.2191	-0.299
Mof_O 	O 	0.8321	0.8971	0.1903	-0.42
Mof_O 	O 	0.9614	0.9045	0.167	-0.488
Mof_N 	N 	0.8779	0.8345	0.33217	-0.324
Mof_C 	C 	0.9711	0.9179	0.3331	0.324
Mof_C 	C 	0.146	0.8051	0.2102	0.286
Mof_C 	C 	0.878	0.8641	0.3794	0.305
Mof_N 	N 	0.9366	0.9155	0.3826	-0.352
Mof_C 	C 	0.037	0.968	0.3165	-0.88
Mof_C 	C 	0.174	0.8797	0.2079	-0.846
Mof_C 	C 	0.8193	0.8446	0.4236	-0.871
Mof_Zn	Zn	0.97447	0.96416	0.44986	1.213
Mof_H 	H 	0.0927	0.9502	0.3256	0.274
Mof_H 	H 	0.0278	0.0118	0.3344	0.272
Mof_H 	H 	0.0336	0.9749	0.2786	0.249
Mof_H 	H 	0.1271	0.9094	0.2179	0.241
Mof_H 	H 	0.1921	0.8908	0.1723	0.248
Mof_H 	H 	0.221	0.8867	0.2321	0.248
Mof_H 	H 	0.8048	0.8856	0.4438	0.272
Mof_H 	H 	0.8472	0.8114	0.4465	0.262
Mof_H 	H 	0.768	0.8243	0.4091	0.234
Mof_O 	O 	0.986	0.8795	0.499	-0.452
Mof_O 	O 	0.1043	0.9608	0.4395	-0.453
Mof_O 	O 	0.8596	0.9838	0.4863	-0.465
Mof_O 	O 	0.9784	0.066	0.4259	-0.462
Mof_C 	C 	0.0063	0.8806	0.5481	0.3
Mof_C 	C 	0.1572	0.988	0.4695	0.294
Mof_C 	C 	0.0111	0.813	0.5769	0.159
Mof_C 	C 	0.2492	0.9902	0.4518	0.199
Mof_C 	C 	0.0238	0.8118	0.6301	-0.515
Mof_C 	C 	0.309	0.0296	0.4793	-0.631
Mof_C 	C 	0.2729	0.9561	0.4058	-0.262
Mof_C 	C 	0.3846	0.9161	0.3408	0.279
Mof_H 	H 	0.0265	0.854	0.6484	0.2
Mof_C 	C 	0.392	0.0363	0.4597	0.958
Mof_H 	H 	0.2937	0.0516	0.511	0.242
Mof_C 	C 	0.3572	0.9577	0.3885	0.169
Mof_H 	H 	0.232	0.9317	0.3862	0.121
Mof_C 	C 	0.4197	0.0012	0.4146	-0.621
Mof_O 	O 	0.448	0.0861	0.4838	0.893
Mof_H 	H 	0.4756	0.0055	0.4018	0.237
Mof_H 	H 	0.4355	0.0919	0.5153	-0.21
Mof_H 	H 	0.4302	0.0654	0.4775	-1.041
Mof_H 	H 	0.0845	0.7324	0.7213	-0.049
Mof_Zn	Zn	0.45322	0.66217	0.27406	1.192
Mof_N 	N 	0.4386	0.6299	0.19813	-0.319
Mof_N 	N 	0.5661	0.7141	0.2809	-0.3
Mof_O 	O 	0.3321	0.6029	0.3097	-0.419
Mof_O 	O 	0.4614	0.5955	0.333	-0.485
Mof_N 	N 	0.3779	0.6655	0.16783	-0.323
Mof_C 	C 	0.4711	0.5821	0.1669	0.338
Mof_C 	C 	0.646	0.6949	0.2898	0.284
Mof_C 	C 	0.378	0.6359	0.1206	0.305
Mof_N 	N 	0.4366	0.5845	0.1174	-0.354
Mof_C 	C 	0.537	0.532	0.1835	-0.92
Mof_C 	C 	0.674	0.6203	0.2921	-0.843
Mof_C 	C 	0.3193	0.6554	0.0764	-0.871
Mof_Zn	Zn	0.47447	0.53584	0.05014	1.214
Mof_H 	H 	0.5927	0.5498	0.1744	0.285
Mof_H 	H 	0.5278	0.4882	0.1656	0.287
Mof_H 	H 	0.5336	0.5251	0.2214	0.259
Mof_H 	H 	0.6271	0.5906	0.2821	0.239
Mof_H 	H 	0.6921	0.6092	0.3277	0.247
Mof_H 	H 	0.721	0.6133	0.2679	0.247
Mof_H 	H 	0.3048	0.6144	0.0562	0.273
Mof_H 	H 	0.3472	0.6886	0.0535	0.262
Mof_H 	H 	0.268	0.6757	0.0909	0.234
Mof_O 	O 	0.486	0.6205	0.001	-0.449
Mof_O 	O 	0.6043	0.5392	0.0605	-0.454
Mof_O 	O 	0.3596	0.5162	0.0137	-0.461
Mof_O 	O 	0.4784	0.434	0.0741	-0.463
Mof_C 	C 	0.5063	0.6194	0.9519	0.295
Mof_C 	C 	0.6572	0.512	0.0305	0.289
Mof_C 	C 	0.5111	0.687	0.9231	0.162
Mof_C 	C 	0.7492	0.5098	0.0482	0.199
Mof_C 	C 	0.5238	0.6882	0.8699	-0.518
Mof_C 	C 	0.809	0.4704	0.0207	-0.633
Mof_C 	C 	0.7729	0.5439	0.0942	-0.262
Mof_C 	C 	0.8846	0.5839	0.1592	0.279
Mof_H 	H 	0.5265	0.646	0.8516	0.2
Mof_C 	C 	0.892	0.4637	0.0403	0.961
Mof_H 	H 	0.7937	0.4484	0.989	0.244
Mof_C 	C 	0.8572	0.5423	0.1115	0.167
Mof_H 	H 	0.732	0.5683	0.1138	0.12
Mof_C 	C 	0.9197	0.4988	0.0854	-0.621
Mof_O 	O 	0.948	0.4139	0.0162	0.896
Mof_H 	H 	0.9756	0.4945	0.0982	0.237
Mof_H 	H 	0.9355	0.4081	0.9847	-0.209
Mof_H 	H 	0.9302	0.4346	0.0225	-1.046
Mof_H 	H 	0.5845	0.7676	0.7787	-0.049
Mof_Zn	Zn	0.04678	0.33783	0.77406	1.191
Mof_N 	N 	0.0614	0.3701	0.69813	-0.319
Mof_N 	N 	0.9339	0.2859	0.7809	-0.299
Mof_O 	O 	0.1679	0.3971	0.8097	-0.419
Mof_O 	O 	0.0386	0.4045	0.833	-0.486
Mof_N 	N 	0.1221	0.3345	0.66783	-0.324
Mof_C 	C 	0.0289	0.4179	0.6669	0.336
Mof_C 	C 	0.854	0.3051	0.7898	0.285
Mof_C 	C 	0.122	0.3641	0.6206	0.305
Mof_N 	N 	0.0634	0.4155	0.6174	-0.353
Mof_C 	C 	0.963	0.468	0.6835	-0.916
Mof_C 	C 	0.826	0.3797	0.7921	-0.844
Mof_C 	C 	0.1807	0.3446	0.5764	-0.87
Mof_Zn	Zn	0.02553	0.46416	0.55014	1.214
Mof_H 	H 	0.9073	0.4502	0.6744	0.284
Mof_H 	H 	0.9722	0.5118	0.6656	0.286
Mof_H 	H 	0.9664	0.4749	0.7214	0.258
Mof_H 	H 	0.8729	0.4094	0.7821	0.239
Mof_H 	H 	0.8079	0.3908	0.8277	0.247
Mof_H 	H 	0.779	0.3867	0.7679	0.247
Mof_H 	H 	0.1952	0.3856	0.5562	0.273
Mof_H 	H 	0.1528	0.3114	0.5535	0.262
Mof_H 	H 	0.232	0.3243	0.5909	0.234
Mof_O 	O 	0.014	0.3795	0.501	-0.45
Mof_O 	O 	0.8957	0.4608	0.5605	-0.454
Mof_O 	O 	0.1404	0.4838	0.5137	-0.462
Mof_O 	O 	0.0216	0.566	0.5741	-0.464
Mof_C 	C 	0.9937	0.3806	0.4519	0.298
Mof_C 	C 	0.8428	0.488	0.5305	0.291
Mof_C 	C 	0.9889	0.313	0.4231	0.159
Mof_C 	C 	0.7508	0.4902	0.5482	0.196
Mof_C 	C 	0.9762	0.3118	0.3699	-0.515
Mof_C 	C 	0.691	0.5296	0.5207	-0.627
Mof_C 	C 	0.7271	0.4561	0.5942	-0.26
Mof_C 	C 	0.6154	0.4161	0.6592	0.28
Mof_H 	H 	0.9735	0.354	0.3516	0.2
Mof_C 	C 	0.608	0.5363	0.5403	0.957
Mof_H 	H 	0.7063	0.5516	0.489	0.241
Mof_C 	C 	0.6428	0.4577	0.6115	0.166
Mof_H 	H 	0.768	0.4317	0.6138	0.12
Mof_C 	C 	0.5803	0.5012	0.5854	-0.618
Mof_O 	O 	0.552	0.5861	0.5162	0.896
Mof_H 	H 	0.5244	0.5055	0.5982	0.236
Mof_H 	H 	0.5645	0.5919	0.4847	-0.211
Mof_H 	H 	0.5698	0.5654	0.5225	-1.043
Mof_H 	H 	0.9155	0.2324	0.2787	-0.049
Mof_Zn	Zn	0.45322	0.83783	0.27406	1.192
Mof_N 	N 	0.4386	0.8701	0.19813	-0.319
Mof_N 	N 	0.5661	0.7859	0.2809	-0.3
Mof_O 	O 	0.3321	0.8971	0.3097	-0.419
Mof_O 	O 	0.4614	0.9045	0.333	-0.485
Mof_N 	N 	0.3779	0.8345	0.16783	-0.324
Mof_C 	C 	0.4711	0.9179	0.1669	0.339
Mof_C 	C 	0.646	0.8051	0.2898	0.284
Mof_C 	C 	0.378	0.8641	0.1206	0.305
Mof_N 	N 	0.4366	0.9155	0.1174	-0.354
Mof_C 	C 	0.537	0.968	0.1835	-0.922
Mof_C 	C 	0.674	0.8797	0.2921	-0.842
Mof_C 	C 	0.3193	0.8446	0.0764	-0.871
Mof_Zn	Zn	0.47447	0.96416	0.05014	1.214
Mof_H 	H 	0.5927	0.9502	0.1744	0.285
Mof_H 	H 	0.5278	0.0118	0.1656	0.288
Mof_H 	H 	0.5336	0.9749	0.2214	0.259
Mof_H 	H 	0.6271	0.9094	0.2821	0.238
Mof_H 	H 	0.6921	0.8908	0.3277	0.246
Mof_H 	H 	0.721	0.8867	0.2679	0.246
Mof_H 	H 	0.3048	0.8856	0.0562	0.273
Mof_H 	H 	0.3472	0.8114	0.0535	0.262
Mof_H 	H 	0.268	0.8243	0.0909	0.234
Mof_O 	O 	0.486	0.8795	0.001	-0.449
Mof_O 	O 	0.6043	0.9608	0.0605	-0.455
Mof_O 	O 	0.3596	0.9838	0.0137	-0.461
Mof_O 	O 	0.4784	0.066	0.0741	-0.463
Mof_C 	C 	0.5063	0.8806	0.9519	0.295
Mof_C 	C 	0.6572	0.988	0.0305	0.29
Mof_C 	C 	0.5111	0.813	0.9231	0.162
Mof_C 	C 	0.7492	0.9902	0.0482	0.191
Mof_C 	C 	0.5238	0.8118	0.8699	-0.518
Mof_C 	C 	0.809	0.0296	0.0207	-0.625
Mof_C 	C 	0.7729	0.9561	0.0942	-0.256
Mof_C 	C 	0.8846	0.9161	0.1592	0.282
Mof_H 	H 	0.5265	0.854	0.8516	0.2
Mof_C 	C 	0.892	0.0363	0.0403	0.958
Mof_H 	H 	0.7937	0.0516	0.989	0.242
Mof_C 	C 	0.8572	0.9577	0.1115	0.16
Mof_H 	H 	0.732	0.9317	0.1138	0.118
Mof_C 	C 	0.9197	0.0012	0.0854	-0.613
Mof_O 	O 	0.948	0.0861	0.0162	0.901
Mof_H 	H 	0.9756	0.0055	0.0982	0.235
Mof_H 	H 	0.9355	0.0919	0.9847	-0.211
Mof_H 	H 	0.9302	0.0654	0.0225	-1.048
Mof_H 	H 	0.5845	0.7324	0.7787	-0.049
Mof_Zn	Zn	0.04678	0.16217	0.77406	1.191
Mof_N 	N 	0.0614	0.1299	0.69813	-0.316
Mof_N 	N 	0.9339	0.2141	0.7809	-0.299
Mof_O 	O 	0.1679	0.1029	0.8097	-0.42
Mof_O 	O 	0.0386	0.0955	0.833	-0.488
Mof_N 	N 	0.1221	0.1655	0.66783	-0.324
Mof_C 	C 	0.0289	0.0821	0.6669	0.324
Mof_C 	C 	0.854	0.1949	0.7898	0.286
Mof_C 	C 	0.122	0.1359	0.6206	0.305
Mof_N 	N 	0.0634	0.0845	0.6174	-0.352
Mof_C 	C 	0.963	0.032	0.6835	-0.88
Mof_C 	C 	0.826	0.1203	0.7921	-0.846
Mof_C 	C 	0.1807	0.1554	0.5764	-0.871
Mof_Zn	Zn	0.02553	0.03584	0.55014	1.213
Mof_H 	H 	0.9073	0.0498	0.6744	0.274
Mof_H 	H 	0.9722	0.9882	0.6656	0.272
Mof_H 	H 	0.9664	0.0251	0.7214	0.249
Mof_H 	H 	0.8729	0.0906	0.7821	0.241
Mof_H 	H 	0.8079	0.1092	0.8277	0.248
Mof_H 	H 	0.779	0.1133	0.7679	0.248
Mof_H 	H 	0.1952	0.1144	0.5562	0.272
Mof_H 	H 	0.1528	0.1886	0.5535	0.262
Mof_H 	H 	0.232	0.1757	0.5909	0.234
Mof_O 	O 	0.014	0.1205	0.501	-0.452
Mof_O 	O 	0.8957	0.0392	0.5605	-0.453
Mof_O 	O 	0.1404	0.0162	0.5137	-0.465
Mof_O 	O 	0.0216	0.934	0.5741	-0.462
Mof_C 	C 	0.9937	0.1194	0.4519	0.3
Mof_C 	C 	0.8428	0.012	0.5305	0.294
Mof_C 	C 	0.9889	0.187	0.4231	0.159
Mof_C 	C 	0.7508	0.0098	0.5482	0.199
Mof_C 	C 	0.9762	0.1882	0.3699	-0.515
Mof_C 	C 	0.691	0.9704	0.5207	-0.631
Mof_C 	C 	0.7271	0.0439	0.5942	-0.262
Mof_C 	C 	0.6154	0.0839	0.6592	0.279
Mof_H 	H 	0.9735	0.146	0.3516	0.2
Mof_C 	C 	0.608	0.9637	0.5403	0.958
Mof_H 	H 	0.7063	0.9484	0.489	0.242
Mof_C 	C 	0.6428	0.0423	0.6115	0.169
Mof_H 	H 	0.768	0.0683	0.6138	0.121
Mof_C 	C 	0.5803	0.9988	0.5854	-0.621
Mof_O 	O 	0.552	0.9139	0.5162	0.893
Mof_H 	H 	0.5244	0.9945	0.5982	0.237
Mof_H 	H 	0.5645	0.9081	0.4847	-0.21
Mof_H 	H 	0.5698	0.9346	0.5225	-1.041
Mof_H 	H 	0.9155	0.2676	0.2787	-0.049
Mof_Zn	Zn	0.54678	0.33783	0.72594	1.192
Mof_N 	N 	0.5614	0.3701	0.80187	-0.319
Mof_N 	N 	0.4339	0.2859	0.7191	-0.3
Mof_O 	O 	0.6679	0.3971	0.6903	-0.419
Mof_O 	O 	0.5386	0.4045	0.667	-0.485
Mof_N 	N 	0.6221	0.3345	0.83217	-0.323
Mof_C 	C 	0.5289	0.4179	0.8331	0.338
Mof_C 	C 	0.354	0.3051	0.7102	0.284
Mof_C 	C 	0.622	0.3641	0.8794	0.305
Mof_N 	N 	0.5634	0.4155	0.8826	-0.354
Mof_C 	C 	0.463	0.468	0.8165	-0.92
Mof_C 	C 	0.326	0.3797	0.7079	-0.843
Mof_C 	C 	0.6807	0.3446	0.9236	-0.871
Mof_Zn	Zn	0.52553	0.46416	0.94986	1.214
Mof_H 	H 	0.4073	0.4502	0.8256	0.285
Mof_H 	H 	0.4722	0.5118	0.8344	0.287
Mof_H 	H 	0.4664	0.4749	0.7786	0.259
Mof_H 	H 	0.3729	0.4094	0.7179	0.239
Mof_H 	H 	0.3079	0.3908	0.6723	0.247
Mof_H 	H 	0.279	0.3867	0.7321	0.247
Mof_H 	H 	0.6952	0.3856	0.9438	0.273
Mof_H 	H 	0.6528	0.3114	0.9465	0.262
Mof_H 	H 	0.732	0.3243	0.9091	0.234
Mof_O 	O 	0.514	0.3795	0.999	-0.449
Mof_O 	O 	0.3957	0.4608	0.9395	-0.454
Mof_O 	O 	0.6404	0.4838	0.9863	-0.461
Mof_O 	O 	0.5216	0.566	0.9259	-0.463
Mof_C 	C 	0.4937	0.3806	0.0481	0.295
Mof_C 	C 	0.3428	0.488	0.9695	0.289
Mof_C 	C 	0.4889	0.313	0.0769	0.162
Mof_C 	C 	0.2508	0.4902	0.9518	0.199
Mof_C 	C 	0.4762	0.3118	0.1301	-0.518
Mof_C 	C 	0.191	0.5296	0.9793	-0.633
Mof_C 	C 	0.2271	0.4561	0.9058	-0.262
Mof_C 	C 	0.1154	0.4161	0.8408	0.279
Mof_H 	H 	0.4735	0.354	0.1484	0.2
Mof_C 	C 	0.108	0.5363	0.9597	0.961
Mof_H 	H 	0.2063	0.5516	0.011	0.244
Mof_C 	C 	0.1428	0.4577	0.8885	0.167
Mof_H 	H 	0.268	0.4317	0.8862	0.12
Mof_C 	C 	0.0803	0.5012	0.9146	-0.621
Mof_O 	O 	0.052	0.5861	0.9838	0.896
Mof_H 	H 	0.0244	0.5055	0.9018	0.237
Mof_H 	H 	0.0645	0.5919	0.0153	-0.209
Mof_H 	H 	0.0698	0.5654	0.9775	-1.046
Mof_H 	H 	0.4155	0.2324	0.2213	-0.049
Mof_Zn	Zn	0.95322	0.66217	0.22594	1.191
Mof_N 	N 	0.9386	0.6299	0.30187	-0.319
Mof_N 	N 	0.0661	0.7141	0.2191	-0.299
Mof_O 	O 	0.8321	0.6029	0.1903	-0.419
Mof_O 	O 	0.9614	0.5955	0.167	-0.486
Mof_N 	N 	0.8779	0.6655	0.33217	-0.324
Mof_C 	C 	0.9711	0.5821	0.3331	0.336
Mof_C 	C 	0.146	0.6949	0.2102	0.285
Mof_C 	C 	0.878	0.6359	0.3794	0.305
Mof_N 	N 	0.9366	0.5845	0.3826	-0.353
Mof_C 	C 	0.037	0.532	0.3165	-0.916
Mof_C 	C 	0.174	0.6203	0.2079	-0.844
Mof_C 	C 	0.8193	0.6554	0.4236	-0.87
Mof_Zn	Zn	0.97447	0.53584	0.44986	1.214
Mof_H 	H 	0.0927	0.5498	0.3256	0.284
Mof_H 	H 	0.0278	0.4882	0.3344	0.286
Mof_H 	H 	0.0336	0.5251	0.2786	0.258
Mof_H 	H 	0.1271	0.5906	0.2179	0.239
Mof_H 	H 	0.1921	0.6092	0.1723	0.247
Mof_H 	H 	0.221	0.6133	0.2321	0.247
Mof_H 	H 	0.8048	0.6144	0.4438	0.273
Mof_H 	H 	0.8472	0.6886	0.4465	0.262
Mof_H 	H 	0.768	0.6757	0.4091	0.234
Mof_O 	O 	0.986	0.6205	0.499	-0.45
Mof_O 	O 	0.1043	0.5392	0.4395	-0.454
Mof_O 	O 	0.8596	0.5162	0.4863	-0.462
Mof_O 	O 	0.9784	0.434	0.4259	-0.464
Mof_C 	C 	0.0063	0.6194	0.5481	0.298
Mof_C 	C 	0.1572	0.512	0.4695	0.291
Mof_C 	C 	0.0111	0.687	0.5769	0.159
Mof_C 	C 	0.2492	0.5098	0.4518	0.196
Mof_C 	C 	0.0238	0.6882	0.6301	-0.515
Mof_C 	C 	0.309	0.4704	0.4793	-0.627
Mof_C 	C 	0.2729	0.5439	0.4058	-0.26
Mof_C 	C 	0.3846	0.5839	0.3408	0.28
Mof_H 	H 	0.0265	0.646	0.6484	0.2
Mof_C 	C 	0.392	0.4637	0.4597	0.957
Mof_H 	H 	0.2937	0.4484	0.511	0.241
Mof_C 	C 	0.3572	0.5423	0.3885	0.166
Mof_H 	H 	0.232	0.5683	0.3862	0.12
Mof_C 	C 	0.4197	0.4988	0.4146	-0.618
Mof_O 	O 	0.448	0.4139	0.4838	0.896
Mof_H 	H 	0.4756	0.4945	0.4018	0.236
Mof_H 	H 	0.4355	0.4081	0.5153	-0.211
Mof_H 	H 	0.4302	0.4346	0.4775	-1.043
Mof_H 	H 	0.0845	0.7676	0.7213	-0.049
Mof_O 	O 	0.6181	0.25	0.7309	-0.946
Mof_Zn	Zn	0.677	0.25	0.80116	1.171
Mof_H 	H 	0.6625	0.25	0.7114	0.273
Mof_N 	N 	0.3026	0.25	0.7048	-0.397
Mof_C 	C 	0.4983	0.25	0.0502	-0.224
Mof_C 	C 	0.467	0.25	0.1585	0.752
Mof_H 	H 	0.5111	0.25	0.014	0.111
Mof_O 	O 	0.4612	0.25	0.2122	0.684
Mof_H 	H 	0.4552	0.25	0.1949	-0.858
Mof_O 	O 	0.8819	0.75	0.2309	-0.947
Mof_Zn	Zn	0.823	0.75	0.30116	1.171
Mof_H 	H 	0.8375	0.75	0.2114	0.272
Mof_N 	N 	0.1974	0.75	0.2048	-0.398
Mof_C 	C 	0.0017	0.75	0.5502	-0.216
Mof_C 	C 	0.033	0.75	0.6585	0.75
Mof_H 	H 	0.9889	0.75	0.514	0.107
Mof_O 	O 	0.0388	0.75	0.7122	0.685
Mof_H 	H 	0.0448	0.75	0.6949	-0.858
Mof_O 	O 	0.3819	0.75	0.2691	-0.946
Mof_Zn	Zn	0.323	0.75	0.19884	1.171
Mof_H 	H 	0.3375	0.75	0.2886	0.273
Mof_N 	N 	0.6974	0.75	0.2952	-0.397
Mof_C 	C 	0.5017	0.75	0.9498	-0.224
Mof_C 	C 	0.533	0.75	0.8415	0.752
Mof_H 	H 	0.4889	0.75	0.986	0.111
Mof_O 	O 	0.5388	0.75	0.7878	0.684
Mof_H 	H 	0.5448	0.75	0.8051	-0.858
Mof_O 	O 	0.1181	0.25	0.7691	-0.947
Mof_Zn	Zn	0.177	0.25	0.69884	1.171
Mof_H 	H 	0.1625	0.25	0.7886	0.272
Mof_N 	N 	0.8026	0.25	0.7952	-0.398
Mof_C 	C 	0.9983	0.25	0.4498	-0.216
Mof_C 	C 	0.967	0.25	0.3415	0.75
Mof_H 	H 	0.0111	0.25	0.486	0.107
Mof_O 	O 	0.9612	0.25	0.2878	0.685
Mof_H 	H 	0.9552	0.25	0.3051	-0.858
_end
