data_functionalizedCrystal
_audit_creation_method	'EQeq! by Chris Wilmer'
_symmetry_space_group_name_H-M	'P1'
_symmetry_Int_Tables_number	1
_symmetry_cell_setting	triclinic
loop_
_symmetry_equiv_pos_as_xyz
  x,y,z
_cell_length_a	13.839
_cell_length_b	27.91
_cell_length_c	44.93
_cell_angle_alpha	90
_cell_angle_beta	90
_cell_angle_gamma	90
loop_
_atom_site_label
_atom_site_type_symbol
_atom_site_fract_x
_atom_site_fract_y
_atom_site_fract_z
_atom_site_charge
Mof_Zn	Zn	0.83798	0.25818	0.8166	1.164
Mof_Zn	Zn	0.6258	0.47757	0.91411	1.165
Mof_Zn	Zn	0.85332	0.44819	0.08001	1.166
Mof_Zn	Zn	0.16202	0.24182	0.3166	1.165
Mof_Zn	Zn	0.3742	0.02243	0.41411	1.166
Mof_Zn	Zn	0.14668	0.05181	0.58001	1.166
Mof_Zn	Zn	0.33798	0.74182	0.6834	1.165
Mof_Zn	Zn	0.1258	0.52243	0.58589	1.166
Mof_Zn	Zn	0.35332	0.55181	0.41999	1.166
Mof_Zn	Zn	0.66202	0.75818	0.1834	1.165
Mof_Zn	Zn	0.8742	0.97757	0.08589	1.165
Mof_Zn	Zn	0.64668	0.94819	0.91999	1.166
Mof_H 	H 	0.0461	0.2776	0.8326	-0.014
Mof_H 	H 	0.1345	0.3189	0.8689	0.082
Mof_H 	H 	0.884	0.3532	0.908	0.084
Mof_H 	H 	0.8018	0.3163	0.8702	-0.007
Mof_H 	H 	0.476	0.4221	0.8814	-0.007
Mof_H 	H 	0.3186	0.3953	0.8871	0.098
Mof_H 	H 	0.3292	0.436	0.9731	0.091
Mof_H 	H 	0.4846	0.4653	0.9647	-0.005
Mof_H 	H 	0.0465	0.4655	0.0522	-0.012
Mof_H 	H 	0.1295	0.4443	0.0097	0.092
Mof_H 	H 	0.8819	0.4003	0.9733	0.081
Mof_H 	H 	0.8019	0.4223	0.0169	-0.006
Mof_H 	H 	0.0794	0.4848	0.6475	-0.01
Mof_H 	H 	0.0575	0.4124	0.6719	0.084
Mof_H 	H 	0.0765	0.3461	0.5927	0.085
Mof_H 	H 	0.0956	0.4197	0.5705	-0.011
Mof_H 	H 	0.8993	0.3364	0.7767	-0.014
Mof_H 	H 	0.9581	0.3472	0.7286	0.08
Mof_H 	H 	0.0078	0.2045	0.7247	0.078
Mof_H 	H 	0.951	0.1983	0.773	0.001
Mof_H 	H 	0.1302	0.1572	0.5656	-0.019
Mof_H 	H 	0.1054	0.2292	0.5899	0.081
Mof_H 	H 	0.0368	0.1548	0.6641	0.08
Mof_H 	H 	0.0688	0.0851	0.6379	-0.01
Mof_H 	H 	0.9539	0.2224	0.3326	-0.015
Mof_H 	H 	0.8655	0.1811	0.3689	0.083
Mof_H 	H 	0.116	0.1468	0.408	0.084
Mof_H 	H 	0.1982	0.1837	0.3702	-0.007
Mof_H 	H 	0.524	0.0779	0.3814	-0.007
Mof_H 	H 	0.6814	0.1047	0.3871	0.098
Mof_H 	H 	0.6708	0.064	0.4731	0.091
Mof_H 	H 	0.5154	0.0347	0.4647	-0.005
Mof_H 	H 	0.9535	0.0345	0.5522	-0.012
Mof_H 	H 	0.8705	0.0557	0.5097	0.093
Mof_H 	H 	0.1181	0.0997	0.4733	0.081
Mof_H 	H 	0.1981	0.0777	0.5169	-0.006
Mof_H 	H 	0.9206	0.0152	0.1475	-0.01
Mof_H 	H 	0.9425	0.0876	0.1719	0.085
Mof_H 	H 	0.9235	0.1539	0.0927	0.085
Mof_H 	H 	0.9044	0.0803	0.0705	-0.011
Mof_H 	H 	0.1007	0.1636	0.2767	-0.014
Mof_H 	H 	0.0419	0.1528	0.2286	0.08
Mof_H 	H 	0.9922	0.2955	0.2247	0.079
Mof_H 	H 	0.049	0.3017	0.273	0.001
Mof_H 	H 	0.8698	0.3428	0.0656	-0.019
Mof_H 	H 	0.8946	0.2708	0.0899	0.081
Mof_H 	H 	0.9632	0.3452	0.1641	0.08
Mof_H 	H 	0.9312	0.4149	0.1379	-0.01
Mof_H 	H 	0.5461	0.7224	0.6674	-0.015
Mof_H 	H 	0.6345	0.6811	0.6311	0.083
Mof_H 	H 	0.384	0.6468	0.592	0.084
Mof_H 	H 	0.3018	0.6837	0.6298	-0.007
Mof_H 	H 	0.976	0.5779	0.6186	-0.007
Mof_H 	H 	0.8186	0.6047	0.6129	0.098
Mof_H 	H 	0.8292	0.564	0.5269	0.091
Mof_H 	H 	0.9846	0.5347	0.5353	-0.005
Mof_H 	H 	0.5465	0.5345	0.4478	-0.012
Mof_H 	H 	0.6295	0.5557	0.4903	0.092
Mof_H 	H 	0.3819	0.5997	0.5267	0.081
Mof_H 	H 	0.3019	0.5777	0.4831	-0.006
Mof_H 	H 	0.5794	0.5152	0.8525	-0.01
Mof_H 	H 	0.5575	0.5876	0.8281	0.085
Mof_H 	H 	0.5765	0.6539	0.9073	0.085
Mof_H 	H 	0.5956	0.5803	0.9295	-0.011
Mof_H 	H 	0.3993	0.6636	0.7233	-0.014
Mof_H 	H 	0.4581	0.6528	0.7714	0.079
Mof_H 	H 	0.5078	0.7955	0.7753	0.08
Mof_H 	H 	0.451	0.8017	0.727	0.001
Mof_H 	H 	0.6302	0.8428	0.9344	-0.019
Mof_H 	H 	0.6054	0.7708	0.9101	0.081
Mof_H 	H 	0.5368	0.8452	0.8359	0.08
Mof_H 	H 	0.5688	0.9149	0.8621	-0.009
Mof_H 	H 	0.4539	0.7776	0.1674	-0.015
Mof_H 	H 	0.3655	0.8189	0.1311	0.083
Mof_H 	H 	0.616	0.8532	0.092	0.084
Mof_H 	H 	0.6982	0.8163	0.1298	-0.007
Mof_H 	H 	0.024	0.9221	0.1186	-0.007
Mof_H 	H 	0.1814	0.8953	0.1129	0.098
Mof_H 	H 	0.1708	0.936	0.0269	0.091
Mof_H 	H 	0.0154	0.9653	0.0353	-0.005
Mof_H 	H 	0.4535	0.9655	0.9478	-0.012
Mof_H 	H 	0.3705	0.9443	0.9903	0.092
Mof_H 	H 	0.6181	0.9003	0.0267	0.081
Mof_H 	H 	0.6981	0.9223	0.9831	-0.006
Mof_H 	H 	0.4206	0.9848	0.3525	-0.01
Mof_H 	H 	0.4425	0.9124	0.3281	0.085
Mof_H 	H 	0.4235	0.8461	0.4073	0.085
Mof_H 	H 	0.4044	0.9197	0.4295	-0.011
Mof_H 	H 	0.6007	0.8364	0.2233	-0.014
Mof_H 	H 	0.5419	0.8472	0.2714	0.079
Mof_H 	H 	0.4922	0.7045	0.2753	0.08
Mof_H 	H 	0.549	0.6983	0.227	0.001
Mof_H 	H 	0.3698	0.6572	0.4344	-0.019
Mof_H 	H 	0.3946	0.7292	0.4101	0.081
Mof_H 	H 	0.4632	0.6548	0.3359	0.08
Mof_H 	H 	0.4312	0.5851	0.3621	-0.009
Mof_C 	C 	0.0126	0.294	0.848	0.074
Mof_C 	C 	0.066	0.3177	0.8699	-0.121
Mof_C 	C 	0.018	0.3392	0.89294	0.062
Mof_C 	C 	0.9192	0.3382	0.8924	-0.113
Mof_C 	C 	0.8705	0.316	0.87	0.07
Mof_C 	C 	0.0706	0.3646	0.91661	0.106
Mof_C 	C 	0.2057	0.3987	0.93499	0.091
Mof_C 	C 	0.0687	0.4027	0.96064	0.097
Mof_C 	C 	0.445	0.426	0.9001	0.073
Mof_C 	C 	0.3518	0.4093	0.9034	-0.13
Mof_C 	C 	0.3075	0.4133	0.9308	0.057
Mof_C 	C 	0.3575	0.4336	0.9539	-0.129
Mof_C 	C 	0.4505	0.4507	0.9487	0.076
Mof_C 	C 	0.0127	0.4505	0.0363	0.069
Mof_C 	C 	0.062	0.4386	0.011	-0.126
Mof_C 	C 	0.0144	0.4183	0.98725	0.059
Mof_C 	C 	0.9177	0.4128	0.9895	-0.121
Mof_C 	C 	0.8702	0.4254	0.0159	0.074
Mof_C 	C 	0.0797	0.456	0.6362	0.074
Mof_C 	C 	0.0661	0.4131	0.651	-0.129
Mof_C 	C 	0.0653	0.3724	0.63491	0.065
Mof_C 	C 	0.077	0.3744	0.6044	-0.127
Mof_C 	C 	0.0894	0.4183	0.5915	0.081
Mof_C 	C 	0.0539	0.3242	0.6498	0.104
Mof_C 	C 	0.0191	0.2804	0.68999	0.106
Mof_C 	C 	0.0555	0.2446	0.64685	0.102
Mof_C 	C 	0.9206	0.3093	0.7656	0.071
Mof_C 	C 	0.9558	0.316	0.7371	-0.116
Mof_C 	C 	0.9877	0.2765	0.72099	0.047
Mof_C 	C 	0.9854	0.2322	0.73485	-0.108
Mof_C 	C 	0.9506	0.2286	0.76336	0.06
Mof_C 	C 	0.1125	0.1567	0.586	0.082
Mof_C 	C 	0.0973	0.1998	0.60028	-0.127
Mof_C 	C 	0.07	0.1995	0.6299	0.055
Mof_C 	C 	0.0576	0.1562	0.64394	-0.117
Mof_C 	C 	0.076	0.115	0.62811	0.059
Mof_C 	C 	0.9874	0.206	0.348	0.075
Mof_C 	C 	0.934	0.1823	0.3699	-0.123
Mof_C 	C 	0.982	0.1608	0.39294	0.063
Mof_C 	C 	0.0808	0.1618	0.3924	-0.115
Mof_C 	C 	0.1295	0.184	0.37	0.071
Mof_C 	C 	0.9294	0.1354	0.41661	0.105
Mof_C 	C 	0.7943	0.1013	0.43499	0.091
Mof_C 	C 	0.9313	0.0973	0.46064	0.097
Mof_C 	C 	0.555	0.074	0.4001	0.074
Mof_C 	C 	0.6482	0.0907	0.4034	-0.13
Mof_C 	C 	0.6925	0.0867	0.4308	0.057
Mof_C 	C 	0.6425	0.0664	0.4539	-0.129
Mof_C 	C 	0.5495	0.0493	0.4487	0.076
Mof_C 	C 	0.9873	0.0495	0.5363	0.071
Mof_C 	C 	0.938	0.0614	0.511	-0.128
Mof_C 	C 	0.9856	0.0817	0.48725	0.061
Mof_C 	C 	0.0823	0.0872	0.4895	-0.124
Mof_C 	C 	0.1298	0.0746	0.5159	0.075
Mof_C 	C 	0.9203	0.044	0.1362	0.074
Mof_C 	C 	0.9339	0.0869	0.151	-0.129
Mof_C 	C 	0.9347	0.1276	0.13491	0.065
Mof_C 	C 	0.923	0.1256	0.1044	-0.127
Mof_C 	C 	0.9106	0.0817	0.0915	0.081
Mof_C 	C 	0.9461	0.1758	0.1498	0.104
Mof_C 	C 	0.9809	0.2196	0.18999	0.107
Mof_C 	C 	0.9445	0.2554	0.14685	0.103
Mof_C 	C 	0.0794	0.1907	0.2656	0.071
Mof_C 	C 	0.0442	0.184	0.2371	-0.116
Mof_C 	C 	0.0123	0.2235	0.22099	0.047
Mof_C 	C 	0.0146	0.2678	0.23485	-0.109
Mof_C 	C 	0.0494	0.2714	0.26336	0.061
Mof_C 	C 	0.8875	0.3433	0.086	0.082
Mof_C 	C 	0.9027	0.3002	0.10028	-0.127
Mof_C 	C 	0.93	0.3005	0.1299	0.056
Mof_C 	C 	0.9424	0.3438	0.14394	-0.117
Mof_C 	C 	0.924	0.385	0.12811	0.059
Mof_C 	C 	0.5126	0.706	0.652	0.076
Mof_C 	C 	0.566	0.6823	0.6301	-0.123
Mof_C 	C 	0.518	0.6608	0.60706	0.064
Mof_C 	C 	0.4192	0.6618	0.6076	-0.116
Mof_C 	C 	0.3705	0.684	0.63	0.071
Mof_C 	C 	0.5706	0.6354	0.58339	0.105
Mof_C 	C 	0.7057	0.6013	0.56501	0.091
Mof_C 	C 	0.5687	0.5973	0.53936	0.097
Mof_C 	C 	0.945	0.574	0.5999	0.074
Mof_C 	C 	0.8518	0.5907	0.5966	-0.13
Mof_C 	C 	0.8075	0.5867	0.5692	0.057
Mof_C 	C 	0.8575	0.5664	0.5461	-0.129
Mof_C 	C 	0.9505	0.5493	0.5513	0.076
Mof_C 	C 	0.5127	0.5495	0.4637	0.069
Mof_C 	C 	0.562	0.5614	0.489	-0.127
Mof_C 	C 	0.5144	0.5817	0.51275	0.059
Mof_C 	C 	0.4177	0.5872	0.5105	-0.122
Mof_C 	C 	0.3702	0.5746	0.4841	0.074
Mof_C 	C 	0.5797	0.544	0.8638	0.074
Mof_C 	C 	0.5661	0.5869	0.849	-0.129
Mof_C 	C 	0.5653	0.6276	0.86509	0.065
Mof_C 	C 	0.577	0.6256	0.8956	-0.127
Mof_C 	C 	0.5894	0.5817	0.9085	0.081
Mof_C 	C 	0.5539	0.6758	0.8502	0.104
Mof_C 	C 	0.5191	0.7196	0.81001	0.107
Mof_C 	C 	0.5555	0.7554	0.85315	0.103
Mof_C 	C 	0.4206	0.6907	0.7344	0.071
Mof_C 	C 	0.4558	0.684	0.7629	-0.116
Mof_C 	C 	0.4877	0.7235	0.77901	0.047
Mof_C 	C 	0.4854	0.7678	0.76515	-0.111
Mof_C 	C 	0.4506	0.7714	0.73664	0.061
Mof_C 	C 	0.6125	0.8433	0.914	0.083
Mof_C 	C 	0.5973	0.8002	0.89972	-0.127
Mof_C 	C 	0.57	0.8005	0.8701	0.056
Mof_C 	C 	0.5576	0.8438	0.85606	-0.117
Mof_C 	C 	0.576	0.885	0.87189	0.059
Mof_C 	C 	0.4874	0.794	0.152	0.076
Mof_C 	C 	0.434	0.8177	0.1301	-0.123
Mof_C 	C 	0.482	0.8392	0.10706	0.064
Mof_C 	C 	0.5808	0.8382	0.1076	-0.116
Mof_C 	C 	0.6295	0.816	0.13	0.071
Mof_C 	C 	0.4294	0.8646	0.08339	0.105
Mof_C 	C 	0.2943	0.8987	0.06501	0.091
Mof_C 	C 	0.4313	0.9027	0.03936	0.097
Mof_C 	C 	0.055	0.926	0.0999	0.074
Mof_C 	C 	0.1482	0.9093	0.0966	-0.13
Mof_C 	C 	0.1925	0.9133	0.0692	0.057
Mof_C 	C 	0.1425	0.9336	0.0461	-0.129
Mof_C 	C 	0.0495	0.9507	0.0513	0.076
Mof_C 	C 	0.4873	0.9505	0.9637	0.07
Mof_C 	C 	0.438	0.9386	0.989	-0.127
Mof_C 	C 	0.4856	0.9183	0.01275	0.059
Mof_C 	C 	0.5823	0.9128	0.0105	-0.122
Mof_C 	C 	0.6298	0.9254	0.9841	0.074
Mof_C 	C 	0.4203	0.956	0.3638	0.074
Mof_C 	C 	0.4339	0.9131	0.349	-0.129
Mof_C 	C 	0.4347	0.8724	0.36509	0.065
Mof_C 	C 	0.423	0.8744	0.3956	-0.127
Mof_C 	C 	0.4106	0.9183	0.4085	0.081
Mof_C 	C 	0.4461	0.8242	0.3502	0.104
Mof_C 	C 	0.4809	0.7804	0.31001	0.107
Mof_C 	C 	0.4445	0.7446	0.35315	0.103
Mof_C 	C 	0.5794	0.8093	0.2344	0.071
Mof_C 	C 	0.5442	0.816	0.2629	-0.116
Mof_C 	C 	0.5123	0.7765	0.27901	0.047
Mof_C 	C 	0.5146	0.7322	0.26515	-0.111
Mof_C 	C 	0.5494	0.7286	0.23664	0.061
Mof_C 	C 	0.3875	0.6567	0.414	0.083
Mof_C 	C 	0.4027	0.6998	0.39972	-0.127
Mof_C 	C 	0.43	0.6995	0.3701	0.056
Mof_C 	C 	0.4424	0.6562	0.35606	-0.117
Mof_C 	C 	0.424	0.615	0.37189	0.059
Mof_I 	I 	0.82891	0.16951	0.82937	-0.374
Mof_I 	I 	0.67967	0.30387	0.81044	-0.37
Mof_I 	I 	0.70976	0.42496	0.87643	-0.369
Mof_I 	I 	0.70093	0.49731	0.96449	-0.39
Mof_I 	I 	0.67228	0.44006	0.07336	-0.385
Mof_I 	I 	0.93964	0.51364	0.10851	-0.364
Mof_I 	I 	0.17109	0.33049	0.32937	-0.374
Mof_I 	I 	0.32033	0.19613	0.31044	-0.37
Mof_I 	I 	0.29024	0.07504	0.37643	-0.369
Mof_I 	I 	0.29907	0.00269	0.46449	-0.391
Mof_I 	I 	0.32772	0.05994	0.57336	-0.386
Mof_I 	I 	0.06036	0.98636	0.60851	-0.364
Mof_I 	I 	0.32891	0.83049	0.67063	-0.374
Mof_I 	I 	0.17967	0.69613	0.68956	-0.371
Mof_I 	I 	0.20976	0.57504	0.62357	-0.37
Mof_I 	I 	0.20093	0.50269	0.53551	-0.391
Mof_I 	I 	0.17228	0.55994	0.42664	-0.385
Mof_I 	I 	0.43964	0.48636	0.39149	-0.364
Mof_I 	I 	0.67109	0.66951	0.17063	-0.374
Mof_I 	I 	0.82033	0.80387	0.18956	-0.371
Mof_I 	I 	0.79024	0.92496	0.12357	-0.37
Mof_I 	I 	0.79907	0.99731	0.03551	-0.391
Mof_I 	I 	0.82772	0.94006	0.92664	-0.386
Mof_I 	I 	0.56036	0.01364	0.89149	-0.364
Mof_N 	N 	0.9167	0.2938	0.84783	-0.277
Mof_N 	N 	0.1644	0.3724	0.91286	-0.133
Mof_N 	N 	0.1617	0.4141	0.95916	-0.145
Mof_N 	N 	0.0185	0.3787	0.94024	-0.138
Mof_N 	N 	0.4936	0.4475	0.92214	-0.275
Mof_N 	N 	0.9169	0.4415	0.03935	-0.278
Mof_N 	N 	0.0932	0.4592	0.60664	-0.277
Mof_N 	N 	0.0302	0.3244	0.67825	-0.142
Mof_N 	N 	0.0311	0.2403	0.67563	-0.143
Mof_N 	N 	0.0663	0.286	0.63283	-0.142
Mof_N 	N 	0.916	0.2667	0.77795	-0.273
Mof_N 	N 	0.1037	0.115	0.5993	-0.277
Mof_N 	N 	0.0833	0.2062	0.34783	-0.278
Mof_N 	N 	0.8356	0.1276	0.41286	-0.133
Mof_N 	N 	0.8383	0.0859	0.45916	-0.145
Mof_N 	N 	0.9815	0.1213	0.44024	-0.137
Mof_N 	N 	0.5064	0.0525	0.42214	-0.275
Mof_N 	N 	0.0831	0.0585	0.53935	-0.279
Mof_N 	N 	0.9068	0.0408	0.10664	-0.276
Mof_N 	N 	0.9698	0.1756	0.17825	-0.141
Mof_N 	N 	0.9689	0.2597	0.17563	-0.143
Mof_N 	N 	0.9337	0.214	0.13283	-0.142
Mof_N 	N 	0.084	0.2333	0.27795	-0.273
Mof_N 	N 	0.8963	0.385	0.0993	-0.276
Mof_N 	N 	0.4167	0.7062	0.65217	-0.278
Mof_N 	N 	0.6644	0.6276	0.58714	-0.132
Mof_N 	N 	0.6617	0.5859	0.54084	-0.145
Mof_N 	N 	0.5185	0.6213	0.55976	-0.137
Mof_N 	N 	0.9936	0.5525	0.57786	-0.275
Mof_N 	N 	0.4169	0.5585	0.46065	-0.278
Mof_N 	N 	0.5932	0.5408	0.89336	-0.277
Mof_N 	N 	0.5302	0.6756	0.82175	-0.141
Mof_N 	N 	0.5311	0.7597	0.82437	-0.142
Mof_N 	N 	0.5663	0.714	0.86717	-0.142
Mof_N 	N 	0.416	0.7333	0.72205	-0.273
Mof_N 	N 	0.6037	0.885	0.9007	-0.276
Mof_N 	N 	0.5833	0.7938	0.15217	-0.278
Mof_N 	N 	0.3356	0.8724	0.08714	-0.132
Mof_N 	N 	0.3383	0.9141	0.04084	-0.145
Mof_N 	N 	0.4815	0.8787	0.05976	-0.137
Mof_N 	N 	0.0064	0.9475	0.07786	-0.275
Mof_N 	N 	0.5831	0.9415	0.96065	-0.278
Mof_N 	N 	0.4068	0.9592	0.39336	-0.276
Mof_N 	N 	0.4698	0.8244	0.32175	-0.141
Mof_N 	N 	0.4689	0.7403	0.32437	-0.142
Mof_N 	N 	0.4337	0.786	0.36717	-0.142
Mof_N 	N 	0.584	0.7667	0.22205	-0.273
Mof_N 	N 	0.3963	0.615	0.4007	-0.276
Mof_Zn	Zn	0.16202	0.74182	0.1834	1.165
Mof_Zn	Zn	0.3742	0.52243	0.08589	1.166
Mof_Zn	Zn	0.14668	0.55181	0.91999	1.166
Mof_Zn	Zn	0.83798	0.75818	0.6834	1.165
Mof_Zn	Zn	0.6258	0.97757	0.58589	1.166
Mof_Zn	Zn	0.85332	0.94819	0.41999	1.166
Mof_Zn	Zn	0.66202	0.25818	0.3166	1.165
Mof_Zn	Zn	0.8742	0.47757	0.41411	1.166
Mof_Zn	Zn	0.64668	0.44819	0.58001	1.166
Mof_Zn	Zn	0.33798	0.24182	0.8166	1.165
Mof_Zn	Zn	0.1258	0.02243	0.91411	1.165
Mof_Zn	Zn	0.35332	0.05181	0.08001	1.166
Mof_H 	H 	0.9539	0.7224	0.1674	-0.014
Mof_H 	H 	0.8655	0.6811	0.1311	0.082
Mof_H 	H 	0.116	0.6468	0.092	0.084
Mof_H 	H 	0.1982	0.6837	0.1298	-0.007
Mof_H 	H 	0.524	0.5779	0.1186	-0.007
Mof_H 	H 	0.6814	0.6047	0.1129	0.098
Mof_H 	H 	0.6708	0.564	0.0269	0.091
Mof_H 	H 	0.5154	0.5347	0.0353	-0.005
Mof_H 	H 	0.9535	0.5345	0.9478	-0.012
Mof_H 	H 	0.8705	0.5557	0.9903	0.092
Mof_H 	H 	0.1181	0.5997	0.0267	0.081
Mof_H 	H 	0.1981	0.5777	0.9831	-0.006
Mof_H 	H 	0.9206	0.5152	0.3525	-0.01
Mof_H 	H 	0.9425	0.5876	0.3281	0.084
Mof_H 	H 	0.9235	0.6539	0.4073	0.085
Mof_H 	H 	0.9044	0.5803	0.4295	-0.011
Mof_H 	H 	0.1007	0.6636	0.2233	-0.014
Mof_H 	H 	0.0419	0.6528	0.2714	0.08
Mof_H 	H 	0.9922	0.7955	0.2753	0.078
Mof_H 	H 	0.049	0.8017	0.227	0.001
Mof_H 	H 	0.8698	0.8428	0.4344	-0.019
Mof_H 	H 	0.8946	0.7708	0.4101	0.081
Mof_H 	H 	0.9632	0.8452	0.3359	0.08
Mof_H 	H 	0.9312	0.9149	0.3621	-0.01
Mof_H 	H 	0.0461	0.7776	0.6674	-0.015
Mof_H 	H 	0.1345	0.8189	0.6311	0.083
Mof_H 	H 	0.884	0.8532	0.592	0.084
Mof_H 	H 	0.8018	0.8163	0.6298	-0.007
Mof_H 	H 	0.476	0.9221	0.6186	-0.007
Mof_H 	H 	0.3186	0.8953	0.6129	0.098
Mof_H 	H 	0.3292	0.936	0.5269	0.091
Mof_H 	H 	0.4846	0.9653	0.5353	-0.005
Mof_H 	H 	0.0465	0.9655	0.4478	-0.012
Mof_H 	H 	0.1295	0.9443	0.4903	0.093
Mof_H 	H 	0.8819	0.9003	0.5267	0.081
Mof_H 	H 	0.8019	0.9223	0.4831	-0.006
Mof_H 	H 	0.0794	0.9848	0.8525	-0.01
Mof_H 	H 	0.0575	0.9124	0.8281	0.085
Mof_H 	H 	0.0765	0.8461	0.9073	0.085
Mof_H 	H 	0.0956	0.9197	0.9295	-0.011
Mof_H 	H 	0.8993	0.8364	0.7233	-0.014
Mof_H 	H 	0.9581	0.8472	0.7714	0.08
Mof_H 	H 	0.0078	0.7045	0.7753	0.079
Mof_H 	H 	0.951	0.6983	0.727	0.001
Mof_H 	H 	0.1302	0.6572	0.9344	-0.019
Mof_H 	H 	0.1054	0.7292	0.9101	0.081
Mof_H 	H 	0.0368	0.6548	0.8359	0.08
Mof_H 	H 	0.0688	0.5851	0.8621	-0.01
Mof_H 	H 	0.4539	0.2776	0.3326	-0.015
Mof_H 	H 	0.3655	0.3189	0.3689	0.083
Mof_H 	H 	0.616	0.3532	0.408	0.084
Mof_H 	H 	0.6982	0.3163	0.3702	-0.007
Mof_H 	H 	0.024	0.4221	0.3814	-0.007
Mof_H 	H 	0.1814	0.3953	0.3871	0.098
Mof_H 	H 	0.1708	0.436	0.4731	0.091
Mof_H 	H 	0.0154	0.4653	0.4647	-0.005
Mof_H 	H 	0.4535	0.4655	0.5522	-0.012
Mof_H 	H 	0.3705	0.4443	0.5097	0.092
Mof_H 	H 	0.6181	0.4003	0.4733	0.081
Mof_H 	H 	0.6981	0.4223	0.5169	-0.006
Mof_H 	H 	0.4206	0.4848	0.1475	-0.01
Mof_H 	H 	0.4425	0.4124	0.1719	0.085
Mof_H 	H 	0.4235	0.3461	0.0927	0.085
Mof_H 	H 	0.4044	0.4197	0.0705	-0.011
Mof_H 	H 	0.6007	0.3364	0.2767	-0.014
Mof_H 	H 	0.5419	0.3472	0.2286	0.079
Mof_H 	H 	0.4922	0.2045	0.2247	0.08
Mof_H 	H 	0.549	0.1983	0.273	0.001
Mof_H 	H 	0.3698	0.1572	0.0656	-0.019
Mof_H 	H 	0.3946	0.2292	0.0899	0.081
Mof_H 	H 	0.4632	0.1548	0.1641	0.08
Mof_H 	H 	0.4312	0.0851	0.1379	-0.009
Mof_H 	H 	0.5461	0.2224	0.8326	-0.015
Mof_H 	H 	0.6345	0.1811	0.8689	0.083
Mof_H 	H 	0.384	0.1468	0.908	0.084
Mof_H 	H 	0.3018	0.1837	0.8702	-0.007
Mof_H 	H 	0.976	0.0779	0.8814	-0.007
Mof_H 	H 	0.8186	0.1047	0.8871	0.098
Mof_H 	H 	0.8292	0.064	0.9731	0.091
Mof_H 	H 	0.9846	0.0347	0.9647	-0.005
Mof_H 	H 	0.5465	0.0345	0.0522	-0.012
Mof_H 	H 	0.6295	0.0557	0.0097	0.092
Mof_H 	H 	0.3819	0.0997	0.9733	0.081
Mof_H 	H 	0.3019	0.0777	0.0169	-0.006
Mof_H 	H 	0.5794	0.0152	0.6475	-0.01
Mof_H 	H 	0.5575	0.0876	0.6719	0.085
Mof_H 	H 	0.5765	0.1539	0.5927	0.085
Mof_H 	H 	0.5956	0.0803	0.5705	-0.011
Mof_H 	H 	0.3993	0.1636	0.7767	-0.014
Mof_H 	H 	0.4581	0.1528	0.7286	0.079
Mof_H 	H 	0.5078	0.2955	0.7247	0.08
Mof_H 	H 	0.451	0.3017	0.773	0.001
Mof_H 	H 	0.6302	0.3428	0.5656	-0.019
Mof_H 	H 	0.6054	0.2708	0.5899	0.081
Mof_H 	H 	0.5368	0.3452	0.6641	0.08
Mof_H 	H 	0.5688	0.4149	0.6379	-0.009
Mof_C 	C 	0.9874	0.706	0.152	0.074
Mof_C 	C 	0.934	0.6823	0.1301	-0.121
Mof_C 	C 	0.982	0.6608	0.10706	0.062
Mof_C 	C 	0.0808	0.6618	0.1076	-0.113
Mof_C 	C 	0.1295	0.684	0.13	0.07
Mof_C 	C 	0.9294	0.6354	0.08339	0.106
Mof_C 	C 	0.7943	0.6013	0.06501	0.091
Mof_C 	C 	0.9313	0.5973	0.03936	0.097
Mof_C 	C 	0.555	0.574	0.0999	0.073
Mof_C 	C 	0.6482	0.5907	0.0966	-0.13
Mof_C 	C 	0.6925	0.5867	0.0692	0.057
Mof_C 	C 	0.6425	0.5664	0.0461	-0.129
Mof_C 	C 	0.5495	0.5493	0.0513	0.076
Mof_C 	C 	0.9873	0.5495	0.9637	0.069
Mof_C 	C 	0.938	0.5614	0.989	-0.126
Mof_C 	C 	0.9856	0.5817	0.01275	0.059
Mof_C 	C 	0.0823	0.5872	0.0105	-0.121
Mof_C 	C 	0.1298	0.5746	0.9841	0.074
Mof_C 	C 	0.9203	0.544	0.3638	0.074
Mof_C 	C 	0.9339	0.5869	0.349	-0.129
Mof_C 	C 	0.9347	0.6276	0.36509	0.065
Mof_C 	C 	0.923	0.6256	0.3956	-0.127
Mof_C 	C 	0.9106	0.5817	0.4085	0.081
Mof_C 	C 	0.9461	0.6758	0.3502	0.104
Mof_C 	C 	0.9809	0.7196	0.31001	0.106
Mof_C 	C 	0.9445	0.7554	0.35315	0.102
Mof_C 	C 	0.0794	0.6907	0.2344	0.071
Mof_C 	C 	0.0442	0.684	0.2629	-0.116
Mof_C 	C 	0.0123	0.7235	0.27901	0.047
Mof_C 	C 	0.0146	0.7678	0.26515	-0.108
Mof_C 	C 	0.0494	0.7714	0.23664	0.06
Mof_C 	C 	0.8875	0.8433	0.414	0.082
Mof_C 	C 	0.9027	0.8002	0.39972	-0.127
Mof_C 	C 	0.93	0.8005	0.3701	0.055
Mof_C 	C 	0.9424	0.8438	0.35606	-0.117
Mof_C 	C 	0.924	0.885	0.37189	0.059
Mof_C 	C 	0.0126	0.794	0.652	0.075
Mof_C 	C 	0.066	0.8177	0.6301	-0.123
Mof_C 	C 	0.018	0.8392	0.60706	0.063
Mof_C 	C 	0.9192	0.8382	0.6076	-0.115
Mof_C 	C 	0.8705	0.816	0.63	0.071
Mof_C 	C 	0.0706	0.8646	0.58339	0.105
Mof_C 	C 	0.2057	0.8987	0.56501	0.091
Mof_C 	C 	0.0687	0.9027	0.53936	0.097
Mof_C 	C 	0.445	0.926	0.5999	0.074
Mof_C 	C 	0.3518	0.9093	0.5966	-0.13
Mof_C 	C 	0.3075	0.9133	0.5692	0.057
Mof_C 	C 	0.3575	0.9336	0.5461	-0.129
Mof_C 	C 	0.4505	0.9507	0.5513	0.076
Mof_C 	C 	0.0127	0.9505	0.4637	0.071
Mof_C 	C 	0.062	0.9386	0.489	-0.128
Mof_C 	C 	0.0144	0.9183	0.51275	0.061
Mof_C 	C 	0.9177	0.9128	0.5105	-0.124
Mof_C 	C 	0.8702	0.9254	0.4841	0.075
Mof_C 	C 	0.0797	0.956	0.8638	0.074
Mof_C 	C 	0.0661	0.9131	0.849	-0.129
Mof_C 	C 	0.0653	0.8724	0.86509	0.065
Mof_C 	C 	0.077	0.8744	0.8956	-0.127
Mof_C 	C 	0.0894	0.9183	0.9085	0.081
Mof_C 	C 	0.0539	0.8242	0.8502	0.104
Mof_C 	C 	0.0191	0.7804	0.81001	0.107
Mof_C 	C 	0.0555	0.7446	0.85315	0.103
Mof_C 	C 	0.9206	0.8093	0.7344	0.071
Mof_C 	C 	0.9558	0.816	0.7629	-0.116
Mof_C 	C 	0.9877	0.7765	0.77901	0.047
Mof_C 	C 	0.9854	0.7322	0.76515	-0.109
Mof_C 	C 	0.9506	0.7286	0.73664	0.061
Mof_C 	C 	0.1125	0.6567	0.914	0.082
Mof_C 	C 	0.0973	0.6998	0.89972	-0.127
Mof_C 	C 	0.07	0.6995	0.8701	0.056
Mof_C 	C 	0.0576	0.6562	0.85606	-0.117
Mof_C 	C 	0.076	0.615	0.87189	0.059
Mof_C 	C 	0.4874	0.294	0.348	0.076
Mof_C 	C 	0.434	0.3177	0.3699	-0.123
Mof_C 	C 	0.482	0.3392	0.39294	0.064
Mof_C 	C 	0.5808	0.3382	0.3924	-0.116
Mof_C 	C 	0.6295	0.316	0.37	0.071
Mof_C 	C 	0.4294	0.3646	0.41661	0.105
Mof_C 	C 	0.2943	0.3987	0.43499	0.091
Mof_C 	C 	0.4313	0.4027	0.46064	0.097
Mof_C 	C 	0.055	0.426	0.4001	0.074
Mof_C 	C 	0.1482	0.4093	0.4034	-0.13
Mof_C 	C 	0.1925	0.4133	0.4308	0.057
Mof_C 	C 	0.1425	0.4336	0.4539	-0.129
Mof_C 	C 	0.0495	0.4507	0.4487	0.076
Mof_C 	C 	0.4873	0.4505	0.5363	0.069
Mof_C 	C 	0.438	0.4386	0.511	-0.127
Mof_C 	C 	0.4856	0.4183	0.48725	0.059
Mof_C 	C 	0.5823	0.4128	0.4895	-0.122
Mof_C 	C 	0.6298	0.4254	0.5159	0.074
Mof_C 	C 	0.4203	0.456	0.1362	0.074
Mof_C 	C 	0.4339	0.4131	0.151	-0.129
Mof_C 	C 	0.4347	0.3724	0.13491	0.065
Mof_C 	C 	0.423	0.3744	0.1044	-0.127
Mof_C 	C 	0.4106	0.4183	0.0915	0.081
Mof_C 	C 	0.4461	0.3242	0.1498	0.104
Mof_C 	C 	0.4809	0.2804	0.18999	0.107
Mof_C 	C 	0.4445	0.2446	0.14685	0.103
Mof_C 	C 	0.5794	0.3093	0.2656	0.071
Mof_C 	C 	0.5442	0.316	0.2371	-0.116
Mof_C 	C 	0.5123	0.2765	0.22099	0.047
Mof_C 	C 	0.5146	0.2322	0.23485	-0.111
Mof_C 	C 	0.5494	0.2286	0.26336	0.061
Mof_C 	C 	0.3875	0.1567	0.086	0.083
Mof_C 	C 	0.4027	0.1998	0.10028	-0.127
Mof_C 	C 	0.43	0.1995	0.1299	0.056
Mof_C 	C 	0.4424	0.1562	0.14394	-0.117
Mof_C 	C 	0.424	0.115	0.12811	0.059
Mof_C 	C 	0.5126	0.206	0.848	0.076
Mof_C 	C 	0.566	0.1823	0.8699	-0.123
Mof_C 	C 	0.518	0.1608	0.89294	0.064
Mof_C 	C 	0.4192	0.1618	0.8924	-0.116
Mof_C 	C 	0.3705	0.184	0.87	0.071
Mof_C 	C 	0.5706	0.1354	0.91661	0.105
Mof_C 	C 	0.7057	0.1013	0.93499	0.091
Mof_C 	C 	0.5687	0.0973	0.96064	0.097
Mof_C 	C 	0.945	0.074	0.9001	0.074
Mof_C 	C 	0.8518	0.0907	0.9034	-0.13
Mof_C 	C 	0.8075	0.0867	0.9308	0.057
Mof_C 	C 	0.8575	0.0664	0.9539	-0.129
Mof_C 	C 	0.9505	0.0493	0.9487	0.076
Mof_C 	C 	0.5127	0.0495	0.0363	0.07
Mof_C 	C 	0.562	0.0614	0.011	-0.127
Mof_C 	C 	0.5144	0.0817	0.98725	0.059
Mof_C 	C 	0.4177	0.0872	0.9895	-0.122
Mof_C 	C 	0.3702	0.0746	0.0159	0.074
Mof_C 	C 	0.5797	0.044	0.6362	0.074
Mof_C 	C 	0.5661	0.0869	0.651	-0.129
Mof_C 	C 	0.5653	0.1276	0.63491	0.065
Mof_C 	C 	0.577	0.1256	0.6044	-0.127
Mof_C 	C 	0.5894	0.0817	0.5915	0.081
Mof_C 	C 	0.5539	0.1758	0.6498	0.104
Mof_C 	C 	0.5191	0.2196	0.68999	0.107
Mof_C 	C 	0.5555	0.2554	0.64685	0.103
Mof_C 	C 	0.4206	0.1907	0.7656	0.071
Mof_C 	C 	0.4558	0.184	0.7371	-0.116
Mof_C 	C 	0.4877	0.2235	0.72099	0.047
Mof_C 	C 	0.4854	0.2678	0.73485	-0.111
Mof_C 	C 	0.4506	0.2714	0.76336	0.061
Mof_C 	C 	0.6125	0.3433	0.586	0.083
Mof_C 	C 	0.5973	0.3002	0.60028	-0.127
Mof_C 	C 	0.57	0.3005	0.6299	0.056
Mof_C 	C 	0.5576	0.3438	0.64394	-0.117
Mof_C 	C 	0.576	0.385	0.62811	0.059
Mof_I 	I 	0.17109	0.83049	0.17063	-0.374
Mof_I 	I 	0.32033	0.69613	0.18956	-0.37
Mof_I 	I 	0.29024	0.57504	0.12357	-0.369
Mof_I 	I 	0.29907	0.50269	0.03551	-0.39
Mof_I 	I 	0.32772	0.55994	0.92664	-0.385
Mof_I 	I 	0.06036	0.48636	0.89149	-0.364
Mof_I 	I 	0.82891	0.66951	0.67063	-0.374
Mof_I 	I 	0.67967	0.80387	0.68956	-0.37
Mof_I 	I 	0.70976	0.92496	0.62357	-0.369
Mof_I 	I 	0.70093	0.99731	0.53551	-0.391
Mof_I 	I 	0.67228	0.94006	0.42664	-0.386
Mof_I 	I 	0.93964	0.01364	0.39149	-0.364
Mof_I 	I 	0.67109	0.16951	0.32937	-0.374
Mof_I 	I 	0.82033	0.30387	0.31044	-0.371
Mof_I 	I 	0.79024	0.42496	0.37643	-0.37
Mof_I 	I 	0.79907	0.49731	0.46449	-0.391
Mof_I 	I 	0.82772	0.44006	0.57336	-0.385
Mof_I 	I 	0.56036	0.51364	0.60851	-0.364
Mof_I 	I 	0.32891	0.33049	0.82937	-0.374
Mof_I 	I 	0.17967	0.19613	0.81044	-0.371
Mof_I 	I 	0.20976	0.07504	0.87643	-0.37
Mof_I 	I 	0.20093	0.00269	0.96449	-0.391
Mof_I 	I 	0.17228	0.05994	0.07336	-0.386
Mof_I 	I 	0.43964	0.98636	0.10851	-0.364
Mof_N 	N 	0.0833	0.7062	0.15217	-0.277
Mof_N 	N 	0.8356	0.6276	0.08714	-0.133
Mof_N 	N 	0.8383	0.5859	0.04084	-0.145
Mof_N 	N 	0.9815	0.6213	0.05976	-0.138
Mof_N 	N 	0.5064	0.5525	0.07786	-0.275
Mof_N 	N 	0.0831	0.5585	0.96065	-0.278
Mof_N 	N 	0.9068	0.5408	0.39336	-0.277
Mof_N 	N 	0.9698	0.6756	0.32175	-0.142
Mof_N 	N 	0.9689	0.7597	0.32437	-0.143
Mof_N 	N 	0.9337	0.714	0.36717	-0.142
Mof_N 	N 	0.084	0.7333	0.22205	-0.273
Mof_N 	N 	0.8963	0.885	0.4007	-0.277
Mof_N 	N 	0.9167	0.7938	0.65217	-0.278
Mof_N 	N 	0.1644	0.8724	0.58714	-0.133
Mof_N 	N 	0.1617	0.9141	0.54084	-0.145
Mof_N 	N 	0.0185	0.8787	0.55976	-0.137
Mof_N 	N 	0.4936	0.9475	0.57786	-0.275
Mof_N 	N 	0.9169	0.9415	0.46065	-0.279
Mof_N 	N 	0.0932	0.9592	0.89336	-0.276
Mof_N 	N 	0.0302	0.8244	0.82175	-0.141
Mof_N 	N 	0.0311	0.7403	0.82437	-0.143
Mof_N 	N 	0.0663	0.786	0.86717	-0.142
Mof_N 	N 	0.916	0.7667	0.72205	-0.273
Mof_N 	N 	0.1037	0.615	0.9007	-0.276
Mof_N 	N 	0.5833	0.2938	0.34783	-0.278
Mof_N 	N 	0.3356	0.3724	0.41286	-0.132
Mof_N 	N 	0.3383	0.4141	0.45916	-0.145
Mof_N 	N 	0.4815	0.3787	0.44024	-0.137
Mof_N 	N 	0.0064	0.4475	0.42214	-0.275
Mof_N 	N 	0.5831	0.4415	0.53935	-0.278
Mof_N 	N 	0.4068	0.4592	0.10664	-0.277
Mof_N 	N 	0.4698	0.3244	0.17825	-0.141
Mof_N 	N 	0.4689	0.2403	0.17563	-0.142
Mof_N 	N 	0.4337	0.286	0.13283	-0.142
Mof_N 	N 	0.584	0.2667	0.27795	-0.273
Mof_N 	N 	0.3963	0.115	0.0993	-0.276
Mof_N 	N 	0.4167	0.2062	0.84783	-0.278
Mof_N 	N 	0.6644	0.1276	0.91286	-0.132
Mof_N 	N 	0.6617	0.0859	0.95916	-0.145
Mof_N 	N 	0.5185	0.1213	0.94024	-0.137
Mof_N 	N 	0.9936	0.0525	0.92214	-0.275
Mof_N 	N 	0.4169	0.0585	0.03935	-0.278
Mof_N 	N 	0.5932	0.0408	0.60664	-0.276
Mof_N 	N 	0.5302	0.1756	0.67825	-0.141
Mof_N 	N 	0.5311	0.2597	0.67563	-0.142
Mof_N 	N 	0.5663	0.214	0.63283	-0.142
Mof_N 	N 	0.416	0.2333	0.77795	-0.273
Mof_N 	N 	0.6037	0.385	0.5993	-0.276
_end
