data_functionalizedCrystal
_audit_creation_method	'EQeq! by Chris Wilmer'
_symmetry_space_group_name_H-M	'P1'
_symmetry_Int_Tables_number	1
_symmetry_cell_setting	triclinic
loop_
_symmetry_equiv_pos_as_xyz
  x,y,z
_cell_length_a	15.4
_cell_length_b	6.7287
_cell_length_c	14.252
_cell_angle_alpha	90
_cell_angle_beta	90
_cell_angle_gamma	90
loop_
_atom_site_label
_atom_site_type_symbol
_atom_site_fract_x
_atom_site_fract_y
_atom_site_fract_z
_atom_site_charge
Mof_O 	O 	0.71	0.4083	0.251	-0.96
Mof_O 	O 	0.6481	0.4137	0.8611	-0.766
Mof_O 	O 	0.79	0.5917	0.751	-0.961
Mof_O 	O 	0.8519	0.5863	0.3611	-0.765
Mof_O 	O 	0.29	0.9083	0.749	-0.959
Mof_O 	O 	0.3519	0.9137	0.1389	-0.769
Mof_O 	O 	0.21	0.0917	0.249	-0.96
Mof_O 	O 	0.1481	0.0863	0.6389	-0.766
Mof_O 	O 	0.29	0.5917	0.749	-0.961
Mof_O 	O 	0.3519	0.5863	0.1389	-0.767
Mof_O 	O 	0.21	0.4083	0.249	-0.962
Mof_O 	O 	0.1481	0.4137	0.6389	-0.766
Mof_O 	O 	0.71	0.0917	0.251	-0.959
Mof_O 	O 	0.6481	0.0863	0.8611	-0.769
Mof_O 	O 	0.79	0.9083	0.751	-0.96
Mof_O 	O 	0.8519	0.9137	0.3611	-0.766
Mof_Eu	Eu	0.80335	0.25	0.37641	1.658
Mof_K 	K 	0.7328	0.25	0.6905	3.195
Mof_O 	O 	0.3492	0.25	0.9635	-0.837
Mof_O 	O 	0.4508	0.25	0.8501	-0.498
Mof_O 	O 	0.3952	0.25	0.2615	-0.628
Mof_O 	O 	0.524	0.25	0.3331	-0.521
Mof_N 	N 	0.4666	0.25	0.0948	-0.193
Mof_N 	N 	0.6421	0.25	0.0635	-0.195
Mof_C 	C 	0.4967	0.25	0.0074	-0.028
Mof_C 	C 	0.5201	0.25	0.1674	-0.014
Mof_C 	C 	0.6096	0.25	0.1508	-0.206
Mof_C 	C 	0.5867	0.25	0.9924	-0.082
Mof_C 	C 	0.4277	0.25	0.9317	0.409
Mof_C 	C 	0.4773	0.25	0.2623	0.331
Mof_C 	C 	0.6767	0.25	0.2272	0.617
Mof_C 	C 	0.6284	0.25	0.8959	0.446
Mof_Eu	Eu	0.69665	0.75	0.87641	1.665
Mof_K 	K 	0.7672	0.75	0.1905	3.191
Mof_O 	O 	0.1508	0.75	0.4635	-0.836
Mof_O 	O 	0.0492	0.75	0.3501	-0.499
Mof_O 	O 	0.1048	0.75	0.7615	-0.627
Mof_O 	O 	0.976	0.75	0.8331	-0.518
Mof_N 	N 	0.0334	0.75	0.5948	-0.194
Mof_N 	N 	0.8579	0.75	0.5635	-0.196
Mof_C 	C 	0.0033	0.75	0.5074	-0.035
Mof_C 	C 	0.9799	0.75	0.6674	-0.011
Mof_C 	C 	0.8904	0.75	0.6508	-0.207
Mof_C 	C 	0.9133	0.75	0.4924	-0.076
Mof_C 	C 	0.0723	0.75	0.4317	0.412
Mof_C 	C 	0.0227	0.75	0.7623	0.324
Mof_C 	C 	0.8233	0.75	0.7272	0.618
Mof_C 	C 	0.8716	0.75	0.3959	0.443
Mof_Eu	Eu	0.19665	0.75	0.62359	1.658
Mof_K 	K 	0.2672	0.75	0.3095	3.195
Mof_O 	O 	0.6508	0.75	0.0365	-0.837
Mof_O 	O 	0.5492	0.75	0.1499	-0.498
Mof_O 	O 	0.6048	0.75	0.7385	-0.628
Mof_O 	O 	0.476	0.75	0.6669	-0.521
Mof_N 	N 	0.5334	0.75	0.9052	-0.193
Mof_N 	N 	0.3579	0.75	0.9365	-0.195
Mof_C 	C 	0.5033	0.75	0.9926	-0.028
Mof_C 	C 	0.4799	0.75	0.8326	-0.014
Mof_C 	C 	0.3904	0.75	0.8492	-0.206
Mof_C 	C 	0.4133	0.75	0.0076	-0.082
Mof_C 	C 	0.5723	0.75	0.0683	0.409
Mof_C 	C 	0.5227	0.75	0.7377	0.331
Mof_C 	C 	0.3233	0.75	0.7728	0.617
Mof_C 	C 	0.3716	0.75	0.1041	0.446
Mof_Eu	Eu	0.30335	0.25	0.12359	1.665
Mof_K 	K 	0.2328	0.25	0.8095	3.191
Mof_O 	O 	0.8492	0.25	0.5365	-0.836
Mof_O 	O 	0.9508	0.25	0.6499	-0.499
Mof_O 	O 	0.8952	0.25	0.2385	-0.627
Mof_O 	O 	0.024	0.25	0.1669	-0.518
Mof_N 	N 	0.9666	0.25	0.4052	-0.194
Mof_N 	N 	0.1421	0.25	0.4365	-0.196
Mof_C 	C 	0.9967	0.25	0.4926	-0.035
Mof_C 	C 	0.0201	0.25	0.3326	-0.011
Mof_C 	C 	0.1096	0.25	0.3492	-0.207
Mof_C 	C 	0.0867	0.25	0.5076	-0.076
Mof_C 	C 	0.9277	0.25	0.5683	0.412
Mof_C 	C 	0.9773	0.25	0.2377	0.324
Mof_C 	C 	0.1767	0.25	0.2728	0.618
Mof_C 	C 	0.1284	0.25	0.6041	0.443
_end
