data_functionalizedCrystal
_audit_creation_method	'EQeq! by Chris Wilmer'
_symmetry_space_group_name_H-M	'P1'
_symmetry_Int_Tables_number	1
_symmetry_cell_setting	triclinic
loop_
_symmetry_equiv_pos_as_xyz
  x,y,z
_cell_length_a	24.4118
_cell_length_b	24.4118
_cell_length_c	14.6499
_cell_angle_alpha	90
_cell_angle_beta	90
_cell_angle_gamma	90
loop_
_atom_site_label
_atom_site_type_symbol
_atom_site_fract_x
_atom_site_fract_y
_atom_site_fract_z
_atom_site_charge
Mof_F 	F 	0.2971	0.3276	0.3209	-5.565
Mof_F 	F 	0.2489	0.2867	0.4247	-4.995
Mof_F 	F 	0.2316	0.3706	0.3905	-6.524
Mof_O 	O 	0.05508	0.3527	0.0902	0.475
Mof_O 	O 	0.1017	0.41649	0.1677	0.454
Mof_C 	C 	0.2046	0.2471	0.2347	-13.053
Mof_C 	C 	0.2031	0.2991	0.2742	27.517
Mof_C 	C 	0.1663	0.3365	0.2454	-21.64
Mof_H 	H 	0.1654	0.3715	0.2735	7.111
Mof_C 	C 	0.1305	0.3251	0.177	14.946
Mof_C 	C 	0.1293	0.2733	0.141	-20.657
Mof_H 	H 	0.1024	0.2638	0.0968	6.652
Mof_C 	C 	0.1665	0.2356	0.1686	26.369
Mof_H 	H 	0.1663	0.2003	0.1414	-25.154
Mof_C 	C 	0.0923	0.368	0.1422	-4.965
Mof_C 	C 	0.2457	0.3227	0.3545	31.495
Mof_F 	F 	0.1551	0.1348	0.1717	-4.631
Mof_F 	F 	0.2099	0.165	0.0685	-4.769
Mof_F 	F 	0.1227	0.1739	0.0492	-5.886
Mof_H 	H 	0.2281	0.3082	0.3216	-27.066
Mof_C 	C 	0.1614	0.1766	0.1112	28.866
Mof_F 	F 	0.7029	0.6724	0.3209	-5.571
Mof_F 	F 	0.7511	0.7133	0.4247	-5
Mof_F 	F 	0.7684	0.6294	0.3905	-6.53
Mof_O 	O 	0.94492	0.6473	0.0902	0.49
Mof_O 	O 	0.8983	0.58351	0.1677	0.461
Mof_C 	C 	0.7954	0.7529	0.2347	-13.072
Mof_C 	C 	0.7969	0.7009	0.2742	27.558
Mof_C 	C 	0.8337	0.6635	0.2454	-21.672
Mof_H 	H 	0.8346	0.6285	0.2735	7.123
Mof_C 	C 	0.8695	0.6749	0.177	14.972
Mof_C 	C 	0.8707	0.7267	0.141	-20.688
Mof_H 	H 	0.8976	0.7362	0.0968	6.667
Mof_C 	C 	0.8335	0.7644	0.1686	26.409
Mof_H 	H 	0.8337	0.7997	0.1414	-25.189
Mof_C 	C 	0.9077	0.632	0.1422	-4.975
Mof_C 	C 	0.7543	0.6773	0.3545	31.538
Mof_F 	F 	0.8449	0.8652	0.1717	-4.631
Mof_F 	F 	0.7901	0.835	0.0685	-4.771
Mof_F 	F 	0.8773	0.8261	0.0492	-5.886
Mof_H 	H 	0.7719	0.6918	0.3216	-27.104
Mof_C 	C 	0.8386	0.8234	0.1112	28.905
Mof_F 	F 	0.6724	0.2971	0.8209	-5.57
Mof_F 	F 	0.7133	0.2489	0.9247	-4.997
Mof_F 	F 	0.6294	0.2316	0.8905	-6.529
Mof_O 	O 	0.6473	0.05508	0.5902	0.484
Mof_O 	O 	0.58351	0.1017	0.6677	0.459
Mof_C 	C 	0.7529	0.2046	0.7347	-13.075
Mof_C 	C 	0.7009	0.2031	0.7742	27.564
Mof_C 	C 	0.6635	0.1663	0.7454	-21.676
Mof_H 	H 	0.6285	0.1654	0.7735	7.124
Mof_C 	C 	0.6749	0.1305	0.677	14.974
Mof_C 	C 	0.7267	0.1293	0.641	-20.691
Mof_H 	H 	0.7362	0.1024	0.5968	6.668
Mof_C 	C 	0.7644	0.1665	0.6686	26.414
Mof_H 	H 	0.7997	0.1663	0.6414	-25.193
Mof_C 	C 	0.632	0.0923	0.6422	-4.975
Mof_C 	C 	0.6773	0.2457	0.8545	31.543
Mof_F 	F 	0.8652	0.1551	0.6717	-4.632
Mof_F 	F 	0.835	0.2099	0.5685	-4.767
Mof_F 	F 	0.8261	0.1227	0.5492	-5.883
Mof_H 	H 	0.6918	0.2281	0.8216	-27.108
Mof_C 	C 	0.8234	0.1614	0.6112	28.909
Mof_F 	F 	0.3276	0.7029	0.8209	-5.57
Mof_F 	F 	0.2867	0.7511	0.9247	-4.996
Mof_F 	F 	0.3706	0.7684	0.8905	-6.529
Mof_O 	O 	0.3527	0.94492	0.5902	0.493
Mof_O 	O 	0.41649	0.8983	0.6677	0.463
Mof_C 	C 	0.2471	0.7954	0.7347	-13.077
Mof_C 	C 	0.2991	0.7969	0.7742	27.571
Mof_C 	C 	0.3365	0.8337	0.7454	-21.682
Mof_H 	H 	0.3715	0.8346	0.7735	7.127
Mof_C 	C 	0.3251	0.8695	0.677	14.981
Mof_C 	C 	0.2733	0.8707	0.641	-20.697
Mof_H 	H 	0.2638	0.8976	0.5968	6.673
Mof_C 	C 	0.2356	0.8335	0.6686	26.423
Mof_H 	H 	0.2003	0.8337	0.6414	-25.2
Mof_C 	C 	0.368	0.9077	0.6422	-4.977
Mof_C 	C 	0.3227	0.7543	0.8545	31.549
Mof_F 	F 	0.1348	0.8449	0.6717	-4.634
Mof_F 	F 	0.165	0.7901	0.5685	-4.769
Mof_F 	F 	0.1739	0.8773	0.5492	-5.884
Mof_H 	H 	0.3082	0.7719	0.8216	-27.114
Mof_C 	C 	0.1766	0.8386	0.6112	28.918
Mof_F 	F 	0.7029	0.3276	0.6791	-5.57
Mof_F 	F 	0.7511	0.2867	0.5753	-5
Mof_F 	F 	0.7684	0.3706	0.6095	-6.53
Mof_O 	O 	0.94492	0.3527	0.9098	0.495
Mof_O 	O 	0.8983	0.41649	0.8323	0.463
Mof_C 	C 	0.7954	0.2471	0.7653	-13.07
Mof_C 	C 	0.7969	0.2991	0.7258	27.559
Mof_C 	C 	0.8337	0.3365	0.7546	-21.673
Mof_H 	H 	0.8346	0.3715	0.7265	7.124
Mof_C 	C 	0.8695	0.3251	0.823	14.975
Mof_C 	C 	0.8707	0.2733	0.859	-20.687
Mof_H 	H 	0.8976	0.2638	0.9032	6.671
Mof_C 	C 	0.8335	0.2356	0.8314	26.409
Mof_H 	H 	0.8337	0.2003	0.8586	-25.186
Mof_C 	C 	0.9077	0.368	0.8578	-4.975
Mof_C 	C 	0.7543	0.3227	0.6455	31.539
Mof_F 	F 	0.8449	0.1348	0.8283	-4.631
Mof_F 	F 	0.7901	0.165	0.9315	-4.763
Mof_F 	F 	0.8773	0.1739	0.9508	-5.876
Mof_H 	H 	0.7719	0.3082	0.6784	-27.105
Mof_C 	C 	0.8386	0.1766	0.8888	28.901
Mof_F 	F 	0.2971	0.6724	0.6791	-5.573
Mof_F 	F 	0.2489	0.7133	0.5753	-5.003
Mof_F 	F 	0.2316	0.6294	0.6095	-6.534
Mof_O 	O 	0.05508	0.6473	0.9098	0.493
Mof_O 	O 	0.1017	0.58351	0.8323	0.463
Mof_C 	C 	0.2046	0.7529	0.7653	-13.079
Mof_C 	C 	0.2031	0.7009	0.7258	27.575
Mof_C 	C 	0.1663	0.6635	0.7546	-21.685
Mof_H 	H 	0.1654	0.6285	0.7265	7.127
Mof_C 	C 	0.1305	0.6749	0.823	14.982
Mof_C 	C 	0.1293	0.7267	0.859	-20.698
Mof_H 	H 	0.1024	0.7362	0.9032	6.674
Mof_C 	C 	0.1665	0.7644	0.8314	26.424
Mof_H 	H 	0.1663	0.7997	0.8586	-25.199
Mof_C 	C 	0.0923	0.632	0.8578	-4.978
Mof_C 	C 	0.2457	0.6773	0.6455	31.556
Mof_F 	F 	0.1551	0.8652	0.8283	-4.631
Mof_F 	F 	0.2099	0.835	0.9315	-4.762
Mof_F 	F 	0.1227	0.8261	0.9508	-5.875
Mof_H 	H 	0.2281	0.6918	0.6784	-27.12
Mof_C 	C 	0.1614	0.8234	0.8888	28.915
Mof_F 	F 	0.3276	0.2971	0.1791	-5.566
Mof_F 	F 	0.2867	0.2489	0.0753	-5
Mof_F 	F 	0.3706	0.2316	0.1095	-6.528
Mof_O 	O 	0.3527	0.05508	0.4098	0.481
Mof_O 	O 	0.41649	0.1017	0.3323	0.454
Mof_C 	C 	0.2471	0.2046	0.2653	-13.05
Mof_C 	C 	0.2991	0.2031	0.2258	27.516
Mof_C 	C 	0.3365	0.1663	0.2546	-21.639
Mof_H 	H 	0.3715	0.1654	0.2265	7.11
Mof_C 	C 	0.3251	0.1305	0.323	14.946
Mof_C 	C 	0.2733	0.1293	0.359	-20.654
Mof_H 	H 	0.2638	0.1024	0.4032	6.655
Mof_C 	C 	0.2356	0.1665	0.3314	26.366
Mof_H 	H 	0.2003	0.1663	0.3586	-25.148
Mof_C 	C 	0.368	0.0923	0.3578	-4.965
Mof_C 	C 	0.3227	0.2457	0.1455	31.496
Mof_F 	F 	0.1348	0.1551	0.3283	-4.628
Mof_F 	F 	0.165	0.2099	0.4315	-4.76
Mof_F 	F 	0.1739	0.1227	0.4508	-5.874
Mof_H 	H 	0.3082	0.2281	0.1784	-27.066
Mof_C 	C 	0.1766	0.1614	0.3888	28.859
Mof_F 	F 	0.6724	0.7029	0.1791	-5.573
Mof_F 	F 	0.7133	0.7511	0.0753	-5.005
Mof_F 	F 	0.6294	0.7684	0.1095	-6.535
Mof_O 	O 	0.6473	0.94492	0.4098	0.492
Mof_O 	O 	0.58351	0.8983	0.3323	0.46
Mof_C 	C 	0.7529	0.7954	0.2653	-13.07
Mof_C 	C 	0.7009	0.7969	0.2258	27.558
Mof_C 	C 	0.6635	0.8337	0.2546	-21.672
Mof_H 	H 	0.6285	0.8346	0.2265	7.122
Mof_C 	C 	0.6749	0.8695	0.323	14.972
Mof_C 	C 	0.7267	0.8707	0.359	-20.686
Mof_H 	H 	0.7362	0.8976	0.4032	6.668
Mof_C 	C 	0.7644	0.8335	0.3314	26.407
Mof_H 	H 	0.7997	0.8337	0.3586	-25.185
Mof_C 	C 	0.632	0.9077	0.3578	-4.975
Mof_C 	C 	0.6773	0.7543	0.1455	31.54
Mof_F 	F 	0.8652	0.8449	0.3283	-4.629
Mof_F 	F 	0.835	0.7901	0.4315	-4.765
Mof_F 	F 	0.8261	0.8773	0.4508	-5.879
Mof_H 	H 	0.6918	0.7719	0.1784	-27.105
Mof_C 	C 	0.8234	0.8386	0.3888	28.9
Mof_F 	F 	0.7029	0.6724	0.6791	-5.573
Mof_F 	F 	0.7511	0.7133	0.5753	-5.003
Mof_F 	F 	0.7684	0.6294	0.6095	-6.534
Mof_O 	O 	0.94492	0.6473	0.9098	0.496
Mof_O 	O 	0.8983	0.58351	0.8323	0.464
Mof_C 	C 	0.7954	0.7529	0.7653	-13.08
Mof_C 	C 	0.7969	0.7009	0.7258	27.578
Mof_C 	C 	0.8337	0.6635	0.7546	-21.688
Mof_H 	H 	0.8346	0.6285	0.7265	7.129
Mof_C 	C 	0.8695	0.6749	0.823	14.985
Mof_C 	C 	0.8707	0.7267	0.859	-20.701
Mof_H 	H 	0.8976	0.7362	0.9032	6.675
Mof_C 	C 	0.8335	0.7644	0.8314	26.428
Mof_H 	H 	0.8337	0.7997	0.8586	-25.202
Mof_C 	C 	0.9077	0.632	0.8578	-4.979
Mof_C 	C 	0.7543	0.6773	0.6455	31.559
Mof_F 	F 	0.8449	0.8652	0.8283	-4.631
Mof_F 	F 	0.7901	0.835	0.9315	-4.764
Mof_F 	F 	0.8773	0.8261	0.9508	-5.878
Mof_H 	H 	0.7719	0.6918	0.6784	-27.123
Mof_C 	C 	0.8386	0.8234	0.8888	28.919
Mof_F 	F 	0.2971	0.3276	0.6791	-5.569
Mof_F 	F 	0.2489	0.2867	0.5753	-5
Mof_F 	F 	0.2316	0.3706	0.6095	-6.53
Mof_O 	O 	0.05508	0.3527	0.9098	0.492
Mof_O 	O 	0.1017	0.41649	0.8323	0.462
Mof_C 	C 	0.2046	0.2471	0.7653	-13.069
Mof_C 	C 	0.2031	0.2991	0.7258	27.555
Mof_C 	C 	0.1663	0.3365	0.7546	-21.67
Mof_H 	H 	0.1654	0.3715	0.7265	7.122
Mof_C 	C 	0.1305	0.3251	0.823	14.972
Mof_C 	C 	0.1293	0.2733	0.859	-20.684
Mof_H 	H 	0.1024	0.2638	0.9032	6.669
Mof_C 	C 	0.1665	0.2356	0.8314	26.405
Mof_H 	H 	0.1663	0.2003	0.8586	-25.182
Mof_C 	C 	0.0923	0.368	0.8578	-4.974
Mof_C 	C 	0.2457	0.3227	0.6455	31.536
Mof_F 	F 	0.1551	0.1348	0.8283	-4.632
Mof_F 	F 	0.2099	0.165	0.9315	-4.76
Mof_F 	F 	0.1227	0.1739	0.9508	-5.873
Mof_H 	H 	0.2281	0.3082	0.6784	-27.102
Mof_C 	C 	0.1614	0.1766	0.8888	28.897
Mof_F 	F 	0.3276	0.7029	0.1791	-5.568
Mof_F 	F 	0.2867	0.7511	0.0753	-5.002
Mof_F 	F 	0.3706	0.7684	0.1095	-6.53
Mof_O 	O 	0.3527	0.94492	0.4098	0.49
Mof_O 	O 	0.41649	0.8983	0.3323	0.459
Mof_C 	C 	0.2471	0.7954	0.2653	-13.056
Mof_C 	C 	0.2991	0.7969	0.2258	27.53
Mof_C 	C 	0.3365	0.8337	0.2546	-21.65
Mof_H 	H 	0.3715	0.8346	0.2265	7.114
Mof_C 	C 	0.3251	0.8695	0.323	14.957
Mof_C 	C 	0.2733	0.8707	0.359	-20.665
Mof_H 	H 	0.2638	0.8976	0.4032	6.661
Mof_C 	C 	0.2356	0.8335	0.3314	26.38
Mof_H 	H 	0.2003	0.8337	0.3586	-25.16
Mof_C 	C 	0.368	0.9077	0.3578	-4.969
Mof_C 	C 	0.3227	0.7543	0.1455	31.511
Mof_F 	F 	0.1348	0.8449	0.3283	-4.628
Mof_F 	F 	0.165	0.7901	0.4315	-4.762
Mof_F 	F 	0.1739	0.8773	0.4508	-5.874
Mof_H 	H 	0.3082	0.7719	0.1784	-27.079
Mof_C 	C 	0.1766	0.8386	0.3888	28.872
Mof_F 	F 	0.6724	0.2971	0.1791	-5.57
Mof_F 	F 	0.7133	0.2489	0.0753	-5.003
Mof_F 	F 	0.6294	0.2316	0.1095	-6.533
Mof_O 	O 	0.6473	0.05508	0.4098	0.483
Mof_O 	O 	0.58351	0.1017	0.3323	0.456
Mof_C 	C 	0.7529	0.2046	0.2653	-13.065
Mof_C 	C 	0.7009	0.2031	0.2258	27.544
Mof_C 	C 	0.6635	0.1663	0.2546	-21.661
Mof_H 	H 	0.6285	0.1654	0.2265	7.117
Mof_C 	C 	0.6749	0.1305	0.323	14.962
Mof_C 	C 	0.7267	0.1293	0.359	-20.675
Mof_H 	H 	0.7362	0.1024	0.4032	6.663
Mof_C 	C 	0.7644	0.1665	0.3314	26.393
Mof_H 	H 	0.7997	0.1663	0.3586	-25.173
Mof_C 	C 	0.632	0.0923	0.3578	-4.971
Mof_C 	C 	0.6773	0.2457	0.1455	31.525
Mof_F 	F 	0.8652	0.1551	0.3283	-4.629
Mof_F 	F 	0.835	0.2099	0.4315	-4.763
Mof_F 	F 	0.8261	0.1227	0.4508	-5.878
Mof_H 	H 	0.6918	0.2281	0.1784	-27.092
Mof_C 	C 	0.8234	0.1614	0.3888	28.886
Mof_F 	F 	0.2971	0.6724	0.3209	-5.567
Mof_F 	F 	0.2489	0.7133	0.4247	-4.997
Mof_F 	F 	0.2316	0.6294	0.3905	-6.527
Mof_O 	O 	0.05508	0.6473	0.0902	0.477
Mof_O 	O 	0.1017	0.58351	0.1677	0.455
Mof_C 	C 	0.2046	0.7529	0.2347	-13.063
Mof_C 	C 	0.2031	0.7009	0.2742	27.536
Mof_C 	C 	0.1663	0.6635	0.2454	-21.655
Mof_H 	H 	0.1654	0.6285	0.2735	7.116
Mof_C 	C 	0.1305	0.6749	0.177	14.956
Mof_C 	C 	0.1293	0.7267	0.141	-20.671
Mof_H 	H 	0.1024	0.7362	0.0968	6.657
Mof_C 	C 	0.1665	0.7644	0.1686	26.387
Mof_H 	H 	0.1663	0.7997	0.1414	-25.17
Mof_C 	C 	0.0923	0.632	0.1422	-4.969
Mof_C 	C 	0.2457	0.6773	0.3545	31.515
Mof_F 	F 	0.1551	0.8652	0.1717	-4.631
Mof_F 	F 	0.2099	0.835	0.0685	-4.77
Mof_F 	F 	0.1227	0.8261	0.0492	-5.888
Mof_H 	H 	0.2281	0.6918	0.3216	-27.084
Mof_C 	C 	0.1614	0.8234	0.1112	28.884
Mof_F 	F 	0.7029	0.3276	0.3209	-5.568
Mof_F 	F 	0.7511	0.2867	0.4247	-4.997
Mof_F 	F 	0.7684	0.3706	0.3905	-6.526
Mof_O 	O 	0.94492	0.3527	0.0902	0.489
Mof_O 	O 	0.8983	0.41649	0.1677	0.46
Mof_C 	C 	0.7954	0.2471	0.2347	-13.061
Mof_C 	C 	0.7969	0.2991	0.2742	27.539
Mof_C 	C 	0.8337	0.3365	0.2454	-21.657
Mof_H 	H 	0.8346	0.3715	0.2735	7.118
Mof_C 	C 	0.8695	0.3251	0.177	14.961
Mof_C 	C 	0.8707	0.2733	0.141	-20.673
Mof_H 	H 	0.8976	0.2638	0.0968	6.662
Mof_C 	C 	0.8335	0.2356	0.1686	26.391
Mof_H 	H 	0.8337	0.2003	0.1414	-25.172
Mof_C 	C 	0.9077	0.368	0.1422	-4.971
Mof_C 	C 	0.7543	0.3227	0.3545	31.517
Mof_F 	F 	0.8449	0.1348	0.1717	-4.631
Mof_F 	F 	0.7901	0.165	0.0685	-4.77
Mof_F 	F 	0.8773	0.1739	0.0492	-5.884
Mof_H 	H 	0.7719	0.3082	0.3216	-27.086
Mof_C 	C 	0.8386	0.1766	0.1112	28.887
Mof_F 	F 	0.6724	0.7029	0.8209	-5.572
Mof_F 	F 	0.7133	0.7511	0.9247	-4.999
Mof_F 	F 	0.6294	0.7684	0.8905	-6.531
Mof_O 	O 	0.6473	0.94492	0.5902	0.494
Mof_O 	O 	0.58351	0.8983	0.6677	0.463
Mof_C 	C 	0.7529	0.7954	0.7347	-13.08
Mof_C 	C 	0.7009	0.7969	0.7742	27.577
Mof_C 	C 	0.6635	0.8337	0.7454	-21.687
Mof_H 	H 	0.6285	0.8346	0.7735	7.129
Mof_C 	C 	0.6749	0.8695	0.677	14.985
Mof_C 	C 	0.7267	0.8707	0.641	-20.702
Mof_H 	H 	0.7362	0.8976	0.5968	6.674
Mof_C 	C 	0.7644	0.8335	0.6686	26.429
Mof_H 	H 	0.7997	0.8337	0.6414	-25.205
Mof_C 	C 	0.632	0.9077	0.6422	-4.979
Mof_C 	C 	0.6773	0.7543	0.8545	31.557
Mof_F 	F 	0.8652	0.8449	0.6717	-4.632
Mof_F 	F 	0.835	0.7901	0.5685	-4.769
Mof_F 	F 	0.8261	0.8773	0.5492	-5.884
Mof_H 	H 	0.6918	0.7719	0.8216	-27.121
Mof_C 	C 	0.8234	0.8386	0.6112	28.923
Mof_F 	F 	0.3276	0.2971	0.8209	-5.568
Mof_F 	F 	0.2867	0.2489	0.9247	-4.994
Mof_F 	F 	0.3706	0.2316	0.8905	-6.527
Mof_O 	O 	0.3527	0.05508	0.5902	0.484
Mof_O 	O 	0.41649	0.1017	0.6677	0.458
Mof_C 	C 	0.2471	0.2046	0.7347	-13.071
Mof_C 	C 	0.2991	0.2031	0.7742	27.557
Mof_C 	C 	0.3365	0.1663	0.7454	-21.671
Mof_H 	H 	0.3715	0.1654	0.7735	7.123
Mof_C 	C 	0.3251	0.1305	0.677	14.971
Mof_C 	C 	0.2733	0.1293	0.641	-20.686
Mof_H 	H 	0.2638	0.1024	0.5968	6.667
Mof_C 	C 	0.2356	0.1665	0.6686	26.409
Mof_H 	H 	0.2003	0.1663	0.6414	-25.188
Mof_C 	C 	0.368	0.0923	0.6422	-4.973
Mof_C 	C 	0.3227	0.2457	0.8545	31.535
Mof_F 	F 	0.1348	0.1551	0.6717	-4.634
Mof_F 	F 	0.165	0.2099	0.5685	-4.768
Mof_F 	F 	0.1739	0.1227	0.5492	-5.884
Mof_H 	H 	0.3082	0.2281	0.8216	-27.102
Mof_C 	C 	0.1766	0.1614	0.6112	28.904
Mof_Zr	Zr	-0	0.39972	-0	3.157
Mof_Zr	Zr	5.78291e-33	0.60028	-0	3.157
Mof_Zr	Zr	0.60028	0	0.5	3.159
Mof_Zr	Zr	0.39972	0	0.5	3.159
Mof_Zr	Zr	0.07219	0.5	0.12021	3.138
Mof_Zr	Zr	0.92781	0.5	0.12021	3.139
Mof_Zr	Zr	0.5	0.07219	0.62021	3.138
Mof_Zr	Zr	0.5	0.92781	0.62021	3.139
Mof_Zr	Zr	0.92781	0.5	0.87979	3.14
Mof_Zr	Zr	0.07219	0.5	0.87979	3.14
Mof_Zr	Zr	0.5	0.07219	0.37979	3.138
Mof_Zr	Zr	0.5	0.92781	0.37979	3.139
Mof_O 	O 	0.0733	0.4503	-0	-1.388
Mof_O 	O 	0.9267	0.5497	-0	-1.379
Mof_O 	O 	0.5497	0.0733	0.5	-1.377
Mof_O 	O 	0.4503	0.9267	0.5	-1.372
Mof_O 	O 	0.9267	0.4503	-0	-1.379
Mof_O 	O 	0.0733	0.5497	-0	-1.388
Mof_O 	O 	0.4503	0.0733	0.5	-1.377
Mof_O 	O 	0.5497	0.9267	0.5	-1.372
Mof_O 	O 	9.93997e-34	0.4515	0.1205	-1.422
Mof_O 	O 	9.93997e-34	0.5485	0.1205	-1.422
Mof_O 	O 	0.5485	-2.89145e-33	0.6205	-1.419
Mof_O 	O 	0.4515	-2.89145e-33	0.6205	-1.419
Mof_O 	O 	-3.80397e-33	0.4515	0.8795	-1.411
Mof_O 	O 	1.97894e-33	0.5485	0.8795	-1.411
Mof_O 	O 	0.4515	2.89145e-33	0.3795	-1.42
Mof_O 	O 	0.5485	2.89145e-33	0.3795	-1.42
_end
