data_functionalizedCrystal
_audit_creation_method	'EQeq! by Chris Wilmer'
_symmetry_space_group_name_H-M	'P1'
_symmetry_Int_Tables_number	1
_symmetry_cell_setting	triclinic
loop_
_symmetry_equiv_pos_as_xyz
  x,y,z
_cell_length_a	8.5911
_cell_length_b	8.5872
_cell_length_c	52.7295
_cell_angle_alpha	90
_cell_angle_beta	90
_cell_angle_gamma	90
loop_
_atom_site_label
_atom_site_type_symbol
_atom_site_fract_x
_atom_site_fract_y
_atom_site_fract_z
_atom_site_charge
Mof_Cu	Cu	0.40519	0.89784	0.73482	0.921
Mof_O 	O 	0.1756	0.8821	0.73205	-0.377
Mof_O 	O 	0.2014	0.6499	0.71399	-0.311
Mof_C 	C 	0.1201	0.757	0.72241	0.394
Mof_C 	C 	0.941	0.7481	0.7218	-0.336
Mof_H 	H 	0.9002	0.8253	0.7096	0.14
Mof_H 	H 	0.9084	0.6432	0.7161	0.148
Mof_C 	C 	0.8733	0.7807	0.74818	0.113
Mof_H 	H 	0.8993	0.8906	0.7528	0.035
Mof_O 	O 	0.9392	0.6821	0.7667	-0.34
Mof_H 	H 	0.9002	0.7024	0.7809	0.214
Mof_C 	C 	0.6953	0.7668	0.74677	0.288
Mof_O 	O 	0.6319	0.8817	0.73521	-0.381
Mof_O 	O 	0.6292	0.6545	0.75608	-0.35
Mof_Cu	Cu	0.18384	0.15471	0.48759	0.919
Mof_O 	O 	0.201	0.9262	0.48469	-0.386
Mof_O 	O 	0.4318	0.9526	0.46595	-0.302
Mof_C 	C 	0.3245	0.8718	0.47429	0.402
Mof_C 	C 	0.3352	0.694	0.47373	-0.347
Mof_H 	H 	0.2604	0.6529	0.4611	0.14
Mof_H 	H 	0.4412	0.663	0.4683	0.153
Mof_C 	C 	0.3008	0.6234	0.49929	0.111
Mof_H 	H 	0.1917	0.6515	0.504	0.045
Mof_O 	O 	0.4023	0.6849	0.51832	-0.343
Mof_H 	H 	0.4503	0.6116	0.5254	0.226
Mof_C 	C 	0.3107	0.4479	0.49762	0.27
Mof_O 	O 	0.1861	0.3813	0.48886	-0.368
Mof_O 	O 	0.4304	0.377	0.50361	-0.358
Mof_N 	N 	0.4171	0.9367	0.69721	-0.222
Mof_C 	C 	0.503	0.8492	0.68151	0.095
Mof_H 	H 	0.5719	0.7743	0.6885	-0.006
Mof_C 	C 	0.4948	0.8639	0.65554	-0.166
Mof_H 	H 	0.5543	0.796	0.6451	0.082
Mof_C 	C 	0.402	0.9753	0.64432	0.112
Mof_C 	C 	0.319	0.0722	0.66085	-0.157
Mof_H 	H 	0.2558	0.1539	0.6544	0.081
Mof_C 	C 	0.3301	0.0473	0.68696	0.105
Mof_H 	H 	0.2722	0.1131	0.6979	-0.004
Mof_C 	C 	0.3896	0.9857	0.61673	-0.087
Mof_H 	H 	0.4497	0.9161	0.6067	0.058
Mof_C 	C 	0.2963	0.0902	0.60465	-0.079
Mof_H 	H 	0.2377	0.1601	0.6148	0.054
Mof_C 	C 	0.2797	0.1026	0.57686	0.109
Mof_C 	C 	0.3708	0.0252	0.55939	-0.15
Mof_H 	H 	0.4525	0.9589	0.565	0.089
Mof_C 	C 	0.3436	0.044	0.5341	0.081
Mof_H 	H 	0.4075	0.9892	0.5224	0.033
Mof_C 	C 	0.146	0.2155	0.54151	0.092
Mof_H 	H 	0.0675	0.2831	0.5352	0.006
Mof_C 	C 	0.1664	0.2046	0.56747	-0.156
Mof_H 	H 	0.1046	0.2651	0.5787	0.084
Mof_N 	N 	0.2312	0.1359	0.52499	-0.213
Mof_N 	N 	0.3917	0.8626	0.77227	-0.206
Mof_C 	C 	0.4832	0.943	0.78807	0.059
Mof_H 	H 	0.5576	0.0129	0.7811	0.025
Mof_C 	C 	0.4733	0.9279	0.81419	-0.135
Mof_H 	H 	0.5397	0.9872	0.8249	0.075
Mof_C 	C 	0.3641	0.824	0.82484	0.097
Mof_C 	C 	0.2786	0.7376	0.80841	-0.138
Mof_H 	H 	0.2077	0.6628	0.8149	0.079
Mof_C 	C 	0.2916	0.7554	0.78229	0.071
Mof_H 	H 	0.2304	0.6926	0.7713	0.027
Mof_C 	C 	0.3442	0.7962	0.85186	-0.076
Mof_H 	H 	0.2675	0.7226	0.8568	0.054
Mof_C 	C 	0.4231	0.8641	0.86969	-0.085
Mof_H 	H 	0.505	0.9319	0.8647	0.053
Mof_C 	C 	0.3947	0.8435	0.8973	0.112
Mof_C 	C 	0.2819	0.748	0.90817	-0.153
Mof_H 	H 	0.2161	0.6867	0.8977	0.079
Mof_C 	C 	0.2657	0.7423	0.93461	0.082
Mof_H 	H 	0.191	0.6744	0.942	-0.002
Mof_C 	C 	0.4644	0.9218	0.93913	0.102
Mof_H 	H 	0.5287	0.9834	0.9498	-0.015
Mof_C 	C 	0.4883	0.9287	0.91304	-0.166
Mof_H 	H 	0.5688	0.992	0.9062	0.082
Mof_N 	N 	0.3556	0.8329	0.94986	-0.217
Mof_Cu	Cu	0.09481	0.10216	0.23482	0.921
Mof_O 	O 	0.3244	0.1179	0.23205	-0.377
Mof_O 	O 	0.2986	0.3501	0.21399	-0.311
Mof_C 	C 	0.3799	0.243	0.22241	0.395
Mof_C 	C 	0.559	0.2519	0.2218	-0.337
Mof_H 	H 	0.5998	0.1747	0.2096	0.139
Mof_H 	H 	0.5916	0.3568	0.2161	0.148
Mof_C 	C 	0.6267	0.2193	0.24818	0.113
Mof_H 	H 	0.6007	0.1094	0.2528	0.035
Mof_O 	O 	0.5608	0.3179	0.2667	-0.34
Mof_H 	H 	0.5998	0.2976	0.2809	0.215
Mof_C 	C 	0.8047	0.2332	0.24677	0.288
Mof_O 	O 	0.8681	0.1183	0.23521	-0.381
Mof_O 	O 	0.8708	0.3455	0.25608	-0.35
Mof_Cu	Cu	0.31616	0.84529	0.98759	0.92
Mof_O 	O 	0.299	0.0738	0.98469	-0.385
Mof_O 	O 	0.0682	0.0474	0.96595	-0.3
Mof_C 	C 	0.1755	0.1282	0.97429	0.402
Mof_C 	C 	0.1648	0.306	0.97373	-0.347
Mof_H 	H 	0.2396	0.3471	0.9611	0.14
Mof_H 	H 	0.0588	0.337	0.9683	0.154
Mof_C 	C 	0.1992	0.3766	0.99929	0.112
Mof_H 	H 	0.3083	0.3485	0.004	0.046
Mof_O 	O 	0.0977	0.3151	0.01832	-0.343
Mof_H 	H 	0.0497	0.3884	0.0254	0.226
Mof_C 	C 	0.1893	0.5521	0.99762	0.269
Mof_O 	O 	0.3139	0.6187	0.98886	-0.367
Mof_O 	O 	0.0696	0.623	0.00361	-0.356
Mof_N 	N 	0.0829	0.0633	0.19721	-0.221
Mof_C 	C 	0.997	0.1508	0.18151	0.09
Mof_H 	H 	0.9281	0.2257	0.1885	-0.005
Mof_C 	C 	0.0052	0.1361	0.15554	-0.158
Mof_H 	H 	0.9457	0.204	0.1451	0.078
Mof_C 	C 	0.098	0.0247	0.14432	0.108
Mof_C 	C 	0.181	0.9278	0.16085	-0.154
Mof_H 	H 	0.2442	0.8461	0.1544	0.081
Mof_C 	C 	0.1699	0.9527	0.18696	0.105
Mof_H 	H 	0.2278	0.8869	0.1979	-0.004
Mof_C 	C 	0.1104	0.0143	0.11673	-0.085
Mof_H 	H 	0.0503	0.0839	0.1067	0.058
Mof_C 	C 	0.2037	0.9098	0.10465	-0.079
Mof_H 	H 	0.2623	0.8399	0.1148	0.054
Mof_C 	C 	0.2203	0.8974	0.07686	0.11
Mof_C 	C 	0.1292	0.9748	0.05939	-0.15
Mof_H 	H 	0.0475	0.0411	0.065	0.09
Mof_C 	C 	0.1564	0.956	0.0341	0.082
Mof_H 	H 	0.0925	0.0108	0.0224	0.033
Mof_C 	C 	0.354	0.7845	0.04151	0.092
Mof_H 	H 	0.4325	0.7169	0.0352	0.007
Mof_C 	C 	0.3336	0.7954	0.06747	-0.156
Mof_H 	H 	0.3954	0.7349	0.0787	0.085
Mof_N 	N 	0.2688	0.8641	0.02499	-0.213
Mof_N 	N 	0.1083	0.1374	0.27227	-0.206
Mof_C 	C 	0.0168	0.057	0.28807	0.06
Mof_H 	H 	0.9424	0.9871	0.2811	0.025
Mof_C 	C 	0.0267	0.0721	0.31419	-0.137
Mof_H 	H 	0.9603	0.0128	0.3249	0.077
Mof_C 	C 	0.1359	0.176	0.32484	0.096
Mof_C 	C 	0.2214	0.2624	0.30841	-0.138
Mof_H 	H 	0.2923	0.3372	0.3149	0.079
Mof_C 	C 	0.2084	0.2446	0.28229	0.071
Mof_H 	H 	0.2696	0.3074	0.2713	0.027
Mof_C 	C 	0.1558	0.2038	0.35186	-0.073
Mof_H 	H 	0.2325	0.2774	0.3568	0.052
Mof_C 	C 	0.0769	0.1359	0.36969	-0.092
Mof_H 	H 	0.995	0.0681	0.3647	0.057
Mof_C 	C 	0.1053	0.1565	0.3973	0.116
Mof_C 	C 	0.2181	0.252	0.40817	-0.156
Mof_H 	H 	0.2839	0.3133	0.3977	0.079
Mof_C 	C 	0.2343	0.2577	0.43461	0.082
Mof_H 	H 	0.309	0.3256	0.442	-0.003
Mof_C 	C 	0.0356	0.0782	0.43913	0.097
Mof_H 	H 	0.9713	0.0166	0.4498	-0.011
Mof_C 	C 	0.0117	0.0713	0.41304	-0.171
Mof_H 	H 	0.9312	0.008	0.4062	0.086
Mof_N 	N 	0.1444	0.1671	0.44986	-0.217
Mof_Cu	Cu	0.59481	0.39784	0.76518	0.923
Mof_O 	O 	0.8244	0.3821	0.76795	-0.373
Mof_O 	O 	0.7986	0.1499	0.78601	-0.307
Mof_C 	C 	0.8799	0.257	0.77759	0.395
Mof_C 	C 	0.059	0.2481	0.7782	-0.338
Mof_H 	H 	0.0998	0.3253	0.7904	0.142
Mof_H 	H 	0.0916	0.1432	0.7839	0.152
Mof_C 	C 	0.1267	0.2807	0.75182	0.113
Mof_H 	H 	0.1007	0.3906	0.7472	0.037
Mof_O 	O 	0.0608	0.1821	0.7333	-0.337
Mof_H 	H 	0.0998	0.2024	0.7191	0.215
Mof_C 	C 	0.3047	0.2668	0.75323	0.288
Mof_O 	O 	0.3681	0.3817	0.76479	-0.378
Mof_O 	O 	0.3708	0.1545	0.74392	-0.347
Mof_Cu	Cu	0.81616	0.65471	0.01241	0.921
Mof_O 	O 	0.799	0.4262	0.01531	-0.391
Mof_O 	O 	0.5682	0.4526	0.03405	-0.308
Mof_C 	C 	0.6755	0.3718	0.02571	0.405
Mof_C 	C 	0.6648	0.194	0.02627	-0.353
Mof_H 	H 	0.7396	0.1529	0.0389	0.142
Mof_H 	H 	0.5588	0.163	0.0317	0.155
Mof_C 	C 	0.6992	0.1234	0.00071	0.123
Mof_H 	H 	0.8083	0.1515	0.996	0.043
Mof_O 	O 	0.5977	0.1849	0.98168	-0.346
Mof_H 	H 	0.5497	0.1116	0.9746	0.231
Mof_C 	C 	0.6893	0.9479	0.00238	0.259
Mof_O 	O 	0.8139	0.8813	0.01114	-0.368
Mof_O 	O 	0.5696	0.877	0.99639	-0.357
Mof_N 	N 	0.5829	0.4367	0.80279	-0.218
Mof_C 	C 	0.497	0.3492	0.81849	0.098
Mof_H 	H 	0.4281	0.2743	0.8115	-0.004
Mof_C 	C 	0.5052	0.3639	0.84446	-0.167
Mof_H 	H 	0.4457	0.296	0.8549	0.085
Mof_C 	C 	0.598	0.4753	0.85568	0.118
Mof_C 	C 	0.681	0.5722	0.83915	-0.159
Mof_H 	H 	0.7442	0.6539	0.8456	0.082
Mof_C 	C 	0.6699	0.5473	0.81304	0.099
Mof_H 	H 	0.7278	0.6131	0.8021	-0.004
Mof_C 	C 	0.6104	0.4857	0.88327	-0.09
Mof_H 	H 	0.5503	0.4161	0.8933	0.06
Mof_C 	C 	0.7037	0.5902	0.89535	-0.076
Mof_H 	H 	0.7623	0.6601	0.8852	0.052
Mof_C 	C 	0.7203	0.6026	0.92314	0.108
Mof_C 	C 	0.6292	0.5252	0.94061	-0.148
Mof_H 	H 	0.5475	0.4589	0.935	0.087
Mof_C 	C 	0.6564	0.544	0.9659	0.093
Mof_H 	H 	0.5925	0.4892	0.9776	0.024
Mof_C 	C 	0.854	0.7155	0.95849	0.092
Mof_H 	H 	0.9325	0.7831	0.9648	0.004
Mof_C 	C 	0.8336	0.7046	0.93253	-0.156
Mof_H 	H 	0.8954	0.7651	0.9213	0.083
Mof_N 	N 	0.7688	0.6359	0.97501	-0.214
Mof_N 	N 	0.6083	0.3626	0.72773	-0.21
Mof_C 	C 	0.5168	0.443	0.71193	0.087
Mof_H 	H 	0.4424	0.5129	0.7189	0.008
Mof_C 	C 	0.5267	0.4279	0.68581	-0.149
Mof_H 	H 	0.4603	0.4872	0.6751	0.084
Mof_C 	C 	0.6359	0.324	0.67516	0.106
Mof_C 	C 	0.7214	0.2376	0.69159	-0.144
Mof_H 	H 	0.7923	0.1628	0.6851	0.082
Mof_C 	C 	0.7084	0.2554	0.71771	0.076
Mof_H 	H 	0.7696	0.1926	0.7287	0.027
Mof_C 	C 	0.6558	0.2962	0.64814	-0.08
Mof_H 	H 	0.7325	0.2226	0.6432	0.056
Mof_C 	C 	0.5769	0.3641	0.63031	-0.082
Mof_H 	H 	0.495	0.4319	0.6353	0.054
Mof_C 	C 	0.6053	0.3435	0.6027	0.113
Mof_C 	C 	0.7181	0.248	0.59183	-0.153
Mof_H 	H 	0.7839	0.1867	0.6023	0.079
Mof_C 	C 	0.7343	0.2423	0.56539	0.082
Mof_H 	H 	0.809	0.1744	0.558	-0.003
Mof_C 	C 	0.5356	0.4218	0.56087	0.103
Mof_H 	H 	0.4713	0.4834	0.5502	-0.011
Mof_C 	C 	0.5117	0.4287	0.58696	-0.165
Mof_H 	H 	0.4312	0.492	0.5938	0.085
Mof_N 	N 	0.6444	0.3329	0.55014	-0.216
Mof_Cu	Cu	0.90519	0.60216	0.26518	0.923
Mof_O 	O 	0.6756	0.6179	0.26795	-0.373
Mof_O 	O 	0.7014	0.8501	0.28601	-0.307
Mof_C 	C 	0.6201	0.743	0.27759	0.395
Mof_C 	C 	0.441	0.7519	0.2782	-0.338
Mof_H 	H 	0.4002	0.6747	0.2904	0.142
Mof_H 	H 	0.4084	0.8568	0.2839	0.152
Mof_C 	C 	0.3733	0.7193	0.25182	0.114
Mof_H 	H 	0.3993	0.6094	0.2472	0.037
Mof_O 	O 	0.4392	0.8179	0.2333	-0.337
Mof_H 	H 	0.4002	0.7976	0.2191	0.216
Mof_C 	C 	0.1953	0.7332	0.25323	0.288
Mof_O 	O 	0.1319	0.6183	0.26479	-0.378
Mof_O 	O 	0.1292	0.8455	0.24392	-0.346
Mof_Cu	Cu	0.68384	0.34529	0.51241	0.922
Mof_O 	O 	0.701	0.5738	0.51531	-0.39
Mof_O 	O 	0.9318	0.5474	0.53405	-0.306
Mof_C 	C 	0.8245	0.6282	0.52571	0.404
Mof_C 	C 	0.8352	0.806	0.52627	-0.353
Mof_H 	H 	0.7604	0.8471	0.5389	0.142
Mof_H 	H 	0.9412	0.837	0.5317	0.156
Mof_C 	C 	0.8008	0.8766	0.50071	0.123
Mof_H 	H 	0.6917	0.8485	0.496	0.044
Mof_O 	O 	0.9023	0.8151	0.48168	-0.346
Mof_H 	H 	0.9503	0.8884	0.4746	0.231
Mof_C 	C 	0.8107	0.0521	0.50238	0.259
Mof_O 	O 	0.6861	0.1187	0.51114	-0.367
Mof_O 	O 	0.9304	0.123	0.49639	-0.355
Mof_N 	N 	0.9171	0.5633	0.30279	-0.217
Mof_C 	C 	0.003	0.6508	0.31849	0.094
Mof_H 	H 	0.0719	0.7257	0.3115	-0.003
Mof_C 	C 	0.9948	0.6361	0.34446	-0.161
Mof_H 	H 	0.0543	0.704	0.3549	0.083
Mof_C 	C 	0.902	0.5247	0.35568	0.116
Mof_C 	C 	0.819	0.4278	0.33915	-0.158
Mof_H 	H 	0.7558	0.3461	0.3456	0.081
Mof_C 	C 	0.8301	0.4527	0.31304	0.099
Mof_H 	H 	0.7722	0.3869	0.3021	-0.003
Mof_C 	C 	0.8896	0.5143	0.38327	-0.088
Mof_H 	H 	0.9497	0.5839	0.3933	0.06
Mof_C 	C 	0.7963	0.4098	0.39535	-0.076
Mof_H 	H 	0.7377	0.3399	0.3852	0.053
Mof_C 	C 	0.7797	0.3974	0.42314	0.109
Mof_C 	C 	0.8708	0.4748	0.44061	-0.148
Mof_H 	H 	0.9525	0.5411	0.435	0.088
Mof_C 	C 	0.8436	0.456	0.4659	0.094
Mof_H 	H 	0.9075	0.5108	0.4776	0.025
Mof_C 	C 	0.646	0.2845	0.45849	0.093
Mof_H 	H 	0.5675	0.2169	0.4648	0.005
Mof_C 	C 	0.6664	0.2954	0.43253	-0.156
Mof_H 	H 	0.6046	0.2349	0.4213	0.084
Mof_N 	N 	0.7312	0.3641	0.47501	-0.213
Mof_N 	N 	0.8917	0.6374	0.22773	-0.21
Mof_C 	C 	0.9832	0.557	0.21193	0.086
Mof_H 	H 	0.0576	0.4871	0.2189	0.009
Mof_C 	C 	0.9733	0.5721	0.18581	-0.15
Mof_H 	H 	0.0397	0.5128	0.1751	0.085
Mof_C 	C 	0.8641	0.676	0.17516	0.105
Mof_C 	C 	0.7786	0.7624	0.19159	-0.143
Mof_H 	H 	0.7077	0.8372	0.1851	0.082
Mof_C 	C 	0.7916	0.7446	0.21771	0.076
Mof_H 	H 	0.7304	0.8074	0.2287	0.027
Mof_C 	C 	0.8442	0.7038	0.14814	-0.076
Mof_H 	H 	0.7675	0.7774	0.1432	0.054
Mof_C 	C 	0.9231	0.6359	0.13031	-0.089
Mof_H 	H 	0.005	0.5681	0.1353	0.058
Mof_C 	C 	0.8947	0.6565	0.1027	0.116
Mof_C 	C 	0.7819	0.752	0.09183	-0.155
Mof_H 	H 	0.7161	0.8133	0.1023	0.079
Mof_C 	C 	0.7657	0.7577	0.06539	0.083
Mof_H 	H 	0.691	0.8256	0.058	-0.004
Mof_C 	C 	0.9644	0.5782	0.06087	0.099
Mof_H 	H 	0.0287	0.5166	0.0502	-0.008
Mof_C 	C 	0.9883	0.5713	0.08696	-0.17
Mof_H 	H 	0.0688	0.508	0.0938	0.088
Mof_N 	N 	0.8556	0.6671	0.05014	-0.216
_end
