data_functionalizedCrystal
_audit_creation_method	'EQeq! by Chris Wilmer'
_symmetry_space_group_name_H-M	'P1'
_symmetry_Int_Tables_number	1
_symmetry_cell_setting	triclinic
loop_
_symmetry_equiv_pos_as_xyz
  x,y,z
_cell_length_a	10.0669
_cell_length_b	10.3562
_cell_length_c	10.538
_cell_angle_alpha	103.158
_cell_angle_beta	115.524
_cell_angle_gamma	92.546
loop_
_atom_site_label
_atom_site_type_symbol
_atom_site_fract_x
_atom_site_fract_y
_atom_site_fract_z
_atom_site_charge
Mof_Lu	Lu	0.47493	0.23375	0.00334	3.178
Mof_O 	O 	0.3724	0.4026	0.098	-0.639
Mof_O 	O 	0.6788	0.4123	0.1378	-0.631
Mof_O 	O 	0.3942	0.0885	0.0864	-0.766
Mof_O 	O 	0.2232	0.2614	0.8983	-0.638
Mof_C 	C 	0.1163	0.4326	0.9996	-0.126
Mof_O 	O 	0.3304	0.8632	0.0009	-0.753
Mof_C 	C 	0.7174	0.3748	0.2481	0.361
Mof_O 	O 	0.6379	0.2755	0.2506	-0.582
Mof_O 	O 	0.3619	0.0581	0.7856	-0.628
Mof_H 	H 	0.3148	0.9932	0.8177	0.136
Mof_H 	H 	0.4705	0.0508	0.8241	0.064
Mof_C 	C 	0.2963	0.9776	0.0356	0.586
Mof_C 	C 	0.1179	0.1011	0.0908	-0.039
Mof_H 	H 	0.1978	0.1696	0.1537	0.034
Mof_C 	C 	0.1434	0.9901	0.0169	-0.192
Mof_C 	C 	0.9666	0.3742	0.9035	0.101
Mof_C 	C 	0.8638	0.4408	0.381	-0.109
Mof_C 	C 	0.1479	0.5585	0.088	-0.04
Mof_H 	H 	0.2466	0.6008	0.1436	0.024
Mof_C 	C 	0.0226	0.8816	0.9225	0.13
Mof_C 	C 	0.9475	0.5414	0.3723	-0.086
Mof_H 	H 	0.9133	0.5708	0.2883	0.069
Mof_C 	C 	0.9127	0.3989	0.5075	0.126
Mof_N 	N 	0.0379	0.7658	0.841	-0.324
Mof_H 	H 	0.9611	0.7053	0.7828	0.152
Mof_H 	H 	0.1244	0.7533	0.8479	0.167
Mof_N 	N 	0.93	0.238	0.802	-0.305
Mof_H 	H 	0.8379	0.2004	0.7488	0.129
Mof_H 	H 	0.9997	0.1961	0.7965	0.17
Mof_C 	C 	0.237	0.3604	0.993	0.415
Mof_N 	N 	0.8255	0.2982	0.5232	-0.32
Mof_H 	H 	0.7391	0.2608	0.4528	0.184
Mof_H 	H 	0.8589	0.2745	0.6031	0.151
Mof_Lu	Lu	0.52507	0.76625	0.99666	3.179
Mof_O 	O 	0.6276	0.5974	0.902	-0.638
Mof_O 	O 	0.3212	0.5877	0.8622	-0.631
Mof_O 	O 	0.6058	0.9115	0.9136	-0.766
Mof_O 	O 	0.7768	0.7386	0.1017	-0.638
Mof_C 	C 	0.8837	0.5674	0.0004	-0.126
Mof_O 	O 	0.6696	0.1368	0.9991	-0.753
Mof_C 	C 	0.2826	0.6252	0.7519	0.361
Mof_O 	O 	0.3621	0.7245	0.7494	-0.582
Mof_O 	O 	0.6381	0.9419	0.2144	-0.628
Mof_H 	H 	0.6852	0.0068	0.1823	0.136
Mof_H 	H 	0.5295	0.9492	0.1759	0.064
Mof_C 	C 	0.7037	0.0224	0.9644	0.586
Mof_C 	C 	0.8821	0.8989	0.9092	-0.039
Mof_H 	H 	0.8022	0.8304	0.8463	0.034
Mof_C 	C 	0.8566	0.0099	0.9831	-0.192
Mof_C 	C 	0.0334	0.6258	0.0965	0.101
Mof_C 	C 	0.1362	0.5592	0.619	-0.109
Mof_C 	C 	0.8521	0.4415	0.912	-0.04
Mof_H 	H 	0.7534	0.3992	0.8564	0.024
Mof_C 	C 	0.9774	0.1184	0.0775	0.13
Mof_C 	C 	0.0525	0.4586	0.6277	-0.086
Mof_H 	H 	0.0867	0.4292	0.7117	0.069
Mof_C 	C 	0.0873	0.6011	0.4925	0.126
Mof_N 	N 	0.9621	0.2342	0.159	-0.324
Mof_H 	H 	0.0389	0.2947	0.2172	0.152
Mof_H 	H 	0.8756	0.2467	0.1521	0.167
Mof_N 	N 	0.07	0.762	0.198	-0.305
Mof_H 	H 	0.1621	0.7996	0.2512	0.129
Mof_H 	H 	0.0003	0.8039	0.2035	0.17
Mof_C 	C 	0.763	0.6396	0.007	0.415
Mof_N 	N 	0.1745	0.7018	0.4768	-0.32
Mof_H 	H 	0.2609	0.7392	0.5472	0.184
Mof_H 	H 	0.1411	0.7255	0.3969	0.151
_end
