data_functionalizedCrystal
_audit_creation_method	'EQeq! by Chris Wilmer'
_symmetry_space_group_name_H-M	'P1'
_symmetry_Int_Tables_number	1
_symmetry_cell_setting	triclinic
loop_
_symmetry_equiv_pos_as_xyz
  x,y,z
_cell_length_a	9.6357
_cell_length_b	13.9203
_cell_length_c	17.2875
_cell_angle_alpha	98.1574
_cell_angle_beta	90.2489
_cell_angle_gamma	90.8938
loop_
_atom_site_label
_atom_site_type_symbol
_atom_site_fract_x
_atom_site_fract_y
_atom_site_fract_z
_atom_site_charge
Mof_Pr	Pr	0.27	0.3984	0.51308	2.487
Mof_Pr	Pr	0.73	0.6016	0.48692	2.487
Mof_H 	H 	0.1089	0.2621	0.0424	0.059
Mof_H 	H 	0.2335	0.2501	0.9157	0.059
Mof_H 	H 	0.5367	0.975	0.7501	0.061
Mof_H 	H 	0.5815	0.803	0.7584	0.061
Mof_H 	H 	0.427	0.552	0.9482	0.056
Mof_H 	H 	0.2588	0.5563	0.0584	0.056
Mof_H 	H 	0.972	0.8377	0.2278	0.065
Mof_H 	H 	0.9656	0.0166	0.234	0.065
Mof_H 	H 	0.34	0.9045	0.937	0.14
Mof_H 	H 	0.2184	0.9146	0.0609	0.141
Mof_H 	H 	0.5165	0.2317	0.8846	0.058
Mof_H 	H 	0.5441	0.3491	0.8012	0.057
Mof_H 	H 	0.4367	0.3281	0.6789	-0.011
Mof_H 	H 	0.2782	0.0691	0.7213	0.05
Mof_H 	H 	0.2121	0.0968	0.5338	0.273
Mof_H 	H 	0.6905	0.6403	0.9154	0.05
Mof_H 	H 	0.8304	0.5364	0.8324	0.054
Mof_H 	H 	0.7614	0.4868	0.7029	0.022
Mof_H 	H 	0.4026	0.6335	0.7433	0.029
Mof_H 	H 	0.9606	0.604	0.0558	0.053
Mof_H 	H 	0.8097	0.5147	0.1239	0.044
Mof_H 	H 	0.8194	0.5303	0.2602	0.027
Mof_H 	H 	0.1585	0.7068	0.2589	0.055
Mof_H 	H 	0.891	0.2073	0.098	0.073
Mof_H 	H 	0.8053	0.3368	0.1833	0.033
Mof_H 	H 	0.9105	0.3839	0.3051	0.046
Mof_H 	H 	0.1842	0.1655	0.2584	0.067
Mof_H 	H 	0.8911	0.7379	0.9576	0.059
Mof_H 	H 	0.7665	0.7499	0.0843	0.059
Mof_H 	H 	0.4633	0.025	0.2499	0.061
Mof_H 	H 	0.4185	0.197	0.2416	0.061
Mof_H 	H 	0.573	0.448	0.0518	0.056
Mof_H 	H 	0.7412	0.4437	0.9416	0.056
Mof_H 	H 	0.028	0.1623	0.7722	0.065
Mof_H 	H 	0.0344	0.9834	0.766	0.065
Mof_H 	H 	0.66	0.0955	0.063	0.14
Mof_H 	H 	0.7816	0.0854	0.9391	0.141
Mof_H 	H 	0.4835	0.7683	0.1154	0.058
Mof_H 	H 	0.4559	0.6509	0.1988	0.057
Mof_H 	H 	0.5633	0.6719	0.3211	-0.011
Mof_H 	H 	0.7218	0.9309	0.2787	0.05
Mof_H 	H 	0.7879	0.9032	0.4662	0.273
Mof_H 	H 	0.3095	0.3597	0.0846	0.05
Mof_H 	H 	0.1696	0.4636	0.1676	0.054
Mof_H 	H 	0.2386	0.5132	0.2971	0.022
Mof_H 	H 	0.5974	0.3665	0.2567	0.029
Mof_H 	H 	0.0394	0.396	0.9442	0.053
Mof_H 	H 	0.1903	0.4853	0.8761	0.044
Mof_H 	H 	0.1806	0.4697	0.7398	0.027
Mof_H 	H 	0.8415	0.2932	0.7411	0.055
Mof_H 	H 	0.109	0.7927	0.902	0.073
Mof_H 	H 	0.1947	0.6632	0.8167	0.033
Mof_H 	H 	0.0895	0.6161	0.6949	0.046
Mof_H 	H 	0.8158	0.8345	0.7416	0.067
Mof_C 	C 	0.1701	0.1139	0.0443	0.107
Mof_C 	C 	0.1564	0.2072	0.0169	-0.079
Mof_C 	C 	0.2243	0.2009	0.9483	-0.068
Mof_C 	C 	0.2812	0.1026	0.934	0.098
Mof_C 	C 	0.3606	0.0699	0.8689	-0.088
Mof_C 	C 	0.4139	0.9757	0.8523	0.116
Mof_C 	C 	0.5019	0.9392	0.7889	-0.077
Mof_C 	C 	0.527	0.8451	0.7937	-0.08
Mof_C 	C 	0.4578	0.8194	0.861	0.117
Mof_C 	C 	0.4554	0.7282	0.886	-0.091
Mof_C 	C 	0.383	0.7035	0.9511	0.092
Mof_C 	C 	0.3771	0.6067	0.9719	-0.078
Mof_C 	C 	0.286	0.6091	0.0323	-0.08
Mof_C 	C 	0.2394	0.7077	0.0485	0.093
Mof_C 	C 	0.1466	0.7404	0.1089	-0.095
Mof_C 	C 	0.113	0.8382	0.1325	0.116
Mof_C 	C 	0.0209	0.8752	0.1947	-0.076
Mof_C 	C 	0.0163	0.9733	0.1976	-0.083
Mof_C 	C 	0.101	0.9998	0.1362	0.126
Mof_C 	C 	0.1099	0.0926	0.1142	-0.105
Mof_C 	C 	0.3909	0.1398	0.812	0.028
Mof_C 	C 	0.4722	0.2227	0.8348	-0.052
Mof_C 	C 	0.489	0.2926	0.785	-0.076
Mof_C 	C 	0.4259	0.28	0.7123	0.054
Mof_C 	C 	0.3463	0.1965	0.6881	-0.159
Mof_C 	C 	0.3308	0.1266	0.7382	-0.007
Mof_C 	C 	0.2797	0.183	0.6084	0.516
Mof_C 	C 	0.5356	0.6516	0.8368	0.026
Mof_C 	C 	0.6613	0.6195	0.8631	-0.055
Mof_C 	C 	0.7447	0.5574	0.8137	-0.066
Mof_C 	C 	0.7027	0.5264	0.7376	0.033
Mof_C 	C 	0.5736	0.5535	0.7119	-0.157
Mof_C 	C 	0.4906	0.6155	0.7611	-0.009
Mof_C 	C 	0.5266	0.5171	0.63	0.495
Mof_C 	C 	0.0697	0.6697	0.1509	0.043
Mof_C 	C 	0.9681	0.609	0.1111	-0.072
Mof_C 	C 	0.878	0.5561	0.1517	-0.047
Mof_C 	C 	0.8862	0.5627	0.2324	0.007
Mof_C 	C 	0.9932	0.6172	0.2722	-0.105
Mof_C 	C 	0.085	0.6701	0.2315	-0.045
Mof_C 	C 	0.0086	0.6209	0.3595	0.424
Mof_C 	C 	0.0479	0.1735	0.1682	0.07
Mof_C 	C 	0.9342	0.2253	0.1476	-0.1
Mof_C 	C 	0.8832	0.3026	0.1983	-0.009
Mof_C 	C 	0.9451	0.3303	0.2709	-0.04
Mof_C 	C 	0.0576	0.2797	0.2934	-0.043
Mof_C 	C 	0.1082	0.2009	0.2425	-0.075
Mof_C 	C 	0.1286	0.3121	0.3697	0.308
Mof_C 	C 	0.8299	0.8861	0.9557	0.107
Mof_C 	C 	0.8436	0.7928	0.9831	-0.079
Mof_C 	C 	0.7757	0.7991	0.0517	-0.068
Mof_C 	C 	0.7188	0.8974	0.066	0.098
Mof_C 	C 	0.6394	0.9301	0.1311	-0.088
Mof_C 	C 	0.5861	0.0243	0.1477	0.116
Mof_C 	C 	0.4981	0.0608	0.2111	-0.077
Mof_C 	C 	0.473	0.1549	0.2063	-0.08
Mof_C 	C 	0.5422	0.1806	0.139	0.117
Mof_C 	C 	0.5446	0.2718	0.114	-0.091
Mof_C 	C 	0.617	0.2965	0.0489	0.092
Mof_C 	C 	0.6229	0.3933	0.0281	-0.078
Mof_C 	C 	0.714	0.3909	0.9677	-0.08
Mof_C 	C 	0.7606	0.2923	0.9515	0.093
Mof_C 	C 	0.8534	0.2596	0.8911	-0.095
Mof_C 	C 	0.887	0.1618	0.8675	0.116
Mof_C 	C 	0.9791	0.1248	0.8053	-0.076
Mof_C 	C 	0.9837	0.0267	0.8024	-0.083
Mof_C 	C 	0.899	0.0002	0.8638	0.126
Mof_C 	C 	0.8901	0.9074	0.8858	-0.105
Mof_C 	C 	0.6091	0.8602	0.188	0.028
Mof_C 	C 	0.5278	0.7773	0.1652	-0.052
Mof_C 	C 	0.511	0.7074	0.215	-0.076
Mof_C 	C 	0.5741	0.72	0.2877	0.054
Mof_C 	C 	0.6537	0.8035	0.3119	-0.159
Mof_C 	C 	0.6692	0.8734	0.2618	-0.007
Mof_C 	C 	0.7203	0.817	0.3916	0.516
Mof_C 	C 	0.4644	0.3484	0.1632	0.026
Mof_C 	C 	0.3387	0.3805	0.1369	-0.055
Mof_C 	C 	0.2553	0.4426	0.1863	-0.066
Mof_C 	C 	0.2973	0.4736	0.2624	0.033
Mof_C 	C 	0.4264	0.4465	0.2881	-0.157
Mof_C 	C 	0.5094	0.3845	0.2389	-0.009
Mof_C 	C 	0.4734	0.4829	0.37	0.495
Mof_C 	C 	0.9303	0.3303	0.8491	0.043
Mof_C 	C 	0.0319	0.391	0.8889	-0.072
Mof_C 	C 	0.122	0.4439	0.8483	-0.047
Mof_C 	C 	0.1138	0.4373	0.7676	0.007
Mof_C 	C 	0.0068	0.3828	0.7278	-0.105
Mof_C 	C 	0.915	0.3299	0.7685	-0.045
Mof_C 	C 	0.9914	0.3791	0.6405	0.424
Mof_C 	C 	0.9521	0.8265	0.8318	0.07
Mof_C 	C 	0.0658	0.7747	0.8524	-0.1
Mof_C 	C 	0.1168	0.6974	0.8017	-0.009
Mof_C 	C 	0.0549	0.6697	0.7291	-0.04
Mof_C 	C 	0.9424	0.7203	0.7066	-0.043
Mof_C 	C 	0.8918	0.7991	0.7575	-0.075
Mof_C 	C 	0.8714	0.6879	0.6303	0.308
Mof_N 	N 	0.2432	0.0512	0.99294	-0.139
Mof_N 	N 	0.3906	0.9009	0.89453	-0.216
Mof_N 	N 	0.3004	0.7651	0.99932	-0.143
Mof_N 	N 	0.1594	0.9171	0.0998	-0.218
Mof_N 	N 	0.7568	0.9488	0.00706	-0.139
Mof_N 	N 	0.6094	0.0991	0.10547	-0.216
Mof_N 	N 	0.6996	0.2349	0.00068	-0.143
Mof_N 	N 	0.8406	0.0829	0.9002	-0.218
Mof_O 	O 	0.2334	0.0983	0.5811	-0.53
Mof_O 	O 	0.2795	0.2526	0.57053	-0.625
Mof_O 	O 	0.4004	0.4943	0.61909	-0.605
Mof_O 	O 	0.6165	0.5101	0.57668	-0.649
Mof_O 	O 	0.9119	0.5846	0.39509	-0.58
Mof_O 	O 	0.1178	0.6576	0.39152	-0.319
Mof_O 	O 	0.0757	0.3806	0.41593	-0.496
Mof_O 	O 	0.2396	0.2727	0.38773	-0.462
Mof_O 	O 	0.7666	0.9017	0.4189	-0.53
Mof_O 	O 	0.7205	0.7474	0.42947	-0.625
Mof_O 	O 	0.5996	0.5057	0.38091	-0.605
Mof_O 	O 	0.3835	0.4899	0.42332	-0.649
Mof_O 	O 	0.0881	0.4154	0.60491	-0.58
Mof_O 	O 	0.8822	0.3424	0.60848	-0.319
Mof_O 	O 	0.9243	0.6194	0.58407	-0.496
Mof_O 	O 	0.7604	0.7273	0.61227	-0.462
_end
