data_functionalizedCrystal
_audit_creation_method	'EQeq! by Chris Wilmer'
_symmetry_space_group_name_H-M	'P1'
_symmetry_Int_Tables_number	1
_symmetry_cell_setting	triclinic
loop_
_symmetry_equiv_pos_as_xyz
  x,y,z
_cell_length_a	10.647
_cell_length_b	11.472
_cell_length_c	11.764
_cell_angle_alpha	104.778
_cell_angle_beta	106.935
_cell_angle_gamma	95.964
loop_
_atom_site_label
_atom_site_type_symbol
_atom_site_fract_x
_atom_site_fract_y
_atom_site_fract_z
_atom_site_charge
Mof_Eu	Eu	0.8995	0.43986	0.12103	2.297
Mof_O 	O 	0.74365	0.48339	0.22255	-0.553
Mof_O 	O 	0.80361	0.5152	0.42781	-0.317
Mof_O 	O 	0.0514	0.74347	0.80611	-0.525
Mof_O 	O 	0.1756	0.91506	0.9524	-0.418
Mof_H 	H 	0.2316	0.8636	0.9788	0.17
Mof_O 	O 	0.90732	0.28804	0.94236	-0.569
Mof_O 	O 	0.03835	0.34681	0.84042	-0.589
Mof_O 	O 	0.12036	0.45979	0.12928	-0.621
Mof_O 	O 	0.26526	0.51221	0.04001	-0.546
Mof_C 	C 	0.7198	0.4784	0.3213	0.422
Mof_C 	C 	0.5766	0.4281	0.3043	-0.194
Mof_C 	C 	0.5413	0.3517	0.3713	0.118
Mof_C 	C 	0.4064	0.3197	0.357	-0.191
Mof_H 	H 	0.3823	0.2707	0.4021	0.103
Mof_C 	C 	0.3074	0.3585	0.278	0.143
Mof_H 	H 	0.2185	0.3377	0.2723	-0.014
Mof_C 	C 	0.3413	0.4288	0.2069	-0.237
Mof_C 	C 	0.4754	0.462	0.2207	0.138
Mof_H 	H 	0.4984	0.5083	0.1728	0
Mof_C 	C 	0.2348	0.4697	0.1193	0.541
Mof_C 	C 	0.6389	0.297	0.451	-0.018
Mof_C 	C 	0.7273	0.2321	0.4064	-0.033
Mof_H 	H 	0.7351	0.2325	0.3298	0.033
Mof_C 	C 	0.8037	0.1668	0.4754	-0.051
Mof_H 	H 	0.8597	0.1216	0.4431	0.049
Mof_C 	C 	0.7974	0.1683	0.5926	-0.027
Mof_C 	C 	0.7148	0.2382	0.6396	-0.035
Mof_H 	H 	0.7129	0.244	0.7193	0.037
Mof_C 	C 	0.6348	0.2995	0.5685	-0.053
Mof_H 	H 	0.5774	0.3432	0.6003	0.051
Mof_C 	C 	0.8717	0.0905	0.662	0.128
Mof_C 	C 	0.8611	0.9661	0.6005	-0.188
Mof_H 	H 	0.8091	0.9342	0.5169	0.097
Mof_C 	C 	0.9259	0.8898	0.6614	0.12
Mof_H 	H 	0.9168	0.8074	0.619	-0.001
Mof_C 	C 	0.0047	0.9368	0.7859	-0.205
Mof_C 	C 	0.0139	0.0592	0.8491	0.141
Mof_H 	H 	0.0645	0.0901	0.9332	-0
Mof_C 	C 	0.9487	0.1363	0.7885	-0.214
Mof_C 	C 	0.9658	0.26874	0.8628	0.555
Mof_C 	C 	0.0781	0.8553	0.8489	0.455
Mof_Eu	Eu	0.1005	0.56014	0.87897	2.298
Mof_O 	O 	0.25635	0.51661	0.77745	-0.552
Mof_O 	O 	0.19639	0.4848	0.57219	-0.317
Mof_O 	O 	0.9486	0.25653	0.19389	-0.525
Mof_O 	O 	0.8244	0.08494	0.0476	-0.418
Mof_H 	H 	0.7684	0.1364	0.0212	0.17
Mof_O 	O 	0.09268	0.71196	0.05764	-0.569
Mof_O 	O 	0.96165	0.65319	0.15958	-0.589
Mof_O 	O 	0.87964	0.54021	0.87072	-0.621
Mof_O 	O 	0.73474	0.48779	0.95999	-0.546
Mof_C 	C 	0.2802	0.5216	0.6787	0.422
Mof_C 	C 	0.4234	0.5719	0.6957	-0.194
Mof_C 	C 	0.4587	0.6483	0.6287	0.118
Mof_C 	C 	0.5936	0.6803	0.643	-0.191
Mof_H 	H 	0.6177	0.7293	0.5979	0.103
Mof_C 	C 	0.6926	0.6415	0.722	0.143
Mof_H 	H 	0.7815	0.6623	0.7277	-0.014
Mof_C 	C 	0.6587	0.5712	0.7931	-0.237
Mof_C 	C 	0.5246	0.538	0.7793	0.138
Mof_H 	H 	0.5016	0.4917	0.8272	0
Mof_C 	C 	0.7652	0.5303	0.8807	0.541
Mof_C 	C 	0.3611	0.703	0.549	-0.018
Mof_C 	C 	0.2727	0.7679	0.5936	-0.033
Mof_H 	H 	0.2649	0.7675	0.6702	0.033
Mof_C 	C 	0.1963	0.8332	0.5246	-0.051
Mof_H 	H 	0.1403	0.8784	0.5569	0.049
Mof_C 	C 	0.2026	0.8317	0.4074	-0.027
Mof_C 	C 	0.2852	0.7618	0.3604	-0.035
Mof_H 	H 	0.2871	0.756	0.2807	0.037
Mof_C 	C 	0.3652	0.7005	0.4315	-0.053
Mof_H 	H 	0.4226	0.6568	0.3997	0.051
Mof_C 	C 	0.1283	0.9095	0.338	0.128
Mof_C 	C 	0.1389	0.0339	0.3995	-0.188
Mof_H 	H 	0.1909	0.0658	0.4831	0.097
Mof_C 	C 	0.0741	0.1102	0.3386	0.12
Mof_H 	H 	0.0832	0.1926	0.381	-0.001
Mof_C 	C 	0.9953	0.0632	0.2141	-0.205
Mof_C 	C 	0.9861	0.9408	0.1509	0.141
Mof_H 	H 	0.9355	0.9099	0.0668	-0
Mof_C 	C 	0.0513	0.8637	0.2115	-0.214
Mof_C 	C 	0.0342	0.73126	0.1372	0.555
Mof_C 	C 	0.9219	0.1447	0.1511	0.455
_end
