data_functionalizedCrystal
_audit_creation_method	'EQeq! by Chris Wilmer'
_symmetry_space_group_name_H-M	'P1'
_symmetry_Int_Tables_number	1
_symmetry_cell_setting	triclinic
loop_
_symmetry_equiv_pos_as_xyz
  x,y,z
_cell_length_a	9.8401
_cell_length_b	11.0617
_cell_length_c	13.5307
_cell_angle_alpha	66.181
_cell_angle_beta	85.823
_cell_angle_gamma	69.89
loop_
_atom_site_label
_atom_site_type_symbol
_atom_site_fract_x
_atom_site_fract_y
_atom_site_fract_z
_atom_site_charge
Mof_Zn	Zn	0.11134	0.47295	0.2042	1.213
Mof_Zn	Zn	0.16858	0.4459	0.98252	1.222
Mof_Zn	Zn	0.88866	0.52705	0.7958	1.213
Mof_Zn	Zn	0.83142	0.5541	0.01748	1.222
Mof_H 	H 	0.1228	0.9063	0.1039	0.059
Mof_H 	H 	0.3271	0.1356	0.8713	0.086
Mof_H 	H 	0.3534	0.7506	0.8952	0.086
Mof_H 	H 	0.4181	0.8372	0.732	0.092
Mof_H 	H 	0.5226	0.919	0.6641	0.101
Mof_H 	H 	0.2043	0.6731	0.7679	-0.017
Mof_H 	H 	0.3523	0.7017	0.6259	0.082
Mof_H 	H 	0.6028	0.2936	0.7811	0.09
Mof_H 	H 	0.4472	0.276	0.9192	0.012
Mof_H 	H 	0.5593	0.6103	0.5364	0.056
Mof_H 	H 	0.7486	0.3469	0.6554	0.067
Mof_H 	H 	0.7114	0.6614	0.4087	0.089
Mof_H 	H 	0.8689	0.6719	0.2694	-0.008
Mof_H 	H 	0.0806	0.2667	0.4192	-0.025
Mof_H 	H 	0.9389	0.2474	0.5613	0.094
Mof_H 	H 	0.8772	0.0937	0.8961	0.059
Mof_H 	H 	0.6729	0.8644	0.1287	0.086
Mof_H 	H 	0.6466	0.2494	0.1048	0.086
Mof_H 	H 	0.5819	0.1628	0.268	0.092
Mof_H 	H 	0.4774	0.081	0.3359	0.101
Mof_H 	H 	0.7957	0.3269	0.2321	-0.017
Mof_H 	H 	0.6477	0.2983	0.3741	0.082
Mof_H 	H 	0.3972	0.7064	0.2189	0.09
Mof_H 	H 	0.5528	0.724	0.0808	0.012
Mof_H 	H 	0.4407	0.3897	0.4636	0.056
Mof_H 	H 	0.2514	0.6531	0.3446	0.067
Mof_H 	H 	0.2886	0.3386	0.5913	0.089
Mof_H 	H 	0.1311	0.3281	0.7306	-0.008
Mof_H 	H 	0.9194	0.7333	0.5808	-0.025
Mof_H 	H 	0.0611	0.7526	0.4387	0.094
Mof_C 	C 	0.191	0.6816	0.0546	0.364
Mof_C 	C 	0.2294	0.8137	0.0043	-0.043
Mof_C 	C 	0.1797	0.9175	0.0432	-0.015
Mof_C 	C 	0.215	0.041	0.9911	-0.04
Mof_C 	C 	0.3035	0.0525	0.9063	-0.1
Mof_C 	C 	0.3585	0.9435	0.8717	0.158
Mof_C 	C 	0.319	0.8241	0.92	-0.102
Mof_C 	C 	0.4974	0.8702	0.7384	-0.184
Mof_C 	C 	0.6287	0.7429	0.7994	0.406
Mof_C 	C 	0.1552	0.1643	0.0256	0.351
Mof_C 	C 	0.2863	0.5946	0.7708	0.089
Mof_C 	C 	0.3749	0.6129	0.6857	-0.158
Mof_C 	C 	0.4962	0.5015	0.688	0.107
Mof_C 	C 	0.5216	0.3736	0.7767	-0.151
Mof_C 	C 	0.4277	0.3637	0.8587	0.083
Mof_C 	C 	0.5918	0.5225	0.5973	-0.071
Mof_C 	C 	0.7147	0.4331	0.5932	-0.103
Mof_C 	C 	0.8094	0.4505	0.5009	0.128
Mof_C 	C 	0.7884	0.5789	0.4123	-0.161
Mof_C 	C 	0.8822	0.5844	0.3291	0.086
Mof_C 	C 	0.0051	0.3492	0.4172	0.111
Mof_C 	C 	0.9205	0.336	0.5019	-0.188
Mof_C 	C 	0.809	0.3184	0.9454	0.364
Mof_C 	C 	0.7706	0.1863	0.9957	-0.043
Mof_C 	C 	0.8203	0.0825	0.9568	-0.015
Mof_C 	C 	0.785	0.959	0.0089	-0.04
Mof_C 	C 	0.6965	0.9475	0.0937	-0.1
Mof_C 	C 	0.6415	0.0565	0.1283	0.158
Mof_C 	C 	0.681	0.1759	0.08	-0.102
Mof_C 	C 	0.5026	0.1298	0.2616	-0.184
Mof_C 	C 	0.3713	0.2571	0.2006	0.406
Mof_C 	C 	0.8448	0.8357	0.9744	0.351
Mof_C 	C 	0.7137	0.4054	0.2292	0.089
Mof_C 	C 	0.6251	0.3871	0.3143	-0.158
Mof_C 	C 	0.5038	0.4985	0.312	0.107
Mof_C 	C 	0.4784	0.6264	0.2233	-0.151
Mof_C 	C 	0.5723	0.6363	0.1413	0.083
Mof_C 	C 	0.4082	0.4775	0.4027	-0.071
Mof_C 	C 	0.2853	0.5669	0.4068	-0.103
Mof_C 	C 	0.1906	0.5495	0.4991	0.128
Mof_C 	C 	0.2116	0.4211	0.5877	-0.161
Mof_C 	C 	0.1178	0.4156	0.6709	0.086
Mof_C 	C 	0.9949	0.6508	0.5828	0.111
Mof_C 	C 	0.0795	0.664	0.4981	-0.188
Mof_N 	N 	0.3096	0.4733	0.8562	-0.242
Mof_N 	N 	0.9904	0.4691	0.3313	-0.281
Mof_N 	N 	0.6904	0.5267	0.1438	-0.242
Mof_N 	N 	0.0096	0.5309	0.6687	-0.281
Mof_O 	O 	0.1421	0.6541	0.1475	-0.47
Mof_O 	O 	0.2111	0.6082	0.0016	-0.476
Mof_O 	O 	0.4453	0.9686	0.7868	-0.171
Mof_O 	O 	0.6543	0.7072	0.8962	-0.438
Mof_O 	O 	0.7015	0.6821	0.739	-0.48
Mof_O 	O 	0.1593	0.2793	0.9564	-0.461
Mof_O 	O 	0.1093	0.1431	0.1175	-0.295
Mof_O 	O 	0.0257	0.4188	0.1103	-0.755
Mof_O 	O 	0.8579	0.3459	0.8525	-0.47
Mof_O 	O 	0.7889	0.3918	0.9984	-0.476
Mof_O 	O 	0.5547	0.0314	0.2132	-0.171
Mof_O 	O 	0.3457	0.2928	0.1038	-0.438
Mof_O 	O 	0.2985	0.3179	0.261	-0.48
Mof_O 	O 	0.8407	0.7207	0.0436	-0.461
Mof_O 	O 	0.8907	0.8569	0.8825	-0.295
Mof_O 	O 	0.9743	0.5812	0.8897	-0.755
Mof_H 	H 	0.0257	0.31998	0.14293	0.203
Mof_H 	H 	0.9743	0.68002	0.85707	0.203
_end
