data_functionalizedCrystal
_audit_creation_method	'EQeq! by Chris Wilmer'
_symmetry_space_group_name_H-M	'P1'
_symmetry_Int_Tables_number	1
_symmetry_cell_setting	triclinic
loop_
_symmetry_equiv_pos_as_xyz
  x,y,z
_cell_length_a	13.6147
_cell_length_b	17.8396
_cell_length_c	20.182
_cell_angle_alpha	90
_cell_angle_beta	94.425
_cell_angle_gamma	90
loop_
_atom_site_label
_atom_site_type_symbol
_atom_site_fract_x
_atom_site_fract_y
_atom_site_fract_z
_atom_site_charge
Mof_C 	C 	0.5883	0.5087	0.6619	-0.326
Mof_C 	C 	0.5863	0.4711	0.7221	0.141
Mof_H 	H 	0.631	0.4324	0.7316	-0.024
Mof_C 	C 	0.5207	0.4891	0.768	-0.142
Mof_H 	H 	0.5221	0.4632	0.8081	0.09
Mof_C 	C 	0.4529	0.5455	0.7549	0.028
Mof_C 	C 	0.4481	0.5802	0.6934	-0.146
Mof_H 	H 	0.3993	0.6156	0.6826	0.086
Mof_C 	C 	0.5161	0.5625	0.6478	0.143
Mof_H 	H 	0.5131	0.5872	0.6072	-0.024
Mof_C 	C 	0.6774	0.4069	0.5579	-0.338
Mof_C 	C 	0.5923	0.3654	0.5553	0.156
Mof_H 	H 	0.5455	0.376	0.5851	-0.033
Mof_C 	C 	0.574	0.308	0.5095	-0.163
Mof_H 	H 	0.5155	0.2809	0.509	0.098
Mof_C 	C 	0.6424	0.2911	0.4647	0.041
Mof_C 	C 	0.7288	0.3313	0.4681	-0.161
Mof_H 	H 	0.7769	0.3197	0.4394	0.094
Mof_C 	C 	0.745	0.3882	0.5133	0.16
Mof_H 	H 	0.8035	0.4151	0.5138	-0.031
Mof_C 	C 	0.707	0.5724	0.552	-0.338
Mof_C 	C 	0.6736	0.5684	0.4856	0.158
Mof_H 	H 	0.6394	0.5259	0.4704	-0.033
Mof_C 	C 	0.6892	0.6254	0.4412	-0.162
Mof_H 	H 	0.6656	0.6205	0.397	0.097
Mof_C 	C 	0.7396	0.6894	0.4619	0.046
Mof_C 	C 	0.7709	0.6953	0.5286	-0.161
Mof_H 	H 	0.8036	0.7383	0.5442	0.105
Mof_C 	C 	0.7539	0.6378	0.5722	0.158
Mof_H 	H 	0.7749	0.6435	0.6169	-0.033
Mof_C 	C 	0.8023	0.4899	0.6744	-0.299
Mof_C 	C 	0.8799	0.44	0.6736	0.113
Mof_H 	H 	0.8823	0.407	0.6381	-0.008
Mof_C 	C 	0.9547	0.4377	0.7247	-0.094
Mof_H 	H 	0.0061	0.4037	0.7228	0.066
Mof_C 	C 	0.9528	0.4859	0.7785	0.009
Mof_C 	C 	0.8765	0.5368	0.7797	-0.125
Mof_H 	H 	0.8748	0.5701	0.8151	0.07
Mof_C 	C 	0.8025	0.5386	0.7286	0.112
Mof_H 	H 	0.7517	0.5732	0.7304	-0.015
Mof_C 	C 	0.0247	0.7534	0.3449	0.061
Mof_H 	H 	0.9886	0.7549	0.3822	0.04
Mof_C 	C 	0.0575	0.747	0.245	0.09
Mof_H 	H 	0.0531	0.7436	0.1989	0.011
Mof_C 	C 	0.2416	0.7476	0.2666	0.16
Mof_C 	C 	0.2629	0.7198	0.2063	-0.182
Mof_H 	H 	0.2124	0.7048	0.1755	0.101
Mof_C 	C 	0.3602	0.7142	0.1915	0.058
Mof_H 	H 	0.375	0.6961	0.1502	0.013
Mof_C 	C 	0.4357	0.7352	0.2376	-0.101
Mof_C 	C 	0.4124	0.7632	0.2976	0.056
Mof_H 	H 	0.4627	0.7788	0.3284	-0.004
Mof_C 	C 	0.3163	0.7688	0.3132	-0.177
Mof_H 	H 	0.3016	0.7867	0.3546	0.102
Mof_C 	C 	0.5385	0.7234	0.2226	0.139
Mof_Cu	Cu	0.75358	0.08141	0.37155	0.899
Mof_Cu	Cu	0.83686	0.74387	0.25515	0.907
Mof_Cu	Cu	0.6472	0.85727	0.30268	0.912
Mof_N 	N 	0.982	0.7482	0.28196	-0.205
Mof_N 	N 	0.1203	0.756	0.3485	-0.088
Mof_N 	N 	0.1415	0.7515	0.2837	-0.121
Mof_N 	N 	0.6175	0.7587	0.25023	-0.189
Mof_N 	N 	0.695	0.725	0.22579	-0.149
Mof_N 	N 	0.6633	0.6722	0.1838	-0.116
Mof_N 	N 	0.5653	0.6706	0.181	-0.109
Mof_O 	O 	0.4237	0.5832	0.88191	-0.274
Mof_O 	O 	0.3046	0.4973	0.8192	-0.392
Mof_O 	O 	0.3052	0.63333	0.78902	-0.411
Mof_O 	O 	0.5188	0.18815	0.41017	-0.228
Mof_O 	O 	0.6366	0.25052	0.33784	-0.39
Mof_O 	O 	0.7006	0.15661	0.42752	-0.389
Mof_O 	O 	0.8105	0.71736	0.34574	-0.387
Mof_O 	O 	0.6747	0.8018	0.38371	-0.385
Mof_O 	O 	0.8472	0.8079	0.44091	-0.454
Mof_H 	H 	0.8615	0.8432	0.4175	0.293
Mof_O 	O 	0.1252	0.43089	0.82348	-0.378
Mof_O 	O 	0.0861	0.56584	0.85412	-0.405
Mof_O 	O 	0.0049	0.4601	0.90833	-0.384
Mof_P 	P 	0.36771	0.56755	0.81539	0.401
Mof_P 	P 	0.62658	0.2171	0.40484	0.403
Mof_P 	P 	0.76749	0.75821	0.4021	0.433
Mof_P 	P 	0.04901	0.48617	0.8448	0.406
Mof_Si	Si	0.69393	0.49293	0.6105	0.857
Mof_C 	C 	0.6816	0.9781	0.2112	0.127
Mof_C 	C 	0.5706	0.9076	0.1657	0.045
Mof_N 	N 	0.6614	0.0101	0.1542	-0.134
Mof_C 	C 	0.5523	0.0533	0.0363	-0.189
Mof_H 	H 	0.5883	0.0892	0.0613	0.11
Mof_C 	C 	0.543	0.9819	0.0612	0.119
Mof_C 	C 	0.4911	0.9285	0.0248	-0.173
Mof_H 	H 	0.4853	0.8803	0.0416	0.092
Mof_C 	C 	0.5904	0.9643	0.1245	-0.003
Mof_N 	N 	0.6282	0.9161	0.2192	-0.226
Mof_C 	C 	0.9117	0.0087	0.8381	-0.352
Mof_C 	C 	0.9137	0.9711	0.7779	0.154
Mof_H 	H 	0.869	0.9324	0.7684	-0.027
Mof_C 	C 	0.9793	0.9891	0.732	-0.123
Mof_H 	H 	0.9779	0.9632	0.6919	0.088
Mof_C 	C 	0.0471	0.0455	0.7451	0.012
Mof_C 	C 	0.0519	0.0802	0.8066	-0.164
Mof_H 	H 	0.1007	0.1156	0.8174	0.091
Mof_C 	C 	0.9839	0.0625	0.8522	0.169
Mof_H 	H 	0.9869	0.0872	0.8928	-0.028
Mof_C 	C 	0.8226	0.9069	0.9421	-0.348
Mof_C 	C 	0.9077	0.8654	0.9447	0.162
Mof_H 	H 	0.9545	0.876	0.9149	-0.031
Mof_C 	C 	0.926	0.808	0.9905	-0.153
Mof_H 	H 	0.9845	0.7809	0.991	0.1
Mof_C 	C 	0.8576	0.7911	0.0353	0.038
Mof_C 	C 	0.7712	0.8313	0.0319	-0.183
Mof_H 	H 	0.7231	0.8197	0.0606	0.098
Mof_C 	C 	0.755	0.8882	0.9867	0.187
Mof_H 	H 	0.6965	0.9151	0.9862	-0.036
Mof_C 	C 	0.793	0.0724	0.948	-0.321
Mof_C 	C 	0.8264	0.0684	0.0144	0.125
Mof_H 	H 	0.8606	0.0259	0.0296	-0.027
Mof_C 	C 	0.8108	0.1254	0.0588	-0.136
Mof_H 	H 	0.8344	0.1205	0.103	0.089
Mof_C 	C 	0.7604	0.1894	0.0381	0.016
Mof_C 	C 	0.7291	0.1953	0.9714	-0.122
Mof_H 	H 	0.6964	0.2383	0.9558	0.096
Mof_C 	C 	0.7461	0.1378	0.9278	0.137
Mof_H 	H 	0.7251	0.1435	0.8831	-0.027
Mof_C 	C 	0.6977	0.9899	0.8256	-0.304
Mof_C 	C 	0.6201	0.94	0.8264	0.133
Mof_H 	H 	0.6177	0.907	0.8619	-0.016
Mof_C 	C 	0.5453	0.9377	0.7753	-0.127
Mof_H 	H 	0.4939	0.9037	0.7772	0.085
Mof_C 	C 	0.5472	0.9859	0.7215	0.025
Mof_C 	C 	0.6235	0.0368	0.7203	-0.146
Mof_H 	H 	0.6252	0.0701	0.6849	0.072
Mof_C 	C 	0.6975	0.0386	0.7714	0.113
Mof_H 	H 	0.7483	0.0732	0.7696	-0.017
Mof_C 	C 	0.4753	0.2534	0.1551	0.093
Mof_H 	H 	0.5114	0.2549	0.1178	0.02
Mof_C 	C 	0.4425	0.247	0.255	0.103
Mof_H 	H 	0.4469	0.2436	0.3011	0.011
Mof_C 	C 	0.2584	0.2476	0.2334	0.169
Mof_C 	C 	0.2371	0.2198	0.2937	-0.195
Mof_H 	H 	0.2876	0.2048	0.3245	0.107
Mof_C 	C 	0.1398	0.2142	0.3085	0.074
Mof_H 	H 	0.125	0.1961	0.3498	0.006
Mof_C 	C 	0.0643	0.2352	0.2624	-0.126
Mof_C 	C 	0.0876	0.2632	0.2024	0.072
Mof_H 	H 	0.0373	0.2788	0.1716	-0.015
Mof_C 	C 	0.1837	0.2688	0.1868	-0.19
Mof_H 	H 	0.1984	0.2867	0.1454	0.104
Mof_C 	C 	0.9615	0.2234	0.2774	0.158
Mof_Cu	Cu	0.74642	0.58141	0.12845	0.899
Mof_Cu	Cu	0.66314	0.24387	0.24485	0.907
Mof_Cu	Cu	0.8528	0.35727	0.19732	0.913
Mof_N 	N 	0.518	0.2482	0.21804	-0.22
Mof_N 	N 	0.3797	0.256	0.1515	-0.094
Mof_N 	N 	0.3585	0.2515	0.2163	-0.124
Mof_N 	N 	0.8825	0.2587	0.24977	-0.191
Mof_N 	N 	0.805	0.225	0.27421	-0.148
Mof_N 	N 	0.8367	0.1722	0.3162	-0.115
Mof_N 	N 	0.9347	0.1706	0.319	-0.108
Mof_O 	O 	0.0763	0.0832	0.61809	-0.283
Mof_O 	O 	0.1954	0.9973	0.6808	-0.383
Mof_O 	O 	0.1948	0.13333	0.71098	-0.411
Mof_O 	O 	0.9812	0.68815	0.08983	-0.225
Mof_O 	O 	0.8634	0.75052	0.16216	-0.388
Mof_O 	O 	0.7994	0.65661	0.07248	-0.391
Mof_O 	O 	0.6895	0.21736	0.15426	-0.389
Mof_O 	O 	0.8253	0.3018	0.11629	-0.384
Mof_O 	O 	0.6528	0.3079	0.05909	-0.461
Mof_H 	H 	0.6385	0.3432	0.0825	0.293
Mof_O 	O 	0.3748	0.93089	0.67652	-0.377
Mof_O 	O 	0.4139	0.06584	0.64588	-0.412
Mof_O 	O 	0.4951	0.9601	0.59167	-0.382
Mof_P 	P 	0.13229	0.06755	0.68461	0.394
Mof_P 	P 	0.87342	0.7171	0.09516	0.403
Mof_P 	P 	0.73251	0.25821	0.0979	0.438
Mof_P 	P 	0.45099	0.98617	0.6552	0.416
Mof_Si	Si	0.80607	0.99293	0.8895	0.885
Mof_C 	C 	0.8184	0.4781	0.2888	0.113
Mof_C 	C 	0.9294	0.4076	0.3343	0.047
Mof_N 	N 	0.8386	0.5101	0.3458	-0.123
Mof_C 	C 	0.9477	0.5533	0.4637	-0.105
Mof_H 	H 	0.9117	0.5892	0.4387	0.086
Mof_C 	C 	0.957	0.4819	0.4388	0.073
Mof_C 	C 	0.0089	0.4285	0.4752	-0.118
Mof_H 	H 	0.0147	0.3803	0.4584	0.071
Mof_C 	C 	0.9096	0.4643	0.3755	0.005
Mof_N 	N 	0.8718	0.4161	0.2808	-0.224
Mof_C 	C 	0.4117	0.4913	0.3381	-0.328
Mof_C 	C 	0.4137	0.5289	0.2779	0.14
Mof_H 	H 	0.369	0.5676	0.2684	-0.024
Mof_C 	C 	0.4793	0.5109	0.232	-0.143
Mof_H 	H 	0.4779	0.5368	0.1919	0.088
Mof_C 	C 	0.5471	0.4545	0.2451	0.028
Mof_C 	C 	0.5519	0.4198	0.3066	-0.146
Mof_H 	H 	0.6007	0.3844	0.3174	0.086
Mof_C 	C 	0.4839	0.4375	0.3522	0.144
Mof_H 	H 	0.4869	0.4128	0.3928	-0.024
Mof_C 	C 	0.3226	0.5931	0.4421	-0.341
Mof_C 	C 	0.4077	0.6346	0.4447	0.159
Mof_H 	H 	0.4545	0.624	0.4149	-0.033
Mof_C 	C 	0.426	0.692	0.4905	-0.165
Mof_H 	H 	0.4845	0.7191	0.491	0.099
Mof_C 	C 	0.3576	0.7089	0.5353	0.042
Mof_C 	C 	0.2712	0.6687	0.5319	-0.164
Mof_H 	H 	0.2231	0.6803	0.5606	0.093
Mof_C 	C 	0.255	0.6118	0.4867	0.163
Mof_H 	H 	0.1965	0.5849	0.4862	-0.034
Mof_C 	C 	0.293	0.4276	0.448	-0.341
Mof_C 	C 	0.3264	0.4316	0.5144	0.159
Mof_H 	H 	0.3606	0.4741	0.5296	-0.034
Mof_C 	C 	0.3108	0.3746	0.5588	-0.162
Mof_H 	H 	0.3344	0.3795	0.603	0.098
Mof_C 	C 	0.2604	0.3106	0.5381	0.046
Mof_C 	C 	0.2291	0.3047	0.4714	-0.162
Mof_H 	H 	0.1964	0.2617	0.4558	0.103
Mof_C 	C 	0.2461	0.3622	0.4278	0.158
Mof_H 	H 	0.2251	0.3565	0.3831	-0.034
Mof_C 	C 	0.1977	0.5101	0.3256	-0.314
Mof_C 	C 	0.1201	0.56	0.3264	0.143
Mof_H 	H 	0.1177	0.593	0.3619	-0.023
Mof_C 	C 	0.0453	0.5623	0.2753	-0.152
Mof_H 	H 	0.9939	0.5963	0.2772	0.101
Mof_C 	C 	0.0472	0.5141	0.2215	0.011
Mof_C 	C 	0.1235	0.4632	0.2203	-0.136
Mof_H 	H 	0.1252	0.4299	0.1849	0.068
Mof_C 	C 	0.1975	0.4614	0.2714	0.122
Mof_H 	H 	0.2483	0.4268	0.2696	-0.019
Mof_C 	C 	0.9753	0.2466	0.6551	0.127
Mof_H 	H 	0.0114	0.2451	0.6178	0.003
Mof_C 	C 	0.9425	0.253	0.755	0.114
Mof_H 	H 	0.9469	0.2564	0.8011	0.011
Mof_C 	C 	0.7584	0.2524	0.7334	0.163
Mof_C 	C 	0.7371	0.2802	0.7937	-0.185
Mof_H 	H 	0.7876	0.2952	0.8245	0.106
Mof_C 	C 	0.6398	0.2858	0.8085	0.059
Mof_H 	H 	0.625	0.3039	0.8498	0.016
Mof_C 	C 	0.5643	0.2648	0.7624	-0.101
Mof_C 	C 	0.5876	0.2368	0.7024	0.057
Mof_H 	H 	0.5373	0.2212	0.6716	-0.005
Mof_C 	C 	0.6837	0.2312	0.6868	-0.179
Mof_H 	H 	0.6984	0.2133	0.6454	0.102
Mof_C 	C 	0.4615	0.2766	0.7774	0.141
Mof_Cu	Cu	0.24642	0.91859	0.62845	0.9
Mof_Cu	Cu	0.16314	0.25613	0.74485	0.907
Mof_Cu	Cu	0.3528	0.14273	0.69732	0.911
Mof_N 	N 	0.018	0.2518	0.71804	-0.235
Mof_N 	N 	0.8797	0.244	0.6515	-0.097
Mof_N 	N 	0.8585	0.2485	0.7163	-0.125
Mof_N 	N 	0.3825	0.2413	0.74977	-0.189
Mof_N 	N 	0.305	0.275	0.77421	-0.148
Mof_N 	N 	0.3367	0.3278	0.8162	-0.115
Mof_N 	N 	0.4347	0.3294	0.819	-0.107
Mof_O 	O 	0.5763	0.4168	0.11809	-0.279
Mof_O 	O 	0.6954	0.5027	0.1808	-0.393
Mof_O 	O 	0.6948	0.36667	0.21098	-0.411
Mof_O 	O 	0.4812	0.81185	0.58983	-0.227
Mof_O 	O 	0.3634	0.74948	0.66216	-0.39
Mof_O 	O 	0.2994	0.84339	0.57248	-0.389
Mof_O 	O 	0.1895	0.28264	0.65426	-0.387
Mof_O 	O 	0.3253	0.1982	0.61629	-0.386
Mof_O 	O 	0.1528	0.1921	0.55909	-0.457
Mof_H 	H 	0.1385	0.1568	0.5825	0.292
Mof_O 	O 	0.8748	0.56911	0.17652	-0.378
Mof_O 	O 	0.9139	0.43416	0.14588	-0.402
Mof_O 	O 	0.9951	0.5399	0.09167	-0.382
Mof_P 	P 	0.63229	0.43245	0.18461	0.401
Mof_P 	P 	0.37342	0.7829	0.59516	0.402
Mof_P 	P 	0.23251	0.24179	0.5979	0.433
Mof_P 	P 	0.95099	0.51383	0.1552	0.414
Mof_Si	Si	0.30607	0.50707	0.3895	0.863
Mof_C 	C 	0.3184	0.0219	0.7888	0.098
Mof_C 	C 	0.4294	0.0924	0.8343	0.025
Mof_N 	N 	0.3386	0.9899	0.8458	-0.12
Mof_C 	C 	0.4477	0.9467	0.9637	0.064
Mof_H 	H 	0.4117	0.9108	0.9387	0.03
Mof_C 	C 	0.457	0.0181	0.9388	-0.071
Mof_C 	C 	0.5089	0.0715	0.9752	0.062
Mof_H 	H 	0.5147	0.1197	0.9584	0.016
Mof_C 	C 	0.4096	0.0357	0.8755	0.048
Mof_N 	N 	0.3718	0.0839	0.7808	-0.221
Mof_C 	C 	0.0883	0.9913	0.1619	-0.284
Mof_C 	C 	0.0863	0.0289	0.2221	0.11
Mof_H 	H 	0.131	0.0676	0.2316	-0.016
Mof_C 	C 	0.0207	0.0109	0.268	-0.16
Mof_H 	H 	0.0221	0.0368	0.3081	0.088
Mof_C 	C 	0.9529	0.9545	0.2549	0.043
Mof_C 	C 	0.9481	0.9198	0.1934	-0.12
Mof_H 	H 	0.8993	0.8844	0.1826	0.079
Mof_C 	C 	0.0161	0.9375	0.1478	0.107
Mof_H 	H 	0.0131	0.9128	0.1072	-0.016
Mof_C 	C 	0.1774	0.0931	0.0579	-0.322
Mof_C 	C 	0.0923	0.1346	0.0553	0.148
Mof_H 	H 	0.0455	0.124	0.0851	-0.035
Mof_C 	C 	0.074	0.192	0.0095	-0.18
Mof_H 	H 	0.0155	0.2191	0.009	0.095
Mof_C 	C 	0.1424	0.2089	0.9647	0.048
Mof_C 	C 	0.2288	0.1687	0.9681	-0.131
Mof_H 	H 	0.2769	0.1803	0.9394	0.085
Mof_C 	C 	0.245	0.1118	0.0133	0.122
Mof_H 	H 	0.3035	0.0849	0.0138	-0.026
Mof_C 	C 	0.207	0.9276	0.052	-0.344
Mof_C 	C 	0.1736	0.9316	0.9856	0.184
Mof_H 	H 	0.1394	0.9741	0.9704	-0.034
Mof_C 	C 	0.1892	0.8746	0.9412	-0.181
Mof_H 	H 	0.1656	0.8795	0.897	0.104
Mof_C 	C 	0.2396	0.8106	0.9619	0.072
Mof_C 	C 	0.2709	0.8047	0.0286	-0.194
Mof_H 	H 	0.3036	0.7617	0.0442	0.111
Mof_C 	C 	0.2539	0.8622	0.0722	0.17
Mof_H 	H 	0.2749	0.8565	0.1169	-0.036
Mof_C 	C 	0.3023	0.0101	0.1744	-0.306
Mof_C 	C 	0.3799	0.06	0.1736	0.118
Mof_H 	H 	0.3823	0.093	0.1381	-0.013
Mof_C 	C 	0.4547	0.0623	0.2247	-0.114
Mof_H 	H 	0.5061	0.0963	0.2228	0.079
Mof_C 	C 	0.4528	0.0141	0.2785	-0.007
Mof_C 	C 	0.3765	0.9632	0.2797	-0.112
Mof_H 	H 	0.3748	0.9299	0.3151	0.065
Mof_C 	C 	0.3025	0.9614	0.2286	0.122
Mof_H 	H 	0.2517	0.9268	0.2304	-0.016
Mof_C 	C 	0.5247	0.7466	0.8449	0.094
Mof_H 	H 	0.4886	0.7451	0.8822	0.023
Mof_C 	C 	0.5575	0.753	0.745	0.102
Mof_H 	H 	0.5531	0.7564	0.6989	0.012
Mof_C 	C 	0.7416	0.7524	0.7666	0.156
Mof_C 	C 	0.7629	0.7802	0.7063	-0.175
Mof_H 	H 	0.7124	0.7952	0.6755	0.101
Mof_C 	C 	0.8602	0.7858	0.6915	0.048
Mof_H 	H 	0.875	0.8039	0.6502	0.021
Mof_C 	C 	0.9357	0.7648	0.7376	-0.083
Mof_C 	C 	0.9124	0.7368	0.7976	0.045
Mof_H 	H 	0.9627	0.7212	0.8284	0.003
Mof_C 	C 	0.8163	0.7312	0.8132	-0.17
Mof_H 	H 	0.8016	0.7133	0.8546	0.101
Mof_C 	C 	0.0385	0.7766	0.7226	0.127
Mof_Cu	Cu	0.25358	0.41859	0.87155	0.9
Mof_Cu	Cu	0.33686	0.75613	0.75515	0.907
Mof_Cu	Cu	0.1472	0.64273	0.80268	0.911
Mof_N 	N 	0.482	0.7518	0.78196	-0.22
Mof_N 	N 	0.6203	0.744	0.8485	-0.092
Mof_N 	N 	0.6415	0.7485	0.7837	-0.122
Mof_N 	N 	0.1175	0.7413	0.75023	-0.188
Mof_N 	N 	0.195	0.775	0.72579	-0.148
Mof_N 	N 	0.1633	0.8278	0.6838	-0.115
Mof_N 	N 	0.0653	0.8294	0.681	-0.108
Mof_O 	O 	0.9237	0.9168	0.38191	-0.27
Mof_O 	O 	0.8046	0.0027	0.3192	-0.401
Mof_O 	O 	0.8052	0.86667	0.28902	-0.412
Mof_O 	O 	0.0188	0.31185	0.91017	-0.227
Mof_O 	O 	0.1366	0.24948	0.83784	-0.391
Mof_O 	O 	0.2006	0.34339	0.92752	-0.386
Mof_O 	O 	0.3105	0.78264	0.84574	-0.385
Mof_O 	O 	0.1747	0.6982	0.88371	-0.385
Mof_O 	O 	0.3472	0.6921	0.94091	-0.451
Mof_H 	H 	0.3615	0.6568	0.9175	0.292
Mof_O 	O 	0.6252	0.06911	0.32348	-0.379
Mof_O 	O 	0.5861	0.93416	0.35412	-0.396
Mof_O 	O 	0.5049	0.0399	0.40833	-0.388
Mof_P 	P 	0.86771	0.93245	0.31539	0.408
Mof_P 	P 	0.12658	0.2829	0.90484	0.403
Mof_P 	P 	0.26749	0.74179	0.9021	0.429
Mof_P 	P 	0.54901	0.01383	0.3448	0.403
Mof_Si	Si	0.19393	0.00707	0.1105	0.812
Mof_C 	C 	0.1816	0.5219	0.7112	0.111
Mof_C 	C 	0.0706	0.5924	0.6657	0.024
Mof_N 	N 	0.1614	0.4899	0.6542	-0.129
Mof_C 	C 	0.0523	0.4467	0.5363	-0.01
Mof_H 	H 	0.0883	0.4108	0.5613	0.051
Mof_C 	C 	0.043	0.5181	0.5612	-0.028
Mof_C 	C 	0.9911	0.5715	0.5248	0
Mof_H 	H 	0.9853	0.6197	0.5416	0.038
Mof_C 	C 	0.0904	0.5357	0.6245	0.039
Mof_N 	N 	0.1282	0.5839	0.7192	-0.223
Mof_Cu	Cu	-0	0.5	-0	0.833
Mof_Cu	Cu	0.5	0	0.5	0.84
_end
