data_functionalizedCrystal
_audit_creation_method	'EQeq! by Chris Wilmer'
_symmetry_space_group_name_H-M	'P1'
_symmetry_Int_Tables_number	1
_symmetry_cell_setting	triclinic
loop_
_symmetry_equiv_pos_as_xyz
  x,y,z
_cell_length_a	6.6602
_cell_length_b	11.6941
_cell_length_c	22.788
_cell_angle_alpha	90
_cell_angle_beta	90
_cell_angle_gamma	90
loop_
_atom_site_label
_atom_site_type_symbol
_atom_site_fract_x
_atom_site_fract_y
_atom_site_fract_z
_atom_site_charge
Mof_Th	Th	0.767	0.40413	0.86201	0.022
Mof_Th	Th	0.733	0.59587	0.36201	0.022
Mof_Th	Th	0.233	0.90413	0.63799	0.022
Mof_Th	Th	0.267	0.09587	0.13799	0.022
Mof_H 	H 	0.7516	0.9705	0.0306	0.072
Mof_H 	H 	0.7429	0.0979	0.8689	0.049
Mof_H 	H 	0.2108	0.4692	0.7752	0.064
Mof_H 	H 	0.3987	0.4174	0.6961	0.097
Mof_H 	H 	0.7381	0.9428	0.9288	0.087
Mof_H 	H 	0.2894	0.2797	0.6347	0.051
Mof_H 	H 	0.7484	0.0295	0.5306	0.072
Mof_H 	H 	0.7571	0.9021	0.3689	0.049
Mof_H 	H 	0.2892	0.5308	0.2752	0.064
Mof_H 	H 	0.1013	0.5826	0.1961	0.097
Mof_H 	H 	0.7619	0.0572	0.4288	0.086
Mof_H 	H 	0.2106	0.7203	0.1347	0.05
Mof_H 	H 	0.2484	0.4705	0.4694	0.072
Mof_H 	H 	0.2571	0.5979	0.6311	0.049
Mof_H 	H 	0.7892	0.9692	0.7248	0.064
Mof_H 	H 	0.6013	0.9174	0.8039	0.097
Mof_H 	H 	0.2619	0.4428	0.5712	0.087
Mof_H 	H 	0.7106	0.7797	0.8653	0.051
Mof_H 	H 	0.2516	0.5295	0.9694	0.072
Mof_H 	H 	0.2429	0.4021	0.1311	0.049
Mof_H 	H 	0.7108	0.0308	0.2248	0.064
Mof_H 	H 	0.8987	0.0826	0.3039	0.097
Mof_H 	H 	0.2381	0.5572	0.0712	0.087
Mof_H 	H 	0.7894	0.2203	0.3653	0.05
Mof_C 	C 	0.754	0.2318	0.9869	0.043
Mof_C 	C 	0.766	0.3543	0.0054	0.264
Mof_C 	C 	0.761	0.142	0.0269	-0.05
Mof_C 	C 	0.76	0.1555	0.092	0.295
Mof_C 	C 	0.752	0.0327	0.0053	0.032
Mof_C 	C 	0.745	0.1094	0.9093	0.085
Mof_C 	C 	0.1637	0.4112	0.751	0.081
Mof_C 	C 	0.277	0.3812	0.7031	-0.099
Mof_C 	C 	0.744	0.0161	0.9446	-0.083
Mof_C 	C 	0.723	0.2245	0.7461	0.262
Mof_C 	C 	0.917	0.2812	0.7272	0.045
Mof_C 	C 	0.023	0.2469	0.6779	-0.054
Mof_C 	C 	0.213	0.3009	0.6669	0.038
Mof_C 	C 	0.9467	0.1597	0.635	0.287
Mof_C 	C 	0.746	0.7682	0.4869	0.043
Mof_C 	C 	0.734	0.6457	0.5054	0.264
Mof_C 	C 	0.739	0.858	0.5269	-0.05
Mof_C 	C 	0.74	0.8445	0.592	0.295
Mof_C 	C 	0.748	0.9673	0.5053	0.033
Mof_C 	C 	0.755	0.8906	0.4093	0.084
Mof_C 	C 	0.3363	0.5888	0.251	0.082
Mof_C 	C 	0.223	0.6188	0.2031	-0.1
Mof_C 	C 	0.756	0.9839	0.4446	-0.083
Mof_C 	C 	0.777	0.7755	0.2461	0.261
Mof_C 	C 	0.583	0.7188	0.2272	0.047
Mof_C 	C 	0.477	0.7531	0.1779	-0.057
Mof_C 	C 	0.287	0.6991	0.1669	0.04
Mof_C 	C 	0.5533	0.8403	0.135	0.29
Mof_C 	C 	0.246	0.7318	0.5131	0.043
Mof_C 	C 	0.234	0.8543	0.4946	0.264
Mof_C 	C 	0.239	0.642	0.4731	-0.05
Mof_C 	C 	0.24	0.6555	0.408	0.295
Mof_C 	C 	0.248	0.5327	0.4947	0.033
Mof_C 	C 	0.255	0.6094	0.5907	0.085
Mof_C 	C 	0.8363	0.9112	0.749	0.082
Mof_C 	C 	0.723	0.8812	0.7969	-0.099
Mof_C 	C 	0.256	0.5161	0.5554	-0.084
Mof_C 	C 	0.277	0.7245	0.7539	0.262
Mof_C 	C 	0.083	0.7812	0.7728	0.045
Mof_C 	C 	0.977	0.7469	0.8221	-0.053
Mof_C 	C 	0.787	0.8009	0.8331	0.038
Mof_C 	C 	0.0533	0.6597	0.865	0.286
Mof_C 	C 	0.254	0.2682	0.0131	0.043
Mof_C 	C 	0.266	0.1457	0.9946	0.264
Mof_C 	C 	0.261	0.358	0.9731	-0.051
Mof_C 	C 	0.26	0.3445	0.908	0.295
Mof_C 	C 	0.252	0.4673	0.9947	0.033
Mof_C 	C 	0.245	0.3906	0.0907	0.085
Mof_C 	C 	0.6637	0.0888	0.249	0.082
Mof_C 	C 	0.777	0.1188	0.2969	-0.1
Mof_C 	C 	0.244	0.4839	0.0554	-0.084
Mof_C 	C 	0.223	0.2755	0.2539	0.261
Mof_C 	C 	0.417	0.2188	0.2728	0.047
Mof_C 	C 	0.523	0.2531	0.3221	-0.057
Mof_C 	C 	0.713	0.1991	0.3331	0.04
Mof_C 	C 	0.4467	0.3403	0.365	0.29
Mof_N 	N 	0.749	0.2165	0.929	-0.077
Mof_N 	N 	0.9895	0.3614	0.7646	-0.079
Mof_N 	N 	0.751	0.7835	0.429	-0.077
Mof_N 	N 	0.5105	0.6386	0.2646	-0.08
Mof_N 	N 	0.251	0.7165	0.571	-0.077
Mof_N 	N 	0.0105	0.8614	0.7354	-0.08
Mof_N 	N 	0.249	0.2835	0.071	-0.078
Mof_N 	N 	0.4895	0.1386	0.2354	-0.08
Mof_O 	O 	0.7704	0.4279	0.9639	-0.162
Mof_O 	O 	0.7739	0.3781	0.0578	-0.196
Mof_O 	O 	0.6394	0.1598	0.7128	-0.203
Mof_O 	O 	0.6697	0.2513	0.7992	-0.162
Mof_O 	O 	0.5891	0.1686	0.1167	-0.164
Mof_O 	O 	0.0061	0.0578	0.639	-0.174
Mof_O 	O 	0.9177	0.1443	0.1197	-0.173
Mof_O 	O 	0.8286	0.1934	0.5949	-0.194
Mof_O 	O 	0.7296	0.5721	0.4639	-0.163
Mof_O 	O 	0.7261	0.6219	0.5578	-0.197
Mof_O 	O 	0.8606	0.8402	0.2128	-0.203
Mof_O 	O 	0.8303	0.7487	0.2992	-0.162
Mof_O 	O 	0.9109	0.8314	0.6167	-0.164
Mof_O 	O 	0.4939	0.9422	0.139	-0.177
Mof_O 	O 	0.5823	0.8557	0.6197	-0.173
Mof_O 	O 	0.6714	0.8066	0.0949	-0.194
Mof_O 	O 	0.2296	0.9279	0.5361	-0.163
Mof_O 	O 	0.2261	0.8781	0.4422	-0.197
Mof_O 	O 	0.3606	0.6598	0.7872	-0.204
Mof_O 	O 	0.3303	0.7513	0.7008	-0.163
Mof_O 	O 	0.4109	0.6686	0.3833	-0.164
Mof_O 	O 	0.9939	0.5578	0.861	-0.174
Mof_O 	O 	0.0823	0.6443	0.3803	-0.173
Mof_O 	O 	0.1714	0.6934	0.9051	-0.194
Mof_O 	O 	0.2704	0.0721	0.0361	-0.163
Mof_O 	O 	0.2739	0.1219	0.9422	-0.197
Mof_O 	O 	0.1394	0.3402	0.2872	-0.203
Mof_O 	O 	0.1697	0.2487	0.2008	-0.162
Mof_O 	O 	0.0891	0.3314	0.8833	-0.165
Mof_O 	O 	0.5061	0.4422	0.361	-0.177
Mof_O 	O 	0.4177	0.3557	0.8803	-0.173
Mof_O 	O 	0.3286	0.3066	0.4051	-0.194
_end
