data_functionalizedCrystal
_audit_creation_method	'EQeq! by Chris Wilmer'
_symmetry_space_group_name_H-M	'P1'
_symmetry_Int_Tables_number	1
_symmetry_cell_setting	triclinic
loop_
_symmetry_equiv_pos_as_xyz
  x,y,z
_cell_length_a	14.6039
_cell_length_b	21.1262
_cell_length_c	20.6028
_cell_angle_alpha	90
_cell_angle_beta	90
_cell_angle_gamma	90
loop_
_atom_site_label
_atom_site_type_symbol
_atom_site_fract_x
_atom_site_fract_y
_atom_site_fract_z
_atom_site_charge
Mof_Re	Re	0.40555	0.14149	0.05694	0.372
Mof_S 	S 	0.37099	0.24112	0.00991	-0.149
Mof_N 	N 	0.3509	0.3097	0.18	-0.1
Mof_C 	C 	0.4052	0.2897	0.1447	0.183
Mof_N 	N 	0.1464	0.3399	0.3453	-0.183
Mof_C 	C 	0.4055	0.1735	0.8847	0.017
Mof_C 	C 	0.2985	0.1063	0.9987	0.361
Mof_C 	C 	0.3899	0.0531	0.1035	0.203
Mof_C 	C 	0.2944	0.161	0.1183	0.231
Mof_N 	N 	0.3811	0.0075	0.1328	0.082
Mof_N 	N 	0.2322	0.1702	0.1511	0.202
Mof_N 	N 	0.2414	0.088	0.9655	0.335
Mof_K 	K 	0.1086	0.0134	0.037	-12.247
Mof_Re	Re	0.90555	0.64149	0.05694	0.565
Mof_S 	S 	0.87099	0.74112	0.00991	-0.046
Mof_N 	N 	0.8509	0.8097	0.18	-0.095
Mof_C 	C 	0.9052	0.7897	0.1447	0.389
Mof_N 	N 	0.6464	0.8399	0.3453	-0.173
Mof_C 	C 	0.9055	0.6735	0.8847	0.177
Mof_C 	C 	0.7985	0.6063	0.9987	0.288
Mof_C 	C 	0.8899	0.5531	0.1035	0.221
Mof_C 	C 	0.7944	0.661	0.1183	0.169
Mof_N 	N 	0.8811	0.5075	0.1328	0.089
Mof_N 	N 	0.7322	0.6702	0.1511	0.14
Mof_N 	N 	0.7414	0.588	0.9655	0.371
Mof_K 	K 	0.6086	0.5134	0.037	-9.222
Mof_Re	Re	0.59445	0.85851	0.55694	0.438
Mof_S 	S 	0.62901	0.75888	0.50991	-0.091
Mof_N 	N 	0.6491	0.6903	0.68	-0.124
Mof_C 	C 	0.5948	0.7103	0.6447	0.147
Mof_N 	N 	0.8536	0.6601	0.8453	-0.197
Mof_C 	C 	0.5945	0.8265	0.3847	0.065
Mof_C 	C 	0.7015	0.8937	0.4987	0.097
Mof_C 	C 	0.6101	0.9469	0.6035	0.121
Mof_C 	C 	0.7056	0.839	0.6183	0.11
Mof_N 	N 	0.6189	0.9925	0.6328	0.028
Mof_N 	N 	0.7678	0.8298	0.6511	0.074
Mof_N 	N 	0.7586	0.912	0.4655	0.511
Mof_K 	K 	0.8914	0.9866	0.537	-4.863
Mof_Re	Re	0.09445	0.35851	0.55694	0.43
Mof_S 	S 	0.12901	0.25888	0.50991	-0.018
Mof_N 	N 	0.1491	0.1903	0.68	-0.138
Mof_C 	C 	0.0948	0.2103	0.6447	0.103
Mof_N 	N 	0.3536	0.1601	0.8453	-0.182
Mof_C 	C 	0.0945	0.3265	0.3847	0.047
Mof_C 	C 	0.2015	0.3937	0.4987	0.16
Mof_C 	C 	0.1101	0.4469	0.6035	0.111
Mof_C 	C 	0.2056	0.339	0.6183	0.14
Mof_N 	N 	0.1189	0.4925	0.6328	0.014
Mof_N 	N 	0.2678	0.3298	0.6511	0.093
Mof_N 	N 	0.2586	0.412	0.4655	0.383
Mof_K 	K 	0.3914	0.4866	0.537	-6.962
Mof_Re	Re	0.59445	0.14149	0.44306	0.425
Mof_S 	S 	0.62901	0.24112	0.49009	-0.078
Mof_N 	N 	0.6491	0.3097	0.32	-0.122
Mof_C 	C 	0.5948	0.2897	0.3553	0.157
Mof_N 	N 	0.8536	0.3399	0.1547	-0.181
Mof_C 	C 	0.5945	0.1735	0.6153	0.032
Mof_C 	C 	0.7015	0.1063	0.5013	0.23
Mof_C 	C 	0.6101	0.0531	0.3965	0.179
Mof_C 	C 	0.7056	0.161	0.3817	0.2
Mof_N 	N 	0.6189	0.0075	0.3672	0.058
Mof_N 	N 	0.7678	0.1702	0.3489	0.199
Mof_N 	N 	0.7586	0.088	0.5345	0.397
Mof_K 	K 	0.8914	0.0134	0.463	-9.389
Mof_Re	Re	0.09445	0.64149	0.44306	0.437
Mof_S 	S 	0.12901	0.74112	0.49009	-0.066
Mof_N 	N 	0.1491	0.8097	0.32	-0.104
Mof_C 	C 	0.0948	0.7897	0.3553	0.195
Mof_N 	N 	0.3536	0.8399	0.1547	-0.16
Mof_C 	C 	0.0945	0.6735	0.6153	0.023
Mof_C 	C 	0.2015	0.6063	0.5013	0.131
Mof_C 	C 	0.1101	0.5531	0.3965	0.106
Mof_C 	C 	0.2056	0.661	0.3817	0.131
Mof_N 	N 	0.1189	0.5075	0.3672	0.015
Mof_N 	N 	0.2678	0.6702	0.3489	0.093
Mof_N 	N 	0.2586	0.588	0.5345	0.394
Mof_K 	K 	0.3914	0.5134	0.463	-5.949
Mof_Re	Re	0.40555	0.85851	0.94306	0.514
Mof_S 	S 	0.37099	0.75888	0.99009	0.017
Mof_N 	N 	0.3509	0.6903	0.82	-0.131
Mof_C 	C 	0.4052	0.7103	0.8553	0.125
Mof_N 	N 	0.1464	0.6601	0.6547	-0.18
Mof_C 	C 	0.4055	0.8265	0.1153	0.078
Mof_C 	C 	0.2985	0.8937	0.0013	-0.071
Mof_C 	C 	0.3899	0.9469	0.8965	0.095
Mof_C 	C 	0.2944	0.839	0.8817	0.064
Mof_N 	N 	0.3811	0.9925	0.8672	-0.002
Mof_N 	N 	0.2322	0.8298	0.8489	0.01
Mof_N 	N 	0.2414	0.912	0.0345	0.539
Mof_K 	K 	0.1086	0.9866	0.963	-1.895
Mof_Re	Re	0.90555	0.35851	0.94306	0.69
Mof_S 	S 	0.87099	0.25888	0.99009	0.179
Mof_N 	N 	0.8509	0.1903	0.82	-0.156
Mof_C 	C 	0.9052	0.2103	0.8553	0.253
Mof_N 	N 	0.6464	0.1601	0.6547	-0.176
Mof_C 	C 	0.9055	0.3265	0.1153	0.228
Mof_C 	C 	0.7985	0.3937	0.0013	0.011
Mof_C 	C 	0.8899	0.4469	0.8965	0.174
Mof_C 	C 	0.7944	0.339	0.8817	0.099
Mof_N 	N 	0.8811	0.4925	0.8672	0.032
Mof_N 	N 	0.7322	0.3298	0.8489	0.068
Mof_N 	N 	0.7414	0.412	0.0345	0.454
Mof_K 	K 	0.6086	0.4866	0.963	-4.168
Mof_Re	Re	0.59445	0.85851	0.94306	0.516
Mof_S 	S 	0.62901	0.75888	0.99009	0.016
Mof_N 	N 	0.6491	0.6903	0.82	-0.136
Mof_C 	C 	0.5948	0.7103	0.8553	0.128
Mof_N 	N 	0.8536	0.6601	0.6547	-0.19
Mof_C 	C 	0.5945	0.8265	0.1153	0.08
Mof_C 	C 	0.7015	0.8937	0.0013	-0.057
Mof_C 	C 	0.6101	0.9469	0.8965	0.107
Mof_C 	C 	0.7056	0.839	0.8817	0.079
Mof_N 	N 	0.6189	0.9925	0.8672	0.007
Mof_N 	N 	0.7678	0.8298	0.8489	0.046
Mof_N 	N 	0.7586	0.912	0.0345	0.576
Mof_K 	K 	0.8914	0.9866	0.963	-2.229
Mof_Re	Re	0.09445	0.35851	0.94306	0.492
Mof_S 	S 	0.12901	0.25888	0.99009	0.07
Mof_N 	N 	0.1491	0.1903	0.82	-0.15
Mof_C 	C 	0.0948	0.2103	0.8553	0.086
Mof_N 	N 	0.3536	0.1601	0.6547	-0.174
Mof_C 	C 	0.0945	0.3265	0.1153	0.062
Mof_C 	C 	0.2015	0.3937	0.0013	0.018
Mof_C 	C 	0.1101	0.4469	0.8965	0.09
Mof_C 	C 	0.2056	0.339	0.8817	0.105
Mof_N 	N 	0.1189	0.4925	0.8672	-0.01
Mof_N 	N 	0.2678	0.3298	0.8489	0.061
Mof_N 	N 	0.2586	0.412	0.0345	0.448
Mof_K 	K 	0.3914	0.4866	0.963	-4.155
Mof_Re	Re	0.40555	0.14149	0.44306	0.423
Mof_S 	S 	0.37099	0.24112	0.49009	-0.077
Mof_N 	N 	0.3509	0.3097	0.32	-0.117
Mof_C 	C 	0.4052	0.2897	0.3553	0.154
Mof_N 	N 	0.1464	0.3399	0.1547	-0.172
Mof_C 	C 	0.4055	0.1735	0.6153	0.029
Mof_C 	C 	0.2985	0.1063	0.5013	0.216
Mof_C 	C 	0.3899	0.0531	0.3965	0.167
Mof_C 	C 	0.2944	0.161	0.3817	0.185
Mof_N 	N 	0.3811	0.0075	0.3672	0.048
Mof_N 	N 	0.2322	0.1702	0.3489	0.163
Mof_N 	N 	0.2414	0.088	0.5345	0.359
Mof_K 	K 	0.1086	0.0134	0.463	-9.062
Mof_Re	Re	0.90555	0.64149	0.44306	0.637
Mof_S 	S 	0.87099	0.74112	0.49009	0.045
Mof_N 	N 	0.8509	0.8097	0.32	-0.111
Mof_C 	C 	0.9052	0.7897	0.3553	0.363
Mof_N 	N 	0.6464	0.8399	0.1547	-0.163
Mof_C 	C 	0.9055	0.6735	0.6153	0.19
Mof_C 	C 	0.7985	0.6063	0.5013	0.125
Mof_C 	C 	0.8899	0.5531	0.3965	0.191
Mof_C 	C 	0.7944	0.661	0.3817	0.124
Mof_N 	N 	0.8811	0.5075	0.3672	0.058
Mof_N 	N 	0.7322	0.6702	0.3489	0.1
Mof_N 	N 	0.7414	0.588	0.5345	0.4
Mof_K 	K 	0.6086	0.5134	0.463	-5.961
Mof_Re	Re	0.40555	0.85851	0.55694	0.436
Mof_S 	S 	0.37099	0.75888	0.50991	-0.09
Mof_N 	N 	0.3509	0.6903	0.68	-0.119
Mof_C 	C 	0.4052	0.7103	0.6447	0.144
Mof_N 	N 	0.1464	0.6601	0.8453	-0.188
Mof_C 	C 	0.4055	0.8265	0.3847	0.063
Mof_C 	C 	0.2985	0.8937	0.4987	0.082
Mof_C 	C 	0.3899	0.9469	0.6035	0.109
Mof_C 	C 	0.2944	0.839	0.6183	0.095
Mof_N 	N 	0.3811	0.9925	0.6328	0.018
Mof_N 	N 	0.2322	0.8298	0.6511	0.038
Mof_N 	N 	0.2414	0.912	0.4655	0.473
Mof_K 	K 	0.1086	0.9866	0.537	-4.527
Mof_Re	Re	0.90555	0.35851	0.55694	0.631
Mof_S 	S 	0.87099	0.25888	0.50991	0.093
Mof_N 	N 	0.8509	0.1903	0.68	-0.145
Mof_C 	C 	0.9052	0.2103	0.6447	0.272
Mof_N 	N 	0.6464	0.1601	0.8453	-0.184
Mof_C 	C 	0.9055	0.3265	0.3847	0.215
Mof_C 	C 	0.7985	0.3937	0.4987	0.154
Mof_C 	C 	0.8899	0.4469	0.6035	0.196
Mof_C 	C 	0.7944	0.339	0.6183	0.134
Mof_N 	N 	0.8811	0.4925	0.6328	0.057
Mof_N 	N 	0.7322	0.3298	0.6511	0.1
Mof_N 	N 	0.7414	0.412	0.4655	0.389
Mof_K 	K 	0.6086	0.4866	0.537	-6.974
Mof_Re	Re	0.59445	0.14149	0.05694	0.372
Mof_S 	S 	0.62901	0.24112	0.00991	-0.151
Mof_N 	N 	0.6491	0.3097	0.18	-0.106
Mof_C 	C 	0.5948	0.2897	0.1447	0.184
Mof_N 	N 	0.8536	0.3399	0.3453	-0.193
Mof_C 	C 	0.5945	0.1735	0.8847	0.02
Mof_C 	C 	0.7015	0.1063	0.9987	0.375
Mof_C 	C 	0.6101	0.0531	0.1035	0.215
Mof_C 	C 	0.7056	0.161	0.1183	0.246
Mof_N 	N 	0.6189	0.0075	0.1328	0.091
Mof_N 	N 	0.7678	0.1702	0.1511	0.238
Mof_N 	N 	0.7586	0.088	0.9655	0.373
Mof_K 	K 	0.8914	0.0134	0.037	-12.569
Mof_Re	Re	0.09445	0.64149	0.05694	0.367
Mof_S 	S 	0.12901	0.74112	0.00991	-0.155
Mof_N 	N 	0.1491	0.8097	0.18	-0.089
Mof_C 	C 	0.0948	0.7897	0.1447	0.221
Mof_N 	N 	0.3536	0.8399	0.3453	-0.17
Mof_C 	C 	0.0945	0.6735	0.8847	0.011
Mof_C 	C 	0.2015	0.6063	0.9987	0.295
Mof_C 	C 	0.1101	0.5531	0.1035	0.136
Mof_C 	C 	0.2056	0.661	0.1183	0.175
Mof_N 	N 	0.1189	0.5075	0.1328	0.046
Mof_N 	N 	0.2678	0.6702	0.1511	0.132
Mof_N 	N 	0.2586	0.588	0.9655	0.366
Mof_K 	K 	0.3914	0.5134	0.037	-9.211
Mof_Tm	Tm	0.23745	0.35798	0.25	1.666
Mof_Tm	Tm	0.73745	0.85798	0.25	2.003
Mof_Tm	Tm	0.76255	0.64202	0.75	1.608
Mof_Tm	Tm	0.26255	0.14202	0.75	1.321
Mof_Tm	Tm	0.76255	0.35798	0.25	1.775
Mof_Tm	Tm	0.26255	0.85798	0.25	1.902
Mof_Tm	Tm	0.23745	0.64202	0.75	1.499
Mof_Tm	Tm	0.73745	0.14202	0.75	1.423
Mof_Re	Re	0.5	0.19772	0.95712	0.504
Mof_Re	Re	0.5	0.25242	0.07814	0.459
Mof_S 	S 	0.5	0.08605	0.9808	-0.188
Mof_S 	S 	0.5	0.16356	0.1474	-0.164
Mof_C 	C 	0.5	0.3471	0.0482	0.068
Mof_C 	C 	0.5	0.2817	0.9028	0.086
Mof_N 	N 	0.5	0.3999	0.0333	1.152
Mof_N 	N 	0.5	0.3271	0.8709	0.25
Mof_Re	Re	2.0948e-32	0.69772	0.95712	0.353
Mof_Re	Re	8.35595e-33	0.75242	0.07814	0.3
Mof_S 	S 	-1.06972e-32	0.58605	0.9808	-0.269
Mof_S 	S 	-5.17729e-33	0.66356	0.1474	-0.329
Mof_C 	C 	1.16725e-32	0.8471	0.0482	0.025
Mof_C 	C 	2.06607e-32	0.7817	0.9028	0.007
Mof_N 	N 	-7.27007e-33	0.8999	0.0333	1.222
Mof_N 	N 	4.60667e-33	0.8271	0.8709	0.12
Mof_Re	Re	0.5	0.80228	0.45712	0.44
Mof_Re	Re	0.5	0.74758	0.57814	0.459
Mof_S 	S 	0.5	0.91395	0.4808	-0.117
Mof_S 	S 	0.5	0.83644	0.6474	-0.22
Mof_C 	C 	0.5	0.6529	0.5482	0.074
Mof_C 	C 	0.5	0.7183	0.4028	0.09
Mof_N 	N 	0.5	0.6001	0.5333	1.127
Mof_N 	N 	0.5	0.6729	0.3709	0.334
Mof_Re	Re	1.03606e-32	0.30228	0.45712	0.28
Mof_Re	Re	3.0581e-33	0.24758	0.57814	0.299
Mof_S 	S 	1.84285e-32	0.41395	0.4808	-0.326
Mof_S 	S 	3.42446e-33	0.33644	0.6474	-0.356
Mof_C 	C 	-5.04289e-33	0.1529	0.5482	0.024
Mof_C 	C 	2.13063e-33	0.2183	0.4028	0.088
Mof_N 	N 	2.82092e-33	0.1001	0.5333	1.185
Mof_N 	N 	-5.98073e-33	0.1729	0.3709	0.471
Mof_Re	Re	0.5	0.19772	0.54288	0.446
Mof_Re	Re	0.5	0.25242	0.42186	0.455
Mof_S 	S 	0.5	0.08605	0.5192	-0.225
Mof_S 	S 	0.5	0.16356	0.3526	-0.177
Mof_C 	C 	0.5	0.3471	0.4518	0.084
Mof_C 	C 	0.5	0.2817	0.5972	0.102
Mof_N 	N 	0.5	0.3999	0.4667	1.136
Mof_N 	N 	0.5	0.3271	0.6291	0.347
Mof_Re	Re	1.08142e-32	0.69772	0.54288	0.272
Mof_Re	Re	1.01741e-32	0.75242	0.42186	0.293
Mof_S 	S 	2.74634e-33	0.58605	0.5192	-0.323
Mof_S 	S 	9.80772e-33	0.66356	0.3526	-0.347
Mof_C 	C 	2.62177e-32	0.8471	0.4518	0.043
Mof_C 	C 	-4.7837e-33	0.7817	0.5972	0.016
Mof_N 	N 	1.04113e-32	0.8999	0.4667	1.202
Mof_N 	N 	3.32766e-33	0.8271	0.6291	0.208
Mof_Re	Re	0.5	0.80228	0.04288	0.359
Mof_Re	Re	0.5	0.74758	0.92186	0.456
Mof_S 	S 	0.5	0.91395	0.0192	-0.177
Mof_S 	S 	0.5	0.83644	0.8526	-0.237
Mof_C 	C 	0.5	0.6529	0.9518	0.1
Mof_C 	C 	0.5	0.7183	0.0972	0.112
Mof_N 	N 	0.5	0.6001	0.9667	1.205
Mof_N 	N 	0.5	0.6729	0.1291	0.453
Mof_Re	Re	6.18378e-33	0.30228	0.04288	0.225
Mof_Re	Re	4.87623e-33	0.24758	0.92186	0.298
Mof_S 	S 	7.29956e-33	0.41395	0.0192	-0.365
Mof_S 	S 	-1.13754e-32	0.33644	0.8526	-0.369
Mof_C 	C 	2.09198e-32	0.1529	0.9518	0.046
Mof_C 	C 	-3.45717e-33	0.2183	0.0972	0.115
Mof_N 	N 	5.11341e-33	0.1001	0.9667	1.266
Mof_N 	N 	-1.30277e-33	0.1729	0.1291	0.589
Mof_O 	O 	0.1221	0	-0	7.451
Mof_O 	O 	0.6221	0.5	-0	7.082
Mof_O 	O 	0.8779	-3.97131e-33	0.5	7.595
Mof_O 	O 	0.3779	0.5	0.5	6.862
Mof_O 	O 	0.8779	0	-0	7.865
Mof_O 	O 	0.3779	0.5	-0	7.071
Mof_O 	O 	0.1221	-3.97131e-33	0.5	7.175
Mof_O 	O 	0.6221	0.5	0.5	6.874
_end
