data_functionalizedCrystal
_audit_creation_method	'EQeq! by Chris Wilmer'
_symmetry_space_group_name_H-M	'P1'
_symmetry_Int_Tables_number	1
_symmetry_cell_setting	triclinic
loop_
_symmetry_equiv_pos_as_xyz
  x,y,z
_cell_length_a	23.8212
_cell_length_b	23.8212
_cell_length_c	30.2938
_cell_angle_alpha	90
_cell_angle_beta	90
_cell_angle_gamma	120
loop_
_atom_site_label
_atom_site_type_symbol
_atom_site_fract_x
_atom_site_fract_y
_atom_site_fract_z
_atom_site_charge
Mof_O 	O 	0.322	0.55041	0.86694	-0.52
Mof_C 	C 	0.2466	0.3921	0.9483	0.005
Mof_C 	C 	0.2729	0.4471	0.9218	-0.03
Mof_H 	H 	0.3162	0.4668	0.9135	0.06
Mof_O 	O 	0.98867	0.88374	0.20027	-0.516
Mof_C 	C 	0.91327	0.72543	0.28163	0.007
Mof_C 	C 	0.93957	0.78043	0.25513	-0.032
Mof_H 	H 	0.98287	0.80013	0.24683	0.063
Mof_O 	O 	0.65533	0.21708	0.53361	-0.521
Mof_C 	C 	0.57993	0.05877	0.61497	0.003
Mof_C 	C 	0.60623	0.11377	0.58847	-0.031
Mof_H 	H 	0.64953	0.13347	0.58017	0.06
Mof_O 	O 	0.44959	0.77159	0.86694	-0.52
Mof_C 	C 	0.6079	0.8545	0.9483	0.006
Mof_C 	C 	0.5529	0.8258	0.9218	-0.031
Mof_H 	H 	0.5332	0.8494	0.9135	0.061
Mof_O 	O 	0.11626	0.10492	0.20027	-0.523
Mof_C 	C 	0.27457	0.18783	0.28163	0.003
Mof_C 	C 	0.21957	0.15913	0.25513	-0.029
Mof_H 	H 	0.19987	0.18273	0.24683	0.059
Mof_O 	O 	0.78292	0.43826	0.53361	-0.52
Mof_C 	C 	0.94123	0.52117	0.61497	0.006
Mof_C 	C 	0.88623	0.49247	0.58847	-0.03
Mof_H 	H 	0.86653	0.51607	0.58017	0.061
Mof_O 	O 	0.22841	0.678	0.86694	-0.521
Mof_C 	C 	0.1455	0.7534	0.9483	0.003
Mof_C 	C 	0.1742	0.7271	0.9218	-0.03
Mof_H 	H 	0.1506	0.6838	0.9135	0.06
Mof_O 	O 	0.89508	0.01133	0.20027	-0.522
Mof_C 	C 	0.81217	0.08673	0.28163	0.003
Mof_C 	C 	0.84087	0.06043	0.25513	-0.03
Mof_H 	H 	0.81727	0.01713	0.24683	0.059
Mof_O 	O 	0.56174	0.34467	0.53361	-0.521
Mof_C 	C 	0.47883	0.42007	0.61497	0.004
Mof_C 	C 	0.50753	0.39377	0.58847	-0.03
Mof_H 	H 	0.48393	0.35047	0.58017	0.06
Mof_O 	O 	0.44959	0.678	0.86694	-0.521
Mof_C 	C 	0.6079	0.7534	0.9483	0.005
Mof_C 	C 	0.5529	0.7271	0.9218	-0.031
Mof_H 	H 	0.5332	0.6838	0.9135	0.061
Mof_O 	O 	0.11626	0.01133	0.20027	-0.525
Mof_C 	C 	0.27457	0.08673	0.28163	0.002
Mof_C 	C 	0.21957	0.06043	0.25513	-0.029
Mof_H 	H 	0.19987	0.01713	0.24683	0.058
Mof_O 	O 	0.78292	0.34467	0.53361	-0.52
Mof_C 	C 	0.94123	0.42007	0.61497	0.005
Mof_C 	C 	0.88623	0.39377	0.58847	-0.03
Mof_H 	H 	0.86653	0.35047	0.58017	0.061
Mof_O 	O 	0.22841	0.55041	0.86694	-0.521
Mof_C 	C 	0.1455	0.3921	0.9483	0.003
Mof_C 	C 	0.1742	0.4471	0.9218	-0.03
Mof_H 	H 	0.1506	0.4668	0.9135	0.06
Mof_O 	O 	0.89508	0.88374	0.20027	-0.518
Mof_C 	C 	0.81217	0.72543	0.28163	0.006
Mof_C 	C 	0.84087	0.78043	0.25513	-0.031
Mof_H 	H 	0.81727	0.80013	0.24683	0.062
Mof_O 	O 	0.56174	0.21708	0.53361	-0.521
Mof_C 	C 	0.47883	0.05877	0.61497	0.003
Mof_C 	C 	0.50753	0.11377	0.58847	-0.031
Mof_H 	H 	0.48393	0.13347	0.58017	0.06
Mof_O 	O 	0.322	0.77159	0.86694	-0.52
Mof_C 	C 	0.2466	0.8545	0.9483	0.006
Mof_C 	C 	0.2729	0.8258	0.9218	-0.031
Mof_H 	H 	0.3162	0.8494	0.9135	0.061
Mof_O 	O 	0.98867	0.10492	0.20027	-0.518
Mof_C 	C 	0.91327	0.18783	0.28163	0.006
Mof_C 	C 	0.93957	0.15913	0.25513	-0.031
Mof_H 	H 	0.98287	0.18273	0.24683	0.062
Mof_O 	O 	0.65533	0.43826	0.53361	-0.52
Mof_C 	C 	0.57993	0.52117	0.61497	0.005
Mof_C 	C 	0.60623	0.49247	0.58847	-0.031
Mof_H 	H 	0.64953	0.51607	0.58017	0.061
Mof_Zn	Zn	-0	1.69566e-33	0.07759	1.216
Mof_O 	O 	-1.69566e-33	0	0.14164	-0.974
Mof_Zn	Zn	0.66667	0.33333	0.41092	1.219
Mof_O 	O 	0.66667	0.33333	0.47497	-0.968
Mof_Zn	Zn	0.33333	0.66667	0.74426	1.219
Mof_O 	O 	0.33333	0.66667	0.80831	-0.968
Mof_Zn	Zn	0.04443	0.08887	0.1615	1.214
Mof_O 	O 	0.0744	0.1488	0.1132	-0.527
Mof_O 	O 	0.0431	0.0862	0.05425	-0.543
Mof_C 	C 	0.0694	0.1388	0.0717	0.446
Mof_C 	C 	0.09795	0.1959	0.0454	-0.128
Mof_C 	C 	0.12875	0.2575	0.064	0.002
Mof_H 	H 	0.1311	0.2622	0.0945	0.048
Mof_C 	C 	0.15635	0.3127	0.0369	-0.011
Mof_C 	C 	0.1525	0.305	0.9899	0.008
Mof_C 	C 	0.12145	0.2429	0.971	-0.017
Mof_C 	C 	0.0945	0.189	0.9995	0
Mof_H 	H 	0.0738	0.1476	0.9875	0.048
Mof_C 	C 	0.18145	0.3629	0.9612	-0.008
Mof_C 	C 	0.23615	0.4723	0.9079	-0.074
Mof_C 	C 	0.2664	0.5328	0.8785	0.419
Mof_Zn	Zn	0.7111	0.4222	0.49483	1.215
Mof_O 	O 	0.74107	0.48213	0.44653	-0.525
Mof_O 	O 	0.70977	0.41953	0.38758	-0.54
Mof_C 	C 	0.73607	0.47213	0.40503	0.445
Mof_C 	C 	0.76462	0.52923	0.37873	-0.126
Mof_C 	C 	0.79542	0.59083	0.39733	0.001
Mof_H 	H 	0.79777	0.59553	0.42783	0.05
Mof_C 	C 	0.82302	0.64603	0.37023	-0.008
Mof_C 	C 	0.81917	0.63833	0.32323	0.008
Mof_C 	C 	0.78812	0.57623	0.30433	-0.015
Mof_C 	C 	0.76117	0.52233	0.33283	-0.001
Mof_H 	H 	0.74047	0.48093	0.32083	0.049
Mof_C 	C 	0.84812	0.69623	0.29453	-0.008
Mof_C 	C 	0.90282	0.80563	0.24123	-0.072
Mof_C 	C 	0.93307	0.86613	0.21183	0.418
Mof_Zn	Zn	0.37777	0.75554	0.82817	1.215
Mof_O 	O 	0.40773	0.81547	0.77987	-0.525
Mof_O 	O 	0.37643	0.75287	0.72092	-0.54
Mof_C 	C 	0.40273	0.80547	0.73837	0.445
Mof_C 	C 	0.43128	0.86257	0.71207	-0.126
Mof_C 	C 	0.46208	0.92417	0.73067	0.001
Mof_H 	H 	0.46443	0.92887	0.76117	0.05
Mof_C 	C 	0.48968	0.97937	0.70357	-0.008
Mof_C 	C 	0.48583	0.97167	0.65657	0.013
Mof_C 	C 	0.45478	0.90957	0.63767	-0.015
Mof_C 	C 	0.42783	0.85567	0.66617	-0
Mof_H 	H 	0.40713	0.81427	0.65417	0.049
Mof_C 	C 	0.51478	0.02957	0.62787	-0.013
Mof_C 	C 	0.56948	0.13897	0.57457	-0.074
Mof_C 	C 	0.59973	0.19947	0.54517	0.419
Mof_Zn	Zn	0.91113	0.95557	0.1615	1.218
Mof_O 	O 	0.8512	0.9256	0.1132	-0.523
Mof_O 	O 	0.9138	0.9569	0.05425	-0.535
Mof_C 	C 	0.8612	0.9306	0.0717	0.444
Mof_C 	C 	0.8041	0.90205	0.0454	-0.124
Mof_C 	C 	0.7425	0.87125	0.064	0.001
Mof_H 	H 	0.7378	0.8689	0.0945	0.05
Mof_C 	C 	0.6873	0.84365	0.0369	-0.008
Mof_C 	C 	0.695	0.8475	0.9899	0.008
Mof_C 	C 	0.7571	0.87855	0.971	-0.014
Mof_C 	C 	0.811	0.9055	0.9995	-0.001
Mof_H 	H 	0.8524	0.9262	0.9875	0.051
Mof_C 	C 	0.6371	0.81855	0.9612	-0.008
Mof_C 	C 	0.5277	0.76385	0.9079	-0.073
Mof_C 	C 	0.4672	0.7336	0.8785	0.419
Mof_Zn	Zn	0.5778	0.2889	0.49483	1.215
Mof_O 	O 	0.51787	0.25893	0.44653	-0.526
Mof_O 	O 	0.58047	0.29023	0.38758	-0.54
Mof_C 	C 	0.52787	0.26393	0.40503	0.445
Mof_C 	C 	0.47077	0.23538	0.37873	-0.127
Mof_C 	C 	0.40917	0.20458	0.39733	0.002
Mof_H 	H 	0.40447	0.20223	0.42783	0.048
Mof_C 	C 	0.35397	0.17698	0.37023	-0.011
Mof_C 	C 	0.36167	0.18083	0.32323	0.008
Mof_C 	C 	0.42377	0.21188	0.30433	-0.016
Mof_C 	C 	0.47767	0.23883	0.33283	-0
Mof_H 	H 	0.51907	0.25953	0.32083	0.049
Mof_C 	C 	0.30377	0.15188	0.29453	-0.007
Mof_C 	C 	0.19437	0.09718	0.24123	-0.076
Mof_C 	C 	0.13387	0.06693	0.21183	0.42
Mof_Zn	Zn	0.24446	0.62223	0.82817	1.215
Mof_O 	O 	0.18453	0.59227	0.77987	-0.526
Mof_O 	O 	0.24713	0.62357	0.72092	-0.54
Mof_C 	C 	0.19453	0.59727	0.73837	0.445
Mof_C 	C 	0.13743	0.56872	0.71207	-0.127
Mof_C 	C 	0.07583	0.53792	0.73067	0.001
Mof_H 	H 	0.07113	0.53557	0.76117	0.048
Mof_C 	C 	0.02063	0.51032	0.70357	-0.01
Mof_C 	C 	0.02833	0.51417	0.65657	0.003
Mof_C 	C 	0.09043	0.54522	0.63767	-0.015
Mof_C 	C 	0.14433	0.57217	0.66617	-0.001
Mof_H 	H 	0.18573	0.59287	0.65417	0.049
Mof_C 	C 	0.97043	0.48522	0.62787	-0.002
Mof_C 	C 	0.86103	0.43052	0.57457	-0.073
Mof_C 	C 	0.80053	0.40027	0.54517	0.419
Mof_Zn	Zn	0.04444	0.95557	0.1615	1.216
Mof_O 	O 	0.0744	0.9256	0.1132	-0.525
Mof_O 	O 	0.0431	0.9569	0.05425	-0.539
Mof_C 	C 	0.0694	0.9306	0.0717	0.445
Mof_C 	C 	0.09795	0.90205	0.0454	-0.127
Mof_C 	C 	0.12875	0.87125	0.064	0.002
Mof_H 	H 	0.1311	0.8689	0.0945	0.049
Mof_C 	C 	0.15635	0.84365	0.0369	-0.01
Mof_C 	C 	0.1525	0.8475	0.9899	0.009
Mof_C 	C 	0.12145	0.87855	0.971	-0.015
Mof_C 	C 	0.0945	0.9055	0.9995	0.001
Mof_H 	H 	0.0738	0.9262	0.9875	0.049
Mof_C 	C 	0.18145	0.81855	0.9612	-0.008
Mof_C 	C 	0.23615	0.76385	0.9079	-0.074
Mof_C 	C 	0.2664	0.7336	0.8785	0.419
Mof_Zn	Zn	0.7111	0.2889	0.49483	1.215
Mof_O 	O 	0.74107	0.25893	0.44653	-0.525
Mof_O 	O 	0.70977	0.29023	0.38758	-0.54
Mof_C 	C 	0.73607	0.26393	0.40503	0.445
Mof_C 	C 	0.76462	0.23538	0.37873	-0.126
Mof_C 	C 	0.79542	0.20458	0.39733	0.001
Mof_H 	H 	0.79777	0.20223	0.42783	0.049
Mof_C 	C 	0.82302	0.17698	0.37023	-0.009
Mof_C 	C 	0.81917	0.18083	0.32323	0.008
Mof_C 	C 	0.78812	0.21188	0.30433	-0.015
Mof_C 	C 	0.76117	0.23883	0.33283	-0.001
Mof_H 	H 	0.74047	0.25953	0.32083	0.049
Mof_C 	C 	0.84812	0.15188	0.29453	-0.008
Mof_C 	C 	0.90282	0.09718	0.24123	-0.074
Mof_C 	C 	0.93307	0.06693	0.21183	0.419
Mof_Zn	Zn	0.37777	0.62223	0.82817	1.215
Mof_O 	O 	0.40773	0.59227	0.77987	-0.526
Mof_O 	O 	0.37643	0.62357	0.72092	-0.54
Mof_C 	C 	0.40273	0.59727	0.73837	0.445
Mof_C 	C 	0.43128	0.56872	0.71207	-0.126
Mof_C 	C 	0.46208	0.53792	0.73067	0.001
Mof_H 	H 	0.46443	0.53557	0.76117	0.049
Mof_C 	C 	0.48968	0.51032	0.70357	-0.009
Mof_C 	C 	0.48583	0.51417	0.65657	0.008
Mof_C 	C 	0.45478	0.54522	0.63767	-0.015
Mof_C 	C 	0.42783	0.57217	0.66617	-0
Mof_H 	H 	0.40713	0.59287	0.65417	0.049
Mof_C 	C 	0.51478	0.48522	0.62787	-0.008
Mof_C 	C 	0.56948	0.43052	0.57457	-0.074
Mof_C 	C 	0.59973	0.40027	0.54517	0.419
Mof_O 	O 	0.55041	0.322	0.13306	-0.521
Mof_C 	C 	0.3921	0.2466	0.0517	0.004
Mof_C 	C 	0.4471	0.2729	0.0782	-0.03
Mof_H 	H 	0.4668	0.3162	0.0865	0.06
Mof_O 	O 	0.21708	0.65533	0.46639	-0.521
Mof_C 	C 	0.05877	0.57993	0.38503	0.003
Mof_C 	C 	0.11377	0.60623	0.41153	-0.031
Mof_H 	H 	0.13347	0.64953	0.41983	0.06
Mof_O 	O 	0.88374	0.98867	0.79973	-0.516
Mof_C 	C 	0.72543	0.91327	0.71837	0.007
Mof_C 	C 	0.78043	0.93957	0.74487	-0.032
Mof_H 	H 	0.80013	0.98287	0.75317	0.063
Mof_O 	O 	0.77159	0.44959	0.13306	-0.52
Mof_C 	C 	0.8545	0.6079	0.0517	0.006
Mof_C 	C 	0.8258	0.5529	0.0782	-0.031
Mof_H 	H 	0.8494	0.5332	0.0865	0.061
Mof_O 	O 	0.43826	0.78292	0.46639	-0.52
Mof_C 	C 	0.52117	0.94123	0.38503	0.006
Mof_C 	C 	0.49247	0.88623	0.41153	-0.03
Mof_H 	H 	0.51607	0.86653	0.41983	0.061
Mof_O 	O 	0.10492	0.11626	0.79973	-0.523
Mof_C 	C 	0.18783	0.27457	0.71837	0.003
Mof_C 	C 	0.15913	0.21957	0.74487	-0.029
Mof_H 	H 	0.18273	0.19987	0.75317	0.059
Mof_O 	O 	0.678	0.22841	0.13306	-0.521
Mof_C 	C 	0.7534	0.1455	0.0517	0.003
Mof_C 	C 	0.7271	0.1742	0.0782	-0.03
Mof_H 	H 	0.6838	0.1506	0.0865	0.06
Mof_O 	O 	0.34467	0.56174	0.46639	-0.521
Mof_C 	C 	0.42007	0.47883	0.38503	0.004
Mof_C 	C 	0.39377	0.50753	0.41153	-0.03
Mof_H 	H 	0.35047	0.48393	0.41983	0.06
Mof_O 	O 	0.01133	0.89508	0.79973	-0.522
Mof_C 	C 	0.08673	0.81217	0.71837	0.003
Mof_C 	C 	0.06043	0.84087	0.74487	-0.03
Mof_H 	H 	0.01713	0.81727	0.75317	0.059
Mof_O 	O 	0.678	0.44959	0.13306	-0.521
Mof_C 	C 	0.7534	0.6079	0.0517	0.005
Mof_C 	C 	0.7271	0.5529	0.0782	-0.031
Mof_H 	H 	0.6838	0.5332	0.0865	0.061
Mof_O 	O 	0.34467	0.78292	0.46639	-0.52
Mof_C 	C 	0.42007	0.94123	0.38503	0.005
Mof_C 	C 	0.39377	0.88623	0.41153	-0.03
Mof_H 	H 	0.35047	0.86653	0.41983	0.061
Mof_O 	O 	0.01133	0.11626	0.79973	-0.524
Mof_C 	C 	0.08673	0.27457	0.71837	0.002
Mof_C 	C 	0.06043	0.21957	0.74487	-0.029
Mof_H 	H 	0.01713	0.19987	0.75317	0.058
Mof_O 	O 	0.55041	0.22841	0.13306	-0.521
Mof_C 	C 	0.3921	0.1455	0.0517	0.003
Mof_C 	C 	0.4471	0.1742	0.0782	-0.03
Mof_H 	H 	0.4668	0.1506	0.0865	0.06
Mof_O 	O 	0.21708	0.56174	0.46639	-0.521
Mof_C 	C 	0.05877	0.47883	0.38503	0.003
Mof_C 	C 	0.11377	0.50753	0.41153	-0.031
Mof_H 	H 	0.13347	0.48393	0.41983	0.06
Mof_O 	O 	0.88374	0.89508	0.79973	-0.518
Mof_C 	C 	0.72543	0.81217	0.71837	0.006
Mof_C 	C 	0.78043	0.84087	0.74487	-0.031
Mof_H 	H 	0.80013	0.81727	0.75317	0.062
Mof_O 	O 	0.77159	0.322	0.13306	-0.52
Mof_C 	C 	0.8545	0.2466	0.0517	0.006
Mof_C 	C 	0.8258	0.2729	0.0782	-0.031
Mof_H 	H 	0.8494	0.3162	0.0865	0.061
Mof_O 	O 	0.43826	0.65533	0.46639	-0.52
Mof_C 	C 	0.52117	0.57993	0.38503	0.005
Mof_C 	C 	0.49247	0.60623	0.41153	-0.031
Mof_H 	H 	0.51607	0.64953	0.41983	0.061
Mof_O 	O 	0.10492	0.98867	0.79973	-0.518
Mof_C 	C 	0.18783	0.91327	0.71837	0.006
Mof_C 	C 	0.15913	0.93957	0.74487	-0.031
Mof_H 	H 	0.18273	0.98287	0.75317	0.062
Mof_Zn	Zn	-0	0	0.92241	1.216
Mof_O 	O 	2.71306e-32	0	0.85836	-0.974
Mof_Zn	Zn	0.66667	0.33333	0.25574	1.219
Mof_O 	O 	0.66667	0.33333	0.19169	-0.968
Mof_Zn	Zn	0.33333	0.66667	0.58908	1.219
Mof_O 	O 	0.33333	0.66667	0.52503	-0.968
Mof_Zn	Zn	0.08887	0.04443	0.8385	1.214
Mof_O 	O 	0.1488	0.0744	0.8868	-0.527
Mof_O 	O 	0.0862	0.0431	0.94575	-0.543
Mof_C 	C 	0.1388	0.0694	0.9283	0.446
Mof_C 	C 	0.1959	0.09795	0.9546	-0.128
Mof_C 	C 	0.2575	0.12875	0.936	0.002
Mof_H 	H 	0.2622	0.1311	0.9055	0.048
Mof_C 	C 	0.3127	0.15635	0.9631	-0.011
Mof_C 	C 	0.305	0.1525	0.0101	0.008
Mof_C 	C 	0.2429	0.12145	0.029	-0.017
Mof_C 	C 	0.189	0.0945	0.0005	0
Mof_H 	H 	0.1476	0.0738	0.0125	0.048
Mof_C 	C 	0.3629	0.18145	0.0388	-0.008
Mof_C 	C 	0.4723	0.23615	0.0921	-0.074
Mof_C 	C 	0.5328	0.2664	0.1215	0.419
Mof_Zn	Zn	0.75554	0.37777	0.17183	1.215
Mof_O 	O 	0.81547	0.40773	0.22013	-0.525
Mof_O 	O 	0.75287	0.37643	0.27908	-0.54
Mof_C 	C 	0.80547	0.40273	0.26163	0.445
Mof_C 	C 	0.86257	0.43128	0.28793	-0.126
Mof_C 	C 	0.92417	0.46208	0.26933	0.001
Mof_H 	H 	0.92887	0.46443	0.23883	0.05
Mof_C 	C 	0.97937	0.48968	0.29643	-0.008
Mof_C 	C 	0.97167	0.48583	0.34343	0.013
Mof_C 	C 	0.90957	0.45478	0.36233	-0.015
Mof_C 	C 	0.85567	0.42783	0.33383	-0
Mof_H 	H 	0.81427	0.40713	0.34583	0.049
Mof_C 	C 	0.02957	0.51478	0.37213	-0.013
Mof_C 	C 	0.13897	0.56948	0.42543	-0.074
Mof_C 	C 	0.19947	0.59973	0.45483	0.419
Mof_Zn	Zn	0.4222	0.7111	0.50517	1.215
Mof_O 	O 	0.48213	0.74107	0.55347	-0.525
Mof_O 	O 	0.41953	0.70977	0.61242	-0.54
Mof_C 	C 	0.47213	0.73607	0.59497	0.445
Mof_C 	C 	0.52923	0.76462	0.62127	-0.126
Mof_C 	C 	0.59083	0.79542	0.60267	0.001
Mof_H 	H 	0.59553	0.79777	0.57217	0.05
Mof_C 	C 	0.64603	0.82302	0.62977	-0.008
Mof_C 	C 	0.63833	0.81917	0.67677	0.008
Mof_C 	C 	0.57623	0.78812	0.69567	-0.015
Mof_C 	C 	0.52233	0.76117	0.66717	-0.001
Mof_H 	H 	0.48093	0.74047	0.67917	0.049
Mof_C 	C 	0.69623	0.84812	0.70547	-0.008
Mof_C 	C 	0.80563	0.90282	0.75877	-0.072
Mof_C 	C 	0.86613	0.93307	0.78817	0.418
Mof_Zn	Zn	0.95556	0.91113	0.8385	1.218
Mof_O 	O 	0.9256	0.8512	0.8868	-0.523
Mof_O 	O 	0.9569	0.9138	0.94575	-0.535
Mof_C 	C 	0.9306	0.8612	0.9283	0.444
Mof_C 	C 	0.90205	0.8041	0.9546	-0.124
Mof_C 	C 	0.87125	0.7425	0.936	0.001
Mof_H 	H 	0.8689	0.7378	0.9055	0.05
Mof_C 	C 	0.84365	0.6873	0.9631	-0.008
Mof_C 	C 	0.8475	0.695	0.0101	0.008
Mof_C 	C 	0.87855	0.7571	0.029	-0.014
Mof_C 	C 	0.9055	0.811	0.0005	-0.001
Mof_H 	H 	0.9262	0.8524	0.0125	0.051
Mof_C 	C 	0.81855	0.6371	0.0388	-0.008
Mof_C 	C 	0.76385	0.5277	0.0921	-0.073
Mof_C 	C 	0.7336	0.4672	0.1215	0.419
Mof_Zn	Zn	0.62223	0.24446	0.17183	1.215
Mof_O 	O 	0.59227	0.18453	0.22013	-0.526
Mof_O 	O 	0.62357	0.24713	0.27908	-0.54
Mof_C 	C 	0.59727	0.19453	0.26163	0.445
Mof_C 	C 	0.56872	0.13743	0.28793	-0.127
Mof_C 	C 	0.53792	0.07583	0.26933	0.001
Mof_H 	H 	0.53557	0.07113	0.23883	0.048
Mof_C 	C 	0.51032	0.02063	0.29643	-0.01
Mof_C 	C 	0.51417	0.02833	0.34343	0.003
Mof_C 	C 	0.54522	0.09043	0.36233	-0.015
Mof_C 	C 	0.57217	0.14433	0.33383	-0.001
Mof_H 	H 	0.59287	0.18573	0.34583	0.049
Mof_C 	C 	0.48522	0.97043	0.37213	-0.002
Mof_C 	C 	0.43052	0.86103	0.42543	-0.073
Mof_C 	C 	0.40027	0.80053	0.45483	0.419
Mof_Zn	Zn	0.2889	0.5778	0.50517	1.215
Mof_O 	O 	0.25893	0.51787	0.55347	-0.526
Mof_O 	O 	0.29023	0.58047	0.61242	-0.54
Mof_C 	C 	0.26393	0.52787	0.59497	0.445
Mof_C 	C 	0.23538	0.47077	0.62127	-0.127
Mof_C 	C 	0.20458	0.40917	0.60267	0.002
Mof_H 	H 	0.20223	0.40447	0.57217	0.048
Mof_C 	C 	0.17698	0.35397	0.62977	-0.011
Mof_C 	C 	0.18083	0.36167	0.67677	0.008
Mof_C 	C 	0.21188	0.42377	0.69567	-0.016
Mof_C 	C 	0.23883	0.47767	0.66717	-0
Mof_H 	H 	0.25953	0.51907	0.67917	0.049
Mof_C 	C 	0.15188	0.30377	0.70547	-0.007
Mof_C 	C 	0.09718	0.19437	0.75877	-0.076
Mof_C 	C 	0.06693	0.13387	0.78817	0.42
Mof_Zn	Zn	0.95556	0.04443	0.8385	1.216
Mof_O 	O 	0.9256	0.0744	0.8868	-0.525
Mof_O 	O 	0.9569	0.0431	0.94575	-0.539
Mof_C 	C 	0.9306	0.0694	0.9283	0.445
Mof_C 	C 	0.90205	0.09795	0.9546	-0.127
Mof_C 	C 	0.87125	0.12875	0.936	0.002
Mof_H 	H 	0.8689	0.1311	0.9055	0.049
Mof_C 	C 	0.84365	0.15635	0.9631	-0.01
Mof_C 	C 	0.8475	0.1525	0.0101	0.009
Mof_C 	C 	0.87855	0.12145	0.029	-0.015
Mof_C 	C 	0.9055	0.0945	0.0005	0.001
Mof_H 	H 	0.9262	0.0738	0.0125	0.049
Mof_C 	C 	0.81855	0.18145	0.0388	-0.008
Mof_C 	C 	0.76385	0.23615	0.0921	-0.074
Mof_C 	C 	0.7336	0.2664	0.1215	0.419
Mof_Zn	Zn	0.62223	0.37777	0.17183	1.215
Mof_O 	O 	0.59227	0.40773	0.22013	-0.526
Mof_O 	O 	0.62357	0.37643	0.27908	-0.54
Mof_C 	C 	0.59727	0.40273	0.26163	0.445
Mof_C 	C 	0.56872	0.43128	0.28793	-0.126
Mof_C 	C 	0.53792	0.46208	0.26933	0.001
Mof_H 	H 	0.53557	0.46443	0.23883	0.049
Mof_C 	C 	0.51032	0.48968	0.29643	-0.009
Mof_C 	C 	0.51417	0.48583	0.34343	0.008
Mof_C 	C 	0.54522	0.45478	0.36233	-0.015
Mof_C 	C 	0.57217	0.42783	0.33383	-0
Mof_H 	H 	0.59287	0.40713	0.34583	0.049
Mof_C 	C 	0.48522	0.51478	0.37213	-0.008
Mof_C 	C 	0.43052	0.56948	0.42543	-0.074
Mof_C 	C 	0.40027	0.59973	0.45483	0.419
Mof_Zn	Zn	0.2889	0.7111	0.50517	1.215
Mof_O 	O 	0.25893	0.74107	0.55347	-0.525
Mof_O 	O 	0.29023	0.70977	0.61242	-0.54
Mof_C 	C 	0.26393	0.73607	0.59497	0.445
Mof_C 	C 	0.23538	0.76462	0.62127	-0.126
Mof_C 	C 	0.20458	0.79542	0.60267	0.001
Mof_H 	H 	0.20223	0.79777	0.57217	0.049
Mof_C 	C 	0.17698	0.82302	0.62977	-0.009
Mof_C 	C 	0.18083	0.81917	0.67677	0.008
Mof_C 	C 	0.21188	0.78812	0.69567	-0.015
Mof_C 	C 	0.23883	0.76117	0.66717	-0.001
Mof_H 	H 	0.25953	0.74047	0.67917	0.049
Mof_C 	C 	0.15188	0.84812	0.70547	-0.008
Mof_C 	C 	0.09718	0.90282	0.75877	-0.073
Mof_C 	C 	0.06693	0.93307	0.78817	0.419
_end
