data_functionalizedCrystal
_audit_creation_method	'EQeq! by Chris Wilmer'
_symmetry_space_group_name_H-M	'P1'
_symmetry_Int_Tables_number	1
_symmetry_cell_setting	triclinic
loop_
_symmetry_equiv_pos_as_xyz
  x,y,z
_cell_length_a	20.7366
_cell_length_b	20.7366
_cell_length_c	20.7366
_cell_angle_alpha	90
_cell_angle_beta	90
_cell_angle_gamma	90
loop_
_atom_site_label
_atom_site_type_symbol
_atom_site_fract_x
_atom_site_fract_y
_atom_site_fract_z
_atom_site_charge
Mof_Zr	Zr	0.11955	0	-0	3.235
Mof_Zr	Zr	0.11955	0.5	0.5	3.295
Mof_Zr	Zr	0.61955	0	0.5	3.236
Mof_Zr	Zr	0.61955	0.5	-0	3.236
Mof_Zr	Zr	0.88045	0	-0	3.18
Mof_Zr	Zr	0.88045	0.5	0.5	3.236
Mof_Zr	Zr	0.38045	0	0.5	3.236
Mof_Zr	Zr	0.38045	0.5	-0	3.236
Mof_Zr	Zr	1.41549e-33	0.11955	-0	3.235
Mof_Zr	Zr	-9.44925e-33	0.61955	0.5	3.236
Mof_Zr	Zr	0.5	0.11955	0.5	3.294
Mof_Zr	Zr	0.5	0.61955	-0	3.235
Mof_Zr	Zr	-0	0.88045	-0	3.179
Mof_Zr	Zr	7.53667e-33	0.38045	0.5	3.235
Mof_Zr	Zr	0.5	0.88045	0.5	3.235
Mof_Zr	Zr	0.5	0.38045	-0	3.235
Mof_Zr	Zr	1.86373e-33	0	0.11955	3.234
Mof_Zr	Zr	-9.001e-33	0.5	0.61955	3.235
Mof_Zr	Zr	0.5	-5.66197e-33	0.61955	3.235
Mof_Zr	Zr	0.5	0.5	0.11955	3.294
Mof_Zr	Zr	3.30116e-33	0	0.88045	3.179
Mof_Zr	Zr	7.08843e-33	0.5	0.38045	3.235
Mof_Zr	Zr	0.5	2.83099e-33	0.38045	3.235
Mof_Zr	Zr	0.5	0.5	0.88045	3.235
Mof_O 	O 	0.1716	0.0935	-0	-0.666
Mof_C 	C 	0.2666	0.1858	-0	0.008
Mof_H 	H 	0.2785	0.1415	-0	-0.009
Mof_O 	O 	0.1975	0.0734	-0	-0.109
Mof_O 	O 	0.1716	0.5935	0.5	-0.877
Mof_C 	C 	0.2666	0.6858	0.5	-0.025
Mof_H 	H 	0.2785	0.6415	0.5	0.044
Mof_O 	O 	0.1975	0.5734	0.5	0.181
Mof_O 	O 	0.6716	0.0935	0.5	-0.916
Mof_C 	C 	0.7666	0.1858	0.5	-0.013
Mof_H 	H 	0.7785	0.1415	0.5	0.059
Mof_O 	O 	0.6975	0.0734	0.5	0.216
Mof_O 	O 	0.6716	0.5935	-0	-0.556
Mof_C 	C 	0.7666	0.6858	-0	-0.16
Mof_H 	H 	0.7785	0.6415	-0	0.083
Mof_O 	O 	0.6975	0.5734	-0	-0.175
Mof_O 	O 	0.8284	0.9065	-0	-1.217
Mof_C 	C 	0.7334	0.8142	-0	0.191
Mof_H 	H 	0.7215	0.8585	-0	-0.027
Mof_O 	O 	0.8025	0.9266	-0	0.505
Mof_O 	O 	0.8284	0.4065	0.5	-1.059
Mof_C 	C 	0.7334	0.3142	0.5	0.12
Mof_H 	H 	0.7215	0.3585	0.5	-0.014
Mof_O 	O 	0.8025	0.4266	0.5	0.299
Mof_O 	O 	0.3284	0.9065	0.5	-1.294
Mof_C 	C 	0.2334	0.8142	0.5	0.127
Mof_H 	H 	0.2215	0.8585	0.5	0.032
Mof_O 	O 	0.3025	0.9266	0.5	0.707
Mof_O 	O 	0.3284	0.4065	-0	-0.549
Mof_C 	C 	0.2334	0.3142	-0	-0.065
Mof_H 	H 	0.2215	0.3585	-0	0.018
Mof_O 	O 	0.3025	0.4266	-0	-0.195
Mof_O 	O 	0.8284	0.0935	-0	-0.847
Mof_C 	C 	0.7334	0.1858	-0	0.101
Mof_H 	H 	0.7215	0.1415	-0	-0.049
Mof_O 	O 	0.8025	0.0734	-0	0.01
Mof_O 	O 	0.8284	0.5935	0.5	-1.044
Mof_C 	C 	0.7334	0.6858	0.5	0.064
Mof_H 	H 	0.7215	0.6415	0.5	0.006
Mof_O 	O 	0.8025	0.5734	0.5	0.288
Mof_O 	O 	0.3284	0.0935	0.5	-0.906
Mof_C 	C 	0.2334	0.1858	0.5	0.03
Mof_H 	H 	0.2215	0.1415	0.5	0.013
Mof_O 	O 	0.3025	0.0734	0.5	0.195
Mof_O 	O 	0.3284	0.5935	-0	-0.54
Mof_C 	C 	0.2334	0.6858	-0	-0.122
Mof_H 	H 	0.2215	0.6415	-0	0.038
Mof_O 	O 	0.3025	0.5734	-0	-0.201
Mof_O 	O 	0.1716	0.9065	-0	-1.061
Mof_C 	C 	0.2666	0.8142	-0	0.108
Mof_H 	H 	0.2785	0.8585	-0	0.009
Mof_O 	O 	0.1975	0.9266	-0	0.41
Mof_O 	O 	0.1716	0.4065	0.5	-0.886
Mof_C 	C 	0.2666	0.3142	0.5	0.03
Mof_H 	H 	0.2785	0.3585	0.5	0.025
Mof_O 	O 	0.1975	0.4266	0.5	0.188
Mof_O 	O 	0.6716	0.9065	0.5	-1.294
Mof_C 	C 	0.7666	0.8142	0.5	0.082
Mof_H 	H 	0.7785	0.8585	0.5	0.077
Mof_O 	O 	0.6975	0.9266	0.5	0.717
Mof_O 	O 	0.6716	0.4065	-0	-0.561
Mof_C 	C 	0.7666	0.3142	-0	-0.11
Mof_H 	H 	0.7785	0.3585	-0	0.065
Mof_O 	O 	0.6975	0.4266	-0	-0.171
Mof_O 	O 	-3.57178e-34	0.1716	0.0935	-0.666
Mof_C 	C 	-3.54984e-33	0.2666	0.1858	0.008
Mof_H 	H 	-2.30045e-33	0.2785	0.1415	-0.009
Mof_O 	O 	-4.32541e-34	0.1975	0.0734	-0.109
Mof_O 	O 	2.22527e-33	0.6716	0.5935	-0.556
Mof_C 	C 	1.38953e-32	0.7666	0.6858	-0.16
Mof_H 	H 	2.40524e-33	0.7785	0.6415	0.083
Mof_O 	O 	-3.51207e-33	0.6975	0.5734	-0.175
Mof_O 	O 	0.5	0.1716	0.5935	-0.877
Mof_C 	C 	0.5	0.2666	0.6858	-0.025
Mof_H 	H 	0.5	0.2785	0.6415	0.044
Mof_O 	O 	0.5	0.1975	0.5734	0.181
Mof_O 	O 	0.5	0.6716	0.0935	-0.916
Mof_C 	C 	0.5	0.7666	0.1858	-0.013
Mof_H 	H 	0.5	0.7785	0.1415	0.059
Mof_O 	O 	0.5	0.6975	0.0734	0.216
Mof_O 	O 	1.47228e-32	0.8284	0.9065	-1.217
Mof_C 	C 	-8.27118e-33	0.7334	0.8142	0.191
Mof_H 	H 	-1.9429e-32	0.7215	0.8585	-0.027
Mof_O 	O 	3.47419e-33	0.8025	0.9266	0.505
Mof_O 	O 	-4.13784e-33	0.3284	0.4065	-0.549
Mof_C 	C 	6.84003e-33	0.2334	0.3142	-0.065
Mof_H 	H 	1.34416e-33	0.2215	0.3585	0.018
Mof_O 	O 	-4.06248e-33	0.3025	0.4266	-0.195
Mof_O 	O 	0.5	0.8284	0.4065	-1.059
Mof_C 	C 	0.5	0.7334	0.3142	0.12
Mof_H 	H 	0.5	0.7215	0.3585	-0.014
Mof_O 	O 	0.5	0.8025	0.4266	0.299
Mof_O 	O 	0.5	0.3284	0.9065	-1.294
Mof_C 	C 	0.5	0.2334	0.8142	0.127
Mof_H 	H 	0.5	0.2215	0.8585	0.032
Mof_O 	O 	0.5	0.3025	0.9266	0.707
Mof_O 	O 	9.55127e-33	0.8284	0.0935	-0.847
Mof_C 	C 	2.11213e-33	0.7334	0.1858	0.101
Mof_H 	H 	5.3054e-34	0.7215	0.1415	-0.049
Mof_O 	O 	-4.32541e-34	0.8025	0.0734	0.01
Mof_O 	O 	2.22527e-33	0.3284	0.5935	-0.54
Mof_C 	C 	2.57134e-33	0.2334	0.6858	-0.122
Mof_H 	H 	-1.45807e-32	0.2215	0.6415	0.038
Mof_O 	O 	7.81188e-33	0.3025	0.5734	-0.201
Mof_O 	O 	0.5	0.8284	0.5935	-1.044
Mof_C 	C 	0.5	0.7334	0.6858	0.064
Mof_H 	H 	0.5	0.7215	0.6415	0.006
Mof_O 	O 	0.5	0.8025	0.5734	0.288
Mof_O 	O 	0.5	0.3284	0.0935	-0.906
Mof_C 	C 	0.5	0.2334	0.1858	0.03
Mof_H 	H 	0.5	0.2215	0.1415	0.013
Mof_O 	O 	0.5	0.3025	0.0734	0.195
Mof_O 	O 	3.39883e-33	0.1716	0.9065	-1.061
Mof_C 	C 	-2.60921e-33	0.2666	0.8142	0.108
Mof_H 	H 	3.21886e-33	0.2785	0.8585	0.009
Mof_O 	O 	3.47419e-33	0.1975	0.9266	0.41
Mof_O 	O 	1.52413e-33	0.6716	0.4065	-0.561
Mof_C 	C 	4.00905e-33	0.7666	0.3142	-0.11
Mof_H 	H 	4.17515e-33	0.7785	0.3585	0.065
Mof_O 	O 	7.26147e-33	0.6975	0.4266	-0.171
Mof_O 	O 	0.5	0.1716	0.4065	-0.886
Mof_C 	C 	0.5	0.2666	0.3142	0.03
Mof_H 	H 	0.5	0.2785	0.3585	0.025
Mof_O 	O 	0.5	0.1975	0.4266	0.188
Mof_O 	O 	0.5	0.6716	0.9065	-1.294
Mof_C 	C 	0.5	0.7666	0.8142	0.082
Mof_H 	H 	0.5	0.7785	0.8585	0.077
Mof_O 	O 	0.5	0.6975	0.9266	0.717
Mof_O 	O 	0.0935	0	0.1716	-0.666
Mof_C 	C 	0.1858	-2.83099e-33	0.2666	0.008
Mof_H 	H 	0.1415	2.83099e-33	0.2785	-0.009
Mof_O 	O 	0.0734	-1.41549e-33	0.1975	-0.109
Mof_O 	O 	0.0935	0.5	0.6716	-0.916
Mof_C 	C 	0.1858	0.5	0.7666	-0.013
Mof_H 	H 	0.1415	0.5	0.7785	0.059
Mof_O 	O 	0.0734	0.5	0.6975	0.216
Mof_O 	O 	0.5935	0	0.6716	-0.556
Mof_C 	C 	0.6858	-5.66197e-33	0.7666	-0.16
Mof_H 	H 	0.6415	0	0.7785	0.083
Mof_O 	O 	0.5734	0	0.6975	-0.175
Mof_O 	O 	0.5935	0.5	0.1716	-0.877
Mof_C 	C 	0.6858	0.5	0.2666	-0.025
Mof_H 	H 	0.6415	0.5	0.2785	0.044
Mof_O 	O 	0.5734	0.5	0.1975	0.181
Mof_O 	O 	0.9065	0	0.8284	-1.217
Mof_C 	C 	0.8142	0	0.7334	0.191
Mof_H 	H 	0.8585	-5.66197e-33	0.7215	-0.027
Mof_O 	O 	0.9266	-5.66197e-33	0.8025	0.505
Mof_O 	O 	0.9065	0.5	0.3284	-1.294
Mof_C 	C 	0.8142	0.5	0.2334	0.127
Mof_H 	H 	0.8585	0.5	0.2215	0.032
Mof_O 	O 	0.9266	0.5	0.3025	0.707
Mof_O 	O 	0.4065	0	0.3284	-0.549
Mof_C 	C 	0.3142	0	0.2334	-0.065
Mof_H 	H 	0.3585	0	0.2215	0.018
Mof_O 	O 	0.4266	0	0.3025	-0.195
Mof_O 	O 	0.4065	0.5	0.8284	-1.059
Mof_C 	C 	0.3142	0.5	0.7334	0.12
Mof_H 	H 	0.3585	0.5	0.7215	-0.014
Mof_O 	O 	0.4266	0.5	0.8025	0.299
Mof_O 	O 	0.0935	0	0.8284	-0.847
Mof_C 	C 	0.1858	0	0.7334	0.101
Mof_H 	H 	0.1415	-5.66197e-33	0.7215	-0.049
Mof_O 	O 	0.0734	-5.66197e-33	0.8025	0.01
Mof_O 	O 	0.0935	0.5	0.3284	-0.906
Mof_C 	C 	0.1858	0.5	0.2334	0.03
Mof_H 	H 	0.1415	0.5	0.2215	0.013
Mof_O 	O 	0.0734	0.5	0.3025	0.195
Mof_O 	O 	0.5935	0	0.3284	-0.54
Mof_C 	C 	0.6858	0	0.2334	-0.122
Mof_H 	H 	0.6415	0	0.2215	0.038
Mof_O 	O 	0.5734	0	0.3025	-0.201
Mof_O 	O 	0.5935	0.5	0.8284	-1.044
Mof_C 	C 	0.6858	0.5	0.7334	0.064
Mof_H 	H 	0.6415	0.5	0.7215	0.006
Mof_O 	O 	0.5734	0.5	0.8025	0.288
Mof_O 	O 	0.9065	0	0.1716	-1.061
Mof_C 	C 	0.8142	-2.83099e-33	0.2666	0.108
Mof_H 	H 	0.8585	2.83099e-33	0.2785	0.009
Mof_O 	O 	0.9266	-1.41549e-33	0.1975	0.41
Mof_O 	O 	0.9065	0.5	0.6716	-1.294
Mof_C 	C 	0.8142	0.5	0.7666	0.082
Mof_H 	H 	0.8585	0.5	0.7785	0.077
Mof_O 	O 	0.9266	0.5	0.6975	0.717
Mof_O 	O 	0.4065	0	0.6716	-0.561
Mof_C 	C 	0.3142	-5.66197e-33	0.7666	-0.11
Mof_H 	H 	0.3585	0	0.7785	0.065
Mof_O 	O 	0.4266	0	0.6975	-0.171
Mof_O 	O 	0.4065	0.5	0.1716	-0.886
Mof_C 	C 	0.3142	0.5	0.2666	0.03
Mof_H 	H 	0.3585	0.5	0.2785	0.025
Mof_O 	O 	0.4266	0.5	0.1975	0.188
Mof_O 	O 	0.0935	0.1716	-0	-0.666
Mof_C 	C 	0.1858	0.2666	-0	0.008
Mof_H 	H 	0.1415	0.2785	-0	-0.009
Mof_O 	O 	0.0734	0.1975	-0	-0.109
Mof_O 	O 	0.0935	0.6716	0.5	-0.916
Mof_C 	C 	0.1858	0.7666	0.5	-0.013
Mof_H 	H 	0.1415	0.7785	0.5	0.059
Mof_O 	O 	0.0734	0.6975	0.5	0.216
Mof_O 	O 	0.5935	0.1716	0.5	-0.877
Mof_C 	C 	0.6858	0.2666	0.5	-0.025
Mof_H 	H 	0.6415	0.2785	0.5	0.044
Mof_O 	O 	0.5734	0.1975	0.5	0.181
Mof_O 	O 	0.5935	0.6716	-0	-0.556
Mof_C 	C 	0.6858	0.7666	-0	-0.16
Mof_H 	H 	0.6415	0.7785	-0	0.083
Mof_O 	O 	0.5734	0.6975	-0	-0.175
Mof_O 	O 	0.9065	0.8284	-0	-1.217
Mof_C 	C 	0.8142	0.7334	-0	0.191
Mof_H 	H 	0.8585	0.7215	-0	-0.027
Mof_O 	O 	0.9266	0.8025	-0	0.505
Mof_O 	O 	0.9065	0.3284	0.5	-1.294
Mof_C 	C 	0.8142	0.2334	0.5	0.127
Mof_H 	H 	0.8585	0.2215	0.5	0.032
Mof_O 	O 	0.9266	0.3025	0.5	0.707
Mof_O 	O 	0.4065	0.8284	0.5	-1.059
Mof_C 	C 	0.3142	0.7334	0.5	0.12
Mof_H 	H 	0.3585	0.7215	0.5	-0.014
Mof_O 	O 	0.4266	0.8025	0.5	0.299
Mof_O 	O 	0.4065	0.3284	-0	-0.549
Mof_C 	C 	0.3142	0.2334	-0	-0.065
Mof_H 	H 	0.3585	0.2215	-0	0.018
Mof_O 	O 	0.4266	0.3025	-0	-0.195
Mof_O 	O 	0.0935	0.8284	-0	-0.847
Mof_C 	C 	0.1858	0.7334	-0	0.101
Mof_H 	H 	0.1415	0.7215	-0	-0.049
Mof_O 	O 	0.0734	0.8025	-0	0.01
Mof_O 	O 	0.0935	0.3284	0.5	-0.906
Mof_C 	C 	0.1858	0.2334	0.5	0.03
Mof_H 	H 	0.1415	0.2215	0.5	0.013
Mof_O 	O 	0.0734	0.3025	0.5	0.195
Mof_O 	O 	0.5935	0.8284	0.5	-1.044
Mof_C 	C 	0.6858	0.7334	0.5	0.064
Mof_H 	H 	0.6415	0.7215	0.5	0.006
Mof_O 	O 	0.5734	0.8025	0.5	0.288
Mof_O 	O 	0.5935	0.3284	-0	-0.54
Mof_C 	C 	0.6858	0.2334	-0	-0.122
Mof_H 	H 	0.6415	0.2215	-0	0.038
Mof_O 	O 	0.5734	0.3025	-0	-0.201
Mof_O 	O 	0.9065	0.1716	-0	-1.061
Mof_C 	C 	0.8142	0.2666	-0	0.108
Mof_H 	H 	0.8585	0.2785	-0	0.009
Mof_O 	O 	0.9266	0.1975	-0	0.41
Mof_O 	O 	0.9065	0.6716	0.5	-1.294
Mof_C 	C 	0.8142	0.7666	0.5	0.082
Mof_H 	H 	0.8585	0.7785	0.5	0.077
Mof_O 	O 	0.9266	0.6975	0.5	0.717
Mof_O 	O 	0.4065	0.1716	0.5	-0.886
Mof_C 	C 	0.3142	0.2666	0.5	0.03
Mof_H 	H 	0.3585	0.2785	0.5	0.025
Mof_O 	O 	0.4266	0.1975	0.5	0.188
Mof_O 	O 	0.4065	0.6716	-0	-0.561
Mof_C 	C 	0.3142	0.7666	-0	-0.11
Mof_H 	H 	0.3585	0.7785	-0	0.065
Mof_O 	O 	0.4266	0.6975	-0	-0.171
Mof_O 	O 	0.1716	0	0.9065	-1.061
Mof_C 	C 	0.2666	-1.13239e-32	0.8142	0.108
Mof_H 	H 	0.2785	1.13239e-32	0.8585	0.009
Mof_O 	O 	0.1975	0	0.9266	0.41
Mof_O 	O 	0.1716	0.5	0.4065	-0.886
Mof_C 	C 	0.2666	0.5	0.3142	0.03
Mof_H 	H 	0.2785	0.5	0.3585	0.025
Mof_O 	O 	0.1975	0.5	0.4266	0.188
Mof_O 	O 	0.6716	0	0.4065	-0.561
Mof_C 	C 	0.7666	2.83099e-33	0.3142	-0.11
Mof_H 	H 	0.7785	-2.83099e-33	0.3585	0.065
Mof_O 	O 	0.6975	0	0.4266	-0.171
Mof_O 	O 	0.6716	0.5	0.9065	-1.294
Mof_C 	C 	0.7666	0.5	0.8142	0.082
Mof_H 	H 	0.7785	0.5	0.8585	0.077
Mof_O 	O 	0.6975	0.5	0.9266	0.717
Mof_O 	O 	0.8284	0	0.0935	-0.847
Mof_C 	C 	0.7334	1.41549e-33	0.1858	0.101
Mof_H 	H 	0.7215	0	0.1415	-0.049
Mof_O 	O 	0.8025	0	0.0734	0.01
Mof_O 	O 	0.8284	0.5	0.5935	-1.044
Mof_C 	C 	0.7334	0.5	0.6858	0.064
Mof_H 	H 	0.7215	0.5	0.6415	0.006
Mof_O 	O 	0.8025	0.5	0.5734	0.288
Mof_O 	O 	0.3284	0	0.5935	-0.54
Mof_C 	C 	0.2334	-5.66197e-33	0.6858	-0.122
Mof_H 	H 	0.2215	0	0.6415	0.038
Mof_O 	O 	0.3025	5.66197e-33	0.5734	-0.201
Mof_O 	O 	0.3284	0.5	0.0935	-0.906
Mof_C 	C 	0.2334	0.5	0.1858	0.03
Mof_H 	H 	0.2215	0.5	0.1415	0.013
Mof_O 	O 	0.3025	0.5	0.0734	0.195
Mof_O 	O 	0.8284	0	0.9065	-1.217
Mof_C 	C 	0.7334	-1.13239e-32	0.8142	0.191
Mof_H 	H 	0.7215	1.13239e-32	0.8585	-0.027
Mof_O 	O 	0.8025	0	0.9266	0.505
Mof_O 	O 	0.8284	0.5	0.4065	-1.059
Mof_C 	C 	0.7334	0.5	0.3142	0.12
Mof_H 	H 	0.7215	0.5	0.3585	-0.014
Mof_O 	O 	0.8025	0.5	0.4266	0.299
Mof_O 	O 	0.3284	0	0.4065	-0.549
Mof_C 	C 	0.2334	2.83099e-33	0.3142	-0.065
Mof_H 	H 	0.2215	-2.83099e-33	0.3585	0.018
Mof_O 	O 	0.3025	0	0.4266	-0.195
Mof_O 	O 	0.3284	0.5	0.9065	-1.294
Mof_C 	C 	0.2334	0.5	0.8142	0.127
Mof_H 	H 	0.2215	0.5	0.8585	0.032
Mof_O 	O 	0.3025	0.5	0.9266	0.707
Mof_O 	O 	0.1716	0	0.0935	-0.666
Mof_C 	C 	0.2666	1.41549e-33	0.1858	0.008
Mof_H 	H 	0.2785	0	0.1415	-0.009
Mof_O 	O 	0.1975	0	0.0734	-0.109
Mof_O 	O 	0.1716	0.5	0.5935	-0.877
Mof_C 	C 	0.2666	0.5	0.6858	-0.025
Mof_H 	H 	0.2785	0.5	0.6415	0.044
Mof_O 	O 	0.1975	0.5	0.5734	0.181
Mof_O 	O 	0.6716	0	0.5935	-0.556
Mof_C 	C 	0.7666	-5.66197e-33	0.6858	-0.16
Mof_H 	H 	0.7785	0	0.6415	0.083
Mof_O 	O 	0.6975	5.66197e-33	0.5734	-0.175
Mof_O 	O 	0.6716	0.5	0.0935	-0.916
Mof_C 	C 	0.7666	0.5	0.1858	-0.013
Mof_H 	H 	0.7785	0.5	0.1415	0.059
Mof_O 	O 	0.6975	0.5	0.0734	0.216
Mof_O 	O 	8.76798e-33	0.0935	0.8284	-0.847
Mof_C 	C 	2.74981e-33	0.1858	0.7334	0.101
Mof_H 	H 	2.70519e-33	0.1415	0.7215	-0.049
Mof_O 	O 	-2.65308e-33	0.0734	0.8025	0.01
Mof_O 	O 	4.06229e-33	0.5935	0.3284	-0.54
Mof_C 	C 	3.7061e-33	0.6858	0.2334	-0.122
Mof_H 	H 	-1.04935e-32	0.6415	0.2215	0.038
Mof_O 	O 	6.79617e-33	0.5734	0.3025	-0.201
Mof_O 	O 	0.5	0.0935	0.3284	-0.906
Mof_C 	C 	0.5	0.1858	0.2334	0.03
Mof_H 	H 	0.5	0.1415	0.2215	0.013
Mof_O 	O 	0.5	0.0734	0.3025	0.195
Mof_O 	O 	0.5	0.5935	0.8284	-1.044
Mof_C 	C 	0.5	0.6858	0.7334	0.064
Mof_H 	H 	0.5	0.6415	0.7215	0.006
Mof_O 	O 	0.5	0.5734	0.8025	0.288
Mof_O 	O 	2.05889e-33	0.9065	0.1716	-1.061
Mof_C 	C 	-4.66238e-33	0.8142	0.2666	0.108
Mof_H 	H 	-1.78678e-33	0.8585	0.2785	0.009
Mof_O 	O 	6.40248e-33	0.9266	0.1975	0.41
Mof_O 	O 	2.5181e-33	0.4065	0.6716	-0.561
Mof_C 	C 	2.87429e-33	0.3142	0.7666	-0.11
Mof_H 	H 	2.91891e-33	0.3585	0.7785	0.065
Mof_O 	O 	8.27718e-33	0.4266	0.6975	-0.171
Mof_O 	O 	0.5	0.9065	0.6716	-1.294
Mof_C 	C 	0.5	0.8142	0.7666	0.082
Mof_H 	H 	0.5	0.8585	0.7785	0.077
Mof_O 	O 	0.5	0.9266	0.6975	0.717
Mof_O 	O 	0.5	0.4065	0.1716	-0.886
Mof_C 	C 	0.5	0.3142	0.2666	0.03
Mof_H 	H 	0.5	0.3585	0.2785	0.025
Mof_O 	O 	0.5	0.4266	0.1975	0.188
Mof_O 	O 	-7.72096e-34	0.0935	0.1716	-0.666
Mof_C 	C 	-4.66238e-33	0.1858	0.2666	0.008
Mof_H 	H 	-1.78678e-33	0.1415	0.2785	-0.009
Mof_O 	O 	-6.74987e-34	0.0734	0.1975	-0.109
Mof_O 	O 	2.5181e-33	0.5935	0.6716	-0.556
Mof_C 	C 	8.53626e-33	0.6858	0.7666	-0.16
Mof_H 	H 	-2.74307e-33	0.6415	0.7785	0.083
Mof_O 	O 	-3.04677e-33	0.5734	0.6975	-0.175
Mof_O 	O 	0.5	0.0935	0.6716	-0.916
Mof_C 	C 	0.5	0.1858	0.7666	-0.013
Mof_H 	H 	0.5	0.1415	0.7785	0.059
Mof_O 	O 	0.5	0.0734	0.6975	0.216
Mof_O 	O 	0.5	0.5935	0.1716	-0.877
Mof_C 	C 	0.5	0.6858	0.2666	-0.025
Mof_H 	H 	0.5	0.6415	0.2785	0.044
Mof_O 	O 	0.5	0.5734	0.1975	0.181
Mof_O 	O 	1.44299e-32	0.9065	0.8284	-1.217
Mof_C 	C 	-2.91216e-33	0.8142	0.7334	0.191
Mof_H 	H 	-8.61875e-33	0.8585	0.7215	-0.027
Mof_O 	O 	3.00889e-33	0.9266	0.8025	0.505
Mof_O 	O 	-1.59968e-33	0.4065	0.3284	-0.549
Mof_C 	C 	6.53708e-33	0.3142	0.2334	-0.065
Mof_H 	H 	3.66148e-33	0.3585	0.2215	0.018
Mof_O 	O 	-4.52778e-33	0.4266	0.3025	-0.195
Mof_O 	O 	0.5	0.9065	0.3284	-1.294
Mof_C 	C 	0.5	0.8142	0.2334	0.127
Mof_H 	H 	0.5	0.8585	0.2215	0.032
Mof_O 	O 	0.5	0.9266	0.3025	0.707
Mof_O 	O 	0.5	0.4065	0.8284	-1.059
Mof_C 	C 	0.5	0.3142	0.7334	0.12
Mof_H 	H 	0.5	0.3585	0.7215	-0.014
Mof_O 	O 	0.5	0.4266	0.8025	0.299
Mof_C 	C 	0.1519	0.1519	-0	0.433
Mof_C 	C 	0.2028	0.2028	-0	-0.141
Mof_C 	C 	0.1519	0.6519	0.5	0.681
Mof_C 	C 	0.2028	0.7028	0.5	-0.135
Mof_C 	C 	0.6519	0.1519	0.5	0.681
Mof_C 	C 	0.7028	0.2028	0.5	-0.135
Mof_C 	C 	0.6519	0.6519	-0	0.305
Mof_C 	C 	0.7028	0.7028	-0	0.02
Mof_C 	C 	0.8481	0.8481	-0	0.934
Mof_C 	C 	0.7972	0.7972	-0	-0.38
Mof_C 	C 	0.8481	0.3481	0.5	0.942
Mof_C 	C 	0.7972	0.2972	0.5	-0.303
Mof_C 	C 	0.3481	0.8481	0.5	0.942
Mof_C 	C 	0.2972	0.7972	0.5	-0.303
Mof_C 	C 	0.3481	0.3481	-0	0.313
Mof_C 	C 	0.2972	0.2972	-0	-0.068
Mof_C 	C 	0.8481	0.1519	-0	0.695
Mof_C 	C 	0.7972	0.2028	-0	-0.267
Mof_C 	C 	0.8481	0.6519	0.5	0.928
Mof_C 	C 	0.7972	0.7028	0.5	-0.255
Mof_C 	C 	0.3481	0.1519	0.5	0.688
Mof_C 	C 	0.2972	0.2028	0.5	-0.181
Mof_C 	C 	0.3481	0.6519	-0	0.307
Mof_C 	C 	0.2972	0.7028	-0	-0.021
Mof_C 	C 	0.1519	0.8481	-0	0.695
Mof_C 	C 	0.2028	0.7972	-0	-0.267
Mof_C 	C 	0.1519	0.3481	0.5	0.688
Mof_C 	C 	0.2028	0.2972	0.5	-0.181
Mof_C 	C 	0.6519	0.8481	0.5	0.928
Mof_C 	C 	0.7028	0.7972	0.5	-0.255
Mof_C 	C 	0.6519	0.3481	-0	0.307
Mof_C 	C 	0.7028	0.2972	-0	-0.021
Mof_C 	C 	5.69534e-34	0.1519	0.1519	0.433
Mof_C 	C 	3.59136e-33	0.2028	0.2028	-0.141
Mof_C 	C 	1.37682e-32	0.6519	0.6519	0.305
Mof_C 	C 	-3.02689e-33	0.7028	0.7028	0.02
Mof_C 	C 	0.5	0.1519	0.6519	0.681
Mof_C 	C 	0.5	0.2028	0.7028	-0.135
Mof_C 	C 	0.5	0.6519	0.1519	0.681
Mof_C 	C 	0.5	0.7028	0.2028	-0.135
Mof_C 	C 	3.17987e-33	0.8481	0.8481	0.934
Mof_C 	C 	2.98902e-33	0.7972	0.7972	-0.38
Mof_C 	C 	-4.35681e-33	0.3481	0.3481	0.313
Mof_C 	C 	-4.54765e-33	0.2972	0.2972	-0.068
Mof_C 	C 	0.5	0.8481	0.3481	0.942
Mof_C 	C 	0.5	0.7972	0.2972	-0.303
Mof_C 	C 	0.5	0.3481	0.8481	0.942
Mof_C 	C 	0.5	0.2972	0.7972	-0.303
Mof_C 	C 	-2.26145e-33	0.8481	0.1519	0.695
Mof_C 	C 	3.59136e-33	0.7972	0.2028	-0.267
Mof_C 	C 	-3.21774e-33	0.3481	0.6519	0.307
Mof_C 	C 	-3.02689e-33	0.2972	0.7028	-0.021
Mof_C 	C 	0.5	0.8481	0.6519	0.928
Mof_C 	C 	0.5	0.7972	0.7028	-0.255
Mof_C 	C 	0.5	0.3481	0.1519	0.688
Mof_C 	C 	0.5	0.2972	0.2028	-0.181
Mof_C 	C 	3.17987e-33	0.1519	0.8481	0.695
Mof_C 	C 	2.98902e-33	0.2028	0.7972	-0.267
Mof_C 	C 	1.30517e-33	0.6519	0.3481	0.307
Mof_C 	C 	1.11432e-33	0.7028	0.2972	-0.021
Mof_C 	C 	0.5	0.1519	0.3481	0.688
Mof_C 	C 	0.5	0.2028	0.2972	-0.181
Mof_C 	C 	0.5	0.6519	0.8481	0.928
Mof_C 	C 	0.5	0.7028	0.7972	-0.255
Mof_C 	C 	0.1519	0	0.1519	0.433
Mof_C 	C 	0.2028	0	0.2028	-0.141
Mof_C 	C 	0.1519	0.5	0.6519	0.681
Mof_C 	C 	0.2028	0.5	0.7028	-0.135
Mof_C 	C 	0.6519	0	0.6519	0.305
Mof_C 	C 	0.7028	5.66197e-33	0.7028	0.02
Mof_C 	C 	0.6519	0.5	0.1519	0.681
Mof_C 	C 	0.7028	0.5	0.2028	-0.135
Mof_C 	C 	0.8481	0	0.8481	0.934
Mof_C 	C 	0.7972	0	0.7972	-0.38
Mof_C 	C 	0.8481	0.5	0.3481	0.942
Mof_C 	C 	0.7972	0.5	0.2972	-0.303
Mof_C 	C 	0.3481	0	0.3481	0.313
Mof_C 	C 	0.2972	0	0.2972	-0.068
Mof_C 	C 	0.3481	0.5	0.8481	0.942
Mof_C 	C 	0.2972	0.5	0.7972	-0.303
Mof_C 	C 	0.1519	0	0.8481	0.695
Mof_C 	C 	0.2028	0	0.7972	-0.267
Mof_C 	C 	0.1519	0.5	0.3481	0.688
Mof_C 	C 	0.2028	0.5	0.2972	-0.181
Mof_C 	C 	0.6519	0	0.3481	0.307
Mof_C 	C 	0.7028	0	0.2972	-0.021
Mof_C 	C 	0.6519	0.5	0.8481	0.928
Mof_C 	C 	0.7028	0.5	0.7972	-0.255
Mof_C 	C 	0.8481	0	0.1519	0.695
Mof_C 	C 	0.7972	0	0.2028	-0.267
Mof_C 	C 	0.8481	0.5	0.6519	0.928
Mof_C 	C 	0.7972	0.5	0.7028	-0.255
Mof_C 	C 	0.3481	0	0.6519	0.307
Mof_C 	C 	0.2972	5.66197e-33	0.7028	-0.021
Mof_C 	C 	0.3481	0.5	0.1519	0.688
Mof_C 	C 	0.2972	0.5	0.2028	-0.181
Mof_O 	O 	0.068	0.068	0.068	6.143
Mof_O 	O 	0.0507	0.0507	0.0507	-6.329
Mof_H 	H 	0.0953	0.0953	0.0953	-1.872
Mof_O 	O 	0.068	0.568	0.568	3.445
Mof_O 	O 	0.0507	0.5507	0.5507	-3.904
Mof_H 	H 	0.0953	0.5953	0.5953	-1.058
Mof_O 	O 	0.568	0.068	0.568	3.445
Mof_O 	O 	0.5507	0.0507	0.5507	-3.904
Mof_H 	H 	0.5953	0.0953	0.5953	-1.058
Mof_O 	O 	0.568	0.568	0.068	3.445
Mof_O 	O 	0.5507	0.5507	0.0507	-3.904
Mof_H 	H 	0.5953	0.5953	0.0953	-1.058
Mof_O 	O 	0.932	0.932	0.068	0.464
Mof_O 	O 	0.9493	0.9493	0.0507	-1.136
Mof_H 	H 	0.9047	0.9047	0.0953	-0.04
Mof_O 	O 	0.932	0.432	0.568	0.408
Mof_O 	O 	0.9493	0.4493	0.5507	-1.132
Mof_H 	H 	0.9047	0.4047	0.5953	-0.085
Mof_O 	O 	0.432	0.932	0.568	0.408
Mof_O 	O 	0.4493	0.9493	0.5507	-1.132
Mof_H 	H 	0.4047	0.9047	0.5953	-0.085
Mof_O 	O 	0.432	0.432	0.068	3.46
Mof_O 	O 	0.4493	0.4493	0.0507	-3.917
Mof_H 	H 	0.4047	0.4047	0.0953	-1.068
Mof_O 	O 	0.932	0.068	0.932	0.464
Mof_O 	O 	0.9493	0.0507	0.9493	-1.136
Mof_H 	H 	0.9047	0.0953	0.9047	-0.04
Mof_O 	O 	0.932	0.568	0.432	0.408
Mof_O 	O 	0.9493	0.5507	0.4493	-1.132
Mof_H 	H 	0.9047	0.5953	0.4047	-0.085
Mof_O 	O 	0.432	0.068	0.432	3.46
Mof_O 	O 	0.4493	0.0507	0.4493	-3.917
Mof_H 	H 	0.4047	0.0953	0.4047	-1.068
Mof_O 	O 	0.432	0.568	0.932	0.408
Mof_O 	O 	0.4493	0.5507	0.9493	-1.132
Mof_H 	H 	0.4047	0.5953	0.9047	-0.085
Mof_O 	O 	0.068	0.932	0.932	0.464
Mof_O 	O 	0.0507	0.9493	0.9493	-1.136
Mof_H 	H 	0.0953	0.9047	0.9047	-0.04
Mof_O 	O 	0.068	0.432	0.432	3.46
Mof_O 	O 	0.0507	0.4493	0.4493	-3.917
Mof_H 	H 	0.0953	0.4047	0.4047	-1.068
Mof_O 	O 	0.568	0.932	0.432	0.408
Mof_O 	O 	0.5507	0.9493	0.4493	-1.132
Mof_H 	H 	0.5953	0.9047	0.4047	-0.085
Mof_O 	O 	0.568	0.432	0.932	0.408
Mof_O 	O 	0.5507	0.4493	0.9493	-1.132
Mof_H 	H 	0.5953	0.4047	0.9047	-0.085
Mof_O 	O 	0.068	0.068	0.932	3.404
Mof_O 	O 	0.0507	0.0507	0.9493	-3.818
Mof_H 	H 	0.0953	0.0953	0.9047	-0.984
Mof_O 	O 	0.068	0.568	0.432	3.453
Mof_O 	O 	0.0507	0.5507	0.4493	-3.911
Mof_H 	H 	0.0953	0.5953	0.4047	-1.063
Mof_O 	O 	0.568	0.068	0.432	3.453
Mof_O 	O 	0.5507	0.0507	0.4493	-3.911
Mof_H 	H 	0.5953	0.0953	0.4047	-1.063
Mof_O 	O 	0.568	0.568	0.932	0.389
Mof_O 	O 	0.5507	0.5507	0.9493	-1.116
Mof_H 	H 	0.5953	0.5953	0.9047	-0.078
Mof_O 	O 	0.932	0.932	0.932	-2.676
Mof_O 	O 	0.9493	0.9493	0.9493	1.719
Mof_H 	H 	0.9047	0.9047	0.9047	0.959
Mof_O 	O 	0.932	0.432	0.432	0.426
Mof_O 	O 	0.9493	0.4493	0.4493	-1.147
Mof_H 	H 	0.9047	0.4047	0.4047	-0.092
Mof_O 	O 	0.432	0.932	0.432	0.426
Mof_O 	O 	0.4493	0.9493	0.4493	-1.147
Mof_H 	H 	0.4047	0.9047	0.4047	-0.092
Mof_O 	O 	0.432	0.432	0.932	0.426
Mof_O 	O 	0.4493	0.4493	0.9493	-1.147
Mof_H 	H 	0.4047	0.4047	0.9047	-0.092
Mof_O 	O 	0.068	0.932	0.068	3.404
Mof_O 	O 	0.0507	0.9493	0.0507	-3.818
Mof_H 	H 	0.0953	0.9047	0.0953	-0.984
Mof_O 	O 	0.068	0.432	0.568	3.453
Mof_O 	O 	0.0507	0.4493	0.5507	-3.911
Mof_H 	H 	0.0953	0.4047	0.5953	-1.063
Mof_O 	O 	0.568	0.932	0.568	0.389
Mof_O 	O 	0.5507	0.9493	0.5507	-1.116
Mof_H 	H 	0.5953	0.9047	0.5953	-0.078
Mof_O 	O 	0.568	0.432	0.068	3.453
Mof_O 	O 	0.5507	0.4493	0.0507	-3.911
Mof_H 	H 	0.5953	0.4047	0.0953	-1.063
Mof_O 	O 	0.932	0.068	0.068	3.404
Mof_O 	O 	0.9493	0.0507	0.0507	-3.818
Mof_H 	H 	0.9047	0.0953	0.0953	-0.984
Mof_O 	O 	0.932	0.568	0.568	0.389
Mof_O 	O 	0.9493	0.5507	0.5507	-1.116
Mof_H 	H 	0.9047	0.5953	0.5953	-0.078
Mof_O 	O 	0.432	0.068	0.568	3.453
Mof_O 	O 	0.4493	0.0507	0.5507	-3.911
Mof_H 	H 	0.4047	0.0953	0.5953	-1.063
Mof_O 	O 	0.432	0.568	0.068	3.453
Mof_O 	O 	0.4493	0.5507	0.0507	-3.911
Mof_H 	H 	0.4047	0.5953	0.0953	-1.063
_end
