data_functionalizedCrystal
_audit_creation_method	'EQeq! by Chris Wilmer'
_symmetry_space_group_name_H-M	'P1'
_symmetry_Int_Tables_number	1
_symmetry_cell_setting	triclinic
loop_
_symmetry_equiv_pos_as_xyz
  x,y,z
_cell_length_a	32.2441
_cell_length_b	32.2441
_cell_length_c	32.2441
_cell_angle_alpha	60
_cell_angle_beta	60
_cell_angle_gamma	60
loop_
_atom_site_label
_atom_site_type_symbol
_atom_site_fract_x
_atom_site_fract_y
_atom_site_fract_z
_atom_site_charge
Mof_Zn	Zn	0.52593	0.34299	0.15657	1.172
Mof_Zn	Zn	0.34299	0.52593	0.97451	1.172
Mof_Zn	Zn	0.15657	0.97451	0.52593	1.172
Mof_Zn	Zn	0.97451	0.15657	0.34299	1.172
Mof_Zn	Zn	0.52593	0.15657	0.97451	1.172
Mof_Zn	Zn	0.34299	0.97451	0.15657	1.172
Mof_Zn	Zn	0.15657	0.52593	0.34299	1.173
Mof_Zn	Zn	0.97451	0.34299	0.52593	1.173
Mof_Zn	Zn	0.52593	0.97451	0.34299	1.173
Mof_Zn	Zn	0.34299	0.15657	0.52593	1.173
Mof_Zn	Zn	0.15657	0.34299	0.97451	1.173
Mof_Zn	Zn	0.97451	0.52593	0.15657	1.173
Mof_Zn	Zn	0.65701	0.47407	0.84343	1.173
Mof_Zn	Zn	0.47407	0.65701	0.02549	1.173
Mof_Zn	Zn	0.02549	0.84343	0.47407	1.173
Mof_Zn	Zn	0.84343	0.02549	0.65701	1.173
Mof_Zn	Zn	0.84343	0.47407	0.02549	1.173
Mof_Zn	Zn	0.02549	0.65701	0.84343	1.173
Mof_Zn	Zn	0.47407	0.84343	0.65701	1.173
Mof_Zn	Zn	0.65701	0.02549	0.47407	1.173
Mof_Zn	Zn	0.02549	0.47407	0.65701	1.173
Mof_Zn	Zn	0.84343	0.65701	0.47407	1.173
Mof_Zn	Zn	0.65701	0.84343	0.02549	1.173
Mof_Zn	Zn	0.47407	0.02549	0.84343	1.173
Mof_Zn	Zn	0.47407	0.65701	0.84343	1.173
Mof_Zn	Zn	0.65701	0.47407	0.02549	1.173
Mof_Zn	Zn	0.84343	0.02549	0.47407	1.173
Mof_Zn	Zn	0.02549	0.84343	0.65701	1.173
Mof_Zn	Zn	0.47407	0.84343	0.02549	1.173
Mof_Zn	Zn	0.65701	0.02549	0.84343	1.173
Mof_Zn	Zn	0.84343	0.47407	0.65701	1.173
Mof_Zn	Zn	0.02549	0.65701	0.47407	1.173
Mof_Zn	Zn	0.47407	0.02549	0.65701	1.173
Mof_Zn	Zn	0.65701	0.84343	0.47407	1.173
Mof_Zn	Zn	0.84343	0.65701	0.02549	1.173
Mof_Zn	Zn	0.02549	0.47407	0.84343	1.173
Mof_Zn	Zn	0.34299	0.52593	0.15657	1.173
Mof_Zn	Zn	0.52593	0.34299	0.97451	1.173
Mof_Zn	Zn	0.97451	0.15657	0.52593	1.173
Mof_Zn	Zn	0.15657	0.97451	0.34299	1.173
Mof_Zn	Zn	0.15657	0.52593	0.97451	1.173
Mof_Zn	Zn	0.97451	0.34299	0.15657	1.173
Mof_Zn	Zn	0.52593	0.15657	0.34299	1.173
Mof_Zn	Zn	0.34299	0.97451	0.52593	1.173
Mof_Zn	Zn	0.97451	0.52593	0.34299	1.173
Mof_Zn	Zn	0.15657	0.34299	0.52593	1.173
Mof_Zn	Zn	0.34299	0.15657	0.97451	1.173
Mof_Zn	Zn	0.52593	0.97451	0.15657	1.173
Mof_H 	H 	0.4297	0.3007	0.2063	0.039
Mof_H 	H 	0.3685	0.2811	0.2123	0.027
Mof_H 	H 	0.6407	0.2623	0.1139	0.044
Mof_H 	H 	0.7194	0.2326	0.0684	0.026
Mof_H 	H 	0.4996	0.3574	0.2626	0.047
Mof_H 	H 	0.4629	0.3889	0.3269	0.029
Mof_H 	H 	0.6121	0.3311	0.1893	0.043
Mof_H 	H 	0.6562	0.3094	0.2364	0.028
Mof_H 	H 	0.3007	0.4297	0.0633	0.039
Mof_H 	H 	0.2811	0.3685	0.1381	0.027
Mof_H 	H 	0.2623	0.6407	0.9831	0.043
Mof_H 	H 	0.2326	0.7194	0.9796	0.026
Mof_H 	H 	0.3574	0.4996	0.8804	0.047
Mof_H 	H 	0.3889	0.4629	0.8213	0.029
Mof_H 	H 	0.3311	0.6121	0.8675	0.043
Mof_H 	H 	0.3094	0.6562	0.798	0.028
Mof_H 	H 	0.2063	0.0633	0.4297	0.039
Mof_H 	H 	0.2123	0.1381	0.3685	0.027
Mof_H 	H 	0.1139	0.9831	0.6407	0.043
Mof_H 	H 	0.0684	0.9796	0.7194	0.026
Mof_H 	H 	0.2626	0.8804	0.4996	0.047
Mof_H 	H 	0.3269	0.8213	0.4629	0.029
Mof_H 	H 	0.1893	0.8675	0.6121	0.043
Mof_H 	H 	0.2364	0.798	0.6562	0.028
Mof_H 	H 	0.0633	0.2063	0.3007	0.039
Mof_H 	H 	0.1381	0.2123	0.2811	0.027
Mof_H 	H 	0.9831	0.1139	0.2623	0.043
Mof_H 	H 	0.9796	0.0684	0.2326	0.025
Mof_H 	H 	0.8804	0.2626	0.3574	0.047
Mof_H 	H 	0.8213	0.3269	0.3889	0.029
Mof_H 	H 	0.8675	0.1893	0.3311	0.043
Mof_H 	H 	0.798	0.2364	0.3094	0.028
Mof_H 	H 	0.4297	0.2063	0.0633	0.039
Mof_H 	H 	0.3685	0.2123	0.1381	0.027
Mof_H 	H 	0.6407	0.1139	0.9831	0.043
Mof_H 	H 	0.7194	0.0684	0.9796	0.026
Mof_H 	H 	0.4996	0.2626	0.8804	0.047
Mof_H 	H 	0.4629	0.3269	0.8213	0.029
Mof_H 	H 	0.6121	0.1893	0.8675	0.043
Mof_H 	H 	0.6562	0.2364	0.798	0.028
Mof_H 	H 	0.3007	0.0633	0.2063	0.039
Mof_H 	H 	0.2811	0.1381	0.2123	0.027
Mof_H 	H 	0.2623	0.9831	0.1139	0.043
Mof_H 	H 	0.2326	0.9796	0.0684	0.025
Mof_H 	H 	0.3574	0.8804	0.2626	0.047
Mof_H 	H 	0.3889	0.8213	0.3269	0.029
Mof_H 	H 	0.3311	0.8675	0.1893	0.043
Mof_H 	H 	0.3094	0.798	0.2364	0.028
Mof_H 	H 	0.2063	0.4297	0.3007	0.039
Mof_H 	H 	0.2123	0.3685	0.2811	0.027
Mof_H 	H 	0.1139	0.6407	0.2623	0.044
Mof_H 	H 	0.0684	0.7194	0.2326	0.026
Mof_H 	H 	0.2626	0.4996	0.3574	0.047
Mof_H 	H 	0.3269	0.4629	0.3889	0.029
Mof_H 	H 	0.1893	0.6121	0.3311	0.043
Mof_H 	H 	0.2364	0.6562	0.3094	0.028
Mof_H 	H 	0.0633	0.3007	0.4297	0.039
Mof_H 	H 	0.1381	0.2811	0.3685	0.027
Mof_H 	H 	0.9831	0.2623	0.6407	0.043
Mof_H 	H 	0.9796	0.2326	0.7194	0.026
Mof_H 	H 	0.8804	0.3574	0.4996	0.047
Mof_H 	H 	0.8213	0.3889	0.4629	0.029
Mof_H 	H 	0.8675	0.3311	0.6121	0.043
Mof_H 	H 	0.798	0.3094	0.6562	0.028
Mof_H 	H 	0.4297	0.0633	0.3007	0.039
Mof_H 	H 	0.3685	0.1381	0.2811	0.027
Mof_H 	H 	0.6407	0.9831	0.2623	0.043
Mof_H 	H 	0.7194	0.9796	0.2326	0.026
Mof_H 	H 	0.4996	0.8804	0.3574	0.047
Mof_H 	H 	0.4629	0.8213	0.3889	0.029
Mof_H 	H 	0.6121	0.8675	0.3311	0.043
Mof_H 	H 	0.6562	0.798	0.3094	0.028
Mof_H 	H 	0.3007	0.2063	0.4297	0.039
Mof_H 	H 	0.2811	0.2123	0.3685	0.027
Mof_H 	H 	0.2623	0.1139	0.6407	0.044
Mof_H 	H 	0.2326	0.0684	0.7194	0.026
Mof_H 	H 	0.3574	0.2626	0.4996	0.047
Mof_H 	H 	0.3889	0.3269	0.4629	0.029
Mof_H 	H 	0.3311	0.1893	0.6121	0.043
Mof_H 	H 	0.3094	0.2364	0.6562	0.028
Mof_H 	H 	0.2063	0.3007	0.0633	0.039
Mof_H 	H 	0.2123	0.2811	0.1381	0.027
Mof_H 	H 	0.1139	0.2623	0.9831	0.043
Mof_H 	H 	0.0684	0.2326	0.9796	0.025
Mof_H 	H 	0.2626	0.3574	0.8804	0.047
Mof_H 	H 	0.3269	0.3889	0.8213	0.029
Mof_H 	H 	0.1893	0.3311	0.8675	0.043
Mof_H 	H 	0.2364	0.3094	0.798	0.028
Mof_H 	H 	0.0633	0.4297	0.2063	0.039
Mof_H 	H 	0.1381	0.3685	0.2123	0.027
Mof_H 	H 	0.9831	0.6407	0.1139	0.043
Mof_H 	H 	0.9796	0.7194	0.0684	0.026
Mof_H 	H 	0.8804	0.4996	0.2626	0.047
Mof_H 	H 	0.8213	0.4629	0.3269	0.029
Mof_H 	H 	0.8675	0.6121	0.1893	0.043
Mof_H 	H 	0.798	0.6562	0.2364	0.028
Mof_H 	H 	0.6993	0.5703	0.7937	0.039
Mof_H 	H 	0.7189	0.6315	0.7877	0.027
Mof_H 	H 	0.7377	0.3593	0.8861	0.044
Mof_H 	H 	0.7674	0.2806	0.9316	0.026
Mof_H 	H 	0.6426	0.5004	0.7374	0.047
Mof_H 	H 	0.6111	0.5371	0.6731	0.029
Mof_H 	H 	0.6689	0.3879	0.8107	0.043
Mof_H 	H 	0.6906	0.3438	0.7636	0.028
Mof_H 	H 	0.5703	0.6993	0.9367	0.039
Mof_H 	H 	0.6315	0.7189	0.8619	0.027
Mof_H 	H 	0.3593	0.7377	0.0169	0.043
Mof_H 	H 	0.2806	0.7674	0.0204	0.026
Mof_H 	H 	0.5004	0.6426	0.1196	0.047
Mof_H 	H 	0.5371	0.6111	0.1787	0.029
Mof_H 	H 	0.3879	0.6689	0.1325	0.043
Mof_H 	H 	0.3438	0.6906	0.202	0.028
Mof_H 	H 	0.9367	0.7937	0.5703	0.039
Mof_H 	H 	0.8619	0.7877	0.6315	0.027
Mof_H 	H 	0.0169	0.8861	0.3593	0.043
Mof_H 	H 	0.0204	0.9316	0.2806	0.026
Mof_H 	H 	0.1196	0.7374	0.5004	0.047
Mof_H 	H 	0.1787	0.6731	0.5371	0.029
Mof_H 	H 	0.1325	0.8107	0.3879	0.043
Mof_H 	H 	0.202	0.7636	0.3438	0.028
Mof_H 	H 	0.7937	0.9367	0.6993	0.039
Mof_H 	H 	0.7877	0.8619	0.7189	0.027
Mof_H 	H 	0.8861	0.0169	0.7377	0.043
Mof_H 	H 	0.9316	0.0204	0.7674	0.025
Mof_H 	H 	0.7374	0.1196	0.6426	0.047
Mof_H 	H 	0.6731	0.1787	0.6111	0.029
Mof_H 	H 	0.8107	0.1325	0.6689	0.043
Mof_H 	H 	0.7636	0.202	0.6906	0.028
Mof_H 	H 	0.7937	0.5703	0.9367	0.039
Mof_H 	H 	0.7877	0.6315	0.8619	0.027
Mof_H 	H 	0.8861	0.3593	0.0169	0.043
Mof_H 	H 	0.9316	0.2806	0.0204	0.026
Mof_H 	H 	0.7374	0.5004	0.1196	0.047
Mof_H 	H 	0.6731	0.5371	0.1787	0.029
Mof_H 	H 	0.8107	0.3879	0.1325	0.043
Mof_H 	H 	0.7636	0.3438	0.202	0.028
Mof_H 	H 	0.9367	0.6993	0.7937	0.039
Mof_H 	H 	0.8619	0.7189	0.7877	0.027
Mof_H 	H 	0.0169	0.7377	0.8861	0.043
Mof_H 	H 	0.0204	0.7674	0.9316	0.025
Mof_H 	H 	0.1196	0.6426	0.7374	0.047
Mof_H 	H 	0.1787	0.6111	0.6731	0.029
Mof_H 	H 	0.1325	0.6689	0.8107	0.043
Mof_H 	H 	0.202	0.6906	0.7636	0.028
Mof_H 	H 	0.5703	0.7937	0.6993	0.039
Mof_H 	H 	0.6315	0.7877	0.7189	0.027
Mof_H 	H 	0.3593	0.8861	0.7377	0.044
Mof_H 	H 	0.2806	0.9316	0.7674	0.026
Mof_H 	H 	0.5004	0.7374	0.6426	0.047
Mof_H 	H 	0.5371	0.6731	0.6111	0.029
Mof_H 	H 	0.3879	0.8107	0.6689	0.043
Mof_H 	H 	0.3438	0.7636	0.6906	0.028
Mof_H 	H 	0.6993	0.9367	0.5703	0.039
Mof_H 	H 	0.7189	0.8619	0.6315	0.027
Mof_H 	H 	0.7377	0.0169	0.3593	0.043
Mof_H 	H 	0.7674	0.0204	0.2806	0.026
Mof_H 	H 	0.6426	0.1196	0.5004	0.047
Mof_H 	H 	0.6111	0.1787	0.5371	0.029
Mof_H 	H 	0.6689	0.1325	0.3879	0.043
Mof_H 	H 	0.6906	0.202	0.3438	0.028
Mof_H 	H 	0.9367	0.5703	0.6993	0.039
Mof_H 	H 	0.8619	0.6315	0.7189	0.027
Mof_H 	H 	0.0169	0.3593	0.7377	0.043
Mof_H 	H 	0.0204	0.2806	0.7674	0.026
Mof_H 	H 	0.1196	0.5004	0.6426	0.047
Mof_H 	H 	0.1787	0.5371	0.6111	0.029
Mof_H 	H 	0.1325	0.3879	0.6689	0.043
Mof_H 	H 	0.202	0.3438	0.6906	0.028
Mof_H 	H 	0.7937	0.6993	0.5703	0.039
Mof_H 	H 	0.7877	0.7189	0.6315	0.027
Mof_H 	H 	0.8861	0.7377	0.3593	0.044
Mof_H 	H 	0.9316	0.7674	0.2806	0.026
Mof_H 	H 	0.7374	0.6426	0.5004	0.047
Mof_H 	H 	0.6731	0.6111	0.5371	0.029
Mof_H 	H 	0.8107	0.6689	0.3879	0.043
Mof_H 	H 	0.7636	0.6906	0.3438	0.028
Mof_H 	H 	0.6993	0.7937	0.9367	0.039
Mof_H 	H 	0.7189	0.7877	0.8619	0.027
Mof_H 	H 	0.7377	0.8861	0.0169	0.043
Mof_H 	H 	0.7674	0.9316	0.0204	0.025
Mof_H 	H 	0.6426	0.7374	0.1196	0.047
Mof_H 	H 	0.6111	0.6731	0.1787	0.029
Mof_H 	H 	0.6689	0.8107	0.1325	0.043
Mof_H 	H 	0.6906	0.7636	0.202	0.028
Mof_H 	H 	0.5703	0.9367	0.7937	0.039
Mof_H 	H 	0.6315	0.8619	0.7877	0.027
Mof_H 	H 	0.3593	0.0169	0.8861	0.043
Mof_H 	H 	0.2806	0.0204	0.9316	0.026
Mof_H 	H 	0.5004	0.1196	0.7374	0.047
Mof_H 	H 	0.5371	0.1787	0.6731	0.029
Mof_H 	H 	0.3879	0.1325	0.8107	0.043
Mof_H 	H 	0.3438	0.202	0.7636	0.028
Mof_H 	H 	0.5703	0.6993	0.7937	0.039
Mof_H 	H 	0.6315	0.7189	0.7877	0.027
Mof_H 	H 	0.3593	0.7377	0.8861	0.044
Mof_H 	H 	0.2806	0.7674	0.9316	0.026
Mof_H 	H 	0.5004	0.6426	0.7374	0.047
Mof_H 	H 	0.5371	0.6111	0.6731	0.029
Mof_H 	H 	0.3879	0.6689	0.8107	0.043
Mof_H 	H 	0.3438	0.6906	0.7636	0.028
Mof_H 	H 	0.6993	0.5703	0.9367	0.039
Mof_H 	H 	0.7189	0.6315	0.8619	0.027
Mof_H 	H 	0.7377	0.3593	0.0169	0.043
Mof_H 	H 	0.7674	0.2806	0.0204	0.026
Mof_H 	H 	0.6426	0.5004	0.1196	0.047
Mof_H 	H 	0.6111	0.5371	0.1787	0.029
Mof_H 	H 	0.6689	0.3879	0.1325	0.043
Mof_H 	H 	0.6906	0.3438	0.202	0.028
Mof_H 	H 	0.7937	0.9367	0.5703	0.039
Mof_H 	H 	0.7877	0.8619	0.6315	0.027
Mof_H 	H 	0.8861	0.0169	0.3593	0.043
Mof_H 	H 	0.9316	0.0204	0.2806	0.026
Mof_H 	H 	0.7374	0.1196	0.5004	0.047
Mof_H 	H 	0.6731	0.1787	0.5371	0.029
Mof_H 	H 	0.8107	0.1325	0.3879	0.043
Mof_H 	H 	0.7636	0.202	0.3438	0.028
Mof_H 	H 	0.9367	0.7937	0.6993	0.039
Mof_H 	H 	0.8619	0.7877	0.7189	0.027
Mof_H 	H 	0.0169	0.8861	0.7377	0.043
Mof_H 	H 	0.0204	0.9316	0.7674	0.025
Mof_H 	H 	0.1196	0.7374	0.6426	0.047
Mof_H 	H 	0.1787	0.6731	0.6111	0.029
Mof_H 	H 	0.1325	0.8107	0.6689	0.043
Mof_H 	H 	0.202	0.7636	0.6906	0.028
Mof_H 	H 	0.5703	0.7937	0.9367	0.039
Mof_H 	H 	0.6315	0.7877	0.8619	0.027
Mof_H 	H 	0.3593	0.8861	0.0169	0.043
Mof_H 	H 	0.2806	0.9316	0.0204	0.026
Mof_H 	H 	0.5004	0.7374	0.1196	0.047
Mof_H 	H 	0.5371	0.6731	0.1787	0.029
Mof_H 	H 	0.3879	0.8107	0.1325	0.043
Mof_H 	H 	0.3438	0.7636	0.202	0.028
Mof_H 	H 	0.6993	0.9367	0.7937	0.039
Mof_H 	H 	0.7189	0.8619	0.7877	0.027
Mof_H 	H 	0.7377	0.0169	0.8861	0.043
Mof_H 	H 	0.7674	0.0204	0.9316	0.025
Mof_H 	H 	0.6426	0.1196	0.7374	0.047
Mof_H 	H 	0.6111	0.1787	0.6731	0.029
Mof_H 	H 	0.6689	0.1325	0.8107	0.043
Mof_H 	H 	0.6906	0.202	0.7636	0.028
Mof_H 	H 	0.7937	0.5703	0.6993	0.039
Mof_H 	H 	0.7877	0.6315	0.7189	0.027
Mof_H 	H 	0.8861	0.3593	0.7377	0.044
Mof_H 	H 	0.9316	0.2806	0.7674	0.026
Mof_H 	H 	0.7374	0.5004	0.6426	0.047
Mof_H 	H 	0.6731	0.5371	0.6111	0.029
Mof_H 	H 	0.8107	0.3879	0.6689	0.043
Mof_H 	H 	0.7636	0.3438	0.6906	0.028
Mof_H 	H 	0.9367	0.6993	0.5703	0.039
Mof_H 	H 	0.8619	0.7189	0.6315	0.027
Mof_H 	H 	0.0169	0.7377	0.3593	0.043
Mof_H 	H 	0.0204	0.7674	0.2806	0.026
Mof_H 	H 	0.1196	0.6426	0.5004	0.047
Mof_H 	H 	0.1787	0.6111	0.5371	0.029
Mof_H 	H 	0.1325	0.6689	0.3879	0.043
Mof_H 	H 	0.202	0.6906	0.3438	0.028
Mof_H 	H 	0.5703	0.9367	0.6993	0.039
Mof_H 	H 	0.6315	0.8619	0.7189	0.027
Mof_H 	H 	0.3593	0.0169	0.7377	0.043
Mof_H 	H 	0.2806	0.0204	0.7674	0.026
Mof_H 	H 	0.5004	0.1196	0.6426	0.047
Mof_H 	H 	0.5371	0.1787	0.6111	0.029
Mof_H 	H 	0.3879	0.1325	0.6689	0.043
Mof_H 	H 	0.3438	0.202	0.6906	0.028
Mof_H 	H 	0.6993	0.7937	0.5703	0.039
Mof_H 	H 	0.7189	0.7877	0.6315	0.027
Mof_H 	H 	0.7377	0.8861	0.3593	0.044
Mof_H 	H 	0.7674	0.9316	0.2806	0.026
Mof_H 	H 	0.6426	0.7374	0.5004	0.047
Mof_H 	H 	0.6111	0.6731	0.5371	0.029
Mof_H 	H 	0.6689	0.8107	0.3879	0.043
Mof_H 	H 	0.6906	0.7636	0.3438	0.028
Mof_H 	H 	0.7937	0.6993	0.9367	0.039
Mof_H 	H 	0.7877	0.7189	0.8619	0.027
Mof_H 	H 	0.8861	0.7377	0.0169	0.043
Mof_H 	H 	0.9316	0.7674	0.0204	0.025
Mof_H 	H 	0.7374	0.6426	0.1196	0.047
Mof_H 	H 	0.6731	0.6111	0.1787	0.029
Mof_H 	H 	0.8107	0.6689	0.1325	0.043
Mof_H 	H 	0.7636	0.6906	0.202	0.028
Mof_H 	H 	0.9367	0.5703	0.7937	0.039
Mof_H 	H 	0.8619	0.6315	0.7877	0.027
Mof_H 	H 	0.0169	0.3593	0.8861	0.043
Mof_H 	H 	0.0204	0.2806	0.9316	0.026
Mof_H 	H 	0.1196	0.5004	0.7374	0.047
Mof_H 	H 	0.1787	0.5371	0.6731	0.029
Mof_H 	H 	0.1325	0.3879	0.8107	0.043
Mof_H 	H 	0.202	0.3438	0.7636	0.028
Mof_H 	H 	0.3007	0.4297	0.2063	0.039
Mof_H 	H 	0.2811	0.3685	0.2123	0.027
Mof_H 	H 	0.2623	0.6407	0.1139	0.044
Mof_H 	H 	0.2326	0.7194	0.0684	0.026
Mof_H 	H 	0.3574	0.4996	0.2626	0.047
Mof_H 	H 	0.3889	0.4629	0.3269	0.029
Mof_H 	H 	0.3311	0.6121	0.1893	0.043
Mof_H 	H 	0.3094	0.6562	0.2364	0.028
Mof_H 	H 	0.4297	0.3007	0.0633	0.039
Mof_H 	H 	0.3685	0.2811	0.1381	0.027
Mof_H 	H 	0.6407	0.2623	0.9831	0.043
Mof_H 	H 	0.7194	0.2326	0.9796	0.026
Mof_H 	H 	0.4996	0.3574	0.8804	0.047
Mof_H 	H 	0.4629	0.3889	0.8213	0.029
Mof_H 	H 	0.6121	0.3311	0.8675	0.043
Mof_H 	H 	0.6562	0.3094	0.798	0.028
Mof_H 	H 	0.0633	0.2063	0.4297	0.039
Mof_H 	H 	0.1381	0.2123	0.3685	0.027
Mof_H 	H 	0.9831	0.1139	0.6407	0.043
Mof_H 	H 	0.9796	0.0684	0.7194	0.026
Mof_H 	H 	0.8804	0.2626	0.4996	0.047
Mof_H 	H 	0.8213	0.3269	0.4629	0.029
Mof_H 	H 	0.8675	0.1893	0.6121	0.043
Mof_H 	H 	0.798	0.2364	0.6562	0.028
Mof_H 	H 	0.2063	0.0633	0.3007	0.039
Mof_H 	H 	0.2123	0.1381	0.2811	0.027
Mof_H 	H 	0.1139	0.9831	0.2623	0.043
Mof_H 	H 	0.0684	0.9796	0.2326	0.025
Mof_H 	H 	0.2626	0.8804	0.3574	0.047
Mof_H 	H 	0.3269	0.8213	0.3889	0.029
Mof_H 	H 	0.1893	0.8675	0.3311	0.043
Mof_H 	H 	0.2364	0.798	0.3094	0.028
Mof_H 	H 	0.2063	0.4297	0.0633	0.039
Mof_H 	H 	0.2123	0.3685	0.1381	0.027
Mof_H 	H 	0.1139	0.6407	0.9831	0.043
Mof_H 	H 	0.0684	0.7194	0.9796	0.026
Mof_H 	H 	0.2626	0.4996	0.8804	0.047
Mof_H 	H 	0.3269	0.4629	0.8213	0.029
Mof_H 	H 	0.1893	0.6121	0.8675	0.043
Mof_H 	H 	0.2364	0.6562	0.798	0.028
Mof_H 	H 	0.0633	0.3007	0.2063	0.039
Mof_H 	H 	0.1381	0.2811	0.2123	0.027
Mof_H 	H 	0.9831	0.2623	0.1139	0.043
Mof_H 	H 	0.9796	0.2326	0.0684	0.025
Mof_H 	H 	0.8804	0.3574	0.2626	0.047
Mof_H 	H 	0.8213	0.3889	0.3269	0.029
Mof_H 	H 	0.8675	0.3311	0.1893	0.043
Mof_H 	H 	0.798	0.3094	0.2364	0.028
Mof_H 	H 	0.4297	0.2063	0.3007	0.039
Mof_H 	H 	0.3685	0.2123	0.2811	0.027
Mof_H 	H 	0.6407	0.1139	0.2623	0.044
Mof_H 	H 	0.7194	0.0684	0.2326	0.026
Mof_H 	H 	0.4996	0.2626	0.3574	0.047
Mof_H 	H 	0.4629	0.3269	0.3889	0.029
Mof_H 	H 	0.6121	0.1893	0.3311	0.043
Mof_H 	H 	0.6562	0.2364	0.3094	0.028
Mof_H 	H 	0.3007	0.0633	0.4297	0.039
Mof_H 	H 	0.2811	0.1381	0.3685	0.027
Mof_H 	H 	0.2623	0.9831	0.6407	0.043
Mof_H 	H 	0.2326	0.9796	0.7194	0.026
Mof_H 	H 	0.3574	0.8804	0.4996	0.047
Mof_H 	H 	0.3889	0.8213	0.4629	0.029
Mof_H 	H 	0.3311	0.8675	0.6121	0.043
Mof_H 	H 	0.3094	0.798	0.6562	0.028
Mof_H 	H 	0.0633	0.4297	0.3007	0.039
Mof_H 	H 	0.1381	0.3685	0.2811	0.027
Mof_H 	H 	0.9831	0.6407	0.2623	0.043
Mof_H 	H 	0.9796	0.7194	0.2326	0.026
Mof_H 	H 	0.8804	0.4996	0.3574	0.047
Mof_H 	H 	0.8213	0.4629	0.3889	0.029
Mof_H 	H 	0.8675	0.6121	0.3311	0.043
Mof_H 	H 	0.798	0.6562	0.3094	0.028
Mof_H 	H 	0.2063	0.3007	0.4297	0.039
Mof_H 	H 	0.2123	0.2811	0.3685	0.027
Mof_H 	H 	0.1139	0.2623	0.6407	0.044
Mof_H 	H 	0.0684	0.2326	0.7194	0.026
Mof_H 	H 	0.2626	0.3574	0.4996	0.047
Mof_H 	H 	0.3269	0.3889	0.4629	0.029
Mof_H 	H 	0.1893	0.3311	0.6121	0.043
Mof_H 	H 	0.2364	0.3094	0.6562	0.028
Mof_H 	H 	0.3007	0.2063	0.0633	0.039
Mof_H 	H 	0.2811	0.2123	0.1381	0.027
Mof_H 	H 	0.2623	0.1139	0.9831	0.043
Mof_H 	H 	0.2326	0.0684	0.9796	0.025
Mof_H 	H 	0.3574	0.2626	0.8804	0.047
Mof_H 	H 	0.3889	0.3269	0.8213	0.029
Mof_H 	H 	0.3311	0.1893	0.8675	0.043
Mof_H 	H 	0.3094	0.2364	0.798	0.028
Mof_H 	H 	0.4297	0.0633	0.2063	0.039
Mof_H 	H 	0.3685	0.1381	0.2123	0.027
Mof_H 	H 	0.6407	0.9831	0.1139	0.043
Mof_H 	H 	0.7194	0.9796	0.0684	0.026
Mof_H 	H 	0.4996	0.8804	0.2626	0.047
Mof_H 	H 	0.4629	0.8213	0.3269	0.029
Mof_H 	H 	0.6121	0.8675	0.1893	0.043
Mof_H 	H 	0.6562	0.798	0.2364	0.028
Mof_H 	H 	0.5539	0.3475	0.0493	-0.056
Mof_H 	H 	0.3475	0.5539	0.0493	-0.056
Mof_H 	H 	0.0493	0.0493	0.5539	-0.056
Mof_H 	H 	0.0493	0.0493	0.3475	-0.055
Mof_H 	H 	0.5539	0.0493	0.0493	-0.056
Mof_H 	H 	0.3475	0.0493	0.0493	-0.055
Mof_H 	H 	0.0493	0.5539	0.3475	-0.056
Mof_H 	H 	0.0493	0.3475	0.5539	-0.056
Mof_H 	H 	0.5539	0.0493	0.3475	-0.056
Mof_H 	H 	0.3475	0.0493	0.5539	-0.056
Mof_H 	H 	0.0493	0.3475	0.0493	-0.055
Mof_H 	H 	0.0493	0.5539	0.0493	-0.056
Mof_H 	H 	0.6525	0.4461	0.9507	-0.056
Mof_H 	H 	0.4461	0.6525	0.9507	-0.056
Mof_H 	H 	0.9507	0.9507	0.4461	-0.056
Mof_H 	H 	0.9507	0.9507	0.6525	-0.055
Mof_H 	H 	0.9507	0.4461	0.9507	-0.056
Mof_H 	H 	0.9507	0.6525	0.9507	-0.055
Mof_H 	H 	0.4461	0.9507	0.6525	-0.056
Mof_H 	H 	0.6525	0.9507	0.4461	-0.056
Mof_H 	H 	0.9507	0.4461	0.6525	-0.056
Mof_H 	H 	0.9507	0.6525	0.4461	-0.056
Mof_H 	H 	0.6525	0.9507	0.9507	-0.055
Mof_H 	H 	0.4461	0.9507	0.9507	-0.056
Mof_H 	H 	0.5609	0.4391	0.0917	-0.054
Mof_H 	H 	0.4391	0.5609	0.9083	-0.054
Mof_H 	H 	0.0917	0.9083	0.5609	-0.054
Mof_H 	H 	0.9083	0.0917	0.4391	-0.054
Mof_H 	H 	0.5609	0.0917	0.9083	-0.054
Mof_H 	H 	0.4391	0.9083	0.0917	-0.054
Mof_H 	H 	0.0917	0.5609	0.4391	-0.054
Mof_H 	H 	0.9083	0.4391	0.5609	-0.054
Mof_H 	H 	0.5609	0.9083	0.4391	-0.054
Mof_H 	H 	0.4391	0.0917	0.5609	-0.054
Mof_H 	H 	0.0917	0.4391	0.9083	-0.054
Mof_H 	H 	0.9083	0.5609	0.0917	-0.054
Mof_H 	H 	0.5609	0.4391	0.9083	-0.054
Mof_H 	H 	0.4391	0.5609	0.0917	-0.054
Mof_H 	H 	0.0917	0.9083	0.4391	-0.054
Mof_H 	H 	0.9083	0.0917	0.5609	-0.054
Mof_H 	H 	0.9083	0.4391	0.0917	-0.054
Mof_H 	H 	0.0917	0.5609	0.9083	-0.054
Mof_H 	H 	0.4391	0.9083	0.5609	-0.054
Mof_H 	H 	0.5609	0.0917	0.4391	-0.054
Mof_H 	H 	0.0917	0.4391	0.5609	-0.054
Mof_H 	H 	0.9083	0.5609	0.4391	-0.054
Mof_H 	H 	0.5609	0.9083	0.0917	-0.054
Mof_H 	H 	0.4391	0.0917	0.9083	-0.054
Mof_H 	H 	0.4354	0.4354	0.1296	-0.061
Mof_H 	H 	0.4354	0.4354	0.9996	-0.061
Mof_H 	H 	0.1296	0.9996	0.4354	-0.061
Mof_H 	H 	0.9996	0.1296	0.4354	-0.061
Mof_H 	H 	0.4354	0.1296	0.9996	-0.061
Mof_H 	H 	0.4354	0.9996	0.1296	-0.061
Mof_H 	H 	0.1296	0.4354	0.4354	-0.061
Mof_H 	H 	0.9996	0.4354	0.4354	-0.061
Mof_H 	H 	0.4354	0.9996	0.4354	-0.061
Mof_H 	H 	0.4354	0.1296	0.4354	-0.061
Mof_H 	H 	0.1296	0.4354	0.9996	-0.061
Mof_H 	H 	0.9996	0.4354	0.1296	-0.061
Mof_H 	H 	0.5646	0.5646	0.8704	-0.061
Mof_H 	H 	0.5646	0.5646	0.0004	-0.061
Mof_H 	H 	0.0004	0.8704	0.5646	-0.061
Mof_H 	H 	0.8704	0.0004	0.5646	-0.061
Mof_H 	H 	0.8704	0.5646	0.0004	-0.061
Mof_H 	H 	0.0004	0.5646	0.8704	-0.061
Mof_H 	H 	0.5646	0.8704	0.5646	-0.061
Mof_H 	H 	0.5646	0.0004	0.5646	-0.061
Mof_H 	H 	0.0004	0.5646	0.5646	-0.061
Mof_H 	H 	0.8704	0.5646	0.5646	-0.061
Mof_H 	H 	0.5646	0.8704	0.0004	-0.061
Mof_H 	H 	0.5646	0.0004	0.8704	-0.061
Mof_H 	H 	0.5064	0.2406	0.2406	-0.063
Mof_H 	H 	0.2406	0.5064	0.0124	-0.062
Mof_H 	H 	0.2406	0.0124	0.5064	-0.062
Mof_H 	H 	0.0124	0.2406	0.2406	-0.061
Mof_H 	H 	0.5064	0.2406	0.0124	-0.062
Mof_H 	H 	0.2406	0.0124	0.2406	-0.061
Mof_H 	H 	0.2406	0.5064	0.2406	-0.063
Mof_H 	H 	0.0124	0.2406	0.5064	-0.062
Mof_H 	H 	0.5064	0.0124	0.2406	-0.062
Mof_H 	H 	0.2406	0.2406	0.5064	-0.063
Mof_H 	H 	0.2406	0.2406	0.0124	-0.061
Mof_H 	H 	0.0124	0.5064	0.2406	-0.062
Mof_H 	H 	0.7594	0.4936	0.7594	-0.063
Mof_H 	H 	0.4936	0.7594	0.9876	-0.062
Mof_H 	H 	0.9876	0.7594	0.4936	-0.062
Mof_H 	H 	0.7594	0.9876	0.7594	-0.061
Mof_H 	H 	0.7594	0.4936	0.9876	-0.062
Mof_H 	H 	0.9876	0.7594	0.7594	-0.061
Mof_H 	H 	0.4936	0.7594	0.7594	-0.063
Mof_H 	H 	0.7594	0.9876	0.4936	-0.062
Mof_H 	H 	0.9876	0.4936	0.7594	-0.062
Mof_H 	H 	0.7594	0.7594	0.4936	-0.063
Mof_H 	H 	0.7594	0.7594	0.9876	-0.061
Mof_H 	H 	0.4936	0.9876	0.7594	-0.062
Mof_C 	C 	0.4639	0.3153	0.1323	0.049
Mof_C 	C 	0.429	0.3016	0.1774	-0.113
Mof_C 	C 	0.3934	0.2896	0.181	-0.018
Mof_C 	C 	0.6352	0.3342	0.0876	0.051
Mof_C 	C 	0.6592	0.2844	0.0916	-0.113
Mof_C 	C 	0.7058	0.2664	0.0664	-0.012
Mof_C 	C 	0.4534	0.4108	0.2238	0.047
Mof_C 	C 	0.4715	0.3869	0.2623	-0.116
Mof_C 	C 	0.4494	0.405	0.3008	-0.02
Mof_C 	C 	0.5807	0.2757	0.2337	0.041
Mof_C 	C 	0.6108	0.303	0.219	-0.11
Mof_C 	C 	0.6373	0.2899	0.2459	-0.017
Mof_C 	C 	0.3153	0.4639	0.0885	0.049
Mof_C 	C 	0.3016	0.429	0.092	-0.113
Mof_C 	C 	0.2896	0.3934	0.136	-0.018
Mof_C 	C 	0.3342	0.6352	0.943	0.051
Mof_C 	C 	0.2844	0.6592	0.9648	-0.113
Mof_C 	C 	0.2664	0.7058	0.9614	-0.012
Mof_C 	C 	0.4108	0.4534	0.912	0.047
Mof_C 	C 	0.3869	0.4715	0.8793	-0.116
Mof_C 	C 	0.405	0.4494	0.8448	-0.02
Mof_C 	C 	0.2757	0.5807	0.9099	0.041
Mof_C 	C 	0.303	0.6108	0.8672	-0.11
Mof_C 	C 	0.2899	0.6373	0.8269	-0.017
Mof_C 	C 	0.1323	0.0885	0.4639	0.049
Mof_C 	C 	0.1774	0.092	0.429	-0.113
Mof_C 	C 	0.181	0.136	0.3934	-0.018
Mof_C 	C 	0.0876	0.943	0.6352	0.051
Mof_C 	C 	0.0916	0.9648	0.6592	-0.113
Mof_C 	C 	0.0664	0.9614	0.7058	-0.012
Mof_C 	C 	0.2238	0.912	0.4534	0.047
Mof_C 	C 	0.2623	0.8793	0.4715	-0.116
Mof_C 	C 	0.3008	0.8448	0.4494	-0.02
Mof_C 	C 	0.2337	0.9099	0.5807	0.041
Mof_C 	C 	0.219	0.8672	0.6108	-0.11
Mof_C 	C 	0.2459	0.8269	0.6373	-0.017
Mof_C 	C 	0.0885	0.1323	0.3153	0.049
Mof_C 	C 	0.092	0.1774	0.3016	-0.113
Mof_C 	C 	0.136	0.181	0.2896	-0.018
Mof_C 	C 	0.943	0.0876	0.3342	0.051
Mof_C 	C 	0.9648	0.0916	0.2844	-0.114
Mof_C 	C 	0.9614	0.0664	0.2664	-0.012
Mof_C 	C 	0.912	0.2238	0.4108	0.047
Mof_C 	C 	0.8793	0.2623	0.3869	-0.116
Mof_C 	C 	0.8448	0.3008	0.405	-0.02
Mof_C 	C 	0.9099	0.2337	0.2757	0.041
Mof_C 	C 	0.8672	0.219	0.303	-0.11
Mof_C 	C 	0.8269	0.2459	0.2899	-0.017
Mof_C 	C 	0.4639	0.1323	0.0885	0.049
Mof_C 	C 	0.429	0.1774	0.092	-0.113
Mof_C 	C 	0.3934	0.181	0.136	-0.018
Mof_C 	C 	0.6352	0.0876	0.943	0.051
Mof_C 	C 	0.6592	0.0916	0.9648	-0.113
Mof_C 	C 	0.7058	0.0664	0.9614	-0.012
Mof_C 	C 	0.4534	0.2238	0.912	0.047
Mof_C 	C 	0.4715	0.2623	0.8793	-0.116
Mof_C 	C 	0.4494	0.3008	0.8448	-0.02
Mof_C 	C 	0.5807	0.2337	0.9099	0.041
Mof_C 	C 	0.6108	0.219	0.8672	-0.11
Mof_C 	C 	0.6373	0.2459	0.8269	-0.017
Mof_C 	C 	0.3153	0.0885	0.1323	0.049
Mof_C 	C 	0.3016	0.092	0.1774	-0.113
Mof_C 	C 	0.2896	0.136	0.181	-0.018
Mof_C 	C 	0.3342	0.943	0.0876	0.051
Mof_C 	C 	0.2844	0.9648	0.0916	-0.114
Mof_C 	C 	0.2664	0.9614	0.0664	-0.012
Mof_C 	C 	0.4108	0.912	0.2238	0.047
Mof_C 	C 	0.3869	0.8793	0.2623	-0.116
Mof_C 	C 	0.405	0.8448	0.3008	-0.02
Mof_C 	C 	0.2757	0.9099	0.2337	0.041
Mof_C 	C 	0.303	0.8672	0.219	-0.11
Mof_C 	C 	0.2899	0.8269	0.2459	-0.017
Mof_C 	C 	0.1323	0.4639	0.3153	0.049
Mof_C 	C 	0.1774	0.429	0.3016	-0.113
Mof_C 	C 	0.181	0.3934	0.2896	-0.018
Mof_C 	C 	0.0876	0.6352	0.3342	0.051
Mof_C 	C 	0.0916	0.6592	0.2844	-0.113
Mof_C 	C 	0.0664	0.7058	0.2664	-0.012
Mof_C 	C 	0.2238	0.4534	0.4108	0.047
Mof_C 	C 	0.2623	0.4715	0.3869	-0.116
Mof_C 	C 	0.3008	0.4494	0.405	-0.02
Mof_C 	C 	0.2337	0.5807	0.2757	0.041
Mof_C 	C 	0.219	0.6108	0.303	-0.11
Mof_C 	C 	0.2459	0.6373	0.2899	-0.017
Mof_C 	C 	0.0885	0.3153	0.4639	0.049
Mof_C 	C 	0.092	0.3016	0.429	-0.113
Mof_C 	C 	0.136	0.2896	0.3934	-0.018
Mof_C 	C 	0.943	0.3342	0.6352	0.051
Mof_C 	C 	0.9648	0.2844	0.6592	-0.113
Mof_C 	C 	0.9614	0.2664	0.7058	-0.012
Mof_C 	C 	0.912	0.4108	0.4534	0.047
Mof_C 	C 	0.8793	0.3869	0.4715	-0.116
Mof_C 	C 	0.8448	0.405	0.4494	-0.02
Mof_C 	C 	0.9099	0.2757	0.5807	0.041
Mof_C 	C 	0.8672	0.303	0.6108	-0.11
Mof_C 	C 	0.8269	0.2899	0.6373	-0.017
Mof_C 	C 	0.4639	0.0885	0.3153	0.049
Mof_C 	C 	0.429	0.092	0.3016	-0.113
Mof_C 	C 	0.3934	0.136	0.2896	-0.018
Mof_C 	C 	0.6352	0.943	0.3342	0.051
Mof_C 	C 	0.6592	0.9648	0.2844	-0.113
Mof_C 	C 	0.7058	0.9614	0.2664	-0.012
Mof_C 	C 	0.4534	0.912	0.4108	0.047
Mof_C 	C 	0.4715	0.8793	0.3869	-0.116
Mof_C 	C 	0.4494	0.8448	0.405	-0.02
Mof_C 	C 	0.5807	0.9099	0.2757	0.041
Mof_C 	C 	0.6108	0.8672	0.303	-0.11
Mof_C 	C 	0.6373	0.8269	0.2899	-0.017
Mof_C 	C 	0.3153	0.1323	0.4639	0.049
Mof_C 	C 	0.3016	0.1774	0.429	-0.113
Mof_C 	C 	0.2896	0.181	0.3934	-0.018
Mof_C 	C 	0.3342	0.0876	0.6352	0.051
Mof_C 	C 	0.2844	0.0916	0.6592	-0.113
Mof_C 	C 	0.2664	0.0664	0.7058	-0.012
Mof_C 	C 	0.4108	0.2238	0.4534	0.047
Mof_C 	C 	0.3869	0.2623	0.4715	-0.116
Mof_C 	C 	0.405	0.3008	0.4494	-0.02
Mof_C 	C 	0.2757	0.2337	0.5807	0.041
Mof_C 	C 	0.303	0.219	0.6108	-0.11
Mof_C 	C 	0.2899	0.2459	0.6373	-0.017
Mof_C 	C 	0.1323	0.3153	0.0885	0.049
Mof_C 	C 	0.1774	0.3016	0.092	-0.113
Mof_C 	C 	0.181	0.2896	0.136	-0.018
Mof_C 	C 	0.0876	0.3342	0.943	0.051
Mof_C 	C 	0.0916	0.2844	0.9648	-0.114
Mof_C 	C 	0.0664	0.2664	0.9614	-0.012
Mof_C 	C 	0.2238	0.4108	0.912	0.047
Mof_C 	C 	0.2623	0.3869	0.8793	-0.116
Mof_C 	C 	0.3008	0.405	0.8448	-0.02
Mof_C 	C 	0.2337	0.2757	0.9099	0.041
Mof_C 	C 	0.219	0.303	0.8672	-0.11
Mof_C 	C 	0.2459	0.2899	0.8269	-0.017
Mof_C 	C 	0.0885	0.4639	0.1323	0.049
Mof_C 	C 	0.092	0.429	0.1774	-0.113
Mof_C 	C 	0.136	0.3934	0.181	-0.018
Mof_C 	C 	0.943	0.6352	0.0876	0.051
Mof_C 	C 	0.9648	0.6592	0.0916	-0.113
Mof_C 	C 	0.9614	0.7058	0.0664	-0.012
Mof_C 	C 	0.912	0.4534	0.2238	0.047
Mof_C 	C 	0.8793	0.4715	0.2623	-0.116
Mof_C 	C 	0.8448	0.4494	0.3008	-0.02
Mof_C 	C 	0.9099	0.5807	0.2337	0.041
Mof_C 	C 	0.8672	0.6108	0.219	-0.11
Mof_C 	C 	0.8269	0.6373	0.2459	-0.017
Mof_C 	C 	0.6847	0.5361	0.8677	0.049
Mof_C 	C 	0.6984	0.571	0.8226	-0.113
Mof_C 	C 	0.7104	0.6066	0.819	-0.018
Mof_C 	C 	0.6658	0.3648	0.9124	0.051
Mof_C 	C 	0.7156	0.3408	0.9084	-0.113
Mof_C 	C 	0.7336	0.2942	0.9336	-0.012
Mof_C 	C 	0.5892	0.5466	0.7762	0.047
Mof_C 	C 	0.6131	0.5285	0.7377	-0.116
Mof_C 	C 	0.595	0.5506	0.6992	-0.02
Mof_C 	C 	0.7243	0.4193	0.7663	0.041
Mof_C 	C 	0.697	0.3892	0.781	-0.11
Mof_C 	C 	0.7101	0.3627	0.7541	-0.017
Mof_C 	C 	0.5361	0.6847	0.9115	0.049
Mof_C 	C 	0.571	0.6984	0.908	-0.113
Mof_C 	C 	0.6066	0.7104	0.864	-0.018
Mof_C 	C 	0.3648	0.6658	0.057	0.051
Mof_C 	C 	0.3408	0.7156	0.0352	-0.113
Mof_C 	C 	0.2942	0.7336	0.0386	-0.012
Mof_C 	C 	0.5466	0.5892	0.088	0.047
Mof_C 	C 	0.5285	0.6131	0.1207	-0.116
Mof_C 	C 	0.5506	0.595	0.1552	-0.02
Mof_C 	C 	0.4193	0.7243	0.0901	0.041
Mof_C 	C 	0.3892	0.697	0.1328	-0.11
Mof_C 	C 	0.3627	0.7101	0.1731	-0.017
Mof_C 	C 	0.9115	0.8677	0.5361	0.049
Mof_C 	C 	0.908	0.8226	0.571	-0.113
Mof_C 	C 	0.864	0.819	0.6066	-0.018
Mof_C 	C 	0.057	0.9124	0.3648	0.051
Mof_C 	C 	0.0352	0.9084	0.3408	-0.113
Mof_C 	C 	0.0386	0.9336	0.2942	-0.012
Mof_C 	C 	0.088	0.7762	0.5466	0.047
Mof_C 	C 	0.1207	0.7377	0.5285	-0.116
Mof_C 	C 	0.1552	0.6992	0.5506	-0.02
Mof_C 	C 	0.0901	0.7663	0.4193	0.041
Mof_C 	C 	0.1328	0.781	0.3892	-0.11
Mof_C 	C 	0.1731	0.7541	0.3627	-0.017
Mof_C 	C 	0.8677	0.9115	0.6847	0.049
Mof_C 	C 	0.8226	0.908	0.6984	-0.113
Mof_C 	C 	0.819	0.864	0.7104	-0.018
Mof_C 	C 	0.9124	0.057	0.6658	0.051
Mof_C 	C 	0.9084	0.0352	0.7156	-0.114
Mof_C 	C 	0.9336	0.0386	0.7336	-0.012
Mof_C 	C 	0.7762	0.088	0.5892	0.047
Mof_C 	C 	0.7377	0.1207	0.6131	-0.116
Mof_C 	C 	0.6992	0.1552	0.595	-0.02
Mof_C 	C 	0.7663	0.0901	0.7243	0.041
Mof_C 	C 	0.781	0.1328	0.697	-0.11
Mof_C 	C 	0.7541	0.1731	0.7101	-0.017
Mof_C 	C 	0.8677	0.5361	0.9115	0.049
Mof_C 	C 	0.8226	0.571	0.908	-0.113
Mof_C 	C 	0.819	0.6066	0.864	-0.018
Mof_C 	C 	0.9124	0.3648	0.057	0.051
Mof_C 	C 	0.9084	0.3408	0.0352	-0.113
Mof_C 	C 	0.9336	0.2942	0.0386	-0.012
Mof_C 	C 	0.7762	0.5466	0.088	0.047
Mof_C 	C 	0.7377	0.5285	0.1207	-0.116
Mof_C 	C 	0.6992	0.5506	0.1552	-0.02
Mof_C 	C 	0.7663	0.4193	0.0901	0.041
Mof_C 	C 	0.781	0.3892	0.1328	-0.11
Mof_C 	C 	0.7541	0.3627	0.1731	-0.017
Mof_C 	C 	0.9115	0.6847	0.8677	0.049
Mof_C 	C 	0.908	0.6984	0.8226	-0.113
Mof_C 	C 	0.864	0.7104	0.819	-0.018
Mof_C 	C 	0.057	0.6658	0.9124	0.051
Mof_C 	C 	0.0352	0.7156	0.9084	-0.114
Mof_C 	C 	0.0386	0.7336	0.9336	-0.012
Mof_C 	C 	0.088	0.5892	0.7762	0.047
Mof_C 	C 	0.1207	0.6131	0.7377	-0.116
Mof_C 	C 	0.1552	0.595	0.6992	-0.02
Mof_C 	C 	0.0901	0.7243	0.7663	0.041
Mof_C 	C 	0.1328	0.697	0.781	-0.11
Mof_C 	C 	0.1731	0.7101	0.7541	-0.017
Mof_C 	C 	0.5361	0.8677	0.6847	0.049
Mof_C 	C 	0.571	0.8226	0.6984	-0.113
Mof_C 	C 	0.6066	0.819	0.7104	-0.018
Mof_C 	C 	0.3648	0.9124	0.6658	0.051
Mof_C 	C 	0.3408	0.9084	0.7156	-0.113
Mof_C 	C 	0.2942	0.9336	0.7336	-0.012
Mof_C 	C 	0.5466	0.7762	0.5892	0.047
Mof_C 	C 	0.5285	0.7377	0.6131	-0.116
Mof_C 	C 	0.5506	0.6992	0.595	-0.02
Mof_C 	C 	0.4193	0.7663	0.7243	0.041
Mof_C 	C 	0.3892	0.781	0.697	-0.11
Mof_C 	C 	0.3627	0.7541	0.7101	-0.017
Mof_C 	C 	0.6847	0.9115	0.5361	0.049
Mof_C 	C 	0.6984	0.908	0.571	-0.113
Mof_C 	C 	0.7104	0.864	0.6066	-0.018
Mof_C 	C 	0.6658	0.057	0.3648	0.051
Mof_C 	C 	0.7156	0.0352	0.3408	-0.113
Mof_C 	C 	0.7336	0.0386	0.2942	-0.012
Mof_C 	C 	0.5892	0.088	0.5466	0.047
Mof_C 	C 	0.6131	0.1207	0.5285	-0.116
Mof_C 	C 	0.595	0.1552	0.5506	-0.02
Mof_C 	C 	0.7243	0.0901	0.4193	0.041
Mof_C 	C 	0.697	0.1328	0.3892	-0.11
Mof_C 	C 	0.7101	0.1731	0.3627	-0.017
Mof_C 	C 	0.9115	0.5361	0.6847	0.049
Mof_C 	C 	0.908	0.571	0.6984	-0.113
Mof_C 	C 	0.864	0.6066	0.7104	-0.018
Mof_C 	C 	0.057	0.3648	0.6658	0.051
Mof_C 	C 	0.0352	0.3408	0.7156	-0.113
Mof_C 	C 	0.0386	0.2942	0.7336	-0.012
Mof_C 	C 	0.088	0.5466	0.5892	0.047
Mof_C 	C 	0.1207	0.5285	0.6131	-0.116
Mof_C 	C 	0.1552	0.5506	0.595	-0.02
Mof_C 	C 	0.0901	0.4193	0.7243	0.041
Mof_C 	C 	0.1328	0.3892	0.697	-0.11
Mof_C 	C 	0.1731	0.3627	0.7101	-0.017
Mof_C 	C 	0.8677	0.6847	0.5361	0.049
Mof_C 	C 	0.8226	0.6984	0.571	-0.113
Mof_C 	C 	0.819	0.7104	0.6066	-0.018
Mof_C 	C 	0.9124	0.6658	0.3648	0.051
Mof_C 	C 	0.9084	0.7156	0.3408	-0.113
Mof_C 	C 	0.9336	0.7336	0.2942	-0.012
Mof_C 	C 	0.7762	0.5892	0.5466	0.047
Mof_C 	C 	0.7377	0.6131	0.5285	-0.116
Mof_C 	C 	0.6992	0.595	0.5506	-0.02
Mof_C 	C 	0.7663	0.7243	0.4193	0.041
Mof_C 	C 	0.781	0.697	0.3892	-0.11
Mof_C 	C 	0.7541	0.7101	0.3627	-0.017
Mof_C 	C 	0.6847	0.8677	0.9115	0.049
Mof_C 	C 	0.6984	0.8226	0.908	-0.113
Mof_C 	C 	0.7104	0.819	0.864	-0.018
Mof_C 	C 	0.6658	0.9124	0.057	0.051
Mof_C 	C 	0.7156	0.9084	0.0352	-0.114
Mof_C 	C 	0.7336	0.9336	0.0386	-0.012
Mof_C 	C 	0.5892	0.7762	0.088	0.047
Mof_C 	C 	0.6131	0.7377	0.1207	-0.116
Mof_C 	C 	0.595	0.6992	0.1552	-0.02
Mof_C 	C 	0.7243	0.7663	0.0901	0.041
Mof_C 	C 	0.697	0.781	0.1328	-0.11
Mof_C 	C 	0.7101	0.7541	0.1731	-0.017
Mof_C 	C 	0.5361	0.9115	0.8677	0.049
Mof_C 	C 	0.571	0.908	0.8226	-0.113
Mof_C 	C 	0.6066	0.864	0.819	-0.018
Mof_C 	C 	0.3648	0.057	0.9124	0.051
Mof_C 	C 	0.3408	0.0352	0.9084	-0.113
Mof_C 	C 	0.2942	0.0386	0.9336	-0.012
Mof_C 	C 	0.5466	0.088	0.7762	0.047
Mof_C 	C 	0.5285	0.1207	0.7377	-0.116
Mof_C 	C 	0.5506	0.1552	0.6992	-0.02
Mof_C 	C 	0.4193	0.0901	0.7663	0.041
Mof_C 	C 	0.3892	0.1328	0.781	-0.11
Mof_C 	C 	0.3627	0.1731	0.7541	-0.017
Mof_C 	C 	0.5361	0.6847	0.8677	0.049
Mof_C 	C 	0.571	0.6984	0.8226	-0.113
Mof_C 	C 	0.6066	0.7104	0.819	-0.018
Mof_C 	C 	0.3648	0.6658	0.9124	0.051
Mof_C 	C 	0.3408	0.7156	0.9084	-0.113
Mof_C 	C 	0.2942	0.7336	0.9336	-0.012
Mof_C 	C 	0.5466	0.5892	0.7762	0.047
Mof_C 	C 	0.5285	0.6131	0.7377	-0.116
Mof_C 	C 	0.5506	0.595	0.6992	-0.02
Mof_C 	C 	0.4193	0.7243	0.7663	0.041
Mof_C 	C 	0.3892	0.697	0.781	-0.11
Mof_C 	C 	0.3627	0.7101	0.7541	-0.017
Mof_C 	C 	0.6847	0.5361	0.9115	0.049
Mof_C 	C 	0.6984	0.571	0.908	-0.113
Mof_C 	C 	0.7104	0.6066	0.864	-0.018
Mof_C 	C 	0.6658	0.3648	0.057	0.051
Mof_C 	C 	0.7156	0.3408	0.0352	-0.113
Mof_C 	C 	0.7336	0.2942	0.0386	-0.012
Mof_C 	C 	0.5892	0.5466	0.088	0.047
Mof_C 	C 	0.6131	0.5285	0.1207	-0.116
Mof_C 	C 	0.595	0.5506	0.1552	-0.02
Mof_C 	C 	0.7243	0.4193	0.0901	0.041
Mof_C 	C 	0.697	0.3892	0.1328	-0.11
Mof_C 	C 	0.7101	0.3627	0.1731	-0.017
Mof_C 	C 	0.8677	0.9115	0.5361	0.049
Mof_C 	C 	0.8226	0.908	0.571	-0.113
Mof_C 	C 	0.819	0.864	0.6066	-0.018
Mof_C 	C 	0.9124	0.057	0.3648	0.051
Mof_C 	C 	0.9084	0.0352	0.3408	-0.113
Mof_C 	C 	0.9336	0.0386	0.2942	-0.012
Mof_C 	C 	0.7762	0.088	0.5466	0.047
Mof_C 	C 	0.7377	0.1207	0.5285	-0.116
Mof_C 	C 	0.6992	0.1552	0.5506	-0.02
Mof_C 	C 	0.7663	0.0901	0.4193	0.041
Mof_C 	C 	0.781	0.1328	0.3892	-0.11
Mof_C 	C 	0.7541	0.1731	0.3627	-0.017
Mof_C 	C 	0.9115	0.8677	0.6847	0.049
Mof_C 	C 	0.908	0.8226	0.6984	-0.113
Mof_C 	C 	0.864	0.819	0.7104	-0.018
Mof_C 	C 	0.057	0.9124	0.6658	0.051
Mof_C 	C 	0.0352	0.9084	0.7156	-0.114
Mof_C 	C 	0.0386	0.9336	0.7336	-0.012
Mof_C 	C 	0.088	0.7762	0.5892	0.047
Mof_C 	C 	0.1207	0.7377	0.6131	-0.116
Mof_C 	C 	0.1552	0.6992	0.595	-0.02
Mof_C 	C 	0.0901	0.7663	0.7243	0.041
Mof_C 	C 	0.1328	0.781	0.697	-0.11
Mof_C 	C 	0.1731	0.7541	0.7101	-0.017
Mof_C 	C 	0.5361	0.8677	0.9115	0.049
Mof_C 	C 	0.571	0.8226	0.908	-0.113
Mof_C 	C 	0.6066	0.819	0.864	-0.018
Mof_C 	C 	0.3648	0.9124	0.057	0.051
Mof_C 	C 	0.3408	0.9084	0.0352	-0.113
Mof_C 	C 	0.2942	0.9336	0.0386	-0.012
Mof_C 	C 	0.5466	0.7762	0.088	0.047
Mof_C 	C 	0.5285	0.7377	0.1207	-0.116
Mof_C 	C 	0.5506	0.6992	0.1552	-0.02
Mof_C 	C 	0.4193	0.7663	0.0901	0.041
Mof_C 	C 	0.3892	0.781	0.1328	-0.11
Mof_C 	C 	0.3627	0.7541	0.1731	-0.017
Mof_C 	C 	0.6847	0.9115	0.8677	0.049
Mof_C 	C 	0.6984	0.908	0.8226	-0.113
Mof_C 	C 	0.7104	0.864	0.819	-0.018
Mof_C 	C 	0.6658	0.057	0.9124	0.051
Mof_C 	C 	0.7156	0.0352	0.9084	-0.114
Mof_C 	C 	0.7336	0.0386	0.9336	-0.012
Mof_C 	C 	0.5892	0.088	0.7762	0.047
Mof_C 	C 	0.6131	0.1207	0.7377	-0.116
Mof_C 	C 	0.595	0.1552	0.6992	-0.02
Mof_C 	C 	0.7243	0.0901	0.7663	0.041
Mof_C 	C 	0.697	0.1328	0.781	-0.11
Mof_C 	C 	0.7101	0.1731	0.7541	-0.017
Mof_C 	C 	0.8677	0.5361	0.6847	0.049
Mof_C 	C 	0.8226	0.571	0.6984	-0.113
Mof_C 	C 	0.819	0.6066	0.7104	-0.018
Mof_C 	C 	0.9124	0.3648	0.6658	0.051
Mof_C 	C 	0.9084	0.3408	0.7156	-0.113
Mof_C 	C 	0.9336	0.2942	0.7336	-0.012
Mof_C 	C 	0.7762	0.5466	0.5892	0.047
Mof_C 	C 	0.7377	0.5285	0.6131	-0.116
Mof_C 	C 	0.6992	0.5506	0.595	-0.02
Mof_C 	C 	0.7663	0.4193	0.7243	0.041
Mof_C 	C 	0.781	0.3892	0.697	-0.11
Mof_C 	C 	0.7541	0.3627	0.7101	-0.017
Mof_C 	C 	0.9115	0.6847	0.5361	0.049
Mof_C 	C 	0.908	0.6984	0.571	-0.113
Mof_C 	C 	0.864	0.7104	0.6066	-0.018
Mof_C 	C 	0.057	0.6658	0.3648	0.051
Mof_C 	C 	0.0352	0.7156	0.3408	-0.113
Mof_C 	C 	0.0386	0.7336	0.2942	-0.012
Mof_C 	C 	0.088	0.5892	0.5466	0.047
Mof_C 	C 	0.1207	0.6131	0.5285	-0.116
Mof_C 	C 	0.1552	0.595	0.5506	-0.02
Mof_C 	C 	0.0901	0.7243	0.4193	0.041
Mof_C 	C 	0.1328	0.697	0.3892	-0.11
Mof_C 	C 	0.1731	0.7101	0.3627	-0.017
Mof_C 	C 	0.5361	0.9115	0.6847	0.049
Mof_C 	C 	0.571	0.908	0.6984	-0.113
Mof_C 	C 	0.6066	0.864	0.7104	-0.018
Mof_C 	C 	0.3648	0.057	0.6658	0.051
Mof_C 	C 	0.3408	0.0352	0.7156	-0.113
Mof_C 	C 	0.2942	0.0386	0.7336	-0.012
Mof_C 	C 	0.5466	0.088	0.5892	0.047
Mof_C 	C 	0.5285	0.1207	0.6131	-0.116
Mof_C 	C 	0.5506	0.1552	0.595	-0.02
Mof_C 	C 	0.4193	0.0901	0.7243	0.041
Mof_C 	C 	0.3892	0.1328	0.697	-0.11
Mof_C 	C 	0.3627	0.1731	0.7101	-0.017
Mof_C 	C 	0.6847	0.8677	0.5361	0.049
Mof_C 	C 	0.6984	0.8226	0.571	-0.113
Mof_C 	C 	0.7104	0.819	0.6066	-0.018
Mof_C 	C 	0.6658	0.9124	0.3648	0.051
Mof_C 	C 	0.7156	0.9084	0.3408	-0.113
Mof_C 	C 	0.7336	0.9336	0.2942	-0.012
Mof_C 	C 	0.5892	0.7762	0.5466	0.047
Mof_C 	C 	0.6131	0.7377	0.5285	-0.116
Mof_C 	C 	0.595	0.6992	0.5506	-0.02
Mof_C 	C 	0.7243	0.7663	0.4193	0.041
Mof_C 	C 	0.697	0.781	0.3892	-0.11
Mof_C 	C 	0.7101	0.7541	0.3627	-0.017
Mof_C 	C 	0.8677	0.6847	0.9115	0.049
Mof_C 	C 	0.8226	0.6984	0.908	-0.113
Mof_C 	C 	0.819	0.7104	0.864	-0.018
Mof_C 	C 	0.9124	0.6658	0.057	0.051
Mof_C 	C 	0.9084	0.7156	0.0352	-0.114
Mof_C 	C 	0.9336	0.7336	0.0386	-0.012
Mof_C 	C 	0.7762	0.5892	0.088	0.047
Mof_C 	C 	0.7377	0.6131	0.1207	-0.116
Mof_C 	C 	0.6992	0.595	0.1552	-0.02
Mof_C 	C 	0.7663	0.7243	0.0901	0.041
Mof_C 	C 	0.781	0.697	0.1328	-0.11
Mof_C 	C 	0.7541	0.7101	0.1731	-0.017
Mof_C 	C 	0.9115	0.5361	0.8677	0.049
Mof_C 	C 	0.908	0.571	0.8226	-0.113
Mof_C 	C 	0.864	0.6066	0.819	-0.018
Mof_C 	C 	0.057	0.3648	0.9124	0.051
Mof_C 	C 	0.0352	0.3408	0.9084	-0.113
Mof_C 	C 	0.0386	0.2942	0.9336	-0.012
Mof_C 	C 	0.088	0.5466	0.7762	0.047
Mof_C 	C 	0.1207	0.5285	0.7377	-0.116
Mof_C 	C 	0.1552	0.5506	0.6992	-0.02
Mof_C 	C 	0.0901	0.4193	0.7663	0.041
Mof_C 	C 	0.1328	0.3892	0.781	-0.11
Mof_C 	C 	0.1731	0.3627	0.7541	-0.017
Mof_C 	C 	0.3153	0.4639	0.1323	0.049
Mof_C 	C 	0.3016	0.429	0.1774	-0.113
Mof_C 	C 	0.2896	0.3934	0.181	-0.018
Mof_C 	C 	0.3342	0.6352	0.0876	0.051
Mof_C 	C 	0.2844	0.6592	0.0916	-0.113
Mof_C 	C 	0.2664	0.7058	0.0664	-0.012
Mof_C 	C 	0.4108	0.4534	0.2238	0.047
Mof_C 	C 	0.3869	0.4715	0.2623	-0.116
Mof_C 	C 	0.405	0.4494	0.3008	-0.02
Mof_C 	C 	0.2757	0.5807	0.2337	0.041
Mof_C 	C 	0.303	0.6108	0.219	-0.11
Mof_C 	C 	0.2899	0.6373	0.2459	-0.017
Mof_C 	C 	0.4639	0.3153	0.0885	0.049
Mof_C 	C 	0.429	0.3016	0.092	-0.113
Mof_C 	C 	0.3934	0.2896	0.136	-0.018
Mof_C 	C 	0.6352	0.3342	0.943	0.051
Mof_C 	C 	0.6592	0.2844	0.9648	-0.113
Mof_C 	C 	0.7058	0.2664	0.9614	-0.012
Mof_C 	C 	0.4534	0.4108	0.912	0.047
Mof_C 	C 	0.4715	0.3869	0.8793	-0.116
Mof_C 	C 	0.4494	0.405	0.8448	-0.02
Mof_C 	C 	0.5807	0.2757	0.9099	0.041
Mof_C 	C 	0.6108	0.303	0.8672	-0.11
Mof_C 	C 	0.6373	0.2899	0.8269	-0.017
Mof_C 	C 	0.0885	0.1323	0.4639	0.049
Mof_C 	C 	0.092	0.1774	0.429	-0.113
Mof_C 	C 	0.136	0.181	0.3934	-0.018
Mof_C 	C 	0.943	0.0876	0.6352	0.051
Mof_C 	C 	0.9648	0.0916	0.6592	-0.113
Mof_C 	C 	0.9614	0.0664	0.7058	-0.012
Mof_C 	C 	0.912	0.2238	0.4534	0.047
Mof_C 	C 	0.8793	0.2623	0.4715	-0.116
Mof_C 	C 	0.8448	0.3008	0.4494	-0.02
Mof_C 	C 	0.9099	0.2337	0.5807	0.041
Mof_C 	C 	0.8672	0.219	0.6108	-0.11
Mof_C 	C 	0.8269	0.2459	0.6373	-0.017
Mof_C 	C 	0.1323	0.0885	0.3153	0.049
Mof_C 	C 	0.1774	0.092	0.3016	-0.113
Mof_C 	C 	0.181	0.136	0.2896	-0.018
Mof_C 	C 	0.0876	0.943	0.3342	0.051
Mof_C 	C 	0.0916	0.9648	0.2844	-0.114
Mof_C 	C 	0.0664	0.9614	0.2664	-0.012
Mof_C 	C 	0.2238	0.912	0.4108	0.047
Mof_C 	C 	0.2623	0.8793	0.3869	-0.116
Mof_C 	C 	0.3008	0.8448	0.405	-0.02
Mof_C 	C 	0.2337	0.9099	0.2757	0.041
Mof_C 	C 	0.219	0.8672	0.303	-0.11
Mof_C 	C 	0.2459	0.8269	0.2899	-0.017
Mof_C 	C 	0.1323	0.4639	0.0885	0.049
Mof_C 	C 	0.1774	0.429	0.092	-0.113
Mof_C 	C 	0.181	0.3934	0.136	-0.018
Mof_C 	C 	0.0876	0.6352	0.943	0.051
Mof_C 	C 	0.0916	0.6592	0.9648	-0.113
Mof_C 	C 	0.0664	0.7058	0.9614	-0.012
Mof_C 	C 	0.2238	0.4534	0.912	0.047
Mof_C 	C 	0.2623	0.4715	0.8793	-0.116
Mof_C 	C 	0.3008	0.4494	0.8448	-0.02
Mof_C 	C 	0.2337	0.5807	0.9099	0.041
Mof_C 	C 	0.219	0.6108	0.8672	-0.11
Mof_C 	C 	0.2459	0.6373	0.8269	-0.017
Mof_C 	C 	0.0885	0.3153	0.1323	0.049
Mof_C 	C 	0.092	0.3016	0.1774	-0.113
Mof_C 	C 	0.136	0.2896	0.181	-0.018
Mof_C 	C 	0.943	0.3342	0.0876	0.051
Mof_C 	C 	0.9648	0.2844	0.0916	-0.114
Mof_C 	C 	0.9614	0.2664	0.0664	-0.012
Mof_C 	C 	0.912	0.4108	0.2238	0.047
Mof_C 	C 	0.8793	0.3869	0.2623	-0.116
Mof_C 	C 	0.8448	0.405	0.3008	-0.02
Mof_C 	C 	0.9099	0.2757	0.2337	0.041
Mof_C 	C 	0.8672	0.303	0.219	-0.11
Mof_C 	C 	0.8269	0.2899	0.2459	-0.017
Mof_C 	C 	0.4639	0.1323	0.3153	0.049
Mof_C 	C 	0.429	0.1774	0.3016	-0.113
Mof_C 	C 	0.3934	0.181	0.2896	-0.018
Mof_C 	C 	0.6352	0.0876	0.3342	0.051
Mof_C 	C 	0.6592	0.0916	0.2844	-0.113
Mof_C 	C 	0.7058	0.0664	0.2664	-0.012
Mof_C 	C 	0.4534	0.2238	0.4108	0.047
Mof_C 	C 	0.4715	0.2623	0.3869	-0.116
Mof_C 	C 	0.4494	0.3008	0.405	-0.02
Mof_C 	C 	0.5807	0.2337	0.2757	0.041
Mof_C 	C 	0.6108	0.219	0.303	-0.11
Mof_C 	C 	0.6373	0.2459	0.2899	-0.017
Mof_C 	C 	0.3153	0.0885	0.4639	0.049
Mof_C 	C 	0.3016	0.092	0.429	-0.113
Mof_C 	C 	0.2896	0.136	0.3934	-0.018
Mof_C 	C 	0.3342	0.943	0.6352	0.051
Mof_C 	C 	0.2844	0.9648	0.6592	-0.113
Mof_C 	C 	0.2664	0.9614	0.7058	-0.012
Mof_C 	C 	0.4108	0.912	0.4534	0.047
Mof_C 	C 	0.3869	0.8793	0.4715	-0.116
Mof_C 	C 	0.405	0.8448	0.4494	-0.02
Mof_C 	C 	0.2757	0.9099	0.5807	0.041
Mof_C 	C 	0.303	0.8672	0.6108	-0.11
Mof_C 	C 	0.2899	0.8269	0.6373	-0.017
Mof_C 	C 	0.0885	0.4639	0.3153	0.049
Mof_C 	C 	0.092	0.429	0.3016	-0.113
Mof_C 	C 	0.136	0.3934	0.2896	-0.018
Mof_C 	C 	0.943	0.6352	0.3342	0.051
Mof_C 	C 	0.9648	0.6592	0.2844	-0.113
Mof_C 	C 	0.9614	0.7058	0.2664	-0.012
Mof_C 	C 	0.912	0.4534	0.4108	0.047
Mof_C 	C 	0.8793	0.4715	0.3869	-0.116
Mof_C 	C 	0.8448	0.4494	0.405	-0.02
Mof_C 	C 	0.9099	0.5807	0.2757	0.041
Mof_C 	C 	0.8672	0.6108	0.303	-0.11
Mof_C 	C 	0.8269	0.6373	0.2899	-0.017
Mof_C 	C 	0.1323	0.3153	0.4639	0.049
Mof_C 	C 	0.1774	0.3016	0.429	-0.113
Mof_C 	C 	0.181	0.2896	0.3934	-0.018
Mof_C 	C 	0.0876	0.3342	0.6352	0.051
Mof_C 	C 	0.0916	0.2844	0.6592	-0.113
Mof_C 	C 	0.0664	0.2664	0.7058	-0.012
Mof_C 	C 	0.2238	0.4108	0.4534	0.047
Mof_C 	C 	0.2623	0.3869	0.4715	-0.116
Mof_C 	C 	0.3008	0.405	0.4494	-0.02
Mof_C 	C 	0.2337	0.2757	0.5807	0.041
Mof_C 	C 	0.219	0.303	0.6108	-0.11
Mof_C 	C 	0.2459	0.2899	0.6373	-0.017
Mof_C 	C 	0.3153	0.1323	0.0885	0.049
Mof_C 	C 	0.3016	0.1774	0.092	-0.113
Mof_C 	C 	0.2896	0.181	0.136	-0.018
Mof_C 	C 	0.3342	0.0876	0.943	0.051
Mof_C 	C 	0.2844	0.0916	0.9648	-0.114
Mof_C 	C 	0.2664	0.0664	0.9614	-0.012
Mof_C 	C 	0.4108	0.2238	0.912	0.047
Mof_C 	C 	0.3869	0.2623	0.8793	-0.116
Mof_C 	C 	0.405	0.3008	0.8448	-0.02
Mof_C 	C 	0.2757	0.2337	0.9099	0.041
Mof_C 	C 	0.303	0.219	0.8672	-0.11
Mof_C 	C 	0.2899	0.2459	0.8269	-0.017
Mof_C 	C 	0.4639	0.0885	0.1323	0.049
Mof_C 	C 	0.429	0.092	0.1774	-0.113
Mof_C 	C 	0.3934	0.136	0.181	-0.018
Mof_C 	C 	0.6352	0.943	0.0876	0.051
Mof_C 	C 	0.6592	0.9648	0.0916	-0.113
Mof_C 	C 	0.7058	0.9614	0.0664	-0.012
Mof_C 	C 	0.4534	0.912	0.2238	0.047
Mof_C 	C 	0.4715	0.8793	0.2623	-0.116
Mof_C 	C 	0.4494	0.8448	0.3008	-0.02
Mof_C 	C 	0.5807	0.9099	0.2337	0.041
Mof_C 	C 	0.6108	0.8672	0.219	-0.11
Mof_C 	C 	0.6373	0.8269	0.2459	-0.017
Mof_C 	C 	0.5253	0.3373	0.0687	0.098
Mof_C 	C 	0.3373	0.5253	0.0687	0.098
Mof_C 	C 	0.0687	0.0687	0.5253	0.098
Mof_C 	C 	0.0687	0.0687	0.3373	0.098
Mof_C 	C 	0.5253	0.0687	0.0687	0.098
Mof_C 	C 	0.3373	0.0687	0.0687	0.098
Mof_C 	C 	0.0687	0.5253	0.3373	0.098
Mof_C 	C 	0.0687	0.3373	0.5253	0.098
Mof_C 	C 	0.5253	0.0687	0.3373	0.098
Mof_C 	C 	0.3373	0.0687	0.5253	0.098
Mof_C 	C 	0.0687	0.3373	0.0687	0.098
Mof_C 	C 	0.0687	0.5253	0.0687	0.098
Mof_C 	C 	0.6627	0.4747	0.9313	0.098
Mof_C 	C 	0.4747	0.6627	0.9313	0.098
Mof_C 	C 	0.9313	0.9313	0.4747	0.098
Mof_C 	C 	0.9313	0.9313	0.6627	0.098
Mof_C 	C 	0.9313	0.4747	0.9313	0.098
Mof_C 	C 	0.9313	0.6627	0.9313	0.098
Mof_C 	C 	0.4747	0.9313	0.6627	0.098
Mof_C 	C 	0.6627	0.9313	0.4747	0.098
Mof_C 	C 	0.9313	0.4747	0.6627	0.098
Mof_C 	C 	0.9313	0.6627	0.4747	0.098
Mof_C 	C 	0.6627	0.9313	0.9313	0.098
Mof_C 	C 	0.4747	0.9313	0.9313	0.098
Mof_C 	C 	0.5892	0.4108	0.0858	0.077
Mof_C 	C 	0.4108	0.5892	0.9142	0.077
Mof_C 	C 	0.0858	0.9142	0.5892	0.076
Mof_C 	C 	0.9142	0.0858	0.4108	0.076
Mof_C 	C 	0.5892	0.0858	0.9142	0.076
Mof_C 	C 	0.4108	0.9142	0.0858	0.076
Mof_C 	C 	0.0858	0.5892	0.4108	0.077
Mof_C 	C 	0.9142	0.4108	0.5892	0.077
Mof_C 	C 	0.5892	0.9142	0.4108	0.077
Mof_C 	C 	0.4108	0.0858	0.5892	0.077
Mof_C 	C 	0.0858	0.4108	0.9142	0.076
Mof_C 	C 	0.9142	0.5892	0.0858	0.076
Mof_C 	C 	0.5892	0.4108	0.9142	0.077
Mof_C 	C 	0.4108	0.5892	0.0858	0.077
Mof_C 	C 	0.0858	0.9142	0.4108	0.076
Mof_C 	C 	0.9142	0.0858	0.5892	0.076
Mof_C 	C 	0.9142	0.4108	0.0858	0.076
Mof_C 	C 	0.0858	0.5892	0.9142	0.076
Mof_C 	C 	0.4108	0.9142	0.5892	0.077
Mof_C 	C 	0.5892	0.0858	0.4108	0.077
Mof_C 	C 	0.0858	0.4108	0.5892	0.077
Mof_C 	C 	0.9142	0.5892	0.4108	0.077
Mof_C 	C 	0.5892	0.9142	0.0858	0.076
Mof_C 	C 	0.4108	0.0858	0.9142	0.076
Mof_C 	C 	0.4344	0.4344	0.1594	0.093
Mof_C 	C 	0.4344	0.4344	0.9718	0.093
Mof_C 	C 	0.1594	0.9718	0.4344	0.093
Mof_C 	C 	0.9718	0.1594	0.4344	0.093
Mof_C 	C 	0.4344	0.1594	0.9718	0.093
Mof_C 	C 	0.4344	0.9718	0.1594	0.093
Mof_C 	C 	0.1594	0.4344	0.4344	0.093
Mof_C 	C 	0.9718	0.4344	0.4344	0.093
Mof_C 	C 	0.4344	0.9718	0.4344	0.093
Mof_C 	C 	0.4344	0.1594	0.4344	0.093
Mof_C 	C 	0.1594	0.4344	0.9718	0.093
Mof_C 	C 	0.9718	0.4344	0.1594	0.093
Mof_C 	C 	0.5656	0.5656	0.8406	0.093
Mof_C 	C 	0.5656	0.5656	0.0282	0.093
Mof_C 	C 	0.0282	0.8406	0.5656	0.093
Mof_C 	C 	0.8406	0.0282	0.5656	0.093
Mof_C 	C 	0.8406	0.5656	0.0282	0.093
Mof_C 	C 	0.0282	0.5656	0.8406	0.093
Mof_C 	C 	0.5656	0.8406	0.5656	0.093
Mof_C 	C 	0.5656	0.0282	0.5656	0.093
Mof_C 	C 	0.0282	0.5656	0.5656	0.093
Mof_C 	C 	0.8406	0.5656	0.5656	0.093
Mof_C 	C 	0.5656	0.8406	0.0282	0.093
Mof_C 	C 	0.5656	0.0282	0.8406	0.093
Mof_C 	C 	0.5307	0.2447	0.2447	0.115
Mof_C 	C 	0.2447	0.5307	0.9799	0.113
Mof_C 	C 	0.2447	0.9799	0.5307	0.113
Mof_C 	C 	0.9799	0.2447	0.2447	0.111
Mof_C 	C 	0.5307	0.2447	0.9799	0.113
Mof_C 	C 	0.2447	0.9799	0.2447	0.111
Mof_C 	C 	0.2447	0.5307	0.2447	0.115
Mof_C 	C 	0.9799	0.2447	0.5307	0.113
Mof_C 	C 	0.5307	0.9799	0.2447	0.113
Mof_C 	C 	0.2447	0.2447	0.5307	0.115
Mof_C 	C 	0.2447	0.2447	0.9799	0.111
Mof_C 	C 	0.9799	0.5307	0.2447	0.113
Mof_C 	C 	0.7553	0.4693	0.7553	0.115
Mof_C 	C 	0.4693	0.7553	0.0201	0.113
Mof_C 	C 	0.0201	0.7553	0.4693	0.113
Mof_C 	C 	0.7553	0.0201	0.7553	0.111
Mof_C 	C 	0.7553	0.4693	0.0201	0.113
Mof_C 	C 	0.0201	0.7553	0.7553	0.111
Mof_C 	C 	0.4693	0.7553	0.7553	0.115
Mof_C 	C 	0.7553	0.0201	0.4693	0.113
Mof_C 	C 	0.0201	0.4693	0.7553	0.113
Mof_C 	C 	0.7553	0.7553	0.4693	0.115
Mof_C 	C 	0.7553	0.7553	0.0201	0.111
Mof_C 	C 	0.4693	0.0201	0.7553	0.113
Mof_N 	N 	0.50416	0.32984	0.11764	-0.3
Mof_N 	N 	0.58663	0.36371	0.10595	-0.294
Mof_N 	N 	0.46914	0.3982	0.18136	-0.303
Mof_N 	N 	0.54845	0.28225	0.21297	-0.301
Mof_N 	N 	0.32984	0.50416	0.04836	-0.3
Mof_N 	N 	0.36371	0.58663	0.94371	-0.294
Mof_N 	N 	0.3982	0.46914	0.9513	-0.303
Mof_N 	N 	0.28225	0.54845	0.95633	-0.3
Mof_N 	N 	0.11764	0.04836	0.50416	-0.3
Mof_N 	N 	0.10595	0.94371	0.58663	-0.294
Mof_N 	N 	0.18136	0.9513	0.46914	-0.304
Mof_N 	N 	0.21297	0.95633	0.54845	-0.3
Mof_N 	N 	0.04836	0.11764	0.32984	-0.299
Mof_N 	N 	0.94371	0.10595	0.36371	-0.294
Mof_N 	N 	0.9513	0.18136	0.3982	-0.304
Mof_N 	N 	0.95633	0.21297	0.28225	-0.3
Mof_N 	N 	0.50416	0.11764	0.04836	-0.3
Mof_N 	N 	0.58663	0.10595	0.94371	-0.294
Mof_N 	N 	0.46914	0.18136	0.9513	-0.304
Mof_N 	N 	0.54845	0.21297	0.95633	-0.3
Mof_N 	N 	0.32984	0.04836	0.11764	-0.299
Mof_N 	N 	0.36371	0.94371	0.10595	-0.294
Mof_N 	N 	0.3982	0.9513	0.18136	-0.304
Mof_N 	N 	0.28225	0.95633	0.21297	-0.3
Mof_N 	N 	0.11764	0.50416	0.32984	-0.3
Mof_N 	N 	0.10595	0.58663	0.36371	-0.294
Mof_N 	N 	0.18136	0.46914	0.3982	-0.303
Mof_N 	N 	0.21297	0.54845	0.28225	-0.301
Mof_N 	N 	0.04836	0.32984	0.50416	-0.3
Mof_N 	N 	0.94371	0.36371	0.58663	-0.294
Mof_N 	N 	0.9513	0.3982	0.46914	-0.303
Mof_N 	N 	0.95633	0.28225	0.54845	-0.3
Mof_N 	N 	0.50416	0.04836	0.32984	-0.3
Mof_N 	N 	0.58663	0.94371	0.36371	-0.294
Mof_N 	N 	0.46914	0.9513	0.3982	-0.303
Mof_N 	N 	0.54845	0.95633	0.28225	-0.3
Mof_N 	N 	0.32984	0.11764	0.50416	-0.3
Mof_N 	N 	0.36371	0.10595	0.58663	-0.294
Mof_N 	N 	0.3982	0.18136	0.46914	-0.303
Mof_N 	N 	0.28225	0.21297	0.54845	-0.301
Mof_N 	N 	0.11764	0.32984	0.04836	-0.299
Mof_N 	N 	0.10595	0.36371	0.94371	-0.294
Mof_N 	N 	0.18136	0.3982	0.9513	-0.304
Mof_N 	N 	0.21297	0.28225	0.95633	-0.3
Mof_N 	N 	0.04836	0.50416	0.11764	-0.3
Mof_N 	N 	0.94371	0.58663	0.10595	-0.294
Mof_N 	N 	0.9513	0.46914	0.18136	-0.304
Mof_N 	N 	0.95633	0.54845	0.21297	-0.3
Mof_N 	N 	0.67016	0.49584	0.88236	-0.3
Mof_N 	N 	0.63629	0.41337	0.89405	-0.294
Mof_N 	N 	0.6018	0.53086	0.81864	-0.303
Mof_N 	N 	0.71775	0.45155	0.78703	-0.301
Mof_N 	N 	0.49584	0.67016	0.95164	-0.3
Mof_N 	N 	0.41337	0.63629	0.05629	-0.294
Mof_N 	N 	0.53086	0.6018	0.0487	-0.303
Mof_N 	N 	0.45155	0.71775	0.04367	-0.3
Mof_N 	N 	0.95164	0.88236	0.49584	-0.3
Mof_N 	N 	0.05629	0.89405	0.41337	-0.294
Mof_N 	N 	0.0487	0.81864	0.53086	-0.304
Mof_N 	N 	0.04367	0.78703	0.45155	-0.3
Mof_N 	N 	0.88236	0.95164	0.67016	-0.299
Mof_N 	N 	0.89405	0.05629	0.63629	-0.294
Mof_N 	N 	0.81864	0.0487	0.6018	-0.304
Mof_N 	N 	0.78703	0.04367	0.71775	-0.3
Mof_N 	N 	0.88236	0.49584	0.95164	-0.3
Mof_N 	N 	0.89405	0.41337	0.05629	-0.294
Mof_N 	N 	0.81864	0.53086	0.0487	-0.304
Mof_N 	N 	0.78703	0.45155	0.04367	-0.3
Mof_N 	N 	0.95164	0.67016	0.88236	-0.299
Mof_N 	N 	0.05629	0.63629	0.89405	-0.294
Mof_N 	N 	0.0487	0.6018	0.81864	-0.304
Mof_N 	N 	0.04367	0.71775	0.78703	-0.3
Mof_N 	N 	0.49584	0.88236	0.67016	-0.3
Mof_N 	N 	0.41337	0.89405	0.63629	-0.294
Mof_N 	N 	0.53086	0.81864	0.6018	-0.303
Mof_N 	N 	0.45155	0.78703	0.71775	-0.301
Mof_N 	N 	0.67016	0.95164	0.49584	-0.3
Mof_N 	N 	0.63629	0.05629	0.41337	-0.294
Mof_N 	N 	0.6018	0.0487	0.53086	-0.303
Mof_N 	N 	0.71775	0.04367	0.45155	-0.3
Mof_N 	N 	0.95164	0.49584	0.67016	-0.3
Mof_N 	N 	0.05629	0.41337	0.63629	-0.294
Mof_N 	N 	0.0487	0.53086	0.6018	-0.303
Mof_N 	N 	0.04367	0.45155	0.71775	-0.3
Mof_N 	N 	0.88236	0.67016	0.49584	-0.3
Mof_N 	N 	0.89405	0.63629	0.41337	-0.294
Mof_N 	N 	0.81864	0.6018	0.53086	-0.303
Mof_N 	N 	0.78703	0.71775	0.45155	-0.301
Mof_N 	N 	0.67016	0.88236	0.95164	-0.299
Mof_N 	N 	0.63629	0.89405	0.05629	-0.294
Mof_N 	N 	0.6018	0.81864	0.0487	-0.304
Mof_N 	N 	0.71775	0.78703	0.04367	-0.3
Mof_N 	N 	0.49584	0.95164	0.88236	-0.3
Mof_N 	N 	0.41337	0.05629	0.89405	-0.294
Mof_N 	N 	0.53086	0.0487	0.81864	-0.304
Mof_N 	N 	0.45155	0.04367	0.78703	-0.3
Mof_N 	N 	0.49584	0.67016	0.88236	-0.3
Mof_N 	N 	0.41337	0.63629	0.89405	-0.294
Mof_N 	N 	0.53086	0.6018	0.81864	-0.303
Mof_N 	N 	0.45155	0.71775	0.78703	-0.301
Mof_N 	N 	0.67016	0.49584	0.95164	-0.3
Mof_N 	N 	0.63629	0.41337	0.05629	-0.294
Mof_N 	N 	0.6018	0.53086	0.0487	-0.303
Mof_N 	N 	0.71775	0.45155	0.04367	-0.3
Mof_N 	N 	0.88236	0.95164	0.49584	-0.3
Mof_N 	N 	0.89405	0.05629	0.41337	-0.294
Mof_N 	N 	0.81864	0.0487	0.53086	-0.304
Mof_N 	N 	0.78703	0.04367	0.45155	-0.3
Mof_N 	N 	0.95164	0.88236	0.67016	-0.299
Mof_N 	N 	0.05629	0.89405	0.63629	-0.294
Mof_N 	N 	0.0487	0.81864	0.6018	-0.304
Mof_N 	N 	0.04367	0.78703	0.71775	-0.3
Mof_N 	N 	0.49584	0.88236	0.95164	-0.3
Mof_N 	N 	0.41337	0.89405	0.05629	-0.294
Mof_N 	N 	0.53086	0.81864	0.0487	-0.304
Mof_N 	N 	0.45155	0.78703	0.04367	-0.3
Mof_N 	N 	0.67016	0.95164	0.88236	-0.299
Mof_N 	N 	0.63629	0.05629	0.89405	-0.294
Mof_N 	N 	0.6018	0.0487	0.81864	-0.304
Mof_N 	N 	0.71775	0.04367	0.78703	-0.3
Mof_N 	N 	0.88236	0.49584	0.67016	-0.3
Mof_N 	N 	0.89405	0.41337	0.63629	-0.294
Mof_N 	N 	0.81864	0.53086	0.6018	-0.303
Mof_N 	N 	0.78703	0.45155	0.71775	-0.301
Mof_N 	N 	0.95164	0.67016	0.49584	-0.3
Mof_N 	N 	0.05629	0.63629	0.41337	-0.294
Mof_N 	N 	0.0487	0.6018	0.53086	-0.303
Mof_N 	N 	0.04367	0.71775	0.45155	-0.3
Mof_N 	N 	0.49584	0.95164	0.67016	-0.3
Mof_N 	N 	0.41337	0.05629	0.63629	-0.294
Mof_N 	N 	0.53086	0.0487	0.6018	-0.303
Mof_N 	N 	0.45155	0.04367	0.71775	-0.3
Mof_N 	N 	0.67016	0.88236	0.49584	-0.3
Mof_N 	N 	0.63629	0.89405	0.41337	-0.294
Mof_N 	N 	0.6018	0.81864	0.53086	-0.303
Mof_N 	N 	0.71775	0.78703	0.45155	-0.301
Mof_N 	N 	0.88236	0.67016	0.95164	-0.299
Mof_N 	N 	0.89405	0.63629	0.05629	-0.294
Mof_N 	N 	0.81864	0.6018	0.0487	-0.304
Mof_N 	N 	0.78703	0.71775	0.04367	-0.3
Mof_N 	N 	0.95164	0.49584	0.88236	-0.3
Mof_N 	N 	0.05629	0.41337	0.89405	-0.294
Mof_N 	N 	0.0487	0.53086	0.81864	-0.304
Mof_N 	N 	0.04367	0.45155	0.78703	-0.3
Mof_N 	N 	0.32984	0.50416	0.11764	-0.3
Mof_N 	N 	0.36371	0.58663	0.10595	-0.294
Mof_N 	N 	0.3982	0.46914	0.18136	-0.303
Mof_N 	N 	0.28225	0.54845	0.21297	-0.301
Mof_N 	N 	0.50416	0.32984	0.04836	-0.3
Mof_N 	N 	0.58663	0.36371	0.94371	-0.294
Mof_N 	N 	0.46914	0.3982	0.9513	-0.303
Mof_N 	N 	0.54845	0.28225	0.95633	-0.3
Mof_N 	N 	0.04836	0.11764	0.50416	-0.3
Mof_N 	N 	0.94371	0.10595	0.58663	-0.294
Mof_N 	N 	0.9513	0.18136	0.46914	-0.304
Mof_N 	N 	0.95633	0.21297	0.54845	-0.3
Mof_N 	N 	0.11764	0.04836	0.32984	-0.299
Mof_N 	N 	0.10595	0.94371	0.36371	-0.294
Mof_N 	N 	0.18136	0.9513	0.3982	-0.304
Mof_N 	N 	0.21297	0.95633	0.28225	-0.3
Mof_N 	N 	0.11764	0.50416	0.04836	-0.3
Mof_N 	N 	0.10595	0.58663	0.94371	-0.294
Mof_N 	N 	0.18136	0.46914	0.9513	-0.304
Mof_N 	N 	0.21297	0.54845	0.95633	-0.3
Mof_N 	N 	0.04836	0.32984	0.11764	-0.299
Mof_N 	N 	0.94371	0.36371	0.10595	-0.294
Mof_N 	N 	0.9513	0.3982	0.18136	-0.304
Mof_N 	N 	0.95633	0.28225	0.21297	-0.3
Mof_N 	N 	0.50416	0.11764	0.32984	-0.3
Mof_N 	N 	0.58663	0.10595	0.36371	-0.294
Mof_N 	N 	0.46914	0.18136	0.3982	-0.303
Mof_N 	N 	0.54845	0.21297	0.28225	-0.301
Mof_N 	N 	0.32984	0.04836	0.50416	-0.3
Mof_N 	N 	0.36371	0.94371	0.58663	-0.294
Mof_N 	N 	0.3982	0.9513	0.46914	-0.303
Mof_N 	N 	0.28225	0.95633	0.54845	-0.3
Mof_N 	N 	0.04836	0.50416	0.32984	-0.3
Mof_N 	N 	0.94371	0.58663	0.36371	-0.294
Mof_N 	N 	0.9513	0.46914	0.3982	-0.303
Mof_N 	N 	0.95633	0.54845	0.28225	-0.3
Mof_N 	N 	0.11764	0.32984	0.50416	-0.3
Mof_N 	N 	0.10595	0.36371	0.58663	-0.294
Mof_N 	N 	0.18136	0.3982	0.46914	-0.303
Mof_N 	N 	0.21297	0.28225	0.54845	-0.301
Mof_N 	N 	0.32984	0.11764	0.04836	-0.299
Mof_N 	N 	0.36371	0.10595	0.94371	-0.294
Mof_N 	N 	0.3982	0.18136	0.9513	-0.304
Mof_N 	N 	0.28225	0.21297	0.95633	-0.3
Mof_N 	N 	0.50416	0.04836	0.11764	-0.3
Mof_N 	N 	0.58663	0.94371	0.10595	-0.294
Mof_N 	N 	0.46914	0.9513	0.18136	-0.304
Mof_N 	N 	0.54845	0.95633	0.21297	-0.3
_end
