data_functionalizedCrystal
_audit_creation_method	'EQeq! by Chris Wilmer'
_symmetry_space_group_name_H-M	'P1'
_symmetry_Int_Tables_number	1
_symmetry_cell_setting	triclinic
loop_
_symmetry_equiv_pos_as_xyz
  x,y,z
_cell_length_a	21.553
_cell_length_b	21.553
_cell_length_c	40.781
_cell_angle_alpha	90
_cell_angle_beta	90
_cell_angle_gamma	90
loop_
_atom_site_label
_atom_site_type_symbol
_atom_site_fract_x
_atom_site_fract_y
_atom_site_fract_z
_atom_site_charge
Mof_Zn	Zn	0.37999	0.08475	0.37286	1.203
Mof_Zn	Zn	0.45	0.96629	0.41538	1.192
Mof_Zn	Zn	0.94107	0.9367	0.39378	1.189
Mof_Zn	Zn	0.00875	0.03451	0.33937	1.239
Mof_Zn	Zn	0.62001	0.91525	0.87286	1.203
Mof_Zn	Zn	0.55	0.03371	0.91538	1.192
Mof_Zn	Zn	0.05893	0.0633	0.89378	1.189
Mof_Zn	Zn	0.99125	0.96549	0.83937	1.239
Mof_Zn	Zn	0.41525	0.87999	0.62286	1.204
Mof_Zn	Zn	0.53371	0.95	0.66538	1.193
Mof_Zn	Zn	0.5633	0.44107	0.64378	1.191
Mof_Zn	Zn	0.46549	0.50875	0.58937	1.24
Mof_Zn	Zn	0.58475	0.12001	0.12286	1.204
Mof_Zn	Zn	0.46629	0.05	0.16538	1.193
Mof_Zn	Zn	0.4367	0.55893	0.14378	1.191
Mof_Zn	Zn	0.53451	0.49125	0.08937	1.24
Mof_Zn	Zn	0.12001	0.58475	0.87714	1.204
Mof_Zn	Zn	0.05	0.46629	0.83462	1.193
Mof_Zn	Zn	0.55893	0.4367	0.85622	1.191
Mof_Zn	Zn	0.49125	0.53451	0.91063	1.24
Mof_Zn	Zn	0.87999	0.41525	0.37714	1.204
Mof_Zn	Zn	0.95	0.53371	0.33462	1.193
Mof_Zn	Zn	0.44107	0.5633	0.35622	1.191
Mof_Zn	Zn	0.50875	0.46549	0.41063	1.24
Mof_Zn	Zn	0.08475	0.37999	0.62714	1.204
Mof_Zn	Zn	0.96629	0.45	0.58462	1.193
Mof_Zn	Zn	0.9367	0.94107	0.60622	1.19
Mof_Zn	Zn	0.03451	0.00875	0.66063	1.24
Mof_Zn	Zn	0.91525	0.62001	0.12714	1.204
Mof_Zn	Zn	0.03371	0.55	0.08462	1.193
Mof_Zn	Zn	0.0633	0.05893	0.10622	1.19
Mof_Zn	Zn	0.96549	0.99125	0.16063	1.24
Mof_H 	H 	0.2334	0.7791	0.5038	0.054
Mof_H 	H 	0.2098	0.7221	0.5242	0.053
Mof_H 	H 	0.0838	0.7141	0.5006	0.046
Mof_H 	H 	0.1276	0.6564	0.5049	0.053
Mof_H 	H 	0.2531	0.7106	0.4567	0.049
Mof_H 	H 	0.1996	0.6675	0.4435	0.053
Mof_H 	H 	0.1209	0.8037	0.4632	0.037
Mof_H 	H 	0.1344	0.7561	0.4349	0.036
Mof_H 	H 	0.2889	0.8776	0.4264	0.093
Mof_H 	H 	0.1935	0.0064	0.3771	0.06
Mof_H 	H 	0.1046	0.8648	0.4207	0.069
Mof_H 	H 	0.26	0.8091	0.5555	0.09
Mof_H 	H 	0.1983	0.9209	0.6253	0.058
Mof_H 	H 	0.0789	0.8535	0.5585	0.083
Mof_H 	H 	0.0385	0.5965	0.4173	0.088
Mof_H 	H 	0.9548	0.4655	0.4705	0.066
Mof_H 	H 	0.0511	0.6007	0.5154	0.092
Mof_H 	H 	0.2997	0.5985	0.5321	0.103
Mof_H 	H 	0.4486	0.539	0.4799	0.07
Mof_H 	H 	0.3041	0.6181	0.4339	0.077
Mof_H 	H 	0.7666	0.2209	0.0038	0.054
Mof_H 	H 	0.7902	0.2779	0.0242	0.053
Mof_H 	H 	0.9162	0.2859	0.0006	0.046
Mof_H 	H 	0.8724	0.3436	0.0049	0.053
Mof_H 	H 	0.7469	0.2894	0.9567	0.049
Mof_H 	H 	0.8004	0.3325	0.9435	0.053
Mof_H 	H 	0.8791	0.1963	0.9632	0.037
Mof_H 	H 	0.8656	0.2439	0.9349	0.036
Mof_H 	H 	0.7111	0.1224	0.9264	0.093
Mof_H 	H 	0.8065	0.9936	0.8771	0.06
Mof_H 	H 	0.8954	0.1352	0.9207	0.069
Mof_H 	H 	0.74	0.1909	0.0555	0.09
Mof_H 	H 	0.8017	0.0791	0.1253	0.058
Mof_H 	H 	0.9211	0.1465	0.0585	0.083
Mof_H 	H 	0.9615	0.4035	0.9173	0.088
Mof_H 	H 	0.0452	0.5345	0.9705	0.066
Mof_H 	H 	0.9489	0.3993	0.0154	0.092
Mof_H 	H 	0.7003	0.4015	0.0321	0.103
Mof_H 	H 	0.5514	0.461	0.9799	0.07
Mof_H 	H 	0.6959	0.3819	0.9339	0.077
Mof_H 	H 	0.7209	0.7334	0.7538	0.054
Mof_H 	H 	0.7779	0.7098	0.7742	0.053
Mof_H 	H 	0.7859	0.5838	0.7506	0.045
Mof_H 	H 	0.8436	0.6276	0.7549	0.053
Mof_H 	H 	0.7894	0.7531	0.7067	0.049
Mof_H 	H 	0.8325	0.6996	0.6935	0.053
Mof_H 	H 	0.6963	0.6209	0.7132	0.037
Mof_H 	H 	0.7439	0.6344	0.6849	0.036
Mof_H 	H 	0.6224	0.7889	0.6764	0.093
Mof_H 	H 	0.4936	0.6935	0.6271	0.062
Mof_H 	H 	0.6352	0.6046	0.6707	0.07
Mof_H 	H 	0.6909	0.76	0.8055	0.09
Mof_H 	H 	0.5791	0.6983	0.8753	0.058
Mof_H 	H 	0.6465	0.5789	0.8085	0.082
Mof_H 	H 	0.9035	0.5385	0.6673	0.088
Mof_H 	H 	0.0345	0.4548	0.7205	0.066
Mof_H 	H 	0.8993	0.5511	0.7654	0.092
Mof_H 	H 	0.9015	0.7997	0.7821	0.103
Mof_H 	H 	0.961	0.9486	0.7299	0.07
Mof_H 	H 	0.8819	0.8041	0.6839	0.077
Mof_H 	H 	0.2791	0.2666	0.2538	0.054
Mof_H 	H 	0.2221	0.2902	0.2742	0.053
Mof_H 	H 	0.2141	0.4162	0.2506	0.045
Mof_H 	H 	0.1564	0.3724	0.2549	0.053
Mof_H 	H 	0.2106	0.2469	0.2067	0.049
Mof_H 	H 	0.1675	0.3004	0.1935	0.053
Mof_H 	H 	0.3037	0.3791	0.2132	0.037
Mof_H 	H 	0.2561	0.3656	0.1849	0.036
Mof_H 	H 	0.3776	0.2111	0.1764	0.093
Mof_H 	H 	0.5064	0.3065	0.1271	0.062
Mof_H 	H 	0.3648	0.3954	0.1707	0.07
Mof_H 	H 	0.3091	0.24	0.3055	0.09
Mof_H 	H 	0.4209	0.3017	0.3753	0.058
Mof_H 	H 	0.3535	0.4211	0.3085	0.082
Mof_H 	H 	0.0965	0.4615	0.1673	0.088
Mof_H 	H 	0.9655	0.5452	0.2205	0.066
Mof_H 	H 	0.1007	0.4489	0.2654	0.092
Mof_H 	H 	0.0985	0.2003	0.2821	0.103
Mof_H 	H 	0.039	0.0514	0.2299	0.07
Mof_H 	H 	0.1181	0.1959	0.1839	0.077
Mof_H 	H 	0.2666	0.2791	0.7462	0.054
Mof_H 	H 	0.2902	0.2221	0.7258	0.053
Mof_H 	H 	0.4162	0.2141	0.7494	0.045
Mof_H 	H 	0.3724	0.1564	0.7451	0.053
Mof_H 	H 	0.2469	0.2106	0.7933	0.049
Mof_H 	H 	0.3004	0.1675	0.8065	0.053
Mof_H 	H 	0.3791	0.3037	0.7868	0.037
Mof_H 	H 	0.3656	0.2561	0.8151	0.036
Mof_H 	H 	0.2111	0.3776	0.8236	0.093
Mof_H 	H 	0.3065	0.5064	0.8729	0.062
Mof_H 	H 	0.3954	0.3648	0.8293	0.07
Mof_H 	H 	0.24	0.3091	0.6945	0.09
Mof_H 	H 	0.3017	0.4209	0.6247	0.058
Mof_H 	H 	0.4211	0.3535	0.6915	0.082
Mof_H 	H 	0.4615	0.0965	0.8327	0.088
Mof_H 	H 	0.5452	0.9655	0.7795	0.066
Mof_H 	H 	0.4489	0.1007	0.7346	0.092
Mof_H 	H 	0.2003	0.0985	0.7179	0.103
Mof_H 	H 	0.0514	0.039	0.7701	0.07
Mof_H 	H 	0.1959	0.1181	0.8161	0.077
Mof_H 	H 	0.7334	0.7209	0.2462	0.054
Mof_H 	H 	0.7098	0.7779	0.2258	0.053
Mof_H 	H 	0.5838	0.7859	0.2494	0.045
Mof_H 	H 	0.6276	0.8436	0.2451	0.053
Mof_H 	H 	0.7531	0.7894	0.2933	0.049
Mof_H 	H 	0.6996	0.8325	0.3065	0.053
Mof_H 	H 	0.6209	0.6963	0.2868	0.037
Mof_H 	H 	0.6344	0.7439	0.3151	0.036
Mof_H 	H 	0.7889	0.6224	0.3236	0.093
Mof_H 	H 	0.6935	0.4936	0.3729	0.062
Mof_H 	H 	0.6046	0.6352	0.3293	0.07
Mof_H 	H 	0.76	0.6909	0.1945	0.09
Mof_H 	H 	0.6983	0.5791	0.1247	0.058
Mof_H 	H 	0.5789	0.6465	0.1915	0.082
Mof_H 	H 	0.5385	0.9035	0.3327	0.088
Mof_H 	H 	0.4548	0.0345	0.2795	0.066
Mof_H 	H 	0.5511	0.8993	0.2346	0.092
Mof_H 	H 	0.7997	0.9015	0.2179	0.103
Mof_H 	H 	0.9486	0.961	0.2701	0.07
Mof_H 	H 	0.8041	0.8819	0.3161	0.077
Mof_H 	H 	0.7791	0.2334	0.4962	0.054
Mof_H 	H 	0.7221	0.2098	0.4758	0.053
Mof_H 	H 	0.7141	0.0838	0.4994	0.046
Mof_H 	H 	0.6564	0.1276	0.4951	0.053
Mof_H 	H 	0.7106	0.2531	0.5433	0.049
Mof_H 	H 	0.6675	0.1996	0.5565	0.053
Mof_H 	H 	0.8037	0.1209	0.5368	0.037
Mof_H 	H 	0.7561	0.1344	0.5651	0.036
Mof_H 	H 	0.8776	0.2889	0.5736	0.093
Mof_H 	H 	0.0064	0.1935	0.6229	0.06
Mof_H 	H 	0.8648	0.1046	0.5793	0.069
Mof_H 	H 	0.8091	0.26	0.4445	0.09
Mof_H 	H 	0.9209	0.1983	0.3747	0.058
Mof_H 	H 	0.8535	0.0789	0.4415	0.083
Mof_H 	H 	0.5965	0.0385	0.5827	0.088
Mof_H 	H 	0.4655	0.9548	0.5295	0.066
Mof_H 	H 	0.6007	0.0511	0.4846	0.092
Mof_H 	H 	0.5985	0.2997	0.4679	0.103
Mof_H 	H 	0.539	0.4486	0.5201	0.07
Mof_H 	H 	0.6181	0.3041	0.5661	0.077
Mof_H 	H 	0.2209	0.7666	0.9962	0.054
Mof_H 	H 	0.2779	0.7902	0.9758	0.053
Mof_H 	H 	0.2859	0.9162	0.9994	0.046
Mof_H 	H 	0.3436	0.8724	0.9951	0.053
Mof_H 	H 	0.2894	0.7469	0.0433	0.049
Mof_H 	H 	0.3325	0.8004	0.0565	0.053
Mof_H 	H 	0.1963	0.8791	0.0368	0.037
Mof_H 	H 	0.2439	0.8656	0.0651	0.036
Mof_H 	H 	0.1224	0.7111	0.0736	0.093
Mof_H 	H 	0.9936	0.8065	0.1229	0.06
Mof_H 	H 	0.1352	0.8954	0.0793	0.069
Mof_H 	H 	0.1909	0.74	0.9445	0.09
Mof_H 	H 	0.0791	0.8017	0.8747	0.058
Mof_H 	H 	0.1465	0.9211	0.9415	0.083
Mof_H 	H 	0.4035	0.9615	0.0827	0.088
Mof_H 	H 	0.5345	0.0452	0.0295	0.066
Mof_H 	H 	0.3993	0.9489	0.9846	0.092
Mof_H 	H 	0.4015	0.7003	0.9679	0.103
Mof_H 	H 	0.461	0.5514	0.0201	0.07
Mof_H 	H 	0.3819	0.6959	0.0661	0.077
Mof_C 	C 	0.1696	0.7275	0.47921	0.023
Mof_C 	C 	0.197	0.755	0.50947	-0.008
Mof_C 	C 	0.1141	0.6881	0.48963	-0.005
Mof_C 	C 	0.2169	0.6866	0.46295	-0.012
Mof_C 	C 	0.1519	0.776	0.4541	0.013
Mof_C 	C 	0.1964	0.8622	0.42784	0.18
Mof_C 	C 	0.2507	0.8934	0.41985	-0.129
Mof_C 	C 	0.2481	0.9484	0.40203	-0.026
Mof_C 	C 	0.3138	0.9817	0.39722	0.337
Mof_C 	C 	0.1941	0.9705	0.38979	-0.002
Mof_C 	C 	0.1397	0.9385	0.39664	-0.088
Mof_C 	C 	0.1414	0.8853	0.41586	-0.107
Mof_C 	C 	0.08	0.9607	0.3864	0.417
Mof_C 	C 	0.1681	0.827	0.55268	0.171
Mof_C 	C 	0.2277	0.8304	0.56557	-0.106
Mof_C 	C 	0.2389	0.8658	0.59344	-0.065
Mof_C 	C 	0.3078	0.8716	0.6087	0.509
Mof_C 	C 	0.191	0.8961	0.60703	0.006
Mof_C 	C 	0.1308	0.8919	0.59493	-0.063
Mof_C 	C 	0.1188	0.8567	0.56708	-0.106
Mof_C 	C 	0.0763	0.9248	0.60987	0.396
Mof_C 	C 	0.0468	0.6095	0.46624	0.175
Mof_C 	C 	0.0268	0.5807	0.43763	-0.121
Mof_C 	C 	0.9894	0.5283	0.43936	-0.042
Mof_C 	C 	0.9681	0.5027	0.40595	0.379
Mof_C 	C 	0.9775	0.5021	0.46932	-0.025
Mof_C 	C 	0.9992	0.5296	0.49796	-0.029
Mof_C 	C 	0.0351	0.583	0.49635	-0.132
Mof_C 	C 	0.986	0.5032	0.53152	0.315
Mof_C 	C 	0.2905	0.6127	0.4833	0.167
Mof_C 	C 	0.3193	0.593	0.51198	-0.123
Mof_C 	C 	0.3773	0.565	0.51059	-0.023
Mof_C 	C 	0.4038	0.5467	0.5432	0.314
Mof_C 	C 	0.409	0.5561	0.48041	-0.012
Mof_C 	C 	0.3792	0.5739	0.4517	-0.083
Mof_C 	C 	0.3221	0.6037	0.45322	-0.097
Mof_C 	C 	0.4075	0.5635	0.4187	0.442
Mof_C 	C 	0.8304	0.2725	0.97921	0.023
Mof_C 	C 	0.803	0.245	0.00947	-0.008
Mof_C 	C 	0.8859	0.3119	0.98963	-0.005
Mof_C 	C 	0.7831	0.3134	0.96295	-0.012
Mof_C 	C 	0.8481	0.224	0.9541	0.013
Mof_C 	C 	0.8036	0.1378	0.92784	0.18
Mof_C 	C 	0.7493	0.1066	0.91985	-0.129
Mof_C 	C 	0.7519	0.0516	0.90203	-0.026
Mof_C 	C 	0.6862	0.0183	0.89722	0.337
Mof_C 	C 	0.8059	0.0295	0.88979	-0.002
Mof_C 	C 	0.8603	0.0615	0.89664	-0.088
Mof_C 	C 	0.8586	0.1147	0.91586	-0.107
Mof_C 	C 	0.92	0.0393	0.8864	0.417
Mof_C 	C 	0.8319	0.173	0.05268	0.171
Mof_C 	C 	0.7723	0.1696	0.06557	-0.106
Mof_C 	C 	0.7611	0.1342	0.09344	-0.065
Mof_C 	C 	0.6922	0.1284	0.1087	0.509
Mof_C 	C 	0.809	0.1039	0.10703	0.006
Mof_C 	C 	0.8692	0.1081	0.09493	-0.063
Mof_C 	C 	0.8812	0.1433	0.06708	-0.106
Mof_C 	C 	0.9237	0.0752	0.10987	0.396
Mof_C 	C 	0.9532	0.3905	0.96624	0.175
Mof_C 	C 	0.9732	0.4193	0.93763	-0.122
Mof_C 	C 	0.0106	0.4717	0.93936	-0.042
Mof_C 	C 	0.0319	0.4973	0.90595	0.379
Mof_C 	C 	0.0225	0.4979	0.96932	-0.025
Mof_C 	C 	0.0008	0.4704	0.99796	-0.029
Mof_C 	C 	0.9649	0.417	0.99635	-0.133
Mof_C 	C 	0.014	0.4968	0.03152	0.315
Mof_C 	C 	0.7095	0.3873	0.9833	0.167
Mof_C 	C 	0.6807	0.407	0.01198	-0.123
Mof_C 	C 	0.6227	0.435	0.01059	-0.023
Mof_C 	C 	0.5962	0.4533	0.0432	0.314
Mof_C 	C 	0.591	0.4439	0.98041	-0.012
Mof_C 	C 	0.6208	0.4261	0.9517	-0.083
Mof_C 	C 	0.6779	0.3963	0.95322	-0.097
Mof_C 	C 	0.5925	0.4365	0.9187	0.442
Mof_C 	C 	0.7725	0.6696	0.72921	0.022
Mof_C 	C 	0.745	0.697	0.75947	-0.008
Mof_C 	C 	0.8119	0.6141	0.73963	-0.005
Mof_C 	C 	0.8134	0.7169	0.71295	-0.012
Mof_C 	C 	0.724	0.6519	0.7041	0.014
Mof_C 	C 	0.6378	0.6964	0.67784	0.181
Mof_C 	C 	0.6066	0.7507	0.66985	-0.131
Mof_C 	C 	0.5516	0.7481	0.65203	-0.024
Mof_C 	C 	0.5183	0.8138	0.64722	0.335
Mof_C 	C 	0.5295	0.6941	0.63979	-0.007
Mof_C 	C 	0.5615	0.6397	0.64664	-0.085
Mof_C 	C 	0.6147	0.6414	0.66586	-0.109
Mof_C 	C 	0.5393	0.58	0.6364	0.413
Mof_C 	C 	0.673	0.6681	0.80268	0.171
Mof_C 	C 	0.6696	0.7277	0.81557	-0.106
Mof_C 	C 	0.6342	0.7389	0.84344	-0.065
Mof_C 	C 	0.6284	0.8078	0.8587	0.51
Mof_C 	C 	0.6039	0.691	0.85703	0.006
Mof_C 	C 	0.6081	0.6308	0.84493	-0.064
Mof_C 	C 	0.6433	0.6188	0.81708	-0.106
Mof_C 	C 	0.5752	0.5763	0.85987	0.396
Mof_C 	C 	0.8905	0.5468	0.71624	0.175
Mof_C 	C 	0.9193	0.5268	0.68763	-0.122
Mof_C 	C 	0.9717	0.4894	0.68936	-0.041
Mof_C 	C 	0.9973	0.4681	0.65595	0.379
Mof_C 	C 	0.9979	0.4775	0.71932	-0.025
Mof_C 	C 	0.9704	0.4992	0.74796	-0.028
Mof_C 	C 	0.917	0.5351	0.74635	-0.133
Mof_C 	C 	0.9968	0.486	0.78152	0.315
Mof_C 	C 	0.8873	0.7905	0.7333	0.167
Mof_C 	C 	0.907	0.8193	0.76198	-0.123
Mof_C 	C 	0.935	0.8773	0.76059	-0.024
Mof_C 	C 	0.9533	0.9038	0.7932	0.314
Mof_C 	C 	0.9439	0.909	0.73041	-0.012
Mof_C 	C 	0.9261	0.8792	0.7017	-0.084
Mof_C 	C 	0.8963	0.8221	0.70322	-0.097
Mof_C 	C 	0.9365	0.9075	0.6687	0.442
Mof_C 	C 	0.2275	0.3304	0.22921	0.022
Mof_C 	C 	0.255	0.303	0.25947	-0.008
Mof_C 	C 	0.1881	0.3859	0.23963	-0.005
Mof_C 	C 	0.1866	0.2831	0.21295	-0.012
Mof_C 	C 	0.276	0.3481	0.2041	0.014
Mof_C 	C 	0.3622	0.3036	0.17784	0.181
Mof_C 	C 	0.3934	0.2493	0.16985	-0.131
Mof_C 	C 	0.4484	0.2519	0.15203	-0.024
Mof_C 	C 	0.4817	0.1862	0.14722	0.335
Mof_C 	C 	0.4705	0.3059	0.13979	-0.007
Mof_C 	C 	0.4385	0.3603	0.14664	-0.085
Mof_C 	C 	0.3853	0.3586	0.16586	-0.109
Mof_C 	C 	0.4607	0.42	0.1364	0.413
Mof_C 	C 	0.327	0.3319	0.30268	0.171
Mof_C 	C 	0.3304	0.2723	0.31557	-0.106
Mof_C 	C 	0.3658	0.2611	0.34344	-0.065
Mof_C 	C 	0.3716	0.1922	0.3587	0.51
Mof_C 	C 	0.3961	0.309	0.35703	0.006
Mof_C 	C 	0.3919	0.3692	0.34493	-0.064
Mof_C 	C 	0.3567	0.3812	0.31708	-0.106
Mof_C 	C 	0.4248	0.4237	0.35987	0.396
Mof_C 	C 	0.1095	0.4532	0.21624	0.175
Mof_C 	C 	0.0807	0.4732	0.18763	-0.122
Mof_C 	C 	0.0283	0.5106	0.18936	-0.041
Mof_C 	C 	0.0027	0.5319	0.15595	0.379
Mof_C 	C 	0.0021	0.5225	0.21932	-0.025
Mof_C 	C 	0.0296	0.5008	0.24796	-0.028
Mof_C 	C 	0.083	0.4649	0.24635	-0.133
Mof_C 	C 	0.0032	0.514	0.28152	0.315
Mof_C 	C 	0.1127	0.2095	0.2333	0.167
Mof_C 	C 	0.093	0.1807	0.26198	-0.123
Mof_C 	C 	0.065	0.1227	0.26059	-0.024
Mof_C 	C 	0.0467	0.0962	0.2932	0.314
Mof_C 	C 	0.0561	0.091	0.23041	-0.012
Mof_C 	C 	0.0739	0.1208	0.2017	-0.084
Mof_C 	C 	0.1037	0.1779	0.20322	-0.097
Mof_C 	C 	0.0635	0.0925	0.1687	0.442
Mof_C 	C 	0.3304	0.2275	0.77079	0.022
Mof_C 	C 	0.303	0.255	0.74053	-0.008
Mof_C 	C 	0.3859	0.1881	0.76037	-0.005
Mof_C 	C 	0.2831	0.1866	0.78705	-0.012
Mof_C 	C 	0.3481	0.276	0.7959	0.014
Mof_C 	C 	0.3036	0.3622	0.82216	0.181
Mof_C 	C 	0.2493	0.3934	0.83015	-0.131
Mof_C 	C 	0.2519	0.4484	0.84797	-0.024
Mof_C 	C 	0.1862	0.4817	0.85278	0.335
Mof_C 	C 	0.3059	0.4705	0.86021	-0.007
Mof_C 	C 	0.3603	0.4385	0.85336	-0.085
Mof_C 	C 	0.3586	0.3853	0.83414	-0.109
Mof_C 	C 	0.42	0.4607	0.8636	0.413
Mof_C 	C 	0.3319	0.327	0.69732	0.171
Mof_C 	C 	0.2723	0.3304	0.68443	-0.106
Mof_C 	C 	0.2611	0.3658	0.65656	-0.065
Mof_C 	C 	0.1922	0.3716	0.6413	0.51
Mof_C 	C 	0.309	0.3961	0.64297	0.006
Mof_C 	C 	0.3692	0.3919	0.65507	-0.064
Mof_C 	C 	0.3812	0.3567	0.68292	-0.106
Mof_C 	C 	0.4237	0.4248	0.64013	0.396
Mof_C 	C 	0.4532	0.1095	0.78376	0.175
Mof_C 	C 	0.4732	0.0807	0.81237	-0.122
Mof_C 	C 	0.5106	0.0283	0.81064	-0.041
Mof_C 	C 	0.5319	0.0027	0.84405	0.379
Mof_C 	C 	0.5225	0.0021	0.78068	-0.025
Mof_C 	C 	0.5008	0.0296	0.75204	-0.028
Mof_C 	C 	0.4649	0.083	0.75365	-0.133
Mof_C 	C 	0.514	0.0032	0.71848	0.315
Mof_C 	C 	0.2095	0.1127	0.7667	0.167
Mof_C 	C 	0.1807	0.093	0.73802	-0.123
Mof_C 	C 	0.1227	0.065	0.73941	-0.024
Mof_C 	C 	0.0962	0.0467	0.7068	0.314
Mof_C 	C 	0.091	0.0561	0.76959	-0.012
Mof_C 	C 	0.1208	0.0739	0.7983	-0.084
Mof_C 	C 	0.1779	0.1037	0.79678	-0.097
Mof_C 	C 	0.0925	0.0635	0.8313	0.442
Mof_C 	C 	0.6696	0.7725	0.27079	0.022
Mof_C 	C 	0.697	0.745	0.24053	-0.008
Mof_C 	C 	0.6141	0.8119	0.26037	-0.005
Mof_C 	C 	0.7169	0.8134	0.28705	-0.012
Mof_C 	C 	0.6519	0.724	0.2959	0.014
Mof_C 	C 	0.6964	0.6378	0.32216	0.181
Mof_C 	C 	0.7507	0.6066	0.33015	-0.131
Mof_C 	C 	0.7481	0.5516	0.34797	-0.024
Mof_C 	C 	0.8138	0.5183	0.35278	0.335
Mof_C 	C 	0.6941	0.5295	0.36021	-0.007
Mof_C 	C 	0.6397	0.5615	0.35336	-0.085
Mof_C 	C 	0.6414	0.6147	0.33414	-0.109
Mof_C 	C 	0.58	0.5393	0.3636	0.413
Mof_C 	C 	0.6681	0.673	0.19732	0.171
Mof_C 	C 	0.7277	0.6696	0.18443	-0.106
Mof_C 	C 	0.7389	0.6342	0.15656	-0.065
Mof_C 	C 	0.8078	0.6284	0.1413	0.51
Mof_C 	C 	0.691	0.6039	0.14297	0.006
Mof_C 	C 	0.6308	0.6081	0.15507	-0.064
Mof_C 	C 	0.6188	0.6433	0.18292	-0.106
Mof_C 	C 	0.5763	0.5752	0.14013	0.396
Mof_C 	C 	0.5468	0.8905	0.28376	0.175
Mof_C 	C 	0.5268	0.9193	0.31237	-0.122
Mof_C 	C 	0.4894	0.9717	0.31064	-0.041
Mof_C 	C 	0.4681	0.9973	0.34405	0.379
Mof_C 	C 	0.4775	0.9979	0.28068	-0.025
Mof_C 	C 	0.4992	0.9704	0.25204	-0.028
Mof_C 	C 	0.5351	0.917	0.25365	-0.133
Mof_C 	C 	0.486	0.9968	0.21848	0.315
Mof_C 	C 	0.7905	0.8873	0.2667	0.167
Mof_C 	C 	0.8193	0.907	0.23802	-0.123
Mof_C 	C 	0.8773	0.935	0.23941	-0.024
Mof_C 	C 	0.9038	0.9533	0.2068	0.314
Mof_C 	C 	0.909	0.9439	0.26959	-0.012
Mof_C 	C 	0.8792	0.9261	0.2983	-0.084
Mof_C 	C 	0.8221	0.8963	0.29678	-0.097
Mof_C 	C 	0.9075	0.9365	0.3313	0.442
Mof_C 	C 	0.7275	0.1696	0.52079	0.023
Mof_C 	C 	0.755	0.197	0.49053	-0.008
Mof_C 	C 	0.6881	0.1141	0.51037	-0.005
Mof_C 	C 	0.6866	0.2169	0.53705	-0.012
Mof_C 	C 	0.776	0.1519	0.5459	0.013
Mof_C 	C 	0.8622	0.1964	0.57216	0.18
Mof_C 	C 	0.8934	0.2507	0.58015	-0.129
Mof_C 	C 	0.9484	0.2481	0.59797	-0.026
Mof_C 	C 	0.9817	0.3138	0.60278	0.337
Mof_C 	C 	0.9705	0.1941	0.61021	-0.002
Mof_C 	C 	0.9385	0.1397	0.60336	-0.088
Mof_C 	C 	0.8853	0.1414	0.58414	-0.107
Mof_C 	C 	0.9607	0.08	0.6136	0.417
Mof_C 	C 	0.827	0.1681	0.44732	0.171
Mof_C 	C 	0.8304	0.2277	0.43443	-0.106
Mof_C 	C 	0.8658	0.2389	0.40656	-0.065
Mof_C 	C 	0.8716	0.3078	0.3913	0.509
Mof_C 	C 	0.8961	0.191	0.39297	0.006
Mof_C 	C 	0.8919	0.1308	0.40507	-0.063
Mof_C 	C 	0.8567	0.1188	0.43292	-0.106
Mof_C 	C 	0.9248	0.0763	0.39013	0.396
Mof_C 	C 	0.6095	0.0468	0.53376	0.175
Mof_C 	C 	0.5807	0.0268	0.56237	-0.121
Mof_C 	C 	0.5283	0.9894	0.56064	-0.042
Mof_C 	C 	0.5027	0.9681	0.59405	0.379
Mof_C 	C 	0.5021	0.9775	0.53068	-0.025
Mof_C 	C 	0.5296	0.9992	0.50204	-0.029
Mof_C 	C 	0.583	0.0351	0.50365	-0.132
Mof_C 	C 	0.5032	0.986	0.46848	0.315
Mof_C 	C 	0.6127	0.2905	0.5167	0.167
Mof_C 	C 	0.593	0.3193	0.48802	-0.123
Mof_C 	C 	0.565	0.3773	0.48941	-0.023
Mof_C 	C 	0.5467	0.4038	0.4568	0.314
Mof_C 	C 	0.5561	0.409	0.51959	-0.012
Mof_C 	C 	0.5739	0.3792	0.5483	-0.083
Mof_C 	C 	0.6037	0.3221	0.54678	-0.097
Mof_C 	C 	0.5635	0.4075	0.5813	0.442
Mof_C 	C 	0.2725	0.8304	0.02079	0.023
Mof_C 	C 	0.245	0.803	0.99053	-0.008
Mof_C 	C 	0.3119	0.8859	0.01037	-0.005
Mof_C 	C 	0.3134	0.7831	0.03705	-0.012
Mof_C 	C 	0.224	0.8481	0.0459	0.013
Mof_C 	C 	0.1378	0.8036	0.07216	0.18
Mof_C 	C 	0.1066	0.7493	0.08015	-0.129
Mof_C 	C 	0.0516	0.7519	0.09797	-0.026
Mof_C 	C 	0.0183	0.6862	0.10278	0.337
Mof_C 	C 	0.0295	0.8059	0.11021	-0.002
Mof_C 	C 	0.0615	0.8603	0.10336	-0.088
Mof_C 	C 	0.1147	0.8586	0.08414	-0.107
Mof_C 	C 	0.0393	0.92	0.1136	0.417
Mof_C 	C 	0.173	0.8319	0.94732	0.171
Mof_C 	C 	0.1696	0.7723	0.93443	-0.106
Mof_C 	C 	0.1342	0.7611	0.90656	-0.065
Mof_C 	C 	0.1284	0.6922	0.8913	0.509
Mof_C 	C 	0.1039	0.809	0.89297	0.006
Mof_C 	C 	0.1081	0.8692	0.90507	-0.063
Mof_C 	C 	0.1433	0.8812	0.93292	-0.106
Mof_C 	C 	0.0752	0.9237	0.89013	0.396
Mof_C 	C 	0.3905	0.9532	0.03376	0.175
Mof_C 	C 	0.4193	0.9732	0.06237	-0.122
Mof_C 	C 	0.4717	0.0106	0.06064	-0.042
Mof_C 	C 	0.4973	0.0319	0.09405	0.379
Mof_C 	C 	0.4979	0.0225	0.03068	-0.025
Mof_C 	C 	0.4704	0.0008	0.00204	-0.029
Mof_C 	C 	0.417	0.9649	0.00365	-0.133
Mof_C 	C 	0.4968	0.014	0.96848	0.315
Mof_C 	C 	0.3873	0.7095	0.0167	0.167
Mof_C 	C 	0.407	0.6807	0.98802	-0.123
Mof_C 	C 	0.435	0.6227	0.98941	-0.023
Mof_C 	C 	0.4533	0.5962	0.9568	0.314
Mof_C 	C 	0.4439	0.591	0.01959	-0.012
Mof_C 	C 	0.4261	0.6208	0.0483	-0.083
Mof_C 	C 	0.3963	0.6779	0.04678	-0.097
Mof_C 	C 	0.4365	0.5925	0.0813	0.442
Mof_O 	O 	0.3623	0.9581	0.40801	-0.529
Mof_O 	O 	0.3073	0.0366	0.38268	-0.468
Mof_O 	O 	0.9958	0.5302	0.55668	-0.431
Mof_O 	O 	0.9692	0.4473	0.53226	-0.417
Mof_O 	O 	0.0782	0.0052	0.36509	-0.474
Mof_O 	O 	0.0308	0.9378	0.39631	-0.54
Mof_O 	O 	0.3795	0.5544	0.56802	-0.371
Mof_O 	O 	0.4591	0.5225	0.54077	-0.4
Mof_O 	O 	0.9274	0.4583	0.4095	-0.492
Mof_O 	O 	0.982	0.5276	0.38019	-0.525
Mof_O 	O 	0.0869	0.9546	0.63616	-0.483
Mof_O 	O 	0.0252	0.9195	0.59592	-0.503
Mof_O 	O 	0.383	0.5796	0.39243	-0.514
Mof_O 	O 	0.4587	0.5432	0.41842	-0.549
Mof_O 	O 	0.3445	0.8436	0.59541	-0.498
Mof_O 	O 	0.3163	0.9001	0.63102	-0.506
Mof_O 	O 	0.2045	0.8098	0.44526	-0.231
Mof_O 	O 	0.153	0.7938	0.52545	-0.221
Mof_O 	O 	0.2336	0.64	0.48653	-0.215
Mof_O 	O 	0.0864	0.6596	0.46168	-0.222
Mof_O 	O 	0.6377	0.0419	0.90801	-0.529
Mof_O 	O 	0.6927	0.9634	0.88268	-0.468
Mof_O 	O 	0.0042	0.4698	0.05668	-0.431
Mof_O 	O 	0.0308	0.5527	0.03226	-0.417
Mof_O 	O 	0.9218	0.9948	0.86509	-0.474
Mof_O 	O 	0.9692	0.0622	0.89631	-0.54
Mof_O 	O 	0.6205	0.4456	0.06802	-0.371
Mof_O 	O 	0.5409	0.4775	0.04077	-0.4
Mof_O 	O 	0.0726	0.5417	0.9095	-0.492
Mof_O 	O 	0.018	0.4724	0.88019	-0.525
Mof_O 	O 	0.9131	0.0454	0.13616	-0.483
Mof_O 	O 	0.9748	0.0805	0.09592	-0.503
Mof_O 	O 	0.617	0.4204	0.89243	-0.514
Mof_O 	O 	0.5413	0.4568	0.91842	-0.549
Mof_O 	O 	0.6555	0.1564	0.09541	-0.498
Mof_O 	O 	0.6837	0.0999	0.13102	-0.506
Mof_O 	O 	0.7955	0.1902	0.94526	-0.231
Mof_O 	O 	0.847	0.2062	0.02545	-0.221
Mof_O 	O 	0.7664	0.36	0.98653	-0.215
Mof_O 	O 	0.9136	0.3404	0.96168	-0.222
Mof_O 	O 	0.5419	0.8623	0.65801	-0.529
Mof_O 	O 	0.4634	0.8073	0.63268	-0.467
Mof_O 	O 	0.9698	0.4958	0.80668	-0.431
Mof_O 	O 	0.0527	0.4692	0.78226	-0.417
Mof_O 	O 	0.4948	0.5782	0.61509	-0.472
Mof_O 	O 	0.5622	0.5308	0.64631	-0.541
Mof_O 	O 	0.9456	0.8795	0.81802	-0.371
Mof_O 	O 	0.9775	0.9591	0.79077	-0.401
Mof_O 	O 	0.0417	0.4274	0.6595	-0.492
Mof_O 	O 	0.9724	0.482	0.63019	-0.525
Mof_O 	O 	0.5454	0.5869	0.88616	-0.485
Mof_O 	O 	0.5805	0.5252	0.84592	-0.505
Mof_O 	O 	0.9204	0.883	0.64243	-0.514
Mof_O 	O 	0.9568	0.9587	0.66842	-0.55
Mof_O 	O 	0.6564	0.8445	0.84541	-0.498
Mof_O 	O 	0.5999	0.8163	0.88102	-0.506
Mof_O 	O 	0.6902	0.7045	0.69526	-0.231
Mof_O 	O 	0.7062	0.653	0.77545	-0.221
Mof_O 	O 	0.86	0.7336	0.73653	-0.215
Mof_O 	O 	0.8404	0.5864	0.71168	-0.222
Mof_O 	O 	0.4581	0.1377	0.15801	-0.529
Mof_O 	O 	0.5366	0.1927	0.13268	-0.467
Mof_O 	O 	0.0302	0.5042	0.30668	-0.431
Mof_O 	O 	0.9473	0.5308	0.28226	-0.417
Mof_O 	O 	0.5052	0.4218	0.11509	-0.472
Mof_O 	O 	0.4378	0.4692	0.14631	-0.541
Mof_O 	O 	0.0544	0.1205	0.31802	-0.371
Mof_O 	O 	0.0225	0.0409	0.29077	-0.401
Mof_O 	O 	0.9583	0.5726	0.1595	-0.492
Mof_O 	O 	0.0276	0.518	0.13019	-0.525
Mof_O 	O 	0.4546	0.4131	0.38616	-0.485
Mof_O 	O 	0.4195	0.4748	0.34592	-0.505
Mof_O 	O 	0.0796	0.117	0.14243	-0.514
Mof_O 	O 	0.0432	0.0413	0.16842	-0.55
Mof_O 	O 	0.3436	0.1555	0.34541	-0.498
Mof_O 	O 	0.4001	0.1837	0.38102	-0.506
Mof_O 	O 	0.3098	0.2955	0.19526	-0.231
Mof_O 	O 	0.2938	0.347	0.27545	-0.221
Mof_O 	O 	0.14	0.2664	0.23653	-0.215
Mof_O 	O 	0.1596	0.4136	0.21168	-0.222
Mof_O 	O 	0.1377	0.4581	0.84199	-0.529
Mof_O 	O 	0.1927	0.5366	0.86732	-0.467
Mof_O 	O 	0.5042	0.0302	0.69332	-0.431
Mof_O 	O 	0.5308	0.9473	0.71774	-0.417
Mof_O 	O 	0.4218	0.5052	0.88491	-0.472
Mof_O 	O 	0.4692	0.4378	0.85369	-0.541
Mof_O 	O 	0.1205	0.0544	0.68198	-0.371
Mof_O 	O 	0.0409	0.0225	0.70923	-0.401
Mof_O 	O 	0.5726	0.9583	0.8405	-0.492
Mof_O 	O 	0.518	0.0276	0.86981	-0.525
Mof_O 	O 	0.4131	0.4546	0.61384	-0.485
Mof_O 	O 	0.4748	0.4195	0.65408	-0.505
Mof_O 	O 	0.117	0.0796	0.85757	-0.514
Mof_O 	O 	0.0413	0.0432	0.83158	-0.55
Mof_O 	O 	0.1555	0.3436	0.65459	-0.498
Mof_O 	O 	0.1837	0.4001	0.61898	-0.506
Mof_O 	O 	0.2955	0.3098	0.80474	-0.231
Mof_O 	O 	0.347	0.2938	0.72455	-0.221
Mof_O 	O 	0.2664	0.14	0.76347	-0.215
Mof_O 	O 	0.4136	0.1596	0.78832	-0.222
Mof_O 	O 	0.8623	0.5419	0.34199	-0.529
Mof_O 	O 	0.8073	0.4634	0.36732	-0.467
Mof_O 	O 	0.4958	0.9698	0.19332	-0.431
Mof_O 	O 	0.4692	0.0527	0.21774	-0.417
Mof_O 	O 	0.5782	0.4948	0.38491	-0.472
Mof_O 	O 	0.5308	0.5622	0.35369	-0.541
Mof_O 	O 	0.8795	0.9456	0.18198	-0.371
Mof_O 	O 	0.9591	0.9775	0.20923	-0.401
Mof_O 	O 	0.4274	0.0417	0.3405	-0.492
Mof_O 	O 	0.482	0.9724	0.36981	-0.525
Mof_O 	O 	0.5869	0.5454	0.11384	-0.485
Mof_O 	O 	0.5252	0.5805	0.15408	-0.505
Mof_O 	O 	0.883	0.9204	0.35757	-0.514
Mof_O 	O 	0.9587	0.9568	0.33158	-0.55
Mof_O 	O 	0.8445	0.6564	0.15459	-0.498
Mof_O 	O 	0.8163	0.5999	0.11898	-0.506
Mof_O 	O 	0.7045	0.6902	0.30474	-0.231
Mof_O 	O 	0.653	0.7062	0.22455	-0.221
Mof_O 	O 	0.7336	0.86	0.26347	-0.215
Mof_O 	O 	0.5864	0.8404	0.28832	-0.222
Mof_O 	O 	0.9581	0.3623	0.59199	-0.529
Mof_O 	O 	0.0366	0.3073	0.61732	-0.468
Mof_O 	O 	0.5302	0.9958	0.44332	-0.431
Mof_O 	O 	0.4473	0.9692	0.46774	-0.417
Mof_O 	O 	0.0052	0.0782	0.63491	-0.474
Mof_O 	O 	0.9378	0.0308	0.60369	-0.54
Mof_O 	O 	0.5544	0.3795	0.43198	-0.371
Mof_O 	O 	0.5225	0.4591	0.45923	-0.4
Mof_O 	O 	0.4583	0.9274	0.5905	-0.492
Mof_O 	O 	0.5276	0.982	0.61981	-0.525
Mof_O 	O 	0.9546	0.0869	0.36384	-0.483
Mof_O 	O 	0.9195	0.0252	0.40408	-0.503
Mof_O 	O 	0.5796	0.383	0.60757	-0.514
Mof_O 	O 	0.5432	0.4587	0.58158	-0.549
Mof_O 	O 	0.8436	0.3445	0.40459	-0.498
Mof_O 	O 	0.9001	0.3163	0.36898	-0.506
Mof_O 	O 	0.8098	0.2045	0.55474	-0.231
Mof_O 	O 	0.7938	0.153	0.47455	-0.221
Mof_O 	O 	0.64	0.2336	0.51347	-0.215
Mof_O 	O 	0.6596	0.0864	0.53832	-0.222
Mof_O 	O 	0.0419	0.6377	0.09199	-0.529
Mof_O 	O 	0.9634	0.6927	0.11732	-0.468
Mof_O 	O 	0.4698	0.0042	0.94332	-0.431
Mof_O 	O 	0.5527	0.0308	0.96774	-0.417
Mof_O 	O 	0.9948	0.9218	0.13491	-0.474
Mof_O 	O 	0.0622	0.9692	0.10369	-0.54
Mof_O 	O 	0.4456	0.6205	0.93198	-0.371
Mof_O 	O 	0.4775	0.5409	0.95923	-0.4
Mof_O 	O 	0.5417	0.0726	0.0905	-0.492
Mof_O 	O 	0.4724	0.018	0.11981	-0.525
Mof_O 	O 	0.0454	0.9131	0.86384	-0.483
Mof_O 	O 	0.0805	0.9748	0.90408	-0.503
Mof_O 	O 	0.4204	0.617	0.10757	-0.514
Mof_O 	O 	0.4568	0.5413	0.08158	-0.549
Mof_O 	O 	0.1564	0.6555	0.90459	-0.498
Mof_O 	O 	0.0999	0.6837	0.86898	-0.506
Mof_O 	O 	0.1902	0.7955	0.05474	-0.231
Mof_O 	O 	0.2062	0.847	0.97455	-0.221
Mof_O 	O 	0.36	0.7664	0.01347	-0.215
Mof_O 	O 	0.3404	0.9136	0.03832	-0.222
_end
