data_functionalizedCrystal
_audit_creation_method	'EQeq! by Chris Wilmer'
_symmetry_space_group_name_H-M	'P1'
_symmetry_Int_Tables_number	1
_symmetry_cell_setting	triclinic
loop_
_symmetry_equiv_pos_as_xyz
  x,y,z
_cell_length_a	36.351
_cell_length_b	36.351
_cell_length_c	14.943
_cell_angle_alpha	90
_cell_angle_beta	90
_cell_angle_gamma	90
loop_
_atom_site_label
_atom_site_type_symbol
_atom_site_fract_x
_atom_site_fract_y
_atom_site_fract_z
_atom_site_charge
Mof_C 	C 	0.33725	0.03848	0.2894	0.28
Mof_C 	C 	0.31588	0.03992	0.2006	0.073
Mof_C 	C 	0.29072	0.00775	0.08	0.182
Mof_C 	C 	0.2529	0.00862	0.0815	-0.229
Mof_H 	H 	0.2401	0.0089	0.1354	0.085
Mof_C 	C 	0.26896	0.17037	0.2126	0.307
Mof_C 	C 	0.25802	0.15298	0.3023	0.069
Mof_C 	C 	0.21607	0.15085	0.4198	0.207
Mof_C 	C 	0.19236	0.1215	0.4195	-0.258
Mof_H 	H 	0.1838	0.1119	0.3658	0.096
Mof_C 	C 	0.40266	0.1343	0.2149	0.28
Mof_C 	C 	0.39408	0.15451	0.3028	0.059
Mof_C 	C 	0.41731	0.19127	0.4187	0.189
Mof_C 	C 	0.41344	0.22891	0.4183	-0.242
Mof_H 	H 	0.4117	0.2419	0.3648	0.08
Mof_Cu	Cu	0.33538	0.96779	0.23322	0.851
Mof_Mn	Mn	0.32614	0.11688	0.25393	0.903
Mof_Na	Na	0.4672	0.1248	0.9377	1.169
Mof_N 	N 	0.31029	0.00807	0.1638	-0.27
Mof_N 	N 	0.22811	0.16666	0.33697	-0.272
Mof_N 	N 	0.42212	0.17229	0.3366	-0.272
Mof_O 	O 	0.34254	0.06814	0.32894	-0.376
Mof_O 	O 	0.3065	0.0715	0.17042	-0.329
Mof_O 	O 	0.34875	0.00781	0.3166	-0.548
Mof_O 	O 	0.29689	0.15833	0.17459	-0.55
Mof_O 	O 	0.27835	0.12761	0.33232	-0.295
Mof_O 	O 	0.24911	0.1958	0.18337	-0.576
Mof_O 	O 	0.37718	0.11742	0.1784	-0.438
Mof_O 	O 	0.36152	0.15247	0.33329	-0.293
Mof_O 	O 	0.43497	0.13661	0.1854	-0.552
Mof_C 	C 	0.66275	0.96152	0.2894	0.279
Mof_C 	C 	0.68412	0.96008	0.2006	0.072
Mof_C 	C 	0.70928	0.99225	0.08	0.181
Mof_C 	C 	0.7471	0.99138	0.0815	-0.23
Mof_H 	H 	0.7599	0.9911	0.1354	0.084
Mof_C 	C 	0.73104	0.82963	0.2126	0.306
Mof_C 	C 	0.74198	0.84702	0.3023	0.068
Mof_C 	C 	0.78393	0.84915	0.4198	0.206
Mof_C 	C 	0.80764	0.8785	0.4195	-0.259
Mof_H 	H 	0.8162	0.8881	0.3658	0.095
Mof_C 	C 	0.59734	0.8657	0.2149	0.279
Mof_C 	C 	0.60592	0.84549	0.3028	0.058
Mof_C 	C 	0.58269	0.80873	0.4187	0.188
Mof_C 	C 	0.58656	0.77109	0.4183	-0.243
Mof_H 	H 	0.5883	0.7581	0.3648	0.079
Mof_Cu	Cu	0.66462	0.03221	0.23322	0.85
Mof_Mn	Mn	0.67386	0.88312	0.25393	0.902
Mof_Na	Na	0.5328	0.8752	0.9377	1.168
Mof_N 	N 	0.68971	0.99193	0.1638	-0.271
Mof_N 	N 	0.77189	0.83334	0.33697	-0.273
Mof_N 	N 	0.57788	0.82771	0.3366	-0.273
Mof_O 	O 	0.65746	0.93186	0.32894	-0.377
Mof_O 	O 	0.6935	0.9285	0.17042	-0.329
Mof_O 	O 	0.65125	0.99219	0.3166	-0.548
Mof_O 	O 	0.70311	0.84167	0.17459	-0.55
Mof_O 	O 	0.72165	0.87239	0.33232	-0.295
Mof_O 	O 	0.75089	0.8042	0.18337	-0.576
Mof_O 	O 	0.62282	0.88258	0.1784	-0.438
Mof_O 	O 	0.63848	0.84753	0.33329	-0.293
Mof_O 	O 	0.56503	0.86339	0.1854	-0.552
Mof_C 	C 	0.46152	0.83725	0.7894	0.293
Mof_C 	C 	0.46008	0.81588	0.7006	0.067
Mof_C 	C 	0.49225	0.79072	0.58	0.181
Mof_C 	C 	0.49138	0.7529	0.5815	-0.237
Mof_H 	H 	0.4911	0.7401	0.6354	0.087
Mof_C 	C 	0.32963	0.76896	0.7126	0.312
Mof_C 	C 	0.34702	0.75802	0.8023	0.067
Mof_C 	C 	0.34915	0.71607	0.9198	0.212
Mof_C 	C 	0.3785	0.69236	0.9195	-0.242
Mof_H 	H 	0.3881	0.6838	0.8658	0.091
Mof_C 	C 	0.3657	0.90266	0.7149	0.298
Mof_C 	C 	0.34549	0.89408	0.8028	0.053
Mof_C 	C 	0.30873	0.91731	0.9187	0.194
Mof_C 	C 	0.27109	0.91344	0.9183	-0.225
Mof_H 	H 	0.2581	0.9117	0.8648	0.075
Mof_Cu	Cu	0.53221	0.83538	0.73322	0.848
Mof_Mn	Mn	0.38312	0.82614	0.75393	0.903
Mof_Na	Na	0.3752	0.9672	0.4377	0.797
Mof_N 	N 	0.49193	0.81029	0.6638	-0.271
Mof_N 	N 	0.33334	0.72811	0.83697	-0.273
Mof_N 	N 	0.32771	0.92212	0.8366	-0.273
Mof_O 	O 	0.43186	0.84254	0.82894	-0.383
Mof_O 	O 	0.4285	0.8065	0.67042	-0.329
Mof_O 	O 	0.49219	0.84875	0.8166	-0.586
Mof_O 	O 	0.34167	0.79689	0.67459	-0.555
Mof_O 	O 	0.37239	0.77835	0.83232	-0.293
Mof_O 	O 	0.3042	0.74911	0.68337	-0.589
Mof_O 	O 	0.38258	0.87718	0.6784	-0.449
Mof_O 	O 	0.34753	0.86152	0.83329	-0.29
Mof_O 	O 	0.36339	0.93497	0.6854	-0.609
Mof_C 	C 	0.53848	0.16275	0.7894	0.293
Mof_C 	C 	0.53992	0.18412	0.7006	0.067
Mof_C 	C 	0.50775	0.20928	0.58	0.181
Mof_C 	C 	0.50862	0.2471	0.5815	-0.237
Mof_H 	H 	0.5089	0.2599	0.6354	0.087
Mof_C 	C 	0.67037	0.23104	0.7126	0.312
Mof_C 	C 	0.65298	0.24198	0.8023	0.067
Mof_C 	C 	0.65085	0.28393	0.9198	0.212
Mof_C 	C 	0.6215	0.30764	0.9195	-0.242
Mof_H 	H 	0.6119	0.3162	0.8658	0.091
Mof_C 	C 	0.6343	0.09734	0.7149	0.298
Mof_C 	C 	0.65451	0.10592	0.8028	0.053
Mof_C 	C 	0.69127	0.08269	0.9187	0.194
Mof_C 	C 	0.72891	0.08656	0.9183	-0.225
Mof_H 	H 	0.7419	0.0883	0.8648	0.075
Mof_Cu	Cu	0.46779	0.16462	0.73322	0.848
Mof_Mn	Mn	0.61688	0.17386	0.75393	0.903
Mof_Na	Na	0.6248	0.0328	0.4377	0.797
Mof_N 	N 	0.50807	0.18971	0.6638	-0.271
Mof_N 	N 	0.66666	0.27189	0.83697	-0.273
Mof_N 	N 	0.67229	0.07788	0.8366	-0.273
Mof_O 	O 	0.56814	0.15746	0.82894	-0.383
Mof_O 	O 	0.5715	0.1935	0.67042	-0.329
Mof_O 	O 	0.50781	0.15125	0.8166	-0.586
Mof_O 	O 	0.65833	0.20311	0.67459	-0.555
Mof_O 	O 	0.62761	0.22165	0.83232	-0.293
Mof_O 	O 	0.6958	0.25089	0.68337	-0.589
Mof_O 	O 	0.61742	0.12282	0.6784	-0.449
Mof_O 	O 	0.65247	0.13848	0.83329	-0.29
Mof_O 	O 	0.63661	0.06503	0.6854	-0.609
Mof_C 	C 	0.16275	0.53848	0.2106	0.263
Mof_C 	C 	0.18412	0.53992	0.2994	0.077
Mof_C 	C 	0.20928	0.50775	0.42	0.181
Mof_C 	C 	0.2471	0.50862	0.4185	-0.237
Mof_H 	H 	0.2599	0.5089	0.3646	0.087
Mof_C 	C 	0.23104	0.67037	0.2874	0.311
Mof_C 	C 	0.24198	0.65298	0.1977	0.066
Mof_C 	C 	0.28393	0.65085	0.0802	0.204
Mof_C 	C 	0.30764	0.6215	0.0805	-0.252
Mof_H 	H 	0.3162	0.6119	0.1342	0.092
Mof_C 	C 	0.09734	0.6343	0.2851	0.3
Mof_C 	C 	0.10592	0.65451	0.1972	0.052
Mof_C 	C 	0.08269	0.69127	0.0813	0.187
Mof_C 	C 	0.08656	0.72891	0.0817	-0.235
Mof_H 	H 	0.0883	0.7419	0.1352	0.076
Mof_Cu	Cu	0.16462	0.46779	0.26678	0.852
Mof_Mn	Mn	0.17386	0.61688	0.24607	0.901
Mof_Na	Na	0.0328	0.6248	0.5623	0.752
Mof_N 	N 	0.18971	0.50807	0.3362	-0.271
Mof_N 	N 	0.27189	0.66666	0.16303	-0.273
Mof_N 	N 	0.07788	0.67229	0.1634	-0.273
Mof_O 	O 	0.15746	0.56814	0.17106	-0.371
Mof_O 	O 	0.1935	0.5715	0.32958	-0.33
Mof_O 	O 	0.15125	0.50781	0.1834	-0.507
Mof_O 	O 	0.20311	0.65833	0.32541	-0.555
Mof_O 	O 	0.22165	0.62761	0.16768	-0.296
Mof_O 	O 	0.25089	0.6958	0.31663	-0.588
Mof_O 	O 	0.12282	0.61742	0.3216	-0.449
Mof_O 	O 	0.13848	0.65247	0.16671	-0.293
Mof_O 	O 	0.06503	0.63661	0.3146	-0.615
Mof_C 	C 	0.83725	0.46152	0.2106	0.263
Mof_C 	C 	0.81588	0.46008	0.2994	0.077
Mof_C 	C 	0.79072	0.49225	0.42	0.181
Mof_C 	C 	0.7529	0.49138	0.4185	-0.237
Mof_H 	H 	0.7401	0.4911	0.3646	0.087
Mof_C 	C 	0.76896	0.32963	0.2874	0.311
Mof_C 	C 	0.75802	0.34702	0.1977	0.066
Mof_C 	C 	0.71607	0.34915	0.0802	0.204
Mof_C 	C 	0.69236	0.3785	0.0805	-0.252
Mof_H 	H 	0.6838	0.3881	0.1342	0.092
Mof_C 	C 	0.90266	0.3657	0.2851	0.3
Mof_C 	C 	0.89408	0.34549	0.1972	0.052
Mof_C 	C 	0.91731	0.30873	0.0813	0.187
Mof_C 	C 	0.91344	0.27109	0.0817	-0.235
Mof_H 	H 	0.9117	0.2581	0.1352	0.076
Mof_Cu	Cu	0.83538	0.53221	0.26678	0.852
Mof_Mn	Mn	0.82614	0.38312	0.24607	0.901
Mof_Na	Na	0.9672	0.3752	0.5623	0.752
Mof_N 	N 	0.81029	0.49193	0.3362	-0.271
Mof_N 	N 	0.72811	0.33334	0.16303	-0.273
Mof_N 	N 	0.92212	0.32771	0.1634	-0.273
Mof_O 	O 	0.84254	0.43186	0.17106	-0.371
Mof_O 	O 	0.8065	0.4285	0.32958	-0.33
Mof_O 	O 	0.84875	0.49219	0.1834	-0.507
Mof_O 	O 	0.79689	0.34167	0.32541	-0.555
Mof_O 	O 	0.77835	0.37239	0.16768	-0.296
Mof_O 	O 	0.74911	0.3042	0.31663	-0.588
Mof_O 	O 	0.87718	0.38258	0.3216	-0.449
Mof_O 	O 	0.86152	0.34753	0.16671	-0.293
Mof_O 	O 	0.93497	0.36339	0.3146	-0.615
Mof_C 	C 	0.03848	0.33725	0.7106	0.277
Mof_C 	C 	0.03992	0.31588	0.7994	0.072
Mof_C 	C 	0.00775	0.29072	0.92	0.188
Mof_C 	C 	0.00862	0.2529	0.9185	-0.22
Mof_H 	H 	0.0089	0.2401	0.8646	0.083
Mof_C 	C 	0.17037	0.26896	0.7874	0.316
Mof_C 	C 	0.15298	0.25802	0.6977	0.065
Mof_C 	C 	0.15085	0.21607	0.5802	0.206
Mof_C 	C 	0.1215	0.19236	0.5805	-0.259
Mof_H 	H 	0.1119	0.1838	0.6342	0.096
Mof_C 	C 	0.1343	0.40266	0.7851	0.32
Mof_C 	C 	0.15451	0.39408	0.6972	0.047
Mof_C 	C 	0.19127	0.41731	0.5813	0.188
Mof_C 	C 	0.22891	0.41344	0.5817	-0.243
Mof_H 	H 	0.2419	0.4117	0.6352	0.079
Mof_Cu	Cu	0.96779	0.33538	0.76678	0.85
Mof_Mn	Mn	0.11688	0.32614	0.74607	0.904
Mof_Na	Na	0.1248	0.4672	0.0623	0.384
Mof_N 	N 	0.00807	0.31029	0.8362	-0.271
Mof_N 	N 	0.16666	0.22811	0.66303	-0.273
Mof_N 	N 	0.17229	0.42212	0.6634	-0.272
Mof_O 	O 	0.06814	0.34254	0.67106	-0.378
Mof_O 	O 	0.0715	0.3065	0.82958	-0.327
Mof_O 	O 	0.00781	0.34875	0.6834	-0.545
Mof_O 	O 	0.15833	0.29689	0.82541	-0.553
Mof_O 	O 	0.12761	0.27835	0.66768	-0.295
Mof_O 	O 	0.1958	0.24911	0.81663	-0.6
Mof_O 	O 	0.11742	0.37718	0.8216	-0.458
Mof_O 	O 	0.15247	0.36152	0.66671	-0.291
Mof_O 	O 	0.13661	0.43497	0.8146	-0.671
Mof_C 	C 	0.96152	0.66275	0.7106	0.277
Mof_C 	C 	0.96008	0.68412	0.7994	0.072
Mof_C 	C 	0.99225	0.70928	0.92	0.188
Mof_C 	C 	0.99138	0.7471	0.9185	-0.22
Mof_H 	H 	0.9911	0.7599	0.8646	0.083
Mof_C 	C 	0.82963	0.73104	0.7874	0.316
Mof_C 	C 	0.84702	0.74198	0.6977	0.065
Mof_C 	C 	0.84915	0.78393	0.5802	0.206
Mof_C 	C 	0.8785	0.80764	0.5805	-0.259
Mof_H 	H 	0.8881	0.8162	0.6342	0.096
Mof_C 	C 	0.8657	0.59734	0.7851	0.32
Mof_C 	C 	0.84549	0.60592	0.6972	0.047
Mof_C 	C 	0.80873	0.58269	0.5813	0.188
Mof_C 	C 	0.77109	0.58656	0.5817	-0.243
Mof_H 	H 	0.7581	0.5883	0.6352	0.079
Mof_Cu	Cu	0.03221	0.66462	0.76678	0.85
Mof_Mn	Mn	0.88312	0.67386	0.74607	0.904
Mof_Na	Na	0.8752	0.5328	0.0623	0.384
Mof_N 	N 	0.99193	0.68971	0.8362	-0.271
Mof_N 	N 	0.83334	0.77189	0.66303	-0.273
Mof_N 	N 	0.82771	0.57788	0.6634	-0.272
Mof_O 	O 	0.93186	0.65746	0.67106	-0.378
Mof_O 	O 	0.9285	0.6935	0.82958	-0.327
Mof_O 	O 	0.99219	0.65125	0.6834	-0.545
Mof_O 	O 	0.84167	0.70311	0.82541	-0.553
Mof_O 	O 	0.87239	0.72165	0.66768	-0.295
Mof_O 	O 	0.8042	0.75089	0.81663	-0.6
Mof_O 	O 	0.88258	0.62282	0.8216	-0.458
Mof_O 	O 	0.84753	0.63848	0.66671	-0.291
Mof_O 	O 	0.86339	0.56503	0.8146	-0.671
Mof_C 	C 	0.66275	0.96152	0.7106	0.277
Mof_C 	C 	0.68412	0.96008	0.7994	0.072
Mof_C 	C 	0.70928	0.99225	0.92	0.188
Mof_C 	C 	0.7471	0.99138	0.9185	-0.22
Mof_H 	H 	0.7599	0.9911	0.8646	0.083
Mof_C 	C 	0.73104	0.82963	0.7874	0.316
Mof_C 	C 	0.74198	0.84702	0.6977	0.065
Mof_C 	C 	0.78393	0.84915	0.5802	0.206
Mof_C 	C 	0.80764	0.8785	0.5805	-0.259
Mof_H 	H 	0.8162	0.8881	0.6342	0.096
Mof_C 	C 	0.59734	0.8657	0.7851	0.32
Mof_C 	C 	0.60592	0.84549	0.6972	0.047
Mof_C 	C 	0.58269	0.80873	0.5813	0.188
Mof_C 	C 	0.58656	0.77109	0.5817	-0.243
Mof_H 	H 	0.5883	0.7581	0.6352	0.079
Mof_Cu	Cu	0.66462	0.03221	0.76678	0.85
Mof_Mn	Mn	0.67386	0.88312	0.74607	0.904
Mof_Na	Na	0.5328	0.8752	0.0623	0.384
Mof_N 	N 	0.68971	0.99193	0.8362	-0.271
Mof_N 	N 	0.77189	0.83334	0.66303	-0.273
Mof_N 	N 	0.57788	0.82771	0.6634	-0.272
Mof_O 	O 	0.65746	0.93186	0.67106	-0.378
Mof_O 	O 	0.6935	0.9285	0.82958	-0.327
Mof_O 	O 	0.65125	0.99219	0.6834	-0.545
Mof_O 	O 	0.70311	0.84167	0.82541	-0.553
Mof_O 	O 	0.72165	0.87239	0.66768	-0.295
Mof_O 	O 	0.75089	0.8042	0.81663	-0.6
Mof_O 	O 	0.62282	0.88258	0.8216	-0.458
Mof_O 	O 	0.63848	0.84753	0.66671	-0.291
Mof_O 	O 	0.56503	0.86339	0.8146	-0.671
Mof_C 	C 	0.33725	0.03848	0.7106	0.277
Mof_C 	C 	0.31588	0.03992	0.7994	0.072
Mof_C 	C 	0.29072	0.00775	0.92	0.188
Mof_C 	C 	0.2529	0.00862	0.9185	-0.22
Mof_H 	H 	0.2401	0.0089	0.8646	0.083
Mof_C 	C 	0.26896	0.17037	0.7874	0.316
Mof_C 	C 	0.25802	0.15298	0.6977	0.065
Mof_C 	C 	0.21607	0.15085	0.5802	0.206
Mof_C 	C 	0.19236	0.1215	0.5805	-0.259
Mof_H 	H 	0.1838	0.1119	0.6342	0.096
Mof_C 	C 	0.40266	0.1343	0.7851	0.32
Mof_C 	C 	0.39408	0.15451	0.6972	0.047
Mof_C 	C 	0.41731	0.19127	0.5813	0.188
Mof_C 	C 	0.41344	0.22891	0.5817	-0.243
Mof_H 	H 	0.4117	0.2419	0.6352	0.079
Mof_Cu	Cu	0.33538	0.96779	0.76678	0.85
Mof_Mn	Mn	0.32614	0.11688	0.74607	0.904
Mof_Na	Na	0.4672	0.1248	0.0623	0.384
Mof_N 	N 	0.31029	0.00807	0.8362	-0.271
Mof_N 	N 	0.22811	0.16666	0.66303	-0.273
Mof_N 	N 	0.42212	0.17229	0.6634	-0.272
Mof_O 	O 	0.34254	0.06814	0.67106	-0.378
Mof_O 	O 	0.3065	0.0715	0.82958	-0.327
Mof_O 	O 	0.34875	0.00781	0.6834	-0.545
Mof_O 	O 	0.29689	0.15833	0.82541	-0.553
Mof_O 	O 	0.27835	0.12761	0.66768	-0.295
Mof_O 	O 	0.24911	0.1958	0.81663	-0.6
Mof_O 	O 	0.37718	0.11742	0.8216	-0.458
Mof_O 	O 	0.36152	0.15247	0.66671	-0.291
Mof_O 	O 	0.43497	0.13661	0.8146	-0.671
Mof_C 	C 	0.53848	0.16275	0.2106	0.263
Mof_C 	C 	0.53992	0.18412	0.2994	0.077
Mof_C 	C 	0.50775	0.20928	0.42	0.181
Mof_C 	C 	0.50862	0.2471	0.4185	-0.237
Mof_H 	H 	0.5089	0.2599	0.3646	0.087
Mof_C 	C 	0.67037	0.23104	0.2874	0.311
Mof_C 	C 	0.65298	0.24198	0.1977	0.066
Mof_C 	C 	0.65085	0.28393	0.0802	0.204
Mof_C 	C 	0.6215	0.30764	0.0805	-0.252
Mof_H 	H 	0.6119	0.3162	0.1342	0.092
Mof_C 	C 	0.6343	0.09734	0.2851	0.3
Mof_C 	C 	0.65451	0.10592	0.1972	0.052
Mof_C 	C 	0.69127	0.08269	0.0813	0.187
Mof_C 	C 	0.72891	0.08656	0.0817	-0.235
Mof_H 	H 	0.7419	0.0883	0.1352	0.076
Mof_Cu	Cu	0.46779	0.16462	0.26678	0.852
Mof_Mn	Mn	0.61688	0.17386	0.24607	0.901
Mof_Na	Na	0.6248	0.0328	0.5623	0.752
Mof_N 	N 	0.50807	0.18971	0.3362	-0.271
Mof_N 	N 	0.66666	0.27189	0.16303	-0.273
Mof_N 	N 	0.67229	0.07788	0.1634	-0.273
Mof_O 	O 	0.56814	0.15746	0.17106	-0.371
Mof_O 	O 	0.5715	0.1935	0.32958	-0.33
Mof_O 	O 	0.50781	0.15125	0.1834	-0.507
Mof_O 	O 	0.65833	0.20311	0.32541	-0.555
Mof_O 	O 	0.62761	0.22165	0.16768	-0.296
Mof_O 	O 	0.6958	0.25089	0.31663	-0.588
Mof_O 	O 	0.61742	0.12282	0.3216	-0.449
Mof_O 	O 	0.65247	0.13848	0.16671	-0.293
Mof_O 	O 	0.63661	0.06503	0.3146	-0.615
Mof_C 	C 	0.46152	0.83725	0.2106	0.263
Mof_C 	C 	0.46008	0.81588	0.2994	0.077
Mof_C 	C 	0.49225	0.79072	0.42	0.181
Mof_C 	C 	0.49138	0.7529	0.4185	-0.237
Mof_H 	H 	0.4911	0.7401	0.3646	0.087
Mof_C 	C 	0.32963	0.76896	0.2874	0.311
Mof_C 	C 	0.34702	0.75802	0.1977	0.066
Mof_C 	C 	0.34915	0.71607	0.0802	0.204
Mof_C 	C 	0.3785	0.69236	0.0805	-0.252
Mof_H 	H 	0.3881	0.6838	0.1342	0.092
Mof_C 	C 	0.3657	0.90266	0.2851	0.3
Mof_C 	C 	0.34549	0.89408	0.1972	0.052
Mof_C 	C 	0.30873	0.91731	0.0813	0.187
Mof_C 	C 	0.27109	0.91344	0.0817	-0.235
Mof_H 	H 	0.2581	0.9117	0.1352	0.076
Mof_Cu	Cu	0.53221	0.83538	0.26678	0.852
Mof_Mn	Mn	0.38312	0.82614	0.24607	0.901
Mof_Na	Na	0.3752	0.9672	0.5623	0.752
Mof_N 	N 	0.49193	0.81029	0.3362	-0.271
Mof_N 	N 	0.33334	0.72811	0.16303	-0.273
Mof_N 	N 	0.32771	0.92212	0.1634	-0.273
Mof_O 	O 	0.43186	0.84254	0.17106	-0.371
Mof_O 	O 	0.4285	0.8065	0.32958	-0.33
Mof_O 	O 	0.49219	0.84875	0.1834	-0.507
Mof_O 	O 	0.34167	0.79689	0.32541	-0.555
Mof_O 	O 	0.37239	0.77835	0.16768	-0.296
Mof_O 	O 	0.3042	0.74911	0.31663	-0.588
Mof_O 	O 	0.38258	0.87718	0.3216	-0.449
Mof_O 	O 	0.34753	0.86152	0.16671	-0.293
Mof_O 	O 	0.36339	0.93497	0.3146	-0.615
Mof_C 	C 	0.83725	0.46152	0.7894	0.293
Mof_C 	C 	0.81588	0.46008	0.7006	0.067
Mof_C 	C 	0.79072	0.49225	0.58	0.181
Mof_C 	C 	0.7529	0.49138	0.5815	-0.237
Mof_H 	H 	0.7401	0.4911	0.6354	0.087
Mof_C 	C 	0.76896	0.32963	0.7126	0.312
Mof_C 	C 	0.75802	0.34702	0.8023	0.067
Mof_C 	C 	0.71607	0.34915	0.9198	0.212
Mof_C 	C 	0.69236	0.3785	0.9195	-0.242
Mof_H 	H 	0.6838	0.3881	0.8658	0.091
Mof_C 	C 	0.90266	0.3657	0.7149	0.298
Mof_C 	C 	0.89408	0.34549	0.8028	0.053
Mof_C 	C 	0.91731	0.30873	0.9187	0.194
Mof_C 	C 	0.91344	0.27109	0.9183	-0.225
Mof_H 	H 	0.9117	0.2581	0.8648	0.075
Mof_Cu	Cu	0.83538	0.53221	0.73322	0.848
Mof_Mn	Mn	0.82614	0.38312	0.75393	0.903
Mof_Na	Na	0.9672	0.3752	0.4377	0.797
Mof_N 	N 	0.81029	0.49193	0.6638	-0.271
Mof_N 	N 	0.72811	0.33334	0.83697	-0.273
Mof_N 	N 	0.92212	0.32771	0.8366	-0.273
Mof_O 	O 	0.84254	0.43186	0.82894	-0.383
Mof_O 	O 	0.8065	0.4285	0.67042	-0.329
Mof_O 	O 	0.84875	0.49219	0.8166	-0.586
Mof_O 	O 	0.79689	0.34167	0.67459	-0.555
Mof_O 	O 	0.77835	0.37239	0.83232	-0.293
Mof_O 	O 	0.74911	0.3042	0.68337	-0.589
Mof_O 	O 	0.87718	0.38258	0.6784	-0.449
Mof_O 	O 	0.86152	0.34753	0.83329	-0.29
Mof_O 	O 	0.93497	0.36339	0.6854	-0.609
Mof_C 	C 	0.16275	0.53848	0.7894	0.293
Mof_C 	C 	0.18412	0.53992	0.7006	0.067
Mof_C 	C 	0.20928	0.50775	0.58	0.181
Mof_C 	C 	0.2471	0.50862	0.5815	-0.237
Mof_H 	H 	0.2599	0.5089	0.6354	0.087
Mof_C 	C 	0.23104	0.67037	0.7126	0.312
Mof_C 	C 	0.24198	0.65298	0.8023	0.067
Mof_C 	C 	0.28393	0.65085	0.9198	0.212
Mof_C 	C 	0.30764	0.6215	0.9195	-0.242
Mof_H 	H 	0.3162	0.6119	0.8658	0.091
Mof_C 	C 	0.09734	0.6343	0.7149	0.298
Mof_C 	C 	0.10592	0.65451	0.8028	0.053
Mof_C 	C 	0.08269	0.69127	0.9187	0.194
Mof_C 	C 	0.08656	0.72891	0.9183	-0.225
Mof_H 	H 	0.0883	0.7419	0.8648	0.075
Mof_Cu	Cu	0.16462	0.46779	0.73322	0.848
Mof_Mn	Mn	0.17386	0.61688	0.75393	0.903
Mof_Na	Na	0.0328	0.6248	0.4377	0.797
Mof_N 	N 	0.18971	0.50807	0.6638	-0.271
Mof_N 	N 	0.27189	0.66666	0.83697	-0.273
Mof_N 	N 	0.07788	0.67229	0.8366	-0.273
Mof_O 	O 	0.15746	0.56814	0.82894	-0.383
Mof_O 	O 	0.1935	0.5715	0.67042	-0.329
Mof_O 	O 	0.15125	0.50781	0.8166	-0.586
Mof_O 	O 	0.20311	0.65833	0.67459	-0.555
Mof_O 	O 	0.22165	0.62761	0.83232	-0.293
Mof_O 	O 	0.25089	0.6958	0.68337	-0.589
Mof_O 	O 	0.12282	0.61742	0.6784	-0.449
Mof_O 	O 	0.13848	0.65247	0.83329	-0.29
Mof_O 	O 	0.06503	0.63661	0.6854	-0.609
Mof_C 	C 	0.96152	0.66275	0.2894	0.279
Mof_C 	C 	0.96008	0.68412	0.2006	0.072
Mof_C 	C 	0.99225	0.70928	0.08	0.181
Mof_C 	C 	0.99138	0.7471	0.0815	-0.23
Mof_H 	H 	0.9911	0.7599	0.1354	0.084
Mof_C 	C 	0.82963	0.73104	0.2126	0.306
Mof_C 	C 	0.84702	0.74198	0.3023	0.068
Mof_C 	C 	0.84915	0.78393	0.4198	0.206
Mof_C 	C 	0.8785	0.80764	0.4195	-0.259
Mof_H 	H 	0.8881	0.8162	0.3658	0.095
Mof_C 	C 	0.8657	0.59734	0.2149	0.279
Mof_C 	C 	0.84549	0.60592	0.3028	0.058
Mof_C 	C 	0.80873	0.58269	0.4187	0.188
Mof_C 	C 	0.77109	0.58656	0.4183	-0.243
Mof_H 	H 	0.7581	0.5883	0.3648	0.079
Mof_Cu	Cu	0.03221	0.66462	0.23322	0.85
Mof_Mn	Mn	0.88312	0.67386	0.25393	0.902
Mof_Na	Na	0.8752	0.5328	0.9377	1.168
Mof_N 	N 	0.99193	0.68971	0.1638	-0.271
Mof_N 	N 	0.83334	0.77189	0.33697	-0.273
Mof_N 	N 	0.82771	0.57788	0.3366	-0.273
Mof_O 	O 	0.93186	0.65746	0.32894	-0.377
Mof_O 	O 	0.9285	0.6935	0.17042	-0.329
Mof_O 	O 	0.99219	0.65125	0.3166	-0.548
Mof_O 	O 	0.84167	0.70311	0.17459	-0.55
Mof_O 	O 	0.87239	0.72165	0.33232	-0.295
Mof_O 	O 	0.8042	0.75089	0.18337	-0.576
Mof_O 	O 	0.88258	0.62282	0.1784	-0.438
Mof_O 	O 	0.84753	0.63848	0.33329	-0.293
Mof_O 	O 	0.86339	0.56503	0.1854	-0.552
Mof_C 	C 	0.03848	0.33725	0.2894	0.279
Mof_C 	C 	0.03992	0.31588	0.2006	0.072
Mof_C 	C 	0.00775	0.29072	0.08	0.181
Mof_C 	C 	0.00862	0.2529	0.0815	-0.23
Mof_H 	H 	0.0089	0.2401	0.1354	0.084
Mof_C 	C 	0.17037	0.26896	0.2126	0.306
Mof_C 	C 	0.15298	0.25802	0.3023	0.068
Mof_C 	C 	0.15085	0.21607	0.4198	0.206
Mof_C 	C 	0.1215	0.19236	0.4195	-0.259
Mof_H 	H 	0.1119	0.1838	0.3658	0.095
Mof_C 	C 	0.1343	0.40266	0.2149	0.279
Mof_C 	C 	0.15451	0.39408	0.3028	0.058
Mof_C 	C 	0.19127	0.41731	0.4187	0.188
Mof_C 	C 	0.22891	0.41344	0.4183	-0.243
Mof_H 	H 	0.2419	0.4117	0.3648	0.079
Mof_Cu	Cu	0.96779	0.33538	0.23322	0.85
Mof_Mn	Mn	0.11688	0.32614	0.25393	0.902
Mof_Na	Na	0.1248	0.4672	0.9377	1.168
Mof_N 	N 	0.00807	0.31029	0.1638	-0.271
Mof_N 	N 	0.16666	0.22811	0.33697	-0.273
Mof_N 	N 	0.17229	0.42212	0.3366	-0.273
Mof_O 	O 	0.06814	0.34254	0.32894	-0.377
Mof_O 	O 	0.0715	0.3065	0.17042	-0.329
Mof_O 	O 	0.00781	0.34875	0.3166	-0.548
Mof_O 	O 	0.15833	0.29689	0.17459	-0.55
Mof_O 	O 	0.12761	0.27835	0.33232	-0.295
Mof_O 	O 	0.1958	0.24911	0.18337	-0.576
Mof_O 	O 	0.11742	0.37718	0.1784	-0.438
Mof_O 	O 	0.15247	0.36152	0.33329	-0.293
Mof_O 	O 	0.13661	0.43497	0.1854	-0.552
Mof_C 	C 	0.23429	0.0091	-0	0.101
Mof_H 	H 	0.2087	0.0098	-0	-0.039
Mof_C 	C 	0.30995	0.00736	-0	-0.271
Mof_H 	H 	0.3355	0.0069	-0	0.077
Mof_Na	Na	0.29973	0.16348	-0	1.161
Mof_C 	C 	0.76571	0.9909	-0	0.101
Mof_H 	H 	0.7913	0.9902	-0	-0.039
Mof_C 	C 	0.69005	0.99264	-0	-0.271
Mof_H 	H 	0.6645	0.9931	-0	0.077
Mof_Na	Na	0.70027	0.83652	-0	1.161
Mof_C 	C 	0.4909	0.73429	0.5	0.121
Mof_H 	H 	0.4902	0.7087	0.5	-0.043
Mof_C 	C 	0.49264	0.80995	0.5	-0.259
Mof_H 	H 	0.4931	0.8355	0.5	0.076
Mof_Na	Na	0.33652	0.79973	0.5	1.188
Mof_C 	C 	0.5091	0.26571	0.5	0.121
Mof_H 	H 	0.5098	0.2913	0.5	-0.043
Mof_C 	C 	0.50736	0.19005	0.5	-0.259
Mof_H 	H 	0.5069	0.1645	0.5	0.076
Mof_Na	Na	0.66348	0.20027	0.5	1.188
Mof_C 	C 	0.26571	0.5091	0.5	0.121
Mof_H 	H 	0.2913	0.5098	0.5	-0.043
Mof_C 	C 	0.19005	0.50736	0.5	-0.259
Mof_H 	H 	0.1645	0.5069	0.5	0.076
Mof_Na	Na	0.20027	0.66348	0.5	1.188
Mof_C 	C 	0.73429	0.4909	0.5	0.121
Mof_H 	H 	0.7087	0.4902	0.5	-0.043
Mof_C 	C 	0.80995	0.49264	0.5	-0.259
Mof_H 	H 	0.8355	0.4931	0.5	0.076
Mof_Na	Na	0.79973	0.33652	0.5	1.188
Mof_C 	C 	0.0091	0.23429	-0	0.101
Mof_H 	H 	0.0098	0.2087	-0	-0.039
Mof_C 	C 	0.00736	0.30995	-0	-0.271
Mof_H 	H 	0.0069	0.3355	-0	0.077
Mof_Na	Na	0.16348	0.29973	-0	1.161
Mof_C 	C 	0.9909	0.76571	-0	0.101
Mof_H 	H 	0.9902	0.7913	-0	-0.039
Mof_C 	C 	0.99264	0.69005	-0	-0.271
Mof_H 	H 	0.9931	0.6645	-0	0.077
Mof_Na	Na	0.83652	0.70027	-0	1.161
Mof_C 	C 	0.1814	0.1065	0.5	0.161
Mof_H 	H 	0.1663	0.0858	0.5	-0.052
Mof_C 	C 	0.22854	0.16579	0.5	-0.265
Mof_H 	H 	0.2449	0.1854	0.5	0.108
Mof_C 	C 	0.4122	0.2469	0.5	0.14
Mof_H 	H 	0.4105	0.2724	0.5	-0.045
Mof_C 	C 	0.41912	0.17256	0.5	-0.249
Mof_H 	H 	0.4216	0.1471	0.5	0.093
Mof_C 	C 	0.8186	0.8935	0.5	0.161
Mof_H 	H 	0.8337	0.9142	0.5	-0.052
Mof_C 	C 	0.77146	0.83421	0.5	-0.265
Mof_H 	H 	0.7551	0.8146	0.5	0.108
Mof_C 	C 	0.5878	0.7531	0.5	0.14
Mof_H 	H 	0.5895	0.7276	0.5	-0.045
Mof_C 	C 	0.58088	0.82744	0.5	-0.249
Mof_H 	H 	0.5784	0.8529	0.5	0.093
Mof_C 	C 	0.3935	0.6814	-0	0.14
Mof_H 	H 	0.4142	0.6663	-0	-0.048
Mof_C 	C 	0.33421	0.72854	-0	-0.276
Mof_H 	H 	0.3146	0.7449	-0	0.108
Mof_C 	C 	0.2531	0.9122	-0	0.119
Mof_H 	H 	0.2276	0.9105	-0	-0.041
Mof_C 	C 	0.32744	0.91912	-0	-0.26
Mof_H 	H 	0.3529	0.9216	-0	0.093
Mof_C 	C 	0.6065	0.3186	-0	0.14
Mof_H 	H 	0.5858	0.3337	-0	-0.048
Mof_C 	C 	0.66579	0.27146	-0	-0.276
Mof_H 	H 	0.6854	0.2551	-0	0.108
Mof_C 	C 	0.7469	0.0878	-0	0.119
Mof_H 	H 	0.7724	0.0895	-0	-0.041
Mof_C 	C 	0.67256	0.08088	-0	-0.26
Mof_H 	H 	0.6471	0.0784	-0	0.093
Mof_C 	C 	0.3186	0.6065	-0	0.14
Mof_H 	H 	0.3337	0.5858	-0	-0.048
Mof_C 	C 	0.27146	0.66579	-0	-0.276
Mof_H 	H 	0.2551	0.6854	-0	0.108
Mof_C 	C 	0.0878	0.7469	-0	0.119
Mof_H 	H 	0.0895	0.7724	-0	-0.041
Mof_C 	C 	0.08088	0.67256	-0	-0.26
Mof_H 	H 	0.0784	0.6471	-0	0.093
Mof_C 	C 	0.6814	0.3935	-0	0.14
Mof_H 	H 	0.6663	0.4142	-0	-0.048
Mof_C 	C 	0.72854	0.33421	-0	-0.276
Mof_H 	H 	0.7449	0.3146	-0	0.108
Mof_C 	C 	0.9122	0.2531	-0	0.119
Mof_H 	H 	0.9105	0.2276	-0	-0.041
Mof_C 	C 	0.91912	0.32744	-0	-0.26
Mof_H 	H 	0.9216	0.3529	-0	0.093
Mof_C 	C 	0.1065	0.1814	0.5	0.161
Mof_H 	H 	0.0858	0.1663	0.5	-0.052
Mof_C 	C 	0.16579	0.22854	0.5	-0.265
Mof_H 	H 	0.1854	0.2449	0.5	0.108
Mof_C 	C 	0.2469	0.4122	0.5	0.14
Mof_H 	H 	0.2724	0.4105	0.5	-0.045
Mof_C 	C 	0.17256	0.41912	0.5	-0.249
Mof_H 	H 	0.1471	0.4216	0.5	0.093
Mof_C 	C 	0.8935	0.8186	0.5	0.161
Mof_H 	H 	0.9142	0.8337	0.5	-0.052
Mof_C 	C 	0.83421	0.77146	0.5	-0.265
Mof_H 	H 	0.8146	0.7551	0.5	0.108
Mof_C 	C 	0.7531	0.5878	0.5	0.14
Mof_H 	H 	0.7276	0.5895	0.5	-0.045
Mof_C 	C 	0.82744	0.58088	0.5	-0.249
Mof_H 	H 	0.8529	0.5784	0.5	0.093
Mof_Cu	Cu	0.20803	0.20803	0.26671	0.856
Mof_Na	Na	0.24174	0.24174	0.0714	0.394
Mof_Cu	Cu	0.79197	0.79197	0.26671	0.856
Mof_Na	Na	0.75826	0.75826	0.0714	0.394
Mof_Cu	Cu	0.29197	0.70803	0.76671	0.856
Mof_Na	Na	0.25826	0.74174	0.5714	0.494
Mof_Cu	Cu	0.70803	0.29197	0.76671	0.856
Mof_Na	Na	0.74174	0.25826	0.5714	0.494
Mof_Cu	Cu	0.29197	0.70803	0.23329	0.855
Mof_Na	Na	0.25826	0.74174	0.4286	0.485
Mof_Cu	Cu	0.70803	0.29197	0.23329	0.855
Mof_Na	Na	0.74174	0.25826	0.4286	0.485
Mof_Cu	Cu	0.20803	0.20803	0.73329	0.855
Mof_Na	Na	0.24174	0.24174	0.9286	0.604
Mof_Cu	Cu	0.79197	0.79197	0.73329	0.855
Mof_Na	Na	0.75826	0.75826	0.9286	0.604
_end
