data_functionalizedCrystal
_audit_creation_method	'EQeq! by Chris Wilmer'
_symmetry_space_group_name_H-M	'P1'
_symmetry_Int_Tables_number	1
_symmetry_cell_setting	triclinic
loop_
_symmetry_equiv_pos_as_xyz
  x,y,z
_cell_length_a	15.1869
_cell_length_b	24.1587
_cell_length_c	15.8511
_cell_angle_alpha	90
_cell_angle_beta	111.141
_cell_angle_gamma	90
loop_
_atom_site_label
_atom_site_type_symbol
_atom_site_fract_x
_atom_site_fract_y
_atom_site_fract_z
_atom_site_charge
Mof_Zn	Zn	0.57358	0.48734	0.36179	1.219
Mof_O 	O 	0.6714	0.56556	0.357	-0.368
Mof_O 	O 	0.5274	0.56422	0.3577	-0.46
Mof_O 	O 	0.5934	0.82411	0.3651	-0.315
Mof_O 	O 	0.87	0.94646	0.2115	-0.523
Mof_O 	O 	0.9595	0.94544	0.3574	-0.506
Mof_N 	N 	0.658	0.46782	0.4888	-0.269
Mof_C 	C 	0.624	0.4495	0.5512	0.103
Mof_H 	H 	0.5588	0.4405	0.5318	-0.004
Mof_C 	C 	0.6772	0.4428	0.6409	-0.185
Mof_H 	H 	0.6496	0.4288	0.6816	0.108
Mof_C 	C 	0.7728	0.4567	0.6717	0.145
Mof_C 	C 	0.8089	0.4736	0.6073	-0.179
Mof_H 	H 	0.8742	0.4819	0.6248	0.094
Mof_C 	C 	0.7508	0.4786	0.5182	0.101
Mof_H 	H 	0.7776	0.4903	0.4754	-0.005
Mof_C 	C 	0.8273	0.4566	0.7688	-0.129
Mof_H 	H 	0.8088	0.4316	0.8056	0.089
Mof_C 	C 	0.901	0.4892	0.8089	-0.023
Mof_H 	H 	0.9227	0.5114	0.771	0.04
Mof_C 	C 	0.9516	0.4938	0.9065	0.025
Mof_C 	C 	0.0064	0.5405	0.9409	-0.062
Mof_H 	H 	0.0113	0.5685	0.9007	0.058
Mof_C 	C 	0.9463	0.4535	0.9671	-0.051
Mof_H 	H 	0.9095	0.4212	0.9448	0.055
Mof_C 	C 	0.5995	0.5905	0.357	0.348
Mof_C 	C 	0.598	0.6519	0.3574	-0.187
Mof_C 	C 	0.6717	0.6807	0.347	0.142
Mof_H 	H 	0.7225	0.6613	0.3393	-0.008
Mof_C 	C 	0.6718	0.7381	0.3479	-0.266
Mof_H 	H 	0.7217	0.758	0.3391	0.126
Mof_C 	C 	0.5993	0.766	0.3616	0.282
Mof_C 	C 	0.5249	0.7375	0.3727	-0.252
Mof_H 	H 	0.4749	0.7569	0.382	0.127
Mof_C 	C 	0.5247	0.6806	0.3698	0.144
Mof_H 	H 	0.4736	0.6607	0.3765	-0.002
Mof_C 	C 	0.8843	0.9352	0.2925	0.48
Mof_C 	C 	0.8064	0.9073	0.3112	-0.268
Mof_C 	C 	0.7262	0.8916	0.2423	0.214
Mof_H 	H 	0.7196	0.8995	0.1817	-0.027
Mof_C 	C 	0.6543	0.8641	0.2594	-0.328
Mof_H 	H 	0.5988	0.8531	0.2111	0.156
Mof_C 	C 	0.665	0.8531	0.3474	0.335
Mof_C 	C 	0.742	0.8696	0.4171	-0.334
Mof_H 	H 	0.7469	0.8627	0.4777	0.157
Mof_C 	C 	0.8133	0.8965	0.3995	0.216
Mof_H 	H 	0.8681	0.9078	0.4484	-0.029
Mof_Zn	Zn	0.07358	0.98734	0.36179	1.22
Mof_O 	O 	0.1714	0.06556	0.357	-0.367
Mof_O 	O 	0.0274	0.06422	0.3577	-0.459
Mof_O 	O 	0.0934	0.32411	0.3651	-0.314
Mof_O 	O 	0.37	0.44646	0.2115	-0.522
Mof_O 	O 	0.4595	0.44544	0.3574	-0.505
Mof_N 	N 	0.158	0.96782	0.4888	-0.268
Mof_C 	C 	0.124	0.9495	0.5512	0.104
Mof_H 	H 	0.0588	0.9405	0.5318	-0.003
Mof_C 	C 	0.1772	0.9428	0.6409	-0.184
Mof_H 	H 	0.1496	0.9288	0.6816	0.11
Mof_C 	C 	0.2728	0.9567	0.6717	0.147
Mof_C 	C 	0.3089	0.9736	0.6073	-0.178
Mof_H 	H 	0.3742	0.9819	0.6248	0.096
Mof_C 	C 	0.2508	0.9786	0.5182	0.102
Mof_H 	H 	0.2776	0.9903	0.4754	-0.004
Mof_C 	C 	0.3273	0.9566	0.7688	-0.128
Mof_H 	H 	0.3088	0.9316	0.8056	0.09
Mof_C 	C 	0.401	0.9892	0.8089	-0.021
Mof_H 	H 	0.4227	0.0114	0.771	0.038
Mof_C 	C 	0.4516	0.9938	0.9065	0.027
Mof_C 	C 	0.5064	0.0405	0.9409	-0.065
Mof_H 	H 	0.5113	0.0685	0.9007	0.058
Mof_C 	C 	0.4463	0.9535	0.9671	-0.049
Mof_H 	H 	0.4095	0.9212	0.9448	0.054
Mof_C 	C 	0.0995	0.0905	0.357	0.347
Mof_C 	C 	0.098	0.1519	0.3574	-0.187
Mof_C 	C 	0.1717	0.1807	0.347	0.142
Mof_H 	H 	0.2225	0.1613	0.3393	-0.008
Mof_C 	C 	0.1718	0.2381	0.3479	-0.266
Mof_H 	H 	0.2217	0.258	0.3391	0.126
Mof_C 	C 	0.0993	0.266	0.3616	0.282
Mof_C 	C 	0.0249	0.2375	0.3727	-0.252
Mof_H 	H 	0.9749	0.2569	0.382	0.127
Mof_C 	C 	0.0247	0.1806	0.3698	0.143
Mof_H 	H 	0.9736	0.1607	0.3765	-0.002
Mof_C 	C 	0.3843	0.4352	0.2925	0.48
Mof_C 	C 	0.3064	0.4073	0.3112	-0.268
Mof_C 	C 	0.2262	0.3916	0.2423	0.214
Mof_H 	H 	0.2196	0.3995	0.1817	-0.027
Mof_C 	C 	0.1543	0.3641	0.2594	-0.328
Mof_H 	H 	0.0988	0.3531	0.2111	0.156
Mof_C 	C 	0.165	0.3531	0.3474	0.335
Mof_C 	C 	0.242	0.3696	0.4171	-0.333
Mof_H 	H 	0.2469	0.3627	0.4777	0.157
Mof_C 	C 	0.3133	0.3965	0.3995	0.216
Mof_H 	H 	0.3681	0.4078	0.4484	-0.029
Mof_Zn	Zn	0.42642	0.48734	0.13821	1.22
Mof_O 	O 	0.3286	0.56556	0.143	-0.367
Mof_O 	O 	0.4726	0.56422	0.1423	-0.459
Mof_O 	O 	0.4066	0.82411	0.1349	-0.314
Mof_O 	O 	0.13	0.94646	0.2885	-0.522
Mof_O 	O 	0.0405	0.94544	0.1426	-0.505
Mof_N 	N 	0.342	0.46782	0.0112	-0.268
Mof_C 	C 	0.376	0.4495	0.9488	0.103
Mof_H 	H 	0.4412	0.4405	0.9682	-0.003
Mof_C 	C 	0.3228	0.4428	0.8591	-0.184
Mof_H 	H 	0.3504	0.4288	0.8184	0.109
Mof_C 	C 	0.2272	0.4567	0.8283	0.146
Mof_C 	C 	0.1911	0.4736	0.8927	-0.178
Mof_H 	H 	0.1258	0.4819	0.8752	0.095
Mof_C 	C 	0.2492	0.4786	0.9818	0.101
Mof_H 	H 	0.2224	0.4903	0.0246	-0.004
Mof_C 	C 	0.1727	0.4566	0.7312	-0.127
Mof_H 	H 	0.1912	0.4316	0.6944	0.09
Mof_C 	C 	0.099	0.4892	0.6911	-0.023
Mof_H 	H 	0.0773	0.5114	0.729	0.039
Mof_C 	C 	0.0484	0.4938	0.5935	0.025
Mof_C 	C 	0.9936	0.5405	0.5591	-0.062
Mof_H 	H 	0.9887	0.5685	0.5993	0.058
Mof_C 	C 	0.0537	0.4535	0.5329	-0.051
Mof_H 	H 	0.0905	0.4212	0.5552	0.055
Mof_C 	C 	0.4005	0.5905	0.143	0.348
Mof_C 	C 	0.402	0.6519	0.1426	-0.187
Mof_C 	C 	0.3283	0.6807	0.153	0.142
Mof_H 	H 	0.2775	0.6613	0.1607	-0.008
Mof_C 	C 	0.3282	0.7381	0.1521	-0.266
Mof_H 	H 	0.2783	0.758	0.1609	0.126
Mof_C 	C 	0.4007	0.766	0.1384	0.282
Mof_C 	C 	0.4751	0.7375	0.1273	-0.252
Mof_H 	H 	0.5251	0.7569	0.118	0.127
Mof_C 	C 	0.4753	0.6806	0.1302	0.144
Mof_H 	H 	0.5264	0.6607	0.1235	-0.002
Mof_C 	C 	0.1157	0.9352	0.2075	0.48
Mof_C 	C 	0.1936	0.9073	0.1888	-0.268
Mof_C 	C 	0.2738	0.8916	0.2577	0.214
Mof_H 	H 	0.2804	0.8995	0.3183	-0.027
Mof_C 	C 	0.3457	0.8641	0.2406	-0.328
Mof_H 	H 	0.4012	0.8531	0.2889	0.156
Mof_C 	C 	0.335	0.8531	0.1526	0.335
Mof_C 	C 	0.258	0.8696	0.0829	-0.334
Mof_H 	H 	0.2531	0.8627	0.0223	0.157
Mof_C 	C 	0.1867	0.8965	0.1005	0.216
Mof_H 	H 	0.1319	0.9078	0.0516	-0.03
Mof_Zn	Zn	0.92642	0.98734	0.13821	1.219
Mof_O 	O 	0.8286	0.06556	0.143	-0.367
Mof_O 	O 	0.9726	0.06422	0.1423	-0.458
Mof_O 	O 	0.9066	0.32411	0.1349	-0.314
Mof_O 	O 	0.63	0.44646	0.2885	-0.522
Mof_O 	O 	0.5405	0.44544	0.1426	-0.505
Mof_N 	N 	0.842	0.96782	0.0112	-0.271
Mof_C 	C 	0.876	0.9495	0.9488	0.107
Mof_H 	H 	0.9412	0.9405	0.9682	-0.004
Mof_C 	C 	0.8228	0.9428	0.8591	-0.186
Mof_H 	H 	0.8504	0.9288	0.8184	0.11
Mof_C 	C 	0.7272	0.9567	0.8283	0.15
Mof_C 	C 	0.6911	0.9736	0.8927	-0.182
Mof_H 	H 	0.6258	0.9819	0.8752	0.097
Mof_C 	C 	0.7492	0.9786	0.9818	0.108
Mof_H 	H 	0.7224	0.9903	0.0246	-0.008
Mof_C 	C 	0.6727	0.9566	0.7312	-0.13
Mof_H 	H 	0.6912	0.9316	0.6944	0.091
Mof_C 	C 	0.599	0.9892	0.6911	-0.02
Mof_H 	H 	0.5773	0.0114	0.729	0.038
Mof_C 	C 	0.5484	0.9938	0.5935	0.025
Mof_C 	C 	0.4936	0.0405	0.5591	-0.062
Mof_H 	H 	0.4887	0.0685	0.5993	0.057
Mof_C 	C 	0.5537	0.9535	0.5329	-0.051
Mof_H 	H 	0.5905	0.9212	0.5552	0.055
Mof_C 	C 	0.9005	0.0905	0.143	0.348
Mof_C 	C 	0.902	0.1519	0.1426	-0.187
Mof_C 	C 	0.8283	0.1807	0.153	0.142
Mof_H 	H 	0.7775	0.1613	0.1607	-0.008
Mof_C 	C 	0.8282	0.2381	0.1521	-0.266
Mof_H 	H 	0.7783	0.258	0.1609	0.126
Mof_C 	C 	0.9007	0.266	0.1384	0.282
Mof_C 	C 	0.9751	0.2375	0.1273	-0.252
Mof_H 	H 	0.0251	0.2569	0.118	0.127
Mof_C 	C 	0.9753	0.1806	0.1302	0.144
Mof_H 	H 	0.0264	0.1607	0.1235	-0.002
Mof_C 	C 	0.6157	0.4352	0.2075	0.48
Mof_C 	C 	0.6936	0.4073	0.1888	-0.268
Mof_C 	C 	0.7738	0.3916	0.2577	0.214
Mof_H 	H 	0.7804	0.3995	0.3183	-0.027
Mof_C 	C 	0.8457	0.3641	0.2406	-0.328
Mof_H 	H 	0.9012	0.3531	0.2889	0.156
Mof_C 	C 	0.835	0.3531	0.1526	0.335
Mof_C 	C 	0.758	0.3696	0.0829	-0.333
Mof_H 	H 	0.7531	0.3627	0.0223	0.157
Mof_C 	C 	0.6867	0.3965	0.1005	0.216
Mof_H 	H 	0.6319	0.4078	0.0516	-0.029
Mof_Zn	Zn	0.42642	0.51266	0.63821	1.22
Mof_O 	O 	0.3286	0.43444	0.643	-0.367
Mof_O 	O 	0.4726	0.43578	0.6423	-0.459
Mof_O 	O 	0.4066	0.17589	0.6349	-0.314
Mof_O 	O 	0.13	0.05354	0.7885	-0.522
Mof_O 	O 	0.0405	0.05456	0.6426	-0.505
Mof_N 	N 	0.342	0.53218	0.5112	-0.268
Mof_C 	C 	0.376	0.5505	0.4488	0.104
Mof_H 	H 	0.4412	0.5595	0.4682	-0.003
Mof_C 	C 	0.3228	0.5572	0.3591	-0.184
Mof_H 	H 	0.3504	0.5712	0.3184	0.109
Mof_C 	C 	0.2272	0.5433	0.3283	0.146
Mof_C 	C 	0.1911	0.5264	0.3927	-0.178
Mof_H 	H 	0.1258	0.5181	0.3752	0.095
Mof_C 	C 	0.2492	0.5214	0.4818	0.102
Mof_H 	H 	0.2224	0.5097	0.5246	-0.004
Mof_C 	C 	0.1727	0.5434	0.2312	-0.128
Mof_H 	H 	0.1912	0.5684	0.1944	0.09
Mof_C 	C 	0.099	0.5108	0.1911	-0.023
Mof_H 	H 	0.0773	0.4886	0.229	0.04
Mof_C 	C 	0.0484	0.5062	0.0935	0.025
Mof_C 	C 	0.9936	0.4595	0.0591	-0.062
Mof_H 	H 	0.9887	0.4315	0.0993	0.058
Mof_C 	C 	0.0537	0.5465	0.0329	-0.051
Mof_H 	H 	0.0905	0.5788	0.0552	0.055
Mof_C 	C 	0.4005	0.4095	0.643	0.348
Mof_C 	C 	0.402	0.3481	0.6426	-0.187
Mof_C 	C 	0.3283	0.3193	0.653	0.142
Mof_H 	H 	0.2775	0.3387	0.6607	-0.008
Mof_C 	C 	0.3282	0.2619	0.6521	-0.266
Mof_H 	H 	0.2783	0.242	0.6609	0.126
Mof_C 	C 	0.4007	0.234	0.6384	0.282
Mof_C 	C 	0.4751	0.2625	0.6273	-0.252
Mof_H 	H 	0.5251	0.2431	0.618	0.127
Mof_C 	C 	0.4753	0.3194	0.6302	0.144
Mof_H 	H 	0.5264	0.3393	0.6235	-0.002
Mof_C 	C 	0.1157	0.0648	0.7075	0.48
Mof_C 	C 	0.1936	0.0927	0.6888	-0.268
Mof_C 	C 	0.2738	0.1084	0.7577	0.214
Mof_H 	H 	0.2804	0.1005	0.8183	-0.027
Mof_C 	C 	0.3457	0.1359	0.7406	-0.328
Mof_H 	H 	0.4012	0.1469	0.7889	0.156
Mof_C 	C 	0.335	0.1469	0.6526	0.335
Mof_C 	C 	0.258	0.1304	0.5829	-0.334
Mof_H 	H 	0.2531	0.1373	0.5223	0.157
Mof_C 	C 	0.1867	0.1035	0.6005	0.216
Mof_H 	H 	0.1319	0.0922	0.5516	-0.029
Mof_Zn	Zn	0.92642	0.01266	0.63821	1.22
Mof_O 	O 	0.8286	0.93444	0.643	-0.367
Mof_O 	O 	0.9726	0.93578	0.6423	-0.459
Mof_O 	O 	0.9066	0.67589	0.6349	-0.314
Mof_O 	O 	0.63	0.55354	0.7885	-0.522
Mof_O 	O 	0.5405	0.55456	0.6426	-0.505
Mof_N 	N 	0.842	0.03218	0.5112	-0.268
Mof_C 	C 	0.876	0.0505	0.4488	0.104
Mof_H 	H 	0.9412	0.0595	0.4682	-0.003
Mof_C 	C 	0.8228	0.0572	0.3591	-0.184
Mof_H 	H 	0.8504	0.0712	0.3184	0.11
Mof_C 	C 	0.7272	0.0433	0.3283	0.147
Mof_C 	C 	0.6911	0.0264	0.3927	-0.178
Mof_H 	H 	0.6258	0.0181	0.3752	0.096
Mof_C 	C 	0.7492	0.0214	0.4818	0.102
Mof_H 	H 	0.7224	0.0097	0.5246	-0.004
Mof_C 	C 	0.6727	0.0434	0.2312	-0.128
Mof_H 	H 	0.6912	0.0684	0.1944	0.09
Mof_C 	C 	0.599	0.0108	0.1911	-0.021
Mof_H 	H 	0.5773	0.9886	0.229	0.038
Mof_C 	C 	0.5484	0.0062	0.0935	0.027
Mof_C 	C 	0.4936	0.9595	0.0591	-0.065
Mof_H 	H 	0.4887	0.9315	0.0993	0.058
Mof_C 	C 	0.5537	0.0465	0.0329	-0.049
Mof_H 	H 	0.5905	0.0788	0.0552	0.054
Mof_C 	C 	0.9005	0.9095	0.643	0.347
Mof_C 	C 	0.902	0.8481	0.6426	-0.187
Mof_C 	C 	0.8283	0.8193	0.653	0.142
Mof_H 	H 	0.7775	0.8387	0.6607	-0.008
Mof_C 	C 	0.8282	0.7619	0.6521	-0.266
Mof_H 	H 	0.7783	0.742	0.6609	0.126
Mof_C 	C 	0.9007	0.734	0.6384	0.282
Mof_C 	C 	0.9751	0.7625	0.6273	-0.252
Mof_H 	H 	0.0251	0.7431	0.618	0.127
Mof_C 	C 	0.9753	0.8194	0.6302	0.143
Mof_H 	H 	0.0264	0.8393	0.6235	-0.002
Mof_C 	C 	0.6157	0.5648	0.7075	0.48
Mof_C 	C 	0.6936	0.5927	0.6888	-0.268
Mof_C 	C 	0.7738	0.6084	0.7577	0.214
Mof_H 	H 	0.7804	0.6005	0.8183	-0.027
Mof_C 	C 	0.8457	0.6359	0.7406	-0.328
Mof_H 	H 	0.9012	0.6469	0.7889	0.156
Mof_C 	C 	0.835	0.6469	0.6526	0.335
Mof_C 	C 	0.758	0.6304	0.5829	-0.333
Mof_H 	H 	0.7531	0.6373	0.5223	0.157
Mof_C 	C 	0.6867	0.6035	0.6005	0.216
Mof_H 	H 	0.6319	0.5922	0.5516	-0.029
Mof_Zn	Zn	0.57358	0.51266	0.86179	1.22
Mof_O 	O 	0.6714	0.43444	0.857	-0.367
Mof_O 	O 	0.5274	0.43578	0.8577	-0.459
Mof_O 	O 	0.5934	0.17589	0.8651	-0.314
Mof_O 	O 	0.87	0.05354	0.7115	-0.522
Mof_O 	O 	0.9595	0.05456	0.8574	-0.505
Mof_N 	N 	0.658	0.53218	0.9888	-0.268
Mof_C 	C 	0.624	0.5505	0.0512	0.103
Mof_H 	H 	0.5588	0.5595	0.0318	-0.003
Mof_C 	C 	0.6772	0.5572	0.1409	-0.184
Mof_H 	H 	0.6496	0.5712	0.1816	0.109
Mof_C 	C 	0.7728	0.5433	0.1717	0.146
Mof_C 	C 	0.8089	0.5264	0.1073	-0.178
Mof_H 	H 	0.8742	0.5181	0.1248	0.095
Mof_C 	C 	0.7508	0.5214	0.0182	0.101
Mof_H 	H 	0.7776	0.5097	0.9754	-0.004
Mof_C 	C 	0.8273	0.5434	0.2688	-0.127
Mof_H 	H 	0.8088	0.5684	0.3056	0.09
Mof_C 	C 	0.901	0.5108	0.3089	-0.023
Mof_H 	H 	0.9227	0.4886	0.271	0.039
Mof_C 	C 	0.9516	0.5062	0.4065	0.025
Mof_C 	C 	0.0064	0.4595	0.4409	-0.062
Mof_H 	H 	0.0113	0.4315	0.4007	0.058
Mof_C 	C 	0.9463	0.5465	0.4671	-0.051
Mof_H 	H 	0.9095	0.5788	0.4448	0.055
Mof_C 	C 	0.5995	0.4095	0.857	0.348
Mof_C 	C 	0.598	0.3481	0.8574	-0.187
Mof_C 	C 	0.6717	0.3193	0.847	0.142
Mof_H 	H 	0.7225	0.3387	0.8393	-0.008
Mof_C 	C 	0.6718	0.2619	0.8479	-0.266
Mof_H 	H 	0.7217	0.242	0.8391	0.126
Mof_C 	C 	0.5993	0.234	0.8616	0.282
Mof_C 	C 	0.5249	0.2625	0.8727	-0.252
Mof_H 	H 	0.4749	0.2431	0.882	0.127
Mof_C 	C 	0.5247	0.3194	0.8698	0.144
Mof_H 	H 	0.4736	0.3393	0.8765	-0.002
Mof_C 	C 	0.8843	0.0648	0.7925	0.48
Mof_C 	C 	0.8064	0.0927	0.8112	-0.268
Mof_C 	C 	0.7262	0.1084	0.7423	0.214
Mof_H 	H 	0.7196	0.1005	0.6817	-0.027
Mof_C 	C 	0.6543	0.1359	0.7594	-0.328
Mof_H 	H 	0.5988	0.1469	0.7111	0.156
Mof_C 	C 	0.665	0.1469	0.8474	0.335
Mof_C 	C 	0.742	0.1304	0.9171	-0.334
Mof_H 	H 	0.7469	0.1373	0.9777	0.157
Mof_C 	C 	0.8133	0.1035	0.8995	0.216
Mof_H 	H 	0.8681	0.0922	0.9484	-0.03
Mof_Zn	Zn	0.07358	0.01266	0.86179	1.219
Mof_O 	O 	0.1714	0.93444	0.857	-0.367
Mof_O 	O 	0.0274	0.93578	0.8577	-0.458
Mof_O 	O 	0.0934	0.67589	0.8651	-0.314
Mof_O 	O 	0.37	0.55354	0.7115	-0.522
Mof_O 	O 	0.4595	0.55456	0.8574	-0.505
Mof_N 	N 	0.158	0.03218	0.9888	-0.271
Mof_C 	C 	0.124	0.0505	0.0512	0.107
Mof_H 	H 	0.0588	0.0595	0.0318	-0.004
Mof_C 	C 	0.1772	0.0572	0.1409	-0.186
Mof_H 	H 	0.1496	0.0712	0.1816	0.11
Mof_C 	C 	0.2728	0.0433	0.1717	0.15
Mof_C 	C 	0.3089	0.0264	0.1073	-0.182
Mof_H 	H 	0.3742	0.0181	0.1248	0.097
Mof_C 	C 	0.2508	0.0214	0.0182	0.108
Mof_H 	H 	0.2776	0.0097	0.9754	-0.008
Mof_C 	C 	0.3273	0.0434	0.2688	-0.13
Mof_H 	H 	0.3088	0.0684	0.3056	0.091
Mof_C 	C 	0.401	0.0108	0.3089	-0.02
Mof_H 	H 	0.4227	0.9886	0.271	0.038
Mof_C 	C 	0.4516	0.0062	0.4065	0.025
Mof_C 	C 	0.5064	0.9595	0.4409	-0.062
Mof_H 	H 	0.5113	0.9315	0.4007	0.057
Mof_C 	C 	0.4463	0.0465	0.4671	-0.051
Mof_H 	H 	0.4095	0.0788	0.4448	0.055
Mof_C 	C 	0.0995	0.9095	0.857	0.348
Mof_C 	C 	0.098	0.8481	0.8574	-0.187
Mof_C 	C 	0.1717	0.8193	0.847	0.142
Mof_H 	H 	0.2225	0.8387	0.8393	-0.008
Mof_C 	C 	0.1718	0.7619	0.8479	-0.266
Mof_H 	H 	0.2217	0.742	0.8391	0.126
Mof_C 	C 	0.0993	0.734	0.8616	0.282
Mof_C 	C 	0.0249	0.7625	0.8727	-0.252
Mof_H 	H 	0.9749	0.7431	0.882	0.127
Mof_C 	C 	0.0247	0.8194	0.8698	0.144
Mof_H 	H 	0.9736	0.8393	0.8765	-0.002
Mof_C 	C 	0.3843	0.5648	0.7925	0.48
Mof_C 	C 	0.3064	0.5927	0.8112	-0.268
Mof_C 	C 	0.2262	0.6084	0.7423	0.214
Mof_H 	H 	0.2196	0.6005	0.6817	-0.027
Mof_C 	C 	0.1543	0.6359	0.7594	-0.328
Mof_H 	H 	0.0988	0.6469	0.7111	0.156
Mof_C 	C 	0.165	0.6469	0.8474	0.335
Mof_C 	C 	0.242	0.6304	0.9171	-0.333
Mof_H 	H 	0.2469	0.6373	0.9777	0.157
Mof_C 	C 	0.3133	0.6035	0.8995	0.216
Mof_H 	H 	0.3681	0.5922	0.9484	-0.029
_end
