data_functionalizedCrystal
_audit_creation_method	'EQeq! by Chris Wilmer'
_symmetry_space_group_name_H-M	'P1'
_symmetry_Int_Tables_number	1
_symmetry_cell_setting	triclinic
loop_
_symmetry_equiv_pos_as_xyz
  x,y,z
_cell_length_a	14.7857
_cell_length_b	16.5284
_cell_length_c	10.2302
_cell_angle_alpha	90
_cell_angle_beta	119.104
_cell_angle_gamma	90
loop_
_atom_site_label
_atom_site_type_symbol
_atom_site_fract_x
_atom_site_fract_y
_atom_site_fract_z
_atom_site_charge
Mof_Zn	Zn	0.04693	0.04566	0.68315	1.194
Mof_C 	C 	0.1235	0.8876	0.8377	-0.092
Mof_C 	C 	0.1682	0.8117	0.8806	0.051
Mof_C 	C 	0.198	0.811	0.6849	-0.014
Mof_C 	C 	0.1537	0.8863	0.6406	0.011
Mof_C 	C 	0.0812	0.9339	0.9235	0.355
Mof_N 	N 	0.206	0.7727	0.8035	-0.12
Mof_N 	N 	0.1154	0.9248	0.7166	-0.207
Mof_O 	O 	0.0963	0.9051	0.045	-0.471
Mof_O 	O 	0.0347	0.9983	0.8656	-0.473
Mof_N 	N 	0.8942	0.0225	0.5187	-0.291
Mof_N 	N 	0.5134	0.6608	0.7394	-0.295
Mof_C 	C 	0.8469	0.0763	0.4089	0.239
Mof_C 	C 	0.7502	0.0652	0.2881	-0.443
Mof_C 	C 	0.696	0.9942	0.2793	0.29
Mof_C 	C 	0.7438	0.9395	0.3969	-0.244
Mof_C 	C 	0.8415	0.955	0.512	0.161
Mof_C 	C 	0.5531	0.729	0.7183	0.211
Mof_C 	C 	0.5428	0.8022	0.7725	-0.455
Mof_C 	C 	0.4907	0.8088	0.8518	0.37
Mof_C 	C 	0.4472	0.7389	0.8689	-0.271
Mof_C 	C 	0.4591	0.6669	0.8098	0.152
Mof_C 	C 	0.5905	0.9785	0.1492	-0.363
Mof_C 	C 	0.5922	0.9045	0.0604	0.362
Mof_C 	C 	0.4868	0.8869	0.9255	-0.653
Mof_H 	H 	0.16	0.781	0.97	0.019
Mof_H 	H 	0.213	0.781	0.625	0.039
Mof_H 	H 	0.149	0.909	0.559	0.002
Mof_H 	H 	0.612	0.853	0.133	-0.049
Mof_H 	H 	0.432	0.886	0.953	0.195
Mof_H 	H 	0.64	0.912	0.046	-0.118
Mof_H 	H 	0.53	0.975	0.167	0.111
Mof_H 	H 	0.554	0.032	0.073	0.083
Mof_H 	H 	0.43	0.618	0.82	-0.027
Mof_H 	H 	0.403	0.734	0.925	0.106
Mof_H 	H 	0.458	0.925	0.86	0.246
Mof_H 	H 	0.562	0.848	0.76	0.212
Mof_H 	H 	0.605	0.727	0.678	-0.046
Mof_H 	H 	0.866	0.921	0.585	-0.039
Mof_H 	H 	0.71	0.889	0.412	0.1
Mof_H 	H 	0.721	0.099	0.224	0.224
Mof_H 	H 	0.884	0.123	0.408	-0.062
Mof_Zn	Zn	0.54693	0.54566	0.68315	1.195
Mof_C 	C 	0.6235	0.3876	0.8377	-0.09
Mof_C 	C 	0.6682	0.3117	0.8806	0.051
Mof_C 	C 	0.698	0.311	0.6849	-0.014
Mof_C 	C 	0.6537	0.3863	0.6406	0.012
Mof_C 	C 	0.5812	0.4339	0.9235	0.353
Mof_N 	N 	0.706	0.2727	0.8035	-0.119
Mof_N 	N 	0.6154	0.4248	0.7166	-0.206
Mof_O 	O 	0.5963	0.4051	0.045	-0.465
Mof_O 	O 	0.5347	0.4983	0.8656	-0.467
Mof_N 	N 	0.3942	0.5225	0.5187	-0.295
Mof_N 	N 	0.0134	0.1608	0.7394	-0.31
Mof_C 	C 	0.3469	0.5763	0.4089	0.235
Mof_C 	C 	0.2502	0.5652	0.2881	-0.439
Mof_C 	C 	0.196	0.4942	0.2793	0.282
Mof_C 	C 	0.2438	0.4395	0.3969	-0.242
Mof_C 	C 	0.3415	0.455	0.512	0.159
Mof_C 	C 	0.0531	0.229	0.7183	0.224
Mof_C 	C 	0.0428	0.3022	0.7725	-0.493
Mof_C 	C 	0.9907	0.3088	0.8518	0.396
Mof_C 	C 	0.9472	0.2389	0.8689	-0.285
Mof_C 	C 	0.9591	0.1669	0.8098	0.177
Mof_C 	C 	0.0905	0.4785	0.1492	-0.346
Mof_C 	C 	0.0922	0.4045	0.0604	0.326
Mof_C 	C 	0.9868	0.3869	0.9255	-0.634
Mof_H 	H 	0.66	0.281	0.97	0.019
Mof_H 	H 	0.713	0.281	0.625	0.041
Mof_H 	H 	0.649	0.409	0.559	0.003
Mof_H 	H 	0.112	0.353	0.133	-0.044
Mof_H 	H 	0.932	0.386	0.953	0.193
Mof_H 	H 	0.14	0.412	0.046	-0.104
Mof_H 	H 	0.03	0.475	0.167	0.102
Mof_H 	H 	0.054	0.532	0.073	0.076
Mof_H 	H 	0.93	0.118	0.82	-0.032
Mof_H 	H 	0.903	0.234	0.925	0.111
Mof_H 	H 	0.958	0.425	0.86	0.244
Mof_H 	H 	0.062	0.348	0.76	0.223
Mof_H 	H 	0.105	0.227	0.678	-0.051
Mof_H 	H 	0.366	0.421	0.585	-0.042
Mof_H 	H 	0.21	0.389	0.412	0.098
Mof_H 	H 	0.221	0.599	0.224	0.22
Mof_H 	H 	0.384	0.623	0.408	-0.066
Mof_Zn	Zn	0.04693	0.95434	0.18315	1.193
Mof_C 	C 	0.1235	0.1124	0.3377	-0.093
Mof_C 	C 	0.1682	0.1883	0.3806	0.051
Mof_C 	C 	0.198	0.189	0.1849	-0.015
Mof_C 	C 	0.1537	0.1137	0.1406	0.01
Mof_C 	C 	0.0812	0.0661	0.4235	0.357
Mof_N 	N 	0.206	0.2273	0.3035	-0.12
Mof_N 	N 	0.1154	0.0752	0.2166	-0.207
Mof_O 	O 	0.0963	0.0949	0.545	-0.473
Mof_O 	O 	0.0347	0.0017	0.3656	-0.473
Mof_N 	N 	0.8942	0.9775	0.0187	-0.292
Mof_N 	N 	0.5134	0.3392	0.2394	-0.294
Mof_C 	C 	0.8469	0.9237	0.9089	0.238
Mof_C 	C 	0.7502	0.9348	0.7881	-0.446
Mof_C 	C 	0.696	0.0058	0.7793	0.293
Mof_C 	C 	0.7438	0.0605	0.8969	-0.254
Mof_C 	C 	0.8415	0.045	0.012	0.174
Mof_C 	C 	0.5531	0.271	0.2183	0.21
Mof_C 	C 	0.5428	0.1978	0.2725	-0.452
Mof_C 	C 	0.4907	0.1912	0.3518	0.367
Mof_C 	C 	0.4472	0.2611	0.3689	-0.268
Mof_C 	C 	0.4591	0.3331	0.3098	0.151
Mof_C 	C 	0.5905	0.0215	0.6492	-0.359
Mof_C 	C 	0.5922	0.0955	0.5604	0.352
Mof_C 	C 	0.4868	0.1131	0.4255	-0.643
Mof_H 	H 	0.16	0.219	0.47	0.019
Mof_H 	H 	0.213	0.219	0.125	0.04
Mof_H 	H 	0.149	0.091	0.059	0.003
Mof_H 	H 	0.612	0.147	0.633	-0.047
Mof_H 	H 	0.432	0.114	0.453	0.193
Mof_H 	H 	0.64	0.088	0.546	-0.114
Mof_H 	H 	0.53	0.025	0.667	0.109
Mof_H 	H 	0.554	0.968	0.573	0.081
Mof_H 	H 	0.43	0.382	0.32	-0.026
Mof_H 	H 	0.403	0.266	0.425	0.106
Mof_H 	H 	0.458	0.075	0.36	0.243
Mof_H 	H 	0.562	0.152	0.26	0.211
Mof_H 	H 	0.605	0.273	0.178	-0.045
Mof_H 	H 	0.866	0.079	0.085	-0.043
Mof_H 	H 	0.71	0.111	0.912	0.102
Mof_H 	H 	0.721	0.901	0.724	0.224
Mof_H 	H 	0.884	0.877	0.908	-0.063
Mof_Zn	Zn	0.54693	0.45434	0.18315	1.196
Mof_C 	C 	0.6235	0.6124	0.3377	-0.09
Mof_C 	C 	0.6682	0.6883	0.3806	0.052
Mof_C 	C 	0.698	0.689	0.1849	-0.014
Mof_C 	C 	0.6537	0.6137	0.1406	0.013
Mof_C 	C 	0.5812	0.5661	0.4235	0.358
Mof_N 	N 	0.706	0.7273	0.3035	-0.119
Mof_N 	N 	0.6154	0.5752	0.2166	-0.205
Mof_O 	O 	0.5963	0.5949	0.545	-0.469
Mof_O 	O 	0.5347	0.5017	0.3656	-0.467
Mof_N 	N 	0.3942	0.4775	0.0187	-0.293
Mof_N 	N 	0.0134	0.8392	0.2394	-0.309
Mof_C 	C 	0.3469	0.4237	0.9089	0.23
Mof_C 	C 	0.2502	0.4348	0.7881	-0.435
Mof_C 	C 	0.196	0.5058	0.7793	0.279
Mof_C 	C 	0.2438	0.5605	0.8969	-0.244
Mof_C 	C 	0.3415	0.545	0.012	0.163
Mof_C 	C 	0.0531	0.771	0.2183	0.222
Mof_C 	C 	0.0428	0.6978	0.2725	-0.488
Mof_C 	C 	0.9907	0.6912	0.3518	0.389
Mof_C 	C 	0.9472	0.7611	0.3689	-0.281
Mof_C 	C 	0.9591	0.8331	0.3098	0.176
Mof_C 	C 	0.0905	0.5215	0.6492	-0.338
Mof_C 	C 	0.0922	0.5955	0.5604	0.306
Mof_C 	C 	0.9868	0.6131	0.4255	-0.616
Mof_H 	H 	0.66	0.719	0.47	0.02
Mof_H 	H 	0.713	0.719	0.125	0.041
Mof_H 	H 	0.649	0.591	0.059	0.004
Mof_H 	H 	0.112	0.647	0.633	-0.04
Mof_H 	H 	0.932	0.614	0.453	0.189
Mof_H 	H 	0.14	0.588	0.546	-0.097
Mof_H 	H 	0.03	0.525	0.667	0.1
Mof_H 	H 	0.054	0.468	0.573	0.073
Mof_H 	H 	0.93	0.882	0.32	-0.031
Mof_H 	H 	0.903	0.766	0.425	0.111
Mof_H 	H 	0.958	0.575	0.36	0.238
Mof_H 	H 	0.062	0.652	0.26	0.221
Mof_H 	H 	0.105	0.773	0.178	-0.05
Mof_H 	H 	0.366	0.579	0.085	-0.042
Mof_H 	H 	0.21	0.611	0.912	0.098
Mof_H 	H 	0.221	0.401	0.724	0.218
Mof_H 	H 	0.384	0.377	0.908	-0.065
_end
