data_functionalizedCrystal
_audit_creation_method	'EQeq! by Chris Wilmer'
_symmetry_space_group_name_H-M	'P1'
_symmetry_Int_Tables_number	1
_symmetry_cell_setting	triclinic
loop_
_symmetry_equiv_pos_as_xyz
  x,y,z
_cell_length_a	21.049
_cell_length_b	21.049
_cell_length_c	32.5422
_cell_angle_alpha	108.869
_cell_angle_beta	108.869
_cell_angle_gamma	90.0001
loop_
_atom_site_label
_atom_site_type_symbol
_atom_site_fract_x
_atom_site_fract_y
_atom_site_fract_z
_atom_site_charge
Mof_Cu	Cu	0.90965	0.89535	0.71932	0.913
Mof_Cu	Cu	0.80967	0.82397	0.71932	0.913
Mof_Cu	Cu	0.14535	0.55967	0.21932	0.912
Mof_Cu	Cu	0.07397	0.65965	0.21932	0.909
Mof_Cu	Cu	0.44033	0.85465	0.78068	0.912
Mof_Cu	Cu	0.34035	0.92603	0.78068	0.909
Mof_Cu	Cu	0.17603	0.19033	0.28068	0.914
Mof_Cu	Cu	0.10465	0.09035	0.28068	0.914
Mof_H 	H 	0.6722	0.9439	0.5408	0.102
Mof_H 	H 	0.7434	0.953	0.611	0.121
Mof_H 	H 	0.495	0.9094	0.6812	-0.008
Mof_H 	H 	0.5692	0.9227	0.6424	0.047
Mof_H 	H 	0.4065	0.989	0.5364	0.066
Mof_H 	H 	0.3847	0.9774	0.5992	0.032
Mof_H 	H 	0.3827	0.9705	0.6666	0.179
Mof_H 	H 	0.6463	0.8833	0.622	0.035
Mof_H 	H 	0.8686	0.5969	0.5408	0.12
Mof_H 	H 	0.8676	0.658	0.611	0.112
Mof_H 	H 	0.1862	0.7718	0.6812	-0.017
Mof_H 	H 	0.0732	0.7197	0.6424	0.027
Mof_H 	H 	0.1299	0.5474	0.5364	0.083
Mof_H 	H 	0.2145	0.6218	0.5992	0.023
Mof_H 	H 	0.2839	0.6961	0.6666	0.188
Mof_H 	H 	0.9757	0.7387	0.622	0.056
Mof_H 	H 	0.1939	0.6186	0.0408	0.101
Mof_H 	H 	0.203	0.6176	0.111	0.122
Mof_H 	H 	0.1594	0.9362	0.1812	0.009
Mof_H 	H 	0.1727	0.8232	0.1424	0.052
Mof_H 	H 	0.239	0.8799	0.0364	0.065
Mof_H 	H 	0.2274	0.9645	0.0992	0.036
Mof_H 	H 	0.2205	0.0339	0.1666	0.163
Mof_H 	H 	0.1333	0.7257	0.122	0.031
Mof_H 	H 	0.8469	0.4222	0.0408	0.111
Mof_H 	H 	0.908	0.4934	0.111	0.106
Mof_H 	H 	0.0218	0.245	0.1812	-0.031
Mof_H 	H 	0.9697	0.3192	0.1424	0.045
Mof_H 	H 	0.7974	0.1565	0.0364	0.077
Mof_H 	H 	0.8718	0.1347	0.0992	0.033
Mof_H 	H 	0.9461	0.1327	0.1666	0.187
Mof_H 	H 	0.9887	0.3963	0.122	0.055
Mof_H 	H 	0.3814	0.8061	0.9592	0.101
Mof_H 	H 	0.3824	0.797	0.889	0.122
Mof_H 	H 	0.0638	0.8406	0.8188	0.009
Mof_H 	H 	0.1768	0.8273	0.8576	0.052
Mof_H 	H 	0.1201	0.761	0.9636	0.065
Mof_H 	H 	0.0355	0.7726	0.9008	0.036
Mof_H 	H 	0.9661	0.7795	0.8334	0.163
Mof_H 	H 	0.2743	0.8667	0.878	0.031
Mof_H 	H 	0.5778	0.1531	0.9592	0.111
Mof_H 	H 	0.5066	0.092	0.889	0.106
Mof_H 	H 	0.755	0.9782	0.8188	-0.031
Mof_H 	H 	0.6808	0.0303	0.8576	0.045
Mof_H 	H 	0.8435	0.2026	0.9636	0.077
Mof_H 	H 	0.8653	0.1282	0.9008	0.033
Mof_H 	H 	0.8673	0.0539	0.8334	0.187
Mof_H 	H 	0.6037	0.0113	0.878	0.055
Mof_H 	H 	0.4031	0.1314	0.4592	0.12
Mof_H 	H 	0.342	0.1324	0.389	0.112
Mof_H 	H 	0.2282	0.8138	0.3188	-0.017
Mof_H 	H 	0.2803	0.9268	0.3576	0.027
Mof_H 	H 	0.4526	0.8701	0.4636	0.083
Mof_H 	H 	0.3782	0.7855	0.4008	0.023
Mof_H 	H 	0.3039	0.7161	0.3334	0.188
Mof_H 	H 	0.2613	0.0243	0.378	0.056
Mof_H 	H 	0.0561	0.3278	0.4592	0.102
Mof_H 	H 	0.047	0.2566	0.389	0.121
Mof_H 	H 	0.0906	0.505	0.3188	-0.008
Mof_H 	H 	0.0773	0.4308	0.3576	0.047
Mof_H 	H 	0.011	0.5935	0.4636	0.066
Mof_H 	H 	0.0226	0.6153	0.4008	0.032
Mof_H 	H 	0.0295	0.6173	0.3334	0.179
Mof_H 	H 	0.1167	0.3537	0.378	0.035
Mof_C 	C 	0.4085	0.9266	0.7156	0.486
Mof_C 	C 	0.61643	0.93853	0.58046	0.032
Mof_C 	C 	0.62965	0.95005	0.5441	-0.151
Mof_C 	C 	0.57979	0.97069	0.51258	0.17
Mof_C 	C 	0.51691	0.97981	0.51742	-0.035
Mof_C 	C 	0.50378	0.96828	0.55376	0.044
Mof_C 	C 	0.55354	0.94764	0.58528	-0.02
Mof_C 	C 	0.7751	0.8972	0.6586	0.39
Mof_C 	C 	0.72552	0.92542	0.62324	-0.211
Mof_C 	C 	0.4628	0.9328	0.666	0.176
Mof_C 	C 	0.53674	0.93794	0.62128	-0.034
Mof_C 	C 	0.4764	0.9491	0.6274	-0.048
Mof_C 	C 	0.44056	0.97726	0.55872	-0.081
Mof_C 	C 	0.42681	0.96931	0.59562	-0.006
Mof_C 	C 	0.41548	0.94608	0.68016	-0.398
Mof_C 	C 	0.66327	0.91267	0.61054	0.039
Mof_C 	C 	0.3071	0.789	0.7156	0.494
Mof_C 	C 	0.96403	0.64193	0.58046	0.1
Mof_C 	C 	0.91445	0.59405	0.5441	-0.197
Mof_C 	C 	0.93279	0.54189	0.51258	0.224
Mof_C 	C 	0.00051	0.53761	0.51742	-0.092
Mof_C 	C 	0.04998	0.58548	0.55376	0.095
Mof_C 	C 	0.03174	0.63764	0.58528	-0.086
Mof_C 	C 	0.8835	0.7614	0.6586	0.381
Mof_C 	C 	0.89772	0.69782	0.62324	-0.177
Mof_C 	C 	0.2032	0.7332	0.666	0.201
Mof_C 	C 	0.08454	0.68334	0.62128	0.01
Mof_C 	C 	0.151	0.6783	0.6274	-0.081
Mof_C 	C 	0.11816	0.58146	0.55872	-0.119
Mof_C 	C 	0.16881	0.62631	0.59562	0.028
Mof_C 	C 	0.26468	0.73408	0.68016	-0.417
Mof_C 	C 	0.94727	0.69787	0.61054	-0.007
Mof_C 	C 	0.1766	0.0571	0.2156	0.46
Mof_C 	C 	0.18853	0.71403	0.08046	0.028
Mof_C 	C 	0.20005	0.66445	0.0441	-0.151
Mof_C 	C 	0.22069	0.68279	0.01258	0.175
Mof_C 	C 	0.22981	0.75051	0.01742	-0.045
Mof_C 	C 	0.21828	0.79998	0.05376	0.044
Mof_C 	C 	0.19764	0.78174	0.08528	-0.013
Mof_C 	C 	0.1472	0.6335	0.1586	0.392
Mof_C 	C 	0.17542	0.64772	0.12324	-0.215
Mof_C 	C 	0.1828	0.9532	0.166	0.108
Mof_C 	C 	0.18794	0.83454	0.12128	-0.051
Mof_C 	C 	0.1991	0.901	0.1274	-0.022
Mof_C 	C 	0.22726	0.86816	0.05872	-0.073
Mof_C 	C 	0.21931	0.91881	0.09562	-0.023
Mof_C 	C 	0.19608	0.01468	0.18016	-0.326
Mof_C 	C 	0.16267	0.69727	0.11054	0.043
Mof_C 	C 	0.039	0.1585	0.2156	0.475
Mof_C 	C 	0.89193	0.36643	0.08046	0.062
Mof_C 	C 	0.84405	0.37965	0.0441	-0.169
Mof_C 	C 	0.79189	0.32979	0.01258	0.185
Mof_C 	C 	0.78761	0.26691	0.01742	-0.052
Mof_C 	C 	0.83548	0.25378	0.05376	0.065
Mof_C 	C 	0.88764	0.30354	0.08528	-0.039
Mof_C 	C 	0.0114	0.5251	0.1586	0.345
Mof_C 	C 	0.94782	0.47552	0.12324	-0.157
Mof_C 	C 	0.9832	0.2128	0.166	0.216
Mof_C 	C 	0.93334	0.28674	0.12128	-0.012
Mof_C 	C 	0.9283	0.2264	0.1274	-0.064
Mof_C 	C 	0.83146	0.19056	0.05872	-0.094
Mof_C 	C 	0.87631	0.17681	0.09562	0.013
Mof_C 	C 	0.98408	0.16548	0.18016	-0.394
Mof_C 	C 	0.94787	0.41327	0.11054	-0.002
Mof_C 	C 	0.9429	0.8234	0.7844	0.46
Mof_C 	C 	0.28597	0.81147	0.91954	0.028
Mof_C 	C 	0.33555	0.79995	0.9559	-0.151
Mof_C 	C 	0.31721	0.77931	0.98742	0.175
Mof_C 	C 	0.24949	0.77019	0.98258	-0.045
Mof_C 	C 	0.20002	0.78172	0.94624	0.044
Mof_C 	C 	0.21826	0.80236	0.91472	-0.013
Mof_C 	C 	0.3665	0.8528	0.8414	0.392
Mof_C 	C 	0.35228	0.82458	0.87676	-0.215
Mof_C 	C 	0.0468	0.8172	0.834	0.108
Mof_C 	C 	0.16546	0.81206	0.87872	-0.051
Mof_C 	C 	0.099	0.8009	0.8726	-0.022
Mof_C 	C 	0.13184	0.77274	0.94128	-0.073
Mof_C 	C 	0.08119	0.78069	0.90438	-0.023
Mof_C 	C 	0.98532	0.80392	0.81984	-0.326
Mof_C 	C 	0.30273	0.83733	0.88946	0.043
Mof_C 	C 	0.8415	0.961	0.7844	0.475
Mof_C 	C 	0.63357	0.10807	0.91954	0.062
Mof_C 	C 	0.62035	0.15595	0.9559	-0.169
Mof_C 	C 	0.67021	0.20811	0.98742	0.185
Mof_C 	C 	0.73309	0.21239	0.98258	-0.052
Mof_C 	C 	0.74622	0.16452	0.94624	0.065
Mof_C 	C 	0.69646	0.11236	0.91472	-0.039
Mof_C 	C 	0.4749	0.9886	0.8414	0.345
Mof_C 	C 	0.52448	0.05218	0.87676	-0.157
Mof_C 	C 	0.7872	0.0168	0.834	0.216
Mof_C 	C 	0.71326	0.06666	0.87872	-0.012
Mof_C 	C 	0.7736	0.0717	0.8726	-0.064
Mof_C 	C 	0.80944	0.16854	0.94128	-0.094
Mof_C 	C 	0.82319	0.12369	0.90438	0.013
Mof_C 	C 	0.83452	0.01592	0.81984	-0.394
Mof_C 	C 	0.58673	0.05213	0.88946	-0.002
Mof_C 	C 	0.211	0.6929	0.2844	0.494
Mof_C 	C 	0.35807	0.03597	0.41954	0.1
Mof_C 	C 	0.40595	0.08555	0.4559	-0.197
Mof_C 	C 	0.45811	0.06721	0.48742	0.224
Mof_C 	C 	0.46239	0.99949	0.48258	-0.092
Mof_C 	C 	0.41452	0.95002	0.44624	0.095
Mof_C 	C 	0.36236	0.96826	0.41472	-0.086
Mof_C 	C 	0.2386	0.1165	0.3414	0.381
Mof_C 	C 	0.30218	0.10228	0.37676	-0.177
Mof_C 	C 	0.2668	0.7968	0.334	0.201
Mof_C 	C 	0.31666	0.91546	0.37872	0.01
Mof_C 	C 	0.3217	0.849	0.3726	-0.081
Mof_C 	C 	0.41854	0.88184	0.44128	-0.119
Mof_C 	C 	0.37369	0.83119	0.40438	0.028
Mof_C 	C 	0.26592	0.73532	0.31984	-0.417
Mof_C 	C 	0.30213	0.05273	0.38946	-0.007
Mof_C 	C 	0.0734	0.5915	0.2844	0.486
Mof_C 	C 	0.06147	0.38357	0.41954	0.032
Mof_C 	C 	0.04995	0.37035	0.4559	-0.151
Mof_C 	C 	0.02931	0.42021	0.48742	0.17
Mof_C 	C 	0.02019	0.48309	0.48258	-0.035
Mof_C 	C 	0.03172	0.49622	0.44624	0.044
Mof_C 	C 	0.05236	0.44646	0.41472	-0.02
Mof_C 	C 	0.1028	0.2249	0.3414	0.39
Mof_C 	C 	0.07458	0.27448	0.37676	-0.211
Mof_C 	C 	0.0672	0.5372	0.334	0.176
Mof_C 	C 	0.06206	0.46326	0.37872	-0.034
Mof_C 	C 	0.0509	0.5236	0.3726	-0.048
Mof_C 	C 	0.02274	0.55944	0.44128	-0.081
Mof_C 	C 	0.03069	0.57319	0.40438	-0.006
Mof_C 	C 	0.05392	0.58452	0.31984	-0.398
Mof_C 	C 	0.08733	0.33673	0.38946	0.039
Mof_O 	O 	0.84014	0.92514	0.67408	-0.382
Mof_O 	O 	0.44973	0.89113	0.73586	-0.427
Mof_O 	O 	0.36064	0.94304	0.73068	-0.441
Mof_O 	O 	0.75724	0.85464	0.67028	-0.436
Mof_O 	O 	0.59602	0.98342	0.47924	-0.181
Mof_O 	O 	0.83394	0.74894	0.67408	-0.378
Mof_O 	O 	0.28613	0.84473	0.73586	-0.43
Mof_O 	O 	0.37004	0.78764	0.73068	-0.439
Mof_O 	O 	0.91304	0.81564	0.67028	-0.431
Mof_O 	O 	0.88322	0.49582	0.47924	-0.181
Mof_O 	O 	0.17514	0.58394	0.17408	-0.383
Mof_O 	O 	0.14113	0.03613	0.23586	-0.416
Mof_O 	O 	0.19304	0.12004	0.23068	-0.428
Mof_O 	O 	0.10464	0.66304	0.17028	-0.441
Mof_O 	O 	0.23342	0.63322	0.97924	-0.18
Mof_O 	O 	0.99894	0.59014	0.17408	-0.354
Mof_O 	O 	0.09473	0.19973	0.23586	-0.425
Mof_O 	O 	0.03764	0.11064	0.23068	-0.436
Mof_O 	O 	0.06564	0.50724	0.17028	-0.427
Mof_O 	O 	0.74582	0.34602	0.97924	-0.179
Mof_O 	O 	0.41606	0.82486	0.82592	-0.383
Mof_O 	O 	0.96387	0.85887	0.76414	-0.416
Mof_O 	O 	0.87996	0.80696	0.76932	-0.428
Mof_O 	O 	0.33696	0.89536	0.82972	-0.441
Mof_O 	O 	0.36678	0.76658	0.02076	-0.18
Mof_O 	O 	0.40986	0.00106	0.82592	-0.354
Mof_O 	O 	0.80027	0.90527	0.76414	-0.425
Mof_O 	O 	0.88936	0.96236	0.76932	-0.436
Mof_O 	O 	0.49276	0.93436	0.82972	-0.427
Mof_O 	O 	0.65398	0.25418	0.02076	-0.179
Mof_O 	O 	0.25106	0.16606	0.32592	-0.378
Mof_O 	O 	0.15527	0.71387	0.26414	-0.43
Mof_O 	O 	0.21236	0.62996	0.26932	-0.439
Mof_O 	O 	0.18436	0.08696	0.32972	-0.431
Mof_O 	O 	0.50418	0.11678	0.52076	-0.181
Mof_O 	O 	0.07486	0.15986	0.32592	-0.382
Mof_O 	O 	0.10887	0.55027	0.26414	-0.427
Mof_O 	O 	0.05696	0.63936	0.26932	-0.441
Mof_O 	O 	0.14536	0.24276	0.32972	-0.436
Mof_O 	O 	0.01658	0.40398	0.52076	-0.181
_end
