data_functionalizedCrystal
_audit_creation_method	'EQeq! by Chris Wilmer'
_symmetry_space_group_name_H-M	'P1'
_symmetry_Int_Tables_number	1
_symmetry_cell_setting	triclinic
loop_
_symmetry_equiv_pos_as_xyz
  x,y,z
_cell_length_a	9.725
_cell_length_b	14.654
_cell_length_c	19.736
_cell_angle_alpha	80.5
_cell_angle_beta	77.2
_cell_angle_gamma	81.7
loop_
_atom_site_label
_atom_site_type_symbol
_atom_site_fract_x
_atom_site_fract_y
_atom_site_fract_z
_atom_site_charge
Mof_Cd	Cd	0.46414	0.06293	0.19358	0.443
Mof_Cd	Cd	0.16578	0.23162	0.24784	0.481
Mof_O 	O 	0.2798	0.0557	0.14228	-0.287
Mof_O 	O 	0.0847	0.142	0.18972	-0.293
Mof_O 	O 	0.5367	0.1781	0.10921	-0.299
Mof_O 	O 	0.3746	0.263	0.17643	-0.29
Mof_O 	O 	0.2994	0.1028	0.2953	-0.287
Mof_O 	O 	0.3603	0.9533	0.29089	-0.266
Mof_O 	O 	0.9912	0.2671	0.35197	-0.268
Mof_O 	O 	0.1938	0.3246	0.3243	-0.273
Mof_N 	N 	0.0353	0.358	0.191	-0.181
Mof_N 	N 	0.5896	0.9437	0.13619	-0.193
Mof_C 	C 	0.1529	0.0876	0.1477	0.314
Mof_C 	C 	0.0721	0.06	0.09849	-0.068
Mof_C 	C 	0.9287	0.0975	0.0988	0.003
Mof_H 	H 	0.8802	0.1359	0.1331	0.043
Mof_C 	C 	0.1398	0.0018	0.0506	-0.051
Mof_H 	H 	0.2347	0.9754	0.0514	0.065
Mof_C 	C 	0.0705	0.9802	7e-05	0.03
Mof_C 	C 	0.8605	0.0786	0.0502	-0.089
Mof_H 	H 	0.7655	0.1053	0.0502	0.073
Mof_C 	C 	0.4434	0.5028	0.0293	0.017
Mof_C 	C 	0.4185	0.4232	0.0792	-0.049
Mof_H 	H 	0.3447	0.4273	0.1195	0.058
Mof_C 	C 	0.5004	0.3391	0.07	-0.078
Mof_C 	C 	0.6117	0.3342	0.0116	-0.001
Mof_H 	H 	0.6682	0.2765	0.0053	0.036
Mof_C 	C 	0.6408	0.411	0.9633	-0.088
Mof_H 	H 	0.7181	0.4063	0.9246	0.059
Mof_C 	C 	0.4668	0.2545	0.1221	0.31
Mof_C 	C 	0.0496	0.884	0.4697	-0.074
Mof_H 	H 	0.0257	0.8221	0.4837	0.065
Mof_C 	C 	0.1489	0.9043	0.4101	0.001
Mof_H 	H 	0.195	0.8561	0.3834	0.047
Mof_C 	C 	0.1834	0.9958	0.38792	-0.052
Mof_C 	C 	0.12	0.064	0.42735	-0.045
Mof_H 	H 	0.1455	0.1254	0.4127	0.069
Mof_C 	C 	0.0175	0.046	0.48944	0.032
Mof_C 	C 	0.2876	0.0173	0.3207	0.294
Mof_C 	C 	0.11	0.4439	0.4238	-0.047
Mof_H 	H 	0.199	0.4483	0.3925	0.064
Mof_C 	C 	0.0269	0.3813	0.4177	-0.055
Mof_C 	C 	0.8942	0.3742	0.4632	-0.006
Mof_H 	H 	0.8362	0.3298	0.4582	0.048
Mof_C 	C 	0.8472	0.4305	0.5148	-0.076
Mof_H 	H 	0.7568	0.4255	0.5448	0.061
Mof_C 	C 	0.9334	0.4956	0.5232	0.026
Mof_C 	C 	0.0727	0.3199	0.3605	0.296
Mof_C 	C 	0.0342	0.4439	0.2027	0.166
Mof_H 	H 	0.0985	0.4551	0.2295	-0.013
Mof_C 	C 	0.9481	0.5169	0.1792	-0.284
Mof_H 	H 	0.9496	0.5766	0.1917	0.126
Mof_C 	C 	0.8582	0.5058	0.1375	0.277
Mof_C 	C 	0.8575	0.4179	0.124	-0.272
Mof_H 	H 	0.7961	0.4057	0.0961	0.125
Mof_C 	C 	0.9481	0.3459	0.1517	0.152
Mof_H 	H 	0.9469	0.2848	0.1417	-0.01
Mof_C 	C 	0.765	0.5868	0.1049	-0.455
Mof_H 	H 	0.7134	0.6255	0.1412	0.164
Mof_H 	H 	0.6944	0.5625	0.0854	0.163
Mof_C 	C 	0.8622	0.6479	0.0444	0.402
Mof_H 	H 	0.9425	0.6603	0.0636	-0.087
Mof_H 	H 	0.9028	0.6091	0.0066	-0.087
Mof_C 	C 	0.8082	0.7272	0.0155	-0.604
Mof_H 	H 	0.7405	0.7134	0.9888	0.2
Mof_H 	H 	0.8862	0.7551	0.9807	0.203
Mof_C 	C 	0.7319	0.8021	0.0598	0.352
Mof_C 	C 	0.7778	0.8242	0.1152	-0.329
Mof_H 	H 	0.8606	0.7903	0.1287	0.144
Mof_C 	C 	0.7059	0.8945	0.1512	0.188
Mof_H 	H 	0.7417	0.9084	0.1889	-0.026
Mof_C 	C 	0.5463	0.9218	0.0815	0.19
Mof_H 	H 	0.4653	0.9578	0.0676	-0.018
Mof_C 	C 	0.6109	0.8514	0.045	-0.339
Mof_H 	H 	0.5712	0.8367	0.0088	0.153
Mof_Cd	Cd	0.53586	0.93707	0.80642	0.443
Mof_Cd	Cd	0.83422	0.76838	0.75216	0.481
Mof_O 	O 	0.7202	0.9443	0.85772	-0.287
Mof_O 	O 	0.9153	0.858	0.81028	-0.293
Mof_O 	O 	0.4633	0.8219	0.89079	-0.299
Mof_O 	O 	0.6254	0.737	0.82357	-0.29
Mof_O 	O 	0.7006	0.8972	0.7047	-0.287
Mof_O 	O 	0.6397	0.0467	0.70911	-0.266
Mof_O 	O 	0.0088	0.7329	0.64803	-0.268
Mof_O 	O 	0.8062	0.6754	0.6757	-0.273
Mof_N 	N 	0.9647	0.642	0.809	-0.181
Mof_N 	N 	0.4104	0.0563	0.86381	-0.193
Mof_C 	C 	0.8471	0.9124	0.8523	0.314
Mof_C 	C 	0.9279	0.94	0.90151	-0.068
Mof_C 	C 	0.0713	0.9025	0.9012	0.003
Mof_H 	H 	0.1198	0.8641	0.8669	0.043
Mof_C 	C 	0.8602	0.9982	0.9494	-0.051
Mof_H 	H 	0.7653	0.0246	0.9486	0.065
Mof_C 	C 	0.9295	0.0198	0.99993	0.03
Mof_C 	C 	0.1395	0.9214	0.9498	-0.089
Mof_H 	H 	0.2345	0.8947	0.9498	0.073
Mof_C 	C 	0.5566	0.4972	0.9707	0.017
Mof_C 	C 	0.5815	0.5768	0.9208	-0.049
Mof_H 	H 	0.6553	0.5727	0.8805	0.058
Mof_C 	C 	0.4996	0.6609	0.93	-0.078
Mof_C 	C 	0.3883	0.6658	0.9884	-0.001
Mof_H 	H 	0.3318	0.7235	0.9947	0.036
Mof_C 	C 	0.3592	0.589	0.0367	-0.088
Mof_H 	H 	0.2819	0.5937	0.0754	0.059
Mof_C 	C 	0.5332	0.7455	0.8779	0.31
Mof_C 	C 	0.9504	0.116	0.5303	-0.074
Mof_H 	H 	0.9743	0.1779	0.5163	0.065
Mof_C 	C 	0.8511	0.0957	0.5899	0.001
Mof_H 	H 	0.805	0.1439	0.6166	0.047
Mof_C 	C 	0.8166	0.0042	0.61208	-0.052
Mof_C 	C 	0.88	0.936	0.57265	-0.045
Mof_H 	H 	0.8545	0.8746	0.5873	0.069
Mof_C 	C 	0.9825	0.954	0.51056	0.032
Mof_C 	C 	0.7124	0.9827	0.6793	0.294
Mof_C 	C 	0.89	0.5561	0.5762	-0.047
Mof_H 	H 	0.801	0.5517	0.6075	0.064
Mof_C 	C 	0.9731	0.6187	0.5823	-0.055
Mof_C 	C 	0.1058	0.6258	0.5368	-0.006
Mof_H 	H 	0.1638	0.6702	0.5418	0.048
Mof_C 	C 	0.1528	0.5695	0.4852	-0.076
Mof_H 	H 	0.2432	0.5745	0.4552	0.061
Mof_C 	C 	0.0666	0.5044	0.4768	0.026
Mof_C 	C 	0.9273	0.6801	0.6395	0.296
Mof_C 	C 	0.9658	0.5561	0.7973	0.166
Mof_H 	H 	0.9015	0.5449	0.7705	-0.013
Mof_C 	C 	0.0519	0.4831	0.8208	-0.284
Mof_H 	H 	0.0504	0.4234	0.8083	0.126
Mof_C 	C 	0.1418	0.4942	0.8625	0.277
Mof_C 	C 	0.1425	0.5821	0.876	-0.272
Mof_H 	H 	0.2039	0.5943	0.9039	0.125
Mof_C 	C 	0.0519	0.6541	0.8483	0.152
Mof_H 	H 	0.0531	0.7152	0.8583	-0.01
Mof_C 	C 	0.235	0.4132	0.8951	-0.455
Mof_H 	H 	0.2866	0.3745	0.8588	0.164
Mof_H 	H 	0.3056	0.4375	0.9146	0.163
Mof_C 	C 	0.1378	0.3521	0.9556	0.402
Mof_H 	H 	0.0575	0.3397	0.9364	-0.087
Mof_H 	H 	0.0972	0.3909	0.9934	-0.087
Mof_C 	C 	0.1918	0.2728	0.9845	-0.604
Mof_H 	H 	0.2595	0.2866	0.0112	0.2
Mof_H 	H 	0.1138	0.2449	0.0193	0.203
Mof_C 	C 	0.2681	0.1979	0.9402	0.352
Mof_C 	C 	0.2222	0.1758	0.8848	-0.329
Mof_H 	H 	0.1394	0.2097	0.8713	0.144
Mof_C 	C 	0.2941	0.1055	0.8488	0.188
Mof_H 	H 	0.2583	0.0916	0.8111	-0.026
Mof_C 	C 	0.4537	0.0782	0.9185	0.19
Mof_H 	H 	0.5347	0.0422	0.9324	-0.018
Mof_C 	C 	0.3891	0.1486	0.955	-0.339
Mof_H 	H 	0.4288	0.1633	0.9912	0.153
_end
