data_functionalizedCrystal
_audit_creation_method	'EQeq! by Chris Wilmer'
_symmetry_space_group_name_H-M	'P1'
_symmetry_Int_Tables_number	1
_symmetry_cell_setting	triclinic
loop_
_symmetry_equiv_pos_as_xyz
  x,y,z
_cell_length_a	12.287
_cell_length_b	12.916
_cell_length_c	18.199
_cell_angle_alpha	86.733
_cell_angle_beta	70.443
_cell_angle_gamma	80.146
loop_
_atom_site_label
_atom_site_type_symbol
_atom_site_fract_x
_atom_site_fract_y
_atom_site_fract_z
_atom_site_charge
Mof_Cu	Cu	0.4707	0.36855	0.83854	0.867
Mof_Cu	Cu	0.72428	0.22262	0.83746	0.861
Mof_Cu	Cu	0.64441	0.25428	0.67521	0.872
Mof_Cu	Cu	0.5293	0.63145	0.16146	0.867
Mof_Cu	Cu	0.27572	0.77738	0.16254	0.861
Mof_Cu	Cu	0.35559	0.74572	0.32479	0.872
Mof_H 	H 	0.2543	0.2719	0.8997	-0.02
Mof_H 	H 	0.0562	0.3234	0.9652	0.068
Mof_H 	H 	0.1111	0.619	0.9768	0.068
Mof_H 	H 	0.3092	0.5675	0.9112	0.025
Mof_H 	H 	0.4847	0.109	0.6948	-0.025
Mof_H 	H 	0.4205	0.0011	0.6258	0.076
Mof_H 	H 	0.6412	0.0941	0.4248	0.084
Mof_H 	H 	0.7054	0.2021	0.4938	0.039
Mof_H 	H 	0.9135	0.2254	0.562	0.03
Mof_H 	H 	0.0593	0.3251	0.5017	0.079
Mof_H 	H 	0.8196	0.5879	0.548	0.08
Mof_H 	H 	0.6738	0.4882	0.6083	0.022
Mof_H 	H 	0.8122	0.0404	0.587	0.084
Mof_H 	H 	0.9447	0.0302	0.7648	0.073
Mof_H 	H 	0.6943	0.2682	0.0206	0.067
Mof_H 	H 	0.3737	0.4212	0.0258	0.068
Mof_H 	H 	0.674	0.38	0.763	0.156
Mof_H 	H 	0.2925	0.5122	0.7665	0.067
Mof_H 	H 	0.5073	0.3989	0.5613	0.097
Mof_H 	H 	0.7303	0.0429	0.929	-0.037
Mof_H 	H 	0.8223	0.9526	0.0137	0.071
Mof_H 	H 	0.0751	0.1207	0.9169	0.075
Mof_H 	H 	0.9344	0.2402	0.8805	-0.03
Mof_H 	H 	0.7457	0.7281	0.1003	-0.021
Mof_H 	H 	0.9438	0.6766	0.0348	0.067
Mof_H 	H 	0.8889	0.381	0.0232	0.068
Mof_H 	H 	0.6908	0.4325	0.0888	0.025
Mof_H 	H 	0.5153	0.891	0.3052	-0.025
Mof_H 	H 	0.5795	0.9989	0.3742	0.076
Mof_H 	H 	0.3588	0.9059	0.5752	0.084
Mof_H 	H 	0.2946	0.7979	0.5062	0.039
Mof_H 	H 	0.0865	0.7746	0.438	0.03
Mof_H 	H 	0.9407	0.6749	0.4983	0.079
Mof_H 	H 	0.1804	0.4121	0.452	0.08
Mof_H 	H 	0.3262	0.5118	0.3917	0.022
Mof_H 	H 	0.1878	0.9596	0.413	0.084
Mof_H 	H 	0.0553	0.9698	0.2352	0.073
Mof_H 	H 	0.3057	0.7318	0.9794	0.067
Mof_H 	H 	0.6263	0.5788	0.9742	0.068
Mof_H 	H 	0.326	0.62	0.237	0.156
Mof_H 	H 	0.7075	0.4878	0.2335	0.067
Mof_H 	H 	0.4927	0.6011	0.4387	0.097
Mof_H 	H 	0.2697	0.9571	0.071	-0.037
Mof_H 	H 	0.1777	0.0474	0.9863	0.071
Mof_H 	H 	0.9249	0.8793	0.0831	0.075
Mof_H 	H 	0.0656	0.7598	0.1195	-0.03
Mof_C 	C 	0.2256	0.3415	0.9151	0.052
Mof_C 	C 	0.1069	0.3723	0.9544	-0.117
Mof_C 	C 	0.064	0.4763	0.9775	0.049
Mof_C 	C 	0.1398	0.5495	0.9613	-0.109
Mof_C 	C 	0.2585	0.5186	0.922	0.042
Mof_C 	C 	0.5161	0.106	0.6407	0.058
Mof_C 	C 	0.4776	0.0414	0.5993	-0.116
Mof_C 	C 	0.5245	0.0369	0.5185	0.055
Mof_C 	C 	0.6098	0.0971	0.4789	-0.106
Mof_C 	C 	0.6483	0.1618	0.5203	0.058
Mof_C 	C 	0.8947	0.298	0.5592	0.057
Mof_C 	C 	0.982	0.3578	0.5231	-0.097
Mof_C 	C 	0.9539	0.4664	0.5188	0.057
Mof_C 	C 	0.8384	0.5152	0.5508	-0.099
Mof_C 	C 	0.7511	0.4555	0.5869	0.061
Mof_C 	C 	0.8251	0.0569	0.6322	-0.076
Mof_C 	C 	0.9088	0.9995	0.6636	0.204
Mof_C 	C 	0.9	0.0512	0.7326	-0.083
Mof_C 	C 	0.6305	0.2972	0.0054	-0.082
Mof_C 	C 	0.5228	0.3527	0.0543	0.19
Mof_C 	C 	0.4494	0.3837	0.0083	-0.079
Mof_C 	C 	0.3581	0.4807	0.727	-0.055
Mof_C 	C 	0.3753	0.496	0.6433	0.226
Mof_C 	C 	0.472	0.415	0.6139	-0.093
Mof_C 	C 	0.7952	0.066	0.9338	0.103
Mof_C 	C 	0.8539	0.007	0.9824	-0.136
Mof_C 	C 	0.9635	0.0336	0.9813	0.062
Mof_C 	C 	0.998	0.109	0.9316	-0.149
Mof_C 	C 	0.9177	0.174	0.9	0.107
Mof_C 	C 	0.7744	0.6585	0.0849	0.052
Mof_C 	C 	0.8931	0.6277	0.0456	-0.117
Mof_C 	C 	0.936	0.5237	0.0225	0.049
Mof_C 	C 	0.8602	0.4505	0.0387	-0.109
Mof_C 	C 	0.7415	0.4814	0.078	0.042
Mof_C 	C 	0.4839	0.894	0.3593	0.058
Mof_C 	C 	0.5224	0.9586	0.4007	-0.116
Mof_C 	C 	0.4755	0.9631	0.4815	0.055
Mof_C 	C 	0.3902	0.9029	0.5211	-0.106
Mof_C 	C 	0.3517	0.8382	0.4797	0.058
Mof_C 	C 	0.1053	0.702	0.4408	0.057
Mof_C 	C 	0.018	0.6422	0.4769	-0.097
Mof_C 	C 	0.0461	0.5336	0.4812	0.057
Mof_C 	C 	0.1616	0.4848	0.4492	-0.099
Mof_C 	C 	0.2489	0.5445	0.4131	0.061
Mof_C 	C 	0.1749	0.9431	0.3678	-0.076
Mof_C 	C 	0.0912	0.0005	0.3364	0.204
Mof_C 	C 	0.1	0.9488	0.2674	-0.083
Mof_C 	C 	0.3695	0.7028	0.9946	-0.082
Mof_C 	C 	0.4772	0.6473	0.9457	0.19
Mof_C 	C 	0.5506	0.6163	0.9917	-0.079
Mof_C 	C 	0.6419	0.5193	0.273	-0.055
Mof_C 	C 	0.6247	0.504	0.3567	0.226
Mof_C 	C 	0.528	0.585	0.3861	-0.093
Mof_C 	C 	0.2048	0.934	0.0662	0.103
Mof_C 	C 	0.1461	0.993	0.0176	-0.136
Mof_C 	C 	0.0365	0.9664	0.0187	0.062
Mof_C 	C 	0.002	0.891	0.0684	-0.149
Mof_C 	C 	0.0823	0.826	0.1	0.107
Mof_N 	N 	0.3014	0.4146	0.899	-0.223
Mof_N 	N 	0.6014	0.1662	0.6012	-0.214
Mof_N 	N 	0.7792	0.3469	0.5911	-0.182
Mof_N 	N 	0.8108	0.1405	0.7439	-0.193
Mof_N 	N 	0.7646	0.1441	0.6819	-0.195
Mof_N 	N 	0.5117	0.3474	0.9311	-0.194
Mof_N 	N 	0.6237	0.2939	0.9293	-0.198
Mof_N 	N 	0.5124	0.3592	0.6765	-0.188
Mof_N 	N 	0.4446	0.4181	0.7397	-0.174
Mof_N 	N 	0.8262	0.1472	0.8975	-0.258
Mof_N 	N 	0.6986	0.5854	0.101	-0.223
Mof_N 	N 	0.3986	0.8338	0.3988	-0.214
Mof_N 	N 	0.2208	0.6531	0.4089	-0.182
Mof_N 	N 	0.1892	0.8595	0.2561	-0.193
Mof_N 	N 	0.2354	0.8559	0.3181	-0.195
Mof_N 	N 	0.4883	0.6526	0.0689	-0.194
Mof_N 	N 	0.3763	0.7061	0.0707	-0.198
Mof_N 	N 	0.4876	0.6408	0.3235	-0.188
Mof_N 	N 	0.5554	0.5819	0.2603	-0.174
Mof_N 	N 	0.1738	0.8528	0.1025	-0.258
Mof_Cl	Cl	0.489	0.3685	0.1508	-0.408
Mof_Cl	Cl	0.007	0.9006	0.6178	-0.351
Mof_Cl	Cl	0.2994	0.5583	0.5957	-0.372
Mof_Cl	Cl	0.511	0.6315	0.8492	-0.408
Mof_Cl	Cl	0.993	0.0994	0.3822	-0.351
Mof_Cl	Cl	0.7006	0.4417	0.4043	-0.372
Mof_O 	O 	0.6357	0.3177	0.777	-0.65
Mof_O 	O 	0.3643	0.6823	0.223	-0.65
_end
