data_functionalizedCrystal
_audit_creation_method	'EQeq! by Chris Wilmer'
_symmetry_space_group_name_H-M	'P1'
_symmetry_Int_Tables_number	1
_symmetry_cell_setting	triclinic
loop_
_symmetry_equiv_pos_as_xyz
  x,y,z
_cell_length_a	11.868
_cell_length_b	14.931
_cell_length_c	17.741
_cell_angle_alpha	90
_cell_angle_beta	90
_cell_angle_gamma	90
loop_
_atom_site_label
_atom_site_type_symbol
_atom_site_fract_x
_atom_site_fract_y
_atom_site_fract_z
_atom_site_charge
Mof_Mo	Mo	0.29045	0.11916	0.63722	0.967
Mof_Cu	Cu	0.2904	0.86067	0.43014	0.829
Mof_N 	N 	0.2588	0.98066	0.4931	-0.196
Mof_N 	N 	0.0816	0.98841	0.6912	-0.228
Mof_N 	N 	0.0903	0.2504	0.70009	-0.229
Mof_N 	N 	0.224	0.2611	0.50229	-0.219
Mof_N 	N 	0.4202	0.93601	0.69443	-0.206
Mof_N 	N 	0.3013	0.1102	0.82185	-0.219
Mof_N 	N 	0.4196	0.3023	0.69456	-0.207
Mof_N 	N 	0.5437	0.1316	0.56187	-0.194
Mof_C 	C 	0.2674	0.031	0.5416	-0.14
Mof_C 	C 	0.151	0.0342	0.668	-0.146
Mof_C 	C 	0.1571	0.2037	0.6762	-0.144
Mof_C 	C 	0.2457	0.209	0.5468	-0.139
Mof_C 	C 	0.3766	0.9991	0.6714	-0.12
Mof_C 	C 	0.3024	0.1138	0.7581	-0.131
Mof_C 	C 	0.3748	0.2392	0.6733	-0.126
Mof_C 	C 	0.4539	0.1258	0.5846	-0.125
Mof_Mo	Mo	0.20955	0.38084	0.13722	0.999
Mof_Cu	Cu	0.2096	0.63933	0.93014	0.83
Mof_N 	N 	0.2412	0.51934	0.9931	-0.198
Mof_N 	N 	0.4184	0.51159	0.1912	-0.205
Mof_N 	N 	0.4097	0.2496	0.20009	-0.207
Mof_N 	N 	0.276	0.2389	0.00229	-0.214
Mof_N 	N 	0.0798	0.56399	0.19443	-0.223
Mof_N 	N 	0.1987	0.3898	0.32185	-0.221
Mof_N 	N 	0.0804	0.1977	0.19456	-0.225
Mof_N 	N 	0.9563	0.3684	0.06187	-0.096
Mof_C 	C 	0.2326	0.469	0.0416	-0.134
Mof_C 	C 	0.349	0.4658	0.168	-0.132
Mof_C 	C 	0.3429	0.2963	0.1762	-0.132
Mof_C 	C 	0.2543	0.291	0.0468	-0.137
Mof_C 	C 	0.1234	0.5009	0.1714	-0.141
Mof_C 	C 	0.1976	0.3862	0.2581	-0.145
Mof_C 	C 	0.1252	0.2608	0.1733	-0.146
Mof_C 	C 	0.0461	0.3742	0.0846	-0.256
Mof_Mo	Mo	0.70955	0.11916	0.86278	0.973
Mof_Cu	Cu	0.7096	0.86067	0.06986	0.846
Mof_N 	N 	0.7412	0.98066	0.0069	-0.177
Mof_N 	N 	0.9184	0.98841	0.8088	-0.169
Mof_N 	N 	0.9097	0.2504	0.79991	-0.172
Mof_N 	N 	0.776	0.2611	0.99771	-0.207
Mof_N 	N 	0.5798	0.93601	0.80557	-0.205
Mof_N 	N 	0.6987	0.1102	0.67815	-0.206
Mof_N 	N 	0.5804	0.3023	0.80544	-0.206
Mof_N 	N 	0.4563	0.1316	0.93813	-0.197
Mof_C 	C 	0.7326	0.031	0.9584	-0.125
Mof_C 	C 	0.849	0.0342	0.832	-0.112
Mof_C 	C 	0.8429	0.2037	0.8238	-0.113
Mof_C 	C 	0.7543	0.209	0.9532	-0.118
Mof_C 	C 	0.6234	0.9991	0.8286	-0.119
Mof_C 	C 	0.6976	0.1138	0.7419	-0.118
Mof_C 	C 	0.6252	0.2392	0.8267	-0.125
Mof_C 	C 	0.5461	0.1258	0.9154	-0.129
Mof_Mo	Mo	0.79045	0.38084	0.36278	0.939
Mof_Cu	Cu	0.7904	0.63933	0.56986	0.844
Mof_N 	N 	0.7588	0.51934	0.5069	-0.183
Mof_N 	N 	0.5816	0.51159	0.3088	-0.207
Mof_N 	N 	0.5903	0.2496	0.29991	-0.209
Mof_N 	N 	0.724	0.2389	0.49771	-0.208
Mof_N 	N 	0.9202	0.56399	0.30557	-0.171
Mof_N 	N 	0.8013	0.3898	0.17815	-0.203
Mof_N 	N 	0.9196	0.1977	0.30544	-0.172
Mof_N 	N 	0.0437	0.3684	0.43813	-0.295
Mof_C 	C 	0.7674	0.469	0.4584	-0.12
Mof_C 	C 	0.651	0.4658	0.332	-0.124
Mof_C 	C 	0.6571	0.2963	0.3238	-0.123
Mof_C 	C 	0.7457	0.291	0.4532	-0.117
Mof_C 	C 	0.8766	0.5009	0.3286	-0.098
Mof_C 	C 	0.8024	0.3862	0.2419	-0.103
Mof_C 	C 	0.8748	0.2608	0.3267	-0.105
Mof_C 	C 	0.9539	0.3742	0.4154	0.01
Mof_Mo	Mo	0.70955	0.88084	0.36278	0.972
Mof_Cu	Cu	0.7096	0.13933	0.56986	0.846
Mof_N 	N 	0.7412	0.01934	0.5069	-0.179
Mof_N 	N 	0.9184	0.01159	0.3088	-0.169
Mof_N 	N 	0.9097	0.7496	0.29991	-0.172
Mof_N 	N 	0.776	0.7389	0.49771	-0.205
Mof_N 	N 	0.5798	0.06399	0.30557	-0.204
Mof_N 	N 	0.6987	0.8898	0.17815	-0.206
Mof_N 	N 	0.5804	0.6977	0.30544	-0.206
Mof_N 	N 	0.4563	0.8684	0.43813	-0.195
Mof_C 	C 	0.7326	0.969	0.4584	-0.121
Mof_C 	C 	0.849	0.9658	0.332	-0.112
Mof_C 	C 	0.8429	0.7963	0.3238	-0.112
Mof_C 	C 	0.7543	0.791	0.4532	-0.117
Mof_C 	C 	0.6234	0.0009	0.3286	-0.118
Mof_C 	C 	0.6976	0.8862	0.2419	-0.119
Mof_C 	C 	0.6252	0.7608	0.3267	-0.124
Mof_C 	C 	0.5461	0.8742	0.4154	-0.128
Mof_Mo	Mo	0.79045	0.61916	0.86278	0.94
Mof_Cu	Cu	0.7904	0.36067	0.06986	0.845
Mof_N 	N 	0.7588	0.48066	0.0069	-0.181
Mof_N 	N 	0.5816	0.48841	0.8088	-0.208
Mof_N 	N 	0.5903	0.7504	0.79991	-0.21
Mof_N 	N 	0.724	0.7611	0.99771	-0.209
Mof_N 	N 	0.9202	0.43601	0.80557	-0.17
Mof_N 	N 	0.8013	0.6102	0.67815	-0.203
Mof_N 	N 	0.9196	0.8023	0.80544	-0.172
Mof_N 	N 	0.0437	0.6316	0.93813	-0.297
Mof_C 	C 	0.7674	0.531	0.9584	-0.124
Mof_C 	C 	0.651	0.5342	0.832	-0.124
Mof_C 	C 	0.6571	0.7037	0.8238	-0.123
Mof_C 	C 	0.7457	0.709	0.9532	-0.118
Mof_C 	C 	0.8766	0.4991	0.8286	-0.098
Mof_C 	C 	0.8024	0.6138	0.7419	-0.103
Mof_C 	C 	0.8748	0.7392	0.8267	-0.105
Mof_C 	C 	0.9539	0.6258	0.9154	0.011
Mof_Mo	Mo	0.29045	0.88084	0.13722	0.966
Mof_Cu	Cu	0.2904	0.13933	0.93014	0.828
Mof_N 	N 	0.2588	0.01934	0.9931	-0.202
Mof_N 	N 	0.0816	0.01159	0.1912	-0.226
Mof_N 	N 	0.0903	0.7496	0.20009	-0.228
Mof_N 	N 	0.224	0.7389	0.00229	-0.217
Mof_N 	N 	0.4202	0.06399	0.19443	-0.206
Mof_N 	N 	0.3013	0.8898	0.32185	-0.219
Mof_N 	N 	0.4196	0.6977	0.19456	-0.207
Mof_N 	N 	0.5437	0.8684	0.06187	-0.194
Mof_C 	C 	0.2674	0.969	0.0416	-0.134
Mof_C 	C 	0.151	0.9658	0.168	-0.147
Mof_C 	C 	0.1571	0.7963	0.1762	-0.143
Mof_C 	C 	0.2457	0.791	0.0468	-0.138
Mof_C 	C 	0.3766	0.0009	0.1714	-0.118
Mof_C 	C 	0.3024	0.8862	0.2581	-0.131
Mof_C 	C 	0.3748	0.7608	0.1733	-0.125
Mof_C 	C 	0.4539	0.8742	0.0846	-0.125
Mof_Mo	Mo	0.20955	0.61916	0.63722	1.002
Mof_Cu	Cu	0.2096	0.36067	0.43014	0.831
Mof_N 	N 	0.2412	0.48066	0.4931	-0.192
Mof_N 	N 	0.4184	0.48841	0.6912	-0.205
Mof_N 	N 	0.4097	0.7504	0.70009	-0.208
Mof_N 	N 	0.276	0.7611	0.50229	-0.216
Mof_N 	N 	0.0798	0.43601	0.69443	-0.224
Mof_N 	N 	0.1987	0.6102	0.82185	-0.222
Mof_N 	N 	0.0804	0.8023	0.69456	-0.226
Mof_N 	N 	0.9563	0.6316	0.56187	-0.093
Mof_C 	C 	0.2326	0.531	0.5416	-0.141
Mof_C 	C 	0.349	0.5342	0.668	-0.133
Mof_C 	C 	0.3429	0.7037	0.6762	-0.133
Mof_C 	C 	0.2543	0.709	0.5468	-0.139
Mof_C 	C 	0.1234	0.4991	0.6714	-0.142
Mof_C 	C 	0.1976	0.6138	0.7581	-0.146
Mof_C 	C 	0.1252	0.7392	0.6733	-0.148
Mof_C 	C 	0.0461	0.6258	0.5846	-0.261
Mof_Cu	Cu	1.22334e-32	0.89666	0.75	0.794
Mof_Cu	Cu	1.22334e-32	0.34278	0.75	0.797
Mof_Cu	Cu	0.5	0.60334	0.25	0.842
Mof_Cu	Cu	0.5	0.15722	0.25	0.846
Mof_Cu	Cu	9.43103e-33	0.10334	0.25	0.796
Mof_Cu	Cu	1.40121e-33	0.65722	0.25	0.798
Mof_Cu	Cu	0.5	0.39666	0.75	0.842
Mof_Cu	Cu	0.5	0.84278	0.75	0.845
_end
