data_functionalizedCrystal
_audit_creation_method	'EQeq! by Chris Wilmer'
_symmetry_space_group_name_H-M	'P1'
_symmetry_Int_Tables_number	1
_symmetry_cell_setting	triclinic
loop_
_symmetry_equiv_pos_as_xyz
  x,y,z
_cell_length_a	11.592
_cell_length_b	19.0992
_cell_length_c	38.7481
_cell_angle_alpha	90
_cell_angle_beta	90
_cell_angle_gamma	90
loop_
_atom_site_label
_atom_site_type_symbol
_atom_site_fract_x
_atom_site_fract_y
_atom_site_fract_z
_atom_site_charge
Mof_Ag	Ag	0.2006	0.5341	0.2566	0.715
Mof_S 	S 	0.3598	0.6802	0.2253	0.303
Mof_F 	F 	0.2042	0.7635	0.2404	-0.534
Mof_F 	F 	0.2955	0.7991	0.2066	-0.642
Mof_F 	F 	0.3622	0.7911	0.2604	-0.598
Mof_O 	O 	0.3166	0.6405	0.2584	-0.254
Mof_O 	O 	0.3034	0.6617	0.1946	-0.176
Mof_O 	O 	0.4802	0.6785	0.2189	-0.196
Mof_N 	N 	0.2538	0.4383	0.2849	-0.218
Mof_N 	N 	0.6705	0.9879	0.7038	-0.225
Mof_N 	N 	0.0641	0.5962	0.2838	-0.229
Mof_N 	N 	0.3926	0.5681	0.3251	-0.218
Mof_C 	C 	0.3106	0.775	0.2326	1.143
Mof_C 	C 	0.6075	0.0644	0.444	-0.19
Mof_C 	C 	0.6018	0.0725	0.4091	0.119
Mof_C 	C 	0.5458	0.1283	0.3902	-0.03
Mof_C 	C 	0.4998	0.1787	0.374	-0.028
Mof_C 	C 	0.4459	0.2327	0.3577	0.112
Mof_C 	C 	0.4142	0.2935	0.3739	-0.131
Mof_C 	C 	0.3656	0.3491	0.3539	0.019
Mof_C 	C 	0.358	0.3393	0.32	-0.067
Mof_C 	C 	0.3019	0.3957	0.3032	0.062
Mof_C 	C 	0.3898	0.2808	0.3053	0.048
Mof_C 	C 	0.4353	0.2278	0.3248	-0.145
Mof_C 	C 	0.6564	0.0212	0.3875	-0.166
Mof_C 	C 	0.7161	0.9611	0.4024	0.119
Mof_C 	C 	0.7705	0.9109	0.3823	-0.047
Mof_C 	C 	0.818	0.8673	0.3664	0.001
Mof_C 	C 	0.8671	0.8076	0.3496	0.053
Mof_C 	C 	0.881	0.8204	0.314	-0.073
Mof_C 	C 	0.9334	0.7615	0.2934	-0.013
Mof_C 	C 	0.9649	0.6972	0.3143	-0.032
Mof_C 	C 	0.0265	0.6392	0.2958	0.141
Mof_C 	C 	0.9497	0.6943	0.3501	-0.007
Mof_C 	C 	0.8956	0.7484	0.3665	-0.089
Mof_C 	C 	0.7144	0.9571	0.4384	-0.163
Mof_C 	C 	0.6583	0.01	0.46	0.129
Mof_C 	C 	0.664	0.0049	0.4949	-0.072
Mof_C 	C 	0.6677	0.9995	0.5258	0.011
Mof_C 	C 	0.6718	0.9964	0.5639	0.052
Mof_C 	C 	0.7007	0.9387	0.5801	-0.082
Mof_C 	C 	0.7128	0.9363	0.6156	-0.019
Mof_C 	C 	0.6732	0.9942	0.6345	-0.02
Mof_C 	C 	0.6745	0.9907	0.6757	0.127
Mof_C 	C 	0.6389	0.0523	0.6161	-0.015
Mof_C 	C 	0.6307	0.0542	0.5827	-0.089
Mof_C 	C 	0.0396	0.945	0.4365	0.158
Mof_C 	C 	0.0877	0.8856	0.4189	-0.062
Mof_C 	C 	0.1274	0.8353	0.4037	0.004
Mof_C 	C 	0.186	0.7823	0.3881	0.035
Mof_C 	C 	0.2235	0.7254	0.4057	-0.073
Mof_C 	C 	0.2813	0.664	0.3916	-0.031
Mof_C 	C 	0.2932	0.6668	0.3557	-0.026
Mof_C 	C 	0.3498	0.6134	0.3358	0.114
Mof_C 	C 	0.2598	0.7201	0.3355	-0.038
Mof_C 	C 	0.2031	0.7841	0.3522	-0.057
Mof_C 	C 	0.0419	0.9419	0.4745	-0.186
Mof_C 	C 	0.024	0.9346	0.6509	-0.061
Mof_C 	C 	0.023	0.9405	0.6158	-0.026
Mof_H 	H 	0.5741	0.0989	0.4577	0.104
Mof_H 	H 	0.4241	0.2986	0.3975	0.08
Mof_H 	H 	0.3405	0.3903	0.3642	0.018
Mof_H 	H 	0.3816	0.2752	0.2816	0.047
Mof_H 	H 	0.4593	0.187	0.3138	0.128
Mof_H 	H 	0.6536	0.0263	0.3636	0.108
Mof_H 	H 	0.8591	0.8625	0.3038	0.086
Mof_H 	H 	0.9455	0.7644	0.2697	0.084
Mof_H 	H 	0.9762	0.656	0.3625	0.035
Mof_H 	H 	0.878	0.7442	0.3898	0.068
Mof_H 	H 	0.7504	0.9194	0.4491	0.099
Mof_H 	H 	0.7135	0.8982	0.5673	0.071
Mof_H 	H 	0.7458	0.8979	0.6265	0.066
Mof_H 	H 	0.6205	0.0926	0.6284	0.048
Mof_H 	H 	0.5986	0.0926	0.5715	0.071
Mof_H 	H 	0.211	0.7256	0.4294	0.061
Mof_H 	H 	0.3075	0.627	0.4051	0.042
Mof_H 	H 	0.2708	0.7182	0.3117	0.104
Mof_H 	H 	0.1809	0.8226	0.3392	0.085
Mof_H 	H 	0.07	0.903	0.4862	0.105
Mof_H 	H 	0.0381	0.8941	0.6636	0.081
Mof_H 	H 	0.0397	0.8999	0.6036	0.055
Mof_Ag	Ag	0.7994	0.4659	0.2566	0.722
Mof_S 	S 	0.6402	0.3198	0.2253	0.304
Mof_F 	F 	0.7958	0.2365	0.2404	-0.532
Mof_F 	F 	0.7045	0.2009	0.2066	-0.642
Mof_F 	F 	0.6378	0.2089	0.2604	-0.597
Mof_O 	O 	0.6834	0.3595	0.2584	-0.254
Mof_O 	O 	0.6966	0.3383	0.1946	-0.175
Mof_O 	O 	0.5198	0.3215	0.2189	-0.196
Mof_N 	N 	0.7462	0.5617	0.2849	-0.216
Mof_N 	N 	0.3295	0.0121	0.7038	-0.226
Mof_N 	N 	0.9359	0.4038	0.2838	-0.232
Mof_N 	N 	0.6074	0.4319	0.3251	-0.218
Mof_C 	C 	0.6894	0.225	0.2326	1.143
Mof_C 	C 	0.3925	0.9356	0.444	-0.181
Mof_C 	C 	0.3982	0.9275	0.4091	0.112
Mof_C 	C 	0.4542	0.8717	0.3902	-0.025
Mof_C 	C 	0.5002	0.8213	0.374	-0.03
Mof_C 	C 	0.5541	0.7673	0.3577	0.115
Mof_C 	C 	0.5858	0.7065	0.3739	-0.134
Mof_C 	C 	0.6344	0.6509	0.3539	0.021
Mof_C 	C 	0.642	0.6607	0.32	-0.069
Mof_C 	C 	0.6981	0.6043	0.3032	0.063
Mof_C 	C 	0.6102	0.7192	0.3053	0.051
Mof_C 	C 	0.5647	0.7722	0.3248	-0.149
Mof_C 	C 	0.3436	0.9788	0.3875	-0.146
Mof_C 	C 	0.2839	0.0389	0.4024	0.102
Mof_C 	C 	0.2295	0.0891	0.3823	-0.043
Mof_C 	C 	0.182	0.1327	0.3664	-0.007
Mof_C 	C 	0.1329	0.1924	0.3496	0.059
Mof_C 	C 	0.119	0.1796	0.314	-0.08
Mof_C 	C 	0.0666	0.2385	0.2934	-0.008
Mof_C 	C 	0.0351	0.3028	0.3143	-0.05
Mof_C 	C 	0.9735	0.3608	0.2958	0.158
Mof_C 	C 	0.0503	0.3057	0.3501	0.003
Mof_C 	C 	0.1044	0.2516	0.3665	-0.1
Mof_C 	C 	0.2856	0.0429	0.4384	-0.167
Mof_C 	C 	0.3417	0.99	0.46	0.126
Mof_C 	C 	0.336	0.9951	0.4949	-0.047
Mof_C 	C 	0.3323	0.0005	0.5258	-0.015
Mof_C 	C 	0.3282	0.0036	0.5639	0.054
Mof_C 	C 	0.2993	0.0613	0.5801	-0.092
Mof_C 	C 	0.2872	0.0637	0.6156	-0.01
Mof_C 	C 	0.3268	0.0058	0.6345	-0.041
Mof_C 	C 	0.3255	0.0093	0.6757	0.126
Mof_C 	C 	0.3611	0.9477	0.6161	0.008
Mof_C 	C 	0.3693	0.9458	0.5827	-0.091
Mof_C 	C 	0.9604	0.055	0.4365	0.159
Mof_C 	C 	0.9123	0.1144	0.4189	-0.061
Mof_C 	C 	0.8726	0.1647	0.4037	0.007
Mof_C 	C 	0.814	0.2177	0.3881	0.035
Mof_C 	C 	0.7765	0.2746	0.4057	-0.072
Mof_C 	C 	0.7187	0.336	0.3916	-0.03
Mof_C 	C 	0.7068	0.3332	0.3557	-0.026
Mof_C 	C 	0.6502	0.3866	0.3358	0.114
Mof_C 	C 	0.7402	0.2799	0.3355	-0.037
Mof_C 	C 	0.7969	0.2159	0.3522	-0.056
Mof_C 	C 	0.9581	0.0581	0.4745	-0.186
Mof_C 	C 	0.976	0.0654	0.6509	-0.06
Mof_C 	C 	0.977	0.0595	0.6158	-0.025
Mof_H 	H 	0.4259	0.9011	0.4577	0.101
Mof_H 	H 	0.5759	0.7014	0.3975	0.082
Mof_H 	H 	0.6595	0.6097	0.3642	0.018
Mof_H 	H 	0.6184	0.7248	0.2816	0.047
Mof_H 	H 	0.5407	0.813	0.3138	0.13
Mof_H 	H 	0.3464	0.9737	0.3636	0.104
Mof_H 	H 	0.1409	0.1375	0.3038	0.085
Mof_H 	H 	0.0545	0.2356	0.2697	0.078
Mof_H 	H 	0.0238	0.344	0.3625	0.028
Mof_H 	H 	0.122	0.2558	0.3898	0.069
Mof_H 	H 	0.2496	0.0806	0.4491	0.096
Mof_H 	H 	0.2865	0.1018	0.5673	0.073
Mof_H 	H 	0.2542	0.1021	0.6265	0.061
Mof_H 	H 	0.3795	0.9074	0.6284	0.042
Mof_H 	H 	0.4014	0.9074	0.5715	0.073
Mof_H 	H 	0.789	0.2744	0.4294	0.062
Mof_H 	H 	0.6925	0.373	0.4051	0.042
Mof_H 	H 	0.7292	0.2818	0.3117	0.104
Mof_H 	H 	0.8191	0.1774	0.3392	0.086
Mof_H 	H 	0.93	0.097	0.4862	0.106
Mof_H 	H 	0.9619	0.1059	0.6636	0.083
Mof_H 	H 	0.9603	0.1001	0.6036	0.056
Mof_Ag	Ag	0.7006	0.9659	0.7566	0.73
Mof_S 	S 	0.8598	0.8198	0.7253	0.305
Mof_F 	F 	0.7042	0.7365	0.7404	-0.533
Mof_F 	F 	0.7955	0.7009	0.7066	-0.64
Mof_F 	F 	0.8622	0.7089	0.7604	-0.595
Mof_O 	O 	0.8166	0.8595	0.7584	-0.252
Mof_O 	O 	0.8034	0.8383	0.6946	-0.174
Mof_O 	O 	0.9802	0.8215	0.7189	-0.191
Mof_N 	N 	0.7538	0.0617	0.7849	-0.218
Mof_N 	N 	0.1705	0.5121	0.2038	-0.225
Mof_N 	N 	0.5641	0.9038	0.7838	-0.23
Mof_N 	N 	0.8926	0.9319	0.8251	-0.212
Mof_C 	C 	0.8106	0.725	0.7326	1.143
Mof_C 	C 	0.1075	0.4356	0.944	-0.192
Mof_C 	C 	0.1018	0.4275	0.9091	0.123
Mof_C 	C 	0.0458	0.3717	0.8902	-0.045
Mof_C 	C 	0.9998	0.3213	0.874	-0.009
Mof_C 	C 	0.9459	0.2673	0.8577	0.097
Mof_C 	C 	0.9142	0.2065	0.8739	-0.119
Mof_C 	C 	0.8656	0.1509	0.8539	0.01
Mof_C 	C 	0.858	0.1607	0.82	-0.057
Mof_C 	C 	0.8019	0.1043	0.8032	0.061
Mof_C 	C 	0.8898	0.2192	0.8053	0.038
Mof_C 	C 	0.9353	0.2722	0.8248	-0.13
Mof_C 	C 	0.1564	0.4788	0.8875	-0.162
Mof_C 	C 	0.2161	0.5389	0.9024	0.113
Mof_C 	C 	0.2705	0.5891	0.8823	-0.048
Mof_C 	C 	0.318	0.6327	0.8664	-0.002
Mof_C 	C 	0.3671	0.6924	0.8496	0.055
Mof_C 	C 	0.381	0.6796	0.814	-0.076
Mof_C 	C 	0.4334	0.7385	0.7934	-0.011
Mof_C 	C 	0.4649	0.8028	0.8143	-0.04
Mof_C 	C 	0.5265	0.8608	0.7958	0.15
Mof_C 	C 	0.4497	0.8057	0.8501	-0.003
Mof_C 	C 	0.3956	0.7516	0.8665	-0.094
Mof_C 	C 	0.2144	0.5429	0.9384	-0.168
Mof_C 	C 	0.1583	0.49	0.96	0.131
Mof_C 	C 	0.164	0.4951	0.9949	-0.065
Mof_C 	C 	0.1677	0.5005	0.0258	0
Mof_C 	C 	0.1718	0.5036	0.0639	0.049
Mof_C 	C 	0.2007	0.5613	0.0801	-0.085
Mof_C 	C 	0.2128	0.5637	0.1156	-0.017
Mof_C 	C 	0.1732	0.5058	0.1345	-0.03
Mof_C 	C 	0.1745	0.5093	0.1757	0.124
Mof_C 	C 	0.1389	0.4477	0.1161	-0.006
Mof_C 	C 	0.1307	0.4458	0.0827	-0.088
Mof_C 	C 	0.5396	0.555	0.9365	0.146
Mof_C 	C 	0.5877	0.6144	0.9189	-0.057
Mof_C 	C 	0.6274	0.6647	0.9037	0.003
Mof_C 	C 	0.686	0.7177	0.8881	0.037
Mof_C 	C 	0.7235	0.7746	0.9057	-0.073
Mof_C 	C 	0.7813	0.836	0.8916	-0.03
Mof_C 	C 	0.7932	0.8332	0.8557	-0.024
Mof_C 	C 	0.8498	0.8866	0.8358	0.115
Mof_C 	C 	0.7598	0.7799	0.8355	-0.037
Mof_C 	C 	0.7031	0.7159	0.8522	-0.056
Mof_C 	C 	0.5419	0.5581	0.9745	-0.191
Mof_C 	C 	0.524	0.5654	0.1509	-0.07
Mof_C 	C 	0.523	0.5595	0.1158	-0.034
Mof_H 	H 	0.0741	0.4011	0.9577	0.103
Mof_H 	H 	0.9241	0.2014	0.8975	0.077
Mof_H 	H 	0.8405	0.1097	0.8642	0.022
Mof_H 	H 	0.8816	0.2248	0.7816	0.053
Mof_H 	H 	0.9593	0.313	0.8138	0.125
Mof_H 	H 	0.1536	0.4737	0.8636	0.107
Mof_H 	H 	0.3591	0.6375	0.8038	0.085
Mof_H 	H 	0.4455	0.7356	0.7697	0.081
Mof_H 	H 	0.4762	0.844	0.8625	0.032
Mof_H 	H 	0.378	0.7558	0.8898	0.068
Mof_H 	H 	0.2504	0.5806	0.9491	0.098
Mof_H 	H 	0.2135	0.6018	0.0673	0.071
Mof_H 	H 	0.2458	0.6021	0.1265	0.064
Mof_H 	H 	0.1205	0.4074	0.1284	0.044
Mof_H 	H 	0.0986	0.4074	0.0715	0.07
Mof_H 	H 	0.711	0.7744	0.9294	0.062
Mof_H 	H 	0.8075	0.873	0.9051	0.044
Mof_H 	H 	0.7708	0.7818	0.8117	0.104
Mof_H 	H 	0.6809	0.6774	0.8392	0.086
Mof_H 	H 	0.57	0.597	0.9862	0.106
Mof_H 	H 	0.5381	0.6059	0.1636	0.085
Mof_H 	H 	0.5397	0.6001	0.1036	0.058
Mof_Ag	Ag	0.2994	0.0341	0.7566	0.714
Mof_S 	S 	0.1402	0.1802	0.7253	0.304
Mof_F 	F 	0.2958	0.2635	0.7404	-0.533
Mof_F 	F 	0.2045	0.2991	0.7066	-0.642
Mof_F 	F 	0.1378	0.2911	0.7604	-0.599
Mof_O 	O 	0.1834	0.1405	0.7584	-0.253
Mof_O 	O 	0.1966	0.1617	0.6946	-0.176
Mof_O 	O 	0.0198	0.1785	0.7189	-0.199
Mof_N 	N 	0.2462	0.9383	0.7849	-0.214
Mof_N 	N 	0.8295	0.4879	0.2038	-0.224
Mof_N 	N 	0.4359	0.0962	0.7838	-0.231
Mof_N 	N 	0.1074	0.0681	0.8251	-0.218
Mof_C 	C 	0.1894	0.275	0.7326	1.143
Mof_C 	C 	0.8925	0.5644	0.944	-0.18
Mof_C 	C 	0.8982	0.5725	0.9091	0.109
Mof_C 	C 	0.9542	0.6283	0.8902	-0.011
Mof_C 	C 	0.0002	0.6787	0.874	-0.047
Mof_C 	C 	0.0541	0.7327	0.8577	0.129
Mof_C 	C 	0.0858	0.7935	0.8739	-0.145
Mof_C 	C 	0.1344	0.8491	0.8539	0.029
Mof_C 	C 	0.142	0.8393	0.82	-0.077
Mof_C 	C 	0.1981	0.8957	0.8032	0.067
Mof_C 	C 	0.1102	0.7808	0.8053	0.062
Mof_C 	C 	0.0647	0.7278	0.8248	-0.162
Mof_C 	C 	0.8436	0.5212	0.8875	-0.152
Mof_C 	C 	0.7839	0.4611	0.9024	0.109
Mof_C 	C 	0.7295	0.4109	0.8823	-0.044
Mof_C 	C 	0.682	0.3673	0.8664	-0.004
Mof_C 	C 	0.6329	0.3076	0.8496	0.057
Mof_C 	C 	0.619	0.3204	0.814	-0.077
Mof_C 	C 	0.5666	0.2615	0.7934	-0.011
Mof_C 	C 	0.5351	0.1972	0.8143	-0.041
Mof_C 	C 	0.4735	0.1392	0.7958	0.149
Mof_C 	C 	0.5503	0.1943	0.8501	-0.002
Mof_C 	C 	0.6044	0.2484	0.8665	-0.095
Mof_C 	C 	0.7856	0.4571	0.9384	-0.163
Mof_C 	C 	0.8417	0.51	0.96	0.127
Mof_C 	C 	0.836	0.5049	0.9949	-0.06
Mof_C 	C 	0.8323	0.4995	0.0258	0
Mof_C 	C 	0.8282	0.4964	0.0639	0.052
Mof_C 	C 	0.7993	0.4387	0.0801	-0.086
Mof_C 	C 	0.7872	0.4363	0.1156	-0.015
Mof_C 	C 	0.8268	0.4942	0.1345	-0.03
Mof_C 	C 	0.8255	0.4907	0.1757	0.127
Mof_C 	C 	0.8611	0.5523	0.1161	-0.004
Mof_C 	C 	0.8693	0.5542	0.0827	-0.088
Mof_C 	C 	0.4604	0.445	0.9365	0.146
Mof_C 	C 	0.4123	0.3856	0.9189	-0.057
Mof_C 	C 	0.3726	0.3353	0.9037	0.002
Mof_C 	C 	0.314	0.2823	0.8881	0.037
Mof_C 	C 	0.2765	0.2254	0.9057	-0.074
Mof_C 	C 	0.2187	0.164	0.8916	-0.031
Mof_C 	C 	0.2068	0.1668	0.8557	-0.027
Mof_C 	C 	0.1502	0.1134	0.8358	0.111
Mof_C 	C 	0.2402	0.2201	0.8355	-0.037
Mof_C 	C 	0.2969	0.2841	0.8522	-0.058
Mof_C 	C 	0.4581	0.4419	0.9745	-0.19
Mof_C 	C 	0.476	0.4346	0.1509	-0.07
Mof_C 	C 	0.477	0.4405	0.1158	-0.034
Mof_H 	H 	0.9259	0.5989	0.9577	0.102
Mof_H 	H 	0.0759	0.7986	0.8975	0.084
Mof_H 	H 	0.1595	0.8903	0.8642	0.015
Mof_H 	H 	0.1184	0.7752	0.7816	0.042
Mof_H 	H 	0.0407	0.687	0.8138	0.133
Mof_H 	H 	0.8464	0.5263	0.8636	0.106
Mof_H 	H 	0.6409	0.3625	0.8038	0.086
Mof_H 	H 	0.5545	0.2644	0.7697	0.081
Mof_H 	H 	0.5238	0.156	0.8625	0.031
Mof_H 	H 	0.622	0.2442	0.8898	0.069
Mof_H 	H 	0.7496	0.4194	0.9491	0.097
Mof_H 	H 	0.7865	0.3982	0.0673	0.072
Mof_H 	H 	0.7542	0.3979	0.1265	0.064
Mof_H 	H 	0.8795	0.5926	0.1284	0.047
Mof_H 	H 	0.9014	0.5926	0.0715	0.073
Mof_H 	H 	0.289	0.2256	0.9294	0.061
Mof_H 	H 	0.1925	0.127	0.9051	0.04
Mof_H 	H 	0.2292	0.2182	0.8117	0.103
Mof_H 	H 	0.3191	0.3226	0.8392	0.086
Mof_H 	H 	0.43	0.403	0.9862	0.106
Mof_H 	H 	0.4619	0.3941	0.1636	0.084
Mof_H 	H 	0.4603	0.3999	0.1036	0.057
Mof_Ag	Ag	0.5	0.5	0.29	0.613
Mof_Ag	Ag	9.90104e-33	0	0.79	0.594
Mof_N 	N 	-1.43501e-32	0	0.7333	-0.198
Mof_C 	C 	1.70253e-32	1.17703e-32	0.4193	-0.251
Mof_C 	C 	1.79352e-32	2.35405e-32	0.4919	0.122
Mof_C 	C 	6.63996e-33	1.17703e-32	0.5298	-0.062
Mof_C 	C 	7.4709e-33	0	0.5961	-0.006
Mof_C 	C 	7.02723e-33	1.17703e-32	0.5607	0.014
Mof_C 	C 	8.32314e-33	1.17703e-32	0.6641	0.01
Mof_C 	C 	3.23061e-32	0	0.6994	0.053
Mof_H 	H 	1.67246e-32	0	0.3953	0.128
Mof_N 	N 	0.5	0.5	0.2333	-0.196
Mof_C 	C 	0.5	0.5	0.9193	-0.226
Mof_C 	C 	0.5	0.5	0.9919	0.133
Mof_C 	C 	0.5	0.5	0.0298	-0.058
Mof_C 	C 	0.5	0.5	0.0961	0.01
Mof_C 	C 	0.5	0.5	0.0607	0.013
Mof_C 	C 	0.5	0.5	0.1641	0.026
Mof_C 	C 	0.5	0.5	0.1994	0.054
Mof_H 	H 	0.5	0.5	0.8953	0.124
_end
