data_functionalizedCrystal
_audit_creation_method	'EQeq! by Chris Wilmer'
_symmetry_space_group_name_H-M	'P1'
_symmetry_Int_Tables_number	1
_symmetry_cell_setting	triclinic
loop_
_symmetry_equiv_pos_as_xyz
  x,y,z
_cell_length_a	26.3896
_cell_length_b	26.3896
_cell_length_c	26.3896
_cell_angle_alpha	107.825
_cell_angle_beta	107.825
_cell_angle_gamma	107.825
loop_
_atom_site_label
_atom_site_type_symbol
_atom_site_fract_x
_atom_site_fract_y
_atom_site_fract_z
_atom_site_charge
Mof_K 	K 	0.68283	0.3715	0.68941	4.459
Mof_K 	K 	0.68941	0.68283	0.3715	4.459
Mof_K 	K 	0.3715	0.68941	0.68283	4.459
Mof_K 	K 	0.6285	0.31717	0.31059	4.459
Mof_K 	K 	0.31717	0.31059	0.6285	4.459
Mof_K 	K 	0.31059	0.6285	0.31717	4.459
Mof_K 	K 	0.68971	0.31029	-0	3.852
Mof_K 	K 	-5.324e-17	0.68971	0.31029	3.852
Mof_K 	K 	0.31029	0	0.68971	3.852
Mof_K 	K 	-1.52114e-17	0.29927	0.70073	4.33
Mof_K 	K 	0.70073	1.52114e-17	0.29927	4.33
Mof_K 	K 	0.29927	0.70073	-0	4.33
Mof_H 	H 	0.8679	0.2012	0.7314	0.197
Mof_H 	H 	0.9099	0.1931	0.7017	0.069
Mof_H 	H 	0.8258	0.1672	0.6596	0.014
Mof_H 	H 	0.8332	0.2698	0.6723	0.05
Mof_H 	H 	0.7464	0.1626	0.6173	0.019
Mof_H 	H 	0.7527	0.2588	0.6066	0.209
Mof_H 	H 	0.778	0.2171	0.5534	0.05
Mof_H 	H 	0.8093	0.1559	0.5092	0.002
Mof_H 	H 	0.8483	0.2412	0.8862	0.065
Mof_H 	H 	0.7869	0.2271	0.89	0.044
Mof_H 	H 	0.7731	0.2096	0.7947	0.039
Mof_H 	H 	0.7548	0.31	0.8494	0.028
Mof_H 	H 	0.7011	0.2374	0.7237	0.007
Mof_H 	H 	0.7958	0.3584	0.7891	-0.017
Mof_H 	H 	0.8583	0.3185	0.7626	0.009
Mof_H 	H 	0.4764	0.9886	0.7328	0.01
Mof_H 	H 	0.6773	0.1573	0.8573	0.016
Mof_H 	H 	0.5719	0.1532	0.8711	0.023
Mof_H 	H 	0.5876	0.1334	0.7657	0.041
Mof_H 	H 	0.4954	0.1096	0.7818	0.196
Mof_H 	H 	0.5814	0.2359	0.8365	-0.008
Mof_H 	H 	0.6173	0.252	0.762	0.218
Mof_H 	H 	0.62	0.9424	0.846	0.069
Mof_H 	H 	0.5732	0.8915	0.7814	0.031
Mof_H 	H 	0.5153	0.8679	0.8188	0.208
Mof_H 	H 	0.5764	0.981	0.7838	0.048
Mof_H 	H 	0.724	0.1835	0.9578	0.023
Mof_H 	H 	0.6649	0.1234	0.9291	0.069
Mof_H 	H 	0.4588	0.9975	0.8375	0.143
Mof_H 	H 	0.5585	0.0785	0.8929	-0.006
Mof_H 	H 	0.5312	0.7535	0.7073	0.008
Mof_H 	H 	0.5295	0.7319	0.6427	0.056
Mof_H 	H 	0.517	0.8195	0.6672	0.031
Mof_H 	H 	0.4057	0.719	0.5724	-0.022
Mof_H 	H 	0.4555	0.8422	0.5938	0.048
Mof_H 	H 	0.3459	0.7778	0.5179	0.206
Mof_H 	H 	0.3547	0.777	0.605	-0.05
Mof_H 	H 	0.3753	0.8701	0.5927	0.246
Mof_H 	H 	0.404	0.8342	0.7058	-0.078
Mof_H 	H 	0.6405	0.7467	0.5316	0.054
Mof_H 	H 	0.6216	0.7184	0.5725	0.069
Mof_H 	H 	0.5682	0.767	0.5437	0.04
Mof_H 	H 	0.5185	0.6765	0.4256	0.027
Mof_H 	H 	0.4765	0.7626	0.4628	0.037
Mof_H 	H 	0.4202	0.6368	0.4277	-0.029
Mof_H 	H 	0.435	0.6645	0.5283	-0.002
Mof_H 	H 	0.7459	0.7974	0.5303	0.002
Mof_H 	H 	0.7775	0.863	0.5366	0.062
Mof_H 	H 	0.6786	0.8352	0.5058	0.049
Mof_H 	H 	0.7026	0.8292	0.4041	-0.009
Mof_H 	H 	0.6084	0.8544	0.4215	0.023
Mof_H 	H 	0.6044	0.8584	0.3372	0.195
Mof_H 	H 	0.5959	0.7519	0.3331	-0.025
Mof_H 	H 	0.5299	0.7999	0.3466	0.204
Mof_H 	H 	0.5653	0.6968	0.3813	-0.087
Mof_H 	H 	0.8607	0.071	0.6144	-0.023
Mof_H 	H 	0.872	0.0165	0.5871	-0.017
Mof_H 	H 	0.8955	0.0446	0.6702	0.255
Mof_H 	H 	0.7617	0.9939	0.5457	0.182
Mof_H 	H 	0.8264	0.069	0.51	-0.002
Mof_H 	H 	0.7011	0.9979	0.4574	0.115
Mof_H 	H 	0.7877	0.9829	0.4125	0
Mof_H 	H 	0.7696	0.8952	0.4256	0.01
Mof_H 	H 	0.4685	0.9067	0.7851	0.039
Mof_H 	H 	0.6689	0.1232	0.4906	0.199
Mof_H 	H 	0.7314	0.8679	0.2012	0.198
Mof_H 	H 	0.7017	0.9099	0.1931	0.07
Mof_H 	H 	0.6596	0.8258	0.1672	0.015
Mof_H 	H 	0.6723	0.8332	0.2698	0.051
Mof_H 	H 	0.6173	0.7464	0.1626	0.02
Mof_H 	H 	0.6066	0.7527	0.2588	0.21
Mof_H 	H 	0.5534	0.778	0.2171	0.05
Mof_H 	H 	0.5092	0.8093	0.1559	0.002
Mof_H 	H 	0.8862	0.8483	0.2412	0.065
Mof_H 	H 	0.89	0.7869	0.2271	0.044
Mof_H 	H 	0.7947	0.7731	0.2096	0.039
Mof_H 	H 	0.8494	0.7548	0.31	0.028
Mof_H 	H 	0.7237	0.7011	0.2374	0.007
Mof_H 	H 	0.7891	0.7958	0.3584	-0.017
Mof_H 	H 	0.7626	0.8583	0.3185	0.009
Mof_H 	H 	0.7328	0.4764	0.9886	0.01
Mof_H 	H 	0.8573	0.6773	0.1573	0.016
Mof_H 	H 	0.8711	0.5719	0.1532	0.023
Mof_H 	H 	0.7657	0.5876	0.1334	0.041
Mof_H 	H 	0.7818	0.4954	0.1096	0.196
Mof_H 	H 	0.8365	0.5814	0.2359	-0.008
Mof_H 	H 	0.762	0.6173	0.252	0.218
Mof_H 	H 	0.846	0.62	0.9424	0.069
Mof_H 	H 	0.7814	0.5732	0.8915	0.031
Mof_H 	H 	0.8188	0.5153	0.8679	0.208
Mof_H 	H 	0.7838	0.5764	0.981	0.048
Mof_H 	H 	0.9578	0.724	0.1835	0.023
Mof_H 	H 	0.9291	0.6649	0.1234	0.069
Mof_H 	H 	0.8375	0.4588	0.9975	0.143
Mof_H 	H 	0.8929	0.5585	0.0785	-0.006
Mof_H 	H 	0.7073	0.5312	0.7535	0.008
Mof_H 	H 	0.6427	0.5295	0.7319	0.056
Mof_H 	H 	0.6672	0.517	0.8195	0.031
Mof_H 	H 	0.5724	0.4057	0.719	-0.022
Mof_H 	H 	0.5938	0.4555	0.8422	0.048
Mof_H 	H 	0.5179	0.3459	0.7778	0.206
Mof_H 	H 	0.605	0.3547	0.777	-0.05
Mof_H 	H 	0.5927	0.3753	0.8701	0.246
Mof_H 	H 	0.7058	0.404	0.8342	-0.078
Mof_H 	H 	0.5316	0.6405	0.7467	0.054
Mof_H 	H 	0.5725	0.6216	0.7184	0.069
Mof_H 	H 	0.5437	0.5682	0.767	0.04
Mof_H 	H 	0.4256	0.5185	0.6765	0.027
Mof_H 	H 	0.4628	0.4765	0.7626	0.037
Mof_H 	H 	0.4277	0.4202	0.6368	-0.029
Mof_H 	H 	0.5283	0.435	0.6645	-0.002
Mof_H 	H 	0.5303	0.7459	0.7974	0.002
Mof_H 	H 	0.5366	0.7775	0.863	0.062
Mof_H 	H 	0.5058	0.6786	0.8352	0.049
Mof_H 	H 	0.4041	0.7026	0.8292	-0.009
Mof_H 	H 	0.4215	0.6084	0.8544	0.023
Mof_H 	H 	0.3372	0.6044	0.8584	0.195
Mof_H 	H 	0.3331	0.5959	0.7519	-0.025
Mof_H 	H 	0.3466	0.5299	0.7999	0.204
Mof_H 	H 	0.3813	0.5653	0.6968	-0.087
Mof_H 	H 	0.6144	0.8607	0.071	-0.023
Mof_H 	H 	0.5871	0.872	0.0165	-0.017
Mof_H 	H 	0.6702	0.8955	0.0446	0.255
Mof_H 	H 	0.5457	0.7617	0.9939	0.182
Mof_H 	H 	0.51	0.8264	0.069	-0.002
Mof_H 	H 	0.4574	0.7011	0.9979	0.115
Mof_H 	H 	0.4125	0.7877	0.9829	0
Mof_H 	H 	0.4256	0.7696	0.8952	0.01
Mof_H 	H 	0.7851	0.4685	0.9067	0.039
Mof_H 	H 	0.4906	0.6689	0.1232	0.199
Mof_H 	H 	0.2012	0.7314	0.8679	0.198
Mof_H 	H 	0.1931	0.7017	0.9099	0.07
Mof_H 	H 	0.1672	0.6596	0.8258	0.015
Mof_H 	H 	0.2698	0.6723	0.8332	0.051
Mof_H 	H 	0.1626	0.6173	0.7464	0.02
Mof_H 	H 	0.2588	0.6066	0.7527	0.21
Mof_H 	H 	0.2171	0.5534	0.778	0.05
Mof_H 	H 	0.1559	0.5092	0.8093	0.002
Mof_H 	H 	0.2412	0.8862	0.8483	0.065
Mof_H 	H 	0.2271	0.89	0.7869	0.044
Mof_H 	H 	0.2096	0.7947	0.7731	0.039
Mof_H 	H 	0.31	0.8494	0.7548	0.028
Mof_H 	H 	0.2374	0.7237	0.7011	0.007
Mof_H 	H 	0.3584	0.7891	0.7958	-0.017
Mof_H 	H 	0.3185	0.7626	0.8583	0.009
Mof_H 	H 	0.9886	0.7328	0.4764	0.01
Mof_H 	H 	0.1573	0.8573	0.6773	0.016
Mof_H 	H 	0.1532	0.8711	0.5719	0.023
Mof_H 	H 	0.1334	0.7657	0.5876	0.041
Mof_H 	H 	0.1096	0.7818	0.4954	0.196
Mof_H 	H 	0.2359	0.8365	0.5814	-0.008
Mof_H 	H 	0.252	0.762	0.6173	0.218
Mof_H 	H 	0.9424	0.846	0.62	0.069
Mof_H 	H 	0.8915	0.7814	0.5732	0.031
Mof_H 	H 	0.8679	0.8188	0.5153	0.208
Mof_H 	H 	0.981	0.7838	0.5764	0.048
Mof_H 	H 	0.1835	0.9578	0.724	0.023
Mof_H 	H 	0.1234	0.9291	0.6649	0.069
Mof_H 	H 	0.9975	0.8375	0.4588	0.143
Mof_H 	H 	0.0785	0.8929	0.5585	-0.006
Mof_H 	H 	0.7535	0.7073	0.5312	0.008
Mof_H 	H 	0.7319	0.6427	0.5295	0.056
Mof_H 	H 	0.8195	0.6672	0.517	0.031
Mof_H 	H 	0.719	0.5724	0.4057	-0.022
Mof_H 	H 	0.8422	0.5938	0.4555	0.048
Mof_H 	H 	0.7778	0.5179	0.3459	0.206
Mof_H 	H 	0.777	0.605	0.3547	-0.05
Mof_H 	H 	0.8701	0.5927	0.3753	0.246
Mof_H 	H 	0.8342	0.7058	0.404	-0.078
Mof_H 	H 	0.7467	0.5316	0.6405	0.054
Mof_H 	H 	0.7184	0.5725	0.6216	0.069
Mof_H 	H 	0.767	0.5437	0.5682	0.04
Mof_H 	H 	0.6765	0.4256	0.5185	0.027
Mof_H 	H 	0.7626	0.4628	0.4765	0.037
Mof_H 	H 	0.6368	0.4277	0.4202	-0.029
Mof_H 	H 	0.6645	0.5283	0.435	-0.002
Mof_H 	H 	0.7974	0.5303	0.7459	0.002
Mof_H 	H 	0.863	0.5366	0.7775	0.062
Mof_H 	H 	0.8352	0.5058	0.6786	0.049
Mof_H 	H 	0.8292	0.4041	0.7026	-0.009
Mof_H 	H 	0.8544	0.4215	0.6084	0.023
Mof_H 	H 	0.8584	0.3372	0.6044	0.195
Mof_H 	H 	0.7519	0.3331	0.5959	-0.025
Mof_H 	H 	0.7999	0.3466	0.5299	0.204
Mof_H 	H 	0.6968	0.3813	0.5653	-0.087
Mof_H 	H 	0.071	0.6144	0.8607	-0.023
Mof_H 	H 	0.0165	0.5871	0.872	-0.017
Mof_H 	H 	0.0446	0.6702	0.8955	0.255
Mof_H 	H 	0.9939	0.5457	0.7617	0.182
Mof_H 	H 	0.069	0.51	0.8264	-0.002
Mof_H 	H 	0.9979	0.4574	0.7011	0.115
Mof_H 	H 	0.9829	0.4125	0.7877	0
Mof_H 	H 	0.8952	0.4256	0.7696	0.01
Mof_H 	H 	0.9067	0.7851	0.4685	0.039
Mof_H 	H 	0.1232	0.4906	0.6689	0.199
Mof_H 	H 	0.7988	0.1321	0.2686	0.187
Mof_H 	H 	0.8069	0.0901	0.2983	0.05
Mof_H 	H 	0.8328	0.1742	0.3404	0.023
Mof_H 	H 	0.7302	0.1668	0.3277	0.043
Mof_H 	H 	0.8374	0.2536	0.3827	0.03
Mof_H 	H 	0.7412	0.2473	0.3934	0.208
Mof_H 	H 	0.7829	0.222	0.4466	0.045
Mof_H 	H 	0.8441	0.1907	0.4908	0.009
Mof_H 	H 	0.7588	0.1517	0.1138	0.03
Mof_H 	H 	0.7729	0.2131	0.11	0.019
Mof_H 	H 	0.7904	0.2269	0.2053	0.046
Mof_H 	H 	0.69	0.2452	0.1506	0.019
Mof_H 	H 	0.7626	0.2989	0.2763	0.007
Mof_H 	H 	0.6416	0.2042	0.2109	-0.023
Mof_H 	H 	0.6815	0.1417	0.2374	0.001
Mof_H 	H 	0.0114	0.5236	0.2672	0.018
Mof_H 	H 	0.8427	0.3227	0.1427	0.021
Mof_H 	H 	0.8468	0.4281	0.1289	0.019
Mof_H 	H 	0.8666	0.4124	0.2343	0.042
Mof_H 	H 	0.8904	0.5046	0.2182	0.203
Mof_H 	H 	0.7641	0.4186	0.1635	-0.013
Mof_H 	H 	0.748	0.3827	0.238	0.218
Mof_H 	H 	0.0576	0.38	0.154	-0.012
Mof_H 	H 	0.1085	0.4268	0.2186	-0.013
Mof_H 	H 	0.1321	0.4847	0.1812	0.227
Mof_H 	H 	0.019	0.4236	0.2162	0.057
Mof_H 	H 	0.8165	0.276	0.0422	-0.017
Mof_H 	H 	0.8766	0.3351	0.0709	0.05
Mof_H 	H 	0.0025	0.5412	0.1625	-0.044
Mof_H 	H 	0.9215	0.4415	0.1071	0.019
Mof_H 	H 	0.2465	0.4688	0.2927	-0
Mof_H 	H 	0.2681	0.4705	0.3573	0.049
Mof_H 	H 	0.1805	0.483	0.3328	0.025
Mof_H 	H 	0.281	0.5943	0.4276	-0.021
Mof_H 	H 	0.1578	0.5445	0.4062	0.04
Mof_H 	H 	0.2222	0.6541	0.4821	0.207
Mof_H 	H 	0.223	0.6453	0.395	-0.049
Mof_H 	H 	0.1299	0.6247	0.4073	0.238
Mof_H 	H 	0.1658	0.596	0.2942	-0.081
Mof_H 	H 	0.2533	0.3595	0.4684	0.046
Mof_H 	H 	0.2816	0.3784	0.4275	0.058
Mof_H 	H 	0.233	0.4318	0.4563	0.031
Mof_H 	H 	0.3235	0.4815	0.5744	0.028
Mof_H 	H 	0.2374	0.5235	0.5372	0.032
Mof_H 	H 	0.3632	0.5798	0.5723	-0.029
Mof_H 	H 	0.3355	0.565	0.4717	-0.003
Mof_H 	H 	0.2026	0.2541	0.4697	-0.013
Mof_H 	H 	0.137	0.2225	0.4634	0.04
Mof_H 	H 	0.1648	0.3214	0.4942	0.043
Mof_H 	H 	0.1708	0.2974	0.5959	-0.01
Mof_H 	H 	0.1456	0.3916	0.5785	0.016
Mof_H 	H 	0.1416	0.3956	0.6628	0.191
Mof_H 	H 	0.2481	0.4041	0.6669	-0.024
Mof_H 	H 	0.2001	0.4701	0.6534	0.201
Mof_H 	H 	0.3032	0.4347	0.6187	-0.087
Mof_H 	H 	0.929	0.1393	0.3856	0.028
Mof_H 	H 	0.9835	0.128	0.4129	0.06
Mof_H 	H 	0.9554	0.1045	0.3298	0.207
Mof_H 	H 	0.0061	0.2383	0.4543	-0.012
Mof_H 	H 	0.931	0.1736	0.49	0.068
Mof_H 	H 	0.0021	0.2989	0.5426	-0.067
Mof_H 	H 	0.0171	0.2123	0.5875	-0.002
Mof_H 	H 	0.1048	0.2304	0.5744	-0.024
Mof_H 	H 	0.0933	0.5315	0.2149	-0.003
Mof_H 	H 	0.8768	0.3311	0.5094	0.211
Mof_H 	H 	0.1321	0.2686	0.7988	0.187
Mof_H 	H 	0.0901	0.2983	0.8069	0.05
Mof_H 	H 	0.1742	0.3404	0.8328	0.023
Mof_H 	H 	0.1668	0.3277	0.7302	0.043
Mof_H 	H 	0.2536	0.3827	0.8374	0.03
Mof_H 	H 	0.2473	0.3934	0.7412	0.208
Mof_H 	H 	0.222	0.4466	0.7829	0.045
Mof_H 	H 	0.1907	0.4908	0.8441	0.009
Mof_H 	H 	0.1517	0.1138	0.7588	0.03
Mof_H 	H 	0.2131	0.11	0.7729	0.019
Mof_H 	H 	0.2269	0.2053	0.7904	0.046
Mof_H 	H 	0.2452	0.1506	0.69	0.019
Mof_H 	H 	0.2989	0.2763	0.7626	0.007
Mof_H 	H 	0.2042	0.2109	0.6416	-0.023
Mof_H 	H 	0.1417	0.2374	0.6815	0.001
Mof_H 	H 	0.5236	0.2672	0.0114	0.018
Mof_H 	H 	0.3227	0.1427	0.8427	0.021
Mof_H 	H 	0.4281	0.1289	0.8468	0.019
Mof_H 	H 	0.4124	0.2343	0.8666	0.042
Mof_H 	H 	0.5046	0.2182	0.8904	0.203
Mof_H 	H 	0.4186	0.1635	0.7641	-0.013
Mof_H 	H 	0.3827	0.238	0.748	0.218
Mof_H 	H 	0.38	0.154	0.0576	-0.012
Mof_H 	H 	0.4268	0.2186	0.1085	-0.013
Mof_H 	H 	0.4847	0.1812	0.1321	0.227
Mof_H 	H 	0.4236	0.2162	0.019	0.057
Mof_H 	H 	0.276	0.0422	0.8165	-0.017
Mof_H 	H 	0.3351	0.0709	0.8766	0.05
Mof_H 	H 	0.5412	0.1625	0.0025	-0.044
Mof_H 	H 	0.4415	0.1071	0.9215	0.019
Mof_H 	H 	0.4688	0.2927	0.2465	-0
Mof_H 	H 	0.4705	0.3573	0.2681	0.049
Mof_H 	H 	0.483	0.3328	0.1805	0.025
Mof_H 	H 	0.5943	0.4276	0.281	-0.021
Mof_H 	H 	0.5445	0.4062	0.1578	0.04
Mof_H 	H 	0.6541	0.4821	0.2222	0.207
Mof_H 	H 	0.6453	0.395	0.223	-0.049
Mof_H 	H 	0.6247	0.4073	0.1299	0.238
Mof_H 	H 	0.596	0.2942	0.1658	-0.081
Mof_H 	H 	0.3595	0.4684	0.2533	0.046
Mof_H 	H 	0.3784	0.4275	0.2816	0.058
Mof_H 	H 	0.4318	0.4563	0.233	0.031
Mof_H 	H 	0.4815	0.5744	0.3235	0.028
Mof_H 	H 	0.5235	0.5372	0.2374	0.032
Mof_H 	H 	0.5798	0.5723	0.3632	-0.029
Mof_H 	H 	0.565	0.4717	0.3355	-0.003
Mof_H 	H 	0.2541	0.4697	0.2026	-0.013
Mof_H 	H 	0.2225	0.4634	0.137	0.04
Mof_H 	H 	0.3214	0.4942	0.1648	0.043
Mof_H 	H 	0.2974	0.5959	0.1708	-0.01
Mof_H 	H 	0.3916	0.5785	0.1456	0.016
Mof_H 	H 	0.3956	0.6628	0.1416	0.191
Mof_H 	H 	0.4041	0.6669	0.2481	-0.024
Mof_H 	H 	0.4701	0.6534	0.2001	0.201
Mof_H 	H 	0.4347	0.6187	0.3032	-0.087
Mof_H 	H 	0.1393	0.3856	0.929	0.028
Mof_H 	H 	0.128	0.4129	0.9835	0.06
Mof_H 	H 	0.1045	0.3298	0.9554	0.207
Mof_H 	H 	0.2383	0.4543	0.0061	-0.012
Mof_H 	H 	0.1736	0.49	0.931	0.068
Mof_H 	H 	0.2989	0.5426	0.0021	-0.067
Mof_H 	H 	0.2123	0.5875	0.0171	-0.002
Mof_H 	H 	0.2304	0.5744	0.1048	-0.024
Mof_H 	H 	0.5315	0.2149	0.0933	-0.003
Mof_H 	H 	0.3311	0.5094	0.8768	0.211
Mof_H 	H 	0.2686	0.7988	0.1321	0.187
Mof_H 	H 	0.2983	0.8069	0.0901	0.05
Mof_H 	H 	0.3404	0.8328	0.1742	0.023
Mof_H 	H 	0.3277	0.7302	0.1668	0.043
Mof_H 	H 	0.3827	0.8374	0.2536	0.03
Mof_H 	H 	0.3934	0.7412	0.2473	0.208
Mof_H 	H 	0.4466	0.7829	0.222	0.045
Mof_H 	H 	0.4908	0.8441	0.1907	0.009
Mof_H 	H 	0.1138	0.7588	0.1517	0.03
Mof_H 	H 	0.11	0.7729	0.2131	0.019
Mof_H 	H 	0.2053	0.7904	0.2269	0.046
Mof_H 	H 	0.1506	0.69	0.2452	0.019
Mof_H 	H 	0.2763	0.7626	0.2989	0.007
Mof_H 	H 	0.2109	0.6416	0.2042	-0.023
Mof_H 	H 	0.2374	0.6815	0.1417	0.001
Mof_H 	H 	0.2672	0.0114	0.5236	0.018
Mof_H 	H 	0.1427	0.8427	0.3227	0.021
Mof_H 	H 	0.1289	0.8468	0.4281	0.019
Mof_H 	H 	0.2343	0.8666	0.4124	0.042
Mof_H 	H 	0.2182	0.8904	0.5046	0.203
Mof_H 	H 	0.1635	0.7641	0.4186	-0.013
Mof_H 	H 	0.238	0.748	0.3827	0.218
Mof_H 	H 	0.154	0.0576	0.38	-0.012
Mof_H 	H 	0.2186	0.1085	0.4268	-0.013
Mof_H 	H 	0.1812	0.1321	0.4847	0.227
Mof_H 	H 	0.2162	0.019	0.4236	0.057
Mof_H 	H 	0.0422	0.8165	0.276	-0.017
Mof_H 	H 	0.0709	0.8766	0.3351	0.05
Mof_H 	H 	0.1625	0.0025	0.5412	-0.044
Mof_H 	H 	0.1071	0.9215	0.4415	0.019
Mof_H 	H 	0.2927	0.2465	0.4688	-0
Mof_H 	H 	0.3573	0.2681	0.4705	0.049
Mof_H 	H 	0.3328	0.1805	0.483	0.025
Mof_H 	H 	0.4276	0.281	0.5943	-0.021
Mof_H 	H 	0.4062	0.1578	0.5445	0.04
Mof_H 	H 	0.4821	0.2222	0.6541	0.207
Mof_H 	H 	0.395	0.223	0.6453	-0.049
Mof_H 	H 	0.4073	0.1299	0.6247	0.238
Mof_H 	H 	0.2942	0.1658	0.596	-0.081
Mof_H 	H 	0.4684	0.2533	0.3595	0.046
Mof_H 	H 	0.4275	0.2816	0.3784	0.058
Mof_H 	H 	0.4563	0.233	0.4318	0.031
Mof_H 	H 	0.5744	0.3235	0.4815	0.028
Mof_H 	H 	0.5372	0.2374	0.5235	0.032
Mof_H 	H 	0.5723	0.3632	0.5798	-0.029
Mof_H 	H 	0.4717	0.3355	0.565	-0.003
Mof_H 	H 	0.4697	0.2026	0.2541	-0.013
Mof_H 	H 	0.4634	0.137	0.2225	0.04
Mof_H 	H 	0.4942	0.1648	0.3214	0.043
Mof_H 	H 	0.5959	0.1708	0.2974	-0.01
Mof_H 	H 	0.5785	0.1456	0.3916	0.016
Mof_H 	H 	0.6628	0.1416	0.3956	0.191
Mof_H 	H 	0.6669	0.2481	0.4041	-0.024
Mof_H 	H 	0.6534	0.2001	0.4701	0.201
Mof_H 	H 	0.6187	0.3032	0.4347	-0.087
Mof_H 	H 	0.3856	0.929	0.1393	0.028
Mof_H 	H 	0.4129	0.9835	0.128	0.06
Mof_H 	H 	0.3298	0.9554	0.1045	0.207
Mof_H 	H 	0.4543	0.0061	0.2383	-0.012
Mof_H 	H 	0.49	0.931	0.1736	0.068
Mof_H 	H 	0.5426	0.0021	0.2989	-0.067
Mof_H 	H 	0.5875	0.0171	0.2123	-0.002
Mof_H 	H 	0.5744	0.1048	0.2304	-0.024
Mof_H 	H 	0.2149	0.0933	0.5315	-0.003
Mof_H 	H 	0.5094	0.8768	0.3311	0.211
Mof_C 	C 	0.8912	0.2192	0.7132	-0.441
Mof_C 	C 	0.8519	0.2065	0.6644	0.176
Mof_C 	C 	0.8142	0.2287	0.6682	-0.096
Mof_C 	C 	0.7713	0.1989	0.6161	0.163
Mof_C 	C 	0.7628	0.1787	0.5557	-0.046
Mof_C 	C 	0.801	0.1565	0.5439	0.133
Mof_C 	C 	0.8175	0.2554	0.8851	0.009
Mof_C 	C 	0.7894	0.2514	0.8248	0.041
Mof_C 	C 	0.74069	0.27101	0.8152	0.045
Mof_C 	C 	0.72175	0.27739	0.75846	0.078
Mof_C 	C 	0.7774	0.3178	0.7557	0.02
Mof_C 	C 	0.8223	0.2925	0.7634	0.193
Mof_C 	C 	0.4607	0.9698	0.7559	0.179
Mof_C 	C 	0.6587	0.1733	0.8821	0.124
Mof_C 	C 	0.5914	0.1403	0.8459	-0.005
Mof_C 	C 	0.5729	0.1522	0.7934	0.1
Mof_C 	C 	0.59994	0.21856	0.8125	0.035
Mof_C 	C 	0.66464	0.24786	0.8502	0.147
Mof_C 	C 	0.5771	0.92	0.8186	0.058
Mof_C 	C 	0.5561	0.963	0.8047	0.091
Mof_C 	C 	0.6801	0.1662	0.9395	-0.007
Mof_C 	C 	0.4766	0.0169	0.8162	-0.176
Mof_C 	C 	0.5477	0.0483	0.8526	0.262
Mof_C 	C 	0.5054	0.7376	0.6644	0.024
Mof_C 	C 	0.4827	0.7809	0.6537	0.077
Mof_C 	C 	0.4404	0.7577	0.5872	0.036
Mof_C 	C 	0.4207	0.80467	0.58213	0.056
Mof_C 	C 	0.3897	0.81547	0.61973	0.041
Mof_C 	C 	0.4281	0.83227	0.68303	0.208
Mof_C 	C 	0.6082	0.7154	0.5319	-0.033
Mof_C 	C 	0.5562	0.7249	0.5165	0.067
Mof_C 	C 	0.5266	0.7168	0.4534	0.059
Mof_C 	C 	0.4687	0.7211	0.4386	0.074
Mof_C 	C 	0.4282	0.678	0.4529	-0.005
Mof_C 	C 	0.4606	0.6921	0.5177	0.208
Mof_C 	C 	0.7494	0.8213	0.508	0.045
Mof_C 	C 	0.6927	0.8178	0.4767	0.023
Mof_C 	C 	0.6858	0.8442	0.4314	0.058
Mof_C 	C 	0.6231	0.8336	0.3952	0.091
Mof_C 	C 	0.5852	0.7707	0.3649	-0.001
Mof_C 	C 	0.5896	0.7405	0.4063	0.262
Mof_C 	C 	0.8433	0.0273	0.5993	0.287
Mof_C 	C 	0.7996	0.0112	0.543	-0.264
Mof_C 	C 	0.7897	0.0485	0.5135	0.179
Mof_C 	C 	0.7389	0.0152	0.4542	-0.114
Mof_C 	C 	0.7508	0.9632	0.416	0.138
Mof_C 	C 	0.7628	0.928	0.4491	0.164
Mof_C 	C 	0.4875	0.929	0.7663	0.006
Mof_C 	C 	0.7132	0.8912	0.2192	-0.441
Mof_C 	C 	0.6644	0.8519	0.2065	0.176
Mof_C 	C 	0.6682	0.8142	0.2287	-0.096
Mof_C 	C 	0.6161	0.7713	0.1989	0.163
Mof_C 	C 	0.5557	0.7628	0.1787	-0.046
Mof_C 	C 	0.5439	0.801	0.1565	0.133
Mof_C 	C 	0.8851	0.8175	0.2554	0.009
Mof_C 	C 	0.8248	0.7894	0.2514	0.041
Mof_C 	C 	0.8152	0.74069	0.27101	0.045
Mof_C 	C 	0.75846	0.72175	0.27739	0.078
Mof_C 	C 	0.7557	0.7774	0.3178	0.02
Mof_C 	C 	0.7634	0.8223	0.2925	0.193
Mof_C 	C 	0.7559	0.4607	0.9698	0.179
Mof_C 	C 	0.8821	0.6587	0.1733	0.124
Mof_C 	C 	0.8459	0.5914	0.1403	-0.005
Mof_C 	C 	0.7934	0.5729	0.1522	0.1
Mof_C 	C 	0.8125	0.59994	0.21856	0.035
Mof_C 	C 	0.8502	0.66464	0.24786	0.147
Mof_C 	C 	0.8186	0.5771	0.92	0.058
Mof_C 	C 	0.8047	0.5561	0.963	0.091
Mof_C 	C 	0.9395	0.6801	0.1662	-0.007
Mof_C 	C 	0.8162	0.4766	0.0169	-0.176
Mof_C 	C 	0.8526	0.5477	0.0483	0.262
Mof_C 	C 	0.6644	0.5054	0.7376	0.024
Mof_C 	C 	0.6537	0.4827	0.7809	0.077
Mof_C 	C 	0.5872	0.4404	0.7577	0.036
Mof_C 	C 	0.58213	0.4207	0.80467	0.056
Mof_C 	C 	0.61973	0.3897	0.81547	0.041
Mof_C 	C 	0.68303	0.4281	0.83227	0.208
Mof_C 	C 	0.5319	0.6082	0.7154	-0.033
Mof_C 	C 	0.5165	0.5562	0.7249	0.067
Mof_C 	C 	0.4534	0.5266	0.7168	0.059
Mof_C 	C 	0.4386	0.4687	0.7211	0.074
Mof_C 	C 	0.4529	0.4282	0.678	-0.005
Mof_C 	C 	0.5177	0.4606	0.6921	0.208
Mof_C 	C 	0.508	0.7494	0.8213	0.045
Mof_C 	C 	0.4767	0.6927	0.8178	0.023
Mof_C 	C 	0.4314	0.6858	0.8442	0.058
Mof_C 	C 	0.3952	0.6231	0.8336	0.091
Mof_C 	C 	0.3649	0.5852	0.7707	-0.001
Mof_C 	C 	0.4063	0.5896	0.7405	0.262
Mof_C 	C 	0.5993	0.8433	0.0273	0.287
Mof_C 	C 	0.543	0.7996	0.0112	-0.264
Mof_C 	C 	0.5135	0.7897	0.0485	0.179
Mof_C 	C 	0.4542	0.7389	0.0152	-0.114
Mof_C 	C 	0.416	0.7508	0.9632	0.138
Mof_C 	C 	0.4491	0.7628	0.928	0.164
Mof_C 	C 	0.7663	0.4875	0.929	0.006
Mof_C 	C 	0.2192	0.7132	0.8912	-0.441
Mof_C 	C 	0.2065	0.6644	0.8519	0.176
Mof_C 	C 	0.2287	0.6682	0.8142	-0.096
Mof_C 	C 	0.1989	0.6161	0.7713	0.163
Mof_C 	C 	0.1787	0.5557	0.7628	-0.046
Mof_C 	C 	0.1565	0.5439	0.801	0.133
Mof_C 	C 	0.2554	0.8851	0.8175	0.009
Mof_C 	C 	0.2514	0.8248	0.7894	0.041
Mof_C 	C 	0.27101	0.8152	0.74069	0.045
Mof_C 	C 	0.27739	0.75846	0.72175	0.078
Mof_C 	C 	0.3178	0.7557	0.7774	0.02
Mof_C 	C 	0.2925	0.7634	0.8223	0.193
Mof_C 	C 	0.9698	0.7559	0.4607	0.179
Mof_C 	C 	0.1733	0.8821	0.6587	0.124
Mof_C 	C 	0.1403	0.8459	0.5914	-0.005
Mof_C 	C 	0.1522	0.7934	0.5729	0.1
Mof_C 	C 	0.21856	0.8125	0.59994	0.035
Mof_C 	C 	0.24786	0.8502	0.66464	0.147
Mof_C 	C 	0.92	0.8186	0.5771	0.058
Mof_C 	C 	0.963	0.8047	0.5561	0.091
Mof_C 	C 	0.1662	0.9395	0.6801	-0.007
Mof_C 	C 	0.0169	0.8162	0.4766	-0.176
Mof_C 	C 	0.0483	0.8526	0.5477	0.262
Mof_C 	C 	0.7376	0.6644	0.5054	0.024
Mof_C 	C 	0.7809	0.6537	0.4827	0.077
Mof_C 	C 	0.7577	0.5872	0.4404	0.036
Mof_C 	C 	0.80467	0.58213	0.4207	0.056
Mof_C 	C 	0.81547	0.61973	0.3897	0.041
Mof_C 	C 	0.83227	0.68303	0.4281	0.208
Mof_C 	C 	0.7154	0.5319	0.6082	-0.033
Mof_C 	C 	0.7249	0.5165	0.5562	0.067
Mof_C 	C 	0.7168	0.4534	0.5266	0.059
Mof_C 	C 	0.7211	0.4386	0.4687	0.074
Mof_C 	C 	0.678	0.4529	0.4282	-0.005
Mof_C 	C 	0.6921	0.5177	0.4606	0.208
Mof_C 	C 	0.8213	0.508	0.7494	0.045
Mof_C 	C 	0.8178	0.4767	0.6927	0.023
Mof_C 	C 	0.8442	0.4314	0.6858	0.058
Mof_C 	C 	0.8336	0.3952	0.6231	0.091
Mof_C 	C 	0.7707	0.3649	0.5852	-0.001
Mof_C 	C 	0.7405	0.4063	0.5896	0.262
Mof_C 	C 	0.0273	0.5993	0.8433	0.287
Mof_C 	C 	0.0112	0.543	0.7996	-0.264
Mof_C 	C 	0.0485	0.5135	0.7897	0.179
Mof_C 	C 	0.0152	0.4542	0.7389	-0.114
Mof_C 	C 	0.9632	0.416	0.7508	0.138
Mof_C 	C 	0.928	0.4491	0.7628	0.164
Mof_C 	C 	0.929	0.7663	0.4875	0.006
Mof_C 	C 	0.7808	0.1088	0.2868	-0.42
Mof_C 	C 	0.7935	0.1481	0.3356	0.149
Mof_C 	C 	0.7713	0.1858	0.3318	-0.074
Mof_C 	C 	0.8011	0.2287	0.3839	0.144
Mof_C 	C 	0.8213	0.2372	0.4443	-0.03
Mof_C 	C 	0.8435	0.199	0.4561	0.117
Mof_C 	C 	0.7446	0.1825	0.1149	0.055
Mof_C 	C 	0.7486	0.2106	0.1752	0.02
Mof_C 	C 	0.72899	0.25931	0.1848	0.054
Mof_C 	C 	0.72261	0.27825	0.24154	0.075
Mof_C 	C 	0.6822	0.2226	0.2443	0.021
Mof_C 	C 	0.7075	0.1777	0.2366	0.195
Mof_C 	C 	0.0302	0.5393	0.2441	-0.022
Mof_C 	C 	0.8267	0.3413	0.1179	0.114
Mof_C 	C 	0.8597	0.4086	0.1541	-0.013
Mof_C 	C 	0.8478	0.4271	0.2066	0.101
Mof_C 	C 	0.78144	0.40006	0.1875	0.037
Mof_C 	C 	0.75214	0.33536	0.1498	0.141
Mof_C 	C 	0.08	0.4229	0.1814	0.172
Mof_C 	C 	0.037	0.4439	0.1953	-0.088
Mof_C 	C 	0.8338	0.3199	0.0605	0.028
Mof_C 	C 	0.9831	0.5234	0.1838	0.156
Mof_C 	C 	0.9517	0.4523	0.1474	0.155
Mof_C 	C 	0.2624	0.4946	0.3356	0.028
Mof_C 	C 	0.2191	0.5173	0.3463	0.077
Mof_C 	C 	0.2423	0.5596	0.4128	0.033
Mof_C 	C 	0.19533	0.5793	0.41787	0.06
Mof_C 	C 	0.18453	0.6103	0.38027	0.036
Mof_C 	C 	0.16773	0.5719	0.31697	0.216
Mof_C 	C 	0.2846	0.3918	0.4681	-0.027
Mof_C 	C 	0.2751	0.4438	0.4835	0.067
Mof_C 	C 	0.2832	0.4734	0.5466	0.057
Mof_C 	C 	0.2789	0.5313	0.5614	0.076
Mof_C 	C 	0.322	0.5718	0.5471	-0.006
Mof_C 	C 	0.3079	0.5394	0.4823	0.21
Mof_C 	C 	0.1787	0.2506	0.492	0.062
Mof_C 	C 	0.1822	0.3073	0.5233	0.016
Mof_C 	C 	0.1558	0.3142	0.5686	0.067
Mof_C 	C 	0.1664	0.3769	0.6048	0.092
Mof_C 	C 	0.2293	0.4148	0.6351	-0.003
Mof_C 	C 	0.2595	0.4104	0.5937	0.263
Mof_C 	C 	0.9727	0.1567	0.4007	0.069
Mof_C 	C 	0.9888	0.2004	0.457	0.147
Mof_C 	C 	0.9515	0.2103	0.4865	-0.058
Mof_C 	C 	0.9848	0.2611	0.5458	0.252
Mof_C 	C 	0.0368	0.2492	0.584	-0.052
Mof_C 	C 	0.072	0.2372	0.5509	0.261
Mof_C 	C 	0.071	0.5125	0.2337	0.105
Mof_C 	C 	0.1088	0.2868	0.7808	-0.42
Mof_C 	C 	0.1481	0.3356	0.7935	0.149
Mof_C 	C 	0.1858	0.3318	0.7713	-0.074
Mof_C 	C 	0.2287	0.3839	0.8011	0.144
Mof_C 	C 	0.2372	0.4443	0.8213	-0.03
Mof_C 	C 	0.199	0.4561	0.8435	0.117
Mof_C 	C 	0.1825	0.1149	0.7446	0.055
Mof_C 	C 	0.2106	0.1752	0.7486	0.02
Mof_C 	C 	0.25931	0.1848	0.72899	0.054
Mof_C 	C 	0.27825	0.24154	0.72261	0.075
Mof_C 	C 	0.2226	0.2443	0.6822	0.021
Mof_C 	C 	0.1777	0.2366	0.7075	0.195
Mof_C 	C 	0.5393	0.2441	0.0302	-0.022
Mof_C 	C 	0.3413	0.1179	0.8267	0.114
Mof_C 	C 	0.4086	0.1541	0.8597	-0.013
Mof_C 	C 	0.4271	0.2066	0.8478	0.101
Mof_C 	C 	0.40006	0.1875	0.78144	0.037
Mof_C 	C 	0.33536	0.1498	0.75214	0.141
Mof_C 	C 	0.4229	0.1814	0.08	0.172
Mof_C 	C 	0.4439	0.1953	0.037	-0.088
Mof_C 	C 	0.3199	0.0605	0.8338	0.028
Mof_C 	C 	0.5234	0.1838	0.9831	0.156
Mof_C 	C 	0.4523	0.1474	0.9517	0.155
Mof_C 	C 	0.4946	0.3356	0.2624	0.028
Mof_C 	C 	0.5173	0.3463	0.2191	0.077
Mof_C 	C 	0.5596	0.4128	0.2423	0.033
Mof_C 	C 	0.5793	0.41787	0.19533	0.06
Mof_C 	C 	0.6103	0.38027	0.18453	0.036
Mof_C 	C 	0.5719	0.31697	0.16773	0.216
Mof_C 	C 	0.3918	0.4681	0.2846	-0.027
Mof_C 	C 	0.4438	0.4835	0.2751	0.067
Mof_C 	C 	0.4734	0.5466	0.2832	0.057
Mof_C 	C 	0.5313	0.5614	0.2789	0.076
Mof_C 	C 	0.5718	0.5471	0.322	-0.006
Mof_C 	C 	0.5394	0.4823	0.3079	0.21
Mof_C 	C 	0.2506	0.492	0.1787	0.062
Mof_C 	C 	0.3073	0.5233	0.1822	0.016
Mof_C 	C 	0.3142	0.5686	0.1558	0.067
Mof_C 	C 	0.3769	0.6048	0.1664	0.092
Mof_C 	C 	0.4148	0.6351	0.2293	-0.003
Mof_C 	C 	0.4104	0.5937	0.2595	0.263
Mof_C 	C 	0.1567	0.4007	0.9727	0.069
Mof_C 	C 	0.2004	0.457	0.9888	0.147
Mof_C 	C 	0.2103	0.4865	0.9515	-0.058
Mof_C 	C 	0.2611	0.5458	0.9848	0.252
Mof_C 	C 	0.2492	0.584	0.0368	-0.052
Mof_C 	C 	0.2372	0.5509	0.072	0.261
Mof_C 	C 	0.5125	0.2337	0.071	0.105
Mof_C 	C 	0.2868	0.7808	0.1088	-0.42
Mof_C 	C 	0.3356	0.7935	0.1481	0.149
Mof_C 	C 	0.3318	0.7713	0.1858	-0.074
Mof_C 	C 	0.3839	0.8011	0.2287	0.144
Mof_C 	C 	0.4443	0.8213	0.2372	-0.03
Mof_C 	C 	0.4561	0.8435	0.199	0.117
Mof_C 	C 	0.1149	0.7446	0.1825	0.055
Mof_C 	C 	0.1752	0.7486	0.2106	0.02
Mof_C 	C 	0.1848	0.72899	0.25931	0.054
Mof_C 	C 	0.24154	0.72261	0.27825	0.075
Mof_C 	C 	0.2443	0.6822	0.2226	0.021
Mof_C 	C 	0.2366	0.7075	0.1777	0.195
Mof_C 	C 	0.2441	0.0302	0.5393	-0.022
Mof_C 	C 	0.1179	0.8267	0.3413	0.114
Mof_C 	C 	0.1541	0.8597	0.4086	-0.013
Mof_C 	C 	0.2066	0.8478	0.4271	0.101
Mof_C 	C 	0.1875	0.78144	0.40006	0.037
Mof_C 	C 	0.1498	0.75214	0.33536	0.141
Mof_C 	C 	0.1814	0.08	0.4229	0.172
Mof_C 	C 	0.1953	0.037	0.4439	-0.088
Mof_C 	C 	0.0605	0.8338	0.3199	0.028
Mof_C 	C 	0.1838	0.9831	0.5234	0.156
Mof_C 	C 	0.1474	0.9517	0.4523	0.155
Mof_C 	C 	0.3356	0.2624	0.4946	0.028
Mof_C 	C 	0.3463	0.2191	0.5173	0.077
Mof_C 	C 	0.4128	0.2423	0.5596	0.033
Mof_C 	C 	0.41787	0.19533	0.5793	0.06
Mof_C 	C 	0.38027	0.18453	0.6103	0.036
Mof_C 	C 	0.31697	0.16773	0.5719	0.216
Mof_C 	C 	0.4681	0.2846	0.3918	-0.027
Mof_C 	C 	0.4835	0.2751	0.4438	0.067
Mof_C 	C 	0.5466	0.2832	0.4734	0.057
Mof_C 	C 	0.5614	0.2789	0.5313	0.076
Mof_C 	C 	0.5471	0.322	0.5718	-0.006
Mof_C 	C 	0.4823	0.3079	0.5394	0.21
Mof_C 	C 	0.492	0.1787	0.2506	0.062
Mof_C 	C 	0.5233	0.1822	0.3073	0.016
Mof_C 	C 	0.5686	0.1558	0.3142	0.067
Mof_C 	C 	0.6048	0.1664	0.3769	0.092
Mof_C 	C 	0.6351	0.2293	0.4148	-0.003
Mof_C 	C 	0.5937	0.2595	0.4104	0.263
Mof_C 	C 	0.4007	0.9727	0.1567	0.069
Mof_C 	C 	0.457	0.9888	0.2004	0.147
Mof_C 	C 	0.4865	0.9515	0.2103	-0.058
Mof_C 	C 	0.5458	0.9848	0.2611	0.252
Mof_C 	C 	0.584	0.0368	0.2492	-0.052
Mof_C 	C 	0.5509	0.072	0.2372	0.261
Mof_C 	C 	0.2337	0.071	0.5125	0.105
Mof_O 	O 	0.9497	0.2804	0.7732	-0.403
Mof_O 	O 	0.7335	0.2252	0.6036	-0.375
Mof_O 	O 	0.8578	0.182	0.6116	-0.328
Mof_O 	O 	0.8418	0.3058	0.931	-0.125
Mof_O 	O 	0.83816	0.28962	0.81768	-0.193
Mof_O 	O 	0.69132	0.22741	0.81382	-0.208
Mof_O 	O 	0.68273	0.30565	0.75602	-0.562
Mof_O 	O 	0.75917	0.32196	0.70077	-0.577
Mof_O 	O 	0.79623	0.23507	0.71604	-0.184
Mof_O 	O 	0.3963	0.93901	0.72569	-0.355
Mof_O 	O 	0.67905	0.23399	0.89853	-0.595
Mof_O 	O 	0.57394	0.07728	0.82582	-0.24
Mof_O 	O 	0.50979	0.12644	0.76374	-0.342
Mof_O 	O 	0.58596	0.23041	0.76123	-0.329
Mof_O 	O 	0.5515	0.8888	0.8421	-0.302
Mof_O 	O 	0.6635	0.1916	0.9796	-0.419
Mof_O 	O 	0.4572	0.0615	0.8126	-0.259
Mof_O 	O 	0.5662	0.0083	0.8597	-0.271
Mof_O 	O 	0.45709	0.68236	0.64495	-0.519
Mof_O 	O 	0.37917	0.78077	0.52021	-0.321
Mof_O 	O 	0.36714	0.85746	0.6162	-0.364
Mof_O 	O 	0.45014	0.78904	0.68715	-0.607
Mof_O 	O 	0.598	0.6581	0.4914	-0.145
Mof_O 	O 	0.51483	0.68813	0.52894	-0.211
Mof_O 	O 	0.5648	0.75935	0.44375	-0.22
Mof_O 	O 	0.44016	0.70627	0.37727	-0.467
Mof_O 	O 	0.37261	0.68133	0.43976	-0.531
Mof_O 	O 	0.47515	0.75186	0.55358	-0.201
Mof_O 	O 	0.77096	0.79954	0.4668	-0.479
Mof_O 	O 	0.636	0.8624	0.3619	-0.333
Mof_O 	O 	0.5282	0.7659	0.3385	-0.307
Mof_O 	O 	0.6487	0.75106	0.43624	-0.593
Mof_O 	O 	0.8587	0.0243	0.6496	-0.438
Mof_O 	O 	0.8041	0.9564	0.5066	-0.113
Mof_O 	O 	0.7797	0.0934	0.5536	-0.197
Mof_O 	O 	0.7361	0.0534	0.426	-0.457
Mof_O 	O 	0.7042	0.9343	0.3598	-0.549
Mof_O 	O 	0.7175	0.9062	0.4631	-0.196
Mof_O 	O 	0.47753	0.88883	0.70916	-0.207
Mof_O 	O 	0.027	0.3643	0.822	-0.443
Mof_O 	O 	0.6997	0.134	0.4856	-0.329
Mof_O 	O 	0.7732	0.9497	0.2804	-0.403
Mof_O 	O 	0.6036	0.7335	0.2252	-0.375
Mof_O 	O 	0.6116	0.8578	0.182	-0.328
Mof_O 	O 	0.931	0.8418	0.3058	-0.125
Mof_O 	O 	0.81768	0.83816	0.28962	-0.193
Mof_O 	O 	0.81382	0.69132	0.22741	-0.208
Mof_O 	O 	0.75602	0.68273	0.30565	-0.562
Mof_O 	O 	0.70077	0.75917	0.32196	-0.577
Mof_O 	O 	0.71604	0.79623	0.23507	-0.184
Mof_O 	O 	0.72569	0.3963	0.93901	-0.355
Mof_O 	O 	0.89853	0.67905	0.23399	-0.595
Mof_O 	O 	0.82582	0.57394	0.07728	-0.24
Mof_O 	O 	0.76374	0.50979	0.12644	-0.342
Mof_O 	O 	0.76123	0.58596	0.23041	-0.329
Mof_O 	O 	0.8421	0.5515	0.8888	-0.302
Mof_O 	O 	0.9796	0.6635	0.1916	-0.419
Mof_O 	O 	0.8126	0.4572	0.0615	-0.259
Mof_O 	O 	0.8597	0.5662	0.0083	-0.271
Mof_O 	O 	0.64495	0.45709	0.68236	-0.519
Mof_O 	O 	0.52021	0.37917	0.78077	-0.321
Mof_O 	O 	0.6162	0.36714	0.85746	-0.364
Mof_O 	O 	0.68715	0.45014	0.78904	-0.607
Mof_O 	O 	0.4914	0.598	0.6581	-0.145
Mof_O 	O 	0.52894	0.51483	0.68813	-0.211
Mof_O 	O 	0.44375	0.5648	0.75935	-0.22
Mof_O 	O 	0.37727	0.44016	0.70627	-0.467
Mof_O 	O 	0.43976	0.37261	0.68133	-0.531
Mof_O 	O 	0.55358	0.47515	0.75186	-0.201
Mof_O 	O 	0.4668	0.77096	0.79954	-0.479
Mof_O 	O 	0.3619	0.636	0.8624	-0.333
Mof_O 	O 	0.3385	0.5282	0.7659	-0.307
Mof_O 	O 	0.43624	0.6487	0.75106	-0.593
Mof_O 	O 	0.6496	0.8587	0.0243	-0.438
Mof_O 	O 	0.5066	0.8041	0.9564	-0.113
Mof_O 	O 	0.5536	0.7797	0.0934	-0.197
Mof_O 	O 	0.426	0.7361	0.0534	-0.457
Mof_O 	O 	0.3598	0.7042	0.9343	-0.549
Mof_O 	O 	0.4631	0.7175	0.9062	-0.196
Mof_O 	O 	0.70916	0.47753	0.88883	-0.207
Mof_O 	O 	0.822	0.027	0.3643	-0.443
Mof_O 	O 	0.4856	0.6997	0.134	-0.329
Mof_O 	O 	0.2804	0.7732	0.9497	-0.403
Mof_O 	O 	0.2252	0.6036	0.7335	-0.375
Mof_O 	O 	0.182	0.6116	0.8578	-0.328
Mof_O 	O 	0.3058	0.931	0.8418	-0.125
Mof_O 	O 	0.28962	0.81768	0.83816	-0.193
Mof_O 	O 	0.22741	0.81382	0.69132	-0.208
Mof_O 	O 	0.30565	0.75602	0.68273	-0.562
Mof_O 	O 	0.32196	0.70077	0.75917	-0.577
Mof_O 	O 	0.23507	0.71604	0.79623	-0.184
Mof_O 	O 	0.93901	0.72569	0.3963	-0.355
Mof_O 	O 	0.23399	0.89853	0.67905	-0.595
Mof_O 	O 	0.07728	0.82582	0.57394	-0.24
Mof_O 	O 	0.12644	0.76374	0.50979	-0.342
Mof_O 	O 	0.23041	0.76123	0.58596	-0.329
Mof_O 	O 	0.8888	0.8421	0.5515	-0.302
Mof_O 	O 	0.1916	0.9796	0.6635	-0.419
Mof_O 	O 	0.0615	0.8126	0.4572	-0.259
Mof_O 	O 	0.0083	0.8597	0.5662	-0.271
Mof_O 	O 	0.68236	0.64495	0.45709	-0.519
Mof_O 	O 	0.78077	0.52021	0.37917	-0.321
Mof_O 	O 	0.85746	0.6162	0.36714	-0.364
Mof_O 	O 	0.78904	0.68715	0.45014	-0.607
Mof_O 	O 	0.6581	0.4914	0.598	-0.145
Mof_O 	O 	0.68813	0.52894	0.51483	-0.211
Mof_O 	O 	0.75935	0.44375	0.5648	-0.22
Mof_O 	O 	0.70627	0.37727	0.44016	-0.467
Mof_O 	O 	0.68133	0.43976	0.37261	-0.531
Mof_O 	O 	0.75186	0.55358	0.47515	-0.201
Mof_O 	O 	0.79954	0.4668	0.77096	-0.479
Mof_O 	O 	0.8624	0.3619	0.636	-0.333
Mof_O 	O 	0.7659	0.3385	0.5282	-0.307
Mof_O 	O 	0.75106	0.43624	0.6487	-0.593
Mof_O 	O 	0.0243	0.6496	0.8587	-0.438
Mof_O 	O 	0.9564	0.5066	0.8041	-0.113
Mof_O 	O 	0.0934	0.5536	0.7797	-0.197
Mof_O 	O 	0.0534	0.426	0.7361	-0.457
Mof_O 	O 	0.9343	0.3598	0.7042	-0.549
Mof_O 	O 	0.9062	0.4631	0.7175	-0.196
Mof_O 	O 	0.88883	0.70916	0.47753	-0.207
Mof_O 	O 	0.3643	0.822	0.027	-0.443
Mof_O 	O 	0.134	0.4856	0.6997	-0.329
Mof_O 	O 	0.7196	0.0503	0.2268	-0.463
Mof_O 	O 	0.7748	0.2665	0.3964	-0.368
Mof_O 	O 	0.818	0.1422	0.3884	-0.33
Mof_O 	O 	0.6942	0.1582	0.069	-0.19
Mof_O 	O 	0.71038	0.16184	0.18232	-0.205
Mof_O 	O 	0.77259	0.30868	0.18618	-0.209
Mof_O 	O 	0.69435	0.31727	0.24398	-0.562
Mof_O 	O 	0.67804	0.24083	0.29923	-0.577
Mof_O 	O 	0.76493	0.20377	0.28396	-0.188
Mof_O 	O 	0.06099	0.6037	0.27431	-0.354
Mof_O 	O 	0.76601	0.32095	0.10147	-0.612
Mof_O 	O 	0.92272	0.42606	0.17418	-0.196
Mof_O 	O 	0.87356	0.49021	0.23626	-0.338
Mof_O 	O 	0.76959	0.41404	0.23877	-0.33
Mof_O 	O 	0.1112	0.4485	0.1579	-0.38
Mof_O 	O 	0.8084	0.3365	0.0204	-0.486
Mof_O 	O 	0.9385	0.5428	0.1874	-0.29
Mof_O 	O 	0.9917	0.4338	0.1403	-0.143
Mof_O 	O 	0.31764	0.54291	0.35505	-0.521
Mof_O 	O 	0.21923	0.62083	0.47979	-0.324
Mof_O 	O 	0.14254	0.63286	0.3838	-0.366
Mof_O 	O 	0.21096	0.54986	0.31285	-0.609
Mof_O 	O 	0.3419	0.402	0.5086	-0.148
Mof_O 	O 	0.31187	0.48517	0.47106	-0.214
Mof_O 	O 	0.24065	0.4352	0.55625	-0.224
Mof_O 	O 	0.29373	0.55984	0.62273	-0.468
Mof_O 	O 	0.31867	0.62739	0.56024	-0.531
Mof_O 	O 	0.24814	0.52485	0.44642	-0.205
Mof_O 	O 	0.20046	0.22904	0.5332	-0.487
Mof_O 	O 	0.1376	0.364	0.6381	-0.335
Mof_O 	O 	0.2341	0.4718	0.6615	-0.306
Mof_O 	O 	0.24894	0.3513	0.56376	-0.592
Mof_O 	O 	0.9757	0.1413	0.3504	-0.325
Mof_O 	O 	0.0436	0.1959	0.4934	-0.272
Mof_O 	O 	0.9066	0.2203	0.4464	-0.138
Mof_O 	O 	0.9466	0.2639	0.574	-0.485
Mof_O 	O 	0.0657	0.2958	0.6402	-0.541
Mof_O 	O 	0.0938	0.2825	0.5369	-0.223
Mof_O 	O 	0.11117	0.52247	0.29084	-0.227
Mof_O 	O 	0.6357	0.973	0.178	-0.38
Mof_O 	O 	0.866	0.3003	0.5144	-0.324
Mof_O 	O 	0.0503	0.2268	0.7196	-0.463
Mof_O 	O 	0.2665	0.3964	0.7748	-0.368
Mof_O 	O 	0.1422	0.3884	0.818	-0.33
Mof_O 	O 	0.1582	0.069	0.6942	-0.19
Mof_O 	O 	0.16184	0.18232	0.71038	-0.205
Mof_O 	O 	0.30868	0.18618	0.77259	-0.209
Mof_O 	O 	0.31727	0.24398	0.69435	-0.562
Mof_O 	O 	0.24083	0.29923	0.67804	-0.577
Mof_O 	O 	0.20377	0.28396	0.76493	-0.188
Mof_O 	O 	0.6037	0.27431	0.06099	-0.354
Mof_O 	O 	0.32095	0.10147	0.76601	-0.612
Mof_O 	O 	0.42606	0.17418	0.92272	-0.196
Mof_O 	O 	0.49021	0.23626	0.87356	-0.338
Mof_O 	O 	0.41404	0.23877	0.76959	-0.33
Mof_O 	O 	0.4485	0.1579	0.1112	-0.38
Mof_O 	O 	0.3365	0.0204	0.8084	-0.486
Mof_O 	O 	0.5428	0.1874	0.9385	-0.29
Mof_O 	O 	0.4338	0.1403	0.9917	-0.143
Mof_O 	O 	0.54291	0.35505	0.31764	-0.521
Mof_O 	O 	0.62083	0.47979	0.21923	-0.324
Mof_O 	O 	0.63286	0.3838	0.14254	-0.366
Mof_O 	O 	0.54986	0.31285	0.21096	-0.609
Mof_O 	O 	0.402	0.5086	0.3419	-0.148
Mof_O 	O 	0.48517	0.47106	0.31187	-0.214
Mof_O 	O 	0.4352	0.55625	0.24065	-0.224
Mof_O 	O 	0.55984	0.62273	0.29373	-0.468
Mof_O 	O 	0.62739	0.56024	0.31867	-0.531
Mof_O 	O 	0.52485	0.44642	0.24814	-0.205
Mof_O 	O 	0.22904	0.5332	0.20046	-0.487
Mof_O 	O 	0.364	0.6381	0.1376	-0.335
Mof_O 	O 	0.4718	0.6615	0.2341	-0.306
Mof_O 	O 	0.3513	0.56376	0.24894	-0.592
Mof_O 	O 	0.1413	0.3504	0.9757	-0.325
Mof_O 	O 	0.1959	0.4934	0.0436	-0.272
Mof_O 	O 	0.2203	0.4464	0.9066	-0.138
Mof_O 	O 	0.2639	0.574	0.9466	-0.485
Mof_O 	O 	0.2958	0.6402	0.0657	-0.541
Mof_O 	O 	0.2825	0.5369	0.0938	-0.223
Mof_O 	O 	0.52247	0.29084	0.11117	-0.227
Mof_O 	O 	0.973	0.178	0.6357	-0.38
Mof_O 	O 	0.3003	0.5144	0.866	-0.324
Mof_O 	O 	0.2268	0.7196	0.0503	-0.463
Mof_O 	O 	0.3964	0.7748	0.2665	-0.368
Mof_O 	O 	0.3884	0.818	0.1422	-0.33
Mof_O 	O 	0.069	0.6942	0.1582	-0.19
Mof_O 	O 	0.18232	0.71038	0.16184	-0.205
Mof_O 	O 	0.18618	0.77259	0.30868	-0.209
Mof_O 	O 	0.24398	0.69435	0.31727	-0.562
Mof_O 	O 	0.29923	0.67804	0.24083	-0.577
Mof_O 	O 	0.28396	0.76493	0.20377	-0.188
Mof_O 	O 	0.27431	0.06099	0.6037	-0.354
Mof_O 	O 	0.10147	0.76601	0.32095	-0.612
Mof_O 	O 	0.17418	0.92272	0.42606	-0.196
Mof_O 	O 	0.23626	0.87356	0.49021	-0.338
Mof_O 	O 	0.23877	0.76959	0.41404	-0.33
Mof_O 	O 	0.1579	0.1112	0.4485	-0.38
Mof_O 	O 	0.0204	0.8084	0.3365	-0.486
Mof_O 	O 	0.1874	0.9385	0.5428	-0.29
Mof_O 	O 	0.1403	0.9917	0.4338	-0.143
Mof_O 	O 	0.35505	0.31764	0.54291	-0.521
Mof_O 	O 	0.47979	0.21923	0.62083	-0.324
Mof_O 	O 	0.3838	0.14254	0.63286	-0.366
Mof_O 	O 	0.31285	0.21096	0.54986	-0.609
Mof_O 	O 	0.5086	0.3419	0.402	-0.148
Mof_O 	O 	0.47106	0.31187	0.48517	-0.214
Mof_O 	O 	0.55625	0.24065	0.4352	-0.224
Mof_O 	O 	0.62273	0.29373	0.55984	-0.468
Mof_O 	O 	0.56024	0.31867	0.62739	-0.531
Mof_O 	O 	0.44642	0.24814	0.52485	-0.205
Mof_O 	O 	0.5332	0.20046	0.22904	-0.487
Mof_O 	O 	0.6381	0.1376	0.364	-0.335
Mof_O 	O 	0.6615	0.2341	0.4718	-0.306
Mof_O 	O 	0.56376	0.24894	0.3513	-0.592
Mof_O 	O 	0.3504	0.9757	0.1413	-0.325
Mof_O 	O 	0.4934	0.0436	0.1959	-0.272
Mof_O 	O 	0.4464	0.9066	0.2203	-0.138
Mof_O 	O 	0.574	0.9466	0.2639	-0.485
Mof_O 	O 	0.6402	0.0657	0.2958	-0.541
Mof_O 	O 	0.5369	0.0938	0.2825	-0.223
Mof_O 	O 	0.29084	0.11117	0.52247	-0.227
Mof_O 	O 	0.178	0.6357	0.973	-0.38
Mof_O 	O 	0.5144	0.866	0.3003	-0.324
Mof_O 	O 	0.62815	0.37185	-0	-0.595
Mof_O 	O 	-7.60571e-18	0.62815	0.37185	-0.595
Mof_O 	O 	0.37185	0	0.62815	-0.595
Mof_H 	H 	0.3428	0.8559	0.3794	0.06
Mof_H 	H 	0.3109	0.9016	0.3143	0.029
Mof_H 	H 	0.3091	0.9934	0.3605	0.111
Mof_H 	H 	0.3283	0.0337	0.4543	-0.061
Mof_H 	H 	0.3643	0.9962	0.5215	0.126
Mof_C 	C 	0.373	0.8915	0.4921	0.273
Mof_C 	C 	0.3575	0.9231	0.4544	0.02
Mof_C 	C 	0.3413	0.8928	0.3947	-0.067
Mof_C 	C 	0.3217	0.9195	0.3555	0.044
Mof_C 	C 	0.3202	0.9739	0.3839	-0.167
Mof_C 	C 	0.3331	0.9987	0.4398	0.192
Mof_C 	C 	0.3538	0.9767	0.4804	-0.127
Mof_O 	O 	0.39696	0.85889	0.47975	-0.233
Mof_O 	O 	0.35664	0.89886	0.53419	-0.215
Mof_H 	H 	0.3794	0.3428	0.8559	0.06
Mof_H 	H 	0.3143	0.3109	0.9016	0.029
Mof_H 	H 	0.3605	0.3091	0.9934	0.111
Mof_H 	H 	0.4543	0.3283	0.0337	-0.061
Mof_H 	H 	0.5215	0.3643	0.9962	0.126
Mof_C 	C 	0.4921	0.373	0.8915	0.273
Mof_C 	C 	0.4544	0.3575	0.9231	0.02
Mof_C 	C 	0.3947	0.3413	0.8928	-0.067
Mof_C 	C 	0.3555	0.3217	0.9195	0.044
Mof_C 	C 	0.3839	0.3202	0.9739	-0.167
Mof_C 	C 	0.4398	0.3331	0.9987	0.192
Mof_C 	C 	0.4804	0.3538	0.9767	-0.127
Mof_O 	O 	0.47975	0.39696	0.85889	-0.233
Mof_O 	O 	0.53419	0.35664	0.89886	-0.215
Mof_H 	H 	0.8559	0.3794	0.3428	0.06
Mof_H 	H 	0.9016	0.3143	0.3109	0.029
Mof_H 	H 	0.9934	0.3605	0.3091	0.111
Mof_H 	H 	0.0337	0.4543	0.3283	-0.061
Mof_H 	H 	0.9962	0.5215	0.3643	0.126
Mof_C 	C 	0.8915	0.4921	0.373	0.273
Mof_C 	C 	0.9231	0.4544	0.3575	0.02
Mof_C 	C 	0.8928	0.3947	0.3413	-0.067
Mof_C 	C 	0.9195	0.3555	0.3217	0.044
Mof_C 	C 	0.9739	0.3839	0.3202	-0.167
Mof_C 	C 	0.9987	0.4398	0.3331	0.192
Mof_C 	C 	0.9767	0.4804	0.3538	-0.127
Mof_O 	O 	0.85889	0.47975	0.39696	-0.233
Mof_O 	O 	0.89886	0.53419	0.35664	-0.215
Mof_H 	H 	0.1441	0.6572	0.6206	0.01
Mof_H 	H 	0.0984	0.6891	0.6857	0.093
Mof_H 	H 	0.0066	0.6909	0.6395	-0.033
Mof_H 	H 	0.9663	0.6717	0.5457	0.185
Mof_H 	H 	0.0038	0.6357	0.4785	-0.006
Mof_C 	C 	0.1085	0.627	0.5079	0.313
Mof_C 	C 	0.0769	0.6425	0.5456	-0.129
Mof_C 	C 	0.1072	0.6587	0.6053	0.074
Mof_C 	C 	0.0805	0.6783	0.6445	-0.164
Mof_C 	C 	0.0261	0.6798	0.6161	0.158
Mof_C 	C 	0.0013	0.6669	0.5602	-0.303
Mof_C 	C 	0.0233	0.6462	0.5196	0.125
Mof_O 	O 	0.14111	0.60304	0.52025	-0.257
Mof_O 	O 	0.10114	0.64336	0.46581	-0.246
Mof_H 	H 	0.6572	0.6206	0.1441	0.01
Mof_H 	H 	0.6891	0.6857	0.0984	0.093
Mof_H 	H 	0.6909	0.6395	0.0066	-0.033
Mof_H 	H 	0.6717	0.5457	0.9663	0.185
Mof_H 	H 	0.6357	0.4785	0.0038	-0.006
Mof_C 	C 	0.627	0.5079	0.1085	0.313
Mof_C 	C 	0.6425	0.5456	0.0769	-0.129
Mof_C 	C 	0.6587	0.6053	0.1072	0.074
Mof_C 	C 	0.6783	0.6445	0.0805	-0.164
Mof_C 	C 	0.6798	0.6161	0.0261	0.158
Mof_C 	C 	0.6669	0.5602	0.0013	-0.303
Mof_C 	C 	0.6462	0.5196	0.0233	0.125
Mof_O 	O 	0.60304	0.52025	0.14111	-0.257
Mof_O 	O 	0.64336	0.46581	0.10114	-0.246
Mof_H 	H 	0.6206	0.1441	0.6572	0.01
Mof_H 	H 	0.6857	0.0984	0.6891	0.093
Mof_H 	H 	0.6395	0.0066	0.6909	-0.033
Mof_H 	H 	0.5457	0.9663	0.6717	0.185
Mof_H 	H 	0.4785	0.0038	0.6357	-0.006
Mof_C 	C 	0.5079	0.1085	0.627	0.313
Mof_C 	C 	0.5456	0.0769	0.6425	-0.129
Mof_C 	C 	0.6053	0.1072	0.6587	0.074
Mof_C 	C 	0.6445	0.0805	0.6783	-0.164
Mof_C 	C 	0.6161	0.0261	0.6798	0.158
Mof_C 	C 	0.5602	0.0013	0.6669	-0.303
Mof_C 	C 	0.5196	0.0233	0.6462	0.125
Mof_O 	O 	0.52025	0.14111	0.60304	-0.257
Mof_O 	O 	0.46581	0.10114	0.64336	-0.246
_end
