data_functionalizedCrystal
_audit_creation_method	'EQeq! by Chris Wilmer'
_symmetry_space_group_name_H-M	'P1'
_symmetry_Int_Tables_number	1
_symmetry_cell_setting	triclinic
loop_
_symmetry_equiv_pos_as_xyz
  x,y,z
_cell_length_a	9.014
_cell_length_b	12.273
_cell_length_c	17.835
_cell_angle_alpha	90
_cell_angle_beta	91.02
_cell_angle_gamma	90
loop_
_atom_site_label
_atom_site_type_symbol
_atom_site_fract_x
_atom_site_fract_y
_atom_site_fract_z
_atom_site_charge
Mof_Cu	Cu	0.62438	0.05625	0.00674	0.792
Mof_Ag	Ag	0.91234	0.08159	0.25736	0.354
Mof_Ag	Ag	0.85461	0.12647	0.75522	0.348
Mof_C 	C 	0.8011	0.0746	0.8599	-0.124
Mof_N 	N 	0.7505	0.0585	0.9163	-0.238
Mof_C 	C 	0.8132	0.0466	0.1552	-0.125
Mof_N 	N 	0.751	0.039	0.0985	-0.24
Mof_Cu	Cu	0.15129	0.28689	0.01479	0.856
Mof_C 	C 	0.0039	0.366	0.8581	-0.111
Mof_N 	N 	0.0589	0.3392	0.9132	-0.206
Mof_N 	N 	0.0276	0.3137	0.1079	-0.21
Mof_C 	C 	0.9635	0.334	0.1599	-0.127
Mof_N 	N 	0.349	0.2038	0.0075	-0.173
Mof_C 	C 	0.4449	0.1415	0.0069	-0.316
Mof_N 	N 	0.255	0.4293	0.0355	-0.245
Mof_C 	C 	0.2466	0.5168	0.9916	0.076
Mof_H 	H 	0.1925	0.5125	0.9469	-0.027
Mof_C 	C 	0.3157	0.6138	0.0103	-0.157
Mof_H 	H 	0.3079	0.6737	0.9785	0.045
Mof_C 	C 	0.3952	0.6206	0.0756	0.062
Mof_H 	H 	0.4432	0.6851	0.0888	-0.027
Mof_C 	C 	0.4039	0.5322	0.1215	-0.173
Mof_H 	H 	0.4579	0.535	0.1664	0.047
Mof_C 	C 	0.3303	0.4382	0.0998	0.08
Mof_H 	H 	0.334	0.3783	0.1317	-0.048
Mof_N 	N 	0.0503	0.1424	0.0025	-0.418
Mof_H 	H 	0.9551	0.1528	0.9905	0.1
Mof_H 	H 	0.0936	0.1049	0.9662	0.101
Mof_H 	H 	0.0574	0.1053	0.0453	0.101
Mof_Cu	Cu	0.37562	0.55625	0.49326	0.792
Mof_Ag	Ag	0.08766	0.58159	0.24264	0.359
Mof_Ag	Ag	0.14539	0.62647	0.74478	0.347
Mof_C 	C 	0.1989	0.5746	0.6401	-0.124
Mof_N 	N 	0.2495	0.5585	0.5837	-0.238
Mof_C 	C 	0.1868	0.5466	0.3448	-0.124
Mof_N 	N 	0.249	0.539	0.4015	-0.239
Mof_Cu	Cu	0.84871	0.78689	0.48521	0.856
Mof_C 	C 	0.9961	0.866	0.6419	-0.109
Mof_N 	N 	0.9411	0.8392	0.5868	-0.207
Mof_N 	N 	0.9724	0.8137	0.3921	-0.209
Mof_C 	C 	0.0365	0.834	0.3401	-0.128
Mof_N 	N 	0.651	0.7038	0.4925	-0.173
Mof_C 	C 	0.5551	0.6415	0.4931	-0.316
Mof_N 	N 	0.745	0.9293	0.4645	-0.245
Mof_C 	C 	0.7534	0.0168	0.5084	0.078
Mof_H 	H 	0.8075	0.0125	0.5531	-0.028
Mof_C 	C 	0.6843	0.1138	0.4897	-0.162
Mof_H 	H 	0.6921	0.1737	0.5215	0.047
Mof_C 	C 	0.6048	0.1206	0.4244	0.067
Mof_H 	H 	0.5568	0.1851	0.4112	-0.029
Mof_C 	C 	0.5961	0.0322	0.3785	-0.178
Mof_H 	H 	0.5421	0.035	0.3336	0.049
Mof_C 	C 	0.6697	0.9382	0.4002	0.084
Mof_H 	H 	0.666	0.8783	0.3683	-0.049
Mof_N 	N 	0.9497	0.6424	0.4975	-0.416
Mof_H 	H 	0.0449	0.6528	0.5095	0.099
Mof_H 	H 	0.9064	0.6049	0.5338	0.099
Mof_H 	H 	0.9426	0.6053	0.4547	0.1
Mof_Cu	Cu	0.37562	0.94375	0.99326	0.792
Mof_Ag	Ag	0.08766	0.91841	0.74264	0.354
Mof_Ag	Ag	0.14539	0.87353	0.24478	0.348
Mof_C 	C 	0.1989	0.9254	0.1401	-0.124
Mof_N 	N 	0.2495	0.9415	0.0837	-0.238
Mof_C 	C 	0.1868	0.9534	0.8448	-0.125
Mof_N 	N 	0.249	0.961	0.9015	-0.24
Mof_Cu	Cu	0.84871	0.71311	0.98521	0.856
Mof_C 	C 	0.9961	0.634	0.1419	-0.111
Mof_N 	N 	0.9411	0.6608	0.0868	-0.206
Mof_N 	N 	0.9724	0.6863	0.8921	-0.21
Mof_C 	C 	0.0365	0.666	0.8401	-0.127
Mof_N 	N 	0.651	0.7962	0.9925	-0.173
Mof_C 	C 	0.5551	0.8585	0.9931	-0.316
Mof_N 	N 	0.745	0.5707	0.9645	-0.245
Mof_C 	C 	0.7534	0.4832	0.0084	0.076
Mof_H 	H 	0.8075	0.4875	0.0531	-0.027
Mof_C 	C 	0.6843	0.3862	0.9897	-0.157
Mof_H 	H 	0.6921	0.3263	0.0215	0.045
Mof_C 	C 	0.6048	0.3794	0.9244	0.062
Mof_H 	H 	0.5568	0.3149	0.9112	-0.027
Mof_C 	C 	0.5961	0.4678	0.8785	-0.173
Mof_H 	H 	0.5421	0.465	0.8336	0.047
Mof_C 	C 	0.6697	0.5618	0.9002	0.08
Mof_H 	H 	0.666	0.6217	0.8683	-0.048
Mof_N 	N 	0.9497	0.8576	0.9975	-0.418
Mof_H 	H 	0.0449	0.8472	0.0095	0.1
Mof_H 	H 	0.9064	0.8951	0.0338	0.101
Mof_H 	H 	0.9426	0.8947	0.9547	0.101
Mof_Cu	Cu	0.62438	0.44375	0.50674	0.792
Mof_Ag	Ag	0.91234	0.41841	0.75736	0.359
Mof_Ag	Ag	0.85461	0.37353	0.25522	0.347
Mof_C 	C 	0.8011	0.4254	0.3599	-0.124
Mof_N 	N 	0.7505	0.4415	0.4163	-0.238
Mof_C 	C 	0.8132	0.4534	0.6552	-0.124
Mof_N 	N 	0.751	0.461	0.5985	-0.239
Mof_Cu	Cu	0.15129	0.21311	0.51479	0.856
Mof_C 	C 	0.0039	0.134	0.3581	-0.109
Mof_N 	N 	0.0589	0.1608	0.4132	-0.207
Mof_N 	N 	0.0276	0.1863	0.6079	-0.209
Mof_C 	C 	0.9635	0.166	0.6599	-0.128
Mof_N 	N 	0.349	0.2962	0.5075	-0.173
Mof_C 	C 	0.4449	0.3585	0.5069	-0.316
Mof_N 	N 	0.255	0.0707	0.5355	-0.245
Mof_C 	C 	0.2466	0.9832	0.4916	0.078
Mof_H 	H 	0.1925	0.9875	0.4469	-0.028
Mof_C 	C 	0.3157	0.8862	0.5103	-0.162
Mof_H 	H 	0.3079	0.8263	0.4785	0.047
Mof_C 	C 	0.3952	0.8794	0.5756	0.067
Mof_H 	H 	0.4432	0.8149	0.5888	-0.029
Mof_C 	C 	0.4039	0.9678	0.6215	-0.178
Mof_H 	H 	0.4579	0.965	0.6664	0.049
Mof_C 	C 	0.3303	0.0618	0.5998	0.084
Mof_H 	H 	0.334	0.1217	0.6317	-0.049
Mof_N 	N 	0.0503	0.3576	0.5025	-0.416
Mof_H 	H 	0.9551	0.3472	0.4905	0.099
Mof_H 	H 	0.0936	0.3951	0.4662	0.099
Mof_H 	H 	0.0574	0.3947	0.5453	0.1
_end
