data_functionalizedCrystal
_audit_creation_method	'EQeq! by Chris Wilmer'
_symmetry_space_group_name_H-M	'P1'
_symmetry_Int_Tables_number	1
_symmetry_cell_setting	triclinic
loop_
_symmetry_equiv_pos_as_xyz
  x,y,z
_cell_length_a	16.039
_cell_length_b	17.851
_cell_length_c	11.558
_cell_angle_alpha	90
_cell_angle_beta	90
_cell_angle_gamma	90
loop_
_atom_site_label
_atom_site_type_symbol
_atom_site_fract_x
_atom_site_fract_y
_atom_site_fract_z
_atom_site_charge
Mof_C 	C 	0.2001	0.3924	0.8215	-0.029
Mof_C 	C 	0.4602	0.4506	0.2554	0.119
Mof_H 	H 	0.43011	0.41459	0.21497	-0.021
Mof_C 	C 	0.4592	0.4476	0.3716	-0.163
Mof_H 	H 	0.43011	0.40895	0.40752	0.086
Mof_C 	C 	0.4435	0.1319	0.2553	0.128
Mof_H 	H 	0.47336	0.09552	0.21539	-0.022
Mof_C 	C 	0.4496	0.1316	0.3715	-0.176
Mof_H 	H 	0.48289	0.09617	0.40807	0.091
Mof_C 	C 	0.4072	0.1832	0.4357	0.078
Mof_C 	C 	0.3658	0.236	0.375	-0.157
Mof_H 	H 	0.33909	0.275	0.41345	0.084
Mof_C 	C 	0.3631	0.232	0.2559	0.092
Mof_H 	H 	0.33403	0.26887	0.21587	-0.006
Mof_N 	N 	0.2031	0.3916	0.7217	-0.088
Mof_N 	N 	0.4004	0.1777	0.1949	-0.207
Mof_C 	C 	0.7999	0.6076	0.8215	-0.028
Mof_C 	C 	0.5398	0.5494	0.2554	0.118
Mof_H 	H 	0.56989	0.58541	0.21497	-0.021
Mof_C 	C 	0.5408	0.5524	0.3716	-0.163
Mof_H 	H 	0.56989	0.59105	0.40752	0.086
Mof_C 	C 	0.5565	0.8681	0.2553	0.13
Mof_H 	H 	0.52664	0.90448	0.21539	-0.019
Mof_C 	C 	0.5504	0.8684	0.3715	-0.175
Mof_H 	H 	0.51711	0.90383	0.40807	0.094
Mof_C 	C 	0.5928	0.8168	0.4357	0.08
Mof_C 	C 	0.6342	0.764	0.375	-0.157
Mof_H 	H 	0.66091	0.725	0.41345	0.085
Mof_C 	C 	0.6369	0.768	0.2559	0.094
Mof_H 	H 	0.66597	0.73113	0.21587	-0.006
Mof_N 	N 	0.7969	0.6084	0.7217	-0.086
Mof_N 	N 	0.5996	0.8223	0.1949	-0.206
Mof_C 	C 	0.2999	0.8924	0.1785	-0.099
Mof_C 	C 	0.0398	0.9506	0.7446	0.117
Mof_H 	H 	0.06989	0.91459	0.78503	0.004
Mof_C 	C 	0.0408	0.9476	0.6284	-0.135
Mof_H 	H 	0.06989	0.90895	0.59248	0.08
Mof_C 	C 	0.0565	0.6319	0.7447	0.124
Mof_H 	H 	0.02664	0.59552	0.78461	0.002
Mof_C 	C 	0.0504	0.6316	0.6285	-0.161
Mof_H 	H 	0.01711	0.59617	0.59193	0.087
Mof_C 	C 	0.0928	0.6832	0.5643	0.07
Mof_C 	C 	0.1342	0.736	0.625	-0.145
Mof_H 	H 	0.16091	0.775	0.58655	0.083
Mof_C 	C 	0.1369	0.732	0.7441	0.093
Mof_H 	H 	0.16597	0.76887	0.78413	0.017
Mof_N 	N 	0.2969	0.8916	0.2783	-0.08
Mof_N 	N 	0.0996	0.6777	0.8051	-0.176
Mof_C 	C 	0.7001	0.1076	0.1785	-0.102
Mof_C 	C 	0.9602	0.0494	0.7446	0.118
Mof_H 	H 	0.93011	0.08541	0.78503	0.004
Mof_C 	C 	0.9592	0.0524	0.6284	-0.134
Mof_H 	H 	0.93011	0.09105	0.59248	0.08
Mof_C 	C 	0.9435	0.3681	0.7447	0.126
Mof_H 	H 	0.97336	0.40448	0.78461	0.007
Mof_C 	C 	0.9496	0.3684	0.6285	-0.161
Mof_H 	H 	0.98289	0.40383	0.59193	0.092
Mof_C 	C 	0.9072	0.3168	0.5643	0.071
Mof_C 	C 	0.8658	0.264	0.625	-0.145
Mof_H 	H 	0.83909	0.225	0.58655	0.083
Mof_C 	C 	0.8631	0.268	0.7441	0.095
Mof_H 	H 	0.83403	0.23113	0.78413	0.016
Mof_N 	N 	0.7031	0.1084	0.2783	-0.081
Mof_N 	N 	0.9004	0.3223	0.8051	-0.176
Mof_C 	C 	0.7999	0.6076	0.1785	-0.099
Mof_C 	C 	0.5398	0.5494	0.7446	0.115
Mof_H 	H 	0.56989	0.58541	0.78503	0.004
Mof_C 	C 	0.5408	0.5524	0.6284	-0.147
Mof_H 	H 	0.56989	0.59105	0.59248	0.083
Mof_C 	C 	0.5565	0.8681	0.7447	0.126
Mof_H 	H 	0.52664	0.90448	0.78461	0.006
Mof_C 	C 	0.5504	0.8684	0.6285	-0.161
Mof_H 	H 	0.51711	0.90383	0.59193	0.091
Mof_C 	C 	0.5928	0.8168	0.5643	0.072
Mof_C 	C 	0.6342	0.764	0.625	-0.145
Mof_H 	H 	0.66091	0.725	0.58655	0.083
Mof_C 	C 	0.6369	0.768	0.7441	0.095
Mof_H 	H 	0.66597	0.73113	0.78413	0.016
Mof_N 	N 	0.7969	0.6084	0.2783	-0.079
Mof_N 	N 	0.5996	0.8223	0.8051	-0.176
Mof_C 	C 	0.2001	0.3924	0.1785	-0.102
Mof_C 	C 	0.4602	0.4506	0.7446	0.115
Mof_H 	H 	0.43011	0.41459	0.78503	0.004
Mof_C 	C 	0.4592	0.4476	0.6284	-0.147
Mof_H 	H 	0.43011	0.40895	0.59248	0.083
Mof_C 	C 	0.4435	0.1319	0.7447	0.124
Mof_H 	H 	0.47336	0.09552	0.78461	0.004
Mof_C 	C 	0.4496	0.1316	0.6285	-0.161
Mof_H 	H 	0.48289	0.09617	0.59193	0.088
Mof_C 	C 	0.4072	0.1832	0.5643	0.069
Mof_C 	C 	0.3658	0.236	0.625	-0.145
Mof_H 	H 	0.33909	0.275	0.58655	0.082
Mof_C 	C 	0.3631	0.232	0.7441	0.093
Mof_H 	H 	0.33403	0.26887	0.78413	0.017
Mof_N 	N 	0.2031	0.3916	0.2783	-0.082
Mof_N 	N 	0.4004	0.1777	0.8051	-0.176
Mof_C 	C 	0.7001	0.1076	0.8215	-0.03
Mof_C 	C 	0.9602	0.0494	0.2554	0.123
Mof_H 	H 	0.93011	0.08541	0.21497	-0.021
Mof_C 	C 	0.9592	0.0524	0.3716	-0.15
Mof_H 	H 	0.93011	0.09105	0.40752	0.083
Mof_C 	C 	0.9435	0.3681	0.2553	0.13
Mof_H 	H 	0.97336	0.40448	0.21539	-0.018
Mof_C 	C 	0.9496	0.3684	0.3715	-0.175
Mof_H 	H 	0.98289	0.40383	0.40807	0.095
Mof_C 	C 	0.9072	0.3168	0.4357	0.08
Mof_C 	C 	0.8658	0.264	0.375	-0.157
Mof_H 	H 	0.83909	0.225	0.41345	0.085
Mof_C 	C 	0.8631	0.268	0.2559	0.094
Mof_H 	H 	0.83403	0.23113	0.21587	-0.006
Mof_N 	N 	0.7031	0.1084	0.7217	-0.088
Mof_N 	N 	0.9004	0.3223	0.1949	-0.206
Mof_C 	C 	0.2999	0.8924	0.8215	-0.028
Mof_C 	C 	0.0398	0.9506	0.2554	0.122
Mof_H 	H 	0.06989	0.91459	0.21497	-0.022
Mof_C 	C 	0.0408	0.9476	0.3716	-0.151
Mof_H 	H 	0.06989	0.90895	0.40752	0.083
Mof_C 	C 	0.0565	0.6319	0.2553	0.128
Mof_H 	H 	0.02664	0.59552	0.21539	-0.024
Mof_C 	C 	0.0504	0.6316	0.3715	-0.176
Mof_H 	H 	0.01711	0.59617	0.40807	0.09
Mof_C 	C 	0.0928	0.6832	0.4357	0.079
Mof_C 	C 	0.1342	0.736	0.375	-0.157
Mof_H 	H 	0.16091	0.775	0.41345	0.085
Mof_C 	C 	0.1369	0.732	0.2559	0.092
Mof_H 	H 	0.16597	0.76887	0.21587	-0.006
Mof_N 	N 	0.2969	0.8916	0.7217	-0.086
Mof_N 	N 	0.0996	0.6777	0.1949	-0.207
Mof_C 	C 	0.0859	0.3483	-0	-0.142
Mof_C 	C 	0.1569	0.4982	-0	-0.119
Mof_C 	C 	0.2519	0.2895	-0	-0.133
Mof_C 	C 	0.3159	0.4316	-0	-0.128
Mof_N 	N 	0.0202	0.322	-0	-0.179
Mof_N 	N 	0.1308	0.5571	-0	-0.18
Mof_N 	N 	0.2933	0.2356	-0	-0.184
Mof_N 	N 	0.3819	0.4472	-0	-0.17
Mof_Mn	Mn	0.19965	0.39083	-0	0.701
Mof_Mn	Mn	0.39321	0.16858	-0	0.673
Mof_C 	C 	0.9141	0.6517	-0	-0.135
Mof_C 	C 	0.8431	0.5018	-0	-0.116
Mof_C 	C 	0.7481	0.7105	-0	-0.13
Mof_C 	C 	0.6841	0.5684	-0	-0.128
Mof_N 	N 	0.9798	0.678	-0	-0.167
Mof_N 	N 	0.8692	0.4429	-0	-0.179
Mof_N 	N 	0.7067	0.7644	-0	-0.182
Mof_N 	N 	0.6181	0.5528	-0	-0.17
Mof_Mn	Mn	0.80035	0.60917	-0	0.703
Mof_Mn	Mn	0.60679	0.83142	-0	0.678
Mof_C 	C 	0.4141	0.8483	-0	-0.138
Mof_C 	C 	0.3431	0.9982	-0	-0.104
Mof_C 	C 	0.2481	0.7895	-0	-0.132
Mof_C 	C 	0.1841	0.9316	-0	-0.127
Mof_N 	N 	0.4798	0.822	-0	-0.174
Mof_N 	N 	0.3692	0.0571	-0	-0.189
Mof_N 	N 	0.2067	0.7356	-0	-0.183
Mof_N 	N 	0.1181	0.9472	-0	-0.165
Mof_Mn	Mn	0.30035	0.89083	-0	0.701
Mof_Mn	Mn	0.10679	0.66858	-0	0.669
Mof_C 	C 	0.5859	0.1517	-0	-0.14
Mof_C 	C 	0.6569	0.0018	-0	-0.13
Mof_C 	C 	0.7519	0.2105	-0	-0.132
Mof_C 	C 	0.8159	0.0684	-0	-0.129
Mof_N 	N 	0.5202	0.178	-0	-0.173
Mof_N 	N 	0.6308	0.9429	-0	-0.169
Mof_N 	N 	0.7933	0.2644	-0	-0.183
Mof_N 	N 	0.8819	0.0528	-0	-0.165
Mof_Mn	Mn	0.69965	0.10917	-0	0.705
Mof_Mn	Mn	0.89321	0.33142	-0	0.682
Mof_C 	C 	0.5	0.5	0.4402	0.072
Mof_N 	N 	0.5	0.5	0.1968	-0.214
Mof_C 	C 	1.51252e-33	0	0.5598	0.042
Mof_N 	N 	2.17016e-33	0	0.8032	-0.192
Mof_C 	C 	0.5	0.5	0.5598	0.061
Mof_N 	N 	0.5	0.5	0.8032	-0.183
Mof_C 	C 	5.00352e-33	3.81415e-33	0.4402	0.053
Mof_N 	N 	2.43881e-33	0	0.1968	-0.225
Mof_Mn	Mn	0.5	0.5	-0	0.574
Mof_Mn	Mn	-0	0	-0	0.555
_end
