data_functionalizedCrystal
_audit_creation_method	'EQeq! by Chris Wilmer'
_symmetry_space_group_name_H-M	'P1'
_symmetry_Int_Tables_number	1
_symmetry_cell_setting	triclinic
loop_
_symmetry_equiv_pos_as_xyz
  x,y,z
_cell_length_a	11.361
_cell_length_b	15.532
_cell_length_c	16.269
_cell_angle_alpha	90
_cell_angle_beta	94.661
_cell_angle_gamma	90
loop_
_atom_site_label
_atom_site_type_symbol
_atom_site_fract_x
_atom_site_fract_y
_atom_site_fract_z
_atom_site_charge
Mof_Zn	Zn	0.02421	0.37401	0.53811	1.225
Mof_Zn	Zn	0.97579	0.87401	0.96189	1.224
Mof_Zn	Zn	0.97579	0.62599	0.46189	1.225
Mof_Zn	Zn	0.02421	0.12599	0.03811	1.224
Mof_H 	H 	0.982	0.686	0.723	0.082
Mof_H 	H 	0.768	0.883	0.843	0.004
Mof_H 	H 	0.371	0.181	0.302	0.049
Mof_H 	H 	0.606	0.204	0.947	0.073
Mof_H 	H 	0.232	0.383	0.657	0.004
Mof_H 	H 	0.172	0.959	0.86	0.01
Mof_H 	H 	0.986	0.078	0.55	0.117
Mof_H 	H 	0.436	0.099	0.166	0.078
Mof_H 	H 	0.582	0.847	0.077	0.112
Mof_H 	H 	0.828	0.459	0.64	0.009
Mof_H 	H 	0.418	0.153	0.923	0.112
Mof_H 	H 	0.394	0.704	0.553	0.073
Mof_H 	H 	0.777	0.836	0.072	-0.011
Mof_H 	H 	0.394	0.796	0.053	0.072
Mof_H 	H 	0.184	0.789	0.05	0.016
Mof_H 	H 	0.223	0.164	0.928	-0.011
Mof_H 	H 	0.606	0.296	0.447	0.072
Mof_H 	H 	0.816	0.289	0.45	0.016
Mof_H 	H 	0.946	0.565	0.254	0.093
Mof_H 	H 	0.564	0.901	0.834	0.077
Mof_H 	H 	0.816	0.211	0.95	0.016
Mof_H 	H 	0.018	0.186	0.777	0.08
Mof_H 	H 	0.014	0.578	0.95	0.115
Mof_H 	H 	0.768	0.617	0.343	0.003
Mof_H 	H 	0.232	0.117	0.157	0.003
Mof_H 	H 	0.014	0.922	0.45	0.116
Mof_H 	H 	0.828	0.041	0.14	0.009
Mof_H 	H 	0.621	0.474	0.634	0.047
Mof_H 	H 	0.564	0.599	0.334	0.077
Mof_H 	H 	0.172	0.541	0.36	0.008
Mof_H 	H 	0.946	0.935	0.754	0.093
Mof_H 	H 	0.018	0.314	0.277	0.081
Mof_H 	H 	0.418	0.347	0.423	0.111
Mof_H 	H 	0.982	0.814	0.223	0.08
Mof_H 	H 	0.379	0.526	0.366	0.047
Mof_H 	H 	0.436	0.401	0.666	0.077
Mof_H 	H 	0.223	0.336	0.428	-0.011
Mof_H 	H 	0.371	0.319	0.802	0.048
Mof_H 	H 	0.986	0.422	0.05	0.115
Mof_H 	H 	0.629	0.681	0.198	0.048
Mof_H 	H 	0.184	0.711	0.55	0.016
Mof_H 	H 	0.629	0.819	0.698	0.048
Mof_H 	H 	0.777	0.664	0.572	-0.011
Mof_H 	H 	0.582	0.653	0.577	0.111
Mof_H 	H 	0.054	0.435	0.746	0.093
Mof_H 	H 	0.054	0.065	0.246	0.093
Mof_H 	H 	0.379	0.974	0.866	0.047
Mof_H 	H 	0.621	0.026	0.134	0.047
Mof_C 	C 	0.2207	0.5786	0.4023	0.055
Mof_C 	C 	0.999	0.6482	0.8418	0.001
Mof_C 	C 	0.9819	0.424	0.1097	-0.126
Mof_C 	C 	0.2804	0.1137	0.1074	0.088
Mof_C 	C 	0.7196	0.6137	0.3926	0.088
Mof_C 	C 	0.2996	0.3335	0.8331	-0.057
Mof_C 	C 	0.3893	0.1465	0.9705	-0.2
Mof_C 	C 	0.3893	0.3535	0.4705	-0.2
Mof_C 	C 	0.9626	0.5097	0.2325	-0.126
Mof_C 	C 	0.036	0.0036	0.353	0.194
Mof_C 	C 	0.2295	0.8352	0.0147	0.063
Mof_C 	C 	0.001	0.3518	0.1582	0.001
Mof_C 	C 	0.5897	0.1221	0.0402	0.023
Mof_C 	C 	0.4026	0.3894	0.6105	-0.142
Mof_C 	C 	0.5897	0.3779	0.5402	0.022
Mof_C 	C 	0.984	0.064	0.7803	-0.041
Mof_C 	C 	0.342	0.5791	0.4006	-0.074
Mof_C 	C 	0.984	0.436	0.2803	-0.036
Mof_C 	C 	0.3513	0.667	0.5179	-0.11
Mof_C 	C 	0.8008	0.6589	0.1507	0.005
Mof_C 	C 	0.2804	0.3863	0.6074	0.088
Mof_C 	C 	0.2676	0.3526	0.4722	0.12
Mof_C 	C 	0.4103	0.8779	0.9598	0.023
Mof_C 	C 	0.6487	0.333	0.4821	-0.11
Mof_C 	C 	0.016	0.2347	0.618	0.276
Mof_C 	C 	0.5408	0.8751	0.9601	0.097
Mof_C 	C 	0.001	0.1482	0.6582	0.007
Mof_C 	C 	0.658	0.0791	0.0994	-0.074
Mof_C 	C 	0.036	0.4964	0.853	0.192
Mof_C 	C 	0.7004	0.8335	0.6669	-0.057
Mof_C 	C 	0.0374	0.4903	0.7675	-0.126
Mof_C 	C 	0.4103	0.6221	0.4598	0.022
Mof_C 	C 	0.984	0.7347	0.882	0.277
Mof_C 	C 	0.983	0.4422	0.372	0.377
Mof_C 	C 	0.7004	0.6665	0.1669	-0.057
Mof_C 	C 	0.0374	0.0097	0.2675	-0.125
Mof_C 	C 	0.5974	0.6106	0.3895	-0.142
Mof_C 	C 	0.2676	0.1474	0.9722	0.123
Mof_C 	C 	0.7196	0.8863	0.8926	0.088
Mof_C 	C 	0.6107	0.6465	0.5295	-0.2
Mof_C 	C 	0.017	0.9422	0.128	0.37
Mof_C 	C 	0.9241	0.8463	0.629	0.096
Mof_C 	C 	0.7324	0.8526	0.0278	0.123
Mof_C 	C 	0.4592	0.3751	0.5399	0.098
Mof_C 	C 	0.6107	0.8535	0.0295	-0.2
Mof_C 	C 	0.4592	0.1249	0.0399	0.097
Mof_C 	C 	0.017	0.5578	0.628	0.377
Mof_C 	C 	0.7793	0.4214	0.5977	0.055
Mof_C 	C 	0.984	0.7653	0.382	0.276
Mof_C 	C 	0.016	0.2653	0.118	0.277
Mof_C 	C 	0.983	0.0578	0.872	0.37
Mof_C 	C 	0.7705	0.3352	0.4853	0.065
Mof_C 	C 	0.658	0.4209	0.5994	-0.074
Mof_C 	C 	0.964	0.9964	0.647	0.194
Mof_C 	C 	0.1992	0.3411	0.8493	0.005
Mof_C 	C 	0.2295	0.6648	0.5147	0.065
Mof_C 	C 	0.999	0.8518	0.3418	0.007
Mof_C 	C 	0.9819	0.076	0.6097	-0.135
Mof_C 	C 	0.2207	0.9214	0.9023	0.055
Mof_C 	C 	0.2996	0.1665	0.3331	-0.057
Mof_C 	C 	0.964	0.5036	0.147	0.192
Mof_C 	C 	0.7793	0.0786	0.0977	0.055
Mof_C 	C 	0.0031	0.3574	0.2433	-0.057
Mof_C 	C 	0.9626	0.9903	0.7325	-0.125
Mof_C 	C 	0.6487	0.167	0.9821	-0.11
Mof_C 	C 	0.0759	0.1537	0.371	0.096
Mof_C 	C 	0.1992	0.1589	0.3493	0.005
Mof_C 	C 	0.9969	0.6426	0.7567	-0.057
Mof_C 	C 	0.016	0.564	0.7197	-0.036
Mof_C 	C 	0.0181	0.924	0.3903	-0.135
Mof_C 	C 	0.9241	0.6537	0.129	0.097
Mof_C 	C 	0.0759	0.3463	0.871	0.097
Mof_C 	C 	0.0181	0.576	0.8903	-0.126
Mof_C 	C 	0.3513	0.833	0.0179	-0.11
Mof_C 	C 	0.9969	0.8574	0.2567	-0.052
Mof_C 	C 	0.7705	0.1648	0.9853	0.063
Mof_C 	C 	0.5974	0.8894	0.8895	-0.142
Mof_C 	C 	0.7324	0.6474	0.5278	0.12
Mof_C 	C 	0.016	0.936	0.2197	-0.041
Mof_C 	C 	0.4026	0.1106	0.1105	-0.142
Mof_C 	C 	0.342	0.9209	0.9006	-0.074
Mof_C 	C 	0.0031	0.1426	0.7433	-0.052
Mof_C 	C 	0.5408	0.6249	0.4601	0.098
Mof_C 	C 	0.8008	0.8411	0.6507	0.005
Mof_N 	N 	0.2128	0.371	0.539	-0.241
Mof_N 	N 	0.164	0.8816	0.9593	-0.228
Mof_N 	N 	0.164	0.6184	0.4593	-0.229
Mof_N 	N 	0.7872	0.629	0.461	-0.241
Mof_N 	N 	0.836	0.3816	0.5407	-0.229
Mof_N 	N 	0.7872	0.871	0.961	-0.243
Mof_N 	N 	0.2128	0.129	0.039	-0.243
Mof_N 	N 	0.836	0.1184	0.0407	-0.228
Mof_O 	O 	0.0302	0.19925	0.16157	-0.356
Mof_O 	O 	0.0115	0.26194	0.0408	-0.378
Mof_O 	O 	0.9874	0.62405	0.58692	-0.447
Mof_O 	O 	0.0115	0.23806	0.5408	-0.375
Mof_O 	O 	0.0302	0.30075	0.66157	-0.355
Mof_O 	O 	0.9885	0.73806	0.9592	-0.378
Mof_O 	O 	0.0474	0.48806	0.59754	-0.48
Mof_O 	O 	0.0505	0.0716	0.40564	-0.228
Mof_O 	O 	0.0505	0.4284	0.90564	-0.227
Mof_O 	O 	0.0474	0.01194	0.09754	-0.478
Mof_O 	O 	0.9495	0.5716	0.09436	-0.227
Mof_O 	O 	0.9698	0.69925	0.33843	-0.355
Mof_O 	O 	0.9495	0.9284	0.59436	-0.228
Mof_O 	O 	0.9526	0.98806	0.90246	-0.478
Mof_O 	O 	0.0126	0.12405	0.91308	-0.441
Mof_O 	O 	0.9874	0.87595	0.08692	-0.441
Mof_O 	O 	0.0126	0.37595	0.41308	-0.447
Mof_O 	O 	0.9526	0.51194	0.40246	-0.48
Mof_O 	O 	0.9698	0.80075	0.83843	-0.356
Mof_O 	O 	0.9885	0.76194	0.4592	-0.375
_end
