data_functionalizedCrystal
_audit_creation_method	'EQeq! by Chris Wilmer'
_symmetry_space_group_name_H-M	'P1'
_symmetry_Int_Tables_number	1
_symmetry_cell_setting	triclinic
loop_
_symmetry_equiv_pos_as_xyz
  x,y,z
_cell_length_a	17.78
_cell_length_b	24.58
_cell_length_c	39.386
_cell_angle_alpha	90
_cell_angle_beta	90
_cell_angle_gamma	111.203
loop_
_atom_site_label
_atom_site_type_symbol
_atom_site_fract_x
_atom_site_fract_y
_atom_site_fract_z
_atom_site_charge
Mof_Co	Co	0.97817	0.74098	0.06153	1.188
Mof_Co	Co	0.77668	0.66088	0.07218	1.193
Mof_Co	Co	0.55491	0.89922	0.12991	1.189
Mof_Co	Co	0.39027	0.92164	0.15626	1.194
Mof_Co	Co	0.52183	0.25902	0.06153	1.188
Mof_Co	Co	0.72332	0.33912	0.07218	1.193
Mof_Co	Co	0.94509	0.10078	0.12991	1.189
Mof_Co	Co	0.10973	0.07836	0.15626	1.194
Mof_Co	Co	0.23719	0.25902	0.43847	1.188
Mof_Co	Co	0.1158	0.33912	0.42782	1.194
Mof_Co	Co	0.65569	0.10078	0.37009	1.189
Mof_Co	Co	0.46863	0.07836	0.34374	1.194
Mof_Co	Co	0.26281	0.74098	0.43847	1.187
Mof_Co	Co	0.3842	0.66088	0.42782	1.192
Mof_Co	Co	0.84431	0.89922	0.37009	1.188
Mof_Co	Co	0.03137	0.92164	0.34374	1.194
Mof_Co	Co	0.02183	0.25902	0.93847	1.187
Mof_Co	Co	0.22332	0.33912	0.92782	1.192
Mof_Co	Co	0.44509	0.10078	0.87009	1.188
Mof_Co	Co	0.60973	0.07836	0.84374	1.193
Mof_Co	Co	0.47817	0.74098	0.93847	1.187
Mof_Co	Co	0.27668	0.66088	0.92782	1.192
Mof_Co	Co	0.05491	0.89922	0.87009	1.188
Mof_Co	Co	0.89027	0.92164	0.84374	1.193
Mof_Co	Co	0.76281	0.74098	0.56153	1.187
Mof_Co	Co	0.8842	0.66088	0.57218	1.193
Mof_Co	Co	0.34431	0.89922	0.62991	1.188
Mof_Co	Co	0.53137	0.92164	0.65626	1.193
Mof_Co	Co	0.73719	0.25902	0.56153	1.187
Mof_Co	Co	0.6158	0.33912	0.57218	1.192
Mof_Co	Co	0.15569	0.10078	0.62991	1.188
Mof_Co	Co	0.96863	0.07836	0.65626	1.194
Mof_Co	Co	0.05976	0.61952	0.25	1.188
Mof_Co	Co	0.9715	0.443	0.25	1.195
Mof_Co	Co	0.44024	0.38048	0.25	1.188
Mof_Co	Co	0.5285	0.557	0.25	1.195
Mof_Co	Co	0.94024	0.38048	0.75	1.188
Mof_Co	Co	0.0285	0.557	0.75	1.195
Mof_Co	Co	0.55976	0.61952	0.75	1.188
Mof_Co	Co	0.4715	0.443	0.75	1.195
Mof_H 	H 	0.9921	0.6234	0.1572	0.039
Mof_H 	H 	0.8466	0.545	0.0796	0.051
Mof_H 	H 	0.736	0.8044	0.116	0.046
Mof_H 	H 	0.2049	0.7196	0.0044	0.046
Mof_H 	H 	0.8717	0.4504	0.1591	0.051
Mof_H 	H 	0.4287	0.806	0.0403	0.036
Mof_H 	H 	0.6455	0.6784	0.1094	-0.02
Mof_H 	H 	0.8303	0.97	0.1497	0.047
Mof_H 	H 	0.5048	0.7454	0.1904	0.043
Mof_H 	H 	0.2409	0.8356	0.0807	0.051
Mof_H 	H 	0.3323	0.6206	0.2418	0.058
Mof_H 	H 	0.9757	0.8858	0.1206	0.049
Mof_H 	H 	0.2888	0.7598	0.2066	0.051
Mof_H 	H 	0.5247	0.7498	0.1151	0.188
Mof_H 	H 	0.4742	0.683	0.1191	0.18
Mof_H 	H 	0.5594	0.7098	0.136	0.189
Mof_H 	H 	0.4803	0.6692	0.0501	0.183
Mof_H 	H 	0.5184	0.7376	0.0512	0.184
Mof_H 	H 	0.5666	0.7018	0.035	0.2
Mof_H 	H 	0.5079	0.3766	0.1572	0.039
Mof_H 	H 	0.6534	0.455	0.0796	0.051
Mof_H 	H 	0.764	0.1956	0.116	0.046
Mof_H 	H 	0.2951	0.2804	0.0044	0.046
Mof_H 	H 	0.6283	0.5496	0.1591	0.051
Mof_H 	H 	0.0713	0.194	0.0403	0.036
Mof_H 	H 	0.8545	0.3216	0.1094	-0.019
Mof_H 	H 	0.6697	0.03	0.1497	0.048
Mof_H 	H 	0.9952	0.2546	0.1904	0.043
Mof_H 	H 	0.2591	0.1644	0.0807	0.051
Mof_H 	H 	0.1677	0.3794	0.2418	0.058
Mof_H 	H 	0.5243	0.1142	0.1206	0.049
Mof_H 	H 	0.2112	0.2402	0.2066	0.051
Mof_H 	H 	0.9753	0.2502	0.1151	0.188
Mof_H 	H 	0.0258	0.317	0.1191	0.181
Mof_H 	H 	0.9406	0.2902	0.136	0.19
Mof_H 	H 	0.0197	0.3308	0.0501	0.184
Mof_H 	H 	0.9816	0.2624	0.0512	0.185
Mof_H 	H 	0.9334	0.2982	0.035	0.2
Mof_H 	H 	0.3687	0.3766	0.3428	0.039
Mof_H 	H 	0.3016	0.455	0.4204	0.051
Mof_H 	H 	0.9316	0.1956	0.384	0.046
Mof_H 	H 	0.4853	0.2804	0.4956	0.046
Mof_H 	H 	0.4213	0.5496	0.3409	0.051
Mof_H 	H 	0.6227	0.194	0.4597	0.036
Mof_H 	H 	0.9671	0.3216	0.3906	-0.02
Mof_H 	H 	0.8603	0.03	0.3503	0.048
Mof_H 	H 	0.7594	0.2546	0.3096	0.043
Mof_H 	H 	0.4053	0.1644	0.4193	0.051
Mof_H 	H 	0.7117	0.3794	0.2582	0.058
Mof_H 	H 	0.0899	0.1142	0.3794	0.049
Mof_H 	H 	0.529	0.2402	0.2934	0.051
Mof_H 	H 	0.7749	0.2502	0.3849	0.188
Mof_H 	H 	0.7912	0.317	0.3809	0.18
Mof_H 	H 	0.8496	0.2902	0.364	0.189
Mof_H 	H 	0.8111	0.3308	0.4499	0.183
Mof_H 	H 	0.7808	0.2624	0.4488	0.184
Mof_H 	H 	0.8648	0.2982	0.465	0.2
Mof_H 	H 	0.1313	0.6234	0.3428	0.039
Mof_H 	H 	0.1984	0.545	0.4204	0.051
Mof_H 	H 	0.5684	0.8044	0.384	0.046
Mof_H 	H 	0.0147	0.7196	0.4956	0.046
Mof_H 	H 	0.0787	0.4504	0.3409	0.051
Mof_H 	H 	0.8773	0.806	0.4597	0.036
Mof_H 	H 	0.5329	0.6784	0.3906	-0.02
Mof_H 	H 	0.6397	0.97	0.3503	0.047
Mof_H 	H 	0.7406	0.7454	0.3096	0.043
Mof_H 	H 	0.0947	0.8356	0.4193	0.051
Mof_H 	H 	0.7883	0.6206	0.2582	0.059
Mof_H 	H 	0.4101	0.8858	0.3794	0.049
Mof_H 	H 	0.971	0.7598	0.2934	0.051
Mof_H 	H 	0.7251	0.7498	0.3849	0.188
Mof_H 	H 	0.7088	0.683	0.3809	0.18
Mof_H 	H 	0.6504	0.7098	0.364	0.189
Mof_H 	H 	0.6889	0.6692	0.4499	0.183
Mof_H 	H 	0.7192	0.7376	0.4488	0.184
Mof_H 	H 	0.6352	0.7018	0.465	0.2
Mof_H 	H 	0.0079	0.3766	0.8428	0.039
Mof_H 	H 	0.1534	0.455	0.9204	0.051
Mof_H 	H 	0.264	0.1956	0.884	0.046
Mof_H 	H 	0.7951	0.2804	0.9956	0.046
Mof_H 	H 	0.1283	0.5496	0.8409	0.051
Mof_H 	H 	0.5713	0.194	0.9597	0.036
Mof_H 	H 	0.3545	0.3216	0.8906	-0.02
Mof_H 	H 	0.1697	0.03	0.8503	0.047
Mof_H 	H 	0.4952	0.2546	0.8096	0.043
Mof_H 	H 	0.7591	0.1644	0.9193	0.051
Mof_H 	H 	0.6677	0.3794	0.7582	0.058
Mof_H 	H 	0.0243	0.1142	0.8794	0.049
Mof_H 	H 	0.7112	0.2402	0.7934	0.051
Mof_H 	H 	0.4753	0.2502	0.8849	0.188
Mof_H 	H 	0.5258	0.317	0.8809	0.18
Mof_H 	H 	0.4406	0.2902	0.864	0.189
Mof_H 	H 	0.5197	0.3308	0.9499	0.183
Mof_H 	H 	0.4816	0.2624	0.9488	0.184
Mof_H 	H 	0.4334	0.2982	0.965	0.2
Mof_H 	H 	0.4921	0.6234	0.8428	0.039
Mof_H 	H 	0.3466	0.545	0.9204	0.051
Mof_H 	H 	0.236	0.8044	0.884	0.046
Mof_H 	H 	0.7049	0.7196	0.9956	0.046
Mof_H 	H 	0.3717	0.4504	0.8409	0.051
Mof_H 	H 	0.9287	0.806	0.9597	0.036
Mof_H 	H 	0.1455	0.6784	0.8906	-0.019
Mof_H 	H 	0.3303	0.97	0.8503	0.048
Mof_H 	H 	0.0048	0.7454	0.8096	0.043
Mof_H 	H 	0.7409	0.8356	0.9193	0.051
Mof_H 	H 	0.8323	0.6206	0.7582	0.058
Mof_H 	H 	0.4757	0.8858	0.8794	0.049
Mof_H 	H 	0.7888	0.7598	0.7934	0.051
Mof_H 	H 	0.0247	0.7498	0.8849	0.188
Mof_H 	H 	0.9742	0.683	0.8809	0.181
Mof_H 	H 	0.0594	0.7098	0.864	0.19
Mof_H 	H 	0.9803	0.6692	0.9499	0.184
Mof_H 	H 	0.0184	0.7376	0.9488	0.185
Mof_H 	H 	0.0666	0.7018	0.965	0.2
Mof_H 	H 	0.6313	0.6234	0.6572	0.039
Mof_H 	H 	0.6984	0.545	0.5796	0.051
Mof_H 	H 	0.0684	0.8044	0.616	0.046
Mof_H 	H 	0.5147	0.7196	0.5044	0.046
Mof_H 	H 	0.5787	0.4504	0.6591	0.051
Mof_H 	H 	0.3773	0.806	0.5403	0.036
Mof_H 	H 	0.0329	0.6784	0.6094	-0.02
Mof_H 	H 	0.1397	0.97	0.6497	0.048
Mof_H 	H 	0.2406	0.7454	0.6904	0.043
Mof_H 	H 	0.5947	0.8356	0.5807	0.051
Mof_H 	H 	0.2883	0.6206	0.7418	0.058
Mof_H 	H 	0.9101	0.8858	0.6206	0.049
Mof_H 	H 	0.471	0.7598	0.7066	0.051
Mof_H 	H 	0.2251	0.7498	0.6151	0.188
Mof_H 	H 	0.2088	0.683	0.6191	0.18
Mof_H 	H 	0.1504	0.7098	0.636	0.189
Mof_H 	H 	0.1889	0.6692	0.5501	0.183
Mof_H 	H 	0.2192	0.7376	0.5512	0.184
Mof_H 	H 	0.1352	0.7018	0.535	0.2
Mof_H 	H 	0.8687	0.3766	0.6572	0.039
Mof_H 	H 	0.8016	0.455	0.5796	0.051
Mof_H 	H 	0.4316	0.1956	0.616	0.046
Mof_H 	H 	0.9853	0.2804	0.5044	0.046
Mof_H 	H 	0.9213	0.5496	0.6591	0.051
Mof_H 	H 	0.1227	0.194	0.5403	0.036
Mof_H 	H 	0.4671	0.3216	0.6094	-0.02
Mof_H 	H 	0.3603	0.03	0.6497	0.047
Mof_H 	H 	0.2594	0.2546	0.6904	0.043
Mof_H 	H 	0.9053	0.1644	0.5807	0.051
Mof_H 	H 	0.2117	0.3794	0.7418	0.059
Mof_H 	H 	0.5899	0.1142	0.6206	0.049
Mof_H 	H 	0.029	0.2402	0.7066	0.051
Mof_H 	H 	0.2749	0.2502	0.6151	0.188
Mof_H 	H 	0.2912	0.317	0.6191	0.18
Mof_H 	H 	0.3496	0.2902	0.636	0.189
Mof_H 	H 	0.3111	0.3308	0.5501	0.183
Mof_H 	H 	0.2808	0.2624	0.5512	0.184
Mof_H 	H 	0.3648	0.2982	0.535	0.2
Mof_C 	C 	0.11968	0.76236	0.0455	0.307
Mof_C 	C 	0.9412	0.6514	0.09864	0.335
Mof_C 	C 	0.95575	0.5899	0.14726	0.062
Mof_C 	C 	0.86891	0.54282	0.10072	0.035
Mof_C 	C 	0.32257	0.75874	0.01768	-0.119
Mof_C 	C 	0.79855	0.4341	0.09943	0.29
Mof_C 	C 	0.915	0.936	0.13642	-0.109
Mof_C 	C 	0.78069	0.83738	0.12108	0.053
Mof_C 	C 	0.85809	0.83678	0.11614	-0.122
Mof_C 	C 	0.68782	0.88904	0.1354	0.295
Mof_C 	C 	0.23944	0.74668	0.01919	0.047
Mof_C 	C 	0.20958	0.65816	0.23692	0.33
Mof_C 	C 	0.98816	0.98832	0.14312	0.343
Mof_C 	C 	0.88468	0.48616	0.14822	0.046
Mof_C 	C 	0.37346	0.79792	0.041	0.062
Mof_C 	C 	0.92051	0.59362	0.1166	-0.106
Mof_C 	C 	0.62692	0.68184	0.08776	0.197
Mof_C 	C 	0.9752	0.532	0.19732	0.409
Mof_C 	C 	0.20811	0.77522	0.04287	-0.09
Mof_C 	C 	0.93713	0.53646	0.16347	-0.117
Mof_C 	C 	0.85139	0.48938	0.1166	-0.08
Mof_C 	C 	0.83709	0.93678	0.14136	0.043
Mof_C 	C 	0.4528	0.7306	0.19927	0.044
Mof_C 	C 	0.34181	0.82462	0.06518	-0.113
Mof_C 	C 	0.26095	0.8153	0.06547	0.048
Mof_C 	C 	0.39523	0.86406	0.09198	0.381
Mof_C 	C 	0.35449	0.73158	0.98982	0.382
Mof_C 	C 	0.34924	0.65548	0.22965	0.038
Mof_C 	C 	0.76972	0.88704	0.13359	-0.088
Mof_C 	C 	0.92407	0.88614	0.1239	0.065
Mof_C 	C 	0.86844	0.78468	0.10045	0.398
Mof_C 	C 	0.32292	0.73884	0.2087	0.043
Mof_C 	C 	0.42883	0.81926	0.17692	0.382
Mof_C 	C 	0.40196	0.76172	0.19526	-0.108
Mof_C 	C 	0.42677	0.67694	0.21646	-0.096
Mof_C 	C 	0.48225	0.6433	0.22016	0.341
Mof_C 	C 	0.29629	0.68498	0.22508	-0.09
Mof_C 	C 	0.52758	0.71156	0.1167	-0.453
Mof_C 	C 	0.5296	0.7022	0.0527	-0.446
Mof_C 	C 	0.0956	0.8386	0.1531	0.077
Mof_C 	C 	0.2258	0.871	0.1804	0.197
Mof_C 	C 	0.1016	0.7862	0.2023	0.064
Mof_C 	C 	0.6938	0.9782	0.0761	0.07
Mof_C 	C 	0.38032	0.23764	0.0455	0.307
Mof_C 	C 	0.5588	0.3486	0.09864	0.336
Mof_C 	C 	0.54425	0.4101	0.14726	0.062
Mof_C 	C 	0.63109	0.45718	0.10072	0.035
Mof_C 	C 	0.17743	0.24126	0.01768	-0.119
Mof_C 	C 	0.70145	0.5659	0.09943	0.29
Mof_C 	C 	0.585	0.064	0.13642	-0.11
Mof_C 	C 	0.71931	0.16262	0.12108	0.053
Mof_C 	C 	0.64191	0.16322	0.11614	-0.122
Mof_C 	C 	0.81218	0.11096	0.1354	0.295
Mof_C 	C 	0.26056	0.25332	0.01919	0.047
Mof_C 	C 	0.29042	0.34184	0.23692	0.33
Mof_C 	C 	0.51184	0.01168	0.14312	0.345
Mof_C 	C 	0.61532	0.51384	0.14822	0.047
Mof_C 	C 	0.12654	0.20208	0.041	0.062
Mof_C 	C 	0.57949	0.40638	0.1166	-0.106
Mof_C 	C 	0.87308	0.31816	0.08776	0.197
Mof_C 	C 	0.5248	0.468	0.19732	0.409
Mof_C 	C 	0.29189	0.22478	0.04287	-0.09
Mof_C 	C 	0.56287	0.46354	0.16347	-0.117
Mof_C 	C 	0.64861	0.51062	0.1166	-0.081
Mof_C 	C 	0.66291	0.06322	0.14136	0.044
Mof_C 	C 	0.0472	0.2694	0.19927	0.045
Mof_C 	C 	0.15819	0.17538	0.06518	-0.113
Mof_C 	C 	0.23905	0.1847	0.06547	0.048
Mof_C 	C 	0.10477	0.13594	0.09198	0.381
Mof_C 	C 	0.14551	0.26842	0.98982	0.382
Mof_C 	C 	0.15076	0.34452	0.22965	0.039
Mof_C 	C 	0.73028	0.11296	0.13359	-0.088
Mof_C 	C 	0.57593	0.11386	0.1239	0.065
Mof_C 	C 	0.63156	0.21532	0.10045	0.399
Mof_C 	C 	0.17708	0.26116	0.2087	0.044
Mof_C 	C 	0.07117	0.18074	0.17692	0.383
Mof_C 	C 	0.09804	0.23828	0.19526	-0.108
Mof_C 	C 	0.07323	0.32306	0.21646	-0.097
Mof_C 	C 	0.01775	0.3567	0.22016	0.342
Mof_C 	C 	0.20371	0.31502	0.22508	-0.09
Mof_C 	C 	0.97242	0.28844	0.1167	-0.454
Mof_C 	C 	0.9704	0.2978	0.0527	-0.447
Mof_C 	C 	0.4044	0.1614	0.1531	0.076
Mof_C 	C 	0.2742	0.129	0.1804	0.197
Mof_C 	C 	0.3984	0.2138	0.2023	0.064
Mof_C 	C 	0.8062	0.0218	0.0761	0.071
Mof_C 	C 	0.35732	0.23764	0.4545	0.307
Mof_C 	C 	0.2898	0.3486	0.40136	0.336
Mof_C 	C 	0.36585	0.4101	0.35274	0.062
Mof_C 	C 	0.32609	0.45718	0.39928	0.035
Mof_C 	C 	0.56383	0.24126	0.48232	-0.119
Mof_C 	C 	0.36445	0.5659	0.40057	0.29
Mof_C 	C 	0.979	0.064	0.36358	-0.11
Mof_C 	C 	0.94331	0.16262	0.37892	0.053
Mof_C 	C 	0.02131	0.16322	0.38386	-0.122
Mof_C 	C 	0.79878	0.11096	0.3646	0.295
Mof_C 	C 	0.49276	0.25332	0.48081	0.047
Mof_C 	C 	0.55142	0.34184	0.26308	0.33
Mof_C 	C 	0.99984	0.01168	0.35688	0.346
Mof_C 	C 	0.39852	0.51384	0.35178	0.047
Mof_C 	C 	0.57554	0.20208	0.459	0.063
Mof_C 	C 	0.32689	0.40638	0.3834	-0.106
Mof_C 	C 	0.94508	0.31816	0.41224	0.197
Mof_C 	C 	0.4432	0.468	0.30268	0.409
Mof_C 	C 	0.43289	0.22478	0.45713	-0.09
Mof_C 	C 	0.40067	0.46354	0.33653	-0.117
Mof_C 	C 	0.36201	0.51062	0.3834	-0.081
Mof_C 	C 	0.90031	0.06322	0.35864	0.044
Mof_C 	C 	0.7222	0.2694	0.30073	0.044
Mof_C 	C 	0.51719	0.17538	0.43482	-0.113
Mof_C 	C 	0.44565	0.1847	0.43453	0.048
Mof_C 	C 	0.53117	0.13594	0.40802	0.381
Mof_C 	C 	0.62291	0.26842	0.51018	0.382
Mof_C 	C 	0.69376	0.34452	0.27035	0.038
Mof_C 	C 	0.88268	0.11296	0.36641	-0.088
Mof_C 	C 	0.03793	0.11386	0.3761	0.066
Mof_C 	C 	0.08376	0.21532	0.39955	0.398
Mof_C 	C 	0.58408	0.26116	0.2913	0.043
Mof_C 	C 	0.60957	0.18074	0.32308	0.382
Mof_C 	C 	0.64024	0.23828	0.30474	-0.108
Mof_C 	C 	0.74983	0.32306	0.28354	-0.096
Mof_C 	C 	0.83895	0.3567	0.27984	0.341
Mof_C 	C 	0.61131	0.31502	0.27492	-0.09
Mof_C 	C 	0.81602	0.28844	0.3833	-0.453
Mof_C 	C 	0.8274	0.2978	0.4473	-0.446
Mof_C 	C 	0.257	0.1614	0.3469	0.076
Mof_C 	C 	0.3548	0.129	0.3196	0.197
Mof_C 	C 	0.3154	0.2138	0.2977	0.064
Mof_C 	C 	0.7156	0.0218	0.4239	0.071
Mof_C 	C 	0.14268	0.76236	0.4545	0.307
Mof_C 	C 	0.2102	0.6514	0.40136	0.336
Mof_C 	C 	0.13415	0.5899	0.35274	0.062
Mof_C 	C 	0.17391	0.54282	0.39928	0.035
Mof_C 	C 	0.93617	0.75874	0.48232	-0.12
Mof_C 	C 	0.13555	0.4341	0.40057	0.29
Mof_C 	C 	0.521	0.936	0.36358	-0.11
Mof_C 	C 	0.55669	0.83738	0.37892	0.053
Mof_C 	C 	0.47869	0.83678	0.38386	-0.122
Mof_C 	C 	0.70122	0.88904	0.3646	0.295
Mof_C 	C 	0.00724	0.74668	0.48081	0.048
Mof_C 	C 	0.94858	0.65816	0.26308	0.329
Mof_C 	C 	0.50016	0.98832	0.35688	0.345
Mof_C 	C 	0.10148	0.48616	0.35178	0.046
Mof_C 	C 	0.92446	0.79792	0.459	0.063
Mof_C 	C 	0.17311	0.59362	0.3834	-0.106
Mof_C 	C 	0.55492	0.68184	0.41224	0.197
Mof_C 	C 	0.0568	0.532	0.30268	0.409
Mof_C 	C 	0.06711	0.77522	0.45713	-0.091
Mof_C 	C 	0.09933	0.53646	0.33653	-0.117
Mof_C 	C 	0.13799	0.48938	0.3834	-0.08
Mof_C 	C 	0.59969	0.93678	0.35864	0.044
Mof_C 	C 	0.7778	0.7306	0.30073	0.043
Mof_C 	C 	0.98281	0.82462	0.43482	-0.114
Mof_C 	C 	0.05435	0.8153	0.43453	0.05
Mof_C 	C 	0.96883	0.86406	0.40802	0.38
Mof_C 	C 	0.87709	0.73158	0.51018	0.382
Mof_C 	C 	0.80624	0.65548	0.27035	0.038
Mof_C 	C 	0.61732	0.88704	0.36641	-0.088
Mof_C 	C 	0.46207	0.88614	0.3761	0.065
Mof_C 	C 	0.41624	0.78468	0.39955	0.399
Mof_C 	C 	0.91592	0.73884	0.2913	0.043
Mof_C 	C 	0.89043	0.81926	0.32308	0.382
Mof_C 	C 	0.85976	0.76172	0.30474	-0.108
Mof_C 	C 	0.75017	0.67694	0.28354	-0.096
Mof_C 	C 	0.66105	0.6433	0.27984	0.341
Mof_C 	C 	0.88869	0.68498	0.27492	-0.09
Mof_C 	C 	0.68398	0.71156	0.3833	-0.453
Mof_C 	C 	0.6726	0.7022	0.4473	-0.446
Mof_C 	C 	0.243	0.8386	0.3469	0.076
Mof_C 	C 	0.1452	0.871	0.3196	0.197
Mof_C 	C 	0.1846	0.7862	0.2977	0.064
Mof_C 	C 	0.7844	0.9782	0.4239	0.07
Mof_C 	C 	0.88032	0.23764	0.9545	0.307
Mof_C 	C 	0.0588	0.3486	0.90136	0.335
Mof_C 	C 	0.04425	0.4101	0.85274	0.062
Mof_C 	C 	0.13109	0.45718	0.89928	0.035
Mof_C 	C 	0.67743	0.24126	0.98232	-0.119
Mof_C 	C 	0.20145	0.5659	0.90057	0.29
Mof_C 	C 	0.085	0.064	0.86358	-0.109
Mof_C 	C 	0.21931	0.16262	0.87892	0.053
Mof_C 	C 	0.14191	0.16322	0.88386	-0.122
Mof_C 	C 	0.31218	0.11096	0.8646	0.295
Mof_C 	C 	0.76056	0.25332	0.98081	0.047
Mof_C 	C 	0.79042	0.34184	0.76308	0.33
Mof_C 	C 	0.01184	0.01168	0.85688	0.343
Mof_C 	C 	0.11532	0.51384	0.85178	0.046
Mof_C 	C 	0.62654	0.20208	0.959	0.062
Mof_C 	C 	0.07949	0.40638	0.8834	-0.106
Mof_C 	C 	0.37308	0.31816	0.91224	0.197
Mof_C 	C 	0.0248	0.468	0.80268	0.409
Mof_C 	C 	0.79189	0.22478	0.95713	-0.09
Mof_C 	C 	0.06287	0.46354	0.83653	-0.117
Mof_C 	C 	0.14861	0.51062	0.8834	-0.08
Mof_C 	C 	0.16291	0.06322	0.85864	0.043
Mof_C 	C 	0.5472	0.2694	0.80073	0.044
Mof_C 	C 	0.65819	0.17538	0.93482	-0.113
Mof_C 	C 	0.73905	0.1847	0.93453	0.048
Mof_C 	C 	0.60477	0.13594	0.90802	0.381
Mof_C 	C 	0.64551	0.26842	0.01018	0.382
Mof_C 	C 	0.65076	0.34452	0.77035	0.038
Mof_C 	C 	0.23028	0.11296	0.86641	-0.088
Mof_C 	C 	0.07593	0.11386	0.8761	0.065
Mof_C 	C 	0.13156	0.21532	0.89955	0.398
Mof_C 	C 	0.67708	0.26116	0.7913	0.043
Mof_C 	C 	0.57117	0.18074	0.82308	0.382
Mof_C 	C 	0.59804	0.23828	0.80474	-0.108
Mof_C 	C 	0.57323	0.32306	0.78354	-0.096
Mof_C 	C 	0.51775	0.3567	0.77984	0.341
Mof_C 	C 	0.70371	0.31502	0.77492	-0.09
Mof_C 	C 	0.47242	0.28844	0.8833	-0.453
Mof_C 	C 	0.4704	0.2978	0.9473	-0.446
Mof_C 	C 	0.9044	0.1614	0.8469	0.077
Mof_C 	C 	0.7742	0.129	0.8196	0.197
Mof_C 	C 	0.8984	0.2138	0.7977	0.064
Mof_C 	C 	0.3062	0.0218	0.9239	0.07
Mof_C 	C 	0.61968	0.76236	0.9545	0.307
Mof_C 	C 	0.4412	0.6514	0.90136	0.336
Mof_C 	C 	0.45575	0.5899	0.85274	0.062
Mof_C 	C 	0.36891	0.54282	0.89928	0.035
Mof_C 	C 	0.82257	0.75874	0.98232	-0.119
Mof_C 	C 	0.29855	0.4341	0.90057	0.29
Mof_C 	C 	0.415	0.936	0.86358	-0.11
Mof_C 	C 	0.28069	0.83738	0.87892	0.053
Mof_C 	C 	0.35809	0.83678	0.88386	-0.122
Mof_C 	C 	0.18782	0.88904	0.8646	0.295
Mof_C 	C 	0.73944	0.74668	0.98081	0.047
Mof_C 	C 	0.70958	0.65816	0.76308	0.33
Mof_C 	C 	0.48816	0.98832	0.85688	0.345
Mof_C 	C 	0.38468	0.48616	0.85178	0.047
Mof_C 	C 	0.87346	0.79792	0.959	0.062
Mof_C 	C 	0.42051	0.59362	0.8834	-0.106
Mof_C 	C 	0.12692	0.68184	0.91224	0.197
Mof_C 	C 	0.4752	0.532	0.80268	0.409
Mof_C 	C 	0.70811	0.77522	0.95713	-0.09
Mof_C 	C 	0.43713	0.53646	0.83653	-0.117
Mof_C 	C 	0.35139	0.48938	0.8834	-0.081
Mof_C 	C 	0.33709	0.93678	0.85864	0.044
Mof_C 	C 	0.9528	0.7306	0.80073	0.045
Mof_C 	C 	0.84181	0.82462	0.93482	-0.113
Mof_C 	C 	0.76095	0.8153	0.93453	0.048
Mof_C 	C 	0.89523	0.86406	0.90802	0.381
Mof_C 	C 	0.85449	0.73158	0.01018	0.382
Mof_C 	C 	0.84924	0.65548	0.77035	0.039
Mof_C 	C 	0.26972	0.88704	0.86641	-0.088
Mof_C 	C 	0.42407	0.88614	0.8761	0.065
Mof_C 	C 	0.36844	0.78468	0.89955	0.399
Mof_C 	C 	0.82292	0.73884	0.7913	0.044
Mof_C 	C 	0.92883	0.81926	0.82308	0.383
Mof_C 	C 	0.90196	0.76172	0.80474	-0.108
Mof_C 	C 	0.92677	0.67694	0.78354	-0.097
Mof_C 	C 	0.98225	0.6433	0.77984	0.342
Mof_C 	C 	0.79629	0.68498	0.77492	-0.09
Mof_C 	C 	0.02758	0.71156	0.8833	-0.454
Mof_C 	C 	0.0296	0.7022	0.9473	-0.447
Mof_C 	C 	0.5956	0.8386	0.8469	0.076
Mof_C 	C 	0.7258	0.871	0.8196	0.197
Mof_C 	C 	0.6016	0.7862	0.7977	0.064
Mof_C 	C 	0.1938	0.9782	0.9239	0.071
Mof_C 	C 	0.64268	0.76236	0.5455	0.307
Mof_C 	C 	0.7102	0.6514	0.59864	0.336
Mof_C 	C 	0.63415	0.5899	0.64726	0.062
Mof_C 	C 	0.67391	0.54282	0.60072	0.035
Mof_C 	C 	0.43617	0.75874	0.51768	-0.119
Mof_C 	C 	0.63555	0.4341	0.59943	0.29
Mof_C 	C 	0.021	0.936	0.63642	-0.11
Mof_C 	C 	0.05669	0.83738	0.62108	0.053
Mof_C 	C 	0.97869	0.83678	0.61614	-0.122
Mof_C 	C 	0.20122	0.88904	0.6354	0.295
Mof_C 	C 	0.50724	0.74668	0.51919	0.047
Mof_C 	C 	0.44858	0.65816	0.73692	0.33
Mof_C 	C 	0.00016	0.98832	0.64312	0.346
Mof_C 	C 	0.60148	0.48616	0.64822	0.047
Mof_C 	C 	0.42446	0.79792	0.541	0.063
Mof_C 	C 	0.67311	0.59362	0.6166	-0.106
Mof_C 	C 	0.05492	0.68184	0.58776	0.197
Mof_C 	C 	0.5568	0.532	0.69732	0.409
Mof_C 	C 	0.56711	0.77522	0.54287	-0.09
Mof_C 	C 	0.59933	0.53646	0.66347	-0.117
Mof_C 	C 	0.63799	0.48938	0.6166	-0.081
Mof_C 	C 	0.09969	0.93678	0.64136	0.044
Mof_C 	C 	0.2778	0.7306	0.69927	0.044
Mof_C 	C 	0.48281	0.82462	0.56518	-0.113
Mof_C 	C 	0.55435	0.8153	0.56547	0.048
Mof_C 	C 	0.46883	0.86406	0.59198	0.381
Mof_C 	C 	0.37709	0.73158	0.48982	0.382
Mof_C 	C 	0.30624	0.65548	0.72965	0.038
Mof_C 	C 	0.11732	0.88704	0.63359	-0.088
Mof_C 	C 	0.96207	0.88614	0.6239	0.066
Mof_C 	C 	0.91624	0.78468	0.60045	0.398
Mof_C 	C 	0.41592	0.73884	0.7087	0.043
Mof_C 	C 	0.39043	0.81926	0.67692	0.382
Mof_C 	C 	0.35976	0.76172	0.69526	-0.108
Mof_C 	C 	0.25017	0.67694	0.71646	-0.096
Mof_C 	C 	0.16105	0.6433	0.72016	0.341
Mof_C 	C 	0.38869	0.68498	0.72508	-0.09
Mof_C 	C 	0.18398	0.71156	0.6167	-0.453
Mof_C 	C 	0.1726	0.7022	0.5527	-0.446
Mof_C 	C 	0.743	0.8386	0.6531	0.076
Mof_C 	C 	0.6452	0.871	0.6804	0.197
Mof_C 	C 	0.6846	0.7862	0.7023	0.064
Mof_C 	C 	0.2844	0.9782	0.5761	0.071
Mof_C 	C 	0.85732	0.23764	0.5455	0.307
Mof_C 	C 	0.7898	0.3486	0.59864	0.336
Mof_C 	C 	0.86585	0.4101	0.64726	0.062
Mof_C 	C 	0.82609	0.45718	0.60072	0.035
Mof_C 	C 	0.06383	0.24126	0.51768	-0.12
Mof_C 	C 	0.86445	0.5659	0.59943	0.29
Mof_C 	C 	0.479	0.064	0.63642	-0.11
Mof_C 	C 	0.44331	0.16262	0.62108	0.053
Mof_C 	C 	0.52131	0.16322	0.61614	-0.122
Mof_C 	C 	0.29878	0.11096	0.6354	0.295
Mof_C 	C 	0.99276	0.25332	0.51919	0.048
Mof_C 	C 	0.05142	0.34184	0.73692	0.329
Mof_C 	C 	0.49984	0.01168	0.64312	0.345
Mof_C 	C 	0.89852	0.51384	0.64822	0.046
Mof_C 	C 	0.07554	0.20208	0.541	0.063
Mof_C 	C 	0.82689	0.40638	0.6166	-0.106
Mof_C 	C 	0.44508	0.31816	0.58776	0.197
Mof_C 	C 	0.9432	0.468	0.69732	0.409
Mof_C 	C 	0.93289	0.22478	0.54287	-0.091
Mof_C 	C 	0.90067	0.46354	0.66347	-0.117
Mof_C 	C 	0.86201	0.51062	0.6166	-0.08
Mof_C 	C 	0.40031	0.06322	0.64136	0.044
Mof_C 	C 	0.2222	0.2694	0.69927	0.043
Mof_C 	C 	0.01719	0.17538	0.56518	-0.114
Mof_C 	C 	0.94565	0.1847	0.56547	0.05
Mof_C 	C 	0.03117	0.13594	0.59198	0.38
Mof_C 	C 	0.12291	0.26842	0.48982	0.382
Mof_C 	C 	0.19376	0.34452	0.72965	0.038
Mof_C 	C 	0.38268	0.11296	0.63359	-0.088
Mof_C 	C 	0.53793	0.11386	0.6239	0.065
Mof_C 	C 	0.58376	0.21532	0.60045	0.399
Mof_C 	C 	0.08408	0.26116	0.7087	0.043
Mof_C 	C 	0.10957	0.18074	0.67692	0.382
Mof_C 	C 	0.14024	0.23828	0.69526	-0.108
Mof_C 	C 	0.24983	0.32306	0.71646	-0.096
Mof_C 	C 	0.33895	0.3567	0.72016	0.341
Mof_C 	C 	0.11131	0.31502	0.72508	-0.09
Mof_C 	C 	0.31602	0.28844	0.6167	-0.453
Mof_C 	C 	0.3274	0.2978	0.5527	-0.446
Mof_C 	C 	0.757	0.1614	0.6531	0.076
Mof_C 	C 	0.8548	0.129	0.6804	0.197
Mof_C 	C 	0.8154	0.2138	0.7023	0.064
Mof_C 	C 	0.2156	0.0218	0.5761	0.07
Mof_N 	N 	0.5651	0.6994	0.08548	-0.028
Mof_N 	N 	0.1396	0.8422	0.1846	-0.132
Mof_N 	N 	0.9349	0.3006	0.08548	-0.027
Mof_N 	N 	0.3604	0.1578	0.1846	-0.132
Mof_N 	N 	0.8657	0.3006	0.41452	-0.028
Mof_N 	N 	0.2974	0.1578	0.3154	-0.132
Mof_N 	N 	0.6343	0.6994	0.41452	-0.028
Mof_N 	N 	0.2026	0.8422	0.3154	-0.132
Mof_N 	N 	0.4349	0.3006	0.91452	-0.028
Mof_N 	N 	0.8604	0.1578	0.8154	-0.132
Mof_N 	N 	0.0651	0.6994	0.91452	-0.027
Mof_N 	N 	0.6396	0.8422	0.8154	-0.132
Mof_N 	N 	0.1343	0.6994	0.58548	-0.028
Mof_N 	N 	0.7026	0.8422	0.6846	-0.132
Mof_N 	N 	0.3657	0.3006	0.58548	-0.028
Mof_N 	N 	0.7974	0.1578	0.6846	-0.132
Mof_O 	O 	0.8068	0.73974	0.09532	-0.437
Mof_O 	O 	0.2735	0.9184	0.169	-0.306
Mof_O 	O 	0.93893	0.79012	0.09257	-0.433
Mof_O 	O 	0.05689	0.98578	0.14145	-0.341
Mof_O 	O 	0.98182	0.03724	0.15154	-0.506
Mof_O 	O 	0.6319	0.8529	0.11792	-0.36
Mof_O 	O 	0.67388	0.92776	0.15303	-0.338
Mof_O 	O 	0.00357	0.69254	0.10627	-0.35
Mof_O 	O 	0.8953	0.65634	0.07465	-0.502
Mof_O 	O 	0.78393	0.43392	0.06775	-0.337
Mof_O 	O 	0.77098	0.38764	0.11645	-0.36
Mof_O 	O 	0.94274	0.48588	0.21344	-0.455
Mof_O 	O 	0.03566	0.57492	0.20639	-0.445
Mof_O 	O 	0.16322	0.68404	0.23194	-0.388
Mof_O 	O 	0.45347	0.59454	0.2355	-0.41
Mof_O 	O 	0.55023	0.66286	0.20808	-0.288
Mof_O 	O 	0.50203	0.84094	0.16892	-0.418
Mof_O 	O 	0.37558	0.84016	0.1706	-0.438
Mof_O 	O 	0.09553	0.79774	0.06075	-0.369
Mof_O 	O 	0.07059	0.71546	0.03331	-0.346
Mof_O 	O 	0.30429	0.6863	0.97619	-0.431
Mof_O 	O 	0.42688	0.75566	0.98197	-0.433
Mof_O 	O 	0.46112	0.85804	0.0978	-0.432
Mof_O 	O 	0.36815	0.89874	0.10652	-0.418
Mof_O 	O 	0.66244	0.66936	0.06335	-0.326
Mof_O 	O 	0.60396	0.95412	0.08695	-0.277
Mof_O 	O 	0.3911	0.9468	0.20579	-0.237
Mof_O 	O 	0.187	0.6094	0.25123	-0.334
Mof_O 	O 	0.6932	0.26026	0.09532	-0.437
Mof_O 	O 	0.2265	0.0816	0.169	-0.306
Mof_O 	O 	0.56107	0.20988	0.09257	-0.432
Mof_O 	O 	0.44311	0.01422	0.14145	-0.343
Mof_O 	O 	0.51818	0.96276	0.15154	-0.506
Mof_O 	O 	0.8681	0.1471	0.11792	-0.36
Mof_O 	O 	0.82612	0.07224	0.15303	-0.338
Mof_O 	O 	0.49643	0.30746	0.10627	-0.351
Mof_O 	O 	0.6047	0.34366	0.07465	-0.502
Mof_O 	O 	0.71607	0.56608	0.06775	-0.337
Mof_O 	O 	0.72902	0.61236	0.11645	-0.36
Mof_O 	O 	0.55726	0.51412	0.21344	-0.455
Mof_O 	O 	0.46434	0.42508	0.20639	-0.446
Mof_O 	O 	0.33678	0.31596	0.23194	-0.388
Mof_O 	O 	0.04653	0.40546	0.2355	-0.41
Mof_O 	O 	0.94977	0.33714	0.20808	-0.289
Mof_O 	O 	0.99797	0.15906	0.16892	-0.418
Mof_O 	O 	0.12442	0.15984	0.1706	-0.438
Mof_O 	O 	0.40447	0.20226	0.06075	-0.37
Mof_O 	O 	0.42941	0.28454	0.03331	-0.346
Mof_O 	O 	0.19571	0.3137	0.97619	-0.431
Mof_O 	O 	0.07312	0.24434	0.98197	-0.434
Mof_O 	O 	0.03888	0.14196	0.0978	-0.431
Mof_O 	O 	0.13185	0.10126	0.10652	-0.418
Mof_O 	O 	0.83756	0.33064	0.06335	-0.326
Mof_O 	O 	0.89604	0.04588	0.08695	-0.277
Mof_O 	O 	0.1089	0.0532	0.20579	-0.237
Mof_O 	O 	0.313	0.3906	0.25123	-0.334
Mof_O 	O 	0.06706	0.26026	0.40468	-0.437
Mof_O 	O 	0.3551	0.0816	0.331	-0.306
Mof_O 	O 	0.14881	0.20988	0.40743	-0.432
Mof_O 	O 	0.07111	0.01422	0.35855	-0.343
Mof_O 	O 	0.94458	0.96276	0.34846	-0.507
Mof_O 	O 	0.779	0.1471	0.38208	-0.36
Mof_O 	O 	0.74612	0.07224	0.34697	-0.338
Mof_O 	O 	0.31103	0.30746	0.39373	-0.351
Mof_O 	O 	0.23896	0.34366	0.42535	-0.502
Mof_O 	O 	0.35001	0.56608	0.43225	-0.337
Mof_O 	O 	0.38334	0.61236	0.38355	-0.36
Mof_O 	O 	0.45686	0.51412	0.28656	-0.455
Mof_O 	O 	0.46074	0.42508	0.29361	-0.446
Mof_O 	O 	0.47918	0.31596	0.26806	-0.388
Mof_O 	O 	0.85893	0.40546	0.2645	-0.41
Mof_O 	O 	0.88737	0.33714	0.29192	-0.288
Mof_O 	O 	0.66109	0.15906	0.33108	-0.418
Mof_O 	O 	0.53542	0.15984	0.3294	-0.438
Mof_O 	O 	0.29779	0.20226	0.43925	-0.37
Mof_O 	O 	0.35513	0.28454	0.46669	-0.346
Mof_O 	O 	0.61799	0.3137	0.52381	-0.431
Mof_O 	O 	0.67122	0.24434	0.51803	-0.433
Mof_O 	O 	0.60308	0.14196	0.4022	-0.432
Mof_O 	O 	0.46941	0.10126	0.39348	-0.418
Mof_O 	O 	0.99308	0.33064	0.43665	-0.326
Mof_O 	O 	0.64984	0.04588	0.41305	-0.277
Mof_O 	O 	0.4443	0.0532	0.29421	-0.237
Mof_O 	O 	0.5776	0.3906	0.24877	-0.334
Mof_O 	O 	0.43294	0.73974	0.40468	-0.437
Mof_O 	O 	0.1449	0.9184	0.331	-0.306
Mof_O 	O 	0.35119	0.79012	0.40743	-0.432
Mof_O 	O 	0.42889	0.98578	0.35855	-0.343
Mof_O 	O 	0.55542	0.03724	0.34846	-0.506
Mof_O 	O 	0.721	0.8529	0.38208	-0.36
Mof_O 	O 	0.75388	0.92776	0.34697	-0.338
Mof_O 	O 	0.18897	0.69254	0.39373	-0.351
Mof_O 	O 	0.26104	0.65634	0.42535	-0.502
Mof_O 	O 	0.14999	0.43392	0.43225	-0.337
Mof_O 	O 	0.11666	0.38764	0.38355	-0.36
Mof_O 	O 	0.04314	0.48588	0.28656	-0.455
Mof_O 	O 	0.03926	0.57492	0.29361	-0.446
Mof_O 	O 	0.02082	0.68404	0.26806	-0.387
Mof_O 	O 	0.64107	0.59454	0.2645	-0.41
Mof_O 	O 	0.61263	0.66286	0.29192	-0.288
Mof_O 	O 	0.83891	0.84094	0.33108	-0.418
Mof_O 	O 	0.96458	0.84016	0.3294	-0.438
Mof_O 	O 	0.20221	0.79774	0.43925	-0.37
Mof_O 	O 	0.14487	0.71546	0.46669	-0.346
Mof_O 	O 	0.88201	0.6863	0.52381	-0.431
Mof_O 	O 	0.82878	0.75566	0.51803	-0.434
Mof_O 	O 	0.89692	0.85804	0.4022	-0.432
Mof_O 	O 	0.03059	0.89874	0.39348	-0.417
Mof_O 	O 	0.50692	0.66936	0.43665	-0.326
Mof_O 	O 	0.85016	0.95412	0.41305	-0.277
Mof_O 	O 	0.0557	0.9468	0.29421	-0.236
Mof_O 	O 	0.9224	0.6094	0.24877	-0.334
Mof_O 	O 	0.1932	0.26026	0.90468	-0.437
Mof_O 	O 	0.7265	0.0816	0.831	-0.306
Mof_O 	O 	0.06107	0.20988	0.90743	-0.433
Mof_O 	O 	0.94311	0.01422	0.85855	-0.341
Mof_O 	O 	0.01818	0.96276	0.84846	-0.506
Mof_O 	O 	0.3681	0.1471	0.88208	-0.36
Mof_O 	O 	0.32612	0.07224	0.84697	-0.338
Mof_O 	O 	0.99643	0.30746	0.89373	-0.35
Mof_O 	O 	0.1047	0.34366	0.92535	-0.502
Mof_O 	O 	0.21607	0.56608	0.93225	-0.337
Mof_O 	O 	0.22902	0.61236	0.88355	-0.36
Mof_O 	O 	0.05726	0.51412	0.78656	-0.455
Mof_O 	O 	0.96434	0.42508	0.79361	-0.445
Mof_O 	O 	0.83678	0.31596	0.76806	-0.388
Mof_O 	O 	0.54653	0.40546	0.7645	-0.41
Mof_O 	O 	0.44977	0.33714	0.79192	-0.288
Mof_O 	O 	0.49797	0.15906	0.83108	-0.418
Mof_O 	O 	0.62442	0.15984	0.8294	-0.438
Mof_O 	O 	0.90447	0.20226	0.93925	-0.369
Mof_O 	O 	0.92941	0.28454	0.96669	-0.346
Mof_O 	O 	0.69571	0.3137	0.02381	-0.431
Mof_O 	O 	0.57312	0.24434	0.01803	-0.433
Mof_O 	O 	0.53888	0.14196	0.9022	-0.432
Mof_O 	O 	0.63185	0.10126	0.89348	-0.418
Mof_O 	O 	0.33756	0.33064	0.93665	-0.326
Mof_O 	O 	0.39604	0.04588	0.91305	-0.277
Mof_O 	O 	0.6089	0.0532	0.79421	-0.237
Mof_O 	O 	0.813	0.3906	0.74877	-0.334
Mof_O 	O 	0.3068	0.73974	0.90468	-0.437
Mof_O 	O 	0.7735	0.9184	0.831	-0.306
Mof_O 	O 	0.43893	0.79012	0.90743	-0.432
Mof_O 	O 	0.55689	0.98578	0.85855	-0.343
Mof_O 	O 	0.48182	0.03724	0.84846	-0.506
Mof_O 	O 	0.1319	0.8529	0.88208	-0.36
Mof_O 	O 	0.17388	0.92776	0.84697	-0.338
Mof_O 	O 	0.50357	0.69254	0.89373	-0.351
Mof_O 	O 	0.3953	0.65634	0.92535	-0.502
Mof_O 	O 	0.28393	0.43392	0.93225	-0.337
Mof_O 	O 	0.27098	0.38764	0.88355	-0.36
Mof_O 	O 	0.44274	0.48588	0.78656	-0.455
Mof_O 	O 	0.53566	0.57492	0.79361	-0.446
Mof_O 	O 	0.66322	0.68404	0.76806	-0.388
Mof_O 	O 	0.95347	0.59454	0.7645	-0.41
Mof_O 	O 	0.05023	0.66286	0.79192	-0.289
Mof_O 	O 	0.00203	0.84094	0.83108	-0.418
Mof_O 	O 	0.87558	0.84016	0.8294	-0.438
Mof_O 	O 	0.59553	0.79774	0.93925	-0.37
Mof_O 	O 	0.57059	0.71546	0.96669	-0.346
Mof_O 	O 	0.80429	0.6863	0.02381	-0.431
Mof_O 	O 	0.92688	0.75566	0.01803	-0.434
Mof_O 	O 	0.96112	0.85804	0.9022	-0.431
Mof_O 	O 	0.86815	0.89874	0.89348	-0.418
Mof_O 	O 	0.16244	0.66936	0.93665	-0.326
Mof_O 	O 	0.10396	0.95412	0.91305	-0.277
Mof_O 	O 	0.8911	0.9468	0.79421	-0.237
Mof_O 	O 	0.687	0.6094	0.74877	-0.334
Mof_O 	O 	0.93294	0.73974	0.59532	-0.437
Mof_O 	O 	0.6449	0.9184	0.669	-0.306
Mof_O 	O 	0.85119	0.79012	0.59257	-0.432
Mof_O 	O 	0.92889	0.98578	0.64145	-0.343
Mof_O 	O 	0.05542	0.03724	0.65154	-0.507
Mof_O 	O 	0.221	0.8529	0.61792	-0.36
Mof_O 	O 	0.25388	0.92776	0.65303	-0.338
Mof_O 	O 	0.68897	0.69254	0.60627	-0.351
Mof_O 	O 	0.76104	0.65634	0.57465	-0.502
Mof_O 	O 	0.64999	0.43392	0.56775	-0.337
Mof_O 	O 	0.61666	0.38764	0.61645	-0.36
Mof_O 	O 	0.54314	0.48588	0.71344	-0.455
Mof_O 	O 	0.53926	0.57492	0.70639	-0.446
Mof_O 	O 	0.52082	0.68404	0.73194	-0.388
Mof_O 	O 	0.14107	0.59454	0.7355	-0.41
Mof_O 	O 	0.11263	0.66286	0.70808	-0.288
Mof_O 	O 	0.33891	0.84094	0.66892	-0.418
Mof_O 	O 	0.46458	0.84016	0.6706	-0.438
Mof_O 	O 	0.70221	0.79774	0.56075	-0.37
Mof_O 	O 	0.64487	0.71546	0.53331	-0.346
Mof_O 	O 	0.38201	0.6863	0.47619	-0.431
Mof_O 	O 	0.32878	0.75566	0.48197	-0.433
Mof_O 	O 	0.39692	0.85804	0.5978	-0.432
Mof_O 	O 	0.53059	0.89874	0.60652	-0.418
Mof_O 	O 	0.00692	0.66936	0.56335	-0.326
Mof_O 	O 	0.35016	0.95412	0.58695	-0.277
Mof_O 	O 	0.5557	0.9468	0.70579	-0.237
Mof_O 	O 	0.4224	0.6094	0.75123	-0.334
Mof_O 	O 	0.56706	0.26026	0.59532	-0.437
Mof_O 	O 	0.8551	0.0816	0.669	-0.306
Mof_O 	O 	0.64881	0.20988	0.59257	-0.432
Mof_O 	O 	0.57111	0.01422	0.64145	-0.343
Mof_O 	O 	0.44458	0.96276	0.65154	-0.506
Mof_O 	O 	0.279	0.1471	0.61792	-0.36
Mof_O 	O 	0.24612	0.07224	0.65303	-0.338
Mof_O 	O 	0.81103	0.30746	0.60627	-0.351
Mof_O 	O 	0.73896	0.34366	0.57465	-0.502
Mof_O 	O 	0.85001	0.56608	0.56775	-0.337
Mof_O 	O 	0.88334	0.61236	0.61645	-0.36
Mof_O 	O 	0.95686	0.51412	0.71344	-0.455
Mof_O 	O 	0.96074	0.42508	0.70639	-0.446
Mof_O 	O 	0.97918	0.31596	0.73194	-0.387
Mof_O 	O 	0.35893	0.40546	0.7355	-0.41
Mof_O 	O 	0.38737	0.33714	0.70808	-0.288
Mof_O 	O 	0.16109	0.15906	0.66892	-0.418
Mof_O 	O 	0.03542	0.15984	0.6706	-0.438
Mof_O 	O 	0.79779	0.20226	0.56075	-0.37
Mof_O 	O 	0.85513	0.28454	0.53331	-0.346
Mof_O 	O 	0.11799	0.3137	0.47619	-0.431
Mof_O 	O 	0.17122	0.24434	0.48197	-0.434
Mof_O 	O 	0.10308	0.14196	0.5978	-0.432
Mof_O 	O 	0.96941	0.10126	0.60652	-0.417
Mof_O 	O 	0.49308	0.33064	0.56335	-0.326
Mof_O 	O 	0.14984	0.04588	0.58695	-0.277
Mof_O 	O 	0.9443	0.0532	0.70579	-0.236
Mof_O 	O 	0.0776	0.3906	0.75123	-0.334
_end
