data_functionalizedCrystal
_audit_creation_method	'EQeq! by Chris Wilmer'
_symmetry_space_group_name_H-M	'P1'
_symmetry_Int_Tables_number	1
_symmetry_cell_setting	triclinic
loop_
_symmetry_equiv_pos_as_xyz
  x,y,z
_cell_length_a	31.154
_cell_length_b	18.385
_cell_length_c	26.034
_cell_angle_alpha	90
_cell_angle_beta	114.274
_cell_angle_gamma	90
loop_
_atom_site_label
_atom_site_type_symbol
_atom_site_fract_x
_atom_site_fract_y
_atom_site_fract_z
_atom_site_charge
Mof_Cu	Cu	0.49998	0.01811	0.49999	0.82
Mof_Cu	Cu	0.56289	0.13566	0.56568	0.84
Mof_Cu	Cu	0.71437	0.26266	0.08896	0.816
Mof_Cu	Cu	0.65317	0.38685	0.02745	0.83
Mof_Cu	Cu	0.48788	0.4925	0.00127	0.801
Mof_Cu	Cu	0.54581	0.37333	0.06919	0.827
Mof_Cu	Cu	0.72088	0.23442	0.5887	0.819
Mof_Cu	Cu	0.66356	0.11891	0.51417	0.826
Mof_Cl	Cl	0.57634	0.04813	0.49772	-0.663
Mof_Cl	Cl	0.63662	0.29848	0.08829	-0.665
Mof_Cl	Cl	0.56878	0.45322	0.00643	-0.687
Mof_Cl	Cl	0.64343	0.19994	0.58669	-0.67
Mof_N 	N 	0.45417	0.0694	0.43654	-0.276
Mof_N 	N 	0.19599	0.96098	0.07655	-0.269
Mof_N 	N 	0.51534	0.94323	0.55635	-0.274
Mof_N 	N 	0.64004	0.83091	0.94209	-0.262
Mof_N 	N 	0.57888	0.08716	0.6387	-0.269
Mof_N 	N 	0.69662	0.18955	0.0305	-0.251
Mof_N 	N 	0.75981	0.31334	0.1535	-0.278
Mof_N 	N 	0.0046	0.20029	0.51996	-0.272
Mof_N 	N 	0.63581	0.34186	0.95327	-0.256
Mof_N 	N 	0.50678	0.4326	0.55749	-0.276
Mof_N 	N 	0.44479	0.43924	0.93748	-0.265
Mof_N 	N 	0.20507	0.54784	0.56569	-0.279
Mof_N 	N 	0.57001	0.42081	0.14241	-0.274
Mof_N 	N 	0.70457	0.31021	0.53273	-0.279
Mof_N 	N 	0.76494	0.18228	0.65304	-0.275
Mof_N 	N 	0.02052	0.29161	0.01478	-0.256
Mof_C 	C 	0.46683	0.10572	0.40027	0.096
Mof_H 	H 	0.4995	0.1108	0.4093	-0.015
Mof_C 	C 	0.43541	0.13617	0.35073	-0.201
Mof_H 	H 	0.4464	0.1617	0.3268	0.087
Mof_C 	C 	0.38755	0.12917	0.33625	0.167
Mof_C 	C 	0.37435	0.0938	0.37447	-0.208
Mof_H 	H 	0.3419	0.0895	0.3669	0.088
Mof_C 	C 	0.40766	0.06494	0.42306	0.099
Mof_H 	H 	0.3975	0.0407	0.4483	-0.046
Mof_C 	C 	0.24151	0.9629	0.08618	0.099
Mof_H 	H 	0.253	0.9278	0.0682	-0.064
Mof_C 	C 	0.27277	0.0135	0.12101	-0.196
Mof_H 	H 	0.3049	0.0122	0.1268	0.083
Mof_C 	C 	0.25719	0.06609	0.14745	0.15
Mof_C 	C 	0.20997	0.06395	0.13747	-0.198
Mof_H 	H 	0.1975	0.0989	0.1545	0.083
Mof_C 	C 	0.18074	0.01077	0.10254	0.101
Mof_H 	H 	0.1486	0.0098	0.0969	-0.011
Mof_C 	C 	0.35141	0.15674	0.28019	-0.268
Mof_H 	H 	0.3676	0.1847	0.2609	0.098
Mof_H 	H 	0.3292	0.1898	0.2869	0.1
Mof_C 	C 	0.32379	0.09355	0.24211	0.052
Mof_H 	H 	0.3057	0.0674	0.26	0.007
Mof_H 	H 	0.3459	0.0588	0.237	0.007
Mof_C 	C 	0.28981	0.12383	0.18438	-0.249
Mof_H 	H 	0.2708	0.1635	0.1903	0.072
Mof_H 	H 	0.3084	0.1447	0.1649	0.075
Mof_C 	C 	0.55978	0.91656	0.58084	0.093
Mof_H 	H 	0.5835	0.9377	0.5715	-0.011
Mof_C 	C 	0.57174	0.85962	0.61893	-0.197
Mof_H 	H 	0.6034	0.8433	0.636	0.101
Mof_C 	C 	0.53808	0.8265	0.63236	0.168
Mof_C 	C 	0.4929	0.8546	0.60784	-0.204
Mof_H 	H 	0.4687	0.8343	0.6167	0.085
Mof_C 	C 	0.48284	0.9124	0.57022	0.104
Mof_H 	H 	0.4516	0.9307	0.5538	-0.046
Mof_C 	C 	0.66872	0.7992	0.92167	0.102
Mof_H 	H 	0.7017	0.8001	0.9439	-0.042
Mof_C 	C 	0.65196	0.76517	0.86937	-0.204
Mof_H 	H 	0.6734	0.7438	0.8563	0.091
Mof_C 	C 	0.60385	0.7624	0.83618	0.176
Mof_C 	C 	0.57464	0.7947	0.85771	-0.206
Mof_H 	H 	0.5415	0.7942	0.8366	0.091
Mof_C 	C 	0.59379	0.8277	0.91007	0.102
Mof_H 	H 	0.573	0.8492	0.924	-0.009
Mof_C 	C 	0.55077	0.76468	0.67386	-0.272
Mof_H 	H 	0.5742	0.733	0.6684	0.091
Mof_H 	H 	0.5224	0.7351	0.667	0.084
Mof_C 	C 	0.57106	0.79313	0.73456	0.071
Mof_H 	H 	0.5475	0.8247	0.7399	0.002
Mof_H 	H 	0.5993	0.823	0.7412	0.005
Mof_C 	C 	0.58455	0.73101	0.77779	-0.283
Mof_H 	H 	0.5565	0.7009	0.7716	0.102
Mof_H 	H 	0.6085	0.6995	0.7732	0.107
Mof_C 	C 	0.62424	0.0756	0.67332	0.098
Mof_H 	H 	0.6478	0.0907	0.6612	-0.01
Mof_C 	C 	0.63847	0.0429	0.72546	-0.201
Mof_H 	H 	0.671	0.0361	0.7483	0.089
Mof_C 	C 	0.60505	0.01988	0.7445	0.169
Mof_C 	C 	0.55836	0.0316	0.70831	-0.208
Mof_H 	H 	0.5341	0.0164	0.719	0.089
Mof_C 	C 	0.54681	0.0651	0.6568	0.104
Mof_H 	H 	0.5145	0.0728	0.6332	-0.057
Mof_C 	C 	0.72658	0.1621	0.01085	0.018
Mof_H 	H 	0.7576	0.1813	0.0249	-0.028
Mof_C 	C 	0.71476	0.107	0.97107	-0.103
Mof_H 	H 	0.7372	0.0899	0.9579	0.061
Mof_C 	C 	0.67035	0.07727	0.95077	0.104
Mof_C 	C 	0.63898	0.1053	0.9718	-0.096
Mof_H 	H 	0.6081	0.0859	0.9595	0.076
Mof_C 	C 	0.65331	0.1609	0.01037	0.01
Mof_H 	H 	0.6313	0.18	0.0235	0.008
Mof_C 	C 	0.61985	0.98764	0.80232	-0.268
Mof_H 	H 	0.6453	0.9517	0.8091	0.099
Mof_H 	H 	0.5928	0.9621	0.8049	0.101
Mof_C 	C 	0.63747	0.04792	0.84756	0.047
Mof_H 	H 	0.6635	0.0748	0.8436	0.009
Mof_H 	H 	0.6115	0.0827	0.8413	0.011
Mof_C 	C 	0.65482	0.0172	0.90733	-0.235
Mof_H 	H 	0.6292	0.989	0.9111	0.087
Mof_H 	H 	0.6815	0.9838	0.9142	0.079
Mof_C 	C 	0.74659	0.349	0.18919	0.1
Mof_H 	H 	0.7139	0.3534	0.1799	-0.018
Mof_C 	C 	0.77775	0.3798	0.2387	-0.205
Mof_H 	H 	0.7664	0.4049	0.2626	0.089
Mof_C 	C 	0.82577	0.37398	0.25348	0.176
Mof_C 	C 	0.83915	0.33958	0.21528	-0.213
Mof_H 	H 	0.8716	0.3362	0.2229	0.085
Mof_C 	C 	0.80616	0.31004	0.1662	0.099
Mof_H 	H 	0.8165	0.2867	0.1407	-0.051
Mof_C 	C 	0.95945	0.20854	0.50964	0.094
Mof_H 	H 	0.9463	0.1766	0.5281	-0.059
Mof_C 	C 	0.93026	0.26049	0.47382	-0.218
Mof_H 	H 	0.8981	0.2631	0.4679	0.091
Mof_C 	C 	0.94807	0.30872	0.44659	0.197
Mof_C 	C 	0.99536	0.30082	0.45739	-0.307
Mof_H 	H 	0.0094	0.3326	0.44	0.136
Mof_C 	C 	0.02209	0.24676	0.49348	0.175
Mof_H 	H 	0.0543	0.2423	0.4998	-0.034
Mof_C 	C 	0.86131	0.40179	0.30891	-0.283
Mof_H 	H 	0.8454	0.4336	0.3263	0.102
Mof_H 	H 	0.8852	0.4313	0.3024	0.1
Mof_C 	C 	0.88608	0.33892	0.34972	0.072
Mof_H 	H 	0.8621	0.3066	0.3534	0.001
Mof_H 	H 	0.9047	0.3099	0.3341	-0.001
Mof_C 	C 	0.91865	0.36803	0.4079	-0.284
Mof_H 	H 	0.9398	0.4053	0.4034	0.078
Mof_H 	H 	0.8994	0.3917	0.4253	0.09
Mof_C 	C 	0.6672	0.31582	0.93527	0.103
Mof_H 	H 	0.6997	0.3205	0.9592	-0.045
Mof_C 	C 	0.65472	0.28216	0.88326	-0.202
Mof_H 	H 	0.6784	0.2638	0.8726	0.09
Mof_C 	C 	0.60736	0.27545	0.84675	0.173
Mof_C 	C 	0.575	0.30374	0.86477	-0.201
Mof_H 	H 	0.5423	0.3018	0.8409	0.09
Mof_C 	C 	0.59007	0.33498	0.91773	0.097
Mof_H 	H 	0.5669	0.3525	0.9296	-0
Mof_C 	C 	0.55	0.40193	0.57492	0.098
Mof_H 	H 	0.5708	0.4185	0.559	-0.008
Mof_C 	C 	0.56481	0.3479	0.61464	-0.205
Mof_H 	H 	0.5956	0.3283	0.6259	0.101
Mof_C 	C 	0.53594	0.3216	0.63853	0.167
Mof_C 	C 	0.49115	0.35207	0.6206	-0.201
Mof_H 	H 	0.4699	0.336	0.636	0.084
Mof_C 	C 	0.47794	0.40651	0.57976	0.097
Mof_H 	H 	0.4471	0.4261	0.5671	-0.047
Mof_C 	C 	0.55226	0.26396	0.68343	-0.273
Mof_H 	H 	0.5766	0.2335	0.6788	0.093
Mof_H 	H 	0.5254	0.2322	0.6795	0.091
Mof_C 	C 	0.57278	0.29907	0.74275	0.068
Mof_H 	H 	0.5985	0.3329	0.7458	0.006
Mof_H 	H 	0.5479	0.3276	0.7479	0.002
Mof_C 	C 	0.59187	0.24179	0.78915	-0.28
Mof_H 	H 	0.5671	0.2051	0.7838	0.103
Mof_H 	H 	0.6189	0.2166	0.7864	0.105
Mof_C 	C 	0.46033	0.40201	0.90405	0.091
Mof_H 	H 	0.4934	0.3967	0.916	-0.006
Mof_C 	C 	0.43091	0.37092	0.85319	-0.194
Mof_H 	H 	0.4437	0.3449	0.8312	0.086
Mof_C 	C 	0.38253	0.3783	0.83474	0.166
Mof_C 	C 	0.36651	0.41487	0.86991	-0.204
Mof_H 	H 	0.3336	0.4197	0.8594	0.088
Mof_C 	C 	0.39774	0.44439	0.91998	0.097
Mof_H 	H 	0.3856	0.4694	0.9431	-0.037
Mof_C 	C 	0.24933	0.5367	0.57297	0.102
Mof_H 	H 	0.2617	0.5659	0.5521	-0.056
Mof_C 	C 	0.27882	0.4844	0.6098	-0.203
Mof_H 	H 	0.3103	0.4789	0.6137	0.086
Mof_C 	C 	0.26169	0.4412	0.64011	0.162
Mof_C 	C 	0.21619	0.4533	0.63312	-0.209
Mof_H 	H 	0.2031	0.4256	0.6539	0.087
Mof_C 	C 	0.18913	0.5066	0.59526	0.113
Mof_H 	H 	0.1575	0.5133	0.5907	-0.02
Mof_C 	C 	0.29104	0.3825	0.67953	-0.258
Mof_H 	H 	0.3106	0.3585	0.6626	0.081
Mof_H 	H 	0.2699	0.3453	0.684	0.072
Mof_C 	C 	0.32326	0.4123	0.73778	0.058
Mof_H 	H 	0.3042	0.4399	0.7537	0.006
Mof_H 	H 	0.3466	0.446	0.734	0.006
Mof_C 	C 	0.34904	0.34982	0.77781	-0.27
Mof_H 	H 	0.3257	0.3173	0.7827	0.101
Mof_H 	H 	0.3669	0.321	0.761	0.098
Mof_C 	C 	0.61652	0.42479	0.17384	0.102
Mof_H 	H 	0.6372	0.4054	0.1587	-0.012
Mof_C 	C 	0.63606	0.45544	0.22691	-0.208
Mof_H 	H 	0.6693	0.4564	0.2475	0.092
Mof_C 	C 	0.60694	0.48478	0.24993	0.179
Mof_C 	C 	0.55899	0.48135	0.21724	-0.214
Mof_H 	H 	0.5376	0.5013	0.231	0.092
Mof_C 	C 	0.54202	0.44928	0.1649	0.108
Mof_H 	H 	0.5089	0.4472	0.1437	-0.059
Mof_C 	C 	0.7367	0.3433	0.51929	0.109
Mof_H 	H 	0.7685	0.3275	0.537	-0.049
Mof_C 	C 	0.72563	0.3992	0.48086	-0.212
Mof_H 	H 	0.7495	0.4207	0.472	0.087
Mof_C 	C 	0.68009	0.42409	0.45531	0.168
Mof_C 	C 	0.64665	0.3905	0.46967	-0.201
Mof_H 	H 	0.6148	0.4061	0.4531	0.099
Mof_C 	C 	0.66022	0.33445	0.50816	0.099
Mof_H 	H 	0.637	0.3119	0.5177	-0.013
Mof_C 	C 	0.62642	0.51582	0.30859	-0.284
Mof_H 	H 	0.6017	0.5443	0.3141	0.107
Mof_H 	H 	0.6529	0.549	0.3136	0.104
Mof_C 	C 	0.64381	0.45451	0.35281	0.07
Mof_H 	H 	0.617	0.4225	0.3487	0.005
Mof_H 	H 	0.6675	0.4248	0.3462	0.002
Mof_C 	C 	0.66559	0.48533	0.41268	-0.271
Mof_H 	H 	0.6935	0.5152	0.4176	0.09
Mof_H 	H 	0.6424	0.517	0.4189	0.091
Mof_C 	C 	0.81174	0.1874	0.66883	0.095
Mof_H 	H 	0.8233	0.2111	0.6447	-0.047
Mof_C 	C 	0.84349	0.1589	0.71965	-0.209
Mof_H 	H 	0.8763	0.1637	0.7296	0.085
Mof_C 	C 	0.8285	0.12402	0.75569	0.172
Mof_C 	C 	0.78033	0.11701	0.73846	-0.203
Mof_H 	H 	0.768	0.0915	0.7612	0.088
Mof_C 	C 	0.75032	0.1475	0.68784	0.098
Mof_H 	H 	0.7174	0.1435	0.6773	-0.013
Mof_C 	C 	0.03409	0.2494	0.98198	0.119
Mof_H 	H 	0.0649	0.2556	0.9837	-0.008
Mof_C 	C 	0.00506	0.19728	0.94563	-0.135
Mof_H 	H 	0.0159	0.1692	0.9227	0.077
Mof_C 	C 	0.96037	0.18645	0.94292	0.079
Mof_C 	C 	0.94625	0.23031	0.97637	-0.086
Mof_H 	H 	0.9156	0.2251	0.9755	0.058
Mof_C 	C 	0.97678	0.2816	0.01096	-0.017
Mof_H 	H 	0.9662	0.3114	0.0332	-0.032
Mof_C 	C 	0.86294	0.09702	0.81226	-0.27
Mof_H 	H 	0.8837	0.0601	0.8067	0.099
Mof_H 	H 	0.8454	0.0733	0.8319	0.099
Mof_C 	C 	0.8931	0.15831	0.84911	0.043
Mof_H 	H 	0.8725	0.1947	0.8558	0.012
Mof_H 	H 	0.9103	0.1828	0.8294	0.007
Mof_C 	C 	0.92837	0.1284	0.90559	-0.213
Mof_H 	H 	0.9109	0.1053	0.9256	0.065
Mof_H 	H 	0.9478	0.0904	0.8985	0.059
Mof_Cu	Cu	0.99998	0.51811	0.49999	0.81
Mof_Cu	Cu	0.06289	0.63566	0.56568	0.843
Mof_Cu	Cu	0.21437	0.76266	0.08896	0.817
Mof_Cu	Cu	0.15317	0.88685	0.02745	0.831
Mof_Cu	Cu	0.98788	0.9925	0.00127	0.792
Mof_Cu	Cu	0.04581	0.87333	0.06919	0.831
Mof_Cu	Cu	0.22088	0.73442	0.5887	0.82
Mof_Cu	Cu	0.16356	0.61891	0.51417	0.827
Mof_Cl	Cl	0.07634	0.54813	0.49772	-0.652
Mof_Cl	Cl	0.13662	0.79848	0.08829	-0.665
Mof_Cl	Cl	0.06878	0.95322	0.00643	-0.678
Mof_Cl	Cl	0.14343	0.69994	0.58669	-0.671
Mof_N 	N 	0.95417	0.5694	0.43654	-0.279
Mof_N 	N 	0.69599	0.46098	0.07655	-0.269
Mof_N 	N 	0.01534	0.44323	0.55635	-0.26
Mof_N 	N 	0.14004	0.33091	0.94209	-0.263
Mof_N 	N 	0.07888	0.58716	0.6387	-0.268
Mof_N 	N 	0.19662	0.68955	0.0305	-0.25
Mof_N 	N 	0.25981	0.81334	0.1535	-0.278
Mof_N 	N 	0.5046	0.70029	0.51996	-0.273
Mof_N 	N 	0.13581	0.84186	0.95327	-0.256
Mof_N 	N 	0.00678	0.9326	0.55749	-0.262
Mof_N 	N 	0.94479	0.93924	0.93748	-0.268
Mof_N 	N 	0.70507	0.04784	0.56569	-0.278
Mof_N 	N 	0.07001	0.92081	0.14241	-0.272
Mof_N 	N 	0.20457	0.81021	0.53273	-0.279
Mof_N 	N 	0.26494	0.68228	0.65304	-0.276
Mof_N 	N 	0.52052	0.79161	0.01478	-0.28
Mof_C 	C 	0.96683	0.60572	0.40027	0.094
Mof_H 	H 	0.9995	0.6108	0.4093	-0.025
Mof_C 	C 	0.93541	0.63617	0.35073	-0.202
Mof_H 	H 	0.9464	0.6617	0.3268	0.082
Mof_C 	C 	0.88755	0.62917	0.33625	0.166
Mof_C 	C 	0.87435	0.5938	0.37447	-0.208
Mof_H 	H 	0.8419	0.5895	0.3669	0.087
Mof_C 	C 	0.90766	0.56494	0.42306	0.098
Mof_H 	H 	0.8975	0.5407	0.4483	-0.047
Mof_C 	C 	0.74151	0.4629	0.08618	0.098
Mof_H 	H 	0.753	0.4278	0.0682	-0.064
Mof_C 	C 	0.77277	0.5135	0.12101	-0.196
Mof_H 	H 	0.8049	0.5122	0.1268	0.082
Mof_C 	C 	0.75719	0.56609	0.14745	0.149
Mof_C 	C 	0.70997	0.56395	0.13747	-0.198
Mof_H 	H 	0.6975	0.5989	0.1545	0.083
Mof_C 	C 	0.68074	0.51077	0.10254	0.1
Mof_H 	H 	0.6486	0.5098	0.0969	-0.012
Mof_C 	C 	0.85141	0.65674	0.28019	-0.268
Mof_H 	H 	0.8676	0.6847	0.2609	0.096
Mof_H 	H 	0.8292	0.6898	0.2869	0.1
Mof_C 	C 	0.82379	0.59355	0.24211	0.052
Mof_H 	H 	0.8057	0.5674	0.26	0.007
Mof_H 	H 	0.8459	0.5588	0.237	0.005
Mof_C 	C 	0.78981	0.62383	0.18438	-0.249
Mof_H 	H 	0.7708	0.6635	0.1903	0.072
Mof_H 	H 	0.8084	0.6447	0.1649	0.074
Mof_C 	C 	0.05978	0.41656	0.58084	0.106
Mof_H 	H 	0.0835	0.4377	0.5715	-0.014
Mof_C 	C 	0.07174	0.35962	0.61893	-0.216
Mof_H 	H 	0.1034	0.3433	0.636	0.107
Mof_C 	C 	0.03808	0.3265	0.63236	0.21
Mof_C 	C 	0.9929	0.3546	0.60784	-0.244
Mof_H 	H 	0.9687	0.3343	0.6167	0.091
Mof_C 	C 	0.98284	0.4124	0.57022	0.093
Mof_H 	H 	0.9516	0.4307	0.5538	-0.046
Mof_C 	C 	0.16872	0.2992	0.92167	0.103
Mof_H 	H 	0.2017	0.3001	0.9439	-0.043
Mof_C 	C 	0.15196	0.26517	0.86937	-0.207
Mof_H 	H 	0.1734	0.2438	0.8563	0.092
Mof_C 	C 	0.10385	0.2624	0.83618	0.181
Mof_C 	C 	0.07464	0.2947	0.85771	-0.208
Mof_H 	H 	0.0415	0.2942	0.8366	0.097
Mof_C 	C 	0.09379	0.3277	0.91007	0.103
Mof_H 	H 	0.073	0.3492	0.924	-0.006
Mof_C 	C 	0.05077	0.26468	0.67386	-0.298
Mof_H 	H 	0.0742	0.233	0.6684	0.098
Mof_H 	H 	0.0224	0.2351	0.667	0.097
Mof_C 	C 	0.07106	0.29313	0.73456	0.085
Mof_H 	H 	0.0475	0.3247	0.7399	0.001
Mof_H 	H 	0.0993	0.323	0.7412	0.001
Mof_C 	C 	0.08455	0.23101	0.77779	-0.293
Mof_H 	H 	0.0565	0.2009	0.7716	0.108
Mof_H 	H 	0.1085	0.1995	0.7732	0.11
Mof_C 	C 	0.12424	0.5756	0.67332	0.098
Mof_H 	H 	0.1478	0.5907	0.6612	-0.01
Mof_C 	C 	0.13847	0.5429	0.72546	-0.202
Mof_H 	H 	0.171	0.5361	0.7483	0.09
Mof_C 	C 	0.10505	0.51988	0.7445	0.172
Mof_C 	C 	0.05836	0.5316	0.70831	-0.208
Mof_H 	H 	0.0341	0.5164	0.719	0.095
Mof_C 	C 	0.04681	0.5651	0.6568	0.106
Mof_H 	H 	0.0145	0.5728	0.6332	-0.05
Mof_C 	C 	0.22658	0.6621	0.01085	0.015
Mof_H 	H 	0.2576	0.6813	0.0249	-0.027
Mof_C 	C 	0.21476	0.607	0.97107	-0.099
Mof_H 	H 	0.2372	0.5899	0.9579	0.06
Mof_C 	C 	0.17035	0.57727	0.95077	0.101
Mof_C 	C 	0.13898	0.6053	0.9718	-0.091
Mof_H 	H 	0.1081	0.5859	0.9595	0.077
Mof_C 	C 	0.15331	0.6609	0.01037	0.007
Mof_H 	H 	0.1313	0.68	0.0235	0.009
Mof_C 	C 	0.11985	0.48764	0.80232	-0.27
Mof_H 	H 	0.1453	0.4517	0.8091	0.1
Mof_H 	H 	0.0928	0.4621	0.8049	0.104
Mof_C 	C 	0.13747	0.54792	0.84756	0.047
Mof_H 	H 	0.1635	0.5748	0.8436	0.009
Mof_H 	H 	0.1115	0.5827	0.8413	0.013
Mof_C 	C 	0.15482	0.5172	0.90733	-0.229
Mof_H 	H 	0.1292	0.489	0.9111	0.085
Mof_H 	H 	0.1815	0.4838	0.9142	0.076
Mof_C 	C 	0.24659	0.849	0.18919	0.099
Mof_H 	H 	0.2139	0.8534	0.1799	-0.018
Mof_C 	C 	0.27775	0.8798	0.2387	-0.204
Mof_H 	H 	0.2664	0.9049	0.2626	0.088
Mof_C 	C 	0.32577	0.87398	0.25348	0.174
Mof_C 	C 	0.33915	0.83958	0.21528	-0.212
Mof_H 	H 	0.3716	0.8362	0.2229	0.088
Mof_C 	C 	0.30616	0.81004	0.1662	0.099
Mof_H 	H 	0.3165	0.7867	0.1407	-0.05
Mof_C 	C 	0.45945	0.70854	0.50964	0.106
Mof_H 	H 	0.4463	0.6766	0.5281	-0.057
Mof_C 	C 	0.43026	0.76049	0.47382	-0.198
Mof_H 	H 	0.3981	0.7631	0.4679	0.086
Mof_C 	C 	0.44807	0.80872	0.44659	0.154
Mof_C 	C 	0.49536	0.80082	0.45739	-0.194
Mof_H 	H 	0.5094	0.8326	0.44	0.081
Mof_C 	C 	0.52209	0.74676	0.49348	0.098
Mof_H 	H 	0.5543	0.7423	0.4998	-0.01
Mof_C 	C 	0.36131	0.90179	0.30891	-0.276
Mof_H 	H 	0.3454	0.9336	0.3263	0.101
Mof_H 	H 	0.3852	0.9313	0.3024	0.1
Mof_C 	C 	0.38608	0.83892	0.34972	0.058
Mof_H 	H 	0.3621	0.8066	0.3534	0.006
Mof_H 	H 	0.4047	0.8099	0.3341	0.006
Mof_C 	C 	0.41865	0.86803	0.4079	-0.255
Mof_H 	H 	0.4398	0.9053	0.4034	0.074
Mof_H 	H 	0.3994	0.8917	0.4253	0.083
Mof_C 	C 	0.1672	0.81582	0.93527	0.105
Mof_H 	H 	0.1997	0.8205	0.9592	-0.045
Mof_C 	C 	0.15472	0.78216	0.88326	-0.205
Mof_H 	H 	0.1784	0.7638	0.8726	0.091
Mof_C 	C 	0.10736	0.77545	0.84675	0.177
Mof_C 	C 	0.075	0.80374	0.86477	-0.204
Mof_H 	H 	0.0423	0.8018	0.8409	0.096
Mof_C 	C 	0.09007	0.83498	0.91773	0.099
Mof_H 	H 	0.0669	0.8525	0.9296	0.004
Mof_C 	C 	0.05	0.90193	0.57492	0.112
Mof_H 	H 	0.0708	0.9185	0.559	-0.011
Mof_C 	C 	0.06481	0.8479	0.61464	-0.223
Mof_H 	H 	0.0956	0.8283	0.6259	0.107
Mof_C 	C 	0.03594	0.8216	0.63853	0.207
Mof_C 	C 	0.99115	0.85207	0.6206	-0.24
Mof_H 	H 	0.9699	0.836	0.636	0.09
Mof_C 	C 	0.97794	0.90651	0.57976	0.086
Mof_H 	H 	0.9471	0.9261	0.5671	-0.046
Mof_C 	C 	0.05226	0.76396	0.68343	-0.296
Mof_H 	H 	0.0766	0.7335	0.6788	0.101
Mof_H 	H 	0.0254	0.7322	0.6795	0.104
Mof_C 	C 	0.07278	0.79907	0.74275	0.081
Mof_H 	H 	0.0985	0.8329	0.7458	0.002
Mof_H 	H 	0.0479	0.8276	0.7479	0.002
Mof_C 	C 	0.09187	0.74179	0.78915	-0.288
Mof_H 	H 	0.0671	0.7051	0.7838	0.107
Mof_H 	H 	0.1189	0.7166	0.7864	0.107
Mof_C 	C 	0.96033	0.90201	0.90405	0.091
Mof_H 	H 	0.9934	0.8967	0.916	-0.016
Mof_C 	C 	0.93091	0.87092	0.85319	-0.196
Mof_H 	H 	0.9437	0.8449	0.8312	0.081
Mof_C 	C 	0.88253	0.8783	0.83474	0.165
Mof_C 	C 	0.86651	0.91487	0.86991	-0.204
Mof_H 	H 	0.8336	0.9197	0.8594	0.088
Mof_C 	C 	0.89774	0.94439	0.91998	0.097
Mof_H 	H 	0.8856	0.9694	0.9431	-0.038
Mof_C 	C 	0.74933	0.0367	0.57297	0.1
Mof_H 	H 	0.7617	0.0659	0.5521	-0.056
Mof_C 	C 	0.77882	0.9844	0.6098	-0.2
Mof_H 	H 	0.8103	0.9789	0.6137	0.084
Mof_C 	C 	0.76169	0.9412	0.64011	0.161
Mof_C 	C 	0.71619	0.9533	0.63312	-0.207
Mof_H 	H 	0.7031	0.9256	0.6539	0.087
Mof_C 	C 	0.68913	0.0066	0.59526	0.111
Mof_H 	H 	0.6575	0.0133	0.5907	-0.019
Mof_C 	C 	0.79104	0.8825	0.67953	-0.257
Mof_H 	H 	0.8106	0.8585	0.6626	0.08
Mof_H 	H 	0.7699	0.8453	0.684	0.072
Mof_C 	C 	0.82326	0.9123	0.73778	0.057
Mof_H 	H 	0.8042	0.9399	0.7537	0.007
Mof_H 	H 	0.8466	0.946	0.734	0.005
Mof_C 	C 	0.84904	0.84982	0.77781	-0.27
Mof_H 	H 	0.8257	0.8173	0.7827	0.101
Mof_H 	H 	0.8669	0.821	0.761	0.097
Mof_C 	C 	0.11652	0.92479	0.17384	0.102
Mof_H 	H 	0.1372	0.9054	0.1587	-0.012
Mof_C 	C 	0.13606	0.95544	0.22691	-0.209
Mof_H 	H 	0.1693	0.9564	0.2475	0.092
Mof_C 	C 	0.10694	0.98478	0.24993	0.18
Mof_C 	C 	0.05899	0.98135	0.21724	-0.213
Mof_H 	H 	0.0376	0.0013	0.231	0.096
Mof_C 	C 	0.04202	0.94928	0.1649	0.109
Mof_H 	H 	0.0089	0.9472	0.1437	-0.052
Mof_C 	C 	0.2367	0.8433	0.51929	0.109
Mof_H 	H 	0.2685	0.8275	0.537	-0.049
Mof_C 	C 	0.22563	0.8992	0.48086	-0.212
Mof_H 	H 	0.2495	0.9207	0.472	0.087
Mof_C 	C 	0.18009	0.92409	0.45531	0.169
Mof_C 	C 	0.14665	0.8905	0.46967	-0.202
Mof_H 	H 	0.1148	0.9061	0.4531	0.1
Mof_C 	C 	0.16022	0.83445	0.50816	0.1
Mof_H 	H 	0.137	0.8119	0.5177	-0.013
Mof_C 	C 	0.12642	0.01582	0.30859	-0.284
Mof_H 	H 	0.1017	0.0443	0.3141	0.108
Mof_H 	H 	0.1529	0.049	0.3136	0.104
Mof_C 	C 	0.14381	0.95451	0.35281	0.07
Mof_H 	H 	0.117	0.9225	0.3487	0.006
Mof_H 	H 	0.1675	0.9248	0.3462	0.002
Mof_C 	C 	0.16559	0.98533	0.41268	-0.27
Mof_H 	H 	0.1935	0.0152	0.4176	0.09
Mof_H 	H 	0.1424	0.017	0.4189	0.091
Mof_C 	C 	0.31174	0.6874	0.66883	0.098
Mof_H 	H 	0.3233	0.7111	0.6447	-0.047
Mof_C 	C 	0.34349	0.6589	0.71965	-0.214
Mof_H 	H 	0.3763	0.6637	0.7296	0.09
Mof_C 	C 	0.3285	0.62402	0.75569	0.179
Mof_C 	C 	0.28033	0.61701	0.73846	-0.207
Mof_H 	H 	0.268	0.5915	0.7612	0.09
Mof_C 	C 	0.25032	0.6475	0.68784	0.1
Mof_H 	H 	0.2174	0.6435	0.6773	-0.014
Mof_C 	C 	0.53409	0.7494	0.98198	0.143
Mof_H 	H 	0.5649	0.7556	0.9837	-0.017
Mof_C 	C 	0.50506	0.69728	0.94563	-0.198
Mof_H 	H 	0.5159	0.6692	0.9227	0.091
Mof_C 	C 	0.46037	0.68645	0.94292	0.139
Mof_C 	C 	0.44625	0.73031	0.97637	-0.125
Mof_H 	H 	0.4156	0.7251	0.9755	0.072
Mof_C 	C 	0.47678	0.7816	0.01096	0.029
Mof_H 	H 	0.4662	0.8114	0.0332	-0.041
Mof_C 	C 	0.36294	0.59702	0.81226	-0.283
Mof_H 	H 	0.3837	0.5601	0.8067	0.105
Mof_H 	H 	0.3454	0.5733	0.8319	0.103
Mof_C 	C 	0.3931	0.65831	0.84911	0.064
Mof_H 	H 	0.3725	0.6947	0.8558	0.006
Mof_H 	H 	0.4103	0.6828	0.8294	0.004
Mof_C 	C 	0.42837	0.6284	0.90559	-0.249
Mof_H 	H 	0.4109	0.6053	0.9256	0.076
Mof_H 	H 	0.4478	0.5904	0.8985	0.075
Mof_Cu	Cu	0.49998	0.98189	0.99999	0.836
Mof_Cu	Cu	0.56289	0.86434	0.06568	0.832
Mof_Cu	Cu	0.71437	0.73734	0.58896	0.82
Mof_Cu	Cu	0.65317	0.61315	0.52745	0.842
Mof_Cu	Cu	0.48788	0.5075	0.50127	0.816
Mof_Cu	Cu	0.54581	0.62667	0.56919	0.831
Mof_Cu	Cu	0.72088	0.76558	0.0887	0.817
Mof_Cu	Cu	0.66356	0.88109	0.01417	0.812
Mof_Cl	Cl	0.57634	0.95187	0.99772	-0.629
Mof_Cl	Cl	0.63662	0.70152	0.58829	-0.655
Mof_Cl	Cl	0.56878	0.54678	0.50643	-0.662
Mof_Cl	Cl	0.64343	0.80006	0.08669	-0.682
Mof_N 	N 	0.45417	0.9306	0.93654	-0.272
Mof_N 	N 	0.19599	0.03902	0.57655	-0.266
Mof_N 	N 	0.51534	0.05677	0.05635	-0.285
Mof_N 	N 	0.64004	0.16909	0.44209	-0.272
Mof_N 	N 	0.57888	0.91284	0.1387	-0.271
Mof_N 	N 	0.69662	0.81045	0.5305	-0.276
Mof_N 	N 	0.75981	0.68666	0.6535	-0.277
Mof_N 	N 	0.0046	0.79971	0.01996	-0.283
Mof_N 	N 	0.63581	0.65814	0.45327	-0.268
Mof_N 	N 	0.50678	0.5674	0.05749	-0.28
Mof_N 	N 	0.44479	0.56076	0.43748	-0.277
Mof_N 	N 	0.20507	0.45216	0.06569	-0.284
Mof_N 	N 	0.57001	0.57919	0.64241	-0.273
Mof_N 	N 	0.70457	0.68979	0.03273	-0.253
Mof_N 	N 	0.76494	0.81772	0.15304	-0.276
Mof_N 	N 	0.02052	0.70839	0.51478	-0.243
Mof_C 	C 	0.46683	0.89428	0.90027	0.1
Mof_H 	H 	0.4995	0.8892	0.9093	-0.014
Mof_C 	C 	0.43541	0.86383	0.85073	-0.201
Mof_H 	H 	0.4464	0.8383	0.8268	0.088
Mof_C 	C 	0.38755	0.87083	0.83625	0.169
Mof_C 	C 	0.37435	0.9062	0.87447	-0.207
Mof_H 	H 	0.3419	0.9105	0.8669	0.09
Mof_C 	C 	0.40766	0.93506	0.92306	0.101
Mof_H 	H 	0.3975	0.9593	0.9483	-0.038
Mof_C 	C 	0.24151	0.0371	0.58618	0.101
Mof_H 	H 	0.253	0.0722	0.5682	-0.057
Mof_C 	C 	0.27277	0.9865	0.62101	-0.194
Mof_H 	H 	0.3049	0.9878	0.6268	0.086
Mof_C 	C 	0.25719	0.93391	0.64745	0.151
Mof_C 	C 	0.20997	0.93605	0.63747	-0.198
Mof_H 	H 	0.1975	0.9011	0.6545	0.084
Mof_C 	C 	0.18074	0.98923	0.60254	0.104
Mof_H 	H 	0.1486	0.9902	0.5969	-0.011
Mof_C 	C 	0.35141	0.84326	0.78019	-0.269
Mof_H 	H 	0.3676	0.8153	0.7609	0.099
Mof_H 	H 	0.3292	0.8102	0.7869	0.101
Mof_C 	C 	0.32379	0.90645	0.74211	0.053
Mof_H 	H 	0.3057	0.9326	0.76	0.008
Mof_H 	H 	0.3459	0.9412	0.737	0.007
Mof_C 	C 	0.28981	0.87617	0.68438	-0.25
Mof_H 	H 	0.2708	0.8365	0.6903	0.072
Mof_H 	H 	0.3084	0.8553	0.6649	0.077
Mof_C 	C 	0.55978	0.08344	0.08084	0.09
Mof_H 	H 	0.5835	0.0623	0.0715	-0.019
Mof_C 	C 	0.57174	0.14038	0.11893	-0.2
Mof_H 	H 	0.6034	0.1567	0.136	0.1
Mof_C 	C 	0.53808	0.1735	0.13236	0.167
Mof_C 	C 	0.4929	0.1454	0.10784	-0.207
Mof_H 	H 	0.4687	0.1657	0.1167	0.082
Mof_C 	C 	0.48284	0.0876	0.07022	0.101
Mof_H 	H 	0.4516	0.0693	0.0538	-0.055
Mof_C 	C 	0.66872	0.2008	0.42167	0.099
Mof_H 	H 	0.7017	0.1999	0.4439	-0.053
Mof_C 	C 	0.65196	0.23483	0.36937	-0.206
Mof_H 	H 	0.6734	0.2562	0.3563	0.09
Mof_C 	C 	0.60385	0.2376	0.33618	0.175
Mof_C 	C 	0.57464	0.2053	0.35771	-0.206
Mof_H 	H 	0.5415	0.2058	0.3366	0.09
Mof_C 	C 	0.59379	0.1723	0.41007	0.099
Mof_H 	H 	0.573	0.1508	0.424	-0.011
Mof_C 	C 	0.55077	0.23532	0.17386	-0.272
Mof_H 	H 	0.5742	0.267	0.1684	0.09
Mof_H 	H 	0.5224	0.2649	0.167	0.083
Mof_C 	C 	0.57106	0.20687	0.23456	0.07
Mof_H 	H 	0.5475	0.1753	0.2399	0.002
Mof_H 	H 	0.5993	0.177	0.2412	0.005
Mof_C 	C 	0.58455	0.26899	0.27779	-0.283
Mof_H 	H 	0.5565	0.2991	0.2716	0.102
Mof_H 	H 	0.6085	0.3005	0.2732	0.107
Mof_C 	C 	0.62424	0.9244	0.17332	0.099
Mof_H 	H 	0.6478	0.9093	0.1612	-0.011
Mof_C 	C 	0.63847	0.9571	0.22546	-0.205
Mof_H 	H 	0.671	0.9639	0.2483	0.09
Mof_C 	C 	0.60505	0.98012	0.2445	0.175
Mof_C 	C 	0.55836	0.9684	0.20831	-0.212
Mof_H 	H 	0.5341	0.9836	0.219	0.09
Mof_C 	C 	0.54681	0.9349	0.1568	0.106
Mof_H 	H 	0.5145	0.9272	0.1332	-0.061
Mof_C 	C 	0.72658	0.8379	0.51085	0.108
Mof_H 	H 	0.7576	0.8187	0.5249	-0.047
Mof_C 	C 	0.71476	0.893	0.47107	-0.21
Mof_H 	H 	0.7372	0.9101	0.4579	0.087
Mof_C 	C 	0.67035	0.92273	0.45077	0.168
Mof_C 	C 	0.63898	0.8947	0.4718	-0.203
Mof_H 	H 	0.6081	0.9141	0.4595	0.105
Mof_C 	C 	0.65331	0.8391	0.51037	0.102
Mof_H 	H 	0.6313	0.82	0.5235	-0.012
Mof_C 	C 	0.61985	0.01236	0.30232	-0.281
Mof_H 	H 	0.6453	0.0483	0.3091	0.102
Mof_H 	H 	0.5928	0.0379	0.3049	0.105
Mof_C 	C 	0.63747	0.95208	0.34756	0.069
Mof_H 	H 	0.6635	0.9252	0.3436	0.002
Mof_H 	H 	0.6115	0.9173	0.3413	0.005
Mof_C 	C 	0.65482	0.9828	0.40733	-0.272
Mof_H 	H 	0.6292	0.011	0.4111	0.093
Mof_H 	H 	0.6815	0.0162	0.4142	0.083
Mof_C 	C 	0.74659	0.651	0.68919	0.1
Mof_H 	H 	0.7139	0.6466	0.6799	-0.018
Mof_C 	C 	0.77775	0.6202	0.7387	-0.205
Mof_H 	H 	0.7664	0.5951	0.7626	0.089
Mof_C 	C 	0.82577	0.62602	0.75348	0.175
Mof_C 	C 	0.83915	0.66042	0.71528	-0.212
Mof_H 	H 	0.8716	0.6638	0.7229	0.086
Mof_C 	C 	0.80616	0.68996	0.6662	0.098
Mof_H 	H 	0.8165	0.7133	0.6407	-0.048
Mof_C 	C 	0.95945	0.79146	0.00964	0.023
Mof_H 	H 	0.9463	0.8234	0.0281	-0.046
Mof_C 	C 	0.93026	0.73951	0.97382	-0.146
Mof_H 	H 	0.8981	0.7369	0.9679	0.077
Mof_C 	C 	0.94807	0.69128	0.94659	0.18
Mof_C 	C 	0.99536	0.69918	0.95739	-0.3
Mof_H 	H 	0.0094	0.6674	0.94	0.138
Mof_C 	C 	0.02209	0.75324	0.99348	0.21
Mof_H 	H 	0.0543	0.7577	0.9998	-0.03
Mof_C 	C 	0.86131	0.59821	0.80891	-0.28
Mof_H 	H 	0.8454	0.5664	0.8263	0.102
Mof_H 	H 	0.8852	0.5687	0.8024	0.1
Mof_C 	C 	0.88608	0.66108	0.84972	0.067
Mof_H 	H 	0.8621	0.6934	0.8534	0.004
Mof_H 	H 	0.9047	0.6901	0.8341	0.001
Mof_C 	C 	0.91865	0.63197	0.9079	-0.273
Mof_H 	H 	0.9398	0.5947	0.9034	0.077
Mof_H 	H 	0.8994	0.6083	0.9253	0.092
Mof_C 	C 	0.6672	0.68418	0.43527	0.101
Mof_H 	H 	0.6997	0.6795	0.4592	-0.057
Mof_C 	C 	0.65472	0.71784	0.38326	-0.205
Mof_H 	H 	0.6784	0.7362	0.3726	0.089
Mof_C 	C 	0.60736	0.72455	0.34675	0.173
Mof_C 	C 	0.575	0.69626	0.36477	-0.203
Mof_H 	H 	0.5423	0.6982	0.3409	0.089
Mof_C 	C 	0.59007	0.66502	0.41773	0.095
Mof_H 	H 	0.5669	0.6475	0.4296	-0.008
Mof_C 	C 	0.55	0.59807	0.07492	0.094
Mof_H 	H 	0.5708	0.5815	0.059	-0.012
Mof_C 	C 	0.56481	0.6521	0.11464	-0.207
Mof_H 	H 	0.5956	0.6717	0.1259	0.1
Mof_C 	C 	0.53594	0.6784	0.13853	0.165
Mof_C 	C 	0.49115	0.64793	0.1206	-0.202
Mof_H 	H 	0.4699	0.664	0.136	0.082
Mof_C 	C 	0.47794	0.59349	0.07976	0.094
Mof_H 	H 	0.4471	0.5739	0.0671	-0.053
Mof_C 	C 	0.55226	0.73604	0.18343	-0.272
Mof_H 	H 	0.5766	0.7665	0.1788	0.093
Mof_H 	H 	0.5254	0.7678	0.1795	0.09
Mof_C 	C 	0.57278	0.70093	0.24275	0.068
Mof_H 	H 	0.5985	0.6671	0.2458	0.006
Mof_H 	H 	0.5479	0.6724	0.2479	0.002
Mof_C 	C 	0.59187	0.75821	0.28915	-0.28
Mof_H 	H 	0.5671	0.7949	0.2838	0.103
Mof_H 	H 	0.6189	0.7834	0.2864	0.105
Mof_C 	C 	0.46033	0.59799	0.40405	0.089
Mof_H 	H 	0.4934	0.6033	0.416	-0.014
Mof_C 	C 	0.43091	0.62908	0.35319	-0.195
Mof_H 	H 	0.4437	0.6551	0.3312	0.086
Mof_C 	C 	0.38253	0.6217	0.33474	0.166
Mof_C 	C 	0.36651	0.58513	0.36991	-0.206
Mof_H 	H 	0.3336	0.5803	0.3594	0.086
Mof_C 	C 	0.39774	0.55561	0.41998	0.095
Mof_H 	H 	0.3856	0.5306	0.4431	-0.046
Mof_C 	C 	0.24933	0.4633	0.07297	0.098
Mof_H 	H 	0.2617	0.4341	0.0521	-0.064
Mof_C 	C 	0.27882	0.5156	0.1098	-0.205
Mof_H 	H 	0.3103	0.5211	0.1137	0.083
Mof_C 	C 	0.26169	0.5588	0.14011	0.162
Mof_C 	C 	0.21619	0.5467	0.13312	-0.209
Mof_H 	H 	0.2031	0.5744	0.1539	0.087
Mof_C 	C 	0.18913	0.4934	0.09526	0.111
Mof_H 	H 	0.1575	0.4867	0.0907	-0.025
Mof_C 	C 	0.29104	0.6175	0.17953	-0.257
Mof_H 	H 	0.3106	0.6415	0.1626	0.079
Mof_H 	H 	0.2699	0.6547	0.184	0.072
Mof_C 	C 	0.32326	0.5877	0.23778	0.058
Mof_H 	H 	0.3042	0.5601	0.2537	0.006
Mof_H 	H 	0.3466	0.554	0.234	0.006
Mof_C 	C 	0.34904	0.65018	0.27781	-0.27
Mof_H 	H 	0.3257	0.6827	0.2827	0.1
Mof_H 	H 	0.3669	0.679	0.261	0.098
Mof_C 	C 	0.61652	0.57521	0.67384	0.101
Mof_H 	H 	0.6372	0.5946	0.6587	-0.012
Mof_C 	C 	0.63606	0.54456	0.72691	-0.206
Mof_H 	H 	0.6693	0.5436	0.7475	0.092
Mof_C 	C 	0.60694	0.51522	0.74993	0.174
Mof_C 	C 	0.55899	0.51865	0.71724	-0.211
Mof_H 	H 	0.5376	0.4987	0.731	0.091
Mof_C 	C 	0.54202	0.55072	0.6649	0.106
Mof_H 	H 	0.5089	0.5528	0.6437	-0.057
Mof_C 	C 	0.7367	0.6567	0.01929	0.013
Mof_H 	H 	0.7685	0.6725	0.037	-0.027
Mof_C 	C 	0.72563	0.6008	0.98086	-0.097
Mof_H 	H 	0.7495	0.5793	0.972	0.06
Mof_C 	C 	0.68009	0.57591	0.95531	0.099
Mof_C 	C 	0.64665	0.6095	0.96967	-0.089
Mof_H 	H 	0.6148	0.5939	0.9531	0.071
Mof_C 	C 	0.66022	0.66555	0.00816	0.004
Mof_H 	H 	0.637	0.6881	0.0177	0.007
Mof_C 	C 	0.62642	0.48418	0.80859	-0.272
Mof_H 	H 	0.6017	0.4557	0.8141	0.104
Mof_H 	H 	0.6529	0.451	0.8136	0.101
Mof_C 	C 	0.64381	0.54549	0.85281	0.047
Mof_H 	H 	0.617	0.5775	0.8487	0.013
Mof_H 	H 	0.6675	0.5752	0.8462	0.009
Mof_C 	C 	0.66559	0.51467	0.91268	-0.226
Mof_H 	H 	0.6935	0.4848	0.9176	0.082
Mof_H 	H 	0.6424	0.483	0.9189	0.083
Mof_C 	C 	0.81174	0.8126	0.16883	0.095
Mof_H 	H 	0.8233	0.7889	0.1447	-0.05
Mof_C 	C 	0.84349	0.8411	0.21965	-0.21
Mof_H 	H 	0.8763	0.8363	0.2296	0.085
Mof_C 	C 	0.8285	0.87598	0.25569	0.173
Mof_C 	C 	0.78033	0.88299	0.23846	-0.203
Mof_H 	H 	0.768	0.9085	0.2612	0.088
Mof_C 	C 	0.75032	0.8525	0.18784	0.098
Mof_H 	H 	0.7174	0.8565	0.1773	-0.013
Mof_C 	C 	0.03409	0.7506	0.48198	0.083
Mof_H 	H 	0.0649	0.7444	0.4837	-0.008
Mof_C 	C 	0.00506	0.80272	0.44563	-0.138
Mof_H 	H 	0.0159	0.8308	0.4227	0.073
Mof_C 	C 	0.96037	0.81355	0.44292	0.093
Mof_C 	C 	0.94625	0.76969	0.47637	-0.155
Mof_H 	H 	0.9156	0.7749	0.4755	0.07
Mof_C 	C 	0.97678	0.7184	0.51096	0.052
Mof_H 	H 	0.9662	0.6886	0.5332	-0.045
Mof_C 	C 	0.86294	0.90298	0.31226	-0.272
Mof_H 	H 	0.8837	0.9399	0.3067	0.1
Mof_H 	H 	0.8454	0.9267	0.3319	0.098
Mof_C 	C 	0.8931	0.84169	0.34911	0.047
Mof_H 	H 	0.8725	0.8053	0.3558	0.01
Mof_H 	H 	0.9103	0.8172	0.3294	0.006
Mof_C 	C 	0.92837	0.8716	0.40559	-0.221
Mof_H 	H 	0.9109	0.8947	0.4256	0.062
Mof_H 	H 	0.9478	0.9096	0.3985	0.058
Mof_Cu	Cu	0.99998	0.48189	0.99999	0.824
Mof_Cu	Cu	0.06289	0.36434	0.06568	0.834
Mof_Cu	Cu	0.21437	0.23734	0.58896	0.82
Mof_Cu	Cu	0.15317	0.11315	0.52745	0.842
Mof_Cu	Cu	0.98788	0.0075	0.50127	0.805
Mof_Cu	Cu	0.04581	0.12667	0.56919	0.834
Mof_Cu	Cu	0.22088	0.26558	0.0887	0.817
Mof_Cu	Cu	0.16356	0.38109	0.01417	0.812
Mof_Cl	Cl	0.07634	0.45187	0.99772	-0.62
Mof_Cl	Cl	0.13662	0.20152	0.58829	-0.655
Mof_Cl	Cl	0.06878	0.04678	0.50643	-0.653
Mof_Cl	Cl	0.14343	0.30006	0.08669	-0.682
Mof_N 	N 	0.95417	0.4306	0.93654	-0.275
Mof_N 	N 	0.69599	0.53902	0.57655	-0.266
Mof_N 	N 	0.01534	0.55677	0.05635	-0.272
Mof_N 	N 	0.14004	0.66909	0.44209	-0.273
Mof_N 	N 	0.07888	0.41284	0.1387	-0.27
Mof_N 	N 	0.19662	0.31045	0.5305	-0.276
Mof_N 	N 	0.25981	0.18666	0.6535	-0.277
Mof_N 	N 	0.5046	0.29971	0.01996	-0.284
Mof_N 	N 	0.13581	0.15814	0.45327	-0.268
Mof_N 	N 	0.00678	0.0674	0.05749	-0.266
Mof_N 	N 	0.94479	0.06076	0.43748	-0.28
Mof_N 	N 	0.70507	0.95216	0.06569	-0.283
Mof_N 	N 	0.07001	0.07919	0.64241	-0.272
Mof_N 	N 	0.20457	0.18979	0.03273	-0.254
Mof_N 	N 	0.26494	0.31772	0.15304	-0.277
Mof_N 	N 	0.52052	0.20839	0.51478	-0.267
Mof_C 	C 	0.96683	0.39428	0.90027	0.098
Mof_H 	H 	0.9995	0.3892	0.9093	-0.024
Mof_C 	C 	0.93541	0.36383	0.85073	-0.203
Mof_H 	H 	0.9464	0.3383	0.8268	0.083
Mof_C 	C 	0.88755	0.37083	0.83625	0.168
Mof_C 	C 	0.87435	0.4062	0.87447	-0.207
Mof_H 	H 	0.8419	0.4105	0.8669	0.09
Mof_C 	C 	0.90766	0.43506	0.92306	0.1
Mof_H 	H 	0.8975	0.4593	0.9483	-0.04
Mof_C 	C 	0.74151	0.5371	0.58618	0.102
Mof_H 	H 	0.753	0.5722	0.5682	-0.057
Mof_C 	C 	0.77277	0.4865	0.62101	-0.195
Mof_H 	H 	0.8049	0.4878	0.6268	0.085
Mof_C 	C 	0.75719	0.43391	0.64745	0.151
Mof_C 	C 	0.70997	0.43605	0.63747	-0.198
Mof_H 	H 	0.6975	0.4011	0.6545	0.083
Mof_C 	C 	0.68074	0.48923	0.60254	0.103
Mof_H 	H 	0.6486	0.4902	0.5969	-0.011
Mof_C 	C 	0.85141	0.34326	0.78019	-0.269
Mof_H 	H 	0.8676	0.3153	0.7609	0.097
Mof_H 	H 	0.8292	0.3102	0.7869	0.101
Mof_C 	C 	0.82379	0.40645	0.74211	0.053
Mof_H 	H 	0.8057	0.4326	0.76	0.007
Mof_H 	H 	0.8459	0.4412	0.737	0.005
Mof_C 	C 	0.78981	0.37617	0.68438	-0.25
Mof_H 	H 	0.7708	0.3365	0.6903	0.072
Mof_H 	H 	0.8084	0.3553	0.6649	0.076
Mof_C 	C 	0.05978	0.58344	0.08084	0.103
Mof_H 	H 	0.0835	0.5623	0.0715	-0.023
Mof_C 	C 	0.07174	0.64038	0.11893	-0.219
Mof_H 	H 	0.1034	0.6567	0.136	0.107
Mof_C 	C 	0.03808	0.6735	0.13236	0.208
Mof_C 	C 	0.9929	0.6454	0.10784	-0.247
Mof_H 	H 	0.9687	0.6657	0.1167	0.088
Mof_C 	C 	0.98284	0.5876	0.07022	0.089
Mof_H 	H 	0.9516	0.5693	0.0538	-0.056
Mof_C 	C 	0.16872	0.7008	0.42167	0.101
Mof_H 	H 	0.2017	0.6999	0.4439	-0.054
Mof_C 	C 	0.15196	0.73483	0.36937	-0.209
Mof_H 	H 	0.1734	0.7562	0.3563	0.091
Mof_C 	C 	0.10385	0.7376	0.33618	0.18
Mof_C 	C 	0.07464	0.7053	0.35771	-0.209
Mof_H 	H 	0.0415	0.7058	0.3366	0.097
Mof_C 	C 	0.09379	0.6723	0.41007	0.101
Mof_H 	H 	0.073	0.6508	0.424	-0.008
Mof_C 	C 	0.05077	0.73532	0.17386	-0.297
Mof_H 	H 	0.0742	0.767	0.1684	0.097
Mof_H 	H 	0.0224	0.7649	0.167	0.096
Mof_C 	C 	0.07106	0.70687	0.23456	0.085
Mof_H 	H 	0.0475	0.6753	0.2399	0.001
Mof_H 	H 	0.0993	0.677	0.2412	0.001
Mof_C 	C 	0.08455	0.76899	0.27779	-0.292
Mof_H 	H 	0.0565	0.7991	0.2716	0.107
Mof_H 	H 	0.1085	0.8005	0.2732	0.109
Mof_C 	C 	0.12424	0.4244	0.17332	0.099
Mof_H 	H 	0.1478	0.4093	0.1612	-0.011
Mof_C 	C 	0.13847	0.4571	0.22546	-0.205
Mof_H 	H 	0.171	0.4639	0.2483	0.09
Mof_C 	C 	0.10505	0.48012	0.2445	0.177
Mof_C 	C 	0.05836	0.4684	0.20831	-0.212
Mof_H 	H 	0.0341	0.4836	0.219	0.095
Mof_C 	C 	0.04681	0.4349	0.1568	0.107
Mof_H 	H 	0.0145	0.4272	0.1332	-0.055
Mof_C 	C 	0.22658	0.3379	0.51085	0.109
Mof_H 	H 	0.2576	0.3187	0.5249	-0.047
Mof_C 	C 	0.21476	0.393	0.47107	-0.21
Mof_H 	H 	0.2372	0.4101	0.4579	0.087
Mof_C 	C 	0.17035	0.42273	0.45077	0.169
Mof_C 	C 	0.13898	0.3947	0.4718	-0.203
Mof_H 	H 	0.1081	0.4141	0.4595	0.107
Mof_C 	C 	0.15331	0.3391	0.51037	0.103
Mof_H 	H 	0.1313	0.32	0.5235	-0.011
Mof_C 	C 	0.11985	0.51236	0.30232	-0.282
Mof_H 	H 	0.1453	0.5483	0.3091	0.103
Mof_H 	H 	0.0928	0.5379	0.3049	0.107
Mof_C 	C 	0.13747	0.45208	0.34756	0.07
Mof_H 	H 	0.1635	0.4252	0.3436	0.001
Mof_H 	H 	0.1115	0.4173	0.3413	0.005
Mof_C 	C 	0.15482	0.4828	0.40733	-0.274
Mof_H 	H 	0.1292	0.511	0.4111	0.095
Mof_H 	H 	0.1815	0.5162	0.4142	0.084
Mof_C 	C 	0.24659	0.151	0.68919	0.099
Mof_H 	H 	0.2139	0.1466	0.6799	-0.018
Mof_C 	C 	0.27775	0.1202	0.7387	-0.203
Mof_H 	H 	0.2664	0.0951	0.7626	0.089
Mof_C 	C 	0.32577	0.12602	0.75348	0.173
Mof_C 	C 	0.33915	0.16042	0.71528	-0.211
Mof_H 	H 	0.3716	0.1638	0.7229	0.088
Mof_C 	C 	0.30616	0.18996	0.6662	0.098
Mof_H 	H 	0.3165	0.2133	0.6407	-0.047
Mof_C 	C 	0.45945	0.29146	0.00964	0.036
Mof_H 	H 	0.4463	0.3234	0.0281	-0.044
Mof_C 	C 	0.43026	0.23951	0.97382	-0.128
Mof_H 	H 	0.3981	0.2369	0.9679	0.072
Mof_C 	C 	0.44807	0.19128	0.94659	0.138
Mof_C 	C 	0.49536	0.19918	0.95739	-0.189
Mof_H 	H 	0.5094	0.1674	0.94	0.084
Mof_C 	C 	0.52209	0.25324	0.99348	0.133
Mof_H 	H 	0.5543	0.2577	0.9998	-0.007
Mof_C 	C 	0.36131	0.09821	0.80891	-0.273
Mof_H 	H 	0.3454	0.0664	0.8263	0.1
Mof_H 	H 	0.3852	0.0687	0.8024	0.1
Mof_C 	C 	0.38608	0.16108	0.84972	0.052
Mof_H 	H 	0.3621	0.1934	0.8534	0.009
Mof_H 	H 	0.4047	0.1901	0.8341	0.008
Mof_C 	C 	0.41865	0.13197	0.9079	-0.244
Mof_H 	H 	0.4398	0.0947	0.9034	0.073
Mof_H 	H 	0.3994	0.1083	0.9253	0.084
Mof_C 	C 	0.1672	0.18418	0.43527	0.102
Mof_H 	H 	0.1997	0.1795	0.4592	-0.057
Mof_C 	C 	0.15472	0.21784	0.38326	-0.208
Mof_H 	H 	0.1784	0.2362	0.3726	0.09
Mof_C 	C 	0.10736	0.22455	0.34675	0.177
Mof_C 	C 	0.075	0.19626	0.36477	-0.206
Mof_H 	H 	0.0423	0.1982	0.3409	0.096
Mof_C 	C 	0.09007	0.16502	0.41773	0.097
Mof_H 	H 	0.0669	0.1475	0.4296	-0.004
Mof_C 	C 	0.05	0.09807	0.07492	0.108
Mof_H 	H 	0.0708	0.0815	0.059	-0.015
Mof_C 	C 	0.06481	0.1521	0.11464	-0.225
Mof_H 	H 	0.0956	0.1717	0.1259	0.106
Mof_C 	C 	0.03594	0.1784	0.13853	0.206
Mof_C 	C 	0.99115	0.14793	0.1206	-0.241
Mof_H 	H 	0.9699	0.164	0.136	0.087
Mof_C 	C 	0.97794	0.09349	0.07976	0.082
Mof_H 	H 	0.9471	0.0739	0.0671	-0.053
Mof_C 	C 	0.05226	0.23604	0.18343	-0.295
Mof_H 	H 	0.0766	0.2665	0.1788	0.1
Mof_H 	H 	0.0254	0.2678	0.1795	0.102
Mof_C 	C 	0.07278	0.20093	0.24275	0.081
Mof_H 	H 	0.0985	0.1671	0.2458	0.002
Mof_H 	H 	0.0479	0.1724	0.2479	0.002
Mof_C 	C 	0.09187	0.25821	0.28915	-0.288
Mof_H 	H 	0.0671	0.2949	0.2838	0.107
Mof_H 	H 	0.1189	0.2834	0.2864	0.107
Mof_C 	C 	0.96033	0.09799	0.40405	0.088
Mof_H 	H 	0.9934	0.1033	0.416	-0.024
Mof_C 	C 	0.93091	0.12908	0.35319	-0.197
Mof_H 	H 	0.9437	0.1551	0.3312	0.081
Mof_C 	C 	0.88253	0.1217	0.33474	0.165
Mof_C 	C 	0.86651	0.08513	0.36991	-0.206
Mof_H 	H 	0.8336	0.0803	0.3594	0.086
Mof_C 	C 	0.89774	0.05561	0.41998	0.095
Mof_H 	H 	0.8856	0.0306	0.4431	-0.047
Mof_C 	C 	0.74933	0.9633	0.07297	0.097
Mof_H 	H 	0.7617	0.9341	0.0521	-0.064
Mof_C 	C 	0.77882	0.0156	0.1098	-0.203
Mof_H 	H 	0.8103	0.0211	0.1137	0.081
Mof_C 	C 	0.76169	0.0588	0.14011	0.16
Mof_C 	C 	0.71619	0.0467	0.13312	-0.208
Mof_H 	H 	0.7031	0.0744	0.1539	0.087
Mof_C 	C 	0.68913	0.9934	0.09526	0.11
Mof_H 	H 	0.6575	0.9867	0.0907	-0.025
Mof_C 	C 	0.79104	0.1175	0.17953	-0.256
Mof_H 	H 	0.8106	0.1415	0.1626	0.078
Mof_H 	H 	0.7699	0.1547	0.184	0.071
Mof_C 	C 	0.82326	0.0877	0.23778	0.057
Mof_H 	H 	0.8042	0.0601	0.2537	0.006
Mof_H 	H 	0.8466	0.054	0.234	0.005
Mof_C 	C 	0.84904	0.15018	0.27781	-0.269
Mof_H 	H 	0.8257	0.1827	0.2827	0.1
Mof_H 	H 	0.8669	0.179	0.261	0.096
Mof_C 	C 	0.11652	0.07521	0.67384	0.101
Mof_H 	H 	0.1372	0.0946	0.6587	-0.012
Mof_C 	C 	0.13606	0.04456	0.72691	-0.206
Mof_H 	H 	0.1693	0.0436	0.7475	0.091
Mof_C 	C 	0.10694	0.01522	0.74993	0.175
Mof_C 	C 	0.05899	0.01865	0.71724	-0.212
Mof_H 	H 	0.0376	0.9987	0.731	0.097
Mof_C 	C 	0.04202	0.05072	0.6649	0.107
Mof_H 	H 	0.0089	0.0528	0.6437	-0.05
Mof_C 	C 	0.2367	0.1567	0.01929	0.017
Mof_H 	H 	0.2685	0.1725	0.037	-0.028
Mof_C 	C 	0.22563	0.1008	0.98086	-0.103
Mof_H 	H 	0.2495	0.0793	0.972	0.061
Mof_C 	C 	0.18009	0.07591	0.95531	0.105
Mof_C 	C 	0.14665	0.1095	0.96967	-0.095
Mof_H 	H 	0.1148	0.0939	0.9531	0.074
Mof_C 	C 	0.16022	0.16555	0.00816	0.009
Mof_H 	H 	0.137	0.1881	0.0177	0.005
Mof_C 	C 	0.12642	0.98418	0.80859	-0.272
Mof_H 	H 	0.1017	0.9557	0.8141	0.106
Mof_H 	H 	0.1529	0.951	0.8136	0.101
Mof_C 	C 	0.14381	0.04549	0.85281	0.049
Mof_H 	H 	0.117	0.0775	0.8487	0.013
Mof_H 	H 	0.1675	0.0752	0.8462	0.008
Mof_C 	C 	0.16559	0.01467	0.91268	-0.235
Mof_H 	H 	0.1935	0.9848	0.9176	0.085
Mof_H 	H 	0.1424	0.983	0.9189	0.087
Mof_C 	C 	0.31174	0.3126	0.16883	0.098
Mof_H 	H 	0.3233	0.2889	0.1447	-0.05
Mof_C 	C 	0.34349	0.3411	0.21965	-0.215
Mof_H 	H 	0.3763	0.3363	0.2296	0.089
Mof_C 	C 	0.3285	0.37598	0.25569	0.179
Mof_C 	C 	0.28033	0.38299	0.23846	-0.207
Mof_H 	H 	0.268	0.4085	0.2612	0.089
Mof_C 	C 	0.25032	0.3525	0.18784	0.1
Mof_H 	H 	0.2174	0.3565	0.1773	-0.014
Mof_C 	C 	0.53409	0.2506	0.48198	0.106
Mof_H 	H 	0.5649	0.2444	0.4837	-0.017
Mof_C 	C 	0.50506	0.30272	0.44563	-0.202
Mof_H 	H 	0.5159	0.3308	0.4227	0.087
Mof_C 	C 	0.46037	0.31355	0.44292	0.154
Mof_C 	C 	0.44625	0.26969	0.47637	-0.197
Mof_H 	H 	0.4156	0.2749	0.4755	0.084
Mof_C 	C 	0.47678	0.2184	0.51096	0.101
Mof_H 	H 	0.4662	0.1886	0.5332	-0.054
Mof_C 	C 	0.36294	0.40298	0.31226	-0.284
Mof_H 	H 	0.3837	0.4399	0.3067	0.105
Mof_H 	H 	0.3454	0.4267	0.3319	0.102
Mof_C 	C 	0.3931	0.34169	0.34911	0.068
Mof_H 	H 	0.3725	0.3053	0.3558	0.003
Mof_H 	H 	0.4103	0.3172	0.3294	0.002
Mof_C 	C 	0.42837	0.3716	0.40559	-0.258
Mof_H 	H 	0.4109	0.3947	0.4256	0.073
Mof_H 	H 	0.4478	0.4096	0.3985	0.073
_end
