data_functionalizedCrystal
_audit_creation_method	'EQeq! by Chris Wilmer'
_symmetry_space_group_name_H-M	'P1'
_symmetry_Int_Tables_number	1
_symmetry_cell_setting	triclinic
loop_
_symmetry_equiv_pos_as_xyz
  x,y,z
_cell_length_a	21.5
_cell_length_b	21.5
_cell_length_c	22.454
_cell_angle_alpha	90
_cell_angle_beta	90
_cell_angle_gamma	90
loop_
_atom_site_label
_atom_site_type_symbol
_atom_site_fract_x
_atom_site_fract_y
_atom_site_fract_z
_atom_site_charge
Mof_Zn	Zn	0.00494	0.01459	0.49376	1.164
Mof_I 	I 	0.95241	0.08771	0.56474	-0.385
Mof_N 	N 	0.9563	0.9362	0.4628	-0.284
Mof_C 	C 	0.9433	0.9347	0.4058	0.081
Mof_H 	H 	0.9514	0.9696	0.3811	-0.028
Mof_C 	C 	0.9179	0.8818	0.383	-0.136
Mof_H 	H 	0.906	0.8811	0.3423	0.084
Mof_C 	C 	0.9087	0.829	0.4172	0.073
Mof_C 	C 	0.9206	0.8349	0.4767	-0.142
Mof_H 	H 	0.912	0.8017	0.5034	0.086
Mof_C 	C 	0.9461	0.8912	0.4977	0.099
Mof_H 	H 	0.9557	0.8955	0.5388	-0.033
Mof_N 	N 	0.9577	0.553	0.0814	-0.287
Mof_C 	C 	0.9215	0.5189	0.1196	0.081
Mof_H 	H 	0.9127	0.4768	0.11	-0.022
Mof_C 	C 	0.8984	0.5425	0.1695	-0.145
Mof_H 	H 	0.8741	0.5166	0.1947	0.09
Mof_C 	C 	0.9079	0.6008	0.1855	0.072
Mof_C 	C 	0.9441	0.6394	0.146	-0.139
Mof_H 	H 	0.9532	0.6815	0.1553	0.087
Mof_C 	C 	0.9641	0.6128	0.0959	0.084
Mof_H 	H 	0.9848	0.6388	0.068	-0.023
Mof_N 	N 	0.5794	0.5302	0.4678	-0.264
Mof_C 	C 	0.6055	0.5827	0.4939	0.045
Mof_H 	H 	0.5871	0.6003	0.5284	-0.006
Mof_C 	C 	0.6586	0.6093	0.4695	-0.104
Mof_H 	H 	0.6765	0.6452	0.4873	0.077
Mof_C 	C 	0.6856	0.5835	0.4189	0.046
Mof_C 	C 	0.6594	0.531	0.3928	-0.099
Mof_H 	H 	0.6778	0.5134	0.3583	0.076
Mof_C 	C 	0.6063	0.5044	0.4172	0.035
Mof_H 	H 	0.5884	0.4686	0.3994	-0.004
Mof_C 	C 	0.8852	0.7709	0.39	0.087
Mof_N 	N 	0.9096	0.7531	0.3371	-0.148
Mof_C 	C 	0.8883	0.7012	0.3134	0.197
Mof_N 	N 	0.9086	0.6815	0.2636	-0.152
Mof_C 	C 	0.8828	0.6263	0.2417	0.096
Mof_N 	N 	0.8363	0.5952	0.2654	-0.148
Mof_C 	C 	0.8139	0.6176	0.3162	0.188
Mof_N 	N 	0.7619	0.5888	0.3423	-0.142
Mof_C 	C 	0.7436	0.6159	0.3935	0.11
Mof_N 	N 	0.7644	0.6641	0.4233	-0.147
Mof_C 	C 	0.8142	0.6914	0.3957	0.18
Mof_N 	N 	0.838	0.7439	0.423	-0.138
Mof_C 	C 	0.8371	0.6693	0.3428	-0.163
Mof_Zn	Zn	0.49506	0.98541	0.99376	1.163
Mof_I 	I 	0.54759	0.91229	0.06474	-0.384
Mof_N 	N 	0.5437	0.0638	0.9628	-0.284
Mof_C 	C 	0.5567	0.0653	0.9058	0.081
Mof_H 	H 	0.5486	0.0304	0.8811	-0.027
Mof_C 	C 	0.5821	0.1182	0.883	-0.136
Mof_H 	H 	0.594	0.1189	0.8423	0.084
Mof_C 	C 	0.5913	0.171	0.9172	0.073
Mof_C 	C 	0.5794	0.1651	0.9767	-0.141
Mof_H 	H 	0.588	0.1983	0.0034	0.085
Mof_C 	C 	0.5539	0.1088	0.9977	0.101
Mof_H 	H 	0.5443	0.1045	0.0388	-0.035
Mof_N 	N 	0.5423	0.447	0.5814	-0.287
Mof_C 	C 	0.5785	0.4811	0.6196	0.081
Mof_H 	H 	0.5873	0.5232	0.61	-0.022
Mof_C 	C 	0.6016	0.4575	0.6695	-0.145
Mof_H 	H 	0.6259	0.4834	0.6947	0.09
Mof_C 	C 	0.5921	0.3992	0.6855	0.072
Mof_C 	C 	0.5559	0.3606	0.646	-0.139
Mof_H 	H 	0.5468	0.3185	0.6553	0.087
Mof_C 	C 	0.5359	0.3872	0.5959	0.084
Mof_H 	H 	0.5152	0.3612	0.568	-0.023
Mof_N 	N 	0.9206	0.4698	0.9678	-0.264
Mof_C 	C 	0.8945	0.4173	0.9939	0.05
Mof_H 	H 	0.9129	0.3997	0.0284	-0.009
Mof_C 	C 	0.8414	0.3907	0.9695	-0.106
Mof_H 	H 	0.8235	0.3548	0.9873	0.079
Mof_C 	C 	0.8144	0.4165	0.9189	0.047
Mof_C 	C 	0.8406	0.469	0.8928	-0.1
Mof_H 	H 	0.8222	0.4866	0.8583	0.077
Mof_C 	C 	0.8937	0.4956	0.9172	0.036
Mof_H 	H 	0.9116	0.5314	0.8994	-0.004
Mof_C 	C 	0.6148	0.2291	0.89	0.087
Mof_N 	N 	0.5904	0.2469	0.8371	-0.148
Mof_C 	C 	0.6117	0.2988	0.8134	0.197
Mof_N 	N 	0.5914	0.3185	0.7636	-0.152
Mof_C 	C 	0.6172	0.3737	0.7417	0.096
Mof_N 	N 	0.6637	0.4048	0.7654	-0.148
Mof_C 	C 	0.6861	0.3824	0.8162	0.189
Mof_N 	N 	0.7381	0.4112	0.8423	-0.142
Mof_C 	C 	0.7564	0.3841	0.8935	0.11
Mof_N 	N 	0.7356	0.3359	0.9233	-0.146
Mof_C 	C 	0.6858	0.3086	0.8957	0.18
Mof_N 	N 	0.662	0.2561	0.923	-0.138
Mof_C 	C 	0.6629	0.3307	0.8428	-0.163
Mof_Zn	Zn	0.99506	0.51459	0.00624	1.163
Mof_I 	I 	0.04759	0.58771	0.93526	-0.387
Mof_N 	N 	0.0437	0.4362	0.0372	-0.284
Mof_C 	C 	0.0567	0.4347	0.0942	0.081
Mof_H 	H 	0.0486	0.4696	0.1189	-0.027
Mof_C 	C 	0.0821	0.3818	0.117	-0.136
Mof_H 	H 	0.094	0.3811	0.1577	0.084
Mof_C 	C 	0.0913	0.329	0.0828	0.073
Mof_C 	C 	0.0794	0.3349	0.0233	-0.14
Mof_H 	H 	0.088	0.3017	0.9966	0.085
Mof_C 	C 	0.0539	0.3912	0.0023	0.103
Mof_H 	H 	0.0443	0.3955	0.9612	-0.036
Mof_N 	N 	0.0423	0.053	0.4186	-0.287
Mof_C 	C 	0.0785	0.0189	0.3804	0.081
Mof_H 	H 	0.0873	0.9768	0.39	-0.021
Mof_C 	C 	0.1016	0.0425	0.3305	-0.145
Mof_H 	H 	0.1259	0.0166	0.3053	0.091
Mof_C 	C 	0.0921	0.1008	0.3145	0.072
Mof_C 	C 	0.0559	0.1394	0.354	-0.139
Mof_H 	H 	0.0468	0.1815	0.3447	0.087
Mof_C 	C 	0.0359	0.1128	0.4041	0.084
Mof_H 	H 	0.0152	0.1388	0.432	-0.023
Mof_N 	N 	0.4206	0.0302	0.0322	-0.264
Mof_C 	C 	0.3945	0.0827	0.0061	0.044
Mof_H 	H 	0.4129	0.1003	0.9716	-0.005
Mof_C 	C 	0.3414	0.1093	0.0305	-0.103
Mof_H 	H 	0.3235	0.1452	0.0127	0.077
Mof_C 	C 	0.3144	0.0835	0.0811	0.046
Mof_C 	C 	0.3406	0.031	0.1072	-0.098
Mof_H 	H 	0.3222	0.0134	0.1417	0.076
Mof_C 	C 	0.3937	0.0044	0.0828	0.033
Mof_H 	H 	0.4116	0.9686	0.1006	-0.002
Mof_C 	C 	0.1148	0.2709	0.11	0.087
Mof_N 	N 	0.0904	0.2531	0.1629	-0.148
Mof_C 	C 	0.1117	0.2012	0.1866	0.197
Mof_N 	N 	0.0914	0.1815	0.2364	-0.152
Mof_C 	C 	0.1172	0.1263	0.2583	0.096
Mof_N 	N 	0.1637	0.0952	0.2346	-0.148
Mof_C 	C 	0.1861	0.1176	0.1838	0.189
Mof_N 	N 	0.2381	0.0888	0.1577	-0.142
Mof_C 	C 	0.2564	0.1159	0.1065	0.11
Mof_N 	N 	0.2356	0.1641	0.0767	-0.147
Mof_C 	C 	0.1858	0.1914	0.1043	0.18
Mof_N 	N 	0.162	0.2439	0.077	-0.138
Mof_C 	C 	0.1629	0.1693	0.1572	-0.163
Mof_Zn	Zn	0.50494	0.48541	0.50624	1.163
Mof_I 	I 	0.45241	0.41229	0.43526	-0.386
Mof_N 	N 	0.4563	0.5638	0.5372	-0.284
Mof_C 	C 	0.4433	0.5653	0.5942	0.081
Mof_H 	H 	0.4514	0.5304	0.6189	-0.028
Mof_C 	C 	0.4179	0.6182	0.617	-0.136
Mof_H 	H 	0.406	0.6189	0.6577	0.084
Mof_C 	C 	0.4087	0.671	0.5828	0.073
Mof_C 	C 	0.4206	0.6651	0.5233	-0.142
Mof_H 	H 	0.412	0.6983	0.4966	0.086
Mof_C 	C 	0.4461	0.6088	0.5023	0.099
Mof_H 	H 	0.4557	0.6045	0.4612	-0.033
Mof_N 	N 	0.4577	0.947	0.9186	-0.287
Mof_C 	C 	0.4215	0.9811	0.8804	0.076
Mof_H 	H 	0.4127	0.0232	0.89	-0.019
Mof_C 	C 	0.3984	0.9575	0.8305	-0.142
Mof_H 	H 	0.3741	0.9834	0.8053	0.089
Mof_C 	C 	0.4079	0.8992	0.8145	0.071
Mof_C 	C 	0.4441	0.8606	0.854	-0.138
Mof_H 	H 	0.4532	0.8185	0.8447	0.087
Mof_C 	C 	0.4641	0.8872	0.9041	0.084
Mof_H 	H 	0.4848	0.8612	0.932	-0.024
Mof_N 	N 	0.0794	0.9698	0.5322	-0.264
Mof_C 	C 	0.1055	0.9173	0.5061	0.045
Mof_H 	H 	0.0871	0.8997	0.4716	-0.006
Mof_C 	C 	0.1586	0.8907	0.5305	-0.104
Mof_H 	H 	0.1765	0.8548	0.5127	0.077
Mof_C 	C 	0.1856	0.9165	0.5811	0.046
Mof_C 	C 	0.1594	0.969	0.6072	-0.099
Mof_H 	H 	0.1778	0.9866	0.6417	0.076
Mof_C 	C 	0.1063	0.9956	0.5828	0.034
Mof_H 	H 	0.0884	0.0314	0.6006	-0.003
Mof_C 	C 	0.3852	0.7291	0.61	0.087
Mof_N 	N 	0.4096	0.7469	0.6629	-0.148
Mof_C 	C 	0.3883	0.7988	0.6866	0.196
Mof_N 	N 	0.4086	0.8185	0.7364	-0.152
Mof_C 	C 	0.3828	0.8737	0.7583	0.097
Mof_N 	N 	0.3363	0.9048	0.7346	-0.148
Mof_C 	C 	0.3139	0.8824	0.6838	0.188
Mof_N 	N 	0.2619	0.9112	0.6577	-0.142
Mof_C 	C 	0.2436	0.8841	0.6065	0.11
Mof_N 	N 	0.2644	0.8359	0.5767	-0.147
Mof_C 	C 	0.3142	0.8086	0.6043	0.18
Mof_N 	N 	0.338	0.7561	0.577	-0.138
Mof_C 	C 	0.3371	0.8307	0.6572	-0.163
Mof_Zn	Zn	0.50672	0.99309	0.50131	1.166
Mof_I 	I 	0.43107	0.94238	0.57167	-0.384
Mof_N 	N 	0.5381	0.9465	0.4292	-0.272
Mof_C 	C 	0.4962	0.9302	0.3847	0.043
Mof_H 	H 	0.4528	0.9349	0.3912	-0.012
Mof_C 	C 	0.5178	0.907	0.3308	-0.105
Mof_H 	H 	0.4892	0.8959	0.3004	0.075
Mof_C 	C 	0.5813	0.9001	0.3213	0.051
Mof_C 	C 	0.6232	0.9164	0.3658	-0.104
Mof_H 	H 	0.6666	0.9117	0.3593	0.075
Mof_C 	C 	0.6016	0.9396	0.4197	0.042
Mof_H 	H 	0.6302	0.9507	0.4502	-0.007
Mof_N 	N 	0.5334	0.5685	0.0388	-0.281
Mof_C 	C 	0.5837	0.5949	0.0171	0.074
Mof_H 	H 	0.6026	0.5763	0.9832	-0.018
Mof_C 	C 	0.611	0.6479	0.0399	-0.124
Mof_H 	H 	0.6463	0.6656	0.0211	0.084
Mof_C 	C 	0.5863	0.6747	0.0903	0.053
Mof_C 	C 	0.5356	0.6443	0.1186	-0.114
Mof_H 	H 	0.519	0.6589	0.1553	0.082
Mof_C 	C 	0.5108	0.5908	0.0893	0.066
Mof_H 	H 	0.4763	0.5702	0.107	-0.014
Mof_N 	N 	0.9125	0.9713	0.0375	-0.285
Mof_C 	C 	0.8945	0.9867	0.0922	0.073
Mof_H 	H 	0.9201	0.013	0.1159	-0.022
Mof_C 	C 	0.8387	0.9648	0.115	-0.134
Mof_H 	H 	0.8237	0.9809	0.1517	0.085
Mof_C 	C 	0.8057	0.9216	0.0862	0.068
Mof_C 	C 	0.8241	0.9062	0.0282	-0.134
Mof_H 	H 	0.8011	0.8773	0.0049	0.085
Mof_C 	C 	0.8779	0.9352	0.0057	0.088
Mof_H 	H 	0.8892	0.9279	0.9654	-0.028
Mof_C 	C 	0.6038	0.8767	0.2596	0.1
Mof_N 	N 	0.5766	0.8267	0.2386	-0.147
Mof_C 	C 	0.6035	0.8052	0.1894	0.186
Mof_N 	N 	0.5814	0.751	0.1652	-0.147
Mof_C 	C 	0.6106	0.7326	0.1172	0.113
Mof_N 	N 	0.6589	0.7558	0.0883	-0.149
Mof_C 	C 	0.6815	0.8074	0.1133	0.18
Mof_N 	N 	0.7331	0.8379	0.088	-0.144
Mof_C 	C 	0.7487	0.8896	0.115	0.105
Mof_N 	N 	0.7276	0.9181	0.1632	-0.149
Mof_C 	C 	0.6798	0.8879	0.1887	0.179
Mof_N 	N 	0.6546	0.9118	0.2395	-0.141
Mof_C 	C 	0.6547	0.834	0.163	-0.158
Mof_Zn	Zn	0.99328	0.00691	0.00131	1.165
Mof_I 	I 	0.06893	0.05762	0.07167	-0.382
Mof_N 	N 	0.9619	0.0535	0.9292	-0.269
Mof_C 	C 	0.0038	0.0698	0.8847	0.036
Mof_H 	H 	0.0472	0.0651	0.8912	-0.01
Mof_C 	C 	0.9822	0.093	0.8308	-0.096
Mof_H 	H 	0.0108	0.1041	0.8004	0.071
Mof_C 	C 	0.9187	0.0999	0.8213	0.048
Mof_C 	C 	0.8768	0.0836	0.8658	-0.101
Mof_H 	H 	0.8334	0.0883	0.8593	0.074
Mof_C 	C 	0.8984	0.0604	0.9197	0.041
Mof_H 	H 	0.8698	0.0493	0.9502	-0.006
Mof_N 	N 	0.9666	0.4315	0.5388	-0.281
Mof_C 	C 	0.9163	0.4051	0.5171	0.074
Mof_H 	H 	0.8974	0.4237	0.4832	-0.018
Mof_C 	C 	0.889	0.3521	0.5399	-0.124
Mof_H 	H 	0.8537	0.3344	0.5211	0.084
Mof_C 	C 	0.9137	0.3253	0.5903	0.053
Mof_C 	C 	0.9644	0.3557	0.6186	-0.114
Mof_H 	H 	0.981	0.3411	0.6553	0.082
Mof_C 	C 	0.9892	0.4092	0.5893	0.067
Mof_H 	H 	0.0237	0.4298	0.607	-0.015
Mof_N 	N 	0.5875	0.0287	0.5375	-0.284
Mof_C 	C 	0.6055	0.0133	0.5922	0.073
Mof_H 	H 	0.5799	0.987	0.6159	-0.022
Mof_C 	C 	0.6613	0.0352	0.615	-0.134
Mof_H 	H 	0.6763	0.0191	0.6517	0.085
Mof_C 	C 	0.6943	0.0784	0.5862	0.068
Mof_C 	C 	0.6759	0.0938	0.5282	-0.134
Mof_H 	H 	0.6989	0.1227	0.5049	0.085
Mof_C 	C 	0.6221	0.0648	0.5057	0.086
Mof_H 	H 	0.6108	0.0721	0.4654	-0.028
Mof_C 	C 	0.8962	0.1233	0.7596	0.101
Mof_N 	N 	0.9234	0.1733	0.7386	-0.147
Mof_C 	C 	0.8965	0.1948	0.6894	0.186
Mof_N 	N 	0.9186	0.249	0.6652	-0.147
Mof_C 	C 	0.8894	0.2674	0.6172	0.113
Mof_N 	N 	0.8411	0.2442	0.5883	-0.149
Mof_C 	C 	0.8185	0.1926	0.6133	0.18
Mof_N 	N 	0.7669	0.1621	0.588	-0.144
Mof_C 	C 	0.7513	0.1104	0.615	0.105
Mof_N 	N 	0.7724	0.0819	0.6632	-0.149
Mof_C 	C 	0.8202	0.1121	0.6887	0.18
Mof_N 	N 	0.8454	0.0882	0.7395	-0.141
Mof_C 	C 	0.8453	0.166	0.663	-0.158
Mof_Zn	Zn	0.49328	0.49309	0.99869	1.166
Mof_I 	I 	0.56893	0.44238	0.92833	-0.384
Mof_N 	N 	0.4619	0.4465	0.0708	-0.272
Mof_C 	C 	0.5038	0.4302	0.1153	0.043
Mof_H 	H 	0.5472	0.4349	0.1088	-0.012
Mof_C 	C 	0.4822	0.407	0.1692	-0.105
Mof_H 	H 	0.5108	0.3959	0.1996	0.075
Mof_C 	C 	0.4187	0.4001	0.1787	0.051
Mof_C 	C 	0.3768	0.4164	0.1342	-0.104
Mof_H 	H 	0.3334	0.4117	0.1407	0.075
Mof_C 	C 	0.3984	0.4396	0.0803	0.042
Mof_H 	H 	0.3698	0.4507	0.0498	-0.007
Mof_N 	N 	0.4666	0.0685	0.4612	-0.281
Mof_C 	C 	0.4163	0.0949	0.4829	0.073
Mof_H 	H 	0.3974	0.0763	0.5168	-0.018
Mof_C 	C 	0.389	0.1479	0.4601	-0.124
Mof_H 	H 	0.3537	0.1656	0.4789	0.084
Mof_C 	C 	0.4137	0.1747	0.4097	0.053
Mof_C 	C 	0.4644	0.1443	0.3814	-0.114
Mof_H 	H 	0.481	0.1589	0.3447	0.082
Mof_C 	C 	0.4892	0.0908	0.4107	0.065
Mof_H 	H 	0.5237	0.0702	0.393	-0.014
Mof_N 	N 	0.0875	0.4713	0.4625	-0.284
Mof_C 	C 	0.1055	0.4867	0.4078	0.07
Mof_H 	H 	0.0799	0.513	0.3841	-0.02
Mof_C 	C 	0.1613	0.4648	0.385	-0.133
Mof_H 	H 	0.1763	0.4809	0.3483	0.085
Mof_C 	C 	0.1943	0.4216	0.4138	0.067
Mof_C 	C 	0.1759	0.4062	0.4718	-0.133
Mof_H 	H 	0.1989	0.3773	0.4951	0.085
Mof_C 	C 	0.1221	0.4352	0.4943	0.086
Mof_H 	H 	0.1108	0.4279	0.5346	-0.028
Mof_C 	C 	0.3962	0.3767	0.2404	0.1
Mof_N 	N 	0.4234	0.3267	0.2614	-0.147
Mof_C 	C 	0.3965	0.3052	0.3106	0.186
Mof_N 	N 	0.4186	0.251	0.3348	-0.147
Mof_C 	C 	0.3894	0.2326	0.3828	0.113
Mof_N 	N 	0.3411	0.2558	0.4117	-0.149
Mof_C 	C 	0.3185	0.3074	0.3867	0.18
Mof_N 	N 	0.2669	0.3379	0.412	-0.144
Mof_C 	C 	0.2513	0.3896	0.385	0.105
Mof_N 	N 	0.2724	0.4181	0.3368	-0.149
Mof_C 	C 	0.3202	0.3879	0.3113	0.179
Mof_N 	N 	0.3454	0.4118	0.2605	-0.141
Mof_C 	C 	0.3453	0.334	0.337	-0.158
Mof_Zn	Zn	0.00672	0.50691	0.49869	1.166
Mof_I 	I 	0.93107	0.55762	0.42833	-0.384
Mof_N 	N 	0.0381	0.5535	0.5708	-0.273
Mof_C 	C 	0.9962	0.5698	0.6153	0.046
Mof_H 	H 	0.9528	0.5651	0.6088	-0.013
Mof_C 	C 	0.0178	0.593	0.6692	-0.108
Mof_H 	H 	0.9892	0.6041	0.6996	0.077
Mof_C 	C 	0.0813	0.5999	0.6787	0.052
Mof_C 	C 	0.1232	0.5836	0.6342	-0.105
Mof_H 	H 	0.1666	0.5883	0.6407	0.075
Mof_C 	C 	0.1016	0.5604	0.5803	0.043
Mof_H 	H 	0.1302	0.5493	0.5498	-0.007
Mof_N 	N 	0.0334	0.9315	0.9612	-0.28
Mof_C 	C 	0.0837	0.9051	0.9829	0.065
Mof_H 	H 	0.1026	0.9237	0.0168	-0.012
Mof_C 	C 	0.111	0.8521	0.9601	-0.119
Mof_H 	H 	0.1463	0.8344	0.9789	0.081
Mof_C 	C 	0.0863	0.8253	0.9097	0.05
Mof_C 	C 	0.0356	0.8557	0.8814	-0.111
Mof_H 	H 	0.019	0.8411	0.8447	0.081
Mof_C 	C 	0.0108	0.9092	0.9107	0.061
Mof_H 	H 	0.9763	0.9298	0.893	-0.012
Mof_N 	N 	0.4125	0.5287	0.9625	-0.284
Mof_C 	C 	0.3945	0.5133	0.9078	0.07
Mof_H 	H 	0.4201	0.487	0.8841	-0.021
Mof_C 	C 	0.3387	0.5352	0.885	-0.132
Mof_H 	H 	0.3237	0.5191	0.8483	0.084
Mof_C 	C 	0.3057	0.5784	0.9138	0.067
Mof_C 	C 	0.3241	0.5938	0.9718	-0.132
Mof_H 	H 	0.3011	0.6227	0.9951	0.084
Mof_C 	C 	0.3779	0.5648	0.9943	0.084
Mof_H 	H 	0.3892	0.5721	0.0346	-0.026
Mof_C 	C 	0.1038	0.6233	0.7404	0.099
Mof_N 	N 	0.0766	0.6733	0.7614	-0.147
Mof_C 	C 	0.1035	0.6948	0.8106	0.186
Mof_N 	N 	0.0814	0.749	0.8348	-0.147
Mof_C 	C 	0.1106	0.7674	0.8828	0.114
Mof_N 	N 	0.1589	0.7442	0.9117	-0.15
Mof_C 	C 	0.1815	0.6926	0.8867	0.18
Mof_N 	N 	0.2331	0.6621	0.912	-0.144
Mof_C 	C 	0.2487	0.6104	0.885	0.105
Mof_N 	N 	0.2276	0.5819	0.8368	-0.149
Mof_C 	C 	0.1798	0.6121	0.8113	0.179
Mof_N 	N 	0.1546	0.5882	0.7605	-0.141
Mof_C 	C 	0.1547	0.666	0.837	-0.158
_end
