data_functionalizedCrystal
_audit_creation_method	'EQeq! by Chris Wilmer'
_symmetry_space_group_name_H-M	'P1'
_symmetry_Int_Tables_number	1
_symmetry_cell_setting	triclinic
loop_
_symmetry_equiv_pos_as_xyz
  x,y,z
_cell_length_a	13.5977
_cell_length_b	13.5977
_cell_length_c	13.5977
_cell_angle_alpha	101.965
_cell_angle_beta	101.965
_cell_angle_gamma	101.965
loop_
_atom_site_label
_atom_site_type_symbol
_atom_site_fract_x
_atom_site_fract_y
_atom_site_fract_z
_atom_site_charge
Mof_Ni	Ni	0.61805	0.38195	-0	1.079
Mof_Ni	Ni	6.1191e-18	0.61805	0.38195	1.079
Mof_Ni	Ni	0.38195	0	0.61805	1.079
Mof_H 	H 	0.8253	0.3795	0.129	-0.013
Mof_H 	H 	0.9085	0.3657	0.8175	0.102
Mof_H 	H 	0.2457	0.3945	0.8817	0.067
Mof_H 	H 	0.4161	0.4063	0.8795	-0.034
Mof_H 	H 	0.4759	0.3317	0.1445	-0.028
Mof_H 	H 	0.9862	0.359	0.1176	0.118
Mof_H 	H 	0.0851	0.3603	0.8896	0.06
Mof_H 	H 	0.1364	0.3481	0.0929	0.043
Mof_H 	H 	0.3074	0.3177	0.1542	0.065
Mof_H 	H 	0.748	0.3825	0.8367	-0.035
Mof_H 	H 	0.129	0.8253	0.3795	-0.013
Mof_H 	H 	0.8175	0.9085	0.3657	0.102
Mof_H 	H 	0.8817	0.2457	0.3945	0.067
Mof_H 	H 	0.8795	0.4161	0.4063	-0.034
Mof_H 	H 	0.1445	0.4759	0.3317	-0.028
Mof_H 	H 	0.1176	0.9862	0.359	0.118
Mof_H 	H 	0.8896	0.0851	0.3603	0.06
Mof_H 	H 	0.0929	0.1364	0.3481	0.043
Mof_H 	H 	0.1542	0.3074	0.3177	0.065
Mof_H 	H 	0.8367	0.748	0.3825	-0.035
Mof_H 	H 	0.3795	0.129	0.8253	-0.013
Mof_H 	H 	0.3657	0.8175	0.9085	0.102
Mof_H 	H 	0.3945	0.8817	0.2457	0.067
Mof_H 	H 	0.4063	0.8795	0.4161	-0.034
Mof_H 	H 	0.3317	0.1445	0.4759	-0.028
Mof_H 	H 	0.359	0.1176	0.9862	0.118
Mof_H 	H 	0.3603	0.8896	0.0851	0.06
Mof_H 	H 	0.3481	0.0929	0.1364	0.043
Mof_H 	H 	0.3177	0.1542	0.3074	0.065
Mof_H 	H 	0.3825	0.8367	0.748	-0.035
Mof_H 	H 	0.6205	0.1747	0.871	-0.011
Mof_H 	H 	0.6343	0.0915	0.1825	0.061
Mof_H 	H 	0.6055	0.7543	0.1183	0.093
Mof_H 	H 	0.5937	0.5839	0.1205	-0.032
Mof_H 	H 	0.6683	0.5241	0.8555	-0.034
Mof_H 	H 	0.641	0.0138	0.8824	0.058
Mof_H 	H 	0.6397	0.9149	0.1104	0.046
Mof_H 	H 	0.6519	0.8636	0.9071	0.067
Mof_H 	H 	0.6823	0.6926	0.8458	0.084
Mof_H 	H 	0.6175	0.252	0.1633	-0.02
Mof_H 	H 	0.1747	0.871	0.6205	-0.011
Mof_H 	H 	0.0915	0.1825	0.6343	0.061
Mof_H 	H 	0.7543	0.1183	0.6055	0.093
Mof_H 	H 	0.5839	0.1205	0.5937	-0.032
Mof_H 	H 	0.5241	0.8555	0.6683	-0.034
Mof_H 	H 	0.0138	0.8824	0.641	0.058
Mof_H 	H 	0.9149	0.1104	0.6397	0.046
Mof_H 	H 	0.8636	0.9071	0.6519	0.067
Mof_H 	H 	0.6926	0.8458	0.6823	0.084
Mof_H 	H 	0.252	0.1633	0.6175	-0.02
Mof_H 	H 	0.871	0.6205	0.1747	-0.011
Mof_H 	H 	0.1825	0.6343	0.0915	0.061
Mof_H 	H 	0.1183	0.6055	0.7543	0.093
Mof_H 	H 	0.1205	0.5937	0.5839	-0.032
Mof_H 	H 	0.8555	0.6683	0.5241	-0.034
Mof_H 	H 	0.8824	0.641	0.0138	0.058
Mof_H 	H 	0.1104	0.6397	0.9149	0.046
Mof_H 	H 	0.9071	0.6519	0.8636	0.067
Mof_H 	H 	0.8458	0.6823	0.6926	0.084
Mof_H 	H 	0.1633	0.6175	0.252	-0.02
Mof_W 	W 	0.5	0.29285	0.70715	0.663
Mof_W 	W 	0.70715	0.5	0.29285	0.663
Mof_W 	W 	0.29285	0.70715	0.5	0.663
Mof_C 	C 	0.84238	0.37652	0.0651	0.098
Mof_C 	C 	0.89363	0.36887	0.8823	-0.214
Mof_C 	C 	0.2916	0.3821	0.937	-0.134
Mof_C 	C 	0.96843	0.36365	0.96674	0.208
Mof_C 	C 	0.3937	0.3883	0.9358	0.109
Mof_C 	C 	0.4288	0.3447	0.0907	0.074
Mof_C 	C 	0.2565	0.3573	0.0191	0.067
Mof_C 	C 	0.93951	0.36535	0.05918	-0.233
Mof_C 	C 	0.0726	0.3594	0.9549	-0.115
Mof_C 	C 	0.1502	0.3542	0.0292	-0.093
Mof_C 	C 	0.3281	0.3369	0.0975	-0.165
Mof_C 	C 	0.79733	0.37882	0.89452	0.131
Mof_C 	C 	0.0651	0.84238	0.37652	0.098
Mof_C 	C 	0.8823	0.89363	0.36887	-0.214
Mof_C 	C 	0.937	0.2916	0.3821	-0.134
Mof_C 	C 	0.96674	0.96843	0.36365	0.208
Mof_C 	C 	0.9358	0.3937	0.3883	0.109
Mof_C 	C 	0.0907	0.4288	0.3447	0.074
Mof_C 	C 	0.0191	0.2565	0.3573	0.067
Mof_C 	C 	0.05918	0.93951	0.36535	-0.233
Mof_C 	C 	0.9549	0.0726	0.3594	-0.115
Mof_C 	C 	0.0292	0.1502	0.3542	-0.093
Mof_C 	C 	0.0975	0.3281	0.3369	-0.165
Mof_C 	C 	0.89452	0.79733	0.37882	0.131
Mof_C 	C 	0.37652	0.0651	0.84238	0.098
Mof_C 	C 	0.36887	0.8823	0.89363	-0.214
Mof_C 	C 	0.3821	0.937	0.2916	-0.134
Mof_C 	C 	0.36365	0.96674	0.96843	0.208
Mof_C 	C 	0.3883	0.9358	0.3937	0.109
Mof_C 	C 	0.3447	0.0907	0.4288	0.074
Mof_C 	C 	0.3573	0.0191	0.2565	0.067
Mof_C 	C 	0.36535	0.05918	0.93951	-0.233
Mof_C 	C 	0.3594	0.9549	0.0726	-0.115
Mof_C 	C 	0.3542	0.0292	0.1502	-0.093
Mof_C 	C 	0.3369	0.0975	0.3281	-0.165
Mof_C 	C 	0.37882	0.89452	0.79733	0.131
Mof_C 	C 	0.62348	0.15762	0.9349	0.097
Mof_C 	C 	0.63113	0.10637	0.1177	-0.138
Mof_C 	C 	0.6179	0.7084	0.063	-0.226
Mof_C 	C 	0.63635	0.03157	0.03326	0.03
Mof_C 	C 	0.6117	0.6063	0.0642	0.084
Mof_C 	C 	0.6553	0.5712	0.9093	0.109
Mof_C 	C 	0.6427	0.7435	0.9809	0.164
Mof_C 	C 	0.63465	0.06049	0.94082	-0.104
Mof_C 	C 	0.6406	0.9274	0.0451	-0.055
Mof_C 	C 	0.6458	0.8498	0.9708	-0.09
Mof_C 	C 	0.6631	0.6719	0.9025	-0.198
Mof_C 	C 	0.62118	0.20267	0.10548	0.075
Mof_C 	C 	0.15762	0.9349	0.62348	0.097
Mof_C 	C 	0.10637	0.1177	0.63113	-0.138
Mof_C 	C 	0.7084	0.063	0.6179	-0.226
Mof_C 	C 	0.03157	0.03326	0.63635	0.03
Mof_C 	C 	0.6063	0.0642	0.6117	0.084
Mof_C 	C 	0.5712	0.9093	0.6553	0.109
Mof_C 	C 	0.7435	0.9809	0.6427	0.164
Mof_C 	C 	0.06049	0.94082	0.63465	-0.104
Mof_C 	C 	0.9274	0.0451	0.6406	-0.055
Mof_C 	C 	0.8498	0.9708	0.6458	-0.09
Mof_C 	C 	0.6719	0.9025	0.6631	-0.198
Mof_C 	C 	0.20267	0.10548	0.62118	0.075
Mof_C 	C 	0.9349	0.62348	0.15762	0.097
Mof_C 	C 	0.1177	0.63113	0.10637	-0.138
Mof_C 	C 	0.063	0.6179	0.7084	-0.226
Mof_C 	C 	0.03326	0.63635	0.03157	0.03
Mof_C 	C 	0.0642	0.6117	0.6063	0.084
Mof_C 	C 	0.9093	0.6553	0.5712	0.109
Mof_C 	C 	0.9809	0.6427	0.7435	0.164
Mof_C 	C 	0.94082	0.63465	0.06049	-0.104
Mof_C 	C 	0.0451	0.6406	0.9274	-0.055
Mof_C 	C 	0.9708	0.6458	0.8498	-0.09
Mof_C 	C 	0.9025	0.6631	0.6719	-0.198
Mof_C 	C 	0.10548	0.62118	0.20267	0.075
Mof_N 	N 	0.77106	0.38334	0.98431	-0.224
Mof_N 	N 	0.46338	0.37004	0.0114	-0.255
Mof_N 	N 	0.98431	0.77106	0.38334	-0.224
Mof_N 	N 	0.0114	0.46338	0.37004	-0.255
Mof_N 	N 	0.38334	0.98431	0.77106	-0.224
Mof_N 	N 	0.37004	0.0114	0.46338	-0.255
Mof_N 	N 	0.61666	0.22894	0.01569	-0.246
Mof_N 	N 	0.62996	0.53662	0.9886	-0.224
Mof_N 	N 	0.22894	0.01569	0.61666	-0.246
Mof_N 	N 	0.53662	0.9886	0.62996	-0.224
Mof_N 	N 	0.01569	0.61666	0.22894	-0.246
Mof_N 	N 	0.9886	0.62996	0.53662	-0.224
Mof_O 	O 	0.56274	0.33053	0.84229	-0.46
Mof_O 	O 	0.84229	0.56274	0.33053	-0.46
Mof_O 	O 	0.33053	0.84229	0.56274	-0.46
Mof_O 	O 	0.66947	0.43726	0.15771	-0.471
Mof_O 	O 	0.43726	0.15771	0.66947	-0.471
Mof_O 	O 	0.15771	0.66947	0.43726	-0.471
_end
