data_functionalizedCrystal
_audit_creation_method	'EQeq! by Chris Wilmer'
_symmetry_space_group_name_H-M	'P1'
_symmetry_Int_Tables_number	1
_symmetry_cell_setting	triclinic
loop_
_symmetry_equiv_pos_as_xyz
  x,y,z
_cell_length_a	7.801
_cell_length_b	20.3539
_cell_length_c	20.3539
_cell_angle_alpha	90
_cell_angle_beta	90
_cell_angle_gamma	90
loop_
_atom_site_label
_atom_site_type_symbol
_atom_site_fract_x
_atom_site_fract_y
_atom_site_fract_z
_atom_site_charge
Mof_U 	U 	0.79162	0.59742	0.75	0.031
Mof_U 	U 	0.79162	0.90258	0.75	0.031
Mof_U 	U 	0.29162	0.75	0.59742	0.031
Mof_U 	U 	0.29162	0.75	0.90258	0.031
Mof_U 	U 	0.20838	0.40258	0.25	0.03
Mof_U 	U 	0.20838	0.09742	0.25	0.03
Mof_U 	U 	0.70838	0.25	0.09742	0.031
Mof_U 	U 	0.70838	0.25	0.40258	0.031
Mof_P 	P 	0.4315	0.57439	0.86427	0.393
Mof_P 	P 	0.4315	0.92561	0.63573	0.393
Mof_P 	P 	0.9315	0.63573	0.57439	0.392
Mof_P 	P 	0.9315	0.86427	0.92561	0.391
Mof_P 	P 	0.5685	0.42561	0.36427	0.393
Mof_P 	P 	0.5685	0.07439	0.13573	0.393
Mof_P 	P 	0.0685	0.36427	0.07439	0.391
Mof_P 	P 	0.0685	0.13573	0.42561	0.392
Mof_P 	P 	0.5685	0.42561	0.13573	0.393
Mof_P 	P 	0.5685	0.07439	0.36427	0.393
Mof_P 	P 	0.0685	0.36427	0.42561	0.392
Mof_P 	P 	0.0685	0.13573	0.07439	0.391
Mof_P 	P 	0.4315	0.57439	0.63573	0.393
Mof_P 	P 	0.4315	0.92561	0.86427	0.393
Mof_P 	P 	0.9315	0.63573	0.92561	0.391
Mof_P 	P 	0.9315	0.86427	0.57439	0.392
Mof_H 	H 	0.419	0.609	0.9985	0.094
Mof_H 	H 	0.419	0.891	0.5015	0.094
Mof_H 	H 	0.919	0.5015	0.609	0.094
Mof_H 	H 	0.919	0.9985	0.891	0.094
Mof_H 	H 	0.581	0.391	0.4985	0.094
Mof_H 	H 	0.581	0.109	0.0015	0.094
Mof_H 	H 	0.081	0.4985	0.109	0.094
Mof_H 	H 	0.081	0.0015	0.391	0.094
Mof_H 	H 	0.581	0.391	0.0015	0.094
Mof_H 	H 	0.581	0.109	0.4985	0.094
Mof_H 	H 	0.081	0.4985	0.391	0.094
Mof_H 	H 	0.081	0.0015	0.109	0.094
Mof_H 	H 	0.419	0.609	0.5015	0.094
Mof_H 	H 	0.419	0.891	0.9985	0.094
Mof_H 	H 	0.919	0.5015	0.891	0.094
Mof_H 	H 	0.919	0.9985	0.609	0.094
Mof_C 	C 	0.4671	0.5321	0.9407	-0.034
Mof_C 	C 	0.5105	0.4661	0.942	0.057
Mof_C 	C 	0.4538	0.5643	0.9985	-0.057
Mof_C 	C 	0.4671	0.9679	0.5593	-0.034
Mof_C 	C 	0.5105	0.0339	0.558	0.057
Mof_C 	C 	0.4538	0.9357	0.5015	-0.057
Mof_C 	C 	0.9671	0.5593	0.5321	-0.035
Mof_C 	C 	0.0105	0.558	0.4661	0.057
Mof_C 	C 	0.9538	0.5015	0.5643	-0.057
Mof_C 	C 	0.9671	0.9407	0.9679	-0.035
Mof_C 	C 	0.0105	0.942	0.0339	0.057
Mof_C 	C 	0.9538	0.9985	0.9357	-0.057
Mof_C 	C 	0.5329	0.4679	0.4407	-0.034
Mof_C 	C 	0.4895	0.5339	0.442	0.057
Mof_C 	C 	0.5462	0.4357	0.4985	-0.057
Mof_C 	C 	0.5329	0.0321	0.0593	-0.034
Mof_C 	C 	0.4895	0.9661	0.058	0.055
Mof_C 	C 	0.5462	0.0643	0.0015	-0.056
Mof_C 	C 	0.0329	0.4407	0.0321	-0.035
Mof_C 	C 	0.9895	0.442	0.9661	0.057
Mof_C 	C 	0.0462	0.4985	0.0643	-0.057
Mof_C 	C 	0.0329	0.0593	0.4679	-0.035
Mof_C 	C 	0.9895	0.058	0.5339	0.058
Mof_C 	C 	0.0462	0.0015	0.4357	-0.058
Mof_C 	C 	0.5329	0.4679	0.0593	-0.034
Mof_C 	C 	0.4895	0.5339	0.058	0.057
Mof_C 	C 	0.5462	0.4357	0.0015	-0.057
Mof_C 	C 	0.5329	0.0321	0.4407	-0.034
Mof_C 	C 	0.4895	0.9661	0.442	0.057
Mof_C 	C 	0.5462	0.0643	0.4985	-0.057
Mof_C 	C 	0.0329	0.4407	0.4679	-0.035
Mof_C 	C 	0.9895	0.442	0.5339	0.057
Mof_C 	C 	0.0462	0.4985	0.4357	-0.057
Mof_C 	C 	0.0329	0.0593	0.0321	-0.035
Mof_C 	C 	0.9895	0.058	0.9661	0.057
Mof_C 	C 	0.0462	0.0015	0.0643	-0.057
Mof_C 	C 	0.4671	0.5321	0.5593	-0.034
Mof_C 	C 	0.5105	0.4661	0.558	0.057
Mof_C 	C 	0.4538	0.5643	0.5015	-0.057
Mof_C 	C 	0.4671	0.9679	0.9407	-0.034
Mof_C 	C 	0.5105	0.0339	0.942	0.055
Mof_C 	C 	0.4538	0.9357	0.9985	-0.056
Mof_C 	C 	0.9671	0.5593	0.9679	-0.035
Mof_C 	C 	0.0105	0.558	0.0339	0.057
Mof_C 	C 	0.9538	0.5015	0.9357	-0.057
Mof_C 	C 	0.9671	0.9407	0.5321	-0.035
Mof_C 	C 	0.0105	0.942	0.4661	0.058
Mof_C 	C 	0.9538	0.9985	0.5643	-0.058
Mof_O 	O 	0.5815	0.5606	0.8201	-0.158
Mof_O 	O 	0.3984	0.6451	0.8783	-0.153
Mof_O 	O 	0.2663	0.5434	0.8336	-0.157
Mof_O 	O 	0.5815	0.9394	0.6799	-0.157
Mof_O 	O 	0.3984	0.8549	0.6217	-0.153
Mof_O 	O 	0.2663	0.9566	0.6664	-0.157
Mof_O 	O 	0.0815	0.6799	0.5606	-0.157
Mof_O 	O 	0.8984	0.6217	0.6451	-0.153
Mof_O 	O 	0.7663	0.6664	0.5434	-0.157
Mof_O 	O 	0.0815	0.8201	0.9394	-0.156
Mof_O 	O 	0.8984	0.8783	0.8549	-0.154
Mof_O 	O 	0.7663	0.8336	0.9566	-0.157
Mof_O 	O 	0.4185	0.4394	0.3201	-0.158
Mof_O 	O 	0.6016	0.3549	0.3783	-0.153
Mof_O 	O 	0.7337	0.4566	0.3336	-0.157
Mof_O 	O 	0.4185	0.0606	0.1799	-0.157
Mof_O 	O 	0.6016	0.1451	0.1217	-0.153
Mof_O 	O 	0.7337	0.0434	0.1664	-0.156
Mof_O 	O 	0.9185	0.3201	0.0606	-0.156
Mof_O 	O 	0.1016	0.3783	0.1451	-0.153
Mof_O 	O 	0.2337	0.3336	0.0434	-0.157
Mof_O 	O 	0.9185	0.1799	0.4394	-0.156
Mof_O 	O 	0.1016	0.1217	0.3549	-0.154
Mof_O 	O 	0.2337	0.1664	0.4566	-0.157
Mof_O 	O 	0.4185	0.4394	0.1799	-0.158
Mof_O 	O 	0.6016	0.3549	0.1217	-0.153
Mof_O 	O 	0.7337	0.4566	0.1664	-0.157
Mof_O 	O 	0.4185	0.0606	0.3201	-0.157
Mof_O 	O 	0.6016	0.1451	0.3783	-0.153
Mof_O 	O 	0.7337	0.0434	0.3336	-0.157
Mof_O 	O 	0.9185	0.3201	0.4394	-0.157
Mof_O 	O 	0.1016	0.3783	0.3549	-0.153
Mof_O 	O 	0.2337	0.3336	0.4566	-0.157
Mof_O 	O 	0.9185	0.1799	0.0606	-0.156
Mof_O 	O 	0.1016	0.1217	0.1451	-0.154
Mof_O 	O 	0.2337	0.1664	0.0434	-0.157
Mof_O 	O 	0.5815	0.5606	0.6799	-0.158
Mof_O 	O 	0.3984	0.6451	0.6217	-0.153
Mof_O 	O 	0.2663	0.5434	0.6664	-0.157
Mof_O 	O 	0.5815	0.9394	0.8201	-0.157
Mof_O 	O 	0.3984	0.8549	0.8783	-0.153
Mof_O 	O 	0.2663	0.9566	0.8336	-0.156
Mof_O 	O 	0.0815	0.6799	0.9394	-0.156
Mof_O 	O 	0.8984	0.6217	0.8549	-0.153
Mof_O 	O 	0.7663	0.6664	0.9566	-0.157
Mof_O 	O 	0.0815	0.8201	0.5606	-0.156
Mof_O 	O 	0.8984	0.8783	0.6451	-0.154
Mof_O 	O 	0.7663	0.8336	0.5434	-0.157
_end
