data_functionalizedCrystal
_audit_creation_method	'EQeq! by Chris Wilmer'
_symmetry_space_group_name_H-M	'P1'
_symmetry_Int_Tables_number	1
_symmetry_cell_setting	triclinic
loop_
_symmetry_equiv_pos_as_xyz
  x,y,z
_cell_length_a	11.166
_cell_length_b	17.71
_cell_length_c	19.669
_cell_angle_alpha	90
_cell_angle_beta	97.07
_cell_angle_gamma	90
loop_
_atom_site_label
_atom_site_type_symbol
_atom_site_fract_x
_atom_site_fract_y
_atom_site_fract_z
_atom_site_charge
Mof_Cd	Cd	0.60605	0.61237	0.5587	0.483
Mof_Cd	Cd	0.56441	0.55927	0.37736	0.455
Mof_Cd	Cd	0.39395	0.11237	0.9413	0.483
Mof_Cd	Cd	0.43559	0.05927	0.12264	0.455
Mof_Cd	Cd	0.39395	0.38763	0.4413	0.483
Mof_Cd	Cd	0.43559	0.44073	0.62264	0.455
Mof_Cd	Cd	0.60605	0.88763	0.0587	0.483
Mof_Cd	Cd	0.56441	0.94073	0.87736	0.455
Mof_H 	H 	0.3565	0.7338	0.4342	0.078
Mof_H 	H 	0.1673	0.7552	0.3792	0.046
Mof_H 	H 	0.141	0.828	0.2784	0.037
Mof_H 	H 	0.3021	0.8744	0.2318	0.072
Mof_H 	H 	0.7563	0.9166	0.2529	0.071
Mof_H 	H 	0.9388	0.9009	0.3133	0.039
Mof_H 	H 	0.9622	0.8324	0.4163	0.041
Mof_H 	H 	0.7989	0.7754	0.4527	0.07
Mof_H 	H 	0.8628	0.5869	0.5019	0.002
Mof_H 	H 	0.059	0.6275	0.5135	0.159
Mof_H 	H 	0.9902	0.7543	0.6702	0.128
Mof_H 	H 	0.7954	0.7091	0.6575	-0.005
Mof_H 	H 	0.2278	0.6907	0.5797	0.179
Mof_H 	H 	0.2069	0.7313	0.6482	0.166
Mof_H 	H 	0.1557	0.7965	0.5171	-0.039
Mof_H 	H 	0.1297	0.837	0.5847	-0.04
Mof_H 	H 	0.3655	0.7984	0.5552	0.171
Mof_H 	H 	0.314	0.8808	0.5502	0.159
Mof_H 	H 	0.3078	0.9329	0.7877	-0.007
Mof_H 	H 	0.2239	0.9098	0.6762	0.13
Mof_H 	H 	0.5181	0.7895	0.6499	0.156
Mof_H 	H 	0.5926	0.8189	0.7605	-0.019
Mof_H 	H 	0.6435	0.2338	0.0658	0.078
Mof_H 	H 	0.8327	0.2552	0.1208	0.046
Mof_H 	H 	0.859	0.328	0.2216	0.037
Mof_H 	H 	0.6979	0.3744	0.2682	0.072
Mof_H 	H 	0.2437	0.4166	0.2471	0.071
Mof_H 	H 	0.0612	0.4009	0.1867	0.039
Mof_H 	H 	0.0378	0.3324	0.0837	0.041
Mof_H 	H 	0.2011	0.2754	0.0473	0.07
Mof_H 	H 	0.1372	0.0869	0.9981	0.002
Mof_H 	H 	0.941	0.1275	0.9865	0.159
Mof_H 	H 	0.0098	0.2543	0.8298	0.128
Mof_H 	H 	0.2046	0.2091	0.8425	-0.005
Mof_H 	H 	0.7722	0.1907	0.9203	0.179
Mof_H 	H 	0.7931	0.2313	0.8518	0.166
Mof_H 	H 	0.8443	0.2965	0.9829	-0.038
Mof_H 	H 	0.8703	0.337	0.9153	-0.04
Mof_H 	H 	0.6345	0.2984	0.9448	0.171
Mof_H 	H 	0.686	0.3808	0.9498	0.159
Mof_H 	H 	0.6922	0.4329	0.7123	-0.007
Mof_H 	H 	0.7761	0.4098	0.8238	0.13
Mof_H 	H 	0.4819	0.2895	0.8501	0.156
Mof_H 	H 	0.4074	0.3189	0.7395	-0.019
Mof_H 	H 	0.6435	0.2662	0.5658	0.078
Mof_H 	H 	0.8327	0.2448	0.6208	0.046
Mof_H 	H 	0.859	0.172	0.7216	0.037
Mof_H 	H 	0.6979	0.1256	0.7682	0.072
Mof_H 	H 	0.2437	0.0834	0.7471	0.071
Mof_H 	H 	0.0612	0.0991	0.6867	0.039
Mof_H 	H 	0.0378	0.1676	0.5837	0.041
Mof_H 	H 	0.2011	0.2246	0.5473	0.07
Mof_H 	H 	0.1372	0.4131	0.4981	0.002
Mof_H 	H 	0.941	0.3725	0.4865	0.159
Mof_H 	H 	0.0098	0.2457	0.3298	0.128
Mof_H 	H 	0.2046	0.2909	0.3425	-0.005
Mof_H 	H 	0.7722	0.3093	0.4203	0.179
Mof_H 	H 	0.7931	0.2687	0.3518	0.166
Mof_H 	H 	0.8443	0.2035	0.4829	-0.039
Mof_H 	H 	0.8703	0.163	0.4153	-0.04
Mof_H 	H 	0.6345	0.2016	0.4448	0.171
Mof_H 	H 	0.686	0.1192	0.4498	0.159
Mof_H 	H 	0.6922	0.0671	0.2123	-0.007
Mof_H 	H 	0.7761	0.0902	0.3238	0.13
Mof_H 	H 	0.4819	0.2105	0.3501	0.156
Mof_H 	H 	0.4074	0.1811	0.2395	-0.019
Mof_H 	H 	0.3565	0.7662	0.9342	0.078
Mof_H 	H 	0.1673	0.7448	0.8792	0.046
Mof_H 	H 	0.141	0.672	0.7784	0.037
Mof_H 	H 	0.3021	0.6256	0.7318	0.072
Mof_H 	H 	0.7563	0.5834	0.7529	0.071
Mof_H 	H 	0.9388	0.5991	0.8133	0.039
Mof_H 	H 	0.9622	0.6676	0.9163	0.041
Mof_H 	H 	0.7989	0.7246	0.9527	0.07
Mof_H 	H 	0.8628	0.9131	0.0019	0.002
Mof_H 	H 	0.059	0.8725	0.0135	0.159
Mof_H 	H 	0.9902	0.7457	0.1702	0.128
Mof_H 	H 	0.7954	0.7909	0.1575	-0.005
Mof_H 	H 	0.2278	0.8093	0.0797	0.179
Mof_H 	H 	0.2069	0.7687	0.1482	0.166
Mof_H 	H 	0.1557	0.7035	0.0171	-0.038
Mof_H 	H 	0.1297	0.663	0.0847	-0.04
Mof_H 	H 	0.3655	0.7016	0.0552	0.171
Mof_H 	H 	0.314	0.6192	0.0502	0.159
Mof_H 	H 	0.3078	0.5671	0.2877	-0.007
Mof_H 	H 	0.2239	0.5902	0.1762	0.13
Mof_H 	H 	0.5181	0.7105	0.1499	0.156
Mof_H 	H 	0.5926	0.6811	0.2605	-0.019
Mof_C 	C 	0.585	0.7302	0.4631	0.31
Mof_C 	C 	0.5667	0.7824	0.4028	-0.109
Mof_C 	C 	0.4508	0.7956	0.3697	0.046
Mof_C 	C 	0.3468	0.7633	0.3949	-0.082
Mof_C 	C 	0.2342	0.7754	0.3618	-0.023
Mof_C 	C 	0.2185	0.8191	0.3002	-0.027
Mof_C 	C 	0.3148	0.848	0.2729	-0.083
Mof_C 	C 	0.4352	0.8386	0.306	0.046
Mof_C 	C 	0.5384	0.8662	0.279	-0.103
Mof_C 	C 	0.6539	0.8571	0.3149	0.046
Mof_C 	C 	0.7623	0.8887	0.2933	-0.079
Mof_C 	C 	0.8716	0.8794	0.3293	-0.025
Mof_C 	C 	0.8864	0.8375	0.3913	-0.027
Mof_C 	C 	0.7883	0.8051	0.4134	-0.077
Mof_C 	C 	0.6686	0.8147	0.3785	0.044
Mof_C 	C 	0.5246	0.8995	0.2067	0.328
Mof_C 	C 	0.8885	0.6203	0.5372	0.161
Mof_C 	C 	0.0072	0.6452	0.5434	-0.292
Mof_C 	C 	0.0481	0.6957	0.5933	0.278
Mof_C 	C 	0.9664	0.7195	0.6358	-0.276
Mof_C 	C 	0.8484	0.6919	0.628	0.148
Mof_C 	C 	0.1766	0.7263	0.6	-0.441
Mof_C 	C 	0.1831	0.8017	0.5656	0.225
Mof_C 	C 	0.3129	0.8335	0.5751	-0.42
Mof_C 	C 	0.3515	0.9048	0.7593	0.154
Mof_C 	C 	0.2996	0.8907	0.6924	-0.275
Mof_C 	C 	0.3636	0.8475	0.6508	0.268
Mof_C 	C 	0.4738	0.8196	0.6764	-0.294
Mof_C 	C 	0.5173	0.8379	0.7432	0.169
Mof_C 	C 	0.415	0.2302	0.0369	0.31
Mof_C 	C 	0.4333	0.2824	0.0972	-0.108
Mof_C 	C 	0.5492	0.2956	0.1303	0.046
Mof_C 	C 	0.6532	0.2633	0.1051	-0.082
Mof_C 	C 	0.7658	0.2754	0.1382	-0.023
Mof_C 	C 	0.7815	0.3191	0.1998	-0.027
Mof_C 	C 	0.6852	0.348	0.2271	-0.083
Mof_C 	C 	0.5648	0.3386	0.194	0.046
Mof_C 	C 	0.4616	0.3662	0.221	-0.103
Mof_C 	C 	0.3461	0.3571	0.1851	0.046
Mof_C 	C 	0.2377	0.3887	0.2067	-0.079
Mof_C 	C 	0.1284	0.3794	0.1707	-0.025
Mof_C 	C 	0.1136	0.3375	0.1087	-0.027
Mof_C 	C 	0.2117	0.3051	0.0866	-0.077
Mof_C 	C 	0.3314	0.3147	0.1215	0.044
Mof_C 	C 	0.4754	0.3995	0.2933	0.328
Mof_C 	C 	0.1115	0.1203	0.9628	0.16
Mof_C 	C 	0.9928	0.1452	0.9566	-0.291
Mof_C 	C 	0.9519	0.1957	0.9067	0.279
Mof_C 	C 	0.0336	0.2195	0.8642	-0.277
Mof_C 	C 	0.1516	0.1919	0.872	0.149
Mof_C 	C 	0.8234	0.2263	0.9	-0.441
Mof_C 	C 	0.8169	0.3017	0.9344	0.225
Mof_C 	C 	0.6871	0.3335	0.9249	-0.42
Mof_C 	C 	0.6485	0.4048	0.7407	0.154
Mof_C 	C 	0.7004	0.3907	0.8076	-0.275
Mof_C 	C 	0.6364	0.3475	0.8492	0.268
Mof_C 	C 	0.5262	0.3196	0.8236	-0.294
Mof_C 	C 	0.4827	0.3379	0.7568	0.169
Mof_C 	C 	0.415	0.2698	0.5369	0.31
Mof_C 	C 	0.4333	0.2176	0.5972	-0.109
Mof_C 	C 	0.5492	0.2044	0.6303	0.046
Mof_C 	C 	0.6532	0.2367	0.6051	-0.082
Mof_C 	C 	0.7658	0.2246	0.6382	-0.023
Mof_C 	C 	0.7815	0.1809	0.6998	-0.027
Mof_C 	C 	0.6852	0.152	0.7271	-0.083
Mof_C 	C 	0.5648	0.1614	0.694	0.046
Mof_C 	C 	0.4616	0.1338	0.721	-0.103
Mof_C 	C 	0.3461	0.1429	0.6851	0.046
Mof_C 	C 	0.2377	0.1113	0.7067	-0.079
Mof_C 	C 	0.1284	0.1206	0.6707	-0.025
Mof_C 	C 	0.1136	0.1625	0.6087	-0.027
Mof_C 	C 	0.2117	0.1949	0.5866	-0.077
Mof_C 	C 	0.3314	0.1853	0.6215	0.044
Mof_C 	C 	0.4754	0.1005	0.7933	0.328
Mof_C 	C 	0.1115	0.3797	0.4628	0.161
Mof_C 	C 	0.9928	0.3548	0.4566	-0.292
Mof_C 	C 	0.9519	0.3043	0.4067	0.278
Mof_C 	C 	0.0336	0.2805	0.3642	-0.276
Mof_C 	C 	0.1516	0.3081	0.372	0.148
Mof_C 	C 	0.8234	0.2737	0.4	-0.441
Mof_C 	C 	0.8169	0.1983	0.4344	0.225
Mof_C 	C 	0.6871	0.1665	0.4249	-0.42
Mof_C 	C 	0.6485	0.0952	0.2407	0.154
Mof_C 	C 	0.7004	0.1093	0.3076	-0.275
Mof_C 	C 	0.6364	0.1525	0.3492	0.268
Mof_C 	C 	0.5262	0.1804	0.3236	-0.294
Mof_C 	C 	0.4827	0.1621	0.2568	0.169
Mof_C 	C 	0.585	0.7698	0.9631	0.31
Mof_C 	C 	0.5667	0.7176	0.9028	-0.108
Mof_C 	C 	0.4508	0.7044	0.8697	0.046
Mof_C 	C 	0.3468	0.7367	0.8949	-0.082
Mof_C 	C 	0.2342	0.7246	0.8618	-0.023
Mof_C 	C 	0.2185	0.6809	0.8002	-0.027
Mof_C 	C 	0.3148	0.652	0.7729	-0.083
Mof_C 	C 	0.4352	0.6614	0.806	0.046
Mof_C 	C 	0.5384	0.6338	0.779	-0.103
Mof_C 	C 	0.6539	0.6429	0.8149	0.046
Mof_C 	C 	0.7623	0.6113	0.7933	-0.079
Mof_C 	C 	0.8716	0.6206	0.8293	-0.025
Mof_C 	C 	0.8864	0.6625	0.8913	-0.027
Mof_C 	C 	0.7883	0.6949	0.9134	-0.077
Mof_C 	C 	0.6686	0.6853	0.8785	0.044
Mof_C 	C 	0.5246	0.6005	0.7067	0.328
Mof_C 	C 	0.8885	0.8797	0.0372	0.16
Mof_C 	C 	0.0072	0.8548	0.0434	-0.291
Mof_C 	C 	0.0481	0.8043	0.0933	0.279
Mof_C 	C 	0.9664	0.7805	0.1358	-0.277
Mof_C 	C 	0.8484	0.8081	0.128	0.149
Mof_C 	C 	0.1766	0.7737	0.1	-0.441
Mof_C 	C 	0.1831	0.6983	0.0656	0.225
Mof_C 	C 	0.3129	0.6665	0.0751	-0.42
Mof_C 	C 	0.3515	0.5952	0.2593	0.154
Mof_C 	C 	0.2996	0.6093	0.1924	-0.275
Mof_C 	C 	0.3636	0.6525	0.1508	0.268
Mof_C 	C 	0.4738	0.6804	0.1764	-0.294
Mof_C 	C 	0.5173	0.6621	0.2432	0.169
Mof_S 	S 	0.33105	0.55527	0.48332	0.637
Mof_S 	S 	0.66895	0.05527	0.01668	0.637
Mof_S 	S 	0.66895	0.44473	0.51668	0.637
Mof_S 	S 	0.33105	0.94473	0.98332	0.637
Mof_N 	N 	0.8088	0.6416	0.5793	-0.174
Mof_N 	N 	0.4606	0.8801	0.7845	-0.183
Mof_N 	N 	0.1912	0.1416	0.9207	-0.174
Mof_N 	N 	0.5394	0.3801	0.7155	-0.183
Mof_N 	N 	0.1912	0.3584	0.4207	-0.174
Mof_N 	N 	0.5394	0.1199	0.2155	-0.183
Mof_N 	N 	0.8088	0.8584	0.0793	-0.174
Mof_N 	N 	0.4606	0.6199	0.2845	-0.183
Mof_O 	O 	0.6061	0.661	0.4494	-0.3
Mof_O 	O 	0.5805	0.7528	0.5229	-0.272
Mof_O 	O 	0.457	0.9558	0.1939	-0.29
Mof_O 	O 	0.5857	0.8664	0.1665	-0.296
Mof_O 	O 	0.4053	0.616	0.5199	-0.313
Mof_O 	O 	0.3999	0.5208	0.4292	-0.325
Mof_O 	O 	0.2168	0.5837	0.4515	-0.293
Mof_O 	O 	0.3129	0.4926	0.5316	-0.315
Mof_O 	O 	0.3939	0.161	0.0506	-0.3
Mof_O 	O 	0.4195	0.2528	0.9771	-0.271
Mof_O 	O 	0.543	0.4558	0.3061	-0.29
Mof_O 	O 	0.4143	0.3664	0.3335	-0.296
Mof_O 	O 	0.5947	0.116	0.9801	-0.313
Mof_O 	O 	0.6001	0.0208	0.0708	-0.325
Mof_O 	O 	0.7832	0.0837	0.0485	-0.293
Mof_O 	O 	0.6871	0.9926	0.9684	-0.315
Mof_O 	O 	0.3939	0.339	0.5506	-0.3
Mof_O 	O 	0.4195	0.2472	0.4771	-0.272
Mof_O 	O 	0.543	0.0442	0.8061	-0.29
Mof_O 	O 	0.4143	0.1336	0.8335	-0.296
Mof_O 	O 	0.5947	0.384	0.4801	-0.313
Mof_O 	O 	0.6001	0.4792	0.5708	-0.325
Mof_O 	O 	0.7832	0.4163	0.5485	-0.293
Mof_O 	O 	0.6871	0.5074	0.4684	-0.315
Mof_O 	O 	0.6061	0.839	0.9494	-0.3
Mof_O 	O 	0.5805	0.7472	0.0229	-0.271
Mof_O 	O 	0.457	0.5442	0.6939	-0.29
Mof_O 	O 	0.5857	0.6336	0.6665	-0.296
Mof_O 	O 	0.4053	0.884	0.0199	-0.313
Mof_O 	O 	0.3999	0.9792	0.9292	-0.325
Mof_O 	O 	0.2168	0.9163	0.9515	-0.293
Mof_O 	O 	0.3129	0.0074	0.0316	-0.315
_end
