data_functionalizedCrystal
_audit_creation_method	'EQeq! by Chris Wilmer'
_symmetry_space_group_name_H-M	'P1'
_symmetry_Int_Tables_number	1
_symmetry_cell_setting	triclinic
loop_
_symmetry_equiv_pos_as_xyz
  x,y,z
_cell_length_a	10.3159
_cell_length_b	10.5935
_cell_length_c	6.2495
_cell_angle_alpha	90
_cell_angle_beta	114.772
_cell_angle_gamma	90
loop_
_atom_site_label
_atom_site_type_symbol
_atom_site_fract_x
_atom_site_fract_y
_atom_site_fract_z
_atom_site_charge
Mof_C 	C 	0.3174	0.2109	0.5459	-0.064
Mof_H 	H 	0.3992	0.2657	0.5722	0.015
Mof_H 	H 	0.3316	0.1736	0.6976	-0.002
Mof_N 	N 	0.3115	0.1096	0.381	-0.266
Mof_H 	H 	0.2961	0.1445	0.2393	0.057
Mof_H 	H 	0.2363	0.0582	0.3588	0.05
Mof_C 	C 	0.8174	0.7109	0.5459	-0.065
Mof_H 	H 	0.8992	0.7657	0.5722	0.042
Mof_H 	H 	0.8316	0.6736	0.6976	0.022
Mof_N 	N 	0.8115	0.6096	0.381	-0.259
Mof_H 	H 	0.7961	0.6445	0.2393	0.08
Mof_H 	H 	0.7363	0.5582	0.3588	0.08
Mof_C 	C 	0.6826	0.2109	0.9541	0.027
Mof_H 	H 	0.6008	0.2657	0.9278	-0.006
Mof_H 	H 	0.6684	0.1736	0.8024	-0.026
Mof_N 	N 	0.6885	0.1096	0.119	-0.289
Mof_H 	H 	0.7039	0.1445	0.2607	0.073
Mof_H 	H 	0.7637	0.0582	0.1412	0.068
Mof_C 	C 	0.1826	0.7109	0.9541	0.031
Mof_H 	H 	0.1008	0.7657	0.9278	-0.017
Mof_H 	H 	0.1684	0.6736	0.8024	-0.029
Mof_N 	N 	0.1885	0.6096	0.119	-0.291
Mof_H 	H 	0.2039	0.6445	0.2607	0.074
Mof_H 	H 	0.2637	0.5582	0.1412	0.078
Mof_C 	C 	0.6826	0.7891	0.4541	-0.025
Mof_H 	H 	0.6008	0.7343	0.4278	0.007
Mof_H 	H 	0.6684	0.8264	0.3024	0.005
Mof_N 	N 	0.6885	0.8904	0.619	-0.274
Mof_H 	H 	0.7039	0.8555	0.7607	0.098
Mof_H 	H 	0.7637	0.9418	0.6412	0.113
Mof_C 	C 	0.1826	0.2891	0.4541	-0.022
Mof_H 	H 	0.1008	0.2343	0.4278	-0.02
Mof_H 	H 	0.1684	0.3264	0.3024	-0.021
Mof_N 	N 	0.1885	0.3904	0.619	-0.282
Mof_H 	H 	0.2039	0.3555	0.7607	0.075
Mof_H 	H 	0.2637	0.4418	0.6412	0.083
Mof_C 	C 	0.3174	0.7891	0.0459	-0.114
Mof_H 	H 	0.3992	0.7343	0.0722	0.029
Mof_H 	H 	0.3316	0.8264	0.1976	0.025
Mof_N 	N 	0.3115	0.8904	0.881	-0.242
Mof_H 	H 	0.2961	0.8555	0.7393	0.081
Mof_H 	H 	0.2363	0.9418	0.8588	0.094
Mof_C 	C 	0.8174	0.2891	0.0459	-0.117
Mof_H 	H 	0.8992	0.2343	0.0722	0.04
Mof_H 	H 	0.8316	0.3264	0.1976	0.027
Mof_N 	N 	0.8115	0.3904	0.881	-0.241
Mof_H 	H 	0.7961	0.3555	0.7393	0.079
Mof_H 	H 	0.7363	0.4418	0.8588	0.084
Mof_Ag	Ag	0.5	-5.08852e-33	0.5	0.307
Mof_Ag	Ag	-2.29166e-17	0.5	0.5	0.309
Mof_Ag	Ag	0.5	0	-0	0.258
Mof_Ag	Ag	5.08852e-33	0.5	-0	0.261
_end
