data_functionalizedCrystal
_audit_creation_method	'EQeq! by Chris Wilmer'
_symmetry_space_group_name_H-M	'P1'
_symmetry_Int_Tables_number	1
_symmetry_cell_setting	triclinic
loop_
_symmetry_equiv_pos_as_xyz
  x,y,z
_cell_length_a	10.5561
_cell_length_b	10.5378
_cell_length_c	16.8962
_cell_angle_alpha	83.205
_cell_angle_beta	76.425
_cell_angle_gamma	69.971
loop_
_atom_site_label
_atom_site_type_symbol
_atom_site_fract_x
_atom_site_fract_y
_atom_site_fract_z
_atom_site_charge
Mof_Nd	Nd	0.37227	0.3976	0.48162	2.377
Mof_O 	O 	0.4137	0.6063	0.43769	-0.657
Mof_O 	O 	0.5231	0.2163	0.55784	-0.525
Mof_O 	O 	0.5949	0.3375	0.39126	-0.574
Mof_O 	O 	0.2949	0.5137	0.60928	-0.566
Mof_O 	O 	0.3137	0.4118	0.34296	-0.585
Mof_O 	O 	0.222	0.2908	0.57916	-0.541
Mof_C 	C 	0.2895	0.3931	0.2787	0.56
Mof_C 	C 	0.3932	0.3012	0.2161	-0.228
Mof_O 	O 	0.1726	0.4532	0.2572	-0.635
Mof_C 	C 	0.3522	0.2698	0.1505	0.113
Mof_C 	C 	0.5301	0.2453	0.2236	0.113
Mof_H 	H 	0.118	0.502	0.29	0.389
Mof_H 	H 	0.2587	0.3076	0.1454	0.013
Mof_C 	C 	0.4477	0.1832	0.0926	-0.164
Mof_H 	H 	0.5581	0.2647	0.2691	-0.009
Mof_C 	C 	0.626	0.1609	0.1644	-0.164
Mof_H 	H 	0.4186	0.1619	0.0482	0.088
Mof_C 	C 	0.5863	0.1267	0.0985	0.096
Mof_H 	H 	0.7199	0.1258	0.1687	0.092
Mof_C 	C 	0.6865	0.0431	0.0316	-0.027
Mof_C 	C 	0.7909	0.9196	0.0429	-0.009
Mof_C 	C 	0.6774	0.0917	0.952	-0.049
Mof_C 	C 	0.8103	0.8553	0.1245	0.077
Mof_C 	C 	0.8802	0.8565	0.9738	-0.063
Mof_C 	C 	0.7658	0.0274	0.8831	-0.025
Mof_H 	H 	0.6063	0.1739	0.9444	0.048
Mof_C 	C 	0.7011	0.84	0.1854	-0.145
Mof_C 	C 	0.9414	0.8084	0.1417	-0.138
Mof_C 	C 	0.8726	0.9067	0.894	-0.013
Mof_H 	H 	0.9509	0.7739	0.9812	0.052
Mof_C 	C 	0.7353	0.0881	0.8024	0.093
Mof_H 	H 	0.6109	0.8692	0.1746	0.084
Mof_C 	C 	0.7218	0.7829	0.2613	0.085
Mof_C 	C 	0.9631	0.7478	0.2169	0.074
Mof_H 	H 	0.0174	0.8181	0.1012	0.079
Mof_C 	C 	0.9805	0.8315	0.8259	0.075
Mof_C 	C 	0.7294	0.0109	0.7431	-0.162
Mof_C 	C 	0.6968	0.2282	0.7886	-0.165
Mof_C 	C 	0.8542	0.735	0.2781	-0.17
Mof_H 	H 	0.6454	0.7762	0.3024	0.008
Mof_H 	H 	0.0541	0.7145	0.2267	0.013
Mof_C 	C 	0.0504	0.9005	0.7648	-0.149
Mof_C 	C 	0.0185	0.6911	0.8234	-0.138
Mof_C 	C 	0.6826	0.0708	0.6733	0.099
Mof_H 	H 	0.7579	0.9152	0.7505	0.087
Mof_H 	H 	0.7007	0.2827	0.8284	0.088
Mof_C 	C 	0.6532	0.2894	0.718	0.106
Mof_C 	C 	0.8761	0.6758	0.361	0.436
Mof_H 	H 	0.0242	0.9962	0.7644	0.083
Mof_C 	C 	0.1568	0.83	0.7051	0.088
Mof_H 	H 	0.9735	0.6426	0.8648	0.084
Mof_C 	C 	0.1218	0.6219	0.7609	0.093
Mof_C 	C 	0.6442	0.2114	0.6602	-0.206
Mof_H 	H 	0.6765	0.0164	0.6342	-0.009
Mof_H 	H 	0.6295	0.3846	0.7093	-0.008
Mof_O 	O 	0.9945	0.596	0.36627	-0.371
Mof_C 	C 	0.192	0.6901	0.7019	-0.194
Mof_H 	H 	0.2066	0.8772	0.6658	-0.001
Mof_H 	H 	0.1444	0.5268	0.7588	0.012
Mof_C 	C 	0.5826	0.2768	0.5884	0.478
Mof_C 	C 	0.3072	0.6157	0.6347	0.506
Mof_Nd	Nd	0.62773	0.6024	0.51838	2.378
Mof_O 	O 	0.5863	0.3937	0.56231	-0.656
Mof_O 	O 	0.4769	0.7837	0.44216	-0.525
Mof_O 	O 	0.4051	0.6625	0.60874	-0.574
Mof_O 	O 	0.7051	0.4863	0.39072	-0.566
Mof_O 	O 	0.6863	0.5882	0.65704	-0.585
Mof_O 	O 	0.778	0.7092	0.42084	-0.541
Mof_C 	C 	0.7105	0.6069	0.7213	0.56
Mof_C 	C 	0.6068	0.6988	0.7839	-0.228
Mof_O 	O 	0.8274	0.5468	0.7428	-0.635
Mof_C 	C 	0.6478	0.7302	0.8495	0.113
Mof_C 	C 	0.4699	0.7547	0.7764	0.113
Mof_H 	H 	0.882	0.498	0.71	0.389
Mof_H 	H 	0.7413	0.6924	0.8546	0.013
Mof_C 	C 	0.5523	0.8168	0.9074	-0.164
Mof_H 	H 	0.4419	0.7353	0.7309	-0.009
Mof_C 	C 	0.374	0.8391	0.8356	-0.164
Mof_H 	H 	0.5814	0.8381	0.9518	0.088
Mof_C 	C 	0.4137	0.8733	0.9015	0.096
Mof_H 	H 	0.2801	0.8742	0.8313	0.092
Mof_C 	C 	0.3135	0.9569	0.9684	-0.027
Mof_C 	C 	0.2091	0.0804	0.9571	-0.009
Mof_C 	C 	0.3226	0.9083	0.048	-0.049
Mof_C 	C 	0.1897	0.1447	0.8755	0.077
Mof_C 	C 	0.1198	0.1435	0.0262	-0.063
Mof_C 	C 	0.2342	0.9726	0.1169	-0.025
Mof_H 	H 	0.3937	0.8261	0.0556	0.048
Mof_C 	C 	0.2989	0.16	0.8146	-0.145
Mof_C 	C 	0.0586	0.1916	0.8583	-0.138
Mof_C 	C 	0.1274	0.0933	0.106	-0.013
Mof_H 	H 	0.0491	0.2261	0.0188	0.052
Mof_C 	C 	0.2647	0.9119	0.1976	0.093
Mof_H 	H 	0.3891	0.1308	0.8254	0.084
Mof_C 	C 	0.2782	0.2171	0.7387	0.085
Mof_C 	C 	0.0369	0.2522	0.7831	0.074
Mof_H 	H 	0.9826	0.1819	0.8988	0.079
Mof_C 	C 	0.0195	0.1685	0.1741	0.075
Mof_C 	C 	0.2706	0.9891	0.2569	-0.162
Mof_C 	C 	0.3032	0.7718	0.2114	-0.165
Mof_C 	C 	0.1458	0.265	0.7219	-0.17
Mof_H 	H 	0.3546	0.2238	0.6976	0.008
Mof_H 	H 	0.9459	0.2855	0.7733	0.013
Mof_C 	C 	0.9496	0.0995	0.2352	-0.149
Mof_C 	C 	0.9815	0.3089	0.1766	-0.138
Mof_C 	C 	0.3174	0.9292	0.3267	0.099
Mof_H 	H 	0.2421	0.0848	0.2495	0.087
Mof_H 	H 	0.2993	0.7173	0.1716	0.088
Mof_C 	C 	0.3468	0.7106	0.282	0.106
Mof_C 	C 	0.1239	0.3242	0.639	0.436
Mof_H 	H 	0.9758	0.0038	0.2356	0.083
Mof_C 	C 	0.8432	0.17	0.2949	0.088
Mof_H 	H 	0.0265	0.3574	0.1352	0.084
Mof_C 	C 	0.8782	0.3781	0.2391	0.093
Mof_C 	C 	0.3558	0.7886	0.3398	-0.206
Mof_H 	H 	0.3235	0.9836	0.3658	-0.009
Mof_H 	H 	0.3705	0.6154	0.2907	-0.008
Mof_O 	O 	0.0055	0.404	0.63373	-0.371
Mof_C 	C 	0.808	0.3099	0.2981	-0.194
Mof_H 	H 	0.7934	0.1228	0.3342	-0.001
Mof_H 	H 	0.8556	0.4732	0.2412	0.012
Mof_C 	C 	0.4174	0.7232	0.4116	0.478
Mof_C 	C 	0.6928	0.3843	0.3653	0.506
_end
