data_functionalizedCrystal
_audit_creation_method	'EQeq! by Chris Wilmer'
_symmetry_space_group_name_H-M	'P1'
_symmetry_Int_Tables_number	1
_symmetry_cell_setting	triclinic
loop_
_symmetry_equiv_pos_as_xyz
  x,y,z
_cell_length_a	11.4326
_cell_length_b	40.4457
_cell_length_c	63.8998
_cell_angle_alpha	90
_cell_angle_beta	90
_cell_angle_gamma	90
loop_
_atom_site_label
_atom_site_type_symbol
_atom_site_fract_x
_atom_site_fract_y
_atom_site_fract_z
_atom_site_charge
Mof_Zn	Zn	0.45642	0.54002	0.53145	1.21
Mof_O 	O 	0.1913	0.31684	0.76559	-0.376
Mof_O 	O 	0.0244	0.30633	0.75031	-0.407
Mof_O 	O 	0.9561	0.34638	0.6769	-0.399
Mof_O 	O 	0.0725	0.3848	0.66446	-0.362
Mof_O 	O 	0.5099	0.5432	0.57662	-0.301
Mof_O 	O 	0.4964	0.57749	0.54954	-0.437
Mof_N 	N 	0.8781	0.41302	0.63276	-0.261
Mof_N 	N 	0.8927	0.44279	0.60404	-0.156
Mof_N 	N 	0.19	0.48035	0.5551	-0.154
Mof_N 	N 	0.3469	0.50495	0.54282	-0.258
Mof_N 	N 	0.7787	0.4919	0.53875	-0.154
Mof_N 	N 	0.6127	0.51541	0.52973	-0.252
Mof_C 	C 	0.1258	0.31856	0.75044	0.302
Mof_C 	C 	0.1647	0.3367	0.73062	-0.047
Mof_C 	C 	0.2754	0.35021	0.73034	-0.042
Mof_H 	H 	0.3249	0.3478	0.7422	0.066
Mof_C 	C 	0.3157	0.36754	0.71277	0.015
Mof_C 	C 	0.2427	0.37123	0.69557	-0.039
Mof_H 	H 	0.2693	0.3829	0.6836	0.059
Mof_C 	C 	0.1299	0.35778	0.69597	-0.056
Mof_C 	C 	0.0908	0.34059	0.71341	-0.005
Mof_H 	H 	0.0142	0.3315	0.7136	0.06
Mof_C 	C 	0.0496	0.3634	0.67775	0.296
Mof_C 	C 	0.7972	0.4371	0.63348	0.005
Mof_H 	H 	0.745	0.4408	0.6448	0.023
Mof_C 	C 	0.8008	0.4554	0.61568	0.006
Mof_H 	H 	0.7506	0.4732	0.612	0.035
Mof_C 	C 	0.9347	0.41678	0.61486	0.103
Mof_H 	H 	0.9968	0.403	0.6102	-0.006
Mof_C 	C 	0.926	0.45508	0.5842	0.213
Mof_C 	C 	0.8379	0.4647	0.57063	-0.255
Mof_H 	H 	0.758	0.4609	0.574	0.126
Mof_C 	C 	0.8692	0.48008	0.55203	0.216
Mof_C 	C 	0.9841	0.48481	0.54645	-0.257
Mof_H 	H 	0.004	0.495	0.5335	0.125
Mof_C 	C 	0.0699	0.47431	0.56018	0.212
Mof_C 	C 	0.0435	0.45948	0.57929	-0.25
Mof_H 	H 	0.1035	0.4526	0.5886	0.131
Mof_C 	C 	0.2851	0.46082	0.56098	0.016
Mof_H 	H 	0.2832	0.4409	0.5688	0.037
Mof_C 	C 	0.3804	0.47619	0.5532	0.008
Mof_H 	H 	0.4586	0.4685	0.5546	0.029
Mof_C 	C 	0.2317	0.50654	0.54421	0.104
Mof_H 	H 	0.1849	0.5236	0.5384	-0.004
Mof_C 	C 	0.7788	0.49374	0.51707	0.008
Mof_H 	H 	0.8385	0.4864	0.5078	0.031
Mof_C 	C 	0.6765	0.50514	0.54559	0.101
Mof_H 	H 	0.6541	0.5068	0.5599	-0.002
Mof_C 	C 	0.6761	0.50824	0.51181	0.008
Mof_H 	H 	0.6513	0.5128	0.4979	0.008
Mof_C 	C 	0.5231	0.57075	0.56839	0.333
Mof_C 	C 	0.5762	0.59861	0.58068	-0.095
Mof_C 	C 	0.5787	0.59835	0.60227	-0.012
Mof_H 	H 	0.5486	0.5798	0.6096	0.054
Mof_Zn	Zn	0.45642	0.04002	0.03145	1.21
Mof_O 	O 	0.1913	0.81684	0.26559	-0.376
Mof_O 	O 	0.0244	0.80633	0.25031	-0.407
Mof_O 	O 	0.9561	0.84638	0.1769	-0.399
Mof_O 	O 	0.0725	0.8848	0.16446	-0.362
Mof_O 	O 	0.5099	0.0432	0.07662	-0.301
Mof_O 	O 	0.4964	0.07749	0.04954	-0.437
Mof_N 	N 	0.8781	0.91302	0.13276	-0.261
Mof_N 	N 	0.8927	0.94279	0.10404	-0.156
Mof_N 	N 	0.19	0.98035	0.0551	-0.154
Mof_N 	N 	0.3469	0.00495	0.04282	-0.258
Mof_N 	N 	0.7787	0.9919	0.03875	-0.154
Mof_N 	N 	0.6127	0.01541	0.02973	-0.252
Mof_C 	C 	0.1258	0.81856	0.25044	0.302
Mof_C 	C 	0.1647	0.8367	0.23062	-0.047
Mof_C 	C 	0.2754	0.85021	0.23034	-0.042
Mof_H 	H 	0.3249	0.8478	0.2422	0.066
Mof_C 	C 	0.3157	0.86754	0.21277	0.015
Mof_C 	C 	0.2427	0.87123	0.19557	-0.039
Mof_H 	H 	0.2693	0.8829	0.1836	0.059
Mof_C 	C 	0.1299	0.85778	0.19597	-0.056
Mof_C 	C 	0.0908	0.84059	0.21341	-0.005
Mof_H 	H 	0.0142	0.8315	0.2136	0.06
Mof_C 	C 	0.0496	0.8634	0.17775	0.296
Mof_C 	C 	0.7972	0.9371	0.13348	0.005
Mof_H 	H 	0.745	0.9408	0.1448	0.023
Mof_C 	C 	0.8008	0.9554	0.11568	0.006
Mof_H 	H 	0.7506	0.9732	0.112	0.035
Mof_C 	C 	0.9347	0.91678	0.11486	0.103
Mof_H 	H 	0.9968	0.903	0.1102	-0.006
Mof_C 	C 	0.926	0.95508	0.0842	0.213
Mof_C 	C 	0.8379	0.9647	0.07063	-0.255
Mof_H 	H 	0.758	0.9609	0.074	0.126
Mof_C 	C 	0.8692	0.98008	0.05203	0.216
Mof_C 	C 	0.9841	0.98481	0.04645	-0.257
Mof_H 	H 	0.004	0.995	0.0335	0.125
Mof_C 	C 	0.0699	0.97431	0.06018	0.212
Mof_C 	C 	0.0435	0.95948	0.07929	-0.25
Mof_H 	H 	0.1035	0.9526	0.0886	0.131
Mof_C 	C 	0.2851	0.96082	0.06098	0.016
Mof_H 	H 	0.2832	0.9409	0.0688	0.037
Mof_C 	C 	0.3804	0.97619	0.0532	0.008
Mof_H 	H 	0.4586	0.9685	0.0546	0.029
Mof_C 	C 	0.2317	0.00654	0.04421	0.104
Mof_H 	H 	0.1849	0.0236	0.0384	-0.004
Mof_C 	C 	0.7788	0.99374	0.01707	0.008
Mof_H 	H 	0.8385	0.9864	0.0078	0.031
Mof_C 	C 	0.6765	0.00514	0.04559	0.101
Mof_H 	H 	0.6541	0.0068	0.0599	-0.002
Mof_C 	C 	0.6761	0.00824	0.01181	0.008
Mof_H 	H 	0.6513	0.0128	0.9979	0.008
Mof_C 	C 	0.5231	0.07075	0.06839	0.333
Mof_C 	C 	0.5762	0.09861	0.08068	-0.095
Mof_C 	C 	0.5787	0.09835	0.10227	-0.012
Mof_H 	H 	0.5486	0.0798	0.1096	0.054
Mof_Zn	Zn	0.95642	0.54002	0.03145	1.21
Mof_O 	O 	0.6913	0.31684	0.26559	-0.376
Mof_O 	O 	0.5244	0.30633	0.25031	-0.407
Mof_O 	O 	0.4561	0.34638	0.1769	-0.399
Mof_O 	O 	0.5725	0.3848	0.16446	-0.362
Mof_O 	O 	0.0099	0.5432	0.07662	-0.301
Mof_O 	O 	0.9964	0.57749	0.04954	-0.437
Mof_N 	N 	0.3781	0.41302	0.13276	-0.261
Mof_N 	N 	0.3927	0.44279	0.10404	-0.156
Mof_N 	N 	0.69	0.48035	0.0551	-0.154
Mof_N 	N 	0.8469	0.50495	0.04282	-0.258
Mof_N 	N 	0.2787	0.4919	0.03875	-0.154
Mof_N 	N 	0.1127	0.51541	0.02973	-0.252
Mof_C 	C 	0.6258	0.31856	0.25044	0.302
Mof_C 	C 	0.6647	0.3367	0.23062	-0.047
Mof_C 	C 	0.7754	0.35021	0.23034	-0.042
Mof_H 	H 	0.8249	0.3478	0.2422	0.066
Mof_C 	C 	0.8157	0.36754	0.21277	0.015
Mof_C 	C 	0.7427	0.37123	0.19557	-0.039
Mof_H 	H 	0.7693	0.3829	0.1836	0.059
Mof_C 	C 	0.6299	0.35778	0.19597	-0.055
Mof_C 	C 	0.5908	0.34059	0.21341	-0.005
Mof_H 	H 	0.5142	0.3315	0.2136	0.06
Mof_C 	C 	0.5496	0.3634	0.17775	0.296
Mof_C 	C 	0.2972	0.4371	0.13348	0.005
Mof_H 	H 	0.245	0.4408	0.1448	0.023
Mof_C 	C 	0.3008	0.4554	0.11568	0.006
Mof_H 	H 	0.2506	0.4732	0.112	0.035
Mof_C 	C 	0.4347	0.41678	0.11486	0.103
Mof_H 	H 	0.4968	0.403	0.1102	-0.006
Mof_C 	C 	0.426	0.45508	0.0842	0.213
Mof_C 	C 	0.3379	0.4647	0.07063	-0.255
Mof_H 	H 	0.258	0.4609	0.074	0.126
Mof_C 	C 	0.3692	0.48008	0.05203	0.216
Mof_C 	C 	0.4841	0.48481	0.04645	-0.257
Mof_H 	H 	0.504	0.495	0.0335	0.125
Mof_C 	C 	0.5699	0.47431	0.06018	0.212
Mof_C 	C 	0.5435	0.45948	0.07929	-0.25
Mof_H 	H 	0.6035	0.4526	0.0886	0.131
Mof_C 	C 	0.7851	0.46082	0.06098	0.016
Mof_H 	H 	0.7832	0.4409	0.0688	0.037
Mof_C 	C 	0.8804	0.47619	0.0532	0.008
Mof_H 	H 	0.9586	0.4685	0.0546	0.029
Mof_C 	C 	0.7317	0.50654	0.04421	0.104
Mof_H 	H 	0.6849	0.5236	0.0384	-0.004
Mof_C 	C 	0.2788	0.49374	0.01707	0.008
Mof_H 	H 	0.3385	0.4864	0.0078	0.031
Mof_C 	C 	0.1765	0.50514	0.04559	0.101
Mof_H 	H 	0.1541	0.5068	0.0599	-0.002
Mof_C 	C 	0.1761	0.50824	0.01181	0.008
Mof_H 	H 	0.1513	0.5128	0.9979	0.008
Mof_C 	C 	0.0231	0.57075	0.06839	0.334
Mof_C 	C 	0.0762	0.59861	0.08068	-0.095
Mof_C 	C 	0.0787	0.59835	0.10227	-0.012
Mof_H 	H 	0.0486	0.5798	0.1096	0.054
Mof_Zn	Zn	0.95642	0.04002	0.53145	1.21
Mof_O 	O 	0.6913	0.81684	0.76559	-0.376
Mof_O 	O 	0.5244	0.80633	0.75031	-0.407
Mof_O 	O 	0.4561	0.84638	0.6769	-0.399
Mof_O 	O 	0.5725	0.8848	0.66446	-0.362
Mof_O 	O 	0.0099	0.0432	0.57662	-0.301
Mof_O 	O 	0.9964	0.07749	0.54954	-0.437
Mof_N 	N 	0.3781	0.91302	0.63276	-0.261
Mof_N 	N 	0.3927	0.94279	0.60404	-0.156
Mof_N 	N 	0.69	0.98035	0.5551	-0.154
Mof_N 	N 	0.8469	0.00495	0.54282	-0.258
Mof_N 	N 	0.2787	0.9919	0.53875	-0.154
Mof_N 	N 	0.1127	0.01541	0.52973	-0.252
Mof_C 	C 	0.6258	0.81856	0.75044	0.302
Mof_C 	C 	0.6647	0.8367	0.73062	-0.047
Mof_C 	C 	0.7754	0.85021	0.73034	-0.042
Mof_H 	H 	0.8249	0.8478	0.7422	0.066
Mof_C 	C 	0.8157	0.86754	0.71277	0.015
Mof_C 	C 	0.7427	0.87123	0.69557	-0.039
Mof_H 	H 	0.7693	0.8829	0.6836	0.059
Mof_C 	C 	0.6299	0.85778	0.69597	-0.055
Mof_C 	C 	0.5908	0.84059	0.71341	-0.005
Mof_H 	H 	0.5142	0.8315	0.7136	0.06
Mof_C 	C 	0.5496	0.8634	0.67775	0.296
Mof_C 	C 	0.2972	0.9371	0.63348	0.005
Mof_H 	H 	0.245	0.9408	0.6448	0.023
Mof_C 	C 	0.3008	0.9554	0.61568	0.006
Mof_H 	H 	0.2506	0.9732	0.612	0.035
Mof_C 	C 	0.4347	0.91678	0.61486	0.103
Mof_H 	H 	0.4968	0.903	0.6102	-0.006
Mof_C 	C 	0.426	0.95508	0.5842	0.213
Mof_C 	C 	0.3379	0.9647	0.57063	-0.255
Mof_H 	H 	0.258	0.9609	0.574	0.126
Mof_C 	C 	0.3692	0.98008	0.55203	0.216
Mof_C 	C 	0.4841	0.98481	0.54645	-0.257
Mof_H 	H 	0.504	0.995	0.5335	0.125
Mof_C 	C 	0.5699	0.97431	0.56018	0.212
Mof_C 	C 	0.5435	0.95948	0.57929	-0.25
Mof_H 	H 	0.6035	0.9526	0.5886	0.131
Mof_C 	C 	0.7851	0.96082	0.56098	0.016
Mof_H 	H 	0.7832	0.9409	0.5688	0.037
Mof_C 	C 	0.8804	0.97619	0.5532	0.008
Mof_H 	H 	0.9586	0.9685	0.5546	0.029
Mof_C 	C 	0.7317	0.00654	0.54421	0.104
Mof_H 	H 	0.6849	0.0236	0.5384	-0.004
Mof_C 	C 	0.2788	0.99374	0.51707	0.008
Mof_H 	H 	0.3385	0.9864	0.5078	0.031
Mof_C 	C 	0.1765	0.00514	0.54559	0.101
Mof_H 	H 	0.1541	0.0068	0.5599	-0.002
Mof_C 	C 	0.1761	0.00824	0.51181	0.008
Mof_H 	H 	0.1513	0.0128	0.4979	0.008
Mof_C 	C 	0.0231	0.07075	0.56839	0.334
Mof_C 	C 	0.0762	0.09861	0.58068	-0.095
Mof_C 	C 	0.0787	0.09835	0.60227	-0.012
Mof_H 	H 	0.0486	0.0798	0.6096	0.054
Mof_Zn	Zn	0.29358	0.20998	0.53145	1.21
Mof_O 	O 	0.5587	0.43316	0.76559	-0.376
Mof_O 	O 	0.7256	0.44367	0.75031	-0.407
Mof_O 	O 	0.7939	0.40362	0.6769	-0.399
Mof_O 	O 	0.6775	0.3652	0.66446	-0.362
Mof_O 	O 	0.2401	0.2068	0.57662	-0.301
Mof_O 	O 	0.2536	0.17251	0.54954	-0.437
Mof_N 	N 	0.8719	0.33698	0.63276	-0.261
Mof_N 	N 	0.8573	0.30721	0.60404	-0.156
Mof_N 	N 	0.56	0.26965	0.5551	-0.154
Mof_N 	N 	0.4031	0.24505	0.54282	-0.258
Mof_N 	N 	0.9713	0.2581	0.53875	-0.154
Mof_N 	N 	0.1373	0.23459	0.52973	-0.252
Mof_C 	C 	0.6242	0.43144	0.75044	0.302
Mof_C 	C 	0.5853	0.4133	0.73062	-0.047
Mof_C 	C 	0.4746	0.39979	0.73034	-0.042
Mof_H 	H 	0.4251	0.4022	0.7422	0.066
Mof_C 	C 	0.4343	0.38246	0.71277	0.015
Mof_C 	C 	0.5073	0.37877	0.69557	-0.039
Mof_H 	H 	0.4807	0.3671	0.6836	0.059
Mof_C 	C 	0.6201	0.39222	0.69597	-0.056
Mof_C 	C 	0.6592	0.40941	0.71341	-0.005
Mof_H 	H 	0.7358	0.4185	0.7136	0.06
Mof_C 	C 	0.7004	0.3866	0.67775	0.296
Mof_C 	C 	0.9528	0.3129	0.63348	0.005
Mof_H 	H 	0.005	0.3092	0.6448	0.023
Mof_C 	C 	0.9492	0.2946	0.61568	0.006
Mof_H 	H 	0.9994	0.2768	0.612	0.035
Mof_C 	C 	0.8153	0.33322	0.61486	0.103
Mof_H 	H 	0.7532	0.347	0.6102	-0.006
Mof_C 	C 	0.824	0.29492	0.5842	0.213
Mof_C 	C 	0.9121	0.2853	0.57063	-0.255
Mof_H 	H 	0.992	0.2891	0.574	0.126
Mof_C 	C 	0.8808	0.26992	0.55203	0.216
Mof_C 	C 	0.7659	0.26519	0.54645	-0.257
Mof_H 	H 	0.746	0.255	0.5335	0.125
Mof_C 	C 	0.6801	0.27569	0.56018	0.212
Mof_C 	C 	0.7065	0.29052	0.57929	-0.25
Mof_H 	H 	0.6465	0.2974	0.5886	0.131
Mof_C 	C 	0.4649	0.28918	0.56098	0.016
Mof_H 	H 	0.4668	0.3091	0.5688	0.037
Mof_C 	C 	0.3696	0.27381	0.5532	0.008
Mof_H 	H 	0.2914	0.2815	0.5546	0.029
Mof_C 	C 	0.5183	0.24346	0.54421	0.104
Mof_H 	H 	0.5651	0.2264	0.5384	-0.004
Mof_C 	C 	0.9712	0.25626	0.51707	0.008
Mof_H 	H 	0.9115	0.2636	0.5078	0.032
Mof_C 	C 	0.0735	0.24486	0.54559	0.102
Mof_H 	H 	0.0959	0.2432	0.5599	-0.002
Mof_C 	C 	0.0739	0.24176	0.51181	0.008
Mof_H 	H 	0.0987	0.2372	0.4979	0.008
Mof_C 	C 	0.2269	0.17925	0.56839	0.333
Mof_C 	C 	0.1738	0.15139	0.58068	-0.094
Mof_C 	C 	0.1713	0.15165	0.60227	-0.012
Mof_H 	H 	0.2014	0.1702	0.6096	0.054
Mof_Zn	Zn	0.29358	0.70998	0.03145	1.21
Mof_O 	O 	0.5587	0.93316	0.26559	-0.376
Mof_O 	O 	0.7256	0.94367	0.25031	-0.407
Mof_O 	O 	0.7939	0.90362	0.1769	-0.399
Mof_O 	O 	0.6775	0.8652	0.16446	-0.362
Mof_O 	O 	0.2401	0.7068	0.07662	-0.301
Mof_O 	O 	0.2536	0.67251	0.04954	-0.437
Mof_N 	N 	0.8719	0.83698	0.13276	-0.261
Mof_N 	N 	0.8573	0.80721	0.10404	-0.156
Mof_N 	N 	0.56	0.76965	0.0551	-0.154
Mof_N 	N 	0.4031	0.74505	0.04282	-0.258
Mof_N 	N 	0.9713	0.7581	0.03875	-0.154
Mof_N 	N 	0.1373	0.73459	0.02973	-0.252
Mof_C 	C 	0.6242	0.93144	0.25044	0.302
Mof_C 	C 	0.5853	0.9133	0.23062	-0.047
Mof_C 	C 	0.4746	0.89979	0.23034	-0.042
Mof_H 	H 	0.4251	0.9022	0.2422	0.066
Mof_C 	C 	0.4343	0.88246	0.21277	0.015
Mof_C 	C 	0.5073	0.87877	0.19557	-0.039
Mof_H 	H 	0.4807	0.8671	0.1836	0.059
Mof_C 	C 	0.6201	0.89222	0.19597	-0.056
Mof_C 	C 	0.6592	0.90941	0.21341	-0.005
Mof_H 	H 	0.7358	0.9185	0.2136	0.06
Mof_C 	C 	0.7004	0.8866	0.17775	0.296
Mof_C 	C 	0.9528	0.8129	0.13348	0.005
Mof_H 	H 	0.005	0.8092	0.1448	0.023
Mof_C 	C 	0.9492	0.7946	0.11568	0.006
Mof_H 	H 	0.9994	0.7768	0.112	0.035
Mof_C 	C 	0.8153	0.83322	0.11486	0.103
Mof_H 	H 	0.7532	0.847	0.1102	-0.006
Mof_C 	C 	0.824	0.79492	0.0842	0.213
Mof_C 	C 	0.9121	0.7853	0.07063	-0.255
Mof_H 	H 	0.992	0.7891	0.074	0.126
Mof_C 	C 	0.8808	0.76992	0.05203	0.216
Mof_C 	C 	0.7659	0.76519	0.04645	-0.257
Mof_H 	H 	0.746	0.755	0.0335	0.125
Mof_C 	C 	0.6801	0.77569	0.06018	0.212
Mof_C 	C 	0.7065	0.79052	0.07929	-0.25
Mof_H 	H 	0.6465	0.7974	0.0886	0.131
Mof_C 	C 	0.4649	0.78918	0.06098	0.016
Mof_H 	H 	0.4668	0.8091	0.0688	0.037
Mof_C 	C 	0.3696	0.77381	0.0532	0.008
Mof_H 	H 	0.2914	0.7815	0.0546	0.029
Mof_C 	C 	0.5183	0.74346	0.04421	0.104
Mof_H 	H 	0.5651	0.7264	0.0384	-0.004
Mof_C 	C 	0.9712	0.75626	0.01707	0.008
Mof_H 	H 	0.9115	0.7636	0.0078	0.032
Mof_C 	C 	0.0735	0.74486	0.04559	0.102
Mof_H 	H 	0.0959	0.7432	0.0599	-0.002
Mof_C 	C 	0.0739	0.74176	0.01181	0.008
Mof_H 	H 	0.0987	0.7372	0.9979	0.008
Mof_C 	C 	0.2269	0.67925	0.06839	0.333
Mof_C 	C 	0.1738	0.65139	0.08068	-0.094
Mof_C 	C 	0.1713	0.65165	0.10227	-0.012
Mof_H 	H 	0.2014	0.6702	0.1096	0.054
Mof_Zn	Zn	0.79358	0.20998	0.03145	1.21
Mof_O 	O 	0.0587	0.43316	0.26559	-0.376
Mof_O 	O 	0.2256	0.44367	0.25031	-0.407
Mof_O 	O 	0.2939	0.40362	0.1769	-0.399
Mof_O 	O 	0.1775	0.3652	0.16446	-0.362
Mof_O 	O 	0.7401	0.2068	0.07662	-0.301
Mof_O 	O 	0.7536	0.17251	0.04954	-0.437
Mof_N 	N 	0.3719	0.33698	0.13276	-0.261
Mof_N 	N 	0.3573	0.30721	0.10404	-0.156
Mof_N 	N 	0.06	0.26965	0.0551	-0.154
Mof_N 	N 	0.9031	0.24505	0.04282	-0.258
Mof_N 	N 	0.4713	0.2581	0.03875	-0.154
Mof_N 	N 	0.6373	0.23459	0.02973	-0.252
Mof_C 	C 	0.1242	0.43144	0.25044	0.302
Mof_C 	C 	0.0853	0.4133	0.23062	-0.047
Mof_C 	C 	0.9746	0.39979	0.23034	-0.042
Mof_H 	H 	0.9251	0.4022	0.2422	0.066
Mof_C 	C 	0.9343	0.38246	0.21277	0.014
Mof_C 	C 	0.0073	0.37877	0.19557	-0.038
Mof_H 	H 	0.9807	0.3671	0.1836	0.058
Mof_C 	C 	0.1201	0.39222	0.19597	-0.056
Mof_C 	C 	0.1592	0.40941	0.21341	-0.005
Mof_H 	H 	0.2358	0.4185	0.2136	0.06
Mof_C 	C 	0.2004	0.3866	0.17775	0.296
Mof_C 	C 	0.4528	0.3129	0.13348	0.005
Mof_H 	H 	0.505	0.3092	0.1448	0.023
Mof_C 	C 	0.4492	0.2946	0.11568	0.006
Mof_H 	H 	0.4994	0.2768	0.112	0.035
Mof_C 	C 	0.3153	0.33322	0.11486	0.103
Mof_H 	H 	0.2532	0.347	0.1102	-0.006
Mof_C 	C 	0.324	0.29492	0.0842	0.213
Mof_C 	C 	0.4121	0.2853	0.07063	-0.255
Mof_H 	H 	0.492	0.2891	0.074	0.126
Mof_C 	C 	0.3808	0.26992	0.05203	0.216
Mof_C 	C 	0.2659	0.26519	0.04645	-0.257
Mof_H 	H 	0.246	0.255	0.0335	0.125
Mof_C 	C 	0.1801	0.27569	0.06018	0.212
Mof_C 	C 	0.2065	0.29052	0.07929	-0.25
Mof_H 	H 	0.1465	0.2974	0.0886	0.131
Mof_C 	C 	0.9649	0.28918	0.06098	0.016
Mof_H 	H 	0.9668	0.3091	0.0688	0.037
Mof_C 	C 	0.8696	0.27381	0.0532	0.008
Mof_H 	H 	0.7914	0.2815	0.0546	0.029
Mof_C 	C 	0.0183	0.24346	0.04421	0.104
Mof_H 	H 	0.0651	0.2264	0.0384	-0.004
Mof_C 	C 	0.4712	0.25626	0.01707	0.008
Mof_H 	H 	0.4115	0.2636	0.0078	0.031
Mof_C 	C 	0.5735	0.24486	0.04559	0.101
Mof_H 	H 	0.5959	0.2432	0.0599	-0.002
Mof_C 	C 	0.5739	0.24176	0.01181	0.008
Mof_H 	H 	0.5987	0.2372	0.9979	0.008
Mof_C 	C 	0.7269	0.17925	0.06839	0.333
Mof_C 	C 	0.6738	0.15139	0.08068	-0.095
Mof_C 	C 	0.6713	0.15165	0.10227	-0.012
Mof_H 	H 	0.7014	0.1702	0.1096	0.054
Mof_Zn	Zn	0.79358	0.70998	0.53145	1.21
Mof_O 	O 	0.0587	0.93316	0.76559	-0.376
Mof_O 	O 	0.2256	0.94367	0.75031	-0.407
Mof_O 	O 	0.2939	0.90362	0.6769	-0.399
Mof_O 	O 	0.1775	0.8652	0.66446	-0.362
Mof_O 	O 	0.7401	0.7068	0.57662	-0.301
Mof_O 	O 	0.7536	0.67251	0.54954	-0.437
Mof_N 	N 	0.3719	0.83698	0.63276	-0.261
Mof_N 	N 	0.3573	0.80721	0.60404	-0.156
Mof_N 	N 	0.06	0.76965	0.5551	-0.154
Mof_N 	N 	0.9031	0.74505	0.54282	-0.258
Mof_N 	N 	0.4713	0.7581	0.53875	-0.154
Mof_N 	N 	0.6373	0.73459	0.52973	-0.252
Mof_C 	C 	0.1242	0.93144	0.75044	0.302
Mof_C 	C 	0.0853	0.9133	0.73062	-0.047
Mof_C 	C 	0.9746	0.89979	0.73034	-0.042
Mof_H 	H 	0.9251	0.9022	0.7422	0.066
Mof_C 	C 	0.9343	0.88246	0.71277	0.014
Mof_C 	C 	0.0073	0.87877	0.69557	-0.038
Mof_H 	H 	0.9807	0.8671	0.6836	0.058
Mof_C 	C 	0.1201	0.89222	0.69597	-0.056
Mof_C 	C 	0.1592	0.90941	0.71341	-0.005
Mof_H 	H 	0.2358	0.9185	0.7136	0.06
Mof_C 	C 	0.2004	0.8866	0.67775	0.296
Mof_C 	C 	0.4528	0.8129	0.63348	0.005
Mof_H 	H 	0.505	0.8092	0.6448	0.023
Mof_C 	C 	0.4492	0.7946	0.61568	0.006
Mof_H 	H 	0.4994	0.7768	0.612	0.035
Mof_C 	C 	0.3153	0.83322	0.61486	0.103
Mof_H 	H 	0.2532	0.847	0.6102	-0.006
Mof_C 	C 	0.324	0.79492	0.5842	0.213
Mof_C 	C 	0.4121	0.7853	0.57063	-0.255
Mof_H 	H 	0.492	0.7891	0.574	0.126
Mof_C 	C 	0.3808	0.76992	0.55203	0.216
Mof_C 	C 	0.2659	0.76519	0.54645	-0.257
Mof_H 	H 	0.246	0.755	0.5335	0.125
Mof_C 	C 	0.1801	0.77569	0.56018	0.212
Mof_C 	C 	0.2065	0.79052	0.57929	-0.25
Mof_H 	H 	0.1465	0.7974	0.5886	0.131
Mof_C 	C 	0.9649	0.78918	0.56098	0.016
Mof_H 	H 	0.9668	0.8091	0.5688	0.037
Mof_C 	C 	0.8696	0.77381	0.5532	0.008
Mof_H 	H 	0.7914	0.7815	0.5546	0.029
Mof_C 	C 	0.0183	0.74346	0.54421	0.104
Mof_H 	H 	0.0651	0.7264	0.5384	-0.004
Mof_C 	C 	0.4712	0.75626	0.51707	0.008
Mof_H 	H 	0.4115	0.7636	0.5078	0.031
Mof_C 	C 	0.5735	0.74486	0.54559	0.101
Mof_H 	H 	0.5959	0.7432	0.5599	-0.002
Mof_C 	C 	0.5739	0.74176	0.51181	0.008
Mof_H 	H 	0.5987	0.7372	0.4979	0.008
Mof_C 	C 	0.7269	0.67925	0.56839	0.333
Mof_C 	C 	0.6738	0.65139	0.58068	-0.095
Mof_C 	C 	0.6713	0.65165	0.60227	-0.012
Mof_H 	H 	0.7014	0.6702	0.6096	0.054
Mof_Zn	Zn	0.29358	0.54002	0.21855	1.21
Mof_O 	O 	0.5587	0.31684	0.98441	-0.376
Mof_O 	O 	0.7256	0.30633	0.99969	-0.407
Mof_O 	O 	0.7939	0.34638	0.0731	-0.399
Mof_O 	O 	0.6775	0.3848	0.08554	-0.362
Mof_O 	O 	0.2401	0.5432	0.17338	-0.301
Mof_O 	O 	0.2536	0.57749	0.20046	-0.437
Mof_N 	N 	0.8719	0.41302	0.11724	-0.261
Mof_N 	N 	0.8573	0.44279	0.14596	-0.156
Mof_N 	N 	0.56	0.48035	0.1949	-0.154
Mof_N 	N 	0.4031	0.50495	0.20718	-0.258
Mof_N 	N 	0.9713	0.4919	0.21125	-0.154
Mof_N 	N 	0.1373	0.51541	0.22027	-0.252
Mof_C 	C 	0.6242	0.31856	0.99956	0.302
Mof_C 	C 	0.5853	0.3367	0.01938	-0.047
Mof_C 	C 	0.4746	0.35021	0.01966	-0.042
Mof_H 	H 	0.4251	0.3478	0.0078	0.066
Mof_C 	C 	0.4343	0.36754	0.03723	0.015
Mof_C 	C 	0.5073	0.37123	0.05443	-0.039
Mof_H 	H 	0.4807	0.3829	0.0664	0.059
Mof_C 	C 	0.6201	0.35778	0.05403	-0.056
Mof_C 	C 	0.6592	0.34059	0.03659	-0.005
Mof_H 	H 	0.7358	0.3315	0.0364	0.06
Mof_C 	C 	0.7004	0.3634	0.07225	0.296
Mof_C 	C 	0.9528	0.4371	0.11652	0.005
Mof_H 	H 	0.005	0.4408	0.1052	0.023
Mof_C 	C 	0.9492	0.4554	0.13432	0.006
Mof_H 	H 	0.9994	0.4732	0.138	0.035
Mof_C 	C 	0.8153	0.41678	0.13514	0.103
Mof_H 	H 	0.7532	0.403	0.1398	-0.006
Mof_C 	C 	0.824	0.45508	0.1658	0.213
Mof_C 	C 	0.9121	0.4647	0.17937	-0.255
Mof_H 	H 	0.992	0.4609	0.176	0.126
Mof_C 	C 	0.8808	0.48008	0.19797	0.216
Mof_C 	C 	0.7659	0.48481	0.20355	-0.257
Mof_H 	H 	0.746	0.495	0.2165	0.125
Mof_C 	C 	0.6801	0.47431	0.18982	0.212
Mof_C 	C 	0.7065	0.45948	0.17071	-0.25
Mof_H 	H 	0.6465	0.4526	0.1614	0.131
Mof_C 	C 	0.4649	0.46082	0.18902	0.016
Mof_H 	H 	0.4668	0.4409	0.1812	0.037
Mof_C 	C 	0.3696	0.47619	0.1968	0.008
Mof_H 	H 	0.2914	0.4685	0.1954	0.029
Mof_C 	C 	0.5183	0.50654	0.20579	0.104
Mof_H 	H 	0.5651	0.5236	0.2116	-0.004
Mof_C 	C 	0.9712	0.49374	0.23293	0.008
Mof_H 	H 	0.9115	0.4864	0.2422	0.032
Mof_C 	C 	0.0735	0.50514	0.20441	0.102
Mof_H 	H 	0.0959	0.5068	0.1901	-0.002
Mof_C 	C 	0.0739	0.50824	0.23819	0.008
Mof_H 	H 	0.0987	0.5128	0.2521	0.008
Mof_C 	C 	0.2269	0.57075	0.18161	0.333
Mof_C 	C 	0.1738	0.59861	0.16932	-0.094
Mof_C 	C 	0.1713	0.59835	0.14773	-0.012
Mof_H 	H 	0.2014	0.5798	0.1404	0.054
Mof_Zn	Zn	0.29358	0.04002	0.71855	1.21
Mof_O 	O 	0.5587	0.81684	0.48441	-0.376
Mof_O 	O 	0.7256	0.80633	0.49969	-0.407
Mof_O 	O 	0.7939	0.84638	0.5731	-0.399
Mof_O 	O 	0.6775	0.8848	0.58554	-0.362
Mof_O 	O 	0.2401	0.0432	0.67338	-0.301
Mof_O 	O 	0.2536	0.07749	0.70046	-0.437
Mof_N 	N 	0.8719	0.91302	0.61724	-0.261
Mof_N 	N 	0.8573	0.94279	0.64596	-0.156
Mof_N 	N 	0.56	0.98035	0.6949	-0.154
Mof_N 	N 	0.4031	0.00495	0.70718	-0.258
Mof_N 	N 	0.9713	0.9919	0.71125	-0.154
Mof_N 	N 	0.1373	0.01541	0.72027	-0.252
Mof_C 	C 	0.6242	0.81856	0.49956	0.302
Mof_C 	C 	0.5853	0.8367	0.51938	-0.047
Mof_C 	C 	0.4746	0.85021	0.51966	-0.042
Mof_H 	H 	0.4251	0.8478	0.5078	0.066
Mof_C 	C 	0.4343	0.86754	0.53723	0.015
Mof_C 	C 	0.5073	0.87123	0.55443	-0.039
Mof_H 	H 	0.4807	0.8829	0.5664	0.059
Mof_C 	C 	0.6201	0.85778	0.55403	-0.056
Mof_C 	C 	0.6592	0.84059	0.53659	-0.005
Mof_H 	H 	0.7358	0.8315	0.5364	0.06
Mof_C 	C 	0.7004	0.8634	0.57225	0.296
Mof_C 	C 	0.9528	0.9371	0.61652	0.005
Mof_H 	H 	0.005	0.9408	0.6052	0.023
Mof_C 	C 	0.9492	0.9554	0.63432	0.006
Mof_H 	H 	0.9994	0.9732	0.638	0.035
Mof_C 	C 	0.8153	0.91678	0.63514	0.103
Mof_H 	H 	0.7532	0.903	0.6398	-0.006
Mof_C 	C 	0.824	0.95508	0.6658	0.213
Mof_C 	C 	0.9121	0.9647	0.67937	-0.255
Mof_H 	H 	0.992	0.9609	0.676	0.126
Mof_C 	C 	0.8808	0.98008	0.69797	0.216
Mof_C 	C 	0.7659	0.98481	0.70355	-0.257
Mof_H 	H 	0.746	0.995	0.7165	0.125
Mof_C 	C 	0.6801	0.97431	0.68982	0.212
Mof_C 	C 	0.7065	0.95948	0.67071	-0.25
Mof_H 	H 	0.6465	0.9526	0.6614	0.131
Mof_C 	C 	0.4649	0.96082	0.68902	0.016
Mof_H 	H 	0.4668	0.9409	0.6812	0.037
Mof_C 	C 	0.3696	0.97619	0.6968	0.008
Mof_H 	H 	0.2914	0.9685	0.6954	0.029
Mof_C 	C 	0.5183	0.00654	0.70579	0.104
Mof_H 	H 	0.5651	0.0236	0.7116	-0.004
Mof_C 	C 	0.9712	0.99374	0.73293	0.008
Mof_H 	H 	0.9115	0.9864	0.7422	0.032
Mof_C 	C 	0.0735	0.00514	0.70441	0.102
Mof_H 	H 	0.0959	0.0068	0.6901	-0.002
Mof_C 	C 	0.0739	0.00824	0.73819	0.008
Mof_H 	H 	0.0987	0.0128	0.7521	0.008
Mof_C 	C 	0.2269	0.07075	0.68161	0.333
Mof_C 	C 	0.1738	0.09861	0.66932	-0.094
Mof_C 	C 	0.1713	0.09835	0.64773	-0.012
Mof_H 	H 	0.2014	0.0798	0.6404	0.054
Mof_Zn	Zn	0.79358	0.54002	0.71855	1.21
Mof_O 	O 	0.0587	0.31684	0.48441	-0.376
Mof_O 	O 	0.2256	0.30633	0.49969	-0.407
Mof_O 	O 	0.2939	0.34638	0.5731	-0.399
Mof_O 	O 	0.1775	0.3848	0.58554	-0.362
Mof_O 	O 	0.7401	0.5432	0.67338	-0.301
Mof_O 	O 	0.7536	0.57749	0.70046	-0.437
Mof_N 	N 	0.3719	0.41302	0.61724	-0.261
Mof_N 	N 	0.3573	0.44279	0.64596	-0.156
Mof_N 	N 	0.06	0.48035	0.6949	-0.154
Mof_N 	N 	0.9031	0.50495	0.70718	-0.258
Mof_N 	N 	0.4713	0.4919	0.71125	-0.154
Mof_N 	N 	0.6373	0.51541	0.72027	-0.252
Mof_C 	C 	0.1242	0.31856	0.49956	0.302
Mof_C 	C 	0.0853	0.3367	0.51938	-0.047
Mof_C 	C 	0.9746	0.35021	0.51966	-0.042
Mof_H 	H 	0.9251	0.3478	0.5078	0.066
Mof_C 	C 	0.9343	0.36754	0.53723	0.014
Mof_C 	C 	0.0073	0.37123	0.55443	-0.038
Mof_H 	H 	0.9807	0.3829	0.5664	0.058
Mof_C 	C 	0.1201	0.35778	0.55403	-0.056
Mof_C 	C 	0.1592	0.34059	0.53659	-0.005
Mof_H 	H 	0.2358	0.3315	0.5364	0.06
Mof_C 	C 	0.2004	0.3634	0.57225	0.296
Mof_C 	C 	0.4528	0.4371	0.61652	0.005
Mof_H 	H 	0.505	0.4408	0.6052	0.023
Mof_C 	C 	0.4492	0.4554	0.63432	0.006
Mof_H 	H 	0.4994	0.4732	0.638	0.035
Mof_C 	C 	0.3153	0.41678	0.63514	0.103
Mof_H 	H 	0.2532	0.403	0.6398	-0.006
Mof_C 	C 	0.324	0.45508	0.6658	0.213
Mof_C 	C 	0.4121	0.4647	0.67937	-0.255
Mof_H 	H 	0.492	0.4609	0.676	0.126
Mof_C 	C 	0.3808	0.48008	0.69797	0.216
Mof_C 	C 	0.2659	0.48481	0.70355	-0.257
Mof_H 	H 	0.246	0.495	0.7165	0.125
Mof_C 	C 	0.1801	0.47431	0.68982	0.212
Mof_C 	C 	0.2065	0.45948	0.67071	-0.25
Mof_H 	H 	0.1465	0.4526	0.6614	0.131
Mof_C 	C 	0.9649	0.46082	0.68902	0.016
Mof_H 	H 	0.9668	0.4409	0.6812	0.037
Mof_C 	C 	0.8696	0.47619	0.6968	0.008
Mof_H 	H 	0.7914	0.4685	0.6954	0.029
Mof_C 	C 	0.0183	0.50654	0.70579	0.104
Mof_H 	H 	0.0651	0.5236	0.7116	-0.004
Mof_C 	C 	0.4712	0.49374	0.73293	0.008
Mof_H 	H 	0.4115	0.4864	0.7422	0.031
Mof_C 	C 	0.5735	0.50514	0.70441	0.101
Mof_H 	H 	0.5959	0.5068	0.6901	-0.002
Mof_C 	C 	0.5739	0.50824	0.73819	0.008
Mof_H 	H 	0.5987	0.5128	0.7521	0.008
Mof_C 	C 	0.7269	0.57075	0.68161	0.333
Mof_C 	C 	0.6738	0.59861	0.66932	-0.095
Mof_C 	C 	0.6713	0.59835	0.64773	-0.012
Mof_H 	H 	0.7014	0.5798	0.6404	0.054
Mof_Zn	Zn	0.79358	0.04002	0.21855	1.21
Mof_O 	O 	0.0587	0.81684	0.98441	-0.376
Mof_O 	O 	0.2256	0.80633	0.99969	-0.407
Mof_O 	O 	0.2939	0.84638	0.0731	-0.399
Mof_O 	O 	0.1775	0.8848	0.08554	-0.362
Mof_O 	O 	0.7401	0.0432	0.17338	-0.301
Mof_O 	O 	0.7536	0.07749	0.20046	-0.437
Mof_N 	N 	0.3719	0.91302	0.11724	-0.261
Mof_N 	N 	0.3573	0.94279	0.14596	-0.156
Mof_N 	N 	0.06	0.98035	0.1949	-0.154
Mof_N 	N 	0.9031	0.00495	0.20718	-0.258
Mof_N 	N 	0.4713	0.9919	0.21125	-0.154
Mof_N 	N 	0.6373	0.01541	0.22027	-0.252
Mof_C 	C 	0.1242	0.81856	0.99956	0.302
Mof_C 	C 	0.0853	0.8367	0.01938	-0.047
Mof_C 	C 	0.9746	0.85021	0.01966	-0.042
Mof_H 	H 	0.9251	0.8478	0.0078	0.066
Mof_C 	C 	0.9343	0.86754	0.03723	0.014
Mof_C 	C 	0.0073	0.87123	0.05443	-0.038
Mof_H 	H 	0.9807	0.8829	0.0664	0.058
Mof_C 	C 	0.1201	0.85778	0.05403	-0.056
Mof_C 	C 	0.1592	0.84059	0.03659	-0.005
Mof_H 	H 	0.2358	0.8315	0.0364	0.06
Mof_C 	C 	0.2004	0.8634	0.07225	0.296
Mof_C 	C 	0.4528	0.9371	0.11652	0.005
Mof_H 	H 	0.505	0.9408	0.1052	0.023
Mof_C 	C 	0.4492	0.9554	0.13432	0.006
Mof_H 	H 	0.4994	0.9732	0.138	0.035
Mof_C 	C 	0.3153	0.91678	0.13514	0.103
Mof_H 	H 	0.2532	0.903	0.1398	-0.006
Mof_C 	C 	0.324	0.95508	0.1658	0.213
Mof_C 	C 	0.4121	0.9647	0.17937	-0.255
Mof_H 	H 	0.492	0.9609	0.176	0.126
Mof_C 	C 	0.3808	0.98008	0.19797	0.216
Mof_C 	C 	0.2659	0.98481	0.20355	-0.257
Mof_H 	H 	0.246	0.995	0.2165	0.125
Mof_C 	C 	0.1801	0.97431	0.18982	0.212
Mof_C 	C 	0.2065	0.95948	0.17071	-0.25
Mof_H 	H 	0.1465	0.9526	0.1614	0.131
Mof_C 	C 	0.9649	0.96082	0.18902	0.016
Mof_H 	H 	0.9668	0.9409	0.1812	0.037
Mof_C 	C 	0.8696	0.97619	0.1968	0.008
Mof_H 	H 	0.7914	0.9685	0.1954	0.029
Mof_C 	C 	0.0183	0.00654	0.20579	0.104
Mof_H 	H 	0.0651	0.0236	0.2116	-0.004
Mof_C 	C 	0.4712	0.99374	0.23293	0.008
Mof_H 	H 	0.4115	0.9864	0.2422	0.031
Mof_C 	C 	0.5735	0.00514	0.20441	0.101
Mof_H 	H 	0.5959	0.0068	0.1901	-0.002
Mof_C 	C 	0.5739	0.00824	0.23819	0.008
Mof_H 	H 	0.5987	0.0128	0.2521	0.008
Mof_C 	C 	0.7269	0.07075	0.18161	0.333
Mof_C 	C 	0.6738	0.09861	0.16932	-0.095
Mof_C 	C 	0.6713	0.09835	0.14773	-0.012
Mof_H 	H 	0.7014	0.0798	0.1404	0.054
Mof_Zn	Zn	0.45642	0.20998	0.21855	1.21
Mof_O 	O 	0.1913	0.43316	0.98441	-0.376
Mof_O 	O 	0.0244	0.44367	0.99969	-0.407
Mof_O 	O 	0.9561	0.40362	0.0731	-0.399
Mof_O 	O 	0.0725	0.3652	0.08554	-0.362
Mof_O 	O 	0.5099	0.2068	0.17338	-0.301
Mof_O 	O 	0.4964	0.17251	0.20046	-0.437
Mof_N 	N 	0.8781	0.33698	0.11724	-0.261
Mof_N 	N 	0.8927	0.30721	0.14596	-0.156
Mof_N 	N 	0.19	0.26965	0.1949	-0.154
Mof_N 	N 	0.3469	0.24505	0.20718	-0.258
Mof_N 	N 	0.7787	0.2581	0.21125	-0.154
Mof_N 	N 	0.6127	0.23459	0.22027	-0.252
Mof_C 	C 	0.1258	0.43144	0.99956	0.302
Mof_C 	C 	0.1647	0.4133	0.01938	-0.047
Mof_C 	C 	0.2754	0.39979	0.01966	-0.042
Mof_H 	H 	0.3249	0.4022	0.0078	0.066
Mof_C 	C 	0.3157	0.38246	0.03723	0.015
Mof_C 	C 	0.2427	0.37877	0.05443	-0.039
Mof_H 	H 	0.2693	0.3671	0.0664	0.059
Mof_C 	C 	0.1299	0.39222	0.05403	-0.056
Mof_C 	C 	0.0908	0.40941	0.03659	-0.005
Mof_H 	H 	0.0142	0.4185	0.0364	0.06
Mof_C 	C 	0.0496	0.3866	0.07225	0.296
Mof_C 	C 	0.7972	0.3129	0.11652	0.005
Mof_H 	H 	0.745	0.3092	0.1052	0.023
Mof_C 	C 	0.8008	0.2946	0.13432	0.006
Mof_H 	H 	0.7506	0.2768	0.138	0.035
Mof_C 	C 	0.9347	0.33322	0.13514	0.103
Mof_H 	H 	0.9968	0.347	0.1398	-0.006
Mof_C 	C 	0.926	0.29492	0.1658	0.213
Mof_C 	C 	0.8379	0.2853	0.17937	-0.255
Mof_H 	H 	0.758	0.2891	0.176	0.126
Mof_C 	C 	0.8692	0.26992	0.19797	0.216
Mof_C 	C 	0.9841	0.26519	0.20355	-0.257
Mof_H 	H 	0.004	0.255	0.2165	0.125
Mof_C 	C 	0.0699	0.27569	0.18982	0.212
Mof_C 	C 	0.0435	0.29052	0.17071	-0.25
Mof_H 	H 	0.1035	0.2974	0.1614	0.131
Mof_C 	C 	0.2851	0.28918	0.18902	0.016
Mof_H 	H 	0.2832	0.3091	0.1812	0.037
Mof_C 	C 	0.3804	0.27381	0.1968	0.008
Mof_H 	H 	0.4586	0.2815	0.1954	0.029
Mof_C 	C 	0.2317	0.24346	0.20579	0.104
Mof_H 	H 	0.1849	0.2264	0.2116	-0.004
Mof_C 	C 	0.7788	0.25626	0.23293	0.008
Mof_H 	H 	0.8385	0.2636	0.2422	0.031
Mof_C 	C 	0.6765	0.24486	0.20441	0.101
Mof_H 	H 	0.6541	0.2432	0.1901	-0.002
Mof_C 	C 	0.6761	0.24176	0.23819	0.008
Mof_H 	H 	0.6513	0.2372	0.2521	0.008
Mof_C 	C 	0.5231	0.17925	0.18161	0.333
Mof_C 	C 	0.5762	0.15139	0.16932	-0.095
Mof_C 	C 	0.5787	0.15165	0.14773	-0.012
Mof_H 	H 	0.5486	0.1702	0.1404	0.054
Mof_Zn	Zn	0.45642	0.70998	0.71855	1.21
Mof_O 	O 	0.1913	0.93316	0.48441	-0.376
Mof_O 	O 	0.0244	0.94367	0.49969	-0.407
Mof_O 	O 	0.9561	0.90362	0.5731	-0.399
Mof_O 	O 	0.0725	0.8652	0.58554	-0.362
Mof_O 	O 	0.5099	0.7068	0.67338	-0.301
Mof_O 	O 	0.4964	0.67251	0.70046	-0.437
Mof_N 	N 	0.8781	0.83698	0.61724	-0.261
Mof_N 	N 	0.8927	0.80721	0.64596	-0.156
Mof_N 	N 	0.19	0.76965	0.6949	-0.154
Mof_N 	N 	0.3469	0.74505	0.70718	-0.258
Mof_N 	N 	0.7787	0.7581	0.71125	-0.154
Mof_N 	N 	0.6127	0.73459	0.72027	-0.252
Mof_C 	C 	0.1258	0.93144	0.49956	0.302
Mof_C 	C 	0.1647	0.9133	0.51938	-0.047
Mof_C 	C 	0.2754	0.89979	0.51966	-0.042
Mof_H 	H 	0.3249	0.9022	0.5078	0.066
Mof_C 	C 	0.3157	0.88246	0.53723	0.015
Mof_C 	C 	0.2427	0.87877	0.55443	-0.039
Mof_H 	H 	0.2693	0.8671	0.5664	0.059
Mof_C 	C 	0.1299	0.89222	0.55403	-0.056
Mof_C 	C 	0.0908	0.90941	0.53659	-0.005
Mof_H 	H 	0.0142	0.9185	0.5364	0.06
Mof_C 	C 	0.0496	0.8866	0.57225	0.296
Mof_C 	C 	0.7972	0.8129	0.61652	0.005
Mof_H 	H 	0.745	0.8092	0.6052	0.023
Mof_C 	C 	0.8008	0.7946	0.63432	0.006
Mof_H 	H 	0.7506	0.7768	0.638	0.035
Mof_C 	C 	0.9347	0.83322	0.63514	0.103
Mof_H 	H 	0.9968	0.847	0.6398	-0.006
Mof_C 	C 	0.926	0.79492	0.6658	0.213
Mof_C 	C 	0.8379	0.7853	0.67937	-0.255
Mof_H 	H 	0.758	0.7891	0.676	0.126
Mof_C 	C 	0.8692	0.76992	0.69797	0.216
Mof_C 	C 	0.9841	0.76519	0.70355	-0.257
Mof_H 	H 	0.004	0.755	0.7165	0.125
Mof_C 	C 	0.0699	0.77569	0.68982	0.212
Mof_C 	C 	0.0435	0.79052	0.67071	-0.25
Mof_H 	H 	0.1035	0.7974	0.6614	0.131
Mof_C 	C 	0.2851	0.78918	0.68902	0.016
Mof_H 	H 	0.2832	0.8091	0.6812	0.037
Mof_C 	C 	0.3804	0.77381	0.6968	0.008
Mof_H 	H 	0.4586	0.7815	0.6954	0.029
Mof_C 	C 	0.2317	0.74346	0.70579	0.104
Mof_H 	H 	0.1849	0.7264	0.7116	-0.004
Mof_C 	C 	0.7788	0.75626	0.73293	0.008
Mof_H 	H 	0.8385	0.7636	0.7422	0.031
Mof_C 	C 	0.6765	0.74486	0.70441	0.101
Mof_H 	H 	0.6541	0.7432	0.6901	-0.002
Mof_C 	C 	0.6761	0.74176	0.73819	0.008
Mof_H 	H 	0.6513	0.7372	0.7521	0.008
Mof_C 	C 	0.5231	0.67925	0.68161	0.333
Mof_C 	C 	0.5762	0.65139	0.66932	-0.095
Mof_C 	C 	0.5787	0.65165	0.64773	-0.012
Mof_H 	H 	0.5486	0.6702	0.6404	0.054
Mof_Zn	Zn	0.95642	0.20998	0.71855	1.21
Mof_O 	O 	0.6913	0.43316	0.48441	-0.376
Mof_O 	O 	0.5244	0.44367	0.49969	-0.407
Mof_O 	O 	0.4561	0.40362	0.5731	-0.399
Mof_O 	O 	0.5725	0.3652	0.58554	-0.362
Mof_O 	O 	0.0099	0.2068	0.67338	-0.301
Mof_O 	O 	0.9964	0.17251	0.70046	-0.437
Mof_N 	N 	0.3781	0.33698	0.61724	-0.261
Mof_N 	N 	0.3927	0.30721	0.64596	-0.156
Mof_N 	N 	0.69	0.26965	0.6949	-0.154
Mof_N 	N 	0.8469	0.24505	0.70718	-0.258
Mof_N 	N 	0.2787	0.2581	0.71125	-0.154
Mof_N 	N 	0.1127	0.23459	0.72027	-0.252
Mof_C 	C 	0.6258	0.43144	0.49956	0.302
Mof_C 	C 	0.6647	0.4133	0.51938	-0.047
Mof_C 	C 	0.7754	0.39979	0.51966	-0.042
Mof_H 	H 	0.8249	0.4022	0.5078	0.066
Mof_C 	C 	0.8157	0.38246	0.53723	0.015
Mof_C 	C 	0.7427	0.37877	0.55443	-0.039
Mof_H 	H 	0.7693	0.3671	0.5664	0.059
Mof_C 	C 	0.6299	0.39222	0.55403	-0.055
Mof_C 	C 	0.5908	0.40941	0.53659	-0.005
Mof_H 	H 	0.5142	0.4185	0.5364	0.06
Mof_C 	C 	0.5496	0.3866	0.57225	0.296
Mof_C 	C 	0.2972	0.3129	0.61652	0.005
Mof_H 	H 	0.245	0.3092	0.6052	0.023
Mof_C 	C 	0.3008	0.2946	0.63432	0.006
Mof_H 	H 	0.2506	0.2768	0.638	0.035
Mof_C 	C 	0.4347	0.33322	0.63514	0.103
Mof_H 	H 	0.4968	0.347	0.6398	-0.006
Mof_C 	C 	0.426	0.29492	0.6658	0.213
Mof_C 	C 	0.3379	0.2853	0.67937	-0.255
Mof_H 	H 	0.258	0.2891	0.676	0.126
Mof_C 	C 	0.3692	0.26992	0.69797	0.216
Mof_C 	C 	0.4841	0.26519	0.70355	-0.257
Mof_H 	H 	0.504	0.255	0.7165	0.125
Mof_C 	C 	0.5699	0.27569	0.68982	0.212
Mof_C 	C 	0.5435	0.29052	0.67071	-0.25
Mof_H 	H 	0.6035	0.2974	0.6614	0.131
Mof_C 	C 	0.7851	0.28918	0.68902	0.016
Mof_H 	H 	0.7832	0.3091	0.6812	0.037
Mof_C 	C 	0.8804	0.27381	0.6968	0.008
Mof_H 	H 	0.9586	0.2815	0.6954	0.029
Mof_C 	C 	0.7317	0.24346	0.70579	0.104
Mof_H 	H 	0.6849	0.2264	0.7116	-0.004
Mof_C 	C 	0.2788	0.25626	0.73293	0.008
Mof_H 	H 	0.3385	0.2636	0.7422	0.031
Mof_C 	C 	0.1765	0.24486	0.70441	0.101
Mof_H 	H 	0.1541	0.2432	0.6901	-0.002
Mof_C 	C 	0.1761	0.24176	0.73819	0.008
Mof_H 	H 	0.1513	0.2372	0.7521	0.008
Mof_C 	C 	0.0231	0.17925	0.68161	0.334
Mof_C 	C 	0.0762	0.15139	0.66932	-0.095
Mof_C 	C 	0.0787	0.15165	0.64773	-0.012
Mof_H 	H 	0.0486	0.1702	0.6404	0.054
Mof_Zn	Zn	0.95642	0.70998	0.21855	1.21
Mof_O 	O 	0.6913	0.93316	0.98441	-0.376
Mof_O 	O 	0.5244	0.94367	0.99969	-0.407
Mof_O 	O 	0.4561	0.90362	0.0731	-0.399
Mof_O 	O 	0.5725	0.8652	0.08554	-0.362
Mof_O 	O 	0.0099	0.7068	0.17338	-0.301
Mof_O 	O 	0.9964	0.67251	0.20046	-0.437
Mof_N 	N 	0.3781	0.83698	0.11724	-0.261
Mof_N 	N 	0.3927	0.80721	0.14596	-0.156
Mof_N 	N 	0.69	0.76965	0.1949	-0.154
Mof_N 	N 	0.8469	0.74505	0.20718	-0.258
Mof_N 	N 	0.2787	0.7581	0.21125	-0.154
Mof_N 	N 	0.1127	0.73459	0.22027	-0.252
Mof_C 	C 	0.6258	0.93144	0.99956	0.302
Mof_C 	C 	0.6647	0.9133	0.01938	-0.047
Mof_C 	C 	0.7754	0.89979	0.01966	-0.042
Mof_H 	H 	0.8249	0.9022	0.0078	0.066
Mof_C 	C 	0.8157	0.88246	0.03723	0.015
Mof_C 	C 	0.7427	0.87877	0.05443	-0.039
Mof_H 	H 	0.7693	0.8671	0.0664	0.059
Mof_C 	C 	0.6299	0.89222	0.05403	-0.055
Mof_C 	C 	0.5908	0.90941	0.03659	-0.005
Mof_H 	H 	0.5142	0.9185	0.0364	0.06
Mof_C 	C 	0.5496	0.8866	0.07225	0.296
Mof_C 	C 	0.2972	0.8129	0.11652	0.005
Mof_H 	H 	0.245	0.8092	0.1052	0.023
Mof_C 	C 	0.3008	0.7946	0.13432	0.006
Mof_H 	H 	0.2506	0.7768	0.138	0.035
Mof_C 	C 	0.4347	0.83322	0.13514	0.103
Mof_H 	H 	0.4968	0.847	0.1398	-0.006
Mof_C 	C 	0.426	0.79492	0.1658	0.213
Mof_C 	C 	0.3379	0.7853	0.17937	-0.255
Mof_H 	H 	0.258	0.7891	0.176	0.126
Mof_C 	C 	0.3692	0.76992	0.19797	0.216
Mof_C 	C 	0.4841	0.76519	0.20355	-0.257
Mof_H 	H 	0.504	0.755	0.2165	0.125
Mof_C 	C 	0.5699	0.77569	0.18982	0.212
Mof_C 	C 	0.5435	0.79052	0.17071	-0.25
Mof_H 	H 	0.6035	0.7974	0.1614	0.131
Mof_C 	C 	0.7851	0.78918	0.18902	0.016
Mof_H 	H 	0.7832	0.8091	0.1812	0.037
Mof_C 	C 	0.8804	0.77381	0.1968	0.008
Mof_H 	H 	0.9586	0.7815	0.1954	0.029
Mof_C 	C 	0.7317	0.74346	0.20579	0.104
Mof_H 	H 	0.6849	0.7264	0.2116	-0.004
Mof_C 	C 	0.2788	0.75626	0.23293	0.008
Mof_H 	H 	0.3385	0.7636	0.2422	0.031
Mof_C 	C 	0.1765	0.74486	0.20441	0.101
Mof_H 	H 	0.1541	0.7432	0.1901	-0.002
Mof_C 	C 	0.1761	0.74176	0.23819	0.008
Mof_H 	H 	0.1513	0.7372	0.2521	0.008
Mof_C 	C 	0.0231	0.67925	0.18161	0.334
Mof_C 	C 	0.0762	0.65139	0.16932	-0.095
Mof_C 	C 	0.0787	0.65165	0.14773	-0.012
Mof_H 	H 	0.0486	0.6702	0.1404	0.054
Mof_Zn	Zn	0.54358	0.45998	0.46855	1.21
Mof_O 	O 	0.8087	0.68316	0.23441	-0.376
Mof_O 	O 	0.9756	0.69367	0.24969	-0.407
Mof_O 	O 	0.0439	0.65362	0.3231	-0.399
Mof_O 	O 	0.9275	0.6152	0.33554	-0.362
Mof_O 	O 	0.4901	0.4568	0.42338	-0.301
Mof_O 	O 	0.5036	0.42251	0.45046	-0.437
Mof_N 	N 	0.1219	0.58698	0.36724	-0.261
Mof_N 	N 	0.1073	0.55721	0.39596	-0.156
Mof_N 	N 	0.81	0.51965	0.4449	-0.154
Mof_N 	N 	0.6531	0.49505	0.45718	-0.258
Mof_N 	N 	0.2213	0.5081	0.46125	-0.154
Mof_N 	N 	0.3873	0.48459	0.47027	-0.252
Mof_C 	C 	0.8742	0.68144	0.24956	0.302
Mof_C 	C 	0.8353	0.6633	0.26938	-0.047
Mof_C 	C 	0.7246	0.64979	0.26966	-0.042
Mof_H 	H 	0.6751	0.6522	0.2578	0.066
Mof_C 	C 	0.6843	0.63246	0.28723	0.015
Mof_C 	C 	0.7573	0.62877	0.30443	-0.039
Mof_H 	H 	0.7307	0.6171	0.3164	0.059
Mof_C 	C 	0.8701	0.64222	0.30403	-0.056
Mof_C 	C 	0.9092	0.65941	0.28659	-0.005
Mof_H 	H 	0.9858	0.6685	0.2864	0.06
Mof_C 	C 	0.9504	0.6366	0.32225	0.296
Mof_C 	C 	0.2028	0.5629	0.36652	0.005
Mof_H 	H 	0.255	0.5592	0.3552	0.023
Mof_C 	C 	0.1992	0.5446	0.38432	0.006
Mof_H 	H 	0.2494	0.5268	0.388	0.035
Mof_C 	C 	0.0653	0.58322	0.38514	0.103
Mof_H 	H 	0.0032	0.597	0.3898	-0.006
Mof_C 	C 	0.074	0.54492	0.4158	0.213
Mof_C 	C 	0.1621	0.5353	0.42937	-0.255
Mof_H 	H 	0.242	0.5391	0.426	0.126
Mof_C 	C 	0.1308	0.51992	0.44797	0.216
Mof_C 	C 	0.0159	0.51519	0.45355	-0.257
Mof_H 	H 	0.996	0.505	0.4665	0.125
Mof_C 	C 	0.9301	0.52569	0.43982	0.212
Mof_C 	C 	0.9565	0.54052	0.42071	-0.25
Mof_H 	H 	0.8965	0.5474	0.4114	0.131
Mof_C 	C 	0.7149	0.53918	0.43902	0.016
Mof_H 	H 	0.7168	0.5591	0.4312	0.037
Mof_C 	C 	0.6196	0.52381	0.4468	0.008
Mof_H 	H 	0.5414	0.5315	0.4454	0.029
Mof_C 	C 	0.7683	0.49346	0.45579	0.104
Mof_H 	H 	0.8151	0.4764	0.4616	-0.004
Mof_C 	C 	0.2212	0.50626	0.48293	0.008
Mof_H 	H 	0.1615	0.5136	0.4922	0.031
Mof_C 	C 	0.3235	0.49486	0.45441	0.101
Mof_H 	H 	0.3459	0.4932	0.4401	-0.002
Mof_C 	C 	0.3239	0.49176	0.48819	0.008
Mof_H 	H 	0.3487	0.4872	0.5021	0.008
Mof_C 	C 	0.4769	0.42925	0.43161	0.333
Mof_C 	C 	0.4238	0.40139	0.41932	-0.095
Mof_C 	C 	0.4213	0.40165	0.39773	-0.012
Mof_H 	H 	0.4514	0.4202	0.3904	0.054
Mof_Zn	Zn	0.54358	0.95998	0.96855	1.21
Mof_O 	O 	0.8087	0.18316	0.73441	-0.376
Mof_O 	O 	0.9756	0.19367	0.74969	-0.407
Mof_O 	O 	0.0439	0.15362	0.8231	-0.399
Mof_O 	O 	0.9275	0.1152	0.83554	-0.362
Mof_O 	O 	0.4901	0.9568	0.92338	-0.301
Mof_O 	O 	0.5036	0.92251	0.95046	-0.437
Mof_N 	N 	0.1219	0.08698	0.86724	-0.261
Mof_N 	N 	0.1073	0.05721	0.89596	-0.156
Mof_N 	N 	0.81	0.01965	0.9449	-0.154
Mof_N 	N 	0.6531	0.99505	0.95718	-0.258
Mof_N 	N 	0.2213	0.0081	0.96125	-0.154
Mof_N 	N 	0.3873	0.98459	0.97027	-0.252
Mof_C 	C 	0.8742	0.18144	0.74956	0.302
Mof_C 	C 	0.8353	0.1633	0.76938	-0.047
Mof_C 	C 	0.7246	0.14979	0.76966	-0.042
Mof_H 	H 	0.6751	0.1522	0.7578	0.066
Mof_C 	C 	0.6843	0.13246	0.78723	0.015
Mof_C 	C 	0.7573	0.12877	0.80443	-0.039
Mof_H 	H 	0.7307	0.1171	0.8164	0.059
Mof_C 	C 	0.8701	0.14222	0.80403	-0.056
Mof_C 	C 	0.9092	0.15941	0.78659	-0.005
Mof_H 	H 	0.9858	0.1685	0.7864	0.06
Mof_C 	C 	0.9504	0.1366	0.82225	0.296
Mof_C 	C 	0.2028	0.0629	0.86652	0.005
Mof_H 	H 	0.255	0.0592	0.8552	0.023
Mof_C 	C 	0.1992	0.0446	0.88432	0.006
Mof_H 	H 	0.2494	0.0268	0.888	0.035
Mof_C 	C 	0.0653	0.08322	0.88514	0.103
Mof_H 	H 	0.0032	0.097	0.8898	-0.006
Mof_C 	C 	0.074	0.04492	0.9158	0.213
Mof_C 	C 	0.1621	0.0353	0.92937	-0.255
Mof_H 	H 	0.242	0.0391	0.926	0.126
Mof_C 	C 	0.1308	0.01992	0.94797	0.216
Mof_C 	C 	0.0159	0.01519	0.95355	-0.257
Mof_H 	H 	0.996	0.005	0.9665	0.125
Mof_C 	C 	0.9301	0.02569	0.93982	0.212
Mof_C 	C 	0.9565	0.04052	0.92071	-0.25
Mof_H 	H 	0.8965	0.0474	0.9114	0.131
Mof_C 	C 	0.7149	0.03918	0.93902	0.016
Mof_H 	H 	0.7168	0.0591	0.9312	0.037
Mof_C 	C 	0.6196	0.02381	0.9468	0.008
Mof_H 	H 	0.5414	0.0315	0.9454	0.029
Mof_C 	C 	0.7683	0.99346	0.95579	0.104
Mof_H 	H 	0.8151	0.9764	0.9616	-0.004
Mof_C 	C 	0.2212	0.00626	0.98293	0.008
Mof_H 	H 	0.1615	0.0136	0.9922	0.031
Mof_C 	C 	0.3235	0.99486	0.95441	0.101
Mof_H 	H 	0.3459	0.9932	0.9401	-0.002
Mof_C 	C 	0.3239	0.99176	0.98819	0.008
Mof_H 	H 	0.3487	0.9872	0.0021	0.008
Mof_C 	C 	0.4769	0.92925	0.93161	0.333
Mof_C 	C 	0.4238	0.90139	0.91932	-0.095
Mof_C 	C 	0.4213	0.90165	0.89773	-0.012
Mof_H 	H 	0.4514	0.9202	0.8904	0.054
Mof_Zn	Zn	0.04358	0.45998	0.96855	1.21
Mof_O 	O 	0.3087	0.68316	0.73441	-0.376
Mof_O 	O 	0.4756	0.69367	0.74969	-0.407
Mof_O 	O 	0.5439	0.65362	0.8231	-0.399
Mof_O 	O 	0.4275	0.6152	0.83554	-0.362
Mof_O 	O 	0.9901	0.4568	0.92338	-0.301
Mof_O 	O 	0.0036	0.42251	0.95046	-0.437
Mof_N 	N 	0.6219	0.58698	0.86724	-0.261
Mof_N 	N 	0.6073	0.55721	0.89596	-0.156
Mof_N 	N 	0.31	0.51965	0.9449	-0.154
Mof_N 	N 	0.1531	0.49505	0.95718	-0.258
Mof_N 	N 	0.7213	0.5081	0.96125	-0.154
Mof_N 	N 	0.8873	0.48459	0.97027	-0.252
Mof_C 	C 	0.3742	0.68144	0.74956	0.302
Mof_C 	C 	0.3353	0.6633	0.76938	-0.047
Mof_C 	C 	0.2246	0.64979	0.76966	-0.042
Mof_H 	H 	0.1751	0.6522	0.7578	0.066
Mof_C 	C 	0.1843	0.63246	0.78723	0.015
Mof_C 	C 	0.2573	0.62877	0.80443	-0.039
Mof_H 	H 	0.2307	0.6171	0.8164	0.059
Mof_C 	C 	0.3701	0.64222	0.80403	-0.055
Mof_C 	C 	0.4092	0.65941	0.78659	-0.005
Mof_H 	H 	0.4858	0.6685	0.7864	0.06
Mof_C 	C 	0.4504	0.6366	0.82225	0.296
Mof_C 	C 	0.7028	0.5629	0.86652	0.005
Mof_H 	H 	0.755	0.5592	0.8552	0.023
Mof_C 	C 	0.6992	0.5446	0.88432	0.006
Mof_H 	H 	0.7494	0.5268	0.888	0.035
Mof_C 	C 	0.5653	0.58322	0.88514	0.103
Mof_H 	H 	0.5032	0.597	0.8898	-0.006
Mof_C 	C 	0.574	0.54492	0.9158	0.213
Mof_C 	C 	0.6621	0.5353	0.92937	-0.255
Mof_H 	H 	0.742	0.5391	0.926	0.126
Mof_C 	C 	0.6308	0.51992	0.94797	0.216
Mof_C 	C 	0.5159	0.51519	0.95355	-0.257
Mof_H 	H 	0.496	0.505	0.9665	0.125
Mof_C 	C 	0.4301	0.52569	0.93982	0.212
Mof_C 	C 	0.4565	0.54052	0.92071	-0.25
Mof_H 	H 	0.3965	0.5474	0.9114	0.131
Mof_C 	C 	0.2149	0.53918	0.93902	0.016
Mof_H 	H 	0.2168	0.5591	0.9312	0.037
Mof_C 	C 	0.1196	0.52381	0.9468	0.008
Mof_H 	H 	0.0414	0.5315	0.9454	0.029
Mof_C 	C 	0.2683	0.49346	0.95579	0.104
Mof_H 	H 	0.3151	0.4764	0.9616	-0.004
Mof_C 	C 	0.7212	0.50626	0.98293	0.008
Mof_H 	H 	0.6615	0.5136	0.9922	0.031
Mof_C 	C 	0.8235	0.49486	0.95441	0.101
Mof_H 	H 	0.8459	0.4932	0.9401	-0.002
Mof_C 	C 	0.8239	0.49176	0.98819	0.008
Mof_H 	H 	0.8487	0.4872	0.0021	0.008
Mof_C 	C 	0.9769	0.42925	0.93161	0.334
Mof_C 	C 	0.9238	0.40139	0.91932	-0.095
Mof_C 	C 	0.9213	0.40165	0.89773	-0.012
Mof_H 	H 	0.9514	0.4202	0.8904	0.054
Mof_Zn	Zn	0.04358	0.95998	0.46855	1.21
Mof_O 	O 	0.3087	0.18316	0.23441	-0.376
Mof_O 	O 	0.4756	0.19367	0.24969	-0.407
Mof_O 	O 	0.5439	0.15362	0.3231	-0.399
Mof_O 	O 	0.4275	0.1152	0.33554	-0.362
Mof_O 	O 	0.9901	0.9568	0.42338	-0.301
Mof_O 	O 	0.0036	0.92251	0.45046	-0.437
Mof_N 	N 	0.6219	0.08698	0.36724	-0.261
Mof_N 	N 	0.6073	0.05721	0.39596	-0.156
Mof_N 	N 	0.31	0.01965	0.4449	-0.154
Mof_N 	N 	0.1531	0.99505	0.45718	-0.258
Mof_N 	N 	0.7213	0.0081	0.46125	-0.154
Mof_N 	N 	0.8873	0.98459	0.47027	-0.252
Mof_C 	C 	0.3742	0.18144	0.24956	0.302
Mof_C 	C 	0.3353	0.1633	0.26938	-0.047
Mof_C 	C 	0.2246	0.14979	0.26966	-0.042
Mof_H 	H 	0.1751	0.1522	0.2578	0.066
Mof_C 	C 	0.1843	0.13246	0.28723	0.015
Mof_C 	C 	0.2573	0.12877	0.30443	-0.039
Mof_H 	H 	0.2307	0.1171	0.3164	0.059
Mof_C 	C 	0.3701	0.14222	0.30403	-0.055
Mof_C 	C 	0.4092	0.15941	0.28659	-0.005
Mof_H 	H 	0.4858	0.1685	0.2864	0.06
Mof_C 	C 	0.4504	0.1366	0.32225	0.296
Mof_C 	C 	0.7028	0.0629	0.36652	0.005
Mof_H 	H 	0.755	0.0592	0.3552	0.023
Mof_C 	C 	0.6992	0.0446	0.38432	0.006
Mof_H 	H 	0.7494	0.0268	0.388	0.035
Mof_C 	C 	0.5653	0.08322	0.38514	0.103
Mof_H 	H 	0.5032	0.097	0.3898	-0.006
Mof_C 	C 	0.574	0.04492	0.4158	0.213
Mof_C 	C 	0.6621	0.0353	0.42937	-0.255
Mof_H 	H 	0.742	0.0391	0.426	0.126
Mof_C 	C 	0.6308	0.01992	0.44797	0.216
Mof_C 	C 	0.5159	0.01519	0.45355	-0.257
Mof_H 	H 	0.496	0.005	0.4665	0.125
Mof_C 	C 	0.4301	0.02569	0.43982	0.212
Mof_C 	C 	0.4565	0.04052	0.42071	-0.25
Mof_H 	H 	0.3965	0.0474	0.4114	0.131
Mof_C 	C 	0.2149	0.03918	0.43902	0.016
Mof_H 	H 	0.2168	0.0591	0.4312	0.037
Mof_C 	C 	0.1196	0.02381	0.4468	0.008
Mof_H 	H 	0.0414	0.0315	0.4454	0.029
Mof_C 	C 	0.2683	0.99346	0.45579	0.104
Mof_H 	H 	0.3151	0.9764	0.4616	-0.004
Mof_C 	C 	0.7212	0.00626	0.48293	0.008
Mof_H 	H 	0.6615	0.0136	0.4922	0.031
Mof_C 	C 	0.8235	0.99486	0.45441	0.101
Mof_H 	H 	0.8459	0.9932	0.4401	-0.002
Mof_C 	C 	0.8239	0.99176	0.48819	0.008
Mof_H 	H 	0.8487	0.9872	0.5021	0.008
Mof_C 	C 	0.9769	0.92925	0.43161	0.334
Mof_C 	C 	0.9238	0.90139	0.41932	-0.095
Mof_C 	C 	0.9213	0.90165	0.39773	-0.012
Mof_H 	H 	0.9514	0.9202	0.3904	0.054
Mof_Zn	Zn	0.70642	0.79002	0.46855	1.21
Mof_O 	O 	0.4413	0.56684	0.23441	-0.376
Mof_O 	O 	0.2744	0.55633	0.24969	-0.407
Mof_O 	O 	0.2061	0.59638	0.3231	-0.399
Mof_O 	O 	0.3225	0.6348	0.33554	-0.362
Mof_O 	O 	0.7599	0.7932	0.42338	-0.301
Mof_O 	O 	0.7464	0.82749	0.45046	-0.437
Mof_N 	N 	0.1281	0.66302	0.36724	-0.261
Mof_N 	N 	0.1427	0.69279	0.39596	-0.156
Mof_N 	N 	0.44	0.73035	0.4449	-0.154
Mof_N 	N 	0.5969	0.75495	0.45718	-0.258
Mof_N 	N 	0.0287	0.7419	0.46125	-0.154
Mof_N 	N 	0.8627	0.76541	0.47027	-0.252
Mof_C 	C 	0.3758	0.56856	0.24956	0.302
Mof_C 	C 	0.4147	0.5867	0.26938	-0.047
Mof_C 	C 	0.5254	0.60021	0.26966	-0.042
Mof_H 	H 	0.5749	0.5978	0.2578	0.066
Mof_C 	C 	0.5657	0.61754	0.28723	0.015
Mof_C 	C 	0.4927	0.62123	0.30443	-0.039
Mof_H 	H 	0.5193	0.6329	0.3164	0.059
Mof_C 	C 	0.3799	0.60778	0.30403	-0.056
Mof_C 	C 	0.3408	0.59059	0.28659	-0.005
Mof_H 	H 	0.2642	0.5815	0.2864	0.06
Mof_C 	C 	0.2996	0.6134	0.32225	0.296
Mof_C 	C 	0.0472	0.6871	0.36652	0.005
Mof_H 	H 	0.995	0.6908	0.3552	0.023
Mof_C 	C 	0.0508	0.7054	0.38432	0.006
Mof_H 	H 	0.0006	0.7232	0.388	0.035
Mof_C 	C 	0.1847	0.66678	0.38514	0.103
Mof_H 	H 	0.2468	0.653	0.3898	-0.006
Mof_C 	C 	0.176	0.70508	0.4158	0.213
Mof_C 	C 	0.0879	0.7147	0.42937	-0.255
Mof_H 	H 	0.008	0.7109	0.426	0.126
Mof_C 	C 	0.1192	0.73008	0.44797	0.216
Mof_C 	C 	0.2341	0.73481	0.45355	-0.257
Mof_H 	H 	0.254	0.745	0.4665	0.125
Mof_C 	C 	0.3199	0.72431	0.43982	0.212
Mof_C 	C 	0.2935	0.70948	0.42071	-0.25
Mof_H 	H 	0.3535	0.7026	0.4114	0.131
Mof_C 	C 	0.5351	0.71082	0.43902	0.016
Mof_H 	H 	0.5332	0.6909	0.4312	0.037
Mof_C 	C 	0.6304	0.72619	0.4468	0.008
Mof_H 	H 	0.7086	0.7185	0.4454	0.029
Mof_C 	C 	0.4817	0.75654	0.45579	0.104
Mof_H 	H 	0.4349	0.7736	0.4616	-0.004
Mof_C 	C 	0.0288	0.74374	0.48293	0.008
Mof_H 	H 	0.0885	0.7364	0.4922	0.032
Mof_C 	C 	0.9265	0.75514	0.45441	0.102
Mof_H 	H 	0.9041	0.7568	0.4401	-0.002
Mof_C 	C 	0.9261	0.75824	0.48819	0.008
Mof_H 	H 	0.9013	0.7628	0.5021	0.008
Mof_C 	C 	0.7731	0.82075	0.43161	0.333
Mof_C 	C 	0.8262	0.84861	0.41932	-0.094
Mof_C 	C 	0.8287	0.84835	0.39773	-0.012
Mof_H 	H 	0.7986	0.8298	0.3904	0.054
Mof_Zn	Zn	0.70642	0.29002	0.96855	1.21
Mof_O 	O 	0.4413	0.06684	0.73441	-0.376
Mof_O 	O 	0.2744	0.05633	0.74969	-0.407
Mof_O 	O 	0.2061	0.09638	0.8231	-0.399
Mof_O 	O 	0.3225	0.1348	0.83554	-0.362
Mof_O 	O 	0.7599	0.2932	0.92338	-0.301
Mof_O 	O 	0.7464	0.32749	0.95046	-0.437
Mof_N 	N 	0.1281	0.16302	0.86724	-0.261
Mof_N 	N 	0.1427	0.19279	0.89596	-0.156
Mof_N 	N 	0.44	0.23035	0.9449	-0.154
Mof_N 	N 	0.5969	0.25495	0.95718	-0.258
Mof_N 	N 	0.0287	0.2419	0.96125	-0.154
Mof_N 	N 	0.8627	0.26541	0.97027	-0.252
Mof_C 	C 	0.3758	0.06856	0.74956	0.302
Mof_C 	C 	0.4147	0.0867	0.76938	-0.047
Mof_C 	C 	0.5254	0.10021	0.76966	-0.042
Mof_H 	H 	0.5749	0.0978	0.7578	0.066
Mof_C 	C 	0.5657	0.11754	0.78723	0.015
Mof_C 	C 	0.4927	0.12123	0.80443	-0.039
Mof_H 	H 	0.5193	0.1329	0.8164	0.059
Mof_C 	C 	0.3799	0.10778	0.80403	-0.056
Mof_C 	C 	0.3408	0.09059	0.78659	-0.005
Mof_H 	H 	0.2642	0.0815	0.7864	0.06
Mof_C 	C 	0.2996	0.1134	0.82225	0.296
Mof_C 	C 	0.0472	0.1871	0.86652	0.005
Mof_H 	H 	0.995	0.1908	0.8552	0.023
Mof_C 	C 	0.0508	0.2054	0.88432	0.006
Mof_H 	H 	0.0006	0.2232	0.888	0.035
Mof_C 	C 	0.1847	0.16678	0.88514	0.103
Mof_H 	H 	0.2468	0.153	0.8898	-0.006
Mof_C 	C 	0.176	0.20508	0.9158	0.213
Mof_C 	C 	0.0879	0.2147	0.92937	-0.255
Mof_H 	H 	0.008	0.2109	0.926	0.126
Mof_C 	C 	0.1192	0.23008	0.94797	0.216
Mof_C 	C 	0.2341	0.23481	0.95355	-0.257
Mof_H 	H 	0.254	0.245	0.9665	0.125
Mof_C 	C 	0.3199	0.22431	0.93982	0.212
Mof_C 	C 	0.2935	0.20948	0.92071	-0.25
Mof_H 	H 	0.3535	0.2026	0.9114	0.131
Mof_C 	C 	0.5351	0.21082	0.93902	0.016
Mof_H 	H 	0.5332	0.1909	0.9312	0.037
Mof_C 	C 	0.6304	0.22619	0.9468	0.008
Mof_H 	H 	0.7086	0.2185	0.9454	0.029
Mof_C 	C 	0.4817	0.25654	0.95579	0.104
Mof_H 	H 	0.4349	0.2736	0.9616	-0.004
Mof_C 	C 	0.0288	0.24374	0.98293	0.008
Mof_H 	H 	0.0885	0.2364	0.9922	0.032
Mof_C 	C 	0.9265	0.25514	0.95441	0.102
Mof_H 	H 	0.9041	0.2568	0.9401	-0.002
Mof_C 	C 	0.9261	0.25824	0.98819	0.008
Mof_H 	H 	0.9013	0.2628	0.0021	0.008
Mof_C 	C 	0.7731	0.32075	0.93161	0.333
Mof_C 	C 	0.8262	0.34861	0.91932	-0.094
Mof_C 	C 	0.8287	0.34835	0.89773	-0.012
Mof_H 	H 	0.7986	0.3298	0.8904	0.054
Mof_Zn	Zn	0.20642	0.79002	0.96855	1.21
Mof_O 	O 	0.9413	0.56684	0.73441	-0.376
Mof_O 	O 	0.7744	0.55633	0.74969	-0.407
Mof_O 	O 	0.7061	0.59638	0.8231	-0.399
Mof_O 	O 	0.8225	0.6348	0.83554	-0.362
Mof_O 	O 	0.2599	0.7932	0.92338	-0.301
Mof_O 	O 	0.2464	0.82749	0.95046	-0.437
Mof_N 	N 	0.6281	0.66302	0.86724	-0.261
Mof_N 	N 	0.6427	0.69279	0.89596	-0.156
Mof_N 	N 	0.94	0.73035	0.9449	-0.154
Mof_N 	N 	0.0969	0.75495	0.95718	-0.258
Mof_N 	N 	0.5287	0.7419	0.96125	-0.154
Mof_N 	N 	0.3627	0.76541	0.97027	-0.252
Mof_C 	C 	0.8758	0.56856	0.74956	0.302
Mof_C 	C 	0.9147	0.5867	0.76938	-0.047
Mof_C 	C 	0.0254	0.60021	0.76966	-0.042
Mof_H 	H 	0.0749	0.5978	0.7578	0.066
Mof_C 	C 	0.0657	0.61754	0.78723	0.014
Mof_C 	C 	0.9927	0.62123	0.80443	-0.038
Mof_H 	H 	0.0193	0.6329	0.8164	0.058
Mof_C 	C 	0.8799	0.60778	0.80403	-0.056
Mof_C 	C 	0.8408	0.59059	0.78659	-0.005
Mof_H 	H 	0.7642	0.5815	0.7864	0.06
Mof_C 	C 	0.7996	0.6134	0.82225	0.296
Mof_C 	C 	0.5472	0.6871	0.86652	0.005
Mof_H 	H 	0.495	0.6908	0.8552	0.023
Mof_C 	C 	0.5508	0.7054	0.88432	0.006
Mof_H 	H 	0.5006	0.7232	0.888	0.035
Mof_C 	C 	0.6847	0.66678	0.88514	0.103
Mof_H 	H 	0.7468	0.653	0.8898	-0.006
Mof_C 	C 	0.676	0.70508	0.9158	0.213
Mof_C 	C 	0.5879	0.7147	0.92937	-0.255
Mof_H 	H 	0.508	0.7109	0.926	0.126
Mof_C 	C 	0.6192	0.73008	0.94797	0.216
Mof_C 	C 	0.7341	0.73481	0.95355	-0.257
Mof_H 	H 	0.754	0.745	0.9665	0.125
Mof_C 	C 	0.8199	0.72431	0.93982	0.212
Mof_C 	C 	0.7935	0.70948	0.92071	-0.25
Mof_H 	H 	0.8535	0.7026	0.9114	0.131
Mof_C 	C 	0.0351	0.71082	0.93902	0.016
Mof_H 	H 	0.0332	0.6909	0.9312	0.037
Mof_C 	C 	0.1304	0.72619	0.9468	0.008
Mof_H 	H 	0.2086	0.7185	0.9454	0.029
Mof_C 	C 	0.9817	0.75654	0.95579	0.104
Mof_H 	H 	0.9349	0.7736	0.9616	-0.004
Mof_C 	C 	0.5288	0.74374	0.98293	0.008
Mof_H 	H 	0.5885	0.7364	0.9922	0.031
Mof_C 	C 	0.4265	0.75514	0.95441	0.101
Mof_H 	H 	0.4041	0.7568	0.9401	-0.002
Mof_C 	C 	0.4261	0.75824	0.98819	0.008
Mof_H 	H 	0.4013	0.7628	0.0021	0.008
Mof_C 	C 	0.2731	0.82075	0.93161	0.333
Mof_C 	C 	0.3262	0.84861	0.91932	-0.095
Mof_C 	C 	0.3287	0.84835	0.89773	-0.012
Mof_H 	H 	0.2986	0.8298	0.8904	0.054
Mof_Zn	Zn	0.20642	0.29002	0.46855	1.21
Mof_O 	O 	0.9413	0.06684	0.23441	-0.376
Mof_O 	O 	0.7744	0.05633	0.24969	-0.407
Mof_O 	O 	0.7061	0.09638	0.3231	-0.399
Mof_O 	O 	0.8225	0.1348	0.33554	-0.362
Mof_O 	O 	0.2599	0.2932	0.42338	-0.301
Mof_O 	O 	0.2464	0.32749	0.45046	-0.437
Mof_N 	N 	0.6281	0.16302	0.36724	-0.261
Mof_N 	N 	0.6427	0.19279	0.39596	-0.156
Mof_N 	N 	0.94	0.23035	0.4449	-0.154
Mof_N 	N 	0.0969	0.25495	0.45718	-0.258
Mof_N 	N 	0.5287	0.2419	0.46125	-0.154
Mof_N 	N 	0.3627	0.26541	0.47027	-0.252
Mof_C 	C 	0.8758	0.06856	0.24956	0.302
Mof_C 	C 	0.9147	0.0867	0.26938	-0.047
Mof_C 	C 	0.0254	0.10021	0.26966	-0.042
Mof_H 	H 	0.0749	0.0978	0.2578	0.066
Mof_C 	C 	0.0657	0.11754	0.28723	0.014
Mof_C 	C 	0.9927	0.12123	0.30443	-0.038
Mof_H 	H 	0.0193	0.1329	0.3164	0.058
Mof_C 	C 	0.8799	0.10778	0.30403	-0.056
Mof_C 	C 	0.8408	0.09059	0.28659	-0.005
Mof_H 	H 	0.7642	0.0815	0.2864	0.06
Mof_C 	C 	0.7996	0.1134	0.32225	0.296
Mof_C 	C 	0.5472	0.1871	0.36652	0.005
Mof_H 	H 	0.495	0.1908	0.3552	0.023
Mof_C 	C 	0.5508	0.2054	0.38432	0.006
Mof_H 	H 	0.5006	0.2232	0.388	0.035
Mof_C 	C 	0.6847	0.16678	0.38514	0.103
Mof_H 	H 	0.7468	0.153	0.3898	-0.006
Mof_C 	C 	0.676	0.20508	0.4158	0.213
Mof_C 	C 	0.5879	0.2147	0.42937	-0.255
Mof_H 	H 	0.508	0.2109	0.426	0.126
Mof_C 	C 	0.6192	0.23008	0.44797	0.216
Mof_C 	C 	0.7341	0.23481	0.45355	-0.257
Mof_H 	H 	0.754	0.245	0.4665	0.125
Mof_C 	C 	0.8199	0.22431	0.43982	0.212
Mof_C 	C 	0.7935	0.20948	0.42071	-0.25
Mof_H 	H 	0.8535	0.2026	0.4114	0.131
Mof_C 	C 	0.0351	0.21082	0.43902	0.016
Mof_H 	H 	0.0332	0.1909	0.4312	0.037
Mof_C 	C 	0.1304	0.22619	0.4468	0.008
Mof_H 	H 	0.2086	0.2185	0.4454	0.029
Mof_C 	C 	0.9817	0.25654	0.45579	0.104
Mof_H 	H 	0.9349	0.2736	0.4616	-0.004
Mof_C 	C 	0.5288	0.24374	0.48293	0.008
Mof_H 	H 	0.5885	0.2364	0.4922	0.031
Mof_C 	C 	0.4265	0.25514	0.45441	0.101
Mof_H 	H 	0.4041	0.2568	0.4401	-0.002
Mof_C 	C 	0.4261	0.25824	0.48819	0.008
Mof_H 	H 	0.4013	0.2628	0.5021	0.008
Mof_C 	C 	0.2731	0.32075	0.43161	0.333
Mof_C 	C 	0.3262	0.34861	0.41932	-0.095
Mof_C 	C 	0.3287	0.34835	0.39773	-0.012
Mof_H 	H 	0.2986	0.3298	0.3904	0.054
Mof_Zn	Zn	0.70642	0.45998	0.78145	1.21
Mof_O 	O 	0.4413	0.68316	0.01559	-0.376
Mof_O 	O 	0.2744	0.69367	0.00031	-0.407
Mof_O 	O 	0.2061	0.65362	0.9269	-0.399
Mof_O 	O 	0.3225	0.6152	0.91446	-0.362
Mof_O 	O 	0.7599	0.4568	0.82662	-0.301
Mof_O 	O 	0.7464	0.42251	0.79954	-0.437
Mof_N 	N 	0.1281	0.58698	0.88276	-0.261
Mof_N 	N 	0.1427	0.55721	0.85404	-0.156
Mof_N 	N 	0.44	0.51965	0.8051	-0.154
Mof_N 	N 	0.5969	0.49505	0.79282	-0.258
Mof_N 	N 	0.0287	0.5081	0.78875	-0.154
Mof_N 	N 	0.8627	0.48459	0.77973	-0.252
Mof_C 	C 	0.3758	0.68144	0.00044	0.302
Mof_C 	C 	0.4147	0.6633	0.98062	-0.047
Mof_C 	C 	0.5254	0.64979	0.98034	-0.042
Mof_H 	H 	0.5749	0.6522	0.9922	0.066
Mof_C 	C 	0.5657	0.63246	0.96277	0.015
Mof_C 	C 	0.4927	0.62877	0.94557	-0.039
Mof_H 	H 	0.5193	0.6171	0.9336	0.059
Mof_C 	C 	0.3799	0.64222	0.94597	-0.056
Mof_C 	C 	0.3408	0.65941	0.96341	-0.005
Mof_H 	H 	0.2642	0.6685	0.9636	0.06
Mof_C 	C 	0.2996	0.6366	0.92775	0.296
Mof_C 	C 	0.0472	0.5629	0.88348	0.005
Mof_H 	H 	0.995	0.5592	0.8948	0.023
Mof_C 	C 	0.0508	0.5446	0.86568	0.006
Mof_H 	H 	0.0006	0.5268	0.862	0.035
Mof_C 	C 	0.1847	0.58322	0.86486	0.103
Mof_H 	H 	0.2468	0.597	0.8602	-0.006
Mof_C 	C 	0.176	0.54492	0.8342	0.213
Mof_C 	C 	0.0879	0.5353	0.82063	-0.255
Mof_H 	H 	0.008	0.5391	0.824	0.126
Mof_C 	C 	0.1192	0.51992	0.80203	0.216
Mof_C 	C 	0.2341	0.51519	0.79645	-0.257
Mof_H 	H 	0.254	0.505	0.7835	0.125
Mof_C 	C 	0.3199	0.52569	0.81018	0.212
Mof_C 	C 	0.2935	0.54052	0.82929	-0.25
Mof_H 	H 	0.3535	0.5474	0.8386	0.131
Mof_C 	C 	0.5351	0.53918	0.81098	0.016
Mof_H 	H 	0.5332	0.5591	0.8188	0.037
Mof_C 	C 	0.6304	0.52381	0.8032	0.008
Mof_H 	H 	0.7086	0.5315	0.8046	0.029
Mof_C 	C 	0.4817	0.49346	0.79421	0.104
Mof_H 	H 	0.4349	0.4764	0.7884	-0.004
Mof_C 	C 	0.0288	0.50626	0.76707	0.008
Mof_H 	H 	0.0885	0.5136	0.7578	0.032
Mof_C 	C 	0.9265	0.49486	0.79559	0.102
Mof_H 	H 	0.9041	0.4932	0.8099	-0.002
Mof_C 	C 	0.9261	0.49176	0.76181	0.008
Mof_H 	H 	0.9013	0.4872	0.7479	0.008
Mof_C 	C 	0.7731	0.42925	0.81839	0.333
Mof_C 	C 	0.8262	0.40139	0.83068	-0.094
Mof_C 	C 	0.8287	0.40165	0.85227	-0.012
Mof_H 	H 	0.7986	0.4202	0.8596	0.054
Mof_Zn	Zn	0.70642	0.95998	0.28145	1.21
Mof_O 	O 	0.4413	0.18316	0.51559	-0.376
Mof_O 	O 	0.2744	0.19367	0.50031	-0.407
Mof_O 	O 	0.2061	0.15362	0.4269	-0.399
Mof_O 	O 	0.3225	0.1152	0.41446	-0.362
Mof_O 	O 	0.7599	0.9568	0.32662	-0.301
Mof_O 	O 	0.7464	0.92251	0.29954	-0.437
Mof_N 	N 	0.1281	0.08698	0.38276	-0.261
Mof_N 	N 	0.1427	0.05721	0.35404	-0.156
Mof_N 	N 	0.44	0.01965	0.3051	-0.154
Mof_N 	N 	0.5969	0.99505	0.29282	-0.258
Mof_N 	N 	0.0287	0.0081	0.28875	-0.154
Mof_N 	N 	0.8627	0.98459	0.27973	-0.252
Mof_C 	C 	0.3758	0.18144	0.50044	0.302
Mof_C 	C 	0.4147	0.1633	0.48062	-0.047
Mof_C 	C 	0.5254	0.14979	0.48034	-0.042
Mof_H 	H 	0.5749	0.1522	0.4922	0.066
Mof_C 	C 	0.5657	0.13246	0.46277	0.015
Mof_C 	C 	0.4927	0.12877	0.44557	-0.039
Mof_H 	H 	0.5193	0.1171	0.4336	0.059
Mof_C 	C 	0.3799	0.14222	0.44597	-0.056
Mof_C 	C 	0.3408	0.15941	0.46341	-0.005
Mof_H 	H 	0.2642	0.1685	0.4636	0.06
Mof_C 	C 	0.2996	0.1366	0.42775	0.296
Mof_C 	C 	0.0472	0.0629	0.38348	0.005
Mof_H 	H 	0.995	0.0592	0.3948	0.023
Mof_C 	C 	0.0508	0.0446	0.36568	0.006
Mof_H 	H 	0.0006	0.0268	0.362	0.035
Mof_C 	C 	0.1847	0.08322	0.36486	0.103
Mof_H 	H 	0.2468	0.097	0.3602	-0.006
Mof_C 	C 	0.176	0.04492	0.3342	0.213
Mof_C 	C 	0.0879	0.0353	0.32063	-0.255
Mof_H 	H 	0.008	0.0391	0.324	0.126
Mof_C 	C 	0.1192	0.01992	0.30203	0.216
Mof_C 	C 	0.2341	0.01519	0.29645	-0.257
Mof_H 	H 	0.254	0.005	0.2835	0.125
Mof_C 	C 	0.3199	0.02569	0.31018	0.212
Mof_C 	C 	0.2935	0.04052	0.32929	-0.25
Mof_H 	H 	0.3535	0.0474	0.3386	0.131
Mof_C 	C 	0.5351	0.03918	0.31098	0.016
Mof_H 	H 	0.5332	0.0591	0.3188	0.037
Mof_C 	C 	0.6304	0.02381	0.3032	0.008
Mof_H 	H 	0.7086	0.0315	0.3046	0.029
Mof_C 	C 	0.4817	0.99346	0.29421	0.104
Mof_H 	H 	0.4349	0.9764	0.2884	-0.004
Mof_C 	C 	0.0288	0.00626	0.26707	0.008
Mof_H 	H 	0.0885	0.0136	0.2578	0.032
Mof_C 	C 	0.9265	0.99486	0.29559	0.102
Mof_H 	H 	0.9041	0.9932	0.3099	-0.002
Mof_C 	C 	0.9261	0.99176	0.26181	0.008
Mof_H 	H 	0.9013	0.9872	0.2479	0.008
Mof_C 	C 	0.7731	0.92925	0.31839	0.333
Mof_C 	C 	0.8262	0.90139	0.33068	-0.094
Mof_C 	C 	0.8287	0.90165	0.35227	-0.012
Mof_H 	H 	0.7986	0.9202	0.3596	0.054
Mof_Zn	Zn	0.20642	0.45998	0.28145	1.21
Mof_O 	O 	0.9413	0.68316	0.51559	-0.376
Mof_O 	O 	0.7744	0.69367	0.50031	-0.407
Mof_O 	O 	0.7061	0.65362	0.4269	-0.399
Mof_O 	O 	0.8225	0.6152	0.41446	-0.362
Mof_O 	O 	0.2599	0.4568	0.32662	-0.301
Mof_O 	O 	0.2464	0.42251	0.29954	-0.437
Mof_N 	N 	0.6281	0.58698	0.38276	-0.261
Mof_N 	N 	0.6427	0.55721	0.35404	-0.156
Mof_N 	N 	0.94	0.51965	0.3051	-0.154
Mof_N 	N 	0.0969	0.49505	0.29282	-0.258
Mof_N 	N 	0.5287	0.5081	0.28875	-0.154
Mof_N 	N 	0.3627	0.48459	0.27973	-0.252
Mof_C 	C 	0.8758	0.68144	0.50044	0.302
Mof_C 	C 	0.9147	0.6633	0.48062	-0.047
Mof_C 	C 	0.0254	0.64979	0.48034	-0.042
Mof_H 	H 	0.0749	0.6522	0.4922	0.066
Mof_C 	C 	0.0657	0.63246	0.46277	0.014
Mof_C 	C 	0.9927	0.62877	0.44557	-0.038
Mof_H 	H 	0.0193	0.6171	0.4336	0.058
Mof_C 	C 	0.8799	0.64222	0.44597	-0.056
Mof_C 	C 	0.8408	0.65941	0.46341	-0.005
Mof_H 	H 	0.7642	0.6685	0.4636	0.06
Mof_C 	C 	0.7996	0.6366	0.42775	0.296
Mof_C 	C 	0.5472	0.5629	0.38348	0.005
Mof_H 	H 	0.495	0.5592	0.3948	0.023
Mof_C 	C 	0.5508	0.5446	0.36568	0.006
Mof_H 	H 	0.5006	0.5268	0.362	0.035
Mof_C 	C 	0.6847	0.58322	0.36486	0.103
Mof_H 	H 	0.7468	0.597	0.3602	-0.006
Mof_C 	C 	0.676	0.54492	0.3342	0.213
Mof_C 	C 	0.5879	0.5353	0.32063	-0.255
Mof_H 	H 	0.508	0.5391	0.324	0.126
Mof_C 	C 	0.6192	0.51992	0.30203	0.216
Mof_C 	C 	0.7341	0.51519	0.29645	-0.257
Mof_H 	H 	0.754	0.505	0.2835	0.125
Mof_C 	C 	0.8199	0.52569	0.31018	0.212
Mof_C 	C 	0.7935	0.54052	0.32929	-0.25
Mof_H 	H 	0.8535	0.5474	0.3386	0.131
Mof_C 	C 	0.0351	0.53918	0.31098	0.016
Mof_H 	H 	0.0332	0.5591	0.3188	0.037
Mof_C 	C 	0.1304	0.52381	0.3032	0.008
Mof_H 	H 	0.2086	0.5315	0.3046	0.029
Mof_C 	C 	0.9817	0.49346	0.29421	0.104
Mof_H 	H 	0.9349	0.4764	0.2884	-0.004
Mof_C 	C 	0.5288	0.50626	0.26707	0.008
Mof_H 	H 	0.5885	0.5136	0.2578	0.031
Mof_C 	C 	0.4265	0.49486	0.29559	0.101
Mof_H 	H 	0.4041	0.4932	0.3099	-0.002
Mof_C 	C 	0.4261	0.49176	0.26181	0.008
Mof_H 	H 	0.4013	0.4872	0.2479	0.008
Mof_C 	C 	0.2731	0.42925	0.31839	0.333
Mof_C 	C 	0.3262	0.40139	0.33068	-0.095
Mof_C 	C 	0.3287	0.40165	0.35227	-0.012
Mof_H 	H 	0.2986	0.4202	0.3596	0.054
Mof_Zn	Zn	0.20642	0.95998	0.78145	1.21
Mof_O 	O 	0.9413	0.18316	0.01559	-0.376
Mof_O 	O 	0.7744	0.19367	0.00031	-0.407
Mof_O 	O 	0.7061	0.15362	0.9269	-0.399
Mof_O 	O 	0.8225	0.1152	0.91446	-0.362
Mof_O 	O 	0.2599	0.9568	0.82662	-0.301
Mof_O 	O 	0.2464	0.92251	0.79954	-0.437
Mof_N 	N 	0.6281	0.08698	0.88276	-0.261
Mof_N 	N 	0.6427	0.05721	0.85404	-0.156
Mof_N 	N 	0.94	0.01965	0.8051	-0.154
Mof_N 	N 	0.0969	0.99505	0.79282	-0.258
Mof_N 	N 	0.5287	0.0081	0.78875	-0.154
Mof_N 	N 	0.3627	0.98459	0.77973	-0.252
Mof_C 	C 	0.8758	0.18144	0.00044	0.302
Mof_C 	C 	0.9147	0.1633	0.98062	-0.047
Mof_C 	C 	0.0254	0.14979	0.98034	-0.042
Mof_H 	H 	0.0749	0.1522	0.9922	0.066
Mof_C 	C 	0.0657	0.13246	0.96277	0.014
Mof_C 	C 	0.9927	0.12877	0.94557	-0.038
Mof_H 	H 	0.0193	0.1171	0.9336	0.058
Mof_C 	C 	0.8799	0.14222	0.94597	-0.056
Mof_C 	C 	0.8408	0.15941	0.96341	-0.005
Mof_H 	H 	0.7642	0.1685	0.9636	0.06
Mof_C 	C 	0.7996	0.1366	0.92775	0.296
Mof_C 	C 	0.5472	0.0629	0.88348	0.005
Mof_H 	H 	0.495	0.0592	0.8948	0.023
Mof_C 	C 	0.5508	0.0446	0.86568	0.006
Mof_H 	H 	0.5006	0.0268	0.862	0.035
Mof_C 	C 	0.6847	0.08322	0.86486	0.103
Mof_H 	H 	0.7468	0.097	0.8602	-0.006
Mof_C 	C 	0.676	0.04492	0.8342	0.213
Mof_C 	C 	0.5879	0.0353	0.82063	-0.255
Mof_H 	H 	0.508	0.0391	0.824	0.126
Mof_C 	C 	0.6192	0.01992	0.80203	0.216
Mof_C 	C 	0.7341	0.01519	0.79645	-0.257
Mof_H 	H 	0.754	0.005	0.7835	0.125
Mof_C 	C 	0.8199	0.02569	0.81018	0.212
Mof_C 	C 	0.7935	0.04052	0.82929	-0.25
Mof_H 	H 	0.8535	0.0474	0.8386	0.131
Mof_C 	C 	0.0351	0.03918	0.81098	0.016
Mof_H 	H 	0.0332	0.0591	0.8188	0.037
Mof_C 	C 	0.1304	0.02381	0.8032	0.008
Mof_H 	H 	0.2086	0.0315	0.8046	0.029
Mof_C 	C 	0.9817	0.99346	0.79421	0.104
Mof_H 	H 	0.9349	0.9764	0.7884	-0.004
Mof_C 	C 	0.5288	0.00626	0.76707	0.008
Mof_H 	H 	0.5885	0.0136	0.7578	0.031
Mof_C 	C 	0.4265	0.99486	0.79559	0.101
Mof_H 	H 	0.4041	0.9932	0.8099	-0.002
Mof_C 	C 	0.4261	0.99176	0.76181	0.008
Mof_H 	H 	0.4013	0.9872	0.7479	0.008
Mof_C 	C 	0.2731	0.92925	0.81839	0.333
Mof_C 	C 	0.3262	0.90139	0.83068	-0.095
Mof_C 	C 	0.3287	0.90165	0.85227	-0.012
Mof_H 	H 	0.2986	0.9202	0.8596	0.054
Mof_Zn	Zn	0.54358	0.79002	0.78145	1.21
Mof_O 	O 	0.8087	0.56684	0.01559	-0.376
Mof_O 	O 	0.9756	0.55633	0.00031	-0.407
Mof_O 	O 	0.0439	0.59638	0.9269	-0.399
Mof_O 	O 	0.9275	0.6348	0.91446	-0.362
Mof_O 	O 	0.4901	0.7932	0.82662	-0.301
Mof_O 	O 	0.5036	0.82749	0.79954	-0.437
Mof_N 	N 	0.1219	0.66302	0.88276	-0.261
Mof_N 	N 	0.1073	0.69279	0.85404	-0.156
Mof_N 	N 	0.81	0.73035	0.8051	-0.154
Mof_N 	N 	0.6531	0.75495	0.79282	-0.258
Mof_N 	N 	0.2213	0.7419	0.78875	-0.154
Mof_N 	N 	0.3873	0.76541	0.77973	-0.252
Mof_C 	C 	0.8742	0.56856	0.00044	0.302
Mof_C 	C 	0.8353	0.5867	0.98062	-0.047
Mof_C 	C 	0.7246	0.60021	0.98034	-0.042
Mof_H 	H 	0.6751	0.5978	0.9922	0.066
Mof_C 	C 	0.6843	0.61754	0.96277	0.015
Mof_C 	C 	0.7573	0.62123	0.94557	-0.039
Mof_H 	H 	0.7307	0.6329	0.9336	0.059
Mof_C 	C 	0.8701	0.60778	0.94597	-0.056
Mof_C 	C 	0.9092	0.59059	0.96341	-0.005
Mof_H 	H 	0.9858	0.5815	0.9636	0.06
Mof_C 	C 	0.9504	0.6134	0.92775	0.296
Mof_C 	C 	0.2028	0.6871	0.88348	0.005
Mof_H 	H 	0.255	0.6908	0.8948	0.023
Mof_C 	C 	0.1992	0.7054	0.86568	0.006
Mof_H 	H 	0.2494	0.7232	0.862	0.035
Mof_C 	C 	0.0653	0.66678	0.86486	0.103
Mof_H 	H 	0.0032	0.653	0.8602	-0.006
Mof_C 	C 	0.074	0.70508	0.8342	0.213
Mof_C 	C 	0.1621	0.7147	0.82063	-0.255
Mof_H 	H 	0.242	0.7109	0.824	0.126
Mof_C 	C 	0.1308	0.73008	0.80203	0.216
Mof_C 	C 	0.0159	0.73481	0.79645	-0.257
Mof_H 	H 	0.996	0.745	0.7835	0.125
Mof_C 	C 	0.9301	0.72431	0.81018	0.212
Mof_C 	C 	0.9565	0.70948	0.82929	-0.25
Mof_H 	H 	0.8965	0.7026	0.8386	0.131
Mof_C 	C 	0.7149	0.71082	0.81098	0.016
Mof_H 	H 	0.7168	0.6909	0.8188	0.037
Mof_C 	C 	0.6196	0.72619	0.8032	0.008
Mof_H 	H 	0.5414	0.7185	0.8046	0.029
Mof_C 	C 	0.7683	0.75654	0.79421	0.104
Mof_H 	H 	0.8151	0.7736	0.7884	-0.004
Mof_C 	C 	0.2212	0.74374	0.76707	0.008
Mof_H 	H 	0.1615	0.7364	0.7578	0.031
Mof_C 	C 	0.3235	0.75514	0.79559	0.101
Mof_H 	H 	0.3459	0.7568	0.8099	-0.002
Mof_C 	C 	0.3239	0.75824	0.76181	0.008
Mof_H 	H 	0.3487	0.7628	0.7479	0.008
Mof_C 	C 	0.4769	0.82075	0.81839	0.333
Mof_C 	C 	0.4238	0.84861	0.83068	-0.095
Mof_C 	C 	0.4213	0.84835	0.85227	-0.012
Mof_H 	H 	0.4514	0.8298	0.8596	0.054
Mof_Zn	Zn	0.54358	0.29002	0.28145	1.21
Mof_O 	O 	0.8087	0.06684	0.51559	-0.376
Mof_O 	O 	0.9756	0.05633	0.50031	-0.407
Mof_O 	O 	0.0439	0.09638	0.4269	-0.399
Mof_O 	O 	0.9275	0.1348	0.41446	-0.362
Mof_O 	O 	0.4901	0.2932	0.32662	-0.301
Mof_O 	O 	0.5036	0.32749	0.29954	-0.437
Mof_N 	N 	0.1219	0.16302	0.38276	-0.261
Mof_N 	N 	0.1073	0.19279	0.35404	-0.156
Mof_N 	N 	0.81	0.23035	0.3051	-0.154
Mof_N 	N 	0.6531	0.25495	0.29282	-0.258
Mof_N 	N 	0.2213	0.2419	0.28875	-0.154
Mof_N 	N 	0.3873	0.26541	0.27973	-0.252
Mof_C 	C 	0.8742	0.06856	0.50044	0.302
Mof_C 	C 	0.8353	0.0867	0.48062	-0.047
Mof_C 	C 	0.7246	0.10021	0.48034	-0.042
Mof_H 	H 	0.6751	0.0978	0.4922	0.066
Mof_C 	C 	0.6843	0.11754	0.46277	0.015
Mof_C 	C 	0.7573	0.12123	0.44557	-0.039
Mof_H 	H 	0.7307	0.1329	0.4336	0.059
Mof_C 	C 	0.8701	0.10778	0.44597	-0.056
Mof_C 	C 	0.9092	0.09059	0.46341	-0.005
Mof_H 	H 	0.9858	0.0815	0.4636	0.06
Mof_C 	C 	0.9504	0.1134	0.42775	0.296
Mof_C 	C 	0.2028	0.1871	0.38348	0.005
Mof_H 	H 	0.255	0.1908	0.3948	0.023
Mof_C 	C 	0.1992	0.2054	0.36568	0.006
Mof_H 	H 	0.2494	0.2232	0.362	0.035
Mof_C 	C 	0.0653	0.16678	0.36486	0.103
Mof_H 	H 	0.0032	0.153	0.3602	-0.006
Mof_C 	C 	0.074	0.20508	0.3342	0.213
Mof_C 	C 	0.1621	0.2147	0.32063	-0.255
Mof_H 	H 	0.242	0.2109	0.324	0.126
Mof_C 	C 	0.1308	0.23008	0.30203	0.216
Mof_C 	C 	0.0159	0.23481	0.29645	-0.257
Mof_H 	H 	0.996	0.245	0.2835	0.125
Mof_C 	C 	0.9301	0.22431	0.31018	0.212
Mof_C 	C 	0.9565	0.20948	0.32929	-0.25
Mof_H 	H 	0.8965	0.2026	0.3386	0.131
Mof_C 	C 	0.7149	0.21082	0.31098	0.016
Mof_H 	H 	0.7168	0.1909	0.3188	0.037
Mof_C 	C 	0.6196	0.22619	0.3032	0.008
Mof_H 	H 	0.5414	0.2185	0.3046	0.029
Mof_C 	C 	0.7683	0.25654	0.29421	0.104
Mof_H 	H 	0.8151	0.2736	0.2884	-0.004
Mof_C 	C 	0.2212	0.24374	0.26707	0.008
Mof_H 	H 	0.1615	0.2364	0.2578	0.031
Mof_C 	C 	0.3235	0.25514	0.29559	0.101
Mof_H 	H 	0.3459	0.2568	0.3099	-0.002
Mof_C 	C 	0.3239	0.25824	0.26181	0.008
Mof_H 	H 	0.3487	0.2628	0.2479	0.008
Mof_C 	C 	0.4769	0.32075	0.31839	0.333
Mof_C 	C 	0.4238	0.34861	0.33068	-0.095
Mof_C 	C 	0.4213	0.34835	0.35227	-0.012
Mof_H 	H 	0.4514	0.3298	0.3596	0.054
Mof_Zn	Zn	0.04358	0.79002	0.28145	1.21
Mof_O 	O 	0.3087	0.56684	0.51559	-0.376
Mof_O 	O 	0.4756	0.55633	0.50031	-0.407
Mof_O 	O 	0.5439	0.59638	0.4269	-0.399
Mof_O 	O 	0.4275	0.6348	0.41446	-0.362
Mof_O 	O 	0.9901	0.7932	0.32662	-0.301
Mof_O 	O 	0.0036	0.82749	0.29954	-0.437
Mof_N 	N 	0.6219	0.66302	0.38276	-0.261
Mof_N 	N 	0.6073	0.69279	0.35404	-0.156
Mof_N 	N 	0.31	0.73035	0.3051	-0.154
Mof_N 	N 	0.1531	0.75495	0.29282	-0.258
Mof_N 	N 	0.7213	0.7419	0.28875	-0.154
Mof_N 	N 	0.8873	0.76541	0.27973	-0.252
Mof_C 	C 	0.3742	0.56856	0.50044	0.302
Mof_C 	C 	0.3353	0.5867	0.48062	-0.047
Mof_C 	C 	0.2246	0.60021	0.48034	-0.042
Mof_H 	H 	0.1751	0.5978	0.4922	0.066
Mof_C 	C 	0.1843	0.61754	0.46277	0.015
Mof_C 	C 	0.2573	0.62123	0.44557	-0.039
Mof_H 	H 	0.2307	0.6329	0.4336	0.059
Mof_C 	C 	0.3701	0.60778	0.44597	-0.055
Mof_C 	C 	0.4092	0.59059	0.46341	-0.005
Mof_H 	H 	0.4858	0.5815	0.4636	0.06
Mof_C 	C 	0.4504	0.6134	0.42775	0.296
Mof_C 	C 	0.7028	0.6871	0.38348	0.005
Mof_H 	H 	0.755	0.6908	0.3948	0.023
Mof_C 	C 	0.6992	0.7054	0.36568	0.006
Mof_H 	H 	0.7494	0.7232	0.362	0.035
Mof_C 	C 	0.5653	0.66678	0.36486	0.103
Mof_H 	H 	0.5032	0.653	0.3602	-0.006
Mof_C 	C 	0.574	0.70508	0.3342	0.213
Mof_C 	C 	0.6621	0.7147	0.32063	-0.255
Mof_H 	H 	0.742	0.7109	0.324	0.126
Mof_C 	C 	0.6308	0.73008	0.30203	0.216
Mof_C 	C 	0.5159	0.73481	0.29645	-0.257
Mof_H 	H 	0.496	0.745	0.2835	0.125
Mof_C 	C 	0.4301	0.72431	0.31018	0.212
Mof_C 	C 	0.4565	0.70948	0.32929	-0.25
Mof_H 	H 	0.3965	0.7026	0.3386	0.131
Mof_C 	C 	0.2149	0.71082	0.31098	0.016
Mof_H 	H 	0.2168	0.6909	0.3188	0.037
Mof_C 	C 	0.1196	0.72619	0.3032	0.008
Mof_H 	H 	0.0414	0.7185	0.3046	0.029
Mof_C 	C 	0.2683	0.75654	0.29421	0.104
Mof_H 	H 	0.3151	0.7736	0.2884	-0.004
Mof_C 	C 	0.7212	0.74374	0.26707	0.008
Mof_H 	H 	0.6615	0.7364	0.2578	0.031
Mof_C 	C 	0.8235	0.75514	0.29559	0.101
Mof_H 	H 	0.8459	0.7568	0.3099	-0.002
Mof_C 	C 	0.8239	0.75824	0.26181	0.008
Mof_H 	H 	0.8487	0.7628	0.2479	0.008
Mof_C 	C 	0.9769	0.82075	0.31839	0.334
Mof_C 	C 	0.9238	0.84861	0.33068	-0.095
Mof_C 	C 	0.9213	0.84835	0.35227	-0.012
Mof_H 	H 	0.9514	0.8298	0.3596	0.054
Mof_Zn	Zn	0.04358	0.29002	0.78145	1.21
Mof_O 	O 	0.3087	0.06684	0.01559	-0.376
Mof_O 	O 	0.4756	0.05633	0.00031	-0.407
Mof_O 	O 	0.5439	0.09638	0.9269	-0.399
Mof_O 	O 	0.4275	0.1348	0.91446	-0.362
Mof_O 	O 	0.9901	0.2932	0.82662	-0.301
Mof_O 	O 	0.0036	0.32749	0.79954	-0.437
Mof_N 	N 	0.6219	0.16302	0.88276	-0.261
Mof_N 	N 	0.6073	0.19279	0.85404	-0.156
Mof_N 	N 	0.31	0.23035	0.8051	-0.154
Mof_N 	N 	0.1531	0.25495	0.79282	-0.258
Mof_N 	N 	0.7213	0.2419	0.78875	-0.154
Mof_N 	N 	0.8873	0.26541	0.77973	-0.252
Mof_C 	C 	0.3742	0.06856	0.00044	0.302
Mof_C 	C 	0.3353	0.0867	0.98062	-0.047
Mof_C 	C 	0.2246	0.10021	0.98034	-0.042
Mof_H 	H 	0.1751	0.0978	0.9922	0.066
Mof_C 	C 	0.1843	0.11754	0.96277	0.015
Mof_C 	C 	0.2573	0.12123	0.94557	-0.039
Mof_H 	H 	0.2307	0.1329	0.9336	0.059
Mof_C 	C 	0.3701	0.10778	0.94597	-0.055
Mof_C 	C 	0.4092	0.09059	0.96341	-0.005
Mof_H 	H 	0.4858	0.0815	0.9636	0.06
Mof_C 	C 	0.4504	0.1134	0.92775	0.296
Mof_C 	C 	0.7028	0.1871	0.88348	0.005
Mof_H 	H 	0.755	0.1908	0.8948	0.023
Mof_C 	C 	0.6992	0.2054	0.86568	0.006
Mof_H 	H 	0.7494	0.2232	0.862	0.035
Mof_C 	C 	0.5653	0.16678	0.86486	0.103
Mof_H 	H 	0.5032	0.153	0.8602	-0.006
Mof_C 	C 	0.574	0.20508	0.8342	0.213
Mof_C 	C 	0.6621	0.2147	0.82063	-0.255
Mof_H 	H 	0.742	0.2109	0.824	0.126
Mof_C 	C 	0.6308	0.23008	0.80203	0.216
Mof_C 	C 	0.5159	0.23481	0.79645	-0.257
Mof_H 	H 	0.496	0.245	0.7835	0.125
Mof_C 	C 	0.4301	0.22431	0.81018	0.212
Mof_C 	C 	0.4565	0.20948	0.82929	-0.25
Mof_H 	H 	0.3965	0.2026	0.8386	0.131
Mof_C 	C 	0.2149	0.21082	0.81098	0.016
Mof_H 	H 	0.2168	0.1909	0.8188	0.037
Mof_C 	C 	0.1196	0.22619	0.8032	0.008
Mof_H 	H 	0.0414	0.2185	0.8046	0.029
Mof_C 	C 	0.2683	0.25654	0.79421	0.104
Mof_H 	H 	0.3151	0.2736	0.7884	-0.004
Mof_C 	C 	0.7212	0.24374	0.76707	0.008
Mof_H 	H 	0.6615	0.2364	0.7578	0.031
Mof_C 	C 	0.8235	0.25514	0.79559	0.101
Mof_H 	H 	0.8459	0.2568	0.8099	-0.002
Mof_C 	C 	0.8239	0.25824	0.76181	0.008
Mof_H 	H 	0.8487	0.2628	0.7479	0.008
Mof_C 	C 	0.9769	0.32075	0.81839	0.334
Mof_C 	C 	0.9238	0.34861	0.83068	-0.095
Mof_C 	C 	0.9213	0.34835	0.85227	-0.012
Mof_H 	H 	0.9514	0.3298	0.8596	0.054
Mof_Zn	Zn	0.875	0.375	0.6534	1.205
Mof_Zn	Zn	0.875	0.875	0.1534	1.205
Mof_Zn	Zn	0.375	0.375	0.1534	1.205
Mof_Zn	Zn	0.375	0.875	0.6534	1.205
Mof_Zn	Zn	0.875	0.375	0.0966	1.205
Mof_Zn	Zn	0.875	0.875	0.5966	1.205
Mof_Zn	Zn	0.375	0.375	0.5966	1.205
Mof_Zn	Zn	0.375	0.875	0.0966	1.205
Mof_Zn	Zn	0.125	0.625	0.3466	1.205
Mof_Zn	Zn	0.125	0.125	0.8466	1.205
Mof_Zn	Zn	0.625	0.625	0.8466	1.205
Mof_Zn	Zn	0.625	0.125	0.3466	1.205
Mof_Zn	Zn	0.125	0.625	0.9034	1.205
Mof_Zn	Zn	0.125	0.125	0.4034	1.205
Mof_Zn	Zn	0.625	0.625	0.4034	1.205
Mof_Zn	Zn	0.625	0.125	0.9034	1.205
Mof_C 	C 	0.625	0.625	0.56972	0.087
Mof_C 	C 	0.625	0.625	0.61339	0
Mof_C 	C 	0.625	0.125	0.06972	0.087
Mof_C 	C 	0.625	0.125	0.11339	0
Mof_C 	C 	0.125	0.125	0.56972	0.087
Mof_C 	C 	0.125	0.125	0.61339	0
Mof_C 	C 	0.125	0.625	0.06972	0.087
Mof_C 	C 	0.125	0.625	0.11339	0
Mof_C 	C 	0.125	0.625	0.18028	0.087
Mof_C 	C 	0.125	0.625	0.13661	0
Mof_C 	C 	0.125	0.125	0.68028	0.087
Mof_C 	C 	0.125	0.125	0.63661	0
Mof_C 	C 	0.625	0.625	0.68028	0.087
Mof_C 	C 	0.625	0.625	0.63661	0
Mof_C 	C 	0.625	0.125	0.18028	0.087
Mof_C 	C 	0.625	0.125	0.13661	0
Mof_C 	C 	0.375	0.375	0.43028	0.087
Mof_C 	C 	0.375	0.375	0.38661	0
Mof_C 	C 	0.375	0.875	0.93028	0.087
Mof_C 	C 	0.375	0.875	0.88661	0
Mof_C 	C 	0.875	0.875	0.43028	0.087
Mof_C 	C 	0.875	0.875	0.38661	0
Mof_C 	C 	0.875	0.375	0.93028	0.087
Mof_C 	C 	0.875	0.375	0.88661	0
Mof_C 	C 	0.875	0.375	0.81972	0.087
Mof_C 	C 	0.875	0.375	0.86339	0
Mof_C 	C 	0.875	0.875	0.31972	0.087
Mof_C 	C 	0.875	0.875	0.36339	0
Mof_C 	C 	0.375	0.875	0.81972	0.087
Mof_C 	C 	0.375	0.875	0.86339	0
Mof_C 	C 	0.375	0.375	0.31972	0.087
Mof_C 	C 	0.375	0.375	0.36339	0
_end
