data_functionalizedCrystal
_audit_creation_method	'EQeq! by Chris Wilmer'
_symmetry_space_group_name_H-M	'P1'
_symmetry_Int_Tables_number	1
_symmetry_cell_setting	triclinic
loop_
_symmetry_equiv_pos_as_xyz
  x,y,z
_cell_length_a	9.681
_cell_length_b	9.657
_cell_length_c	9.762
_cell_angle_alpha	90
_cell_angle_beta	102.9
_cell_angle_gamma	90
loop_
_atom_site_label
_atom_site_type_symbol
_atom_site_fract_x
_atom_site_fract_y
_atom_site_fract_z
_atom_site_charge
Mof_Ga	Ga	0.10186	0.2322	0.31559	3.45
Mof_Ga	Ga	0.11327	0.45786	0.62937	3.521
Mof_P 	P 	0.29278	0.18547	0.63295	0.969
Mof_P 	P 	0.20267	0.53329	0.35042	0.905
Mof_O 	O 	0.99958	0.35847	0.44236	-1.435
Mof_O 	O 	0.21271	0.38947	0.28371	-0.887
Mof_O 	O 	0.23821	0.51687	0.5129	-0.934
Mof_O 	O 	0.31244	0.62912	0.31395	-0.859
Mof_O 	O 	0.23908	0.16968	0.47523	-0.963
Mof_O 	O 	0.20487	0.2886	0.69637	-0.977
Mof_O 	O 	0.44817	0.22894	0.65941	-0.949
Mof_O 	O 	0.05107	0.59054	0.29929	-0.917
Mof_O 	O 	0.27983	0.04241	0.70182	-0.899
Mof_Ga	Ga	0.39814	0.7322	0.18441	3.466
Mof_Ga	Ga	0.38673	0.95786	0.87063	3.385
Mof_P 	P 	0.20722	0.68547	0.86705	0.961
Mof_P 	P 	0.29733	0.03329	0.14958	0.857
Mof_O 	O 	0.50042	0.85847	0.05764	-1.393
Mof_O 	O 	0.28729	0.88947	0.21629	-0.866
Mof_O 	O 	0.26179	0.01687	0.9871	-0.877
Mof_O 	O 	0.18756	0.12912	0.18605	-0.859
Mof_O 	O 	0.26092	0.66968	0.02477	-0.959
Mof_O 	O 	0.29513	0.7886	0.80363	-0.963
Mof_O 	O 	0.05183	0.72894	0.84059	-0.95
Mof_O 	O 	0.44893	0.09054	0.20071	-0.897
Mof_O 	O 	0.22017	0.54241	0.79818	-0.929
Mof_Ga	Ga	0.89814	0.7678	0.68441	3.449
Mof_Ga	Ga	0.88673	0.54214	0.37063	3.52
Mof_P 	P 	0.70722	0.81453	0.36705	0.969
Mof_P 	P 	0.79733	0.46671	0.64958	0.905
Mof_O 	O 	0.00042	0.64153	0.55764	-1.435
Mof_O 	O 	0.78729	0.61053	0.71629	-0.887
Mof_O 	O 	0.76179	0.48313	0.4871	-0.934
Mof_O 	O 	0.68756	0.37088	0.68605	-0.859
Mof_O 	O 	0.76092	0.83032	0.52477	-0.963
Mof_O 	O 	0.79513	0.7114	0.30363	-0.977
Mof_O 	O 	0.55183	0.77106	0.34059	-0.949
Mof_O 	O 	0.94893	0.40946	0.70071	-0.917
Mof_O 	O 	0.72017	0.95759	0.29818	-0.899
Mof_Ga	Ga	0.60186	0.2678	0.81559	3.466
Mof_Ga	Ga	0.61327	0.04214	0.12937	3.385
Mof_P 	P 	0.79278	0.31453	0.13295	0.961
Mof_P 	P 	0.70267	0.96671	0.85042	0.857
Mof_O 	O 	0.49958	0.14153	0.94236	-1.393
Mof_O 	O 	0.71271	0.11053	0.78371	-0.866
Mof_O 	O 	0.73821	0.98313	0.0129	-0.877
Mof_O 	O 	0.81244	0.87088	0.81395	-0.859
Mof_O 	O 	0.73908	0.33032	0.97523	-0.959
Mof_O 	O 	0.70487	0.2114	0.19637	-0.963
Mof_O 	O 	0.94817	0.27106	0.15941	-0.95
Mof_O 	O 	0.55107	0.90946	0.79929	-0.897
Mof_O 	O 	0.77983	0.45759	0.20182	-0.929
_end
