data_functionalizedCrystal
_audit_creation_method	'EQeq! by Chris Wilmer'
_symmetry_space_group_name_H-M	'P1'
_symmetry_Int_Tables_number	1
_symmetry_cell_setting	triclinic
loop_
_symmetry_equiv_pos_as_xyz
  x,y,z
_cell_length_a	30.174
_cell_length_b	9.9839
_cell_length_c	14.099
_cell_angle_alpha	90
_cell_angle_beta	97.353
_cell_angle_gamma	90
loop_
_atom_site_label
_atom_site_type_symbol
_atom_site_fract_x
_atom_site_fract_y
_atom_site_fract_z
_atom_site_charge
Mof_O 	O 	0.95055	0.5893	0.1054	-0.66
Mof_O 	O 	0.9189	0.7185	0.1939	-0.55
Mof_O 	O 	0.5309	0.8056	0.0959	-0.563
Mof_O 	O 	0.533	0.9816	0.1774	-0.662
Mof_O 	O 	0.067	0.6396	0.0079	-0.614
Mof_O 	O 	0.0254	0.7303	0.0991	-0.719
Mof_C 	C 	0.9171	0.659	0.1194	0.647
Mof_C 	C 	0.878	0.6573	0.0429	-0.716
Mof_H 	H 	0.8773	0.5697	0.0098	0.215
Mof_H 	H 	0.8824	0.7273	0.9954	0.277
Mof_C 	C 	0.8331	0.6799	0.0774	0.358
Mof_C 	C 	0.8184	0.8029	0.0978	-0.313
Mof_H 	H 	0.8372	0.8781	0.0921	0.143
Mof_C 	C 	0.777	0.8223	0.1267	0.114
Mof_H 	H 	0.7679	0.9107	0.1398	0.007
Mof_C 	C 	0.7486	0.7179	0.1372	-0.103
Mof_C 	C 	0.7636	0.5953	0.1164	0.114
Mof_H 	H 	0.7449	0.5198	0.1212	-0.012
Mof_C 	C 	0.8052	0.5762	0.0884	-0.317
Mof_H 	H 	0.8147	0.4878	0.0765	0.129
Mof_C 	C 	0.704	0.7372	0.1695	-0.004
Mof_C 	C 	0.6884	0.8622	0.1899	0.015
Mof_H 	H 	0.7068	0.9382	0.1845	0.045
Mof_C 	C 	0.6464	0.8799	0.2178	-0.201
Mof_H 	H 	0.637	0.9678	0.2316	0.118
Mof_C 	C 	0.6183	0.7754	0.2263	0.233
Mof_C 	C 	0.6336	0.6535	0.2063	-0.204
Mof_H 	H 	0.6151	0.5779	0.212	0.076
Mof_C 	C 	0.6754	0.6335	0.1777	0.008
Mof_H 	H 	0.6843	0.5452	0.1634	0.023
Mof_C 	C 	0.5719	0.7959	0.2546	-0.522
Mof_H 	H 	0.5588	0.7086	0.2694	0.152
Mof_H 	H 	0.5735	0.8534	0.3121	0.186
Mof_C 	C 	0.5434	0.8616	0.172	0.586
Mof_C 	C 	0.0624	0.724	0.0663	0.652
Mof_C 	C 	0.0958	0.828	0.0928	-0.638
Mof_H 	H 	0.0988	0.8403	0.163	0.21
Mof_H 	H 	0.0846	0.9133	0.063	0.19
Mof_C 	C 	0.1413	0.8017	0.0649	0.315
Mof_C 	C 	0.1748	0.7499	0.128	-0.33
Mof_H 	H 	0.169	0.7277	0.1907	0.148
Mof_C 	C 	0.217	0.7287	0.1036	0.197
Mof_H 	H 	0.2394	0.6915	0.1494	-0.037
Mof_C 	C 	0.2271	0.7607	0.0133	-0.279
Mof_C 	C 	0.1932	0.8128	0.9498	0.242
Mof_H 	H 	0.1989	0.8357	0.887	-0.036
Mof_C 	C 	0.1508	0.8324	0.9757	-0.256
Mof_H 	H 	0.1279	0.8681	0.9301	0.13
Mof_O 	O 	0.45055	0.0893	0.1054	-0.807
Mof_O 	O 	0.4189	0.2185	0.1939	-0.641
Mof_O 	O 	0.0309	0.3056	0.0959	-0.603
Mof_O 	O 	0.033	0.4816	0.1774	-0.703
Mof_O 	O 	0.567	0.1396	0.0079	-0.644
Mof_O 	O 	0.5254	0.2303	0.0991	-0.728
Mof_C 	C 	0.4171	0.159	0.1194	0.705
Mof_C 	C 	0.378	0.1573	0.0429	-0.851
Mof_H 	H 	0.3773	0.0697	0.0098	0.225
Mof_H 	H 	0.3824	0.2273	0.9954	0.305
Mof_C 	C 	0.3331	0.1799	0.0774	0.533
Mof_C 	C 	0.3184	0.3029	0.0978	-0.468
Mof_H 	H 	0.3372	0.3781	0.0921	0.171
Mof_C 	C 	0.277	0.3223	0.1267	0.255
Mof_H 	H 	0.2679	0.4107	0.1398	-0.061
Mof_C 	C 	0.2486	0.2179	0.1372	-0.257
Mof_C 	C 	0.2636	0.0953	0.1164	0.324
Mof_H 	H 	0.2449	0.0198	0.1212	-0.112
Mof_C 	C 	0.3052	0.0762	0.0884	-0.638
Mof_H 	H 	0.3147	0.9878	0.0765	0.291
Mof_C 	C 	0.204	0.2372	0.1695	0.079
Mof_C 	C 	0.1884	0.3622	0.1899	-0.058
Mof_H 	H 	0.2068	0.4382	0.1845	0.048
Mof_C 	C 	0.1464	0.3799	0.2178	-0.146
Mof_H 	H 	0.137	0.4678	0.2316	0.075
Mof_C 	C 	0.1183	0.2754	0.2263	0.175
Mof_C 	C 	0.1336	0.1535	0.2063	-0.149
Mof_H 	H 	0.1151	0.0779	0.212	0.032
Mof_C 	C 	0.1754	0.1335	0.1777	-0.068
Mof_H 	H 	0.1843	0.0452	0.1634	0.027
Mof_C 	C 	0.0719	0.2959	0.2546	-0.484
Mof_H 	H 	0.0588	0.2086	0.2694	0.114
Mof_H 	H 	0.0735	0.3534	0.3121	0.155
Mof_C 	C 	0.0434	0.3616	0.172	0.561
Mof_C 	C 	0.5624	0.224	0.0663	0.65
Mof_C 	C 	0.5958	0.328	0.0928	-0.623
Mof_H 	H 	0.5988	0.3403	0.163	0.19
Mof_H 	H 	0.5846	0.4133	0.063	0.173
Mof_C 	C 	0.6413	0.3017	0.0649	0.289
Mof_C 	C 	0.6748	0.2499	0.128	-0.336
Mof_H 	H 	0.669	0.2277	0.1907	0.134
Mof_C 	C 	0.717	0.2287	0.1036	0.184
Mof_H 	H 	0.7394	0.1915	0.1494	-0.049
Mof_C 	C 	0.7271	0.2607	0.0133	-0.299
Mof_C 	C 	0.6932	0.3128	0.9498	0.236
Mof_H 	H 	0.6989	0.3357	0.887	-0.046
Mof_C 	C 	0.6508	0.3324	0.9757	-0.255
Mof_H 	H 	0.6279	0.3681	0.9301	0.121
Mof_O 	O 	0.04945	0.5893	0.3946	-0.755
Mof_O 	O 	0.0811	0.7185	0.3061	-0.581
Mof_O 	O 	0.4691	0.8056	0.4041	-0.562
Mof_O 	O 	0.467	0.9816	0.3226	-0.675
Mof_O 	O 	0.933	0.6396	0.4921	-0.553
Mof_O 	O 	0.9746	0.7303	0.4009	-0.595
Mof_C 	C 	0.0829	0.659	0.3806	0.641
Mof_C 	C 	0.122	0.6573	0.4571	-0.601
Mof_H 	H 	0.1227	0.5697	0.4902	0.203
Mof_H 	H 	0.1176	0.7273	0.5046	0.194
Mof_C 	C 	0.1669	0.6799	0.4226	0.316
Mof_C 	C 	0.1816	0.8029	0.4022	-0.267
Mof_H 	H 	0.1628	0.8781	0.4079	0.134
Mof_C 	C 	0.223	0.8223	0.3733	0.09
Mof_H 	H 	0.2321	0.9107	0.3602	0.021
Mof_C 	C 	0.2514	0.7179	0.3628	-0.074
Mof_C 	C 	0.2364	0.5953	0.3836	0.092
Mof_H 	H 	0.2551	0.5198	0.3788	0.003
Mof_C 	C 	0.1948	0.5762	0.4116	-0.274
Mof_H 	H 	0.1853	0.4878	0.4235	0.126
Mof_C 	C 	0.296	0.7372	0.3305	-0.01
Mof_C 	C 	0.3116	0.8622	0.3101	0.024
Mof_H 	H 	0.2932	0.9382	0.3155	0.046
Mof_C 	C 	0.3536	0.8799	0.2822	-0.202
Mof_H 	H 	0.363	0.9678	0.2684	0.12
Mof_C 	C 	0.3817	0.7754	0.2737	0.234
Mof_C 	C 	0.3664	0.6535	0.2937	-0.206
Mof_H 	H 	0.3849	0.5779	0.288	0.077
Mof_C 	C 	0.3246	0.6335	0.3223	0.015
Mof_H 	H 	0.3157	0.5452	0.3366	0.025
Mof_C 	C 	0.4281	0.7959	0.2454	-0.518
Mof_H 	H 	0.4412	0.7086	0.2306	0.149
Mof_H 	H 	0.4265	0.8534	0.1879	0.18
Mof_C 	C 	0.4566	0.8616	0.328	0.587
Mof_C 	C 	0.9376	0.724	0.4337	0.639
Mof_C 	C 	0.9042	0.828	0.4072	-0.63
Mof_H 	H 	0.9012	0.8403	0.337	0.217
Mof_H 	H 	0.9154	0.9133	0.437	0.226
Mof_C 	C 	0.8587	0.8017	0.4351	0.334
Mof_C 	C 	0.8252	0.7499	0.372	-0.271
Mof_H 	H 	0.831	0.7277	0.3093	0.13
Mof_C 	C 	0.783	0.7287	0.3964	0.087
Mof_H 	H 	0.7606	0.6915	0.3506	0.006
Mof_C 	C 	0.7729	0.7607	0.4867	-0.053
Mof_C 	C 	0.8068	0.8128	0.5502	0.079
Mof_H 	H 	0.8011	0.8357	0.613	0.016
Mof_C 	C 	0.8492	0.8324	0.5243	-0.256
Mof_H 	H 	0.8721	0.8681	0.5699	0.125
Mof_O 	O 	0.54945	0.0893	0.3946	-0.803
Mof_O 	O 	0.5811	0.2185	0.3061	-0.628
Mof_O 	O 	0.9691	0.3056	0.4041	-0.5
Mof_O 	O 	0.967	0.4816	0.3226	-0.625
Mof_O 	O 	0.433	0.1396	0.4921	-0.632
Mof_O 	O 	0.4746	0.2303	0.4009	-0.729
Mof_C 	C 	0.5829	0.159	0.3806	0.673
Mof_C 	C 	0.622	0.1573	0.4571	-0.698
Mof_H 	H 	0.6227	0.0697	0.4902	0.204
Mof_H 	H 	0.6176	0.2273	0.5046	0.215
Mof_C 	C 	0.6669	0.1799	0.4226	0.472
Mof_C 	C 	0.6816	0.3029	0.4022	-0.407
Mof_H 	H 	0.6628	0.3781	0.4079	0.161
Mof_C 	C 	0.723	0.3223	0.3733	0.218
Mof_H 	H 	0.7321	0.4107	0.3602	-0.043
Mof_C 	C 	0.7514	0.2179	0.3628	-0.215
Mof_C 	C 	0.7364	0.0953	0.3836	0.288
Mof_H 	H 	0.7551	0.0198	0.3788	-0.092
Mof_C 	C 	0.6948	0.0762	0.4116	-0.577
Mof_H 	H 	0.6853	0.9878	0.4235	0.28
Mof_C 	C 	0.796	0.2372	0.3305	0.062
Mof_C 	C 	0.8116	0.3622	0.3101	-0.038
Mof_H 	H 	0.7932	0.4382	0.3155	0.045
Mof_C 	C 	0.8536	0.3799	0.2822	-0.16
Mof_H 	H 	0.863	0.4678	0.2684	0.081
Mof_C 	C 	0.8817	0.2754	0.2737	0.192
Mof_C 	C 	0.8664	0.1535	0.2937	-0.165
Mof_H 	H 	0.8849	0.0779	0.288	0.049
Mof_C 	C 	0.8246	0.1335	0.3223	-0.047
Mof_H 	H 	0.8157	0.0452	0.3366	0.025
Mof_C 	C 	0.9281	0.2959	0.2454	-0.491
Mof_H 	H 	0.9412	0.2086	0.2306	0.159
Mof_H 	H 	0.9265	0.3534	0.1879	0.175
Mof_C 	C 	0.9566	0.3616	0.328	0.571
Mof_C 	C 	0.4376	0.224	0.4337	0.656
Mof_C 	C 	0.4042	0.328	0.4072	-0.624
Mof_H 	H 	0.4012	0.3403	0.337	0.19
Mof_H 	H 	0.4154	0.4133	0.437	0.187
Mof_C 	C 	0.3587	0.3017	0.4351	0.309
Mof_C 	C 	0.3252	0.2499	0.372	-0.274
Mof_H 	H 	0.331	0.2277	0.3093	0.115
Mof_C 	C 	0.283	0.2287	0.3964	0.07
Mof_H 	H 	0.2606	0.1915	0.3506	-0.003
Mof_C 	C 	0.2729	0.2607	0.4867	-0.063
Mof_C 	C 	0.3068	0.3128	0.5502	0.064
Mof_H 	H 	0.3011	0.3357	0.613	0.008
Mof_C 	C 	0.3492	0.3324	0.5243	-0.254
Mof_H 	H 	0.3721	0.3681	0.5699	0.105
Mof_O 	O 	0.04945	0.4107	0.8946	-0.697
Mof_O 	O 	0.0811	0.2815	0.8061	-0.571
Mof_O 	O 	0.4691	0.1944	0.9041	-0.54
Mof_O 	O 	0.467	0.0184	0.8226	-0.772
Mof_O 	O 	0.933	0.3604	0.9921	-0.49
Mof_O 	O 	0.9746	0.2697	0.9009	-0.574
Mof_C 	C 	0.0829	0.341	0.8806	0.58
Mof_C 	C 	0.122	0.3427	0.9571	-0.437
Mof_H 	H 	0.1227	0.4303	0.9902	0.183
Mof_H 	H 	0.1176	0.2727	0.0046	0.094
Mof_C 	C 	0.1669	0.3201	0.9226	0.249
Mof_C 	C 	0.1816	0.1971	0.9022	-0.207
Mof_H 	H 	0.1628	0.1219	0.9079	0.088
Mof_C 	C 	0.223	0.1777	0.8733	0.055
Mof_H 	H 	0.2321	0.0893	0.8602	-0.002
Mof_C 	C 	0.2514	0.2821	0.8628	-0.044
Mof_C 	C 	0.2364	0.4047	0.8836	0.062
Mof_H 	H 	0.2551	0.4802	0.8788	0.019
Mof_C 	C 	0.1948	0.4238	0.9116	-0.215
Mof_H 	H 	0.1853	0.5122	0.9235	0.115
Mof_C 	C 	0.296	0.2628	0.8305	-0.022
Mof_C 	C 	0.3116	0.1378	0.8101	0.022
Mof_H 	H 	0.2932	0.0618	0.8155	0.005
Mof_C 	C 	0.3536	0.1201	0.7822	-0.202
Mof_H 	H 	0.363	0.0322	0.7684	0.069
Mof_C 	C 	0.3817	0.2246	0.7737	0.227
Mof_C 	C 	0.3664	0.3465	0.7937	-0.207
Mof_H 	H 	0.3849	0.4221	0.788	0.079
Mof_C 	C 	0.3246	0.3665	0.8223	0.023
Mof_H 	H 	0.3157	0.4548	0.8366	0.025
Mof_C 	C 	0.4281	0.2041	0.7454	-0.524
Mof_H 	H 	0.4412	0.2914	0.7306	0.152
Mof_H 	H 	0.4265	0.1466	0.6879	0.16
Mof_C 	C 	0.4566	0.1384	0.828	0.601
Mof_C 	C 	0.9376	0.276	0.9337	0.604
Mof_C 	C 	0.9042	0.172	0.9072	-0.567
Mof_H 	H 	0.9012	0.1597	0.837	0.173
Mof_H 	H 	0.9154	0.0867	0.937	0.181
Mof_C 	C 	0.8587	0.1983	0.9351	0.292
Mof_C 	C 	0.8252	0.2501	0.872	-0.185
Mof_H 	H 	0.831	0.2723	0.8093	0.092
Mof_C 	C 	0.783	0.2713	0.8964	-0.07
Mof_H 	H 	0.7606	0.3085	0.8506	0.058
Mof_C 	C 	0.7729	0.2393	0.9867	0.191
Mof_C 	C 	0.8068	0.1872	0.0502	-0.138
Mof_H 	H 	0.8011	0.1643	0.113	0.063
Mof_C 	C 	0.8492	0.1676	0.0243	-0.234
Mof_H 	H 	0.8721	0.1319	0.0699	0.077
Mof_O 	O 	0.54945	0.9107	0.8946	-0.68
Mof_O 	O 	0.5811	0.7815	0.8061	-0.587
Mof_O 	O 	0.9691	0.6944	0.9041	-0.446
Mof_O 	O 	0.967	0.5184	0.8226	-0.602
Mof_O 	O 	0.433	0.8604	0.9921	-0.514
Mof_O 	O 	0.4746	0.7697	0.9009	-0.704
Mof_C 	C 	0.5829	0.841	0.8806	0.572
Mof_C 	C 	0.622	0.8427	0.9571	-0.353
Mof_H 	H 	0.6227	0.9303	0.9902	0.18
Mof_H 	H 	0.6176	0.7727	0.0046	0.081
Mof_C 	C 	0.6669	0.8201	0.9226	0.103
Mof_C 	C 	0.6816	0.6971	0.9022	-0.076
Mof_H 	H 	0.6628	0.6219	0.9079	0.064
Mof_C 	C 	0.723	0.6777	0.8733	-0.068
Mof_H 	H 	0.7321	0.5893	0.8602	0.059
Mof_C 	C 	0.7514	0.7821	0.8628	0.091
Mof_C 	C 	0.7364	0.9047	0.8836	-0.126
Mof_H 	H 	0.7551	0.9802	0.8788	0.109
Mof_C 	C 	0.6948	0.9238	0.9116	0.069
Mof_H 	H 	0.6853	0.0122	0.9235	-0.031
Mof_C 	C 	0.796	0.7628	0.8305	-0.098
Mof_C 	C 	0.8116	0.6378	0.8101	0.09
Mof_H 	H 	0.7932	0.5618	0.8155	0.003
Mof_C 	C 	0.8536	0.6201	0.7822	-0.254
Mof_H 	H 	0.863	0.5322	0.7684	0.114
Mof_C 	C 	0.8817	0.7246	0.7737	0.282
Mof_C 	C 	0.8664	0.8465	0.7937	-0.258
Mof_H 	H 	0.8849	0.9221	0.788	0.126
Mof_C 	C 	0.8246	0.8665	0.8223	0.094
Mof_H 	H 	0.8157	0.9548	0.8366	0.021
Mof_C 	C 	0.9281	0.7041	0.7454	-0.543
Mof_H 	H 	0.9412	0.7914	0.7306	0.197
Mof_H 	H 	0.9265	0.6466	0.6879	0.197
Mof_C 	C 	0.9566	0.6384	0.828	0.578
Mof_C 	C 	0.4376	0.776	0.9337	0.65
Mof_C 	C 	0.4042	0.672	0.9072	-0.603
Mof_H 	H 	0.4012	0.6597	0.837	0.185
Mof_H 	H 	0.4154	0.5867	0.937	0.193
Mof_C 	C 	0.3587	0.6983	0.9351	0.322
Mof_C 	C 	0.3252	0.7501	0.872	-0.19
Mof_H 	H 	0.331	0.7723	0.8093	0.107
Mof_C 	C 	0.283	0.7713	0.8964	-0.045
Mof_H 	H 	0.2606	0.8085	0.8506	0.064
Mof_C 	C 	0.2729	0.7393	0.9867	0.19
Mof_C 	C 	0.3068	0.6872	0.0502	-0.116
Mof_H 	H 	0.3011	0.6643	0.113	0.069
Mof_C 	C 	0.3492	0.6676	0.0243	-0.239
Mof_H 	H 	0.3721	0.6319	0.0699	0.085
Mof_O 	O 	0.95055	0.4107	0.6054	-0.654
Mof_O 	O 	0.9189	0.2815	0.6939	-0.548
Mof_O 	O 	0.5309	0.1944	0.5959	-0.59
Mof_O 	O 	0.533	0.0184	0.6774	-0.8
Mof_O 	O 	0.067	0.3604	0.5079	-0.596
Mof_O 	O 	0.0254	0.2697	0.5991	-0.726
Mof_C 	C 	0.9171	0.341	0.6194	0.61
Mof_C 	C 	0.878	0.3427	0.5429	-0.575
Mof_H 	H 	0.8773	0.4303	0.5098	0.196
Mof_H 	H 	0.8824	0.2727	0.4954	0.183
Mof_C 	C 	0.8331	0.3201	0.5774	0.3
Mof_C 	C 	0.8184	0.1971	0.5978	-0.261
Mof_H 	H 	0.8372	0.1219	0.5921	0.098
Mof_C 	C 	0.777	0.1777	0.6267	0.083
Mof_H 	H 	0.7679	0.0893	0.6398	-0.017
Mof_C 	C 	0.7486	0.2821	0.6372	-0.076
Mof_C 	C 	0.7636	0.4047	0.6164	0.087
Mof_H 	H 	0.7449	0.4802	0.6212	0.003
Mof_C 	C 	0.8052	0.4238	0.5884	-0.265
Mof_H 	H 	0.8147	0.5122	0.5765	0.12
Mof_C 	C 	0.704	0.2628	0.6695	-0.018
Mof_C 	C 	0.6884	0.1378	0.6899	0.015
Mof_H 	H 	0.7068	0.0618	0.6845	0.003
Mof_C 	C 	0.6464	0.1201	0.7178	-0.205
Mof_H 	H 	0.637	0.0322	0.7316	0.067
Mof_C 	C 	0.6183	0.2246	0.7263	0.231
Mof_C 	C 	0.6336	0.3465	0.7063	-0.209
Mof_H 	H 	0.6151	0.4221	0.712	0.079
Mof_C 	C 	0.6754	0.3665	0.6777	0.017
Mof_H 	H 	0.6843	0.4548	0.6634	0.022
Mof_C 	C 	0.5719	0.2041	0.7546	-0.542
Mof_H 	H 	0.5588	0.2914	0.7694	0.161
Mof_H 	H 	0.5735	0.1466	0.8121	0.175
Mof_C 	C 	0.5434	0.1384	0.672	0.618
Mof_C 	C 	0.0624	0.276	0.5663	0.629
Mof_C 	C 	0.0958	0.172	0.5928	-0.58
Mof_H 	H 	0.0988	0.1597	0.663	0.166
Mof_H 	H 	0.0846	0.0867	0.563	0.144
Mof_C 	C 	0.1413	0.1983	0.5649	0.273
Mof_C 	C 	0.1748	0.2501	0.628	-0.248
Mof_H 	H 	0.169	0.2723	0.6907	0.111
Mof_C 	C 	0.217	0.2713	0.6036	0.046
Mof_H 	H 	0.2394	0.3085	0.6494	0.012
Mof_C 	C 	0.2271	0.2393	0.5133	-0.045
Mof_C 	C 	0.1932	0.1872	0.4498	0.033
Mof_H 	H 	0.1989	0.1643	0.387	0.009
Mof_C 	C 	0.1508	0.1676	0.4757	-0.234
Mof_H 	H 	0.1279	0.1319	0.4301	0.082
Mof_O 	O 	0.45055	0.9107	0.6054	-0.735
Mof_O 	O 	0.4189	0.7815	0.6939	-0.606
Mof_O 	O 	0.0309	0.6944	0.5959	-0.592
Mof_O 	O 	0.033	0.5184	0.6774	-0.716
Mof_O 	O 	0.567	0.8604	0.5079	-0.572
Mof_O 	O 	0.5254	0.7697	0.5991	-0.732
Mof_C 	C 	0.4171	0.841	0.6194	0.622
Mof_C 	C 	0.378	0.8427	0.5429	-0.5
Mof_H 	H 	0.3773	0.9303	0.5098	0.197
Mof_H 	H 	0.3824	0.7727	0.4954	0.163
Mof_C 	C 	0.3331	0.8201	0.5774	0.154
Mof_C 	C 	0.3184	0.6971	0.5978	-0.128
Mof_H 	H 	0.3372	0.6219	0.5921	0.071
Mof_C 	C 	0.277	0.6777	0.6267	-0.039
Mof_H 	H 	0.2679	0.5893	0.6398	0.044
Mof_C 	C 	0.2486	0.7821	0.6372	0.059
Mof_C 	C 	0.2636	0.9047	0.6164	-0.101
Mof_H 	H 	0.2449	0.9802	0.6212	0.095
Mof_C 	C 	0.3052	0.9238	0.5884	0.027
Mof_H 	H 	0.3147	0.0122	0.5765	-0.03
Mof_C 	C 	0.204	0.7628	0.6695	-0.087
Mof_C 	C 	0.1884	0.6378	0.6899	0.075
Mof_H 	H 	0.2068	0.5618	0.6845	0.003
Mof_C 	C 	0.1464	0.6201	0.7178	-0.246
Mof_H 	H 	0.137	0.5322	0.7316	0.109
Mof_C 	C 	0.1183	0.7246	0.7263	0.272
Mof_C 	C 	0.1336	0.8465	0.7063	-0.249
Mof_H 	H 	0.1151	0.9221	0.712	0.111
Mof_C 	C 	0.1754	0.8665	0.6777	0.079
Mof_H 	H 	0.1843	0.9548	0.6634	0.022
Mof_C 	C 	0.0719	0.7041	0.7546	-0.548
Mof_H 	H 	0.0588	0.7914	0.7694	0.156
Mof_H 	H 	0.0735	0.6466	0.8121	0.184
Mof_C 	C 	0.0434	0.6384	0.672	0.584
Mof_C 	C 	0.5624	0.776	0.5663	0.657
Mof_C 	C 	0.5958	0.672	0.5928	-0.608
Mof_H 	H 	0.5988	0.6597	0.663	0.186
Mof_H 	H 	0.5846	0.5867	0.563	0.18
Mof_C 	C 	0.6413	0.6983	0.5649	0.304
Mof_C 	C 	0.6748	0.7501	0.628	-0.251
Mof_H 	H 	0.669	0.7723	0.6907	0.125
Mof_C 	C 	0.717	0.7713	0.6036	0.066
Mof_H 	H 	0.7394	0.8085	0.6494	0.019
Mof_C 	C 	0.7271	0.7393	0.5133	-0.039
Mof_C 	C 	0.6932	0.6872	0.4498	0.05
Mof_H 	H 	0.6989	0.6643	0.387	0.017
Mof_C 	C 	0.6508	0.6676	0.4757	-0.241
Mof_H 	H 	0.6279	0.6319	0.4301	0.1
Mof_Nd	Nd	-1.68677e-18	0.67398	0.25	2.119
Mof_Nd	Nd	0.5	0.17398	0.25	2.381
Mof_Nd	Nd	1.48211e-33	0.32602	0.75	2.074
Mof_Nd	Nd	0.5	0.82602	0.75	2.641
Mof_Nd	Nd	-0	0.5	-0	2.1
Mof_Nd	Nd	0.5	0	-0	2.253
Mof_Nd	Nd	-3.37353e-18	0.5	0.5	2.294
Mof_Nd	Nd	0.5	0	0.5	2.461
_end
