data_functionalizedCrystal
_audit_creation_method	'EQeq! by Chris Wilmer'
_symmetry_space_group_name_H-M	'P1'
_symmetry_Int_Tables_number	1
_symmetry_cell_setting	triclinic
loop_
_symmetry_equiv_pos_as_xyz
  x,y,z
_cell_length_a	16.783
_cell_length_b	14.1889
_cell_length_c	18.6834
_cell_angle_alpha	90
_cell_angle_beta	97.743
_cell_angle_gamma	90
loop_
_atom_site_label
_atom_site_type_symbol
_atom_site_fract_x
_atom_site_fract_y
_atom_site_fract_z
_atom_site_charge
Mof_Ni	Ni	0.04002	0.28037	0.16827	1.121
Mof_O 	O 	0.04798	0.81292	0.83249	-0.442
Mof_O 	O 	0.11683	0.80006	0.7395	-0.412
Mof_O 	O 	0.37186	0.1286	0.84171	-0.435
Mof_O 	O 	0.36098	0.03301	0.74711	-0.322
Mof_H 	H 	0.0365	0.4002	0.2685	0.426
Mof_N 	N 	0.08026	0.20346	0.08463	-0.265
Mof_C 	C 	0.0353	0.1754	0.033	0.404
Mof_H 	H 	0.9808	0.188	0.0319	-0.153
Mof_C 	C 	0.0591	0.1254	0.9747	-0.345
Mof_H 	H 	0.0202	0.1079	0.9368	0.161
Mof_C 	C 	0.1351	0.1024	0.97194	0.146
Mof_C 	C 	0.191	0.1358	0.0358	-0.216
Mof_H 	H 	0.2459	0.1241	0.0386	0.105
Mof_C 	C 	0.1612	0.1845	0.0911	0.181
Mof_H 	H 	0.1955	0.2038	0.1317	-0.024
Mof_C 	C 	0.1645	0.0493	0.91231	-0.075
Mof_C 	C 	0.1243	0.97	0.88233	0.026
Mof_H 	H 	0.0787	0.9491	0.9008	0.038
Mof_C 	C 	0.15035	0.9216	0.82603	-0.119
Mof_C 	C 	0.21917	0.9524	0.79786	0.05
Mof_H 	H 	0.2367	0.9207	0.7593	0.035
Mof_C 	C 	0.26072	0.0298	0.82761	-0.11
Mof_C 	C 	0.2333	0.0777	0.8846	0.022
Mof_H 	H 	0.2617	0.1298	0.9045	0.036
Mof_C 	C 	0.10142	0.8374	0.79598	0.402
Mof_C 	C 	0.3375	0.0659	0.80257	0.368
Mof_C 	C 	0.0822	0.107	0.0816	-0.156
Mof_H 	H 	0.0654	0.0738	0.1198	0.1
Mof_C 	C 	0.1071	0.0559	0.0264	0.059
Mof_H 	H 	0.1048	0.9904	0.0265	0.009
Mof_C 	C 	0.124	0.1971	0.9652	0.067
Mof_H 	H 	0.1338	0.2289	0.9237	0.008
Mof_C 	C 	0.0975	0.2448	0.0227	-0.165
Mof_H 	H 	0.0912	0.3097	0.0185	0.079
Mof_Ni	Ni	0.54002	0.78037	0.16827	1.114
Mof_O 	O 	0.54798	0.31292	0.83249	-0.457
Mof_O 	O 	0.61683	0.30006	0.7395	-0.418
Mof_O 	O 	0.87186	0.6286	0.84171	-0.44
Mof_O 	O 	0.86098	0.53301	0.74711	-0.326
Mof_H 	H 	0.5365	0.9002	0.2685	0.447
Mof_N 	N 	0.58026	0.70346	0.08463	-0.242
Mof_C 	C 	0.5353	0.6754	0.033	0.101
Mof_H 	H 	0.4808	0.688	0.0319	-0.024
Mof_C 	C 	0.5591	0.6254	0.9747	-0.134
Mof_H 	H 	0.5202	0.6079	0.9368	0.075
Mof_C 	C 	0.6351	0.6024	0.97194	0.168
Mof_C 	C 	0.691	0.6358	0.0358	-0.127
Mof_H 	H 	0.7459	0.6241	0.0386	0.073
Mof_C 	C 	0.6612	0.6845	0.0911	0.06
Mof_H 	H 	0.6955	0.7038	0.1317	0.017
Mof_C 	C 	0.6645	0.5493	0.91231	-0.09
Mof_C 	C 	0.6243	0.47	0.88233	0.037
Mof_H 	H 	0.5787	0.4491	0.9008	0.027
Mof_C 	C 	0.65035	0.4216	0.82603	-0.131
Mof_C 	C 	0.71917	0.4524	0.79786	0.058
Mof_H 	H 	0.7367	0.4207	0.7593	0.03
Mof_C 	C 	0.76072	0.5298	0.82761	-0.119
Mof_C 	C 	0.7333	0.5777	0.8846	0.029
Mof_H 	H 	0.7617	0.6298	0.9045	0.032
Mof_C 	C 	0.60142	0.3374	0.79598	0.406
Mof_C 	C 	0.8375	0.5659	0.80257	0.369
Mof_C 	C 	0.5822	0.607	0.0816	0.035
Mof_H 	H 	0.5654	0.5738	0.1198	0.021
Mof_C 	C 	0.6071	0.5559	0.0264	-0.118
Mof_H 	H 	0.6048	0.4904	0.0265	0.068
Mof_C 	C 	0.624	0.6971	0.9652	-0.105
Mof_H 	H 	0.6338	0.7289	0.9237	0.066
Mof_C 	C 	0.5975	0.7448	0.0227	0.021
Mof_H 	H 	0.5912	0.8097	0.0185	0.008
Mof_Ni	Ni	0.95998	0.28037	0.33173	1.099
Mof_O 	O 	0.95202	0.81292	0.66751	-0.475
Mof_O 	O 	0.88317	0.80006	0.7605	-0.425
Mof_O 	O 	0.62814	0.1286	0.65829	-0.436
Mof_O 	O 	0.63902	0.03301	0.75289	-0.323
Mof_H 	H 	0.9635	0.4002	0.2315	0.394
Mof_N 	N 	0.91974	0.20346	0.41537	-0.221
Mof_C 	C 	0.9647	0.1754	0.467	-0.197
Mof_H 	H 	0.0192	0.188	0.4681	0.107
Mof_C 	C 	0.9409	0.1254	0.5253	0.072
Mof_H 	H 	0.9798	0.1079	0.5632	-0.01
Mof_C 	C 	0.8649	0.1024	0.52806	0.184
Mof_C 	C 	0.809	0.1358	0.4642	-0.036
Mof_H 	H 	0.7541	0.1241	0.4614	0.044
Mof_C 	C 	0.8388	0.1845	0.4089	-0.06
Mof_H 	H 	0.8045	0.2038	0.3683	0.06
Mof_C 	C 	0.8355	0.0493	0.58769	-0.099
Mof_C 	C 	0.8757	0.97	0.61767	0.043
Mof_H 	H 	0.9213	0.9491	0.5992	0.017
Mof_C 	C 	0.84965	0.9216	0.67397	-0.138
Mof_C 	C 	0.78083	0.9524	0.70214	0.061
Mof_H 	H 	0.7633	0.9207	0.7407	0.029
Mof_C 	C 	0.73928	0.0298	0.67239	-0.121
Mof_C 	C 	0.7667	0.0777	0.6154	0.033
Mof_H 	H 	0.7383	0.1298	0.5955	0.031
Mof_C 	C 	0.89858	0.8374	0.70402	0.409
Mof_C 	C 	0.6625	0.0659	0.69743	0.37
Mof_C 	C 	0.9178	0.107	0.4184	0.22
Mof_H 	H 	0.9346	0.0738	0.3802	-0.055
Mof_C 	C 	0.8929	0.0559	0.4736	-0.284
Mof_H 	H 	0.8952	0.9904	0.4735	0.123
Mof_C 	C 	0.876	0.1971	0.5348	-0.276
Mof_H 	H 	0.8662	0.2289	0.5763	0.124
Mof_C 	C 	0.9025	0.2448	0.4773	0.208
Mof_H 	H 	0.9088	0.3097	0.4815	-0.063
Mof_Ni	Ni	0.45998	0.78037	0.33173	1.114
Mof_O 	O 	0.45202	0.31292	0.66751	-0.456
Mof_O 	O 	0.38317	0.30006	0.7605	-0.416
Mof_O 	O 	0.12814	0.6286	0.65829	-0.431
Mof_O 	O 	0.13902	0.53301	0.75289	-0.314
Mof_H 	H 	0.4635	0.9002	0.2315	0.447
Mof_N 	N 	0.41974	0.70346	0.41537	-0.244
Mof_C 	C 	0.4647	0.6754	0.467	0.118
Mof_H 	H 	0.5192	0.688	0.4681	-0.029
Mof_C 	C 	0.4409	0.6254	0.5253	-0.149
Mof_H 	H 	0.4798	0.6079	0.5632	0.079
Mof_C 	C 	0.3649	0.6024	0.52806	0.162
Mof_C 	C 	0.309	0.6358	0.4642	-0.127
Mof_H 	H 	0.2541	0.6241	0.4614	0.077
Mof_C 	C 	0.3388	0.6845	0.4089	0.064
Mof_H 	H 	0.3045	0.7038	0.3683	0.018
Mof_C 	C 	0.3355	0.5493	0.58769	-0.086
Mof_C 	C 	0.3757	0.47	0.61767	0.035
Mof_H 	H 	0.4213	0.4491	0.5992	0.027
Mof_C 	C 	0.34965	0.4216	0.67397	-0.127
Mof_C 	C 	0.28083	0.4524	0.70214	0.056
Mof_H 	H 	0.2633	0.4207	0.7407	0.034
Mof_C 	C 	0.23928	0.5298	0.67239	-0.113
Mof_C 	C 	0.2667	0.5777	0.6154	0.027
Mof_H 	H 	0.2383	0.6298	0.5955	0.034
Mof_C 	C 	0.39858	0.3374	0.70402	0.405
Mof_C 	C 	0.1625	0.5659	0.69743	0.368
Mof_C 	C 	0.4178	0.607	0.4184	0.023
Mof_H 	H 	0.4346	0.5738	0.3802	0.026
Mof_C 	C 	0.3929	0.5559	0.4736	-0.101
Mof_H 	H 	0.3952	0.4904	0.4735	0.064
Mof_C 	C 	0.376	0.6971	0.5348	-0.1
Mof_H 	H 	0.3662	0.7289	0.5763	0.064
Mof_C 	C 	0.4025	0.7448	0.4773	0.016
Mof_H 	H 	0.4088	0.8097	0.4815	0.01
Mof_Ni	Ni	0.95998	0.71963	0.83173	1.099
Mof_O 	O 	0.95202	0.18708	0.16751	-0.475
Mof_O 	O 	0.88317	0.19994	0.2605	-0.425
Mof_O 	O 	0.62814	0.8714	0.15829	-0.436
Mof_O 	O 	0.63902	0.96699	0.25289	-0.324
Mof_H 	H 	0.9635	0.5998	0.7315	0.393
Mof_N 	N 	0.91974	0.79654	0.91537	-0.221
Mof_C 	C 	0.9647	0.8246	0.967	-0.194
Mof_H 	H 	0.0192	0.812	0.9681	0.107
Mof_C 	C 	0.9409	0.8746	0.0253	0.067
Mof_H 	H 	0.9798	0.8921	0.0632	-0.008
Mof_C 	C 	0.8649	0.8976	0.02806	0.181
Mof_C 	C 	0.809	0.8642	0.9642	-0.033
Mof_H 	H 	0.7541	0.8759	0.9614	0.044
Mof_C 	C 	0.8388	0.8155	0.9089	-0.061
Mof_H 	H 	0.8045	0.7962	0.8683	0.061
Mof_C 	C 	0.8355	0.9507	0.08769	-0.1
Mof_C 	C 	0.8757	0.03	0.11767	0.045
Mof_H 	H 	0.9213	0.0509	0.0992	0.017
Mof_C 	C 	0.84965	0.0784	0.17397	-0.139
Mof_C 	C 	0.78083	0.0476	0.20214	0.063
Mof_H 	H 	0.7633	0.0793	0.2407	0.029
Mof_C 	C 	0.73928	0.9702	0.17239	-0.123
Mof_C 	C 	0.7667	0.9223	0.1154	0.034
Mof_H 	H 	0.7383	0.8702	0.0955	0.03
Mof_C 	C 	0.89858	0.1626	0.20402	0.409
Mof_C 	C 	0.6625	0.9341	0.19743	0.37
Mof_C 	C 	0.9178	0.893	0.9184	0.218
Mof_H 	H 	0.9346	0.9262	0.8802	-0.054
Mof_C 	C 	0.8929	0.9441	0.9736	-0.279
Mof_H 	H 	0.8952	0.0096	0.9735	0.122
Mof_C 	C 	0.876	0.8029	0.0348	-0.278
Mof_H 	H 	0.8662	0.7711	0.0763	0.124
Mof_C 	C 	0.9025	0.7552	0.9773	0.211
Mof_H 	H 	0.9088	0.6903	0.9815	-0.063
Mof_Ni	Ni	0.45998	0.21963	0.83173	1.114
Mof_O 	O 	0.45202	0.68708	0.16751	-0.457
Mof_O 	O 	0.38317	0.69994	0.2605	-0.416
Mof_O 	O 	0.12814	0.3714	0.15829	-0.431
Mof_O 	O 	0.13902	0.46699	0.25289	-0.314
Mof_H 	H 	0.4635	0.0998	0.7315	0.447
Mof_N 	N 	0.41974	0.29654	0.91537	-0.245
Mof_C 	C 	0.4647	0.3246	0.967	0.135
Mof_H 	H 	0.5192	0.312	0.9681	-0.034
Mof_C 	C 	0.4409	0.3746	0.0253	-0.166
Mof_H 	H 	0.4798	0.3921	0.0632	0.084
Mof_C 	C 	0.3649	0.3976	0.02806	0.154
Mof_C 	C 	0.309	0.3642	0.9642	-0.127
Mof_H 	H 	0.2541	0.3759	0.9614	0.078
Mof_C 	C 	0.3388	0.3155	0.9089	0.069
Mof_H 	H 	0.3045	0.2962	0.8683	0.017
Mof_C 	C 	0.3355	0.4507	0.08769	-0.084
Mof_C 	C 	0.3757	0.53	0.11767	0.033
Mof_H 	H 	0.4213	0.5509	0.0992	0.028
Mof_C 	C 	0.34965	0.5784	0.17397	-0.127
Mof_C 	C 	0.28083	0.5476	0.20214	0.055
Mof_H 	H 	0.2633	0.5793	0.2407	0.034
Mof_C 	C 	0.23928	0.4702	0.17239	-0.113
Mof_C 	C 	0.2667	0.4223	0.1154	0.025
Mof_H 	H 	0.2383	0.3702	0.0955	0.034
Mof_C 	C 	0.39858	0.6626	0.20402	0.405
Mof_C 	C 	0.1625	0.4341	0.19743	0.368
Mof_C 	C 	0.4178	0.393	0.9184	0.009
Mof_H 	H 	0.4346	0.4262	0.8802	0.031
Mof_C 	C 	0.3929	0.4441	0.9736	-0.082
Mof_H 	H 	0.3952	0.5096	0.9735	0.058
Mof_C 	C 	0.376	0.3029	0.0348	-0.094
Mof_H 	H 	0.3662	0.2711	0.0763	0.061
Mof_C 	C 	0.4025	0.2552	0.9773	0.011
Mof_H 	H 	0.4088	0.1903	0.9815	0.013
Mof_Ni	Ni	0.04002	0.71963	0.66827	1.123
Mof_O 	O 	0.04798	0.18708	0.33249	-0.442
Mof_O 	O 	0.11683	0.19994	0.2395	-0.412
Mof_O 	O 	0.37186	0.8714	0.34171	-0.435
Mof_O 	O 	0.36098	0.96699	0.24711	-0.322
Mof_H 	H 	0.0365	0.5998	0.7685	0.427
Mof_N 	N 	0.08026	0.79654	0.58463	-0.266
Mof_C 	C 	0.0353	0.8246	0.533	0.435
Mof_H 	H 	0.9808	0.812	0.5319	-0.164
Mof_C 	C 	0.0591	0.8746	0.4747	-0.372
Mof_H 	H 	0.0202	0.8921	0.4368	0.169
Mof_C 	C 	0.1351	0.8976	0.47194	0.14
Mof_C 	C 	0.191	0.8642	0.5358	-0.219
Mof_H 	H 	0.2459	0.8759	0.5386	0.107
Mof_C 	C 	0.1612	0.8155	0.5911	0.19
Mof_H 	H 	0.1955	0.7962	0.6317	-0.027
Mof_C 	C 	0.1645	0.9507	0.41231	-0.076
Mof_C 	C 	0.1243	0.03	0.38233	0.028
Mof_H 	H 	0.0787	0.0509	0.4008	0.037
Mof_C 	C 	0.15035	0.0784	0.32603	-0.121
Mof_C 	C 	0.21917	0.0476	0.29786	0.053
Mof_H 	H 	0.2367	0.0793	0.2593	0.034
Mof_C 	C 	0.26072	0.9702	0.32761	-0.112
Mof_C 	C 	0.2333	0.9223	0.3846	0.022
Mof_H 	H 	0.2617	0.8702	0.4045	0.035
Mof_C 	C 	0.10142	0.1626	0.29598	0.402
Mof_C 	C 	0.3375	0.9341	0.30257	0.368
Mof_C 	C 	0.0822	0.893	0.5816	-0.176
Mof_H 	H 	0.0654	0.9262	0.6198	0.108
Mof_C 	C 	0.1071	0.9441	0.5264	0.082
Mof_H 	H 	0.1048	0.0096	0.5265	0.004
Mof_C 	C 	0.124	0.8029	0.4652	0.078
Mof_H 	H 	0.1338	0.7711	0.4237	0.003
Mof_C 	C 	0.0975	0.7552	0.5227	-0.176
Mof_H 	H 	0.0912	0.6903	0.5185	0.085
Mof_Ni	Ni	0.54002	0.21963	0.66827	1.114
Mof_O 	O 	0.54798	0.68708	0.33249	-0.457
Mof_O 	O 	0.61683	0.69994	0.2395	-0.418
Mof_O 	O 	0.87186	0.3714	0.34171	-0.441
Mof_O 	O 	0.86098	0.46699	0.24711	-0.326
Mof_H 	H 	0.5365	0.0998	0.7685	0.447
Mof_N 	N 	0.58026	0.29654	0.58463	-0.244
Mof_C 	C 	0.5353	0.3246	0.533	0.119
Mof_H 	H 	0.4808	0.312	0.5319	-0.029
Mof_C 	C 	0.5591	0.3746	0.4747	-0.15
Mof_H 	H 	0.5202	0.3921	0.4368	0.08
Mof_C 	C 	0.6351	0.3976	0.47194	0.162
Mof_C 	C 	0.691	0.3642	0.5358	-0.128
Mof_H 	H 	0.7459	0.3759	0.5386	0.074
Mof_C 	C 	0.6612	0.3155	0.5911	0.065
Mof_H 	H 	0.6955	0.2962	0.6317	0.015
Mof_C 	C 	0.6645	0.4507	0.41231	-0.088
Mof_C 	C 	0.6243	0.53	0.38233	0.036
Mof_H 	H 	0.5787	0.5509	0.4008	0.027
Mof_C 	C 	0.65035	0.5784	0.32603	-0.13
Mof_C 	C 	0.71917	0.5476	0.29786	0.057
Mof_H 	H 	0.7367	0.5793	0.2593	0.03
Mof_C 	C 	0.76072	0.4702	0.32761	-0.119
Mof_C 	C 	0.7333	0.4223	0.3846	0.028
Mof_H 	H 	0.7617	0.3702	0.4045	0.032
Mof_C 	C 	0.60142	0.6626	0.29598	0.405
Mof_C 	C 	0.8375	0.4341	0.30257	0.368
Mof_C 	C 	0.5822	0.393	0.5816	0.022
Mof_H 	H 	0.5654	0.4262	0.6198	0.026
Mof_C 	C 	0.6071	0.4441	0.5264	-0.101
Mof_H 	H 	0.6048	0.5096	0.5265	0.063
Mof_C 	C 	0.624	0.3029	0.4652	-0.099
Mof_H 	H 	0.6338	0.2711	0.4237	0.063
Mof_C 	C 	0.5975	0.2552	0.5227	0.016
Mof_H 	H 	0.5912	0.1903	0.5185	0.011
Mof_O 	O 	-6.44694e-18	0.366	0.25	-1.022
Mof_O 	O 	0.5	0.866	0.25	-1.101
Mof_O 	O 	-2.57878e-17	0.634	0.75	-1.019
Mof_O 	O 	0.5	0.134	0.75	-1.101
_end
