data_functionalizedCrystal
_audit_creation_method	'EQeq! by Chris Wilmer'
_symmetry_space_group_name_H-M	'P1'
_symmetry_Int_Tables_number	1
_symmetry_cell_setting	triclinic
loop_
_symmetry_equiv_pos_as_xyz
  x,y,z
_cell_length_a	8.6463
_cell_length_b	9.0805
_cell_length_c	11.888
_cell_angle_alpha	110.25
_cell_angle_beta	90
_cell_angle_gamma	90
loop_
_atom_site_label
_atom_site_type_symbol
_atom_site_fract_x
_atom_site_fract_y
_atom_site_fract_z
_atom_site_charge
Mof_Nd	Nd	0.74888	0.52559	0.98773	2.533
Mof_Nd	Nd	0.24888	0.47441	0.01227	2.49
Mof_H 	H 	0.6262	0.1292	0.5815	-0.004
Mof_H 	H 	0.5901	0.2778	0.542	-0.006
Mof_H 	H 	0.3581	0.3292	0.6617	0.148
Mof_H 	H 	0.394	0.1807	0.7011	0.142
Mof_H 	H 	0.5957	0.0733	0.3202	0.011
Mof_H 	H 	0.6204	0.9345	0.3727	-0
Mof_H 	H 	0.3721	0.8303	0.2837	0.13
Mof_H 	H 	0.378	0.9547	0.2159	0.126
Mof_H 	H 	0.1556	0.5882	0.6324	0.178
Mof_H 	H 	0.9763	0.6365	0.6432	0.223
Mof_H 	H 	0.3626	0.1553	0.439	0.1
Mof_H 	H 	0.3809	0.013	0.4886	0.097
Mof_H 	H 	0.0646	0.1367	0.3713	-0.105
Mof_H 	H 	0.8822	0.1689	0.3828	-0.072
Mof_H 	H 	0.1145	0.4126	0.4237	0.176
Mof_H 	H 	0.9325	0.4479	0.4282	0.204
Mof_H 	H 	0.0822	0.3157	0.5883	-0.039
Mof_H 	H 	0.9034	0.3653	0.5959	0.008
Mof_H 	H 	0.8884	0.2554	0.2168	0.137
Mof_H 	H 	0.9503	0.0795	0.1793	0.145
Mof_H 	H 	0.912	0.713	0.788	0.159
Mof_H 	H 	0.1262	0.8708	0.4185	0.062
Mof_H 	H 	0.0901	0.7222	0.458	0.062
Mof_H 	H 	0.8581	0.6708	0.3383	0.07
Mof_H 	H 	0.894	0.8193	0.2989	0.067
Mof_H 	H 	0.0957	0.9267	0.6798	0.027
Mof_H 	H 	0.1204	0.0655	0.6273	0.049
Mof_H 	H 	0.8721	0.1697	0.7163	0.086
Mof_H 	H 	0.878	0.0453	0.7841	0.087
Mof_H 	H 	0.6556	0.4118	0.3676	0.152
Mof_H 	H 	0.4763	0.3635	0.3568	0.155
Mof_H 	H 	0.8626	0.8447	0.561	0.032
Mof_H 	H 	0.8809	0.987	0.5114	0.031
Mof_H 	H 	0.5646	0.8633	0.6287	-0.002
Mof_H 	H 	0.3822	0.8311	0.6172	-0.017
Mof_H 	H 	0.6145	0.5874	0.5763	0.112
Mof_H 	H 	0.4325	0.5521	0.5718	0.093
Mof_H 	H 	0.5822	0.6843	0.4117	-0.016
Mof_H 	H 	0.4034	0.6347	0.4041	-0.017
Mof_H 	H 	0.3884	0.7446	0.7832	0.106
Mof_H 	H 	0.4503	0.9205	0.8207	0.1
Mof_H 	H 	0.412	0.287	0.212	0.152
Mof_C 	C 	0.5358	0.7764	0.1504	0.49
Mof_C 	C 	0.5424	0.1933	0.5651	0.115
Mof_C 	C 	0.442	0.2657	0.6787	-0.425
Mof_C 	C 	0.5415	0.9972	0.3491	0.083
Mof_C 	C 	0.4425	0.8901	0.2497	-0.405
Mof_C 	C 	0.0525	0.5738	0.7869	0.498
Mof_C 	C 	0.052	0.5614	0.6551	-0.567
Mof_C 	C 	0.4386	0.0889	0.4616	-0.245
Mof_C 	C 	0.131	0.24	0.172	0.398
Mof_C 	C 	0.981	0.205	0.3598	0.35
Mof_C 	C 	0.012	0.378	0.4427	-0.526
Mof_C 	C 	0.008	0.391	0.5748	0.185
Mof_C 	C 	0.975	0.19	0.2273	-0.377
Mof_C 	C 	0.5393	0.3675	0.7809	0.5
Mof_C 	C 	0.0358	0.2236	0.8496	0.348
Mof_C 	C 	0.0424	0.8067	0.4349	-0.189
Mof_C 	C 	0.942	0.7343	0.3213	-0.125
Mof_C 	C 	0.0415	0.0028	0.6509	-0.101
Mof_C 	C 	0.9425	0.1099	0.7503	-0.187
Mof_C 	C 	0.5525	0.4262	0.2131	0.534
Mof_C 	C 	0.552	0.4386	0.3449	-0.451
Mof_C 	C 	0.9386	0.9111	0.5384	0.006
Mof_C 	C 	0.631	0.76	0.828	0.415
Mof_C 	C 	0.481	0.795	0.6402	0.086
Mof_C 	C 	0.512	0.622	0.5573	-0.26
Mof_C 	C 	0.508	0.609	0.4252	0.136
Mof_C 	C 	0.475	0.81	0.7727	-0.318
Mof_C 	C 	0.0393	0.6325	0.2191	0.3
Mof_O 	O 	0.4696	0.4233	0.8853	-0.701
Mof_O 	O 	0.9383	0.6324	0.8497	-0.519
Mof_O 	O 	0.1164	0.268	0.0817	-0.503
Mof_O 	O 	0.6759	0.7977	0.1321	-0.493
Mof_O 	O 	0.6787	0.3997	0.7756	-0.55
Mof_O 	O 	0.1701	0.5214	0.8233	-0.566
Mof_O 	O 	0.4693	0.6458	0.0839	-0.666
Mof_O 	O 	0.261	0.2349	0.231	-0.331
Mof_O 	O 	0.9696	0.5767	0.1147	-0.612
Mof_O 	O 	0.4383	0.3676	0.1503	-0.55
Mof_O 	O 	0.6164	0.732	0.9183	-0.491
Mof_O 	O 	0.1759	0.2023	0.8679	-0.461
Mof_O 	O 	0.1787	0.6003	0.2244	-0.51
Mof_O 	O 	0.6701	0.4786	0.1767	-0.561
Mof_O 	O 	0.9693	0.3542	0.9161	-0.6
Mof_O 	O 	0.761	0.7651	0.769	-0.326
_end
