data_functionalizedCrystal
_audit_creation_method	'EQeq! by Chris Wilmer'
_symmetry_space_group_name_H-M	'P1'
_symmetry_Int_Tables_number	1
_symmetry_cell_setting	triclinic
loop_
_symmetry_equiv_pos_as_xyz
  x,y,z
_cell_length_a	22.3511
_cell_length_b	22.3511
_cell_length_c	25.3776
_cell_angle_alpha	90
_cell_angle_beta	90
_cell_angle_gamma	90
loop_
_atom_site_label
_atom_site_type_symbol
_atom_site_fract_x
_atom_site_fract_y
_atom_site_fract_z
_atom_site_charge
Mof_Ag	Ag	0.1334	0.24198	0.91841	0.626
Mof_Ag	Ag	0.8666	0.75802	0.41841	0.627
Mof_Ag	Ag	0.24198	0.1334	0.08159	0.627
Mof_Ag	Ag	0.75802	0.8666	0.58159	0.627
Mof_B 	B 	0.27422	0.9322	0.60755	1.07
Mof_B 	B 	0.72578	0.0678	0.10755	1.069
Mof_B 	B 	0.9322	0.27422	0.39245	1.07
Mof_B 	B 	0.0678	0.72578	0.89245	1.071
Mof_H 	H 	0.229	0.1399	0.8981	-0.028
Mof_H 	H 	0.2643	0.0752	0.8357	0.093
Mof_H 	H 	0.1341	0.1307	0.7404	0.1
Mof_H 	H 	0.102	0.1924	0.8048	-0.029
Mof_H 	H 	0.1425	0.9354	0.7721	0.136
Mof_H 	H 	0.1759	0.9772	0.8121	0.162
Mof_H 	H 	0.122	0.002	0.7791	0.185
Mof_H 	H 	0.1585	0.8915	0.7193	0.255
Mof_H 	H 	0.165	0.8912	0.6578	0.268
Mof_H 	H 	0.2166	0.8659	0.6932	0.249
Mof_H 	H 	0.3417	0.095	0.6303	0.243
Mof_H 	H 	0.3625	0.0291	0.6197	0.246
Mof_H 	H 	0.3108	0.0572	0.586	0.227
Mof_H 	H 	0.2737	0.1541	0.7346	0.141
Mof_H 	H 	0.3331	0.1324	0.708	0.121
Mof_H 	H 	0.2803	0.1561	0.6731	0.128
Mof_H 	H 	0.918	0.8258	0.525	-0.012
Mof_H 	H 	0.0052	0.8587	0.5632	0.099
Mof_H 	H 	0.0929	0.8097	0.4338	0.091
Mof_H 	H 	0.0039	0.7742	0.3993	-0.025
Mof_H 	H 	0.0915	0.0091	0.5097	0.153
Mof_H 	H 	0.0746	0.9609	0.4674	0.193
Mof_H 	H 	0.0411	0.9622	0.5216	0.187
Mof_H 	H 	0.1559	0.0356	0.5381	0.24
Mof_H 	H 	0.1949	0.0271	0.589	0.248
Mof_H 	H 	0.2248	0.0236	0.5332	0.221
Mof_H 	H 	0.245	0.7613	0.5744	0.268
Mof_H 	H 	0.2958	0.8087	0.5657	0.274
Mof_H 	H 	0.2631	0.8048	0.6203	0.262
Mof_H 	H 	0.1104	0.7492	0.5235	0.153
Mof_H 	H 	0.1795	0.7391	0.5178	0.135
Mof_H 	H 	0.15	0.7401	0.5738	0.139
Mof_H 	H 	0.6366	0.7911	0.5699	-0.01
Mof_H 	H 	0.536	0.8004	0.5692	0.087
Mof_H 	H 	0.556	0.9708	0.6128	0.078
Mof_H 	H 	0.6562	0.9571	0.6094	-0.029
Mof_H 	H 	0.5104	0.9203	0.503	0.135
Mof_H 	H 	0.4523	0.9056	0.4709	0.126
Mof_H 	H 	0.4644	0.9712	0.49	0.123
Mof_H 	H 	0.3001	0.9576	0.515	0.24
Mof_H 	H 	0.3587	0.9916	0.4991	0.243
Mof_H 	H 	0.3465	0.9272	0.4772	0.251
Mof_H 	H 	0.3004	0.8815	0.6899	0.257
Mof_H 	H 	0.3472	0.8303	0.699	0.276
Mof_H 	H 	0.3585	0.8941	0.7226	0.281
Mof_H 	H 	0.512	0.8513	0.6789	0.148
Mof_H 	H 	0.4658	0.8812	0.7172	0.133
Mof_H 	H 	0.4544	0.8163	0.6961	0.137
Mof_H 	H 	0.771	0.8601	0.3981	-0.027
Mof_H 	H 	0.7357	0.9248	0.3357	0.094
Mof_H 	H 	0.8659	0.8693	0.2404	0.101
Mof_H 	H 	0.898	0.8076	0.3048	-0.028
Mof_H 	H 	0.8575	0.0646	0.2721	0.137
Mof_H 	H 	0.8241	0.0228	0.3121	0.163
Mof_H 	H 	0.878	0.998	0.2791	0.186
Mof_H 	H 	0.8415	0.1085	0.2193	0.255
Mof_H 	H 	0.835	0.1088	0.1578	0.268
Mof_H 	H 	0.7834	0.1341	0.1932	0.249
Mof_H 	H 	0.6583	0.905	0.1303	0.243
Mof_H 	H 	0.6375	0.9709	0.1197	0.246
Mof_H 	H 	0.6892	0.9428	0.086	0.228
Mof_H 	H 	0.7263	0.8459	0.2346	0.141
Mof_H 	H 	0.6669	0.8676	0.208	0.121
Mof_H 	H 	0.7197	0.8439	0.1731	0.128
Mof_H 	H 	0.082	0.1742	0.025	-0.012
Mof_H 	H 	0.9948	0.1413	0.0632	0.099
Mof_H 	H 	0.9071	0.1903	0.9338	0.091
Mof_H 	H 	0.9961	0.2258	0.8993	-0.025
Mof_H 	H 	0.9085	0.9909	0.0097	0.148
Mof_H 	H 	0.9254	0.0391	0.9674	0.186
Mof_H 	H 	0.9589	0.0378	0.0216	0.182
Mof_H 	H 	0.8441	0.9644	0.0381	0.242
Mof_H 	H 	0.8051	0.9729	0.089	0.25
Mof_H 	H 	0.7752	0.9764	0.0332	0.223
Mof_H 	H 	0.755	0.2387	0.0744	0.268
Mof_H 	H 	0.7042	0.1913	0.0657	0.275
Mof_H 	H 	0.7369	0.1952	0.1203	0.262
Mof_H 	H 	0.8896	0.2508	0.0235	0.154
Mof_H 	H 	0.8205	0.2609	0.0178	0.135
Mof_H 	H 	0.85	0.2599	0.0738	0.139
Mof_H 	H 	0.3634	0.2089	0.0699	-0.011
Mof_H 	H 	0.464	0.1996	0.0692	0.088
Mof_H 	H 	0.444	0.0292	0.1128	0.079
Mof_H 	H 	0.3438	0.0429	0.1094	-0.029
Mof_H 	H 	0.4896	0.0797	0.003	0.143
Mof_H 	H 	0.5477	0.0944	0.9709	0.133
Mof_H 	H 	0.5356	0.0288	0.99	0.129
Mof_H 	H 	0.6999	0.0424	0.015	0.231
Mof_H 	H 	0.6413	0.0084	0.9991	0.233
Mof_H 	H 	0.6535	0.0728	0.9772	0.24
Mof_H 	H 	0.6996	0.1185	0.1899	0.256
Mof_H 	H 	0.6528	0.1697	0.199	0.275
Mof_H 	H 	0.6415	0.1059	0.2226	0.28
Mof_H 	H 	0.488	0.1487	0.1789	0.149
Mof_H 	H 	0.5342	0.1188	0.2172	0.135
Mof_H 	H 	0.5456	0.1837	0.1961	0.138
Mof_H 	H 	0.1399	0.229	0.1019	-0.027
Mof_H 	H 	0.0752	0.2643	0.1643	0.094
Mof_H 	H 	0.1307	0.1341	0.2596	0.101
Mof_H 	H 	0.1924	0.102	0.1952	-0.028
Mof_H 	H 	0.9354	0.1425	0.2279	0.137
Mof_H 	H 	0.9772	0.1759	0.1879	0.162
Mof_H 	H 	0.002	0.122	0.2209	0.185
Mof_H 	H 	0.8915	0.1585	0.2807	0.255
Mof_H 	H 	0.8912	0.165	0.3422	0.268
Mof_H 	H 	0.8659	0.2166	0.3068	0.249
Mof_H 	H 	0.095	0.3417	0.3697	0.243
Mof_H 	H 	0.0291	0.3625	0.3803	0.246
Mof_H 	H 	0.0572	0.3108	0.414	0.227
Mof_H 	H 	0.1541	0.2737	0.2654	0.141
Mof_H 	H 	0.1324	0.3331	0.292	0.121
Mof_H 	H 	0.1561	0.2803	0.3269	0.128
Mof_H 	H 	0.8258	0.918	0.475	-0.012
Mof_H 	H 	0.8587	0.0052	0.4368	0.099
Mof_H 	H 	0.8097	0.0929	0.5662	0.091
Mof_H 	H 	0.7742	0.0039	0.6007	-0.025
Mof_H 	H 	0.0091	0.0915	0.4903	0.153
Mof_H 	H 	0.9609	0.0746	0.5326	0.193
Mof_H 	H 	0.9622	0.0411	0.4784	0.187
Mof_H 	H 	0.0356	0.1559	0.4619	0.24
Mof_H 	H 	0.0271	0.1949	0.411	0.248
Mof_H 	H 	0.0236	0.2248	0.4668	0.221
Mof_H 	H 	0.7613	0.245	0.4256	0.268
Mof_H 	H 	0.8087	0.2958	0.4343	0.274
Mof_H 	H 	0.8048	0.2631	0.3797	0.262
Mof_H 	H 	0.7492	0.1104	0.4765	0.153
Mof_H 	H 	0.7391	0.1795	0.4822	0.135
Mof_H 	H 	0.7401	0.15	0.4262	0.139
Mof_H 	H 	0.7911	0.6366	0.4301	-0.01
Mof_H 	H 	0.8004	0.536	0.4308	0.087
Mof_H 	H 	0.9708	0.556	0.3872	0.078
Mof_H 	H 	0.9571	0.6562	0.3906	-0.029
Mof_H 	H 	0.9203	0.5104	0.497	0.135
Mof_H 	H 	0.9056	0.4523	0.5291	0.126
Mof_H 	H 	0.9712	0.4644	0.51	0.123
Mof_H 	H 	0.9576	0.3001	0.485	0.24
Mof_H 	H 	0.9916	0.3587	0.5009	0.243
Mof_H 	H 	0.9272	0.3465	0.5228	0.251
Mof_H 	H 	0.8815	0.3004	0.3101	0.257
Mof_H 	H 	0.8303	0.3472	0.301	0.276
Mof_H 	H 	0.8941	0.3585	0.2774	0.281
Mof_H 	H 	0.8513	0.512	0.3211	0.148
Mof_H 	H 	0.8812	0.4658	0.2828	0.133
Mof_H 	H 	0.8163	0.4544	0.3039	0.137
Mof_H 	H 	0.8601	0.771	0.6019	-0.027
Mof_H 	H 	0.9248	0.7357	0.6643	0.094
Mof_H 	H 	0.8693	0.8659	0.7596	0.101
Mof_H 	H 	0.8076	0.898	0.6952	-0.028
Mof_H 	H 	0.0646	0.8575	0.7279	0.137
Mof_H 	H 	0.0228	0.8241	0.6879	0.162
Mof_H 	H 	0.998	0.878	0.7209	0.186
Mof_H 	H 	0.1085	0.8415	0.7807	0.255
Mof_H 	H 	0.1088	0.835	0.8422	0.268
Mof_H 	H 	0.1341	0.7834	0.8068	0.249
Mof_H 	H 	0.905	0.6583	0.8697	0.242
Mof_H 	H 	0.9709	0.6375	0.8803	0.246
Mof_H 	H 	0.9428	0.6892	0.914	0.227
Mof_H 	H 	0.8459	0.7263	0.7654	0.141
Mof_H 	H 	0.8676	0.6669	0.792	0.121
Mof_H 	H 	0.8439	0.7197	0.8269	0.128
Mof_H 	H 	0.1742	0.082	0.975	-0.011
Mof_H 	H 	0.1413	0.9948	0.9368	0.098
Mof_H 	H 	0.1903	0.9071	0.0662	0.09
Mof_H 	H 	0.2258	0.9961	0.1007	-0.024
Mof_H 	H 	0.9909	0.9085	0.9903	0.151
Mof_H 	H 	0.0391	0.9254	0.0326	0.19
Mof_H 	H 	0.0378	0.9589	0.9784	0.185
Mof_H 	H 	0.9644	0.8441	0.9619	0.241
Mof_H 	H 	0.9729	0.8051	0.911	0.249
Mof_H 	H 	0.9764	0.7752	0.9668	0.222
Mof_H 	H 	0.2387	0.755	0.9256	0.268
Mof_H 	H 	0.1913	0.7042	0.9343	0.274
Mof_H 	H 	0.1952	0.7369	0.8797	0.262
Mof_H 	H 	0.2508	0.8896	0.9765	0.153
Mof_H 	H 	0.2609	0.8205	0.9822	0.134
Mof_H 	H 	0.2599	0.85	0.9262	0.138
Mof_H 	H 	0.2089	0.3634	0.9301	-0.01
Mof_H 	H 	0.1996	0.464	0.9308	0.087
Mof_H 	H 	0.0292	0.444	0.8872	0.078
Mof_H 	H 	0.0429	0.3438	0.8906	-0.029
Mof_H 	H 	0.0797	0.4896	0.997	0.134
Mof_H 	H 	0.0944	0.5477	0.0291	0.125
Mof_H 	H 	0.0288	0.5356	0.01	0.122
Mof_H 	H 	0.0424	0.6999	0.985	0.24
Mof_H 	H 	0.0084	0.6413	0.0009	0.244
Mof_H 	H 	0.0728	0.6535	0.0228	0.251
Mof_H 	H 	0.1185	0.6996	0.8101	0.258
Mof_H 	H 	0.1697	0.6528	0.801	0.277
Mof_H 	H 	0.1059	0.6415	0.7774	0.281
Mof_H 	H 	0.1487	0.488	0.8211	0.147
Mof_H 	H 	0.1188	0.5342	0.7828	0.133
Mof_H 	H 	0.1837	0.5456	0.8039	0.137
Mof_C 	C 	0.2093	0.13769	0.86583	0.107
Mof_C 	C 	0.2309	0.09859	0.82859	-0.205
Mof_C 	C 	0.20215	0.09446	0.77995	0.122
Mof_C 	C 	0.1541	0.1312	0.7725	-0.203
Mof_C 	C 	0.1352	0.1684	0.8112	0.115
Mof_C 	C 	0.22365	0.05233	0.73832	-0.048
Mof_C 	C 	0.26557	0.07206	0.70078	-0.031
Mof_C 	C 	0.28307	0.03309	0.65995	0.319
Mof_C 	C 	0.25683	0.97621	0.65519	-0.613
Mof_C 	C 	0.21437	0.95748	0.69267	0.327
Mof_C 	C 	0.19925	0.99484	0.73493	-0.02
Mof_C 	C 	0.1559	0.9756	0.7786	-0.45
Mof_C 	C 	0.186	0.8959	0.6905	-0.83
Mof_C 	C 	0.3287	0.0557	0.6204	-0.799
Mof_C 	C 	0.2904	0.1343	0.7045	-0.413
Mof_C 	C 	0.9537	0.8219	0.5065	0.103
Mof_C 	C 	0.0059	0.843	0.5293	-0.191
Mof_C 	C 	0.05848	0.8407	0.50171	0.119
Mof_C 	C 	0.0576	0.8136	0.453	-0.183
Mof_C 	C 	0.0038	0.7919	0.4324	0.104
Mof_C 	C 	0.11631	0.864	0.52452	-0.05
Mof_C 	C 	0.15897	0.82418	0.54223	-0.037
Mof_C 	C 	0.21278	0.84544	0.56413	0.343
Mof_C 	C 	0.22156	0.90754	0.57168	-0.624
Mof_C 	C 	0.17767	0.94783	0.55147	0.306
Mof_C 	C 	0.12551	0.926	0.5276	-0.002
Mof_C 	C 	0.0788	0.9685	0.5044	-0.498
Mof_C 	C 	0.1894	0.0147	0.5531	-0.782
Mof_C 	C 	0.25827	0.80109	0.5828	-0.86
Mof_C 	C 	0.1488	0.7569	0.539	-0.432
Mof_C 	C 	0.62011	0.8281	0.5783	0.083
Mof_C 	C 	0.5595	0.83316	0.57824	-0.189
Mof_C 	C 	0.53252	0.887	0.59159	0.095
Mof_C 	C 	0.5712	0.9336	0.6035	-0.185
Mof_C 	C 	0.6315	0.9248	0.6018	0.088
Mof_C 	C 	0.46645	0.8948	0.594	-0.031
Mof_C 	C 	0.43655	0.8806	0.64044	-0.054
Mof_C 	C 	0.37428	0.89041	0.64371	0.359
Mof_C 	C 	0.34281	0.91482	0.60084	-0.645
Mof_C 	C 	0.37346	0.92667	0.55372	0.345
Mof_C 	C 	0.43567	0.9167	0.54968	-0.054
Mof_C 	C 	0.4687	0.9296	0.4987	-0.393
Mof_C 	C 	0.3418	0.9531	0.50705	-0.828
Mof_C 	C 	0.3422	0.8725	0.6933	-0.874
Mof_C 	C 	0.4703	0.855	0.6875	-0.412
Mof_C 	C 	0.7907	0.86231	0.36583	0.107
Mof_C 	C 	0.7691	0.90141	0.32859	-0.205
Mof_C 	C 	0.79785	0.90554	0.27995	0.122
Mof_C 	C 	0.8459	0.8688	0.2725	-0.203
Mof_C 	C 	0.8648	0.8316	0.3112	0.115
Mof_C 	C 	0.77635	0.94767	0.23832	-0.049
Mof_C 	C 	0.73443	0.92794	0.20078	-0.03
Mof_C 	C 	0.71693	0.96691	0.15995	0.318
Mof_C 	C 	0.74317	0.02379	0.15519	-0.612
Mof_C 	C 	0.78563	0.04252	0.19267	0.327
Mof_C 	C 	0.80075	0.00516	0.23493	-0.019
Mof_C 	C 	0.8441	0.0244	0.2786	-0.451
Mof_C 	C 	0.814	0.1041	0.1905	-0.829
Mof_C 	C 	0.6713	0.9443	0.1204	-0.799
Mof_C 	C 	0.7096	0.8657	0.2045	-0.413
Mof_C 	C 	0.0463	0.1781	0.0065	0.103
Mof_C 	C 	0.9941	0.157	0.0293	-0.191
Mof_C 	C 	0.94152	0.1593	0.00171	0.122
Mof_C 	C 	0.9424	0.1864	0.953	-0.187
Mof_C 	C 	0.9962	0.2081	0.9324	0.105
Mof_C 	C 	0.88369	0.136	0.02452	-0.048
Mof_C 	C 	0.84103	0.17582	0.04223	-0.038
Mof_C 	C 	0.78722	0.15456	0.06413	0.344
Mof_C 	C 	0.77844	0.09246	0.07168	-0.624
Mof_C 	C 	0.82233	0.05217	0.05147	0.31
Mof_C 	C 	0.87449	0.074	0.0276	-0.007
Mof_C 	C 	0.9212	0.0315	0.0044	-0.481
Mof_C 	C 	0.8106	0.9853	0.0531	-0.787
Mof_C 	C 	0.74173	0.19891	0.0828	-0.861
Mof_C 	C 	0.8512	0.2431	0.039	-0.432
Mof_C 	C 	0.37989	0.1719	0.0783	0.084
Mof_C 	C 	0.4405	0.16684	0.07824	-0.191
Mof_C 	C 	0.46748	0.113	0.09159	0.098
Mof_C 	C 	0.4288	0.0664	0.1035	-0.188
Mof_C 	C 	0.3685	0.0752	0.1018	0.089
Mof_C 	C 	0.53355	0.1052	0.094	-0.037
Mof_C 	C 	0.56345	0.1194	0.14044	-0.049
Mof_C 	C 	0.62572	0.10959	0.14371	0.355
Mof_C 	C 	0.65719	0.08518	0.10084	-0.639
Mof_C 	C 	0.62654	0.07333	0.05372	0.332
Mof_C 	C 	0.56433	0.0833	0.04968	-0.042
Mof_C 	C 	0.5313	0.0704	0.9987	-0.416
Mof_C 	C 	0.6582	0.0469	0.00705	-0.798
Mof_C 	C 	0.6578	0.1275	0.1933	-0.869
Mof_C 	C 	0.5297	0.145	0.1875	-0.418
Mof_C 	C 	0.13769	0.2093	0.13417	0.107
Mof_C 	C 	0.09859	0.2309	0.17141	-0.205
Mof_C 	C 	0.09446	0.20215	0.22005	0.122
Mof_C 	C 	0.1312	0.1541	0.2275	-0.203
Mof_C 	C 	0.1684	0.1352	0.1888	0.115
Mof_C 	C 	0.05233	0.22365	0.26168	-0.048
Mof_C 	C 	0.07206	0.26557	0.29922	-0.031
Mof_C 	C 	0.03309	0.28307	0.34005	0.319
Mof_C 	C 	0.97621	0.25683	0.34481	-0.613
Mof_C 	C 	0.95748	0.21437	0.30733	0.327
Mof_C 	C 	0.99484	0.19925	0.26507	-0.02
Mof_C 	C 	0.9756	0.1559	0.2214	-0.45
Mof_C 	C 	0.8959	0.186	0.3095	-0.83
Mof_C 	C 	0.0557	0.3287	0.3796	-0.799
Mof_C 	C 	0.1343	0.2904	0.2955	-0.412
Mof_C 	C 	0.8219	0.9537	0.4935	0.103
Mof_C 	C 	0.843	0.0059	0.4707	-0.192
Mof_C 	C 	0.8407	0.05848	0.49829	0.119
Mof_C 	C 	0.8136	0.0576	0.547	-0.183
Mof_C 	C 	0.7919	0.0038	0.5676	0.104
Mof_C 	C 	0.864	0.11631	0.47548	-0.05
Mof_C 	C 	0.82418	0.15897	0.45777	-0.037
Mof_C 	C 	0.84544	0.21278	0.43587	0.343
Mof_C 	C 	0.90754	0.22156	0.42832	-0.624
Mof_C 	C 	0.94783	0.17767	0.44853	0.305
Mof_C 	C 	0.926	0.12551	0.4724	-0.002
Mof_C 	C 	0.9685	0.0788	0.4956	-0.498
Mof_C 	C 	0.0147	0.1894	0.4469	-0.781
Mof_C 	C 	0.80109	0.25827	0.4172	-0.86
Mof_C 	C 	0.7569	0.1488	0.461	-0.432
Mof_C 	C 	0.8281	0.62011	0.4217	0.083
Mof_C 	C 	0.83316	0.5595	0.42176	-0.189
Mof_C 	C 	0.887	0.53252	0.40841	0.095
Mof_C 	C 	0.9336	0.5712	0.3965	-0.185
Mof_C 	C 	0.9248	0.6315	0.3982	0.088
Mof_C 	C 	0.8948	0.46645	0.406	-0.031
Mof_C 	C 	0.8806	0.43655	0.35956	-0.054
Mof_C 	C 	0.89041	0.37428	0.35629	0.359
Mof_C 	C 	0.91482	0.34281	0.39916	-0.645
Mof_C 	C 	0.92667	0.37346	0.44628	0.345
Mof_C 	C 	0.9167	0.43567	0.45032	-0.054
Mof_C 	C 	0.9296	0.4687	0.5013	-0.393
Mof_C 	C 	0.9531	0.3418	0.49295	-0.828
Mof_C 	C 	0.8725	0.3422	0.3067	-0.874
Mof_C 	C 	0.855	0.4703	0.3125	-0.412
Mof_C 	C 	0.86231	0.7907	0.63417	0.107
Mof_C 	C 	0.90141	0.7691	0.67141	-0.205
Mof_C 	C 	0.90554	0.79785	0.72005	0.122
Mof_C 	C 	0.8688	0.8459	0.7275	-0.203
Mof_C 	C 	0.8316	0.8648	0.6888	0.115
Mof_C 	C 	0.94767	0.77635	0.76168	-0.048
Mof_C 	C 	0.92794	0.73443	0.79922	-0.031
Mof_C 	C 	0.96691	0.71693	0.84005	0.318
Mof_C 	C 	0.02379	0.74317	0.84481	-0.613
Mof_C 	C 	0.04252	0.78563	0.80733	0.327
Mof_C 	C 	0.00516	0.80075	0.76507	-0.019
Mof_C 	C 	0.0244	0.8441	0.7214	-0.451
Mof_C 	C 	0.1041	0.814	0.8095	-0.83
Mof_C 	C 	0.9443	0.6713	0.8796	-0.798
Mof_C 	C 	0.8657	0.7096	0.7955	-0.413
Mof_C 	C 	0.1781	0.0463	0.9935	0.099
Mof_C 	C 	0.157	0.9941	0.9707	-0.188
Mof_C 	C 	0.1593	0.94152	0.99829	0.117
Mof_C 	C 	0.1864	0.9424	0.047	-0.181
Mof_C 	C 	0.2081	0.9962	0.0676	0.103
Mof_C 	C 	0.136	0.88369	0.97548	-0.048
Mof_C 	C 	0.17582	0.84103	0.95777	-0.038
Mof_C 	C 	0.15456	0.78722	0.93587	0.344
Mof_C 	C 	0.09246	0.77844	0.92832	-0.625
Mof_C 	C 	0.05217	0.82233	0.94853	0.308
Mof_C 	C 	0.074	0.87449	0.9724	-0.005
Mof_C 	C 	0.0315	0.9212	0.9956	-0.491
Mof_C 	C 	0.9853	0.8106	0.9469	-0.784
Mof_C 	C 	0.19891	0.74173	0.9172	-0.861
Mof_C 	C 	0.2431	0.8512	0.961	-0.431
Mof_C 	C 	0.1719	0.37989	0.9217	0.082
Mof_C 	C 	0.16684	0.4405	0.92176	-0.189
Mof_C 	C 	0.113	0.46748	0.90841	0.094
Mof_C 	C 	0.0664	0.4288	0.8965	-0.185
Mof_C 	C 	0.0752	0.3685	0.8982	0.088
Mof_C 	C 	0.1052	0.53355	0.906	-0.03
Mof_C 	C 	0.1194	0.56345	0.85956	-0.055
Mof_C 	C 	0.10959	0.62572	0.85629	0.36
Mof_C 	C 	0.08518	0.65719	0.89916	-0.646
Mof_C 	C 	0.07333	0.62654	0.94628	0.346
Mof_C 	C 	0.0833	0.56433	0.95032	-0.056
Mof_C 	C 	0.0704	0.5313	0.0013	-0.389
Mof_C 	C 	0.0469	0.6582	0.99295	-0.83
Mof_C 	C 	0.1275	0.6578	0.8067	-0.875
Mof_C 	C 	0.145	0.5297	0.8125	-0.412
Mof_N 	N 	0.162	0.17246	0.85828	-0.213
Mof_N 	N 	0.95262	0.7959	0.45867	-0.202
Mof_N 	N 	0.65728	0.87261	0.5897	-0.213
Mof_N 	N 	0.838	0.82754	0.35828	-0.213
Mof_N 	N 	0.04738	0.2041	0.95867	-0.203
Mof_N 	N 	0.34272	0.12739	0.0897	-0.213
Mof_N 	N 	0.17246	0.162	0.14172	-0.213
Mof_N 	N 	0.7959	0.95262	0.54133	-0.202
Mof_N 	N 	0.87261	0.65728	0.4103	-0.213
Mof_N 	N 	0.82754	0.838	0.64172	-0.213
Mof_N 	N 	0.2041	0.04738	0.04133	-0.201
Mof_N 	N 	0.12739	0.34272	0.9103	-0.213
Mof_N 	N 	0.23634	0.23634	-0	0.061
Mof_N 	N 	0.76366	0.76366	0.5	0.061
Mof_O 	O 	0.2414	0.2684	0.9615	-0.226
Mof_O 	O 	0.7586	0.7316	0.4615	-0.226
Mof_O 	O 	0.2684	0.2414	0.0385	-0.225
Mof_O 	O 	0.7316	0.7586	0.5385	-0.226
Mof_O 	O 	0.197	0.197	-0	-0.24
Mof_O 	O 	0.803	0.803	0.5	-0.241
Mof_Ag	Ag	0.25802	0.6334	0.66841	0.628
Mof_Ag	Ag	0.74198	0.3666	0.16841	0.628
Mof_Ag	Ag	0.3666	0.74198	0.83159	0.628
Mof_Ag	Ag	0.6334	0.25802	0.33159	0.628
Mof_B 	B 	0.5678	0.77422	0.35755	1.071
Mof_B 	B 	0.4322	0.22578	0.85755	1.071
Mof_B 	B 	0.22578	0.4322	0.14245	1.071
Mof_B 	B 	0.77422	0.5678	0.64245	1.071
Mof_H 	H 	0.3601	0.729	0.6481	-0.027
Mof_H 	H 	0.4248	0.7643	0.5857	0.094
Mof_H 	H 	0.3693	0.6341	0.4904	0.101
Mof_H 	H 	0.3076	0.602	0.5548	-0.028
Mof_H 	H 	0.5646	0.6425	0.5221	0.137
Mof_H 	H 	0.5228	0.6759	0.5621	0.163
Mof_H 	H 	0.498	0.622	0.5291	0.186
Mof_H 	H 	0.6085	0.6585	0.4693	0.255
Mof_H 	H 	0.6088	0.665	0.4078	0.268
Mof_H 	H 	0.6341	0.7166	0.4432	0.249
Mof_H 	H 	0.405	0.8417	0.3803	0.243
Mof_H 	H 	0.4709	0.8625	0.3697	0.246
Mof_H 	H 	0.4428	0.8108	0.336	0.228
Mof_H 	H 	0.3459	0.7737	0.4846	0.14
Mof_H 	H 	0.3676	0.8331	0.458	0.121
Mof_H 	H 	0.3439	0.7803	0.4231	0.128
Mof_H 	H 	0.6742	0.418	0.275	-0.012
Mof_H 	H 	0.6413	0.5052	0.3132	0.099
Mof_H 	H 	0.6903	0.5929	0.1838	0.091
Mof_H 	H 	0.7258	0.5039	0.1493	-0.025
Mof_H 	H 	0.4909	0.5915	0.2597	0.154
Mof_H 	H 	0.5391	0.5746	0.2174	0.193
Mof_H 	H 	0.5378	0.5411	0.2716	0.187
Mof_H 	H 	0.4644	0.6559	0.2881	0.24
Mof_H 	H 	0.4729	0.6949	0.339	0.248
Mof_H 	H 	0.4764	0.7248	0.2832	0.221
Mof_H 	H 	0.7387	0.745	0.3244	0.267
Mof_H 	H 	0.6913	0.7958	0.3157	0.274
Mof_H 	H 	0.6952	0.7631	0.3703	0.262
Mof_H 	H 	0.7508	0.6104	0.2735	0.153
Mof_H 	H 	0.7609	0.6795	0.2678	0.135
Mof_H 	H 	0.7599	0.65	0.3238	0.139
Mof_H 	H 	0.7089	0.1366	0.3199	-0.01
Mof_H 	H 	0.6996	0.036	0.3192	0.087
Mof_H 	H 	0.5292	0.056	0.3628	0.078
Mof_H 	H 	0.5429	0.1562	0.3594	-0.029
Mof_H 	H 	0.5797	0.0104	0.253	0.136
Mof_H 	H 	0.5944	0.9523	0.2209	0.127
Mof_H 	H 	0.5288	0.9644	0.24	0.123
Mof_H 	H 	0.5424	0.8001	0.265	0.24
Mof_H 	H 	0.5084	0.8587	0.2491	0.243
Mof_H 	H 	0.5728	0.8465	0.2272	0.25
Mof_H 	H 	0.6185	0.8004	0.4399	0.257
Mof_H 	H 	0.6697	0.8472	0.449	0.276
Mof_H 	H 	0.6059	0.8585	0.4726	0.281
Mof_H 	H 	0.6487	0.012	0.4289	0.148
Mof_H 	H 	0.6188	0.9658	0.4672	0.134
Mof_H 	H 	0.6837	0.9544	0.4461	0.137
Mof_H 	H 	0.6399	0.271	0.1481	-0.027
Mof_H 	H 	0.5752	0.2357	0.0857	0.094
Mof_H 	H 	0.6307	0.3659	0.9904	0.099
Mof_H 	H 	0.6924	0.398	0.0548	-0.027
Mof_H 	H 	0.4354	0.3575	0.0221	0.137
Mof_H 	H 	0.4772	0.3241	0.0621	0.162
Mof_H 	H 	0.502	0.378	0.0291	0.185
Mof_H 	H 	0.3915	0.3415	0.9693	0.254
Mof_H 	H 	0.3912	0.335	0.9078	0.268
Mof_H 	H 	0.3659	0.2834	0.9432	0.249
Mof_H 	H 	0.595	0.1583	0.8803	0.243
Mof_H 	H 	0.5291	0.1375	0.8697	0.246
Mof_H 	H 	0.5572	0.1892	0.836	0.228
Mof_H 	H 	0.6541	0.2263	0.9846	0.139
Mof_H 	H 	0.6324	0.1669	0.958	0.12
Mof_H 	H 	0.6561	0.2197	0.9231	0.127
Mof_H 	H 	0.3258	0.582	0.775	-0.012
Mof_H 	H 	0.3587	0.4948	0.8132	0.099
Mof_H 	H 	0.3097	0.4071	0.6838	0.091
Mof_H 	H 	0.2742	0.4961	0.6493	-0.025
Mof_H 	H 	0.5091	0.4085	0.7597	0.154
Mof_H 	H 	0.4609	0.4254	0.7174	0.193
Mof_H 	H 	0.4622	0.4589	0.7716	0.187
Mof_H 	H 	0.5356	0.3441	0.7881	0.24
Mof_H 	H 	0.5271	0.3051	0.839	0.248
Mof_H 	H 	0.5236	0.2752	0.7832	0.221
Mof_H 	H 	0.2613	0.255	0.8244	0.267
Mof_H 	H 	0.3087	0.2042	0.8157	0.274
Mof_H 	H 	0.3048	0.2369	0.8703	0.262
Mof_H 	H 	0.2492	0.3896	0.7735	0.153
Mof_H 	H 	0.2391	0.3205	0.7678	0.135
Mof_H 	H 	0.2401	0.35	0.8238	0.139
Mof_H 	H 	0.2911	0.8634	0.8199	-0.011
Mof_H 	H 	0.3004	0.964	0.8192	0.088
Mof_H 	H 	0.4708	0.944	0.8628	0.079
Mof_H 	H 	0.4571	0.8438	0.8594	-0.029
Mof_H 	H 	0.4203	0.9896	0.753	0.137
Mof_H 	H 	0.4056	0.0477	0.7209	0.127
Mof_H 	H 	0.4712	0.0356	0.74	0.124
Mof_H 	H 	0.4576	0.1999	0.765	0.239
Mof_H 	H 	0.4916	0.1413	0.7491	0.243
Mof_H 	H 	0.4272	0.1535	0.7272	0.25
Mof_H 	H 	0.3815	0.1996	0.9399	0.256
Mof_H 	H 	0.3303	0.1528	0.949	0.275
Mof_H 	H 	0.3941	0.1415	0.9726	0.279
Mof_H 	H 	0.3513	0.988	0.9289	0.15
Mof_H 	H 	0.3812	0.0342	0.9672	0.134
Mof_H 	H 	0.3163	0.0456	0.9461	0.138
Mof_H 	H 	0.271	0.6399	0.8519	-0.027
Mof_H 	H 	0.2357	0.5752	0.9143	0.094
Mof_H 	H 	0.3659	0.6307	0.0096	0.102
Mof_H 	H 	0.398	0.6924	0.9452	-0.029
Mof_H 	H 	0.3575	0.4354	0.9779	0.138
Mof_H 	H 	0.3241	0.4772	0.9379	0.163
Mof_H 	H 	0.378	0.502	0.9709	0.186
Mof_H 	H 	0.3415	0.3915	0.0307	0.255
Mof_H 	H 	0.335	0.3912	0.0922	0.268
Mof_H 	H 	0.2834	0.3659	0.0568	0.249
Mof_H 	H 	0.1583	0.595	0.1197	0.243
Mof_H 	H 	0.1375	0.5291	0.1303	0.246
Mof_H 	H 	0.1892	0.5572	0.164	0.228
Mof_H 	H 	0.2263	0.6541	0.0154	0.141
Mof_H 	H 	0.1669	0.6324	0.042	0.121
Mof_H 	H 	0.2197	0.6561	0.0769	0.128
Mof_H 	H 	0.582	0.3258	0.225	-0.012
Mof_H 	H 	0.4948	0.3587	0.1868	0.099
Mof_H 	H 	0.4071	0.3097	0.3162	0.091
Mof_H 	H 	0.4961	0.2742	0.3507	-0.025
Mof_H 	H 	0.4085	0.5091	0.2403	0.154
Mof_H 	H 	0.4254	0.4609	0.2826	0.193
Mof_H 	H 	0.4589	0.4622	0.2284	0.187
Mof_H 	H 	0.3441	0.5356	0.2119	0.24
Mof_H 	H 	0.3051	0.5271	0.161	0.248
Mof_H 	H 	0.2752	0.5236	0.2168	0.221
Mof_H 	H 	0.255	0.2613	0.1756	0.267
Mof_H 	H 	0.2042	0.3087	0.1843	0.274
Mof_H 	H 	0.2369	0.3048	0.1297	0.262
Mof_H 	H 	0.3896	0.2492	0.2265	0.153
Mof_H 	H 	0.3205	0.2391	0.2322	0.135
Mof_H 	H 	0.35	0.2401	0.1762	0.139
Mof_H 	H 	0.8634	0.2911	0.1801	-0.011
Mof_H 	H 	0.964	0.3004	0.1808	0.088
Mof_H 	H 	0.944	0.4708	0.1372	0.079
Mof_H 	H 	0.8438	0.4571	0.1406	-0.029
Mof_H 	H 	0.9896	0.4203	0.247	0.137
Mof_H 	H 	0.0477	0.4056	0.2791	0.127
Mof_H 	H 	0.0356	0.4712	0.26	0.124
Mof_H 	H 	0.1999	0.4576	0.235	0.239
Mof_H 	H 	0.1413	0.4916	0.2509	0.243
Mof_H 	H 	0.1535	0.4272	0.2728	0.25
Mof_H 	H 	0.1996	0.3815	0.0601	0.257
Mof_H 	H 	0.1528	0.3303	0.051	0.276
Mof_H 	H 	0.1415	0.3941	0.0274	0.281
Mof_H 	H 	0.988	0.3513	0.0711	0.15
Mof_H 	H 	0.0342	0.3812	0.0328	0.135
Mof_H 	H 	0.0456	0.3163	0.0539	0.139
Mof_H 	H 	0.729	0.3601	0.3519	-0.027
Mof_H 	H 	0.7643	0.4248	0.4143	0.094
Mof_H 	H 	0.6341	0.3693	0.5096	0.101
Mof_H 	H 	0.602	0.3076	0.4452	-0.028
Mof_H 	H 	0.6425	0.5646	0.4779	0.137
Mof_H 	H 	0.6759	0.5228	0.4379	0.163
Mof_H 	H 	0.622	0.498	0.4709	0.186
Mof_H 	H 	0.6585	0.6085	0.5307	0.255
Mof_H 	H 	0.665	0.6088	0.5922	0.268
Mof_H 	H 	0.7166	0.6341	0.5568	0.249
Mof_H 	H 	0.8417	0.405	0.6197	0.243
Mof_H 	H 	0.8625	0.4709	0.6303	0.246
Mof_H 	H 	0.8108	0.4428	0.664	0.228
Mof_H 	H 	0.7737	0.3459	0.5154	0.14
Mof_H 	H 	0.8331	0.3676	0.542	0.121
Mof_H 	H 	0.7803	0.3439	0.5769	0.128
Mof_H 	H 	0.418	0.6742	0.725	-0.012
Mof_H 	H 	0.5052	0.6413	0.6868	0.099
Mof_H 	H 	0.5929	0.6903	0.8162	0.091
Mof_H 	H 	0.5039	0.7258	0.8507	-0.025
Mof_H 	H 	0.5915	0.4909	0.7403	0.154
Mof_H 	H 	0.5746	0.5391	0.7826	0.193
Mof_H 	H 	0.5411	0.5378	0.7284	0.187
Mof_H 	H 	0.6559	0.4644	0.7119	0.24
Mof_H 	H 	0.6949	0.4729	0.661	0.248
Mof_H 	H 	0.7248	0.4764	0.7168	0.221
Mof_H 	H 	0.745	0.7387	0.6756	0.267
Mof_H 	H 	0.7958	0.6913	0.6843	0.274
Mof_H 	H 	0.7631	0.6952	0.6297	0.262
Mof_H 	H 	0.6104	0.7508	0.7265	0.153
Mof_H 	H 	0.6795	0.7609	0.7322	0.135
Mof_H 	H 	0.65	0.7599	0.6762	0.139
Mof_H 	H 	0.1366	0.7089	0.6801	-0.01
Mof_H 	H 	0.036	0.6996	0.6808	0.087
Mof_H 	H 	0.056	0.5292	0.6372	0.078
Mof_H 	H 	0.1562	0.5429	0.6406	-0.029
Mof_H 	H 	0.0104	0.5797	0.747	0.136
Mof_H 	H 	0.9523	0.5944	0.7791	0.126
Mof_H 	H 	0.9644	0.5288	0.76	0.123
Mof_H 	H 	0.8001	0.5424	0.735	0.239
Mof_H 	H 	0.8587	0.5084	0.7509	0.243
Mof_H 	H 	0.8465	0.5728	0.7728	0.25
Mof_H 	H 	0.8004	0.6185	0.5601	0.257
Mof_H 	H 	0.8472	0.6697	0.551	0.276
Mof_H 	H 	0.8585	0.6059	0.5274	0.281
Mof_H 	H 	0.012	0.6487	0.5711	0.148
Mof_H 	H 	0.9658	0.6188	0.5328	0.134
Mof_H 	H 	0.9544	0.6837	0.5539	0.137
Mof_C 	C 	0.36231	0.7093	0.61583	0.107
Mof_C 	C 	0.40141	0.7309	0.57859	-0.205
Mof_C 	C 	0.40554	0.70215	0.52995	0.122
Mof_C 	C 	0.3688	0.6541	0.5225	-0.203
Mof_C 	C 	0.3316	0.6352	0.5612	0.115
Mof_C 	C 	0.44767	0.72365	0.48832	-0.048
Mof_C 	C 	0.42794	0.76557	0.45078	-0.031
Mof_C 	C 	0.46691	0.78307	0.40995	0.32
Mof_C 	C 	0.52379	0.75683	0.40519	-0.614
Mof_C 	C 	0.54252	0.71437	0.44267	0.327
Mof_C 	C 	0.50516	0.69925	0.48493	-0.02
Mof_C 	C 	0.5244	0.6559	0.5286	-0.452
Mof_C 	C 	0.6041	0.686	0.4405	-0.83
Mof_C 	C 	0.4443	0.8287	0.3704	-0.8
Mof_C 	C 	0.3657	0.7904	0.4545	-0.412
Mof_C 	C 	0.6781	0.4537	0.2565	0.103
Mof_C 	C 	0.657	0.5059	0.2793	-0.192
Mof_C 	C 	0.6593	0.55848	0.25171	0.119
Mof_C 	C 	0.6864	0.5576	0.203	-0.183
Mof_C 	C 	0.7081	0.5038	0.1824	0.105
Mof_C 	C 	0.636	0.61631	0.27452	-0.05
Mof_C 	C 	0.67582	0.65897	0.29223	-0.037
Mof_C 	C 	0.65456	0.71278	0.31413	0.343
Mof_C 	C 	0.59246	0.72156	0.32168	-0.624
Mof_C 	C 	0.55217	0.67767	0.30147	0.305
Mof_C 	C 	0.574	0.62551	0.2776	-0.002
Mof_C 	C 	0.5315	0.5788	0.2544	-0.499
Mof_C 	C 	0.4853	0.6894	0.3031	-0.78
Mof_C 	C 	0.69891	0.75827	0.3328	-0.859
Mof_C 	C 	0.7431	0.6488	0.289	-0.433
Mof_C 	C 	0.6719	0.12011	0.3283	0.083
Mof_C 	C 	0.66684	0.0595	0.32824	-0.19
Mof_C 	C 	0.613	0.03252	0.34159	0.095
Mof_C 	C 	0.5664	0.0712	0.3535	-0.186
Mof_C 	C 	0.5752	0.1315	0.3518	0.088
Mof_C 	C 	0.6052	0.96645	0.344	-0.032
Mof_C 	C 	0.6194	0.93655	0.39044	-0.054
Mof_C 	C 	0.60959	0.87428	0.39371	0.359
Mof_C 	C 	0.58518	0.84281	0.35084	-0.645
Mof_C 	C 	0.57333	0.87346	0.30372	0.344
Mof_C 	C 	0.5833	0.93567	0.29968	-0.054
Mof_C 	C 	0.5704	0.9687	0.2487	-0.395
Mof_C 	C 	0.5469	0.8418	0.25705	-0.828
Mof_C 	C 	0.6275	0.8422	0.4433	-0.874
Mof_C 	C 	0.645	0.9703	0.4375	-0.413
Mof_C 	C 	0.63769	0.2907	0.11583	0.107
Mof_C 	C 	0.59859	0.2691	0.07859	-0.205
Mof_C 	C 	0.59446	0.29785	0.02995	0.122
Mof_C 	C 	0.6312	0.3459	0.0225	-0.199
Mof_C 	C 	0.6684	0.3648	0.0612	0.113
Mof_C 	C 	0.55233	0.27635	0.98832	-0.048
Mof_C 	C 	0.57206	0.23443	0.95078	-0.032
Mof_C 	C 	0.53309	0.21693	0.90995	0.32
Mof_C 	C 	0.47621	0.24317	0.90519	-0.614
Mof_C 	C 	0.45748	0.28563	0.94267	0.328
Mof_C 	C 	0.49484	0.30075	0.98493	-0.022
Mof_C 	C 	0.4756	0.3441	0.0286	-0.449
Mof_C 	C 	0.3959	0.314	0.9405	-0.83
Mof_C 	C 	0.5557	0.1713	0.8704	-0.8
Mof_C 	C 	0.6343	0.2096	0.9545	-0.411
Mof_C 	C 	0.3219	0.5463	0.7565	0.103
Mof_C 	C 	0.343	0.4941	0.7793	-0.192
Mof_C 	C 	0.3407	0.44152	0.75171	0.119
Mof_C 	C 	0.3136	0.4424	0.703	-0.183
Mof_C 	C 	0.2919	0.4962	0.6824	0.105
Mof_C 	C 	0.364	0.38369	0.77452	-0.05
Mof_C 	C 	0.32418	0.34103	0.79223	-0.037
Mof_C 	C 	0.34544	0.28722	0.81413	0.343
Mof_C 	C 	0.40754	0.27844	0.82168	-0.624
Mof_C 	C 	0.44783	0.32233	0.80147	0.305
Mof_C 	C 	0.426	0.37449	0.7776	-0.002
Mof_C 	C 	0.4685	0.4212	0.7544	-0.499
Mof_C 	C 	0.5147	0.3106	0.8031	-0.78
Mof_C 	C 	0.30109	0.24173	0.8328	-0.859
Mof_C 	C 	0.2569	0.3512	0.789	-0.433
Mof_C 	C 	0.3281	0.87989	0.8283	0.083
Mof_C 	C 	0.33316	0.9405	0.82824	-0.191
Mof_C 	C 	0.387	0.96748	0.84159	0.097
Mof_C 	C 	0.4336	0.9288	0.8535	-0.187
Mof_C 	C 	0.4248	0.8685	0.8518	0.089
Mof_C 	C 	0.3948	0.03355	0.844	-0.034
Mof_C 	C 	0.3806	0.06345	0.89044	-0.052
Mof_C 	C 	0.39041	0.12572	0.89371	0.357
Mof_C 	C 	0.41482	0.15719	0.85084	-0.644
Mof_C 	C 	0.42667	0.12654	0.80372	0.343
Mof_C 	C 	0.4167	0.06433	0.79968	-0.052
Mof_C 	C 	0.4296	0.0313	0.7487	-0.398
Mof_C 	C 	0.4531	0.1582	0.75705	-0.827
Mof_C 	C 	0.3725	0.1578	0.9433	-0.87
Mof_C 	C 	0.355	0.0297	0.9375	-0.417
Mof_C 	C 	0.2907	0.63769	0.88417	0.107
Mof_C 	C 	0.2691	0.59859	0.92141	-0.205
Mof_C 	C 	0.29785	0.59446	0.97005	0.122
Mof_C 	C 	0.3459	0.6312	0.9775	-0.205
Mof_C 	C 	0.3648	0.6684	0.9388	0.116
Mof_C 	C 	0.27635	0.55233	0.01168	-0.048
Mof_C 	C 	0.23443	0.57206	0.04922	-0.031
Mof_C 	C 	0.21693	0.53309	0.09005	0.32
Mof_C 	C 	0.24317	0.47621	0.09481	-0.614
Mof_C 	C 	0.28563	0.45748	0.05733	0.327
Mof_C 	C 	0.30075	0.49484	0.01507	-0.019
Mof_C 	C 	0.3441	0.4756	0.9714	-0.454
Mof_C 	C 	0.314	0.3959	0.0595	-0.83
Mof_C 	C 	0.1713	0.5557	0.1296	-0.8
Mof_C 	C 	0.2096	0.6343	0.0455	-0.412
Mof_C 	C 	0.5463	0.3219	0.2435	0.103
Mof_C 	C 	0.4941	0.343	0.2207	-0.192
Mof_C 	C 	0.44152	0.3407	0.24829	0.119
Mof_C 	C 	0.4424	0.3136	0.297	-0.183
Mof_C 	C 	0.4962	0.2919	0.3176	0.105
Mof_C 	C 	0.38369	0.364	0.22548	-0.05
Mof_C 	C 	0.34103	0.32418	0.20777	-0.037
Mof_C 	C 	0.28722	0.34544	0.18587	0.343
Mof_C 	C 	0.27844	0.40754	0.17832	-0.624
Mof_C 	C 	0.32233	0.44783	0.19853	0.305
Mof_C 	C 	0.37449	0.426	0.2224	-0.002
Mof_C 	C 	0.4212	0.4685	0.2456	-0.499
Mof_C 	C 	0.3106	0.5147	0.1969	-0.78
Mof_C 	C 	0.24173	0.30109	0.1672	-0.859
Mof_C 	C 	0.3512	0.2569	0.211	-0.433
Mof_C 	C 	0.87989	0.3281	0.1717	0.083
Mof_C 	C 	0.9405	0.33316	0.17176	-0.19
Mof_C 	C 	0.96748	0.387	0.15841	0.096
Mof_C 	C 	0.9288	0.4336	0.1465	-0.187
Mof_C 	C 	0.8685	0.4248	0.1482	0.089
Mof_C 	C 	0.03355	0.3948	0.156	-0.033
Mof_C 	C 	0.06345	0.3806	0.10956	-0.052
Mof_C 	C 	0.12572	0.39041	0.10629	0.358
Mof_C 	C 	0.15719	0.41482	0.14916	-0.644
Mof_C 	C 	0.12654	0.42667	0.19628	0.343
Mof_C 	C 	0.06433	0.4167	0.20032	-0.053
Mof_C 	C 	0.0313	0.4296	0.2513	-0.397
Mof_C 	C 	0.1582	0.4531	0.24295	-0.827
Mof_C 	C 	0.1578	0.3725	0.0567	-0.873
Mof_C 	C 	0.0297	0.355	0.0625	-0.418
Mof_C 	C 	0.7093	0.36231	0.38417	0.107
Mof_C 	C 	0.7309	0.40141	0.42141	-0.205
Mof_C 	C 	0.70215	0.40554	0.47005	0.122
Mof_C 	C 	0.6541	0.3688	0.4775	-0.203
Mof_C 	C 	0.6352	0.3316	0.4388	0.115
Mof_C 	C 	0.72365	0.44767	0.51168	-0.048
Mof_C 	C 	0.76557	0.42794	0.54922	-0.031
Mof_C 	C 	0.78307	0.46691	0.59005	0.32
Mof_C 	C 	0.75683	0.52379	0.59481	-0.614
Mof_C 	C 	0.71437	0.54252	0.55733	0.327
Mof_C 	C 	0.69925	0.50516	0.51507	-0.02
Mof_C 	C 	0.6559	0.5244	0.4714	-0.452
Mof_C 	C 	0.686	0.6041	0.5595	-0.83
Mof_C 	C 	0.8287	0.4443	0.6296	-0.8
Mof_C 	C 	0.7904	0.3657	0.5455	-0.412
Mof_C 	C 	0.4537	0.6781	0.7435	0.103
Mof_C 	C 	0.5059	0.657	0.7207	-0.192
Mof_C 	C 	0.55848	0.6593	0.74829	0.119
Mof_C 	C 	0.5576	0.6864	0.797	-0.183
Mof_C 	C 	0.5038	0.7081	0.8176	0.105
Mof_C 	C 	0.61631	0.636	0.72548	-0.05
Mof_C 	C 	0.65897	0.67582	0.70777	-0.037
Mof_C 	C 	0.71278	0.65456	0.68587	0.343
Mof_C 	C 	0.72156	0.59246	0.67832	-0.624
Mof_C 	C 	0.67767	0.55217	0.69853	0.305
Mof_C 	C 	0.62551	0.574	0.7224	-0.002
Mof_C 	C 	0.5788	0.5315	0.7456	-0.499
Mof_C 	C 	0.6894	0.4853	0.6969	-0.78
Mof_C 	C 	0.75827	0.69891	0.6672	-0.859
Mof_C 	C 	0.6488	0.7431	0.711	-0.433
Mof_C 	C 	0.12011	0.6719	0.6717	0.083
Mof_C 	C 	0.0595	0.66684	0.67176	-0.19
Mof_C 	C 	0.03252	0.613	0.65841	0.095
Mof_C 	C 	0.0712	0.5664	0.6465	-0.186
Mof_C 	C 	0.1315	0.5752	0.6482	0.088
Mof_C 	C 	0.96645	0.6052	0.656	-0.032
Mof_C 	C 	0.93655	0.6194	0.60956	-0.054
Mof_C 	C 	0.87428	0.60959	0.60629	0.359
Mof_C 	C 	0.84281	0.58518	0.64916	-0.645
Mof_C 	C 	0.87346	0.57333	0.69628	0.344
Mof_C 	C 	0.93567	0.5833	0.70032	-0.054
Mof_C 	C 	0.9687	0.5704	0.7513	-0.395
Mof_C 	C 	0.8418	0.5469	0.74295	-0.828
Mof_C 	C 	0.8422	0.6275	0.5567	-0.874
Mof_C 	C 	0.9703	0.645	0.5625	-0.413
Mof_N 	N 	0.32754	0.662	0.60828	-0.213
Mof_N 	N 	0.7041	0.45262	0.20867	-0.202
Mof_N 	N 	0.62739	0.15728	0.3397	-0.213
Mof_N 	N 	0.67246	0.338	0.10828	-0.213
Mof_N 	N 	0.2959	0.54738	0.70867	-0.202
Mof_N 	N 	0.37261	0.84272	0.8397	-0.213
Mof_N 	N 	0.338	0.67246	0.89172	-0.214
Mof_N 	N 	0.54738	0.2959	0.29133	-0.202
Mof_N 	N 	0.84272	0.37261	0.1603	-0.213
Mof_N 	N 	0.662	0.32754	0.39172	-0.213
Mof_N 	N 	0.45262	0.7041	0.79133	-0.202
Mof_N 	N 	0.15728	0.62739	0.6603	-0.213
Mof_N 	N 	0.26366	0.73634	0.75	0.061
Mof_N 	N 	0.73634	0.26366	0.25	0.061
Mof_O 	O 	0.2316	0.7414	0.7115	-0.226
Mof_O 	O 	0.7684	0.2586	0.2115	-0.226
Mof_O 	O 	0.2586	0.7684	0.7885	-0.226
Mof_O 	O 	0.7414	0.2316	0.2885	-0.226
Mof_O 	O 	0.303	0.697	0.75	-0.241
Mof_O 	O 	0.697	0.303	0.25	-0.241
Mof_N 	N 	0.9862	0.0264	0.8512	0.057
Mof_O 	O 	0.0271	0.0501	0.8754	-0.14
Mof_O 	O 	0.9975	0.9831	0.8227	-0.133
Mof_O 	O 	0.9349	0.044	0.8572	-0.138
Mof_N 	N 	0.0138	0.9736	0.3512	0.057
Mof_O 	O 	0.9729	0.9499	0.3754	-0.14
Mof_O 	O 	0.0025	0.0169	0.3227	-0.133
Mof_O 	O 	0.0651	0.956	0.3572	-0.138
Mof_N 	N 	0.4736	0.4862	0.6012	0.057
Mof_O 	O 	0.4499	0.5271	0.6254	-0.14
Mof_O 	O 	0.5169	0.4975	0.5727	-0.133
Mof_O 	O 	0.456	0.4349	0.6072	-0.138
Mof_N 	N 	0.5264	0.5138	0.1012	0.057
Mof_O 	O 	0.5501	0.4729	0.1254	-0.14
Mof_O 	O 	0.4831	0.5025	0.0727	-0.132
Mof_O 	O 	0.544	0.5651	0.1072	-0.137
Mof_N 	N 	0.5138	0.5264	0.8988	0.057
Mof_O 	O 	0.4729	0.5501	0.8746	-0.14
Mof_O 	O 	0.5025	0.4831	0.9273	-0.133
Mof_O 	O 	0.5651	0.544	0.8928	-0.138
Mof_N 	N 	0.4862	0.4736	0.3988	0.057
Mof_O 	O 	0.5271	0.4499	0.3746	-0.14
Mof_O 	O 	0.4975	0.5169	0.4273	-0.133
Mof_O 	O 	0.4349	0.456	0.3928	-0.138
Mof_N 	N 	0.0264	0.9862	0.1488	0.057
Mof_O 	O 	0.0501	0.0271	0.1246	-0.14
Mof_O 	O 	0.9831	0.9975	0.1773	-0.133
Mof_O 	O 	0.044	0.9349	0.1428	-0.138
Mof_N 	N 	0.9736	0.0138	0.6488	0.057
Mof_O 	O 	0.9499	0.9729	0.6246	-0.14
Mof_O 	O 	0.0169	0.0025	0.6773	-0.133
Mof_O 	O 	0.956	0.0651	0.6428	-0.138
_end
