data_functionalizedCrystal
_audit_creation_method	'EQeq! by Chris Wilmer'
_symmetry_space_group_name_H-M	'P1'
_symmetry_Int_Tables_number	1
_symmetry_cell_setting	triclinic
loop_
_symmetry_equiv_pos_as_xyz
  x,y,z
_cell_length_a	11.4766
_cell_length_b	11.4766
_cell_length_c	30.5554
_cell_angle_alpha	90
_cell_angle_beta	90
_cell_angle_gamma	90
loop_
_atom_site_label
_atom_site_type_symbol
_atom_site_fract_x
_atom_site_fract_y
_atom_site_fract_z
_atom_site_charge
Mof_C 	C 	0.1007	0.0176	0.32851	-0.125
Mof_H 	H 	0.1009	0.1003	0.3272	0.062
Mof_C 	C 	0.9076	0.9702	0.4276	-0.128
Mof_H 	H 	0.8987	0.8879	0.4268	0.063
Mof_C 	C 	0.8492	0.0344	0.45824	0.063
Mof_H 	H 	0.801	0.9941	0.4785	-0.011
Mof_N 	N 	0.8558	0.151	0.46155	-0.239
Mof_C 	C 	0.1573	0.9548	0.297	0.064
Mof_H 	H 	0.1954	0.9958	0.2741	-0.017
Mof_N 	N 	0.1615	0.8383	0.29695	-0.237
Mof_C 	C 	0.044	0.84	0.36162	-0.126
Mof_H 	H 	0.004	0.7967	0.3834	0.068
Mof_C 	C 	0.9289	0.2021	0.43371	0.071
Mof_H 	H 	0.9395	0.2839	0.4361	-0.014
Mof_C 	C 	0.9898	0.1443	0.40183	-0.13
Mof_H 	H 	0.039	0.187	0.3826	0.069
Mof_C 	C 	0.9809	0.0261	0.39719	0.046
Mof_C 	C 	0.1039	0.7829	0.32862	0.068
Mof_H 	H 	0.1039	0.7002	0.3285	-0.012
Mof_C 	C 	0.0428	0.9615	0.36256	0.042
Mof_C 	C 	0.3993	0.4824	0.32851	-0.131
Mof_H 	H 	0.3991	0.3997	0.3272	0.062
Mof_C 	C 	0.5924	0.5298	0.4276	-0.129
Mof_H 	H 	0.6013	0.6121	0.4268	0.063
Mof_C 	C 	0.6508	0.4656	0.45824	0.065
Mof_H 	H 	0.699	0.5059	0.4785	-0.012
Mof_N 	N 	0.6442	0.349	0.46155	-0.239
Mof_C 	C 	0.3427	0.5452	0.297	0.067
Mof_H 	H 	0.3046	0.5042	0.2741	-0.018
Mof_N 	N 	0.3385	0.6617	0.29695	-0.237
Mof_C 	C 	0.456	0.66	0.36162	-0.127
Mof_H 	H 	0.496	0.7033	0.3834	0.068
Mof_C 	C 	0.5711	0.2979	0.43371	0.07
Mof_H 	H 	0.5605	0.2161	0.4361	-0.014
Mof_C 	C 	0.5102	0.3557	0.40183	-0.128
Mof_H 	H 	0.461	0.313	0.3826	0.068
Mof_C 	C 	0.5191	0.4739	0.39719	0.045
Mof_C 	C 	0.3961	0.7171	0.32862	0.069
Mof_H 	H 	0.3961	0.7998	0.3285	-0.012
Mof_C 	C 	0.4572	0.5385	0.36256	0.045
Mof_C 	C 	0.5176	0.6007	0.17149	-0.131
Mof_H 	H 	0.6003	0.6009	0.1728	0.062
Mof_C 	C 	0.4702	0.4076	0.0724	-0.131
Mof_H 	H 	0.3879	0.3987	0.0732	0.062
Mof_C 	C 	0.5344	0.3492	0.04176	0.063
Mof_H 	H 	0.4941	0.301	0.0215	-0.019
Mof_N 	N 	0.651	0.3558	0.03845	-0.244
Mof_C 	C 	0.4548	0.6573	0.203	0.067
Mof_H 	H 	0.4958	0.6954	0.2259	-0.018
Mof_N 	N 	0.3383	0.6615	0.20305	-0.237
Mof_C 	C 	0.34	0.544	0.13838	-0.127
Mof_H 	H 	0.2967	0.504	0.1166	0.068
Mof_C 	C 	0.7021	0.4289	0.06629	0.068
Mof_H 	H 	0.7839	0.4395	0.0639	-0.017
Mof_C 	C 	0.6443	0.4898	0.09817	-0.13
Mof_H 	H 	0.687	0.539	0.1174	0.068
Mof_C 	C 	0.5261	0.4809	0.10281	0.045
Mof_C 	C 	0.2829	0.6039	0.17138	0.069
Mof_H 	H 	0.2002	0.6039	0.1715	-0.012
Mof_C 	C 	0.4615	0.5428	0.13744	0.044
Mof_C 	C 	0.9824	0.8993	0.17149	-0.13
Mof_H 	H 	0.8997	0.8991	0.1728	0.062
Mof_C 	C 	0.0298	0.0924	0.0724	-0.125
Mof_H 	H 	0.1121	0.1013	0.0732	0.06
Mof_C 	C 	0.9656	0.1508	0.04176	0.058
Mof_H 	H 	0.0059	0.199	0.0215	-0.016
Mof_N 	N 	0.849	0.1442	0.03845	-0.243
Mof_C 	C 	0.0452	0.8427	0.203	0.066
Mof_H 	H 	0.0042	0.8046	0.2259	-0.018
Mof_N 	N 	0.1617	0.8385	0.20305	-0.237
Mof_C 	C 	0.16	0.956	0.13838	-0.127
Mof_H 	H 	0.2033	0.996	0.1166	0.068
Mof_C 	C 	0.7979	0.0711	0.06629	0.067
Mof_H 	H 	0.7161	0.0605	0.0639	-0.017
Mof_C 	C 	0.8557	0.0102	0.09817	-0.128
Mof_H 	H 	0.813	0.961	0.1174	0.067
Mof_C 	C 	0.9739	0.0191	0.10281	0.042
Mof_C 	C 	0.2171	0.8961	0.17138	0.069
Mof_H 	H 	0.2998	0.8961	0.1715	-0.012
Mof_C 	C 	0.0385	0.9572	0.13744	0.044
Mof_C 	C 	0.5176	0.8993	0.67149	-0.131
Mof_H 	H 	0.6003	0.8991	0.6728	0.062
Mof_C 	C 	0.4702	0.0924	0.5724	-0.129
Mof_H 	H 	0.3879	0.1013	0.5732	0.063
Mof_C 	C 	0.5344	0.1508	0.54176	0.065
Mof_H 	H 	0.4941	0.199	0.5215	-0.012
Mof_N 	N 	0.651	0.1442	0.53845	-0.24
Mof_C 	C 	0.4548	0.8427	0.703	0.067
Mof_H 	H 	0.4958	0.8046	0.7259	-0.018
Mof_N 	N 	0.3383	0.8385	0.70305	-0.237
Mof_C 	C 	0.34	0.956	0.63838	-0.127
Mof_H 	H 	0.2967	0.996	0.6166	0.068
Mof_C 	C 	0.7021	0.0711	0.56629	0.07
Mof_H 	H 	0.7839	0.0605	0.5639	-0.014
Mof_C 	C 	0.6443	0.0102	0.59817	-0.129
Mof_H 	H 	0.687	0.961	0.6174	0.068
Mof_C 	C 	0.5261	0.0191	0.60281	0.046
Mof_C 	C 	0.2829	0.8961	0.67138	0.069
Mof_H 	H 	0.2002	0.8961	0.6715	-0.012
Mof_C 	C 	0.4615	0.9572	0.63744	0.044
Mof_C 	C 	0.9824	0.6007	0.67149	-0.132
Mof_H 	H 	0.8997	0.6009	0.6728	0.063
Mof_C 	C 	0.0298	0.4076	0.5724	-0.126
Mof_H 	H 	0.1121	0.3987	0.5732	0.062
Mof_C 	C 	0.9656	0.3492	0.54176	0.062
Mof_H 	H 	0.0059	0.301	0.5215	-0.011
Mof_N 	N 	0.849	0.3558	0.53845	-0.239
Mof_C 	C 	0.0452	0.6573	0.703	0.068
Mof_H 	H 	0.0042	0.6954	0.7259	-0.019
Mof_N 	N 	0.1617	0.6615	0.70305	-0.238
Mof_C 	C 	0.16	0.544	0.63838	-0.128
Mof_H 	H 	0.2033	0.504	0.6166	0.069
Mof_C 	C 	0.7979	0.4289	0.56629	0.069
Mof_H 	H 	0.7161	0.4395	0.5639	-0.014
Mof_C 	C 	0.8557	0.4898	0.59817	-0.127
Mof_H 	H 	0.813	0.539	0.6174	0.068
Mof_C 	C 	0.9739	0.4809	0.60281	0.043
Mof_C 	C 	0.2171	0.6039	0.67138	0.069
Mof_H 	H 	0.2998	0.6039	0.6715	-0.012
Mof_C 	C 	0.0385	0.5428	0.63744	0.046
Mof_C 	C 	0.1007	0.4824	0.82851	-0.131
Mof_H 	H 	0.1009	0.3997	0.8272	0.063
Mof_C 	C 	0.9076	0.5298	0.9276	-0.126
Mof_H 	H 	0.8987	0.6121	0.9268	0.064
Mof_C 	C 	0.8492	0.4656	0.95824	0.067
Mof_H 	H 	0.801	0.5059	0.9785	-0.004
Mof_N 	N 	0.8558	0.349	0.96155	-0.232
Mof_C 	C 	0.1573	0.5452	0.797	0.067
Mof_H 	H 	0.1954	0.5042	0.7741	-0.018
Mof_N 	N 	0.1615	0.6617	0.79695	-0.238
Mof_C 	C 	0.044	0.66	0.86162	-0.127
Mof_H 	H 	0.004	0.7033	0.8834	0.069
Mof_C 	C 	0.9289	0.2979	0.93371	0.072
Mof_H 	H 	0.9395	0.2161	0.9361	-0.01
Mof_C 	C 	0.9898	0.3557	0.90183	-0.127
Mof_H 	H 	0.039	0.313	0.8826	0.069
Mof_C 	C 	0.9809	0.4739	0.89719	0.046
Mof_C 	C 	0.1039	0.7171	0.82862	0.069
Mof_H 	H 	0.1039	0.7998	0.8285	-0.012
Mof_C 	C 	0.0428	0.5385	0.86256	0.045
Mof_C 	C 	0.3993	0.0176	0.82851	-0.129
Mof_H 	H 	0.3991	0.1003	0.8272	0.062
Mof_C 	C 	0.5924	0.9702	0.9276	-0.127
Mof_H 	H 	0.6013	0.8879	0.9268	0.064
Mof_C 	C 	0.6508	0.0344	0.95824	0.066
Mof_H 	H 	0.699	0.9941	0.9785	-0.004
Mof_N 	N 	0.6442	0.151	0.96155	-0.232
Mof_C 	C 	0.3427	0.9548	0.797	0.066
Mof_H 	H 	0.3046	0.9958	0.7741	-0.018
Mof_N 	N 	0.3385	0.8383	0.79695	-0.237
Mof_C 	C 	0.456	0.84	0.86162	-0.127
Mof_H 	H 	0.496	0.7967	0.8834	0.069
Mof_C 	C 	0.5711	0.2021	0.93371	0.072
Mof_H 	H 	0.5605	0.2839	0.9361	-0.01
Mof_C 	C 	0.5102	0.1443	0.90183	-0.126
Mof_H 	H 	0.461	0.187	0.8826	0.069
Mof_C 	C 	0.5191	0.0261	0.89719	0.046
Mof_C 	C 	0.3961	0.7829	0.82862	0.068
Mof_H 	H 	0.3961	0.7002	0.8285	-0.012
Mof_C 	C 	0.4572	0.9615	0.86256	0.044
Mof_Cu	Cu	0.75	0.25	0.5	0.853
Mof_Cu	Cu	0.75	0.25	-0	0.842
Mof_Cu	Cu	0.25	0.75	0.25	0.85
Mof_Cu	Cu	0.25	0.75	0.75	0.85
Mof_C 	C 	0.4824	0.1007	0.32851	-0.131
Mof_H 	H 	0.3997	0.1009	0.3272	0.062
Mof_C 	C 	0.5298	0.9076	0.4276	-0.129
Mof_H 	H 	0.6121	0.8987	0.4268	0.063
Mof_C 	C 	0.4656	0.8492	0.45824	0.065
Mof_H 	H 	0.5059	0.801	0.4785	-0.012
Mof_N 	N 	0.349	0.8558	0.46155	-0.24
Mof_C 	C 	0.5452	0.1573	0.297	0.067
Mof_H 	H 	0.5042	0.1954	0.2741	-0.018
Mof_N 	N 	0.6617	0.1615	0.29695	-0.237
Mof_C 	C 	0.66	0.044	0.36162	-0.127
Mof_H 	H 	0.7033	0.004	0.3834	0.068
Mof_C 	C 	0.2979	0.9289	0.43371	0.071
Mof_H 	H 	0.2161	0.9395	0.4361	-0.014
Mof_C 	C 	0.3557	0.9898	0.40183	-0.129
Mof_H 	H 	0.313	0.039	0.3826	0.069
Mof_C 	C 	0.4739	0.9809	0.39719	0.046
Mof_C 	C 	0.7171	0.1039	0.32862	0.069
Mof_H 	H 	0.7998	0.1039	0.3285	-0.012
Mof_C 	C 	0.5385	0.0428	0.36256	0.045
Mof_C 	C 	0.0176	0.3993	0.32851	-0.129
Mof_H 	H 	0.1003	0.3991	0.3272	0.062
Mof_C 	C 	0.9702	0.5924	0.4276	-0.13
Mof_H 	H 	0.8879	0.6013	0.4268	0.063
Mof_C 	C 	0.0344	0.6508	0.45824	0.065
Mof_H 	H 	0.9941	0.699	0.4785	-0.012
Mof_N 	N 	0.151	0.6442	0.46155	-0.24
Mof_C 	C 	0.9548	0.3427	0.297	0.066
Mof_H 	H 	0.9958	0.3046	0.2741	-0.018
Mof_N 	N 	0.8383	0.3385	0.29695	-0.237
Mof_C 	C 	0.84	0.456	0.36162	-0.126
Mof_H 	H 	0.7967	0.496	0.3834	0.068
Mof_C 	C 	0.2021	0.5711	0.43371	0.07
Mof_H 	H 	0.2839	0.5605	0.4361	-0.014
Mof_C 	C 	0.1443	0.5102	0.40183	-0.129
Mof_H 	H 	0.187	0.461	0.3826	0.068
Mof_C 	C 	0.0261	0.5191	0.39719	0.047
Mof_C 	C 	0.7829	0.3961	0.32862	0.068
Mof_H 	H 	0.7002	0.3961	0.3285	-0.012
Mof_C 	C 	0.9615	0.4572	0.36256	0.043
Mof_C 	C 	0.8993	0.5176	0.17149	-0.13
Mof_H 	H 	0.8991	0.6003	0.1728	0.062
Mof_C 	C 	0.0924	0.4702	0.0724	-0.132
Mof_H 	H 	0.1013	0.3879	0.0732	0.062
Mof_C 	C 	0.1508	0.5344	0.04176	0.063
Mof_H 	H 	0.199	0.4941	0.0215	-0.019
Mof_N 	N 	0.1442	0.651	0.03845	-0.244
Mof_C 	C 	0.8427	0.4548	0.203	0.067
Mof_H 	H 	0.8046	0.4958	0.2259	-0.018
Mof_N 	N 	0.8385	0.3383	0.20305	-0.237
Mof_C 	C 	0.956	0.34	0.13838	-0.127
Mof_H 	H 	0.996	0.2967	0.1166	0.068
Mof_C 	C 	0.0711	0.7021	0.06629	0.068
Mof_H 	H 	0.0605	0.7839	0.0639	-0.017
Mof_C 	C 	0.0102	0.6443	0.09817	-0.13
Mof_H 	H 	0.961	0.687	0.1174	0.068
Mof_C 	C 	0.0191	0.5261	0.10281	0.046
Mof_C 	C 	0.8961	0.2829	0.17138	0.068
Mof_H 	H 	0.8961	0.2002	0.1715	-0.012
Mof_C 	C 	0.9572	0.4615	0.13744	0.043
Mof_C 	C 	0.6007	0.9824	0.17149	-0.132
Mof_H 	H 	0.6009	0.8997	0.1728	0.063
Mof_C 	C 	0.4076	0.0298	0.0724	-0.127
Mof_H 	H 	0.3987	0.1121	0.0732	0.061
Mof_C 	C 	0.3492	0.9656	0.04176	0.059
Mof_H 	H 	0.301	0.0059	0.0215	-0.017
Mof_N 	N 	0.3558	0.849	0.03845	-0.243
Mof_C 	C 	0.6573	0.0452	0.203	0.068
Mof_H 	H 	0.6954	0.0042	0.2259	-0.019
Mof_N 	N 	0.6615	0.1617	0.20305	-0.238
Mof_C 	C 	0.544	0.16	0.13838	-0.128
Mof_H 	H 	0.504	0.2033	0.1166	0.069
Mof_C 	C 	0.4289	0.7979	0.06629	0.067
Mof_H 	H 	0.4395	0.7161	0.0639	-0.017
Mof_C 	C 	0.4898	0.8557	0.09817	-0.128
Mof_H 	H 	0.539	0.813	0.1174	0.067
Mof_C 	C 	0.4809	0.9739	0.10281	0.042
Mof_C 	C 	0.6039	0.2171	0.17138	0.069
Mof_H 	H 	0.6039	0.2998	0.1715	-0.012
Mof_C 	C 	0.5428	0.0385	0.13744	0.046
Mof_C 	C 	0.8993	0.9824	0.67149	-0.129
Mof_H 	H 	0.8991	0.8997	0.6728	0.062
Mof_C 	C 	0.0924	0.0298	0.5724	-0.124
Mof_H 	H 	0.1013	0.1121	0.5732	0.062
Mof_C 	C 	0.1508	0.9656	0.54176	0.06
Mof_H 	H 	0.199	0.0059	0.5215	-0.01
Mof_N 	N 	0.1442	0.849	0.53845	-0.239
Mof_C 	C 	0.8427	0.0452	0.703	0.066
Mof_H 	H 	0.8046	0.0042	0.7259	-0.018
Mof_N 	N 	0.8385	0.1617	0.70305	-0.237
Mof_C 	C 	0.956	0.16	0.63838	-0.127
Mof_H 	H 	0.996	0.2033	0.6166	0.068
Mof_C 	C 	0.0711	0.7979	0.56629	0.069
Mof_H 	H 	0.0605	0.7161	0.5639	-0.014
Mof_C 	C 	0.0102	0.8557	0.59817	-0.127
Mof_H 	H 	0.961	0.813	0.6174	0.068
Mof_C 	C 	0.0191	0.9739	0.60281	0.043
Mof_C 	C 	0.8961	0.2171	0.67138	0.068
Mof_H 	H 	0.8961	0.2998	0.6715	-0.012
Mof_C 	C 	0.9572	0.0385	0.63744	0.044
Mof_C 	C 	0.6007	0.5176	0.67149	-0.131
Mof_H 	H 	0.6009	0.6003	0.6728	0.062
Mof_C 	C 	0.4076	0.4702	0.5724	-0.129
Mof_H 	H 	0.3987	0.3879	0.5732	0.063
Mof_C 	C 	0.3492	0.5344	0.54176	0.065
Mof_H 	H 	0.301	0.4941	0.5215	-0.012
Mof_N 	N 	0.3558	0.651	0.53845	-0.239
Mof_C 	C 	0.6573	0.4548	0.703	0.067
Mof_H 	H 	0.6954	0.4958	0.7259	-0.018
Mof_N 	N 	0.6615	0.3383	0.70305	-0.238
Mof_C 	C 	0.544	0.34	0.63838	-0.127
Mof_H 	H 	0.504	0.2967	0.6166	0.068
Mof_C 	C 	0.4289	0.7021	0.56629	0.07
Mof_H 	H 	0.4395	0.7839	0.5639	-0.014
Mof_C 	C 	0.4898	0.6443	0.59817	-0.128
Mof_H 	H 	0.539	0.687	0.6174	0.068
Mof_C 	C 	0.4809	0.5261	0.60281	0.045
Mof_C 	C 	0.6039	0.2829	0.67138	0.069
Mof_H 	H 	0.6039	0.2002	0.6715	-0.012
Mof_C 	C 	0.5428	0.4615	0.63744	0.045
Mof_C 	C 	0.4824	0.3993	0.82851	-0.131
Mof_H 	H 	0.3997	0.3991	0.8272	0.063
Mof_C 	C 	0.5298	0.5924	0.9276	-0.126
Mof_H 	H 	0.6121	0.6013	0.9268	0.064
Mof_C 	C 	0.4656	0.6508	0.95824	0.066
Mof_H 	H 	0.5059	0.699	0.9785	-0.004
Mof_N 	N 	0.349	0.6442	0.96155	-0.232
Mof_C 	C 	0.5452	0.3427	0.797	0.068
Mof_H 	H 	0.5042	0.3046	0.7741	-0.018
Mof_N 	N 	0.6617	0.3385	0.79695	-0.238
Mof_C 	C 	0.66	0.456	0.86162	-0.127
Mof_H 	H 	0.7033	0.496	0.8834	0.069
Mof_C 	C 	0.2979	0.5711	0.93371	0.072
Mof_H 	H 	0.2161	0.5605	0.9361	-0.01
Mof_C 	C 	0.3557	0.5102	0.90183	-0.126
Mof_H 	H 	0.313	0.461	0.8826	0.068
Mof_C 	C 	0.4739	0.5191	0.89719	0.045
Mof_C 	C 	0.7171	0.3961	0.82862	0.069
Mof_H 	H 	0.7998	0.3961	0.8285	-0.012
Mof_C 	C 	0.5385	0.4572	0.86256	0.045
Mof_C 	C 	0.0176	0.1007	0.82851	-0.127
Mof_H 	H 	0.1003	0.1009	0.8272	0.062
Mof_C 	C 	0.9702	0.9076	0.9276	-0.125
Mof_H 	H 	0.8879	0.8987	0.9268	0.064
Mof_C 	C 	0.0344	0.8492	0.95824	0.064
Mof_H 	H 	0.9941	0.801	0.9785	-0.004
Mof_N 	N 	0.151	0.8558	0.96155	-0.232
Mof_C 	C 	0.9548	0.1573	0.797	0.065
Mof_H 	H 	0.9958	0.1954	0.7741	-0.018
Mof_N 	N 	0.8383	0.1615	0.79695	-0.237
Mof_C 	C 	0.84	0.044	0.86162	-0.126
Mof_H 	H 	0.7967	0.004	0.8834	0.068
Mof_C 	C 	0.2021	0.9289	0.93371	0.072
Mof_H 	H 	0.2839	0.9395	0.9361	-0.01
Mof_C 	C 	0.1443	0.9898	0.90183	-0.128
Mof_H 	H 	0.187	0.039	0.8826	0.07
Mof_C 	C 	0.0261	0.9809	0.89719	0.045
Mof_C 	C 	0.7829	0.1039	0.82862	0.068
Mof_H 	H 	0.7002	0.1039	0.8285	-0.012
Mof_C 	C 	0.9615	0.0428	0.86256	0.043
Mof_Cu	Cu	0.25	0.75	0.5	0.853
Mof_Cu	Cu	0.25	0.75	-0	0.842
Mof_Cu	Cu	0.75	0.25	0.25	0.85
Mof_Cu	Cu	0.75	0.25	0.75	0.85
_end
