data_functionalizedCrystal
_audit_creation_method	'EQeq! by Chris Wilmer'
_symmetry_space_group_name_H-M	'P1'
_symmetry_Int_Tables_number	1
_symmetry_cell_setting	triclinic
loop_
_symmetry_equiv_pos_as_xyz
  x,y,z
_cell_length_a	11.5324
_cell_length_b	40.8665
_cell_length_c	17.0473
_cell_angle_alpha	90
_cell_angle_beta	90
_cell_angle_gamma	90
loop_
_atom_site_label
_atom_site_type_symbol
_atom_site_fract_x
_atom_site_fract_y
_atom_site_fract_z
_atom_site_charge
Mof_Sm	Sm	0.2694	0.48543	0.44233	2.041
Mof_O 	O 	0.7059	0.6526	0.4851	-0.453
Mof_C 	C 	0.4399	0.5887	0.444	-0.23
Mof_O 	O 	0.5362	0.6854	0.2653	-0.435
Mof_O 	O 	0.7875	0.5522	0.3477	-0.528
Mof_O 	O 	0.599	0.696	0.4595	-0.323
Mof_C 	C 	0.2073	0.6498	0.3961	0.135
Mof_C 	C 	0.5347	0.6088	0.4532	0.125
Mof_H 	H 	0.6098	0.5999	0.4612	0.015
Mof_N 	N 	0.1126	0.6315	0.3729	-0.142
Mof_O 	O 	0.6795	0.7169	0.2357	-0.479
Mof_C 	C 	0.5172	0.6432	0.4503	-0.158
Mof_C 	C 	0.7217	0.5717	0.311	0.396
Mof_C 	C 	0.0289	0.65537	0.3626	0.14
Mof_C 	C 	0.4109	0.6555	0.4306	0.066
Mof_H 	H 	0.4008	0.6785	0.4265	0.016
Mof_O 	O 	0.5563	0.5415	0.459	-0.604
Mof_C 	C 	0.8763	0.6149	0.3327	0.046
Mof_H 	H 	0.9289	0.5981	0.3478	0.033
Mof_O 	O 	0.3658	0.5346	0.4649	-0.606
Mof_C 	C 	0.3315	0.601	0.4258	0.097
Mof_H 	H 	0.2679	0.5864	0.4201	-0.01
Mof_C 	C 	0.4573	0.5525	0.4547	0.55
Mof_O 	O 	0.6339	0.5624	0.2765	-0.317
Mof_C 	C 	0.8382	0.6718	0.3073	0.05
Mof_H 	H 	0.8645	0.6938	0.3047	-0.004
Mof_C 	C 	0.3146	0.6344	0.4159	-0.093
Mof_N 	N 	0.0681	0.6848	0.3785	-0.164
Mof_N 	N 	0.1809	0.6813	0.4005	-0.104
Mof_C 	C 	0.6115	0.6668	0.4649	0.4
Mof_C 	C 	0.6425	0.6903	0.2587	0.365
Mof_C 	C 	0.7275	0.664	0.2852	-0.104
Mof_C 	C 	0.763	0.6066	0.3098	-0.114
Mof_C 	C 	0.6899	0.6307	0.2851	0.048
Mof_H 	H 	0.6139	0.6253	0.2678	0.055
Mof_C 	C 	0.9119	0.647	0.3336	-0.065
Mof_H 	H 	0.719	0.6623	0.5276	0.257
Mof_H 	H 	0.0354	0.7015	0.354	0.091
Mof_Sm	Sm	0.2694	0.98543	0.94233	2.056
Mof_O 	O 	0.7059	0.1526	0.9851	-0.432
Mof_C 	C 	0.4399	0.0887	0.944	-0.226
Mof_O 	O 	0.5362	0.1854	0.7653	-0.434
Mof_O 	O 	0.7875	0.0522	0.8477	-0.527
Mof_O 	O 	0.599	0.196	0.9595	-0.316
Mof_C 	C 	0.2073	0.1498	0.8961	0.137
Mof_C 	C 	0.5347	0.1088	0.9532	0.124
Mof_H 	H 	0.6098	0.0999	0.9612	0.017
Mof_N 	N 	0.1126	0.1315	0.8729	-0.141
Mof_O 	O 	0.6795	0.2169	0.7357	-0.479
Mof_C 	C 	0.5172	0.1432	0.9503	-0.153
Mof_C 	C 	0.7217	0.0717	0.811	0.396
Mof_C 	C 	0.0289	0.15537	0.8626	0.141
Mof_C 	C 	0.4109	0.1555	0.9306	0.065
Mof_H 	H 	0.4008	0.1785	0.9265	0.018
Mof_O 	O 	0.5563	0.0415	0.959	-0.603
Mof_C 	C 	0.8763	0.1149	0.8327	0.047
Mof_H 	H 	0.9289	0.0981	0.8478	0.034
Mof_O 	O 	0.3658	0.0346	0.9649	-0.605
Mof_C 	C 	0.3315	0.101	0.9258	0.097
Mof_H 	H 	0.2679	0.0864	0.9201	-0.009
Mof_C 	C 	0.4573	0.0525	0.9547	0.551
Mof_O 	O 	0.6339	0.0624	0.7765	-0.317
Mof_C 	C 	0.8382	0.1718	0.8073	0.05
Mof_H 	H 	0.8645	0.1938	0.8047	-0.004
Mof_C 	C 	0.3146	0.1344	0.9159	-0.09
Mof_N 	N 	0.0681	0.1848	0.8785	-0.163
Mof_N 	N 	0.1809	0.1813	0.9005	-0.103
Mof_C 	C 	0.6115	0.1668	0.9649	0.395
Mof_C 	C 	0.6425	0.1903	0.7587	0.365
Mof_C 	C 	0.7275	0.164	0.7852	-0.104
Mof_C 	C 	0.763	0.1066	0.8098	-0.114
Mof_C 	C 	0.6899	0.1307	0.7851	0.047
Mof_H 	H 	0.6139	0.1253	0.7678	0.055
Mof_C 	C 	0.9119	0.147	0.8336	-0.064
Mof_H 	H 	0.719	0.1623	0.0276	0.242
Mof_H 	H 	0.0354	0.2015	0.854	0.092
Mof_Sm	Sm	0.7694	0.48543	0.94233	2.056
Mof_O 	O 	0.2059	0.6526	0.9851	-0.432
Mof_C 	C 	0.9399	0.5887	0.944	-0.226
Mof_O 	O 	0.0362	0.6854	0.7653	-0.434
Mof_O 	O 	0.2875	0.5522	0.8477	-0.527
Mof_O 	O 	0.099	0.696	0.9595	-0.316
Mof_C 	C 	0.7073	0.6498	0.8961	0.137
Mof_C 	C 	0.0347	0.6088	0.9532	0.124
Mof_H 	H 	0.1098	0.5999	0.9612	0.017
Mof_N 	N 	0.6126	0.6315	0.8729	-0.141
Mof_O 	O 	0.1795	0.7169	0.7357	-0.479
Mof_C 	C 	0.0172	0.6432	0.9503	-0.153
Mof_C 	C 	0.2217	0.5717	0.811	0.396
Mof_C 	C 	0.5289	0.65537	0.8626	0.141
Mof_C 	C 	0.9109	0.6555	0.9306	0.064
Mof_H 	H 	0.9008	0.6785	0.9265	0.018
Mof_O 	O 	0.0563	0.5415	0.959	-0.603
Mof_C 	C 	0.3763	0.6149	0.8327	0.047
Mof_H 	H 	0.4289	0.5981	0.8478	0.034
Mof_O 	O 	0.8658	0.5346	0.9649	-0.605
Mof_C 	C 	0.8315	0.601	0.9258	0.097
Mof_H 	H 	0.7679	0.5864	0.9201	-0.009
Mof_C 	C 	0.9573	0.5525	0.9547	0.551
Mof_O 	O 	0.1339	0.5624	0.7765	-0.317
Mof_C 	C 	0.3382	0.6718	0.8073	0.05
Mof_H 	H 	0.3645	0.6938	0.8047	-0.004
Mof_C 	C 	0.8146	0.6344	0.9159	-0.09
Mof_N 	N 	0.5681	0.6848	0.8785	-0.163
Mof_N 	N 	0.6809	0.6813	0.9005	-0.103
Mof_C 	C 	0.1115	0.6668	0.9649	0.395
Mof_C 	C 	0.1425	0.6903	0.7587	0.365
Mof_C 	C 	0.2275	0.664	0.7852	-0.104
Mof_C 	C 	0.263	0.6066	0.8098	-0.113
Mof_C 	C 	0.1899	0.6307	0.7851	0.047
Mof_H 	H 	0.1139	0.6253	0.7678	0.055
Mof_C 	C 	0.4119	0.647	0.8336	-0.064
Mof_H 	H 	0.219	0.6623	0.0276	0.242
Mof_H 	H 	0.5354	0.7015	0.854	0.092
Mof_Sm	Sm	0.7694	0.98543	0.44233	2.043
Mof_O 	O 	0.2059	0.1526	0.4851	-0.452
Mof_C 	C 	0.9399	0.0887	0.444	-0.229
Mof_O 	O 	0.0362	0.1854	0.2653	-0.433
Mof_O 	O 	0.2875	0.0522	0.3477	-0.527
Mof_O 	O 	0.099	0.196	0.4595	-0.322
Mof_C 	C 	0.7073	0.1498	0.3961	0.136
Mof_C 	C 	0.0347	0.1088	0.4532	0.126
Mof_H 	H 	0.1098	0.0999	0.4612	0.015
Mof_N 	N 	0.6126	0.1315	0.3729	-0.142
Mof_O 	O 	0.1795	0.2169	0.2357	-0.479
Mof_C 	C 	0.0172	0.1432	0.4503	-0.158
Mof_C 	C 	0.2217	0.0717	0.311	0.396
Mof_C 	C 	0.5289	0.15537	0.3626	0.139
Mof_C 	C 	0.9109	0.1555	0.4306	0.066
Mof_H 	H 	0.9008	0.1785	0.4265	0.016
Mof_O 	O 	0.0563	0.0415	0.459	-0.604
Mof_C 	C 	0.3763	0.1149	0.3327	0.046
Mof_H 	H 	0.4289	0.0981	0.3478	0.033
Mof_O 	O 	0.8658	0.0346	0.4649	-0.606
Mof_C 	C 	0.8315	0.101	0.4258	0.097
Mof_H 	H 	0.7679	0.0864	0.4201	-0.01
Mof_C 	C 	0.9573	0.0525	0.4547	0.55
Mof_O 	O 	0.1339	0.0624	0.2765	-0.317
Mof_C 	C 	0.3382	0.1718	0.3073	0.05
Mof_H 	H 	0.3645	0.1938	0.3047	-0.004
Mof_C 	C 	0.8146	0.1344	0.4159	-0.093
Mof_N 	N 	0.5681	0.1848	0.3785	-0.164
Mof_N 	N 	0.6809	0.1813	0.4005	-0.104
Mof_C 	C 	0.1115	0.1668	0.4649	0.4
Mof_C 	C 	0.1425	0.1903	0.2587	0.365
Mof_C 	C 	0.2275	0.164	0.2852	-0.104
Mof_C 	C 	0.263	0.1066	0.3098	-0.114
Mof_C 	C 	0.1899	0.1307	0.2851	0.048
Mof_H 	H 	0.1139	0.1253	0.2678	0.055
Mof_C 	C 	0.4119	0.147	0.3336	-0.064
Mof_H 	H 	0.219	0.1623	0.5276	0.257
Mof_H 	H 	0.5354	0.2015	0.354	0.091
Mof_Sm	Sm	0.7306	0.51457	0.44233	2.042
Mof_O 	O 	0.2941	0.3474	0.4851	-0.452
Mof_C 	C 	0.5601	0.4113	0.444	-0.229
Mof_O 	O 	0.4638	0.3146	0.2653	-0.434
Mof_O 	O 	0.2125	0.4478	0.3477	-0.527
Mof_O 	O 	0.401	0.304	0.4595	-0.322
Mof_C 	C 	0.7927	0.3502	0.3961	0.136
Mof_C 	C 	0.4653	0.3912	0.4532	0.126
Mof_H 	H 	0.3902	0.4001	0.4612	0.015
Mof_N 	N 	0.8874	0.3685	0.3729	-0.142
Mof_O 	O 	0.3205	0.2831	0.2357	-0.479
Mof_C 	C 	0.4828	0.3568	0.4503	-0.158
Mof_C 	C 	0.2783	0.4283	0.311	0.396
Mof_C 	C 	0.9711	0.34463	0.3626	0.14
Mof_C 	C 	0.5891	0.3445	0.4306	0.066
Mof_H 	H 	0.5992	0.3215	0.4265	0.016
Mof_O 	O 	0.4437	0.4585	0.459	-0.604
Mof_C 	C 	0.1237	0.3851	0.3327	0.046
Mof_H 	H 	0.0711	0.4019	0.3478	0.033
Mof_O 	O 	0.6342	0.4654	0.4649	-0.606
Mof_C 	C 	0.6685	0.399	0.4258	0.097
Mof_H 	H 	0.7321	0.4136	0.4201	-0.01
Mof_C 	C 	0.5427	0.4475	0.4547	0.55
Mof_O 	O 	0.3661	0.4376	0.2765	-0.317
Mof_C 	C 	0.1618	0.3282	0.3073	0.05
Mof_H 	H 	0.1355	0.3062	0.3047	-0.004
Mof_C 	C 	0.6854	0.3656	0.4159	-0.093
Mof_N 	N 	0.9319	0.3152	0.3785	-0.164
Mof_N 	N 	0.8191	0.3187	0.4005	-0.104
Mof_C 	C 	0.3885	0.3332	0.4649	0.4
Mof_C 	C 	0.3575	0.3097	0.2587	0.365
Mof_C 	C 	0.2725	0.336	0.2852	-0.104
Mof_C 	C 	0.237	0.3934	0.3098	-0.114
Mof_C 	C 	0.3101	0.3693	0.2851	0.048
Mof_H 	H 	0.3861	0.3747	0.2678	0.055
Mof_C 	C 	0.0881	0.353	0.3336	-0.065
Mof_H 	H 	0.281	0.3377	0.5276	0.257
Mof_H 	H 	0.9646	0.2985	0.354	0.091
Mof_Sm	Sm	0.7306	0.01457	0.94233	2.056
Mof_O 	O 	0.2941	0.8474	0.9851	-0.432
Mof_C 	C 	0.5601	0.9113	0.944	-0.226
Mof_O 	O 	0.4638	0.8146	0.7653	-0.434
Mof_O 	O 	0.2125	0.9478	0.8477	-0.527
Mof_O 	O 	0.401	0.804	0.9595	-0.316
Mof_C 	C 	0.7927	0.8502	0.8961	0.137
Mof_C 	C 	0.4653	0.8912	0.9532	0.124
Mof_H 	H 	0.3902	0.9001	0.9612	0.017
Mof_N 	N 	0.8874	0.8685	0.8729	-0.141
Mof_O 	O 	0.3205	0.7831	0.7357	-0.479
Mof_C 	C 	0.4828	0.8568	0.9503	-0.153
Mof_C 	C 	0.2783	0.9283	0.811	0.396
Mof_C 	C 	0.9711	0.84463	0.8626	0.141
Mof_C 	C 	0.5891	0.8445	0.9306	0.065
Mof_H 	H 	0.5992	0.8215	0.9265	0.018
Mof_O 	O 	0.4437	0.9585	0.959	-0.603
Mof_C 	C 	0.1237	0.8851	0.8327	0.047
Mof_H 	H 	0.0711	0.9019	0.8478	0.034
Mof_O 	O 	0.6342	0.9654	0.9649	-0.605
Mof_C 	C 	0.6685	0.899	0.9258	0.097
Mof_H 	H 	0.7321	0.9136	0.9201	-0.009
Mof_C 	C 	0.5427	0.9475	0.9547	0.551
Mof_O 	O 	0.3661	0.9376	0.7765	-0.317
Mof_C 	C 	0.1618	0.8282	0.8073	0.05
Mof_H 	H 	0.1355	0.8062	0.8047	-0.004
Mof_C 	C 	0.6854	0.8656	0.9159	-0.09
Mof_N 	N 	0.9319	0.8152	0.8785	-0.163
Mof_N 	N 	0.8191	0.8187	0.9005	-0.103
Mof_C 	C 	0.3885	0.8332	0.9649	0.395
Mof_C 	C 	0.3575	0.8097	0.7587	0.365
Mof_C 	C 	0.2725	0.836	0.7852	-0.104
Mof_C 	C 	0.237	0.8934	0.8098	-0.114
Mof_C 	C 	0.3101	0.8693	0.7851	0.047
Mof_H 	H 	0.3861	0.8747	0.7678	0.055
Mof_C 	C 	0.0881	0.853	0.8336	-0.064
Mof_H 	H 	0.281	0.8377	0.0276	0.242
Mof_H 	H 	0.9646	0.7985	0.854	0.092
Mof_Sm	Sm	0.2306	0.51457	0.94233	2.056
Mof_O 	O 	0.7941	0.3474	0.9851	-0.432
Mof_C 	C 	0.0601	0.4113	0.944	-0.226
Mof_O 	O 	0.9638	0.3146	0.7653	-0.434
Mof_O 	O 	0.7125	0.4478	0.8477	-0.527
Mof_O 	O 	0.901	0.304	0.9595	-0.316
Mof_C 	C 	0.2927	0.3502	0.8961	0.137
Mof_C 	C 	0.9653	0.3912	0.9532	0.124
Mof_H 	H 	0.8902	0.4001	0.9612	0.017
Mof_N 	N 	0.3874	0.3685	0.8729	-0.141
Mof_O 	O 	0.8205	0.2831	0.7357	-0.479
Mof_C 	C 	0.9828	0.3568	0.9503	-0.153
Mof_C 	C 	0.7783	0.4283	0.811	0.396
Mof_C 	C 	0.4711	0.34463	0.8626	0.141
Mof_C 	C 	0.0891	0.3445	0.9306	0.064
Mof_H 	H 	0.0992	0.3215	0.9265	0.018
Mof_O 	O 	0.9437	0.4585	0.959	-0.603
Mof_C 	C 	0.6237	0.3851	0.8327	0.047
Mof_H 	H 	0.5711	0.4019	0.8478	0.034
Mof_O 	O 	0.1342	0.4654	0.9649	-0.605
Mof_C 	C 	0.1685	0.399	0.9258	0.097
Mof_H 	H 	0.2321	0.4136	0.9201	-0.009
Mof_C 	C 	0.0427	0.4475	0.9547	0.551
Mof_O 	O 	0.8661	0.4376	0.7765	-0.317
Mof_C 	C 	0.6618	0.3282	0.8073	0.05
Mof_H 	H 	0.6355	0.3062	0.8047	-0.004
Mof_C 	C 	0.1854	0.3656	0.9159	-0.09
Mof_N 	N 	0.4319	0.3152	0.8785	-0.163
Mof_N 	N 	0.3191	0.3187	0.9005	-0.103
Mof_C 	C 	0.8885	0.3332	0.9649	0.395
Mof_C 	C 	0.8575	0.3097	0.7587	0.365
Mof_C 	C 	0.7725	0.336	0.7852	-0.104
Mof_C 	C 	0.737	0.3934	0.8098	-0.113
Mof_C 	C 	0.8101	0.3693	0.7851	0.047
Mof_H 	H 	0.8861	0.3747	0.7678	0.055
Mof_C 	C 	0.5881	0.353	0.8336	-0.064
Mof_H 	H 	0.781	0.3377	0.0276	0.242
Mof_H 	H 	0.4646	0.2985	0.854	0.092
Mof_Sm	Sm	0.2306	0.01457	0.44233	2.043
Mof_O 	O 	0.7941	0.8474	0.4851	-0.452
Mof_C 	C 	0.0601	0.9113	0.444	-0.229
Mof_O 	O 	0.9638	0.8146	0.2653	-0.433
Mof_O 	O 	0.7125	0.9478	0.3477	-0.527
Mof_O 	O 	0.901	0.804	0.4595	-0.322
Mof_C 	C 	0.2927	0.8502	0.3961	0.136
Mof_C 	C 	0.9653	0.8912	0.4532	0.126
Mof_H 	H 	0.8902	0.9001	0.4612	0.015
Mof_N 	N 	0.3874	0.8685	0.3729	-0.142
Mof_O 	O 	0.8205	0.7831	0.2357	-0.479
Mof_C 	C 	0.9828	0.8568	0.4503	-0.158
Mof_C 	C 	0.7783	0.9283	0.311	0.396
Mof_C 	C 	0.4711	0.84463	0.3626	0.139
Mof_C 	C 	0.0891	0.8445	0.4306	0.066
Mof_H 	H 	0.0992	0.8215	0.4265	0.016
Mof_O 	O 	0.9437	0.9585	0.459	-0.604
Mof_C 	C 	0.6237	0.8851	0.3327	0.046
Mof_H 	H 	0.5711	0.9019	0.3478	0.033
Mof_O 	O 	0.1342	0.9654	0.4649	-0.606
Mof_C 	C 	0.1685	0.899	0.4258	0.097
Mof_H 	H 	0.2321	0.9136	0.4201	-0.01
Mof_C 	C 	0.0427	0.9475	0.4547	0.55
Mof_O 	O 	0.8661	0.9376	0.2765	-0.317
Mof_C 	C 	0.6618	0.8282	0.3073	0.05
Mof_H 	H 	0.6355	0.8062	0.3047	-0.004
Mof_C 	C 	0.1854	0.8656	0.4159	-0.093
Mof_N 	N 	0.4319	0.8152	0.3785	-0.164
Mof_N 	N 	0.3191	0.8187	0.4005	-0.104
Mof_C 	C 	0.8885	0.8332	0.4649	0.4
Mof_C 	C 	0.8575	0.8097	0.2587	0.365
Mof_C 	C 	0.7725	0.836	0.2852	-0.104
Mof_C 	C 	0.737	0.8934	0.3098	-0.114
Mof_C 	C 	0.8101	0.8693	0.2851	0.048
Mof_H 	H 	0.8861	0.8747	0.2678	0.055
Mof_C 	C 	0.5881	0.853	0.3336	-0.064
Mof_H 	H 	0.781	0.8377	0.5276	0.257
Mof_H 	H 	0.4646	0.7985	0.354	0.091
Mof_Sm	Sm	0.5194	0.76457	0.69233	2.044
Mof_O 	O 	0.9559	0.5974	0.7351	-0.452
Mof_C 	C 	0.6899	0.6613	0.694	-0.229
Mof_O 	O 	0.7862	0.5646	0.5153	-0.434
Mof_O 	O 	0.0375	0.6978	0.5977	-0.527
Mof_O 	O 	0.849	0.554	0.7095	-0.322
Mof_C 	C 	0.4573	0.6002	0.6461	0.136
Mof_C 	C 	0.7847	0.6412	0.7032	0.126
Mof_H 	H 	0.8598	0.6501	0.7112	0.015
Mof_N 	N 	0.3626	0.6185	0.6229	-0.142
Mof_O 	O 	0.9295	0.5331	0.4857	-0.479
Mof_C 	C 	0.7672	0.6068	0.7003	-0.158
Mof_C 	C 	0.9717	0.6783	0.561	0.395
Mof_C 	C 	0.2789	0.59463	0.6126	0.139
Mof_C 	C 	0.6609	0.5945	0.6806	0.066
Mof_H 	H 	0.6508	0.5715	0.6765	0.016
Mof_O 	O 	0.8063	0.7085	0.709	-0.604
Mof_C 	C 	0.1263	0.6351	0.5827	0.046
Mof_H 	H 	0.1789	0.6519	0.5978	0.033
Mof_O 	O 	0.6158	0.7154	0.7149	-0.606
Mof_C 	C 	0.5815	0.649	0.6758	0.097
Mof_H 	H 	0.5179	0.6636	0.6701	-0.01
Mof_C 	C 	0.7073	0.6975	0.7047	0.55
Mof_O 	O 	0.8839	0.6876	0.5265	-0.316
Mof_C 	C 	0.0882	0.5782	0.5573	0.05
Mof_H 	H 	0.1145	0.5562	0.5547	-0.004
Mof_C 	C 	0.5646	0.6156	0.6659	-0.093
Mof_N 	N 	0.3181	0.5652	0.6285	-0.164
Mof_N 	N 	0.4309	0.5687	0.6505	-0.105
Mof_C 	C 	0.8615	0.5832	0.7149	0.4
Mof_C 	C 	0.8925	0.5597	0.5087	0.365
Mof_C 	C 	0.9775	0.586	0.5352	-0.104
Mof_C 	C 	0.013	0.6434	0.5598	-0.113
Mof_C 	C 	0.9399	0.6193	0.5351	0.047
Mof_H 	H 	0.8639	0.6247	0.5178	0.055
Mof_C 	C 	0.1619	0.603	0.5836	-0.064
Mof_H 	H 	0.969	0.5877	0.7776	0.256
Mof_H 	H 	0.2854	0.5485	0.604	0.091
Mof_Sm	Sm	0.5194	0.26457	0.19233	2.038
Mof_O 	O 	0.9559	0.0974	0.2351	-0.452
Mof_C 	C 	0.6899	0.1613	0.194	-0.229
Mof_O 	O 	0.7862	0.0646	0.0153	-0.438
Mof_O 	O 	0.0375	0.1978	0.0977	-0.528
Mof_O 	O 	0.849	0.054	0.2095	-0.323
Mof_C 	C 	0.4573	0.1002	0.1461	0.134
Mof_C 	C 	0.7847	0.1412	0.2032	0.126
Mof_H 	H 	0.8598	0.1501	0.2112	0.015
Mof_N 	N 	0.3626	0.1185	0.1229	-0.143
Mof_O 	O 	0.9295	0.0331	0.9857	-0.467
Mof_C 	C 	0.7672	0.1068	0.2003	-0.159
Mof_C 	C 	0.9717	0.1783	0.061	0.395
Mof_C 	C 	0.2789	0.09463	0.1126	0.137
Mof_C 	C 	0.6609	0.0945	0.1806	0.066
Mof_H 	H 	0.6508	0.0715	0.1765	0.015
Mof_O 	O 	0.8063	0.2085	0.209	-0.603
Mof_C 	C 	0.1263	0.1351	0.0827	0.045
Mof_H 	H 	0.1789	0.1519	0.0978	0.031
Mof_O 	O 	0.6158	0.2154	0.2149	-0.606
Mof_C 	C 	0.5815	0.149	0.1758	0.097
Mof_H 	H 	0.5179	0.1636	0.1701	-0.011
Mof_C 	C 	0.7073	0.1975	0.2047	0.549
Mof_O 	O 	0.8839	0.1876	0.0265	-0.321
Mof_C 	C 	0.0882	0.0782	0.0573	0.047
Mof_H 	H 	0.1145	0.0562	0.0547	-0.007
Mof_C 	C 	0.5646	0.1156	0.1659	-0.094
Mof_N 	N 	0.3181	0.0652	0.1285	-0.163
Mof_N 	N 	0.4309	0.0687	0.1505	-0.106
Mof_C 	C 	0.8615	0.0832	0.2149	0.4
Mof_C 	C 	0.8925	0.0597	0.0087	0.35
Mof_C 	C 	0.9775	0.086	0.0352	-0.103
Mof_C 	C 	0.013	0.1434	0.0598	-0.115
Mof_C 	C 	0.9399	0.1193	0.0351	0.045
Mof_H 	H 	0.8639	0.1247	0.0178	0.052
Mof_C 	C 	0.1619	0.103	0.0836	-0.065
Mof_H 	H 	0.969	0.0877	0.2776	0.257
Mof_H 	H 	0.2854	0.0485	0.104	0.088
Mof_Sm	Sm	0.0194	0.76457	0.19233	2.039
Mof_O 	O 	0.4559	0.5974	0.2351	-0.452
Mof_C 	C 	0.1899	0.6613	0.194	-0.229
Mof_O 	O 	0.2862	0.5646	0.0153	-0.438
Mof_O 	O 	0.5375	0.6978	0.0977	-0.529
Mof_O 	O 	0.349	0.554	0.2095	-0.323
Mof_C 	C 	0.9573	0.6002	0.1461	0.134
Mof_C 	C 	0.2847	0.6412	0.2032	0.126
Mof_H 	H 	0.3598	0.6501	0.2112	0.015
Mof_N 	N 	0.8626	0.6185	0.1229	-0.143
Mof_O 	O 	0.4295	0.5331	0.9857	-0.467
Mof_C 	C 	0.2672	0.6068	0.2003	-0.159
Mof_C 	C 	0.4717	0.6783	0.061	0.396
Mof_C 	C 	0.7789	0.59463	0.1126	0.137
Mof_C 	C 	0.1609	0.5945	0.1806	0.066
Mof_H 	H 	0.1508	0.5715	0.1765	0.015
Mof_O 	O 	0.3063	0.7085	0.209	-0.603
Mof_C 	C 	0.6263	0.6351	0.0827	0.045
Mof_H 	H 	0.6789	0.6519	0.0978	0.031
Mof_O 	O 	0.1158	0.7154	0.2149	-0.606
Mof_C 	C 	0.0815	0.649	0.1758	0.096
Mof_H 	H 	0.0179	0.6636	0.1701	-0.011
Mof_C 	C 	0.2073	0.6975	0.2047	0.549
Mof_O 	O 	0.3839	0.6876	0.0265	-0.321
Mof_C 	C 	0.5882	0.5782	0.0573	0.047
Mof_H 	H 	0.6145	0.5562	0.0547	-0.007
Mof_C 	C 	0.0646	0.6156	0.1659	-0.094
Mof_N 	N 	0.8181	0.5652	0.1285	-0.163
Mof_N 	N 	0.9309	0.5687	0.1505	-0.106
Mof_C 	C 	0.3615	0.5832	0.2149	0.4
Mof_C 	C 	0.3925	0.5597	0.0087	0.35
Mof_C 	C 	0.4775	0.586	0.0352	-0.103
Mof_C 	C 	0.513	0.6434	0.0598	-0.116
Mof_C 	C 	0.4399	0.6193	0.0351	0.046
Mof_H 	H 	0.3639	0.6247	0.0178	0.052
Mof_C 	C 	0.6619	0.603	0.0836	-0.066
Mof_H 	H 	0.469	0.5877	0.2776	0.257
Mof_H 	H 	0.7854	0.5485	0.104	0.088
Mof_Sm	Sm	0.0194	0.26457	0.69233	2.044
Mof_O 	O 	0.4559	0.0974	0.7351	-0.452
Mof_C 	C 	0.1899	0.1613	0.694	-0.229
Mof_O 	O 	0.2862	0.0646	0.5153	-0.434
Mof_O 	O 	0.5375	0.1978	0.5977	-0.527
Mof_O 	O 	0.349	0.054	0.7095	-0.322
Mof_C 	C 	0.9573	0.1002	0.6461	0.136
Mof_C 	C 	0.2847	0.1412	0.7032	0.126
Mof_H 	H 	0.3598	0.1501	0.7112	0.015
Mof_N 	N 	0.8626	0.1185	0.6229	-0.142
Mof_O 	O 	0.4295	0.0331	0.4857	-0.479
Mof_C 	C 	0.2672	0.1068	0.7003	-0.158
Mof_C 	C 	0.4717	0.1783	0.561	0.396
Mof_C 	C 	0.7789	0.09463	0.6126	0.139
Mof_C 	C 	0.1609	0.0945	0.6806	0.066
Mof_H 	H 	0.1508	0.0715	0.6765	0.016
Mof_O 	O 	0.3063	0.2085	0.709	-0.604
Mof_C 	C 	0.6263	0.1351	0.5827	0.046
Mof_H 	H 	0.6789	0.1519	0.5978	0.033
Mof_O 	O 	0.1158	0.2154	0.7149	-0.606
Mof_C 	C 	0.0815	0.149	0.6758	0.097
Mof_H 	H 	0.0179	0.1636	0.6701	-0.01
Mof_C 	C 	0.2073	0.1975	0.7047	0.55
Mof_O 	O 	0.3839	0.1876	0.5265	-0.316
Mof_C 	C 	0.5882	0.0782	0.5573	0.05
Mof_H 	H 	0.6145	0.0562	0.5547	-0.004
Mof_C 	C 	0.0646	0.1156	0.6659	-0.093
Mof_N 	N 	0.8181	0.0652	0.6285	-0.164
Mof_N 	N 	0.9309	0.0687	0.6505	-0.104
Mof_C 	C 	0.3615	0.0832	0.7149	0.4
Mof_C 	C 	0.3925	0.0597	0.5087	0.365
Mof_C 	C 	0.4775	0.086	0.5352	-0.104
Mof_C 	C 	0.513	0.1434	0.5598	-0.114
Mof_C 	C 	0.4399	0.1193	0.5351	0.048
Mof_H 	H 	0.3639	0.1247	0.5178	0.055
Mof_C 	C 	0.6619	0.103	0.5836	-0.065
Mof_H 	H 	0.469	0.0877	0.7776	0.256
Mof_H 	H 	0.7854	0.0485	0.604	0.091
Mof_Sm	Sm	0.9806	0.73543	0.69233	2.044
Mof_O 	O 	0.5441	0.9026	0.7351	-0.452
Mof_C 	C 	0.8101	0.8387	0.694	-0.229
Mof_O 	O 	0.7138	0.9354	0.5153	-0.434
Mof_O 	O 	0.4625	0.8022	0.5977	-0.527
Mof_O 	O 	0.651	0.946	0.7095	-0.322
Mof_C 	C 	0.0427	0.8998	0.6461	0.136
Mof_C 	C 	0.7153	0.8588	0.7032	0.126
Mof_H 	H 	0.6402	0.8499	0.7112	0.015
Mof_N 	N 	0.1374	0.8815	0.6229	-0.142
Mof_O 	O 	0.5705	0.9669	0.4857	-0.479
Mof_C 	C 	0.7328	0.8932	0.7003	-0.158
Mof_C 	C 	0.5283	0.8217	0.561	0.396
Mof_C 	C 	0.2211	0.90537	0.6126	0.139
Mof_C 	C 	0.8391	0.9055	0.6806	0.066
Mof_H 	H 	0.8492	0.9285	0.6765	0.016
Mof_O 	O 	0.6937	0.7915	0.709	-0.604
Mof_C 	C 	0.3737	0.8649	0.5827	0.046
Mof_H 	H 	0.3211	0.8481	0.5978	0.033
Mof_O 	O 	0.8842	0.7846	0.7149	-0.606
Mof_C 	C 	0.9185	0.851	0.6758	0.097
Mof_H 	H 	0.9821	0.8364	0.6701	-0.01
Mof_C 	C 	0.7927	0.8025	0.7047	0.55
Mof_O 	O 	0.6161	0.8124	0.5265	-0.316
Mof_C 	C 	0.4118	0.9218	0.5573	0.05
Mof_H 	H 	0.3855	0.9438	0.5547	-0.004
Mof_C 	C 	0.9354	0.8844	0.6659	-0.093
Mof_N 	N 	0.1819	0.9348	0.6285	-0.164
Mof_N 	N 	0.0691	0.9313	0.6505	-0.104
Mof_C 	C 	0.6385	0.9168	0.7149	0.4
Mof_C 	C 	0.6075	0.9403	0.5087	0.365
Mof_C 	C 	0.5225	0.914	0.5352	-0.104
Mof_C 	C 	0.487	0.8566	0.5598	-0.114
Mof_C 	C 	0.5601	0.8807	0.5351	0.048
Mof_H 	H 	0.6361	0.8753	0.5178	0.055
Mof_C 	C 	0.3381	0.897	0.5836	-0.065
Mof_H 	H 	0.531	0.9123	0.7776	0.256
Mof_H 	H 	0.2146	0.9515	0.604	0.091
Mof_Sm	Sm	0.9806	0.23543	0.19233	2.039
Mof_O 	O 	0.5441	0.4026	0.2351	-0.452
Mof_C 	C 	0.8101	0.3387	0.194	-0.229
Mof_O 	O 	0.7138	0.4354	0.0153	-0.438
Mof_O 	O 	0.4625	0.3022	0.0977	-0.529
Mof_O 	O 	0.651	0.446	0.2095	-0.323
Mof_C 	C 	0.0427	0.3998	0.1461	0.134
Mof_C 	C 	0.7153	0.3588	0.2032	0.126
Mof_H 	H 	0.6402	0.3499	0.2112	0.015
Mof_N 	N 	0.1374	0.3815	0.1229	-0.143
Mof_O 	O 	0.5705	0.4669	0.9857	-0.467
Mof_C 	C 	0.7328	0.3932	0.2003	-0.159
Mof_C 	C 	0.5283	0.3217	0.061	0.396
Mof_C 	C 	0.2211	0.40537	0.1126	0.137
Mof_C 	C 	0.8391	0.4055	0.1806	0.066
Mof_H 	H 	0.8492	0.4285	0.1765	0.015
Mof_O 	O 	0.6937	0.2915	0.209	-0.603
Mof_C 	C 	0.3737	0.3649	0.0827	0.045
Mof_H 	H 	0.3211	0.3481	0.0978	0.031
Mof_O 	O 	0.8842	0.2846	0.2149	-0.606
Mof_C 	C 	0.9185	0.351	0.1758	0.096
Mof_H 	H 	0.9821	0.3364	0.1701	-0.011
Mof_C 	C 	0.7927	0.3025	0.2047	0.549
Mof_O 	O 	0.6161	0.3124	0.0265	-0.321
Mof_C 	C 	0.4118	0.4218	0.0573	0.047
Mof_H 	H 	0.3855	0.4438	0.0547	-0.007
Mof_C 	C 	0.9354	0.3844	0.1659	-0.094
Mof_N 	N 	0.1819	0.4348	0.1285	-0.163
Mof_N 	N 	0.0691	0.4313	0.1505	-0.106
Mof_C 	C 	0.6385	0.4168	0.2149	0.4
Mof_C 	C 	0.6075	0.4403	0.0087	0.35
Mof_C 	C 	0.5225	0.414	0.0352	-0.103
Mof_C 	C 	0.487	0.3566	0.0598	-0.116
Mof_C 	C 	0.5601	0.3807	0.0351	0.046
Mof_H 	H 	0.6361	0.3753	0.0178	0.052
Mof_C 	C 	0.3381	0.397	0.0836	-0.066
Mof_H 	H 	0.531	0.4123	0.2776	0.257
Mof_H 	H 	0.2146	0.4515	0.104	0.088
Mof_Sm	Sm	0.4806	0.73543	0.19233	2.038
Mof_O 	O 	0.0441	0.9026	0.2351	-0.452
Mof_C 	C 	0.3101	0.8387	0.194	-0.229
Mof_O 	O 	0.2138	0.9354	0.0153	-0.438
Mof_O 	O 	0.9625	0.8022	0.0977	-0.528
Mof_O 	O 	0.151	0.946	0.2095	-0.323
Mof_C 	C 	0.5427	0.8998	0.1461	0.134
Mof_C 	C 	0.2153	0.8588	0.2032	0.126
Mof_H 	H 	0.1402	0.8499	0.2112	0.015
Mof_N 	N 	0.6374	0.8815	0.1229	-0.143
Mof_O 	O 	0.0705	0.9669	0.9857	-0.467
Mof_C 	C 	0.2328	0.8932	0.2003	-0.159
Mof_C 	C 	0.0283	0.8217	0.061	0.395
Mof_C 	C 	0.7211	0.90537	0.1126	0.137
Mof_C 	C 	0.3391	0.9055	0.1806	0.066
Mof_H 	H 	0.3492	0.9285	0.1765	0.015
Mof_O 	O 	0.1937	0.7915	0.209	-0.603
Mof_C 	C 	0.8737	0.8649	0.0827	0.045
Mof_H 	H 	0.8211	0.8481	0.0978	0.031
Mof_O 	O 	0.3842	0.7846	0.2149	-0.606
Mof_C 	C 	0.4185	0.851	0.1758	0.097
Mof_H 	H 	0.4821	0.8364	0.1701	-0.011
Mof_C 	C 	0.2927	0.8025	0.2047	0.549
Mof_O 	O 	0.1161	0.8124	0.0265	-0.321
Mof_C 	C 	0.9118	0.9218	0.0573	0.047
Mof_H 	H 	0.8855	0.9438	0.0547	-0.007
Mof_C 	C 	0.4354	0.8844	0.1659	-0.094
Mof_N 	N 	0.6819	0.9348	0.1285	-0.163
Mof_N 	N 	0.5691	0.9313	0.1505	-0.106
Mof_C 	C 	0.1385	0.9168	0.2149	0.4
Mof_C 	C 	0.1075	0.9403	0.0087	0.35
Mof_C 	C 	0.0225	0.914	0.0352	-0.103
Mof_C 	C 	0.987	0.8566	0.0598	-0.115
Mof_C 	C 	0.0601	0.8807	0.0351	0.045
Mof_H 	H 	0.1361	0.8753	0.0178	0.052
Mof_C 	C 	0.8381	0.897	0.0836	-0.065
Mof_H 	H 	0.031	0.9123	0.2776	0.257
Mof_H 	H 	0.7146	0.9515	0.104	0.088
Mof_Sm	Sm	0.4806	0.23543	0.69233	2.044
Mof_O 	O 	0.0441	0.4026	0.7351	-0.452
Mof_C 	C 	0.3101	0.3387	0.694	-0.229
Mof_O 	O 	0.2138	0.4354	0.5153	-0.434
Mof_O 	O 	0.9625	0.3022	0.5977	-0.527
Mof_O 	O 	0.151	0.446	0.7095	-0.322
Mof_C 	C 	0.5427	0.3998	0.6461	0.136
Mof_C 	C 	0.2153	0.3588	0.7032	0.126
Mof_H 	H 	0.1402	0.3499	0.7112	0.015
Mof_N 	N 	0.6374	0.3815	0.6229	-0.142
Mof_O 	O 	0.0705	0.4669	0.4857	-0.479
Mof_C 	C 	0.2328	0.3932	0.7003	-0.158
Mof_C 	C 	0.0283	0.3217	0.561	0.395
Mof_C 	C 	0.7211	0.40537	0.6126	0.139
Mof_C 	C 	0.3391	0.4055	0.6806	0.066
Mof_H 	H 	0.3492	0.4285	0.6765	0.016
Mof_O 	O 	0.1937	0.2915	0.709	-0.604
Mof_C 	C 	0.8737	0.3649	0.5827	0.046
Mof_H 	H 	0.8211	0.3481	0.5978	0.033
Mof_O 	O 	0.3842	0.2846	0.7149	-0.606
Mof_C 	C 	0.4185	0.351	0.6758	0.097
Mof_H 	H 	0.4821	0.3364	0.6701	-0.01
Mof_C 	C 	0.2927	0.3025	0.7047	0.55
Mof_O 	O 	0.1161	0.3124	0.5265	-0.316
Mof_C 	C 	0.9118	0.4218	0.5573	0.05
Mof_H 	H 	0.8855	0.4438	0.5547	-0.004
Mof_C 	C 	0.4354	0.3844	0.6659	-0.093
Mof_N 	N 	0.6819	0.4348	0.6285	-0.164
Mof_N 	N 	0.5691	0.4313	0.6505	-0.105
Mof_C 	C 	0.1385	0.4168	0.7149	0.4
Mof_C 	C 	0.1075	0.4403	0.5087	0.365
Mof_C 	C 	0.0225	0.414	0.5352	-0.104
Mof_C 	C 	0.987	0.3566	0.5598	-0.113
Mof_C 	C 	0.0601	0.3807	0.5351	0.047
Mof_H 	H 	0.1361	0.3753	0.5178	0.055
Mof_C 	C 	0.8381	0.397	0.5836	-0.064
Mof_H 	H 	0.031	0.4123	0.7776	0.256
Mof_H 	H 	0.7146	0.4515	0.604	0.091
_end
