data_functionalizedCrystal
_audit_creation_method	'EQeq! by Chris Wilmer'
_symmetry_space_group_name_H-M	'P1'
_symmetry_Int_Tables_number	1
_symmetry_cell_setting	triclinic
loop_
_symmetry_equiv_pos_as_xyz
  x,y,z
_cell_length_a	22.782
_cell_length_b	9.758
_cell_length_c	26.413
_cell_angle_alpha	90
_cell_angle_beta	97.28
_cell_angle_gamma	90
loop_
_atom_site_label
_atom_site_type_symbol
_atom_site_fract_x
_atom_site_fract_y
_atom_site_fract_z
_atom_site_charge
Mof_Zn	Zn	0.21459	0.37839	0.48988	1.213
Mof_N 	N 	0.986	0.5035	0.477	-0.066
Mof_C 	C 	0.9841	0.3759	0.4498	0.041
Mof_C 	C 	0.9444	0.3613	0.4057	-0.06
Mof_H 	H 	0.9196	0.4336	0.3941	0.036
Mof_C 	C 	0.9417	0.2387	0.3787	0.034
Mof_H 	H 	0.9152	0.2289	0.3491	0.006
Mof_C 	C 	0.9788	0.1306	0.3959	-0.04
Mof_H 	H 	0.977	0.0486	0.3779	0.03
Mof_C 	C 	0.0184	0.1453	0.4401	-0.009
Mof_C 	C 	0.0211	0.2679	0.4671	-0.043
Mof_H 	H 	0.0477	0.2777	0.4966	0.054
Mof_C 	C 	0.0588	0.023	0.4602	-0.019
Mof_H 	H 	0.0848	0.0354	0.4899	-0.018
Mof_C 	C 	0.0955	0.7861	0.45	0.092
Mof_C 	C 	0.139	0.7905	0.4919	-0.108
Mof_H 	H 	0.1447	0.8699	0.5113	0.07
Mof_C 	C 	0.1741	0.676	0.5047	-0.02
Mof_H 	H 	0.2033	0.6789	0.5327	-0.102
Mof_N 	N 	0.1657	0.5573	0.4756	-0.136
Mof_C 	C 	0.1221	0.553	0.4337	0.121
Mof_H 	H 	0.1165	0.4735	0.4143	-0.151
Mof_C 	C 	0.087	0.6674	0.4209	0
Mof_H 	H 	0.0579	0.6645	0.3929	0.009
Mof_C 	C 	0.0579	0.9039	0.4374	-0.127
Mof_H 	H 	0.0292	0.8935	0.4093	0.023
Mof_C 	C 	0.3179	0.3187	0.4337	0.427
Mof_C 	C 	0.3492	0.3447	0.3878	-0.233
Mof_C 	C 	0.3279	0.4458	0.3534	0.18
Mof_H 	H 	0.296	0.4999	0.3596	-0.019
Mof_C 	C 	0.3548	0.4657	0.3094	-0.304
Mof_H 	H 	0.3418	0.5351	0.2865	0.14
Mof_C 	C 	0.4014	0.38	0.3	0.314
Mof_C 	C 	0.4228	0.2854	0.3349	-0.32
Mof_H 	H 	0.4555	0.233	0.3294	0.155
Mof_C 	C 	0.3961	0.2658	0.3788	0.194
Mof_H 	H 	0.4104	0.1987	0.4021	-0.025
Mof_C 	C 	0.3992	0.4638	0.2123	0.326
Mof_C 	C 	0.3539	0.3921	0.1877	-0.326
Mof_H 	H 	0.3421	0.3083	0.1998	0.154
Mof_C 	C 	0.3255	0.4509	0.1428	0.19
Mof_H 	H 	0.2945	0.4047	0.1238	-0.022
Mof_C 	C 	0.3432	0.5779	0.1263	-0.231
Mof_C 	C 	0.3898	0.6425	0.153	0.186
Mof_H 	H 	0.4027	0.7255	0.1411	-0.014
Mof_C 	C 	0.4194	0.5865	0.1986	-0.318
Mof_H 	H 	0.4507	0.6312	0.2179	0.15
Mof_C 	C 	0.3127	0.6433	0.0779	0.437
Mof_O 	O 	0.2792	0.4052	0.4432	-0.471
Mof_O 	O 	0.3331	0.2152	0.4595	-0.475
Mof_O 	O 	0.4305	0.3979	0.2567	-0.303
Mof_O 	O 	0.2734	0.5715	0.0516	-0.482
Mof_O 	O 	0.3273	0.7604	0.0673	-0.472
Mof_N 	N 	0.0135	0.4527	0.5008	-0.025
Mof_C 	C 	0.9939	0.3433	0.4662	0.049
Mof_C 	C 	0.9445	0.3599	0.4301	-0.04
Mof_H 	H 	0.9238	0.4422	0.4281	0.055
Mof_C 	C 	0.9261	0.2534	0.3968	-0.029
Mof_H 	H 	0.893	0.2645	0.3727	0.03
Mof_C 	C 	0.9571	0.1304	0.3997	-0.058
Mof_H 	H 	0.9448	0.0592	0.3775	0.044
Mof_C 	C 	0.0065	0.1138	0.4358	0.048
Mof_C 	C 	0.025	0.2203	0.469	-0.061
Mof_H 	H 	0.058	0.2092	0.4932	0.041
Mof_C 	C 	0.0394	0.987	0.438	0.037
Mof_H 	H 	0.0265	0.9226	0.4132	0.04
Mof_C 	C 	0.1164	0.8145	0.4732	0.063
Mof_C 	C 	0.1643	0.7916	0.5103	-0.054
Mof_H 	H 	0.1776	0.8611	0.5331	0.036
Mof_C 	C 	0.1925	0.665	0.5135	0.146
Mof_H 	H 	0.2245	0.6497	0.5383	0.051
Mof_N 	N 	0.1727	0.5612	0.4795	-0.055
Mof_C 	C 	0.1248	0.584	0.4424	-0.167
Mof_H 	H 	0.1116	0.5146	0.4196	0.174
Mof_C 	C 	0.0967	0.7107	0.4392	-0.103
Mof_H 	H 	0.0646	0.726	0.4144	0.056
Mof_C 	C 	0.085	0.9513	0.4705	-0.028
Mof_H 	H 	0.0996	0.0167	0.4944	0.062
Mof_Zn	Zn	0.71459	0.87839	0.48988	1.214
Mof_N 	N 	0.486	0.0035	0.477	-0.065
Mof_C 	C 	0.4841	0.8759	0.4498	0.042
Mof_C 	C 	0.4444	0.8613	0.4057	-0.059
Mof_H 	H 	0.4196	0.9336	0.3941	0.037
Mof_C 	C 	0.4417	0.7387	0.3787	0.035
Mof_H 	H 	0.4152	0.7289	0.3491	0.007
Mof_C 	C 	0.4788	0.6306	0.3959	-0.039
Mof_H 	H 	0.477	0.5486	0.3779	0.031
Mof_C 	C 	0.5184	0.6453	0.4401	-0.009
Mof_C 	C 	0.5211	0.7679	0.4671	-0.042
Mof_H 	H 	0.5477	0.7777	0.4966	0.055
Mof_C 	C 	0.5588	0.523	0.4602	-0.018
Mof_H 	H 	0.5848	0.5354	0.4899	-0.017
Mof_C 	C 	0.5955	0.2861	0.45	0.093
Mof_C 	C 	0.639	0.2905	0.4919	-0.107
Mof_H 	H 	0.6447	0.3699	0.5113	0.071
Mof_C 	C 	0.6741	0.176	0.5047	-0.019
Mof_H 	H 	0.7033	0.1789	0.5327	-0.101
Mof_N 	N 	0.6657	0.0573	0.4756	-0.135
Mof_C 	C 	0.6221	0.053	0.4337	0.122
Mof_H 	H 	0.6165	0.9735	0.4143	-0.15
Mof_C 	C 	0.587	0.1674	0.4209	0.001
Mof_H 	H 	0.5579	0.1645	0.3929	0.009
Mof_C 	C 	0.5579	0.4039	0.4374	-0.127
Mof_H 	H 	0.5292	0.3935	0.4093	0.023
Mof_C 	C 	0.8179	0.8187	0.4337	0.427
Mof_C 	C 	0.8492	0.8447	0.3878	-0.234
Mof_C 	C 	0.8279	0.9458	0.3534	0.18
Mof_H 	H 	0.796	0.9999	0.3596	-0.019
Mof_C 	C 	0.8548	0.9657	0.3094	-0.304
Mof_H 	H 	0.8418	0.0351	0.2865	0.14
Mof_C 	C 	0.9014	0.88	0.3	0.314
Mof_C 	C 	0.9228	0.7854	0.3349	-0.32
Mof_H 	H 	0.9555	0.733	0.3294	0.155
Mof_C 	C 	0.8961	0.7658	0.3788	0.194
Mof_H 	H 	0.9104	0.6987	0.4021	-0.025
Mof_C 	C 	0.8992	0.9638	0.2123	0.325
Mof_C 	C 	0.8539	0.8921	0.1877	-0.325
Mof_H 	H 	0.8421	0.8083	0.1998	0.154
Mof_C 	C 	0.8255	0.9509	0.1428	0.188
Mof_H 	H 	0.7945	0.9047	0.1238	-0.021
Mof_C 	C 	0.8432	0.0779	0.1263	-0.229
Mof_C 	C 	0.8898	0.1425	0.153	0.185
Mof_H 	H 	0.9027	0.2255	0.1411	-0.013
Mof_C 	C 	0.9194	0.0865	0.1986	-0.316
Mof_H 	H 	0.9507	0.1312	0.2179	0.15
Mof_C 	C 	0.8127	0.1433	0.0779	0.437
Mof_O 	O 	0.7792	0.9052	0.4432	-0.471
Mof_O 	O 	0.8331	0.7152	0.4595	-0.475
Mof_O 	O 	0.9305	0.8979	0.2567	-0.303
Mof_O 	O 	0.7734	0.0715	0.0516	-0.481
Mof_O 	O 	0.8273	0.2604	0.0673	-0.472
Mof_N 	N 	0.5135	0.9527	0.5008	-0.025
Mof_C 	C 	0.4939	0.8433	0.4662	0.049
Mof_C 	C 	0.4445	0.8599	0.4301	-0.04
Mof_H 	H 	0.4238	0.9422	0.4281	0.055
Mof_C 	C 	0.4261	0.7534	0.3968	-0.029
Mof_H 	H 	0.393	0.7645	0.3727	0.03
Mof_C 	C 	0.4571	0.6304	0.3997	-0.058
Mof_H 	H 	0.4448	0.5592	0.3775	0.044
Mof_C 	C 	0.5065	0.6138	0.4358	0.048
Mof_C 	C 	0.525	0.7203	0.469	-0.061
Mof_H 	H 	0.558	0.7092	0.4932	0.041
Mof_C 	C 	0.5394	0.487	0.438	0.037
Mof_H 	H 	0.5265	0.4226	0.4132	0.04
Mof_C 	C 	0.6164	0.3145	0.4732	0.064
Mof_C 	C 	0.6643	0.2916	0.5103	-0.054
Mof_H 	H 	0.6776	0.3611	0.5331	0.036
Mof_C 	C 	0.6925	0.165	0.5135	0.146
Mof_H 	H 	0.7245	0.1497	0.5383	0.051
Mof_N 	N 	0.6727	0.0612	0.4795	-0.055
Mof_C 	C 	0.6248	0.084	0.4424	-0.167
Mof_H 	H 	0.6116	0.0146	0.4196	0.174
Mof_C 	C 	0.5967	0.2107	0.4392	-0.103
Mof_H 	H 	0.5646	0.226	0.4144	0.056
Mof_C 	C 	0.585	0.4513	0.4705	-0.028
Mof_H 	H 	0.5996	0.5167	0.4944	0.063
Mof_Zn	Zn	0.78541	0.37839	0.01012	1.214
Mof_N 	N 	0.014	0.5035	0.023	-0.066
Mof_C 	C 	0.0159	0.3759	0.0502	0.042
Mof_C 	C 	0.0556	0.3613	0.0943	-0.06
Mof_H 	H 	0.0804	0.4336	0.1059	0.037
Mof_C 	C 	0.0583	0.2387	0.1213	0.035
Mof_H 	H 	0.0848	0.2289	0.1509	0.007
Mof_C 	C 	0.0212	0.1306	0.1041	-0.039
Mof_H 	H 	0.023	0.0486	0.1221	0.031
Mof_C 	C 	0.9816	0.1453	0.0599	-0.008
Mof_C 	C 	0.9789	0.2679	0.0329	-0.043
Mof_H 	H 	0.9523	0.2777	0.0034	0.055
Mof_C 	C 	0.9412	0.023	0.0398	-0.015
Mof_H 	H 	0.9152	0.0354	0.0101	-0.012
Mof_C 	C 	0.9045	0.7861	0.05	0.096
Mof_C 	C 	0.861	0.7905	0.0081	-0.107
Mof_H 	H 	0.8553	0.8699	0.9887	0.073
Mof_C 	C 	0.8259	0.676	0.9953	-0.018
Mof_H 	H 	0.7967	0.6789	0.9673	-0.101
Mof_N 	N 	0.8343	0.5573	0.0244	-0.135
Mof_C 	C 	0.8779	0.553	0.0663	0.122
Mof_H 	H 	0.8835	0.4735	0.0857	-0.15
Mof_C 	C 	0.913	0.6674	0.0791	-0.002
Mof_H 	H 	0.9421	0.6645	0.1071	0.01
Mof_C 	C 	0.9421	0.9039	0.0626	-0.125
Mof_H 	H 	0.9708	0.8935	0.0907	0.025
Mof_C 	C 	0.6821	0.3187	0.0663	0.427
Mof_C 	C 	0.6508	0.3447	0.1122	-0.233
Mof_C 	C 	0.6721	0.4458	0.1466	0.18
Mof_H 	H 	0.704	0.4999	0.1404	-0.019
Mof_C 	C 	0.6452	0.4657	0.1906	-0.304
Mof_H 	H 	0.6582	0.5351	0.2135	0.14
Mof_C 	C 	0.5986	0.38	0.2	0.313
Mof_C 	C 	0.5772	0.2854	0.1651	-0.32
Mof_H 	H 	0.5445	0.233	0.1706	0.155
Mof_C 	C 	0.6039	0.2658	0.1212	0.194
Mof_H 	H 	0.5896	0.1987	0.0979	-0.025
Mof_C 	C 	0.6008	0.4638	0.2877	0.326
Mof_C 	C 	0.6461	0.3921	0.3123	-0.326
Mof_H 	H 	0.6579	0.3083	0.3002	0.154
Mof_C 	C 	0.6745	0.4509	0.3572	0.19
Mof_H 	H 	0.7055	0.4047	0.3762	-0.022
Mof_C 	C 	0.6568	0.5779	0.3737	-0.231
Mof_C 	C 	0.6102	0.6425	0.347	0.186
Mof_H 	H 	0.5973	0.7255	0.3589	-0.014
Mof_C 	C 	0.5806	0.5865	0.3014	-0.318
Mof_H 	H 	0.5493	0.6312	0.2821	0.15
Mof_C 	C 	0.6873	0.6433	0.4221	0.437
Mof_O 	O 	0.7208	0.4052	0.0568	-0.471
Mof_O 	O 	0.6669	0.2152	0.0405	-0.475
Mof_O 	O 	0.5695	0.3979	0.2433	-0.303
Mof_O 	O 	0.7266	0.5715	0.4484	-0.482
Mof_O 	O 	0.6727	0.7604	0.4327	-0.472
Mof_N 	N 	0.9865	0.4527	0.9992	-0.025
Mof_C 	C 	0.0061	0.3433	0.0338	0.049
Mof_C 	C 	0.0555	0.3599	0.0699	-0.04
Mof_H 	H 	0.0762	0.4422	0.0719	0.055
Mof_C 	C 	0.0739	0.2534	0.1032	-0.029
Mof_H 	H 	0.107	0.2645	0.1273	0.03
Mof_C 	C 	0.0429	0.1304	0.1003	-0.058
Mof_H 	H 	0.0552	0.0592	0.1225	0.044
Mof_C 	C 	0.9935	0.1138	0.0642	0.047
Mof_C 	C 	0.975	0.2203	0.031	-0.061
Mof_H 	H 	0.942	0.2092	0.0068	0.04
Mof_C 	C 	0.9606	0.987	0.062	0.033
Mof_H 	H 	0.9735	0.9226	0.0868	0.038
Mof_C 	C 	0.8836	0.8145	0.0268	0.06
Mof_C 	C 	0.8357	0.7916	0.9897	-0.052
Mof_H 	H 	0.8224	0.8611	0.9669	0.035
Mof_C 	C 	0.8075	0.665	0.9865	0.146
Mof_H 	H 	0.7755	0.6497	0.9617	0.051
Mof_N 	N 	0.8273	0.5612	0.0205	-0.055
Mof_C 	C 	0.8752	0.584	0.0576	-0.167
Mof_H 	H 	0.8884	0.5146	0.0804	0.174
Mof_C 	C 	0.9033	0.7107	0.0608	-0.103
Mof_H 	H 	0.9354	0.726	0.0856	0.056
Mof_C 	C 	0.915	0.9513	0.0295	-0.029
Mof_H 	H 	0.9004	0.0167	0.0056	0.058
Mof_Zn	Zn	0.28541	0.87839	0.01012	1.214
Mof_N 	N 	0.514	0.0035	0.023	-0.065
Mof_C 	C 	0.5159	0.8759	0.0502	0.041
Mof_C 	C 	0.5556	0.8613	0.0943	-0.059
Mof_H 	H 	0.5804	0.9336	0.1059	0.037
Mof_C 	C 	0.5583	0.7387	0.1213	0.035
Mof_H 	H 	0.5848	0.7289	0.1509	0.008
Mof_C 	C 	0.5212	0.6306	0.1041	-0.039
Mof_H 	H 	0.523	0.5486	0.1221	0.031
Mof_C 	C 	0.4816	0.6453	0.0599	-0.009
Mof_C 	C 	0.4789	0.7679	0.0329	-0.042
Mof_H 	H 	0.4523	0.7777	0.0034	0.055
Mof_C 	C 	0.4412	0.523	0.0398	-0.018
Mof_H 	H 	0.4152	0.5354	0.0101	-0.017
Mof_C 	C 	0.4045	0.2861	0.05	0.093
Mof_C 	C 	0.361	0.2905	0.0081	-0.108
Mof_H 	H 	0.3553	0.3699	0.9887	0.071
Mof_C 	C 	0.3259	0.176	0.9953	-0.019
Mof_H 	H 	0.2967	0.1789	0.9673	-0.1
Mof_N 	N 	0.3343	0.0573	0.0244	-0.135
Mof_C 	C 	0.3779	0.053	0.0663	0.122
Mof_H 	H 	0.3835	0.9735	0.0857	-0.147
Mof_C 	C 	0.413	0.1674	0.0791	-0
Mof_H 	H 	0.4421	0.1645	0.1071	0.009
Mof_C 	C 	0.4421	0.4039	0.0626	-0.127
Mof_H 	H 	0.4708	0.3935	0.0907	0.023
Mof_C 	C 	0.1821	0.8187	0.0663	0.427
Mof_C 	C 	0.1508	0.8447	0.1122	-0.234
Mof_C 	C 	0.1721	0.9458	0.1466	0.18
Mof_H 	H 	0.204	0.9999	0.1404	-0.02
Mof_C 	C 	0.1452	0.9657	0.1906	-0.305
Mof_H 	H 	0.1582	0.0351	0.2135	0.14
Mof_C 	C 	0.0986	0.88	0.2	0.314
Mof_C 	C 	0.0772	0.7854	0.1651	-0.321
Mof_H 	H 	0.0445	0.733	0.1706	0.155
Mof_C 	C 	0.1039	0.7658	0.1212	0.194
Mof_H 	H 	0.0896	0.6987	0.0979	-0.025
Mof_C 	C 	0.1008	0.9638	0.2877	0.326
Mof_C 	C 	0.1461	0.8921	0.3123	-0.326
Mof_H 	H 	0.1579	0.8083	0.3002	0.154
Mof_C 	C 	0.1745	0.9509	0.3572	0.189
Mof_H 	H 	0.2055	0.9047	0.3762	-0.021
Mof_C 	C 	0.1568	0.0779	0.3737	-0.23
Mof_C 	C 	0.1102	0.1425	0.347	0.185
Mof_H 	H 	0.0973	0.2255	0.3589	-0.013
Mof_C 	C 	0.0806	0.0865	0.3014	-0.317
Mof_H 	H 	0.0493	0.1312	0.2821	0.15
Mof_C 	C 	0.1873	0.1433	0.4221	0.437
Mof_O 	O 	0.2208	0.9052	0.0568	-0.471
Mof_O 	O 	0.1669	0.7152	0.0405	-0.475
Mof_O 	O 	0.0695	0.8979	0.2433	-0.303
Mof_O 	O 	0.2266	0.0715	0.4484	-0.482
Mof_O 	O 	0.1727	0.2604	0.4327	-0.472
Mof_N 	N 	0.4865	0.9527	0.9992	-0.025
Mof_C 	C 	0.5061	0.8433	0.0338	0.049
Mof_C 	C 	0.5555	0.8599	0.0699	-0.04
Mof_H 	H 	0.5762	0.9422	0.0719	0.054
Mof_C 	C 	0.5739	0.7534	0.1032	-0.029
Mof_H 	H 	0.607	0.7645	0.1273	0.03
Mof_C 	C 	0.5429	0.6304	0.1003	-0.058
Mof_H 	H 	0.5552	0.5592	0.1225	0.044
Mof_C 	C 	0.4935	0.6138	0.0642	0.048
Mof_C 	C 	0.475	0.7203	0.031	-0.061
Mof_H 	H 	0.442	0.7092	0.0068	0.041
Mof_C 	C 	0.4606	0.487	0.062	0.038
Mof_H 	H 	0.4735	0.4226	0.0868	0.041
Mof_C 	C 	0.3836	0.3145	0.0268	0.065
Mof_C 	C 	0.3357	0.2916	0.9897	-0.054
Mof_H 	H 	0.3224	0.3611	0.9669	0.036
Mof_C 	C 	0.3075	0.165	0.9865	0.145
Mof_H 	H 	0.2755	0.1497	0.9617	0.05
Mof_N 	N 	0.3273	0.0612	0.0205	-0.056
Mof_C 	C 	0.3752	0.084	0.0576	-0.164
Mof_H 	H 	0.3884	0.0146	0.0804	0.17
Mof_C 	C 	0.4033	0.2107	0.0608	-0.104
Mof_H 	H 	0.4354	0.226	0.0856	0.057
Mof_C 	C 	0.415	0.4513	0.0295	-0.028
Mof_H 	H 	0.4004	0.5167	0.0056	0.063
Mof_Zn	Zn	0.78541	0.62161	0.51012	1.214
Mof_N 	N 	0.014	0.4965	0.523	-0.065
Mof_C 	C 	0.0159	0.6241	0.5502	0.042
Mof_C 	C 	0.0556	0.6387	0.5943	-0.059
Mof_H 	H 	0.0804	0.5664	0.6059	0.037
Mof_C 	C 	0.0583	0.7613	0.6213	0.035
Mof_H 	H 	0.0848	0.7711	0.6509	0.007
Mof_C 	C 	0.0212	0.8694	0.6041	-0.039
Mof_H 	H 	0.023	0.9514	0.6221	0.031
Mof_C 	C 	0.9816	0.8547	0.5599	-0.008
Mof_C 	C 	0.9789	0.7321	0.5329	-0.042
Mof_H 	H 	0.9523	0.7223	0.5034	0.055
Mof_C 	C 	0.9412	0.977	0.5398	-0.018
Mof_H 	H 	0.9152	0.9646	0.5101	-0.017
Mof_C 	C 	0.9045	0.2139	0.55	0.093
Mof_C 	C 	0.861	0.2095	0.5081	-0.107
Mof_H 	H 	0.8553	0.1301	0.4887	0.071
Mof_C 	C 	0.8259	0.324	0.4953	-0.019
Mof_H 	H 	0.7967	0.3211	0.4673	-0.101
Mof_N 	N 	0.8343	0.4427	0.5244	-0.135
Mof_C 	C 	0.8779	0.447	0.5663	0.122
Mof_H 	H 	0.8835	0.5265	0.5857	-0.15
Mof_C 	C 	0.913	0.3326	0.5791	0
Mof_H 	H 	0.9421	0.3355	0.6071	0.009
Mof_C 	C 	0.9421	0.0961	0.5626	-0.127
Mof_H 	H 	0.9708	0.1065	0.5907	0.023
Mof_C 	C 	0.6821	0.6813	0.5663	0.427
Mof_C 	C 	0.6508	0.6553	0.6122	-0.233
Mof_C 	C 	0.6721	0.5542	0.6466	0.18
Mof_H 	H 	0.704	0.5001	0.6404	-0.019
Mof_C 	C 	0.6452	0.5343	0.6906	-0.304
Mof_H 	H 	0.6582	0.4649	0.7135	0.14
Mof_C 	C 	0.5986	0.62	0.7	0.314
Mof_C 	C 	0.5772	0.7146	0.6651	-0.32
Mof_H 	H 	0.5445	0.767	0.6706	0.155
Mof_C 	C 	0.6039	0.7342	0.6212	0.194
Mof_H 	H 	0.5896	0.8013	0.5979	-0.025
Mof_C 	C 	0.6008	0.5362	0.7877	0.326
Mof_C 	C 	0.6461	0.6079	0.8123	-0.326
Mof_H 	H 	0.6579	0.6917	0.8002	0.154
Mof_C 	C 	0.6745	0.5491	0.8572	0.19
Mof_H 	H 	0.7055	0.5953	0.8762	-0.022
Mof_C 	C 	0.6568	0.4221	0.8737	-0.231
Mof_C 	C 	0.6102	0.3575	0.847	0.186
Mof_H 	H 	0.5973	0.2745	0.8589	-0.014
Mof_C 	C 	0.5806	0.4135	0.8014	-0.318
Mof_H 	H 	0.5493	0.3688	0.7821	0.15
Mof_C 	C 	0.6873	0.3567	0.9221	0.437
Mof_O 	O 	0.7208	0.5948	0.5568	-0.471
Mof_O 	O 	0.6669	0.7848	0.5405	-0.475
Mof_O 	O 	0.5695	0.6021	0.7433	-0.303
Mof_O 	O 	0.7266	0.4285	0.9484	-0.482
Mof_O 	O 	0.6727	0.2396	0.9327	-0.472
Mof_N 	N 	0.9865	0.5473	0.4992	-0.025
Mof_C 	C 	0.0061	0.6567	0.5338	0.049
Mof_C 	C 	0.0555	0.6401	0.5699	-0.04
Mof_H 	H 	0.0762	0.5578	0.5719	0.055
Mof_C 	C 	0.0739	0.7466	0.6032	-0.029
Mof_H 	H 	0.107	0.7355	0.6273	0.03
Mof_C 	C 	0.0429	0.8696	0.6003	-0.058
Mof_H 	H 	0.0552	0.9408	0.6225	0.044
Mof_C 	C 	0.9935	0.8862	0.5642	0.048
Mof_C 	C 	0.975	0.7797	0.531	-0.061
Mof_H 	H 	0.942	0.7908	0.5068	0.041
Mof_C 	C 	0.9606	0.013	0.562	0.037
Mof_H 	H 	0.9735	0.0774	0.5868	0.04
Mof_C 	C 	0.8836	0.1855	0.5268	0.063
Mof_C 	C 	0.8357	0.2084	0.4897	-0.054
Mof_H 	H 	0.8224	0.1389	0.4669	0.036
Mof_C 	C 	0.8075	0.335	0.4865	0.146
Mof_H 	H 	0.7755	0.3503	0.4617	0.051
Mof_N 	N 	0.8273	0.4388	0.5205	-0.055
Mof_C 	C 	0.8752	0.416	0.5576	-0.167
Mof_H 	H 	0.8884	0.4854	0.5804	0.174
Mof_C 	C 	0.9033	0.2893	0.5608	-0.103
Mof_H 	H 	0.9354	0.274	0.5856	0.056
Mof_C 	C 	0.915	0.0487	0.5295	-0.028
Mof_H 	H 	0.9004	0.9833	0.5056	0.062
Mof_Zn	Zn	0.28541	0.12161	0.51012	1.214
Mof_N 	N 	0.514	0.9965	0.523	-0.065
Mof_C 	C 	0.5159	0.1241	0.5502	0.042
Mof_C 	C 	0.5556	0.1387	0.5943	-0.059
Mof_H 	H 	0.5804	0.0664	0.6059	0.037
Mof_C 	C 	0.5583	0.2613	0.6213	0.035
Mof_H 	H 	0.5848	0.2711	0.6509	0.007
Mof_C 	C 	0.5212	0.3694	0.6041	-0.039
Mof_H 	H 	0.523	0.4514	0.6221	0.031
Mof_C 	C 	0.4816	0.3547	0.5599	-0.009
Mof_C 	C 	0.4789	0.2321	0.5329	-0.042
Mof_H 	H 	0.4523	0.2223	0.5034	0.055
Mof_C 	C 	0.4412	0.477	0.5398	-0.018
Mof_H 	H 	0.4152	0.4646	0.5101	-0.017
Mof_C 	C 	0.4045	0.7139	0.55	0.093
Mof_C 	C 	0.361	0.7095	0.5081	-0.107
Mof_H 	H 	0.3553	0.6301	0.4887	0.071
Mof_C 	C 	0.3259	0.824	0.4953	-0.019
Mof_H 	H 	0.2967	0.8211	0.4673	-0.101
Mof_N 	N 	0.3343	0.9427	0.5244	-0.135
Mof_C 	C 	0.3779	0.947	0.5663	0.122
Mof_H 	H 	0.3835	0.0265	0.5857	-0.15
Mof_C 	C 	0.413	0.8326	0.5791	0.001
Mof_H 	H 	0.4421	0.8355	0.6071	0.009
Mof_C 	C 	0.4421	0.5961	0.5626	-0.127
Mof_H 	H 	0.4708	0.6065	0.5907	0.023
Mof_C 	C 	0.1821	0.1813	0.5663	0.427
Mof_C 	C 	0.1508	0.1553	0.6122	-0.234
Mof_C 	C 	0.1721	0.0542	0.6466	0.18
Mof_H 	H 	0.204	0.0001	0.6404	-0.019
Mof_C 	C 	0.1452	0.0343	0.6906	-0.304
Mof_H 	H 	0.1582	0.9649	0.7135	0.14
Mof_C 	C 	0.0986	0.12	0.7	0.314
Mof_C 	C 	0.0772	0.2146	0.6651	-0.32
Mof_H 	H 	0.0445	0.267	0.6706	0.155
Mof_C 	C 	0.1039	0.2342	0.6212	0.194
Mof_H 	H 	0.0896	0.3013	0.5979	-0.025
Mof_C 	C 	0.1008	0.0362	0.7877	0.325
Mof_C 	C 	0.1461	0.1079	0.8123	-0.325
Mof_H 	H 	0.1579	0.1917	0.8002	0.154
Mof_C 	C 	0.1745	0.0491	0.8572	0.188
Mof_H 	H 	0.2055	0.0953	0.8762	-0.021
Mof_C 	C 	0.1568	0.9221	0.8737	-0.229
Mof_C 	C 	0.1102	0.8575	0.847	0.185
Mof_H 	H 	0.0973	0.7745	0.8589	-0.013
Mof_C 	C 	0.0806	0.9135	0.8014	-0.316
Mof_H 	H 	0.0493	0.8688	0.7821	0.15
Mof_C 	C 	0.1873	0.8567	0.9221	0.437
Mof_O 	O 	0.2208	0.0948	0.5568	-0.471
Mof_O 	O 	0.1669	0.2848	0.5405	-0.475
Mof_O 	O 	0.0695	0.1021	0.7433	-0.303
Mof_O 	O 	0.2266	0.9285	0.9484	-0.481
Mof_O 	O 	0.1727	0.7396	0.9327	-0.472
Mof_N 	N 	0.4865	0.0473	0.4992	-0.025
Mof_C 	C 	0.5061	0.1567	0.5338	0.049
Mof_C 	C 	0.5555	0.1401	0.5699	-0.04
Mof_H 	H 	0.5762	0.0578	0.5719	0.055
Mof_C 	C 	0.5739	0.2466	0.6032	-0.029
Mof_H 	H 	0.607	0.2355	0.6273	0.03
Mof_C 	C 	0.5429	0.3696	0.6003	-0.058
Mof_H 	H 	0.5552	0.4408	0.6225	0.044
Mof_C 	C 	0.4935	0.3862	0.5642	0.048
Mof_C 	C 	0.475	0.2797	0.531	-0.061
Mof_H 	H 	0.442	0.2908	0.5068	0.041
Mof_C 	C 	0.4606	0.513	0.562	0.037
Mof_H 	H 	0.4735	0.5774	0.5868	0.04
Mof_C 	C 	0.3836	0.6855	0.5268	0.064
Mof_C 	C 	0.3357	0.7084	0.4897	-0.054
Mof_H 	H 	0.3224	0.6389	0.4669	0.036
Mof_C 	C 	0.3075	0.835	0.4865	0.146
Mof_H 	H 	0.2755	0.8503	0.4617	0.051
Mof_N 	N 	0.3273	0.9388	0.5205	-0.055
Mof_C 	C 	0.3752	0.916	0.5576	-0.167
Mof_H 	H 	0.3884	0.9854	0.5804	0.174
Mof_C 	C 	0.4033	0.7893	0.5608	-0.103
Mof_H 	H 	0.4354	0.774	0.5856	0.056
Mof_C 	C 	0.415	0.5487	0.5295	-0.028
Mof_H 	H 	0.4004	0.4833	0.5056	0.063
Mof_Zn	Zn	0.21459	0.62161	0.98988	1.214
Mof_N 	N 	0.986	0.4965	0.977	-0.066
Mof_C 	C 	0.9841	0.6241	0.9498	0.042
Mof_C 	C 	0.9444	0.6387	0.9057	-0.06
Mof_H 	H 	0.9196	0.5664	0.8941	0.037
Mof_C 	C 	0.9417	0.7613	0.8787	0.035
Mof_H 	H 	0.9152	0.7711	0.8491	0.007
Mof_C 	C 	0.9788	0.8694	0.8959	-0.039
Mof_H 	H 	0.977	0.9514	0.8779	0.031
Mof_C 	C 	0.0184	0.8547	0.9401	-0.008
Mof_C 	C 	0.0211	0.7321	0.9671	-0.043
Mof_H 	H 	0.0477	0.7223	0.9966	0.055
Mof_C 	C 	0.0588	0.977	0.9602	-0.015
Mof_H 	H 	0.0848	0.9646	0.9899	-0.012
Mof_C 	C 	0.0955	0.2139	0.95	0.096
Mof_C 	C 	0.139	0.2095	0.9919	-0.107
Mof_H 	H 	0.1447	0.1301	0.0113	0.073
Mof_C 	C 	0.1741	0.324	0.0047	-0.018
Mof_H 	H 	0.2033	0.3211	0.0327	-0.101
Mof_N 	N 	0.1657	0.4427	0.9756	-0.135
Mof_C 	C 	0.1221	0.447	0.9337	0.122
Mof_H 	H 	0.1165	0.5265	0.9143	-0.15
Mof_C 	C 	0.087	0.3326	0.9209	-0.002
Mof_H 	H 	0.0579	0.3355	0.8929	0.01
Mof_C 	C 	0.0579	0.0961	0.9374	-0.125
Mof_H 	H 	0.0292	0.1065	0.9093	0.025
Mof_C 	C 	0.3179	0.6813	0.9337	0.427
Mof_C 	C 	0.3492	0.6553	0.8878	-0.233
Mof_C 	C 	0.3279	0.5542	0.8534	0.18
Mof_H 	H 	0.296	0.5001	0.8596	-0.019
Mof_C 	C 	0.3548	0.5343	0.8094	-0.304
Mof_H 	H 	0.3418	0.4649	0.7865	0.14
Mof_C 	C 	0.4014	0.62	0.8	0.313
Mof_C 	C 	0.4228	0.7146	0.8349	-0.32
Mof_H 	H 	0.4555	0.767	0.8294	0.155
Mof_C 	C 	0.3961	0.7342	0.8788	0.194
Mof_H 	H 	0.4104	0.8013	0.9021	-0.025
Mof_C 	C 	0.3992	0.5362	0.7123	0.326
Mof_C 	C 	0.3539	0.6079	0.6877	-0.326
Mof_H 	H 	0.3421	0.6917	0.6998	0.154
Mof_C 	C 	0.3255	0.5491	0.6428	0.19
Mof_H 	H 	0.2945	0.5953	0.6238	-0.022
Mof_C 	C 	0.3432	0.4221	0.6263	-0.231
Mof_C 	C 	0.3898	0.3575	0.653	0.186
Mof_H 	H 	0.4027	0.2745	0.6411	-0.014
Mof_C 	C 	0.4194	0.4135	0.6986	-0.318
Mof_H 	H 	0.4507	0.3688	0.7179	0.15
Mof_C 	C 	0.3127	0.3567	0.5779	0.437
Mof_O 	O 	0.2792	0.5948	0.9432	-0.471
Mof_O 	O 	0.3331	0.7848	0.9595	-0.475
Mof_O 	O 	0.4305	0.6021	0.7567	-0.303
Mof_O 	O 	0.2734	0.4285	0.5516	-0.482
Mof_O 	O 	0.3273	0.2396	0.5673	-0.472
Mof_N 	N 	0.0135	0.5473	0.0008	-0.025
Mof_C 	C 	0.9939	0.6567	0.9662	0.049
Mof_C 	C 	0.9445	0.6401	0.9301	-0.04
Mof_H 	H 	0.9238	0.5578	0.9281	0.055
Mof_C 	C 	0.9261	0.7466	0.8968	-0.029
Mof_H 	H 	0.893	0.7355	0.8727	0.03
Mof_C 	C 	0.9571	0.8696	0.8997	-0.058
Mof_H 	H 	0.9448	0.9408	0.8775	0.044
Mof_C 	C 	0.0065	0.8862	0.9358	0.047
Mof_C 	C 	0.025	0.7797	0.969	-0.061
Mof_H 	H 	0.058	0.7908	0.9932	0.04
Mof_C 	C 	0.0394	0.013	0.938	0.033
Mof_H 	H 	0.0265	0.0774	0.9132	0.038
Mof_C 	C 	0.1164	0.1855	0.9732	0.06
Mof_C 	C 	0.1643	0.2084	0.0103	-0.052
Mof_H 	H 	0.1776	0.1389	0.0331	0.035
Mof_C 	C 	0.1925	0.335	0.0135	0.146
Mof_H 	H 	0.2245	0.3503	0.0383	0.051
Mof_N 	N 	0.1727	0.4388	0.9795	-0.055
Mof_C 	C 	0.1248	0.416	0.9424	-0.167
Mof_H 	H 	0.1116	0.4854	0.9196	0.174
Mof_C 	C 	0.0967	0.2893	0.9392	-0.103
Mof_H 	H 	0.0646	0.274	0.9144	0.056
Mof_C 	C 	0.085	0.0487	0.9705	-0.029
Mof_H 	H 	0.0996	0.9833	0.9944	0.058
Mof_Zn	Zn	0.71459	0.12161	0.98988	1.214
Mof_N 	N 	0.486	0.9965	0.977	-0.065
Mof_C 	C 	0.4841	0.1241	0.9498	0.041
Mof_C 	C 	0.4444	0.1387	0.9057	-0.059
Mof_H 	H 	0.4196	0.0664	0.8941	0.037
Mof_C 	C 	0.4417	0.2613	0.8787	0.035
Mof_H 	H 	0.4152	0.2711	0.8491	0.008
Mof_C 	C 	0.4788	0.3694	0.8959	-0.039
Mof_H 	H 	0.477	0.4514	0.8779	0.031
Mof_C 	C 	0.5184	0.3547	0.9401	-0.009
Mof_C 	C 	0.5211	0.2321	0.9671	-0.042
Mof_H 	H 	0.5477	0.2223	0.9966	0.055
Mof_C 	C 	0.5588	0.477	0.9602	-0.018
Mof_H 	H 	0.5848	0.4646	0.9899	-0.017
Mof_C 	C 	0.5955	0.7139	0.95	0.093
Mof_C 	C 	0.639	0.7095	0.9919	-0.108
Mof_H 	H 	0.6447	0.6301	0.0113	0.071
Mof_C 	C 	0.6741	0.824	0.0047	-0.019
Mof_H 	H 	0.7033	0.8211	0.0327	-0.1
Mof_N 	N 	0.6657	0.9427	0.9756	-0.135
Mof_C 	C 	0.6221	0.947	0.9337	0.122
Mof_H 	H 	0.6165	0.0265	0.9143	-0.147
Mof_C 	C 	0.587	0.8326	0.9209	-0
Mof_H 	H 	0.5579	0.8355	0.8929	0.009
Mof_C 	C 	0.5579	0.5961	0.9374	-0.127
Mof_H 	H 	0.5292	0.6065	0.9093	0.023
Mof_C 	C 	0.8179	0.1813	0.9337	0.427
Mof_C 	C 	0.8492	0.1553	0.8878	-0.234
Mof_C 	C 	0.8279	0.0542	0.8534	0.18
Mof_H 	H 	0.796	0.0001	0.8596	-0.02
Mof_C 	C 	0.8548	0.0343	0.8094	-0.305
Mof_H 	H 	0.8418	0.9649	0.7865	0.14
Mof_C 	C 	0.9014	0.12	0.8	0.314
Mof_C 	C 	0.9228	0.2146	0.8349	-0.321
Mof_H 	H 	0.9555	0.267	0.8294	0.155
Mof_C 	C 	0.8961	0.2342	0.8788	0.194
Mof_H 	H 	0.9104	0.3013	0.9021	-0.025
Mof_C 	C 	0.8992	0.0362	0.7123	0.326
Mof_C 	C 	0.8539	0.1079	0.6877	-0.326
Mof_H 	H 	0.8421	0.1917	0.6998	0.154
Mof_C 	C 	0.8255	0.0491	0.6428	0.189
Mof_H 	H 	0.7945	0.0953	0.6238	-0.021
Mof_C 	C 	0.8432	0.9221	0.6263	-0.23
Mof_C 	C 	0.8898	0.8575	0.653	0.185
Mof_H 	H 	0.9027	0.7745	0.6411	-0.013
Mof_C 	C 	0.9194	0.9135	0.6986	-0.317
Mof_H 	H 	0.9507	0.8688	0.7179	0.15
Mof_C 	C 	0.8127	0.8567	0.5779	0.437
Mof_O 	O 	0.7792	0.0948	0.9432	-0.471
Mof_O 	O 	0.8331	0.2848	0.9595	-0.475
Mof_O 	O 	0.9305	0.1021	0.7567	-0.303
Mof_O 	O 	0.7734	0.9285	0.5516	-0.482
Mof_O 	O 	0.8273	0.7396	0.5673	-0.472
Mof_N 	N 	0.5135	0.0473	0.0008	-0.025
Mof_C 	C 	0.4939	0.1567	0.9662	0.049
Mof_C 	C 	0.4445	0.1401	0.9301	-0.04
Mof_H 	H 	0.4238	0.0578	0.9281	0.054
Mof_C 	C 	0.4261	0.2466	0.8968	-0.029
Mof_H 	H 	0.393	0.2355	0.8727	0.03
Mof_C 	C 	0.4571	0.3696	0.8997	-0.058
Mof_H 	H 	0.4448	0.4408	0.8775	0.044
Mof_C 	C 	0.5065	0.3862	0.9358	0.048
Mof_C 	C 	0.525	0.2797	0.969	-0.061
Mof_H 	H 	0.558	0.2908	0.9932	0.041
Mof_C 	C 	0.5394	0.513	0.938	0.038
Mof_H 	H 	0.5265	0.5774	0.9132	0.041
Mof_C 	C 	0.6164	0.6855	0.9732	0.065
Mof_C 	C 	0.6643	0.7084	0.0103	-0.054
Mof_H 	H 	0.6776	0.6389	0.0331	0.036
Mof_C 	C 	0.6925	0.835	0.0135	0.145
Mof_H 	H 	0.7245	0.8503	0.0383	0.05
Mof_N 	N 	0.6727	0.9388	0.9795	-0.056
Mof_C 	C 	0.6248	0.916	0.9424	-0.164
Mof_H 	H 	0.6116	0.9854	0.9196	0.17
Mof_C 	C 	0.5967	0.7893	0.9392	-0.104
Mof_H 	H 	0.5646	0.774	0.9144	0.057
Mof_C 	C 	0.585	0.5487	0.9705	-0.028
Mof_H 	H 	0.5996	0.4833	0.9944	0.063
_end
