data_functionalizedCrystal
_audit_creation_method	'EQeq! by Chris Wilmer'
_symmetry_space_group_name_H-M	'P1'
_symmetry_Int_Tables_number	1
_symmetry_cell_setting	triclinic
loop_
_symmetry_equiv_pos_as_xyz
  x,y,z
_cell_length_a	26.2092
_cell_length_b	11.6278
_cell_length_c	16.1167
_cell_angle_alpha	90
_cell_angle_beta	122.49
_cell_angle_gamma	90
loop_
_atom_site_label
_atom_site_type_symbol
_atom_site_fract_x
_atom_site_fract_y
_atom_site_fract_z
_atom_site_charge
Mof_Cu	Cu	0.24229	0.11737	0.44998	0.798
Mof_Cu	Cu	0.31227	0.23223	0.3277	0.81
Mof_Cu	Cu	0.56794	0.35388	0.50811	0.807
Mof_N 	N 	0.4241	0.1774	0.6339	-0.32
Mof_N 	N 	0.3269	0.1463	0.5243	-0.288
Mof_N 	N 	0.35157	0.1996	0.477	-0.244
Mof_N 	N 	0.3893	0.2581	0.3418	-0.302
Mof_N 	N 	0.48567	0.3076	0.4134	-0.267
Mof_N 	N 	0.46131	0.3019	0.3132	-0.252
Mof_N 	N 	0.57487	0.4823	0.3537	-0.241
Mof_N 	N 	0.60266	0.4625	0.453	-0.253
Mof_N 	N 	0.66742	0.5575	0.4287	-0.3
Mof_N 	N 	0.62977	0.6895	0.1447	-0.298
Mof_N 	N 	0.72665	0.7198	0.2597	-0.274
Mof_N 	N 	0.70167	0.6557	0.3014	-0.244
Mof_C 	C 	0.366	0.0774	0.6955	-0.545
Mof_H 	H 	0.3234	0.0606	0.6699	0.122
Mof_H 	H 	0.3819	0.1289	0.7522	0.135
Mof_H 	H 	0.3892	0.0055	0.7157	0.126
Mof_C 	C 	0.3712	0.1333	0.6178	0.18
Mof_C 	C 	0.4091	0.2175	0.5446	0.141
Mof_C 	C 	0.4534	0.2789	0.5293	-0.325
Mof_H 	H 	0.4936	0.2437	0.5736	0.035
Mof_H 	H 	0.4559	0.3595	0.5508	0.062
Mof_C 	C 	0.4418	0.2808	0.4277	0.124
Mof_C 	C 	0.404	0.2725	0.2733	0.172
Mof_C 	C 	0.3607	0.2541	0.1655	-0.5
Mof_H 	H 	0.3833	0.242	0.1337	0.108
Mof_H 	H 	0.3347	0.3219	0.137	0.123
Mof_H 	H 	0.3357	0.1864	0.1553	0.111
Mof_C 	C 	0.7032	0.5132	0.6032	-0.475
Mof_H 	H 	0.6826	0.5086	0.6388	0.103
Mof_H 	H 	0.7259	0.5855	0.6196	0.069
Mof_H 	H 	0.7312	0.4483	0.622	0.103
Mof_C 	C 	0.6577	0.509	0.4954	0.161
Mof_C 	C 	0.6144	0.5386	0.3416	0.135
Mof_C 	C 	0.5989	0.5734	0.2411	-0.318
Mof_H 	H 	0.5615	0.6202	0.2109	0.044
Mof_H 	H 	0.589	0.5026	0.2012	0.06
Mof_C 	C 	0.6447	0.6394	0.2317	0.128
Mof_C 	C 	0.6829	0.7395	0.1668	0.17
Mof_C 	C 	0.6904	0.8086	0.0968	-0.52
Mof_H 	H 	0.7272	0.8551	0.1333	0.105
Mof_H 	H 	0.6553	0.8592	0.0592	0.115
Mof_H 	H 	0.6935	0.7571	0.0517	0.123
Mof_Cu	Cu	0.74229	0.61737	0.44998	0.797
Mof_Cu	Cu	0.81227	0.73223	0.3277	0.811
Mof_Cu	Cu	0.06794	0.85388	0.50811	0.785
Mof_N 	N 	0.9241	0.6774	0.6339	-0.305
Mof_N 	N 	0.8269	0.6463	0.5243	-0.289
Mof_N 	N 	0.85157	0.6996	0.477	-0.245
Mof_N 	N 	0.8893	0.7581	0.3418	-0.304
Mof_N 	N 	0.98567	0.8076	0.4134	-0.243
Mof_N 	N 	0.96131	0.8019	0.3132	-0.231
Mof_N 	N 	0.07487	0.9823	0.3537	-0.249
Mof_N 	N 	0.10266	0.9625	0.453	-0.258
Mof_N 	N 	0.16742	0.0575	0.4287	-0.298
Mof_N 	N 	0.12977	0.1895	0.1447	-0.303
Mof_N 	N 	0.22665	0.2198	0.2597	-0.274
Mof_N 	N 	0.20167	0.1557	0.3014	-0.243
Mof_C 	C 	0.866	0.5774	0.6955	-0.561
Mof_H 	H 	0.8234	0.5606	0.6699	0.127
Mof_H 	H 	0.8819	0.6289	0.7522	0.149
Mof_H 	H 	0.8892	0.5055	0.7157	0.14
Mof_C 	C 	0.8712	0.6333	0.6178	0.191
Mof_C 	C 	0.9091	0.7175	0.5446	0.156
Mof_C 	C 	0.9534	0.7789	0.5293	-0.348
Mof_H 	H 	0.9936	0.7437	0.5736	0.072
Mof_H 	H 	0.9559	0.8595	0.5508	0.085
Mof_C 	C 	0.9418	0.7808	0.4277	0.141
Mof_C 	C 	0.904	0.7725	0.2733	0.181
Mof_C 	C 	0.8607	0.7541	0.1655	-0.512
Mof_H 	H 	0.8833	0.742	0.1337	0.123
Mof_H 	H 	0.8347	0.8219	0.137	0.128
Mof_H 	H 	0.8357	0.6864	0.1553	0.117
Mof_C 	C 	0.2032	0.0132	0.6032	-0.47
Mof_H 	H 	0.1826	0.0086	0.6388	0.103
Mof_H 	H 	0.2259	0.0855	0.6196	0.068
Mof_H 	H 	0.2312	0.9483	0.622	0.101
Mof_C 	C 	0.1577	0.009	0.4954	0.161
Mof_C 	C 	0.1144	0.0386	0.3416	0.128
Mof_C 	C 	0.0989	0.0734	0.2411	-0.303
Mof_H 	H 	0.0615	0.1202	0.2109	0.02
Mof_H 	H 	0.089	0.0026	0.2012	0.049
Mof_C 	C 	0.1447	0.1394	0.2317	0.12
Mof_C 	C 	0.1829	0.2395	0.1668	0.166
Mof_C 	C 	0.1904	0.3086	0.0968	-0.51
Mof_H 	H 	0.2272	0.3551	0.1333	0.101
Mof_H 	H 	0.1553	0.3592	0.0592	0.105
Mof_H 	H 	0.1935	0.2571	0.0517	0.118
Mof_Cu	Cu	0.75771	0.11737	0.05002	0.797
Mof_Cu	Cu	0.68773	0.23223	0.1723	0.81
Mof_Cu	Cu	0.43206	0.35388	0.99189	0.805
Mof_N 	N 	0.5759	0.1774	0.8661	-0.32
Mof_N 	N 	0.6731	0.1463	0.9757	-0.289
Mof_N 	N 	0.64843	0.1996	0.023	-0.242
Mof_N 	N 	0.6107	0.2581	0.1582	-0.303
Mof_N 	N 	0.51433	0.3076	0.0866	-0.266
Mof_N 	N 	0.53869	0.3019	0.1868	-0.252
Mof_N 	N 	0.42513	0.4823	0.1463	-0.241
Mof_N 	N 	0.39734	0.4625	0.047	-0.253
Mof_N 	N 	0.33258	0.5575	0.0713	-0.3
Mof_N 	N 	0.37023	0.6895	0.3553	-0.298
Mof_N 	N 	0.27335	0.7198	0.2403	-0.274
Mof_N 	N 	0.29833	0.6557	0.1986	-0.244
Mof_C 	C 	0.634	0.0774	0.8045	-0.545
Mof_H 	H 	0.6766	0.0606	0.8301	0.122
Mof_H 	H 	0.6181	0.1289	0.7478	0.134
Mof_H 	H 	0.6108	0.0055	0.7843	0.126
Mof_C 	C 	0.6288	0.1333	0.8822	0.18
Mof_C 	C 	0.5909	0.2175	0.9554	0.139
Mof_C 	C 	0.5466	0.2789	0.9707	-0.328
Mof_H 	H 	0.5064	0.2437	0.9264	0.036
Mof_H 	H 	0.5441	0.3595	0.9492	0.062
Mof_C 	C 	0.5582	0.2808	0.0723	0.127
Mof_C 	C 	0.596	0.2725	0.2267	0.171
Mof_C 	C 	0.6393	0.2541	0.3345	-0.498
Mof_H 	H 	0.6167	0.242	0.3663	0.107
Mof_H 	H 	0.6653	0.3219	0.363	0.122
Mof_H 	H 	0.6643	0.1864	0.3447	0.11
Mof_C 	C 	0.2968	0.5132	0.8968	-0.486
Mof_H 	H 	0.3174	0.5086	0.8612	0.106
Mof_H 	H 	0.2741	0.5855	0.8804	0.071
Mof_H 	H 	0.2688	0.4483	0.878	0.106
Mof_C 	C 	0.3423	0.509	0.0046	0.169
Mof_C 	C 	0.3856	0.5386	0.1584	0.135
Mof_C 	C 	0.4011	0.5734	0.2589	-0.317
Mof_H 	H 	0.4385	0.6202	0.2891	0.044
Mof_H 	H 	0.411	0.5026	0.2988	0.06
Mof_C 	C 	0.3553	0.6394	0.2683	0.128
Mof_C 	C 	0.3171	0.7395	0.3332	0.168
Mof_C 	C 	0.3096	0.8086	0.4032	-0.514
Mof_H 	H 	0.2728	0.8551	0.3667	0.103
Mof_H 	H 	0.3447	0.8592	0.4408	0.111
Mof_H 	H 	0.3065	0.7571	0.4483	0.119
Mof_Cu	Cu	0.25771	0.61737	0.05002	0.799
Mof_Cu	Cu	0.18773	0.73223	0.1723	0.81
Mof_Cu	Cu	0.93206	0.85388	0.99189	0.824
Mof_N 	N 	0.0759	0.6774	0.8661	-0.324
Mof_N 	N 	0.1731	0.6463	0.9757	-0.29
Mof_N 	N 	0.14843	0.6996	0.023	-0.237
Mof_N 	N 	0.1107	0.7581	0.1582	-0.301
Mof_N 	N 	0.01433	0.8076	0.0866	-0.287
Mof_N 	N 	0.03869	0.8019	0.1868	-0.264
Mof_N 	N 	0.92513	0.9823	0.1463	-0.221
Mof_N 	N 	0.89734	0.9625	0.047	-0.24
Mof_N 	N 	0.83258	0.0575	0.0713	-0.3
Mof_N 	N 	0.87023	0.1895	0.3553	-0.294
Mof_N 	N 	0.77335	0.2198	0.2403	-0.275
Mof_N 	N 	0.79833	0.1557	0.1986	-0.246
Mof_C 	C 	0.134	0.5774	0.8045	-0.526
Mof_H 	H 	0.1766	0.5606	0.8301	0.114
Mof_H 	H 	0.1181	0.6289	0.7478	0.121
Mof_H 	H 	0.1108	0.5055	0.7843	0.111
Mof_C 	C 	0.1288	0.6333	0.8822	0.17
Mof_C 	C 	0.0909	0.7175	0.9554	0.124
Mof_C 	C 	0.0466	0.7789	0.9707	-0.312
Mof_H 	H 	0.0064	0.7437	0.9264	0.005
Mof_H 	H 	0.0441	0.8595	0.9492	0.042
Mof_C 	C 	0.0582	0.7808	0.0723	0.116
Mof_C 	C 	0.096	0.7725	0.2267	0.166
Mof_C 	C 	0.1393	0.7541	0.3345	-0.492
Mof_H 	H 	0.1167	0.742	0.3663	0.099
Mof_H 	H 	0.1653	0.8219	0.363	0.12
Mof_H 	H 	0.1643	0.6864	0.3447	0.107
Mof_C 	C 	0.7968	0.0132	0.8968	-0.463
Mof_H 	H 	0.8174	0.0086	0.8612	0.101
Mof_H 	H 	0.7741	0.0855	0.8804	0.065
Mof_H 	H 	0.7688	0.9483	0.878	0.097
Mof_C 	C 	0.8423	0.009	0.0046	0.157
Mof_C 	C 	0.8856	0.0386	0.1584	0.14
Mof_C 	C 	0.9011	0.0734	0.2589	-0.331
Mof_H 	H 	0.9385	0.1202	0.2891	0.071
Mof_H 	H 	0.911	0.0026	0.2988	0.071
Mof_C 	C 	0.8553	0.1394	0.2683	0.135
Mof_C 	C 	0.8171	0.2395	0.3332	0.172
Mof_C 	C 	0.8096	0.3086	0.4032	-0.521
Mof_H 	H 	0.7728	0.3551	0.3667	0.105
Mof_H 	H 	0.8447	0.3592	0.4408	0.12
Mof_H 	H 	0.8065	0.2571	0.4483	0.122
Mof_Cu	Cu	0.75771	0.88263	0.55002	0.797
Mof_Cu	Cu	0.68773	0.76777	0.6723	0.81
Mof_Cu	Cu	0.43206	0.64612	0.49189	0.807
Mof_N 	N 	0.5759	0.8226	0.3661	-0.32
Mof_N 	N 	0.6731	0.8537	0.4757	-0.288
Mof_N 	N 	0.64843	0.8004	0.523	-0.244
Mof_N 	N 	0.6107	0.7419	0.6582	-0.302
Mof_N 	N 	0.51433	0.6924	0.5866	-0.267
Mof_N 	N 	0.53869	0.6981	0.6868	-0.252
Mof_N 	N 	0.42513	0.5177	0.6463	-0.241
Mof_N 	N 	0.39734	0.5375	0.547	-0.253
Mof_N 	N 	0.33258	0.4425	0.5713	-0.3
Mof_N 	N 	0.37023	0.3105	0.8553	-0.299
Mof_N 	N 	0.27335	0.2802	0.7403	-0.274
Mof_N 	N 	0.29833	0.3443	0.6986	-0.244
Mof_C 	C 	0.634	0.9226	0.3045	-0.545
Mof_H 	H 	0.6766	0.9394	0.3301	0.122
Mof_H 	H 	0.6181	0.8711	0.2478	0.135
Mof_H 	H 	0.6108	0.9945	0.2843	0.126
Mof_C 	C 	0.6288	0.8667	0.3822	0.18
Mof_C 	C 	0.5909	0.7825	0.4554	0.141
Mof_C 	C 	0.5466	0.7211	0.4707	-0.325
Mof_H 	H 	0.5064	0.7563	0.4264	0.035
Mof_H 	H 	0.5441	0.6405	0.4492	0.062
Mof_C 	C 	0.5582	0.7192	0.5723	0.124
Mof_C 	C 	0.596	0.7275	0.7267	0.17
Mof_C 	C 	0.6393	0.7459	0.8345	-0.494
Mof_H 	H 	0.6167	0.758	0.8663	0.104
Mof_H 	H 	0.6653	0.6781	0.863	0.12
Mof_H 	H 	0.6643	0.8136	0.8447	0.108
Mof_C 	C 	0.2968	0.4868	0.3968	-0.475
Mof_H 	H 	0.3174	0.4914	0.3612	0.103
Mof_H 	H 	0.2741	0.4145	0.3804	0.069
Mof_H 	H 	0.2688	0.5517	0.378	0.103
Mof_C 	C 	0.3423	0.491	0.5046	0.161
Mof_C 	C 	0.3856	0.4614	0.6584	0.135
Mof_C 	C 	0.4011	0.4266	0.7589	-0.317
Mof_H 	H 	0.4385	0.3798	0.7891	0.043
Mof_H 	H 	0.411	0.4974	0.7988	0.059
Mof_C 	C 	0.3553	0.3606	0.7683	0.127
Mof_C 	C 	0.3171	0.2605	0.8332	0.167
Mof_C 	C 	0.3096	0.1914	0.9032	-0.513
Mof_H 	H 	0.2728	0.1449	0.8667	0.103
Mof_H 	H 	0.3447	0.1408	0.9408	0.111
Mof_H 	H 	0.3065	0.2429	0.9483	0.118
Mof_Cu	Cu	0.25771	0.38263	0.55002	0.796
Mof_Cu	Cu	0.18773	0.26777	0.6723	0.809
Mof_Cu	Cu	0.93206	0.14612	0.49189	0.83
Mof_N 	N 	0.0759	0.3226	0.3661	-0.324
Mof_N 	N 	0.1731	0.3537	0.4757	-0.287
Mof_N 	N 	0.14843	0.3004	0.523	-0.243
Mof_N 	N 	0.1107	0.2419	0.6582	-0.301
Mof_N 	N 	0.01433	0.1924	0.5866	-0.289
Mof_N 	N 	0.03869	0.1981	0.6868	-0.264
Mof_N 	N 	0.92513	0.0177	0.6463	-0.224
Mof_N 	N 	0.89734	0.0375	0.547	-0.246
Mof_N 	N 	0.83258	0.9425	0.5713	-0.3
Mof_N 	N 	0.87023	0.8105	0.8553	-0.294
Mof_N 	N 	0.77335	0.7802	0.7403	-0.274
Mof_N 	N 	0.79833	0.8443	0.6986	-0.246
Mof_C 	C 	0.134	0.4226	0.3045	-0.527
Mof_H 	H 	0.1766	0.4394	0.3301	0.115
Mof_H 	H 	0.1181	0.3711	0.2478	0.122
Mof_H 	H 	0.1108	0.4945	0.2843	0.112
Mof_C 	C 	0.1288	0.3667	0.3822	0.171
Mof_C 	C 	0.0909	0.2825	0.4554	0.128
Mof_C 	C 	0.0466	0.2211	0.4707	-0.304
Mof_H 	H 	0.0064	0.2563	0.4264	0.003
Mof_H 	H 	0.0441	0.1405	0.4492	0.042
Mof_C 	C 	0.0582	0.2192	0.5723	0.108
Mof_C 	C 	0.096	0.2275	0.7267	0.166
Mof_C 	C 	0.1393	0.2459	0.8345	-0.492
Mof_H 	H 	0.1167	0.258	0.8663	0.099
Mof_H 	H 	0.1653	0.1781	0.863	0.121
Mof_H 	H 	0.1643	0.3136	0.8447	0.107
Mof_C 	C 	0.7968	0.9868	0.3968	-0.47
Mof_H 	H 	0.8174	0.9914	0.3612	0.103
Mof_H 	H 	0.7741	0.9145	0.3804	0.067
Mof_H 	H 	0.7688	0.0517	0.378	0.101
Mof_C 	C 	0.8423	0.991	0.5046	0.159
Mof_C 	C 	0.8856	0.9614	0.6584	0.142
Mof_C 	C 	0.9011	0.9266	0.7589	-0.331
Mof_H 	H 	0.9385	0.8798	0.7891	0.07
Mof_H 	H 	0.911	0.9974	0.7988	0.07
Mof_C 	C 	0.8553	0.8606	0.7683	0.135
Mof_C 	C 	0.8171	0.7605	0.8332	0.169
Mof_C 	C 	0.8096	0.6914	0.9032	-0.515
Mof_H 	H 	0.7728	0.6449	0.8667	0.103
Mof_H 	H 	0.8447	0.6408	0.9408	0.116
Mof_H 	H 	0.8065	0.7429	0.9483	0.118
Mof_Cu	Cu	0.24229	0.88263	0.94998	0.794
Mof_Cu	Cu	0.31227	0.76777	0.8277	0.809
Mof_Cu	Cu	0.56794	0.64612	0.00811	0.81
Mof_N 	N 	0.4241	0.8226	0.1339	-0.321
Mof_N 	N 	0.3269	0.8537	0.0243	-0.283
Mof_N 	N 	0.35157	0.8004	0.977	-0.251
Mof_N 	N 	0.3893	0.7419	0.8418	-0.302
Mof_N 	N 	0.48567	0.6924	0.9134	-0.268
Mof_N 	N 	0.46131	0.6981	0.8132	-0.253
Mof_N 	N 	0.57487	0.5177	0.8537	-0.242
Mof_N 	N 	0.60266	0.5375	0.953	-0.253
Mof_N 	N 	0.66742	0.4425	0.9287	-0.299
Mof_N 	N 	0.62977	0.3105	0.6447	-0.298
Mof_N 	N 	0.72665	0.2802	0.7597	-0.274
Mof_N 	N 	0.70167	0.3443	0.8014	-0.244
Mof_C 	C 	0.366	0.9226	0.1955	-0.546
Mof_H 	H 	0.3234	0.9394	0.1699	0.123
Mof_H 	H 	0.3819	0.8711	0.2522	0.135
Mof_H 	H 	0.3892	0.9945	0.2157	0.127
Mof_C 	C 	0.3712	0.8667	0.1178	0.182
Mof_C 	C 	0.4091	0.7825	0.0446	0.146
Mof_C 	C 	0.4534	0.7211	0.0293	-0.318
Mof_H 	H 	0.4936	0.7563	0.0736	0.035
Mof_H 	H 	0.4559	0.6405	0.0508	0.061
Mof_C 	C 	0.4418	0.7192	0.9277	0.117
Mof_C 	C 	0.404	0.7275	0.7733	0.171
Mof_C 	C 	0.3607	0.7459	0.6655	-0.498
Mof_H 	H 	0.3833	0.758	0.6337	0.107
Mof_H 	H 	0.3347	0.6781	0.637	0.122
Mof_H 	H 	0.3357	0.8136	0.6553	0.11
Mof_C 	C 	0.7032	0.4868	0.1032	-0.462
Mof_H 	H 	0.6826	0.4914	0.1388	0.1
Mof_H 	H 	0.7259	0.4145	0.1196	0.066
Mof_H 	H 	0.7312	0.5517	0.122	0.101
Mof_C 	C 	0.6577	0.491	0.9954	0.153
Mof_C 	C 	0.6144	0.4614	0.8416	0.135
Mof_C 	C 	0.5989	0.4266	0.7411	-0.317
Mof_H 	H 	0.5615	0.3798	0.7109	0.044
Mof_H 	H 	0.589	0.4974	0.7012	0.06
Mof_C 	C 	0.6447	0.3606	0.7317	0.128
Mof_C 	C 	0.6829	0.2605	0.6668	0.168
Mof_C 	C 	0.6904	0.1914	0.5968	-0.513
Mof_H 	H 	0.7272	0.1449	0.6333	0.102
Mof_H 	H 	0.6553	0.1408	0.5592	0.11
Mof_H 	H 	0.6935	0.2429	0.5517	0.119
Mof_Cu	Cu	0.74229	0.38263	0.94998	0.795
Mof_Cu	Cu	0.81227	0.26777	0.8277	0.811
Mof_Cu	Cu	0.06794	0.14612	0.00811	0.787
Mof_N 	N 	0.9241	0.3226	0.1339	-0.305
Mof_N 	N 	0.8269	0.3537	0.0243	-0.285
Mof_N 	N 	0.85157	0.3004	0.977	-0.251
Mof_N 	N 	0.8893	0.2419	0.8418	-0.304
Mof_N 	N 	0.98567	0.1924	0.9134	-0.244
Mof_N 	N 	0.96131	0.1981	0.8132	-0.232
Mof_N 	N 	0.07487	0.0177	0.8537	-0.247
Mof_N 	N 	0.10266	0.0375	0.953	-0.253
Mof_N 	N 	0.16742	0.9425	0.9287	-0.296
Mof_N 	N 	0.12977	0.8105	0.6447	-0.303
Mof_N 	N 	0.22665	0.7802	0.7597	-0.274
Mof_N 	N 	0.20167	0.8443	0.8014	-0.243
Mof_C 	C 	0.866	0.4226	0.1955	-0.563
Mof_H 	H 	0.8234	0.4394	0.1699	0.128
Mof_H 	H 	0.8819	0.3711	0.2522	0.15
Mof_H 	H 	0.8892	0.4945	0.2157	0.142
Mof_C 	C 	0.8712	0.3667	0.1178	0.193
Mof_C 	C 	0.9091	0.2825	0.0446	0.16
Mof_C 	C 	0.9534	0.2211	0.0293	-0.341
Mof_H 	H 	0.9936	0.2563	0.0736	0.072
Mof_H 	H 	0.9559	0.1405	0.0508	0.084
Mof_C 	C 	0.9418	0.2192	0.9277	0.135
Mof_C 	C 	0.904	0.2275	0.7733	0.179
Mof_C 	C 	0.8607	0.2459	0.6655	-0.507
Mof_H 	H 	0.8833	0.258	0.6337	0.119
Mof_H 	H 	0.8347	0.1781	0.637	0.125
Mof_H 	H 	0.8357	0.3136	0.6553	0.114
Mof_C 	C 	0.2032	0.9868	0.1032	-0.439
Mof_H 	H 	0.1826	0.9914	0.1388	0.095
Mof_H 	H 	0.2259	0.9145	0.1196	0.06
Mof_H 	H 	0.2312	0.0517	0.122	0.092
Mof_C 	C 	0.1577	0.991	0.9954	0.142
Mof_C 	C 	0.1144	0.9614	0.8416	0.125
Mof_C 	C 	0.0989	0.9266	0.7411	-0.301
Mof_H 	H 	0.0615	0.8798	0.7109	0.02
Mof_H 	H 	0.089	0.9974	0.7012	0.048
Mof_C 	C 	0.1447	0.8606	0.7317	0.119
Mof_C 	C 	0.1829	0.7605	0.6668	0.164
Mof_C 	C 	0.1904	0.6914	0.5968	-0.506
Mof_H 	H 	0.2272	0.6449	0.6333	0.099
Mof_H 	H 	0.1553	0.6408	0.5592	0.103
Mof_H 	H 	0.1935	0.7429	0.5517	0.116
Mof_Cu	Cu	0.5	0.17748	0.75	0.801
Mof_Cu	Cu	2.65804e-33	0.67748	0.75	0.767
Mof_Cu	Cu	0.5	0.82252	0.25	0.801
Mof_Cu	Cu	8.86015e-34	0.32252	0.25	0.768
Mof_Cu	Cu	0.5	0.39124	0.25	0.814
Mof_Cu	Cu	-1.37207e-17	0.89124	0.25	0.781
Mof_Cu	Cu	0.5	0.60876	0.75	0.814
Mof_Cu	Cu	-5.48827e-17	0.10876	0.75	0.781
_end
