data_functionalizedCrystal
_audit_creation_method	'EQeq! by Chris Wilmer'
_symmetry_space_group_name_H-M	'P1'
_symmetry_Int_Tables_number	1
_symmetry_cell_setting	triclinic
loop_
_symmetry_equiv_pos_as_xyz
  x,y,z
_cell_length_a	8.504
_cell_length_b	14.441
_cell_length_c	45.883
_cell_angle_alpha	90
_cell_angle_beta	90
_cell_angle_gamma	90
loop_
_atom_site_label
_atom_site_type_symbol
_atom_site_fract_x
_atom_site_fract_y
_atom_site_fract_z
_atom_site_charge
Mof_C 	C 	0.998	0.0285	0.0958	-0.077
Mof_C 	C 	0.952	0.9743	0.0798	-0.06
Mof_C 	C 	0.975	0.9746	0.0091	-0.072
Mof_C 	C 	0.998	0.5285	0.5958	-0.077
Mof_C 	C 	0.952	0.4743	0.5798	-0.059
Mof_C 	C 	0.975	0.4746	0.5091	-0.072
Mof_C 	C 	0.498	0.0285	0.5958	-0.077
Mof_C 	C 	0.452	0.9743	0.5798	-0.058
Mof_C 	C 	0.475	0.9746	0.5091	-0.071
Mof_C 	C 	0.498	0.5285	0.0958	-0.077
Mof_C 	C 	0.452	0.4743	0.0798	-0.058
Mof_C 	C 	0.475	0.4746	0.0091	-0.071
Mof_C 	C 	0.752	0.7215	0.0958	-0.077
Mof_C 	C 	0.798	0.7757	0.0798	-0.058
Mof_C 	C 	0.775	0.7754	0.0091	-0.071
Mof_C 	C 	0.752	0.2215	0.5958	-0.077
Mof_C 	C 	0.798	0.2757	0.5798	-0.058
Mof_C 	C 	0.775	0.2754	0.5091	-0.071
Mof_C 	C 	0.252	0.7215	0.5958	-0.077
Mof_C 	C 	0.298	0.7757	0.5798	-0.058
Mof_C 	C 	0.275	0.7754	0.5091	-0.071
Mof_C 	C 	0.252	0.2215	0.0958	-0.077
Mof_C 	C 	0.298	0.2757	0.0798	-0.058
Mof_C 	C 	0.275	0.2754	0.0091	-0.071
Mof_C 	C 	0.752	0.0285	0.6542	-0.076
Mof_C 	C 	0.798	0.9743	0.6702	-0.059
Mof_C 	C 	0.775	0.9746	0.7409	-0.071
Mof_C 	C 	0.752	0.5285	0.1542	-0.077
Mof_C 	C 	0.798	0.4743	0.1702	-0.058
Mof_C 	C 	0.775	0.4746	0.2409	-0.071
Mof_C 	C 	0.252	0.0285	0.1542	-0.077
Mof_C 	C 	0.298	0.9743	0.1702	-0.058
Mof_C 	C 	0.275	0.9746	0.2409	-0.071
Mof_C 	C 	0.252	0.5285	0.6542	-0.077
Mof_C 	C 	0.298	0.4743	0.6702	-0.058
Mof_C 	C 	0.275	0.4746	0.7409	-0.071
Mof_C 	C 	0.998	0.7215	0.6542	-0.076
Mof_C 	C 	0.952	0.7757	0.6702	-0.058
Mof_C 	C 	0.975	0.7754	0.7409	-0.071
Mof_C 	C 	0.998	0.2215	0.1542	-0.076
Mof_C 	C 	0.952	0.2757	0.1702	-0.058
Mof_C 	C 	0.975	0.2754	0.2409	-0.071
Mof_C 	C 	0.498	0.7215	0.1542	-0.077
Mof_C 	C 	0.452	0.7757	0.1702	-0.058
Mof_C 	C 	0.475	0.7754	0.2409	-0.071
Mof_C 	C 	0.498	0.2215	0.6542	-0.077
Mof_C 	C 	0.452	0.2757	0.6702	-0.058
Mof_C 	C 	0.475	0.2754	0.7409	-0.071
Mof_C 	C 	0.002	0.9715	0.9042	-0.076
Mof_C 	C 	0.048	0.0257	0.9202	-0.059
Mof_C 	C 	0.025	0.0254	0.9909	-0.071
Mof_C 	C 	0.002	0.4715	0.4042	-0.076
Mof_C 	C 	0.048	0.5257	0.4202	-0.058
Mof_C 	C 	0.025	0.5254	0.4909	-0.071
Mof_C 	C 	0.502	0.9715	0.4042	-0.077
Mof_C 	C 	0.548	0.0257	0.4202	-0.058
Mof_C 	C 	0.525	0.0254	0.4909	-0.071
Mof_C 	C 	0.502	0.4715	0.9042	-0.077
Mof_C 	C 	0.548	0.5257	0.9202	-0.058
Mof_C 	C 	0.525	0.5254	0.9909	-0.071
Mof_C 	C 	0.248	0.2785	0.9042	-0.077
Mof_C 	C 	0.202	0.2243	0.9202	-0.058
Mof_C 	C 	0.225	0.2246	0.9909	-0.071
Mof_C 	C 	0.248	0.7785	0.4042	-0.077
Mof_C 	C 	0.202	0.7243	0.4202	-0.058
Mof_C 	C 	0.225	0.7246	0.4909	-0.071
Mof_C 	C 	0.748	0.2785	0.4042	-0.077
Mof_C 	C 	0.702	0.2243	0.4202	-0.058
Mof_C 	C 	0.725	0.2246	0.4909	-0.071
Mof_C 	C 	0.748	0.7785	0.9042	-0.077
Mof_C 	C 	0.702	0.7243	0.9202	-0.058
Mof_C 	C 	0.725	0.7246	0.9909	-0.071
Mof_C 	C 	0.248	0.9715	0.3458	-0.076
Mof_C 	C 	0.202	0.0257	0.3298	-0.059
Mof_C 	C 	0.225	0.0254	0.2591	-0.071
Mof_C 	C 	0.248	0.4715	0.8458	-0.077
Mof_C 	C 	0.202	0.5257	0.8298	-0.058
Mof_C 	C 	0.225	0.5254	0.7591	-0.071
Mof_C 	C 	0.748	0.9715	0.8458	-0.077
Mof_C 	C 	0.702	0.0257	0.8298	-0.058
Mof_C 	C 	0.725	0.0254	0.7591	-0.071
Mof_C 	C 	0.748	0.4715	0.3458	-0.077
Mof_C 	C 	0.702	0.5257	0.3298	-0.058
Mof_C 	C 	0.725	0.5254	0.2591	-0.071
Mof_C 	C 	0.002	0.2785	0.3458	-0.076
Mof_C 	C 	0.048	0.2243	0.3298	-0.058
Mof_C 	C 	0.025	0.2246	0.2591	-0.071
Mof_C 	C 	0.002	0.7785	0.8458	-0.076
Mof_C 	C 	0.048	0.7243	0.8298	-0.058
Mof_C 	C 	0.025	0.7246	0.7591	-0.071
Mof_C 	C 	0.502	0.2785	0.8458	-0.077
Mof_C 	C 	0.548	0.2243	0.8298	-0.058
Mof_C 	C 	0.525	0.2246	0.7591	-0.071
Mof_C 	C 	0.502	0.7785	0.3458	-0.077
Mof_C 	C 	0.548	0.7243	0.3298	-0.058
Mof_C 	C 	0.525	0.7246	0.2591	-0.071
Mof_Cd	Cd	0.875	0.875	0.04175	0.269
Mof_Cd	Cd	0.875	0.375	0.54175	0.269
Mof_Cd	Cd	0.375	0.875	0.54175	0.269
Mof_Cd	Cd	0.375	0.375	0.04175	0.269
Mof_Cd	Cd	0.875	0.875	0.70825	0.269
Mof_Cd	Cd	0.875	0.375	0.20825	0.269
Mof_Cd	Cd	0.375	0.875	0.20825	0.269
Mof_Cd	Cd	0.375	0.375	0.70825	0.269
Mof_Cd	Cd	0.125	0.125	0.95825	0.269
Mof_Cd	Cd	0.125	0.625	0.45825	0.269
Mof_Cd	Cd	0.625	0.125	0.45825	0.269
Mof_Cd	Cd	0.625	0.625	0.95825	0.269
Mof_Cd	Cd	0.125	0.125	0.29175	0.269
Mof_Cd	Cd	0.125	0.625	0.79175	0.269
Mof_Cd	Cd	0.625	0.125	0.79175	0.269
Mof_Cd	Cd	0.625	0.625	0.29175	0.269
Mof_Cd	Cd	0.125	0.125	0.125	0.286
Mof_Cd	Cd	0.125	0.625	0.625	0.286
Mof_Cd	Cd	0.625	0.125	0.625	0.286
Mof_Cd	Cd	0.625	0.625	0.125	0.286
Mof_Cd	Cd	0.875	0.875	0.875	0.286
Mof_Cd	Cd	0.875	0.375	0.375	0.286
Mof_Cd	Cd	0.375	0.875	0.375	0.286
Mof_Cd	Cd	0.375	0.375	0.875	0.286
_end
