data_functionalizedCrystal
_audit_creation_method	'EQeq! by Chris Wilmer'
_symmetry_space_group_name_H-M	'P1'
_symmetry_Int_Tables_number	1
_symmetry_cell_setting	triclinic
loop_
_symmetry_equiv_pos_as_xyz
  x,y,z
_cell_length_a	12.3089
_cell_length_b	26.959
_cell_length_c	33.493
_cell_angle_alpha	90
_cell_angle_beta	90
_cell_angle_gamma	90
loop_
_atom_site_label
_atom_site_type_symbol
_atom_site_fract_x
_atom_site_fract_y
_atom_site_fract_z
_atom_site_charge
Mof_Fe	Fe	0.98198	0.93174	0.38561	0.779
Mof_Fe	Fe	0.51802	0.43174	0.61439	0.781
Mof_Fe	Fe	0.48198	0.43174	0.11439	0.781
Mof_Fe	Fe	0.01802	0.93174	0.88561	0.779
Mof_Ag	Ag	0.76095	0.27927	0.36156	0.561
Mof_Ag	Ag	0.73905	0.77927	0.63844	0.561
Mof_Ag	Ag	0.26095	0.77927	0.13844	0.561
Mof_Ag	Ag	0.23905	0.27927	0.86156	0.561
Mof_H 	H 	0.2139	0.9613	0.355	0.009
Mof_H 	H 	0.2726	0.0457	0.3342	0.036
Mof_H 	H 	0.1099	0.1003	0.3405	0.064
Mof_H 	H 	0.709	0.0707	0.3987	0.063
Mof_H 	H 	0.6166	0.9964	0.4287	0.037
Mof_H 	H 	0.7486	0.9268	0.4234	0.017
Mof_H 	H 	0.0038	0.1367	0.4073	0.096
Mof_H 	H 	0.9487	0.2178	0.3981	-0.03
Mof_H 	H 	0.7451	0.1795	0.3144	-0.028
Mof_H 	H 	0.7836	0.0945	0.3236	0.09
Mof_H 	H 	0.7894	0.9667	0.3309	0.013
Mof_H 	H 	0.7809	0.9535	0.256	0.036
Mof_H 	H 	0.9413	0.904	0.2357	0.068
Mof_H 	H 	0.2534	0.8165	0.3224	0.068
Mof_H 	H 	0.3099	0.8221	0.3957	0.041
Mof_H 	H 	0.1751	0.8763	0.4282	0.013
Mof_H 	H 	0.2649	0.8921	0.2632	0.102
Mof_H 	H 	0.3261	0.8555	0.205	-0.036
Mof_H 	H 	0.0616	0.7758	0.1969	-0.035
Mof_H 	H 	0.9965	0.8104	0.2545	0.097
Mof_H 	H 	0.846	0.8457	0.3454	0.012
Mof_H 	H 	0.7546	0.7806	0.3808	0.044
Mof_H 	H 	0.7687	0.7934	0.4536	0.062
Mof_H 	H 	0.0402	0.9204	0.5355	0.068
Mof_H 	H 	0.1684	0.9855	0.5124	0.042
Mof_H 	H 	0.1443	0.9933	0.4383	0.015
Mof_H 	H 	0.9574	0.7851	0.5072	0.086
Mof_H 	H 	0.8748	0.7519	0.5619	-0.024
Mof_H 	H 	0.7269	0.8779	0.5875	-0.023
Mof_H 	H 	0.7997	0.9144	0.5313	0.088
Mof_H 	H 	0.2861	0.4613	0.645	0.009
Mof_H 	H 	0.2274	0.5457	0.6658	0.036
Mof_H 	H 	0.3901	0.6003	0.6595	0.064
Mof_H 	H 	0.791	0.5707	0.6013	0.063
Mof_H 	H 	0.8834	0.4964	0.5713	0.037
Mof_H 	H 	0.7514	0.4268	0.5766	0.017
Mof_H 	H 	0.4962	0.6367	0.5927	0.095
Mof_H 	H 	0.5513	0.7178	0.6019	-0.03
Mof_H 	H 	0.7549	0.6795	0.6856	-0.028
Mof_H 	H 	0.7164	0.5945	0.6764	0.09
Mof_H 	H 	0.7106	0.4667	0.6691	0.013
Mof_H 	H 	0.7191	0.4535	0.744	0.036
Mof_H 	H 	0.5587	0.404	0.7643	0.069
Mof_H 	H 	0.2466	0.3165	0.6776	0.068
Mof_H 	H 	0.1901	0.3221	0.6043	0.041
Mof_H 	H 	0.3249	0.3763	0.5718	0.013
Mof_H 	H 	0.2351	0.3921	0.7368	0.102
Mof_H 	H 	0.1739	0.3555	0.795	-0.036
Mof_H 	H 	0.4384	0.2758	0.8031	-0.037
Mof_H 	H 	0.5035	0.3104	0.7455	0.1
Mof_H 	H 	0.654	0.3457	0.6546	0.012
Mof_H 	H 	0.7454	0.2806	0.6192	0.044
Mof_H 	H 	0.7313	0.2934	0.5464	0.062
Mof_H 	H 	0.4598	0.4204	0.4645	0.069
Mof_H 	H 	0.3316	0.4855	0.4876	0.041
Mof_H 	H 	0.3557	0.4933	0.5617	0.015
Mof_H 	H 	0.5426	0.2851	0.4928	0.086
Mof_H 	H 	0.6252	0.2519	0.4381	-0.024
Mof_H 	H 	0.7731	0.3779	0.4125	-0.024
Mof_H 	H 	0.7003	0.4144	0.4687	0.088
Mof_H 	H 	0.7139	0.4613	0.145	0.009
Mof_H 	H 	0.7726	0.5457	0.1658	0.036
Mof_H 	H 	0.6099	0.6003	0.1595	0.064
Mof_H 	H 	0.209	0.5707	0.1013	0.063
Mof_H 	H 	0.1166	0.4964	0.0713	0.037
Mof_H 	H 	0.2486	0.4268	0.0766	0.017
Mof_H 	H 	0.5038	0.6367	0.0927	0.095
Mof_H 	H 	0.4487	0.7178	0.1019	-0.03
Mof_H 	H 	0.2451	0.6795	0.1856	-0.028
Mof_H 	H 	0.2836	0.5945	0.1764	0.09
Mof_H 	H 	0.2894	0.4667	0.1691	0.013
Mof_H 	H 	0.2809	0.4535	0.244	0.036
Mof_H 	H 	0.4413	0.404	0.2643	0.069
Mof_H 	H 	0.7534	0.3165	0.1776	0.068
Mof_H 	H 	0.8099	0.3221	0.1043	0.041
Mof_H 	H 	0.6751	0.3763	0.0718	0.013
Mof_H 	H 	0.7649	0.3921	0.2368	0.102
Mof_H 	H 	0.8261	0.3555	0.295	-0.036
Mof_H 	H 	0.5616	0.2758	0.3031	-0.037
Mof_H 	H 	0.4965	0.3104	0.2455	0.1
Mof_H 	H 	0.346	0.3457	0.1546	0.012
Mof_H 	H 	0.2546	0.2806	0.1192	0.044
Mof_H 	H 	0.2687	0.2934	0.0464	0.062
Mof_H 	H 	0.5402	0.4204	0.9645	0.069
Mof_H 	H 	0.6684	0.4855	0.9876	0.042
Mof_H 	H 	0.6443	0.4933	0.0617	0.015
Mof_H 	H 	0.4574	0.2851	0.9928	0.086
Mof_H 	H 	0.3748	0.2519	0.9381	-0.024
Mof_H 	H 	0.2269	0.3779	0.9125	-0.024
Mof_H 	H 	0.2997	0.4144	0.9687	0.088
Mof_H 	H 	0.7861	0.9613	0.855	0.009
Mof_H 	H 	0.7274	0.0457	0.8342	0.036
Mof_H 	H 	0.8901	0.1003	0.8405	0.064
Mof_H 	H 	0.291	0.0707	0.8987	0.063
Mof_H 	H 	0.3834	0.9964	0.9287	0.037
Mof_H 	H 	0.2514	0.9268	0.9234	0.017
Mof_H 	H 	0.9962	0.1367	0.9073	0.096
Mof_H 	H 	0.0513	0.2178	0.8981	-0.031
Mof_H 	H 	0.2549	0.1795	0.8144	-0.028
Mof_H 	H 	0.2164	0.0945	0.8236	0.091
Mof_H 	H 	0.2106	0.9667	0.8309	0.013
Mof_H 	H 	0.2191	0.9535	0.756	0.036
Mof_H 	H 	0.0587	0.904	0.7357	0.068
Mof_H 	H 	0.7466	0.8165	0.8224	0.068
Mof_H 	H 	0.6901	0.8221	0.8957	0.041
Mof_H 	H 	0.8249	0.8763	0.9282	0.013
Mof_H 	H 	0.7351	0.8921	0.7632	0.102
Mof_H 	H 	0.6739	0.8555	0.705	-0.036
Mof_H 	H 	0.9384	0.7758	0.6969	-0.035
Mof_H 	H 	0.0035	0.8104	0.7545	0.097
Mof_H 	H 	0.154	0.8457	0.8454	0.012
Mof_H 	H 	0.2454	0.7806	0.8808	0.044
Mof_H 	H 	0.2313	0.7934	0.9536	0.062
Mof_H 	H 	0.9598	0.9204	0.0355	0.069
Mof_H 	H 	0.8316	0.9855	0.0124	0.041
Mof_H 	H 	0.8557	0.9933	0.9383	0.015
Mof_H 	H 	0.0426	0.7851	0.0072	0.086
Mof_H 	H 	0.1252	0.7519	0.0619	-0.024
Mof_H 	H 	0.2731	0.8779	0.0875	-0.024
Mof_H 	H 	0.2003	0.9144	0.0313	0.088
Mof_C 	C 	0.1687	0.9898	0.3557	0.048
Mof_C 	C 	0.2025	0.0365	0.3435	-0.048
Mof_C 	C 	0.1143	0.0663	0.3477	-0.114
Mof_C 	C 	0.0336	0.0385	0.364	0.124
Mof_C 	C 	0.9241	0.0544	0.374	-0.153
Mof_C 	C 	0.8465	0.0235	0.39086	0.129
Mof_C 	C 	0.7392	0.0385	0.4019	-0.112
Mof_C 	C 	0.6879	0.998	0.4179	-0.044
Mof_C 	C 	0.7632	0.9597	0.4149	0.029
Mof_C 	C 	0.8998	0.1066	0.36659	0.147
Mof_C 	C 	0.9483	0.1442	0.3885	-0.199
Mof_C 	C 	0.9155	0.1923	0.3828	0.095
Mof_C 	C 	0.7957	0.1703	0.33455	0.108
Mof_C 	C 	0.82	0.1191	0.3389	-0.196
Mof_C 	C 	0.8416	0.949	0.3156	0.04
Mof_C 	C 	0.8364	0.9416	0.2732	-0.042
Mof_C 	C 	0.9241	0.9147	0.262	-0.106
Mof_C 	C 	0.9869	0.9054	0.29817	0.124
Mof_C 	C 	0.0786	0.8788	0.3018	-0.16
Mof_C 	C 	0.1364	0.869	0.3383	0.131
Mof_C 	C 	0.2213	0.8364	0.3426	-0.118
Mof_C 	C 	0.2507	0.8385	0.3831	-0.05
Mof_C 	C 	0.1759	0.8691	0.4004	0.042
Mof_C 	C 	0.1239	0.8563	0.2642	0.174
Mof_C 	C 	0.2209	0.8684	0.2498	-0.225
Mof_C 	C 	0.2571	0.846	0.2152	0.124
Mof_C 	C 	0.1043	0.7999	0.2105	0.122
Mof_C 	C 	0.065	0.8206	0.2444	-0.217
Mof_C 	C 	0.8462	0.842	0.3736	0.042
Mof_C 	C 	0.7936	0.8067	0.3933	-0.052
Mof_C 	C 	0.8022	0.8123	0.4331	-0.101
Mof_C 	C 	0.8749	0.854	0.4369	0.116
Mof_C 	C 	0.9171	0.8749	0.4726	-0.142
Mof_C 	C 	0.9923	0.9143	0.47496	0.123
Mof_C 	C 	0.0493	0.9316	0.50878	-0.11
Mof_C 	C 	0.1193	0.967	0.4963	-0.035
Mof_C 	C 	0.1048	0.971	0.45483	0.026
Mof_C 	C 	0.878	0.8531	0.5102	0.13
Mof_C 	C 	0.907	0.8042	0.5223	-0.182
Mof_C 	C 	0.8613	0.7857	0.5556	0.091
Mof_C 	C 	0.7734	0.8589	0.5708	0.096
Mof_C 	C 	0.8146	0.8805	0.5368	-0.184
Mof_C 	C 	0.3313	0.4898	0.6443	0.048
Mof_C 	C 	0.2975	0.5365	0.6565	-0.049
Mof_C 	C 	0.3857	0.5663	0.6523	-0.113
Mof_C 	C 	0.4664	0.5385	0.636	0.122
Mof_C 	C 	0.5759	0.5544	0.626	-0.151
Mof_C 	C 	0.6535	0.5235	0.60914	0.129
Mof_C 	C 	0.7608	0.5385	0.5981	-0.112
Mof_C 	C 	0.8121	0.498	0.5821	-0.044
Mof_C 	C 	0.7368	0.4597	0.5851	0.029
Mof_C 	C 	0.6002	0.6066	0.63341	0.146
Mof_C 	C 	0.5517	0.6442	0.6115	-0.197
Mof_C 	C 	0.5845	0.6923	0.6172	0.094
Mof_C 	C 	0.7043	0.6703	0.66545	0.107
Mof_C 	C 	0.68	0.6191	0.6611	-0.195
Mof_C 	C 	0.6584	0.449	0.6844	0.04
Mof_C 	C 	0.6636	0.4416	0.7268	-0.041
Mof_C 	C 	0.5759	0.4147	0.738	-0.107
Mof_C 	C 	0.5131	0.4054	0.70183	0.127
Mof_C 	C 	0.4214	0.3788	0.6982	-0.163
Mof_C 	C 	0.3636	0.369	0.6617	0.132
Mof_C 	C 	0.2787	0.3364	0.6574	-0.119
Mof_C 	C 	0.2493	0.3385	0.6169	-0.049
Mof_C 	C 	0.3241	0.3691	0.5996	0.042
Mof_C 	C 	0.3761	0.3563	0.7358	0.177
Mof_C 	C 	0.2791	0.3684	0.7502	-0.227
Mof_C 	C 	0.2429	0.346	0.7848	0.125
Mof_C 	C 	0.3957	0.2999	0.7895	0.125
Mof_C 	C 	0.435	0.3206	0.7556	-0.222
Mof_C 	C 	0.6538	0.342	0.6264	0.042
Mof_C 	C 	0.7064	0.3067	0.6067	-0.052
Mof_C 	C 	0.6978	0.3123	0.5669	-0.101
Mof_C 	C 	0.6251	0.354	0.5631	0.116
Mof_C 	C 	0.5829	0.3749	0.5274	-0.142
Mof_C 	C 	0.5077	0.4143	0.52504	0.124
Mof_C 	C 	0.4507	0.4316	0.49122	-0.111
Mof_C 	C 	0.3807	0.467	0.5037	-0.034
Mof_C 	C 	0.3952	0.471	0.54517	0.026
Mof_C 	C 	0.622	0.3531	0.4898	0.13
Mof_C 	C 	0.593	0.3042	0.4777	-0.182
Mof_C 	C 	0.6387	0.2857	0.4444	0.091
Mof_C 	C 	0.7266	0.3589	0.4292	0.096
Mof_C 	C 	0.6854	0.3805	0.4632	-0.184
Mof_C 	C 	0.6687	0.4898	0.1443	0.048
Mof_C 	C 	0.7025	0.5365	0.1565	-0.049
Mof_C 	C 	0.6143	0.5663	0.1523	-0.113
Mof_C 	C 	0.5336	0.5385	0.136	0.122
Mof_C 	C 	0.4241	0.5544	0.126	-0.151
Mof_C 	C 	0.3465	0.5235	0.10914	0.129
Mof_C 	C 	0.2392	0.5385	0.0981	-0.112
Mof_C 	C 	0.1879	0.498	0.0821	-0.044
Mof_C 	C 	0.2632	0.4597	0.0851	0.029
Mof_C 	C 	0.3998	0.6066	0.13341	0.146
Mof_C 	C 	0.4483	0.6442	0.1115	-0.197
Mof_C 	C 	0.4155	0.6923	0.1172	0.094
Mof_C 	C 	0.2957	0.6703	0.16545	0.107
Mof_C 	C 	0.32	0.6191	0.1611	-0.195
Mof_C 	C 	0.3416	0.449	0.1844	0.04
Mof_C 	C 	0.3364	0.4416	0.2268	-0.041
Mof_C 	C 	0.4241	0.4147	0.238	-0.107
Mof_C 	C 	0.4869	0.4054	0.20183	0.127
Mof_C 	C 	0.5786	0.3788	0.1982	-0.163
Mof_C 	C 	0.6364	0.369	0.1617	0.132
Mof_C 	C 	0.7213	0.3364	0.1574	-0.119
Mof_C 	C 	0.7507	0.3385	0.1169	-0.049
Mof_C 	C 	0.6759	0.3691	0.0996	0.042
Mof_C 	C 	0.6239	0.3563	0.2358	0.177
Mof_C 	C 	0.7209	0.3684	0.2502	-0.227
Mof_C 	C 	0.7571	0.346	0.2848	0.125
Mof_C 	C 	0.6043	0.2999	0.2895	0.125
Mof_C 	C 	0.565	0.3206	0.2556	-0.222
Mof_C 	C 	0.3462	0.342	0.1264	0.042
Mof_C 	C 	0.2936	0.3067	0.1067	-0.052
Mof_C 	C 	0.3022	0.3123	0.0669	-0.101
Mof_C 	C 	0.3749	0.354	0.0631	0.116
Mof_C 	C 	0.4171	0.3749	0.0274	-0.142
Mof_C 	C 	0.4923	0.4143	0.02504	0.124
Mof_C 	C 	0.5493	0.4316	0.99122	-0.111
Mof_C 	C 	0.6193	0.467	0.0037	-0.035
Mof_C 	C 	0.6048	0.471	0.04517	0.026
Mof_C 	C 	0.378	0.3531	0.9898	0.13
Mof_C 	C 	0.407	0.3042	0.9777	-0.182
Mof_C 	C 	0.3613	0.2857	0.9444	0.091
Mof_C 	C 	0.2734	0.3589	0.9292	0.096
Mof_C 	C 	0.3146	0.3805	0.9632	-0.184
Mof_C 	C 	0.8313	0.9898	0.8557	0.048
Mof_C 	C 	0.7975	0.0365	0.8435	-0.048
Mof_C 	C 	0.8857	0.0663	0.8477	-0.114
Mof_C 	C 	0.9664	0.0385	0.864	0.124
Mof_C 	C 	0.0759	0.0544	0.874	-0.153
Mof_C 	C 	0.1535	0.0235	0.89086	0.129
Mof_C 	C 	0.2608	0.0385	0.9019	-0.113
Mof_C 	C 	0.3121	0.998	0.9179	-0.044
Mof_C 	C 	0.2368	0.9597	0.9149	0.029
Mof_C 	C 	0.1002	0.1066	0.86659	0.147
Mof_C 	C 	0.0517	0.1442	0.8885	-0.2
Mof_C 	C 	0.0845	0.1923	0.8828	0.095
Mof_C 	C 	0.2043	0.1703	0.83455	0.108
Mof_C 	C 	0.18	0.1191	0.8389	-0.196
Mof_C 	C 	0.1584	0.949	0.8156	0.04
Mof_C 	C 	0.1636	0.9416	0.7732	-0.042
Mof_C 	C 	0.0759	0.9147	0.762	-0.106
Mof_C 	C 	0.0131	0.9054	0.79817	0.124
Mof_C 	C 	0.9214	0.8788	0.8018	-0.16
Mof_C 	C 	0.8636	0.869	0.8383	0.131
Mof_C 	C 	0.7787	0.8364	0.8426	-0.118
Mof_C 	C 	0.7493	0.8385	0.8831	-0.05
Mof_C 	C 	0.8241	0.8691	0.9004	0.042
Mof_C 	C 	0.8761	0.8563	0.7642	0.174
Mof_C 	C 	0.7791	0.8684	0.7498	-0.225
Mof_C 	C 	0.7429	0.846	0.7152	0.124
Mof_C 	C 	0.8957	0.7999	0.7105	0.122
Mof_C 	C 	0.935	0.8206	0.7444	-0.217
Mof_C 	C 	0.1538	0.842	0.8736	0.042
Mof_C 	C 	0.2064	0.8067	0.8933	-0.052
Mof_C 	C 	0.1978	0.8123	0.9331	-0.101
Mof_C 	C 	0.1251	0.854	0.9369	0.116
Mof_C 	C 	0.0829	0.8749	0.9726	-0.142
Mof_C 	C 	0.0077	0.9143	0.97496	0.124
Mof_C 	C 	0.9507	0.9316	0.00878	-0.112
Mof_C 	C 	0.8807	0.967	0.9963	-0.033
Mof_C 	C 	0.8952	0.971	0.95483	0.026
Mof_C 	C 	0.122	0.8531	0.0102	0.13
Mof_C 	C 	0.093	0.8042	0.0223	-0.182
Mof_C 	C 	0.1387	0.7857	0.0556	0.091
Mof_C 	C 	0.2266	0.8589	0.0708	0.096
Mof_C 	C 	0.1854	0.8805	0.0368	-0.184
Mof_N 	N 	0.0684	0.98913	0.36819	-0.208
Mof_N 	N 	0.8606	0.97398	0.39857	-0.211
Mof_N 	N 	0.8371	0.20495	0.35584	-0.219
Mof_N 	N 	0.9293	0.9277	0.33006	-0.205
Mof_N 	N 	0.1035	0.88805	0.37461	-0.212
Mof_N 	N 	0.2013	0.8122	0.19547	-0.223
Mof_N 	N 	0.8999	0.87178	0.39923	-0.206
Mof_N 	N 	0.0268	0.93881	0.44087	-0.206
Mof_N 	N 	0.7963	0.8124	0.58125	-0.211
Mof_N 	N 	0.4316	0.48913	0.63181	-0.209
Mof_N 	N 	0.6394	0.47398	0.60143	-0.211
Mof_N 	N 	0.6629	0.70495	0.64416	-0.219
Mof_N 	N 	0.5707	0.4277	0.66994	-0.205
Mof_N 	N 	0.3965	0.38805	0.62539	-0.213
Mof_N 	N 	0.2987	0.3122	0.80453	-0.224
Mof_N 	N 	0.6001	0.37178	0.60077	-0.206
Mof_N 	N 	0.4732	0.43881	0.55913	-0.207
Mof_N 	N 	0.7037	0.3124	0.41875	-0.211
Mof_N 	N 	0.5684	0.48913	0.13181	-0.209
Mof_N 	N 	0.3606	0.47398	0.10143	-0.211
Mof_N 	N 	0.3371	0.70495	0.14416	-0.219
Mof_N 	N 	0.4293	0.4277	0.16994	-0.205
Mof_N 	N 	0.6035	0.38805	0.12539	-0.213
Mof_N 	N 	0.7013	0.3122	0.30453	-0.224
Mof_N 	N 	0.3999	0.37178	0.10077	-0.206
Mof_N 	N 	0.5268	0.43881	0.05913	-0.207
Mof_N 	N 	0.2963	0.3124	0.91875	-0.211
Mof_N 	N 	0.9316	0.98913	0.86819	-0.208
Mof_N 	N 	0.1394	0.97398	0.89857	-0.211
Mof_N 	N 	0.1629	0.20495	0.85584	-0.219
Mof_N 	N 	0.0707	0.9277	0.83006	-0.205
Mof_N 	N 	0.8965	0.88805	0.87461	-0.212
Mof_N 	N 	0.7987	0.8122	0.69547	-0.223
Mof_N 	N 	0.1001	0.87178	0.89923	-0.206
Mof_N 	N 	0.9732	0.93881	0.94087	-0.206
Mof_N 	N 	0.2037	0.8124	0.08125	-0.211
Mof_Fe	Fe	0.51802	0.56826	0.88561	0.78
Mof_Fe	Fe	0.98198	0.06826	0.11439	0.778
Mof_Fe	Fe	0.01802	0.06826	0.61439	0.778
Mof_Fe	Fe	0.48198	0.56826	0.38561	0.78
Mof_Ag	Ag	0.73905	0.22073	0.86156	0.561
Mof_Ag	Ag	0.76095	0.72073	0.13844	0.561
Mof_Ag	Ag	0.23905	0.72073	0.63844	0.561
Mof_Ag	Ag	0.26095	0.22073	0.36156	0.561
Mof_H 	H 	0.2861	0.5387	0.855	0.009
Mof_H 	H 	0.2274	0.4543	0.8342	0.036
Mof_H 	H 	0.3901	0.3997	0.8405	0.064
Mof_H 	H 	0.791	0.4293	0.8987	0.063
Mof_H 	H 	0.8834	0.5036	0.9287	0.037
Mof_H 	H 	0.7514	0.5732	0.9234	0.017
Mof_H 	H 	0.4962	0.3633	0.9073	0.095
Mof_H 	H 	0.5513	0.2822	0.8981	-0.03
Mof_H 	H 	0.7549	0.3205	0.8144	-0.028
Mof_H 	H 	0.7164	0.4055	0.8236	0.09
Mof_H 	H 	0.7106	0.5333	0.8309	0.013
Mof_H 	H 	0.7191	0.5465	0.756	0.036
Mof_H 	H 	0.5587	0.596	0.7357	0.069
Mof_H 	H 	0.2466	0.6835	0.8224	0.068
Mof_H 	H 	0.1901	0.6779	0.8957	0.041
Mof_H 	H 	0.3249	0.6237	0.9282	0.013
Mof_H 	H 	0.2351	0.6079	0.7632	0.102
Mof_H 	H 	0.1739	0.6445	0.705	-0.036
Mof_H 	H 	0.4384	0.7242	0.6969	-0.037
Mof_H 	H 	0.5035	0.6896	0.7545	0.1
Mof_H 	H 	0.654	0.6543	0.8454	0.012
Mof_H 	H 	0.7454	0.7194	0.8808	0.044
Mof_H 	H 	0.7313	0.7066	0.9536	0.062
Mof_H 	H 	0.4598	0.5796	0.0355	0.069
Mof_H 	H 	0.3316	0.5145	0.0124	0.042
Mof_H 	H 	0.3557	0.5067	0.9383	0.015
Mof_H 	H 	0.5426	0.7149	0.0072	0.086
Mof_H 	H 	0.6252	0.7481	0.0619	-0.024
Mof_H 	H 	0.7731	0.6221	0.0875	-0.024
Mof_H 	H 	0.7003	0.5856	0.0313	0.088
Mof_H 	H 	0.2139	0.0387	0.145	0.009
Mof_H 	H 	0.2726	0.9543	0.1658	0.036
Mof_H 	H 	0.1099	0.8997	0.1595	0.064
Mof_H 	H 	0.709	0.9293	0.1013	0.063
Mof_H 	H 	0.6166	0.0036	0.0713	0.037
Mof_H 	H 	0.7486	0.0732	0.0766	0.017
Mof_H 	H 	0.0038	0.8633	0.0927	0.096
Mof_H 	H 	0.9487	0.7822	0.1019	-0.031
Mof_H 	H 	0.7451	0.8205	0.1856	-0.028
Mof_H 	H 	0.7836	0.9055	0.1764	0.091
Mof_H 	H 	0.7894	0.0333	0.1691	0.013
Mof_H 	H 	0.7809	0.0465	0.244	0.036
Mof_H 	H 	0.9413	0.096	0.2643	0.068
Mof_H 	H 	0.2534	0.1835	0.1776	0.068
Mof_H 	H 	0.3099	0.1779	0.1043	0.041
Mof_H 	H 	0.1751	0.1237	0.0718	0.013
Mof_H 	H 	0.2649	0.1079	0.2368	0.102
Mof_H 	H 	0.3261	0.1445	0.295	-0.036
Mof_H 	H 	0.0616	0.2242	0.3031	-0.035
Mof_H 	H 	0.9965	0.1896	0.2455	0.097
Mof_H 	H 	0.846	0.1543	0.1546	0.012
Mof_H 	H 	0.7546	0.2194	0.1192	0.044
Mof_H 	H 	0.7687	0.2066	0.0464	0.062
Mof_H 	H 	0.0402	0.0796	0.9645	0.069
Mof_H 	H 	0.1684	0.0145	0.9876	0.041
Mof_H 	H 	0.1443	0.0067	0.0617	0.015
Mof_H 	H 	0.9574	0.2149	0.9928	0.086
Mof_H 	H 	0.8748	0.2481	0.9381	-0.024
Mof_H 	H 	0.7269	0.1221	0.9125	-0.024
Mof_H 	H 	0.7997	0.0856	0.9687	0.088
Mof_H 	H 	0.7861	0.0387	0.645	0.009
Mof_H 	H 	0.7274	0.9543	0.6658	0.036
Mof_H 	H 	0.8901	0.8997	0.6595	0.064
Mof_H 	H 	0.291	0.9293	0.6013	0.063
Mof_H 	H 	0.3834	0.0036	0.5713	0.037
Mof_H 	H 	0.2514	0.0732	0.5766	0.017
Mof_H 	H 	0.9962	0.8633	0.5927	0.096
Mof_H 	H 	0.0513	0.7822	0.6019	-0.03
Mof_H 	H 	0.2549	0.8205	0.6856	-0.028
Mof_H 	H 	0.2164	0.9055	0.6764	0.09
Mof_H 	H 	0.2106	0.0333	0.6691	0.013
Mof_H 	H 	0.2191	0.0465	0.744	0.036
Mof_H 	H 	0.0587	0.096	0.7643	0.068
Mof_H 	H 	0.7466	0.1835	0.6776	0.068
Mof_H 	H 	0.6901	0.1779	0.6043	0.041
Mof_H 	H 	0.8249	0.1237	0.5718	0.013
Mof_H 	H 	0.7351	0.1079	0.7368	0.102
Mof_H 	H 	0.6739	0.1445	0.795	-0.036
Mof_H 	H 	0.9384	0.2242	0.8031	-0.035
Mof_H 	H 	0.0035	0.1896	0.7455	0.097
Mof_H 	H 	0.154	0.1543	0.6546	0.012
Mof_H 	H 	0.2454	0.2194	0.6192	0.044
Mof_H 	H 	0.2313	0.2066	0.5464	0.062
Mof_H 	H 	0.9598	0.0796	0.4645	0.068
Mof_H 	H 	0.8316	0.0145	0.4876	0.042
Mof_H 	H 	0.8557	0.0067	0.5617	0.015
Mof_H 	H 	0.0426	0.2149	0.4928	0.086
Mof_H 	H 	0.1252	0.2481	0.4381	-0.024
Mof_H 	H 	0.2731	0.1221	0.4125	-0.023
Mof_H 	H 	0.2003	0.0856	0.4687	0.088
Mof_H 	H 	0.7139	0.5387	0.355	0.009
Mof_H 	H 	0.7726	0.4543	0.3342	0.036
Mof_H 	H 	0.6099	0.3997	0.3405	0.064
Mof_H 	H 	0.209	0.4293	0.3987	0.063
Mof_H 	H 	0.1166	0.5036	0.4287	0.037
Mof_H 	H 	0.2486	0.5732	0.4234	0.017
Mof_H 	H 	0.5038	0.3633	0.4073	0.095
Mof_H 	H 	0.4487	0.2822	0.3981	-0.03
Mof_H 	H 	0.2451	0.3205	0.3144	-0.028
Mof_H 	H 	0.2836	0.4055	0.3236	0.09
Mof_H 	H 	0.2894	0.5333	0.3309	0.013
Mof_H 	H 	0.2809	0.5465	0.256	0.036
Mof_H 	H 	0.4413	0.596	0.2357	0.069
Mof_H 	H 	0.7534	0.6835	0.3224	0.068
Mof_H 	H 	0.8099	0.6779	0.3957	0.041
Mof_H 	H 	0.6751	0.6237	0.4282	0.013
Mof_H 	H 	0.7649	0.6079	0.2632	0.102
Mof_H 	H 	0.8261	0.6445	0.205	-0.036
Mof_H 	H 	0.5616	0.7242	0.1969	-0.037
Mof_H 	H 	0.4965	0.6896	0.2545	0.1
Mof_H 	H 	0.346	0.6543	0.3454	0.012
Mof_H 	H 	0.2546	0.7194	0.3808	0.044
Mof_H 	H 	0.2687	0.7066	0.4536	0.062
Mof_H 	H 	0.5402	0.5796	0.5355	0.069
Mof_H 	H 	0.6684	0.5145	0.5124	0.041
Mof_H 	H 	0.6443	0.5067	0.4383	0.015
Mof_H 	H 	0.4574	0.7149	0.5072	0.086
Mof_H 	H 	0.3748	0.7481	0.5619	-0.024
Mof_H 	H 	0.2269	0.6221	0.5875	-0.024
Mof_H 	H 	0.2997	0.5856	0.5313	0.088
Mof_C 	C 	0.3313	0.5102	0.8557	0.048
Mof_C 	C 	0.2975	0.4635	0.8435	-0.049
Mof_C 	C 	0.3857	0.4337	0.8477	-0.113
Mof_C 	C 	0.4664	0.4615	0.864	0.122
Mof_C 	C 	0.5759	0.4456	0.874	-0.151
Mof_C 	C 	0.6535	0.4765	0.89086	0.129
Mof_C 	C 	0.7608	0.4615	0.9019	-0.112
Mof_C 	C 	0.8121	0.502	0.9179	-0.044
Mof_C 	C 	0.7368	0.5403	0.9149	0.029
Mof_C 	C 	0.6002	0.3934	0.86659	0.146
Mof_C 	C 	0.5517	0.3558	0.8885	-0.197
Mof_C 	C 	0.5845	0.3077	0.8828	0.094
Mof_C 	C 	0.7043	0.3297	0.83455	0.107
Mof_C 	C 	0.68	0.3809	0.8389	-0.195
Mof_C 	C 	0.6584	0.551	0.8156	0.04
Mof_C 	C 	0.6636	0.5584	0.7732	-0.041
Mof_C 	C 	0.5759	0.5853	0.762	-0.107
Mof_C 	C 	0.5131	0.5946	0.79817	0.127
Mof_C 	C 	0.4214	0.6212	0.8018	-0.163
Mof_C 	C 	0.3636	0.631	0.8383	0.132
Mof_C 	C 	0.2787	0.6636	0.8426	-0.119
Mof_C 	C 	0.2493	0.6615	0.8831	-0.049
Mof_C 	C 	0.3241	0.6309	0.9004	0.042
Mof_C 	C 	0.3761	0.6437	0.7642	0.177
Mof_C 	C 	0.2791	0.6316	0.7498	-0.227
Mof_C 	C 	0.2429	0.654	0.7152	0.125
Mof_C 	C 	0.3957	0.7001	0.7105	0.125
Mof_C 	C 	0.435	0.6794	0.7444	-0.222
Mof_C 	C 	0.6538	0.658	0.8736	0.042
Mof_C 	C 	0.7064	0.6933	0.8933	-0.052
Mof_C 	C 	0.6978	0.6877	0.9331	-0.101
Mof_C 	C 	0.6251	0.646	0.9369	0.116
Mof_C 	C 	0.5829	0.6251	0.9726	-0.142
Mof_C 	C 	0.5077	0.5857	0.97496	0.124
Mof_C 	C 	0.4507	0.5684	0.00878	-0.111
Mof_C 	C 	0.3807	0.533	0.9963	-0.035
Mof_C 	C 	0.3952	0.529	0.95483	0.026
Mof_C 	C 	0.622	0.6469	0.0102	0.13
Mof_C 	C 	0.593	0.6958	0.0223	-0.182
Mof_C 	C 	0.6387	0.7143	0.0556	0.091
Mof_C 	C 	0.7266	0.6411	0.0708	0.096
Mof_C 	C 	0.6854	0.6195	0.0368	-0.184
Mof_C 	C 	0.1687	0.0102	0.1443	0.048
Mof_C 	C 	0.2025	0.9635	0.1565	-0.048
Mof_C 	C 	0.1143	0.9337	0.1523	-0.114
Mof_C 	C 	0.0336	0.9615	0.136	0.124
Mof_C 	C 	0.9241	0.9456	0.126	-0.153
Mof_C 	C 	0.8465	0.9765	0.10914	0.129
Mof_C 	C 	0.7392	0.9615	0.0981	-0.113
Mof_C 	C 	0.6879	0.002	0.0821	-0.044
Mof_C 	C 	0.7632	0.0403	0.0851	0.029
Mof_C 	C 	0.8998	0.8934	0.13341	0.147
Mof_C 	C 	0.9483	0.8558	0.1115	-0.2
Mof_C 	C 	0.9155	0.8077	0.1172	0.095
Mof_C 	C 	0.7957	0.8297	0.16545	0.108
Mof_C 	C 	0.82	0.8809	0.1611	-0.196
Mof_C 	C 	0.8416	0.051	0.1844	0.04
Mof_C 	C 	0.8364	0.0584	0.2268	-0.042
Mof_C 	C 	0.9241	0.0853	0.238	-0.106
Mof_C 	C 	0.9869	0.0946	0.20183	0.124
Mof_C 	C 	0.0786	0.1212	0.1982	-0.16
Mof_C 	C 	0.1364	0.131	0.1617	0.131
Mof_C 	C 	0.2213	0.1636	0.1574	-0.118
Mof_C 	C 	0.2507	0.1615	0.1169	-0.05
Mof_C 	C 	0.1759	0.1309	0.0996	0.042
Mof_C 	C 	0.1239	0.1437	0.2358	0.174
Mof_C 	C 	0.2209	0.1316	0.2502	-0.225
Mof_C 	C 	0.2571	0.154	0.2848	0.124
Mof_C 	C 	0.1043	0.2001	0.2895	0.122
Mof_C 	C 	0.065	0.1794	0.2556	-0.217
Mof_C 	C 	0.8462	0.158	0.1264	0.042
Mof_C 	C 	0.7936	0.1933	0.1067	-0.052
Mof_C 	C 	0.8022	0.1877	0.0669	-0.101
Mof_C 	C 	0.8749	0.146	0.0631	0.116
Mof_C 	C 	0.9171	0.1251	0.0274	-0.142
Mof_C 	C 	0.9923	0.0857	0.02504	0.124
Mof_C 	C 	0.0493	0.0684	0.99122	-0.112
Mof_C 	C 	0.1193	0.033	0.0037	-0.033
Mof_C 	C 	0.1048	0.029	0.04517	0.026
Mof_C 	C 	0.878	0.1469	0.9898	0.13
Mof_C 	C 	0.907	0.1958	0.9777	-0.182
Mof_C 	C 	0.8613	0.2143	0.9444	0.091
Mof_C 	C 	0.7734	0.1411	0.9292	0.096
Mof_C 	C 	0.8146	0.1195	0.9632	-0.184
Mof_C 	C 	0.8313	0.0102	0.6443	0.048
Mof_C 	C 	0.7975	0.9635	0.6565	-0.048
Mof_C 	C 	0.8857	0.9337	0.6523	-0.114
Mof_C 	C 	0.9664	0.9615	0.636	0.124
Mof_C 	C 	0.0759	0.9456	0.626	-0.153
Mof_C 	C 	0.1535	0.9765	0.60914	0.129
Mof_C 	C 	0.2608	0.9615	0.5981	-0.112
Mof_C 	C 	0.3121	0.002	0.5821	-0.044
Mof_C 	C 	0.2368	0.0403	0.5851	0.029
Mof_C 	C 	0.1002	0.8934	0.63341	0.147
Mof_C 	C 	0.0517	0.8558	0.6115	-0.199
Mof_C 	C 	0.0845	0.8077	0.6172	0.095
Mof_C 	C 	0.2043	0.8297	0.66545	0.108
Mof_C 	C 	0.18	0.8809	0.6611	-0.196
Mof_C 	C 	0.1584	0.051	0.6844	0.04
Mof_C 	C 	0.1636	0.0584	0.7268	-0.042
Mof_C 	C 	0.0759	0.0853	0.738	-0.106
Mof_C 	C 	0.0131	0.0946	0.70183	0.124
Mof_C 	C 	0.9214	0.1212	0.6982	-0.16
Mof_C 	C 	0.8636	0.131	0.6617	0.131
Mof_C 	C 	0.7787	0.1636	0.6574	-0.118
Mof_C 	C 	0.7493	0.1615	0.6169	-0.05
Mof_C 	C 	0.8241	0.1309	0.5996	0.042
Mof_C 	C 	0.8761	0.1437	0.7358	0.174
Mof_C 	C 	0.7791	0.1316	0.7502	-0.225
Mof_C 	C 	0.7429	0.154	0.7848	0.124
Mof_C 	C 	0.8957	0.2001	0.7895	0.122
Mof_C 	C 	0.935	0.1794	0.7556	-0.217
Mof_C 	C 	0.1538	0.158	0.6264	0.042
Mof_C 	C 	0.2064	0.1933	0.6067	-0.052
Mof_C 	C 	0.1978	0.1877	0.5669	-0.101
Mof_C 	C 	0.1251	0.146	0.5631	0.116
Mof_C 	C 	0.0829	0.1251	0.5274	-0.142
Mof_C 	C 	0.0077	0.0857	0.52504	0.123
Mof_C 	C 	0.9507	0.0684	0.49122	-0.11
Mof_C 	C 	0.8807	0.033	0.5037	-0.035
Mof_C 	C 	0.8952	0.029	0.54517	0.026
Mof_C 	C 	0.122	0.1469	0.4898	0.13
Mof_C 	C 	0.093	0.1958	0.4777	-0.182
Mof_C 	C 	0.1387	0.2143	0.4444	0.091
Mof_C 	C 	0.2266	0.1411	0.4292	0.096
Mof_C 	C 	0.1854	0.1195	0.4632	-0.184
Mof_C 	C 	0.6687	0.5102	0.3557	0.048
Mof_C 	C 	0.7025	0.4635	0.3435	-0.049
Mof_C 	C 	0.6143	0.4337	0.3477	-0.113
Mof_C 	C 	0.5336	0.4615	0.364	0.122
Mof_C 	C 	0.4241	0.4456	0.374	-0.151
Mof_C 	C 	0.3465	0.4765	0.39086	0.129
Mof_C 	C 	0.2392	0.4615	0.4019	-0.112
Mof_C 	C 	0.1879	0.502	0.4179	-0.044
Mof_C 	C 	0.2632	0.5403	0.4149	0.029
Mof_C 	C 	0.3998	0.3934	0.36659	0.146
Mof_C 	C 	0.4483	0.3558	0.3885	-0.197
Mof_C 	C 	0.4155	0.3077	0.3828	0.094
Mof_C 	C 	0.2957	0.3297	0.33455	0.107
Mof_C 	C 	0.32	0.3809	0.3389	-0.195
Mof_C 	C 	0.3416	0.551	0.3156	0.04
Mof_C 	C 	0.3364	0.5584	0.2732	-0.041
Mof_C 	C 	0.4241	0.5853	0.262	-0.107
Mof_C 	C 	0.4869	0.5946	0.29817	0.127
Mof_C 	C 	0.5786	0.6212	0.3018	-0.163
Mof_C 	C 	0.6364	0.631	0.3383	0.132
Mof_C 	C 	0.7213	0.6636	0.3426	-0.119
Mof_C 	C 	0.7507	0.6615	0.3831	-0.049
Mof_C 	C 	0.6759	0.6309	0.4004	0.042
Mof_C 	C 	0.6239	0.6437	0.2642	0.177
Mof_C 	C 	0.7209	0.6316	0.2498	-0.227
Mof_C 	C 	0.7571	0.654	0.2152	0.125
Mof_C 	C 	0.6043	0.7001	0.2105	0.125
Mof_C 	C 	0.565	0.6794	0.2444	-0.222
Mof_C 	C 	0.3462	0.658	0.3736	0.042
Mof_C 	C 	0.2936	0.6933	0.3933	-0.052
Mof_C 	C 	0.3022	0.6877	0.4331	-0.101
Mof_C 	C 	0.3749	0.646	0.4369	0.116
Mof_C 	C 	0.4171	0.6251	0.4726	-0.142
Mof_C 	C 	0.4923	0.5857	0.47496	0.124
Mof_C 	C 	0.5493	0.5684	0.50878	-0.111
Mof_C 	C 	0.6193	0.533	0.4963	-0.034
Mof_C 	C 	0.6048	0.529	0.45483	0.026
Mof_C 	C 	0.378	0.6469	0.5102	0.13
Mof_C 	C 	0.407	0.6958	0.5223	-0.182
Mof_C 	C 	0.3613	0.7143	0.5556	0.091
Mof_C 	C 	0.2734	0.6411	0.5708	0.096
Mof_C 	C 	0.3146	0.6195	0.5368	-0.184
Mof_N 	N 	0.4316	0.51087	0.86819	-0.209
Mof_N 	N 	0.6394	0.52602	0.89857	-0.211
Mof_N 	N 	0.6629	0.29505	0.85584	-0.219
Mof_N 	N 	0.5707	0.5723	0.83006	-0.205
Mof_N 	N 	0.3965	0.61195	0.87461	-0.213
Mof_N 	N 	0.2987	0.6878	0.69547	-0.224
Mof_N 	N 	0.6001	0.62822	0.89923	-0.206
Mof_N 	N 	0.4732	0.56119	0.94087	-0.207
Mof_N 	N 	0.7037	0.6876	0.08125	-0.211
Mof_N 	N 	0.0684	0.01087	0.13181	-0.208
Mof_N 	N 	0.8606	0.02602	0.10143	-0.211
Mof_N 	N 	0.8371	0.79505	0.14416	-0.219
Mof_N 	N 	0.9293	0.0723	0.16994	-0.205
Mof_N 	N 	0.1035	0.11195	0.12539	-0.212
Mof_N 	N 	0.2013	0.1878	0.30453	-0.223
Mof_N 	N 	0.8999	0.12822	0.10077	-0.206
Mof_N 	N 	0.0268	0.06119	0.05913	-0.206
Mof_N 	N 	0.7963	0.1876	0.91875	-0.211
Mof_N 	N 	0.9316	0.01087	0.63181	-0.208
Mof_N 	N 	0.1394	0.02602	0.60143	-0.211
Mof_N 	N 	0.1629	0.79505	0.64416	-0.219
Mof_N 	N 	0.0707	0.0723	0.66994	-0.205
Mof_N 	N 	0.8965	0.11195	0.62539	-0.212
Mof_N 	N 	0.7987	0.1878	0.80453	-0.223
Mof_N 	N 	0.1001	0.12822	0.60077	-0.206
Mof_N 	N 	0.9732	0.06119	0.55913	-0.206
Mof_N 	N 	0.2037	0.1876	0.41875	-0.211
Mof_N 	N 	0.5684	0.51087	0.36819	-0.209
Mof_N 	N 	0.3606	0.52602	0.39857	-0.211
Mof_N 	N 	0.3371	0.29505	0.35584	-0.219
Mof_N 	N 	0.4293	0.5723	0.33006	-0.205
Mof_N 	N 	0.6035	0.61195	0.37461	-0.213
Mof_N 	N 	0.7013	0.6878	0.19547	-0.224
Mof_N 	N 	0.3999	0.62822	0.39923	-0.206
Mof_N 	N 	0.5268	0.56119	0.44087	-0.207
Mof_N 	N 	0.2963	0.6876	0.58125	-0.211
_end
