data_functionalizedCrystal
_audit_creation_method	'EQeq! by Chris Wilmer'
_symmetry_space_group_name_H-M	'P1'
_symmetry_Int_Tables_number	1
_symmetry_cell_setting	triclinic
loop_
_symmetry_equiv_pos_as_xyz
  x,y,z
_cell_length_a	7.437
_cell_length_b	11.278
_cell_length_c	15.164
_cell_angle_alpha	90
_cell_angle_beta	90
_cell_angle_gamma	90
loop_
_atom_site_label
_atom_site_type_symbol
_atom_site_fract_x
_atom_site_fract_y
_atom_site_fract_z
_atom_site_charge
Mof_Mn	Mn	0.53531	0.28615	0.22059	0.859
Mof_Mn	Mn	0.46469	0.78615	0.77941	0.862
Mof_Mn	Mn	0.03531	0.28615	0.27941	0.853
Mof_Mn	Mn	0.96469	0.78615	0.72059	0.861
Mof_H 	H 	0.8064	0.0299	0.5007	0.046
Mof_H 	H 	0.3606	0.8216	0.4962	0.075
Mof_H 	H 	0.4943	0.018	0.2821	0.067
Mof_H 	H 	0.0305	0.7908	0.3319	0.09
Mof_H 	H 	0.0669	0.8692	0.418	0.092
Mof_H 	H 	0.1667	0.7446	0.4061	0.082
Mof_H 	H 	0.1936	0.5299	0.4993	0.047
Mof_H 	H 	0.6394	0.3216	0.5038	0.076
Mof_H 	H 	0.5057	0.518	0.7179	0.086
Mof_H 	H 	0.9695	0.2908	0.6681	0.088
Mof_H 	H 	0.9331	0.3692	0.582	0.088
Mof_H 	H 	0.8333	0.2446	0.5939	0.079
Mof_H 	H 	0.3064	0.0299	0.9993	0.048
Mof_H 	H 	0.8606	0.8216	0.0038	0.077
Mof_H 	H 	0.9943	0.018	0.2179	0.074
Mof_H 	H 	0.5305	0.7908	0.1681	0.091
Mof_H 	H 	0.5669	0.8692	0.082	0.091
Mof_H 	H 	0.6667	0.7446	0.0939	0.081
Mof_H 	H 	0.6936	0.5299	0.0007	0.05
Mof_H 	H 	0.1394	0.3216	0.9962	0.078
Mof_H 	H 	0.0057	0.518	0.7821	0.085
Mof_H 	H 	0.4695	0.2908	0.8319	0.086
Mof_H 	H 	0.4331	0.3692	0.918	0.086
Mof_H 	H 	0.3333	0.2446	0.9061	0.077
Mof_C 	C 	0.7813	0.13093	0.34182	0.337
Mof_C 	C 	0.6362	0.86816	0.60106	0.367
Mof_C 	C 	0.6642	0.03949	0.38606	-0.071
Mof_C 	C 	0.7034	0.00041	0.4708	-0.009
Mof_C 	C 	0.5917	0.91794	0.512	-0.058
Mof_C 	C 	0.4396	0.87551	0.46776	-0.091
Mof_C 	C 	0.4047	0.91237	0.38234	0.137
Mof_C 	C 	0.5177	0.99381	0.34106	-0.051
Mof_C 	C 	0.1212	0.8148	0.37527	-0.155
Mof_C 	C 	0.2187	0.63093	0.65818	0.332
Mof_C 	C 	0.3638	0.36816	0.39894	0.366
Mof_C 	C 	0.3358	0.53949	0.61394	-0.051
Mof_C 	C 	0.2966	0.50041	0.5292	-0.005
Mof_C 	C 	0.4083	0.41794	0.488	-0.063
Mof_C 	C 	0.5604	0.37551	0.53224	-0.097
Mof_C 	C 	0.5953	0.41237	0.61766	0.149
Mof_C 	C 	0.4823	0.49381	0.65894	-0.089
Mof_C 	C 	0.8788	0.3148	0.62473	-0.149
Mof_C 	C 	0.2813	0.13093	0.15818	0.335
Mof_C 	C 	0.1362	0.86816	0.89894	0.364
Mof_C 	C 	0.1642	0.03949	0.11394	-0.068
Mof_C 	C 	0.2034	0.00041	0.0292	-0.018
Mof_C 	C 	0.0917	0.91794	0.988	-0.051
Mof_C 	C 	0.9396	0.87551	0.03224	-0.096
Mof_C 	C 	0.9047	0.91237	0.11766	0.143
Mof_C 	C 	0.0177	0.99381	0.15894	-0.061
Mof_C 	C 	0.6212	0.8148	0.12473	-0.154
Mof_C 	C 	0.7187	0.63093	0.84182	0.33
Mof_C 	C 	0.8638	0.36816	0.10106	0.364
Mof_C 	C 	0.8358	0.53949	0.88606	-0.048
Mof_C 	C 	0.7966	0.50041	0.9708	-0.013
Mof_C 	C 	0.9083	0.41794	0.012	-0.055
Mof_C 	C 	0.0604	0.37551	0.96776	-0.104
Mof_C 	C 	0.0953	0.41237	0.88234	0.151
Mof_C 	C 	0.9823	0.49381	0.84106	-0.09
Mof_C 	C 	0.3788	0.3148	0.87527	-0.146
Mof_O 	O 	0.73831	0.16835	0.26589	-0.396
Mof_O 	O 	0.92038	0.16532	0.37936	-0.349
Mof_O 	O 	0.79761	0.87057	0.62475	-0.392
Mof_O 	O 	0.50775	0.8251	0.64465	-0.397
Mof_O 	O 	0.26321	0.87173	0.3322	-0.176
Mof_O 	O 	0.26169	0.66835	0.73411	-0.395
Mof_O 	O 	0.07962	0.66532	0.62064	-0.349
Mof_O 	O 	0.20239	0.37057	0.37525	-0.395
Mof_O 	O 	0.49225	0.3251	0.35535	-0.398
Mof_O 	O 	0.73679	0.37173	0.6678	-0.183
Mof_O 	O 	0.23831	0.16835	0.23411	-0.398
Mof_O 	O 	0.42038	0.16532	0.12064	-0.351
Mof_O 	O 	0.29761	0.87057	0.87525	-0.391
Mof_O 	O 	0.00775	0.8251	0.85535	-0.396
Mof_O 	O 	0.76321	0.87173	0.1678	-0.177
Mof_O 	O 	0.76169	0.66835	0.76589	-0.395
Mof_O 	O 	0.57962	0.66532	0.87936	-0.349
Mof_O 	O 	0.70239	0.37057	0.12475	-0.393
Mof_O 	O 	0.99225	0.3251	0.14465	-0.393
Mof_O 	O 	0.23679	0.37173	0.8322	-0.184
_end
