data_functionalizedCrystal
_audit_creation_method	'EQeq! by Chris Wilmer'
_symmetry_space_group_name_H-M	'P1'
_symmetry_Int_Tables_number	1
_symmetry_cell_setting	triclinic
loop_
_symmetry_equiv_pos_as_xyz
  x,y,z
_cell_length_a	26.2885
_cell_length_b	26.2885
_cell_length_c	7.0608
_cell_angle_alpha	90
_cell_angle_beta	90
_cell_angle_gamma	120
loop_
_atom_site_label
_atom_site_type_symbol
_atom_site_fract_x
_atom_site_fract_y
_atom_site_fract_z
_atom_site_charge
Mof_Mn	Mn	0.9509	0.6346	0.022	0.902
Mof_C 	C 	0.0156	0.5928	0.759	0.39
Mof_C 	C 	0.0069	0.5457	0.89	-0.171
Mof_C 	C 	0.9879	0.5421	0.087	0.217
Mof_C 	C 	0.9833	0.495	0.19	-0.081
Mof_H 	H 	0.97257	0.4975	0.33724	0.056
Mof_O 	O 	0.0286	0.5924	0.586	-0.388
Mof_O 	O 	0.0045	0.6346	0.801	-0.47
Mof_O 	O 	0.9773	0.5834	0.139	-0.454
Mof_Mn	Mn	0.61757	0.96793	0.35533	0.902
Mof_C 	C 	0.68227	0.92613	0.09233	0.389
Mof_C 	C 	0.67357	0.87903	0.22333	-0.172
Mof_C 	C 	0.65457	0.87543	0.42033	0.217
Mof_C 	C 	0.64997	0.82833	0.52333	-0.081
Mof_H 	H 	0.63924	0.83083	0.67057	0.056
Mof_O 	O 	0.69527	0.92573	0.91933	-0.388
Mof_O 	O 	0.67117	0.96793	0.13433	-0.47
Mof_O 	O 	0.64397	0.91673	0.47233	-0.454
Mof_Mn	Mn	0.28423	0.30127	0.68867	0.902
Mof_C 	C 	0.34893	0.25947	0.42567	0.389
Mof_C 	C 	0.34023	0.21237	0.55667	-0.171
Mof_C 	C 	0.32123	0.20877	0.75367	0.217
Mof_C 	C 	0.31663	0.16167	0.85667	-0.08
Mof_H 	H 	0.3059	0.16417	0.00391	0.056
Mof_O 	O 	0.36193	0.25907	0.25267	-0.388
Mof_O 	O 	0.33783	0.30127	0.46767	-0.47
Mof_O 	O 	0.31063	0.25007	0.80567	-0.453
Mof_Mn	Mn	0.3654	0.3163	0.022	0.901
Mof_C 	C 	0.4072	0.4228	0.759	0.389
Mof_C 	C 	0.4543	0.4612	0.89	-0.171
Mof_C 	C 	0.4579	0.4458	0.087	0.217
Mof_C 	C 	0.505	0.4883	0.19	-0.081
Mof_H 	H 	0.5025	0.47507	0.33724	0.056
Mof_O 	O 	0.4076	0.4362	0.586	-0.388
Mof_O 	O 	0.3654	0.3699	0.801	-0.47
Mof_O 	O 	0.4166	0.3939	0.139	-0.454
Mof_Mn	Mn	0.03207	0.64963	0.35533	0.902
Mof_C 	C 	0.07387	0.75613	0.09233	0.389
Mof_C 	C 	0.12097	0.79453	0.22333	-0.172
Mof_C 	C 	0.12457	0.77913	0.42033	0.217
Mof_C 	C 	0.17167	0.82163	0.52333	-0.081
Mof_H 	H 	0.16917	0.8084	0.67057	0.056
Mof_O 	O 	0.07427	0.76953	0.91933	-0.389
Mof_O 	O 	0.03207	0.70323	0.13433	-0.47
Mof_O 	O 	0.08327	0.72723	0.47233	-0.454
Mof_Mn	Mn	0.69873	0.98297	0.68867	0.902
Mof_C 	C 	0.74053	0.08947	0.42567	0.389
Mof_C 	C 	0.78763	0.12787	0.55667	-0.171
Mof_C 	C 	0.79123	0.11247	0.75367	0.217
Mof_C 	C 	0.83833	0.15497	0.85667	-0.079
Mof_H 	H 	0.83583	0.14174	0.00391	0.055
Mof_O 	O 	0.74093	0.10287	0.25267	-0.388
Mof_O 	O 	0.69873	0.03657	0.46767	-0.47
Mof_O 	O 	0.74993	0.06057	0.80567	-0.453
Mof_Mn	Mn	0.6837	0.0491	0.022	0.901
Mof_C 	C 	0.5772	0.9844	0.759	0.389
Mof_C 	C 	0.5388	0.9931	0.89	-0.171
Mof_C 	C 	0.5542	0.0121	0.087	0.217
Mof_C 	C 	0.5117	0.0167	0.19	-0.081
Mof_H 	H 	0.52493	0.02743	0.33724	0.056
Mof_O 	O 	0.5638	0.9714	0.586	-0.388
Mof_O 	O 	0.6301	0.9955	0.801	-0.47
Mof_O 	O 	0.6061	0.0227	0.139	-0.454
Mof_Mn	Mn	0.35037	0.38243	0.35533	0.902
Mof_C 	C 	0.24387	0.31773	0.09233	0.389
Mof_C 	C 	0.20547	0.32643	0.22333	-0.172
Mof_C 	C 	0.22087	0.34543	0.42033	0.217
Mof_C 	C 	0.17837	0.35003	0.52333	-0.081
Mof_H 	H 	0.1916	0.36076	0.67057	0.056
Mof_O 	O 	0.23047	0.30473	0.91933	-0.388
Mof_O 	O 	0.29677	0.32883	0.13433	-0.47
Mof_O 	O 	0.27277	0.35603	0.47233	-0.454
Mof_Mn	Mn	0.01703	0.71577	0.68867	0.902
Mof_C 	C 	0.91053	0.65107	0.42567	0.389
Mof_C 	C 	0.87213	0.65977	0.55667	-0.171
Mof_C 	C 	0.88753	0.67877	0.75367	0.217
Mof_C 	C 	0.84503	0.68337	0.85667	-0.08
Mof_H 	H 	0.85826	0.6941	0.00391	0.056
Mof_O 	O 	0.89713	0.63807	0.25267	-0.388
Mof_O 	O 	0.96343	0.66217	0.46767	-0.47
Mof_O 	O 	0.93943	0.68937	0.80567	-0.453
Mof_Mn	Mn	0.0491	0.3654	0.978	0.901
Mof_C 	C 	0.9844	0.4072	0.241	0.389
Mof_C 	C 	0.9931	0.4543	0.11	-0.171
Mof_C 	C 	0.0121	0.4579	0.913	0.217
Mof_C 	C 	0.0167	0.505	0.81	-0.081
Mof_H 	H 	0.02743	0.5025	0.66276	0.056
Mof_O 	O 	0.9714	0.4076	0.414	-0.388
Mof_O 	O 	0.9955	0.3654	0.199	-0.47
Mof_O 	O 	0.0227	0.4166	0.861	-0.454
Mof_Mn	Mn	0.71577	0.69873	0.31133	0.902
Mof_C 	C 	0.65107	0.74053	0.57433	0.389
Mof_C 	C 	0.65977	0.78763	0.44333	-0.171
Mof_C 	C 	0.67877	0.79123	0.24633	0.217
Mof_C 	C 	0.68337	0.83833	0.14333	-0.08
Mof_H 	H 	0.6941	0.83583	0.99609	0.056
Mof_O 	O 	0.63807	0.74093	0.74733	-0.388
Mof_O 	O 	0.66217	0.69873	0.53233	-0.47
Mof_O 	O 	0.68937	0.74993	0.19433	-0.453
Mof_Mn	Mn	0.38243	0.03207	0.64467	0.902
Mof_C 	C 	0.31773	0.07387	0.90767	0.389
Mof_C 	C 	0.32643	0.12097	0.77667	-0.172
Mof_C 	C 	0.34543	0.12457	0.57967	0.217
Mof_C 	C 	0.35003	0.17167	0.47667	-0.081
Mof_H 	H 	0.36076	0.16917	0.32943	0.056
Mof_O 	O 	0.30473	0.07427	0.08067	-0.388
Mof_O 	O 	0.32883	0.03207	0.86567	-0.47
Mof_O 	O 	0.35603	0.08327	0.52767	-0.454
Mof_Mn	Mn	0.6346	0.6837	0.978	0.901
Mof_C 	C 	0.5928	0.5772	0.241	0.389
Mof_C 	C 	0.5457	0.5388	0.11	-0.171
Mof_C 	C 	0.5421	0.5542	0.913	0.217
Mof_C 	C 	0.495	0.5117	0.81	-0.081
Mof_H 	H 	0.4975	0.52493	0.66276	0.056
Mof_O 	O 	0.5924	0.5638	0.414	-0.388
Mof_O 	O 	0.6346	0.6301	0.199	-0.47
Mof_O 	O 	0.5834	0.6061	0.861	-0.454
Mof_Mn	Mn	0.30127	0.01703	0.31133	0.902
Mof_C 	C 	0.25947	0.91053	0.57433	0.389
Mof_C 	C 	0.21237	0.87213	0.44333	-0.171
Mof_C 	C 	0.20877	0.88753	0.24633	0.217
Mof_C 	C 	0.16167	0.84503	0.14333	-0.079
Mof_H 	H 	0.16417	0.85826	0.99609	0.055
Mof_O 	O 	0.25907	0.89713	0.74733	-0.388
Mof_O 	O 	0.30127	0.96343	0.53233	-0.47
Mof_O 	O 	0.25007	0.93943	0.19433	-0.453
Mof_Mn	Mn	0.96793	0.35037	0.64467	0.902
Mof_C 	C 	0.92613	0.24387	0.90767	0.389
Mof_C 	C 	0.87903	0.20547	0.77667	-0.172
Mof_C 	C 	0.87543	0.22087	0.57967	0.217
Mof_C 	C 	0.82833	0.17837	0.47667	-0.081
Mof_H 	H 	0.83083	0.1916	0.32943	0.056
Mof_O 	O 	0.92573	0.23047	0.08067	-0.389
Mof_O 	O 	0.96793	0.29677	0.86567	-0.47
Mof_O 	O 	0.91673	0.27277	0.52767	-0.454
Mof_Mn	Mn	0.3163	0.9509	0.978	0.901
Mof_C 	C 	0.4228	0.0156	0.241	0.389
Mof_C 	C 	0.4612	0.0069	0.11	-0.171
Mof_C 	C 	0.4458	0.9879	0.913	0.217
Mof_C 	C 	0.4883	0.9833	0.81	-0.081
Mof_H 	H 	0.47507	0.97257	0.66276	0.056
Mof_O 	O 	0.4362	0.0286	0.414	-0.388
Mof_O 	O 	0.3699	0.0045	0.199	-0.47
Mof_O 	O 	0.3939	0.9773	0.861	-0.454
Mof_Mn	Mn	0.98297	0.28423	0.31133	0.902
Mof_C 	C 	0.08947	0.34893	0.57433	0.389
Mof_C 	C 	0.12787	0.34023	0.44333	-0.171
Mof_C 	C 	0.11247	0.32123	0.24633	0.217
Mof_C 	C 	0.15497	0.31663	0.14333	-0.08
Mof_H 	H 	0.14174	0.3059	0.99609	0.056
Mof_O 	O 	0.10287	0.36193	0.74733	-0.388
Mof_O 	O 	0.03657	0.33783	0.53233	-0.47
Mof_O 	O 	0.06057	0.31063	0.19433	-0.453
Mof_Mn	Mn	0.64963	0.61757	0.64467	0.902
Mof_C 	C 	0.75613	0.68227	0.90767	0.389
Mof_C 	C 	0.79453	0.67357	0.77667	-0.172
Mof_C 	C 	0.77913	0.65457	0.57967	0.217
Mof_C 	C 	0.82163	0.64997	0.47667	-0.081
Mof_H 	H 	0.8084	0.63924	0.32943	0.056
Mof_O 	O 	0.76953	0.69527	0.08067	-0.388
Mof_O 	O 	0.70323	0.67117	0.86567	-0.47
Mof_O 	O 	0.72723	0.64397	0.52767	-0.454
_end
