data_functionalizedCrystal
_audit_creation_method	'EQeq! by Chris Wilmer'
_symmetry_space_group_name_H-M	'P1'
_symmetry_Int_Tables_number	1
_symmetry_cell_setting	triclinic
loop_
_symmetry_equiv_pos_as_xyz
  x,y,z
_cell_length_a	14.116
_cell_length_b	26.839
_cell_length_c	7.642
_cell_angle_alpha	90
_cell_angle_beta	90
_cell_angle_gamma	90.19
loop_
_atom_site_label
_atom_site_type_symbol
_atom_site_fract_x
_atom_site_fract_y
_atom_site_fract_z
_atom_site_charge
Mof_Cd	Cd	0.2798	0.13518	0.8852	0.359
Mof_N 	N 	0.266	0.0824	0.104	-0.088
Mof_N 	N 	0.257	0.0808	0.661	-0.084
Mof_N 	N 	0.336	0.1997	0.085	-0.065
Mof_N 	N 	0.631	0.1687	0.12	-0.076
Mof_N 	N 	0.321	0.1937	0.656	-0.117
Mof_N 	N 	0.446	0.1262	0.831	-0.127
Mof_C 	C 	0.258	0.0487	0.207	-0.264
Mof_C 	C 	0.252	0.0478	0.554	-0.272
Mof_C 	C 	0.391	0.2179	0.153	-0.207
Mof_C 	C 	0.579	0.1991	0.168	-0.222
Mof_C 	C 	0.417	0.189	0.622	-0.014
Mof_C 	C 	0.465	0.148	0.669	0.017
Mof_Cd	Cd	0.2798	0.63518	0.3852	0.365
Mof_N 	N 	0.266	0.5824	0.604	-0.089
Mof_N 	N 	0.257	0.5808	0.161	-0.083
Mof_N 	N 	0.336	0.6997	0.585	-0.067
Mof_N 	N 	0.631	0.6687	0.62	-0.076
Mof_N 	N 	0.321	0.6937	0.156	-0.117
Mof_N 	N 	0.446	0.6262	0.331	-0.123
Mof_C 	C 	0.258	0.5487	0.707	-0.245
Mof_C 	C 	0.252	0.5478	0.054	-0.248
Mof_C 	C 	0.391	0.7179	0.653	-0.207
Mof_C 	C 	0.579	0.6991	0.668	-0.222
Mof_C 	C 	0.417	0.689	0.122	-0.013
Mof_C 	C 	0.465	0.648	0.169	0.021
Mof_Cd	Cd	0.2202	0.86482	0.8852	0.371
Mof_N 	N 	0.234	0.9176	0.104	-0.088
Mof_N 	N 	0.243	0.9192	0.661	-0.082
Mof_N 	N 	0.164	0.8003	0.085	-0.062
Mof_N 	N 	0.869	0.8313	0.12	-0.074
Mof_N 	N 	0.179	0.8063	0.656	-0.117
Mof_N 	N 	0.054	0.8738	0.831	-0.136
Mof_C 	C 	0.242	0.9513	0.207	-0.206
Mof_C 	C 	0.248	0.9522	0.554	-0.211
Mof_C 	C 	0.109	0.7821	0.153	-0.232
Mof_C 	C 	0.921	0.8009	0.168	-0.162
Mof_C 	C 	0.083	0.811	0.622	-0.031
Mof_C 	C 	0.035	0.852	0.669	-0.008
Mof_Cd	Cd	0.2202	0.36482	0.3852	0.367
Mof_N 	N 	0.234	0.4176	0.604	-0.088
Mof_N 	N 	0.243	0.4192	0.161	-0.081
Mof_N 	N 	0.164	0.3003	0.585	-0.063
Mof_N 	N 	0.869	0.3313	0.62	-0.075
Mof_N 	N 	0.179	0.3063	0.156	-0.116
Mof_N 	N 	0.054	0.3738	0.331	-0.14
Mof_C 	C 	0.242	0.4513	0.707	-0.243
Mof_C 	C 	0.248	0.4522	0.054	-0.244
Mof_C 	C 	0.109	0.2821	0.653	-0.235
Mof_C 	C 	0.921	0.3009	0.668	-0.162
Mof_C 	C 	0.083	0.311	0.122	-0.029
Mof_C 	C 	0.035	0.352	0.169	-0.011
Mof_Cd	Cd	0.7202	0.86482	0.1148	0.39
Mof_N 	N 	0.734	0.9176	0.896	-0.083
Mof_N 	N 	0.743	0.9192	0.339	-0.077
Mof_N 	N 	0.664	0.8003	0.915	-0.063
Mof_N 	N 	0.369	0.8313	0.88	-0.075
Mof_N 	N 	0.679	0.8063	0.344	-0.113
Mof_N 	N 	0.554	0.8738	0.169	-0.12
Mof_C 	C 	0.742	0.9513	0.793	-0.187
Mof_C 	C 	0.748	0.9522	0.446	-0.192
Mof_C 	C 	0.609	0.7821	0.847	-0.204
Mof_C 	C 	0.421	0.8009	0.832	-0.222
Mof_C 	C 	0.583	0.811	0.378	-0.013
Mof_C 	C 	0.535	0.852	0.331	0.026
Mof_Cd	Cd	0.7202	0.36482	0.6148	0.384
Mof_N 	N 	0.734	0.4176	0.396	-0.081
Mof_N 	N 	0.743	0.4192	0.839	-0.076
Mof_N 	N 	0.664	0.3003	0.415	-0.063
Mof_N 	N 	0.369	0.3313	0.38	-0.076
Mof_N 	N 	0.679	0.3063	0.844	-0.113
Mof_N 	N 	0.554	0.3738	0.669	-0.124
Mof_C 	C 	0.742	0.4513	0.293	-0.222
Mof_C 	C 	0.748	0.4522	0.946	-0.228
Mof_C 	C 	0.609	0.2821	0.347	-0.204
Mof_C 	C 	0.421	0.3009	0.332	-0.223
Mof_C 	C 	0.583	0.311	0.878	-0.013
Mof_C 	C 	0.535	0.352	0.831	0.021
Mof_Cd	Cd	0.7798	0.13518	0.1148	0.376
Mof_N 	N 	0.766	0.0824	0.896	-0.083
Mof_N 	N 	0.757	0.0808	0.339	-0.08
Mof_N 	N 	0.836	0.1997	0.915	-0.073
Mof_N 	N 	0.131	0.1687	0.88	-0.083
Mof_N 	N 	0.821	0.1937	0.344	-0.114
Mof_N 	N 	0.946	0.1262	0.169	-0.111
Mof_C 	C 	0.758	0.0487	0.793	-0.245
Mof_C 	C 	0.752	0.0478	0.446	-0.253
Mof_C 	C 	0.891	0.2179	0.847	-0.156
Mof_C 	C 	0.079	0.1991	0.832	-0.263
Mof_C 	C 	0.917	0.189	0.378	0.007
Mof_C 	C 	0.965	0.148	0.331	0.051
Mof_Cd	Cd	0.7798	0.63518	0.6148	0.382
Mof_N 	N 	0.766	0.5824	0.396	-0.082
Mof_N 	N 	0.757	0.5808	0.839	-0.078
Mof_N 	N 	0.836	0.6997	0.415	-0.073
Mof_N 	N 	0.131	0.6687	0.38	-0.082
Mof_N 	N 	0.821	0.6937	0.844	-0.114
Mof_N 	N 	0.946	0.6262	0.669	-0.107
Mof_C 	C 	0.758	0.5487	0.293	-0.223
Mof_C 	C 	0.752	0.5478	0.946	-0.232
Mof_C 	C 	0.891	0.7179	0.347	-0.156
Mof_C 	C 	0.079	0.6991	0.332	-0.261
Mof_C 	C 	0.917	0.689	0.878	0.007
Mof_C 	C 	0.965	0.648	0.831	0.055
Mof_Ni	Ni	0.25	0	0.3799	1.038
Mof_Ni	Ni	0.25	0.5	0.8799	1.061
Mof_Ni	Ni	0.75	0	0.6201	1.043
Mof_Ni	Ni	0.75	0.5	0.1201	1.067
Mof_Ni	Ni	0.5	0.25	0.25	1.058
Mof_Ni	Ni	-9.52374e-19	0.75	0.25	1.02
Mof_Ni	Ni	0.5	0.75	0.75	1.058
Mof_Ni	Ni	-9.61632e-20	0.25	0.75	1.019
_end
