data_functionalizedCrystal
_audit_creation_method	'EQeq! by Chris Wilmer'
_symmetry_space_group_name_H-M	'P1'
_symmetry_Int_Tables_number	1
_symmetry_cell_setting	triclinic
loop_
_symmetry_equiv_pos_as_xyz
  x,y,z
_cell_length_a	15.9584
_cell_length_b	8.2376
_cell_length_c	16.2554
_cell_angle_alpha	90
_cell_angle_beta	105.368
_cell_angle_gamma	90
loop_
_atom_site_label
_atom_site_type_symbol
_atom_site_fract_x
_atom_site_fract_y
_atom_site_fract_z
_atom_site_charge
Mof_U 	U 	0.70752	0.12266	0.25869	0.087
Mof_P 	P 	0.93245	0.9831	0.29639	0.397
Mof_P 	P 	0.50345	0.97435	0.30373	0.391
Mof_F 	F 	0.75471	0.8595	0.29813	-0.294
Mof_O 	O 	0.85858	0.0999	0.26359	-0.122
Mof_O 	O 	0.0135	0.0351	0.26553	-0.143
Mof_O 	O 	0.9158	0.8071	0.26989	-0.13
Mof_O 	O 	0.96518	0.2894	0.41138	-0.352
Mof_H 	H 	0.9332	0.2751	0.3618	0.278
Mof_O 	O 	0.59588	0.9828	0.29847	-0.131
Mof_O 	O 	0.45434	0.1315	0.2604	-0.141
Mof_O 	O 	0.45047	0.8278	0.26612	-0.184
Mof_O 	O 	0.38225	0.793	0.39616	-0.36
Mof_H 	H 	0.3918	0.7847	0.3479	0.278
Mof_C 	C 	0.96664	0.9934	0.41086	-0.051
Mof_C 	C 	0.98	0.1435	0.4531	0.23
Mof_C 	C 	0.9867	0.8514	0.4588	-0.092
Mof_H 	H 	0.9774	0.7493	0.4307	0.137
Mof_C 	C 	0.50134	0.984	0.41415	-0.063
Mof_C 	C 	0.4416	0.896	0.4458	0.23
Mof_C 	C 	0.5592	0.0872	0.4695	-0.097
Mof_H 	H 	0.6001	0.1474	0.4487	0.131
Mof_U 	U 	0.79248	0.62266	0.24131	0.088
Mof_P 	P 	0.56755	0.4831	0.20361	0.399
Mof_P 	P 	0.99655	0.47435	0.19627	0.391
Mof_F 	F 	0.74529	0.3595	0.20187	-0.294
Mof_O 	O 	0.64142	0.5999	0.23641	-0.123
Mof_O 	O 	0.4865	0.5351	0.23447	-0.144
Mof_O 	O 	0.5842	0.3071	0.23011	-0.13
Mof_O 	O 	0.53482	0.7894	0.08862	-0.353
Mof_H 	H 	0.5668	0.7751	0.1382	0.278
Mof_O 	O 	0.90412	0.4828	0.20153	-0.131
Mof_O 	O 	0.04566	0.6315	0.2396	-0.14
Mof_O 	O 	0.04953	0.3278	0.23388	-0.184
Mof_O 	O 	0.11775	0.293	0.10384	-0.361
Mof_H 	H 	0.1082	0.2847	0.1521	0.279
Mof_C 	C 	0.53336	0.4934	0.08914	-0.051
Mof_C 	C 	0.52	0.6435	0.0469	0.23
Mof_C 	C 	0.5133	0.3514	0.0412	-0.092
Mof_H 	H 	0.5226	0.2493	0.0693	0.137
Mof_C 	C 	0.99866	0.484	0.08585	-0.064
Mof_C 	C 	0.0584	0.396	0.0542	0.233
Mof_C 	C 	0.9408	0.5872	0.0305	-0.099
Mof_H 	H 	0.8999	0.6474	0.0513	0.131
Mof_U 	U 	0.29248	0.87734	0.74131	0.088
Mof_P 	P 	0.06755	0.0169	0.70361	0.398
Mof_P 	P 	0.49655	0.02565	0.69627	0.391
Mof_F 	F 	0.24529	0.1405	0.70187	-0.294
Mof_O 	O 	0.14142	0.9001	0.73641	-0.122
Mof_O 	O 	0.9865	0.9649	0.73447	-0.143
Mof_O 	O 	0.0842	0.1929	0.73011	-0.13
Mof_O 	O 	0.03482	0.7106	0.58862	-0.352
Mof_H 	H 	0.0668	0.7249	0.6382	0.278
Mof_O 	O 	0.40412	0.0172	0.70153	-0.131
Mof_O 	O 	0.54566	0.8685	0.7396	-0.141
Mof_O 	O 	0.54953	0.1722	0.73388	-0.184
Mof_O 	O 	0.61775	0.207	0.60384	-0.36
Mof_H 	H 	0.6082	0.2153	0.6521	0.278
Mof_C 	C 	0.03336	0.0066	0.58914	-0.051
Mof_C 	C 	0.02	0.8565	0.5469	0.23
Mof_C 	C 	0.0133	0.1486	0.5412	-0.092
Mof_H 	H 	0.0226	0.2507	0.5693	0.137
Mof_C 	C 	0.49866	0.016	0.58585	-0.063
Mof_C 	C 	0.5584	0.104	0.5542	0.23
Mof_C 	C 	0.4408	0.9128	0.5305	-0.097
Mof_H 	H 	0.3999	0.8526	0.5513	0.131
Mof_U 	U 	0.20752	0.37734	0.75869	0.088
Mof_P 	P 	0.43245	0.5169	0.79639	0.399
Mof_P 	P 	0.00345	0.52565	0.80373	0.391
Mof_F 	F 	0.25471	0.6405	0.79813	-0.294
Mof_O 	O 	0.35858	0.4001	0.76359	-0.123
Mof_O 	O 	0.5135	0.4649	0.76553	-0.144
Mof_O 	O 	0.4158	0.6929	0.76989	-0.13
Mof_O 	O 	0.46518	0.2106	0.91138	-0.353
Mof_H 	H 	0.4332	0.2249	0.8618	0.278
Mof_O 	O 	0.09588	0.5172	0.79847	-0.131
Mof_O 	O 	0.95434	0.3685	0.7604	-0.14
Mof_O 	O 	0.95047	0.6722	0.76612	-0.184
Mof_O 	O 	0.88225	0.707	0.89616	-0.361
Mof_H 	H 	0.8918	0.7153	0.8479	0.279
Mof_C 	C 	0.46664	0.5066	0.91086	-0.051
Mof_C 	C 	0.48	0.3565	0.9531	0.23
Mof_C 	C 	0.4867	0.6486	0.9588	-0.092
Mof_H 	H 	0.4774	0.7507	0.9307	0.137
Mof_C 	C 	0.00134	0.516	0.91415	-0.064
Mof_C 	C 	0.9416	0.604	0.9458	0.233
Mof_C 	C 	0.0592	0.4128	0.9695	-0.099
Mof_H 	H 	0.1001	0.3526	0.9487	0.131
_end
