data_functionalizedCrystal
_audit_creation_method	'EQeq! by Chris Wilmer'
_symmetry_space_group_name_H-M	'P1'
_symmetry_Int_Tables_number	1
_symmetry_cell_setting	triclinic
loop_
_symmetry_equiv_pos_as_xyz
  x,y,z
_cell_length_a	31.379
_cell_length_b	31.379
_cell_length_c	12.684
_cell_angle_alpha	90
_cell_angle_beta	90
_cell_angle_gamma	120
loop_
_atom_site_label
_atom_site_type_symbol
_atom_site_fract_x
_atom_site_fract_y
_atom_site_fract_z
_atom_site_charge
Mof_P 	P 	0.02432	0.65558	0.06306	0.498
Mof_H 	H 	0.0797	0.6783	0.0578	0.016
Mof_P 	P 	0.00639	0.56814	0.51438	0.513
Mof_H 	H 	0.9566	0.5572	0.4962	-0.003
Mof_P 	P 	0.05156	0.52466	0.13039	0.509
Mof_H 	H 	0.1001	0.5427	0.1072	-0.004
Mof_P 	P 	0.92985	0.52057	0.2177	0.519
Mof_H 	H 	0.8829	0.4904	0.2241	-0.013
Mof_Be	Be	0.0037	0.5065	0.3334	0.773
Mof_Be	Be	0.9885	0.55447	0.0243	0.767
Mof_Be	Be	0.04364	0.66982	0.5788	0.782
Mof_O 	O 	0.01016	0.64318	0.17745	-0.358
Mof_O 	O 	0.00287	0.61061	0.9936	-0.351
Mof_O 	O 	0.01291	0.6939	0.02263	-0.359
Mof_O 	O 	0.03901	0.62351	0.5161	-0.36
Mof_O 	O 	0.02157	0.54847	0.4225	-0.368
Mof_O 	O 	0.00768	0.54626	0.6189	-0.362
Mof_O 	O 	0.04878	0.52673	0.249	-0.354
Mof_O 	O 	0.03706	0.55795	0.0747	-0.381
Mof_O 	O 	0.025	0.47259	0.0902	-0.361
Mof_O 	O 	0.9409	0.52853	0.1011	-0.377
Mof_O 	O 	0.95352	0.49488	0.2723	-0.366
Mof_O 	O 	0.93862	0.56583	0.2763	-0.368
Mof_P 	P 	0.69099	0.98891	0.39639	0.499
Mof_H 	H 	0.74637	0.01163	0.39113	0.017
Mof_P 	P 	0.67306	0.90147	0.84771	0.513
Mof_H 	H 	0.62327	0.89053	0.82953	-0.002
Mof_P 	P 	0.71823	0.85799	0.46372	0.51
Mof_H 	H 	0.76677	0.87603	0.44053	-0.004
Mof_P 	P 	0.59652	0.8539	0.55103	0.52
Mof_H 	H 	0.54957	0.82373	0.55743	-0.012
Mof_Be	Be	0.67037	0.83983	0.66673	0.774
Mof_Be	Be	0.65517	0.8878	0.35763	0.769
Mof_Be	Be	0.71031	0.00315	0.91213	0.782
Mof_O 	O 	0.67683	0.97651	0.51078	-0.359
Mof_O 	O 	0.66954	0.94394	0.32693	-0.351
Mof_O 	O 	0.67958	0.02723	0.35596	-0.359
Mof_O 	O 	0.70568	0.95684	0.84943	-0.361
Mof_O 	O 	0.68824	0.8818	0.75583	-0.368
Mof_O 	O 	0.67435	0.87959	0.95223	-0.362
Mof_O 	O 	0.71545	0.86006	0.58233	-0.354
Mof_O 	O 	0.70373	0.89128	0.40803	-0.382
Mof_O 	O 	0.69167	0.80592	0.42353	-0.361
Mof_O 	O 	0.60757	0.86186	0.43443	-0.377
Mof_O 	O 	0.62019	0.82821	0.60563	-0.365
Mof_O 	O 	0.60529	0.89916	0.60963	-0.368
Mof_P 	P 	0.35765	0.32225	0.72973	0.498
Mof_H 	H 	0.41303	0.34497	0.72447	0.017
Mof_P 	P 	0.33972	0.23481	0.18105	0.513
Mof_H 	H 	0.28993	0.22387	0.16287	-0.002
Mof_P 	P 	0.38489	0.19133	0.79706	0.51
Mof_H 	H 	0.43343	0.20937	0.77387	-0.004
Mof_P 	P 	0.26318	0.18724	0.88437	0.52
Mof_H 	H 	0.21623	0.15707	0.89077	-0.012
Mof_Be	Be	0.33703	0.17317	7e-05	0.774
Mof_Be	Be	0.32183	0.22114	0.69097	0.769
Mof_Be	Be	0.37697	0.33649	0.24547	0.782
Mof_O 	O 	0.34349	0.30985	0.84412	-0.359
Mof_O 	O 	0.3362	0.27728	0.66027	-0.351
Mof_O 	O 	0.34624	0.36057	0.6893	-0.359
Mof_O 	O 	0.37234	0.29018	0.18277	-0.36
Mof_O 	O 	0.3549	0.21514	0.08917	-0.368
Mof_O 	O 	0.34101	0.21293	0.28557	-0.361
Mof_O 	O 	0.38211	0.1934	0.91567	-0.353
Mof_O 	O 	0.37039	0.22462	0.74137	-0.382
Mof_O 	O 	0.35833	0.13926	0.75687	-0.361
Mof_O 	O 	0.27423	0.1952	0.76777	-0.377
Mof_O 	O 	0.28685	0.16155	0.93897	-0.365
Mof_O 	O 	0.27195	0.2325	0.94297	-0.368
Mof_P 	P 	0.34442	0.36874	0.06306	0.498
Mof_H 	H 	0.3217	0.4014	0.0578	0.017
Mof_P 	P 	0.43186	0.43825	0.51438	0.513
Mof_H 	H 	0.4428	0.3994	0.4962	-0.002
Mof_P 	P 	0.47534	0.5269	0.13039	0.51
Mof_H 	H 	0.4573	0.5574	0.1072	-0.003
Mof_P 	P 	0.47943	0.40928	0.2177	0.52
Mof_H 	H 	0.5096	0.3925	0.2241	-0.012
Mof_Be	Be	0.4935	0.4972	0.3334	0.774
Mof_Be	Be	0.44553	0.43403	0.0243	0.769
Mof_Be	Be	0.33018	0.37382	0.5788	0.782
Mof_O 	O 	0.35682	0.36698	0.17745	-0.359
Mof_O 	O 	0.38939	0.39226	0.9936	-0.351
Mof_O 	O 	0.3061	0.31901	0.02263	-0.359
Mof_O 	O 	0.37649	0.4155	0.5161	-0.36
Mof_O 	O 	0.45153	0.4731	0.4225	-0.368
Mof_O 	O 	0.45374	0.46142	0.6189	-0.361
Mof_O 	O 	0.47327	0.52205	0.249	-0.354
Mof_O 	O 	0.44205	0.47911	0.0747	-0.382
Mof_O 	O 	0.52741	0.55241	0.0902	-0.361
Mof_O 	O 	0.47147	0.41237	0.1011	-0.377
Mof_O 	O 	0.50512	0.45864	0.2723	-0.365
Mof_O 	O 	0.43417	0.37279	0.2763	-0.368
Mof_P 	P 	0.01109	0.70207	0.39639	0.499
Mof_H 	H 	0.98837	0.73473	0.39113	0.017
Mof_P 	P 	0.09853	0.77158	0.84771	0.513
Mof_H 	H 	0.10947	0.73273	0.82953	-0.002
Mof_P 	P 	0.14201	0.86023	0.46372	0.51
Mof_H 	H 	0.12397	0.89073	0.44053	-0.003
Mof_P 	P 	0.1461	0.74261	0.55103	0.52
Mof_H 	H 	0.17627	0.72583	0.55743	-0.012
Mof_Be	Be	0.16017	0.83053	0.66673	0.774
Mof_Be	Be	0.1122	0.76736	0.35763	0.769
Mof_Be	Be	0.99685	0.70715	0.91213	0.782
Mof_O 	O 	0.02349	0.70031	0.51078	-0.359
Mof_O 	O 	0.05606	0.72559	0.32693	-0.351
Mof_O 	O 	0.97277	0.65234	0.35596	-0.359
Mof_O 	O 	0.04316	0.74883	0.84943	-0.361
Mof_O 	O 	0.1182	0.80643	0.75583	-0.368
Mof_O 	O 	0.12041	0.79475	0.95223	-0.362
Mof_O 	O 	0.13994	0.85538	0.58233	-0.354
Mof_O 	O 	0.10872	0.81244	0.40803	-0.382
Mof_O 	O 	0.19408	0.88574	0.42353	-0.361
Mof_O 	O 	0.13814	0.7457	0.43443	-0.377
Mof_O 	O 	0.17179	0.79197	0.60563	-0.365
Mof_O 	O 	0.10084	0.70612	0.60963	-0.368
Mof_P 	P 	0.67775	0.03541	0.72973	0.499
Mof_H 	H 	0.65503	0.06807	0.72447	0.017
Mof_P 	P 	0.76519	0.10492	0.18105	0.513
Mof_H 	H 	0.77613	0.06607	0.16287	-0.002
Mof_P 	P 	0.80867	0.19357	0.79706	0.51
Mof_H 	H 	0.79063	0.22407	0.77387	-0.003
Mof_P 	P 	0.81276	0.07595	0.88437	0.52
Mof_H 	H 	0.84293	0.05917	0.89077	-0.012
Mof_Be	Be	0.82683	0.16387	7e-05	0.773
Mof_Be	Be	0.77886	0.1007	0.69097	0.769
Mof_Be	Be	0.66351	0.04049	0.24547	0.781
Mof_O 	O 	0.69015	0.03365	0.84412	-0.359
Mof_O 	O 	0.72272	0.05893	0.66027	-0.351
Mof_O 	O 	0.63943	0.98568	0.6893	-0.359
Mof_O 	O 	0.70982	0.08217	0.18277	-0.36
Mof_O 	O 	0.78486	0.13977	0.08917	-0.368
Mof_O 	O 	0.78707	0.12809	0.28557	-0.361
Mof_O 	O 	0.8066	0.18872	0.91567	-0.353
Mof_O 	O 	0.77538	0.14578	0.74137	-0.382
Mof_O 	O 	0.86074	0.21908	0.75687	-0.361
Mof_O 	O 	0.8048	0.07904	0.76777	-0.377
Mof_O 	O 	0.83845	0.12531	0.93897	-0.365
Mof_O 	O 	0.7675	0.03946	0.94297	-0.368
Mof_P 	P 	0.63126	0.97568	0.06306	0.499
Mof_H 	H 	0.5986	0.9203	0.0578	0.017
Mof_P 	P 	0.56175	0.99361	0.51438	0.514
Mof_H 	H 	0.6006	0.0434	0.4962	-0.002
Mof_P 	P 	0.4731	0.94844	0.13039	0.51
Mof_H 	H 	0.4426	0.8999	0.1072	-0.003
Mof_P 	P 	0.59072	0.07015	0.2177	0.52
Mof_H 	H 	0.6075	0.1171	0.2241	-0.012
Mof_Be	Be	0.5028	0.9963	0.3334	0.774
Mof_Be	Be	0.56597	0.0115	0.0243	0.768
Mof_Be	Be	0.62618	0.95636	0.5788	0.782
Mof_O 	O 	0.63302	0.98984	0.17745	-0.359
Mof_O 	O 	0.60774	0.99713	0.9936	-0.351
Mof_O 	O 	0.68099	0.98709	0.02263	-0.359
Mof_O 	O 	0.5845	0.96099	0.5161	-0.36
Mof_O 	O 	0.5269	0.97843	0.4225	-0.368
Mof_O 	O 	0.53858	0.99232	0.6189	-0.362
Mof_O 	O 	0.47795	0.95122	0.249	-0.354
Mof_O 	O 	0.52089	0.96294	0.0747	-0.381
Mof_O 	O 	0.44759	0.975	0.0902	-0.361
Mof_O 	O 	0.58763	0.0591	0.1011	-0.377
Mof_O 	O 	0.54136	0.04648	0.2723	-0.366
Mof_O 	O 	0.62721	0.06138	0.2763	-0.368
Mof_P 	P 	0.29793	0.30901	0.39639	0.498
Mof_H 	H 	0.26527	0.25363	0.39113	0.017
Mof_P 	P 	0.22842	0.32694	0.84771	0.513
Mof_H 	H 	0.26727	0.37673	0.82953	-0.002
Mof_P 	P 	0.13977	0.28177	0.46372	0.51
Mof_H 	H 	0.10927	0.23323	0.44053	-0.004
Mof_P 	P 	0.25739	0.40348	0.55103	0.52
Mof_H 	H 	0.27417	0.45043	0.55743	-0.012
Mof_Be	Be	0.16947	0.32963	0.66673	0.774
Mof_Be	Be	0.23264	0.34483	0.35763	0.769
Mof_Be	Be	0.29285	0.28969	0.91213	0.782
Mof_O 	O 	0.29969	0.32317	0.51078	-0.359
Mof_O 	O 	0.27441	0.33046	0.32693	-0.351
Mof_O 	O 	0.34766	0.32042	0.35596	-0.359
Mof_O 	O 	0.25117	0.29432	0.84943	-0.36
Mof_O 	O 	0.19357	0.31176	0.75583	-0.368
Mof_O 	O 	0.20525	0.32565	0.95223	-0.361
Mof_O 	O 	0.14462	0.28455	0.58233	-0.354
Mof_O 	O 	0.18756	0.29627	0.40803	-0.382
Mof_O 	O 	0.11426	0.30833	0.42353	-0.361
Mof_O 	O 	0.2543	0.39243	0.43443	-0.377
Mof_O 	O 	0.20803	0.37981	0.60563	-0.365
Mof_O 	O 	0.29388	0.39471	0.60963	-0.368
Mof_P 	P 	0.96459	0.64235	0.72973	0.499
Mof_H 	H 	0.93193	0.58697	0.72447	0.017
Mof_P 	P 	0.89508	0.66028	0.18105	0.513
Mof_H 	H 	0.93393	0.71007	0.16287	-0.002
Mof_P 	P 	0.80643	0.61511	0.79706	0.51
Mof_H 	H 	0.77593	0.56657	0.77387	-0.004
Mof_P 	P 	0.92405	0.73682	0.88437	0.52
Mof_H 	H 	0.94083	0.78377	0.89077	-0.012
Mof_Be	Be	0.83613	0.66297	7e-05	0.773
Mof_Be	Be	0.8993	0.67817	0.69097	0.769
Mof_Be	Be	0.95951	0.62303	0.24547	0.781
Mof_O 	O 	0.96635	0.65651	0.84412	-0.359
Mof_O 	O 	0.94107	0.6638	0.66027	-0.351
Mof_O 	O 	0.01432	0.65376	0.6893	-0.359
Mof_O 	O 	0.91783	0.62766	0.18277	-0.36
Mof_O 	O 	0.86023	0.6451	0.08917	-0.368
Mof_O 	O 	0.87191	0.65899	0.28557	-0.361
Mof_O 	O 	0.81128	0.61789	0.91567	-0.353
Mof_O 	O 	0.85422	0.62961	0.74137	-0.382
Mof_O 	O 	0.78092	0.64167	0.75687	-0.361
Mof_O 	O 	0.92096	0.72577	0.76777	-0.377
Mof_O 	O 	0.87469	0.71315	0.93897	-0.365
Mof_O 	O 	0.96054	0.72805	0.94297	-0.368
Mof_P 	P 	0.97568	0.34442	0.93694	0.499
Mof_H 	H 	0.9203	0.3217	0.9422	0.017
Mof_P 	P 	0.99361	0.43186	0.48562	0.514
Mof_H 	H 	0.0434	0.4428	0.5038	-0.002
Mof_P 	P 	0.94844	0.47534	0.86961	0.51
Mof_H 	H 	0.8999	0.4573	0.8928	-0.003
Mof_P 	P 	0.07015	0.47943	0.7823	0.52
Mof_H 	H 	0.1171	0.5096	0.7759	-0.012
Mof_Be	Be	0.9963	0.4935	0.6666	0.774
Mof_Be	Be	0.0115	0.44553	0.9757	0.768
Mof_Be	Be	0.95636	0.33018	0.4212	0.782
Mof_O 	O 	0.98984	0.35682	0.82255	-0.358
Mof_O 	O 	0.99713	0.38939	0.0064	-0.351
Mof_O 	O 	0.98709	0.3061	0.97737	-0.359
Mof_O 	O 	0.96099	0.37649	0.4839	-0.36
Mof_O 	O 	0.97843	0.45153	0.5775	-0.368
Mof_O 	O 	0.99232	0.45374	0.3811	-0.362
Mof_O 	O 	0.95122	0.47327	0.751	-0.354
Mof_O 	O 	0.96294	0.44205	0.9253	-0.381
Mof_O 	O 	0.975	0.52741	0.9098	-0.361
Mof_O 	O 	0.0591	0.47147	0.8989	-0.377
Mof_O 	O 	0.04648	0.50512	0.7277	-0.366
Mof_O 	O 	0.06138	0.43417	0.7237	-0.368
Mof_P 	P 	0.64235	0.67775	0.27027	0.498
Mof_H 	H 	0.58697	0.65503	0.27553	0.017
Mof_P 	P 	0.66028	0.76519	0.81895	0.513
Mof_H 	H 	0.71007	0.77613	0.83713	-0.002
Mof_P 	P 	0.61511	0.80867	0.20294	0.51
Mof_H 	H 	0.56657	0.79063	0.22613	-0.004
Mof_P 	P 	0.73682	0.81276	0.11563	0.52
Mof_H 	H 	0.78377	0.84293	0.10923	-0.012
Mof_Be	Be	0.66297	0.82683	0.99993	0.774
Mof_Be	Be	0.67817	0.77886	0.30903	0.769
Mof_Be	Be	0.62303	0.66351	0.75453	0.782
Mof_O 	O 	0.65651	0.69015	0.15588	-0.359
Mof_O 	O 	0.6638	0.72272	0.33973	-0.351
Mof_O 	O 	0.65376	0.63943	0.3107	-0.359
Mof_O 	O 	0.62766	0.70982	0.81723	-0.36
Mof_O 	O 	0.6451	0.78486	0.91083	-0.368
Mof_O 	O 	0.65899	0.78707	0.71443	-0.361
Mof_O 	O 	0.61789	0.8066	0.08433	-0.353
Mof_O 	O 	0.62961	0.77538	0.25863	-0.382
Mof_O 	O 	0.64167	0.86074	0.24313	-0.361
Mof_O 	O 	0.72577	0.8048	0.23223	-0.377
Mof_O 	O 	0.71315	0.83845	0.06103	-0.365
Mof_O 	O 	0.72805	0.7675	0.05703	-0.368
Mof_P 	P 	0.30901	0.01109	0.60361	0.499
Mof_H 	H 	0.25363	0.98837	0.60887	0.017
Mof_P 	P 	0.32694	0.09853	0.15229	0.513
Mof_H 	H 	0.37673	0.10947	0.17047	-0.002
Mof_P 	P 	0.28177	0.14201	0.53628	0.51
Mof_H 	H 	0.23323	0.12397	0.55947	-0.004
Mof_P 	P 	0.40348	0.1461	0.44897	0.52
Mof_H 	H 	0.45043	0.17627	0.44257	-0.012
Mof_Be	Be	0.32963	0.16017	0.33327	0.774
Mof_Be	Be	0.34483	0.1122	0.64237	0.769
Mof_Be	Be	0.28969	0.99685	0.08787	0.782
Mof_O 	O 	0.32317	0.02349	0.48922	-0.359
Mof_O 	O 	0.33046	0.05606	0.67307	-0.351
Mof_O 	O 	0.32042	0.97277	0.64404	-0.359
Mof_O 	O 	0.29432	0.04316	0.15057	-0.361
Mof_O 	O 	0.31176	0.1182	0.24417	-0.368
Mof_O 	O 	0.32565	0.12041	0.04777	-0.362
Mof_O 	O 	0.28455	0.13994	0.41767	-0.354
Mof_O 	O 	0.29627	0.10872	0.59197	-0.382
Mof_O 	O 	0.30833	0.19408	0.57647	-0.361
Mof_O 	O 	0.39243	0.13814	0.56557	-0.377
Mof_O 	O 	0.37981	0.17179	0.39437	-0.365
Mof_O 	O 	0.39471	0.10084	0.39037	-0.368
Mof_P 	P 	0.65558	0.63126	0.93694	0.498
Mof_H 	H 	0.6783	0.5986	0.9422	0.017
Mof_P 	P 	0.56814	0.56175	0.48562	0.513
Mof_H 	H 	0.5572	0.6006	0.5038	-0.002
Mof_P 	P 	0.52466	0.4731	0.86961	0.51
Mof_H 	H 	0.5427	0.4426	0.8928	-0.003
Mof_P 	P 	0.52057	0.59072	0.7823	0.52
Mof_H 	H 	0.4904	0.6075	0.7759	-0.012
Mof_Be	Be	0.5065	0.5028	0.6666	0.774
Mof_Be	Be	0.55447	0.56597	0.9757	0.769
Mof_Be	Be	0.66982	0.62618	0.4212	0.782
Mof_O 	O 	0.64318	0.63302	0.82255	-0.359
Mof_O 	O 	0.61061	0.60774	0.0064	-0.351
Mof_O 	O 	0.6939	0.68099	0.97737	-0.359
Mof_O 	O 	0.62351	0.5845	0.4839	-0.36
Mof_O 	O 	0.54847	0.5269	0.5775	-0.368
Mof_O 	O 	0.54626	0.53858	0.3811	-0.361
Mof_O 	O 	0.52673	0.47795	0.751	-0.354
Mof_O 	O 	0.55795	0.52089	0.9253	-0.382
Mof_O 	O 	0.47259	0.44759	0.9098	-0.361
Mof_O 	O 	0.52853	0.58763	0.8989	-0.377
Mof_O 	O 	0.49488	0.54136	0.7277	-0.365
Mof_O 	O 	0.56583	0.62721	0.7237	-0.368
Mof_P 	P 	0.32225	0.96459	0.27027	0.499
Mof_H 	H 	0.34497	0.93193	0.27553	0.017
Mof_P 	P 	0.23481	0.89508	0.81895	0.513
Mof_H 	H 	0.22387	0.93393	0.83713	-0.002
Mof_P 	P 	0.19133	0.80643	0.20294	0.51
Mof_H 	H 	0.20937	0.77593	0.22613	-0.003
Mof_P 	P 	0.18724	0.92405	0.11563	0.52
Mof_H 	H 	0.15707	0.94083	0.10923	-0.012
Mof_Be	Be	0.17317	0.83613	0.99993	0.773
Mof_Be	Be	0.22114	0.8993	0.30903	0.769
Mof_Be	Be	0.33649	0.95951	0.75453	0.781
Mof_O 	O 	0.30985	0.96635	0.15588	-0.359
Mof_O 	O 	0.27728	0.94107	0.33973	-0.351
Mof_O 	O 	0.36057	0.01432	0.3107	-0.359
Mof_O 	O 	0.29018	0.91783	0.81723	-0.36
Mof_O 	O 	0.21514	0.86023	0.91083	-0.368
Mof_O 	O 	0.21293	0.87191	0.71443	-0.361
Mof_O 	O 	0.1934	0.81128	0.08433	-0.353
Mof_O 	O 	0.22462	0.85422	0.25863	-0.382
Mof_O 	O 	0.13926	0.78092	0.24313	-0.361
Mof_O 	O 	0.1952	0.92096	0.23223	-0.377
Mof_O 	O 	0.16155	0.87469	0.06103	-0.365
Mof_O 	O 	0.2325	0.96054	0.05703	-0.368
Mof_P 	P 	0.98891	0.29793	0.60361	0.499
Mof_H 	H 	0.01163	0.26527	0.60887	0.017
Mof_P 	P 	0.90147	0.22842	0.15229	0.513
Mof_H 	H 	0.89053	0.26727	0.17047	-0.002
Mof_P 	P 	0.85799	0.13977	0.53628	0.51
Mof_H 	H 	0.87603	0.10927	0.55947	-0.003
Mof_P 	P 	0.8539	0.25739	0.44897	0.52
Mof_H 	H 	0.82373	0.27417	0.44257	-0.012
Mof_Be	Be	0.83983	0.16947	0.33327	0.774
Mof_Be	Be	0.8878	0.23264	0.64237	0.769
Mof_Be	Be	0.00315	0.29285	0.08787	0.782
Mof_O 	O 	0.97651	0.29969	0.48922	-0.359
Mof_O 	O 	0.94394	0.27441	0.67307	-0.351
Mof_O 	O 	0.02723	0.34766	0.64404	-0.359
Mof_O 	O 	0.95684	0.25117	0.15057	-0.361
Mof_O 	O 	0.8818	0.19357	0.24417	-0.368
Mof_O 	O 	0.87959	0.20525	0.04777	-0.362
Mof_O 	O 	0.86006	0.14462	0.41767	-0.354
Mof_O 	O 	0.89128	0.18756	0.59197	-0.382
Mof_O 	O 	0.80592	0.11426	0.57647	-0.361
Mof_O 	O 	0.86186	0.2543	0.56557	-0.377
Mof_O 	O 	0.82821	0.20803	0.39437	-0.365
Mof_O 	O 	0.89916	0.29388	0.39037	-0.368
Mof_P 	P 	0.36874	0.02432	0.93694	0.499
Mof_H 	H 	0.4014	0.0797	0.9422	0.017
Mof_P 	P 	0.43825	0.00639	0.48562	0.514
Mof_H 	H 	0.3994	0.9566	0.5038	-0.002
Mof_P 	P 	0.5269	0.05156	0.86961	0.51
Mof_H 	H 	0.5574	0.1001	0.8928	-0.003
Mof_P 	P 	0.40928	0.92985	0.7823	0.52
Mof_H 	H 	0.3925	0.8829	0.7759	-0.012
Mof_Be	Be	0.4972	0.0037	0.6666	0.774
Mof_Be	Be	0.43403	0.9885	0.9757	0.768
Mof_Be	Be	0.37382	0.04364	0.4212	0.782
Mof_O 	O 	0.36698	0.01016	0.82255	-0.359
Mof_O 	O 	0.39226	0.00287	0.0064	-0.351
Mof_O 	O 	0.31901	0.01291	0.97737	-0.359
Mof_O 	O 	0.4155	0.03901	0.4839	-0.36
Mof_O 	O 	0.4731	0.02157	0.5775	-0.368
Mof_O 	O 	0.46142	0.00768	0.3811	-0.362
Mof_O 	O 	0.52205	0.04878	0.751	-0.354
Mof_O 	O 	0.47911	0.03706	0.9253	-0.381
Mof_O 	O 	0.55241	0.025	0.9098	-0.361
Mof_O 	O 	0.41237	0.9409	0.8989	-0.377
Mof_O 	O 	0.45864	0.95352	0.7277	-0.366
Mof_O 	O 	0.37279	0.93862	0.7237	-0.368
Mof_P 	P 	0.03541	0.35765	0.27027	0.499
Mof_H 	H 	0.06807	0.41303	0.27553	0.017
Mof_P 	P 	0.10492	0.33972	0.81895	0.513
Mof_H 	H 	0.06607	0.28993	0.83713	-0.002
Mof_P 	P 	0.19357	0.38489	0.20294	0.51
Mof_H 	H 	0.22407	0.43343	0.22613	-0.004
Mof_P 	P 	0.07595	0.26318	0.11563	0.52
Mof_H 	H 	0.05917	0.21623	0.10923	-0.012
Mof_Be	Be	0.16387	0.33703	0.99993	0.773
Mof_Be	Be	0.1007	0.32183	0.30903	0.769
Mof_Be	Be	0.04049	0.37697	0.75453	0.781
Mof_O 	O 	0.03365	0.34349	0.15588	-0.359
Mof_O 	O 	0.05893	0.3362	0.33973	-0.351
Mof_O 	O 	0.98568	0.34624	0.3107	-0.359
Mof_O 	O 	0.08217	0.37234	0.81723	-0.36
Mof_O 	O 	0.13977	0.3549	0.91083	-0.368
Mof_O 	O 	0.12809	0.34101	0.71443	-0.361
Mof_O 	O 	0.18872	0.38211	0.08433	-0.353
Mof_O 	O 	0.14578	0.37039	0.25863	-0.382
Mof_O 	O 	0.21908	0.35833	0.24313	-0.361
Mof_O 	O 	0.07904	0.27423	0.23223	-0.377
Mof_O 	O 	0.12531	0.28685	0.06103	-0.365
Mof_O 	O 	0.03946	0.27195	0.05703	-0.368
Mof_P 	P 	0.70207	0.69099	0.60361	0.498
Mof_H 	H 	0.73473	0.74637	0.60887	0.017
Mof_P 	P 	0.77158	0.67306	0.15229	0.513
Mof_H 	H 	0.73273	0.62327	0.17047	-0.002
Mof_P 	P 	0.86023	0.71823	0.53628	0.51
Mof_H 	H 	0.89073	0.76677	0.55947	-0.004
Mof_P 	P 	0.74261	0.59652	0.44897	0.52
Mof_H 	H 	0.72583	0.54957	0.44257	-0.012
Mof_Be	Be	0.83053	0.67037	0.33327	0.774
Mof_Be	Be	0.76736	0.65517	0.64237	0.769
Mof_Be	Be	0.70715	0.71031	0.08787	0.782
Mof_O 	O 	0.70031	0.67683	0.48922	-0.359
Mof_O 	O 	0.72559	0.66954	0.67307	-0.351
Mof_O 	O 	0.65234	0.67958	0.64404	-0.359
Mof_O 	O 	0.74883	0.70568	0.15057	-0.36
Mof_O 	O 	0.80643	0.68824	0.24417	-0.368
Mof_O 	O 	0.79475	0.67435	0.04777	-0.361
Mof_O 	O 	0.85538	0.71545	0.41767	-0.354
Mof_O 	O 	0.81244	0.70373	0.59197	-0.382
Mof_O 	O 	0.88574	0.69167	0.57647	-0.361
Mof_O 	O 	0.7457	0.60757	0.56557	-0.377
Mof_O 	O 	0.79197	0.62019	0.39437	-0.365
Mof_O 	O 	0.70612	0.60529	0.39037	-0.368
_end
