data_functionalizedCrystal
_audit_creation_method	'EQeq! by Chris Wilmer'
_symmetry_space_group_name_H-M	'P1'
_symmetry_Int_Tables_number	1
_symmetry_cell_setting	triclinic
loop_
_symmetry_equiv_pos_as_xyz
  x,y,z
_cell_length_a	15.1743
_cell_length_b	24.8859
_cell_length_c	24.8859
_cell_angle_alpha	90
_cell_angle_beta	90
_cell_angle_gamma	90
loop_
_atom_site_label
_atom_site_type_symbol
_atom_site_fract_x
_atom_site_fract_y
_atom_site_fract_z
_atom_site_charge
Mof_Zn	Zn	0.03023	0.87922	0.02242	1.231
Mof_Zn	Zn	0.24683	0.85097	0.00071	1.231
Mof_Zn	Zn	0.96702	0.48235	0.37265	1.23
Mof_Zn	Zn	0.03023	0.12078	0.97758	1.231
Mof_Zn	Zn	0.24683	0.14903	0.99929	1.231
Mof_Zn	Zn	0.96702	0.51765	0.62735	1.23
Mof_Zn	Zn	0.96977	0.02242	0.12078	1.231
Mof_Zn	Zn	0.75317	0.00071	0.14903	1.231
Mof_Zn	Zn	0.03298	0.37265	0.51765	1.23
Mof_Zn	Zn	0.96977	0.97758	0.87922	1.231
Mof_Zn	Zn	0.75317	0.99929	0.85097	1.231
Mof_Zn	Zn	0.03298	0.62735	0.48235	1.23
Mof_Zn	Zn	0.46977	0.62078	0.52242	1.231
Mof_Zn	Zn	0.25317	0.64903	0.50071	1.231
Mof_Zn	Zn	0.53298	0.01765	0.87265	1.23
Mof_Zn	Zn	0.46977	0.37922	0.47758	1.231
Mof_Zn	Zn	0.25317	0.35097	0.49929	1.231
Mof_Zn	Zn	0.53298	0.98235	0.12735	1.23
Mof_Zn	Zn	0.53023	0.47758	0.62078	1.231
Mof_Zn	Zn	0.74683	0.49929	0.64903	1.231
Mof_Zn	Zn	0.46702	0.12735	0.01765	1.23
Mof_Zn	Zn	0.53023	0.52242	0.37922	1.231
Mof_Zn	Zn	0.74683	0.50071	0.35097	1.231
Mof_Zn	Zn	0.46702	0.87265	0.98235	1.23
Mof_H 	H 	0.2106	0.7316	0.8843	0.023
Mof_H 	H 	0.1783	0.6726	0.8148	0.06
Mof_H 	H 	0.9209	0.7142	0.8263	0.06
Mof_H 	H 	0.9556	0.7726	0.8955	0.022
Mof_H 	H 	0.901	0.6284	0.7938	0.073
Mof_H 	H 	0.8761	0.5651	0.7257	-0.02
Mof_H 	H 	0.1075	0.5925	0.6632	-0.015
Mof_H 	H 	0.1417	0.6553	0.7293	0.072
Mof_H 	H 	0.0231	0.62	0.287	0.017
Mof_H 	H 	0.0626	0.6911	0.231	0.062
Mof_H 	H 	0.8116	0.7003	0.179	0.063
Mof_H 	H 	0.7734	0.6284	0.2346	0.022
Mof_H 	H 	0.0897	0.7201	0.1443	0.075
Mof_H 	H 	0.1211	0.7848	0.081	-0.017
Mof_H 	H 	0.8917	0.8533	0.103	-0.011
Mof_H 	H 	0.8551	0.7903	0.1683	0.07
Mof_H 	H 	0.2134	0.9661	0.0407	-0.039
Mof_H 	H 	0.289	0.9053	0.0944	0.178
Mof_H 	H 	0.2502	0.9532	0.1302	0.222
Mof_H 	H 	0.2025	0.8958	0.1299	0.2
Mof_H 	H 	0.2791	0.9483	0.9316	-0.022
Mof_H 	H 	0.2516	0.8679	0.8784	0.178
Mof_H 	H 	0.3521	0.8695	0.8591	0.183
Mof_H 	H 	0.2862	0.9169	0.8425	0.193
Mof_H 	H 	0.2106	0.2684	0.1157	0.024
Mof_H 	H 	0.1783	0.3274	0.1852	0.061
Mof_H 	H 	0.9209	0.2858	0.1737	0.061
Mof_H 	H 	0.9556	0.2274	0.1045	0.023
Mof_H 	H 	0.901	0.3716	0.2062	0.073
Mof_H 	H 	0.8761	0.4349	0.2743	-0.02
Mof_H 	H 	0.1075	0.4075	0.3368	-0.015
Mof_H 	H 	0.1417	0.3447	0.2707	0.072
Mof_H 	H 	0.0231	0.38	0.713	0.017
Mof_H 	H 	0.0626	0.3089	0.769	0.062
Mof_H 	H 	0.8116	0.2997	0.821	0.063
Mof_H 	H 	0.7734	0.3716	0.7654	0.022
Mof_H 	H 	0.0897	0.2799	0.8557	0.075
Mof_H 	H 	0.1211	0.2152	0.919	-0.017
Mof_H 	H 	0.8917	0.1467	0.897	-0.011
Mof_H 	H 	0.8551	0.2097	0.8317	0.07
Mof_H 	H 	0.2134	0.0339	0.9593	-0.039
Mof_H 	H 	0.289	0.0947	0.9056	0.178
Mof_H 	H 	0.2502	0.0468	0.8698	0.222
Mof_H 	H 	0.2025	0.1042	0.8701	0.2
Mof_H 	H 	0.2791	0.0517	0.0684	-0.022
Mof_H 	H 	0.2516	0.1321	0.1216	0.178
Mof_H 	H 	0.3521	0.1305	0.1409	0.183
Mof_H 	H 	0.2862	0.0831	0.1575	0.193
Mof_H 	H 	0.7894	0.8843	0.2684	0.024
Mof_H 	H 	0.8217	0.8148	0.3274	0.061
Mof_H 	H 	0.0791	0.8263	0.2858	0.061
Mof_H 	H 	0.0444	0.8955	0.2274	0.023
Mof_H 	H 	0.099	0.7938	0.3716	0.073
Mof_H 	H 	0.1239	0.7257	0.4349	-0.02
Mof_H 	H 	0.8925	0.6632	0.4075	-0.015
Mof_H 	H 	0.8583	0.7293	0.3447	0.072
Mof_H 	H 	0.9769	0.287	0.38	0.017
Mof_H 	H 	0.9374	0.231	0.3089	0.062
Mof_H 	H 	0.1884	0.179	0.2997	0.063
Mof_H 	H 	0.2266	0.2346	0.3716	0.022
Mof_H 	H 	0.9103	0.1443	0.2799	0.075
Mof_H 	H 	0.8789	0.081	0.2152	-0.017
Mof_H 	H 	0.1083	0.103	0.1467	-0.011
Mof_H 	H 	0.1449	0.1683	0.2097	0.07
Mof_H 	H 	0.7866	0.0407	0.0339	-0.039
Mof_H 	H 	0.711	0.0944	0.0947	0.178
Mof_H 	H 	0.7498	0.1302	0.0468	0.222
Mof_H 	H 	0.7975	0.1299	0.1042	0.2
Mof_H 	H 	0.7209	0.9316	0.0517	-0.022
Mof_H 	H 	0.7484	0.8784	0.1321	0.178
Mof_H 	H 	0.6479	0.8591	0.1305	0.183
Mof_H 	H 	0.7138	0.8425	0.0831	0.193
Mof_H 	H 	0.7894	0.1157	0.7316	0.024
Mof_H 	H 	0.8217	0.1852	0.6726	0.061
Mof_H 	H 	0.0791	0.1737	0.7142	0.061
Mof_H 	H 	0.0444	0.1045	0.7726	0.023
Mof_H 	H 	0.099	0.2062	0.6284	0.073
Mof_H 	H 	0.1239	0.2743	0.5651	-0.02
Mof_H 	H 	0.8925	0.3368	0.5925	-0.015
Mof_H 	H 	0.8583	0.2707	0.6553	0.072
Mof_H 	H 	0.9769	0.713	0.62	0.017
Mof_H 	H 	0.9374	0.769	0.6911	0.062
Mof_H 	H 	0.1884	0.821	0.7003	0.063
Mof_H 	H 	0.2266	0.7654	0.6284	0.022
Mof_H 	H 	0.9103	0.8557	0.7201	0.075
Mof_H 	H 	0.8789	0.919	0.7848	-0.017
Mof_H 	H 	0.1083	0.897	0.8533	-0.011
Mof_H 	H 	0.1449	0.8317	0.7903	0.07
Mof_H 	H 	0.7866	0.9593	0.9661	-0.039
Mof_H 	H 	0.711	0.9056	0.9053	0.178
Mof_H 	H 	0.7498	0.8698	0.9532	0.222
Mof_H 	H 	0.7975	0.8701	0.8958	0.2
Mof_H 	H 	0.7209	0.0684	0.9483	-0.022
Mof_H 	H 	0.7484	0.1216	0.8679	0.178
Mof_H 	H 	0.6479	0.1409	0.8695	0.183
Mof_H 	H 	0.7138	0.1575	0.9169	0.193
Mof_H 	H 	0.2894	0.7684	0.3843	0.024
Mof_H 	H 	0.3217	0.8274	0.3148	0.061
Mof_H 	H 	0.5791	0.7858	0.3263	0.061
Mof_H 	H 	0.5444	0.7274	0.3955	0.023
Mof_H 	H 	0.599	0.8716	0.2938	0.073
Mof_H 	H 	0.6239	0.9349	0.2257	-0.02
Mof_H 	H 	0.3925	0.9075	0.1632	-0.015
Mof_H 	H 	0.3583	0.8447	0.2293	0.072
Mof_H 	H 	0.4769	0.88	0.787	0.017
Mof_H 	H 	0.4374	0.8089	0.731	0.062
Mof_H 	H 	0.6884	0.7997	0.679	0.063
Mof_H 	H 	0.7266	0.8716	0.7346	0.022
Mof_H 	H 	0.4103	0.7799	0.6443	0.075
Mof_H 	H 	0.3789	0.7152	0.581	-0.017
Mof_H 	H 	0.6083	0.6467	0.603	-0.011
Mof_H 	H 	0.6449	0.7097	0.6683	0.07
Mof_H 	H 	0.2866	0.5339	0.5407	-0.04
Mof_H 	H 	0.211	0.5947	0.5944	0.178
Mof_H 	H 	0.2498	0.5468	0.6302	0.222
Mof_H 	H 	0.2975	0.6042	0.6299	0.2
Mof_H 	H 	0.2209	0.5517	0.4316	-0.023
Mof_H 	H 	0.2484	0.6321	0.3784	0.178
Mof_H 	H 	0.1479	0.6305	0.3591	0.183
Mof_H 	H 	0.2138	0.5831	0.3425	0.193
Mof_H 	H 	0.2894	0.2316	0.6157	0.024
Mof_H 	H 	0.3217	0.1726	0.6852	0.061
Mof_H 	H 	0.5791	0.2142	0.6737	0.061
Mof_H 	H 	0.5444	0.2726	0.6045	0.023
Mof_H 	H 	0.599	0.1284	0.7062	0.073
Mof_H 	H 	0.6239	0.0651	0.7743	-0.02
Mof_H 	H 	0.3925	0.0925	0.8368	-0.015
Mof_H 	H 	0.3583	0.1553	0.7707	0.072
Mof_H 	H 	0.4769	0.12	0.213	0.017
Mof_H 	H 	0.4374	0.1911	0.269	0.062
Mof_H 	H 	0.6884	0.2003	0.321	0.063
Mof_H 	H 	0.7266	0.1284	0.2654	0.022
Mof_H 	H 	0.4103	0.2201	0.3557	0.075
Mof_H 	H 	0.3789	0.2848	0.419	-0.017
Mof_H 	H 	0.6083	0.3533	0.397	-0.011
Mof_H 	H 	0.6449	0.2903	0.3317	0.07
Mof_H 	H 	0.2866	0.4661	0.4593	-0.04
Mof_H 	H 	0.211	0.4053	0.4056	0.178
Mof_H 	H 	0.2498	0.4532	0.3698	0.222
Mof_H 	H 	0.2975	0.3958	0.3701	0.2
Mof_H 	H 	0.2209	0.4483	0.5684	-0.023
Mof_H 	H 	0.2484	0.3679	0.6216	0.178
Mof_H 	H 	0.1479	0.3695	0.6409	0.183
Mof_H 	H 	0.2138	0.4169	0.6575	0.193
Mof_H 	H 	0.7106	0.6157	0.7684	0.024
Mof_H 	H 	0.6783	0.6852	0.8274	0.061
Mof_H 	H 	0.4209	0.6737	0.7858	0.061
Mof_H 	H 	0.4556	0.6045	0.7274	0.023
Mof_H 	H 	0.401	0.7062	0.8716	0.073
Mof_H 	H 	0.3761	0.7743	0.9349	-0.02
Mof_H 	H 	0.6075	0.8368	0.9075	-0.015
Mof_H 	H 	0.6417	0.7707	0.8447	0.072
Mof_H 	H 	0.5231	0.213	0.88	0.017
Mof_H 	H 	0.5626	0.269	0.8089	0.062
Mof_H 	H 	0.3116	0.321	0.7997	0.063
Mof_H 	H 	0.2734	0.2654	0.8716	0.022
Mof_H 	H 	0.5897	0.3557	0.7799	0.075
Mof_H 	H 	0.6211	0.419	0.7152	-0.017
Mof_H 	H 	0.3917	0.397	0.6467	-0.011
Mof_H 	H 	0.3551	0.3317	0.7097	0.07
Mof_H 	H 	0.7134	0.4593	0.5339	-0.04
Mof_H 	H 	0.789	0.4056	0.5947	0.178
Mof_H 	H 	0.7502	0.3698	0.5468	0.222
Mof_H 	H 	0.7025	0.3701	0.6042	0.2
Mof_H 	H 	0.7791	0.5684	0.5517	-0.023
Mof_H 	H 	0.7516	0.6216	0.6321	0.178
Mof_H 	H 	0.8521	0.6409	0.6305	0.183
Mof_H 	H 	0.7862	0.6575	0.5831	0.193
Mof_H 	H 	0.7106	0.3843	0.2316	0.024
Mof_H 	H 	0.6783	0.3148	0.1726	0.061
Mof_H 	H 	0.4209	0.3263	0.2142	0.061
Mof_H 	H 	0.4556	0.3955	0.2726	0.023
Mof_H 	H 	0.401	0.2938	0.1284	0.073
Mof_H 	H 	0.3761	0.2257	0.0651	-0.02
Mof_H 	H 	0.6075	0.1632	0.0925	-0.015
Mof_H 	H 	0.6417	0.2293	0.1553	0.072
Mof_H 	H 	0.5231	0.787	0.12	0.017
Mof_H 	H 	0.5626	0.731	0.1911	0.062
Mof_H 	H 	0.3116	0.679	0.2003	0.063
Mof_H 	H 	0.2734	0.7346	0.1284	0.022
Mof_H 	H 	0.5897	0.6443	0.2201	0.075
Mof_H 	H 	0.6211	0.581	0.2848	-0.017
Mof_H 	H 	0.3917	0.603	0.3533	-0.011
Mof_H 	H 	0.3551	0.6683	0.2903	0.07
Mof_H 	H 	0.7134	0.5407	0.4661	-0.04
Mof_H 	H 	0.789	0.5944	0.4053	0.178
Mof_H 	H 	0.7502	0.6302	0.4532	0.222
Mof_H 	H 	0.7025	0.6299	0.3958	0.2
Mof_H 	H 	0.7791	0.4316	0.4483	-0.023
Mof_H 	H 	0.7516	0.3784	0.3679	0.178
Mof_H 	H 	0.8521	0.3591	0.3695	0.183
Mof_H 	H 	0.7862	0.3425	0.4169	0.193
Mof_C 	C 	0.0865	0.7578	0.8972	-0.131
Mof_C 	C 	0.1513	0.7279	0.8726	0.044
Mof_C 	C 	0.1323	0.6927	0.8312	-0.104
Mof_C 	C 	0.0461	0.6866	0.8136	0.034
Mof_C 	C 	0.9802	0.7173	0.838	-0.105
Mof_C 	C 	0.0011	0.752	0.8791	0.049
Mof_C 	C 	0.0259	0.6476	0.7702	0.061
Mof_C 	C 	0.9455	0.6211	0.768	-0.133
Mof_C 	C 	0.9308	0.5835	0.7267	0.079
Mof_C 	C 	0.0655	0.5995	0.6907	0.078
Mof_C 	C 	0.0866	0.6371	0.73	-0.132
Mof_C 	C 	0.1089	0.7957	0.9421	0.397
Mof_C 	C 	0.8962	0.6161	0.2649	-0.144
Mof_C 	C 	0.9799	0.6358	0.2644	0.057
Mof_C 	C 	0.0033	0.6787	0.2315	-0.111
Mof_C 	C 	0.9417	0.7031	0.2	0.039
Mof_C 	C 	0.8551	0.6839	0.2009	-0.109
Mof_C 	C 	0.8326	0.6409	0.2336	0.05
Mof_C 	C 	0.9678	0.7464	0.1619	0.064
Mof_C 	C 	0.047	0.7468	0.1362	-0.136
Mof_C 	C 	0.0655	0.7858	0.0985	0.081
Mof_C 	C 	0.9327	0.8256	0.1113	0.078
Mof_C 	C 	0.9099	0.7878	0.15	-0.132
Mof_C 	C 	0.8733	0.5687	0.2991	0.413
Mof_C 	C 	0.1794	0.9394	0.0624	0.22
Mof_C 	C 	0.0964	0.9668	0.0836	0.219
Mof_C 	C 	0.235	0.922	0.1081	-0.614
Mof_C 	C 	0.4119	0.9533	0.9107	0.24
Mof_C 	C 	0.3271	0.9224	0.9224	0.168
Mof_C 	C 	0.302	0.8913	0.8709	-0.546
Mof_C 	C 	0.0865	0.2422	0.1028	-0.131
Mof_C 	C 	0.1513	0.2721	0.1274	0.044
Mof_C 	C 	0.1323	0.3073	0.1688	-0.104
Mof_C 	C 	0.0461	0.3134	0.1864	0.034
Mof_C 	C 	0.9802	0.2827	0.162	-0.105
Mof_C 	C 	0.0011	0.248	0.1209	0.049
Mof_C 	C 	0.0259	0.3524	0.2298	0.061
Mof_C 	C 	0.9455	0.3789	0.232	-0.133
Mof_C 	C 	0.9308	0.4165	0.2733	0.079
Mof_C 	C 	0.0655	0.4005	0.3093	0.078
Mof_C 	C 	0.0866	0.3629	0.27	-0.132
Mof_C 	C 	0.1089	0.2043	0.0579	0.397
Mof_C 	C 	0.8962	0.3839	0.7351	-0.144
Mof_C 	C 	0.9799	0.3642	0.7356	0.057
Mof_C 	C 	0.0033	0.3213	0.7685	-0.111
Mof_C 	C 	0.9417	0.2969	0.8	0.039
Mof_C 	C 	0.8551	0.3161	0.7991	-0.109
Mof_C 	C 	0.8326	0.3591	0.7664	0.05
Mof_C 	C 	0.9678	0.2536	0.8381	0.064
Mof_C 	C 	0.047	0.2532	0.8638	-0.136
Mof_C 	C 	0.0655	0.2142	0.9015	0.081
Mof_C 	C 	0.9327	0.1744	0.8887	0.078
Mof_C 	C 	0.9099	0.2122	0.85	-0.132
Mof_C 	C 	0.8733	0.4313	0.7009	0.413
Mof_C 	C 	0.1794	0.0606	0.9376	0.22
Mof_C 	C 	0.0964	0.0332	0.9164	0.219
Mof_C 	C 	0.235	0.078	0.8919	-0.614
Mof_C 	C 	0.4119	0.0467	0.0893	0.24
Mof_C 	C 	0.3271	0.0776	0.0776	0.168
Mof_C 	C 	0.302	0.1087	0.1291	-0.546
Mof_C 	C 	0.9135	0.8972	0.2422	-0.131
Mof_C 	C 	0.8487	0.8726	0.2721	0.044
Mof_C 	C 	0.8677	0.8312	0.3073	-0.104
Mof_C 	C 	0.9539	0.8136	0.3134	0.034
Mof_C 	C 	0.0198	0.838	0.2827	-0.105
Mof_C 	C 	0.9989	0.8791	0.248	0.049
Mof_C 	C 	0.9741	0.7702	0.3524	0.061
Mof_C 	C 	0.0545	0.768	0.3789	-0.133
Mof_C 	C 	0.0692	0.7267	0.4165	0.079
Mof_C 	C 	0.9345	0.6907	0.4005	0.078
Mof_C 	C 	0.9134	0.73	0.3629	-0.132
Mof_C 	C 	0.8911	0.9421	0.2043	0.397
Mof_C 	C 	0.1038	0.2649	0.3839	-0.144
Mof_C 	C 	0.0201	0.2644	0.3642	0.057
Mof_C 	C 	0.9967	0.2315	0.3213	-0.111
Mof_C 	C 	0.0583	0.2	0.2969	0.039
Mof_C 	C 	0.1449	0.2009	0.3161	-0.109
Mof_C 	C 	0.1674	0.2336	0.3591	0.05
Mof_C 	C 	0.0322	0.1619	0.2536	0.064
Mof_C 	C 	0.953	0.1362	0.2532	-0.136
Mof_C 	C 	0.9345	0.0985	0.2142	0.081
Mof_C 	C 	0.0673	0.1113	0.1744	0.078
Mof_C 	C 	0.0901	0.15	0.2122	-0.132
Mof_C 	C 	0.1267	0.2991	0.4313	0.413
Mof_C 	C 	0.8206	0.0624	0.0606	0.22
Mof_C 	C 	0.9036	0.0836	0.0332	0.219
Mof_C 	C 	0.765	0.1081	0.078	-0.614
Mof_C 	C 	0.5881	0.9107	0.0467	0.24
Mof_C 	C 	0.6729	0.9224	0.0776	0.168
Mof_C 	C 	0.698	0.8709	0.1087	-0.546
Mof_C 	C 	0.9135	0.1028	0.7578	-0.131
Mof_C 	C 	0.8487	0.1274	0.7279	0.044
Mof_C 	C 	0.8677	0.1688	0.6927	-0.104
Mof_C 	C 	0.9539	0.1864	0.6866	0.034
Mof_C 	C 	0.0198	0.162	0.7173	-0.105
Mof_C 	C 	0.9989	0.1209	0.752	0.049
Mof_C 	C 	0.9741	0.2298	0.6476	0.061
Mof_C 	C 	0.0545	0.232	0.6211	-0.133
Mof_C 	C 	0.0692	0.2733	0.5835	0.079
Mof_C 	C 	0.9345	0.3093	0.5995	0.078
Mof_C 	C 	0.9134	0.27	0.6371	-0.132
Mof_C 	C 	0.8911	0.0579	0.7957	0.397
Mof_C 	C 	0.1038	0.7351	0.6161	-0.144
Mof_C 	C 	0.0201	0.7356	0.6358	0.057
Mof_C 	C 	0.9967	0.7685	0.6787	-0.111
Mof_C 	C 	0.0583	0.8	0.7031	0.039
Mof_C 	C 	0.1449	0.7991	0.6839	-0.109
Mof_C 	C 	0.1674	0.7664	0.6409	0.05
Mof_C 	C 	0.0322	0.8381	0.7464	0.064
Mof_C 	C 	0.953	0.8638	0.7468	-0.136
Mof_C 	C 	0.9345	0.9015	0.7858	0.081
Mof_C 	C 	0.0673	0.8887	0.8256	0.078
Mof_C 	C 	0.0901	0.85	0.7878	-0.132
Mof_C 	C 	0.1267	0.7009	0.5687	0.413
Mof_C 	C 	0.8206	0.9376	0.9394	0.22
Mof_C 	C 	0.9036	0.9164	0.9668	0.219
Mof_C 	C 	0.765	0.8919	0.922	-0.614
Mof_C 	C 	0.5881	0.0893	0.9533	0.24
Mof_C 	C 	0.6729	0.0776	0.9224	0.168
Mof_C 	C 	0.698	0.1291	0.8913	-0.546
Mof_C 	C 	0.4135	0.7422	0.3972	-0.131
Mof_C 	C 	0.3487	0.7721	0.3726	0.044
Mof_C 	C 	0.3677	0.8073	0.3312	-0.104
Mof_C 	C 	0.4539	0.8134	0.3136	0.034
Mof_C 	C 	0.5198	0.7827	0.338	-0.105
Mof_C 	C 	0.4989	0.748	0.3791	0.048
Mof_C 	C 	0.4741	0.8524	0.2702	0.061
Mof_C 	C 	0.5545	0.8789	0.268	-0.133
Mof_C 	C 	0.5692	0.9165	0.2267	0.079
Mof_C 	C 	0.4345	0.9005	0.1907	0.078
Mof_C 	C 	0.4134	0.8629	0.23	-0.132
Mof_C 	C 	0.3911	0.7043	0.4421	0.397
Mof_C 	C 	0.6038	0.8839	0.7649	-0.144
Mof_C 	C 	0.5201	0.8642	0.7644	0.057
Mof_C 	C 	0.4967	0.8213	0.7315	-0.111
Mof_C 	C 	0.5583	0.7969	0.7	0.038
Mof_C 	C 	0.6449	0.8161	0.7009	-0.109
Mof_C 	C 	0.6674	0.8591	0.7336	0.05
Mof_C 	C 	0.5322	0.7536	0.6619	0.064
Mof_C 	C 	0.453	0.7532	0.6362	-0.136
Mof_C 	C 	0.4345	0.7142	0.5985	0.081
Mof_C 	C 	0.5673	0.6744	0.6113	0.078
Mof_C 	C 	0.5901	0.7122	0.65	-0.132
Mof_C 	C 	0.6267	0.9313	0.7991	0.413
Mof_C 	C 	0.3206	0.5606	0.5624	0.22
Mof_C 	C 	0.4036	0.5332	0.5836	0.219
Mof_C 	C 	0.265	0.578	0.6081	-0.614
Mof_C 	C 	0.0881	0.5467	0.4107	0.24
Mof_C 	C 	0.1729	0.5776	0.4224	0.168
Mof_C 	C 	0.198	0.6087	0.3709	-0.546
Mof_C 	C 	0.4135	0.2578	0.6028	-0.131
Mof_C 	C 	0.3487	0.2279	0.6274	0.044
Mof_C 	C 	0.3677	0.1927	0.6688	-0.104
Mof_C 	C 	0.4539	0.1866	0.6864	0.034
Mof_C 	C 	0.5198	0.2173	0.662	-0.105
Mof_C 	C 	0.4989	0.252	0.6209	0.048
Mof_C 	C 	0.4741	0.1476	0.7298	0.061
Mof_C 	C 	0.5545	0.1211	0.732	-0.133
Mof_C 	C 	0.5692	0.0835	0.7733	0.079
Mof_C 	C 	0.4345	0.0995	0.8093	0.078
Mof_C 	C 	0.4134	0.1371	0.77	-0.132
Mof_C 	C 	0.3911	0.2957	0.5579	0.397
Mof_C 	C 	0.6038	0.1161	0.2351	-0.144
Mof_C 	C 	0.5201	0.1358	0.2356	0.057
Mof_C 	C 	0.4967	0.1787	0.2685	-0.111
Mof_C 	C 	0.5583	0.2031	0.3	0.038
Mof_C 	C 	0.6449	0.1839	0.2991	-0.109
Mof_C 	C 	0.6674	0.1409	0.2664	0.05
Mof_C 	C 	0.5322	0.2464	0.3381	0.064
Mof_C 	C 	0.453	0.2468	0.3638	-0.136
Mof_C 	C 	0.4345	0.2858	0.4015	0.081
Mof_C 	C 	0.5673	0.3256	0.3887	0.078
Mof_C 	C 	0.5901	0.2878	0.35	-0.132
Mof_C 	C 	0.6267	0.0687	0.2009	0.413
Mof_C 	C 	0.3206	0.4394	0.4376	0.22
Mof_C 	C 	0.4036	0.4668	0.4164	0.219
Mof_C 	C 	0.265	0.422	0.3919	-0.614
Mof_C 	C 	0.0881	0.4533	0.5893	0.24
Mof_C 	C 	0.1729	0.4224	0.5776	0.168
Mof_C 	C 	0.198	0.3913	0.6291	-0.546
Mof_C 	C 	0.5865	0.6028	0.7422	-0.131
Mof_C 	C 	0.6513	0.6274	0.7721	0.044
Mof_C 	C 	0.6323	0.6688	0.8073	-0.104
Mof_C 	C 	0.5461	0.6864	0.8134	0.034
Mof_C 	C 	0.4802	0.662	0.7827	-0.105
Mof_C 	C 	0.5011	0.6209	0.748	0.048
Mof_C 	C 	0.5259	0.7298	0.8524	0.061
Mof_C 	C 	0.4455	0.732	0.8789	-0.133
Mof_C 	C 	0.4308	0.7733	0.9165	0.079
Mof_C 	C 	0.5655	0.8093	0.9005	0.078
Mof_C 	C 	0.5866	0.77	0.8629	-0.132
Mof_C 	C 	0.6089	0.5579	0.7043	0.397
Mof_C 	C 	0.3962	0.2351	0.8839	-0.144
Mof_C 	C 	0.4799	0.2356	0.8642	0.057
Mof_C 	C 	0.5033	0.2685	0.8213	-0.111
Mof_C 	C 	0.4417	0.3	0.7969	0.038
Mof_C 	C 	0.3551	0.2991	0.8161	-0.109
Mof_C 	C 	0.3326	0.2664	0.8591	0.05
Mof_C 	C 	0.4678	0.3381	0.7536	0.064
Mof_C 	C 	0.547	0.3638	0.7532	-0.136
Mof_C 	C 	0.5655	0.4015	0.7142	0.081
Mof_C 	C 	0.4327	0.3887	0.6744	0.078
Mof_C 	C 	0.4099	0.35	0.7122	-0.132
Mof_C 	C 	0.3733	0.2009	0.9313	0.413
Mof_C 	C 	0.6794	0.4376	0.5606	0.22
Mof_C 	C 	0.5964	0.4164	0.5332	0.219
Mof_C 	C 	0.735	0.3919	0.578	-0.614
Mof_C 	C 	0.9119	0.5893	0.5467	0.24
Mof_C 	C 	0.8271	0.5776	0.5776	0.168
Mof_C 	C 	0.802	0.6291	0.6087	-0.546
Mof_C 	C 	0.5865	0.3972	0.2578	-0.131
Mof_C 	C 	0.6513	0.3726	0.2279	0.044
Mof_C 	C 	0.6323	0.3312	0.1927	-0.104
Mof_C 	C 	0.5461	0.3136	0.1866	0.034
Mof_C 	C 	0.4802	0.338	0.2173	-0.105
Mof_C 	C 	0.5011	0.3791	0.252	0.048
Mof_C 	C 	0.5259	0.2702	0.1476	0.061
Mof_C 	C 	0.4455	0.268	0.1211	-0.133
Mof_C 	C 	0.4308	0.2267	0.0835	0.079
Mof_C 	C 	0.5655	0.1907	0.0995	0.078
Mof_C 	C 	0.5866	0.23	0.1371	-0.132
Mof_C 	C 	0.6089	0.4421	0.2957	0.397
Mof_C 	C 	0.3962	0.7649	0.1161	-0.144
Mof_C 	C 	0.4799	0.7644	0.1358	0.057
Mof_C 	C 	0.5033	0.7315	0.1787	-0.111
Mof_C 	C 	0.4417	0.7	0.2031	0.038
Mof_C 	C 	0.3551	0.7009	0.1839	-0.109
Mof_C 	C 	0.3326	0.7336	0.1409	0.05
Mof_C 	C 	0.4678	0.6619	0.2464	0.064
Mof_C 	C 	0.547	0.6362	0.2468	-0.136
Mof_C 	C 	0.5655	0.5985	0.2858	0.081
Mof_C 	C 	0.4327	0.6113	0.3256	0.078
Mof_C 	C 	0.4099	0.65	0.2878	-0.132
Mof_C 	C 	0.3733	0.7991	0.0687	0.413
Mof_C 	C 	0.6794	0.5624	0.4394	0.22
Mof_C 	C 	0.5964	0.5836	0.4668	0.219
Mof_C 	C 	0.735	0.6081	0.422	-0.614
Mof_C 	C 	0.9119	0.4107	0.4533	0.24
Mof_C 	C 	0.8271	0.4224	0.4224	0.168
Mof_C 	C 	0.802	0.3709	0.3913	-0.546
Mof_N 	N 	0.9898	0.5728	0.6895	-0.251
Mof_N 	N 	0.0093	0.8248	0.0854	-0.249
Mof_N 	N 	0.9898	0.4272	0.3105	-0.251
Mof_N 	N 	0.0093	0.1752	0.9146	-0.249
Mof_N 	N 	0.0102	0.6895	0.4272	-0.251
Mof_N 	N 	0.9907	0.0854	0.1752	-0.249
Mof_N 	N 	0.0102	0.3105	0.5728	-0.251
Mof_N 	N 	0.9907	0.9146	0.8248	-0.249
Mof_N 	N 	0.5102	0.9272	0.1895	-0.251
Mof_N 	N 	0.4907	0.6752	0.5854	-0.249
Mof_N 	N 	0.5102	0.0728	0.8105	-0.251
Mof_N 	N 	0.4907	0.3248	0.4146	-0.249
Mof_N 	N 	0.4898	0.8105	0.9272	-0.251
Mof_N 	N 	0.5093	0.4146	0.6752	-0.249
Mof_N 	N 	0.4898	0.1895	0.0728	-0.251
Mof_N 	N 	0.5093	0.5854	0.3248	-0.249
Mof_O 	O 	0.0464	0.81785	0.96628	-0.46
Mof_O 	O 	0.1905	0.80103	0.9511	-0.491
Mof_O 	O 	0.7925	0.5556	0.3014	-0.488
Mof_O 	O 	0.9344	0.5455	0.3216	-0.48
Mof_O 	O 	0.1565	0.89609	0.02901	-0.599
Mof_O 	O 	0.0229	0.94886	0.07009	-0.465
Mof_O 	O 	0.1038	0.0074	0.1133	-0.382
Mof_O 	O 	0.4075	0.9917	0.8774	-0.406
Mof_O 	O 	0.4821	0.93833	0.93209	-0.458
Mof_O 	O 	0.3414	0.88742	0.96588	-0.587
Mof_O 	O 	0.0464	0.18215	0.03372	-0.46
Mof_O 	O 	0.1905	0.19897	0.0489	-0.491
Mof_O 	O 	0.7925	0.4444	0.6986	-0.488
Mof_O 	O 	0.9344	0.4545	0.6784	-0.48
Mof_O 	O 	0.1565	0.10391	0.97099	-0.599
Mof_O 	O 	0.0229	0.05114	0.92991	-0.465
Mof_O 	O 	0.1038	0.9926	0.8867	-0.382
Mof_O 	O 	0.4075	0.0083	0.1226	-0.406
Mof_O 	O 	0.4821	0.06167	0.06791	-0.458
Mof_O 	O 	0.3414	0.11258	0.03412	-0.587
Mof_O 	O 	0.9536	0.96628	0.18215	-0.46
Mof_O 	O 	0.8095	0.9511	0.19897	-0.491
Mof_O 	O 	0.2075	0.3014	0.4444	-0.488
Mof_O 	O 	0.0656	0.3216	0.4545	-0.48
Mof_O 	O 	0.8435	0.02901	0.10391	-0.599
Mof_O 	O 	0.9771	0.07009	0.05114	-0.465
Mof_O 	O 	0.8962	0.1133	0.9926	-0.382
Mof_O 	O 	0.5925	0.8774	0.0083	-0.406
Mof_O 	O 	0.5179	0.93209	0.06167	-0.458
Mof_O 	O 	0.6586	0.96588	0.11258	-0.587
Mof_O 	O 	0.9536	0.03372	0.81785	-0.46
Mof_O 	O 	0.8095	0.0489	0.80103	-0.491
Mof_O 	O 	0.2075	0.6986	0.5556	-0.488
Mof_O 	O 	0.0656	0.6784	0.5455	-0.48
Mof_O 	O 	0.8435	0.97099	0.89609	-0.599
Mof_O 	O 	0.9771	0.92991	0.94886	-0.465
Mof_O 	O 	0.8962	0.8867	0.0074	-0.382
Mof_O 	O 	0.5925	0.1226	0.9917	-0.406
Mof_O 	O 	0.5179	0.06791	0.93833	-0.458
Mof_O 	O 	0.6586	0.03412	0.88742	-0.587
Mof_O 	O 	0.4536	0.68215	0.46628	-0.46
Mof_O 	O 	0.3095	0.69897	0.4511	-0.491
Mof_O 	O 	0.7075	0.9444	0.8014	-0.488
Mof_O 	O 	0.5656	0.9545	0.8216	-0.48
Mof_O 	O 	0.3435	0.60391	0.52901	-0.6
Mof_O 	O 	0.4771	0.55114	0.57009	-0.465
Mof_O 	O 	0.3962	0.4926	0.6133	-0.382
Mof_O 	O 	0.0925	0.5083	0.3774	-0.406
Mof_O 	O 	0.0179	0.56167	0.43209	-0.458
Mof_O 	O 	0.1586	0.61258	0.46588	-0.587
Mof_O 	O 	0.4536	0.31785	0.53372	-0.46
Mof_O 	O 	0.3095	0.30103	0.5489	-0.491
Mof_O 	O 	0.7075	0.0556	0.1986	-0.488
Mof_O 	O 	0.5656	0.0455	0.1784	-0.48
Mof_O 	O 	0.3435	0.39609	0.47099	-0.6
Mof_O 	O 	0.4771	0.44886	0.42991	-0.465
Mof_O 	O 	0.3962	0.5074	0.3867	-0.382
Mof_O 	O 	0.0925	0.4917	0.6226	-0.406
Mof_O 	O 	0.0179	0.43833	0.56791	-0.458
Mof_O 	O 	0.1586	0.38742	0.53412	-0.587
Mof_O 	O 	0.5464	0.53372	0.68215	-0.46
Mof_O 	O 	0.6905	0.5489	0.69897	-0.491
Mof_O 	O 	0.2925	0.1986	0.9444	-0.488
Mof_O 	O 	0.4344	0.1784	0.9545	-0.48
Mof_O 	O 	0.6565	0.47099	0.60391	-0.6
Mof_O 	O 	0.5229	0.42991	0.55114	-0.465
Mof_O 	O 	0.6038	0.3867	0.4926	-0.382
Mof_O 	O 	0.9075	0.6226	0.5083	-0.406
Mof_O 	O 	0.9821	0.56791	0.56167	-0.458
Mof_O 	O 	0.8414	0.53412	0.61258	-0.587
Mof_O 	O 	0.5464	0.46628	0.31785	-0.46
Mof_O 	O 	0.6905	0.4511	0.30103	-0.491
Mof_O 	O 	0.2925	0.8014	0.0556	-0.488
Mof_O 	O 	0.4344	0.8216	0.0455	-0.48
Mof_O 	O 	0.6565	0.52901	0.39609	-0.6
Mof_O 	O 	0.5229	0.57009	0.44886	-0.465
Mof_O 	O 	0.6038	0.6133	0.5074	-0.382
Mof_O 	O 	0.9075	0.3774	0.4917	-0.406
Mof_O 	O 	0.9821	0.43209	0.43833	-0.458
Mof_O 	O 	0.8414	0.46588	0.38742	-0.587
_end
