data_functionalizedCrystal
_audit_creation_method	'EQeq! by Chris Wilmer'
_symmetry_space_group_name_H-M	'P1'
_symmetry_Int_Tables_number	1
_symmetry_cell_setting	triclinic
loop_
_symmetry_equiv_pos_as_xyz
  x,y,z
_cell_length_a	11.6896
_cell_length_b	11.6896
_cell_length_c	9.2357
_cell_angle_alpha	90
_cell_angle_beta	90
_cell_angle_gamma	90
loop_
_atom_site_label
_atom_site_type_symbol
_atom_site_fract_x
_atom_site_fract_y
_atom_site_fract_z
_atom_site_charge
Mof_Bi	Bi	-9.63089e-33	0.75	0.125	1.021
Mof_Bi	Bi	0.5	0.25	0.625	1.102
Mof_Bi	Bi	0.5	0.75	0.375	1.101
Mof_Bi	Bi	2.59203e-33	0.25	0.875	1.02
Mof_O 	O 	2.69275e-33	0.6262	0.909	-0.257
Mof_O 	O 	-1.25727e-32	0.4536	0.82	-0.282
Mof_C 	C 	-7.26696e-33	0.519	0.923	0.234
Mof_O 	O 	0.5	0.1262	0.409	-0.243
Mof_O 	O 	0.5	0.9536	0.32	-0.264
Mof_C 	C 	0.5	0.019	0.423	0.24
Mof_O 	O 	0.5	0.3738	0.409	-0.243
Mof_O 	O 	0.5	0.5464	0.32	-0.264
Mof_C 	C 	0.5	0.481	0.423	0.24
Mof_O 	O 	-7.30843e-33	0.8738	0.909	-0.257
Mof_O 	O 	-2.57149e-33	0.0464	0.82	-0.282
Mof_C 	C 	2.73422e-33	0.981	0.923	0.234
Mof_O 	O 	0.6238	0.75	0.159	-0.24
Mof_O 	O 	0.7964	0.75	0.07	-0.223
Mof_C 	C 	0.731	0.75	0.173	0.243
Mof_O 	O 	0.8762	0.25	0.659	-0.192
Mof_O 	O 	0.7036	0.25	0.57	-0.253
Mof_C 	C 	0.769	0.25	0.673	0.239
Mof_O 	O 	0.5	0.6262	0.591	-0.243
Mof_O 	O 	0.5	0.4536	0.68	-0.264
Mof_C 	C 	0.5	0.519	0.577	0.24
Mof_O 	O 	-1.60565e-33	0.1262	0.091	-0.257
Mof_O 	O 	5.33217e-34	0.9536	0.18	-0.282
Mof_C 	C 	-3.96975e-34	0.019	0.077	0.234
Mof_O 	O 	2.14479e-33	0.3738	0.091	-0.257
Mof_O 	O 	-9.46796e-33	0.5464	0.18	-0.282
Mof_C 	C 	-7.27279e-33	0.481	0.077	0.234
Mof_O 	O 	0.5	0.8738	0.591	-0.243
Mof_O 	O 	0.5	0.0464	0.68	-0.264
Mof_C 	C 	0.5	0.981	0.577	0.24
Mof_O 	O 	0.8762	0.75	0.341	-0.192
Mof_O 	O 	0.7036	0.75	0.43	-0.253
Mof_C 	C 	0.769	0.75	0.327	0.239
Mof_O 	O 	0.6238	0.25	0.841	-0.24
Mof_O 	O 	0.7964	0.25	0.93	-0.223
Mof_C 	C 	0.731	0.25	0.827	0.243
Mof_O 	O 	0.3762	0.25	0.841	-0.244
Mof_O 	O 	0.2036	0.25	0.93	-0.26
Mof_C 	C 	0.269	0.25	0.827	0.236
Mof_O 	O 	0.1238	0.75	0.341	-0.256
Mof_O 	O 	0.2964	0.75	0.43	-0.271
Mof_C 	C 	0.231	0.75	0.327	0.243
Mof_O 	O 	0.1238	0.25	0.659	-0.256
Mof_O 	O 	0.2964	0.25	0.57	-0.271
Mof_C 	C 	0.231	0.25	0.673	0.243
Mof_O 	O 	0.3762	0.75	0.159	-0.244
Mof_O 	O 	0.2036	0.75	0.07	-0.26
Mof_C 	C 	0.269	0.75	0.173	0.236
_end
