data_functionalizedCrystal
_audit_creation_method	'EQeq! by Chris Wilmer'
_symmetry_space_group_name_H-M	'P1'
_symmetry_Int_Tables_number	1
_symmetry_cell_setting	triclinic
loop_
_symmetry_equiv_pos_as_xyz
  x,y,z
_cell_length_a	21.9177
_cell_length_b	21.9177
_cell_length_c	12.2351
_cell_angle_alpha	90
_cell_angle_beta	90
_cell_angle_gamma	120
loop_
_atom_site_label
_atom_site_type_symbol
_atom_site_fract_x
_atom_site_fract_y
_atom_site_fract_z
_atom_site_charge
Mof_C 	C 	0.3146	0.4389	0.106	0.301
Mof_C 	C 	0.3519	0.4732	0.0003	0.089
Mof_C 	C 	0.3092	0.6628	0.9544	0.308
Mof_C 	C 	0.2432	0.5904	0.935	0.271
Mof_O 	O 	0.2914	0.4745	0.1573	-0.478
Mof_O 	O 	0.3659	0.5369	0.9844	-0.37
Mof_O 	O 	0.3053	0.3781	0.1221	-0.482
Mof_O 	O 	0.3715	0.4371	0.94	-0.376
Mof_O 	O 	0.3528	0.6695	0.0284	-0.511
Mof_O 	O 	0.239	0.5432	0.9943	-0.419
Mof_O 	O 	0.3171	0.7128	0.8995	-0.346
Mof_O 	O 	0.2054	0.586	0.8573	-0.364
Mof_Cr	Cr	0.32517	0.57269	0.0964	1.685
Mof_C 	C 	0.2296	0.2009	0.0448	0.21
Mof_O 	O 	0.2927	0.2428	0.0741	-0.449
Mof_O 	O 	0.1898	0.1406	0.0782	-0.454
Mof_O 	O 	0.1278	0.0422	0.8982	-0.441
Mof_O 	O 	0.0073	0.044	0.8958	-0.376
Mof_Mn	Mn	0.24752	0.67483	0.76307	1.071
Mof_C 	C 	0.5611	0.8757	0.43933	0.268
Mof_C 	C 	0.5268	0.8787	0.33363	0.241
Mof_C 	C 	0.3372	0.6464	0.28773	0.233
Mof_C 	C 	0.4096	0.6528	0.26833	0.31
Mof_O 	O 	0.5255	0.8169	0.49063	-0.463
Mof_O 	O 	0.4631	0.829	0.31773	-0.475
Mof_O 	O 	0.6219	0.9272	0.45543	-0.422
Mof_O 	O 	0.5629	0.9344	0.27333	-0.429
Mof_O 	O 	0.3305	0.6833	0.36173	-0.455
Mof_O 	O 	0.4568	0.6958	0.32763	-0.478
Mof_O 	O 	0.2872	0.6043	0.23283	-0.44
Mof_O 	O 	0.414	0.6194	0.19063	-0.491
Mof_Cr	Cr	0.42731	0.75248	0.42973	1.805
Mof_C 	C 	0.7991	0.0287	0.37813	0.202
Mof_O 	O 	0.7572	0.0499	0.40743	-0.44
Mof_O 	O 	0.8594	0.0492	0.41153	-0.446
Mof_O 	O 	0.9578	0.0856	0.23153	-0.432
Mof_O 	O 	0.956	0.9633	0.22913	-0.278
Mof_C 	C 	0.1243	0.6854	0.77267	0.252
Mof_C 	C 	0.1213	0.6481	0.66697	0.227
Mof_C 	C 	0.3536	0.6908	0.62107	0.233
Mof_C 	C 	0.3472	0.7568	0.60167	0.293
Mof_O 	O 	0.1831	0.7086	0.82397	-0.335
Mof_O 	O 	0.171	0.6341	0.65107	-0.348
Mof_O 	O 	0.0728	0.6947	0.78877	-0.46
Mof_O 	O 	0.0656	0.6285	0.60667	-0.471
Mof_O 	O 	0.3167	0.6472	0.69507	-0.339
Mof_O 	O 	0.3042	0.761	0.66097	-0.352
Mof_O 	O 	0.3957	0.6829	0.56617	-0.445
Mof_O 	O 	0.3806	0.7946	0.52397	-0.49
Mof_C 	C 	0.9713	0.7704	0.71147	0.332
Mof_O 	O 	0.9501	0.7073	0.74077	-0.427
Mof_O 	O 	0.9508	0.8102	0.74487	-0.432
Mof_O 	O 	0.9144	0.8722	0.56487	-0.436
Mof_O 	O 	0.0367	0.9927	0.56247	-0.473
Mof_C 	C 	0.4389	0.3146	0.894	0.235
Mof_C 	C 	0.4732	0.3519	0.9997	0.387
Mof_C 	C 	0.6628	0.3092	0.0456	0.149
Mof_C 	C 	0.5904	0.2432	0.065	0.318
Mof_O 	O 	0.4745	0.2914	0.8427	-0.466
Mof_O 	O 	0.5369	0.3659	0.0156	-0.577
Mof_O 	O 	0.3781	0.3053	0.8779	-0.432
Mof_O 	O 	0.4371	0.3715	0.06	-0.532
Mof_O 	O 	0.6695	0.3528	0.9716	-0.398
Mof_O 	O 	0.5432	0.239	0.0057	-0.526
Mof_O 	O 	0.7128	0.3171	0.1005	-0.328
Mof_O 	O 	0.586	0.2054	0.1427	-0.387
Mof_Cr	Cr	0.57269	0.32517	0.9036	1.919
Mof_C 	C 	0.2009	0.2296	0.9552	0.327
Mof_O 	O 	0.2428	0.2927	0.9259	-0.441
Mof_O 	O 	0.1406	0.1898	0.9218	-0.449
Mof_O 	O 	0.0422	0.1278	0.1018	-0.491
Mof_O 	O 	0.044	0.0073	0.1042	-0.418
Mof_Mn	Mn	0.67483	0.24752	0.23693	1.064
Mof_C 	C 	0.8757	0.5611	0.56067	0.268
Mof_C 	C 	0.8787	0.5268	0.66637	0.239
Mof_C 	C 	0.6464	0.3372	0.71227	0.232
Mof_C 	C 	0.6528	0.4096	0.73167	0.311
Mof_O 	O 	0.8169	0.5255	0.50937	-0.467
Mof_O 	O 	0.829	0.4631	0.68227	-0.473
Mof_O 	O 	0.9272	0.6219	0.54457	-0.43
Mof_O 	O 	0.9344	0.5629	0.72667	-0.427
Mof_O 	O 	0.6833	0.3305	0.63827	-0.453
Mof_O 	O 	0.6958	0.4568	0.67237	-0.477
Mof_O 	O 	0.6043	0.2872	0.76717	-0.452
Mof_O 	O 	0.6194	0.414	0.80937	-0.506
Mof_Cr	Cr	0.75248	0.42731	0.57027	1.805
Mof_C 	C 	0.0287	0.7991	0.62187	0.21
Mof_O 	O 	0.0499	0.7572	0.59257	-0.444
Mof_O 	O 	0.0492	0.8594	0.58847	-0.449
Mof_O 	O 	0.0856	0.9578	0.76847	-0.419
Mof_O 	O 	0.9633	0.956	0.77087	-0.273
Mof_C 	C 	0.6854	0.1243	0.22733	0.253
Mof_C 	C 	0.6481	0.1213	0.33303	0.224
Mof_C 	C 	0.6908	0.3536	0.37893	0.231
Mof_C 	C 	0.7568	0.3472	0.39833	0.292
Mof_O 	O 	0.7086	0.1831	0.17603	-0.356
Mof_O 	O 	0.6341	0.171	0.34893	-0.346
Mof_O 	O 	0.6947	0.0728	0.21123	-0.478
Mof_O 	O 	0.6285	0.0656	0.39333	-0.468
Mof_O 	O 	0.6472	0.3167	0.30493	-0.34
Mof_O 	O 	0.761	0.3042	0.33903	-0.359
Mof_O 	O 	0.6829	0.3957	0.43383	-0.446
Mof_O 	O 	0.7946	0.3806	0.47603	-0.493
Mof_C 	C 	0.7704	0.9713	0.28853	0.336
Mof_O 	O 	0.7073	0.9501	0.25923	-0.433
Mof_O 	O 	0.8102	0.9508	0.25513	-0.44
Mof_O 	O 	0.8722	0.9144	0.43513	-0.432
Mof_O 	O 	0.9927	0.0367	0.43753	-0.474
Mof_Cr	Cr	0.34138	0.34138	-0	1.712
Mof_Cr	Cr	0.09387	0.09387	-0	1.595
Mof_Cr	Cr	0.65862	0	0.33333	1.691
Mof_Cr	Cr	0.90613	0	0.33333	1.6
Mof_Cr	Cr	-4.55758e-17	0.65862	0.66667	1.706
Mof_Cr	Cr	-4.55758e-17	0.90613	0.66667	1.618
Mof_C 	C 	0.0828	9.91864e-33	0.83333	0.262
Mof_C 	C 	0.0123	9.91864e-33	0.83333	0.087
Mof_C 	C 	-5.81042e-18	0.0828	0.16667	0.263
Mof_C 	C 	-1.62265e-18	0.0123	0.16667	0.076
Mof_C 	C 	0.9172	0.9172	0.5	0.271
Mof_C 	C 	0.9877	0.9877	0.5	0.385
Mof_N 	N 	0.7002	0.6906	0.1012	-0.189
Mof_N 	N 	0.5505	0.5879	0.8847	-0.207
Mof_N 	N 	0.5844	0.6842	0.0273	-0.236
Mof_C 	C 	0.6786	0.7346	0.1478	0.081
Mof_C 	C 	0.762	0.6937	0.1363	0.175
Mof_C 	C 	0.5304	0.5363	0.8094	0.252
Mof_C 	C 	0.518	0.6255	0.8735	0.114
Mof_C 	C 	0.5352	0.6786	0.9619	0.095
Mof_C 	C 	0.6142	0.7343	0.108	0.06
Mof_C 	C 	0.7189	0.7817	0.2295	0.169
Mof_C 	C 	0.8023	0.7408	0.218	-0.206
Mof_H 	H 	0.7767	0.6637	0.1045	-0.017
Mof_N 	N 	0.4857	0.5267	0.7231	-0.179
Mof_N 	N 	0.5559	0.4945	0.8137	-0.339
Mof_N 	N 	0.4762	0.6242	0.7951	-0.154
Mof_C 	C 	0.5084	0.7237	0.9772	0.009
Mof_C 	C 	0.5858	0.7787	0.125	-0.052
Mof_H 	H 	0.7042	0.8117	0.2613	0.072
Mof_C 	C 	0.7807	0.7848	0.2646	-0.125
Mof_H 	H 	0.8445	0.743	0.242	0.112
Mof_C 	C 	0.4629	0.5726	0.7219	0.236
Mof_H 	H 	0.5861	0.4998	0.8653	0.183
Mof_H 	H 	0.5431	0.4607	0.7649	0.176
Mof_H 	H 	0.4728	0.7208	0.9295	0.061
Mof_C 	C 	0.5322	0.7711	0.059	-0.078
Mof_H 	H 	0.6035	0.8131	0.1812	0.061
Mof_H 	H 	0.8082	0.817	0.3204	0.086
Mof_N 	N 	0.4207	0.5668	0.6366	-0.322
Mof_H 	H 	0.5116	0.7998	0.0702	0.063
Mof_H 	H 	0.4101	0.5341	0.5867	0.162
Mof_H 	H 	0.4039	0.5957	0.6312	0.19
Mof_N 	N 	0.6808	0.6932	0.1439	-0.048
Mof_C 	C 	0.6557	0.7338	0.192	-0.06
Mof_C 	C 	0.6868	0.7716	0.287	-0.271
Mof_H 	H 	0.6696	0.7994	0.3194	0.115
Mof_C 	C 	0.743	0.7688	0.333	-0.021
Mof_H 	H 	0.7644	0.7947	0.3982	0.048
Mof_C 	C 	0.7683	0.7282	0.286	0.164
Mof_H 	H 	0.8068	0.7263	0.3175	-0.006
Mof_C 	C 	0.7372	0.6904	0.191	-0.035
Mof_H 	H 	0.7544	0.6627	0.1579	-0.032
Mof_N 	N 	0.6906	0.7002	0.8988	-0.147
Mof_N 	N 	0.5879	0.5505	0.1153	-0.227
Mof_N 	N 	0.6842	0.5844	0.9727	-0.179
Mof_C 	C 	0.7346	0.6786	0.8522	0.145
Mof_C 	C 	0.6937	0.762	0.8637	0.202
Mof_C 	C 	0.5363	0.5304	0.1906	0.242
Mof_C 	C 	0.6255	0.518	0.1265	0.098
Mof_C 	C 	0.6786	0.5352	0.0381	0.07
Mof_C 	C 	0.7343	0.6142	0.892	0.135
Mof_C 	C 	0.7817	0.7189	0.7705	0.266
Mof_C 	C 	0.7408	0.8023	0.782	-0.141
Mof_H 	H 	0.6637	0.7767	0.8955	0.009
Mof_N 	N 	0.5267	0.4857	0.2769	-0.178
Mof_N 	N 	0.4945	0.5559	0.1863	-0.334
Mof_N 	N 	0.6242	0.4762	0.2049	-0.152
Mof_C 	C 	0.7237	0.5084	0.0228	-0.248
Mof_C 	C 	0.7787	0.5858	0.875	-0.178
Mof_H 	H 	0.8117	0.7042	0.7387	0.072
Mof_C 	C 	0.7848	0.7807	0.7354	-0.236
Mof_H 	H 	0.743	0.8445	0.758	0.101
Mof_C 	C 	0.5726	0.4629	0.2781	0.233
Mof_H 	H 	0.4998	0.5861	0.1347	0.16
Mof_H 	H 	0.4607	0.5431	0.2351	0.173
Mof_H 	H 	0.7208	0.4728	0.0705	0.119
Mof_C 	C 	0.7711	0.5322	0.941	0.208
Mof_H 	H 	0.8131	0.6035	0.8188	0.111
Mof_H 	H 	0.817	0.8082	0.6796	0.119
Mof_N 	N 	0.5668	0.4207	0.3634	-0.322
Mof_H 	H 	0.7998	0.5116	0.9298	-0.004
Mof_H 	H 	0.5341	0.4101	0.4133	0.162
Mof_H 	H 	0.5957	0.4039	0.3688	0.189
Mof_N 	N 	0.6932	0.6808	0.8561	-0.08
Mof_C 	C 	0.7338	0.6557	0.808	-0.128
Mof_C 	C 	0.7716	0.6868	0.713	-0.367
Mof_H 	H 	0.7994	0.6696	0.6806	0.147
Mof_C 	C 	0.7688	0.743	0.667	0.059
Mof_H 	H 	0.7947	0.7644	0.6018	0.018
Mof_C 	C 	0.7282	0.7683	0.714	0.166
Mof_H 	H 	0.7263	0.8068	0.6825	-0.009
Mof_C 	C 	0.6904	0.7372	0.809	-0.064
Mof_H 	H 	0.6627	0.7544	0.8421	-0.041
Mof_Fe	Fe	0.63178	0.63178	-0	0.686
Mof_N 	N 	0.3094	0.0096	0.43453	-0.328
Mof_N 	N 	0.4121	0.9626	0.21803	-0.209
Mof_N 	N 	0.3158	0.9002	0.36063	-0.194
Mof_C 	C 	0.2654	0.944	0.48113	-0.15
Mof_C 	C 	0.3063	0.0683	0.46963	0.161
Mof_C 	C 	0.4637	0.9941	0.14273	0.31
Mof_C 	C 	0.3745	0.8925	0.20683	0.107
Mof_C 	C 	0.3214	0.8566	0.29523	0.077
Mof_C 	C 	0.2657	0.8799	0.44133	0.079
Mof_C 	C 	0.2183	0.9372	0.56283	-0.076
Mof_C 	C 	0.2592	0.0615	0.55133	-0.285
Mof_H 	H 	0.3363	0.113	0.43783	0.012
Mof_N 	N 	0.4733	0.959	0.05643	-0.177
Mof_N 	N 	0.5055	0.0614	0.14703	-0.377
Mof_N 	N 	0.3758	0.852	0.12843	-0.157
Mof_C 	C 	0.2763	0.7847	0.31053	-0.118
Mof_C 	C 	0.2213	0.8071	0.45833	-0.117
Mof_H 	H 	0.1883	0.8925	0.59463	0.104
Mof_C 	C 	0.2152	0.9959	0.59793	0.355
Mof_H 	H 	0.257	0.1015	0.57533	0.111
Mof_C 	C 	0.4274	0.8903	0.05523	0.194
Mof_H 	H 	0.5002	0.0863	0.19863	0.174
Mof_H 	H 	0.5393	0.0824	0.09823	0.166
Mof_H 	H 	0.2792	0.752	0.26283	0.082
Mof_C 	C 	0.2289	0.7611	0.39233	0.059
Mof_H 	H 	0.1869	0.7904	0.51453	0.083
Mof_H 	H 	0.183	0.9912	0.65373	-0.055
Mof_N 	N 	0.4332	0.8539	0.96993	-0.293
Mof_H 	H 	0.2002	0.7118	0.40353	0.027
Mof_H 	H 	0.4659	0.876	0.92003	0.185
Mof_H 	H 	0.4043	0.8082	0.96453	0.206
Mof_N 	N 	0.3068	0.9876	0.47723	0.146
Mof_C 	C 	0.2662	0.9219	0.52533	0.162
Mof_C 	C 	0.2284	0.9152	0.62033	-0.114
Mof_H 	H 	0.2006	0.8702	0.65273	0.056
Mof_C 	C 	0.2312	0.9742	0.66633	-0.116
Mof_H 	H 	0.2053	0.9697	0.73153	0.11
Mof_C 	C 	0.2718	0.0401	0.61933	-0.17
Mof_H 	H 	0.2737	0.0805	0.65083	0.102
Mof_C 	C 	0.3096	0.0468	0.52433	0.093
Mof_H 	H 	0.3373	0.0917	0.49123	-0.075
Mof_N 	N 	0.2998	0.9904	0.23213	-0.002
Mof_N 	N 	0.4495	0.0374	0.44863	-0.224
Mof_N 	N 	0.4156	0.0998	0.30603	-0.213
Mof_C 	C 	0.3214	0.056	0.18553	0.137
Mof_C 	C 	0.238	0.9317	0.19703	0.06
Mof_C 	C 	0.4696	0.0059	0.52393	0.18
Mof_C 	C 	0.482	0.1075	0.45983	0.101
Mof_C 	C 	0.4648	0.1434	0.37143	0.083
Mof_C 	C 	0.3858	0.1201	0.22533	0.099
Mof_C 	C 	0.2811	0.0628	0.10383	0.44
Mof_C 	C 	0.1977	0.9385	0.11533	-0.11
Mof_H 	H 	0.2233	0.887	0.22883	0.005
Mof_N 	N 	0.5143	0.041	0.61023	-0.179
Mof_N 	N 	0.4441	0.9386	0.51963	-0.296
Mof_N 	N 	0.5238	0.148	0.53823	-0.152
Mof_C 	C 	0.4916	0.2153	0.35613	-0.12
Mof_C 	C 	0.4142	0.1929	0.20833	-0.119
Mof_H 	H 	0.2958	0.1075	0.07203	0.034
Mof_C 	C 	0.2193	0.0041	0.06873	-0.505
Mof_H 	H 	0.1555	0.8985	0.09133	0.08
Mof_C 	C 	0.5371	0.1097	0.61143	0.232
Mof_H 	H 	0.4139	0.9137	0.46803	0.169
Mof_H 	H 	0.4569	0.9176	0.56843	0.182
Mof_H 	H 	0.5272	0.248	0.40383	0.092
Mof_C 	C 	0.4678	0.2389	0.27433	0.062
Mof_H 	H 	0.3965	0.2096	0.15213	0.076
Mof_H 	H 	0.1918	0.0088	0.01293	0.17
Mof_N 	N 	0.5793	0.1461	0.69673	-0.324
Mof_H 	H 	0.4884	0.2882	0.26313	0.027
Mof_H 	H 	0.5899	0.124	0.74663	0.166
Mof_H 	H 	0.5961	0.1918	0.70213	0.194
Mof_N 	N 	0.3192	0.0124	0.18943	-0.217
Mof_C 	C 	0.3443	0.0781	0.14133	-0.142
Mof_C 	C 	0.3132	0.0848	0.04633	-0.452
Mof_H 	H 	0.3304	0.1298	0.01393	0.164
Mof_C 	C 	0.257	0.0258	0.00033	-0.06
Mof_H 	H 	0.2356	0.0303	0.93513	0.08
Mof_C 	C 	0.2317	0.9599	0.04733	0.443
Mof_H 	H 	0.1932	0.9195	0.01583	-0.116
Mof_C 	C 	0.2628	0.9532	0.14233	-0.079
Mof_H 	H 	0.2456	0.9083	0.17543	0.031
Mof_Fe	Fe	0.36822	0	0.33333	0.681
Mof_N 	N 	0.9904	0.2998	0.76787	-0.016
Mof_N 	N 	0.0374	0.4495	0.55137	-0.224
Mof_N 	N 	0.0998	0.4156	0.69397	-0.222
Mof_C 	C 	0.056	0.3214	0.81447	0.582
Mof_C 	C 	0.9317	0.238	0.80297	0.35
Mof_C 	C 	0.0059	0.4696	0.47607	0.18
Mof_C 	C 	0.1075	0.482	0.54017	0.099
Mof_C 	C 	0.1434	0.4648	0.62857	0.086
Mof_C 	C 	0.1201	0.3858	0.77467	0.124
Mof_C 	C 	0.0628	0.2811	0.89617	0.522
Mof_C 	C 	0.9385	0.1977	0.88467	-0.055
Mof_H 	H 	0.887	0.2233	0.77117	-0.063
Mof_N 	N 	0.041	0.5143	0.38977	-0.185
Mof_N 	N 	0.9386	0.4441	0.48037	-0.297
Mof_N 	N 	0.148	0.5238	0.46177	-0.152
Mof_C 	C 	0.2153	0.4916	0.64387	-0.124
Mof_C 	C 	0.1929	0.4142	0.79167	-0.118
Mof_H 	H 	0.1075	0.2958	0.92797	0.036
Mof_C 	C 	0.0041	0.2193	0.93127	-0.915
Mof_H 	H 	0.8985	0.1555	0.90867	0.081
Mof_C 	C 	0.1097	0.5371	0.38857	0.223
Mof_H 	H 	0.9137	0.4139	0.53197	0.167
Mof_H 	H 	0.9176	0.4569	0.43157	0.176
Mof_H 	H 	0.248	0.5272	0.59617	0.093
Mof_C 	C 	0.2389	0.4678	0.72567	0.065
Mof_H 	H 	0.2096	0.3965	0.84787	0.094
Mof_H 	H 	0.0088	0.1918	0.98707	0.332
Mof_N 	N 	0.1461	0.5793	0.30327	-0.319
Mof_H 	H 	0.2882	0.4884	0.73687	0.029
Mof_H 	H 	0.124	0.5899	0.25337	0.144
Mof_H 	H 	0.1918	0.5961	0.29787	0.184
Mof_N 	N 	0.0124	0.3192	0.81057	-0.31
Mof_C 	C 	0.0781	0.3443	0.85867	-0.526
Mof_C 	C 	0.0848	0.3132	0.95367	-0.526
Mof_H 	H 	0.1298	0.3304	0.98607	0.228
Mof_C 	C 	0.0258	0.257	0.99967	0.348
Mof_H 	H 	0.0303	0.2356	0.06487	-0.159
Mof_C 	C 	0.9599	0.2317	0.95267	0.591
Mof_H 	H 	0.9195	0.1932	0.98417	-0.137
Mof_C 	C 	0.9532	0.2628	0.85767	-0.303
Mof_H 	H 	0.9083	0.2456	0.82457	-0.014
Mof_N 	N 	0.0096	0.3094	0.56547	-0.332
Mof_N 	N 	0.9626	0.4121	0.78197	-0.208
Mof_N 	N 	0.9002	0.3158	0.63937	-0.197
Mof_C 	C 	0.944	0.2654	0.51887	-0.143
Mof_C 	C 	0.0683	0.3063	0.53037	0.164
Mof_C 	C 	0.9941	0.4637	0.85727	0.321
Mof_C 	C 	0.8925	0.3745	0.79317	0.114
Mof_C 	C 	0.8566	0.3214	0.70477	0.087
Mof_C 	C 	0.8799	0.2657	0.55867	0.082
Mof_C 	C 	0.9372	0.2183	0.43717	-0.069
Mof_C 	C 	0.0615	0.2592	0.44867	-0.285
Mof_H 	H 	0.113	0.3363	0.56217	0.003
Mof_N 	N 	0.959	0.4733	0.94357	-0.169
Mof_N 	N 	0.0614	0.5055	0.85297	-0.378
Mof_N 	N 	0.852	0.3758	0.87157	-0.153
Mof_C 	C 	0.7847	0.2763	0.68947	-0.119
Mof_C 	C 	0.8071	0.2213	0.54167	-0.119
Mof_H 	H 	0.8925	0.1883	0.40537	0.103
Mof_C 	C 	0.9959	0.2152	0.40207	0.344
Mof_H 	H 	0.1015	0.257	0.42467	0.11
Mof_C 	C 	0.8903	0.4274	0.94477	0.289
Mof_H 	H 	0.0863	0.5002	0.80137	0.182
Mof_H 	H 	0.0824	0.5393	0.90177	0.186
Mof_H 	H 	0.752	0.2792	0.73717	0.093
Mof_C 	C 	0.7611	0.2289	0.60767	0.066
Mof_H 	H 	0.7904	0.1869	0.48547	0.084
Mof_H 	H 	0.9912	0.183	0.34627	-0.051
Mof_N 	N 	0.8539	0.4332	0.03007	-0.355
Mof_H 	H 	0.7118	0.2002	0.59647	0.027
Mof_H 	H 	0.876	0.4659	0.07997	0.165
Mof_H 	H 	0.8082	0.4043	0.03547	0.18
Mof_N 	N 	0.9876	0.3068	0.52277	0.142
Mof_C 	C 	0.9219	0.2662	0.47467	0.147
Mof_C 	C 	0.9152	0.2284	0.37967	-0.117
Mof_H 	H 	0.8702	0.2006	0.34727	0.05
Mof_C 	C 	0.9742	0.2312	0.33367	-0.127
Mof_H 	H 	0.9697	0.2053	0.26847	0.101
Mof_C 	C 	0.0401	0.2718	0.38067	-0.157
Mof_H 	H 	0.0805	0.2737	0.34917	0.092
Mof_C 	C 	0.0468	0.3096	0.47567	0.08
Mof_H 	H 	0.0917	0.3373	0.50877	-0.072
Mof_Fe	Fe	-9.062e-19	0.36822	0.66667	0.686
_end
