data_functionalizedCrystal
_audit_creation_method	'EQeq! by Chris Wilmer'
_symmetry_space_group_name_H-M	'P1'
_symmetry_Int_Tables_number	1
_symmetry_cell_setting	triclinic
loop_
_symmetry_equiv_pos_as_xyz
  x,y,z
_cell_length_a	10.223
_cell_length_b	10.223
_cell_length_c	14.493
_cell_angle_alpha	90
_cell_angle_beta	90
_cell_angle_gamma	90
loop_
_atom_site_label
_atom_site_type_symbol
_atom_site_fract_x
_atom_site_fract_y
_atom_site_fract_z
_atom_site_charge
Mof_Y 	Y 	0.65023	0.65023	0.875	1.73
Mof_Y 	Y 	0.34977	0.34977	0.375	1.711
Mof_Y 	Y 	0.34977	0.65023	0.125	1.689
Mof_Y 	Y 	0.65023	0.34977	0.625	1.712
Mof_H 	H 	0.9416	0.5757	0.1214	-0.007
Mof_H 	H 	0.0584	0.4243	0.6214	-0.003
Mof_H 	H 	0.4243	0.9416	0.3714	-0.004
Mof_H 	H 	0.5757	0.0584	0.8714	-0.008
Mof_H 	H 	0.0584	0.5757	0.8786	0.001
Mof_H 	H 	0.9416	0.4243	0.3786	-0.004
Mof_H 	H 	0.5757	0.9416	0.6286	-0.003
Mof_H 	H 	0.4243	0.0584	0.1286	-0.004
Mof_H 	H 	0.6032	0.5	0.25	-0.03
Mof_H 	H 	0.3968	0.5	0.75	-0.029
Mof_H 	H 	0.5	0.6032	0.5	-0.03
Mof_H 	H 	0.5	0.3968	-0	-0.026
Mof_C 	C 	0.755	0.549	0.1714	-0.251
Mof_C 	C 	0.894	0.547	0.1721	0.146
Mof_C 	C 	0.674	0.589	0.093	0.515
Mof_C 	C 	0.245	0.451	0.6714	-0.247
Mof_C 	C 	0.106	0.453	0.6721	0.145
Mof_C 	C 	0.326	0.411	0.593	0.514
Mof_C 	C 	0.451	0.755	0.4214	-0.248
Mof_C 	C 	0.453	0.894	0.4221	0.146
Mof_C 	C 	0.411	0.674	0.343	0.514
Mof_C 	C 	0.549	0.245	0.9214	-0.224
Mof_C 	C 	0.547	0.106	0.9221	0.166
Mof_C 	C 	0.589	0.326	0.843	0.51
Mof_C 	C 	0.245	0.549	0.8286	-0.244
Mof_C 	C 	0.106	0.547	0.8279	0.144
Mof_C 	C 	0.326	0.589	0.907	0.514
Mof_C 	C 	0.755	0.451	0.3286	-0.249
Mof_C 	C 	0.894	0.453	0.3279	0.146
Mof_C 	C 	0.674	0.411	0.407	0.515
Mof_C 	C 	0.549	0.755	0.5786	-0.248
Mof_C 	C 	0.547	0.894	0.5779	0.146
Mof_C 	C 	0.589	0.674	0.657	0.515
Mof_C 	C 	0.451	0.245	0.0786	-0.242
Mof_C 	C 	0.453	0.106	0.0779	0.144
Mof_C 	C 	0.411	0.326	0.157	0.509
Mof_C 	C 	0.694	0.5	0.25	0.181
Mof_C 	C 	0.957	0.5	0.25	-0.195
Mof_C 	C 	0.114	0.5	0.25	0.47
Mof_C 	C 	0.306	0.5	0.75	0.18
Mof_C 	C 	0.043	0.5	0.75	-0.191
Mof_C 	C 	0.886	0.5	0.75	0.472
Mof_C 	C 	0.5	0.694	0.5	0.181
Mof_C 	C 	0.5	0.957	0.5	-0.194
Mof_C 	C 	0.5	0.114	0.5	0.472
Mof_C 	C 	0.5	0.306	-0	0.147
Mof_C 	C 	0.5	0.043	-0	-0.212
Mof_C 	C 	0.5	0.886	-0	0.444
Mof_O 	O 	0.739	0.5948	0.0144	-0.479
Mof_O 	O 	0.561	0.616	0.102	-0.53
Mof_O 	O 	0.1646	0.4221	0.3075	-0.487
Mof_O 	O 	0.261	0.4052	0.5144	-0.465
Mof_O 	O 	0.439	0.384	0.602	-0.527
Mof_O 	O 	0.8354	0.5779	0.8075	-0.485
Mof_O 	O 	0.4052	0.739	0.2644	-0.463
Mof_O 	O 	0.384	0.561	0.352	-0.526
Mof_O 	O 	0.5779	0.1646	0.5575	-0.486
Mof_O 	O 	0.5948	0.261	0.7644	-0.463
Mof_O 	O 	0.616	0.439	0.852	-0.522
Mof_O 	O 	0.4221	0.8354	0.0575	-0.484
Mof_O 	O 	0.261	0.5948	0.9856	-0.447
Mof_O 	O 	0.439	0.616	0.898	-0.522
Mof_O 	O 	0.8354	0.4221	0.6925	-0.486
Mof_O 	O 	0.739	0.4052	0.4856	-0.465
Mof_O 	O 	0.561	0.384	0.398	-0.527
Mof_O 	O 	0.1646	0.5779	0.1925	-0.488
Mof_O 	O 	0.5948	0.739	0.7356	-0.466
Mof_O 	O 	0.616	0.561	0.648	-0.528
Mof_O 	O 	0.4221	0.1646	0.4425	-0.487
Mof_O 	O 	0.4052	0.261	0.2356	-0.464
Mof_O 	O 	0.384	0.439	0.148	-0.526
Mof_O 	O 	0.5779	0.8354	0.9425	-0.463
_end
