data_functionalizedCrystal
_audit_creation_method	'EQeq! by Chris Wilmer'
_symmetry_space_group_name_H-M	'P1'
_symmetry_Int_Tables_number	1
_symmetry_cell_setting	triclinic
loop_
_symmetry_equiv_pos_as_xyz
  x,y,z
_cell_length_a	15.673
_cell_length_b	15.673
_cell_length_c	6.95
_cell_angle_alpha	90
_cell_angle_beta	90
_cell_angle_gamma	120
loop_
_atom_site_label
_atom_site_type_symbol
_atom_site_fract_x
_atom_site_fract_y
_atom_site_fract_z
_atom_site_charge
Mof_Au	Au	0.261	0.73875	0.99981	0.06
Mof_N 	N 	0.4059	0.8914	0.694	-0.166
Mof_C 	C 	0.35	0.8307	0.799	0.048
Mof_N 	N 	0.515	0.1098	0.693	-0.182
Mof_C 	C 	0.5197	0.1665	0.802	0.048
Mof_N 	N 	0.3736	0.0005	0.379	-0.184
Mof_C 	C 	0.2857	0.9147	0.339	0.077
Mof_C 	C 	0.206	0.9202	0.266	-0.03
Mof_C 	C 	0.2142	0.0115	0.233	-0.003
Mof_C 	C 	0.3021	0.0973	0.273	-0.013
Mof_C 	C 	0.3819	0.0918	0.346	0.038
Mof_C 	C 	0.1094	0.852	0.247	0.084
Mof_N 	N 	0.0207	0.787	0.227	-0.118
Mof_Au	Au	0.26125	0.52225	0.99981	0.054
Mof_N 	N 	0.1086	0.5145	0.694	-0.18
Mof_C 	C 	0.1693	0.5193	0.799	0.041
Mof_N 	N 	0.8902	0.4052	0.693	-0.17
Mof_C 	C 	0.8335	0.3532	0.802	0.054
Mof_N 	N 	0.9995	0.3731	0.379	-0.149
Mof_C 	C 	0.0853	0.371	0.339	0.045
Mof_C 	C 	0.0798	0.2858	0.266	-0.095
Mof_C 	C 	0.9885	0.2027	0.233	0.072
Mof_C 	C 	0.9027	0.2048	0.273	-0.033
Mof_C 	C 	0.9082	0.2901	0.346	0.053
Mof_C 	C 	0.148	0.2574	0.247	0.086
Mof_N 	N 	0.213	0.2337	0.227	-0.115
Mof_Au	Au	0.47775	0.739	0.99981	0.06
Mof_N 	N 	0.4855	0.5941	0.694	-0.178
Mof_C 	C 	0.4807	0.65	0.799	0.045
Mof_N 	N 	0.5948	0.485	0.693	-0.181
Mof_C 	C 	0.6468	0.4803	0.802	0.05
Mof_N 	N 	0.6269	0.6264	0.379	-0.171
Mof_C 	C 	0.629	0.7143	0.339	0.062
Mof_C 	C 	0.7142	0.794	0.266	-0.067
Mof_C 	C 	0.7973	0.7858	0.233	0.05
Mof_C 	C 	0.7952	0.6979	0.273	-0.015
Mof_C 	C 	0.7099	0.6181	0.346	0.043
Mof_C 	C 	0.7426	0.8906	0.247	0.096
Mof_N 	N 	0.7663	0.9793	0.227	-0.1
Mof_Au	Au	0.739	0.26125	0.00019	0.057
Mof_N 	N 	0.5941	0.1086	0.306	-0.18
Mof_C 	C 	0.65	0.1693	0.201	0.041
Mof_N 	N 	0.485	0.8902	0.307	-0.17
Mof_C 	C 	0.4803	0.8335	0.198	0.053
Mof_N 	N 	0.6264	0.9995	0.621	-0.149
Mof_C 	C 	0.7143	0.0853	0.661	0.047
Mof_C 	C 	0.794	0.0798	0.734	-0.098
Mof_C 	C 	0.7858	0.9885	0.767	0.082
Mof_C 	C 	0.6979	0.9027	0.727	-0.028
Mof_C 	C 	0.6181	0.9082	0.654	0.052
Mof_C 	C 	0.8906	0.148	0.753	0.094
Mof_N 	N 	0.9793	0.213	0.773	-0.104
Mof_Au	Au	0.73875	0.47775	0.00019	0.061
Mof_N 	N 	0.8914	0.4855	0.306	-0.166
Mof_C 	C 	0.8307	0.4807	0.201	0.048
Mof_N 	N 	0.1098	0.5948	0.307	-0.181
Mof_C 	C 	0.1665	0.6468	0.198	0.048
Mof_N 	N 	0.0005	0.6269	0.621	-0.184
Mof_C 	C 	0.9147	0.629	0.661	0.078
Mof_C 	C 	0.9202	0.7142	0.734	-0.034
Mof_C 	C 	0.0115	0.7973	0.767	0.007
Mof_C 	C 	0.0973	0.7952	0.727	-0.008
Mof_C 	C 	0.0918	0.7099	0.654	0.037
Mof_C 	C 	0.852	0.7426	0.753	0.091
Mof_N 	N 	0.787	0.7663	0.773	-0.107
Mof_Au	Au	0.52225	0.261	0.00019	0.055
Mof_N 	N 	0.5145	0.4059	0.306	-0.179
Mof_C 	C 	0.5193	0.35	0.201	0.045
Mof_N 	N 	0.4052	0.515	0.307	-0.181
Mof_C 	C 	0.3532	0.5197	0.198	0.052
Mof_N 	N 	0.3731	0.3736	0.621	-0.17
Mof_C 	C 	0.371	0.2857	0.661	0.059
Mof_C 	C 	0.2858	0.206	0.734	-0.061
Mof_C 	C 	0.2027	0.2142	0.767	0.029
Mof_C 	C 	0.2048	0.3021	0.727	-0.025
Mof_C 	C 	0.2901	0.3819	0.654	0.044
Mof_C 	C 	0.2574	0.1094	0.753	0.081
Mof_N 	N 	0.2337	0.0207	0.773	-0.122
Mof_Fe	Fe	0.5	0	0.5	0.643
Mof_Fe	Fe	-2.71527e-17	0.5	0.5	0.643
Mof_Fe	Fe	0.5	0.5	0.5	0.684
_end
