data_functionalizedCrystal
_audit_creation_method	'EQeq! by Chris Wilmer'
_symmetry_space_group_name_H-M	'P1'
_symmetry_Int_Tables_number	1
_symmetry_cell_setting	triclinic
loop_
_symmetry_equiv_pos_as_xyz
  x,y,z
_cell_length_a	7.013
_cell_length_b	15.79
_cell_length_c	15.79
_cell_angle_alpha	120
_cell_angle_beta	90
_cell_angle_gamma	90
loop_
_atom_site_label
_atom_site_type_symbol
_atom_site_fract_x
_atom_site_fract_y
_atom_site_fract_z
_atom_site_charge
Mof_Fe	Fe	0.5	0.5	0.5	0.654
Mof_Fe	Fe	0.5	0	0.5	0.618
Mof_Fe	Fe	0.5	0.5	-0	0.618
Mof_Au	Au	8e-05	0.73886	0.47778	0.052
Mof_Au	Au	8e-05	0.73892	0.26114	0.051
Mof_Au	Au	8e-05	0.52222	0.26108	0.049
Mof_Au	Au	0.99992	0.26114	0.52222	0.049
Mof_Au	Au	0.99992	0.26108	0.73886	0.051
Mof_Au	Au	0.99992	0.47778	0.73892	0.053
Mof_C 	C 	0.196	0.6489	0.4816	0.045
Mof_C 	C 	0.193	0.4823	0.6503	0.039
Mof_C 	C 	0.664	0.719	0.6387	0.04
Mof_C 	C 	0.73	0.7937	0.7279	-0.046
Mof_C 	C 	0.76	0.7766	0.8051	0.008
Mof_C 	C 	0.723	0.6847	0.7931	-0.054
Mof_C 	C 	0.656	0.61	0.7038	0.034
Mof_C 	C 	0.759	0.8858	0.7458	0.076
Mof_C 	C 	0.196	0.8327	0.3511	0.048
Mof_C 	C 	0.193	0.168	0.5177	0.037
Mof_C 	C 	0.664	0.9197	0.281	0.03
Mof_C 	C 	0.73	0.9342	0.2063	-0.003
Mof_C 	C 	0.76	0.0285	0.2234	-0.04
Mof_C 	C 	0.723	0.1084	0.3153	-0.034
Mof_C 	C 	0.656	0.0938	0.39	0.003
Mof_C 	C 	0.759	0.86	0.1142	0.061
Mof_C 	C 	0.196	0.5184	0.1673	0.042
Mof_C 	C 	0.193	0.3497	0.832	0.043
Mof_C 	C 	0.664	0.3613	0.0803	0.049
Mof_C 	C 	0.73	0.2721	0.0658	-0.088
Mof_C 	C 	0.76	0.1949	0.9715	0.049
Mof_C 	C 	0.723	0.2069	0.8916	-0.077
Mof_C 	C 	0.656	0.2962	0.9062	0.066
Mof_C 	C 	0.759	0.2542	0.14	0.076
Mof_C 	C 	0.804	0.3511	0.5184	0.045
Mof_C 	C 	0.807	0.5177	0.3497	0.04
Mof_C 	C 	0.336	0.281	0.3613	0.039
Mof_C 	C 	0.27	0.2063	0.2721	-0.047
Mof_C 	C 	0.24	0.2234	0.1949	0.004
Mof_C 	C 	0.277	0.3153	0.2069	-0.056
Mof_C 	C 	0.344	0.39	0.2962	0.034
Mof_C 	C 	0.241	0.1142	0.2542	0.066
Mof_C 	C 	0.804	0.1673	0.6489	0.041
Mof_C 	C 	0.807	0.832	0.4823	0.042
Mof_C 	C 	0.336	0.0803	0.719	0.049
Mof_C 	C 	0.27	0.0658	0.7937	-0.088
Mof_C 	C 	0.24	0.9715	0.7766	0.051
Mof_C 	C 	0.277	0.8916	0.6847	-0.075
Mof_C 	C 	0.344	0.9062	0.61	0.066
Mof_C 	C 	0.241	0.14	0.8858	0.081
Mof_C 	C 	0.804	0.4816	0.8327	0.047
Mof_C 	C 	0.807	0.6503	0.168	0.037
Mof_C 	C 	0.336	0.6387	0.9197	0.03
Mof_C 	C 	0.27	0.7279	0.9342	-0.002
Mof_C 	C 	0.24	0.8051	0.0285	-0.039
Mof_C 	C 	0.277	0.7931	0.1084	-0.033
Mof_C 	C 	0.344	0.7038	0.0938	0.003
Mof_C 	C 	0.241	0.7458	0.86	0.065
Mof_N 	N 	0.305	0.5974	0.4848	-0.178
Mof_N 	N 	0.3073	0.4847	0.5969	-0.174
Mof_N 	N 	0.6269	0.6272	0.6267	-0.164
Mof_N 	N 	0.772	0.9742	0.7692	-0.107
Mof_N 	N 	0.305	0.8874	0.4026	-0.168
Mof_N 	N 	0.3073	0.1122	0.5153	-0.175
Mof_N 	N 	0.6269	0.9995	0.3728	-0.137
Mof_N 	N 	0.772	0.795	0.0258	-0.123
Mof_N 	N 	0.305	0.5152	0.1126	-0.179
Mof_N 	N 	0.3073	0.4031	0.8878	-0.165
Mof_N 	N 	0.6269	0.3733	0.0005	-0.182
Mof_N 	N 	0.772	0.2308	0.205	-0.123
Mof_N 	N 	0.695	0.4026	0.5152	-0.178
Mof_N 	N 	0.6927	0.5153	0.4031	-0.175
Mof_N 	N 	0.3731	0.3728	0.3733	-0.164
Mof_N 	N 	0.228	0.0258	0.2308	-0.128
Mof_N 	N 	0.695	0.1126	0.5974	-0.178
Mof_N 	N 	0.6927	0.8878	0.4847	-0.164
Mof_N 	N 	0.3731	0.0005	0.6272	-0.182
Mof_N 	N 	0.228	0.205	0.9742	-0.111
Mof_N 	N 	0.695	0.4848	0.8874	-0.168
Mof_N 	N 	0.6927	0.5969	0.1122	-0.175
Mof_N 	N 	0.3731	0.6267	0.9995	-0.137
Mof_N 	N 	0.228	0.7692	0.795	-0.113
Mof_H 	H 	0.64026	0.733	0.57531	0.017
Mof_H 	H 	0.81489	0.83789	0.87818	0.05
Mof_H 	H 	0.74755	0.67061	0.85637	0.056
Mof_H 	H 	0.62503	0.53472	0.69397	0.015
Mof_H 	H 	0.64026	0.84231	0.267	0.021
Mof_H 	H 	0.81489	0.04029	0.16211	0.04
Mof_H 	H 	0.74755	0.18576	0.32939	0.046
Mof_H 	H 	0.62503	0.15925	0.46528	0.021
Mof_H 	H 	0.64026	0.42469	0.15769	0.015
Mof_H 	H 	0.81489	0.12182	0.95971	0.031
Mof_H 	H 	0.74755	0.14363	0.81424	0.052
Mof_H 	H 	0.62503	0.30603	0.84075	0.011
Mof_H 	H 	0.35974	0.267	0.42469	0.017
Mof_H 	H 	0.18511	0.16211	0.12182	0.03
Mof_H 	H 	0.25245	0.32939	0.14363	0.047
Mof_H 	H 	0.37497	0.46528	0.30603	0.015
Mof_H 	H 	0.35974	0.15769	0.733	0.015
Mof_H 	H 	0.18511	0.95971	0.83789	0.04
Mof_H 	H 	0.25245	0.81424	0.67061	0.057
Mof_H 	H 	0.37497	0.84075	0.53472	0.011
Mof_H 	H 	0.35974	0.57531	0.84231	0.021
Mof_H 	H 	0.18511	0.87818	0.04029	0.049
Mof_H 	H 	0.25245	0.85637	0.18576	0.051
Mof_H 	H 	0.37497	0.69397	0.15925	0.021
_end
