data_functionalizedCrystal
_audit_creation_method	'EQeq! by Chris Wilmer'
_symmetry_space_group_name_H-M	'P1'
_symmetry_Int_Tables_number	1
_symmetry_cell_setting	triclinic
loop_
_symmetry_equiv_pos_as_xyz
  x,y,z
_cell_length_a	17.611
_cell_length_b	8.2632
_cell_length_c	9.4939
_cell_angle_alpha	90
_cell_angle_beta	96.128
_cell_angle_gamma	90
loop_
_atom_site_label
_atom_site_type_symbol
_atom_site_fract_x
_atom_site_fract_y
_atom_site_fract_z
_atom_site_charge
Mof_C 	C 	0.3747	0.0208	0.6712	0.136
Mof_C 	C 	0.439	0.0083	0.582	-0.003
Mof_C 	C 	0.4628	0.1469	0.5141	-0.041
Mof_H 	H 	0.4378	0.245	0.5226	0.056
Mof_C 	C 	0.5246	0.1361	0.4333	-0.031
Mof_H 	H 	0.5411	0.2283	0.3893	0.038
Mof_N 	N 	0.3671	0.1442	0.7593	-0.095
Mof_N 	N 	0.3039	0.1063	0.8214	-0.144
Mof_N 	N 	0.2743	0.9715	0.7697	-0.07
Mof_N 	N 	0.3181	0.9116	0.6744	-0.161
Mof_Cd	Cd	0.2488	0.2472	0.8045	0.461
Mof_O 	O 	0.2491	0.25	0.596	-0.291
Mof_C 	C 	0.8747	0.5208	0.6712	0.141
Mof_C 	C 	0.939	0.5083	0.582	-0.018
Mof_C 	C 	0.9628	0.6469	0.5141	-0.019
Mof_H 	H 	0.9378	0.745	0.5226	0.049
Mof_C 	C 	0.0246	0.6361	0.4333	-0.056
Mof_H 	H 	0.0411	0.7283	0.3893	0.045
Mof_N 	N 	0.8671	0.6442	0.7593	-0.095
Mof_N 	N 	0.8039	0.6063	0.8214	-0.144
Mof_N 	N 	0.7743	0.4715	0.7697	-0.07
Mof_N 	N 	0.8181	0.4116	0.6744	-0.161
Mof_Cd	Cd	0.7488	0.7472	0.8045	0.463
Mof_O 	O 	0.7491	0.75	0.596	-0.291
Mof_C 	C 	0.6253	0.0208	0.8288	0.154
Mof_C 	C 	0.561	0.0083	0.918	-0.049
Mof_C 	C 	0.5372	0.1469	0.9859	0.032
Mof_H 	H 	0.5622	0.245	0.9774	0.037
Mof_C 	C 	0.4754	0.1361	0.0667	-0.105
Mof_H 	H 	0.4589	0.2283	0.1107	0.061
Mof_N 	N 	0.6329	0.1442	0.7407	-0.1
Mof_N 	N 	0.6961	0.1063	0.6786	-0.147
Mof_N 	N 	0.7257	0.9715	0.7303	-0.072
Mof_N 	N 	0.6819	0.9116	0.8256	-0.161
Mof_Cd	Cd	0.7512	0.2472	0.6955	0.445
Mof_O 	O 	0.7509	0.25	0.904	-0.245
Mof_C 	C 	0.1253	0.5208	0.8288	0.15
Mof_C 	C 	0.061	0.5083	0.918	-0.041
Mof_C 	C 	0.0372	0.6469	0.9859	0.02
Mof_H 	H 	0.0622	0.745	0.9774	0.04
Mof_C 	C 	0.9754	0.6361	0.0667	-0.095
Mof_H 	H 	0.9589	0.7283	0.1107	0.058
Mof_N 	N 	0.1329	0.6442	0.7407	-0.1
Mof_N 	N 	0.1961	0.6063	0.6786	-0.147
Mof_N 	N 	0.2257	0.4715	0.7303	-0.071
Mof_N 	N 	0.1819	0.4116	0.8256	-0.16
Mof_Cd	Cd	0.2512	0.7472	0.6955	0.444
Mof_O 	O 	0.2509	0.75	0.904	-0.244
Mof_C 	C 	0.6253	0.9792	0.3288	0.135
Mof_C 	C 	0.561	0.9917	0.418	-0.014
Mof_C 	C 	0.5372	0.8531	0.4859	-0.031
Mof_H 	H 	0.5622	0.755	0.4774	0.052
Mof_C 	C 	0.4754	0.8639	0.5667	-0.045
Mof_H 	H 	0.4589	0.7717	0.6107	0.044
Mof_N 	N 	0.6329	0.8558	0.2407	-0.099
Mof_N 	N 	0.6961	0.8937	0.1786	-0.151
Mof_N 	N 	0.7257	0.0285	0.2303	-0.071
Mof_N 	N 	0.6819	0.0884	0.3256	-0.16
Mof_Cd	Cd	0.7512	0.7528	0.1955	0.449
Mof_O 	O 	0.7509	0.75	0.404	-0.29
Mof_C 	C 	0.1253	0.4792	0.3288	0.131
Mof_C 	C 	0.061	0.4917	0.418	0.003
Mof_C 	C 	0.0372	0.3531	0.4859	-0.054
Mof_H 	H 	0.0622	0.255	0.4774	0.059
Mof_C 	C 	0.9754	0.3639	0.5667	-0.02
Mof_H 	H 	0.9589	0.2717	0.6107	0.038
Mof_N 	N 	0.1329	0.3558	0.2407	-0.099
Mof_N 	N 	0.1961	0.3937	0.1786	-0.15
Mof_N 	N 	0.2257	0.5285	0.2303	-0.073
Mof_N 	N 	0.1819	0.5884	0.3256	-0.161
Mof_Cd	Cd	0.2512	0.2528	0.1955	0.448
Mof_O 	O 	0.2509	0.25	0.404	-0.29
Mof_C 	C 	0.3747	0.9792	0.1712	0.119
Mof_C 	C 	0.439	0.9917	0.082	0.032
Mof_C 	C 	0.4628	0.8531	0.0141	-0.108
Mof_H 	H 	0.4378	0.755	0.0226	0.072
Mof_C 	C 	0.5246	0.8639	0.9333	0.033
Mof_H 	H 	0.5411	0.7717	0.8893	0.022
Mof_N 	N 	0.3671	0.8558	0.2593	-0.095
Mof_N 	N 	0.3039	0.8937	0.3214	-0.148
Mof_N 	N 	0.2743	0.0285	0.2697	-0.071
Mof_N 	N 	0.3181	0.0884	0.1744	-0.158
Mof_Cd	Cd	0.2488	0.7528	0.3045	0.441
Mof_O 	O 	0.2491	0.75	0.096	-0.265
Mof_C 	C 	0.8747	0.4792	0.1712	0.123
Mof_C 	C 	0.939	0.4917	0.082	0.027
Mof_C 	C 	0.9628	0.3531	0.0141	-0.092
Mof_H 	H 	0.9378	0.255	0.0226	0.069
Mof_C 	C 	0.0246	0.3639	0.9333	0.018
Mof_H 	H 	0.0411	0.2717	0.8893	0.026
Mof_N 	N 	0.8671	0.3558	0.2593	-0.095
Mof_N 	N 	0.8039	0.3937	0.3214	-0.147
Mof_N 	N 	0.7743	0.5285	0.2697	-0.072
Mof_N 	N 	0.8181	0.5884	0.1744	-0.16
Mof_Cd	Cd	0.7488	0.2528	0.3045	0.442
Mof_O 	O 	0.7491	0.25	0.096	-0.265
Mof_Cd	Cd	0.25	0.25	-0	0.099
Mof_Cd	Cd	0.75	0.25	0.5	0.122
Mof_Cd	Cd	0.75	0.75	-0	0.097
Mof_Cd	Cd	0.25	0.75	0.5	0.121
Mof_O 	O 	0.25	0.25	0.5	0.219
Mof_O 	O 	0.75	0.25	-0	0.162
Mof_O 	O 	0.75	0.75	0.5	0.219
Mof_O 	O 	0.25	0.75	-0	0.159
_end
