data_functionalizedCrystal
_audit_creation_method	'EQeq! by Chris Wilmer'
_symmetry_space_group_name_H-M	'P1'
_symmetry_Int_Tables_number	1
_symmetry_cell_setting	triclinic
loop_
_symmetry_equiv_pos_as_xyz
  x,y,z
_cell_length_a	23.518
_cell_length_b	13.291
_cell_length_c	22.581
_cell_angle_alpha	90
_cell_angle_beta	106.66
_cell_angle_gamma	90
loop_
_atom_site_label
_atom_site_type_symbol
_atom_site_fract_x
_atom_site_fract_y
_atom_site_fract_z
_atom_site_charge
Mof_Gd	Gd	0.24204	0.60648	0.29352	1.272
Mof_N 	N 	0.2755	0.4362	0.2766	-0.23
Mof_N 	N 	0.281	0.2823	0.2375	-0.232
Mof_N 	N 	0.3432	0.6724	0.3161	-0.235
Mof_N 	N 	0.4245	0.7411	0.3006	-0.227
Mof_N 	N 	0.1448	0.5294	0.2523	-0.238
Mof_N 	N 	0.0613	0.4453	0.2483	-0.232
Mof_N 	N 	0.2848	0.5313	0.3978	-0.23
Mof_N 	N 	0.2844	0.4013	0.4612	-0.242
Mof_N 	N 	0.24	0.6067	0.1818	-0.225
Mof_N 	N 	0.236	0.6514	0.0847	-0.241
Mof_N 	N 	0.1845	0.676	0.3635	-0.223
Mof_N 	N 	0.1221	0.7111	0.4124	-0.197
Mof_H 	H 	0.0907	0.7066	0.426	0.068
Mof_N 	N 	0.432	0.7925	0.1445	-0.233
Mof_N 	N 	0.3492	0.7847	0.0646	-0.24
Mof_C 	C 	0.2464	0.3555	0.2493	0.116
Mof_H 	H 	0.2044	0.3498	0.2389	-0.041
Mof_C 	C 	0.3355	0.3192	0.2607	0.008
Mof_H 	H 	0.3711	0.2865	0.2599	0.011
Mof_C 	C 	0.3793	0.6791	0.281	0.134
Mof_H 	H 	0.3731	0.6416	0.2439	-0.045
Mof_C 	C 	0.3653	0.7416	0.3613	0
Mof_H 	H 	0.3492	0.757	0.3944	0.004
Mof_C 	C 	0.414	0.7849	0.3513	0.007
Mof_H 	H 	0.437	0.837	0.3756	0.007
Mof_C 	C 	0.1192	0.4538	0.273	0.121
Mof_H 	H 	0.1412	0.4085	0.3037	-0.044
Mof_C 	C 	0.0993	0.5721	0.2096	-0.007
Mof_H 	H 	0.1023	0.6274	0.1839	-0.009
Mof_C 	C 	0.0486	0.5239	0.2089	-0.012
Mof_H 	H 	0.0099	0.5424	0.1844	-0.045
Mof_C 	C 	0.2549	0.4608	0.4159	0.122
Mof_H 	H 	0.2135	0.4526	0.3972	-0.053
Mof_C 	C 	0.3319	0.4118	0.2861	0.006
Mof_H 	H 	0.3648	0.4521	0.3072	0.015
Mof_C 	C 	0.3383	0.444	0.4746	0.002
Mof_H 	H 	0.372	0.4215	0.5062	0.01
Mof_C 	C 	0.2642	0.5573	0.097	-0.015
Mof_H 	H 	0.277	0.5181	0.068	0.006
Mof_C 	C 	0.2703	0.5312	0.1568	-0.02
Mof_H 	H 	0.2907	0.4741	0.1779	0.023
Mof_C 	C 	0.2043	0.7552	0.4017	0.021
Mof_H 	H 	0.24	0.7904	0.404	-0.004
Mof_C 	C 	0.1323	0.6538	0.3659	0.099
Mof_H 	H 	0.1057	0.6069	0.3405	-0.044
Mof_C 	C 	0.3383	0.5227	0.4376	0.015
Mof_H 	H 	0.3712	0.5653	0.4395	0.013
Mof_C 	C 	0.4963	0.5632	0.1773	-0.093
Mof_N 	N 	0.4969	0.6083	0.2346	-0.155
Mof_C 	C 	0.5115	0.5402	0.2854	0.272
Mof_C 	C 	0.5202	0.4471	0.2622	-0.033
Mof_N 	N 	0.5096	0.464	0.1952	-0.135
Mof_C 	C 	0.2315	0.6775	0.1404	0.119
Mof_H 	H 	0.2225	0.7445	0.1493	-0.043
Mof_C 	C 	0.1692	0.7776	0.4349	-0.029
Mof_H 	H 	0.1743	0.8269	0.4664	0.019
Mof_C 	C 	0.3811	0.7465	0.1186	0.123
Mof_H 	H 	0.3681	0.6902	0.1371	-0.043
Mof_C 	C 	0.433	0.8681	0.1029	-0.005
Mof_H 	H 	0.464	0.9157	0.1072	0.002
Mof_C 	C 	0.3829	0.8639	0.0554	-0.002
Mof_H 	H 	0.3727	0.9086	0.0211	-0.005
Mof_C 	C 	0.2226	0.5515	0.0847	0.008
Mof_H 	H 	0.2129	0.5086	0.0495	-0.009
Mof_C 	C 	0.2256	0.5248	0.141	0.002
Mof_H 	H 	0.219	0.4583	0.153	0.005
Mof_Gd	Gd	0.74204	0.10648	0.29352	1.271
Mof_N 	N 	0.7755	0.9362	0.2766	-0.237
Mof_N 	N 	0.781	0.7823	0.2375	-0.229
Mof_N 	N 	0.8432	0.1724	0.3161	-0.237
Mof_N 	N 	0.9245	0.2411	0.3006	-0.231
Mof_N 	N 	0.6448	0.0294	0.2523	-0.24
Mof_N 	N 	0.5613	0.9453	0.2483	-0.232
Mof_N 	N 	0.7848	0.0313	0.3978	-0.234
Mof_N 	N 	0.7844	0.9013	0.4612	-0.239
Mof_N 	N 	0.74	0.1067	0.1818	-0.224
Mof_N 	N 	0.736	0.1514	0.0847	-0.241
Mof_N 	N 	0.6845	0.176	0.3635	-0.222
Mof_N 	N 	0.6221	0.2111	0.4124	-0.198
Mof_H 	H 	0.5907	0.2066	0.426	0.11
Mof_N 	N 	0.932	0.2925	0.1445	-0.131
Mof_N 	N 	0.8492	0.2847	0.0646	-0.239
Mof_C 	C 	0.7464	0.8555	0.2493	0.117
Mof_H 	H 	0.7044	0.8498	0.2389	-0.04
Mof_C 	C 	0.8355	0.8192	0.2607	-0.001
Mof_H 	H 	0.8711	0.7865	0.2599	0.043
Mof_C 	C 	0.8793	0.1791	0.281	0.086
Mof_H 	H 	0.8731	0.1416	0.2439	-0.045
Mof_C 	C 	0.8653	0.2416	0.3613	-0
Mof_H 	H 	0.8492	0.257	0.3944	0.008
Mof_C 	C 	0.914	0.2849	0.3513	-0.012
Mof_H 	H 	0.937	0.337	0.3756	0.045
Mof_C 	C 	0.6192	0.9538	0.273	0.13
Mof_H 	H 	0.6412	0.9085	0.3037	-0.051
Mof_C 	C 	0.5993	0.0721	0.2096	0.004
Mof_H 	H 	0.6023	0.1274	0.1839	0.002
Mof_C 	C 	0.5486	0.0239	0.2089	0.004
Mof_H 	H 	0.5099	0.0424	0.1844	0.008
Mof_C 	C 	0.7549	0.9608	0.4159	0.124
Mof_H 	H 	0.7135	0.9526	0.3972	-0.055
Mof_C 	C 	0.8319	0.9118	0.2861	0.032
Mof_H 	H 	0.8648	0.9521	0.3072	-0.008
Mof_C 	C 	0.8383	0.944	0.4746	-0.007
Mof_H 	H 	0.872	0.9215	0.5062	0.055
Mof_C 	C 	0.7642	0.0573	0.097	-0.017
Mof_H 	H 	0.777	0.0181	0.068	0.014
Mof_C 	C 	0.7703	0.0312	0.1568	-0.02
Mof_H 	H 	0.7907	0.9741	0.1779	0.031
Mof_C 	C 	0.7043	0.2552	0.4017	0.02
Mof_H 	H 	0.74	0.2904	0.404	0
Mof_C 	C 	0.6323	0.1538	0.3659	0.123
Mof_H 	H 	0.6057	0.1069	0.3405	-0.028
Mof_C 	C 	0.8383	0.0227	0.4376	0.027
Mof_H 	H 	0.8712	0.0653	0.4395	0.013
Mof_C 	C 	0.9963	0.0632	0.1773	-2.123
Mof_N 	N 	0.9969	0.1083	0.2346	-2.868
Mof_C 	C 	0.0115	0.0402	0.2854	-4.664
Mof_C 	C 	0.0202	0.9471	0.2622	1.998
Mof_N 	N 	0.0096	0.964	0.1952	-0.724
Mof_C 	C 	0.7315	0.1775	0.1404	0.123
Mof_H 	H 	0.7225	0.2445	0.1493	-0.043
Mof_C 	C 	0.6692	0.2776	0.4349	-0.002
Mof_H 	H 	0.6743	0.3269	0.4664	0.024
Mof_C 	C 	0.8811	0.2465	0.1186	0.154
Mof_H 	H 	0.8681	0.1902	0.1371	-0.022
Mof_C 	C 	0.933	0.3681	0.1029	0.012
Mof_H 	H 	0.964	0.4157	0.1072	0.068
Mof_C 	C 	0.8829	0.3639	0.0554	0.018
Mof_H 	H 	0.8727	0.4086	0.0211	0.002
Mof_C 	C 	0.7226	0.0515	0.0847	0.016
Mof_H 	H 	0.7129	0.0086	0.0495	-0.009
Mof_C 	C 	0.7256	0.0248	0.141	-0
Mof_H 	H 	0.719	0.9583	0.153	0.01
Mof_Gd	Gd	0.75796	0.60648	0.20648	1.28
Mof_N 	N 	0.7245	0.4362	0.2234	-0.232
Mof_N 	N 	0.719	0.2823	0.2625	-0.231
Mof_N 	N 	0.6568	0.6724	0.1839	-0.237
Mof_N 	N 	0.5755	0.7411	0.1994	-0.229
Mof_N 	N 	0.8552	0.5294	0.2477	-0.239
Mof_N 	N 	0.9387	0.4453	0.2517	-0.168
Mof_N 	N 	0.7152	0.5313	0.1022	-0.238
Mof_N 	N 	0.7156	0.4013	0.0388	-0.232
Mof_N 	N 	0.76	0.6067	0.3182	-0.226
Mof_N 	N 	0.764	0.6514	0.4153	-0.24
Mof_N 	N 	0.8155	0.676	0.1365	-0.223
Mof_N 	N 	0.8779	0.7111	0.0876	-0.198
Mof_H 	H 	0.9093	0.7066	0.074	0.146
Mof_N 	N 	0.568	0.7925	0.3555	-0.233
Mof_N 	N 	0.6508	0.7847	0.4354	-0.243
Mof_C 	C 	0.7536	0.3555	0.2507	0.115
Mof_H 	H 	0.7956	0.3498	0.2611	-0.035
Mof_C 	C 	0.6645	0.3192	0.2393	0.007
Mof_H 	H 	0.6289	0.2865	0.2401	0.011
Mof_C 	C 	0.6207	0.6791	0.219	0.133
Mof_H 	H 	0.6269	0.6416	0.2561	-0.045
Mof_C 	C 	0.6347	0.7416	0.1387	-0
Mof_H 	H 	0.6508	0.757	0.1056	-0.001
Mof_C 	C 	0.586	0.7849	0.1487	0.005
Mof_H 	H 	0.563	0.837	0.1244	0.004
Mof_C 	C 	0.8808	0.4538	0.227	0.129
Mof_H 	H 	0.8588	0.4085	0.1963	-0.04
Mof_C 	C 	0.9007	0.5721	0.2904	0.023
Mof_H 	H 	0.8977	0.6274	0.3161	0.014
Mof_C 	C 	0.9514	0.5239	0.2911	0.016
Mof_H 	H 	0.9901	0.5424	0.3156	0.079
Mof_C 	C 	0.7451	0.4608	0.0841	0.12
Mof_H 	H 	0.7865	0.4526	0.1028	-0.054
Mof_C 	C 	0.6681	0.4118	0.2139	0.007
Mof_H 	H 	0.6352	0.4521	0.1928	0.013
Mof_C 	C 	0.6617	0.444	0.0254	-0.081
Mof_H 	H 	0.628	0.4215	0.9938	0.062
Mof_C 	C 	0.7358	0.5573	0.403	-0.019
Mof_H 	H 	0.723	0.5181	0.432	0.013
Mof_C 	C 	0.7297	0.5312	0.3432	-0.036
Mof_H 	H 	0.7093	0.4741	0.3221	0.029
Mof_C 	C 	0.7957	0.7552	0.0983	0.018
Mof_H 	H 	0.76	0.7904	0.096	-0.001
Mof_C 	C 	0.8677	0.6538	0.1341	0.144
Mof_H 	H 	0.8943	0.6069	0.1595	-0.009
Mof_C 	C 	0.6617	0.5227	0.0624	0.051
Mof_H 	H 	0.6288	0.5653	0.0605	-0.008
Mof_C 	C 	0.5037	0.5632	0.3227	-0.116
Mof_N 	N 	0.5031	0.6083	0.2654	-0.192
Mof_C 	C 	0.4885	0.5402	0.2146	0.214
Mof_C 	C 	0.4798	0.4471	0.2378	-0.004
Mof_N 	N 	0.4904	0.464	0.3048	-0.139
Mof_C 	C 	0.7685	0.6775	0.3596	0.127
Mof_H 	H 	0.7775	0.7445	0.3507	-0.042
Mof_C 	C 	0.8308	0.7776	0.0651	0.019
Mof_H 	H 	0.8257	0.8269	0.0336	0.02
Mof_C 	C 	0.6189	0.7465	0.3814	0.125
Mof_H 	H 	0.6319	0.6902	0.3629	-0.044
Mof_C 	C 	0.567	0.8681	0.3971	-0.003
Mof_H 	H 	0.536	0.9157	0.3928	0.004
Mof_C 	C 	0.6171	0.8639	0.4446	0
Mof_H 	H 	0.6273	0.9086	0.4789	0.003
Mof_C 	C 	0.7774	0.5515	0.4153	0.013
Mof_H 	H 	0.7871	0.5086	0.4505	0.004
Mof_C 	C 	0.7744	0.5248	0.359	0.024
Mof_H 	H 	0.781	0.4583	0.347	0.004
Mof_Gd	Gd	0.25796	0.10648	0.20648	1.277
Mof_N 	N 	0.2245	0.9362	0.2234	-0.226
Mof_N 	N 	0.219	0.7823	0.2625	-0.236
Mof_N 	N 	0.1568	0.1724	0.1839	-0.233
Mof_N 	N 	0.0755	0.2411	0.1994	-0.161
Mof_N 	N 	0.3552	0.0294	0.2477	-0.24
Mof_N 	N 	0.4387	0.9453	0.2517	-0.232
Mof_N 	N 	0.2152	0.0313	0.1022	-0.234
Mof_N 	N 	0.2156	0.9013	0.0388	-0.236
Mof_N 	N 	0.26	0.1067	0.3182	-0.226
Mof_N 	N 	0.264	0.1514	0.4153	-0.24
Mof_N 	N 	0.3155	0.176	0.1365	-0.223
Mof_N 	N 	0.3779	0.2111	0.0876	-0.198
Mof_H 	H 	0.4093	0.2066	0.074	0.103
Mof_N 	N 	0.068	0.2925	0.3555	-0.269
Mof_N 	N 	0.1508	0.2847	0.4354	-0.24
Mof_C 	C 	0.2536	0.8555	0.2507	0.115
Mof_H 	H 	0.2956	0.8498	0.2611	-0.039
Mof_C 	C 	0.1645	0.8192	0.2393	0.017
Mof_H 	H 	0.1289	0.7865	0.2401	-0.021
Mof_C 	C 	0.1207	0.1791	0.219	0.17
Mof_H 	H 	0.1269	0.1416	0.2561	-0.027
Mof_C 	C 	0.1347	0.2416	0.1387	0.006
Mof_H 	H 	0.1508	0.257	0.1056	-0.007
Mof_C 	C 	0.086	0.2849	0.1487	0.019
Mof_H 	H 	0.063	0.337	0.1244	-0.018
Mof_C 	C 	0.3808	0.9538	0.227	0.13
Mof_H 	H 	0.3588	0.9085	0.1963	-0.051
Mof_C 	C 	0.4007	0.0721	0.2904	0.004
Mof_H 	H 	0.3977	0.1274	0.3161	0.004
Mof_C 	C 	0.4514	0.0239	0.2911	0.005
Mof_H 	H 	0.4901	0.0424	0.3156	0.01
Mof_C 	C 	0.2451	0.9608	0.0841	0.12
Mof_H 	H 	0.2865	0.9526	0.1028	-0.054
Mof_C 	C 	0.1681	0.9118	0.2139	-0.019
Mof_H 	H 	0.1352	0.9521	0.1928	0.037
Mof_C 	C 	0.1617	0.944	0.0254	-0.063
Mof_H 	H 	0.128	0.9215	0.9938	0.015
Mof_C 	C 	0.2358	0.0573	0.403	-0.015
Mof_H 	H 	0.223	0.0181	0.432	0.004
Mof_C 	C 	0.2297	0.0312	0.3432	-0.037
Mof_H 	H 	0.2093	0.9741	0.3221	0.022
Mof_C 	C 	0.2957	0.2552	0.0983	0.019
Mof_H 	H 	0.26	0.2904	0.096	-0.005
Mof_C 	C 	0.3677	0.1538	0.1341	0.12
Mof_H 	H 	0.3943	0.1069	0.1595	-0.028
Mof_C 	C 	0.1617	0.0227	0.0624	0.032
Mof_H 	H 	0.1288	0.0653	0.0605	-0.006
Mof_C 	C 	0.0037	0.0632	0.3227	1.962
Mof_N 	N 	0.0031	0.1083	0.2654	2.567
Mof_C 	C 	0.9885	0.0402	0.2146	5.096
Mof_C 	C 	0.9798	0.9471	0.2378	-2.02
Mof_N 	N 	0.9904	0.964	0.3048	0.452
Mof_C 	C 	0.2685	0.1775	0.3596	0.123
Mof_H 	H 	0.2775	0.2445	0.3507	-0.043
Mof_C 	C 	0.3308	0.2776	0.0651	-0.008
Mof_H 	H 	0.3257	0.3269	0.0336	0.015
Mof_C 	C 	0.1189	0.2465	0.3814	0.083
Mof_H 	H 	0.1319	0.1902	0.3629	-0.048
Mof_C 	C 	0.067	0.3681	0.3971	-0.023
Mof_H 	H 	0.036	0.4157	0.3928	-0.046
Mof_C 	C 	0.1171	0.3639	0.4446	-0.016
Mof_H 	H 	0.1273	0.4086	0.4789	-0.005
Mof_C 	C 	0.2774	0.0515	0.4153	0.006
Mof_H 	H 	0.2871	0.0086	0.4505	0.003
Mof_C 	C 	0.2744	0.0248	0.359	0.022
Mof_H 	H 	0.281	0.9583	0.347	0.003
Mof_Gd	Gd	0.75796	0.39352	0.70648	1.281
Mof_N 	N 	0.7245	0.5638	0.7234	-0.232
Mof_N 	N 	0.719	0.7177	0.7625	-0.231
Mof_N 	N 	0.6568	0.3276	0.6839	-0.237
Mof_N 	N 	0.5755	0.2589	0.6994	-0.229
Mof_N 	N 	0.8552	0.4706	0.7477	-0.239
Mof_N 	N 	0.9387	0.5547	0.7517	-0.168
Mof_N 	N 	0.7152	0.4687	0.6022	-0.231
Mof_N 	N 	0.7156	0.5987	0.5388	-0.243
Mof_N 	N 	0.76	0.3933	0.8182	-0.226
Mof_N 	N 	0.764	0.3486	0.9153	-0.226
Mof_N 	N 	0.8155	0.324	0.6365	-0.223
Mof_N 	N 	0.8779	0.2889	0.5876	-0.198
Mof_H 	H 	0.9093	0.2934	0.574	0.152
Mof_N 	N 	0.568	0.2075	0.8555	-0.232
Mof_N 	N 	0.6508	0.2153	0.9354	-0.23
Mof_C 	C 	0.7536	0.6445	0.7507	0.115
Mof_H 	H 	0.7956	0.6502	0.7611	-0.035
Mof_C 	C 	0.6645	0.6808	0.7393	0.008
Mof_H 	H 	0.6289	0.7135	0.7401	0.011
Mof_C 	C 	0.6207	0.3209	0.719	0.133
Mof_H 	H 	0.6269	0.3584	0.7561	-0.044
Mof_C 	C 	0.6347	0.2584	0.6387	0
Mof_H 	H 	0.6508	0.243	0.6056	0.003
Mof_C 	C 	0.586	0.2151	0.6487	0.006
Mof_H 	H 	0.563	0.163	0.6244	0.006
Mof_C 	C 	0.8808	0.5462	0.727	0.13
Mof_H 	H 	0.8588	0.5915	0.6963	-0.04
Mof_C 	C 	0.9007	0.4279	0.7904	0.023
Mof_H 	H 	0.8977	0.3726	0.8161	0.016
Mof_C 	C 	0.9514	0.4761	0.7911	0.017
Mof_H 	H 	0.9901	0.4576	0.8156	0.079
Mof_C 	C 	0.7451	0.5392	0.5841	0.122
Mof_H 	H 	0.7865	0.5474	0.6028	-0.054
Mof_C 	C 	0.6681	0.5882	0.7139	0.007
Mof_H 	H 	0.6352	0.5479	0.6928	0.014
Mof_C 	C 	0.6617	0.556	0.5254	0.002
Mof_H 	H 	0.628	0.5785	0.4938	0.01
Mof_C 	C 	0.7358	0.4427	0.903	-0.021
Mof_H 	H 	0.723	0.4819	0.932	0.022
Mof_C 	C 	0.7297	0.4688	0.8432	-0.037
Mof_H 	H 	0.7093	0.5259	0.8221	0.029
Mof_C 	C 	0.7957	0.2448	0.5983	0.021
Mof_H 	H 	0.76	0.2096	0.596	0.002
Mof_C 	C 	0.8677	0.3462	0.6341	0.147
Mof_H 	H 	0.8943	0.3931	0.6595	-0.009
Mof_C 	C 	0.6617	0.4773	0.5624	0.015
Mof_H 	H 	0.6288	0.4347	0.5605	0.012
Mof_C 	C 	0.5037	0.4368	0.8227	-0.112
Mof_N 	N 	0.5031	0.3917	0.7654	-0.194
Mof_C 	C 	0.4885	0.4598	0.7146	0.205
Mof_C 	C 	0.4798	0.5529	0.7378	-0
Mof_N 	N 	0.4904	0.536	0.8048	-0.139
Mof_C 	C 	0.7685	0.3225	0.8596	0.127
Mof_H 	H 	0.7775	0.2555	0.8507	-0.039
Mof_C 	C 	0.8308	0.2224	0.5651	0.023
Mof_H 	H 	0.8257	0.1731	0.5336	0.029
Mof_C 	C 	0.6189	0.2535	0.8814	0.125
Mof_H 	H 	0.6319	0.3098	0.8629	-0.041
Mof_C 	C 	0.567	0.1319	0.8971	-0
Mof_H 	H 	0.536	0.0843	0.8928	0.006
Mof_C 	C 	0.6171	0.1361	0.9446	0.002
Mof_H 	H 	0.6273	0.0914	0.9789	0.016
Mof_C 	C 	0.7774	0.4485	0.9153	0.014
Mof_H 	H 	0.7871	0.4914	0.9505	0.015
Mof_C 	C 	0.7744	0.4752	0.859	0.028
Mof_H 	H 	0.781	0.5417	0.847	0.004
Mof_Gd	Gd	0.25796	0.89352	0.70648	1.28
Mof_N 	N 	0.2245	0.0638	0.7234	-0.227
Mof_N 	N 	0.219	0.2177	0.7625	-0.236
Mof_N 	N 	0.1568	0.8276	0.6839	-0.232
Mof_N 	N 	0.0755	0.7589	0.6994	-0.162
Mof_N 	N 	0.3552	0.9706	0.7477	-0.239
Mof_N 	N 	0.4387	0.0547	0.7517	-0.233
Mof_N 	N 	0.2152	0.9687	0.6022	-0.227
Mof_N 	N 	0.2156	0.0987	0.5388	-0.247
Mof_N 	N 	0.26	0.8933	0.8182	-0.226
Mof_N 	N 	0.264	0.8486	0.9153	-0.227
Mof_N 	N 	0.3155	0.824	0.6365	-0.223
Mof_N 	N 	0.3779	0.7889	0.5876	-0.198
Mof_H 	H 	0.4093	0.7934	0.574	0.11
Mof_N 	N 	0.068	0.7075	0.8555	-0.268
Mof_N 	N 	0.1508	0.7153	0.9354	-0.227
Mof_C 	C 	0.2536	0.1445	0.7507	0.115
Mof_H 	H 	0.2956	0.1502	0.7611	-0.039
Mof_C 	C 	0.1645	0.1808	0.7393	0.017
Mof_H 	H 	0.1289	0.2135	0.7401	-0.021
Mof_C 	C 	0.1207	0.8209	0.719	0.17
Mof_H 	H 	0.1269	0.8584	0.7561	-0.027
Mof_C 	C 	0.1347	0.7584	0.6387	0.006
Mof_H 	H 	0.1508	0.743	0.6056	-0.003
Mof_C 	C 	0.086	0.7151	0.6487	0.02
Mof_H 	H 	0.063	0.663	0.6244	-0.016
Mof_C 	C 	0.3808	0.0462	0.727	0.129
Mof_H 	H 	0.3588	0.0915	0.6963	-0.051
Mof_C 	C 	0.4007	0.9279	0.7904	0.004
Mof_H 	H 	0.3977	0.8726	0.8161	0.006
Mof_C 	C 	0.4514	0.9761	0.7911	0.007
Mof_H 	H 	0.4901	0.9576	0.8156	0.01
Mof_C 	C 	0.2451	0.0392	0.5841	0.121
Mof_H 	H 	0.2865	0.0474	0.6028	-0.054
Mof_C 	C 	0.1681	0.0882	0.7139	-0.019
Mof_H 	H 	0.1352	0.0479	0.6928	0.037
Mof_C 	C 	0.1617	0.056	0.5254	0.011
Mof_H 	H 	0.128	0.0785	0.4938	-0.033
Mof_C 	C 	0.2358	0.9427	0.903	-0.017
Mof_H 	H 	0.223	0.9819	0.932	0.013
Mof_C 	C 	0.2297	0.9688	0.8432	-0.037
Mof_H 	H 	0.2093	0.0259	0.8221	0.022
Mof_C 	C 	0.2957	0.7448	0.5983	0.021
Mof_H 	H 	0.26	0.7096	0.596	-0.002
Mof_C 	C 	0.3677	0.8462	0.6341	0.123
Mof_H 	H 	0.3943	0.8931	0.6595	-0.028
Mof_C 	C 	0.1617	0.9773	0.5624	0.001
Mof_H 	H 	0.1288	0.9347	0.5605	0.012
Mof_C 	C 	0.0037	0.9368	0.8227	1.963
Mof_N 	N 	0.0031	0.8917	0.7654	2.559
Mof_C 	C 	0.9885	0.9598	0.7146	5.082
Mof_C 	C 	0.9798	0.0529	0.7378	-2.013
Mof_N 	N 	0.9904	0.036	0.8048	0.451
Mof_C 	C 	0.2685	0.8225	0.8596	0.124
Mof_H 	H 	0.2775	0.7555	0.8507	-0.04
Mof_C 	C 	0.3308	0.7224	0.5651	-0.003
Mof_H 	H 	0.3257	0.6731	0.5336	0.024
Mof_C 	C 	0.1189	0.7535	0.8814	0.083
Mof_H 	H 	0.1319	0.8098	0.8629	-0.045
Mof_C 	C 	0.067	0.6319	0.8971	-0.019
Mof_H 	H 	0.036	0.5843	0.8928	-0.043
Mof_C 	C 	0.1171	0.6361	0.9446	-0.014
Mof_H 	H 	0.1273	0.5914	0.9789	0.008
Mof_C 	C 	0.2774	0.9485	0.9153	0.006
Mof_H 	H 	0.2871	0.9914	0.9505	0.014
Mof_C 	C 	0.2744	0.9752	0.859	0.027
Mof_H 	H 	0.281	0.0417	0.847	0.002
Mof_Gd	Gd	0.24204	0.39352	0.79352	1.272
Mof_N 	N 	0.2755	0.5638	0.7766	-0.231
Mof_N 	N 	0.281	0.7177	0.7375	-0.233
Mof_N 	N 	0.3432	0.3276	0.8161	-0.235
Mof_N 	N 	0.4245	0.2589	0.8006	-0.228
Mof_N 	N 	0.1448	0.4706	0.7523	-0.238
Mof_N 	N 	0.0613	0.5547	0.7483	-0.232
Mof_N 	N 	0.2848	0.4687	0.8978	-0.222
Mof_N 	N 	0.2844	0.5987	0.9612	-0.239
Mof_N 	N 	0.24	0.3933	0.6818	-0.226
Mof_N 	N 	0.236	0.3486	0.5847	-0.242
Mof_N 	N 	0.1845	0.324	0.8635	-0.222
Mof_N 	N 	0.1221	0.2889	0.9124	-0.197
Mof_H 	H 	0.0907	0.2934	0.926	0.075
Mof_N 	N 	0.432	0.2075	0.6445	-0.233
Mof_N 	N 	0.3492	0.2153	0.5646	-0.241
Mof_C 	C 	0.2464	0.6445	0.7493	0.117
Mof_H 	H 	0.2044	0.6502	0.7389	-0.041
Mof_C 	C 	0.3355	0.6808	0.7607	0.009
Mof_H 	H 	0.3711	0.7135	0.7599	0.011
Mof_C 	C 	0.3793	0.3209	0.781	0.134
Mof_H 	H 	0.3731	0.3584	0.7439	-0.045
Mof_C 	C 	0.3653	0.2584	0.8613	0.001
Mof_H 	H 	0.3492	0.243	0.8944	0.008
Mof_C 	C 	0.414	0.2151	0.8513	0.009
Mof_H 	H 	0.437	0.163	0.8756	0.01
Mof_C 	C 	0.1192	0.5462	0.773	0.121
Mof_H 	H 	0.1412	0.5915	0.8037	-0.043
Mof_C 	C 	0.0993	0.4279	0.7096	-0.007
Mof_H 	H 	0.1023	0.3726	0.6839	-0.007
Mof_C 	C 	0.0486	0.4761	0.7089	-0.012
Mof_H 	H 	0.0099	0.4576	0.6844	-0.045
Mof_C 	C 	0.2549	0.5392	0.9159	0.123
Mof_H 	H 	0.2135	0.5474	0.8972	-0.049
Mof_C 	C 	0.3319	0.5882	0.7861	0.007
Mof_H 	H 	0.3648	0.5479	0.8072	0.016
Mof_C 	C 	0.3383	0.556	0.9746	0.082
Mof_H 	H 	0.372	0.5785	0.0062	-0.037
Mof_C 	C 	0.2642	0.4427	0.597	-0.015
Mof_H 	H 	0.277	0.4819	0.568	0.012
Mof_C 	C 	0.2703	0.4688	0.6568	-0.025
Mof_H 	H 	0.2907	0.5259	0.6779	0.025
Mof_C 	C 	0.2043	0.2448	0.9017	0.024
Mof_H 	H 	0.24	0.2096	0.904	-0.001
Mof_C 	C 	0.1323	0.3462	0.8659	0.102
Mof_H 	H 	0.1057	0.3931	0.8405	-0.044
Mof_C 	C 	0.3383	0.4773	0.9376	-0.019
Mof_H 	H 	0.3712	0.4347	0.9395	0.033
Mof_C 	C 	0.4963	0.4368	0.6773	-0.086
Mof_N 	N 	0.4969	0.3917	0.7346	-0.151
Mof_C 	C 	0.5115	0.4598	0.7854	0.273
Mof_C 	C 	0.5202	0.5529	0.7622	-0.034
Mof_N 	N 	0.5096	0.536	0.6952	-0.133
Mof_C 	C 	0.2315	0.3225	0.6404	0.12
Mof_H 	H 	0.2225	0.2555	0.6493	-0.044
Mof_C 	C 	0.1692	0.2224	0.9349	-0.024
Mof_H 	H 	0.1743	0.1731	0.9664	0.029
Mof_C 	C 	0.3811	0.2535	0.6186	0.124
Mof_H 	H 	0.3681	0.3098	0.6371	-0.043
Mof_C 	C 	0.433	0.1319	0.6029	-0.003
Mof_H 	H 	0.464	0.0843	0.6072	0.004
Mof_C 	C 	0.3829	0.1361	0.5554	-0
Mof_H 	H 	0.3727	0.0914	0.5211	0.003
Mof_C 	C 	0.2226	0.4485	0.5847	0.007
Mof_H 	H 	0.2129	0.4914	0.5495	-0
Mof_C 	C 	0.2256	0.4752	0.641	0.009
Mof_H 	H 	0.219	0.5417	0.653	0.004
Mof_Gd	Gd	0.74204	0.89352	0.79352	1.274
Mof_N 	N 	0.7755	0.0638	0.7766	-0.237
Mof_N 	N 	0.781	0.2177	0.7375	-0.229
Mof_N 	N 	0.8432	0.8276	0.8161	-0.237
Mof_N 	N 	0.9245	0.7589	0.8006	-0.231
Mof_N 	N 	0.6448	0.9706	0.7523	-0.239
Mof_N 	N 	0.5613	0.0547	0.7483	-0.233
Mof_N 	N 	0.7848	0.9687	0.8978	-0.226
Mof_N 	N 	0.7844	0.0987	0.9612	-0.235
Mof_N 	N 	0.74	0.8933	0.6818	-0.225
Mof_N 	N 	0.736	0.8486	0.5847	-0.241
Mof_N 	N 	0.6845	0.824	0.8635	-0.222
Mof_N 	N 	0.6221	0.7889	0.9124	-0.198
Mof_H 	H 	0.5907	0.7934	0.926	0.117
Mof_N 	N 	0.932	0.7075	0.6445	-0.131
Mof_N 	N 	0.8492	0.7153	0.5646	-0.241
Mof_C 	C 	0.7464	0.1445	0.7493	0.118
Mof_H 	H 	0.7044	0.1502	0.7389	-0.04
Mof_C 	C 	0.8355	0.1808	0.7607	0
Mof_H 	H 	0.8711	0.2135	0.7599	0.043
Mof_C 	C 	0.8793	0.8209	0.781	0.087
Mof_H 	H 	0.8731	0.8584	0.7439	-0.045
Mof_C 	C 	0.8653	0.7584	0.8613	0
Mof_H 	H 	0.8492	0.743	0.8944	0.013
Mof_C 	C 	0.914	0.7151	0.8513	-0.011
Mof_H 	H 	0.937	0.663	0.8756	0.048
Mof_C 	C 	0.6192	0.0462	0.773	0.129
Mof_H 	H 	0.6412	0.0915	0.8037	-0.05
Mof_C 	C 	0.5993	0.9279	0.7096	0.004
Mof_H 	H 	0.6023	0.8726	0.6839	0.004
Mof_C 	C 	0.5486	0.9761	0.7089	0.006
Mof_H 	H 	0.5099	0.9576	0.6844	0.009
Mof_C 	C 	0.7549	0.0392	0.9159	0.124
Mof_H 	H 	0.7135	0.0474	0.8972	-0.051
Mof_C 	C 	0.8319	0.0882	0.7861	0.032
Mof_H 	H 	0.8648	0.0479	0.8072	-0.007
Mof_C 	C 	0.8383	0.056	0.9746	0.072
Mof_H 	H 	0.872	0.0785	0.0062	0.008
Mof_C 	C 	0.7642	0.9427	0.597	-0.018
Mof_H 	H 	0.777	0.9819	0.568	0.02
Mof_C 	C 	0.7703	0.9688	0.6568	-0.023
Mof_H 	H 	0.7907	0.0259	0.6779	0.031
Mof_C 	C 	0.7043	0.7448	0.9017	0.023
Mof_H 	H 	0.74	0.7096	0.904	0.003
Mof_C 	C 	0.6323	0.8462	0.8659	0.127
Mof_H 	H 	0.6057	0.8931	0.8405	-0.028
Mof_C 	C 	0.8383	0.9773	0.9376	-0.006
Mof_H 	H 	0.8712	0.9347	0.9395	0.033
Mof_C 	C 	0.9963	0.9368	0.6773	-2.112
Mof_N 	N 	0.9969	0.8917	0.7346	-2.86
Mof_C 	C 	0.0115	0.9598	0.7854	-4.653
Mof_C 	C 	0.0202	0.0529	0.7622	1.994
Mof_N 	N 	0.0096	0.036	0.6952	-0.724
Mof_C 	C 	0.7315	0.8225	0.6404	0.125
Mof_H 	H 	0.7225	0.7555	0.6493	-0.043
Mof_C 	C 	0.6692	0.7224	0.9349	0.002
Mof_H 	H 	0.6743	0.6731	0.9664	0.033
Mof_C 	C 	0.8811	0.7535	0.6186	0.156
Mof_H 	H 	0.8681	0.8098	0.6371	-0.023
Mof_C 	C 	0.933	0.6319	0.6029	0.014
Mof_H 	H 	0.964	0.5843	0.6072	0.071
Mof_C 	C 	0.8829	0.6361	0.5554	0.02
Mof_H 	H 	0.8727	0.5914	0.5211	0.011
Mof_C 	C 	0.7226	0.9485	0.5847	0.014
Mof_H 	H 	0.7129	0.9914	0.5495	0.001
Mof_C 	C 	0.7256	0.9752	0.641	0.009
Mof_H 	H 	0.719	0.0417	0.653	0.007
Mof_Gd	Gd	0.5	0.79527	0.25	1.309
Mof_Gd	Gd	1.15803e-33	0.29527	0.25	0.963
Mof_Gd	Gd	0.5	0.20473	0.75	1.31
Mof_Gd	Gd	3.36251e-17	0.70473	0.75	0.962
Mof_Gd	Gd	0.25	0.75	-0	1.175
Mof_Gd	Gd	0.75	0.75	0.5	1.261
Mof_Gd	Gd	0.75	0.25	-0	1.19
Mof_Gd	Gd	0.25	0.25	0.5	1.242
_end
