data_functionalizedCrystal
_audit_creation_method	'EQeq! by Chris Wilmer'
_symmetry_space_group_name_H-M	'P1'
_symmetry_Int_Tables_number	1
_symmetry_cell_setting	triclinic
loop_
_symmetry_equiv_pos_as_xyz
  x,y,z
_cell_length_a	18.6011
_cell_length_b	18.6011
_cell_length_c	9.9
_cell_angle_alpha	90
_cell_angle_beta	90
_cell_angle_gamma	120
loop_
_atom_site_label
_atom_site_type_symbol
_atom_site_fract_x
_atom_site_fract_y
_atom_site_fract_z
_atom_site_charge
Mof_C 	C 	0.36806	0.21208	0.3272	0.115
Mof_H 	H 	0.3974	0.2116	0.2514	-0.02
Mof_N 	N 	0.35624	0.27398	0.3581	-0.232
Mof_C 	C 	0.03473	0.54541	0.66053	0.111
Mof_H 	H 	0.06407	0.54493	0.58473	-0.022
Mof_N 	N 	0.02291	0.60731	0.69143	-0.239
Mof_C 	C 	0.70139	0.87875	0.99387	0.119
Mof_H 	H 	0.73073	0.87827	0.91807	-0.016
Mof_N 	N 	0.68957	0.94065	0.02477	-0.226
Mof_C 	C 	0.78792	0.15598	0.3272	0.115
Mof_H 	H 	0.7884	0.1858	0.2514	-0.019
Mof_N 	N 	0.72602	0.08226	0.3581	-0.234
Mof_C 	C 	0.45459	0.48931	0.66053	0.115
Mof_H 	H 	0.45507	0.51913	0.58473	-0.02
Mof_N 	N 	0.39269	0.41559	0.69143	-0.232
Mof_C 	C 	0.12125	0.82265	0.99387	0.123
Mof_H 	H 	0.12173	0.85247	0.91807	-0.021
Mof_N 	N 	0.05935	0.74893	0.02477	-0.24
Mof_C 	C 	0.84402	0.63194	0.3272	0.116
Mof_H 	H 	0.8142	0.6026	0.2514	-0.019
Mof_N 	N 	0.91774	0.64376	0.3581	-0.227
Mof_C 	C 	0.51069	0.96527	0.66053	0.138
Mof_H 	H 	0.48087	0.93593	0.58473	-0.023
Mof_N 	N 	0.58441	0.97709	0.69143	-0.225
Mof_C 	C 	0.17735	0.29861	0.99387	0.115
Mof_H 	H 	0.14753	0.26927	0.91807	-0.023
Mof_N 	N 	0.25107	0.31043	0.02477	-0.233
Mof_C 	C 	0.21208	0.36806	0.1728	0.114
Mof_H 	H 	0.2116	0.3974	0.2486	-0.021
Mof_N 	N 	0.27398	0.35624	0.1419	-0.232
Mof_C 	C 	0.87875	0.70139	0.50613	0.117
Mof_H 	H 	0.87827	0.73073	0.58193	-0.016
Mof_N 	N 	0.94065	0.68957	0.47523	-0.225
Mof_C 	C 	0.54541	0.03473	0.83947	0.11
Mof_H 	H 	0.54493	0.06407	0.91527	-0.022
Mof_N 	N 	0.60731	0.02291	0.80857	-0.24
Mof_C 	C 	0.15598	0.78792	0.1728	0.114
Mof_H 	H 	0.1858	0.7884	0.2486	-0.019
Mof_N 	N 	0.08226	0.72602	0.1419	-0.235
Mof_C 	C 	0.82265	0.12125	0.50613	0.115
Mof_H 	H 	0.85247	0.12173	0.58193	-0.019
Mof_N 	N 	0.74893	0.05935	0.47523	-0.236
Mof_C 	C 	0.48931	0.45459	0.83947	0.115
Mof_H 	H 	0.51913	0.45507	0.91527	-0.02
Mof_N 	N 	0.41559	0.39269	0.80857	-0.232
Mof_C 	C 	0.63194	0.84402	0.1728	0.116
Mof_H 	H 	0.6026	0.8142	0.2486	-0.02
Mof_N 	N 	0.64376	0.91774	0.1419	-0.227
Mof_C 	C 	0.29861	0.17735	0.50613	0.114
Mof_H 	H 	0.26927	0.14753	0.58193	-0.023
Mof_N 	N 	0.31043	0.25107	0.47523	-0.232
Mof_C 	C 	0.96527	0.51069	0.83947	0.135
Mof_H 	H 	0.93593	0.48087	0.91527	-0.023
Mof_N 	N 	0.97709	0.58441	0.80857	-0.226
Mof_C 	C 	0.63194	0.78792	0.6728	0.116
Mof_H 	H 	0.6026	0.7884	0.7486	-0.019
Mof_N 	N 	0.64376	0.72602	0.6419	-0.231
Mof_C 	C 	0.29861	0.12125	0.00613	0.116
Mof_H 	H 	0.26927	0.12173	0.08193	-0.024
Mof_N 	N 	0.31043	0.05935	0.97523	-0.238
Mof_C 	C 	0.96527	0.45459	0.33947	0.138
Mof_H 	H 	0.93593	0.45507	0.41527	-0.023
Mof_N 	N 	0.97709	0.39269	0.30857	-0.225
Mof_C 	C 	0.21208	0.84402	0.6728	0.116
Mof_H 	H 	0.2116	0.8142	0.7486	-0.02
Mof_N 	N 	0.27398	0.91774	0.6419	-0.227
Mof_C 	C 	0.87875	0.17735	0.00613	0.124
Mof_H 	H 	0.87827	0.14753	0.08193	-0.021
Mof_N 	N 	0.94065	0.25107	0.97523	-0.23
Mof_C 	C 	0.54541	0.51069	0.33947	0.115
Mof_H 	H 	0.54493	0.48087	0.41527	-0.02
Mof_N 	N 	0.60731	0.58441	0.30857	-0.232
Mof_C 	C 	0.15598	0.36806	0.6728	0.114
Mof_H 	H 	0.1858	0.3974	0.7486	-0.02
Mof_N 	N 	0.08226	0.35624	0.6419	-0.234
Mof_C 	C 	0.82265	0.70139	0.00613	0.118
Mof_H 	H 	0.85247	0.73073	0.08193	-0.017
Mof_N 	N 	0.74893	0.68957	0.97523	-0.232
Mof_C 	C 	0.48931	0.03473	0.33947	0.111
Mof_H 	H 	0.51913	0.06407	0.41527	-0.022
Mof_N 	N 	0.41559	0.02291	0.30857	-0.239
Mof_C 	C 	0.78792	0.63194	0.8272	0.116
Mof_H 	H 	0.7884	0.6026	0.7514	-0.019
Mof_N 	N 	0.72602	0.64376	0.8581	-0.231
Mof_C 	C 	0.45459	0.96527	0.16053	0.135
Mof_H 	H 	0.45507	0.93593	0.08473	-0.023
Mof_N 	N 	0.39269	0.97709	0.19143	-0.226
Mof_C 	C 	0.12125	0.29861	0.49387	0.113
Mof_H 	H 	0.12173	0.26927	0.41807	-0.023
Mof_N 	N 	0.05935	0.31043	0.52477	-0.237
Mof_C 	C 	0.84402	0.21208	0.8272	0.115
Mof_H 	H 	0.8142	0.2116	0.7514	-0.02
Mof_N 	N 	0.91774	0.27398	0.8581	-0.228
Mof_C 	C 	0.51069	0.54541	0.16053	0.115
Mof_H 	H 	0.48087	0.54493	0.08473	-0.02
Mof_N 	N 	0.58441	0.60731	0.19143	-0.232
Mof_C 	C 	0.17735	0.87875	0.49387	0.116
Mof_H 	H 	0.14753	0.87827	0.41807	-0.019
Mof_N 	N 	0.25107	0.94065	0.52477	-0.226
Mof_C 	C 	0.36806	0.15598	0.8272	0.113
Mof_H 	H 	0.3974	0.1858	0.7514	-0.02
Mof_N 	N 	0.35624	0.08226	0.8581	-0.235
Mof_C 	C 	0.03473	0.48931	0.16053	0.11
Mof_H 	H 	0.06407	0.51913	0.08473	-0.022
Mof_N 	N 	0.02291	0.41559	0.19143	-0.24
Mof_C 	C 	0.70139	0.82265	0.49387	0.116
Mof_H 	H 	0.73073	0.85247	0.41807	-0.017
Mof_N 	N 	0.68957	0.74893	0.52477	-0.231
Mof_Zn	Zn	0.37485	0.37485	0.25	1.228
Mof_Zn	Zn	0.04152	0.70818	0.58333	1.225
Mof_Zn	Zn	0.70818	0.04152	0.91667	1.224
Mof_Zn	Zn	0.62515	0	0.25	1.224
Mof_Zn	Zn	0.29182	0.33333	0.58333	1.228
Mof_Zn	Zn	0.95848	0.66667	0.91667	1.232
Mof_Zn	Zn	-1.62947e-17	0.62515	0.25	1.223
Mof_Zn	Zn	0.66667	0.95848	0.58333	1.233
Mof_Zn	Zn	0.33333	0.29182	0.91667	1.228
Mof_Zn	Zn	0.62515	0.62515	0.75	1.228
Mof_Zn	Zn	0.29182	0.95848	0.08333	1.232
Mof_Zn	Zn	0.95848	0.29182	0.41667	1.233
Mof_Zn	Zn	0.37485	0	0.75	1.223
Mof_Zn	Zn	0.04152	0.33333	0.08333	1.225
Mof_Zn	Zn	0.70818	0.66667	0.41667	1.228
Mof_Zn	Zn	-1.05605e-17	0.37485	0.75	1.223
Mof_Zn	Zn	0.66667	0.70818	0.08333	1.228
Mof_Zn	Zn	0.33333	0.04152	0.41667	1.225
Mof_F 	F 	0.33333	0.40942	0.41667	-0.688
Mof_N 	N 	0.33333	0.14935	0.41667	-0.267
Mof_F 	F 	-4.88842e-17	0.74275	0.75	-0.695
Mof_N 	N 	2.77631e-17	0.48268	0.75	-0.277
Mof_F 	F 	0.59058	0.92392	0.41667	-0.682
Mof_N 	N 	0.85065	0.18399	0.41667	-0.264
Mof_F 	F 	0.25725	0.25725	0.75	-0.69
Mof_N 	N 	0.51732	0.51732	0.75	-0.266
Mof_F 	F 	0.07608	0.66667	0.41667	-0.692
Mof_N 	N 	0.81601	0.66667	0.41667	-0.265
Mof_F 	F 	0.74275	0	0.75	-0.697
Mof_N 	N 	0.48268	0	0.75	-0.279
Mof_F 	F 	0.40942	0.33333	0.08333	-0.688
Mof_N 	N 	0.14935	0.33333	0.08333	-0.268
Mof_F 	F 	0.92392	0.59058	0.08333	-0.68
Mof_N 	N 	0.18399	0.85065	0.08333	-0.267
Mof_F 	F 	0.66667	0.07608	0.08333	-0.69
Mof_N 	N 	0.66667	0.81601	0.08333	-0.266
Mof_F 	F 	0.66667	0.59058	0.58333	-0.688
Mof_N 	N 	0.66667	0.85065	0.58333	-0.263
Mof_F 	F 	0.40942	0.07608	0.58333	-0.692
Mof_N 	N 	0.14935	0.81601	0.58333	-0.266
Mof_F 	F 	0.92392	0.33333	0.58333	-0.682
Mof_N 	N 	0.18399	0.33333	0.58333	-0.266
Mof_F 	F 	0.59058	0.66667	0.91667	-0.688
Mof_N 	N 	0.85065	0.66667	0.91667	-0.264
Mof_F 	F 	0.25725	0	0.25	-0.697
Mof_N 	N 	0.51732	0	0.25	-0.277
Mof_F 	F 	0.07608	0.40942	0.91667	-0.691
Mof_N 	N 	0.81601	0.14935	0.91667	-0.27
Mof_F 	F 	0.74275	0.74275	0.25	-0.686
Mof_N 	N 	0.48268	0.48268	0.25	-0.266
Mof_F 	F 	0.33333	0.92392	0.91667	-0.68
Mof_N 	N 	0.33333	0.18399	0.91667	-0.267
Mof_F 	F 	2.8671e-18	0.25725	0.25	-0.699
Mof_N 	N 	-1.62947e-17	0.51732	0.25	-0.279
_end
