data_functionalizedCrystal
_audit_creation_method	'EQeq! by Chris Wilmer'
_symmetry_space_group_name_H-M	'P1'
_symmetry_Int_Tables_number	1
_symmetry_cell_setting	triclinic
loop_
_symmetry_equiv_pos_as_xyz
  x,y,z
_cell_length_a	35.1302
_cell_length_b	35.1302
_cell_length_c	22.2529
_cell_angle_alpha	90
_cell_angle_beta	90
_cell_angle_gamma	120
loop_
_atom_site_label
_atom_site_type_symbol
_atom_site_fract_x
_atom_site_fract_y
_atom_site_fract_z
_atom_site_charge
Mof_O 	O 	0.36213	0.22034	0.09796	-0.406
Mof_O 	O 	0.38928	0.23404	0.1922	-0.409
Mof_C 	C 	0.38768	0.24498	0.13933	0.366
Mof_C 	C 	0.41907	0.29183	0.12135	-0.132
Mof_C 	C 	0.44685	0.32208	0.1639	0.077
Mof_H 	H 	0.4465	0.3132	0.2034	0.021
Mof_C 	C 	0.47496	0.36521	0.14772	-0.161
Mof_H 	H 	0.4935	0.385	0.1764	0.102
Mof_C 	C 	0.47595	0.37941	0.08991	0.121
Mof_C 	C 	0.44845	0.34919	0.04697	-0.158
Mof_H 	H 	0.4491	0.3581	0.0074	0.089
Mof_C 	C 	0.41994	0.30569	0.06352	0.075
Mof_H 	H 	0.4013	0.2858	0.0349	0.022
Mof_C 	C 	0.5043	0.42639	0.07141	-0.07
Mof_C 	C 	0.48637	0.44605	0.03714	-0.043
Mof_H 	H 	0.4571	0.4294	0.0257	0.045
Mof_C 	C 	0.5917	0.3814	0.1428	-0.002
Mof_C 	C 	0.6134	0.4231	0.035	-0.017
Mof_O 	O 	0.0288	0.55367	0.43129	-0.405
Mof_O 	O 	0.05595	0.56737	0.52553	-0.408
Mof_C 	C 	0.05435	0.57831	0.47266	0.367
Mof_C 	C 	0.08574	0.62516	0.45468	-0.131
Mof_C 	C 	0.11352	0.65541	0.49723	0.078
Mof_H 	H 	0.11317	0.64653	0.53673	0.022
Mof_C 	C 	0.14163	0.69854	0.48105	-0.16
Mof_H 	H 	0.16017	0.71833	0.50973	0.103
Mof_C 	C 	0.14262	0.71274	0.42324	0.122
Mof_C 	C 	0.11512	0.68252	0.3803	-0.157
Mof_H 	H 	0.11577	0.69143	0.34073	0.09
Mof_C 	C 	0.08661	0.63902	0.39685	0.076
Mof_H 	H 	0.06797	0.61913	0.36823	0.023
Mof_C 	C 	0.17097	0.75972	0.40474	-0.069
Mof_C 	C 	0.15304	0.77938	0.37047	-0.042
Mof_H 	H 	0.12377	0.76273	0.35903	0.046
Mof_C 	C 	0.25837	0.71473	0.47613	-0.002
Mof_C 	C 	0.28007	0.75643	0.36833	-0.017
Mof_O 	O 	0.69546	0.88701	0.76463	-0.405
Mof_O 	O 	0.72261	0.90071	0.85887	-0.408
Mof_C 	C 	0.72101	0.91165	0.806	0.367
Mof_C 	C 	0.7524	0.9585	0.78802	-0.131
Mof_C 	C 	0.78018	0.98875	0.83057	0.078
Mof_H 	H 	0.77983	0.97987	0.87007	0.023
Mof_C 	C 	0.80829	0.03188	0.81439	-0.159
Mof_H 	H 	0.82683	0.05167	0.84307	0.103
Mof_C 	C 	0.80928	0.04608	0.75658	0.122
Mof_C 	C 	0.78178	0.01586	0.71364	-0.157
Mof_H 	H 	0.78243	0.02477	0.67407	0.09
Mof_C 	C 	0.75327	0.97236	0.73019	0.075
Mof_H 	H 	0.73463	0.95247	0.70157	0.023
Mof_C 	C 	0.83763	0.09306	0.73808	-0.068
Mof_C 	C 	0.8197	0.11272	0.70381	-0.043
Mof_H 	H 	0.79043	0.09607	0.69237	0.046
Mof_C 	C 	0.92503	0.04807	0.80947	-0.002
Mof_C 	C 	0.94673	0.08977	0.70167	-0.017
Mof_O 	O 	0.77966	0.14179	0.09796	-0.405
Mof_O 	O 	0.76596	0.15524	0.1922	-0.408
Mof_C 	C 	0.75502	0.1427	0.13933	0.367
Mof_C 	C 	0.70817	0.12724	0.12135	-0.131
Mof_C 	C 	0.67792	0.12477	0.1639	0.078
Mof_H 	H 	0.6868	0.1333	0.2034	0.022
Mof_C 	C 	0.63479	0.10975	0.14772	-0.16
Mof_H 	H 	0.615	0.1085	0.1764	0.103
Mof_C 	C 	0.62059	0.09654	0.08991	0.122
Mof_C 	C 	0.65081	0.09926	0.04697	-0.157
Mof_H 	H 	0.6419	0.091	0.0074	0.09
Mof_C 	C 	0.69431	0.11425	0.06352	0.076
Mof_H 	H 	0.7142	0.1155	0.0349	0.023
Mof_C 	C 	0.57361	0.07791	0.07141	-0.069
Mof_C 	C 	0.55395	0.04032	0.03714	-0.042
Mof_H 	H 	0.5706	0.0277	0.0257	0.046
Mof_C 	C 	0.6186	0.2103	0.1428	-0.002
Mof_C 	C 	0.5769	0.1903	0.035	-0.017
Mof_O 	O 	0.44633	0.47512	0.43129	-0.405
Mof_O 	O 	0.43263	0.48857	0.52553	-0.408
Mof_C 	C 	0.42169	0.47603	0.47266	0.367
Mof_C 	C 	0.37484	0.46057	0.45468	-0.131
Mof_C 	C 	0.34459	0.4581	0.49723	0.078
Mof_H 	H 	0.35347	0.46663	0.53673	0.022
Mof_C 	C 	0.30146	0.44308	0.48105	-0.16
Mof_H 	H 	0.28167	0.44183	0.50973	0.103
Mof_C 	C 	0.28726	0.42987	0.42324	0.122
Mof_C 	C 	0.31748	0.43259	0.3803	-0.157
Mof_H 	H 	0.30857	0.42433	0.34073	0.09
Mof_C 	C 	0.36098	0.44758	0.39685	0.076
Mof_H 	H 	0.38087	0.44883	0.36823	0.023
Mof_C 	C 	0.24028	0.41124	0.40474	-0.069
Mof_C 	C 	0.22062	0.37365	0.37047	-0.042
Mof_H 	H 	0.23727	0.36103	0.35903	0.046
Mof_C 	C 	0.28527	0.54363	0.47613	-0.002
Mof_C 	C 	0.24357	0.52363	0.36833	-0.017
Mof_O 	O 	0.11299	0.80846	0.76463	-0.405
Mof_O 	O 	0.09929	0.82191	0.85887	-0.408
Mof_C 	C 	0.08835	0.80937	0.806	0.367
Mof_C 	C 	0.0415	0.79391	0.78802	-0.131
Mof_C 	C 	0.01125	0.79144	0.83057	0.078
Mof_H 	H 	0.02013	0.79997	0.87007	0.023
Mof_C 	C 	0.96812	0.77642	0.81439	-0.159
Mof_H 	H 	0.94833	0.77517	0.84307	0.103
Mof_C 	C 	0.95392	0.76321	0.75658	0.122
Mof_C 	C 	0.98414	0.76593	0.71364	-0.157
Mof_H 	H 	0.97523	0.75767	0.67407	0.09
Mof_C 	C 	0.02764	0.78092	0.73019	0.075
Mof_H 	H 	0.04753	0.78217	0.70157	0.023
Mof_C 	C 	0.90694	0.74458	0.73808	-0.068
Mof_C 	C 	0.88728	0.70699	0.70381	-0.042
Mof_H 	H 	0.90393	0.69437	0.69237	0.046
Mof_C 	C 	0.95193	0.87697	0.80947	-0.002
Mof_C 	C 	0.91023	0.85697	0.70167	-0.017
Mof_O 	O 	0.85821	0.63787	0.09796	-0.405
Mof_O 	O 	0.84476	0.61072	0.1922	-0.408
Mof_C 	C 	0.8573	0.61232	0.13933	0.367
Mof_C 	C 	0.87276	0.58093	0.12135	-0.131
Mof_C 	C 	0.87523	0.55315	0.1639	0.078
Mof_H 	H 	0.8667	0.5535	0.2034	0.022
Mof_C 	C 	0.89025	0.52504	0.14772	-0.16
Mof_H 	H 	0.8915	0.5065	0.1764	0.103
Mof_C 	C 	0.90346	0.52405	0.08991	0.122
Mof_C 	C 	0.90074	0.55155	0.04697	-0.157
Mof_H 	H 	0.909	0.5509	0.0074	0.09
Mof_C 	C 	0.88575	0.58006	0.06352	0.076
Mof_H 	H 	0.8845	0.5987	0.0349	0.023
Mof_C 	C 	0.92209	0.4957	0.07141	-0.069
Mof_C 	C 	0.95968	0.51363	0.03714	-0.042
Mof_H 	H 	0.9723	0.5429	0.0257	0.046
Mof_C 	C 	0.7897	0.4083	0.1428	-0.002
Mof_C 	C 	0.8097	0.3866	0.035	-0.017
Mof_O 	O 	0.52488	0.9712	0.43129	-0.405
Mof_O 	O 	0.51143	0.94405	0.52553	-0.408
Mof_C 	C 	0.52397	0.94565	0.47266	0.367
Mof_C 	C 	0.53943	0.91426	0.45468	-0.131
Mof_C 	C 	0.5419	0.88648	0.49723	0.078
Mof_H 	H 	0.53337	0.88683	0.53673	0.022
Mof_C 	C 	0.55692	0.85837	0.48105	-0.16
Mof_H 	H 	0.55817	0.83983	0.50973	0.103
Mof_C 	C 	0.57013	0.85738	0.42324	0.122
Mof_C 	C 	0.56741	0.88488	0.3803	-0.157
Mof_H 	H 	0.57567	0.88423	0.34073	0.09
Mof_C 	C 	0.55242	0.91339	0.39685	0.076
Mof_H 	H 	0.55117	0.93203	0.36823	0.023
Mof_C 	C 	0.58876	0.82903	0.40474	-0.069
Mof_C 	C 	0.62635	0.84696	0.37047	-0.042
Mof_H 	H 	0.63897	0.87623	0.35903	0.046
Mof_C 	C 	0.45637	0.74163	0.47613	-0.002
Mof_C 	C 	0.47637	0.71993	0.36833	-0.017
Mof_O 	O 	0.19154	0.30454	0.76463	-0.405
Mof_O 	O 	0.17809	0.27739	0.85887	-0.408
Mof_C 	C 	0.19063	0.27899	0.806	0.367
Mof_C 	C 	0.20609	0.2476	0.78802	-0.131
Mof_C 	C 	0.20856	0.21982	0.83057	0.078
Mof_H 	H 	0.20003	0.22017	0.87007	0.022
Mof_C 	C 	0.22358	0.19171	0.81439	-0.16
Mof_H 	H 	0.22483	0.17317	0.84307	0.103
Mof_C 	C 	0.23679	0.19072	0.75658	0.122
Mof_C 	C 	0.23407	0.21822	0.71364	-0.157
Mof_H 	H 	0.24233	0.21757	0.67407	0.09
Mof_C 	C 	0.21908	0.24673	0.73019	0.076
Mof_H 	H 	0.21783	0.26537	0.70157	0.023
Mof_C 	C 	0.25542	0.16237	0.73808	-0.068
Mof_C 	C 	0.29301	0.1803	0.70381	-0.042
Mof_H 	H 	0.30563	0.20957	0.69237	0.046
Mof_C 	C 	0.12303	0.07497	0.80947	-0.002
Mof_C 	C 	0.14303	0.05327	0.70167	-0.017
Mof_O 	O 	0.22034	0.36213	0.90204	-0.405
Mof_O 	O 	0.23404	0.38928	0.8078	-0.408
Mof_C 	C 	0.24498	0.38768	0.86067	0.367
Mof_C 	C 	0.29183	0.41907	0.87865	-0.131
Mof_C 	C 	0.32208	0.44685	0.8361	0.078
Mof_H 	H 	0.3132	0.4465	0.7966	0.022
Mof_C 	C 	0.36521	0.47496	0.85228	-0.16
Mof_H 	H 	0.385	0.4935	0.8236	0.103
Mof_C 	C 	0.37941	0.47595	0.91009	0.122
Mof_C 	C 	0.34919	0.44845	0.95303	-0.157
Mof_H 	H 	0.3581	0.4491	0.9926	0.09
Mof_C 	C 	0.30569	0.41994	0.93648	0.076
Mof_H 	H 	0.2858	0.4013	0.9651	0.023
Mof_C 	C 	0.42639	0.5043	0.92859	-0.069
Mof_C 	C 	0.44605	0.48637	0.96286	-0.042
Mof_H 	H 	0.4294	0.4571	0.9743	0.046
Mof_C 	C 	0.3814	0.5917	0.8572	-0.002
Mof_C 	C 	0.4231	0.6134	0.965	-0.017
Mof_O 	O 	0.88701	0.69546	0.23537	-0.405
Mof_O 	O 	0.90071	0.72261	0.14113	-0.408
Mof_C 	C 	0.91165	0.72101	0.194	0.367
Mof_C 	C 	0.9585	0.7524	0.21198	-0.131
Mof_C 	C 	0.98875	0.78018	0.16943	0.078
Mof_H 	H 	0.97987	0.77983	0.12993	0.023
Mof_C 	C 	0.03188	0.80829	0.18561	-0.159
Mof_H 	H 	0.05167	0.82683	0.15693	0.103
Mof_C 	C 	0.04608	0.80928	0.24342	0.122
Mof_C 	C 	0.01586	0.78178	0.28636	-0.157
Mof_H 	H 	0.02477	0.78243	0.32593	0.09
Mof_C 	C 	0.97236	0.75327	0.26981	0.075
Mof_H 	H 	0.95247	0.73463	0.29843	0.023
Mof_C 	C 	0.09306	0.83763	0.26192	-0.068
Mof_C 	C 	0.11272	0.8197	0.29619	-0.043
Mof_H 	H 	0.09607	0.79043	0.30763	0.046
Mof_C 	C 	0.04807	0.92503	0.19053	-0.002
Mof_C 	C 	0.08977	0.94673	0.29833	-0.017
Mof_O 	O 	0.55367	0.0288	0.56871	-0.405
Mof_O 	O 	0.56737	0.05595	0.47447	-0.408
Mof_C 	C 	0.57831	0.05435	0.52734	0.367
Mof_C 	C 	0.62516	0.08574	0.54532	-0.131
Mof_C 	C 	0.65541	0.11352	0.50277	0.078
Mof_H 	H 	0.64653	0.11317	0.46327	0.022
Mof_C 	C 	0.69854	0.14163	0.51895	-0.16
Mof_H 	H 	0.71833	0.16017	0.49027	0.103
Mof_C 	C 	0.71274	0.14262	0.57676	0.122
Mof_C 	C 	0.68252	0.11512	0.6197	-0.157
Mof_H 	H 	0.69143	0.11577	0.65927	0.09
Mof_C 	C 	0.63902	0.08661	0.60315	0.076
Mof_H 	H 	0.61913	0.06797	0.63177	0.023
Mof_C 	C 	0.75972	0.17097	0.59526	-0.069
Mof_C 	C 	0.77938	0.15304	0.62953	-0.042
Mof_H 	H 	0.76273	0.12377	0.64097	0.046
Mof_C 	C 	0.71473	0.25837	0.52387	-0.002
Mof_C 	C 	0.75643	0.28007	0.63167	-0.017
Mof_O 	O 	0.14179	0.77966	0.90204	-0.405
Mof_O 	O 	0.15524	0.76596	0.8078	-0.408
Mof_C 	C 	0.1427	0.75502	0.86067	0.367
Mof_C 	C 	0.12724	0.70817	0.87865	-0.131
Mof_C 	C 	0.12477	0.67792	0.8361	0.078
Mof_H 	H 	0.1333	0.6868	0.7966	0.022
Mof_C 	C 	0.10975	0.63479	0.85228	-0.16
Mof_H 	H 	0.1085	0.615	0.8236	0.103
Mof_C 	C 	0.09654	0.62059	0.91009	0.122
Mof_C 	C 	0.09926	0.65081	0.95303	-0.157
Mof_H 	H 	0.091	0.6419	0.9926	0.09
Mof_C 	C 	0.11425	0.69431	0.93648	0.076
Mof_H 	H 	0.1155	0.7142	0.9651	0.023
Mof_C 	C 	0.07791	0.57361	0.92859	-0.069
Mof_C 	C 	0.04032	0.55395	0.96286	-0.042
Mof_H 	H 	0.0277	0.5706	0.9743	0.046
Mof_C 	C 	0.2103	0.6186	0.8572	-0.002
Mof_C 	C 	0.1903	0.5769	0.965	-0.017
Mof_O 	O 	0.80846	0.11299	0.23537	-0.405
Mof_O 	O 	0.82191	0.09929	0.14113	-0.408
Mof_C 	C 	0.80937	0.08835	0.194	0.367
Mof_C 	C 	0.79391	0.0415	0.21198	-0.131
Mof_C 	C 	0.79144	0.01125	0.16943	0.078
Mof_H 	H 	0.79997	0.02013	0.12993	0.023
Mof_C 	C 	0.77642	0.96812	0.18561	-0.159
Mof_H 	H 	0.77517	0.94833	0.15693	0.103
Mof_C 	C 	0.76321	0.95392	0.24342	0.122
Mof_C 	C 	0.76593	0.98414	0.28636	-0.157
Mof_H 	H 	0.75767	0.97523	0.32593	0.09
Mof_C 	C 	0.78092	0.02764	0.26981	0.075
Mof_H 	H 	0.78217	0.04753	0.29843	0.023
Mof_C 	C 	0.74458	0.90694	0.26192	-0.068
Mof_C 	C 	0.70699	0.88728	0.29619	-0.042
Mof_H 	H 	0.69437	0.90393	0.30763	0.046
Mof_C 	C 	0.87697	0.95193	0.19053	-0.002
Mof_C 	C 	0.85697	0.91023	0.29833	-0.017
Mof_O 	O 	0.47512	0.44633	0.56871	-0.405
Mof_O 	O 	0.48857	0.43263	0.47447	-0.408
Mof_C 	C 	0.47603	0.42169	0.52734	0.367
Mof_C 	C 	0.46057	0.37484	0.54532	-0.131
Mof_C 	C 	0.4581	0.34459	0.50277	0.078
Mof_H 	H 	0.46663	0.35347	0.46327	0.022
Mof_C 	C 	0.44308	0.30146	0.51895	-0.16
Mof_H 	H 	0.44183	0.28167	0.49027	0.103
Mof_C 	C 	0.42987	0.28726	0.57676	0.122
Mof_C 	C 	0.43259	0.31748	0.6197	-0.157
Mof_H 	H 	0.42433	0.30857	0.65927	0.09
Mof_C 	C 	0.44758	0.36098	0.60315	0.076
Mof_H 	H 	0.44883	0.38087	0.63177	0.023
Mof_C 	C 	0.41124	0.24028	0.59526	-0.069
Mof_C 	C 	0.37365	0.22062	0.62953	-0.042
Mof_H 	H 	0.36103	0.23727	0.64097	0.046
Mof_C 	C 	0.54363	0.28527	0.52387	-0.002
Mof_C 	C 	0.52363	0.24357	0.63167	-0.017
Mof_O 	O 	0.63787	0.85821	0.90204	-0.405
Mof_O 	O 	0.61072	0.84476	0.8078	-0.408
Mof_C 	C 	0.61232	0.8573	0.86067	0.367
Mof_C 	C 	0.58093	0.87276	0.87865	-0.131
Mof_C 	C 	0.55315	0.87523	0.8361	0.078
Mof_H 	H 	0.5535	0.8667	0.7966	0.022
Mof_C 	C 	0.52504	0.89025	0.85228	-0.16
Mof_H 	H 	0.5065	0.8915	0.8236	0.103
Mof_C 	C 	0.52405	0.90346	0.91009	0.122
Mof_C 	C 	0.55155	0.90074	0.95303	-0.157
Mof_H 	H 	0.5509	0.909	0.9926	0.09
Mof_C 	C 	0.58006	0.88575	0.93648	0.076
Mof_H 	H 	0.5987	0.8845	0.9651	0.023
Mof_C 	C 	0.4957	0.92209	0.92859	-0.069
Mof_C 	C 	0.51363	0.95968	0.96286	-0.042
Mof_H 	H 	0.5429	0.9723	0.9743	0.046
Mof_C 	C 	0.4083	0.7897	0.8572	-0.002
Mof_C 	C 	0.3866	0.8097	0.965	-0.017
Mof_O 	O 	0.30454	0.19154	0.23537	-0.405
Mof_O 	O 	0.27739	0.17809	0.14113	-0.408
Mof_C 	C 	0.27899	0.19063	0.194	0.367
Mof_C 	C 	0.2476	0.20609	0.21198	-0.131
Mof_C 	C 	0.21982	0.20856	0.16943	0.078
Mof_H 	H 	0.22017	0.20003	0.12993	0.022
Mof_C 	C 	0.19171	0.22358	0.18561	-0.16
Mof_H 	H 	0.17317	0.22483	0.15693	0.103
Mof_C 	C 	0.19072	0.23679	0.24342	0.122
Mof_C 	C 	0.21822	0.23407	0.28636	-0.157
Mof_H 	H 	0.21757	0.24233	0.32593	0.09
Mof_C 	C 	0.24673	0.21908	0.26981	0.076
Mof_H 	H 	0.26537	0.21783	0.29843	0.023
Mof_C 	C 	0.16237	0.25542	0.26192	-0.068
Mof_C 	C 	0.1803	0.29301	0.29619	-0.042
Mof_H 	H 	0.20957	0.30563	0.30763	0.046
Mof_C 	C 	0.07497	0.12303	0.19053	-0.002
Mof_C 	C 	0.05327	0.14303	0.29833	-0.017
Mof_O 	O 	0.9712	0.52488	0.56871	-0.405
Mof_O 	O 	0.94405	0.51143	0.47447	-0.408
Mof_C 	C 	0.94565	0.52397	0.52734	0.367
Mof_C 	C 	0.91426	0.53943	0.54532	-0.131
Mof_C 	C 	0.88648	0.5419	0.50277	0.078
Mof_H 	H 	0.88683	0.53337	0.46327	0.022
Mof_C 	C 	0.85837	0.55692	0.51895	-0.16
Mof_H 	H 	0.83983	0.55817	0.49027	0.103
Mof_C 	C 	0.85738	0.57013	0.57676	0.122
Mof_C 	C 	0.88488	0.56741	0.6197	-0.157
Mof_H 	H 	0.88423	0.57567	0.65927	0.09
Mof_C 	C 	0.91339	0.55242	0.60315	0.076
Mof_H 	H 	0.93203	0.55117	0.63177	0.023
Mof_C 	C 	0.82903	0.58876	0.59526	-0.069
Mof_C 	C 	0.84696	0.62635	0.62953	-0.042
Mof_H 	H 	0.87623	0.63897	0.64097	0.046
Mof_C 	C 	0.74163	0.45637	0.52387	-0.002
Mof_C 	C 	0.71993	0.47637	0.63167	-0.017
Mof_O 	O 	0.63787	0.77966	0.90204	-0.405
Mof_O 	O 	0.61072	0.76596	0.8078	-0.408
Mof_C 	C 	0.61232	0.75502	0.86067	0.367
Mof_C 	C 	0.58093	0.70817	0.87865	-0.131
Mof_C 	C 	0.55315	0.67792	0.8361	0.078
Mof_H 	H 	0.5535	0.6868	0.7966	0.022
Mof_C 	C 	0.52504	0.63479	0.85228	-0.16
Mof_H 	H 	0.5065	0.615	0.8236	0.103
Mof_C 	C 	0.52405	0.62059	0.91009	0.122
Mof_C 	C 	0.55155	0.65081	0.95303	-0.157
Mof_H 	H 	0.5509	0.6419	0.9926	0.09
Mof_C 	C 	0.58006	0.69431	0.93648	0.076
Mof_H 	H 	0.5987	0.7142	0.9651	0.023
Mof_C 	C 	0.4957	0.57361	0.92859	-0.069
Mof_C 	C 	0.51363	0.55395	0.96286	-0.042
Mof_H 	H 	0.5429	0.5706	0.9743	0.046
Mof_C 	C 	0.4083	0.6186	0.8572	-0.002
Mof_C 	C 	0.3866	0.5769	0.965	-0.017
Mof_O 	O 	0.30454	0.11299	0.23537	-0.405
Mof_O 	O 	0.27739	0.09929	0.14113	-0.408
Mof_C 	C 	0.27899	0.08835	0.194	0.367
Mof_C 	C 	0.2476	0.0415	0.21198	-0.131
Mof_C 	C 	0.21982	0.01125	0.16943	0.078
Mof_H 	H 	0.22017	0.02013	0.12993	0.023
Mof_C 	C 	0.19171	0.96812	0.18561	-0.159
Mof_H 	H 	0.17317	0.94833	0.15693	0.103
Mof_C 	C 	0.19072	0.95392	0.24342	0.122
Mof_C 	C 	0.21822	0.98414	0.28636	-0.157
Mof_H 	H 	0.21757	0.97523	0.32593	0.09
Mof_C 	C 	0.24673	0.02764	0.26981	0.075
Mof_H 	H 	0.26537	0.04753	0.29843	0.023
Mof_C 	C 	0.16237	0.90694	0.26192	-0.068
Mof_C 	C 	0.1803	0.88728	0.29619	-0.043
Mof_H 	H 	0.20957	0.90393	0.30763	0.046
Mof_C 	C 	0.07497	0.95193	0.19053	-0.002
Mof_C 	C 	0.05327	0.91023	0.29833	-0.017
Mof_O 	O 	0.9712	0.44633	0.56871	-0.405
Mof_O 	O 	0.94405	0.43263	0.47447	-0.408
Mof_C 	C 	0.94565	0.42169	0.52734	0.367
Mof_C 	C 	0.91426	0.37484	0.54532	-0.131
Mof_C 	C 	0.88648	0.34459	0.50277	0.078
Mof_H 	H 	0.88683	0.35347	0.46327	0.022
Mof_C 	C 	0.85837	0.30146	0.51895	-0.16
Mof_H 	H 	0.83983	0.28167	0.49027	0.103
Mof_C 	C 	0.85738	0.28726	0.57676	0.122
Mof_C 	C 	0.88488	0.31748	0.6197	-0.157
Mof_H 	H 	0.88423	0.30857	0.65927	0.09
Mof_C 	C 	0.91339	0.36098	0.60315	0.076
Mof_H 	H 	0.93203	0.38087	0.63177	0.023
Mof_C 	C 	0.82903	0.24028	0.59526	-0.069
Mof_C 	C 	0.84696	0.22062	0.62953	-0.042
Mof_H 	H 	0.87623	0.23727	0.64097	0.046
Mof_C 	C 	0.74163	0.28527	0.52387	-0.002
Mof_C 	C 	0.71993	0.24357	0.63167	-0.017
Mof_O 	O 	0.22034	0.85821	0.90204	-0.405
Mof_O 	O 	0.23404	0.84476	0.8078	-0.408
Mof_C 	C 	0.24498	0.8573	0.86067	0.367
Mof_C 	C 	0.29183	0.87276	0.87865	-0.131
Mof_C 	C 	0.32208	0.87523	0.8361	0.078
Mof_H 	H 	0.3132	0.8667	0.7966	0.022
Mof_C 	C 	0.36521	0.89025	0.85228	-0.16
Mof_H 	H 	0.385	0.8915	0.8236	0.103
Mof_C 	C 	0.37941	0.90346	0.91009	0.122
Mof_C 	C 	0.34919	0.90074	0.95303	-0.157
Mof_H 	H 	0.3581	0.909	0.9926	0.09
Mof_C 	C 	0.30569	0.88575	0.93648	0.076
Mof_H 	H 	0.2858	0.8845	0.9651	0.023
Mof_C 	C 	0.42639	0.92209	0.92859	-0.069
Mof_C 	C 	0.44605	0.95968	0.96286	-0.042
Mof_H 	H 	0.4294	0.9723	0.9743	0.046
Mof_C 	C 	0.3814	0.7897	0.8572	-0.002
Mof_C 	C 	0.4231	0.8097	0.965	-0.017
Mof_O 	O 	0.88701	0.19154	0.23537	-0.405
Mof_O 	O 	0.90071	0.17809	0.14113	-0.408
Mof_C 	C 	0.91165	0.19063	0.194	0.367
Mof_C 	C 	0.9585	0.20609	0.21198	-0.131
Mof_C 	C 	0.98875	0.20856	0.16943	0.078
Mof_H 	H 	0.97987	0.20003	0.12993	0.023
Mof_C 	C 	0.03188	0.22358	0.18561	-0.159
Mof_H 	H 	0.05167	0.22483	0.15693	0.103
Mof_C 	C 	0.04608	0.23679	0.24342	0.122
Mof_C 	C 	0.01586	0.23407	0.28636	-0.157
Mof_H 	H 	0.02477	0.24233	0.32593	0.09
Mof_C 	C 	0.97236	0.21908	0.26981	0.075
Mof_H 	H 	0.95247	0.21783	0.29843	0.023
Mof_C 	C 	0.09306	0.25542	0.26192	-0.068
Mof_C 	C 	0.11272	0.29301	0.29619	-0.042
Mof_H 	H 	0.09607	0.30563	0.30763	0.046
Mof_C 	C 	0.04807	0.12303	0.19053	-0.002
Mof_C 	C 	0.08977	0.14303	0.29833	-0.017
Mof_O 	O 	0.55367	0.52488	0.56871	-0.405
Mof_O 	O 	0.56737	0.51143	0.47447	-0.408
Mof_C 	C 	0.57831	0.52397	0.52734	0.367
Mof_C 	C 	0.62516	0.53943	0.54532	-0.131
Mof_C 	C 	0.65541	0.5419	0.50277	0.078
Mof_H 	H 	0.64653	0.53337	0.46327	0.022
Mof_C 	C 	0.69854	0.55692	0.51895	-0.16
Mof_H 	H 	0.71833	0.55817	0.49027	0.103
Mof_C 	C 	0.71274	0.57013	0.57676	0.122
Mof_C 	C 	0.68252	0.56741	0.6197	-0.157
Mof_H 	H 	0.69143	0.57567	0.65927	0.09
Mof_C 	C 	0.63902	0.55242	0.60315	0.076
Mof_H 	H 	0.61913	0.55117	0.63177	0.023
Mof_C 	C 	0.75972	0.58876	0.59526	-0.069
Mof_C 	C 	0.77938	0.62635	0.62953	-0.042
Mof_H 	H 	0.76273	0.63897	0.64097	0.046
Mof_C 	C 	0.71473	0.45637	0.52387	-0.002
Mof_C 	C 	0.75643	0.47637	0.63167	-0.017
Mof_O 	O 	0.14179	0.36213	0.90204	-0.405
Mof_O 	O 	0.15524	0.38928	0.8078	-0.408
Mof_C 	C 	0.1427	0.38768	0.86067	0.367
Mof_C 	C 	0.12724	0.41907	0.87865	-0.131
Mof_C 	C 	0.12477	0.44685	0.8361	0.078
Mof_H 	H 	0.1333	0.4465	0.7966	0.022
Mof_C 	C 	0.10975	0.47496	0.85228	-0.16
Mof_H 	H 	0.1085	0.4935	0.8236	0.103
Mof_C 	C 	0.09654	0.47595	0.91009	0.122
Mof_C 	C 	0.09926	0.44845	0.95303	-0.157
Mof_H 	H 	0.091	0.4491	0.9926	0.09
Mof_C 	C 	0.11425	0.41994	0.93648	0.076
Mof_H 	H 	0.1155	0.4013	0.9651	0.023
Mof_C 	C 	0.07791	0.5043	0.92859	-0.069
Mof_C 	C 	0.04032	0.48637	0.96286	-0.042
Mof_H 	H 	0.0277	0.4571	0.9743	0.046
Mof_C 	C 	0.2103	0.5917	0.8572	-0.002
Mof_C 	C 	0.1903	0.6134	0.965	-0.017
Mof_O 	O 	0.80846	0.69546	0.23537	-0.405
Mof_O 	O 	0.82191	0.72261	0.14113	-0.408
Mof_C 	C 	0.80937	0.72101	0.194	0.367
Mof_C 	C 	0.79391	0.7524	0.21198	-0.131
Mof_C 	C 	0.79144	0.78018	0.16943	0.078
Mof_H 	H 	0.79997	0.77983	0.12993	0.022
Mof_C 	C 	0.77642	0.80829	0.18561	-0.16
Mof_H 	H 	0.77517	0.82683	0.15693	0.103
Mof_C 	C 	0.76321	0.80928	0.24342	0.122
Mof_C 	C 	0.76593	0.78178	0.28636	-0.157
Mof_H 	H 	0.75767	0.78243	0.32593	0.09
Mof_C 	C 	0.78092	0.75327	0.26981	0.076
Mof_H 	H 	0.78217	0.73463	0.29843	0.023
Mof_C 	C 	0.74458	0.83763	0.26192	-0.068
Mof_C 	C 	0.70699	0.8197	0.29619	-0.042
Mof_H 	H 	0.69437	0.79043	0.30763	0.046
Mof_C 	C 	0.87697	0.92503	0.19053	-0.002
Mof_C 	C 	0.85697	0.94673	0.29833	-0.017
Mof_O 	O 	0.47512	0.0288	0.56871	-0.405
Mof_O 	O 	0.48857	0.05595	0.47447	-0.408
Mof_C 	C 	0.47603	0.05435	0.52734	0.367
Mof_C 	C 	0.46057	0.08574	0.54532	-0.131
Mof_C 	C 	0.4581	0.11352	0.50277	0.078
Mof_H 	H 	0.46663	0.11317	0.46327	0.022
Mof_C 	C 	0.44308	0.14163	0.51895	-0.16
Mof_H 	H 	0.44183	0.16017	0.49027	0.103
Mof_C 	C 	0.42987	0.14262	0.57676	0.122
Mof_C 	C 	0.43259	0.11512	0.6197	-0.157
Mof_H 	H 	0.42433	0.11577	0.65927	0.09
Mof_C 	C 	0.44758	0.08661	0.60315	0.076
Mof_H 	H 	0.44883	0.06797	0.63177	0.023
Mof_C 	C 	0.41124	0.17097	0.59526	-0.069
Mof_C 	C 	0.37365	0.15304	0.62953	-0.042
Mof_H 	H 	0.36103	0.12377	0.64097	0.046
Mof_C 	C 	0.54363	0.25837	0.52387	-0.002
Mof_C 	C 	0.52363	0.28007	0.63167	-0.017
Mof_O 	O 	0.77966	0.63787	0.09796	-0.405
Mof_O 	O 	0.76596	0.61072	0.1922	-0.408
Mof_C 	C 	0.75502	0.61232	0.13933	0.367
Mof_C 	C 	0.70817	0.58093	0.12135	-0.131
Mof_C 	C 	0.67792	0.55315	0.1639	0.078
Mof_H 	H 	0.6868	0.5535	0.2034	0.022
Mof_C 	C 	0.63479	0.52504	0.14772	-0.16
Mof_H 	H 	0.615	0.5065	0.1764	0.103
Mof_C 	C 	0.62059	0.52405	0.08991	0.122
Mof_C 	C 	0.65081	0.55155	0.04697	-0.157
Mof_H 	H 	0.6419	0.5509	0.0074	0.09
Mof_C 	C 	0.69431	0.58006	0.06352	0.076
Mof_H 	H 	0.7142	0.5987	0.0349	0.023
Mof_C 	C 	0.57361	0.4957	0.07141	-0.069
Mof_C 	C 	0.55395	0.51363	0.03714	-0.042
Mof_H 	H 	0.5706	0.5429	0.0257	0.046
Mof_C 	C 	0.6186	0.4083	0.1428	-0.002
Mof_C 	C 	0.5769	0.3866	0.035	-0.017
Mof_O 	O 	0.44633	0.9712	0.43129	-0.405
Mof_O 	O 	0.43263	0.94405	0.52553	-0.408
Mof_C 	C 	0.42169	0.94565	0.47266	0.367
Mof_C 	C 	0.37484	0.91426	0.45468	-0.131
Mof_C 	C 	0.34459	0.88648	0.49723	0.078
Mof_H 	H 	0.35347	0.88683	0.53673	0.022
Mof_C 	C 	0.30146	0.85837	0.48105	-0.16
Mof_H 	H 	0.28167	0.83983	0.50973	0.103
Mof_C 	C 	0.28726	0.85738	0.42324	0.122
Mof_C 	C 	0.31748	0.88488	0.3803	-0.157
Mof_H 	H 	0.30857	0.88423	0.34073	0.09
Mof_C 	C 	0.36098	0.91339	0.39685	0.076
Mof_H 	H 	0.38087	0.93203	0.36823	0.023
Mof_C 	C 	0.24028	0.82903	0.40474	-0.069
Mof_C 	C 	0.22062	0.84696	0.37047	-0.042
Mof_H 	H 	0.23727	0.87623	0.35903	0.046
Mof_C 	C 	0.28527	0.74163	0.47613	-0.002
Mof_C 	C 	0.24357	0.71993	0.36833	-0.017
Mof_O 	O 	0.11299	0.30454	0.76463	-0.405
Mof_O 	O 	0.09929	0.27739	0.85887	-0.408
Mof_C 	C 	0.08835	0.27899	0.806	0.367
Mof_C 	C 	0.0415	0.2476	0.78802	-0.131
Mof_C 	C 	0.01125	0.21982	0.83057	0.078
Mof_H 	H 	0.02013	0.22017	0.87007	0.023
Mof_C 	C 	0.96812	0.19171	0.81439	-0.159
Mof_H 	H 	0.94833	0.17317	0.84307	0.103
Mof_C 	C 	0.95392	0.19072	0.75658	0.122
Mof_C 	C 	0.98414	0.21822	0.71364	-0.157
Mof_H 	H 	0.97523	0.21757	0.67407	0.09
Mof_C 	C 	0.02764	0.24673	0.73019	0.075
Mof_H 	H 	0.04753	0.26537	0.70157	0.023
Mof_C 	C 	0.90694	0.16237	0.73808	-0.068
Mof_C 	C 	0.88728	0.1803	0.70381	-0.043
Mof_H 	H 	0.90393	0.20957	0.69237	0.046
Mof_C 	C 	0.95193	0.07497	0.80947	-0.002
Mof_C 	C 	0.91023	0.05327	0.70167	-0.017
Mof_O 	O 	0.85821	0.22034	0.09796	-0.405
Mof_O 	O 	0.84476	0.23404	0.1922	-0.408
Mof_C 	C 	0.8573	0.24498	0.13933	0.367
Mof_C 	C 	0.87276	0.29183	0.12135	-0.131
Mof_C 	C 	0.87523	0.32208	0.1639	0.078
Mof_H 	H 	0.8667	0.3132	0.2034	0.022
Mof_C 	C 	0.89025	0.36521	0.14772	-0.16
Mof_H 	H 	0.8915	0.385	0.1764	0.103
Mof_C 	C 	0.90346	0.37941	0.08991	0.122
Mof_C 	C 	0.90074	0.34919	0.04697	-0.157
Mof_H 	H 	0.909	0.3581	0.0074	0.09
Mof_C 	C 	0.88575	0.30569	0.06352	0.076
Mof_H 	H 	0.8845	0.2858	0.0349	0.023
Mof_C 	C 	0.92209	0.42639	0.07141	-0.069
Mof_C 	C 	0.95968	0.44605	0.03714	-0.042
Mof_H 	H 	0.9723	0.4294	0.0257	0.046
Mof_C 	C 	0.7897	0.3814	0.1428	-0.002
Mof_C 	C 	0.8097	0.4231	0.035	-0.017
Mof_O 	O 	0.52488	0.55367	0.43129	-0.405
Mof_O 	O 	0.51143	0.56737	0.52553	-0.408
Mof_C 	C 	0.52397	0.57831	0.47266	0.367
Mof_C 	C 	0.53943	0.62516	0.45468	-0.131
Mof_C 	C 	0.5419	0.65541	0.49723	0.078
Mof_H 	H 	0.53337	0.64653	0.53673	0.022
Mof_C 	C 	0.55692	0.69854	0.48105	-0.16
Mof_H 	H 	0.55817	0.71833	0.50973	0.103
Mof_C 	C 	0.57013	0.71274	0.42324	0.122
Mof_C 	C 	0.56741	0.68252	0.3803	-0.157
Mof_H 	H 	0.57567	0.69143	0.34073	0.09
Mof_C 	C 	0.55242	0.63902	0.39685	0.076
Mof_H 	H 	0.55117	0.61913	0.36823	0.023
Mof_C 	C 	0.58876	0.75972	0.40474	-0.069
Mof_C 	C 	0.62635	0.77938	0.37047	-0.042
Mof_H 	H 	0.63897	0.76273	0.35903	0.046
Mof_C 	C 	0.45637	0.71473	0.47613	-0.002
Mof_C 	C 	0.47637	0.75643	0.36833	-0.017
Mof_O 	O 	0.19154	0.88701	0.76463	-0.405
Mof_O 	O 	0.17809	0.90071	0.85887	-0.408
Mof_C 	C 	0.19063	0.91165	0.806	0.367
Mof_C 	C 	0.20609	0.9585	0.78802	-0.131
Mof_C 	C 	0.20856	0.98875	0.83057	0.078
Mof_H 	H 	0.20003	0.97987	0.87007	0.023
Mof_C 	C 	0.22358	0.03188	0.81439	-0.159
Mof_H 	H 	0.22483	0.05167	0.84307	0.103
Mof_C 	C 	0.23679	0.04608	0.75658	0.122
Mof_C 	C 	0.23407	0.01586	0.71364	-0.157
Mof_H 	H 	0.24233	0.02477	0.67407	0.09
Mof_C 	C 	0.21908	0.97236	0.73019	0.075
Mof_H 	H 	0.21783	0.95247	0.70157	0.023
Mof_C 	C 	0.25542	0.09306	0.73808	-0.068
Mof_C 	C 	0.29301	0.11272	0.70381	-0.042
Mof_H 	H 	0.30563	0.09607	0.69237	0.046
Mof_C 	C 	0.12303	0.04807	0.80947	-0.002
Mof_C 	C 	0.14303	0.08977	0.70167	-0.017
Mof_O 	O 	0.36213	0.14179	0.09796	-0.405
Mof_O 	O 	0.38928	0.15524	0.1922	-0.408
Mof_C 	C 	0.38768	0.1427	0.13933	0.367
Mof_C 	C 	0.41907	0.12724	0.12135	-0.131
Mof_C 	C 	0.44685	0.12477	0.1639	0.078
Mof_H 	H 	0.4465	0.1333	0.2034	0.022
Mof_C 	C 	0.47496	0.10975	0.14772	-0.16
Mof_H 	H 	0.4935	0.1085	0.1764	0.103
Mof_C 	C 	0.47595	0.09654	0.08991	0.122
Mof_C 	C 	0.44845	0.09926	0.04697	-0.157
Mof_H 	H 	0.4491	0.091	0.0074	0.09
Mof_C 	C 	0.41994	0.11425	0.06352	0.076
Mof_H 	H 	0.4013	0.1155	0.0349	0.023
Mof_C 	C 	0.5043	0.07791	0.07141	-0.069
Mof_C 	C 	0.48637	0.04032	0.03714	-0.042
Mof_H 	H 	0.4571	0.0277	0.0257	0.046
Mof_C 	C 	0.5917	0.2103	0.1428	-0.002
Mof_C 	C 	0.6134	0.1903	0.035	-0.017
Mof_O 	O 	0.0288	0.47512	0.43129	-0.405
Mof_O 	O 	0.05595	0.48857	0.52553	-0.408
Mof_C 	C 	0.05435	0.47603	0.47266	0.367
Mof_C 	C 	0.08574	0.46057	0.45468	-0.131
Mof_C 	C 	0.11352	0.4581	0.49723	0.078
Mof_H 	H 	0.11317	0.46663	0.53673	0.022
Mof_C 	C 	0.14163	0.44308	0.48105	-0.16
Mof_H 	H 	0.16017	0.44183	0.50973	0.103
Mof_C 	C 	0.14262	0.42987	0.42324	0.122
Mof_C 	C 	0.11512	0.43259	0.3803	-0.157
Mof_H 	H 	0.11577	0.42433	0.34073	0.09
Mof_C 	C 	0.08661	0.44758	0.39685	0.076
Mof_H 	H 	0.06797	0.44883	0.36823	0.023
Mof_C 	C 	0.17097	0.41124	0.40474	-0.069
Mof_C 	C 	0.15304	0.37365	0.37047	-0.042
Mof_H 	H 	0.12377	0.36103	0.35903	0.046
Mof_C 	C 	0.25837	0.54363	0.47613	-0.002
Mof_C 	C 	0.28007	0.52363	0.36833	-0.017
Mof_O 	O 	0.69546	0.80846	0.76463	-0.405
Mof_O 	O 	0.72261	0.82191	0.85887	-0.408
Mof_C 	C 	0.72101	0.80937	0.806	0.367
Mof_C 	C 	0.7524	0.79391	0.78802	-0.131
Mof_C 	C 	0.78018	0.79144	0.83057	0.078
Mof_H 	H 	0.77983	0.79997	0.87007	0.022
Mof_C 	C 	0.80829	0.77642	0.81439	-0.16
Mof_H 	H 	0.82683	0.77517	0.84307	0.103
Mof_C 	C 	0.80928	0.76321	0.75658	0.122
Mof_C 	C 	0.78178	0.76593	0.71364	-0.157
Mof_H 	H 	0.78243	0.75767	0.67407	0.09
Mof_C 	C 	0.75327	0.78092	0.73019	0.076
Mof_H 	H 	0.73463	0.78217	0.70157	0.023
Mof_C 	C 	0.83763	0.74458	0.73808	-0.068
Mof_C 	C 	0.8197	0.70699	0.70381	-0.042
Mof_H 	H 	0.79043	0.69437	0.69237	0.046
Mof_C 	C 	0.92503	0.87697	0.80947	-0.002
Mof_C 	C 	0.94673	0.85697	0.70167	-0.017
Mof_Cu	Cu	0.31757	0.15878	0.1113	0.904
Mof_Cu	Cu	0.98424	0.49212	0.44463	0.904
Mof_Cu	Cu	0.6509	0.82545	0.77797	0.904
Mof_Cu	Cu	0.84122	0.15878	0.1113	0.904
Mof_Cu	Cu	0.50788	0.49212	0.44463	0.904
Mof_Cu	Cu	0.17455	0.82545	0.77797	0.904
Mof_Cu	Cu	0.84122	0.68243	0.1113	0.904
Mof_Cu	Cu	0.50788	0.01576	0.44463	0.904
Mof_Cu	Cu	0.17455	0.3491	0.77797	0.904
Mof_Cu	Cu	0.15878	0.31757	0.8887	0.904
Mof_Cu	Cu	0.82545	0.6509	0.22203	0.904
Mof_Cu	Cu	0.49212	0.98424	0.55537	0.904
Mof_Cu	Cu	0.15878	0.84122	0.8887	0.904
Mof_Cu	Cu	0.82545	0.17455	0.22203	0.904
Mof_Cu	Cu	0.49212	0.50788	0.55537	0.904
Mof_Cu	Cu	0.68243	0.84122	0.8887	0.904
Mof_Cu	Cu	0.3491	0.17455	0.22203	0.904
Mof_Cu	Cu	0.01576	0.50788	0.55537	0.904
Mof_O 	O 	0.56732	0.43268	0.12372	-0.22
Mof_C 	C 	0.51019	0.48981	0.01881	0.008
Mof_C 	C 	0.54859	0.45141	0.089	0.141
Mof_C 	C 	0.58854	0.41146	0.0909	0.095
Mof_O 	O 	0.23399	0.76601	0.45705	-0.22
Mof_C 	C 	0.17686	0.82314	0.35214	0.008
Mof_C 	C 	0.21526	0.78474	0.42233	0.141
Mof_C 	C 	0.25521	0.74479	0.42423	0.095
Mof_O 	O 	0.90065	0.09935	0.79039	-0.22
Mof_C 	C 	0.84352	0.15648	0.68548	0.008
Mof_C 	C 	0.88192	0.11808	0.75567	0.141
Mof_C 	C 	0.92187	0.07813	0.75757	0.095
Mof_O 	O 	0.56732	0.13464	0.12372	-0.22
Mof_C 	C 	0.51019	0.02038	0.01881	0.008
Mof_C 	C 	0.54859	0.09718	0.089	0.141
Mof_C 	C 	0.58854	0.17708	0.0909	0.095
Mof_O 	O 	0.23399	0.46797	0.45705	-0.22
Mof_C 	C 	0.17686	0.35371	0.35214	0.008
Mof_C 	C 	0.21526	0.43051	0.42233	0.141
Mof_C 	C 	0.25521	0.51041	0.42423	0.095
Mof_O 	O 	0.90065	0.80131	0.79039	-0.22
Mof_C 	C 	0.84352	0.68705	0.68548	0.008
Mof_C 	C 	0.88192	0.76385	0.75567	0.141
Mof_C 	C 	0.92187	0.84375	0.75757	0.095
Mof_O 	O 	0.86536	0.43268	0.12372	-0.22
Mof_C 	C 	0.97962	0.48981	0.01881	0.008
Mof_C 	C 	0.90282	0.45141	0.089	0.141
Mof_C 	C 	0.82292	0.41146	0.0909	0.095
Mof_O 	O 	0.53203	0.76601	0.45705	-0.22
Mof_C 	C 	0.64629	0.82314	0.35214	0.008
Mof_C 	C 	0.56949	0.78474	0.42233	0.141
Mof_C 	C 	0.48959	0.74479	0.42423	0.095
Mof_O 	O 	0.19869	0.09935	0.79039	-0.22
Mof_C 	C 	0.31295	0.15648	0.68548	0.008
Mof_C 	C 	0.23615	0.11808	0.75567	0.141
Mof_C 	C 	0.15625	0.07813	0.75757	0.095
Mof_O 	O 	0.43268	0.56732	0.87628	-0.22
Mof_C 	C 	0.48981	0.51019	0.98119	0.008
Mof_C 	C 	0.45141	0.54859	0.911	0.141
Mof_C 	C 	0.41146	0.58854	0.9091	0.095
Mof_O 	O 	0.09935	0.90065	0.20961	-0.22
Mof_C 	C 	0.15648	0.84352	0.31452	0.008
Mof_C 	C 	0.11808	0.88192	0.24433	0.141
Mof_C 	C 	0.07813	0.92187	0.24243	0.095
Mof_O 	O 	0.76601	0.23399	0.54295	-0.22
Mof_C 	C 	0.82314	0.17686	0.64786	0.008
Mof_C 	C 	0.78474	0.21526	0.57767	0.141
Mof_C 	C 	0.74479	0.25521	0.57577	0.095
Mof_O 	O 	0.13464	0.56732	0.87628	-0.22
Mof_C 	C 	0.02038	0.51019	0.98119	0.008
Mof_C 	C 	0.09718	0.54859	0.911	0.141
Mof_C 	C 	0.17708	0.58854	0.9091	0.095
Mof_O 	O 	0.80131	0.90065	0.20961	-0.22
Mof_C 	C 	0.68705	0.84352	0.31452	0.008
Mof_C 	C 	0.76385	0.88192	0.24433	0.141
Mof_C 	C 	0.84375	0.92187	0.24243	0.095
Mof_O 	O 	0.46797	0.23399	0.54295	-0.22
Mof_C 	C 	0.35371	0.17686	0.64786	0.008
Mof_C 	C 	0.43051	0.21526	0.57767	0.141
Mof_C 	C 	0.51041	0.25521	0.57577	0.095
Mof_O 	O 	0.43268	0.86536	0.87628	-0.22
Mof_C 	C 	0.48981	0.97962	0.98119	0.008
Mof_C 	C 	0.45141	0.90282	0.911	0.141
Mof_C 	C 	0.41146	0.82292	0.9091	0.095
Mof_O 	O 	0.09935	0.19869	0.20961	-0.22
Mof_C 	C 	0.15648	0.31295	0.31452	0.008
Mof_C 	C 	0.11808	0.23615	0.24433	0.141
Mof_C 	C 	0.07813	0.15625	0.24243	0.095
Mof_O 	O 	0.76601	0.53203	0.54295	-0.22
Mof_C 	C 	0.82314	0.64629	0.64786	0.008
Mof_C 	C 	0.78474	0.56949	0.57767	0.141
Mof_C 	C 	0.74479	0.48959	0.57577	0.095
_end
