data_functionalizedCrystal
_audit_creation_method	'EQeq! by Chris Wilmer'
_symmetry_space_group_name_H-M	'P1'
_symmetry_Int_Tables_number	1
_symmetry_cell_setting	triclinic
loop_
_symmetry_equiv_pos_as_xyz
  x,y,z
_cell_length_a	18.3847
_cell_length_b	12.9256
_cell_length_c	14.555
_cell_angle_alpha	90
_cell_angle_beta	120.068
_cell_angle_gamma	90
loop_
_atom_site_label
_atom_site_type_symbol
_atom_site_fract_x
_atom_site_fract_y
_atom_site_fract_z
_atom_site_charge
Mof_Zn	Zn	0.1821	0.51378	0.50182	1.234
Mof_Zn	Zn	0.65449	0.44707	0.25374	1.229
Mof_H 	H 	0.4985	0.3308	0.7152	0.114
Mof_H 	H 	0.4909	0.0746	0.5553	0.116
Mof_H 	H 	0.2896	0.2619	0.4378	0.093
Mof_H 	H 	0.9572	0.2375	0.2373	0.097
Mof_H 	H 	0.7324	0.2728	0.2167	0.091
Mof_H 	H 	0.9308	0.4405	0.4272	0.117
Mof_C 	C 	0.3429	0.4005	0.5935	0.381
Mof_C 	C 	0.3865	0.3092	0.5806	-0.006
Mof_C 	C 	0.4695	0.286	0.6581	-0.179
Mof_C 	C 	0.5095	0.1968	0.6512	0.274
Mof_C 	C 	0.4653	0.134	0.5619	-0.215
Mof_C 	C 	0.3846	0.1574	0.4829	0.029
Mof_C 	C 	0.3407	0.0943	0.382	0.306
Mof_C 	C 	0.3439	0.2457	0.491	-0.064
Mof_C 	C 	0.0474	0.3782	0.3831	0.301
Mof_C 	C 	0.9577	0.3443	0.3402	0.039
Mof_C 	C 	0.9236	0.2694	0.2599	-0.088
Mof_C 	C 	0.8395	0.2432	0.2144	0.031
Mof_C 	C 	0.8034	0.1623	0.1278	0.31
Mof_C 	C 	0.7888	0.2911	0.2476	-0.216
Mof_C 	C 	0.8223	0.3663	0.327	0.256
Mof_C 	C 	0.9076	0.3914	0.3733	-0.215
Mof_O 	O 	0.384	0.4578	0.673	-0.472
Mof_O 	O 	0.2682	0.4141	0.5235	-0.475
Mof_O 	O 	0.5881	0.1771	0.7297	-0.501
Mof_O 	O 	0.3778	0.0118	0.3819	-0.446
Mof_O 	O 	0.2743	0.1239	0.3065	-0.286
Mof_O 	O 	0.0764	0.442	0.4593	-0.429
Mof_O 	O 	0.0885	0.3464	0.3427	-0.262
Mof_O 	O 	0.855	0.1177	0.108	-0.438
Mof_O 	O 	0.7288	0.1405	0.083	-0.292
Mof_O 	O 	0.7725	0.4152	0.3583	-0.647
Mof_H 	H 	0.61953	0.25447	0.74959	0.124
Mof_H 	H 	0.2275	0.66217	0.61422	0.095
Mof_Zn	Zn	0.8179	0.01378	0.99818	1.231
Mof_Zn	Zn	0.34551	0.94707	0.24626	1.229
Mof_H 	H 	0.5015	0.8308	0.7848	0.115
Mof_H 	H 	0.5091	0.5746	0.9447	0.116
Mof_H 	H 	0.7104	0.7619	0.0622	0.094
Mof_H 	H 	0.0428	0.7375	0.2627	0.092
Mof_H 	H 	0.2676	0.7728	0.2833	0.089
Mof_H 	H 	0.0692	0.9405	0.0728	0.112
Mof_C 	C 	0.6571	0.9005	0.9065	0.379
Mof_C 	C 	0.6135	0.8092	0.9194	-0
Mof_C 	C 	0.5305	0.786	0.8419	-0.18
Mof_C 	C 	0.4905	0.6968	0.8488	0.275
Mof_C 	C 	0.5347	0.634	0.9381	-0.213
Mof_C 	C 	0.6154	0.6574	0.0171	0.029
Mof_C 	C 	0.6593	0.5943	0.118	0.307
Mof_C 	C 	0.6561	0.7457	0.009	-0.07
Mof_C 	C 	0.9526	0.8782	0.1169	0.309
Mof_C 	C 	0.0423	0.8443	0.1598	0.028
Mof_C 	C 	0.0764	0.7694	0.2401	-0.082
Mof_C 	C 	0.1605	0.7432	0.2856	0.027
Mof_C 	C 	0.1966	0.6623	0.3722	0.311
Mof_C 	C 	0.2112	0.7911	0.2524	-0.213
Mof_C 	C 	0.1777	0.8663	0.173	0.252
Mof_C 	C 	0.0924	0.8914	0.1267	-0.209
Mof_O 	O 	0.616	0.9578	0.827	-0.468
Mof_O 	O 	0.7318	0.9141	0.9765	-0.471
Mof_O 	O 	0.4119	0.6771	0.7703	-0.5
Mof_O 	O 	0.6222	0.5118	0.1181	-0.448
Mof_O 	O 	0.7257	0.6239	0.1935	-0.288
Mof_O 	O 	0.9236	0.942	0.0407	-0.428
Mof_O 	O 	0.9115	0.8464	0.1573	-0.264
Mof_O 	O 	0.145	0.6177	0.392	-0.443
Mof_O 	O 	0.2712	0.6405	0.417	-0.295
Mof_O 	O 	0.2275	0.9152	0.1417	-0.649
Mof_H 	H 	0.38047	0.75447	0.75041	0.125
Mof_H 	H 	0.7725	0.16217	0.88578	0.094
Mof_Zn	Zn	0.8179	0.48622	0.49818	1.235
Mof_Zn	Zn	0.34551	0.55293	0.74626	1.23
Mof_H 	H 	0.5015	0.6692	0.2848	0.114
Mof_H 	H 	0.5091	0.9254	0.4447	0.116
Mof_H 	H 	0.7104	0.7381	0.5622	0.093
Mof_H 	H 	0.0428	0.7625	0.7627	0.097
Mof_H 	H 	0.2676	0.7272	0.7833	0.091
Mof_H 	H 	0.0692	0.5595	0.5728	0.117
Mof_C 	C 	0.6571	0.5995	0.4065	0.381
Mof_C 	C 	0.6135	0.6908	0.4194	-0.006
Mof_C 	C 	0.5305	0.714	0.3419	-0.179
Mof_C 	C 	0.4905	0.8032	0.3488	0.274
Mof_C 	C 	0.5347	0.866	0.4381	-0.215
Mof_C 	C 	0.6154	0.8426	0.5171	0.029
Mof_C 	C 	0.6593	0.9057	0.618	0.306
Mof_C 	C 	0.6561	0.7543	0.509	-0.064
Mof_C 	C 	0.9526	0.6218	0.6169	0.301
Mof_C 	C 	0.0423	0.6557	0.6598	0.039
Mof_C 	C 	0.0764	0.7306	0.7401	-0.088
Mof_C 	C 	0.1605	0.7568	0.7856	0.031
Mof_C 	C 	0.1966	0.8377	0.8722	0.31
Mof_C 	C 	0.2112	0.7089	0.7524	-0.216
Mof_C 	C 	0.1777	0.6337	0.673	0.256
Mof_C 	C 	0.0924	0.6086	0.6267	-0.215
Mof_O 	O 	0.616	0.5422	0.327	-0.472
Mof_O 	O 	0.7318	0.5859	0.4765	-0.475
Mof_O 	O 	0.4119	0.8229	0.2703	-0.501
Mof_O 	O 	0.6222	0.9882	0.6181	-0.446
Mof_O 	O 	0.7257	0.8761	0.6935	-0.286
Mof_O 	O 	0.9236	0.558	0.5407	-0.429
Mof_O 	O 	0.9115	0.6536	0.6573	-0.262
Mof_O 	O 	0.145	0.8823	0.892	-0.438
Mof_O 	O 	0.2712	0.8595	0.917	-0.292
Mof_O 	O 	0.2275	0.5848	0.6417	-0.647
Mof_H 	H 	0.38047	0.74553	0.25041	0.124
Mof_H 	H 	0.7725	0.33783	0.38578	0.095
Mof_Zn	Zn	0.1821	0.98622	0.00182	1.231
Mof_Zn	Zn	0.65449	0.05293	0.75374	1.229
Mof_H 	H 	0.4985	0.1692	0.2152	0.115
Mof_H 	H 	0.4909	0.4254	0.0553	0.116
Mof_H 	H 	0.2896	0.2381	0.9378	0.094
Mof_H 	H 	0.9572	0.2625	0.7373	0.092
Mof_H 	H 	0.7324	0.2272	0.7167	0.089
Mof_H 	H 	0.9308	0.0595	0.9272	0.112
Mof_C 	C 	0.3429	0.0995	0.0935	0.379
Mof_C 	C 	0.3865	0.1908	0.0806	-0
Mof_C 	C 	0.4695	0.214	0.1581	-0.18
Mof_C 	C 	0.5095	0.3032	0.1512	0.275
Mof_C 	C 	0.4653	0.366	0.0619	-0.213
Mof_C 	C 	0.3846	0.3426	0.9829	0.029
Mof_C 	C 	0.3407	0.4057	0.882	0.307
Mof_C 	C 	0.3439	0.2543	0.991	-0.07
Mof_C 	C 	0.0474	0.1218	0.8831	0.309
Mof_C 	C 	0.9577	0.1557	0.8402	0.028
Mof_C 	C 	0.9236	0.2306	0.7599	-0.082
Mof_C 	C 	0.8395	0.2568	0.7144	0.027
Mof_C 	C 	0.8034	0.3377	0.6278	0.311
Mof_C 	C 	0.7888	0.2089	0.7476	-0.213
Mof_C 	C 	0.8223	0.1337	0.827	0.252
Mof_C 	C 	0.9076	0.1086	0.8733	-0.209
Mof_O 	O 	0.384	0.0422	0.173	-0.468
Mof_O 	O 	0.2682	0.0859	0.0235	-0.471
Mof_O 	O 	0.5881	0.3229	0.2297	-0.5
Mof_O 	O 	0.3778	0.4882	0.8819	-0.448
Mof_O 	O 	0.2743	0.3761	0.8065	-0.288
Mof_O 	O 	0.0764	0.058	0.9593	-0.428
Mof_O 	O 	0.0885	0.1536	0.8427	-0.264
Mof_O 	O 	0.855	0.3823	0.608	-0.443
Mof_O 	O 	0.7288	0.3595	0.583	-0.295
Mof_O 	O 	0.7725	0.0848	0.8583	-0.649
Mof_H 	H 	0.61953	0.24553	0.24959	0.125
Mof_H 	H 	0.2275	0.83783	0.11422	0.094
_end
