data_functionalizedCrystal
_audit_creation_method	'EQeq! by Chris Wilmer'
_symmetry_space_group_name_H-M	'P1'
_symmetry_Int_Tables_number	1
_symmetry_cell_setting	triclinic
loop_
_symmetry_equiv_pos_as_xyz
  x,y,z
_cell_length_a	26.306
_cell_length_b	19.939
_cell_length_c	26.336
_cell_angle_alpha	90
_cell_angle_beta	100.095
_cell_angle_gamma	90
loop_
_atom_site_label
_atom_site_type_symbol
_atom_site_fract_x
_atom_site_fract_y
_atom_site_fract_z
_atom_site_charge
Mof_Zn	Zn	0.09562	0.43164	0.8427	1.192
Mof_Zn	Zn	0.10569	0.1827	0.6413	1.203
Mof_O 	O 	0.3549	0.3984	0.8643	-0.411
Mof_O 	O 	0.2955	0.3147	0.8588	-0.359
Mof_O 	O 	0.0063	0.7357	0.8862	-0.337
Mof_O 	O 	0.9663	0.6426	0.8628	-0.444
Mof_O 	O 	0.107	0.4892	0.7389	-0.327
Mof_O 	O 	0.0974	0.39	0.773	-0.47
Mof_O 	O 	0.105	0.156	0.39	-0.412
Mof_O 	O 	0.0973	0.0707	0.4423	-0.354
Mof_N 	N 	0.1775	0.453	0.8562	-0.213
Mof_C 	C 	0.2188	0.4092	0.8573	0.04
Mof_H 	H 	0.2128	0.3624	0.8529	0.034
Mof_C 	C 	0.269	0.4339	0.8646	-0.062
Mof_C 	C 	0.2779	0.5024	0.8709	0.017
Mof_H 	H 	0.3122	0.5192	0.8759	0.043
Mof_C 	C 	0.2366	0.5461	0.8699	-0.079
Mof_H 	H 	0.2427	0.5929	0.8742	0.059
Mof_C 	C 	0.1864	0.5215	0.8625	0.036
Mof_N 	N 	0.0975	0.5335	0.8556	-0.251
Mof_C 	C 	0.1448	0.5659	0.869	0.064
Mof_C 	C 	0.1464	0.6331	0.8832	-0.102
Mof_H 	H 	0.1787	0.6552	0.8923	0.066
Mof_C 	C 	0.1008	0.668	0.884	0.036
Mof_H 	H 	0.1019	0.7139	0.8937	0.033
Mof_C 	C 	0.0535	0.6356	0.8706	-0.107
Mof_C 	C 	0.0519	0.5684	0.8564	0.066
Mof_H 	H 	0.0196	0.5462	0.8473	-0.007
Mof_N 	N 	0.1099	0.283	0.6438	-0.256
Mof_C 	C 	0.1059	0.3175	0.6888	0.059
Mof_H 	H 	0.1015	0.2935	0.7189	-0.001
Mof_C 	C 	0.1083	0.3872	0.6898	-0.093
Mof_C 	C 	0.1147	0.4223	0.6458	0.031
Mof_H 	H 	0.1163	0.4699	0.6464	0.037
Mof_C 	C 	0.1187	0.3878	0.6008	-0.097
Mof_H 	H 	0.123	0.4119	0.5707	0.065
Mof_C 	C 	0.1163	0.3182	0.5998	0.06
Mof_N 	N 	0.1051	0.2044	0.5635	-0.225
Mof_C 	C 	0.1091	0.2726	0.5538	0.048
Mof_C 	C 	0.1102	0.2948	0.504	-0.094
Mof_H 	H 	0.1129	0.3414	0.4973	0.064
Mof_C 	C 	0.1073	0.2489	0.4639	0.039
Mof_H 	H 	0.108	0.264	0.4298	0.037
Mof_C 	C 	0.1033	0.1807	0.4736	-0.101
Mof_C 	C 	0.1022	0.1585	0.5234	0.066
Mof_H 	H 	0.0995	0.1119	0.5301	0.027
Mof_C 	C 	0.3036	0.368	0.8595	0.294
Mof_C 	C 	0.0065	0.6807	0.8779	0.388
Mof_C 	C 	0.1011	0.4305	0.7387	0.377
Mof_C 	C 	0.1035	0.1275	0.4334	0.335
Mof_Zn	Zn	0.59562	0.93164	0.3427	1.191
Mof_Zn	Zn	0.60569	0.6827	0.1413	1.202
Mof_O 	O 	0.8549	0.8984	0.3643	-0.412
Mof_O 	O 	0.7955	0.8147	0.3588	-0.36
Mof_O 	O 	0.5063	0.2357	0.3862	-0.338
Mof_O 	O 	0.4663	0.1426	0.3628	-0.445
Mof_O 	O 	0.607	0.9892	0.2389	-0.328
Mof_O 	O 	0.5974	0.89	0.273	-0.471
Mof_O 	O 	0.605	0.656	0.89	-0.413
Mof_O 	O 	0.5973	0.5707	0.9423	-0.355
Mof_N 	N 	0.6775	0.953	0.3562	-0.214
Mof_C 	C 	0.7188	0.9092	0.3573	0.039
Mof_H 	H 	0.7128	0.8624	0.3529	0.033
Mof_C 	C 	0.769	0.9339	0.3646	-0.063
Mof_C 	C 	0.7779	0.0024	0.3709	0.016
Mof_H 	H 	0.8122	0.0192	0.3759	0.042
Mof_C 	C 	0.7366	0.0461	0.3699	-0.079
Mof_H 	H 	0.7427	0.0929	0.3742	0.059
Mof_C 	C 	0.6864	0.0215	0.3625	0.036
Mof_N 	N 	0.5975	0.0335	0.3556	-0.251
Mof_C 	C 	0.6448	0.0659	0.369	0.064
Mof_C 	C 	0.6464	0.1331	0.3832	-0.102
Mof_H 	H 	0.6787	0.1552	0.3923	0.066
Mof_C 	C 	0.6008	0.168	0.384	0.036
Mof_H 	H 	0.6019	0.2139	0.3937	0.033
Mof_C 	C 	0.5535	0.1356	0.3706	-0.107
Mof_C 	C 	0.5519	0.0684	0.3564	0.066
Mof_H 	H 	0.5196	0.0462	0.3473	-0.007
Mof_N 	N 	0.6099	0.783	0.1438	-0.256
Mof_C 	C 	0.6059	0.8175	0.1888	0.059
Mof_H 	H 	0.6015	0.7935	0.2189	-0.001
Mof_C 	C 	0.6083	0.8872	0.1898	-0.093
Mof_C 	C 	0.6147	0.9223	0.1458	0.031
Mof_H 	H 	0.6163	0.9699	0.1464	0.037
Mof_C 	C 	0.6187	0.8878	0.1008	-0.097
Mof_H 	H 	0.623	0.9119	0.0707	0.065
Mof_C 	C 	0.6163	0.8182	0.0998	0.06
Mof_N 	N 	0.6051	0.7044	0.0635	-0.225
Mof_C 	C 	0.6091	0.7726	0.0538	0.048
Mof_C 	C 	0.6102	0.7948	0.004	-0.094
Mof_H 	H 	0.6129	0.8414	0.9973	0.064
Mof_C 	C 	0.6073	0.7489	0.9639	0.039
Mof_H 	H 	0.608	0.764	0.9298	0.037
Mof_C 	C 	0.6033	0.6807	0.9736	-0.101
Mof_C 	C 	0.6022	0.6585	0.0234	0.066
Mof_H 	H 	0.5995	0.6119	0.0301	0.027
Mof_C 	C 	0.8036	0.868	0.3595	0.294
Mof_C 	C 	0.5065	0.1807	0.3779	0.388
Mof_C 	C 	0.6011	0.9305	0.2387	0.377
Mof_C 	C 	0.6035	0.6275	0.9334	0.335
Mof_Zn	Zn	0.40438	0.43164	0.1573	1.191
Mof_Zn	Zn	0.39431	0.1827	0.3587	1.202
Mof_O 	O 	0.1451	0.3984	0.1357	-0.412
Mof_O 	O 	0.2045	0.3147	0.1412	-0.36
Mof_O 	O 	0.4937	0.7357	0.1138	-0.338
Mof_O 	O 	0.5337	0.6426	0.1372	-0.445
Mof_O 	O 	0.393	0.4892	0.2611	-0.328
Mof_O 	O 	0.4026	0.39	0.227	-0.471
Mof_O 	O 	0.395	0.156	0.61	-0.413
Mof_O 	O 	0.4027	0.0707	0.5577	-0.355
Mof_N 	N 	0.3225	0.453	0.1438	-0.214
Mof_C 	C 	0.2812	0.4092	0.1427	0.039
Mof_H 	H 	0.2872	0.3624	0.1471	0.033
Mof_C 	C 	0.231	0.4339	0.1354	-0.063
Mof_C 	C 	0.2221	0.5024	0.1291	0.016
Mof_H 	H 	0.1878	0.5192	0.1241	0.042
Mof_C 	C 	0.2634	0.5461	0.1301	-0.079
Mof_H 	H 	0.2573	0.5929	0.1258	0.059
Mof_C 	C 	0.3136	0.5215	0.1375	0.036
Mof_N 	N 	0.4025	0.5335	0.1444	-0.251
Mof_C 	C 	0.3552	0.5659	0.131	0.064
Mof_C 	C 	0.3536	0.6331	0.1168	-0.102
Mof_H 	H 	0.3213	0.6552	0.1077	0.066
Mof_C 	C 	0.3992	0.668	0.116	0.036
Mof_H 	H 	0.3981	0.7139	0.1063	0.033
Mof_C 	C 	0.4465	0.6356	0.1294	-0.107
Mof_C 	C 	0.4481	0.5684	0.1436	0.066
Mof_H 	H 	0.4804	0.5462	0.1527	-0.007
Mof_N 	N 	0.3901	0.283	0.3562	-0.256
Mof_C 	C 	0.3941	0.3175	0.3112	0.059
Mof_H 	H 	0.3985	0.2935	0.2811	-0.001
Mof_C 	C 	0.3917	0.3872	0.3102	-0.093
Mof_C 	C 	0.3853	0.4223	0.3542	0.031
Mof_H 	H 	0.3837	0.4699	0.3536	0.037
Mof_C 	C 	0.3813	0.3878	0.3992	-0.097
Mof_H 	H 	0.377	0.4119	0.4293	0.065
Mof_C 	C 	0.3837	0.3182	0.4002	0.06
Mof_N 	N 	0.3949	0.2044	0.4365	-0.225
Mof_C 	C 	0.3909	0.2726	0.4462	0.048
Mof_C 	C 	0.3898	0.2948	0.496	-0.094
Mof_H 	H 	0.3871	0.3414	0.5027	0.064
Mof_C 	C 	0.3927	0.2489	0.5361	0.039
Mof_H 	H 	0.392	0.264	0.5702	0.037
Mof_C 	C 	0.3967	0.1807	0.5264	-0.101
Mof_C 	C 	0.3978	0.1585	0.4766	0.066
Mof_H 	H 	0.4005	0.1119	0.4699	0.027
Mof_C 	C 	0.1964	0.368	0.1405	0.294
Mof_C 	C 	0.4935	0.6807	0.1221	0.388
Mof_C 	C 	0.3989	0.4305	0.2613	0.377
Mof_C 	C 	0.3965	0.1275	0.5666	0.335
Mof_Zn	Zn	0.90438	0.93164	0.6573	1.191
Mof_Zn	Zn	0.89431	0.6827	0.8587	1.202
Mof_O 	O 	0.6451	0.8984	0.6357	-0.412
Mof_O 	O 	0.7045	0.8147	0.6412	-0.36
Mof_O 	O 	0.9937	0.2357	0.6138	-0.338
Mof_O 	O 	0.0337	0.1426	0.6372	-0.445
Mof_O 	O 	0.893	0.9892	0.7611	-0.328
Mof_O 	O 	0.9026	0.89	0.727	-0.471
Mof_O 	O 	0.895	0.656	0.11	-0.413
Mof_O 	O 	0.9027	0.5707	0.0577	-0.355
Mof_N 	N 	0.8225	0.953	0.6438	-0.214
Mof_C 	C 	0.7812	0.9092	0.6427	0.039
Mof_H 	H 	0.7872	0.8624	0.6471	0.033
Mof_C 	C 	0.731	0.9339	0.6354	-0.063
Mof_C 	C 	0.7221	0.0024	0.6291	0.016
Mof_H 	H 	0.6878	0.0192	0.6241	0.042
Mof_C 	C 	0.7634	0.0461	0.6301	-0.079
Mof_H 	H 	0.7573	0.0929	0.6258	0.059
Mof_C 	C 	0.8136	0.0215	0.6375	0.036
Mof_N 	N 	0.9025	0.0335	0.6444	-0.251
Mof_C 	C 	0.8552	0.0659	0.631	0.064
Mof_C 	C 	0.8536	0.1331	0.6168	-0.102
Mof_H 	H 	0.8213	0.1552	0.6077	0.066
Mof_C 	C 	0.8992	0.168	0.616	0.036
Mof_H 	H 	0.8981	0.2139	0.6063	0.033
Mof_C 	C 	0.9465	0.1356	0.6294	-0.107
Mof_C 	C 	0.9481	0.0684	0.6436	0.066
Mof_H 	H 	0.9804	0.0462	0.6527	-0.007
Mof_N 	N 	0.8901	0.783	0.8562	-0.256
Mof_C 	C 	0.8941	0.8175	0.8112	0.059
Mof_H 	H 	0.8985	0.7935	0.7811	-0.001
Mof_C 	C 	0.8917	0.8872	0.8102	-0.093
Mof_C 	C 	0.8853	0.9223	0.8542	0.031
Mof_H 	H 	0.8837	0.9699	0.8536	0.037
Mof_C 	C 	0.8813	0.8878	0.8992	-0.097
Mof_H 	H 	0.877	0.9119	0.9293	0.065
Mof_C 	C 	0.8837	0.8182	0.9002	0.06
Mof_N 	N 	0.8949	0.7044	0.9365	-0.225
Mof_C 	C 	0.8909	0.7726	0.9462	0.048
Mof_C 	C 	0.8898	0.7948	0.996	-0.094
Mof_H 	H 	0.8871	0.8414	0.0027	0.064
Mof_C 	C 	0.8927	0.7489	0.0361	0.039
Mof_H 	H 	0.892	0.764	0.0702	0.037
Mof_C 	C 	0.8967	0.6807	0.0264	-0.101
Mof_C 	C 	0.8978	0.6585	0.9766	0.066
Mof_H 	H 	0.9005	0.6119	0.9699	0.027
Mof_C 	C 	0.6964	0.868	0.6405	0.294
Mof_C 	C 	0.9935	0.1807	0.6221	0.388
Mof_C 	C 	0.8989	0.9305	0.7613	0.377
Mof_C 	C 	0.8965	0.6275	0.0666	0.335
Mof_Zn	Zn	0.90438	0.56836	0.1573	1.191
Mof_Zn	Zn	0.89431	0.8173	0.3587	1.202
Mof_O 	O 	0.6451	0.6016	0.1357	-0.412
Mof_O 	O 	0.7045	0.6853	0.1412	-0.36
Mof_O 	O 	0.9937	0.2643	0.1138	-0.338
Mof_O 	O 	0.0337	0.3574	0.1372	-0.445
Mof_O 	O 	0.893	0.5108	0.2611	-0.328
Mof_O 	O 	0.9026	0.61	0.227	-0.471
Mof_O 	O 	0.895	0.844	0.61	-0.413
Mof_O 	O 	0.9027	0.9293	0.5577	-0.355
Mof_N 	N 	0.8225	0.547	0.1438	-0.214
Mof_C 	C 	0.7812	0.5908	0.1427	0.039
Mof_H 	H 	0.7872	0.6376	0.1471	0.033
Mof_C 	C 	0.731	0.5661	0.1354	-0.063
Mof_C 	C 	0.7221	0.4976	0.1291	0.016
Mof_H 	H 	0.6878	0.4808	0.1241	0.042
Mof_C 	C 	0.7634	0.4539	0.1301	-0.079
Mof_H 	H 	0.7573	0.4071	0.1258	0.059
Mof_C 	C 	0.8136	0.4785	0.1375	0.036
Mof_N 	N 	0.9025	0.4665	0.1444	-0.251
Mof_C 	C 	0.8552	0.4341	0.131	0.064
Mof_C 	C 	0.8536	0.3669	0.1168	-0.102
Mof_H 	H 	0.8213	0.3448	0.1077	0.066
Mof_C 	C 	0.8992	0.332	0.116	0.036
Mof_H 	H 	0.8981	0.2861	0.1063	0.033
Mof_C 	C 	0.9465	0.3644	0.1294	-0.107
Mof_C 	C 	0.9481	0.4316	0.1436	0.066
Mof_H 	H 	0.9804	0.4538	0.1527	-0.007
Mof_N 	N 	0.8901	0.717	0.3562	-0.256
Mof_C 	C 	0.8941	0.6825	0.3112	0.059
Mof_H 	H 	0.8985	0.7065	0.2811	-0.001
Mof_C 	C 	0.8917	0.6128	0.3102	-0.093
Mof_C 	C 	0.8853	0.5777	0.3542	0.031
Mof_H 	H 	0.8837	0.5301	0.3536	0.037
Mof_C 	C 	0.8813	0.6122	0.3992	-0.097
Mof_H 	H 	0.877	0.5881	0.4293	0.065
Mof_C 	C 	0.8837	0.6818	0.4002	0.06
Mof_N 	N 	0.8949	0.7956	0.4365	-0.225
Mof_C 	C 	0.8909	0.7274	0.4462	0.048
Mof_C 	C 	0.8898	0.7052	0.496	-0.094
Mof_H 	H 	0.8871	0.6586	0.5027	0.064
Mof_C 	C 	0.8927	0.7511	0.5361	0.039
Mof_H 	H 	0.892	0.736	0.5702	0.037
Mof_C 	C 	0.8967	0.8193	0.5264	-0.101
Mof_C 	C 	0.8978	0.8415	0.4766	0.066
Mof_H 	H 	0.9005	0.8881	0.4699	0.027
Mof_C 	C 	0.6964	0.632	0.1405	0.294
Mof_C 	C 	0.9935	0.3193	0.1221	0.388
Mof_C 	C 	0.8989	0.5695	0.2613	0.377
Mof_C 	C 	0.8965	0.8725	0.5666	0.335
Mof_Zn	Zn	0.40438	0.06836	0.6573	1.191
Mof_Zn	Zn	0.39431	0.3173	0.8587	1.202
Mof_O 	O 	0.1451	0.1016	0.6357	-0.412
Mof_O 	O 	0.2045	0.1853	0.6412	-0.36
Mof_O 	O 	0.4937	0.7643	0.6138	-0.338
Mof_O 	O 	0.5337	0.8574	0.6372	-0.445
Mof_O 	O 	0.393	0.0108	0.7611	-0.328
Mof_O 	O 	0.4026	0.11	0.727	-0.471
Mof_O 	O 	0.395	0.344	0.11	-0.413
Mof_O 	O 	0.4027	0.4293	0.0577	-0.355
Mof_N 	N 	0.3225	0.047	0.6438	-0.214
Mof_C 	C 	0.2812	0.0908	0.6427	0.039
Mof_H 	H 	0.2872	0.1376	0.6471	0.033
Mof_C 	C 	0.231	0.0661	0.6354	-0.063
Mof_C 	C 	0.2221	0.9976	0.6291	0.016
Mof_H 	H 	0.1878	0.9808	0.6241	0.042
Mof_C 	C 	0.2634	0.9539	0.6301	-0.079
Mof_H 	H 	0.2573	0.9071	0.6258	0.059
Mof_C 	C 	0.3136	0.9785	0.6375	0.036
Mof_N 	N 	0.4025	0.9665	0.6444	-0.251
Mof_C 	C 	0.3552	0.9341	0.631	0.064
Mof_C 	C 	0.3536	0.8669	0.6168	-0.102
Mof_H 	H 	0.3213	0.8448	0.6077	0.066
Mof_C 	C 	0.3992	0.832	0.616	0.036
Mof_H 	H 	0.3981	0.7861	0.6063	0.033
Mof_C 	C 	0.4465	0.8644	0.6294	-0.107
Mof_C 	C 	0.4481	0.9316	0.6436	0.066
Mof_H 	H 	0.4804	0.9538	0.6527	-0.007
Mof_N 	N 	0.3901	0.217	0.8562	-0.256
Mof_C 	C 	0.3941	0.1825	0.8112	0.059
Mof_H 	H 	0.3985	0.2065	0.7811	-0.001
Mof_C 	C 	0.3917	0.1128	0.8102	-0.093
Mof_C 	C 	0.3853	0.0777	0.8542	0.031
Mof_H 	H 	0.3837	0.0301	0.8536	0.037
Mof_C 	C 	0.3813	0.1122	0.8992	-0.097
Mof_H 	H 	0.377	0.0881	0.9293	0.065
Mof_C 	C 	0.3837	0.1818	0.9002	0.06
Mof_N 	N 	0.3949	0.2956	0.9365	-0.225
Mof_C 	C 	0.3909	0.2274	0.9462	0.048
Mof_C 	C 	0.3898	0.2052	0.996	-0.094
Mof_H 	H 	0.3871	0.1586	0.0027	0.064
Mof_C 	C 	0.3927	0.2511	0.0361	0.039
Mof_H 	H 	0.392	0.236	0.0702	0.037
Mof_C 	C 	0.3967	0.3193	0.0264	-0.101
Mof_C 	C 	0.3978	0.3415	0.9766	0.066
Mof_H 	H 	0.4005	0.3881	0.9699	0.027
Mof_C 	C 	0.1964	0.132	0.6405	0.294
Mof_C 	C 	0.4935	0.8193	0.6221	0.388
Mof_C 	C 	0.3989	0.0695	0.7613	0.377
Mof_C 	C 	0.3965	0.3725	0.0666	0.335
Mof_Zn	Zn	0.59562	0.56836	0.8427	1.191
Mof_Zn	Zn	0.60569	0.8173	0.6413	1.202
Mof_O 	O 	0.8549	0.6016	0.8643	-0.412
Mof_O 	O 	0.7955	0.6853	0.8588	-0.36
Mof_O 	O 	0.5063	0.2643	0.8862	-0.338
Mof_O 	O 	0.4663	0.3574	0.8628	-0.445
Mof_O 	O 	0.607	0.5108	0.7389	-0.328
Mof_O 	O 	0.5974	0.61	0.773	-0.471
Mof_O 	O 	0.605	0.844	0.39	-0.413
Mof_O 	O 	0.5973	0.9293	0.4423	-0.355
Mof_N 	N 	0.6775	0.547	0.8562	-0.214
Mof_C 	C 	0.7188	0.5908	0.8573	0.039
Mof_H 	H 	0.7128	0.6376	0.8529	0.033
Mof_C 	C 	0.769	0.5661	0.8646	-0.063
Mof_C 	C 	0.7779	0.4976	0.8709	0.016
Mof_H 	H 	0.8122	0.4808	0.8759	0.042
Mof_C 	C 	0.7366	0.4539	0.8699	-0.079
Mof_H 	H 	0.7427	0.4071	0.8742	0.059
Mof_C 	C 	0.6864	0.4785	0.8625	0.036
Mof_N 	N 	0.5975	0.4665	0.8556	-0.251
Mof_C 	C 	0.6448	0.4341	0.869	0.064
Mof_C 	C 	0.6464	0.3669	0.8832	-0.102
Mof_H 	H 	0.6787	0.3448	0.8923	0.066
Mof_C 	C 	0.6008	0.332	0.884	0.036
Mof_H 	H 	0.6019	0.2861	0.8937	0.033
Mof_C 	C 	0.5535	0.3644	0.8706	-0.107
Mof_C 	C 	0.5519	0.4316	0.8564	0.066
Mof_H 	H 	0.5196	0.4538	0.8473	-0.007
Mof_N 	N 	0.6099	0.717	0.6438	-0.256
Mof_C 	C 	0.6059	0.6825	0.6888	0.059
Mof_H 	H 	0.6015	0.7065	0.7189	-0.001
Mof_C 	C 	0.6083	0.6128	0.6898	-0.093
Mof_C 	C 	0.6147	0.5777	0.6458	0.031
Mof_H 	H 	0.6163	0.5301	0.6464	0.037
Mof_C 	C 	0.6187	0.6122	0.6008	-0.097
Mof_H 	H 	0.623	0.5881	0.5707	0.065
Mof_C 	C 	0.6163	0.6818	0.5998	0.06
Mof_N 	N 	0.6051	0.7956	0.5635	-0.225
Mof_C 	C 	0.6091	0.7274	0.5538	0.048
Mof_C 	C 	0.6102	0.7052	0.504	-0.094
Mof_H 	H 	0.6129	0.6586	0.4973	0.064
Mof_C 	C 	0.6073	0.7511	0.4639	0.039
Mof_H 	H 	0.608	0.736	0.4298	0.037
Mof_C 	C 	0.6033	0.8193	0.4736	-0.101
Mof_C 	C 	0.6022	0.8415	0.5234	0.066
Mof_H 	H 	0.5995	0.8881	0.5301	0.027
Mof_C 	C 	0.8036	0.632	0.8595	0.294
Mof_C 	C 	0.5065	0.3193	0.8779	0.388
Mof_C 	C 	0.6011	0.5695	0.7387	0.377
Mof_C 	C 	0.6035	0.8725	0.4334	0.335
Mof_Zn	Zn	0.09562	0.06836	0.3427	1.191
Mof_Zn	Zn	0.10569	0.3173	0.1413	1.202
Mof_O 	O 	0.3549	0.1016	0.3643	-0.412
Mof_O 	O 	0.2955	0.1853	0.3588	-0.36
Mof_O 	O 	0.0063	0.7643	0.3862	-0.338
Mof_O 	O 	0.9663	0.8574	0.3628	-0.445
Mof_O 	O 	0.107	0.0108	0.2389	-0.328
Mof_O 	O 	0.0974	0.11	0.273	-0.471
Mof_O 	O 	0.105	0.344	0.89	-0.413
Mof_O 	O 	0.0973	0.4293	0.9423	-0.355
Mof_N 	N 	0.1775	0.047	0.3562	-0.214
Mof_C 	C 	0.2188	0.0908	0.3573	0.039
Mof_H 	H 	0.2128	0.1376	0.3529	0.033
Mof_C 	C 	0.269	0.0661	0.3646	-0.063
Mof_C 	C 	0.2779	0.9976	0.3709	0.016
Mof_H 	H 	0.3122	0.9808	0.3759	0.042
Mof_C 	C 	0.2366	0.9539	0.3699	-0.079
Mof_H 	H 	0.2427	0.9071	0.3742	0.059
Mof_C 	C 	0.1864	0.9785	0.3625	0.036
Mof_N 	N 	0.0975	0.9665	0.3556	-0.251
Mof_C 	C 	0.1448	0.9341	0.369	0.064
Mof_C 	C 	0.1464	0.8669	0.3832	-0.102
Mof_H 	H 	0.1787	0.8448	0.3923	0.066
Mof_C 	C 	0.1008	0.832	0.384	0.036
Mof_H 	H 	0.1019	0.7861	0.3937	0.033
Mof_C 	C 	0.0535	0.8644	0.3706	-0.107
Mof_C 	C 	0.0519	0.9316	0.3564	0.066
Mof_H 	H 	0.0196	0.9538	0.3473	-0.007
Mof_N 	N 	0.1099	0.217	0.1438	-0.256
Mof_C 	C 	0.1059	0.1825	0.1888	0.059
Mof_H 	H 	0.1015	0.2065	0.2189	-0.001
Mof_C 	C 	0.1083	0.1128	0.1898	-0.093
Mof_C 	C 	0.1147	0.0777	0.1458	0.031
Mof_H 	H 	0.1163	0.0301	0.1464	0.037
Mof_C 	C 	0.1187	0.1122	0.1008	-0.097
Mof_H 	H 	0.123	0.0881	0.0707	0.065
Mof_C 	C 	0.1163	0.1818	0.0998	0.06
Mof_N 	N 	0.1051	0.2956	0.0635	-0.225
Mof_C 	C 	0.1091	0.2274	0.0538	0.048
Mof_C 	C 	0.1102	0.2052	0.004	-0.094
Mof_H 	H 	0.1129	0.1586	0.9973	0.064
Mof_C 	C 	0.1073	0.2511	0.9639	0.039
Mof_H 	H 	0.108	0.236	0.9298	0.037
Mof_C 	C 	0.1033	0.3193	0.9736	-0.101
Mof_C 	C 	0.1022	0.3415	0.0234	0.066
Mof_H 	H 	0.0995	0.3881	0.0301	0.027
Mof_C 	C 	0.3036	0.132	0.3595	0.294
Mof_C 	C 	0.0065	0.8193	0.3779	0.388
Mof_C 	C 	0.1011	0.0695	0.2387	0.377
Mof_C 	C 	0.1035	0.3725	0.9334	0.335
_end
