data_functionalizedCrystal
_audit_creation_method	'EQeq! by Chris Wilmer'
_symmetry_space_group_name_H-M	'P1'
_symmetry_Int_Tables_number	1
_symmetry_cell_setting	triclinic
loop_
_symmetry_equiv_pos_as_xyz
  x,y,z
_cell_length_a	12.7231
_cell_length_b	12.7231
_cell_length_c	16.4812
_cell_angle_alpha	90
_cell_angle_beta	90
_cell_angle_gamma	120
loop_
_atom_site_label
_atom_site_type_symbol
_atom_site_fract_x
_atom_site_fract_y
_atom_site_fract_z
_atom_site_charge
Mof_O 	O 	0.377	0.9932	0.1722	-0.402
Mof_O 	O 	0.5336	0.1795	0.1705	-0.407
Mof_N 	N 	0.4348	0.3707	0.84	-0.214
Mof_N 	N 	0.3124	0.2123	0.9135	-0.202
Mof_H 	H 	0.247	0.145	0.9287	0.116
Mof_C 	C 	0.3259	0.2731	0.8448	0.123
Mof_H 	H 	0.265	0.2492	0.8043	-0.009
Mof_C 	C 	0.4941	0.3716	0.9109	-0.034
Mof_H 	H 	0.5745	0.4316	0.9251	0.043
Mof_C 	C 	0.4198	0.2742	0.9567	0.067
Mof_C 	C 	0.4486	0.2355	0.0325	-0.007
Mof_H 	H 	0.5232	0.292	0.0573	0.047
Mof_C 	C 	0.3824	0.1291	0.0721	-0.201
Mof_H 	H 	0.3027	0.0728	0.054	0.102
Mof_C 	C 	0.4341	0.1002	0.1437	0.381
Mof_O 	O 	0.0068	0.3838	0.1722	-0.403
Mof_O 	O 	0.8205	0.3541	0.1705	-0.408
Mof_N 	N 	0.6293	0.0641	0.84	-0.215
Mof_N 	N 	0.7877	0.1001	0.9135	-0.203
Mof_H 	H 	0.855	0.102	0.9287	0.116
Mof_C 	C 	0.7269	0.0528	0.8448	0.122
Mof_H 	H 	0.7508	0.0158	0.8043	-0.009
Mof_C 	C 	0.6284	0.1225	0.9109	-0.034
Mof_H 	H 	0.5684	0.1429	0.9251	0.043
Mof_C 	C 	0.7258	0.1456	0.9567	0.068
Mof_C 	C 	0.7645	0.2131	0.0325	-0.008
Mof_H 	H 	0.708	0.2312	0.0573	0.048
Mof_C 	C 	0.8709	0.2533	0.0721	-0.2
Mof_H 	H 	0.9272	0.2299	0.054	0.101
Mof_C 	C 	0.8998	0.3339	0.1437	0.381
Mof_O 	O 	0.6162	0.623	0.1722	-0.404
Mof_O 	O 	0.6459	0.4664	0.1705	-0.409
Mof_N 	N 	0.9359	0.5652	0.84	-0.215
Mof_N 	N 	0.8999	0.6876	0.9135	-0.203
Mof_H 	H 	0.898	0.753	0.9287	0.115
Mof_C 	C 	0.9472	0.6741	0.8448	0.122
Mof_H 	H 	0.9842	0.735	0.8043	-0.009
Mof_C 	C 	0.8775	0.5059	0.9109	-0.034
Mof_H 	H 	0.8571	0.4255	0.9251	0.043
Mof_C 	C 	0.8544	0.5802	0.9567	0.067
Mof_C 	C 	0.7869	0.5514	0.0325	-0.007
Mof_H 	H 	0.7688	0.4768	0.0573	0.047
Mof_C 	C 	0.7467	0.6176	0.0721	-0.201
Mof_H 	H 	0.7701	0.6973	0.054	0.102
Mof_C 	C 	0.6661	0.5659	0.1437	0.382
Mof_O 	O 	0.623	0.0068	0.6722	-0.404
Mof_O 	O 	0.4664	0.8205	0.6705	-0.409
Mof_N 	N 	0.5652	0.6293	0.34	-0.215
Mof_N 	N 	0.6876	0.7877	0.4135	-0.203
Mof_H 	H 	0.753	0.855	0.4287	0.115
Mof_C 	C 	0.6741	0.7269	0.3448	0.122
Mof_H 	H 	0.735	0.7508	0.3043	-0.009
Mof_C 	C 	0.5059	0.6284	0.4109	-0.034
Mof_H 	H 	0.4255	0.5684	0.4251	0.043
Mof_C 	C 	0.5802	0.7258	0.4567	0.066
Mof_C 	C 	0.5514	0.7645	0.5325	-0.006
Mof_H 	H 	0.4768	0.708	0.5573	0.047
Mof_C 	C 	0.6176	0.8709	0.5721	-0.201
Mof_H 	H 	0.6973	0.9272	0.554	0.102
Mof_C 	C 	0.5659	0.8998	0.6437	0.382
Mof_O 	O 	0.9932	0.6162	0.6722	-0.404
Mof_O 	O 	0.1795	0.6459	0.6705	-0.409
Mof_N 	N 	0.3707	0.9359	0.34	-0.215
Mof_N 	N 	0.2123	0.8999	0.4135	-0.203
Mof_H 	H 	0.145	0.898	0.4287	0.115
Mof_C 	C 	0.2731	0.9472	0.3448	0.122
Mof_H 	H 	0.2492	0.9842	0.3043	-0.009
Mof_C 	C 	0.3716	0.8775	0.4109	-0.034
Mof_H 	H 	0.4316	0.8571	0.4251	0.043
Mof_C 	C 	0.2742	0.8544	0.4567	0.066
Mof_C 	C 	0.2355	0.7869	0.5325	-0.006
Mof_H 	H 	0.292	0.7688	0.5573	0.047
Mof_C 	C 	0.1291	0.7467	0.5721	-0.201
Mof_H 	H 	0.0728	0.7701	0.554	0.102
Mof_C 	C 	0.1002	0.6661	0.6437	0.382
Mof_O 	O 	0.3838	0.377	0.6722	-0.404
Mof_O 	O 	0.3541	0.5336	0.6705	-0.409
Mof_N 	N 	0.0641	0.4348	0.34	-0.215
Mof_N 	N 	0.1001	0.3124	0.4135	-0.203
Mof_H 	H 	0.102	0.247	0.4287	0.115
Mof_C 	C 	0.0528	0.3259	0.3448	0.122
Mof_H 	H 	0.0158	0.265	0.3043	-0.009
Mof_C 	C 	0.1225	0.4941	0.4109	-0.034
Mof_H 	H 	0.1429	0.5745	0.4251	0.043
Mof_C 	C 	0.1456	0.4198	0.4567	0.066
Mof_C 	C 	0.2131	0.4486	0.5325	-0.006
Mof_H 	H 	0.2312	0.5232	0.5573	0.047
Mof_C 	C 	0.2533	0.3824	0.5721	-0.201
Mof_H 	H 	0.2299	0.3027	0.554	0.102
Mof_C 	C 	0.3339	0.4341	0.6437	0.382
Mof_O 	O 	0.9932	0.377	0.8278	-0.403
Mof_O 	O 	0.1795	0.5336	0.8295	-0.408
Mof_N 	N 	0.3707	0.4348	0.16	-0.215
Mof_N 	N 	0.2123	0.3124	0.0865	-0.203
Mof_H 	H 	0.145	0.247	0.0713	0.115
Mof_C 	C 	0.2731	0.3259	0.1552	0.122
Mof_H 	H 	0.2492	0.265	0.1957	-0.009
Mof_C 	C 	0.3716	0.4941	0.0891	-0.034
Mof_H 	H 	0.4316	0.5745	0.0749	0.043
Mof_C 	C 	0.2742	0.4198	0.0433	0.067
Mof_C 	C 	0.2355	0.4486	0.9675	-0.007
Mof_H 	H 	0.292	0.5232	0.9427	0.047
Mof_C 	C 	0.1291	0.3824	0.9279	-0.201
Mof_H 	H 	0.0728	0.3027	0.946	0.102
Mof_C 	C 	0.1002	0.4341	0.8563	0.381
Mof_O 	O 	0.3838	0.0068	0.8278	-0.403
Mof_O 	O 	0.3541	0.8205	0.8295	-0.408
Mof_N 	N 	0.0641	0.6293	0.16	-0.215
Mof_N 	N 	0.1001	0.7877	0.0865	-0.203
Mof_H 	H 	0.102	0.855	0.0713	0.116
Mof_C 	C 	0.0528	0.7269	0.1552	0.122
Mof_H 	H 	0.0158	0.7508	0.1957	-0.009
Mof_C 	C 	0.1225	0.6284	0.0891	-0.034
Mof_H 	H 	0.1429	0.5684	0.0749	0.043
Mof_C 	C 	0.1456	0.7258	0.0433	0.068
Mof_C 	C 	0.2131	0.7645	0.9675	-0.008
Mof_H 	H 	0.2312	0.708	0.9427	0.048
Mof_C 	C 	0.2533	0.8709	0.9279	-0.2
Mof_H 	H 	0.2299	0.9272	0.946	0.101
Mof_C 	C 	0.3339	0.8998	0.8563	0.381
Mof_O 	O 	0.623	0.6162	0.8278	-0.404
Mof_O 	O 	0.4664	0.6459	0.8295	-0.409
Mof_N 	N 	0.5652	0.9359	0.16	-0.215
Mof_N 	N 	0.6876	0.8999	0.0865	-0.203
Mof_H 	H 	0.753	0.898	0.0713	0.115
Mof_C 	C 	0.6741	0.9472	0.1552	0.122
Mof_H 	H 	0.735	0.9842	0.1957	-0.009
Mof_C 	C 	0.5059	0.8775	0.0891	-0.034
Mof_H 	H 	0.4255	0.8571	0.0749	0.043
Mof_C 	C 	0.5802	0.8544	0.0433	0.067
Mof_C 	C 	0.5514	0.7869	0.9675	-0.007
Mof_H 	H 	0.4768	0.7688	0.9427	0.047
Mof_C 	C 	0.6176	0.7467	0.9279	-0.201
Mof_H 	H 	0.6973	0.7701	0.946	0.102
Mof_C 	C 	0.5659	0.6661	0.8563	0.382
Mof_O 	O 	0.0068	0.623	0.3278	-0.404
Mof_O 	O 	0.8205	0.4664	0.3295	-0.409
Mof_N 	N 	0.6293	0.5652	0.66	-0.215
Mof_N 	N 	0.7877	0.6876	0.5865	-0.203
Mof_H 	H 	0.855	0.753	0.5713	0.115
Mof_C 	C 	0.7269	0.6741	0.6552	0.122
Mof_H 	H 	0.7508	0.735	0.6957	-0.009
Mof_C 	C 	0.6284	0.5059	0.5891	-0.034
Mof_H 	H 	0.5684	0.4255	0.5749	0.043
Mof_C 	C 	0.7258	0.5802	0.5433	0.066
Mof_C 	C 	0.7645	0.5514	0.4675	-0.006
Mof_H 	H 	0.708	0.4768	0.4427	0.047
Mof_C 	C 	0.8709	0.6176	0.4279	-0.201
Mof_H 	H 	0.9272	0.6973	0.446	0.102
Mof_C 	C 	0.8998	0.5659	0.3563	0.382
Mof_O 	O 	0.6162	0.9932	0.3278	-0.404
Mof_O 	O 	0.6459	0.1795	0.3295	-0.409
Mof_N 	N 	0.9359	0.3707	0.66	-0.215
Mof_N 	N 	0.8999	0.2123	0.5865	-0.203
Mof_H 	H 	0.898	0.145	0.5713	0.115
Mof_C 	C 	0.9472	0.2731	0.6552	0.122
Mof_H 	H 	0.9842	0.2492	0.6957	-0.009
Mof_C 	C 	0.8775	0.3716	0.5891	-0.034
Mof_H 	H 	0.8571	0.4316	0.5749	0.043
Mof_C 	C 	0.8544	0.2742	0.5433	0.066
Mof_C 	C 	0.7869	0.2355	0.4675	-0.006
Mof_H 	H 	0.7688	0.292	0.4427	0.047
Mof_C 	C 	0.7467	0.1291	0.4279	-0.201
Mof_H 	H 	0.7701	0.0728	0.446	0.102
Mof_C 	C 	0.6661	0.1002	0.3563	0.382
Mof_O 	O 	0.377	0.3838	0.3278	-0.404
Mof_O 	O 	0.5336	0.3541	0.3295	-0.409
Mof_N 	N 	0.4348	0.0641	0.66	-0.215
Mof_N 	N 	0.3124	0.1001	0.5865	-0.203
Mof_H 	H 	0.247	0.102	0.5713	0.115
Mof_C 	C 	0.3259	0.0528	0.6552	0.122
Mof_H 	H 	0.265	0.0158	0.6957	-0.009
Mof_C 	C 	0.4941	0.1225	0.5891	-0.034
Mof_H 	H 	0.5745	0.1429	0.5749	0.043
Mof_C 	C 	0.4198	0.1456	0.5433	0.066
Mof_C 	C 	0.4486	0.2131	0.4675	-0.006
Mof_H 	H 	0.5232	0.2312	0.4427	0.047
Mof_C 	C 	0.3824	0.2533	0.4279	-0.201
Mof_H 	H 	0.3027	0.2299	0.446	0.102
Mof_C 	C 	0.4341	0.3339	0.3563	0.382
Mof_Cu	Cu	0.48886	0.97771	0.25	0.9
Mof_Cu	Cu	0.02229	0.51114	0.25	0.9
Mof_Cu	Cu	0.48886	0.51114	0.25	0.9
Mof_Cu	Cu	0.51114	0.02229	0.75	0.9
Mof_Cu	Cu	0.97771	0.48885	0.75	0.9
Mof_Cu	Cu	0.51114	0.48885	0.75	0.9
Mof_Cu	Cu	0.66667	0.33333	0.25	0.917
Mof_Cu	Cu	0.33333	0.66667	0.75	0.917
_end
