data_functionalizedCrystal
_audit_creation_method	'EQeq! by Chris Wilmer'
_symmetry_space_group_name_H-M	'P1'
_symmetry_Int_Tables_number	1
_symmetry_cell_setting	triclinic
loop_
_symmetry_equiv_pos_as_xyz
  x,y,z
_cell_length_a	6.6986
_cell_length_b	18.5179
_cell_length_c	8.4934
_cell_angle_alpha	90
_cell_angle_beta	90
_cell_angle_gamma	90
loop_
_atom_site_label
_atom_site_type_symbol
_atom_site_fract_x
_atom_site_fract_y
_atom_site_fract_z
_atom_site_charge
Mof_C 	C 	0.7352	0.757	0.4727	0.682
Mof_H 	H 	0.7141	0.7187	0.5415	-0.179
Mof_O 	O 	0.8192	0.74253	0.347	-0.468
Mof_O 	O 	0.6761	0.81706	0.5166	-0.52
Mof_O 	O 	0.513	0.95032	0.569	-0.543
Mof_O 	O 	0.8366	0.90582	0.7706	-0.327
Mof_C 	C 	0.2352	0.257	0.4727	0.697
Mof_H 	H 	0.2141	0.2187	0.5415	-0.24
Mof_O 	O 	0.3192	0.24253	0.347	-0.611
Mof_O 	O 	0.1761	0.31706	0.5166	-0.548
Mof_O 	O 	0.013	0.45032	0.569	-0.855
Mof_O 	O 	0.3366	0.40582	0.7706	-0.49
Mof_C 	C 	0.2648	0.243	0.9727	0.747
Mof_H 	H 	0.2859	0.2813	0.0415	-0.256
Mof_O 	O 	0.1808	0.25747	0.847	-0.617
Mof_O 	O 	0.3239	0.18294	0.0166	-0.602
Mof_O 	O 	0.487	0.04968	0.069	-0.608
Mof_O 	O 	0.1634	0.09418	0.2706	-0.504
Mof_C 	C 	0.7648	0.743	0.9727	0.742
Mof_H 	H 	0.7859	0.7813	0.0415	-0.199
Mof_O 	O 	0.6808	0.75747	0.847	-0.579
Mof_O 	O 	0.8239	0.68294	0.0166	-0.483
Mof_O 	O 	0.987	0.54968	0.069	-0.207
Mof_O 	O 	0.6634	0.59418	0.2706	-0.438
Mof_C 	C 	0.2648	0.757	0.0273	0.649
Mof_H 	H 	0.2859	0.7187	0.9585	-0.208
Mof_O 	O 	0.1808	0.74253	0.153	-0.589
Mof_O 	O 	0.3239	0.81706	0.9834	-0.551
Mof_O 	O 	0.487	0.95032	0.931	-0.539
Mof_O 	O 	0.1634	0.90582	0.7294	-0.477
Mof_C 	C 	0.7648	0.257	0.0273	0.649
Mof_H 	H 	0.7859	0.2187	0.9585	-0.158
Mof_O 	O 	0.6808	0.24253	0.153	-0.557
Mof_O 	O 	0.8239	0.31706	0.9834	-0.442
Mof_O 	O 	0.987	0.45032	0.931	-0.197
Mof_O 	O 	0.6634	0.40582	0.7294	-0.437
Mof_C 	C 	0.7352	0.243	0.5273	0.684
Mof_H 	H 	0.7141	0.2813	0.4585	-0.18
Mof_O 	O 	0.8192	0.25747	0.653	-0.472
Mof_O 	O 	0.6761	0.18294	0.4834	-0.527
Mof_O 	O 	0.513	0.04968	0.431	-0.602
Mof_O 	O 	0.8366	0.09418	0.2294	-0.357
Mof_C 	C 	0.2352	0.743	0.5273	0.695
Mof_H 	H 	0.2141	0.7813	0.4585	-0.236
Mof_O 	O 	0.3192	0.75747	0.653	-0.61
Mof_O 	O 	0.1761	0.68294	0.4834	-0.547
Mof_O 	O 	0.013	0.54968	0.431	-0.855
Mof_O 	O 	0.3366	0.59418	0.2294	-0.493
Mof_C 	C 	0.4261	-2.99504e-33	0.5	0.698
Mof_H 	H 	0.2873	-2.99504e-33	0.5	-0.236
Mof_C 	C 	0.9261	0.5	0.5	1.39
Mof_H 	H 	0.7873	0.5	0.5	-0.378
Mof_C 	C 	0.5739	0	-0	0.665
Mof_H 	H 	0.7127	0	-0	-0.178
Mof_C 	C 	0.0739	0.5	-0	0.035
Mof_H 	H 	0.2127	0.5	-0	0.017
Mof_C 	C 	1.55457e-32	0.875	0.75	0.375
Mof_H 	H 	1.55457e-32	0.8248	0.75	-0.177
Mof_C 	C 	0.5	0.375	0.75	0.614
Mof_H 	H 	0.5	0.3248	0.75	-0.186
Mof_C 	C 	-1.80654e-33	0.125	0.25	0.376
Mof_H 	H 	7.17859e-33	0.1752	0.25	-0.181
Mof_C 	C 	0.5	0.625	0.25	0.612
Mof_H 	H 	0.5	0.6752	0.25	-0.186
Mof_Tb	Tb	0.5	0.85734	0.75	2.62
Mof_Tb	Tb	3.5655e-33	0.35734	0.75	2.142
Mof_Tb	Tb	0.5	0.14266	0.25	2.604
Mof_Tb	Tb	-1.07917e-32	0.64266	0.25	2.137
_end
