data_functionalizedCrystal
_audit_creation_method	'EQeq! by Chris Wilmer'
_symmetry_space_group_name_H-M	'P1'
_symmetry_Int_Tables_number	1
_symmetry_cell_setting	triclinic
loop_
_symmetry_equiv_pos_as_xyz
  x,y,z
_cell_length_a	16.3724
_cell_length_b	7.1673
_cell_length_c	14.1857
_cell_angle_alpha	90
_cell_angle_beta	90
_cell_angle_gamma	90
loop_
_atom_site_label
_atom_site_type_symbol
_atom_site_fract_x
_atom_site_fract_y
_atom_site_fract_z
_atom_site_charge
Mof_O 	O 	0.40867	0.4393	0.44765	-0.371
Mof_O 	O 	0.46016	0.19013	0.5225	-0.258
Mof_O 	O 	0.41573	0.0581	0.74825	-0.392
Mof_O 	O 	0.43957	0.36127	0.71826	-0.224
Mof_C 	C 	0.32398	0.2805	0.5561	-0.032
Mof_C 	C 	0.32397	0.2229	0.65041	-0.041
Mof_C 	C 	0.4046	0.3053	0.50457	0.322
Mof_C 	C 	0.40005	0.2128	0.70882	0.323
Mof_O 	O 	0.90867	0.9393	0.94765	-0.261
Mof_O 	O 	0.96016	0.69013	0.0225	-0.157
Mof_O 	O 	0.91573	0.5581	0.24825	-0.323
Mof_O 	O 	0.93957	0.86127	0.21826	-0.145
Mof_C 	C 	0.82398	0.7805	0.0561	0.02
Mof_C 	C 	0.82397	0.7229	0.15041	-0.041
Mof_C 	C 	0.9046	0.8053	0.00457	0.265
Mof_C 	C 	0.90005	0.7128	0.20882	0.314
Mof_O 	O 	0.59133	0.5607	0.44765	-0.38
Mof_O 	O 	0.53984	0.80987	0.5225	-0.192
Mof_O 	O 	0.58427	0.9419	0.74825	-0.307
Mof_O 	O 	0.56043	0.63873	0.71826	-0.218
Mof_C 	C 	0.67602	0.7195	0.5561	-0.026
Mof_C 	C 	0.67603	0.7771	0.65041	-0.019
Mof_C 	C 	0.5954	0.6947	0.50457	0.32
Mof_C 	C 	0.59995	0.7872	0.70882	0.313
Mof_O 	O 	0.09133	0.0607	0.94765	-0.407
Mof_O 	O 	0.03984	0.30987	0.0225	-0.28
Mof_O 	O 	0.08427	0.4419	0.24825	-0.383
Mof_O 	O 	0.06043	0.13873	0.21826	-0.305
Mof_C 	C 	0.17602	0.2195	0.0561	-0.019
Mof_C 	C 	0.17603	0.2771	0.15041	-0.054
Mof_C 	C 	0.0954	0.1947	0.00457	0.297
Mof_C 	C 	0.09995	0.2872	0.20882	0.333
Mof_O 	O 	0.90867	0.5607	0.44765	-0.34
Mof_O 	O 	0.96016	0.80987	0.5225	-0.14
Mof_O 	O 	0.91573	0.9419	0.74825	-0.265
Mof_O 	O 	0.93957	0.63873	0.71826	-0.172
Mof_C 	C 	0.82398	0.7195	0.5561	-0.019
Mof_C 	C 	0.82397	0.7771	0.65041	-0.012
Mof_C 	C 	0.9046	0.6947	0.50457	0.312
Mof_C 	C 	0.90005	0.7872	0.70882	0.304
Mof_O 	O 	0.40867	0.0607	0.94765	-0.383
Mof_O 	O 	0.46016	0.30987	0.0225	-0.235
Mof_O 	O 	0.41573	0.4419	0.24825	-0.356
Mof_O 	O 	0.43957	0.13873	0.21826	-0.267
Mof_C 	C 	0.32398	0.2195	0.0561	-0.013
Mof_C 	C 	0.32397	0.2771	0.15041	-0.049
Mof_C 	C 	0.4046	0.1947	0.00457	0.291
Mof_C 	C 	0.40005	0.2872	0.20882	0.327
Mof_O 	O 	0.09133	0.4393	0.44765	-0.395
Mof_O 	O 	0.03984	0.19013	0.5225	-0.304
Mof_O 	O 	0.08427	0.0581	0.74825	-0.418
Mof_O 	O 	0.06043	0.36127	0.71826	-0.264
Mof_C 	C 	0.17602	0.2805	0.5561	-0.038
Mof_C 	C 	0.17603	0.2229	0.65041	-0.046
Mof_C 	C 	0.0954	0.3053	0.50457	0.326
Mof_C 	C 	0.09995	0.2128	0.70882	0.329
Mof_O 	O 	0.59133	0.9393	0.94765	-0.301
Mof_O 	O 	0.53984	0.69013	0.0225	-0.208
Mof_O 	O 	0.58427	0.5581	0.24825	-0.366
Mof_O 	O 	0.56043	0.86127	0.21826	-0.19
Mof_C 	C 	0.67602	0.7805	0.0561	0.013
Mof_C 	C 	0.67603	0.7229	0.15041	-0.047
Mof_C 	C 	0.5954	0.8053	0.00457	0.273
Mof_C 	C 	0.59995	0.7128	0.20882	0.323
Mof_Ni	Ni	0.5	0.5	0.35324	1.104
Mof_Ni	Ni	2.77186e-33	0	0.85324	1.022
Mof_Ni	Ni	1.14755e-33	0.5	0.35324	1.061
Mof_Ni	Ni	0.5	0	0.85324	1.064
Mof_C 	C 	0.25	0.3097	0.50968	-0.005
Mof_H 	H 	0.25	0.3499	0.4459	0.059
Mof_C 	C 	0.25	0.1941	0.69672	0.002
Mof_H 	H 	0.25	0.1544	0.7606	0.048
Mof_C 	C 	0.75	0.8097	0.00968	-0.078
Mof_H 	H 	0.75	0.8499	0.9459	0.108
Mof_C 	C 	0.75	0.6941	0.19672	0.014
Mof_H 	H 	0.75	0.6544	0.2606	0.052
Mof_C 	C 	0.75	0.6903	0.50968	-0.002
Mof_H 	H 	0.75	0.6501	0.4459	0.062
Mof_C 	C 	0.75	0.8059	0.69672	-0.008
Mof_H 	H 	0.75	0.8456	0.7606	0.067
Mof_C 	C 	0.25	0.1903	0.00968	-0.055
Mof_H 	H 	0.25	0.1501	0.9459	0.083
Mof_C 	C 	0.25	0.3059	0.19672	0.01
Mof_H 	H 	0.25	0.3456	0.2606	0.05
_end
