data_functionalizedCrystal
_audit_creation_method	'EQeq! by Chris Wilmer'
_symmetry_space_group_name_H-M	'P1'
_symmetry_Int_Tables_number	1
_symmetry_cell_setting	triclinic
loop_
_symmetry_equiv_pos_as_xyz
  x,y,z
_cell_length_a	16.706
_cell_length_b	3.5265
_cell_length_c	11.558
_cell_angle_alpha	90
_cell_angle_beta	100.77
_cell_angle_gamma	90
loop_
_atom_site_label
_atom_site_type_symbol
_atom_site_fract_x
_atom_site_fract_y
_atom_site_fract_z
_atom_site_charge
Mof_C 	C 	0.9307	0.6079	0.7368	0.076
Mof_H 	H 	0.8839	0.6815	0.6847	-0.064
Mof_C 	C 	0.9292	0.6152	0.8551	-0.049
Mof_H 	H 	0.8826	0.6947	0.8812	0.013
Mof_C 	C 	0.0674	0.583	0.8891	-0.1
Mof_H 	H 	0.1165	0.3621	0.9387	0.026
Mof_C 	C 	0.0638	0.5877	0.7724	0.033
Mof_H 	H 	0.1107	0.3449	0.7449	-0.078
Mof_C 	C 	0.4307	0.1079	0.7368	-0.043
Mof_H 	H 	0.3839	0.1815	0.6847	-0.034
Mof_C 	C 	0.4292	0.1152	0.8551	-0.153
Mof_H 	H 	0.3826	0.1947	0.8812	0.038
Mof_C 	C 	0.5674	0.083	0.8891	-0.035
Mof_H 	H 	0.6165	0.8621	0.9387	0.026
Mof_C 	C 	0.5638	0.0877	0.7724	0.066
Mof_H 	H 	0.6107	0.8449	0.7449	-0.065
Mof_C 	C 	0.0693	0.6079	0.2632	0.053
Mof_H 	H 	0.1161	0.6815	0.3153	-0.058
Mof_C 	C 	0.0708	0.6152	0.1449	-0.009
Mof_H 	H 	0.1174	0.6947	0.1188	-0.003
Mof_C 	C 	0.9326	0.583	0.1109	-0.03
Mof_H 	H 	0.8835	0.3621	0.0613	0.007
Mof_C 	C 	0.9362	0.5877	0.2276	0.044
Mof_H 	H 	0.8893	0.3449	0.2551	-0.076
Mof_C 	C 	0.5693	0.1079	0.2632	-0.041
Mof_H 	H 	0.6161	0.1815	0.3153	-0.035
Mof_C 	C 	0.5708	0.1152	0.1449	-0.163
Mof_H 	H 	0.6174	0.1947	0.1188	0.046
Mof_C 	C 	0.4326	0.083	0.1109	-0.043
Mof_H 	H 	0.3835	0.8621	0.0613	0.033
Mof_C 	C 	0.4362	0.0877	0.2276	0.069
Mof_H 	H 	0.3893	0.8449	0.2551	-0.066
Mof_C 	C 	0.0693	0.3921	0.2632	-0
Mof_H 	H 	0.1161	0.3185	0.3153	-0.047
Mof_C 	C 	0.0708	0.3848	0.1449	-0.073
Mof_H 	H 	0.1174	0.3053	0.1188	0.013
Mof_C 	C 	0.9326	0.417	0.1109	-0.019
Mof_H 	H 	0.8835	0.6379	0.0613	0.015
Mof_C 	C 	0.9362	0.4123	0.2276	0.056
Mof_H 	H 	0.8893	0.6551	0.2551	-0.067
Mof_C 	C 	0.5693	0.8921	0.2632	0.122
Mof_H 	H 	0.6161	0.8185	0.3153	-0.08
Mof_C 	C 	0.5708	0.8848	0.1449	0.036
Mof_H 	H 	0.6174	0.8053	0.1188	-0.012
Mof_C 	C 	0.4326	0.917	0.1109	-0.083
Mof_H 	H 	0.3835	0.1379	0.0613	0.014
Mof_C 	C 	0.4362	0.9123	0.2276	0.026
Mof_H 	H 	0.3893	0.1551	0.2551	-0.084
Mof_C 	C 	0.9307	0.3921	0.7368	0.022
Mof_H 	H 	0.8839	0.3185	0.6847	-0.053
Mof_C 	C 	0.9292	0.3848	0.8551	-0.113
Mof_H 	H 	0.8826	0.3053	0.8812	0.029
Mof_C 	C 	0.0674	0.417	0.8891	-0.09
Mof_H 	H 	0.1165	0.6379	0.9387	0.034
Mof_C 	C 	0.0638	0.4123	0.7724	0.045
Mof_H 	H 	0.1107	0.6551	0.7449	-0.069
Mof_C 	C 	0.4307	0.8921	0.7368	0.117
Mof_H 	H 	0.3839	0.8185	0.6847	-0.078
Mof_C 	C 	0.4292	0.8848	0.8551	0.042
Mof_H 	H 	0.3826	0.8053	0.8812	-0.019
Mof_C 	C 	0.5674	0.917	0.8891	-0.074
Mof_H 	H 	0.6165	0.1379	0.9387	0.007
Mof_C 	C 	0.5638	0.9123	0.7724	0.023
Mof_H 	H 	0.6107	0.1551	0.7449	-0.083
Mof_N 	N 	0.99623	0.5	0.6913	-0.175
Mof_C 	C 	0.99954	0.5	0.9379	0.141
Mof_N 	N 	0.49623	0	0.6913	-0.201
Mof_C 	C 	0.49954	0	0.9379	0.014
Mof_N 	N 	0.00377	0.5	0.3087	-0.21
Mof_C 	C 	0.00046	0.5	0.0621	-0.069
Mof_N 	N 	0.50377	0	0.3087	-0.203
Mof_C 	C 	0.50046	0	0.0621	0.047
Mof_O 	O 	0.08672	0	0.528	-0.693
Mof_V 	V 	0.19109	0	0.55887	1.725
Mof_O 	O 	0.58672	0.5	0.528	-0.684
Mof_V 	V 	0.69109	0.5	0.55887	1.728
Mof_O 	O 	0.91328	1.88686e-32	0.472	-0.669
Mof_V 	V 	0.80891	0	0.44113	1.725
Mof_O 	O 	0.41328	0.5	0.472	-0.684
Mof_V 	V 	0.30891	0.5	0.44113	1.728
Mof_O 	O 	0.20553	0.5	0.5111	-0.981
Mof_O 	O 	0.70553	1.88686e-32	0.5111	-0.989
Mof_O 	O 	0.79447	0.5	0.4889	-0.979
Mof_O 	O 	0.29447	0	0.4889	-0.99
Mof_Mn	Mn	-1.06221e-17	0.5	0.5	0.72
Mof_Mn	Mn	0.5	0	0.5	0.757
_end
