data_functionalizedCrystal
_audit_creation_method	'EQeq! by Chris Wilmer'
_symmetry_space_group_name_H-M	'P1'
_symmetry_Int_Tables_number	1
_symmetry_cell_setting	triclinic
loop_
_symmetry_equiv_pos_as_xyz
  x,y,z
_cell_length_a	13.5707
_cell_length_b	15.006
_cell_length_c	20.074
_cell_angle_alpha	90
_cell_angle_beta	90
_cell_angle_gamma	90
loop_
_atom_site_label
_atom_site_type_symbol
_atom_site_fract_x
_atom_site_fract_y
_atom_site_fract_z
_atom_site_charge
Mof_Zn	Zn	0.49752	0.60974	0.56487	1.221
Mof_O 	O 	0.5048	0.6383	0.6632	-0.422
Mof_O 	O 	0.4932	0.7677	0.6116	-0.339
Mof_O 	O 	0.4873	0.8413	0.9721	-0.462
Mof_O 	O 	0.4952	0.975	0.9243	-0.496
Mof_N 	N 	0.6585	0.6118	0.5551	-0.238
Mof_N 	N 	0.3353	0.6005	0.5707	-0.236
Mof_C 	C 	0.7156	0.5646	0.5968	0.095
Mof_H 	H 	0.687	0.5396	0.6345	-0.004
Mof_C 	C 	0.8164	0.5513	0.5859	-0.172
Mof_H 	H 	0.8536	0.5185	0.6161	0.091
Mof_C 	C 	0.8599	0.5873	0.5301	0.124
Mof_C 	C 	0.8028	0.643	0.4906	-0.178
Mof_H 	H 	0.8307	0.6736	0.455	0.103
Mof_C 	C 	0.7037	0.6521	0.5051	0.104
Mof_H 	H 	0.6662	0.689	0.4778	-0.006
Mof_C 	C 	0.9612	0.5647	0.5039	-0.077
Mof_H 	H 	0.9916	0.6178	0.4841	0.065
Mof_C 	C 	0.2796	0.6313	0.5212	0.094
Mof_H 	H 	0.309	0.6676	0.4893	-0.001
Mof_C 	C 	0.181	0.6123	0.5147	-0.167
Mof_H 	H 	0.1449	0.6363	0.4797	0.096
Mof_C 	C 	0.1358	0.5569	0.5609	0.111
Mof_C 	C 	0.1924	0.5313	0.6155	-0.169
Mof_H 	H 	0.1638	0.4995	0.6502	0.091
Mof_C 	C 	0.2915	0.5535	0.618	0.102
Mof_H 	H 	0.3286	0.5346	0.6543	-0.006
Mof_C 	C 	0.0373	0.5153	0.5483	-0.059
Mof_H 	H 	0.0069	0.4964	0.5902	0.048
Mof_C 	C 	0.4993	0.7215	0.6633	0.297
Mof_C 	C 	0.4976	0.7675	0.7308	-0.035
Mof_C 	C 	0.5005	0.7166	0.7879	-0.051
Mof_H 	H 	0.5037	0.6549	0.7848	0.063
Mof_C 	C 	0.4987	0.757	0.8497	0.012
Mof_H 	H 	0.5008	0.7225	0.8881	0.041
Mof_C 	C 	0.4938	0.8494	0.8544	-0.108
Mof_C 	C 	0.4918	0.9017	0.7963	0.004
Mof_H 	H 	0.4892	0.9636	0.7989	0.04
Mof_C 	C 	0.4938	0.8593	0.7351	-0.048
Mof_H 	H 	0.4926	0.8932	0.6963	0.054
Mof_C 	C 	0.4917	0.8936	0.9217	0.411
Mof_Zn	Zn	0.50248	0.10974	0.93513	1.222
Mof_O 	O 	0.4952	0.1383	0.8368	-0.421
Mof_O 	O 	0.5068	0.2677	0.8884	-0.338
Mof_O 	O 	0.5127	0.3413	0.5279	-0.462
Mof_O 	O 	0.5048	0.475	0.5757	-0.496
Mof_N 	N 	0.3415	0.1118	0.9449	-0.238
Mof_N 	N 	0.6647	0.1005	0.9293	-0.235
Mof_C 	C 	0.2844	0.0646	0.9032	0.097
Mof_H 	H 	0.313	0.0396	0.8655	-0.005
Mof_C 	C 	0.1836	0.0513	0.9141	-0.174
Mof_H 	H 	0.1464	0.0185	0.8839	0.092
Mof_C 	C 	0.1401	0.0873	0.9699	0.127
Mof_C 	C 	0.1972	0.143	0.0094	-0.183
Mof_H 	H 	0.1693	0.1736	0.045	0.104
Mof_C 	C 	0.2963	0.1521	0.9949	0.108
Mof_H 	H 	0.3338	0.189	0.0222	-0.007
Mof_C 	C 	0.0388	0.0647	0.9961	-0.076
Mof_H 	H 	0.0084	0.1178	0.0159	0.063
Mof_C 	C 	0.7204	0.1313	0.9788	0.092
Mof_H 	H 	0.691	0.1676	0.0107	0.002
Mof_C 	C 	0.819	0.1123	0.9853	-0.174
Mof_H 	H 	0.8551	0.1363	0.0203	0.102
Mof_C 	C 	0.8642	0.0569	0.9391	0.112
Mof_C 	C 	0.8076	0.0313	0.8845	-0.166
Mof_H 	H 	0.8362	0.9995	0.8498	0.089
Mof_C 	C 	0.7085	0.0535	0.882	0.101
Mof_H 	H 	0.6714	0.0346	0.8457	-0.005
Mof_C 	C 	0.9627	0.0153	0.9517	-0.057
Mof_H 	H 	0.9931	0.9964	0.9098	0.045
Mof_C 	C 	0.5007	0.2215	0.8367	0.297
Mof_C 	C 	0.5024	0.2675	0.7692	-0.035
Mof_C 	C 	0.4995	0.2166	0.7121	-0.051
Mof_H 	H 	0.4963	0.1549	0.7152	0.063
Mof_C 	C 	0.5013	0.257	0.6503	0.012
Mof_H 	H 	0.4992	0.2225	0.6119	0.041
Mof_C 	C 	0.5062	0.3494	0.6456	-0.108
Mof_C 	C 	0.5082	0.4017	0.7037	0.004
Mof_H 	H 	0.5108	0.4636	0.7011	0.04
Mof_C 	C 	0.5062	0.3593	0.7649	-0.048
Mof_H 	H 	0.5074	0.3932	0.8037	0.054
Mof_C 	C 	0.5083	0.3936	0.5783	0.411
Mof_Zn	Zn	0.50248	0.39026	0.43513	1.222
Mof_O 	O 	0.4952	0.3617	0.3368	-0.421
Mof_O 	O 	0.5068	0.2323	0.3884	-0.338
Mof_O 	O 	0.5127	0.1587	0.0279	-0.461
Mof_O 	O 	0.5048	0.025	0.0757	-0.495
Mof_N 	N 	0.3415	0.3882	0.4449	-0.237
Mof_N 	N 	0.6647	0.3995	0.4293	-0.235
Mof_C 	C 	0.2844	0.4354	0.4032	0.096
Mof_H 	H 	0.313	0.4604	0.3655	-0.004
Mof_C 	C 	0.1836	0.4487	0.4141	-0.172
Mof_H 	H 	0.1464	0.4815	0.3839	0.091
Mof_C 	C 	0.1401	0.4127	0.4699	0.124
Mof_C 	C 	0.1972	0.357	0.5094	-0.178
Mof_H 	H 	0.1693	0.3264	0.545	0.103
Mof_C 	C 	0.2963	0.3479	0.4949	0.104
Mof_H 	H 	0.3338	0.311	0.5222	-0.006
Mof_C 	C 	0.0388	0.4353	0.4961	-0.077
Mof_H 	H 	0.0084	0.3822	0.5159	0.065
Mof_C 	C 	0.7204	0.3687	0.4788	0.094
Mof_H 	H 	0.691	0.3324	0.5107	-0.001
Mof_C 	C 	0.819	0.3877	0.4853	-0.167
Mof_H 	H 	0.8551	0.3637	0.5203	0.096
Mof_C 	C 	0.8642	0.4431	0.4391	0.111
Mof_C 	C 	0.8076	0.4687	0.3845	-0.169
Mof_H 	H 	0.8362	0.5005	0.3498	0.091
Mof_C 	C 	0.7085	0.4465	0.382	0.102
Mof_H 	H 	0.6714	0.4654	0.3457	-0.006
Mof_C 	C 	0.9627	0.4847	0.4517	-0.059
Mof_H 	H 	0.9931	0.5036	0.4098	0.048
Mof_C 	C 	0.5007	0.2785	0.3367	0.297
Mof_C 	C 	0.5024	0.2325	0.2692	-0.035
Mof_C 	C 	0.4995	0.2834	0.2121	-0.051
Mof_H 	H 	0.4963	0.3451	0.2152	0.063
Mof_C 	C 	0.5013	0.243	0.1503	0.012
Mof_H 	H 	0.4992	0.2775	0.1119	0.041
Mof_C 	C 	0.5062	0.1506	0.1456	-0.108
Mof_C 	C 	0.5082	0.0983	0.2037	0.004
Mof_H 	H 	0.5108	0.0364	0.2011	0.04
Mof_C 	C 	0.5062	0.1407	0.2649	-0.048
Mof_H 	H 	0.5074	0.1068	0.3037	0.054
Mof_C 	C 	0.5083	0.1064	0.0783	0.411
Mof_Zn	Zn	0.49752	0.89026	0.06487	1.222
Mof_O 	O 	0.5048	0.8617	0.1632	-0.421
Mof_O 	O 	0.4932	0.7323	0.1116	-0.338
Mof_O 	O 	0.4873	0.6587	0.4721	-0.462
Mof_O 	O 	0.4952	0.525	0.4243	-0.496
Mof_N 	N 	0.6585	0.8882	0.0551	-0.238
Mof_N 	N 	0.3353	0.8995	0.0707	-0.235
Mof_C 	C 	0.7156	0.9354	0.0968	0.097
Mof_H 	H 	0.687	0.9604	0.1345	-0.005
Mof_C 	C 	0.8164	0.9487	0.0859	-0.174
Mof_H 	H 	0.8536	0.9815	0.1161	0.092
Mof_C 	C 	0.8599	0.9127	0.0301	0.127
Mof_C 	C 	0.8028	0.857	0.9906	-0.183
Mof_H 	H 	0.8307	0.8264	0.955	0.104
Mof_C 	C 	0.7037	0.8479	0.0051	0.108
Mof_H 	H 	0.6662	0.811	0.9778	-0.007
Mof_C 	C 	0.9612	0.9353	0.0039	-0.076
Mof_H 	H 	0.9916	0.8822	0.9841	0.063
Mof_C 	C 	0.2796	0.8687	0.0212	0.092
Mof_H 	H 	0.309	0.8324	0.9893	0.002
Mof_C 	C 	0.181	0.8877	0.0147	-0.174
Mof_H 	H 	0.1449	0.8637	0.9797	0.102
Mof_C 	C 	0.1358	0.9431	0.0609	0.112
Mof_C 	C 	0.1924	0.9687	0.1155	-0.166
Mof_H 	H 	0.1638	0.0005	0.1502	0.089
Mof_C 	C 	0.2915	0.9465	0.118	0.101
Mof_H 	H 	0.3286	0.9654	0.1543	-0.005
Mof_C 	C 	0.0373	0.9847	0.0483	-0.057
Mof_H 	H 	0.0069	0.0036	0.0902	0.045
Mof_C 	C 	0.4993	0.7785	0.1633	0.297
Mof_C 	C 	0.4976	0.7325	0.2308	-0.035
Mof_C 	C 	0.5005	0.7834	0.2879	-0.051
Mof_H 	H 	0.5037	0.8451	0.2848	0.063
Mof_C 	C 	0.4987	0.743	0.3497	0.012
Mof_H 	H 	0.5008	0.7775	0.3881	0.041
Mof_C 	C 	0.4938	0.6506	0.3544	-0.108
Mof_C 	C 	0.4918	0.5983	0.2963	0.004
Mof_H 	H 	0.4892	0.5364	0.2989	0.04
Mof_C 	C 	0.4938	0.6407	0.2351	-0.048
Mof_H 	H 	0.4926	0.6068	0.1963	0.054
Mof_C 	C 	0.4917	0.6064	0.4217	0.411
Mof_Zn	Zn	0.00248	0.39026	0.06487	1.221
Mof_O 	O 	0.9952	0.3617	0.1632	-0.417
Mof_O 	O 	0.0068	0.2323	0.1116	-0.339
Mof_O 	O 	0.0127	0.1587	0.4721	-0.461
Mof_O 	O 	0.0048	0.025	0.4243	-0.496
Mof_N 	N 	0.8415	0.3882	0.0551	-0.24
Mof_N 	N 	0.1647	0.3995	0.0707	-0.235
Mof_C 	C 	0.7844	0.4354	0.0968	0.1
Mof_H 	H 	0.813	0.4604	0.1345	-0.005
Mof_C 	C 	0.6836	0.4487	0.0859	-0.177
Mof_H 	H 	0.6464	0.4815	0.1161	0.093
Mof_C 	C 	0.6401	0.4127	0.0301	0.133
Mof_C 	C 	0.6972	0.357	0.9906	-0.193
Mof_H 	H 	0.6693	0.3264	0.955	0.108
Mof_C 	C 	0.7963	0.3479	0.0051	0.12
Mof_H 	H 	0.8338	0.311	0.9778	-0.013
Mof_C 	C 	0.5388	0.4353	0.0039	-0.08
Mof_H 	H 	0.5084	0.3822	0.9841	0.066
Mof_C 	C 	0.2204	0.3687	0.0212	0.09
Mof_H 	H 	0.191	0.3324	0.9893	0.001
Mof_C 	C 	0.319	0.3877	0.0147	-0.166
Mof_H 	H 	0.3551	0.3637	0.9797	0.096
Mof_C 	C 	0.3642	0.4431	0.0609	0.11
Mof_C 	C 	0.3076	0.4687	0.1155	-0.168
Mof_H 	H 	0.3362	0.5005	0.1502	0.091
Mof_C 	C 	0.2085	0.4465	0.118	0.101
Mof_H 	H 	0.1714	0.4654	0.1543	-0.006
Mof_C 	C 	0.4627	0.4847	0.0483	-0.058
Mof_H 	H 	0.4931	0.5036	0.0902	0.047
Mof_C 	C 	0.0007	0.2785	0.1633	0.297
Mof_C 	C 	0.0024	0.2325	0.2308	-0.05
Mof_C 	C 	0.9995	0.2834	0.2879	-0.026
Mof_H 	H 	0.9963	0.3451	0.2848	0.055
Mof_C 	C 	0.0013	0.243	0.3497	-0.012
Mof_H 	H 	0.9992	0.2775	0.3881	0.052
Mof_C 	C 	0.0062	0.1506	0.3544	-0.097
Mof_C 	C 	0.0082	0.0983	0.2963	-0.008
Mof_H 	H 	0.0108	0.0364	0.2989	0.043
Mof_C 	C 	0.0062	0.1407	0.2351	-0.037
Mof_H 	H 	0.0074	0.1068	0.1963	0.05
Mof_C 	C 	0.0083	0.1064	0.4217	0.407
Mof_Zn	Zn	0.99752	0.89026	0.43513	1.222
Mof_O 	O 	0.0048	0.8617	0.3368	-0.418
Mof_O 	O 	0.9932	0.7323	0.3884	-0.337
Mof_O 	O 	0.9873	0.6587	0.0279	-0.46
Mof_O 	O 	0.9952	0.525	0.0757	-0.495
Mof_N 	N 	0.1585	0.8882	0.4449	-0.236
Mof_N 	N 	0.8353	0.8995	0.4293	-0.236
Mof_C 	C 	0.2156	0.9354	0.4032	0.096
Mof_H 	H 	0.187	0.9604	0.3655	-0.003
Mof_C 	C 	0.3164	0.9487	0.4141	-0.17
Mof_H 	H 	0.3536	0.9815	0.3839	0.091
Mof_C 	C 	0.3599	0.9127	0.4699	0.123
Mof_C 	C 	0.3028	0.857	0.5094	-0.177
Mof_H 	H 	0.3307	0.8264	0.545	0.103
Mof_C 	C 	0.2037	0.8479	0.4949	0.104
Mof_H 	H 	0.1662	0.811	0.5222	-0.005
Mof_C 	C 	0.4612	0.9353	0.4961	-0.074
Mof_H 	H 	0.4916	0.8822	0.5159	0.065
Mof_C 	C 	0.7796	0.8687	0.4788	0.095
Mof_H 	H 	0.809	0.8324	0.5107	-0.002
Mof_C 	C 	0.681	0.8877	0.4853	-0.17
Mof_H 	H 	0.6449	0.8637	0.5203	0.096
Mof_C 	C 	0.6358	0.9431	0.4391	0.114
Mof_C 	C 	0.6924	0.9687	0.3845	-0.176
Mof_H 	H 	0.6638	0.0005	0.3498	0.095
Mof_C 	C 	0.7915	0.9465	0.382	0.105
Mof_H 	H 	0.8286	0.9654	0.3457	-0.007
Mof_C 	C 	0.5373	0.9847	0.4517	-0.064
Mof_H 	H 	0.5069	0.0036	0.4098	0.049
Mof_C 	C 	0.9993	0.7785	0.3367	0.294
Mof_C 	C 	0.9976	0.7325	0.2692	-0.033
Mof_C 	C 	0.0005	0.7834	0.2121	-0.055
Mof_H 	H 	0.0037	0.8451	0.2152	0.065
Mof_C 	C 	0.9987	0.743	0.1503	0.016
Mof_H 	H 	0.0008	0.7775	0.1119	0.039
Mof_C 	C 	0.9938	0.6506	0.1456	-0.109
Mof_C 	C 	0.9918	0.5983	0.2037	0.005
Mof_H 	H 	0.9892	0.5364	0.2011	0.04
Mof_C 	C 	0.9938	0.6407	0.2649	-0.049
Mof_H 	H 	0.9926	0.6068	0.3037	0.055
Mof_C 	C 	0.9917	0.6064	0.0783	0.411
Mof_Zn	Zn	0.99752	0.60974	0.93513	1.221
Mof_O 	O 	0.0048	0.6383	0.8368	-0.417
Mof_O 	O 	0.9932	0.7677	0.8884	-0.339
Mof_O 	O 	0.9873	0.8413	0.5279	-0.461
Mof_O 	O 	0.9952	0.975	0.5757	-0.496
Mof_N 	N 	0.1585	0.6118	0.9449	-0.24
Mof_N 	N 	0.8353	0.6005	0.9293	-0.235
Mof_C 	C 	0.2156	0.5646	0.9032	0.1
Mof_H 	H 	0.187	0.5396	0.8655	-0.005
Mof_C 	C 	0.3164	0.5513	0.9141	-0.177
Mof_H 	H 	0.3536	0.5185	0.8839	0.093
Mof_C 	C 	0.3599	0.5873	0.9699	0.133
Mof_C 	C 	0.3028	0.643	0.0094	-0.193
Mof_H 	H 	0.3307	0.6736	0.045	0.108
Mof_C 	C 	0.2037	0.6521	0.9949	0.12
Mof_H 	H 	0.1662	0.689	0.0222	-0.013
Mof_C 	C 	0.4612	0.5647	0.9961	-0.08
Mof_H 	H 	0.4916	0.6178	0.0159	0.066
Mof_C 	C 	0.7796	0.6313	0.9788	0.09
Mof_H 	H 	0.809	0.6676	0.0107	0.001
Mof_C 	C 	0.681	0.6123	0.9853	-0.166
Mof_H 	H 	0.6449	0.6363	0.0203	0.096
Mof_C 	C 	0.6358	0.5569	0.9391	0.11
Mof_C 	C 	0.6924	0.5313	0.8845	-0.168
Mof_H 	H 	0.6638	0.4995	0.8498	0.091
Mof_C 	C 	0.7915	0.5535	0.882	0.101
Mof_H 	H 	0.8286	0.5346	0.8457	-0.006
Mof_C 	C 	0.5373	0.5153	0.9517	-0.058
Mof_H 	H 	0.5069	0.4964	0.9098	0.047
Mof_C 	C 	0.9993	0.7215	0.8367	0.297
Mof_C 	C 	0.9976	0.7675	0.7692	-0.05
Mof_C 	C 	0.0005	0.7166	0.7121	-0.026
Mof_H 	H 	0.0037	0.6549	0.7152	0.055
Mof_C 	C 	0.9987	0.757	0.6503	-0.012
Mof_H 	H 	0.0008	0.7225	0.6119	0.052
Mof_C 	C 	0.9938	0.8494	0.6456	-0.097
Mof_C 	C 	0.9918	0.9017	0.7037	-0.008
Mof_H 	H 	0.9892	0.9636	0.7011	0.043
Mof_C 	C 	0.9938	0.8593	0.7649	-0.037
Mof_H 	H 	0.9926	0.8932	0.8037	0.05
Mof_C 	C 	0.9917	0.8936	0.5783	0.407
Mof_Zn	Zn	0.00248	0.10974	0.56487	1.222
Mof_O 	O 	0.9952	0.1383	0.6632	-0.418
Mof_O 	O 	0.0068	0.2677	0.6116	-0.337
Mof_O 	O 	0.0127	0.3413	0.9721	-0.46
Mof_O 	O 	0.0048	0.475	0.9243	-0.495
Mof_N 	N 	0.8415	0.1118	0.5551	-0.236
Mof_N 	N 	0.1647	0.1005	0.5707	-0.236
Mof_C 	C 	0.7844	0.0646	0.5968	0.096
Mof_H 	H 	0.813	0.0396	0.6345	-0.003
Mof_C 	C 	0.6836	0.0513	0.5859	-0.17
Mof_H 	H 	0.6464	0.0185	0.6161	0.091
Mof_C 	C 	0.6401	0.0873	0.5301	0.123
Mof_C 	C 	0.6972	0.143	0.4906	-0.177
Mof_H 	H 	0.6693	0.1736	0.455	0.103
Mof_C 	C 	0.7963	0.1521	0.5051	0.104
Mof_H 	H 	0.8338	0.189	0.4778	-0.005
Mof_C 	C 	0.5388	0.0647	0.5039	-0.074
Mof_H 	H 	0.5084	0.1178	0.4841	0.065
Mof_C 	C 	0.2204	0.1313	0.5212	0.095
Mof_H 	H 	0.191	0.1676	0.4893	-0.002
Mof_C 	C 	0.319	0.1123	0.5147	-0.17
Mof_H 	H 	0.3551	0.1363	0.4797	0.096
Mof_C 	C 	0.3642	0.0569	0.5609	0.114
Mof_C 	C 	0.3076	0.0313	0.6155	-0.176
Mof_H 	H 	0.3362	0.9995	0.6502	0.095
Mof_C 	C 	0.2085	0.0535	0.618	0.105
Mof_H 	H 	0.1714	0.0346	0.6543	-0.007
Mof_C 	C 	0.4627	0.0153	0.5483	-0.064
Mof_H 	H 	0.4931	0.9964	0.5902	0.049
Mof_C 	C 	0.0007	0.2215	0.6633	0.294
Mof_C 	C 	0.0024	0.2675	0.7308	-0.033
Mof_C 	C 	0.9995	0.2166	0.7879	-0.055
Mof_H 	H 	0.9963	0.1549	0.7848	0.065
Mof_C 	C 	0.0013	0.257	0.8497	0.016
Mof_H 	H 	0.9992	0.2225	0.8881	0.039
Mof_C 	C 	0.0062	0.3494	0.8544	-0.109
Mof_C 	C 	0.0082	0.4017	0.7963	0.005
Mof_H 	H 	0.0108	0.4636	0.7989	0.04
Mof_C 	C 	0.0062	0.3593	0.7351	-0.049
Mof_H 	H 	0.0074	0.3932	0.6963	0.055
Mof_C 	C 	0.0083	0.3936	0.9217	0.411
_end
