data_functionalizedCrystal
_audit_creation_method	'EQeq! by Chris Wilmer'
_symmetry_space_group_name_H-M	'P1'
_symmetry_Int_Tables_number	1
_symmetry_cell_setting	triclinic
loop_
_symmetry_equiv_pos_as_xyz
  x,y,z
_cell_length_a	8.213
_cell_length_b	10.0257
_cell_length_c	15.5133
_cell_angle_alpha	80.842
_cell_angle_beta	75.671
_cell_angle_gamma	89.02
loop_
_atom_site_label
_atom_site_type_symbol
_atom_site_fract_x
_atom_site_fract_y
_atom_site_fract_z
_atom_site_charge
Mof_Zn	Zn	0.15924	0.26109	0.2217	1.237
Mof_Zn	Zn	0.75812	0.49598	0.0233	1.233
Mof_Zn	Zn	0.86509	0.85692	0.48061	1.228
Mof_Zn	Zn	0.71293	0.48402	0.53938	1.23
Mof_P 	P 	0.97416	0.26598	0.06147	0.551
Mof_P 	P 	0.37785	0.51083	0.13885	0.548
Mof_P 	P 	0.19541	0.99095	0.35647	0.551
Mof_P 	P 	0.00459	0.39984	0.39011	0.549
Mof_P 	P 	0.51975	0.73438	0.48321	0.535
Mof_O 	O 	0.82	0.3431	0.1039	-0.431
Mof_O 	O 	0.0866	0.3558	0.98095	-0.452
Mof_O 	O 	0.0081	0.9633	0.37358	-0.452
Mof_O 	O 	0.5453	0.5667	0.07798	-0.431
Mof_O 	O 	0.2341	0.5496	0.09394	-0.455
Mof_O 	O 	0.547	0.6259	0.55765	-0.461
Mof_O 	O 	0.3775	0.359	0.16826	-0.446
Mof_O 	O 	0.6861	0.8036	0.42679	-0.412
Mof_O 	O 	0.8457	0.48	0.42043	-0.442
Mof_O 	O 	0.0643	0.204	0.13135	-0.419
Mof_O 	O 	0.258	0.1084	0.28077	-0.411
Mof_O 	O 	0.1613	0.4946	0.37347	-0.478
Mof_O 	O 	0.429	0.6832	0.41919	-0.433
Mof_O 	O 	0.0153	0.2762	0.45864	-0.525
Mof_O 	O 	0.2448	0.0122	0.44234	-0.473
Mof_O 	O 	0.0011	0.3642	0.297	-0.416
Mof_O 	O 	0.9128	0.1455	0.0239	-0.385
Mof_H 	H 	0.8161	0.1582	0.0193	0.268
Mof_O 	O 	0.4063	0.8385	0.53436	-0.445
Mof_H 	H 	0.3624	0.8874	0.4993	0.294
Mof_O 	O 	0.3522	0.5847	0.22252	-0.414
Mof_H 	H 	0.2858	0.5406	0.2656	0.282
Mof_O 	O 	0.2951	0.8671	0.32089	-0.41
Mof_H 	H 	0.3268	0.8211	0.362	0.284
Mof_Zn	Zn	0.84076	0.73891	0.7783	1.238
Mof_Zn	Zn	0.24188	0.50402	0.9767	1.234
Mof_Zn	Zn	0.13491	0.14308	0.51939	1.228
Mof_Zn	Zn	0.28707	0.51598	0.46062	1.23
Mof_P 	P 	0.02584	0.73402	0.93853	0.551
Mof_P 	P 	0.62215	0.48917	0.86115	0.548
Mof_P 	P 	0.80459	0.00905	0.64353	0.551
Mof_P 	P 	0.99541	0.60016	0.60989	0.549
Mof_P 	P 	0.48025	0.26562	0.51679	0.535
Mof_O 	O 	0.18	0.6569	0.8961	-0.431
Mof_O 	O 	0.9134	0.6442	0.01905	-0.452
Mof_O 	O 	0.9919	0.0367	0.62642	-0.452
Mof_O 	O 	0.4547	0.4333	0.92202	-0.431
Mof_O 	O 	0.7659	0.4504	0.90606	-0.455
Mof_O 	O 	0.453	0.3741	0.44235	-0.461
Mof_O 	O 	0.6225	0.641	0.83174	-0.446
Mof_O 	O 	0.3139	0.1964	0.57321	-0.412
Mof_O 	O 	0.1543	0.52	0.57957	-0.442
Mof_O 	O 	0.9357	0.796	0.86865	-0.419
Mof_O 	O 	0.742	0.8916	0.71923	-0.411
Mof_O 	O 	0.8387	0.5054	0.62653	-0.478
Mof_O 	O 	0.571	0.3168	0.58081	-0.433
Mof_O 	O 	0.9847	0.7238	0.54136	-0.525
Mof_O 	O 	0.7552	0.9878	0.55766	-0.473
Mof_O 	O 	0.9989	0.6358	0.703	-0.416
Mof_O 	O 	0.0872	0.8545	0.9761	-0.385
Mof_H 	H 	0.1839	0.8418	0.9807	0.268
Mof_O 	O 	0.5937	0.1615	0.46564	-0.445
Mof_H 	H 	0.6376	0.1126	0.5007	0.294
Mof_O 	O 	0.6478	0.4153	0.77748	-0.414
Mof_H 	H 	0.7142	0.4594	0.7344	0.282
Mof_O 	O 	0.7049	0.1329	0.67911	-0.41
Mof_H 	H 	0.6732	0.1789	0.638	0.284
_end
