data_functionalizedCrystal
_audit_creation_method	'EQeq! by Chris Wilmer'
_symmetry_space_group_name_H-M	'P1'
_symmetry_Int_Tables_number	1
_symmetry_cell_setting	triclinic
loop_
_symmetry_equiv_pos_as_xyz
  x,y,z
_cell_length_a	13.901
_cell_length_b	12.713
_cell_length_c	7.07
_cell_angle_alpha	90
_cell_angle_beta	91.139
_cell_angle_gamma	90
loop_
_atom_site_label
_atom_site_type_symbol
_atom_site_fract_x
_atom_site_fract_y
_atom_site_fract_z
_atom_site_charge
Mof_C 	C 	0.8049	0.9652	0.4295	-0.009
Mof_H 	H 	0.8142	0.9802	0.2967	0.028
Mof_H 	H 	0.7748	0.0264	0.4851	-0.029
Mof_C 	C 	0.7365	0.8725	0.4448	0.102
Mof_C 	C 	0.9482	0.8535	0.4653	0.106
Mof_H 	H 	0.9463	0.8469	0.3286	-0.004
Mof_H 	H 	0.9153	0.7932	0.5177	0.014
Mof_C 	C 	0.7094	0.8378	0.6153	-0.153
Mof_H 	H 	0.7316	0.871	0.725	0.1
Mof_C 	C 	0.6961	0.8275	0.2912	-0.176
Mof_H 	H 	0.7082	0.8543	0.1716	0.065
Mof_C 	C 	0.6355	0.74	0.3103	0.098
Mof_H 	H 	0.6143	0.7055	0.2011	-0.04
Mof_C 	C 	0.6461	0.7492	0.6263	0.081
Mof_H 	H 	0.6316	0.7222	0.7447	0.011
Mof_N 	N 	0.8978	0.9501	0.5196	-0.251
Mof_H 	H 	0.886	0.943	0.6451	0.119
Mof_N 	N 	0.6074	0.7043	0.4735	-0.252
Mof_O 	O 	0.9787	0.0798	0.2015	-0.413
Mof_C 	C 	0.3049	0.4652	0.4295	-0.142
Mof_H 	H 	0.3142	0.4802	0.2967	0.026
Mof_H 	H 	0.2748	0.5264	0.4851	0.042
Mof_C 	C 	0.2365	0.3725	0.4448	0.128
Mof_C 	C 	0.4482	0.3535	0.4653	-0.07
Mof_H 	H 	0.4463	0.3469	0.3286	-0.008
Mof_H 	H 	0.4153	0.2932	0.5177	0.034
Mof_C 	C 	0.2094	0.3378	0.6153	-0.189
Mof_H 	H 	0.2316	0.371	0.725	0.085
Mof_C 	C 	0.1961	0.3275	0.2912	-0.213
Mof_H 	H 	0.2082	0.3543	0.1716	0.05
Mof_C 	C 	0.1355	0.24	0.3103	0.089
Mof_H 	H 	0.1143	0.2055	0.2011	-0.067
Mof_C 	C 	0.1461	0.2492	0.6263	0.072
Mof_H 	H 	0.1316	0.2222	0.7447	-0.007
Mof_N 	N 	0.3978	0.4501	0.5196	-0.241
Mof_H 	H 	0.386	0.443	0.6451	0.063
Mof_N 	N 	0.1074	0.2043	0.4735	-0.277
Mof_O 	O 	0.4787	0.5798	0.2015	-0.553
Mof_C 	C 	0.1951	0.9652	0.5705	-0.029
Mof_H 	H 	0.1858	0.9802	0.7033	0.049
Mof_H 	H 	0.2252	0.0264	0.5149	-0.035
Mof_C 	C 	0.2635	0.8725	0.5552	0.114
Mof_C 	C 	0.0518	0.8535	0.5347	-0.27
Mof_H 	H 	0.0537	0.8469	0.6714	0.071
Mof_H 	H 	0.0847	0.7932	0.4823	0.074
Mof_C 	C 	0.2906	0.8378	0.3847	-0.17
Mof_H 	H 	0.2684	0.871	0.275	0.061
Mof_C 	C 	0.3039	0.8275	0.7088	-0.182
Mof_H 	H 	0.2918	0.8543	0.8284	0.106
Mof_C 	C 	0.3645	0.74	0.6897	0.104
Mof_H 	H 	0.3857	0.7055	0.7989	-0.005
Mof_C 	C 	0.3539	0.7492	0.3737	0.076
Mof_H 	H 	0.3684	0.7222	0.2553	-0.026
Mof_N 	N 	0.1022	0.9501	0.4804	-0.22
Mof_H 	H 	0.114	0.943	0.3549	0.051
Mof_N 	N 	0.3926	0.7043	0.5265	-0.253
Mof_O 	O 	0.0213	0.0798	0.7985	-0.496
Mof_C 	C 	0.6951	0.4652	0.5705	-0.18
Mof_H 	H 	0.6858	0.4802	0.7033	0.069
Mof_H 	H 	0.7252	0.5264	0.5149	0.068
Mof_C 	C 	0.7635	0.3725	0.5552	0.165
Mof_C 	C 	0.5518	0.3535	0.5347	-0.105
Mof_H 	H 	0.5537	0.3469	0.6714	0.028
Mof_H 	H 	0.5847	0.2932	0.4823	0.04
Mof_C 	C 	0.7906	0.3378	0.3847	-0.197
Mof_H 	H 	0.7684	0.371	0.275	0.066
Mof_C 	C 	0.8039	0.3275	0.7088	-0.208
Mof_H 	H 	0.7918	0.3543	0.8284	0.115
Mof_C 	C 	0.8645	0.24	0.6897	0.124
Mof_H 	H 	0.8857	0.2055	0.7989	0.017
Mof_C 	C 	0.8539	0.2492	0.3737	0.097
Mof_H 	H 	0.8684	0.2222	0.2553	-0.02
Mof_N 	N 	0.6022	0.4501	0.4804	-0.226
Mof_H 	H 	0.614	0.443	0.3549	0.041
Mof_N 	N 	0.8926	0.2043	0.5265	-0.236
Mof_O 	O 	0.5213	0.5798	0.7985	-0.49
Mof_Zn	Zn	1.42201e-18	0.08125	0.5	1.144
Mof_Zn	Zn	0.5	0.58125	0.5	1.195
Mof_Mo	Mo	4.93359e-36	0.00072	-0	0.455
Mof_Mo	Mo	0.5	0.50072	-0	0.799
_end
