data_functionalizedCrystal
_audit_creation_method	'EQeq! by Chris Wilmer'
_symmetry_space_group_name_H-M	'P1'
_symmetry_Int_Tables_number	1
_symmetry_cell_setting	triclinic
loop_
_symmetry_equiv_pos_as_xyz
  x,y,z
_cell_length_a	15.1423
_cell_length_b	15.1423
_cell_length_c	12.0449
_cell_angle_alpha	90
_cell_angle_beta	90
_cell_angle_gamma	90
loop_
_atom_site_label
_atom_site_type_symbol
_atom_site_fract_x
_atom_site_fract_y
_atom_site_fract_z
_atom_site_charge
Mof_O 	O 	0.6022	0.2906	0.7615	-0.516
Mof_O 	O 	0.6225	0.3807	0.6142	-0.51
Mof_C 	C 	0.5925	0.3601	0.7069	0.429
Mof_C 	C 	0.541	0.432	0.7624	-0.089
Mof_C 	C 	0.5458	0.4327	0.8816	-0.053
Mof_H 	H 	0.57318	0.38162	0.90735	0.078
Mof_O 	O 	0.1022	0.7906	0.2615	-0.525
Mof_O 	O 	0.1225	0.8807	0.1142	-0.522
Mof_C 	C 	0.0925	0.8601	0.2069	0.433
Mof_C 	C 	0.041	0.932	0.2624	-0.097
Mof_C 	C 	0.0458	0.9327	0.3816	0.013
Mof_H 	H 	0.07318	0.88162	0.40735	0.041
Mof_O 	O 	0.8978	0.2094	0.2615	-0.525
Mof_O 	O 	0.8775	0.1193	0.1142	-0.526
Mof_C 	C 	0.9075	0.1399	0.2069	0.434
Mof_C 	C 	0.959	0.068	0.2624	-0.106
Mof_C 	C 	0.9542	0.0673	0.3816	0.001
Mof_H 	H 	0.92682	0.11838	0.40735	0.044
Mof_O 	O 	0.3978	0.7094	0.7615	-0.513
Mof_O 	O 	0.3775	0.6193	0.6142	-0.51
Mof_C 	C 	0.4075	0.6399	0.7069	0.429
Mof_C 	C 	0.459	0.568	0.7624	-0.088
Mof_C 	C 	0.4542	0.5673	0.8816	-0.053
Mof_H 	H 	0.42682	0.61838	0.90735	0.079
Mof_O 	O 	0.7094	0.1022	0.0115	-0.616
Mof_O 	O 	0.6193	0.1225	0.8642	-0.557
Mof_C 	C 	0.6399	0.0925	0.9569	0.644
Mof_C 	C 	0.568	0.041	0.0124	-0.402
Mof_C 	C 	0.5673	0.0458	0.1316	0.154
Mof_H 	H 	0.61838	0.07318	0.15735	-0.012
Mof_O 	O 	0.2094	0.6022	0.5115	-0.525
Mof_O 	O 	0.1193	0.6225	0.3642	-0.52
Mof_C 	C 	0.1399	0.5925	0.4569	0.443
Mof_C 	C 	0.068	0.541	0.5124	-0.13
Mof_C 	C 	0.0673	0.5458	0.6316	0.021
Mof_H 	H 	0.11838	0.57318	0.65735	0.037
Mof_O 	O 	0.7906	0.3978	0.5115	-0.523
Mof_O 	O 	0.8807	0.3775	0.3642	-0.518
Mof_C 	C 	0.8601	0.4075	0.4569	0.442
Mof_C 	C 	0.932	0.459	0.5124	-0.122
Mof_C 	C 	0.9327	0.4542	0.6316	0.031
Mof_H 	H 	0.88162	0.42682	0.65735	0.036
Mof_O 	O 	0.2906	0.8978	0.0115	-0.614
Mof_O 	O 	0.3807	0.8775	0.8642	-0.551
Mof_C 	C 	0.3601	0.9075	0.9569	0.646
Mof_C 	C 	0.432	0.959	0.0124	-0.386
Mof_C 	C 	0.4327	0.9542	0.1316	0.176
Mof_H 	H 	0.38162	0.92682	0.15735	-0.016
Mof_O 	O 	0.8978	0.2906	0.9885	-0.419
Mof_O 	O 	0.8775	0.3807	0.1358	-0.467
Mof_C 	C 	0.9075	0.3601	0.0431	0.221
Mof_C 	C 	0.959	0.432	0.9876	0.195
Mof_C 	C 	0.9542	0.4327	0.8684	-0.174
Mof_H 	H 	0.92682	0.38162	0.84265	0.107
Mof_O 	O 	0.3978	0.7906	0.4885	-0.518
Mof_O 	O 	0.3775	0.8807	0.6358	-0.501
Mof_C 	C 	0.4075	0.8601	0.5431	0.425
Mof_C 	C 	0.459	0.932	0.4876	-0.071
Mof_C 	C 	0.4542	0.9327	0.3684	-0.027
Mof_H 	H 	0.42682	0.88162	0.34265	0.055
Mof_O 	O 	0.6022	0.2094	0.4885	-0.521
Mof_O 	O 	0.6225	0.1193	0.6358	-0.508
Mof_C 	C 	0.5925	0.1399	0.5431	0.427
Mof_C 	C 	0.541	0.068	0.4876	-0.089
Mof_C 	C 	0.5458	0.0673	0.3684	-0.047
Mof_H 	H 	0.57318	0.11838	0.34265	0.059
Mof_O 	O 	0.1022	0.7094	0.9885	-0.42
Mof_O 	O 	0.1225	0.6193	0.1358	-0.47
Mof_C 	C 	0.0925	0.6399	0.0431	0.222
Mof_C 	C 	0.041	0.568	0.9876	0.186
Mof_C 	C 	0.0458	0.5673	0.8684	-0.183
Mof_H 	H 	0.07318	0.61838	0.84265	0.109
Mof_O 	O 	0.7906	0.1022	0.7385	-0.517
Mof_O 	O 	0.8807	0.1225	0.8858	-0.489
Mof_C 	C 	0.8601	0.0925	0.7931	0.426
Mof_C 	C 	0.932	0.041	0.7376	-0.085
Mof_C 	C 	0.9327	0.0458	0.6184	-0.01
Mof_H 	H 	0.88162	0.07318	0.59265	0.047
Mof_O 	O 	0.2906	0.6022	0.2385	-0.532
Mof_O 	O 	0.3807	0.6225	0.3858	-0.517
Mof_C 	C 	0.3601	0.5925	0.2931	0.447
Mof_C 	C 	0.432	0.541	0.2376	-0.141
Mof_C 	C 	0.4327	0.5458	0.1184	0.028
Mof_H 	H 	0.38162	0.57318	0.09265	0.018
Mof_O 	O 	0.7094	0.3978	0.2385	-0.531
Mof_O 	O 	0.6193	0.3775	0.3858	-0.517
Mof_C 	C 	0.6399	0.4075	0.2931	0.447
Mof_C 	C 	0.568	0.459	0.2376	-0.141
Mof_C 	C 	0.5673	0.4542	0.1184	0.027
Mof_H 	H 	0.61838	0.42682	0.09265	0.019
Mof_O 	O 	0.2094	0.8978	0.7385	-0.513
Mof_O 	O 	0.1193	0.8775	0.8858	-0.485
Mof_C 	C 	0.1399	0.9075	0.7931	0.425
Mof_C 	C 	0.068	0.959	0.7376	-0.073
Mof_C 	C 	0.0673	0.9542	0.6184	0.001
Mof_H 	H 	0.11838	0.92682	0.59265	0.046
Mof_V 	V 	0.68935	0.31065	0.5	1.802
Mof_V 	V 	0.18935	0.81065	-0	1.779
Mof_V 	V 	0.81065	0.18935	-0	1.78
Mof_V 	V 	0.31065	0.68935	0.5	1.802
Mof_V 	V 	0.68935	0.18935	0.75	1.804
Mof_V 	V 	0.18935	0.68935	0.25	1.8
Mof_V 	V 	0.81065	0.31065	0.25	1.8
Mof_V 	V 	0.31065	0.81065	0.75	1.805
Mof_O 	O 	0.7439	0.25	0.625	-0.79
Mof_H 	H 	0.806	0.25	0.625	0.228
Mof_O 	O 	0.2439	0.75	0.125	-0.797
Mof_H 	H 	0.306	0.75	0.125	0.223
Mof_O 	O 	0.7561	0.25	0.125	-0.797
Mof_H 	H 	0.694	0.25	0.125	0.222
Mof_O 	O 	0.2561	0.75	0.625	-0.79
Mof_H 	H 	0.194	0.75	0.625	0.228
Mof_O 	O 	0.75	0.2439	0.875	-0.775
Mof_H 	H 	0.75	0.306	0.875	0.233
Mof_O 	O 	0.25	0.7439	0.375	-0.79
Mof_H 	H 	0.25	0.806	0.375	0.229
Mof_O 	O 	0.75	0.2561	0.375	-0.79
Mof_H 	H 	0.75	0.194	0.375	0.228
Mof_O 	O 	0.25	0.7561	0.875	-0.775
Mof_H 	H 	0.25	0.694	0.875	0.233
Mof_C 	C 	0.5	0.5	0.708	0.048
Mof_C 	C 	0.5	0.5	0.9371	0.102
Mof_H 	H 	0.5	0.5	0.631	0.05
Mof_C 	C 	-5.22196e-34	0	0.208	0.027
Mof_C 	C 	5.87381e-33	4.57018e-33	0.4371	-0.028
Mof_H 	H 	3.90701e-34	0	0.131	0.035
Mof_C 	C 	0.5	0	0.958	0.417
Mof_C 	C 	0.5	0	0.1871	-0.144
Mof_H 	H 	0.5	0	0.881	-0.074
Mof_C 	C 	5.93614e-33	0.5	0.458	0.074
Mof_C 	C 	-1.16613e-32	0.5	0.6871	-0.056
Mof_H 	H 	7.99159e-33	0.5	0.381	0.032
Mof_C 	C 	-1.87419e-33	0.5	0.042	-0.33
Mof_C 	C 	-6.71593e-33	0.5	0.8129	0.13
Mof_H 	H 	2.64e-33	0.5	0.119	0.165
Mof_C 	C 	0.5	-4.57018e-33	0.542	0.015
Mof_C 	C 	0.5	-2.28509e-33	0.3129	0.039
Mof_H 	H 	0.5	0	0.619	0.058
Mof_C 	C 	2.3621e-33	4.57018e-33	0.792	0.007
Mof_C 	C 	1.67882e-33	0	0.5629	-0.016
Mof_H 	H 	2.59175e-33	0	0.869	0.064
Mof_C 	C 	0.5	0.5	0.292	0.093
Mof_C 	C 	0.5	0.5	0.0629	-0.09
Mof_H 	H 	0.5	0.5	0.369	0.033
_end
