data_functionalizedCrystal
_audit_creation_method	'EQeq! by Chris Wilmer'
_symmetry_space_group_name_H-M	'P1'
_symmetry_Int_Tables_number	1
_symmetry_cell_setting	triclinic
loop_
_symmetry_equiv_pos_as_xyz
  x,y,z
_cell_length_a	24.001
_cell_length_b	17.455
_cell_length_c	11.676
_cell_angle_alpha	90
_cell_angle_beta	105.096
_cell_angle_gamma	90
loop_
_atom_site_label
_atom_site_type_symbol
_atom_site_fract_x
_atom_site_fract_y
_atom_site_fract_z
_atom_site_charge
Mof_Cl	Cl	0.121	0.32	0.7543	-1.003
Mof_C 	C 	0.857	0.54	0.162	-0.016
Mof_C 	C 	0.852	0.488	0.054	0.105
Mof_Cu	Cu	0.0533	0.255	0.611	0.578
Mof_Cu	Cu	0.892	0.244	0.393	0.653
Mof_Cu	Cu	0.0359	0.408	0.878	0.809
Mof_Cu	Cu	0.8789	0.3214	0.8349	0.829
Mof_Cu	Cu	0.0327	0.2252	0.885	0.793
Mof_Cu	Cu	0.7496	0.5724	0.999	0.833
Mof_Cu	Cu	0.0586	0.382	0.612	0.571
Mof_Cu	Cu	0.89	0.402	0.388	0.654
Mof_N 	N 	0.809	0.497	0.959	-0.215
Mof_N 	N 	0.887	0.438	0.031	-0.21
Mof_N 	N 	0.812	0.452	0.887	-0.062
Mof_N 	N 	0.86	0.42	0.923	-0.175
Mof_N 	N 	0.81	0.587	0.154	-0.217
Mof_C 	C 	0.904	0.542	0.246	-0.105
Mof_H 	H 	0.9348	0.5101	0.245	-0.037
Mof_C 	C 	0.908	0.596	0.345	-0.022
Mof_H 	H 	0.9401	0.598	0.4097	0.007
Mof_C 	C 	0.862	0.643	0.337	-0.106
Mof_H 	H 	0.8617	0.6773	0.3975	0.061
Mof_C 	C 	0.816	0.639	0.236	0.063
Mof_H 	H 	0.7865	0.6759	0.2277	0.005
Mof_C 	C 	0.234	0.481	0.633	0.048
Mof_H 	H 	0.2466	0.4598	0.7076	-0.015
Mof_C 	C 	0.268	0.532	0.591	-0.107
Mof_H 	H 	0.3049	0.5446	0.6384	0.05
Mof_C 	C 	0.249	0.565	0.479	0.019
Mof_H 	H 	0.2721	0.5986	0.4514	0.01
Mof_C 	C 	0.194	0.546	0.408	-0.097
Mof_H 	H 	0.1812	0.5679	0.3335	0.061
Mof_C 	C 	0.159	0.495	0.45	0.03
Mof_N 	N 	0.179	0.463	0.562	-0.208
Mof_C 	C 	0.088	0.087	0.742	-0.126
Mof_H 	H 	0.0533	0.1115	0.7378	-0.014
Mof_C 	C 	0.134	0.095	0.843	-0
Mof_N 	N 	0.186	0.058	0.849	-0.223
Mof_C 	C 	0.193	0.014	0.754	0.017
Mof_H 	H 	0.2274	0.9894	0.7584	0.007
Mof_C 	C 	0.147	0.006	0.654	-0.085
Mof_H 	H 	0.1511	0.9763	0.5904	0.048
Mof_C 	C 	0.095	0.043	0.647	-0.028
Mof_H 	H 	0.0641	0.0374	0.5801	0.015
Mof_N 	N 	0.809	0.309	0.657	-0.179
Mof_C 	C 	0.752	0.333	0.637	0.036
Mof_H 	H 	0.7388	0.3531	0.6986	0.005
Mof_C 	C 	0.715	0.328	0.523	-0.094
Mof_H 	H 	0.677	0.3443	0.5098	0.055
Mof_C 	C 	0.735	0.298	0.431	0.005
Mof_H 	H 	0.7101	0.2949	0.3552	0.021
Mof_C 	C 	0.792	0.274	0.451	-0.093
Mof_H 	H 	0.8051	0.2543	0.3894	-0.031
Mof_C 	C 	0.829	0.279	0.564	-0.027
Mof_N 	N 	0.198	0.147	0.022	-0.173
Mof_N 	N 	0.195	0.205	0.103	-0.069
Mof_N 	N 	0.139	0.237	0.071	-0.163
Mof_N 	N 	0.107	0.198	0.969	-0.249
Mof_C 	C 	0.144	0.142	0.938	-0.002
Mof_N 	N 	0.9755	0.246	0.732	-0.24
Mof_N 	N 	0.92	0.265	0.722	-0.193
Mof_C 	C 	0.892	0.258	0.607	-0.021
Mof_N 	N 	0.93	0.22	0.549	-0.3
Mof_N 	N 	0.978	0.217	0.629	-0.22
Mof_N 	N 	0.064	0.425	0.446	-0.28
Mof_C 	C 	0.101	0.468	0.389	0.043
Mof_N 	N 	0.077	0.473	0.272	-0.123
Mof_N 	N 	0.022	0.436	0.265	-0.194
Mof_N 	N 	0.983	0.41	0.635	-0.239
Mof_Cl	Cl	0.621	0.82	0.7543	-1.005
Mof_C 	C 	0.357	0.04	0.162	-0.007
Mof_C 	C 	0.352	0.988	0.054	0.104
Mof_Cu	Cu	0.5533	0.755	0.611	0.573
Mof_Cu	Cu	0.392	0.744	0.393	0.653
Mof_Cu	Cu	0.5359	0.908	0.878	0.803
Mof_Cu	Cu	0.3789	0.8214	0.8349	0.831
Mof_Cu	Cu	0.5327	0.7252	0.885	0.787
Mof_Cu	Cu	0.2496	0.0724	0.999	0.834
Mof_Cu	Cu	0.5586	0.882	0.612	0.565
Mof_Cu	Cu	0.39	0.902	0.388	0.654
Mof_N 	N 	0.309	0.997	0.959	-0.217
Mof_N 	N 	0.387	0.938	0.031	-0.206
Mof_N 	N 	0.312	0.952	0.887	-0.063
Mof_N 	N 	0.36	0.92	0.923	-0.176
Mof_N 	N 	0.31	0.087	0.154	-0.217
Mof_C 	C 	0.404	0.042	0.246	-0.108
Mof_H 	H 	0.4348	0.0101	0.245	-0.029
Mof_C 	C 	0.408	0.096	0.345	-0.017
Mof_H 	H 	0.4401	0.098	0.4097	0.012
Mof_C 	C 	0.362	0.143	0.337	-0.107
Mof_H 	H 	0.3617	0.1773	0.3975	0.064
Mof_C 	C 	0.316	0.139	0.236	0.065
Mof_H 	H 	0.2865	0.1759	0.2277	0.006
Mof_C 	C 	0.734	0.981	0.633	0.035
Mof_H 	H 	0.7466	0.9598	0.7076	-0.012
Mof_C 	C 	0.768	0.032	0.591	-0.091
Mof_H 	H 	0.8049	0.0446	0.6384	0.044
Mof_C 	C 	0.749	0.065	0.479	0.007
Mof_H 	H 	0.7721	0.0986	0.4514	0.014
Mof_C 	C 	0.694	0.046	0.408	-0.082
Mof_H 	H 	0.6812	0.0679	0.3335	0.056
Mof_C 	C 	0.659	0.995	0.45	0.02
Mof_N 	N 	0.679	0.963	0.562	-0.205
Mof_C 	C 	0.588	0.587	0.742	-0.128
Mof_H 	H 	0.5533	0.6115	0.7378	-0.019
Mof_C 	C 	0.634	0.595	0.843	-0.002
Mof_N 	N 	0.686	0.558	0.849	-0.222
Mof_C 	C 	0.693	0.514	0.754	0.011
Mof_H 	H 	0.7274	0.4894	0.7584	0.012
Mof_C 	C 	0.647	0.506	0.654	-0.094
Mof_H 	H 	0.6511	0.4763	0.5904	0.053
Mof_C 	C 	0.595	0.543	0.647	-0.025
Mof_H 	H 	0.5641	0.5374	0.5801	0.007
Mof_N 	N 	0.309	0.809	0.657	-0.179
Mof_C 	C 	0.252	0.833	0.637	0.036
Mof_H 	H 	0.2388	0.8531	0.6986	0.004
Mof_C 	C 	0.215	0.828	0.523	-0.095
Mof_H 	H 	0.177	0.8443	0.5098	0.056
Mof_C 	C 	0.235	0.798	0.431	0.005
Mof_H 	H 	0.2101	0.7949	0.3552	0.022
Mof_C 	C 	0.292	0.774	0.451	-0.093
Mof_H 	H 	0.3051	0.7543	0.3894	-0.031
Mof_C 	C 	0.329	0.779	0.564	-0.026
Mof_N 	N 	0.698	0.647	0.022	-0.175
Mof_N 	N 	0.695	0.705	0.103	-0.07
Mof_N 	N 	0.639	0.737	0.071	-0.164
Mof_N 	N 	0.607	0.698	0.969	-0.249
Mof_C 	C 	0.644	0.642	0.938	-0.002
Mof_N 	N 	0.4755	0.746	0.732	-0.233
Mof_N 	N 	0.42	0.765	0.722	-0.191
Mof_C 	C 	0.392	0.758	0.607	-0.02
Mof_N 	N 	0.43	0.72	0.549	-0.299
Mof_N 	N 	0.478	0.717	0.629	-0.212
Mof_N 	N 	0.564	0.925	0.446	-0.282
Mof_C 	C 	0.601	0.968	0.389	0.044
Mof_N 	N 	0.577	0.973	0.272	-0.127
Mof_N 	N 	0.522	0.936	0.265	-0.203
Mof_N 	N 	0.483	0.91	0.635	-0.232
Mof_Cl	Cl	0.879	0.32	0.2457	-0.992
Mof_C 	C 	0.143	0.54	0.838	-0.002
Mof_C 	C 	0.148	0.488	0.946	0.024
Mof_Cu	Cu	0.9467	0.255	0.389	0.567
Mof_Cu	Cu	0.108	0.244	0.607	0.654
Mof_Cu	Cu	0.9641	0.408	0.122	0.808
Mof_Cu	Cu	0.1211	0.3214	0.1651	0.843
Mof_Cu	Cu	0.9673	0.2252	0.115	0.793
Mof_Cu	Cu	0.2504	0.5724	0.001	0.874
Mof_Cu	Cu	0.9414	0.382	0.388	0.56
Mof_Cu	Cu	0.11	0.402	0.612	0.655
Mof_N 	N 	0.191	0.497	0.041	-0.158
Mof_N 	N 	0.113	0.438	0.969	-0.236
Mof_N 	N 	0.188	0.452	0.113	-0.06
Mof_N 	N 	0.14	0.42	0.077	-0.132
Mof_N 	N 	0.19	0.587	0.846	-0.24
Mof_C 	C 	0.096	0.542	0.754	-0.121
Mof_H 	H 	0.0652	0.5101	0.755	-0.024
Mof_C 	C 	0.092	0.596	0.655	-0.013
Mof_H 	H 	0.0599	0.598	0.5903	0.015
Mof_C 	C 	0.138	0.643	0.663	-0.114
Mof_H 	H 	0.1383	0.6773	0.6025	0.068
Mof_C 	C 	0.184	0.639	0.764	0.065
Mof_H 	H 	0.2135	0.6759	0.7723	-0.002
Mof_C 	C 	0.766	0.481	0.367	0.046
Mof_H 	H 	0.7534	0.4598	0.2924	-0.004
Mof_C 	C 	0.732	0.532	0.409	-0.102
Mof_H 	H 	0.6951	0.5446	0.3616	0.055
Mof_C 	C 	0.751	0.565	0.521	0.015
Mof_H 	H 	0.7279	0.5986	0.5486	0.011
Mof_C 	C 	0.806	0.546	0.592	-0.093
Mof_H 	H 	0.8188	0.5679	0.6665	0.051
Mof_C 	C 	0.841	0.495	0.55	0.025
Mof_N 	N 	0.821	0.463	0.438	-0.206
Mof_C 	C 	0.912	0.087	0.258	-0.105
Mof_H 	H 	0.9467	0.1115	0.2622	-0.029
Mof_C 	C 	0.866	0.095	0.157	-0.023
Mof_N 	N 	0.814	0.058	0.151	-0.209
Mof_C 	C 	0.807	0.014	0.246	0.015
Mof_H 	H 	0.7726	0.9894	0.2416	0.011
Mof_C 	C 	0.853	0.006	0.346	-0.078
Mof_H 	H 	0.8489	0.9763	0.4096	0.042
Mof_C 	C 	0.905	0.043	0.353	-0.041
Mof_H 	H 	0.9359	0.0374	0.4199	0.008
Mof_N 	N 	0.191	0.309	0.343	-0.178
Mof_C 	C 	0.248	0.333	0.363	0.036
Mof_H 	H 	0.2612	0.3531	0.3014	0.009
Mof_C 	C 	0.285	0.328	0.477	-0.096
Mof_H 	H 	0.323	0.3443	0.4902	0.054
Mof_C 	C 	0.265	0.298	0.569	0.006
Mof_H 	H 	0.2899	0.2949	0.6448	0.012
Mof_C 	C 	0.208	0.274	0.549	-0.096
Mof_H 	H 	0.1949	0.2543	0.6106	-0.033
Mof_C 	C 	0.171	0.279	0.436	-0.025
Mof_N 	N 	0.802	0.147	0.978	-0.238
Mof_N 	N 	0.805	0.205	0.897	-0.081
Mof_N 	N 	0.861	0.237	0.929	-0.204
Mof_N 	N 	0.893	0.198	0.031	-0.221
Mof_C 	C 	0.856	0.142	0.062	0.072
Mof_N 	N 	0.0245	0.246	0.268	-0.22
Mof_N 	N 	0.08	0.265	0.278	-0.185
Mof_C 	C 	0.108	0.258	0.393	-0.019
Mof_N 	N 	0.07	0.22	0.451	-0.296
Mof_N 	N 	0.022	0.217	0.371	-0.203
Mof_N 	N 	0.936	0.425	0.554	-0.284
Mof_C 	C 	0.899	0.468	0.611	0.041
Mof_N 	N 	0.923	0.473	0.728	-0.136
Mof_N 	N 	0.978	0.436	0.735	-0.214
Mof_N 	N 	0.017	0.41	0.365	-0.223
Mof_Cl	Cl	0.379	0.82	0.2457	-0.989
Mof_C 	C 	0.643	0.04	0.838	0.003
Mof_C 	C 	0.648	0.988	0.946	0.02
Mof_Cu	Cu	0.4467	0.755	0.389	0.573
Mof_Cu	Cu	0.608	0.744	0.607	0.653
Mof_Cu	Cu	0.4641	0.908	0.122	0.819
Mof_Cu	Cu	0.6211	0.8214	0.1651	0.842
Mof_Cu	Cu	0.4673	0.7252	0.115	0.804
Mof_Cu	Cu	0.7504	0.0724	0.001	0.873
Mof_Cu	Cu	0.4414	0.882	0.388	0.565
Mof_Cu	Cu	0.61	0.902	0.612	0.654
Mof_N 	N 	0.691	0.997	0.041	-0.161
Mof_N 	N 	0.613	0.938	0.969	-0.236
Mof_N 	N 	0.688	0.952	0.113	-0.061
Mof_N 	N 	0.64	0.92	0.077	-0.134
Mof_N 	N 	0.69	0.087	0.846	-0.239
Mof_C 	C 	0.596	0.042	0.754	-0.124
Mof_H 	H 	0.5652	0.0101	0.755	-0.026
Mof_C 	C 	0.592	0.096	0.655	-0.011
Mof_H 	H 	0.5599	0.098	0.5903	0.009
Mof_C 	C 	0.638	0.143	0.663	-0.116
Mof_H 	H 	0.6383	0.1773	0.6025	0.067
Mof_C 	C 	0.684	0.139	0.764	0.066
Mof_H 	H 	0.7135	0.1759	0.7723	-0.002
Mof_C 	C 	0.266	0.981	0.367	0.032
Mof_H 	H 	0.2534	0.9598	0.2924	-0
Mof_C 	C 	0.232	0.032	0.409	-0.086
Mof_H 	H 	0.1951	0.0446	0.3616	0.052
Mof_C 	C 	0.251	0.065	0.521	0.003
Mof_H 	H 	0.2279	0.0986	0.5486	0.015
Mof_C 	C 	0.306	0.046	0.592	-0.078
Mof_H 	H 	0.3188	0.0679	0.6665	0.049
Mof_C 	C 	0.341	0.995	0.55	0.016
Mof_N 	N 	0.321	0.963	0.438	-0.203
Mof_C 	C 	0.412	0.587	0.258	-0.107
Mof_H 	H 	0.4467	0.6115	0.2622	-0.023
Mof_C 	C 	0.366	0.595	0.157	-0.021
Mof_N 	N 	0.314	0.558	0.151	-0.208
Mof_C 	C 	0.307	0.514	0.246	0.012
Mof_H 	H 	0.2726	0.4894	0.2416	0.016
Mof_C 	C 	0.353	0.506	0.346	-0.085
Mof_H 	H 	0.3489	0.4763	0.4096	0.05
Mof_C 	C 	0.405	0.543	0.353	-0.035
Mof_H 	H 	0.4359	0.5374	0.4199	0.011
Mof_N 	N 	0.691	0.809	0.343	-0.178
Mof_C 	C 	0.748	0.833	0.363	0.035
Mof_H 	H 	0.7612	0.8531	0.3014	0.008
Mof_C 	C 	0.785	0.828	0.477	-0.096
Mof_H 	H 	0.823	0.8443	0.4902	0.051
Mof_C 	C 	0.765	0.798	0.569	0.006
Mof_H 	H 	0.7899	0.7949	0.6448	0.01
Mof_C 	C 	0.708	0.774	0.549	-0.096
Mof_H 	H 	0.6949	0.7543	0.6106	-0.033
Mof_C 	C 	0.671	0.779	0.436	-0.025
Mof_N 	N 	0.302	0.647	0.978	-0.24
Mof_N 	N 	0.305	0.705	0.897	-0.081
Mof_N 	N 	0.361	0.737	0.929	-0.204
Mof_N 	N 	0.393	0.698	0.031	-0.217
Mof_C 	C 	0.356	0.642	0.062	0.075
Mof_N 	N 	0.5245	0.746	0.268	-0.228
Mof_N 	N 	0.58	0.765	0.278	-0.186
Mof_C 	C 	0.608	0.758	0.393	-0.02
Mof_N 	N 	0.57	0.72	0.451	-0.298
Mof_N 	N 	0.522	0.717	0.371	-0.211
Mof_N 	N 	0.436	0.925	0.554	-0.283
Mof_C 	C 	0.399	0.968	0.611	0.043
Mof_N 	N 	0.423	0.973	0.728	-0.135
Mof_N 	N 	0.478	0.936	0.735	-0.208
Mof_N 	N 	0.517	0.91	0.365	-0.231
Mof_Cl	Cl	-2.67257e-33	0.325	-0	-0.962
Mof_Cl	Cl	0.5	0.825	-0	-0.986
_end
