data_functionalizedCrystal
_audit_creation_method	'EQeq! by Chris Wilmer'
_symmetry_space_group_name_H-M	'P1'
_symmetry_Int_Tables_number	1
_symmetry_cell_setting	triclinic
loop_
_symmetry_equiv_pos_as_xyz
  x,y,z
_cell_length_a	14.6111
_cell_length_b	15.9358
_cell_length_c	32.313
_cell_angle_alpha	90
_cell_angle_beta	90
_cell_angle_gamma	90
loop_
_atom_site_label
_atom_site_type_symbol
_atom_site_fract_x
_atom_site_fract_y
_atom_site_fract_z
_atom_site_charge
Mof_C 	C 	0.9418	0.2363	0.9341	0.394
Mof_N 	N 	0.0596	0.4517	0.87364	-0.288
Mof_C 	C 	0.8703	0.2388	0.9674	-0.104
Mof_C 	C 	0.1339	0.4942	0.865	0.157
Mof_H 	H 	0.1887	0.4639	0.8598	-0.023
Mof_C 	C 	0.8731	0.3061	0.99411	-0.003
Mof_H 	H 	0.9186	0.348	0.9903	0.048
Mof_C 	C 	0.9882	0.4969	0.8826	0.16
Mof_H 	H 	0.9336	0.469	0.8907	-0.031
Mof_C 	C 	0.8113	0.3145	0.02642	-0.008
Mof_H 	H 	0.8152	0.362	0.0441	0.05
Mof_C 	C 	0.7445	0.2555	0.0333	-0.099
Mof_C 	C 	0.6642	0.1256	0.00975	-0.069
Mof_H 	H 	0.6203	0.1322	0.0312	0.065
Mof_C 	C 	0.6567	0.0595	0.98313	-0.026
Mof_H 	H 	0.609	0.0197	0.9866	0.04
Mof_C 	C 	0.7196	0.0503	0.95053	-0.022
Mof_H 	H 	0.7139	0.0042	0.9321	0.041
Mof_C 	C 	0.7885	0.1068	0.94514	-0.079
Mof_H 	H 	0.8298	0.0999	0.9227	0.076
Mof_C 	C 	0.8001	0.1761	0.97249	0.053
Mof_C 	C 	0.7365	0.1849	0.0059	0.04
Mof_C 	C 	0.6838	0.2662	0.07019	0.383
Mof_C 	C 	0.9254	0.2279	0.82316	0.379
Mof_C 	C 	0.8511	0.2278	0.79117	-0.099
Mof_C 	C 	0.8509	0.2938	0.76353	-0.007
Mof_H 	H 	0.8936	0.3383	0.7667	0.043
Mof_C 	C 	0.7883	0.2955	0.73101	-0.008
Mof_H 	H 	0.7886	0.3416	0.7123	0.048
Mof_C 	C 	0.7266	0.2321	0.72555	-0.096
Mof_C 	C 	0.652	0.1036	0.75293	-0.071
Mof_H 	H 	0.6089	0.1045	0.7309	0.069
Mof_C 	C 	0.6465	0.0425	0.78245	-0.025
Mof_H 	H 	0.5998	0.0012	0.7808	0.043
Mof_C 	C 	0.7095	0.0401	0.8152	-0.018
Mof_H 	H 	0.7052	0.9971	0.8355	0.038
Mof_C 	C 	0.7764	0.099	0.81822	-0.076
Mof_H 	H 	0.8184	0.097	0.8406	0.068
Mof_C 	C 	0.7839	0.1635	0.78801	0.05
Mof_C 	C 	0.721	0.1657	0.7548	0.046
Mof_C 	C 	0.667	0.2358	0.68756	0.38
Mof_C 	C 	0.1166	0.9711	0.9001	0.145
Mof_H 	H 	0.1474	0.9999	0.9218	-0.016
Mof_C 	C 	0.1242	0.8843	0.8976	-0.232
Mof_H 	H 	0.1624	0.8551	0.9165	0.133
Mof_C 	C 	0.0782	0.8416	0.8688	0.218
Mof_C 	C 	0.0311	0.885	0.8413	-0.231
Mof_H 	H 	0.9994	0.8568	0.8198	0.116
Mof_C 	C 	0.0279	0.9716	0.8439	0.136
Mof_H 	H 	0.9951	0.0018	0.8234	-0.016
Mof_N 	N 	0.0685	0.0138	0.8737	-0.283
Mof_O 	O 	0.9622	0.1665	0.91815	-0.466
Mof_O 	O 	0.9792	0.3045	0.9251	-0.465
Mof_O 	O 	0.6549	0.33862	0.07757	-0.451
Mof_O 	O 	0.668	0.202	0.0918	-0.47
Mof_O 	O 	0.9421	0.297	0.84049	-0.457
Mof_O 	O 	0.9672	0.1601	0.8303	-0.454
Mof_O 	O 	0.6583	0.1695	0.66698	-0.465
Mof_O 	O 	0.6307	0.3057	0.67898	-0.449
Mof_Zn	Zn	0.0618	0.14106	0.87641	1.213
Mof_Zn	Zn	0.05626	0.32493	0.87364	1.216
Mof_N 	N 	0.1058	0.7543	0.8747	-0.08
Mof_N 	N 	0.0374	0.7137	0.8674	-0.089
Mof_C 	C 	0.062	0.6251	0.87	0.243
Mof_C 	C 	0.1368	0.5812	0.8632	-0.259
Mof_H 	H 	0.1927	0.609	0.8571	0.14
Mof_C 	C 	0.988	0.5831	0.881	-0.261
Mof_H 	H 	0.9337	0.6128	0.8878	0.128
Mof_N 	N 	0.0529	0.7541	0.8617	-0.017
Mof_N 	N 	0.0979	0.7106	0.8709	-0.025
Mof_C 	C 	0.4418	0.2637	0.0659	0.393
Mof_N 	N 	0.5596	0.0483	0.12636	-0.288
Mof_C 	C 	0.3703	0.2612	0.0326	-0.105
Mof_C 	C 	0.6339	0.0058	0.135	0.156
Mof_H 	H 	0.6887	0.0361	0.1402	-0.024
Mof_C 	C 	0.3731	0.1939	0.00589	-0.006
Mof_H 	H 	0.4186	0.152	0.0097	0.047
Mof_C 	C 	0.4882	0.0031	0.1174	0.156
Mof_H 	H 	0.4336	0.031	0.1093	-0.032
Mof_C 	C 	0.3113	0.1855	0.97358	-0.007
Mof_H 	H 	0.3152	0.138	0.9559	0.048
Mof_C 	C 	0.2445	0.2445	0.9667	-0.101
Mof_C 	C 	0.1642	0.3744	0.99025	-0.071
Mof_H 	H 	0.1203	0.3678	0.9688	0.064
Mof_C 	C 	0.1567	0.4405	0.01687	-0.027
Mof_H 	H 	0.109	0.4803	0.0134	0.04
Mof_C 	C 	0.2196	0.4497	0.04947	-0.022
Mof_H 	H 	0.2139	0.4958	0.0679	0.04
Mof_C 	C 	0.2885	0.3932	0.05486	-0.079
Mof_H 	H 	0.3298	0.4001	0.0773	0.075
Mof_C 	C 	0.3001	0.3239	0.02751	0.052
Mof_C 	C 	0.2365	0.3151	0.9941	0.041
Mof_C 	C 	0.1838	0.2338	0.92981	0.384
Mof_C 	C 	0.4254	0.2721	0.17684	0.378
Mof_C 	C 	0.3511	0.2722	0.20883	-0.098
Mof_C 	C 	0.3509	0.2062	0.23647	-0.008
Mof_H 	H 	0.3936	0.1617	0.2333	0.043
Mof_C 	C 	0.2883	0.2045	0.26899	-0.007
Mof_H 	H 	0.2886	0.1584	0.2877	0.048
Mof_C 	C 	0.2266	0.2679	0.27445	-0.097
Mof_C 	C 	0.152	0.3964	0.24707	-0.075
Mof_H 	H 	0.1089	0.3955	0.2691	0.07
Mof_C 	C 	0.1465	0.4575	0.21755	-0.02
Mof_H 	H 	0.0998	0.4988	0.2192	0.041
Mof_C 	C 	0.2095	0.4599	0.1848	-0.027
Mof_H 	H 	0.2052	0.5029	0.1645	0.043
Mof_C 	C 	0.2764	0.401	0.18178	-0.072
Mof_H 	H 	0.3184	0.403	0.1594	0.066
Mof_C 	C 	0.2839	0.3365	0.21199	0.047
Mof_C 	C 	0.221	0.3343	0.2452	0.048
Mof_C 	C 	0.167	0.2642	0.31244	0.38
Mof_C 	C 	0.6166	0.5289	0.0999	0.141
Mof_H 	H 	0.6474	0.5001	0.0782	-0.016
Mof_C 	C 	0.6242	0.6157	0.1024	-0.232
Mof_H 	H 	0.6624	0.6449	0.0835	0.133
Mof_C 	C 	0.5782	0.6584	0.1312	0.22
Mof_C 	C 	0.5311	0.615	0.1587	-0.237
Mof_H 	H 	0.4994	0.6432	0.1802	0.121
Mof_C 	C 	0.5279	0.5284	0.1561	0.137
Mof_H 	H 	0.4951	0.4982	0.1766	-0.018
Mof_N 	N 	0.5685	0.4862	0.1263	-0.279
Mof_O 	O 	0.4622	0.3335	0.08185	-0.468
Mof_O 	O 	0.4792	0.1955	0.0749	-0.466
Mof_O 	O 	0.1549	0.16138	0.92243	-0.452
Mof_O 	O 	0.168	0.298	0.9082	-0.47
Mof_O 	O 	0.4421	0.203	0.15951	-0.458
Mof_O 	O 	0.4672	0.3399	0.1697	-0.456
Mof_O 	O 	0.1583	0.3305	0.33302	-0.465
Mof_O 	O 	0.1307	0.1943	0.32102	-0.449
Mof_Zn	Zn	0.5618	0.35894	0.12359	1.214
Mof_Zn	Zn	0.55626	0.17507	0.12636	1.216
Mof_N 	N 	0.6058	0.7457	0.1253	-0.081
Mof_N 	N 	0.5374	0.7863	0.1326	-0.089
Mof_C 	C 	0.562	0.8749	0.13	0.241
Mof_C 	C 	0.6368	0.9188	0.1368	-0.259
Mof_H 	H 	0.6927	0.891	0.1429	0.14
Mof_C 	C 	0.488	0.9169	0.119	-0.258
Mof_H 	H 	0.4337	0.8872	0.1122	0.128
Mof_N 	N 	0.5529	0.7459	0.1383	-0.017
Mof_N 	N 	0.5979	0.7894	0.1291	-0.024
Mof_C 	C 	0.4418	0.2363	0.5659	0.393
Mof_N 	N 	0.5596	0.4517	0.62636	-0.288
Mof_C 	C 	0.3703	0.2388	0.5326	-0.105
Mof_C 	C 	0.6339	0.4942	0.635	0.155
Mof_H 	H 	0.6887	0.4639	0.6402	-0.024
Mof_C 	C 	0.3731	0.3061	0.50589	-0.006
Mof_H 	H 	0.4186	0.348	0.5097	0.047
Mof_C 	C 	0.4882	0.4969	0.6174	0.157
Mof_H 	H 	0.4336	0.469	0.6093	-0.032
Mof_C 	C 	0.3113	0.3145	0.47358	-0.007
Mof_H 	H 	0.3152	0.362	0.4559	0.049
Mof_C 	C 	0.2445	0.2555	0.4667	-0.1
Mof_C 	C 	0.1642	0.1256	0.49025	-0.07
Mof_H 	H 	0.1203	0.1322	0.4688	0.063
Mof_C 	C 	0.1567	0.0595	0.51687	-0.028
Mof_H 	H 	0.109	0.0197	0.5134	0.039
Mof_C 	C 	0.2196	0.0503	0.54947	-0.022
Mof_H 	H 	0.2139	0.0042	0.5679	0.039
Mof_C 	C 	0.2885	0.1068	0.55486	-0.08
Mof_H 	H 	0.3298	0.0999	0.5773	0.075
Mof_C 	C 	0.3001	0.1761	0.52751	0.052
Mof_C 	C 	0.2365	0.1849	0.4941	0.041
Mof_C 	C 	0.1838	0.2662	0.42981	0.383
Mof_C 	C 	0.4254	0.2279	0.67684	0.378
Mof_C 	C 	0.3511	0.2278	0.70883	-0.097
Mof_C 	C 	0.3509	0.2938	0.73647	-0.009
Mof_H 	H 	0.3936	0.3383	0.7333	0.044
Mof_C 	C 	0.2883	0.2955	0.76899	-0.006
Mof_H 	H 	0.2886	0.3416	0.7877	0.048
Mof_C 	C 	0.2266	0.2321	0.77445	-0.098
Mof_C 	C 	0.152	0.1036	0.74707	-0.078
Mof_H 	H 	0.1089	0.1045	0.7691	0.071
Mof_C 	C 	0.1465	0.0425	0.71755	-0.015
Mof_H 	H 	0.0998	0.0012	0.7192	0.038
Mof_C 	C 	0.2095	0.0401	0.6848	-0.035
Mof_H 	H 	0.2052	0.9971	0.6645	0.047
Mof_C 	C 	0.2764	0.099	0.68178	-0.067
Mof_H 	H 	0.3184	0.097	0.6594	0.064
Mof_C 	C 	0.2839	0.1635	0.71199	0.044
Mof_C 	C 	0.221	0.1657	0.7452	0.05
Mof_C 	C 	0.167	0.2358	0.81244	0.381
Mof_C 	C 	0.6166	0.9711	0.5999	0.139
Mof_H 	H 	0.6474	0.9999	0.5782	-0.016
Mof_C 	C 	0.6242	0.8843	0.6024	-0.231
Mof_H 	H 	0.6624	0.8551	0.5835	0.133
Mof_C 	C 	0.5782	0.8416	0.6312	0.218
Mof_C 	C 	0.5311	0.885	0.6587	-0.236
Mof_H 	H 	0.4994	0.8568	0.6802	0.12
Mof_C 	C 	0.5279	0.9716	0.6561	0.134
Mof_H 	H 	0.4951	0.0018	0.6766	-0.017
Mof_N 	N 	0.5685	0.0138	0.6263	-0.278
Mof_O 	O 	0.4622	0.1665	0.58185	-0.468
Mof_O 	O 	0.4792	0.3045	0.5749	-0.466
Mof_O 	O 	0.1549	0.33862	0.42243	-0.451
Mof_O 	O 	0.168	0.202	0.4082	-0.47
Mof_O 	O 	0.4421	0.297	0.65951	-0.457
Mof_O 	O 	0.4672	0.1601	0.6697	-0.455
Mof_O 	O 	0.1583	0.1695	0.83302	-0.466
Mof_O 	O 	0.1307	0.3057	0.82102	-0.449
Mof_Zn	Zn	0.5618	0.14106	0.62359	1.215
Mof_Zn	Zn	0.55626	0.32493	0.62636	1.216
Mof_N 	N 	0.6058	0.7543	0.6253	-0.08
Mof_N 	N 	0.5374	0.7137	0.6326	-0.089
Mof_C 	C 	0.562	0.6251	0.63	0.241
Mof_C 	C 	0.6368	0.5812	0.6368	-0.258
Mof_H 	H 	0.6927	0.609	0.6429	0.14
Mof_C 	C 	0.488	0.5831	0.619	-0.259
Mof_H 	H 	0.4337	0.6128	0.6122	0.128
Mof_N 	N 	0.5529	0.7541	0.6383	-0.017
Mof_N 	N 	0.5979	0.7106	0.6291	-0.024
Mof_C 	C 	0.9418	0.2637	0.4341	0.393
Mof_N 	N 	0.0596	0.0483	0.37364	-0.293
Mof_C 	C 	0.8703	0.2612	0.4674	-0.104
Mof_C 	C 	0.1339	0.0058	0.365	0.154
Mof_H 	H 	0.1887	0.0361	0.3598	-0.024
Mof_C 	C 	0.8731	0.1939	0.49411	-0.006
Mof_H 	H 	0.9186	0.152	0.4903	0.048
Mof_C 	C 	0.9882	0.0031	0.3826	0.175
Mof_H 	H 	0.9336	0.031	0.3907	-0.036
Mof_C 	C 	0.8113	0.1855	0.52642	-0.007
Mof_H 	H 	0.8152	0.138	0.5441	0.049
Mof_C 	C 	0.7445	0.2445	0.5333	-0.1
Mof_C 	C 	0.6642	0.3744	0.50975	-0.07
Mof_H 	H 	0.6203	0.3678	0.5312	0.064
Mof_C 	C 	0.6567	0.4405	0.48313	-0.027
Mof_H 	H 	0.609	0.4803	0.4866	0.04
Mof_C 	C 	0.7196	0.4497	0.45053	-0.021
Mof_H 	H 	0.7139	0.4958	0.4321	0.04
Mof_C 	C 	0.7885	0.3932	0.44514	-0.079
Mof_H 	H 	0.8298	0.4001	0.4227	0.075
Mof_C 	C 	0.8001	0.3239	0.47249	0.052
Mof_C 	C 	0.7365	0.3151	0.5059	0.041
Mof_C 	C 	0.6838	0.2338	0.57019	0.383
Mof_C 	C 	0.9254	0.2721	0.32316	0.378
Mof_C 	C 	0.8511	0.2722	0.29117	-0.098
Mof_C 	C 	0.8509	0.2062	0.26353	-0.008
Mof_H 	H 	0.8936	0.1617	0.2667	0.044
Mof_C 	C 	0.7883	0.2045	0.23101	-0.006
Mof_H 	H 	0.7886	0.1584	0.2123	0.048
Mof_C 	C 	0.7266	0.2679	0.22555	-0.097
Mof_C 	C 	0.652	0.3964	0.25293	-0.075
Mof_H 	H 	0.6089	0.3955	0.2309	0.07
Mof_C 	C 	0.6465	0.4575	0.28245	-0.02
Mof_H 	H 	0.5998	0.4988	0.2808	0.041
Mof_C 	C 	0.7095	0.4599	0.3152	-0.027
Mof_H 	H 	0.7052	0.5029	0.3355	0.043
Mof_C 	C 	0.7764	0.401	0.31822	-0.071
Mof_H 	H 	0.8184	0.403	0.3406	0.066
Mof_C 	C 	0.7839	0.3365	0.28801	0.047
Mof_C 	C 	0.721	0.3343	0.2548	0.048
Mof_C 	C 	0.667	0.2642	0.18756	0.38
Mof_C 	C 	0.1166	0.5289	0.4001	0.14
Mof_H 	H 	0.1474	0.5001	0.4218	-0.015
Mof_C 	C 	0.1242	0.6157	0.3976	-0.23
Mof_H 	H 	0.1624	0.6449	0.4165	0.133
Mof_C 	C 	0.0782	0.6584	0.3688	0.217
Mof_C 	C 	0.0311	0.615	0.3413	-0.233
Mof_H 	H 	0.9994	0.6432	0.3198	0.118
Mof_C 	C 	0.0279	0.5284	0.3439	0.135
Mof_H 	H 	0.9951	0.4982	0.3234	-0.018
Mof_N 	N 	0.0685	0.4862	0.3737	-0.279
Mof_O 	O 	0.9622	0.3335	0.41815	-0.467
Mof_O 	O 	0.9792	0.1955	0.4251	-0.464
Mof_O 	O 	0.6549	0.16138	0.57757	-0.451
Mof_O 	O 	0.668	0.298	0.5918	-0.47
Mof_O 	O 	0.9421	0.203	0.34049	-0.456
Mof_O 	O 	0.9672	0.3399	0.3303	-0.455
Mof_O 	O 	0.6583	0.3305	0.16698	-0.465
Mof_O 	O 	0.6307	0.1943	0.17898	-0.449
Mof_Zn	Zn	0.0618	0.35894	0.37641	1.214
Mof_Zn	Zn	0.05626	0.17507	0.37364	1.215
Mof_N 	N 	0.1058	0.7457	0.3747	-0.079
Mof_N 	N 	0.0374	0.7863	0.3674	-0.09
Mof_C 	C 	0.062	0.8749	0.37	0.253
Mof_C 	C 	0.1368	0.9188	0.3632	-0.26
Mof_H 	H 	0.1927	0.891	0.3571	0.141
Mof_C 	C 	0.988	0.9169	0.381	-0.279
Mof_H 	H 	0.9337	0.8872	0.3878	0.134
Mof_N 	N 	0.0529	0.7459	0.3617	-0.016
Mof_N 	N 	0.0979	0.7894	0.3709	-0.027
Mof_C 	C 	0.5582	0.7637	0.4341	0.393
Mof_N 	N 	0.4404	0.5483	0.37364	-0.288
Mof_C 	C 	0.6297	0.7612	0.4674	-0.105
Mof_C 	C 	0.3661	0.5058	0.365	0.155
Mof_H 	H 	0.3113	0.5361	0.3598	-0.024
Mof_C 	C 	0.6269	0.6939	0.49411	-0.006
Mof_H 	H 	0.5814	0.652	0.4903	0.047
Mof_C 	C 	0.5118	0.5031	0.3826	0.157
Mof_H 	H 	0.5664	0.531	0.3907	-0.032
Mof_C 	C 	0.6887	0.6855	0.52642	-0.007
Mof_H 	H 	0.6848	0.638	0.5441	0.049
Mof_C 	C 	0.7555	0.7445	0.5333	-0.1
Mof_C 	C 	0.8358	0.8744	0.50975	-0.07
Mof_H 	H 	0.8797	0.8678	0.5312	0.063
Mof_C 	C 	0.8433	0.9405	0.48313	-0.028
Mof_H 	H 	0.891	0.9803	0.4866	0.039
Mof_C 	C 	0.7804	0.9497	0.45053	-0.022
Mof_H 	H 	0.7861	0.9958	0.4321	0.039
Mof_C 	C 	0.7115	0.8932	0.44514	-0.08
Mof_H 	H 	0.6702	0.9001	0.4227	0.075
Mof_C 	C 	0.6999	0.8239	0.47249	0.052
Mof_C 	C 	0.7635	0.8151	0.5059	0.041
Mof_C 	C 	0.8162	0.7338	0.57019	0.383
Mof_C 	C 	0.5746	0.7721	0.32316	0.378
Mof_C 	C 	0.6489	0.7722	0.29117	-0.097
Mof_C 	C 	0.6491	0.7062	0.26353	-0.009
Mof_H 	H 	0.6064	0.6617	0.2667	0.044
Mof_C 	C 	0.7117	0.7045	0.23101	-0.006
Mof_H 	H 	0.7114	0.6584	0.2123	0.048
Mof_C 	C 	0.7734	0.7679	0.22555	-0.098
Mof_C 	C 	0.848	0.8964	0.25293	-0.078
Mof_H 	H 	0.8911	0.8955	0.2309	0.071
Mof_C 	C 	0.8535	0.9575	0.28245	-0.015
Mof_H 	H 	0.9002	0.9988	0.2808	0.038
Mof_C 	C 	0.7905	0.9599	0.3152	-0.035
Mof_H 	H 	0.7948	0.0029	0.3355	0.047
Mof_C 	C 	0.7236	0.901	0.31822	-0.067
Mof_H 	H 	0.6816	0.903	0.3406	0.064
Mof_C 	C 	0.7161	0.8365	0.28801	0.044
Mof_C 	C 	0.779	0.8343	0.2548	0.05
Mof_C 	C 	0.833	0.7642	0.18756	0.381
Mof_C 	C 	0.3834	0.0289	0.4001	0.139
Mof_H 	H 	0.3526	0.0001	0.4218	-0.016
Mof_C 	C 	0.3758	0.1157	0.3976	-0.231
Mof_H 	H 	0.3376	0.1449	0.4165	0.133
Mof_C 	C 	0.4218	0.1584	0.3688	0.218
Mof_C 	C 	0.4689	0.115	0.3413	-0.236
Mof_H 	H 	0.5006	0.1432	0.3198	0.12
Mof_C 	C 	0.4721	0.0284	0.3439	0.134
Mof_H 	H 	0.5049	0.9982	0.3234	-0.017
Mof_N 	N 	0.4315	0.9862	0.3737	-0.278
Mof_O 	O 	0.5378	0.8335	0.41815	-0.468
Mof_O 	O 	0.5208	0.6955	0.4251	-0.466
Mof_O 	O 	0.8451	0.66138	0.57757	-0.451
Mof_O 	O 	0.832	0.798	0.5918	-0.47
Mof_O 	O 	0.5579	0.703	0.34049	-0.457
Mof_O 	O 	0.5328	0.8399	0.3303	-0.455
Mof_O 	O 	0.8417	0.8305	0.16698	-0.466
Mof_O 	O 	0.8693	0.6943	0.17898	-0.449
Mof_Zn	Zn	0.4382	0.85894	0.37641	1.215
Mof_Zn	Zn	0.44374	0.67507	0.37364	1.216
Mof_N 	N 	0.3942	0.2457	0.3747	-0.08
Mof_N 	N 	0.4626	0.2863	0.3674	-0.089
Mof_C 	C 	0.438	0.3749	0.37	0.241
Mof_C 	C 	0.3632	0.4188	0.3632	-0.258
Mof_H 	H 	0.3073	0.391	0.3571	0.14
Mof_C 	C 	0.512	0.4169	0.381	-0.259
Mof_H 	H 	0.5663	0.3872	0.3878	0.128
Mof_N 	N 	0.4471	0.2459	0.3617	-0.017
Mof_N 	N 	0.4021	0.2894	0.3709	-0.024
Mof_C 	C 	0.0582	0.7363	0.5659	0.393
Mof_N 	N 	0.9404	0.9517	0.62636	-0.293
Mof_C 	C 	0.1297	0.7388	0.5326	-0.104
Mof_C 	C 	0.8661	0.9942	0.635	0.154
Mof_H 	H 	0.8113	0.9639	0.6402	-0.024
Mof_C 	C 	0.1269	0.8061	0.50589	-0.006
Mof_H 	H 	0.0814	0.848	0.5097	0.048
Mof_C 	C 	0.0118	0.9969	0.6174	0.175
Mof_H 	H 	0.0664	0.969	0.6093	-0.036
Mof_C 	C 	0.1887	0.8145	0.47358	-0.007
Mof_H 	H 	0.1848	0.862	0.4559	0.049
Mof_C 	C 	0.2555	0.7555	0.4667	-0.1
Mof_C 	C 	0.3358	0.6256	0.49025	-0.07
Mof_H 	H 	0.3797	0.6322	0.4688	0.064
Mof_C 	C 	0.3433	0.5595	0.51687	-0.027
Mof_H 	H 	0.391	0.5197	0.5134	0.04
Mof_C 	C 	0.2804	0.5503	0.54947	-0.021
Mof_H 	H 	0.2861	0.5042	0.5679	0.04
Mof_C 	C 	0.2115	0.6068	0.55486	-0.079
Mof_H 	H 	0.1702	0.5999	0.5773	0.075
Mof_C 	C 	0.1999	0.6761	0.52751	0.052
Mof_C 	C 	0.2635	0.6849	0.4941	0.041
Mof_C 	C 	0.3162	0.7662	0.42981	0.383
Mof_C 	C 	0.0746	0.7279	0.67684	0.378
Mof_C 	C 	0.1489	0.7278	0.70883	-0.098
Mof_C 	C 	0.1491	0.7938	0.73647	-0.008
Mof_H 	H 	0.1064	0.8383	0.7333	0.044
Mof_C 	C 	0.2117	0.7955	0.76899	-0.006
Mof_H 	H 	0.2114	0.8416	0.7877	0.048
Mof_C 	C 	0.2734	0.7321	0.77445	-0.097
Mof_C 	C 	0.348	0.6036	0.74707	-0.075
Mof_H 	H 	0.3911	0.6045	0.7691	0.07
Mof_C 	C 	0.3535	0.5425	0.71755	-0.02
Mof_H 	H 	0.4002	0.5012	0.7192	0.041
Mof_C 	C 	0.2905	0.5401	0.6848	-0.027
Mof_H 	H 	0.2948	0.4971	0.6645	0.043
Mof_C 	C 	0.2236	0.599	0.68178	-0.071
Mof_H 	H 	0.1816	0.597	0.6594	0.066
Mof_C 	C 	0.2161	0.6635	0.71199	0.047
Mof_C 	C 	0.279	0.6657	0.7452	0.048
Mof_C 	C 	0.333	0.7358	0.81244	0.38
Mof_C 	C 	0.8834	0.4711	0.5999	0.14
Mof_H 	H 	0.8526	0.4999	0.5782	-0.015
Mof_C 	C 	0.8758	0.3843	0.6024	-0.23
Mof_H 	H 	0.8376	0.3551	0.5835	0.133
Mof_C 	C 	0.9218	0.3416	0.6312	0.217
Mof_C 	C 	0.9689	0.385	0.6587	-0.233
Mof_H 	H 	0.0006	0.3568	0.6802	0.118
Mof_C 	C 	0.9721	0.4716	0.6561	0.135
Mof_H 	H 	0.0049	0.5018	0.6766	-0.018
Mof_N 	N 	0.9315	0.5138	0.6263	-0.279
Mof_O 	O 	0.0378	0.6665	0.58185	-0.467
Mof_O 	O 	0.0208	0.8045	0.5749	-0.464
Mof_O 	O 	0.3451	0.83862	0.42243	-0.451
Mof_O 	O 	0.332	0.702	0.4082	-0.47
Mof_O 	O 	0.0579	0.797	0.65951	-0.456
Mof_O 	O 	0.0328	0.6601	0.6697	-0.455
Mof_O 	O 	0.3417	0.6695	0.83302	-0.465
Mof_O 	O 	0.3693	0.8057	0.82102	-0.449
Mof_Zn	Zn	0.9382	0.64106	0.62359	1.214
Mof_Zn	Zn	0.94374	0.82493	0.62636	1.215
Mof_N 	N 	0.8942	0.2543	0.6253	-0.079
Mof_N 	N 	0.9626	0.2137	0.6326	-0.09
Mof_C 	C 	0.938	0.1251	0.63	0.253
Mof_C 	C 	0.8632	0.0812	0.6368	-0.26
Mof_H 	H 	0.8073	0.109	0.6429	0.141
Mof_C 	C 	0.012	0.0831	0.619	-0.279
Mof_H 	H 	0.0663	0.1128	0.6122	0.134
Mof_N 	N 	0.9471	0.2541	0.6383	-0.016
Mof_N 	N 	0.9021	0.2106	0.6291	-0.027
Mof_C 	C 	0.0582	0.7637	0.0659	0.393
Mof_N 	N 	0.9404	0.5483	0.12636	-0.289
Mof_C 	C 	0.1297	0.7612	0.0326	-0.105
Mof_C 	C 	0.8661	0.5058	0.135	0.156
Mof_H 	H 	0.8113	0.5361	0.1402	-0.024
Mof_C 	C 	0.1269	0.6939	0.00589	-0.004
Mof_H 	H 	0.0814	0.652	0.0097	0.047
Mof_C 	C 	0.0118	0.5031	0.1174	0.159
Mof_H 	H 	0.0664	0.531	0.1093	-0.032
Mof_C 	C 	0.1887	0.6855	0.97358	-0.009
Mof_H 	H 	0.1848	0.638	0.9559	0.049
Mof_C 	C 	0.2555	0.7445	0.9667	-0.1
Mof_C 	C 	0.3358	0.8744	0.99025	-0.07
Mof_H 	H 	0.3797	0.8678	0.9688	0.064
Mof_C 	C 	0.3433	0.9405	0.01687	-0.026
Mof_H 	H 	0.391	0.9803	0.0134	0.04
Mof_C 	C 	0.2804	0.9497	0.04947	-0.022
Mof_H 	H 	0.2861	0.9958	0.0679	0.041
Mof_C 	C 	0.2115	0.8932	0.05486	-0.079
Mof_H 	H 	0.1702	0.9001	0.0773	0.076
Mof_C 	C 	0.1999	0.8239	0.02751	0.053
Mof_C 	C 	0.2635	0.8151	0.9941	0.04
Mof_C 	C 	0.3162	0.7338	0.92981	0.383
Mof_C 	C 	0.0746	0.7721	0.17684	0.379
Mof_C 	C 	0.1489	0.7722	0.20883	-0.099
Mof_C 	C 	0.1491	0.7062	0.23647	-0.007
Mof_H 	H 	0.1064	0.6617	0.2333	0.043
Mof_C 	C 	0.2117	0.7045	0.26899	-0.008
Mof_H 	H 	0.2114	0.6584	0.2877	0.048
Mof_C 	C 	0.2734	0.7679	0.27445	-0.096
Mof_C 	C 	0.348	0.8964	0.24707	-0.071
Mof_H 	H 	0.3911	0.8955	0.2691	0.069
Mof_C 	C 	0.3535	0.9575	0.21755	-0.025
Mof_H 	H 	0.4002	0.9988	0.2192	0.043
Mof_C 	C 	0.2905	0.9599	0.1848	-0.018
Mof_H 	H 	0.2948	0.0029	0.1645	0.038
Mof_C 	C 	0.2236	0.901	0.18178	-0.076
Mof_H 	H 	0.1816	0.903	0.1594	0.068
Mof_C 	C 	0.2161	0.8365	0.21199	0.05
Mof_C 	C 	0.279	0.8343	0.2452	0.046
Mof_C 	C 	0.333	0.7642	0.31244	0.38
Mof_C 	C 	0.8834	0.0289	0.0999	0.145
Mof_H 	H 	0.8526	0.0001	0.0782	-0.016
Mof_C 	C 	0.8758	0.1157	0.1024	-0.232
Mof_H 	H 	0.8376	0.1449	0.0835	0.133
Mof_C 	C 	0.9218	0.1584	0.1312	0.218
Mof_C 	C 	0.9689	0.115	0.1587	-0.231
Mof_H 	H 	0.0006	0.1432	0.1802	0.116
Mof_C 	C 	0.9721	0.0284	0.1561	0.136
Mof_H 	H 	0.0049	0.9982	0.1766	-0.016
Mof_N 	N 	0.9315	0.9862	0.1263	-0.283
Mof_O 	O 	0.0378	0.8335	0.08185	-0.466
Mof_O 	O 	0.0208	0.6955	0.0749	-0.465
Mof_O 	O 	0.3451	0.66138	0.92243	-0.451
Mof_O 	O 	0.332	0.798	0.9082	-0.47
Mof_O 	O 	0.0579	0.703	0.15951	-0.457
Mof_O 	O 	0.0328	0.8399	0.1697	-0.454
Mof_O 	O 	0.3417	0.8305	0.33302	-0.465
Mof_O 	O 	0.3693	0.6943	0.32102	-0.449
Mof_Zn	Zn	0.9382	0.85894	0.12359	1.213
Mof_Zn	Zn	0.94374	0.67507	0.12636	1.216
Mof_N 	N 	0.8942	0.2457	0.1253	-0.08
Mof_N 	N 	0.9626	0.2863	0.1326	-0.089
Mof_C 	C 	0.938	0.3749	0.13	0.243
Mof_C 	C 	0.8632	0.4188	0.1368	-0.259
Mof_H 	H 	0.8073	0.391	0.1429	0.14
Mof_C 	C 	0.012	0.4169	0.119	-0.261
Mof_H 	H 	0.0663	0.3872	0.1122	0.128
Mof_N 	N 	0.9471	0.2459	0.1383	-0.017
Mof_N 	N 	0.9021	0.2894	0.1291	-0.025
Mof_C 	C 	0.5582	0.7363	0.9341	0.393
Mof_N 	N 	0.4404	0.9517	0.87364	-0.288
Mof_C 	C 	0.6297	0.7388	0.9674	-0.105
Mof_C 	C 	0.3661	0.9942	0.865	0.156
Mof_H 	H 	0.3113	0.9639	0.8598	-0.024
Mof_C 	C 	0.6269	0.8061	0.99411	-0.006
Mof_H 	H 	0.5814	0.848	0.9903	0.047
Mof_C 	C 	0.5118	0.9969	0.8826	0.156
Mof_H 	H 	0.5664	0.969	0.8907	-0.032
Mof_C 	C 	0.6887	0.8145	0.02642	-0.007
Mof_H 	H 	0.6848	0.862	0.0441	0.048
Mof_C 	C 	0.7555	0.7555	0.0333	-0.101
Mof_C 	C 	0.8358	0.6256	0.00975	-0.071
Mof_H 	H 	0.8797	0.6322	0.0312	0.064
Mof_C 	C 	0.8433	0.5595	0.98313	-0.027
Mof_H 	H 	0.891	0.5197	0.9866	0.04
Mof_C 	C 	0.7804	0.5503	0.95053	-0.022
Mof_H 	H 	0.7861	0.5042	0.9321	0.04
Mof_C 	C 	0.7115	0.6068	0.94514	-0.079
Mof_H 	H 	0.6702	0.5999	0.9227	0.075
Mof_C 	C 	0.6999	0.6761	0.97249	0.052
Mof_C 	C 	0.7635	0.6849	0.0059	0.041
Mof_C 	C 	0.8162	0.7662	0.07019	0.384
Mof_C 	C 	0.5746	0.7279	0.82316	0.378
Mof_C 	C 	0.6489	0.7278	0.79117	-0.098
Mof_C 	C 	0.6491	0.7938	0.76353	-0.008
Mof_H 	H 	0.6064	0.8383	0.7667	0.043
Mof_C 	C 	0.7117	0.7955	0.73101	-0.007
Mof_H 	H 	0.7114	0.8416	0.7123	0.048
Mof_C 	C 	0.7734	0.7321	0.72555	-0.097
Mof_C 	C 	0.848	0.6036	0.75293	-0.075
Mof_H 	H 	0.8911	0.6045	0.7309	0.07
Mof_C 	C 	0.8535	0.5425	0.78245	-0.02
Mof_H 	H 	0.9002	0.5012	0.7808	0.041
Mof_C 	C 	0.7905	0.5401	0.8152	-0.027
Mof_H 	H 	0.7948	0.4971	0.8355	0.043
Mof_C 	C 	0.7236	0.599	0.81822	-0.072
Mof_H 	H 	0.6816	0.597	0.8406	0.066
Mof_C 	C 	0.7161	0.6635	0.78801	0.047
Mof_C 	C 	0.779	0.6657	0.7548	0.048
Mof_C 	C 	0.833	0.7358	0.68756	0.38
Mof_C 	C 	0.3834	0.4711	0.9001	0.141
Mof_H 	H 	0.3526	0.4999	0.9218	-0.016
Mof_C 	C 	0.3758	0.3843	0.8976	-0.232
Mof_H 	H 	0.3376	0.3551	0.9165	0.133
Mof_C 	C 	0.4218	0.3416	0.8688	0.22
Mof_C 	C 	0.4689	0.385	0.8413	-0.237
Mof_H 	H 	0.5006	0.3568	0.8198	0.121
Mof_C 	C 	0.4721	0.4716	0.8439	0.137
Mof_H 	H 	0.5049	0.5018	0.8234	-0.018
Mof_N 	N 	0.4315	0.5138	0.8737	-0.279
Mof_O 	O 	0.5378	0.6665	0.91815	-0.468
Mof_O 	O 	0.5208	0.8045	0.9251	-0.466
Mof_O 	O 	0.8451	0.83862	0.07757	-0.452
Mof_O 	O 	0.832	0.702	0.0918	-0.47
Mof_O 	O 	0.5579	0.797	0.84049	-0.458
Mof_O 	O 	0.5328	0.6601	0.8303	-0.456
Mof_O 	O 	0.8417	0.6695	0.66698	-0.465
Mof_O 	O 	0.8693	0.8057	0.67898	-0.449
Mof_Zn	Zn	0.4382	0.64106	0.87641	1.214
Mof_Zn	Zn	0.44374	0.82493	0.87364	1.216
Mof_N 	N 	0.3942	0.2543	0.8747	-0.081
Mof_N 	N 	0.4626	0.2137	0.8674	-0.089
Mof_C 	C 	0.438	0.1251	0.87	0.241
Mof_C 	C 	0.3632	0.0812	0.8632	-0.259
Mof_H 	H 	0.3073	0.109	0.8571	0.14
Mof_C 	C 	0.512	0.0831	0.881	-0.258
Mof_H 	H 	0.5663	0.1128	0.8878	0.128
Mof_N 	N 	0.4471	0.2541	0.8617	-0.017
Mof_N 	N 	0.4021	0.2106	0.8709	-0.024
_end
