data_functionalizedCrystal
_audit_creation_method	'EQeq! by Chris Wilmer'
_symmetry_space_group_name_H-M	'P1'
_symmetry_Int_Tables_number	1
_symmetry_cell_setting	triclinic
loop_
_symmetry_equiv_pos_as_xyz
  x,y,z
_cell_length_a	17.2065
_cell_length_b	17.2065
_cell_length_c	17.2065
_cell_angle_alpha	62.5643
_cell_angle_beta	74.3581
_cell_angle_gamma	105.642
loop_
_atom_site_label
_atom_site_type_symbol
_atom_site_fract_x
_atom_site_fract_y
_atom_site_fract_z
_atom_site_charge
Mof_Zn	Zn	0.5	0.68428	0.49438	1.214
Mof_Zn	Zn	0.5	0.00562	0.81572	1.213
Mof_Zn	Zn	0.82134	0.50562	0.99438	1.213
Mof_Zn	Zn	0.17866	0.18428	0.31572	1.214
Mof_Co	Co	0.86718	0.32175	0.05601	1.177
Mof_Co	Co	0.37776	0.45457	0.67825	1.175
Mof_Co	Co	0.37776	0.82175	0.04543	1.175
Mof_Co	Co	0.13282	0.07681	0.54543	1.174
Mof_Co	Co	0.86718	0.44399	0.17825	1.175
Mof_Co	Co	0.62224	0.57681	0.55601	1.175
Mof_Co	Co	0.62224	0.94399	0.92319	1.176
Mof_Co	Co	0.13282	0.95457	0.42319	1.176
Mof_H 	H 	0.387	0.1773	0.8615	0.051
Mof_H 	H 	0.2981	0.7574	0.5475	0.047
Mof_H 	H 	0.2981	0.9525	0.7426	0.048
Mof_H 	H 	0.9612	0.2515	0.3615	0.048
Mof_H 	H 	0.7019	0.9593	0.3456	0.047
Mof_H 	H 	0.0388	0.7903	0.8227	0.049
Mof_H 	H 	0.3085	0.3478	0.5043	0.048
Mof_H 	H 	0.0388	0.6773	0.7097	0.049
Mof_H 	H 	0.3049	0.4593	0.2426	0.047
Mof_H 	H 	0.6915	0.1872	0.9607	0.047
Mof_H 	H 	0.9612	0.1385	0.2485	0.05
Mof_H 	H 	0.1479	0.4957	0.8128	0.049
Mof_H 	H 	0.6951	0.6544	0.0475	0.047
Mof_H 	H 	0.8521	0.8478	0.4607	0.05
Mof_H 	H 	0.7019	0.1544	0.5407	0.046
Mof_H 	H 	0.613	0.7515	0.2097	0.048
Mof_H 	H 	0.8521	0.0393	0.6522	0.047
Mof_H 	H 	0.1479	0.6872	0.0043	0.049
Mof_H 	H 	0.6951	0.4525	0.8456	0.046
Mof_H 	H 	0.3085	0.9957	0.1522	0.052
Mof_H 	H 	0.613	0.2903	0.7485	0.048
Mof_H 	H 	0.3049	0.2574	0.0407	0.047
Mof_H 	H 	0.6915	0.5393	0.3128	0.048
Mof_H 	H 	0.387	0.6385	0.3227	0.048
Mof_C 	C 	0.31468	0.60067	0.65719	0.378
Mof_C 	C 	0.9121	0.2087	0.4244	0.033
Mof_C 	C 	0.3163	0.4686	0.2883	0.029
Mof_C 	C 	0.0091	0.1389	0.487	0.334
Mof_C 	C 	0.2326	0.6223	0.6787	-0.096
Mof_C 	C 	0.3669	0.5756	0.3365	0.033
Mof_C 	C 	0.68532	0.78599	0.47187	0.378
Mof_C 	C 	0.3554	0.0741	0.0031	-0.088
Mof_C 	C 	0.6331	0.2966	0.7913	0.033
Mof_C 	C 	0.6408	0.4698	0.7152	0.297
Mof_C 	C 	0.831	0.061	0.2882	-0.071
Mof_C 	C 	0.1524	0.735	0.9454	0.044
Mof_C 	C 	0.7674	0.8897	0.4113	-0.095
Mof_C 	C 	0.6804	0.5826	0.265	0.046
Mof_C 	C 	0.8476	0.0826	0.5978	0.046
Mof_C 	C 	0.9228	0.9969	0.3585	-0.097
Mof_C 	C 	0.74214	0.34281	0.97187	0.372
Mof_C 	C 	0.0772	0.5741	0.7813	-0.102
Mof_C 	C 	0.0879	0.7966	0.8365	0.031
Mof_C 	C 	0.815	0.2848	0.356	0.297
Mof_C 	C 	0.3669	0.1635	0.9244	0.021
Mof_C 	C 	0.9228	0.1415	0.5031	-0.105
Mof_C 	C 	0.6837	0.6523	0.1046	0.029
Mof_C 	C 	0.0879	0.6635	0.7034	0.032
Mof_C 	C 	0.6804	0.235	0.9174	0.046
Mof_C 	C 	0.3492	0.23	0.939	-0.071
Mof_C 	C 	0.6446	0.2187	0.8585	-0.105
Mof_C 	C 	0.2326	0.8213	0.8777	-0.095
Mof_C 	C 	0.3592	0.329	0.856	0.296
Mof_C 	C 	0.3196	0.4022	0.4454	0.047
Mof_C 	C 	0.3741	0.0039	0.987	0.319
Mof_C 	C 	0.3554	0.4969	0.4259	-0.104
Mof_C 	C 	0.3741	0.513	0.4961	0.334
Mof_C 	C 	0.25786	0.10067	0.21401	0.378
Mof_C 	C 	0.7674	0.0887	0.6103	-0.096
Mof_C 	C 	0.7569	0.9686	0.3477	0.03
Mof_C 	C 	0.3163	0.2117	0.0314	0.031
Mof_C 	C 	0.815	0.144	0.2152	0.296
Mof_C 	C 	0.0091	0.013	0.3611	0.327
Mof_C 	C 	0.6837	0.3954	0.8477	0.028
Mof_C 	C 	0.9909	0.6298	0.9961	0.326
Mof_C 	C 	0.6508	0.7118	0.1192	-0.072
Mof_C 	C 	0.3592	0.644	0.171	0.297
Mof_C 	C 	0.6259	0.1298	0.8611	0.334
Mof_C 	C 	0.699	0.3213	0.9113	-0.096
Mof_C 	C 	0.25786	0.28599	0.39933	0.379
Mof_C 	C 	0.2431	0.8954	0.7883	0.028
Mof_C 	C 	0.7569	0.1523	0.5314	0.028
Mof_C 	C 	0.301	0.1223	0.1103	-0.093
Mof_C 	C 	0.6408	0.7848	0.0302	0.299
Mof_C 	C 	0.169	0.8808	0.77	-0.071
Mof_C 	C 	0.2431	0.7117	0.6046	0.028
Mof_C 	C 	0.185	0.829	0.5302	0.296
Mof_C 	C 	0.8476	0.9022	0.4174	0.043
Mof_C 	C 	0.6331	0.7087	0.2034	0.034
Mof_C 	C 	0.6446	0.6415	0.2813	-0.104
Mof_C 	C 	0.3196	0.0546	0.0978	0.038
Mof_C 	C 	0.68532	0.02813	0.71401	0.373
Mof_C 	C 	0.0772	0.7187	0.9259	-0.099
Mof_C 	C 	0.6508	0.3808	0.7882	-0.072
Mof_C 	C 	0.301	0.3897	0.3777	-0.097
Mof_C 	C 	0.169	0.73	0.6192	-0.07
Mof_C 	C 	0.9121	0.0756	0.2913	0.028
Mof_C 	C 	0.1524	0.5546	0.765	0.045
Mof_C 	C 	0.185	0.9698	0.671	0.302
Mof_C 	C 	0.31468	0.84281	0.89933	0.378
Mof_C 	C 	0.3492	0.561	0.27	-0.071
Mof_C 	C 	0.6259	0.6389	0.3702	0.334
Mof_C 	C 	0.831	0.2118	0.439	-0.071
Mof_C 	C 	0.699	0.5887	0.1787	-0.096
Mof_C 	C 	0.9909	0.5039	0.8702	0.332
Mof_C 	C 	0.74214	0.52813	0.15719	0.379
Mof_O 	O 	0.4033	0.601	0.4755	-0.443
Mof_O 	O 	0.36371	0.3945	0.86279	-0.299
Mof_O 	O 	0.0765	0.101	0.3023	-0.442
Mof_O 	O 	0.72934	0.5067	0.1019	-0.442
Mof_O 	O 	0.78724	0.49978	0.2053	-0.436
Mof_O 	O 	0.63629	0.53079	0.7265	-0.298
Mof_O 	O 	0.63629	0.7735	0.96921	-0.3
Mof_O 	O 	0.27066	0.16876	0.22264	-0.443
Mof_O 	O 	0.63669	0.57284	0.43863	-0.423
Mof_O 	O 	0.89586	0.36086	0.2766	-0.407
Mof_O 	O 	0.78724	0.2947	0.00022	-0.431
Mof_O 	O 	0.25729	0.03079	0.6055	-0.303
Mof_O 	O 	0.70508	0.99978	0.78746	-0.432
Mof_O 	O 	0.10414	0.82754	0.535	-0.407
Mof_O 	O 	0.9235	0.5245	0.8788	-0.444
Mof_O 	O 	0.6086	0.77736	0.4933	-0.443
Mof_O 	O 	0.17478	0.06549	0.43451	-0.636
Mof_O 	O 	0.5	0.56549	0.60929	-0.635
Mof_O 	O 	0.74271	0.13721	0.2265	-0.298
Mof_O 	O 	0.5967	0.1212	0.8023	-0.445
Mof_O 	O 	0.36254	0.32754	0.7766	-0.408
Mof_O 	O 	0.27066	0.27736	0.33124	-0.444
Mof_O 	O 	0.63746	0.465	0.63914	-0.408
Mof_O 	O 	0.36331	0.92468	0.06385	-0.417
Mof_O 	O 	0.63669	0.06137	0.92716	-0.427
Mof_O 	O 	0.29492	0.7947	0.99254	-0.436
Mof_O 	O 	0.4033	0.0245	0.899	-0.442
Mof_O 	O 	0.6086	0.0067	0.72264	-0.444
Mof_O 	O 	0.72934	0.3981	0.9933	-0.444
Mof_O 	O 	0.36254	0.7234	0.17246	-0.408
Mof_O 	O 	0.63746	0.86086	0.035	-0.407
Mof_O 	O 	0.98853	0.56137	0.07532	-0.418
Mof_O 	O 	0.10414	0.965	0.67246	-0.407
Mof_O 	O 	0.21276	0.21254	0.49254	-0.437
Mof_O 	O 	0.36371	0.63721	0.1055	-0.298
Mof_O 	O 	0.5967	0.6977	0.3788	-0.443
Mof_O 	O 	0.01147	0.93615	0.42716	-0.42
Mof_O 	O 	0.36331	0.43615	0.57532	-0.423
Mof_O 	O 	0.01147	0.07284	0.56385	-0.424
Mof_O 	O 	0.3914	0.66876	0.6019	-0.443
Mof_O 	O 	0.70508	0.71254	0.50022	-0.437
Mof_O 	O 	0.25729	0.8945	0.46921	-0.297
Mof_O 	O 	0.74271	0.2735	0.36279	-0.299
Mof_O 	O 	0.98853	0.42468	0.93863	-0.426
Mof_O 	O 	0.3914	0.8981	0.83124	-0.442
Mof_O 	O 	0.82522	0.39071	0.10929	-0.634
Mof_O 	O 	0.21276	0.00746	0.28746	-0.438
Mof_O 	O 	0.5	0.89071	0.93451	-0.634
Mof_O 	O 	0.29492	0.50746	0.7053	-0.437
Mof_O 	O 	0.9235	0.6212	0.9755	-0.443
Mof_O 	O 	0.89586	0.2234	0.13914	-0.406
Mof_O 	O 	0.0765	0.1977	0.399	-0.444
_end
