data_functionalizedCrystal
_audit_creation_method	'EQeq! by Chris Wilmer'
_symmetry_space_group_name_H-M	'P1'
_symmetry_Int_Tables_number	1
_symmetry_cell_setting	triclinic
loop_
_symmetry_equiv_pos_as_xyz
  x,y,z
_cell_length_a	11.5784
_cell_length_b	15.3081
_cell_length_c	19.258
_cell_angle_alpha	70.388
_cell_angle_beta	76.659
_cell_angle_gamma	83.048
loop_
_atom_site_label
_atom_site_type_symbol
_atom_site_fract_x
_atom_site_fract_y
_atom_site_fract_z
_atom_site_charge
Mof_C 	C 	0.8642	0.6953	0.3118	0.082
Mof_H 	H 	0.7927	0.7016	0.2959	-0.01
Mof_C 	C 	0.9465	0.7652	0.2731	-0.156
Mof_H 	H 	0.9284	0.8165	0.2339	0.072
Mof_C 	C 	0.0542	0.7561	0.2946	0.09
Mof_C 	C 	0.0739	0.6794	0.3549	-0.15
Mof_H 	H 	0.1443	0.6715	0.3721	0.103
Mof_C 	C 	0.9868	0.614	0.3895	0.079
Mof_H 	H 	0.0026	0.5623	0.4291	0.009
Mof_C 	C 	0.147	0.8251	0.2559	-0.013
Mof_C 	C 	0.1548	0.8775	0.1804	-0.041
Mof_H 	H 	0.1013	0.8701	0.1537	0.037
Mof_C 	C 	0.2443	0.9416	0.1451	-0.062
Mof_H 	H 	0.2501	0.9759	0.0945	0.047
Mof_C 	C 	0.3226	0.9545	0.1833	0.019
Mof_C 	C 	0.3159	0.9019	0.2573	-0.06
Mof_H 	H 	0.3715	0.9089	0.2828	0.031
Mof_C 	C 	0.2274	0.838	0.2953	-0.057
Mof_H 	H 	0.2221	0.8046	0.3461	0.06
Mof_C 	C 	0.4165	0.0233	0.1453	0.019
Mof_C 	C 	0.5623	0.9161	0.0856	0.296
Mof_H 	H 	0.6165	0.9282	0.0372	-0.07
Mof_H 	H 	0.4946	0.886	0.0836	-0.056
Mof_C 	C 	0.6235	0.8522	0.1453	-0.787
Mof_H 	H 	0.6852	0.8841	0.1513	0.253
Mof_H 	H 	0.6575	0.7989	0.1309	0.261
Mof_H 	H 	0.567	0.8327	0.192	0.262
Mof_C 	C 	0.5837	0.0834	0.0741	0.083
Mof_H 	H 	0.6581	0.0897	0.0422	-0.025
Mof_C 	C 	0.4206	0.113	0.1447	0.023
Mof_C 	C 	0.3301	0.1684	0.181	0.001
Mof_C 	C 	0.2951	0.2573	0.1429	-0.064
Mof_H 	H 	0.3298	0.2841	0.0925	0.042
Mof_C 	C 	0.208	0.3079	0.1791	-0.037
Mof_H 	H 	0.1846	0.3676	0.1521	0.047
Mof_C 	C 	0.1556	0.2708	0.2546	-0.017
Mof_C 	C 	0.1925	0.1812	0.2935	-0.039
Mof_H 	H 	0.1596	0.1554	0.3443	0.041
Mof_C 	C 	0.2765	0.1301	0.2582	-0.057
Mof_H 	H 	0.2984	0.0699	0.285	0.045
Mof_C 	C 	0.0672	0.3266	0.2931	0.087
Mof_C 	C 	0.9894	0.3909	0.2569	-0.153
Mof_H 	H 	0.9911	0.4004	0.2064	0.083
Mof_C 	C 	0.9076	0.4421	0.2954	0.077
Mof_H 	H 	0.8585	0.4873	0.2688	0.001
Mof_C 	C 	0.9745	0.3664	0.4049	0.081
Mof_H 	H 	0.9708	0.3578	0.4555	0.009
Mof_C 	C 	0.0594	0.3146	0.3696	-0.142
Mof_H 	H 	0.1108	0.2721	0.3964	0.083
Mof_C 	C 	0.5783	0.3193	0.9482	0.307
Mof_C 	C 	0.5353	0.3428	0.8766	-0.053
Mof_C 	C 	0.6058	0.3164	0.8176	-0.037
Mof_H 	H 	0.6764	0.2813	0.8236	0.061
Mof_C 	C 	0.5687	0.3438	0.7486	-0.015
Mof_H 	H 	0.6167	0.3299	0.7074	0.042
Mof_C 	C 	0.4599	0.3918	0.7422	-0.082
Mof_C 	C 	0.3866	0.4129	0.8036	-0.012
Mof_H 	H 	0.3122	0.4425	0.7996	0.046
Mof_C 	C 	0.4263	0.3892	0.8709	-0.042
Mof_H 	H 	0.3795	0.4046	0.9117	0.061
Mof_C 	C 	0.4217	0.4235	0.6677	0.345
Mof_C 	C 	0.759	0.4421	0.0223	0.413
Mof_C 	C 	0.8843	0.4727	0.0108	-0.181
Mof_C 	C 	0.9785	0.4068	0.0198	0.064
Mof_H 	H 	0.9637	0.3442	0.0338	0.009
Mof_C 	C 	0.905	0.5671	0.9916	0.096
Mof_H 	H 	0.8425	0.6116	0.9866	0.017
Mof_C 	C 	0.5318	0.6122	0.8298	0.37
Mof_C 	C 	0.5836	0.5985	0.7535	-0.071
Mof_C 	C 	0.6859	0.5448	0.7429	-0.012
Mof_H 	H 	0.7256	0.5179	0.7824	0.052
Mof_C 	C 	0.731	0.53	0.6741	-0.023
Mof_H 	H 	0.8008	0.494	0.6674	0.053
Mof_C 	C 	0.6698	0.5701	0.6149	-0.068
Mof_C 	C 	0.5655	0.6249	0.6259	-0.026
Mof_H 	H 	0.5242	0.6506	0.5871	0.036
Mof_C 	C 	0.5238	0.6411	0.693	-0.018
Mof_H 	H 	0.4565	0.6798	0.6991	0.042
Mof_C 	C 	0.7117	0.5483	0.5425	0.314
Mof_C 	C 	0.6636	0.3229	0.5152	0.657
Mof_C 	C 	0.566	0.2562	0.5539	-1.212
Mof_H 	H 	0.5722	0.2111	0.5284	0.386
Mof_H 	H 	0.4904	0.2896	0.5528	0.392
Mof_H 	H 	0.5731	0.2253	0.6052	0.39
Mof_Co	Co	0.61332	0.27155	0.08228	1.14
Mof_Co	Co	0.76733	0.508	0.42177	1.161
Mof_N 	N 	0.5212	0.0051	0.0995	-0.17
Mof_N 	N 	0.5262	0.1491	0.1003	-0.243
Mof_N 	N 	0.8967	0.429	0.3693	-0.235
Mof_N 	N 	0.8823	0.6209	0.3694	-0.235
Mof_O 	O 	0.5228	0.3564	0.99831	-0.467
Mof_O 	O 	0.6646	0.2628	0.962	-0.339
Mof_O 	O 	0.3116	0.4441	0.66918	-0.434
Mof_O 	O 	0.5026	0.4288	0.60962	-0.435
Mof_O 	O 	0.5545	0.549	0.88621	-0.42
Mof_O 	O 	0.4682	0.6866	0.8286	-0.446
Mof_O 	O 	0.6444	0.5777	0.494	-0.506
Mof_O 	O 	0.8067	0.5035	0.52943	-0.383
Mof_O 	O 	0.6803	0.5031	0.0038	-0.444
Mof_O 	O 	0.7487	0.3561	0.0501	-0.475
Mof_O 	O 	0.6407	0.408	0.47417	-0.605
Mof_O 	O 	0.7665	0.2944	0.5251	-0.385
Mof_C 	C 	0.1358	0.3047	0.6882	0.085
Mof_H 	H 	0.2073	0.2984	0.7041	-0.009
Mof_C 	C 	0.0535	0.2348	0.7269	-0.153
Mof_H 	H 	0.0716	0.1835	0.7661	0.076
Mof_C 	C 	0.9458	0.2439	0.7054	0.091
Mof_C 	C 	0.9261	0.3206	0.6451	-0.159
Mof_H 	H 	0.8557	0.3285	0.6279	0.106
Mof_C 	C 	0.0132	0.386	0.6105	0.091
Mof_H 	H 	0.9974	0.4377	0.5709	0.002
Mof_C 	C 	0.853	0.1749	0.7441	-0.012
Mof_C 	C 	0.8452	0.1225	0.8196	-0.039
Mof_H 	H 	0.8987	0.1299	0.8463	0.045
Mof_C 	C 	0.7557	0.0584	0.8549	-0.06
Mof_H 	H 	0.7499	0.0241	0.9055	0.062
Mof_C 	C 	0.6774	0.0455	0.8167	0.015
Mof_C 	C 	0.6841	0.0981	0.7427	-0.058
Mof_H 	H 	0.6285	0.0911	0.7172	0.029
Mof_C 	C 	0.7726	0.162	0.7047	-0.059
Mof_H 	H 	0.7779	0.1954	0.6539	0.06
Mof_C 	C 	0.5835	0.9767	0.8547	0.031
Mof_C 	C 	0.4377	0.0839	0.9144	0.274
Mof_H 	H 	0.3835	0.0718	0.9628	-0.042
Mof_H 	H 	0.5054	0.114	0.9164	-0.038
Mof_C 	C 	0.3765	0.1478	0.8547	-0.772
Mof_H 	H 	0.3148	0.1159	0.8487	0.253
Mof_H 	H 	0.3425	0.2011	0.8691	0.265
Mof_H 	H 	0.433	0.1673	0.808	0.257
Mof_C 	C 	0.4163	0.9166	0.9259	0.093
Mof_H 	H 	0.3419	0.9103	0.9578	-0.004
Mof_C 	C 	0.5794	0.887	0.8553	0.025
Mof_C 	C 	0.6699	0.8316	0.819	0.013
Mof_C 	C 	0.7049	0.7427	0.8571	-0.072
Mof_H 	H 	0.6702	0.7159	0.9075	0.066
Mof_C 	C 	0.792	0.6921	0.8209	-0.028
Mof_H 	H 	0.8154	0.6324	0.8479	0.052
Mof_C 	C 	0.8444	0.7292	0.7454	-0.022
Mof_C 	C 	0.8075	0.8188	0.7065	-0.032
Mof_H 	H 	0.8404	0.8446	0.6557	0.039
Mof_C 	C 	0.7235	0.8699	0.7418	-0.063
Mof_H 	H 	0.7016	0.9301	0.715	0.049
Mof_C 	C 	0.9328	0.6734	0.7069	0.088
Mof_C 	C 	0.0106	0.6091	0.7431	-0.15
Mof_H 	H 	0.0089	0.5996	0.7936	0.088
Mof_C 	C 	0.0924	0.5579	0.7046	0.079
Mof_H 	H 	0.1415	0.5127	0.7312	0.004
Mof_C 	C 	0.0255	0.6336	0.5951	0.087
Mof_H 	H 	0.0292	0.6422	0.5445	0.008
Mof_C 	C 	0.9406	0.6854	0.6304	-0.147
Mof_H 	H 	0.8892	0.7279	0.6036	0.085
Mof_C 	C 	0.4217	0.6807	0.0518	0.314
Mof_C 	C 	0.4647	0.6572	0.1234	-0.068
Mof_C 	C 	0.3942	0.6836	0.1824	-0.029
Mof_H 	H 	0.3236	0.7187	0.1764	0.055
Mof_C 	C 	0.4313	0.6562	0.2514	-0.022
Mof_H 	H 	0.3833	0.6701	0.2926	0.044
Mof_C 	C 	0.5401	0.6082	0.2578	-0.079
Mof_C 	C 	0.6134	0.5871	0.1964	-0.019
Mof_H 	H 	0.6878	0.5575	0.2004	0.044
Mof_C 	C 	0.5737	0.6108	0.1291	-0.036
Mof_H 	H 	0.6205	0.5954	0.0883	0.049
Mof_C 	C 	0.5783	0.5765	0.3323	0.344
Mof_C 	C 	0.241	0.5579	0.9777	0.355
Mof_C 	C 	0.1157	0.5273	0.9892	0.021
Mof_C 	C 	0.0215	0.5932	0.9802	-0.102
Mof_H 	H 	0.0363	0.6558	0.9662	0.078
Mof_C 	C 	0.095	0.4329	0.0084	-0.144
Mof_H 	H 	0.1575	0.3884	0.0134	0.074
Mof_C 	C 	0.4682	0.3878	0.1702	0.375
Mof_C 	C 	0.4164	0.4015	0.2465	-0.076
Mof_C 	C 	0.3141	0.4552	0.2571	-0.007
Mof_H 	H 	0.2744	0.4821	0.2176	0.046
Mof_C 	C 	0.269	0.47	0.3259	-0.027
Mof_H 	H 	0.1992	0.506	0.3326	0.054
Mof_C 	C 	0.3302	0.4299	0.3851	-0.065
Mof_C 	C 	0.4345	0.3751	0.3741	-0.029
Mof_H 	H 	0.4758	0.3494	0.4129	0.037
Mof_C 	C 	0.4762	0.3589	0.307	-0.014
Mof_H 	H 	0.5435	0.3202	0.3009	0.04
Mof_C 	C 	0.2883	0.4517	0.4575	0.313
Mof_C 	C 	0.3364	0.6771	0.4848	0.657
Mof_C 	C 	0.434	0.7438	0.4461	-1.213
Mof_H 	H 	0.4278	0.7889	0.4716	0.387
Mof_H 	H 	0.5096	0.7104	0.4472	0.392
Mof_H 	H 	0.4269	0.7747	0.3948	0.391
Mof_Co	Co	0.38668	0.72845	0.91772	1.158
Mof_Co	Co	0.23267	0.492	0.57823	1.161
Mof_N 	N 	0.4788	0.9949	0.9005	-0.161
Mof_N 	N 	0.4738	0.8509	0.8997	-0.233
Mof_N 	N 	0.1033	0.571	0.6307	-0.236
Mof_N 	N 	0.1177	0.3791	0.6306	-0.237
Mof_O 	O 	0.4772	0.6436	0.00169	-0.514
Mof_O 	O 	0.3354	0.7372	0.038	-0.379
Mof_O 	O 	0.6884	0.5559	0.33082	-0.434
Mof_O 	O 	0.4974	0.5712	0.39038	-0.435
Mof_O 	O 	0.4455	0.451	0.11379	-0.44
Mof_O 	O 	0.5318	0.3134	0.1714	-0.452
Mof_O 	O 	0.3556	0.4223	0.506	-0.506
Mof_O 	O 	0.1933	0.4965	0.47057	-0.382
Mof_O 	O 	0.3197	0.4969	0.9962	-0.391
Mof_O 	O 	0.2513	0.6439	0.9499	-0.441
Mof_O 	O 	0.3593	0.592	0.52583	-0.605
Mof_O 	O 	0.2335	0.7056	0.4749	-0.384
Mof_Co	Co	0.5	0.5	-0	1.18
Mof_Co	Co	0.5	0.5	0.5	1.185
_end
