data_functionalizedCrystal
_audit_creation_method	'EQeq! by Chris Wilmer'
_symmetry_space_group_name_H-M	'P1'
_symmetry_Int_Tables_number	1
_symmetry_cell_setting	triclinic
loop_
_symmetry_equiv_pos_as_xyz
  x,y,z
_cell_length_a	9.2275
_cell_length_b	13.5056
_cell_length_c	14.6122
_cell_angle_alpha	90
_cell_angle_beta	90.328
_cell_angle_gamma	90
loop_
_atom_site_label
_atom_site_type_symbol
_atom_site_fract_x
_atom_site_fract_y
_atom_site_fract_z
_atom_site_charge
Mof_Gd	Gd	0.25108	0.0029	0.09275	1.847
Mof_C 	C 	0.0037	0.1107	0.3283	-0.037
Mof_C 	C 	0.0288	0.2048	0.3649	-0.003
Mof_H 	H 	0.0948	0.2487	0.3361	0.056
Mof_C 	C 	0.9559	0.2338	0.4443	-0.09
Mof_C 	C 	0.8653	0.1667	0.488	-0.071
Mof_H 	H 	0.8164	0.1864	0.542	0.073
Mof_C 	C 	0.8446	0.0713	0.4544	0.104
Mof_C 	C 	0.9121	0.0452	0.3724	-0.1
Mof_H 	H 	0.8949	0.9817	0.3467	0.085
Mof_C 	C 	0.7602	0.9971	0.5097	-0.262
Mof_H 	H 	0.83	0.9572	0.5458	0.114
Mof_H 	H 	0.6994	0.0339	0.5538	0.115
Mof_C 	C 	0.664	0.9274	0.4571	0.1
Mof_C 	C 	0.5902	0.9562	0.3787	-0.09
Mof_H 	H 	0.6077	0.0201	0.3539	0.081
Mof_C 	C 	0.4916	0.8943	0.3358	-0.043
Mof_C 	C 	0.4652	0.8001	0.3713	0.006
Mof_H 	H 	0.3946	0.7584	0.3437	0.051
Mof_C 	C 	0.543	0.7677	0.4477	-0.104
Mof_C 	C 	0.6425	0.8318	0.4889	-0.063
Mof_H 	H 	0.697	0.8093	0.5402	0.068
Mof_C 	C 	0.0831	0.0744	0.2449	0.289
Mof_C 	C 	0.9761	0.3357	0.485	0.44
Mof_C 	C 	0.4121	0.9324	0.2522	0.292
Mof_C 	C 	0.5245	0.6645	0.4863	0.479
Mof_O 	O 	0.0268	0.0073	0.1968	-0.35
Mof_O 	O 	0.2053	0.1119	0.22601	-0.362
Mof_O 	O 	0.066	0.3925	0.4494	-0.489
Mof_O 	O 	0.8988	0.3581	0.55322	-0.451
Mof_O 	O 	0.4702	0.0024	0.20628	-0.335
Mof_O 	O 	0.2924	0.8953	0.23014	-0.359
Mof_O 	O 	0.4171	0.6162	0.4615	-0.508
Mof_O 	O 	0.6198	0.6345	0.5418	-0.486
Mof_Gd	Gd	0.24892	0.5029	0.40725	1.858
Mof_C 	C 	0.4963	0.6107	0.1717	-0.04
Mof_C 	C 	0.4712	0.7048	0.1351	-0.001
Mof_H 	H 	0.4052	0.7487	0.1639	0.054
Mof_C 	C 	0.5441	0.7338	0.0557	-0.094
Mof_C 	C 	0.6347	0.6667	0.012	-0.066
Mof_H 	H 	0.6836	0.6864	0.958	0.069
Mof_C 	C 	0.6554	0.5713	0.0456	0.098
Mof_C 	C 	0.5879	0.5452	0.1276	-0.095
Mof_H 	H 	0.6051	0.4817	0.1533	0.082
Mof_C 	C 	0.7398	0.4971	0.9903	-0.258
Mof_H 	H 	0.67	0.4572	0.9542	0.113
Mof_H 	H 	0.8006	0.5339	0.9462	0.114
Mof_C 	C 	0.836	0.4274	0.0429	0.105
Mof_C 	C 	0.9098	0.4562	0.1213	-0.102
Mof_H 	H 	0.8923	0.5201	0.1461	0.085
Mof_C 	C 	0.0084	0.3943	0.1642	-0.035
Mof_C 	C 	0.0348	0.3001	0.1287	0.002
Mof_H 	H 	0.1054	0.2584	0.1563	0.053
Mof_C 	C 	0.957	0.2677	0.0523	-0.097
Mof_C 	C 	0.8575	0.3318	0.0111	-0.078
Mof_H 	H 	0.803	0.3093	0.9598	0.076
Mof_C 	C 	0.4169	0.5744	0.2551	0.289
Mof_C 	C 	0.5239	0.8357	0.015	0.446
Mof_C 	C 	0.0879	0.4324	0.2478	0.284
Mof_C 	C 	0.9755	0.1645	0.0137	0.461
Mof_O 	O 	0.4732	0.5073	0.3032	-0.35
Mof_O 	O 	0.2947	0.6119	0.27399	-0.362
Mof_O 	O 	0.434	0.8925	0.0506	-0.485
Mof_O 	O 	0.6012	0.8581	0.94678	-0.454
Mof_O 	O 	0.0298	0.5024	0.29372	-0.331
Mof_O 	O 	0.2076	0.3953	0.26986	-0.36
Mof_O 	O 	0.0829	0.1162	0.0385	-0.501
Mof_O 	O 	0.8802	0.1345	0.9582	-0.473
Mof_Gd	Gd	0.74892	0.9971	0.90725	1.846
Mof_C 	C 	0.9963	0.8893	0.6717	-0.038
Mof_C 	C 	0.9712	0.7952	0.6351	-0.004
Mof_H 	H 	0.9052	0.7513	0.6639	0.055
Mof_C 	C 	0.0441	0.7662	0.5557	-0.091
Mof_C 	C 	0.1347	0.8333	0.512	-0.072
Mof_H 	H 	0.1836	0.8136	0.458	0.072
Mof_C 	C 	0.1554	0.9287	0.5456	0.103
Mof_C 	C 	0.0879	0.9548	0.6276	-0.1
Mof_H 	H 	0.1051	0.0183	0.6533	0.085
Mof_C 	C 	0.2398	0.0029	0.4903	-0.262
Mof_H 	H 	0.17	0.0428	0.4542	0.114
Mof_H 	H 	0.3006	0.9661	0.4462	0.115
Mof_C 	C 	0.336	0.0726	0.5429	0.1
Mof_C 	C 	0.4098	0.0438	0.6213	-0.09
Mof_H 	H 	0.3923	0.9799	0.6461	0.081
Mof_C 	C 	0.5084	0.1057	0.6642	-0.043
Mof_C 	C 	0.5348	0.1999	0.6287	0.006
Mof_H 	H 	0.6054	0.2416	0.6563	0.051
Mof_C 	C 	0.457	0.2323	0.5523	-0.104
Mof_C 	C 	0.3575	0.1682	0.5111	-0.063
Mof_H 	H 	0.303	0.1907	0.4598	0.068
Mof_C 	C 	0.9169	0.9256	0.7551	0.289
Mof_C 	C 	0.0239	0.6643	0.515	0.44
Mof_C 	C 	0.5879	0.0676	0.7478	0.292
Mof_C 	C 	0.4755	0.3355	0.5137	0.479
Mof_O 	O 	0.9732	0.9927	0.8032	-0.35
Mof_O 	O 	0.7947	0.8881	0.77399	-0.362
Mof_O 	O 	0.934	0.6075	0.5506	-0.489
Mof_O 	O 	0.1012	0.6419	0.44678	-0.451
Mof_O 	O 	0.5298	0.9976	0.79372	-0.335
Mof_O 	O 	0.7076	0.1047	0.76986	-0.359
Mof_O 	O 	0.5829	0.3838	0.5385	-0.508
Mof_O 	O 	0.3802	0.3655	0.4582	-0.486
Mof_Gd	Gd	0.75108	0.4971	0.59275	1.858
Mof_C 	C 	0.5037	0.3893	0.8283	-0.04
Mof_C 	C 	0.5288	0.2952	0.8649	-0.001
Mof_H 	H 	0.5948	0.2513	0.8361	0.054
Mof_C 	C 	0.4559	0.2662	0.9443	-0.094
Mof_C 	C 	0.3653	0.3333	0.988	-0.066
Mof_H 	H 	0.3164	0.3136	0.042	0.069
Mof_C 	C 	0.3446	0.4287	0.9544	0.098
Mof_C 	C 	0.4121	0.4548	0.8724	-0.095
Mof_H 	H 	0.3949	0.5183	0.8467	0.082
Mof_C 	C 	0.2602	0.5029	0.0097	-0.258
Mof_H 	H 	0.33	0.5428	0.0458	0.113
Mof_H 	H 	0.1994	0.4661	0.0538	0.114
Mof_C 	C 	0.164	0.5726	0.9571	0.105
Mof_C 	C 	0.0902	0.5438	0.8787	-0.102
Mof_H 	H 	0.1077	0.4799	0.8539	0.085
Mof_C 	C 	0.9916	0.6057	0.8358	-0.035
Mof_C 	C 	0.9652	0.6999	0.8713	0.002
Mof_H 	H 	0.8946	0.7416	0.8437	0.053
Mof_C 	C 	0.043	0.7323	0.9477	-0.097
Mof_C 	C 	0.1425	0.6682	0.9889	-0.078
Mof_H 	H 	0.197	0.6907	0.0402	0.076
Mof_C 	C 	0.5831	0.4256	0.7449	0.289
Mof_C 	C 	0.4761	0.1643	0.985	0.446
Mof_C 	C 	0.9121	0.5676	0.7522	0.284
Mof_C 	C 	0.0245	0.8355	0.9863	0.461
Mof_O 	O 	0.5268	0.4927	0.6968	-0.35
Mof_O 	O 	0.7053	0.3881	0.72601	-0.362
Mof_O 	O 	0.566	0.1075	0.9494	-0.485
Mof_O 	O 	0.3988	0.1419	0.05322	-0.454
Mof_O 	O 	0.9702	0.4976	0.70628	-0.331
Mof_O 	O 	0.7924	0.6047	0.73014	-0.36
Mof_O 	O 	0.9171	0.8838	0.9615	-0.501
Mof_O 	O 	0.1198	0.8655	0.0418	-0.473
_end
