data_functionalizedCrystal
_audit_creation_method	'EQeq! by Chris Wilmer'
_symmetry_space_group_name_H-M	'P1'
_symmetry_Int_Tables_number	1
_symmetry_cell_setting	triclinic
loop_
_symmetry_equiv_pos_as_xyz
  x,y,z
_cell_length_a	49.4418
_cell_length_b	49.4418
_cell_length_c	10.0065
_cell_angle_alpha	90
_cell_angle_beta	90
_cell_angle_gamma	120
loop_
_atom_site_label
_atom_site_type_symbol
_atom_site_fract_x
_atom_site_fract_y
_atom_site_fract_z
_atom_site_charge
Mof_In	In	0.20688	0.79316	0.50006	2.523
Mof_In	In	5e-05	0.6412	0.49991	2.423
Mof_In	In	0.15873	0.57936	0.49949	2.37
Mof_Mn	Mn	0.06563	0.82027	0.1827	0.706
Mof_Mn	Mn	0.06562	0.82034	0.8172	0.663
Mof_Mn	Mn	0.17973	0.93422	0.1828	0.735
Mof_Mn	Mn	0.1798	0.93449	0.8177	0.688
Mof_O 	O 	0.99977	0.63604	0.2608	-0.435
Mof_O 	O 	0.1868	0.8121	0.6479	-0.502
Mof_O 	O 	0.2942	0.6494	0.8986	-0.419
Mof_O 	O 	0.2927	0.64903	0.1161	-0.433
Mof_O 	O 	0.9999	0.6767	0.3561	-0.468
Mof_O 	O 	0.2107	0.7896	0.7451	-0.441
Mof_O 	O 	0.2105	0.7894	0.2588	-0.443
Mof_O 	O 	0.0002	0.63658	0.7396	-0.44
Mof_O 	O 	0.1514	0.5761	0.7519	-0.332
Mof_O 	O 	0.1872	0.8126	0.3517	-0.521
Mof_O 	O 	0.1194	0.5916	0.5006	-0.493
Mof_O 	O 	0.4079	0.8799	0.5008	-0.506
Mof_O 	O 	0.1517	0.5758	0.2413	-0.334
Mof_O 	O 	0.1955	0.7428	0.4996	-0.541
Mof_O 	O 	0.2476	0.8411	0.4956	-0.564
Mof_O 	O 	0.1586	0.7523	0.4997	-0.55
Mof_O 	O 	0.03385	0.62182	0.4989	-0.457
Mof_O 	O 	0.2573	0.8047	0.4986	-0.558
Mof_O 	O 	0.37773	0.96504	0.4993	-0.457
Mof_O 	O 	0.1665	0.6269	0.4975	-0.542
Mof_O 	O 	0.3727	0.8332	0.4989	-0.546
Mof_O 	O 	0.0514	0.6733	0.4997	-0.497
Mof_O 	O 	0.0001	0.6767	0.6442	-0.473
Mof_O 	O 	0.3271	0.9484	0.4985	-0.505
Mof_O 	O 	0.2021	0.6011	0.3515	-0.41
Mof_O 	O 	0.2012	0.6002	0.6323	-0.471
Mof_O 	O 	0.0598	0.838	0.9999	-0.34
Mof_O 	O 	0.162	0.9404	0.9969	-0.342
Mof_O 	O 	0.0348	0.773	0.1141	-0.32
Mof_O 	O 	0.0354	0.7722	0.884	-0.269
Mof_O 	O 	0.9615	0.7358	0.884	-0.381
Mof_O 	O 	0.9633	0.7363	0.117	-0.301
Mof_O 	O 	0.1074	0.823	0.8841	-0.294
Mof_O 	O 	0.1779	0.8941	0.877	-0.28
Mof_O 	O 	0.1305	0.9001	0.0992	-0.182
Mof_O 	O 	0.1091	0.8248	0.113	-0.284
Mof_O 	O 	0.1003	0.8695	0.1001	-0.179
Mof_O 	O 	0.1775	0.8937	0.114	-0.271
Mof_C 	C 	0.1837	0.5926	0.262	0.191
Mof_C 	C 	0.1972	0.5984	0.1255	-0.05
Mof_C 	C 	0.231	0.6145	0.1167	0.071
Mof_C 	C 	0.2477	0.6224	0.9906	-0.14
Mof_C 	C 	0.2281	0.613	0.8725	0.084
Mof_C 	C 	0.1942	0.5969	0.8689	-0.055
Mof_C 	C 	0.1801	0.5902	0.0005	0.06
Mof_C 	C 	0.2814	0.6384	0.006	0.452
Mof_C 	C 	0.1866	0.5938	0.7279	0.212
Mof_C 	C 	0.1317	0.6457	0.4971	-0.235
Mof_C 	C 	0.3389	0.9065	0.5016	-0.135
Mof_C 	C 	0.1408	0.6959	0.4974	-0.151
Mof_C 	C 	0.1958	0.8042	0.2518	0.354
Mof_C 	C 	0.1967	0.8037	0.7563	0.356
Mof_C 	C 	3.6896e-17	0.6615	0.2436	0.318
Mof_C 	C 	0.3045	0.8594	0.5009	-0.157
Mof_C 	C 	0.094	0.6618	0.5016	-0.127
Mof_C 	C 	0.3651	0.8996	0.5009	0.136
Mof_C 	C 	0.3529	0.8684	0.4951	-0.211
Mof_C 	C 	0.1003	0.6347	0.5048	0.136
Mof_C 	C 	0.3502	0.9438	0.4985	0.318
Mof_C 	C 	0.0556	0.6498	0.5003	0.286
Mof_C 	C 	0.3257	0.8478	0.4964	0.169
Mof_C 	C 	0.1522	0.6732	0.4986	0.172
Mof_C 	C 	0.138	0.621	0.5027	0.422
Mof_C 	C 	0.1684	0.7341	0.4934	0.415
Mof_C 	C 	0.3791	0.861	0.5014	0.424
Mof_C 	C 	0.2656	0.8311	0.4932	0.44
Mof_C 	C 	0.3111	0.8879	0.5024	0.159
Mof_C 	C 	0.1118	0.6885	0.5006	0.157
Mof_C 	C 	0.9998	0.6614	0.7559	0.329
Mof_C 	C 	0.9999	0.6591	0.9979	0.117
Mof_C 	C 	0.1947	0.8046	0.0028	0.083
Mof_C 	C 	0.1892	0.8151	0.864	-0.136
Mof_C 	C 	0.1887	0.8156	0.13	-0.133
Mof_C 	C 	0.9887	0.6675	0.124	-0.114
Mof_C 	C 	0.0139	0.6796	0.117	-0.042
Mof_C 	C 	0.9816	0.6888	0.138	0.088
Mof_C 	C 	0.0209	0.7118	0.131	0.039
Mof_C 	C 	0.9871	0.6666	0.883	-0.083
Mof_C 	C 	0.0136	0.6792	0.882	-0.069
Mof_C 	C 	0.0203	0.711	0.868	0.059
Mof_C 	C 	0.9802	0.69	0.872	0.073
Mof_C 	C 	0.1613	0.8175	0.127	0.061
Mof_C 	C 	0.1842	0.8409	0.123	0.064
Mof_C 	C 	0.1606	0.8165	0.868	0.062
Mof_C 	C 	0.1832	0.8411	0.871	0.061
Mof_C 	C 	0.9609	0.7209	0.978	0.326
Mof_C 	C 	0.042	0.7593	0.024	0.223
Mof_C 	C 	0.9727	0.6996	0.997	-0.106
Mof_C 	C 	0.0257	0.7259	0.002	-0.074
Mof_C 	C 	0.1657	0.8697	-0	0.152
Mof_C 	C 	0.1293	0.8351	0.999	0.24
Mof_C 	C 	0.1448	0.8207	0.003	-0.101
Mof_C 	C 	0.1815	0.8546	0.004	-0.066
Mof_In	In	0.20684	0.41372	0.50006	2.522
Mof_In	In	0.3588	0.35885	0.49991	2.424
Mof_In	In	0.42064	0.57937	0.49949	2.369
Mof_Mn	Mn	0.17973	0.24536	0.1827	0.705
Mof_Mn	Mn	0.17966	0.24528	0.8172	0.662
Mof_Mn	Mn	0.06578	0.24551	0.1828	0.733
Mof_Mn	Mn	0.06551	0.24531	0.8177	0.687
Mof_O 	O 	0.36396	0.36373	0.2608	-0.438
Mof_O 	O 	0.1879	0.3747	0.6479	-0.503
Mof_O 	O 	0.3506	0.6448	0.8986	-0.42
Mof_O 	O 	0.35097	0.64367	0.1161	-0.434
Mof_O 	O 	0.3233	0.3232	0.3561	-0.47
Mof_O 	O 	0.2104	0.4211	0.7451	-0.442
Mof_O 	O 	0.2106	0.4211	0.2588	-0.444
Mof_O 	O 	0.36342	0.36362	0.7396	-0.441
Mof_O 	O 	0.4239	0.5753	0.7519	-0.333
Mof_O 	O 	0.1874	0.3746	0.3517	-0.522
Mof_O 	O 	0.4084	0.5278	0.5006	-0.494
Mof_O 	O 	0.1201	0.528	0.5008	-0.507
Mof_O 	O 	0.4242	0.5759	0.2413	-0.335
Mof_O 	O 	0.2572	0.4527	0.4996	-0.542
Mof_O 	O 	0.1589	0.4065	0.4956	-0.565
Mof_O 	O 	0.2477	0.4063	0.4997	-0.551
Mof_O 	O 	0.37818	0.41203	0.4989	-0.457
Mof_O 	O 	0.1953	0.4526	0.4986	-0.558
Mof_O 	O 	0.03496	0.41269	0.4993	-0.457
Mof_O 	O 	0.3731	0.5396	0.4975	-0.542
Mof_O 	O 	0.1668	0.5395	0.4989	-0.546
Mof_O 	O 	0.3267	0.3781	0.4997	-0.498
Mof_O 	O 	0.3233	0.3234	0.6442	-0.473
Mof_O 	O 	0.0516	0.3787	0.4985	-0.506
Mof_O 	O 	0.3989	0.601	0.3515	-0.41
Mof_O 	O 	0.3998	0.601	0.6323	-0.471
Mof_O 	O 	0.162	0.2218	0.9999	-0.34
Mof_O 	O 	0.0596	0.2216	0.9969	-0.343
Mof_O 	O 	0.227	0.2618	0.1141	-0.32
Mof_O 	O 	0.2278	0.2632	0.884	-0.269
Mof_O 	O 	0.2642	0.2257	0.884	-0.381
Mof_O 	O 	0.2637	0.227	0.117	-0.301
Mof_O 	O 	0.177	0.2844	0.8841	-0.294
Mof_O 	O 	0.1059	0.2838	0.877	-0.28
Mof_O 	O 	0.0999	0.2304	0.0992	-0.182
Mof_O 	O 	0.1752	0.2843	0.113	-0.284
Mof_O 	O 	0.1305	0.2308	0.1001	-0.179
Mof_O 	O 	0.1063	0.2838	0.114	-0.271
Mof_C 	C 	0.4074	0.5911	0.262	0.191
Mof_C 	C 	0.4016	0.5988	0.1255	-0.05
Mof_C 	C 	0.3855	0.6165	0.1167	0.071
Mof_C 	C 	0.3776	0.6253	0.9906	-0.14
Mof_C 	C 	0.387	0.6151	0.8725	0.084
Mof_C 	C 	0.4031	0.5973	0.8689	-0.055
Mof_C 	C 	0.4098	0.5899	0.0005	0.06
Mof_C 	C 	0.3616	0.643	0.006	0.452
Mof_C 	C 	0.4062	0.5928	0.7279	0.212
Mof_C 	C 	0.3543	0.486	0.4971	-0.235
Mof_C 	C 	0.0935	0.4324	0.5016	-0.135
Mof_C 	C 	0.3041	0.4449	0.4974	-0.151
Mof_C 	C 	0.1958	0.3916	0.2518	0.354
Mof_C 	C 	0.1963	0.393	0.7563	0.356
Mof_C 	C 	0.3385	0.3385	0.2436	0.32
Mof_C 	C 	0.1406	0.4451	0.5009	-0.157
Mof_C 	C 	0.3382	0.4322	0.5016	-0.127
Mof_C 	C 	0.1004	0.4655	0.5009	0.136
Mof_C 	C 	0.1316	0.4845	0.4951	-0.211
Mof_C 	C 	0.3653	0.4656	0.5048	0.136
Mof_C 	C 	0.0562	0.4064	0.4985	0.318
Mof_C 	C 	0.3502	0.4058	0.5003	0.286
Mof_C 	C 	0.1522	0.4779	0.4964	0.169
Mof_C 	C 	0.3268	0.479	0.4986	0.172
Mof_C 	C 	0.379	0.517	0.5027	0.422
Mof_C 	C 	0.2659	0.4343	0.4934	0.415
Mof_C 	C 	0.139	0.5181	0.5014	0.424
Mof_C 	C 	0.1689	0.4345	0.4932	0.44
Mof_C 	C 	0.1121	0.4232	0.5024	0.159
Mof_C 	C 	0.3115	0.4233	0.5006	0.157
Mof_C 	C 	0.3386	0.3384	0.7559	0.327
Mof_C 	C 	0.3409	0.3408	0.9979	0.117
Mof_C 	C 	0.1954	0.3901	0.0028	0.083
Mof_C 	C 	0.1849	0.3741	0.864	-0.136
Mof_C 	C 	0.1844	0.3731	0.13	-0.133
Mof_C 	C 	0.3325	0.3212	0.124	-0.115
Mof_C 	C 	0.3204	0.3343	0.117	-0.041
Mof_C 	C 	0.3112	0.2928	0.138	0.088
Mof_C 	C 	0.2882	0.3091	0.131	0.039
Mof_C 	C 	0.3334	0.3205	0.883	-0.083
Mof_C 	C 	0.3208	0.3344	0.882	-0.068
Mof_C 	C 	0.289	0.3093	0.868	0.059
Mof_C 	C 	0.31	0.2902	0.872	0.073
Mof_C 	C 	0.1825	0.3438	0.127	0.061
Mof_C 	C 	0.1591	0.3433	0.123	0.064
Mof_C 	C 	0.1835	0.3441	0.868	0.062
Mof_C 	C 	0.1589	0.3421	0.871	0.061
Mof_C 	C 	0.2791	0.24	0.978	0.326
Mof_C 	C 	0.2407	0.2827	0.024	0.223
Mof_C 	C 	0.3004	0.2731	0.997	-0.107
Mof_C 	C 	0.2741	0.2998	0.002	-0.073
Mof_C 	C 	0.1303	0.296	-0	0.153
Mof_C 	C 	0.1649	0.2942	0.999	0.24
Mof_C 	C 	0.1793	0.3241	0.003	-0.101
Mof_C 	C 	0.1454	0.3269	0.004	-0.066
Mof_In	In	0.58628	0.79312	0.50006	2.522
Mof_In	In	0.64115	0.99995	0.49991	2.426
Mof_In	In	0.42063	0.84127	0.49949	2.369
Mof_Mn	Mn	0.75464	0.93437	0.1827	0.705
Mof_Mn	Mn	0.75472	0.93438	0.8172	0.662
Mof_Mn	Mn	0.75449	0.82027	0.1828	0.734
Mof_Mn	Mn	0.75469	0.8202	0.8177	0.687
Mof_O 	O 	0.63627	0.00023	0.2608	-0.438
Mof_O 	O 	0.6253	0.8132	0.6479	-0.503
Mof_O 	O 	0.3552	0.7058	0.8986	-0.42
Mof_O 	O 	0.35633	0.7073	0.1161	-0.434
Mof_O 	O 	0.6768	0.0001	0.3561	-0.47
Mof_O 	O 	0.5789	0.7893	0.7451	-0.442
Mof_O 	O 	0.5789	0.7895	0.2588	-0.444
Mof_O 	O 	0.63638	0.9998	0.7396	-0.44
Mof_O 	O 	0.4247	0.8486	0.7519	-0.333
Mof_O 	O 	0.6254	0.8128	0.3517	-0.522
Mof_O 	O 	0.4722	0.8806	0.5006	-0.494
Mof_O 	O 	0.472	0.5921	0.5008	-0.507
Mof_O 	O 	0.4241	0.8483	0.2413	-0.335
Mof_O 	O 	0.5473	0.8045	0.4996	-0.542
Mof_O 	O 	0.5935	0.7524	0.4956	-0.565
Mof_O 	O 	0.5937	0.8414	0.4997	-0.551
Mof_O 	O 	0.58797	0.96615	0.4989	-0.457
Mof_O 	O 	0.5474	0.7427	0.4986	-0.558
Mof_O 	O 	0.58731	0.62227	0.4993	-0.457
Mof_O 	O 	0.4604	0.8335	0.4975	-0.542
Mof_O 	O 	0.4605	0.6273	0.4989	-0.546
Mof_O 	O 	0.6219	0.9486	0.4997	-0.498
Mof_O 	O 	0.6766	0.9999	0.6442	-0.472
Mof_O 	O 	0.6213	0.6729	0.4985	-0.505
Mof_O 	O 	0.399	0.7979	0.3515	-0.41
Mof_O 	O 	0.399	0.7988	0.6323	-0.471
Mof_O 	O 	0.7782	0.9402	0.9999	-0.34
Mof_O 	O 	0.7784	0.838	0.9969	-0.342
Mof_O 	O 	0.7382	0.9652	0.1141	-0.32
Mof_O 	O 	0.7368	0.9646	0.884	-0.268
Mof_O 	O 	0.7743	0.0385	0.884	-0.381
Mof_O 	O 	0.773	0.0367	0.117	-0.301
Mof_O 	O 	0.7156	0.8926	0.8841	-0.294
Mof_O 	O 	0.7162	0.8221	0.877	-0.28
Mof_O 	O 	0.7696	0.8695	0.0992	-0.182
Mof_O 	O 	0.7157	0.8909	0.113	-0.284
Mof_O 	O 	0.7692	0.8997	0.1001	-0.179
Mof_O 	O 	0.7162	0.8225	0.114	-0.271
Mof_C 	C 	0.4089	0.8163	0.262	0.191
Mof_C 	C 	0.4012	0.8028	0.1255	-0.05
Mof_C 	C 	0.3835	0.769	0.1167	0.071
Mof_C 	C 	0.3747	0.7523	0.9906	-0.14
Mof_C 	C 	0.3849	0.7719	0.8725	0.084
Mof_C 	C 	0.4027	0.8058	0.8689	-0.055
Mof_C 	C 	0.4101	0.8199	0.0005	0.06
Mof_C 	C 	0.357	0.7186	0.006	0.452
Mof_C 	C 	0.4072	0.8134	0.7279	0.212
Mof_C 	C 	0.514	0.8683	0.4971	-0.235
Mof_C 	C 	0.5676	0.6611	0.5016	-0.135
Mof_C 	C 	0.5551	0.8592	0.4974	-0.151
Mof_C 	C 	0.6084	0.8042	0.2518	0.354
Mof_C 	C 	0.607	0.8033	0.7563	0.356
Mof_C 	C 	0.6615	0	0.2436	0.32
Mof_C 	C 	0.5549	0.6955	0.5009	-0.157
Mof_C 	C 	0.5678	0.906	0.5016	-0.127
Mof_C 	C 	0.5345	0.6349	0.5009	0.136
Mof_C 	C 	0.5155	0.6471	0.4951	-0.211
Mof_C 	C 	0.5344	0.8997	0.5048	0.137
Mof_C 	C 	0.5936	0.6498	0.4985	0.318
Mof_C 	C 	0.5942	0.9444	0.5003	0.286
Mof_C 	C 	0.5221	0.6743	0.4964	0.169
Mof_C 	C 	0.521	0.8478	0.4986	0.172
Mof_C 	C 	0.483	0.862	0.5027	0.422
Mof_C 	C 	0.5657	0.8316	0.4934	0.415
Mof_C 	C 	0.4819	0.6209	0.5014	0.424
Mof_C 	C 	0.5655	0.7344	0.4932	0.44
Mof_C 	C 	0.5768	0.6889	0.5024	0.159
Mof_C 	C 	0.5767	0.8882	0.5006	0.157
Mof_C 	C 	0.6616	0.0002	0.7559	0.325
Mof_C 	C 	0.6592	0.0001	0.9979	0.115
Mof_C 	C 	0.6099	0.8053	0.0028	0.083
Mof_C 	C 	0.6259	0.8108	0.864	-0.136
Mof_C 	C 	0.6269	0.8113	0.13	-0.133
Mof_C 	C 	0.6788	0.0113	0.124	-0.116
Mof_C 	C 	0.6657	0.9861	0.117	-0.04
Mof_C 	C 	0.7072	0.0184	0.138	0.088
Mof_C 	C 	0.6909	0.9791	0.131	0.039
Mof_C 	C 	0.6795	0.0129	0.883	-0.083
Mof_C 	C 	0.6656	0.9864	0.882	-0.066
Mof_C 	C 	0.6907	0.9797	0.868	0.059
Mof_C 	C 	0.7098	0.0198	0.872	0.072
Mof_C 	C 	0.6562	0.8387	0.127	0.061
Mof_C 	C 	0.6567	0.8158	0.123	0.064
Mof_C 	C 	0.6559	0.8394	0.868	0.062
Mof_C 	C 	0.6579	0.8168	0.871	0.061
Mof_C 	C 	0.76	0.0391	0.978	0.326
Mof_C 	C 	0.7173	0.958	0.024	0.223
Mof_C 	C 	0.7269	0.0273	0.997	-0.107
Mof_C 	C 	0.7002	0.9743	0.002	-0.073
Mof_C 	C 	0.704	0.8343	-0	0.153
Mof_C 	C 	0.7058	0.8707	0.999	0.24
Mof_C 	C 	0.6759	0.8552	0.003	-0.101
Mof_C 	C 	0.6731	0.8185	0.004	-0.066
Mof_In	In	0.79312	0.20684	0.49994	2.522
Mof_In	In	0.99995	0.3588	0.50009	2.426
Mof_In	In	0.84127	0.42064	0.50051	2.369
Mof_Mn	Mn	0.93437	0.17973	0.8173	0.709
Mof_Mn	Mn	0.93438	0.17966	0.1828	0.66
Mof_Mn	Mn	0.82027	0.06578	0.8172	0.738
Mof_Mn	Mn	0.8202	0.06551	0.1823	0.685
Mof_O 	O 	0.00023	0.36396	0.7392	-0.436
Mof_O 	O 	0.8132	0.1879	0.3521	-0.503
Mof_O 	O 	0.7058	0.3506	0.1014	-0.429
Mof_O 	O 	0.7073	0.35097	0.8839	-0.439
Mof_O 	O 	0.0001	0.3233	0.6439	-0.47
Mof_O 	O 	0.7893	0.2104	0.2549	-0.444
Mof_O 	O 	0.7895	0.2106	0.7412	-0.443
Mof_O 	O 	0.9998	0.36342	0.2604	-0.44
Mof_O 	O 	0.8486	0.4239	0.2481	-0.335
Mof_O 	O 	0.8128	0.1874	0.6483	-0.521
Mof_O 	O 	0.8806	0.4084	0.4994	-0.494
Mof_O 	O 	0.5921	0.1201	0.4992	-0.507
Mof_O 	O 	0.8483	0.4242	0.7587	-0.334
Mof_O 	O 	0.8045	0.2572	0.5004	-0.542
Mof_O 	O 	0.7524	0.1589	0.5044	-0.566
Mof_O 	O 	0.8414	0.2477	0.5003	-0.551
Mof_O 	O 	0.96615	0.37818	0.5011	-0.457
Mof_O 	O 	0.7427	0.1953	0.5014	-0.559
Mof_O 	O 	0.62227	0.03496	0.5007	-0.457
Mof_O 	O 	0.8335	0.3731	0.5025	-0.542
Mof_O 	O 	0.6273	0.1668	0.5011	-0.546
Mof_O 	O 	0.9486	0.3267	0.5003	-0.498
Mof_O 	O 	0.9999	0.3233	0.3558	-0.472
Mof_O 	O 	0.6729	0.0516	0.5015	-0.506
Mof_O 	O 	0.7979	0.3989	0.6485	-0.41
Mof_O 	O 	0.7988	0.3998	0.3677	-0.473
Mof_O 	O 	0.9402	0.162	0.0001	-0.346
Mof_O 	O 	0.838	0.0596	0.0031	-0.348
Mof_O 	O 	0.9652	0.227	0.8859	-0.319
Mof_O 	O 	0.9646	0.2278	0.116	-0.272
Mof_O 	O 	0.0385	0.2642	0.116	-0.381
Mof_O 	O 	0.0367	0.2637	0.883	-0.297
Mof_O 	O 	0.8926	0.177	0.1159	-0.293
Mof_O 	O 	0.8221	0.1059	0.123	-0.284
Mof_O 	O 	0.8695	0.0999	0.9008	-0.179
Mof_O 	O 	0.8909	0.1752	0.887	-0.277
Mof_O 	O 	0.8997	0.1305	0.8999	-0.176
Mof_O 	O 	0.8225	0.1063	0.886	-0.27
Mof_C 	C 	0.8163	0.4074	0.738	0.193
Mof_C 	C 	0.8028	0.4016	0.8745	-0.054
Mof_C 	C 	0.769	0.3855	0.8833	0.08
Mof_C 	C 	0.7523	0.3776	0.0094	-0.158
Mof_C 	C 	0.7719	0.387	0.1275	0.089
Mof_C 	C 	0.8058	0.4031	0.1311	-0.065
Mof_C 	C 	0.8199	0.4098	0.9995	0.07
Mof_C 	C 	0.7186	0.3616	0.994	0.471
Mof_C 	C 	0.8134	0.4062	0.2721	0.215
Mof_C 	C 	0.8683	0.3543	0.5029	-0.235
Mof_C 	C 	0.6611	0.0935	0.4984	-0.135
Mof_C 	C 	0.8592	0.3041	0.5026	-0.151
Mof_C 	C 	0.8042	0.1958	0.7482	0.354
Mof_C 	C 	0.8033	0.1963	0.2437	0.356
Mof_C 	C 	-1.87478e-17	0.3385	0.7564	0.317
Mof_C 	C 	0.6955	0.1406	0.4991	-0.157
Mof_C 	C 	0.906	0.3382	0.4984	-0.127
Mof_C 	C 	0.6349	0.1004	0.4991	0.136
Mof_C 	C 	0.6471	0.1316	0.5049	-0.21
Mof_C 	C 	0.8997	0.3653	0.4952	0.136
Mof_C 	C 	0.6498	0.0562	0.5015	0.318
Mof_C 	C 	0.9444	0.3502	0.4997	0.286
Mof_C 	C 	0.6743	0.1522	0.5036	0.169
Mof_C 	C 	0.8478	0.3268	0.5014	0.171
Mof_C 	C 	0.862	0.379	0.4973	0.422
Mof_C 	C 	0.8316	0.2659	0.5066	0.415
Mof_C 	C 	0.6209	0.139	0.4986	0.423
Mof_C 	C 	0.7344	0.1689	0.5068	0.44
Mof_C 	C 	0.6889	0.1121	0.4976	0.158
Mof_C 	C 	0.8882	0.3115	0.4994	0.157
Mof_C 	C 	0.0002	0.3386	0.2441	0.324
Mof_C 	C 	0.0001	0.3409	0.0021	0.105
Mof_C 	C 	0.8053	0.1954	0.9972	0.09
Mof_C 	C 	0.8108	0.1849	0.136	-0.14
Mof_C 	C 	0.8113	0.1844	0.87	-0.133
Mof_C 	C 	0.0113	0.3325	0.876	-0.113
Mof_C 	C 	0.9861	0.3204	0.883	-0.033
Mof_C 	C 	0.0184	0.3112	0.862	0.092
Mof_C 	C 	0.9791	0.2882	0.869	0.035
Mof_C 	C 	0.0129	0.3334	0.117	-0.083
Mof_C 	C 	0.9864	0.3208	0.118	-0.064
Mof_C 	C 	0.9797	0.289	0.132	0.051
Mof_C 	C 	0.0198	0.31	0.128	0.074
Mof_C 	C 	0.8387	0.1825	0.873	0.056
Mof_C 	C 	0.8158	0.1591	0.877	0.066
Mof_C 	C 	0.8394	0.1835	0.132	0.055
Mof_C 	C 	0.8168	0.1589	0.129	0.058
Mof_C 	C 	0.0391	0.2791	0.022	0.321
Mof_C 	C 	0.958	0.2407	0.976	0.227
Mof_C 	C 	0.0273	0.3004	0.003	-0.113
Mof_C 	C 	0.9743	0.2741	0.998	-0.063
Mof_C 	C 	0.8343	0.1303	-0	0.159
Mof_C 	C 	0.8707	0.1649	0.001	0.219
Mof_C 	C 	0.8552	0.1793	0.997	-0.083
Mof_C 	C 	0.8185	0.1454	0.996	-0.064
Mof_In	In	0.79316	0.58628	0.49994	2.522
Mof_In	In	0.6412	0.64115	0.50009	2.424
Mof_In	In	0.57936	0.42063	0.50051	2.369
Mof_Mn	Mn	0.82027	0.75464	0.8173	0.709
Mof_Mn	Mn	0.82034	0.75472	0.1828	0.66
Mof_Mn	Mn	0.93422	0.75449	0.8172	0.739
Mof_Mn	Mn	0.93449	0.75469	0.1823	0.685
Mof_O 	O 	0.63604	0.63627	0.7392	-0.435
Mof_O 	O 	0.8121	0.6253	0.3521	-0.503
Mof_O 	O 	0.6494	0.3552	0.1014	-0.429
Mof_O 	O 	0.64903	0.35633	0.8839	-0.438
Mof_O 	O 	0.6767	0.6768	0.6439	-0.469
Mof_O 	O 	0.7896	0.5789	0.2549	-0.444
Mof_O 	O 	0.7894	0.5789	0.7412	-0.443
Mof_O 	O 	0.63658	0.63638	0.2604	-0.441
Mof_O 	O 	0.5761	0.4247	0.2481	-0.335
Mof_O 	O 	0.8126	0.6254	0.6483	-0.521
Mof_O 	O 	0.5916	0.4722	0.4994	-0.494
Mof_O 	O 	0.8799	0.472	0.4992	-0.507
Mof_O 	O 	0.5758	0.4241	0.7587	-0.334
Mof_O 	O 	0.7428	0.5473	0.5004	-0.542
Mof_O 	O 	0.8411	0.5935	0.5044	-0.566
Mof_O 	O 	0.7523	0.5937	0.5003	-0.551
Mof_O 	O 	0.62182	0.58797	0.5011	-0.457
Mof_O 	O 	0.8047	0.5474	0.5014	-0.559
Mof_O 	O 	0.96504	0.58731	0.5007	-0.457
Mof_O 	O 	0.6269	0.4604	0.5025	-0.542
Mof_O 	O 	0.8332	0.4605	0.5011	-0.546
Mof_O 	O 	0.6733	0.6219	0.5003	-0.498
Mof_O 	O 	0.6767	0.6766	0.3558	-0.472
Mof_O 	O 	0.9484	0.6213	0.5015	-0.505
Mof_O 	O 	0.6011	0.399	0.6485	-0.41
Mof_O 	O 	0.6002	0.399	0.3677	-0.473
Mof_O 	O 	0.838	0.7782	0.0001	-0.346
Mof_O 	O 	0.9404	0.7784	0.0031	-0.348
Mof_O 	O 	0.773	0.7382	0.8859	-0.319
Mof_O 	O 	0.7722	0.7368	0.116	-0.273
Mof_O 	O 	0.7358	0.7743	0.116	-0.381
Mof_O 	O 	0.7363	0.773	0.883	-0.297
Mof_O 	O 	0.823	0.7156	0.1159	-0.293
Mof_O 	O 	0.8941	0.7162	0.123	-0.284
Mof_O 	O 	0.9001	0.7696	0.9008	-0.179
Mof_O 	O 	0.8248	0.7157	0.887	-0.277
Mof_O 	O 	0.8695	0.7692	0.8999	-0.176
Mof_O 	O 	0.8937	0.7162	0.886	-0.27
Mof_C 	C 	0.5926	0.4089	0.738	0.193
Mof_C 	C 	0.5984	0.4012	0.8745	-0.054
Mof_C 	C 	0.6145	0.3835	0.8833	0.08
Mof_C 	C 	0.6224	0.3747	0.0094	-0.158
Mof_C 	C 	0.613	0.3849	0.1275	0.089
Mof_C 	C 	0.5969	0.4027	0.1311	-0.065
Mof_C 	C 	0.5902	0.4101	0.9995	0.07
Mof_C 	C 	0.6384	0.357	0.994	0.471
Mof_C 	C 	0.5938	0.4072	0.2721	0.215
Mof_C 	C 	0.6457	0.514	0.5029	-0.235
Mof_C 	C 	0.9065	0.5676	0.4984	-0.135
Mof_C 	C 	0.6959	0.5551	0.5026	-0.151
Mof_C 	C 	0.8042	0.6084	0.7482	0.354
Mof_C 	C 	0.8037	0.607	0.2437	0.356
Mof_C 	C 	0.6615	0.6615	0.7564	0.318
Mof_C 	C 	0.8594	0.5549	0.4991	-0.157
Mof_C 	C 	0.6618	0.5678	0.4984	-0.127
Mof_C 	C 	0.8996	0.5345	0.4991	0.136
Mof_C 	C 	0.8684	0.5155	0.5049	-0.211
Mof_C 	C 	0.6347	0.5344	0.4952	0.136
Mof_C 	C 	0.9438	0.5936	0.5015	0.318
Mof_C 	C 	0.6498	0.5942	0.4997	0.286
Mof_C 	C 	0.8478	0.5221	0.5036	0.169
Mof_C 	C 	0.6732	0.521	0.5014	0.171
Mof_C 	C 	0.621	0.483	0.4973	0.422
Mof_C 	C 	0.7341	0.5657	0.5066	0.415
Mof_C 	C 	0.861	0.4819	0.4986	0.423
Mof_C 	C 	0.8311	0.5655	0.5068	0.44
Mof_C 	C 	0.8879	0.5768	0.4976	0.158
Mof_C 	C 	0.6885	0.5767	0.4994	0.157
Mof_C 	C 	0.6614	0.6616	0.2441	0.326
Mof_C 	C 	0.6591	0.6592	0.0021	0.107
Mof_C 	C 	0.8046	0.6099	0.9972	0.09
Mof_C 	C 	0.8151	0.6259	0.136	-0.14
Mof_C 	C 	0.8156	0.6269	0.87	-0.133
Mof_C 	C 	0.6675	0.6788	0.876	-0.112
Mof_C 	C 	0.6796	0.6657	0.883	-0.034
Mof_C 	C 	0.6888	0.7072	0.862	0.093
Mof_C 	C 	0.7118	0.6909	0.869	0.035
Mof_C 	C 	0.6666	0.6795	0.117	-0.083
Mof_C 	C 	0.6792	0.6656	0.118	-0.065
Mof_C 	C 	0.711	0.6907	0.132	0.051
Mof_C 	C 	0.69	0.7098	0.128	0.074
Mof_C 	C 	0.8175	0.6562	0.873	0.056
Mof_C 	C 	0.8409	0.6567	0.877	0.066
Mof_C 	C 	0.8165	0.6559	0.132	0.055
Mof_C 	C 	0.8411	0.6579	0.129	0.058
Mof_C 	C 	0.7209	0.76	0.022	0.321
Mof_C 	C 	0.7593	0.7173	0.976	0.227
Mof_C 	C 	0.6996	0.7269	0.003	-0.113
Mof_C 	C 	0.7259	0.7002	0.998	-0.064
Mof_C 	C 	0.8697	0.704	-0	0.159
Mof_C 	C 	0.8351	0.7058	0.001	0.218
Mof_C 	C 	0.8207	0.6759	0.997	-0.083
Mof_C 	C 	0.8546	0.6731	0.996	-0.064
Mof_In	In	0.41372	0.20688	0.49994	2.522
Mof_In	In	0.35885	5e-05	0.50009	2.422
Mof_In	In	0.57937	0.15873	0.50051	2.369
Mof_Mn	Mn	0.24536	0.06563	0.8173	0.709
Mof_Mn	Mn	0.24528	0.06562	0.1828	0.659
Mof_Mn	Mn	0.24551	0.17973	0.8172	0.738
Mof_Mn	Mn	0.24531	0.1798	0.1823	0.685
Mof_O 	O 	0.36373	0.99977	0.7392	-0.434
Mof_O 	O 	0.3747	0.1868	0.3521	-0.503
Mof_O 	O 	0.6448	0.2942	0.1014	-0.429
Mof_O 	O 	0.64367	0.2927	0.8839	-0.439
Mof_O 	O 	0.3232	0.9999	0.6439	-0.468
Mof_O 	O 	0.4211	0.2107	0.2549	-0.444
Mof_O 	O 	0.4211	0.2105	0.7412	-0.443
Mof_O 	O 	0.36362	0.0002	0.2604	-0.442
Mof_O 	O 	0.5753	0.1514	0.2481	-0.335
Mof_O 	O 	0.3746	0.1872	0.6483	-0.521
Mof_O 	O 	0.5278	0.1194	0.4994	-0.494
Mof_O 	O 	0.528	0.4079	0.4992	-0.507
Mof_O 	O 	0.5759	0.1517	0.7587	-0.334
Mof_O 	O 	0.4527	0.1955	0.5004	-0.542
Mof_O 	O 	0.4065	0.2476	0.5044	-0.566
Mof_O 	O 	0.4063	0.1586	0.5003	-0.551
Mof_O 	O 	0.41203	0.03385	0.5011	-0.457
Mof_O 	O 	0.4526	0.2573	0.5014	-0.559
Mof_O 	O 	0.41269	0.37773	0.5007	-0.457
Mof_O 	O 	0.5396	0.1665	0.5025	-0.542
Mof_O 	O 	0.5395	0.3727	0.5011	-0.546
Mof_O 	O 	0.3781	0.0514	0.5003	-0.498
Mof_O 	O 	0.3234	0.0001	0.3558	-0.473
Mof_O 	O 	0.3787	0.3271	0.5015	-0.505
Mof_O 	O 	0.601	0.2021	0.6485	-0.41
Mof_O 	O 	0.601	0.2012	0.3677	-0.473
Mof_O 	O 	0.2218	0.0598	0.0001	-0.346
Mof_O 	O 	0.2216	0.162	0.0031	-0.349
Mof_O 	O 	0.2618	0.0348	0.8859	-0.319
Mof_O 	O 	0.2632	0.0354	0.116	-0.273
Mof_O 	O 	0.2257	0.9615	0.116	-0.381
Mof_O 	O 	0.227	0.9633	0.883	-0.297
Mof_O 	O 	0.2844	0.1074	0.1159	-0.293
Mof_O 	O 	0.2838	0.1779	0.123	-0.284
Mof_O 	O 	0.2304	0.1305	0.9008	-0.179
Mof_O 	O 	0.2843	0.1091	0.887	-0.277
Mof_O 	O 	0.2308	0.1003	0.8999	-0.176
Mof_O 	O 	0.2838	0.1775	0.886	-0.27
Mof_C 	C 	0.5911	0.1837	0.738	0.193
Mof_C 	C 	0.5988	0.1972	0.8745	-0.054
Mof_C 	C 	0.6165	0.231	0.8833	0.08
Mof_C 	C 	0.6253	0.2477	0.0094	-0.158
Mof_C 	C 	0.6151	0.2281	0.1275	0.089
Mof_C 	C 	0.5973	0.1942	0.1311	-0.065
Mof_C 	C 	0.5899	0.1801	0.9995	0.07
Mof_C 	C 	0.643	0.2814	0.994	0.471
Mof_C 	C 	0.5928	0.1866	0.2721	0.215
Mof_C 	C 	0.486	0.1317	0.5029	-0.235
Mof_C 	C 	0.4324	0.3389	0.4984	-0.135
Mof_C 	C 	0.4449	0.1408	0.5026	-0.151
Mof_C 	C 	0.3916	0.1958	0.7482	0.354
Mof_C 	C 	0.393	0.1967	0.2437	0.356
Mof_C 	C 	0.3385	-2.3833e-33	0.7564	0.316
Mof_C 	C 	0.4451	0.3045	0.4991	-0.157
Mof_C 	C 	0.4322	0.094	0.4984	-0.127
Mof_C 	C 	0.4655	0.3651	0.4991	0.136
Mof_C 	C 	0.4845	0.3529	0.5049	-0.21
Mof_C 	C 	0.4656	0.1003	0.4952	0.136
Mof_C 	C 	0.4064	0.3502	0.5015	0.318
Mof_C 	C 	0.4058	0.0556	0.4997	0.286
Mof_C 	C 	0.4779	0.3257	0.5036	0.169
Mof_C 	C 	0.479	0.1522	0.5014	0.171
Mof_C 	C 	0.517	0.138	0.4973	0.422
Mof_C 	C 	0.4343	0.1684	0.5066	0.415
Mof_C 	C 	0.5181	0.3791	0.4986	0.423
Mof_C 	C 	0.4345	0.2656	0.5068	0.44
Mof_C 	C 	0.4232	0.3111	0.4976	0.158
Mof_C 	C 	0.4233	0.1118	0.4994	0.157
Mof_C 	C 	0.3384	0.9998	0.2441	0.328
Mof_C 	C 	0.3408	0.9999	0.0021	0.107
Mof_C 	C 	0.3901	0.1947	0.9972	0.09
Mof_C 	C 	0.3741	0.1892	0.136	-0.14
Mof_C 	C 	0.3731	0.1887	0.87	-0.133
Mof_C 	C 	0.3212	0.9887	0.876	-0.11
Mof_C 	C 	0.3343	0.0139	0.883	-0.035
Mof_C 	C 	0.2928	0.9816	0.862	0.092
Mof_C 	C 	0.3091	0.0209	0.869	0.035
Mof_C 	C 	0.3205	0.9871	0.117	-0.083
Mof_C 	C 	0.3344	0.0136	0.118	-0.067
Mof_C 	C 	0.3093	0.0203	0.132	0.051
Mof_C 	C 	0.2902	0.9802	0.128	0.074
Mof_C 	C 	0.3438	0.1613	0.873	0.056
Mof_C 	C 	0.3433	0.1842	0.877	0.066
Mof_C 	C 	0.3441	0.1606	0.132	0.055
Mof_C 	C 	0.3421	0.1832	0.129	0.058
Mof_C 	C 	0.24	0.9609	0.022	0.321
Mof_C 	C 	0.2827	0.042	0.976	0.227
Mof_C 	C 	0.2731	0.9727	0.003	-0.113
Mof_C 	C 	0.2998	0.0257	0.998	-0.064
Mof_C 	C 	0.296	0.1657	-0	0.159
Mof_C 	C 	0.2942	0.1293	0.001	0.218
Mof_C 	C 	0.3241	0.1448	0.997	-0.083
Mof_C 	C 	0.3269	0.1815	0.996	-0.064
Mof_Mn	Mn	0.33333	0.66667	0.214	0.857
Mof_Mn	Mn	0.33333	0.66667	0.7902	0.857
Mof_Mn	Mn	0.66667	0.33333	0.786	0.861
Mof_Mn	Mn	0.66667	0.33333	0.2098	0.859
_end
