data_functionalizedCrystal
_audit_creation_method	'EQeq! by Chris Wilmer'
_symmetry_space_group_name_H-M	'P1'
_symmetry_Int_Tables_number	1
_symmetry_cell_setting	triclinic
loop_
_symmetry_equiv_pos_as_xyz
  x,y,z
_cell_length_a	13.4147
_cell_length_b	13.4147
_cell_length_c	14.4622
_cell_angle_alpha	90
_cell_angle_beta	90
_cell_angle_gamma	120
loop_
_atom_site_label
_atom_site_type_symbol
_atom_site_fract_x
_atom_site_fract_y
_atom_site_fract_z
_atom_site_charge
Mof_Gd	Gd	0.33333	0.66666	0.6673	1.883
Mof_Gd	Gd	0.66667	0.33334	0.8327	1.883
Mof_Gd	Gd	0.66667	0.33334	0.3327	1.877
Mof_Gd	Gd	0.33333	0.66666	0.1673	1.878
Mof_Cu	Cu	0.5	0	0.5	0.9
Mof_Cu	Cu	0.5	0.5	0.5	0.929
Mof_Cu	Cu	-1.55728e-17	0.5	0.5	0.898
Mof_Cu	Cu	0.5	0	-0	0.872
Mof_Cu	Cu	-5.0441e-17	0.5	-0	0.87
Mof_Cu	Cu	0.5	0.5	-0	0.901
Mof_H 	H 	0.7045	0.9596	0.551	0.162
Mof_H 	H 	0.6817	0.8623	0.4796	0.145
Mof_H 	H 	0.54	0.8073	0.3716	0.163
Mof_H 	H 	0.6016	0.9149	0.3066	0.17
Mof_H 	H 	0.6727	0.0231	0.4212	0.039
Mof_H 	H 	0.2551	0.2955	0.551	0.113
Mof_H 	H 	0.1806	0.3183	0.4796	0.108
Mof_H 	H 	0.2673	0.46	0.3716	0.154
Mof_H 	H 	0.3133	0.3984	0.3066	0.139
Mof_H 	H 	0.3504	0.3273	0.4212	0.091
Mof_H 	H 	0.0404	0.7449	0.551	0.103
Mof_H 	H 	0.1377	0.8194	0.4796	0.125
Mof_H 	H 	0.1927	0.7327	0.3716	0.158
Mof_H 	H 	0.0851	0.6867	0.3066	0.127
Mof_H 	H 	0.9769	0.6496	0.4212	0.16
Mof_H 	H 	0.7449	0.0404	0.949	0.057
Mof_H 	H 	0.8194	0.1377	0.0204	0.024
Mof_H 	H 	0.7327	0.1927	0.1284	0.146
Mof_H 	H 	0.6867	0.0851	0.1934	0.125
Mof_H 	H 	0.6496	0.9769	0.0788	0.156
Mof_H 	H 	0.9596	0.7045	0.949	0.116
Mof_H 	H 	0.8623	0.6817	0.0204	0.047
Mof_H 	H 	0.8073	0.54	0.1284	0.151
Mof_H 	H 	0.9149	0.6016	0.1934	0.167
Mof_H 	H 	0.0231	0.6727	0.0788	0.034
Mof_H 	H 	0.2955	0.2551	0.949	0.063
Mof_H 	H 	0.3183	0.1806	0.0204	0.003
Mof_H 	H 	0.46	0.2673	0.1284	0.14
Mof_H 	H 	0.3984	0.3133	0.1934	0.135
Mof_H 	H 	0.3273	0.3504	0.0788	0.09
Mof_H 	H 	0.2955	0.0404	0.449	0.09
Mof_H 	H 	0.3183	0.1377	0.5204	0.107
Mof_H 	H 	0.46	0.1927	0.6284	0.154
Mof_H 	H 	0.3984	0.0851	0.6934	0.123
Mof_H 	H 	0.3273	0.9769	0.5788	0.152
Mof_H 	H 	0.7449	0.7045	0.449	0.14
Mof_H 	H 	0.8194	0.6817	0.5204	0.146
Mof_H 	H 	0.7327	0.54	0.6284	0.165
Mof_H 	H 	0.6867	0.6016	0.6934	0.154
Mof_H 	H 	0.6496	0.6727	0.5788	0.099
Mof_H 	H 	0.9596	0.2551	0.449	0.15
Mof_H 	H 	0.8623	0.1806	0.5204	0.128
Mof_H 	H 	0.8073	0.2673	0.6284	0.159
Mof_H 	H 	0.9149	0.3133	0.6934	0.165
Mof_H 	H 	0.0231	0.3504	0.5788	0.033
Mof_H 	H 	0.2551	0.9596	0.051	0.195
Mof_H 	H 	0.1806	0.8623	0.9796	0.225
Mof_H 	H 	0.2673	0.8073	0.8716	0.171
Mof_H 	H 	0.3133	0.9149	0.8066	0.165
Mof_H 	H 	0.3504	0.0231	0.9212	0.041
Mof_H 	H 	0.0404	0.2955	0.051	0.139
Mof_H 	H 	0.1377	0.3183	0.9796	0.212
Mof_H 	H 	0.1927	0.46	0.8716	0.166
Mof_H 	H 	0.0851	0.3984	0.8066	0.124
Mof_H 	H 	0.9769	0.3273	0.9212	0.156
Mof_H 	H 	0.7045	0.7449	0.051	0.187
Mof_H 	H 	0.6817	0.8194	0.9796	0.244
Mof_H 	H 	0.54	0.7327	0.8716	0.177
Mof_H 	H 	0.6016	0.6867	0.8066	0.156
Mof_H 	H 	0.6727	0.6496	0.9212	0.101
Mof_C 	C 	0.5456	0.8157	0.568	0.401
Mof_C 	C 	0.647	0.9015	0.5108	-0.328
Mof_C 	C 	0.552	0.8838	0.3602	-0.38
Mof_C 	C 	0.4378	0.8753	0.3397	0.479
Mof_C 	C 	0.2701	0.4544	0.568	0.384
Mof_C 	C 	0.2545	0.353	0.5108	-0.295
Mof_C 	C 	0.3318	0.448	0.3602	-0.367
Mof_C 	C 	0.4375	0.5622	0.3397	0.47
Mof_C 	C 	0.1843	0.7299	0.568	0.38
Mof_C 	C 	0.0985	0.7455	0.5108	-0.295
Mof_C 	C 	0.1162	0.6682	0.3602	-0.363
Mof_C 	C 	0.1247	0.5625	0.3397	0.464
Mof_C 	C 	0.7299	0.1843	0.932	0.332
Mof_C 	C 	0.7455	0.0985	0.9892	-0.091
Mof_C 	C 	0.6682	0.1162	0.1398	-0.353
Mof_C 	C 	0.5625	0.1247	0.1603	0.457
Mof_C 	C 	0.8157	0.5456	0.932	0.355
Mof_C 	C 	0.9015	0.647	0.9892	-0.131
Mof_C 	C 	0.8838	0.552	0.1398	-0.371
Mof_C 	C 	0.8753	0.4378	0.1603	0.472
Mof_C 	C 	0.4544	0.2701	0.932	0.333
Mof_C 	C 	0.353	0.2545	0.9892	-0.085
Mof_C 	C 	0.448	0.3318	0.1398	-0.357
Mof_C 	C 	0.5622	0.4375	0.1603	0.462
Mof_C 	C 	0.4544	0.1843	0.432	0.375
Mof_C 	C 	0.353	0.0985	0.4892	-0.284
Mof_C 	C 	0.448	0.1162	0.6398	-0.36
Mof_C 	C 	0.5622	0.1247	0.6603	0.464
Mof_C 	C 	0.7299	0.5456	0.432	0.394
Mof_C 	C 	0.7455	0.647	0.4892	-0.319
Mof_C 	C 	0.6682	0.552	0.6398	-0.377
Mof_C 	C 	0.5625	0.4378	0.6603	0.474
Mof_C 	C 	0.8157	0.2701	0.432	0.397
Mof_C 	C 	0.9015	0.2545	0.4892	-0.317
Mof_C 	C 	0.8838	0.3318	0.6398	-0.377
Mof_C 	C 	0.8753	0.4375	0.6603	0.478
Mof_C 	C 	0.2701	0.8157	0.068	0.444
Mof_C 	C 	0.2545	0.9015	0.0108	-0.511
Mof_C 	C 	0.3318	0.8838	0.8602	-0.382
Mof_C 	C 	0.4375	0.8753	0.8397	0.484
Mof_C 	C 	0.1843	0.4544	0.068	0.425
Mof_C 	C 	0.0985	0.353	0.0108	-0.49
Mof_C 	C 	0.1162	0.448	0.8602	-0.366
Mof_C 	C 	0.1247	0.5622	0.8397	0.469
Mof_C 	C 	0.5456	0.7299	0.068	0.441
Mof_C 	C 	0.647	0.7455	0.0108	-0.516
Mof_C 	C 	0.552	0.6682	0.8602	-0.382
Mof_C 	C 	0.4378	0.5625	0.8397	0.48
Mof_N 	N 	0.6097	0.9576	0.4411	-0.095
Mof_N 	N 	0.3479	0.3903	0.4411	-0.158
Mof_N 	N 	0.0424	0.6521	0.4411	-0.21
Mof_N 	N 	0.6521	0.0424	0.0589	-0.256
Mof_N 	N 	0.9576	0.6097	0.0589	-0.139
Mof_N 	N 	0.3903	0.3479	0.0589	-0.208
Mof_N 	N 	0.3903	0.0424	0.5589	-0.209
Mof_N 	N 	0.6521	0.6097	0.5589	-0.153
Mof_N 	N 	0.9576	0.3479	0.5589	-0.094
Mof_N 	N 	0.3479	0.9576	0.9411	-0.047
Mof_N 	N 	0.0424	0.3903	0.9411	-0.156
Mof_N 	N 	0.6097	0.6521	0.9411	-0.1
Mof_O 	O 	0.4502	0.8121	0.5574	-0.476
Mof_O 	O 	0.5579	0.754	0.6265	-0.377
Mof_O 	O 	0.4024	0.9268	0.392	-0.393
Mof_O 	O 	0.3818	0.8168	0.2717	-0.476
Mof_O 	O 	0.3619	0.5498	0.5574	-0.484
Mof_O 	O 	0.1961	0.4421	0.6265	-0.388
Mof_O 	O 	0.5244	0.5976	0.392	-0.421
Mof_O 	O 	0.435	0.6182	0.2717	-0.48
Mof_O 	O 	0.1879	0.6381	0.5574	-0.487
Mof_O 	O 	0.246	0.8039	0.6265	-0.375
Mof_O 	O 	0.0732	0.4756	0.392	-0.447
Mof_O 	O 	0.1832	0.565	0.2717	-0.489
Mof_O 	O 	0.6381	0.1879	0.9426	-0.452
Mof_O 	O 	0.8039	0.246	0.8735	-0.352
Mof_O 	O 	0.4756	0.0732	0.108	-0.454
Mof_O 	O 	0.565	0.1832	0.2283	-0.49
Mof_O 	O 	0.8121	0.4502	0.9426	-0.443
Mof_O 	O 	0.754	0.5579	0.8735	-0.356
Mof_O 	O 	0.9268	0.4024	0.108	-0.4
Mof_O 	O 	0.8168	0.3818	0.2283	-0.476
Mof_O 	O 	0.5498	0.3619	0.9426	-0.449
Mof_O 	O 	0.4421	0.1961	0.8735	-0.365
Mof_O 	O 	0.5976	0.5244	0.108	-0.43
Mof_O 	O 	0.6182	0.435	0.2283	-0.481
Mof_O 	O 	0.5498	0.1879	0.4426	-0.485
Mof_O 	O 	0.4421	0.246	0.3735	-0.384
Mof_O 	O 	0.5976	0.0732	0.608	-0.443
Mof_O 	O 	0.6182	0.1832	0.7283	-0.489
Mof_O 	O 	0.6381	0.4502	0.4426	-0.484
Mof_O 	O 	0.8039	0.5579	0.3735	-0.372
Mof_O 	O 	0.4756	0.4024	0.608	-0.426
Mof_O 	O 	0.565	0.3818	0.7283	-0.485
Mof_O 	O 	0.8121	0.3619	0.4426	-0.475
Mof_O 	O 	0.754	0.1961	0.3735	-0.385
Mof_O 	O 	0.9268	0.5244	0.608	-0.389
Mof_O 	O 	0.8168	0.435	0.7283	-0.476
Mof_O 	O 	0.3619	0.8121	0.0574	-0.503
Mof_O 	O 	0.1961	0.754	0.1265	-0.405
Mof_O 	O 	0.5244	0.9268	0.892	-0.374
Mof_O 	O 	0.435	0.8168	0.7717	-0.475
Mof_O 	O 	0.1879	0.5498	0.0574	-0.514
Mof_O 	O 	0.246	0.4421	0.1265	-0.405
Mof_O 	O 	0.0732	0.5976	0.892	-0.425
Mof_O 	O 	0.1832	0.6182	0.7717	-0.488
Mof_O 	O 	0.4502	0.6381	0.0574	-0.512
Mof_O 	O 	0.5579	0.8039	0.1265	-0.392
Mof_O 	O 	0.4024	0.4756	0.892	-0.407
Mof_O 	O 	0.3818	0.565	0.7717	-0.484
_end
