data_functionalizedCrystal
_audit_creation_method	'EQeq! by Chris Wilmer'
_symmetry_space_group_name_H-M	'P1'
_symmetry_Int_Tables_number	1
_symmetry_cell_setting	triclinic
loop_
_symmetry_equiv_pos_as_xyz
  x,y,z
_cell_length_a	15.3035
_cell_length_b	39.6946
_cell_length_c	21.5934
_cell_angle_alpha	90
_cell_angle_beta	107.402
_cell_angle_gamma	90
loop_
_atom_site_label
_atom_site_type_symbol
_atom_site_fract_x
_atom_site_fract_y
_atom_site_fract_z
_atom_site_charge
Mof_Cu	Cu	0.29913	0.23648	0.20285	0.901
Mof_Cu	Cu	0.19147	0.28339	0.13371	0.899
Mof_Cu	Cu	0.51863	0.99217	0.94591	0.9
Mof_O 	O 	0.13726	0.28602	0.2053	-0.398
Mof_O 	O 	0.29022	0.31408	0.17927	-0.396
Mof_O 	O 	0.19826	0.20632	0.16305	-0.398
Mof_O 	O 	0.60094	0.03083	0.96592	-0.403
Mof_O 	O 	0.75696	0.22653	0.57063	-0.406
Mof_O 	O 	0.84422	0.26793	0.62768	-0.407
Mof_O 	O 	0.23476	0.24849	0.26648	-0.402
Mof_O 	O 	0.38522	0.27312	0.2331	-0.401
Mof_O 	O 	0.10655	0.24585	0.10113	-0.396
Mof_C 	C 	0.61353	0.04743	0.01735	0.318
Mof_C 	C 	0.16528	0.26723	0.25428	0.32
Mof_C 	C 	0.36592	0.30346	0.21697	0.307
Mof_C 	C 	0.81733	0.24922	0.57918	0.326
Mof_C 	C 	0.03415	0.28635	0.29232	-0.134
Mof_H 	H 	0.0168	0.3012	0.2575	0.091
Mof_C 	C 	0.00783	0.26164	0.38708	-0.042
Mof_C 	C 	0.95931	0.20139	0.07185	-0.144
Mof_H 	H 	0.9479	0.2238	0.0596	0.094
Mof_C 	C 	0.95494	0.25952	0.43461	-0.049
Mof_C 	C 	0.82917	0.1197	0.05936	-0.046
Mof_C 	C 	0.08472	0.24103	0.39514	0.149
Mof_C 	C 	0.74265	0.07585	0.9913	-0.137
Mof_H 	H 	0.7319	0.0621	0.9549	0.093
Mof_C 	C 	0.7723	0.11708	0.09951	0.155
Mof_C 	C 	0.9839	0.28417	0.33521	0.151
Mof_C 	C 	0.90584	0.14471	0.07491	-0.048
Mof_C 	C 	0.8888	0.17853	0.05817	0.159
Mof_C 	C 	0.8133	0.09895	0.00517	0.154
Mof_C 	C 	0.11153	0.26605	0.30132	0.011
Mof_C 	C 	0.12264	0.21628	0.1232	0.306
Mof_C 	C 	0.70234	0.09364	0.08617	-0.142
Mof_H 	H 	0.6655	0.0916	0.1133	0.092
Mof_C 	C 	0.13718	0.24386	0.35296	-0.137
Mof_H 	H 	0.1896	0.2308	0.3594	0.09
Mof_C 	C 	0.04782	0.19086	0.10401	0.022
Mof_C 	C 	0.98294	0.27847	0.49186	0.15
Mof_C 	C 	0.52617	0.31801	0.27725	-0.145
Mof_H 	H 	0.539	0.2951	0.2807	0.096
Mof_C 	C 	0.68765	0.07322	0.03205	0.014
Mof_C 	C 	0.5946	0.3414	0.30519	0.158
Mof_C 	C 	0.43952	0.32918	0.24452	0.027
Mof_C 	C 	0.419	0.36287	0.2395	-0.15
Mof_H 	H 	0.3599	0.3699	0.2176	0.096
Mof_C 	C 	0.5756	0.37559	0.29963	-0.047
Mof_C 	C 	0.64803	0.40037	0.33198	-0.046
Mof_C 	C 	0.06608	0.15736	0.12121	-0.144
Mof_H 	H 	0.1256	0.1505	0.1427	0.094
Mof_C 	C 	0.8807	0.23766	0.42452	0.152
Mof_C 	C 	0.99565	0.13417	0.10637	0.159
Mof_C 	C 	0.4857	0.38629	0.2667	0.16
Mof_O 	O 	0.91722	0.47778	0.40224	-0.402
Mof_O 	O 	0.88378	0.46589	0.49406	-0.403
Mof_O 	O 	0.5697	0.04407	0.05823	-0.402
Mof_O 	O 	0.79931	0.18578	0.02663	-0.157
Mof_O 	O 	0.68187	0.33354	0.33942	-0.157
Mof_O 	O 	0.87015	0.10417	0.96796	-0.162
Mof_O 	O 	0.79269	0.1384	0.15105	-0.172
Mof_O 	O 	0.10323	0.21978	0.44739	-0.169
Mof_O 	O 	0.90791	0.30325	0.33177	-0.161
Mof_O 	O 	0.0057	0.1009	0.12074	-0.175
Mof_C 	C 	0.83461	0.23473	0.47079	-0.14
Mof_H 	H 	0.7848	0.2203	0.4637	0.091
Mof_C 	C 	0.93653	0.2757	0.53873	-0.133
Mof_H 	H 	0.9544	0.2885	0.5765	0.091
Mof_C 	C 	0.72704	0.43283	0.42671	-0.134
Mof_H 	H 	0.7316	0.4403	0.4684	0.091
Mof_O 	O 	0.47338	0.42041	0.26558	-0.171
Mof_O 	O 	0.05613	0.29881	0.49807	-0.158
Mof_O 	O 	0.58937	0.40074	0.41966	-0.157
Mof_O 	O 	0.85875	0.21994	0.36759	-0.172
Mof_C 	C 	0.79118	0.44254	0.39684	0.013
Mof_C 	C 	0.86312	0.25337	0.52732	0.01
Mof_C 	C 	0.78341	0.43256	0.33375	-0.137
Mof_H 	H 	0.8251	0.4401	0.3131	0.092
Mof_C 	C 	0.87059	0.46392	0.4334	0.324
Mof_C 	C 	0.65564	0.41181	0.3938	0.153
Mof_C 	C 	0.71224	0.41117	0.30202	0.156
Mof_C 	C 	0.779	0.21996	0.00766	-0.252
Mof_H 	H 	0.7147	0.2222	0.9859	0.134
Mof_H 	H 	0.813	0.2266	0.9788	0.112
Mof_H 	H 	0.7957	0.2341	0.0454	0.112
Mof_C 	C 	0.0914	0.31685	0.55708	-0.242
Mof_H 	H 	0.1427	0.3302	0.555	0.13
Mof_H 	H 	0.1106	0.3012	0.5925	0.11
Mof_H 	H 	0.0446	0.3313	0.5636	0.108
Mof_C 	C 	0.8802	0.32638	0.2805	-0.228
Mof_H 	H 	0.8267	0.3382	0.2832	0.122
Mof_H 	H 	0.8662	0.3146	0.2399	0.102
Mof_H 	H 	0.9286	0.3422	0.2833	0.103
Mof_C 	C 	0.1792	0.19744	0.45649	-0.203
Mof_H 	H 	0.1853	0.1839	0.4943	0.097
Mof_H 	H 	0.2342	0.2103	0.4621	0.086
Mof_H 	H 	0.1693	0.1832	0.4192	0.095
Mof_C 	C 	0.8558	0.08384	0.91097	-0.238
Mof_H 	H 	0.8998	0.0898	0.8891	0.124
Mof_H 	H 	0.7951	0.0875	0.8825	0.106
Mof_H 	H 	0.8631	0.0605	0.9231	0.105
Mof_C 	C 	0.7373	0.13581	0.1939	-0.193
Mof_H 	H 	0.7578	0.1519	0.2284	0.093
Mof_H 	H 	0.7424	0.1135	0.2118	0.091
Mof_H 	H 	0.6745	0.1403	0.1702	0.083
Mof_C 	C 	0.0951	0.08969	0.1566	-0.193
Mof_H 	H 	0.0939	0.0659	0.1638	0.094
Mof_H 	H 	0.1144	0.1012	0.1976	0.091
Mof_H 	H 	0.1372	0.0945	0.1325	0.084
Mof_O 	O 	0.70143	0.39844	0.24151	-0.171
Mof_C 	C 	0.5949	0.41122	0.4837	-0.245
Mof_H 	H 	0.5448	0.4017	0.496	0.132
Mof_H 	H 	0.5918	0.4354	0.4851	0.109
Mof_H 	H 	0.6517	0.4037	0.5132	0.109
Mof_C 	C 	0.7032	0.29849	0.3516	-0.257
Mof_H 	H 	0.7665	0.2961	0.3761	0.135
Mof_H 	H 	0.6917	0.2868	0.3111	0.117
Mof_H 	H 	0.6656	0.2892	0.3758	0.116
Mof_C 	C 	0.7681	0.40706	0.21	-0.198
Mof_H 	H 	0.7524	0.3966	0.1681	0.094
Mof_H 	H 	0.8272	0.3993	0.2357	0.088
Mof_H 	H 	0.7694	0.4311	0.2051	0.092
Mof_C 	C 	0.3821	0.4329	0.2345	-0.203
Mof_H 	H 	0.3821	0.4571	0.2368	0.096
Mof_H 	H 	0.3408	0.424	0.2562	0.089
Mof_H 	H 	0.3627	0.426	0.1899	0.093
Mof_C 	C 	0.783	0.19828	0.355	-0.176
Mof_H 	H 	0.7746	0.1872	0.3141	0.086
Mof_H 	H 	0.7291	0.2111	0.3535	0.079
Mof_H 	H 	0.7933	0.1817	0.3888	0.085
Mof_Cu	Cu	0.20087	0.73648	0.29715	0.902
Mof_Cu	Cu	0.30853	0.78339	0.36629	0.9
Mof_Cu	Cu	0.98137	0.49217	0.55409	0.901
Mof_O 	O 	0.36274	0.78602	0.2947	-0.397
Mof_O 	O 	0.20978	0.81408	0.32073	-0.395
Mof_O 	O 	0.30174	0.70632	0.33695	-0.397
Mof_O 	O 	0.89906	0.53083	0.53408	-0.402
Mof_O 	O 	0.74304	0.72653	0.92937	-0.405
Mof_O 	O 	0.65578	0.76793	0.87232	-0.406
Mof_O 	O 	0.26524	0.74849	0.23352	-0.401
Mof_O 	O 	0.11478	0.77312	0.2669	-0.4
Mof_O 	O 	0.39345	0.74585	0.39887	-0.395
Mof_C 	C 	0.88647	0.54743	0.48265	0.32
Mof_C 	C 	0.33472	0.76723	0.24572	0.321
Mof_C 	C 	0.13408	0.80346	0.28303	0.308
Mof_C 	C 	0.68267	0.74922	0.92082	0.326
Mof_C 	C 	0.46585	0.78635	0.20768	-0.137
Mof_H 	H 	0.4832	0.8012	0.2425	0.092
Mof_C 	C 	0.49217	0.76164	0.11292	-0.045
Mof_C 	C 	0.54069	0.70139	0.42815	-0.143
Mof_H 	H 	0.5521	0.7238	0.4404	0.094
Mof_C 	C 	0.54506	0.75952	0.06539	-0.047
Mof_C 	C 	0.67083	0.6197	0.44064	-0.046
Mof_C 	C 	0.41528	0.74103	0.10486	0.15
Mof_C 	C 	0.75735	0.57585	0.5087	-0.139
Mof_H 	H 	0.7681	0.5621	0.5451	0.093
Mof_C 	C 	0.7277	0.61708	0.40049	0.156
Mof_C 	C 	0.5161	0.78417	0.16479	0.154
Mof_C 	C 	0.59416	0.64471	0.42509	-0.048
Mof_C 	C 	0.6112	0.67853	0.44183	0.159
Mof_C 	C 	0.6867	0.59895	0.49483	0.156
Mof_C 	C 	0.38847	0.76605	0.19868	0.012
Mof_C 	C 	0.37736	0.71628	0.3768	0.306
Mof_C 	C 	0.79766	0.59364	0.41383	-0.142
Mof_H 	H 	0.8345	0.5916	0.3867	0.092
Mof_C 	C 	0.36282	0.74386	0.14704	-0.138
Mof_H 	H 	0.3104	0.7308	0.1406	0.091
Mof_C 	C 	0.45218	0.69086	0.39599	0.021
Mof_C 	C 	0.51706	0.77847	0.00814	0.151
Mof_C 	C 	0.97383	0.81801	0.22275	-0.143
Mof_H 	H 	0.961	0.7951	0.2193	0.095
Mof_C 	C 	0.81235	0.57322	0.46795	0.015
Mof_C 	C 	0.9054	0.8414	0.19481	0.157
Mof_C 	C 	0.06048	0.82918	0.25548	0.026
Mof_C 	C 	0.081	0.86287	0.2605	-0.149
Mof_H 	H 	0.1401	0.8699	0.2824	0.096
Mof_C 	C 	0.9244	0.87559	0.20037	-0.046
Mof_C 	C 	0.85197	0.90037	0.16802	-0.046
Mof_C 	C 	0.43392	0.65736	0.37879	-0.145
Mof_H 	H 	0.3744	0.6505	0.3573	0.094
Mof_C 	C 	0.6193	0.73766	0.07548	0.151
Mof_C 	C 	0.50435	0.63417	0.39363	0.16
Mof_C 	C 	0.0143	0.88629	0.2333	0.159
Mof_O 	O 	0.58278	0.97778	0.09776	-0.402
Mof_O 	O 	0.61622	0.96589	0.00594	-0.403
Mof_O 	O 	0.9303	0.54407	0.44177	-0.402
Mof_O 	O 	0.70069	0.68578	0.47337	-0.157
Mof_O 	O 	0.81813	0.83354	0.16058	-0.157
Mof_O 	O 	0.62985	0.60417	0.53204	-0.162
Mof_O 	O 	0.70731	0.6384	0.34895	-0.172
Mof_O 	O 	0.39677	0.71978	0.05261	-0.17
Mof_O 	O 	0.59209	0.80325	0.16823	-0.162
Mof_O 	O 	0.4943	0.6009	0.37926	-0.175
Mof_C 	C 	0.66539	0.73473	0.02921	-0.14
Mof_H 	H 	0.7152	0.7203	0.0363	0.091
Mof_C 	C 	0.56347	0.7757	0.96127	-0.133
Mof_H 	H 	0.5456	0.7885	0.9235	0.091
Mof_C 	C 	0.77296	0.93283	0.07329	-0.134
Mof_H 	H 	0.7684	0.9403	0.0316	0.091
Mof_O 	O 	0.02662	0.92041	0.23442	-0.171
Mof_O 	O 	0.44387	0.79881	0.00193	-0.159
Mof_O 	O 	0.91063	0.90074	0.08034	-0.157
Mof_O 	O 	0.64125	0.71994	0.13241	-0.172
Mof_C 	C 	0.70882	0.94254	0.10316	0.013
Mof_C 	C 	0.63688	0.75337	0.97268	0.009
Mof_C 	C 	0.71659	0.93256	0.16625	-0.137
Mof_H 	H 	0.6749	0.9401	0.1869	0.092
Mof_C 	C 	0.62941	0.96392	0.0666	0.324
Mof_C 	C 	0.84436	0.91181	0.1062	0.153
Mof_C 	C 	0.78776	0.91117	0.19798	0.156
Mof_C 	C 	0.721	0.71996	0.49234	-0.25
Mof_H 	H 	0.7853	0.7222	0.5141	0.134
Mof_H 	H 	0.687	0.7266	0.5212	0.111
Mof_H 	H 	0.7043	0.7341	0.4546	0.112
Mof_C 	C 	0.4086	0.81685	0.94292	-0.242
Mof_H 	H 	0.3573	0.8302	0.945	0.13
Mof_H 	H 	0.3894	0.8012	0.9075	0.11
Mof_H 	H 	0.4554	0.8313	0.9364	0.108
Mof_C 	C 	0.6198	0.82638	0.2195	-0.227
Mof_H 	H 	0.6733	0.8382	0.2168	0.122
Mof_H 	H 	0.6338	0.8146	0.2601	0.102
Mof_H 	H 	0.5714	0.8422	0.2167	0.103
Mof_C 	C 	0.3208	0.69744	0.04351	-0.202
Mof_H 	H 	0.3147	0.6839	0.0057	0.097
Mof_H 	H 	0.2658	0.7103	0.0379	0.086
Mof_H 	H 	0.3307	0.6832	0.0808	0.094
Mof_C 	C 	0.6442	0.58384	0.58903	-0.237
Mof_H 	H 	0.6002	0.5898	0.6109	0.124
Mof_H 	H 	0.7049	0.5875	0.6175	0.106
Mof_H 	H 	0.6369	0.5605	0.5769	0.105
Mof_C 	C 	0.7627	0.63581	0.3061	-0.194
Mof_H 	H 	0.7422	0.6519	0.2716	0.093
Mof_H 	H 	0.7576	0.6135	0.2882	0.091
Mof_H 	H 	0.8255	0.6403	0.3298	0.083
Mof_C 	C 	0.4049	0.58969	0.3434	-0.193
Mof_H 	H 	0.4061	0.5659	0.3362	0.093
Mof_H 	H 	0.3856	0.6012	0.3024	0.09
Mof_H 	H 	0.3628	0.5945	0.3675	0.083
Mof_O 	O 	0.79857	0.89844	0.25849	-0.171
Mof_C 	C 	0.9051	0.91122	0.0163	-0.244
Mof_H 	H 	0.9552	0.9017	0.004	0.131
Mof_H 	H 	0.9082	0.9354	0.0149	0.108
Mof_H 	H 	0.8483	0.9037	0.9868	0.109
Mof_C 	C 	0.7968	0.79849	0.1484	-0.257
Mof_H 	H 	0.7335	0.7961	0.1239	0.135
Mof_H 	H 	0.8083	0.7868	0.1889	0.117
Mof_H 	H 	0.8344	0.7892	0.1242	0.116
Mof_C 	C 	0.7319	0.90706	0.29	-0.198
Mof_H 	H 	0.7476	0.8966	0.3319	0.095
Mof_H 	H 	0.6728	0.8993	0.2643	0.088
Mof_H 	H 	0.7306	0.9311	0.2949	0.092
Mof_C 	C 	0.1179	0.9329	0.2655	-0.203
Mof_H 	H 	0.1179	0.9571	0.2632	0.096
Mof_H 	H 	0.1592	0.924	0.2438	0.089
Mof_H 	H 	0.1373	0.926	0.3101	0.093
Mof_C 	C 	0.717	0.69828	0.145	-0.176
Mof_H 	H 	0.7254	0.6872	0.1859	0.087
Mof_H 	H 	0.7709	0.7111	0.1465	0.08
Mof_H 	H 	0.7067	0.6817	0.1112	0.085
Mof_Cu	Cu	0.70087	0.76352	0.79715	0.902
Mof_Cu	Cu	0.80853	0.71661	0.86629	0.9
Mof_Cu	Cu	0.48137	0.00783	0.05409	0.901
Mof_O 	O 	0.86274	0.71398	0.7947	-0.397
Mof_O 	O 	0.70978	0.68592	0.82073	-0.395
Mof_O 	O 	0.80174	0.79368	0.83695	-0.397
Mof_O 	O 	0.39906	0.96917	0.03408	-0.402
Mof_O 	O 	0.24304	0.77347	0.42937	-0.405
Mof_O 	O 	0.15578	0.73207	0.37232	-0.406
Mof_O 	O 	0.76524	0.75151	0.73352	-0.401
Mof_O 	O 	0.61478	0.72688	0.7669	-0.4
Mof_O 	O 	0.89345	0.75415	0.89887	-0.395
Mof_C 	C 	0.38647	0.95257	0.98265	0.319
Mof_C 	C 	0.83472	0.73277	0.74572	0.321
Mof_C 	C 	0.63408	0.69654	0.78303	0.307
Mof_C 	C 	0.18267	0.75078	0.42082	0.326
Mof_C 	C 	0.96585	0.71365	0.70768	-0.134
Mof_H 	H 	0.9832	0.6988	0.7425	0.091
Mof_C 	C 	0.99217	0.73836	0.61292	-0.042
Mof_C 	C 	0.04069	0.79861	0.92815	-0.144
Mof_H 	H 	0.0521	0.7762	0.9404	0.094
Mof_C 	C 	0.04506	0.74048	0.56539	-0.049
Mof_C 	C 	0.17083	0.8803	0.94064	-0.046
Mof_C 	C 	0.91528	0.75897	0.60486	0.149
Mof_C 	C 	0.25735	0.92415	0.0087	-0.137
Mof_H 	H 	0.2681	0.9379	0.0451	0.093
Mof_C 	C 	0.2277	0.88292	0.90049	0.155
Mof_C 	C 	0.0161	0.71583	0.66479	0.151
Mof_C 	C 	0.09416	0.85529	0.92509	-0.048
Mof_C 	C 	0.1112	0.82147	0.94183	0.159
Mof_C 	C 	0.1867	0.90105	0.99483	0.154
Mof_C 	C 	0.88847	0.73395	0.69868	0.011
Mof_C 	C 	0.87736	0.78372	0.8768	0.306
Mof_C 	C 	0.29766	0.90636	0.91383	-0.142
Mof_H 	H 	0.3345	0.9084	0.8867	0.092
Mof_C 	C 	0.86282	0.75614	0.64704	-0.137
Mof_H 	H 	0.8104	0.7692	0.6406	0.09
Mof_C 	C 	0.95218	0.80914	0.89599	0.022
Mof_C 	C 	0.01706	0.72153	0.50814	0.15
Mof_C 	C 	0.47383	0.68199	0.72275	-0.145
Mof_H 	H 	0.461	0.7049	0.7193	0.096
Mof_C 	C 	0.31235	0.92678	0.96795	0.014
Mof_C 	C 	0.4054	0.6586	0.69481	0.158
Mof_C 	C 	0.56048	0.67082	0.75548	0.027
Mof_C 	C 	0.581	0.63713	0.7605	-0.15
Mof_H 	H 	0.6401	0.6301	0.7824	0.096
Mof_C 	C 	0.4244	0.62441	0.70037	-0.047
Mof_C 	C 	0.35197	0.59963	0.66802	-0.046
Mof_C 	C 	0.93392	0.84264	0.87879	-0.144
Mof_H 	H 	0.8744	0.8495	0.8573	0.094
Mof_C 	C 	0.1193	0.76234	0.57548	0.152
Mof_C 	C 	0.00435	0.86583	0.89363	0.159
Mof_C 	C 	0.5143	0.61371	0.7333	0.16
Mof_O 	O 	0.08278	0.52222	0.59776	-0.402
Mof_O 	O 	0.11622	0.53411	0.50594	-0.403
Mof_O 	O 	0.4303	0.95593	0.94177	-0.402
Mof_O 	O 	0.20069	0.81422	0.97337	-0.157
Mof_O 	O 	0.31813	0.66646	0.66058	-0.157
Mof_O 	O 	0.12985	0.89583	0.03204	-0.162
Mof_O 	O 	0.20731	0.8616	0.84895	-0.172
Mof_O 	O 	0.89677	0.78022	0.55261	-0.169
Mof_O 	O 	0.09209	0.69675	0.66823	-0.161
Mof_O 	O 	0.9943	0.8991	0.87926	-0.175
Mof_C 	C 	0.16539	0.76527	0.52921	-0.14
Mof_H 	H 	0.2152	0.7797	0.5363	0.091
Mof_C 	C 	0.06347	0.7243	0.46127	-0.133
Mof_H 	H 	0.0456	0.7115	0.4235	0.091
Mof_C 	C 	0.27296	0.56717	0.57329	-0.134
Mof_H 	H 	0.2684	0.5597	0.5316	0.091
Mof_O 	O 	0.52662	0.57959	0.73442	-0.171
Mof_O 	O 	0.94387	0.70119	0.50193	-0.158
Mof_O 	O 	0.41063	0.59926	0.58034	-0.157
Mof_O 	O 	0.14125	0.78006	0.63241	-0.172
Mof_C 	C 	0.20882	0.55746	0.60316	0.013
Mof_C 	C 	0.13688	0.74663	0.47268	0.01
Mof_C 	C 	0.21659	0.56744	0.66625	-0.137
Mof_H 	H 	0.1749	0.5599	0.6869	0.092
Mof_C 	C 	0.12941	0.53608	0.5666	0.324
Mof_C 	C 	0.34436	0.58819	0.6062	0.153
Mof_C 	C 	0.28776	0.58883	0.69798	0.156
Mof_C 	C 	0.221	0.78004	0.99234	-0.252
Mof_H 	H 	0.2853	0.7778	0.0141	0.134
Mof_H 	H 	0.187	0.7734	0.0212	0.112
Mof_H 	H 	0.2043	0.7659	0.9546	0.112
Mof_C 	C 	0.9086	0.68315	0.44292	-0.242
Mof_H 	H 	0.8573	0.6698	0.445	0.13
Mof_H 	H 	0.8894	0.6988	0.4075	0.11
Mof_H 	H 	0.9554	0.6687	0.4364	0.108
Mof_C 	C 	0.1198	0.67362	0.7195	-0.228
Mof_H 	H 	0.1733	0.6618	0.7168	0.122
Mof_H 	H 	0.1338	0.6854	0.7601	0.102
Mof_H 	H 	0.0714	0.6578	0.7167	0.103
Mof_C 	C 	0.8208	0.80256	0.54351	-0.203
Mof_H 	H 	0.8147	0.8161	0.5057	0.097
Mof_H 	H 	0.7658	0.7897	0.5379	0.086
Mof_H 	H 	0.8307	0.8168	0.5808	0.095
Mof_C 	C 	0.1442	0.91616	0.08903	-0.238
Mof_H 	H 	0.1002	0.9102	0.1109	0.124
Mof_H 	H 	0.2049	0.9125	0.1175	0.106
Mof_H 	H 	0.1369	0.9395	0.0769	0.105
Mof_C 	C 	0.2627	0.86419	0.8061	-0.193
Mof_H 	H 	0.2422	0.8481	0.7716	0.093
Mof_H 	H 	0.2576	0.8865	0.7882	0.091
Mof_H 	H 	0.3255	0.8597	0.8298	0.083
Mof_C 	C 	0.9049	0.91031	0.8434	-0.193
Mof_H 	H 	0.9061	0.9341	0.8362	0.094
Mof_H 	H 	0.8856	0.8988	0.8024	0.091
Mof_H 	H 	0.8628	0.9055	0.8675	0.084
Mof_O 	O 	0.29857	0.60156	0.75849	-0.171
Mof_C 	C 	0.4051	0.58878	0.5163	-0.245
Mof_H 	H 	0.4552	0.5983	0.504	0.132
Mof_H 	H 	0.4082	0.5646	0.5149	0.109
Mof_H 	H 	0.3483	0.5963	0.4868	0.109
Mof_C 	C 	0.2968	0.70151	0.6484	-0.257
Mof_H 	H 	0.2335	0.7039	0.6239	0.135
Mof_H 	H 	0.3083	0.7132	0.6889	0.117
Mof_H 	H 	0.3344	0.7108	0.6242	0.116
Mof_C 	C 	0.2319	0.59294	0.79	-0.198
Mof_H 	H 	0.2476	0.6034	0.8319	0.094
Mof_H 	H 	0.1728	0.6007	0.7643	0.088
Mof_H 	H 	0.2306	0.5689	0.7949	0.092
Mof_C 	C 	0.6179	0.5671	0.7655	-0.203
Mof_H 	H 	0.6179	0.5429	0.7632	0.096
Mof_H 	H 	0.6592	0.576	0.7438	0.089
Mof_H 	H 	0.6373	0.574	0.8101	0.093
Mof_C 	C 	0.217	0.80172	0.645	-0.176
Mof_H 	H 	0.2254	0.8128	0.6859	0.086
Mof_H 	H 	0.2709	0.7889	0.6465	0.079
Mof_H 	H 	0.2067	0.8183	0.6112	0.085
Mof_Cu	Cu	0.79913	0.26352	0.70285	0.902
Mof_Cu	Cu	0.69147	0.21661	0.63371	0.9
Mof_Cu	Cu	0.01863	0.50783	0.44591	0.901
Mof_O 	O 	0.63726	0.21398	0.7053	-0.397
Mof_O 	O 	0.79022	0.18592	0.67927	-0.395
Mof_O 	O 	0.69826	0.29368	0.66305	-0.397
Mof_O 	O 	0.10094	0.46917	0.46592	-0.402
Mof_O 	O 	0.25696	0.27347	0.07063	-0.405
Mof_O 	O 	0.34422	0.23207	0.12768	-0.406
Mof_O 	O 	0.73476	0.25151	0.76648	-0.401
Mof_O 	O 	0.88522	0.22688	0.7331	-0.4
Mof_O 	O 	0.60655	0.25415	0.60113	-0.395
Mof_C 	C 	0.11353	0.45257	0.51735	0.32
Mof_C 	C 	0.66528	0.23277	0.75428	0.321
Mof_C 	C 	0.86592	0.19654	0.71697	0.308
Mof_C 	C 	0.31733	0.25078	0.07918	0.326
Mof_C 	C 	0.53415	0.21365	0.79232	-0.137
Mof_H 	H 	0.5168	0.1988	0.7575	0.092
Mof_C 	C 	0.50783	0.23836	0.88708	-0.045
Mof_C 	C 	0.45931	0.29861	0.57185	-0.143
Mof_H 	H 	0.4479	0.2762	0.5596	0.094
Mof_C 	C 	0.45494	0.24048	0.93461	-0.047
Mof_C 	C 	0.32917	0.3803	0.55936	-0.046
Mof_C 	C 	0.58472	0.25897	0.89514	0.15
Mof_C 	C 	0.24265	0.42415	0.4913	-0.139
Mof_H 	H 	0.2319	0.4379	0.4549	0.093
Mof_C 	C 	0.2723	0.38292	0.59951	0.156
Mof_C 	C 	0.4839	0.21583	0.83521	0.154
Mof_C 	C 	0.40584	0.35529	0.57491	-0.048
Mof_C 	C 	0.3888	0.32147	0.55817	0.159
Mof_C 	C 	0.3133	0.40105	0.50517	0.156
Mof_C 	C 	0.61153	0.23395	0.80132	0.012
Mof_C 	C 	0.62264	0.28372	0.6232	0.306
Mof_C 	C 	0.20234	0.40636	0.58617	-0.142
Mof_H 	H 	0.1655	0.4084	0.6133	0.092
Mof_C 	C 	0.63718	0.25614	0.85296	-0.138
Mof_H 	H 	0.6896	0.2692	0.8594	0.091
Mof_C 	C 	0.54782	0.30914	0.60401	0.021
Mof_C 	C 	0.48294	0.22153	0.99186	0.151
Mof_C 	C 	0.02617	0.18199	0.77725	-0.143
Mof_H 	H 	0.039	0.2049	0.7807	0.095
Mof_C 	C 	0.18765	0.42678	0.53205	0.015
Mof_C 	C 	0.0946	0.1586	0.80519	0.157
Mof_C 	C 	0.93952	0.17082	0.74452	0.026
Mof_C 	C 	0.919	0.13713	0.7395	-0.149
Mof_H 	H 	0.8599	0.1301	0.7176	0.096
Mof_C 	C 	0.0756	0.12441	0.79963	-0.046
Mof_C 	C 	0.14803	0.09963	0.83198	-0.046
Mof_C 	C 	0.56608	0.34264	0.62121	-0.145
Mof_H 	H 	0.6256	0.3495	0.6427	0.094
Mof_C 	C 	0.3807	0.26234	0.92452	0.151
Mof_C 	C 	0.49565	0.36583	0.60637	0.16
Mof_C 	C 	0.9857	0.11371	0.7667	0.159
Mof_O 	O 	0.41722	0.02222	0.90224	-0.402
Mof_O 	O 	0.38378	0.03411	0.99406	-0.403
Mof_O 	O 	0.0697	0.45593	0.55823	-0.402
Mof_O 	O 	0.29931	0.31422	0.52663	-0.157
Mof_O 	O 	0.18187	0.16646	0.83942	-0.157
Mof_O 	O 	0.37015	0.39583	0.46796	-0.162
Mof_O 	O 	0.29269	0.3616	0.65105	-0.172
Mof_O 	O 	0.60323	0.28022	0.94739	-0.17
Mof_O 	O 	0.40791	0.19675	0.83177	-0.162
Mof_O 	O 	0.5057	0.3991	0.62074	-0.175
Mof_C 	C 	0.33461	0.26527	0.97079	-0.14
Mof_H 	H 	0.2848	0.2797	0.9637	0.091
Mof_C 	C 	0.43653	0.2243	0.03873	-0.133
Mof_H 	H 	0.4544	0.2115	0.0765	0.091
Mof_C 	C 	0.22704	0.06717	0.92671	-0.134
Mof_H 	H 	0.2316	0.0597	0.9684	0.091
Mof_O 	O 	0.97338	0.07959	0.76558	-0.171
Mof_O 	O 	0.55613	0.20119	0.99807	-0.159
Mof_O 	O 	0.08937	0.09926	0.91966	-0.157
Mof_O 	O 	0.35875	0.28006	0.86759	-0.172
Mof_C 	C 	0.29118	0.05746	0.89684	0.013
Mof_C 	C 	0.36312	0.24663	0.02732	0.009
Mof_C 	C 	0.28341	0.06744	0.83375	-0.137
Mof_H 	H 	0.3251	0.0599	0.8131	0.092
Mof_C 	C 	0.37059	0.03608	0.9334	0.324
Mof_C 	C 	0.15564	0.08819	0.8938	0.153
Mof_C 	C 	0.21224	0.08883	0.80202	0.156
Mof_C 	C 	0.279	0.28004	0.50766	-0.25
Mof_H 	H 	0.2147	0.2778	0.4859	0.134
Mof_H 	H 	0.313	0.2734	0.4788	0.111
Mof_H 	H 	0.2957	0.2659	0.5454	0.112
Mof_C 	C 	0.5914	0.18315	0.05708	-0.242
Mof_H 	H 	0.6427	0.1698	0.055	0.13
Mof_H 	H 	0.6106	0.1988	0.0925	0.11
Mof_H 	H 	0.5446	0.1687	0.0636	0.108
Mof_C 	C 	0.3802	0.17362	0.7805	-0.227
Mof_H 	H 	0.3267	0.1618	0.7832	0.122
Mof_H 	H 	0.3662	0.1854	0.7399	0.102
Mof_H 	H 	0.4286	0.1578	0.7833	0.103
Mof_C 	C 	0.6792	0.30256	0.95649	-0.202
Mof_H 	H 	0.6853	0.3161	0.9943	0.097
Mof_H 	H 	0.7342	0.2897	0.9621	0.086
Mof_H 	H 	0.6693	0.3168	0.9192	0.094
Mof_C 	C 	0.3558	0.41616	0.41097	-0.237
Mof_H 	H 	0.3998	0.4102	0.3891	0.124
Mof_H 	H 	0.2951	0.4125	0.3825	0.106
Mof_H 	H 	0.3631	0.4395	0.4231	0.105
Mof_C 	C 	0.2373	0.36419	0.6939	-0.194
Mof_H 	H 	0.2578	0.3481	0.7284	0.093
Mof_H 	H 	0.2424	0.3865	0.7118	0.091
Mof_H 	H 	0.1745	0.3597	0.6702	0.083
Mof_C 	C 	0.5951	0.41031	0.6566	-0.193
Mof_H 	H 	0.5939	0.4341	0.6638	0.093
Mof_H 	H 	0.6144	0.3988	0.6976	0.09
Mof_H 	H 	0.6372	0.4055	0.6325	0.083
Mof_O 	O 	0.20143	0.10156	0.74151	-0.171
Mof_C 	C 	0.0949	0.08878	0.9837	-0.244
Mof_H 	H 	0.0448	0.0983	0.996	0.131
Mof_H 	H 	0.0918	0.0646	0.9851	0.108
Mof_H 	H 	0.1517	0.0963	0.0132	0.109
Mof_C 	C 	0.2032	0.20151	0.8516	-0.257
Mof_H 	H 	0.2665	0.2039	0.8761	0.135
Mof_H 	H 	0.1917	0.2132	0.8111	0.117
Mof_H 	H 	0.1656	0.2108	0.8758	0.116
Mof_C 	C 	0.2681	0.09294	0.71	-0.198
Mof_H 	H 	0.2524	0.1034	0.6681	0.095
Mof_H 	H 	0.3272	0.1007	0.7357	0.088
Mof_H 	H 	0.2694	0.0689	0.7051	0.092
Mof_C 	C 	0.8821	0.0671	0.7345	-0.203
Mof_H 	H 	0.8821	0.0429	0.7368	0.096
Mof_H 	H 	0.8408	0.076	0.7562	0.089
Mof_H 	H 	0.8627	0.074	0.6899	0.093
Mof_C 	C 	0.283	0.30172	0.855	-0.176
Mof_H 	H 	0.2746	0.3128	0.8141	0.087
Mof_H 	H 	0.2291	0.2889	0.8535	0.08
Mof_H 	H 	0.2933	0.3183	0.8888	0.085
_end
