data_functionalizedCrystal
_audit_creation_method	'EQeq! by Chris Wilmer'
_symmetry_space_group_name_H-M	'P1'
_symmetry_Int_Tables_number	1
_symmetry_cell_setting	triclinic
loop_
_symmetry_equiv_pos_as_xyz
  x,y,z
_cell_length_a	18.0908
_cell_length_b	18.0908
_cell_length_c	24.753
_cell_angle_alpha	90
_cell_angle_beta	90
_cell_angle_gamma	120
loop_
_atom_site_label
_atom_site_type_symbol
_atom_site_fract_x
_atom_site_fract_y
_atom_site_fract_z
_atom_site_charge
Mof_C 	C 	0.1561	0.2048	0.1108	0.273
Mof_C 	C 	0.175	0.4946	0.8853	0.197
Mof_C 	C 	0.1672	0.5893	0.9323	0.102
Mof_H 	H 	0.1809	0.6417	0.9476	-0.038
Mof_N 	N 	0.0975	0.5189	0.943	-0.242
Mof_N 	N 	0.2186	0.5794	0.8963	-0.334
Mof_N 	N 	0.1004	0.4558	0.9124	-0.25
Mof_N 	N 	0.2047	0.4555	0.8537	-0.336
Mof_H 	H 	0.1755	0.4009	0.8494	0.181
Mof_H 	H 	0.2532	0.4849	0.8376	0.104
Mof_O 	O 	0.079	0.1624	0.1244	-0.517
Mof_O 	O 	0.086	0.2805	0.2051	-0.351
Mof_O 	O 	0.1949	0.2817	0.0988	-0.406
Mof_C 	C 	0.7952	0.9513	0.1108	0.446
Mof_C 	C 	0.5054	0.6804	0.8853	0.207
Mof_C 	C 	0.4107	0.5779	0.9323	0.102
Mof_H 	H 	0.3583	0.5392	0.9476	-0.041
Mof_N 	N 	0.4811	0.5786	0.943	-0.232
Mof_N 	N 	0.4206	0.6392	0.8963	-0.334
Mof_N 	N 	0.5442	0.6446	0.9124	-0.239
Mof_N 	N 	0.5445	0.7492	0.8537	-0.343
Mof_H 	H 	0.5991	0.7746	0.8494	0.199
Mof_H 	H 	0.5151	0.7683	0.8376	0.126
Mof_O 	O 	0.8376	0.9166	0.1244	-0.417
Mof_O 	O 	0.7195	0.8055	0.2051	-0.342
Mof_O 	O 	0.7183	0.9132	0.0988	-0.376
Mof_C 	C 	0.0487	0.8439	0.1108	0.112
Mof_C 	C 	0.3196	0.825	0.8853	0.224
Mof_C 	C 	0.4221	0.8328	0.9323	0.116
Mof_H 	H 	0.4608	0.8191	0.9476	-0.022
Mof_N 	N 	0.4214	0.9025	0.943	-0.18
Mof_N 	N 	0.3608	0.7814	0.8963	-0.331
Mof_N 	N 	0.3554	0.8996	0.9124	-0.19
Mof_N 	N 	0.2508	0.7953	0.8537	-0.339
Mof_H 	H 	0.2254	0.8245	0.8494	0.207
Mof_H 	H 	0.2317	0.7468	0.8376	0.111
Mof_O 	O 	0.0834	0.921	0.1244	-0.363
Mof_O 	O 	0.1945	0.914	0.2051	-0.347
Mof_O 	O 	0.0868	0.8051	0.0988	-0.35
Mof_C 	C 	0.8439	0.7952	0.6108	0.274
Mof_C 	C 	0.825	0.5054	0.3853	0.222
Mof_C 	C 	0.8328	0.4107	0.4323	0.113
Mof_H 	H 	0.8191	0.3583	0.4476	-0.03
Mof_N 	N 	0.9025	0.4811	0.443	-0.189
Mof_N 	N 	0.7814	0.4206	0.3963	-0.333
Mof_N 	N 	0.8996	0.5442	0.4124	-0.192
Mof_N 	N 	0.7953	0.5445	0.3537	-0.34
Mof_H 	H 	0.8245	0.5991	0.3494	0.208
Mof_H 	H 	0.7468	0.5151	0.3376	0.113
Mof_O 	O 	0.921	0.8376	0.6244	-0.34
Mof_O 	O 	0.914	0.7195	0.7051	-0.338
Mof_O 	O 	0.8051	0.7183	0.5988	-0.367
Mof_C 	C 	0.2048	0.0487	0.6108	0.113
Mof_C 	C 	0.4946	0.3196	0.3853	0.194
Mof_C 	C 	0.5893	0.4221	0.4323	0.097
Mof_H 	H 	0.6417	0.4608	0.4476	-0.047
Mof_N 	N 	0.5189	0.4214	0.443	-0.242
Mof_N 	N 	0.5794	0.3608	0.3963	-0.335
Mof_N 	N 	0.4558	0.3554	0.4124	-0.243
Mof_N 	N 	0.4555	0.2508	0.3537	-0.335
Mof_H 	H 	0.4009	0.2254	0.3494	0.18
Mof_H 	H 	0.4849	0.2317	0.3376	0.102
Mof_O 	O 	0.1624	0.0834	0.6244	-0.468
Mof_O 	O 	0.2805	0.1945	0.7051	-0.372
Mof_O 	O 	0.2817	0.0868	0.5988	-0.373
Mof_C 	C 	0.9513	0.1561	0.6108	0.45
Mof_C 	C 	0.6804	0.175	0.3853	0.202
Mof_C 	C 	0.5779	0.1672	0.4323	0.099
Mof_H 	H 	0.5392	0.1809	0.4476	-0.051
Mof_N 	N 	0.5786	0.0975	0.443	-0.253
Mof_N 	N 	0.6392	0.2186	0.3963	-0.336
Mof_N 	N 	0.6446	0.1004	0.4124	-0.252
Mof_N 	N 	0.7492	0.2047	0.3537	-0.342
Mof_H 	H 	0.7746	0.1755	0.3494	0.197
Mof_H 	H 	0.7683	0.2532	0.3376	0.125
Mof_O 	O 	0.9166	0.079	0.6244	-0.487
Mof_O 	O 	0.8055	0.086	0.7051	-0.329
Mof_O 	O 	0.9132	0.1949	0.5988	-0.376
Mof_C 	C 	0.2048	0.1561	0.3892	0.274
Mof_C 	C 	0.4946	0.175	0.6147	0.193
Mof_C 	C 	0.5893	0.1672	0.5677	0.097
Mof_H 	H 	0.6417	0.1809	0.5524	-0.048
Mof_N 	N 	0.5189	0.0975	0.557	-0.253
Mof_N 	N 	0.5794	0.2186	0.6037	-0.335
Mof_N 	N 	0.4558	0.1004	0.5876	-0.253
Mof_N 	N 	0.4555	0.2047	0.6463	-0.336
Mof_H 	H 	0.4009	0.1755	0.6506	0.18
Mof_H 	H 	0.4849	0.2532	0.6624	0.103
Mof_O 	O 	0.1624	0.079	0.3756	-0.516
Mof_O 	O 	0.2805	0.086	0.2949	-0.351
Mof_O 	O 	0.2817	0.1949	0.4012	-0.401
Mof_C 	C 	0.9513	0.7952	0.3892	0.449
Mof_C 	C 	0.6804	0.5054	0.6147	0.204
Mof_C 	C 	0.5779	0.4107	0.5677	0.098
Mof_H 	H 	0.5392	0.3583	0.5524	-0.05
Mof_N 	N 	0.5786	0.4811	0.557	-0.242
Mof_N 	N 	0.6392	0.4206	0.6037	-0.335
Mof_N 	N 	0.6446	0.5442	0.5876	-0.242
Mof_N 	N 	0.7492	0.5445	0.6463	-0.343
Mof_H 	H 	0.7746	0.5991	0.6506	0.198
Mof_H 	H 	0.7683	0.5151	0.6624	0.126
Mof_O 	O 	0.9166	0.8376	0.3756	-0.416
Mof_O 	O 	0.8055	0.7195	0.2949	-0.341
Mof_O 	O 	0.9132	0.7183	0.4012	-0.371
Mof_C 	C 	0.8439	0.0487	0.3892	0.113
Mof_C 	C 	0.825	0.3196	0.6147	0.222
Mof_C 	C 	0.8328	0.4221	0.5677	0.112
Mof_H 	H 	0.8191	0.4608	0.5524	-0.03
Mof_N 	N 	0.9025	0.4214	0.557	-0.189
Mof_N 	N 	0.7814	0.3608	0.6037	-0.333
Mof_N 	N 	0.8996	0.3554	0.5876	-0.192
Mof_N 	N 	0.7953	0.2508	0.6463	-0.339
Mof_H 	H 	0.8245	0.2254	0.6506	0.206
Mof_H 	H 	0.7468	0.2317	0.6624	0.111
Mof_O 	O 	0.921	0.0834	0.3756	-0.362
Mof_O 	O 	0.914	0.1945	0.2949	-0.347
Mof_O 	O 	0.8051	0.0868	0.4012	-0.345
Mof_C 	C 	0.7952	0.8439	0.8892	0.277
Mof_C 	C 	0.5054	0.825	0.1147	0.22
Mof_C 	C 	0.4107	0.8328	0.0677	0.108
Mof_H 	H 	0.3583	0.8191	0.0524	-0.038
Mof_N 	N 	0.4811	0.9025	0.057	-0.196
Mof_N 	N 	0.4206	0.7814	0.1037	-0.334
Mof_N 	N 	0.5442	0.8996	0.0876	-0.195
Mof_N 	N 	0.5445	0.7953	0.1463	-0.34
Mof_H 	H 	0.5991	0.8245	0.1506	0.207
Mof_H 	H 	0.5151	0.7468	0.1624	0.113
Mof_O 	O 	0.8376	0.921	0.8756	-0.34
Mof_O 	O 	0.7195	0.914	0.7949	-0.339
Mof_O 	O 	0.7183	0.8051	0.9012	-0.362
Mof_C 	C 	0.0487	0.2048	0.8892	0.117
Mof_C 	C 	0.3196	0.4946	0.1147	0.192
Mof_C 	C 	0.4221	0.5893	0.0677	0.093
Mof_H 	H 	0.4608	0.6417	0.0524	-0.055
Mof_N 	N 	0.4214	0.5189	0.057	-0.248
Mof_N 	N 	0.3608	0.5794	0.1037	-0.336
Mof_N 	N 	0.3554	0.4558	0.0876	-0.245
Mof_N 	N 	0.2508	0.4555	0.1463	-0.335
Mof_H 	H 	0.2254	0.4009	0.1506	0.179
Mof_H 	H 	0.2317	0.4849	0.1624	0.102
Mof_O 	O 	0.0834	0.1624	0.8756	-0.467
Mof_O 	O 	0.1945	0.2805	0.7949	-0.372
Mof_O 	O 	0.0868	0.2817	0.9012	-0.368
Mof_C 	C 	0.1561	0.9513	0.8892	0.452
Mof_C 	C 	0.175	0.6804	0.1147	0.2
Mof_C 	C 	0.1672	0.5779	0.0677	0.095
Mof_H 	H 	0.1809	0.5392	0.0524	-0.059
Mof_N 	N 	0.0975	0.5786	0.057	-0.259
Mof_N 	N 	0.2186	0.6392	0.1037	-0.337
Mof_N 	N 	0.1004	0.6446	0.0876	-0.254
Mof_N 	N 	0.2047	0.7492	0.1463	-0.342
Mof_H 	H 	0.1755	0.7746	0.1506	0.196
Mof_H 	H 	0.2532	0.7683	0.1624	0.125
Mof_O 	O 	0.079	0.9166	0.8756	-0.487
Mof_O 	O 	0.086	0.8055	0.7949	-0.329
Mof_O 	O 	0.1949	0.9132	0.9012	-0.371
Mof_C 	C 	0.8439	0.7952	0.8892	0.277
Mof_C 	C 	0.825	0.5054	0.1147	0.22
Mof_C 	C 	0.8328	0.4107	0.0677	0.108
Mof_H 	H 	0.8191	0.3583	0.0524	-0.038
Mof_N 	N 	0.9025	0.4811	0.057	-0.196
Mof_N 	N 	0.7814	0.4206	0.1037	-0.334
Mof_N 	N 	0.8996	0.5442	0.0876	-0.195
Mof_N 	N 	0.7953	0.5445	0.1463	-0.34
Mof_H 	H 	0.8245	0.5991	0.1506	0.207
Mof_H 	H 	0.7468	0.5151	0.1624	0.113
Mof_O 	O 	0.921	0.8376	0.8756	-0.34
Mof_O 	O 	0.914	0.7195	0.7949	-0.339
Mof_O 	O 	0.8051	0.7183	0.9012	-0.362
Mof_C 	C 	0.2048	0.0487	0.8892	0.117
Mof_C 	C 	0.4946	0.3196	0.1147	0.192
Mof_C 	C 	0.5893	0.4221	0.0677	0.093
Mof_H 	H 	0.6417	0.4608	0.0524	-0.055
Mof_N 	N 	0.5189	0.4214	0.057	-0.248
Mof_N 	N 	0.5794	0.3608	0.1037	-0.336
Mof_N 	N 	0.4558	0.3554	0.0876	-0.245
Mof_N 	N 	0.4555	0.2508	0.1463	-0.335
Mof_H 	H 	0.4009	0.2254	0.1506	0.179
Mof_H 	H 	0.4849	0.2317	0.1624	0.102
Mof_O 	O 	0.1624	0.0834	0.8756	-0.467
Mof_O 	O 	0.2805	0.1945	0.7949	-0.372
Mof_O 	O 	0.2817	0.0868	0.9012	-0.368
Mof_C 	C 	0.9513	0.1561	0.8892	0.452
Mof_C 	C 	0.6804	0.175	0.1147	0.2
Mof_C 	C 	0.5779	0.1672	0.0677	0.095
Mof_H 	H 	0.5392	0.1809	0.0524	-0.059
Mof_N 	N 	0.5786	0.0975	0.057	-0.259
Mof_N 	N 	0.6392	0.2186	0.1037	-0.337
Mof_N 	N 	0.6446	0.1004	0.0876	-0.254
Mof_N 	N 	0.7492	0.2047	0.1463	-0.342
Mof_H 	H 	0.7746	0.1755	0.1506	0.196
Mof_H 	H 	0.7683	0.2532	0.1624	0.125
Mof_O 	O 	0.9166	0.079	0.8756	-0.487
Mof_O 	O 	0.8055	0.086	0.7949	-0.329
Mof_O 	O 	0.9132	0.1949	0.9012	-0.371
Mof_C 	C 	0.1561	0.2048	0.3892	0.274
Mof_C 	C 	0.175	0.4946	0.6147	0.193
Mof_C 	C 	0.1672	0.5893	0.5677	0.097
Mof_H 	H 	0.1809	0.6417	0.5524	-0.048
Mof_N 	N 	0.0975	0.5189	0.557	-0.253
Mof_N 	N 	0.2186	0.5794	0.6037	-0.335
Mof_N 	N 	0.1004	0.4558	0.5876	-0.253
Mof_N 	N 	0.2047	0.4555	0.6463	-0.336
Mof_H 	H 	0.1755	0.4009	0.6506	0.18
Mof_H 	H 	0.2532	0.4849	0.6624	0.103
Mof_O 	O 	0.079	0.1624	0.3756	-0.516
Mof_O 	O 	0.086	0.2805	0.2949	-0.351
Mof_O 	O 	0.1949	0.2817	0.4012	-0.401
Mof_C 	C 	0.7952	0.9513	0.3892	0.449
Mof_C 	C 	0.5054	0.6804	0.6147	0.204
Mof_C 	C 	0.4107	0.5779	0.5677	0.098
Mof_H 	H 	0.3583	0.5392	0.5524	-0.05
Mof_N 	N 	0.4811	0.5786	0.557	-0.242
Mof_N 	N 	0.4206	0.6392	0.6037	-0.335
Mof_N 	N 	0.5442	0.6446	0.5876	-0.242
Mof_N 	N 	0.5445	0.7492	0.6463	-0.343
Mof_H 	H 	0.5991	0.7746	0.6506	0.198
Mof_H 	H 	0.5151	0.7683	0.6624	0.126
Mof_O 	O 	0.8376	0.9166	0.3756	-0.416
Mof_O 	O 	0.7195	0.8055	0.2949	-0.341
Mof_O 	O 	0.7183	0.9132	0.4012	-0.371
Mof_C 	C 	0.0487	0.8439	0.3892	0.113
Mof_C 	C 	0.3196	0.825	0.6147	0.222
Mof_C 	C 	0.4221	0.8328	0.5677	0.112
Mof_H 	H 	0.4608	0.8191	0.5524	-0.03
Mof_N 	N 	0.4214	0.9025	0.557	-0.189
Mof_N 	N 	0.3608	0.7814	0.6037	-0.333
Mof_N 	N 	0.3554	0.8996	0.5876	-0.192
Mof_N 	N 	0.2508	0.7953	0.6463	-0.339
Mof_H 	H 	0.2254	0.8245	0.6506	0.206
Mof_H 	H 	0.2317	0.7468	0.6624	0.111
Mof_O 	O 	0.0834	0.921	0.3756	-0.362
Mof_O 	O 	0.1945	0.914	0.2949	-0.347
Mof_O 	O 	0.0868	0.8051	0.4012	-0.345
Mof_C 	C 	0.7952	0.8439	0.6108	0.274
Mof_C 	C 	0.5054	0.825	0.3853	0.222
Mof_C 	C 	0.4107	0.8328	0.4323	0.113
Mof_H 	H 	0.3583	0.8191	0.4476	-0.03
Mof_N 	N 	0.4811	0.9025	0.443	-0.189
Mof_N 	N 	0.4206	0.7814	0.3963	-0.333
Mof_N 	N 	0.5442	0.8996	0.4124	-0.192
Mof_N 	N 	0.5445	0.7953	0.3537	-0.34
Mof_H 	H 	0.5991	0.8245	0.3494	0.208
Mof_H 	H 	0.5151	0.7468	0.3376	0.113
Mof_O 	O 	0.8376	0.921	0.6244	-0.34
Mof_O 	O 	0.7195	0.914	0.7051	-0.338
Mof_O 	O 	0.7183	0.8051	0.5988	-0.367
Mof_C 	C 	0.0487	0.2048	0.6108	0.113
Mof_C 	C 	0.3196	0.4946	0.3853	0.194
Mof_C 	C 	0.4221	0.5893	0.4323	0.097
Mof_H 	H 	0.4608	0.6417	0.4476	-0.047
Mof_N 	N 	0.4214	0.5189	0.443	-0.242
Mof_N 	N 	0.3608	0.5794	0.3963	-0.335
Mof_N 	N 	0.3554	0.4558	0.4124	-0.243
Mof_N 	N 	0.2508	0.4555	0.3537	-0.335
Mof_H 	H 	0.2254	0.4009	0.3494	0.18
Mof_H 	H 	0.2317	0.4849	0.3376	0.102
Mof_O 	O 	0.0834	0.1624	0.6244	-0.468
Mof_O 	O 	0.1945	0.2805	0.7051	-0.372
Mof_O 	O 	0.0868	0.2817	0.5988	-0.373
Mof_C 	C 	0.1561	0.9513	0.6108	0.45
Mof_C 	C 	0.175	0.6804	0.3853	0.202
Mof_C 	C 	0.1672	0.5779	0.4323	0.099
Mof_H 	H 	0.1809	0.5392	0.4476	-0.051
Mof_N 	N 	0.0975	0.5786	0.443	-0.253
Mof_N 	N 	0.2186	0.6392	0.3963	-0.336
Mof_N 	N 	0.1004	0.6446	0.4124	-0.252
Mof_N 	N 	0.2047	0.7492	0.3537	-0.342
Mof_H 	H 	0.1755	0.7746	0.3494	0.197
Mof_H 	H 	0.2532	0.7683	0.3376	0.125
Mof_O 	O 	0.079	0.9166	0.6244	-0.487
Mof_O 	O 	0.086	0.8055	0.7051	-0.329
Mof_O 	O 	0.1949	0.9132	0.5988	-0.376
Mof_C 	C 	0.2048	0.1561	0.1108	0.272
Mof_C 	C 	0.4946	0.175	0.8853	0.196
Mof_C 	C 	0.5893	0.1672	0.9323	0.101
Mof_H 	H 	0.6417	0.1809	0.9476	-0.039
Mof_N 	N 	0.5189	0.0975	0.943	-0.243
Mof_N 	N 	0.5794	0.2186	0.8963	-0.334
Mof_N 	N 	0.4558	0.1004	0.9124	-0.25
Mof_N 	N 	0.4555	0.2047	0.8537	-0.336
Mof_H 	H 	0.4009	0.1755	0.8494	0.181
Mof_H 	H 	0.4849	0.2532	0.8376	0.104
Mof_O 	O 	0.1624	0.079	0.1244	-0.517
Mof_O 	O 	0.2805	0.086	0.2051	-0.351
Mof_O 	O 	0.2817	0.1949	0.0988	-0.406
Mof_C 	C 	0.9513	0.7952	0.1108	0.446
Mof_C 	C 	0.6804	0.5054	0.8853	0.207
Mof_C 	C 	0.5779	0.4107	0.9323	0.102
Mof_H 	H 	0.5392	0.3583	0.9476	-0.041
Mof_N 	N 	0.5786	0.4811	0.943	-0.232
Mof_N 	N 	0.6392	0.4206	0.8963	-0.334
Mof_N 	N 	0.6446	0.5442	0.9124	-0.239
Mof_N 	N 	0.7492	0.5445	0.8537	-0.343
Mof_H 	H 	0.7746	0.5991	0.8494	0.199
Mof_H 	H 	0.7683	0.5151	0.8376	0.126
Mof_O 	O 	0.9166	0.8376	0.1244	-0.417
Mof_O 	O 	0.8055	0.7195	0.2051	-0.342
Mof_O 	O 	0.9132	0.7183	0.0988	-0.376
Mof_C 	C 	0.8439	0.0487	0.1108	0.112
Mof_C 	C 	0.825	0.3196	0.8853	0.224
Mof_C 	C 	0.8328	0.4221	0.9323	0.116
Mof_H 	H 	0.8191	0.4608	0.9476	-0.022
Mof_N 	N 	0.9025	0.4214	0.943	-0.18
Mof_N 	N 	0.7814	0.3608	0.8963	-0.331
Mof_N 	N 	0.8996	0.3554	0.9124	-0.19
Mof_N 	N 	0.7953	0.2508	0.8537	-0.339
Mof_H 	H 	0.8245	0.2254	0.8494	0.207
Mof_H 	H 	0.7468	0.2317	0.8376	0.111
Mof_O 	O 	0.921	0.0834	0.1244	-0.363
Mof_O 	O 	0.914	0.1945	0.2051	-0.347
Mof_O 	O 	0.8051	0.0868	0.0988	-0.35
Mof_C 	C 	0.0491	0.2625	0.25	0.045
Mof_C 	C 	0.7375	0.7866	0.25	0.213
Mof_C 	C 	0.2134	0.9509	0.25	0.364
Mof_C 	C 	0.9509	0.7375	0.75	0.37
Mof_C 	C 	0.2625	0.2134	0.75	0.194
Mof_C 	C 	0.7866	0.0491	0.75	0.055
Mof_C 	C 	0.2625	0.0491	0.25	0.045
Mof_C 	C 	0.7866	0.7375	0.25	0.213
Mof_C 	C 	0.9509	0.2134	0.25	0.364
Mof_C 	C 	0.7375	0.9509	0.75	0.37
Mof_C 	C 	0.2134	0.2625	0.75	0.194
Mof_C 	C 	0.0491	0.7866	0.75	0.055
Mof_C 	C 	-5.1107e-18	0.2628	0.0305	0.035
Mof_H 	H 	-3.03291e-18	0.2141	0.0181	-0.055
Mof_C 	C 	-1.37738e-17	0.3581	0.0822	0.142
Mof_N 	N 	-3.01123e-17	0.282	0.083	-0.308
Mof_N 	N 	-5.20051e-18	0.3224	0.9981	-0.219
Mof_N 	N 	-5.46259e-18	0.3838	0.0326	-0.279
Mof_N 	N 	-2.1532e-17	0.399	0.1285	-0.317
Mof_H 	H 	-5.36562e-17	0.4466	0.1268	0.094
Mof_H 	H 	5.69933e-18	0.3771	0.1594	0.085
Mof_Cl	Cl	-7.95071e-18	0.3367	0.8211	-0.563
Mof_Zn	Zn	8.39878e-18	0.21069	0.14329	1.18
Mof_Zn	Zn	8.96536e-18	0.33285	0.91356	1.18
Mof_C 	C 	0.7372	0.7372	0.0305	0.061
Mof_H 	H 	0.7859	0.7859	0.0181	0.014
Mof_C 	C 	0.6419	0.6419	0.0822	0.185
Mof_N 	N 	0.718	0.718	0.083	-0.285
Mof_N 	N 	0.6776	0.6776	0.9981	-0.185
Mof_N 	N 	0.6162	0.6162	0.0326	-0.256
Mof_N 	N 	0.601	0.601	0.1285	-0.33
Mof_H 	H 	0.5534	0.5534	0.1268	0.135
Mof_H 	H 	0.6229	0.6229	0.1594	0.125
Mof_Cl	Cl	0.6633	0.6633	0.8211	-0.455
Mof_Zn	Zn	0.78931	0.78931	0.14329	1.225
Mof_Zn	Zn	0.66715	0.66715	0.91356	1.213
Mof_C 	C 	0.2628	0	0.0305	0.035
Mof_H 	H 	0.2141	4.49766e-34	0.0181	-0.055
Mof_C 	C 	0.3581	3.59813e-33	0.0822	0.142
Mof_N 	N 	0.282	-1.79906e-33	0.083	-0.308
Mof_N 	N 	0.3224	0	0.9981	-0.219
Mof_N 	N 	0.3838	8.99532e-34	0.0326	-0.279
Mof_N 	N 	0.399	3.59813e-33	0.1285	-0.317
Mof_H 	H 	0.4466	0	0.1268	0.094
Mof_H 	H 	0.3771	3.59813e-33	0.1594	0.085
Mof_Cl	Cl	0.3367	0	0.8211	-0.563
Mof_Zn	Zn	0.21069	0	0.14329	1.18
Mof_Zn	Zn	0.33285	2.8785e-32	0.91356	1.18
Mof_C 	C 	-2.40747e-17	0.7372	0.5305	0.081
Mof_H 	H 	-2.19969e-17	0.7859	0.5181	-0.036
Mof_C 	C 	3.20804e-17	0.6419	0.5822	0.145
Mof_N 	N 	-3.28718e-17	0.718	0.583	-0.31
Mof_N 	N 	4.61725e-17	0.6776	0.4981	-0.255
Mof_N 	N 	-2.44265e-17	0.6162	0.5326	-0.259
Mof_N 	N 	-4.04959e-17	0.601	0.6285	-0.317
Mof_H 	H 	-7.80204e-18	0.5534	0.6268	0.094
Mof_H 	H 	1.91444e-17	0.6229	0.6594	0.085
Mof_Cl	Cl	-5.38048e-17	0.6633	0.3211	-0.558
Mof_Zn	Zn	-4.29742e-17	0.78931	0.64329	1.184
Mof_Zn	Zn	6.03384e-17	0.66715	0.41356	1.178
Mof_C 	C 	0.2628	0.2628	0.5305	0.105
Mof_H 	H 	0.2141	0.2141	0.5181	-0.03
Mof_C 	C 	0.3581	0.3581	0.5822	0.185
Mof_N 	N 	0.282	0.282	0.583	-0.295
Mof_N 	N 	0.3224	0.3224	0.4981	-0.232
Mof_N 	N 	0.3838	0.3838	0.5326	-0.238
Mof_N 	N 	0.399	0.399	0.6285	-0.33
Mof_H 	H 	0.4466	0.4466	0.6268	0.134
Mof_H 	H 	0.3771	0.3771	0.6594	0.125
Mof_Cl	Cl	0.3367	0.3367	0.3211	-0.464
Mof_Zn	Zn	0.21069	0.21069	0.64329	1.217
Mof_Zn	Zn	0.33285	0.33285	0.41356	1.21
Mof_C 	C 	0.7372	0	0.5305	0.081
Mof_H 	H 	0.7859	1.43925e-32	0.5181	-0.036
Mof_C 	C 	0.6419	0	0.5822	0.145
Mof_N 	N 	0.718	1.43925e-32	0.583	-0.31
Mof_N 	N 	0.6776	0	0.4981	-0.255
Mof_N 	N 	0.6162	0	0.5326	-0.259
Mof_N 	N 	0.601	1.43925e-32	0.6285	-0.317
Mof_H 	H 	0.5534	0	0.6268	0.094
Mof_H 	H 	0.6229	0	0.6594	0.085
Mof_Cl	Cl	0.6633	0	0.3211	-0.558
Mof_Zn	Zn	0.78931	0	0.64329	1.184
Mof_Zn	Zn	0.66715	0	0.41356	1.178
Mof_C 	C 	0.2628	0	0.4695	0.08
Mof_H 	H 	0.2141	0	0.4819	-0.058
Mof_C 	C 	0.3581	0	0.4178	0.144
Mof_N 	N 	0.282	0	0.417	-0.313
Mof_N 	N 	0.3224	0	0.5019	-0.259
Mof_N 	N 	0.3838	0	0.4674	-0.26
Mof_N 	N 	0.399	0	0.3715	-0.317
Mof_H 	H 	0.4466	0	0.3732	0.094
Mof_H 	H 	0.3771	1.43925e-32	0.3406	0.085
Mof_Cl	Cl	0.3367	0	0.6789	-0.563
Mof_Zn	Zn	0.21069	0	0.35671	1.18
Mof_Zn	Zn	0.33285	0	0.58644	1.178
Mof_C 	C 	0.7372	0.7372	0.4695	0.106
Mof_H 	H 	0.7859	0.7859	0.4819	0.012
Mof_C 	C 	0.6419	0.6419	0.4178	0.187
Mof_N 	N 	0.718	0.718	0.417	-0.29
Mof_N 	N 	0.6776	0.6776	0.5019	-0.224
Mof_N 	N 	0.6162	0.6162	0.4674	-0.236
Mof_N 	N 	0.601	0.601	0.3715	-0.33
Mof_H 	H 	0.5534	0.5534	0.3732	0.135
Mof_H 	H 	0.6229	0.6229	0.3406	0.125
Mof_Cl	Cl	0.6633	0.6633	0.6789	-0.455
Mof_Zn	Zn	0.78931	0.78931	0.35671	1.226
Mof_Zn	Zn	0.66715	0.66715	0.58644	1.211
Mof_C 	C 	-1.38533e-17	0.2628	0.4695	0.08
Mof_H 	H 	-1.5931e-17	0.2141	0.4819	-0.058
Mof_C 	C 	-5.19019e-18	0.3581	0.4178	0.144
Mof_N 	N 	-5.36697e-17	0.282	0.417	-0.313
Mof_N 	N 	1.31267e-17	0.3224	0.5019	-0.259
Mof_N 	N 	-4.59104e-17	0.3838	0.4674	-0.26
Mof_N 	N 	2.56802e-18	0.399	0.3715	-0.317
Mof_H 	H 	2.28317e-18	0.4466	0.3732	0.094
Mof_H 	H 	7.74575e-18	0.3771	0.3406	0.085
Mof_Cl	Cl	-1.65321e-17	0.3367	0.6789	-0.563
Mof_Zn	Zn	5.0463e-18	0.21069	0.35671	1.18
Mof_Zn	Zn	-1.03916e-18	0.33285	0.58644	1.178
Mof_C 	C 	0.7372	2.8785e-32	0.9695	0.125
Mof_H 	H 	0.7859	0	0.9819	-0.036
Mof_C 	C 	0.6419	0	0.9178	0.148
Mof_N 	N 	0.718	2.8785e-32	0.917	-0.315
Mof_N 	N 	0.6776	5.62207e-35	0.0019	-0.293
Mof_N 	N 	0.6162	2.8785e-32	0.9674	-0.237
Mof_N 	N 	0.601	0	0.8715	-0.317
Mof_H 	H 	0.5534	2.8785e-32	0.8732	0.095
Mof_H 	H 	0.6229	0	0.8406	0.085
Mof_Cl	Cl	0.6633	0	0.1789	-0.557
Mof_Zn	Zn	0.78931	0	0.85671	1.185
Mof_Zn	Zn	0.66715	0	0.08644	1.177
Mof_C 	C 	0.2628	0.2628	0.9695	0.151
Mof_H 	H 	0.2141	0.2141	0.9819	-0.029
Mof_C 	C 	0.3581	0.3581	0.9178	0.187
Mof_N 	N 	0.282	0.282	0.917	-0.3
Mof_N 	N 	0.3224	0.3224	0.0019	-0.271
Mof_N 	N 	0.3838	0.3838	0.9674	-0.215
Mof_N 	N 	0.399	0.399	0.8715	-0.33
Mof_H 	H 	0.4466	0.4466	0.8732	0.135
Mof_H 	H 	0.3771	0.3771	0.8406	0.125
Mof_Cl	Cl	0.3367	0.3367	0.1789	-0.464
Mof_Zn	Zn	0.21069	0.21069	0.85671	1.218
Mof_Zn	Zn	0.33285	0.33285	0.08644	1.209
Mof_C 	C 	-3.28172e-17	0.7372	0.9695	0.125
Mof_H 	H 	-3.4895e-17	0.7859	0.9819	-0.036
Mof_C 	C 	4.06639e-17	0.6419	0.9178	0.148
Mof_N 	N 	-2.40201e-17	0.718	0.917	-0.315
Mof_N 	N 	-3.18372e-19	0.6776	0.0019	-0.293
Mof_N 	N 	-3.24653e-17	0.6162	0.9674	-0.237
Mof_N 	N 	-8.1214e-17	0.601	0.8715	-0.317
Mof_H 	H 	-4.90898e-17	0.5534	0.8732	0.095
Mof_H 	H 	-1.12182e-17	0.6229	0.8406	0.085
Mof_Cl	Cl	-2.99772e-17	0.6633	0.1789	-0.557
Mof_Zn	Zn	-7.87357e-17	0.78931	0.85671	1.185
Mof_Zn	Zn	-1.44842e-17	0.66715	0.08644	1.177
Mof_Cl	Cl	-0	0	0.25	-0.705
Mof_Cl	Cl	7.19625e-33	1.43925e-32	0.75	-0.709
Mof_Cl	Cl	-0	0	-0	-0.738
Mof_Cl	Cl	-0	0	0.5	-0.705
Mof_Tb	Tb	-1.79906e-33	0	0.12452	1.189
Mof_Tb	Tb	-0	1.43925e-32	0.62452	1.192
Mof_Tb	Tb	3.59813e-33	0	0.37548	1.192
Mof_Tb	Tb	-0	0	0.87548	1.221
Mof_Zn	Zn	-0	0.5	-0	1.118
Mof_Zn	Zn	0.5	0.5	-0	1.151
Mof_Zn	Zn	0.5	0	-0	1.118
Mof_Zn	Zn	-1.8964e-17	0.5	0.5	1.131
Mof_Zn	Zn	0.5	0.5	0.5	1.164
Mof_Zn	Zn	0.5	0	0.5	1.131
Mof_Zn	Zn	0.33333	0.66667	0.87266	1.146
Mof_Zn	Zn	0.66667	0.33333	0.37266	1.145
Mof_Zn	Zn	0.66667	0.33333	0.62734	1.145
Mof_Zn	Zn	0.33333	0.66667	0.12734	1.144
Mof_Zn	Zn	0.66667	0.33333	0.12734	1.144
Mof_Zn	Zn	0.33333	0.66667	0.62734	1.145
Mof_Zn	Zn	0.33333	0.66667	0.37266	1.145
Mof_Zn	Zn	0.66667	0.33333	0.87266	1.146
_end
