data_functionalizedCrystal
_audit_creation_method	'EQeq! by Chris Wilmer'
_symmetry_space_group_name_H-M	'P1'
_symmetry_Int_Tables_number	1
_symmetry_cell_setting	triclinic
loop_
_symmetry_equiv_pos_as_xyz
  x,y,z
_cell_length_a	9.4642
_cell_length_b	11.474
_cell_length_c	14.575
_cell_angle_alpha	69.77
_cell_angle_beta	85.43
_cell_angle_gamma	86.44
loop_
_atom_site_label
_atom_site_type_symbol
_atom_site_fract_x
_atom_site_fract_y
_atom_site_fract_z
_atom_site_charge
Mof_Tb	Tb	0.79701	0.95465	0.00252	1.868
Mof_Tb	Tb	0.20299	0.04535	0.99748	1.868
Mof_H 	H 	0.866	0.3689	0.841	0.16
Mof_H 	H 	0.9717	0.3718	0.752	0.168
Mof_H 	H 	0.329	0.388	0.888	0.201
Mof_H 	H 	0.263	0.48	0.809	0.142
Mof_H 	H 	0.878	0.9426	0.5566	0.08
Mof_H 	H 	0.8717	0.0645	0.4646	0.083
Mof_H 	H 	0.2759	0.3481	0.3922	0.135
Mof_H 	H 	0.2602	0.285	0.32	0.13
Mof_H 	H 	0.8527	0.0995	0.2817	0.172
Mof_H 	H 	0.8141	0.2246	0.1978	0.174
Mof_H 	H 	0.1187	0.5341	0.4334	0.085
Mof_H 	H 	0.1124	0.411	0.5245	0.091
Mof_H 	H 	0.6697	0.0451	0.6074	0.126
Mof_H 	H 	0.6264	0.1185	0.6723	0.134
Mof_H 	H 	0.4837	0.8364	0.808	0.128
Mof_H 	H 	0.6346	0.8314	0.7575	0.129
Mof_H 	H 	0.0293	0.4823	0.9081	0.085
Mof_H 	H 	0.0794	0.3875	0.0077	0.111
Mof_H 	H 	0.134	0.6311	0.159	0.159
Mof_H 	H 	0.0283	0.6282	0.248	0.167
Mof_H 	H 	0.671	0.612	0.112	0.2
Mof_H 	H 	0.737	0.52	0.191	0.141
Mof_H 	H 	0.122	0.0574	0.4434	0.08
Mof_H 	H 	0.1283	0.9355	0.5354	0.083
Mof_H 	H 	0.7241	0.6519	0.6078	0.135
Mof_H 	H 	0.7398	0.715	0.68	0.13
Mof_H 	H 	0.1473	0.9005	0.7183	0.172
Mof_H 	H 	0.1859	0.7754	0.8022	0.174
Mof_H 	H 	0.8813	0.4659	0.5666	0.085
Mof_H 	H 	0.8876	0.589	0.4755	0.091
Mof_H 	H 	0.3303	0.9549	0.3926	0.126
Mof_H 	H 	0.3736	0.8815	0.3277	0.134
Mof_H 	H 	0.5163	0.1636	0.192	0.128
Mof_H 	H 	0.3654	0.1686	0.2425	0.129
Mof_H 	H 	0.9707	0.5177	0.0919	0.085
Mof_H 	H 	0.9206	0.6125	0.9923	0.111
Mof_C 	C 	0.9249	0.098	0.1441	0.566
Mof_C 	C 	0.8866	0.1963	0.6804	0.1
Mof_C 	C 	0.0026	0.218	0.8722	0.494
Mof_C 	C 	0.9112	0.3185	0.8048	-0.408
Mof_C 	C 	0.9276	0.0175	0.5193	-0.156
Mof_C 	C 	0.9832	0.3034	0.3153	0.068
Mof_C 	C 	0.8872	0.16	0.2203	-0.444
Mof_C 	C 	0.9422	0.0934	0.5829	0.147
Mof_C 	C 	0.9954	0.4061	0.4151	0.14
Mof_C 	C 	0.0562	0.4706	0.4753	-0.159
Mof_C 	C 	0.5789	0.8	0.8192	-0.343
Mof_C 	C 	0.6407	0.8469	0.8918	0.395
Mof_C 	C 	0.4019	0.6149	0.9121	0.094
Mof_C 	C 	0.1898	0.546	0.9603	0.139
Mof_C 	C 	0.0595	0.4748	0.972	-0.184
Mof_C 	C 	0.0751	0.902	0.8559	0.566
Mof_C 	C 	0.1134	0.8037	0.3196	0.1
Mof_C 	C 	0.9974	0.782	0.1278	0.494
Mof_C 	C 	0.0888	0.6815	0.1952	-0.408
Mof_C 	C 	0.0724	0.9825	0.4807	-0.156
Mof_C 	C 	0.0168	0.6966	0.6847	0.068
Mof_C 	C 	0.1128	0.84	0.7797	-0.444
Mof_C 	C 	0.0578	0.9066	0.4171	0.147
Mof_C 	C 	0.0046	0.5939	0.5849	0.14
Mof_C 	C 	0.9438	0.5294	0.5247	-0.159
Mof_C 	C 	0.4211	0.2	0.1808	-0.343
Mof_C 	C 	0.3593	0.1531	0.1082	0.395
Mof_C 	C 	0.5981	0.3851	0.0879	0.094
Mof_C 	C 	0.8102	0.454	0.0397	0.139
Mof_C 	C 	0.9405	0.5252	0.028	-0.184
Mof_S 	S 	0.04805	0.22599	0.23666	0.076
Mof_S 	S 	0.56874	0.63445	0.85038	0.048
Mof_S 	S 	0.77634	0.26225	0.75251	0.016
Mof_S 	S 	0.95195	0.77401	0.76334	0.076
Mof_S 	S 	0.43126	0.36555	0.14962	0.048
Mof_S 	S 	0.22366	0.73775	0.24749	0.016
Mof_N 	N 	0.3096	0.5325	0.905	-0.114
Mof_N 	N 	0.2071	0.6322	0.9969	-0.121
Mof_N 	N 	0.0757	0.3476	0.3621	-0.106
Mof_N 	N 	0.0225	0.2046	0.6616	-0.107
Mof_N 	N 	0.3437	0.6747	0.9673	-0.111
Mof_N 	N 	0.831	0.1276	0.6335	-0.111
Mof_N 	N 	0.3377	0.453	0.8502	-0.283
Mof_N 	N 	0.223	0.3239	0.3575	-0.247
Mof_N 	N 	0.0581	0.1372	0.5977	-0.114
Mof_N 	N 	0.8633	0.3978	0.404	-0.106
Mof_N 	N 	0.854	0.3311	0.3396	-0.096
Mof_N 	N 	0.6911	0.0926	0.6384	-0.242
Mof_N 	N 	0.6904	0.4675	0.095	-0.114
Mof_N 	N 	0.7929	0.3678	0.0031	-0.121
Mof_N 	N 	0.9243	0.6524	0.6379	-0.106
Mof_N 	N 	0.9775	0.7954	0.3384	-0.107
Mof_N 	N 	0.6563	0.3253	0.0327	-0.111
Mof_N 	N 	0.169	0.8724	0.3665	-0.111
Mof_N 	N 	0.6623	0.547	0.1498	-0.283
Mof_N 	N 	0.777	0.6761	0.6425	-0.247
Mof_N 	N 	0.9419	0.8628	0.4023	-0.114
Mof_N 	N 	0.1367	0.6022	0.596	-0.106
Mof_N 	N 	0.146	0.6689	0.6604	-0.096
Mof_N 	N 	0.3089	0.9074	0.3616	-0.242
Mof_O 	O 	0.8274	0.0423	0.12535	-0.541
Mof_O 	O 	0.9505	0.1158	0.92537	-0.596
Mof_O 	O 	0.1291	0.2398	0.8756	-0.498
Mof_O 	O 	0.05	0.1069	0.1083	-0.505
Mof_O 	O 	0.6869	0.7779	0.9702	-0.428
Mof_O 	O 	0.6464	0.9651	0.8663	-0.463
Mof_O 	O 	0.1726	0.9577	0.87465	-0.541
Mof_O 	O 	0.0495	0.8842	0.07463	-0.596
Mof_O 	O 	0.8709	0.7602	0.1244	-0.498
Mof_O 	O 	0.95	0.8931	0.8917	-0.505
Mof_O 	O 	0.3131	0.2221	0.0298	-0.428
Mof_O 	O 	0.3536	0.0349	0.1337	-0.463
_end
