data_functionalizedCrystal
_audit_creation_method	'EQeq! by Chris Wilmer'
_symmetry_space_group_name_H-M	'P1'
_symmetry_Int_Tables_number	1
_symmetry_cell_setting	triclinic
loop_
_symmetry_equiv_pos_as_xyz
  x,y,z
_cell_length_a	10.2997
_cell_length_b	10.6107
_cell_length_c	6.243
_cell_angle_alpha	90
_cell_angle_beta	114.713
_cell_angle_gamma	90
loop_
_atom_site_label
_atom_site_type_symbol
_atom_site_fract_x
_atom_site_fract_y
_atom_site_fract_z
_atom_site_charge
Mof_C 	C 	0.3174	0.2109	0.5455	-0.062
Mof_H 	H 	0.3993	0.2655	0.5712	0.016
Mof_H 	H 	0.3319	0.1737	0.6975	-0.001
Mof_N 	N 	0.3112	0.1095	0.3803	-0.265
Mof_H 	H 	0.2959	0.1442	0.2384	0.057
Mof_H 	H 	0.2358	0.0583	0.3583	0.05
Mof_C 	C 	0.8174	0.7109	0.5455	-0.065
Mof_H 	H 	0.8993	0.7655	0.5712	0.043
Mof_H 	H 	0.8319	0.6737	0.6975	0.022
Mof_N 	N 	0.8112	0.6095	0.3803	-0.259
Mof_H 	H 	0.7959	0.6442	0.2384	0.08
Mof_H 	H 	0.7358	0.5583	0.3583	0.079
Mof_C 	C 	0.6826	0.2109	0.9545	0.026
Mof_H 	H 	0.6007	0.2655	0.9288	-0.005
Mof_H 	H 	0.6681	0.1737	0.8025	-0.026
Mof_N 	N 	0.6888	0.1095	0.1197	-0.289
Mof_H 	H 	0.7041	0.1442	0.2616	0.073
Mof_H 	H 	0.7642	0.0583	0.1417	0.068
Mof_C 	C 	0.1826	0.7109	0.9545	0.03
Mof_H 	H 	0.1007	0.7655	0.9288	-0.017
Mof_H 	H 	0.1681	0.6737	0.8025	-0.029
Mof_N 	N 	0.1888	0.6095	0.1197	-0.291
Mof_H 	H 	0.2041	0.6442	0.2616	0.074
Mof_H 	H 	0.2642	0.5583	0.1417	0.078
Mof_C 	C 	0.6826	0.7891	0.4545	-0.026
Mof_H 	H 	0.6007	0.7345	0.4288	0.007
Mof_H 	H 	0.6681	0.8263	0.3025	0.005
Mof_N 	N 	0.6888	0.8905	0.6197	-0.274
Mof_H 	H 	0.7041	0.8558	0.7616	0.098
Mof_H 	H 	0.7642	0.9417	0.6417	0.113
Mof_C 	C 	0.1826	0.2891	0.4545	-0.023
Mof_H 	H 	0.1007	0.2345	0.4288	-0.02
Mof_H 	H 	0.1681	0.3263	0.3025	-0.021
Mof_N 	N 	0.1888	0.3905	0.6197	-0.282
Mof_H 	H 	0.2041	0.3558	0.7616	0.075
Mof_H 	H 	0.2642	0.4417	0.6417	0.083
Mof_C 	C 	0.3174	0.7891	0.0455	-0.114
Mof_H 	H 	0.3993	0.7345	0.0712	0.029
Mof_H 	H 	0.3319	0.8263	0.1975	0.025
Mof_N 	N 	0.3112	0.8905	0.8803	-0.242
Mof_H 	H 	0.2959	0.8558	0.7384	0.081
Mof_H 	H 	0.2358	0.9417	0.8583	0.094
Mof_C 	C 	0.8174	0.2891	0.0455	-0.118
Mof_H 	H 	0.8993	0.2345	0.0712	0.04
Mof_H 	H 	0.8319	0.3263	0.1975	0.027
Mof_N 	N 	0.8112	0.3905	0.8803	-0.241
Mof_H 	H 	0.7959	0.3558	0.7384	0.079
Mof_H 	H 	0.7358	0.4417	0.8583	0.084
Mof_Ag	Ag	0.5	5.09114e-33	0.5	0.307
Mof_Ag	Ag	1.61138e-33	0.5	0.5	0.309
Mof_Ag	Ag	0.5	0	-0	0.258
Mof_Ag	Ag	-0	0.5	-0	0.26
_end
