data_functionalizedCrystal
_audit_creation_method	'EQeq! by Chris Wilmer'
_symmetry_space_group_name_H-M	'P1'
_symmetry_Int_Tables_number	1
_symmetry_cell_setting	triclinic
loop_
_symmetry_equiv_pos_as_xyz
  x,y,z
_cell_length_a	9.061
_cell_length_b	9.061
_cell_length_c	23.394
_cell_angle_alpha	90
_cell_angle_beta	90
_cell_angle_gamma	120
loop_
_atom_site_label
_atom_site_type_symbol
_atom_site_fract_x
_atom_site_fract_y
_atom_site_fract_z
_atom_site_charge
Mof_Zr	Zr	0.5	0.5	0.5	3.2
Mof_Zr	Zr	1.56492e-17	0.5	0.16667	3.194
Mof_Zr	Zr	0.5	0	0.83333	3.194
Mof_Cd	Cd	-5.74747e-18	0.5	0.66667	0.478
Mof_Cd	Cd	0.5	1.51762e-32	0.33333	0.478
Mof_Cd	Cd	0.5	0.5	-0	0.506
Mof_C 	C 	0.2084	0.4193	0.58143	0.263
Mof_C 	C 	0.3146	0.6157	0.58237	0.24
Mof_C 	C 	0.2109	0.7916	0.2481	0.263
Mof_C 	C 	0.3011	0.6854	0.24904	0.243
Mof_C 	C 	0.5807	0.7891	0.91476	0.261
Mof_C 	C 	0.3843	0.6989	0.9157	0.247
Mof_C 	C 	0.7916	0.5807	0.58143	0.261
Mof_C 	C 	0.6854	0.3843	0.58237	0.247
Mof_C 	C 	0.7891	0.2084	0.2481	0.262
Mof_C 	C 	0.6989	0.3146	0.24904	0.243
Mof_C 	C 	0.4193	0.2109	0.91476	0.264
Mof_C 	C 	0.6157	0.3011	0.9157	0.24
Mof_C 	C 	0.7891	0.5807	0.08524	0.261
Mof_C 	C 	0.6989	0.3843	0.0843	0.246
Mof_C 	C 	0.4193	0.2084	0.41857	0.264
Mof_C 	C 	0.6157	0.3146	0.41763	0.241
Mof_C 	C 	0.7916	0.2109	0.7519	0.263
Mof_C 	C 	0.6854	0.3011	0.75096	0.243
Mof_C 	C 	0.2109	0.4193	0.08524	0.264
Mof_C 	C 	0.3011	0.6157	0.0843	0.24
Mof_C 	C 	0.5807	0.7916	0.41857	0.261
Mof_C 	C 	0.3843	0.6854	0.41763	0.247
Mof_C 	C 	0.2084	0.7891	0.7519	0.262
Mof_C 	C 	0.3146	0.6989	0.75096	0.243
Mof_O 	O 	0.0801	0.343	0.61101	-0.255
Mof_O 	O 	0.2656	0.3488	0.54784	-0.587
Mof_O 	O 	0.4539	0.6748	0.55424	-0.538
Mof_O 	O 	0.2612	0.6966	0.60866	-0.209
Mof_O 	O 	0.2629	0.9199	0.27768	-0.227
Mof_O 	O 	0.0832	0.7344	0.21451	-0.6
Mof_O 	O 	0.2209	0.5461	0.22091	-0.553
Mof_O 	O 	0.4354	0.7388	0.27533	-0.203
Mof_O 	O 	0.657	0.7371	0.94434	-0.229
Mof_O 	O 	0.6512	0.9168	0.88117	-0.552
Mof_O 	O 	0.3252	0.7791	0.88757	-0.538
Mof_O 	O 	0.3034	0.5646	0.94199	-0.217
Mof_O 	O 	0.9199	0.657	0.61101	-0.215
Mof_O 	O 	0.7344	0.6512	0.54784	-0.573
Mof_O 	O 	0.5461	0.3252	0.55424	-0.55
Mof_O 	O 	0.7388	0.3034	0.60866	-0.211
Mof_O 	O 	0.7371	0.0801	0.27768	-0.248
Mof_O 	O 	0.9168	0.2656	0.21451	-0.562
Mof_O 	O 	0.7791	0.4539	0.22091	-0.532
Mof_O 	O 	0.5646	0.2612	0.27533	-0.215
Mof_O 	O 	0.343	0.2629	0.94434	-0.247
Mof_O 	O 	0.3488	0.0832	0.88117	-0.605
Mof_O 	O 	0.6748	0.2209	0.88757	-0.548
Mof_O 	O 	0.6966	0.4354	0.94199	-0.204
Mof_O 	O 	0.7371	0.657	0.05566	-0.232
Mof_O 	O 	0.9168	0.6512	0.11883	-0.553
Mof_O 	O 	0.7791	0.3252	0.11243	-0.539
Mof_O 	O 	0.5646	0.3034	0.05801	-0.22
Mof_O 	O 	0.343	0.0801	0.38899	-0.255
Mof_O 	O 	0.3488	0.2656	0.45216	-0.587
Mof_O 	O 	0.6748	0.4539	0.44576	-0.538
Mof_O 	O 	0.6966	0.2612	0.39134	-0.209
Mof_O 	O 	0.9199	0.2629	0.72232	-0.226
Mof_O 	O 	0.7344	0.0832	0.78549	-0.6
Mof_O 	O 	0.5461	0.2209	0.77909	-0.553
Mof_O 	O 	0.7388	0.4354	0.72467	-0.203
Mof_O 	O 	0.2629	0.343	0.05566	-0.249
Mof_O 	O 	0.0832	0.3488	0.11883	-0.605
Mof_O 	O 	0.2209	0.6748	0.11243	-0.549
Mof_O 	O 	0.4354	0.6966	0.05801	-0.207
Mof_O 	O 	0.657	0.9199	0.38899	-0.215
Mof_O 	O 	0.6512	0.7344	0.45216	-0.573
Mof_O 	O 	0.3252	0.5461	0.44576	-0.55
Mof_O 	O 	0.3034	0.7388	0.39134	-0.211
Mof_O 	O 	0.0801	0.7371	0.72232	-0.248
Mof_O 	O 	0.2656	0.9168	0.78549	-0.561
Mof_O 	O 	0.4539	0.7791	0.77909	-0.532
Mof_O 	O 	0.2612	0.5646	0.72467	-0.215
Mof_H 	H 	0.921	0.021	0.6423	0.158
Mof_H 	H 	0.079	0.979	0.6423	0.174
Mof_H 	H 	0.079	0.1	0.69103	0.14
Mof_H 	H 	0.921	0.9	0.69103	0.202
Mof_N 	N 	1.51762e-32	3.03524e-32	0.66667	-0.394
Mof_H 	H 	0.1002	0.0258	0.5244	0.144
Mof_H 	H 	0.8998	0.9742	0.5244	0.209
Mof_H 	H 	0.0258	0.1002	0.4756	0.144
Mof_H 	H 	0.9742	0.8998	0.4756	0.209
Mof_N 	N 	-3.03524e-32	3.03524e-32	0.5	-0.409
Mof_H 	H 	0.1	0.079	0.30897	0.14
Mof_H 	H 	0.9	0.921	0.30897	0.201
Mof_H 	H 	0.021	0.921	0.3577	0.158
Mof_H 	H 	0.979	0.079	0.3577	0.174
Mof_N 	N 	7.5881e-33	1.51762e-32	0.33333	-0.394
Mof_H 	H 	0.9256	0.8998	0.19107	0.211
Mof_H 	H 	0.0744	0.1002	0.19107	0.146
Mof_H 	H 	0.0744	0.9742	0.14227	0.171
Mof_H 	H 	0.9256	0.0258	0.14227	0.176
Mof_N 	N 	3.79405e-33	0	0.16667	-0.411
Mof_H 	H 	0.979	0.9	0.97563	0.214
Mof_H 	H 	0.021	0.1	0.97563	0.138
Mof_H 	H 	0.9	0.979	0.02437	0.21
Mof_H 	H 	0.1	0.021	0.02437	0.135
Mof_N 	N 	-0	0	-0	-0.411
Mof_H 	H 	0.9742	0.0744	0.85773	0.172
Mof_H 	H 	0.0258	0.9256	0.85773	0.176
Mof_H 	H 	0.8998	0.9256	0.80893	0.212
Mof_H 	H 	0.1002	0.0744	0.80893	0.146
Mof_N 	N 	-0	0	0.83333	-0.412
_end
