data_functionalizedCrystal
_audit_creation_method	'EQeq! by Chris Wilmer'
_symmetry_space_group_name_H-M	'P1'
_symmetry_Int_Tables_number	1
_symmetry_cell_setting	triclinic
loop_
_symmetry_equiv_pos_as_xyz
  x,y,z
_cell_length_a	10.657
_cell_length_b	13.483
_cell_length_c	14.365
_cell_angle_alpha	76.8656
_cell_angle_beta	68.2267
_cell_angle_gamma	66.7215
loop_
_atom_site_label
_atom_site_type_symbol
_atom_site_fract_x
_atom_site_fract_y
_atom_site_fract_z
_atom_site_charge
Mof_Mn	Mn	0.85624	0.03925	0.10921	0.852
Mof_Mn	Mn	0.5047	0.46075	0.39079	0.875
Mof_Mn	Mn	0.14376	0.96075	0.89079	0.852
Mof_Mn	Mn	0.4953	0.53925	0.60921	0.875
Mof_Mn	Mn	0.78086	0.25	0.25	0.993
Mof_Mn	Mn	0.21914	0.75	0.75	0.993
Mof_H 	H 	0.2012	0.1817	0.8463	0.059
Mof_H 	H 	0.2973	0.3137	0.7525	0.045
Mof_H 	H 	0.953	0.5421	0.9077	0.042
Mof_H 	H 	0.8633	0.4091	0.0093	0.056
Mof_H 	H 	0.5432	0.1624	0.4474	0.044
Mof_H 	H 	0.5808	0.8744	0.3854	0.049
Mof_H 	H 	0.7292	0.3183	0.6537	0.047
Mof_H 	H 	0.8635	0.1863	0.7475	0.053
Mof_H 	H 	0.9028	0.9579	0.5923	0.06
Mof_H 	H 	0.7817	0.0909	0.4907	0.04
Mof_H 	H 	0.653	0.3376	0.0526	0.044
Mof_H 	H 	0.3406	0.6256	0.1146	0.049
Mof_H 	H 	0.7988	0.8183	0.1537	0.059
Mof_H 	H 	0.7027	0.6863	0.2475	0.045
Mof_H 	H 	0.047	0.4579	0.0923	0.042
Mof_H 	H 	0.1367	0.5909	0.9907	0.056
Mof_H 	H 	0.4568	0.8376	0.5526	0.044
Mof_H 	H 	0.4192	0.1256	0.6146	0.049
Mof_H 	H 	0.2708	0.6817	0.3463	0.047
Mof_H 	H 	0.1365	0.8137	0.2525	0.053
Mof_H 	H 	0.0972	0.0421	0.4077	0.06
Mof_H 	H 	0.2183	0.9091	0.5093	0.04
Mof_H 	H 	0.347	0.6624	0.9474	0.044
Mof_H 	H 	0.6594	0.3744	0.8854	0.049
Mof_C 	C 	0.96764	0.19552	0.0042	0.342
Mof_C 	C 	0.02417	0.28174	0.93932	-0.064
Mof_C 	C 	0.15282	0.25365	0.86051	-0.036
Mof_C 	C 	0.20906	0.33321	0.80307	0
Mof_C 	C 	0.13488	0.44114	0.8205	-0.096
Mof_C 	C 	0.00435	0.46954	0.89676	0.006
Mof_C 	C 	0.94972	0.38984	0.95712	-0.043
Mof_C 	C 	0.20052	0.52581	0.76055	0.379
Mof_C 	C 	0.65918	0.04388	0.29316	0.336
Mof_C 	C 	0.57513	0.02185	0.40009	-0.078
Mof_C 	C 	0.52612	0.09706	0.4685	-0.021
Mof_C 	C 	0.54866	0.92473	0.43135	-0.018
Mof_C 	C 	0.66736	0.30448	0.4958	0.373
Mof_C 	C 	0.74523	0.21826	0.56068	-0.104
Mof_C 	C 	0.76698	0.24635	0.63949	-0.006
Mof_C 	C 	0.84534	0.16679	0.69693	-0.028
Mof_C 	C 	0.89652	0.05886	0.6795	-0.069
Mof_C 	C 	0.87065	0.03046	0.60324	-0.036
Mof_C 	C 	0.79668	0.11016	0.54288	0.002
Mof_C 	C 	0.98688	0.97419	0.73945	0.36
Mof_C 	C 	0.49622	0.45612	0.20684	0.345
Mof_C 	C 	0.49707	0.47815	0.09991	-0.079
Mof_C 	C 	0.59168	0.40294	0.0315	-0.021
Mof_C 	C 	0.40474	0.57527	0.06865	-0.019
Mof_C 	C 	0.03236	0.80448	0.9958	0.342
Mof_C 	C 	0.97583	0.71826	0.06068	-0.064
Mof_C 	C 	0.84718	0.74635	0.13949	-0.036
Mof_C 	C 	0.79094	0.66679	0.19693	0
Mof_C 	C 	0.86512	0.55886	0.1795	-0.096
Mof_C 	C 	0.99565	0.53046	0.10324	0.006
Mof_C 	C 	0.05028	0.61016	0.04288	-0.043
Mof_C 	C 	0.79948	0.47419	0.23945	0.379
Mof_C 	C 	0.34082	0.95612	0.70684	0.336
Mof_C 	C 	0.42487	0.97815	0.59991	-0.078
Mof_C 	C 	0.47388	0.90294	0.5315	-0.021
Mof_C 	C 	0.45134	0.07527	0.56865	-0.018
Mof_C 	C 	0.33264	0.69552	0.5042	0.373
Mof_C 	C 	0.25477	0.78174	0.43932	-0.104
Mof_C 	C 	0.23302	0.75365	0.36051	-0.006
Mof_C 	C 	0.15466	0.83321	0.30307	-0.028
Mof_C 	C 	0.10348	0.94114	0.3205	-0.069
Mof_C 	C 	0.12935	0.96954	0.39676	-0.036
Mof_C 	C 	0.20332	0.88984	0.45712	0.002
Mof_C 	C 	0.01312	0.02581	0.26055	0.36
Mof_C 	C 	0.50378	0.54388	0.79316	0.345
Mof_C 	C 	0.50293	0.52185	0.90009	-0.079
Mof_C 	C 	0.40832	0.59706	0.9685	-0.021
Mof_C 	C 	0.59526	0.42473	0.93135	-0.019
Mof_O 	O 	0.01838	0.10121	0.97623	-0.416
Mof_O 	O 	0.86705	0.21685	0.08645	-0.412
Mof_O 	O 	0.13717	0.6218	0.78386	-0.385
Mof_O 	O 	0.31774	0.49184	0.69208	-0.388
Mof_O 	O 	0.67917	0.13377	0.26469	-0.403
Mof_O 	O 	0.70881	0.97211	0.23407	-0.352
Mof_O 	O 	0.59582	0.39879	0.52377	-0.437
Mof_O 	O 	0.67035	0.28315	0.41355	-0.42
Mof_O 	O 	0.04283	0.8782	0.71614	-0.382
Mof_O 	O 	0.00166	0.00816	0.80792	-0.372
Mof_O 	O 	0.57763	0.36623	0.23531	-0.405
Mof_O 	O 	0.41499	0.52789	0.26593	-0.361
Mof_O 	O 	0.98162	0.89879	0.02377	-0.416
Mof_O 	O 	0.13295	0.78315	0.91355	-0.412
Mof_O 	O 	0.86283	0.3782	0.21614	-0.385
Mof_O 	O 	0.68226	0.50816	0.30792	-0.388
Mof_O 	O 	0.32083	0.86623	0.73531	-0.403
Mof_O 	O 	0.29119	0.02789	0.76593	-0.352
Mof_O 	O 	0.40418	0.60121	0.47623	-0.437
Mof_O 	O 	0.32965	0.71685	0.58645	-0.42
Mof_O 	O 	0.95717	0.1218	0.28386	-0.382
Mof_O 	O 	0.99834	0.99184	0.19208	-0.372
Mof_O 	O 	0.42237	0.63377	0.76469	-0.405
Mof_O 	O 	0.58501	0.47211	0.73407	-0.361
_end
