data_functionalizedCrystal
_audit_creation_method	'EQeq! by Chris Wilmer'
_symmetry_space_group_name_H-M	'P1'
_symmetry_Int_Tables_number	1
_symmetry_cell_setting	triclinic
loop_
_symmetry_equiv_pos_as_xyz
  x,y,z
_cell_length_a	16.247
_cell_length_b	25.7827
_cell_length_c	41.2282
_cell_angle_alpha	86.4408
_cell_angle_beta	78.6364
_cell_angle_gamma	71.6346
loop_
_atom_site_label
_atom_site_type_symbol
_atom_site_fract_x
_atom_site_fract_y
_atom_site_fract_z
_atom_site_charge
Mof_Yb	Yb	0.11968	0.25	0.26064	2.094
Mof_Yb	Yb	0.63032	0.25	0.23936	2.094
Mof_Yb	Yb	0.88032	0.75	0.73936	2.095
Mof_Yb	Yb	0.36968	0.75	0.76064	2.095
Mof_Yb	Yb	0.4097	0.1806	0.25	1.991
Mof_Yb	Yb	0.8403	0.3194	0.25	1.991
Mof_Yb	Yb	0.5903	0.8194	0.75	1.991
Mof_Yb	Yb	0.1597	0.6806	0.75	1.991
Mof_H 	H 	0.3751	0.2918	0.326	-0.016
Mof_H 	H 	0.3566	0.3446	0.372	0.112
Mof_H 	H 	0.1083	0.4258	0.361	0.122
Mof_H 	H 	0.1268	0.373	0.315	-0.023
Mof_H 	H 	0.2718	0.4094	0.4098	0.078
Mof_H 	H 	0.1014	0.4652	0.4148	0.047
Mof_H 	H 	0.039	0.572	0.5058	0.056
Mof_H 	H 	0.273	0.4238	0.46	0.076
Mof_H 	H 	0.1996	0.5156	0.5562	0.035
Mof_H 	H 	0.0515	0.5982	0.5534	0.097
Mof_H 	H 	0.2016	0.5416	0.608	0.126
Mof_H 	H 	0.1854	0.5754	0.6606	-0.033
Mof_H 	H 	0.9645	0.693	0.6468	-0.026
Mof_H 	H 	0.9807	0.6592	0.5942	0.118
Mof_H 	H 	0.1793	0.128	0.1752	-0.028
Mof_H 	H 	0.2304	0.0826	0.1248	0.118
Mof_H 	H 	0.4582	0.1174	0.1156	0.129
Mof_H 	H 	0.4071	0.1628	0.166	-0.051
Mof_H 	H 	0.3404	0.049	0.0774	0.083
Mof_H 	H 	0.4932	0.0744	0.065	0.038
Mof_H 	H 	0.4013	0.9774	0.044	0.064
Mof_H 	H 	0.9039	0.6142	0.4608	0.124
Mof_H 	H 	0.9349	0.5806	0.4916	0.121
Mof_H 	H 	0.9866	0.6192	0.473	0.114
Mof_H 	H 	0.6577	0.1188	0.978	0.119
Mof_H 	H 	0.6798	0.0554	0.9744	0.119
Mof_H 	H 	0.6052	0.0954	0.9578	0.113
Mof_H 	H 	0.3959	0.3826	0.5102	0.127
Mof_H 	H 	0.3213	0.3776	0.4928	0.116
Mof_H 	H 	0.3772	0.416	0.478	0.119
Mof_H 	H 	0.7989	0.2082	0.326	-0.016
Mof_H 	H 	0.7714	0.1554	0.372	0.112
Mof_H 	H 	0.0307	0.0742	0.361	0.122
Mof_H 	H 	0.0582	0.127	0.315	-0.023
Mof_H 	H 	0.8184	0.0906	0.4098	0.078
Mof_H 	H 	0.9838	0.0348	0.4148	0.047
Mof_H 	H 	0.9552	0.928	0.5058	0.055
Mof_H 	H 	0.767	0.0762	0.46	0.076
Mof_H 	H 	0.7442	0.9844	0.5562	0.035
Mof_H 	H 	0.8951	0.9018	0.5534	0.097
Mof_H 	H 	0.6904	0.9584	0.608	0.126
Mof_H 	H 	0.654	0.9246	0.6606	-0.033
Mof_H 	H 	0.8887	0.807	0.6468	-0.026
Mof_H 	H 	0.9251	0.8408	0.5942	0.118
Mof_H 	H 	0.1455	0.372	0.1752	-0.028
Mof_H 	H 	0.1448	0.4174	0.1248	0.118
Mof_H 	H 	0.9262	0.3826	0.1156	0.129
Mof_H 	H 	0.9269	0.3372	0.166	-0.051
Mof_H 	H 	0.0822	0.451	0.0774	0.083
Mof_H 	H 	0.9418	0.4256	0.065	0.039
Mof_H 	H 	0.0547	0.5226	0.044	0.064
Mof_H 	H 	0.1353	0.8858	0.4608	0.124
Mof_H 	H 	0.0735	0.9194	0.4916	0.121
Mof_H 	H 	0.0404	0.8808	0.473	0.114
Mof_H 	H 	0.8643	0.3812	0.978	0.119
Mof_H 	H 	0.8458	0.4446	0.9744	0.119
Mof_H 	H 	0.937	0.4046	0.9578	0.113
Mof_H 	H 	0.5939	0.1174	0.5102	0.127
Mof_H 	H 	0.6859	0.1224	0.4928	0.116
Mof_H 	H 	0.6448	0.084	0.478	0.119
Mof_H 	H 	0.3331	0.2918	0.174	-0.016
Mof_H 	H 	0.2988	0.3446	0.128	0.112
Mof_H 	H 	0.4659	0.4258	0.139	0.122
Mof_H 	H 	0.5002	0.373	0.185	-0.023
Mof_H 	H 	0.3188	0.4094	0.0902	0.078
Mof_H 	H 	0.4334	0.4652	0.0852	0.047
Mof_H 	H 	0.389	0.572	0.9942	0.056
Mof_H 	H 	0.3032	0.4238	0.04	0.076
Mof_H 	H 	0.2848	0.5156	0.9438	0.035
Mof_H 	H 	0.3503	0.5982	0.9466	0.097
Mof_H 	H 	0.2568	0.5416	0.892	0.126
Mof_H 	H 	0.2392	0.5754	0.8394	-0.033
Mof_H 	H 	0.3425	0.693	0.8532	-0.026
Mof_H 	H 	0.3601	0.6592	0.9058	0.118
Mof_H 	H 	0.6927	0.128	0.3248	-0.028
Mof_H 	H 	0.687	0.0826	0.3752	0.118
Mof_H 	H 	0.4244	0.1174	0.3844	0.129
Mof_H 	H 	0.4301	0.1628	0.334	-0.051
Mof_H 	H 	0.6106	0.049	0.4226	0.083
Mof_H 	H 	0.4324	0.0744	0.435	0.038
Mof_H 	H 	0.6213	0.9774	0.456	0.064
Mof_H 	H 	0.4819	0.6142	0.0392	0.124
Mof_H 	H 	0.4845	0.5806	0.0084	0.121
Mof_H 	H 	0.3942	0.6192	0.027	0.114
Mof_H 	H 	0.2235	0.1188	0.522	0.119
Mof_H 	H 	0.2648	0.0554	0.5256	0.119
Mof_H 	H 	0.2994	0.0954	0.5422	0.113
Mof_H 	H 	0.2215	0.3826	0.9898	0.127
Mof_H 	H 	0.3011	0.3776	0.0072	0.116
Mof_H 	H 	0.2068	0.416	0.022	0.119
Mof_H 	H 	0.9929	0.2082	0.174	-0.016
Mof_H 	H 	0.0732	0.1554	0.128	0.112
Mof_H 	H 	0.8951	0.0742	0.139	0.122
Mof_H 	H 	0.8148	0.127	0.185	-0.023
Mof_H 	H 	0.091	0.0906	0.0902	0.078
Mof_H 	H 	0.9814	0.0348	0.0852	0.047
Mof_H 	H 	0.1168	0.928	0.9942	0.056
Mof_H 	H 	0.1568	0.0762	0.04	0.076
Mof_H 	H 	0.2714	0.9844	0.9438	0.035
Mof_H 	H 	0.2031	0.9018	0.9466	0.097
Mof_H 	H 	0.3512	0.9584	0.892	0.126
Mof_H 	H 	0.4214	0.9246	0.8394	-0.033
Mof_H 	H 	0.3043	0.807	0.8532	-0.026
Mof_H 	H 	0.2341	0.8408	0.9058	0.118
Mof_H 	H 	0.4825	0.372	0.3248	-0.028
Mof_H 	H 	0.4378	0.4174	0.3752	0.118
Mof_H 	H 	0.6912	0.3826	0.3844	0.129
Mof_H 	H 	0.7359	0.3372	0.334	-0.051
Mof_H 	H 	0.4668	0.451	0.4226	0.083
Mof_H 	H 	0.6326	0.4256	0.435	0.038
Mof_H 	H 	0.4227	0.5226	0.456	0.064
Mof_H 	H 	0.9789	0.8858	0.0392	0.123
Mof_H 	H 	0.0071	0.9194	0.0084	0.121
Mof_H 	H 	0.0788	0.8808	0.027	0.114
Mof_H 	H 	0.7545	0.3812	0.522	0.119
Mof_H 	H 	0.7096	0.4446	0.5256	0.119
Mof_H 	H 	0.6584	0.4046	0.5422	0.113
Mof_H 	H 	0.2887	0.1174	0.9898	0.127
Mof_H 	H 	0.1917	0.1224	0.0072	0.116
Mof_H 	H 	0.2712	0.084	0.022	0.119
Mof_H 	H 	0.6249	0.7082	0.674	-0.016
Mof_H 	H 	0.6434	0.6554	0.628	0.112
Mof_H 	H 	0.8917	0.5742	0.639	0.122
Mof_H 	H 	0.8732	0.627	0.685	-0.023
Mof_H 	H 	0.7282	0.5906	0.5902	0.078
Mof_H 	H 	0.8986	0.5348	0.5852	0.047
Mof_H 	H 	0.961	0.428	0.4942	0.056
Mof_H 	H 	0.727	0.5762	0.54	0.076
Mof_H 	H 	0.8004	0.4844	0.4438	0.035
Mof_H 	H 	0.9485	0.4018	0.4466	0.097
Mof_H 	H 	0.7984	0.4584	0.392	0.126
Mof_H 	H 	0.8146	0.4246	0.3394	-0.033
Mof_H 	H 	0.0355	0.307	0.3532	-0.026
Mof_H 	H 	0.0193	0.3408	0.4058	0.118
Mof_H 	H 	0.8207	0.872	0.8248	-0.028
Mof_H 	H 	0.7696	0.9174	0.8752	0.118
Mof_H 	H 	0.5418	0.8826	0.8844	0.129
Mof_H 	H 	0.5929	0.8372	0.834	-0.051
Mof_H 	H 	0.6596	0.951	0.9226	0.083
Mof_H 	H 	0.5068	0.9256	0.935	0.038
Mof_H 	H 	0.5987	0.0226	0.956	0.064
Mof_H 	H 	0.0961	0.3858	0.5392	0.124
Mof_H 	H 	0.0651	0.4194	0.5084	0.121
Mof_H 	H 	0.0134	0.3808	0.527	0.114
Mof_H 	H 	0.3423	0.8812	0.022	0.119
Mof_H 	H 	0.3202	0.9446	0.0256	0.119
Mof_H 	H 	0.3948	0.9046	0.0422	0.113
Mof_H 	H 	0.6041	0.6174	0.4898	0.127
Mof_H 	H 	0.6787	0.6224	0.5072	0.116
Mof_H 	H 	0.6228	0.584	0.522	0.119
Mof_H 	H 	0.2011	0.7918	0.674	-0.016
Mof_H 	H 	0.2286	0.8446	0.628	0.112
Mof_H 	H 	0.9693	0.9258	0.639	0.122
Mof_H 	H 	0.9418	0.873	0.685	-0.023
Mof_H 	H 	0.1816	0.9094	0.5902	0.078
Mof_H 	H 	0.0162	0.9652	0.5852	0.047
Mof_H 	H 	0.0448	0.072	0.4942	0.055
Mof_H 	H 	0.233	0.9238	0.54	0.076
Mof_H 	H 	0.2558	0.0156	0.4438	0.035
Mof_H 	H 	0.1049	0.0982	0.4466	0.097
Mof_H 	H 	0.3096	0.0416	0.392	0.126
Mof_H 	H 	0.346	0.0754	0.3394	-0.033
Mof_H 	H 	0.1113	0.193	0.3532	-0.026
Mof_H 	H 	0.0749	0.1592	0.4058	0.118
Mof_H 	H 	0.8545	0.628	0.8248	-0.028
Mof_H 	H 	0.8552	0.5826	0.8752	0.118
Mof_H 	H 	0.0738	0.6174	0.8844	0.129
Mof_H 	H 	0.0731	0.6628	0.834	-0.051
Mof_H 	H 	0.9178	0.549	0.9226	0.083
Mof_H 	H 	0.0582	0.5744	0.935	0.039
Mof_H 	H 	0.9453	0.4774	0.956	0.064
Mof_H 	H 	0.8647	0.1142	0.5392	0.124
Mof_H 	H 	0.9265	0.0806	0.5084	0.121
Mof_H 	H 	0.9596	0.1192	0.527	0.114
Mof_H 	H 	0.1357	0.6188	0.022	0.119
Mof_H 	H 	0.1542	0.5554	0.0256	0.119
Mof_H 	H 	0.063	0.5954	0.0422	0.113
Mof_H 	H 	0.4061	0.8826	0.4898	0.127
Mof_H 	H 	0.3141	0.8776	0.5072	0.116
Mof_H 	H 	0.3552	0.916	0.522	0.119
Mof_H 	H 	0.6669	0.7082	0.826	-0.016
Mof_H 	H 	0.7012	0.6554	0.872	0.112
Mof_H 	H 	0.5341	0.5742	0.861	0.122
Mof_H 	H 	0.4998	0.627	0.815	-0.023
Mof_H 	H 	0.6812	0.5906	0.9098	0.078
Mof_H 	H 	0.5666	0.5348	0.9148	0.047
Mof_H 	H 	0.611	0.428	0.0058	0.056
Mof_H 	H 	0.6968	0.5762	0.96	0.076
Mof_H 	H 	0.7152	0.4844	0.0562	0.035
Mof_H 	H 	0.6497	0.4018	0.0534	0.097
Mof_H 	H 	0.7432	0.4584	0.108	0.126
Mof_H 	H 	0.7608	0.4246	0.1606	-0.033
Mof_H 	H 	0.6575	0.307	0.1468	-0.026
Mof_H 	H 	0.6399	0.3408	0.0942	0.118
Mof_H 	H 	0.3073	0.872	0.6752	-0.028
Mof_H 	H 	0.313	0.9174	0.6248	0.118
Mof_H 	H 	0.5756	0.8826	0.6156	0.129
Mof_H 	H 	0.5699	0.8372	0.666	-0.051
Mof_H 	H 	0.3894	0.951	0.5774	0.083
Mof_H 	H 	0.5676	0.9256	0.565	0.038
Mof_H 	H 	0.3787	0.0226	0.544	0.064
Mof_H 	H 	0.5181	0.3858	0.9608	0.124
Mof_H 	H 	0.5155	0.4194	0.9916	0.121
Mof_H 	H 	0.6058	0.3808	0.973	0.114
Mof_H 	H 	0.7765	0.8812	0.478	0.119
Mof_H 	H 	0.7352	0.9446	0.4744	0.119
Mof_H 	H 	0.7006	0.9046	0.4578	0.113
Mof_H 	H 	0.7785	0.6174	0.0102	0.127
Mof_H 	H 	0.6989	0.6224	0.9928	0.116
Mof_H 	H 	0.7932	0.584	0.978	0.119
Mof_H 	H 	0.0071	0.7918	0.826	-0.016
Mof_H 	H 	0.9268	0.8446	0.872	0.112
Mof_H 	H 	0.1049	0.9258	0.861	0.122
Mof_H 	H 	0.1852	0.873	0.815	-0.023
Mof_H 	H 	0.909	0.9094	0.9098	0.078
Mof_H 	H 	0.0186	0.9652	0.9148	0.047
Mof_H 	H 	0.8832	0.072	0.0058	0.056
Mof_H 	H 	0.8432	0.9238	0.96	0.076
Mof_H 	H 	0.7286	0.0156	0.0562	0.035
Mof_H 	H 	0.7969	0.0982	0.0534	0.097
Mof_H 	H 	0.6488	0.0416	0.108	0.126
Mof_H 	H 	0.5786	0.0754	0.1606	-0.033
Mof_H 	H 	0.6957	0.193	0.1468	-0.026
Mof_H 	H 	0.7659	0.1592	0.0942	0.118
Mof_H 	H 	0.5175	0.628	0.6752	-0.028
Mof_H 	H 	0.5622	0.5826	0.6248	0.118
Mof_H 	H 	0.3088	0.6174	0.6156	0.129
Mof_H 	H 	0.2641	0.6628	0.666	-0.051
Mof_H 	H 	0.5332	0.549	0.5774	0.083
Mof_H 	H 	0.3674	0.5744	0.565	0.038
Mof_H 	H 	0.5773	0.4774	0.544	0.064
Mof_H 	H 	0.0211	0.1142	0.9608	0.123
Mof_H 	H 	0.9929	0.0806	0.9916	0.121
Mof_H 	H 	0.9212	0.1192	0.973	0.114
Mof_H 	H 	0.2455	0.6188	0.478	0.119
Mof_H 	H 	0.2904	0.5554	0.4744	0.119
Mof_H 	H 	0.3416	0.5954	0.4578	0.113
Mof_H 	H 	0.7113	0.8826	0.0102	0.127
Mof_H 	H 	0.8083	0.8776	0.9928	0.116
Mof_H 	H 	0.7288	0.916	0.978	0.119
Mof_C 	C 	0.26573	0.2892	0.28874	0.578
Mof_C 	C 	0.25273	0.32722	0.31592	-0.272
Mof_C 	C 	0.32164	0.31872	0.333	0.175
Mof_C 	C 	0.31053	0.35036	0.36058	-0.243
Mof_C 	C 	0.23062	0.3905	0.37106	0.186
Mof_C 	C 	0.1617	0.399	0.354	-0.246
Mof_C 	C 	0.1728	0.36738	0.32642	0.181
Mof_C 	C 	0.21923	0.4188	0.40194	-0.16
Mof_C 	C 	0.1556	0.4538	0.4216	-0.006
Mof_C 	C 	0.15699	0.4772	0.45242	0.008
Mof_C 	C 	0.08694	0.5216	0.46612	0.079
Mof_C 	C 	0.08596	0.5423	0.49658	-0.083
Mof_C 	C 	0.15504	0.5186	0.51332	-0.043
Mof_C 	C 	0.22519	0.4742	0.49962	0.153
Mof_C 	C 	0.22617	0.4535	0.46916	-0.153
Mof_C 	C 	0.15342	0.5366	0.54616	0.052
Mof_C 	C 	0.09727	0.5776	0.56386	-0.201
Mof_C 	C 	0.09272	0.59702	0.59594	0.217
Mof_C 	C 	0.15415	0.5719	0.6158	-0.266
Mof_C 	C 	0.14439	0.59218	0.64724	0.183
Mof_C 	C 	0.07339	0.63758	0.65884	-0.27
Mof_C 	C 	0.01195	0.6627	0.639	0.179
Mof_C 	C 	0.02172	0.64242	0.60754	-0.262
Mof_C 	C 	0.0543	0.662	0.6928	0.571
Mof_C 	C 	0.25148	0.1778	0.20704	0.645
Mof_C 	C 	0.28818	0.14986	0.17558	-0.34
Mof_C 	C 	0.2353	0.1258	0.1632	0.207
Mof_C 	C 	0.26588	0.09862	0.13302	-0.269
Mof_C 	C 	0.34945	0.0955	0.1152	0.199
Mof_C 	C 	0.40233	0.11954	0.1276	-0.274
Mof_C 	C 	0.37175	0.14672	0.15778	0.221
Mof_C 	C 	0.37934	0.0656	0.08252	-0.17
Mof_C 	C 	0.45148	0.0596	0.06044	0.013
Mof_C 	C 	0.47148	0.0304	0.02864	-0.01
Mof_C 	C 	0.43982	0.9866	0.02636	-0.105
Mof_C 	C 	0.53237	0.0426	0.00306	0.1
Mof_C 	C 	0.9543	0.5948	0.4704	-0.281
Mof_C 	C 	0.6333	0.0898	0.9766	-0.273
Mof_C 	C 	0.3508	0.402	0.498	-0.291
Mof_C 	C 	0.94553	0.2108	0.28874	0.578
Mof_C 	C 	0.93135	0.17278	0.31592	-0.272
Mof_C 	C 	0.84536	0.18128	0.333	0.175
Mof_C 	C 	0.82889	0.14964	0.36058	-0.243
Mof_C 	C 	0.89832	0.1095	0.37106	0.185
Mof_C 	C 	0.9843	0.101	0.354	-0.247
Mof_C 	C 	0.00078	0.13262	0.32642	0.181
Mof_C 	C 	0.87883	0.0812	0.40194	-0.16
Mof_C 	C 	0.9228	0.0462	0.4216	-0.007
Mof_C 	C 	0.89059	0.0228	0.45242	0.009
Mof_C 	C 	0.94694	0.9784	0.46612	0.079
Mof_C 	C 	0.91746	0.9577	0.49658	-0.082
Mof_C 	C 	0.83164	0.9814	0.51332	-0.043
Mof_C 	C 	0.77519	0.0258	0.49962	0.153
Mof_C 	C 	0.80467	0.0465	0.46916	-0.154
Mof_C 	C 	0.80042	0.9634	0.54616	0.053
Mof_C 	C 	0.83887	0.9224	0.56386	-0.201
Mof_C 	C 	0.81134	0.90298	0.59594	0.217
Mof_C 	C 	0.73005	0.9281	0.6158	-0.266
Mof_C 	C 	0.70837	0.90782	0.64724	0.183
Mof_C 	C 	0.76777	0.86242	0.65884	-0.27
Mof_C 	C 	0.84905	0.8373	0.639	0.18
Mof_C 	C 	0.87074	0.85758	0.60754	-0.262
Mof_C 	C 	0.7529	0.838	0.6928	0.571
Mof_C 	C 	0.04148	0.3222	0.20704	0.646
Mof_C 	C 	0.03624	0.35014	0.17558	-0.34
Mof_C 	C 	0.1015	0.3742	0.1632	0.207
Mof_C 	C 	0.1011	0.40138	0.13302	-0.269
Mof_C 	C 	0.03535	0.4045	0.1152	0.199
Mof_C 	C 	0.97007	0.38046	0.1276	-0.274
Mof_C 	C 	0.97047	0.35328	0.15778	0.22
Mof_C 	C 	0.03814	0.4344	0.08252	-0.17
Mof_C 	C 	0.98808	0.4404	0.06044	0.013
Mof_C 	C 	0.99988	0.4696	0.02864	-0.01
Mof_C 	C 	0.03382	0.5134	0.02636	-0.105
Mof_C 	C 	0.96457	0.4574	0.00306	0.1
Mof_C 	C 	0.0753	0.9052	0.4704	-0.281
Mof_C 	C 	0.8901	0.4102	0.9766	-0.272
Mof_C 	C 	0.6512	0.098	0.498	-0.291
Mof_C 	C 	0.44507	0.2892	0.21126	0.578
Mof_C 	C 	0.42005	0.32722	0.18408	-0.272
Mof_C 	C 	0.35964	0.31872	0.167	0.175
Mof_C 	C 	0.33911	0.35036	0.13942	-0.243
Mof_C 	C 	0.37888	0.3905	0.12894	0.185
Mof_C 	C 	0.4393	0.399	0.146	-0.246
Mof_C 	C 	0.45982	0.36738	0.17358	0.181
Mof_C 	C 	0.36197	0.4188	0.09806	-0.16
Mof_C 	C 	0.3906	0.4538	0.0784	-0.006
Mof_C 	C 	0.36581	0.4772	0.04758	0.008
Mof_C 	C 	0.39146	0.5216	0.03388	0.079
Mof_C 	C 	0.37174	0.5423	0.00342	-0.083
Mof_C 	C 	0.32636	0.5186	0.98668	-0.043
Mof_C 	C 	0.30061	0.4742	0.00038	0.153
Mof_C 	C 	0.32033	0.4535	0.03084	-0.153
Mof_C 	C 	0.30998	0.5366	0.95384	0.053
Mof_C 	C 	0.32513	0.5776	0.93614	-0.201
Mof_C 	C 	0.31026	0.59702	0.90406	0.217
Mof_C 	C 	0.27395	0.5719	0.8842	-0.266
Mof_C 	C 	0.26343	0.59218	0.85276	0.183
Mof_C 	C 	0.28903	0.63758	0.84116	-0.27
Mof_C 	C 	0.32535	0.6627	0.861	0.18
Mof_C 	C 	0.33586	0.64242	0.89246	-0.262
Mof_C 	C 	0.2837	0.662	0.8072	0.571
Mof_C 	C 	0.57072	0.1778	0.29296	0.645
Mof_C 	C 	0.56196	0.14986	0.32442	-0.34
Mof_C 	C 	0.6389	0.1258	0.3368	0.207
Mof_C 	C 	0.6355	0.09862	0.36698	-0.269
Mof_C 	C 	0.55505	0.0955	0.3848	0.199
Mof_C 	C 	0.47813	0.11954	0.3724	-0.274
Mof_C 	C 	0.48153	0.14672	0.34222	0.221
Mof_C 	C 	0.55506	0.0656	0.41748	-0.17
Mof_C 	C 	0.48892	0.0596	0.43956	0.013
Mof_C 	C 	0.49812	0.0304	0.47136	-0.01
Mof_C 	C 	0.57358	0.9866	0.47364	-0.105
Mof_C 	C 	0.42503	0.0426	0.49694	0.1
Mof_C 	C 	0.4509	0.5948	0.0296	-0.281
Mof_C 	C 	0.2769	0.0898	0.5234	-0.272
Mof_C 	C 	0.2472	0.402	0.002	-0.291
Mof_C 	C 	0.84367	0.2108	0.21126	0.578
Mof_C 	C 	0.89587	0.17278	0.18408	-0.272
Mof_C 	C 	0.97336	0.18128	0.167	0.175
Mof_C 	C 	0.02147	0.14964	0.13942	-0.243
Mof_C 	C 	0.99218	0.1095	0.12894	0.185
Mof_C 	C 	0.9147	0.101	0.146	-0.246
Mof_C 	C 	0.8666	0.13262	0.17358	0.181
Mof_C 	C 	0.03997	0.0812	0.09806	-0.16
Mof_C 	C 	0.031	0.0462	0.0784	-0.007
Mof_C 	C 	0.08661	0.0228	0.04758	0.008
Mof_C 	C 	0.07466	0.9784	0.03388	0.08
Mof_C 	C 	0.12484	0.9577	0.00342	-0.083
Mof_C 	C 	0.18696	0.9814	0.98668	-0.043
Mof_C 	C 	0.19901	0.0258	0.00038	0.153
Mof_C 	C 	0.14883	0.0465	0.03084	-0.153
Mof_C 	C 	0.23618	0.9634	0.95384	0.052
Mof_C 	C 	0.23873	0.9224	0.93614	-0.201
Mof_C 	C 	0.28568	0.90298	0.90406	0.217
Mof_C 	C 	0.34185	0.9281	0.8842	-0.266
Mof_C 	C 	0.38381	0.90782	0.85276	0.183
Mof_C 	C 	0.36981	0.86242	0.84116	-0.27
Mof_C 	C 	0.31365	0.8373	0.861	0.18
Mof_C 	C 	0.27168	0.85758	0.89246	-0.262
Mof_C 	C 	0.4091	0.838	0.8072	0.571
Mof_C 	C 	0.63632	0.3222	0.29296	0.645
Mof_C 	C 	0.61362	0.35014	0.32442	-0.34
Mof_C 	C 	0.5243	0.3742	0.3368	0.207
Mof_C 	C 	0.49752	0.40138	0.36698	-0.269
Mof_C 	C 	0.56015	0.4045	0.3848	0.199
Mof_C 	C 	0.64947	0.38046	0.3724	-0.274
Mof_C 	C 	0.67625	0.35328	0.34222	0.221
Mof_C 	C 	0.52746	0.4344	0.41748	-0.17
Mof_C 	C 	0.57152	0.4404	0.43956	0.013
Mof_C 	C 	0.53052	0.4696	0.47136	-0.01
Mof_C 	C 	0.45278	0.5134	0.47364	-0.105
Mof_C 	C 	0.57803	0.4574	0.49694	0.1
Mof_C 	C 	0.0195	0.9052	0.0296	-0.28
Mof_C 	C 	0.6997	0.4102	0.5234	-0.272
Mof_C 	C 	0.2508	0.098	0.002	-0.291
Mof_C 	C 	0.73427	0.7108	0.71126	0.578
Mof_C 	C 	0.74727	0.67278	0.68408	-0.272
Mof_C 	C 	0.67836	0.68128	0.667	0.175
Mof_C 	C 	0.68947	0.64964	0.63942	-0.243
Mof_C 	C 	0.76938	0.6095	0.62894	0.186
Mof_C 	C 	0.8383	0.601	0.646	-0.246
Mof_C 	C 	0.8272	0.63262	0.67358	0.181
Mof_C 	C 	0.78077	0.5812	0.59806	-0.16
Mof_C 	C 	0.8444	0.5462	0.5784	-0.006
Mof_C 	C 	0.84301	0.5228	0.54758	0.008
Mof_C 	C 	0.91306	0.4784	0.53388	0.079
Mof_C 	C 	0.91404	0.4577	0.50342	-0.083
Mof_C 	C 	0.84496	0.4814	0.48668	-0.043
Mof_C 	C 	0.77481	0.5258	0.50038	0.153
Mof_C 	C 	0.77383	0.5465	0.53084	-0.153
Mof_C 	C 	0.84658	0.4634	0.45384	0.052
Mof_C 	C 	0.90273	0.4224	0.43614	-0.201
Mof_C 	C 	0.90728	0.40298	0.40406	0.217
Mof_C 	C 	0.84585	0.4281	0.3842	-0.266
Mof_C 	C 	0.85561	0.40782	0.35276	0.183
Mof_C 	C 	0.92661	0.36242	0.34116	-0.27
Mof_C 	C 	0.98805	0.3373	0.361	0.179
Mof_C 	C 	0.97828	0.35758	0.39246	-0.262
Mof_C 	C 	0.9457	0.338	0.3072	0.571
Mof_C 	C 	0.74852	0.8222	0.79296	0.645
Mof_C 	C 	0.71182	0.85014	0.82442	-0.34
Mof_C 	C 	0.7647	0.8742	0.8368	0.207
Mof_C 	C 	0.73412	0.90138	0.86698	-0.269
Mof_C 	C 	0.65055	0.9045	0.8848	0.199
Mof_C 	C 	0.59767	0.88046	0.8724	-0.274
Mof_C 	C 	0.62825	0.85328	0.84222	0.221
Mof_C 	C 	0.62066	0.9344	0.91748	-0.17
Mof_C 	C 	0.54852	0.9404	0.93956	0.013
Mof_C 	C 	0.52852	0.9696	0.97136	-0.01
Mof_C 	C 	0.56018	0.0134	0.97364	-0.105
Mof_C 	C 	0.46763	0.9574	0.99694	0.1
Mof_C 	C 	0.0457	0.4052	0.5296	-0.281
Mof_C 	C 	0.3667	0.9102	0.0234	-0.273
Mof_C 	C 	0.6492	0.598	0.502	-0.291
Mof_C 	C 	0.05447	0.7892	0.71126	0.578
Mof_C 	C 	0.06865	0.82722	0.68408	-0.272
Mof_C 	C 	0.15464	0.81872	0.667	0.175
Mof_C 	C 	0.17111	0.85036	0.63942	-0.243
Mof_C 	C 	0.10168	0.8905	0.62894	0.185
Mof_C 	C 	0.0157	0.899	0.646	-0.247
Mof_C 	C 	0.99922	0.86738	0.67358	0.181
Mof_C 	C 	0.12117	0.9188	0.59806	-0.16
Mof_C 	C 	0.0772	0.9538	0.5784	-0.007
Mof_C 	C 	0.10941	0.9772	0.54758	0.009
Mof_C 	C 	0.05306	0.0216	0.53388	0.079
Mof_C 	C 	0.08254	0.0423	0.50342	-0.082
Mof_C 	C 	0.16836	0.0186	0.48668	-0.043
Mof_C 	C 	0.22481	0.9742	0.50038	0.153
Mof_C 	C 	0.19533	0.9535	0.53084	-0.154
Mof_C 	C 	0.19958	0.0366	0.45384	0.053
Mof_C 	C 	0.16113	0.0776	0.43614	-0.201
Mof_C 	C 	0.18866	0.09702	0.40406	0.217
Mof_C 	C 	0.26995	0.0719	0.3842	-0.266
Mof_C 	C 	0.29163	0.09218	0.35276	0.183
Mof_C 	C 	0.23223	0.13758	0.34116	-0.27
Mof_C 	C 	0.15095	0.1627	0.361	0.18
Mof_C 	C 	0.12926	0.14242	0.39246	-0.262
Mof_C 	C 	0.2471	0.162	0.3072	0.571
Mof_C 	C 	0.95852	0.6778	0.79296	0.646
Mof_C 	C 	0.96376	0.64986	0.82442	-0.34
Mof_C 	C 	0.8985	0.6258	0.8368	0.207
Mof_C 	C 	0.8989	0.59862	0.86698	-0.269
Mof_C 	C 	0.96465	0.5955	0.8848	0.199
Mof_C 	C 	0.02993	0.61954	0.8724	-0.274
Mof_C 	C 	0.02953	0.64672	0.84222	0.22
Mof_C 	C 	0.96186	0.5656	0.91748	-0.17
Mof_C 	C 	0.01192	0.5596	0.93956	0.013
Mof_C 	C 	0.00012	0.5304	0.97136	-0.01
Mof_C 	C 	0.96618	0.4866	0.97364	-0.105
Mof_C 	C 	0.03543	0.5426	0.99694	0.1
Mof_C 	C 	0.9247	0.0948	0.5296	-0.281
Mof_C 	C 	0.1099	0.5898	0.0234	-0.272
Mof_C 	C 	0.3488	0.902	0.502	-0.291
Mof_C 	C 	0.55493	0.7108	0.78874	0.578
Mof_C 	C 	0.57995	0.67278	0.81592	-0.272
Mof_C 	C 	0.64036	0.68128	0.833	0.175
Mof_C 	C 	0.66089	0.64964	0.86058	-0.243
Mof_C 	C 	0.62112	0.6095	0.87106	0.185
Mof_C 	C 	0.5607	0.601	0.854	-0.246
Mof_C 	C 	0.54018	0.63262	0.82642	0.181
Mof_C 	C 	0.63803	0.5812	0.90194	-0.16
Mof_C 	C 	0.6094	0.5462	0.9216	-0.006
Mof_C 	C 	0.63419	0.5228	0.95242	0.008
Mof_C 	C 	0.60854	0.4784	0.96612	0.079
Mof_C 	C 	0.62826	0.4577	0.99658	-0.083
Mof_C 	C 	0.67364	0.4814	0.01332	-0.043
Mof_C 	C 	0.69939	0.5258	0.99962	0.153
Mof_C 	C 	0.67967	0.5465	0.96916	-0.153
Mof_C 	C 	0.69002	0.4634	0.04616	0.053
Mof_C 	C 	0.67487	0.4224	0.06386	-0.201
Mof_C 	C 	0.68974	0.40298	0.09594	0.217
Mof_C 	C 	0.72605	0.4281	0.1158	-0.266
Mof_C 	C 	0.73657	0.40782	0.14724	0.183
Mof_C 	C 	0.71097	0.36242	0.15884	-0.27
Mof_C 	C 	0.67465	0.3373	0.139	0.18
Mof_C 	C 	0.66414	0.35758	0.10754	-0.262
Mof_C 	C 	0.7163	0.338	0.1928	0.571
Mof_C 	C 	0.42928	0.8222	0.70704	0.645
Mof_C 	C 	0.43804	0.85014	0.67558	-0.34
Mof_C 	C 	0.3611	0.8742	0.6632	0.207
Mof_C 	C 	0.3645	0.90138	0.63302	-0.269
Mof_C 	C 	0.44495	0.9045	0.6152	0.199
Mof_C 	C 	0.52187	0.88046	0.6276	-0.274
Mof_C 	C 	0.51847	0.85328	0.65778	0.221
Mof_C 	C 	0.44494	0.9344	0.58252	-0.17
Mof_C 	C 	0.51108	0.9404	0.56044	0.013
Mof_C 	C 	0.50188	0.9696	0.52864	-0.01
Mof_C 	C 	0.42642	0.0134	0.52636	-0.105
Mof_C 	C 	0.57497	0.9574	0.50306	0.1
Mof_C 	C 	0.5491	0.4052	0.9704	-0.281
Mof_C 	C 	0.7231	0.9102	0.4766	-0.272
Mof_C 	C 	0.7528	0.598	0.998	-0.291
Mof_C 	C 	0.15633	0.7892	0.78874	0.578
Mof_C 	C 	0.10413	0.82722	0.81592	-0.272
Mof_C 	C 	0.02664	0.81872	0.833	0.175
Mof_C 	C 	0.97853	0.85036	0.86058	-0.243
Mof_C 	C 	0.00782	0.8905	0.87106	0.185
Mof_C 	C 	0.0853	0.899	0.854	-0.246
Mof_C 	C 	0.1334	0.86738	0.82642	0.181
Mof_C 	C 	0.96003	0.9188	0.90194	-0.16
Mof_C 	C 	0.969	0.9538	0.9216	-0.007
Mof_C 	C 	0.91339	0.9772	0.95242	0.008
Mof_C 	C 	0.92534	0.0216	0.96612	0.08
Mof_C 	C 	0.87516	0.0423	0.99658	-0.083
Mof_C 	C 	0.81304	0.0186	0.01332	-0.043
Mof_C 	C 	0.80099	0.9742	0.99962	0.153
Mof_C 	C 	0.85117	0.9535	0.96916	-0.153
Mof_C 	C 	0.76382	0.0366	0.04616	0.052
Mof_C 	C 	0.76127	0.0776	0.06386	-0.201
Mof_C 	C 	0.71432	0.09702	0.09594	0.217
Mof_C 	C 	0.65815	0.0719	0.1158	-0.266
Mof_C 	C 	0.61619	0.09218	0.14724	0.183
Mof_C 	C 	0.63019	0.13758	0.15884	-0.27
Mof_C 	C 	0.68635	0.1627	0.139	0.18
Mof_C 	C 	0.72832	0.14242	0.10754	-0.262
Mof_C 	C 	0.5909	0.162	0.1928	0.571
Mof_C 	C 	0.36368	0.6778	0.70704	0.645
Mof_C 	C 	0.38638	0.64986	0.67558	-0.34
Mof_C 	C 	0.4757	0.6258	0.6632	0.207
Mof_C 	C 	0.50248	0.59862	0.63302	-0.269
Mof_C 	C 	0.43985	0.5955	0.6152	0.199
Mof_C 	C 	0.35053	0.61954	0.6276	-0.274
Mof_C 	C 	0.32375	0.64672	0.65778	0.221
Mof_C 	C 	0.47254	0.5656	0.58252	-0.17
Mof_C 	C 	0.42848	0.5596	0.56044	0.013
Mof_C 	C 	0.46948	0.5304	0.52864	-0.01
Mof_C 	C 	0.54722	0.4866	0.52636	-0.105
Mof_C 	C 	0.42197	0.5426	0.50306	0.1
Mof_C 	C 	0.9805	0.0948	0.9704	-0.28
Mof_C 	C 	0.3003	0.5898	0.4766	-0.272
Mof_C 	C 	0.7492	0.902	0.998	-0.291
Mof_O 	O 	0.33555	0.25086	0.28284	-0.556
Mof_O 	O 	0.20487	0.29654	0.27292	-0.554
Mof_O 	O 	0.11661	0.6471	0.70888	-0.564
Mof_O 	O 	0.9805	0.69498	0.70282	-0.593
Mof_O 	O 	0.01561	0.5464	0.44698	-0.15
Mof_O 	O 	0.27888	0.4528	0.52044	-0.181
Mof_O 	O 	0.1722	0.19086	0.21754	-0.573
Mof_O 	O 	0.29699	0.18874	0.22328	-0.643
Mof_O 	O 	0.56473	0.089	0.00834	-0.153
Mof_O 	O 	0.88161	0.24914	0.28284	-0.556
Mof_O 	O 	0.02221	0.20346	0.27292	-0.554
Mof_O 	O 	0.67451	0.8529	0.70888	-0.564
Mof_O 	O 	0.81668	0.80502	0.70282	-0.593
Mof_O 	O 	0.03741	0.9536	0.44698	-0.149
Mof_O 	O 	0.70068	0.0472	0.52044	-0.181
Mof_O 	O 	0.11026	0.30914	0.21754	-0.573
Mof_O 	O 	0.97973	0.31126	0.22328	-0.643
Mof_O 	O 	0.92693	0.411	0.00834	-0.153
Mof_O 	O 	0.41359	0.25086	0.21716	-0.556
Mof_O 	O 	0.49859	0.29654	0.22708	-0.554
Mof_O 	O 	0.23629	0.6471	0.79112	-0.564
Mof_O 	O 	0.32452	0.69498	0.79718	-0.593
Mof_O 	O 	0.43799	0.5464	0.05302	-0.15
Mof_O 	O 	0.26832	0.4528	0.97956	-0.181
Mof_O 	O 	0.63694	0.19086	0.28246	-0.573
Mof_O 	O 	0.51427	0.18874	0.27672	-0.643
Mof_O 	O 	0.34627	0.089	0.49166	-0.153
Mof_O 	O 	0.86925	0.24914	0.21716	-0.556
Mof_O 	O 	0.77433	0.20346	0.22708	-0.554
Mof_O 	O 	0.47259	0.8529	0.79112	-0.564
Mof_O 	O 	0.3783	0.80502	0.79718	-0.593
Mof_O 	O 	0.00899	0.9536	0.05302	-0.15
Mof_O 	O 	0.25212	0.0472	0.97956	-0.181
Mof_O 	O 	0.5806	0.30914	0.28246	-0.573
Mof_O 	O 	0.70901	0.31126	0.27672	-0.643
Mof_O 	O 	0.66207	0.411	0.49166	-0.153
Mof_O 	O 	0.66445	0.74914	0.71716	-0.556
Mof_O 	O 	0.79513	0.70346	0.72708	-0.554
Mof_O 	O 	0.88339	0.3529	0.29112	-0.564
Mof_O 	O 	0.0195	0.30502	0.29718	-0.593
Mof_O 	O 	0.98439	0.4536	0.55302	-0.15
Mof_O 	O 	0.72112	0.5472	0.47956	-0.181
Mof_O 	O 	0.8278	0.80914	0.78246	-0.573
Mof_O 	O 	0.70301	0.81126	0.77672	-0.643
Mof_O 	O 	0.43527	0.911	0.99166	-0.153
Mof_O 	O 	0.11839	0.75086	0.71716	-0.556
Mof_O 	O 	0.97779	0.79654	0.72708	-0.554
Mof_O 	O 	0.32549	0.1471	0.29112	-0.564
Mof_O 	O 	0.18332	0.19498	0.29718	-0.593
Mof_O 	O 	0.96259	0.0464	0.55302	-0.149
Mof_O 	O 	0.29932	0.9528	0.47956	-0.181
Mof_O 	O 	0.88974	0.69086	0.78246	-0.573
Mof_O 	O 	0.02027	0.68874	0.77672	-0.643
Mof_O 	O 	0.07307	0.589	0.99166	-0.153
Mof_O 	O 	0.58641	0.74914	0.78284	-0.556
Mof_O 	O 	0.50141	0.70346	0.77292	-0.554
Mof_O 	O 	0.76371	0.3529	0.20888	-0.564
Mof_O 	O 	0.67548	0.30502	0.20282	-0.593
Mof_O 	O 	0.56201	0.4536	0.94698	-0.15
Mof_O 	O 	0.73168	0.5472	0.02044	-0.181
Mof_O 	O 	0.36306	0.80914	0.71754	-0.573
Mof_O 	O 	0.48573	0.81126	0.72328	-0.643
Mof_O 	O 	0.65373	0.911	0.50834	-0.153
Mof_O 	O 	0.13075	0.75086	0.78284	-0.556
Mof_O 	O 	0.22567	0.79654	0.77292	-0.554
Mof_O 	O 	0.52741	0.1471	0.20888	-0.564
Mof_O 	O 	0.6217	0.19498	0.20282	-0.593
Mof_O 	O 	0.99101	0.0464	0.94698	-0.15
Mof_O 	O 	0.74788	0.9528	0.02044	-0.181
Mof_O 	O 	0.4194	0.69086	0.71754	-0.573
Mof_O 	O 	0.29099	0.68874	0.72328	-0.643
Mof_O 	O 	0.33793	0.589	0.50834	-0.153
_end
