data_functionalizedCrystal
_audit_creation_method	'EQeq! by Chris Wilmer'
_symmetry_space_group_name_H-M	'P1'
_symmetry_Int_Tables_number	1
_symmetry_cell_setting	triclinic
loop_
_symmetry_equiv_pos_as_xyz
  x,y,z
_cell_length_a	7.673
_cell_length_b	9.661
_cell_length_c	10.533
_cell_angle_alpha	106.54
_cell_angle_beta	105.28
_cell_angle_gamma	100.62
loop_
_atom_site_label
_atom_site_type_symbol
_atom_site_fract_x
_atom_site_fract_y
_atom_site_fract_z
_atom_site_charge
Mof_Tb	Tb	0.75327	0.96764	0.54887	2.132
Mof_Tb	Tb	0.24673	0.03236	0.45113	2.132
Mof_H 	H 	0.453	0.375	0.3445	0.182
Mof_H 	H 	0.4628	0.1982	0.9505	0.169
Mof_H 	H 	0.1841	0.5102	0.0366	0.176
Mof_H 	H 	0.1519	0.6019	0.2642	0.188
Mof_H 	H 	0.2249	0.5277	0.3787	0.175
Mof_H 	H 	0.6326	0.1238	0.1204	0.192
Mof_H 	H 	0.7359	0.2626	0.2643	0.182
Mof_H 	H 	0.2291	0.4322	0.8097	0.18
Mof_H 	H 	0.362	0.3251	0.7838	0.189
Mof_H 	H 	0.547	0.625	0.6555	0.181
Mof_H 	H 	0.5372	0.8018	0.0495	0.168
Mof_H 	H 	0.8159	0.4898	0.9634	0.176
Mof_H 	H 	0.8481	0.3981	0.7358	0.188
Mof_H 	H 	0.7751	0.4723	0.6213	0.175
Mof_H 	H 	0.3674	0.8762	0.8796	0.192
Mof_H 	H 	0.2641	0.7374	0.7357	0.182
Mof_H 	H 	0.7709	0.5678	0.1903	0.18
Mof_H 	H 	0.638	0.6749	0.2162	0.189
Mof_C 	C 	0.3091	0.4589	0.206	0.403
Mof_C 	C 	0.4189	0.3699	0.2494	-0.453
Mof_C 	C 	0.4786	0.2739	0.1551	0.415
Mof_C 	C 	0.4238	0.2646	0.0158	-0.454
Mof_C 	C 	0.3114	0.352	0.97	0.41
Mof_C 	C 	0.2577	0.449	0.0663	-0.462
Mof_C 	C 	0.261	0.5733	0.313	-0.589
Mof_C 	C 	0.4261	0.713	0.3954	0.554
Mof_C 	C 	0.6131	0.1887	0.204	-0.615
Mof_C 	C 	0.5563	0.0908	0.2845	0.6
Mof_C 	C 	0.2553	0.3379	0.8178	-0.574
Mof_C 	C 	0.0845	0.2077	0.7251	0.499
Mof_C 	C 	0.6909	0.5411	0.794	0.403
Mof_C 	C 	0.5811	0.6301	0.7506	-0.453
Mof_C 	C 	0.5214	0.7261	0.8449	0.415
Mof_C 	C 	0.5762	0.7354	0.9842	-0.454
Mof_C 	C 	0.6886	0.648	0.03	0.41
Mof_C 	C 	0.7423	0.551	0.9337	-0.462
Mof_C 	C 	0.739	0.4267	0.687	-0.589
Mof_C 	C 	0.5739	0.287	0.6046	0.554
Mof_C 	C 	0.3869	0.8113	0.796	-0.615
Mof_C 	C 	0.4437	0.9092	0.7155	0.6
Mof_C 	C 	0.7447	0.6621	0.1822	-0.574
Mof_C 	C 	0.9155	0.7923	0.2749	0.499
Mof_O 	O 	0.5879	0.7015	0.4431	-0.545
Mof_O 	O 	0.401	0.843	0.4164	-0.665
Mof_O 	O 	0.3937	0.0669	0.2892	-0.577
Mof_O 	O 	0.6842	0.0395	0.343	-0.558
Mof_O 	O 	0.0652	0.1387	0.5963	-0.667
Mof_O 	O 	0.9571	0.1691	0.772	-0.486
Mof_O 	O 	0.4121	0.2985	0.5569	-0.545
Mof_O 	O 	0.599	0.157	0.5836	-0.665
Mof_O 	O 	0.6063	0.9331	0.7108	-0.577
Mof_O 	O 	0.3158	0.9605	0.657	-0.558
Mof_O 	O 	0.9348	0.8613	0.4037	-0.667
Mof_O 	O 	0.0429	0.8309	0.228	-0.486
_end
