data_functionalizedCrystal
_audit_creation_method	'EQeq! by Chris Wilmer'
_symmetry_space_group_name_H-M	'P1'
_symmetry_Int_Tables_number	1
_symmetry_cell_setting	triclinic
loop_
_symmetry_equiv_pos_as_xyz
  x,y,z
_cell_length_a	10.33
_cell_length_b	10.33
_cell_length_c	14.51
_cell_angle_alpha	90
_cell_angle_beta	90
_cell_angle_gamma	90
loop_
_atom_site_label
_atom_site_type_symbol
_atom_site_fract_x
_atom_site_fract_y
_atom_site_fract_z
_atom_site_charge
Mof_Tb	Tb	0.85298	0.85298	0.875	2.415
Mof_Tb	Tb	0.14702	0.14702	0.375	2.277
Mof_Tb	Tb	0.14702	0.85298	0.125	2.321
Mof_Tb	Tb	0.85298	0.14702	0.625	2.34
Mof_H 	H 	0.9281	0.4413	0.8712	-0.065
Mof_H 	H 	0.0719	0.5587	0.3712	-0.052
Mof_H 	H 	0.5587	0.9281	0.1212	-0.059
Mof_H 	H 	0.4413	0.0719	0.6212	-0.057
Mof_H 	H 	0.0719	0.4413	0.1288	-0.058
Mof_H 	H 	0.9281	0.5587	0.6288	-0.056
Mof_H 	H 	0.4413	0.9281	0.8788	-0.059
Mof_H 	H 	0.5587	0.0719	0.3788	-0.052
Mof_H 	H 	-0	0.1044	-0	-0.097
Mof_H 	H 	-5.51849e-33	0.8956	0.5	-0.068
Mof_H 	H 	0.8956	0	0.25	-0.067
Mof_H 	H 	0.1044	-8.15178e-33	0.75	-0.094
Mof_C 	C 	0.957	0.3962	0.9227	0.307
Mof_C 	C 	0.9572	0.2616	0.9223	-0.318
Mof_C 	C 	0.9144	0.1862	0.8396	0.619
Mof_C 	C 	0.043	0.6038	0.4227	0.248
Mof_C 	C 	0.0428	0.7384	0.4223	-0.333
Mof_C 	C 	0.0856	0.8138	0.3396	0.604
Mof_C 	C 	0.6038	0.957	0.1727	0.285
Mof_C 	C 	0.7384	0.9572	0.1723	-0.305
Mof_C 	C 	0.8138	0.9144	0.0896	0.61
Mof_C 	C 	0.3962	0.043	0.6727	0.26
Mof_C 	C 	0.2616	0.0428	0.6723	-0.354
Mof_C 	C 	0.1862	0.0856	0.5896	0.614
Mof_C 	C 	0.043	0.3962	0.0773	0.26
Mof_C 	C 	0.0428	0.2616	0.0777	-0.354
Mof_C 	C 	0.0856	0.1862	0.1604	0.612
Mof_C 	C 	0.957	0.6038	0.5773	0.281
Mof_C 	C 	0.9572	0.7384	0.5777	-0.307
Mof_C 	C 	0.9144	0.8138	0.6604	0.611
Mof_C 	C 	0.3962	0.957	0.8273	0.295
Mof_C 	C 	0.2616	0.9572	0.8277	-0.323
Mof_C 	C 	0.1862	0.9144	0.9104	0.619
Mof_C 	C 	0.6038	0.043	0.3273	0.248
Mof_C 	C 	0.7384	0.0428	0.3277	-0.333
Mof_C 	C 	0.8138	0.0856	0.4104	0.604
Mof_C 	C 	-4.07589e-33	0.464	-0	-0.387
Mof_C 	C 	-0	0.6094	-0	0.571
Mof_C 	C 	2.03794e-33	0.1945	-0	0.219
Mof_C 	C 	-5.51849e-33	0.536	0.5	-0.359
Mof_C 	C 	-5.51849e-33	0.3906	0.5	0.579
Mof_C 	C 	2.63329e-33	0.8055	0.5	0.226
Mof_C 	C 	0.536	0	0.25	-0.363
Mof_C 	C 	0.3906	0	0.25	0.574
Mof_C 	C 	0.8055	0	0.25	0.22
Mof_C 	C 	0.464	-8.15178e-33	0.75	-0.375
Mof_C 	C 	0.6094	-8.15178e-33	0.75	0.585
Mof_C 	C 	0.1945	-8.15178e-33	0.75	0.234
Mof_O 	O 	0.9076	0.244	0.76389	-0.608
Mof_O 	O 	0.9305	0.6641	0.9412	-0.589
Mof_O 	O 	0.891	0.0709	0.8479	-0.653
Mof_O 	O 	0.0924	0.756	0.26389	-0.608
Mof_O 	O 	0.0695	0.3359	0.4412	-0.613
Mof_O 	O 	0.109	0.9291	0.3479	-0.612
Mof_O 	O 	0.756	0.9076	0.01389	-0.612
Mof_O 	O 	0.3359	0.9305	0.1912	-0.586
Mof_O 	O 	0.9291	0.891	0.0979	-0.603
Mof_O 	O 	0.244	0.0924	0.51389	-0.612
Mof_O 	O 	0.6641	0.0695	0.6912	-0.623
Mof_O 	O 	0.0709	0.109	0.5979	-0.659
Mof_O 	O 	0.0924	0.244	0.23611	-0.612
Mof_O 	O 	0.0695	0.6641	0.0588	-0.622
Mof_O 	O 	0.109	0.0709	0.1521	-0.661
Mof_O 	O 	0.9076	0.756	0.73611	-0.607
Mof_O 	O 	0.9305	0.3359	0.5588	-0.589
Mof_O 	O 	0.891	0.9291	0.6521	-0.605
Mof_O 	O 	0.244	0.9076	0.98611	-0.594
Mof_O 	O 	0.6641	0.9305	0.8088	-0.596
Mof_O 	O 	0.0709	0.891	0.9021	-0.643
Mof_O 	O 	0.756	0.0924	0.48611	-0.61
Mof_O 	O 	0.3359	0.0695	0.3088	-0.612
Mof_O 	O 	0.9291	0.109	0.4021	-0.614
_end
