data_functionalizedCrystal
_audit_creation_method	'EQeq! by Chris Wilmer'
_symmetry_space_group_name_H-M	'P1'
_symmetry_Int_Tables_number	1
_symmetry_cell_setting	triclinic
loop_
_symmetry_equiv_pos_as_xyz
  x,y,z
_cell_length_a	10.786
_cell_length_b	16.726
_cell_length_c	17.385
_cell_angle_alpha	114.67
_cell_angle_beta	93.29
_cell_angle_gamma	99.58
loop_
_atom_site_label
_atom_site_type_symbol
_atom_site_fract_x
_atom_site_fract_y
_atom_site_fract_z
_atom_site_charge
Mof_O 	O 	0.8196	0.9912	0.0494	-0.596
Mof_O 	O 	0.4629	0.2399	0.0379	-0.838
Mof_O 	O 	0.3041	0.1799	0.0882	-0.579
Mof_C 	C 	0.4153	0.1903	0.071	0.477
Mof_C 	C 	0.4925	0.1348	0.0902	-0.051
Mof_O 	O 	0.9263	0.9205	0.8862	-0.643
Mof_Pr	Pr	0.08363	0.14059	0.01175	2.76
Mof_Pr	Pr	0.37249	0.34309	0.9943	2.369
Mof_Pr	Pr	0.4373	0.86677	0.40593	2.151
Mof_C 	C 	0.2606	0.9716	0.6428	-0.016
Mof_O 	O 	0.9955	0.2505	0.9652	-0.749
Mof_O 	O 	0.6137	0.1385	0.0663	-0.551
Mof_O 	O 	0.8428	0.3585	0.9464	-0.548
Mof_O 	O 	0.8553	0.1225	0.0395	-0.818
Mof_O 	O 	0.2263	0.1646	0.9137	-0.666
Mof_O 	O 	0.6003	0.3743	0.9726	-0.842
Mof_O 	O 	0.157	0.3252	0.9285	-0.595
Mof_O 	O 	0.9379	0.0484	0.8734	-0.58
Mof_O 	O 	0.7625	0.9629	0.7306	-0.195
Mof_O 	O 	0.3757	0.2107	0.8519	-0.59
Mof_O 	O 	0.2258	0.3314	0.0912	-0.655
Mof_O 	O 	0.3853	0.0016	0.5459	-0.622
Mof_O 	O 	0.2987	0.4832	0.2378	-0.204
Mof_O 	O 	0.6278	0.4977	0.9494	-0.649
Mof_O 	O 	0.08	0.2747	0.15	-0.601
Mof_C 	C 	0.1944	0.4219	0.2321	-0.065
Mof_C 	C 	0.6637	0.4305	0.9519	0.466
Mof_O 	O 	0.3073	0.0574	0.7042	-0.228
Mof_C 	C 	0.2477	0.0645	0.7735	-0.036
Mof_C 	C 	0.7904	0.0615	0.0539	0.485
Mof_C 	C 	0.9624	0.3633	0.9226	-0.031
Mof_C 	C 	0.6641	0.074	0.0806	-0.026
Mof_C 	C 	0.0443	0.3076	0.9411	0.451
Mof_O 	O 	0.6305	0.0214	0.6368	-0.569
Mof_O 	O 	0.2726	0.8648	0.5059	-0.472
Mof_C 	C 	0.166	0.3374	0.1536	0.421
Mof_C 	C 	0.7917	0.4211	0.9295	-0.056
Mof_O 	O 	0.5552	0.8801	0.5361	-0.538
Mof_C 	C 	0.1677	0.9865	0.7568	-0.03
Mof_H 	H 	0.1174	0.9747	0.7941	0.024
Mof_C 	C 	0.2857	0.1526	0.8516	0.439
Mof_O 	O 	0.3914	0.7115	0.384	-0.535
Mof_C 	C 	0.9847	0.4245	0.8909	-0.02
Mof_H 	H 	0.0583	0.4398	0.8703	-0.044
Mof_C 	C 	0.897	0.966	0.8488	0.473
Mof_C 	C 	0.8749	0.4609	0.895	-0.04
Mof_H 	H 	0.8623	0.5045	0.877	-0.002
Mof_C 	C 	0.6199	0.9378	0.6049	0.45
Mof_C 	C 	0.4684	0.0712	0.1189	-0.01
Mof_H 	H 	0.3946	0.0557	0.1391	-0.012
Mof_C 	C 	0.6911	0.9016	0.6552	-0.028
Mof_C 	C 	0.8144	0.9139	0.7663	-0.058
Mof_C 	C 	0.1745	0.9264	0.6727	-0.054
Mof_H 	H 	0.1292	0.8674	0.6432	0.039
Mof_C 	C 	0.3091	0.9446	0.5603	0.373
Mof_C 	C 	0.7781	0.8258	0.7138	-0.01
Mof_H 	H 	0.8012	0.779	0.7229	0.024
Mof_C 	C 	0.5795	0.0315	0.1123	-0.059
Mof_H 	H 	0.5902	0.9854	0.1271	0.011
Mof_C 	C 	0.2016	0.5474	0.3478	-0.075
Mof_H 	H 	0.1803	0.5888	0.3979	0.039
Mof_O 	O 	0.4991	0.622	0.2892	-0.365
Mof_C 	C 	0.3015	0.5606	0.3103	-0.001
Mof_C 	C 	0.6985	0.8171	0.6422	-0.05
Mof_H 	H 	0.659	0.7638	0.5954	0.036
Mof_C 	C 	0.1333	0.4578	0.2969	-0.015
Mof_H 	H 	0.0588	0.4299	0.3076	-0.013
Mof_C 	C 	0.4079	0.6363	0.3281	0.345
Mof_K 	K 	0.7338	0.25844	0.02004	3.197
Mof_O 	O 	0.1804	0.0088	0.9506	-0.596
Mof_O 	O 	0.5371	0.7601	0.9621	-0.838
Mof_O 	O 	0.6959	0.8201	0.9118	-0.579
Mof_C 	C 	0.5847	0.8097	0.929	0.477
Mof_C 	C 	0.5075	0.8652	0.9098	-0.051
Mof_O 	O 	0.0737	0.0795	0.1138	-0.643
Mof_Pr	Pr	0.91637	0.85941	0.98825	2.76
Mof_Pr	Pr	0.62751	0.65691	0.0057	2.369
Mof_Pr	Pr	0.5627	0.13323	0.59407	2.151
Mof_C 	C 	0.7394	0.0284	0.3572	-0.016
Mof_O 	O 	0.0045	0.7495	0.0348	-0.749
Mof_O 	O 	0.3863	0.8615	0.9337	-0.551
Mof_O 	O 	0.1572	0.6415	0.0536	-0.548
Mof_O 	O 	0.1447	0.8775	0.9605	-0.818
Mof_O 	O 	0.7737	0.8354	0.0863	-0.666
Mof_O 	O 	0.3997	0.6257	0.0274	-0.842
Mof_O 	O 	0.843	0.6748	0.0715	-0.595
Mof_O 	O 	0.0621	0.9516	0.1266	-0.58
Mof_O 	O 	0.2375	0.0371	0.2694	-0.195
Mof_O 	O 	0.6243	0.7893	0.1481	-0.59
Mof_O 	O 	0.7742	0.6686	0.9088	-0.655
Mof_O 	O 	0.6147	0.9984	0.4541	-0.622
Mof_O 	O 	0.7013	0.5168	0.7622	-0.204
Mof_O 	O 	0.3722	0.5023	0.0506	-0.649
Mof_O 	O 	0.92	0.7253	0.85	-0.601
Mof_C 	C 	0.8056	0.5781	0.7679	-0.065
Mof_C 	C 	0.3363	0.5695	0.0481	0.466
Mof_O 	O 	0.6927	0.9426	0.2958	-0.228
Mof_C 	C 	0.7523	0.9355	0.2265	-0.036
Mof_C 	C 	0.2096	0.9385	0.9461	0.485
Mof_C 	C 	0.0376	0.6367	0.0774	-0.031
Mof_C 	C 	0.3359	0.926	0.9194	-0.026
Mof_C 	C 	0.9557	0.6924	0.0589	0.451
Mof_O 	O 	0.3695	0.9786	0.3632	-0.569
Mof_O 	O 	0.7274	0.1352	0.4941	-0.472
Mof_C 	C 	0.834	0.6626	0.8464	0.421
Mof_C 	C 	0.2083	0.5789	0.0705	-0.056
Mof_O 	O 	0.4448	0.1199	0.4639	-0.538
Mof_C 	C 	0.8323	0.0135	0.2432	-0.03
Mof_H 	H 	0.8826	0.0253	0.2059	0.024
Mof_C 	C 	0.7143	0.8474	0.1484	0.439
Mof_O 	O 	0.6086	0.2885	0.616	-0.535
Mof_C 	C 	0.0153	0.5755	0.1091	-0.02
Mof_H 	H 	0.9417	0.5602	0.1297	-0.044
Mof_C 	C 	0.103	0.034	0.1512	0.473
Mof_C 	C 	0.1251	0.5391	0.105	-0.04
Mof_H 	H 	0.1377	0.4955	0.123	-0.002
Mof_C 	C 	0.3801	0.0622	0.3951	0.45
Mof_C 	C 	0.5316	0.9288	0.8811	-0.01
Mof_H 	H 	0.6054	0.9443	0.8609	-0.012
Mof_C 	C 	0.3089	0.0984	0.3448	-0.028
Mof_C 	C 	0.1856	0.0861	0.2337	-0.058
Mof_C 	C 	0.8255	0.0736	0.3273	-0.054
Mof_H 	H 	0.8708	0.1326	0.3568	0.039
Mof_C 	C 	0.6909	0.0554	0.4397	0.373
Mof_C 	C 	0.2219	0.1742	0.2862	-0.01
Mof_H 	H 	0.1988	0.221	0.2771	0.024
Mof_C 	C 	0.4205	0.9685	0.8877	-0.059
Mof_H 	H 	0.4098	0.0146	0.8729	0.011
Mof_C 	C 	0.7984	0.4526	0.6522	-0.075
Mof_H 	H 	0.8197	0.4112	0.6021	0.039
Mof_O 	O 	0.5009	0.378	0.7108	-0.365
Mof_C 	C 	0.6985	0.4394	0.6897	-0.001
Mof_C 	C 	0.3015	0.1829	0.3578	-0.05
Mof_H 	H 	0.341	0.2362	0.4046	0.036
Mof_C 	C 	0.8667	0.5422	0.7031	-0.015
Mof_H 	H 	0.9412	0.5701	0.6924	-0.013
Mof_C 	C 	0.5921	0.3637	0.6719	0.345
Mof_K 	K 	0.2662	0.74156	0.97996	3.197
_end
