data_functionalizedCrystal
_audit_creation_method	'EQeq! by Chris Wilmer'
_symmetry_space_group_name_H-M	'P1'
_symmetry_Int_Tables_number	1
_symmetry_cell_setting	triclinic
loop_
_symmetry_equiv_pos_as_xyz
  x,y,z
_cell_length_a	10.1724
_cell_length_b	10.1724
_cell_length_c	9.606
_cell_angle_alpha	90
_cell_angle_beta	90
_cell_angle_gamma	90
loop_
_atom_site_label
_atom_site_type_symbol
_atom_site_fract_x
_atom_site_fract_y
_atom_site_fract_z
_atom_site_charge
Mof_O 	O 	0.697	0.48	0.2184	-0.451
Mof_O 	O 	0.197	0.98	0.7184	-0.451
Mof_O 	O 	0.303	0.52	0.2184	-0.451
Mof_O 	O 	0.803	0.02	0.7184	-0.451
Mof_O 	O 	0.48	0.303	0.7816	-0.452
Mof_O 	O 	0.98	0.803	0.2816	-0.452
Mof_O 	O 	0.52	0.697	0.7816	-0.452
Mof_O 	O 	0.02	0.197	0.2816	-0.452
Mof_O 	O 	0.303	0.48	0.7816	-0.452
Mof_O 	O 	0.803	0.98	0.2816	-0.452
Mof_O 	O 	0.697	0.52	0.7816	-0.452
Mof_O 	O 	0.197	0.02	0.2816	-0.452
Mof_O 	O 	0.52	0.303	0.2184	-0.452
Mof_O 	O 	0.02	0.803	0.7184	-0.452
Mof_O 	O 	0.48	0.697	0.2184	-0.452
Mof_O 	O 	0.98	0.197	0.7184	-0.452
Mof_P 	P 	0.6646	0.3354	0.1918	0.557
Mof_O 	O 	0.7001	0.2999	0.038	-0.445
Mof_O 	O 	0.7415	0.2585	0.286	-0.37
Mof_Co	Co	0.6332	0.3668	0.8684	1.162
Mof_P 	P 	0.1646	0.8354	0.6918	0.557
Mof_O 	O 	0.2001	0.7999	0.538	-0.446
Mof_O 	O 	0.2415	0.7585	0.786	-0.37
Mof_Co	Co	0.1332	0.8668	0.3684	1.162
Mof_P 	P 	0.3354	0.6646	0.1918	0.557
Mof_O 	O 	0.2999	0.7001	0.038	-0.445
Mof_O 	O 	0.2585	0.7415	0.286	-0.37
Mof_Co	Co	0.3668	0.6332	0.8684	1.162
Mof_P 	P 	0.8354	0.1646	0.6918	0.557
Mof_O 	O 	0.7999	0.2001	0.538	-0.446
Mof_O 	O 	0.7585	0.2415	0.786	-0.37
Mof_Co	Co	0.8668	0.1332	0.3684	1.162
Mof_P 	P 	0.3354	0.3354	0.8082	0.557
Mof_O 	O 	0.2999	0.2999	0.962	-0.445
Mof_O 	O 	0.2585	0.2585	0.714	-0.37
Mof_Co	Co	0.3668	0.3668	0.1316	1.162
Mof_P 	P 	0.8354	0.8354	0.3082	0.557
Mof_O 	O 	0.7999	0.7999	0.462	-0.446
Mof_O 	O 	0.7585	0.7585	0.214	-0.37
Mof_Co	Co	0.8668	0.8668	0.6316	1.162
Mof_P 	P 	0.6646	0.6646	0.8082	0.557
Mof_O 	O 	0.7001	0.7001	0.962	-0.445
Mof_O 	O 	0.7415	0.7415	0.714	-0.37
Mof_Co	Co	0.6332	0.6332	0.1316	1.162
Mof_P 	P 	0.1646	0.1646	0.3082	0.557
Mof_O 	O 	0.2001	0.2001	0.462	-0.446
Mof_O 	O 	0.2415	0.2415	0.214	-0.37
Mof_Co	Co	0.1332	0.1332	0.6316	1.162
_end
