data_functionalizedCrystal
_audit_creation_method	'EQeq! by Chris Wilmer'
_symmetry_space_group_name_H-M	'P1'
_symmetry_Int_Tables_number	1
_symmetry_cell_setting	triclinic
loop_
_symmetry_equiv_pos_as_xyz
  x,y,z
_cell_length_a	12.7337
_cell_length_b	12.5615
_cell_length_c	17.8737
_cell_angle_alpha	90
_cell_angle_beta	90
_cell_angle_gamma	90
loop_
_atom_site_label
_atom_site_type_symbol
_atom_site_fract_x
_atom_site_fract_y
_atom_site_fract_z
_atom_site_charge
Mof_U 	U 	0.08222	0.64426	0.38048	0.007
Mof_S 	S 	0.27728	0.63238	0.58533	0.114
Mof_O 	O 	0.14918	0.52422	0.47124	-0.181
Mof_O 	O 	0.06322	0.41363	0.54653	-0.171
Mof_O 	O 	0.4309	0.76945	0.66604	-0.182
Mof_O 	O 	0.3671	0.73624	0.78057	-0.186
Mof_C 	C 	0.1314	0.4851	0.53478	0.291
Mof_C 	C 	0.195	0.5245	0.59805	-0.057
Mof_C 	C 	0.1912	0.493	0.67132	-0.012
Mof_H 	H 	0.1514	0.434	0.6886	0.083
Mof_C 	C 	0.2534	0.5581	0.71854	-0.004
Mof_H 	H 	0.2591	0.5484	0.7711	0.074
Mof_C 	C 	0.3042	0.6363	0.6798	-0.062
Mof_C 	C 	0.373	0.7203	0.71131	0.288
Mof_U 	U 	0.41778	0.85574	0.88048	0.006
Mof_S 	S 	0.22272	0.86762	0.08533	0.113
Mof_O 	O 	0.35082	0.97578	0.97124	-0.18
Mof_O 	O 	0.43678	0.08637	0.04653	-0.171
Mof_O 	O 	0.0691	0.73055	0.16604	-0.183
Mof_O 	O 	0.1329	0.76376	0.28057	-0.186
Mof_C 	C 	0.3686	0.0149	0.03478	0.29
Mof_C 	C 	0.305	0.9755	0.09805	-0.057
Mof_C 	C 	0.3088	0.007	0.17132	-0.011
Mof_H 	H 	0.3486	0.066	0.1886	0.083
Mof_C 	C 	0.2466	0.9419	0.21854	-0.005
Mof_H 	H 	0.2409	0.9516	0.2711	0.074
Mof_C 	C 	0.1958	0.8637	0.1798	-0.062
Mof_C 	C 	0.127	0.7797	0.21131	0.288
Mof_U 	U 	0.91778	0.64426	0.11952	0.006
Mof_S 	S 	0.72272	0.63238	0.91467	0.113
Mof_O 	O 	0.85082	0.52422	0.02876	-0.18
Mof_O 	O 	0.93678	0.41363	0.95347	-0.171
Mof_O 	O 	0.5691	0.76945	0.83396	-0.182
Mof_O 	O 	0.6329	0.73624	0.71943	-0.186
Mof_C 	C 	0.8686	0.4851	0.96522	0.29
Mof_C 	C 	0.805	0.5245	0.90195	-0.056
Mof_C 	C 	0.8088	0.493	0.82868	-0.012
Mof_H 	H 	0.8486	0.434	0.8114	0.083
Mof_C 	C 	0.7466	0.5581	0.78146	-0.005
Mof_H 	H 	0.7409	0.5484	0.7289	0.073
Mof_C 	C 	0.6958	0.6363	0.8202	-0.062
Mof_C 	C 	0.627	0.7203	0.78869	0.288
Mof_U 	U 	0.58222	0.85574	0.61952	0.006
Mof_S 	S 	0.77728	0.86762	0.41467	0.113
Mof_O 	O 	0.64918	0.97578	0.52876	-0.181
Mof_O 	O 	0.56322	0.08637	0.45347	-0.171
Mof_O 	O 	0.9309	0.73055	0.33396	-0.182
Mof_O 	O 	0.8671	0.76376	0.21943	-0.186
Mof_C 	C 	0.6314	0.0149	0.46522	0.291
Mof_C 	C 	0.695	0.9755	0.40195	-0.057
Mof_C 	C 	0.6912	0.007	0.32868	-0.011
Mof_H 	H 	0.6514	0.066	0.3114	0.083
Mof_C 	C 	0.7534	0.9419	0.28146	-0.005
Mof_H 	H 	0.7591	0.9516	0.2289	0.074
Mof_C 	C 	0.8042	0.8637	0.3202	-0.061
Mof_C 	C 	0.873	0.7797	0.28869	0.288
Mof_U 	U 	0.91778	0.35574	0.61952	0.006
Mof_S 	S 	0.72272	0.36762	0.41467	0.113
Mof_O 	O 	0.85082	0.47578	0.52876	-0.181
Mof_O 	O 	0.93678	0.58637	0.45347	-0.171
Mof_O 	O 	0.5691	0.23055	0.33396	-0.182
Mof_O 	O 	0.6329	0.26376	0.21943	-0.186
Mof_C 	C 	0.8686	0.5149	0.46522	0.291
Mof_C 	C 	0.805	0.4755	0.40195	-0.057
Mof_C 	C 	0.8088	0.507	0.32868	-0.012
Mof_H 	H 	0.8486	0.566	0.3114	0.083
Mof_C 	C 	0.7466	0.4419	0.28146	-0.004
Mof_H 	H 	0.7409	0.4516	0.2289	0.074
Mof_C 	C 	0.6958	0.3637	0.3202	-0.062
Mof_C 	C 	0.627	0.2797	0.28869	0.288
Mof_U 	U 	0.58222	0.14426	0.11952	0.006
Mof_S 	S 	0.77728	0.13238	0.91467	0.113
Mof_O 	O 	0.64918	0.02422	0.02876	-0.18
Mof_O 	O 	0.56322	0.91363	0.95347	-0.171
Mof_O 	O 	0.9309	0.26945	0.83396	-0.183
Mof_O 	O 	0.8671	0.23624	0.71943	-0.186
Mof_C 	C 	0.6314	0.9851	0.96522	0.29
Mof_C 	C 	0.695	0.0245	0.90195	-0.057
Mof_C 	C 	0.6912	0.993	0.82868	-0.011
Mof_H 	H 	0.6514	0.934	0.8114	0.083
Mof_C 	C 	0.7534	0.0581	0.78146	-0.005
Mof_H 	H 	0.7591	0.0484	0.7289	0.074
Mof_C 	C 	0.8042	0.1363	0.8202	-0.062
Mof_C 	C 	0.873	0.2203	0.78869	0.288
Mof_U 	U 	0.08222	0.35574	0.88048	0.006
Mof_S 	S 	0.27728	0.36762	0.08533	0.113
Mof_O 	O 	0.14918	0.47578	0.97124	-0.18
Mof_O 	O 	0.06322	0.58637	0.04653	-0.171
Mof_O 	O 	0.4309	0.23055	0.16604	-0.182
Mof_O 	O 	0.3671	0.26376	0.28057	-0.186
Mof_C 	C 	0.1314	0.5149	0.03478	0.29
Mof_C 	C 	0.195	0.4755	0.09805	-0.056
Mof_C 	C 	0.1912	0.507	0.17132	-0.012
Mof_H 	H 	0.1514	0.566	0.1886	0.083
Mof_C 	C 	0.2534	0.4419	0.21854	-0.005
Mof_H 	H 	0.2591	0.4516	0.2711	0.073
Mof_C 	C 	0.3042	0.3637	0.1798	-0.062
Mof_C 	C 	0.373	0.2797	0.21131	0.288
Mof_U 	U 	0.41778	0.14426	0.38048	0.006
Mof_S 	S 	0.22272	0.13238	0.58533	0.113
Mof_O 	O 	0.35082	0.02422	0.47124	-0.181
Mof_O 	O 	0.43678	0.91363	0.54653	-0.171
Mof_O 	O 	0.0691	0.26945	0.66604	-0.182
Mof_O 	O 	0.1329	0.23624	0.78057	-0.186
Mof_C 	C 	0.3686	0.9851	0.53478	0.291
Mof_C 	C 	0.305	0.0245	0.59805	-0.057
Mof_C 	C 	0.3088	0.993	0.67132	-0.011
Mof_H 	H 	0.3486	0.934	0.6886	0.083
Mof_C 	C 	0.2466	0.0581	0.71854	-0.005
Mof_H 	H 	0.2409	0.0484	0.7711	0.074
Mof_C 	C 	0.1958	0.1363	0.6798	-0.061
Mof_C 	C 	0.127	0.2203	0.71131	0.288
_end
