data_functionalizedCrystal
_audit_creation_method	'EQeq! by Chris Wilmer'
_symmetry_space_group_name_H-M	'P1'
_symmetry_Int_Tables_number	1
_symmetry_cell_setting	triclinic
loop_
_symmetry_equiv_pos_as_xyz
  x,y,z
_cell_length_a	29.8307
_cell_length_b	29.8307
_cell_length_c	29.8307
_cell_angle_alpha	90
_cell_angle_beta	90
_cell_angle_gamma	90
loop_
_atom_site_label
_atom_site_type_symbol
_atom_site_fract_x
_atom_site_fract_y
_atom_site_fract_z
_atom_site_charge
Mof_O 	O 	0.1688	0.272	0.4596	-0.401
Mof_C 	C 	0.1813	0.2315	0.4374	0.368
Mof_C 	C 	0.1584	0.2121	0.3987	-0.275
Mof_O 	O 	0.1688	0.772	0.9596	-0.369
Mof_C 	C 	0.1813	0.7315	0.9374	0.367
Mof_C 	C 	0.1584	0.7121	0.8987	-0.27
Mof_O 	O 	0.6688	0.272	0.9596	-0.367
Mof_C 	C 	0.6813	0.2315	0.9374	0.368
Mof_C 	C 	0.6584	0.2121	0.8987	-0.269
Mof_O 	O 	0.6688	0.772	0.4596	-0.395
Mof_C 	C 	0.6813	0.7315	0.4374	0.371
Mof_C 	C 	0.6584	0.7121	0.3987	-0.275
Mof_O 	O 	0.8312	0.728	0.4596	-0.393
Mof_C 	C 	0.8187	0.7685	0.4374	0.374
Mof_C 	C 	0.8416	0.7879	0.3987	-0.273
Mof_O 	O 	0.8312	0.228	0.9596	-0.365
Mof_C 	C 	0.8187	0.2685	0.9374	0.371
Mof_C 	C 	0.8416	0.2879	0.8987	-0.268
Mof_O 	O 	0.3312	0.728	0.9596	-0.366
Mof_C 	C 	0.3187	0.7685	0.9374	0.371
Mof_C 	C 	0.3416	0.7879	0.8987	-0.267
Mof_O 	O 	0.3312	0.228	0.4596	-0.398
Mof_C 	C 	0.3187	0.2685	0.4374	0.372
Mof_C 	C 	0.3416	0.2879	0.3987	-0.274
Mof_O 	O 	0.8312	0.272	0.5404	-0.392
Mof_C 	C 	0.8187	0.2315	0.5626	0.372
Mof_C 	C 	0.8416	0.2121	0.6013	-0.273
Mof_O 	O 	0.8312	0.772	0.0404	-0.405
Mof_C 	C 	0.8187	0.7315	0.0626	0.369
Mof_C 	C 	0.8416	0.7121	0.1013	-0.275
Mof_O 	O 	0.3312	0.272	0.0404	-0.412
Mof_C 	C 	0.3187	0.2315	0.0626	0.366
Mof_C 	C 	0.3416	0.2121	0.1013	-0.276
Mof_O 	O 	0.3312	0.772	0.5404	-0.394
Mof_C 	C 	0.3187	0.7315	0.5626	0.372
Mof_C 	C 	0.3416	0.7121	0.6013	-0.274
Mof_O 	O 	0.1688	0.728	0.5404	-0.4
Mof_C 	C 	0.1813	0.7685	0.5626	0.371
Mof_C 	C 	0.1584	0.7879	0.6013	-0.274
Mof_O 	O 	0.1688	0.228	0.0404	-0.416
Mof_C 	C 	0.1813	0.2685	0.0626	0.366
Mof_C 	C 	0.1584	0.2879	0.1013	-0.276
Mof_O 	O 	0.6688	0.728	0.0404	-0.411
Mof_C 	C 	0.6813	0.7685	0.0626	0.369
Mof_C 	C 	0.6584	0.7879	0.1013	-0.276
Mof_O 	O 	0.6688	0.228	0.5404	-0.398
Mof_C 	C 	0.6813	0.2685	0.5626	0.372
Mof_C 	C 	0.6584	0.2879	0.6013	-0.274
Mof_O 	O 	0.4596	0.1688	0.272	-0.4
Mof_C 	C 	0.4374	0.1813	0.2315	0.369
Mof_C 	C 	0.3987	0.1584	0.2121	-0.274
Mof_O 	O 	0.4596	0.6688	0.772	-0.394
Mof_C 	C 	0.4374	0.6813	0.7315	0.372
Mof_C 	C 	0.3987	0.6584	0.7121	-0.274
Mof_O 	O 	0.9596	0.1688	0.772	-0.368
Mof_C 	C 	0.9374	0.1813	0.7315	0.368
Mof_C 	C 	0.8987	0.1584	0.7121	-0.269
Mof_O 	O 	0.9596	0.6688	0.272	-0.366
Mof_C 	C 	0.9374	0.6813	0.2315	0.369
Mof_C 	C 	0.8987	0.6584	0.2121	-0.268
Mof_O 	O 	0.4596	0.8312	0.728	-0.392
Mof_C 	C 	0.4374	0.8187	0.7685	0.375
Mof_C 	C 	0.3987	0.8416	0.7879	-0.272
Mof_O 	O 	0.4596	0.3312	0.228	-0.398
Mof_C 	C 	0.4374	0.3187	0.2685	0.372
Mof_C 	C 	0.3987	0.3416	0.2879	-0.274
Mof_O 	O 	0.9596	0.8312	0.228	-0.364
Mof_C 	C 	0.9374	0.8187	0.2685	0.372
Mof_C 	C 	0.8987	0.8416	0.2879	-0.267
Mof_O 	O 	0.9596	0.3312	0.728	-0.366
Mof_C 	C 	0.9374	0.3187	0.7685	0.371
Mof_C 	C 	0.8987	0.3416	0.7879	-0.267
Mof_O 	O 	0.5404	0.8312	0.272	-0.392
Mof_C 	C 	0.5626	0.8187	0.2315	0.372
Mof_C 	C 	0.6013	0.8416	0.2121	-0.273
Mof_O 	O 	0.5404	0.3312	0.772	-0.394
Mof_C 	C 	0.5626	0.3187	0.7315	0.372
Mof_C 	C 	0.6013	0.3416	0.7121	-0.274
Mof_O 	O 	0.0404	0.8312	0.772	-0.405
Mof_C 	C 	0.0626	0.8187	0.7315	0.369
Mof_C 	C 	0.1013	0.8416	0.7121	-0.275
Mof_O 	O 	0.0404	0.3312	0.272	-0.412
Mof_C 	C 	0.0626	0.3187	0.2315	0.366
Mof_C 	C 	0.1013	0.3416	0.2121	-0.276
Mof_O 	O 	0.5404	0.1688	0.728	-0.4
Mof_C 	C 	0.5626	0.1813	0.7685	0.371
Mof_C 	C 	0.6013	0.1584	0.7879	-0.274
Mof_O 	O 	0.5404	0.6688	0.228	-0.398
Mof_C 	C 	0.5626	0.6813	0.2685	0.372
Mof_C 	C 	0.6013	0.6584	0.2879	-0.274
Mof_O 	O 	0.0404	0.1688	0.228	-0.416
Mof_C 	C 	0.0626	0.1813	0.2685	0.366
Mof_C 	C 	0.1013	0.1584	0.2879	-0.276
Mof_O 	O 	0.0404	0.6688	0.728	-0.411
Mof_C 	C 	0.0626	0.6813	0.7685	0.369
Mof_C 	C 	0.1013	0.6584	0.7879	-0.276
Mof_O 	O 	0.272	0.4596	0.1688	-0.4
Mof_C 	C 	0.2315	0.4374	0.1813	0.369
Mof_C 	C 	0.2121	0.3987	0.1584	-0.274
Mof_O 	O 	0.272	0.9596	0.6688	-0.366
Mof_C 	C 	0.2315	0.9374	0.6813	0.369
Mof_C 	C 	0.2121	0.8987	0.6584	-0.268
Mof_O 	O 	0.772	0.4596	0.6688	-0.394
Mof_C 	C 	0.7315	0.4374	0.6813	0.372
Mof_C 	C 	0.7121	0.3987	0.6584	-0.274
Mof_O 	O 	0.772	0.9596	0.1688	-0.368
Mof_C 	C 	0.7315	0.9374	0.1813	0.368
Mof_C 	C 	0.7121	0.8987	0.1584	-0.269
Mof_O 	O 	0.728	0.4596	0.8312	-0.392
Mof_C 	C 	0.7685	0.4374	0.8187	0.375
Mof_C 	C 	0.7879	0.3987	0.8416	-0.272
Mof_O 	O 	0.728	0.9596	0.3312	-0.366
Mof_C 	C 	0.7685	0.9374	0.3187	0.371
Mof_C 	C 	0.7879	0.8987	0.3416	-0.267
Mof_O 	O 	0.228	0.4596	0.3312	-0.398
Mof_C 	C 	0.2685	0.4374	0.3187	0.372
Mof_C 	C 	0.2879	0.3987	0.3416	-0.274
Mof_O 	O 	0.228	0.9596	0.8312	-0.364
Mof_C 	C 	0.2685	0.9374	0.8187	0.372
Mof_C 	C 	0.2879	0.8987	0.8416	-0.267
Mof_O 	O 	0.272	0.5404	0.8312	-0.392
Mof_C 	C 	0.2315	0.5626	0.8187	0.372
Mof_C 	C 	0.2121	0.6013	0.8416	-0.273
Mof_O 	O 	0.272	0.0404	0.3312	-0.412
Mof_C 	C 	0.2315	0.0626	0.3187	0.366
Mof_C 	C 	0.2121	0.1013	0.3416	-0.276
Mof_O 	O 	0.772	0.5404	0.3312	-0.394
Mof_C 	C 	0.7315	0.5626	0.3187	0.372
Mof_C 	C 	0.7121	0.6013	0.3416	-0.274
Mof_O 	O 	0.772	0.0404	0.8312	-0.405
Mof_C 	C 	0.7315	0.0626	0.8187	0.369
Mof_C 	C 	0.7121	0.1013	0.8416	-0.275
Mof_O 	O 	0.728	0.5404	0.1688	-0.4
Mof_C 	C 	0.7685	0.5626	0.1813	0.371
Mof_C 	C 	0.7879	0.6013	0.1584	-0.274
Mof_O 	O 	0.728	0.0404	0.6688	-0.411
Mof_C 	C 	0.7685	0.0626	0.6813	0.369
Mof_C 	C 	0.7879	0.1013	0.6584	-0.276
Mof_O 	O 	0.228	0.5404	0.6688	-0.398
Mof_C 	C 	0.2685	0.5626	0.6813	0.372
Mof_C 	C 	0.2879	0.6013	0.6584	-0.274
Mof_O 	O 	0.228	0.0404	0.1688	-0.416
Mof_C 	C 	0.2685	0.0626	0.1813	0.366
Mof_C 	C 	0.2879	0.1013	0.1584	-0.276
Mof_O 	O 	0.272	0.1688	0.5404	-0.4
Mof_C 	C 	0.2315	0.1813	0.5626	0.369
Mof_C 	C 	0.2121	0.1584	0.6013	-0.274
Mof_O 	O 	0.272	0.6688	0.0404	-0.412
Mof_C 	C 	0.2315	0.6813	0.0626	0.366
Mof_C 	C 	0.2121	0.6584	0.1013	-0.276
Mof_O 	O 	0.772	0.1688	0.0404	-0.413
Mof_C 	C 	0.7315	0.1813	0.0626	0.366
Mof_C 	C 	0.7121	0.1584	0.1013	-0.277
Mof_O 	O 	0.772	0.6688	0.5404	-0.395
Mof_C 	C 	0.7315	0.6813	0.5626	0.372
Mof_C 	C 	0.7121	0.6584	0.6013	-0.274
Mof_O 	O 	0.728	0.8312	0.5404	-0.392
Mof_C 	C 	0.7685	0.8187	0.5626	0.375
Mof_C 	C 	0.7879	0.8416	0.6013	-0.272
Mof_O 	O 	0.728	0.3312	0.0404	-0.411
Mof_C 	C 	0.7685	0.3187	0.0626	0.369
Mof_C 	C 	0.7879	0.3416	0.1013	-0.275
Mof_O 	O 	0.228	0.8312	0.0404	-0.409
Mof_C 	C 	0.2685	0.8187	0.0626	0.369
Mof_C 	C 	0.2879	0.8416	0.1013	-0.275
Mof_O 	O 	0.228	0.3312	0.5404	-0.398
Mof_C 	C 	0.2685	0.3187	0.5626	0.372
Mof_C 	C 	0.2879	0.3416	0.6013	-0.274
Mof_O 	O 	0.272	0.8312	0.4596	-0.392
Mof_C 	C 	0.2315	0.8187	0.4374	0.372
Mof_C 	C 	0.2121	0.8416	0.3987	-0.273
Mof_O 	O 	0.272	0.3312	0.9596	-0.366
Mof_C 	C 	0.2315	0.3187	0.9374	0.369
Mof_C 	C 	0.2121	0.3416	0.8987	-0.268
Mof_O 	O 	0.772	0.8312	0.9596	-0.36
Mof_C 	C 	0.7315	0.8187	0.9374	0.372
Mof_C 	C 	0.7121	0.8416	0.8987	-0.267
Mof_O 	O 	0.772	0.3312	0.4596	-0.394
Mof_C 	C 	0.7315	0.3187	0.4374	0.372
Mof_C 	C 	0.7121	0.3416	0.3987	-0.274
Mof_O 	O 	0.728	0.1688	0.4596	-0.4
Mof_C 	C 	0.7685	0.1813	0.4374	0.371
Mof_C 	C 	0.7879	0.1584	0.3987	-0.274
Mof_O 	O 	0.728	0.6688	0.9596	-0.366
Mof_C 	C 	0.7685	0.6813	0.9374	0.371
Mof_C 	C 	0.7879	0.6584	0.8987	-0.268
Mof_O 	O 	0.228	0.1688	0.9596	-0.371
Mof_C 	C 	0.2685	0.1813	0.9374	0.368
Mof_C 	C 	0.2879	0.1584	0.8987	-0.268
Mof_O 	O 	0.228	0.6688	0.4596	-0.398
Mof_C 	C 	0.2685	0.6813	0.4374	0.372
Mof_C 	C 	0.2879	0.6584	0.3987	-0.274
Mof_O 	O 	0.1688	0.4596	0.728	-0.4
Mof_C 	C 	0.1813	0.4374	0.7685	0.371
Mof_C 	C 	0.1584	0.3987	0.7879	-0.274
Mof_O 	O 	0.1688	0.9596	0.228	-0.371
Mof_C 	C 	0.1813	0.9374	0.2685	0.368
Mof_C 	C 	0.1584	0.8987	0.2879	-0.268
Mof_O 	O 	0.6688	0.4596	0.228	-0.398
Mof_C 	C 	0.6813	0.4374	0.2685	0.372
Mof_C 	C 	0.6584	0.3987	0.2879	-0.274
Mof_O 	O 	0.6688	0.9596	0.728	-0.366
Mof_C 	C 	0.6813	0.9374	0.7685	0.371
Mof_C 	C 	0.6584	0.8987	0.7879	-0.268
Mof_O 	O 	0.8312	0.4596	0.272	-0.392
Mof_C 	C 	0.8187	0.4374	0.2315	0.372
Mof_C 	C 	0.8416	0.3987	0.2121	-0.273
Mof_O 	O 	0.8312	0.9596	0.772	-0.36
Mof_C 	C 	0.8187	0.9374	0.7315	0.372
Mof_C 	C 	0.8416	0.8987	0.7121	-0.267
Mof_O 	O 	0.3312	0.4596	0.772	-0.394
Mof_C 	C 	0.3187	0.4374	0.7315	0.372
Mof_C 	C 	0.3416	0.3987	0.7121	-0.274
Mof_O 	O 	0.3312	0.9596	0.272	-0.366
Mof_C 	C 	0.3187	0.9374	0.2315	0.369
Mof_C 	C 	0.3416	0.8987	0.2121	-0.268
Mof_O 	O 	0.8312	0.5404	0.728	-0.392
Mof_C 	C 	0.8187	0.5626	0.7685	0.375
Mof_C 	C 	0.8416	0.6013	0.7879	-0.272
Mof_O 	O 	0.8312	0.0404	0.228	-0.409
Mof_C 	C 	0.8187	0.0626	0.2685	0.369
Mof_C 	C 	0.8416	0.1013	0.2879	-0.275
Mof_O 	O 	0.3312	0.5404	0.228	-0.398
Mof_C 	C 	0.3187	0.5626	0.2685	0.372
Mof_C 	C 	0.3416	0.6013	0.2879	-0.274
Mof_O 	O 	0.3312	0.0404	0.728	-0.411
Mof_C 	C 	0.3187	0.0626	0.7685	0.369
Mof_C 	C 	0.3416	0.1013	0.7879	-0.275
Mof_O 	O 	0.1688	0.5404	0.272	-0.4
Mof_C 	C 	0.1813	0.5626	0.2315	0.369
Mof_C 	C 	0.1584	0.6013	0.2121	-0.274
Mof_O 	O 	0.1688	0.0404	0.772	-0.413
Mof_C 	C 	0.1813	0.0626	0.7315	0.366
Mof_C 	C 	0.1584	0.1013	0.7121	-0.277
Mof_O 	O 	0.6688	0.5404	0.772	-0.395
Mof_C 	C 	0.6813	0.5626	0.7315	0.372
Mof_C 	C 	0.6584	0.6013	0.7121	-0.274
Mof_O 	O 	0.6688	0.0404	0.272	-0.412
Mof_C 	C 	0.6813	0.0626	0.2315	0.366
Mof_C 	C 	0.6584	0.1013	0.2121	-0.276
Mof_O 	O 	0.4596	0.272	0.8312	-0.392
Mof_C 	C 	0.4374	0.2315	0.8187	0.372
Mof_C 	C 	0.3987	0.2121	0.8416	-0.273
Mof_O 	O 	0.4596	0.772	0.3312	-0.394
Mof_C 	C 	0.4374	0.7315	0.3187	0.372
Mof_C 	C 	0.3987	0.7121	0.3416	-0.274
Mof_O 	O 	0.9596	0.272	0.3312	-0.366
Mof_C 	C 	0.9374	0.2315	0.3187	0.369
Mof_C 	C 	0.8987	0.2121	0.3416	-0.268
Mof_O 	O 	0.9596	0.772	0.8312	-0.36
Mof_C 	C 	0.9374	0.7315	0.8187	0.372
Mof_C 	C 	0.8987	0.7121	0.8416	-0.267
Mof_O 	O 	0.4596	0.728	0.1688	-0.4
Mof_C 	C 	0.4374	0.7685	0.1813	0.371
Mof_C 	C 	0.3987	0.7879	0.1584	-0.274
Mof_O 	O 	0.4596	0.228	0.6688	-0.398
Mof_C 	C 	0.4374	0.2685	0.6813	0.372
Mof_C 	C 	0.3987	0.2879	0.6584	-0.274
Mof_O 	O 	0.9596	0.728	0.6688	-0.366
Mof_C 	C 	0.9374	0.7685	0.6813	0.371
Mof_C 	C 	0.8987	0.7879	0.6584	-0.268
Mof_O 	O 	0.9596	0.228	0.1688	-0.371
Mof_C 	C 	0.9374	0.2685	0.1813	0.368
Mof_C 	C 	0.8987	0.2879	0.1584	-0.268
Mof_O 	O 	0.5404	0.272	0.1688	-0.4
Mof_C 	C 	0.5626	0.2315	0.1813	0.369
Mof_C 	C 	0.6013	0.2121	0.1584	-0.274
Mof_O 	O 	0.5404	0.772	0.6688	-0.395
Mof_C 	C 	0.5626	0.7315	0.6813	0.372
Mof_C 	C 	0.6013	0.7121	0.6584	-0.274
Mof_O 	O 	0.0404	0.272	0.6688	-0.412
Mof_C 	C 	0.0626	0.2315	0.6813	0.366
Mof_C 	C 	0.1013	0.2121	0.6584	-0.276
Mof_O 	O 	0.0404	0.772	0.1688	-0.413
Mof_C 	C 	0.0626	0.7315	0.1813	0.366
Mof_C 	C 	0.1013	0.7121	0.1584	-0.277
Mof_O 	O 	0.5404	0.728	0.8312	-0.392
Mof_C 	C 	0.5626	0.7685	0.8187	0.375
Mof_C 	C 	0.6013	0.7879	0.8416	-0.272
Mof_O 	O 	0.5404	0.228	0.3312	-0.398
Mof_C 	C 	0.5626	0.2685	0.3187	0.372
Mof_C 	C 	0.6013	0.2879	0.3416	-0.274
Mof_O 	O 	0.0404	0.728	0.3312	-0.411
Mof_C 	C 	0.0626	0.7685	0.3187	0.369
Mof_C 	C 	0.1013	0.7879	0.3416	-0.275
Mof_O 	O 	0.0404	0.228	0.8312	-0.409
Mof_C 	C 	0.0626	0.2685	0.8187	0.369
Mof_C 	C 	0.1013	0.2879	0.8416	-0.275
Mof_O 	O 	0.8312	0.728	0.5404	-0.392
Mof_C 	C 	0.8187	0.7685	0.5626	0.375
Mof_C 	C 	0.8416	0.7879	0.6013	-0.272
Mof_O 	O 	0.8312	0.228	0.0404	-0.409
Mof_C 	C 	0.8187	0.2685	0.0626	0.369
Mof_C 	C 	0.8416	0.2879	0.1013	-0.275
Mof_O 	O 	0.3312	0.728	0.0404	-0.411
Mof_C 	C 	0.3187	0.7685	0.0626	0.369
Mof_C 	C 	0.3416	0.7879	0.1013	-0.275
Mof_O 	O 	0.3312	0.228	0.5404	-0.398
Mof_C 	C 	0.3187	0.2685	0.5626	0.372
Mof_C 	C 	0.3416	0.2879	0.6013	-0.274
Mof_O 	O 	0.1688	0.272	0.5404	-0.4
Mof_C 	C 	0.1813	0.2315	0.5626	0.369
Mof_C 	C 	0.1584	0.2121	0.6013	-0.274
Mof_O 	O 	0.1688	0.772	0.0404	-0.413
Mof_C 	C 	0.1813	0.7315	0.0626	0.366
Mof_C 	C 	0.1584	0.7121	0.1013	-0.277
Mof_O 	O 	0.6688	0.272	0.0404	-0.412
Mof_C 	C 	0.6813	0.2315	0.0626	0.366
Mof_C 	C 	0.6584	0.2121	0.1013	-0.276
Mof_O 	O 	0.6688	0.772	0.5404	-0.395
Mof_C 	C 	0.6813	0.7315	0.5626	0.372
Mof_C 	C 	0.6584	0.7121	0.6013	-0.274
Mof_O 	O 	0.1688	0.728	0.4596	-0.4
Mof_C 	C 	0.1813	0.7685	0.4374	0.371
Mof_C 	C 	0.1584	0.7879	0.3987	-0.274
Mof_O 	O 	0.1688	0.228	0.9596	-0.371
Mof_C 	C 	0.1813	0.2685	0.9374	0.368
Mof_C 	C 	0.1584	0.2879	0.8987	-0.268
Mof_O 	O 	0.6688	0.728	0.9596	-0.366
Mof_C 	C 	0.6813	0.7685	0.9374	0.371
Mof_C 	C 	0.6584	0.7879	0.8987	-0.268
Mof_O 	O 	0.6688	0.228	0.4596	-0.398
Mof_C 	C 	0.6813	0.2685	0.4374	0.372
Mof_C 	C 	0.6584	0.2879	0.3987	-0.274
Mof_O 	O 	0.8312	0.272	0.4596	-0.392
Mof_C 	C 	0.8187	0.2315	0.4374	0.372
Mof_C 	C 	0.8416	0.2121	0.3987	-0.273
Mof_O 	O 	0.8312	0.772	0.9596	-0.36
Mof_C 	C 	0.8187	0.7315	0.9374	0.372
Mof_C 	C 	0.8416	0.7121	0.8987	-0.267
Mof_O 	O 	0.3312	0.272	0.9596	-0.366
Mof_C 	C 	0.3187	0.2315	0.9374	0.369
Mof_C 	C 	0.3416	0.2121	0.8987	-0.268
Mof_O 	O 	0.3312	0.772	0.4596	-0.394
Mof_C 	C 	0.3187	0.7315	0.4374	0.372
Mof_C 	C 	0.3416	0.7121	0.3987	-0.274
Mof_O 	O 	0.5404	0.8312	0.728	-0.392
Mof_C 	C 	0.5626	0.8187	0.7685	0.375
Mof_C 	C 	0.6013	0.8416	0.7879	-0.272
Mof_O 	O 	0.5404	0.3312	0.228	-0.398
Mof_C 	C 	0.5626	0.3187	0.2685	0.372
Mof_C 	C 	0.6013	0.3416	0.2879	-0.274
Mof_O 	O 	0.0404	0.8312	0.228	-0.409
Mof_C 	C 	0.0626	0.8187	0.2685	0.369
Mof_C 	C 	0.1013	0.8416	0.2879	-0.275
Mof_O 	O 	0.0404	0.3312	0.728	-0.411
Mof_C 	C 	0.0626	0.3187	0.7685	0.369
Mof_C 	C 	0.1013	0.3416	0.7879	-0.275
Mof_O 	O 	0.5404	0.1688	0.272	-0.4
Mof_C 	C 	0.5626	0.1813	0.2315	0.369
Mof_C 	C 	0.6013	0.1584	0.2121	-0.274
Mof_O 	O 	0.5404	0.6688	0.772	-0.395
Mof_C 	C 	0.5626	0.6813	0.7315	0.372
Mof_C 	C 	0.6013	0.6584	0.7121	-0.274
Mof_O 	O 	0.0404	0.1688	0.772	-0.413
Mof_C 	C 	0.0626	0.1813	0.7315	0.366
Mof_C 	C 	0.1013	0.1584	0.7121	-0.277
Mof_O 	O 	0.0404	0.6688	0.272	-0.412
Mof_C 	C 	0.0626	0.6813	0.2315	0.366
Mof_C 	C 	0.1013	0.6584	0.2121	-0.276
Mof_O 	O 	0.4596	0.1688	0.728	-0.4
Mof_C 	C 	0.4374	0.1813	0.7685	0.371
Mof_C 	C 	0.3987	0.1584	0.7879	-0.274
Mof_O 	O 	0.4596	0.6688	0.228	-0.398
Mof_C 	C 	0.4374	0.6813	0.2685	0.372
Mof_C 	C 	0.3987	0.6584	0.2879	-0.274
Mof_O 	O 	0.9596	0.1688	0.228	-0.371
Mof_C 	C 	0.9374	0.1813	0.2685	0.368
Mof_C 	C 	0.8987	0.1584	0.2879	-0.268
Mof_O 	O 	0.9596	0.6688	0.728	-0.366
Mof_C 	C 	0.9374	0.6813	0.7685	0.371
Mof_C 	C 	0.8987	0.6584	0.7879	-0.268
Mof_O 	O 	0.4596	0.8312	0.272	-0.392
Mof_C 	C 	0.4374	0.8187	0.2315	0.372
Mof_C 	C 	0.3987	0.8416	0.2121	-0.273
Mof_O 	O 	0.4596	0.3312	0.772	-0.394
Mof_C 	C 	0.4374	0.3187	0.7315	0.372
Mof_C 	C 	0.3987	0.3416	0.7121	-0.274
Mof_O 	O 	0.9596	0.8312	0.772	-0.36
Mof_C 	C 	0.9374	0.8187	0.7315	0.372
Mof_C 	C 	0.8987	0.8416	0.7121	-0.267
Mof_O 	O 	0.9596	0.3312	0.272	-0.366
Mof_C 	C 	0.9374	0.3187	0.2315	0.369
Mof_C 	C 	0.8987	0.3416	0.2121	-0.268
Mof_O 	O 	0.728	0.5404	0.8312	-0.392
Mof_C 	C 	0.7685	0.5626	0.8187	0.375
Mof_C 	C 	0.7879	0.6013	0.8416	-0.272
Mof_O 	O 	0.728	0.0404	0.3312	-0.411
Mof_C 	C 	0.7685	0.0626	0.3187	0.369
Mof_C 	C 	0.7879	0.1013	0.3416	-0.275
Mof_O 	O 	0.228	0.5404	0.3312	-0.398
Mof_C 	C 	0.2685	0.5626	0.3187	0.372
Mof_C 	C 	0.2879	0.6013	0.3416	-0.274
Mof_O 	O 	0.228	0.0404	0.8312	-0.409
Mof_C 	C 	0.2685	0.0626	0.8187	0.369
Mof_C 	C 	0.2879	0.1013	0.8416	-0.275
Mof_O 	O 	0.272	0.5404	0.1688	-0.4
Mof_C 	C 	0.2315	0.5626	0.1813	0.369
Mof_C 	C 	0.2121	0.6013	0.1584	-0.274
Mof_O 	O 	0.272	0.0404	0.6688	-0.412
Mof_C 	C 	0.2315	0.0626	0.6813	0.366
Mof_C 	C 	0.2121	0.1013	0.6584	-0.276
Mof_O 	O 	0.772	0.5404	0.6688	-0.395
Mof_C 	C 	0.7315	0.5626	0.6813	0.372
Mof_C 	C 	0.7121	0.6013	0.6584	-0.274
Mof_O 	O 	0.772	0.0404	0.1688	-0.413
Mof_C 	C 	0.7315	0.0626	0.1813	0.366
Mof_C 	C 	0.7121	0.1013	0.1584	-0.277
Mof_O 	O 	0.728	0.4596	0.1688	-0.4
Mof_C 	C 	0.7685	0.4374	0.1813	0.371
Mof_C 	C 	0.7879	0.3987	0.1584	-0.274
Mof_O 	O 	0.728	0.9596	0.6688	-0.366
Mof_C 	C 	0.7685	0.9374	0.6813	0.371
Mof_C 	C 	0.7879	0.8987	0.6584	-0.268
Mof_O 	O 	0.228	0.4596	0.6688	-0.398
Mof_C 	C 	0.2685	0.4374	0.6813	0.372
Mof_C 	C 	0.2879	0.3987	0.6584	-0.274
Mof_O 	O 	0.228	0.9596	0.1688	-0.371
Mof_C 	C 	0.2685	0.9374	0.1813	0.368
Mof_C 	C 	0.2879	0.8987	0.1584	-0.268
Mof_O 	O 	0.272	0.4596	0.8312	-0.392
Mof_C 	C 	0.2315	0.4374	0.8187	0.372
Mof_C 	C 	0.2121	0.3987	0.8416	-0.273
Mof_O 	O 	0.272	0.9596	0.3312	-0.366
Mof_C 	C 	0.2315	0.9374	0.3187	0.369
Mof_C 	C 	0.2121	0.8987	0.3416	-0.268
Mof_O 	O 	0.772	0.4596	0.3312	-0.394
Mof_C 	C 	0.7315	0.4374	0.3187	0.372
Mof_C 	C 	0.7121	0.3987	0.3416	-0.274
Mof_O 	O 	0.772	0.9596	0.8312	-0.36
Mof_C 	C 	0.7315	0.9374	0.8187	0.372
Mof_C 	C 	0.7121	0.8987	0.8416	-0.267
Mof_O 	O 	0.728	0.8312	0.4596	-0.392
Mof_C 	C 	0.7685	0.8187	0.4374	0.375
Mof_C 	C 	0.7879	0.8416	0.3987	-0.272
Mof_O 	O 	0.728	0.3312	0.9596	-0.366
Mof_C 	C 	0.7685	0.3187	0.9374	0.371
Mof_C 	C 	0.7879	0.3416	0.8987	-0.267
Mof_O 	O 	0.228	0.8312	0.9596	-0.364
Mof_C 	C 	0.2685	0.8187	0.9374	0.372
Mof_C 	C 	0.2879	0.8416	0.8987	-0.267
Mof_O 	O 	0.228	0.3312	0.4596	-0.398
Mof_C 	C 	0.2685	0.3187	0.4374	0.372
Mof_C 	C 	0.2879	0.3416	0.3987	-0.274
Mof_O 	O 	0.272	0.1688	0.4596	-0.4
Mof_C 	C 	0.2315	0.1813	0.4374	0.369
Mof_C 	C 	0.2121	0.1584	0.3987	-0.274
Mof_O 	O 	0.272	0.6688	0.9596	-0.366
Mof_C 	C 	0.2315	0.6813	0.9374	0.369
Mof_C 	C 	0.2121	0.6584	0.8987	-0.268
Mof_O 	O 	0.772	0.1688	0.9596	-0.368
Mof_C 	C 	0.7315	0.1813	0.9374	0.368
Mof_C 	C 	0.7121	0.1584	0.8987	-0.269
Mof_O 	O 	0.772	0.6688	0.4596	-0.394
Mof_C 	C 	0.7315	0.6813	0.4374	0.372
Mof_C 	C 	0.7121	0.6584	0.3987	-0.274
Mof_O 	O 	0.728	0.1688	0.5404	-0.4
Mof_C 	C 	0.7685	0.1813	0.5626	0.371
Mof_C 	C 	0.7879	0.1584	0.6013	-0.274
Mof_O 	O 	0.728	0.6688	0.0404	-0.411
Mof_C 	C 	0.7685	0.6813	0.0626	0.369
Mof_C 	C 	0.7879	0.6584	0.1013	-0.276
Mof_O 	O 	0.228	0.1688	0.0404	-0.416
Mof_C 	C 	0.2685	0.1813	0.0626	0.366
Mof_C 	C 	0.2879	0.1584	0.1013	-0.276
Mof_O 	O 	0.228	0.6688	0.5404	-0.398
Mof_C 	C 	0.2685	0.6813	0.5626	0.372
Mof_C 	C 	0.2879	0.6584	0.6013	-0.274
Mof_O 	O 	0.272	0.8312	0.5404	-0.392
Mof_C 	C 	0.2315	0.8187	0.5626	0.372
Mof_C 	C 	0.2121	0.8416	0.6013	-0.273
Mof_O 	O 	0.272	0.3312	0.0404	-0.412
Mof_C 	C 	0.2315	0.3187	0.0626	0.366
Mof_C 	C 	0.2121	0.3416	0.1013	-0.276
Mof_O 	O 	0.772	0.8312	0.0404	-0.405
Mof_C 	C 	0.7315	0.8187	0.0626	0.369
Mof_C 	C 	0.7121	0.8416	0.1013	-0.275
Mof_O 	O 	0.772	0.3312	0.5404	-0.394
Mof_C 	C 	0.7315	0.3187	0.5626	0.372
Mof_C 	C 	0.7121	0.3416	0.6013	-0.274
Mof_O 	O 	0.8312	0.5404	0.272	-0.392
Mof_C 	C 	0.8187	0.5626	0.2315	0.372
Mof_C 	C 	0.8416	0.6013	0.2121	-0.273
Mof_O 	O 	0.8312	0.0404	0.772	-0.405
Mof_C 	C 	0.8187	0.0626	0.7315	0.369
Mof_C 	C 	0.8416	0.1013	0.7121	-0.275
Mof_O 	O 	0.3312	0.5404	0.772	-0.394
Mof_C 	C 	0.3187	0.5626	0.7315	0.372
Mof_C 	C 	0.3416	0.6013	0.7121	-0.274
Mof_O 	O 	0.3312	0.0404	0.272	-0.412
Mof_C 	C 	0.3187	0.0626	0.2315	0.366
Mof_C 	C 	0.3416	0.1013	0.2121	-0.276
Mof_O 	O 	0.1688	0.5404	0.728	-0.4
Mof_C 	C 	0.1813	0.5626	0.7685	0.371
Mof_C 	C 	0.1584	0.6013	0.7879	-0.274
Mof_O 	O 	0.1688	0.0404	0.228	-0.416
Mof_C 	C 	0.1813	0.0626	0.2685	0.366
Mof_C 	C 	0.1584	0.1013	0.2879	-0.276
Mof_O 	O 	0.6688	0.5404	0.228	-0.398
Mof_C 	C 	0.6813	0.5626	0.2685	0.372
Mof_C 	C 	0.6584	0.6013	0.2879	-0.274
Mof_O 	O 	0.6688	0.0404	0.728	-0.411
Mof_C 	C 	0.6813	0.0626	0.7685	0.369
Mof_C 	C 	0.6584	0.1013	0.7879	-0.276
Mof_O 	O 	0.1688	0.4596	0.272	-0.4
Mof_C 	C 	0.1813	0.4374	0.2315	0.369
Mof_C 	C 	0.1584	0.3987	0.2121	-0.274
Mof_O 	O 	0.1688	0.9596	0.772	-0.368
Mof_C 	C 	0.1813	0.9374	0.7315	0.368
Mof_C 	C 	0.1584	0.8987	0.7121	-0.269
Mof_O 	O 	0.6688	0.4596	0.772	-0.394
Mof_C 	C 	0.6813	0.4374	0.7315	0.372
Mof_C 	C 	0.6584	0.3987	0.7121	-0.274
Mof_O 	O 	0.6688	0.9596	0.272	-0.366
Mof_C 	C 	0.6813	0.9374	0.2315	0.369
Mof_C 	C 	0.6584	0.8987	0.2121	-0.268
Mof_O 	O 	0.8312	0.4596	0.728	-0.392
Mof_C 	C 	0.8187	0.4374	0.7685	0.375
Mof_C 	C 	0.8416	0.3987	0.7879	-0.272
Mof_O 	O 	0.8312	0.9596	0.228	-0.364
Mof_C 	C 	0.8187	0.9374	0.2685	0.372
Mof_C 	C 	0.8416	0.8987	0.2879	-0.267
Mof_O 	O 	0.3312	0.4596	0.228	-0.398
Mof_C 	C 	0.3187	0.4374	0.2685	0.372
Mof_C 	C 	0.3416	0.3987	0.2879	-0.274
Mof_O 	O 	0.3312	0.9596	0.728	-0.366
Mof_C 	C 	0.3187	0.9374	0.7685	0.371
Mof_C 	C 	0.3416	0.8987	0.7879	-0.267
Mof_O 	O 	0.5404	0.728	0.1688	-0.4
Mof_C 	C 	0.5626	0.7685	0.1813	0.371
Mof_C 	C 	0.6013	0.7879	0.1584	-0.274
Mof_O 	O 	0.5404	0.228	0.6688	-0.398
Mof_C 	C 	0.5626	0.2685	0.6813	0.372
Mof_C 	C 	0.6013	0.2879	0.6584	-0.274
Mof_O 	O 	0.0404	0.728	0.6688	-0.411
Mof_C 	C 	0.0626	0.7685	0.6813	0.369
Mof_C 	C 	0.1013	0.7879	0.6584	-0.276
Mof_O 	O 	0.0404	0.228	0.1688	-0.416
Mof_C 	C 	0.0626	0.2685	0.1813	0.366
Mof_C 	C 	0.1013	0.2879	0.1584	-0.276
Mof_O 	O 	0.5404	0.272	0.8312	-0.392
Mof_C 	C 	0.5626	0.2315	0.8187	0.372
Mof_C 	C 	0.6013	0.2121	0.8416	-0.273
Mof_O 	O 	0.5404	0.772	0.3312	-0.394
Mof_C 	C 	0.5626	0.7315	0.3187	0.372
Mof_C 	C 	0.6013	0.7121	0.3416	-0.274
Mof_O 	O 	0.0404	0.272	0.3312	-0.412
Mof_C 	C 	0.0626	0.2315	0.3187	0.366
Mof_C 	C 	0.1013	0.2121	0.3416	-0.276
Mof_O 	O 	0.0404	0.772	0.8312	-0.405
Mof_C 	C 	0.0626	0.7315	0.8187	0.369
Mof_C 	C 	0.1013	0.7121	0.8416	-0.275
Mof_O 	O 	0.4596	0.728	0.8312	-0.392
Mof_C 	C 	0.4374	0.7685	0.8187	0.375
Mof_C 	C 	0.3987	0.7879	0.8416	-0.272
Mof_O 	O 	0.4596	0.228	0.3312	-0.398
Mof_C 	C 	0.4374	0.2685	0.3187	0.372
Mof_C 	C 	0.3987	0.2879	0.3416	-0.274
Mof_O 	O 	0.9596	0.728	0.3312	-0.366
Mof_C 	C 	0.9374	0.7685	0.3187	0.371
Mof_C 	C 	0.8987	0.7879	0.3416	-0.267
Mof_O 	O 	0.9596	0.228	0.8312	-0.364
Mof_C 	C 	0.9374	0.2685	0.8187	0.372
Mof_C 	C 	0.8987	0.2879	0.8416	-0.267
Mof_O 	O 	0.4596	0.272	0.1688	-0.4
Mof_C 	C 	0.4374	0.2315	0.1813	0.369
Mof_C 	C 	0.3987	0.2121	0.1584	-0.274
Mof_O 	O 	0.4596	0.772	0.6688	-0.394
Mof_C 	C 	0.4374	0.7315	0.6813	0.372
Mof_C 	C 	0.3987	0.7121	0.6584	-0.274
Mof_O 	O 	0.9596	0.272	0.6688	-0.366
Mof_C 	C 	0.9374	0.2315	0.6813	0.369
Mof_C 	C 	0.8987	0.2121	0.6584	-0.268
Mof_O 	O 	0.9596	0.772	0.1688	-0.368
Mof_C 	C 	0.9374	0.7315	0.1813	0.368
Mof_C 	C 	0.8987	0.7121	0.1584	-0.269
Mof_Cu	Cu	0.25	0.25	0.5	0.933
Mof_Cu	Cu	0.25	0.75	-0	0.907
Mof_Cu	Cu	0.75	0.75	0.5	0.932
Mof_Cu	Cu	0.75	0.25	-0	0.907
Mof_Cu	Cu	0.75	0.25	0.5	0.932
Mof_Cu	Cu	0.75	0.75	-0	0.907
Mof_Cu	Cu	0.25	0.25	-0	0.907
Mof_Cu	Cu	0.25	0.75	0.5	0.932
Mof_Cu	Cu	0.5	0.25	0.25	0.933
Mof_Cu	Cu	-4.79559e-33	0.25	0.75	0.907
Mof_Cu	Cu	0.5	0.75	0.75	0.932
Mof_Cu	Cu	-4.76838e-33	0.75	0.25	0.907
Mof_Cu	Cu	0.5	0.75	0.25	0.932
Mof_Cu	Cu	2.81205e-33	0.75	0.75	0.907
Mof_Cu	Cu	-4.76838e-33	0.25	0.25	0.907
Mof_Cu	Cu	0.5	0.25	0.75	0.932
Mof_Cu	Cu	0.25	0.5	0.25	0.933
Mof_Cu	Cu	0.25	7.60764e-33	0.75	0.907
Mof_Cu	Cu	0.75	0.5	0.75	0.932
Mof_Cu	Cu	0.75	0	0.25	0.907
Mof_Cu	Cu	0.25	0.5	0.75	0.932
Mof_Cu	Cu	0.25	0	0.25	0.907
Mof_Cu	Cu	0.75	0.5	0.25	0.932
Mof_Cu	Cu	0.75	7.60764e-33	0.75	0.907
Mof_Cu	Cu	0.19385	0.30615	0.5	0.96
Mof_Cu	Cu	0.19385	0.80615	-0	0.934
Mof_Cu	Cu	0.80615	0.69385	0.5	0.963
Mof_Cu	Cu	0.80615	0.19385	-0	0.934
Mof_Cu	Cu	0.80615	0.30615	0.5	0.963
Mof_Cu	Cu	0.80615	0.80615	-0	0.937
Mof_Cu	Cu	0.19385	0.69385	0.5	0.96
Mof_Cu	Cu	0.19385	0.19385	-0	0.932
Mof_Cu	Cu	0.5	0.19385	0.30615	0.96
Mof_Cu	Cu	-1.21927e-32	0.19385	0.80615	0.934
Mof_Cu	Cu	0.5	0.80615	0.69385	0.963
Mof_Cu	Cu	-8.78273e-33	0.80615	0.19385	0.934
Mof_Cu	Cu	0.5	0.80615	0.30615	0.963
Mof_Cu	Cu	-1.21927e-32	0.80615	0.80615	0.937
Mof_Cu	Cu	0.5	0.19385	0.69385	0.96
Mof_Cu	Cu	7.26821e-34	0.19385	0.19385	0.932
Mof_Cu	Cu	0.30615	0.5	0.19385	0.96
Mof_Cu	Cu	0.30615	7.60764e-33	0.69385	0.934
Mof_Cu	Cu	0.69385	0.5	0.80615	0.963
Mof_Cu	Cu	0.69385	-3.80382e-33	0.30615	0.934
Mof_Cu	Cu	0.30615	0.5	0.80615	0.963
Mof_Cu	Cu	0.30615	-3.80382e-33	0.30615	0.934
Mof_Cu	Cu	0.69385	0.5	0.19385	0.96
Mof_Cu	Cu	0.69385	7.60764e-33	0.69385	0.934
Mof_Cu	Cu	0.30615	0.19385	0.5	0.96
Mof_Cu	Cu	0.30615	0.69385	-0	0.934
Mof_Cu	Cu	0.69385	0.80615	0.5	0.963
Mof_Cu	Cu	0.69385	0.30615	-0	0.934
Mof_Cu	Cu	0.30615	0.80615	0.5	0.963
Mof_Cu	Cu	0.30615	0.30615	-0	0.934
Mof_Cu	Cu	0.69385	0.19385	0.5	0.96
Mof_Cu	Cu	0.69385	0.69385	-0	0.934
Mof_Cu	Cu	0.19385	0.5	0.69385	0.96
Mof_Cu	Cu	0.19385	0	0.19385	0.932
Mof_Cu	Cu	0.80615	0.5	0.30615	0.963
Mof_Cu	Cu	0.80615	0	0.80615	0.937
Mof_Cu	Cu	0.80615	0.5	0.69385	0.963
Mof_Cu	Cu	0.80615	0	0.19385	0.934
Mof_Cu	Cu	0.19385	0.5	0.30615	0.96
Mof_Cu	Cu	0.19385	0	0.80615	0.934
Mof_Cu	Cu	0.5	0.30615	0.80615	0.963
Mof_Cu	Cu	-6.45976e-33	0.30615	0.30615	0.934
Mof_Cu	Cu	0.5	0.69385	0.19385	0.96
Mof_Cu	Cu	-1.26138e-32	0.69385	0.69385	0.934
Mof_Cu	Cu	0.5	0.30615	0.19385	0.96
Mof_Cu	Cu	-1.26138e-32	0.30615	0.69385	0.934
Mof_Cu	Cu	0.5	0.69385	0.80615	0.963
Mof_Cu	Cu	-6.45976e-33	0.69385	0.30615	0.934
Mof_O 	O 	0.2193	0.2193	0.4563	-0.507
Mof_C 	C 	0.1752	0.1752	0.3832	0.292
Mof_O 	O 	0.2193	0.7193	0.9563	-0.484
Mof_C 	C 	0.1752	0.6752	0.8832	0.295
Mof_O 	O 	0.7193	0.2193	0.9563	-0.484
Mof_C 	C 	0.6752	0.1752	0.8832	0.295
Mof_O 	O 	0.7193	0.7193	0.4563	-0.508
Mof_C 	C 	0.6752	0.6752	0.3832	0.297
Mof_O 	O 	0.7807	0.7807	0.4563	-0.508
Mof_C 	C 	0.8248	0.8248	0.3832	0.3
Mof_O 	O 	0.7807	0.2807	0.9563	-0.484
Mof_C 	C 	0.8248	0.3248	0.8832	0.298
Mof_O 	O 	0.2807	0.7807	0.9563	-0.484
Mof_C 	C 	0.3248	0.8248	0.8832	0.298
Mof_O 	O 	0.2807	0.2807	0.4563	-0.507
Mof_C 	C 	0.3248	0.3248	0.3832	0.297
Mof_O 	O 	0.7807	0.2193	0.5437	-0.508
Mof_C 	C 	0.8248	0.1752	0.6168	0.296
Mof_O 	O 	0.7807	0.7193	0.0437	-0.516
Mof_C 	C 	0.8248	0.6752	0.1168	0.296
Mof_O 	O 	0.2807	0.2193	0.0437	-0.515
Mof_C 	C 	0.3248	0.1752	0.1168	0.292
Mof_O 	O 	0.2807	0.7193	0.5437	-0.508
Mof_C 	C 	0.3248	0.6752	0.6168	0.297
Mof_O 	O 	0.2193	0.7807	0.5437	-0.508
Mof_C 	C 	0.1752	0.8248	0.6168	0.296
Mof_O 	O 	0.2193	0.2807	0.0437	-0.515
Mof_C 	C 	0.1752	0.3248	0.1168	0.292
Mof_O 	O 	0.7193	0.7807	0.0437	-0.516
Mof_C 	C 	0.6752	0.8248	0.1168	0.296
Mof_O 	O 	0.7193	0.2807	0.5437	-0.508
Mof_C 	C 	0.6752	0.3248	0.6168	0.297
Mof_O 	O 	0.4563	0.2193	0.2193	-0.507
Mof_C 	C 	0.3832	0.1752	0.1752	0.292
Mof_O 	O 	0.4563	0.7193	0.7193	-0.508
Mof_C 	C 	0.3832	0.6752	0.6752	0.297
Mof_O 	O 	0.9563	0.2193	0.7193	-0.484
Mof_C 	C 	0.8832	0.1752	0.6752	0.295
Mof_O 	O 	0.9563	0.7193	0.2193	-0.484
Mof_C 	C 	0.8832	0.6752	0.1752	0.295
Mof_O 	O 	0.4563	0.7807	0.7807	-0.508
Mof_C 	C 	0.3832	0.8248	0.8248	0.3
Mof_O 	O 	0.4563	0.2807	0.2807	-0.507
Mof_C 	C 	0.3832	0.3248	0.3248	0.297
Mof_O 	O 	0.9563	0.7807	0.2807	-0.484
Mof_C 	C 	0.8832	0.8248	0.3248	0.298
Mof_O 	O 	0.9563	0.2807	0.7807	-0.484
Mof_C 	C 	0.8832	0.3248	0.8248	0.298
Mof_O 	O 	0.5437	0.7807	0.2193	-0.508
Mof_C 	C 	0.6168	0.8248	0.1752	0.296
Mof_O 	O 	0.5437	0.2807	0.7193	-0.508
Mof_C 	C 	0.6168	0.3248	0.6752	0.297
Mof_O 	O 	0.0437	0.7807	0.7193	-0.516
Mof_C 	C 	0.1168	0.8248	0.6752	0.296
Mof_O 	O 	0.0437	0.2807	0.2193	-0.515
Mof_C 	C 	0.1168	0.3248	0.1752	0.292
Mof_O 	O 	0.5437	0.2193	0.7807	-0.508
Mof_C 	C 	0.6168	0.1752	0.8248	0.296
Mof_O 	O 	0.5437	0.7193	0.2807	-0.508
Mof_C 	C 	0.6168	0.6752	0.3248	0.297
Mof_O 	O 	0.0437	0.2193	0.2807	-0.515
Mof_C 	C 	0.1168	0.1752	0.3248	0.292
Mof_O 	O 	0.0437	0.7193	0.7807	-0.516
Mof_C 	C 	0.1168	0.6752	0.8248	0.296
Mof_O 	O 	0.2193	0.4563	0.2193	-0.507
Mof_C 	C 	0.1752	0.3832	0.1752	0.292
Mof_O 	O 	0.2193	0.9563	0.7193	-0.484
Mof_C 	C 	0.1752	0.8832	0.6752	0.295
Mof_O 	O 	0.7193	0.4563	0.7193	-0.508
Mof_C 	C 	0.6752	0.3832	0.6752	0.297
Mof_O 	O 	0.7193	0.9563	0.2193	-0.484
Mof_C 	C 	0.6752	0.8832	0.1752	0.295
Mof_O 	O 	0.7807	0.4563	0.7807	-0.508
Mof_C 	C 	0.8248	0.3832	0.8248	0.3
Mof_O 	O 	0.7807	0.9563	0.2807	-0.484
Mof_C 	C 	0.8248	0.8832	0.3248	0.298
Mof_O 	O 	0.2807	0.4563	0.2807	-0.507
Mof_C 	C 	0.3248	0.3832	0.3248	0.297
Mof_O 	O 	0.2807	0.9563	0.7807	-0.484
Mof_C 	C 	0.3248	0.8832	0.8248	0.298
Mof_O 	O 	0.2193	0.5437	0.7807	-0.508
Mof_C 	C 	0.1752	0.6168	0.8248	0.296
Mof_O 	O 	0.2193	0.0437	0.2807	-0.515
Mof_C 	C 	0.1752	0.1168	0.3248	0.292
Mof_O 	O 	0.7193	0.5437	0.2807	-0.508
Mof_C 	C 	0.6752	0.6168	0.3248	0.297
Mof_O 	O 	0.7193	0.0437	0.7807	-0.516
Mof_C 	C 	0.6752	0.1168	0.8248	0.296
Mof_O 	O 	0.7807	0.5437	0.2193	-0.508
Mof_C 	C 	0.8248	0.6168	0.1752	0.296
Mof_O 	O 	0.7807	0.0437	0.7193	-0.516
Mof_C 	C 	0.8248	0.1168	0.6752	0.296
Mof_O 	O 	0.2807	0.5437	0.7193	-0.508
Mof_C 	C 	0.3248	0.6168	0.6752	0.297
Mof_O 	O 	0.2807	0.0437	0.2193	-0.515
Mof_C 	C 	0.3248	0.1168	0.1752	0.292
Mof_O 	O 	0.2193	0.2193	0.5437	-0.507
Mof_C 	C 	0.1752	0.1752	0.6168	0.292
Mof_O 	O 	0.2193	0.7193	0.0437	-0.516
Mof_C 	C 	0.1752	0.6752	0.1168	0.292
Mof_O 	O 	0.7193	0.2193	0.0437	-0.516
Mof_C 	C 	0.6752	0.1752	0.1168	0.292
Mof_O 	O 	0.7193	0.7193	0.5437	-0.508
Mof_C 	C 	0.6752	0.6752	0.6168	0.298
Mof_O 	O 	0.7807	0.7807	0.5437	-0.508
Mof_C 	C 	0.8248	0.8248	0.6168	0.3
Mof_O 	O 	0.7807	0.2807	0.0437	-0.516
Mof_C 	C 	0.8248	0.3248	0.1168	0.296
Mof_O 	O 	0.2807	0.7807	0.0437	-0.516
Mof_C 	C 	0.3248	0.8248	0.1168	0.296
Mof_O 	O 	0.2807	0.2807	0.5437	-0.507
Mof_C 	C 	0.3248	0.3248	0.6168	0.297
Mof_O 	O 	0.2193	0.7807	0.4563	-0.508
Mof_C 	C 	0.1752	0.8248	0.3832	0.296
Mof_O 	O 	0.2193	0.2807	0.9563	-0.483
Mof_C 	C 	0.1752	0.3248	0.8832	0.294
Mof_O 	O 	0.7193	0.7807	0.9563	-0.484
Mof_C 	C 	0.6752	0.8248	0.8832	0.299
Mof_O 	O 	0.7193	0.2807	0.4563	-0.508
Mof_C 	C 	0.6752	0.3248	0.3832	0.297
Mof_O 	O 	0.7807	0.2193	0.4563	-0.508
Mof_C 	C 	0.8248	0.1752	0.3832	0.296
Mof_O 	O 	0.7807	0.7193	0.9563	-0.484
Mof_C 	C 	0.8248	0.6752	0.8832	0.299
Mof_O 	O 	0.2807	0.2193	0.9563	-0.483
Mof_C 	C 	0.3248	0.1752	0.8832	0.294
Mof_O 	O 	0.2807	0.7193	0.4563	-0.508
Mof_C 	C 	0.3248	0.6752	0.3832	0.297
Mof_O 	O 	0.2193	0.4563	0.7807	-0.508
Mof_C 	C 	0.1752	0.3832	0.8248	0.296
Mof_O 	O 	0.2193	0.9563	0.2807	-0.483
Mof_C 	C 	0.1752	0.8832	0.3248	0.294
Mof_O 	O 	0.7193	0.4563	0.2807	-0.508
Mof_C 	C 	0.6752	0.3832	0.3248	0.297
Mof_O 	O 	0.7193	0.9563	0.7807	-0.484
Mof_C 	C 	0.6752	0.8832	0.8248	0.299
Mof_O 	O 	0.7807	0.4563	0.2193	-0.508
Mof_C 	C 	0.8248	0.3832	0.1752	0.296
Mof_O 	O 	0.7807	0.9563	0.7193	-0.484
Mof_C 	C 	0.8248	0.8832	0.6752	0.299
Mof_O 	O 	0.2807	0.4563	0.7193	-0.508
Mof_C 	C 	0.3248	0.3832	0.6752	0.297
Mof_O 	O 	0.2807	0.9563	0.2193	-0.483
Mof_C 	C 	0.3248	0.8832	0.1752	0.294
Mof_O 	O 	0.7807	0.5437	0.7807	-0.508
Mof_C 	C 	0.8248	0.6168	0.8248	0.3
Mof_O 	O 	0.7807	0.0437	0.2807	-0.516
Mof_C 	C 	0.8248	0.1168	0.3248	0.296
Mof_O 	O 	0.2807	0.5437	0.2807	-0.507
Mof_C 	C 	0.3248	0.6168	0.3248	0.297
Mof_O 	O 	0.2807	0.0437	0.7807	-0.516
Mof_C 	C 	0.3248	0.1168	0.8248	0.296
Mof_O 	O 	0.2193	0.5437	0.2193	-0.507
Mof_C 	C 	0.1752	0.6168	0.1752	0.292
Mof_O 	O 	0.2193	0.0437	0.7193	-0.516
Mof_C 	C 	0.1752	0.1168	0.6752	0.292
Mof_O 	O 	0.7193	0.5437	0.7193	-0.508
Mof_C 	C 	0.6752	0.6168	0.6752	0.298
Mof_O 	O 	0.7193	0.0437	0.2193	-0.516
Mof_C 	C 	0.6752	0.1168	0.1752	0.292
Mof_O 	O 	0.4563	0.2193	0.7807	-0.508
Mof_C 	C 	0.3832	0.1752	0.8248	0.296
Mof_O 	O 	0.4563	0.7193	0.2807	-0.508
Mof_C 	C 	0.3832	0.6752	0.3248	0.297
Mof_O 	O 	0.9563	0.2193	0.2807	-0.483
Mof_C 	C 	0.8832	0.1752	0.3248	0.294
Mof_O 	O 	0.9563	0.7193	0.7807	-0.484
Mof_C 	C 	0.8832	0.6752	0.8248	0.299
Mof_O 	O 	0.4563	0.7807	0.2193	-0.508
Mof_C 	C 	0.3832	0.8248	0.1752	0.296
Mof_O 	O 	0.4563	0.2807	0.7193	-0.508
Mof_C 	C 	0.3832	0.3248	0.6752	0.297
Mof_O 	O 	0.9563	0.7807	0.7193	-0.484
Mof_C 	C 	0.8832	0.8248	0.6752	0.299
Mof_O 	O 	0.9563	0.2807	0.2193	-0.483
Mof_C 	C 	0.8832	0.3248	0.1752	0.294
Mof_O 	O 	0.5437	0.2193	0.2193	-0.507
Mof_C 	C 	0.6168	0.1752	0.1752	0.292
Mof_O 	O 	0.5437	0.7193	0.7193	-0.508
Mof_C 	C 	0.6168	0.6752	0.6752	0.298
Mof_O 	O 	0.0437	0.2193	0.7193	-0.516
Mof_C 	C 	0.1168	0.1752	0.6752	0.292
Mof_O 	O 	0.0437	0.7193	0.2193	-0.516
Mof_C 	C 	0.1168	0.6752	0.1752	0.292
Mof_O 	O 	0.5437	0.7807	0.7807	-0.508
Mof_C 	C 	0.6168	0.8248	0.8248	0.3
Mof_O 	O 	0.5437	0.2807	0.2807	-0.507
Mof_C 	C 	0.6168	0.3248	0.3248	0.297
Mof_O 	O 	0.0437	0.7807	0.2807	-0.516
Mof_C 	C 	0.1168	0.8248	0.3248	0.296
Mof_O 	O 	0.0437	0.2807	0.7807	-0.516
Mof_C 	C 	0.1168	0.3248	0.8248	0.296
Mof_C 	C 	0.1235	0.236	0.3765	0.172
Mof_C 	C 	0.1235	0.736	0.8765	0.18
Mof_C 	C 	0.8765	0.764	0.3765	0.185
Mof_C 	C 	0.8765	0.264	0.8765	0.188
Mof_C 	C 	0.3765	0.264	0.3765	0.178
Mof_C 	C 	0.8765	0.236	0.6235	0.183
Mof_C 	C 	0.8765	0.736	0.1235	0.18
Mof_C 	C 	0.3765	0.236	0.1235	0.172
Mof_C 	C 	0.1235	0.764	0.6235	0.174
Mof_C 	C 	0.1235	0.264	0.1235	0.166
Mof_C 	C 	0.3765	0.1235	0.236	0.172
Mof_C 	C 	0.3765	0.6235	0.736	0.181
Mof_C 	C 	0.3765	0.8765	0.764	0.185
Mof_C 	C 	0.3765	0.3765	0.264	0.178
Mof_C 	C 	0.6235	0.8765	0.236	0.183
Mof_C 	C 	0.6235	0.3765	0.736	0.181
Mof_C 	C 	0.1235	0.3765	0.236	0.172
Mof_C 	C 	0.6235	0.1235	0.764	0.174
Mof_C 	C 	0.6235	0.6235	0.264	0.177
Mof_C 	C 	0.1235	0.1235	0.264	0.166
Mof_C 	C 	0.236	0.3765	0.1235	0.172
Mof_C 	C 	0.736	0.3765	0.6235	0.181
Mof_C 	C 	0.764	0.3765	0.8765	0.185
Mof_C 	C 	0.264	0.3765	0.3765	0.178
Mof_C 	C 	0.236	0.6235	0.8765	0.183
Mof_C 	C 	0.236	0.1235	0.3765	0.172
Mof_C 	C 	0.736	0.6235	0.3765	0.181
Mof_C 	C 	0.764	0.6235	0.1235	0.174
Mof_C 	C 	0.264	0.6235	0.6235	0.177
Mof_C 	C 	0.264	0.1235	0.1235	0.166
Mof_C 	C 	0.236	0.1235	0.6235	0.172
Mof_C 	C 	0.736	0.1235	0.1235	0.169
Mof_C 	C 	0.764	0.8765	0.6235	0.185
Mof_C 	C 	0.764	0.3765	0.1235	0.174
Mof_C 	C 	0.264	0.8765	0.1235	0.177
Mof_C 	C 	0.236	0.8765	0.3765	0.183
Mof_C 	C 	0.736	0.8765	0.8765	0.191
Mof_C 	C 	0.736	0.3765	0.3765	0.181
Mof_C 	C 	0.764	0.1235	0.3765	0.174
Mof_C 	C 	0.264	0.1235	0.8765	0.177
Mof_C 	C 	0.1235	0.3765	0.764	0.174
Mof_C 	C 	0.1235	0.8765	0.264	0.177
Mof_C 	C 	0.8765	0.3765	0.236	0.183
Mof_C 	C 	0.8765	0.8765	0.736	0.191
Mof_C 	C 	0.3765	0.3765	0.736	0.181
Mof_C 	C 	0.8765	0.6235	0.764	0.185
Mof_C 	C 	0.8765	0.1235	0.264	0.177
Mof_C 	C 	0.3765	0.1235	0.764	0.174
Mof_C 	C 	0.1235	0.6235	0.236	0.172
Mof_C 	C 	0.1235	0.1235	0.736	0.169
Mof_C 	C 	0.3765	0.236	0.8765	0.183
Mof_C 	C 	0.3765	0.736	0.3765	0.181
Mof_C 	C 	0.3765	0.764	0.1235	0.174
Mof_C 	C 	0.3765	0.264	0.6235	0.178
Mof_C 	C 	0.6235	0.236	0.1235	0.172
Mof_C 	C 	0.6235	0.736	0.6235	0.181
Mof_C 	C 	0.1235	0.736	0.1235	0.169
Mof_C 	C 	0.6235	0.764	0.8765	0.185
Mof_C 	C 	0.6235	0.264	0.3765	0.178
Mof_C 	C 	0.1235	0.764	0.3765	0.174
Mof_C 	C 	0.8765	0.764	0.6235	0.185
Mof_C 	C 	0.8765	0.264	0.1235	0.177
Mof_C 	C 	0.1235	0.236	0.6235	0.172
Mof_C 	C 	0.1235	0.264	0.8765	0.177
Mof_C 	C 	0.8765	0.236	0.3765	0.183
Mof_C 	C 	0.8765	0.736	0.8765	0.191
Mof_C 	C 	0.6235	0.8765	0.764	0.185
Mof_C 	C 	0.6235	0.3765	0.264	0.178
Mof_C 	C 	0.6235	0.1235	0.236	0.172
Mof_C 	C 	0.6235	0.6235	0.736	0.181
Mof_C 	C 	0.3765	0.6235	0.264	0.178
Mof_C 	C 	0.3765	0.8765	0.236	0.183
Mof_C 	C 	0.764	0.6235	0.8765	0.185
Mof_C 	C 	0.264	0.6235	0.3765	0.178
Mof_C 	C 	0.236	0.6235	0.1235	0.172
Mof_C 	C 	0.736	0.6235	0.6235	0.181
Mof_C 	C 	0.264	0.3765	0.6235	0.178
Mof_C 	C 	0.236	0.3765	0.8765	0.183
Mof_C 	C 	0.764	0.8765	0.3765	0.185
Mof_C 	C 	0.264	0.8765	0.8765	0.188
Mof_C 	C 	0.736	0.1235	0.8765	0.18
Mof_C 	C 	0.764	0.1235	0.6235	0.174
Mof_C 	C 	0.236	0.8765	0.6235	0.183
Mof_C 	C 	0.736	0.8765	0.1235	0.18
Mof_C 	C 	0.8765	0.6235	0.236	0.183
Mof_C 	C 	0.8765	0.1235	0.736	0.18
Mof_C 	C 	0.1235	0.6235	0.764	0.174
Mof_C 	C 	0.1235	0.8765	0.736	0.18
Mof_C 	C 	0.8765	0.3765	0.764	0.185
Mof_C 	C 	0.8765	0.8765	0.264	0.188
Mof_C 	C 	0.6235	0.764	0.1235	0.174
Mof_C 	C 	0.6235	0.264	0.6235	0.177
Mof_C 	C 	0.6235	0.236	0.8765	0.183
Mof_C 	C 	0.6235	0.736	0.3765	0.181
Mof_C 	C 	0.3765	0.764	0.8765	0.185
Mof_C 	C 	0.3765	0.736	0.6235	0.181
Mof_C 	C 	0.1578	0.1578	0.3422	-0.256
Mof_C 	C 	0.8422	0.8422	0.3422	-0.254
Mof_C 	C 	0.3422	0.3422	0.3422	-0.256
Mof_C 	C 	0.8422	0.1578	0.6578	-0.255
Mof_C 	C 	0.3422	0.1578	0.1578	-0.256
Mof_C 	C 	0.1578	0.8422	0.6578	-0.255
Mof_C 	C 	0.1578	0.3422	0.1578	-0.256
Mof_C 	C 	0.3422	0.6578	0.6578	-0.257
Mof_C 	C 	0.3422	0.8422	0.8422	-0.254
Mof_C 	C 	0.6578	0.8422	0.1578	-0.255
Mof_C 	C 	0.6578	0.3422	0.6578	-0.257
Mof_C 	C 	0.6578	0.1578	0.8422	-0.255
Mof_C 	C 	0.6578	0.6578	0.3422	-0.257
Mof_C 	C 	0.8422	0.3422	0.8422	-0.254
Mof_C 	C 	0.1578	0.6578	0.8422	-0.255
Mof_C 	C 	0.8422	0.6578	0.1578	-0.255
Mof_C 	C 	0.1578	0.1578	0.6578	-0.257
Mof_C 	C 	0.8422	0.8422	0.6578	-0.254
Mof_C 	C 	0.8422	0.3422	0.1578	-0.255
Mof_C 	C 	0.3422	0.8422	0.1578	-0.255
Mof_C 	C 	0.1578	0.8422	0.3422	-0.255
Mof_C 	C 	0.8422	0.1578	0.3422	-0.255
Mof_C 	C 	0.3422	0.6578	0.3422	-0.257
Mof_C 	C 	0.1578	0.3422	0.8422	-0.255
Mof_C 	C 	0.3422	0.3422	0.6578	-0.257
Mof_C 	C 	0.8422	0.6578	0.8422	-0.254
Mof_C 	C 	0.3422	0.1578	0.8422	-0.255
Mof_C 	C 	0.1578	0.6578	0.1578	-0.257
Mof_C 	C 	0.6578	0.1578	0.1578	-0.257
Mof_C 	C 	0.6578	0.6578	0.6578	-0.257
Mof_C 	C 	0.6578	0.8422	0.8422	-0.254
Mof_C 	C 	0.6578	0.3422	0.3422	-0.257
_end
