data_functionalizedCrystal
_audit_creation_method	'EQeq! by Chris Wilmer'
_symmetry_space_group_name_H-M	'P1'
_symmetry_Int_Tables_number	1
_symmetry_cell_setting	triclinic
loop_
_symmetry_equiv_pos_as_xyz
  x,y,z
_cell_length_a	17.1623
_cell_length_b	13.156
_cell_length_c	12.8631
_cell_angle_alpha	90
_cell_angle_beta	90
_cell_angle_gamma	90
loop_
_atom_site_label
_atom_site_type_symbol
_atom_site_fract_x
_atom_site_fract_y
_atom_site_fract_z
_atom_site_charge
Mof_N 	N 	0.0752	0.5975	0.831	-0.204
Mof_N 	N 	0.0513	0.5415	0.9129	-0.11
Mof_N 	N 	0.0845	0.4385	0.787	-0.188
Mof_C 	C 	0.0932	0.5344	0.7563	0.107
Mof_H 	H 	0.11	0.5541	0.6898	-0.021
Mof_C 	C 	0.0572	0.4458	0.885	0.099
Mof_H 	H 	0.0442	0.3901	0.9275	-0.009
Mof_C 	C 	0.0989	0.345	0.7235	0.321
Mof_C 	C 	0.0414	0.3458	0.631	-0.429
Mof_H 	H 	0.9876	0.3458	0.6564	0.153
Mof_H 	H 	0.0493	0.4069	0.5887	0.151
Mof_H 	H 	0.1491	0.3104	0.4817	0.151
Mof_C 	C 	0.1835	0.3462	0.6837	-0.43
Mof_H 	H 	0.1926	0.4069	0.6412	0.152
Mof_H 	H 	0.2198	0.3475	0.7425	0.151
Mof_N 	N 	0.4248	0.4025	0.331	-0.205
Mof_N 	N 	0.4487	0.4585	0.4129	-0.11
Mof_N 	N 	0.4155	0.5615	0.287	-0.189
Mof_C 	C 	0.4068	0.4656	0.2563	0.106
Mof_H 	H 	0.39	0.4459	0.1898	-0.021
Mof_C 	C 	0.4428	0.5542	0.385	0.099
Mof_H 	H 	0.4558	0.6099	0.4275	-0.009
Mof_C 	C 	0.4011	0.655	0.2235	0.321
Mof_C 	C 	0.4586	0.6542	0.131	-0.43
Mof_H 	H 	0.5124	0.6542	0.1564	0.153
Mof_H 	H 	0.4507	0.5931	0.0887	0.151
Mof_H 	H 	0.3509	0.6896	0.9817	0.15
Mof_C 	C 	0.3165	0.6538	0.1837	-0.43
Mof_H 	H 	0.3074	0.5931	0.1412	0.152
Mof_H 	H 	0.2802	0.6525	0.2425	0.151
Mof_N 	N 	0.9248	0.0975	0.169	-0.205
Mof_N 	N 	0.9487	0.0415	0.0871	-0.112
Mof_N 	N 	0.9155	0.9385	0.213	-0.188
Mof_C 	C 	0.9068	0.0344	0.2437	0.104
Mof_H 	H 	0.89	0.0541	0.3102	-0.02
Mof_C 	C 	0.9428	0.9458	0.115	0.101
Mof_H 	H 	0.9558	0.8901	0.0725	-0.009
Mof_C 	C 	0.9011	0.845	0.2765	0.321
Mof_C 	C 	0.9586	0.8458	0.369	-0.429
Mof_H 	H 	0.0124	0.8458	0.3436	0.152
Mof_H 	H 	0.9507	0.9069	0.4113	0.151
Mof_H 	H 	0.8509	0.8104	0.5183	0.151
Mof_C 	C 	0.8165	0.8462	0.3163	-0.43
Mof_H 	H 	0.8074	0.9069	0.3588	0.152
Mof_H 	H 	0.7802	0.8475	0.2575	0.151
Mof_N 	N 	0.5752	0.9025	0.669	-0.205
Mof_N 	N 	0.5513	0.9585	0.5871	-0.11
Mof_N 	N 	0.5845	0.0615	0.713	-0.188
Mof_C 	C 	0.5932	0.9656	0.7437	0.105
Mof_H 	H 	0.61	0.9459	0.8102	-0.021
Mof_C 	C 	0.5572	0.0542	0.615	0.099
Mof_H 	H 	0.5442	0.1099	0.5725	-0.009
Mof_C 	C 	0.5989	0.155	0.7765	0.321
Mof_C 	C 	0.5414	0.1542	0.869	-0.43
Mof_H 	H 	0.4876	0.1542	0.8436	0.153
Mof_H 	H 	0.5493	0.0931	0.9113	0.151
Mof_H 	H 	0.6491	0.1896	0.0183	0.15
Mof_C 	C 	0.6835	0.1538	0.8163	-0.43
Mof_H 	H 	0.6926	0.0931	0.8588	0.152
Mof_H 	H 	0.7198	0.1525	0.7575	0.151
Mof_N 	N 	0.9248	0.4025	0.169	-0.205
Mof_N 	N 	0.9487	0.4585	0.0871	-0.111
Mof_N 	N 	0.9155	0.5615	0.213	-0.189
Mof_C 	C 	0.9068	0.4656	0.2437	0.106
Mof_H 	H 	0.89	0.4459	0.3102	-0.021
Mof_C 	C 	0.9428	0.5542	0.115	0.099
Mof_H 	H 	0.9558	0.6099	0.0725	-0.009
Mof_C 	C 	0.9011	0.655	0.2765	0.321
Mof_C 	C 	0.9586	0.6542	0.369	-0.429
Mof_H 	H 	0.0124	0.6542	0.3436	0.153
Mof_H 	H 	0.9507	0.5931	0.4113	0.151
Mof_H 	H 	0.8509	0.6896	0.5183	0.151
Mof_C 	C 	0.8165	0.6538	0.3163	-0.43
Mof_H 	H 	0.8074	0.5931	0.3588	0.152
Mof_H 	H 	0.7802	0.6525	0.2575	0.151
Mof_N 	N 	0.5752	0.5975	0.669	-0.205
Mof_N 	N 	0.5513	0.5415	0.5871	-0.11
Mof_N 	N 	0.5845	0.4385	0.713	-0.189
Mof_C 	C 	0.5932	0.5344	0.7437	0.106
Mof_H 	H 	0.61	0.5541	0.8102	-0.021
Mof_C 	C 	0.5572	0.4458	0.615	0.099
Mof_H 	H 	0.5442	0.3901	0.5725	-0.009
Mof_C 	C 	0.5989	0.345	0.7765	0.321
Mof_C 	C 	0.5414	0.3458	0.869	-0.43
Mof_H 	H 	0.4876	0.3458	0.8436	0.153
Mof_H 	H 	0.5493	0.4069	0.9113	0.151
Mof_H 	H 	0.6491	0.3104	0.0183	0.15
Mof_C 	C 	0.6835	0.3462	0.8163	-0.43
Mof_H 	H 	0.6926	0.4069	0.8588	0.152
Mof_H 	H 	0.7198	0.3475	0.7575	0.151
Mof_N 	N 	0.0752	0.9025	0.831	-0.205
Mof_N 	N 	0.0513	0.9585	0.9129	-0.112
Mof_N 	N 	0.0845	0.0615	0.787	-0.188
Mof_C 	C 	0.0932	0.9656	0.7563	0.104
Mof_H 	H 	0.11	0.9459	0.6898	-0.02
Mof_C 	C 	0.0572	0.0542	0.885	0.101
Mof_H 	H 	0.0442	0.1099	0.9275	-0.009
Mof_C 	C 	0.0989	0.155	0.7235	0.321
Mof_C 	C 	0.0414	0.1542	0.631	-0.429
Mof_H 	H 	0.9876	0.1542	0.6564	0.152
Mof_H 	H 	0.0493	0.0931	0.5887	0.151
Mof_H 	H 	0.1491	0.1896	0.4817	0.151
Mof_C 	C 	0.1835	0.1538	0.6837	-0.43
Mof_H 	H 	0.1926	0.0931	0.6412	0.152
Mof_H 	H 	0.2198	0.1525	0.7425	0.151
Mof_N 	N 	0.4248	0.0975	0.331	-0.205
Mof_N 	N 	0.4487	0.0415	0.4129	-0.11
Mof_N 	N 	0.4155	0.9385	0.287	-0.188
Mof_C 	C 	0.4068	0.0344	0.2563	0.105
Mof_H 	H 	0.39	0.0541	0.1898	-0.021
Mof_C 	C 	0.4428	0.9458	0.385	0.099
Mof_H 	H 	0.4558	0.8901	0.4275	-0.009
Mof_C 	C 	0.4011	0.845	0.2235	0.321
Mof_C 	C 	0.4586	0.8458	0.131	-0.43
Mof_H 	H 	0.5124	0.8458	0.1564	0.153
Mof_H 	H 	0.4507	0.9069	0.0887	0.151
Mof_H 	H 	0.3509	0.8104	0.9817	0.15
Mof_C 	C 	0.3165	0.8462	0.1837	-0.43
Mof_H 	H 	0.3074	0.9069	0.1412	0.152
Mof_H 	H 	0.2802	0.8475	0.2425	0.151
Mof_Cu	Cu	0.06616	0.75	0.83615	0.858
Mof_Cu	Cu	0.43384	0.25	0.33615	0.858
Mof_Cu	Cu	0.93384	0.25	0.16385	0.858
Mof_Cu	Cu	0.56616	0.75	0.66385	0.858
Mof_N 	N 	0.9562	0.25	0.3162	-0.207
Mof_N 	N 	0.8941	0.25	0.3835	-0.126
Mof_N 	N 	0.0024	0.25	0.4746	-0.185
Mof_N 	N 	0.3774	0.25	0.4719	-0.201
Mof_N 	N 	0.4061	0.25	0.5722	-0.113
Mof_N 	N 	0.2775	0.25	0.5774	-0.188
Mof_C 	C 	0.0216	0.25	0.3718	0.092
Mof_H 	H 	0.0725	0.25	0.3447	-0.029
Mof_C 	C 	0.9232	0.25	0.4743	0.103
Mof_H 	H 	0.8929	0.25	0.5352	-0.017
Mof_C 	C 	0.3014	0.25	0.4775	0.105
Mof_H 	H 	0.2679	0.25	0.4197	-0.036
Mof_C 	C 	0.3439	0.25	0.6328	0.098
Mof_H 	H 	0.3458	0.25	0.7058	-0.016
Mof_C 	C 	0.057	0.25	0.5658	0.321
Mof_C 	C 	0.1402	0.25	0.5246	-0.433
Mof_C 	C 	0.1968	0.25	0.6182	0.32
Mof_C 	C 	0.0858	0.25	0.7898	-0.439
Mof_H 	H 	0.122	0.25	0.8487	0.152
Mof_H 	H 	0.0325	0.25	0.8173	0.161
Mof_N 	N 	0.5438	0.75	0.8162	-0.207
Mof_N 	N 	0.6059	0.75	0.8835	-0.126
Mof_N 	N 	0.4976	0.75	0.9746	-0.185
Mof_N 	N 	0.1226	0.75	0.9719	-0.202
Mof_N 	N 	0.0939	0.75	0.0722	-0.112
Mof_N 	N 	0.2225	0.75	0.0774	-0.187
Mof_C 	C 	0.4784	0.75	0.8718	0.091
Mof_H 	H 	0.4275	0.75	0.8447	-0.029
Mof_C 	C 	0.5768	0.75	0.9743	0.102
Mof_H 	H 	0.6071	0.75	0.0352	-0.017
Mof_C 	C 	0.1986	0.75	0.9775	0.104
Mof_H 	H 	0.2321	0.75	0.9197	-0.036
Mof_C 	C 	0.1561	0.75	0.1328	0.098
Mof_H 	H 	0.1542	0.75	0.2058	-0.016
Mof_C 	C 	0.443	0.75	0.0658	0.321
Mof_C 	C 	0.3598	0.75	0.0246	-0.43
Mof_C 	C 	0.3032	0.75	0.1182	0.32
Mof_C 	C 	0.4142	0.75	0.2898	-0.439
Mof_H 	H 	0.378	0.75	0.3487	0.152
Mof_H 	H 	0.4675	0.75	0.3173	0.16
Mof_N 	N 	0.0438	0.75	0.6838	-0.207
Mof_N 	N 	0.1059	0.75	0.6165	-0.126
Mof_N 	N 	0.9976	0.75	0.5254	-0.185
Mof_N 	N 	0.6226	0.75	0.5281	-0.201
Mof_N 	N 	0.5939	0.75	0.4278	-0.113
Mof_N 	N 	0.7225	0.75	0.4226	-0.188
Mof_C 	C 	0.9784	0.75	0.6282	0.092
Mof_H 	H 	0.9275	0.75	0.6553	-0.029
Mof_C 	C 	0.0768	0.75	0.5257	0.103
Mof_H 	H 	0.1071	0.75	0.4648	-0.017
Mof_C 	C 	0.6986	0.75	0.5225	0.105
Mof_H 	H 	0.7321	0.75	0.5803	-0.036
Mof_C 	C 	0.6561	0.75	0.3672	0.098
Mof_H 	H 	0.6542	0.75	0.2942	-0.016
Mof_C 	C 	0.943	0.75	0.4342	0.321
Mof_C 	C 	0.8598	0.75	0.4754	-0.433
Mof_C 	C 	0.8032	0.75	0.3818	0.32
Mof_C 	C 	0.9142	0.75	0.2102	-0.439
Mof_H 	H 	0.878	0.75	0.1513	0.152
Mof_H 	H 	0.9675	0.75	0.1827	0.161
Mof_N 	N 	0.4562	0.25	0.1838	-0.207
Mof_N 	N 	0.3941	0.25	0.1165	-0.126
Mof_N 	N 	0.5024	0.25	0.0254	-0.185
Mof_N 	N 	0.8774	0.25	0.0281	-0.202
Mof_N 	N 	0.9061	0.25	0.9278	-0.112
Mof_N 	N 	0.7775	0.25	0.9226	-0.187
Mof_C 	C 	0.5216	0.25	0.1282	0.091
Mof_H 	H 	0.5725	0.25	0.1553	-0.029
Mof_C 	C 	0.4232	0.25	0.0257	0.102
Mof_H 	H 	0.3929	0.25	0.9648	-0.017
Mof_C 	C 	0.8014	0.25	0.0225	0.104
Mof_H 	H 	0.7679	0.25	0.0803	-0.036
Mof_C 	C 	0.8439	0.25	0.8672	0.098
Mof_H 	H 	0.8458	0.25	0.7942	-0.016
Mof_C 	C 	0.557	0.25	0.9342	0.321
Mof_C 	C 	0.6402	0.25	0.9754	-0.43
Mof_C 	C 	0.6968	0.25	0.8818	0.32
Mof_C 	C 	0.5858	0.25	0.7102	-0.439
Mof_H 	H 	0.622	0.25	0.6513	0.152
Mof_H 	H 	0.5325	0.25	0.6827	0.16
_end
