data_functionalizedCrystal
_audit_creation_method	'EQeq! by Chris Wilmer'
_symmetry_space_group_name_H-M	'P1'
_symmetry_Int_Tables_number	1
_symmetry_cell_setting	triclinic
loop_
_symmetry_equiv_pos_as_xyz
  x,y,z
_cell_length_a	14.7493
_cell_length_b	14.7493
_cell_length_c	14.7493
_cell_angle_alpha	90
_cell_angle_beta	90
_cell_angle_gamma	90
loop_
_atom_site_label
_atom_site_type_symbol
_atom_site_fract_x
_atom_site_fract_y
_atom_site_fract_z
_atom_site_charge
Mof_Cd	Cd	0.5	1.96687e-33	0.25	0.297
Mof_Cd	Cd	0.5	7.86749e-33	0.75	0.322
Mof_Cd	Cd	0.25	0.5	-0	0.297
Mof_Cd	Cd	0.75	0.5	-0	0.322
Mof_Cd	Cd	5.80844e-33	0.25	0.5	0.297
Mof_Cd	Cd	5.80844e-33	0.75	0.5	0.322
Mof_Cd	Cd	0.5	0.25	-0	0.297
Mof_Cd	Cd	2.81205e-33	0.5	0.75	0.322
Mof_Cd	Cd	6.83797e-33	0.5	0.25	0.297
Mof_Cd	Cd	0.5	0.75	-0	0.322
Mof_Cd	Cd	0.25	3.93374e-33	0.5	0.297
Mof_Cd	Cd	0.75	3.93374e-33	0.5	0.322
Mof_O 	O 	0.5	0.8459	0.261	-0.246
Mof_O 	O 	2.85329e-33	0.3459	0.761	-0.375
Mof_O 	O 	0.5	0.1541	0.261	-0.353
Mof_O 	O 	1.07208e-32	0.6541	0.761	-0.345
Mof_O 	O 	0.5	0.8459	0.739	-0.226
Mof_O 	O 	8.96106e-34	0.3459	0.239	-0.428
Mof_O 	O 	0.5	0.1541	0.739	-0.331
Mof_O 	O 	-3.03764e-33	0.6541	0.239	-0.397
Mof_O 	O 	0.261	0.5	0.8459	-0.246
Mof_O 	O 	0.761	0	0.3459	-0.375
Mof_O 	O 	0.261	0.5	0.1541	-0.353
Mof_O 	O 	0.761	0	0.6541	-0.345
Mof_O 	O 	0.739	0.5	0.8459	-0.226
Mof_O 	O 	0.239	0	0.3459	-0.428
Mof_O 	O 	0.739	0.5	0.1541	-0.331
Mof_O 	O 	0.239	0	0.6541	-0.397
Mof_O 	O 	0.8459	0.261	0.5	-0.246
Mof_O 	O 	0.3459	0.761	-0	-0.375
Mof_O 	O 	0.1541	0.261	0.5	-0.353
Mof_O 	O 	0.6541	0.761	-0	-0.345
Mof_O 	O 	0.8459	0.739	0.5	-0.226
Mof_O 	O 	0.3459	0.239	-0	-0.428
Mof_O 	O 	0.1541	0.739	0.5	-0.331
Mof_O 	O 	0.6541	0.239	-0	-0.397
Mof_O 	O 	0.8459	0.5	0.739	-0.226
Mof_O 	O 	0.3459	1.96687e-33	0.239	-0.428
Mof_O 	O 	0.1541	0.5	0.739	-0.331
Mof_O 	O 	0.6541	1.96687e-33	0.239	-0.397
Mof_O 	O 	0.8459	0.5	0.261	-0.246
Mof_O 	O 	0.3459	7.86749e-33	0.761	-0.375
Mof_O 	O 	0.1541	0.5	0.261	-0.353
Mof_O 	O 	0.6541	7.86749e-33	0.761	-0.345
Mof_O 	O 	0.5	0.261	0.1541	-0.353
Mof_O 	O 	1.032e-32	0.761	0.6541	-0.345
Mof_O 	O 	0.5	0.261	0.8459	-0.246
Mof_O 	O 	5.23066e-33	0.761	0.3459	-0.375
Mof_O 	O 	0.5	0.739	0.1541	-0.331
Mof_O 	O 	-5.41501e-33	0.239	0.6541	-0.397
Mof_O 	O 	0.5	0.739	0.8459	-0.226
Mof_O 	O 	-2.63683e-33	0.239	0.3459	-0.428
Mof_O 	O 	0.261	0.8459	0.5	-0.246
Mof_O 	O 	0.761	0.3459	-0	-0.375
Mof_O 	O 	0.261	0.1541	0.5	-0.353
Mof_O 	O 	0.761	0.6541	-0	-0.345
Mof_O 	O 	0.739	0.8459	0.5	-0.226
Mof_O 	O 	0.239	0.3459	-0	-0.428
Mof_O 	O 	0.739	0.1541	0.5	-0.331
Mof_O 	O 	0.239	0.6541	-0	-0.397
Mof_O 	O 	0.5	0.8849	0.1151	-0.464
Mof_C 	C 	0.5	0.824	0.176	0.554
Mof_O 	O 	2.30626e-33	0.3849	0.6151	-0.713
Mof_C 	C 	1.04021e-32	0.324	0.676	0.6
Mof_O 	O 	0.5	0.1151	0.1151	-0.595
Mof_C 	C 	0.5	0.176	0.176	0.57
Mof_O 	O 	2.30626e-33	0.6151	0.6151	-0.709
Mof_C 	C 	1.82696e-32	0.676	0.676	0.593
Mof_O 	O 	0.5	0.8849	0.8849	-0.338
Mof_C 	C 	0.5	0.824	0.824	0.538
Mof_O 	O 	1.44314e-33	0.3849	0.3849	-0.718
Mof_C 	C 	1.69498e-32	0.324	0.324	0.607
Mof_O 	O 	0.5	0.1151	0.8849	-0.464
Mof_C 	C 	0.5	0.176	0.824	0.554
Mof_O 	O 	5.37689e-33	0.6151	0.3849	-0.713
Mof_C 	C 	1.3016e-32	0.676	0.324	0.6
Mof_O 	O 	0.1151	0.5	0.8849	-0.464
Mof_C 	C 	0.176	0.5	0.824	0.554
Mof_O 	O 	0.6151	0	0.3849	-0.713
Mof_C 	C 	0.676	7.86749e-33	0.324	0.6
Mof_O 	O 	0.1151	0.5	0.1151	-0.595
Mof_C 	C 	0.176	0.5	0.176	0.57
Mof_O 	O 	0.6151	0	0.6151	-0.709
Mof_C 	C 	0.676	7.86749e-33	0.676	0.593
Mof_O 	O 	0.8849	0.5	0.8849	-0.338
Mof_C 	C 	0.824	0.5	0.824	0.538
Mof_O 	O 	0.3849	0	0.3849	-0.718
Mof_C 	C 	0.324	7.86749e-33	0.324	0.607
Mof_O 	O 	0.8849	0.5	0.1151	-0.464
Mof_C 	C 	0.824	0.5	0.176	0.554
Mof_O 	O 	0.3849	0	0.6151	-0.713
Mof_C 	C 	0.324	7.86749e-33	0.676	0.6
Mof_O 	O 	0.8849	0.1151	0.5	-0.464
Mof_C 	C 	0.824	0.176	0.5	0.554
Mof_O 	O 	0.3849	0.6151	-0	-0.713
Mof_C 	C 	0.324	0.676	-0	0.6
Mof_O 	O 	0.1151	0.1151	0.5	-0.595
Mof_C 	C 	0.176	0.176	0.5	0.57
Mof_O 	O 	0.6151	0.6151	-0	-0.709
Mof_C 	C 	0.676	0.676	-0	0.593
Mof_O 	O 	0.8849	0.8849	0.5	-0.338
Mof_C 	C 	0.824	0.824	0.5	0.538
Mof_O 	O 	0.3849	0.3849	-0	-0.718
Mof_C 	C 	0.324	0.324	-0	0.607
Mof_O 	O 	0.1151	0.8849	0.5	-0.464
Mof_C 	C 	0.176	0.824	0.5	0.554
Mof_O 	O 	0.6151	0.3849	-0	-0.713
Mof_C 	C 	0.676	0.324	-0	0.6
Mof_Na	Na	0.5	3.93374e-33	0.5	2.569
Mof_Na	Na	3.93374e-33	0.5	-0	1.693
Mof_Na	Na	0.5	0.5	-0	2.569
Mof_Na	Na	5.80844e-33	3.93374e-33	0.5	1.693
Mof_Na	Na	5.80844e-33	0.5	0.5	2.569
Mof_Na	Na	0.5	0	-0	1.693
_end
