data_functionalizedCrystal
_audit_creation_method	'EQeq! by Chris Wilmer'
_symmetry_space_group_name_H-M	'P1'
_symmetry_Int_Tables_number	1
_symmetry_cell_setting	triclinic
loop_
_symmetry_equiv_pos_as_xyz
  x,y,z
_cell_length_a	10.5569
_cell_length_b	14.8459
_cell_length_c	19.0663
_cell_angle_alpha	90
_cell_angle_beta	90
_cell_angle_gamma	90
loop_
_atom_site_label
_atom_site_type_symbol
_atom_site_fract_x
_atom_site_fract_y
_atom_site_fract_z
_atom_site_charge
Mof_Ag	Ag	0.64884	0.14975	0.35239	0.654
Mof_Ag	Ag	0.87268	0.10244	0.45174	0.585
Mof_Ag	Ag	0.1474	0.84965	0.0156	0.801
Mof_Ag	Ag	0.35584	0.88891	0.91752	0.608
Mof_Ag	Ag	0.35116	0.35025	0.85239	0.615
Mof_Ag	Ag	0.12732	0.39756	0.95174	0.595
Mof_Ag	Ag	0.8526	0.65035	0.5156	0.615
Mof_Ag	Ag	0.64416	0.61109	0.41752	0.513
Mof_Ag	Ag	0.35116	0.64975	0.85239	0.614
Mof_Ag	Ag	0.12732	0.60244	0.95174	0.59
Mof_Ag	Ag	0.8526	0.34965	0.5156	0.616
Mof_Ag	Ag	0.64416	0.38891	0.41752	0.515
Mof_Ag	Ag	0.64884	0.85025	0.35239	0.731
Mof_Ag	Ag	0.87268	0.89756	0.45174	0.758
Mof_Ag	Ag	0.1474	0.15035	0.0156	0.718
Mof_Ag	Ag	0.35584	0.11109	0.91752	0.463
Mof_Ag	Ag	0.56787	0	0.26558	0.431
Mof_Ag	Ag	0.58957	0	0.45139	0.394
Mof_Ag	Ag	0.86943	0	0.25131	0.73
Mof_Ag	Ag	0.03389	-1.05597e-33	0.08398	0.355
Mof_Ag	Ag	0.08674	-8.44775e-33	0.91582	0.353
Mof_Ag	Ag	0.31139	-2.11194e-33	0.13732	0.658
Mof_Ag	Ag	0.51993	0	0.00289	0.645
Mof_Ag	Ag	0.43213	0.5	0.76558	0.56
Mof_Ag	Ag	0.41043	0.5	0.95139	0.501
Mof_Ag	Ag	0.13057	0.5	0.75131	0.833
Mof_Ag	Ag	0.96611	0.5	0.58398	0.458
Mof_Ag	Ag	0.91326	0.5	0.41582	0.528
Mof_Ag	Ag	0.68861	0.5	0.63732	0.751
Mof_Ag	Ag	0.48007	0.5	0.50289	0.662
Mof_C 	C 	0.922	0.1788	0.1407	0.3
Mof_C 	C 	0.8503	0.2414	0.1907	0.415
Mof_C 	C 	0.9173	0.2594	0.2608	0.373
Mof_C 	C 	0.8501	0.3245	0.3129	0.319
Mof_C 	C 	0.442	0.8203	0.2219	0.337
Mof_C 	C 	0.354	0.7622	0.1727	0.397
Mof_C 	C 	0.416	0.7446	0.1017	0.392
Mof_C 	C 	0.3419	0.6805	0.0546	0.302
Mof_C 	C 	0.4203	0.1906	0.4401	0.309
Mof_C 	C 	0.3	0.2406	0.4629	0.382
Mof_C 	C 	0.2024	0.2589	0.4059	0.418
Mof_C 	C 	0.0808	0.3073	0.4325	0.318
Mof_C 	C 	0.078	0.3212	0.6407	0.298
Mof_C 	C 	0.1497	0.2586	0.6907	0.414
Mof_C 	C 	0.0827	0.2406	0.7608	0.379
Mof_C 	C 	0.1499	0.1755	0.8129	0.313
Mof_C 	C 	0.558	0.6797	0.7219	0.347
Mof_C 	C 	0.646	0.7378	0.6727	0.388
Mof_C 	C 	0.584	0.7554	0.6017	0.4
Mof_C 	C 	0.6581	0.8195	0.5546	0.288
Mof_C 	C 	0.5797	0.3094	0.9401	0.309
Mof_C 	C 	0.7	0.2594	0.9629	0.355
Mof_C 	C 	0.7976	0.2411	0.9059	0.423
Mof_C 	C 	0.9192	0.1927	0.9325	0.303
Mof_C 	C 	0.078	0.6788	0.6407	0.299
Mof_C 	C 	0.1497	0.7414	0.6907	0.412
Mof_C 	C 	0.0827	0.7594	0.7608	0.387
Mof_C 	C 	0.1499	0.8245	0.8129	0.307
Mof_C 	C 	0.558	0.3203	0.7219	0.346
Mof_C 	C 	0.646	0.2622	0.6727	0.389
Mof_C 	C 	0.584	0.2446	0.6017	0.394
Mof_C 	C 	0.6581	0.1805	0.5546	0.295
Mof_C 	C 	0.5797	0.6906	0.9401	0.313
Mof_C 	C 	0.7	0.7406	0.9629	0.35
Mof_C 	C 	0.7976	0.7589	0.9059	0.429
Mof_C 	C 	0.9192	0.8073	0.9325	0.293
Mof_C 	C 	0.922	0.8212	0.1407	0.293
Mof_C 	C 	0.8503	0.7586	0.1907	0.423
Mof_C 	C 	0.9173	0.7406	0.2608	0.368
Mof_C 	C 	0.8501	0.6755	0.3129	0.322
Mof_C 	C 	0.442	0.1797	0.2219	0.344
Mof_C 	C 	0.354	0.2378	0.1727	0.39
Mof_C 	C 	0.416	0.2554	0.1017	0.396
Mof_C 	C 	0.3419	0.3195	0.0546	0.298
Mof_C 	C 	0.4203	0.8094	0.4401	0.299
Mof_C 	C 	0.3	0.7594	0.4629	0.39
Mof_C 	C 	0.2024	0.7411	0.4059	0.413
Mof_C 	C 	0.0808	0.6927	0.4325	0.324
Mof_C 	C 	0.722	-4.22387e-33	0.336	-0.39
Mof_C 	C 	0.798	-4.22387e-33	0.3834	-0.362
Mof_C 	C 	0.2105	-2.63992e-34	0.0271	-0.35
Mof_C 	C 	0.3118	-1.68955e-32	0.9962	-0.412
Mof_C 	C 	0.278	0.5	0.836	-0.412
Mof_C 	C 	0.202	0.5	0.8834	-0.287
Mof_C 	C 	0.7895	0.5	0.5271	-0.398
Mof_C 	C 	0.6882	0.5	0.4962	-0.307
Mof_O 	O 	0.899	0.0942	0.1447	-0.319
Mof_O 	O 	0.9963	0.2154	0.0989	-0.206
Mof_O 	O 	0.757	0.2914	0.3448	-0.352
Mof_O 	O 	0.8923	0.4006	0.3172	-0.241
Mof_O 	O 	0.4493	0.9004	0.2029	-0.284
Mof_O 	O 	0.491	0.7836	0.273	-0.21
Mof_O 	O 	0.2527	0.7107	0.0204	-0.351
Mof_O 	O 	0.3793	0.6	0.0549	-0.198
Mof_O 	O 	0.5155	0.2396	0.426	-0.293
Mof_O 	O 	0.4128	0.1081	0.4348	-0.254
Mof_O 	O 	0.0935	0.3886	0.445	-0.26
Mof_O 	O 	0.9857	0.2604	0.4409	-0.306
Mof_O 	O 	0.101	0.4058	0.6447	-0.324
Mof_O 	O 	0.0037	0.2846	0.5989	-0.206
Mof_O 	O 	0.243	0.2086	0.8448	-0.35
Mof_O 	O 	0.1077	0.0994	0.8172	-0.244
Mof_O 	O 	0.5507	0.5996	0.7029	-0.361
Mof_O 	O 	0.509	0.7164	0.773	-0.214
Mof_O 	O 	0.7473	0.7893	0.5204	-0.359
Mof_O 	O 	0.6207	0.9	0.5549	-0.168
Mof_O 	O 	0.4845	0.2604	0.926	-0.299
Mof_O 	O 	0.5872	0.3919	0.9348	-0.255
Mof_O 	O 	0.9065	0.1114	0.945	-0.275
Mof_O 	O 	0.0143	0.2396	0.9409	-0.312
Mof_O 	O 	0.101	0.5942	0.6447	-0.324
Mof_O 	O 	0.0037	0.7154	0.5989	-0.201
Mof_O 	O 	0.243	0.7914	0.8448	-0.352
Mof_O 	O 	0.1077	0.9006	0.8172	-0.186
Mof_O 	O 	0.5507	0.4004	0.7029	-0.361
Mof_O 	O 	0.509	0.2836	0.773	-0.22
Mof_O 	O 	0.7473	0.2107	0.5204	-0.356
Mof_O 	O 	0.6207	0.1	0.5549	-0.227
Mof_O 	O 	0.4845	0.7396	0.926	-0.305
Mof_O 	O 	0.5872	0.6081	0.9348	-0.257
Mof_O 	O 	0.9065	0.8886	0.945	-0.225
Mof_O 	O 	0.0143	0.7604	0.9409	-0.314
Mof_O 	O 	0.899	0.9058	0.1447	-0.251
Mof_O 	O 	0.9963	0.7846	0.0989	-0.201
Mof_O 	O 	0.757	0.7086	0.3448	-0.361
Mof_O 	O 	0.8923	0.5994	0.3172	-0.243
Mof_O 	O 	0.4493	0.0996	0.2029	-0.35
Mof_O 	O 	0.491	0.2164	0.273	-0.217
Mof_O 	O 	0.2527	0.2893	0.0204	-0.342
Mof_O 	O 	0.3793	0.4	0.0549	-0.196
Mof_O 	O 	0.5155	0.7604	0.426	-0.293
Mof_O 	O 	0.4128	0.8919	0.4348	-0.197
Mof_O 	O 	0.0935	0.6114	0.445	-0.262
Mof_O 	O 	0.9857	0.7396	0.4409	-0.315
Mof_F 	F 	0.8252	0.3215	0.1625	-0.339
Mof_F 	F 	0.7359	0.2035	0.2067	-0.434
Mof_F 	F 	0.0345	0.288	0.2447	-0.332
Mof_F 	F 	0.936	0.1763	0.2933	-0.471
Mof_F 	F 	0.3309	0.6809	0.2035	-0.333
Mof_F 	F 	0.2404	0.8036	0.163	-0.431
Mof_F 	F 	0.5345	0.7119	0.1133	-0.328
Mof_F 	F 	0.4288	0.8243	0.0686	-0.468
Mof_F 	F 	0.3303	0.3195	0.4949	-0.407
Mof_F 	F 	0.2394	0.1912	0.5144	-0.352
Mof_F 	F 	0.1744	0.1807	0.3756	-0.404
Mof_F 	F 	0.2611	0.311	0.3578	-0.367
Mof_F 	F 	0.1748	0.1785	0.6625	-0.353
Mof_F 	F 	0.2641	0.2965	0.7067	-0.438
Mof_F 	F 	0.9655	0.212	0.7447	-0.346
Mof_F 	F 	0.064	0.3237	0.7933	-0.472
Mof_F 	F 	0.6691	0.8191	0.7035	-0.321
Mof_F 	F 	0.7596	0.6964	0.663	-0.444
Mof_F 	F 	0.4655	0.7881	0.6133	-0.33
Mof_F 	F 	0.5712	0.6757	0.5686	-0.497
Mof_F 	F 	0.6697	0.1805	0.9949	-0.421
Mof_F 	F 	0.7606	0.3088	0.0144	-0.315
Mof_F 	F 	0.8256	0.3193	0.8756	-0.403
Mof_F 	F 	0.7389	0.189	0.8578	-0.375
Mof_F 	F 	0.1748	0.8215	0.6625	-0.327
Mof_F 	F 	0.2641	0.7035	0.7067	-0.435
Mof_F 	F 	0.9655	0.788	0.7447	-0.335
Mof_F 	F 	0.064	0.6763	0.7933	-0.473
Mof_F 	F 	0.6691	0.1809	0.7035	-0.345
Mof_F 	F 	0.7596	0.3036	0.663	-0.447
Mof_F 	F 	0.4655	0.2119	0.6133	-0.342
Mof_F 	F 	0.5712	0.3243	0.5686	-0.496
Mof_F 	F 	0.6697	0.8195	0.9949	-0.403
Mof_F 	F 	0.7606	0.6912	0.0144	-0.311
Mof_F 	F 	0.8256	0.6807	0.8756	-0.404
Mof_F 	F 	0.7389	0.811	0.8578	-0.358
Mof_F 	F 	0.8252	0.6785	0.1625	-0.34
Mof_F 	F 	0.7359	0.7965	0.2067	-0.425
Mof_F 	F 	0.0345	0.712	0.2447	-0.328
Mof_F 	F 	0.936	0.8237	0.2933	-0.455
Mof_F 	F 	0.3309	0.3191	0.2035	-0.333
Mof_F 	F 	0.2404	0.1964	0.163	-0.443
Mof_F 	F 	0.5345	0.2881	0.1133	-0.331
Mof_F 	F 	0.4288	0.1757	0.0686	-0.484
Mof_F 	F 	0.3303	0.6805	0.4949	-0.408
Mof_F 	F 	0.2394	0.8088	0.5144	-0.336
Mof_F 	F 	0.1744	0.8193	0.3756	-0.383
Mof_F 	F 	0.2611	0.689	0.3578	-0.365
_end
