data_functionalizedCrystal
_audit_creation_method	'EQeq! by Chris Wilmer'
_symmetry_space_group_name_H-M	'P1'
_symmetry_Int_Tables_number	1
_symmetry_cell_setting	triclinic
loop_
_symmetry_equiv_pos_as_xyz
  x,y,z
_cell_length_a	8.4548
_cell_length_b	13.1047
_cell_length_c	9.4885
_cell_angle_alpha	90
_cell_angle_beta	94.439
_cell_angle_gamma	90
loop_
_atom_site_label
_atom_site_type_symbol
_atom_site_fract_x
_atom_site_fract_y
_atom_site_fract_z
_atom_site_charge
Mof_Tb	Tb	0.03815	0.76903	0.49144	1.611
Mof_O 	O 	0.8405	0.6404	0.386	-0.422
Mof_O 	O 	0.7828	0.7128	0.5834	-0.406
Mof_O 	O 	0.65	0.6139	0.8422	-0.487
Mof_O 	O 	0.8343	0.5111	0.7668	-0.309
Mof_O 	O 	0.5492	0.5679	0.1255	-0.398
Mof_O 	O 	0.5354	0.7062	0.2505	-0.415
Mof_C 	C 	0.7524	0.6483	0.4883	0.301
Mof_C 	C 	0.5241	0.5492	0.3743	-0.048
Mof_C 	C 	0.617	0.5749	0.4959	-0.049
Mof_C 	C 	0.5925	0.5266	0.6244	-0.091
Mof_C 	C 	0.6998	0.5527	0.7568	0.407
Mof_C 	C 	0.539	0.6105	0.242	0.31
Mof_Tb	Tb	0.46185	0.26902	0.00856	1.608
Mof_O 	O 	0.6595	0.1404	0.114	-0.423
Mof_O 	O 	0.7172	0.2128	0.9166	-0.402
Mof_O 	O 	0.85	0.1139	0.6578	-0.486
Mof_O 	O 	0.6657	0.0111	0.7332	-0.309
Mof_O 	O 	0.9508	0.0679	0.3745	-0.401
Mof_O 	O 	0.9646	0.2062	0.2495	-0.416
Mof_C 	C 	0.7476	0.1483	0.0117	0.298
Mof_C 	C 	0.9759	0.0492	0.1257	-0.054
Mof_C 	C 	0.883	0.0749	0.0041	-0.053
Mof_C 	C 	0.9075	0.0266	0.8756	-0.081
Mof_C 	C 	0.8002	0.0527	0.7432	0.405
Mof_C 	C 	0.961	0.1105	0.258	0.311
Mof_Tb	Tb	0.96185	0.23098	0.50856	1.61
Mof_O 	O 	0.1595	0.3596	0.614	-0.422
Mof_O 	O 	0.2172	0.2872	0.4166	-0.406
Mof_O 	O 	0.35	0.3861	0.1578	-0.487
Mof_O 	O 	0.1657	0.4889	0.2332	-0.309
Mof_O 	O 	0.4508	0.4321	0.8745	-0.398
Mof_O 	O 	0.4646	0.2938	0.7495	-0.415
Mof_C 	C 	0.2476	0.3517	0.5117	0.301
Mof_C 	C 	0.4759	0.4508	0.6257	-0.048
Mof_C 	C 	0.383	0.4251	0.5041	-0.049
Mof_C 	C 	0.4075	0.4734	0.3756	-0.091
Mof_C 	C 	0.3002	0.4473	0.2432	0.407
Mof_C 	C 	0.461	0.3895	0.758	0.31
Mof_Tb	Tb	0.53815	0.73098	0.99144	1.608
Mof_O 	O 	0.3405	0.8596	0.886	-0.423
Mof_O 	O 	0.2828	0.7872	0.0834	-0.402
Mof_O 	O 	0.15	0.8861	0.3422	-0.486
Mof_O 	O 	0.3343	0.9889	0.2668	-0.309
Mof_O 	O 	0.0492	0.9321	0.6255	-0.401
Mof_O 	O 	0.0354	0.7938	0.7505	-0.417
Mof_C 	C 	0.2524	0.8517	0.9883	0.298
Mof_C 	C 	0.0241	0.9508	0.8743	-0.054
Mof_C 	C 	0.117	0.9251	0.9959	-0.053
Mof_C 	C 	0.0925	0.9734	0.1244	-0.081
Mof_C 	C 	0.1998	0.9473	0.2568	0.405
Mof_C 	C 	0.039	0.8895	0.742	0.311
_end
