data_functionalizedCrystal
_audit_creation_method	'EQeq! by Chris Wilmer'
_symmetry_space_group_name_H-M	'P1'
_symmetry_Int_Tables_number	1
_symmetry_cell_setting	triclinic
loop_
_symmetry_equiv_pos_as_xyz
  x,y,z
_cell_length_a	35.1288
_cell_length_b	14.767
_cell_length_c	30.8649
_cell_angle_alpha	90
_cell_angle_beta	101.432
_cell_angle_gamma	90
loop_
_atom_site_label
_atom_site_type_symbol
_atom_site_fract_x
_atom_site_fract_y
_atom_site_fract_z
_atom_site_charge
Mof_Zn	Zn	0.91529	0.62492	0.90519	1.16
Mof_Zn	Zn	0.82622	0.85392	0.72962	1.157
Mof_N 	N 	0.87747	0.5569	0.85568	-0.273
Mof_C 	C 	0.84519	0.5931	0.83268	0.063
Mof_H 	H 	0.8375	0.6514	0.8406	-0.015
Mof_C 	C 	0.82225	0.5483	0.79724	-0.13
Mof_H 	H 	0.7996	0.576	0.7807	0.078
Mof_C 	C 	0.83333	0.4617	0.78667	0.054
Mof_C 	C 	0.86661	0.4244	0.811	-0.127
Mof_H 	H 	0.8745	0.3651	0.8047	0.087
Mof_C 	C 	0.88824	0.4746	0.8445	0.071
Mof_H 	H 	0.9119	0.4498	0.8605	-0.017
Mof_N 	N 	0.6672	0.534	0.60619	-0.283
Mof_C 	C 	0.67796	0.4502	0.59691	0.062
Mof_H 	H 	0.6646	0.4219	0.5706	-0.009
Mof_C 	C 	0.70761	0.403	0.62384	-0.114
Mof_H 	H 	0.7143	0.3434	0.6164	0.079
Mof_C 	C 	0.72731	0.4448	0.66187	0.042
Mof_C 	C 	0.71604	0.5316	0.67136	-0.124
Mof_H 	H 	0.7291	0.5619	0.6973	0.088
Mof_C 	C 	0.68593	0.5737	0.6431	0.066
Mof_H 	H 	0.6783	0.6327	0.6501	-0.009
Mof_N 	N 	0.81542	0.9917	0.72085	-0.273
Mof_C 	C 	0.78484	0.0256	0.69311	0.068
Mof_H 	H 	0.767	0.9851	0.6758	-0.014
Mof_C 	C 	0.7781	0.1178	0.68858	-0.123
Mof_H 	H 	0.7563	0.14	0.668	0.075
Mof_C 	C 	0.80333	0.1769	0.71422	0.051
Mof_C 	C 	0.83572	0.1419	0.7421	-0.12
Mof_H 	H 	0.8542	0.181	0.7594	0.071
Mof_C 	C 	0.84081	0.0498	0.7445	0.058
Mof_H 	H 	0.8632	0.0261	0.7636	-0.022
Mof_C 	C 	0.80953	0.4091	0.75026	0.095
Mof_N 	N 	0.77924	0.4501	0.72487	-0.143
Mof_C 	C 	0.75977	0.3993	0.69253	0.082
Mof_N 	N 	0.76642	0.311	0.6855	-0.144
Mof_C 	C 	0.79591	0.2765	0.71446	0.095
Mof_N 	N 	0.81971	0.3232	0.74585	-0.138
Mof_N 	N 	0.57774	0.5109	0.55958	-0.285
Mof_C 	C 	0.5626	0.4996	0.595	0.079
Mof_H 	H 	0.5736	0.5318	0.6212	-0.028
Mof_C 	C 	0.5317	0.4437	0.596	-0.128
Mof_H 	H 	0.5221	0.4369	0.6224	0.075
Mof_C 	C 	0.51468	0.3973	0.55819	0.048
Mof_C 	C 	0.53133	0.4047	0.5219	-0.124
Mof_H 	H 	0.5216	0.3705	0.496	0.073
Mof_C 	C 	0.56279	0.4632	0.5235	0.067
Mof_H 	H 	0.5739	0.4693	0.498	-0.018
Mof_N 	N 	0.35994	0.3329	0.68324	-0.283
Mof_C 	C 	0.3935	0.3756	0.6868	0.075
Mof_H 	H 	0.4011	0.4157	0.711	-0.034
Mof_C 	C 	0.4179	0.3653	0.6575	-0.128
Mof_H 	H 	0.4414	0.3991	0.6609	0.072
Mof_C 	C 	0.4078	0.3049	0.6227	0.06
Mof_C 	C 	0.37237	0.2606	0.61863	-0.115
Mof_H 	H 	0.3641	0.2191	0.5951	0.081
Mof_C 	C 	0.34934	0.2773	0.6489	0.072
Mof_H 	H 	0.3248	0.2479	0.6453	-0.016
Mof_N 	N 	0.42801	0.9833	0.44826	-0.272
Mof_C 	C 	0.40112	0.0104	0.471	0.078
Mof_H 	H 	0.3776	0.9768	0.4677	-0.019
Mof_C 	C 	0.40588	0.0841	0.4987	-0.122
Mof_H 	H 	0.3862	0.1013	0.5142	0.076
Mof_C 	C 	0.44043	0.1331	0.50349	0.057
Mof_C 	C 	0.46786	0.1064	0.47963	-0.136
Mof_H 	H 	0.4913	0.1396	0.4819	0.087
Mof_C 	C 	0.46104	0.0317	0.45263	0.08
Mof_H 	H 	0.4802	0.0136	0.4366	-0.024
Mof_C 	C 	0.48144	0.3359	0.55871	0.09
Mof_N 	N 	0.461	0.3504	0.58979	-0.141
Mof_C 	C 	0.43236	0.2915	0.58974	0.102
Mof_N 	N 	0.42458	0.22	0.56312	-0.138
Mof_C 	C 	0.44667	0.2132	0.53315	0.084
Mof_N 	N 	0.47502	0.2707	0.52839	-0.149
Mof_Zn	Zn	0.62234	0.6018	0.5655	0.615
Mof_I 	I 	0.6436	0.60175	0.492	0.008
Mof_I 	I 	0.60365	0.73957	0.60575	-0.378
Mof_I 	I 	0.76604	0.7608	0.7059	-0.118
Mof_I 	I 	0.87093	0.8378	0.80544	-0.203
Mof_I 	I 	0.8731	0.7301	0.94175	-0.193
Mof_I 	I 	0.9726	0.6594	0.87234	-0.141
Mof_I 	I 	0.88129	0.7437	0.94217	-0.156
Mof_I 	I 	0.97499	0.6486	0.86883	-0.212
Mof_Zn	Zn	0.6269	0.5914	0.5565	0.604
Mof_I 	I 	0.64641	0.5804	0.4817	-0.386
Mof_I 	I 	0.6132	0.74198	0.5915	-0.03
Mof_I 	I 	0.7595	0.7712	0.7029	-0.218
Mof_I 	I 	0.8654	0.8354	0.8069	-0.18
Mof_Zn	Zn	0.41529	0.12492	0.90519	1.159
Mof_Zn	Zn	0.32622	0.35392	0.72962	1.156
Mof_N 	N 	0.37747	0.0569	0.85568	-0.274
Mof_C 	C 	0.34519	0.0931	0.83268	0.062
Mof_H 	H 	0.3375	0.1514	0.8406	-0.016
Mof_C 	C 	0.32225	0.0483	0.79724	-0.131
Mof_H 	H 	0.2996	0.076	0.7807	0.077
Mof_C 	C 	0.33333	0.9617	0.78667	0.054
Mof_C 	C 	0.36661	0.9244	0.811	-0.128
Mof_H 	H 	0.3745	0.8651	0.8047	0.087
Mof_C 	C 	0.38824	0.9746	0.8445	0.071
Mof_H 	H 	0.4119	0.9498	0.8605	-0.019
Mof_N 	N 	0.1672	0.034	0.60619	-0.285
Mof_C 	C 	0.17796	0.9502	0.59691	0.061
Mof_H 	H 	0.1646	0.9219	0.5706	-0.01
Mof_C 	C 	0.20761	0.903	0.62384	-0.115
Mof_H 	H 	0.2143	0.8434	0.6164	0.078
Mof_C 	C 	0.22731	0.9448	0.66187	0.041
Mof_C 	C 	0.21604	0.0316	0.67136	-0.125
Mof_H 	H 	0.2291	0.0619	0.6973	0.087
Mof_C 	C 	0.18593	0.0737	0.6431	0.066
Mof_H 	H 	0.1783	0.1327	0.6501	-0.009
Mof_N 	N 	0.31542	0.4917	0.72085	-0.274
Mof_C 	C 	0.28484	0.5256	0.69311	0.069
Mof_H 	H 	0.267	0.4851	0.6758	-0.014
Mof_C 	C 	0.2781	0.6178	0.68858	-0.124
Mof_H 	H 	0.2563	0.64	0.668	0.075
Mof_C 	C 	0.30333	0.6769	0.71422	0.051
Mof_C 	C 	0.33572	0.6419	0.7421	-0.12
Mof_H 	H 	0.3542	0.681	0.7594	0.071
Mof_C 	C 	0.34081	0.5498	0.7445	0.058
Mof_H 	H 	0.3632	0.5261	0.7636	-0.022
Mof_C 	C 	0.30953	0.9091	0.75026	0.095
Mof_N 	N 	0.27924	0.9501	0.72487	-0.143
Mof_C 	C 	0.25977	0.8993	0.69253	0.082
Mof_N 	N 	0.26642	0.811	0.6855	-0.144
Mof_C 	C 	0.29591	0.7765	0.71446	0.095
Mof_N 	N 	0.31971	0.8232	0.74585	-0.138
Mof_N 	N 	0.07774	0.0109	0.55958	-0.285
Mof_C 	C 	0.0626	0.9996	0.595	0.08
Mof_H 	H 	0.0736	0.0318	0.6212	-0.028
Mof_C 	C 	0.0317	0.9437	0.596	-0.128
Mof_H 	H 	0.0221	0.9369	0.6224	0.075
Mof_C 	C 	0.01468	0.8973	0.55819	0.048
Mof_C 	C 	0.03133	0.9047	0.5219	-0.124
Mof_H 	H 	0.0216	0.8705	0.496	0.073
Mof_C 	C 	0.06279	0.9632	0.5235	0.067
Mof_H 	H 	0.0739	0.9693	0.498	-0.018
Mof_N 	N 	0.85994	0.8329	0.68324	-0.283
Mof_C 	C 	0.8935	0.8756	0.6868	0.075
Mof_H 	H 	0.9011	0.9157	0.711	-0.034
Mof_C 	C 	0.9179	0.8653	0.6575	-0.128
Mof_H 	H 	0.9414	0.8991	0.6609	0.072
Mof_C 	C 	0.9078	0.8049	0.6227	0.06
Mof_C 	C 	0.87237	0.7606	0.61863	-0.115
Mof_H 	H 	0.8641	0.7191	0.5951	0.082
Mof_C 	C 	0.84934	0.7773	0.6489	0.072
Mof_H 	H 	0.8248	0.7479	0.6453	-0.016
Mof_N 	N 	0.92801	0.4833	0.44826	-0.272
Mof_C 	C 	0.90112	0.5104	0.471	0.078
Mof_H 	H 	0.8776	0.4768	0.4677	-0.019
Mof_C 	C 	0.90588	0.5841	0.4987	-0.122
Mof_H 	H 	0.8862	0.6013	0.5142	0.076
Mof_C 	C 	0.94043	0.6331	0.50349	0.057
Mof_C 	C 	0.96786	0.6064	0.47963	-0.136
Mof_H 	H 	0.9913	0.6396	0.4819	0.087
Mof_C 	C 	0.96104	0.5317	0.45263	0.08
Mof_H 	H 	0.9802	0.5136	0.4366	-0.024
Mof_C 	C 	0.98144	0.8359	0.55871	0.09
Mof_N 	N 	0.961	0.8504	0.58979	-0.141
Mof_C 	C 	0.93236	0.7915	0.58974	0.102
Mof_N 	N 	0.92458	0.72	0.56312	-0.138
Mof_C 	C 	0.94667	0.7132	0.53315	0.084
Mof_N 	N 	0.97502	0.7707	0.52839	-0.149
Mof_Zn	Zn	0.12234	0.1018	0.5655	0.615
Mof_I 	I 	0.1436	0.10175	0.492	0.008
Mof_I 	I 	0.10365	0.23957	0.60575	-0.378
Mof_I 	I 	0.26604	0.2608	0.7059	-0.118
Mof_I 	I 	0.37093	0.3378	0.80544	-0.203
Mof_I 	I 	0.3731	0.2301	0.94175	-0.193
Mof_I 	I 	0.4726	0.1594	0.87234	-0.141
Mof_I 	I 	0.38129	0.2437	0.94217	-0.156
Mof_I 	I 	0.47499	0.1486	0.86883	-0.212
Mof_Zn	Zn	0.1269	0.0914	0.5565	0.604
Mof_I 	I 	0.14641	0.0804	0.4817	-0.386
Mof_I 	I 	0.1132	0.24198	0.5915	-0.031
Mof_I 	I 	0.2595	0.2712	0.7029	-0.218
Mof_I 	I 	0.3654	0.3354	0.8069	-0.18
Mof_Zn	Zn	0.91529	0.37508	0.40519	1.159
Mof_Zn	Zn	0.82622	0.14608	0.22962	1.156
Mof_N 	N 	0.87747	0.4431	0.35568	-0.274
Mof_C 	C 	0.84519	0.4069	0.33268	0.062
Mof_H 	H 	0.8375	0.3486	0.3406	-0.016
Mof_C 	C 	0.82225	0.4517	0.29724	-0.131
Mof_H 	H 	0.7996	0.424	0.2807	0.077
Mof_C 	C 	0.83333	0.5383	0.28667	0.053
Mof_C 	C 	0.86661	0.5756	0.311	-0.128
Mof_H 	H 	0.8745	0.6349	0.3047	0.086
Mof_C 	C 	0.88824	0.5254	0.3445	0.07
Mof_H 	H 	0.9119	0.5502	0.3605	-0.018
Mof_N 	N 	0.6672	0.466	0.10619	-0.284
Mof_C 	C 	0.67796	0.5498	0.09691	0.061
Mof_H 	H 	0.6646	0.5781	0.0706	-0.01
Mof_C 	C 	0.70761	0.597	0.12384	-0.115
Mof_H 	H 	0.7143	0.6566	0.1164	0.078
Mof_C 	C 	0.72731	0.5552	0.16187	0.041
Mof_C 	C 	0.71604	0.4684	0.17136	-0.125
Mof_H 	H 	0.7291	0.4381	0.1973	0.087
Mof_C 	C 	0.68593	0.4263	0.1431	0.066
Mof_H 	H 	0.6783	0.3673	0.1501	-0.009
Mof_N 	N 	0.81542	0.0083	0.22085	-0.273
Mof_C 	C 	0.78484	0.9744	0.19311	0.067
Mof_H 	H 	0.767	0.0149	0.1758	-0.014
Mof_C 	C 	0.7781	0.8822	0.18858	-0.123
Mof_H 	H 	0.7563	0.86	0.168	0.074
Mof_C 	C 	0.80333	0.8231	0.21422	0.051
Mof_C 	C 	0.83572	0.8581	0.2421	-0.12
Mof_H 	H 	0.8542	0.819	0.2594	0.071
Mof_C 	C 	0.84081	0.9502	0.2445	0.057
Mof_H 	H 	0.8632	0.9739	0.2636	-0.022
Mof_C 	C 	0.80953	0.5909	0.25026	0.095
Mof_N 	N 	0.77924	0.5499	0.22487	-0.143
Mof_C 	C 	0.75977	0.6007	0.19253	0.082
Mof_N 	N 	0.76642	0.689	0.1855	-0.144
Mof_C 	C 	0.79591	0.7235	0.21446	0.095
Mof_N 	N 	0.81971	0.6768	0.24585	-0.138
Mof_N 	N 	0.57774	0.4891	0.05958	-0.285
Mof_C 	C 	0.5626	0.5004	0.095	0.08
Mof_H 	H 	0.5736	0.4682	0.1212	-0.028
Mof_C 	C 	0.5317	0.5563	0.096	-0.128
Mof_H 	H 	0.5221	0.5631	0.1224	0.075
Mof_C 	C 	0.51468	0.6027	0.05819	0.048
Mof_C 	C 	0.53133	0.5953	0.0219	-0.124
Mof_H 	H 	0.5216	0.6295	0.996	0.073
Mof_C 	C 	0.56279	0.5368	0.0235	0.067
Mof_H 	H 	0.5739	0.5307	0.998	-0.018
Mof_N 	N 	0.35994	0.6671	0.18324	-0.283
Mof_C 	C 	0.3935	0.6244	0.1868	0.075
Mof_H 	H 	0.4011	0.5843	0.211	-0.034
Mof_C 	C 	0.4179	0.6347	0.1575	-0.128
Mof_H 	H 	0.4414	0.6009	0.1609	0.072
Mof_C 	C 	0.4078	0.6951	0.1227	0.06
Mof_C 	C 	0.37237	0.7394	0.11863	-0.115
Mof_H 	H 	0.3641	0.7809	0.0951	0.081
Mof_C 	C 	0.34934	0.7227	0.1489	0.072
Mof_H 	H 	0.3248	0.7521	0.1453	-0.016
Mof_N 	N 	0.42801	0.0167	0.94826	-0.272
Mof_C 	C 	0.40112	0.9896	0.971	0.078
Mof_H 	H 	0.3776	0.0232	0.9677	-0.02
Mof_C 	C 	0.40588	0.9159	0.9987	-0.121
Mof_H 	H 	0.3862	0.8987	0.0142	0.076
Mof_C 	C 	0.44043	0.8669	0.00349	0.055
Mof_C 	C 	0.46786	0.8936	0.97963	-0.135
Mof_H 	H 	0.4913	0.8604	0.9819	0.087
Mof_C 	C 	0.46104	0.9683	0.95263	0.08
Mof_H 	H 	0.4802	0.9864	0.9366	-0.024
Mof_C 	C 	0.48144	0.6641	0.05871	0.09
Mof_N 	N 	0.461	0.6496	0.08979	-0.141
Mof_C 	C 	0.43236	0.7085	0.08974	0.102
Mof_N 	N 	0.42458	0.78	0.06312	-0.138
Mof_C 	C 	0.44667	0.7868	0.03315	0.084
Mof_N 	N 	0.47502	0.7293	0.02839	-0.149
Mof_Zn	Zn	0.62234	0.3982	0.0655	0.615
Mof_I 	I 	0.6436	0.39825	0.992	0.008
Mof_I 	I 	0.60365	0.26043	0.10575	-0.378
Mof_I 	I 	0.76604	0.2392	0.2059	-0.118
Mof_I 	I 	0.87093	0.1622	0.30544	-0.203
Mof_I 	I 	0.8731	0.2699	0.44175	-0.193
Mof_I 	I 	0.9726	0.3406	0.37234	-0.14
Mof_I 	I 	0.88129	0.2563	0.44217	-0.156
Mof_I 	I 	0.97499	0.3514	0.36883	-0.212
Mof_Zn	Zn	0.6269	0.4086	0.0565	0.604
Mof_I 	I 	0.64641	0.4196	0.9817	-0.387
Mof_I 	I 	0.6132	0.25802	0.0915	-0.03
Mof_I 	I 	0.7595	0.2288	0.2029	-0.218
Mof_I 	I 	0.8654	0.1646	0.3069	-0.18
Mof_Zn	Zn	0.41529	0.87508	0.40519	1.159
Mof_Zn	Zn	0.32622	0.64608	0.22962	1.156
Mof_N 	N 	0.37747	0.9431	0.35568	-0.274
Mof_C 	C 	0.34519	0.9069	0.33268	0.062
Mof_H 	H 	0.3375	0.8486	0.3406	-0.016
Mof_C 	C 	0.32225	0.9517	0.29724	-0.131
Mof_H 	H 	0.2996	0.924	0.2807	0.077
Mof_C 	C 	0.33333	0.0383	0.28667	0.054
Mof_C 	C 	0.36661	0.0756	0.311	-0.128
Mof_H 	H 	0.3745	0.1349	0.3047	0.086
Mof_C 	C 	0.38824	0.0254	0.3445	0.07
Mof_H 	H 	0.4119	0.0502	0.3605	-0.018
Mof_N 	N 	0.1672	0.966	0.10619	-0.285
Mof_C 	C 	0.17796	0.0498	0.09691	0.061
Mof_H 	H 	0.1646	0.0781	0.0706	-0.01
Mof_C 	C 	0.20761	0.097	0.12384	-0.115
Mof_H 	H 	0.2143	0.1566	0.1164	0.078
Mof_C 	C 	0.22731	0.0552	0.16187	0.042
Mof_C 	C 	0.21604	0.9684	0.17136	-0.126
Mof_H 	H 	0.2291	0.9381	0.1973	0.087
Mof_C 	C 	0.18593	0.9263	0.1431	0.066
Mof_H 	H 	0.1783	0.8673	0.1501	-0.009
Mof_N 	N 	0.31542	0.5083	0.22085	-0.274
Mof_C 	C 	0.28484	0.4744	0.19311	0.069
Mof_H 	H 	0.267	0.5149	0.1758	-0.014
Mof_C 	C 	0.2781	0.3822	0.18858	-0.124
Mof_H 	H 	0.2563	0.36	0.168	0.075
Mof_C 	C 	0.30333	0.3231	0.21422	0.051
Mof_C 	C 	0.33572	0.3581	0.2421	-0.12
Mof_H 	H 	0.3542	0.319	0.2594	0.071
Mof_C 	C 	0.34081	0.4502	0.2445	0.058
Mof_H 	H 	0.3632	0.4739	0.2636	-0.022
Mof_C 	C 	0.30953	0.0909	0.25026	0.095
Mof_N 	N 	0.27924	0.0499	0.22487	-0.143
Mof_C 	C 	0.25977	0.1007	0.19253	0.081
Mof_N 	N 	0.26642	0.189	0.1855	-0.144
Mof_C 	C 	0.29591	0.2235	0.21446	0.095
Mof_N 	N 	0.31971	0.1768	0.24585	-0.138
Mof_N 	N 	0.07774	0.9891	0.05958	-0.286
Mof_C 	C 	0.0626	0.0004	0.095	0.081
Mof_H 	H 	0.0736	0.9682	0.1212	-0.028
Mof_C 	C 	0.0317	0.0563	0.096	-0.129
Mof_H 	H 	0.0221	0.0631	0.1224	0.075
Mof_C 	C 	0.01468	0.1027	0.05819	0.048
Mof_C 	C 	0.03133	0.0953	0.0219	-0.124
Mof_H 	H 	0.0216	0.1295	0.996	0.072
Mof_C 	C 	0.06279	0.0368	0.0235	0.068
Mof_H 	H 	0.0739	0.0307	0.998	-0.019
Mof_N 	N 	0.85994	0.1671	0.18324	-0.283
Mof_C 	C 	0.8935	0.1244	0.1868	0.075
Mof_H 	H 	0.9011	0.0843	0.211	-0.034
Mof_C 	C 	0.9179	0.1347	0.1575	-0.128
Mof_H 	H 	0.9414	0.1009	0.1609	0.072
Mof_C 	C 	0.9078	0.1951	0.1227	0.06
Mof_C 	C 	0.87237	0.2394	0.11863	-0.115
Mof_H 	H 	0.8641	0.2809	0.0951	0.082
Mof_C 	C 	0.84934	0.2227	0.1489	0.072
Mof_H 	H 	0.8248	0.2521	0.1453	-0.016
Mof_N 	N 	0.92801	0.5167	0.94826	-0.272
Mof_C 	C 	0.90112	0.4896	0.971	0.078
Mof_H 	H 	0.8776	0.5232	0.9677	-0.019
Mof_C 	C 	0.90588	0.4159	0.9987	-0.123
Mof_H 	H 	0.8862	0.3987	0.0142	0.077
Mof_C 	C 	0.94043	0.3669	0.00349	0.057
Mof_C 	C 	0.96786	0.3936	0.97963	-0.137
Mof_H 	H 	0.9913	0.3604	0.9819	0.087
Mof_C 	C 	0.96104	0.4683	0.95263	0.08
Mof_H 	H 	0.9802	0.4864	0.9366	-0.024
Mof_C 	C 	0.98144	0.1641	0.05871	0.09
Mof_N 	N 	0.961	0.1496	0.08979	-0.141
Mof_C 	C 	0.93236	0.2085	0.08974	0.102
Mof_N 	N 	0.92458	0.28	0.06312	-0.138
Mof_C 	C 	0.94667	0.2868	0.03315	0.083
Mof_N 	N 	0.97502	0.2293	0.02839	-0.149
Mof_Zn	Zn	0.12234	0.8982	0.0655	0.615
Mof_I 	I 	0.1436	0.89825	0.992	0.008
Mof_I 	I 	0.10365	0.76043	0.10575	-0.378
Mof_I 	I 	0.26604	0.7392	0.2059	-0.118
Mof_I 	I 	0.37093	0.6622	0.30544	-0.203
Mof_I 	I 	0.3731	0.7699	0.44175	-0.193
Mof_I 	I 	0.4726	0.8406	0.37234	-0.141
Mof_I 	I 	0.38129	0.7563	0.44217	-0.156
Mof_I 	I 	0.47499	0.8514	0.36883	-0.212
Mof_Zn	Zn	0.1269	0.9086	0.0565	0.604
Mof_I 	I 	0.14641	0.9196	0.9817	-0.386
Mof_I 	I 	0.1132	0.75802	0.0915	-0.03
Mof_I 	I 	0.2595	0.7288	0.2029	-0.218
Mof_I 	I 	0.3654	0.6646	0.3069	-0.18
Mof_Zn	Zn	0.08471	0.62492	0.59481	1.159
Mof_Zn	Zn	0.17378	0.85392	0.77038	1.156
Mof_N 	N 	0.12253	0.5569	0.64432	-0.274
Mof_C 	C 	0.15481	0.5931	0.66732	0.062
Mof_H 	H 	0.1625	0.6514	0.6594	-0.016
Mof_C 	C 	0.17775	0.5483	0.70276	-0.131
Mof_H 	H 	0.2004	0.576	0.7193	0.077
Mof_C 	C 	0.16667	0.4617	0.71333	0.053
Mof_C 	C 	0.13339	0.4244	0.689	-0.128
Mof_H 	H 	0.1255	0.3651	0.6953	0.086
Mof_C 	C 	0.11176	0.4746	0.6555	0.07
Mof_H 	H 	0.0881	0.4498	0.6395	-0.018
Mof_N 	N 	0.3328	0.534	0.89381	-0.284
Mof_C 	C 	0.32204	0.4502	0.90309	0.061
Mof_H 	H 	0.3354	0.4219	0.9294	-0.01
Mof_C 	C 	0.29239	0.403	0.87616	-0.115
Mof_H 	H 	0.2857	0.3434	0.8836	0.078
Mof_C 	C 	0.27269	0.4448	0.83813	0.041
Mof_C 	C 	0.28396	0.5316	0.82864	-0.125
Mof_H 	H 	0.2709	0.5619	0.8027	0.087
Mof_C 	C 	0.31407	0.5737	0.8569	0.066
Mof_H 	H 	0.3217	0.6327	0.8499	-0.009
Mof_N 	N 	0.18458	0.9917	0.77915	-0.273
Mof_C 	C 	0.21516	0.0256	0.80689	0.067
Mof_H 	H 	0.233	0.9851	0.8242	-0.014
Mof_C 	C 	0.2219	0.1178	0.81142	-0.123
Mof_H 	H 	0.2437	0.14	0.832	0.074
Mof_C 	C 	0.19667	0.1769	0.78578	0.051
Mof_C 	C 	0.16428	0.1419	0.7579	-0.12
Mof_H 	H 	0.1458	0.181	0.7406	0.071
Mof_C 	C 	0.15919	0.0498	0.7555	0.057
Mof_H 	H 	0.1368	0.0261	0.7364	-0.022
Mof_C 	C 	0.19047	0.4091	0.74974	0.095
Mof_N 	N 	0.22076	0.4501	0.77513	-0.143
Mof_C 	C 	0.24023	0.3993	0.80747	0.082
Mof_N 	N 	0.23358	0.311	0.8145	-0.144
Mof_C 	C 	0.20409	0.2765	0.78554	0.095
Mof_N 	N 	0.18029	0.3232	0.75415	-0.138
Mof_N 	N 	0.42226	0.5109	0.94042	-0.285
Mof_C 	C 	0.4374	0.4996	0.905	0.08
Mof_H 	H 	0.4264	0.5318	0.8788	-0.028
Mof_C 	C 	0.4683	0.4437	0.904	-0.128
Mof_H 	H 	0.4779	0.4369	0.8776	0.075
Mof_C 	C 	0.48532	0.3973	0.94181	0.048
Mof_C 	C 	0.46867	0.4047	0.9781	-0.124
Mof_H 	H 	0.4784	0.3705	0.004	0.073
Mof_C 	C 	0.43721	0.4632	0.9765	0.067
Mof_H 	H 	0.4261	0.4693	0.002	-0.018
Mof_N 	N 	0.64006	0.3329	0.81676	-0.283
Mof_C 	C 	0.6065	0.3756	0.8132	0.075
Mof_H 	H 	0.5989	0.4157	0.789	-0.034
Mof_C 	C 	0.5821	0.3653	0.8425	-0.128
Mof_H 	H 	0.5586	0.3991	0.8391	0.072
Mof_C 	C 	0.5922	0.3049	0.8773	0.06
Mof_C 	C 	0.62763	0.2606	0.88137	-0.115
Mof_H 	H 	0.6359	0.2191	0.9049	0.081
Mof_C 	C 	0.65066	0.2773	0.8511	0.072
Mof_H 	H 	0.6752	0.2479	0.8547	-0.016
Mof_N 	N 	0.57199	0.9833	0.05174	-0.272
Mof_C 	C 	0.59888	0.0104	0.029	0.078
Mof_H 	H 	0.6224	0.9768	0.0323	-0.02
Mof_C 	C 	0.59412	0.0841	0.0013	-0.121
Mof_H 	H 	0.6138	0.1013	0.9858	0.076
Mof_C 	C 	0.55957	0.1331	0.99651	0.055
Mof_C 	C 	0.53214	0.1064	0.02037	-0.135
Mof_H 	H 	0.5087	0.1396	0.0181	0.087
Mof_C 	C 	0.53896	0.0317	0.04737	0.08
Mof_H 	H 	0.5198	0.0136	0.0634	-0.024
Mof_C 	C 	0.51856	0.3359	0.94129	0.09
Mof_N 	N 	0.539	0.3504	0.91021	-0.141
Mof_C 	C 	0.56764	0.2915	0.91026	0.102
Mof_N 	N 	0.57542	0.22	0.93688	-0.138
Mof_C 	C 	0.55333	0.2132	0.96685	0.084
Mof_N 	N 	0.52498	0.2707	0.97161	-0.149
Mof_Zn	Zn	0.37766	0.6018	0.9345	0.615
Mof_I 	I 	0.3564	0.60175	0.008	0.008
Mof_I 	I 	0.39635	0.73957	0.89425	-0.378
Mof_I 	I 	0.23396	0.7608	0.7941	-0.118
Mof_I 	I 	0.12907	0.8378	0.69456	-0.203
Mof_I 	I 	0.1269	0.7301	0.55825	-0.193
Mof_I 	I 	0.0274	0.6594	0.62766	-0.14
Mof_I 	I 	0.11871	0.7437	0.55783	-0.156
Mof_I 	I 	0.02501	0.6486	0.63117	-0.212
Mof_Zn	Zn	0.3731	0.5914	0.9435	0.604
Mof_I 	I 	0.35359	0.5804	0.0183	-0.387
Mof_I 	I 	0.3868	0.74198	0.9085	-0.03
Mof_I 	I 	0.2405	0.7712	0.7971	-0.218
Mof_I 	I 	0.1346	0.8354	0.6931	-0.18
Mof_Zn	Zn	0.58471	0.12492	0.59481	1.159
Mof_Zn	Zn	0.67378	0.35392	0.77038	1.156
Mof_N 	N 	0.62253	0.0569	0.64432	-0.274
Mof_C 	C 	0.65481	0.0931	0.66732	0.062
Mof_H 	H 	0.6625	0.1514	0.6594	-0.016
Mof_C 	C 	0.67775	0.0483	0.70276	-0.131
Mof_H 	H 	0.7004	0.076	0.7193	0.077
Mof_C 	C 	0.66667	0.9617	0.71333	0.054
Mof_C 	C 	0.63339	0.9244	0.689	-0.128
Mof_H 	H 	0.6255	0.8651	0.6953	0.086
Mof_C 	C 	0.61176	0.9746	0.6555	0.07
Mof_H 	H 	0.5881	0.9498	0.6395	-0.018
Mof_N 	N 	0.8328	0.034	0.89381	-0.285
Mof_C 	C 	0.82204	0.9502	0.90309	0.061
Mof_H 	H 	0.8354	0.9219	0.9294	-0.01
Mof_C 	C 	0.79239	0.903	0.87616	-0.115
Mof_H 	H 	0.7857	0.8434	0.8836	0.078
Mof_C 	C 	0.77269	0.9448	0.83813	0.042
Mof_C 	C 	0.78396	0.0316	0.82864	-0.126
Mof_H 	H 	0.7709	0.0619	0.8027	0.087
Mof_C 	C 	0.81407	0.0737	0.8569	0.066
Mof_H 	H 	0.8217	0.1327	0.8499	-0.009
Mof_N 	N 	0.68458	0.4917	0.77915	-0.274
Mof_C 	C 	0.71516	0.5256	0.80689	0.069
Mof_H 	H 	0.733	0.4851	0.8242	-0.014
Mof_C 	C 	0.7219	0.6178	0.81142	-0.124
Mof_H 	H 	0.7437	0.64	0.832	0.075
Mof_C 	C 	0.69667	0.6769	0.78578	0.051
Mof_C 	C 	0.66428	0.6419	0.7579	-0.12
Mof_H 	H 	0.6458	0.681	0.7406	0.071
Mof_C 	C 	0.65919	0.5498	0.7555	0.058
Mof_H 	H 	0.6368	0.5261	0.7364	-0.022
Mof_C 	C 	0.69047	0.9091	0.74974	0.095
Mof_N 	N 	0.72076	0.9501	0.77513	-0.143
Mof_C 	C 	0.74023	0.8993	0.80747	0.081
Mof_N 	N 	0.73358	0.811	0.8145	-0.144
Mof_C 	C 	0.70409	0.7765	0.78554	0.095
Mof_N 	N 	0.68029	0.8232	0.75415	-0.138
Mof_N 	N 	0.92226	0.0109	0.94042	-0.286
Mof_C 	C 	0.9374	0.9996	0.905	0.081
Mof_H 	H 	0.9264	0.0318	0.8788	-0.028
Mof_C 	C 	0.9683	0.9437	0.904	-0.129
Mof_H 	H 	0.9779	0.9369	0.8776	0.075
Mof_C 	C 	0.98532	0.8973	0.94181	0.048
Mof_C 	C 	0.96867	0.9047	0.9781	-0.124
Mof_H 	H 	0.9784	0.8705	0.004	0.072
Mof_C 	C 	0.93721	0.9632	0.9765	0.068
Mof_H 	H 	0.9261	0.9693	0.002	-0.019
Mof_N 	N 	0.14006	0.8329	0.81676	-0.283
Mof_C 	C 	0.1065	0.8756	0.8132	0.075
Mof_H 	H 	0.0989	0.9157	0.789	-0.034
Mof_C 	C 	0.0821	0.8653	0.8425	-0.128
Mof_H 	H 	0.0586	0.8991	0.8391	0.072
Mof_C 	C 	0.0922	0.8049	0.8773	0.06
Mof_C 	C 	0.12763	0.7606	0.88137	-0.115
Mof_H 	H 	0.1359	0.7191	0.9049	0.082
Mof_C 	C 	0.15066	0.7773	0.8511	0.072
Mof_H 	H 	0.1752	0.7479	0.8547	-0.016
Mof_N 	N 	0.07199	0.4833	0.05174	-0.272
Mof_C 	C 	0.09888	0.5104	0.029	0.078
Mof_H 	H 	0.1224	0.4768	0.0323	-0.019
Mof_C 	C 	0.09412	0.5841	0.0013	-0.123
Mof_H 	H 	0.1138	0.6013	0.9858	0.077
Mof_C 	C 	0.05957	0.6331	0.99651	0.057
Mof_C 	C 	0.03214	0.6064	0.02037	-0.137
Mof_H 	H 	0.0087	0.6396	0.0181	0.087
Mof_C 	C 	0.03896	0.5317	0.04737	0.08
Mof_H 	H 	0.0198	0.5136	0.0634	-0.024
Mof_C 	C 	0.01856	0.8359	0.94129	0.09
Mof_N 	N 	0.039	0.8504	0.91021	-0.141
Mof_C 	C 	0.06764	0.7915	0.91026	0.102
Mof_N 	N 	0.07542	0.72	0.93688	-0.138
Mof_C 	C 	0.05333	0.7132	0.96685	0.083
Mof_N 	N 	0.02498	0.7707	0.97161	-0.149
Mof_Zn	Zn	0.87766	0.1018	0.9345	0.615
Mof_I 	I 	0.8564	0.10175	0.008	0.008
Mof_I 	I 	0.89635	0.23957	0.89425	-0.378
Mof_I 	I 	0.73396	0.2608	0.7941	-0.118
Mof_I 	I 	0.62907	0.3378	0.69456	-0.203
Mof_I 	I 	0.6269	0.2301	0.55825	-0.193
Mof_I 	I 	0.5274	0.1594	0.62766	-0.141
Mof_I 	I 	0.61871	0.2437	0.55783	-0.156
Mof_I 	I 	0.52501	0.1486	0.63117	-0.212
Mof_Zn	Zn	0.8731	0.0914	0.9435	0.604
Mof_I 	I 	0.85359	0.0804	0.0183	-0.386
Mof_I 	I 	0.8868	0.24198	0.9085	-0.03
Mof_I 	I 	0.7405	0.2712	0.7971	-0.218
Mof_I 	I 	0.6346	0.3354	0.6931	-0.18
Mof_Zn	Zn	0.08471	0.37508	0.09481	1.159
Mof_Zn	Zn	0.17378	0.14608	0.27038	1.156
Mof_N 	N 	0.12253	0.4431	0.14432	-0.274
Mof_C 	C 	0.15481	0.4069	0.16732	0.062
Mof_H 	H 	0.1625	0.3486	0.1594	-0.016
Mof_C 	C 	0.17775	0.4517	0.20276	-0.131
Mof_H 	H 	0.2004	0.424	0.2193	0.077
Mof_C 	C 	0.16667	0.5383	0.21333	0.053
Mof_C 	C 	0.13339	0.5756	0.189	-0.128
Mof_H 	H 	0.1255	0.6349	0.1953	0.086
Mof_C 	C 	0.11176	0.5254	0.1555	0.07
Mof_H 	H 	0.0881	0.5502	0.1395	-0.018
Mof_N 	N 	0.3328	0.466	0.39381	-0.284
Mof_C 	C 	0.32204	0.5498	0.40309	0.061
Mof_H 	H 	0.3354	0.5781	0.4294	-0.01
Mof_C 	C 	0.29239	0.597	0.37616	-0.115
Mof_H 	H 	0.2857	0.6566	0.3836	0.078
Mof_C 	C 	0.27269	0.5552	0.33813	0.041
Mof_C 	C 	0.28396	0.4684	0.32864	-0.125
Mof_H 	H 	0.2709	0.4381	0.3027	0.087
Mof_C 	C 	0.31407	0.4263	0.3569	0.066
Mof_H 	H 	0.3217	0.3673	0.3499	-0.009
Mof_N 	N 	0.18458	0.0083	0.27915	-0.273
Mof_C 	C 	0.21516	0.9744	0.30689	0.068
Mof_H 	H 	0.233	0.0149	0.3242	-0.014
Mof_C 	C 	0.2219	0.8822	0.31142	-0.123
Mof_H 	H 	0.2437	0.86	0.332	0.075
Mof_C 	C 	0.19667	0.8231	0.28578	0.051
Mof_C 	C 	0.16428	0.8581	0.2579	-0.12
Mof_H 	H 	0.1458	0.819	0.2406	0.071
Mof_C 	C 	0.15919	0.9502	0.2555	0.058
Mof_H 	H 	0.1368	0.9739	0.2364	-0.022
Mof_C 	C 	0.19047	0.5909	0.24974	0.095
Mof_N 	N 	0.22076	0.5499	0.27513	-0.143
Mof_C 	C 	0.24023	0.6007	0.30747	0.082
Mof_N 	N 	0.23358	0.689	0.3145	-0.144
Mof_C 	C 	0.20409	0.7235	0.28554	0.095
Mof_N 	N 	0.18029	0.6768	0.25415	-0.138
Mof_N 	N 	0.42226	0.4891	0.44042	-0.285
Mof_C 	C 	0.4374	0.5004	0.405	0.079
Mof_H 	H 	0.4264	0.4682	0.3788	-0.028
Mof_C 	C 	0.4683	0.5563	0.404	-0.128
Mof_H 	H 	0.4779	0.5631	0.3776	0.075
Mof_C 	C 	0.48532	0.6027	0.44181	0.048
Mof_C 	C 	0.46867	0.5953	0.4781	-0.124
Mof_H 	H 	0.4784	0.6295	0.504	0.073
Mof_C 	C 	0.43721	0.5368	0.4765	0.067
Mof_H 	H 	0.4261	0.5307	0.502	-0.018
Mof_N 	N 	0.64006	0.6671	0.31676	-0.283
Mof_C 	C 	0.6065	0.6244	0.3132	0.075
Mof_H 	H 	0.5989	0.5843	0.289	-0.034
Mof_C 	C 	0.5821	0.6347	0.3425	-0.128
Mof_H 	H 	0.5586	0.6009	0.3391	0.072
Mof_C 	C 	0.5922	0.6951	0.3773	0.06
Mof_C 	C 	0.62763	0.7394	0.38137	-0.115
Mof_H 	H 	0.6359	0.7809	0.4049	0.081
Mof_C 	C 	0.65066	0.7227	0.3511	0.072
Mof_H 	H 	0.6752	0.7521	0.3547	-0.016
Mof_N 	N 	0.57199	0.0167	0.55174	-0.272
Mof_C 	C 	0.59888	0.9896	0.529	0.078
Mof_H 	H 	0.6224	0.0232	0.5323	-0.019
Mof_C 	C 	0.59412	0.9159	0.5013	-0.122
Mof_H 	H 	0.6138	0.8987	0.4858	0.076
Mof_C 	C 	0.55957	0.8669	0.49651	0.057
Mof_C 	C 	0.53214	0.8936	0.52037	-0.136
Mof_H 	H 	0.5087	0.8604	0.5181	0.087
Mof_C 	C 	0.53896	0.9683	0.54737	0.08
Mof_H 	H 	0.5198	0.9864	0.5634	-0.024
Mof_C 	C 	0.51856	0.6641	0.44129	0.09
Mof_N 	N 	0.539	0.6496	0.41021	-0.141
Mof_C 	C 	0.56764	0.7085	0.41026	0.102
Mof_N 	N 	0.57542	0.78	0.43688	-0.138
Mof_C 	C 	0.55333	0.7868	0.46685	0.084
Mof_N 	N 	0.52498	0.7293	0.47161	-0.149
Mof_Zn	Zn	0.37766	0.3982	0.4345	0.615
Mof_I 	I 	0.3564	0.39825	0.508	0.008
Mof_I 	I 	0.39635	0.26043	0.39425	-0.378
Mof_I 	I 	0.23396	0.2392	0.2941	-0.118
Mof_I 	I 	0.12907	0.1622	0.19456	-0.203
Mof_I 	I 	0.1269	0.2699	0.05825	-0.193
Mof_I 	I 	0.0274	0.3406	0.12766	-0.141
Mof_I 	I 	0.11871	0.2563	0.05783	-0.156
Mof_I 	I 	0.02501	0.3514	0.13117	-0.212
Mof_Zn	Zn	0.3731	0.4086	0.4435	0.604
Mof_I 	I 	0.35359	0.4196	0.5183	-0.386
Mof_I 	I 	0.3868	0.25802	0.4085	-0.03
Mof_I 	I 	0.2405	0.2288	0.2971	-0.218
Mof_I 	I 	0.1346	0.1646	0.1931	-0.18
Mof_Zn	Zn	0.58471	0.87508	0.09481	1.159
Mof_Zn	Zn	0.67378	0.64608	0.27038	1.156
Mof_N 	N 	0.62253	0.9431	0.14432	-0.274
Mof_C 	C 	0.65481	0.9069	0.16732	0.062
Mof_H 	H 	0.6625	0.8486	0.1594	-0.016
Mof_C 	C 	0.67775	0.9517	0.20276	-0.131
Mof_H 	H 	0.7004	0.924	0.2193	0.077
Mof_C 	C 	0.66667	0.0383	0.21333	0.054
Mof_C 	C 	0.63339	0.0756	0.189	-0.128
Mof_H 	H 	0.6255	0.1349	0.1953	0.087
Mof_C 	C 	0.61176	0.0254	0.1555	0.071
Mof_H 	H 	0.5881	0.0502	0.1395	-0.019
Mof_N 	N 	0.8328	0.966	0.39381	-0.285
Mof_C 	C 	0.82204	0.0498	0.40309	0.061
Mof_H 	H 	0.8354	0.0781	0.4294	-0.01
Mof_C 	C 	0.79239	0.097	0.37616	-0.115
Mof_H 	H 	0.7857	0.1566	0.3836	0.078
Mof_C 	C 	0.77269	0.0552	0.33813	0.041
Mof_C 	C 	0.78396	0.9684	0.32864	-0.125
Mof_H 	H 	0.7709	0.9381	0.3027	0.087
Mof_C 	C 	0.81407	0.9263	0.3569	0.066
Mof_H 	H 	0.8217	0.8673	0.3499	-0.009
Mof_N 	N 	0.68458	0.5083	0.27915	-0.274
Mof_C 	C 	0.71516	0.4744	0.30689	0.069
Mof_H 	H 	0.733	0.5149	0.3242	-0.014
Mof_C 	C 	0.7219	0.3822	0.31142	-0.124
Mof_H 	H 	0.7437	0.36	0.332	0.075
Mof_C 	C 	0.69667	0.3231	0.28578	0.051
Mof_C 	C 	0.66428	0.3581	0.2579	-0.12
Mof_H 	H 	0.6458	0.319	0.2406	0.071
Mof_C 	C 	0.65919	0.4502	0.2555	0.058
Mof_H 	H 	0.6368	0.4739	0.2364	-0.022
Mof_C 	C 	0.69047	0.0909	0.24974	0.095
Mof_N 	N 	0.72076	0.0499	0.27513	-0.143
Mof_C 	C 	0.74023	0.1007	0.30747	0.082
Mof_N 	N 	0.73358	0.189	0.3145	-0.144
Mof_C 	C 	0.70409	0.2235	0.28554	0.095
Mof_N 	N 	0.68029	0.1768	0.25415	-0.138
Mof_N 	N 	0.92226	0.9891	0.44042	-0.285
Mof_C 	C 	0.9374	0.0004	0.405	0.08
Mof_H 	H 	0.9264	0.9682	0.3788	-0.028
Mof_C 	C 	0.9683	0.0563	0.404	-0.128
Mof_H 	H 	0.9779	0.0631	0.3776	0.075
Mof_C 	C 	0.98532	0.1027	0.44181	0.048
Mof_C 	C 	0.96867	0.0953	0.4781	-0.124
Mof_H 	H 	0.9784	0.1295	0.504	0.073
Mof_C 	C 	0.93721	0.0368	0.4765	0.067
Mof_H 	H 	0.9261	0.0307	0.502	-0.018
Mof_N 	N 	0.14006	0.1671	0.31676	-0.283
Mof_C 	C 	0.1065	0.1244	0.3132	0.075
Mof_H 	H 	0.0989	0.0843	0.289	-0.034
Mof_C 	C 	0.0821	0.1347	0.3425	-0.128
Mof_H 	H 	0.0586	0.1009	0.3391	0.072
Mof_C 	C 	0.0922	0.1951	0.3773	0.06
Mof_C 	C 	0.12763	0.2394	0.38137	-0.115
Mof_H 	H 	0.1359	0.2809	0.4049	0.082
Mof_C 	C 	0.15066	0.2227	0.3511	0.072
Mof_H 	H 	0.1752	0.2521	0.3547	-0.016
Mof_N 	N 	0.07199	0.5167	0.55174	-0.272
Mof_C 	C 	0.09888	0.4896	0.529	0.078
Mof_H 	H 	0.1224	0.5232	0.5323	-0.019
Mof_C 	C 	0.09412	0.4159	0.5013	-0.122
Mof_H 	H 	0.1138	0.3987	0.4858	0.076
Mof_C 	C 	0.05957	0.3669	0.49651	0.057
Mof_C 	C 	0.03214	0.3936	0.52037	-0.136
Mof_H 	H 	0.0087	0.3604	0.5181	0.087
Mof_C 	C 	0.03896	0.4683	0.54737	0.08
Mof_H 	H 	0.0198	0.4864	0.5634	-0.024
Mof_C 	C 	0.01856	0.1641	0.44129	0.09
Mof_N 	N 	0.039	0.1496	0.41021	-0.141
Mof_C 	C 	0.06764	0.2085	0.41026	0.102
Mof_N 	N 	0.07542	0.28	0.43688	-0.138
Mof_C 	C 	0.05333	0.2868	0.46685	0.084
Mof_N 	N 	0.02498	0.2293	0.47161	-0.149
Mof_Zn	Zn	0.87766	0.8982	0.4345	0.615
Mof_I 	I 	0.8564	0.89825	0.508	0.008
Mof_I 	I 	0.89635	0.76043	0.39425	-0.378
Mof_I 	I 	0.73396	0.7392	0.2941	-0.118
Mof_I 	I 	0.62907	0.6622	0.19456	-0.203
Mof_I 	I 	0.6269	0.7699	0.05825	-0.193
Mof_I 	I 	0.5274	0.8406	0.12766	-0.141
Mof_I 	I 	0.61871	0.7563	0.05783	-0.156
Mof_I 	I 	0.52501	0.8514	0.13117	-0.212
Mof_Zn	Zn	0.8731	0.9086	0.4435	0.604
Mof_I 	I 	0.85359	0.9196	0.5183	-0.386
Mof_I 	I 	0.8868	0.75802	0.4085	-0.031
Mof_I 	I 	0.7405	0.7288	0.2971	-0.218
Mof_I 	I 	0.6346	0.6646	0.1931	-0.18
Mof_C 	C 	0.4537	0.87	0.588	0.162
Mof_H 	H 	0.4687	0.8921	0.5661	0.251
Mof_H 	H 	0.428	0.9	0.5808	0.081
Mof_C 	C 	0.4737	0.905	0.632	-0.441
Mof_H 	H 	0.4537	0.9201	0.6495	0.165
Mof_H 	H 	0.4874	0.9614	0.6278	0.136
Mof_C 	C 	0.5027	0.84	0.6596	0.406
Mof_H 	H 	0.4911	0.811	0.6828	-0.283
Mof_H 	H 	0.5263	0.8733	0.6739	-0.131
Mof_C 	C 	0.5128	0.769	0.628	-0.625
Mof_H 	H 	0.5337	0.7289	0.6436	0.237
Mof_H 	H 	0.5225	0.7991	0.6034	0.198
Mof_C 	C 	0.477	0.712	0.608	0.185
Mof_H 	H 	0.484	0.6608	0.5909	-0.029
Mof_H 	H 	0.4653	0.6859	0.6328	0.037
Mof_C 	C 	0.4469	0.77	0.5795	-0.256
Mof_H 	H 	0.4474	0.7575	0.5482	0.143
Mof_H 	H 	0.4207	0.7545	0.5845	0.1
Mof_C 	C 	0.38	0.847	0.672	-0.228
Mof_H 	H 	0.3573	0.8094	0.6593	0.092
Mof_H 	H 	0.3979	0.8456	0.6508	0.088
Mof_C 	C 	0.401	0.8	0.715	0.023
Mof_H 	H 	0.3819	0.7884	0.7336	0.025
Mof_H 	H 	0.411	0.7409	0.7069	0.014
Mof_C 	C 	0.435	0.855	0.741	-0.212
Mof_H 	H 	0.4595	0.823	0.7413	0.085
Mof_H 	H 	0.4313	0.8626	0.7717	0.093
Mof_C 	C 	0.436	0.949	0.719	0.088
Mof_H 	H 	0.4549	0.9881	0.7386	0
Mof_H 	H 	0.4449	0.942	0.6908	-0.009
Mof_C 	C 	0.396	0.998	0.71	-0.298
Mof_H 	H 	0.3861	0.0029	0.7375	0.139
Mof_H 	H 	0.399	0.0596	0.6985	0.221
Mof_C 	C 	0.3663	0.945	0.675	0.123
Mof_H 	H 	0.3407	0.9449	0.684	0.006
Mof_H 	H 	0.3634	0.9744	0.646	0.076
Mof_C 	C 	0.3927	0.0264	0.652	0.161
Mof_C 	C 	0.3541	0.034	0.6622	-0.557
Mof_H 	H 	0.3313	0.0102	0.6441	0.197
Mof_C 	C 	0.3543	0.0753	0.6976	0.522
Mof_H 	H 	0.3299	0.0806	0.7062	-0.149
Mof_C 	C 	0.3826	0.1108	0.7232	-0.523
Mof_H 	H 	0.3763	0.1406	0.7481	0.182
Mof_C 	C 	0.4242	0.1139	0.721	0.132
Mof_H 	H 	0.4443	0.1413	0.742	-0.022
Mof_C 	C 	0.4287	0.0664	0.6798	-0.262
Mof_H 	H 	0.4533	0.0615	0.6715	0.122
Mof_C 	C 	0.3989	0.9738	0.6126	-0.098
Mof_H 	H 	0.3757	0.9502	0.5953	0.051
Mof_C 	C 	0.4297	0.9542	0.5975	-0.138
Mof_H 	H 	0.4543	0.9804	0.6092	0.087
Mof_C 	C 	0.4242	0.89	0.5619	-0.035
Mof_H 	H 	0.3994	0.8658	0.5495	0.047
Mof_O 	O 	0.4549	0.868	0.5481	-0.446
Mof_C 	C 	0.5729	0.638	0.6899	-0.3
Mof_H 	H 	0.5618	0.6341	0.6579	0.116
Mof_H 	H 	0.6013	0.6283	0.6948	0.113
Mof_C 	C 	0.5531	0.571	0.717	0.106
Mof_H 	H 	0.5571	0.5071	0.7087	-0.018
Mof_H 	H 	0.5626	0.5785	0.7492	-0.017
Mof_C 	C 	0.5101	0.599	0.703	-0.329
Mof_H 	H 	0.5014	0.6306	0.7277	0.113
Mof_H 	H 	0.4935	0.5452	0.6949	0.115
Mof_C 	C 	0.5069	0.664	0.6626	0.324
Mof_H 	H 	0.4793	0.6711	0.6483	-0.106
Mof_H 	H 	0.5208	0.6369	0.6407	-0.091
Mof_C 	C 	0.5248	0.758	0.678	-0.653
Mof_H 	H 	0.5302	0.7934	0.6524	0.319
Mof_H 	H 	0.5075	0.7934	0.693	0.367
Mof_C 	C 	0.5628	0.731	0.7097	0.22
Mof_H 	H 	0.5585	0.7233	0.7403	-0.043
Mof_H 	H 	0.5835	0.7761	0.7096	-0.05
Mof_C 	C 	0.4159	0.618	0.666	-0.085
Mof_H 	H 	0.4335	0.6047	0.6945	0.046
Mof_H 	H 	0.3958	0.5705	0.6599	0.049
Mof_C 	C 	0.4395	0.623	0.628	-0.052
Mof_H 	H 	0.4569	0.57	0.6283	0.041
Mof_H 	H 	0.455	0.6791	0.6293	0.015
Mof_C 	C 	0.4071	0.622	0.586	-0.102
Mof_H 	H 	0.4081	0.6773	0.5682	0.048
Mof_H 	H 	0.4097	0.5683	0.5674	0.065
Mof_C 	C 	0.3686	0.618	0.6038	-0.063
Mof_H 	H 	0.37	0.5685	0.626	0.047
Mof_H 	H 	0.3463	0.6053	0.5793	0.055
Mof_C 	C 	0.3634	0.71	0.625	-0.101
Mof_H 	H 	0.3661	0.76	0.6047	0.046
Mof_H 	H 	0.3376	0.7139	0.6334	0.051
Mof_C 	C 	0.3971	0.712	0.6674	-0.078
Mof_H 	H 	0.3867	0.72	0.6947	0.045
Mof_H 	H 	0.4158	0.7613	0.6654	0.056
Mof_C 	C 	0.4827	0.3	0.7447	-0.119
Mof_H 	H 	0.4818	0.2353	0.7535	0.056
Mof_H 	H 	0.4607	0.3121	0.72	0.038
Mof_C 	C 	0.521	0.322	0.7322	-0.013
Mof_H 	H 	0.5422	0.3028	0.7565	0.045
Mof_H 	H 	0.5233	0.2864	0.7057	0.021
Mof_C 	C 	0.5272	0.419	0.7227	-0.101
Mof_H 	H 	0.5555	0.4304	0.7307	0.038
Mof_H 	H 	0.5197	0.4268	0.6902	0.04
Mof_C 	C 	0.5079	0.492	0.7431	0.03
Mof_H 	H 	0.4939	0.5317	0.7194	-0.012
Mof_H 	H 	0.528	0.5289	0.7621	0.004
Mof_C 	C 	0.4796	0.459	0.7705	-0.103
Mof_H 	H 	0.4833	0.4959	0.7978	0.047
Mof_H 	H 	0.453	0.471	0.7538	0.045
Mof_C 	C 	0.4822	0.362	0.7834	0.043
Mof_H 	H 	0.4597	0.3466	0.7969	0.011
Mof_H 	H 	0.5061	0.3525	0.806	0.015
Mof_C 	C 	0.5463	0.87	0.912	0.162
Mof_H 	H 	0.5313	0.8921	0.9339	0.251
Mof_H 	H 	0.572	0.9	0.9192	0.081
Mof_C 	C 	0.5263	0.905	0.868	-0.441
Mof_H 	H 	0.5463	0.9201	0.8505	0.165
Mof_H 	H 	0.5126	0.9614	0.8722	0.136
Mof_C 	C 	0.4973	0.84	0.8404	0.406
Mof_H 	H 	0.5089	0.811	0.8172	-0.283
Mof_H 	H 	0.4737	0.8733	0.8261	-0.131
Mof_C 	C 	0.4872	0.769	0.872	-0.625
Mof_H 	H 	0.4663	0.7289	0.8564	0.237
Mof_H 	H 	0.4775	0.7991	0.8966	0.198
Mof_C 	C 	0.523	0.712	0.892	0.185
Mof_H 	H 	0.516	0.6608	0.9091	-0.029
Mof_H 	H 	0.5347	0.6859	0.8672	0.037
Mof_C 	C 	0.5531	0.77	0.9205	-0.256
Mof_H 	H 	0.5526	0.7575	0.9518	0.143
Mof_H 	H 	0.5793	0.7545	0.9155	0.1
Mof_C 	C 	0.62	0.847	0.828	-0.228
Mof_H 	H 	0.6427	0.8094	0.8407	0.092
Mof_H 	H 	0.6021	0.8456	0.8492	0.088
Mof_C 	C 	0.599	0.8	0.785	0.022
Mof_H 	H 	0.6181	0.7884	0.7664	0.025
Mof_H 	H 	0.589	0.7409	0.7931	0.014
Mof_C 	C 	0.565	0.855	0.759	-0.212
Mof_H 	H 	0.5405	0.823	0.7587	0.085
Mof_H 	H 	0.5687	0.8626	0.7283	0.093
Mof_C 	C 	0.564	0.949	0.781	0.088
Mof_H 	H 	0.5451	0.9881	0.7614	0
Mof_H 	H 	0.5551	0.942	0.8092	-0.009
Mof_C 	C 	0.604	0.998	0.79	-0.297
Mof_H 	H 	0.6139	0.0029	0.7625	0.139
Mof_H 	H 	0.601	0.0596	0.8015	0.22
Mof_C 	C 	0.6337	0.945	0.825	0.122
Mof_H 	H 	0.6593	0.9449	0.816	0.007
Mof_H 	H 	0.6366	0.9744	0.854	0.076
Mof_C 	C 	0.6073	0.0264	0.848	0.161
Mof_C 	C 	0.6459	0.034	0.8378	-0.557
Mof_H 	H 	0.6687	0.0102	0.8559	0.196
Mof_C 	C 	0.6457	0.0753	0.8024	0.521
Mof_H 	H 	0.6701	0.0806	0.7938	-0.149
Mof_C 	C 	0.6174	0.1108	0.7768	-0.522
Mof_H 	H 	0.6237	0.1406	0.7519	0.182
Mof_C 	C 	0.5758	0.1139	0.779	0.132
Mof_H 	H 	0.5557	0.1413	0.758	-0.022
Mof_C 	C 	0.5713	0.0664	0.8202	-0.262
Mof_H 	H 	0.5467	0.0615	0.8285	0.122
Mof_C 	C 	0.6011	0.9738	0.8874	-0.097
Mof_H 	H 	0.6243	0.9502	0.9047	0.051
Mof_C 	C 	0.5703	0.9542	0.9025	-0.138
Mof_H 	H 	0.5457	0.9804	0.8908	0.087
Mof_C 	C 	0.5758	0.89	0.9381	-0.035
Mof_H 	H 	0.6006	0.8658	0.9505	0.047
Mof_O 	O 	0.5451	0.868	0.9519	-0.446
Mof_C 	C 	0.4271	0.638	0.8101	-0.3
Mof_H 	H 	0.4382	0.6341	0.8421	0.116
Mof_H 	H 	0.3987	0.6283	0.8052	0.114
Mof_C 	C 	0.4469	0.571	0.783	0.106
Mof_H 	H 	0.4429	0.5071	0.7913	-0.018
Mof_H 	H 	0.4374	0.5785	0.7508	-0.017
Mof_C 	C 	0.4899	0.599	0.797	-0.329
Mof_H 	H 	0.4986	0.6306	0.7723	0.113
Mof_H 	H 	0.5065	0.5452	0.8051	0.115
Mof_C 	C 	0.4931	0.664	0.8374	0.324
Mof_H 	H 	0.5207	0.6711	0.8517	-0.106
Mof_H 	H 	0.4792	0.6369	0.8593	-0.091
Mof_C 	C 	0.4752	0.758	0.822	-0.653
Mof_H 	H 	0.4698	0.7934	0.8476	0.319
Mof_H 	H 	0.4925	0.7934	0.807	0.367
Mof_C 	C 	0.4372	0.731	0.7903	0.221
Mof_H 	H 	0.4415	0.7233	0.7597	-0.043
Mof_H 	H 	0.4165	0.7761	0.7904	-0.05
Mof_C 	C 	0.5841	0.618	0.834	-0.085
Mof_H 	H 	0.5665	0.6047	0.8055	0.046
Mof_H 	H 	0.6042	0.5705	0.8401	0.049
Mof_C 	C 	0.5605	0.623	0.872	-0.052
Mof_H 	H 	0.5431	0.57	0.8717	0.041
Mof_H 	H 	0.545	0.6791	0.8707	0.015
Mof_C 	C 	0.5929	0.622	0.914	-0.102
Mof_H 	H 	0.5919	0.6773	0.9318	0.048
Mof_H 	H 	0.5903	0.5683	0.9326	0.065
Mof_C 	C 	0.6314	0.618	0.8962	-0.063
Mof_H 	H 	0.63	0.5685	0.874	0.047
Mof_H 	H 	0.6537	0.6053	0.9207	0.055
Mof_C 	C 	0.6366	0.71	0.875	-0.101
Mof_H 	H 	0.6339	0.76	0.8953	0.047
Mof_H 	H 	0.6624	0.7139	0.8666	0.051
Mof_C 	C 	0.6029	0.712	0.8326	-0.078
Mof_H 	H 	0.6133	0.72	0.8053	0.045
Mof_H 	H 	0.5842	0.7613	0.8346	0.056
Mof_C 	C 	0.5173	0.3	0.7553	-0.12
Mof_H 	H 	0.5182	0.2353	0.7465	0.056
Mof_H 	H 	0.5393	0.3121	0.78	0.038
Mof_C 	C 	0.479	0.322	0.7678	-0.013
Mof_H 	H 	0.4578	0.3028	0.7435	0.045
Mof_H 	H 	0.4767	0.2864	0.7943	0.021
Mof_C 	C 	0.4728	0.419	0.7773	-0.101
Mof_H 	H 	0.4445	0.4304	0.7693	0.038
Mof_H 	H 	0.4803	0.4268	0.8098	0.04
Mof_C 	C 	0.4921	0.492	0.7569	0.03
Mof_H 	H 	0.5061	0.5317	0.7806	-0.012
Mof_H 	H 	0.472	0.5289	0.7379	0.004
Mof_C 	C 	0.5204	0.459	0.7295	-0.103
Mof_H 	H 	0.5167	0.4959	0.7022	0.047
Mof_H 	H 	0.547	0.471	0.7462	0.045
Mof_C 	C 	0.5178	0.362	0.7166	0.043
Mof_H 	H 	0.5403	0.3466	0.7031	0.011
Mof_H 	H 	0.4939	0.3525	0.694	0.015
Mof_C 	C 	0.9537	0.37	0.588	0.163
Mof_H 	H 	0.9687	0.3921	0.5661	0.251
Mof_H 	H 	0.928	0.4	0.5808	0.081
Mof_C 	C 	0.9737	0.405	0.632	-0.442
Mof_H 	H 	0.9537	0.4201	0.6495	0.166
Mof_H 	H 	0.9874	0.4614	0.6278	0.136
Mof_C 	C 	0.0027	0.34	0.6596	0.407
Mof_H 	H 	0.9911	0.311	0.6828	-0.284
Mof_H 	H 	0.0263	0.3733	0.6739	-0.131
Mof_C 	C 	0.0128	0.269	0.628	-0.626
Mof_H 	H 	0.0337	0.2289	0.6436	0.237
Mof_H 	H 	0.0225	0.2991	0.6034	0.199
Mof_C 	C 	0.977	0.212	0.608	0.186
Mof_H 	H 	0.984	0.1608	0.5909	-0.03
Mof_H 	H 	0.9653	0.1859	0.6328	0.037
Mof_C 	C 	0.9469	0.27	0.5795	-0.256
Mof_H 	H 	0.9474	0.2575	0.5482	0.143
Mof_H 	H 	0.9207	0.2545	0.5845	0.1
Mof_C 	C 	0.88	0.347	0.672	-0.23
Mof_H 	H 	0.8573	0.3094	0.6593	0.092
Mof_H 	H 	0.8979	0.3456	0.6508	0.089
Mof_C 	C 	0.901	0.3	0.715	0.024
Mof_H 	H 	0.8819	0.2884	0.7336	0.024
Mof_H 	H 	0.911	0.2409	0.7069	0.013
Mof_C 	C 	0.935	0.355	0.741	-0.213
Mof_H 	H 	0.9595	0.323	0.7413	0.085
Mof_H 	H 	0.9313	0.3626	0.7717	0.094
Mof_C 	C 	0.936	0.449	0.719	0.09
Mof_H 	H 	0.9549	0.4881	0.7386	-0.001
Mof_H 	H 	0.9449	0.442	0.6908	-0.009
Mof_C 	C 	0.896	0.498	0.71	-0.3
Mof_H 	H 	0.8861	0.5029	0.7375	0.14
Mof_H 	H 	0.899	0.5596	0.6985	0.222
Mof_C 	C 	0.8663	0.445	0.675	0.124
Mof_H 	H 	0.8407	0.4449	0.684	0.006
Mof_H 	H 	0.8634	0.4744	0.646	0.075
Mof_C 	C 	0.8927	0.5264	0.652	0.162
Mof_C 	C 	0.8541	0.534	0.6622	-0.559
Mof_H 	H 	0.8313	0.5102	0.6441	0.197
Mof_C 	C 	0.8543	0.5753	0.6976	0.524
Mof_H 	H 	0.8299	0.5806	0.7062	-0.149
Mof_C 	C 	0.8826	0.6108	0.7232	-0.525
Mof_H 	H 	0.8763	0.6406	0.7481	0.183
Mof_C 	C 	0.9242	0.6139	0.721	0.133
Mof_H 	H 	0.9443	0.6413	0.742	-0.022
Mof_C 	C 	0.9287	0.5664	0.6798	-0.263
Mof_H 	H 	0.9533	0.5615	0.6715	0.123
Mof_C 	C 	0.8989	0.4738	0.6126	-0.099
Mof_H 	H 	0.8757	0.4502	0.5953	0.052
Mof_C 	C 	0.9297	0.4542	0.5975	-0.137
Mof_H 	H 	0.9543	0.4804	0.6092	0.086
Mof_C 	C 	0.9242	0.39	0.5619	-0.036
Mof_H 	H 	0.8994	0.3658	0.5495	0.047
Mof_O 	O 	0.9549	0.368	0.5481	-0.446
Mof_C 	C 	0.0729	0.138	0.6899	-0.301
Mof_H 	H 	0.0618	0.1341	0.6579	0.117
Mof_H 	H 	0.1013	0.1283	0.6948	0.114
Mof_C 	C 	0.0531	0.071	0.717	0.107
Mof_H 	H 	0.0571	0.0071	0.7087	-0.019
Mof_H 	H 	0.0626	0.0785	0.7492	-0.018
Mof_C 	C 	0.0101	0.099	0.703	-0.33
Mof_H 	H 	0.0014	0.1306	0.7277	0.113
Mof_H 	H 	0.9935	0.0452	0.6949	0.115
Mof_C 	C 	0.0069	0.164	0.6626	0.325
Mof_H 	H 	0.9793	0.1711	0.6483	-0.106
Mof_H 	H 	0.0208	0.1369	0.6407	-0.091
Mof_C 	C 	0.0248	0.258	0.678	-0.655
Mof_H 	H 	0.0302	0.2934	0.6524	0.319
Mof_H 	H 	0.0075	0.2934	0.693	0.368
Mof_C 	C 	0.0628	0.231	0.7097	0.221
Mof_H 	H 	0.0585	0.2233	0.7403	-0.043
Mof_H 	H 	0.0835	0.2761	0.7096	-0.051
Mof_C 	C 	0.9159	0.118	0.666	-0.085
Mof_H 	H 	0.9335	0.1047	0.6945	0.046
Mof_H 	H 	0.8958	0.0705	0.6599	0.049
Mof_C 	C 	0.9395	0.123	0.628	-0.052
Mof_H 	H 	0.9569	0.07	0.6283	0.041
Mof_H 	H 	0.955	0.1791	0.6293	0.015
Mof_C 	C 	0.9071	0.122	0.586	-0.102
Mof_H 	H 	0.9081	0.1773	0.5682	0.048
Mof_H 	H 	0.9097	0.0683	0.5674	0.065
Mof_C 	C 	0.8686	0.118	0.6038	-0.062
Mof_H 	H 	0.87	0.0685	0.626	0.047
Mof_H 	H 	0.8463	0.1053	0.5793	0.055
Mof_C 	C 	0.8634	0.21	0.625	-0.101
Mof_H 	H 	0.8661	0.26	0.6047	0.046
Mof_H 	H 	0.8376	0.2139	0.6334	0.051
Mof_C 	C 	0.8971	0.212	0.6674	-0.078
Mof_H 	H 	0.8867	0.22	0.6947	0.045
Mof_H 	H 	0.9158	0.2613	0.6654	0.056
Mof_C 	C 	0.9827	0.8	0.7447	-0.12
Mof_H 	H 	0.9818	0.7353	0.7535	0.056
Mof_H 	H 	0.9607	0.8121	0.72	0.038
Mof_C 	C 	0.021	0.822	0.7322	-0.012
Mof_H 	H 	0.0422	0.8028	0.7565	0.045
Mof_H 	H 	0.0233	0.7864	0.7057	0.021
Mof_C 	C 	0.0272	0.919	0.7227	-0.103
Mof_H 	H 	0.0555	0.9304	0.7307	0.039
Mof_H 	H 	0.0197	0.9268	0.6902	0.04
Mof_C 	C 	0.0079	0.992	0.7431	0.031
Mof_H 	H 	0.9939	0.0317	0.7194	-0.012
Mof_H 	H 	0.028	0.0289	0.7621	0.004
Mof_C 	C 	0.9796	0.959	0.7705	-0.104
Mof_H 	H 	0.9833	0.9959	0.7978	0.047
Mof_H 	H 	0.953	0.971	0.7538	0.046
Mof_C 	C 	0.9822	0.862	0.7834	0.044
Mof_H 	H 	0.9597	0.8466	0.7969	0.011
Mof_H 	H 	0.0061	0.8525	0.806	0.014
Mof_C 	C 	0.0463	0.37	0.912	0.162
Mof_H 	H 	0.0313	0.3921	0.9339	0.251
Mof_H 	H 	0.072	0.4	0.9192	0.081
Mof_C 	C 	0.0263	0.405	0.868	-0.44
Mof_H 	H 	0.0463	0.4201	0.8505	0.165
Mof_H 	H 	0.0126	0.4614	0.8722	0.136
Mof_C 	C 	0.9973	0.34	0.8404	0.405
Mof_H 	H 	0.0089	0.311	0.8172	-0.283
Mof_H 	H 	0.9737	0.3733	0.8261	-0.131
Mof_C 	C 	0.9872	0.269	0.872	-0.625
Mof_H 	H 	0.9663	0.2289	0.8564	0.237
Mof_H 	H 	0.9775	0.2991	0.8966	0.198
Mof_C 	C 	0.023	0.212	0.892	0.185
Mof_H 	H 	0.016	0.1608	0.9091	-0.029
Mof_H 	H 	0.0347	0.1859	0.8672	0.037
Mof_C 	C 	0.0531	0.27	0.9205	-0.256
Mof_H 	H 	0.0526	0.2575	0.9518	0.143
Mof_H 	H 	0.0793	0.2545	0.9155	0.1
Mof_C 	C 	0.12	0.347	0.828	-0.23
Mof_H 	H 	0.1427	0.3094	0.8407	0.092
Mof_H 	H 	0.1021	0.3456	0.8492	0.089
Mof_C 	C 	0.099	0.3	0.785	0.024
Mof_H 	H 	0.1181	0.2884	0.7664	0.024
Mof_H 	H 	0.089	0.2409	0.7931	0.013
Mof_C 	C 	0.065	0.355	0.759	-0.213
Mof_H 	H 	0.0405	0.323	0.7587	0.085
Mof_H 	H 	0.0687	0.3626	0.7283	0.094
Mof_C 	C 	0.064	0.449	0.781	0.09
Mof_H 	H 	0.0451	0.4881	0.7614	-0
Mof_H 	H 	0.0551	0.442	0.8092	-0.009
Mof_C 	C 	0.104	0.498	0.79	-0.3
Mof_H 	H 	0.1139	0.5029	0.7625	0.14
Mof_H 	H 	0.101	0.5596	0.8015	0.222
Mof_C 	C 	0.1337	0.445	0.825	0.124
Mof_H 	H 	0.1593	0.4449	0.816	0.006
Mof_H 	H 	0.1366	0.4744	0.854	0.075
Mof_C 	C 	0.1073	0.5264	0.848	0.162
Mof_C 	C 	0.1459	0.534	0.8378	-0.559
Mof_H 	H 	0.1687	0.5102	0.8559	0.197
Mof_C 	C 	0.1457	0.5753	0.8024	0.524
Mof_H 	H 	0.1701	0.5806	0.7938	-0.149
Mof_C 	C 	0.1174	0.6108	0.7768	-0.525
Mof_H 	H 	0.1237	0.6406	0.7519	0.183
Mof_C 	C 	0.0758	0.6139	0.779	0.133
Mof_H 	H 	0.0557	0.6413	0.758	-0.022
Mof_C 	C 	0.0713	0.5664	0.8202	-0.263
Mof_H 	H 	0.0467	0.5615	0.8285	0.123
Mof_C 	C 	0.1011	0.4738	0.8874	-0.099
Mof_H 	H 	0.1243	0.4502	0.9047	0.052
Mof_C 	C 	0.0703	0.4542	0.9025	-0.137
Mof_H 	H 	0.0457	0.4804	0.8908	0.086
Mof_C 	C 	0.0758	0.39	0.9381	-0.036
Mof_H 	H 	0.1006	0.3658	0.9505	0.047
Mof_O 	O 	0.0451	0.368	0.9519	-0.446
Mof_C 	C 	0.9271	0.138	0.8101	-0.3
Mof_H 	H 	0.9382	0.1341	0.8421	0.116
Mof_H 	H 	0.8987	0.1283	0.8052	0.113
Mof_C 	C 	0.9469	0.071	0.783	0.107
Mof_H 	H 	0.9429	0.0071	0.7913	-0.019
Mof_H 	H 	0.9374	0.0785	0.7508	-0.017
Mof_C 	C 	0.9899	0.099	0.797	-0.329
Mof_H 	H 	0.9986	0.1306	0.7723	0.113
Mof_H 	H 	0.0065	0.0452	0.8051	0.115
Mof_C 	C 	0.9931	0.164	0.8374	0.324
Mof_H 	H 	0.0207	0.1711	0.8517	-0.106
Mof_H 	H 	0.9792	0.1369	0.8593	-0.091
Mof_C 	C 	0.9752	0.258	0.822	-0.653
Mof_H 	H 	0.9698	0.2934	0.8476	0.318
Mof_H 	H 	0.9925	0.2934	0.807	0.367
Mof_C 	C 	0.9372	0.231	0.7903	0.22
Mof_H 	H 	0.9415	0.2233	0.7597	-0.043
Mof_H 	H 	0.9165	0.2761	0.7904	-0.05
Mof_C 	C 	0.0841	0.118	0.834	-0.085
Mof_H 	H 	0.0665	0.1047	0.8055	0.046
Mof_H 	H 	0.1042	0.0705	0.8401	0.049
Mof_C 	C 	0.0605	0.123	0.872	-0.052
Mof_H 	H 	0.0431	0.07	0.8717	0.04
Mof_H 	H 	0.045	0.1791	0.8707	0.015
Mof_C 	C 	0.0929	0.122	0.914	-0.102
Mof_H 	H 	0.0919	0.1773	0.9318	0.048
Mof_H 	H 	0.0903	0.0683	0.9326	0.065
Mof_C 	C 	0.1314	0.118	0.8962	-0.062
Mof_H 	H 	0.13	0.0685	0.874	0.047
Mof_H 	H 	0.1537	0.1053	0.9207	0.054
Mof_C 	C 	0.1366	0.21	0.875	-0.101
Mof_H 	H 	0.1339	0.26	0.8953	0.047
Mof_H 	H 	0.1624	0.2139	0.8666	0.051
Mof_C 	C 	0.1029	0.212	0.8326	-0.078
Mof_H 	H 	0.1133	0.22	0.8053	0.045
Mof_H 	H 	0.0842	0.2613	0.8346	0.056
Mof_C 	C 	0.0173	0.8	0.7553	-0.122
Mof_H 	H 	0.0182	0.7353	0.7465	0.057
Mof_H 	H 	0.0393	0.8121	0.78	0.038
Mof_C 	C 	0.979	0.822	0.7678	-0.012
Mof_H 	H 	0.9578	0.8028	0.7435	0.045
Mof_H 	H 	0.9767	0.7864	0.7943	0.021
Mof_C 	C 	0.9728	0.919	0.7773	-0.103
Mof_H 	H 	0.9445	0.9304	0.7693	0.039
Mof_H 	H 	0.9803	0.9268	0.8098	0.041
Mof_C 	C 	0.9921	0.992	0.7569	0.032
Mof_H 	H 	0.0061	0.0317	0.7806	-0.013
Mof_H 	H 	0.972	0.0289	0.7379	0.003
Mof_C 	C 	0.0204	0.959	0.7295	-0.104
Mof_H 	H 	0.0167	0.9959	0.7022	0.048
Mof_H 	H 	0.047	0.971	0.7462	0.046
Mof_C 	C 	0.0178	0.862	0.7166	0.045
Mof_H 	H 	0.0403	0.8466	0.7031	0.01
Mof_H 	H 	0.9939	0.8525	0.694	0.014
Mof_C 	C 	0.5463	0.13	0.412	0.162
Mof_H 	H 	0.5313	0.1079	0.4339	0.251
Mof_H 	H 	0.572	0.1	0.4192	0.081
Mof_C 	C 	0.5263	0.095	0.368	-0.441
Mof_H 	H 	0.5463	0.0799	0.3505	0.165
Mof_H 	H 	0.5126	0.0386	0.3722	0.136
Mof_C 	C 	0.4973	0.16	0.3404	0.406
Mof_H 	H 	0.5089	0.189	0.3172	-0.283
Mof_H 	H 	0.4737	0.1267	0.3261	-0.131
Mof_C 	C 	0.4872	0.231	0.372	-0.625
Mof_H 	H 	0.4663	0.2711	0.3564	0.237
Mof_H 	H 	0.4775	0.2009	0.3966	0.198
Mof_C 	C 	0.523	0.288	0.392	0.185
Mof_H 	H 	0.516	0.3392	0.4091	-0.029
Mof_H 	H 	0.5347	0.3141	0.3672	0.037
Mof_C 	C 	0.5531	0.23	0.4205	-0.256
Mof_H 	H 	0.5526	0.2425	0.4518	0.143
Mof_H 	H 	0.5793	0.2455	0.4155	0.1
Mof_C 	C 	0.62	0.153	0.328	-0.228
Mof_H 	H 	0.6427	0.1906	0.3407	0.092
Mof_H 	H 	0.6021	0.1544	0.3492	0.088
Mof_C 	C 	0.599	0.2	0.285	0.023
Mof_H 	H 	0.6181	0.2116	0.2664	0.025
Mof_H 	H 	0.589	0.2591	0.2931	0.014
Mof_C 	C 	0.565	0.145	0.259	-0.212
Mof_H 	H 	0.5405	0.177	0.2587	0.085
Mof_H 	H 	0.5687	0.1374	0.2283	0.093
Mof_C 	C 	0.564	0.051	0.281	0.088
Mof_H 	H 	0.5451	0.0119	0.2614	0
Mof_H 	H 	0.5551	0.058	0.3092	-0.009
Mof_C 	C 	0.604	0.002	0.29	-0.298
Mof_H 	H 	0.6139	0.9971	0.2625	0.139
Mof_H 	H 	0.601	0.9404	0.3015	0.221
Mof_C 	C 	0.6337	0.055	0.325	0.123
Mof_H 	H 	0.6593	0.0551	0.316	0.006
Mof_H 	H 	0.6366	0.0256	0.354	0.076
Mof_C 	C 	0.6073	0.9736	0.348	0.161
Mof_C 	C 	0.6459	0.966	0.3378	-0.557
Mof_H 	H 	0.6687	0.9898	0.3559	0.197
Mof_C 	C 	0.6457	0.9247	0.3024	0.522
Mof_H 	H 	0.6701	0.9194	0.2938	-0.149
Mof_C 	C 	0.6174	0.8892	0.2768	-0.523
Mof_H 	H 	0.6237	0.8594	0.2519	0.182
Mof_C 	C 	0.5758	0.8861	0.279	0.132
Mof_H 	H 	0.5557	0.8587	0.258	-0.022
Mof_C 	C 	0.5713	0.9336	0.3202	-0.262
Mof_H 	H 	0.5467	0.9385	0.3285	0.122
Mof_C 	C 	0.6011	0.0262	0.3874	-0.098
Mof_H 	H 	0.6243	0.0498	0.4047	0.051
Mof_C 	C 	0.5703	0.0458	0.4025	-0.138
Mof_H 	H 	0.5457	0.0196	0.3908	0.087
Mof_C 	C 	0.5758	0.11	0.4381	-0.035
Mof_H 	H 	0.6006	0.1342	0.4505	0.047
Mof_O 	O 	0.5451	0.132	0.4519	-0.446
Mof_C 	C 	0.4271	0.362	0.3101	-0.3
Mof_H 	H 	0.4382	0.3659	0.3421	0.116
Mof_H 	H 	0.3987	0.3717	0.3052	0.113
Mof_C 	C 	0.4469	0.429	0.283	0.106
Mof_H 	H 	0.4429	0.4929	0.2913	-0.018
Mof_H 	H 	0.4374	0.4215	0.2508	-0.017
Mof_C 	C 	0.4899	0.401	0.297	-0.329
Mof_H 	H 	0.4986	0.3694	0.2723	0.113
Mof_H 	H 	0.5065	0.4548	0.3051	0.115
Mof_C 	C 	0.4931	0.336	0.3374	0.324
Mof_H 	H 	0.5207	0.3289	0.3517	-0.106
Mof_H 	H 	0.4792	0.3631	0.3593	-0.091
Mof_C 	C 	0.4752	0.242	0.322	-0.653
Mof_H 	H 	0.4698	0.2066	0.3476	0.319
Mof_H 	H 	0.4925	0.2066	0.307	0.367
Mof_C 	C 	0.4372	0.269	0.2903	0.22
Mof_H 	H 	0.4415	0.2767	0.2597	-0.043
Mof_H 	H 	0.4165	0.2239	0.2904	-0.05
Mof_C 	C 	0.5841	0.382	0.334	-0.085
Mof_H 	H 	0.5665	0.3953	0.3055	0.046
Mof_H 	H 	0.6042	0.4295	0.3401	0.049
Mof_C 	C 	0.5605	0.377	0.372	-0.052
Mof_H 	H 	0.5431	0.43	0.3717	0.041
Mof_H 	H 	0.545	0.3209	0.3707	0.015
Mof_C 	C 	0.5929	0.378	0.414	-0.102
Mof_H 	H 	0.5919	0.3227	0.4318	0.048
Mof_H 	H 	0.5903	0.4317	0.4326	0.065
Mof_C 	C 	0.6314	0.382	0.3962	-0.063
Mof_H 	H 	0.63	0.4315	0.374	0.047
Mof_H 	H 	0.6537	0.3947	0.4207	0.055
Mof_C 	C 	0.6366	0.29	0.375	-0.101
Mof_H 	H 	0.6339	0.24	0.3953	0.046
Mof_H 	H 	0.6624	0.2861	0.3666	0.051
Mof_C 	C 	0.6029	0.288	0.3326	-0.078
Mof_H 	H 	0.6133	0.28	0.3053	0.045
Mof_H 	H 	0.5842	0.2387	0.3346	0.056
Mof_C 	C 	0.5173	0.7	0.2553	-0.119
Mof_H 	H 	0.5182	0.7647	0.2465	0.056
Mof_H 	H 	0.5393	0.6879	0.28	0.038
Mof_C 	C 	0.479	0.678	0.2678	-0.013
Mof_H 	H 	0.4578	0.6972	0.2435	0.045
Mof_H 	H 	0.4767	0.7136	0.2943	0.021
Mof_C 	C 	0.4728	0.581	0.2773	-0.101
Mof_H 	H 	0.4445	0.5696	0.2693	0.038
Mof_H 	H 	0.4803	0.5732	0.3098	0.04
Mof_C 	C 	0.4921	0.508	0.2569	0.03
Mof_H 	H 	0.5061	0.4683	0.2806	-0.012
Mof_H 	H 	0.472	0.4711	0.2379	0.004
Mof_C 	C 	0.5204	0.541	0.2295	-0.103
Mof_H 	H 	0.5167	0.5041	0.2022	0.047
Mof_H 	H 	0.547	0.529	0.2462	0.045
Mof_C 	C 	0.5178	0.638	0.2166	0.043
Mof_H 	H 	0.5403	0.6534	0.2031	0.011
Mof_H 	H 	0.4939	0.6475	0.194	0.015
Mof_C 	C 	0.4537	0.13	0.088	0.162
Mof_H 	H 	0.4687	0.1079	0.0661	0.251
Mof_H 	H 	0.428	0.1	0.0808	0.081
Mof_C 	C 	0.4737	0.095	0.132	-0.441
Mof_H 	H 	0.4537	0.0799	0.1495	0.165
Mof_H 	H 	0.4874	0.0386	0.1278	0.136
Mof_C 	C 	0.5027	0.16	0.1596	0.406
Mof_H 	H 	0.4911	0.189	0.1828	-0.283
Mof_H 	H 	0.5263	0.1267	0.1739	-0.131
Mof_C 	C 	0.5128	0.231	0.128	-0.625
Mof_H 	H 	0.5337	0.2711	0.1436	0.237
Mof_H 	H 	0.5225	0.2009	0.1034	0.198
Mof_C 	C 	0.477	0.288	0.108	0.185
Mof_H 	H 	0.484	0.3392	0.0909	-0.029
Mof_H 	H 	0.4653	0.3141	0.1328	0.037
Mof_C 	C 	0.4469	0.23	0.0795	-0.256
Mof_H 	H 	0.4474	0.2425	0.0482	0.143
Mof_H 	H 	0.4207	0.2455	0.0845	0.1
Mof_C 	C 	0.38	0.153	0.172	-0.228
Mof_H 	H 	0.3573	0.1906	0.1593	0.092
Mof_H 	H 	0.3979	0.1544	0.1508	0.088
Mof_C 	C 	0.401	0.2	0.215	0.022
Mof_H 	H 	0.3819	0.2116	0.2336	0.025
Mof_H 	H 	0.411	0.2591	0.2069	0.014
Mof_C 	C 	0.435	0.145	0.241	-0.212
Mof_H 	H 	0.4595	0.177	0.2413	0.085
Mof_H 	H 	0.4313	0.1374	0.2717	0.093
Mof_C 	C 	0.436	0.051	0.219	0.088
Mof_H 	H 	0.4549	0.0119	0.2386	0
Mof_H 	H 	0.4449	0.058	0.1908	-0.009
Mof_C 	C 	0.396	0.002	0.21	-0.297
Mof_H 	H 	0.3861	0.9971	0.2375	0.139
Mof_H 	H 	0.399	0.9404	0.1985	0.22
Mof_C 	C 	0.3663	0.055	0.175	0.122
Mof_H 	H 	0.3407	0.0551	0.184	0.007
Mof_H 	H 	0.3634	0.0256	0.146	0.076
Mof_C 	C 	0.3927	0.9736	0.152	0.161
Mof_C 	C 	0.3541	0.966	0.1622	-0.557
Mof_H 	H 	0.3313	0.9898	0.1441	0.196
Mof_C 	C 	0.3543	0.9247	0.1976	0.521
Mof_H 	H 	0.3299	0.9194	0.2062	-0.149
Mof_C 	C 	0.3826	0.8892	0.2232	-0.522
Mof_H 	H 	0.3763	0.8594	0.2481	0.182
Mof_C 	C 	0.4242	0.8861	0.221	0.132
Mof_H 	H 	0.4443	0.8587	0.242	-0.022
Mof_C 	C 	0.4287	0.9336	0.1798	-0.262
Mof_H 	H 	0.4533	0.9385	0.1715	0.122
Mof_C 	C 	0.3989	0.0262	0.1126	-0.097
Mof_H 	H 	0.3757	0.0498	0.0953	0.051
Mof_C 	C 	0.4297	0.0458	0.0975	-0.138
Mof_H 	H 	0.4543	0.0196	0.1092	0.087
Mof_C 	C 	0.4242	0.11	0.0619	-0.035
Mof_H 	H 	0.3994	0.1342	0.0495	0.047
Mof_O 	O 	0.4549	0.132	0.0481	-0.446
Mof_C 	C 	0.5729	0.362	0.1899	-0.3
Mof_H 	H 	0.5618	0.3659	0.1579	0.116
Mof_H 	H 	0.6013	0.3717	0.1948	0.114
Mof_C 	C 	0.5531	0.429	0.217	0.106
Mof_H 	H 	0.5571	0.4929	0.2087	-0.018
Mof_H 	H 	0.5626	0.4215	0.2492	-0.017
Mof_C 	C 	0.5101	0.401	0.203	-0.329
Mof_H 	H 	0.5014	0.3694	0.2277	0.113
Mof_H 	H 	0.4935	0.4548	0.1949	0.115
Mof_C 	C 	0.5069	0.336	0.1626	0.324
Mof_H 	H 	0.4793	0.3289	0.1483	-0.106
Mof_H 	H 	0.5208	0.3631	0.1407	-0.091
Mof_C 	C 	0.5248	0.242	0.178	-0.653
Mof_H 	H 	0.5302	0.2066	0.1524	0.319
Mof_H 	H 	0.5075	0.2066	0.193	0.367
Mof_C 	C 	0.5628	0.269	0.2097	0.221
Mof_H 	H 	0.5585	0.2767	0.2403	-0.043
Mof_H 	H 	0.5835	0.2239	0.2096	-0.05
Mof_C 	C 	0.4159	0.382	0.166	-0.085
Mof_H 	H 	0.4335	0.3953	0.1945	0.046
Mof_H 	H 	0.3958	0.4295	0.1599	0.049
Mof_C 	C 	0.4395	0.377	0.128	-0.052
Mof_H 	H 	0.4569	0.43	0.1283	0.041
Mof_H 	H 	0.455	0.3209	0.1293	0.015
Mof_C 	C 	0.4071	0.378	0.086	-0.102
Mof_H 	H 	0.4081	0.3227	0.0682	0.048
Mof_H 	H 	0.4097	0.4317	0.0674	0.065
Mof_C 	C 	0.3686	0.382	0.1038	-0.063
Mof_H 	H 	0.37	0.4315	0.126	0.047
Mof_H 	H 	0.3463	0.3947	0.0793	0.055
Mof_C 	C 	0.3634	0.29	0.125	-0.101
Mof_H 	H 	0.3661	0.24	0.1047	0.047
Mof_H 	H 	0.3376	0.2861	0.1334	0.051
Mof_C 	C 	0.3971	0.288	0.1674	-0.078
Mof_H 	H 	0.3867	0.28	0.1947	0.045
Mof_H 	H 	0.4158	0.2387	0.1654	0.056
Mof_C 	C 	0.4827	0.7	0.2447	-0.12
Mof_H 	H 	0.4818	0.7647	0.2535	0.056
Mof_H 	H 	0.4607	0.6879	0.22	0.038
Mof_C 	C 	0.521	0.678	0.2322	-0.013
Mof_H 	H 	0.5422	0.6972	0.2565	0.045
Mof_H 	H 	0.5233	0.7136	0.2057	0.021
Mof_C 	C 	0.5272	0.581	0.2227	-0.101
Mof_H 	H 	0.5555	0.5696	0.2307	0.038
Mof_H 	H 	0.5197	0.5732	0.1902	0.04
Mof_C 	C 	0.5079	0.508	0.2431	0.03
Mof_H 	H 	0.4939	0.4683	0.2194	-0.012
Mof_H 	H 	0.528	0.4711	0.2621	0.004
Mof_C 	C 	0.4796	0.541	0.2705	-0.103
Mof_H 	H 	0.4833	0.5041	0.2978	0.047
Mof_H 	H 	0.453	0.529	0.2538	0.045
Mof_C 	C 	0.4822	0.638	0.2834	0.043
Mof_H 	H 	0.4597	0.6534	0.2969	0.011
Mof_H 	H 	0.5061	0.6475	0.306	0.015
Mof_C 	C 	0.0463	0.63	0.412	0.163
Mof_H 	H 	0.0313	0.6079	0.4339	0.251
Mof_H 	H 	0.072	0.6	0.4192	0.081
Mof_C 	C 	0.0263	0.595	0.368	-0.442
Mof_H 	H 	0.0463	0.5799	0.3505	0.166
Mof_H 	H 	0.0126	0.5386	0.3722	0.136
Mof_C 	C 	0.9973	0.66	0.3404	0.407
Mof_H 	H 	0.0089	0.689	0.3172	-0.284
Mof_H 	H 	0.9737	0.6267	0.3261	-0.131
Mof_C 	C 	0.9872	0.731	0.372	-0.626
Mof_H 	H 	0.9663	0.7711	0.3564	0.237
Mof_H 	H 	0.9775	0.7009	0.3966	0.199
Mof_C 	C 	0.023	0.788	0.392	0.186
Mof_H 	H 	0.016	0.8392	0.4091	-0.03
Mof_H 	H 	0.0347	0.8141	0.3672	0.037
Mof_C 	C 	0.0531	0.73	0.4205	-0.256
Mof_H 	H 	0.0526	0.7425	0.4518	0.143
Mof_H 	H 	0.0793	0.7455	0.4155	0.1
Mof_C 	C 	0.12	0.653	0.328	-0.23
Mof_H 	H 	0.1427	0.6906	0.3407	0.092
Mof_H 	H 	0.1021	0.6544	0.3492	0.089
Mof_C 	C 	0.099	0.7	0.285	0.024
Mof_H 	H 	0.1181	0.7116	0.2664	0.024
Mof_H 	H 	0.089	0.7591	0.2931	0.013
Mof_C 	C 	0.065	0.645	0.259	-0.213
Mof_H 	H 	0.0405	0.677	0.2587	0.085
Mof_H 	H 	0.0687	0.6374	0.2283	0.094
Mof_C 	C 	0.064	0.551	0.281	0.09
Mof_H 	H 	0.0451	0.5119	0.2614	-0.001
Mof_H 	H 	0.0551	0.558	0.3092	-0.009
Mof_C 	C 	0.104	0.502	0.29	-0.3
Mof_H 	H 	0.1139	0.4971	0.2625	0.14
Mof_H 	H 	0.101	0.4404	0.3015	0.222
Mof_C 	C 	0.1337	0.555	0.325	0.124
Mof_H 	H 	0.1593	0.5551	0.316	0.006
Mof_H 	H 	0.1366	0.5256	0.354	0.075
Mof_C 	C 	0.1073	0.4736	0.348	0.162
Mof_C 	C 	0.1459	0.466	0.3378	-0.559
Mof_H 	H 	0.1687	0.4898	0.3559	0.197
Mof_C 	C 	0.1457	0.4247	0.3024	0.524
Mof_H 	H 	0.1701	0.4194	0.2938	-0.149
Mof_C 	C 	0.1174	0.3892	0.2768	-0.525
Mof_H 	H 	0.1237	0.3594	0.2519	0.183
Mof_C 	C 	0.0758	0.3861	0.279	0.133
Mof_H 	H 	0.0557	0.3587	0.258	-0.022
Mof_C 	C 	0.0713	0.4336	0.3202	-0.263
Mof_H 	H 	0.0467	0.4385	0.3285	0.123
Mof_C 	C 	0.1011	0.5262	0.3874	-0.099
Mof_H 	H 	0.1243	0.5498	0.4047	0.052
Mof_C 	C 	0.0703	0.5458	0.4025	-0.137
Mof_H 	H 	0.0457	0.5196	0.3908	0.086
Mof_C 	C 	0.0758	0.61	0.4381	-0.036
Mof_H 	H 	0.1006	0.6342	0.4505	0.047
Mof_O 	O 	0.0451	0.632	0.4519	-0.446
Mof_C 	C 	0.9271	0.862	0.3101	-0.301
Mof_H 	H 	0.9382	0.8659	0.3421	0.117
Mof_H 	H 	0.8987	0.8717	0.3052	0.114
Mof_C 	C 	0.9469	0.929	0.283	0.107
Mof_H 	H 	0.9429	0.9929	0.2913	-0.019
Mof_H 	H 	0.9374	0.9215	0.2508	-0.018
Mof_C 	C 	0.9899	0.901	0.297	-0.33
Mof_H 	H 	0.9986	0.8694	0.2723	0.113
Mof_H 	H 	0.0065	0.9548	0.3051	0.115
Mof_C 	C 	0.9931	0.836	0.3374	0.325
Mof_H 	H 	0.0207	0.8289	0.3517	-0.106
Mof_H 	H 	0.9792	0.8631	0.3593	-0.091
Mof_C 	C 	0.9752	0.742	0.322	-0.655
Mof_H 	H 	0.9698	0.7066	0.3476	0.319
Mof_H 	H 	0.9925	0.7066	0.307	0.368
Mof_C 	C 	0.9372	0.769	0.2903	0.221
Mof_H 	H 	0.9415	0.7767	0.2597	-0.043
Mof_H 	H 	0.9165	0.7239	0.2904	-0.051
Mof_C 	C 	0.0841	0.882	0.334	-0.085
Mof_H 	H 	0.0665	0.8953	0.3055	0.046
Mof_H 	H 	0.1042	0.9295	0.3401	0.049
Mof_C 	C 	0.0605	0.877	0.372	-0.052
Mof_H 	H 	0.0431	0.93	0.3717	0.041
Mof_H 	H 	0.045	0.8209	0.3707	0.015
Mof_C 	C 	0.0929	0.878	0.414	-0.102
Mof_H 	H 	0.0919	0.8227	0.4318	0.048
Mof_H 	H 	0.0903	0.9317	0.4326	0.065
Mof_C 	C 	0.1314	0.882	0.3962	-0.062
Mof_H 	H 	0.13	0.9315	0.374	0.047
Mof_H 	H 	0.1537	0.8947	0.4207	0.055
Mof_C 	C 	0.1366	0.79	0.375	-0.101
Mof_H 	H 	0.1339	0.74	0.3953	0.046
Mof_H 	H 	0.1624	0.7861	0.3666	0.051
Mof_C 	C 	0.1029	0.788	0.3326	-0.078
Mof_H 	H 	0.1133	0.78	0.3053	0.045
Mof_H 	H 	0.0842	0.7387	0.3346	0.056
Mof_C 	C 	0.0173	0.2	0.2553	-0.12
Mof_H 	H 	0.0182	0.2647	0.2465	0.056
Mof_H 	H 	0.0393	0.1879	0.28	0.038
Mof_C 	C 	0.979	0.178	0.2678	-0.012
Mof_H 	H 	0.9578	0.1972	0.2435	0.045
Mof_H 	H 	0.9767	0.2136	0.2943	0.021
Mof_C 	C 	0.9728	0.081	0.2773	-0.103
Mof_H 	H 	0.9445	0.0696	0.2693	0.039
Mof_H 	H 	0.9803	0.0732	0.3098	0.04
Mof_C 	C 	0.9921	0.008	0.2569	0.031
Mof_H 	H 	0.0061	0.9683	0.2806	-0.012
Mof_H 	H 	0.972	0.9711	0.2379	0.004
Mof_C 	C 	0.0204	0.041	0.2295	-0.104
Mof_H 	H 	0.0167	0.0041	0.2022	0.047
Mof_H 	H 	0.047	0.029	0.2462	0.046
Mof_C 	C 	0.0178	0.138	0.2166	0.044
Mof_H 	H 	0.0403	0.1534	0.2031	0.011
Mof_H 	H 	0.9939	0.1475	0.194	0.014
Mof_C 	C 	0.9537	0.63	0.088	0.162
Mof_H 	H 	0.9687	0.6079	0.0661	0.251
Mof_H 	H 	0.928	0.6	0.0808	0.081
Mof_C 	C 	0.9737	0.595	0.132	-0.44
Mof_H 	H 	0.9537	0.5799	0.1495	0.165
Mof_H 	H 	0.9874	0.5386	0.1278	0.136
Mof_C 	C 	0.0027	0.66	0.1596	0.405
Mof_H 	H 	0.9911	0.689	0.1828	-0.283
Mof_H 	H 	0.0263	0.6267	0.1739	-0.131
Mof_C 	C 	0.0128	0.731	0.128	-0.625
Mof_H 	H 	0.0337	0.7711	0.1436	0.237
Mof_H 	H 	0.0225	0.7009	0.1034	0.198
Mof_C 	C 	0.977	0.788	0.108	0.185
Mof_H 	H 	0.984	0.8392	0.0909	-0.029
Mof_H 	H 	0.9653	0.8141	0.1328	0.037
Mof_C 	C 	0.9469	0.73	0.0795	-0.256
Mof_H 	H 	0.9474	0.7425	0.0482	0.143
Mof_H 	H 	0.9207	0.7455	0.0845	0.1
Mof_C 	C 	0.88	0.653	0.172	-0.23
Mof_H 	H 	0.8573	0.6906	0.1593	0.092
Mof_H 	H 	0.8979	0.6544	0.1508	0.089
Mof_C 	C 	0.901	0.7	0.215	0.024
Mof_H 	H 	0.8819	0.7116	0.2336	0.024
Mof_H 	H 	0.911	0.7591	0.2069	0.013
Mof_C 	C 	0.935	0.645	0.241	-0.213
Mof_H 	H 	0.9595	0.677	0.2413	0.085
Mof_H 	H 	0.9313	0.6374	0.2717	0.094
Mof_C 	C 	0.936	0.551	0.219	0.09
Mof_H 	H 	0.9549	0.5119	0.2386	-0
Mof_H 	H 	0.9449	0.558	0.1908	-0.009
Mof_C 	C 	0.896	0.502	0.21	-0.3
Mof_H 	H 	0.8861	0.4971	0.2375	0.14
Mof_H 	H 	0.899	0.4404	0.1985	0.222
Mof_C 	C 	0.8663	0.555	0.175	0.124
Mof_H 	H 	0.8407	0.5551	0.184	0.006
Mof_H 	H 	0.8634	0.5256	0.146	0.075
Mof_C 	C 	0.8927	0.4736	0.152	0.162
Mof_C 	C 	0.8541	0.466	0.1622	-0.559
Mof_H 	H 	0.8313	0.4898	0.1441	0.197
Mof_C 	C 	0.8543	0.4247	0.1976	0.524
Mof_H 	H 	0.8299	0.4194	0.2062	-0.149
Mof_C 	C 	0.8826	0.3892	0.2232	-0.525
Mof_H 	H 	0.8763	0.3594	0.2481	0.183
Mof_C 	C 	0.9242	0.3861	0.221	0.133
Mof_H 	H 	0.9443	0.3587	0.242	-0.022
Mof_C 	C 	0.9287	0.4336	0.1798	-0.263
Mof_H 	H 	0.9533	0.4385	0.1715	0.123
Mof_C 	C 	0.8989	0.5262	0.1126	-0.099
Mof_H 	H 	0.8757	0.5498	0.0953	0.052
Mof_C 	C 	0.9297	0.5458	0.0975	-0.137
Mof_H 	H 	0.9543	0.5196	0.1092	0.086
Mof_C 	C 	0.9242	0.61	0.0619	-0.036
Mof_H 	H 	0.8994	0.6342	0.0495	0.047
Mof_O 	O 	0.9549	0.632	0.0481	-0.446
Mof_C 	C 	0.0729	0.862	0.1899	-0.3
Mof_H 	H 	0.0618	0.8659	0.1579	0.116
Mof_H 	H 	0.1013	0.8717	0.1948	0.113
Mof_C 	C 	0.0531	0.929	0.217	0.107
Mof_H 	H 	0.0571	0.9929	0.2087	-0.019
Mof_H 	H 	0.0626	0.9215	0.2492	-0.017
Mof_C 	C 	0.0101	0.901	0.203	-0.329
Mof_H 	H 	0.0014	0.8694	0.2277	0.113
Mof_H 	H 	0.9935	0.9548	0.1949	0.115
Mof_C 	C 	0.0069	0.836	0.1626	0.324
Mof_H 	H 	0.9793	0.8289	0.1483	-0.106
Mof_H 	H 	0.0208	0.8631	0.1407	-0.091
Mof_C 	C 	0.0248	0.742	0.178	-0.653
Mof_H 	H 	0.0302	0.7066	0.1524	0.318
Mof_H 	H 	0.0075	0.7066	0.193	0.367
Mof_C 	C 	0.0628	0.769	0.2097	0.22
Mof_H 	H 	0.0585	0.7767	0.2403	-0.043
Mof_H 	H 	0.0835	0.7239	0.2096	-0.05
Mof_C 	C 	0.9159	0.882	0.166	-0.085
Mof_H 	H 	0.9335	0.8953	0.1945	0.046
Mof_H 	H 	0.8958	0.9295	0.1599	0.049
Mof_C 	C 	0.9395	0.877	0.128	-0.052
Mof_H 	H 	0.9569	0.93	0.1283	0.04
Mof_H 	H 	0.955	0.8209	0.1293	0.015
Mof_C 	C 	0.9071	0.878	0.086	-0.102
Mof_H 	H 	0.9081	0.8227	0.0682	0.048
Mof_H 	H 	0.9097	0.9317	0.0674	0.065
Mof_C 	C 	0.8686	0.882	0.1038	-0.062
Mof_H 	H 	0.87	0.9315	0.126	0.047
Mof_H 	H 	0.8463	0.8947	0.0793	0.054
Mof_C 	C 	0.8634	0.79	0.125	-0.101
Mof_H 	H 	0.8661	0.74	0.1047	0.047
Mof_H 	H 	0.8376	0.7861	0.1334	0.051
Mof_C 	C 	0.8971	0.788	0.1674	-0.078
Mof_H 	H 	0.8867	0.78	0.1947	0.045
Mof_H 	H 	0.9158	0.7387	0.1654	0.056
Mof_C 	C 	0.9827	0.2	0.2447	-0.122
Mof_H 	H 	0.9818	0.2647	0.2535	0.057
Mof_H 	H 	0.9607	0.1879	0.22	0.038
Mof_C 	C 	0.021	0.178	0.2322	-0.012
Mof_H 	H 	0.0422	0.1972	0.2565	0.045
Mof_H 	H 	0.0233	0.2136	0.2057	0.021
Mof_C 	C 	0.0272	0.081	0.2227	-0.103
Mof_H 	H 	0.0555	0.0696	0.2307	0.039
Mof_H 	H 	0.0197	0.0732	0.1902	0.041
Mof_C 	C 	0.0079	0.008	0.2431	0.032
Mof_H 	H 	0.9939	0.9683	0.2194	-0.013
Mof_H 	H 	0.028	0.9711	0.2621	0.003
Mof_C 	C 	0.9796	0.041	0.2705	-0.104
Mof_H 	H 	0.9833	0.0041	0.2978	0.048
Mof_H 	H 	0.953	0.029	0.2538	0.046
Mof_C 	C 	0.9822	0.138	0.2834	0.045
Mof_H 	H 	0.9597	0.1534	0.2969	0.01
Mof_H 	H 	0.0061	0.1475	0.306	0.014
_end
