data_functionalizedCrystal
_audit_creation_method	'EQeq! by Chris Wilmer'
_symmetry_space_group_name_H-M	'P1'
_symmetry_Int_Tables_number	1
_symmetry_cell_setting	triclinic
loop_
_symmetry_equiv_pos_as_xyz
  x,y,z
_cell_length_a	8.045
_cell_length_b	17.549
_cell_length_c	18.014
_cell_angle_alpha	90
_cell_angle_beta	108.093
_cell_angle_gamma	90
loop_
_atom_site_label
_atom_site_type_symbol
_atom_site_fract_x
_atom_site_fract_y
_atom_site_fract_z
_atom_site_charge
Mof_Zn	Zn	0.11899	0.19131	0.73341	1.212
Mof_O 	O 	0.2067	0.183	0.6445	-0.46
Mof_O 	O 	0.4456	0.1179	0.7059	-0.301
Mof_O 	O 	0.7314	0.0823	0.4903	-0.241
Mof_O 	O 	0.0914	0.2677	0.3725	-0.325
Mof_O 	O 	0.2867	0.2475	0.3138	-0.447
Mof_N 	N 	0.8975	0.249	0.6826	-0.262
Mof_N 	N 	0.6421	0.3017	0.6626	-0.116
Mof_N 	N 	0.9422	0.588	0.7385	-0.27
Mof_N 	N 	0.078	0.4949	0.7018	-0.122
Mof_C 	C 	0.231	0.2396	0.3717	0.3
Mof_C 	C 	0.3411	0.1954	0.4411	-0.007
Mof_C 	C 	0.2955	0.1927	0.5093	-0.056
Mof_H 	H 	0.1967	0.2185	0.5123	0.073
Mof_C 	C 	0.397	0.1519	0.5729	-0.008
Mof_C 	C 	0.588	0.1168	0.5005	0.205
Mof_C 	C 	0.4887	0.1574	0.4371	-0.154
Mof_H 	H 	0.5204	0.1594	0.3917	0.107
Mof_C 	C 	0.5435	0.1134	0.5689	-0.152
Mof_H 	H 	0.6114	0.0855	0.6115	0.094
Mof_C 	C 	0.3493	0.1494	0.6478	0.317
Mof_C 	C 	0.6858	0.3133	0.597	-0
Mof_H 	H 	0.6206	0.3392	0.5525	0.038
Mof_C 	C 	0.8456	0.2791	0.6092	0.009
Mof_H 	H 	0.9078	0.2769	0.5735	0.026
Mof_C 	C 	0.7705	0.2636	0.7125	0.094
Mof_H 	H 	0.7714	0.2491	0.7623	-0
Mof_C 	C 	0.4847	0.3297	0.6792	-0.058
Mof_H 	H 	0.3882	0.3324	0.631	0.054
Mof_H 	H 	0.4528	0.2944	0.714	0.057
Mof_C 	C 	0.5166	0.4062	0.7159	-0.084
Mof_H 	H 	0.5404	0.4417	0.6792	0.06
Mof_H 	H 	0.6202	0.4038	0.7613	0.059
Mof_C 	C 	0.3648	0.4371	0.7413	-0.137
Mof_H 	H 	0.3326	0.3995	0.7739	0.078
Mof_H 	H 	0.4027	0.4827	0.7723	0.086
Mof_C 	C 	0.8767	0.5201	0.7543	0.006
Mof_H 	H 	0.7872	0.5146	0.7764	0.02
Mof_C 	C 	0.0652	0.57	0.7085	0.101
Mof_H 	H 	0.1351	0.6053	0.6937	-0.005
Mof_C 	C 	0.2095	0.4553	0.6738	-0.026
Mof_H 	H 	0.16	0.4088	0.6469	0.038
Mof_H 	H 	0.2435	0.4877	0.6373	0.045
Mof_C 	C 	0.9612	0.4628	0.7329	-0.007
Mof_H 	H 	0.9435	0.411	0.7383	0.035
Mof_C 	C 	0.8412	0.0374	0.553	0.067
Mof_H 	H 	0.786	0.9889	0.5565	0.02
Mof_H 	H 	0.8635	0.064	0.6024	0.001
Mof_C 	C 	0.0165	0.0247	0.5333	-0.126
Mof_H 	H 	0.0612	0.0732	0.522	0.084
Mof_H 	H 	0.1035	0.002	0.5777	0.078
Mof_Zn	Zn	0.88101	0.69131	0.76659	1.212
Mof_O 	O 	0.7933	0.683	0.8555	-0.46
Mof_O 	O 	0.5544	0.6179	0.7941	-0.301
Mof_O 	O 	0.2686	0.5823	0.0097	-0.241
Mof_O 	O 	0.9086	0.7677	0.1275	-0.325
Mof_O 	O 	0.7133	0.7475	0.1862	-0.447
Mof_N 	N 	0.1025	0.749	0.8174	-0.262
Mof_N 	N 	0.3579	0.8017	0.8374	-0.116
Mof_N 	N 	0.0578	0.088	0.7615	-0.27
Mof_N 	N 	0.922	0.9949	0.7982	-0.123
Mof_C 	C 	0.769	0.7396	0.1283	0.3
Mof_C 	C 	0.6589	0.6954	0.0589	-0.007
Mof_C 	C 	0.7045	0.6927	0.9907	-0.056
Mof_H 	H 	0.8033	0.7185	0.9877	0.073
Mof_C 	C 	0.603	0.6519	0.9271	-0.009
Mof_C 	C 	0.412	0.6168	0.9995	0.204
Mof_C 	C 	0.5113	0.6574	0.0629	-0.153
Mof_H 	H 	0.4796	0.6594	0.1083	0.107
Mof_C 	C 	0.4565	0.6134	0.9311	-0.152
Mof_H 	H 	0.3886	0.5855	0.8885	0.094
Mof_C 	C 	0.6507	0.6494	0.8522	0.317
Mof_C 	C 	0.3142	0.8133	0.903	-0
Mof_H 	H 	0.3794	0.8392	0.9475	0.038
Mof_C 	C 	0.1544	0.7791	0.8908	0.009
Mof_H 	H 	0.0922	0.7769	0.9265	0.026
Mof_C 	C 	0.2295	0.7636	0.7875	0.094
Mof_H 	H 	0.2286	0.7491	0.7377	-0
Mof_C 	C 	0.5153	0.8297	0.8208	-0.058
Mof_H 	H 	0.6118	0.8324	0.869	0.054
Mof_H 	H 	0.5472	0.7944	0.786	0.057
Mof_C 	C 	0.4834	0.9062	0.7841	-0.084
Mof_H 	H 	0.4596	0.9417	0.8208	0.06
Mof_H 	H 	0.3798	0.9038	0.7387	0.059
Mof_C 	C 	0.6352	0.9371	0.7587	-0.137
Mof_H 	H 	0.6674	0.8995	0.7261	0.078
Mof_H 	H 	0.5973	0.9827	0.7277	0.086
Mof_C 	C 	0.1233	0.0201	0.7457	0.005
Mof_H 	H 	0.2128	0.0146	0.7236	0.02
Mof_C 	C 	0.9348	0.07	0.7915	0.103
Mof_H 	H 	0.8649	0.1053	0.8063	-0.005
Mof_C 	C 	0.7905	0.9553	0.8262	-0.026
Mof_H 	H 	0.84	0.9088	0.8531	0.038
Mof_H 	H 	0.7565	0.9877	0.8627	0.045
Mof_C 	C 	0.0388	0.9628	0.7671	-0.006
Mof_H 	H 	0.0565	0.911	0.7617	0.035
Mof_C 	C 	0.1588	0.5374	0.947	0.065
Mof_H 	H 	0.214	0.4889	0.9435	0.021
Mof_H 	H 	0.1365	0.564	0.8976	0.001
Mof_C 	C 	0.9835	0.5247	0.9667	-0.125
Mof_H 	H 	0.9388	0.5732	0.978	0.084
Mof_H 	H 	0.8965	0.502	0.9223	0.078
Mof_Zn	Zn	0.88101	0.80869	0.26659	1.212
Mof_O 	O 	0.7933	0.817	0.3555	-0.46
Mof_O 	O 	0.5544	0.8821	0.2941	-0.301
Mof_O 	O 	0.2686	0.9177	0.5097	-0.241
Mof_O 	O 	0.9086	0.7323	0.6275	-0.325
Mof_O 	O 	0.7133	0.7525	0.6862	-0.447
Mof_N 	N 	0.1025	0.751	0.3174	-0.262
Mof_N 	N 	0.3579	0.6983	0.3374	-0.116
Mof_N 	N 	0.0578	0.412	0.2615	-0.27
Mof_N 	N 	0.922	0.5051	0.2982	-0.122
Mof_C 	C 	0.769	0.7604	0.6283	0.3
Mof_C 	C 	0.6589	0.8046	0.5589	-0.007
Mof_C 	C 	0.7045	0.8073	0.4907	-0.056
Mof_H 	H 	0.8033	0.7815	0.4877	0.073
Mof_C 	C 	0.603	0.8481	0.4271	-0.008
Mof_C 	C 	0.412	0.8832	0.4995	0.205
Mof_C 	C 	0.5113	0.8426	0.5629	-0.154
Mof_H 	H 	0.4796	0.8406	0.6083	0.107
Mof_C 	C 	0.4565	0.8866	0.4311	-0.152
Mof_H 	H 	0.3886	0.9145	0.3885	0.094
Mof_C 	C 	0.6507	0.8506	0.3522	0.317
Mof_C 	C 	0.3142	0.6867	0.403	-0
Mof_H 	H 	0.3794	0.6608	0.4475	0.038
Mof_C 	C 	0.1544	0.7209	0.3908	0.009
Mof_H 	H 	0.0922	0.7231	0.4265	0.026
Mof_C 	C 	0.2295	0.7364	0.2875	0.094
Mof_H 	H 	0.2286	0.7509	0.2377	-0
Mof_C 	C 	0.5153	0.6703	0.3208	-0.058
Mof_H 	H 	0.6118	0.6676	0.369	0.054
Mof_H 	H 	0.5472	0.7056	0.286	0.057
Mof_C 	C 	0.4834	0.5938	0.2841	-0.084
Mof_H 	H 	0.4596	0.5583	0.3208	0.06
Mof_H 	H 	0.3798	0.5962	0.2387	0.059
Mof_C 	C 	0.6352	0.5629	0.2587	-0.137
Mof_H 	H 	0.6674	0.6005	0.2261	0.078
Mof_H 	H 	0.5973	0.5173	0.2277	0.086
Mof_C 	C 	0.1233	0.4799	0.2457	0.006
Mof_H 	H 	0.2128	0.4854	0.2236	0.02
Mof_C 	C 	0.9348	0.43	0.2915	0.101
Mof_H 	H 	0.8649	0.3947	0.3063	-0.005
Mof_C 	C 	0.7905	0.5447	0.3262	-0.026
Mof_H 	H 	0.84	0.5912	0.3531	0.038
Mof_H 	H 	0.7565	0.5123	0.3627	0.045
Mof_C 	C 	0.0388	0.5372	0.2671	-0.007
Mof_H 	H 	0.0565	0.589	0.2617	0.035
Mof_C 	C 	0.1588	0.9626	0.447	0.067
Mof_H 	H 	0.214	0.0111	0.4435	0.02
Mof_H 	H 	0.1365	0.936	0.3976	0.001
Mof_C 	C 	0.9835	0.9753	0.4667	-0.126
Mof_H 	H 	0.9388	0.9268	0.478	0.084
Mof_H 	H 	0.8965	0.998	0.4223	0.078
Mof_Zn	Zn	0.11899	0.30869	0.23341	1.212
Mof_O 	O 	0.2067	0.317	0.1445	-0.46
Mof_O 	O 	0.4456	0.3821	0.2059	-0.301
Mof_O 	O 	0.7314	0.4177	0.9903	-0.241
Mof_O 	O 	0.0914	0.2323	0.8725	-0.325
Mof_O 	O 	0.2867	0.2525	0.8138	-0.447
Mof_N 	N 	0.8975	0.251	0.1826	-0.262
Mof_N 	N 	0.6421	0.1983	0.1626	-0.116
Mof_N 	N 	0.9422	0.912	0.2385	-0.27
Mof_N 	N 	0.078	0.0051	0.2018	-0.123
Mof_C 	C 	0.231	0.2604	0.8717	0.3
Mof_C 	C 	0.3411	0.3046	0.9411	-0.007
Mof_C 	C 	0.2955	0.3073	0.0093	-0.056
Mof_H 	H 	0.1967	0.2815	0.0123	0.073
Mof_C 	C 	0.397	0.3481	0.0729	-0.009
Mof_C 	C 	0.588	0.3832	0.0005	0.204
Mof_C 	C 	0.4887	0.3426	0.9371	-0.153
Mof_H 	H 	0.5204	0.3406	0.8917	0.107
Mof_C 	C 	0.5435	0.3866	0.0689	-0.152
Mof_H 	H 	0.6114	0.4145	0.1115	0.094
Mof_C 	C 	0.3493	0.3506	0.1478	0.317
Mof_C 	C 	0.6858	0.1867	0.097	-0
Mof_H 	H 	0.6206	0.1608	0.0525	0.038
Mof_C 	C 	0.8456	0.2209	0.1092	0.009
Mof_H 	H 	0.9078	0.2231	0.0735	0.026
Mof_C 	C 	0.7705	0.2364	0.2125	0.094
Mof_H 	H 	0.7714	0.2509	0.2623	-0
Mof_C 	C 	0.4847	0.1703	0.1792	-0.058
Mof_H 	H 	0.3882	0.1676	0.131	0.054
Mof_H 	H 	0.4528	0.2056	0.214	0.057
Mof_C 	C 	0.5166	0.0938	0.2159	-0.084
Mof_H 	H 	0.5404	0.0583	0.1792	0.06
Mof_H 	H 	0.6202	0.0962	0.2613	0.059
Mof_C 	C 	0.3648	0.0629	0.2413	-0.137
Mof_H 	H 	0.3326	0.1005	0.2739	0.078
Mof_H 	H 	0.4027	0.0173	0.2723	0.086
Mof_C 	C 	0.8767	0.9799	0.2543	0.005
Mof_H 	H 	0.7872	0.9854	0.2764	0.02
Mof_C 	C 	0.0652	0.93	0.2085	0.103
Mof_H 	H 	0.1351	0.8947	0.1937	-0.005
Mof_C 	C 	0.2095	0.0447	0.1738	-0.026
Mof_H 	H 	0.16	0.0912	0.1469	0.038
Mof_H 	H 	0.2435	0.0123	0.1373	0.045
Mof_C 	C 	0.9612	0.0372	0.2329	-0.006
Mof_H 	H 	0.9435	0.089	0.2383	0.035
Mof_C 	C 	0.8412	0.4626	0.053	0.065
Mof_H 	H 	0.786	0.5111	0.0565	0.021
Mof_H 	H 	0.8635	0.436	0.1024	0.001
Mof_C 	C 	0.0165	0.4753	0.0333	-0.125
Mof_H 	H 	0.0612	0.4268	0.022	0.084
Mof_H 	H 	0.1035	0.498	0.0777	0.078
_end
