data_functionalizedCrystal
_audit_creation_method	'EQeq! by Chris Wilmer'
_symmetry_space_group_name_H-M	'P1'
_symmetry_Int_Tables_number	1
_symmetry_cell_setting	triclinic
loop_
_symmetry_equiv_pos_as_xyz
  x,y,z
_cell_length_a	27.978
_cell_length_b	27.978
_cell_length_c	14.9798
_cell_angle_alpha	90
_cell_angle_beta	90
_cell_angle_gamma	120
loop_
_atom_site_label
_atom_site_type_symbol
_atom_site_fract_x
_atom_site_fract_y
_atom_site_fract_z
_atom_site_charge
Mof_Ag	Ag	0.74308	0.1294	0.4277	0.571
Mof_N 	N 	0.8029	0.2138	0.3746	-0.162
Mof_C 	C 	0.8816	0.264	0.0494	-0.05
Mof_H 	H 	0.8474	0.2307	0.0431	0.028
Mof_C 	C 	0.8849	0.3032	0.1089	0.108
Mof_C 	C 	0.8023	0.2282	0.2903	-0.051
Mof_H 	H 	0.7762	0.2016	0.2505	0.03
Mof_N 	N 	0.8768	0.3194	0.3102	-0.172
Mof_C 	C 	0.8793	0.3053	0.3923	0.021
Mof_H 	H 	0.9071	0.3319	0.4301	0.011
Mof_N 	N 	0.9329	0.3497	0.1237	-0.189
Mof_C 	C 	0.8385	0.2806	0.2581	0.113
Mof_N 	N 	0.9238	0.2709	0.0011	-0.151
Mof_C 	C 	0.9762	0.3577	0.0748	0.014
Mof_H 	H 	0.0103	0.3911	0.0818	-0.002
Mof_C 	C 	0.8439	0.2541	0.4271	-0.023
Mof_H 	H 	0.8477	0.2464	0.4876	0.009
Mof_C 	C 	0.973	0.319	0.0144	-0.019
Mof_H 	H 	0.0048	0.3255	0.9818	0.022
Mof_C 	C 	0.8354	0.295	0.163	-0.257
Mof_H 	H 	0.8013	0.2652	0.1356	0.087
Mof_H 	H 	0.8333	0.3293	0.161	0.079
Mof_Ag	Ag	0.40975	0.46273	0.76103	0.57
Mof_N 	N 	0.46957	0.54713	0.70793	-0.163
Mof_C 	C 	0.54827	0.59733	0.38273	-0.051
Mof_H 	H 	0.51407	0.56403	0.37643	0.026
Mof_C 	C 	0.55157	0.63653	0.44223	0.107
Mof_C 	C 	0.46897	0.56153	0.62363	-0.052
Mof_H 	H 	0.44287	0.53493	0.58383	0.029
Mof_N 	N 	0.54347	0.65273	0.64353	-0.173
Mof_C 	C 	0.54597	0.63863	0.72563	0.02
Mof_H 	H 	0.57377	0.66523	0.76343	0.01
Mof_N 	N 	0.59957	0.68303	0.45703	-0.189
Mof_C 	C 	0.50517	0.61393	0.59143	0.112
Mof_N 	N 	0.59047	0.60423	0.33443	-0.152
Mof_C 	C 	0.64287	0.69103	0.40813	0.012
Mof_H 	H 	0.67697	0.72443	0.41513	-0.003
Mof_C 	C 	0.51057	0.58743	0.76043	-0.024
Mof_H 	H 	0.51437	0.57973	0.82093	0.008
Mof_C 	C 	0.63967	0.65233	0.34773	-0.02
Mof_H 	H 	0.67147	0.65883	0.31513	0.022
Mof_C 	C 	0.50207	0.62833	0.49633	-0.257
Mof_H 	H 	0.46797	0.59853	0.46893	0.087
Mof_H 	H 	0.49997	0.66263	0.49433	0.079
Mof_Ag	Ag	0.07641	0.79607	0.09437	0.569
Mof_N 	N 	0.13623	0.88047	0.04127	-0.164
Mof_C 	C 	0.21493	0.93067	0.71607	-0.051
Mof_H 	H 	0.18073	0.89737	0.70977	0.027
Mof_C 	C 	0.21823	0.96987	0.77557	0.107
Mof_C 	C 	0.13563	0.89487	0.95697	-0.051
Mof_H 	H 	0.10953	0.86827	0.91717	0.029
Mof_N 	N 	0.21013	0.98607	0.97687	-0.172
Mof_C 	C 	0.21263	0.97197	0.05897	0.019
Mof_H 	H 	0.24043	0.99857	0.09677	0.01
Mof_N 	N 	0.26623	0.01637	0.79037	-0.19
Mof_C 	C 	0.17183	0.94727	0.92477	0.112
Mof_N 	N 	0.25713	0.93757	0.66777	-0.152
Mof_C 	C 	0.30953	0.02437	0.74147	0.012
Mof_H 	H 	0.34363	0.05777	0.74847	-0.003
Mof_C 	C 	0.17723	0.92077	0.09377	-0.023
Mof_H 	H 	0.18103	0.91307	0.15427	0.008
Mof_C 	C 	0.30633	0.98567	0.68107	-0.019
Mof_H 	H 	0.33813	0.99217	0.64847	0.022
Mof_C 	C 	0.16873	0.96167	0.82967	-0.257
Mof_H 	H 	0.13463	0.93187	0.80227	0.087
Mof_H 	H 	0.16663	0.99597	0.82767	0.079
Mof_Ag	Ag	0.8706	0.61368	0.4277	0.57
Mof_N 	N 	0.7862	0.5891	0.3746	-0.163
Mof_C 	C 	0.736	0.6176	0.0494	-0.051
Mof_H 	H 	0.7693	0.6167	0.0431	0.026
Mof_C 	C 	0.6968	0.5817	0.1089	0.107
Mof_C 	C 	0.7718	0.5741	0.2903	-0.052
Mof_H 	H 	0.7984	0.5746	0.2505	0.029
Mof_N 	N 	0.6806	0.5574	0.3102	-0.173
Mof_C 	C 	0.6947	0.574	0.3923	0.02
Mof_H 	H 	0.6681	0.5752	0.4301	0.01
Mof_N 	N 	0.6503	0.5832	0.1237	-0.189
Mof_C 	C 	0.7194	0.5579	0.2581	0.112
Mof_N 	N 	0.7291	0.6529	0.0011	-0.152
Mof_C 	C 	0.6423	0.6185	0.0748	0.012
Mof_H 	H 	0.6089	0.6192	0.0818	-0.003
Mof_C 	C 	0.7459	0.5898	0.4271	-0.024
Mof_H 	H 	0.7536	0.6013	0.4876	0.008
Mof_C 	C 	0.681	0.654	0.0144	-0.02
Mof_H 	H 	0.6745	0.6793	0.9818	0.022
Mof_C 	C 	0.705	0.5404	0.163	-0.257
Mof_H 	H 	0.7348	0.5361	0.1356	0.087
Mof_H 	H 	0.6707	0.504	0.161	0.079
Mof_Ag	Ag	0.53727	0.94701	0.76103	0.571
Mof_N 	N 	0.45287	0.92243	0.70793	-0.163
Mof_C 	C 	0.40267	0.95093	0.38273	-0.051
Mof_H 	H 	0.43597	0.95003	0.37643	0.026
Mof_C 	C 	0.36347	0.91503	0.44223	0.107
Mof_C 	C 	0.43847	0.90743	0.62363	-0.052
Mof_H 	H 	0.46507	0.90793	0.58383	0.029
Mof_N 	N 	0.34727	0.89073	0.64353	-0.173
Mof_C 	C 	0.36137	0.90733	0.72563	0.02
Mof_H 	H 	0.33477	0.90853	0.76343	0.01
Mof_N 	N 	0.31697	0.91653	0.45703	-0.189
Mof_C 	C 	0.38607	0.89123	0.59143	0.112
Mof_N 	N 	0.39577	0.98623	0.33443	-0.152
Mof_C 	C 	0.30897	0.95183	0.40813	0.013
Mof_H 	H 	0.27557	0.95253	0.41513	-0.003
Mof_C 	C 	0.41257	0.92313	0.76043	-0.023
Mof_H 	H 	0.42027	0.93463	0.82093	0.008
Mof_C 	C 	0.34767	0.98733	0.34773	-0.02
Mof_H 	H 	0.34117	0.01263	0.31513	0.022
Mof_C 	C 	0.37167	0.87373	0.49633	-0.257
Mof_H 	H 	0.40147	0.86943	0.46893	0.087
Mof_H 	H 	0.33737	0.83733	0.49433	0.079
Mof_Ag	Ag	0.20393	0.28035	0.09437	0.57
Mof_N 	N 	0.11953	0.25577	0.04127	-0.163
Mof_C 	C 	0.06933	0.28427	0.71607	-0.051
Mof_H 	H 	0.10263	0.28337	0.70977	0.026
Mof_C 	C 	0.03013	0.24837	0.77557	0.107
Mof_C 	C 	0.10513	0.24077	0.95697	-0.052
Mof_H 	H 	0.13173	0.24127	0.91717	0.029
Mof_N 	N 	0.01393	0.22407	0.97687	-0.173
Mof_C 	C 	0.02803	0.24067	0.05897	0.02
Mof_H 	H 	0.00143	0.24187	0.09677	0.01
Mof_N 	N 	0.98363	0.24987	0.79037	-0.19
Mof_C 	C 	0.05273	0.22457	0.92477	0.112
Mof_N 	N 	0.06243	0.31957	0.66777	-0.152
Mof_C 	C 	0.97563	0.28517	0.74147	0.012
Mof_H 	H 	0.94223	0.28587	0.74847	-0.003
Mof_C 	C 	0.07923	0.25647	0.09377	-0.023
Mof_H 	H 	0.08693	0.26797	0.15427	0.008
Mof_C 	C 	0.01433	0.32067	0.68107	-0.019
Mof_H 	H 	0.00783	0.34597	0.64847	0.022
Mof_C 	C 	0.03833	0.20707	0.82967	-0.257
Mof_H 	H 	0.06813	0.20277	0.80227	0.087
Mof_H 	H 	0.00403	0.17067	0.82767	0.079
Mof_Ag	Ag	0.38632	0.25692	0.4277	0.57
Mof_N 	N 	0.4109	0.1971	0.3746	-0.163
Mof_C 	C 	0.3824	0.1184	0.0494	-0.051
Mof_H 	H 	0.3833	0.1526	0.0431	0.027
Mof_C 	C 	0.4183	0.1151	0.1089	0.107
Mof_C 	C 	0.4259	0.1977	0.2903	-0.052
Mof_H 	H 	0.4254	0.2238	0.2505	0.029
Mof_N 	N 	0.4426	0.1232	0.3102	-0.173
Mof_C 	C 	0.426	0.1207	0.3923	0.02
Mof_H 	H 	0.4248	0.0929	0.4301	0.01
Mof_N 	N 	0.4168	0.0671	0.1237	-0.19
Mof_C 	C 	0.4421	0.1615	0.2581	0.112
Mof_N 	N 	0.3471	0.0762	0.0011	-0.152
Mof_C 	C 	0.3815	0.0238	0.0748	0.014
Mof_H 	H 	0.3808	0.9897	0.0818	-0.004
Mof_C 	C 	0.4102	0.1561	0.4271	-0.024
Mof_H 	H 	0.3987	0.1523	0.4876	0.008
Mof_C 	C 	0.346	0.027	0.0144	-0.02
Mof_H 	H 	0.3207	0.9952	0.9818	0.023
Mof_C 	C 	0.4596	0.1646	0.163	-0.257
Mof_H 	H 	0.4639	0.1987	0.1356	0.087
Mof_H 	H 	0.496	0.1667	0.161	0.079
Mof_Ag	Ag	0.05299	0.59025	0.76103	0.57
Mof_N 	N 	0.07757	0.53043	0.70793	-0.163
Mof_C 	C 	0.04907	0.45173	0.38273	-0.051
Mof_H 	H 	0.04997	0.48593	0.37643	0.026
Mof_C 	C 	0.08497	0.44843	0.44223	0.107
Mof_C 	C 	0.09257	0.53103	0.62363	-0.052
Mof_H 	H 	0.09207	0.55713	0.58383	0.029
Mof_N 	N 	0.10927	0.45653	0.64353	-0.173
Mof_C 	C 	0.09267	0.45403	0.72563	0.02
Mof_H 	H 	0.09147	0.42623	0.76343	0.01
Mof_N 	N 	0.08347	0.40043	0.45703	-0.189
Mof_C 	C 	0.10877	0.49483	0.59143	0.112
Mof_N 	N 	0.01377	0.40953	0.33443	-0.152
Mof_C 	C 	0.04817	0.35713	0.40813	0.013
Mof_H 	H 	0.04747	0.32303	0.41513	-0.003
Mof_C 	C 	0.07687	0.48943	0.76043	-0.024
Mof_H 	H 	0.06537	0.48563	0.82093	0.008
Mof_C 	C 	0.01267	0.36033	0.34773	-0.02
Mof_H 	H 	0.98737	0.32853	0.31513	0.022
Mof_C 	C 	0.12627	0.49793	0.49633	-0.257
Mof_H 	H 	0.13057	0.53203	0.46893	0.087
Mof_H 	H 	0.16267	0.50003	0.49433	0.079
Mof_Ag	Ag	0.71965	0.92359	0.09437	0.57
Mof_N 	N 	0.74423	0.86377	0.04127	-0.163
Mof_C 	C 	0.71573	0.78507	0.71607	-0.051
Mof_H 	H 	0.71663	0.81927	0.70977	0.026
Mof_C 	C 	0.75163	0.78177	0.77557	0.107
Mof_C 	C 	0.75923	0.86437	0.95697	-0.052
Mof_H 	H 	0.75873	0.89047	0.91717	0.029
Mof_N 	N 	0.77593	0.78987	0.97687	-0.173
Mof_C 	C 	0.75933	0.78737	0.05897	0.02
Mof_H 	H 	0.75813	0.75957	0.09677	0.01
Mof_N 	N 	0.75013	0.73377	0.79037	-0.189
Mof_C 	C 	0.77543	0.82817	0.92477	0.112
Mof_N 	N 	0.68043	0.74287	0.66777	-0.152
Mof_C 	C 	0.71483	0.69047	0.74147	0.012
Mof_H 	H 	0.71413	0.65637	0.74847	-0.003
Mof_C 	C 	0.74353	0.82277	0.09377	-0.024
Mof_H 	H 	0.73203	0.81897	0.15427	0.008
Mof_C 	C 	0.67933	0.69367	0.68107	-0.02
Mof_H 	H 	0.65403	0.66187	0.64847	0.022
Mof_C 	C 	0.79293	0.83127	0.82967	-0.257
Mof_H 	H 	0.79723	0.86537	0.80227	0.087
Mof_H 	H 	0.82933	0.83337	0.82767	0.079
Mof_Ag	Ag	0.25692	0.8706	0.5723	0.57
Mof_N 	N 	0.1971	0.7862	0.6254	-0.163
Mof_C 	C 	0.1184	0.736	0.9506	-0.051
Mof_H 	H 	0.1526	0.7693	0.9569	0.027
Mof_C 	C 	0.1151	0.6968	0.8911	0.107
Mof_C 	C 	0.1977	0.7718	0.7097	-0.052
Mof_H 	H 	0.2238	0.7984	0.7495	0.029
Mof_N 	N 	0.1232	0.6806	0.6898	-0.173
Mof_C 	C 	0.1207	0.6947	0.6077	0.02
Mof_H 	H 	0.0929	0.6681	0.5699	0.01
Mof_N 	N 	0.0671	0.6503	0.8763	-0.19
Mof_C 	C 	0.1615	0.7194	0.7419	0.112
Mof_N 	N 	0.0762	0.7291	0.9989	-0.152
Mof_C 	C 	0.0238	0.6423	0.9252	0.013
Mof_H 	H 	0.9897	0.6089	0.9182	-0.003
Mof_C 	C 	0.1561	0.7459	0.5729	-0.024
Mof_H 	H 	0.1523	0.7536	0.5124	0.008
Mof_C 	C 	0.027	0.681	0.9856	-0.02
Mof_H 	H 	0.9952	0.6745	0.0182	0.022
Mof_C 	C 	0.1646	0.705	0.837	-0.257
Mof_H 	H 	0.1987	0.7348	0.8644	0.087
Mof_H 	H 	0.1667	0.6707	0.839	0.079
Mof_Ag	Ag	0.92359	0.20393	0.90563	0.569
Mof_N 	N 	0.86377	0.11953	0.95873	-0.164
Mof_C 	C 	0.78507	0.06933	0.28393	-0.051
Mof_H 	H 	0.81927	0.10263	0.29023	0.027
Mof_C 	C 	0.78177	0.03013	0.22443	0.107
Mof_C 	C 	0.86437	0.10513	0.04303	-0.051
Mof_H 	H 	0.89047	0.13173	0.08283	0.029
Mof_N 	N 	0.78987	0.01393	0.02313	-0.172
Mof_C 	C 	0.78737	0.02803	0.94103	0.019
Mof_H 	H 	0.75957	0.00143	0.90323	0.01
Mof_N 	N 	0.73377	0.98363	0.20963	-0.19
Mof_C 	C 	0.82817	0.05273	0.07523	0.112
Mof_N 	N 	0.74287	0.06243	0.33223	-0.152
Mof_C 	C 	0.69047	0.97563	0.25853	0.012
Mof_H 	H 	0.65637	0.94223	0.25153	-0.003
Mof_C 	C 	0.82277	0.07923	0.90623	-0.023
Mof_H 	H 	0.81897	0.08693	0.84573	0.008
Mof_C 	C 	0.69367	0.01433	0.31893	-0.019
Mof_H 	H 	0.66187	0.00783	0.35153	0.022
Mof_C 	C 	0.83127	0.03833	0.17033	-0.257
Mof_H 	H 	0.86537	0.06813	0.19773	0.087
Mof_H 	H 	0.83337	0.00403	0.17233	0.079
Mof_Ag	Ag	0.59025	0.53727	0.23897	0.57
Mof_N 	N 	0.53043	0.45287	0.29207	-0.163
Mof_C 	C 	0.45173	0.40267	0.61727	-0.051
Mof_H 	H 	0.48593	0.43597	0.62357	0.026
Mof_C 	C 	0.44843	0.36347	0.55777	0.107
Mof_C 	C 	0.53103	0.43847	0.37637	-0.052
Mof_H 	H 	0.55713	0.46507	0.41617	0.029
Mof_N 	N 	0.45653	0.34727	0.35647	-0.173
Mof_C 	C 	0.45403	0.36137	0.27437	0.02
Mof_H 	H 	0.42623	0.33477	0.23657	0.01
Mof_N 	N 	0.40043	0.31697	0.54297	-0.189
Mof_C 	C 	0.49483	0.38607	0.40857	0.112
Mof_N 	N 	0.40953	0.39577	0.66557	-0.152
Mof_C 	C 	0.35713	0.30897	0.59187	0.012
Mof_H 	H 	0.32303	0.27557	0.58487	-0.003
Mof_C 	C 	0.48943	0.41257	0.23957	-0.024
Mof_H 	H 	0.48563	0.42027	0.17907	0.008
Mof_C 	C 	0.36033	0.34767	0.65227	-0.02
Mof_H 	H 	0.32853	0.34117	0.68487	0.022
Mof_C 	C 	0.49793	0.37167	0.50367	-0.257
Mof_H 	H 	0.53203	0.40147	0.53107	0.087
Mof_H 	H 	0.50003	0.33737	0.50567	0.079
Mof_Ag	Ag	0.1294	0.38632	0.5723	0.57
Mof_N 	N 	0.2138	0.4109	0.6254	-0.163
Mof_C 	C 	0.264	0.3824	0.9506	-0.051
Mof_H 	H 	0.2307	0.3833	0.9569	0.026
Mof_C 	C 	0.3032	0.4183	0.8911	0.107
Mof_C 	C 	0.2282	0.4259	0.7097	-0.052
Mof_H 	H 	0.2016	0.4254	0.7495	0.029
Mof_N 	N 	0.3194	0.4426	0.6898	-0.173
Mof_C 	C 	0.3053	0.426	0.6077	0.02
Mof_H 	H 	0.3319	0.4248	0.5699	0.01
Mof_N 	N 	0.3497	0.4168	0.8763	-0.189
Mof_C 	C 	0.2806	0.4421	0.7419	0.112
Mof_N 	N 	0.2709	0.3471	0.9989	-0.152
Mof_C 	C 	0.3577	0.3815	0.9252	0.012
Mof_H 	H 	0.3911	0.3808	0.9182	-0.003
Mof_C 	C 	0.2541	0.4102	0.5729	-0.024
Mof_H 	H 	0.2464	0.3987	0.5124	0.008
Mof_C 	C 	0.319	0.346	0.9856	-0.02
Mof_H 	H 	0.3255	0.3207	0.0182	0.022
Mof_C 	C 	0.295	0.4596	0.837	-0.257
Mof_H 	H 	0.2652	0.4639	0.8644	0.087
Mof_H 	H 	0.3293	0.496	0.839	0.079
Mof_Ag	Ag	0.79607	0.71965	0.90563	0.57
Mof_N 	N 	0.88047	0.74423	0.95873	-0.163
Mof_C 	C 	0.93067	0.71573	0.28393	-0.051
Mof_H 	H 	0.89737	0.71663	0.29023	0.026
Mof_C 	C 	0.96987	0.75163	0.22443	0.107
Mof_C 	C 	0.89487	0.75923	0.04303	-0.052
Mof_H 	H 	0.86827	0.75873	0.08283	0.029
Mof_N 	N 	0.98607	0.77593	0.02313	-0.173
Mof_C 	C 	0.97197	0.75933	0.94103	0.02
Mof_H 	H 	0.99857	0.75813	0.90323	0.01
Mof_N 	N 	0.01637	0.75013	0.20963	-0.19
Mof_C 	C 	0.94727	0.77543	0.07523	0.112
Mof_N 	N 	0.93757	0.68043	0.33223	-0.152
Mof_C 	C 	0.02437	0.71483	0.25853	0.012
Mof_H 	H 	0.05777	0.71413	0.25153	-0.003
Mof_C 	C 	0.92077	0.74353	0.90623	-0.023
Mof_H 	H 	0.91307	0.73203	0.84573	0.008
Mof_C 	C 	0.98567	0.67933	0.31893	-0.019
Mof_H 	H 	0.99217	0.65403	0.35153	0.022
Mof_C 	C 	0.96167	0.79293	0.17033	-0.257
Mof_H 	H 	0.93187	0.79723	0.19773	0.087
Mof_H 	H 	0.99597	0.82933	0.17233	0.079
Mof_Ag	Ag	0.46273	0.05299	0.23897	0.571
Mof_N 	N 	0.54713	0.07757	0.29207	-0.163
Mof_C 	C 	0.59733	0.04907	0.61727	-0.051
Mof_H 	H 	0.56403	0.04997	0.62357	0.026
Mof_C 	C 	0.63653	0.08497	0.55777	0.107
Mof_C 	C 	0.56153	0.09257	0.37637	-0.052
Mof_H 	H 	0.53493	0.09207	0.41617	0.029
Mof_N 	N 	0.65273	0.10927	0.35647	-0.173
Mof_C 	C 	0.63863	0.09267	0.27437	0.02
Mof_H 	H 	0.66523	0.09147	0.23657	0.01
Mof_N 	N 	0.68303	0.08347	0.54297	-0.189
Mof_C 	C 	0.61393	0.10877	0.40857	0.112
Mof_N 	N 	0.60423	0.01377	0.66557	-0.152
Mof_C 	C 	0.69103	0.04817	0.59187	0.013
Mof_H 	H 	0.72443	0.04747	0.58487	-0.003
Mof_C 	C 	0.58743	0.07687	0.23957	-0.023
Mof_H 	H 	0.57973	0.06537	0.17907	0.008
Mof_C 	C 	0.65233	0.01267	0.65227	-0.02
Mof_H 	H 	0.65883	0.98737	0.68487	0.022
Mof_C 	C 	0.62833	0.12627	0.50367	-0.257
Mof_H 	H 	0.59853	0.13057	0.53107	0.087
Mof_H 	H 	0.66263	0.16267	0.50567	0.079
Mof_Ag	Ag	0.61368	0.74308	0.5723	0.57
Mof_N 	N 	0.5891	0.8029	0.6254	-0.163
Mof_C 	C 	0.6176	0.8816	0.9506	-0.051
Mof_H 	H 	0.6167	0.8474	0.9569	0.027
Mof_C 	C 	0.5817	0.8849	0.8911	0.107
Mof_C 	C 	0.5741	0.8023	0.7097	-0.052
Mof_H 	H 	0.5746	0.7762	0.7495	0.029
Mof_N 	N 	0.5574	0.8768	0.6898	-0.173
Mof_C 	C 	0.574	0.8793	0.6077	0.02
Mof_H 	H 	0.5752	0.9071	0.5699	0.01
Mof_N 	N 	0.5832	0.9329	0.8763	-0.19
Mof_C 	C 	0.5579	0.8385	0.7419	0.112
Mof_N 	N 	0.6529	0.9238	0.9989	-0.152
Mof_C 	C 	0.6185	0.9762	0.9252	0.014
Mof_H 	H 	0.6192	0.0103	0.9182	-0.004
Mof_C 	C 	0.5898	0.8439	0.5729	-0.024
Mof_H 	H 	0.6013	0.8477	0.5124	0.008
Mof_C 	C 	0.654	0.973	0.9856	-0.02
Mof_H 	H 	0.6793	0.0048	0.0182	0.023
Mof_C 	C 	0.5404	0.8354	0.837	-0.257
Mof_H 	H 	0.5361	0.8013	0.8644	0.087
Mof_H 	H 	0.504	0.8333	0.839	0.079
Mof_Ag	Ag	0.28035	0.07641	0.90563	0.57
Mof_N 	N 	0.25577	0.13623	0.95873	-0.163
Mof_C 	C 	0.28427	0.21493	0.28393	-0.051
Mof_H 	H 	0.28337	0.18073	0.29023	0.026
Mof_C 	C 	0.24837	0.21823	0.22443	0.107
Mof_C 	C 	0.24077	0.13563	0.04303	-0.052
Mof_H 	H 	0.24127	0.10953	0.08283	0.029
Mof_N 	N 	0.22407	0.21013	0.02313	-0.173
Mof_C 	C 	0.24067	0.21263	0.94103	0.02
Mof_H 	H 	0.24187	0.24043	0.90323	0.01
Mof_N 	N 	0.24987	0.26623	0.20963	-0.189
Mof_C 	C 	0.22457	0.17183	0.07523	0.112
Mof_N 	N 	0.31957	0.25713	0.33223	-0.152
Mof_C 	C 	0.28517	0.30953	0.25853	0.012
Mof_H 	H 	0.28587	0.34363	0.25153	-0.003
Mof_C 	C 	0.25647	0.17723	0.90623	-0.024
Mof_H 	H 	0.26797	0.18103	0.84573	0.008
Mof_C 	C 	0.32067	0.30633	0.31893	-0.02
Mof_H 	H 	0.34597	0.33813	0.35153	0.022
Mof_C 	C 	0.20707	0.16873	0.17033	-0.257
Mof_H 	H 	0.20277	0.13463	0.19773	0.087
Mof_H 	H 	0.17067	0.16663	0.17233	0.079
Mof_Ag	Ag	0.94701	0.40975	0.23897	0.57
Mof_N 	N 	0.92243	0.46957	0.29207	-0.163
Mof_C 	C 	0.95093	0.54827	0.61727	-0.051
Mof_H 	H 	0.95003	0.51407	0.62357	0.026
Mof_C 	C 	0.91503	0.55157	0.55777	0.107
Mof_C 	C 	0.90743	0.46897	0.37637	-0.052
Mof_H 	H 	0.90793	0.44287	0.41617	0.029
Mof_N 	N 	0.89073	0.54347	0.35647	-0.173
Mof_C 	C 	0.90733	0.54597	0.27437	0.02
Mof_H 	H 	0.90853	0.57377	0.23657	0.01
Mof_N 	N 	0.91653	0.59957	0.54297	-0.189
Mof_C 	C 	0.89123	0.50517	0.40857	0.112
Mof_N 	N 	0.98623	0.59047	0.66557	-0.152
Mof_C 	C 	0.95183	0.64287	0.59187	0.013
Mof_H 	H 	0.95253	0.67697	0.58487	-0.003
Mof_C 	C 	0.92313	0.51057	0.23957	-0.024
Mof_H 	H 	0.93463	0.51437	0.17907	0.008
Mof_C 	C 	0.98733	0.63967	0.65227	-0.02
Mof_H 	H 	0.01263	0.67147	0.68487	0.022
Mof_C 	C 	0.87373	0.50207	0.50367	-0.257
Mof_H 	H 	0.86943	0.46797	0.53107	0.087
Mof_H 	H 	0.83733	0.49997	0.50567	0.079
_end
