data_functionalizedCrystal
_audit_creation_method	'EQeq! by Chris Wilmer'
_symmetry_space_group_name_H-M	'P1'
_symmetry_Int_Tables_number	1
_symmetry_cell_setting	triclinic
loop_
_symmetry_equiv_pos_as_xyz
  x,y,z
_cell_length_a	9.2236
_cell_length_b	10.3657
_cell_length_c	12.8839
_cell_angle_alpha	75.576
_cell_angle_beta	69.469
_cell_angle_gamma	86.168
loop_
_atom_site_label
_atom_site_type_symbol
_atom_site_fract_x
_atom_site_fract_y
_atom_site_fract_z
_atom_site_charge
Mof_Eu	Eu	0.95574	0.75083	0.99803	2.079
Mof_Eu	Eu	0.04426	0.24917	0.00197	2.079
Mof_H 	H 	0.3773	0.4323	0.6905	0.066
Mof_H 	H 	0.1066	0.7454	0.6423	0.044
Mof_H 	H 	0.2497	0.7875	0.4507	0.04
Mof_H 	H 	0.9224	0.9349	0.6912	0.055
Mof_H 	H 	0.1776	0.2484	0.6638	0.042
Mof_H 	H 	0.2469	0.2881	0.4693	0.036
Mof_H 	H 	0.6227	0.5677	0.3095	0.066
Mof_H 	H 	0.8934	0.2546	0.3577	0.044
Mof_H 	H 	0.7503	0.2125	0.5493	0.04
Mof_H 	H 	0.0776	0.0651	0.3088	0.055
Mof_H 	H 	0.8224	0.7516	0.3362	0.042
Mof_H 	H 	0.7531	0.7119	0.5307	0.036
Mof_C 	C 	0.1369	0.5547	0.8151	0.453
Mof_C 	C 	0.4336	0.5397	0.5253	0.05
Mof_C 	C 	0.3507	0.5061	0.6431	-0.039
Mof_C 	C 	0.2269	0.5855	0.6882	-0.108
Mof_C 	C 	0.1889	0.6915	0.6152	-0.024
Mof_C 	C 	0.277	0.7159	0.5	0.018
Mof_C 	C 	0.9901	0.0559	0.8304	0.458
Mof_C 	C 	0.0312	0.0398	0.5296	0.05
Mof_C 	C 	0.9869	0.0085	0.6475	-0.05
Mof_C 	C 	0.0395	0.088	0.7002	-0.092
Mof_C 	C 	0.1387	0.1939	0.6317	-0.026
Mof_C 	C 	0.179	0.2172	0.5147	0.016
Mof_C 	C 	0.8631	0.4453	0.1849	0.453
Mof_C 	C 	0.5664	0.4603	0.4747	0.05
Mof_C 	C 	0.6493	0.4939	0.3569	-0.039
Mof_C 	C 	0.7731	0.4145	0.3118	-0.108
Mof_C 	C 	0.8111	0.3085	0.3848	-0.024
Mof_C 	C 	0.723	0.2841	0.5	0.018
Mof_C 	C 	0.0099	0.9441	0.1696	0.458
Mof_C 	C 	0.9688	0.9602	0.4704	0.05
Mof_C 	C 	0.0131	0.9915	0.3525	-0.05
Mof_C 	C 	0.9605	0.912	0.2998	-0.092
Mof_C 	C 	0.8613	0.8061	0.3683	-0.026
Mof_C 	C 	0.821	0.7828	0.4853	0.016
Mof_N 	N 	0.3973	0.6436	0.4546	-0.112
Mof_N 	N 	0.1261	0.1434	0.4625	-0.117
Mof_N 	N 	0.6236	0.7605	0.0475	0.081
Mof_N 	N 	0.6027	0.3564	0.5454	-0.112
Mof_N 	N 	0.8739	0.8566	0.5375	-0.117
Mof_N 	N 	0.3764	0.2395	0.9525	0.081
Mof_O 	O 	0.1677	0.4506	0.8755	-0.54
Mof_O 	O 	0.037	0.6375	0.851	-0.562
Mof_O 	O 	0.9064	0.9545	0.8857	-0.548
Mof_O 	O 	0.0367	0.1356	0.8698	-0.574
Mof_O 	O 	0.7129	0.7211	0.9617	-0.293
Mof_O 	O 	0.6803	0.8027	0.1069	-0.272
Mof_O 	O 	0.482	0.7569	0.0679	-0.131
Mof_O 	O 	0.8323	0.5494	0.1245	-0.54
Mof_O 	O 	0.963	0.3625	0.149	-0.562
Mof_O 	O 	0.0936	0.0455	0.1143	-0.548
Mof_O 	O 	0.9633	0.8644	0.1302	-0.574
Mof_O 	O 	0.2871	0.2789	0.0383	-0.293
Mof_O 	O 	0.3197	0.1973	0.8931	-0.272
Mof_O 	O 	0.518	0.2431	0.9321	-0.131
_end
