data_functionalizedCrystal
_audit_creation_method	'EQeq! by Chris Wilmer'
_symmetry_space_group_name_H-M	'P1'
_symmetry_Int_Tables_number	1
_symmetry_cell_setting	triclinic
loop_
_symmetry_equiv_pos_as_xyz
  x,y,z
_cell_length_a	14.8737
_cell_length_b	9.6815
_cell_length_c	13.6354
_cell_angle_alpha	90
_cell_angle_beta	90
_cell_angle_gamma	90
loop_
_atom_site_label
_atom_site_type_symbol
_atom_site_fract_x
_atom_site_fract_y
_atom_site_fract_z
_atom_site_charge
Mof_O 	O 	0.107	0.3533	0.657	-0.435
Mof_O 	O 	0.0855	0.196	0.3686	-0.416
Mof_O 	O 	0.607	0.8533	0.657	-0.417
Mof_O 	O 	0.5855	0.696	0.3686	-0.409
Mof_O 	O 	0.893	0.6467	0.157	-0.346
Mof_O 	O 	0.9145	0.804	0.8686	-0.305
Mof_O 	O 	0.393	0.1467	0.157	-0.422
Mof_O 	O 	0.4145	0.304	0.8686	-0.412
Mof_O 	O 	0.893	0.3533	0.843	-0.346
Mof_O 	O 	0.9145	0.196	0.1314	-0.305
Mof_O 	O 	0.393	0.8533	0.843	-0.422
Mof_O 	O 	0.4145	0.696	0.1314	-0.412
Mof_O 	O 	0.107	0.6467	0.343	-0.435
Mof_O 	O 	0.0855	0.804	0.6314	-0.416
Mof_O 	O 	0.607	0.1467	0.343	-0.417
Mof_O 	O 	0.5855	0.304	0.6314	-0.409
Mof_O 	O 	0.893	0.6467	0.343	-0.345
Mof_O 	O 	0.9145	0.804	0.6314	-0.302
Mof_O 	O 	0.393	0.1467	0.343	-0.421
Mof_O 	O 	0.4145	0.304	0.6314	-0.412
Mof_O 	O 	0.107	0.3533	0.843	-0.435
Mof_O 	O 	0.0855	0.196	0.1314	-0.417
Mof_O 	O 	0.607	0.8533	0.843	-0.419
Mof_O 	O 	0.5855	0.696	0.1314	-0.409
Mof_O 	O 	0.107	0.6467	0.157	-0.435
Mof_O 	O 	0.0855	0.804	0.8686	-0.417
Mof_O 	O 	0.607	0.1467	0.157	-0.419
Mof_O 	O 	0.5855	0.304	0.8686	-0.409
Mof_O 	O 	0.893	0.3533	0.657	-0.345
Mof_O 	O 	0.9145	0.196	0.3686	-0.302
Mof_O 	O 	0.393	0.8533	0.657	-0.421
Mof_O 	O 	0.4145	0.696	0.3686	-0.412
Mof_Co	Co	0.12968	0.70928	0.75	1.124
Mof_P 	P 	0.16173	0.38156	0.75	0.52
Mof_O 	O 	0.194	0.5329	0.75	-0.439
Mof_O 	O 	0.243	0.2874	0.75	-0.327
Mof_Co	Co	0.62968	0.20928	0.75	1.135
Mof_P 	P 	0.66173	0.88156	0.75	0.521
Mof_O 	O 	0.694	0.0329	0.75	-0.426
Mof_O 	O 	0.743	0.7874	0.75	-0.32
Mof_Co	Co	0.87032	0.29072	0.25	1.152
Mof_P 	P 	0.83827	0.61844	0.25	0.522
Mof_O 	O 	0.806	0.4671	0.25	-0.419
Mof_O 	O 	0.757	0.7126	0.25	-0.315
Mof_Co	Co	0.37032	0.79072	0.25	1.133
Mof_P 	P 	0.33827	0.11844	0.25	0.52
Mof_O 	O 	0.306	0.9671	0.25	-0.437
Mof_O 	O 	0.257	0.2126	0.25	-0.328
Mof_Co	Co	0.87032	0.70928	0.75	1.152
Mof_P 	P 	0.83827	0.38156	0.75	0.522
Mof_O 	O 	0.806	0.5329	0.75	-0.419
Mof_O 	O 	0.757	0.2874	0.75	-0.315
Mof_Co	Co	0.37032	0.20928	0.75	1.133
Mof_P 	P 	0.33827	0.88156	0.75	0.52
Mof_O 	O 	0.306	0.0329	0.75	-0.437
Mof_O 	O 	0.257	0.7874	0.75	-0.328
Mof_Co	Co	0.12968	0.29072	0.25	1.124
Mof_P 	P 	0.16173	0.61844	0.25	0.52
Mof_O 	O 	0.194	0.4671	0.25	-0.439
Mof_O 	O 	0.243	0.7126	0.25	-0.327
Mof_Co	Co	0.62968	0.79072	0.25	1.135
Mof_P 	P 	0.66173	0.11844	0.25	0.521
Mof_O 	O 	0.694	0.9671	0.25	-0.426
Mof_O 	O 	0.743	0.2126	0.25	-0.32
Mof_Co	Co	2.105e-33	0.4488	0.61241	1.084
Mof_P 	P 	1.46681e-33	0.226	0.42674	0.508
Mof_O 	O 	1.59798e-33	0.3757	0.4649	-0.6
Mof_F 	F 	1.77946e-33	0.1296	0.5177	-0.416
Mof_Co	Co	0.5	0.9488	0.61241	1.123
Mof_P 	P 	0.5	0.726	0.42674	0.612
Mof_O 	O 	0.5	0.8757	0.4649	-0.573
Mof_F 	F 	0.5	0.6296	0.5177	-0.385
Mof_Co	Co	-4.17147e-34	0.5512	0.11241	1.084
Mof_P 	P 	9.61366e-33	0.774	0.92674	0.506
Mof_O 	O 	-3.11162e-33	0.6243	0.9649	-0.601
Mof_F 	F 	2.47142e-33	0.8704	0.0177	-0.412
Mof_Co	Co	0.5	0.0512	0.11241	1.121
Mof_P 	P 	0.5	0.274	0.92674	0.613
Mof_O 	O 	0.5	0.1243	0.9649	-0.571
Mof_F 	F 	0.5	0.3704	0.0177	-0.387
Mof_Co	Co	1.59073e-32	0.4488	0.88759	1.084
Mof_P 	P 	2.51813e-34	0.226	0.07326	0.506
Mof_O 	O 	2.93299e-33	0.3757	0.0351	-0.601
Mof_F 	F 	3.37641e-33	0.1296	0.9823	-0.412
Mof_Co	Co	0.5	0.9488	0.88759	1.121
Mof_P 	P 	0.5	0.726	0.07326	0.613
Mof_O 	O 	0.5	0.8757	0.0351	-0.571
Mof_F 	F 	0.5	0.6296	0.9823	-0.387
Mof_Co	Co	4.54635e-33	0.5512	0.38759	1.084
Mof_P 	P 	1.48269e-32	0.774	0.57326	0.508
Mof_O 	O 	1.83927e-33	0.6243	0.5351	-0.6
Mof_F 	F 	1.13001e-32	0.8704	0.4823	-0.416
Mof_Co	Co	0.5	0.0512	0.38759	1.123
Mof_P 	P 	0.5	0.274	0.57326	0.612
Mof_O 	O 	0.5	0.1243	0.5351	-0.573
Mof_F 	F 	0.5	0.3704	0.4823	-0.385
_end
