data_functionalizedCrystal
_audit_creation_method	'EQeq! by Chris Wilmer'
_symmetry_space_group_name_H-M	'P1'
_symmetry_Int_Tables_number	1
_symmetry_cell_setting	triclinic
loop_
_symmetry_equiv_pos_as_xyz
  x,y,z
_cell_length_a	71.008
_cell_length_b	13.7444
_cell_length_c	14.3221
_cell_angle_alpha	90
_cell_angle_beta	90
_cell_angle_gamma	90
loop_
_atom_site_label
_atom_site_type_symbol
_atom_site_fract_x
_atom_site_fract_y
_atom_site_fract_z
_atom_site_charge
Mof_Al	Al	0.29291	0.4814	0.3377	6.006
Mof_Al	Al	0.11218	0.7347	0.8696	5.544
Mof_Co	Co	0.07444	0.50479	0.14527	1.184
Mof_Co	Co	0.0288	0.26675	0.88311	1.195
Mof_Al	Al	0.2212	0.51675	0.13311	3.83
Mof_Co	Co	0.1486	0.48384	0.32219	1.157
Mof_Al	Al	0.18107	0.75596	0.1011	4.75
Mof_Co	Co	0.06893	0.00596	0.3511	1.209
Mof_P 	P 	0.07683	0.672	0.9921	0.886
Mof_P 	P 	0.03751	0.59468	0.2338	0.813
Mof_P 	P 	0.18479	0.5852	0.2461	0.962
Mof_P 	P 	0.14603	0.819	0.9771	1.196
Mof_P 	P 	0.21569	0.68348	0.9821	1.183
Mof_P 	P 	0.11186	0.4051	0.2204	0.857
Mof_P 	P 	0.25748	0.4182	0.2144	1.219
Mof_O 	O 	0.09663	0.4842	0.2203	-0.484
Mof_O 	O 	0.16139	0.7639	0.0294	-1.402
Mof_O 	O 	0.1304	0.4525	0.2297	-0.541
Mof_O 	O 	0.27602	0.457	0.2564	-1.805
Mof_O 	O 	0.09256	0.7243	0.9446	-1.55
Mof_O 	O 	0.05598	0.5349	0.2388	-0.495
Mof_O 	O 	0.02049	0.5295	0.2281	-0.466
Mof_O 	O 	0.20471	0.5434	0.2287	-1.142
Mof_O 	O 	0.17179	0.4983	0.2547	-0.545
Mof_O 	O 	0.24424	0.4983	0.1936	-1.162
Mof_O 	O 	0.20225	0.753	0.0253	-1.234
Mof_O 	O 	0.11206	0.3478	0.1302	-0.543
Mof_O 	O 	0.22885	0.7459	0.925	-1.536
Mof_O 	O 	0.08398	0.6097	0.0719	-0.508
Mof_O 	O 	0.17891	0.6494	0.1691	-1.483
Mof_O 	O 	0.06503	0.6121	0.9257	-0.661
Mof_O 	O 	0.31431	0.4927	0.2816	-1.689
Mof_O 	O 	0.13266	0.7454	0.932	-1.689
Mof_O 	O 	0.06396	0.3971	0.0854	-0.398
Mof_O 	O 	0.22481	0.6216	0.0543	-1.247
Mof_O 	O 	0.11401	0.6333	0.7974	-1.672
Mof_O 	O 	0.29647	0.3831	0.417	-1.751
Mof_O 	O 	0.2471	0.3585	0.292	-1.528
Mof_O 	O 	0.01171	0.3929	0.3805	-0.597
Mof_O 	O 	0.03715	0.6624	0.1462	-1.543
Mof_O 	O 	0.10794	0.3422	0.3051	-1.565
Mof_O 	O 	0.15576	0.3789	0.4062	-0.724
Mof_O 	O 	0.03622	0.6558	0.3216	-0.58
Mof_Al	Al	0.29291	0.9814	0.8377	6.12
Mof_Al	Al	0.11218	0.2347	0.3696	5.653
Mof_Co	Co	0.07444	0.00479	0.64527	1.144
Mof_Co	Co	0.0288	0.76675	0.38311	1.208
Mof_Al	Al	0.2212	0.01675	0.63311	3.515
Mof_Co	Co	0.1486	0.98384	0.82219	1.166
Mof_Al	Al	0.18107	0.25596	0.6011	4.727
Mof_Co	Co	0.06893	0.50596	0.8511	1.22
Mof_P 	P 	0.07683	0.172	0.4921	1.072
Mof_P 	P 	0.03751	0.09468	0.7338	0.81
Mof_P 	P 	0.18479	0.0852	0.7461	0.897
Mof_P 	P 	0.14603	0.319	0.4771	1.371
Mof_P 	P 	0.21569	0.18348	0.4821	1.365
Mof_P 	P 	0.11186	0.9051	0.7204	0.851
Mof_P 	P 	0.25748	0.9182	0.7144	1.206
Mof_O 	O 	0.09663	0.9842	0.7203	-0.457
Mof_O 	O 	0.16139	0.2639	0.5294	-1.513
Mof_O 	O 	0.1304	0.9525	0.7297	-0.538
Mof_O 	O 	0.27602	0.957	0.7564	-1.823
Mof_O 	O 	0.09256	0.2243	0.4446	-1.565
Mof_O 	O 	0.05598	0.0349	0.7388	-0.541
Mof_O 	O 	0.02049	0.0295	0.7281	-0.516
Mof_O 	O 	0.20471	0.0434	0.7287	-1.115
Mof_O 	O 	0.17179	0.9983	0.7547	-0.506
Mof_O 	O 	0.24424	0.9983	0.6936	-1.078
Mof_O 	O 	0.20225	0.253	0.5253	-1.353
Mof_O 	O 	0.11206	0.8478	0.6302	-0.563
Mof_O 	O 	0.22885	0.2459	0.425	-1.553
Mof_O 	O 	0.08398	0.1097	0.5719	-0.638
Mof_O 	O 	0.17891	0.1494	0.6691	-1.49
Mof_O 	O 	0.06503	0.1121	0.4257	-0.659
Mof_O 	O 	0.31431	0.9927	0.7816	-1.678
Mof_O 	O 	0.13266	0.2454	0.432	-1.706
Mof_O 	O 	0.06396	0.8971	0.5854	-0.464
Mof_O 	O 	0.22481	0.1216	0.5543	-1.315
Mof_O 	O 	0.11401	0.1333	0.2974	-1.695
Mof_O 	O 	0.29647	0.8831	0.917	-1.785
Mof_O 	O 	0.2471	0.8585	0.792	-1.507
Mof_O 	O 	0.01171	0.8929	0.8805	-0.564
Mof_O 	O 	0.03715	0.1624	0.6462	-1.574
Mof_O 	O 	0.10794	0.8422	0.8051	-1.547
Mof_O 	O 	0.15576	0.8789	0.9062	-0.727
Mof_O 	O 	0.03622	0.1558	0.8216	-0.606
Mof_Al	Al	0.79291	0.4814	0.8377	5.879
Mof_Al	Al	0.61218	0.7347	0.3696	5.692
Mof_Co	Co	0.57444	0.50479	0.64527	1.176
Mof_Co	Co	0.5288	0.26675	0.38311	1.203
Mof_Al	Al	0.7212	0.51675	0.63311	3.812
Mof_Co	Co	0.6486	0.48384	0.82219	1.147
Mof_Al	Al	0.68107	0.75596	0.6011	4.774
Mof_Co	Co	0.56893	0.00596	0.8511	1.201
Mof_P 	P 	0.57683	0.672	0.4921	1.076
Mof_P 	P 	0.53751	0.59468	0.7338	0.812
Mof_P 	P 	0.68479	0.5852	0.7461	0.96
Mof_P 	P 	0.64603	0.819	0.4771	1.389
Mof_P 	P 	0.71569	0.68348	0.4821	1.392
Mof_P 	P 	0.61186	0.4051	0.7204	0.851
Mof_P 	P 	0.75748	0.4182	0.7144	1.205
Mof_O 	O 	0.59663	0.4842	0.7203	-0.5
Mof_O 	O 	0.66139	0.7639	0.5294	-1.52
Mof_O 	O 	0.6304	0.4525	0.7297	-0.559
Mof_O 	O 	0.77602	0.457	0.7564	-1.788
Mof_O 	O 	0.59256	0.7243	0.4446	-1.565
Mof_O 	O 	0.55598	0.5349	0.7388	-0.514
Mof_O 	O 	0.52049	0.5295	0.7281	-0.488
Mof_O 	O 	0.70471	0.5434	0.7287	-1.154
Mof_O 	O 	0.67179	0.4983	0.7547	-0.567
Mof_O 	O 	0.74424	0.4983	0.6936	-1.174
Mof_O 	O 	0.70225	0.753	0.5253	-1.359
Mof_O 	O 	0.61206	0.3478	0.6302	-0.575
Mof_O 	O 	0.72885	0.7459	0.425	-1.558
Mof_O 	O 	0.58398	0.6097	0.5719	-0.618
Mof_O 	O 	0.67891	0.6494	0.6691	-1.503
Mof_O 	O 	0.56503	0.6121	0.4257	-0.647
Mof_O 	O 	0.81431	0.4927	0.7816	-1.679
Mof_O 	O 	0.63266	0.7454	0.432	-1.708
Mof_O 	O 	0.56396	0.3971	0.5854	-0.501
Mof_O 	O 	0.72481	0.6216	0.5543	-1.363
Mof_O 	O 	0.61401	0.6333	0.2974	-1.692
Mof_O 	O 	0.79647	0.3831	0.917	-1.741
Mof_O 	O 	0.7471	0.3585	0.792	-1.51
Mof_O 	O 	0.51171	0.3929	0.8805	-0.606
Mof_O 	O 	0.53715	0.6624	0.6462	-1.572
Mof_O 	O 	0.60794	0.3422	0.8051	-1.548
Mof_O 	O 	0.65576	0.3789	0.9062	-0.734
Mof_O 	O 	0.53622	0.6558	0.8216	-0.598
Mof_Al	Al	0.79291	0.9814	0.3377	6.237
Mof_Al	Al	0.61218	0.2347	0.8696	5.507
Mof_Co	Co	0.57444	0.00479	0.14527	1.15
Mof_Co	Co	0.5288	0.76675	0.88311	1.198
Mof_Al	Al	0.7212	0.01675	0.13311	3.54
Mof_Co	Co	0.6486	0.98384	0.32219	1.176
Mof_Al	Al	0.68107	0.25596	0.1011	4.705
Mof_Co	Co	0.56893	0.50596	0.3511	1.229
Mof_P 	P 	0.57683	0.172	0.9921	0.885
Mof_P 	P 	0.53751	0.09468	0.2338	0.811
Mof_P 	P 	0.68479	0.0852	0.2461	0.9
Mof_P 	P 	0.64603	0.319	0.9771	1.179
Mof_P 	P 	0.71569	0.18348	0.9821	1.161
Mof_P 	P 	0.61186	0.9051	0.2204	0.858
Mof_P 	P 	0.75748	0.9182	0.2144	1.22
Mof_O 	O 	0.59663	0.9842	0.2203	-0.442
Mof_O 	O 	0.66139	0.2639	0.0294	-1.396
Mof_O 	O 	0.6304	0.9525	0.2297	-0.521
Mof_O 	O 	0.77602	0.957	0.2564	-1.839
Mof_O 	O 	0.59256	0.2243	0.9446	-1.55
Mof_O 	O 	0.55598	0.0349	0.2388	-0.523
Mof_O 	O 	0.52049	0.0295	0.2281	-0.495
Mof_O 	O 	0.70471	0.0434	0.2287	-1.105
Mof_O 	O 	0.67179	0.9983	0.2547	-0.487
Mof_O 	O 	0.74424	0.9983	0.1936	-1.07
Mof_O 	O 	0.70225	0.253	0.0253	-1.23
Mof_O 	O 	0.61206	0.8478	0.1302	-0.532
Mof_O 	O 	0.72885	0.2459	0.925	-1.532
Mof_O 	O 	0.58398	0.1097	0.0719	-0.53
Mof_O 	O 	0.67891	0.1494	0.1691	-1.47
Mof_O 	O 	0.56503	0.1121	0.9257	-0.673
Mof_O 	O 	0.81431	0.9927	0.2816	-1.688
Mof_O 	O 	0.63266	0.2454	0.932	-1.687
Mof_O 	O 	0.56396	0.8971	0.0854	-0.362
Mof_O 	O 	0.72481	0.1216	0.0543	-1.201
Mof_O 	O 	0.61401	0.1333	0.7974	-1.674
Mof_O 	O 	0.79647	0.8831	0.417	-1.794
Mof_O 	O 	0.7471	0.8585	0.292	-1.526
Mof_O 	O 	0.51171	0.8929	0.3805	-0.555
Mof_O 	O 	0.53715	0.1624	0.1462	-1.545
Mof_O 	O 	0.60794	0.8422	0.3051	-1.565
Mof_O 	O 	0.65576	0.8789	0.4062	-0.717
Mof_O 	O 	0.53622	0.1558	0.3216	-0.588
Mof_Al	Al	0.70709	0.5186	0.3377	6.008
Mof_Al	Al	0.88782	0.2653	0.8696	5.508
Mof_Co	Co	0.92556	0.49521	0.14527	1.183
Mof_Co	Co	0.9712	0.73325	0.88311	1.196
Mof_Al	Al	0.7788	0.48325	0.13311	3.826
Mof_Co	Co	0.8514	0.51616	0.32219	1.157
Mof_Al	Al	0.81893	0.24404	0.1011	4.719
Mof_Co	Co	0.93107	0.99404	0.3511	1.249
Mof_P 	P 	0.92317	0.328	0.9921	0.884
Mof_P 	P 	0.96249	0.40532	0.2338	0.81
Mof_P 	P 	0.81521	0.4148	0.2461	0.959
Mof_P 	P 	0.85397	0.181	0.9771	1.17
Mof_P 	P 	0.78431	0.31652	0.9821	1.182
Mof_P 	P 	0.88814	0.5949	0.2204	0.86
Mof_P 	P 	0.74252	0.5818	0.2144	1.221
Mof_O 	O 	0.90337	0.5158	0.2203	-0.486
Mof_O 	O 	0.83861	0.2361	0.0294	-1.393
Mof_O 	O 	0.8696	0.5475	0.2297	-0.541
Mof_O 	O 	0.72398	0.543	0.2564	-1.805
Mof_O 	O 	0.90744	0.2757	0.9446	-1.55
Mof_O 	O 	0.94402	0.4651	0.2388	-0.495
Mof_O 	O 	0.97951	0.4705	0.2281	-0.465
Mof_O 	O 	0.79529	0.4566	0.2287	-1.142
Mof_O 	O 	0.82821	0.5017	0.2547	-0.544
Mof_O 	O 	0.75576	0.5017	0.1936	-1.163
Mof_O 	O 	0.79775	0.247	0.0253	-1.243
Mof_O 	O 	0.88794	0.6522	0.1302	-0.541
Mof_O 	O 	0.77115	0.2541	0.925	-1.541
Mof_O 	O 	0.91602	0.3903	0.0719	-0.51
Mof_O 	O 	0.82109	0.3506	0.1691	-1.475
Mof_O 	O 	0.93497	0.3879	0.9257	-0.663
Mof_O 	O 	0.68569	0.5073	0.2816	-1.688
Mof_O 	O 	0.86734	0.2546	0.932	-1.679
Mof_O 	O 	0.93604	0.6029	0.0854	-0.396
Mof_O 	O 	0.77519	0.3784	0.0543	-1.249
Mof_O 	O 	0.88599	0.3667	0.7974	-1.664
Mof_O 	O 	0.70353	0.6169	0.417	-1.751
Mof_O 	O 	0.7529	0.6415	0.292	-1.536
Mof_O 	O 	0.98829	0.6071	0.3805	-0.595
Mof_O 	O 	0.96285	0.3376	0.1462	-1.533
Mof_O 	O 	0.89206	0.6578	0.3051	-1.572
Mof_O 	O 	0.84424	0.6211	0.4062	-0.723
Mof_O 	O 	0.96378	0.3442	0.3216	-0.58
Mof_Al	Al	0.70709	0.0186	0.8377	5.666
Mof_Al	Al	0.88782	0.7653	0.3696	5.692
Mof_Co	Co	0.92556	0.99521	0.64527	1.208
Mof_Co	Co	0.9712	0.23325	0.38311	1.202
Mof_Al	Al	0.7788	0.98325	0.63311	4.099
Mof_Co	Co	0.8514	0.01616	0.82219	1.131
Mof_Al	Al	0.81893	0.74404	0.6011	4.786
Mof_Co	Co	0.93107	0.49404	0.8511	1.22
Mof_P 	P 	0.92317	0.828	0.4921	1.076
Mof_P 	P 	0.96249	0.90532	0.7338	0.811
Mof_P 	P 	0.81521	0.9148	0.7461	1.017
Mof_P 	P 	0.85397	0.681	0.4771	1.377
Mof_P 	P 	0.78431	0.81652	0.4821	1.415
Mof_P 	P 	0.88814	0.0949	0.7204	0.853
Mof_P 	P 	0.74252	0.0818	0.7144	1.207
Mof_O 	O 	0.90337	0.0158	0.7203	-0.54
Mof_O 	O 	0.83861	0.7361	0.5294	-1.516
Mof_O 	O 	0.8696	0.0475	0.7297	-0.576
Mof_O 	O 	0.72398	0.043	0.7564	-1.756
Mof_O 	O 	0.90744	0.7757	0.4446	-1.566
Mof_O 	O 	0.94402	0.9651	0.7388	-0.485
Mof_O 	O 	0.97951	0.9705	0.7281	-0.446
Mof_O 	O 	0.79529	0.9566	0.7287	-1.19
Mof_O 	O 	0.82821	0.0017	0.7547	-0.619
Mof_O 	O 	0.75576	0.0017	0.6936	-1.264
Mof_O 	O 	0.79775	0.747	0.5253	-1.373
Mof_O 	O 	0.88794	0.1522	0.6302	-0.583
Mof_O 	O 	0.77115	0.7541	0.425	-1.568
Mof_O 	O 	0.91602	0.8903	0.5719	-0.6
Mof_O 	O 	0.82109	0.8506	0.6691	-1.508
Mof_O 	O 	0.93497	0.8879	0.4257	-0.637
Mof_O 	O 	0.68569	0.0073	0.7816	-1.682
Mof_O 	O 	0.86734	0.7546	0.432	-1.699
Mof_O 	O 	0.93604	0.1029	0.5854	-0.534
Mof_O 	O 	0.77519	0.8784	0.5543	-1.412
Mof_O 	O 	0.88599	0.8667	0.2974	-1.682
Mof_O 	O 	0.70353	0.1169	0.917	-1.7
Mof_O 	O 	0.7529	0.1415	0.792	-1.519
Mof_O 	O 	0.98829	0.1071	0.8805	-0.618
Mof_O 	O 	0.96285	0.8376	0.6462	-1.566
Mof_O 	O 	0.89206	0.1578	0.8051	-1.554
Mof_O 	O 	0.84424	0.1211	0.9062	-0.74
Mof_O 	O 	0.96378	0.8442	0.8216	-0.588
Mof_Al	Al	0.20709	0.5186	0.8377	5.881
Mof_Al	Al	0.38782	0.2653	0.3696	5.654
Mof_Co	Co	0.42556	0.49521	0.64527	1.176
Mof_Co	Co	0.4712	0.73325	0.38311	1.206
Mof_Al	Al	0.2788	0.48325	0.63311	3.808
Mof_Co	Co	0.3514	0.51616	0.82219	1.147
Mof_Al	Al	0.31893	0.24404	0.6011	4.741
Mof_Co	Co	0.43107	0.99404	0.8511	1.24
Mof_P 	P 	0.42317	0.328	0.4921	1.072
Mof_P 	P 	0.46249	0.40532	0.7338	0.809
Mof_P 	P 	0.31521	0.4148	0.7461	0.958
Mof_P 	P 	0.35397	0.181	0.4771	1.36
Mof_P 	P 	0.28431	0.31652	0.4821	1.389
Mof_P 	P 	0.38814	0.5949	0.7204	0.853
Mof_P 	P 	0.24252	0.5818	0.7144	1.207
Mof_O 	O 	0.40337	0.5158	0.7203	-0.502
Mof_O 	O 	0.33861	0.2361	0.5294	-1.509
Mof_O 	O 	0.3696	0.5475	0.7297	-0.559
Mof_O 	O 	0.22398	0.543	0.7564	-1.787
Mof_O 	O 	0.40744	0.2757	0.4446	-1.565
Mof_O 	O 	0.44402	0.4651	0.7388	-0.514
Mof_O 	O 	0.47951	0.4705	0.7281	-0.487
Mof_O 	O 	0.29529	0.4566	0.7287	-1.154
Mof_O 	O 	0.32821	0.5017	0.7547	-0.565
Mof_O 	O 	0.25576	0.5017	0.6936	-1.175
Mof_O 	O 	0.29775	0.247	0.5253	-1.367
Mof_O 	O 	0.38794	0.6522	0.6302	-0.573
Mof_O 	O 	0.27115	0.2541	0.425	-1.563
Mof_O 	O 	0.41602	0.3903	0.5719	-0.619
Mof_O 	O 	0.32109	0.3506	0.6691	-1.495
Mof_O 	O 	0.43497	0.3879	0.4257	-0.649
Mof_O 	O 	0.18569	0.5073	0.7816	-1.678
Mof_O 	O 	0.36734	0.2546	0.432	-1.698
Mof_O 	O 	0.43604	0.6029	0.5854	-0.499
Mof_O 	O 	0.27519	0.3784	0.5543	-1.364
Mof_O 	O 	0.38599	0.3667	0.2974	-1.684
Mof_O 	O 	0.20353	0.6169	0.917	-1.74
Mof_O 	O 	0.2529	0.6415	0.792	-1.517
Mof_O 	O 	0.48829	0.6071	0.8805	-0.604
Mof_O 	O 	0.46285	0.3376	0.6462	-1.562
Mof_O 	O 	0.39206	0.6578	0.8051	-1.555
Mof_O 	O 	0.34424	0.6211	0.9062	-0.734
Mof_O 	O 	0.46378	0.3442	0.8216	-0.599
Mof_Al	Al	0.20709	0.0186	0.3377	5.772
Mof_Al	Al	0.38782	0.7653	0.8696	5.544
Mof_Co	Co	0.42556	0.99521	0.14527	1.216
Mof_Co	Co	0.4712	0.23325	0.88311	1.192
Mof_Al	Al	0.2788	0.98325	0.13311	4.128
Mof_Co	Co	0.3514	0.01616	0.32219	1.14
Mof_Al	Al	0.31893	0.74404	0.1011	4.763
Mof_Co	Co	0.43107	0.49404	0.3511	1.229
Mof_P 	P 	0.42317	0.828	0.9921	0.887
Mof_P 	P 	0.46249	0.90532	0.2338	0.812
Mof_P 	P 	0.31521	0.9148	0.2461	1.022
Mof_P 	P 	0.35397	0.681	0.9771	1.184
Mof_P 	P 	0.28431	0.81652	0.9821	1.208
Mof_P 	P 	0.38814	0.0949	0.2204	0.859
Mof_P 	P 	0.24252	0.0818	0.2144	1.22
Mof_O 	O 	0.40337	0.0158	0.2203	-0.527
Mof_O 	O 	0.33861	0.7361	0.0294	-1.398
Mof_O 	O 	0.3696	0.0475	0.2297	-0.56
Mof_O 	O 	0.22398	0.043	0.2564	-1.77
Mof_O 	O 	0.40744	0.7757	0.9446	-1.551
Mof_O 	O 	0.44402	0.9651	0.2388	-0.465
Mof_O 	O 	0.47951	0.9705	0.2281	-0.423
Mof_O 	O 	0.29529	0.9566	0.2287	-1.181
Mof_O 	O 	0.32821	0.0017	0.2547	-0.601
Mof_O 	O 	0.25576	0.0017	0.1936	-1.258
Mof_O 	O 	0.29775	0.747	0.0253	-1.249
Mof_O 	O 	0.38794	0.1522	0.1302	-0.551
Mof_O 	O 	0.27115	0.7541	0.925	-1.547
Mof_O 	O 	0.41602	0.8903	0.0719	-0.49
Mof_O 	O 	0.32109	0.8506	0.1691	-1.488
Mof_O 	O 	0.43497	0.8879	0.9257	-0.65
Mof_O 	O 	0.18569	0.0073	0.2816	-1.691
Mof_O 	O 	0.36734	0.7546	0.932	-1.68
Mof_O 	O 	0.43604	0.1029	0.0854	-0.433
Mof_O 	O 	0.27519	0.8784	0.0543	-1.297
Mof_O 	O 	0.38599	0.8667	0.7974	-1.661
Mof_O 	O 	0.20353	0.1169	0.417	-1.708
Mof_O 	O 	0.2529	0.1415	0.292	-1.538
Mof_O 	O 	0.48829	0.1071	0.3805	-0.609
Mof_O 	O 	0.46285	0.8376	0.1462	-1.536
Mof_O 	O 	0.39206	0.1578	0.3051	-1.571
Mof_O 	O 	0.34424	0.1211	0.4062	-0.73
Mof_O 	O 	0.46378	0.8442	0.3216	-0.569
Mof_Al	Al	0.54291	0.7686	0.5877	5.583
Mof_Al	Al	0.36218	0.5153	0.1196	5.701
Mof_Co	Co	0.32444	0.74521	0.39527	1.16
Mof_Co	Co	0.3986	0.76616	0.57219	1.165
Mof_P 	P 	0.32683	0.578	0.2421	1.263
Mof_P 	P 	0.28751	0.65532	0.4838	0.982
Mof_P 	P 	0.43479	0.6648	0.4961	0.592
Mof_P 	P 	0.39603	0.431	0.2271	1.146
Mof_P 	P 	0.46569	0.56652	0.2321	1.009
Mof_P 	P 	0.36186	0.8449	0.4704	0.846
Mof_P 	P 	0.50748	0.8318	0.4644	1.021
Mof_O 	O 	0.34663	0.7658	0.4703	-0.499
Mof_O 	O 	0.41139	0.4861	0.2794	-0.596
Mof_O 	O 	0.3804	0.7975	0.4797	-0.535
Mof_O 	O 	0.52602	0.793	0.5064	-1.635
Mof_O 	O 	0.34256	0.5257	0.1946	-1.636
Mof_O 	O 	0.30598	0.7151	0.4888	-0.551
Mof_O 	O 	0.27049	0.7205	0.4781	-0.555
Mof_O 	O 	0.45471	0.7066	0.4787	-0.455
Mof_O 	O 	0.42179	0.7517	0.5047	-0.454
Mof_O 	O 	0.49424	0.7517	0.4436	-0.545
Mof_O 	O 	0.45225	0.497	0.2753	-0.514
Mof_O 	O 	0.36206	0.9022	0.3802	-0.545
Mof_O 	O 	0.47885	0.5041	0.175	-1.353
Mof_O 	O 	0.33398	0.6403	0.3219	-0.699
Mof_O 	O 	0.42891	0.6006	0.4191	-0.545
Mof_O 	O 	0.31503	0.6379	0.1757	-1.461
Mof_O 	O 	0.56431	0.7573	0.5316	-1.543
Mof_O 	O 	0.38266	0.5046	0.182	-1.661
Mof_O 	O 	0.31396	0.8529	0.3354	-0.603
Mof_O 	O 	0.47481	0.6284	0.3043	-0.645
Mof_O 	O 	0.36401	0.6167	0.0474	-1.65
Mof_O 	O 	0.54647	0.8669	0.667	-1.5
Mof_O 	O 	0.4971	0.8915	0.542	-1.239
Mof_O 	O 	0.26171	0.8571	0.6305	-0.677
Mof_O 	O 	0.28715	0.5876	0.3962	-1.758
Mof_O 	O 	0.35794	0.9078	0.5551	-1.506
Mof_O 	O 	0.40576	0.8711	0.6562	-0.635
Mof_O 	O 	0.28622	0.5942	0.5716	-1.224
Mof_Al	Al	0.54291	0.2686	0.0877	5.518
Mof_Al	Al	0.36218	0.0153	0.6196	5.483
Mof_Co	Co	0.32444	0.24521	0.89527	1.149
Mof_Co	Co	0.3986	0.26616	0.07219	1.189
Mof_P 	P 	0.32683	0.078	0.7421	1.211
Mof_P 	P 	0.28751	0.15532	0.9838	0.913
Mof_P 	P 	0.43479	0.1648	0.9961	0.41
Mof_P 	P 	0.39603	0.931	0.7271	1.175
Mof_P 	P 	0.46569	0.06652	0.7321	0.936
Mof_P 	P 	0.36186	0.3449	0.9704	0.77
Mof_P 	P 	0.50748	0.3318	0.9644	0.861
Mof_O 	O 	0.34663	0.2658	0.9703	-0.542
Mof_O 	O 	0.41139	0.9861	0.7794	-0.584
Mof_O 	O 	0.3804	0.2975	0.9797	-0.614
Mof_O 	O 	0.52602	0.293	0.0064	-1.525
Mof_O 	O 	0.34256	0.0257	0.6946	-1.624
Mof_O 	O 	0.30598	0.2151	0.9888	-0.601
Mof_O 	O 	0.27049	0.2205	0.9781	-0.621
Mof_O 	O 	0.45471	0.2066	0.9787	-0.498
Mof_O 	O 	0.42179	0.2517	0.0047	-0.338
Mof_O 	O 	0.49424	0.2517	0.9436	-0.576
Mof_O 	O 	0.45225	0.997	0.7753	-0.463
Mof_O 	O 	0.36206	0.4022	0.8802	-0.595
Mof_O 	O 	0.47885	0.0041	0.675	-1.308
Mof_O 	O 	0.33398	0.1403	0.8219	-0.715
Mof_O 	O 	0.42891	0.1006	0.9191	-0.589
Mof_O 	O 	0.31503	0.1379	0.6757	-1.475
Mof_O 	O 	0.56431	0.2573	0.0316	-1.434
Mof_O 	O 	0.38266	0.0046	0.682	-1.683
Mof_O 	O 	0.31396	0.3529	0.8354	-0.622
Mof_O 	O 	0.47481	0.1284	0.8043	-0.657
Mof_O 	O 	0.36401	0.1167	0.5474	-1.726
Mof_O 	O 	0.54647	0.3669	0.167	-1.491
Mof_O 	O 	0.4971	0.3915	0.042	-1.253
Mof_O 	O 	0.26171	0.3571	0.1305	-0.657
Mof_O 	O 	0.28715	0.0876	0.8962	-1.835
Mof_O 	O 	0.35794	0.4078	0.0551	-1.489
Mof_O 	O 	0.40576	0.3711	0.1562	-0.629
Mof_O 	O 	0.28622	0.0942	0.0716	-1.224
Mof_Al	Al	0.04291	0.7686	0.0877	5.547
Mof_Al	Al	0.86218	0.5153	0.6196	5.706
Mof_Co	Co	0.82444	0.74521	0.89527	1.153
Mof_Co	Co	0.8986	0.76616	0.07219	1.194
Mof_P 	P 	0.82683	0.578	0.7421	1.257
Mof_P 	P 	0.78751	0.65532	0.9838	0.883
Mof_P 	P 	0.93479	0.6648	0.9961	0.404
Mof_P 	P 	0.89603	0.431	0.7271	1.136
Mof_P 	P 	0.96569	0.56652	0.7321	1.009
Mof_P 	P 	0.86186	0.8449	0.9704	0.756
Mof_P 	P 	0.00748	0.8318	0.9644	0.843
Mof_O 	O 	0.84663	0.7658	0.9703	-0.531
Mof_O 	O 	0.91139	0.4861	0.7794	-0.608
Mof_O 	O 	0.8804	0.7975	0.9797	-0.599
Mof_O 	O 	0.02602	0.793	0.0064	-1.515
Mof_O 	O 	0.84256	0.5257	0.6946	-1.652
Mof_O 	O 	0.80598	0.7151	0.9888	-0.586
Mof_O 	O 	0.77049	0.7205	0.9781	-0.605
Mof_O 	O 	0.95471	0.7066	0.9787	-0.485
Mof_O 	O 	0.92179	0.7517	0.0047	-0.325
Mof_O 	O 	0.99424	0.7517	0.9436	-0.564
Mof_O 	O 	0.95225	0.497	0.7753	-0.529
Mof_O 	O 	0.86206	0.9022	0.8802	-0.557
Mof_O 	O 	0.97885	0.5041	0.675	-1.37
Mof_O 	O 	0.83398	0.6403	0.8219	-0.709
Mof_O 	O 	0.92891	0.6006	0.9191	-0.551
Mof_O 	O 	0.81503	0.6379	0.6757	-1.476
Mof_O 	O 	0.06431	0.7573	0.0316	-1.429
Mof_O 	O 	0.88266	0.5046	0.682	-1.678
Mof_O 	O 	0.81396	0.8529	0.8354	-0.617
Mof_O 	O 	0.97481	0.6284	0.8043	-0.658
Mof_O 	O 	0.86401	0.6167	0.5474	-1.765
Mof_O 	O 	0.04647	0.8669	0.167	-1.481
Mof_O 	O 	0.9971	0.8915	0.042	-1.132
Mof_O 	O 	0.76171	0.8571	0.1305	-0.644
Mof_O 	O 	0.78715	0.5876	0.8962	-1.739
Mof_O 	O 	0.85794	0.9078	0.0551	-1.406
Mof_O 	O 	0.90576	0.8711	0.1562	-0.619
Mof_O 	O 	0.78622	0.5942	0.0716	-1.127
Mof_Al	Al	0.04291	0.2686	0.5877	5.553
Mof_Al	Al	0.86218	0.0153	0.1196	5.481
Mof_Co	Co	0.82444	0.24521	0.39527	1.155
Mof_Co	Co	0.8986	0.26616	0.57219	1.16
Mof_P 	P 	0.82683	0.078	0.2421	1.218
Mof_P 	P 	0.78751	0.15532	0.4838	1.009
Mof_P 	P 	0.93479	0.1648	0.4961	0.596
Mof_P 	P 	0.89603	0.931	0.2271	1.184
Mof_P 	P 	0.96569	0.06652	0.2321	0.936
Mof_P 	P 	0.86186	0.3449	0.4704	0.861
Mof_P 	P 	0.00748	0.3318	0.4644	1.038
Mof_O 	O 	0.84663	0.2658	0.4703	-0.511
Mof_O 	O 	0.91139	0.9861	0.2794	-0.574
Mof_O 	O 	0.8804	0.2975	0.4797	-0.551
Mof_O 	O 	0.02602	0.293	0.5064	-1.645
Mof_O 	O 	0.84256	0.0257	0.1946	-1.608
Mof_O 	O 	0.80598	0.2151	0.4888	-0.567
Mof_O 	O 	0.77049	0.2205	0.4781	-0.571
Mof_O 	O 	0.95471	0.2066	0.4787	-0.469
Mof_O 	O 	0.92179	0.2517	0.5047	-0.466
Mof_O 	O 	0.99424	0.2517	0.4436	-0.557
Mof_O 	O 	0.95225	0.997	0.2753	-0.448
Mof_O 	O 	0.86206	0.4022	0.3802	-0.585
Mof_O 	O 	0.97885	0.0041	0.175	-1.29
Mof_O 	O 	0.83398	0.1403	0.3219	-0.705
Mof_O 	O 	0.92891	0.1006	0.4191	-0.583
Mof_O 	O 	0.81503	0.1379	0.1757	-1.46
Mof_O 	O 	0.06431	0.2573	0.5316	-1.547
Mof_O 	O 	0.88266	0.0046	0.182	-1.666
Mof_O 	O 	0.81396	0.3529	0.3354	-0.608
Mof_O 	O 	0.97481	0.1284	0.3043	-0.644
Mof_O 	O 	0.86401	0.1167	0.0474	-1.613
Mof_O 	O 	0.04647	0.3669	0.667	-1.51
Mof_O 	O 	0.9971	0.3915	0.542	-1.359
Mof_O 	O 	0.76171	0.3571	0.6305	-0.69
Mof_O 	O 	0.78715	0.0876	0.3962	-1.85
Mof_O 	O 	0.85794	0.4078	0.5551	-1.591
Mof_O 	O 	0.90576	0.3711	0.6562	-0.645
Mof_O 	O 	0.78622	0.0942	0.5716	-1.317
Mof_Al	Al	0.95709	0.7314	0.5877	5.58
Mof_Al	Al	0.13782	0.9847	0.1196	5.937
Mof_Co	Co	0.17556	0.75479	0.39527	1.161
Mof_Co	Co	0.1014	0.73384	0.57219	1.163
Mof_P 	P 	0.17317	0.922	0.2421	1.308
Mof_P 	P 	0.21249	0.84468	0.4838	0.955
Mof_P 	P 	0.06521	0.8352	0.4961	0.588
Mof_P 	P 	0.10397	0.069	0.2271	1.107
Mof_P 	P 	0.03431	0.93348	0.2321	1.04
Mof_P 	P 	0.13814	0.6551	0.4704	0.859
Mof_P 	P 	0.99252	0.6682	0.4644	1.039
Mof_O 	O 	0.15337	0.7342	0.4703	-0.5
Mof_O 	O 	0.08861	0.0139	0.2794	-0.62
Mof_O 	O 	0.1196	0.7025	0.4797	-0.544
Mof_O 	O 	0.97398	0.707	0.5064	-1.644
Mof_O 	O 	0.15744	0.9743	0.1946	-1.664
Mof_O 	O 	0.19402	0.7849	0.4888	-0.544
Mof_O 	O 	0.22951	0.7795	0.4781	-0.549
Mof_O 	O 	0.04529	0.7934	0.4787	-0.45
Mof_O 	O 	0.07821	0.7483	0.5047	-0.459
Mof_O 	O 	0.00576	0.7483	0.4436	-0.542
Mof_O 	O 	0.04775	0.003	0.2753	-0.57
Mof_O 	O 	0.13794	0.5978	0.3802	-0.584
Mof_O 	O 	0.02115	0.9959	0.175	-1.218
Mof_O 	O 	0.16602	0.8597	0.3219	-0.693
Mof_O 	O 	0.07109	0.8994	0.4191	-0.507
Mof_O 	O 	0.18497	0.8621	0.1757	-1.45
Mof_O 	O 	0.93569	0.7427	0.5316	-1.549
Mof_O 	O 	0.11734	0.9954	0.182	-1.657
Mof_O 	O 	0.18604	0.6471	0.3354	-0.607
Mof_O 	O 	0.02519	0.8716	0.3043	-0.629
Mof_O 	O 	0.13599	0.8833	0.0474	-1.693
Mof_O 	O 	0.95353	0.6331	0.667	-1.515
Mof_O 	O 	0.0029	0.6085	0.542	-1.357
Mof_O 	O 	0.23829	0.6429	0.6305	-0.688
Mof_O 	O 	0.21285	0.9124	0.3962	-1.663
Mof_O 	O 	0.14206	0.5922	0.5551	-1.588
Mof_O 	O 	0.09424	0.6289	0.6562	-0.644
Mof_O 	O 	0.21378	0.9058	0.5716	-1.13
Mof_Al	Al	0.95709	0.2314	0.0877	5.5
Mof_Al	Al	0.13782	0.4847	0.6196	5.701
Mof_Co	Co	0.17556	0.25479	0.89527	1.149
Mof_Co	Co	0.1014	0.23384	0.07219	1.187
Mof_P 	P 	0.17317	0.422	0.7421	1.254
Mof_P 	P 	0.21249	0.34468	0.9838	0.884
Mof_P 	P 	0.06521	0.3352	0.9961	0.406
Mof_P 	P 	0.10397	0.569	0.7271	1.138
Mof_P 	P 	0.03431	0.43348	0.7321	1.008
Mof_P 	P 	0.13814	0.1551	0.9704	0.786
Mof_P 	P 	0.99252	0.1682	0.9644	0.846
Mof_O 	O 	0.15337	0.2342	0.9703	-0.543
Mof_O 	O 	0.08861	0.5139	0.7794	-0.609
Mof_O 	O 	0.1196	0.2025	0.9797	-0.623
Mof_O 	O 	0.97398	0.207	0.0064	-1.517
Mof_O 	O 	0.15744	0.4743	0.6946	-1.65
Mof_O 	O 	0.19402	0.2849	0.9888	-0.594
Mof_O 	O 	0.22951	0.2795	0.9781	-0.614
Mof_O 	O 	0.04529	0.2934	0.9787	-0.493
Mof_O 	O 	0.07821	0.2483	0.0047	-0.342
Mof_O 	O 	0.00576	0.2483	0.9436	-0.57
Mof_O 	O 	0.04775	0.503	0.7753	-0.527
Mof_O 	O 	0.13794	0.0978	0.8802	-0.634
Mof_O 	O 	0.02115	0.4959	0.675	-1.368
Mof_O 	O 	0.16602	0.3597	0.8219	-0.71
Mof_O 	O 	0.07109	0.3994	0.9191	-0.554
Mof_O 	O 	0.18497	0.3621	0.6757	-1.463
Mof_O 	O 	0.93569	0.2427	0.0316	-1.435
Mof_O 	O 	0.11734	0.4954	0.682	-1.679
Mof_O 	O 	0.18604	0.1471	0.8354	-0.625
Mof_O 	O 	0.02519	0.3716	0.8043	-0.659
Mof_O 	O 	0.13599	0.3833	0.5474	-1.765
Mof_O 	O 	0.95353	0.1331	0.167	-1.489
Mof_O 	O 	0.0029	0.1085	0.042	-1.183
Mof_O 	O 	0.23829	0.1429	0.1305	-0.669
Mof_O 	O 	0.21285	0.4124	0.8962	-1.741
Mof_O 	O 	0.14206	0.0922	0.0551	-1.578
Mof_O 	O 	0.09424	0.1289	0.1562	-0.637
Mof_O 	O 	0.21378	0.4058	0.0716	-1.129
Mof_Al	Al	0.45709	0.7314	0.0877	5.544
Mof_Al	Al	0.63782	0.9847	0.6196	5.939
Mof_Co	Co	0.67556	0.75479	0.89527	1.154
Mof_Co	Co	0.6014	0.73384	0.07219	1.192
Mof_P 	P 	0.67317	0.922	0.7421	1.301
Mof_P 	P 	0.71249	0.84468	0.9838	0.858
Mof_P 	P 	0.56521	0.8352	0.9961	0.401
Mof_P 	P 	0.60397	0.069	0.7271	1.099
Mof_P 	P 	0.53431	0.93348	0.7321	1.04
Mof_P 	P 	0.63814	0.6551	0.9704	0.769
Mof_P 	P 	0.49252	0.6682	0.9644	0.862
Mof_O 	O 	0.65337	0.7342	0.9703	-0.531
Mof_O 	O 	0.58861	0.0139	0.7794	-0.63
Mof_O 	O 	0.6196	0.7025	0.9797	-0.607
Mof_O 	O 	0.47398	0.707	0.0064	-1.523
Mof_O 	O 	0.65744	0.9743	0.6946	-1.68
Mof_O 	O 	0.69402	0.7849	0.9888	-0.579
Mof_O 	O 	0.72951	0.7795	0.9781	-0.599
Mof_O 	O 	0.54529	0.7934	0.9787	-0.48
Mof_O 	O 	0.57821	0.7483	0.0047	-0.331
Mof_O 	O 	0.50576	0.7483	0.9436	-0.561
Mof_O 	O 	0.54775	0.003	0.7753	-0.584
Mof_O 	O 	0.63794	0.5978	0.8802	-0.594
Mof_O 	O 	0.52115	0.9959	0.675	-1.236
Mof_O 	O 	0.66602	0.8597	0.8219	-0.704
Mof_O 	O 	0.57109	0.8994	0.9191	-0.514
Mof_O 	O 	0.68497	0.8621	0.6757	-1.465
Mof_O 	O 	0.43569	0.7427	0.0316	-1.436
Mof_O 	O 	0.61734	0.9954	0.682	-1.675
Mof_O 	O 	0.68604	0.6471	0.8354	-0.621
Mof_O 	O 	0.52519	0.8716	0.8043	-0.642
Mof_O 	O 	0.63599	0.8833	0.5474	-1.807
Mof_O 	O 	0.45353	0.6331	0.167	-1.495
Mof_O 	O 	0.5029	0.6085	0.042	-1.251
Mof_O 	O 	0.73829	0.6429	0.1305	-0.655
Mof_O 	O 	0.71285	0.9124	0.8962	-1.651
Mof_O 	O 	0.64206	0.5922	0.0551	-1.487
Mof_O 	O 	0.59424	0.6289	0.1562	-0.627
Mof_O 	O 	0.71378	0.9058	0.0716	-1.037
Mof_Al	Al	0.45709	0.2314	0.5877	5.535
Mof_Al	Al	0.63782	0.4847	0.1196	5.695
Mof_Co	Co	0.67556	0.25479	0.39527	1.156
Mof_Co	Co	0.6014	0.23384	0.57219	1.158
Mof_P 	P 	0.67317	0.422	0.2421	1.259
Mof_P 	P 	0.71249	0.34468	0.4838	0.982
Mof_P 	P 	0.56521	0.3352	0.4961	0.592
Mof_P 	P 	0.60397	0.569	0.2271	1.147
Mof_P 	P 	0.53431	0.43348	0.2321	1.007
Mof_P 	P 	0.63814	0.1551	0.4704	0.875
Mof_P 	P 	0.49252	0.1682	0.4644	1.021
Mof_O 	O 	0.65337	0.2342	0.4703	-0.512
Mof_O 	O 	0.58861	0.5139	0.2794	-0.598
Mof_O 	O 	0.6196	0.2025	0.4797	-0.56
Mof_O 	O 	0.47398	0.207	0.5064	-1.636
Mof_O 	O 	0.65744	0.4743	0.1946	-1.634
Mof_O 	O 	0.69402	0.2849	0.4888	-0.56
Mof_O 	O 	0.72951	0.2795	0.4781	-0.565
Mof_O 	O 	0.54529	0.2934	0.4787	-0.464
Mof_O 	O 	0.57821	0.2483	0.5047	-0.47
Mof_O 	O 	0.50576	0.2483	0.4436	-0.551
Mof_O 	O 	0.54775	0.503	0.2753	-0.512
Mof_O 	O 	0.63794	0.0978	0.3802	-0.624
Mof_O 	O 	0.52115	0.4959	0.175	-1.351
Mof_O 	O 	0.66602	0.3597	0.3219	-0.7
Mof_O 	O 	0.57109	0.3994	0.4191	-0.548
Mof_O 	O 	0.68497	0.3621	0.1757	-1.448
Mof_O 	O 	0.43569	0.2427	0.5316	-1.548
Mof_O 	O 	0.61734	0.4954	0.182	-1.662
Mof_O 	O 	0.68604	0.1471	0.3354	-0.612
Mof_O 	O 	0.52519	0.3716	0.3043	-0.646
Mof_O 	O 	0.63599	0.3833	0.0474	-1.651
Mof_O 	O 	0.45353	0.1331	0.667	-1.508
Mof_O 	O 	0.5029	0.1085	0.542	-1.289
Mof_O 	O 	0.73829	0.1429	0.6305	-0.701
Mof_O 	O 	0.71285	0.4124	0.3962	-1.759
Mof_O 	O 	0.64206	0.0922	0.5551	-1.677
Mof_O 	O 	0.59424	0.1289	0.6562	-0.652
Mof_O 	O 	0.71378	0.4058	0.5716	-1.226
Mof_Co	Co	2.3749e-34	0.5	0.31404	1.166
Mof_Co	Co	-1.19036e-33	-7.22388e-33	0.81404	1.124
Mof_Co	Co	0.5	0.5	0.81404	1.154
Mof_Co	Co	0.5	0	0.31404	1.134
Mof_Co	Co	0.25	0.75	0.56404	1.138
Mof_Co	Co	0.25	0.25	0.06404	1.183
Mof_Co	Co	0.75	0.75	0.06404	1.188
Mof_Co	Co	0.75	0.25	0.56404	1.133
Mof_Al	Al	0.25	0.75	0.8591	4.887
Mof_Al	Al	0.25	0.25	0.3591	4.996
Mof_Al	Al	0.75	0.25	0.8591	4.855
Mof_Al	Al	0.75	0.75	0.3591	5.03
Mof_Al	Al	0.5	0.5	0.1091	4.579
Mof_Al	Al	0.5	0	0.6091	4.175
Mof_Al	Al	-1.4324e-34	0	0.1091	4.169
Mof_Al	Al	-4.42358e-34	0.5	0.6091	4.58
_end
