data_functionalizedCrystal
_audit_creation_method	'EQeq! by Chris Wilmer'
_symmetry_space_group_name_H-M	'P1'
_symmetry_Int_Tables_number	1
_symmetry_cell_setting	triclinic
loop_
_symmetry_equiv_pos_as_xyz
  x,y,z
_cell_length_a	24.5621
_cell_length_b	24.5621
_cell_length_c	24.5621
_cell_angle_alpha	60
_cell_angle_beta	60
_cell_angle_gamma	60
loop_
_atom_site_label
_atom_site_type_symbol
_atom_site_fract_x
_atom_site_fract_y
_atom_site_fract_z
_atom_site_charge
Mof_Zn	Zn	0.75527	0.41491	0.41491	1.186
Mof_Zn	Zn	0.3564	0.3564	0.9308	1.192
Mof_Zn	Zn	0.3564	0.3564	0.3564	1.192
Mof_Zn	Zn	0.41492	0.41491	0.41491	1.186
Mof_Zn	Zn	0.3564	0.9308	0.3564	1.192
Mof_Zn	Zn	0.41492	0.41491	0.75526	1.186
Mof_Zn	Zn	0.9308	0.3564	0.3564	1.192
Mof_Zn	Zn	0.41492	0.75526	0.41491	1.186
Mof_H 	H 	0.0344	0.7602	0.491	-0.02
Mof_H 	H 	0.5012	0.937	0.7636	0.095
Mof_H 	H 	0.9405	0.3551	0.0105	-0.006
Mof_H 	H 	0.7602	0.491	0.0344	-0.02
Mof_H 	H 	0.7465	0.6625	0.4505	0.112
Mof_H 	H 	0.9453	0.3751	0.0833	0.111
Mof_H 	H 	0.3645	0.1831	0.9421	-0.027
Mof_H 	H 	0.7806	0.9438	0.9124	0.108
Mof_H 	H 	0.3632	0.9438	0.7806	0.107
Mof_H 	H 	0.7438	0.2404	0.5762	-0.041
Mof_H 	H 	0.7982	0.5012	0.7636	0.095
Mof_H 	H 	0.9421	0.1831	0.5103	-0.027
Mof_H 	H 	0.5012	0.7982	0.937	0.095
Mof_H 	H 	0.6625	0.4505	0.7465	0.112
Mof_H 	H 	0.1831	0.5103	0.9421	-0.028
Mof_H 	H 	0.491	0.0344	0.7602	-0.021
Mof_H 	H 	0.1831	0.3645	0.5103	-0.027
Mof_H 	H 	0.7636	0.5012	0.937	0.094
Mof_H 	H 	0.3645	0.5103	0.1831	-0.027
Mof_H 	H 	0.5103	0.1831	0.3645	-0.027
Mof_H 	H 	0.7465	0.4505	0.1405	0.111
Mof_H 	H 	0.1405	0.4505	0.6625	0.111
Mof_H 	H 	0.9421	0.5103	0.3645	-0.027
Mof_H 	H 	0.0344	0.491	0.7144	-0.021
Mof_H 	H 	0.3645	0.9421	0.5103	-0.027
Mof_H 	H 	0.937	0.5012	0.7982	0.094
Mof_H 	H 	0.7982	0.937	0.5012	0.094
Mof_H 	H 	0.5963	0.3751	0.9453	0.11
Mof_H 	H 	0.3632	0.9124	0.9438	0.106
Mof_H 	H 	0.7144	0.491	0.7602	-0.021
Mof_H 	H 	0.5103	0.3645	0.9421	-0.027
Mof_H 	H 	0.7602	0.0344	0.7144	-0.021
Mof_H 	H 	0.9124	0.3632	0.7806	0.106
Mof_H 	H 	0.5012	0.7636	0.7982	0.094
Mof_H 	H 	0.4505	0.6625	0.1405	0.111
Mof_H 	H 	0.7144	0.7602	0.0344	-0.021
Mof_H 	H 	0.1405	0.6625	0.7465	0.111
Mof_H 	H 	0.3632	0.7806	0.9124	0.106
Mof_H 	H 	0.9421	0.3645	0.1831	-0.028
Mof_H 	H 	0.7438	0.5762	0.4396	-0.042
Mof_H 	H 	0.9438	0.9124	0.7806	0.107
Mof_H 	H 	0.0105	0.6939	0.9405	-0.007
Mof_H 	H 	0.4396	0.5762	0.2404	-0.042
Mof_H 	H 	0.6939	0.3551	0.9405	-0.007
Mof_H 	H 	0.9438	0.3632	0.9124	0.106
Mof_H 	H 	0.7982	0.7636	0.937	0.094
Mof_H 	H 	0.0833	0.9453	0.3751	0.11
Mof_H 	H 	0.7465	0.1405	0.6625	0.111
Mof_H 	H 	0.7636	0.937	0.7982	0.094
Mof_H 	H 	0.7806	0.3632	0.9438	0.106
Mof_H 	H 	0.5963	0.0833	0.3751	0.11
Mof_H 	H 	0.3551	0.9405	0.6939	-0.007
Mof_H 	H 	0.7438	0.4396	0.2404	-0.042
Mof_H 	H 	0.491	0.7144	0.0344	-0.021
Mof_H 	H 	0.3751	0.0833	0.9453	0.11
Mof_H 	H 	0.0105	0.9405	0.3551	-0.007
Mof_H 	H 	0.7806	0.9124	0.3632	0.106
Mof_H 	H 	0.5762	0.2404	0.4396	-0.042
Mof_H 	H 	0.2404	0.4396	0.5762	-0.042
Mof_H 	H 	0.7144	0.0344	0.491	-0.021
Mof_H 	H 	0.1831	0.9421	0.3645	-0.028
Mof_H 	H 	0.7602	0.7144	0.491	-0.021
Mof_H 	H 	0.3551	0.6939	0.0105	-0.007
Mof_H 	H 	0.4396	0.7438	0.5762	-0.042
Mof_H 	H 	0.2404	0.7438	0.4396	-0.042
Mof_H 	H 	0.3551	0.0105	0.9405	-0.007
Mof_H 	H 	0.2404	0.5762	0.7438	-0.042
Mof_H 	H 	0.0833	0.3751	0.5963	0.11
Mof_H 	H 	0.937	0.7982	0.7636	0.094
Mof_H 	H 	0.5762	0.7438	0.2404	-0.042
Mof_H 	H 	0.6625	0.1405	0.4505	0.111
Mof_H 	H 	0.9453	0.5963	0.3751	0.11
Mof_H 	H 	0.1405	0.7465	0.4505	0.111
Mof_H 	H 	0.5963	0.9453	0.0833	0.11
Mof_H 	H 	0.6939	0.9405	0.0105	-0.007
Mof_H 	H 	0.4505	0.7465	0.6625	0.111
Mof_H 	H 	0.9438	0.7806	0.3632	0.106
Mof_H 	H 	0.0105	0.3551	0.6939	-0.007
Mof_H 	H 	0.6939	0.0105	0.3551	-0.007
Mof_H 	H 	0.0344	0.7144	0.7602	-0.021
Mof_H 	H 	0.9124	0.7806	0.9438	0.107
Mof_H 	H 	0.3751	0.5963	0.0833	0.11
Mof_H 	H 	0.4505	0.1405	0.7465	0.111
Mof_H 	H 	0.0833	0.5963	0.9453	0.11
Mof_H 	H 	0.3751	0.9453	0.5963	0.11
Mof_H 	H 	0.4396	0.2404	0.7438	-0.042
Mof_H 	H 	0.937	0.7636	0.5012	0.094
Mof_H 	H 	0.5762	0.4396	0.7438	-0.042
Mof_H 	H 	0.6625	0.7465	0.1405	0.111
Mof_H 	H 	0.9405	0.0105	0.6939	-0.007
Mof_H 	H 	0.5103	0.9421	0.1831	-0.028
Mof_H 	H 	0.7636	0.7982	0.5012	0.094
Mof_H 	H 	0.491	0.7602	0.7144	-0.021
Mof_H 	H 	0.9453	0.0833	0.5963	0.11
Mof_H 	H 	0.9124	0.9438	0.3632	0.106
Mof_H 	H 	0.9405	0.6939	0.3551	-0.007
Mof_C 	C 	0.59326	0.11514	0.38746	-0.239
Mof_C 	C 	0.7161	0.3837	0.9037	0.087
Mof_C 	C 	0.7992	0.9524	0.7782	-0.22
Mof_C 	C 	0.90414	0.38746	0.11514	-0.239
Mof_C 	C 	0.79756	0.46404	0.01056	0.098
Mof_C 	C 	0.9375	0.7677	0.9061	-0.214
Mof_C 	C 	0.4311	0.9151	0.8531	0.18
Mof_C 	C 	0.84129	0.22273	0.53567	-0.259
Mof_C 	C 	0.64063	0.10097	0.41131	0.177
Mof_C 	C 	0.14899	0.43231	0.63261	-0.244
Mof_C 	C 	0.9037	0.3837	0.9965	0.088
Mof_C 	C 	0.84772	0.0366	0.6954	-0.138
Mof_C 	C 	0.42596	0.78458	0.5805	0.183
Mof_C 	C 	0.3887	0.7677	0.9375	-0.213
Mof_C 	C 	0.8007	0.8531	0.9151	0.18
Mof_C 	C 	0.3813	0.1747	0.9027	0.168
Mof_C 	C 	0.63261	0.14899	0.43231	-0.244
Mof_C 	C 	0.46404	0.01056	0.79756	0.098
Mof_C 	C 	0.8531	0.4311	0.9151	0.18
Mof_C 	C 	0.84129	0.53567	0.40031	-0.259
Mof_C 	C 	0.5413	0.1747	0.3813	0.168
Mof_C 	C 	0.64063	0.84709	0.10097	0.177
Mof_C 	C 	0.9965	0.3837	0.7161	0.087
Mof_C 	C 	0.90414	0.59326	0.38746	-0.239
Mof_C 	C 	0.84772	0.6954	0.42028	-0.137
Mof_C 	C 	0.53567	0.40031	0.84129	-0.259
Mof_C 	C 	0.11514	0.38746	0.59326	-0.239
Mof_C 	C 	0.20896	0.5805	0.78458	0.184
Mof_C 	C 	0.7161	0.9037	0.9965	0.089
Mof_C 	C 	0.38746	0.59326	0.11514	-0.239
Mof_C 	C 	0.83999	0.28763	0.48017	0.524
Mof_C 	C 	0.46404	0.72784	0.01056	0.098
Mof_C 	C 	0.0366	0.84772	0.42028	-0.137
Mof_C 	C 	0.39221	0.48017	0.28763	0.524
Mof_C 	C 	0.84772	0.42028	0.0366	-0.137
Mof_C 	C 	0.79756	0.01056	0.72784	0.098
Mof_C 	C 	0.78458	0.42596	0.20896	0.184
Mof_C 	C 	0.7992	0.7782	0.4702	-0.22
Mof_C 	C 	0.9061	0.7677	0.3887	-0.213
Mof_C 	C 	0.59326	0.38746	0.90414	-0.239
Mof_C 	C 	0.48017	0.83999	0.28763	0.524
Mof_C 	C 	0.3813	0.9027	0.5413	0.168
Mof_C 	C 	0.38746	0.90414	0.59326	-0.239
Mof_C 	C 	0.22273	0.84129	0.40031	-0.259
Mof_C 	C 	0.4702	0.7992	0.7782	-0.22
Mof_C 	C 	0.28763	0.48017	0.83999	0.524
Mof_C 	C 	0.6954	0.42028	0.84772	-0.137
Mof_C 	C 	0.53567	0.84129	0.22273	-0.259
Mof_C 	C 	0.84709	0.10097	0.64063	0.177
Mof_C 	C 	0.78609	0.63261	0.43231	-0.244
Mof_C 	C 	0.90414	0.11514	0.59326	-0.239
Mof_C 	C 	0.43231	0.14899	0.78609	-0.244
Mof_C 	C 	0.63261	0.78609	0.14899	-0.244
Mof_C 	C 	0.78609	0.43231	0.14899	-0.244
Mof_C 	C 	0.20896	0.78458	0.42596	0.184
Mof_C 	C 	0.9151	0.8007	0.8531	0.18
Mof_C 	C 	0.7677	0.3887	0.9061	-0.213
Mof_C 	C 	0.40031	0.22273	0.84129	-0.259
Mof_C 	C 	0.3887	0.9061	0.7677	-0.213
Mof_C 	C 	0.41131	0.64063	0.10097	0.177
Mof_C 	C 	0.9375	0.3887	0.7677	-0.213
Mof_C 	C 	0.14899	0.63261	0.78609	-0.244
Mof_C 	C 	0.8007	0.4311	0.8531	0.179
Mof_C 	C 	0.7782	0.9524	0.4702	-0.219
Mof_C 	C 	0.84129	0.40031	0.22273	-0.259
Mof_C 	C 	0.0366	0.6954	0.84772	-0.138
Mof_C 	C 	0.72784	0.79756	0.01056	0.098
Mof_C 	C 	0.53567	0.22273	0.40031	-0.259
Mof_C 	C 	0.7161	0.9965	0.3837	0.087
Mof_C 	C 	0.3837	0.9965	0.9037	0.088
Mof_C 	C 	0.01056	0.46404	0.72784	0.098
Mof_C 	C 	0.42028	0.6954	0.0366	-0.137
Mof_C 	C 	0.5413	0.9027	0.1747	0.168
Mof_C 	C 	0.8007	0.9151	0.4311	0.179
Mof_C 	C 	0.72784	0.46404	0.79756	0.098
Mof_C 	C 	0.48017	0.39221	0.83999	0.524
Mof_C 	C 	0.72784	0.01056	0.46404	0.098
Mof_C 	C 	0.78458	0.20896	0.5805	0.184
Mof_C 	C 	0.83999	0.48017	0.39221	0.524
Mof_C 	C 	0.42596	0.5805	0.20896	0.183
Mof_C 	C 	0.64063	0.41131	0.84709	0.177
Mof_C 	C 	0.9027	0.5413	0.3813	0.168
Mof_C 	C 	0.5805	0.42596	0.78458	0.184
Mof_C 	C 	0.79756	0.72784	0.46404	0.098
Mof_C 	C 	0.9524	0.4702	0.7782	-0.219
Mof_C 	C 	0.3887	0.9375	0.9061	-0.213
Mof_C 	C 	0.10097	0.41131	0.64063	0.176
Mof_C 	C 	0.83999	0.39221	0.28763	0.524
Mof_C 	C 	0.22273	0.40031	0.53567	-0.259
Mof_C 	C 	0.28763	0.83999	0.39221	0.524
Mof_C 	C 	0.78458	0.5805	0.42596	0.183
Mof_C 	C 	0.9027	0.3813	0.1747	0.168
Mof_C 	C 	0.40031	0.53567	0.22273	-0.259
Mof_C 	C 	0.8531	0.8007	0.4311	0.179
Mof_C 	C 	0.3837	0.9037	0.7161	0.087
Mof_C 	C 	0.9965	0.9037	0.3837	0.088
Mof_C 	C 	0.9151	0.4311	0.8007	0.179
Mof_C 	C 	0.8531	0.9151	0.8007	0.18
Mof_C 	C 	0.78609	0.14899	0.63261	-0.244
Mof_C 	C 	0.1747	0.3813	0.5413	0.168
Mof_C 	C 	0.7677	0.9061	0.9375	-0.214
Mof_C 	C 	0.7782	0.7992	0.9524	-0.22
Mof_C 	C 	0.22273	0.53567	0.84129	-0.259
Mof_C 	C 	0.14899	0.78609	0.43231	-0.244
Mof_C 	C 	0.7992	0.4702	0.9524	-0.22
Mof_C 	C 	0.48017	0.28763	0.39221	0.524
Mof_C 	C 	0.84709	0.41131	0.10097	0.177
Mof_C 	C 	0.9965	0.7161	0.9037	0.089
Mof_C 	C 	0.84709	0.64063	0.41131	0.177
Mof_C 	C 	0.41131	0.84709	0.64063	0.177
Mof_C 	C 	0.46404	0.79756	0.72784	0.098
Mof_C 	C 	0.01056	0.79756	0.46404	0.098
Mof_C 	C 	0.9061	0.9375	0.7677	-0.214
Mof_C 	C 	0.4311	0.8007	0.9151	0.179
Mof_C 	C 	0.6954	0.84772	0.0366	-0.138
Mof_C 	C 	0.9524	0.7992	0.4702	-0.22
Mof_C 	C 	0.39221	0.28763	0.83999	0.524
Mof_C 	C 	0.9524	0.7782	0.7992	-0.22
Mof_C 	C 	0.3837	0.7161	0.9965	0.087
Mof_C 	C 	0.1747	0.9027	0.3813	0.168
Mof_C 	C 	0.3813	0.5413	0.1747	0.168
Mof_C 	C 	0.40031	0.84129	0.53567	-0.259
Mof_C 	C 	0.9375	0.9061	0.3887	-0.213
Mof_C 	C 	0.0366	0.42028	0.6954	-0.137
Mof_C 	C 	0.59326	0.90414	0.11514	-0.239
Mof_C 	C 	0.28763	0.39221	0.48017	0.523
Mof_C 	C 	0.20896	0.42596	0.5805	0.183
Mof_C 	C 	0.11514	0.90414	0.38746	-0.239
Mof_C 	C 	0.43231	0.63261	0.14899	-0.244
Mof_C 	C 	0.39221	0.83999	0.48017	0.524
Mof_C 	C 	0.42028	0.0366	0.84772	-0.137
Mof_C 	C 	0.9027	0.1747	0.5413	0.168
Mof_C 	C 	0.5805	0.20896	0.42596	0.183
Mof_C 	C 	0.43231	0.78609	0.63261	-0.244
Mof_C 	C 	0.42028	0.84772	0.6954	-0.137
Mof_C 	C 	0.42596	0.20896	0.78458	0.184
Mof_C 	C 	0.5413	0.3813	0.9027	0.168
Mof_C 	C 	0.7677	0.9375	0.3887	-0.213
Mof_C 	C 	0.1747	0.5413	0.9027	0.168
Mof_C 	C 	0.41131	0.10097	0.84709	0.177
Mof_C 	C 	0.11514	0.59326	0.90414	-0.239
Mof_C 	C 	0.9037	0.7161	0.3837	0.087
Mof_C 	C 	0.9037	0.9965	0.7161	0.089
Mof_C 	C 	0.4311	0.8531	0.8007	0.179
Mof_C 	C 	0.10097	0.84709	0.41131	0.177
Mof_C 	C 	0.9061	0.3887	0.9375	-0.213
Mof_C 	C 	0.7782	0.4702	0.7992	-0.22
Mof_C 	C 	0.01056	0.72784	0.79756	0.098
Mof_C 	C 	0.5805	0.78458	0.20896	0.184
Mof_C 	C 	0.6954	0.0366	0.42028	-0.137
Mof_C 	C 	0.63261	0.43231	0.78609	-0.244
Mof_C 	C 	0.4702	0.9524	0.7992	-0.22
Mof_C 	C 	0.4702	0.7782	0.9524	-0.219
Mof_C 	C 	0.10097	0.64063	0.84709	0.177
Mof_C 	C 	0.38746	0.11514	0.90414	-0.239
Mof_C 	C 	0.9151	0.8531	0.4311	0.18
Mof_N 	N 	0.854	0.854	0.854	-0.202
Mof_N 	N 	0.854	0.438	0.854	-0.201
Mof_N 	N 	0.438	0.854	0.854	-0.201
Mof_N 	N 	0.854	0.854	0.438	-0.201
Mof_O 	O 	0.37023	0.89357	0.44163	-0.578
Mof_O 	O 	0.78335	0.32751	0.47779	-0.577
Mof_O 	O 	0.29457	0.89357	0.37023	-0.578
Mof_O 	O 	0.89357	0.29457	0.44163	-0.578
Mof_O 	O 	0.32751	0.78335	0.41135	-0.577
Mof_O 	O 	0.78335	0.47779	0.41135	-0.577
Mof_O 	O 	0.47779	0.41135	0.78335	-0.577
Mof_O 	O 	0.78335	0.41135	0.32751	-0.577
Mof_O 	O 	0.41135	0.47779	0.32751	-0.577
Mof_O 	O 	0.37023	0.44163	0.29457	-0.578
Mof_O 	O 	0.29457	0.44163	0.89357	-0.578
Mof_O 	O 	0.89357	0.37023	0.29457	-0.578
Mof_O 	O 	0.89357	0.44163	0.37023	-0.578
Mof_O 	O 	0.44163	0.37023	0.89357	-0.578
Mof_O 	O 	0.41135	0.32751	0.78335	-0.577
Mof_O 	O 	0.44163	0.89357	0.29457	-0.578
Mof_O 	O 	0.37023	0.29457	0.89357	-0.578
Mof_O 	O 	0.41135	0.78335	0.47779	-0.577
Mof_O 	O 	0.47779	0.78335	0.32751	-0.577
Mof_O 	O 	0.32751	0.47779	0.78335	-0.577
Mof_O 	O 	0.32751	0.41135	0.47779	-0.577
Mof_O 	O 	0.44163	0.29457	0.37023	-0.578
Mof_O 	O 	0.29457	0.37023	0.44163	-0.578
Mof_O 	O 	0.47779	0.32751	0.41135	-0.577
Mof_Zn	Zn	0.58508	0.58509	0.58509	1.185
Mof_Zn	Zn	0.6436	0.0692	0.6436	1.191
Mof_Zn	Zn	0.6436	0.6436	0.0692	1.191
Mof_Zn	Zn	0.58508	0.24474	0.58509	1.185
Mof_Zn	Zn	0.58508	0.58509	0.24474	1.185
Mof_Zn	Zn	0.6436	0.6436	0.6436	1.191
Mof_Zn	Zn	0.24473	0.58509	0.58509	1.185
Mof_Zn	Zn	0.0692	0.6436	0.6436	1.191
Mof_H 	H 	0.6368	0.0876	0.2194	0.106
Mof_H 	H 	0.8595	0.3375	0.5495	0.111
Mof_H 	H 	0.9656	0.2856	0.509	-0.021
Mof_H 	H 	0.2562	0.5604	0.4238	-0.042
Mof_H 	H 	0.4037	0.0547	0.6249	0.11
Mof_H 	H 	0.063	0.2018	0.4988	0.094
Mof_H 	H 	0.9167	0.0547	0.4037	0.11
Mof_H 	H 	0.9656	0.2398	0.2856	-0.021
Mof_H 	H 	0.0547	0.9167	0.6249	0.11
Mof_H 	H 	0.2364	0.063	0.4988	0.094
Mof_H 	H 	0.0876	0.0562	0.2194	0.107
Mof_H 	H 	0.0876	0.2194	0.6368	0.106
Mof_H 	H 	0.2535	0.5495	0.3375	0.111
Mof_H 	H 	0.5604	0.2562	0.7596	-0.042
Mof_H 	H 	0.9167	0.6249	0.0547	0.11
Mof_H 	H 	0.9895	0.6449	0.0595	-0.007
Mof_H 	H 	0.2535	0.3375	0.8595	0.111
Mof_H 	H 	0.0562	0.0876	0.6368	0.106
Mof_H 	H 	0.2856	0.509	0.9656	-0.021
Mof_H 	H 	0.4897	0.6355	0.8169	-0.027
Mof_H 	H 	0.6368	0.2194	0.0562	0.106
Mof_H 	H 	0.3061	0.6449	0.9895	-0.007
Mof_H 	H 	0.7596	0.5604	0.2562	-0.042
Mof_H 	H 	0.3375	0.5495	0.8595	0.111
Mof_H 	H 	0.8595	0.2535	0.3375	0.111
Mof_H 	H 	0.4037	0.6249	0.9167	0.11
Mof_H 	H 	0.7596	0.4238	0.5604	-0.042
Mof_H 	H 	0.6355	0.8169	0.4897	-0.027
Mof_H 	H 	0.2018	0.2364	0.4988	0.094
Mof_H 	H 	0.509	0.2856	0.2398	-0.021
Mof_H 	H 	0.6449	0.0595	0.9895	-0.007
Mof_H 	H 	0.4238	0.5604	0.7596	-0.042
Mof_H 	H 	0.4988	0.063	0.2018	0.094
Mof_H 	H 	0.5604	0.4238	0.2562	-0.042
Mof_H 	H 	0.6249	0.9167	0.4037	0.11
Mof_H 	H 	0.0562	0.6368	0.2194	0.106
Mof_H 	H 	0.7596	0.2562	0.4238	-0.042
Mof_H 	H 	0.0579	0.8169	0.6355	-0.028
Mof_H 	H 	0.2856	0.2398	0.509	-0.021
Mof_H 	H 	0.0547	0.6249	0.4037	0.11
Mof_H 	H 	0.2018	0.4988	0.063	0.094
Mof_H 	H 	0.0876	0.6368	0.0562	0.106
Mof_H 	H 	0.3061	0.0595	0.6449	-0.007
Mof_H 	H 	0.3375	0.2535	0.5495	0.111
Mof_H 	H 	0.2018	0.063	0.2364	0.094
Mof_H 	H 	0.6249	0.0547	0.9167	0.11
Mof_H 	H 	0.063	0.2364	0.2018	0.094
Mof_H 	H 	0.5495	0.8595	0.3375	0.111
Mof_H 	H 	0.2194	0.0876	0.0562	0.107
Mof_H 	H 	0.4238	0.2562	0.5604	-0.042
Mof_H 	H 	0.5604	0.7596	0.4238	-0.042
Mof_H 	H 	0.0562	0.2194	0.0876	0.107
Mof_H 	H 	0.5495	0.2535	0.8595	0.111
Mof_H 	H 	0.6449	0.3061	0.0595	-0.007
Mof_H 	H 	0.509	0.2398	0.9656	-0.021
Mof_H 	H 	0.2194	0.6368	0.0876	0.106
Mof_H 	H 	0.2364	0.4988	0.2018	0.094
Mof_H 	H 	0.6249	0.4037	0.0547	0.11
Mof_H 	H 	0.4037	0.9167	0.0547	0.11
Mof_H 	H 	0.2398	0.2856	0.9656	-0.021
Mof_H 	H 	0.4988	0.2364	0.063	0.094
Mof_H 	H 	0.0595	0.3061	0.9895	-0.007
Mof_H 	H 	0.9895	0.3061	0.6449	-0.007
Mof_H 	H 	0.9167	0.4037	0.6249	0.11
Mof_H 	H 	0.8169	0.0579	0.4897	-0.028
Mof_H 	H 	0.2194	0.0562	0.6368	0.106
Mof_H 	H 	0.2398	0.9656	0.509	-0.021
Mof_H 	H 	0.509	0.9656	0.2856	-0.021
Mof_H 	H 	0.9895	0.0595	0.3061	-0.007
Mof_H 	H 	0.2364	0.2018	0.063	0.094
Mof_H 	H 	0.5495	0.3375	0.2535	0.111
Mof_H 	H 	0.6355	0.4897	0.0579	-0.027
Mof_H 	H 	0.0579	0.4897	0.8169	-0.028
Mof_H 	H 	0.2562	0.7596	0.5604	-0.042
Mof_H 	H 	0.4238	0.7596	0.2562	-0.042
Mof_H 	H 	0.8169	0.4897	0.6355	-0.027
Mof_H 	H 	0.4897	0.8169	0.0579	-0.028
Mof_H 	H 	0.8595	0.5495	0.2535	0.111
Mof_H 	H 	0.2535	0.8595	0.5495	0.111
Mof_H 	H 	0.6449	0.9895	0.3061	-0.007
Mof_H 	H 	0.2398	0.509	0.2856	-0.021
Mof_H 	H 	0.4897	0.0579	0.6355	-0.027
Mof_H 	H 	0.0547	0.4037	0.9167	0.11
Mof_H 	H 	0.9656	0.509	0.2398	-0.021
Mof_H 	H 	0.063	0.4988	0.2364	0.094
Mof_H 	H 	0.2562	0.4238	0.7596	-0.042
Mof_H 	H 	0.2856	0.9656	0.2398	-0.021
Mof_H 	H 	0.3375	0.8595	0.2535	0.111
Mof_H 	H 	0.0595	0.6449	0.3061	-0.007
Mof_H 	H 	0.3061	0.9895	0.0595	-0.007
Mof_H 	H 	0.6368	0.0562	0.0876	0.106
Mof_H 	H 	0.8169	0.6355	0.0579	-0.028
Mof_H 	H 	0.0579	0.6355	0.4897	-0.027
Mof_H 	H 	0.0595	0.9895	0.6449	-0.007
Mof_H 	H 	0.4988	0.2018	0.2364	0.094
Mof_H 	H 	0.6355	0.0579	0.8169	-0.028
Mof_C 	C 	0.4587	0.6187	0.8253	0.168
Mof_C 	C 	0.0849	0.1993	0.5689	0.179
Mof_C 	C 	0.21391	0.36739	0.85101	-0.244
Mof_C 	C 	0.2218	0.2008	0.5298	-0.22
Mof_C 	C 	0.0963	0.2839	0.0035	0.089
Mof_C 	C 	0.4195	0.21542	0.57404	0.184
Mof_C 	C 	0.2839	0.0035	0.0963	0.089
Mof_C 	C 	0.51983	0.71237	0.16001	0.524
Mof_C 	C 	0.6113	0.2323	0.0939	-0.213
Mof_C 	C 	0.79104	0.4195	0.57404	0.183
Mof_C 	C 	0.77727	0.59969	0.15871	-0.259
Mof_C 	C 	0.0849	0.1469	0.1993	0.18
Mof_C 	C 	0.0476	0.2008	0.2218	-0.22
Mof_C 	C 	0.53596	0.20244	0.98944	0.098
Mof_C 	C 	0.58869	0.15291	0.89903	0.177
Mof_C 	C 	0.0939	0.0625	0.6113	-0.213
Mof_C 	C 	0.3046	0.57972	0.9634	-0.137
Mof_C 	C 	0.2323	0.0939	0.6113	-0.213
Mof_C 	C 	0.27216	0.20244	0.53596	0.098
Mof_C 	C 	0.2839	0.0963	0.6163	0.087
Mof_C 	C 	0.61254	0.09586	0.88486	-0.239
Mof_C 	C 	0.89903	0.58869	0.15291	0.177
Mof_C 	C 	0.60779	0.51983	0.16001	0.524
Mof_C 	C 	0.77727	0.46433	0.59969	-0.259
Mof_C 	C 	0.15871	0.77727	0.59969	-0.259
Mof_C 	C 	0.56769	0.21391	0.85101	-0.244
Mof_C 	C 	0.0963	0.0035	0.6163	0.088
Mof_C 	C 	0.8253	0.6187	0.0973	0.168
Mof_C 	C 	0.71237	0.16001	0.51983	0.524
Mof_C 	C 	0.9634	0.15228	0.3046	-0.138
Mof_C 	C 	0.40674	0.61254	0.88486	-0.239
Mof_C 	C 	0.15228	0.9634	0.57972	-0.137
Mof_C 	C 	0.60779	0.16001	0.71237	0.524
Mof_C 	C 	0.46433	0.77727	0.15871	-0.259
Mof_C 	C 	0.4195	0.57404	0.79104	0.183
Mof_C 	C 	0.0963	0.6163	0.2839	0.087
Mof_C 	C 	0.0035	0.6163	0.0963	0.088
Mof_C 	C 	0.3046	0.15228	0.57972	-0.137
Mof_C 	C 	0.6163	0.0035	0.2839	0.087
Mof_C 	C 	0.21391	0.85101	0.56769	-0.244
Mof_C 	C 	0.8253	0.4587	0.6187	0.168
Mof_C 	C 	0.1993	0.0849	0.1469	0.18
Mof_C 	C 	0.59969	0.77727	0.46433	-0.259
Mof_C 	C 	0.61254	0.40674	0.09586	-0.239
Mof_C 	C 	0.2839	0.6163	0.0035	0.087
Mof_C 	C 	0.2218	0.5298	0.0476	-0.219
Mof_C 	C 	0.6187	0.4587	0.0973	0.168
Mof_C 	C 	0.16001	0.71237	0.60779	0.524
Mof_C 	C 	0.2218	0.0476	0.2008	-0.22
Mof_C 	C 	0.20244	0.27216	0.98944	0.098
Mof_C 	C 	0.51983	0.60779	0.71237	0.524
Mof_C 	C 	0.89903	0.35937	0.58869	0.176
Mof_C 	C 	0.36739	0.85101	0.21391	-0.244
Mof_C 	C 	0.0476	0.5298	0.2008	-0.22
Mof_C 	C 	0.35937	0.58869	0.89903	0.177
Mof_C 	C 	0.5689	0.1993	0.1469	0.179
Mof_C 	C 	0.20244	0.98944	0.53596	0.098
Mof_C 	C 	0.59969	0.15871	0.77727	-0.259
Mof_C 	C 	0.35937	0.15291	0.58869	0.177
Mof_C 	C 	0.85101	0.56769	0.21391	-0.244
Mof_C 	C 	0.98944	0.27216	0.53596	0.098
Mof_C 	C 	0.15228	0.57972	0.3046	-0.137
Mof_C 	C 	0.15291	0.58869	0.35937	0.177
Mof_C 	C 	0.46433	0.15871	0.59969	-0.259
Mof_C 	C 	0.0625	0.2323	0.6113	-0.213
Mof_C 	C 	0.98944	0.20244	0.27216	0.098
Mof_C 	C 	0.77727	0.15871	0.46433	-0.259
Mof_C 	C 	0.57972	0.15228	0.9634	-0.137
Mof_C 	C 	0.60779	0.71237	0.51983	0.524
Mof_C 	C 	0.0476	0.2218	0.5298	-0.219
Mof_C 	C 	0.3046	0.9634	0.15228	-0.138
Mof_C 	C 	0.58869	0.89903	0.35937	0.177
Mof_C 	C 	0.4587	0.8253	0.0973	0.168
Mof_C 	C 	0.8253	0.0973	0.4587	0.168
Mof_C 	C 	0.0035	0.2839	0.6163	0.087
Mof_C 	C 	0.09586	0.61254	0.40674	-0.239
Mof_C 	C 	0.1993	0.5689	0.0849	0.179
Mof_C 	C 	0.36739	0.56769	0.85101	-0.244
Mof_C 	C 	0.58869	0.35937	0.15291	0.177
Mof_C 	C 	0.2008	0.2218	0.0476	-0.22
Mof_C 	C 	0.16001	0.60779	0.51983	0.524
Mof_C 	C 	0.20244	0.53596	0.27216	0.098
Mof_C 	C 	0.21542	0.4195	0.79104	0.184
Mof_C 	C 	0.6113	0.0939	0.0625	-0.213
Mof_C 	C 	0.2008	0.0476	0.5298	-0.22
Mof_C 	C 	0.2323	0.6113	0.0625	-0.213
Mof_C 	C 	0.21542	0.57404	0.4195	0.183
Mof_C 	C 	0.57404	0.4195	0.21542	0.183
Mof_C 	C 	0.2008	0.5298	0.2218	-0.22
Mof_C 	C 	0.2323	0.0625	0.0939	-0.214
Mof_C 	C 	0.61254	0.88486	0.40674	-0.239
Mof_C 	C 	0.1469	0.5689	0.1993	0.179
Mof_C 	C 	0.16001	0.51983	0.71237	0.524
Mof_C 	C 	0.15291	0.35937	0.89903	0.177
Mof_C 	C 	0.4587	0.0973	0.6187	0.168
Mof_C 	C 	0.56769	0.85101	0.36739	-0.244
Mof_C 	C 	0.57404	0.21542	0.79104	0.184
Mof_C 	C 	0.36739	0.21391	0.56769	-0.244
Mof_C 	C 	0.0939	0.2323	0.0625	-0.214
Mof_C 	C 	0.21391	0.56769	0.36739	-0.244
Mof_C 	C 	0.40674	0.09586	0.61254	-0.239
Mof_C 	C 	0.0849	0.5689	0.1469	0.18
Mof_C 	C 	0.0625	0.0939	0.2323	-0.214
Mof_C 	C 	0.6187	0.0973	0.8253	0.168
Mof_C 	C 	0.09586	0.40674	0.88486	-0.239
Mof_C 	C 	0.9634	0.3046	0.57972	-0.137
Mof_C 	C 	0.35937	0.89903	0.15291	0.177
Mof_C 	C 	0.40674	0.88486	0.09586	-0.239
Mof_C 	C 	0.88486	0.40674	0.61254	-0.239
Mof_C 	C 	0.0939	0.6113	0.2323	-0.213
Mof_C 	C 	0.5689	0.0849	0.1993	0.179
Mof_C 	C 	0.15871	0.46433	0.77727	-0.259
Mof_C 	C 	0.71237	0.60779	0.16001	0.524
Mof_C 	C 	0.89903	0.15291	0.35937	0.177
Mof_C 	C 	0.9634	0.57972	0.15228	-0.137
Mof_C 	C 	0.46433	0.59969	0.77727	-0.259
Mof_C 	C 	0.4195	0.79104	0.21542	0.184
Mof_C 	C 	0.53596	0.27216	0.20244	0.098
Mof_C 	C 	0.98944	0.53596	0.20244	0.098
Mof_C 	C 	0.6187	0.8253	0.4587	0.168
Mof_C 	C 	0.1993	0.1469	0.5689	0.179
Mof_C 	C 	0.0625	0.6113	0.0939	-0.213
Mof_C 	C 	0.79104	0.57404	0.21542	0.184
Mof_C 	C 	0.15871	0.59969	0.46433	-0.259
Mof_C 	C 	0.27216	0.53596	0.98944	0.098
Mof_C 	C 	0.09586	0.88486	0.61254	-0.239
Mof_C 	C 	0.5689	0.1469	0.0849	0.18
Mof_C 	C 	0.1469	0.1993	0.0849	0.18
Mof_C 	C 	0.15228	0.3046	0.9634	-0.138
Mof_C 	C 	0.88486	0.61254	0.09586	-0.239
Mof_C 	C 	0.0973	0.8253	0.6187	0.168
Mof_C 	C 	0.5298	0.2218	0.2008	-0.22
Mof_C 	C 	0.15291	0.89903	0.58869	0.177
Mof_C 	C 	0.0973	0.6187	0.4587	0.168
Mof_C 	C 	0.85101	0.36739	0.56769	-0.244
Mof_C 	C 	0.88486	0.09586	0.40674	-0.239
Mof_C 	C 	0.0035	0.0963	0.2839	0.089
Mof_C 	C 	0.59969	0.46433	0.15871	-0.259
Mof_C 	C 	0.57972	0.9634	0.3046	-0.137
Mof_C 	C 	0.1469	0.0849	0.5689	0.18
Mof_C 	C 	0.5298	0.0476	0.2218	-0.219
Mof_C 	C 	0.6113	0.0625	0.2323	-0.213
Mof_C 	C 	0.6163	0.2839	0.0963	0.087
Mof_C 	C 	0.56769	0.36739	0.21391	-0.244
Mof_C 	C 	0.71237	0.51983	0.60779	0.523
Mof_C 	C 	0.85101	0.21391	0.36739	-0.244
Mof_C 	C 	0.57972	0.3046	0.15228	-0.137
Mof_C 	C 	0.79104	0.21542	0.4195	0.184
Mof_C 	C 	0.57404	0.79104	0.4195	0.183
Mof_C 	C 	0.53596	0.98944	0.27216	0.098
Mof_C 	C 	0.6163	0.0963	0.0035	0.088
Mof_C 	C 	0.0973	0.4587	0.8253	0.168
Mof_C 	C 	0.5298	0.2008	0.0476	-0.22
Mof_C 	C 	0.27216	0.98944	0.20244	0.098
Mof_C 	C 	0.21542	0.79104	0.57404	0.184
Mof_C 	C 	0.51983	0.16001	0.60779	0.524
Mof_N 	N 	0.146	0.562	0.146	-0.201
Mof_N 	N 	0.146	0.146	0.562	-0.201
Mof_N 	N 	0.146	0.146	0.146	-0.202
Mof_N 	N 	0.562	0.146	0.146	-0.201
Mof_O 	O 	0.70543	0.55837	0.62977	-0.578
Mof_O 	O 	0.10643	0.55837	0.70543	-0.578
Mof_O 	O 	0.67249	0.52221	0.58865	-0.577
Mof_O 	O 	0.55837	0.70543	0.10643	-0.578
Mof_O 	O 	0.70543	0.10643	0.55837	-0.578
Mof_O 	O 	0.55837	0.62977	0.70543	-0.578
Mof_O 	O 	0.52221	0.21665	0.58865	-0.577
Mof_O 	O 	0.70543	0.62977	0.10643	-0.578
Mof_O 	O 	0.67249	0.21665	0.52221	-0.577
Mof_O 	O 	0.10643	0.62977	0.55837	-0.578
Mof_O 	O 	0.21665	0.58865	0.52221	-0.577
Mof_O 	O 	0.21665	0.52221	0.67249	-0.577
Mof_O 	O 	0.67249	0.58865	0.21665	-0.577
Mof_O 	O 	0.62977	0.70543	0.55837	-0.578
Mof_O 	O 	0.21665	0.67249	0.58865	-0.577
Mof_O 	O 	0.62977	0.10643	0.70543	-0.578
Mof_O 	O 	0.58865	0.21665	0.67249	-0.577
Mof_O 	O 	0.58865	0.52221	0.21665	-0.577
Mof_O 	O 	0.58865	0.67249	0.52221	-0.577
Mof_O 	O 	0.55837	0.10643	0.62977	-0.578
Mof_O 	O 	0.52221	0.67249	0.21665	-0.577
Mof_O 	O 	0.62977	0.55837	0.10643	-0.578
Mof_O 	O 	0.52221	0.58865	0.67249	-0.577
Mof_O 	O 	0.10643	0.70543	0.62977	-0.578
_end
