data_functionalizedCrystal
_audit_creation_method	'EQeq! by Chris Wilmer'
_symmetry_space_group_name_H-M	'P1'
_symmetry_Int_Tables_number	1
_symmetry_cell_setting	triclinic
loop_
_symmetry_equiv_pos_as_xyz
  x,y,z
_cell_length_a	14.9359
_cell_length_b	18.1182
_cell_length_c	18.1182
_cell_angle_alpha	80.2185
_cell_angle_beta	65.6582
_cell_angle_gamma	65.6582
loop_
_atom_site_label
_atom_site_type_symbol
_atom_site_fract_x
_atom_site_fract_y
_atom_site_fract_z
_atom_site_charge
Mof_Co	Co	0.53737	0.16923	0.57797	1.105
Mof_Co	Co	0.78457	0.33077	0.92203	1.105
Mof_Co	Co	0.11534	0.42203	0.66923	1.105
Mof_Co	Co	0.7066	0.07797	0.83077	1.104
Mof_Co	Co	0.46263	0.83077	0.42203	1.105
Mof_Co	Co	0.21543	0.66923	0.07797	1.105
Mof_Co	Co	0.88466	0.57797	0.33077	1.104
Mof_Co	Co	0.2934	0.92203	0.16923	1.103
Mof_H 	H 	0.1092	0.3525	0.5039	0.059
Mof_H 	H 	0.9013	0.2473	0.5553	0.091
Mof_H 	H 	0.1293	0.1564	0.6454	0.085
Mof_H 	H 	0.3452	0.1429	0.5525	0.012
Mof_H 	H 	0.3526	0.333	0.6188	-0.048
Mof_H 	H 	0.0341	0.4376	0.4128	0.008
Mof_H 	H 	0.7596	0.4639	0.4173	-0.022
Mof_H 	H 	0.7965	0.1949	0.6943	0.014
Mof_H 	H 	0.9606	0.9785	0.7533	-0.01
Mof_H 	H 	0.4656	0.1475	0.9961	0.058
Mof_H 	H 	0.2039	0.2527	0.9447	0.089
Mof_H 	H 	0.4311	0.3436	0.8546	0.084
Mof_H 	H 	0.5406	0.3571	0.9475	0.012
Mof_H 	H 	0.8044	0.167	0.8812	-0.048
Mof_H 	H 	0.3845	0.0624	0.0872	0.009
Mof_H 	H 	0.1408	0.0361	0.0827	-0.021
Mof_H 	H 	0.1857	0.3051	0.8057	0.015
Mof_H 	H 	0.1924	0.5215	0.7467	-0.015
Mof_H 	H 	0.6131	0.4961	0.8525	0.059
Mof_H 	H 	0.4566	0.4447	0.7473	0.09
Mof_H 	H 	0.7747	0.3546	0.6564	0.084
Mof_H 	H 	0.8977	0.4475	0.6429	0.012
Mof_H 	H 	0.9714	0.3812	0.833	-0.048
Mof_H 	H 	0.4469	0.5872	0.9376	0.008
Mof_H 	H 	0.1769	0.5827	0.9639	-0.022
Mof_H 	H 	0.4908	0.3057	0.6949	0.015
Mof_H 	H 	0.7139	0.2467	0.4785	-0.015
Mof_H 	H 	0.4617	0.0039	0.6475	0.059
Mof_H 	H 	0.1486	0.0553	0.7527	0.091
Mof_H 	H 	0.2857	0.1454	0.8436	0.084
Mof_H 	H 	0.4881	0.0525	0.8571	0.011
Mof_H 	H 	0.6856	0.1188	0.667	-0.048
Mof_H 	H 	0.4717	0.9128	0.5624	0.008
Mof_H 	H 	0.2235	0.9173	0.5361	-0.022
Mof_H 	H 	0.9914	0.1943	0.8051	0.012
Mof_H 	H 	0.9391	0.2533	0.0215	-0.012
Mof_H 	H 	0.8908	0.6475	0.4961	0.059
Mof_H 	H 	0.0987	0.7527	0.4447	0.091
Mof_H 	H 	0.8707	0.8436	0.3546	0.085
Mof_H 	H 	0.6548	0.8571	0.4475	0.012
Mof_H 	H 	0.6474	0.667	0.3812	-0.048
Mof_H 	H 	0.9659	0.5624	0.5872	0.008
Mof_H 	H 	0.2404	0.5361	0.5827	-0.022
Mof_H 	H 	0.2035	0.8051	0.3057	0.014
Mof_H 	H 	0.0394	0.0215	0.2467	-0.01
Mof_H 	H 	0.5344	0.8525	0.0039	0.058
Mof_H 	H 	0.7961	0.7473	0.0553	0.089
Mof_H 	H 	0.5689	0.6564	0.1454	0.084
Mof_H 	H 	0.4594	0.6429	0.0525	0.012
Mof_H 	H 	0.1956	0.833	0.1188	-0.048
Mof_H 	H 	0.6155	0.9376	0.9128	0.009
Mof_H 	H 	0.8592	0.9639	0.9173	-0.021
Mof_H 	H 	0.8143	0.6949	0.1943	0.015
Mof_H 	H 	0.8076	0.4785	0.2533	-0.015
Mof_H 	H 	0.3869	0.5039	0.1475	0.059
Mof_H 	H 	0.5434	0.5553	0.2527	0.09
Mof_H 	H 	0.2253	0.6454	0.3436	0.084
Mof_H 	H 	0.1023	0.5525	0.3571	0.012
Mof_H 	H 	0.0286	0.6188	0.167	-0.048
Mof_H 	H 	0.5531	0.4128	0.0624	0.008
Mof_H 	H 	0.8231	0.4173	0.0361	-0.022
Mof_H 	H 	0.5092	0.6943	0.3051	0.015
Mof_H 	H 	0.2861	0.7533	0.5215	-0.015
Mof_H 	H 	0.5383	0.9961	0.3525	0.059
Mof_H 	H 	0.8514	0.9447	0.2473	0.091
Mof_H 	H 	0.7143	0.8546	0.1564	0.084
Mof_H 	H 	0.5119	0.9475	0.1429	0.011
Mof_H 	H 	0.3144	0.8812	0.333	-0.048
Mof_H 	H 	0.5283	0.0872	0.4376	0.008
Mof_H 	H 	0.7765	0.0827	0.4639	-0.022
Mof_H 	H 	0.0086	0.8057	0.1949	0.012
Mof_H 	H 	0.0609	0.7467	0.9785	-0.012
Mof_C 	C 	0.13409	0.25493	0.57629	0.046
Mof_C 	C 	0.08364	0.31227	0.53025	-0.144
Mof_C 	C 	0.99534	0.31049	0.52283	0.073
Mof_C 	C 	0.95839	0.25012	0.5617	-0.149
Mof_C 	C 	0.00581	0.19357	0.61041	0.075
Mof_C 	C 	0.095	0.19573	0.61527	-0.137
Mof_C 	C 	0.22801	0.25551	0.58367	0.004
Mof_C 	C 	0.32559	0.19506	0.56916	0.001
Mof_C 	C 	0.3287	0.2991	0.6055	0.084
Mof_C 	C 	0.94261	0.3724	0.47458	0.012
Mof_C 	C 	0.9713	0.43034	0.42506	-0.012
Mof_C 	C 	0.8214	0.4449	0.4277	0.098
Mof_C 	C 	0.95721	0.13661	0.66017	0.012
Mof_C 	C 	0.8528	0.14837	0.69823	-0.016
Mof_C 	C 	0.94273	0.02999	0.73075	0.079
Mof_C 	C 	0.46531	0.24507	0.92371	0.044
Mof_C 	C 	0.42616	0.18773	0.96975	-0.142
Mof_C 	C 	0.32866	0.18951	0.97717	0.069
Mof_C 	C 	0.27021	0.24988	0.9383	-0.144
Mof_C 	C 	0.30979	0.30643	0.88959	0.07
Mof_C 	C 	0.406	0.30427	0.88473	-0.134
Mof_C 	C 	0.56719	0.24449	0.91633	0.005
Mof_C 	C 	0.58981	0.30494	0.93084	0.001
Mof_C 	C 	0.7333	0.2009	0.8945	0.084
Mof_C 	C 	0.28959	0.1276	0.02542	0.015
Mof_C 	C 	0.3267	0.06966	0.07494	-0.013
Mof_C 	C 	0.194	0.0551	0.0723	0.098
Mof_C 	C 	0.25399	0.36339	0.83983	0.016
Mof_C 	C 	0.1994	0.35163	0.80177	-0.018
Mof_C 	C 	0.20347	0.47001	0.76925	0.087
Mof_C 	C 	0.71038	0.42371	0.75493	0.045
Mof_C 	C 	0.61389	0.46975	0.81227	-0.143
Mof_C 	C 	0.51817	0.47717	0.81049	0.072
Mof_C 	C 	0.52009	0.4383	0.75012	-0.145
Mof_C 	C 	0.61622	0.38959	0.69357	0.071
Mof_C 	C 	0.71027	0.38473	0.69573	-0.135
Mof_C 	C 	0.81168	0.41633	0.75551	0.004
Mof_C 	C 	0.89475	0.43084	0.69506	0.001
Mof_C 	C 	0.9342	0.3945	0.7991	0.084
Mof_C 	C 	0.41719	0.52542	0.8724	0.012
Mof_C 	C 	0.39636	0.57494	0.93034	-0.012
Mof_C 	C 	0.2491	0.5723	0.9449	0.098
Mof_C 	C 	0.61738	0.33983	0.63661	0.016
Mof_C 	C 	0.55103	0.30177	0.64837	-0.017
Mof_C 	C 	0.67348	0.26925	0.52999	0.086
Mof_C 	C 	0.38902	0.07629	0.74507	0.045
Mof_C 	C 	0.39591	0.03025	0.68773	-0.144
Mof_C 	C 	0.30583	0.02283	0.68951	0.072
Mof_C 	C 	0.20851	0.0617	0.74988	-0.146
Mof_C 	C 	0.19938	0.11041	0.80643	0.072
Mof_C 	C 	0.29073	0.11527	0.80427	-0.136
Mof_C 	C 	0.48352	0.08367	0.74449	0.004
Mof_C 	C 	0.52065	0.06916	0.80494	0.001
Mof_C 	C 	0.6278	0.1055	0.7009	0.084
Mof_C 	C 	0.31501	0.97458	0.6276	0.012
Mof_C 	C 	0.40164	0.92506	0.56966	-0.012
Mof_C 	C 	0.2663	0.9277	0.5551	0.098
Mof_C 	C 	0.09382	0.16017	0.86339	0.014
Mof_C 	C 	0.00117	0.19823	0.85163	-0.013
Mof_C 	C 	0.97272	0.23075	0.97001	0.081
Mof_C 	C 	0.86591	0.74507	0.42371	0.046
Mof_C 	C 	0.91636	0.68773	0.46975	-0.144
Mof_C 	C 	0.00466	0.68951	0.47717	0.073
Mof_C 	C 	0.04161	0.74988	0.4383	-0.149
Mof_C 	C 	0.99419	0.80643	0.38959	0.075
Mof_C 	C 	0.905	0.80427	0.38473	-0.137
Mof_C 	C 	0.77199	0.74449	0.41633	0.004
Mof_C 	C 	0.67441	0.80494	0.43084	0.001
Mof_C 	C 	0.6713	0.7009	0.3945	0.084
Mof_C 	C 	0.05739	0.6276	0.52542	0.012
Mof_C 	C 	0.0287	0.56966	0.57494	-0.012
Mof_C 	C 	0.1786	0.5551	0.5723	0.098
Mof_C 	C 	0.04279	0.86339	0.33983	0.012
Mof_C 	C 	0.1472	0.85163	0.30177	-0.016
Mof_C 	C 	0.05727	0.97001	0.26925	0.079
Mof_C 	C 	0.53469	0.75493	0.07629	0.044
Mof_C 	C 	0.57384	0.81227	0.03025	-0.142
Mof_C 	C 	0.67134	0.81049	0.02283	0.069
Mof_C 	C 	0.72979	0.75012	0.0617	-0.144
Mof_C 	C 	0.69021	0.69357	0.11041	0.07
Mof_C 	C 	0.594	0.69573	0.11527	-0.134
Mof_C 	C 	0.43281	0.75551	0.08367	0.005
Mof_C 	C 	0.41019	0.69506	0.06916	0.001
Mof_C 	C 	0.2667	0.7991	0.1055	0.084
Mof_C 	C 	0.71041	0.8724	0.97458	0.015
Mof_C 	C 	0.6733	0.93034	0.92506	-0.013
Mof_C 	C 	0.806	0.9449	0.9277	0.098
Mof_C 	C 	0.74601	0.63661	0.16017	0.016
Mof_C 	C 	0.8006	0.64837	0.19823	-0.018
Mof_C 	C 	0.79653	0.52999	0.23075	0.087
Mof_C 	C 	0.28962	0.57629	0.24507	0.045
Mof_C 	C 	0.38611	0.53025	0.18773	-0.143
Mof_C 	C 	0.48183	0.52283	0.18951	0.072
Mof_C 	C 	0.47991	0.5617	0.24988	-0.145
Mof_C 	C 	0.38378	0.61041	0.30643	0.071
Mof_C 	C 	0.28973	0.61527	0.30427	-0.135
Mof_C 	C 	0.18832	0.58367	0.24449	0.004
Mof_C 	C 	0.10525	0.56916	0.30494	0.001
Mof_C 	C 	0.0658	0.6055	0.2009	0.084
Mof_C 	C 	0.58281	0.47458	0.1276	0.012
Mof_C 	C 	0.60364	0.42506	0.06966	-0.012
Mof_C 	C 	0.7509	0.4277	0.0551	0.098
Mof_C 	C 	0.38262	0.66017	0.36339	0.016
Mof_C 	C 	0.44897	0.69823	0.35163	-0.017
Mof_C 	C 	0.32652	0.73075	0.47001	0.086
Mof_C 	C 	0.61098	0.92371	0.25493	0.045
Mof_C 	C 	0.60409	0.96975	0.31227	-0.144
Mof_C 	C 	0.69417	0.97717	0.31049	0.072
Mof_C 	C 	0.79149	0.9383	0.25012	-0.146
Mof_C 	C 	0.80062	0.88959	0.19357	0.072
Mof_C 	C 	0.70927	0.88473	0.19573	-0.136
Mof_C 	C 	0.51648	0.91633	0.25551	0.004
Mof_C 	C 	0.47935	0.93084	0.19506	0.001
Mof_C 	C 	0.3722	0.8945	0.2991	0.084
Mof_C 	C 	0.68499	0.02542	0.3724	0.012
Mof_C 	C 	0.59836	0.07494	0.43034	-0.012
Mof_C 	C 	0.7337	0.0723	0.4449	0.098
Mof_C 	C 	0.90618	0.83983	0.13661	0.014
Mof_C 	C 	0.99883	0.80177	0.14837	-0.013
Mof_C 	C 	0.02728	0.76925	0.02999	0.081
Mof_N 	N 	0.39007	0.22228	0.5826	-0.274
Mof_N 	N 	0.23046	0.32338	0.6079	-0.27
Mof_N 	N 	0.89351	0.47727	0.39531	-0.276
Mof_N 	N 	0.84486	0.38252	0.47636	-0.12
Mof_N 	N 	0.84272	0.08067	0.74369	-0.263
Mof_N 	N 	0.01442	0.06082	0.68194	-0.116
Mof_N 	N 	0.69495	0.27772	0.9174	-0.274
Mof_N 	N 	0.66174	0.17662	0.8921	-0.271
Mof_N 	N 	0.26609	0.02273	0.10469	-0.275
Mof_N 	N 	0.20374	0.11748	0.02364	-0.12
Mof_N 	N 	0.16708	0.41933	0.75631	-0.264
Mof_N 	N 	0.25718	0.43918	0.81806	-0.12
Mof_N 	N 	0.97267	0.4174	0.72228	-0.274
Mof_N 	N 	0.83836	0.3921	0.82338	-0.27
Mof_N 	N 	0.28882	0.60469	0.97727	-0.276
Mof_N 	N 	0.32122	0.52364	0.88252	-0.12
Mof_N 	N 	0.58641	0.25631	0.58067	-0.264
Mof_N 	N 	0.69636	0.31806	0.56082	-0.12
Mof_N 	N 	0.61235	0.0826	0.77772	-0.274
Mof_N 	N 	0.55384	0.1079	0.67662	-0.27
Mof_N 	N 	0.37078	0.89531	0.52273	-0.276
Mof_N 	N 	0.22738	0.97636	0.61748	-0.12
Mof_N 	N 	0.92339	0.24369	0.91933	-0.264
Mof_N 	N 	0.07524	0.18194	0.93918	-0.118
Mof_N 	N 	0.60993	0.77772	0.4174	-0.274
Mof_N 	N 	0.76954	0.67662	0.3921	-0.27
Mof_N 	N 	0.10649	0.52273	0.60469	-0.276
Mof_N 	N 	0.15514	0.61748	0.52364	-0.12
Mof_N 	N 	0.15728	0.91933	0.25631	-0.263
Mof_N 	N 	0.98558	0.93918	0.31806	-0.116
Mof_N 	N 	0.30505	0.72228	0.0826	-0.274
Mof_N 	N 	0.33826	0.82338	0.1079	-0.271
Mof_N 	N 	0.73391	0.97727	0.89531	-0.275
Mof_N 	N 	0.79626	0.88252	0.97636	-0.12
Mof_N 	N 	0.83292	0.58067	0.24369	-0.264
Mof_N 	N 	0.74282	0.56082	0.18194	-0.12
Mof_N 	N 	0.02733	0.5826	0.27772	-0.274
Mof_N 	N 	0.16164	0.6079	0.17662	-0.27
Mof_N 	N 	0.71118	0.39531	0.02273	-0.276
Mof_N 	N 	0.67878	0.47636	0.11748	-0.12
Mof_N 	N 	0.41359	0.74369	0.41933	-0.264
Mof_N 	N 	0.30364	0.68194	0.43918	-0.12
Mof_N 	N 	0.38765	0.9174	0.22228	-0.274
Mof_N 	N 	0.44616	0.8921	0.32338	-0.27
Mof_N 	N 	0.62922	0.10469	0.47727	-0.276
Mof_N 	N 	0.77262	0.02364	0.38252	-0.12
Mof_N 	N 	0.07661	0.75631	0.08067	-0.264
Mof_N 	N 	0.92476	0.81806	0.06082	-0.118
_end
