data_functionalizedCrystal
_audit_creation_method	'EQeq! by Chris Wilmer'
_symmetry_space_group_name_H-M	'P1'
_symmetry_Int_Tables_number	1
_symmetry_cell_setting	triclinic
loop_
_symmetry_equiv_pos_as_xyz
  x,y,z
_cell_length_a	10.3513
_cell_length_b	8.3264
_cell_length_c	10.5584
_cell_angle_alpha	90
_cell_angle_beta	90
_cell_angle_gamma	90
loop_
_atom_site_label
_atom_site_type_symbol
_atom_site_fract_x
_atom_site_fract_y
_atom_site_fract_z
_atom_site_charge
Mof_P 	P 	0.1675	0.4328	0.3732	0.551
Mof_O 	O 	0.2709	0.426	0.2709	-0.542
Mof_O 	O 	0.0314	0.4301	0.3181	-0.515
Mof_O 	O 	0.1889	0.5695	0.4627	-0.553
Mof_H 	H 	0.0069	0.3191	0.5142	-0.015
Mof_H 	H 	0.2992	0.1561	0.6045	0.113
Mof_P 	P 	0.3325	0.5672	0.8732	0.552
Mof_O 	O 	0.2291	0.574	0.7709	-0.544
Mof_O 	O 	0.4686	0.5699	0.8181	-0.516
Mof_O 	O 	0.3111	0.4305	0.9627	-0.552
Mof_H 	H 	0.4931	0.6809	0.0142	-0.015
Mof_H 	H 	0.2008	0.8439	0.1045	0.098
Mof_P 	P 	0.8325	0.9328	0.6268	0.552
Mof_O 	O 	0.7291	0.926	0.7291	-0.545
Mof_O 	O 	0.9686	0.9301	0.6819	-0.516
Mof_O 	O 	0.8111	0.0695	0.5373	-0.556
Mof_H 	H 	0.9931	0.8191	0.4858	-0.013
Mof_H 	H 	0.7008	0.6561	0.3955	0.111
Mof_P 	P 	0.6675	0.0672	0.1268	0.542
Mof_O 	O 	0.7709	0.074	0.2291	-0.546
Mof_O 	O 	0.5314	0.0699	0.1819	-0.519
Mof_O 	O 	0.6889	0.9305	0.0373	-0.542
Mof_H 	H 	0.5069	0.1809	0.9858	-0.013
Mof_H 	H 	0.7992	0.3439	0.8955	0.097
Mof_P 	P 	0.8325	0.5672	0.6268	0.55
Mof_O 	O 	0.7291	0.574	0.7291	-0.543
Mof_O 	O 	0.9686	0.5699	0.6819	-0.516
Mof_O 	O 	0.8111	0.4305	0.5373	-0.554
Mof_H 	H 	0.9931	0.6809	0.4858	-0.015
Mof_H 	H 	0.7008	0.8439	0.3955	0.113
Mof_P 	P 	0.6675	0.4328	0.1268	0.552
Mof_O 	O 	0.7709	0.426	0.2291	-0.544
Mof_O 	O 	0.5314	0.4301	0.1819	-0.516
Mof_O 	O 	0.6889	0.5695	0.0373	-0.552
Mof_H 	H 	0.5069	0.3191	0.9858	-0.015
Mof_H 	H 	0.7992	0.1561	0.8955	0.098
Mof_P 	P 	0.1675	0.0672	0.3732	0.552
Mof_O 	O 	0.2709	0.074	0.2709	-0.545
Mof_O 	O 	0.0314	0.0699	0.3181	-0.516
Mof_O 	O 	0.1889	0.9305	0.4627	-0.556
Mof_H 	H 	0.0069	0.1809	0.5142	-0.013
Mof_H 	H 	0.2992	0.3439	0.6045	0.111
Mof_P 	P 	0.3325	0.9328	0.8732	0.542
Mof_O 	O 	0.2291	0.926	0.7709	-0.546
Mof_O 	O 	0.4686	0.9301	0.8181	-0.519
Mof_O 	O 	0.3111	0.0695	0.9627	-0.542
Mof_H 	H 	0.4931	0.8191	0.0142	-0.013
Mof_H 	H 	0.2008	0.6561	0.1045	0.097
Mof_Eu	Eu	0.36041	0.25	0.12058	2.482
Mof_O 	O 	0.0593	0.25	0.5437	-0.277
Mof_C 	C 	0.178	0.25	0.4668	-0.079
Mof_C 	C 	0.299	0.25	0.5521	-0.273
Mof_H 	H 	0.3746	0.25	0.4997	0.078
Mof_Eu	Eu	0.13959	0.75	0.62058	2.489
Mof_O 	O 	0.4407	0.75	0.0437	-0.271
Mof_C 	C 	0.322	0.75	0.9668	-0.096
Mof_C 	C 	0.201	0.75	0.0521	-0.224
Mof_H 	H 	0.1254	0.75	0.9997	0.059
Mof_Eu	Eu	0.63959	0.75	0.87942	2.482
Mof_O 	O 	0.9407	0.75	0.4563	-0.277
Mof_C 	C 	0.822	0.75	0.5332	-0.079
Mof_C 	C 	0.701	0.75	0.4479	-0.273
Mof_H 	H 	0.6254	0.75	0.5003	0.078
Mof_Eu	Eu	0.86041	0.25	0.37942	2.489
Mof_O 	O 	0.5593	0.25	0.9563	-0.271
Mof_C 	C 	0.678	0.25	0.0332	-0.096
Mof_C 	C 	0.799	0.25	0.9479	-0.224
Mof_H 	H 	0.8746	0.25	0.0003	0.059
_end
