data_functionalizedCrystal
_audit_creation_method	'EQeq! by Chris Wilmer'
_symmetry_space_group_name_H-M	'P1'
_symmetry_Int_Tables_number	1
_symmetry_cell_setting	triclinic
loop_
_symmetry_equiv_pos_as_xyz
  x,y,z
_cell_length_a	13.1319
_cell_length_b	13.1319
_cell_length_c	13.1319
_cell_angle_alpha	90
_cell_angle_beta	90
_cell_angle_gamma	90
loop_
_atom_site_label
_atom_site_type_symbol
_atom_site_fract_x
_atom_site_fract_y
_atom_site_fract_z
_atom_site_charge
Mof_N 	N 	0.63678	0.93413	0.95434	-0.006
Mof_N 	N 	0.71535	0.9795	0.95918	0.106
Mof_N 	N 	0.79275	0.02155	0.96282	-0.195
Mof_N 	N 	0.86322	0.06587	0.45434	-0.082
Mof_N 	N 	0.78465	0.0205	0.45918	-0.15
Mof_N 	N 	0.70725	0.97845	0.46282	-0.141
Mof_N 	N 	0.36322	0.43413	0.54566	-0.169
Mof_N 	N 	0.28465	0.4795	0.54082	-0.052
Mof_N 	N 	0.20725	0.52155	0.53718	-0.307
Mof_N 	N 	0.13678	0.56587	0.04566	-0.194
Mof_N 	N 	0.21535	0.5205	0.04082	-0.072
Mof_N 	N 	0.29275	0.47845	0.03718	-0.334
Mof_N 	N 	0.95434	0.63678	0.93413	-0.007
Mof_N 	N 	0.95918	0.71535	0.9795	0.105
Mof_N 	N 	0.96282	0.79275	0.02155	-0.196
Mof_N 	N 	0.45434	0.86322	0.06587	-0.082
Mof_N 	N 	0.45918	0.78465	0.0205	-0.15
Mof_N 	N 	0.46282	0.70725	0.97845	-0.141
Mof_N 	N 	0.54566	0.36322	0.43413	-0.169
Mof_N 	N 	0.54082	0.28465	0.4795	-0.052
Mof_N 	N 	0.53718	0.20725	0.52155	-0.307
Mof_N 	N 	0.04566	0.13678	0.56587	-0.194
Mof_N 	N 	0.04082	0.21535	0.5205	-0.072
Mof_N 	N 	0.03718	0.29275	0.47845	-0.334
Mof_N 	N 	0.93413	0.95434	0.63678	-0.007
Mof_N 	N 	0.9795	0.95918	0.71535	0.105
Mof_N 	N 	0.02155	0.96282	0.79275	-0.196
Mof_N 	N 	0.06587	0.45434	0.86322	-0.082
Mof_N 	N 	0.0205	0.45918	0.78465	-0.15
Mof_N 	N 	0.97845	0.46282	0.70725	-0.141
Mof_N 	N 	0.43413	0.54566	0.36322	-0.169
Mof_N 	N 	0.4795	0.54082	0.28465	-0.052
Mof_N 	N 	0.52155	0.53718	0.20725	-0.307
Mof_N 	N 	0.56587	0.04566	0.13678	-0.194
Mof_N 	N 	0.5205	0.04082	0.21535	-0.072
Mof_N 	N 	0.47845	0.03718	0.29275	-0.334
Mof_N 	N 	0.36322	0.06587	0.04566	-0.179
Mof_N 	N 	0.28465	0.0205	0.04082	-0.184
Mof_N 	N 	0.20725	0.97845	0.03718	-0.103
Mof_N 	N 	0.13678	0.93413	0.54566	-0.116
Mof_N 	N 	0.21535	0.9795	0.54082	0.073
Mof_N 	N 	0.29275	0.02155	0.53718	-0.407
Mof_N 	N 	0.63678	0.56587	0.45434	-0.155
Mof_N 	N 	0.71535	0.5205	0.45918	-0.044
Mof_N 	N 	0.79275	0.47845	0.46282	-0.253
Mof_N 	N 	0.86322	0.43413	0.95434	-0.001
Mof_N 	N 	0.78465	0.4795	0.95918	-0.01
Mof_N 	N 	0.70725	0.52155	0.96282	-0.214
Mof_N 	N 	0.04566	0.36322	0.06587	-0.179
Mof_N 	N 	0.04082	0.28465	0.0205	-0.184
Mof_N 	N 	0.03718	0.20725	0.97845	-0.103
Mof_N 	N 	0.54566	0.13678	0.93413	-0.116
Mof_N 	N 	0.54082	0.21535	0.9795	0.073
Mof_N 	N 	0.53718	0.29275	0.02155	-0.407
Mof_N 	N 	0.45434	0.63678	0.56587	-0.155
Mof_N 	N 	0.45918	0.71535	0.5205	-0.044
Mof_N 	N 	0.46282	0.79275	0.47845	-0.253
Mof_N 	N 	0.95434	0.86322	0.43413	-0.001
Mof_N 	N 	0.95918	0.78465	0.4795	-0.01
Mof_N 	N 	0.96282	0.70725	0.52155	-0.214
Mof_N 	N 	0.06587	0.04566	0.36322	-0.179
Mof_N 	N 	0.0205	0.04082	0.28465	-0.184
Mof_N 	N 	0.97845	0.03718	0.20725	-0.103
Mof_N 	N 	0.93413	0.54566	0.13678	-0.116
Mof_N 	N 	0.9795	0.54082	0.21535	0.073
Mof_N 	N 	0.02155	0.53718	0.29275	-0.407
Mof_N 	N 	0.56587	0.45434	0.63678	-0.155
Mof_N 	N 	0.5205	0.45918	0.71535	-0.044
Mof_N 	N 	0.47845	0.46282	0.79275	-0.253
Mof_N 	N 	0.43413	0.95434	0.86322	-0.001
Mof_N 	N 	0.4795	0.95918	0.78465	-0.01
Mof_N 	N 	0.52155	0.96282	0.70725	-0.214
Mof_Fe	Fe	0.5	0	-0	0.242
Mof_Fe	Fe	7.44832e-33	5.57362e-33	0.5	0.242
Mof_Fe	Fe	0.5	0.5	0.5	0.697
Mof_Fe	Fe	5.57362e-33	0.5	-0	0.242
Mof_K 	K 	-0	0	-0	1.058
Mof_K 	K 	0.5	5.57362e-33	0.5	2.364
Mof_K 	K 	1.30219e-32	0.5	0.5	2.364
Mof_K 	K 	0.5	0.5	-0	2.364
_end
