data_functionalizedCrystal
_audit_creation_method	'EQeq! by Chris Wilmer'
_symmetry_space_group_name_H-M	'P1'
_symmetry_Int_Tables_number	1
_symmetry_cell_setting	triclinic
loop_
_symmetry_equiv_pos_as_xyz
  x,y,z
_cell_length_a	7.467
_cell_length_b	7.8816
_cell_length_c	9.3289
_cell_angle_alpha	90
_cell_angle_beta	90
_cell_angle_gamma	118.275
loop_
_atom_site_label
_atom_site_type_symbol
_atom_site_fract_x
_atom_site_fract_y
_atom_site_fract_z
_atom_site_charge
Mof_V 	V 	0.55506	0.52168	0.75	1.775
Mof_V 	V 	0.44494	0.47832	0.25	1.775
Mof_V 	V 	0.96662	0.52168	0.75	1.774
Mof_V 	V 	0.03338	0.47832	0.25	1.774
Mof_P 	P 	0.65674	0.31348	0.484	0.412
Mof_P 	P 	0.34326	0.68652	0.984	0.414
Mof_P 	P 	0.65674	0.31348	0.016	0.414
Mof_P 	P 	0.34326	0.68652	0.516	0.412
Mof_H 	H 	0.4234	0.0612	0.6198	-0.016
Mof_H 	H 	0.5766	0.9388	0.1198	-0.015
Mof_H 	H 	0.6378	0.0612	0.8802	-0.014
Mof_H 	H 	0.3622	0.9388	0.3802	-0.014
Mof_H 	H 	0.5766	0.9388	0.3802	-0.016
Mof_H 	H 	0.4234	0.0612	0.8802	-0.015
Mof_H 	H 	0.3622	0.9388	0.1198	-0.014
Mof_H 	H 	0.6378	0.0612	0.6198	-0.014
Mof_H 	H 	0.08	0.16	0.192	2.6
Mof_H 	H 	0.92	0.84	0.692	2.601
Mof_H 	H 	0.08	0.16	0.308	2.601
Mof_H 	H 	0.92	0.84	0.808	2.6
Mof_C 	C 	0.53877	0.07754	0.5585	-0.181
Mof_C 	C 	0.46123	0.92246	0.0585	-0.183
Mof_C 	C 	0.53877	0.07754	0.9415	-0.183
Mof_C 	C 	0.46123	0.92246	0.4415	-0.181
Mof_O 	O 	0.49482	0.33266	0.39904	-0.586
Mof_O 	O 	0.50518	0.66734	0.89904	-0.587
Mof_O 	O 	0.83784	0.33266	0.10096	-0.581
Mof_O 	O 	0.16216	0.66734	0.60096	-0.582
Mof_O 	O 	0.50518	0.66734	0.60096	-0.586
Mof_O 	O 	0.49482	0.33266	0.10096	-0.587
Mof_O 	O 	0.16216	0.66734	0.89904	-0.581
Mof_O 	O 	0.83784	0.33266	0.39904	-0.582
Mof_O 	O 	0.73055	0.4611	0.61055	-0.646
Mof_O 	O 	0.26945	0.5389	0.11055	-0.649
Mof_O 	O 	0.73055	0.4611	0.88945	-0.649
Mof_O 	O 	0.26945	0.5389	0.38945	-0.646
Mof_O 	O 	0.10926	0.21852	0.25	-5.522
Mof_O 	O 	0.89074	0.78148	0.75	-5.522
_end
