data_functionalizedCrystal
_audit_creation_method	'EQeq! by Chris Wilmer'
_symmetry_space_group_name_H-M	'P1'
_symmetry_Int_Tables_number	1
_symmetry_cell_setting	triclinic
loop_
_symmetry_equiv_pos_as_xyz
  x,y,z
_cell_length_a	19.455
_cell_length_b	19.455
_cell_length_c	3.5339
_cell_angle_alpha	90
_cell_angle_beta	90
_cell_angle_gamma	90
loop_
_atom_site_label
_atom_site_type_symbol
_atom_site_fract_x
_atom_site_fract_y
_atom_site_fract_z
_atom_site_charge
Mof_Ag	Ag	0.37507	0.45533	0.9976	0.432
Mof_N 	N 	0.3246	0.5411	0.212	-0.326
Mof_N 	N 	0.3541	0.6058	0.193	-0.508
Mof_N 	N 	0.2498	0.6197	0.458	-0.745
Mof_N 	N 	0.212	0.501	0.4	0.903
Mof_H 	H 	0.1731	0.5096	0.5092	-0.198
Mof_H 	H 	0.2215	0.4604	0.3268	-0.189
Mof_C 	C 	0.2604	0.5552	0.35	0.682
Mof_C 	C 	0.3055	0.6501	0.37	1.933
Mof_N 	N 	0.326	0.722	0.385	2.904
Mof_H 	H 	0.2975	0.7525	0.4663	-0.581
Mof_H 	H 	0.3663	0.7341	0.3128	-0.883
Mof_H 	H 	0.2264	0.5218	0.3677	-0.975
Mof_H 	H 	0.3136	0.6964	0.416	-2.824
Mof_Ag	Ag	0.62493	0.54467	0.9976	0.433
Mof_N 	N 	0.6754	0.4589	0.212	-0.325
Mof_N 	N 	0.6459	0.3942	0.193	-0.507
Mof_N 	N 	0.7502	0.3803	0.458	-0.744
Mof_N 	N 	0.788	0.499	0.4	0.903
Mof_H 	H 	0.8269	0.4904	0.5092	-0.198
Mof_H 	H 	0.7785	0.5396	0.3268	-0.189
Mof_C 	C 	0.7396	0.4448	0.35	0.682
Mof_C 	C 	0.6945	0.3499	0.37	1.933
Mof_N 	N 	0.674	0.278	0.385	2.904
Mof_H 	H 	0.7025	0.2475	0.4663	-0.581
Mof_H 	H 	0.6337	0.2659	0.3128	-0.883
Mof_H 	H 	0.7736	0.4782	0.3677	-0.975
Mof_H 	H 	0.6864	0.3036	0.416	-2.824
Mof_Ag	Ag	0.45533	0.62493	0.0024	0.433
Mof_N 	N 	0.5411	0.6754	0.788	-0.325
Mof_N 	N 	0.6058	0.6459	0.807	-0.507
Mof_N 	N 	0.6197	0.7502	0.542	-0.744
Mof_N 	N 	0.501	0.788	0.6	0.903
Mof_H 	H 	0.5096	0.8269	0.4908	-0.198
Mof_H 	H 	0.4604	0.7785	0.6732	-0.189
Mof_C 	C 	0.5552	0.7396	0.65	0.682
Mof_C 	C 	0.6501	0.6945	0.63	1.933
Mof_N 	N 	0.722	0.674	0.615	2.904
Mof_H 	H 	0.7525	0.7025	0.5337	-0.581
Mof_H 	H 	0.7341	0.6337	0.6872	-0.883
Mof_H 	H 	0.5218	0.7736	0.6323	-0.975
Mof_H 	H 	0.6964	0.6864	0.584	-2.824
Mof_Ag	Ag	0.54467	0.37507	0.0024	0.433
Mof_N 	N 	0.4589	0.3246	0.788	-0.325
Mof_N 	N 	0.3942	0.3541	0.807	-0.507
Mof_N 	N 	0.3803	0.2498	0.542	-0.744
Mof_N 	N 	0.499	0.212	0.6	0.903
Mof_H 	H 	0.4904	0.1731	0.4908	-0.198
Mof_H 	H 	0.5396	0.2215	0.6732	-0.189
Mof_C 	C 	0.4448	0.2604	0.65	0.682
Mof_C 	C 	0.3499	0.3055	0.63	1.933
Mof_N 	N 	0.278	0.326	0.615	2.904
Mof_H 	H 	0.2475	0.2975	0.5337	-0.581
Mof_H 	H 	0.2659	0.3663	0.6872	-0.883
Mof_H 	H 	0.4782	0.2264	0.6323	-0.975
Mof_H 	H 	0.3036	0.3136	0.584	-2.824
Mof_Ag	Ag	0.87507	0.04467	0.4976	0.429
Mof_N 	N 	0.8246	0.9589	0.712	-0.325
Mof_N 	N 	0.8541	0.8942	0.693	-0.509
Mof_N 	N 	0.7498	0.8803	0.958	-0.744
Mof_N 	N 	0.712	0.999	0.9	0.902
Mof_H 	H 	0.6731	0.9904	0.0092	-0.199
Mof_H 	H 	0.7215	0.0396	0.8268	-0.189
Mof_C 	C 	0.7604	0.9448	0.85	0.68
Mof_C 	C 	0.8055	0.8499	0.87	1.943
Mof_N 	N 	0.826	0.778	0.885	2.92
Mof_H 	H 	0.7975	0.7475	0.9663	-0.582
Mof_H 	H 	0.8663	0.7659	0.8128	-0.888
Mof_H 	H 	0.7264	0.9782	0.8677	-0.974
Mof_H 	H 	0.8136	0.8036	0.916	-2.838
Mof_Ag	Ag	0.12493	0.95533	0.4976	0.429
Mof_N 	N 	0.1754	0.0411	0.712	-0.325
Mof_N 	N 	0.1459	0.1058	0.693	-0.509
Mof_N 	N 	0.2502	0.1197	0.958	-0.744
Mof_N 	N 	0.288	0.001	0.9	0.902
Mof_H 	H 	0.3269	0.0096	0.0092	-0.199
Mof_H 	H 	0.2785	0.9604	0.8268	-0.189
Mof_C 	C 	0.2396	0.0552	0.85	0.68
Mof_C 	C 	0.1945	0.1501	0.87	1.943
Mof_N 	N 	0.174	0.222	0.885	2.92
Mof_H 	H 	0.2025	0.2525	0.9663	-0.582
Mof_H 	H 	0.1337	0.2341	0.8128	-0.888
Mof_H 	H 	0.2736	0.0218	0.8677	-0.974
Mof_H 	H 	0.1864	0.1964	0.916	-2.838
Mof_Ag	Ag	0.95533	0.87507	0.5024	0.429
Mof_N 	N 	0.0411	0.8246	0.288	-0.325
Mof_N 	N 	0.1058	0.8541	0.307	-0.509
Mof_N 	N 	0.1197	0.7498	0.042	-0.744
Mof_N 	N 	0.001	0.712	0.1	0.902
Mof_H 	H 	0.0096	0.6731	0.9908	-0.199
Mof_H 	H 	0.9604	0.7215	0.1732	-0.189
Mof_C 	C 	0.0552	0.7604	0.15	0.68
Mof_C 	C 	0.1501	0.8055	0.13	1.943
Mof_N 	N 	0.222	0.826	0.115	2.92
Mof_H 	H 	0.2525	0.7975	0.0337	-0.582
Mof_H 	H 	0.2341	0.8663	0.1872	-0.888
Mof_H 	H 	0.0218	0.7264	0.1323	-0.974
Mof_H 	H 	0.1964	0.8136	0.084	-2.838
Mof_Ag	Ag	0.04467	0.12493	0.5024	0.429
Mof_N 	N 	0.9589	0.1754	0.288	-0.325
Mof_N 	N 	0.8942	0.1459	0.307	-0.509
Mof_N 	N 	0.8803	0.2502	0.042	-0.744
Mof_N 	N 	0.999	0.288	0.1	0.902
Mof_H 	H 	0.9904	0.3269	0.9908	-0.199
Mof_H 	H 	0.0396	0.2785	0.1732	-0.189
Mof_C 	C 	0.9448	0.2396	0.15	0.68
Mof_C 	C 	0.8499	0.1945	0.13	1.943
Mof_N 	N 	0.778	0.174	0.115	2.92
Mof_H 	H 	0.7475	0.2025	0.0337	-0.582
Mof_H 	H 	0.7659	0.1337	0.1872	-0.888
Mof_H 	H 	0.9782	0.2736	0.1323	-0.974
Mof_H 	H 	0.8036	0.1864	0.084	-2.838
Mof_Ag	Ag	0.1661	0.6661	0.75	0.746
Mof_Ag	Ag	0.8339	0.3339	0.75	0.746
Mof_Ag	Ag	0.6661	0.8339	0.25	0.746
Mof_Ag	Ag	0.3339	0.1661	0.25	0.746
_end
