data_functionalizedCrystal
_audit_creation_method	'EQeq! by Chris Wilmer'
_symmetry_space_group_name_H-M	'P1'
_symmetry_Int_Tables_number	1
_symmetry_cell_setting	triclinic
loop_
_symmetry_equiv_pos_as_xyz
  x,y,z
_cell_length_a	12.9728
_cell_length_b	12.9728
_cell_length_c	62.652
_cell_angle_alpha	90
_cell_angle_beta	90
_cell_angle_gamma	120
loop_
_atom_site_label
_atom_site_type_symbol
_atom_site_fract_x
_atom_site_fract_y
_atom_site_fract_z
_atom_site_charge
Mof_N 	N 	0.34875	0.53994	0.984	-0.272
Mof_C 	C 	0.37215	0.47959	0.97391	0.128
Mof_C 	C 	0.36617	0.38956	0.93858	0.066
Mof_C 	C 	0.39873	0.4071	0.96131	-0.145
Mof_C 	C 	0.3496	0.47377	0.92737	-0.072
Mof_H 	H 	0.3608	0.5432	0.9345	0.052
Mof_C 	C 	0.34933	0.28869	0.9274	-0.074
Mof_H 	H 	0.3599	0.2302	0.9346	0.048
Mof_C 	C 	0.46874	0.36469	0.97033	0.127
Mof_N 	N 	0.52882	0.33162	0.97772	-0.275
Mof_N 	N 	0.01542	0.87327	0.31734	-0.273
Mof_C 	C 	0.03882	0.81292	0.30724	0.137
Mof_C 	C 	0.03284	0.72289	0.27191	0.147
Mof_C 	C 	0.0654	0.74043	0.29464	-0.177
Mof_C 	C 	0.01627	0.8071	0.26071	-0.2
Mof_H 	H 	0.02747	0.87653	0.26783	0.093
Mof_C 	C 	0.016	0.62202	0.26073	-0.203
Mof_H 	H 	0.02657	0.56353	0.26793	0.086
Mof_C 	C 	0.13541	0.69802	0.30366	0.138
Mof_N 	N 	0.19549	0.66495	0.31105	-0.278
Mof_N 	N 	0.68208	0.20661	0.65067	-0.269
Mof_C 	C 	0.70548	0.14626	0.64057	0.114
Mof_C 	C 	0.6995	0.05623	0.60525	0.007
Mof_C 	C 	0.73206	0.07377	0.62797	-0.109
Mof_C 	C 	0.68293	0.14044	0.59404	-0.049
Mof_H 	H 	0.69413	0.20987	0.60117	0.043
Mof_C 	C 	0.68266	0.95536	0.59406	-0.009
Mof_H 	H 	0.69323	0.89687	0.60127	0.048
Mof_C 	C 	0.80207	0.03136	0.637	0.071
Mof_N 	N 	0.86215	0.99829	0.64439	-0.216
Mof_N 	N 	0.46006	0.80881	0.984	-0.266
Mof_C 	C 	0.52041	0.89256	0.97391	0.13
Mof_C 	C 	0.61044	0.97661	0.93858	0.091
Mof_C 	C 	0.5929	0.99163	0.96131	-0.097
Mof_C 	C 	0.52623	0.87583	0.92737	-0.057
Mof_H 	H 	0.4568	0.8176	0.9345	0.048
Mof_C 	C 	0.71131	0.06064	0.9274	-0.092
Mof_H 	H 	0.7698	0.1297	0.9346	0.061
Mof_C 	C 	0.63531	0.10405	0.97033	0.08
Mof_N 	N 	0.66838	0.1972	0.97772	-0.262
Mof_N 	N 	0.12673	0.14214	0.31734	-0.287
Mof_C 	C 	0.18708	0.22589	0.30724	0.118
Mof_C 	C 	0.27711	0.30994	0.27191	0.062
Mof_C 	C 	0.25957	0.32496	0.29464	-0.145
Mof_C 	C 	0.1929	0.20916	0.26071	-0.075
Mof_H 	H 	0.12347	0.15093	0.26783	0.033
Mof_C 	C 	0.37798	0.39397	0.26073	-0.071
Mof_H 	H 	0.43647	0.46303	0.26793	0.056
Mof_C 	C 	0.30198	0.43738	0.30366	0.126
Mof_N 	N 	0.33505	0.53053	0.31105	-0.273
Mof_N 	N 	0.79339	0.47548	0.65067	-0.273
Mof_C 	C 	0.85374	0.55923	0.64057	0.15
Mof_C 	C 	0.94377	0.64328	0.60525	0.131
Mof_C 	C 	0.92623	0.6583	0.62797	-0.175
Mof_C 	C 	0.85956	0.5425	0.59404	-0.091
Mof_H 	H 	0.79013	0.48427	0.60117	0.059
Mof_C 	C 	0.04464	0.72731	0.59406	-0.128
Mof_H 	H 	0.10313	0.79637	0.60127	0.071
Mof_C 	C 	0.96864	0.77072	0.637	0.198
Mof_N 	N 	0.00171	0.86387	0.64439	-0.303
Mof_N 	N 	0.19119	0.65125	0.984	-0.276
Mof_C 	C 	0.10744	0.62785	0.97391	0.134
Mof_C 	C 	0.02339	0.63383	0.93858	0.045
Mof_C 	C 	0.00837	0.60127	0.96131	-0.189
Mof_C 	C 	0.12417	0.6504	0.92737	-0.082
Mof_H 	H 	0.1824	0.6392	0.9345	0.053
Mof_C 	C 	0.93936	0.65067	0.9274	-0.044
Mof_H 	H 	0.8703	0.6401	0.9346	0.055
Mof_C 	C 	0.89595	0.53126	0.97033	0.183
Mof_N 	N 	0.8028	0.47118	0.97772	-0.282
Mof_N 	N 	0.85786	0.98458	0.31734	-0.244
Mof_C 	C 	0.77411	0.96118	0.30724	0.134
Mof_C 	C 	0.69006	0.96716	0.27191	-0.007
Mof_C 	C 	0.67504	0.9346	0.29464	-0.108
Mof_C 	C 	0.79084	0.98373	0.26071	0.063
Mof_H 	H 	0.84907	0.97253	0.26783	0.026
Mof_C 	C 	0.60603	0.984	0.26073	0.063
Mof_H 	H 	0.53697	0.97343	0.26793	0.022
Mof_C 	C 	0.56262	0.86459	0.30366	0.126
Mof_N 	N 	0.46947	0.80451	0.31105	-0.267
Mof_N 	N 	0.52452	0.31792	0.65067	-0.272
Mof_C 	C 	0.44077	0.29452	0.64057	0.126
Mof_C 	C 	0.35672	0.3005	0.60525	0.062
Mof_C 	C 	0.3417	0.26794	0.62797	-0.145
Mof_C 	C 	0.4575	0.31707	0.59404	-0.071
Mof_H 	H 	0.51573	0.30587	0.60117	0.049
Mof_C 	C 	0.27269	0.31734	0.59406	-0.072
Mof_H 	H 	0.20363	0.30677	0.60127	0.045
Mof_C 	C 	0.22928	0.19793	0.637	0.118
Mof_N 	N 	0.13613	0.13785	0.64439	-0.289
Mof_N 	N 	0.53994	0.34875	0.516	-0.273
Mof_C 	C 	0.47959	0.37215	0.52609	0.127
Mof_C 	C 	0.38956	0.36617	0.56142	0.065
Mof_C 	C 	0.4071	0.39873	0.53869	-0.146
Mof_C 	C 	0.47377	0.3496	0.57263	-0.073
Mof_H 	H 	0.5432	0.3608	0.5655	0.051
Mof_C 	C 	0.28869	0.34933	0.5726	-0.075
Mof_H 	H 	0.2302	0.3599	0.5654	0.047
Mof_C 	C 	0.36469	0.46874	0.52967	0.127
Mof_N 	N 	0.33162	0.52882	0.52228	-0.275
Mof_N 	N 	0.20661	0.68208	0.84933	-0.269
Mof_C 	C 	0.14626	0.70548	0.85943	0.114
Mof_C 	C 	0.05623	0.6995	0.89475	0.007
Mof_C 	C 	0.07377	0.73206	0.87203	-0.109
Mof_C 	C 	0.14044	0.68293	0.90596	-0.049
Mof_H 	H 	0.20987	0.69413	0.89883	0.043
Mof_C 	C 	0.95536	0.68266	0.90594	-0.009
Mof_H 	H 	0.89687	0.69323	0.89873	0.048
Mof_C 	C 	0.03136	0.80207	0.863	0.071
Mof_N 	N 	0.99829	0.86215	0.85561	-0.216
Mof_N 	N 	0.87327	0.01542	0.18266	-0.273
Mof_C 	C 	0.81292	0.03882	0.19276	0.137
Mof_C 	C 	0.72289	0.03284	0.22809	0.147
Mof_C 	C 	0.74043	0.0654	0.20536	-0.177
Mof_C 	C 	0.8071	0.01627	0.23929	-0.2
Mof_H 	H 	0.87653	0.02747	0.23217	0.093
Mof_C 	C 	0.62202	0.016	0.23927	-0.203
Mof_H 	H 	0.56353	0.02657	0.23207	0.086
Mof_C 	C 	0.69802	0.13541	0.19634	0.138
Mof_N 	N 	0.66495	0.19549	0.18895	-0.278
Mof_N 	N 	0.80881	0.46006	0.516	-0.266
Mof_C 	C 	0.89256	0.52041	0.52609	0.13
Mof_C 	C 	0.97661	0.61044	0.56142	0.091
Mof_C 	C 	0.99163	0.5929	0.53869	-0.097
Mof_C 	C 	0.87583	0.52623	0.57263	-0.057
Mof_H 	H 	0.8176	0.4568	0.5655	0.048
Mof_C 	C 	0.06064	0.71131	0.5726	-0.092
Mof_H 	H 	0.1297	0.7698	0.5654	0.061
Mof_C 	C 	0.10405	0.63531	0.52967	0.08
Mof_N 	N 	0.1972	0.66838	0.52228	-0.262
Mof_N 	N 	0.47548	0.79339	0.84933	-0.273
Mof_C 	C 	0.55923	0.85374	0.85943	0.15
Mof_C 	C 	0.64328	0.94377	0.89475	0.131
Mof_C 	C 	0.6583	0.92623	0.87203	-0.175
Mof_C 	C 	0.5425	0.85956	0.90596	-0.091
Mof_H 	H 	0.48427	0.79013	0.89883	0.059
Mof_C 	C 	0.72731	0.04464	0.90594	-0.128
Mof_H 	H 	0.79637	0.10313	0.89873	0.071
Mof_C 	C 	0.77072	0.96864	0.863	0.198
Mof_N 	N 	0.86387	0.00171	0.85561	-0.303
Mof_N 	N 	0.14214	0.12673	0.18266	-0.287
Mof_C 	C 	0.22589	0.18708	0.19276	0.118
Mof_C 	C 	0.30994	0.27711	0.22809	0.062
Mof_C 	C 	0.32496	0.25957	0.20536	-0.145
Mof_C 	C 	0.20916	0.1929	0.23929	-0.075
Mof_H 	H 	0.15093	0.12347	0.23217	0.033
Mof_C 	C 	0.39397	0.37798	0.23927	-0.071
Mof_H 	H 	0.46303	0.43647	0.23207	0.056
Mof_C 	C 	0.43738	0.30198	0.19634	0.126
Mof_N 	N 	0.53053	0.33505	0.18895	-0.273
Mof_N 	N 	0.65125	0.19119	0.516	-0.276
Mof_C 	C 	0.62785	0.10744	0.52609	0.134
Mof_C 	C 	0.63383	0.02339	0.56142	0.045
Mof_C 	C 	0.60127	0.00837	0.53869	-0.189
Mof_C 	C 	0.6504	0.12417	0.57263	-0.082
Mof_H 	H 	0.6392	0.1824	0.5655	0.053
Mof_C 	C 	0.65067	0.93936	0.5726	-0.044
Mof_H 	H 	0.6401	0.8703	0.5654	0.055
Mof_C 	C 	0.53126	0.89595	0.52967	0.183
Mof_N 	N 	0.47118	0.8028	0.52228	-0.282
Mof_N 	N 	0.31792	0.52452	0.84933	-0.272
Mof_C 	C 	0.29452	0.44077	0.85943	0.126
Mof_C 	C 	0.3005	0.35672	0.89475	0.062
Mof_C 	C 	0.26794	0.3417	0.87203	-0.145
Mof_C 	C 	0.31707	0.4575	0.90596	-0.071
Mof_H 	H 	0.30587	0.51573	0.89883	0.049
Mof_C 	C 	0.31734	0.27269	0.90594	-0.072
Mof_H 	H 	0.30677	0.20363	0.89873	0.045
Mof_C 	C 	0.19793	0.22928	0.863	0.118
Mof_N 	N 	0.13785	0.13613	0.85561	-0.289
Mof_N 	N 	0.98458	0.85786	0.18266	-0.244
Mof_C 	C 	0.96118	0.77411	0.19276	0.134
Mof_C 	C 	0.96716	0.69006	0.22809	-0.007
Mof_C 	C 	0.9346	0.67504	0.20536	-0.108
Mof_C 	C 	0.98373	0.79084	0.23929	0.063
Mof_H 	H 	0.97253	0.84907	0.23217	0.026
Mof_C 	C 	0.984	0.60603	0.23927	0.063
Mof_H 	H 	0.97343	0.53697	0.23207	0.022
Mof_C 	C 	0.86459	0.56262	0.19634	0.126
Mof_N 	N 	0.80451	0.46947	0.18895	-0.267
Mof_N 	N 	0.65125	0.46006	0.016	-0.27
Mof_C 	C 	0.62785	0.52041	0.02609	0.134
Mof_C 	C 	0.63383	0.61044	0.06142	0.069
Mof_C 	C 	0.60127	0.5929	0.03869	-0.142
Mof_C 	C 	0.6504	0.52623	0.07263	-0.068
Mof_H 	H 	0.6392	0.4568	0.0655	0.05
Mof_C 	C 	0.65067	0.71131	0.0726	-0.067
Mof_H 	H 	0.6401	0.7698	0.0654	0.062
Mof_C 	C 	0.53126	0.63531	0.02967	0.133
Mof_N 	N 	0.47118	0.66838	0.02228	-0.271
Mof_N 	N 	0.31792	0.79339	0.34933	-0.274
Mof_C 	C 	0.29452	0.85374	0.35943	0.147
Mof_C 	C 	0.3005	0.94377	0.39475	0.131
Mof_C 	C 	0.26794	0.92623	0.37203	-0.18
Mof_C 	C 	0.31707	0.85956	0.40596	-0.093
Mof_H 	H 	0.30587	0.79013	0.39883	0.058
Mof_C 	C 	0.31734	0.04464	0.40594	-0.134
Mof_H 	H 	0.30677	0.10313	0.39873	0.062
Mof_C 	C 	0.19793	0.96864	0.363	0.194
Mof_N 	N 	0.13785	0.00171	0.35561	-0.327
Mof_N 	N 	0.98458	0.12673	0.68266	-0.261
Mof_C 	C 	0.96118	0.18708	0.69276	0.123
Mof_C 	C 	0.96716	0.27711	0.72809	-0.017
Mof_C 	C 	0.9346	0.25957	0.70536	-0.107
Mof_C 	C 	0.98373	0.1929	0.73929	0.069
Mof_H 	H 	0.97253	0.12347	0.73217	0.007
Mof_C 	C 	0.984	0.37798	0.73927	0.069
Mof_H 	H 	0.97343	0.43647	0.73207	0.021
Mof_C 	C 	0.86459	0.30198	0.69634	0.122
Mof_N 	N 	0.80451	0.33505	0.68895	-0.267
Mof_N 	N 	0.53994	0.19119	0.016	-0.277
Mof_C 	C 	0.47959	0.10744	0.02609	0.131
Mof_C 	C 	0.38956	0.02339	0.06142	0.042
Mof_C 	C 	0.4071	0.00837	0.03869	-0.192
Mof_C 	C 	0.47377	0.12417	0.07263	-0.085
Mof_H 	H 	0.5432	0.1824	0.0655	0.054
Mof_C 	C 	0.28869	0.93936	0.0726	-0.048
Mof_H 	H 	0.2302	0.8703	0.0654	0.049
Mof_C 	C 	0.36469	0.89595	0.02967	0.182
Mof_N 	N 	0.33162	0.8028	0.02228	-0.284
Mof_N 	N 	0.20661	0.52452	0.34933	-0.269
Mof_C 	C 	0.14626	0.44077	0.35943	0.109
Mof_C 	C 	0.05623	0.35672	0.39475	-0.003
Mof_C 	C 	0.07377	0.3417	0.37203	-0.107
Mof_C 	C 	0.14044	0.4575	0.40596	-0.047
Mof_H 	H 	0.20987	0.51573	0.39883	0.041
Mof_C 	C 	0.95536	0.27269	0.40594	-0.007
Mof_H 	H 	0.89687	0.20363	0.39873	0.038
Mof_C 	C 	0.03136	0.22928	0.363	0.053
Mof_N 	N 	0.99829	0.13613	0.35561	-0.229
Mof_N 	N 	0.87327	0.85786	0.68266	-0.25
Mof_C 	C 	0.81292	0.77411	0.69276	0.141
Mof_C 	C 	0.72289	0.69006	0.72809	0.072
Mof_C 	C 	0.74043	0.67504	0.70536	-0.142
Mof_C 	C 	0.8071	0.79084	0.73929	-0.066
Mof_H 	H 	0.87653	0.84907	0.73217	0.067
Mof_C 	C 	0.62202	0.60603	0.73927	-0.069
Mof_H 	H 	0.56353	0.53697	0.73207	0.053
Mof_C 	C 	0.69802	0.56262	0.69634	0.134
Mof_N 	N 	0.66495	0.46947	0.68895	-0.273
Mof_N 	N 	0.80881	0.34875	0.016	-0.267
Mof_C 	C 	0.89256	0.37215	0.02609	0.126
Mof_C 	C 	0.97661	0.36617	0.06142	0.09
Mof_C 	C 	0.99163	0.39873	0.03869	-0.098
Mof_C 	C 	0.87583	0.3496	0.07263	-0.059
Mof_H 	H 	0.8176	0.3608	0.0655	0.048
Mof_C 	C 	0.06064	0.34933	0.0726	-0.097
Mof_H 	H 	0.1297	0.3599	0.0654	0.053
Mof_C 	C 	0.10405	0.46874	0.02967	0.076
Mof_N 	N 	0.1972	0.52882	0.02228	-0.264
Mof_N 	N 	0.47548	0.68208	0.34933	-0.271
Mof_C 	C 	0.55923	0.70548	0.35943	0.134
Mof_C 	C 	0.64328	0.6995	0.39475	0.072
Mof_C 	C 	0.6583	0.73206	0.37203	-0.142
Mof_C 	C 	0.5425	0.68293	0.40596	-0.07
Mof_H 	H 	0.48427	0.69413	0.39883	0.052
Mof_C 	C 	0.72731	0.68266	0.40594	-0.069
Mof_H 	H 	0.79637	0.69323	0.39873	0.064
Mof_C 	C 	0.77072	0.80207	0.363	0.14
Mof_N 	N 	0.86387	0.86215	0.35561	-0.251
Mof_N 	N 	0.14214	0.01542	0.68266	-0.293
Mof_C 	C 	0.22589	0.03882	0.69276	0.125
Mof_C 	C 	0.30994	0.03284	0.72809	0.146
Mof_C 	C 	0.32496	0.0654	0.70536	-0.181
Mof_C 	C 	0.20916	0.01627	0.73929	-0.214
Mof_H 	H 	0.15093	0.02747	0.73217	0.077
Mof_C 	C 	0.39397	0.016	0.73927	-0.211
Mof_H 	H 	0.46303	0.02657	0.73207	0.089
Mof_C 	C 	0.43738	0.13541	0.69634	0.134
Mof_N 	N 	0.53053	0.19549	0.68895	-0.278
Mof_N 	N 	0.46006	0.65125	0.484	-0.27
Mof_C 	C 	0.52041	0.62785	0.47391	0.134
Mof_C 	C 	0.61044	0.63383	0.43858	0.069
Mof_C 	C 	0.5929	0.60127	0.46131	-0.142
Mof_C 	C 	0.52623	0.6504	0.42737	-0.068
Mof_H 	H 	0.4568	0.6392	0.4345	0.05
Mof_C 	C 	0.71131	0.65067	0.4274	-0.067
Mof_H 	H 	0.7698	0.6401	0.4346	0.062
Mof_C 	C 	0.63531	0.53126	0.47033	0.133
Mof_N 	N 	0.66838	0.47118	0.47772	-0.271
Mof_N 	N 	0.12673	0.98458	0.81734	-0.261
Mof_C 	C 	0.18708	0.96118	0.80724	0.123
Mof_C 	C 	0.27711	0.96716	0.77191	-0.017
Mof_C 	C 	0.25957	0.9346	0.79464	-0.107
Mof_C 	C 	0.1929	0.98373	0.76071	0.069
Mof_H 	H 	0.12347	0.97253	0.76783	0.007
Mof_C 	C 	0.37798	0.984	0.76073	0.069
Mof_H 	H 	0.43647	0.97343	0.76793	0.021
Mof_C 	C 	0.30198	0.86459	0.80366	0.122
Mof_N 	N 	0.33505	0.80451	0.81105	-0.267
Mof_N 	N 	0.79339	0.31792	0.15067	-0.274
Mof_C 	C 	0.85374	0.29452	0.14057	0.147
Mof_C 	C 	0.94377	0.3005	0.10525	0.131
Mof_C 	C 	0.92623	0.26794	0.12797	-0.18
Mof_C 	C 	0.85956	0.31707	0.09404	-0.093
Mof_H 	H 	0.79013	0.30587	0.10117	0.058
Mof_C 	C 	0.04464	0.31734	0.09406	-0.134
Mof_H 	H 	0.10313	0.30677	0.10127	0.062
Mof_C 	C 	0.96864	0.19793	0.137	0.194
Mof_N 	N 	0.00171	0.13785	0.14439	-0.327
Mof_N 	N 	0.19119	0.53994	0.484	-0.277
Mof_C 	C 	0.10744	0.47959	0.47391	0.131
Mof_C 	C 	0.02339	0.38956	0.43858	0.042
Mof_C 	C 	0.00837	0.4071	0.46131	-0.192
Mof_C 	C 	0.12417	0.47377	0.42737	-0.085
Mof_H 	H 	0.1824	0.5432	0.4345	0.054
Mof_C 	C 	0.93936	0.28869	0.4274	-0.048
Mof_H 	H 	0.8703	0.2302	0.4346	0.049
Mof_C 	C 	0.89595	0.36469	0.47033	0.182
Mof_N 	N 	0.8028	0.33162	0.47772	-0.284
Mof_N 	N 	0.85786	0.87327	0.81734	-0.25
Mof_C 	C 	0.77411	0.81292	0.80724	0.141
Mof_C 	C 	0.69006	0.72289	0.77191	0.072
Mof_C 	C 	0.67504	0.74043	0.79464	-0.142
Mof_C 	C 	0.79084	0.8071	0.76071	-0.066
Mof_H 	H 	0.84907	0.87653	0.76783	0.067
Mof_C 	C 	0.60603	0.62202	0.76073	-0.069
Mof_H 	H 	0.53697	0.56353	0.76793	0.053
Mof_C 	C 	0.56262	0.69802	0.80366	0.134
Mof_N 	N 	0.46947	0.66495	0.81105	-0.273
Mof_N 	N 	0.52452	0.20661	0.15067	-0.269
Mof_C 	C 	0.44077	0.14626	0.14057	0.109
Mof_C 	C 	0.35672	0.05623	0.10525	-0.003
Mof_C 	C 	0.3417	0.07377	0.12797	-0.107
Mof_C 	C 	0.4575	0.14044	0.09404	-0.047
Mof_H 	H 	0.51573	0.20987	0.10117	0.041
Mof_C 	C 	0.27269	0.95536	0.09406	-0.007
Mof_H 	H 	0.20363	0.89687	0.10127	0.038
Mof_C 	C 	0.22928	0.03136	0.137	0.053
Mof_N 	N 	0.13613	0.99829	0.14439	-0.229
Mof_N 	N 	0.34875	0.80881	0.484	-0.267
Mof_C 	C 	0.37215	0.89256	0.47391	0.126
Mof_C 	C 	0.36617	0.97661	0.43858	0.09
Mof_C 	C 	0.39873	0.99163	0.46131	-0.098
Mof_C 	C 	0.3496	0.87583	0.42737	-0.059
Mof_H 	H 	0.3608	0.8176	0.4345	0.048
Mof_C 	C 	0.34933	0.06064	0.4274	-0.097
Mof_H 	H 	0.3599	0.1297	0.4346	0.053
Mof_C 	C 	0.46874	0.10405	0.47033	0.076
Mof_N 	N 	0.52882	0.1972	0.47772	-0.264
Mof_N 	N 	0.01542	0.14214	0.81734	-0.293
Mof_C 	C 	0.03882	0.22589	0.80724	0.125
Mof_C 	C 	0.03284	0.30994	0.77191	0.146
Mof_C 	C 	0.0654	0.32496	0.79464	-0.181
Mof_C 	C 	0.01627	0.20916	0.76071	-0.214
Mof_H 	H 	0.02747	0.15093	0.76783	0.077
Mof_C 	C 	0.016	0.39397	0.76073	-0.211
Mof_H 	H 	0.02657	0.46303	0.76793	0.089
Mof_C 	C 	0.13541	0.43738	0.80366	0.134
Mof_N 	N 	0.19549	0.53053	0.81105	-0.278
Mof_N 	N 	0.68208	0.47548	0.15067	-0.271
Mof_C 	C 	0.70548	0.55923	0.14057	0.134
Mof_C 	C 	0.6995	0.64328	0.10525	0.072
Mof_C 	C 	0.73206	0.6583	0.12797	-0.142
Mof_C 	C 	0.68293	0.5425	0.09404	-0.07
Mof_H 	H 	0.69413	0.48427	0.10117	0.052
Mof_C 	C 	0.68266	0.72731	0.09406	-0.069
Mof_H 	H 	0.69323	0.79637	0.10127	0.064
Mof_C 	C 	0.80207	0.77072	0.137	0.14
Mof_N 	N 	0.86215	0.86387	0.14439	-0.251
Mof_Zn	Zn	0.33333	0.66667	0.00362	1.191
Mof_Zn	Zn	-0	0	0.33695	1.165
Mof_Zn	Zn	0.66667	0.33333	0.67028	1.191
Mof_Zn	Zn	0.66667	0.33333	0.49638	1.191
Mof_Zn	Zn	0.33333	0.66667	0.82972	1.191
Mof_Zn	Zn	-5.52901e-33	-1.1058e-32	0.16305	1.165
Mof_Zn	Zn	0.66667	0.33333	0.99638	1.191
Mof_Zn	Zn	0.33333	0.66667	0.32972	1.191
Mof_Zn	Zn	-0	-4.42321e-32	0.66305	1.164
Mof_Zn	Zn	0.33333	0.66667	0.50362	1.191
Mof_Zn	Zn	-0	-8.84642e-32	0.83695	1.164
Mof_Zn	Zn	0.66667	0.33333	0.17028	1.191
_end
