data_functionalizedCrystal
_audit_creation_method	'EQeq! by Chris Wilmer'
_symmetry_space_group_name_H-M	'P1'
_symmetry_Int_Tables_number	1
_symmetry_cell_setting	triclinic
loop_
_symmetry_equiv_pos_as_xyz
  x,y,z
_cell_length_a	9.2467
_cell_length_b	10.715
_cell_length_c	10.84
_cell_angle_alpha	86.19
_cell_angle_beta	84.05
_cell_angle_gamma	81.42
loop_
_atom_site_label
_atom_site_type_symbol
_atom_site_fract_x
_atom_site_fract_y
_atom_site_fract_z
_atom_site_charge
Mof_La	La	0.5306	0.73954	0.71967	1.872
Mof_La	La	0.47811	0.823	0.31405	2.187
Mof_C 	C 	0.2892	0.9896	0.867	0.482
Mof_C 	C 	0.143	0.9949	0.9422	-0.125
Mof_C 	C 	0.0244	0.0551	0.8825	0.016
Mof_H 	H 	0.0405	0.0934	0.8037	0.039
Mof_C 	C 	0.8811	0.0593	0.9387	-0.048
Mof_C 	C 	0.756	0.1156	0.8629	0.301
Mof_C 	C 	0.7821	0.8791	0.6504	0.351
Mof_C 	C 	0.8972	0.94	0.573	-0.07
Mof_C 	C 	0.0432	0.9171	0.5988	0.033
Mof_H 	H 	0.0716	0.8609	0.664	0.009
Mof_C 	C 	0.146	0.9787	0.5266	-0.124
Mof_C 	C 	0.3032	0.9669	0.5593	0.454
Mof_C 	C 	0.2806	0.5476	0.3697	0.403
Mof_C 	C 	0.1357	0.5188	0.4387	-0.085
Mof_C 	C 	0.0075	0.5932	0.4049	0.014
Mof_H 	H 	0.0126	0.656	0.3418	0.037
Mof_C 	C 	0.8713	0.5734	0.4655	-0.085
Mof_C 	C 	0.7372	0.651	0.4219	0.378
Mof_O 	O 	0.3835	0.8593	0.5453	-0.607
Mof_O 	O 	0.6239	0.6769	0.4986	-0.549
Mof_O 	O 	0.6289	0.092	0.8997	-0.432
Mof_O 	O 	0.7815	0.1763	0.7637	-0.431
Mof_O 	O 	0.3426	0.0603	0.598	-0.504
Mof_O 	O 	0.347	0.0885	0.8485	-0.506
Mof_O 	O 	0.7355	0.6879	0.3105	-0.464
Mof_O 	O 	0.8085	0.7674	0.6922	-0.427
Mof_O 	O 	0.6536	0.9436	0.6684	-0.57
Mof_O 	O 	0.3416	0.6311	0.4086	-0.482
Mof_O 	O 	0.3286	0.486	0.2733	-0.511
Mof_O 	O 	0.3357	0.8857	0.8175	-0.558
Mof_La	La	0.4694	0.26046	0.28033	1.873
Mof_La	La	0.52189	0.177	0.68595	2.188
Mof_C 	C 	0.7108	0.0104	0.133	0.483
Mof_C 	C 	0.857	0.0051	0.0578	-0.124
Mof_C 	C 	0.9756	0.9449	0.1175	0.016
Mof_H 	H 	0.9595	0.9066	0.1963	0.039
Mof_C 	C 	0.1189	0.9407	0.0613	-0.048
Mof_C 	C 	0.244	0.8844	0.1371	0.301
Mof_C 	C 	0.2179	0.1209	0.3496	0.351
Mof_C 	C 	0.1028	0.06	0.427	-0.07
Mof_C 	C 	0.9568	0.0829	0.4012	0.033
Mof_H 	H 	0.9284	0.1391	0.336	0.009
Mof_C 	C 	0.854	0.0213	0.4734	-0.124
Mof_C 	C 	0.6968	0.0331	0.4407	0.454
Mof_C 	C 	0.7194	0.4524	0.6303	0.403
Mof_C 	C 	0.8643	0.4812	0.5613	-0.085
Mof_C 	C 	0.9925	0.4068	0.5951	0.014
Mof_H 	H 	0.9874	0.344	0.6582	0.037
Mof_C 	C 	0.1287	0.4266	0.5345	-0.085
Mof_C 	C 	0.2628	0.349	0.5781	0.378
Mof_O 	O 	0.6165	0.1407	0.4547	-0.607
Mof_O 	O 	0.3761	0.3231	0.5014	-0.549
Mof_O 	O 	0.3711	0.908	0.1003	-0.432
Mof_O 	O 	0.2185	0.8237	0.2363	-0.431
Mof_O 	O 	0.6574	0.9397	0.402	-0.504
Mof_O 	O 	0.653	0.9115	0.1515	-0.506
Mof_O 	O 	0.2645	0.3121	0.6895	-0.464
Mof_O 	O 	0.1915	0.2326	0.3078	-0.427
Mof_O 	O 	0.3464	0.0564	0.3316	-0.57
Mof_O 	O 	0.6584	0.3689	0.5914	-0.482
Mof_O 	O 	0.6714	0.514	0.7267	-0.511
Mof_O 	O 	0.6643	0.1143	0.1825	-0.558
_end
