data_functionalizedCrystal
_audit_creation_method	'EQeq! by Chris Wilmer'
_symmetry_space_group_name_H-M	'P1'
_symmetry_Int_Tables_number	1
_symmetry_cell_setting	triclinic
loop_
_symmetry_equiv_pos_as_xyz
  x,y,z
_cell_length_a	10.931
_cell_length_b	16.2099
_cell_length_c	43.602
_cell_angle_alpha	90
_cell_angle_beta	92.754
_cell_angle_gamma	90
loop_
_atom_site_label
_atom_site_type_symbol
_atom_site_fract_x
_atom_site_fract_y
_atom_site_fract_z
_atom_site_charge
Mof_C 	C 	0.3236	0.7652	0.25763	0.377
Mof_C 	C 	0.3108	0.7668	0.29178	-0.1
Mof_C 	C 	0.3565	0.7013	0.30867	-0.012
Mof_H 	H 	0.3897	0.6564	0.2987	0.048
Mof_C 	C 	0.3538	0.7011	0.34093	-0.016
Mof_H 	H 	0.3848	0.656	0.352	0.049
Mof_C 	C 	0.3062	0.7664	0.35622	-0.094
Mof_C 	C 	0.1952	0.9016	0.35423	-0.079
Mof_H 	H 	0.1933	0.9023	0.3755	0.068
Mof_C 	C 	0.1423	0.9647	0.33766	-0.027
Mof_H 	H 	0.1065	0.0085	0.3477	0.036
Mof_C 	C 	0.1419	0.9637	0.30515	-0.028
Mof_H 	H 	0.1048	0.0065	0.2939	0.038
Mof_C 	C 	0.1959	0.9002	0.29027	-0.077
Mof_H 	H 	0.194	0.8996	0.2689	0.066
Mof_C 	C 	0.2549	0.8349	0.30704	0.041
Mof_C 	C 	0.2535	0.8344	0.33951	0.043
Mof_C 	C 	0.3121	0.7624	0.39066	0.364
Mof_C 	C 	0.548	0.7662	0.19886	0.377
Mof_C 	C 	0.6859	0.7705	0.20251	-0.097
Mof_C 	C 	0.7513	0.7038	0.19323	-0.017
Mof_H 	H 	0.7101	0.6566	0.1864	0.046
Mof_C 	C 	0.879	0.7056	0.19381	-0.009
Mof_H 	H 	0.9213	0.6592	0.1876	0.047
Mof_C 	C 	0.9438	0.7744	0.20336	-0.108
Mof_C 	C 	0.9375	0.9199	0.22434	-0.091
Mof_H 	H 	0.0225	0.9232	0.2246	0.081
Mof_C 	C 	0.8722	0.986	0.23405	-0.013
Mof_H 	H 	0.9129	0.0339	0.2404	0.039
Mof_C 	C 	0.7445	0.982	0.23457	-0.03
Mof_H 	H 	0.7009	0.027	0.2415	0.045
Mof_C 	C 	0.6835	0.9125	0.22497	-0.068
Mof_H 	H 	0.5987	0.9101	0.2259	0.065
Mof_C 	C 	0.7486	0.8431	0.21348	0.038
Mof_C 	C 	0.8791	0.8462	0.21384	0.055
Mof_C 	C 	0.0816	0.7691	0.20208	0.397
Mof_C 	C 	0.2892	0.7816	0.14003	0.391
Mof_C 	C 	0.2785	0.7773	0.10544	-0.107
Mof_C 	C 	0.3215	0.7068	0.09256	-0.007
Mof_H 	H 	0.35	0.6641	0.1052	0.046
Mof_C 	C 	0.3236	0.6974	0.06062	-0.023
Mof_H 	H 	0.3502	0.648	0.0524	0.05
Mof_C 	C 	0.2868	0.7605	0.0414	-0.093
Mof_C 	C 	0.1834	0.8969	0.03409	-0.071
Mof_H 	H 	0.1856	0.8915	0.0129	0.064
Mof_C 	C 	0.132	0.9644	0.04622	-0.033
Mof_H 	H 	0.1009	0.0056	0.0332	0.041
Mof_C 	C 	0.1245	0.9738	0.07802	-0.017
Mof_H 	H 	0.0891	0.0209	0.0859	0.04
Mof_C 	C 	0.1693	0.9133	0.09742	-0.091
Mof_H 	H 	0.161	0.919	0.1184	0.085
Mof_C 	C 	0.2282	0.8422	0.08614	0.056
Mof_C 	C 	0.2348	0.8335	0.05376	0.037
Mof_C 	C 	0.3076	0.7506	0.00769	0.367
Mof_C 	C 	0.551	0.7551	0.94792	0.367
Mof_C 	C 	0.6871	0.751	0.94427	-0.096
Mof_C 	C 	0.7585	0.8128	0.95702	-0.017
Mof_H 	H 	0.7217	0.8584	0.9657	0.046
Mof_C 	C 	0.8867	0.8078	0.95711	-0.013
Mof_H 	H 	0.9336	0.8488	0.9668	0.046
Mof_C 	C 	0.9441	0.7438	0.94317	-0.101
Mof_C 	C 	0.9233	0.6149	0.9111	-0.09
Mof_H 	H 	0.0079	0.611	0.9102	0.08
Mof_C 	C 	0.851	0.5572	0.89628	-0.017
Mof_H 	H 	0.887	0.5149	0.8855	0.037
Mof_C 	C 	0.7233	0.5611	0.89709	-0.032
Mof_H 	H 	0.675	0.5218	0.8868	0.044
Mof_C 	C 	0.6699	0.6226	0.91303	-0.075
Mof_H 	H 	0.585	0.6246	0.9136	0.069
Mof_C 	C 	0.7421	0.6841	0.92882	0.039
Mof_C 	C 	0.8727	0.6803	0.92788	0.052
Mof_C 	C 	0.0831	0.7436	0.94591	0.381
Mof_C 	C 	0.4223	0.5154	0.19169	0.117
Mof_H 	H 	0.4947	0.5449	0.1947	-0.013
Mof_C 	C 	0.4283	0.4318	0.18659	-0.213
Mof_H 	H 	0.504	0.4058	0.1862	0.114
Mof_C 	C 	0.3224	0.3863	0.18205	0.169
Mof_C 	C 	0.2125	0.4279	0.18311	-0.21
Mof_H 	H 	0.1389	0.3994	0.1803	0.106
Mof_C 	C 	0.2119	0.5123	0.18838	0.117
Mof_H 	H 	0.1372	0.5395	0.1891	-0.017
Mof_C 	C 	0.326	0.2951	0.17683	-0.185
Mof_H 	H 	0.3938	0.2815	0.1642	0.088
Mof_H 	H 	0.2508	0.2775	0.166	0.085
Mof_C 	C 	0.341	0.2497	0.20774	-0.183
Mof_H 	H 	0.4183	0.2661	0.2178	0.093
Mof_H 	H 	0.2762	0.2673	0.2207	0.091
Mof_C 	C 	0.3383	0.157	0.20546	0.158
Mof_C 	C 	0.3159	0.1159	0.17752	-0.196
Mof_H 	H 	0.3047	0.1455	0.1593	0.101
Mof_C 	C 	0.3107	0.0311	0.17737	0.106
Mof_H 	H 	0.2936	0.0046	0.1588	-0.009
Mof_C 	C 	0.3549	0.024	0.22897	0.117
Mof_H 	H 	0.3697	0.9928	0.2467	-0.014
Mof_C 	C 	0.3608	0.1087	0.23138	-0.212
Mof_H 	H 	0.3798	0.1333	0.2503	0.117
Mof_C 	C 	0.3449	0.4947	0.98119	0.13
Mof_H 	H 	0.3389	0.5267	0.9987	-0.017
Mof_C 	C 	0.3612	0.4113	0.98458	-0.228
Mof_H 	H 	0.3682	0.3881	0.0041	0.125
Mof_C 	C 	0.3673	0.362	0.9591	0.176
Mof_C 	C 	0.3585	0.4009	0.93061	-0.22
Mof_H 	H 	0.3623	0.37	0.9127	0.107
Mof_C 	C 	0.3442	0.4849	0.92899	0.126
Mof_H 	H 	0.3394	0.5099	0.9098	-0.021
Mof_C 	C 	0.387	0.2702	0.9623	-0.192
Mof_H 	H 	0.4378	0.2511	0.9461	0.092
Mof_H 	H 	0.4298	0.2587	0.9818	0.096
Mof_C 	C 	0.2694	0.225	0.96055	-0.172
Mof_H 	H 	0.2211	0.2441	0.9427	0.083
Mof_H 	H 	0.2245	0.2381	0.9786	0.084
Mof_C 	C 	0.2834	0.1324	0.95852	0.166
Mof_C 	C 	0.1884	0.0853	0.94809	-0.228
Mof_H 	H 	0.1135	0.1102	0.943	0.112
Mof_C 	C 	0.1998	0.0018	0.94487	0.138
Mof_H 	H 	0.131	0.9715	0.9384	-0.024
Mof_C 	C 	0.3998	0.0059	0.96142	0.121
Mof_H 	H 	0.473	0.9787	0.9664	-0.015
Mof_C 	C 	0.3939	0.0906	0.96563	-0.207
Mof_H 	H 	0.4625	0.1196	0.9731	0.115
Mof_N 	N 	0.3292	0.9845	0.20272	-0.267
Mof_N 	N 	0.3151	0.5557	0.19239	-0.27
Mof_N 	N 	0.337	0.5321	0.95391	-0.276
Mof_N 	N 	0.3038	0.9621	0.95049	-0.274
Mof_O 	O 	0.4923	0.8307	0.19073	-0.466
Mof_O 	O 	0.4985	0.6973	0.20357	-0.455
Mof_O 	O 	0.3559	0.8308	0.24461	-0.458
Mof_O 	O 	0.3054	0.6971	0.2447	-0.456
Mof_O 	O 	0.1261	0.6993	0.19716	-0.456
Mof_O 	O 	0.144	0.8334	0.20604	-0.486
Mof_O 	O 	0.2802	0.8512	0.15295	-0.451
Mof_O 	O 	0.3096	0.7155	0.15401	-0.477
Mof_O 	O 	0.4991	0.6913	0.95729	-0.468
Mof_O 	O 	0.4984	0.8235	0.9418	-0.444
Mof_O 	O 	0.2908	0.6797	0.99639	-0.452
Mof_O 	O 	0.3447	0.8128	0.99341	-0.467
Mof_O 	O 	0.1397	0.6775	0.94185	-0.466
Mof_O 	O 	0.1343	0.8119	0.95265	-0.458
Mof_O 	O 	0.3433	0.8263	0.40544	-0.452
Mof_O 	O 	0.2858	0.6928	0.40251	-0.443
Mof_Zn	Zn	0.31886	0.86031	0.1989	1.217
Mof_Zn	Zn	0.31172	0.67943	0.1985	1.215
Mof_Zn	Zn	0.32004	0.65574	0.95168	1.215
Mof_Zn	Zn	0.3154	0.8373	0.94787	1.214
Mof_C 	C 	0.3236	0.7348	0.75763	0.376
Mof_C 	C 	0.3108	0.7332	0.79178	-0.101
Mof_C 	C 	0.3565	0.7987	0.80867	-0.012
Mof_H 	H 	0.3897	0.8436	0.7987	0.047
Mof_C 	C 	0.3538	0.7989	0.84093	-0.016
Mof_H 	H 	0.3848	0.844	0.852	0.049
Mof_C 	C 	0.3062	0.7336	0.85622	-0.094
Mof_C 	C 	0.1952	0.5984	0.85423	-0.079
Mof_H 	H 	0.1933	0.5977	0.8755	0.068
Mof_C 	C 	0.1423	0.5353	0.83766	-0.028
Mof_H 	H 	0.1065	0.4915	0.8477	0.038
Mof_C 	C 	0.1419	0.5363	0.80515	-0.031
Mof_H 	H 	0.1048	0.4935	0.7939	0.04
Mof_C 	C 	0.1959	0.5998	0.79027	-0.076
Mof_H 	H 	0.194	0.6004	0.7689	0.065
Mof_C 	C 	0.2549	0.6651	0.80704	0.041
Mof_C 	C 	0.2535	0.6656	0.83951	0.042
Mof_C 	C 	0.3121	0.7376	0.89066	0.364
Mof_C 	C 	0.548	0.7338	0.69886	0.377
Mof_C 	C 	0.6859	0.7295	0.70251	-0.097
Mof_C 	C 	0.7513	0.7962	0.69323	-0.017
Mof_H 	H 	0.7101	0.8434	0.6864	0.046
Mof_C 	C 	0.879	0.7944	0.69381	-0.009
Mof_H 	H 	0.9213	0.8408	0.6876	0.047
Mof_C 	C 	0.9438	0.7256	0.70336	-0.107
Mof_C 	C 	0.9375	0.5801	0.72434	-0.09
Mof_H 	H 	0.0225	0.5768	0.7246	0.08
Mof_C 	C 	0.8722	0.514	0.73405	-0.015
Mof_H 	H 	0.9129	0.4661	0.7404	0.04
Mof_C 	C 	0.7445	0.518	0.73457	-0.032
Mof_H 	H 	0.7009	0.473	0.7415	0.047
Mof_C 	C 	0.6835	0.5875	0.72497	-0.067
Mof_H 	H 	0.5987	0.5899	0.7259	0.065
Mof_C 	C 	0.7486	0.6569	0.71348	0.038
Mof_C 	C 	0.8791	0.6538	0.71384	0.054
Mof_C 	C 	0.0816	0.7309	0.70208	0.397
Mof_C 	C 	0.2892	0.7184	0.64003	0.391
Mof_C 	C 	0.2785	0.7227	0.60544	-0.107
Mof_C 	C 	0.3215	0.7932	0.59256	-0.007
Mof_H 	H 	0.35	0.8359	0.6052	0.046
Mof_C 	C 	0.3236	0.8026	0.56062	-0.023
Mof_H 	H 	0.3502	0.852	0.5524	0.05
Mof_C 	C 	0.2868	0.7395	0.5414	-0.094
Mof_C 	C 	0.1834	0.6031	0.53409	-0.072
Mof_H 	H 	0.1856	0.6085	0.5129	0.064
Mof_C 	C 	0.132	0.5356	0.54622	-0.032
Mof_H 	H 	0.1009	0.4944	0.5332	0.041
Mof_C 	C 	0.1245	0.5262	0.57802	-0.02
Mof_H 	H 	0.0891	0.4791	0.5859	0.042
Mof_C 	C 	0.1693	0.5867	0.59742	-0.09
Mof_H 	H 	0.161	0.581	0.6184	0.084
Mof_C 	C 	0.2282	0.6578	0.58614	0.055
Mof_C 	C 	0.2348	0.6665	0.55376	0.037
Mof_C 	C 	0.3076	0.7494	0.50769	0.368
Mof_C 	C 	0.551	0.7449	0.44792	0.367
Mof_C 	C 	0.6871	0.749	0.44427	-0.096
Mof_C 	C 	0.7585	0.6872	0.45702	-0.017
Mof_H 	H 	0.7217	0.6416	0.4657	0.046
Mof_C 	C 	0.8867	0.6922	0.45711	-0.013
Mof_H 	H 	0.9336	0.6512	0.4668	0.046
Mof_C 	C 	0.9441	0.7562	0.44317	-0.101
Mof_C 	C 	0.9233	0.8851	0.4111	-0.09
Mof_H 	H 	0.0079	0.889	0.4102	0.08
Mof_C 	C 	0.851	0.9428	0.39628	-0.017
Mof_H 	H 	0.887	0.9851	0.3855	0.037
Mof_C 	C 	0.7233	0.9389	0.39709	-0.032
Mof_H 	H 	0.675	0.9782	0.3868	0.045
Mof_C 	C 	0.6699	0.8774	0.41303	-0.075
Mof_H 	H 	0.585	0.8754	0.4136	0.069
Mof_C 	C 	0.7421	0.8159	0.42882	0.039
Mof_C 	C 	0.8727	0.8197	0.42788	0.052
Mof_C 	C 	0.0831	0.7564	0.44591	0.381
Mof_C 	C 	0.4223	0.9846	0.69169	0.113
Mof_H 	H 	0.4947	0.9551	0.6947	-0.012
Mof_C 	C 	0.4283	0.0682	0.68659	-0.208
Mof_H 	H 	0.504	0.0942	0.6862	0.113
Mof_C 	C 	0.3224	0.1137	0.68205	0.166
Mof_C 	C 	0.2125	0.0721	0.68311	-0.206
Mof_H 	H 	0.1389	0.1006	0.6803	0.105
Mof_C 	C 	0.2119	0.9877	0.68838	0.113
Mof_H 	H 	0.1372	0.9605	0.6891	-0.016
Mof_C 	C 	0.326	0.2049	0.67683	-0.182
Mof_H 	H 	0.3938	0.2185	0.6642	0.087
Mof_H 	H 	0.2508	0.2225	0.666	0.084
Mof_C 	C 	0.341	0.2503	0.70774	-0.187
Mof_H 	H 	0.4183	0.2339	0.7178	0.094
Mof_H 	H 	0.2762	0.2327	0.7207	0.092
Mof_C 	C 	0.3383	0.343	0.70546	0.161
Mof_C 	C 	0.3159	0.3841	0.67752	-0.199
Mof_H 	H 	0.3047	0.3545	0.6593	0.102
Mof_C 	C 	0.3107	0.4689	0.67737	0.109
Mof_H 	H 	0.2936	0.4954	0.6588	-0.01
Mof_C 	C 	0.3549	0.476	0.72897	0.123
Mof_H 	H 	0.3697	0.5072	0.7467	-0.017
Mof_C 	C 	0.3608	0.3913	0.73138	-0.217
Mof_H 	H 	0.3798	0.3667	0.7503	0.118
Mof_C 	C 	0.3449	0.0053	0.48119	0.129
Mof_H 	H 	0.3389	0.9733	0.4987	-0.016
Mof_C 	C 	0.3612	0.0887	0.48458	-0.226
Mof_H 	H 	0.3682	0.1119	0.5041	0.124
Mof_C 	C 	0.3673	0.138	0.4591	0.175
Mof_C 	C 	0.3585	0.0991	0.43061	-0.218
Mof_H 	H 	0.3623	0.13	0.4127	0.107
Mof_C 	C 	0.3442	0.0151	0.42899	0.123
Mof_H 	H 	0.3394	0.9901	0.4098	-0.019
Mof_C 	C 	0.387	0.2298	0.4623	-0.192
Mof_H 	H 	0.4378	0.2489	0.4461	0.092
Mof_H 	H 	0.4298	0.2413	0.4818	0.096
Mof_C 	C 	0.2694	0.275	0.46055	-0.172
Mof_H 	H 	0.2211	0.2559	0.4427	0.083
Mof_H 	H 	0.2245	0.2619	0.4786	0.085
Mof_C 	C 	0.2834	0.3676	0.45852	0.166
Mof_C 	C 	0.1884	0.4147	0.44809	-0.227
Mof_H 	H 	0.1135	0.3898	0.443	0.112
Mof_C 	C 	0.1998	0.4982	0.44487	0.137
Mof_H 	H 	0.131	0.5285	0.4384	-0.023
Mof_C 	C 	0.3998	0.4941	0.46142	0.12
Mof_H 	H 	0.473	0.5213	0.4664	-0.015
Mof_C 	C 	0.3939	0.4094	0.46563	-0.206
Mof_H 	H 	0.4625	0.3804	0.4731	0.115
Mof_N 	N 	0.3292	0.5155	0.70272	-0.27
Mof_N 	N 	0.3151	0.9443	0.69239	-0.268
Mof_N 	N 	0.337	0.9679	0.45391	-0.275
Mof_N 	N 	0.3038	0.5379	0.45049	-0.273
Mof_O 	O 	0.4923	0.6693	0.69073	-0.466
Mof_O 	O 	0.4985	0.8027	0.70357	-0.455
Mof_O 	O 	0.3559	0.6692	0.74461	-0.458
Mof_O 	O 	0.3054	0.8029	0.7447	-0.456
Mof_O 	O 	0.1261	0.8007	0.69716	-0.456
Mof_O 	O 	0.144	0.6666	0.70604	-0.486
Mof_O 	O 	0.2802	0.6488	0.65295	-0.451
Mof_O 	O 	0.3096	0.7845	0.65401	-0.477
Mof_O 	O 	0.4991	0.8087	0.45729	-0.468
Mof_O 	O 	0.4984	0.6765	0.4418	-0.444
Mof_O 	O 	0.2908	0.8203	0.49639	-0.453
Mof_O 	O 	0.3447	0.6872	0.49341	-0.467
Mof_O 	O 	0.1397	0.8225	0.44185	-0.466
Mof_O 	O 	0.1343	0.6881	0.45265	-0.458
Mof_O 	O 	0.3433	0.6737	0.90544	-0.452
Mof_O 	O 	0.2858	0.8072	0.90251	-0.443
Mof_Zn	Zn	0.31886	0.63969	0.6989	1.217
Mof_Zn	Zn	0.31172	0.82057	0.6985	1.215
Mof_Zn	Zn	0.32004	0.84426	0.45168	1.215
Mof_Zn	Zn	0.3154	0.6627	0.44787	1.214
Mof_C 	C 	0.6764	0.2652	0.24237	0.376
Mof_C 	C 	0.6892	0.2668	0.20822	-0.101
Mof_C 	C 	0.6435	0.2013	0.19133	-0.012
Mof_H 	H 	0.6103	0.1564	0.2013	0.047
Mof_C 	C 	0.6462	0.2011	0.15907	-0.016
Mof_H 	H 	0.6152	0.156	0.148	0.049
Mof_C 	C 	0.6938	0.2664	0.14378	-0.094
Mof_C 	C 	0.8048	0.4016	0.14577	-0.079
Mof_H 	H 	0.8067	0.4023	0.1245	0.068
Mof_C 	C 	0.8577	0.4647	0.16234	-0.028
Mof_H 	H 	0.8935	0.5085	0.1523	0.038
Mof_C 	C 	0.8581	0.4637	0.19485	-0.031
Mof_H 	H 	0.8952	0.5065	0.2061	0.04
Mof_C 	C 	0.8041	0.4002	0.20973	-0.076
Mof_H 	H 	0.806	0.3996	0.2311	0.065
Mof_C 	C 	0.7451	0.3349	0.19296	0.041
Mof_C 	C 	0.7465	0.3344	0.16049	0.042
Mof_C 	C 	0.6879	0.2624	0.10934	0.364
Mof_C 	C 	0.452	0.2662	0.30114	0.377
Mof_C 	C 	0.3141	0.2705	0.29749	-0.097
Mof_C 	C 	0.2487	0.2038	0.30677	-0.017
Mof_H 	H 	0.2899	0.1566	0.3136	0.046
Mof_C 	C 	0.121	0.2056	0.30619	-0.009
Mof_H 	H 	0.0787	0.1592	0.3124	0.047
Mof_C 	C 	0.0562	0.2744	0.29664	-0.107
Mof_C 	C 	0.0625	0.4199	0.27566	-0.09
Mof_H 	H 	0.9775	0.4232	0.2754	0.08
Mof_C 	C 	0.1278	0.486	0.26595	-0.015
Mof_H 	H 	0.0871	0.5339	0.2596	0.04
Mof_C 	C 	0.2555	0.482	0.26543	-0.032
Mof_H 	H 	0.2991	0.527	0.2585	0.047
Mof_C 	C 	0.3165	0.4125	0.27503	-0.067
Mof_H 	H 	0.4013	0.4101	0.2741	0.065
Mof_C 	C 	0.2514	0.3431	0.28652	0.038
Mof_C 	C 	0.1209	0.3462	0.28616	0.054
Mof_C 	C 	0.9184	0.2691	0.29792	0.397
Mof_C 	C 	0.7108	0.2816	0.35997	0.391
Mof_C 	C 	0.7215	0.2773	0.39456	-0.107
Mof_C 	C 	0.6785	0.2068	0.40744	-0.007
Mof_H 	H 	0.65	0.1641	0.3948	0.046
Mof_C 	C 	0.6764	0.1974	0.43938	-0.023
Mof_H 	H 	0.6498	0.148	0.4476	0.05
Mof_C 	C 	0.7132	0.2605	0.4586	-0.094
Mof_C 	C 	0.8166	0.3969	0.46591	-0.072
Mof_H 	H 	0.8144	0.3915	0.4871	0.064
Mof_C 	C 	0.868	0.4644	0.45378	-0.032
Mof_H 	H 	0.8991	0.5056	0.4668	0.041
Mof_C 	C 	0.8755	0.4738	0.42198	-0.02
Mof_H 	H 	0.9109	0.5209	0.4141	0.042
Mof_C 	C 	0.8307	0.4133	0.40258	-0.09
Mof_H 	H 	0.839	0.419	0.3816	0.084
Mof_C 	C 	0.7718	0.3422	0.41386	0.055
Mof_C 	C 	0.7652	0.3335	0.44624	0.037
Mof_C 	C 	0.6924	0.2506	0.49231	0.368
Mof_C 	C 	0.449	0.2551	0.55208	0.367
Mof_C 	C 	0.3129	0.251	0.55573	-0.096
Mof_C 	C 	0.2415	0.3128	0.54298	-0.017
Mof_H 	H 	0.2783	0.3584	0.5343	0.046
Mof_C 	C 	0.1133	0.3078	0.54289	-0.013
Mof_H 	H 	0.0664	0.3488	0.5332	0.046
Mof_C 	C 	0.0559	0.2438	0.55683	-0.101
Mof_C 	C 	0.0767	0.1149	0.5889	-0.09
Mof_H 	H 	0.9921	0.111	0.5898	0.08
Mof_C 	C 	0.149	0.0572	0.60372	-0.017
Mof_H 	H 	0.113	0.0149	0.6145	0.037
Mof_C 	C 	0.2767	0.0611	0.60291	-0.032
Mof_H 	H 	0.325	0.0218	0.6132	0.045
Mof_C 	C 	0.3301	0.1226	0.58697	-0.075
Mof_H 	H 	0.415	0.1246	0.5864	0.069
Mof_C 	C 	0.2579	0.1841	0.57118	0.039
Mof_C 	C 	0.1273	0.1803	0.57212	0.052
Mof_C 	C 	0.9169	0.2436	0.55409	0.381
Mof_C 	C 	0.5777	0.0154	0.30831	0.113
Mof_H 	H 	0.5053	0.0449	0.3053	-0.012
Mof_C 	C 	0.5717	0.9318	0.31341	-0.208
Mof_H 	H 	0.496	0.9058	0.3138	0.113
Mof_C 	C 	0.6776	0.8863	0.31795	0.166
Mof_C 	C 	0.7875	0.9279	0.31689	-0.206
Mof_H 	H 	0.8611	0.8994	0.3197	0.105
Mof_C 	C 	0.7881	0.0123	0.31162	0.113
Mof_H 	H 	0.8628	0.0395	0.3109	-0.016
Mof_C 	C 	0.674	0.7951	0.32317	-0.182
Mof_H 	H 	0.6062	0.7815	0.3358	0.087
Mof_H 	H 	0.7492	0.7775	0.334	0.084
Mof_C 	C 	0.659	0.7497	0.29226	-0.187
Mof_H 	H 	0.5817	0.7661	0.2822	0.094
Mof_H 	H 	0.7238	0.7673	0.2793	0.092
Mof_C 	C 	0.6617	0.657	0.29454	0.161
Mof_C 	C 	0.6841	0.6159	0.32248	-0.199
Mof_H 	H 	0.6953	0.6455	0.3407	0.102
Mof_C 	C 	0.6893	0.5311	0.32263	0.109
Mof_H 	H 	0.7064	0.5046	0.3412	-0.01
Mof_C 	C 	0.6451	0.524	0.27103	0.123
Mof_H 	H 	0.6303	0.4928	0.2533	-0.017
Mof_C 	C 	0.6392	0.6087	0.26862	-0.217
Mof_H 	H 	0.6202	0.6333	0.2497	0.118
Mof_C 	C 	0.6551	0.9947	0.51881	0.129
Mof_H 	H 	0.6611	0.0267	0.5013	-0.016
Mof_C 	C 	0.6388	0.9113	0.51542	-0.226
Mof_H 	H 	0.6318	0.8881	0.4959	0.124
Mof_C 	C 	0.6327	0.862	0.5409	0.175
Mof_C 	C 	0.6415	0.9009	0.56939	-0.218
Mof_H 	H 	0.6377	0.87	0.5873	0.107
Mof_C 	C 	0.6558	0.9849	0.57101	0.123
Mof_H 	H 	0.6606	0.0099	0.5902	-0.019
Mof_C 	C 	0.613	0.7702	0.5377	-0.192
Mof_H 	H 	0.5622	0.7511	0.5539	0.092
Mof_H 	H 	0.5702	0.7587	0.5182	0.096
Mof_C 	C 	0.7306	0.725	0.53945	-0.172
Mof_H 	H 	0.7789	0.7441	0.5573	0.083
Mof_H 	H 	0.7755	0.7381	0.5214	0.085
Mof_C 	C 	0.7166	0.6324	0.54148	0.166
Mof_C 	C 	0.8116	0.5853	0.55191	-0.227
Mof_H 	H 	0.8865	0.6102	0.557	0.112
Mof_C 	C 	0.8002	0.5018	0.55513	0.137
Mof_H 	H 	0.869	0.4715	0.5616	-0.023
Mof_C 	C 	0.6002	0.5059	0.53858	0.12
Mof_H 	H 	0.527	0.4787	0.5336	-0.015
Mof_C 	C 	0.6061	0.5906	0.53437	-0.206
Mof_H 	H 	0.5375	0.6196	0.5269	0.115
Mof_N 	N 	0.6708	0.4845	0.29728	-0.27
Mof_N 	N 	0.6849	0.0557	0.30761	-0.268
Mof_N 	N 	0.663	0.0321	0.54609	-0.275
Mof_N 	N 	0.6962	0.4621	0.54951	-0.273
Mof_O 	O 	0.5077	0.3307	0.30927	-0.466
Mof_O 	O 	0.5015	0.1973	0.29643	-0.455
Mof_O 	O 	0.6441	0.3308	0.25539	-0.458
Mof_O 	O 	0.6946	0.1971	0.2553	-0.456
Mof_O 	O 	0.8739	0.1993	0.30284	-0.456
Mof_O 	O 	0.856	0.3334	0.29396	-0.486
Mof_O 	O 	0.7198	0.3512	0.34705	-0.451
Mof_O 	O 	0.6904	0.2155	0.34599	-0.477
Mof_O 	O 	0.5009	0.1913	0.54271	-0.468
Mof_O 	O 	0.5016	0.3235	0.5582	-0.444
Mof_O 	O 	0.7092	0.1797	0.50361	-0.453
Mof_O 	O 	0.6553	0.3128	0.50659	-0.467
Mof_O 	O 	0.8603	0.1775	0.55815	-0.466
Mof_O 	O 	0.8657	0.3119	0.54735	-0.458
Mof_O 	O 	0.6567	0.3263	0.09456	-0.452
Mof_O 	O 	0.7142	0.1928	0.09749	-0.443
Mof_Zn	Zn	0.68114	0.36031	0.3011	1.217
Mof_Zn	Zn	0.68828	0.17943	0.3015	1.215
Mof_Zn	Zn	0.67996	0.15574	0.54832	1.215
Mof_Zn	Zn	0.6846	0.3373	0.55213	1.214
Mof_C 	C 	0.6764	0.2348	0.74237	0.376
Mof_C 	C 	0.6892	0.2332	0.70822	-0.101
Mof_C 	C 	0.6435	0.2987	0.69133	-0.012
Mof_H 	H 	0.6103	0.3436	0.7013	0.048
Mof_C 	C 	0.6462	0.2989	0.65907	-0.016
Mof_H 	H 	0.6152	0.344	0.648	0.049
Mof_C 	C 	0.6938	0.2336	0.64378	-0.094
Mof_C 	C 	0.8048	0.0984	0.64577	-0.079
Mof_H 	H 	0.8067	0.0977	0.6245	0.068
Mof_C 	C 	0.8577	0.0353	0.66234	-0.027
Mof_H 	H 	0.8935	0.9915	0.6523	0.036
Mof_C 	C 	0.8581	0.0363	0.69485	-0.028
Mof_H 	H 	0.8952	0.9935	0.7061	0.038
Mof_C 	C 	0.8041	0.0998	0.70973	-0.077
Mof_H 	H 	0.806	0.1004	0.7311	0.066
Mof_C 	C 	0.7451	0.1651	0.69296	0.041
Mof_C 	C 	0.7465	0.1656	0.66049	0.043
Mof_C 	C 	0.6879	0.2376	0.60934	0.364
Mof_C 	C 	0.452	0.2338	0.80114	0.377
Mof_C 	C 	0.3141	0.2295	0.79749	-0.097
Mof_C 	C 	0.2487	0.2962	0.80677	-0.017
Mof_H 	H 	0.2899	0.3434	0.8136	0.046
Mof_C 	C 	0.121	0.2944	0.80619	-0.009
Mof_H 	H 	0.0787	0.3408	0.8124	0.047
Mof_C 	C 	0.0562	0.2256	0.79664	-0.108
Mof_C 	C 	0.0625	0.0801	0.77566	-0.091
Mof_H 	H 	0.9775	0.0768	0.7754	0.081
Mof_C 	C 	0.1278	0.014	0.76595	-0.013
Mof_H 	H 	0.0871	0.9661	0.7596	0.039
Mof_C 	C 	0.2555	0.018	0.76543	-0.03
Mof_H 	H 	0.2991	0.973	0.7585	0.045
Mof_C 	C 	0.3165	0.0875	0.77503	-0.068
Mof_H 	H 	0.4013	0.0899	0.7741	0.065
Mof_C 	C 	0.2514	0.1569	0.78652	0.038
Mof_C 	C 	0.1209	0.1538	0.78616	0.055
Mof_C 	C 	0.9184	0.2309	0.79792	0.397
Mof_C 	C 	0.7108	0.2184	0.85997	0.391
Mof_C 	C 	0.7215	0.2227	0.89456	-0.107
Mof_C 	C 	0.6785	0.2932	0.90744	-0.007
Mof_H 	H 	0.65	0.3359	0.8948	0.046
Mof_C 	C 	0.6764	0.3026	0.93938	-0.023
Mof_H 	H 	0.6498	0.352	0.9476	0.05
Mof_C 	C 	0.7132	0.2395	0.9586	-0.093
Mof_C 	C 	0.8166	0.1031	0.96591	-0.071
Mof_H 	H 	0.8144	0.1085	0.9871	0.064
Mof_C 	C 	0.868	0.0356	0.95378	-0.033
Mof_H 	H 	0.8991	0.9944	0.9668	0.041
Mof_C 	C 	0.8755	0.0262	0.92198	-0.017
Mof_H 	H 	0.9109	0.9791	0.9141	0.04
Mof_C 	C 	0.8307	0.0867	0.90258	-0.091
Mof_H 	H 	0.839	0.081	0.8816	0.085
Mof_C 	C 	0.7718	0.1578	0.91386	0.056
Mof_C 	C 	0.7652	0.1665	0.94624	0.037
Mof_C 	C 	0.6924	0.2494	0.99231	0.367
Mof_C 	C 	0.449	0.2449	0.05208	0.367
Mof_C 	C 	0.3129	0.249	0.05573	-0.096
Mof_C 	C 	0.2415	0.1872	0.04298	-0.017
Mof_H 	H 	0.2783	0.1416	0.0343	0.046
Mof_C 	C 	0.1133	0.1922	0.04289	-0.013
Mof_H 	H 	0.0664	0.1512	0.0332	0.046
Mof_C 	C 	0.0559	0.2562	0.05683	-0.101
Mof_C 	C 	0.0767	0.3851	0.0889	-0.09
Mof_H 	H 	0.9921	0.389	0.0898	0.08
Mof_C 	C 	0.149	0.4428	0.10372	-0.017
Mof_H 	H 	0.113	0.4851	0.1145	0.037
Mof_C 	C 	0.2767	0.4389	0.10291	-0.032
Mof_H 	H 	0.325	0.4782	0.1132	0.044
Mof_C 	C 	0.3301	0.3774	0.08697	-0.075
Mof_H 	H 	0.415	0.3754	0.0864	0.069
Mof_C 	C 	0.2579	0.3159	0.07118	0.039
Mof_C 	C 	0.1273	0.3197	0.07212	0.052
Mof_C 	C 	0.9169	0.2564	0.05409	0.381
Mof_C 	C 	0.5777	0.4846	0.80831	0.117
Mof_H 	H 	0.5053	0.4551	0.8053	-0.013
Mof_C 	C 	0.5717	0.5682	0.81341	-0.213
Mof_H 	H 	0.496	0.5942	0.8138	0.114
Mof_C 	C 	0.6776	0.6137	0.81795	0.169
Mof_C 	C 	0.7875	0.5721	0.81689	-0.21
Mof_H 	H 	0.8611	0.6006	0.8197	0.106
Mof_C 	C 	0.7881	0.4877	0.81162	0.117
Mof_H 	H 	0.8628	0.4605	0.8109	-0.017
Mof_C 	C 	0.674	0.7049	0.82317	-0.185
Mof_H 	H 	0.6062	0.7185	0.8358	0.088
Mof_H 	H 	0.7492	0.7225	0.834	0.085
Mof_C 	C 	0.659	0.7503	0.79226	-0.183
Mof_H 	H 	0.5817	0.7339	0.7822	0.093
Mof_H 	H 	0.7238	0.7327	0.7793	0.091
Mof_C 	C 	0.6617	0.843	0.79454	0.158
Mof_C 	C 	0.6841	0.8841	0.82248	-0.196
Mof_H 	H 	0.6953	0.8545	0.8407	0.101
Mof_C 	C 	0.6893	0.9689	0.82263	0.106
Mof_H 	H 	0.7064	0.9954	0.8412	-0.009
Mof_C 	C 	0.6451	0.976	0.77103	0.117
Mof_H 	H 	0.6303	0.0072	0.7533	-0.014
Mof_C 	C 	0.6392	0.8913	0.76862	-0.212
Mof_H 	H 	0.6202	0.8667	0.7497	0.117
Mof_C 	C 	0.6551	0.5053	0.01881	0.13
Mof_H 	H 	0.6611	0.4733	0.0013	-0.017
Mof_C 	C 	0.6388	0.5887	0.01542	-0.228
Mof_H 	H 	0.6318	0.6119	0.9959	0.125
Mof_C 	C 	0.6327	0.638	0.0409	0.176
Mof_C 	C 	0.6415	0.5991	0.06939	-0.22
Mof_H 	H 	0.6377	0.63	0.0873	0.107
Mof_C 	C 	0.6558	0.5151	0.07101	0.126
Mof_H 	H 	0.6606	0.4901	0.0902	-0.021
Mof_C 	C 	0.613	0.7298	0.0377	-0.192
Mof_H 	H 	0.5622	0.7489	0.0539	0.092
Mof_H 	H 	0.5702	0.7413	0.0182	0.096
Mof_C 	C 	0.7306	0.775	0.03945	-0.172
Mof_H 	H 	0.7789	0.7559	0.0573	0.083
Mof_H 	H 	0.7755	0.7619	0.0214	0.084
Mof_C 	C 	0.7166	0.8676	0.04148	0.166
Mof_C 	C 	0.8116	0.9147	0.05191	-0.228
Mof_H 	H 	0.8865	0.8898	0.057	0.112
Mof_C 	C 	0.8002	0.9982	0.05513	0.138
Mof_H 	H 	0.869	0.0285	0.0616	-0.024
Mof_C 	C 	0.6002	0.9941	0.03858	0.121
Mof_H 	H 	0.527	0.0213	0.0336	-0.015
Mof_C 	C 	0.6061	0.9094	0.03437	-0.207
Mof_H 	H 	0.5375	0.8804	0.0269	0.115
Mof_N 	N 	0.6708	0.0155	0.79728	-0.267
Mof_N 	N 	0.6849	0.4443	0.80761	-0.27
Mof_N 	N 	0.663	0.4679	0.04609	-0.276
Mof_N 	N 	0.6962	0.0379	0.04951	-0.274
Mof_O 	O 	0.5077	0.1693	0.80927	-0.466
Mof_O 	O 	0.5015	0.3027	0.79643	-0.455
Mof_O 	O 	0.6441	0.1692	0.75539	-0.458
Mof_O 	O 	0.6946	0.3029	0.7553	-0.456
Mof_O 	O 	0.8739	0.3007	0.80284	-0.456
Mof_O 	O 	0.856	0.1666	0.79396	-0.486
Mof_O 	O 	0.7198	0.1488	0.84705	-0.451
Mof_O 	O 	0.6904	0.2845	0.84599	-0.477
Mof_O 	O 	0.5009	0.3087	0.04271	-0.468
Mof_O 	O 	0.5016	0.1765	0.0582	-0.444
Mof_O 	O 	0.7092	0.3203	0.00361	-0.452
Mof_O 	O 	0.6553	0.1872	0.00659	-0.467
Mof_O 	O 	0.8603	0.3225	0.05815	-0.466
Mof_O 	O 	0.8657	0.1881	0.04735	-0.458
Mof_O 	O 	0.6567	0.1737	0.59456	-0.452
Mof_O 	O 	0.7142	0.3072	0.59749	-0.443
Mof_Zn	Zn	0.68114	0.13969	0.8011	1.217
Mof_Zn	Zn	0.68828	0.32057	0.8015	1.215
Mof_Zn	Zn	0.67996	0.34426	0.04832	1.215
Mof_Zn	Zn	0.6846	0.1627	0.05213	1.214
_end
