data_functionalizedCrystal
_audit_creation_method	'EQeq! by Chris Wilmer'
_symmetry_space_group_name_H-M	'P1'
_symmetry_Int_Tables_number	1
_symmetry_cell_setting	triclinic
loop_
_symmetry_equiv_pos_as_xyz
  x,y,z
_cell_length_a	18.4882
_cell_length_b	26.6407
_cell_length_c	26.6407
_cell_angle_alpha	120
_cell_angle_beta	90
_cell_angle_gamma	90
loop_
_atom_site_label
_atom_site_type_symbol
_atom_site_fract_x
_atom_site_fract_y
_atom_site_fract_z
_atom_site_charge
Mof_Zn	Zn	0.41282	0.89177	0.33177	1.188
Mof_Zn	Zn	0.41282	0.44	0.10823	1.189
Mof_Zn	Zn	0.41282	0.66823	0.56	1.189
Mof_Zn	Zn	0.91282	0.10823	0.66823	1.19
Mof_Zn	Zn	0.91282	0.56	0.89177	1.19
Mof_Zn	Zn	0.91282	0.33177	0.44	1.19
Mof_Zn	Zn	0.58718	0.56	0.66823	1.189
Mof_Zn	Zn	0.58718	0.33177	0.89177	1.189
Mof_Zn	Zn	0.58718	0.10823	0.44	1.189
Mof_Zn	Zn	0.08718	0.44	0.33177	1.189
Mof_Zn	Zn	0.08718	0.66823	0.10823	1.189
Mof_Zn	Zn	0.08718	0.89177	0.56	1.189
Mof_Zn	Zn	0.58718	0.10823	0.66823	1.189
Mof_Zn	Zn	0.58718	0.56	0.89177	1.189
Mof_Zn	Zn	0.58718	0.33177	0.44	1.189
Mof_Zn	Zn	0.08718	0.89177	0.33177	1.189
Mof_Zn	Zn	0.08718	0.44	0.10823	1.189
Mof_Zn	Zn	0.08718	0.66823	0.56	1.189
Mof_Zn	Zn	0.41282	0.44	0.33177	1.189
Mof_Zn	Zn	0.41282	0.66823	0.10823	1.189
Mof_Zn	Zn	0.41282	0.89177	0.56	1.189
Mof_Zn	Zn	0.91282	0.56	0.66823	1.19
Mof_Zn	Zn	0.91282	0.33177	0.89177	1.19
Mof_Zn	Zn	0.91282	0.10823	0.44	1.19
Mof_H 	H 	0.58	0.8724	0.3029	0.051
Mof_H 	H 	0.6888	0.8331	0.2545	0.034
Mof_H 	H 	0.5053	0.8087	0.3554	0.007
Mof_H 	H 	0.4283	0.9117	0.219	0.04
Mof_H 	H 	0.469	0.9547	0.1651	0.03
Mof_H 	H 	0.3105	0.9824	0.3144	0.019
Mof_H 	H 	0.58	0.4305	0.1276	0.05
Mof_H 	H 	0.6888	0.4214	0.1669	0.033
Mof_H 	H 	0.5053	0.5467	0.1913	0.007
Mof_H 	H 	0.4283	0.3073	0.0883	0.036
Mof_H 	H 	0.469	0.2104	0.0453	0.035
Mof_H 	H 	0.3105	0.332	0.0176	0.017
Mof_H 	H 	0.58	0.6971	0.5695	0.051
Mof_H 	H 	0.6888	0.7455	0.5786	0.034
Mof_H 	H 	0.5053	0.6446	0.4533	0.007
Mof_H 	H 	0.4283	0.781	0.6927	0.038
Mof_H 	H 	0.469	0.8349	0.7896	0.034
Mof_H 	H 	0.3105	0.6856	0.668	0.018
Mof_H 	H 	0.08	0.1276	0.6971	0.049
Mof_H 	H 	0.1888	0.1669	0.7455	0.033
Mof_H 	H 	0.0053	0.1913	0.6446	0.002
Mof_H 	H 	0.9283	0.0883	0.781	0.038
Mof_H 	H 	0.969	0.0453	0.8349	0.034
Mof_H 	H 	0.8105	0.0176	0.6856	0.017
Mof_H 	H 	0.08	0.5695	0.8724	0.05
Mof_H 	H 	0.1888	0.5786	0.8331	0.034
Mof_H 	H 	0.0053	0.4533	0.8087	0.002
Mof_H 	H 	0.9283	0.6927	0.9117	0.042
Mof_H 	H 	0.969	0.7896	0.9547	0.03
Mof_H 	H 	0.8105	0.668	0.9824	0.019
Mof_H 	H 	0.08	0.3029	0.4305	0.049
Mof_H 	H 	0.1888	0.2545	0.4214	0.033
Mof_H 	H 	0.0053	0.3554	0.5467	0.002
Mof_H 	H 	0.9283	0.219	0.3073	0.04
Mof_H 	H 	0.969	0.1651	0.2104	0.03
Mof_H 	H 	0.8105	0.3144	0.332	0.018
Mof_H 	H 	0.42	0.5695	0.6971	0.05
Mof_H 	H 	0.3112	0.5786	0.7455	0.033
Mof_H 	H 	0.4947	0.4533	0.6446	0.007
Mof_H 	H 	0.5717	0.6927	0.781	0.038
Mof_H 	H 	0.531	0.7896	0.8349	0.034
Mof_H 	H 	0.6895	0.668	0.6856	0.018
Mof_H 	H 	0.42	0.3029	0.8724	0.051
Mof_H 	H 	0.3112	0.2545	0.8331	0.033
Mof_H 	H 	0.4947	0.3554	0.8087	0.007
Mof_H 	H 	0.5717	0.219	0.9117	0.04
Mof_H 	H 	0.531	0.1651	0.9547	0.031
Mof_H 	H 	0.6895	0.3144	0.9824	0.018
Mof_H 	H 	0.42	0.1276	0.4305	0.05
Mof_H 	H 	0.3112	0.1669	0.4214	0.033
Mof_H 	H 	0.4947	0.1913	0.5467	0.007
Mof_H 	H 	0.5717	0.0883	0.3073	0.036
Mof_H 	H 	0.531	0.0453	0.2104	0.036
Mof_H 	H 	0.6895	0.0176	0.332	0.017
Mof_H 	H 	0.92	0.4305	0.3029	0.052
Mof_H 	H 	0.8112	0.4214	0.2545	0.033
Mof_H 	H 	0.9947	0.5467	0.3554	0.011
Mof_H 	H 	0.0717	0.3073	0.219	0.036
Mof_H 	H 	0.031	0.2104	0.1651	0.035
Mof_H 	H 	0.1895	0.332	0.3144	0.018
Mof_H 	H 	0.92	0.6971	0.1276	0.051
Mof_H 	H 	0.8112	0.7455	0.1669	0.033
Mof_H 	H 	0.9947	0.6446	0.1913	0.011
Mof_H 	H 	0.0717	0.781	0.0883	0.034
Mof_H 	H 	0.031	0.8349	0.0453	0.038
Mof_H 	H 	0.1895	0.6856	0.0176	0.017
Mof_H 	H 	0.92	0.8724	0.5695	0.053
Mof_H 	H 	0.8112	0.8331	0.5786	0.034
Mof_H 	H 	0.9947	0.8087	0.4533	0.011
Mof_H 	H 	0.0717	0.9117	0.6927	0.038
Mof_H 	H 	0.031	0.9547	0.7896	0.033
Mof_H 	H 	0.1895	0.9824	0.668	0.019
Mof_H 	H 	0.42	0.1276	0.6971	0.05
Mof_H 	H 	0.3112	0.1669	0.7455	0.033
Mof_H 	H 	0.4947	0.1913	0.6446	0.007
Mof_H 	H 	0.5717	0.0883	0.781	0.036
Mof_H 	H 	0.531	0.0453	0.8349	0.036
Mof_H 	H 	0.6895	0.0176	0.6856	0.017
Mof_H 	H 	0.42	0.5695	0.8724	0.051
Mof_H 	H 	0.3112	0.5786	0.8331	0.034
Mof_H 	H 	0.4947	0.4533	0.8087	0.007
Mof_H 	H 	0.5717	0.6927	0.9117	0.04
Mof_H 	H 	0.531	0.7896	0.9547	0.032
Mof_H 	H 	0.6895	0.668	0.9824	0.019
Mof_H 	H 	0.42	0.3029	0.4305	0.05
Mof_H 	H 	0.3112	0.2545	0.4214	0.033
Mof_H 	H 	0.4947	0.3554	0.5467	0.007
Mof_H 	H 	0.5717	0.219	0.3073	0.038
Mof_H 	H 	0.531	0.1651	0.2104	0.033
Mof_H 	H 	0.6895	0.3144	0.332	0.018
Mof_H 	H 	0.92	0.8724	0.3029	0.053
Mof_H 	H 	0.8112	0.8331	0.2545	0.034
Mof_H 	H 	0.9947	0.8087	0.3554	0.011
Mof_H 	H 	0.0717	0.9117	0.219	0.038
Mof_H 	H 	0.031	0.9547	0.1651	0.033
Mof_H 	H 	0.1895	0.9824	0.3144	0.019
Mof_H 	H 	0.92	0.4305	0.1276	0.052
Mof_H 	H 	0.8112	0.4214	0.1669	0.033
Mof_H 	H 	0.9947	0.5467	0.1913	0.011
Mof_H 	H 	0.0717	0.3073	0.0883	0.034
Mof_H 	H 	0.031	0.2104	0.0453	0.037
Mof_H 	H 	0.1895	0.332	0.0176	0.017
Mof_H 	H 	0.92	0.6971	0.5695	0.052
Mof_H 	H 	0.8112	0.7455	0.5786	0.033
Mof_H 	H 	0.9947	0.6446	0.4533	0.011
Mof_H 	H 	0.0717	0.781	0.6927	0.036
Mof_H 	H 	0.031	0.8349	0.7896	0.036
Mof_H 	H 	0.1895	0.6856	0.668	0.018
Mof_H 	H 	0.58	0.4305	0.3029	0.051
Mof_H 	H 	0.6888	0.4214	0.2545	0.033
Mof_H 	H 	0.5053	0.5467	0.3554	0.007
Mof_H 	H 	0.4283	0.3073	0.219	0.038
Mof_H 	H 	0.469	0.2104	0.1651	0.033
Mof_H 	H 	0.3105	0.332	0.3144	0.018
Mof_H 	H 	0.58	0.6971	0.1276	0.05
Mof_H 	H 	0.6888	0.7455	0.1669	0.033
Mof_H 	H 	0.5053	0.6446	0.1913	0.007
Mof_H 	H 	0.4283	0.781	0.0883	0.036
Mof_H 	H 	0.469	0.8349	0.0453	0.036
Mof_H 	H 	0.3105	0.6856	0.0176	0.017
Mof_H 	H 	0.58	0.8724	0.5695	0.051
Mof_H 	H 	0.6888	0.8331	0.5786	0.034
Mof_H 	H 	0.5053	0.8087	0.4533	0.007
Mof_H 	H 	0.4283	0.9117	0.6927	0.041
Mof_H 	H 	0.469	0.9547	0.7896	0.031
Mof_H 	H 	0.3105	0.9824	0.668	0.019
Mof_H 	H 	0.08	0.5695	0.6971	0.049
Mof_H 	H 	0.1888	0.5786	0.7455	0.033
Mof_H 	H 	0.0053	0.4533	0.6446	0.002
Mof_H 	H 	0.9283	0.6927	0.781	0.041
Mof_H 	H 	0.969	0.7896	0.8349	0.032
Mof_H 	H 	0.8105	0.668	0.6856	0.018
Mof_H 	H 	0.08	0.3029	0.8724	0.05
Mof_H 	H 	0.1888	0.2545	0.8331	0.034
Mof_H 	H 	0.0053	0.3554	0.8087	0.002
Mof_H 	H 	0.9283	0.219	0.9117	0.042
Mof_H 	H 	0.969	0.1651	0.9547	0.029
Mof_H 	H 	0.8105	0.3144	0.9824	0.019
Mof_H 	H 	0.08	0.1276	0.4305	0.049
Mof_H 	H 	0.1888	0.1669	0.4214	0.033
Mof_H 	H 	0.0053	0.1913	0.5467	0.002
Mof_H 	H 	0.9283	0.0883	0.3073	0.038
Mof_H 	H 	0.969	0.0453	0.2104	0.034
Mof_H 	H 	0.8105	0.0176	0.332	0.017
Mof_H 	H 	0.3626	0.77895	0.22105	-0.03
Mof_H 	H 	0.3626	0.4421	0.22105	-0.03
Mof_H 	H 	0.3626	0.77895	0.5579	-0.03
Mof_H 	H 	0.8626	0.22105	0.77895	-0.031
Mof_H 	H 	0.8626	0.5579	0.77895	-0.031
Mof_H 	H 	0.8626	0.22105	0.4421	-0.031
Mof_H 	H 	0.6374	0.5579	0.77895	-0.03
Mof_H 	H 	0.6374	0.22105	0.77895	-0.03
Mof_H 	H 	0.6374	0.22105	0.4421	-0.03
Mof_H 	H 	0.1374	0.4421	0.22105	-0.03
Mof_H 	H 	0.1374	0.77895	0.22105	-0.03
Mof_H 	H 	0.1374	0.77895	0.5579	-0.03
Mof_H 	H 	0.5	0	0.4196	-0.012
Mof_H 	H 	0.5	0.4196	-0	-0.012
Mof_H 	H 	0.5	0.5804	0.5804	-0.012
Mof_H 	H 	-4.44287e-33	0	0.5804	-0.011
Mof_H 	H 	-0	0.5804	-0	-0.011
Mof_H 	H 	-4.44287e-33	0.4196	0.4196	-0.011
Mof_H 	H 	0.5	0	0.5804	-0.012
Mof_H 	H 	0.5	0.5804	-0	-0.012
Mof_H 	H 	0.5	0.4196	0.4196	-0.012
Mof_H 	H 	-4.44287e-33	0	0.4196	-0.011
Mof_H 	H 	-0	0.4196	-0	-0.011
Mof_H 	H 	-4.44287e-33	0.5804	0.5804	-0.012
Mof_C 	C 	0.515	0.8102	0.2419	0.068
Mof_C 	C 	0.5799	0.8374	0.2665	-0.113
Mof_C 	C 	0.6445	0.8137	0.2383	-0.017
Mof_C 	C 	0.482	0.8367	0.3899	0.031
Mof_C 	C 	0.479	0.9729	0.2954	0.047
Mof_C 	C 	0.457	0.9459	0.2364	-0.1
Mof_C 	C 	0.4799	0.9727	0.2053	-0.016
Mof_C 	C 	0.2804	0.9544	0.3161	-0.007
Mof_C 	C 	0.515	0.4317	0.1898	0.068
Mof_C 	C 	0.5799	0.4291	0.1626	-0.113
Mof_C 	C 	0.6445	0.4246	0.1863	-0.017
Mof_C 	C 	0.482	0.5532	0.1633	0.031
Mof_C 	C 	0.479	0.3225	0.0271	0.034
Mof_C 	C 	0.457	0.2905	0.0541	-0.089
Mof_C 	C 	0.4799	0.2326	0.0273	-0.035
Mof_C 	C 	0.2804	0.3617	0.0456	-0.007
Mof_C 	C 	0.515	0.7581	0.5683	0.068
Mof_C 	C 	0.5799	0.7335	0.5709	-0.113
Mof_C 	C 	0.6445	0.7617	0.5754	-0.017
Mof_C 	C 	0.482	0.6101	0.4468	0.031
Mof_C 	C 	0.479	0.7046	0.6775	0.04
Mof_C 	C 	0.457	0.7636	0.7095	-0.094
Mof_C 	C 	0.4799	0.7947	0.7674	-0.027
Mof_C 	C 	0.2804	0.6839	0.6383	-0.007
Mof_C 	C 	0.015	0.1898	0.7581	0.064
Mof_C 	C 	0.0799	0.1626	0.7335	-0.112
Mof_C 	C 	0.1445	0.1863	0.7617	-0.018
Mof_C 	C 	0.982	0.1633	0.6101	0.037
Mof_C 	C 	0.979	0.0271	0.7046	0.04
Mof_C 	C 	0.957	0.0541	0.7636	-0.093
Mof_C 	C 	0.9799	0.0273	0.7947	-0.028
Mof_C 	C 	0.7804	0.0456	0.6839	-0.007
Mof_C 	C 	0.015	0.5683	0.8102	0.064
Mof_C 	C 	0.0799	0.5709	0.8374	-0.112
Mof_C 	C 	0.1445	0.5754	0.8137	-0.018
Mof_C 	C 	0.982	0.4468	0.8367	0.037
Mof_C 	C 	0.979	0.6775	0.9729	0.052
Mof_C 	C 	0.957	0.7095	0.9459	-0.104
Mof_C 	C 	0.9799	0.7674	0.9727	-0.009
Mof_C 	C 	0.7804	0.6383	0.9544	-0.007
Mof_C 	C 	0.015	0.2419	0.4317	0.064
Mof_C 	C 	0.0799	0.2665	0.4291	-0.112
Mof_C 	C 	0.1445	0.2383	0.4246	-0.018
Mof_C 	C 	0.982	0.3899	0.5532	0.037
Mof_C 	C 	0.979	0.2954	0.3225	0.047
Mof_C 	C 	0.957	0.2364	0.2905	-0.1
Mof_C 	C 	0.9799	0.2053	0.2326	-0.017
Mof_C 	C 	0.7804	0.3161	0.3617	-0.007
Mof_C 	C 	0.485	0.5683	0.7581	0.068
Mof_C 	C 	0.4201	0.5709	0.7335	-0.113
Mof_C 	C 	0.3555	0.5754	0.7617	-0.017
Mof_C 	C 	0.518	0.4468	0.6101	0.031
Mof_C 	C 	0.521	0.6775	0.7046	0.04
Mof_C 	C 	0.543	0.7095	0.7636	-0.094
Mof_C 	C 	0.5201	0.7674	0.7947	-0.027
Mof_C 	C 	0.7196	0.6383	0.6839	-0.007
Mof_C 	C 	0.485	0.2419	0.8102	0.068
Mof_C 	C 	0.4201	0.2665	0.8374	-0.113
Mof_C 	C 	0.3555	0.2383	0.8137	-0.017
Mof_C 	C 	0.518	0.3899	0.8367	0.031
Mof_C 	C 	0.521	0.2954	0.9729	0.045
Mof_C 	C 	0.543	0.2364	0.9459	-0.099
Mof_C 	C 	0.5201	0.2053	0.9727	-0.019
Mof_C 	C 	0.7196	0.3161	0.9544	-0.007
Mof_C 	C 	0.485	0.1898	0.4317	0.067
Mof_C 	C 	0.4201	0.1626	0.4291	-0.113
Mof_C 	C 	0.3555	0.1863	0.4246	-0.017
Mof_C 	C 	0.518	0.1633	0.5532	0.031
Mof_C 	C 	0.521	0.0271	0.3225	0.033
Mof_C 	C 	0.543	0.0541	0.2905	-0.088
Mof_C 	C 	0.5201	0.0273	0.2326	-0.038
Mof_C 	C 	0.7196	0.0456	0.3617	-0.007
Mof_C 	C 	0.985	0.4317	0.2419	0.071
Mof_C 	C 	0.9201	0.4291	0.2665	-0.114
Mof_C 	C 	0.8555	0.4246	0.2383	-0.017
Mof_C 	C 	0.018	0.5532	0.3899	0.026
Mof_C 	C 	0.021	0.3225	0.2954	0.033
Mof_C 	C 	0.043	0.2905	0.2364	-0.088
Mof_C 	C 	0.0201	0.2326	0.2053	-0.037
Mof_C 	C 	0.2196	0.3617	0.3161	-0.007
Mof_C 	C 	0.985	0.7581	0.1898	0.071
Mof_C 	C 	0.9201	0.7335	0.1626	-0.114
Mof_C 	C 	0.8555	0.7617	0.1863	-0.017
Mof_C 	C 	0.018	0.6101	0.1633	0.026
Mof_C 	C 	0.021	0.7046	0.0271	0.028
Mof_C 	C 	0.043	0.7636	0.0541	-0.084
Mof_C 	C 	0.0201	0.7947	0.0273	-0.044
Mof_C 	C 	0.2196	0.6839	0.0456	-0.007
Mof_C 	C 	0.985	0.8102	0.5683	0.071
Mof_C 	C 	0.9201	0.8374	0.5709	-0.114
Mof_C 	C 	0.8555	0.8137	0.5754	-0.016
Mof_C 	C 	0.018	0.8367	0.4468	0.026
Mof_C 	C 	0.021	0.9729	0.6775	0.041
Mof_C 	C 	0.043	0.9459	0.7095	-0.095
Mof_C 	C 	0.0201	0.9727	0.7674	-0.026
Mof_C 	C 	0.2196	0.9544	0.6383	-0.006
Mof_C 	C 	0.485	0.1898	0.7581	0.067
Mof_C 	C 	0.4201	0.1626	0.7335	-0.113
Mof_C 	C 	0.3555	0.1863	0.7617	-0.018
Mof_C 	C 	0.518	0.1633	0.6101	0.031
Mof_C 	C 	0.521	0.0271	0.7046	0.032
Mof_C 	C 	0.543	0.0541	0.7636	-0.087
Mof_C 	C 	0.5201	0.0273	0.7947	-0.038
Mof_C 	C 	0.7196	0.0456	0.6839	-0.007
Mof_C 	C 	0.485	0.5683	0.8102	0.068
Mof_C 	C 	0.4201	0.5709	0.8374	-0.113
Mof_C 	C 	0.3555	0.5754	0.8137	-0.017
Mof_C 	C 	0.518	0.4468	0.8367	0.031
Mof_C 	C 	0.521	0.6775	0.9729	0.045
Mof_C 	C 	0.543	0.7095	0.9459	-0.099
Mof_C 	C 	0.5201	0.7674	0.9727	-0.018
Mof_C 	C 	0.7196	0.6383	0.9544	-0.006
Mof_C 	C 	0.485	0.2419	0.4317	0.068
Mof_C 	C 	0.4201	0.2665	0.4291	-0.113
Mof_C 	C 	0.3555	0.2383	0.4246	-0.017
Mof_C 	C 	0.518	0.3899	0.5532	0.031
Mof_C 	C 	0.521	0.2954	0.3225	0.04
Mof_C 	C 	0.543	0.2364	0.2905	-0.094
Mof_C 	C 	0.5201	0.2053	0.2326	-0.027
Mof_C 	C 	0.7196	0.3161	0.3617	-0.007
Mof_C 	C 	0.985	0.8102	0.2419	0.071
Mof_C 	C 	0.9201	0.8374	0.2665	-0.114
Mof_C 	C 	0.8555	0.8137	0.2383	-0.016
Mof_C 	C 	0.018	0.8367	0.3899	0.026
Mof_C 	C 	0.021	0.9729	0.2954	0.041
Mof_C 	C 	0.043	0.9459	0.2364	-0.095
Mof_C 	C 	0.0201	0.9727	0.2053	-0.026
Mof_C 	C 	0.2196	0.9544	0.3161	-0.007
Mof_C 	C 	0.985	0.4317	0.1898	0.071
Mof_C 	C 	0.9201	0.4291	0.1626	-0.114
Mof_C 	C 	0.8555	0.4246	0.1863	-0.017
Mof_C 	C 	0.018	0.5532	0.1633	0.026
Mof_C 	C 	0.021	0.3225	0.0271	0.028
Mof_C 	C 	0.043	0.2905	0.0541	-0.084
Mof_C 	C 	0.0201	0.2326	0.0273	-0.045
Mof_C 	C 	0.2196	0.3617	0.0456	-0.007
Mof_C 	C 	0.985	0.7581	0.5683	0.071
Mof_C 	C 	0.9201	0.7335	0.5709	-0.114
Mof_C 	C 	0.8555	0.7617	0.5754	-0.017
Mof_C 	C 	0.018	0.6101	0.4468	0.026
Mof_C 	C 	0.021	0.7046	0.6775	0.033
Mof_C 	C 	0.043	0.7636	0.7095	-0.088
Mof_C 	C 	0.0201	0.7947	0.7674	-0.036
Mof_C 	C 	0.2196	0.6839	0.6383	-0.007
Mof_C 	C 	0.515	0.4317	0.2419	0.068
Mof_C 	C 	0.5799	0.4291	0.2665	-0.113
Mof_C 	C 	0.6445	0.4246	0.2383	-0.017
Mof_C 	C 	0.482	0.5532	0.3899	0.031
Mof_C 	C 	0.479	0.3225	0.2954	0.04
Mof_C 	C 	0.457	0.2905	0.2364	-0.094
Mof_C 	C 	0.4799	0.2326	0.2053	-0.027
Mof_C 	C 	0.2804	0.3617	0.3161	-0.007
Mof_C 	C 	0.515	0.7581	0.1898	0.067
Mof_C 	C 	0.5799	0.7335	0.1626	-0.113
Mof_C 	C 	0.6445	0.7617	0.1863	-0.017
Mof_C 	C 	0.482	0.6101	0.1633	0.031
Mof_C 	C 	0.479	0.7046	0.0271	0.034
Mof_C 	C 	0.457	0.7636	0.0541	-0.089
Mof_C 	C 	0.4799	0.7947	0.0273	-0.035
Mof_C 	C 	0.2804	0.6839	0.0456	-0.007
Mof_C 	C 	0.515	0.8102	0.5683	0.068
Mof_C 	C 	0.5799	0.8374	0.5709	-0.113
Mof_C 	C 	0.6445	0.8137	0.5754	-0.017
Mof_C 	C 	0.482	0.8367	0.4468	0.031
Mof_C 	C 	0.479	0.9729	0.6775	0.047
Mof_C 	C 	0.457	0.9459	0.7095	-0.1
Mof_C 	C 	0.4799	0.9727	0.7674	-0.016
Mof_C 	C 	0.2804	0.9544	0.6383	-0.007
Mof_C 	C 	0.015	0.5683	0.7581	0.064
Mof_C 	C 	0.0799	0.5709	0.7335	-0.112
Mof_C 	C 	0.1445	0.5754	0.7617	-0.018
Mof_C 	C 	0.982	0.4468	0.6101	0.037
Mof_C 	C 	0.979	0.6775	0.7046	0.047
Mof_C 	C 	0.957	0.7095	0.7636	-0.099
Mof_C 	C 	0.9799	0.7674	0.7947	-0.017
Mof_C 	C 	0.7804	0.6383	0.6839	-0.007
Mof_C 	C 	0.015	0.2419	0.8102	0.064
Mof_C 	C 	0.0799	0.2665	0.8374	-0.112
Mof_C 	C 	0.1445	0.2383	0.8137	-0.018
Mof_C 	C 	0.982	0.3899	0.8367	0.037
Mof_C 	C 	0.979	0.2954	0.9729	0.052
Mof_C 	C 	0.957	0.2364	0.9459	-0.104
Mof_C 	C 	0.9799	0.2053	0.9727	-0.009
Mof_C 	C 	0.7804	0.3161	0.9544	-0.007
Mof_C 	C 	0.015	0.1898	0.4317	0.064
Mof_C 	C 	0.0799	0.1626	0.4291	-0.112
Mof_C 	C 	0.1445	0.1863	0.4246	-0.018
Mof_C 	C 	0.982	0.1633	0.5532	0.037
Mof_C 	C 	0.979	0.0271	0.3225	0.04
Mof_C 	C 	0.957	0.0541	0.2905	-0.093
Mof_C 	C 	0.9799	0.0273	0.2326	-0.028
Mof_C 	C 	0.7804	0.0456	0.3617	-0.007
Mof_C 	C 	0.4138	0.78055	0.21945	0.117
Mof_C 	C 	0.4138	0.4389	0.21945	0.117
Mof_C 	C 	0.4138	0.78055	0.5611	0.117
Mof_C 	C 	0.9138	0.21945	0.78055	0.118
Mof_C 	C 	0.9138	0.5611	0.78055	0.118
Mof_C 	C 	0.9138	0.21945	0.4389	0.118
Mof_C 	C 	0.5862	0.5611	0.78055	0.117
Mof_C 	C 	0.5862	0.21945	0.78055	0.117
Mof_C 	C 	0.5862	0.21945	0.4389	0.117
Mof_C 	C 	0.0862	0.4389	0.21945	0.116
Mof_C 	C 	0.0862	0.78055	0.21945	0.116
Mof_C 	C 	0.0862	0.78055	0.5611	0.116
Mof_C 	C 	0.4223	0.9046	0.4523	0.161
Mof_C 	C 	0.4223	0.5477	0.0954	0.16
Mof_C 	C 	0.4223	0.5477	0.4523	0.16
Mof_C 	C 	0.9223	0.0954	0.5477	0.16
Mof_C 	C 	0.9223	0.4523	0.9046	0.161
Mof_C 	C 	0.9223	0.4523	0.5477	0.16
Mof_C 	C 	0.5777	0.4523	0.5477	0.16
Mof_C 	C 	0.5777	0.4523	0.9046	0.16
Mof_C 	C 	0.5777	0.0954	0.5477	0.16
Mof_C 	C 	0.0777	0.5477	0.4523	0.16
Mof_C 	C 	0.0777	0.5477	0.0954	0.16
Mof_C 	C 	0.0777	0.9046	0.4523	0.16
Mof_C 	C 	0.5	4.00178e-17	0.3839	0.094
Mof_C 	C 	0.5	0.3839	-0	0.096
Mof_C 	C 	0.5	0.6161	0.6161	0.1
Mof_C 	C 	-0	0	0.6161	0.089
Mof_C 	C 	-0	0.6161	-0	0.091
Mof_C 	C 	-4.44287e-33	0.3839	0.3839	0.095
Mof_C 	C 	0.5	0	0.6161	0.094
Mof_C 	C 	0.5	0.6161	-0	0.096
Mof_C 	C 	0.5	0.3839	0.3839	0.1
Mof_C 	C 	-4.44287e-33	4.00178e-17	0.3839	0.089
Mof_C 	C 	-0	0.3839	-0	0.091
Mof_C 	C 	-0	0.6161	0.6161	0.095
Mof_C 	C 	0.25	0.8739	0.3217	0.169
Mof_C 	C 	0.25	0.4478	0.1261	0.169
Mof_C 	C 	0.25	0.6783	0.5522	0.169
Mof_C 	C 	0.75	0.1261	0.6783	0.169
Mof_C 	C 	0.75	0.5522	0.8739	0.169
Mof_C 	C 	0.75	0.3217	0.4478	0.169
Mof_C 	C 	0.75	0.5522	0.6783	0.169
Mof_C 	C 	0.75	0.3217	0.8739	0.169
Mof_C 	C 	0.75	0.1261	0.4478	0.169
Mof_C 	C 	0.25	0.4478	0.3217	0.169
Mof_C 	C 	0.25	0.6783	0.1261	0.169
Mof_C 	C 	0.25	0.8739	0.5522	0.169
Mof_N 	N 	0.4505	0.8234	0.26	-0.296
Mof_N 	N 	0.4471	0.8786	0.3952	-0.273
Mof_N 	N 	0.466	0.9563	0.3379	-0.292
Mof_N 	N 	0.3048	0.9042	0.3192	-0.257
Mof_N 	N 	0.4505	0.4366	0.1766	-0.296
Mof_N 	N 	0.4471	0.5166	0.1214	-0.273
Mof_N 	N 	0.466	0.3816	0.0437	-0.292
Mof_N 	N 	0.3048	0.415	0.0958	-0.257
Mof_N 	N 	0.4505	0.74	0.5634	-0.296
Mof_N 	N 	0.4471	0.6048	0.4834	-0.273
Mof_N 	N 	0.466	0.6621	0.6184	-0.293
Mof_N 	N 	0.3048	0.6808	0.585	-0.257
Mof_N 	N 	0.9505	0.1766	0.74	-0.294
Mof_N 	N 	0.9471	0.1214	0.6048	-0.274
Mof_N 	N 	0.966	0.0437	0.6621	-0.29
Mof_N 	N 	0.8048	0.0958	0.6808	-0.257
Mof_N 	N 	0.9505	0.5634	0.8234	-0.294
Mof_N 	N 	0.9471	0.4834	0.8786	-0.274
Mof_N 	N 	0.966	0.6184	0.9563	-0.291
Mof_N 	N 	0.8048	0.585	0.9042	-0.257
Mof_N 	N 	0.9505	0.26	0.4366	-0.294
Mof_N 	N 	0.9471	0.3952	0.5166	-0.274
Mof_N 	N 	0.966	0.3379	0.3816	-0.292
Mof_N 	N 	0.8048	0.3192	0.415	-0.257
Mof_N 	N 	0.5495	0.5634	0.74	-0.296
Mof_N 	N 	0.5529	0.4834	0.6048	-0.273
Mof_N 	N 	0.534	0.6184	0.6621	-0.293
Mof_N 	N 	0.6952	0.585	0.6808	-0.257
Mof_N 	N 	0.5495	0.26	0.8234	-0.296
Mof_N 	N 	0.5529	0.3952	0.8786	-0.273
Mof_N 	N 	0.534	0.3379	0.9563	-0.292
Mof_N 	N 	0.6952	0.3192	0.9042	-0.257
Mof_N 	N 	0.5495	0.1766	0.4366	-0.296
Mof_N 	N 	0.5529	0.1214	0.5166	-0.273
Mof_N 	N 	0.534	0.0437	0.3816	-0.292
Mof_N 	N 	0.6952	0.0958	0.415	-0.257
Mof_N 	N 	0.0495	0.4366	0.26	-0.299
Mof_N 	N 	0.0529	0.5166	0.3952	-0.273
Mof_N 	N 	0.034	0.3816	0.3379	-0.292
Mof_N 	N 	0.1952	0.415	0.3192	-0.257
Mof_N 	N 	0.0495	0.74	0.1766	-0.298
Mof_N 	N 	0.0529	0.6048	0.1214	-0.273
Mof_N 	N 	0.034	0.6621	0.0437	-0.291
Mof_N 	N 	0.1952	0.6808	0.0958	-0.257
Mof_N 	N 	0.0495	0.8234	0.5634	-0.299
Mof_N 	N 	0.0529	0.8786	0.4834	-0.272
Mof_N 	N 	0.034	0.9563	0.6184	-0.291
Mof_N 	N 	0.1952	0.9042	0.585	-0.257
Mof_N 	N 	0.5495	0.1766	0.74	-0.296
Mof_N 	N 	0.5529	0.1214	0.6048	-0.273
Mof_N 	N 	0.534	0.0437	0.6621	-0.292
Mof_N 	N 	0.6952	0.0958	0.6808	-0.257
Mof_N 	N 	0.5495	0.5634	0.8234	-0.296
Mof_N 	N 	0.5529	0.4834	0.8786	-0.273
Mof_N 	N 	0.534	0.6184	0.9563	-0.292
Mof_N 	N 	0.6952	0.585	0.9042	-0.257
Mof_N 	N 	0.5495	0.26	0.4366	-0.296
Mof_N 	N 	0.5529	0.3952	0.5166	-0.273
Mof_N 	N 	0.534	0.3379	0.3816	-0.293
Mof_N 	N 	0.6952	0.3192	0.415	-0.257
Mof_N 	N 	0.0495	0.8234	0.26	-0.299
Mof_N 	N 	0.0529	0.8786	0.3952	-0.272
Mof_N 	N 	0.034	0.9563	0.3379	-0.291
Mof_N 	N 	0.1952	0.9042	0.3192	-0.257
Mof_N 	N 	0.0495	0.4366	0.1766	-0.299
Mof_N 	N 	0.0529	0.5166	0.1214	-0.273
Mof_N 	N 	0.034	0.3816	0.0437	-0.291
Mof_N 	N 	0.1952	0.415	0.0958	-0.257
Mof_N 	N 	0.0495	0.74	0.5634	-0.299
Mof_N 	N 	0.0529	0.6048	0.4834	-0.273
Mof_N 	N 	0.034	0.6621	0.6184	-0.292
Mof_N 	N 	0.1952	0.6808	0.585	-0.257
Mof_N 	N 	0.4505	0.4366	0.26	-0.296
Mof_N 	N 	0.4471	0.5166	0.3952	-0.273
Mof_N 	N 	0.466	0.3816	0.3379	-0.293
Mof_N 	N 	0.3048	0.415	0.3192	-0.257
Mof_N 	N 	0.4505	0.74	0.1766	-0.296
Mof_N 	N 	0.4471	0.6048	0.1214	-0.273
Mof_N 	N 	0.466	0.6621	0.0437	-0.292
Mof_N 	N 	0.3048	0.6808	0.0958	-0.257
Mof_N 	N 	0.4505	0.8234	0.5634	-0.296
Mof_N 	N 	0.4471	0.8786	0.4834	-0.273
Mof_N 	N 	0.466	0.9563	0.6184	-0.292
Mof_N 	N 	0.3048	0.9042	0.585	-0.257
Mof_N 	N 	0.9505	0.5634	0.74	-0.294
Mof_N 	N 	0.9471	0.4834	0.6048	-0.274
Mof_N 	N 	0.966	0.6184	0.6621	-0.292
Mof_N 	N 	0.8048	0.585	0.6808	-0.257
Mof_N 	N 	0.9505	0.26	0.8234	-0.294
Mof_N 	N 	0.9471	0.3952	0.8786	-0.274
Mof_N 	N 	0.966	0.3379	0.9563	-0.291
Mof_N 	N 	0.8048	0.3192	0.9042	-0.257
Mof_N 	N 	0.9505	0.1766	0.4366	-0.294
Mof_N 	N 	0.9471	0.1214	0.5166	-0.274
Mof_N 	N 	0.966	0.0437	0.3816	-0.29
Mof_N 	N 	0.8048	0.0958	0.415	-0.257
Mof_N 	N 	0.3864	0.9497	0.47485	-0.038
Mof_N 	N 	0.3864	0.52515	0.0503	-0.038
Mof_N 	N 	0.3864	0.52515	0.47485	-0.038
Mof_N 	N 	0.8864	0.0503	0.52515	-0.038
Mof_N 	N 	0.8864	0.47485	0.9497	-0.038
Mof_N 	N 	0.8864	0.47485	0.52515	-0.038
Mof_N 	N 	0.6136	0.47485	0.52515	-0.038
Mof_N 	N 	0.6136	0.47485	0.9497	-0.038
Mof_N 	N 	0.6136	0.0503	0.52515	-0.038
Mof_N 	N 	0.1136	0.52515	0.47485	-0.038
Mof_N 	N 	0.1136	0.52515	0.0503	-0.038
Mof_N 	N 	0.1136	0.9497	0.47485	-0.038
Mof_N 	N 	0.25	0.8289	0.3249	-0.021
Mof_N 	N 	0.25	0.496	0.1711	-0.021
Mof_N 	N 	0.25	0.6751	0.504	-0.021
Mof_N 	N 	0.75	0.1711	0.6751	-0.021
Mof_N 	N 	0.75	0.504	0.8289	-0.021
Mof_N 	N 	0.75	0.3249	0.496	-0.021
Mof_N 	N 	0.75	0.504	0.6751	-0.021
Mof_N 	N 	0.75	0.3249	0.8289	-0.021
Mof_N 	N 	0.75	0.1711	0.496	-0.021
Mof_N 	N 	0.25	0.496	0.3249	-0.021
Mof_N 	N 	0.25	0.6751	0.1711	-0.021
Mof_N 	N 	0.25	0.8289	0.504	-0.021
Mof_O 	O 	0.3755	0.9732	0.4449	-0.181
Mof_O 	O 	0.3058	0.8121	0.3279	-0.169
Mof_O 	O 	0.3755	0.4717	0.0268	-0.184
Mof_O 	O 	0.3058	0.5158	0.1879	-0.169
Mof_O 	O 	0.3755	0.5551	0.5283	-0.183
Mof_O 	O 	0.3058	0.6721	0.4842	-0.169
Mof_O 	O 	0.8755	0.0268	0.5551	-0.183
Mof_O 	O 	0.8058	0.1879	0.6721	-0.169
Mof_O 	O 	0.8755	0.5283	0.9732	-0.181
Mof_O 	O 	0.8058	0.4842	0.8121	-0.169
Mof_O 	O 	0.8755	0.4449	0.4717	-0.182
Mof_O 	O 	0.8058	0.3279	0.5158	-0.169
Mof_O 	O 	0.6245	0.5283	0.5551	-0.183
Mof_O 	O 	0.6942	0.4842	0.6721	-0.169
Mof_O 	O 	0.6245	0.4449	0.9732	-0.182
Mof_O 	O 	0.6942	0.3279	0.8121	-0.169
Mof_O 	O 	0.6245	0.0268	0.4717	-0.184
Mof_O 	O 	0.6942	0.1879	0.5158	-0.169
Mof_O 	O 	0.1245	0.4717	0.4449	-0.183
Mof_O 	O 	0.1942	0.5158	0.3279	-0.17
Mof_O 	O 	0.1245	0.5551	0.0268	-0.184
Mof_O 	O 	0.1942	0.6721	0.1879	-0.17
Mof_O 	O 	0.1245	0.9732	0.5283	-0.182
Mof_O 	O 	0.1942	0.8121	0.4842	-0.17
Mof_O 	O 	0.6245	0.0268	0.5551	-0.184
Mof_O 	O 	0.6942	0.1879	0.6721	-0.169
Mof_O 	O 	0.6245	0.5283	0.9732	-0.182
Mof_O 	O 	0.6942	0.4842	0.8121	-0.169
Mof_O 	O 	0.6245	0.4449	0.4717	-0.183
Mof_O 	O 	0.6942	0.3279	0.5158	-0.169
Mof_O 	O 	0.1245	0.9732	0.4449	-0.182
Mof_O 	O 	0.1942	0.8121	0.3279	-0.17
Mof_O 	O 	0.1245	0.4717	0.0268	-0.184
Mof_O 	O 	0.1942	0.5158	0.1879	-0.17
Mof_O 	O 	0.1245	0.5551	0.5283	-0.183
Mof_O 	O 	0.1942	0.6721	0.4842	-0.17
Mof_O 	O 	0.3755	0.4717	0.4449	-0.183
Mof_O 	O 	0.3058	0.5158	0.3279	-0.169
Mof_O 	O 	0.3755	0.5551	0.0268	-0.184
Mof_O 	O 	0.3058	0.6721	0.1879	-0.169
Mof_O 	O 	0.3755	0.9732	0.5283	-0.181
Mof_O 	O 	0.3058	0.8121	0.4842	-0.169
Mof_O 	O 	0.8755	0.5283	0.5551	-0.182
Mof_O 	O 	0.8058	0.4842	0.6721	-0.169
Mof_O 	O 	0.8755	0.4449	0.9732	-0.181
Mof_O 	O 	0.8058	0.3279	0.8121	-0.169
Mof_O 	O 	0.8755	0.0268	0.4717	-0.183
Mof_O 	O 	0.8058	0.1879	0.5158	-0.169
_end
