data_functionalizedCrystal
_audit_creation_method	'EQeq! by Chris Wilmer'
_symmetry_space_group_name_H-M	'P1'
_symmetry_Int_Tables_number	1
_symmetry_cell_setting	triclinic
loop_
_symmetry_equiv_pos_as_xyz
  x,y,z
_cell_length_a	12.535
_cell_length_b	29.517
_cell_length_c	14.704
_cell_angle_alpha	90
_cell_angle_beta	93.95
_cell_angle_gamma	90
loop_
_atom_site_label
_atom_site_type_symbol
_atom_site_fract_x
_atom_site_fract_y
_atom_site_fract_z
_atom_site_charge
Mof_Ag	Ag	0.452	0.77237	0.6233	0.574
Mof_Ag	Ag	0.958	0.75394	0.6828	0.598
Mof_Ag	Ag	0.7354	0.90557	0.4323	0.517
Mof_Ag	Ag	0.709	0.60371	0.4504	0.542
Mof_Ag	Ag	0.2614	0.91356	0.26634	0.483
Mof_Ag	Ag	0.21	0.92768	0.82445	0.59
Mof_N 	N 	0.4557	0.8286	0.5123	-0.212
Mof_C 	C 	0.5453	0.8528	0.5126	0.112
Mof_H 	H 	0.5935	0.8507	0.5633	-0.046
Mof_N 	N 	0.5696	0.8794	0.4461	-0.226
Mof_C 	C 	0.4967	0.8857	0.3782	0.103
Mof_H 	H 	0.5132	0.9049	0.331	-0.053
Mof_N 	N 	0.4017	0.8664	0.3736	-0.194
Mof_C 	C 	0.3901	0.8363	0.4376	0.105
Mof_H 	H 	0.3295	0.8181	0.4305	-0.027
Mof_N 	N 	0.3106	0.7298	0.6631	-0.221
Mof_C 	C 	0.2115	0.746	0.6585	0.12
Mof_H 	H 	0.2005	0.7755	0.6374	-0.043
Mof_N 	N 	0.1287	0.7232	0.6816	-0.215
Mof_C 	C 	0.1462	0.6805	0.7086	0.111
Mof_H 	H 	0.0872	0.6638	0.7241	-0.038
Mof_N 	N 	0.2403	0.8401	0.2152	-0.205
Mof_C 	C 	0.3209	0.6878	0.6918	0.109
Mof_H 	H 	0.3897	0.6759	0.6966	-0.036
Mof_N 	N 	0.6065	0.7294	0.6036	-0.215
Mof_C 	C 	0.6101	0.6929	0.5565	0.115
Mof_H 	H 	0.5456	0.6821	0.5299	-0.04
Mof_N 	N 	0.6991	0.6686	0.542	-0.21
Mof_C 	C 	0.7901	0.6884	0.5767	0.106
Mof_H 	H 	0.8543	0.6746	0.5647	-0.036
Mof_N 	N 	0.7961	0.7255	0.6258	-0.214
Mof_C 	C 	0.7023	0.7462	0.6353	0.1
Mof_H 	H 	0.7033	0.7738	0.6657	-0.039
Mof_N 	N 	0.9639	0.8169	0.7782	-0.211
Mof_C 	C 	0.8956	0.8255	0.844	0.106
Mof_H 	H 	0.8412	0.8045	0.8505	-0.03
Mof_N 	N 	0.899	0.8599	0.8985	-0.193
Mof_C 	C 	0.9796	0.887	0.8879	0.106
Mof_H 	H 	0.9852	0.912	0.9266	-0.031
Mof_N 	N 	0.0554	0.8832	0.8281	-0.213
Mof_C 	C 	0.0407	0.8492	0.7734	0.111
Mof_H 	H 	0.0867	0.8466	0.7266	-0.041
Mof_N 	N 	0.8781	0.8517	0.442	-0.202
Mof_C 	C 	0.908	0.8296	0.5167	0.115
Mof_H 	H 	0.8852	0.8409	0.5712	-0.043
Mof_N 	N 	0.9672	0.793	0.5212	-0.19
Mof_C 	C 	0.999	0.7777	0.4375	0.103
Mof_H 	H 	0.045	0.753	0.4378	-0.018
Mof_N 	N 	0.9693	0.7952	0.3609	-0.178
Mof_C 	C 	0.9111	0.8342	0.3629	0.084
Mof_H 	H 	0.8934	0.8493	0.3084	-0.029
Mof_N 	N 	0.7475	0.5277	0.4456	-0.214
Mof_C 	C 	0.7587	0.5057	0.5251	0.097
Mof_H 	H 	0.7609	0.5224	0.5787	-0.047
Mof_N 	N 	0.2328	0.9603	0.9694	-0.211
Mof_C 	C 	0.2331	0.9387	0.0491	0.112
Mof_H 	H 	0.2224	0.9076	0.0474	-0.037
Mof_N 	N 	0.2469	0.9576	0.1295	-0.211
Mof_C 	C 	0.7426	0.5023	0.3701	0.106
Mof_H 	H 	0.7312	0.5168	0.3142	-0.046
Mof_N 	N 	0.1374	0.9785	0.72	-0.218
Mof_C 	C 	0.1954	0.0093	0.6798	0.114
Mof_H 	H 	0.2679	0.01	0.6977	-0.054
Mof_N 	N 	0.8386	0.9614	0.3824	-0.227
Mof_C 	C 	0.937	0.9652	0.4085	0.118
Mof_H 	H 	0.9626	0.9458	0.4549	-0.026
Mof_N 	N 	0.0073	0.9939	0.3764	-0.172
Mof_C 	C 	0.0366	0.979	0.6872	0.104
Mof_H 	H 	0.9915	0.9578	0.7116	-0.025
Mof_N 	N 	0.3755	0.8981	0.8003	-0.221
Mof_C 	C 	0.3854	0.8645	0.7387	0.105
Mof_H 	H 	0.3297	0.8606	0.6942	-0.04
Mof_N 	N 	0.467	0.8372	0.7372	-0.206
Mof_C 	C 	0.5443	0.8455	0.799	0.12
Mof_H 	H 	0.6033	0.8263	0.8006	-0.041
Mof_N 	N 	0.5464	0.6218	0.3586	-0.212
Mof_C 	C 	0.4582	0.9037	0.8573	0.112
Mof_H 	H 	0.456	0.9269	0.8999	-0.044
Mof_Ag	Ag	0.548	0.27237	0.8767	0.575
Mof_Ag	Ag	0.042	0.25394	0.8172	0.599
Mof_Ag	Ag	0.2646	0.40557	0.0677	0.518
Mof_Ag	Ag	0.291	0.10371	0.0496	0.542
Mof_Ag	Ag	0.7386	0.41356	0.23366	0.484
Mof_Ag	Ag	0.79	0.42768	0.67555	0.591
Mof_N 	N 	0.5443	0.3286	0.9877	-0.212
Mof_C 	C 	0.4547	0.3528	0.9874	0.113
Mof_H 	H 	0.4065	0.3507	0.9367	-0.046
Mof_N 	N 	0.4304	0.3794	0.0539	-0.226
Mof_C 	C 	0.5033	0.3857	0.1218	0.103
Mof_H 	H 	0.4868	0.4049	0.169	-0.053
Mof_N 	N 	0.5983	0.3664	0.1264	-0.194
Mof_C 	C 	0.6099	0.3363	0.0624	0.105
Mof_H 	H 	0.6705	0.3181	0.0695	-0.027
Mof_N 	N 	0.6894	0.2298	0.8369	-0.221
Mof_C 	C 	0.7885	0.246	0.8415	0.12
Mof_H 	H 	0.7995	0.2755	0.8626	-0.043
Mof_N 	N 	0.8713	0.2232	0.8184	-0.215
Mof_C 	C 	0.8538	0.1805	0.7914	0.111
Mof_H 	H 	0.9128	0.1638	0.7759	-0.038
Mof_N 	N 	0.7597	0.3401	0.2848	-0.205
Mof_C 	C 	0.6791	0.1878	0.8082	0.109
Mof_H 	H 	0.6103	0.1759	0.8034	-0.036
Mof_N 	N 	0.3935	0.2294	0.8964	-0.215
Mof_C 	C 	0.3899	0.1929	0.9435	0.115
Mof_H 	H 	0.4544	0.1821	0.9701	-0.04
Mof_N 	N 	0.3009	0.1686	0.958	-0.21
Mof_C 	C 	0.2099	0.1884	0.9233	0.106
Mof_H 	H 	0.1457	0.1746	0.9353	-0.036
Mof_N 	N 	0.2039	0.2255	0.8742	-0.214
Mof_C 	C 	0.2977	0.2462	0.8647	0.1
Mof_H 	H 	0.2967	0.2738	0.8343	-0.039
Mof_N 	N 	0.0361	0.3169	0.7218	-0.21
Mof_C 	C 	0.1044	0.3255	0.656	0.106
Mof_H 	H 	0.1588	0.3045	0.6495	-0.03
Mof_N 	N 	0.101	0.3599	0.6015	-0.193
Mof_C 	C 	0.0204	0.387	0.6121	0.107
Mof_H 	H 	0.0148	0.412	0.5734	-0.031
Mof_N 	N 	0.9446	0.3832	0.6719	-0.214
Mof_C 	C 	0.9593	0.3492	0.7266	0.11
Mof_H 	H 	0.9133	0.3466	0.7734	-0.041
Mof_N 	N 	0.1219	0.3517	0.058	-0.203
Mof_C 	C 	0.092	0.3296	0.9833	0.115
Mof_H 	H 	0.1148	0.3409	0.9288	-0.043
Mof_N 	N 	0.0328	0.293	0.9788	-0.19
Mof_C 	C 	0.001	0.2777	0.0625	0.101
Mof_H 	H 	0.955	0.253	0.0622	-0.017
Mof_N 	N 	0.0307	0.2952	0.1391	-0.177
Mof_C 	C 	0.0889	0.3342	0.1371	0.084
Mof_H 	H 	0.1066	0.3493	0.1916	-0.029
Mof_N 	N 	0.2525	0.0277	0.0544	-0.214
Mof_C 	C 	0.2413	0.0057	0.9749	0.098
Mof_H 	H 	0.2391	0.0224	0.9213	-0.047
Mof_N 	N 	0.7672	0.4603	0.5306	-0.212
Mof_C 	C 	0.7669	0.4387	0.4509	0.112
Mof_H 	H 	0.7776	0.4076	0.4526	-0.037
Mof_N 	N 	0.7531	0.4576	0.3705	-0.211
Mof_C 	C 	0.2574	0.0023	0.1299	0.105
Mof_H 	H 	0.2688	0.0168	0.1858	-0.046
Mof_N 	N 	0.8626	0.4785	0.78	-0.218
Mof_C 	C 	0.8046	0.5093	0.8202	0.114
Mof_H 	H 	0.7321	0.51	0.8023	-0.054
Mof_N 	N 	0.1614	0.4614	0.1176	-0.227
Mof_C 	C 	0.063	0.4652	0.0915	0.117
Mof_H 	H 	0.0374	0.4458	0.0451	-0.026
Mof_N 	N 	0.9927	0.4939	0.1236	-0.171
Mof_C 	C 	0.9634	0.479	0.8128	0.101
Mof_H 	H 	0.0085	0.4578	0.7884	-0.023
Mof_N 	N 	0.6245	0.3981	0.6997	-0.221
Mof_C 	C 	0.6146	0.3645	0.7613	0.105
Mof_H 	H 	0.6703	0.3606	0.8058	-0.04
Mof_N 	N 	0.533	0.3372	0.7628	-0.206
Mof_C 	C 	0.4557	0.3455	0.701	0.12
Mof_H 	H 	0.3967	0.3263	0.6994	-0.041
Mof_N 	N 	0.4536	0.1218	0.1414	-0.212
Mof_C 	C 	0.5418	0.4037	0.6427	0.112
Mof_H 	H 	0.544	0.4269	0.6001	-0.044
Mof_Ag	Ag	0.548	0.22763	0.3767	0.575
Mof_Ag	Ag	0.042	0.24606	0.3172	0.599
Mof_Ag	Ag	0.2646	0.09443	0.5677	0.518
Mof_Ag	Ag	0.291	0.39629	0.5496	0.543
Mof_Ag	Ag	0.7386	0.08644	0.73366	0.484
Mof_Ag	Ag	0.79	0.07232	0.17555	0.591
Mof_N 	N 	0.5443	0.1714	0.4877	-0.212
Mof_C 	C 	0.4547	0.1472	0.4874	0.112
Mof_H 	H 	0.4065	0.1493	0.4367	-0.046
Mof_N 	N 	0.4304	0.1206	0.5539	-0.226
Mof_C 	C 	0.5033	0.1143	0.6218	0.103
Mof_H 	H 	0.4868	0.0951	0.669	-0.053
Mof_N 	N 	0.5983	0.1336	0.6264	-0.194
Mof_C 	C 	0.6099	0.1637	0.5624	0.105
Mof_H 	H 	0.6705	0.1819	0.5695	-0.027
Mof_N 	N 	0.6894	0.2702	0.3369	-0.221
Mof_C 	C 	0.7885	0.254	0.3415	0.12
Mof_H 	H 	0.7995	0.2245	0.3626	-0.043
Mof_N 	N 	0.8713	0.2768	0.3184	-0.215
Mof_C 	C 	0.8538	0.3195	0.2914	0.111
Mof_H 	H 	0.9128	0.3362	0.2759	-0.038
Mof_N 	N 	0.7597	0.1599	0.7848	-0.205
Mof_C 	C 	0.6791	0.3122	0.3082	0.109
Mof_H 	H 	0.6103	0.3241	0.3034	-0.036
Mof_N 	N 	0.3935	0.2706	0.3964	-0.215
Mof_C 	C 	0.3899	0.3071	0.4435	0.115
Mof_H 	H 	0.4544	0.3179	0.4701	-0.04
Mof_N 	N 	0.3009	0.3314	0.458	-0.21
Mof_C 	C 	0.2099	0.3116	0.4233	0.106
Mof_H 	H 	0.1457	0.3254	0.4353	-0.036
Mof_N 	N 	0.2039	0.2745	0.3742	-0.214
Mof_C 	C 	0.2977	0.2538	0.3647	0.1
Mof_H 	H 	0.2967	0.2262	0.3343	-0.039
Mof_N 	N 	0.0361	0.1831	0.2218	-0.211
Mof_C 	C 	0.1044	0.1745	0.156	0.106
Mof_H 	H 	0.1588	0.1955	0.1495	-0.03
Mof_N 	N 	0.101	0.1401	0.1015	-0.193
Mof_C 	C 	0.0204	0.113	0.1121	0.106
Mof_H 	H 	0.0148	0.088	0.0734	-0.031
Mof_N 	N 	0.9446	0.1168	0.1719	-0.213
Mof_C 	C 	0.9593	0.1508	0.2266	0.111
Mof_H 	H 	0.9133	0.1534	0.2734	-0.041
Mof_N 	N 	0.1219	0.1483	0.558	-0.202
Mof_C 	C 	0.092	0.1704	0.4833	0.115
Mof_H 	H 	0.1148	0.1591	0.4288	-0.043
Mof_N 	N 	0.0328	0.207	0.4788	-0.19
Mof_C 	C 	0.001	0.2223	0.5625	0.103
Mof_H 	H 	0.955	0.247	0.5622	-0.018
Mof_N 	N 	0.0307	0.2048	0.6391	-0.178
Mof_C 	C 	0.0889	0.1658	0.6371	0.084
Mof_H 	H 	0.1066	0.1507	0.6916	-0.029
Mof_N 	N 	0.2525	0.4723	0.5544	-0.214
Mof_C 	C 	0.2413	0.4943	0.4749	0.097
Mof_H 	H 	0.2391	0.4776	0.4213	-0.047
Mof_N 	N 	0.7672	0.0397	0.0306	-0.211
Mof_C 	C 	0.7669	0.0613	0.9509	0.112
Mof_H 	H 	0.7776	0.0924	0.9526	-0.037
Mof_N 	N 	0.7531	0.0424	0.8705	-0.211
Mof_C 	C 	0.2574	0.4977	0.6299	0.106
Mof_H 	H 	0.2688	0.4832	0.6858	-0.046
Mof_N 	N 	0.8626	0.0215	0.28	-0.218
Mof_C 	C 	0.8046	0.9907	0.3202	0.114
Mof_H 	H 	0.7321	0.99	0.3023	-0.054
Mof_N 	N 	0.1614	0.0386	0.6176	-0.227
Mof_C 	C 	0.063	0.0348	0.5915	0.118
Mof_H 	H 	0.0374	0.0542	0.5451	-0.026
Mof_N 	N 	0.9927	0.0061	0.6236	-0.172
Mof_C 	C 	0.9634	0.021	0.3128	0.104
Mof_H 	H 	0.0085	0.0422	0.2884	-0.025
Mof_N 	N 	0.6245	0.1019	0.1997	-0.221
Mof_C 	C 	0.6146	0.1355	0.2613	0.105
Mof_H 	H 	0.6703	0.1394	0.3058	-0.04
Mof_N 	N 	0.533	0.1628	0.2628	-0.206
Mof_C 	C 	0.4557	0.1545	0.201	0.12
Mof_H 	H 	0.3967	0.1737	0.1994	-0.041
Mof_N 	N 	0.4536	0.3782	0.6414	-0.212
Mof_C 	C 	0.5418	0.0963	0.1427	0.112
Mof_H 	H 	0.544	0.0731	0.1001	-0.044
Mof_Ag	Ag	0.452	0.72763	0.1233	0.575
Mof_Ag	Ag	0.958	0.74606	0.1828	0.599
Mof_Ag	Ag	0.7354	0.59443	0.9323	0.518
Mof_Ag	Ag	0.709	0.89629	0.9504	0.542
Mof_Ag	Ag	0.2614	0.58644	0.76634	0.484
Mof_Ag	Ag	0.21	0.57232	0.32445	0.591
Mof_N 	N 	0.4557	0.6714	0.0123	-0.212
Mof_C 	C 	0.5453	0.6472	0.0126	0.113
Mof_H 	H 	0.5935	0.6493	0.0633	-0.046
Mof_N 	N 	0.5696	0.6206	0.9461	-0.226
Mof_C 	C 	0.4967	0.6143	0.8782	0.103
Mof_H 	H 	0.5132	0.5951	0.831	-0.053
Mof_N 	N 	0.4017	0.6336	0.8736	-0.194
Mof_C 	C 	0.3901	0.6637	0.9376	0.105
Mof_H 	H 	0.3295	0.6819	0.9305	-0.027
Mof_N 	N 	0.3106	0.7702	0.1631	-0.221
Mof_C 	C 	0.2115	0.754	0.1585	0.12
Mof_H 	H 	0.2005	0.7245	0.1374	-0.043
Mof_N 	N 	0.1287	0.7768	0.1816	-0.215
Mof_C 	C 	0.1462	0.8195	0.2086	0.111
Mof_H 	H 	0.0872	0.8362	0.2241	-0.038
Mof_N 	N 	0.2403	0.6599	0.7152	-0.205
Mof_C 	C 	0.3209	0.8122	0.1918	0.109
Mof_H 	H 	0.3897	0.8241	0.1966	-0.036
Mof_N 	N 	0.6065	0.7706	0.1036	-0.215
Mof_C 	C 	0.6101	0.8071	0.0565	0.115
Mof_H 	H 	0.5456	0.8179	0.0299	-0.04
Mof_N 	N 	0.6991	0.8314	0.042	-0.21
Mof_C 	C 	0.7901	0.8116	0.0767	0.106
Mof_H 	H 	0.8543	0.8254	0.0647	-0.036
Mof_N 	N 	0.7961	0.7745	0.1258	-0.214
Mof_C 	C 	0.7023	0.7538	0.1353	0.1
Mof_H 	H 	0.7033	0.7262	0.1657	-0.039
Mof_N 	N 	0.9639	0.6831	0.2782	-0.21
Mof_C 	C 	0.8956	0.6745	0.344	0.106
Mof_H 	H 	0.8412	0.6955	0.3505	-0.03
Mof_N 	N 	0.899	0.6401	0.3985	-0.193
Mof_C 	C 	0.9796	0.613	0.3879	0.107
Mof_H 	H 	0.9852	0.588	0.4266	-0.031
Mof_N 	N 	0.0554	0.6168	0.3281	-0.214
Mof_C 	C 	0.0407	0.6508	0.2734	0.11
Mof_H 	H 	0.0867	0.6534	0.2266	-0.041
Mof_N 	N 	0.8781	0.6483	0.942	-0.203
Mof_C 	C 	0.908	0.6704	0.0167	0.115
Mof_H 	H 	0.8852	0.6591	0.0712	-0.043
Mof_N 	N 	0.9672	0.707	0.0212	-0.19
Mof_C 	C 	0.999	0.7223	0.9375	0.101
Mof_H 	H 	0.045	0.747	0.9378	-0.017
Mof_N 	N 	0.9693	0.7048	0.8609	-0.177
Mof_C 	C 	0.9111	0.6658	0.8629	0.084
Mof_H 	H 	0.8934	0.6507	0.8084	-0.029
Mof_N 	N 	0.7475	0.9723	0.9456	-0.214
Mof_C 	C 	0.7587	0.9943	0.0251	0.098
Mof_H 	H 	0.7609	0.9776	0.0787	-0.047
Mof_N 	N 	0.2328	0.5397	0.4694	-0.212
Mof_C 	C 	0.2331	0.5613	0.5491	0.112
Mof_H 	H 	0.2224	0.5924	0.5474	-0.037
Mof_N 	N 	0.2469	0.5424	0.6295	-0.211
Mof_C 	C 	0.7426	0.9977	0.8701	0.105
Mof_H 	H 	0.7312	0.9832	0.8142	-0.046
Mof_N 	N 	0.1374	0.5215	0.22	-0.218
Mof_C 	C 	0.1954	0.4907	0.1798	0.114
Mof_H 	H 	0.2679	0.49	0.1977	-0.054
Mof_N 	N 	0.8386	0.5386	0.8824	-0.227
Mof_C 	C 	0.937	0.5348	0.9085	0.117
Mof_H 	H 	0.9626	0.5542	0.9549	-0.026
Mof_N 	N 	0.0073	0.5061	0.8764	-0.171
Mof_C 	C 	0.0366	0.521	0.1872	0.101
Mof_H 	H 	0.9915	0.5422	0.2116	-0.023
Mof_N 	N 	0.3755	0.6019	0.3003	-0.221
Mof_C 	C 	0.3854	0.6355	0.2387	0.105
Mof_H 	H 	0.3297	0.6394	0.1942	-0.04
Mof_N 	N 	0.467	0.6628	0.2372	-0.206
Mof_C 	C 	0.5443	0.6545	0.299	0.12
Mof_H 	H 	0.6033	0.6737	0.3006	-0.041
Mof_N 	N 	0.5464	0.8782	0.8586	-0.212
Mof_C 	C 	0.4582	0.5963	0.3573	0.112
Mof_H 	H 	0.456	0.5731	0.3999	-0.044
_end
