data_functionalizedCrystal
_audit_creation_method	'EQeq! by Chris Wilmer'
_symmetry_space_group_name_H-M	'P1'
_symmetry_Int_Tables_number	1
_symmetry_cell_setting	triclinic
loop_
_symmetry_equiv_pos_as_xyz
  x,y,z
_cell_length_a	13.5179
_cell_length_b	14.6114
_cell_length_c	16.6126
_cell_angle_alpha	79.1522
_cell_angle_beta	65.9924
_cell_angle_gamma	62.4467
loop_
_atom_site_label
_atom_site_type_symbol
_atom_site_fract_x
_atom_site_fract_y
_atom_site_fract_z
_atom_site_charge
Mof_Co	Co	0.875	0.75	0.75	1.055
Mof_Co	Co	0.125	0.25	0.25	1.055
Mof_H 	H 	0.8298	0.2752	0.071	0.035
Mof_H 	H 	0.0168	0.1404	0.9166	0.048
Mof_H 	H 	0.4602	0.4006	0.3674	0.044
Mof_H 	H 	0.3276	0.9006	0.6326	0.045
Mof_H 	H 	0.447	0.1304	0.6708	0.061
Mof_H 	H 	0.1287	0.4684	0.1652	-0.021
Mof_H 	H 	0.1582	0.01	0.7418	0.057
Mof_H 	H 	0.8498	0.2456	0.3878	0.041
Mof_H 	H 	0.6	0.49	0.7418	0.058
Mof_H 	H 	0.2061	0.0316	0.1652	-0.022
Mof_H 	H 	0.6572	0.8596	0.4166	0.047
Mof_H 	H 	0.8713	0.5316	0.8348	-0.022
Mof_H 	H 	0.6724	0.0994	0.3674	0.044
Mof_H 	H 	0.605	0.7248	0.571	0.034
Mof_H 	H 	0.3805	0.4188	0.0248	0.047
Mof_H 	H 	0.1702	0.7248	0.929	0.034
Mof_H 	H 	0.5666	0.3596	0.9166	0.047
Mof_H 	H 	0.5398	0.5994	0.6326	0.043
Mof_H 	H 	0.7007	0.4188	0.4752	0.047
Mof_H 	H 	0.2623	0.0316	0.3348	-0.022
Mof_H 	H 	0.9832	0.8596	0.0834	0.047
Mof_H 	H 	0.6392	0.4006	0.1326	0.043
Mof_H 	H 	0.6759	0.9188	0.5248	0.047
Mof_H 	H 	0.5992	0.2248	0.071	0.034
Mof_H 	H 	0.3318	0.01	0.7582	0.057
Mof_H 	H 	0.9029	0.4684	0.3348	-0.022
Mof_H 	H 	0.1874	0.893	0.1106	0.06
Mof_H 	H 	0.553	0.8696	0.3292	0.06
Mof_H 	H 	0.2624	0.2544	0.3878	0.041
Mof_H 	H 	0.4196	0.893	0.3894	0.06
Mof_H 	H 	0.4334	0.6404	0.0834	0.047
Mof_H 	H 	0.4	0.51	0.2582	0.058
Mof_H 	H 	0.798	0.393	0.8894	0.06
Mof_H 	H 	0.2993	0.5812	0.5248	0.047
Mof_H 	H 	0.676	0.2248	0.429	0.033
Mof_H 	H 	0.3241	0.0812	0.4752	0.047
Mof_H 	H 	0.0774	0.8696	0.1708	0.06
Mof_H 	H 	0.395	0.2752	0.429	0.034
Mof_H 	H 	0.8418	0.99	0.2582	0.057
Mof_H 	H 	0.41	0.49	0.7582	0.058
Mof_H 	H 	0.6682	0.99	0.2418	0.057
Mof_H 	H 	0.4046	0.2456	0.1122	0.041
Mof_H 	H 	0.6195	0.5812	0.9752	0.047
Mof_H 	H 	0.3428	0.1404	0.5834	0.047
Mof_H 	H 	0.5804	0.107	0.6106	0.06
Mof_H 	H 	0.202	0.607	0.1106	0.06
Mof_H 	H 	0.0168	0.7456	0.8878	0.041
Mof_H 	H 	0.5738	0.3596	0.5834	0.047
Mof_H 	H 	0.2718	0.9006	0.8674	0.044
Mof_H 	H 	0.59	0.51	0.2418	0.058
Mof_H 	H 	0.7377	0.9684	0.6652	-0.022
Mof_H 	H 	0.5954	0.7544	0.8878	0.041
Mof_H 	H 	0.9226	0.1304	0.8292	0.06
Mof_H 	H 	0.8126	0.107	0.8894	0.06
Mof_H 	H 	0.0971	0.5316	0.6652	-0.022
Mof_H 	H 	0.1502	0.7544	0.6122	0.041
Mof_H 	H 	0.7482	0.3696	0.8292	0.06
Mof_H 	H 	0.691	0.607	0.3894	0.06
Mof_H 	H 	0.4262	0.6404	0.4166	0.047
Mof_H 	H 	0.9053	0.9188	0.9752	0.047
Mof_H 	H 	0.309	0.393	0.6106	0.06
Mof_H 	H 	0.3822	0.3696	0.6708	0.06
Mof_H 	H 	0.3608	0.5994	0.8674	0.043
Mof_H 	H 	0.324	0.7752	0.571	0.033
Mof_H 	H 	0.6178	0.6304	0.3292	0.06
Mof_H 	H 	0.2518	0.6304	0.1708	0.06
Mof_H 	H 	0.7376	0.7456	0.6122	0.041
Mof_H 	H 	0.4008	0.7752	0.929	0.034
Mof_H 	H 	0.7282	0.0994	0.1326	0.044
Mof_H 	H 	0.7939	0.9684	0.8348	-0.022
Mof_H 	H 	0.0947	0.0812	0.0248	0.047
Mof_H 	H 	0.9832	0.2544	0.1122	0.041
Mof_C 	C 	0.94685	0.05442	0.2598	0.054
Mof_C 	C 	0.30179	0.60616	0.84846	-0.034
Mof_C 	C 	0.82639	0.55166	0.79924	0.077
Mof_C 	C 	0.59205	0.60616	0.65154	-0.034
Mof_C 	C 	0.04722	0.96418	0.06658	0.051
Mof_C 	C 	0.3726	0.45968	0.28388	-0.085
Mof_C 	C 	0.66184	0.5766	0.36216	-0.112
Mof_C 	C 	0.84873	0.19508	0.36186	-0.098
Mof_C 	C 	0.95056	0.13014	0.29738	0.042
Mof_C 	C 	0.3862	0.53582	0.06658	0.052
Mof_C 	C 	0.25206	0.36986	0.29738	0.041
Mof_C 	C 	0.12563	0.05166	0.20076	0.076
Mof_C 	C 	0.49873	0.05442	0.2402	0.053
Mof_C 	C 	0.17361	0.44834	0.20076	0.077
Mof_C 	C 	0.42202	0.46418	0.56658	0.052
Mof_C 	C 	0.76107	0.44558	0.2402	0.054
Mof_C 	C 	0.70665	0.55442	0.7402	0.054
Mof_C 	C 	0.54381	0.80492	0.86186	-0.097
Mof_C 	C 	0.15127	0.80492	0.63814	-0.098
Mof_C 	C 	0.476	0.9234	0.36216	-0.113
Mof_C 	C 	0.4886	0.96418	0.43342	0.052
Mof_C 	C 	0.38384	0.95968	0.78388	-0.083
Mof_C 	C 	0.8994	0.0766	0.86216	-0.112
Mof_C 	C 	0.74359	0.10616	0.34846	-0.035
Mof_C 	C 	0.61616	0.04032	0.21612	-0.083
Mof_C 	C 	0.61922	0.45192	0.48502	-0.064
Mof_C 	C 	0.29335	0.44558	0.2598	0.054
Mof_C 	C 	0.63194	0.68186	0.61386	-0.02
Mof_C 	C 	0.54327	0.4166	0.54994	-0.076
Mof_C 	C 	0.42766	0.81814	0.88614	-0.019
Mof_C 	C 	0.99019	0.9166	0.04994	-0.074
Mof_C 	C 	0.33816	0.4234	0.63784	-0.112
Mof_C 	C 	0.7458	0.18186	0.38614	-0.019
Mof_C 	C 	0.15648	0.95968	0.71612	-0.083
Mof_C 	C 	0.87808	0.36986	0.20262	0.041
Mof_C 	C 	0.39576	0.04808	0.48502	-0.065
Mof_C 	C 	0.42886	0.45192	0.01498	-0.064
Mof_C 	C 	0.34975	0.89384	0.84846	-0.035
Mof_C 	C 	0.25641	0.89384	0.65154	-0.035
Mof_C 	C 	0.87805	0.44834	0.29924	0.077
Mof_C 	C 	0.5114	0.03582	0.56658	0.052
Mof_C 	C 	0.09433	0.69508	0.86186	-0.097
Mof_C 	C 	0.57114	0.54808	0.98502	-0.064
Mof_C 	C 	0.2542	0.81814	0.61386	-0.019
Mof_C 	C 	0.57234	0.18186	0.11386	-0.019
Mof_C 	C 	0.5807	0.86986	0.79738	0.042
Mof_C 	C 	0.67729	0.94834	0.70076	0.077
Mof_C 	C 	0.40795	0.39384	0.34846	-0.034
Mof_C 	C 	0.59321	0.9166	0.45006	-0.076
Mof_C 	C 	0.45987	0.5834	0.04994	-0.076
Mof_C 	C 	0.71059	0.69508	0.63814	-0.097
Mof_C 	C 	0.74794	0.63014	0.70262	0.041
Mof_C 	C 	0.38078	0.54808	0.51498	-0.064
Mof_C 	C 	0.50127	0.94558	0.7598	0.053
Mof_C 	C 	0.54013	0.4166	0.95006	-0.076
Mof_C 	C 	0.57798	0.53582	0.43342	0.052
Mof_C 	C 	0.32271	0.05166	0.29924	0.077
Mof_C 	C 	0.87437	0.94834	0.79924	0.076
Mof_C 	C 	0.94384	0.95192	0.98502	-0.066
Mof_C 	C 	0.04944	0.86986	0.70262	0.042
Mof_C 	C 	0.45673	0.5834	0.45006	-0.076
Mof_C 	C 	0.95278	0.03582	0.93342	0.051
Mof_C 	C 	0.26156	0.5766	0.13784	-0.112
Mof_C 	C 	0.8138	0.31814	0.11386	-0.02
Mof_C 	C 	0.4193	0.13014	0.20262	0.042
Mof_C 	C 	0.05616	0.04808	0.01498	-0.066
Mof_C 	C 	0.524	0.0766	0.63784	-0.113
Mof_C 	C 	0.28941	0.30492	0.36186	-0.097
Mof_C 	C 	0.90567	0.30492	0.13814	-0.097
Mof_C 	C 	0.33228	0.54032	0.78388	-0.085
Mof_C 	C 	0.05315	0.94558	0.7402	0.054
Mof_C 	C 	0.1862	0.68186	0.88614	-0.02
Mof_C 	C 	0.23893	0.55442	0.7598	0.054
Mof_C 	C 	0.84352	0.04032	0.28388	-0.083
Mof_C 	C 	0.6138	0.46418	0.93342	0.052
Mof_C 	C 	0.60424	0.95192	0.51498	-0.065
Mof_C 	C 	0.6274	0.54032	0.71612	-0.085
Mof_C 	C 	0.69821	0.39384	0.15154	-0.034
Mof_C 	C 	0.73844	0.4234	0.86216	-0.112
Mof_C 	C 	0.12195	0.55166	0.70076	0.077
Mof_C 	C 	0.45619	0.19508	0.13814	-0.097
Mof_C 	C 	0.1006	0.9234	0.13784	-0.112
Mof_C 	C 	0.40679	0.0834	0.54994	-0.076
Mof_C 	C 	0.65025	0.10616	0.15154	-0.035
Mof_C 	C 	0.66772	0.45968	0.21612	-0.085
Mof_C 	C 	0.00981	0.0834	0.95006	-0.074
Mof_C 	C 	0.36806	0.31814	0.38614	-0.02
Mof_C 	C 	0.12192	0.63014	0.79738	0.041
Mof_N 	N 	0.95006	0.3729	0.24298	-0.248
Mof_N 	N 	0.93912	0.99546	0.80188	-0.12
Mof_N 	N 	0.82296	0.6271	0.74298	-0.249
Mof_N 	N 	0.43458	0.00454	0.30188	-0.119
Mof_N 	N 	0.759	0.50454	0.80188	-0.12
Mof_N 	N 	0.93406	0.8729	0.74298	-0.249
Mof_N 	N 	0.06088	0.00454	0.19812	-0.12
Mof_N 	N 	0.241	0.49546	0.19812	-0.12
Mof_N 	N 	0.23646	0.50454	0.69812	-0.119
Mof_N 	N 	0.17704	0.3729	0.25702	-0.249
Mof_N 	N 	0.69304	0.8729	0.75702	-0.249
Mof_N 	N 	0.06594	0.1271	0.25702	-0.249
Mof_N 	N 	0.76354	0.49546	0.30188	-0.119
Mof_N 	N 	0.04994	0.6271	0.75702	-0.248
Mof_N 	N 	0.56542	0.99546	0.69812	-0.119
Mof_N 	N 	0.30696	0.1271	0.24298	-0.249
_end
