data_functionalizedCrystal
_audit_creation_method	'EQeq! by Chris Wilmer'
_symmetry_space_group_name_H-M	'P1'
_symmetry_Int_Tables_number	1
_symmetry_cell_setting	triclinic
loop_
_symmetry_equiv_pos_as_xyz
  x,y,z
_cell_length_a	6.7745
_cell_length_b	14.22
_cell_length_c	15.629
_cell_angle_alpha	90
_cell_angle_beta	101.1
_cell_angle_gamma	90
loop_
_atom_site_label
_atom_site_type_symbol
_atom_site_fract_x
_atom_site_fract_y
_atom_site_fract_z
_atom_site_charge
Mof_Sr	Sr	0.23083	0.58473	0.45173	1.504
Mof_Sr	Sr	0.76917	0.08473	0.04827	1.472
Mof_Sr	Sr	0.76917	0.41527	0.54827	1.504
Mof_Sr	Sr	0.23083	0.91527	0.95173	1.472
Mof_Ni	Ni	0.22202	0.73529	0.70571	1.091
Mof_Ni	Ni	0.77798	0.23529	0.79429	1.092
Mof_Ni	Ni	0.77798	0.26471	0.29429	1.091
Mof_Ni	Ni	0.22202	0.76471	0.20571	1.092
Mof_H 	H 	0.4911	0.537	0.768	0.224
Mof_H 	H 	0.6943	0.5416	0.735	0.241
Mof_H 	H 	0.7144	0.6	0.1958	0.242
Mof_H 	H 	0.8725	0.5639	0.1435	0.236
Mof_H 	H 	0.0814	0.3777	0.4456	0.349
Mof_H 	H 	0.2249	0.4014	0.5213	0.305
Mof_H 	H 	0.5089	0.037	0.732	0.225
Mof_H 	H 	0.3057	0.0416	0.765	0.245
Mof_H 	H 	0.2856	0.1	0.3042	0.241
Mof_H 	H 	0.1275	0.0639	0.3565	0.236
Mof_H 	H 	0.9186	0.8777	0.0544	0.343
Mof_H 	H 	0.7751	0.9014	0.9787	0.288
Mof_H 	H 	0.5089	0.463	0.232	0.224
Mof_H 	H 	0.3057	0.4584	0.265	0.241
Mof_H 	H 	0.2856	0.4	0.8042	0.242
Mof_H 	H 	0.1275	0.4361	0.8565	0.236
Mof_H 	H 	0.9186	0.6223	0.5544	0.349
Mof_H 	H 	0.7751	0.5986	0.4787	0.305
Mof_H 	H 	0.4911	0.963	0.268	0.225
Mof_H 	H 	0.6943	0.9584	0.235	0.245
Mof_H 	H 	0.7144	0.9	0.6958	0.241
Mof_H 	H 	0.8725	0.9361	0.6435	0.236
Mof_H 	H 	0.0814	0.1223	0.9456	0.343
Mof_H 	H 	0.2249	0.0986	0.0213	0.288
Mof_C 	C 	0.4569	0.5836	0.6437	0.586
Mof_C 	C 	0.5703	0.5754	0.7359	-0.758
Mof_C 	C 	0.6235	0.6655	0.7864	0.54
Mof_C 	C 	0.9965	0.6073	0.2637	0.552
Mof_C 	C 	0.8435	0.6145	0.1809	-0.757
Mof_C 	C 	0.8125	0.7012	0.1252	0.562
Mof_C 	C 	0.5431	0.0836	0.8563	0.585
Mof_C 	C 	0.4297	0.0754	0.7641	-0.759
Mof_C 	C 	0.3765	0.1655	0.7136	0.541
Mof_C 	C 	0.0035	0.1073	0.2363	0.555
Mof_C 	C 	0.1565	0.1145	0.3191	-0.759
Mof_C 	C 	0.1875	0.2012	0.3748	0.563
Mof_C 	C 	0.5431	0.4164	0.3563	0.586
Mof_C 	C 	0.4297	0.4246	0.2641	-0.758
Mof_C 	C 	0.3765	0.3345	0.2136	0.54
Mof_C 	C 	0.0035	0.3927	0.7363	0.552
Mof_C 	C 	0.1565	0.3855	0.8191	-0.757
Mof_C 	C 	0.1875	0.2988	0.8748	0.562
Mof_C 	C 	0.4569	0.9164	0.1437	0.585
Mof_C 	C 	0.5703	0.9246	0.2359	-0.759
Mof_C 	C 	0.6235	0.8345	0.2864	0.541
Mof_C 	C 	0.9965	0.8927	0.7637	0.555
Mof_C 	C 	0.8435	0.8855	0.6809	-0.759
Mof_C 	C 	0.8125	0.7988	0.6252	0.563
Mof_O 	O 	0.3099	0.64013	0.62355	-0.59
Mof_O 	O 	0.5063	0.53042	0.58789	-0.594
Mof_O 	O 	0.791	0.6656	0.8375	-0.363
Mof_O 	O 	0.5006	0.731	0.78045	-0.513
Mof_O 	O 	0.1354	0.66635	0.28471	-0.588
Mof_O 	O 	0.979	0.53826	0.31083	-0.486
Mof_O 	O 	0.9461	0.7606	0.12803	-0.531
Mof_O 	O 	0.6471	0.7065	0.0729	-0.382
Mof_O 	O 	0.1145	0.41616	0.48759	-0.865
Mof_O 	O 	0.6901	0.14013	0.87645	-0.586
Mof_O 	O 	0.4937	0.03042	0.91211	-0.583
Mof_O 	O 	0.209	0.1656	0.6625	-0.362
Mof_O 	O 	0.4994	0.231	0.71955	-0.512
Mof_O 	O 	0.8646	0.16635	0.21529	-0.589
Mof_O 	O 	0.021	0.03826	0.18917	-0.486
Mof_O 	O 	0.0539	0.2606	0.37197	-0.535
Mof_O 	O 	0.3529	0.2065	0.4271	-0.386
Mof_O 	O 	0.8855	0.91616	0.01241	-0.834
Mof_O 	O 	0.6901	0.35987	0.37645	-0.59
Mof_O 	O 	0.4937	0.46958	0.41211	-0.594
Mof_O 	O 	0.209	0.3344	0.1625	-0.363
Mof_O 	O 	0.4994	0.269	0.21955	-0.513
Mof_O 	O 	0.8646	0.33365	0.71529	-0.588
Mof_O 	O 	0.021	0.46174	0.68917	-0.486
Mof_O 	O 	0.0539	0.2394	0.87197	-0.531
Mof_O 	O 	0.3529	0.2935	0.9271	-0.382
Mof_O 	O 	0.8855	0.58384	0.51241	-0.865
Mof_O 	O 	0.3099	0.85987	0.12355	-0.586
Mof_O 	O 	0.5063	0.96958	0.08789	-0.583
Mof_O 	O 	0.791	0.8344	0.3375	-0.362
Mof_O 	O 	0.5006	0.769	0.28045	-0.512
Mof_O 	O 	0.1354	0.83365	0.78471	-0.589
Mof_O 	O 	0.979	0.96174	0.81083	-0.486
Mof_O 	O 	0.9461	0.7394	0.62803	-0.535
Mof_O 	O 	0.6471	0.7935	0.5729	-0.386
Mof_O 	O 	0.1145	0.08384	0.98759	-0.834
_end
