data_functionalizedCrystal
_audit_creation_method	'EQeq! by Chris Wilmer'
_symmetry_space_group_name_H-M	'P1'
_symmetry_Int_Tables_number	1
_symmetry_cell_setting	triclinic
loop_
_symmetry_equiv_pos_as_xyz
  x,y,z
_cell_length_a	11.6017
_cell_length_b	16.2188
_cell_length_c	12.0231
_cell_angle_alpha	90
_cell_angle_beta	112.571
_cell_angle_gamma	90
loop_
_atom_site_label
_atom_site_type_symbol
_atom_site_fract_x
_atom_site_fract_y
_atom_site_fract_z
_atom_site_charge
Mof_Tb	Tb	0.19438	0.02751	0.07881	2.253
Mof_S 	S 	0.05305	0.21923	0.71255	0.108
Mof_S 	S 	0.49007	0.28327	0.25105	0.077
Mof_O 	O 	0.1306	0.0768	0.8795	-0.498
Mof_O 	O 	0.9383	0.0305	0.8437	-0.575
Mof_O 	O 	0.0568	0.3643	0.5692	-0.556
Mof_O 	O 	0.8589	0.4011	0.5247	-0.548
Mof_O 	O 	0.2751	0.1041	0.2801	-0.387
Mof_O 	O 	0.3373	0.1403	0.1353	-0.451
Mof_O 	O 	0.6483	0.4337	0.2927	-0.426
Mof_O 	O 	0.6236	0.4769	0.4574	-0.399
Mof_C 	C 	0.9578	0.1525	0.7494	-0.134
Mof_C 	C 	0.8361	0.178	0.7004	0.002
Mof_H 	H 	0.7712	0.1501	0.7113	0.044
Mof_C 	C 	0.8194	0.2498	0.6327	0.02
Mof_H 	H 	0.7423	0.2751	0.5938	0.04
Mof_C 	C 	0.9283	0.2791	0.6294	-0.153
Mof_C 	C 	0.013	0.0818	0.829	0.462
Mof_C 	C 	0.95	0.3545	0.5695	0.529
Mof_C 	C 	0.3934	0.2284	0.3022	-0.079
Mof_C 	C 	0.3828	0.2651	0.4	-0.007
Mof_H 	H 	0.3346	0.2443	0.44	0.054
Mof_C 	C 	0.4533	0.3383	0.4336	-0.016
Mof_H 	H 	0.4553	0.3717	0.4972	0.067
Mof_C 	C 	0.5178	0.355	0.3631	-0.066
Mof_C 	C 	0.3315	0.1529	0.2361	0.323
Mof_C 	C 	0.6	0.4263	0.3711	0.301
Mof_Tb	Tb	0.80562	0.52751	0.42119	2.286
Mof_S 	S 	0.94695	0.71923	0.78745	0.105
Mof_S 	S 	0.50993	0.78327	0.24895	0.077
Mof_O 	O 	0.8694	0.5768	0.6205	-0.507
Mof_O 	O 	0.0617	0.5305	0.6563	-0.589
Mof_O 	O 	0.9432	0.8643	0.9308	-0.559
Mof_O 	O 	0.1411	0.9011	0.9753	-0.547
Mof_O 	O 	0.7249	0.6041	0.2199	-0.387
Mof_O 	O 	0.6627	0.6403	0.3647	-0.451
Mof_O 	O 	0.3517	0.9337	0.2073	-0.42
Mof_O 	O 	0.3764	0.9769	0.0426	-0.391
Mof_C 	C 	0.0422	0.6525	0.7506	-0.138
Mof_C 	C 	0.1639	0.678	0.7996	0.004
Mof_H 	H 	0.2288	0.6501	0.7887	0.043
Mof_C 	C 	0.1806	0.7498	0.8673	0.019
Mof_H 	H 	0.2577	0.7751	0.9062	0.04
Mof_C 	C 	0.0717	0.7791	0.8706	-0.152
Mof_C 	C 	0.987	0.5818	0.671	0.47
Mof_C 	C 	0.05	0.8545	0.9305	0.532
Mof_C 	C 	0.6066	0.7284	0.1978	-0.078
Mof_C 	C 	0.6172	0.7651	0.1	-0.007
Mof_H 	H 	0.6654	0.7443	0.06	0.055
Mof_C 	C 	0.5467	0.8383	0.0664	-0.016
Mof_H 	H 	0.5447	0.8717	0.0028	0.069
Mof_C 	C 	0.4822	0.855	0.1369	-0.065
Mof_C 	C 	0.6685	0.6529	0.2639	0.323
Mof_C 	C 	0.4	0.9263	0.1289	0.301
Mof_Tb	Tb	0.80562	0.97249	0.92119	2.252
Mof_S 	S 	0.94695	0.78077	0.28745	0.107
Mof_S 	S 	0.50993	0.71673	0.74895	0.076
Mof_O 	O 	0.8694	0.9232	0.1205	-0.499
Mof_O 	O 	0.0617	0.9695	0.1563	-0.575
Mof_O 	O 	0.9432	0.6357	0.4308	-0.556
Mof_O 	O 	0.1411	0.5989	0.4753	-0.548
Mof_O 	O 	0.7249	0.8959	0.7199	-0.387
Mof_O 	O 	0.6627	0.8597	0.8647	-0.451
Mof_O 	O 	0.3517	0.5663	0.7073	-0.426
Mof_O 	O 	0.3764	0.5231	0.5426	-0.399
Mof_C 	C 	0.0422	0.8475	0.2506	-0.134
Mof_C 	C 	0.1639	0.822	0.2996	0.002
Mof_H 	H 	0.2288	0.8499	0.2887	0.044
Mof_C 	C 	0.1806	0.7502	0.3673	0.02
Mof_H 	H 	0.2577	0.7249	0.4062	0.04
Mof_C 	C 	0.0717	0.7209	0.3706	-0.153
Mof_C 	C 	0.987	0.9182	0.171	0.462
Mof_C 	C 	0.05	0.6455	0.4305	0.529
Mof_C 	C 	0.6066	0.7716	0.6978	-0.079
Mof_C 	C 	0.6172	0.7349	0.6	-0.007
Mof_H 	H 	0.6654	0.7557	0.56	0.054
Mof_C 	C 	0.5467	0.6617	0.5664	-0.016
Mof_H 	H 	0.5447	0.6283	0.5028	0.067
Mof_C 	C 	0.4822	0.645	0.6369	-0.066
Mof_C 	C 	0.6685	0.8471	0.7639	0.323
Mof_C 	C 	0.4	0.5737	0.6289	0.301
Mof_Tb	Tb	0.19438	0.47249	0.57881	2.286
Mof_S 	S 	0.05305	0.28077	0.21255	0.105
Mof_S 	S 	0.49007	0.21673	0.75105	0.077
Mof_O 	O 	0.1306	0.4232	0.3795	-0.507
Mof_O 	O 	0.9383	0.4695	0.3437	-0.589
Mof_O 	O 	0.0568	0.1357	0.0692	-0.559
Mof_O 	O 	0.8589	0.0989	0.0247	-0.547
Mof_O 	O 	0.2751	0.3959	0.7801	-0.387
Mof_O 	O 	0.3373	0.3597	0.6353	-0.451
Mof_O 	O 	0.6483	0.0663	0.7927	-0.42
Mof_O 	O 	0.6236	0.0231	0.9574	-0.391
Mof_C 	C 	0.9578	0.3475	0.2494	-0.138
Mof_C 	C 	0.8361	0.322	0.2004	0.004
Mof_H 	H 	0.7712	0.3499	0.2113	0.043
Mof_C 	C 	0.8194	0.2502	0.1327	0.019
Mof_H 	H 	0.7423	0.2249	0.0938	0.04
Mof_C 	C 	0.9283	0.2209	0.1294	-0.152
Mof_C 	C 	0.013	0.4182	0.329	0.47
Mof_C 	C 	0.95	0.1455	0.0695	0.532
Mof_C 	C 	0.3934	0.2716	0.8022	-0.078
Mof_C 	C 	0.3828	0.2349	0.9	-0.007
Mof_H 	H 	0.3346	0.2557	0.94	0.055
Mof_C 	C 	0.4533	0.1617	0.9336	-0.016
Mof_H 	H 	0.4553	0.1283	0.9972	0.069
Mof_C 	C 	0.5178	0.145	0.8631	-0.065
Mof_C 	C 	0.3315	0.3471	0.7361	0.323
Mof_C 	C 	0.6	0.0737	0.8711	0.301
_end
