data_functionalizedCrystal
_audit_creation_method	'EQeq! by Chris Wilmer'
_symmetry_space_group_name_H-M	'P1'
_symmetry_Int_Tables_number	1
_symmetry_cell_setting	triclinic
loop_
_symmetry_equiv_pos_as_xyz
  x,y,z
_cell_length_a	13.8425
_cell_length_b	13.8425
_cell_length_c	20.2042
_cell_angle_alpha	90
_cell_angle_beta	90
_cell_angle_gamma	120
loop_
_atom_site_label
_atom_site_type_symbol
_atom_site_fract_x
_atom_site_fract_y
_atom_site_fract_z
_atom_site_charge
Mof_Al	Al	0.89367	0.33146	0.82478	5.425
Mof_Al	Al	0.99468	0.2258	0.57371	5.457
Mof_P 	P 	0.89452	0.33349	0.66873	1.632
Mof_P 	P 	0.7695	0.99571	0.58162	1.585
Mof_O 	O 	0.9261	0.327	0.7392	-1.775
Mof_O 	O 	0.7555	0.2253	0.8449	-1.812
Mof_O 	O 	0.8898	0.0878	0.5903	-1.85
Mof_O 	O 	0.9712	0.3167	0.6233	-1.715
Mof_O 	O 	0.9083	0.4617	0.845	-1.765
Mof_O 	O 	0.1247	0.2405	0.5986	-1.712
Mof_O 	O 	0.9963	0.264	0.4889	-1.78
Mof_O 	O 	0.9865	0.3064	0.8719	-1.697
Mof_Al	Al	0.66854	0.56221	0.82478	5.427
Mof_Al	Al	0.7742	0.76888	0.57371	5.462
Mof_P 	P 	0.66651	0.56103	0.66873	1.633
Mof_P 	P 	0.00429	0.77379	0.58162	1.587
Mof_O 	O 	0.673	0.5991	0.7392	-1.774
Mof_O 	O 	0.7747	0.5302	0.8449	-1.813
Mof_O 	O 	0.9122	0.802	0.5903	-1.851
Mof_O 	O 	0.6833	0.6545	0.6233	-1.715
Mof_O 	O 	0.5383	0.4466	0.845	-1.764
Mof_O 	O 	0.7595	0.8842	0.5986	-1.714
Mof_O 	O 	0.736	0.7323	0.4889	-1.782
Mof_O 	O 	0.6936	0.6801	0.8719	-1.686
Mof_Al	Al	0.43779	0.10633	0.82478	5.428
Mof_Al	Al	0.23112	0.00532	0.57371	5.453
Mof_P 	P 	0.43897	0.10548	0.66873	1.632
Mof_P 	P 	0.22621	0.2305	0.58162	1.581
Mof_O 	O 	0.4009	0.0739	0.7392	-1.775
Mof_O 	O 	0.4698	0.2445	0.8449	-1.814
Mof_O 	O 	0.198	0.1102	0.5903	-1.847
Mof_O 	O 	0.3455	0.0288	0.6233	-1.714
Mof_O 	O 	0.5534	0.0917	0.845	-1.765
Mof_O 	O 	0.1158	0.8753	0.5986	-1.709
Mof_O 	O 	0.2677	0.0037	0.4889	-1.78
Mof_O 	O 	0.3199	0.0135	0.8719	-1.698
Mof_Al	Al	0.66854	0.10633	0.67522	5.428
Mof_Al	Al	0.7742	0.00532	0.92629	5.357
Mof_P 	P 	0.66651	0.10548	0.83127	1.627
Mof_P 	P 	0.00429	0.2305	0.91838	1.591
Mof_O 	O 	0.673	0.0739	0.7608	-1.775
Mof_O 	O 	0.7747	0.2445	0.6551	-1.813
Mof_O 	O 	0.9122	0.1102	0.9097	-1.839
Mof_O 	O 	0.6833	0.0288	0.8767	-1.697
Mof_O 	O 	0.5383	0.0917	0.655	-1.764
Mof_O 	O 	0.7595	0.8753	0.9014	-1.686
Mof_O 	O 	0.736	0.0037	0.0111	-1.745
Mof_O 	O 	0.6936	0.0135	0.6281	-1.69
Mof_Al	Al	0.43779	0.33146	0.67522	5.431
Mof_Al	Al	0.23112	0.2258	0.92629	5.46
Mof_P 	P 	0.43897	0.33349	0.83127	1.632
Mof_P 	P 	0.22621	0.99571	0.91838	1.593
Mof_O 	O 	0.4009	0.327	0.7608	-1.775
Mof_O 	O 	0.4698	0.2253	0.6551	-1.814
Mof_O 	O 	0.198	0.0878	0.9097	-1.854
Mof_O 	O 	0.3455	0.3167	0.8767	-1.714
Mof_O 	O 	0.5534	0.4617	0.655	-1.765
Mof_O 	O 	0.1158	0.2405	0.9014	-1.712
Mof_O 	O 	0.2677	0.264	0.0111	-1.779
Mof_O 	O 	0.3199	0.3064	0.6281	-1.688
Mof_Al	Al	0.89367	0.56221	0.67522	5.43
Mof_Al	Al	0.99468	0.76888	0.92629	5.402
Mof_P 	P 	0.89452	0.56103	0.83127	1.629
Mof_P 	P 	0.7695	0.77379	0.91838	1.573
Mof_O 	O 	0.9261	0.5991	0.7608	-1.775
Mof_O 	O 	0.7555	0.5302	0.6551	-1.814
Mof_O 	O 	0.8898	0.802	0.9097	-1.835
Mof_O 	O 	0.9712	0.6545	0.8767	-1.705
Mof_O 	O 	0.9083	0.4466	0.655	-1.765
Mof_O 	O 	0.1247	0.8842	0.9014	-1.69
Mof_O 	O 	0.9963	0.7323	0.0111	-1.763
Mof_O 	O 	0.9865	0.6801	0.6281	-1.691
Mof_Al	Al	0.10633	0.66854	0.17522	5.425
Mof_Al	Al	0.00532	0.7742	0.42629	5.457
Mof_P 	P 	0.10548	0.66651	0.33127	1.632
Mof_P 	P 	0.2305	0.00429	0.41838	1.585
Mof_O 	O 	0.0739	0.673	0.2608	-1.775
Mof_O 	O 	0.2445	0.7747	0.1551	-1.812
Mof_O 	O 	0.1102	0.9122	0.4097	-1.85
Mof_O 	O 	0.0288	0.6833	0.3767	-1.715
Mof_O 	O 	0.0917	0.5383	0.155	-1.765
Mof_O 	O 	0.8753	0.7595	0.4014	-1.712
Mof_O 	O 	0.0037	0.736	0.5111	-1.78
Mof_O 	O 	0.0135	0.6936	0.1281	-1.697
Mof_Al	Al	0.33146	0.43779	0.17522	5.427
Mof_Al	Al	0.2258	0.23112	0.42629	5.462
Mof_P 	P 	0.33349	0.43897	0.33127	1.633
Mof_P 	P 	0.99571	0.22621	0.41838	1.587
Mof_O 	O 	0.327	0.4009	0.2608	-1.774
Mof_O 	O 	0.2253	0.4698	0.1551	-1.813
Mof_O 	O 	0.0878	0.198	0.4097	-1.851
Mof_O 	O 	0.3167	0.3455	0.3767	-1.715
Mof_O 	O 	0.4617	0.5534	0.155	-1.764
Mof_O 	O 	0.2405	0.1158	0.4014	-1.714
Mof_O 	O 	0.264	0.2677	0.5111	-1.782
Mof_O 	O 	0.3064	0.3199	0.1281	-1.686
Mof_Al	Al	0.56221	0.89367	0.17522	5.428
Mof_Al	Al	0.76888	0.99468	0.42629	5.453
Mof_P 	P 	0.56103	0.89452	0.33127	1.632
Mof_P 	P 	0.77379	0.7695	0.41838	1.581
Mof_O 	O 	0.5991	0.9261	0.2608	-1.775
Mof_O 	O 	0.5302	0.7555	0.1551	-1.814
Mof_O 	O 	0.802	0.8898	0.4097	-1.847
Mof_O 	O 	0.6545	0.9712	0.3767	-1.714
Mof_O 	O 	0.4466	0.9083	0.155	-1.765
Mof_O 	O 	0.8842	0.1247	0.4014	-1.709
Mof_O 	O 	0.7323	0.9963	0.5111	-1.78
Mof_O 	O 	0.6801	0.9865	0.1281	-1.698
Mof_Al	Al	0.33146	0.89367	0.32478	5.428
Mof_Al	Al	0.2258	0.99468	0.07371	5.357
Mof_P 	P 	0.33349	0.89452	0.16873	1.627
Mof_P 	P 	0.99571	0.7695	0.08162	1.591
Mof_O 	O 	0.327	0.9261	0.2392	-1.775
Mof_O 	O 	0.2253	0.7555	0.3449	-1.813
Mof_O 	O 	0.0878	0.8898	0.0903	-1.839
Mof_O 	O 	0.3167	0.9712	0.1233	-1.697
Mof_O 	O 	0.4617	0.9083	0.345	-1.764
Mof_O 	O 	0.2405	0.1247	0.0986	-1.686
Mof_O 	O 	0.264	0.9963	0.9889	-1.745
Mof_O 	O 	0.3064	0.9865	0.3719	-1.69
Mof_Al	Al	0.56221	0.66854	0.32478	5.431
Mof_Al	Al	0.76888	0.7742	0.07371	5.46
Mof_P 	P 	0.56103	0.66651	0.16873	1.632
Mof_P 	P 	0.77379	0.00429	0.08162	1.593
Mof_O 	O 	0.5991	0.673	0.2392	-1.775
Mof_O 	O 	0.5302	0.7747	0.3449	-1.814
Mof_O 	O 	0.802	0.9122	0.0903	-1.854
Mof_O 	O 	0.6545	0.6833	0.1233	-1.714
Mof_O 	O 	0.4466	0.5383	0.345	-1.765
Mof_O 	O 	0.8842	0.7595	0.0986	-1.712
Mof_O 	O 	0.7323	0.736	0.9889	-1.779
Mof_O 	O 	0.6801	0.6936	0.3719	-1.688
Mof_Al	Al	0.10633	0.43779	0.32478	5.43
Mof_Al	Al	0.00532	0.23112	0.07371	5.402
Mof_P 	P 	0.10548	0.43897	0.16873	1.629
Mof_P 	P 	0.2305	0.22621	0.08162	1.573
Mof_O 	O 	0.0739	0.4009	0.2392	-1.775
Mof_O 	O 	0.2445	0.4698	0.3449	-1.814
Mof_O 	O 	0.1102	0.198	0.0903	-1.835
Mof_O 	O 	0.0288	0.3455	0.1233	-1.705
Mof_O 	O 	0.0917	0.5534	0.345	-1.765
Mof_O 	O 	0.8753	0.1158	0.0986	-1.69
Mof_O 	O 	0.0037	0.2677	0.9889	-1.763
Mof_O 	O 	0.0135	0.3199	0.3719	-1.691
_end
