data_functionalizedCrystal
_audit_creation_method	'EQeq! by Chris Wilmer'
_symmetry_space_group_name_H-M	'P1'
_symmetry_Int_Tables_number	1
_symmetry_cell_setting	triclinic
loop_
_symmetry_equiv_pos_as_xyz
  x,y,z
_cell_length_a	8.5247
_cell_length_b	10.2004
_cell_length_c	10.8898
_cell_angle_alpha	63.722
_cell_angle_beta	71.281
_cell_angle_gamma	81.148
loop_
_atom_site_label
_atom_site_type_symbol
_atom_site_fract_x
_atom_site_fract_y
_atom_site_fract_z
_atom_site_charge
Mof_Er	Er	0.13362	0.93626	0.66037	1.639
Mof_Er	Er	0.86638	0.06374	0.33963	1.639
Mof_H 	H 	0.721	0.114	0.984	0.053
Mof_H 	H 	0.538	0.842	0.899	0.059
Mof_H 	H 	0.213	0.545	0.09	0.054
Mof_H 	H 	0.626	0.63	0.761	0.046
Mof_H 	H 	0.985	0.5358	0.2693	0.045
Mof_H 	H 	0.949	0.2634	0.6964	0.035
Mof_H 	H 	0.279	0.886	0.016	0.054
Mof_H 	H 	0.462	0.158	0.101	0.06
Mof_H 	H 	0.787	0.455	0.91	0.054
Mof_H 	H 	0.374	0.37	0.239	0.046
Mof_H 	H 	0.015	0.4642	0.7307	0.045
Mof_H 	H 	0.051	0.7366	0.3036	0.035
Mof_C 	C 	0.82742	0.95146	0.84085	0.304
Mof_C 	C 	0.65771	0.97738	0.923	-0.057
Mof_C 	C 	0.6346	0.07196	0.98819	-0.024
Mof_C 	C 	0.52389	0.90663	0.93412	-0.053
Mof_C 	C 	0.32183	0.7298	0.82143	0.308
Mof_C 	C 	0.41483	0.60932	0.91195	-0.064
Mof_C 	C 	0.33444	0.52771	0.05568	-0.011
Mof_C 	C 	0.58053	0.58079	0.85681	-0.026
Mof_C 	C 	0.94274	0.25531	0.45515	0.405
Mof_C 	C 	0.97128	0.38154	0.47957	-0.116
Mof_C 	C 	0.99635	0.52018	0.36615	-0.006
Mof_C 	C 	0.97397	0.36176	0.61362	-0.015
Mof_C 	C 	0.17258	0.04854	0.15915	0.304
Mof_C 	C 	0.34229	0.02262	0.077	-0.057
Mof_C 	C 	0.3654	0.92804	0.01181	-0.024
Mof_C 	C 	0.47611	0.09337	0.06588	-0.053
Mof_C 	C 	0.67817	0.2702	0.17857	0.308
Mof_C 	C 	0.58517	0.39068	0.08805	-0.064
Mof_C 	C 	0.66556	0.47229	0.94432	-0.011
Mof_C 	C 	0.41947	0.41921	0.14319	-0.026
Mof_C 	C 	0.05726	0.74469	0.54485	0.405
Mof_C 	C 	0.02872	0.61846	0.52043	-0.116
Mof_C 	C 	0.00365	0.47982	0.63385	-0.006
Mof_C 	C 	0.02603	0.63824	0.38638	-0.015
Mof_O 	O 	0.94909	0.00936	0.83772	-0.396
Mof_O 	O 	0.84675	0.87268	0.77319	-0.388
Mof_O 	O 	0.17228	0.75392	0.87673	-0.397
Mof_O 	O 	0.39372	0.80688	0.69093	-0.426
Mof_O 	O 	0.98345	0.12716	0.52869	-0.533
Mof_O 	O 	0.87473	0.2818	0.35999	-0.437
Mof_O 	O 	0.05091	0.99064	0.16228	-0.396
Mof_O 	O 	0.15325	0.12732	0.22681	-0.388
Mof_O 	O 	0.82772	0.24608	0.12327	-0.397
Mof_O 	O 	0.60628	0.19312	0.30907	-0.426
Mof_O 	O 	0.01655	0.87284	0.47131	-0.533
Mof_O 	O 	0.12527	0.7182	0.64001	-0.437
_end
