data_functionalizedCrystal
_audit_creation_method	'EQeq! by Chris Wilmer'
_symmetry_space_group_name_H-M	'P1'
_symmetry_Int_Tables_number	1
_symmetry_cell_setting	triclinic
loop_
_symmetry_equiv_pos_as_xyz
  x,y,z
_cell_length_a	7.8849
_cell_length_b	36.8328
_cell_length_c	26.7656
_cell_angle_alpha	90
_cell_angle_beta	90
_cell_angle_gamma	90
loop_
_atom_site_label
_atom_site_type_symbol
_atom_site_fract_x
_atom_site_fract_y
_atom_site_fract_z
_atom_site_charge
Mof_Zn	Zn	0.86761	0.20475	0.13361	1.252
Mof_F 	F 	0.8657	0.12807	0.98747	-0.442
Mof_F 	F 	0.0691	0.1484	0.94362	-0.425
Mof_F 	F 	0.861	0.12251	0.90763	-0.392
Mof_F 	F 	0.3779	0.33225	0.76384	-0.411
Mof_F 	F 	0.5854	0.32216	0.7134	-0.434
Mof_F 	F 	0.6336	0.33457	0.7903	-0.4
Mof_F 	F 	0.8957	0.1219	0.24015	-0.418
Mof_F 	F 	0.1615	0.11809	0.2243	-0.385
Mof_F 	F 	0.035	0.07635	0.26734	-0.4
Mof_O 	O 	0.7899	0.21544	0.0664	-0.402
Mof_O 	O 	0.0094	0.18668	0.03393	-0.203
Mof_O 	O 	0.2952	0.28299	0.68615	-0.378
Mof_O 	O 	0.441	0.23839	0.65078	-0.426
Mof_O 	O 	0.9699	0.15683	0.14667	-0.332
Mof_O 	O 	0.7123	0.14195	0.12192	-0.206
Mof_C 	C 	0.8714	0.20118	0.03092	0.288
Mof_C 	C 	0.7891	0.20499	0.98005	0.078
Mof_C 	C 	0.8088	0.18073	0.94015	-0.142
Mof_C 	C 	0.7408	0.18875	0.89355	0.042
Mof_H 	H 	0.7554	0.172	0.8669	0.127
Mof_C 	C 	0.6514	0.22086	0.88506	0.011
Mof_C 	C 	0.6288	0.24442	0.9254	-0.013
Mof_H 	H 	0.5664	0.2662	0.9207	0.075
Mof_C 	C 	0.6947	0.23675	0.9718	-0.054
Mof_H 	H 	0.6762	0.2532	0.9986	0.106
Mof_C 	C 	0.9011	0.1454	0.9454	0.883
Mof_C 	C 	0.5877	0.23012	0.83463	0.037
Mof_C 	C 	0.5826	0.26609	0.81932	0.004
Mof_H 	H 	0.6197	0.2845	0.8417	0.098
Mof_C 	C 	0.5249	0.27601	0.77221	-0.112
Mof_C 	C 	0.4726	0.24934	0.73891	-0.017
Mof_C 	C 	0.4808	0.21355	0.7535	0.004
Mof_H 	H 	0.4497	0.1951	0.7304	0.112
Mof_C 	C 	0.533	0.20369	0.80085	-0.03
Mof_H 	H 	0.5317	0.1789	0.8105	0.156
Mof_C 	C 	0.5291	0.31584	0.75958	0.844
Mof_C 	C 	0.4009	0.25726	0.68783	0.392
Mof_C 	C 	0.8589	0.1342	0.1362	0.308
Mof_C 	C 	0.9059	0.09406	0.1391	0.095
Mof_C 	C 	0.9815	0.07772	0.1813	-0.129
Mof_C 	C 	0.0181	0.04087	0.1801	0.059
Mof_H 	H 	0.0693	0.0296	0.2082	0.109
Mof_C 	C 	0.98	0.02014	0.1374	0.022
Mof_C 	C 	0.9185	0.03734	0.0965	0.005
Mof_H 	H 	0.9021	0.024	0.0665	0.089
Mof_C 	C 	0.8796	0.07362	0.0976	-0.056
Mof_H 	H 	0.8331	0.0847	0.0686	0.14
Mof_C 	C 	0.016	0.09835	0.228	0.869
Mof_Zn	Zn	0.86761	0.70475	0.63361	1.252
Mof_F 	F 	0.8657	0.62807	0.48747	-0.452
Mof_F 	F 	0.0691	0.6484	0.44362	-0.429
Mof_F 	F 	0.861	0.62251	0.40763	-0.394
Mof_F 	F 	0.3779	0.83225	0.26384	-0.411
Mof_F 	F 	0.5854	0.82216	0.2134	-0.435
Mof_F 	F 	0.6336	0.83457	0.2903	-0.401
Mof_F 	F 	0.8957	0.6219	0.74015	-0.418
Mof_F 	F 	0.1615	0.61809	0.7243	-0.384
Mof_F 	F 	0.035	0.57635	0.76734	-0.398
Mof_O 	O 	0.7899	0.71544	0.5664	-0.401
Mof_O 	O 	0.0094	0.68668	0.53393	-0.198
Mof_O 	O 	0.2952	0.78299	0.18615	-0.378
Mof_O 	O 	0.441	0.73839	0.15078	-0.428
Mof_O 	O 	0.9699	0.65683	0.64667	-0.331
Mof_O 	O 	0.7123	0.64195	0.62192	-0.203
Mof_C 	C 	0.8714	0.70118	0.53092	0.314
Mof_C 	C 	0.7891	0.70499	0.48005	0.049
Mof_C 	C 	0.8088	0.68073	0.44015	-0.134
Mof_C 	C 	0.7408	0.68875	0.39355	0.034
Mof_H 	H 	0.7554	0.672	0.3669	0.129
Mof_C 	C 	0.6514	0.72086	0.38506	0.018
Mof_C 	C 	0.6288	0.74442	0.4254	-0.025
Mof_H 	H 	0.5664	0.7662	0.4207	0.078
Mof_C 	C 	0.6947	0.73675	0.4718	-0.039
Mof_H 	H 	0.6762	0.7532	0.4986	0.093
Mof_C 	C 	0.9011	0.6454	0.4454	0.879
Mof_C 	C 	0.5877	0.73012	0.33463	0.033
Mof_C 	C 	0.5826	0.76609	0.31932	0.007
Mof_H 	H 	0.6197	0.7845	0.3417	0.096
Mof_C 	C 	0.5249	0.77601	0.27221	-0.113
Mof_C 	C 	0.4726	0.74934	0.23891	-0.016
Mof_C 	C 	0.4808	0.71355	0.2535	0.002
Mof_H 	H 	0.4497	0.6951	0.2304	0.112
Mof_C 	C 	0.533	0.70369	0.30085	-0.027
Mof_H 	H 	0.5317	0.6789	0.3105	0.155
Mof_C 	C 	0.5291	0.81584	0.25958	0.845
Mof_C 	C 	0.4009	0.75726	0.18783	0.392
Mof_C 	C 	0.8589	0.6342	0.6362	0.308
Mof_C 	C 	0.9059	0.59406	0.6391	0.097
Mof_C 	C 	0.9815	0.57772	0.6813	-0.129
Mof_C 	C 	0.0181	0.54087	0.6801	0.06
Mof_H 	H 	0.0693	0.5296	0.7082	0.109
Mof_C 	C 	0.98	0.52014	0.6374	0.022
Mof_C 	C 	0.9185	0.53734	0.5965	0.007
Mof_H 	H 	0.9021	0.524	0.5665	0.093
Mof_C 	C 	0.8796	0.57362	0.5976	-0.056
Mof_H 	H 	0.8331	0.5847	0.5686	0.145
Mof_C 	C 	0.016	0.59835	0.728	0.869
Mof_Zn	Zn	0.13239	0.79525	0.13361	1.251
Mof_F 	F 	0.1343	0.87193	0.98747	-0.443
Mof_F 	F 	0.9309	0.8516	0.94362	-0.425
Mof_F 	F 	0.139	0.87749	0.90763	-0.392
Mof_F 	F 	0.6221	0.66775	0.76384	-0.411
Mof_F 	F 	0.4146	0.67784	0.7134	-0.434
Mof_F 	F 	0.3664	0.66543	0.7903	-0.4
Mof_F 	F 	0.1043	0.8781	0.24015	-0.418
Mof_F 	F 	0.8385	0.88191	0.2243	-0.385
Mof_F 	F 	0.965	0.92365	0.26734	-0.4
Mof_O 	O 	0.2101	0.78456	0.0664	-0.402
Mof_O 	O 	0.9906	0.81332	0.03393	-0.203
Mof_O 	O 	0.7048	0.71701	0.68615	-0.378
Mof_O 	O 	0.559	0.76161	0.65078	-0.426
Mof_O 	O 	0.0301	0.84317	0.14667	-0.332
Mof_O 	O 	0.2877	0.85805	0.12192	-0.206
Mof_C 	C 	0.1286	0.79882	0.03092	0.288
Mof_C 	C 	0.2109	0.79501	0.98005	0.078
Mof_C 	C 	0.1912	0.81927	0.94015	-0.142
Mof_C 	C 	0.2592	0.81125	0.89355	0.042
Mof_H 	H 	0.2446	0.828	0.8669	0.127
Mof_C 	C 	0.3486	0.77914	0.88506	0.011
Mof_C 	C 	0.3712	0.75558	0.9254	-0.013
Mof_H 	H 	0.4336	0.7338	0.9207	0.075
Mof_C 	C 	0.3053	0.76325	0.9718	-0.054
Mof_H 	H 	0.3238	0.7468	0.9986	0.106
Mof_C 	C 	0.0989	0.8546	0.9454	0.883
Mof_C 	C 	0.4123	0.76988	0.83463	0.037
Mof_C 	C 	0.4174	0.73391	0.81932	0.004
Mof_H 	H 	0.3803	0.7155	0.8417	0.098
Mof_C 	C 	0.4751	0.72399	0.77221	-0.112
Mof_C 	C 	0.5274	0.75066	0.73891	-0.017
Mof_C 	C 	0.5192	0.78645	0.7535	0.004
Mof_H 	H 	0.5503	0.8049	0.7304	0.112
Mof_C 	C 	0.467	0.79631	0.80085	-0.03
Mof_H 	H 	0.4683	0.8211	0.8105	0.156
Mof_C 	C 	0.4709	0.68416	0.75958	0.844
Mof_C 	C 	0.5991	0.74274	0.68783	0.392
Mof_C 	C 	0.1411	0.8658	0.1362	0.308
Mof_C 	C 	0.0941	0.90594	0.1391	0.095
Mof_C 	C 	0.0185	0.92228	0.1813	-0.129
Mof_C 	C 	0.9819	0.95913	0.1801	0.059
Mof_H 	H 	0.9307	0.9704	0.2082	0.109
Mof_C 	C 	0.02	0.97986	0.1374	0.022
Mof_C 	C 	0.0815	0.96266	0.0965	0.005
Mof_H 	H 	0.0979	0.976	0.0665	0.089
Mof_C 	C 	0.1204	0.92638	0.0976	-0.056
Mof_H 	H 	0.1669	0.9153	0.0686	0.14
Mof_C 	C 	0.984	0.90165	0.228	0.869
Mof_Zn	Zn	0.13239	0.29525	0.63361	1.252
Mof_F 	F 	0.1343	0.37193	0.48747	-0.452
Mof_F 	F 	0.9309	0.3516	0.44362	-0.429
Mof_F 	F 	0.139	0.37749	0.40763	-0.394
Mof_F 	F 	0.6221	0.16775	0.26384	-0.411
Mof_F 	F 	0.4146	0.17784	0.2134	-0.435
Mof_F 	F 	0.3664	0.16543	0.2903	-0.401
Mof_F 	F 	0.1043	0.3781	0.74015	-0.418
Mof_F 	F 	0.8385	0.38191	0.7243	-0.384
Mof_F 	F 	0.965	0.42365	0.76734	-0.398
Mof_O 	O 	0.2101	0.28456	0.5664	-0.401
Mof_O 	O 	0.9906	0.31332	0.53393	-0.198
Mof_O 	O 	0.7048	0.21701	0.18615	-0.378
Mof_O 	O 	0.559	0.26161	0.15078	-0.428
Mof_O 	O 	0.0301	0.34317	0.64667	-0.331
Mof_O 	O 	0.2877	0.35805	0.62192	-0.203
Mof_C 	C 	0.1286	0.29882	0.53092	0.314
Mof_C 	C 	0.2109	0.29501	0.48005	0.049
Mof_C 	C 	0.1912	0.31927	0.44015	-0.134
Mof_C 	C 	0.2592	0.31125	0.39355	0.034
Mof_H 	H 	0.2446	0.328	0.3669	0.129
Mof_C 	C 	0.3486	0.27914	0.38506	0.018
Mof_C 	C 	0.3712	0.25558	0.4254	-0.025
Mof_H 	H 	0.4336	0.2338	0.4207	0.078
Mof_C 	C 	0.3053	0.26325	0.4718	-0.039
Mof_H 	H 	0.3238	0.2468	0.4986	0.093
Mof_C 	C 	0.0989	0.3546	0.4454	0.879
Mof_C 	C 	0.4123	0.26988	0.33463	0.033
Mof_C 	C 	0.4174	0.23391	0.31932	0.007
Mof_H 	H 	0.3803	0.2155	0.3417	0.096
Mof_C 	C 	0.4751	0.22399	0.27221	-0.113
Mof_C 	C 	0.5274	0.25066	0.23891	-0.016
Mof_C 	C 	0.5192	0.28645	0.2535	0.002
Mof_H 	H 	0.5503	0.3049	0.2304	0.112
Mof_C 	C 	0.467	0.29631	0.30085	-0.027
Mof_H 	H 	0.4683	0.3211	0.3105	0.155
Mof_C 	C 	0.4709	0.18416	0.25958	0.845
Mof_C 	C 	0.5991	0.24274	0.18783	0.392
Mof_C 	C 	0.1411	0.3658	0.6362	0.308
Mof_C 	C 	0.0941	0.40594	0.6391	0.097
Mof_C 	C 	0.0185	0.42228	0.6813	-0.129
Mof_C 	C 	0.9819	0.45913	0.6801	0.06
Mof_H 	H 	0.9307	0.4704	0.7082	0.109
Mof_C 	C 	0.02	0.47986	0.6374	0.022
Mof_C 	C 	0.0815	0.46266	0.5965	0.007
Mof_H 	H 	0.0979	0.476	0.5665	0.093
Mof_C 	C 	0.1204	0.42638	0.5976	-0.056
Mof_H 	H 	0.1669	0.4153	0.5686	0.145
Mof_C 	C 	0.984	0.40165	0.728	0.869
Mof_Zn	Zn	0.36761	0.29525	0.13361	1.251
Mof_F 	F 	0.3657	0.37193	0.98747	-0.443
Mof_F 	F 	0.5691	0.3516	0.94362	-0.425
Mof_F 	F 	0.361	0.37749	0.90763	-0.392
Mof_F 	F 	0.8779	0.16775	0.76384	-0.411
Mof_F 	F 	0.0854	0.17784	0.7134	-0.434
Mof_F 	F 	0.1336	0.16543	0.7903	-0.4
Mof_F 	F 	0.3957	0.3781	0.24015	-0.418
Mof_F 	F 	0.6615	0.38191	0.2243	-0.385
Mof_F 	F 	0.535	0.42365	0.26734	-0.4
Mof_O 	O 	0.2899	0.28456	0.0664	-0.402
Mof_O 	O 	0.5094	0.31332	0.03393	-0.205
Mof_O 	O 	0.7952	0.21701	0.68615	-0.377
Mof_O 	O 	0.941	0.26161	0.65078	-0.425
Mof_O 	O 	0.4699	0.34317	0.14667	-0.331
Mof_O 	O 	0.2123	0.35805	0.12192	-0.206
Mof_C 	C 	0.3714	0.29882	0.03092	0.29
Mof_C 	C 	0.2891	0.29501	0.98005	0.077
Mof_C 	C 	0.3088	0.31927	0.94015	-0.142
Mof_C 	C 	0.2408	0.31125	0.89355	0.042
Mof_H 	H 	0.2554	0.328	0.8669	0.127
Mof_C 	C 	0.1514	0.27914	0.88506	0.011
Mof_C 	C 	0.1288	0.25558	0.9254	-0.013
Mof_H 	H 	0.0664	0.2338	0.9207	0.076
Mof_C 	C 	0.1947	0.26325	0.9718	-0.053
Mof_H 	H 	0.1762	0.2468	0.9986	0.106
Mof_C 	C 	0.4011	0.3546	0.9454	0.884
Mof_C 	C 	0.0877	0.26988	0.83463	0.037
Mof_C 	C 	0.0826	0.23391	0.81932	0.005
Mof_H 	H 	0.1197	0.2155	0.8417	0.098
Mof_C 	C 	0.0249	0.22399	0.77221	-0.113
Mof_C 	C 	0.9726	0.25066	0.73891	-0.016
Mof_C 	C 	0.9808	0.28645	0.7535	0.004
Mof_H 	H 	0.9497	0.3049	0.7304	0.112
Mof_C 	C 	0.033	0.29631	0.80085	-0.03
Mof_H 	H 	0.0317	0.3211	0.8105	0.157
Mof_C 	C 	0.0291	0.18416	0.75958	0.844
Mof_C 	C 	0.9009	0.24274	0.68783	0.392
Mof_C 	C 	0.3589	0.3658	0.1362	0.308
Mof_C 	C 	0.4059	0.40594	0.1391	0.095
Mof_C 	C 	0.4815	0.42228	0.1813	-0.127
Mof_C 	C 	0.5181	0.45913	0.1801	0.057
Mof_H 	H 	0.5693	0.4704	0.2082	0.109
Mof_C 	C 	0.48	0.47986	0.1374	0.022
Mof_C 	C 	0.4185	0.46266	0.0965	0.005
Mof_H 	H 	0.4021	0.476	0.0665	0.089
Mof_C 	C 	0.3796	0.42638	0.0976	-0.055
Mof_H 	H 	0.3331	0.4153	0.0686	0.14
Mof_C 	C 	0.516	0.40165	0.228	0.867
Mof_Zn	Zn	0.36761	0.79525	0.63361	1.252
Mof_F 	F 	0.3657	0.87193	0.48747	-0.452
Mof_F 	F 	0.5691	0.8516	0.44362	-0.429
Mof_F 	F 	0.361	0.87749	0.40763	-0.394
Mof_F 	F 	0.8779	0.66775	0.26384	-0.411
Mof_F 	F 	0.0854	0.67784	0.2134	-0.435
Mof_F 	F 	0.1336	0.66543	0.2903	-0.401
Mof_F 	F 	0.3957	0.8781	0.74015	-0.417
Mof_F 	F 	0.6615	0.88191	0.7243	-0.384
Mof_F 	F 	0.535	0.92365	0.76734	-0.398
Mof_O 	O 	0.2899	0.78456	0.5664	-0.401
Mof_O 	O 	0.5094	0.81332	0.53393	-0.201
Mof_O 	O 	0.7952	0.71701	0.18615	-0.378
Mof_O 	O 	0.941	0.76161	0.15078	-0.427
Mof_O 	O 	0.4699	0.84317	0.64667	-0.33
Mof_O 	O 	0.2123	0.85805	0.62192	-0.203
Mof_C 	C 	0.3714	0.79882	0.53092	0.317
Mof_C 	C 	0.2891	0.79501	0.48005	0.048
Mof_C 	C 	0.3088	0.81927	0.44015	-0.133
Mof_C 	C 	0.2408	0.81125	0.39355	0.034
Mof_H 	H 	0.2554	0.828	0.3669	0.13
Mof_C 	C 	0.1514	0.77914	0.38506	0.018
Mof_C 	C 	0.1288	0.75558	0.4254	-0.025
Mof_H 	H 	0.0664	0.7338	0.4207	0.079
Mof_C 	C 	0.1947	0.76325	0.4718	-0.038
Mof_H 	H 	0.1762	0.7468	0.4986	0.093
Mof_C 	C 	0.4011	0.8546	0.4454	0.88
Mof_C 	C 	0.0877	0.76988	0.33463	0.033
Mof_C 	C 	0.0826	0.73391	0.31932	0.007
Mof_H 	H 	0.1197	0.7155	0.3417	0.096
Mof_C 	C 	0.0249	0.72399	0.27221	-0.114
Mof_C 	C 	0.9726	0.75066	0.23891	-0.015
Mof_C 	C 	0.9808	0.78645	0.2535	0.003
Mof_H 	H 	0.9497	0.8049	0.2304	0.112
Mof_C 	C 	0.033	0.79631	0.30085	-0.028
Mof_H 	H 	0.0317	0.8211	0.3105	0.155
Mof_C 	C 	0.0291	0.68416	0.25958	0.844
Mof_C 	C 	0.9009	0.74274	0.18783	0.392
Mof_C 	C 	0.3589	0.8658	0.6362	0.308
Mof_C 	C 	0.4059	0.90594	0.6391	0.097
Mof_C 	C 	0.4815	0.92228	0.6813	-0.127
Mof_C 	C 	0.5181	0.95913	0.6801	0.057
Mof_H 	H 	0.5693	0.9704	0.7082	0.11
Mof_C 	C 	0.48	0.97986	0.6374	0.023
Mof_C 	C 	0.4185	0.96266	0.5965	0.006
Mof_H 	H 	0.4021	0.976	0.5665	0.093
Mof_C 	C 	0.3796	0.92638	0.5976	-0.055
Mof_H 	H 	0.3331	0.9153	0.5686	0.145
Mof_C 	C 	0.516	0.90165	0.728	0.867
Mof_Zn	Zn	0.63239	0.70475	0.13361	1.251
Mof_F 	F 	0.6343	0.62807	0.98747	-0.443
Mof_F 	F 	0.4309	0.6484	0.94362	-0.425
Mof_F 	F 	0.639	0.62251	0.90763	-0.392
Mof_F 	F 	0.1221	0.83225	0.76384	-0.411
Mof_F 	F 	0.9146	0.82216	0.7134	-0.434
Mof_F 	F 	0.8664	0.83457	0.7903	-0.4
Mof_F 	F 	0.6043	0.6219	0.24015	-0.418
Mof_F 	F 	0.3385	0.61809	0.2243	-0.385
Mof_F 	F 	0.465	0.57635	0.26734	-0.4
Mof_O 	O 	0.7101	0.71544	0.0664	-0.402
Mof_O 	O 	0.4906	0.68668	0.03393	-0.205
Mof_O 	O 	0.2048	0.78299	0.68615	-0.377
Mof_O 	O 	0.059	0.73839	0.65078	-0.425
Mof_O 	O 	0.5301	0.65683	0.14667	-0.331
Mof_O 	O 	0.7877	0.64195	0.12192	-0.206
Mof_C 	C 	0.6286	0.70118	0.03092	0.29
Mof_C 	C 	0.7109	0.70499	0.98005	0.077
Mof_C 	C 	0.6912	0.68073	0.94015	-0.142
Mof_C 	C 	0.7592	0.68875	0.89355	0.042
Mof_H 	H 	0.7446	0.672	0.8669	0.127
Mof_C 	C 	0.8486	0.72086	0.88506	0.011
Mof_C 	C 	0.8712	0.74442	0.9254	-0.013
Mof_H 	H 	0.9336	0.7662	0.9207	0.076
Mof_C 	C 	0.8053	0.73675	0.9718	-0.053
Mof_H 	H 	0.8238	0.7532	0.9986	0.106
Mof_C 	C 	0.5989	0.6454	0.9454	0.884
Mof_C 	C 	0.9123	0.73012	0.83463	0.037
Mof_C 	C 	0.9174	0.76609	0.81932	0.005
Mof_H 	H 	0.8803	0.7845	0.8417	0.098
Mof_C 	C 	0.9751	0.77601	0.77221	-0.113
Mof_C 	C 	0.0274	0.74934	0.73891	-0.016
Mof_C 	C 	0.0192	0.71355	0.7535	0.004
Mof_H 	H 	0.0503	0.6951	0.7304	0.112
Mof_C 	C 	0.967	0.70369	0.80085	-0.03
Mof_H 	H 	0.9683	0.6789	0.8105	0.157
Mof_C 	C 	0.9709	0.81584	0.75958	0.844
Mof_C 	C 	0.0991	0.75726	0.68783	0.392
Mof_C 	C 	0.6411	0.6342	0.1362	0.308
Mof_C 	C 	0.5941	0.59406	0.1391	0.095
Mof_C 	C 	0.5185	0.57772	0.1813	-0.127
Mof_C 	C 	0.4819	0.54087	0.1801	0.057
Mof_H 	H 	0.4307	0.5296	0.2082	0.109
Mof_C 	C 	0.52	0.52014	0.1374	0.022
Mof_C 	C 	0.5815	0.53734	0.0965	0.005
Mof_H 	H 	0.5979	0.524	0.0665	0.089
Mof_C 	C 	0.6204	0.57362	0.0976	-0.055
Mof_H 	H 	0.6669	0.5847	0.0686	0.14
Mof_C 	C 	0.484	0.59835	0.228	0.867
Mof_Zn	Zn	0.63239	0.20475	0.63361	1.252
Mof_F 	F 	0.6343	0.12807	0.48747	-0.452
Mof_F 	F 	0.4309	0.1484	0.44362	-0.429
Mof_F 	F 	0.639	0.12251	0.40763	-0.394
Mof_F 	F 	0.1221	0.33225	0.26384	-0.411
Mof_F 	F 	0.9146	0.32216	0.2134	-0.435
Mof_F 	F 	0.8664	0.33457	0.2903	-0.401
Mof_F 	F 	0.6043	0.1219	0.74015	-0.417
Mof_F 	F 	0.3385	0.11809	0.7243	-0.384
Mof_F 	F 	0.465	0.07635	0.76734	-0.398
Mof_O 	O 	0.7101	0.21544	0.5664	-0.401
Mof_O 	O 	0.4906	0.18668	0.53393	-0.201
Mof_O 	O 	0.2048	0.28299	0.18615	-0.378
Mof_O 	O 	0.059	0.23839	0.15078	-0.427
Mof_O 	O 	0.5301	0.15683	0.64667	-0.33
Mof_O 	O 	0.7877	0.14195	0.62192	-0.203
Mof_C 	C 	0.6286	0.20118	0.53092	0.317
Mof_C 	C 	0.7109	0.20499	0.48005	0.048
Mof_C 	C 	0.6912	0.18073	0.44015	-0.133
Mof_C 	C 	0.7592	0.18875	0.39355	0.034
Mof_H 	H 	0.7446	0.172	0.3669	0.13
Mof_C 	C 	0.8486	0.22086	0.38506	0.018
Mof_C 	C 	0.8712	0.24442	0.4254	-0.025
Mof_H 	H 	0.9336	0.2662	0.4207	0.079
Mof_C 	C 	0.8053	0.23675	0.4718	-0.038
Mof_H 	H 	0.8238	0.2532	0.4986	0.093
Mof_C 	C 	0.5989	0.1454	0.4454	0.88
Mof_C 	C 	0.9123	0.23012	0.33463	0.033
Mof_C 	C 	0.9174	0.26609	0.31932	0.007
Mof_H 	H 	0.8803	0.2845	0.3417	0.096
Mof_C 	C 	0.9751	0.27601	0.27221	-0.114
Mof_C 	C 	0.0274	0.24934	0.23891	-0.015
Mof_C 	C 	0.0192	0.21355	0.2535	0.003
Mof_H 	H 	0.0503	0.1951	0.2304	0.112
Mof_C 	C 	0.967	0.20369	0.30085	-0.028
Mof_H 	H 	0.9683	0.1789	0.3105	0.155
Mof_C 	C 	0.9709	0.31584	0.25958	0.844
Mof_C 	C 	0.0991	0.25726	0.18783	0.392
Mof_C 	C 	0.6411	0.1342	0.6362	0.308
Mof_C 	C 	0.5941	0.09406	0.6391	0.097
Mof_C 	C 	0.5185	0.07772	0.6813	-0.127
Mof_C 	C 	0.4819	0.04087	0.6801	0.057
Mof_H 	H 	0.4307	0.0296	0.7082	0.11
Mof_C 	C 	0.52	0.02014	0.6374	0.023
Mof_C 	C 	0.5815	0.03734	0.5965	0.006
Mof_H 	H 	0.5979	0.024	0.5665	0.093
Mof_C 	C 	0.6204	0.07362	0.5976	-0.055
Mof_H 	H 	0.6669	0.0847	0.5686	0.145
Mof_C 	C 	0.484	0.09835	0.728	0.867
_end
