data_functionalizedCrystal
_audit_creation_method	'EQeq! by Chris Wilmer'
_symmetry_space_group_name_H-M	'P1'
_symmetry_Int_Tables_number	1
_symmetry_cell_setting	triclinic
loop_
_symmetry_equiv_pos_as_xyz
  x,y,z
_cell_length_a	10.534
_cell_length_b	13.2664
_cell_length_c	13.2664
_cell_angle_alpha	92.3547
_cell_angle_beta	113
_cell_angle_gamma	113
loop_
_atom_site_label
_atom_site_type_symbol
_atom_site_fract_x
_atom_site_fract_y
_atom_site_fract_z
_atom_site_charge
Mof_Zn	Zn	0.99305	0.15854	0.05608	1.235
Mof_Zn	Zn	0.50695	0.94392	0.84146	1.24
Mof_Zn	Zn	0.00695	0.84146	0.94392	1.235
Mof_Zn	Zn	0.49305	0.05608	0.15854	1.24
Mof_P 	P 	0.80395	0.95657	0.82991	0.47
Mof_P 	P 	0.69605	0.17009	0.04343	0.473
Mof_P 	P 	0.19605	0.04343	0.17009	0.47
Mof_P 	P 	0.30395	0.82991	0.95657	0.473
Mof_H 	H 	0.8343	0.1618	0.7646	0.039
Mof_H 	H 	0.7738	0.2171	0.5985	0.041
Mof_H 	H 	0.6043	0.9041	0.4323	0.046
Mof_H 	H 	0.6629	0.8476	0.5982	0.042
Mof_H 	H 	0.6657	0.2354	0.8382	0.026
Mof_H 	H 	0.7262	0.4015	0.7829	0.053
Mof_H 	H 	0.8957	0.5677	0.0959	0.057
Mof_H 	H 	0.8371	0.4018	0.1524	0.029
Mof_H 	H 	0.1657	0.8382	0.2354	0.039
Mof_H 	H 	0.2262	0.7829	0.4015	0.041
Mof_H 	H 	0.3957	0.0959	0.5677	0.046
Mof_H 	H 	0.3371	0.1524	0.4018	0.042
Mof_H 	H 	0.3343	0.7646	0.1618	0.026
Mof_H 	H 	0.2738	0.5985	0.2171	0.053
Mof_H 	H 	0.1043	0.4323	0.9041	0.057
Mof_H 	H 	0.1629	0.5982	0.8476	0.029
Mof_C 	C 	0.7559	0.99842	0.69878	-0.078
Mof_C 	C 	0.7879	0.1092	0.6974	-0.028
Mof_C 	C 	0.7523	0.1421	0.5983	-0.014
Mof_C 	C 	0.6852	0.06623	0.49857	-0.088
Mof_C 	C 	0.6517	0.9568	0.4998	-0.014
Mof_C 	C 	0.6867	0.9229	0.5989	-0.027
Mof_C 	C 	0.6443	0.1026	0.3906	0.355
Mof_C 	C 	0.7441	0.30122	0.00158	-0.108
Mof_C 	C 	0.7121	0.3026	0.8908	0.011
Mof_C 	C 	0.7477	0.4017	0.8579	-0.048
Mof_C 	C 	0.8148	0.50143	0.93377	-0.05
Mof_C 	C 	0.8483	0.5002	0.0432	-0.057
Mof_C 	C 	0.8133	0.4011	0.0771	0.006
Mof_C 	C 	0.8557	0.6094	0.8974	0.342
Mof_C 	C 	0.2441	0.00158	0.30122	-0.078
Mof_C 	C 	0.2121	0.8908	0.3026	-0.028
Mof_C 	C 	0.2477	0.8579	0.4017	-0.014
Mof_C 	C 	0.3148	0.93377	0.50143	-0.088
Mof_C 	C 	0.3483	0.0432	0.5002	-0.014
Mof_C 	C 	0.3133	0.0771	0.4011	-0.027
Mof_C 	C 	0.3557	0.8974	0.6094	0.355
Mof_C 	C 	0.2559	0.69878	0.99842	-0.108
Mof_C 	C 	0.2879	0.6974	0.1092	0.011
Mof_C 	C 	0.2523	0.5983	0.1421	-0.048
Mof_C 	C 	0.1852	0.49857	0.06623	-0.05
Mof_C 	C 	0.1517	0.4998	0.9568	-0.057
Mof_C 	C 	0.1867	0.5989	0.9229	0.006
Mof_C 	C 	0.1443	0.3906	0.1026	0.342
Mof_O 	O 	0.9161	0.06227	0.91701	-0.487
Mof_O 	O 	0.6583	0.89645	0.84285	-0.468
Mof_O 	O 	0.8706	0.87661	0.82219	-0.45
Mof_O 	O 	0.6631	0.19956	0.38872	-0.324
Mof_O 	O 	0.5905	0.02821	0.30463	-0.47
Mof_O 	O 	0.5839	0.08299	0.93773	-0.487
Mof_O 	O 	0.8417	0.15715	0.10355	-0.473
Mof_O 	O 	0.6294	0.17781	0.12339	-0.455
Mof_O 	O 	0.8369	0.61128	0.80044	-0.317
Mof_O 	O 	0.9095	0.69537	0.97179	-0.459
Mof_O 	O 	0.0839	0.93773	0.08299	-0.487
Mof_O 	O 	0.3417	0.10355	0.15715	-0.468
Mof_O 	O 	0.1294	0.12339	0.17781	-0.45
Mof_O 	O 	0.3369	0.80044	0.61128	-0.324
Mof_O 	O 	0.4095	0.97179	0.69537	-0.47
Mof_O 	O 	0.4161	0.91701	0.06227	-0.487
Mof_O 	O 	0.1583	0.84285	0.89645	-0.473
Mof_O 	O 	0.3706	0.82219	0.87661	-0.455
Mof_O 	O 	0.1631	0.38872	0.19956	-0.317
Mof_O 	O 	0.0905	0.30463	0.02821	-0.459
Mof_H 	H 	0.9998	0.2141	0.2597	0.094
Mof_H 	H 	0.1418	0.2641	0.3633	0.091
Mof_H 	H 	0.0275	0.3754	0.3376	0.168
Mof_H 	H 	0.8826	0.2765	0.3359	0.173
Mof_H 	H 	0.0369	0.3315	0.4469	0.157
Mof_H 	H 	0.0253	0.08	0.3488	0.16
Mof_H 	H 	0.0336	0.1461	0.4537	0.155
Mof_H 	H 	0.8803	0.0924	0.342	0.16
Mof_C 	C 	0.9927	0.31	0.3664	-0.421
Mof_C 	C 	0.9904	0.1289	0.3731	-0.418
Mof_N 	N 	0.0386	0.2314	0.3352	-0.097
Mof_H 	H 	0.5002	0.7403	0.7859	0.105
Mof_H 	H 	0.3582	0.6367	0.7359	0.095
Mof_H 	H 	0.4725	0.6624	0.6246	0.147
Mof_H 	H 	0.6174	0.6641	0.7235	0.157
Mof_H 	H 	0.4631	0.5531	0.6685	0.138
Mof_H 	H 	0.4747	0.6512	0.92	0.141
Mof_H 	H 	0.4664	0.5463	0.8539	0.137
Mof_H 	H 	0.6197	0.658	0.9076	0.145
Mof_C 	C 	0.5073	0.6336	0.69	-0.365
Mof_C 	C 	0.5096	0.6269	0.8711	-0.362
Mof_N 	N 	0.4614	0.6648	0.7686	-0.123
Mof_H 	H 	0.0002	0.7859	0.7403	0.094
Mof_H 	H 	0.8582	0.7359	0.6367	0.091
Mof_H 	H 	0.9725	0.6246	0.6624	0.168
Mof_H 	H 	0.1174	0.7235	0.6641	0.173
Mof_H 	H 	0.9631	0.6685	0.5531	0.157
Mof_H 	H 	0.9747	0.92	0.6512	0.16
Mof_H 	H 	0.9664	0.8539	0.5463	0.155
Mof_H 	H 	0.1197	0.9076	0.658	0.16
Mof_C 	C 	0.0073	0.69	0.6336	-0.421
Mof_C 	C 	0.0096	0.8711	0.6269	-0.418
Mof_N 	N 	0.9614	0.7686	0.6648	-0.097
Mof_H 	H 	0.4998	0.2597	0.2141	0.105
Mof_H 	H 	0.6418	0.3633	0.2641	0.095
Mof_H 	H 	0.5275	0.3376	0.3754	0.147
Mof_H 	H 	0.3826	0.3359	0.2765	0.157
Mof_H 	H 	0.5369	0.4469	0.3315	0.138
Mof_H 	H 	0.5253	0.3488	0.08	0.141
Mof_H 	H 	0.5336	0.4537	0.1461	0.137
Mof_H 	H 	0.3803	0.342	0.0924	0.145
Mof_C 	C 	0.4927	0.3664	0.31	-0.365
Mof_C 	C 	0.4904	0.3731	0.1289	-0.362
Mof_N 	N 	0.5386	0.3352	0.2314	-0.123
_end
