data_functionalizedCrystal
_audit_creation_method	'EQeq! by Chris Wilmer'
_symmetry_space_group_name_H-M	'P1'
_symmetry_Int_Tables_number	1
_symmetry_cell_setting	triclinic
loop_
_symmetry_equiv_pos_as_xyz
  x,y,z
_cell_length_a	10.3612
_cell_length_b	10.5686
_cell_length_c	6.2669
_cell_angle_alpha	90
_cell_angle_beta	114.907
_cell_angle_gamma	90
loop_
_atom_site_label
_atom_site_type_symbol
_atom_site_fract_x
_atom_site_fract_y
_atom_site_fract_z
_atom_site_charge
Mof_C 	C 	0.3167	0.2106	0.5452	-0.063
Mof_H 	H 	0.3985	0.2656	0.5732	0.014
Mof_H 	H 	0.3305	0.1726	0.6959	-0.003
Mof_N 	N 	0.3119	0.1099	0.3808	-0.266
Mof_H 	H 	0.2968	0.1453	0.2399	0.057
Mof_H 	H 	0.2369	0.0581	0.3573	0.05
Mof_C 	C 	0.8167	0.7106	0.5452	-0.064
Mof_H 	H 	0.8985	0.7656	0.5732	0.042
Mof_H 	H 	0.8305	0.6726	0.6959	0.022
Mof_N 	N 	0.8119	0.6099	0.3808	-0.259
Mof_H 	H 	0.7968	0.6453	0.2399	0.081
Mof_H 	H 	0.7369	0.5581	0.3573	0.079
Mof_C 	C 	0.6833	0.2106	0.9548	0.028
Mof_H 	H 	0.6015	0.2656	0.9268	-0.006
Mof_H 	H 	0.6695	0.1726	0.8041	-0.026
Mof_N 	N 	0.6881	0.1099	0.1192	-0.289
Mof_H 	H 	0.7032	0.1453	0.2601	0.073
Mof_H 	H 	0.7631	0.0581	0.1427	0.068
Mof_C 	C 	0.1833	0.7106	0.9548	0.032
Mof_H 	H 	0.1015	0.7656	0.9268	-0.018
Mof_H 	H 	0.1695	0.6726	0.8041	-0.029
Mof_N 	N 	0.1881	0.6099	0.1192	-0.291
Mof_H 	H 	0.2032	0.6453	0.2601	0.074
Mof_H 	H 	0.2631	0.5581	0.1427	0.078
Mof_C 	C 	0.6833	0.7894	0.4548	-0.025
Mof_H 	H 	0.6015	0.7344	0.4268	0.007
Mof_H 	H 	0.6695	0.8274	0.3041	0.005
Mof_N 	N 	0.6881	0.8901	0.6192	-0.274
Mof_H 	H 	0.7032	0.8547	0.7601	0.098
Mof_H 	H 	0.7631	0.9419	0.6427	0.113
Mof_C 	C 	0.1833	0.2894	0.4548	-0.022
Mof_H 	H 	0.1015	0.2344	0.4268	-0.021
Mof_H 	H 	0.1695	0.3274	0.3041	-0.021
Mof_N 	N 	0.1881	0.3901	0.6192	-0.282
Mof_H 	H 	0.2032	0.3547	0.7601	0.074
Mof_H 	H 	0.2631	0.4419	0.6427	0.083
Mof_C 	C 	0.3167	0.7894	0.0452	-0.114
Mof_H 	H 	0.3985	0.7344	0.0732	0.029
Mof_H 	H 	0.3305	0.8274	0.1959	0.025
Mof_N 	N 	0.3119	0.8901	0.8808	-0.242
Mof_H 	H 	0.2968	0.8547	0.7399	0.081
Mof_H 	H 	0.2369	0.9419	0.8573	0.094
Mof_C 	C 	0.8167	0.2894	0.0452	-0.117
Mof_H 	H 	0.8985	0.2344	0.0732	0.04
Mof_H 	H 	0.8305	0.3274	0.1959	0.027
Mof_N 	N 	0.8119	0.3901	0.8808	-0.24
Mof_H 	H 	0.7968	0.3547	0.7399	0.079
Mof_H 	H 	0.7369	0.4419	0.8573	0.084
Mof_Ag	Ag	0.5	0	0.5	0.307
Mof_Ag	Ag	1.61144e-33	0.5	0.5	0.309
Mof_Ag	Ag	0.5	0	-0	0.258
Mof_Ag	Ag	-0	0.5	-0	0.261
_end
