data_functionalizedCrystal
_audit_creation_method	'EQeq! by Chris Wilmer'
_symmetry_space_group_name_H-M	'P1'
_symmetry_Int_Tables_number	1
_symmetry_cell_setting	triclinic
loop_
_symmetry_equiv_pos_as_xyz
  x,y,z
_cell_length_a	10.559
_cell_length_b	11.371
_cell_length_c	11.671
_cell_angle_alpha	104.7
_cell_angle_beta	106.81
_cell_angle_gamma	96.127
loop_
_atom_site_label
_atom_site_type_symbol
_atom_site_fract_x
_atom_site_fract_y
_atom_site_fract_z
_atom_site_charge
Mof_Dy	Dy	0.10058	0.56096	0.37931	2.099
Mof_O 	O 	0.25566	0.5172	0.2802	-0.528
Mof_O 	O 	0.19622	0.4826	0.07423	-0.312
Mof_O 	O 	0.94681	0.25718	0.69171	-0.512
Mof_H 	H 	0.7871	0.1353	0.5066	0.216
Mof_O 	O 	0.8225	0.084	0.5457	-0.461
Mof_O 	O 	0.09289	0.70928	0.5569	-0.555
Mof_O 	O 	0.96132	0.65064	0.65969	-0.553
Mof_O 	O 	0.88195	0.54143	0.36967	-0.597
Mof_O 	O 	0.73867	0.48756	0.46148	-0.527
Mof_C 	C 	0.28003	0.5208	0.18098	0.427
Mof_C 	C 	0.42391	0.57162	0.19763	-0.198
Mof_C 	C 	0.4585	0.6478	0.1299	0.125
Mof_C 	C 	0.594	0.6812	0.144	-0.196
Mof_H 	H 	0.6179	0.7311	0.0987	0.105
Mof_C 	C 	0.6941	0.6426	0.2233	0.15
Mof_H 	H 	0.7836	0.664	0.2288	-0.013
Mof_C 	C 	0.66024	0.57166	0.29461	-0.242
Mof_C 	C 	0.5258	0.53749	0.28145	0.146
Mof_H 	H 	0.503	0.4906	0.3298	0.001
Mof_C 	C 	0.76817	0.53057	0.38129	0.545
Mof_C 	C 	0.3606	0.7028	0.0502	-0.017
Mof_C 	C 	0.2715	0.7677	0.0944	-0.034
Mof_H 	H 	0.2634	0.7676	0.1716	0.039
Mof_C 	C 	0.1951	0.8326	0.0247	-0.044
Mof_H 	H 	0.1382	0.8778	0.0569	0.05
Mof_C 	C 	0.2018	0.83119	0.90729	-0.031
Mof_C 	C 	0.2852	0.7605	0.8601	-0.031
Mof_H 	H 	0.287	0.7544	0.7796	0.039
Mof_C 	C 	0.3654	0.6992	0.9316	-0.054
Mof_H 	H 	0.4233	0.655	0.8999	0.053
Mof_C 	C 	0.1275	0.90895	0.83738	0.136
Mof_C 	C 	0.1386	0.0343	0.8984	-0.193
Mof_H 	H 	0.1913	0.0667	0.9824	0.101
Mof_C 	C 	0.0739	0.1113	0.8376	0.124
Mof_H 	H 	0.0832	0.1945	0.88	-0.001
Mof_C 	C 	0.9948	0.06319	0.7126	-0.211
Mof_C 	C 	0.9853	0.93983	0.64943	0.159
Mof_H 	H 	0.9343	0.9085	0.5648	-0.002
Mof_C 	C 	0.05082	0.86267	0.71059	-0.228
Mof_C 	C 	0.03371	0.72883	0.63653	0.547
Mof_C 	C 	0.9203	0.1446	0.6494	0.475
Mof_Dy	Dy	0.89942	0.43904	0.62069	2.1
Mof_O 	O 	0.74434	0.4828	0.7198	-0.527
Mof_O 	O 	0.80378	0.5174	0.92577	-0.311
Mof_O 	O 	0.05319	0.74282	0.30829	-0.511
Mof_H 	H 	0.2129	0.8647	0.4934	0.217
Mof_O 	O 	0.1775	0.916	0.4543	-0.46
Mof_O 	O 	0.90711	0.29072	0.4431	-0.555
Mof_O 	O 	0.03868	0.34936	0.34031	-0.553
Mof_O 	O 	0.11805	0.45857	0.63033	-0.597
Mof_O 	O 	0.26133	0.51244	0.53852	-0.527
Mof_C 	C 	0.71997	0.4792	0.81902	0.427
Mof_C 	C 	0.57609	0.42838	0.80237	-0.198
Mof_C 	C 	0.5415	0.3522	0.8701	0.125
Mof_C 	C 	0.406	0.3188	0.856	-0.196
Mof_H 	H 	0.3821	0.2689	0.9013	0.105
Mof_C 	C 	0.3059	0.3574	0.7767	0.15
Mof_H 	H 	0.2164	0.336	0.7712	-0.013
Mof_C 	C 	0.33976	0.42834	0.70539	-0.242
Mof_C 	C 	0.4742	0.46251	0.71855	0.146
Mof_H 	H 	0.497	0.5094	0.6702	0.001
Mof_C 	C 	0.23183	0.46943	0.61871	0.545
Mof_C 	C 	0.6394	0.2972	0.9498	-0.017
Mof_C 	C 	0.7285	0.2323	0.9056	-0.034
Mof_H 	H 	0.7366	0.2324	0.8284	0.039
Mof_C 	C 	0.8049	0.1674	0.9753	-0.044
Mof_H 	H 	0.8618	0.1222	0.9431	0.05
Mof_C 	C 	0.7982	0.16881	0.09271	-0.031
Mof_C 	C 	0.7148	0.2395	0.1399	-0.031
Mof_H 	H 	0.713	0.2456	0.2204	0.039
Mof_C 	C 	0.6346	0.3008	0.0684	-0.054
Mof_H 	H 	0.5767	0.345	0.1001	0.053
Mof_C 	C 	0.8725	0.09105	0.16262	0.136
Mof_C 	C 	0.8614	0.9657	0.1016	-0.193
Mof_H 	H 	0.8087	0.9333	0.0176	0.101
Mof_C 	C 	0.9261	0.8887	0.1624	0.124
Mof_H 	H 	0.9168	0.8055	0.12	-0.001
Mof_C 	C 	0.0052	0.93681	0.2874	-0.211
Mof_C 	C 	0.0147	0.06017	0.35057	0.159
Mof_H 	H 	0.0657	0.0915	0.4352	-0.002
Mof_C 	C 	0.94918	0.13733	0.28941	-0.228
Mof_C 	C 	0.96629	0.27117	0.36347	0.547
Mof_C 	C 	0.0797	0.8554	0.3506	0.475
_end
