data_functionalizedCrystal
_audit_creation_method	'EQeq! by Chris Wilmer'
_symmetry_space_group_name_H-M	'P1'
_symmetry_Int_Tables_number	1
_symmetry_cell_setting	triclinic
loop_
_symmetry_equiv_pos_as_xyz
  x,y,z
_cell_length_a	15.957
_cell_length_b	16.46
_cell_length_c	17.3
_cell_angle_alpha	106.07
_cell_angle_beta	100.85
_cell_angle_gamma	113.408
loop_
_atom_site_label
_atom_site_type_symbol
_atom_site_fract_x
_atom_site_fract_y
_atom_site_fract_z
_atom_site_charge
Mof_Mn	Mn	0.74896	0.59677	0.57339	0.886
Mof_O 	O 	0.6171	0.5565	0.6242	-0.38
Mof_O 	O 	0.7422	0.7096	0.6943	-0.296
Mof_O 	O 	0.6181	0.5899	0.4683	-0.408
Mof_O 	O 	0.7655	0.7038	0.5049	-0.307
Mof_O 	O 	0.5397	0.3919	0.4563	-0.376
Mof_O 	O 	0.7019	0.4531	0.4847	-0.342
Mof_O 	O 	0.8378	0.5732	0.6868	-0.287
Mof_O 	O 	0.9103	0.6526	0.6123	-0.295
Mof_O 	O 	0.2726	0.7973	0.0356	-0.15
Mof_O 	O 	0.5761	0.808	0.0411	-0.15
Mof_O 	O 	0.4749	0.992	0.1204	-0.166
Mof_O 	O 	0.4543	0.7011	0.1435	-0.148
Mof_C 	C 	0.4481	0.73	0.9005	-0.064
Mof_C 	C 	0.3529	0.7093	0.8576	-0.027
Mof_H 	H 	0.3282	0.6793	0.7983	0.045
Mof_C 	C 	0.2935	0.7322	0.9011	-0.068
Mof_C 	C 	0.3287	0.7738	0.9868	0.095
Mof_C 	C 	0.4234	0.8001	0.0368	-0.027
Mof_C 	C 	0.4811	0.7771	0.9915	0.099
Mof_C 	C 	0.601	0.7289	0.0405	-0.267
Mof_H 	H 	0.6468	0.7309	0.0112	0.12
Mof_H 	H 	0.5432	0.6678	0.0118	0.124
Mof_H 	H 	0.6289	0.7373	0.0983	0.127
Mof_C 	C 	0.2479	0.864	0.0207	-0.226
Mof_H 	H 	0.3056	0.9216	0.0321	0.115
Mof_H 	H 	0.2132	0.8785	0.0575	0.109
Mof_H 	H 	0.2075	0.8385	0.9622	0.106
Mof_C 	C 	0.5647	0.0519	0.1056	-0.275
Mof_H 	H 	0.5491	0.0818	0.0688	0.127
Mof_H 	H 	0.5899	0.0117	0.0792	0.124
Mof_H 	H 	0.6125	0.1005	0.1593	0.121
Mof_C 	C 	0.349	0.6356	0.1118	-0.267
Mof_H 	H 	0.3371	0.5787	0.1228	0.119
Mof_H 	H 	0.3235	0.6184	0.0515	0.123
Mof_H 	H 	0.3178	0.6672	0.1406	0.121
Mof_C 	C 	0.4628	0.8492	0.1307	-0.041
Mof_C 	C 	0.4815	0.803	0.1859	0.112
Mof_C 	C 	0.5327	0.8504	0.2695	-0.08
Mof_C 	C 	0.5613	0.9463	0.3061	0.008
Mof_H 	H 	0.5957	0.9791	0.3644	0.033
Mof_C 	C 	0.5414	0.9955	0.2604	-0.089
Mof_C 	C 	0.4912	0.9459	0.1707	0.131
Mof_C 	C 	0.5667	0.8045	0.325	0.118
Mof_C 	C 	0.5045	0.7168	0.3258	-0.15
Mof_H 	H 	0.4392	0.6868	0.2933	0.097
Mof_C 	C 	0.637	0.7137	0.417	-0.163
Mof_C 	C 	0.6989	0.7975	0.4099	0.097
Mof_H 	H 	0.7654	0.8224	0.4345	0.014
Mof_C 	C 	0.6674	0.8442	0.3695	-0.168
Mof_H 	H 	0.7114	0.9026	0.3707	0.095
Mof_C 	C 	0.6728	0.6692	0.4634	0.346
Mof_C 	C 	0.5607	0.0945	0.3007	0.124
Mof_C 	C 	0.6536	0.1647	0.3635	-0.157
Mof_H 	H 	0.7029	0.1486	0.3751	0.089
Mof_C 	C 	0.67	0.2599	0.4083	0.073
Mof_H 	H 	0.7319	0.3072	0.4451	0.022
Mof_C 	C 	0.5966	0.2816	0.3978	-0.144
Mof_C 	C 	0.5072	0.2103	0.3365	0.098
Mof_H 	H 	0.4563	0.2247	0.3281	0.013
Mof_C 	C 	0.491	0.1237	0.2897	-0.179
Mof_H 	H 	0.4305	0.081	0.248	0.106
Mof_C 	C 	0.6114	0.3803	0.4468	0.351
Mof_C 	C 	0.5072	0.7098	0.8519	0.096
Mof_C 	C 	0.6015	0.779	0.8656	-0.133
Mof_H 	H 	0.6308	0.8385	0.9108	0.087
Mof_C 	C 	0.6515	0.7578	0.8107	0.037
Mof_H 	H 	0.7126	0.8042	0.8174	0.032
Mof_C 	C 	0.6064	0.6626	0.7436	-0.114
Mof_C 	C 	0.5176	0.5989	0.7342	0.058
Mof_H 	H 	0.4909	0.5375	0.6922	0.024
Mof_C 	C 	0.4607	0.6175	0.7835	-0.139
Mof_H 	H 	0.397	0.5724	0.7719	0.087
Mof_C 	C 	0.6591	0.6454	0.686	0.292
Mof_C 	C 	0.9166	0.622	0.6762	0.28
Mof_C 	C 	0.0095	0.6509	0.7327	-0.103
Mof_C 	C 	0.0933	0.7004	0.7189	0.045
Mof_H 	H 	0.089	0.7195	0.6732	0.034
Mof_C 	C 	0.1853	0.7237	0.77	-0.13
Mof_H 	H 	0.24	0.7555	0.7569	0.076
Mof_C 	C 	0.1947	0.6985	0.8419	0.085
Mof_C 	C 	0.1113	0.6603	0.866	-0.126
Mof_H 	H 	0.1171	0.6539	0.9183	0.085
Mof_C 	C 	0.0184	0.6319	0.8081	0.035
Mof_H 	H 	0.9628	0.6004	0.8202	0.034
Mof_C 	C 	0.5368	0.6715	0.3743	0.08
Mof_H 	H 	0.4932	0.6159	0.3776	0.018
Mof_Cd	Cd	0.25104	0.40323	0.42661	0.501
Mof_O 	O 	0.3829	0.4435	0.3758	-0.335
Mof_O 	O 	0.2578	0.2904	0.3057	-0.252
Mof_O 	O 	0.3819	0.4101	0.5317	-0.366
Mof_O 	O 	0.2345	0.2962	0.4951	-0.254
Mof_O 	O 	0.4603	0.6081	0.5437	-0.363
Mof_O 	O 	0.2981	0.5469	0.5153	-0.274
Mof_O 	O 	0.1622	0.4268	0.3132	-0.243
Mof_O 	O 	0.0897	0.3474	0.3877	-0.239
Mof_O 	O 	0.7274	0.2027	0.9644	-0.15
Mof_O 	O 	0.4239	0.192	0.9589	-0.15
Mof_O 	O 	0.5251	0.008	0.8796	-0.165
Mof_O 	O 	0.5457	0.2989	0.8565	-0.148
Mof_C 	C 	0.5519	0.27	0.0995	-0.064
Mof_C 	C 	0.6471	0.2907	0.1424	-0.027
Mof_H 	H 	0.6718	0.3207	0.2017	0.045
Mof_C 	C 	0.7065	0.2678	0.0989	-0.068
Mof_C 	C 	0.6713	0.2262	0.0132	0.095
Mof_C 	C 	0.5766	0.1999	0.9632	-0.028
Mof_C 	C 	0.5189	0.2229	0.0085	0.099
Mof_C 	C 	0.399	0.2711	0.9595	-0.268
Mof_H 	H 	0.3532	0.2691	0.9888	0.121
Mof_H 	H 	0.4568	0.3322	0.9882	0.124
Mof_H 	H 	0.3711	0.2627	0.9017	0.128
Mof_C 	C 	0.7521	0.136	0.9793	-0.226
Mof_H 	H 	0.6944	0.0784	0.9679	0.115
Mof_H 	H 	0.7868	0.1215	0.9425	0.109
Mof_H 	H 	0.7925	0.1615	0.0378	0.106
Mof_C 	C 	0.4353	0.9481	0.8944	-0.276
Mof_H 	H 	0.4509	0.9182	0.9312	0.127
Mof_H 	H 	0.4101	0.9883	0.9208	0.124
Mof_H 	H 	0.3875	0.8995	0.8407	0.121
Mof_C 	C 	0.651	0.3644	0.8882	-0.265
Mof_H 	H 	0.6629	0.4213	0.8772	0.118
Mof_H 	H 	0.6765	0.3816	0.9485	0.122
Mof_H 	H 	0.6822	0.3328	0.8594	0.12
Mof_C 	C 	0.5372	0.1508	0.8693	-0.041
Mof_C 	C 	0.5185	0.197	0.8141	0.111
Mof_C 	C 	0.4673	0.1496	0.7305	-0.078
Mof_C 	C 	0.4387	0.0537	0.6939	0.006
Mof_H 	H 	0.4043	0.0209	0.6356	0.034
Mof_C 	C 	0.4586	0.0045	0.7396	-0.086
Mof_C 	C 	0.5088	0.0541	0.8293	0.129
Mof_C 	C 	0.4333	0.1955	0.675	0.116
Mof_C 	C 	0.4955	0.2832	0.6742	-0.148
Mof_H 	H 	0.5608	0.3132	0.7067	0.094
Mof_C 	C 	0.363	0.2863	0.583	-0.154
Mof_C 	C 	0.3011	0.2025	0.5901	0.091
Mof_H 	H 	0.2346	0.1776	0.5655	0.017
Mof_C 	C 	0.3326	0.1558	0.6305	-0.164
Mof_H 	H 	0.2886	0.0974	0.6293	0.094
Mof_C 	C 	0.3272	0.3308	0.5366	0.335
Mof_C 	C 	0.4393	0.9055	0.6993	0.118
Mof_C 	C 	0.3464	0.8353	0.6365	-0.151
Mof_H 	H 	0.2971	0.8514	0.6249	0.086
Mof_C 	C 	0.33	0.7401	0.5917	0.064
Mof_H 	H 	0.2681	0.6928	0.5549	0.026
Mof_C 	C 	0.4034	0.7184	0.6022	-0.132
Mof_C 	C 	0.4928	0.7897	0.6635	0.088
Mof_H 	H 	0.5437	0.7753	0.6719	0.015
Mof_C 	C 	0.509	0.8763	0.7103	-0.171
Mof_H 	H 	0.5695	0.919	0.752	0.103
Mof_C 	C 	0.3886	0.6197	0.5532	0.333
Mof_C 	C 	0.4928	0.2902	0.1481	0.095
Mof_C 	C 	0.3985	0.221	0.1344	-0.132
Mof_H 	H 	0.3692	0.1615	0.0892	0.087
Mof_C 	C 	0.3485	0.2422	0.1893	0.036
Mof_H 	H 	0.2874	0.1958	0.1826	0.033
Mof_C 	C 	0.3936	0.3374	0.2564	-0.111
Mof_C 	C 	0.4824	0.4011	0.2658	0.056
Mof_H 	H 	0.5091	0.4625	0.3078	0.023
Mof_C 	C 	0.5393	0.3825	0.2165	-0.139
Mof_H 	H 	0.603	0.4276	0.2281	0.085
Mof_C 	C 	0.3409	0.3546	0.314	0.29
Mof_C 	C 	0.0834	0.378	0.3238	0.275
Mof_C 	C 	0.9905	0.3491	0.2673	-0.098
Mof_C 	C 	0.9067	0.2996	0.2811	0.042
Mof_H 	H 	0.911	0.2805	0.3268	0.035
Mof_C 	C 	0.8147	0.2763	0.23	-0.128
Mof_H 	H 	0.76	0.2445	0.2431	0.075
Mof_C 	C 	0.8053	0.3015	0.1581	0.082
Mof_C 	C 	0.8887	0.3397	0.134	-0.122
Mof_H 	H 	0.8829	0.3461	0.0817	0.084
Mof_C 	C 	0.9816	0.3681	0.1919	0.029
Mof_H 	H 	0.0372	0.3996	0.1798	0.038
Mof_C 	C 	0.4632	0.3285	0.6257	0.075
Mof_H 	H 	0.5068	0.3841	0.6224	0.017
Mof_Mn	Mn	0.5	0.5	0.5	0.993
_end
