data_functionalizedCrystal
_audit_creation_method	'EQeq! by Chris Wilmer'
_symmetry_space_group_name_H-M	'P1'
_symmetry_Int_Tables_number	1
_symmetry_cell_setting	triclinic
loop_
_symmetry_equiv_pos_as_xyz
  x,y,z
_cell_length_a	45.4548
_cell_length_b	45.4548
_cell_length_c	15.5951
_cell_angle_alpha	90
_cell_angle_beta	90
_cell_angle_gamma	120
loop_
_atom_site_label
_atom_site_type_symbol
_atom_site_fract_x
_atom_site_fract_y
_atom_site_fract_z
_atom_site_charge
Mof_O 	O 	0.42525	0.51597	0.58533	-0.692
Mof_O 	O 	0.41967	0.47071	0.6587	-0.808
Mof_C 	C 	0.41093	0.49219	0.6388	0.538
Mof_C 	C 	0.38059	0.48961	0.6861	-0.216
Mof_C 	C 	0.36765	0.51009	0.6572	0.085
Mof_H 	H 	0.3774	0.5244	0.6088	0.013
Mof_C 	C 	0.34025	0.50909	0.7006	-0.142
Mof_H 	H 	0.3318	0.5236	0.6836	0.073
Mof_C 	C 	0.32533	0.48661	0.7691	0.063
Mof_C 	C 	0.33845	0.46593	0.7942	-0.157
Mof_H 	H 	0.3283	0.4506	0.8407	0.063
Mof_C 	C 	0.36602	0.46749	0.7523	0.097
Mof_H 	H 	0.3747	0.4532	0.7696	-0.033
Mof_C 	C 	0.29626	0.48527	0.8156	0.021
Mof_C 	C 	0.27014	0.48614	0.7715	-0.115
Mof_H 	H 	0.2708	0.4874	0.7106	0.061
Mof_C 	C 	0.26973	0.48447	0.9533	0.018
Mof_C 	C 	0.29565	0.48456	0.906	-0.092
Mof_H 	H 	0.3137	0.4841	0.9357	0.051
Mof_O 	O 	0.48403	0.90928	0.58533	-0.692
Mof_O 	O 	0.52929	0.94896	0.6587	-0.802
Mof_C 	C 	0.50781	0.91874	0.6388	0.537
Mof_C 	C 	0.51039	0.89098	0.6861	-0.214
Mof_C 	C 	0.48991	0.85756	0.6572	0.085
Mof_H 	H 	0.4756	0.853	0.6088	0.013
Mof_C 	C 	0.49091	0.83116	0.7006	-0.141
Mof_H 	H 	0.4764	0.8082	0.6836	0.074
Mof_C 	C 	0.51339	0.83872	0.7691	0.064
Mof_C 	C 	0.53407	0.87252	0.7942	-0.155
Mof_H 	H 	0.5494	0.8777	0.8407	0.066
Mof_C 	C 	0.53251	0.89853	0.7523	0.098
Mof_H 	H 	0.5468	0.9215	0.7696	-0.028
Mof_C 	C 	0.51473	0.81099	0.8156	0.023
Mof_C 	C 	0.51386	0.784	0.7715	-0.114
Mof_H 	H 	0.5126	0.7834	0.7106	0.063
Mof_C 	C 	0.51553	0.78526	0.9533	0.02
Mof_C 	C 	0.51544	0.81109	0.906	-0.091
Mof_H 	H 	0.5159	0.8296	0.9357	0.053
Mof_O 	O 	0.09072	0.57475	0.58533	-0.692
Mof_O 	O 	0.05104	0.58033	0.6587	-0.811
Mof_C 	C 	0.08126	0.58907	0.6388	0.54
Mof_C 	C 	0.10902	0.61941	0.6861	-0.217
Mof_C 	C 	0.14244	0.63235	0.6572	0.087
Mof_H 	H 	0.147	0.6226	0.6088	0.014
Mof_C 	C 	0.16884	0.65975	0.7006	-0.142
Mof_H 	H 	0.1918	0.6682	0.6836	0.074
Mof_C 	C 	0.16128	0.67467	0.7691	0.064
Mof_C 	C 	0.12748	0.66155	0.7942	-0.158
Mof_H 	H 	0.1223	0.6717	0.8407	0.064
Mof_C 	C 	0.10147	0.63398	0.7523	0.099
Mof_H 	H 	0.0785	0.6253	0.7696	-0.034
Mof_C 	C 	0.18901	0.70374	0.8156	0.022
Mof_C 	C 	0.216	0.72986	0.7715	-0.114
Mof_H 	H 	0.2166	0.7292	0.7106	0.062
Mof_C 	C 	0.21474	0.73027	0.9533	0.019
Mof_C 	C 	0.18891	0.70435	0.906	-0.09
Mof_H 	H 	0.1704	0.6863	0.9357	0.052
Mof_O 	O 	0.57475	0.48403	0.58533	-0.691
Mof_O 	O 	0.58033	0.52929	0.6587	-0.806
Mof_C 	C 	0.58907	0.50781	0.6388	0.539
Mof_C 	C 	0.61941	0.51039	0.6861	-0.215
Mof_C 	C 	0.63235	0.48991	0.6572	0.087
Mof_H 	H 	0.6226	0.4756	0.6088	0.014
Mof_C 	C 	0.65975	0.49091	0.7006	-0.141
Mof_H 	H 	0.6682	0.4764	0.6836	0.074
Mof_C 	C 	0.67467	0.51339	0.7691	0.064
Mof_C 	C 	0.66155	0.53407	0.7942	-0.156
Mof_H 	H 	0.6717	0.5494	0.8407	0.066
Mof_C 	C 	0.63398	0.53251	0.7523	0.098
Mof_H 	H 	0.6253	0.5468	0.7696	-0.031
Mof_C 	C 	0.70374	0.51473	0.8156	0.022
Mof_C 	C 	0.72986	0.51386	0.7715	-0.114
Mof_H 	H 	0.7292	0.5126	0.7106	0.063
Mof_C 	C 	0.73027	0.51553	0.9533	0.02
Mof_C 	C 	0.70435	0.51544	0.906	-0.09
Mof_H 	H 	0.6863	0.5159	0.9357	0.052
Mof_O 	O 	0.51597	0.09072	0.58533	-0.692
Mof_O 	O 	0.47071	0.05104	0.6587	-0.811
Mof_C 	C 	0.49219	0.08126	0.6388	0.54
Mof_C 	C 	0.48961	0.10902	0.6861	-0.217
Mof_C 	C 	0.51009	0.14244	0.6572	0.087
Mof_H 	H 	0.5244	0.147	0.6088	0.014
Mof_C 	C 	0.50909	0.16884	0.7006	-0.142
Mof_H 	H 	0.5236	0.1918	0.6836	0.074
Mof_C 	C 	0.48661	0.16128	0.7691	0.064
Mof_C 	C 	0.46593	0.12748	0.7942	-0.158
Mof_H 	H 	0.4506	0.1223	0.8407	0.064
Mof_C 	C 	0.46749	0.10147	0.7523	0.099
Mof_H 	H 	0.4532	0.0785	0.7696	-0.035
Mof_C 	C 	0.48527	0.18901	0.8156	0.021
Mof_C 	C 	0.48614	0.216	0.7715	-0.114
Mof_H 	H 	0.4874	0.2166	0.7106	0.062
Mof_C 	C 	0.48447	0.21474	0.9533	0.019
Mof_C 	C 	0.48456	0.18891	0.906	-0.091
Mof_H 	H 	0.4841	0.1704	0.9357	0.052
Mof_O 	O 	0.90928	0.42525	0.58533	-0.691
Mof_O 	O 	0.94896	0.41967	0.6587	-0.801
Mof_C 	C 	0.91874	0.41093	0.6388	0.538
Mof_C 	C 	0.89098	0.38059	0.6861	-0.213
Mof_C 	C 	0.85756	0.36765	0.6572	0.086
Mof_H 	H 	0.853	0.3774	0.6088	0.014
Mof_C 	C 	0.83116	0.34025	0.7006	-0.14
Mof_H 	H 	0.8082	0.3318	0.6836	0.074
Mof_C 	C 	0.83872	0.32533	0.7691	0.064
Mof_C 	C 	0.87252	0.33845	0.7942	-0.155
Mof_H 	H 	0.8777	0.3283	0.8407	0.066
Mof_C 	C 	0.89853	0.36602	0.7523	0.097
Mof_H 	H 	0.9215	0.3747	0.7696	-0.029
Mof_C 	C 	0.81099	0.29626	0.8156	0.023
Mof_C 	C 	0.784	0.27014	0.7715	-0.114
Mof_H 	H 	0.7834	0.2708	0.7106	0.062
Mof_C 	C 	0.78526	0.26973	0.9533	0.02
Mof_C 	C 	0.81109	0.29565	0.906	-0.091
Mof_H 	H 	0.8296	0.3137	0.9357	0.053
Mof_O 	O 	0.51597	0.42525	0.41467	-0.691
Mof_O 	O 	0.47071	0.41967	0.3413	-0.807
Mof_C 	C 	0.49219	0.41093	0.3612	0.539
Mof_C 	C 	0.48961	0.38059	0.3139	-0.215
Mof_C 	C 	0.51009	0.36765	0.3428	0.086
Mof_H 	H 	0.5244	0.3774	0.3912	0.014
Mof_C 	C 	0.50909	0.34025	0.2994	-0.141
Mof_H 	H 	0.5236	0.3318	0.3164	0.074
Mof_C 	C 	0.48661	0.32533	0.2309	0.064
Mof_C 	C 	0.46593	0.33845	0.2058	-0.156
Mof_H 	H 	0.4506	0.3283	0.1593	0.064
Mof_C 	C 	0.46749	0.36602	0.2477	0.098
Mof_H 	H 	0.4532	0.3747	0.2304	-0.032
Mof_C 	C 	0.48527	0.29626	0.1844	0.022
Mof_C 	C 	0.48614	0.27014	0.2285	-0.114
Mof_H 	H 	0.4874	0.2708	0.2894	0.062
Mof_C 	C 	0.48447	0.26973	0.0467	0.019
Mof_C 	C 	0.48456	0.29565	0.094	-0.091
Mof_H 	H 	0.4841	0.3137	0.0643	0.052
Mof_O 	O 	0.90928	0.48403	0.41467	-0.691
Mof_O 	O 	0.94896	0.52929	0.3413	-0.801
Mof_C 	C 	0.91874	0.50781	0.3612	0.538
Mof_C 	C 	0.89098	0.51039	0.3139	-0.213
Mof_C 	C 	0.85756	0.48991	0.3428	0.086
Mof_H 	H 	0.853	0.4756	0.3912	0.014
Mof_C 	C 	0.83116	0.49091	0.2994	-0.14
Mof_H 	H 	0.8082	0.4764	0.3164	0.074
Mof_C 	C 	0.83872	0.51339	0.2309	0.064
Mof_C 	C 	0.87252	0.53407	0.2058	-0.155
Mof_H 	H 	0.8777	0.5494	0.1593	0.066
Mof_C 	C 	0.89853	0.53251	0.2477	0.098
Mof_H 	H 	0.9215	0.5468	0.2304	-0.028
Mof_C 	C 	0.81099	0.51473	0.1844	0.023
Mof_C 	C 	0.784	0.51386	0.2285	-0.114
Mof_H 	H 	0.7834	0.5126	0.2894	0.063
Mof_C 	C 	0.78526	0.51553	0.0467	0.02
Mof_C 	C 	0.81109	0.51544	0.094	-0.091
Mof_H 	H 	0.8296	0.5159	0.0643	0.053
Mof_O 	O 	0.57475	0.09072	0.41467	-0.692
Mof_O 	O 	0.58033	0.05104	0.3413	-0.811
Mof_C 	C 	0.58907	0.08126	0.3612	0.54
Mof_C 	C 	0.61941	0.10902	0.3139	-0.217
Mof_C 	C 	0.63235	0.14244	0.3428	0.087
Mof_H 	H 	0.6226	0.147	0.3912	0.014
Mof_C 	C 	0.65975	0.16884	0.2994	-0.142
Mof_H 	H 	0.6682	0.1918	0.3164	0.074
Mof_C 	C 	0.67467	0.16128	0.2309	0.064
Mof_C 	C 	0.66155	0.12748	0.2058	-0.158
Mof_H 	H 	0.6717	0.1223	0.1593	0.064
Mof_C 	C 	0.63398	0.10147	0.2477	0.099
Mof_H 	H 	0.6253	0.0785	0.2304	-0.034
Mof_C 	C 	0.70374	0.18901	0.1844	0.022
Mof_C 	C 	0.72986	0.216	0.2285	-0.114
Mof_H 	H 	0.7292	0.2166	0.2894	0.062
Mof_C 	C 	0.73027	0.21474	0.0467	0.019
Mof_C 	C 	0.70435	0.18891	0.094	-0.09
Mof_H 	H 	0.6863	0.1704	0.0643	0.052
Mof_O 	O 	0.48403	0.57475	0.41467	-0.691
Mof_O 	O 	0.52929	0.58033	0.3413	-0.806
Mof_C 	C 	0.50781	0.58907	0.3612	0.539
Mof_C 	C 	0.51039	0.61941	0.3139	-0.215
Mof_C 	C 	0.48991	0.63235	0.3428	0.087
Mof_H 	H 	0.4756	0.6226	0.3912	0.014
Mof_C 	C 	0.49091	0.65975	0.2994	-0.141
Mof_H 	H 	0.4764	0.6682	0.3164	0.074
Mof_C 	C 	0.51339	0.67467	0.2309	0.064
Mof_C 	C 	0.53407	0.66155	0.2058	-0.156
Mof_H 	H 	0.5494	0.6717	0.1593	0.066
Mof_C 	C 	0.53251	0.63398	0.2477	0.098
Mof_H 	H 	0.5468	0.6253	0.2304	-0.031
Mof_C 	C 	0.51473	0.70374	0.1844	0.022
Mof_C 	C 	0.51386	0.72986	0.2285	-0.114
Mof_H 	H 	0.5126	0.7292	0.2894	0.063
Mof_C 	C 	0.51553	0.73027	0.0467	0.02
Mof_C 	C 	0.51544	0.70435	0.094	-0.09
Mof_H 	H 	0.5159	0.6863	0.0643	0.052
Mof_O 	O 	0.09072	0.51597	0.41467	-0.692
Mof_O 	O 	0.05104	0.47071	0.3413	-0.811
Mof_C 	C 	0.08126	0.49219	0.3612	0.54
Mof_C 	C 	0.10902	0.48961	0.3139	-0.217
Mof_C 	C 	0.14244	0.51009	0.3428	0.087
Mof_H 	H 	0.147	0.5244	0.3912	0.014
Mof_C 	C 	0.16884	0.50909	0.2994	-0.142
Mof_H 	H 	0.1918	0.5236	0.3164	0.074
Mof_C 	C 	0.16128	0.48661	0.2309	0.064
Mof_C 	C 	0.12748	0.46593	0.2058	-0.158
Mof_H 	H 	0.1223	0.4506	0.1593	0.064
Mof_C 	C 	0.10147	0.46749	0.2477	0.099
Mof_H 	H 	0.0785	0.4532	0.2304	-0.035
Mof_C 	C 	0.18901	0.48527	0.1844	0.021
Mof_C 	C 	0.216	0.48614	0.2285	-0.114
Mof_H 	H 	0.2166	0.4874	0.2894	0.062
Mof_C 	C 	0.21474	0.48447	0.0467	0.019
Mof_C 	C 	0.18891	0.48456	0.094	-0.091
Mof_H 	H 	0.1704	0.4841	0.0643	0.052
Mof_O 	O 	0.42525	0.90928	0.41467	-0.691
Mof_O 	O 	0.41967	0.94896	0.3413	-0.801
Mof_C 	C 	0.41093	0.91874	0.3612	0.538
Mof_C 	C 	0.38059	0.89098	0.3139	-0.213
Mof_C 	C 	0.36765	0.85756	0.3428	0.086
Mof_H 	H 	0.3774	0.853	0.3912	0.014
Mof_C 	C 	0.34025	0.83116	0.2994	-0.14
Mof_H 	H 	0.3318	0.8082	0.3164	0.074
Mof_C 	C 	0.32533	0.83872	0.2309	0.064
Mof_C 	C 	0.33845	0.87252	0.2058	-0.155
Mof_H 	H 	0.3283	0.8777	0.1593	0.066
Mof_C 	C 	0.36602	0.89853	0.2477	0.097
Mof_H 	H 	0.3747	0.9215	0.2304	-0.029
Mof_C 	C 	0.29626	0.81099	0.1844	0.023
Mof_C 	C 	0.27014	0.784	0.2285	-0.114
Mof_H 	H 	0.2708	0.7834	0.2894	0.062
Mof_C 	C 	0.26973	0.78526	0.0467	0.02
Mof_C 	C 	0.29565	0.81109	0.094	-0.091
Mof_H 	H 	0.3137	0.8296	0.0643	0.053
Mof_O 	O 	0.57475	0.48403	0.41467	-0.691
Mof_O 	O 	0.58033	0.52929	0.3413	-0.806
Mof_C 	C 	0.58907	0.50781	0.3612	0.539
Mof_C 	C 	0.61941	0.51039	0.3139	-0.215
Mof_C 	C 	0.63235	0.48991	0.3428	0.087
Mof_H 	H 	0.6226	0.4756	0.3912	0.014
Mof_C 	C 	0.65975	0.49091	0.2994	-0.141
Mof_H 	H 	0.6682	0.4764	0.3164	0.074
Mof_C 	C 	0.67467	0.51339	0.2309	0.064
Mof_C 	C 	0.66155	0.53407	0.2058	-0.156
Mof_H 	H 	0.6717	0.5494	0.1593	0.066
Mof_C 	C 	0.63398	0.53251	0.2477	0.098
Mof_H 	H 	0.6253	0.5468	0.2304	-0.031
Mof_C 	C 	0.70374	0.51473	0.1844	0.022
Mof_C 	C 	0.72986	0.51386	0.2285	-0.114
Mof_H 	H 	0.7292	0.5126	0.2894	0.063
Mof_C 	C 	0.73027	0.51553	0.0467	0.02
Mof_C 	C 	0.70435	0.51544	0.094	-0.09
Mof_H 	H 	0.6863	0.5159	0.0643	0.052
Mof_O 	O 	0.51597	0.09072	0.41467	-0.692
Mof_O 	O 	0.47071	0.05104	0.3413	-0.811
Mof_C 	C 	0.49219	0.08126	0.3612	0.54
Mof_C 	C 	0.48961	0.10902	0.3139	-0.217
Mof_C 	C 	0.51009	0.14244	0.3428	0.087
Mof_H 	H 	0.5244	0.147	0.3912	0.014
Mof_C 	C 	0.50909	0.16884	0.2994	-0.142
Mof_H 	H 	0.5236	0.1918	0.3164	0.074
Mof_C 	C 	0.48661	0.16128	0.2309	0.064
Mof_C 	C 	0.46593	0.12748	0.2058	-0.158
Mof_H 	H 	0.4506	0.1223	0.1593	0.064
Mof_C 	C 	0.46749	0.10147	0.2477	0.099
Mof_H 	H 	0.4532	0.0785	0.2304	-0.035
Mof_C 	C 	0.48527	0.18901	0.1844	0.021
Mof_C 	C 	0.48614	0.216	0.2285	-0.114
Mof_H 	H 	0.4874	0.2166	0.2894	0.062
Mof_C 	C 	0.48447	0.21474	0.0467	0.019
Mof_C 	C 	0.48456	0.18891	0.094	-0.091
Mof_H 	H 	0.4841	0.1704	0.0643	0.052
Mof_O 	O 	0.90928	0.42525	0.41467	-0.691
Mof_O 	O 	0.94896	0.41967	0.3413	-0.801
Mof_C 	C 	0.91874	0.41093	0.3612	0.538
Mof_C 	C 	0.89098	0.38059	0.3139	-0.213
Mof_C 	C 	0.85756	0.36765	0.3428	0.086
Mof_H 	H 	0.853	0.3774	0.3912	0.014
Mof_C 	C 	0.83116	0.34025	0.2994	-0.14
Mof_H 	H 	0.8082	0.3318	0.3164	0.074
Mof_C 	C 	0.83872	0.32533	0.2309	0.064
Mof_C 	C 	0.87252	0.33845	0.2058	-0.155
Mof_H 	H 	0.8777	0.3283	0.1593	0.066
Mof_C 	C 	0.89853	0.36602	0.2477	0.097
Mof_H 	H 	0.9215	0.3747	0.2304	-0.029
Mof_C 	C 	0.81099	0.29626	0.1844	0.023
Mof_C 	C 	0.784	0.27014	0.2285	-0.114
Mof_H 	H 	0.7834	0.2708	0.2894	0.062
Mof_C 	C 	0.78526	0.26973	0.0467	0.02
Mof_C 	C 	0.81109	0.29565	0.094	-0.091
Mof_H 	H 	0.8296	0.3137	0.0643	0.053
Mof_O 	O 	0.42525	0.51597	0.41467	-0.691
Mof_O 	O 	0.41967	0.47071	0.3413	-0.807
Mof_C 	C 	0.41093	0.49219	0.3612	0.539
Mof_C 	C 	0.38059	0.48961	0.3139	-0.215
Mof_C 	C 	0.36765	0.51009	0.3428	0.086
Mof_H 	H 	0.3774	0.5244	0.3912	0.014
Mof_C 	C 	0.34025	0.50909	0.2994	-0.141
Mof_H 	H 	0.3318	0.5236	0.3164	0.074
Mof_C 	C 	0.32533	0.48661	0.2309	0.064
Mof_C 	C 	0.33845	0.46593	0.2058	-0.156
Mof_H 	H 	0.3283	0.4506	0.1593	0.064
Mof_C 	C 	0.36602	0.46749	0.2477	0.098
Mof_H 	H 	0.3747	0.4532	0.2304	-0.032
Mof_C 	C 	0.29626	0.48527	0.1844	0.022
Mof_C 	C 	0.27014	0.48614	0.2285	-0.114
Mof_H 	H 	0.2708	0.4874	0.2894	0.062
Mof_C 	C 	0.26973	0.48447	0.0467	0.019
Mof_C 	C 	0.29565	0.48456	0.094	-0.091
Mof_H 	H 	0.3137	0.4841	0.0643	0.052
Mof_O 	O 	0.48403	0.90928	0.41467	-0.691
Mof_O 	O 	0.52929	0.94896	0.3413	-0.801
Mof_C 	C 	0.50781	0.91874	0.3612	0.538
Mof_C 	C 	0.51039	0.89098	0.3139	-0.213
Mof_C 	C 	0.48991	0.85756	0.3428	0.086
Mof_H 	H 	0.4756	0.853	0.3912	0.014
Mof_C 	C 	0.49091	0.83116	0.2994	-0.14
Mof_H 	H 	0.4764	0.8082	0.3164	0.074
Mof_C 	C 	0.51339	0.83872	0.2309	0.064
Mof_C 	C 	0.53407	0.87252	0.2058	-0.155
Mof_H 	H 	0.5494	0.8777	0.1593	0.066
Mof_C 	C 	0.53251	0.89853	0.2477	0.098
Mof_H 	H 	0.5468	0.9215	0.2304	-0.028
Mof_C 	C 	0.51473	0.81099	0.1844	0.023
Mof_C 	C 	0.51386	0.784	0.2285	-0.114
Mof_H 	H 	0.5126	0.7834	0.2894	0.063
Mof_C 	C 	0.51553	0.78526	0.0467	0.02
Mof_C 	C 	0.51544	0.81109	0.094	-0.091
Mof_H 	H 	0.5159	0.8296	0.0643	0.053
Mof_O 	O 	0.09072	0.57475	0.41467	-0.692
Mof_O 	O 	0.05104	0.58033	0.3413	-0.811
Mof_C 	C 	0.08126	0.58907	0.3612	0.54
Mof_C 	C 	0.10902	0.61941	0.3139	-0.217
Mof_C 	C 	0.14244	0.63235	0.3428	0.087
Mof_H 	H 	0.147	0.6226	0.3912	0.014
Mof_C 	C 	0.16884	0.65975	0.2994	-0.142
Mof_H 	H 	0.1918	0.6682	0.3164	0.074
Mof_C 	C 	0.16128	0.67467	0.2309	0.064
Mof_C 	C 	0.12748	0.66155	0.2058	-0.158
Mof_H 	H 	0.1223	0.6717	0.1593	0.064
Mof_C 	C 	0.10147	0.63398	0.2477	0.099
Mof_H 	H 	0.0785	0.6253	0.2304	-0.034
Mof_C 	C 	0.18901	0.70374	0.1844	0.022
Mof_C 	C 	0.216	0.72986	0.2285	-0.114
Mof_H 	H 	0.2166	0.7292	0.2894	0.062
Mof_C 	C 	0.21474	0.73027	0.0467	0.019
Mof_C 	C 	0.18891	0.70435	0.094	-0.09
Mof_H 	H 	0.1704	0.6863	0.0643	0.052
Mof_O 	O 	0.48403	0.57475	0.58533	-0.691
Mof_O 	O 	0.52929	0.58033	0.6587	-0.806
Mof_C 	C 	0.50781	0.58907	0.6388	0.539
Mof_C 	C 	0.51039	0.61941	0.6861	-0.215
Mof_C 	C 	0.48991	0.63235	0.6572	0.087
Mof_H 	H 	0.4756	0.6226	0.6088	0.014
Mof_C 	C 	0.49091	0.65975	0.7006	-0.141
Mof_H 	H 	0.4764	0.6682	0.6836	0.074
Mof_C 	C 	0.51339	0.67467	0.7691	0.064
Mof_C 	C 	0.53407	0.66155	0.7942	-0.156
Mof_H 	H 	0.5494	0.6717	0.8407	0.066
Mof_C 	C 	0.53251	0.63398	0.7523	0.098
Mof_H 	H 	0.5468	0.6253	0.7696	-0.031
Mof_C 	C 	0.51473	0.70374	0.8156	0.022
Mof_C 	C 	0.51386	0.72986	0.7715	-0.114
Mof_H 	H 	0.5126	0.7292	0.7106	0.063
Mof_C 	C 	0.51553	0.73027	0.9533	0.02
Mof_C 	C 	0.51544	0.70435	0.906	-0.09
Mof_H 	H 	0.5159	0.6863	0.9357	0.052
Mof_O 	O 	0.09072	0.51597	0.58533	-0.692
Mof_O 	O 	0.05104	0.47071	0.6587	-0.811
Mof_C 	C 	0.08126	0.49219	0.6388	0.54
Mof_C 	C 	0.10902	0.48961	0.6861	-0.217
Mof_C 	C 	0.14244	0.51009	0.6572	0.087
Mof_H 	H 	0.147	0.5244	0.6088	0.014
Mof_C 	C 	0.16884	0.50909	0.7006	-0.142
Mof_H 	H 	0.1918	0.5236	0.6836	0.074
Mof_C 	C 	0.16128	0.48661	0.7691	0.064
Mof_C 	C 	0.12748	0.46593	0.7942	-0.158
Mof_H 	H 	0.1223	0.4506	0.8407	0.064
Mof_C 	C 	0.10147	0.46749	0.7523	0.099
Mof_H 	H 	0.0785	0.4532	0.7696	-0.035
Mof_C 	C 	0.18901	0.48527	0.8156	0.021
Mof_C 	C 	0.216	0.48614	0.7715	-0.114
Mof_H 	H 	0.2166	0.4874	0.7106	0.062
Mof_C 	C 	0.21474	0.48447	0.9533	0.019
Mof_C 	C 	0.18891	0.48456	0.906	-0.091
Mof_H 	H 	0.1704	0.4841	0.9357	0.052
Mof_O 	O 	0.42525	0.90928	0.58533	-0.691
Mof_O 	O 	0.41967	0.94896	0.6587	-0.801
Mof_C 	C 	0.41093	0.91874	0.6388	0.538
Mof_C 	C 	0.38059	0.89098	0.6861	-0.213
Mof_C 	C 	0.36765	0.85756	0.6572	0.086
Mof_H 	H 	0.3774	0.853	0.6088	0.014
Mof_C 	C 	0.34025	0.83116	0.7006	-0.14
Mof_H 	H 	0.3318	0.8082	0.6836	0.074
Mof_C 	C 	0.32533	0.83872	0.7691	0.064
Mof_C 	C 	0.33845	0.87252	0.7942	-0.155
Mof_H 	H 	0.3283	0.8777	0.8407	0.066
Mof_C 	C 	0.36602	0.89853	0.7523	0.097
Mof_H 	H 	0.3747	0.9215	0.7696	-0.029
Mof_C 	C 	0.29626	0.81099	0.8156	0.023
Mof_C 	C 	0.27014	0.784	0.7715	-0.114
Mof_H 	H 	0.2708	0.7834	0.7106	0.062
Mof_C 	C 	0.26973	0.78526	0.9533	0.02
Mof_C 	C 	0.29565	0.81109	0.906	-0.091
Mof_H 	H 	0.3137	0.8296	0.9357	0.053
Mof_O 	O 	0.51597	0.42525	0.58533	-0.691
Mof_O 	O 	0.47071	0.41967	0.6587	-0.807
Mof_C 	C 	0.49219	0.41093	0.6388	0.539
Mof_C 	C 	0.48961	0.38059	0.6861	-0.215
Mof_C 	C 	0.51009	0.36765	0.6572	0.086
Mof_H 	H 	0.5244	0.3774	0.6088	0.014
Mof_C 	C 	0.50909	0.34025	0.7006	-0.141
Mof_H 	H 	0.5236	0.3318	0.6836	0.074
Mof_C 	C 	0.48661	0.32533	0.7691	0.064
Mof_C 	C 	0.46593	0.33845	0.7942	-0.156
Mof_H 	H 	0.4506	0.3283	0.8407	0.064
Mof_C 	C 	0.46749	0.36602	0.7523	0.098
Mof_H 	H 	0.4532	0.3747	0.7696	-0.032
Mof_C 	C 	0.48527	0.29626	0.8156	0.022
Mof_C 	C 	0.48614	0.27014	0.7715	-0.114
Mof_H 	H 	0.4874	0.2708	0.7106	0.062
Mof_C 	C 	0.48447	0.26973	0.9533	0.019
Mof_C 	C 	0.48456	0.29565	0.906	-0.091
Mof_H 	H 	0.4841	0.3137	0.9357	0.052
Mof_O 	O 	0.90928	0.48403	0.58533	-0.691
Mof_O 	O 	0.94896	0.52929	0.6587	-0.801
Mof_C 	C 	0.91874	0.50781	0.6388	0.538
Mof_C 	C 	0.89098	0.51039	0.6861	-0.213
Mof_C 	C 	0.85756	0.48991	0.6572	0.086
Mof_H 	H 	0.853	0.4756	0.6088	0.014
Mof_C 	C 	0.83116	0.49091	0.7006	-0.14
Mof_H 	H 	0.8082	0.4764	0.6836	0.074
Mof_C 	C 	0.83872	0.51339	0.7691	0.064
Mof_C 	C 	0.87252	0.53407	0.7942	-0.155
Mof_H 	H 	0.8777	0.5494	0.8407	0.066
Mof_C 	C 	0.89853	0.53251	0.7523	0.098
Mof_H 	H 	0.9215	0.5468	0.7696	-0.028
Mof_C 	C 	0.81099	0.51473	0.8156	0.023
Mof_C 	C 	0.784	0.51386	0.7715	-0.114
Mof_H 	H 	0.7834	0.5126	0.7106	0.063
Mof_C 	C 	0.78526	0.51553	0.9533	0.02
Mof_C 	C 	0.81109	0.51544	0.906	-0.091
Mof_H 	H 	0.8296	0.5159	0.9357	0.053
Mof_O 	O 	0.57475	0.09072	0.58533	-0.692
Mof_O 	O 	0.58033	0.05104	0.6587	-0.811
Mof_C 	C 	0.58907	0.08126	0.6388	0.54
Mof_C 	C 	0.61941	0.10902	0.6861	-0.217
Mof_C 	C 	0.63235	0.14244	0.6572	0.087
Mof_H 	H 	0.6226	0.147	0.6088	0.014
Mof_C 	C 	0.65975	0.16884	0.7006	-0.142
Mof_H 	H 	0.6682	0.1918	0.6836	0.074
Mof_C 	C 	0.67467	0.16128	0.7691	0.064
Mof_C 	C 	0.66155	0.12748	0.7942	-0.158
Mof_H 	H 	0.6717	0.1223	0.8407	0.064
Mof_C 	C 	0.63398	0.10147	0.7523	0.099
Mof_H 	H 	0.6253	0.0785	0.7696	-0.034
Mof_C 	C 	0.70374	0.18901	0.8156	0.022
Mof_C 	C 	0.72986	0.216	0.7715	-0.114
Mof_H 	H 	0.7292	0.2166	0.7106	0.062
Mof_C 	C 	0.73027	0.21474	0.9533	0.019
Mof_C 	C 	0.70435	0.18891	0.906	-0.09
Mof_H 	H 	0.6863	0.1704	0.9357	0.052
Mof_Zr	Zr	0.46883	0.53117	0.5	3.217
Mof_Zr	Zr	0.46883	0.93766	0.5	3.217
Mof_Zr	Zr	0.06234	0.53117	0.5	3.217
Mof_Zr	Zr	0.53117	0.46883	0.5	3.217
Mof_Zr	Zr	0.53117	0.06234	0.5	3.217
Mof_Zr	Zr	0.93766	0.46883	0.5	3.217
Mof_Zr	Zr	0.46105	0.46105	0.61341	3.18
Mof_Zr	Zr	0.53895	-3.61853e-33	0.61341	3.177
Mof_Zr	Zr	-5.83661e-17	0.53895	0.61341	3.177
Mof_Zr	Zr	0.53895	0.53895	0.61341	3.18
Mof_Zr	Zr	0.46105	-3.61853e-33	0.61341	3.177
Mof_Zr	Zr	-5.83661e-17	0.46105	0.61341	3.177
Mof_Zr	Zr	0.46105	0.46105	0.38659	3.18
Mof_Zr	Zr	-4.8836e-17	0.53895	0.38659	3.177
Mof_Zr	Zr	0.53895	0	0.38659	3.177
Mof_Zr	Zr	0.53895	0.53895	0.38659	3.18
Mof_Zr	Zr	-4.8836e-17	0.46105	0.38659	3.177
Mof_Zr	Zr	0.46105	0	0.38659	3.177
Mof_O 	O 	0.52347	0.55399	0.5	-1.446
Mof_H 	H 	0.5339	0.5793	0.5	0.19
Mof_O 	O 	0.44601	0.96948	0.5	-1.439
Mof_H 	H 	0.4207	0.9546	0.5	0.19
Mof_O 	O 	0.03052	0.47653	0.5	-1.452
Mof_H 	H 	0.0454	0.4661	0.5	0.189
Mof_O 	O 	0.47653	0.44601	0.5	-1.446
Mof_H 	H 	0.4661	0.4207	0.5	0.189
Mof_O 	O 	0.55399	0.03052	0.5	-1.452
Mof_H 	H 	0.5793	0.0454	0.5	0.189
Mof_O 	O 	0.96948	0.52347	0.5	-1.439
Mof_H 	H 	0.9546	0.5339	0.5	0.191
Mof_O 	O 	0.55399	0.52347	0.5	-1.446
Mof_H 	H 	0.5793	0.5339	0.5	0.19
Mof_O 	O 	0.96948	0.44601	0.5	-1.439
Mof_H 	H 	0.9546	0.4207	0.5	0.19
Mof_O 	O 	0.47653	0.03052	0.5	-1.452
Mof_H 	H 	0.4661	0.0454	0.5	0.189
Mof_O 	O 	0.44601	0.47653	0.5	-1.446
Mof_H 	H 	0.4207	0.4661	0.5	0.189
Mof_O 	O 	0.03052	0.55399	0.5	-1.452
Mof_H 	H 	0.0454	0.5793	0.5	0.189
Mof_O 	O 	0.52347	0.96948	0.5	-1.439
Mof_H 	H 	0.5339	0.9546	0.5	0.191
Mof_O 	O 	0.48509	0.51491	0.3867	-1.445
Mof_H 	H 	0.4777	0.5223	0.3345	0.186
Mof_O 	O 	0.48509	0.97018	0.3867	-1.438
Mof_H 	H 	0.4777	0.9554	0.3345	0.187
Mof_O 	O 	0.02982	0.51491	0.3867	-1.451
Mof_H 	H 	0.0446	0.5223	0.3345	0.185
Mof_O 	O 	0.51491	0.48509	0.3867	-1.445
Mof_H 	H 	0.5223	0.4777	0.3345	0.186
Mof_O 	O 	0.51491	0.02982	0.3867	-1.451
Mof_H 	H 	0.5223	0.0446	0.3345	0.185
Mof_O 	O 	0.97018	0.48509	0.3867	-1.438
Mof_H 	H 	0.9554	0.4777	0.3345	0.187
Mof_O 	O 	0.51491	0.48509	0.6133	-1.445
Mof_H 	H 	0.5223	0.4777	0.6655	0.186
Mof_O 	O 	0.97018	0.48509	0.6133	-1.438
Mof_H 	H 	0.9554	0.4777	0.6655	0.187
Mof_O 	O 	0.51491	0.02982	0.6133	-1.451
Mof_H 	H 	0.5223	0.0446	0.6655	0.185
Mof_O 	O 	0.48509	0.51491	0.6133	-1.445
Mof_H 	H 	0.4777	0.5223	0.6655	0.186
Mof_O 	O 	0.02982	0.51491	0.6133	-1.451
Mof_H 	H 	0.0446	0.5223	0.6655	0.185
Mof_O 	O 	0.48509	0.97018	0.6133	-1.438
Mof_H 	H 	0.4777	0.9554	0.6655	0.187
Mof_C 	C 	0.2426	0.4852	0.8163	0.067
Mof_C 	C 	0.2424	0.4848	0.909	-0.039
Mof_C 	C 	0.5148	0.7574	0.8163	0.068
Mof_C 	C 	0.5152	0.7576	0.909	-0.039
Mof_C 	C 	0.2426	0.7574	0.8163	0.067
Mof_C 	C 	0.2424	0.7576	0.909	-0.039
Mof_C 	C 	0.7574	0.5148	0.8163	0.068
Mof_C 	C 	0.7576	0.5152	0.909	-0.039
Mof_C 	C 	0.4852	0.2426	0.8163	0.067
Mof_C 	C 	0.4848	0.2424	0.909	-0.039
Mof_C 	C 	0.7574	0.2426	0.8163	0.067
Mof_C 	C 	0.7576	0.2424	0.909	-0.039
Mof_C 	C 	0.4852	0.2426	0.1837	0.067
Mof_C 	C 	0.4848	0.2424	0.091	-0.039
Mof_C 	C 	0.7574	0.5148	0.1837	0.068
Mof_C 	C 	0.7576	0.5152	0.091	-0.039
Mof_C 	C 	0.7574	0.2426	0.1837	0.067
Mof_C 	C 	0.7576	0.2424	0.091	-0.039
Mof_C 	C 	0.5148	0.7574	0.1837	0.068
Mof_C 	C 	0.5152	0.7576	0.091	-0.039
Mof_C 	C 	0.2426	0.4852	0.1837	0.067
Mof_C 	C 	0.2424	0.4848	0.091	-0.039
Mof_C 	C 	0.2426	0.7574	0.1837	0.067
Mof_C 	C 	0.2424	0.7576	0.091	-0.039
_end
