data_functionalizedCrystal
_audit_creation_method	'EQeq! by Chris Wilmer'
_symmetry_space_group_name_H-M	'P1'
_symmetry_Int_Tables_number	1
_symmetry_cell_setting	triclinic
loop_
_symmetry_equiv_pos_as_xyz
  x,y,z
_cell_length_a	24.7701
_cell_length_b	24.7701
_cell_length_c	24.7701
_cell_angle_alpha	109.471
_cell_angle_beta	109.471
_cell_angle_gamma	109.471
loop_
_atom_site_label
_atom_site_type_symbol
_atom_site_fract_x
_atom_site_fract_y
_atom_site_fract_z
_atom_site_charge
Mof_Ni	Ni	0.02803	0.27803	0.55606	1.118
Mof_Ni	Ni	0.22197	0.47197	0.94394	1.116
Mof_Ni	Ni	0.27803	0.22197	0.25	1.126
Mof_Ni	Ni	0.47197	0.02803	0.25	1.118
Mof_Ni	Ni	0.75	0.27803	0.72197	1.126
Mof_Ni	Ni	0.75	0.47197	0.52803	1.127
Mof_Ni	Ni	0.05606	0.02803	0.77803	1.11
Mof_Ni	Ni	0.44394	0.22197	0.97197	1.119
Mof_Ni	Ni	0.47197	0.44394	0.72197	1.128
Mof_Ni	Ni	0.27803	0.05606	0.52803	1.118
Mof_Ni	Ni	0.02803	0.75	0.97197	1.11
Mof_Ni	Ni	0.22197	0.75	0.77803	1.127
Mof_H 	H 	0.0877	0.4787	0.6104	0.062
Mof_H 	H 	0.1381	0.2988	0.6787	-0
Mof_H 	H 	0.2504	0.3767	0.7553	0.073
Mof_H 	H 	0.3092	0.4573	0.7417	0.034
Mof_H 	H 	0.2524	0.4743	0.6569	0.091
Mof_H 	H 	0.1376	0.3977	0.5845	0.027
Mof_H 	H 	0.9121	0.237	0.4711	0.295
Mof_H 	H 	0.3683	0.4773	0.8896	0.043
Mof_H 	H 	0.1201	0.4594	0.8213	0
Mof_H 	H 	0.1214	0.4951	0.7447	0.069
Mof_H 	H 	0.2156	0.5675	0.7583	0.034
Mof_H 	H 	0.3174	0.5955	0.8431	0.09
Mof_H 	H 	0.3132	0.5531	0.9155	0.023
Mof_H 	H 	0.2659	0.441	0.0289	0.297
Mof_H 	H 	0.1317	0.0213	0.109	0.075
Mof_H 	H 	0.3799	0.2012	0.3393	0
Mof_H 	H 	0.3786	0.1233	0.3737	0.073
Mof_H 	H 	0.2844	0.0427	0.3519	0.025
Mof_H 	H 	0.1826	0.0257	0.2781	0.083
Mof_H 	H 	0.1868	0.1023	0.2399	0.024
Mof_H 	H 	0.2341	0.263	0.1751	0.296
Mof_H 	H 	0.4123	0.0227	0.391	0.035
Mof_H 	H 	0.3619	0.0406	0.1607	0.045
Mof_H 	H 	0.2496	0.0049	0.1263	-0.009
Mof_H 	H 	0.1908	0.9325	0.1481	0.087
Mof_H 	H 	0.2476	0.9045	0.2219	0.065
Mof_H 	H 	0.3624	0.9469	0.2601	0.049
Mof_H 	H 	0.5879	0.059	0.3249	0.301
Mof_H 	H 	0.609	0.1317	0.5213	0.041
Mof_H 	H 	0.8393	0.3799	0.7012	0.002
Mof_H 	H 	0.8737	0.3786	0.6233	0.076
Mof_H 	H 	0.8519	0.2844	0.5427	0.035
Mof_H 	H 	0.7781	0.1826	0.5257	0.091
Mof_H 	H 	0.7399	0.1868	0.6023	0.027
Mof_H 	H 	0.6751	0.2341	0.763	0.296
Mof_H 	H 	0.891	0.4123	0.5227	0.057
Mof_H 	H 	0.6607	0.3619	0.5406	0.001
Mof_H 	H 	0.6263	0.2496	0.5049	0.073
Mof_H 	H 	0.6481	0.1908	0.4325	0.034
Mof_H 	H 	0.7219	0.2476	0.4045	0.092
Mof_H 	H 	0.7601	0.3624	0.4469	0.028
Mof_H 	H 	0.8249	0.5879	0.559	0.297
Mof_H 	H 	0.1104	0.0877	0.9787	0.081
Mof_H 	H 	0.1787	0.1381	0.7988	-0.001
Mof_H 	H 	0.2553	0.2504	0.8767	0.073
Mof_H 	H 	0.2417	0.3092	0.9573	0.024
Mof_H 	H 	0.1569	0.2524	0.9743	0.081
Mof_H 	H 	0.0845	0.1376	0.8977	0.018
Mof_H 	H 	0.9711	0.9121	0.737	0.295
Mof_H 	H 	0.3896	0.3683	0.9773	0.035
Mof_H 	H 	0.3213	0.1201	0.9594	0.048
Mof_H 	H 	0.2447	0.1214	0.9951	-0.024
Mof_H 	H 	0.2583	0.2156	0.0675	0.091
Mof_H 	H 	0.3431	0.3174	0.0955	0.062
Mof_H 	H 	0.4155	0.3132	0.0531	0.052
Mof_H 	H 	0.5289	0.2659	0.941	0.301
Mof_H 	H 	0.4773	0.3896	0.8683	0.042
Mof_H 	H 	0.4594	0.3213	0.6201	0.001
Mof_H 	H 	0.4951	0.2447	0.6214	0.073
Mof_H 	H 	0.5675	0.2583	0.7156	0.034
Mof_H 	H 	0.5955	0.3431	0.8174	0.09
Mof_H 	H 	0.5531	0.4155	0.8132	0.027
Mof_H 	H 	0.441	0.5289	0.7659	0.296
Mof_H 	H 	0.4787	0.1104	0.5877	0.043
Mof_H 	H 	0.2988	0.1787	0.6381	0.001
Mof_H 	H 	0.3767	0.2553	0.7504	0.073
Mof_H 	H 	0.4573	0.2417	0.8092	0.034
Mof_H 	H 	0.4743	0.1569	0.7524	0.089
Mof_H 	H 	0.3977	0.0845	0.6376	0.023
Mof_H 	H 	0.237	0.9711	0.4121	0.296
Mof_H 	H 	0.0227	0.891	0.9123	0.072
Mof_H 	H 	0.0406	0.6607	0.8619	0.044
Mof_H 	H 	0.0049	0.6263	0.7496	-0.016
Mof_H 	H 	0.9325	0.6481	0.6908	0.088
Mof_H 	H 	0.9045	0.7219	0.7476	0.064
Mof_H 	H 	0.9469	0.7601	0.8624	0.048
Mof_H 	H 	0.059	0.8249	0.0879	0.299
Mof_H 	H 	0.0213	0.609	0.6317	0.059
Mof_H 	H 	0.2012	0.8393	0.8799	0.001
Mof_H 	H 	0.1233	0.8737	0.8786	0.071
Mof_H 	H 	0.0427	0.8519	0.7844	0.026
Mof_H 	H 	0.0257	0.7781	0.6826	0.084
Mof_H 	H 	0.1023	0.7399	0.6868	0.025
Mof_H 	H 	0.263	0.6751	0.7341	0.296
Mof_H 	H 	0.0213	0.4123	0.8896	0.061
Mof_H 	H 	0.2012	0.3619	0.8213	0
Mof_H 	H 	0.1233	0.2496	0.7447	0.073
Mof_H 	H 	0.0427	0.1908	0.7583	0.024
Mof_H 	H 	0.0257	0.2476	0.8431	0.082
Mof_H 	H 	0.1023	0.3624	0.9155	0.019
Mof_H 	H 	0.263	0.5879	0.0289	0.296
Mof_H 	H 	0.0227	0.1317	0.6104	0.035
Mof_H 	H 	0.0406	0.3799	0.6787	0.046
Mof_H 	H 	0.0049	0.3786	0.7553	-0.017
Mof_H 	H 	0.9325	0.2844	0.7417	0.089
Mof_H 	H 	0.9045	0.1826	0.6569	0.062
Mof_H 	H 	0.9469	0.1868	0.5845	0.049
Mof_H 	H 	0.059	0.2341	0.4711	0.301
Mof_H 	H 	0.4787	0.3683	0.391	0.042
Mof_H 	H 	0.2988	0.1201	0.1607	0.002
Mof_H 	H 	0.3767	0.1214	0.1263	0.072
Mof_H 	H 	0.4573	0.2156	0.1481	0.036
Mof_H 	H 	0.4743	0.3174	0.2219	0.092
Mof_H 	H 	0.3977	0.3132	0.2601	0.029
Mof_H 	H 	0.237	0.2659	0.3249	0.297
Mof_H 	H 	0.4773	0.0877	0.109	0.077
Mof_H 	H 	0.4594	0.1381	0.3393	-0.001
Mof_H 	H 	0.4951	0.2504	0.3737	0.073
Mof_H 	H 	0.5675	0.3092	0.3519	0.034
Mof_H 	H 	0.5955	0.2524	0.2781	0.092
Mof_H 	H 	0.5531	0.1376	0.2399	0.027
Mof_H 	H 	0.441	0.9121	0.1751	0.295
Mof_H 	H 	0.3683	0.891	0.9787	0.075
Mof_H 	H 	0.1201	0.6607	0.7988	0
Mof_H 	H 	0.1214	0.6263	0.8767	0.069
Mof_H 	H 	0.2156	0.6481	0.9573	0.024
Mof_H 	H 	0.3174	0.7219	0.9743	0.084
Mof_H 	H 	0.3132	0.7601	0.8977	0.025
Mof_H 	H 	0.2659	0.8249	0.737	0.297
Mof_H 	H 	0.0877	0.609	0.9773	0.056
Mof_H 	H 	0.1381	0.8393	0.9594	0.049
Mof_H 	H 	0.2504	0.8737	0.9951	-0.02
Mof_H 	H 	0.3092	0.8519	0.0675	0.093
Mof_H 	H 	0.2524	0.7781	0.0955	0.062
Mof_H 	H 	0.1376	0.7399	0.0531	0.051
Mof_H 	H 	0.9121	0.6751	0.941	0.299
Mof_H 	H 	0.4123	0.3896	0.5213	0.042
Mof_H 	H 	0.3619	0.3213	0.7012	0.001
Mof_H 	H 	0.2496	0.2447	0.6233	0.073
Mof_H 	H 	0.1908	0.2583	0.5427	0.034
Mof_H 	H 	0.2476	0.3431	0.5257	0.091
Mof_H 	H 	0.3624	0.4155	0.6023	0.028
Mof_H 	H 	0.5879	0.5289	0.763	0.297
Mof_H 	H 	0.1317	0.1104	0.5227	0.043
Mof_H 	H 	0.3799	0.1787	0.5406	0.001
Mof_H 	H 	0.3786	0.2553	0.5049	0.073
Mof_H 	H 	0.2844	0.2417	0.4325	0.034
Mof_H 	H 	0.1826	0.1569	0.4045	0.089
Mof_H 	H 	0.1868	0.0845	0.4469	0.022
Mof_H 	H 	0.2341	0.9711	0.559	0.296
Mof_H 	H 	0.1104	0.0227	0.6317	0.037
Mof_H 	H 	0.1787	0.0406	0.8799	0.043
Mof_H 	H 	0.2553	0.0049	0.8786	-0.015
Mof_H 	H 	0.2417	0.9325	0.7844	0.085
Mof_H 	H 	0.1569	0.9045	0.6826	0.063
Mof_H 	H 	0.0845	0.9469	0.6868	0.045
Mof_H 	H 	0.9711	0.059	0.7341	0.3
Mof_H 	H 	0.3896	0.0213	0.9123	0.079
Mof_H 	H 	0.3213	0.2012	0.8619	-0.001
Mof_H 	H 	0.2447	0.1233	0.7496	0.073
Mof_H 	H 	0.2583	0.0427	0.6908	0.025
Mof_H 	H 	0.3431	0.0257	0.7476	0.084
Mof_H 	H 	0.4155	0.1023	0.8624	0.023
Mof_H 	H 	0.5289	0.263	0.0879	0.295
Mof_H 	H 	0.609	0.4773	0.5877	0.042
Mof_H 	H 	0.8393	0.4594	0.6381	0.002
Mof_H 	H 	0.8737	0.4951	0.7504	0.076
Mof_H 	H 	0.8519	0.5675	0.8092	0.035
Mof_H 	H 	0.7781	0.5955	0.7524	0.092
Mof_H 	H 	0.7399	0.5531	0.6376	0.028
Mof_H 	H 	0.6751	0.441	0.4121	0.296
Mof_H 	H 	0.891	0.4787	0.8683	0.058
Mof_H 	H 	0.6607	0.2988	0.6201	0.001
Mof_H 	H 	0.6263	0.3767	0.6214	0.073
Mof_H 	H 	0.6481	0.4573	0.7156	0.034
Mof_H 	H 	0.7219	0.4743	0.8174	0.09
Mof_H 	H 	0.7601	0.3977	0.8132	0.027
Mof_H 	H 	0.8249	0.237	0.7659	0.297
Mof_C 	C 	0.9737	0.36478	0.53526	0.38
Mof_C 	C 	0.98747	0.43523	0.56184	-0.052
Mof_C 	C 	0.05204	0.48728	0.60098	-0.019
Mof_C 	C 	0.932	0.1843	0.4199	0.075
Mof_C 	C 	0.8606	0.1392	0.3638	0.102
Mof_C 	C 	0.1601	0.3347	0.6736	0.071
Mof_C 	C 	0.2285	0.3811	0.7188	-0.119
Mof_C 	C 	0.2628	0.4294	0.7124	0.052
Mof_C 	C 	0.2303	0.4388	0.6625	-0.113
Mof_C 	C 	0.1611	0.3922	0.6195	0.071
Mof_C 	C 	0.32952	0.43844	0.96474	0.318
Mof_C 	C 	0.37339	0.42563	0.93816	-0.103
Mof_C 	C 	0.3863	0.45106	0.89902	0.047
Mof_C 	C 	0.2644	0.5121	0.0801	0.08
Mof_C 	C 	0.2754	0.4968	0.1362	0.099
Mof_C 	C 	0.1611	0.4865	0.8264	0.069
Mof_C 	C 	0.1623	0.5097	0.7812	-0.117
Mof_C 	C 	0.217	0.5504	0.7876	0.05
Mof_C 	C 	0.2763	0.5678	0.8375	-0.112
Mof_C 	C 	0.2727	0.5416	0.8805	0.07
Mof_C 	C 	0.17048	0.13522	0.10892	0.323
Mof_C 	C 	0.12661	0.06477	0.05224	0.004
Mof_C 	C 	0.1137	0.01272	0.06476	-0.071
Mof_C 	C 	0.2356	0.3157	0.2477	0.077
Mof_C 	C 	0.2246	0.3608	0.2214	0.096
Mof_C 	C 	0.3389	0.1653	0.3254	0.071
Mof_C 	C 	0.3377	0.1189	0.3474	-0.123
Mof_C 	C 	0.283	0.0706	0.3334	0.052
Mof_C 	C 	0.2237	0.0612	0.2915	-0.117
Mof_C 	C 	0.2273	0.1078	0.2689	0.07
Mof_C 	C 	0.5263	0.06156	0.39108	0.362
Mof_C 	C 	0.51253	0.07437	0.44776	-0.114
Mof_C 	C 	0.44796	0.04894	0.43524	0.048
Mof_C 	C 	0.568	0.9879	0.2523	0.126
Mof_C 	C 	0.6394	0.0032	0.2786	0.068
Mof_C 	C 	0.3399	0.0135	0.1746	-0.073
Mof_C 	C 	0.2715	0.9903	0.1526	0.081
Mof_C 	C 	0.2372	0.9496	0.1666	-0.082
Mof_C 	C 	0.2697	0.9322	0.2085	-0.024
Mof_C 	C 	0.3389	0.9584	0.2311	0.03
Mof_C 	C 	0.60892	0.17048	0.63522	0.36
Mof_C 	C 	0.55224	0.12661	0.56477	-0.112
Mof_C 	C 	0.56476	0.1137	0.51272	0.052
Mof_C 	C 	0.7477	0.2356	0.8157	0.077
Mof_C 	C 	0.7214	0.2246	0.8608	0.093
Mof_C 	C 	0.8254	0.3389	0.6653	0.072
Mof_C 	C 	0.8474	0.3377	0.6189	-0.118
Mof_C 	C 	0.8334	0.283	0.5706	0.053
Mof_C 	C 	0.7915	0.2237	0.5612	-0.112
Mof_C 	C 	0.7689	0.2273	0.6078	0.072
Mof_C 	C 	0.89108	0.5263	0.56156	0.342
Mof_C 	C 	0.94776	0.51253	0.57437	-0.045
Mof_C 	C 	0.93524	0.44796	0.54894	0.01
Mof_C 	C 	0.7523	0.568	0.4879	0.078
Mof_C 	C 	0.7786	0.6394	0.5032	0.1
Mof_C 	C 	0.6746	0.3399	0.5135	0.071
Mof_C 	C 	0.6526	0.2715	0.4903	-0.119
Mof_C 	C 	0.6666	0.2372	0.4496	0.052
Mof_C 	C 	0.7085	0.2697	0.4322	-0.112
Mof_C 	C 	0.7311	0.3389	0.4584	0.071
Mof_C 	C 	0.03526	0.9737	0.86478	0.321
Mof_C 	C 	0.06184	0.98747	0.93523	0.001
Mof_C 	C 	0.10098	0.05204	0.98728	-0.105
Mof_C 	C 	0.9199	0.932	0.6843	0.078
Mof_C 	C 	0.8638	0.8606	0.6392	0.108
Mof_C 	C 	0.1736	0.1601	0.8347	0.07
Mof_C 	C 	0.2188	0.2285	0.8811	-0.123
Mof_C 	C 	0.2124	0.2628	0.9294	0.052
Mof_C 	C 	0.1625	0.2303	0.9388	-0.119
Mof_C 	C 	0.1195	0.1611	0.8922	0.069
Mof_C 	C 	0.46474	0.32952	0.93844	0.362
Mof_C 	C 	0.43816	0.37339	0.92563	-0.114
Mof_C 	C 	0.39902	0.3863	0.95106	0.047
Mof_C 	C 	0.5801	0.2644	0.0121	0.129
Mof_C 	C 	0.6362	0.2754	0.9968	0.061
Mof_C 	C 	0.3264	0.1611	0.9865	-0.089
Mof_C 	C 	0.2812	0.1623	0.0097	0.101
Mof_C 	C 	0.2876	0.217	0.0504	-0.097
Mof_C 	C 	0.3375	0.2763	0.0678	-0.015
Mof_C 	C 	0.3805	0.2727	0.0416	0.025
Mof_C 	C 	0.43844	0.46474	0.82952	0.36
Mof_C 	C 	0.42563	0.43816	0.87339	-0.111
Mof_C 	C 	0.45106	0.39902	0.8863	0.052
Mof_C 	C 	0.5121	0.5801	0.7644	0.077
Mof_C 	C 	0.4968	0.6362	0.7754	0.097
Mof_C 	C 	0.4865	0.3264	0.6611	0.071
Mof_C 	C 	0.5097	0.2812	0.6623	-0.119
Mof_C 	C 	0.5504	0.2876	0.717	0.052
Mof_C 	C 	0.5678	0.3375	0.7763	-0.112
Mof_C 	C 	0.5416	0.3805	0.7727	0.071
Mof_C 	C 	0.36478	0.03526	0.4737	0.322
Mof_C 	C 	0.43523	0.06184	0.48747	-0.105
Mof_C 	C 	0.48728	0.10098	0.55204	0.048
Mof_C 	C 	0.1843	0.9199	0.432	0.079
Mof_C 	C 	0.1392	0.8638	0.3606	0.098
Mof_C 	C 	0.3347	0.1736	0.6601	0.071
Mof_C 	C 	0.3811	0.2188	0.7285	-0.119
Mof_C 	C 	0.4294	0.2124	0.7628	0.052
Mof_C 	C 	0.4388	0.1625	0.7303	-0.113
Mof_C 	C 	0.3922	0.1195	0.6611	0.07
Mof_C 	C 	0.06156	0.89108	0.0263	0.364
Mof_C 	C 	0.07437	0.94776	0.01253	0.017
Mof_C 	C 	0.04894	0.93524	0.94796	-0.075
Mof_C 	C 	0.9879	0.7523	0.068	0.119
Mof_C 	C 	0.0032	0.7786	0.1394	0.076
Mof_C 	C 	0.0135	0.6746	0.8399	-0.08
Mof_C 	C 	0.9903	0.6526	0.7715	0.089
Mof_C 	C 	0.9496	0.6666	0.7372	-0.088
Mof_C 	C 	0.9322	0.7085	0.7697	-0.021
Mof_C 	C 	0.9584	0.7311	0.8389	0.028
Mof_C 	C 	0.13522	0.60892	0.67048	0.344
Mof_C 	C 	0.06477	0.55224	0.62661	-0.068
Mof_C 	C 	0.01272	0.56476	0.6137	-0.022
Mof_C 	C 	0.3157	0.7477	0.7356	0.078
Mof_C 	C 	0.3608	0.7214	0.7246	0.097
Mof_C 	C 	0.1653	0.8254	0.8389	0.07
Mof_C 	C 	0.1189	0.8474	0.8377	-0.121
Mof_C 	C 	0.0706	0.8334	0.783	0.051
Mof_C 	C 	0.0612	0.7915	0.7237	-0.116
Mof_C 	C 	0.1078	0.7689	0.7273	0.07
Mof_C 	C 	0.13522	0.5263	0.96474	0.299
Mof_C 	C 	0.06477	0.51253	0.93816	-0.057
Mof_C 	C 	0.01272	0.44796	0.89902	-0.034
Mof_C 	C 	0.3157	0.568	0.0801	0.08
Mof_C 	C 	0.3608	0.6394	0.1362	0.103
Mof_C 	C 	0.1653	0.3399	0.8264	0.071
Mof_C 	C 	0.1189	0.2715	0.7812	-0.123
Mof_C 	C 	0.0706	0.2372	0.7876	0.052
Mof_C 	C 	0.0612	0.2697	0.8375	-0.118
Mof_C 	C 	0.1078	0.3389	0.8805	0.069
Mof_C 	C 	0.06156	0.17048	0.53526	0.36
Mof_C 	C 	0.07437	0.12661	0.56184	-0.113
Mof_C 	C 	0.04894	0.1137	0.60098	0.045
Mof_C 	C 	0.9879	0.2356	0.4199	0.127
Mof_C 	C 	0.0032	0.2246	0.3638	0.063
Mof_C 	C 	0.0135	0.3389	0.6736	-0.082
Mof_C 	C 	0.9903	0.3377	0.7188	0.093
Mof_C 	C 	0.9496	0.283	0.7124	-0.091
Mof_C 	C 	0.9322	0.2237	0.6625	-0.019
Mof_C 	C 	0.9584	0.2273	0.6195	0.027
Mof_C 	C 	0.36478	0.32952	0.39108	0.361
Mof_C 	C 	0.43523	0.37339	0.44776	-0.113
Mof_C 	C 	0.48728	0.3863	0.43524	0.055
Mof_C 	C 	0.1843	0.2644	0.2523	0.077
Mof_C 	C 	0.1392	0.2754	0.2786	0.093
Mof_C 	C 	0.3347	0.1611	0.1746	0.07
Mof_C 	C 	0.3811	0.1623	0.1526	-0.117
Mof_C 	C 	0.4294	0.217	0.1666	0.051
Mof_C 	C 	0.4388	0.2763	0.2085	-0.111
Mof_C 	C 	0.3922	0.2727	0.2311	0.071
Mof_C 	C 	0.43844	0.9737	0.10892	0.359
Mof_C 	C 	0.42563	0.98747	0.05224	0.016
Mof_C 	C 	0.45106	0.05204	0.06476	-0.062
Mof_C 	C 	0.5121	0.932	0.2477	0.076
Mof_C 	C 	0.4968	0.8606	0.2214	0.106
Mof_C 	C 	0.4865	0.1601	0.3254	0.071
Mof_C 	C 	0.5097	0.2285	0.3474	-0.119
Mof_C 	C 	0.5504	0.2628	0.3334	0.052
Mof_C 	C 	0.5678	0.2303	0.2915	-0.113
Mof_C 	C 	0.5416	0.1611	0.2689	0.071
Mof_C 	C 	0.32952	0.89108	0.86478	0.325
Mof_C 	C 	0.37339	0.94776	0.93523	-0.002
Mof_C 	C 	0.3863	0.93524	0.98728	-0.069
Mof_C 	C 	0.2644	0.7523	0.6843	0.077
Mof_C 	C 	0.2754	0.7786	0.6392	0.096
Mof_C 	C 	0.1611	0.6746	0.8347	0.069
Mof_C 	C 	0.1623	0.6526	0.8811	-0.122
Mof_C 	C 	0.217	0.6666	0.9294	0.051
Mof_C 	C 	0.2763	0.7085	0.9388	-0.117
Mof_C 	C 	0.2727	0.7311	0.8922	0.069
Mof_C 	C 	0.9737	0.60892	0.93844	0.381
Mof_C 	C 	0.98747	0.55224	0.92563	-0.051
Mof_C 	C 	0.05204	0.56476	0.95106	-0.029
Mof_C 	C 	0.932	0.7477	0.0121	0.125
Mof_C 	C 	0.8606	0.7214	0.9968	0.073
Mof_C 	C 	0.1601	0.8254	0.9865	-0.091
Mof_C 	C 	0.2285	0.8474	0.0097	0.105
Mof_C 	C 	0.2628	0.8334	0.0504	-0.098
Mof_C 	C 	0.2303	0.7915	0.0678	-0.014
Mof_C 	C 	0.1611	0.7689	0.0416	0.025
Mof_C 	C 	0.5263	0.46474	0.63522	0.361
Mof_C 	C 	0.51253	0.43816	0.56477	-0.113
Mof_C 	C 	0.44796	0.39902	0.51272	0.055
Mof_C 	C 	0.568	0.5801	0.8157	0.077
Mof_C 	C 	0.6394	0.6362	0.8608	0.095
Mof_C 	C 	0.3399	0.3264	0.6653	0.071
Mof_C 	C 	0.2715	0.2812	0.6189	-0.119
Mof_C 	C 	0.2372	0.2876	0.5706	0.052
Mof_C 	C 	0.2697	0.3375	0.5612	-0.112
Mof_C 	C 	0.3389	0.3805	0.6078	0.071
Mof_C 	C 	0.17048	0.03526	0.56156	0.321
Mof_C 	C 	0.12661	0.06184	0.57437	-0.103
Mof_C 	C 	0.1137	0.10098	0.54894	0.045
Mof_C 	C 	0.2356	0.9199	0.4879	0.08
Mof_C 	C 	0.2246	0.8638	0.5032	0.099
Mof_C 	C 	0.3389	0.1736	0.5135	0.071
Mof_C 	C 	0.3377	0.2188	0.4903	-0.119
Mof_C 	C 	0.283	0.2124	0.4496	0.052
Mof_C 	C 	0.2237	0.1625	0.4322	-0.113
Mof_C 	C 	0.2273	0.1195	0.4584	0.07
Mof_C 	C 	0.03526	0.06156	0.67048	0.32
Mof_C 	C 	0.06184	0.07437	0.62661	-0.105
Mof_C 	C 	0.10098	0.04894	0.6137	0.041
Mof_C 	C 	0.9199	0.9879	0.7356	0.124
Mof_C 	C 	0.8638	0.0032	0.7246	0.067
Mof_C 	C 	0.1736	0.0135	0.8389	-0.075
Mof_C 	C 	0.2188	0.9903	0.8377	0.08
Mof_C 	C 	0.2124	0.9496	0.783	-0.083
Mof_C 	C 	0.1625	0.9322	0.7237	-0.025
Mof_C 	C 	0.1195	0.9584	0.7273	0.029
Mof_C 	C 	0.46474	0.13522	0.0263	0.364
Mof_C 	C 	0.43816	0.06477	0.01253	-0.007
Mof_C 	C 	0.39902	0.01272	0.94796	-0.094
Mof_C 	C 	0.5801	0.3157	0.068	0.075
Mof_C 	C 	0.6362	0.3608	0.1394	0.107
Mof_C 	C 	0.3264	0.1653	0.8399	0.071
Mof_C 	C 	0.2812	0.1189	0.7715	-0.123
Mof_C 	C 	0.2876	0.0706	0.7372	0.052
Mof_C 	C 	0.3375	0.0612	0.7697	-0.118
Mof_C 	C 	0.3805	0.1078	0.8389	0.07
Mof_C 	C 	0.60892	0.43844	0.4737	0.361
Mof_C 	C 	0.55224	0.42563	0.48747	-0.113
Mof_C 	C 	0.56476	0.45106	0.55204	0.055
Mof_C 	C 	0.7477	0.5121	0.432	0.079
Mof_C 	C 	0.7214	0.4968	0.3606	0.101
Mof_C 	C 	0.8254	0.4865	0.6601	0.072
Mof_C 	C 	0.8474	0.5097	0.7285	-0.118
Mof_C 	C 	0.8334	0.5504	0.7628	0.053
Mof_C 	C 	0.7915	0.5678	0.7303	-0.112
Mof_C 	C 	0.7689	0.5416	0.6611	0.071
Mof_C 	C 	0.89108	0.36478	0.82952	0.34
Mof_C 	C 	0.94776	0.43523	0.87339	-0.041
Mof_C 	C 	0.93524	0.48728	0.8863	0.005
Mof_C 	C 	0.7523	0.1843	0.7644	0.077
Mof_C 	C 	0.7786	0.1392	0.7754	0.091
Mof_C 	C 	0.6746	0.3347	0.6611	0.071
Mof_C 	C 	0.6526	0.3811	0.6623	-0.119
Mof_C 	C 	0.6666	0.4294	0.717	0.052
Mof_C 	C 	0.7085	0.4388	0.7763	-0.112
Mof_C 	C 	0.7311	0.3922	0.7727	0.071
Mof_N 	N 	0.12744	0.34185	0.62469	-0.222
Mof_N 	N 	0.21716	0.50275	0.87531	-0.224
Mof_N 	N 	0.28284	0.15815	0.28559	-0.223
Mof_N 	N 	0.37256	0.99725	0.21441	-0.17
Mof_N 	N 	0.78559	0.28284	0.65815	-0.222
Mof_N 	N 	0.71441	0.37256	0.49725	-0.222
Mof_N 	N 	0.12469	0.12744	0.84185	-0.225
Mof_N 	N 	0.37531	0.21716	0.00275	-0.164
Mof_N 	N 	0.50275	0.37531	0.71716	-0.222
Mof_N 	N 	0.34185	0.12469	0.62744	-0.224
Mof_N 	N 	0.99725	0.71441	0.87256	-0.168
Mof_N 	N 	0.15815	0.78559	0.78284	-0.222
Mof_N 	N 	0.15815	0.37256	0.87531	-0.225
Mof_N 	N 	0.99725	0.28284	0.62469	-0.167
Mof_N 	N 	0.34185	0.21716	0.21441	-0.222
Mof_N 	N 	0.50275	0.12744	0.28559	-0.223
Mof_N 	N 	0.21716	0.71441	0.84185	-0.223
Mof_N 	N 	0.12744	0.78559	0.00275	-0.163
Mof_N 	N 	0.37256	0.37531	0.65815	-0.222
Mof_N 	N 	0.28284	0.12469	0.49725	-0.224
Mof_N 	N 	0.12469	0.99725	0.78284	-0.172
Mof_N 	N 	0.37531	0.15815	0.87256	-0.223
Mof_N 	N 	0.78559	0.50275	0.62744	-0.222
Mof_N 	N 	0.71441	0.34185	0.71716	-0.222
Mof_O 	O 	0.02262	0.35839	0.55843	-0.433
Mof_O 	O 	0.91611	0.31909	0.49356	-0.29
Mof_O 	O 	0.92954	0.21579	0.48043	-0.487
Mof_O 	O 	0.8335	0.1794	0.3559	-0.148
Mof_O 	O 	0.29996	0.46419	0.94157	-0.403
Mof_O 	O 	0.32553	0.42255	0.00644	-0.249
Mof_O 	O 	0.23536	0.44911	0.01957	-0.481
Mof_O 	O 	0.3235	0.4776	0.1441	-0.146
Mof_O 	O 	0.20004	0.14161	0.16423	-0.397
Mof_O 	O 	0.17447	0.18091	0.09702	-0.275
Mof_O 	O 	0.26464	0.28421	0.21375	-0.497
Mof_O 	O 	0.1765	0.3206	0.1541	-0.147
Mof_O 	O 	0.47738	0.03581	0.33577	-0.417
Mof_O 	O 	0.58389	0.07745	0.40298	-0.294
Mof_O 	O 	0.57046	0.05089	0.28625	-0.52
Mof_O 	O 	0.6665	0.0224	0.3459	-0.151
Mof_O 	O 	0.66423	0.20004	0.64161	-0.407
Mof_O 	O 	0.59702	0.17447	0.68091	-0.291
Mof_O 	O 	0.71375	0.26464	0.78421	-0.498
Mof_O 	O 	0.6541	0.1765	0.8206	-0.154
Mof_O 	O 	0.83577	0.47738	0.53581	-0.4
Mof_O 	O 	0.90298	0.58389	0.57745	-0.277
Mof_O 	O 	0.78625	0.57046	0.55089	-0.497
Mof_O 	O 	0.8459	0.6665	0.5224	-0.142
Mof_O 	O 	0.05843	0.02262	0.85839	-0.425
Mof_O 	O 	0.99356	0.91611	0.81909	-0.25
Mof_O 	O 	0.98043	0.92954	0.71579	-0.472
Mof_O 	O 	0.8559	0.8335	0.6794	-0.146
Mof_O 	O 	0.44157	0.29996	0.96419	-0.418
Mof_O 	O 	0.50644	0.32553	0.92255	-0.294
Mof_O 	O 	0.51957	0.23536	0.94911	-0.524
Mof_O 	O 	0.6441	0.3235	0.9776	-0.151
Mof_O 	O 	0.46419	0.44157	0.79996	-0.406
Mof_O 	O 	0.42255	0.50644	0.82553	-0.29
Mof_O 	O 	0.44911	0.51957	0.73536	-0.498
Mof_O 	O 	0.4776	0.6441	0.8235	-0.151
Mof_O 	O 	0.35839	0.05843	0.52262	-0.403
Mof_O 	O 	0.31909	0.99356	0.41611	-0.253
Mof_O 	O 	0.21579	0.98043	0.42954	-0.483
Mof_O 	O 	0.1794	0.8559	0.3335	-0.147
Mof_O 	O 	0.03581	0.83577	0.97738	-0.441
Mof_O 	O 	0.07745	0.90298	0.08389	-0.283
Mof_O 	O 	0.05089	0.78625	0.07046	-0.506
Mof_O 	O 	0.0224	0.8459	0.1665	-0.144
Mof_O 	O 	0.14161	0.66423	0.70004	-0.403
Mof_O 	O 	0.18091	0.59702	0.67447	-0.286
Mof_O 	O 	0.28421	0.71375	0.76464	-0.498
Mof_O 	O 	0.3206	0.6541	0.6765	-0.15
Mof_O 	O 	0.14161	0.47738	0.94157	-0.399
Mof_O 	O 	0.18091	0.58389	0.00644	-0.245
Mof_O 	O 	0.28421	0.57046	0.01957	-0.48
Mof_O 	O 	0.3206	0.6665	0.1441	-0.147
Mof_O 	O 	0.03581	0.20004	0.55843	-0.418
Mof_O 	O 	0.07745	0.17447	0.49356	-0.295
Mof_O 	O 	0.05089	0.26464	0.48043	-0.522
Mof_O 	O 	0.0224	0.1765	0.3559	-0.154
Mof_O 	O 	0.35839	0.29996	0.33577	-0.406
Mof_O 	O 	0.31909	0.32553	0.40298	-0.289
Mof_O 	O 	0.21579	0.23536	0.28625	-0.499
Mof_O 	O 	0.1794	0.3235	0.3459	-0.151
Mof_O 	O 	0.46419	0.02262	0.16423	-0.426
Mof_O 	O 	0.42255	0.91611	0.09702	-0.278
Mof_O 	O 	0.44911	0.92954	0.21375	-0.487
Mof_O 	O 	0.4776	0.8335	0.1541	-0.141
Mof_O 	O 	0.29996	0.83577	0.85839	-0.397
Mof_O 	O 	0.32553	0.90298	0.81909	-0.275
Mof_O 	O 	0.23536	0.78625	0.71579	-0.498
Mof_O 	O 	0.3235	0.8459	0.6794	-0.145
Mof_O 	O 	0.02262	0.66423	0.96419	-0.446
Mof_O 	O 	0.91611	0.59702	0.92255	-0.295
Mof_O 	O 	0.92954	0.71375	0.94911	-0.51
Mof_O 	O 	0.8335	0.6541	0.9776	-0.15
Mof_O 	O 	0.47738	0.44157	0.64161	-0.406
Mof_O 	O 	0.58389	0.50644	0.68091	-0.289
Mof_O 	O 	0.57046	0.51957	0.78421	-0.498
Mof_O 	O 	0.6665	0.6441	0.8206	-0.149
Mof_O 	O 	0.20004	0.05843	0.53581	-0.403
Mof_O 	O 	0.17447	0.99356	0.57745	-0.254
Mof_O 	O 	0.26464	0.98043	0.55089	-0.482
Mof_O 	O 	0.1765	0.8559	0.5224	-0.149
Mof_O 	O 	0.05843	0.03581	0.70004	-0.413
Mof_O 	O 	0.99356	0.07745	0.67447	-0.255
Mof_O 	O 	0.98043	0.05089	0.76464	-0.503
Mof_O 	O 	0.8559	0.0224	0.6765	-0.149
Mof_O 	O 	0.44157	0.14161	0.97738	-0.431
Mof_O 	O 	0.50644	0.18091	0.08389	-0.287
Mof_O 	O 	0.51957	0.28421	0.07046	-0.485
Mof_O 	O 	0.6441	0.3206	0.1665	-0.147
Mof_O 	O 	0.66423	0.46419	0.52262	-0.406
Mof_O 	O 	0.59702	0.42255	0.41611	-0.289
Mof_O 	O 	0.71375	0.44911	0.42954	-0.497
Mof_O 	O 	0.6541	0.4776	0.3335	-0.148
Mof_O 	O 	0.83577	0.35839	0.79996	-0.401
Mof_O 	O 	0.90298	0.31909	0.82553	-0.279
Mof_O 	O 	0.78625	0.21579	0.73536	-0.498
Mof_O 	O 	0.8459	0.1794	0.8235	-0.148
_end
